# Generated by pormake.
# Topology uob, (4)-cn, num edge types: 1
# Building blocks:
#     Node 0, Type 0, BuildingBlock: NAWXER_clean_sbu_0, # of connection points: 4
#     Node 1, Type 0, BuildingBlock: NAWXER_clean_sbu_0, # of connection points: 4
#     Node 2, Type 0, BuildingBlock: NAWXER_clean_sbu_0, # of connection points: 4
#     Node 3, Type 0, BuildingBlock: NAWXER_clean_sbu_0, # of connection points: 4
#     Node 4, Type 0, BuildingBlock: NAWXER_clean_sbu_0, # of connection points: 4
#     Node 5, Type 0, BuildingBlock: NAWXER_clean_sbu_0, # of connection points: 4
#     Node 6, Type 0, BuildingBlock: NAWXER_clean_sbu_0, # of connection points: 4
#     Node 7, Type 0, BuildingBlock: NAWXER_clean_sbu_0, # of connection points: 4
#     Node 8, Type 0, BuildingBlock: NAWXER_clean_sbu_0, # of connection points: 4
#     Node 9, Type 0, BuildingBlock: NAWXER_clean_sbu_0, # of connection points: 4
#     Node 10, Type 0, BuildingBlock: NAWXER_clean_sbu_0, # of connection points: 4
#     Node 11, Type 0, BuildingBlock: NAWXER_clean_sbu_0, # of connection points: 4
#     Node 12, Type 0, BuildingBlock: NAWXER_clean_sbu_0, # of connection points: 4
#     Node 13, Type 0, BuildingBlock: NAWXER_clean_sbu_0, # of connection points: 4
#     Node 14, Type 0, BuildingBlock: NAWXER_clean_sbu_0, # of connection points: 4
#     Node 15, Type 0, BuildingBlock: NAWXER_clean_sbu_0, # of connection points: 4
#     Edge 16, Type (0, 0), BuildingBlock: TEMPAE_clean_linker_10, # of connection points: 2
#     Edge 17, Type (0, 0), BuildingBlock: TEMPAE_clean_linker_10, # of connection points: 2
#     Edge 18, Type (0, 0), BuildingBlock: TEMPAE_clean_linker_10, # of connection points: 2
#     Edge 19, Type (0, 0), BuildingBlock: TEMPAE_clean_linker_10, # of connection points: 2
#     Edge 20, Type (0, 0), BuildingBlock: TEMPAE_clean_linker_10, # of connection points: 2
#     Edge 21, Type (0, 0), BuildingBlock: TEMPAE_clean_linker_10, # of connection points: 2
#     Edge 22, Type (0, 0), BuildingBlock: TEMPAE_clean_linker_10, # of connection points: 2
#     Edge 23, Type (0, 0), BuildingBlock: TEMPAE_clean_linker_10, # of connection points: 2
#     Edge 24, Type (0, 0), BuildingBlock: TEMPAE_clean_linker_10, # of connection points: 2
#     Edge 25, Type (0, 0), BuildingBlock: TEMPAE_clean_linker_10, # of connection points: 2
#     Edge 26, Type (0, 0), BuildingBlock: TEMPAE_clean_linker_10, # of connection points: 2
#     Edge 27, Type (0, 0), BuildingBlock: TEMPAE_clean_linker_10, # of connection points: 2
#     Edge 28, Type (0, 0), BuildingBlock: TEMPAE_clean_linker_10, # of connection points: 2
#     Edge 29, Type (0, 0), BuildingBlock: TEMPAE_clean_linker_10, # of connection points: 2
#     Edge 30, Type (0, 0), BuildingBlock: TEMPAE_clean_linker_10, # of connection points: 2
#     Edge 31, Type (0, 0), BuildingBlock: TEMPAE_clean_linker_10, # of connection points: 2
#     Edge 32, Type (0, 0), BuildingBlock: TEMPAE_clean_linker_10, # of connection points: 2
#     Edge 33, Type (0, 0), BuildingBlock: TEMPAE_clean_linker_10, # of connection points: 2
#     Edge 34, Type (0, 0), BuildingBlock: TEMPAE_clean_linker_10, # of connection points: 2
#     Edge 35, Type (0, 0), BuildingBlock: TEMPAE_clean_linker_10, # of connection points: 2
#     Edge 36, Type (0, 0), BuildingBlock: TEMPAE_clean_linker_10, # of connection points: 2
#     Edge 37, Type (0, 0), BuildingBlock: TEMPAE_clean_linker_10, # of connection points: 2
#     Edge 38, Type (0, 0), BuildingBlock: TEMPAE_clean_linker_10, # of connection points: 2
#     Edge 39, Type (0, 0), BuildingBlock: TEMPAE_clean_linker_10, # of connection points: 2
#     Edge 40, Type (0, 0), BuildingBlock: TEMPAE_clean_linker_10, # of connection points: 2
#     Edge 41, Type (0, 0), BuildingBlock: TEMPAE_clean_linker_10, # of connection points: 2
#     Edge 42, Type (0, 0), BuildingBlock: TEMPAE_clean_linker_10, # of connection points: 2
#     Edge 43, Type (0, 0), BuildingBlock: TEMPAE_clean_linker_10, # of connection points: 2
#     Edge 44, Type (0, 0), BuildingBlock: TEMPAE_clean_linker_10, # of connection points: 2
#     Edge 45, Type (0, 0), BuildingBlock: TEMPAE_clean_linker_10, # of connection points: 2
#     Edge 46, Type (0, 0), BuildingBlock: TEMPAE_clean_linker_10, # of connection points: 2
#     Edge 47, Type (0, 0), BuildingBlock: TEMPAE_clean_linker_10, # of connection points: 2
# Relax obj value: 0.120
# Max RMSD: 0.245
# Mean RMSD: 0.245
data_MOF--net-uob--node1-NAWXER_clean_sbu_0--edge1-TEMPAE_clean_linker_10
_symmetry_space_group_name_H-M    P1
_symmetry_Int_Tables_number       1
_symmetry_cell_setting            triclinic
loop_
_symmetry_equiv_pos_as_xyz
'x, y, z'
_cell_length_a     53.130945
_cell_length_b     53.118905
_cell_length_c     28.919603
_cell_angle_alpha  90.007207
_cell_angle_beta   89.995189
_cell_angle_gamma 89.979837
loop_
_atom_site_label
_atom_site_type_symbol
_atom_site_fract_x
_atom_site_fract_y
_atom_site_fract_z
_atom_type_partial_charge
C0 C 0.11456 0.08534 0.36228 0.0
C1 C 0.13334 0.09137 0.19945 0.0
O2 O 0.12125 0.06386 0.34599 0.0
Zn3 Zn 0.13398 0.04938 0.27959 0.0
O4 O 0.11461 0.10455 0.33617 0.0
Zn5 Zn 0.12645 0.08762 0.28239 0.0
O6 O 0.09421 0.06316 0.2671 0.0
O7 O 0.10895 0.02424 0.26945 0.0
O8 O 0.12973 0.10842 0.22928 0.0
O9 O 0.13554 0.06839 0.21286 0.0
O10 O 0.16704 0.03693 0.29445 0.0
O11 O 0.16427 0.07792 0.30413 0.0
C12 C 0.09059 0.03927 0.26415 0.0
C13 C 0.17689 0.05742 0.30767 0.0
C14 C 0.92077 0.60906 0.61066 0.0
C15 C 0.91077 0.6285 0.44855 0.0
O16 O 0.94104 0.61866 0.59398 0.0
Zn17 Zn 0.95317 0.63347 0.52706 0.0
O18 O 0.90152 0.60657 0.58501 0.0
Zn19 Zn 0.91616 0.62096 0.53126 0.0
O20 O 0.94418 0.59231 0.51433 0.0
O21 O 0.98112 0.6115 0.51538 0.0
O22 O 0.89453 0.62252 0.47864 0.0
O23 O 0.93344 0.63312 0.46143 0.0
O24 O 0.96101 0.66834 0.54075 0.0
O25 O 0.92143 0.6591 0.55516 0.0
C26 C 0.96826 0.59153 0.5103 0.0
C27 C 0.93977 0.67475 0.55694 0.0
C28 C 0.39621 0.41791 0.8683 0.0
C29 C 0.37806 0.40636 0.70577 0.0
O30 O 0.38793 0.43839 0.85002 0.0
Zn31 Zn 0.37417 0.45001 0.78168 0.0
O32 O 0.39784 0.39803 0.84401 0.0
Zn33 Zn 0.38508 0.41246 0.78891 0.0
O34 O 0.41526 0.43891 0.77406 0.0
O35 O 0.39769 0.47644 0.76683 0.0
O36 O 0.38352 0.3903 0.73652 0.0
O37 O 0.37394 0.42923 0.71782 0.0
O38 O 0.3395 0.45955 0.7945 0.0
O39 O 0.34713 0.41987 0.81115 0.0
C40 C 0.41726 0.46267 0.76667 0.0
C41 C 0.33222 0.43884 0.8118 0.0
C42 C 0.58794 0.89684 0.11653 0.0
C43 C 0.5977 0.87664 0.95453 0.0
O44 O 0.5671 0.88884 0.09925 0.0
Zn45 Zn 0.55456 0.8747 0.03162 0.0
O46 O 0.60761 0.89769 0.09155 0.0
Zn47 Zn 0.59235 0.88476 0.03744 0.0
O48 O 0.56645 0.91547 0.02236 0.0
O49 O 0.52853 0.8986 0.0167 0.0
O50 O 0.61407 0.88212 0.98467 0.0
O51 O 0.57481 0.87327 0.96722 0.0
O52 O 0.54429 0.84039 0.04539 0.0
O53 O 0.58429 0.84709 0.06077 0.0
C54 C 0.54267 0.91789 0.01557 0.0
C55 C 0.56498 0.83263 0.06207 0.0
C56 C 0.17576 0.44034 0.01109 0.0
C57 C 0.09152 0.46616 0.05712 0.0
O58 O 0.16063 0.42157 0.01267 0.0
Zn59 Zn 0.12264 0.41508 0.03623 0.0
O60 O 0.16878 0.46132 0.0277 0.0
Zn61 Zn 0.13406 0.45244 0.04103 0.0
O62 O 0.13386 0.4325 0.10653 0.0
O63 O 0.12457 0.39335 0.08863 0.0
O64 O 0.1111 0.47966 0.05245 0.0
O65 O 0.09309 0.44213 0.05292 0.0
O66 O 0.10892 0.40018 0.98217 0.0
O67 O 0.12 0.44004 0.97373 0.0
C68 C 0.12979 0.40966 0.11906 0.0
C69 C 0.11109 0.41954 0.95669 0.0
C70 C 0.58586 0.60905 0.20757 0.0
C71 C 0.59298 0.63218 0.3686 0.0
O72 O 0.56491 0.61778 0.22302 0.0
Zn73 Zn 0.55119 0.63301 0.28853 0.0
O74 O 0.60496 0.60814 0.23394 0.0
Zn75 Zn 0.58892 0.6226 0.28633 0.0
O76 O 0.56251 0.59263 0.30412 0.0
O77 O 0.52453 0.60957 0.30068 0.0
O78 O 0.60985 0.62649 0.33951 0.0
O79 O 0.57021 0.63514 0.35471 0.0
O80 O 0.54145 0.66714 0.27249 0.0
O81 O 0.58167 0.65997 0.26012 0.0
C82 C 0.53848 0.59048 0.30737 0.0
C83 C 0.5625 0.67452 0.25685 0.0
C84 C 0.39503 0.08779 0.45791 0.0
C85 C 0.37178 0.09382 0.61919 0.0
O86 O 0.38875 0.06618 0.47425 0.0
Zn87 Zn 0.3747 0.05168 0.54003 0.0
O88 O 0.39359 0.10723 0.48339 0.0
Zn89 Zn 0.38142 0.09023 0.53674 0.0
O90 O 0.41409 0.06671 0.55259 0.0
O91 O 0.40018 0.02753 0.55543 0.0
O92 O 0.37658 0.11095 0.59008 0.0
O93 O 0.37025 0.0709 0.60536 0.0
O94 O 0.34239 0.03834 0.52204 0.0
O95 O 0.34441 0.07945 0.51276 0.0
C96 C 0.41823 0.04309 0.55856 0.0
C97 C 0.33233 0.05869 0.50851 0.0
C98 C 0.92011 0.89683 0.70278 0.0
C99 C 0.91064 0.87714 0.86495 0.0
O100 O 0.94045 0.88722 0.71916 0.0
Zn101 Zn 0.95277 0.87221 0.7859 0.0
O102 O 0.90092 0.89918 0.72864 0.0
Zn103 Zn 0.91577 0.88467 0.78212 0.0
O104 O 0.94385 0.91332 0.799 0.0
O105 O 0.98077 0.89406 0.79735 0.0
O106 O 0.89429 0.883 0.835 0.0
O107 O 0.93329 0.87259 0.85183 0.0
O108 O 0.96065 0.83739 0.77207 0.0
O109 O 0.92104 0.84657 0.75784 0.0
C110 C 0.96795 0.91404 0.80276 0.0
C111 C 0.93941 0.83096 0.75593 0.0
C112 C 0.67415 0.56599 0.80905 0.0
C113 C 0.58858 0.54341 0.76531 0.0
O114 O 0.65951 0.58518 0.80886 0.0
Zn115 Zn 0.62155 0.59314 0.78721 0.0
O116 O 0.66646 0.5454 0.79187 0.0
Zn117 Zn 0.63188 0.55547 0.77982 0.0
O118 O 0.63216 0.57625 0.71598 0.0
O119 O 0.62322 0.6153 0.73485 0.0
O120 O 0.60797 0.52938 0.76524 0.0
O121 O 0.59092 0.56713 0.77272 0.0
O122 O 0.60924 0.6078 0.84241 0.0
O123 O 0.61856 0.56729 0.84842 0.0
C124 C 0.62834 0.59918 0.70402 0.0
C125 C 0.61064 0.58791 0.86674 0.0
C126 C 0.4174 0.11114 0.11698 0.0
C127 C 0.40548 0.1287 0.95437 0.0
O128 O 0.4379 0.11925 0.09851 0.0
Zn129 Zn 0.44944 0.13254 0.02968 0.0
O130 O 0.39753 0.10943 0.0927 0.0
Zn131 Zn 0.41194 0.12186 0.03744 0.0
O132 O 0.43818 0.09144 0.02283 0.0
O133 O 0.47572 0.10884 0.01487 0.0
O134 O 0.38957 0.12332 0.98541 0.0
O135 O 0.42842 0.13274 0.96602 0.0
O136 O 0.45927 0.16718 0.04168 0.0
O137 O 0.4196 0.15995 0.05898 0.0
C138 C 0.4619 0.08932 0.01518 0.0
C139 C 0.43867 0.17473 0.05906 0.0
C140 C 0.91513 0.96934 0.26229 0.0
C141 C 0.83158 0.94307 0.31062 0.0
O142 O 0.91373 0.94526 0.26582 0.0
Zn143 Zn 0.8844 0.91797 0.28297 0.0
O144 O 0.89556 0.98271 0.26819 0.0
Zn145 Zn 0.87297 0.95533 0.2798 0.0
O146 O 0.88798 0.94234 0.34615 0.0
O147 O 0.89878 0.90251 0.33596 0.0
O148 O 0.83847 0.96417 0.29448 0.0
O149 O 0.84666 0.92427 0.30816 0.0
O150 O 0.88173 0.89669 0.22996 0.0
O151 O 0.87236 0.93603 0.21366 0.0
C152 C 0.89709 0.92166 0.36211 0.0
C153 C 0.87615 0.91329 0.20028 0.0
C154 C 0.04141 0.41734 0.51737 0.0
C155 C 0.06111 0.33183 0.5643 0.0
O156 O 0.06536 0.41406 0.52005 0.0
Zn157 Zn 0.09036 0.38239 0.53646 0.0
O158 O 0.02666 0.39887 0.52379 0.0
Zn159 Zn 0.05216 0.37428 0.53483 0.0
O160 O 0.06674 0.38821 0.60009 0.0
O161 O 0.10732 0.39515 0.58968 0.0
O162 O 0.04031 0.3413 0.55177 0.0
O163 O 0.08138 0.34468 0.55962 0.0
O164 O 0.11089 0.3786 0.48303 0.0
O165 O 0.07085 0.37177 0.468 0.0
C166 C 0.08814 0.39541 0.61587 0.0
C167 C 0.09369 0.37406 0.45391 0.0
C168 C 0.67557 0.94204 0.51063 0.0
C169 C 0.59104 0.96619 0.55791 0.0
O170 O 0.66074 0.92303 0.51228 0.0
Zn171 Zn 0.62304 0.91579 0.53616 0.0
O172 O 0.66835 0.96291 0.52738 0.0
Zn173 Zn 0.63391 0.95337 0.54171 0.0
O174 O 0.63517 0.93318 0.6062 0.0
O175 O 0.62541 0.8941 0.58899 0.0
O176 O 0.6106 0.97995 0.55673 0.0
O177 O 0.59295 0.94237 0.55119 0.0
O178 O 0.60967 0.90067 0.4823 0.0
O179 O 0.61935 0.94098 0.47423 0.0
C180 C 0.63137 0.91038 0.619 0.0
C181 C 0.61088 0.92026 0.45715 0.0
C182 C 0.06237 0.17367 0.75797 0.0
C183 C 0.04257 0.08765 0.80069 0.0
O184 O 0.08263 0.16068 0.76131 0.0
Zn185 Zn 0.0916 0.12259 0.78267 0.0
O186 O 0.04168 0.16414 0.77092 0.0
Zn187 Zn 0.05354 0.13087 0.78559 0.0
O188 O 0.07263 0.13199 0.85229 0.0
O189 O 0.1125 0.12534 0.83571 0.0
O190 O 0.02792 0.10633 0.79561 0.0
O191 O 0.06652 0.09078 0.79774 0.0
O192 O 0.10827 0.11057 0.72876 0.0
O193 O 0.06773 0.11803 0.71905 0.0
C194 C 0.09557 0.1293 0.86562 0.0
C195 C 0.08906 0.11097 0.70267 0.0
C196 C 0.91689 0.53836 0.05139 0.0
C197 C 0.83264 0.56271 0.00271 0.0
O198 O 0.91483 0.5624 0.04795 0.0
Zn199 Zn 0.88488 0.58893 0.03057 0.0
O200 O 0.89772 0.52447 0.04516 0.0
Zn201 Zn 0.87435 0.55123 0.03342 0.0
O202 O 0.88916 0.56463 0.96742 0.0
O203 O 0.89894 0.60471 0.97755 0.0
O204 O 0.84005 0.54166 0.01835 0.0
O205 O 0.8473 0.58181 0.00553 0.0
O206 O 0.88163 0.61003 0.08368 0.0
O207 O 0.87307 0.57045 0.09955 0.0
C208 C 0.8978 0.5855 0.95149 0.0
C209 C 0.87632 0.59323 0.11316 0.0
C210 C 0.42028 0.39739 0.20923 0.0
C211 C 0.41314 0.3738 0.37005 0.0
O212 O 0.44114 0.3884 0.22453 0.0
Zn213 Zn 0.45479 0.37278 0.28974 0.0
O214 O 0.40119 0.39841 0.23563 0.0
Zn215 Zn 0.41715 0.38361 0.28781 0.0
O216 O 0.44391 0.41325 0.30567 0.0
O217 O 0.48171 0.39592 0.30193 0.0
O218 O 0.39628 0.37973 0.34111 0.0
O219 O 0.43586 0.37067 0.356 0.0
O220 O 0.4641 0.3386 0.27303 0.0
O221 O 0.42396 0.34631 0.26094 0.0
C222 C 0.46796 0.41515 0.30878 0.0
C223 C 0.44296 0.33157 0.25726 0.0
C224 C 0.30921 0.04413 0.4391 0.0
C225 C 0.3092 0.05792 0.48038 0.0
C226 C 0.28837 0.04455 0.40924 0.0
C227 C 0.2666 0.05832 0.42187 0.0
C228 C 0.26636 0.07192 0.46414 0.0
C229 C 0.28795 0.07203 0.49243 0.0
C230 C 0.28983 0.03058 0.36384 0.0
C231 C 0.24324 0.08609 0.4797 0.0
C232 C 0.2181 0.07688 0.33059 0.0
C233 C 0.20082 0.05705 0.33386 0.0
C234 C 0.23994 0.07726 0.3582 0.0
C235 C 0.24393 0.05796 0.39131 0.0
C236 C 0.2263 0.03807 0.395 0.0
C237 C 0.20526 0.03761 0.36563 0.0
C238 C 0.25876 0.09826 0.35188 0.0
C239 C 0.2293 0.01759 0.43082 0.0
H240 H 0.32592 0.03363 0.42946 0.0
H241 H 0.28811 0.08281 0.52426 0.0
H242 H 0.27546 0.01545 0.36288 0.0
H243 H 0.2857 0.04361 0.33482 0.0
H244 H 0.30863 0.02198 0.35802 0.0
H245 H 0.24575 0.09483 0.51429 0.0
H246 H 0.23862 0.1011 0.45445 0.0
H247 H 0.22686 0.07314 0.48109 0.0
H248 H 0.21462 0.09197 0.30617 0.0
H249 H 0.19165 0.02251 0.3689 0.0
H250 H 0.27773 0.09029 0.34516 0.0
H251 H 0.26006 0.10959 0.38399 0.0
H252 H 0.25365 0.11096 0.32284 0.0
H253 H 0.24702 0.00707 0.42474 0.0
H254 H 0.21339 0.00402 0.43045 0.0
H255 H 0.23059 0.02608 0.46581 0.0
C256 C 0.95303 0.7868 0.73789 0.0
C257 C 0.93679 0.80712 0.72965 0.0
C258 C 0.95223 0.7651 0.71003 0.0
C259 C 0.93532 0.764 0.67215 0.0
C260 C 0.91873 0.7844 0.66397 0.0
C261 C 0.91943 0.80554 0.69318 0.0
C262 C 0.96977 0.7435 0.7207 0.0
C263 C 0.90085 0.78429 0.62338 0.0
C264 C 0.95321 0.71897 0.57489 0.0
C265 C 0.93707 0.6986 0.58317 0.0
C266 C 0.95229 0.74069 0.6027 0.0
C267 C 0.93537 0.74175 0.64056 0.0
C268 C 0.91889 0.72129 0.64879 0.0
C269 C 0.9197 0.70013 0.61964 0.0
C270 C 0.96972 0.76236 0.59198 0.0
C271 C 0.90101 0.72134 0.68939 0.0
H272 H 0.96647 0.78794 0.766 0.0
H273 H 0.90709 0.82134 0.68616 0.0
H274 H 0.95893 0.72574 0.724 0.0
H275 H 0.9833 0.74095 0.69187 0.0
H276 H 0.98056 0.74658 0.75311 0.0
H277 H 0.88899 0.8015 0.62207 0.0
H278 H 0.91169 0.78291 0.59067 0.0
H279 H 0.88836 0.7676 0.62509 0.0
H280 H 0.96667 0.71787 0.54678 0.0
H281 H 0.90744 0.68428 0.6267 0.0
H282 H 0.98325 0.76497 0.62078 0.0
H283 H 0.9588 0.78008 0.58868 0.0
H284 H 0.98051 0.75932 0.55955 0.0
H285 H 0.91184 0.72276 0.7221 0.0
H286 H 0.88922 0.70409 0.69073 0.0
H287 H 0.88844 0.73799 0.68768 0.0
C288 C 0.28848 0.45413 0.82964 0.0
C289 C 0.30835 0.43742 0.83836 0.0
C290 C 0.2667 0.45404 0.85741 0.0
C291 C 0.26512 0.43741 0.89568 0.0
C292 C 0.28517 0.42054 0.90457 0.0
C293 C 0.30634 0.42051 0.87547 0.0
C294 C 0.24545 0.47185 0.846 0.0
C295 C 0.28459 0.40296 0.94561 0.0
C296 C 0.2196 0.45492 0.99259 0.0
C297 C 0.19951 0.43843 0.98433 0.0
C298 C 0.24129 0.45446 0.96461 0.0
C299 C 0.24256 0.43766 0.92655 0.0
C300 C 0.22227 0.421 0.91809 0.0
C301 C 0.2012 0.42134 0.94742 0.0
C302 C 0.26278 0.47205 0.9756 0.0
C303 C 0.22254 0.40325 0.8773 0.0
H304 H 0.28996 0.46727 0.8011 0.0
H305 H 0.32181 0.40783 0.88293 0.0
H306 H 0.22761 0.46121 0.84199 0.0
H307 H 0.24272 0.48538 0.87477 0.0
H308 H 0.24902 0.48263 0.81374 0.0
H309 H 0.30186 0.39124 0.94811 0.0
H310 H 0.28261 0.41399 0.97799 0.0
H311 H 0.26805 0.39029 0.94327 0.0
H312 H 0.21836 0.4682 0.02097 0.0
H313 H 0.18554 0.40884 0.9403 0.0
H314 H 0.26568 0.48536 0.94653 0.0
H315 H 0.28047 0.46118 0.97981 0.0
H316 H 0.25937 0.48309 0.00763 0.0
H317 H 0.22468 0.4141 0.84475 0.0
H318 H 0.20508 0.39181 0.875 0.0
H319 H 0.23888 0.39032 0.87977 0.0
C320 C 0.58298 0.80609 0.12515 0.0
C321 C 0.56614 0.80858 0.08804 0.0
C322 C 0.5828 0.7846 0.15346 0.0
C323 C 0.56587 0.76471 0.14367 0.0
C324 C 0.54932 0.7668 0.10538 0.0
C325 C 0.54937 0.78889 0.07848 0.0
C326 C 0.60027 0.78348 0.1946 0.0
C327 C 0.53148 0.74575 0.09298 0.0
C328 C 0.58151 0.70021 0.19356 0.0
C329 C 0.56429 0.69829 0.23018 0.0
C330 C 0.58201 0.72154 0.16483 0.0
C331 C 0.5654 0.74183 0.17374 0.0
C332 C 0.54842 0.74028 0.21148 0.0
C333 C 0.54778 0.71834 0.23877 0.0
C334 C 0.59991 0.7221 0.12428 0.0
C335 C 0.5309 0.76176 0.22297 0.0
H336 H 0.59571 0.82142 0.13322 0.0
H337 H 0.53631 0.79075 0.04988 0.0
H338 H 0.58915 0.78117 0.22681 0.0
H339 H 0.61288 0.76692 0.19174 0.0
H340 H 0.61202 0.80068 0.19787 0.0
H341 H 0.52083 0.74971 0.06072 0.0
H342 H 0.54207 0.7279 0.08845 0.0
H343 H 0.51784 0.74276 0.12148 0.0
H344 H 0.59404 0.68459 0.18626 0.0
H345 H 0.53443 0.71692 0.267 0.0
H346 H 0.61298 0.73827 0.12758 0.0
H347 H 0.5892 0.72474 0.09169 0.0
H348 H 0.61118 0.70455 0.12142 0.0
H349 H 0.54185 0.77933 0.22804 0.0
H350 H 0.51968 0.75808 0.25468 0.0
H351 H 0.51777 0.76508 0.1938 0.0
C352 C 0.70039 0.583 0.87337 0.0
C353 C 0.69823 0.56703 0.8349 0.0
C354 C 0.72189 0.58259 0.9016 0.0
C355 C 0.74214 0.56638 0.89037 0.0
C356 C 0.74039 0.55073 0.85075 0.0
C357 C 0.71826 0.55092 0.82394 0.0
C358 C 0.72263 0.59905 0.94418 0.0
C359 C 0.76183 0.5337 0.83682 0.0
C360 C 0.80629 0.58251 0.94109 0.0
C361 C 0.80873 0.56455 0.97642 0.0
C362 C 0.7849 0.5831 0.91254 0.0
C363 C 0.76509 0.56578 0.92023 0.0
C364 C 0.76715 0.54803 0.95666 0.0
C365 C 0.78912 0.54737 0.98385 0.0
C366 C 0.78378 0.60191 0.87344 0.0
C367 C 0.74618 0.52967 0.96683 0.0
H368 H 0.68478 0.59518 0.88252 0.0
H369 H 0.71665 0.53852 0.79431 0.0
H370 H 0.72533 0.58721 0.9754 0.0
H371 H 0.73884 0.61216 0.94227 0.0
H372 H 0.70514 0.61026 0.94855 0.0
H373 H 0.75806 0.52372 0.80378 0.0
H374 H 0.77939 0.54482 0.83303 0.0
H375 H 0.76522 0.51948 0.8642 0.0
H376 H 0.82156 0.59558 0.93464 0.0
H377 H 0.79092 0.53344 0.01105 0.0
H378 H 0.76727 0.61446 0.87784 0.0
H379 H 0.78137 0.5919 0.84004 0.0
H380 H 0.801 0.61371 0.87141 0.0
H381 H 0.72833 0.54003 0.97286 0.0
H382 H 0.75023 0.51781 -0.00242 0.0
H383 H 0.74316 0.51716 0.93664 0.0
C384 C 0.45736 0.28785 0.23741 0.0
C385 C 0.44087 0.30804 0.2299 0.0
C386 C 0.45644 0.26618 0.20941 0.0
C387 C 0.43918 0.26504 0.17207 0.0
C388 C 0.4226 0.28548 0.16422 0.0
C389 C 0.4234 0.30654 0.19361 0.0
C390 C 0.47397 0.24453 0.21975 0.0
C391 C 0.40438 0.28537 0.12414 0.0
C392 C 0.45424 0.21854 0.07531 0.0
C393 C 0.43754 0.1988 0.08503 0.0
C394 C 0.45453 0.2405 0.1026 0.0
C395 C 0.43832 0.2424 0.14141 0.0
C396 C 0.4214 0.22252 0.15125 0.0
C397 C 0.42097 0.20117 0.12259 0.0
C398 C 0.47235 0.26156 0.09015 0.0
C399 C 0.40427 0.22344 0.19289 0.0
H400 H 0.47092 0.28895 0.26534 0.0
H401 H 0.41089 0.32227 0.18712 0.0
H402 H 0.46298 0.22697 0.22471 0.0
H403 H 0.4868 0.24138 0.19006 0.0
H404 H 0.48551 0.24791 0.25118 0.0
H405 H 0.3932 0.30301 0.12208 0.0
H406 H 0.41482 0.28293 0.0912 0.0
H407 H 0.39124 0.26925 0.12733 0.0
H408 H 0.4671 0.21679 0.04639 0.0
H409 H 0.4083 0.18581 0.13081 0.0
H410 H 0.48631 0.26422 0.11823 0.0
H411 H 0.46181 0.2795 0.08654 0.0
H412 H 0.48262 0.25782 0.0574 0.0
H413 H 0.41566 0.22537 0.22485 0.0
H414 H 0.39237 0.20633 0.19598 0.0
H415 H 0.39178 0.24014 0.19086 0.0
C416 C 0.80634 0.92387 0.37433 0.0
C417 C 0.8079 0.941 0.33749 0.0
C418 C 0.7853 0.92346 0.40375 0.0
C419 C 0.76495 0.94007 0.39539 0.0
C420 C 0.76608 0.95686 0.35733 0.0
C421 C 0.78772 0.9574 0.32929 0.0
C422 C 0.78516 0.90573 0.44457 0.0
C423 C 0.74451 0.97439 0.34643 0.0
C424 C 0.70124 0.92329 0.44708 0.0
C425 C 0.69935 0.94039 0.48392 0.0
C426 C 0.72238 0.92308 0.41791 0.0
C427 C 0.74251 0.9399 0.4265 0.0
C428 C 0.74106 0.95669 0.46456 0.0
C429 C 0.71931 0.95701 0.49237 0.0
C430 C 0.72283 0.90536 0.37708 0.0
C431 C 0.76239 0.97445 0.47566 0.0
H432 H 0.82207 0.91143 0.38135 0.0
H433 H 0.78887 0.97069 0.30091 0.0
H434 H 0.78321 0.91662 0.47712 0.0
H435 H 0.76878 0.89286 0.44238 0.0
H436 H 0.8026 0.89423 0.44661 0.0
H437 H 0.74777 0.98532 0.31425 0.0
H438 H 0.72682 0.96349 0.34258 0.0
H439 H 0.74171 0.98778 0.3754 0.0
H440 H 0.6857 0.91066 0.43986 0.0
H441 H 0.71792 0.97028 0.52075 0.0
H442 H 0.7394 0.89272 0.37931 0.0
H443 H 0.72466 0.91628 0.34454 0.0
H444 H 0.70556 0.89362 0.37494 0.0
H445 H 0.78022 0.96375 0.47948 0.0
H446 H 0.75896 0.98527 0.50792 0.0
H447 H 0.76505 0.98794 0.4468 0.0
C448 C 0.04438 0.30503 0.62754 0.0
C449 C 0.0614 0.30811 0.59096 0.0
C450 C 0.04537 0.28375 0.65626 0.0
C451 C 0.06314 0.26451 0.64699 0.0
C452 C 0.08007 0.26731 0.60938 0.0
C453 C 0.0794 0.28941 0.58246 0.0
C454 C 0.02761 0.28203 0.69692 0.0
C455 C 0.0986 0.24683 0.59716 0.0
C456 C 0.07943 0.21676 0.74113 0.0
C457 C 0.06232 0.19743 0.73148 0.0
C458 C 0.07969 0.23893 0.71437 0.0
C459 C 0.06332 0.24117 0.67581 0.0
C460 C 0.04649 0.22129 0.6654 0.0
C461 C 0.04585 0.19993 0.69394 0.0
C462 C 0.09719 0.26009 0.72774 0.0
C463 C 0.0294 0.2224 0.62372 0.0
H464 H 0.03079 0.31976 0.63469 0.0
H465 H 0.09262 0.2919 0.55428 0.0
H466 H 0.01469 0.26583 0.69239 0.0
H467 H 0.03842 0.27872 0.72921 0.0
H468 H 0.01615 0.29936 0.70124 0.0
H469 H 0.10986 0.25153 0.56597 0.0
H470 H 0.11164 0.24352 0.62645 0.0
H471 H 0.08841 0.22892 0.59078 0.0
H472 H 0.09224 0.21471 0.77006 0.0
H473 H 0.03297 0.1847 0.68595 0.0
H474 H 0.08623 0.2776 0.73351 0.0
H475 H 0.11063 0.26391 0.69927 0.0
H476 H 0.10805 0.25578 0.7596 0.0
H477 H 0.01579 0.23809 0.62753 0.0
H478 H 0.01868 0.20465 0.6187 0.0
H479 H 0.04062 0.22614 0.59209 0.0
C480 C 0.05743 0.00812 0.28383 0.0
C481 C 0.06494 0.0292 0.25825 0.0
C482 C 0.03266 0.99911 0.28142 0.0
C483 C 0.01525 0.01088 0.25128 0.0
C484 C 0.02303 0.03165 0.22405 0.0
C485 C 0.0477 0.04094 0.22863 0.0
C486 C 0.02495 0.97749 0.31224 0.0
C487 C 0.00531 0.04408 0.19025 0.0
C488 C 0.95771 0.97071 0.22584 0.0
C489 C 0.93981 0.98145 0.25541 0.0
C490 C 0.98196 0.98106 0.22197 0.0
C491 C 0.9887 1.00192 0.24991 0.0
C492 C 0.97048 0.01301 0.27935 0.0
C493 C 0.9461 1.00291 0.28105 0.0
C494 C 1.00053 0.9693 0.18889 0.0
C495 C 0.97711 0.03467 0.31091 0.0
H496 H 0.07074 0.99923 0.30711 0.0
H497 H 0.05361 0.05716 0.20864 0.0
H498 H 0.0091 0.98337 0.33482 0.0
H499 H 0.01823 0.96147 0.291 0.0
H500 H 0.04064 0.97081 0.33447 0.0
H501 H 0.01488 0.05859 0.16888 0.0
H502 H 0.99694 0.02974 0.16695 0.0
H503 H 0.98959 0.05317 0.20918 0.0
H504 H 0.95275 0.95418 0.20582 0.0
H505 H 0.93229 0.01103 0.3043 0.0
H506 H 0.01553 0.95952 0.2086 0.0
H507 H 0.00974 0.98406 0.16764 0.0
H508 H 0.99143 0.95544 0.16547 0.0
H509 H 0.99183 0.02862 0.33576 0.0
H510 H 0.96059 0.04159 0.33075 0.0
H511 H 0.98497 0.05054 0.29066 0.0
C512 C 1.00284 0.56161 0.52895 0.0
C513 C 0.98098 0.56709 0.50385 0.0
C514 C 0.01347 0.53741 0.52796 0.0
C515 C 1.00247 0.51856 0.4998 0.0
C516 C 0.9812 0.52449 0.47231 0.0
C517 C 0.97036 0.54856 0.47546 0.0
C518 C 0.03558 0.53167 0.55904 0.0
C519 C 0.96949 0.50522 0.44055 0.0
C520 C 0.04217 0.4598 0.47993 0.0
C521 C 0.03097 0.4428 0.51069 0.0
C522 C 0.03251 0.48429 0.47461 0.0
C523 C 0.01193 0.49218 0.50222 0.0
C524 C 1.00073 0.47503 0.53358 0.0
C525 C 0.01008 0.4504 0.53673 0.0
C526 C 0.04433 0.50171 0.43956 0.0
C527 C 0.97933 0.48288 0.56482 0.0
H528 H 0.01087 0.57589 0.55132 0.0
H529 H 0.95351 0.55289 0.45585 0.0
H530 H 0.03003 0.51731 0.58499 0.0
H531 H 0.05134 0.52367 0.53867 0.0
H532 H 0.04245 0.54864 0.57762 0.0
H533 H 0.95527 0.51372 0.41712 0.0
H534 H 0.98421 0.49593 0.41932 0.0
H535 H 0.96016 0.49037 0.46133 0.0
H536 H 0.05825 0.45381 0.45962 0.0
H537 H 1.00162 0.4373 0.56092 0.0
H538 H 0.05325 0.51789 0.45741 0.0
H539 H 0.02964 0.50945 0.41626 0.0
H540 H 0.05883 0.49208 0.41829 0.0
H541 H 0.98517 0.49918 0.58629 0.0
H542 H 0.97318 0.46744 0.58814 0.0
H543 H 0.96296 0.48898 0.54385 0.0
C544 C 0.46259 0.46469 0.78766 0.0
C545 C 0.44245 0.47403 0.76151 0.0
C546 C 0.48636 0.47613 0.78593 0.0
C547 C 0.49033 0.49687 0.75601 0.0
C548 C 0.47024 0.5058 0.72822 0.0
C549 C 0.44636 0.49457 0.73201 0.0
C550 C 0.50698 0.46655 0.8173 0.0
C551 C 0.47395 0.52729 0.69476 0.0
C552 C 0.54324 0.54198 0.78651 0.0
C553 C 0.56324 0.53235 0.76035 0.0
C554 C 0.51937 0.5307 0.78516 0.0
C555 C 0.51518 0.50985 0.75564 0.0
C556 C 0.53511 0.50068 0.72772 0.0
C557 C 0.55908 0.51174 0.73112 0.0
C558 C 0.49892 0.54054 0.81665 0.0
C559 C 0.53117 0.47904 0.69466 0.0
H560 H 0.45949 0.44895 0.81086 0.0
H561 H 0.4308 0.50168 0.71156 0.0
H562 H 0.5235 0.46061 0.79656 0.0
H563 H 0.51332 0.48189 0.8406 0.0
H564 H 0.50075 0.45038 0.83878 0.0
H565 H 0.45709 0.53055 0.67286 0.0
H566 H 0.47814 0.54484 0.71404 0.0
H567 H 0.49031 0.52342 0.67197 0.0
H568 H 0.54653 0.55777 0.80949 0.0
H569 H 0.57453 0.50441 0.71065 0.0
H570 H 0.49276 0.5254 0.84055 0.0
H571 H 0.48227 0.54626 0.79609 0.0
H572 H 0.50525 0.55692 0.83751 0.0
H573 H 0.52718 0.46157 0.71431 0.0
H574 H 0.54786 0.47572 0.67235 0.0
H575 H 0.51462 0.48278 0.67226 0.0
C576 C 0.54153 0.96343 0.03554 0.0
C577 C 0.53168 0.94325 0.01013 0.0
C578 C 0.53022 0.9873 0.03401 0.0
C579 C 0.5091 0.9913 0.00503 0.0
C580 C 0.49972 0.97118 0.97781 0.0
C581 C 0.51082 0.94723 0.98142 0.0
C582 C 0.54029 0.00795 0.06477 0.0
C583 C 0.4778 0.97491 0.94531 0.0
C584 C 0.46411 0.0441 0.0371 0.0
C585 C 0.47321 0.06407 0.01025 0.0
C586 C 0.47559 0.02032 0.03562 0.0
C587 C 0.49609 0.01616 0.00524 0.0
C588 C 0.50475 0.03606 0.97674 0.0
C589 C 0.49352 0.05997 0.9803 0.0
C590 C 0.4663 0.99991 0.06773 0.0
C591 C 0.52597 0.03215 0.94278 0.0
H592 H 0.5575 0.96028 0.05815 0.0
H593 H 0.50332 0.93164 0.96154 0.0
H594 H 0.54579 0.02449 0.0437 0.0
H595 H 0.52536 0.01424 0.089 0.0
H596 H 0.55687 1.00176 0.08525 0.0
H597 H 0.47433 0.95808 0.92341 0.0
H598 H 0.46049 0.97897 0.96539 0.0
H599 H 0.4813 0.99134 0.9225 0.0
H600 H 0.44855 0.04735 0.06064 0.0
H601 H 0.50044 0.0754 0.95931 0.0
H602 H 0.48185 0.99372 0.09072 0.0
H603 H 0.4602 0.98325 0.04754 0.0
H604 H 0.45031 0.00627 0.08954 0.0
H605 H 0.54368 0.0281 0.96166 0.0
H606 H 0.52902 0.04887 0.9204 0.0
H607 H 0.52194 0.01563 0.92047 0.0
C608 C 0.04855 0.46696 0.0921 0.0
C609 C 0.06666 0.47805 0.06341 0.0
C610 C 0.02419 0.47712 0.09548 0.0
C611 C 0.01755 0.49815 0.06791 0.0
C612 C 0.03594 0.50953 0.03922 0.0
C613 C 0.06043 0.49961 0.03803 0.0
C614 C 0.00544 0.46507 0.12784 0.0
C615 C 0.02946 0.53143 0.00811 0.0
C616 C 0.94902 0.50579 0.0331 0.0
C617 C 0.94187 0.52694 0.05884 0.0
C618 C 0.97357 0.49615 0.03596 0.0
C619 C 0.99106 0.50734 0.06671 0.0
C620 C 0.9835 0.52802 0.09441 0.0
C621 C 0.95912 0.53794 0.08937 0.0
C622 C 0.98106 0.47465 0.00466 0.0
C623 C 1.00126 0.53984 0.12888 0.0
H624 H 0.05347 0.45033 0.1119 0.0
H625 H 0.07439 0.50799 0.01543 0.0
H626 H 0.99629 0.47963 0.14965 0.0
H627 H 0.99041 0.45568 0.10757 0.0
H628 H 0.01436 0.45084 0.15074 0.0
H629 H 0.04599 0.53826 0.98822 0.0
H630 H 0.01458 0.5257 0.98332 0.0
H631 H 0.02186 0.54728 0.02877 0.0
H632 H 0.93572 0.49749 0.00909 0.0
H633 H 0.95349 0.55424 0.10943 0.0
H634 H 0.98787 0.4585 0.02548 0.0
H635 H 0.99681 0.48062 0.98194 0.0
H636 H 0.96524 0.46814 0.98258 0.0
H637 H 0.00968 0.52512 0.15129 0.0
H638 H 0.99168 0.55396 0.15112 0.0
H639 H 0.01691 0.54929 0.11041 0.0
C640 C 0.50078 0.44697 0.29015 0.0
C641 C 0.47956 0.44009 0.31594 0.0
C642 C 0.51037 0.47157 0.29214 0.0
C643 C 0.49903 0.48942 0.32204 0.0
C644 C 0.47837 0.48213 0.34997 0.0
C645 C 0.46851 0.45767 0.34581 0.0
C646 C 0.53186 0.47875 0.26062 0.0
C647 C 0.46639 0.50028 0.38356 0.0
C648 C 0.53852 0.54794 0.34438 0.0
C649 C 0.52714 0.56544 0.31476 0.0
C650 C 0.52879 0.52346 0.34898 0.0
C651 C 0.50789 0.51605 0.32174 0.0
C652 C 0.49626 0.53379 0.29204 0.0
C653 C 0.50574 0.55842 0.28961 0.0
C654 C 0.54111 0.50542 0.38235 0.0
C655 C 0.47449 0.52648 0.26125 0.0
H656 H 0.50912 0.43344 0.26662 0.0
H657 H 0.45215 0.45227 0.36591 0.0
H658 H 0.52572 0.49394 0.23678 0.0
H659 H 0.54783 0.48622 0.28112 0.0
H660 H 0.53869 0.4626 0.23968 0.0
H661 H 0.4525 0.49087 0.40649 0.0
H662 H 0.48103 0.50932 0.40531 0.0
H663 H 0.45662 0.51546 0.3643 0.0
H664 H 0.55502 0.55345 0.36401 0.0
H665 H 0.49713 0.57188 0.26629 0.0
H666 H 0.55065 0.49015 0.36293 0.0
H667 H 0.52668 0.49648 0.40474 0.0
H668 H 0.55525 0.5149 0.40466 0.0
H669 H 0.4804 0.51117 0.23749 0.0
H670 H 0.46751 0.54254 0.24024 0.0
H671 H 0.45869 0.51915 0.28233 0.0
C672 C 0.46406 0.04496 0.54093 0.0
C673 C 0.44417 0.03382 0.56524 0.0
C674 C 0.48838 0.03463 0.54247 0.0
C675 C 0.49305 0.01319 0.57034 0.0
C676 C 0.47324 1.00271 0.59692 0.0
C677 C 0.44889 0.01285 0.5933 0.0
C678 C 0.50872 0.04587 0.51242 0.0
C679 C 0.47764 0.98042 0.62828 0.0
C680 C 0.54602 0.96906 0.53555 0.0
C681 C 0.56592 0.97768 0.56303 0.0
C682 C 0.52229 0.9806 0.5374 0.0
C683 C 0.51811 1.00062 0.56885 0.0
C684 C 0.53799 0.00887 0.5978 0.0
C685 C 0.56188 0.99763 0.59383 0.0
C686 C 0.5019 0.97177 0.50481 0.0
C687 C 0.53401 0.0295 0.63294 0.0
H688 H 0.46033 0.06103 0.51884 0.0
H689 H 0.43351 0.00434 0.61232 0.0
H690 H 0.52538 0.05085 0.5336 0.0
H691 H 0.51494 0.03176 0.4865 0.0
H692 H 0.50223 0.06298 0.49384 0.0
H693 H 0.46111 0.97647 0.65068 0.0
H694 H 0.4816 0.96343 0.60722 0.0
H695 H 0.4943 0.98377 0.65057 0.0
H696 H 0.54927 0.95381 0.51134 0.0
H697 H 0.57729 0.00418 0.61524 0.0
H698 H 0.49524 0.98777 0.48337 0.0
H699 H 0.48551 0.96476 0.52474 0.0
H700 H 0.50847 0.95652 0.48145 0.0
H701 H 0.52937 0.0474 0.61515 0.0
H702 H 0.5509 0.03258 0.65488 0.0
H703 H 0.51784 0.02477 0.65561 0.0
C704 C 0.04329 0.0446 0.8358 0.0
C705 C 0.03194 0.06219 0.80636 0.0
C706 C 0.03339 0.02016 0.8403 0.0
C707 C 0.01237 0.01296 0.81318 0.0
C708 C 1.00102 0.03072 0.78317 0.0
C709 C 0.01066 0.05526 0.78083 0.0
C710 C 0.0454 1.00207 0.87396 0.0
C711 C 0.97914 0.02361 0.75246 0.0
C712 C 1.00231 0.94404 0.78358 0.0
C713 C 0.98075 0.93839 0.80941 0.0
C714 C 0.01312 0.96813 0.78515 0.0
C715 C 1.00264 0.98668 0.81465 0.0
C716 C 0.98166 0.98056 0.84274 0.0
C717 C 0.97059 0.95662 0.839 0.0
C718 C 0.03488 0.97411 0.7534 0.0
C719 C 0.97052 0.99949 0.87589 0.0
H720 H 0.05968 0.05007 0.85574 0.0
H721 H 1.00206 0.06882 0.75769 0.0
H722 H 0.0309 0.99418 0.89746 0.0
H723 H 0.05391 0.98606 0.85495 0.0
H724 H 0.06028 0.0112 0.89511 0.0
H725 H 0.97289 0.03948 0.73022 0.0
H726 H 0.98451 0.00758 0.72991 0.0
H727 H 0.96296 0.01739 0.7738 0.0
H728 H 0.00997 0.92998 0.76031 0.0
H729 H 0.95398 0.95214 0.85916 0.0
H730 H 0.05101 0.98154 0.7735 0.0
H731 H 0.02918 0.98899 0.72856 0.0
H732 H 0.04128 0.95739 0.73354 0.0
H733 H 0.98558 0.00825 0.89704 0.0
H734 H 0.95645 0.99081 0.89941 0.0
H735 H 0.96115 0.01477 0.85623 0.0
C736 C 0.11526 0.10128 0.63334 0.0
C737 C 0.09141 0.10446 0.65326 0.0
C738 C 0.11789 0.0969 0.58584 0.0
C739 C 0.09613 0.09544 0.55776 0.0
C740 C 0.07197 0.09778 0.57785 0.0
C741 C 0.06989 0.10239 0.62542 0.0
C742 C 0.14398 0.09462 0.56548 0.0
C743 C 0.04836 0.09602 0.54893 0.0
C744 C 0.10534 0.11174 0.43157 0.0
C745 C 0.10795 0.08783 0.41162 0.0
C746 C 0.10092 0.11445 0.47904 0.0
C747 C 0.09883 0.09271 0.50705 0.0
C748 C 0.10057 0.06851 0.48691 0.0
C749 C 0.10524 0.06635 0.43938 0.0
C750 C 0.09929 0.14058 0.49946 0.0
C751 C 0.09812 0.04493 0.51575 0.0
H752 H 0.13196 0.10287 0.65465 0.0
H753 H 0.05139 0.10466 0.64067 0.0
H754 H 0.14579 0.0767 0.54607 0.0
H755 H 0.14726 0.11018 0.54058 0.0
H756 H 0.15892 0.09528 0.59233 0.0
H757 H 0.03101 0.09649 0.57035 0.0
H758 H 0.04771 0.11192 0.5241 0.0
H759 H 0.04845 0.07838 0.52839 0.0
H760 H 0.10742 0.12842 0.41032 0.0
H761 H 0.10706 0.0478 0.42409 0.0
H762 H 0.11491 0.14345 0.52438 0.0
H763 H 0.08141 0.14284 0.51885 0.0
H764 H 0.10034 0.15552 0.47264 0.0
H765 H 0.11397 0.04381 0.54063 0.0
H766 H 0.09814 0.02759 0.49427 0.0
H767 H 0.08047 0.04549 0.53623 0.0
C768 C 0.89596 0.59822 0.68102 0.0
C769 C 0.9194 0.60234 0.6601 0.0
C770 C 0.89408 0.59402 0.72868 0.0
C771 C 0.91622 0.5936 0.75589 0.0
C772 C 0.94002 0.59672 0.73474 0.0
C773 C 0.94132 0.60125 0.68703 0.0
C774 C 0.86833 0.59099 0.75017 0.0
C775 C 0.96402 0.59597 0.76267 0.0
C776 C 0.90715 0.6112 0.8815 0.0
C777 C 0.90494 0.58749 0.90235 0.0
C778 C 0.91154 0.61344 0.83394 0.0
C779 C 0.91415 0.59142 0.80681 0.0
C780 C 0.91309 0.56743 0.82798 0.0
C781 C 0.90828 0.56574 0.87554 0.0
C782 C 0.91232 0.63935 0.81243 0.0
C783 C 0.91623 0.54358 0.80016 0.0
H784 H 0.87895 0.59909 0.66041 0.0
H785 H 0.95951 0.60424 0.67094 0.0
H786 H 0.86741 0.57321 0.77019 0.0
H787 H 0.86477 0.60666 0.7747 0.0
H788 H 0.85307 0.59086 0.72391 0.0
H789 H 0.98106 0.5965 0.74045 0.0
H790 H 0.9646 0.61228 0.78659 0.0
H791 H 0.96463 0.57867 0.78416 0.0
H792 H 0.90454 0.62807 0.90205 0.0
H793 H 0.90681 0.54736 0.89161 0.0
H794 H 0.89638 0.64151 0.78794 0.0
H795 H 0.92993 0.64182 0.79234 0.0
H796 H 0.91113 0.65457 0.83868 0.0
H797 H 0.90008 0.54136 0.77621 0.0
H798 H 0.91733 0.52659 0.82248 0.0
H799 H 0.93353 0.54462 0.77874 0.0
C800 C 0.43972 0.40749 0.13289 0.0
C801 C 0.41811 0.40491 0.1603 0.0
C802 C 0.4378 0.41218 0.08532 0.0
C803 C 0.4137 0.41394 0.0648 0.0
C804 C 0.39184 0.41233 0.09259 0.0
C805 C 0.39432 0.40799 0.14013 0.0
C806 C 0.46151 0.41422 0.05678 0.0
C807 C 0.3658 0.41392 0.07178 0.0
C808 C 0.40444 0.43947 0.94361 0.0
C809 C 0.40257 0.41715 0.91793 0.0
C810 C 0.40891 0.4388 0.99139 0.0
C811 C 0.41119 0.41526 0.01386 0.0
C812 C 0.40987 0.3927 0.98795 0.0
C813 C 0.40574 0.39393 0.94021 0.0
C814 C 0.41061 0.46321 0.01796 0.0
C815 C 0.41203 0.36722 0.01086 0.0
H816 H 0.45817 0.40537 0.14841 0.0
H817 H 0.37754 0.40601 0.16115 0.0
H818 H 0.46314 0.39759 0.03378 0.0
H819 H 0.46078 0.43115 0.03436 0.0
H820 H 0.47868 0.41525 0.07864 0.0
H821 H 0.3508 0.41394 0.09854 0.0
H822 H 0.36393 0.43123 0.05061 0.0
H823 H 0.36269 0.39763 0.04844 0.0
H824 H 0.40219 0.45748 0.92647 0.0
H825 H 0.40426 0.37661 0.92058 0.0
H826 H 0.42809 0.46363 0.03892 0.0
H827 H 0.39453 0.46469 0.04229 0.0
H828 H 0.4104 0.47991 0.99482 0.0
H829 H 0.42995 0.36589 0.03038 0.0
H830 H 0.41129 0.35151 0.98553 0.0
H831 H 0.39647 0.36475 0.03606 0.0
C832 C 0.60175 0.94075 0.38116 0.0
C833 C 0.60385 0.91882 0.40787 0.0
C834 C 0.59693 0.93937 0.33354 0.0
C835 C 0.59452 0.9155 0.31229 0.0
C836 C 0.59584 0.89335 0.33934 0.0
C837 C 0.60033 0.89529 0.38688 0.0
C838 C 0.59523 0.96338 0.30577 0.0
C839 C 0.59358 0.86753 0.31777 0.0
C840 C 0.56741 0.90653 0.19226 0.0
C841 C 0.58938 0.90387 0.16582 0.0
C842 C 0.56873 0.91147 0.23984 0.0
C843 C 0.59257 0.91341 0.26135 0.0
C844 C 0.61478 0.91149 0.23459 0.0
C845 C 0.6129 0.9069 0.18706 0.0
C846 C 0.54468 0.91381 0.26731 0.0
C847 C 0.64055 0.91323 0.25645 0.0
H848 H 0.60423 0.959 0.3973 0.0
H849 H 0.60192 0.87826 0.40733 0.0
H850 H 0.61162 0.96473 0.28213 0.0
H851 H 0.57803 0.96329 0.28401 0.0
H852 H 0.59492 0.98038 0.32814 0.0
H853 H 0.5938 0.85225 0.34399 0.0
H854 H 0.57591 0.86612 0.29754 0.0
H855 H 0.60943 0.86443 0.29341 0.0
H856 H 0.54917 0.90444 0.17592 0.0
H857 H 0.62996 0.90487 0.16683 0.0
H858 H 0.54506 0.9311 0.28882 0.0
H859 H 0.54289 0.89756 0.29118 0.0
H860 H 0.52777 0.91437 0.24475 0.0
H861 H 0.64231 0.93096 0.27645 0.0
H862 H 0.65592 0.91256 0.23041 0.0
H863 H 0.6432 0.89742 0.28105 0.0
C864 C 0.06894 0.40689 0.69171 0.0
C865 C 0.09053 0.40274 0.66486 0.0
C866 C 0.07083 0.41187 0.73915 0.0
C867 C 0.09485 0.41238 0.76017 0.0
C868 C 0.11676 0.40902 0.733 0.0
C869 C 0.11433 0.40438 0.68553 0.0
C870 C 0.0471 0.41574 0.76703 0.0
C871 C 0.1427 0.40927 0.75439 0.0
C872 C 0.10454 0.43988 0.87974 0.0
C873 C 0.1049 0.41806 0.90705 0.0
C874 C 0.10052 0.43843 0.8319 0.0
C875 C 0.09709 0.4146 0.81104 0.0
C876 C 0.09684 0.39258 0.83856 0.0
C877 C 0.10061 0.3946 0.88632 0.0
C878 C 0.10052 0.46231 0.80357 0.0
C879 C 0.09339 0.3668 0.81739 0.0
H880 H 0.05049 0.40588 0.67579 0.0
H881 H 0.13108 0.40118 0.66493 0.0
H882 H 0.04455 0.39978 0.79131 0.0
H883 H 0.04858 0.43313 0.78811 0.0
H884 H 0.03011 0.41712 0.74479 0.0
H885 H 0.15785 0.4077 0.72807 0.0
H886 H 0.14558 0.42686 0.77437 0.0
H887 H 0.14454 0.39333 0.77896 0.0
H888 H 0.1077 0.45809 0.89564 0.0
H889 H 0.10092 0.37766 0.90721 0.0
H890 H 0.08324 0.46336 0.78212 0.0
H891 H 0.11682 0.46225 0.77959 0.0
H892 H 0.10161 0.47945 0.82549 0.0
H893 H 0.07562 0.36613 0.79731 0.0
H894 H 0.09294 0.35164 0.84384 0.0
H895 H 0.10901 0.36286 0.79296 0.0
C896 C 0.61192 0.59817 0.13871 0.0
C897 C 0.5881 0.60161 0.15859 0.0
C898 C 0.61452 0.59375 0.09122 0.0
C899 C 0.59275 0.59243 0.06315 0.0
C900 C 0.5686 0.5946 0.08335 0.0
C901 C 0.56656 0.59934 0.13088 0.0
C902 C 0.64062 0.59172 0.07077 0.0
C903 C 0.54498 0.5929 0.05449 0.0
C904 C 0.60149 0.61212 0.93857 0.0
C905 C 0.60432 0.58883 0.91639 0.0
C906 C 0.59723 0.61348 0.98625 0.0
C907 C 0.59545 0.59099 0.01224 0.0
C908 C 0.59745 0.56738 0.98989 0.0
C909 C 0.60204 0.56657 0.94215 0.0
C910 C 0.59541 0.63903 0.00903 0.0
C911 C 0.59526 0.54304 0.01654 0.0
H912 H 0.62865 0.59989 0.15994 0.0
H913 H 0.54808 0.60174 0.14616 0.0
H914 H 0.6423 0.57434 0.04972 0.0
H915 H 0.64407 0.60792 0.04738 0.0
H916 H 0.65551 0.59151 0.09772 0.0
H917 H 0.52771 0.59223 0.07611 0.0
H918 H 0.54374 0.60951 0.03134 0.0
H919 H 0.54552 0.57591 0.0322 0.0
H920 H 0.60329 0.62939 0.91888 0.0
H921 H 0.60404 0.54851 0.92509 0.0
H922 H 0.6109 0.64128 0.03444 0.0
H923 H 0.57743 0.64069 0.02829 0.0
H924 H 0.59652 0.65469 0.98364 0.0
H925 H 0.61118 0.54138 0.04118 0.0
H926 H 0.59537 0.52631 0.99349 0.0
H927 H 0.57766 0.5429 0.03718 0.0
C928 C 0.40708 0.06861 0.38223 0.0
C929 C 0.40262 0.09017 0.40902 0.0
C930 C 0.41213 0.07055 0.33479 0.0
C931 C 0.41242 0.09458 0.31374 0.0
C932 C 0.40889 0.11645 0.34092 0.0
C933 C 0.40416 0.11398 0.38834 0.0
C934 C 0.41616 0.04685 0.30691 0.0
C935 C 0.40892 0.14241 0.31954 0.0
C936 C 0.43865 0.10477 0.19327 0.0
C937 C 0.41655 0.10503 0.16674 0.0
C938 C 0.43774 0.10057 0.24113 0.0
C939 C 0.41416 0.09685 0.2628 0.0
C940 C 0.39188 0.09649 0.23604 0.0
C941 C 0.39336 0.10046 0.18829 0.0
C942 C 0.46189 0.10073 0.26864 0.0
C943 C 0.36635 0.0927 0.25804 0.0
H944 H 0.40616 0.05015 0.39813 0.0
H945 H 0.40078 0.13072 0.40886 0.0
H946 H 0.39998 0.04395 0.28327 0.0
H947 H 0.43328 0.0486 0.28517 0.0
H948 H 0.41809 0.02993 0.32921 0.0
H949 H 0.40756 0.15755 0.34592 0.0
H950 H 0.42631 0.14533 0.29902 0.0
H951 H 0.39274 0.14423 0.29549 0.0
H952 H 0.45666 0.10813 0.17676 0.0
H953 H 0.3762 0.10064 0.16804 0.0
H954 H 0.46328 0.08346 0.29006 0.0
H955 H 0.46197 0.11704 0.29262 0.0
H956 H 0.47879 0.10194 0.24613 0.0
H957 H 0.36607 0.07487 0.27799 0.0
H958 H 0.35094 0.09214 0.23211 0.0
H959 H 0.36248 0.10823 0.28271 0.0
C960 C 0.94049 0.90573 0.62664 0.0
C961 C 0.91859 0.90381 0.65347 0.0
C962 C 0.9391 0.91061 0.57904 0.0
C963 C 0.91523 0.91319 0.55787 0.0
C964 C 0.8931 0.9119 0.58499 0.0
C965 C 0.89506 0.90741 0.63256 0.0
C966 C 0.96309 0.91231 0.55124 0.0
C967 C 0.86729 0.91428 0.56348 0.0
C968 C 0.90662 0.94141 0.43856 0.0
C969 C 0.90409 0.9197 0.41135 0.0
C970 C 0.91135 0.93963 0.48616 0.0
C971 C 0.91315 0.91558 0.50695 0.0
C972 C 0.91132 0.89363 0.47943 0.0
C973 C 0.907 0.89597 0.43186 0.0
C974 C 0.91366 0.96342 0.5144 0.0
C975 C 0.91287 0.86765 0.50051 0.0
H976 H 0.95874 0.90317 0.64274 0.0
H977 H 0.87806 0.90589 0.6531 0.0
H978 H 0.96425 0.89616 0.52701 0.0
H979 H 0.96316 0.92974 0.5301 0.0
H980 H 0.98012 0.9122 0.57353 0.0
H981 H 0.85201 0.91381 0.58969 0.0
H982 H 0.86583 0.93214 0.54379 0.0
H983 H 0.86423 0.89865 0.53864 0.0
H984 H 0.90459 0.9598 0.42277 0.0
H985 H 0.90501 0.87912 0.41103 0.0
H986 H 0.93095 0.96283 0.53589 0.0
H987 H 0.89741 0.96499 0.53832 0.0
H988 H 0.91422 0.98055 0.49238 0.0
H989 H 0.93055 0.8656 0.52055 0.0
H990 H 0.91215 0.85252 0.47401 0.0
H991 H 0.89701 0.86489 0.52496 0.0
C992 C 0.12747 0.1261 0.92884 0.0
C993 C 0.10212 0.12776 0.91538 0.0
C994 C 0.13417 0.12112 0.97485 0.0
C995 C 0.11508 0.11767 0.00833 0.0
C996 C 0.08948 0.12022 0.99539 0.0
C997 C 0.08329 0.12529 0.94905 0.0
C998 C 0.16168 0.11876 0.98733 0.0
C999 C 0.06858 0.11678 0.03021 0.0
C1000 C 0.12903 0.07903 0.1161 0.0
C1001 C 0.13188 0.09787 0.14965 0.0
C1002 C 0.124 0.08522 0.06976 0.0
C1003 C 0.12187 0.11085 0.05668 0.0
C1004 C 0.12571 0.12994 0.09003 0.0
C1005 C 0.13065 0.12323 0.13605 0.0
C1006 C 0.12014 0.06433 0.03508 0.0
C1007 C 0.12381 0.15747 0.07741 0.0
H1008 H 0.14218 0.12805 0.90312 0.0
H1009 H 0.06368 0.12641 0.93895 0.0
H1010 H 0.16631 0.13153 0.01647 0.0
H1011 H 0.16572 0.09928 -0.00101 0.0
H1012 H 0.17425 0.12325 0.95776 0.0
H1013 H 0.04971 0.12037 0.01504 0.0
H1014 H 0.069 0.09728 0.04392 0.0
H1015 H 0.07136 0.12968 0.05994 0.0
H1016 H 0.12982 0.05941 0.1263 0.0
H1017 H 0.13289 0.13795 0.16169 0.0
H1018 H 0.13302 0.06683 0.00524 0.0
H1019 H 0.10062 0.06505 0.02149 0.0
H1020 H 0.12343 0.04542 0.05032 0.0
H1021 H 0.13659 0.16183 0.04816 0.0
H1022 H 0.12857 0.17001 0.10688 0.0
H1023 H 0.10438 0.16183 0.06585 0.0
C1024 C 0.92289 0.62626 0.365 0.0
C1025 C 0.90404 0.62741 0.39887 0.0
C1026 C 0.91685 0.62177 0.31845 0.0
C1027 C 0.89134 0.61863 0.3054 0.0
C1028 C 0.87217 0.62086 0.3391 0.0
C1029 C 0.87875 0.62511 0.38544 0.0
C1030 C 0.93785 0.61944 0.2835 0.0
C1031 C 0.84474 0.61798 0.32645 0.0
C1032 C 0.87712 0.62484 0.17723 0.0
C1033 C 0.87678 0.59957 0.16304 0.0
C1034 C 0.88098 0.63132 0.22374 0.0
C1035 C 0.88487 0.61208 0.25679 0.0
C1036 C 0.88363 0.58651 0.243 0.0
C1037 C 0.87945 0.58056 0.19631 0.0
C1038 C 0.88176 0.65878 0.23721 0.0
C1039 C 0.88776 0.56544 0.27723 0.0
H1040 H 0.94247 0.62788 0.3751 0.0
H1041 H 0.86405 0.62607 0.41138 0.0
H1042 H 0.93799 0.60014 0.26881 0.0
H1043 H 0.93473 0.6327 0.25443 0.0
H1044 H 0.95661 0.62332 0.29888 0.0
H1045 H 0.83206 0.62204 0.35607 0.0
H1046 H 0.83986 0.6308 0.29752 0.0
H1047 H 0.84115 0.59848 0.31444 0.0
H1048 H 0.87494 0.63965 0.15175 0.0
H1049 H 0.87936 0.561 0.1856 0.0
H1050 H 0.90103 0.66381 0.24874 0.0
H1051 H 0.86888 0.66236 0.26668 0.0
H1052 H 0.87643 0.67136 0.20813 0.0
H1053 H 0.90717 0.56654 0.29129 0.0
H1054 H 0.88507 0.54658 0.26141 0.0
H1055 H 0.87462 0.56738 0.30682 0.0
C1056 C 0.38008 0.41806 0.62209 0.0
C1057 C 0.37926 0.39932 0.65622 0.0
C1058 C 0.38458 0.41194 0.57561 0.0
C1059 C 0.38804 0.38643 0.56281 0.0
C1060 C 0.38615 0.36733 0.59674 0.0
C1061 C 0.38191 0.37401 0.64309 0.0
C1062 C 0.38656 0.43288 0.54045 0.0
C1063 C 0.38934 0.33991 0.58431 0.0
C1064 C 0.38173 0.37301 0.43442 0.0
C1065 C 0.40696 0.37334 0.41999 0.0
C1066 C 0.37532 0.37613 0.48115 0.0
C1067 C 0.39458 0.37998 0.51417 0.0
C1068 C 0.42012 0.37927 0.50012 0.0
C1069 C 0.42601 0.37579 0.45321 0.0
C1070 C 0.3479 0.37634 0.49486 0.0
C1071 C 0.44121 0.38343 0.53429 0.0
H1072 H 0.37817 0.43766 0.63191 0.0
H1073 H 0.38122 0.3594 0.66921 0.0
H1074 H 0.40578 0.43314 0.52543 0.0
H1075 H 0.37318 0.42958 0.51164 0.0
H1076 H 0.3826 0.45165 0.55573 0.0
H1077 H 0.38543 0.32725 0.61404 0.0
H1078 H 0.37658 0.33481 0.55541 0.0
H1079 H 0.40888 0.33649 0.57233 0.0
H1080 H 0.36689 0.37096 0.40896 0.0
H1081 H 0.44553 0.37619 0.44231 0.0
H1082 H 0.34245 0.39555 0.50612 0.0
H1083 H 0.34466 0.36351 0.52453 0.0
H1084 H 0.33538 0.37061 0.46594 0.0
H1085 H 0.44005 0.40284 0.54835 0.0
H1086 H 0.46006 0.38081 0.51837 0.0
H1087 H 0.43936 0.37028 0.56388 0.0
C1088 C 0.62997 0.87827 0.6823 0.0
C1089 C 0.63119 0.90361 0.66868 0.0
C1090 C 0.62651 0.87165 0.72887 0.0
C1091 C 0.62389 0.89083 0.7625 0.0
C1092 C 0.62606 0.9164 0.74922 0.0
C1093 C 0.62986 0.92248 0.7025 0.0
C1094 C 0.62474 0.84417 0.74181 0.0
C1095 C 0.62322 0.93741 0.78403 0.0
C1096 C 0.58563 0.87859 0.87106 0.0
C1097 C 0.60448 0.87692 0.90485 0.0
C1098 C 0.59174 0.88245 0.82438 0.0
C1099 C 0.61733 0.88433 0.81109 0.0
C1100 C 0.63648 0.88139 0.84467 0.0
C1101 C 0.62982 0.87788 0.89121 0.0
C1102 C 0.57077 0.88563 0.78962 0.0
C1103 C 0.66397 0.88285 0.83171 0.0
H1104 H 0.63113 0.86357 0.65639 0.0
H1105 H 0.63069 0.94209 0.69227 0.0
H1106 H 0.63749 0.83994 0.77118 0.0
H1107 H 0.6053 0.83978 0.75325 0.0
H1108 H 0.62959 0.83158 0.71245 0.0
H1109 H 0.62664 0.95624 0.76852 0.0
H1110 H 0.60391 0.93712 0.79865 0.0
H1111 H 0.63653 0.93469 0.81315 0.0
H1112 H 0.56601 0.87797 0.88129 0.0
H1113 H 0.64451 0.87646 0.9171 0.0
H1114 H 0.57327 0.8723 0.76046 0.0
H1115 H 0.57135 0.90495 0.77502 0.0
H1116 H 0.5519 0.8825 0.80515 0.0
H1117 H 0.66804 0.87006 0.8023 0.0
H1118 H 0.6765 0.87783 0.86104 0.0
H1119 H 0.66859 0.90224 0.82029 0.0
C1120 C 0.08077 0.37771 0.37087 0.0
C1121 C 0.0998 0.3745 0.40392 0.0
C1122 C 0.08669 0.38207 0.32419 0.0
C1123 C 0.11225 0.38302 0.31025 0.0
C1124 C 0.13149 0.37859 0.34306 0.0
C1125 C 0.12504 0.37446 0.38948 0.0
C1126 C 0.06564 0.38669 0.29017 0.0
C1127 C 0.15893 0.37914 0.32946 0.0
C1128 C 0.12566 0.37741 0.18164 0.0
C1129 C 0.12833 0.40275 0.16865 0.0
C1130 C 0.12102 0.37066 0.22777 0.0
C1131 C 0.11885 0.38969 0.26174 0.0
C1132 C 0.12235 0.41524 0.24918 0.0
C1133 C 0.12715 0.42146 0.20279 0.0
C1134 C 0.11771 0.34321 0.2399 0.0
C1135 C 0.12019 0.43608 0.28447 0.0
H1136 H 0.06124 0.3779 0.38175 0.0
H1137 H 0.13988 0.37188 0.41476 0.0
H1138 H 0.06691 0.40621 0.27668 0.0
H1139 H 0.06743 0.37379 0.26018 0.0
H1140 H 0.04677 0.38403 0.30599 0.0
H1141 H 0.17149 0.3735 0.35837 0.0
H1142 H 0.16233 0.36638 0.29974 0.0
H1143 H 0.16416 0.39842 0.31828 0.0
H1144 H 0.12663 0.36281 0.15552 0.0
H1145 H 0.12906 0.44107 0.19306 0.0
H1146 H 0.09818 0.33988 0.25204 0.0
H1147 H 0.13051 0.33794 0.2686 0.0
H1148 H 0.12146 0.33062 0.21 0.0
H1149 H 0.10088 0.43635 0.29911 0.0
H1150 H 0.12427 0.45489 0.26944 0.0
H1151 H 0.13338 0.43267 0.31353 0.0
C1152 C 0.62461 0.63159 0.64144 0.0
C1153 C 0.6271 0.60625 0.65449 0.0
C1154 C 0.62035 0.63833 0.59514 0.0
C1155 C 0.61828 0.61926 0.56118 0.0
C1156 C 0.62158 0.59372 0.57388 0.0
C1157 C 0.6261 0.58754 0.62032 0.0
C1158 C 0.61732 0.66578 0.5828 0.0
C1159 C 0.61943 0.57282 0.53868 0.0
C1160 C 0.58021 0.63017 0.45182 0.0
C1161 C 0.59924 0.63256 0.41851 0.0
C1162 C 0.58615 0.62664 0.49869 0.0
C1163 C 0.61171 0.62579 0.5126 0.0
C1164 C 0.63094 0.62956 0.47949 0.0
C1165 C 0.62448 0.63276 0.43281 0.0
C1166 C 0.56509 0.62258 0.53296 0.0
C1167 C 0.65839 0.62917 0.49306 0.0
H1168 H 0.62545 0.64618 0.6676 0.0
H1169 H 0.62789 0.56792 0.63008 0.0
H1170 H 0.63007 0.67081 0.55385 0.0
H1171 H 0.59779 0.66932 0.57094 0.0
H1172 H 0.62136 0.67839 0.61254 0.0
H1173 H 0.6233 0.55401 0.55387 0.0
H1174 H 0.60018 0.57268 0.52376 0.0
H1175 H 0.63278 0.57606 0.5098 0.0
H1176 H 0.56068 0.62989 0.44103 0.0
H1177 H 0.6393 0.63475 0.4073 0.0
H1178 H 0.56707 0.6357 0.56258 0.0
H1179 H 0.56615 0.60316 0.54695 0.0
H1180 H 0.54624 0.62535 0.51716 0.0
H1181 H 0.66174 0.64196 0.52275 0.0
H1182 H 0.67089 0.63485 0.46409 0.0
H1183 H 0.66373 0.60992 0.50423 0.0
C1184 C 0.37034 0.12521 0.68366 0.0
C1185 C 0.37113 0.1 0.66915 0.0
C1186 C 0.37358 0.13164 0.73036 0.0
C1187 C 0.37798 0.11243 0.76327 0.0
C1188 C 0.37763 0.08688 0.74918 0.0
C1189 C 0.37406 0.08096 0.70231 0.0
C1190 C 0.37341 0.15906 0.74413 0.0
C1191 C 0.38232 0.06584 0.78322 0.0
C1192 C 0.41663 0.12712 0.87037 0.0
C1193 C 0.39814 0.12759 0.90496 0.0
C1194 C 0.41023 0.12276 0.82397 0.0
C1195 C 0.38468 0.11902 0.81176 0.0
C1196 C 0.36581 0.12056 0.84617 0.0
C1197 C 0.37277 0.12471 0.8924 0.0
C1198 C 0.43092 0.12119 0.78828 0.0
C1199 C 0.33835 0.11704 0.8344 0.0
H1200 H 0.36793 0.14003 0.65828 0.0
H1201 H 0.37478 0.06145 0.6914 0.0
H1202 H 0.3608 0.16206 0.77422 0.0
H1203 H 0.39262 0.16484 0.75478 0.0
H1204 H 0.36718 0.17148 0.71542 0.0
H1205 H 0.37984 0.04696 0.76735 0.0
H1206 H 0.40181 0.06724 0.79679 0.0
H1207 H 0.36936 0.06751 0.81314 0.0
H1208 H 0.43627 0.12924 0.87973 0.0
H1209 H 0.35834 0.12513 0.91888 0.0
H1210 H 0.42717 0.13454 0.7596 0.0
H1211 H 0.43142 0.10198 0.77317 0.0
H1212 H 0.44974 0.12545 0.80309 0.0
H1213 H 0.33288 0.12972 0.80562 0.0
H1214 H 0.32586 0.12079 0.86443 0.0
H1215 H 0.33511 0.09745 0.82252 0.0
C1216 C 0.87917 0.9257 0.11693 0.0
C1217 C 0.87683 0.90678 0.15046 0.0
C1218 C 0.88345 0.91963 0.0703 0.0
C1219 C 0.88512 0.89403 0.05683 0.0
C1220 C 0.88162 0.87486 0.09016 0.0
C1221 C 0.87765 0.88146 0.13659 0.0
C1222 C 0.88716 0.94063 0.03577 0.0
C1223 C 0.88288 0.84737 0.07706 0.0
C1224 C 0.8788 0.88033 0.92841 0.0
C1225 C 0.90407 0.87834 0.91471 0.0
C1226 C 0.8723 0.8847 0.97477 0.0
C1227 C 0.89155 0.88739 0.00821 0.0
C1228 C 0.91706 0.88457 0.9949 0.0
C1229 C 0.92302 0.87994 0.94834 0.0
C1230 C 0.84488 0.8872 0.9877 0.0
C1231 C 0.93814 0.88739 0.02955 0.0
H1232 H 0.87872 0.94529 0.12739 0.0
H1233 H 0.87574 0.86671 0.16226 0.0
H1234 H 0.90653 0.93974 0.0215 0.0
H1235 H 0.87395 0.93839 0.00636 0.0
H1236 H 0.88424 0.95951 0.05139 0.0
H1237 H 0.8779 0.83481 0.10638 0.0
H1238 H 0.86994 0.84343 0.04783 0.0
H1239 H 0.90219 0.84264 0.06532 0.0
H1240 H 0.86403 0.87902 0.90266 0.0
H1241 H 0.94258 0.87857 0.93803 0.0
H1242 H 0.84101 0.90669 -0.00046 0.0
H1243 H 0.84029 0.87441 0.01684 0.0
H1244 H 0.83216 0.88285 0.95828 0.0
H1245 H 0.93801 0.90676 0.04396 0.0
H1246 H 0.95691 0.88375 0.01401 0.0
H1247 H 0.93534 0.87422 0.05886 0.0
loop_
_geom_bond_atom_site_label_1
_geom_bond_atom_site_label_2
_geom_bond_distance
_geom_bond_site_symmetry_2
_ccdc_geom_bond_type
C0 O2 1.247 . S
C0 O4 1.258 . S
C1 O8 1.247 . S
C1 O9 1.258 . S
O2 C0 1.247 . S
O2 Zn3 2.028 . S
Zn3 O2 2.028 . S
Zn3 O7 2.035 . S
Zn3 O9 2.035 . S
Zn3 O10 2.028 . S
O4 C0 1.258 . S
O4 Zn5 2.035 . S
Zn5 O4 2.035 . S
Zn5 O6 2.028 . S
Zn5 O8 2.028 . S
Zn5 O11 2.035 . S
O6 Zn5 2.028 . S
O6 C12 1.247 . S
O7 Zn3 2.035 . S
O7 C12 1.258 . S
O8 C1 1.247 . S
O8 Zn5 2.028 . S
O9 C1 1.258 . S
O9 Zn3 2.035 . S
O10 Zn3 2.028 . S
O10 C13 1.247 . S
O11 Zn5 2.035 . S
O11 C13 1.258 . S
C12 O6 1.247 . S
C12 O7 1.258 . S
C13 O10 1.247 . S
C13 O11 1.258 . S
C14 O16 1.247 . S
C14 O18 1.258 . S
C15 O22 1.247 . S
C15 O23 1.258 . S
O16 C14 1.247 . S
O16 Zn17 2.028 . S
Zn17 O16 2.028 . S
Zn17 O21 2.035 . S
Zn17 O23 2.035 . S
Zn17 O24 2.028 . S
O18 C14 1.258 . S
O18 Zn19 2.035 . S
Zn19 O18 2.035 . S
Zn19 O20 2.028 . S
Zn19 O22 2.028 . S
Zn19 O25 2.035 . S
O20 Zn19 2.028 . S
O20 C26 1.247 . S
O21 Zn17 2.035 . S
O21 C26 1.258 . S
O22 C15 1.247 . S
O22 Zn19 2.028 . S
O23 C15 1.258 . S
O23 Zn17 2.035 . S
O24 Zn17 2.028 . S
O24 C27 1.247 . S
O25 Zn19 2.035 . S
O25 C27 1.258 . S
C26 O20 1.247 . S
C26 O21 1.258 . S
C27 O24 1.247 . S
C27 O25 1.258 . S
C28 O30 1.247 . S
C28 O32 1.258 . S
C29 O36 1.247 . S
C29 O37 1.258 . S
O30 C28 1.247 . S
O30 Zn31 2.028 . S
Zn31 O30 2.028 . S
Zn31 O35 2.035 . S
Zn31 O37 2.035 . S
Zn31 O38 2.028 . S
O32 C28 1.258 . S
O32 Zn33 2.035 . S
Zn33 O32 2.035 . S
Zn33 O34 2.028 . S
Zn33 O36 2.028 . S
Zn33 O39 2.035 . S
O34 Zn33 2.028 . S
O34 C40 1.247 . S
O35 Zn31 2.035 . S
O35 C40 1.258 . S
O36 C29 1.247 . S
O36 Zn33 2.028 . S
O37 C29 1.258 . S
O37 Zn31 2.035 . S
O38 Zn31 2.028 . S
O38 C41 1.247 . S
O39 Zn33 2.035 . S
O39 C41 1.258 . S
C40 O34 1.247 . S
C40 O35 1.258 . S
C41 O38 1.247 . S
C41 O39 1.258 . S
C42 O44 1.247 . S
C42 O46 1.258 . S
C43 O50 1.247 . S
C43 O51 1.258 . S
O44 C42 1.247 . S
O44 Zn45 2.028 . S
Zn45 O44 2.028 . S
Zn45 O49 2.035 . S
Zn45 O51 2.035 1_554 S
Zn45 O52 2.028 . S
O46 C42 1.258 . S
O46 Zn47 2.035 . S
Zn47 O46 2.035 . S
Zn47 O48 2.028 . S
Zn47 O50 2.028 1_554 S
Zn47 O53 2.035 . S
O48 Zn47 2.028 . S
O48 C54 1.247 . S
O49 Zn45 2.035 . S
O49 C54 1.258 . S
O50 C43 1.247 . S
O50 Zn47 2.028 1_556 S
O51 C43 1.258 . S
O51 Zn45 2.035 1_556 S
O52 Zn45 2.028 . S
O52 C55 1.247 . S
O53 Zn47 2.035 . S
O53 C55 1.258 . S
C54 O48 1.247 . S
C54 O49 1.258 . S
C55 O52 1.247 . S
C55 O53 1.258 . S
C56 O58 1.247 . S
C56 O60 1.258 . S
C57 O64 1.247 . S
C57 O65 1.258 . S
O58 C56 1.247 . S
O58 Zn59 2.028 . S
Zn59 O58 2.028 . S
Zn59 O63 2.035 . S
Zn59 O65 2.035 . S
Zn59 O66 2.028 1_554 S
O60 C56 1.258 . S
O60 Zn61 2.035 . S
Zn61 O60 2.035 . S
Zn61 O62 2.028 . S
Zn61 O64 2.028 . S
Zn61 O67 2.035 1_554 S
O62 Zn61 2.028 . S
O62 C68 1.247 . S
O63 Zn59 2.035 . S
O63 C68 1.258 . S
O64 C57 1.247 . S
O64 Zn61 2.028 . S
O65 C57 1.258 . S
O65 Zn59 2.035 . S
O66 Zn59 2.028 1_556 S
O66 C69 1.247 . S
O67 Zn61 2.035 1_556 S
O67 C69 1.258 . S
C68 O62 1.247 . S
C68 O63 1.258 . S
C69 O66 1.247 . S
C69 O67 1.258 . S
C70 O72 1.247 . S
C70 O74 1.258 . S
C71 O78 1.247 . S
C71 O79 1.258 . S
O72 C70 1.247 . S
O72 Zn73 2.028 . S
Zn73 O72 2.028 . S
Zn73 O77 2.035 . S
Zn73 O79 2.035 . S
Zn73 O80 2.028 . S
O74 C70 1.258 . S
O74 Zn75 2.035 . S
Zn75 O74 2.035 . S
Zn75 O76 2.028 . S
Zn75 O78 2.028 . S
Zn75 O81 2.035 . S
O76 Zn75 2.028 . S
O76 C82 1.247 . S
O77 Zn73 2.035 . S
O77 C82 1.258 . S
O78 C71 1.247 . S
O78 Zn75 2.028 . S
O79 C71 1.258 . S
O79 Zn73 2.035 . S
O80 Zn73 2.028 . S
O80 C83 1.247 . S
O81 Zn75 2.035 . S
O81 C83 1.258 . S
C82 O76 1.247 . S
C82 O77 1.258 . S
C83 O80 1.247 . S
C83 O81 1.258 . S
C84 O86 1.247 . S
C84 O88 1.258 . S
C85 O92 1.247 . S
C85 O93 1.258 . S
O86 C84 1.247 . S
O86 Zn87 2.028 . S
Zn87 O86 2.028 . S
Zn87 O91 2.035 . S
Zn87 O93 2.035 . S
Zn87 O94 2.028 . S
O88 C84 1.258 . S
O88 Zn89 2.035 . S
Zn89 O88 2.035 . S
Zn89 O90 2.028 . S
Zn89 O92 2.028 . S
Zn89 O95 2.035 . S
O90 Zn89 2.028 . S
O90 C96 1.247 . S
O91 Zn87 2.035 . S
O91 C96 1.258 . S
O92 C85 1.247 . S
O92 Zn89 2.028 . S
O93 C85 1.258 . S
O93 Zn87 2.035 . S
O94 Zn87 2.028 . S
O94 C97 1.247 . S
O95 Zn89 2.035 . S
O95 C97 1.258 . S
C96 O90 1.247 . S
C96 O91 1.258 . S
C97 O94 1.247 . S
C97 O95 1.258 . S
C98 O100 1.247 . S
C98 O102 1.258 . S
C99 O106 1.247 . S
C99 O107 1.258 . S
O100 C98 1.247 . S
O100 Zn101 2.028 . S
Zn101 O100 2.028 . S
Zn101 O105 2.035 . S
Zn101 O107 2.035 . S
Zn101 O108 2.028 . S
O102 C98 1.258 . S
O102 Zn103 2.035 . S
Zn103 O102 2.035 . S
Zn103 O104 2.028 . S
Zn103 O106 2.028 . S
Zn103 O109 2.035 . S
O104 Zn103 2.028 . S
O104 C110 1.247 . S
O105 Zn101 2.035 . S
O105 C110 1.258 . S
O106 C99 1.247 . S
O106 Zn103 2.028 . S
O107 C99 1.258 . S
O107 Zn101 2.035 . S
O108 Zn101 2.028 . S
O108 C111 1.247 . S
O109 Zn103 2.035 . S
O109 C111 1.258 . S
C110 O104 1.247 . S
C110 O105 1.258 . S
C111 O108 1.247 . S
C111 O109 1.258 . S
C112 O114 1.247 . S
C112 O116 1.258 . S
C113 O120 1.247 . S
C113 O121 1.258 . S
O114 C112 1.247 . S
O114 Zn115 2.028 . S
Zn115 O114 2.028 . S
Zn115 O119 2.035 . S
Zn115 O121 2.035 . S
Zn115 O122 2.028 . S
O116 C112 1.258 . S
O116 Zn117 2.035 . S
Zn117 O116 2.035 . S
Zn117 O118 2.028 . S
Zn117 O120 2.028 . S
Zn117 O123 2.035 . S
O118 Zn117 2.028 . S
O118 C124 1.247 . S
O119 Zn115 2.035 . S
O119 C124 1.258 . S
O120 C113 1.247 . S
O120 Zn117 2.028 . S
O121 C113 1.258 . S
O121 Zn115 2.035 . S
O122 Zn115 2.028 . S
O122 C125 1.247 . S
O123 Zn117 2.035 . S
O123 C125 1.258 . S
C124 O118 1.247 . S
C124 O119 1.258 . S
C125 O122 1.247 . S
C125 O123 1.258 . S
C126 O128 1.247 . S
C126 O130 1.258 . S
C127 O134 1.247 . S
C127 O135 1.258 . S
O128 C126 1.247 . S
O128 Zn129 2.028 . S
Zn129 O128 2.028 . S
Zn129 O133 2.035 . S
Zn129 O135 2.035 1_554 S
Zn129 O136 2.028 . S
O130 C126 1.258 . S
O130 Zn131 2.035 . S
Zn131 O130 2.035 . S
Zn131 O132 2.028 . S
Zn131 O134 2.028 1_554 S
Zn131 O137 2.035 . S
O132 Zn131 2.028 . S
O132 C138 1.247 . S
O133 Zn129 2.035 . S
O133 C138 1.258 . S
O134 C127 1.247 . S
O134 Zn131 2.028 1_556 S
O135 C127 1.258 . S
O135 Zn129 2.035 1_556 S
O136 Zn129 2.028 . S
O136 C139 1.247 . S
O137 Zn131 2.035 . S
O137 C139 1.258 . S
C138 O132 1.247 . S
C138 O133 1.258 . S
C139 O136 1.247 . S
C139 O137 1.258 . S
C140 O142 1.247 . S
C140 O144 1.258 . S
C141 O148 1.247 . S
C141 O149 1.258 . S
O142 C140 1.247 . S
O142 Zn143 2.028 . S
Zn143 O142 2.028 . S
Zn143 O147 2.035 . S
Zn143 O149 2.035 . S
Zn143 O150 2.028 . S
O144 C140 1.258 . S
O144 Zn145 2.035 . S
Zn145 O144 2.035 . S
Zn145 O146 2.028 . S
Zn145 O148 2.028 . S
Zn145 O151 2.035 . S
O146 Zn145 2.028 . S
O146 C152 1.247 . S
O147 Zn143 2.035 . S
O147 C152 1.258 . S
O148 C141 1.247 . S
O148 Zn145 2.028 . S
O149 C141 1.258 . S
O149 Zn143 2.035 . S
O150 Zn143 2.028 . S
O150 C153 1.247 . S
O151 Zn145 2.035 . S
O151 C153 1.258 . S
C152 O146 1.247 . S
C152 O147 1.258 . S
C153 O150 1.247 . S
C153 O151 1.258 . S
C154 O156 1.247 . S
C154 O158 1.258 . S
C155 O162 1.247 . S
C155 O163 1.258 . S
O156 C154 1.247 . S
O156 Zn157 2.028 . S
Zn157 O156 2.028 . S
Zn157 O161 2.035 . S
Zn157 O163 2.035 . S
Zn157 O164 2.028 . S
O158 C154 1.258 . S
O158 Zn159 2.035 . S
Zn159 O158 2.035 . S
Zn159 O160 2.028 . S
Zn159 O162 2.028 . S
Zn159 O165 2.035 . S
O160 Zn159 2.028 . S
O160 C166 1.247 . S
O161 Zn157 2.035 . S
O161 C166 1.258 . S
O162 C155 1.247 . S
O162 Zn159 2.028 . S
O163 C155 1.258 . S
O163 Zn157 2.035 . S
O164 Zn157 2.028 . S
O164 C167 1.247 . S
O165 Zn159 2.035 . S
O165 C167 1.258 . S
C166 O160 1.247 . S
C166 O161 1.258 . S
C167 O164 1.247 . S
C167 O165 1.258 . S
C168 O170 1.247 . S
C168 O172 1.258 . S
C169 O176 1.247 . S
C169 O177 1.258 . S
O170 C168 1.247 . S
O170 Zn171 2.028 . S
Zn171 O170 2.028 . S
Zn171 O175 2.035 . S
Zn171 O177 2.035 . S
Zn171 O178 2.028 . S
O172 C168 1.258 . S
O172 Zn173 2.035 . S
Zn173 O172 2.035 . S
Zn173 O174 2.028 . S
Zn173 O176 2.028 . S
Zn173 O179 2.035 . S
O174 Zn173 2.028 . S
O174 C180 1.247 . S
O175 Zn171 2.035 . S
O175 C180 1.258 . S
O176 C169 1.247 . S
O176 Zn173 2.028 . S
O177 C169 1.258 . S
O177 Zn171 2.035 . S
O178 Zn171 2.028 . S
O178 C181 1.247 . S
O179 Zn173 2.035 . S
O179 C181 1.258 . S
C180 O174 1.247 . S
C180 O175 1.258 . S
C181 O178 1.247 . S
C181 O179 1.258 . S
C182 O184 1.247 . S
C182 O186 1.258 . S
C183 O190 1.247 . S
C183 O191 1.258 . S
O184 C182 1.247 . S
O184 Zn185 2.028 . S
Zn185 O184 2.028 . S
Zn185 O189 2.035 . S
Zn185 O191 2.035 . S
Zn185 O192 2.028 . S
O186 C182 1.258 . S
O186 Zn187 2.035 . S
Zn187 O186 2.035 . S
Zn187 O188 2.028 . S
Zn187 O190 2.028 . S
Zn187 O193 2.035 . S
O188 Zn187 2.028 . S
O188 C194 1.247 . S
O189 Zn185 2.035 . S
O189 C194 1.258 . S
O190 C183 1.247 . S
O190 Zn187 2.028 . S
O191 C183 1.258 . S
O191 Zn185 2.035 . S
O192 Zn185 2.028 . S
O192 C195 1.247 . S
O193 Zn187 2.035 . S
O193 C195 1.258 . S
C194 O188 1.247 . S
C194 O189 1.258 . S
C195 O192 1.247 . S
C195 O193 1.258 . S
C196 O198 1.247 . S
C196 O200 1.258 . S
C197 O204 1.247 . S
C197 O205 1.258 . S
O198 C196 1.247 . S
O198 Zn199 2.028 . S
Zn199 O198 2.028 . S
Zn199 O203 2.035 1_554 S
Zn199 O205 2.035 . S
Zn199 O206 2.028 . S
O200 C196 1.258 . S
O200 Zn201 2.035 . S
Zn201 O200 2.035 . S
Zn201 O202 2.028 1_554 S
Zn201 O204 2.028 . S
Zn201 O207 2.035 . S
O202 Zn201 2.028 1_556 S
O202 C208 1.247 . S
O203 Zn199 2.035 1_556 S
O203 C208 1.258 . S
O204 C197 1.247 . S
O204 Zn201 2.028 . S
O205 C197 1.258 . S
O205 Zn199 2.035 . S
O206 Zn199 2.028 . S
O206 C209 1.247 . S
O207 Zn201 2.035 . S
O207 C209 1.258 . S
C208 O202 1.247 . S
C208 O203 1.258 . S
C209 O206 1.247 . S
C209 O207 1.258 . S
C210 O212 1.247 . S
C210 O214 1.258 . S
C211 O218 1.247 . S
C211 O219 1.258 . S
O212 C210 1.247 . S
O212 Zn213 2.028 . S
Zn213 O212 2.028 . S
Zn213 O217 2.035 . S
Zn213 O219 2.035 . S
Zn213 O220 2.028 . S
O214 C210 1.258 . S
O214 Zn215 2.035 . S
Zn215 O214 2.035 . S
Zn215 O216 2.028 . S
Zn215 O218 2.028 . S
Zn215 O221 2.035 . S
O216 Zn215 2.028 . S
O216 C222 1.247 . S
O217 Zn213 2.035 . S
O217 C222 1.258 . S
O218 C211 1.247 . S
O218 Zn215 2.028 . S
O219 C211 1.258 . S
O219 Zn213 2.035 . S
O220 Zn213 2.028 . S
O220 C223 1.247 . S
O221 Zn215 2.035 . S
O221 C223 1.258 . S
C222 O216 1.247 . S
C222 O217 1.258 . S
C223 O220 1.247 . S
C223 O221 1.258 . S
C224 C225 1.391 . S
C224 C226 1.394 . S
C224 H240 0.931 . S
C225 C224 1.391 . S
C225 C229 1.376 . S
C226 C224 1.394 . S
C226 C227 1.369 . S
C226 C230 1.531 . S
C227 C226 1.369 . S
C227 C228 1.410 . S
C227 C235 1.503 . S
C228 C227 1.410 . S
C228 C229 1.392 . S
C228 C231 1.511 . S
C229 C225 1.376 . S
C229 C228 1.392 . S
C229 H241 0.929 . S
C230 C226 1.531 . S
C230 H242 0.960 . S
C230 H243 0.962 . S
C230 H244 0.960 . S
C231 C228 1.511 . S
C231 H245 0.961 . S
C231 H246 0.961 . S
C231 H247 0.961 . S
C232 C233 1.370 . S
C232 C234 1.363 . S
C232 H248 0.931 . S
C233 C232 1.370 . S
C233 C237 1.408 . S
C234 C232 1.363 . S
C234 C235 1.370 . S
C234 C238 1.524 . S
C235 C227 1.503 . S
C235 C234 1.370 . S
C235 C236 1.403 . S
C236 C235 1.403 . S
C236 C237 1.404 . S
C236 C239 1.539 . S
C237 C233 1.408 . S
C237 C236 1.404 . S
C237 H249 0.930 . S
C238 C234 1.524 . S
C238 H250 0.956 . S
C238 H251 0.961 . S
C238 H252 0.961 . S
C239 C236 1.539 . S
C239 H253 0.958 . S
C239 H254 0.961 . S
C239 H255 0.960 . S
H240 C224 0.931 . S
H241 C229 0.929 . S
H242 C230 0.960 . S
H243 C230 0.962 . S
H244 C230 0.960 . S
H245 C231 0.961 . S
H246 C231 0.961 . S
H247 C231 0.961 . S
H248 C232 0.931 . S
H249 C237 0.930 . S
H250 C238 0.956 . S
H251 C238 0.961 . S
H252 C238 0.961 . S
H253 C239 0.958 . S
H254 C239 0.961 . S
H255 C239 0.960 . S
C256 C257 1.391 . S
C256 C258 1.394 . S
C256 H272 0.931 . S
C257 C256 1.391 . S
C257 C261 1.376 . S
C258 C256 1.394 . S
C258 C259 1.369 . S
C258 C262 1.531 . S
C259 C258 1.369 . S
C259 C260 1.410 . S
C259 C267 1.503 . S
C260 C259 1.410 . S
C260 C261 1.392 . S
C260 C263 1.511 . S
C261 C257 1.376 . S
C261 C260 1.392 . S
C261 H273 0.929 . S
C262 C258 1.531 . S
C262 H274 0.960 . S
C262 H275 0.962 . S
C262 H276 0.960 . S
C263 C260 1.511 . S
C263 H277 0.961 . S
C263 H278 0.961 . S
C263 H279 0.961 . S
C264 C265 1.370 . S
C264 C266 1.363 . S
C264 H280 0.931 . S
C265 C264 1.370 . S
C265 C269 1.408 . S
C266 C264 1.363 . S
C266 C267 1.370 . S
C266 C270 1.524 . S
C267 C259 1.503 . S
C267 C266 1.370 . S
C267 C268 1.403 . S
C268 C267 1.403 . S
C268 C269 1.404 . S
C268 C271 1.539 . S
C269 C265 1.408 . S
C269 C268 1.404 . S
C269 H281 0.930 . S
C270 C266 1.524 . S
C270 H282 0.956 . S
C270 H283 0.961 . S
C270 H284 0.961 . S
C271 C268 1.539 . S
C271 H285 0.958 . S
C271 H286 0.961 . S
C271 H287 0.960 . S
H272 C256 0.931 . S
H273 C261 0.929 . S
H274 C262 0.960 . S
H275 C262 0.962 . S
H276 C262 0.960 . S
H277 C263 0.961 . S
H278 C263 0.961 . S
H279 C263 0.961 . S
H280 C264 0.931 . S
H281 C269 0.930 . S
H282 C270 0.956 . S
H283 C270 0.961 . S
H284 C270 0.961 . S
H285 C271 0.958 . S
H286 C271 0.961 . S
H287 C271 0.960 . S
C288 C289 1.391 . S
C288 C290 1.394 . S
C288 H304 0.931 . S
C289 C288 1.391 . S
C289 C293 1.376 . S
C290 C288 1.394 . S
C290 C291 1.369 . S
C290 C294 1.531 . S
C291 C290 1.369 . S
C291 C292 1.410 . S
C291 C299 1.503 . S
C292 C291 1.410 . S
C292 C293 1.392 . S
C292 C295 1.511 . S
C293 C289 1.376 . S
C293 C292 1.392 . S
C293 H305 0.929 . S
C294 C290 1.531 . S
C294 H306 0.960 . S
C294 H307 0.962 . S
C294 H308 0.960 . S
C295 C292 1.511 . S
C295 H309 0.961 . S
C295 H310 0.961 . S
C295 H311 0.961 . S
C296 C297 1.370 . S
C296 C298 1.363 . S
C296 H312 0.931 . S
C297 C296 1.370 . S
C297 C301 1.408 . S
C298 C296 1.363 . S
C298 C299 1.370 . S
C298 C302 1.524 . S
C299 C291 1.503 . S
C299 C298 1.370 . S
C299 C300 1.403 . S
C300 C299 1.403 . S
C300 C301 1.404 . S
C300 C303 1.539 . S
C301 C297 1.408 . S
C301 C300 1.404 . S
C301 H313 0.930 . S
C302 C298 1.524 . S
C302 H314 0.956 . S
C302 H315 0.961 . S
C302 H316 0.961 . S
C303 C300 1.539 . S
C303 H317 0.958 . S
C303 H318 0.961 . S
C303 H319 0.960 . S
H304 C288 0.931 . S
H305 C293 0.929 . S
H306 C294 0.960 . S
H307 C294 0.962 . S
H308 C294 0.960 . S
H309 C295 0.961 . S
H310 C295 0.961 . S
H311 C295 0.961 . S
H312 C296 0.931 . S
H313 C301 0.930 . S
H314 C302 0.956 . S
H315 C302 0.961 . S
H316 C302 0.961 . S
H317 C303 0.958 . S
H318 C303 0.961 . S
H319 C303 0.960 . S
C320 C321 1.391 . S
C320 C322 1.394 . S
C320 H336 0.931 . S
C321 C320 1.391 . S
C321 C325 1.376 . S
C322 C320 1.394 . S
C322 C323 1.369 . S
C322 C326 1.531 . S
C323 C322 1.369 . S
C323 C324 1.410 . S
C323 C331 1.503 . S
C324 C323 1.410 . S
C324 C325 1.392 . S
C324 C327 1.511 . S
C325 C321 1.376 . S
C325 C324 1.392 . S
C325 H337 0.929 . S
C326 C322 1.531 . S
C326 H338 0.960 . S
C326 H339 0.962 . S
C326 H340 0.960 . S
C327 C324 1.511 . S
C327 H341 0.961 . S
C327 H342 0.961 . S
C327 H343 0.961 . S
C328 C329 1.370 . S
C328 C330 1.363 . S
C328 H344 0.931 . S
C329 C328 1.370 . S
C329 C333 1.408 . S
C330 C328 1.363 . S
C330 C331 1.370 . S
C330 C334 1.524 . S
C331 C323 1.503 . S
C331 C330 1.370 . S
C331 C332 1.403 . S
C332 C331 1.403 . S
C332 C333 1.404 . S
C332 C335 1.539 . S
C333 C329 1.408 . S
C333 C332 1.404 . S
C333 H345 0.930 . S
C334 C330 1.524 . S
C334 H346 0.956 . S
C334 H347 0.961 . S
C334 H348 0.961 . S
C335 C332 1.539 . S
C335 H349 0.958 . S
C335 H350 0.961 . S
C335 H351 0.960 . S
H336 C320 0.931 . S
H337 C325 0.929 . S
H338 C326 0.960 . S
H339 C326 0.962 . S
H340 C326 0.960 . S
H341 C327 0.961 . S
H342 C327 0.961 . S
H343 C327 0.961 . S
H344 C328 0.931 . S
H345 C333 0.930 . S
H346 C334 0.956 . S
H347 C334 0.961 . S
H348 C334 0.961 . S
H349 C335 0.958 . S
H350 C335 0.961 . S
H351 C335 0.960 . S
C352 C353 1.391 . S
C352 C354 1.394 . S
C352 H368 0.931 . S
C353 C352 1.391 . S
C353 C357 1.376 . S
C354 C352 1.394 . S
C354 C355 1.369 . S
C354 C358 1.531 . S
C355 C354 1.369 . S
C355 C356 1.410 . S
C355 C363 1.503 . S
C356 C355 1.410 . S
C356 C357 1.392 . S
C356 C359 1.511 . S
C357 C353 1.376 . S
C357 C356 1.392 . S
C357 H369 0.929 . S
C358 C354 1.531 . S
C358 H370 0.960 . S
C358 H371 0.962 . S
C358 H372 0.960 . S
C359 C356 1.511 . S
C359 H373 0.961 . S
C359 H374 0.961 . S
C359 H375 0.961 . S
C360 C361 1.370 . S
C360 C362 1.363 . S
C360 H376 0.931 . S
C361 C360 1.370 . S
C361 C365 1.408 . S
C362 C360 1.363 . S
C362 C363 1.370 . S
C362 C366 1.524 . S
C363 C355 1.503 . S
C363 C362 1.370 . S
C363 C364 1.403 . S
C364 C363 1.403 . S
C364 C365 1.404 . S
C364 C367 1.539 . S
C365 C361 1.408 . S
C365 C364 1.404 . S
C365 H377 0.930 . S
C366 C362 1.524 . S
C366 H378 0.956 . S
C366 H379 0.961 . S
C366 H380 0.961 . S
C367 C364 1.539 . S
C367 H381 0.958 . S
C367 H382 0.961 . S
C367 H383 0.960 . S
H368 C352 0.931 . S
H369 C357 0.929 . S
H370 C358 0.960 . S
H371 C358 0.962 . S
H372 C358 0.960 . S
H373 C359 0.961 . S
H374 C359 0.961 . S
H375 C359 0.961 . S
H376 C360 0.931 . S
H377 C365 0.930 . S
H378 C366 0.956 . S
H379 C366 0.961 . S
H380 C366 0.961 . S
H381 C367 0.958 . S
H382 C367 0.961 . S
H383 C367 0.960 . S
C384 C385 1.391 . S
C384 C386 1.394 . S
C384 H400 0.931 . S
C385 C384 1.391 . S
C385 C389 1.376 . S
C386 C384 1.394 . S
C386 C387 1.369 . S
C386 C390 1.531 . S
C387 C386 1.369 . S
C387 C388 1.410 . S
C387 C395 1.503 . S
C388 C387 1.410 . S
C388 C389 1.392 . S
C388 C391 1.511 . S
C389 C385 1.376 . S
C389 C388 1.392 . S
C389 H401 0.929 . S
C390 C386 1.531 . S
C390 H402 0.960 . S
C390 H403 0.962 . S
C390 H404 0.960 . S
C391 C388 1.511 . S
C391 H405 0.961 . S
C391 H406 0.961 . S
C391 H407 0.961 . S
C392 C393 1.370 . S
C392 C394 1.363 . S
C392 H408 0.931 . S
C393 C392 1.370 . S
C393 C397 1.408 . S
C394 C392 1.363 . S
C394 C395 1.370 . S
C394 C398 1.524 . S
C395 C387 1.503 . S
C395 C394 1.370 . S
C395 C396 1.403 . S
C396 C395 1.403 . S
C396 C397 1.404 . S
C396 C399 1.539 . S
C397 C393 1.408 . S
C397 C396 1.404 . S
C397 H409 0.930 . S
C398 C394 1.524 . S
C398 H410 0.956 . S
C398 H411 0.961 . S
C398 H412 0.961 . S
C399 C396 1.539 . S
C399 H413 0.958 . S
C399 H414 0.961 . S
C399 H415 0.960 . S
H400 C384 0.931 . S
H401 C389 0.929 . S
H402 C390 0.960 . S
H403 C390 0.962 . S
H404 C390 0.960 . S
H405 C391 0.961 . S
H406 C391 0.961 . S
H407 C391 0.961 . S
H408 C392 0.931 . S
H409 C397 0.930 . S
H410 C398 0.956 . S
H411 C398 0.961 . S
H412 C398 0.961 . S
H413 C399 0.958 . S
H414 C399 0.961 . S
H415 C399 0.960 . S
C416 C417 1.391 . S
C416 C418 1.394 . S
C416 H432 0.931 . S
C417 C416 1.391 . S
C417 C421 1.376 . S
C418 C416 1.394 . S
C418 C419 1.369 . S
C418 C422 1.531 . S
C419 C418 1.369 . S
C419 C420 1.410 . S
C419 C427 1.503 . S
C420 C419 1.410 . S
C420 C421 1.392 . S
C420 C423 1.511 . S
C421 C417 1.376 . S
C421 C420 1.392 . S
C421 H433 0.929 . S
C422 C418 1.531 . S
C422 H434 0.960 . S
C422 H435 0.962 . S
C422 H436 0.960 . S
C423 C420 1.511 . S
C423 H437 0.961 . S
C423 H438 0.961 . S
C423 H439 0.961 . S
C424 C425 1.370 . S
C424 C426 1.363 . S
C424 H440 0.931 . S
C425 C424 1.370 . S
C425 C429 1.408 . S
C426 C424 1.363 . S
C426 C427 1.370 . S
C426 C430 1.524 . S
C427 C419 1.503 . S
C427 C426 1.370 . S
C427 C428 1.403 . S
C428 C427 1.403 . S
C428 C429 1.404 . S
C428 C431 1.539 . S
C429 C425 1.408 . S
C429 C428 1.404 . S
C429 H441 0.930 . S
C430 C426 1.524 . S
C430 H442 0.956 . S
C430 H443 0.961 . S
C430 H444 0.961 . S
C431 C428 1.539 . S
C431 H445 0.958 . S
C431 H446 0.961 . S
C431 H447 0.960 . S
H432 C416 0.931 . S
H433 C421 0.929 . S
H434 C422 0.960 . S
H435 C422 0.962 . S
H436 C422 0.960 . S
H437 C423 0.961 . S
H438 C423 0.961 . S
H439 C423 0.961 . S
H440 C424 0.931 . S
H441 C429 0.930 . S
H442 C430 0.956 . S
H443 C430 0.961 . S
H444 C430 0.961 . S
H445 C431 0.958 . S
H446 C431 0.961 . S
H447 C431 0.960 . S
C448 C449 1.391 . S
C448 C450 1.394 . S
C448 H464 0.931 . S
C449 C448 1.391 . S
C449 C453 1.376 . S
C450 C448 1.394 . S
C450 C451 1.369 . S
C450 C454 1.531 . S
C451 C450 1.369 . S
C451 C452 1.410 . S
C451 C459 1.503 . S
C452 C451 1.410 . S
C452 C453 1.392 . S
C452 C455 1.511 . S
C453 C449 1.376 . S
C453 C452 1.392 . S
C453 H465 0.929 . S
C454 C450 1.531 . S
C454 H466 0.960 . S
C454 H467 0.962 . S
C454 H468 0.960 . S
C455 C452 1.511 . S
C455 H469 0.961 . S
C455 H470 0.961 . S
C455 H471 0.961 . S
C456 C457 1.370 . S
C456 C458 1.363 . S
C456 H472 0.931 . S
C457 C456 1.370 . S
C457 C461 1.408 . S
C458 C456 1.363 . S
C458 C459 1.370 . S
C458 C462 1.524 . S
C459 C451 1.503 . S
C459 C458 1.370 . S
C459 C460 1.403 . S
C460 C459 1.403 . S
C460 C461 1.404 . S
C460 C463 1.539 . S
C461 C457 1.408 . S
C461 C460 1.404 . S
C461 H473 0.930 . S
C462 C458 1.524 . S
C462 H474 0.956 . S
C462 H475 0.961 . S
C462 H476 0.961 . S
C463 C460 1.539 . S
C463 H477 0.958 . S
C463 H478 0.961 . S
C463 H479 0.960 . S
H464 C448 0.931 . S
H465 C453 0.929 . S
H466 C454 0.960 . S
H467 C454 0.962 . S
H468 C454 0.960 . S
H469 C455 0.961 . S
H470 C455 0.961 . S
H471 C455 0.961 . S
H472 C456 0.931 . S
H473 C461 0.930 . S
H474 C462 0.956 . S
H475 C462 0.961 . S
H476 C462 0.961 . S
H477 C463 0.958 . S
H478 C463 0.961 . S
H479 C463 0.960 . S
C480 C481 1.391 . S
C480 C482 1.394 . S
C480 H496 0.931 . S
C481 C480 1.391 . S
C481 C485 1.376 . S
C482 C480 1.394 . S
C482 C483 1.369 . S
C482 C486 1.531 1_545 S
C483 C482 1.369 . S
C483 C484 1.397 1_455 S
C483 C491 1.503 1_445 S
C484 C483 1.397 1_655 S
C484 C485 1.365 1_655 S
C484 C487 1.551 . S
C485 C481 1.376 . S
C485 C484 1.365 1_455 S
C485 H497 0.929 . S
C486 C482 1.531 1_565 S
C486 H498 0.960 . S
C486 H499 0.962 . S
C486 H500 0.960 . S
C487 C484 1.551 . S
C487 H501 0.961 . S
C487 H502 0.961 . S
C487 H503 0.961 . S
C488 C489 1.370 . S
C488 C490 1.363 . S
C488 H504 0.931 . S
C489 C488 1.370 . S
C489 C493 1.408 . S
C490 C488 1.363 . S
C490 C491 1.370 . S
C490 C494 1.524 1_655 S
C491 C483 1.503 1_665 S
C491 C490 1.370 . S
C491 C492 1.403 . S
C492 C491 1.403 . S
C492 C493 1.404 . S
C492 C495 1.539 1_565 S
C493 C489 1.408 . S
C493 C492 1.404 . S
C493 H505 0.930 . S
C494 C490 1.524 1_455 S
C494 H506 0.956 . S
C494 H507 0.961 . S
C494 H508 0.961 . S
C495 C492 1.539 1_545 S
C495 H509 0.958 1_545 S
C495 H510 0.961 . S
C495 H511 0.960 . S
H496 C480 0.931 . S
H497 C485 0.929 . S
H498 C486 0.960 . S
H499 C486 0.962 . S
H500 C486 0.960 . S
H501 C487 0.961 . S
H502 C487 0.961 . S
H503 C487 0.961 . S
H504 C488 0.931 . S
H505 C493 0.930 . S
H506 C494 0.956 . S
H507 C494 0.961 . S
H508 C494 0.961 . S
H509 C495 0.958 1_565 S
H510 C495 0.961 . S
H511 C495 0.960 . S
C512 C513 1.391 . S
C512 C514 1.394 . S
C512 H528 0.931 . S
C513 C512 1.391 . S
C513 C517 1.376 . S
C514 C512 1.394 . S
C514 C515 1.369 . S
C514 C518 1.531 1_655 S
C515 C514 1.369 . S
C515 C516 1.410 . S
C515 C523 1.503 1_655 S
C516 C515 1.410 . S
C516 C517 1.392 . S
C516 C519 1.511 . S
C517 C513 1.376 . S
C517 C516 1.392 . S
C517 H529 0.929 . S
C518 C514 1.531 1_455 S
C518 H530 0.960 . S
C518 H531 0.962 . S
C518 H532 0.960 . S
C519 C516 1.511 . S
C519 H533 0.961 . S
C519 H534 0.961 . S
C519 H535 0.961 . S
C520 C521 1.370 . S
C520 C522 1.363 . S
C520 H536 0.931 . S
C521 C520 1.370 . S
C521 C525 1.408 . S
C522 C520 1.363 . S
C522 C523 1.370 . S
C522 C526 1.524 . S
C523 C515 1.503 1_455 S
C523 C522 1.370 . S
C523 C524 1.403 . S
C524 C523 1.403 . S
C524 C525 1.404 . S
C524 C527 1.539 . S
C525 C521 1.408 . S
C525 C524 1.404 . S
C525 H537 0.930 . S
C526 C522 1.524 . S
C526 H538 0.956 . S
C526 H539 0.961 1_455 S
C526 H540 0.961 . S
C527 C524 1.539 . S
C527 H541 0.958 . S
C527 H542 0.961 . S
C527 H543 0.960 1_455 S
H528 C512 0.931 . S
H529 C517 0.929 . S
H530 C518 0.960 . S
H531 C518 0.962 . S
H532 C518 0.960 . S
H533 C519 0.961 . S
H534 C519 0.961 . S
H535 C519 0.961 . S
H536 C520 0.931 . S
H537 C525 0.930 . S
H538 C526 0.956 . S
H539 C526 0.961 1_655 S
H540 C526 0.961 . S
H541 C527 0.958 . S
H542 C527 0.961 . S
H543 C527 0.960 1_655 S
C544 C545 1.391 . S
C544 C546 1.394 . S
C544 H560 0.931 . S
C545 C544 1.391 . S
C545 C549 1.376 . S
C546 C544 1.394 . S
C546 C547 1.369 . S
C546 C550 1.531 . S
C547 C546 1.369 . S
C547 C548 1.410 . S
C547 C555 1.503 . S
C548 C547 1.410 . S
C548 C549 1.392 . S
C548 C551 1.511 . S
C549 C545 1.376 . S
C549 C548 1.392 . S
C549 H561 0.929 . S
C550 C546 1.531 . S
C550 H562 0.960 . S
C550 H563 0.962 . S
C550 H564 0.960 . S
C551 C548 1.511 . S
C551 H565 0.961 . S
C551 H566 0.961 . S
C551 H567 0.961 . S
C552 C553 1.370 . S
C552 C554 1.363 . S
C552 H568 0.931 . S
C553 C552 1.370 . S
C553 C557 1.408 . S
C554 C552 1.363 . S
C554 C555 1.370 . S
C554 C558 1.524 . S
C555 C547 1.503 . S
C555 C554 1.370 . S
C555 C556 1.403 . S
C556 C555 1.403 . S
C556 C557 1.404 . S
C556 C559 1.539 . S
C557 C553 1.408 . S
C557 C556 1.404 . S
C557 H569 0.930 . S
C558 C554 1.524 . S
C558 H570 0.956 . S
C558 H571 0.961 . S
C558 H572 0.961 . S
C559 C556 1.539 . S
C559 H573 0.958 . S
C559 H574 0.961 . S
C559 H575 0.960 . S
H560 C544 0.931 . S
H561 C549 0.929 . S
H562 C550 0.960 . S
H563 C550 0.962 . S
H564 C550 0.960 . S
H565 C551 0.961 . S
H566 C551 0.961 . S
H567 C551 0.961 . S
H568 C552 0.931 . S
H569 C557 0.930 . S
H570 C558 0.956 . S
H571 C558 0.961 . S
H572 C558 0.961 . S
H573 C559 0.958 . S
H574 C559 0.961 . S
H575 C559 0.960 . S
C576 C577 1.391 . S
C576 C578 1.379 1_565 S
C576 H592 0.931 . S
C577 C576 1.391 . S
C577 C581 1.376 . S
C578 C576 1.379 1_545 S
C578 C579 1.362 1_545 S
C578 C582 1.553 . S
C579 C578 1.362 1_565 S
C579 C580 1.410 . S
C579 C587 1.503 1_565 S
C580 C579 1.410 . S
C580 C581 1.392 . S
C580 C583 1.511 1_554 S
C581 C577 1.376 . S
C581 C580 1.392 . S
C581 H593 0.929 . S
C582 C578 1.553 . S
C582 H594 0.960 . S
C582 H595 0.962 . S
C582 H596 0.960 . S
C583 C580 1.511 1_556 S
C583 H597 0.961 . S
C583 H598 0.961 1_556 S
C583 H599 0.961 . S
C584 C585 1.370 . S
C584 C586 1.363 . S
C584 H600 0.931 . S
C585 C584 1.370 . S
C585 C589 1.408 1_554 S
C586 C584 1.363 . S
C586 C587 1.370 . S
C586 C590 1.524 1_545 S
C587 C579 1.503 1_545 S
C587 C586 1.370 . S
C587 C588 1.403 1_554 S
C588 C587 1.403 1_556 S
C588 C589 1.404 . S
C588 C591 1.539 . S
C589 C585 1.408 1_556 S
C589 C588 1.404 . S
C589 H601 0.930 . S
C590 C586 1.524 1_565 S
C590 H602 0.956 . S
C590 H603 0.961 . S
C590 H604 0.961 . S
C591 C588 1.539 . S
C591 H605 0.958 . S
C591 H606 0.961 . S
C591 H607 0.960 . S
H592 C576 0.931 . S
H593 C581 0.929 . S
H594 C582 0.960 . S
H595 C582 0.962 . S
H596 C582 0.960 . S
H597 C583 0.961 . S
H598 C583 0.961 1_554 S
H599 C583 0.961 . S
H600 C584 0.931 . S
H601 C589 0.930 . S
H602 C590 0.956 . S
H603 C590 0.961 . S
H604 C590 0.961 . S
H605 C591 0.958 . S
H606 C591 0.961 . S
H607 C591 0.960 . S
C608 C609 1.391 . S
C608 C610 1.394 . S
C608 H624 0.931 . S
C609 C608 1.391 . S
C609 C613 1.376 . S
C610 C608 1.394 . S
C610 C611 1.369 . S
C610 C614 1.531 1_455 S
C611 C610 1.369 . S
C611 C612 1.410 . S
C611 C619 1.503 1_455 S
C612 C611 1.410 . S
C612 C613 1.392 . S
C612 C615 1.511 . S
C613 C609 1.376 . S
C613 C612 1.392 . S
C613 H625 0.929 . S
C614 C610 1.531 1_655 S
C614 H626 0.960 . S
C614 H627 0.962 . S
C614 H628 0.960 . S
C615 C612 1.511 . S
C615 H629 0.961 1_554 S
C615 H630 0.960 1_554 S
C615 H631 0.961 . S
C616 C617 1.370 . S
C616 C618 1.363 . S
C616 H632 0.931 1_554 S
C617 C616 1.370 . S
C617 C621 1.408 . S
C618 C616 1.363 . S
C618 C619 1.370 . S
C618 C622 1.524 1_554 S
C619 C611 1.503 1_655 S
C619 C618 1.370 . S
C619 C620 1.403 . S
C620 C619 1.403 . S
C620 C621 1.404 . S
C620 C623 1.539 1_655 S
C621 C617 1.408 . S
C621 C620 1.404 . S
C621 H633 0.930 . S
C622 C618 1.524 1_556 S
C622 H634 0.956 . S
C622 H635 0.961 . S
C622 H636 0.961 . S
C623 C620 1.539 1_455 S
C623 H637 0.957 1_455 S
C623 H638 0.961 . S
C623 H639 0.960 . S
H624 C608 0.931 . S
H625 C613 0.929 . S
H626 C614 0.960 . S
H627 C614 0.962 . S
H628 C614 0.960 . S
H629 C615 0.961 1_556 S
H630 C615 0.960 1_556 S
H631 C615 0.961 . S
H632 C616 0.931 1_556 S
H633 C621 0.930 . S
H634 C622 0.956 . S
H635 C622 0.961 . S
H636 C622 0.961 . S
H637 C623 0.957 1_655 S
H638 C623 0.961 . S
H639 C623 0.960 . S
C640 C641 1.391 . S
C640 C642 1.394 . S
C640 H656 0.931 . S
C641 C640 1.391 . S
C641 C645 1.376 . S
C642 C640 1.394 . S
C642 C643 1.369 . S
C642 C646 1.531 . S
C643 C642 1.369 . S
C643 C644 1.410 . S
C643 C651 1.503 . S
C644 C643 1.410 . S
C644 C645 1.392 . S
C644 C647 1.511 . S
C645 C641 1.376 . S
C645 C644 1.392 . S
C645 H657 0.929 . S
C646 C642 1.531 . S
C646 H658 0.960 . S
C646 H659 0.962 . S
C646 H660 0.960 . S
C647 C644 1.511 . S
C647 H661 0.961 . S
C647 H662 0.961 . S
C647 H663 0.961 . S
C648 C649 1.370 . S
C648 C650 1.363 . S
C648 H664 0.931 . S
C649 C648 1.370 . S
C649 C653 1.408 . S
C650 C648 1.363 . S
C650 C651 1.370 . S
C650 C654 1.524 . S
C651 C643 1.503 . S
C651 C650 1.370 . S
C651 C652 1.403 . S
C652 C651 1.403 . S
C652 C653 1.404 . S
C652 C655 1.539 . S
C653 C649 1.408 . S
C653 C652 1.404 . S
C653 H665 0.930 . S
C654 C650 1.524 . S
C654 H666 0.956 . S
C654 H667 0.961 . S
C654 H668 0.961 . S
C655 C652 1.539 . S
C655 H669 0.958 . S
C655 H670 0.961 . S
C655 H671 0.960 . S
H656 C640 0.931 . S
H657 C645 0.929 . S
H658 C646 0.960 . S
H659 C646 0.962 . S
H660 C646 0.960 . S
H661 C647 0.961 . S
H662 C647 0.961 . S
H663 C647 0.961 . S
H664 C648 0.931 . S
H665 C653 0.930 . S
H666 C654 0.956 . S
H667 C654 0.961 . S
H668 C654 0.961 . S
H669 C655 0.958 . S
H670 C655 0.961 . S
H671 C655 0.960 . S
C672 C673 1.391 . S
C672 C674 1.394 . S
C672 H688 0.931 . S
C673 C672 1.391 . S
C673 C677 1.376 . S
C674 C672 1.394 . S
C674 C675 1.369 . S
C674 C678 1.531 . S
C675 C674 1.369 . S
C675 C676 1.410 . S
C675 C683 1.503 1_545 S
C676 C675 1.410 . S
C676 C677 1.392 . S
C676 C679 1.511 1_545 S
C677 C673 1.376 . S
C677 C676 1.392 . S
C677 H689 0.929 . S
C678 C674 1.531 . S
C678 H690 0.960 . S
C678 H691 0.962 . S
C678 H692 0.960 . S
C679 C676 1.511 1_565 S
C679 H693 0.961 . S
C679 H694 0.961 . S
C679 H695 0.961 . S
C680 C681 1.370 . S
C680 C682 1.363 . S
C680 H696 0.931 . S
C681 C680 1.370 . S
C681 C685 1.408 . S
C682 C680 1.363 . S
C682 C683 1.370 . S
C682 C686 1.524 . S
C683 C675 1.503 1_565 S
C683 C682 1.370 . S
C683 C684 1.403 . S
C684 C683 1.403 . S
C684 C685 1.404 . S
C684 C687 1.539 . S
C685 C681 1.408 . S
C685 C684 1.404 . S
C685 H697 0.930 . S
C686 C682 1.524 . S
C686 H698 0.956 1_565 S
C686 H699 0.961 . S
C686 H700 0.961 . S
C687 C684 1.539 . S
C687 H701 0.958 . S
C687 H702 0.961 . S
C687 H703 0.960 . S
H688 C672 0.931 . S
H689 C677 0.929 . S
H690 C678 0.960 . S
H691 C678 0.962 . S
H692 C678 0.960 . S
H693 C679 0.961 . S
H694 C679 0.961 . S
H695 C679 0.961 . S
H696 C680 0.931 . S
H697 C685 0.930 . S
H698 C686 0.956 1_545 S
H699 C686 0.961 . S
H700 C686 0.961 . S
H701 C687 0.958 . S
H702 C687 0.961 . S
H703 C687 0.960 . S
C704 C705 1.391 . S
C704 C706 1.393 1_545 S
C704 H720 0.931 . S
C705 C704 1.391 . S
C705 C709 1.376 . S
C706 C704 1.393 1_565 S
C706 C707 1.369 1_565 S
C706 C710 1.531 . S
C707 C706 1.369 1_545 S
C707 C708 1.410 . S
C707 C715 1.503 1_445 S
C708 C707 1.410 . S
C708 C709 1.392 . S
C708 C711 1.511 1_455 S
C709 C705 1.376 . S
C709 C708 1.392 . S
C709 H721 0.929 . S
C710 C706 1.531 . S
C710 H722 0.960 . S
C710 H723 0.962 . S
C710 H724 0.960 . S
C711 C708 1.511 1_655 S
C711 H725 0.961 . S
C711 H726 0.961 . S
C711 H727 0.961 . S
C712 C713 1.370 . S
C712 C714 1.363 . S
C712 H728 0.931 . S
C713 C712 1.370 . S
C713 C717 1.408 . S
C714 C712 1.363 . S
C714 C715 1.370 . S
C714 C718 1.524 . S
C715 C707 1.503 1_665 S
C715 C714 1.370 . S
C715 C716 1.403 . S
C716 C715 1.403 . S
C716 C717 1.404 . S
C716 C719 1.539 . S
C717 C713 1.408 . S
C717 C716 1.404 . S
C717 H729 0.930 . S
C718 C714 1.524 . S
C718 H730 0.956 1_655 S
C718 H731 0.961 1_565 S
C718 H732 0.961 . S
C719 C716 1.539 . S
C719 H733 0.958 . S
C719 H734 0.961 . S
C719 H735 0.960 1_565 S
H720 C704 0.931 . S
H721 C709 0.929 . S
H722 C710 0.960 . S
H723 C710 0.962 . S
H724 C710 0.960 . S
H725 C711 0.961 . S
H726 C711 0.961 . S
H727 C711 0.961 . S
H728 C712 0.931 . S
H729 C717 0.930 . S
H730 C718 0.956 1_455 S
H731 C718 0.961 1_545 S
H732 C718 0.961 . S
H733 C719 0.958 . S
H734 C719 0.961 . S
H735 C719 0.960 1_545 S
C736 C737 1.391 . S
C736 C738 1.394 . S
C736 H752 0.931 . S
C737 C736 1.391 . S
C737 C741 1.376 . S
C738 C736 1.394 . S
C738 C739 1.369 . S
C738 C742 1.531 . S
C739 C738 1.369 . S
C739 C740 1.410 . S
C739 C747 1.503 . S
C740 C739 1.410 . S
C740 C741 1.392 . S
C740 C743 1.511 . S
C741 C737 1.376 . S
C741 C740 1.392 . S
C741 H753 0.929 . S
C742 C738 1.531 . S
C742 H754 0.960 . S
C742 H755 0.962 . S
C742 H756 0.960 . S
C743 C740 1.511 . S
C743 H757 0.961 . S
C743 H758 0.961 . S
C743 H759 0.961 . S
C744 C745 1.370 . S
C744 C746 1.363 . S
C744 H760 0.931 . S
C745 C744 1.370 . S
C745 C749 1.408 . S
C746 C744 1.363 . S
C746 C747 1.370 . S
C746 C750 1.524 . S
C747 C739 1.503 . S
C747 C746 1.370 . S
C747 C748 1.403 . S
C748 C747 1.403 . S
C748 C749 1.404 . S
C748 C751 1.539 . S
C749 C745 1.408 . S
C749 C748 1.404 . S
C749 H761 0.930 . S
C750 C746 1.524 . S
C750 H762 0.956 . S
C750 H763 0.961 . S
C750 H764 0.961 . S
C751 C748 1.539 . S
C751 H765 0.958 . S
C751 H766 0.961 . S
C751 H767 0.960 . S
H752 C736 0.931 . S
H753 C741 0.929 . S
H754 C742 0.960 . S
H755 C742 0.962 . S
H756 C742 0.960 . S
H757 C743 0.961 . S
H758 C743 0.961 . S
H759 C743 0.961 . S
H760 C744 0.931 . S
H761 C749 0.930 . S
H762 C750 0.956 . S
H763 C750 0.961 . S
H764 C750 0.961 . S
H765 C751 0.958 . S
H766 C751 0.961 . S
H767 C751 0.960 . S
C768 C769 1.391 . S
C768 C770 1.394 . S
C768 H784 0.931 . S
C769 C768 1.391 . S
C769 C773 1.376 . S
C770 C768 1.394 . S
C770 C771 1.369 . S
C770 C774 1.531 . S
C771 C770 1.369 . S
C771 C772 1.410 . S
C771 C779 1.503 . S
C772 C771 1.410 . S
C772 C773 1.392 . S
C772 C775 1.511 . S
C773 C769 1.376 . S
C773 C772 1.392 . S
C773 H785 0.929 . S
C774 C770 1.531 . S
C774 H786 0.960 . S
C774 H787 0.962 . S
C774 H788 0.960 . S
C775 C772 1.511 . S
C775 H789 0.961 . S
C775 H790 0.961 . S
C775 H791 0.961 . S
C776 C777 1.370 . S
C776 C778 1.363 . S
C776 H792 0.931 . S
C777 C776 1.370 . S
C777 C781 1.408 . S
C778 C776 1.363 . S
C778 C779 1.370 . S
C778 C782 1.524 . S
C779 C771 1.503 . S
C779 C778 1.370 . S
C779 C780 1.403 . S
C780 C779 1.403 . S
C780 C781 1.404 . S
C780 C783 1.539 . S
C781 C777 1.408 . S
C781 C780 1.404 . S
C781 H793 0.930 . S
C782 C778 1.524 . S
C782 H794 0.956 . S
C782 H795 0.961 . S
C782 H796 0.961 . S
C783 C780 1.539 . S
C783 H797 0.958 . S
C783 H798 0.961 . S
C783 H799 0.960 . S
H784 C768 0.931 . S
H785 C773 0.929 . S
H786 C774 0.960 . S
H787 C774 0.962 . S
H788 C774 0.960 . S
H789 C775 0.961 . S
H790 C775 0.961 . S
H791 C775 0.961 . S
H792 C776 0.931 . S
H793 C781 0.930 . S
H794 C782 0.956 . S
H795 C782 0.961 . S
H796 C782 0.961 . S
H797 C783 0.958 . S
H798 C783 0.961 . S
H799 C783 0.960 . S
C800 C801 1.391 . S
C800 C802 1.394 . S
C800 H816 0.931 . S
C801 C800 1.391 . S
C801 C805 1.376 . S
C802 C800 1.394 . S
C802 C803 1.369 . S
C802 C806 1.531 . S
C803 C802 1.369 . S
C803 C804 1.410 . S
C803 C811 1.503 . S
C804 C803 1.410 . S
C804 C805 1.392 . S
C804 C807 1.511 . S
C805 C801 1.376 . S
C805 C804 1.392 . S
C805 H817 0.929 . S
C806 C802 1.531 . S
C806 H818 0.960 . S
C806 H819 0.962 . S
C806 H820 0.960 . S
C807 C804 1.511 . S
C807 H821 0.961 . S
C807 H822 0.961 . S
C807 H823 0.961 . S
C808 C809 1.370 . S
C808 C810 1.363 . S
C808 H824 0.931 . S
C809 C808 1.370 . S
C809 C813 1.408 . S
C810 C808 1.363 . S
C810 C811 1.370 1_556 S
C810 C814 1.524 1_556 S
C811 C803 1.503 . S
C811 C810 1.370 1_554 S
C811 C812 1.403 1_554 S
C812 C811 1.403 1_556 S
C812 C813 1.404 . S
C812 C815 1.539 . S
C813 C809 1.408 . S
C813 C812 1.404 . S
C813 H825 0.930 . S
C814 C810 1.524 1_554 S
C814 H826 0.956 . S
C814 H827 0.961 . S
C814 H828 0.961 . S
C815 C812 1.539 . S
C815 H829 0.958 . S
C815 H830 0.961 . S
C815 H831 0.960 1_556 S
H816 C800 0.931 . S
H817 C805 0.929 . S
H818 C806 0.960 . S
H819 C806 0.962 . S
H820 C806 0.960 . S
H821 C807 0.961 . S
H822 C807 0.961 . S
H823 C807 0.961 . S
H824 C808 0.931 . S
H825 C813 0.930 . S
H826 C814 0.956 . S
H827 C814 0.961 . S
H828 C814 0.961 . S
H829 C815 0.958 . S
H830 C815 0.961 . S
H831 C815 0.960 1_554 S
C832 C833 1.391 . S
C832 C834 1.394 . S
C832 H848 0.931 . S
C833 C832 1.391 . S
C833 C837 1.376 . S
C834 C832 1.394 . S
C834 C835 1.369 . S
C834 C838 1.531 . S
C835 C834 1.369 . S
C835 C836 1.410 . S
C835 C843 1.503 . S
C836 C835 1.410 . S
C836 C837 1.392 . S
C836 C839 1.511 . S
C837 C833 1.376 . S
C837 C836 1.392 . S
C837 H849 0.929 . S
C838 C834 1.531 . S
C838 H850 0.960 . S
C838 H851 0.962 . S
C838 H852 0.960 . S
C839 C836 1.511 . S
C839 H853 0.961 . S
C839 H854 0.961 . S
C839 H855 0.961 . S
C840 C841 1.370 . S
C840 C842 1.363 . S
C840 H856 0.931 . S
C841 C840 1.370 . S
C841 C845 1.408 . S
C842 C840 1.363 . S
C842 C843 1.370 . S
C842 C846 1.524 . S
C843 C835 1.503 . S
C843 C842 1.370 . S
C843 C844 1.403 . S
C844 C843 1.403 . S
C844 C845 1.404 . S
C844 C847 1.539 . S
C845 C841 1.408 . S
C845 C844 1.404 . S
C845 H857 0.930 . S
C846 C842 1.524 . S
C846 H858 0.956 . S
C846 H859 0.961 . S
C846 H860 0.961 . S
C847 C844 1.539 . S
C847 H861 0.958 . S
C847 H862 0.961 . S
C847 H863 0.960 . S
H848 C832 0.931 . S
H849 C837 0.929 . S
H850 C838 0.960 . S
H851 C838 0.962 . S
H852 C838 0.960 . S
H853 C839 0.961 . S
H854 C839 0.961 . S
H855 C839 0.961 . S
H856 C840 0.931 . S
H857 C845 0.930 . S
H858 C846 0.956 . S
H859 C846 0.961 . S
H860 C846 0.961 . S
H861 C847 0.958 . S
H862 C847 0.961 . S
H863 C847 0.960 . S
C864 C865 1.391 . S
C864 C866 1.394 . S
C864 H880 0.931 . S
C865 C864 1.391 . S
C865 C869 1.376 . S
C866 C864 1.394 . S
C866 C867 1.369 . S
C866 C870 1.531 . S
C867 C866 1.369 . S
C867 C868 1.410 . S
C867 C875 1.503 . S
C868 C867 1.410 . S
C868 C869 1.392 . S
C868 C871 1.511 . S
C869 C865 1.376 . S
C869 C868 1.392 . S
C869 H881 0.929 . S
C870 C866 1.531 . S
C870 H882 0.960 . S
C870 H883 0.962 . S
C870 H884 0.960 . S
C871 C868 1.511 . S
C871 H885 0.961 . S
C871 H886 0.961 . S
C871 H887 0.961 . S
C872 C873 1.370 . S
C872 C874 1.363 . S
C872 H888 0.931 . S
C873 C872 1.370 . S
C873 C877 1.408 . S
C874 C872 1.363 . S
C874 C875 1.370 . S
C874 C878 1.524 . S
C875 C867 1.503 . S
C875 C874 1.370 . S
C875 C876 1.403 . S
C876 C875 1.403 . S
C876 C877 1.404 . S
C876 C879 1.539 . S
C877 C873 1.408 . S
C877 C876 1.404 . S
C877 H889 0.930 . S
C878 C874 1.524 . S
C878 H890 0.956 . S
C878 H891 0.961 . S
C878 H892 0.961 . S
C879 C876 1.539 . S
C879 H893 0.958 . S
C879 H894 0.961 . S
C879 H895 0.960 . S
H880 C864 0.931 . S
H881 C869 0.929 . S
H882 C870 0.960 . S
H883 C870 0.962 . S
H884 C870 0.960 . S
H885 C871 0.961 . S
H886 C871 0.961 . S
H887 C871 0.961 . S
H888 C872 0.931 . S
H889 C877 0.930 . S
H890 C878 0.956 . S
H891 C878 0.961 . S
H892 C878 0.961 . S
H893 C879 0.958 . S
H894 C879 0.961 . S
H895 C879 0.960 . S
C896 C897 1.391 . S
C896 C898 1.394 . S
C896 H912 0.931 . S
C897 C896 1.391 . S
C897 C901 1.376 . S
C898 C896 1.394 . S
C898 C899 1.369 . S
C898 C902 1.531 . S
C899 C898 1.369 . S
C899 C900 1.410 . S
C899 C907 1.503 . S
C900 C899 1.410 . S
C900 C901 1.392 . S
C900 C903 1.511 . S
C901 C897 1.376 . S
C901 C900 1.392 . S
C901 H913 0.929 . S
C902 C898 1.531 . S
C902 H914 0.960 . S
C902 H915 0.962 . S
C902 H916 0.960 . S
C903 C900 1.511 . S
C903 H917 0.961 . S
C903 H918 0.961 . S
C903 H919 0.961 . S
C904 C905 1.370 . S
C904 C906 1.363 . S
C904 H920 0.931 . S
C905 C904 1.370 . S
C905 C909 1.408 . S
C906 C904 1.363 . S
C906 C907 1.370 1_556 S
C906 C910 1.524 1_556 S
C907 C899 1.503 . S
C907 C906 1.370 1_554 S
C907 C908 1.403 1_554 S
C908 C907 1.403 1_556 S
C908 C909 1.404 . S
C908 C911 1.539 1_556 S
C909 C905 1.408 . S
C909 C908 1.404 . S
C909 H921 0.930 . S
C910 C906 1.524 1_554 S
C910 H922 0.956 . S
C910 H923 0.961 . S
C910 H924 0.961 1_554 S
C911 C908 1.539 1_554 S
C911 H925 0.958 . S
C911 H926 0.961 1_554 S
C911 H927 0.960 . S
H912 C896 0.931 . S
H913 C901 0.929 . S
H914 C902 0.960 . S
H915 C902 0.962 . S
H916 C902 0.960 . S
H917 C903 0.961 . S
H918 C903 0.961 . S
H919 C903 0.961 . S
H920 C904 0.931 . S
H921 C909 0.930 . S
H922 C910 0.956 . S
H923 C910 0.961 . S
H924 C910 0.961 1_556 S
H925 C911 0.958 . S
H926 C911 0.961 1_556 S
H927 C911 0.960 . S
C928 C929 1.391 . S
C928 C930 1.394 . S
C928 H944 0.931 . S
C929 C928 1.391 . S
C929 C933 1.376 . S
C930 C928 1.394 . S
C930 C931 1.369 . S
C930 C934 1.531 . S
C931 C930 1.369 . S
C931 C932 1.410 . S
C931 C939 1.503 . S
C932 C931 1.410 . S
C932 C933 1.392 . S
C932 C935 1.511 . S
C933 C929 1.376 . S
C933 C932 1.392 . S
C933 H945 0.929 . S
C934 C930 1.531 . S
C934 H946 0.960 . S
C934 H947 0.962 . S
C934 H948 0.960 . S
C935 C932 1.511 . S
C935 H949 0.961 . S
C935 H950 0.961 . S
C935 H951 0.961 . S
C936 C937 1.370 . S
C936 C938 1.363 . S
C936 H952 0.931 . S
C937 C936 1.370 . S
C937 C941 1.408 . S
C938 C936 1.363 . S
C938 C939 1.370 . S
C938 C942 1.524 . S
C939 C931 1.503 . S
C939 C938 1.370 . S
C939 C940 1.403 . S
C940 C939 1.403 . S
C940 C941 1.404 . S
C940 C943 1.539 . S
C941 C937 1.408 . S
C941 C940 1.404 . S
C941 H953 0.930 . S
C942 C938 1.524 . S
C942 H954 0.956 . S
C942 H955 0.961 . S
C942 H956 0.961 . S
C943 C940 1.539 . S
C943 H957 0.958 . S
C943 H958 0.961 . S
C943 H959 0.960 . S
H944 C928 0.931 . S
H945 C933 0.929 . S
H946 C934 0.960 . S
H947 C934 0.962 . S
H948 C934 0.960 . S
H949 C935 0.961 . S
H950 C935 0.961 . S
H951 C935 0.961 . S
H952 C936 0.931 . S
H953 C941 0.930 . S
H954 C942 0.956 . S
H955 C942 0.961 . S
H956 C942 0.961 . S
H957 C943 0.958 . S
H958 C943 0.961 . S
H959 C943 0.960 . S
C960 C961 1.391 . S
C960 C962 1.394 . S
C960 H976 0.931 . S
C961 C960 1.391 . S
C961 C965 1.376 . S
C962 C960 1.394 . S
C962 C963 1.369 . S
C962 C966 1.531 . S
C963 C962 1.369 . S
C963 C964 1.410 . S
C963 C971 1.503 . S
C964 C963 1.410 . S
C964 C965 1.392 . S
C964 C967 1.511 . S
C965 C961 1.376 . S
C965 C964 1.392 . S
C965 H977 0.929 . S
C966 C962 1.531 . S
C966 H978 0.960 . S
C966 H979 0.962 . S
C966 H980 0.960 . S
C967 C964 1.511 . S
C967 H981 0.961 . S
C967 H982 0.961 . S
C967 H983 0.961 . S
C968 C969 1.370 . S
C968 C970 1.363 . S
C968 H984 0.931 . S
C969 C968 1.370 . S
C969 C973 1.408 . S
C970 C968 1.363 . S
C970 C971 1.370 . S
C970 C974 1.524 . S
C971 C963 1.503 . S
C971 C970 1.370 . S
C971 C972 1.403 . S
C972 C971 1.403 . S
C972 C973 1.404 . S
C972 C975 1.539 . S
C973 C969 1.408 . S
C973 C972 1.404 . S
C973 H985 0.930 . S
C974 C970 1.524 . S
C974 H986 0.956 . S
C974 H987 0.961 . S
C974 H988 0.961 . S
C975 C972 1.539 . S
C975 H989 0.958 . S
C975 H990 0.961 . S
C975 H991 0.960 . S
H976 C960 0.931 . S
H977 C965 0.929 . S
H978 C966 0.960 . S
H979 C966 0.962 . S
H980 C966 0.960 . S
H981 C967 0.961 . S
H982 C967 0.961 . S
H983 C967 0.961 . S
H984 C968 0.931 . S
H985 C973 0.930 . S
H986 C974 0.956 . S
H987 C974 0.961 . S
H988 C974 0.961 . S
H989 C975 0.958 . S
H990 C975 0.961 . S
H991 C975 0.960 . S
C992 C993 1.391 . S
C992 C994 1.394 . S
C992 H1008 0.931 . S
C993 C992 1.391 . S
C993 C997 1.376 . S
C994 C992 1.394 . S
C994 C995 1.369 1_556 S
C994 C998 1.531 1_556 S
C995 C994 1.369 1_554 S
C995 C996 1.410 1_554 S
C995 C1003 1.503 . S
C996 C995 1.410 1_556 S
C996 C997 1.392 . S
C996 C999 1.511 1_556 S
C997 C993 1.376 . S
C997 C996 1.392 . S
C997 H1009 0.929 . S
C998 C994 1.531 1_554 S
C998 H1010 0.960 . S
C998 H1011 0.962 . S
C998 H1012 0.960 1_554 S
C999 C996 1.511 1_554 S
C999 H1013 0.961 1_554 S
C999 H1014 0.961 . S
C999 H1015 0.961 . S
C1000 C1001 1.370 . S
C1000 C1002 1.363 . S
C1000 H1016 0.931 . S
C1001 C1000 1.370 . S
C1001 C1005 1.408 . S
C1002 C1000 1.363 . S
C1002 C1003 1.370 . S
C1002 C1006 1.524 . S
C1003 C995 1.503 . S
C1003 C1002 1.370 . S
C1003 C1004 1.403 . S
C1004 C1003 1.403 . S
C1004 C1005 1.404 . S
C1004 C1007 1.539 . S
C1005 C1001 1.408 . S
C1005 C1004 1.404 . S
C1005 H1017 0.930 . S
C1006 C1002 1.524 . S
C1006 H1018 0.956 . S
C1006 H1019 0.961 . S
C1006 H1020 0.961 . S
C1007 C1004 1.539 . S
C1007 H1021 0.958 . S
C1007 H1022 0.961 . S
C1007 H1023 0.960 . S
H1008 C992 0.931 . S
H1009 C997 0.929 . S
H1010 C998 0.960 . S
H1011 C998 0.962 . S
H1012 C998 0.960 1_556 S
H1013 C999 0.961 1_556 S
H1014 C999 0.961 . S
H1015 C999 0.961 . S
H1016 C1000 0.931 . S
H1017 C1005 0.930 . S
H1018 C1006 0.956 . S
H1019 C1006 0.961 . S
H1020 C1006 0.961 . S
H1021 C1007 0.958 . S
H1022 C1007 0.961 . S
H1023 C1007 0.960 . S
C1024 C1025 1.391 . S
C1024 C1026 1.394 . S
C1024 H1040 0.931 . S
C1025 C1024 1.391 . S
C1025 C1029 1.376 . S
C1026 C1024 1.394 . S
C1026 C1027 1.369 . S
C1026 C1030 1.531 . S
C1027 C1026 1.369 . S
C1027 C1028 1.410 . S
C1027 C1035 1.503 . S
C1028 C1027 1.410 . S
C1028 C1029 1.392 . S
C1028 C1031 1.511 . S
C1029 C1025 1.376 . S
C1029 C1028 1.392 . S
C1029 H1041 0.929 . S
C1030 C1026 1.531 . S
C1030 H1042 0.960 . S
C1030 H1043 0.962 . S
C1030 H1044 0.960 . S
C1031 C1028 1.511 . S
C1031 H1045 0.961 . S
C1031 H1046 0.961 . S
C1031 H1047 0.961 . S
C1032 C1033 1.370 . S
C1032 C1034 1.363 . S
C1032 H1048 0.931 . S
C1033 C1032 1.370 . S
C1033 C1037 1.408 . S
C1034 C1032 1.363 . S
C1034 C1035 1.370 . S
C1034 C1038 1.524 . S
C1035 C1027 1.503 . S
C1035 C1034 1.370 . S
C1035 C1036 1.403 . S
C1036 C1035 1.403 . S
C1036 C1037 1.404 . S
C1036 C1039 1.539 . S
C1037 C1033 1.408 . S
C1037 C1036 1.404 . S
C1037 H1049 0.930 . S
C1038 C1034 1.524 . S
C1038 H1050 0.956 . S
C1038 H1051 0.961 . S
C1038 H1052 0.961 . S
C1039 C1036 1.539 . S
C1039 H1053 0.958 . S
C1039 H1054 0.961 . S
C1039 H1055 0.960 . S
H1040 C1024 0.931 . S
H1041 C1029 0.929 . S
H1042 C1030 0.960 . S
H1043 C1030 0.962 . S
H1044 C1030 0.960 . S
H1045 C1031 0.961 . S
H1046 C1031 0.961 . S
H1047 C1031 0.961 . S
H1048 C1032 0.931 . S
H1049 C1037 0.930 . S
H1050 C1038 0.956 . S
H1051 C1038 0.961 . S
H1052 C1038 0.961 . S
H1053 C1039 0.958 . S
H1054 C1039 0.961 . S
H1055 C1039 0.960 . S
C1056 C1057 1.391 . S
C1056 C1058 1.394 . S
C1056 H1072 0.931 . S
C1057 C1056 1.391 . S
C1057 C1061 1.376 . S
C1058 C1056 1.394 . S
C1058 C1059 1.369 . S
C1058 C1062 1.531 . S
C1059 C1058 1.369 . S
C1059 C1060 1.410 . S
C1059 C1067 1.503 . S
C1060 C1059 1.410 . S
C1060 C1061 1.392 . S
C1060 C1063 1.511 . S
C1061 C1057 1.376 . S
C1061 C1060 1.392 . S
C1061 H1073 0.929 . S
C1062 C1058 1.531 . S
C1062 H1074 0.960 . S
C1062 H1075 0.962 . S
C1062 H1076 0.960 . S
C1063 C1060 1.511 . S
C1063 H1077 0.961 . S
C1063 H1078 0.961 . S
C1063 H1079 0.961 . S
C1064 C1065 1.370 . S
C1064 C1066 1.363 . S
C1064 H1080 0.931 . S
C1065 C1064 1.370 . S
C1065 C1069 1.408 . S
C1066 C1064 1.363 . S
C1066 C1067 1.370 . S
C1066 C1070 1.524 . S
C1067 C1059 1.503 . S
C1067 C1066 1.370 . S
C1067 C1068 1.403 . S
C1068 C1067 1.403 . S
C1068 C1069 1.404 . S
C1068 C1071 1.539 . S
C1069 C1065 1.408 . S
C1069 C1068 1.404 . S
C1069 H1081 0.930 . S
C1070 C1066 1.524 . S
C1070 H1082 0.956 . S
C1070 H1083 0.961 . S
C1070 H1084 0.961 . S
C1071 C1068 1.539 . S
C1071 H1085 0.958 . S
C1071 H1086 0.961 . S
C1071 H1087 0.960 . S
H1072 C1056 0.931 . S
H1073 C1061 0.929 . S
H1074 C1062 0.960 . S
H1075 C1062 0.962 . S
H1076 C1062 0.960 . S
H1077 C1063 0.961 . S
H1078 C1063 0.961 . S
H1079 C1063 0.961 . S
H1080 C1064 0.931 . S
H1081 C1069 0.930 . S
H1082 C1070 0.956 . S
H1083 C1070 0.961 . S
H1084 C1070 0.961 . S
H1085 C1071 0.958 . S
H1086 C1071 0.961 . S
H1087 C1071 0.960 . S
C1088 C1089 1.391 . S
C1088 C1090 1.394 . S
C1088 H1104 0.931 . S
C1089 C1088 1.391 . S
C1089 C1093 1.376 . S
C1090 C1088 1.394 . S
C1090 C1091 1.369 . S
C1090 C1094 1.531 . S
C1091 C1090 1.369 . S
C1091 C1092 1.410 . S
C1091 C1099 1.503 . S
C1092 C1091 1.410 . S
C1092 C1093 1.392 . S
C1092 C1095 1.511 . S
C1093 C1089 1.376 . S
C1093 C1092 1.392 . S
C1093 H1105 0.929 . S
C1094 C1090 1.531 . S
C1094 H1106 0.960 . S
C1094 H1107 0.962 . S
C1094 H1108 0.960 . S
C1095 C1092 1.511 . S
C1095 H1109 0.961 . S
C1095 H1110 0.961 . S
C1095 H1111 0.961 . S
C1096 C1097 1.370 . S
C1096 C1098 1.363 . S
C1096 H1112 0.931 . S
C1097 C1096 1.370 . S
C1097 C1101 1.408 . S
C1098 C1096 1.363 . S
C1098 C1099 1.370 . S
C1098 C1102 1.524 . S
C1099 C1091 1.503 . S
C1099 C1098 1.370 . S
C1099 C1100 1.403 . S
C1100 C1099 1.403 . S
C1100 C1101 1.404 . S
C1100 C1103 1.539 . S
C1101 C1097 1.408 . S
C1101 C1100 1.404 . S
C1101 H1113 0.930 . S
C1102 C1098 1.524 . S
C1102 H1114 0.956 . S
C1102 H1115 0.961 . S
C1102 H1116 0.961 . S
C1103 C1100 1.539 . S
C1103 H1117 0.958 . S
C1103 H1118 0.961 . S
C1103 H1119 0.960 . S
H1104 C1088 0.931 . S
H1105 C1093 0.929 . S
H1106 C1094 0.960 . S
H1107 C1094 0.962 . S
H1108 C1094 0.960 . S
H1109 C1095 0.961 . S
H1110 C1095 0.961 . S
H1111 C1095 0.961 . S
H1112 C1096 0.931 . S
H1113 C1101 0.930 . S
H1114 C1102 0.956 . S
H1115 C1102 0.961 . S
H1116 C1102 0.961 . S
H1117 C1103 0.958 . S
H1118 C1103 0.961 . S
H1119 C1103 0.960 . S
C1120 C1121 1.391 . S
C1120 C1122 1.394 . S
C1120 H1136 0.931 . S
C1121 C1120 1.391 . S
C1121 C1125 1.376 . S
C1122 C1120 1.394 . S
C1122 C1123 1.369 . S
C1122 C1126 1.531 . S
C1123 C1122 1.369 . S
C1123 C1124 1.410 . S
C1123 C1131 1.503 . S
C1124 C1123 1.410 . S
C1124 C1125 1.392 . S
C1124 C1127 1.511 . S
C1125 C1121 1.376 . S
C1125 C1124 1.392 . S
C1125 H1137 0.929 . S
C1126 C1122 1.531 . S
C1126 H1138 0.960 . S
C1126 H1139 0.962 . S
C1126 H1140 0.960 . S
C1127 C1124 1.511 . S
C1127 H1141 0.961 . S
C1127 H1142 0.961 . S
C1127 H1143 0.961 . S
C1128 C1129 1.370 . S
C1128 C1130 1.363 . S
C1128 H1144 0.931 . S
C1129 C1128 1.370 . S
C1129 C1133 1.408 . S
C1130 C1128 1.363 . S
C1130 C1131 1.370 . S
C1130 C1134 1.524 . S
C1131 C1123 1.503 . S
C1131 C1130 1.370 . S
C1131 C1132 1.403 . S
C1132 C1131 1.403 . S
C1132 C1133 1.404 . S
C1132 C1135 1.539 . S
C1133 C1129 1.408 . S
C1133 C1132 1.404 . S
C1133 H1145 0.930 . S
C1134 C1130 1.524 . S
C1134 H1146 0.956 . S
C1134 H1147 0.961 . S
C1134 H1148 0.961 . S
C1135 C1132 1.539 . S
C1135 H1149 0.958 . S
C1135 H1150 0.961 . S
C1135 H1151 0.960 . S
H1136 C1120 0.931 . S
H1137 C1125 0.929 . S
H1138 C1126 0.960 . S
H1139 C1126 0.962 . S
H1140 C1126 0.960 . S
H1141 C1127 0.961 . S
H1142 C1127 0.961 . S
H1143 C1127 0.961 . S
H1144 C1128 0.931 . S
H1145 C1133 0.930 . S
H1146 C1134 0.956 . S
H1147 C1134 0.961 . S
H1148 C1134 0.961 . S
H1149 C1135 0.958 . S
H1150 C1135 0.961 . S
H1151 C1135 0.960 . S
C1152 C1153 1.391 . S
C1152 C1154 1.394 . S
C1152 H1168 0.931 . S
C1153 C1152 1.391 . S
C1153 C1157 1.376 . S
C1154 C1152 1.394 . S
C1154 C1155 1.369 . S
C1154 C1158 1.531 . S
C1155 C1154 1.369 . S
C1155 C1156 1.410 . S
C1155 C1163 1.503 . S
C1156 C1155 1.410 . S
C1156 C1157 1.392 . S
C1156 C1159 1.511 . S
C1157 C1153 1.376 . S
C1157 C1156 1.392 . S
C1157 H1169 0.929 . S
C1158 C1154 1.531 . S
C1158 H1170 0.960 . S
C1158 H1171 0.962 . S
C1158 H1172 0.960 . S
C1159 C1156 1.511 . S
C1159 H1173 0.961 . S
C1159 H1174 0.961 . S
C1159 H1175 0.961 . S
C1160 C1161 1.370 . S
C1160 C1162 1.363 . S
C1160 H1176 0.931 . S
C1161 C1160 1.370 . S
C1161 C1165 1.408 . S
C1162 C1160 1.363 . S
C1162 C1163 1.370 . S
C1162 C1166 1.524 . S
C1163 C1155 1.503 . S
C1163 C1162 1.370 . S
C1163 C1164 1.403 . S
C1164 C1163 1.403 . S
C1164 C1165 1.404 . S
C1164 C1167 1.539 . S
C1165 C1161 1.408 . S
C1165 C1164 1.404 . S
C1165 H1177 0.930 . S
C1166 C1162 1.524 . S
C1166 H1178 0.956 . S
C1166 H1179 0.961 . S
C1166 H1180 0.961 . S
C1167 C1164 1.539 . S
C1167 H1181 0.958 . S
C1167 H1182 0.961 . S
C1167 H1183 0.960 . S
H1168 C1152 0.931 . S
H1169 C1157 0.929 . S
H1170 C1158 0.960 . S
H1171 C1158 0.962 . S
H1172 C1158 0.960 . S
H1173 C1159 0.961 . S
H1174 C1159 0.961 . S
H1175 C1159 0.961 . S
H1176 C1160 0.931 . S
H1177 C1165 0.930 . S
H1178 C1166 0.956 . S
H1179 C1166 0.961 . S
H1180 C1166 0.961 . S
H1181 C1167 0.958 . S
H1182 C1167 0.961 . S
H1183 C1167 0.960 . S
C1184 C1185 1.391 . S
C1184 C1186 1.394 . S
C1184 H1200 0.931 . S
C1185 C1184 1.391 . S
C1185 C1189 1.376 . S
C1186 C1184 1.394 . S
C1186 C1187 1.369 . S
C1186 C1190 1.531 . S
C1187 C1186 1.369 . S
C1187 C1188 1.410 . S
C1187 C1195 1.503 . S
C1188 C1187 1.410 . S
C1188 C1189 1.392 . S
C1188 C1191 1.511 . S
C1189 C1185 1.376 . S
C1189 C1188 1.392 . S
C1189 H1201 0.929 . S
C1190 C1186 1.531 . S
C1190 H1202 0.960 . S
C1190 H1203 0.962 . S
C1190 H1204 0.960 . S
C1191 C1188 1.511 . S
C1191 H1205 0.961 . S
C1191 H1206 0.961 . S
C1191 H1207 0.961 . S
C1192 C1193 1.370 . S
C1192 C1194 1.363 . S
C1192 H1208 0.931 . S
C1193 C1192 1.370 . S
C1193 C1197 1.408 . S
C1194 C1192 1.363 . S
C1194 C1195 1.370 . S
C1194 C1198 1.524 . S
C1195 C1187 1.503 . S
C1195 C1194 1.370 . S
C1195 C1196 1.403 . S
C1196 C1195 1.403 . S
C1196 C1197 1.404 . S
C1196 C1199 1.539 . S
C1197 C1193 1.408 . S
C1197 C1196 1.404 . S
C1197 H1209 0.930 . S
C1198 C1194 1.524 . S
C1198 H1210 0.956 . S
C1198 H1211 0.961 . S
C1198 H1212 0.961 . S
C1199 C1196 1.539 . S
C1199 H1213 0.958 . S
C1199 H1214 0.961 . S
C1199 H1215 0.960 . S
H1200 C1184 0.931 . S
H1201 C1189 0.929 . S
H1202 C1190 0.960 . S
H1203 C1190 0.962 . S
H1204 C1190 0.960 . S
H1205 C1191 0.961 . S
H1206 C1191 0.961 . S
H1207 C1191 0.961 . S
H1208 C1192 0.931 . S
H1209 C1197 0.930 . S
H1210 C1198 0.956 . S
H1211 C1198 0.961 . S
H1212 C1198 0.961 . S
H1213 C1199 0.958 . S
H1214 C1199 0.961 . S
H1215 C1199 0.960 . S
C1216 C1217 1.391 . S
C1216 C1218 1.394 . S
C1216 H1232 0.931 . S
C1217 C1216 1.391 . S
C1217 C1221 1.376 . S
C1218 C1216 1.394 . S
C1218 C1219 1.369 . S
C1218 C1222 1.531 . S
C1219 C1218 1.369 . S
C1219 C1220 1.410 . S
C1219 C1227 1.503 . S
C1220 C1219 1.410 . S
C1220 C1221 1.392 . S
C1220 C1223 1.511 . S
C1221 C1217 1.376 . S
C1221 C1220 1.392 . S
C1221 H1233 0.929 . S
C1222 C1218 1.531 . S
C1222 H1234 0.960 . S
C1222 H1235 0.962 . S
C1222 H1236 0.960 . S
C1223 C1220 1.511 . S
C1223 H1237 0.961 . S
C1223 H1238 0.961 . S
C1223 H1239 0.961 . S
C1224 C1225 1.370 . S
C1224 C1226 1.363 . S
C1224 H1240 0.931 . S
C1225 C1224 1.370 . S
C1225 C1229 1.408 . S
C1226 C1224 1.363 . S
C1226 C1227 1.370 1_556 S
C1226 C1230 1.524 1_556 S
C1227 C1219 1.503 . S
C1227 C1226 1.370 1_554 S
C1227 C1228 1.403 1_554 S
C1228 C1227 1.403 1_556 S
C1228 C1229 1.404 . S
C1228 C1231 1.539 1_556 S
C1229 C1225 1.408 . S
C1229 C1228 1.404 . S
C1229 H1241 0.930 . S
C1230 C1226 1.524 1_554 S
C1230 H1242 0.956 . S
C1230 H1243 0.961 . S
C1230 H1244 0.961 1_554 S
C1231 C1228 1.539 1_554 S
C1231 H1245 0.958 . S
C1231 H1246 0.961 . S
C1231 H1247 0.960 . S
H1232 C1216 0.931 . S
H1233 C1221 0.929 . S
H1234 C1222 0.960 . S
H1235 C1222 0.962 . S
H1236 C1222 0.960 . S
H1237 C1223 0.961 . S
H1238 C1223 0.961 . S
H1239 C1223 0.961 . S
H1240 C1224 0.931 . S
H1241 C1229 0.930 . S
H1242 C1230 0.956 . S
H1243 C1230 0.961 . S
H1244 C1230 0.961 1_556 S
H1245 C1231 0.958 . S
H1246 C1231 0.961 . S
H1247 C1231 0.960 . S
C225 C97 2.086 . S
C233 C13 2.089 . S
C257 C111 2.103 . S
C265 C27 2.094 . S
C289 C41 2.103 . S
C297 C56 2.106 1_556 S
C321 C55 2.075 . S
C329 C83 2.096 . S
C353 C112 2.086 . S
C361 C197 2.089 1_556 S
C385 C223 2.107 . S
C393 C139 2.097 . S
C417 C141 2.079 . S
C425 C168 2.100 . S
C449 C155 2.088 . S
C457 C182 2.091 . S
C481 C12 2.010 . S
C489 C140 2.007 . S
C513 C26 2.006 . S
C521 C154 2.009 . S
C545 C40 2.035 . S
C553 C113 2.010 . S
C577 C54 2.030 . S
C585 C138 2.019 . S
C609 C57 2.009 . S
C617 C196 2.025 . S
C641 C222 2.030 . S
C649 C82 2.007 . S
C673 C96 2.023 . S
C681 C169 2.019 . S
C705 C183 2.018 . S
C713 C110 2.023 . S
C737 C195 0.674 . S
C745 C0 0.685 . S
C769 C14 0.687 . S
C777 C208 0.679 . S
C801 C210 0.713 . S
C809 C28 0.679 . S
C833 C181 0.713 . S
C841 C42 0.677 . S
C865 C166 0.700 . S
C873 C69 0.690 . S
C897 C70 0.678 . S
C905 C125 0.683 . S
C929 C84 0.708 . S
C937 C126 0.676 . S
C961 C98 0.690 . S
C969 C152 0.694 . S
C993 C194 1.742 . S
C1001 C1 1.729 . S
C1025 C15 1.733 . S
C1033 C209 1.736 . S
C1057 C29 1.738 . S
C1065 C211 1.734 . S
C1089 C180 1.727 . S
C1097 C43 1.732 . S
C1121 C167 1.721 . S
C1129 C68 1.740 . S
C1153 C124 1.723 . S
C1161 C71 1.734 . S
C1185 C85 1.739 . S
C1193 C127 1.729 . S
C1217 C153 1.718 . S
C1225 C99 1.737 . S
