# Generated by pormake.
# Topology une, (4)-cn, num edge types: 1
# Building blocks:
#     Node 0, Type 0, BuildingBlock: UXUYUI_clean_sbu_0, # of connection points: 4
#     Node 1, Type 0, BuildingBlock: UXUYUI_clean_sbu_0, # of connection points: 4
#     Node 2, Type 0, BuildingBlock: UXUYUI_clean_sbu_0, # of connection points: 4
#     Node 3, Type 0, BuildingBlock: UXUYUI_clean_sbu_0, # of connection points: 4
#     Node 4, Type 0, BuildingBlock: UXUYUI_clean_sbu_0, # of connection points: 4
#     Node 5, Type 0, BuildingBlock: UXUYUI_clean_sbu_0, # of connection points: 4
#     Node 6, Type 0, BuildingBlock: UXUYUI_clean_sbu_0, # of connection points: 4
#     Node 7, Type 0, BuildingBlock: UXUYUI_clean_sbu_0, # of connection points: 4
#     Node 8, Type 0, BuildingBlock: UXUYUI_clean_sbu_0, # of connection points: 4
#     Node 9, Type 0, BuildingBlock: UXUYUI_clean_sbu_0, # of connection points: 4
#     Node 10, Type 0, BuildingBlock: UXUYUI_clean_sbu_0, # of connection points: 4
#     Node 11, Type 0, BuildingBlock: UXUYUI_clean_sbu_0, # of connection points: 4
#     Node 12, Type 0, BuildingBlock: UXUYUI_clean_sbu_0, # of connection points: 4
#     Node 13, Type 0, BuildingBlock: UXUYUI_clean_sbu_0, # of connection points: 4
#     Node 14, Type 0, BuildingBlock: UXUYUI_clean_sbu_0, # of connection points: 4
#     Node 15, Type 0, BuildingBlock: UXUYUI_clean_sbu_0, # of connection points: 4
#     Node 16, Type 0, BuildingBlock: UXUYUI_clean_sbu_0, # of connection points: 4
#     Node 17, Type 0, BuildingBlock: UXUYUI_clean_sbu_0, # of connection points: 4
#     Edge 18, Type (0, 0), BuildingBlock: XUDNAN_clean_linker_2, # of connection points: 2
#     Edge 19, Type (0, 0), BuildingBlock: XUDNAN_clean_linker_2, # of connection points: 2
#     Edge 20, Type (0, 0), BuildingBlock: XUDNAN_clean_linker_2, # of connection points: 2
#     Edge 21, Type (0, 0), BuildingBlock: XUDNAN_clean_linker_2, # of connection points: 2
#     Edge 22, Type (0, 0), BuildingBlock: XUDNAN_clean_linker_2, # of connection points: 2
#     Edge 23, Type (0, 0), BuildingBlock: XUDNAN_clean_linker_2, # of connection points: 2
#     Edge 24, Type (0, 0), BuildingBlock: XUDNAN_clean_linker_2, # of connection points: 2
#     Edge 25, Type (0, 0), BuildingBlock: XUDNAN_clean_linker_2, # of connection points: 2
#     Edge 26, Type (0, 0), BuildingBlock: XUDNAN_clean_linker_2, # of connection points: 2
#     Edge 27, Type (0, 0), BuildingBlock: XUDNAN_clean_linker_2, # of connection points: 2
#     Edge 28, Type (0, 0), BuildingBlock: XUDNAN_clean_linker_2, # of connection points: 2
#     Edge 29, Type (0, 0), BuildingBlock: XUDNAN_clean_linker_2, # of connection points: 2
#     Edge 30, Type (0, 0), BuildingBlock: XUDNAN_clean_linker_2, # of connection points: 2
#     Edge 31, Type (0, 0), BuildingBlock: XUDNAN_clean_linker_2, # of connection points: 2
#     Edge 32, Type (0, 0), BuildingBlock: XUDNAN_clean_linker_2, # of connection points: 2
#     Edge 33, Type (0, 0), BuildingBlock: XUDNAN_clean_linker_2, # of connection points: 2
#     Edge 34, Type (0, 0), BuildingBlock: XUDNAN_clean_linker_2, # of connection points: 2
#     Edge 35, Type (0, 0), BuildingBlock: XUDNAN_clean_linker_2, # of connection points: 2
#     Edge 36, Type (0, 0), BuildingBlock: XUDNAN_clean_linker_2, # of connection points: 2
#     Edge 37, Type (0, 0), BuildingBlock: XUDNAN_clean_linker_2, # of connection points: 2
#     Edge 38, Type (0, 0), BuildingBlock: XUDNAN_clean_linker_2, # of connection points: 2
#     Edge 39, Type (0, 0), BuildingBlock: XUDNAN_clean_linker_2, # of connection points: 2
#     Edge 40, Type (0, 0), BuildingBlock: XUDNAN_clean_linker_2, # of connection points: 2
#     Edge 41, Type (0, 0), BuildingBlock: XUDNAN_clean_linker_2, # of connection points: 2
#     Edge 42, Type (0, 0), BuildingBlock: XUDNAN_clean_linker_2, # of connection points: 2
#     Edge 43, Type (0, 0), BuildingBlock: XUDNAN_clean_linker_2, # of connection points: 2
#     Edge 44, Type (0, 0), BuildingBlock: XUDNAN_clean_linker_2, # of connection points: 2
#     Edge 45, Type (0, 0), BuildingBlock: XUDNAN_clean_linker_2, # of connection points: 2
#     Edge 46, Type (0, 0), BuildingBlock: XUDNAN_clean_linker_2, # of connection points: 2
#     Edge 47, Type (0, 0), BuildingBlock: XUDNAN_clean_linker_2, # of connection points: 2
#     Edge 48, Type (0, 0), BuildingBlock: XUDNAN_clean_linker_2, # of connection points: 2
#     Edge 49, Type (0, 0), BuildingBlock: XUDNAN_clean_linker_2, # of connection points: 2
#     Edge 50, Type (0, 0), BuildingBlock: XUDNAN_clean_linker_2, # of connection points: 2
#     Edge 51, Type (0, 0), BuildingBlock: XUDNAN_clean_linker_2, # of connection points: 2
#     Edge 52, Type (0, 0), BuildingBlock: XUDNAN_clean_linker_2, # of connection points: 2
#     Edge 53, Type (0, 0), BuildingBlock: XUDNAN_clean_linker_2, # of connection points: 2
# Relax obj value: 0.347
# Max RMSD: 0.226
# Mean RMSD: 0.222
data_MOF--net-une--node1-UXUYUI_clean_sbu_0--edge1-XUDNAN_clean_linker_2
_symmetry_space_group_name_H-M    P1
_symmetry_Int_Tables_number       1
_symmetry_cell_setting            triclinic
loop_
_symmetry_equiv_pos_as_xyz
'x, y, z'
_cell_length_a     55.209516
_cell_length_b     55.165645
_cell_length_c     78.811925
_cell_angle_alpha  89.909223
_cell_angle_beta   89.947911
_cell_angle_gamma 120.03961
loop_
_atom_site_label
_atom_site_type_symbol
_atom_site_fract_x
_atom_site_fract_y
_atom_site_fract_z
_atom_type_partial_charge
Li0 Li 0.34116 0.07021 0.04351 0.0
Li1 Li 0.35132 0.06881 0.07326 0.0
Li2 Li 0.37054 0.05152 0.05123 0.0
Li3 Li 0.32104 0.02455 0.0584 0.0
C4 C 0.39128 0.11604 0.04688 0.0
N5 N 0.41631 0.16744 0.03058 0.0
C6 C 0.3986 0.14049 0.05599 0.0
C7 C 0.39679 0.11785 0.02945 0.0
C8 C 0.41121 0.16624 0.04754 0.0
C9 C 0.40942 0.14398 0.02145 0.0
C10 C 0.30244 0.07249 0.06572 0.0
C11 C 0.26178 0.07752 0.06941 0.0
N12 N 0.27874 0.10541 0.07215 0.0
C13 C 0.31941 0.10116 0.06868 0.0
C14 C 0.27335 0.06052 0.0662 0.0
C15 C 0.30708 0.11747 0.07187 0.0
C16 C 0.3219 0.07458 0.01128 0.0
N17 N 0.33258 0.08888 0.02598 0.0
C18 C 0.33292 0.12912 0.01446 0.0
C19 C 0.33766 0.11552 0.02785 0.0
C20 C 0.32294 0.11527 0.9989 0.0
C21 C 0.31704 0.08747 0.99748 0.0
H22 H 0.31754 0.05326 0.01016 0.0
H23 H 0.34614 0.12665 0.03956 0.0
C24 C 0.38287 0.10832 0.0988 0.0
N25 N 0.35689 0.08751 0.09447 0.0
C26 C 0.38624 0.12648 0.11209 0.0
C27 C 0.33638 0.09977 0.11715 0.0
C28 C 0.33401 0.08219 0.10379 0.0
C29 C 0.36261 0.12294 0.12102 0.0
H30 H 0.40076 0.11182 0.09129 0.0
H31 H 0.31356 0.06548 0.10014 0.0
C32 C 0.34519 0.0216 0.02386 0.0
N33 N 0.36136 0.99503 0.00052 0.0
C34 C 0.33836 0.99382 0.02646 0.0
C35 C 0.36002 0.03577 0.00929 0.0
C36 C 0.34677 0.98077 0.01453 0.0
C37 C 0.36807 0.02201 0.99767 0.0
C38 C 0.34452 0.02048 0.08893 0.0
C39 C 0.36126 0.01291 0.09823 0.0
C40 C 0.31875 0.01499 0.09553 0.0
C41 C 0.35195 0.0 0.11403 0.0
C42 C 0.31017 0.00206 0.11137 0.0
N43 N 0.32681 0.99489 0.12022 0.0
C44 C 0.41978 0.06527 0.03266 0.0
C45 C 0.39848 0.02104 0.04637 0.0
C46 C 0.43638 0.05816 0.02292 0.0
N47 N 0.40037 0.04626 0.04349 0.0
C48 C 0.41507 0.01322 0.03708 0.0
C49 C 0.43336 0.03152 0.02469 0.0
H50 H 0.4212 0.08525 0.03075 0.0
H51 H 0.38262 0.00619 0.05492 0.0
C52 C 0.26558 0.9874 0.05218 0.0
N53 N 0.2887 0.98864 0.05903 0.0
C54 C 0.24127 0.96172 0.05003 0.0
C55 C 0.26491 0.9389 0.06217 0.0
C56 C 0.28873 0.96521 0.06437 0.0
C57 C 0.24097 0.9369 0.05451 0.0
H58 H 0.26644 0.00637 0.04776 0.0
H59 H 0.30762 0.96684 0.06955 0.0
O60 O 0.37887 0.09056 0.05496 0.0
O61 O 0.31411 0.05603 0.06288 0.0
O62 O 0.33778 0.03497 0.03565 0.0
O63 O 0.35349 0.03317 0.07346 0.0
H64 H 0.39443 0.13971 0.06942 0.0
H65 H 0.39068 0.09922 0.02207 0.0
H66 H 0.41687 0.18527 0.05445 0.0
H67 H 0.41354 0.14557 0.00796 0.0
H68 H 0.2393 0.06852 0.06979 0.0
H69 H 0.34191 0.11072 0.0686 0.0
H70 H 0.2598 0.0383 0.06424 0.0
H71 H 0.32004 0.13969 0.07415 0.0
H72 H 0.33715 0.15034 0.0163 0.0
H73 H 0.30938 0.07598 0.98573 0.0
H74 H 0.40693 0.14376 0.11488 0.0
H75 H 0.31756 0.09629 0.12357 0.0
H76 H 0.32713 0.98257 0.03769 0.0
H77 H 0.36545 0.05723 0.007 0.0
H78 H 0.34182 0.95936 0.01647 0.0
H79 H 0.37971 0.0328 0.9864 0.0
H80 H 0.38126 0.01699 0.09327 0.0
H81 H 0.30544 0.02058 0.0885 0.0
H82 H 0.3647 0.99404 0.12137 0.0
H83 H 0.29028 0.9977 0.11663 0.0
H84 H 0.45052 0.07284 0.01356 0.0
H85 H 0.41217 0.99243 0.03867 0.0
H86 H 0.2232 0.96129 0.04436 0.0
H87 H 0.26579 0.92035 0.06562 0.0
Li88 Li 0.9588 0.3197 0.05857 0.0
Li89 Li 0.98431 0.29584 0.06446 0.0
Li90 Li 0.94144 0.27335 0.04742 0.0
Li91 Li 0.93877 0.27786 0.07849 0.0
C92 C 0.99102 0.32927 0.03146 0.0
N93 N 0.01892 0.37594 0.01086 0.0
C94 C 0.01998 0.34673 0.03292 0.0
C95 C 0.9763 0.33553 0.01946 0.0
C96 C 0.03369 0.37019 0.02238 0.0
C97 C 0.99076 0.35925 0.0092 0.0
C98 C 0.98831 0.32295 0.09586 0.0
C99 C 0.00027 0.31023 0.12257 0.0
N100 N 0.01863 0.3377 0.12571 0.0
C101 C 0.00712 0.35109 0.09942 0.0
C102 C 0.98471 0.30238 0.10758 0.0
C103 C 0.02232 0.35811 0.11455 0.0
C104 C 0.94583 0.36169 0.04672 0.0
N105 N 0.96524 0.35652 0.05384 0.0
C106 C 0.00084 0.4043 0.05018 0.0
C107 C 0.99214 0.37729 0.05596 0.0
C108 C 0.98163 0.41025 0.04223 0.0
C109 C 0.95363 0.38859 0.04078 0.0
H110 H 0.92458 0.3448 0.04512 0.0
H111 H 0.00728 0.37245 0.06124 0.0
C112 C 0.02658 0.28996 0.05099 0.0
N113 N 0.0207 0.29969 0.06533 0.0
C114 C 0.05155 0.28976 0.04948 0.0
C115 C 0.0651 0.31118 0.07717 0.0
C116 C 0.03941 0.3104 0.07832 0.0
C117 C 0.07104 0.30039 0.06268 0.0
H118 H 0.01166 0.28221 0.0407 0.0
H119 H 0.03462 0.31834 0.08954 0.0
C120 C 0.89473 0.2729 0.05199 0.0
N121 N 0.84495 0.24149 0.03479 0.0
C122 C 0.87357 0.2479 0.05899 0.0
C123 C 0.89052 0.28196 0.03627 0.0
C124 C 0.84856 0.23233 0.0501 0.0
C125 C 0.86523 0.26577 0.02776 0.0
C126 C 0.96605 0.24119 0.06538 0.0
C127 C 0.96775 0.22894 0.05023 0.0
C128 C 0.97922 0.23873 0.07992 0.0
C129 C 0.98248 0.21445 0.04988 0.0
C130 C 0.99381 0.22414 0.07904 0.0
N131 N 0.99511 0.21238 0.06417 0.0
C132 C 0.92631 0.25567 0.01285 0.0
C133 C 0.90463 0.22088 0.0342 0.0
C134 C 0.91219 0.23583 0.00018 0.0
N135 N 0.92227 0.24785 0.02947 0.0
C136 C 0.89055 0.20035 0.02197 0.0
C137 C 0.89439 0.20783 0.00478 0.0
H138 H 0.94065 0.27716 0.00943 0.0
H139 H 0.90193 0.21529 0.04751 0.0
C140 C 0.89704 0.26555 0.10398 0.0
N141 N 0.91543 0.25838 0.0975 0.0
C142 C 0.87725 0.24839 0.11611 0.0
C143 C 0.89664 0.21766 0.1152 0.0
C144 C 0.91559 0.23503 0.1029 0.0
C145 C 0.87678 0.22394 0.12171 0.0
H146 H 0.89697 0.28391 0.09921 0.0
H147 H 0.92979 0.2293 0.09723 0.0
O148 O 0.97712 0.30651 0.04192 0.0
O149 O 0.97314 0.31574 0.08114 0.0
O150 O 0.91969 0.28802 0.06027 0.0
O151 O 0.9522 0.25604 0.06589 0.0
H152 H 0.03175 0.34251 0.04224 0.0
H153 H 0.95385 0.32263 0.01835 0.0
H154 H 0.05606 0.38394 0.02344 0.0
H155 H 0.97956 0.36448 1.0 0.0
H156 H 0.99776 0.29446 0.1317 0.0
H157 H 0.00996 0.3674 0.09066 0.0
H158 H 0.97019 0.28061 0.10513 0.0
H159 H 0.03701 0.3798 0.11743 0.0
H160 H 0.02274 0.42003 0.05128 0.0
H161 H 0.93803 0.39227 0.03493 0.0
H162 H 0.0558 0.28174 0.03799 0.0
H163 H 0.07999 0.31981 0.08747 0.0
H164 H 0.87655 0.24034 0.07103 0.0
H165 H 0.90677 0.30103 0.03055 0.0
H166 H 0.83207 0.21287 0.05533 0.0
H167 H 0.86179 0.27243 0.01553 0.0
H168 H 0.95842 0.23109 0.03872 0.0
H169 H 0.97864 0.24834 0.09171 0.0
H170 H 0.98405 0.20503 0.03821 0.0
H171 H 0.0042 0.22226 0.09018 0.0
H172 H 0.91552 0.24212 0.98696 0.0
H173 H 0.87681 0.17885 0.02586 0.0
H174 H 0.86217 0.25385 0.12082 0.0
H175 H 0.89663 0.19876 0.11896 0.0
Li176 Li 0.69144 0.66682 0.06438 0.0
Li177 Li 0.7127 0.64218 0.07489 0.0
Li178 Li 0.71465 0.65157 0.04413 0.0
Li179 Li 0.66773 0.61769 0.05871 0.0
C180 C 0.75345 0.70351 0.06626 0.0
N181 N 0.7987 0.75572 0.07324 0.0
C182 C 0.76241 0.71118 0.083 0.0
C183 C 0.76774 0.72232 0.05307 0.0
C184 C 0.78527 0.73769 0.08626 0.0
C185 C 0.79049 0.74864 0.05686 0.0
C186 C 0.66517 0.64629 0.0933 0.0
C187 C 0.62682 0.64763 0.10706 0.0
N188 N 0.64539 0.66938 0.11678 0.0
C189 C 0.68384 0.66839 0.10359 0.0
C190 C 0.63641 0.63558 0.09518 0.0
C191 C 0.67345 0.67989 0.11531 0.0
C192 C 0.65534 0.68846 0.066 0.0
N193 N 0.68269 0.69598 0.06791 0.0
C194 C 0.69583 0.74427 0.06924 0.0
C195 C 0.70273 0.7232 0.07016 0.0
C196 C 0.66808 0.73724 0.06586 0.0
C197 C 0.64752 0.70883 0.06488 0.0
H198 H 0.6398 0.66665 0.06425 0.0
H199 H 0.72425 0.72885 0.07187 0.0
C200 C 0.7629 0.64945 0.08625 0.0
N201 N 0.73627 0.64012 0.09158 0.0
C202 C 0.78296 0.6508 0.09747 0.0
C203 C 0.74776 0.6325 0.11956 0.0
C204 C 0.72827 0.63154 0.10782 0.0
C205 C 0.7756 0.64242 0.11442 0.0
H206 H 0.76865 0.65643 0.07327 0.0
H207 H 0.70692 0.62434 0.1117 0.0
C208 C 0.67146 0.66539 0.0326 0.0
N209 N 0.65961 0.70126 0.01465 0.0
C210 C 0.64386 0.65707 0.02821 0.0
C211 C 0.69306 0.69177 0.02765 0.0
C212 C 0.63829 0.67555 0.01916 0.0
C213 C 0.68664 0.70967 0.01866 0.0
C214 C 0.71128 0.59761 0.06166 0.0
C215 C 0.73613 0.59977 0.0557 0.0
C216 C 0.69609 0.57837 0.07447 0.0
C217 C 0.74551 0.5827 0.06277 0.0
C218 C 0.70618 0.56169 0.08122 0.0
N219 N 0.73048 0.56419 0.07528 0.0
C220 C 0.7639 0.66694 0.02657 0.0
C221 C 0.72424 0.65172 0.00881 0.0
C222 C 0.7806 0.66947 0.01266 0.0
N223 N 0.73629 0.65795 0.02441 0.0
C224 C 0.7402 0.65393 0.9945 0.0
C225 C 0.76871 0.66256 0.99637 0.0
H226 H 0.77271 0.67131 0.03921 0.0
H227 H 0.70213 0.64439 0.00755 0.0
C228 C 0.60977 0.58777 0.05384 0.0
N229 N 0.63311 0.58541 0.05377 0.0
C230 C 0.58481 0.56653 0.04703 0.0
C231 C 0.60819 0.54045 0.04068 0.0
C232 C 0.63271 0.56222 0.04763 0.0
C233 C 0.58399 0.54278 0.03992 0.0
H234 H 0.61093 0.60682 0.05836 0.0
H235 H 0.6518 0.56126 0.04729 0.0
O236 O 0.7312 0.67759 0.06274 0.0
O237 O 0.67501 0.63508 0.08156 0.0
O238 O 0.67729 0.64805 0.04198 0.0
O239 O 0.70218 0.6147 0.0553 0.0
H240 H 0.75197 0.69685 0.09337 0.0
H241 H 0.76139 0.71667 0.04003 0.0
H242 H 0.79237 0.74389 0.09915 0.0
H243 H 0.80166 0.76341 0.04678 0.0
H244 H 0.60462 0.63967 0.10857 0.0
H245 H 0.7061 0.67667 0.10244 0.0
H246 H 0.62163 0.61819 0.08754 0.0
H247 H 0.68769 0.69716 0.12325 0.0
H248 H 0.71226 0.76591 0.07038 0.0
H249 H 0.62593 0.7024 0.06211 0.0
H250 H 0.80423 0.65912 0.093 0.0
H251 H 0.74114 0.62564 0.13247 0.0
H252 H 0.62689 0.63669 0.03187 0.0
H253 H 0.71449 0.69848 0.03094 0.0
H254 H 0.61701 0.66947 0.01578 0.0
H255 H 0.70313 0.73027 0.01491 0.0
H256 H 0.74814 0.61462 0.04581 0.0
H257 H 0.6769 0.57662 0.07928 0.0
H258 H 0.76477 0.58422 0.05834 0.0
H259 H 0.69474 0.54681 0.0912 0.0
H260 H 0.80232 0.67566 0.01476 0.0
H261 H 0.73027 0.64855 0.98216 0.0
H262 H 0.5666 0.56909 0.04684 0.0
H263 H 0.60865 0.52275 0.03512 0.0
Li264 Li 0.61073 0.94588 0.94419 0.0
Li265 Li 0.66106 0.96919 0.94128 0.0
Li266 Li 0.63484 0.92738 0.92436 0.0
Li267 Li 0.63758 0.92477 0.95517 0.0
C268 C 0.64837 0.98843 0.9152 0.0
N269 N 0.6808 0.04039 0.9004 0.0
C270 C 0.64759 0.01172 0.92148 0.0
C271 C 0.6655 0.99152 0.90135 0.0
C272 C 0.66418 0.03782 0.91383 0.0
C273 C 0.68177 0.01797 0.89405 0.0
C274 C 0.64314 0.97739 0.97508 0.0
C275 C 0.66208 0.99636 0.00265 0.0
N276 N 0.65165 0.01399 0.00135 0.0
C277 C 0.63245 0.99561 0.97408 0.0
C278 C 0.65792 0.97764 0.98954 0.0
C279 C 0.63704 0.01398 0.98746 0.0
C280 C 0.56645 0.93998 0.96396 0.0
N281 N 0.57964 0.95039 0.94892 0.0
C282 C 0.5533 0.97334 0.9442 0.0
C283 C 0.57317 0.96634 0.93886 0.0
C284 C 0.53977 0.96352 0.95996 0.0
C285 C 0.54611 0.94598 0.96965 0.0
H286 H 0.5726 0.92796 0.97189 0.0
H287 H 0.5843 0.97465 0.92705 0.0
C288 C 0.71716 0.00698 0.93206 0.0
N289 N 0.69517 0.00475 0.94115 0.0
C290 C 0.74355 0.03086 0.93345 0.0
C291 C 0.72373 0.0506 0.95251 0.0
C292 C 0.69779 0.02639 0.95073 0.0
C293 C 0.74726 0.05274 0.94421 0.0
H294 H 0.71441 0.98975 0.92418 0.0
H295 H 0.68001 0.0247 0.95738 0.0
C296 C 0.59112 0.87964 0.94655 0.0
N297 N 0.5682 0.82583 0.95923 0.0
C298 C 0.60153 0.86236 0.94136 0.0
C299 C 0.56897 0.8695 0.95813 0.0
C300 C 0.58967 0.83524 0.94792 0.0
C301 C 0.5577 0.84225 0.96441 0.0
C302 C 0.69211 0.9409 0.94518 0.0
C303 C 0.70641 0.92899 0.93739 0.0
C304 C 0.70256 0.95616 0.96015 0.0
C305 C 0.73099 0.93254 0.94475 0.0
C306 C 0.72722 0.95928 0.9671 0.0
N307 N 0.74081 0.9475 0.95932 0.0
C308 C 0.6583 0.91561 0.89638 0.0
C309 C 0.60942 0.88503 0.89942 0.0
C310 C 0.65958 0.8989 0.88353 0.0
N311 N 0.63359 0.90812 0.90422 0.0
C312 C 0.60981 0.86748 0.88679 0.0
C313 C 0.63526 0.87404 0.87897 0.0
H314 H 0.67726 0.93384 0.9007 0.0
H315 H 0.59014 0.87942 0.90604 0.0
C316 C 0.62688 0.90251 0.98839 0.0
N317 N 0.63855 0.90246 0.97321 0.0
C318 C 0.62739 0.88624 0.00184 0.0
C319 C 0.65124 0.86969 0.98355 0.0
C320 C 0.65041 0.88637 0.97054 0.0
C321 C 0.63984 0.86964 0.99952 0.0
H322 H 0.61719 0.91521 0.99005 0.0
H323 H 0.65888 0.88616 0.95822 0.0
O324 O 0.63294 0.96287 0.92282 0.0
O325 O 0.63835 0.95876 0.96227 0.0
O326 O 0.60297 0.90651 0.94058 0.0
O327 O 0.66792 0.93743 0.93815 0.0
H328 H 0.63469 0.00976 0.93231 0.0
H329 H 0.66639 0.97371 0.89638 0.0
H330 H 0.66395 0.05607 0.91863 0.0
H331 H 0.69524 0.02071 0.88337 0.0
H332 H 0.67353 0.9968 0.01388 0.0
H333 H 0.62117 0.99596 0.96299 0.0
H334 H 0.666 0.96346 0.99072 0.0
H335 H 0.62903 0.02829 0.98679 0.0
H336 H 0.54957 0.98727 0.93638 0.0
H337 H 0.53596 0.93743 0.9817 0.0
H338 H 0.761 0.03185 0.92656 0.0
H339 H 0.72551 0.06682 0.96101 0.0
H340 H 0.61898 0.87001 0.93263 0.0
H341 H 0.56058 0.8825 0.96225 0.0
H342 H 0.59767 0.82173 0.9441 0.0
H343 H 0.5406 0.83416 0.97342 0.0
H344 H 0.69853 0.91703 0.92582 0.0
H345 H 0.69187 0.96566 0.96625 0.0
H346 H 0.74227 0.9234 0.93887 0.0
H347 H 0.73557 0.97111 0.97866 0.0
H348 H 0.67965 0.9045 0.87793 0.0
H349 H 0.59061 0.84854 0.88354 0.0
H350 H 0.61842 0.8869 0.01393 0.0
H351 H 0.66034 0.85665 0.98102 0.0
Li352 Li 0.05504 0.69424 0.92145 0.0
Li353 Li 0.05189 0.70588 0.95078 0.0
Li354 Li 0.03511 0.65599 0.94555 0.0
Li355 Li 0.01025 0.67917 0.93565 0.0
C356 C 0.09912 0.70309 0.94961 0.0
N357 N 0.14978 0.73254 0.96623 0.0
C358 C 0.12203 0.72529 0.94149 0.0
C359 C 0.10206 0.69577 0.96616 0.0
C360 C 0.14745 0.73993 0.95011 0.0
C361 C 0.12781 0.71096 0.97436 0.0
C362 C 0.04912 0.74512 0.93334 0.0
C363 C 0.04453 0.78085 0.9482 0.0
N364 N 0.06805 0.80089 0.94037 0.0
C365 C 0.07324 0.76612 0.92542 0.0
C366 C 0.03461 0.75258 0.94479 0.0
C367 C 0.08247 0.79417 0.92914 0.0
C368 C 0.06829 0.72372 0.89108 0.0
N369 N 0.07571 0.70823 0.90089 0.0
C370 C 0.11734 0.72331 0.88454 0.0
C371 C 0.0991 0.70681 0.89748 0.0
C372 C 0.11155 0.74161 0.87518 0.0
C373 C 0.08604 0.7408 0.87822 0.0
H374 H 0.04961 0.72455 0.89414 0.0
H375 H 0.10446 0.69421 0.90545 0.0
C376 C 0.06175 0.72838 0.98408 0.0
N377 N 0.07133 0.73366 0.96782 0.0
C378 C 0.07641 0.74769 0.99691 0.0
C379 C 0.11062 0.77728 0.97603 0.0
C380 C 0.09531 0.75751 0.96367 0.0
C381 C 0.10121 0.77256 0.99292 0.0
H382 H 0.04295 0.70899 0.98715 0.0
H383 H 0.10299 0.76097 0.9508 0.0
C384 C 0.99812 0.64014 0.91205 0.0
N385 N 0.951 0.61012 0.89235 0.0
C386 C 0.97977 0.61183 0.91547 0.0
C387 C 0.99271 0.65314 0.89853 0.0
C388 C 0.95601 0.59701 0.90537 0.0
C389 C 0.96871 0.63761 0.88875 0.0
C390 C 0.99314 0.66317 0.96753 0.0
C391 C 0.97543 0.63433 0.96962 0.0
C392 C 0.98503 0.6817 0.97385 0.0
C393 C 0.94969 0.62452 0.97778 0.0
C394 C 0.95908 0.67106 0.98188 0.0
N395 N 0.94209 0.64293 0.98365 0.0
C396 C 0.03409 0.62656 0.97353 0.0
C397 C 0.02973 0.60046 0.94873 0.0
C398 C 0.03204 0.6051 0.9838 0.0
N399 N 0.03297 0.62401 0.95637 0.0
C400 C 0.0276 0.57826 0.95862 0.0
C401 C 0.02894 0.58056 0.97643 0.0
H402 H 0.03622 0.6453 0.97929 0.0
H403 H 0.02872 0.59887 0.93504 0.0
C404 C 0.97034 0.69537 0.92793 0.0
N405 N 0.97319 0.67297 0.93201 0.0
C406 C 0.94403 0.69313 0.92828 0.0
C407 C 0.92371 0.64412 0.93537 0.0
C408 C 0.95043 0.64738 0.93501 0.0
C409 C 0.92044 0.66746 0.93261 0.0
H410 H 0.98859 0.71528 0.92506 0.0
H411 H 0.95309 0.62976 0.938 0.0
O412 O 0.07394 0.68873 0.94146 0.0
O413 O 0.03974 0.71745 0.92992 0.0
O414 O 0.02133 0.65504 0.92188 0.0
O415 O 0.01831 0.6732 0.95939 0.0
H416 H 0.12008 0.7316 0.92881 0.0
H417 H 0.0846 0.67877 0.97268 0.0
H418 H 0.16527 0.75729 0.94401 0.0
H419 H 0.13031 0.70562 0.9872 0.0
H420 H 0.03351 0.78685 0.95707 0.0
H421 H 0.0852 0.76093 0.91683 0.0
H422 H 0.0159 0.73672 0.951 0.0
H423 H 0.10121 0.81059 0.9232 0.0
H424 H 0.13632 0.72256 0.88241 0.0
H425 H 0.08058 0.75459 0.87159 0.0
H426 H 0.06838 0.74325 0.00976 0.0
H427 H 0.13 0.79577 0.97242 0.0
H428 H 0.98369 0.6015 0.92592 0.0
H429 H 0.00674 0.67505 0.89575 0.0
H430 H 0.94151 0.57513 0.90792 0.0
H431 H 0.96413 0.64744 0.87831 0.0
H432 H 0.98115 0.61961 0.96466 0.0
H433 H 0.9986 0.70406 0.9726 0.0
H434 H 0.93568 0.60226 0.97933 0.0
H435 H 0.95246 0.68518 0.98671 0.0
H436 H 0.03247 0.60762 0.99744 0.0
H437 H 0.02528 0.55971 0.95241 0.0
H438 H 0.94228 0.71151 0.92581 0.0
H439 H 0.90608 0.62399 0.93887 0.0
Li440 Li 0.28912 0.35522 0.95364 0.0
Li441 Li 0.30703 0.33454 0.9315 0.0
Li442 Li 0.33539 0.38273 0.94038 0.0
Li443 Li 0.29319 0.36737 0.92379 0.0
C444 C 0.33912 0.35446 0.96765 0.0
N445 N 0.37738 0.36812 0.99359 0.0
C446 C 0.35671 0.34304 0.96803 0.0
C447 C 0.3408 0.37263 0.98053 0.0
C448 C 0.37595 0.35025 0.98125 0.0
C449 C 0.36035 0.37934 0.99351 0.0
C450 C 0.24387 0.32024 0.92674 0.0
C451 C 0.21246 0.29791 0.90326 0.0
N452 N 0.19304 0.30247 0.91093 0.0
C453 C 0.22342 0.32434 0.9345 0.0
C454 C 0.23819 0.30655 0.9111 0.0
C455 C 0.19791 0.31532 0.92628 0.0
C456 C 0.25401 0.36162 0.97672 0.0
N457 N 0.26848 0.34808 0.97393 0.0
C458 C 0.25097 0.32198 0.99962 0.0
C459 C 0.26759 0.32884 0.98507 0.0
C460 C 0.2348 0.33477 0.00255 0.0
C461 C 0.23682 0.35514 0.99096 0.0
H462 H 0.25507 0.37672 0.96755 0.0
H463 H 0.27944 0.31848 0.9825 0.0
C464 C 0.33296 0.30243 0.92504 0.0
N465 N 0.30802 0.30142 0.92702 0.0
C466 C 0.33423 0.27781 0.92551 0.0
C467 C 0.28402 0.25162 0.92932 0.0
C468 C 0.2837 0.27671 0.92865 0.0
C469 C 0.30967 0.25206 0.9284 0.0
H470 H 0.35203 0.32246 0.92411 0.0
H471 H 0.26428 0.27664 0.93058 0.0
C472 C 0.31432 0.41993 0.93868 0.0
N473 N 0.33122 0.47384 0.92802 0.0
C474 C 0.33326 0.43179 0.92523 0.0
C475 C 0.30395 0.43547 0.94668 0.0
C476 C 0.34155 0.45908 0.92004 0.0
C477 C 0.31275 0.46269 0.94111 0.0
C478 C 0.33884 0.35958 0.90402 0.0
C479 C 0.36767 0.37317 0.9011 0.0
C480 C 0.32087 0.33722 0.89367 0.0
C481 C 0.3781 0.36363 0.88816 0.0
C482 C 0.33208 0.32827 0.88087 0.0
N483 N 0.36024 0.34152 0.87841 0.0
C484 C 0.392 0.40098 0.94481 0.0
C485 C 0.37786 0.43117 0.95705 0.0
C486 C 0.41725 0.41436 0.95363 0.0
N487 N 0.37267 0.40909 0.94699 0.0
C488 C 0.40292 0.44522 0.96609 0.0
C489 C 0.42252 0.43613 0.96491 0.0
H490 H 0.38681 0.38253 0.93741 0.0
H491 H 0.36172 0.43646 0.95917 0.0
C492 C 0.25453 0.38241 0.91289 0.0
N493 N 0.27383 0.37602 0.90709 0.0
C494 C 0.23533 0.38322 0.90176 0.0
C495 C 0.25777 0.37321 0.87865 0.0
C496 C 0.27631 0.37218 0.8903 0.0
C497 C 0.2363 0.37788 0.88441 0.0
H498 H 0.25291 0.3851 0.92636 0.0
H499 H 0.29189 0.36718 0.88602 0.0
O500 O 0.32084 0.34846 0.95449 0.0
O501 O 0.26927 0.32962 0.93441 0.0
O502 O 0.30559 0.39313 0.94393 0.0
O503 O 0.32829 0.36861 0.91669 0.0
H504 H 0.35571 0.329 0.95814 0.0
H505 H 0.32752 0.38186 0.98032 0.0
H506 H 0.38983 0.34172 0.98165 0.0
H507 H 0.36207 0.39358 0.00348 0.0
H508 H 0.20793 0.28754 0.89108 0.0
H509 H 0.22733 0.33473 0.94662 0.0
H510 H 0.25347 0.30265 0.90506 0.0
H511 H 0.18204 0.31864 0.93206 0.0
H512 H 0.25043 0.30649 0.00829 0.0
H513 H 0.22439 0.36518 0.99243 0.0
H514 H 0.35441 0.27909 0.92457 0.0
H515 H 0.26463 0.23241 0.93186 0.0
H516 H 0.34155 0.42016 0.91887 0.0
H517 H 0.28923 0.42657 0.95708 0.0
H518 H 0.35621 0.46853 0.90967 0.0
H519 H 0.30489 0.47496 0.94719 0.0
H520 H 0.38186 0.39111 0.90859 0.0
H521 H 0.29854 0.32672 0.89559 0.0
H522 H 0.40038 0.37389 0.88581 0.0
H523 H 0.3184 0.31079 0.87288 0.0
H524 H 0.43185 0.40678 0.9523 0.0
H525 H 0.40596 0.46163 0.97484 0.0
H526 H 0.21903 0.38649 0.90693 0.0
H527 H 0.25981 0.36962 0.86536 0.0
Li528 Li 0.03298 0.41003 0.38218 0.0
Li529 Li 0.03536 0.40617 0.41264 0.0
Li530 Li 0.05978 0.39011 0.3933 0.0
Li531 Li 0.00894 0.36312 0.39582 0.0
C532 C 0.0829 0.4547 0.38942 0.0
N533 N 0.1142 0.50659 0.37416 0.0
C534 C 0.08867 0.47908 0.39815 0.0
C535 C 0.09307 0.45683 0.3729 0.0
C536 C 0.10453 0.50508 0.39023 0.0
C537 C 0.10884 0.4832 0.36542 0.0
C538 C 0.98904 0.41064 0.39911 0.0
C539 C 0.9481 0.4154 0.39641 0.0
N540 N 0.96385 0.44309 0.40019 0.0
C541 C 0.00478 0.43912 0.403 0.0
C542 C 0.96045 0.39864 0.39583 0.0
C543 C 0.99169 0.45518 0.40348 0.0
C544 C 0.01965 0.41676 0.3487 0.0
N545 N 0.02921 0.43044 0.36372 0.0
C546 C 0.03529 0.47276 0.3515 0.0
C547 C 0.03632 0.45775 0.36542 0.0
C548 C 0.02628 0.45933 0.33583 0.0
C549 C 0.01795 0.43094 0.33445 0.0
H550 H 0.01355 0.39489 0.34775 0.0
H551 H 0.04336 0.46818 0.37745 0.0
C552 C 0.0594 0.44531 0.43948 0.0
N553 N 0.0351 0.4238 0.43342 0.0
C554 C 0.05878 0.46373 0.4514 0.0
C555 C 0.00833 0.43558 0.45199 0.0
C556 C 0.00992 0.41786 0.44 0.0
C557 C 0.0329 0.45961 0.45721 0.0
H558 H 0.07914 0.44934 0.43416 0.0
H559 H 0.99086 0.40073 0.43493 0.0
C560 C 0.03944 0.36252 0.36335 0.0
N561 N 0.05621 0.3365 0.33999 0.0
C562 C 0.03014 0.33392 0.3648 0.0
C563 C 0.057 0.37779 0.34988 0.0
C564 C 0.03895 0.32118 0.35291 0.0
C565 C 0.06528 0.36428 0.33823 0.0
C566 C 0.02427 0.35663 0.42869 0.0
C567 C 0.0382 0.34825 0.43997 0.0
C568 C 0.9972 0.351 0.43251 0.0
C569 C 0.02481 0.33438 0.45494 0.0
C570 C 0.98453 0.33709 0.4476 0.0
N571 N 0.99848 0.32914 0.45841 0.0
C572 C 0.11412 0.40668 0.38107 0.0
C573 C 0.08617 0.35848 0.38776 0.0
C574 C 0.1319 0.40134 0.3712 0.0
N575 N 0.0908 0.38512 0.38813 0.0
C576 C 0.10368 0.35221 0.3782 0.0
C577 C 0.12587 0.37365 0.36902 0.0
H578 H 0.11786 0.42774 0.38199 0.0
H579 H 0.06739 0.34171 0.39346 0.0
C580 C 0.95695 0.32614 0.38309 0.0
N581 N 0.97691 0.32728 0.39364 0.0
C582 C 0.93371 0.30048 0.37901 0.0
C583 C 0.95179 0.27755 0.39693 0.0
C584 C 0.97474 0.30377 0.40071 0.0
C585 C 0.93116 0.27569 0.3857 0.0
H586 H 0.95961 0.34519 0.37743 0.0
H587 H 0.99129 0.30527 0.40875 0.0
O588 O 0.06731 0.42897 0.39696 0.0
O589 O 0.0014 0.39445 0.39869 0.0
O590 O 0.03123 0.37543 0.37498 0.0
O591 O 0.03723 0.37029 0.41402 0.0
H592 H 0.08075 0.47806 0.41081 0.0
H593 H 0.08846 0.43828 0.36583 0.0
H594 H 0.10905 0.52406 0.39683 0.0
H595 H 0.11668 0.48506 0.35262 0.0
H596 H 0.92599 0.40638 0.39388 0.0
H597 H 0.0269 0.44874 0.40565 0.0
H598 H 0.94787 0.37658 0.39293 0.0
H599 H 0.00366 0.47725 0.40648 0.0
H600 H 0.0415 0.49465 0.35293 0.0
H601 H 0.01059 0.42003 0.32249 0.0
H602 H 0.07824 0.48176 0.45536 0.0
H603 H 0.98794 0.43168 0.45606 0.0
H604 H 0.01664 0.32174 0.37514 0.0
H605 H 0.0641 0.39982 0.34837 0.0
H606 H 0.03212 0.29912 0.35399 0.0
H607 H 0.07888 0.37587 0.32776 0.0
H608 H 0.05916 0.35245 0.43718 0.0
H609 H 0.98601 0.35716 0.4239 0.0
H610 H 0.03536 0.32778 0.46379 0.0
H611 H 0.96359 0.3326 0.45071 0.0
H612 H 0.14913 0.41841 0.36447 0.0
H613 H 0.09841 0.33059 0.37675 0.0
H614 H 0.91814 0.30003 0.37046 0.0
H615 H 0.95081 0.25892 0.40217 0.0
Li616 Li 0.62249 0.66557 0.3966 0.0
Li617 Li 0.64796 0.64123 0.40275 0.0
Li618 Li 0.60834 0.61963 0.3838 0.0
Li619 Li 0.60183 0.62124 0.41411 0.0
C620 C 0.65935 0.65985 0.36664 0.0
N621 N 0.69272 0.67005 0.33828 0.0
C622 C 0.67547 0.64692 0.36488 0.0
C623 C 0.66023 0.67797 0.3539 0.0
C624 C 0.69221 0.65235 0.35049 0.0
C625 C 0.67719 0.68282 0.33967 0.0
C626 C 0.65682 0.67217 0.42962 0.0
C627 C 0.6867 0.67039 0.45129 0.0
N628 N 0.70402 0.69851 0.44969 0.0
C629 C 0.67479 0.70107 0.42827 0.0
C630 C 0.66267 0.65669 0.44129 0.0
C631 C 0.69859 0.71399 0.43851 0.0
C632 C 0.60588 0.70725 0.39312 0.0
N633 N 0.62699 0.70143 0.39164 0.0
C634 C 0.65599 0.74521 0.37775 0.0
C635 C 0.65196 0.72011 0.38457 0.0
C636 C 0.6342 0.75132 0.37839 0.0
C637 C 0.6091 0.7323 0.38657 0.0
H638 H 0.58622 0.69205 0.3988 0.0
H639 H 0.66846 0.71502 0.3837 0.0
C640 C 0.68869 0.62568 0.40851 0.0
N641 N 0.68486 0.64788 0.40591 0.0
C642 C 0.71522 0.62879 0.40653 0.0
C643 C 0.73366 0.67809 0.40086 0.0
C644 C 0.70668 0.67391 0.40259 0.0
C645 C 0.73784 0.6551 0.40218 0.0
H646 H 0.67087 0.60523 0.41097 0.0
H647 H 0.70283 0.69098 0.40012 0.0
C648 C 0.56881 0.63767 0.38392 0.0
N649 N 0.53891 0.65026 0.36092 0.0
C650 C 0.54189 0.63227 0.38795 0.0
C651 C 0.58046 0.64941 0.36816 0.0
C652 C 0.52712 0.63879 0.37615 0.0
C653 C 0.56504 0.65565 0.35672 0.0
C654 C 0.60001 0.57322 0.40149 0.0
C655 C 0.57122 0.56319 0.4007 0.0
C656 C 0.60977 0.55422 0.40155 0.0
C657 C 0.55269 0.53435 0.40015 0.0
C658 C 0.59056 0.52553 0.40096 0.0
N659 N 0.56266 0.51626 0.40029 0.0
C660 C 0.60851 0.59131 0.35338 0.0
C661 C 0.56403 0.58277 0.36241 0.0
C662 C 0.59643 0.57246 0.34 0.0
N663 N 0.5923 0.59623 0.36423 0.0
C664 C 0.55104 0.56353 0.34938 0.0
C665 C 0.56724 0.55798 0.33798 0.0
H666 H 0.63071 0.60118 0.35537 0.0
H667 H 0.55129 0.586 0.3715 0.0
C668 C 0.55164 0.59589 0.43355 0.0
N669 N 0.57781 0.59953 0.43235 0.0
C670 C 0.53174 0.57513 0.44417 0.0
C671 C 0.56654 0.56328 0.4528 0.0
C672 C 0.58574 0.58421 0.44198 0.0
C673 C 0.53886 0.55794 0.45361 0.0
H674 H 0.54579 0.60808 0.42558 0.0
H675 H 0.60647 0.58704 0.44045 0.0
O676 O 0.64357 0.65568 0.38095 0.0
O677 O 0.63369 0.65908 0.41952 0.0
O678 O 0.58361 0.63161 0.39542 0.0
O679 O 0.61867 0.60142 0.40201 0.0
H680 H 0.67463 0.6323 0.37432 0.0
H681 H 0.64798 0.68824 0.35496 0.0
H682 H 0.70471 0.64239 0.34899 0.0
H683 H 0.67804 0.6968 0.32975 0.0
H684 H 0.69161 0.65866 0.46029 0.0
H685 H 0.67049 0.71333 0.41932 0.0
H686 H 0.64898 0.63431 0.44246 0.0
H687 H 0.71277 0.73632 0.43754 0.0
H688 H 0.67585 0.75953 0.37184 0.0
H689 H 0.59177 0.73622 0.38731 0.0
H690 H 0.7178 0.61063 0.40751 0.0
H691 H 0.75062 0.69855 0.39721 0.0
H692 H 0.5325 0.62318 0.40007 0.0
H693 H 0.60113 0.65358 0.36476 0.0
H694 H 0.50628 0.63475 0.37912 0.0
H695 H 0.57385 0.66476 0.34449 0.0
H696 H 0.56319 0.57746 0.4005 0.0
H697 H 0.63195 0.56153 0.40201 0.0
H698 H 0.53038 0.52636 0.39958 0.0
H699 H 0.59785 0.51061 0.40102 0.0
H700 H 0.6098 0.5689 0.33154 0.0
H701 H 0.52841 0.55228 0.34874 0.0
H702 H 0.51074 0.57196 0.44455 0.0
H703 H 0.57287 0.55035 0.45966 0.0
Li704 Li 0.35015 0.0024 0.4008 0.0
Li705 Li 0.37239 0.97495 0.40912 0.0
Li706 Li 0.37407 0.98621 0.3801 0.0
Li707 Li 0.32959 0.95163 0.39357 0.0
C708 C 0.41304 0.02931 0.4082 0.0
N709 N 0.45965 0.06003 0.42819 0.0
C710 C 0.40998 0.03575 0.42492 0.0
C711 C 0.43978 0.0387 0.40157 0.0
C712 C 0.43381 0.05122 0.43485 0.0
C713 C 0.46309 0.05419 0.4119 0.0
C714 C 0.31438 0.95338 0.4272 0.0
C715 C 0.29048 0.91274 0.44526 0.0
N716 N 0.2704 0.91954 0.44848 0.0
C717 C 0.29377 0.96022 0.43092 0.0
C718 C 0.31297 0.92968 0.43462 0.0
C719 C 0.2716 0.94274 0.44161 0.0
C720 C 0.3139 0.02305 0.39999 0.0
N721 N 0.34054 0.03029 0.40417 0.0
C722 C 0.35331 0.07834 0.40664 0.0
C723 C 0.36007 0.05716 0.40784 0.0
C724 C 0.32636 0.07173 0.40137 0.0
C725 C 0.30626 0.04352 0.39858 0.0
H726 H 0.29909 0.00158 0.39669 0.0
H727 H 0.38127 0.06241 0.41074 0.0
C728 C 0.4214 0.97763 0.42048 0.0
N729 N 0.39608 0.97284 0.42606 0.0
C730 C 0.44148 0.97956 0.4319 0.0
C731 C 0.40919 0.97153 0.45483 0.0
C732 C 0.38963 0.96977 0.44288 0.0
C733 C 0.43562 0.97664 0.44936 0.0
H734 H 0.42644 0.98116 0.40713 0.0
H735 H 0.36967 0.9668 0.44706 0.0
C736 C 0.33324 0.98729 0.36217 0.0
N737 N 0.32785 0.99577 0.32818 0.0
C738 C 0.32634 0.96574 0.35052 0.0
C739 C 0.3374 0.01315 0.35657 0.0
C740 C 0.32371 0.97045 0.33338 0.0
C741 C 0.33457 0.01702 0.33932 0.0
C742 C 0.36859 0.92838 0.39484 0.0
C743 C 0.39409 0.92994 0.39108 0.0
C744 C 0.34826 0.90547 0.40398 0.0
C745 C 0.3991 0.90893 0.39693 0.0
C746 C 0.35402 0.88485 0.40959 0.0
N747 N 0.37914 0.88702 0.40601 0.0
C748 C 0.40599 0.0232 0.35384 0.0
C749 C 0.4027 0.97872 0.35303 0.0
C750 C 0.42506 0.03264 0.3404 0.0
N751 N 0.39574 0.99686 0.36004 0.0
C752 C 0.42217 0.98745 0.33986 0.0
C753 C 0.43422 0.01502 0.33359 0.0
H754 H 0.40003 0.03716 0.35972 0.0
H755 H 0.39399 0.95781 0.35814 0.0
C756 C 0.27178 0.92452 0.3919 0.0
N757 N 0.29381 0.92083 0.38838 0.0
C758 C 0.24512 0.90545 0.38605 0.0
C759 C 0.26425 0.87926 0.37268 0.0
C760 C 0.29061 0.89874 0.37901 0.0
C761 C 0.24117 0.88272 0.37606 0.0
H762 H 0.27518 0.94312 0.39848 0.0
H763 H 0.30869 0.89696 0.37577 0.0
O764 O 0.38996 0.01357 0.39842 0.0
O765 O 0.3362 0.97025 0.41671 0.0
O766 O 0.33642 0.98326 0.37894 0.0
O767 O 0.36333 0.94884 0.38929 0.0
H768 H 0.38937 0.02847 0.43024 0.0
H769 H 0.44244 0.03384 0.38864 0.0
H770 H 0.43176 0.05615 0.44787 0.0
H771 H 0.48392 0.06147 0.40698 0.0
H772 H 0.28907 0.89427 0.45103 0.0
H773 H 0.29478 0.97874 0.42553 0.0
H774 H 0.32921 0.92458 0.43237 0.0
H775 H 0.25536 0.94766 0.44446 0.0
H776 H 0.36938 0.09982 0.40897 0.0
H777 H 0.28544 0.0375 0.39415 0.0
H778 H 0.46179 0.98432 0.42711 0.0
H779 H 0.40379 0.96913 0.46817 0.0
H780 H 0.3233 0.94569 0.35467 0.0
H781 H 0.34293 0.03009 0.36544 0.0
H782 H 0.31845 0.95399 0.3242 0.0
H783 H 0.33778 0.03694 0.33478 0.0
H784 H 0.41003 0.94737 0.38389 0.0
H785 H 0.32815 0.9035 0.40663 0.0
H786 H 0.41886 0.91006 0.39425 0.0
H787 H 0.3385 0.86708 0.41675 0.0
H788 H 0.43315 0.05381 0.33579 0.0
H789 H 0.42869 0.97309 0.33533 0.0
H790 H 0.22805 0.90932 0.38855 0.0
H791 H 0.26205 0.86208 0.36493 0.0
Li792 Li 0.33977 0.30956 0.27498 0.0
Li793 Li 0.28877 0.28624 0.27475 0.0
Li794 Li 0.31319 0.2627 0.28526 0.0
Li795 Li 0.31588 0.27102 0.25474 0.0
C796 C 0.32315 0.30825 0.30946 0.0
N797 N 0.34262 0.33337 0.34061 0.0
C798 C 0.31193 0.32337 0.31702 0.0
C799 C 0.34409 0.30569 0.31779 0.0
C800 C 0.32211 0.33598 0.33276 0.0
C801 C 0.3537 0.3186 0.33352 0.0
C802 C 0.33016 0.33426 0.24993 0.0
C803 C 0.36307 0.36866 0.23036 0.0
N804 N 0.36234 0.38924 0.23943 0.0
C805 C 0.32962 0.35574 0.25901 0.0
C806 C 0.34692 0.34072 0.23545 0.0
C807 C 0.34608 0.38341 0.25352 0.0
C808 C 0.39588 0.34858 0.26823 0.0
N809 N 0.37343 0.34435 0.27763 0.0
C810 C 0.40022 0.38892 0.29085 0.0
C811 C 0.37499 0.3641 0.28856 0.0
C812 C 0.42405 0.39354 0.28172 0.0
C813 C 0.42157 0.37314 0.27011 0.0
H814 H 0.39386 0.33267 0.25941 0.0
H815 H 0.35669 0.3606 0.29554 0.0
C816 C 0.24238 0.27769 0.29308 0.0
N817 N 0.25829 0.29172 0.27943 0.0
C818 C 0.22318 0.28455 0.29974 0.0
C819 C 0.23709 0.32023 0.27812 0.0
C820 C 0.25549 0.31211 0.27159 0.0
C821 C 0.22105 0.30686 0.29268 0.0
H822 H 0.2457 0.26217 0.29937 0.0
H823 H 0.26865 0.32315 0.26086 0.0
C824 C 0.36641 0.27184 0.27334 0.0
N825 N 0.40772 0.25847 0.27914 0.0
C826 C 0.36693 0.25054 0.26402 0.0
C827 C 0.38716 0.28659 0.28543 0.0
C828 C 0.38791 0.24402 0.26719 0.0
C829 C 0.4078 0.27945 0.28822 0.0
C830 C 0.26914 0.21967 0.27287 0.0
C831 C 0.28092 0.20388 0.26713 0.0
C832 C 0.24558 0.20721 0.28339 0.0
C833 C 0.26904 0.1759 0.27212 0.0
C834 C 0.23433 0.17917 0.28812 0.0
N835 N 0.24621 0.16424 0.28245 0.0
C836 C 0.29587 0.23696 0.31706 0.0
C837 C 0.32217 0.2213 0.30151 0.0
C838 C 0.29385 0.22013 0.33084 0.0
N839 N 0.31033 0.23767 0.30291 0.0
C840 C 0.32061 0.20411 0.31494 0.0
C841 C 0.30666 0.20369 0.32995 0.0
H842 H 0.28612 0.24974 0.31771 0.0
H843 H 0.33261 0.22132 0.28996 0.0
C844 C 0.34696 0.27161 0.22729 0.0
N845 N 0.32037 0.25819 0.2334 0.0
C846 C 0.35385 0.26159 0.21295 0.0
C847 C 0.30561 0.22444 0.21113 0.0
C848 C 0.29962 0.23528 0.22554 0.0
C849 C 0.33316 0.23741 0.20483 0.0
H850 H 0.3631 0.28946 0.23404 0.0
H851 H 0.2787 0.22488 0.23081 0.0
O852 O 0.31333 0.29575 0.29407 0.0
O853 O 0.31474 0.30712 0.25537 0.0
O854 O 0.34624 0.27876 0.27021 0.0
O855 O 0.28105 0.24732 0.2685 0.0
H856 H 0.29562 0.32545 0.31073 0.0
H857 H 0.35258 0.29362 0.31227 0.0
H858 H 0.3137 0.34784 0.33874 0.0
H859 H 0.3699 0.31679 0.34011 0.0
H860 H 0.37621 0.37397 0.2192 0.0
H861 H 0.31714 0.35116 0.27042 0.0
H862 H 0.34749 0.32437 0.22824 0.0
H863 H 0.34607 0.40025 0.26051 0.0
H864 H 0.40121 0.40394 0.30006 0.0
H865 H 0.43933 0.37604 0.26266 0.0
H866 H 0.21091 0.27305 0.31067 0.0
H867 H 0.23667 0.33778 0.27229 0.0
H868 H 0.35113 0.23895 0.25456 0.0
H869 H 0.38756 0.30359 0.29246 0.0
H870 H 0.38843 0.22746 0.26016 0.0
H871 H 0.42395 0.29068 0.29756 0.0
H872 H 0.29934 0.21326 0.25915 0.0
H873 H 0.2361 0.21902 0.2879 0.0
H874 H 0.27808 0.16352 0.26787 0.0
H875 H 0.21617 0.16929 0.29631 0.0
H876 H 0.28286 0.2204 0.34216 0.0
H877 H 0.33006 0.19112 0.3135 0.0
H878 H 0.37542 0.27199 0.20873 0.0
H879 H 0.289 0.20588 0.20516 0.0
Li880 Li 0.71716 0.03516 0.25655 0.0
Li881 Li 0.72278 0.04719 0.28655 0.0
Li882 Li 0.69851 0.99717 0.27913 0.0
Li883 Li 0.67752 0.02581 0.2743 0.0
C884 C 0.75271 0.01543 0.26638 0.0
N885 N 0.7812 0.99218 0.25089 0.0
C886 C 0.78151 0.02723 0.26879 0.0
C887 C 0.73837 0.99175 0.25612 0.0
C888 C 0.79555 0.01519 0.26082 0.0
C889 C 0.75316 0.98031 0.24841 0.0
C890 C 0.72507 0.09002 0.27165 0.0
C891 C 0.73206 0.13059 0.28726 0.0
N892 N 0.7572 0.14622 0.27942 0.0
C893 C 0.75094 0.10649 0.26371 0.0
C894 C 0.71549 0.10216 0.28348 0.0
C895 C 0.76687 0.13486 0.26781 0.0
C896 C 0.72048 0.06318 0.22736 0.0
N897 N 0.73277 0.04975 0.23468 0.0
C898 C 0.76783 0.06662 0.21294 0.0
C899 C 0.75591 0.05093 0.22773 0.0
C900 C 0.756 0.08147 0.2054 0.0
C901 C 0.73175 0.0792 0.21275 0.0
H902 H 0.70262 0.06262 0.23342 0.0
H903 H 0.76577 0.04062 0.2339 0.0
C904 C 0.73906 0.07487 0.3183 0.0
N905 N 0.74809 0.07314 0.30255 0.0
C906 C 0.75765 0.09405 0.33003 0.0
C907 C 0.79462 0.10888 0.30921 0.0
C908 C 0.77532 0.08936 0.2979 0.0
C909 C 0.78582 0.11148 0.3255 0.0
H910 H 0.71745 0.06137 0.32178 0.0
H911 H 0.78198 0.08716 0.28536 0.0
C912 C 0.65362 0.98571 0.25155 0.0
N913 N 0.59958 0.95894 0.23917 0.0
C914 C 0.633 0.96116 0.25926 0.0
C915 C 0.64682 0.99657 0.23748 0.0
C916 C 0.60578 0.94794 0.25282 0.0
C917 C 0.61936 0.98276 0.23144 0.0
C918 C 0.66588 0.00917 0.30664 0.0
C919 C 0.64806 0.98106 0.31094 0.0
C920 C 0.6605 0.02965 0.31304 0.0
C921 C 0.62513 0.97394 0.32153 0.0
C922 C 0.63732 0.02166 0.32355 0.0
N923 N 0.62026 0.99421 0.32755 0.0
C924 C 0.70423 0.96708 0.30427 0.0
C925 C 0.67799 0.93691 0.28173 0.0
C926 C 0.6976 0.94431 0.3148 0.0
N927 N 0.69358 0.96306 0.28833 0.0
C928 C 0.67107 0.91335 0.29185 0.0
C929 C 0.68009 0.91708 0.30881 0.0
H930 H 0.71646 0.98814 0.30916 0.0
H931 H 0.66975 0.93429 0.269 0.0
C932 C 0.64472 0.05061 0.26784 0.0
N933 N 0.64324 0.02677 0.27382 0.0
C934 C 0.6217 0.05452 0.26915 0.0
C935 C 0.5954 0.00849 0.28172 0.0
C936 C 0.61888 0.00543 0.28008 0.0
C937 C 0.59687 0.03365 0.27668 0.0
H938 H 0.66409 0.06702 0.26252 0.0
H939 H 0.61794 0.98648 0.28452 0.0
O940 O 0.7388 0.02709 0.27412 0.0
O941 O 0.70944 0.06204 0.26813 0.0
O942 O 0.68032 0.99907 0.25776 0.0
O943 O 0.6885 0.01658 0.29631 0.0
H944 H 0.79289 0.04555 0.2767 0.0
H945 H 0.7161 0.98228 0.25409 0.0
H946 H 0.81785 0.02414 0.26255 0.0
H947 H 0.74235 0.96201 0.24043 0.0
H948 H 0.72496 0.14023 0.29645 0.0
H949 H 0.75888 0.09742 0.25468 0.0
H950 H 0.69554 0.08973 0.28975 0.0
H951 H 0.78701 0.14782 0.26184 0.0
H952 H 0.78638 0.06752 0.20767 0.0
H953 H 0.72219 0.09072 0.20777 0.0
H954 H 0.74995 0.0955 0.34241 0.0
H955 H 0.81625 0.12161 0.30529 0.0
H956 H 0.63778 0.95271 0.27032 0.0
H957 H 0.66253 0.01549 0.23133 0.0
H958 H 0.58956 0.92904 0.25874 0.0
H959 H 0.61377 0.99099 0.2206 0.0
H960 H 0.6516 0.96483 0.30601 0.0
H961 H 0.67383 0.05144 0.30971 0.0
H962 H 0.61113 0.95227 0.32489 0.0
H963 H 0.63282 0.03728 0.32848 0.0
H964 H 0.70517 0.94797 0.32775 0.0
H965 H 0.6575 0.89258 0.28682 0.0
H966 H 0.62359 0.07401 0.26477 0.0
H967 H 0.57683 0.99188 0.28774 0.0
Li968 Li 0.95104 0.68348 0.28735 0.0
Li969 Li 0.97771 0.66552 0.27085 0.0
Li970 Li 0.99719 0.71447 0.27607 0.0
Li971 Li 0.95938 0.69178 0.25639 0.0
C972 C 0.00753 0.69332 0.30412 0.0
N973 N 0.05237 0.71341 0.32616 0.0
C974 C 0.02847 0.68644 0.30174 0.0
C975 C 0.00938 0.71036 0.31775 0.0
C976 C 0.05098 0.69683 0.31301 0.0
C977 C 0.0322 0.72031 0.32875 0.0
C978 C 0.91919 0.6279 0.27005 0.0
C979 C 0.88738 0.58321 0.25746 0.0
N980 N 0.88135 0.57128 0.27314 0.0
C981 C 0.91238 0.61524 0.28606 0.0
C982 C 0.90635 0.61182 0.25563 0.0
C983 C 0.89334 0.58658 0.28735 0.0
C984 C 0.9022 0.67794 0.30191 0.0
N985 N 0.9258 0.67696 0.30532 0.0
C986 C 0.91437 0.66962 0.33482 0.0
C987 C 0.93195 0.67243 0.3213 0.0
C988 C 0.89006 0.67099 0.33173 0.0
C989 C 0.8838 0.6748 0.31501 0.0
H990 H 0.89794 0.6816 0.28905 0.0
H991 H 0.9506 0.67121 0.32357 0.0
C992 C 0.00071 0.63132 0.25885 0.0
N993 N 0.98493 0.63504 0.27073 0.0
C994 C 0.00643 0.60947 0.26049 0.0
C995 C 0.98016 0.59605 0.2867 0.0
C996 C 0.97494 0.61807 0.28454 0.0
C997 C 0.99622 0.59158 0.27462 0.0
H998 H 0.0097 0.64563 0.24836 0.0
H999 H 0.9638 0.62233 0.29427 0.0
C1000 C 0.96945 0.74354 0.26689 0.0
N1001 N 0.98069 0.79298 0.25127 0.0
C1002 C 0.99046 0.75567 0.25457 0.0
C1003 C 0.95416 0.75654 0.27126 0.0
C1004 C 0.99582 0.78066 0.24682 0.0
C1005 C 0.96017 0.78154 0.26322 0.0
C1006 C 0.0008 0.68712 0.23889 0.0
C1007 C 0.02605 0.70128 0.22999 0.0
C1008 C 0.97831 0.66322 0.23184 0.0
C1009 C 0.02842 0.69118 0.2142 0.0
C1010 C 0.98148 0.6538 0.21601 0.0
N1011 N 0.00627 0.66785 0.20759 0.0
C1012 C 0.05545 0.74699 0.28118 0.0
C1013 C 0.0287 0.76557 0.29304 0.0
C1014 C 0.07851 0.7649 0.2911 0.0
N1015 N 0.03087 0.74681 0.28295 0.0
C1016 C 0.05128 0.78403 0.30303 0.0
C1017 C 0.07609 0.78276 0.30283 0.0
H1018 H 0.05632 0.73138 0.27332 0.0
H1019 H 0.00874 0.76455 0.2945 0.0
C1020 C 0.91245 0.67824 0.23714 0.0
N1021 N 0.94084 0.6929 0.23639 0.0
C1022 C 0.89663 0.67431 0.22256 0.0
C1023 C 0.93961 0.7015 0.20679 0.0
C1024 C 0.95462 0.70516 0.22175 0.0
C1025 C 0.91024 0.68543 0.20705 0.0
H1026 H 0.90212 0.6687 0.24898 0.0
H1027 H 0.97723 0.71685 0.22153 0.0
O1028 O 0.98547 0.68359 0.29311 0.0
O1029 O 0.93765 0.65601 0.26851 0.0
O1030 O 0.96355 0.71893 0.27459 0.0
O1031 O 0.99807 0.69723 0.25418 0.0
H1032 H 0.02756 0.6735 0.29119 0.0
H1033 H 0.99359 0.71625 0.31965 0.0
H1034 H 0.0674 0.69179 0.31127 0.0
H1035 H 0.03396 0.73362 0.33929 0.0
H1036 H 0.87737 0.57052 0.2464 0.0
H1037 H 0.92194 0.62733 0.29736 0.0
H1038 H 0.9108 0.6213 0.24316 0.0
H1039 H 0.88809 0.5765 0.29966 0.0
H1040 H 0.91967 0.66639 0.34753 0.0
H1041 H 0.86531 0.67615 0.31218 0.0
H1042 H 0.01911 0.60691 0.25096 0.0
H1043 H 0.97268 0.58341 0.2981 0.0
H1044 H 0.00254 0.74596 0.251 0.0
H1045 H 0.93779 0.74736 0.28075 0.0
H1046 H 0.01201 0.79027 0.23726 0.0
H1047 H 0.94849 0.79183 0.26647 0.0
H1048 H 0.0436 0.71993 0.23523 0.0
H1049 H 0.95869 0.65206 0.23854 0.0
H1050 H 0.04786 0.70192 0.20717 0.0
H1051 H 0.96423 0.63532 0.21043 0.0
H1052 H 0.09711 0.76303 0.29061 0.0
H1053 H 0.04869 0.79785 0.31163 0.0
H1054 H 0.87405 0.66161 0.22327 0.0
H1055 H 0.95083 0.71065 0.19509 0.0
Li1056 Li 0.68801 0.73831 0.711 0.0
Li1057 Li 0.68882 0.73369 0.74202 0.0
Li1058 Li 0.71503 0.71959 0.72253 0.0
Li1059 Li 0.66471 0.69101 0.72421 0.0
C1060 C 0.7333 0.78453 0.72076 0.0
N1061 N 0.75691 0.83856 0.70832 0.0
C1062 C 0.73256 0.8054 0.7304 0.0
C1063 C 0.7465 0.7913 0.70491 0.0
C1064 C 0.74452 0.83255 0.72386 0.0
C1065 C 0.75816 0.81867 0.6988 0.0
C1066 C 0.62996 0.71731 0.7249 0.0
C1067 C 0.58631 0.71017 0.73635 0.0
N1068 N 0.57661 0.70878 0.72031 0.0
C1069 C 0.61962 0.71601 0.70854 0.0
C1070 C 0.61324 0.71455 0.73893 0.0
C1071 C 0.59258 0.71159 0.70648 0.0
C1072 C 0.68762 0.75523 0.67715 0.0
N1073 N 0.68487 0.76046 0.69367 0.0
C1074 C 0.67907 0.79903 0.68582 0.0
C1075 C 0.68026 0.78157 0.6982 0.0
C1076 C 0.68254 0.79457 0.66865 0.0
C1077 C 0.68668 0.77223 0.66436 0.0
H1078 H 0.69055 0.73789 0.67389 0.0
H1079 H 0.6779 0.78503 0.71145 0.0
C1080 C 0.69292 0.74488 0.77799 0.0
N1081 N 0.68577 0.75018 0.76249 0.0
C1082 C 0.68746 0.7557 0.79262 0.0
C1083 C 0.66872 0.77825 0.77493 0.0
C1084 C 0.67409 0.76665 0.76073 0.0
C1085 C 0.67505 0.77248 0.79114 0.0
H1086 H 0.70233 0.73185 0.77906 0.0
H1087 H 0.66852 0.7704 0.74823 0.0
C1088 C 0.6982 0.69326 0.6922 0.0
N1089 N 0.72015 0.67068 0.6698 0.0
C1090 C 0.68664 0.66423 0.69112 0.0
C1091 C 0.72079 0.71076 0.68174 0.0
C1092 C 0.69806 0.65324 0.67974 0.0
C1093 C 0.73164 0.69896 0.67054 0.0
C1094 C 0.67928 0.6842 0.75737 0.0
C1095 C 0.69282 0.6745 0.76804 0.0
C1096 C 0.65256 0.67917 0.76161 0.0
C1097 C 0.67939 0.65995 0.78283 0.0
C1098 C 0.63984 0.66456 0.77651 0.0
N1099 N 0.65341 0.65533 0.78673 0.0
C1100 C 0.77142 0.73993 0.71322 0.0
C1101 C 0.74366 0.69068 0.71618 0.0
C1102 C 0.79169 0.73714 0.70425 0.0
N1103 N 0.74739 0.71679 0.71816 0.0
C1104 C 0.76314 0.68687 0.70702 0.0
C1105 C 0.78687 0.71026 0.70012 0.0
H1106 H 0.77394 0.76046 0.7151 0.0
H1107 H 0.72419 0.67266 0.72016 0.0
C1108 C 0.61419 0.64855 0.71045 0.0
N1109 N 0.63439 0.65358 0.72202 0.0
C1110 C 0.594 0.62116 0.70641 0.0
C1111 C 0.61556 0.60446 0.72637 0.0
C1112 C 0.63535 0.63221 0.73003 0.0
C1113 C 0.59487 0.59867 0.71416 0.0
H1114 H 0.61466 0.66571 0.70362 0.0
H1115 H 0.65224 0.63655 0.73864 0.0
O1116 O 0.72123 0.75767 0.72683 0.0
O1117 O 0.65662 0.72221 0.72721 0.0
O1118 O 0.68746 0.70442 0.70343 0.0
O1119 O 0.69235 0.69872 0.74295 0.0
H1120 H 0.72293 0.80073 0.74281 0.0
H1121 H 0.74733 0.77549 0.69727 0.0
H1122 H 0.74396 0.84886 0.73116 0.0
H1123 H 0.76813 0.82409 0.68647 0.0
H1124 H 0.57313 0.70794 0.74709 0.0
H1125 H 0.63219 0.71801 0.69752 0.0
H1126 H 0.62096 0.71585 0.75171 0.0
H1127 H 0.58428 0.71037 0.69389 0.0
H1128 H 0.67602 0.81616 0.68966 0.0
H1129 H 0.68894 0.76781 0.65125 0.0
H1130 H 0.69278 0.75096 0.80493 0.0
H1131 H 0.65888 0.79086 0.77329 0.0
H1132 H 0.66917 0.65029 0.69904 0.0
H1133 H 0.73015 0.73324 0.68242 0.0
H1134 H 0.68939 0.63083 0.67886 0.0
H1135 H 0.7493 0.71229 0.66253 0.0
H1136 H 0.71352 0.67824 0.76493 0.0
H1137 H 0.64173 0.68634 0.75346 0.0
H1138 H 0.68963 0.65234 0.79122 0.0
H1139 H 0.61917 0.66053 0.77994 0.0
H1140 H 0.81011 0.75582 0.69974 0.0
H1141 H 0.75831 0.66573 0.70416 0.0
H1142 H 0.5789 0.61769 0.69658 0.0
H1143 H 0.61702 0.58773 0.73261 0.0
Li1144 Li 0.31322 0.97292 0.73493 0.0
Li1145 Li 0.28401 0.99251 0.72869 0.0
Li1146 Li 0.2693 0.95314 0.74874 0.0
Li1147 Li 0.27009 0.94543 0.71868 0.0
C1148 C 0.32576 0.00835 0.75917 0.0
N1149 N 0.37691 0.04028 0.77487 0.0
C1150 C 0.34258 0.03664 0.75501 0.0
C1151 C 0.33481 0.99639 0.77146 0.0
C1152 C 0.3684 0.05241 0.76305 0.0
C1153 C 0.36077 0.01284 0.77921 0.0
C1154 C 0.29938 0.98733 0.696 0.0
C1155 C 0.27014 0.99129 0.67471 0.0
N1156 N 0.29125 -0.00029 0.66322 0.0
C1157 C 0.32071 0.99586 0.68394 0.0
C1158 C 0.2738 0.98486 0.69132 0.0
C1159 C 0.31622 0.00208 0.66745 0.0
C1160 C 0.36032 0.96805 0.74555 0.0
N1161 N 0.35114 0.98164 0.73534 0.0
C1162 C 0.39455 0.00395 0.72037 0.0
C1163 C 0.36794 4e-05 0.72333 0.0
C1164 C 0.4044 0.98934 0.73021 0.0
C1165 C 0.38719 0.97203 0.74342 0.0
H1166 H 0.34655 0.9535 0.75501 0.0
H1167 H 0.36012 0.01066 0.71546 0.0
C1168 C 0.2649 0.03228 0.72146 0.0
N1169 N 0.28654 0.02708 0.72148 0.0
C1170 C 0.26811 0.05678 0.71404 0.0
C1171 C 0.31569 0.07011 0.70677 0.0
C1172 C 0.31167 0.04557 0.71445 0.0
C1173 C 0.29367 0.07587 0.70636 0.0
H1174 H 0.2449 0.01724 0.72673 0.0
H1175 H 0.32847 0.04086 0.71444 0.0
C1176 C 0.27503 0.90802 0.74532 0.0
N1177 N 0.25214 0.85791 0.76291 0.0
C1178 C 0.25305 0.88367 0.73828 0.0
C1179 C 0.28555 0.90676 0.76123 0.0
C1180 C 0.24175 0.85856 0.74738 0.0
C1181 C 0.27361 0.88128 0.76996 0.0
C1182 C 0.22729 0.96371 0.73743 0.0
C1183 C 0.23296 0.97801 0.75287 0.0
C1184 C 0.20212 0.95587 0.72906 0.0
C1185 C 0.21332 0.98424 0.75965 0.0
C1186 C 0.18305 0.96253 0.73625 0.0
N1187 N 0.18899 0.97645 0.75127 0.0
C1188 C 0.25865 0.94073 0.78441 0.0
C1189 C 0.22403 0.90904 0.76545 0.0
C1190 C 0.24566 0.92225 0.79795 0.0
N1191 N 0.24824 0.93335 0.76846 0.0
C1192 C 0.21054 0.88984 0.77855 0.0
C1193 C 0.22185 0.8959 0.79501 0.0
H1194 H 0.27769 0.96035 0.78652 0.0
H1195 H 0.21625 0.90372 0.75261 0.0
C1196 C 0.27096 0.91455 0.69092 0.0
N1197 N 0.25401 0.92027 0.70054 0.0
C1198 C 0.25981 0.89534 0.67766 0.0
C1199 C 0.21411 0.88876 0.68435 0.0
C1200 C 0.22614 0.90807 0.69749 0.0
C1201 C 0.23099 0.882 0.67434 0.0
H1202 H 0.2931 0.92475 0.69369 0.0
H1203 H 0.21325 0.91299 0.70546 0.0
O1204 O 0.30057 0.99246 0.75125 0.0
O1205 O 0.30353 0.98114 0.71221 0.0
O1206 O 0.28601 0.93293 0.73674 0.0
O1207 O 0.24598 0.95708 0.73052 0.0
H1208 H 0.33577 0.04638 0.74574 0.0
H1209 H 0.3222 0.97451 0.77477 0.0
H1210 H 0.38167 0.07431 0.75991 0.0
H1211 H 0.36813 0.00376 0.78863 0.0
H1212 H 0.25049 0.98956 0.67096 0.0
H1213 H 0.34053 0.99759 0.68724 0.0
H1214 H 0.25692 0.97812 0.70037 0.0
H1215 H 0.33258 0.00875 0.65801 0.0
H1216 H 0.40643 0.01716 0.70984 0.0
H1217 H 0.39392 0.96088 0.7517 0.0
H1218 H 0.25051 0.06033 0.71385 0.0
H1219 H 0.33584 0.08441 0.70118 0.0
H1220 H 0.24459 0.88413 0.72601 0.0
H1221 H 0.30228 0.92537 0.76699 0.0
H1222 H 0.22464 0.83961 0.74212 0.0
H1223 H 0.28131 0.88012 0.78237 0.0
H1224 H 0.25227 0.98434 0.75956 0.0
H1225 H 0.19741 0.94484 0.7171 0.0
H1226 H 0.21744 0.9953 0.77158 0.0
H1227 H 0.16352 0.95663 0.72989 0.0
H1228 H 0.25472 0.92822 0.81049 0.0
H1229 H 0.19244 0.86981 0.77555 0.0
H1230 H 0.27355 0.89086 0.67016 0.0
H1231 H 0.19172 0.8786 0.68241 0.0
Li1232 Li 0.03625 0.31599 0.75027 0.0
Li1233 Li 0.02056 0.34201 0.73488 0.0
Li1234 Li 0.9975 0.29147 0.7311 0.0
Li1235 Li 0.04743 0.32398 0.72048 0.0
C1236 C 0.98245 0.29787 0.76504 0.0
N1237 N 0.94976 0.26816 0.79245 0.0
C1238 C 0.9753 0.31138 0.77738 0.0
C1239 C 0.97264 0.26919 0.76649 0.0
C1240 C 0.95885 0.29602 0.79118 0.0
C1241 C 0.95623 0.25455 0.78048 0.0
C1242 C 0.07145 0.37348 0.75046 0.0
C1243 C 0.11156 0.41365 0.76259 0.0
N1244 N 0.09491 0.41478 0.77492 0.0
C1245 C 0.05477 0.37506 0.76329 0.0
C1246 C 0.1001 0.39292 0.75014 0.0
C1247 C 0.06701 0.39607 0.77553 0.0
C1248 C 0.08215 0.3245 0.76898 0.0
N1249 N 0.05468 0.31647 0.77105 0.0
C1250 C 0.0602 0.3195 0.80122 0.0
C1251 C 0.0434 0.31351 0.78681 0.0
C1252 C 0.08871 0.3283 0.79934 0.0
C1253 C 0.09953 0.33016 0.78299 0.0
H1254 H 0.09094 0.32787 0.75636 0.0
H1255 H 0.0218 0.30775 0.78831 0.0
C1256 C 0.98518 0.36402 0.73764 0.0
N1257 N 0.01183 0.37091 0.73372 0.0
C1258 C 0.97492 0.38142 0.73262 0.0
C1259 C 0.02043 0.41357 0.72078 0.0
C1260 C 0.02983 0.39558 0.72608 0.0
C1261 C 0.99228 0.40592 0.72339 0.0
H1262 H 0.97129 0.344 0.74348 0.0
H1263 H 0.05075 0.40013 0.72286 0.0
C1264 C 0.04614 0.27568 0.73983 0.0
N1265 N 0.07619 0.25329 0.75441 0.0
C1266 C 0.07272 0.28303 0.73367 0.0
C1267 C 0.03471 0.2566 0.75325 0.0
C1268 C 0.08761 0.27156 0.74124 0.0
C1269 C 0.05027 0.24563 0.7605 0.0
C1270 C 0.00561 0.33589 0.70224 0.0
C1271 C 0.97805 0.33031 0.70084 0.0
C1272 C 0.02669 0.35746 0.69262 0.0
C1273 C 0.97208 0.34668 0.68998 0.0
C1274 C 0.01985 0.37331 0.68188 0.0
N1275 N 0.99293 0.36767 0.68081 0.0
C1276 C 0.93994 0.2647 0.72767 0.0
C1277 C 0.96091 0.24309 0.7122 0.0
C1278 C 0.91513 0.24968 0.71859 0.0
N1279 N 0.96241 0.26185 0.72392 0.0
C1280 C 0.93628 0.22734 0.70292 0.0
C1281 C 0.91352 0.23158 0.7056 0.0
H1282 H 0.94206 0.28044 0.73665 0.0
H1283 H 0.97943 0.24198 0.70913 0.0
C1284 C 0.09849 0.35447 0.70342 0.0
N1285 N 0.07296 0.33098 0.70261 0.0
C1286 C 0.11782 0.36092 0.69035 0.0
C1287 C 0.08416 0.31882 0.67582 0.0
C1288 C 0.06542 0.31321 0.6892 0.0
C1289 C 0.11076 0.34301 0.6763 0.0
H1290 H 0.10379 0.36822 0.71421 0.0
H1291 H 0.04482 0.29478 0.68889 0.0
O1292 O 0.9984 0.31266 0.75142 0.0
O1293 O 0.0601 0.35264 0.73855 0.0
O1294 O 0.03144 0.28702 0.73267 0.0
O1295 O 0.01205 0.32073 0.71324 0.0
H1296 H 0.98251 0.33354 0.77633 0.0
H1297 H 0.97736 0.2583 0.75684 0.0
H1298 H 0.9533 0.30623 0.80089 0.0
H1299 H 0.94853 0.23235 0.78179 0.0
H1300 H 0.1337 0.4288 0.76248 0.0
H1301 H 0.03265 0.36019 0.76392 0.0
H1302 H 0.11346 0.39193 0.74045 0.0
H1303 H 0.05432 0.39746 0.78552 0.0
H1304 H 0.05119 0.31792 0.81367 0.0
H1305 H 0.12154 0.3374 0.78103 0.0
H1306 H 0.95319 0.37494 0.73503 0.0
H1307 H 0.03441 0.43206 0.71351 0.0
H1308 H 0.08194 0.29764 0.72327 0.0
H1309 H 0.01417 0.25046 0.75816 0.0
H1310 H 0.10827 0.27724 0.73667 0.0
H1311 H 0.04175 0.23103 0.77098 0.0
H1312 H 0.9615 0.31385 0.70825 0.0
H1313 H 0.04816 0.36222 0.69364 0.0
H1314 H 0.95089 0.34277 0.6889 0.0
H1315 H 0.03599 0.3902 0.67445 0.0
H1316 H 0.89796 0.25345 0.72098 0.0
H1317 H 0.93584 0.21377 0.69286 0.0
H1318 H 0.13824 0.37952 0.6914 0.0
H1319 H 0.07784 0.30457 0.66517 0.0
Li1320 Li 0.95452 0.62818 0.60327 0.0
Li1321 Li 0.00455 0.64764 0.6007 0.0
Li1322 Li 0.97653 0.61128 0.58024 0.0
Li1323 Li 0.97727 0.60095 0.61012 0.0
C1324 C 0.99246 0.67635 0.5789 0.0
N1325 N 0.02153 0.73259 0.57063 0.0
C1326 C 0.98635 0.69509 0.58713 0.0
C1327 C 0.01321 0.68617 0.56639 0.0
C1328 C 0.0013 0.72345 0.58277 0.0
C1329 C 0.02773 0.71469 0.56243 0.0
C1330 C 0.99759 0.65202 0.63396 0.0
C1331 C 0.03723 0.66883 0.65275 0.0
N1332 N 0.03137 0.68834 0.65893 0.0
C1333 C 0.99186 0.67213 0.64058 0.0
C1334 C 0.02035 0.65024 0.64017 0.0
C1335 C 0.00922 0.69032 0.65317 0.0
C1336 C 0.92066 0.63219 0.62728 0.0
N1337 N 0.92576 0.63519 0.61033 0.0
C1338 C 0.89468 0.65319 0.60683 0.0
C1339 C 0.91284 0.64493 0.59997 0.0
C1340 C 0.89008 0.6516 0.62449 0.0
C1341 C 0.90306 0.64045 0.63466 0.0
H1342 H 0.93133 0.6245 0.63522 0.0
H1343 H 0.91735 0.64716 0.58652 0.0
C1344 C 0.06299 0.68125 0.59695 0.0
N1345 N 0.03982 0.68128 0.60276 0.0
C1346 C 0.08953 0.70428 0.59977 0.0
C1347 C 0.06773 0.72744 0.61376 0.0
C1348 C 0.04168 0.70417 0.61044 0.0
C1349 C 0.09221 0.72749 0.60875 0.0
H1350 H 0.0609 0.66308 0.59043 0.0
H1351 H 0.02298 0.7041 0.61448 0.0
C1352 C 0.92544 0.56277 0.60122 0.0
N1353 N 0.89025 0.50955 0.61371 0.0
C1354 C 0.92202 0.53932 0.59236 0.0
C1355 C 0.91083 0.55913 0.61637 0.0
C1356 C 0.90415 0.5126 0.59889 0.0
C1357 C 0.8932 0.53206 0.6225 0.0
C1358 C 0.02111 0.60015 0.59524 0.0
C1359 C 0.01291 0.57662 0.585 0.0
C1360 C 0.04278 0.60781 0.60691 0.0
C1361 C 0.02625 0.56092 0.58681 0.0
C1362 C 0.05557 0.59155 0.60836 0.0
N1363 N 0.0471 0.56862 0.59837 0.0
C1364 C 0.00416 0.61255 0.55136 0.0
C1365 C 0.95647 0.57697 0.55009 0.0
C1366 C 0.01026 0.60226 0.53686 0.0
N1367 N 0.97785 0.59947 0.55789 0.0
C1368 C 0.9617 0.56578 0.53553 0.0
C1369 C 0.98909 0.57809 0.52901 0.0
H1370 H 0.02088 0.62985 0.55815 0.0
H1371 H 0.93576 0.56689 0.55562 0.0
C1372 C 0.9736 0.57735 0.64252 0.0
N1373 N 0.97422 0.5728 0.6256 0.0
C1374 C 0.97038 0.557 0.65427 0.0
C1375 C 0.96724 0.5271 0.63099 0.0
C1376 C 0.97108 0.54823 0.61972 0.0
C1377 C 0.96695 0.53148 0.64848 0.0
H1378 H 0.97512 0.59656 0.64693 0.0
H1379 H 0.97088 0.54469 0.60626 0.0
O1380 O 0.97831 0.64857 0.58317 0.0
O1381 O 0.98099 0.63413 0.6215 0.0
O1382 O 0.94323 0.58914 0.59521 0.0
O1383 O 0.00846 0.61597 0.59358 0.0
H1384 H 0.97058 0.68792 0.59697 0.0
H1385 H 0.01819 0.67197 0.5599 0.0
H1386 H 0.99693 0.73822 0.58911 0.0
H1387 H 0.04395 0.72261 0.55283 0.0
H1388 H 0.05498 0.66774 0.65761 0.0
H1389 H 0.97458 0.67413 0.63581 0.0
H1390 H 0.02488 0.63462 0.63535 0.0
H1391 H 0.00516 0.70613 0.6583 0.0
H1392 H 0.88483 0.66123 0.59843 0.0
H1393 H 0.90076 0.63925 0.64833 0.0
H1394 H 0.10773 0.70362 0.59529 0.0
H1395 H 0.06853 0.7446 0.62087 0.0
H1396 H 0.93349 0.54171 0.58076 0.0
H1397 H 0.91334 0.577 0.62344 0.0
H1398 H 0.90147 0.49428 0.59223 0.0
H1399 H 0.88191 0.52896 0.63428 0.0
H1400 H 0.99605 0.57014 0.57599 0.0
H1401 H 0.04983 0.62624 0.6147 0.0
H1402 H 0.01993 0.54253 0.57907 0.0
H1403 H 0.07231 0.59721 0.61738 0.0
H1404 H 0.03175 0.61212 0.53251 0.0
H1405 H 0.94476 0.54722 0.52976 0.0
H1406 H 0.96992 0.56088 0.66771 0.0
H1407 H 0.96466 0.5076 0.6261 0.0
Li1408 Li 0.39288 0.374 0.61165 0.0
Li1409 Li 0.38299 0.3582 0.58263 0.0
Li1410 Li 0.34629 0.35179 0.60122 0.0
Li1411 Li 0.36737 0.32364 0.60636 0.0
C1412 C 0.39837 0.4133 0.5878 0.0
N1413 N 0.43949 0.46436 0.57531 0.0
C1414 C 0.42617 0.41938 0.58695 0.0
C1415 C 0.39153 0.43322 0.58231 0.0
C1416 C 0.44664 0.44529 0.58058 0.0
C1417 C 0.41261 0.45892 0.57605 0.0
C1418 C 0.41928 0.33835 0.5925 0.0
C1419 C 0.41797 0.30263 0.57429 0.0
N1420 N 0.4451 0.3114 0.57824 0.0
C1421 C 0.44711 0.34696 0.59642 0.0
C1422 C 0.40453 0.31597 0.58137 0.0
C1423 C 0.45981 0.33309 0.58905 0.0
C1424 C 0.43237 0.39044 0.63714 0.0
N1425 N 0.41907 0.4002 0.62715 0.0
C1426 C 0.44386 0.4452 0.64017 0.0
C1427 C 0.42404 0.42685 0.62862 0.0
C1428 C 0.45829 0.43586 0.65055 0.0
C1429 C 0.45203 0.40792 0.64903 0.0
H1430 H 0.42759 0.36897 0.63584 0.0
H1431 H 0.41277 0.43397 0.62078 0.0
C1432 C 0.38258 0.37823 0.55041 0.0
N1433 N 0.39765 0.37023 0.56018 0.0
C1434 C 0.39417 0.39399 0.5357 0.0
C1435 C 0.43646 0.39247 0.54102 0.0
C1436 C 0.42401 0.37664 0.55565 0.0
C1437 C 0.42174 0.40195 0.53105 0.0
H1438 H 0.36231 0.37419 0.55473 0.0
H1439 H 0.43614 0.37118 0.56389 0.0
C1440 C 0.3524 0.35625 0.63641 0.0
N1441 N 0.33868 0.37879 0.66353 0.0
C1442 C 0.34431 0.34195 0.65188 0.0
C1443 C 0.35347 0.38201 0.63472 0.0
C1444 C 0.33746 0.35369 0.66544 0.0
C1445 C 0.34647 0.39305 0.64858 0.0
C1446 C 0.31835 0.30808 0.58214 0.0
C1447 C 0.30006 0.28688 0.59316 0.0
C1448 C 0.30778 0.31443 0.56776 0.0
C1449 C 0.27142 0.2725 0.58965 0.0
C1450 C 0.279 0.29958 0.5647 0.0
N1451 N 0.26156 0.27911 0.57563 0.0
C1452 C 0.30634 0.36877 0.59397 0.0
C1453 C 0.29337 0.33389 0.61517 0.0
C1454 C 0.28203 0.37004 0.59697 0.0
N1455 N 0.31166 0.35119 0.60325 0.0
C1456 C 0.26902 0.33458 0.61867 0.0
C1457 C 0.26323 0.35316 0.60972 0.0
H1458 H 0.32129 0.38226 0.58453 0.0
H1459 H 0.29817 0.32013 0.62238 0.0
C1460 C 0.36986 0.29359 0.63296 0.0
N1461 N 0.36157 0.28984 0.61649 0.0
C1462 C 0.36215 0.27062 0.64353 0.0
C1463 C 0.33929 0.24009 0.61969 0.0
C1464 C 0.34724 0.26383 0.60953 0.0
C1465 C 0.34594 0.24347 0.63706 0.0
H1466 H 0.38127 0.31454 0.6381 0.0
H1467 H 0.34069 0.26147 0.59642 0.0
O1468 O 0.37768 0.38774 0.59344 0.0
O1469 O 0.4067 0.35181 0.59968 0.0
O1470 O 0.35901 0.34485 0.62301 0.0
O1471 O 0.3464 0.32276 0.58556 0.0
H1472 H 0.43194 0.40426 0.59106 0.0
H1473 H 0.3701 0.4288 0.5828 0.0
H1474 H 0.46819 0.45021 0.5798 0.0
H1475 H 0.40758 0.4745 0.57173 0.0
H1476 H 0.40683 0.28531 0.56564 0.0
H1477 H 0.45877 0.36423 0.60504 0.0
H1478 H 0.38299 0.30896 0.57818 0.0
H1479 H 0.48136 0.33956 0.59195 0.0
H1480 H 0.44815 0.4666 0.64069 0.0
H1481 H 0.46211 0.39955 0.65698 0.0
H1482 H 0.38224 0.40133 0.52866 0.0
H1483 H 0.45774 0.39806 0.53789 0.0
H1484 H 0.34323 0.32193 0.65339 0.0
H1485 H 0.35952 0.39335 0.62284 0.0
H1486 H 0.33115 0.34284 0.67749 0.0
H1487 H 0.34719 0.41295 0.64744 0.0
H1488 H 0.3078 0.28197 0.60448 0.0
H1489 H 0.3216 0.33068 0.55907 0.0
H1490 H 0.25701 0.2562 0.59814 0.0
H1491 H 0.27052 0.30435 0.55365 0.0
H1492 H 0.27827 0.38444 0.58963 0.0
H1493 H 0.25555 0.32155 0.62882 0.0
H1494 H 0.36796 0.27404 0.65681 0.0
H1495 H 0.32673 0.21942 0.61429 0.0
Li1496 Li 0.64416 0.00623 0.60082 0.0
Li1497 Li 0.62117 0.02355 0.61861 0.0
Li1498 Li 0.6267 0.03408 0.5878 0.0
Li1499 Li 0.66952 0.05493 0.60802 0.0
C1500 C 0.5821 0.97357 0.59569 0.0
N1501 N 0.53481 0.92328 0.58798 0.0
C1502 C 0.5648 0.95623 0.60867 0.0
C1503 C 0.57524 0.96539 0.57878 0.0
C1504 C 0.54103 0.93086 0.60452 0.0
C1505 C 0.55126 0.93989 0.57515 0.0
C1506 C 0.65919 0.00383 0.63263 0.0
C1507 C 0.68904 0.98906 0.64591 0.0
N1508 N 0.66631 0.96349 0.64901 0.0
C1509 C 0.63609 0.97752 0.63616 0.0
C1510 C 0.68587 0.00976 0.63768 0.0
C1511 C 0.64013 0.95736 0.64436 0.0
C1512 C 0.67742 0.98111 0.59928 0.0
N1513 N 0.65048 0.97532 0.5979 0.0
C1514 C 0.63386 0.92623 0.59903 0.0
C1515 C 0.6289 0.94849 0.59717 0.0
C1516 C 0.66127 0.93169 0.60164 0.0
C1517 C 0.68335 0.95947 0.60109 0.0
H1518 H 0.69414 0.0026 0.60024 0.0
H1519 H 0.60768 0.94419 0.59624 0.0
C1520 C 0.5714 0.01463 0.63387 0.0
N1521 N 0.59642 0.0164 0.63707 0.0
C1522 C 0.55304 0.01053 0.64716 0.0
C1523 C 0.58606 0.00905 0.6667 0.0
C1524 C 0.60411 0.01386 0.65307 0.0
C1525 C 0.56035 0.00759 0.66376 0.0
H1526 H 0.56589 0.01666 0.62099 0.0
H1527 H 0.6243 0.01577 0.65528 0.0
C1528 C 0.67602 0.0282 0.57333 0.0
N1529 N 0.69849 0.00701 0.55037 0.0
C1530 C 0.70501 0.03977 0.57217 0.0
C1531 C 0.6585 0.00613 0.56265 0.0
C1532 C 0.71596 0.02869 0.56052 0.0
C1533 C 0.67024 0.99562 0.55118 0.0
C1534 C 0.62463 0.073 0.61689 0.0
C1535 C 0.60292 0.07643 0.61053 0.0
C1536 C 0.63366 0.08076 0.6336 0.0
C1537 C 0.59036 0.08733 0.62109 0.0
C1538 C 0.62053 0.09153 0.64376 0.0
N1539 N 0.59932 0.09455 0.63735 0.0
C1540 C 0.58054 0.02843 0.57003 0.0
C1541 C 0.62091 0.04281 0.55297 0.0
C1542 C 0.56409 0.0239 0.55565 0.0
N1543 N 0.6082 0.03705 0.5684 0.0
C1544 C 0.60523 0.0385 0.53824 0.0
C1545 C 0.57625 0.02809 0.53946 0.0
H1546 H 0.57091 0.02333 0.58246 0.0
H1547 H 0.64288 0.0493 0.55206 0.0
C1548 C 0.72695 0.08164 0.61516 0.0
N1549 N 0.70467 0.0857 0.61416 0.0
C1550 C 0.75201 0.10206 0.62238 0.0
C1551 C 0.7309 0.13075 0.62697 0.0
C1552 C 0.70637 0.1099 0.61949 0.0
C1553 C 0.75402 0.12676 0.62884 0.0
H1554 H 0.7249 0.06206 0.61094 0.0
H1555 H 0.6883 0.11255 0.61858 0.0
O1556 O 0.60542 0.99853 0.59955 0.0
O1557 O 0.65574 0.02343 0.62396 0.0
O1558 O 0.66489 0.03859 0.58477 0.0
O1559 O 0.63664 0.0616 0.60692 0.0
H1560 H 0.56966 0.96222 0.62183 0.0
H1561 H 0.5882 0.97856 0.56854 0.0
H1562 H 0.5275 0.91721 0.61444 0.0
H1563 H 0.54573 0.9333 0.56212 0.0
H1564 H 0.70959 0.99329 0.64977 0.0
H1565 H 0.61533 0.97257 0.6323 0.0
H1566 H 0.70396 0.03003 0.63517 0.0
H1567 H 0.62248 0.9368 0.64696 0.0
H1568 H 0.61631 0.90501 0.59932 0.0
H1569 H 0.70473 0.96453 0.60333 0.0
H1570 H 0.53321 0.00929 0.6445 0.0
H1571 H 0.59227 0.00694 0.6794 0.0
H1572 H 0.7189 0.05712 0.58016 0.0
H1573 H 0.63607 0.99704 0.56334 0.0
H1574 H 0.73834 0.03735 0.55954 0.0
H1575 H 0.6569 0.9784 0.54293 0.0
H1576 H 0.59576 0.07062 0.59762 0.0
H1577 H 0.65027 0.07797 0.63876 0.0
H1578 H 0.57344 0.08999 0.61637 0.0
H1579 H 0.6271 0.09736 0.65676 0.0
H1580 H 0.5418 0.01552 0.55717 0.0
H1581 H 0.61547 0.04229 0.526 0.0
H1582 H 0.76938 0.09822 0.62322 0.0
H1583 H 0.7312 0.14919 0.63192 0.0
H1584 H 0.46946 0.01205 0.03118 0.0
H1585 H 0.42731 0.02923 0.99053 0.0
H1586 H 0.44851 0.01209 0.96951 0.0
H1587 H 0.53393 0.03516 0.00821 0.0
H1588 H 0.54039 0.00891 0.01727 0.0
H1589 H 0.52091 0.02139 0.0291 0.0
H1590 H 0.47986 0.97043 0.03229 0.0
H1591 H 0.49917 0.95782 0.02037 0.0
H1592 H 0.46467 0.94947 0.01358 0.0
H1593 H 0.4734 0.99209 0.95309 0.0
H1594 H 0.50322 0.97419 0.94202 0.0
H1595 H 0.53237 0.97396 0.99322 0.0
C1596 C 0.46473 0.01208 0.01784 0.0
C1597 C 0.4468 0.02183 0.01237 0.0
C1598 C 0.44115 0.0219 0.99486 0.0
C1599 C 0.45296 0.01211 0.98289 0.0
C1600 C 0.47062 0.00264 0.98864 0.0
C1601 C 0.47678 0.00286 0.00567 0.0
C1602 C 0.49743 0.99275 0.00838 0.0
C1603 C 0.52478 0.01594 0.0162 0.0
C1604 C 0.4845 0.96603 0.0193 0.0
C1605 C 0.50177 0.9867 0.99024 0.0
C1606 C 0.4859 0.99225 0.97908 0.0
C1607 C 0.48615 0.98792 0.96169 0.0
C1608 C 0.50335 0.97791 0.95551 0.0
C1609 C 0.52039 0.9727 0.96667 0.0
C1610 C 0.51936 0.97717 0.98428 0.0
H1611 H 0.96545 0.42409 0.01225 0.0
H1612 H 0.01984 0.46085 0.05584 0.0
H1613 H 0.03911 0.50761 0.04295 0.0
H1614 H 0.0132 0.46915 0.98062 0.0
H1615 H 0.98715 0.47192 0.96835 0.0
H1616 H 0.97738 0.44096 0.98082 0.0
H1617 H 0.93982 0.44755 0.99652 0.0
H1618 H 0.94922 0.47831 0.98394 0.0
H1619 H 0.94987 0.48044 0.00677 0.0
H1620 H 0.05369 0.54999 0.02521 0.0
H1621 H 0.05966 0.58647 0.00487 0.0
H1622 H 0.99405 0.52329 0.9733 0.0
C1623 C 0.9811 0.44199 0.01922 0.0
C1624 C 0.9913 0.43864 0.03502 0.0
C1625 C 0.01206 0.4627 0.04358 0.0
C1626 C 0.02309 0.4894 0.03639 0.0
C1627 C 0.01301 0.49186 0.02069 0.0
C1628 C 0.99223 0.46892 0.01228 0.0
C1629 C 0.98482 0.47761 0.99567 0.0
C1630 C 0.99101 0.4641 0.98047 0.0
C1631 C 0.95411 0.47057 0.99573 0.0
C1632 C 0.00472 0.509 0.99609 0.0
C1633 C 0.0209 0.51664 0.0106 0.0
C1634 C 0.04094 0.54433 0.01389 0.0
C1635 C 0.04408 0.56492 0.00227 0.0
C1636 C 0.02708 0.55786 0.98757 0.0
C1637 C 0.00747 0.52938 0.98434 0.0
H1638 H 0.45783 0.49094 0.97408 0.0
H1639 H 0.4415 0.40628 0.98255 0.0
H1640 H 0.48047 0.42411 0.003 0.0
H1641 H 0.53301 0.52492 0.97659 0.0
H1642 H 0.53657 0.55533 0.98737 0.0
H1643 H 0.50756 0.53582 0.97325 0.0
H1644 H 0.47302 0.52949 0.99745 0.0
H1645 H 0.50193 0.5488 0.01168 0.0
H1646 H 0.47467 0.51398 0.01726 0.0
H1647 H 0.52082 0.45106 0.02287 0.0
H1648 H 0.56074 0.48556 0.03997 0.0
H1649 H 0.55077 0.55249 0.01837 0.0
C1650 C 0.46246 0.47617 0.98024 0.0
C1651 C 0.44679 0.44726 0.9766 0.0
C1652 C 0.45358 0.4286 0.98488 0.0
C1653 C 0.47551 0.43848 0.99663 0.0
C1654 C 0.49047 0.46708 0.99998 0.0
C1655 C 0.48434 0.48568 0.99198 0.0
C1656 C 0.50376 0.51541 0.99777 0.0
C1657 C 0.52126 0.53396 0.98286 0.0
C1658 C 0.48736 0.52763 0.00656 0.0
C1659 C 0.52172 0.5106 0.0103 0.0
C1660 C 0.51369 0.48258 0.01143 0.0
C1661 C 0.52735 0.47309 0.02207 0.0
C1662 C 0.55005 0.49283 0.03168 0.0
C1663 C 0.55886 0.52172 0.03058 0.0
C1664 C 0.54429 0.53054 0.01977 0.0
H1665 H 0.15381 0.34421 0.37147 0.0
H1666 H 0.12864 0.38734 0.33581 0.0
H1667 H 0.14839 0.37331 0.31217 0.0
H1668 H 0.22022 0.36479 0.35085 0.0
H1669 H 0.2189 0.33213 0.35546 0.0
H1670 H 0.20195 0.34488 0.36943 0.0
H1671 H 0.15522 0.29816 0.36588 0.0
H1672 H 0.17198 0.28542 0.35173 0.0
H1673 H 0.14134 0.2864 0.3449 0.0
H1674 H 0.16865 0.35253 0.29235 0.0
H1675 H 0.19324 0.3315 0.27792 0.0
H1676 H 0.20993 0.30649 0.32692 0.0
C1677 C 0.15262 0.35072 0.35868 0.0
C1678 C 0.13971 0.36675 0.35536 0.0
C1679 C 0.13859 0.37513 0.33853 0.0
C1680 C 0.14959 0.36714 0.32505 0.0
C1681 C 0.16203 0.35116 0.32867 0.0
C1682 C 0.1641 0.34348 0.34509 0.0
C1683 C 0.17971 0.32742 0.34555 0.0
C1684 C 0.2068 0.34326 0.35593 0.0
C1685 C 0.16094 0.29758 0.35242 0.0
C1686 C 0.18586 0.32713 0.32684 0.0
C1687 C 0.17513 0.34056 0.3173 0.0
C1688 C 0.17754 0.34231 0.2997 0.0
C1689 C 0.19177 0.33044 0.29162 0.0
C1690 C 0.20393 0.31741 0.30117 0.0
C1691 C 0.20064 0.31574 0.31905 0.0
H1692 H 0.65613 0.77219 0.34694 0.0
H1693 H 0.6197 0.78844 0.39122 0.0
H1694 H 0.62599 0.8317 0.37767 0.0
H1695 H 0.70841 0.8431 0.33863 0.0
H1696 H 0.70541 0.83967 0.31587 0.0
H1697 H 0.69733 0.80964 0.32885 0.0
H1698 H 0.64812 0.78247 0.31524 0.0
H1699 H 0.65602 0.81245 0.30223 0.0
H1700 H 0.62553 0.79732 0.31573 0.0
H1701 H 0.63838 0.87415 0.36004 0.0
H1702 H 0.65461 0.91246 0.33903 0.0
H1703 H 0.6819 0.86824 0.30573 0.0
C1704 C 0.64956 0.78492 0.3538 0.0
C1705 C 0.63751 0.77705 0.37017 0.0
C1706 C 0.62879 0.794 0.37863 0.0
C1707 C 0.63236 0.81862 0.37106 0.0
C1708 C 0.64443 0.82582 0.35496 0.0
C1709 C 0.65274 0.80941 0.34637 0.0
C1710 C 0.66525 0.82196 0.32921 0.0
C1711 C 0.69592 0.82901 0.32808 0.0
C1712 C 0.64767 0.80238 0.31475 0.0
C1713 C 0.66305 0.84825 0.32959 0.0
C1714 C 0.651 0.85005 0.34459 0.0
C1715 C 0.64766 0.87288 0.34821 0.0
C1716 C 0.65702 0.89455 0.33625 0.0
C1717 C 0.66945 0.89321 0.32081 0.0
C1718 C 0.6722 0.86959 0.31737 0.0
H1719 H 0.13369 0.80921 0.29978 0.0
H1720 H 0.06708 0.78787 0.33639 0.0
H1721 H 0.10192 0.80924 0.35912 0.0
H1722 H 0.17752 0.7952 0.32744 0.0
H1723 H 0.2098 0.82402 0.31955 0.0
H1724 H 0.17968 0.80716 0.30589 0.0
H1725 H 0.18266 0.85487 0.30021 0.0
H1726 H 0.21292 0.87189 0.31372 0.0
H1727 H 0.18288 0.87568 0.3179 0.0
H1728 H 0.14357 0.83292 0.37795 0.0
H1729 H 0.19 0.85945 0.39148 0.0
H1730 H 0.22983 0.86497 0.34301 0.0
C1731 C 0.12644 0.809 0.31258 0.0
C1732 C 0.09759 0.79709 0.31621 0.0
C1733 C 0.08903 0.79739 0.33315 0.0
C1734 C 0.10866 0.80921 0.34623 0.0
C1735 C 0.13684 0.82061 0.34223 0.0
C1736 C 0.14579 0.82073 0.32584 0.0
C1737 C 0.17742 0.83476 0.32501 0.0
C1738 C 0.18664 0.81405 0.31913 0.0
C1739 C 0.18968 0.86085 0.31353 0.0
C1740 C 0.18476 0.84264 0.34348 0.0
C1741 C 0.161 0.83413 0.35319 0.0
C1742 C 0.16236 0.83965 0.37051 0.0
C1743 C 0.18878 0.85474 0.37806 0.0
C1744 C 0.21346 0.86415 0.36831 0.0
C1745 C 0.21132 0.85761 0.35084 0.0
H1746 H 0.8562 0.63193 0.65282 0.0
H1747 H 0.88713 0.69801 0.61484 0.0
H1748 H 0.86348 0.71961 0.62977 0.0
H1749 H 0.78942 0.62745 0.66084 0.0
H1750 H 0.79063 0.62213 0.68332 0.0
H1751 H 0.80779 0.61043 0.66875 0.0
H1752 H 0.85442 0.63956 0.685 0.0
H1753 H 0.83746 0.65151 0.69954 0.0
H1754 H 0.86809 0.67655 0.688 0.0
H1755 H 0.83778 0.73492 0.64935 0.0
H1756 H 0.81133 0.74245 0.67181 0.0
H1757 H 0.80131 0.66898 0.69853 0.0
C1758 C 0.85808 0.65094 0.64757 0.0
C1759 C 0.87356 0.66313 0.63255 0.0
C1760 C 0.87499 0.68783 0.62609 0.0
C1761 C 0.86183 0.70045 0.63458 0.0
C1762 C 0.84746 0.68826 0.64958 0.0
C1763 C 0.84547 0.66404 0.65601 0.0
C1764 C 0.82981 0.65582 0.67273 0.0
C1765 C 0.80281 0.62727 0.67132 0.0
C1766 C 0.84857 0.65588 0.68717 0.0
C1767 C 0.82344 0.67934 0.67477 0.0
C1768 C 0.83363 0.69771 0.66122 0.0
C1769 C 0.82992 0.72081 0.6601 0.0
C1770 C 0.81513 0.7251 0.6731 0.0
C1771 C 0.80448 0.70658 0.68719 0.0
C1772 C 0.80899 0.68352 0.68798 0.0
H1773 H 0.34838 0.19489 0.6346 0.0
H1774 H 0.31723 0.23772 0.66616 0.0
H1775 H 0.29883 0.19869 0.68674 0.0
H1776 H 0.29116 0.12368 0.64264 0.0
H1777 H 0.31384 0.10895 0.64324 0.0
H1778 H 0.3231 0.13947 0.63043 0.0
H1779 H 0.37074 0.16625 0.64593 0.0
H1780 H 0.36159 0.13586 0.65881 0.0
H1781 H 0.37136 0.16891 0.66874 0.0
H1782 H 0.28473 0.15575 0.70419 0.0
H1783 H 0.27736 0.11227 0.71794 0.0
H1784 H 0.31851 0.09752 0.67554 0.0
C1785 C 0.33739 0.19579 0.64576 0.0
C1786 C 0.33418 0.21925 0.64884 0.0
C1787 C 0.32004 0.21998 0.66367 0.0
C1788 C 0.30942 0.19788 0.67537 0.0
C1789 C 0.31321 0.17521 0.67212 0.0
C1790 C 0.32691 0.17399 0.65772 0.0
C1791 C 0.32925 0.14775 0.65772 0.0
C1792 C 0.31338 0.12884 0.64261 0.0
C1793 C 0.36007 0.15514 0.65781 0.0
C1794 C 0.31492 0.13461 0.6744 0.0
C1795 C 0.30559 0.15066 0.68241 0.0
C1796 C 0.29186 0.14293 0.69802 0.0
C1797 C 0.28766 0.11816 0.7057 0.0
C1798 C 0.29739 0.10156 0.69785 0.0
C1799 C 0.31109 0.10994 0.68194 0.0
H1800 H 0.78715 0.11629 0.65031 0.0
H1801 H 0.77821 0.18415 0.62908 0.0
H1802 H 0.81761 0.21791 0.64663 0.0
H1803 H 0.80467 0.14226 0.69206 0.0
H1804 H 0.83023 0.13146 0.69517 0.0
H1805 H 0.80154 0.11242 0.68077 0.0
H1806 H 0.83636 0.12013 0.65648 0.0
H1807 H 0.86519 0.13896 0.67085 0.0
H1808 H 0.86358 0.1552 0.65134 0.0
H1809 H 0.85617 0.24394 0.66748 0.0
H1810 H 0.89415 0.26124 0.68863 0.0
H1811 H 0.88022 0.17709 0.69503 0.0
C1812 C 0.79375 0.13828 0.64903 0.0
C1813 C 0.77931 0.14744 0.63832 0.0
C1814 C 0.78848 0.17645 0.63738 0.0
C1815 C 0.81098 0.19584 0.64724 0.0
C1816 C 0.82437 0.186 0.65782 0.0
C1817 C 0.81638 0.15797 0.65862 0.0
C1818 C 0.83439 0.15292 0.67102 0.0
C1819 C 0.81664 0.13363 0.68562 0.0
C1820 C 0.85086 0.14111 0.66187 0.0
C1821 C 0.85359 0.18249 0.67719 0.0
C1822 C 0.84727 0.20118 0.66949 0.0
C1823 C 0.86144 0.22955 0.67351 0.0
C1824 C 0.8828 0.23912 0.68561 0.0
C1825 C 0.88995 0.22044 0.69347 0.0
C1826 C 0.8752 0.19178 0.68914 0.0
H1827 H 0.33482 0.11538 0.15135 0.0
H1828 H 0.39404 0.17979 0.11726 0.0
H1829 H 0.39345 0.21606 0.13518 0.0
H1830 H 0.29313 0.14627 0.15871 0.0
H1831 H 0.28647 0.13634 0.18076 0.0
H1832 H 0.2932 0.11537 0.16611 0.0
H1833 H 0.33409 0.12071 0.1849 0.0
H1834 H 0.32725 0.14139 0.19973 0.0
H1835 H 0.36166 0.15523 0.19064 0.0
H1836 H 0.38401 0.24511 0.15564 0.0
H1837 H 0.36863 0.26519 0.17834 0.0
H1838 H 0.3154 0.18191 0.19903 0.0
C1839 C 0.34786 0.13712 0.14773 0.0
C1840 C 0.36463 0.14471 0.13294 0.0
C1841 C 0.38146 0.17344 0.1287 0.0
C1842 C 0.38107 0.19421 0.13872 0.0
C1843 C 0.3638 0.18594 0.15296 0.0
C1844 C 0.34771 0.15813 0.15757 0.0
C1845 C 0.33044 0.15482 0.17326 0.0
C1846 C 0.29895 0.13716 0.16947 0.0
C1847 C 0.33887 0.1423 0.18801 0.0
C1848 C 0.33904 0.1851 0.17659 0.0
C1849 C 0.35832 0.20271 0.16475 0.0
C1850 C 0.36911 0.23156 0.16508 0.0
C1851 C 0.36028 0.24276 0.17803 0.0
C1852 C 0.34084 0.22515 0.19048 0.0
C1853 C 0.32999 0.19591 0.1896 0.0
H1854 H 0.88272 0.19895 0.15033 0.0
H1855 H 0.82052 0.20292 0.11872 0.0
H1856 H 0.78286 0.16591 0.13617 0.0
H1857 H 0.84604 0.12515 0.15708 0.0
H1858 H 0.85652 0.12712 0.17893 0.0
H1859 H 0.87869 0.15427 0.1642 0.0
H1860 H 0.87814 0.19178 0.1837 0.0
H1861 H 0.85629 0.16478 0.19859 0.0
H1862 H 0.84509 0.18799 0.19019 0.0
H1863 H 0.75213 0.12656 0.15593 0.0
H1864 H 0.73017 0.09141 0.17863 0.0
H1865 H 0.81242 0.11501 0.19856 0.0
C1866 C 0.86115 0.19211 0.14718 0.0
C1867 C 0.85446 0.20377 0.1332 0.0
C1868 C 0.82605 0.19446 0.12949 0.0
C1869 C 0.80455 0.17331 0.13923 0.0
C1870 C 0.81184 0.16192 0.15275 0.0
C1871 C 0.83944 0.1713 0.15691 0.0
C1872 C 0.84158 0.15595 0.1723 0.0
C1873 C 0.8566 0.13966 0.16785 0.0
C1874 C 0.85613 0.17634 0.18707 0.0
C1875 C 0.81086 0.13628 0.17605 0.0
C1876 C 0.79409 0.13991 0.16452 0.0
C1877 C 0.76504 0.12381 0.16518 0.0
C1878 C 0.75276 0.10395 0.1782 0.0
C1879 C 0.76945 0.10052 0.1906 0.0
C1880 C 0.79895 0.11677 0.18927 0.0
H1881 H 0.86188 0.68676 0.20123 0.0
H1882 H 0.92137 0.66816 0.17708 0.0
H1883 H 0.8926 0.65374 0.15107 0.0
H1884 H 0.79981 0.62949 0.18354 0.0
H1885 H 0.78221 0.64928 0.18069 0.0
H1886 H 0.80756 0.65845 0.1974 0.0
H1887 H 0.83561 0.70917 0.18576 0.0
H1888 H 0.8102 0.70023 0.16913 0.0
H1889 H 0.84667 0.71484 0.16388 0.0
H1890 H 0.85667 0.63987 0.12814 0.0
H1891 H 0.818 0.63111 0.10885 0.0
H1892 H 0.78257 0.66015 0.14761 0.0
C1893 C 0.86883 0.67967 0.19045 0.0
C1894 C 0.89386 0.67862 0.19113 0.0
C1895 C 0.90244 0.66947 0.17673 0.0
C1896 C 0.88613 0.66101 0.16197 0.0
C1897 C 0.8614 0.66199 0.16179 0.0
C1898 C 0.85291 0.67136 0.17557 0.0
C1899 C 0.82572 0.67086 0.17195 0.0
C1900 C 0.80245 0.65082 0.18412 0.0
C1901 C 0.82981 0.70054 0.17272 0.0
C1902 C 0.82021 0.65965 0.15399 0.0
C1903 C 0.84094 0.65449 0.14843 0.0
C1904 C 0.84043 0.64404 0.13229 0.0
C1905 C 0.81842 0.63924 0.12141 0.0
C1906 C 0.79731 0.64513 0.12664 0.0
C1907 C 0.79815 0.65513 0.14326 0.0
H1908 H 0.66173 0.88501 0.84805 0.0
H1909 H 0.61327 0.81793 0.88377 0.0
H1910 H 0.61886 0.78475 0.86543 0.0
H1911 H 0.63386 0.84293 0.81004 0.0
H1912 H 0.66671 0.86074 0.79881 0.0
H1913 H 0.65863 0.87905 0.81471 0.0
H1914 H 0.70455 0.89144 0.8305 0.0
H1915 H 0.71266 0.87298 0.81472 0.0
H1916 H 0.71101 0.86376 0.83681 0.0
H1917 H 0.63169 0.75943 0.84393 0.0
H1918 H 0.64705 0.74271 0.8193 0.0
H1919 H 0.68581 0.82588 0.79716 0.0
C1920 C 0.65222 0.8633 0.85194 0.0
C1921 C 0.63701 0.85397 0.86728 0.0
C1922 C 0.62471 0.8254 0.87195 0.0
C1923 C 0.62795 0.80647 0.86169 0.0
C1924 C 0.64333 0.8164 0.84674 0.0
C1925 C 0.65496 0.84405 0.84175 0.0
C1926 C 0.6701 0.84922 0.82494 0.0
C1927 C 0.6565 0.85853 0.81132 0.0
C1928 C 0.70144 0.87062 0.82687 0.0
C1929 C 0.66534 0.8202 0.82132 0.0
C1930 C 0.65007 0.80163 0.83413 0.0
C1931 C 0.64354 0.77374 0.83378 0.0
C1932 C 0.65249 0.76448 0.81983 0.0
C1933 C 0.66755 0.78301 0.80638 0.0
C1934 C 0.67414 0.81124 0.80723 0.0
H1935 H 0.10306 0.76367 0.84564 0.0
H1936 H 0.16876 0.76995 0.87887 0.0
H1937 H 0.20386 0.80885 0.86156 0.0
H1938 H 0.14268 0.78229 0.8062 0.0
H1939 H 0.12763 0.80263 0.79851 0.0
H1940 H 0.10781 0.77342 0.81255 0.0
H1941 H 0.10099 0.80599 0.83324 0.0
H1942 H 0.12093 0.83533 0.81932 0.0
H1943 H 0.13124 0.837 0.84118 0.0
H1944 H 0.23185 0.84857 0.84145 0.0
H1945 H 0.25069 0.88558 0.81964 0.0
H1946 H 0.16647 0.85616 0.80098 0.0
C1947 C 0.1248 0.77308 0.84931 0.0
C1948 C 0.13294 0.76332 0.86364 0.0
C1949 C 0.1618 0.77631 0.86777 0.0
C1950 C 0.18198 0.79872 0.8581 0.0
C1951 C 0.17309 0.80814 0.84436 0.0
C1952 C 0.14521 0.79572 0.83994 0.0
C1953 C 0.14108 0.8107 0.82504 0.0
C1954 C 0.1291 0.79109 0.80966 0.0
C1955 C 0.12246 0.82298 0.83 0.0
C1956 C 0.171 0.8336 0.82186 0.0
C1957 C 0.18914 0.83164 0.83309 0.0
C1958 C 0.21782 0.85039 0.83263 0.0
C1959 C 0.22829 0.87159 0.82029 0.0
C1960 C 0.21013 0.87413 0.80861 0.0
C1961 C 0.18105 0.8548 0.80956 0.0
H1962 H 0.21296 0.34187 0.85741 0.0
H1963 H 0.2086 0.40785 0.88486 0.0
H1964 H 0.16894 0.40066 0.86698 0.0
H1965 H 0.19881 0.36094 0.81604 0.0
H1966 H 0.179 0.32511 0.80902 0.0
H1967 H 0.20665 0.33514 0.82429 0.0
H1968 H 0.17172 0.29696 0.84493 0.0
H1969 H 0.14388 0.28704 0.82982 0.0
H1970 H 0.14025 0.29697 0.85104 0.0
H1971 H 0.12862 0.38516 0.8467 0.0
H1972 H 0.09389 0.36591 0.82348 0.0
H1973 H 0.12682 0.31254 0.80815 0.0
C1974 C 0.20413 0.35525 0.85952 0.0
C1975 C 0.21396 0.37534 0.8727 0.0
C1976 C 0.20121 0.39193 0.87512 0.0
C1977 C 0.17872 0.3881 0.86496 0.0
C1978 C 0.16937 0.36784 0.8523 0.0
C1979 C 0.18195 0.35201 0.84937 0.0
C1980 C 0.16839 0.33212 0.83465 0.0
C1981 C 0.18947 0.33873 0.82014 0.0
C1982 C 0.15528 0.30146 0.84046 0.0
C1983 C 0.14614 0.33921 0.82977 0.0
C1984 C 0.14683 0.35963 0.84024 0.0
C1985 C 0.12797 0.36926 0.83838 0.0
C1986 C 0.10822 0.35808 0.82527 0.0
C1987 C 0.10774 0.33776 0.81411 0.0
C1988 C 0.12685 0.32813 0.8165 0.0
H1989 H 0.99914 0.4534 0.48459 0.0
H1990 H 0.06197 0.51586 0.45113 0.0
H1991 H 0.05601 0.55257 0.46503 0.0
H1992 H 0.95353 0.48194 0.4853 0.0
H1993 H 0.94437 0.47417 0.50739 0.0
H1994 H 0.95393 0.45264 0.49518 0.0
H1995 H 0.99289 0.46175 0.51684 0.0
H1996 H 0.98314 0.48293 0.52924 0.0
H1997 H 0.01874 0.49728 0.52205 0.0
H1998 H 0.04215 0.58222 0.48175 0.0
H1999 H 0.02455 0.60368 0.50219 0.0
H2000 H 0.97115 0.52217 0.52505 0.0
C2001 C 0.01174 0.47483 0.48026 0.0
C2002 C 0.03117 0.48179 0.46685 0.0
C2003 C 0.04735 0.51009 0.46159 0.0
C2004 C 0.04389 0.53106 0.46927 0.0
C2005 C 0.02422 0.52341 0.48223 0.0
C2006 C 0.00866 0.49606 0.48784 0.0
C2007 C 0.98924 0.49357 0.50219 0.0
C2008 C 0.95844 0.47445 0.49721 0.0
C2009 C 0.99644 0.48328 0.51855 0.0
C2010 C 0.9963 0.52379 0.50372 0.0
C2011 C 0.01638 0.54059 0.492 0.0
C2012 C 0.02651 0.5693 0.49105 0.0
C2013 C 0.01641 0.58129 0.50271 0.0
C2014 C 0.99649 0.56464 0.51522 0.0
C2015 C 0.986 0.53541 0.51547 0.0
H2016 H 0.543 0.5387 0.48521 0.0
H2017 H 0.48566 0.52078 0.44322 0.0
H2018 H 0.45003 0.47844 0.45808 0.0
H2019 H 0.52402 0.46734 0.49401 0.0
H2020 H 0.52693 0.4719 0.5167 0.0
H2021 H 0.54797 0.50111 0.50291 0.0
H2022 H 0.52843 0.52997 0.51735 0.0
H2023 H 0.50751 0.50093 0.53127 0.0
H2024 H 0.49111 0.51579 0.51848 0.0
H2025 H 0.4208 0.43759 0.47725 0.0
H2026 H 0.39925 0.40234 0.50007 0.0
H2027 H 0.47534 0.44692 0.52972 0.0
C2028 C 0.52296 0.52585 0.47913 0.0
C2029 C 0.5171 0.5332 0.46307 0.0
C2030 C 0.49051 0.5159 0.45563 0.0
C2031 C 0.47019 0.49165 0.46391 0.0
C2032 C 0.47672 0.48493 0.47965 0.0
C2033 C 0.50237 0.50159 0.48725 0.0
C2034 C 0.50389 0.48978 0.50435 0.0
C2035 C 0.52708 0.48208 0.50449 0.0
C2036 C 0.50797 0.51034 0.51871 0.0
C2037 C 0.47512 0.46386 0.50514 0.0
C2038 C 0.45982 0.4614 0.49073 0.0
C2039 C 0.43256 0.43933 0.48861 0.0
C2040 C 0.42047 0.41945 0.50166 0.0
C2041 C 0.43556 0.42176 0.51669 0.0
C2042 C 0.46337 0.44421 0.51829 0.0
H2043 H 0.53179 0.0358 0.53201 0.0
H2044 H 0.57984 0.99929 0.51234 0.0
H2045 H 0.54856 0.98146 0.48755 0.0
H2046 H 0.46432 0.97991 0.51952 0.0
H2047 H 0.45086 0.00261 0.51385 0.0
H2048 H 0.47739 0.01321 0.52996 0.0
H2049 H 0.50923 0.05894 0.51333 0.0
H2050 H 0.4827 0.0486 0.49726 0.0
H2051 H 0.51762 0.05691 0.49145 0.0
H2052 H 0.51136 0.96621 0.46546 0.0
H2053 H 0.47234 0.95717 0.4464 0.0
H2054 H 0.44872 0.00419 0.48004 0.0
C2055 C 0.53574 0.02409 0.52247 0.0
C2056 C 0.55839 0.0191 0.52406 0.0
C2057 C 0.56295 0.00382 0.51125 0.0
C2058 C 0.54514 0.99337 0.49719 0.0
C2059 C 0.52287 0.9984 0.49611 0.0
C2060 C 0.51821 0.01358 0.5083 0.0
C2061 C 0.49284 0.01615 0.50398 0.0
C2062 C 0.47001 0.00213 0.51764 0.0
C2063 C 0.5011 0.04698 0.50135 0.0
C2064 C 0.48397 0.0 0.48746 0.0
C2065 C 0.50151 0.98983 0.48322 0.0
C2066 C 0.49759 0.97423 0.46857 0.0
C2067 C 0.47542 0.9693 0.4578 0.0
C2068 C 0.45753 0.98008 0.46164 0.0
C2069 C 0.46178 0.99537 0.47681 0.0
H2070 H 0.21034 0.92421 0.02536 0.0
H2071 H 0.21772 0.88688 0.0722 0.0
H2072 H 0.1799 0.8406 0.06252 0.0
H2073 H 0.13389 0.88119 0.02156 0.0
H2074 H 0.13571 0.87976 0.99878 0.0
H2075 H 0.16181 0.90991 0.01011 0.0
H2076 H 0.20082 0.90346 0.99624 0.0
H2077 H 0.17492 0.87323 0.98498 0.0
H2078 H 0.19977 0.87041 0.99845 0.0
H2079 H 0.14353 0.79778 0.04641 0.0
H2080 H 0.11242 0.76267 0.02543 0.0
H2081 H 0.12789 0.82956 0.99026 0.0
C2082 C 0.20355 0.90656 0.03389 0.0
C2083 C 0.21689 0.90931 0.04963 0.0
C2084 C 0.20792 0.88531 0.06004 0.0
C2085 C 0.18633 0.85898 0.05471 0.0
C2086 C 0.17382 0.85711 0.03903 0.0
C2087 C 0.18204 0.88037 0.02885 0.0
C2088 C 0.16645 0.87284 0.0122 0.0
C2089 C 0.14839 0.88675 0.01058 0.0
C2090 C 0.1867 0.88043 0.99709 0.0
C2091 C 0.14858 0.84155 0.01436 0.0
C2092 C 0.15289 0.83277 0.02993 0.0
C2093 C 0.1397 0.80448 0.03429 0.0
C2094 C 0.12196 0.7847 0.02233 0.0
C2095 C 0.11772 0.79337 0.0062 0.0
C2096 C 0.13086 0.82222 0.00241 0.0
H2097 H 0.12226 0.34611 0.05797 0.0
H2098 H 0.07877 0.25567 0.06108 0.0
H2099 H 0.1212 0.25572 0.05097 0.0
H2100 H 0.15165 0.35088 0.02027 0.0
H2101 H 0.18478 0.38213 0.02399 0.0
H2102 H 0.15448 0.37604 0.03587 0.0
H2103 H 0.18039 0.38041 0.06408 0.0
H2104 H 0.21108 0.38695 0.05226 0.0
H2105 H 0.19602 0.35893 0.06761 0.0
H2106 H 0.16341 0.2646 0.0351 0.0
H2107 H 0.20225 0.28133 0.01473 0.0
H2108 H 0.21964 0.36661 0.02191 0.0
C2109 C 0.12234 0.32654 0.05733 0.0
C2110 C 0.09777 0.30093 0.06064 0.0
C2111 C 0.09778 0.27546 0.05891 0.0
C2112 C 0.12175 0.27534 0.05321 0.0
C2113 C 0.14544 0.30089 0.04932 0.0
C2114 C 0.14606 0.32611 0.05147 0.0
C2115 C 0.17238 0.35015 0.04387 0.0
C2116 C 0.16538 0.36568 0.03019 0.0
C2117 C 0.19108 0.3703 0.05779 0.0
C2118 C 0.18554 0.33432 0.0362 0.0
C2119 C 0.17004 0.30605 0.03984 0.0
C2120 C 0.17624 0.28679 0.03258 0.0
C2121 C 0.19849 0.29657 0.02103 0.0
C2122 C 0.21425 0.32538 0.01674 0.0
C2123 C 0.20806 0.34448 0.02488 0.0
H2124 H 0.69895 0.78299 0.04593 0.0
H2125 H 0.62117 0.74023 0.0743 0.0
H2126 H 0.60718 0.773 0.06251 0.0
H2127 H 0.709 0.85495 0.04934 0.0
H2128 H 0.72299 0.86361 0.02812 0.0
H2129 H 0.72828 0.83937 0.04073 0.0
H2130 H 0.70626 0.8024 0.01683 0.0
H2131 H 0.70052 0.82627 0.00425 0.0
H2132 H 0.67155 0.79214 0.00942 0.0
H2133 H 0.59938 0.80665 0.04473 0.0
H2134 H 0.59884 0.83871 0.023 0.0
H2135 H 0.68273 0.86026 0.00741 0.0
C2136 C 0.67946 0.78113 0.05023 0.0
C2137 C 0.66128 0.75921 0.06117 0.0
C2138 C 0.63542 0.75687 0.06591 0.0
C2139 C 0.62738 0.77547 0.05935 0.0
C2140 C 0.64554 0.79638 0.04822 0.0
C2141 C 0.67119 0.79947 0.04386 0.0
C2142 C 0.6859 0.82199 0.03057 0.0
C2143 C 0.71315 0.84643 0.03762 0.0
C2144 C 0.69136 0.80997 0.01431 0.0
C2145 C 0.66414 0.8305 0.02768 0.0
C2146 C 0.64111 0.81576 0.03808 0.0
C2147 C 0.61754 0.81873 0.03677 0.0
C2148 C 0.61747 0.83706 0.02442 0.0
C2149 C 0.64076 0.85205 0.0135 0.0
C2150 C 0.66451 0.84898 0.01546 0.0
H2151 H 0.76347 0.10819 0.94909 0.0
H2152 H 0.79484 0.05006 0.94937 0.0
H2153 H 0.83968 0.08693 0.96087 0.0
H2154 H 0.83246 0.17364 0.94035 0.0
H2155 H 0.82389 0.19395 0.95446 0.0
H2156 H 0.79656 0.16501 0.9429 0.0
H2157 H 0.77071 0.14313 0.97116 0.0
H2158 H 0.79796 0.17178 0.98279 0.0
H2159 H 0.78885 0.13633 0.98785 0.0
H2160 H 0.87697 0.12628 0.97727 0.0
H2161 H 0.90506 0.16655 0.9962 0.0
H2162 H 0.85021 0.19957 0.98539 0.0
C2163 C 0.78003 0.10342 0.95117 0.0
C2164 C 0.77565 0.07625 0.94821 0.0
C2165 C 0.79782 0.07083 0.95118 0.0
C2166 C 0.82338 0.09164 0.95779 0.0
C2167 C 0.82658 0.11785 0.96122 0.0
C2168 C 0.80564 0.12395 0.95781 0.0
C2169 C 0.81317 0.15268 0.96437 0.0
C2170 C 0.81674 0.17249 0.94964 0.0
C2171 C 0.79139 0.15085 0.97731 0.0
C2172 C 0.84094 0.16117 0.97276 0.0
C2173 C 0.84849 0.14094 0.97058 0.0
C2174 C 0.87174 0.14264 0.97867 0.0
C2175 C 0.88749 0.16543 0.9894 0.0
C2176 C 0.87991 0.18613 0.99185 0.0
C2177 C 0.85671 0.18428 0.98323 0.0
H2178 H 0.82316 0.70125 0.98892 0.0
H2179 H 0.75297 0.62318 0.97127 0.0
H2180 H 0.78325 0.61962 0.94954 0.0
H2181 H 0.85878 0.7266 0.94688 0.0
H2182 H 0.8929 0.74068 0.95637 0.0
H2183 H 0.86457 0.73976 0.9683 0.0
H2184 H 0.87227 0.7121 0.99228 0.0
H2185 H 0.90049 0.7129 0.98045 0.0
H2186 H 0.87148 0.67984 0.98724 0.0
H2187 H 0.82268 0.62048 0.93314 0.0
H2188 H 0.86784 0.6265 0.92301 0.0
H2189 H 0.91203 0.70371 0.95157 0.0
C2190 C 0.81401 0.6837 0.98025 0.0
C2191 C 0.78568 0.66256 0.98175 0.0
C2192 C 0.77449 0.6399 0.97018 0.0
C2193 C 0.79156 0.63765 0.95782 0.0
C2194 C 0.81967 0.65839 0.95708 0.0
C2195 C 0.83074 0.68115 0.96789 0.0
C2196 C 0.86208 0.69907 0.96571 0.0
C2197 C 0.87004 0.72826 0.9589 0.0
C2198 C 0.87746 0.70107 0.98241 0.0
C2199 C 0.86712 0.68219 0.95252 0.0
C2200 C 0.84239 0.659 0.94751 0.0
C2201 C 0.84212 0.6389 0.93667 0.0
C2202 C 0.86781 0.64239 0.93105 0.0
C2203 C 0.89334 0.66577 0.93631 0.0
C2204 C 0.89282 0.68612 0.94689 0.0
H2205 H 0.34885 0.24975 0.94829 0.0
H2206 H 0.27286 0.19703 0.92006 0.0
H2207 H 0.27069 0.15504 0.93284 0.0
H2208 H 0.37763 0.20064 0.94673 0.0
H2209 H 0.39141 0.21042 0.96791 0.0
H2210 H 0.38937 0.23562 0.95429 0.0
H2211 H 0.36073 0.24369 0.97738 0.0
H2212 H 0.36214 0.2182 0.99092 0.0
H2213 H 0.32877 0.21429 0.98519 0.0
H2214 H 0.27288 0.11971 0.95217 0.0
H2215 H 0.28052 0.094 0.97529 0.0
H2216 H 0.35639 0.17007 0.98957 0.0
C2217 C 0.33241 0.2294 0.94415 0.0
C2218 C 0.31111 0.22672 0.93308 0.0
C2219 C 0.28936 0.19961 0.92857 0.0
C2220 C 0.28805 0.17564 0.93569 0.0
C2221 C 0.30884 0.17915 0.9471 0.0
C2222 C 0.33088 0.20537 0.95106 0.0
C2223 C 0.34913 0.20382 0.96482 0.0
C2224 C 0.37863 0.21317 0.95803 0.0
C2225 C 0.35023 0.22101 0.9805 0.0
C2226 C 0.33324 0.17279 0.96853 0.0
C2227 C 0.31025 0.15879 0.95807 0.0
C2228 C 0.2912 0.13033 0.96015 0.0
C2229 C 0.29574 0.11589 0.97331 0.0
C2230 C 0.31906 0.12999 0.98427 0.0
C2231 C 0.33823 0.15869 0.98154 0.0
H2232 H 0.91067 0.26037 0.35357 0.0
H2233 H 0.8996 0.22862 0.4051 0.0
H2234 H 0.86125 0.18268 0.39537 0.0
H2235 H 0.83775 0.22546 0.34262 0.0
H2236 H 0.84376 0.21891 0.32106 0.0
H2237 H 0.87034 0.24894 0.3322 0.0
H2238 H 0.90604 0.23249 0.32619 0.0
H2239 H 0.87955 0.20234 0.31509 0.0
H2240 H 0.89793 0.19784 0.3326 0.0
H2241 H 0.82374 0.14033 0.37979 0.0
H2242 H 0.79059 0.10492 0.35967 0.0
H2243 H 0.82617 0.16552 0.3187 0.0
C2244 C 0.9 0.2439 0.36288 0.0
C2245 C 0.90799 0.24811 0.38013 0.0
C2246 C 0.89391 0.22577 0.39181 0.0
C2247 C 0.87205 0.19968 0.38642 0.0
C2248 C 0.86466 0.19634 0.36931 0.0
C2249 C 0.87825 0.21787 0.35774 0.0
C2250 C 0.86648 0.20903 0.34007 0.0
C2251 C 0.85383 0.22663 0.33361 0.0
C2252 C 0.88883 0.21051 0.32777 0.0
C2253 C 0.84407 0.1791 0.34348 0.0
C2254 C 0.84328 0.17213 0.3604 0.0
C2255 C 0.82415 0.14558 0.36652 0.0
C2256 C 0.80533 0.12568 0.35502 0.0
C2257 C 0.80584 0.13246 0.33762 0.0
C2258 C 0.82552 0.15957 0.33187 0.0
H2259 H 0.83322 0.63817 0.33382 0.0
H2260 H 0.90565 0.70052 0.36135 0.0
H2261 H 0.87466 0.70047 0.38409 0.0
H2262 H 0.78911 0.66509 0.34248 0.0
H2263 H 0.75778 0.63151 0.34482 0.0
H2264 H 0.78582 0.63491 0.33153 0.0
H2265 H 0.78785 0.59587 0.34874 0.0
H2266 H 0.75977 0.59235 0.36212 0.0
H2267 H 0.79244 0.59931 0.37143 0.0
H2268 H 0.8353 0.69771 0.40193 0.0
H2269 H 0.79061 0.69001 0.41432 0.0
H2270 H 0.74454 0.62751 0.37597 0.0
C2271 C 0.84252 0.65156 0.34474 0.0
C2272 C 0.87173 0.66935 0.3459 0.0
C2273 C 0.88327 0.68656 0.36036 0.0
C2274 C 0.86586 0.68671 0.37329 0.0
C2275 C 0.83705 0.66917 0.37166 0.0
C2276 C 0.8255 0.65165 0.35785 0.0
C2277 C 0.79391 0.6355 0.35882 0.0
C2278 C 0.7809 0.64217 0.34351 0.0
C2279 C 0.78285 0.60388 0.36038 0.0
C2280 C 0.78942 0.64725 0.37508 0.0
C2281 C 0.81453 0.66666 0.38233 0.0
C2282 C 0.81552 0.68207 0.39661 0.0
C2283 C 0.79018 0.67763 0.40355 0.0
C2284 C 0.76438 0.65771 0.3963 0.0
C2285 C 0.76407 0.64217 0.38205 0.0
H2286 H 0.34886 0.19597 0.34171 0.0
H2287 H 0.26204 0.17142 0.35091 0.0
H2288 H 0.25977 0.13966 0.3738 0.0
H2289 H 0.34002 0.12967 0.34514 0.0
H2290 H 0.37326 0.14059 0.35515 0.0
H2291 H 0.3691 0.16445 0.34158 0.0
H2292 H 0.38559 0.20075 0.366 0.0
H2293 H 0.38959 0.1768 0.37971 0.0
H2294 H 0.36775 0.19084 0.38616 0.0
H2295 H 0.26541 0.1064 0.39315 0.0
H2296 H 0.27798 0.07362 0.40652 0.0
H2297 H 0.36058 0.11946 0.3838 0.0
C2298 C 0.32943 0.18414 0.34865 0.0
C2299 C 0.30563 0.18617 0.34454 0.0
C2300 C 0.28065 0.17048 0.354 0.0
C2301 C 0.27917 0.15239 0.36702 0.0
C2302 C 0.30291 0.15047 0.3705 0.0
C2303 C 0.32759 0.16602 0.3616 0.0
C2304 C 0.34932 0.15833 0.3666 0.0
C2305 C 0.35843 0.14761 0.35121 0.0
C2306 C 0.37455 0.18316 0.37513 0.0
C2307 C 0.33266 0.13518 0.37921 0.0
C2308 C 0.30611 0.13126 0.38155 0.0
C2309 C 0.28628 0.10956 0.39162 0.0
C2310 C 0.29355 0.09098 0.39909 0.0
C2311 C 0.32033 0.0941 0.39632 0.0
C2312 C 0.34024 0.11695 0.3866 0.0
H2313 H 0.51988 0.54437 0.31958 0.0
H2314 H 0.58253 0.51995 0.32773 0.0
H2315 H 0.55588 0.47878 0.30951 0.0
H2316 H 0.46386 0.47901 0.32488 0.0
H2317 H 0.44166 0.48201 0.30927 0.0
H2318 H 0.46854 0.51287 0.31949 0.0
H2319 H 0.48958 0.53478 0.2902 0.0
H2320 H 0.46258 0.50394 0.27984 0.0
H2321 H 0.49889 0.51579 0.27547 0.0
H2322 H 0.51906 0.43651 0.29471 0.0
H2323 H 0.47472 0.39629 0.28496 0.0
H2324 H 0.43526 0.44731 0.28699 0.0
C2325 C 0.52832 0.53069 0.31728 0.0
C2326 C 0.55343 0.53559 0.32505 0.0
C2327 C 0.5637 0.51711 0.32166 0.0
C2328 C 0.54863 0.49355 0.31135 0.0
C2329 C 0.5234 0.48879 0.30445 0.0
C2330 C 0.51339 0.50694 0.3072 0.0
C2331 C 0.48412 0.49531 0.30022 0.0
C2332 C 0.46334 0.4921 0.31431 0.0
C2333 C 0.48379 0.51354 0.28556 0.0
C2334 C 0.4787 0.46716 0.29389 0.0
C2335 C 0.50183 0.46405 0.29609 0.0
C2336 C 0.50102 0.43892 0.29255 0.0
C2337 C 0.47574 0.41619 0.28697 0.0
C2338 C 0.45156 0.4187 0.28515 0.0
C2339 C 0.45339 0.44477 0.28826 0.0
H2340 H 0.54012 0.99688 0.2752 0.0
H2341 H 0.60153 0.08229 0.28864 0.0
H2342 H 0.56407 0.08933 0.30008 0.0
H2343 H 0.48041 0.01025 0.26598 0.0
H2344 H 0.45536 0.97724 0.27537 0.0
H2345 H 0.48592 0.98073 0.26478 0.0
H2346 H 0.49902 0.96338 0.29196 0.0
H2347 H 0.46873 0.96003 0.30264 0.0
H2348 H 0.50296 0.98142 0.31172 0.0
H2349 H 0.52251 0.08436 0.31511 0.0
H2350 H 0.47981 0.0682 0.33199 0.0
H2351 H 0.44386 0.98645 0.30809 0.0
C2352 C 0.54559 0.01728 0.28015 0.0
C2353 C 0.57378 0.03907 0.28088 0.0
C2354 C 0.58008 0.06543 0.28756 0.0
C2355 C 0.55891 0.06963 0.29416 0.0
C2356 C 0.53148 0.0474 0.29383 0.0
C2357 C 0.52468 0.02182 0.2868 0.0
C2358 C 0.49416 0.00042 0.28981 0.0
C2359 C 0.47801 0.99165 0.27298 0.0
C2360 C 0.49106 0.97482 0.29962 0.0
C2361 C 0.48536 0.01748 0.30051 0.0
C2362 C 0.50706 0.04466 0.30241 0.0
C2363 C 0.50504 0.06341 0.3133 0.0
C2364 C 0.48048 0.05399 0.32281 0.0
C2365 C 0.4581 0.02599 0.32139 0.0
C2366 C 0.46044 0.00792 0.30961 0.0
H2367 H 0.96308 0.53858 0.28711 0.0
H2368 H 0.04744 0.59612 0.26971 0.0
H2369 H 0.06239 0.56299 0.27906 0.0
H2370 H 0.98169 0.52209 0.32427 0.0
H2371 H 0.95477 0.48573 0.32486 0.0
H2372 H 0.94908 0.51049 0.31328 0.0
H2373 H 0.93871 0.48068 0.28602 0.0
H2374 H 0.94427 0.45564 0.29758 0.0
H2375 H 0.96395 0.47154 0.2785 0.0
H2376 H 0.07035 0.52895 0.29524 0.0
H2377 H 0.07016 0.49575 0.31651 0.0
H2378 H 0.98098 0.46021 0.32352 0.0
C2379 C 0.98453 0.54387 0.28488 0.0
C2380 C 0.00405 0.56986 0.27761 0.0
C2381 C 0.03197 0.57611 0.27495 0.0
C2382 C 0.04068 0.55743 0.28026 0.0
C2383 C 0.02115 0.53247 0.28801 0.0
C2384 C 0.99354 0.5255 0.29014 0.0
C2385 C 0.97754 0.49918 0.30069 0.0
C2386 C 0.96506 0.50473 0.31672 0.0
C2387 C 0.95477 0.47535 0.29005 0.0
C2388 C 0.00083 0.49337 0.30502 0.0
C2389 C 0.02572 0.51247 0.29729 0.0
C2390 C 0.05086 0.51334 0.30093 0.0
C2391 C 0.05062 0.49453 0.313 0.0
C2392 C 0.02544 0.47527 0.32117 0.0
C2393 C 0.00022 0.47426 0.31691 0.0
H2394 H 0.45923 0.47858 0.66918 0.0
H2395 H 0.50768 0.43793 0.65863 0.0
H2396 H 0.54532 0.47182 0.67708 0.0
H2397 H 0.51561 0.54676 0.66609 0.0
H2398 H 0.50378 0.56095 0.68262 0.0
H2399 H 0.47879 0.53099 0.67075 0.0
H2400 H 0.45933 0.50303 0.69873 0.0
H2401 H 0.48436 0.53296 0.7107 0.0
H2402 H 0.48279 0.49972 0.71319 0.0
H2403 H 0.5796 0.51259 0.69422 0.0
H2404 H 0.60887 0.55855 0.70767 0.0
H2405 H 0.53896 0.57373 0.70639 0.0
C2406 C 0.47765 0.47663 0.6708 0.0
C2407 C 0.48026 0.45533 0.6625 0.0
C2408 C 0.50476 0.45356 0.66511 0.0
C2409 C 0.52636 0.47282 0.67554 0.0
C2410 C 0.52324 0.49376 0.68327 0.0
C2411 C 0.49953 0.49583 0.68101 0.0
C2412 C 0.50245 0.52176 0.68949 0.0
C2413 C 0.50003 0.54126 0.67646 0.0
C2414 C 0.48095 0.51389 0.70388 0.0
C2415 C 0.53187 0.53442 0.6964 0.0
C2416 C 0.54329 0.51767 0.69295 0.0
C2417 C 0.57075 0.52569 0.69724 0.0
C2418 C 0.58717 0.55178 0.70497 0.0
C2419 C 0.57614 0.56965 0.7082 0.0
C2420 C 0.54795 0.56051 0.70412 0.0
H2421 H 0.54007 0.0412 0.67375 0.0
H2422 H 0.53653 0.96261 0.685 0.0
H2423 H 0.49975 0.9518 0.70655 0.0
H2424 H 0.52705 0.05549 0.71846 0.0
H2425 H 0.50668 0.07083 0.71133 0.0
H2426 H 0.53499 0.07371 0.69842 0.0
H2427 H 0.50088 0.05146 0.67315 0.0
H2428 H 0.47252 0.04839 0.68596 0.0
H2429 H 0.46975 0.01779 0.67588 0.0
H2430 H 0.45839 0.94634 0.72288 0.0
H2431 H 0.41752 0.94745 0.73407 0.0
H2432 H 0.45163 0.03246 0.71499 0.0
C2433 C 0.5319 0.02204 0.68107 0.0
C2434 C 0.5409 0.00266 0.67786 0.0
C2435 C 0.52987 0.9777 0.68748 0.0
C2436 C 0.50907 0.97146 0.69971 0.0
C2437 C 0.50018 0.99078 0.70238 0.0
C2438 C 0.51162 0.01581 0.69355 0.0
C2439 C 0.49734 0.03225 0.69812 0.0
C2440 C 0.51774 0.0597 0.70712 0.0
C2441 C 0.48435 0.03777 0.68234 0.0
C2442 C 0.47509 0.01189 0.71019 0.0
C2443 C 0.47718 0.98819 0.71257 0.0
C2444 C 0.45704 0.96516 0.72158 0.0
C2445 C 0.43387 0.96613 0.72803 0.0
C2446 C 0.43106 0.99014 0.72561 0.0
C2447 C 0.45265 0.0136 0.71703 0.0
H2448 H 0.01535 0.46284 0.71953 0.0
H2449 H 0.94287 0.38317 0.70622 0.0
H2450 H 0.9258 0.40755 0.68787 0.0
H2451 H 0.97961 0.50517 0.71809 0.0
H2452 H 0.00985 0.53484 0.7089 0.0
H2453 H 0.01421 0.5116 0.72305 0.0
H2454 H 0.043 0.50367 0.69998 0.0
H2455 H 0.03856 0.52665 0.68574 0.0
H2456 H 0.02786 0.49134 0.67931 0.0
H2457 H 0.92019 0.43923 0.66784 0.0
H2458 H 0.92512 0.47702 0.64867 0.0
H2459 H 0.00065 0.5363 0.67506 0.0
C2460 C 0.99557 0.45063 0.71305 0.0
C2461 C 0.98028 0.42115 0.71448 0.0
C2462 C 0.95461 0.40582 0.70567 0.0
C2463 C 0.94481 0.41947 0.69512 0.0
C2464 C 0.96076 0.44845 0.69362 0.0
C2465 C 0.98542 0.46394 0.7025 0.0
C2466 C -0.00035 0.4946 0.69763 0.0
C2467 C 0.00089 0.51261 0.71282 0.0
C2468 C 0.02899 0.50463 0.69022 0.0
C2469 C 0.97966 0.49372 0.68419 0.0
C2470 C 0.95727 0.46692 0.68216 0.0
C2471 C 0.93729 0.46042 0.66954 0.0
C2472 C 0.94032 0.48188 0.65867 0.0
C2473 C 0.96307 0.50943 0.66058 0.0
C2474 C 0.98275 0.51546 0.67363 0.0
H2475 H 0.19007 0.8737 0.65156 0.0
H2476 H 0.24228 0.83994 0.66796 0.0
H2477 H 0.21687 0.79981 0.6487 0.0
H2478 H 0.12846 0.81187 0.65174 0.0
H2479 H 0.1135 0.81869 0.63329 0.0
H2480 H 0.13916 0.84738 0.64568 0.0
H2481 H 0.17002 0.86865 0.61889 0.0
H2482 H 0.1443 0.83998 0.60636 0.0
H2483 H 0.18011 0.84765 0.60652 0.0
H2484 H 0.18091 0.75983 0.63194 0.0
H2485 H 0.13764 0.72335 0.61872 0.0
H2486 H 0.10954 0.78356 0.61199 0.0
C2487 C 0.19652 0.85815 0.65081 0.0
C2488 C 0.21821 0.85998 0.66119 0.0
C2489 C 0.22604 0.83921 0.65992 0.0
C2490 C 0.2117 0.81632 0.64902 0.0
C2491 C 0.18985 0.81471 0.63933 0.0
C2492 C 0.18249 0.83524 0.63997 0.0
C2493 C 0.15646 0.82717 0.62964 0.0
C2494 C 0.13302 0.82621 0.64076 0.0
C2495 C 0.16313 0.84705 0.61445 0.0
C2496 C 0.14944 0.79822 0.62388 0.0
C2497 C 0.16921 0.79162 0.62936 0.0
C2498 C 0.16568 0.765 0.62715 0.0
C2499 C 0.141 0.7444 0.61952 0.0
C2500 C 0.1201 0.7505 0.61419 0.0
C2501 C 0.12497 0.77809 0.61595 0.0
H2502 H 0.12283 0.30631 0.6602 0.0
H2503 H 0.1461 0.39396 0.66176 0.0
H2504 H 0.1843 0.4052 0.64139 0.0
H2505 H 0.18911 0.31636 0.66024 0.0
H2506 H 0.18252 0.2883 0.6459 0.0
H2507 H 0.15442 0.28641 0.65843 0.0
H2508 H 0.12563 0.28006 0.63117 0.0
H2509 H 0.15368 0.2818 0.6185 0.0
H2510 H 0.14072 0.30539 0.61425 0.0
H2511 H 0.22356 0.40783 0.62418 0.0
H2512 H 0.26104 0.4017 0.61166 0.0
H2513 H 0.21098 0.31197 0.61999 0.0
C2514 C 0.13537 0.32772 0.65583 0.0
C2515 C 0.13148 0.34925 0.66256 0.0
C2516 C 0.14887 0.37716 0.65688 0.0
C2517 C 0.17045 0.38371 0.6452 0.0
C2518 C 0.17418 0.36209 0.63914 0.0
C2519 C 0.15696 0.33461 0.64414 0.0
C2520 C 0.16696 0.31569 0.63697 0.0
C2521 C 0.17366 0.30084 0.65124 0.0
C2522 C 0.14547 0.29448 0.62448 0.0
C2523 C 0.19321 0.33702 0.62784 0.0
C2524 C 0.19676 0.36359 0.62899 0.0
C2525 C 0.2207 0.38704 0.62283 0.0
C2526 C 0.24185 0.38331 0.61564 0.0
C2527 C 0.23899 0.35633 0.61475 0.0
C2528 C 0.21391 0.33289 0.62051 0.0
H2529 H 0.6461 0.81433 0.66588 0.0
H2530 H 0.71801 0.81722 0.64152 0.0
H2531 H 0.71825 0.84999 0.61999 0.0
H2532 H 0.61196 0.81849 0.62728 0.0
H2533 H 0.6002 0.84036 0.63699 0.0
H2534 H 0.60457 0.81565 0.64971 0.0
H2535 H 0.63802 0.85571 0.66979 0.0
H2536 H 0.63365 0.88048 0.65719 0.0
H2537 H 0.66822 0.88597 0.66103 0.0
H2538 H 0.71294 0.88559 0.60261 0.0
H2539 H 0.70178 0.92039 0.59054 0.0
H2540 H 0.63323 0.8933 0.6263 0.0
C2541 C 0.66184 0.82178 0.65598 0.0
C2542 C 0.68202 0.81325 0.65533 0.0
C2543 C 0.70215 0.82326 0.64211 0.0
C2544 C 0.7025 0.84192 0.62986 0.0
C2545 C 0.68242 0.85011 0.63097 0.0
C2546 C 0.6624 0.84024 0.64365 0.0
C2547 C 0.64383 0.85305 0.64246 0.0
C2548 C 0.61333 0.83054 0.63889 0.0
C2549 C 0.64608 0.8698 0.65857 0.0
C2550 C 0.65687 0.87208 0.62732 0.0
C2551 C 0.67904 0.87008 0.6208 0.0
C2552 C 0.69535 0.88703 0.60744 0.0
C2553 C 0.68894 0.90672 0.6007 0.0
C2554 C 0.66637 0.9091 0.60731 0.0
C2555 C 0.65005 0.89132 0.62065 0.0
loop_
_geom_bond_atom_site_label_1
_geom_bond_atom_site_label_2
_geom_bond_distance
_geom_bond_site_symmetry_2
_ccdc_geom_bond_type
Li0 N17 1.990 . S
Li0 O60 1.956 . S
Li0 O61 1.970 . S
Li0 O62 1.961 . S
Li1 N25 1.990 . S
Li1 O60 1.970 . S
Li1 O61 1.956 . S
Li1 O63 1.961 . S
Li2 N47 1.990 . S
Li2 O60 1.961 . S
Li2 O62 1.956 . S
Li2 O63 1.970 . S
Li3 N53 1.990 1_545 S
Li3 O61 1.961 . S
Li3 O62 1.970 . S
Li3 O63 1.956 . S
C4 C6 1.348 . S
C4 C7 1.356 . S
C4 O60 1.325 . S
N5 C8 1.314 . S
N5 C9 1.279 . S
C6 C4 1.348 . S
C6 C8 1.353 . S
C6 H64 0.929 . S
C7 C4 1.356 . S
C7 C9 1.358 . S
C7 H65 0.930 . S
C8 N5 1.314 . S
C8 C6 1.353 . S
C8 H66 0.930 . S
C9 N5 1.279 . S
C9 C7 1.358 . S
C9 H67 0.930 . S
C10 C13 1.348 . S
C10 C14 1.356 . S
C10 O61 1.325 . S
C11 N12 1.279 . S
C11 C14 1.358 . S
C11 H68 0.930 . S
N12 C11 1.279 . S
N12 C15 1.314 . S
C13 C10 1.348 . S
C13 C15 1.353 . S
C13 H69 0.929 . S
C14 C10 1.356 . S
C14 C11 1.358 . S
C14 H70 0.930 . S
C15 N12 1.314 . S
C15 C13 1.353 . S
C15 H71 0.930 . S
C16 N17 1.314 . S
C16 C21 1.353 . S
C16 H22 0.930 . S
N17 Li0 1.990 . S
N17 C16 1.314 . S
N17 C19 1.279 . S
C18 C19 1.358 . S
C18 C20 1.356 . S
C18 H72 0.930 . S
C19 N17 1.279 . S
C19 C18 1.358 . S
C19 H23 0.930 . S
C20 C18 1.356 . S
C20 C21 1.348 . S
C21 C16 1.353 . S
C21 C20 1.348 . S
C21 H73 0.929 1_554 S
H22 C16 0.930 . S
H23 C19 0.930 . S
C24 N25 1.314 . S
C24 C26 1.353 . S
C24 H30 0.930 . S
N25 Li1 1.990 . S
N25 C24 1.314 . S
N25 C28 1.279 . S
C26 C24 1.353 . S
C26 C29 1.348 . S
C26 H74 0.929 . S
C27 C28 1.358 . S
C27 C29 1.356 . S
C27 H75 0.930 . S
C28 N25 1.279 . S
C28 C27 1.358 . S
C28 H31 0.930 . S
C29 C26 1.348 . S
C29 C27 1.356 . S
H30 C24 0.930 . S
H31 C28 0.930 . S
C32 C34 1.348 1_545 S
C32 C35 1.356 . S
C32 O62 1.325 . S
N33 C36 1.314 1_545 S
N33 C37 1.279 . S
C34 C32 1.348 1_565 S
C34 C36 1.353 1_554 S
C34 H76 0.929 . S
C35 C32 1.356 . S
C35 C37 1.358 1_554 S
C35 H77 0.930 . S
C36 N33 1.314 1_565 S
C36 C34 1.353 1_556 S
C36 H78 0.930 . S
C37 N33 1.279 . S
C37 C35 1.358 1_556 S
C37 H79 0.930 . S
C38 C39 1.348 . S
C38 C40 1.356 . S
C38 O63 1.325 1_565 S
C39 C38 1.348 . S
C39 C41 1.353 . S
C39 H80 0.929 . S
C40 C38 1.356 . S
C40 C42 1.358 . S
C40 H81 0.930 . S
C41 C39 1.353 . S
C41 N43 1.314 . S
C41 H82 0.930 . S
C42 C40 1.358 . S
C42 N43 1.279 . S
C42 H83 0.930 . S
N43 C41 1.314 . S
N43 C42 1.279 . S
C44 C46 1.353 . S
C44 N47 1.314 . S
C44 H50 0.930 . S
C45 N47 1.279 . S
C45 C48 1.358 . S
C45 H51 0.930 . S
C46 C44 1.353 . S
C46 C49 1.348 . S
C46 H84 0.929 . S
N47 Li2 1.990 . S
N47 C44 1.314 . S
N47 C45 1.279 . S
C48 C45 1.358 . S
C48 C49 1.356 . S
C48 H85 0.930 . S
C49 C46 1.348 . S
C49 C48 1.356 . S
H50 C44 0.930 . S
H51 C45 0.930 . S
C52 N53 1.314 . S
C52 C54 1.353 . S
C52 H58 0.930 . S
N53 Li3 1.990 1_565 S
N53 C52 1.314 . S
N53 C56 1.279 . S
C54 C52 1.353 . S
C54 C57 1.348 . S
C54 H86 0.929 . S
C55 C56 1.358 . S
C55 C57 1.356 . S
C55 H87 0.930 . S
C56 N53 1.279 . S
C56 C55 1.358 . S
C56 H59 0.930 . S
C57 C54 1.348 . S
C57 C55 1.356 . S
H58 C52 0.930 . S
H59 C56 0.930 . S
O60 Li0 1.956 . S
O60 Li1 1.970 . S
O60 Li2 1.961 . S
O60 C4 1.325 . S
O61 Li0 1.970 . S
O61 Li1 1.956 . S
O61 Li3 1.961 . S
O61 C10 1.325 . S
O62 Li0 1.961 . S
O62 Li2 1.956 . S
O62 Li3 1.970 . S
O62 C32 1.325 . S
O63 Li1 1.961 . S
O63 Li2 1.970 . S
O63 Li3 1.956 . S
O63 C38 1.325 1_545 S
H64 C6 0.929 . S
H65 C7 0.930 . S
H66 C8 0.930 . S
H67 C9 0.930 . S
H68 C11 0.930 . S
H69 C13 0.929 . S
H70 C14 0.930 . S
H71 C15 0.930 . S
H72 C18 0.930 . S
H73 C21 0.929 1_556 S
H74 C26 0.929 . S
H75 C27 0.930 . S
H76 C34 0.929 . S
H77 C35 0.930 . S
H78 C36 0.930 . S
H79 C37 0.930 . S
H80 C39 0.929 . S
H81 C40 0.930 . S
H82 C41 0.930 . S
H83 C42 0.930 . S
H84 C46 0.929 . S
H85 C48 0.930 . S
H86 C54 0.929 . S
H87 C55 0.930 . S
Li88 N105 1.990 . S
Li88 O148 1.956 . S
Li88 O149 1.970 . S
Li88 O150 1.961 . S
Li89 N113 1.990 1_655 S
Li89 O148 1.970 . S
Li89 O149 1.956 . S
Li89 O151 1.961 . S
Li90 N135 1.990 . S
Li90 O148 1.961 . S
Li90 O150 1.956 . S
Li90 O151 1.970 . S
Li91 N141 1.990 . S
Li91 O149 1.961 . S
Li91 O150 1.970 . S
Li91 O151 1.956 . S
C92 C94 1.348 1_655 S
C92 C95 1.356 . S
C92 O148 1.325 . S
N93 C96 1.314 1_655 S
N93 C97 1.279 . S
C94 C92 1.348 1_455 S
C94 C96 1.353 1_554 S
C94 H152 0.929 . S
C95 C92 1.356 . S
C95 C97 1.358 1_554 S
C95 H153 0.930 . S
C96 N93 1.314 1_455 S
C96 C94 1.353 1_556 S
C96 H154 0.930 . S
C97 N93 1.279 . S
C97 C95 1.358 1_556 S
C97 H155 0.930 . S
C98 C101 1.348 . S
C98 C102 1.356 . S
C98 O149 1.325 1_455 S
C99 N100 1.279 . S
C99 C102 1.358 . S
C99 H156 0.930 . S
N100 C99 1.279 . S
N100 C103 1.314 . S
C101 C98 1.348 . S
C101 C103 1.353 . S
C101 H157 0.929 . S
C102 C98 1.356 . S
C102 C99 1.358 . S
C102 H158 0.930 . S
C103 N100 1.314 . S
C103 C101 1.353 . S
C103 H159 0.930 . S
C104 N105 1.314 . S
C104 C109 1.353 . S
C104 H110 0.930 . S
N105 Li88 1.990 . S
N105 C104 1.314 . S
N105 C107 1.279 . S
C106 C107 1.358 . S
C106 C108 1.356 . S
C106 H160 0.930 . S
C107 N105 1.279 . S
C107 C106 1.358 . S
C107 H111 0.930 . S
C108 C106 1.356 . S
C108 C109 1.348 . S
C109 C104 1.353 . S
C109 C108 1.348 . S
C109 H161 0.929 . S
H110 C104 0.930 . S
H111 C107 0.930 . S
C112 N113 1.314 . S
C112 C114 1.353 . S
C112 H118 0.930 . S
N113 Li89 1.990 1_455 S
N113 C112 1.314 . S
N113 C116 1.279 . S
C114 C112 1.353 . S
C114 C117 1.348 . S
C114 H162 0.929 . S
C115 C116 1.358 . S
C115 C117 1.356 . S
C115 H163 0.930 . S
C116 N113 1.279 . S
C116 C115 1.358 . S
C116 H119 0.930 . S
C117 C114 1.348 . S
C117 C115 1.356 . S
H118 C112 0.930 . S
H119 C116 0.930 . S
C120 C122 1.348 . S
C120 C123 1.356 . S
C120 O150 1.325 . S
N121 C124 1.314 . S
N121 C125 1.279 . S
C122 C120 1.348 . S
C122 C124 1.353 . S
C122 H164 0.929 . S
C123 C120 1.356 . S
C123 C125 1.358 . S
C123 H165 0.930 . S
C124 N121 1.314 . S
C124 C122 1.353 . S
C124 H166 0.930 . S
C125 N121 1.279 . S
C125 C123 1.358 . S
C125 H167 0.930 . S
C126 C127 1.348 . S
C126 C128 1.356 . S
C126 O151 1.325 . S
C127 C126 1.348 . S
C127 C129 1.353 . S
C127 H168 0.929 . S
C128 C126 1.356 . S
C128 C130 1.358 . S
C128 H169 0.930 . S
C129 C127 1.353 . S
C129 N131 1.314 . S
C129 H170 0.930 . S
C130 C128 1.358 . S
C130 N131 1.279 . S
C130 H171 0.930 . S
N131 C129 1.314 . S
N131 C130 1.279 . S
C132 C134 1.353 . S
C132 N135 1.314 . S
C132 H138 0.930 . S
C133 N135 1.279 . S
C133 C136 1.358 . S
C133 H139 0.930 . S
C134 C132 1.353 . S
C134 C137 1.348 . S
C134 H172 0.929 1_554 S
N135 Li90 1.990 . S
N135 C132 1.314 . S
N135 C133 1.279 . S
C136 C133 1.358 . S
C136 C137 1.356 . S
C136 H173 0.930 . S
C137 C134 1.348 . S
C137 C136 1.356 . S
H138 C132 0.930 . S
H139 C133 0.930 . S
C140 N141 1.314 . S
C140 C142 1.353 . S
C140 H146 0.930 . S
N141 Li91 1.990 . S
N141 C140 1.314 . S
N141 C144 1.279 . S
C142 C140 1.353 . S
C142 C145 1.348 . S
C142 H174 0.929 . S
C143 C144 1.358 . S
C143 C145 1.356 . S
C143 H175 0.930 . S
C144 N141 1.279 . S
C144 C143 1.358 . S
C144 H147 0.930 . S
C145 C142 1.348 . S
C145 C143 1.356 . S
H146 C140 0.930 . S
H147 C144 0.930 . S
O148 Li88 1.956 . S
O148 Li89 1.970 . S
O148 Li90 1.961 . S
O148 C92 1.325 . S
O149 Li88 1.970 . S
O149 Li89 1.956 . S
O149 Li91 1.961 . S
O149 C98 1.325 1_655 S
O150 Li88 1.961 . S
O150 Li90 1.956 . S
O150 Li91 1.970 . S
O150 C120 1.325 . S
O151 Li89 1.961 . S
O151 Li90 1.970 . S
O151 Li91 1.956 . S
O151 C126 1.325 . S
H152 C94 0.929 . S
H153 C95 0.930 . S
H154 C96 0.930 . S
H155 C97 0.930 . S
H156 C99 0.930 . S
H157 C101 0.929 . S
H158 C102 0.930 . S
H159 C103 0.930 . S
H160 C106 0.930 . S
H161 C109 0.929 . S
H162 C114 0.929 . S
H163 C115 0.930 . S
H164 C122 0.929 . S
H165 C123 0.930 . S
H166 C124 0.930 . S
H167 C125 0.930 . S
H168 C127 0.929 . S
H169 C128 0.930 . S
H170 C129 0.930 . S
H171 C130 0.930 . S
H172 C134 0.929 1_556 S
H173 C136 0.930 . S
H174 C142 0.929 . S
H175 C143 0.930 . S
Li176 N193 1.990 . S
Li176 O236 1.956 . S
Li176 O237 1.970 . S
Li176 O238 1.961 . S
Li177 N201 1.990 . S
Li177 O236 1.970 . S
Li177 O237 1.956 . S
Li177 O239 1.961 . S
Li178 N223 1.990 . S
Li178 O236 1.961 . S
Li178 O238 1.956 . S
Li178 O239 1.970 . S
Li179 N229 1.990 . S
Li179 O237 1.961 . S
Li179 O238 1.970 . S
Li179 O239 1.956 . S
C180 C182 1.348 . S
C180 C183 1.356 . S
C180 O236 1.325 . S
N181 C184 1.314 . S
N181 C185 1.279 . S
C182 C180 1.348 . S
C182 C184 1.353 . S
C182 H240 0.929 . S
C183 C180 1.356 . S
C183 C185 1.358 . S
C183 H241 0.930 . S
C184 N181 1.314 . S
C184 C182 1.353 . S
C184 H242 0.930 . S
C185 N181 1.279 . S
C185 C183 1.358 . S
C185 H243 0.930 . S
C186 C189 1.348 . S
C186 C190 1.356 . S
C186 O237 1.325 . S
C187 N188 1.279 . S
C187 C190 1.358 . S
C187 H244 0.930 . S
N188 C187 1.279 . S
N188 C191 1.314 . S
C189 C186 1.348 . S
C189 C191 1.353 . S
C189 H245 0.929 . S
C190 C186 1.356 . S
C190 C187 1.358 . S
C190 H246 0.930 . S
C191 N188 1.314 . S
C191 C189 1.353 . S
C191 H247 0.930 . S
C192 N193 1.314 . S
C192 C197 1.353 . S
C192 H198 0.930 . S
N193 Li176 1.990 . S
N193 C192 1.314 . S
N193 C195 1.279 . S
C194 C195 1.358 . S
C194 C196 1.356 . S
C194 H248 0.930 . S
C195 N193 1.279 . S
C195 C194 1.358 . S
C195 H199 0.930 . S
C196 C194 1.356 . S
C196 C197 1.348 . S
C197 C192 1.353 . S
C197 C196 1.348 . S
C197 H249 0.929 . S
H198 C192 0.930 . S
H199 C195 0.930 . S
C200 N201 1.314 . S
C200 C202 1.353 . S
C200 H206 0.930 . S
N201 Li177 1.990 . S
N201 C200 1.314 . S
N201 C204 1.279 . S
C202 C200 1.353 . S
C202 C205 1.348 . S
C202 H250 0.929 . S
C203 C204 1.358 . S
C203 C205 1.356 . S
C203 H251 0.930 . S
C204 N201 1.279 . S
C204 C203 1.358 . S
C204 H207 0.930 . S
C205 C202 1.348 . S
C205 C203 1.356 . S
H206 C200 0.930 . S
H207 C204 0.930 . S
C208 C210 1.348 . S
C208 C211 1.356 . S
C208 O238 1.325 . S
N209 C212 1.314 . S
N209 C213 1.279 . S
C210 C208 1.348 . S
C210 C212 1.353 1_554 S
C210 H252 0.929 . S
C211 C208 1.356 . S
C211 C213 1.358 1_554 S
C211 H253 0.930 . S
C212 N209 1.314 . S
C212 C210 1.353 1_556 S
C212 H254 0.930 . S
C213 N209 1.279 . S
C213 C211 1.358 1_556 S
C213 H255 0.930 . S
C214 C215 1.348 . S
C214 C216 1.356 . S
C214 O239 1.325 . S
C215 C214 1.348 . S
C215 C217 1.353 . S
C215 H256 0.929 . S
C216 C214 1.356 . S
C216 C218 1.358 . S
C216 H257 0.930 . S
C217 C215 1.353 . S
C217 N219 1.314 . S
C217 H258 0.930 . S
C218 C216 1.358 . S
C218 N219 1.279 . S
C218 H259 0.930 . S
N219 C217 1.314 . S
N219 C218 1.279 . S
C220 C222 1.353 . S
C220 N223 1.314 . S
C220 H226 0.930 . S
C221 N223 1.279 . S
C221 C224 1.358 . S
C221 H227 0.930 . S
C222 C220 1.353 . S
C222 C225 1.348 . S
C222 H260 0.929 . S
N223 Li178 1.990 . S
N223 C220 1.314 . S
N223 C221 1.279 . S
C224 C221 1.358 . S
C224 C225 1.356 . S
C224 H261 0.930 1_554 S
C225 C222 1.348 . S
C225 C224 1.356 . S
H226 C220 0.930 . S
H227 C221 0.930 . S
C228 N229 1.314 . S
C228 C230 1.353 . S
C228 H234 0.930 . S
N229 Li179 1.990 . S
N229 C228 1.314 . S
N229 C232 1.279 . S
C230 C228 1.353 . S
C230 C233 1.348 . S
C230 H262 0.929 . S
C231 C232 1.358 . S
C231 C233 1.356 . S
C231 H263 0.930 . S
C232 N229 1.279 . S
C232 C231 1.358 . S
C232 H235 0.930 . S
C233 C230 1.348 . S
C233 C231 1.356 . S
H234 C228 0.930 . S
H235 C232 0.930 . S
O236 Li176 1.956 . S
O236 Li177 1.970 . S
O236 Li178 1.961 . S
O236 C180 1.325 . S
O237 Li176 1.970 . S
O237 Li177 1.956 . S
O237 Li179 1.961 . S
O237 C186 1.325 . S
O238 Li176 1.961 . S
O238 Li178 1.956 . S
O238 Li179 1.970 . S
O238 C208 1.325 . S
O239 Li177 1.961 . S
O239 Li178 1.970 . S
O239 Li179 1.956 . S
O239 C214 1.325 . S
H240 C182 0.929 . S
H241 C183 0.930 . S
H242 C184 0.930 . S
H243 C185 0.930 . S
H244 C187 0.930 . S
H245 C189 0.929 . S
H246 C190 0.930 . S
H247 C191 0.930 . S
H248 C194 0.930 . S
H249 C197 0.929 . S
H250 C202 0.929 . S
H251 C203 0.930 . S
H252 C210 0.929 . S
H253 C211 0.930 . S
H254 C212 0.930 . S
H255 C213 0.930 . S
H256 C215 0.929 . S
H257 C216 0.930 . S
H258 C217 0.930 . S
H259 C218 0.930 . S
H260 C222 0.929 . S
H261 C224 0.930 1_556 S
H262 C230 0.929 . S
H263 C231 0.930 . S
Li264 N281 1.990 . S
Li264 O324 1.956 . S
Li264 O325 1.970 . S
Li264 O326 1.961 . S
Li265 N289 1.990 1_565 S
Li265 O324 1.970 . S
Li265 O325 1.956 . S
Li265 O327 1.961 . S
Li266 N311 1.990 . S
Li266 O324 1.961 . S
Li266 O326 1.956 . S
Li266 O327 1.970 . S
Li267 N317 1.990 . S
Li267 O325 1.961 . S
Li267 O326 1.970 . S
Li267 O327 1.956 . S
C268 C270 1.348 . S
C268 C271 1.356 . S
C268 O324 1.325 1_545 S
N269 C272 1.314 . S
N269 C273 1.279 . S
C270 C268 1.348 . S
C270 C272 1.353 . S
C270 H328 0.929 . S
C271 C268 1.356 . S
C271 C273 1.358 . S
C271 H329 0.930 1_545 S
C272 N269 1.314 . S
C272 C270 1.353 . S
C272 H330 0.930 . S
C273 N269 1.279 . S
C273 C271 1.358 . S
C273 H331 0.930 . S
C274 C277 1.348 . S
C274 C278 1.356 . S
C274 O325 1.325 . S
C275 N276 1.279 . S
C275 C278 1.358 1_554 S
C275 H332 0.930 . S
N276 C275 1.279 . S
N276 C279 1.322 . S
C277 C274 1.348 . S
C277 C279 1.357 1_556 S
C277 H333 0.929 . S
C278 C274 1.356 . S
C278 C275 1.358 1_556 S
C278 H334 0.930 . S
C279 N276 1.322 . S
C279 C277 1.357 1_554 S
C279 H335 0.917 1_565 S
C280 N281 1.314 . S
C280 C285 1.353 . S
C280 H286 0.930 . S
N281 Li264 1.990 . S
N281 C280 1.314 . S
N281 C283 1.279 . S
C282 C283 1.358 . S
C282 C284 1.356 . S
C282 H336 0.930 1_565 S
C283 N281 1.279 . S
C283 C282 1.358 . S
C283 H287 0.930 1_565 S
C284 C282 1.356 . S
C284 C285 1.348 . S
C285 C280 1.353 . S
C285 C284 1.348 . S
C285 H337 0.929 . S
H286 C280 0.930 . S
H287 C283 0.930 1_545 S
C288 N289 1.314 . S
C288 C290 1.353 . S
C288 H294 0.930 . S
N289 Li265 1.990 1_545 S
N289 C288 1.314 . S
N289 C292 1.279 . S
C290 C288 1.353 . S
C290 C293 1.348 . S
C290 H338 0.929 . S
C291 C292 1.358 . S
C291 C293 1.356 . S
C291 H339 0.930 . S
C292 N289 1.279 . S
C292 C291 1.358 . S
C292 H295 0.930 . S
C293 C290 1.348 . S
C293 C291 1.356 . S
H294 C288 0.930 . S
H295 C292 0.930 . S
C296 C298 1.348 . S
C296 C299 1.356 . S
C296 O326 1.325 . S
N297 C300 1.314 . S
N297 C301 1.279 . S
C298 C296 1.348 . S
C298 C300 1.353 . S
C298 H340 0.929 . S
C299 C296 1.356 . S
C299 C301 1.358 . S
C299 H341 0.930 . S
C300 N297 1.314 . S
C300 C298 1.353 . S
C300 H342 0.930 . S
C301 N297 1.279 . S
C301 C299 1.358 . S
C301 H343 0.930 . S
C302 C303 1.348 . S
C302 C304 1.356 . S
C302 O327 1.325 . S
C303 C302 1.348 . S
C303 C305 1.353 . S
C303 H344 0.929 . S
C304 C302 1.356 . S
C304 C306 1.358 . S
C304 H345 0.930 . S
C305 C303 1.353 . S
C305 N307 1.314 . S
C305 H346 0.930 . S
C306 C304 1.358 . S
C306 N307 1.279 . S
C306 H347 0.930 . S
N307 C305 1.314 . S
N307 C306 1.279 . S
C308 C310 1.353 . S
C308 N311 1.314 . S
C308 H314 0.930 . S
C309 N311 1.279 . S
C309 C312 1.358 . S
C309 H315 0.930 . S
C310 C308 1.353 . S
C310 C313 1.348 . S
C310 H348 0.929 . S
N311 Li266 1.990 . S
N311 C308 1.314 . S
N311 C309 1.279 . S
C312 C309 1.358 . S
C312 C313 1.356 . S
C312 H349 0.930 . S
C313 C310 1.348 . S
C313 C312 1.356 . S
H314 C308 0.930 . S
H315 C309 0.930 . S
C316 N317 1.314 . S
C316 C318 1.353 . S
C316 H322 0.930 . S
N317 Li267 1.990 . S
N317 C316 1.314 . S
N317 C320 1.279 . S
C318 C316 1.353 . S
C318 C321 1.348 . S
C318 H350 0.929 1_556 S
C319 C320 1.358 . S
C319 C321 1.356 . S
C319 H351 0.930 . S
C320 N317 1.279 . S
C320 C319 1.358 . S
C320 H323 0.930 . S
C321 C318 1.348 . S
C321 C319 1.356 . S
H322 C316 0.930 . S
H323 C320 0.930 . S
O324 Li264 1.956 . S
O324 Li265 1.970 . S
O324 Li266 1.961 . S
O324 C268 1.325 1_565 S
O325 Li264 1.970 . S
O325 Li265 1.956 . S
O325 Li267 1.961 . S
O325 C274 1.325 . S
O326 Li264 1.961 . S
O326 Li266 1.956 . S
O326 Li267 1.970 . S
O326 C296 1.325 . S
O327 Li265 1.961 . S
O327 Li266 1.970 . S
O327 Li267 1.956 . S
O327 C302 1.325 . S
H328 C270 0.929 . S
H329 C271 0.930 1_565 S
H330 C272 0.930 . S
H331 C273 0.930 . S
H332 C275 0.930 . S
H333 C277 0.929 . S
H334 C278 0.930 . S
H335 C279 0.917 1_545 S
H336 C282 0.930 1_545 S
H337 C285 0.929 . S
H338 C290 0.929 . S
H339 C291 0.930 . S
H340 C298 0.929 . S
H341 C299 0.930 . S
H342 C300 0.930 . S
H343 C301 0.930 . S
H344 C303 0.929 . S
H345 C304 0.930 . S
H346 C305 0.930 . S
H347 C306 0.930 . S
H348 C310 0.929 . S
H349 C312 0.930 . S
H350 C318 0.929 1_554 S
H351 C319 0.930 . S
Li352 N369 1.990 . S
Li352 O412 1.956 . S
Li352 O413 1.970 . S
Li352 O414 1.961 . S
Li353 N377 1.990 . S
Li353 O412 1.970 . S
Li353 O413 1.956 . S
Li353 O415 1.961 . S
Li354 N399 1.990 . S
Li354 O412 1.961 . S
Li354 O414 1.956 . S
Li354 O415 1.970 . S
Li355 N405 1.990 1_455 S
Li355 O413 1.961 . S
Li355 O414 1.970 . S
Li355 O415 1.956 . S
C356 C358 1.348 . S
C356 C359 1.356 . S
C356 O412 1.325 . S
N357 C360 1.314 . S
N357 C361 1.279 . S
C358 C356 1.348 . S
C358 C360 1.353 . S
C358 H416 0.929 . S
C359 C356 1.356 . S
C359 C361 1.358 . S
C359 H417 0.930 . S
C360 N357 1.314 . S
C360 C358 1.353 . S
C360 H418 0.930 . S
C361 N357 1.279 . S
C361 C359 1.358 . S
C361 H419 0.930 . S
C362 C365 1.348 . S
C362 C366 1.356 . S
C362 O413 1.325 . S
C363 N364 1.279 . S
C363 C366 1.358 . S
C363 H420 0.930 . S
N364 C363 1.279 . S
N364 C367 1.314 . S
C365 C362 1.348 . S
C365 C367 1.353 . S
C365 H421 0.929 . S
C366 C362 1.356 . S
C366 C363 1.358 . S
C366 H422 0.930 . S
C367 N364 1.314 . S
C367 C365 1.353 . S
C367 H423 0.930 . S
C368 N369 1.314 . S
C368 C373 1.353 . S
C368 H374 0.930 . S
N369 Li352 1.990 . S
N369 C368 1.314 . S
N369 C371 1.279 . S
C370 C371 1.358 . S
C370 C372 1.356 . S
C370 H424 0.930 . S
C371 N369 1.279 . S
C371 C370 1.358 . S
C371 H375 0.930 . S
C372 C370 1.356 . S
C372 C373 1.348 . S
C373 C368 1.353 . S
C373 C372 1.348 . S
C373 H425 0.929 . S
H374 C368 0.930 . S
H375 C371 0.930 . S
C376 N377 1.314 . S
C376 C378 1.353 . S
C376 H382 0.930 . S
N377 Li353 1.990 . S
N377 C376 1.314 . S
N377 C380 1.279 . S
C378 C376 1.353 . S
C378 C381 1.348 . S
C378 H426 0.929 1_556 S
C379 C380 1.358 . S
C379 C381 1.356 . S
C379 H427 0.930 . S
C380 N377 1.279 . S
C380 C379 1.358 . S
C380 H383 0.930 . S
C381 C378 1.348 . S
C381 C379 1.356 . S
H382 C376 0.930 . S
H383 C380 0.930 . S
C384 C386 1.348 . S
C384 C387 1.356 . S
C384 O414 1.325 1_655 S
N385 C388 1.314 . S
N385 C389 1.279 . S
C386 C384 1.348 . S
C386 C388 1.353 . S
C386 H428 0.929 . S
C387 C384 1.356 . S
C387 C389 1.358 . S
C387 H429 0.930 1_655 S
C388 N385 1.314 . S
C388 C386 1.353 . S
C388 H430 0.930 . S
C389 N385 1.279 . S
C389 C387 1.358 . S
C389 H431 0.930 . S
C390 C391 1.348 . S
C390 C392 1.356 . S
C390 O415 1.325 . S
C391 C390 1.348 . S
C391 C393 1.353 1_456 S
C391 H432 0.929 . S
C392 C390 1.356 . S
C392 C394 1.358 1_556 S
C392 H433 0.930 . S
C393 C391 1.353 1_654 S
C393 N395 1.320 1_655 S
C393 H434 0.930 . S
C394 C392 1.358 1_554 S
C394 N395 1.277 . S
C394 H435 0.930 . S
N395 C393 1.320 1_455 S
N395 C394 1.277 . S
C396 C398 1.353 . S
C396 N399 1.314 . S
C396 H402 0.930 . S
C397 N399 1.279 . S
C397 C400 1.358 . S
C397 H403 0.930 1_455 S
C398 C396 1.353 . S
C398 C401 1.348 . S
C398 H436 0.929 . S
N399 Li354 1.990 . S
N399 C396 1.314 . S
N399 C397 1.279 . S
C400 C397 1.358 . S
C400 C401 1.356 . S
C400 H437 0.930 1_455 S
C401 C398 1.348 . S
C401 C400 1.356 . S
H402 C396 0.930 . S
H403 C397 0.930 1_655 S
C404 N405 1.314 . S
C404 C406 1.353 . S
C404 H410 0.930 . S
N405 Li355 1.990 1_655 S
N405 C404 1.314 . S
N405 C408 1.279 . S
C406 C404 1.353 . S
C406 C409 1.348 . S
C406 H438 0.929 . S
C407 C408 1.358 . S
C407 C409 1.356 . S
C407 H439 0.930 . S
C408 N405 1.279 . S
C408 C407 1.358 . S
C408 H411 0.930 . S
C409 C406 1.348 . S
C409 C407 1.356 . S
H410 C404 0.930 . S
H411 C408 0.930 . S
O412 Li352 1.956 . S
O412 Li353 1.970 . S
O412 Li354 1.961 . S
O412 C356 1.325 . S
O413 Li352 1.970 . S
O413 Li353 1.956 . S
O413 Li355 1.961 . S
O413 C362 1.325 . S
O414 Li352 1.961 . S
O414 Li354 1.956 . S
O414 Li355 1.970 . S
O414 C384 1.325 1_455 S
O415 Li353 1.961 . S
O415 Li354 1.970 . S
O415 Li355 1.956 . S
O415 C390 1.325 . S
H416 C358 0.929 . S
H417 C359 0.930 . S
H418 C360 0.930 . S
H419 C361 0.930 . S
H420 C363 0.930 . S
H421 C365 0.929 . S
H422 C366 0.930 . S
H423 C367 0.930 . S
H424 C370 0.930 . S
H425 C373 0.929 . S
H426 C378 0.929 1_554 S
H427 C379 0.930 . S
H428 C386 0.929 . S
H429 C387 0.930 1_455 S
H430 C388 0.930 . S
H431 C389 0.930 . S
H432 C391 0.929 . S
H433 C392 0.930 . S
H434 C393 0.930 . S
H435 C394 0.930 . S
H436 C398 0.929 . S
H437 C400 0.930 1_655 S
H438 C406 0.929 . S
H439 C407 0.930 . S
Li440 N457 1.990 . S
Li440 O500 1.956 . S
Li440 O501 1.970 . S
Li440 O502 1.961 . S
Li441 N465 1.990 . S
Li441 O500 1.970 . S
Li441 O501 1.956 . S
Li441 O503 1.961 . S
Li442 N487 1.990 . S
Li442 O500 1.961 . S
Li442 O502 1.956 . S
Li442 O503 1.970 . S
Li443 N493 1.990 . S
Li443 O501 1.961 . S
Li443 O502 1.970 . S
Li443 O503 1.956 . S
C444 C446 1.348 . S
C444 C447 1.356 . S
C444 O500 1.325 . S
N445 C448 1.314 . S
N445 C449 1.279 . S
C446 C444 1.348 . S
C446 C448 1.353 1_556 S
C446 H504 0.929 . S
C447 C444 1.356 . S
C447 C449 1.358 1_556 S
C447 H505 0.930 . S
C448 N445 1.314 . S
C448 C446 1.353 1_554 S
C448 H506 0.930 . S
C449 N445 1.279 . S
C449 C447 1.358 1_554 S
C449 H507 0.930 . S
C450 C453 1.348 . S
C450 C454 1.356 . S
C450 O501 1.325 . S
C451 N452 1.279 . S
C451 C454 1.358 . S
C451 H508 0.930 . S
N452 C451 1.279 . S
N452 C455 1.314 . S
C453 C450 1.348 . S
C453 C455 1.353 . S
C453 H509 0.929 . S
C454 C450 1.356 . S
C454 C451 1.358 . S
C454 H510 0.930 . S
C455 N452 1.314 . S
C455 C453 1.353 . S
C455 H511 0.930 . S
C456 N457 1.314 . S
C456 C461 1.353 . S
C456 H462 0.930 . S
N457 Li440 1.990 . S
N457 C456 1.314 . S
N457 C459 1.279 . S
C458 C459 1.358 . S
C458 C460 1.356 . S
C458 H512 0.930 1_556 S
C459 N457 1.279 . S
C459 C458 1.358 . S
C459 H463 0.930 . S
C460 C458 1.356 . S
C460 C461 1.348 . S
C461 C456 1.353 . S
C461 C460 1.348 . S
C461 H513 0.929 . S
H462 C456 0.930 . S
H463 C459 0.930 . S
C464 N465 1.314 . S
C464 C466 1.353 . S
C464 H470 0.930 . S
N465 Li441 1.990 . S
N465 C464 1.314 . S
N465 C468 1.279 . S
C466 C464 1.353 . S
C466 C469 1.348 . S
C466 H514 0.929 . S
C467 C468 1.358 . S
C467 C469 1.356 . S
C467 H515 0.930 . S
C468 N465 1.279 . S
C468 C467 1.358 . S
C468 H471 0.930 . S
C469 C466 1.348 . S
C469 C467 1.356 . S
H470 C464 0.930 . S
H471 C468 0.930 . S
C472 C474 1.348 . S
C472 C475 1.356 . S
C472 O502 1.325 . S
N473 C476 1.314 . S
N473 C477 1.279 . S
C474 C472 1.348 . S
C474 C476 1.353 . S
C474 H516 0.929 . S
C475 C472 1.356 . S
C475 C477 1.358 . S
C475 H517 0.930 . S
C476 N473 1.314 . S
C476 C474 1.353 . S
C476 H518 0.930 . S
C477 N473 1.279 . S
C477 C475 1.358 . S
C477 H519 0.930 . S
C478 C479 1.348 . S
C478 C480 1.356 . S
C478 O503 1.325 . S
C479 C478 1.348 . S
C479 C481 1.353 . S
C479 H520 0.929 . S
C480 C478 1.356 . S
C480 C482 1.358 . S
C480 H521 0.930 . S
C481 C479 1.353 . S
C481 N483 1.314 . S
C481 H522 0.930 . S
C482 C480 1.358 . S
C482 N483 1.279 . S
C482 H523 0.930 . S
N483 C481 1.314 . S
N483 C482 1.279 . S
C484 C486 1.353 . S
C484 N487 1.314 . S
C484 H490 0.930 . S
C485 N487 1.279 . S
C485 C488 1.358 . S
C485 H491 0.930 . S
C486 C484 1.353 . S
C486 C489 1.348 . S
C486 H524 0.929 . S
N487 Li442 1.990 . S
N487 C484 1.314 . S
N487 C485 1.279 . S
C488 C485 1.358 . S
C488 C489 1.356 . S
C488 H525 0.930 . S
C489 C486 1.348 . S
C489 C488 1.356 . S
H490 C484 0.930 . S
H491 C485 0.930 . S
C492 N493 1.314 . S
C492 C494 1.353 . S
C492 H498 0.930 . S
N493 Li443 1.990 . S
N493 C492 1.314 . S
N493 C496 1.279 . S
C494 C492 1.353 . S
C494 C497 1.348 . S
C494 H526 0.929 . S
C495 C496 1.358 . S
C495 C497 1.356 . S
C495 H527 0.930 . S
C496 N493 1.279 . S
C496 C495 1.358 . S
C496 H499 0.930 . S
C497 C494 1.348 . S
C497 C495 1.356 . S
H498 C492 0.930 . S
H499 C496 0.930 . S
O500 Li440 1.956 . S
O500 Li441 1.970 . S
O500 Li442 1.961 . S
O500 C444 1.325 . S
O501 Li440 1.970 . S
O501 Li441 1.956 . S
O501 Li443 1.961 . S
O501 C450 1.325 . S
O502 Li440 1.961 . S
O502 Li442 1.956 . S
O502 Li443 1.970 . S
O502 C472 1.325 . S
O503 Li441 1.961 . S
O503 Li442 1.970 . S
O503 Li443 1.956 . S
O503 C478 1.325 . S
H504 C446 0.929 . S
H505 C447 0.930 . S
H506 C448 0.930 . S
H507 C449 0.930 . S
H508 C451 0.930 . S
H509 C453 0.929 . S
H510 C454 0.930 . S
H511 C455 0.930 . S
H512 C458 0.930 1_554 S
H513 C461 0.929 . S
H514 C466 0.929 . S
H515 C467 0.930 . S
H516 C474 0.929 . S
H517 C475 0.930 . S
H518 C476 0.930 . S
H519 C477 0.930 . S
H520 C479 0.929 . S
H521 C480 0.930 . S
H522 C481 0.930 . S
H523 C482 0.930 . S
H524 C486 0.929 . S
H525 C488 0.930 . S
H526 C494 0.929 . S
H527 C495 0.930 . S
Li528 N545 1.981 . S
Li528 O588 1.974 . S
Li528 O589 1.957 1_455 S
Li528 O590 1.971 1_455 S
Li529 N553 1.997 . S
Li529 O588 1.949 1_655 S
Li529 O589 1.988 . S
Li529 O591 1.939 1_655 S
Li530 N575 1.990 . S
Li530 O588 1.961 . S
Li530 O590 1.956 1_455 S
Li530 O591 1.970 . S
Li531 N581 1.990 . S
Li531 O589 1.961 . S
Li531 O590 1.970 . S
Li531 O591 1.956 1_655 S
C532 C534 1.348 . S
C532 C535 1.356 . S
C532 O588 1.325 . S
N533 C536 1.314 . S
N533 C537 1.279 . S
C534 C532 1.348 . S
C534 C536 1.353 . S
C534 H592 0.929 . S
C535 C532 1.356 . S
C535 C537 1.358 . S
C535 H593 0.930 . S
C536 N533 1.314 . S
C536 C534 1.353 . S
C536 H594 0.930 . S
C537 N533 1.279 . S
C537 C535 1.358 . S
C537 H595 0.930 . S
C538 C541 1.348 . S
C538 C542 1.356 . S
C538 O589 1.325 . S
C539 N540 1.279 . S
C539 C542 1.358 . S
C539 H596 0.930 . S
N540 C539 1.279 . S
N540 C543 1.314 . S
C541 C538 1.348 . S
C541 C543 1.353 . S
C541 H597 0.929 . S
C542 C538 1.356 . S
C542 C539 1.358 . S
C542 H598 0.930 . S
C543 N540 1.314 . S
C543 C541 1.353 . S
C543 H599 0.930 . S
C544 N545 1.314 1_655 S
C544 C549 1.353 . S
C544 H550 0.930 . S
N545 Li528 1.981 . S
N545 C544 1.314 1_455 S
N545 C547 1.279 . S
C546 C547 1.358 . S
C546 C548 1.356 1_455 S
C546 H600 0.930 . S
C547 N545 1.279 . S
C547 C546 1.358 . S
C547 H551 0.930 . S
C548 C546 1.356 1_655 S
C548 C549 1.348 . S
C549 C544 1.353 . S
C549 C548 1.348 . S
C549 H601 0.929 . S
H550 C544 0.930 . S
H551 C547 0.930 . S
C552 N553 1.314 1_455 S
C552 C554 1.353 . S
C552 H558 0.930 . S
N553 Li529 1.997 . S
N553 C552 1.314 1_655 S
N553 C556 1.279 . S
C554 C552 1.353 . S
C554 C557 1.348 . S
C554 H602 0.929 . S
C555 C556 1.358 . S
C555 C557 1.356 1_655 S
C555 H603 0.930 . S
C556 N553 1.279 . S
C556 C555 1.358 . S
C556 H559 0.930 . S
C557 C554 1.348 . S
C557 C555 1.356 1_455 S
H558 C552 0.930 . S
H559 C556 0.930 . S
C560 C562 1.349 . S
C560 C563 1.350 1_655 S
C560 O590 1.328 . S
N561 C564 1.314 1_455 S
N561 C565 1.279 . S
C562 C560 1.349 . S
C562 C564 1.353 . S
C562 H604 0.929 . S
C563 C560 1.350 1_455 S
C563 C565 1.358 . S
C563 H605 0.930 . S
C564 N561 1.314 1_655 S
C564 C562 1.353 . S
C564 H606 0.930 . S
C565 N561 1.279 . S
C565 C563 1.358 . S
C565 H607 0.930 . S
C566 C567 1.348 . S
C566 C568 1.356 1_455 S
C566 O591 1.325 . S
C567 C566 1.348 . S
C567 C569 1.353 . S
C567 H608 0.929 . S
C568 C566 1.356 1_655 S
C568 C570 1.358 . S
C568 H609 0.930 . S
C569 C567 1.353 . S
C569 N571 1.309 1_455 S
C569 H610 0.930 . S
C570 C568 1.358 . S
C570 N571 1.291 . S
C570 H611 0.930 . S
N571 C569 1.309 1_655 S
N571 C570 1.291 . S
C572 C574 1.353 . S
C572 N575 1.314 . S
C572 H578 0.930 . S
C573 N575 1.279 . S
C573 C576 1.358 . S
C573 H579 0.930 . S
C574 C572 1.353 . S
C574 C577 1.348 . S
C574 H612 0.929 . S
N575 Li530 1.990 . S
N575 C572 1.314 . S
N575 C573 1.279 . S
C576 C573 1.358 . S
C576 C577 1.356 . S
C576 H613 0.930 . S
C577 C574 1.348 . S
C577 C576 1.356 . S
H578 C572 0.930 . S
H579 C573 0.930 . S
C580 N581 1.314 . S
C580 C582 1.353 . S
C580 H586 0.930 . S
N581 Li531 1.990 . S
N581 C580 1.314 . S
N581 C584 1.279 . S
C582 C580 1.353 . S
C582 C585 1.348 . S
C582 H614 0.929 . S
C583 C584 1.358 . S
C583 C585 1.356 . S
C583 H615 0.930 . S
C584 N581 1.279 . S
C584 C583 1.358 . S
C584 H587 0.930 . S
C585 C582 1.348 . S
C585 C583 1.356 . S
H586 C580 0.930 . S
H587 C584 0.930 . S
O588 Li528 1.974 . S
O588 Li529 1.949 1_455 S
O588 Li530 1.961 . S
O588 C532 1.325 . S
O589 Li528 1.957 1_655 S
O589 Li529 1.988 . S
O589 Li531 1.961 . S
O589 C538 1.325 . S
O590 Li528 1.971 1_655 S
O590 Li530 1.956 1_655 S
O590 Li531 1.970 . S
O590 C560 1.328 . S
O591 Li529 1.939 1_455 S
O591 Li530 1.970 . S
O591 Li531 1.956 1_455 S
O591 C566 1.325 . S
H592 C534 0.929 . S
H593 C535 0.930 . S
H594 C536 0.930 . S
H595 C537 0.930 . S
H596 C539 0.930 . S
H597 C541 0.929 . S
H598 C542 0.930 . S
H599 C543 0.930 . S
H600 C546 0.930 . S
H601 C549 0.929 . S
H602 C554 0.929 . S
H603 C555 0.930 . S
H604 C562 0.929 . S
H605 C563 0.930 . S
H606 C564 0.930 . S
H607 C565 0.930 . S
H608 C567 0.929 . S
H609 C568 0.930 . S
H610 C569 0.930 . S
H611 C570 0.930 . S
H612 C574 0.929 . S
H613 C576 0.930 . S
H614 C582 0.929 . S
H615 C583 0.930 . S
Li616 N633 1.990 . S
Li616 O676 1.956 . S
Li616 O677 1.970 . S
Li616 O678 1.961 . S
Li617 N641 1.990 . S
Li617 O676 1.970 . S
Li617 O677 1.956 . S
Li617 O679 1.961 . S
Li618 N663 1.990 . S
Li618 O676 1.961 . S
Li618 O678 1.956 . S
Li618 O679 1.970 . S
Li619 N669 1.990 . S
Li619 O677 1.961 . S
Li619 O678 1.970 . S
Li619 O679 1.956 . S
C620 C622 1.348 . S
C620 C623 1.356 . S
C620 O676 1.325 . S
N621 C624 1.314 . S
N621 C625 1.279 . S
C622 C620 1.348 . S
C622 C624 1.353 . S
C622 H680 0.929 . S
C623 C620 1.356 . S
C623 C625 1.358 . S
C623 H681 0.930 . S
C624 N621 1.314 . S
C624 C622 1.353 . S
C624 H682 0.930 . S
C625 N621 1.279 . S
C625 C623 1.358 . S
C625 H683 0.930 . S
C626 C629 1.348 . S
C626 C630 1.356 . S
C626 O677 1.325 . S
C627 N628 1.279 . S
C627 C630 1.358 . S
C627 H684 0.930 . S
N628 C627 1.279 . S
N628 C631 1.314 . S
C629 C626 1.348 . S
C629 C631 1.353 . S
C629 H685 0.929 . S
C630 C626 1.356 . S
C630 C627 1.358 . S
C630 H686 0.930 . S
C631 N628 1.314 . S
C631 C629 1.353 . S
C631 H687 0.930 . S
C632 N633 1.314 . S
C632 C637 1.353 . S
C632 H638 0.930 . S
N633 Li616 1.990 . S
N633 C632 1.314 . S
N633 C635 1.279 . S
C634 C635 1.358 . S
C634 C636 1.356 . S
C634 H688 0.930 . S
C635 N633 1.279 . S
C635 C634 1.358 . S
C635 H639 0.930 . S
C636 C634 1.356 . S
C636 C637 1.348 . S
C637 C632 1.353 . S
C637 C636 1.348 . S
C637 H689 0.929 . S
H638 C632 0.930 . S
H639 C635 0.930 . S
C640 N641 1.314 . S
C640 C642 1.353 . S
C640 H646 0.930 . S
N641 Li617 1.990 . S
N641 C640 1.314 . S
N641 C644 1.279 . S
C642 C640 1.353 . S
C642 C645 1.348 . S
C642 H690 0.929 . S
C643 C644 1.358 . S
C643 C645 1.356 . S
C643 H691 0.930 . S
C644 N641 1.279 . S
C644 C643 1.358 . S
C644 H647 0.930 . S
C645 C642 1.348 . S
C645 C643 1.356 . S
H646 C640 0.930 . S
H647 C644 0.930 . S
C648 C650 1.348 . S
C648 C651 1.356 . S
C648 O678 1.325 . S
N649 C652 1.314 . S
N649 C653 1.279 . S
C650 C648 1.348 . S
C650 C652 1.353 . S
C650 H692 0.929 . S
C651 C648 1.356 . S
C651 C653 1.358 . S
C651 H693 0.930 . S
C652 N649 1.314 . S
C652 C650 1.353 . S
C652 H694 0.930 . S
C653 N649 1.279 . S
C653 C651 1.358 . S
C653 H695 0.930 . S
C654 C655 1.348 . S
C654 C656 1.356 . S
C654 O679 1.325 . S
C655 C654 1.348 . S
C655 C657 1.353 . S
C655 H696 0.929 . S
C656 C654 1.356 . S
C656 C658 1.358 . S
C656 H697 0.930 . S
C657 C655 1.353 . S
C657 N659 1.314 . S
C657 H698 0.930 . S
C658 C656 1.358 . S
C658 N659 1.279 . S
C658 H699 0.930 . S
N659 C657 1.314 . S
N659 C658 1.279 . S
C660 C662 1.353 . S
C660 N663 1.314 . S
C660 H666 0.930 . S
C661 N663 1.279 . S
C661 C664 1.358 . S
C661 H667 0.930 . S
C662 C660 1.353 . S
C662 C665 1.348 . S
C662 H700 0.929 . S
N663 Li618 1.990 . S
N663 C660 1.314 . S
N663 C661 1.279 . S
C664 C661 1.358 . S
C664 C665 1.356 . S
C664 H701 0.930 . S
C665 C662 1.348 . S
C665 C664 1.356 . S
H666 C660 0.930 . S
H667 C661 0.930 . S
C668 N669 1.314 . S
C668 C670 1.353 . S
C668 H674 0.930 . S
N669 Li619 1.990 . S
N669 C668 1.314 . S
N669 C672 1.279 . S
C670 C668 1.353 . S
C670 C673 1.348 . S
C670 H702 0.929 . S
C671 C672 1.358 . S
C671 C673 1.356 . S
C671 H703 0.930 . S
C672 N669 1.279 . S
C672 C671 1.358 . S
C672 H675 0.930 . S
C673 C670 1.348 . S
C673 C671 1.356 . S
H674 C668 0.930 . S
H675 C672 0.930 . S
O676 Li616 1.956 . S
O676 Li617 1.970 . S
O676 Li618 1.961 . S
O676 C620 1.325 . S
O677 Li616 1.970 . S
O677 Li617 1.956 . S
O677 Li619 1.961 . S
O677 C626 1.325 . S
O678 Li616 1.961 . S
O678 Li618 1.956 . S
O678 Li619 1.970 . S
O678 C648 1.325 . S
O679 Li617 1.961 . S
O679 Li618 1.970 . S
O679 Li619 1.956 . S
O679 C654 1.325 . S
H680 C622 0.929 . S
H681 C623 0.930 . S
H682 C624 0.930 . S
H683 C625 0.930 . S
H684 C627 0.930 . S
H685 C629 0.929 . S
H686 C630 0.930 . S
H687 C631 0.930 . S
H688 C634 0.930 . S
H689 C637 0.929 . S
H690 C642 0.929 . S
H691 C643 0.930 . S
H692 C650 0.929 . S
H693 C651 0.930 . S
H694 C652 0.930 . S
H695 C653 0.930 . S
H696 C655 0.929 . S
H697 C656 0.930 . S
H698 C657 0.930 . S
H699 C658 0.930 . S
H700 C662 0.929 . S
H701 C664 0.930 . S
H702 C670 0.929 . S
H703 C671 0.930 . S
Li704 N721 1.990 . S
Li704 O764 1.956 . S
Li704 O765 1.957 1_545 S
Li704 O766 1.958 . S
Li705 N729 1.990 . S
Li705 O764 1.970 1_565 S
Li705 O765 1.971 . S
Li705 O767 1.961 . S
Li706 N751 1.990 . S
Li706 O764 1.961 . S
Li706 O766 1.958 . S
Li706 O767 1.970 1_545 S
Li707 N757 1.990 . S
Li707 O765 1.984 . S
Li707 O766 1.973 1_565 S
Li707 O767 1.956 . S
C708 C710 1.348 . S
C708 C711 1.356 . S
C708 O764 1.325 . S
N709 C712 1.314 . S
N709 C713 1.279 . S
C710 C708 1.348 . S
C710 C712 1.353 . S
C710 H768 0.929 . S
C711 C708 1.356 . S
C711 C713 1.358 . S
C711 H769 0.930 . S
C712 N709 1.314 . S
C712 C710 1.353 . S
C712 H770 0.930 . S
C713 N709 1.279 . S
C713 C711 1.358 . S
C713 H771 0.930 . S
C714 C717 1.348 1_565 S
C714 C718 1.356 . S
C714 O765 1.314 . S
C715 N716 1.279 . S
C715 C718 1.358 . S
C715 H772 0.930 . S
N716 C715 1.279 . S
N716 C719 1.314 1_565 S
C717 C714 1.348 1_545 S
C717 C719 1.353 . S
C717 H773 0.929 . S
C718 C714 1.356 . S
C718 C715 1.358 . S
C718 H774 0.930 . S
C719 N716 1.314 1_545 S
C719 C717 1.353 . S
C719 H775 0.930 . S
C720 N721 1.314 . S
C720 C725 1.353 . S
C720 H726 0.930 . S
N721 Li704 1.990 . S
N721 C720 1.314 . S
N721 C723 1.279 . S
C722 C723 1.358 . S
C722 C724 1.356 . S
C722 H776 0.930 . S
C723 N721 1.279 . S
C723 C722 1.358 . S
C723 H727 0.930 . S
C724 C722 1.356 . S
C724 C725 1.348 . S
C725 C720 1.353 . S
C725 C724 1.348 . S
C725 H777 0.929 . S
H726 C720 0.930 . S
H727 C723 0.930 . S
C728 N729 1.314 . S
C728 C730 1.353 . S
C728 H734 0.930 . S
N729 Li705 1.990 . S
N729 C728 1.314 . S
N729 C732 1.279 1_565 S
C730 C728 1.353 . S
C730 C733 1.348 . S
C730 H778 0.929 . S
C731 C732 1.358 . S
C731 C733 1.356 1_545 S
C731 H779 0.930 . S
C732 N729 1.279 1_545 S
C732 C731 1.358 . S
C732 H735 0.930 . S
C733 C730 1.348 . S
C733 C731 1.356 1_565 S
H734 C728 0.930 . S
H735 C732 0.930 . S
C736 C738 1.326 1_545 S
C736 C739 1.381 . S
C736 O766 1.320 . S
N737 C740 1.314 1_545 S
N737 C741 1.279 . S
C738 C736 1.326 1_565 S
C738 C740 1.353 . S
C738 H780 0.929 . S
C739 C736 1.381 . S
C739 C741 1.358 . S
C739 H781 0.930 . S
C740 N737 1.314 1_565 S
C740 C738 1.353 . S
C740 H782 0.930 . S
C741 N737 1.279 . S
C741 C739 1.358 . S
C741 H783 0.930 . S
C742 C743 1.348 . S
C742 C744 1.356 . S
C742 O767 1.325 . S
C743 C742 1.348 . S
C743 C745 1.353 . S
C743 H784 0.929 . S
C744 C742 1.356 . S
C744 C746 1.358 . S
C744 H785 0.930 . S
C745 C743 1.353 . S
C745 N747 1.314 . S
C745 H786 0.930 . S
C746 C744 1.358 . S
C746 N747 1.279 . S
C746 H787 0.930 . S
N747 C745 1.314 . S
N747 C746 1.279 . S
C748 C750 1.353 . S
C748 N751 1.314 . S
C748 H754 0.930 . S
C749 N751 1.279 1_565 S
C749 C752 1.358 . S
C749 H755 0.930 . S
C750 C748 1.353 . S
C750 C753 1.348 . S
C750 H788 0.929 . S
N751 Li706 1.990 . S
N751 C748 1.314 . S
N751 C749 1.279 1_545 S
C752 C749 1.358 . S
C752 C753 1.356 1_565 S
C752 H789 0.930 . S
C753 C750 1.348 . S
C753 C752 1.356 1_545 S
H754 C748 0.930 . S
H755 C749 0.930 . S
C756 N757 1.314 . S
C756 C758 1.353 . S
C756 H762 0.930 . S
N757 Li707 1.990 . S
N757 C756 1.314 . S
N757 C760 1.279 . S
C758 C756 1.353 . S
C758 C761 1.348 . S
C758 H790 0.929 . S
C759 C760 1.358 . S
C759 C761 1.356 . S
C759 H791 0.930 . S
C760 N757 1.279 . S
C760 C759 1.358 . S
C760 H763 0.930 . S
C761 C758 1.348 . S
C761 C759 1.356 . S
H762 C756 0.930 . S
H763 C760 0.930 . S
O764 Li704 1.956 . S
O764 Li705 1.970 1_545 S
O764 Li706 1.961 . S
O764 C708 1.325 . S
O765 Li704 1.957 1_565 S
O765 Li705 1.971 . S
O765 Li707 1.984 . S
O765 C714 1.314 . S
O766 Li704 1.958 . S
O766 Li706 1.958 . S
O766 Li707 1.973 1_545 S
O766 C736 1.320 . S
O767 Li705 1.961 . S
O767 Li706 1.970 1_565 S
O767 Li707 1.956 . S
O767 C742 1.325 . S
H768 C710 0.929 . S
H769 C711 0.930 . S
H770 C712 0.930 . S
H771 C713 0.930 . S
H772 C715 0.930 . S
H773 C717 0.929 . S
H774 C718 0.930 . S
H775 C719 0.930 . S
H776 C722 0.930 . S
H777 C725 0.929 . S
H778 C730 0.929 . S
H779 C731 0.930 . S
H780 C738 0.929 . S
H781 C739 0.930 . S
H782 C740 0.930 . S
H783 C741 0.930 . S
H784 C743 0.929 . S
H785 C744 0.930 . S
H786 C745 0.930 . S
H787 C746 0.930 . S
H788 C750 0.929 . S
H789 C752 0.930 . S
H790 C758 0.929 . S
H791 C759 0.930 . S
Li792 N809 1.990 . S
Li792 O852 1.956 . S
Li792 O853 1.970 . S
Li792 O854 1.961 . S
Li793 N817 1.990 . S
Li793 O852 1.970 . S
Li793 O853 1.956 . S
Li793 O855 1.961 . S
Li794 N839 1.990 . S
Li794 O852 1.961 . S
Li794 O854 1.956 . S
Li794 O855 1.970 . S
Li795 N845 1.990 . S
Li795 O853 1.961 . S
Li795 O854 1.970 . S
Li795 O855 1.956 . S
C796 C798 1.348 . S
C796 C799 1.356 . S
C796 O852 1.325 . S
N797 C800 1.314 . S
N797 C801 1.279 . S
C798 C796 1.348 . S
C798 C800 1.353 . S
C798 H856 0.929 . S
C799 C796 1.356 . S
C799 C801 1.358 . S
C799 H857 0.930 . S
C800 N797 1.314 . S
C800 C798 1.353 . S
C800 H858 0.930 . S
C801 N797 1.279 . S
C801 C799 1.358 . S
C801 H859 0.930 . S
C802 C805 1.348 . S
C802 C806 1.356 . S
C802 O853 1.325 . S
C803 N804 1.279 . S
C803 C806 1.358 . S
C803 H860 0.930 . S
N804 C803 1.279 . S
N804 C807 1.314 . S
C805 C802 1.348 . S
C805 C807 1.353 . S
C805 H861 0.929 . S
C806 C802 1.356 . S
C806 C803 1.358 . S
C806 H862 0.930 . S
C807 N804 1.314 . S
C807 C805 1.353 . S
C807 H863 0.930 . S
C808 N809 1.314 . S
C808 C813 1.353 . S
C808 H814 0.930 . S
N809 Li792 1.990 . S
N809 C808 1.314 . S
N809 C811 1.279 . S
C810 C811 1.358 . S
C810 C812 1.356 . S
C810 H864 0.930 . S
C811 N809 1.279 . S
C811 C810 1.358 . S
C811 H815 0.930 . S
C812 C810 1.356 . S
C812 C813 1.348 . S
C813 C808 1.353 . S
C813 C812 1.348 . S
C813 H865 0.929 . S
H814 C808 0.930 . S
H815 C811 0.930 . S
C816 N817 1.314 . S
C816 C818 1.353 . S
C816 H822 0.930 . S
N817 Li793 1.990 . S
N817 C816 1.314 . S
N817 C820 1.279 . S
C818 C816 1.353 . S
C818 C821 1.348 . S
C818 H866 0.929 . S
C819 C820 1.358 . S
C819 C821 1.356 . S
C819 H867 0.930 . S
C820 N817 1.279 . S
C820 C819 1.358 . S
C820 H823 0.930 . S
C821 C818 1.348 . S
C821 C819 1.356 . S
H822 C816 0.930 . S
H823 C820 0.930 . S
C824 C826 1.348 . S
C824 C827 1.356 . S
C824 O854 1.325 . S
N825 C828 1.314 . S
N825 C829 1.279 . S
C826 C824 1.348 . S
C826 C828 1.353 . S
C826 H868 0.929 . S
C827 C824 1.356 . S
C827 C829 1.358 . S
C827 H869 0.930 . S
C828 N825 1.314 . S
C828 C826 1.353 . S
C828 H870 0.930 . S
C829 N825 1.279 . S
C829 C827 1.358 . S
C829 H871 0.930 . S
C830 C831 1.348 . S
C830 C832 1.356 . S
C830 O855 1.325 . S
C831 C830 1.348 . S
C831 C833 1.353 . S
C831 H872 0.929 . S
C832 C830 1.356 . S
C832 C834 1.358 . S
C832 H873 0.930 . S
C833 C831 1.353 . S
C833 N835 1.314 . S
C833 H874 0.930 . S
C834 C832 1.358 . S
C834 N835 1.279 . S
C834 H875 0.930 . S
N835 C833 1.314 . S
N835 C834 1.279 . S
C836 C838 1.353 . S
C836 N839 1.314 . S
C836 H842 0.930 . S
C837 N839 1.279 . S
C837 C840 1.358 . S
C837 H843 0.930 . S
C838 C836 1.353 . S
C838 C841 1.348 . S
C838 H876 0.929 . S
N839 Li794 1.990 . S
N839 C836 1.314 . S
N839 C837 1.279 . S
C840 C837 1.358 . S
C840 C841 1.356 . S
C840 H877 0.930 . S
C841 C838 1.348 . S
C841 C840 1.356 . S
H842 C836 0.930 . S
H843 C837 0.930 . S
C844 N845 1.314 . S
C844 C846 1.353 . S
C844 H850 0.930 . S
N845 Li795 1.990 . S
N845 C844 1.314 . S
N845 C848 1.279 . S
C846 C844 1.353 . S
C846 C849 1.348 . S
C846 H878 0.929 . S
C847 C848 1.358 . S
C847 C849 1.356 . S
C847 H879 0.930 . S
C848 N845 1.279 . S
C848 C847 1.358 . S
C848 H851 0.930 . S
C849 C846 1.348 . S
C849 C847 1.356 . S
H850 C844 0.930 . S
H851 C848 0.930 . S
O852 Li792 1.956 . S
O852 Li793 1.970 . S
O852 Li794 1.961 . S
O852 C796 1.325 . S
O853 Li792 1.970 . S
O853 Li793 1.956 . S
O853 Li795 1.961 . S
O853 C802 1.325 . S
O854 Li792 1.961 . S
O854 Li794 1.956 . S
O854 Li795 1.970 . S
O854 C824 1.325 . S
O855 Li793 1.961 . S
O855 Li794 1.970 . S
O855 Li795 1.956 . S
O855 C830 1.325 . S
H856 C798 0.929 . S
H857 C799 0.930 . S
H858 C800 0.930 . S
H859 C801 0.930 . S
H860 C803 0.930 . S
H861 C805 0.929 . S
H862 C806 0.930 . S
H863 C807 0.930 . S
H864 C810 0.930 . S
H865 C813 0.929 . S
H866 C818 0.929 . S
H867 C819 0.930 . S
H868 C826 0.929 . S
H869 C827 0.930 . S
H870 C828 0.930 . S
H871 C829 0.930 . S
H872 C831 0.929 . S
H873 C832 0.930 . S
H874 C833 0.930 . S
H875 C834 0.930 . S
H876 C838 0.929 . S
H877 C840 0.930 . S
H878 C846 0.929 . S
H879 C847 0.930 . S
Li880 N897 1.990 . S
Li880 O940 1.956 . S
Li880 O941 1.970 . S
Li880 O942 1.961 . S
Li881 N905 1.990 . S
Li881 O940 1.970 . S
Li881 O941 1.956 . S
Li881 O943 1.961 . S
Li882 N927 1.990 1_545 S
Li882 O940 1.961 . S
Li882 O942 1.956 . S
Li882 O943 1.970 . S
Li883 N933 1.990 . S
Li883 O941 1.961 . S
Li883 O942 1.970 . S
Li883 O943 1.956 . S
C884 C886 1.348 . S
C884 C887 1.356 . S
C884 O940 1.325 . S
N885 C888 1.314 . S
N885 C889 1.279 . S
C886 C884 1.348 . S
C886 C888 1.353 . S
C886 H944 0.929 . S
C887 C884 1.356 . S
C887 C889 1.358 . S
C887 H945 0.930 . S
C888 N885 1.314 . S
C888 C886 1.353 . S
C888 H946 0.930 . S
C889 N885 1.279 . S
C889 C887 1.358 . S
C889 H947 0.930 . S
C890 C893 1.348 . S
C890 C894 1.356 . S
C890 O941 1.325 . S
C891 N892 1.279 . S
C891 C894 1.358 . S
C891 H948 0.930 . S
N892 C891 1.279 . S
N892 C895 1.314 . S
C893 C890 1.348 . S
C893 C895 1.353 . S
C893 H949 0.929 . S
C894 C890 1.356 . S
C894 C891 1.358 . S
C894 H950 0.930 . S
C895 N892 1.314 . S
C895 C893 1.353 . S
C895 H951 0.930 . S
C896 N897 1.314 . S
C896 C901 1.353 . S
C896 H902 0.930 . S
N897 Li880 1.990 . S
N897 C896 1.314 . S
N897 C899 1.279 . S
C898 C899 1.358 . S
C898 C900 1.356 . S
C898 H952 0.930 . S
C899 N897 1.279 . S
C899 C898 1.358 . S
C899 H903 0.930 . S
C900 C898 1.356 . S
C900 C901 1.348 . S
C901 C896 1.353 . S
C901 C900 1.348 . S
C901 H953 0.929 . S
H902 C896 0.930 . S
H903 C899 0.930 . S
C904 N905 1.314 . S
C904 C906 1.353 . S
C904 H910 0.930 . S
N905 Li881 1.990 . S
N905 C904 1.314 . S
N905 C908 1.279 . S
C906 C904 1.353 . S
C906 C909 1.348 . S
C906 H954 0.929 . S
C907 C908 1.358 . S
C907 C909 1.356 . S
C907 H955 0.930 . S
C908 N905 1.279 . S
C908 C907 1.358 . S
C908 H911 0.930 . S
C909 C906 1.348 . S
C909 C907 1.356 . S
H910 C904 0.930 . S
H911 C908 0.930 . S
C912 C914 1.348 . S
C912 C915 1.356 . S
C912 O942 1.325 1_565 S
N913 C916 1.314 . S
N913 C917 1.279 . S
C914 C912 1.348 . S
C914 C916 1.353 . S
C914 H956 0.929 . S
C915 C912 1.356 . S
C915 C917 1.358 . S
C915 H957 0.930 . S
C916 N913 1.314 . S
C916 C914 1.353 . S
C916 H958 0.930 . S
C917 N913 1.279 . S
C917 C915 1.358 . S
C917 H959 0.930 . S
C918 C919 1.367 . S
C918 C920 1.356 . S
C918 O943 1.325 . S
C919 C918 1.367 . S
C919 C921 1.352 1_545 S
C919 H960 0.912 1_545 S
C920 C918 1.356 . S
C920 C922 1.358 . S
C920 H961 0.930 . S
C921 C919 1.352 1_565 S
C921 N923 1.314 1_565 S
C921 H962 0.930 . S
C922 C920 1.358 . S
C922 N923 1.279 . S
C922 H963 0.930 . S
N923 C921 1.314 1_545 S
N923 C922 1.279 . S
C924 C926 1.353 . S
C924 N927 1.314 . S
C924 H930 0.930 . S
C925 N927 1.279 . S
C925 C928 1.358 . S
C925 H931 0.930 . S
C926 C924 1.353 . S
C926 C929 1.348 . S
C926 H964 0.929 . S
N927 Li882 1.990 1_565 S
N927 C924 1.314 . S
N927 C925 1.279 . S
C928 C925 1.358 . S
C928 C929 1.356 . S
C928 H965 0.930 . S
C929 C926 1.348 . S
C929 C928 1.356 . S
H930 C924 0.930 . S
H931 C925 0.930 . S
C932 N933 1.314 . S
C932 C934 1.353 . S
C932 H938 0.930 . S
N933 Li883 1.990 . S
N933 C932 1.314 . S
N933 C936 1.279 . S
C934 C932 1.353 . S
C934 C937 1.348 . S
C934 H966 0.929 . S
C935 C936 1.358 . S
C935 C937 1.356 . S
C935 H967 0.930 . S
C936 N933 1.279 . S
C936 C935 1.358 . S
C936 H939 0.930 . S
C937 C934 1.348 . S
C937 C935 1.356 . S
H938 C932 0.930 . S
H939 C936 0.930 . S
O940 Li880 1.956 . S
O940 Li881 1.970 . S
O940 Li882 1.961 . S
O940 C884 1.325 . S
O941 Li880 1.970 . S
O941 Li881 1.956 . S
O941 Li883 1.961 . S
O941 C890 1.325 . S
O942 Li880 1.961 . S
O942 Li882 1.956 . S
O942 Li883 1.970 . S
O942 C912 1.325 1_545 S
O943 Li881 1.961 . S
O943 Li882 1.970 . S
O943 Li883 1.956 . S
O943 C918 1.325 . S
H944 C886 0.929 . S
H945 C887 0.930 . S
H946 C888 0.930 . S
H947 C889 0.930 . S
H948 C891 0.930 . S
H949 C893 0.929 . S
H950 C894 0.930 . S
H951 C895 0.930 . S
H952 C898 0.930 . S
H953 C901 0.929 . S
H954 C906 0.929 . S
H955 C907 0.930 . S
H956 C914 0.929 . S
H957 C915 0.930 . S
H958 C916 0.930 . S
H959 C917 0.930 . S
H960 C919 0.912 1_565 S
H961 C920 0.930 . S
H962 C921 0.930 . S
H963 C922 0.930 . S
H964 C926 0.929 . S
H965 C928 0.930 . S
H966 C934 0.929 . S
H967 C935 0.930 . S
Li968 N985 1.990 . S
Li968 O1028 1.956 . S
Li968 O1029 1.970 . S
Li968 O1030 1.961 . S
Li969 N993 1.990 . S
Li969 O1028 1.970 . S
Li969 O1029 1.956 . S
Li969 O1031 1.961 . S
Li970 N1015 1.990 1_655 S
Li970 O1028 1.961 . S
Li970 O1030 1.956 . S
Li970 O1031 1.970 . S
Li971 N1021 1.990 . S
Li971 O1029 1.961 . S
Li971 O1030 1.970 . S
Li971 O1031 1.956 . S
C972 C974 1.348 . S
C972 C975 1.356 . S
C972 O1028 1.325 . S
N973 C976 1.314 . S
N973 C977 1.279 . S
C974 C972 1.348 . S
C974 C976 1.353 . S
C974 H1032 0.929 . S
C975 C972 1.356 . S
C975 C977 1.358 . S
C975 H1033 0.930 . S
C976 N973 1.314 . S
C976 C974 1.353 . S
C976 H1034 0.930 . S
C977 N973 1.279 . S
C977 C975 1.358 . S
C977 H1035 0.930 . S
C978 C981 1.348 . S
C978 C982 1.356 . S
C978 O1029 1.325 . S
C979 N980 1.279 . S
C979 C982 1.358 . S
C979 H1036 0.930 . S
N980 C979 1.279 . S
N980 C983 1.314 . S
C981 C978 1.348 . S
C981 C983 1.353 . S
C981 H1037 0.929 . S
C982 C978 1.356 . S
C982 C979 1.358 . S
C982 H1038 0.930 . S
C983 N980 1.314 . S
C983 C981 1.353 . S
C983 H1039 0.930 . S
C984 N985 1.314 . S
C984 C989 1.353 . S
C984 H990 0.930 . S
N985 Li968 1.990 . S
N985 C984 1.314 . S
N985 C987 1.279 . S
C986 C987 1.358 . S
C986 C988 1.356 . S
C986 H1040 0.930 . S
C987 N985 1.279 . S
C987 C986 1.358 . S
C987 H991 0.930 . S
C988 C986 1.356 . S
C988 C989 1.348 . S
C989 C984 1.353 . S
C989 C988 1.348 . S
C989 H1041 0.929 . S
H990 C984 0.930 . S
H991 C987 0.930 . S
C992 N993 1.314 . S
C992 C994 1.353 . S
C992 H998 0.930 1_655 S
N993 Li969 1.990 . S
N993 C992 1.314 . S
N993 C996 1.279 . S
C994 C992 1.353 . S
C994 C997 1.348 . S
C994 H1042 0.929 1_655 S
C995 C996 1.358 . S
C995 C997 1.356 . S
C995 H1043 0.930 . S
C996 N993 1.279 . S
C996 C995 1.358 . S
C996 H999 0.930 . S
C997 C994 1.348 . S
C997 C995 1.356 . S
H998 C992 0.930 1_455 S
H999 C996 0.930 . S
C1000 C1002 1.348 . S
C1000 C1003 1.356 . S
C1000 O1030 1.325 . S
N1001 C1004 1.314 . S
N1001 C1005 1.279 . S
C1002 C1000 1.348 . S
C1002 C1004 1.353 . S
C1002 H1044 0.929 . S
C1003 C1000 1.356 . S
C1003 C1005 1.358 . S
C1003 H1045 0.930 . S
C1004 N1001 1.314 . S
C1004 C1002 1.353 . S
C1004 H1046 0.930 . S
C1005 N1001 1.279 . S
C1005 C1003 1.358 . S
C1005 H1047 0.930 . S
C1006 C1007 1.348 . S
C1006 C1008 1.356 . S
C1006 O1031 1.325 1_455 S
C1007 C1006 1.348 . S
C1007 C1009 1.353 . S
C1007 H1048 0.929 . S
C1008 C1006 1.356 . S
C1008 C1010 1.358 . S
C1008 H1049 0.930 1_455 S
C1009 C1007 1.353 . S
C1009 N1011 1.314 . S
C1009 H1050 0.930 . S
C1010 C1008 1.358 . S
C1010 N1011 1.279 . S
C1010 H1051 0.930 . S
N1011 C1009 1.314 . S
N1011 C1010 1.279 . S
C1012 C1014 1.353 . S
C1012 N1015 1.314 . S
C1012 H1018 0.930 . S
C1013 N1015 1.279 . S
C1013 C1016 1.358 . S
C1013 H1019 0.930 . S
C1014 C1012 1.353 . S
C1014 C1017 1.348 . S
C1014 H1052 0.929 . S
N1015 Li970 1.990 1_455 S
N1015 C1012 1.314 . S
N1015 C1013 1.279 . S
C1016 C1013 1.358 . S
C1016 C1017 1.356 . S
C1016 H1053 0.930 . S
C1017 C1014 1.348 . S
C1017 C1016 1.356 . S
H1018 C1012 0.930 . S
H1019 C1013 0.930 . S
C1020 N1021 1.314 . S
C1020 C1022 1.353 . S
C1020 H1026 0.930 . S
N1021 Li971 1.990 . S
N1021 C1020 1.314 . S
N1021 C1024 1.279 . S
C1022 C1020 1.353 . S
C1022 C1025 1.348 . S
C1022 H1054 0.929 . S
C1023 C1024 1.358 . S
C1023 C1025 1.356 . S
C1023 H1055 0.930 . S
C1024 N1021 1.279 . S
C1024 C1023 1.358 . S
C1024 H1027 0.930 . S
C1025 C1022 1.348 . S
C1025 C1023 1.356 . S
H1026 C1020 0.930 . S
H1027 C1024 0.930 . S
O1028 Li968 1.956 . S
O1028 Li969 1.970 . S
O1028 Li970 1.961 . S
O1028 C972 1.325 . S
O1029 Li968 1.970 . S
O1029 Li969 1.956 . S
O1029 Li971 1.961 . S
O1029 C978 1.325 . S
O1030 Li968 1.961 . S
O1030 Li970 1.956 . S
O1030 Li971 1.970 . S
O1030 C1000 1.325 . S
O1031 Li969 1.961 . S
O1031 Li970 1.970 . S
O1031 Li971 1.956 . S
O1031 C1006 1.325 1_655 S
H1032 C974 0.929 . S
H1033 C975 0.930 . S
H1034 C976 0.930 . S
H1035 C977 0.930 . S
H1036 C979 0.930 . S
H1037 C981 0.929 . S
H1038 C982 0.930 . S
H1039 C983 0.930 . S
H1040 C986 0.930 . S
H1041 C989 0.929 . S
H1042 C994 0.929 1_455 S
H1043 C995 0.930 . S
H1044 C1002 0.929 . S
H1045 C1003 0.930 . S
H1046 C1004 0.930 . S
H1047 C1005 0.930 . S
H1048 C1007 0.929 . S
H1049 C1008 0.930 1_655 S
H1050 C1009 0.930 . S
H1051 C1010 0.930 . S
H1052 C1014 0.929 . S
H1053 C1016 0.930 . S
H1054 C1022 0.929 . S
H1055 C1023 0.930 . S
Li1056 N1073 1.990 . S
Li1056 O1116 1.956 . S
Li1056 O1117 1.970 . S
Li1056 O1118 1.961 . S
Li1057 N1081 1.990 . S
Li1057 O1116 1.970 . S
Li1057 O1117 1.956 . S
Li1057 O1119 1.961 . S
Li1058 N1103 1.990 . S
Li1058 O1116 1.961 . S
Li1058 O1118 1.956 . S
Li1058 O1119 1.970 . S
Li1059 N1109 1.990 . S
Li1059 O1117 1.961 . S
Li1059 O1118 1.970 . S
Li1059 O1119 1.956 . S
C1060 C1062 1.348 . S
C1060 C1063 1.356 . S
C1060 O1116 1.325 . S
N1061 C1064 1.314 . S
N1061 C1065 1.279 . S
C1062 C1060 1.348 . S
C1062 C1064 1.353 . S
C1062 H1120 0.929 . S
C1063 C1060 1.356 . S
C1063 C1065 1.358 . S
C1063 H1121 0.930 . S
C1064 N1061 1.314 . S
C1064 C1062 1.353 . S
C1064 H1122 0.930 . S
C1065 N1061 1.279 . S
C1065 C1063 1.358 . S
C1065 H1123 0.930 . S
C1066 C1069 1.348 . S
C1066 C1070 1.356 . S
C1066 O1117 1.325 . S
C1067 N1068 1.279 . S
C1067 C1070 1.358 . S
C1067 H1124 0.930 . S
N1068 C1067 1.279 . S
N1068 C1071 1.314 . S
C1069 C1066 1.348 . S
C1069 C1071 1.353 . S
C1069 H1125 0.929 . S
C1070 C1066 1.356 . S
C1070 C1067 1.358 . S
C1070 H1126 0.930 . S
C1071 N1068 1.314 . S
C1071 C1069 1.353 . S
C1071 H1127 0.930 . S
C1072 N1073 1.314 . S
C1072 C1077 1.353 . S
C1072 H1078 0.930 . S
N1073 Li1056 1.990 . S
N1073 C1072 1.314 . S
N1073 C1075 1.279 . S
C1074 C1075 1.358 . S
C1074 C1076 1.356 . S
C1074 H1128 0.930 . S
C1075 N1073 1.279 . S
C1075 C1074 1.358 . S
C1075 H1079 0.930 . S
C1076 C1074 1.356 . S
C1076 C1077 1.348 . S
C1077 C1072 1.353 . S
C1077 C1076 1.348 . S
C1077 H1129 0.929 . S
H1078 C1072 0.930 . S
H1079 C1075 0.930 . S
C1080 N1081 1.314 . S
C1080 C1082 1.353 . S
C1080 H1086 0.930 . S
N1081 Li1057 1.990 . S
N1081 C1080 1.314 . S
N1081 C1084 1.279 . S
C1082 C1080 1.353 . S
C1082 C1085 1.348 . S
C1082 H1130 0.929 . S
C1083 C1084 1.358 . S
C1083 C1085 1.356 . S
C1083 H1131 0.930 . S
C1084 N1081 1.279 . S
C1084 C1083 1.358 . S
C1084 H1087 0.930 . S
C1085 C1082 1.348 . S
C1085 C1083 1.356 . S
H1086 C1080 0.930 . S
H1087 C1084 0.930 . S
C1088 C1090 1.348 . S
C1088 C1091 1.356 . S
C1088 O1118 1.325 . S
N1089 C1092 1.314 . S
N1089 C1093 1.279 . S
C1090 C1088 1.348 . S
C1090 C1092 1.353 . S
C1090 H1132 0.929 . S
C1091 C1088 1.356 . S
C1091 C1093 1.358 . S
C1091 H1133 0.930 . S
C1092 N1089 1.314 . S
C1092 C1090 1.353 . S
C1092 H1134 0.930 . S
C1093 N1089 1.279 . S
C1093 C1091 1.358 . S
C1093 H1135 0.930 . S
C1094 C1095 1.348 . S
C1094 C1096 1.356 . S
C1094 O1119 1.325 . S
C1095 C1094 1.348 . S
C1095 C1097 1.353 . S
C1095 H1136 0.929 . S
C1096 C1094 1.356 . S
C1096 C1098 1.358 . S
C1096 H1137 0.930 . S
C1097 C1095 1.353 . S
C1097 N1099 1.314 . S
C1097 H1138 0.930 . S
C1098 C1096 1.358 . S
C1098 N1099 1.279 . S
C1098 H1139 0.930 . S
N1099 C1097 1.314 . S
N1099 C1098 1.279 . S
C1100 C1102 1.353 . S
C1100 N1103 1.314 . S
C1100 H1106 0.930 . S
C1101 N1103 1.279 . S
C1101 C1104 1.358 . S
C1101 H1107 0.930 . S
C1102 C1100 1.353 . S
C1102 C1105 1.348 . S
C1102 H1140 0.929 . S
N1103 Li1058 1.990 . S
N1103 C1100 1.314 . S
N1103 C1101 1.279 . S
C1104 C1101 1.358 . S
C1104 C1105 1.356 . S
C1104 H1141 0.930 . S
C1105 C1102 1.348 . S
C1105 C1104 1.356 . S
H1106 C1100 0.930 . S
H1107 C1101 0.930 . S
C1108 N1109 1.314 . S
C1108 C1110 1.353 . S
C1108 H1114 0.930 . S
N1109 Li1059 1.990 . S
N1109 C1108 1.314 . S
N1109 C1112 1.279 . S
C1110 C1108 1.353 . S
C1110 C1113 1.348 . S
C1110 H1142 0.929 . S
C1111 C1112 1.358 . S
C1111 C1113 1.356 . S
C1111 H1143 0.930 . S
C1112 N1109 1.279 . S
C1112 C1111 1.358 . S
C1112 H1115 0.930 . S
C1113 C1110 1.348 . S
C1113 C1111 1.356 . S
H1114 C1108 0.930 . S
H1115 C1112 0.930 . S
O1116 Li1056 1.956 . S
O1116 Li1057 1.970 . S
O1116 Li1058 1.961 . S
O1116 C1060 1.325 . S
O1117 Li1056 1.970 . S
O1117 Li1057 1.956 . S
O1117 Li1059 1.961 . S
O1117 C1066 1.325 . S
O1118 Li1056 1.961 . S
O1118 Li1058 1.956 . S
O1118 Li1059 1.970 . S
O1118 C1088 1.325 . S
O1119 Li1057 1.961 . S
O1119 Li1058 1.970 . S
O1119 Li1059 1.956 . S
O1119 C1094 1.325 . S
H1120 C1062 0.929 . S
H1121 C1063 0.930 . S
H1122 C1064 0.930 . S
H1123 C1065 0.930 . S
H1124 C1067 0.930 . S
H1125 C1069 0.929 . S
H1126 C1070 0.930 . S
H1127 C1071 0.930 . S
H1128 C1074 0.930 . S
H1129 C1077 0.929 . S
H1130 C1082 0.929 . S
H1131 C1083 0.930 . S
H1132 C1090 0.929 . S
H1133 C1091 0.930 . S
H1134 C1092 0.930 . S
H1135 C1093 0.930 . S
H1136 C1095 0.929 . S
H1137 C1096 0.930 . S
H1138 C1097 0.930 . S
H1139 C1098 0.930 . S
H1140 C1102 0.929 . S
H1141 C1104 0.930 . S
H1142 C1110 0.929 . S
H1143 C1111 0.930 . S
Li1144 N1161 1.990 . S
Li1144 O1204 1.956 . S
Li1144 O1205 1.970 . S
Li1144 O1206 1.961 . S
Li1145 N1169 1.990 1_565 S
Li1145 O1204 1.970 . S
Li1145 O1205 1.956 . S
Li1145 O1207 1.961 . S
Li1146 N1191 1.990 . S
Li1146 O1204 1.961 . S
Li1146 O1206 1.956 . S
Li1146 O1207 1.970 . S
Li1147 N1197 1.990 . S
Li1147 O1205 1.961 . S
Li1147 O1206 1.970 . S
Li1147 O1207 1.956 . S
C1148 C1150 1.348 . S
C1148 C1151 1.356 . S
C1148 O1204 1.325 1_545 S
N1149 C1152 1.314 . S
N1149 C1153 1.279 . S
C1150 C1148 1.348 . S
C1150 C1152 1.353 . S
C1150 H1208 0.929 . S
C1151 C1148 1.356 . S
C1151 C1153 1.358 . S
C1151 H1209 0.930 1_545 S
C1152 N1149 1.314 . S
C1152 C1150 1.353 . S
C1152 H1210 0.930 . S
C1153 N1149 1.279 . S
C1153 C1151 1.358 . S
C1153 H1211 0.930 . S
C1154 C1157 1.348 . S
C1154 C1158 1.356 . S
C1154 O1205 1.325 . S
C1155 N1156 1.279 . S
C1155 C1158 1.358 . S
C1155 H1212 0.930 . S
N1156 C1155 1.279 . S
N1156 C1159 1.314 . S
C1157 C1154 1.348 . S
C1157 C1159 1.353 . S
C1157 H1213 0.929 . S
C1158 C1154 1.356 . S
C1158 C1155 1.358 . S
C1158 H1214 0.930 . S
C1159 N1156 1.314 . S
C1159 C1157 1.353 . S
C1159 H1215 0.925 . S
C1160 N1161 1.314 . S
C1160 C1165 1.353 . S
C1160 H1166 0.930 . S
N1161 Li1144 1.990 . S
N1161 C1160 1.314 . S
N1161 C1163 1.279 . S
C1162 C1163 1.358 . S
C1162 C1164 1.356 . S
C1162 H1216 0.930 1_565 S
C1163 N1161 1.279 . S
C1163 C1162 1.358 . S
C1163 H1167 0.930 1_565 S
C1164 C1162 1.356 . S
C1164 C1165 1.348 . S
C1165 C1160 1.353 . S
C1165 C1164 1.348 . S
C1165 H1217 0.929 . S
H1166 C1160 0.930 . S
H1167 C1163 0.930 1_545 S
C1168 N1169 1.314 . S
C1168 C1170 1.353 . S
C1168 H1174 0.930 . S
N1169 Li1145 1.990 1_545 S
N1169 C1168 1.314 . S
N1169 C1172 1.279 . S
C1170 C1168 1.353 . S
C1170 C1173 1.348 . S
C1170 H1218 0.929 . S
C1171 C1172 1.358 . S
C1171 C1173 1.356 . S
C1171 H1219 0.930 . S
C1172 N1169 1.279 . S
C1172 C1171 1.358 . S
C1172 H1175 0.930 . S
C1173 C1170 1.348 . S
C1173 C1171 1.356 . S
H1174 C1168 0.930 . S
H1175 C1172 0.930 . S
C1176 C1178 1.348 . S
C1176 C1179 1.356 . S
C1176 O1206 1.325 . S
N1177 C1180 1.314 . S
N1177 C1181 1.279 . S
C1178 C1176 1.348 . S
C1178 C1180 1.353 . S
C1178 H1220 0.929 . S
C1179 C1176 1.356 . S
C1179 C1181 1.358 . S
C1179 H1221 0.930 . S
C1180 N1177 1.314 . S
C1180 C1178 1.353 . S
C1180 H1222 0.930 . S
C1181 N1177 1.279 . S
C1181 C1179 1.358 . S
C1181 H1223 0.930 . S
C1182 C1183 1.348 . S
C1182 C1184 1.356 . S
C1182 O1207 1.325 . S
C1183 C1182 1.348 . S
C1183 C1185 1.353 . S
C1183 H1224 0.929 . S
C1184 C1182 1.356 . S
C1184 C1186 1.358 . S
C1184 H1225 0.930 . S
C1185 C1183 1.353 . S
C1185 N1187 1.314 . S
C1185 H1226 0.930 . S
C1186 C1184 1.358 . S
C1186 N1187 1.279 . S
C1186 H1227 0.930 . S
N1187 C1185 1.314 . S
N1187 C1186 1.279 . S
C1188 C1190 1.353 . S
C1188 N1191 1.314 . S
C1188 H1194 0.930 . S
C1189 N1191 1.279 . S
C1189 C1192 1.358 . S
C1189 H1195 0.930 . S
C1190 C1188 1.353 . S
C1190 C1193 1.348 . S
C1190 H1228 0.929 . S
N1191 Li1146 1.990 . S
N1191 C1188 1.314 . S
N1191 C1189 1.279 . S
C1192 C1189 1.358 . S
C1192 C1193 1.356 . S
C1192 H1229 0.930 . S
C1193 C1190 1.348 . S
C1193 C1192 1.356 . S
H1194 C1188 0.930 . S
H1195 C1189 0.930 . S
C1196 N1197 1.314 . S
C1196 C1198 1.353 . S
C1196 H1202 0.930 . S
N1197 Li1147 1.990 . S
N1197 C1196 1.314 . S
N1197 C1200 1.279 . S
C1198 C1196 1.353 . S
C1198 C1201 1.348 . S
C1198 H1230 0.929 . S
C1199 C1200 1.358 . S
C1199 C1201 1.356 . S
C1199 H1231 0.930 . S
C1200 N1197 1.279 . S
C1200 C1199 1.358 . S
C1200 H1203 0.930 . S
C1201 C1198 1.348 . S
C1201 C1199 1.356 . S
H1202 C1196 0.930 . S
H1203 C1200 0.930 . S
O1204 Li1144 1.956 . S
O1204 Li1145 1.970 . S
O1204 Li1146 1.961 . S
O1204 C1148 1.325 1_565 S
O1205 Li1144 1.970 . S
O1205 Li1145 1.956 . S
O1205 Li1147 1.961 . S
O1205 C1154 1.325 . S
O1206 Li1144 1.961 . S
O1206 Li1146 1.956 . S
O1206 Li1147 1.970 . S
O1206 C1176 1.325 . S
O1207 Li1145 1.961 . S
O1207 Li1146 1.970 . S
O1207 Li1147 1.956 . S
O1207 C1182 1.325 . S
H1208 C1150 0.929 . S
H1209 C1151 0.930 1_565 S
H1210 C1152 0.930 . S
H1211 C1153 0.930 . S
H1212 C1155 0.930 . S
H1213 C1157 0.929 . S
H1214 C1158 0.930 . S
H1215 C1159 0.925 . S
H1216 C1162 0.930 1_545 S
H1217 C1165 0.929 . S
H1218 C1170 0.929 . S
H1219 C1171 0.930 . S
H1220 C1178 0.929 . S
H1221 C1179 0.930 . S
H1222 C1180 0.930 . S
H1223 C1181 0.930 . S
H1224 C1183 0.929 . S
H1225 C1184 0.930 . S
H1226 C1185 0.930 . S
H1227 C1186 0.930 . S
H1228 C1190 0.929 . S
H1229 C1192 0.930 . S
H1230 C1198 0.929 . S
H1231 C1199 0.930 . S
Li1232 N1249 1.990 . S
Li1232 O1292 1.956 . S
Li1232 O1293 1.970 . S
Li1232 O1294 1.961 . S
Li1233 N1257 1.990 . S
Li1233 O1292 1.970 . S
Li1233 O1293 1.956 . S
Li1233 O1295 1.961 . S
Li1234 N1279 1.990 1_455 S
Li1234 O1292 1.961 . S
Li1234 O1294 1.956 . S
Li1234 O1295 1.970 . S
Li1235 N1285 1.990 . S
Li1235 O1293 1.961 . S
Li1235 O1294 1.970 . S
Li1235 O1295 1.956 . S
C1236 C1238 1.348 . S
C1236 C1239 1.356 . S
C1236 O1292 1.325 1_655 S
N1237 C1240 1.314 . S
N1237 C1241 1.279 . S
C1238 C1236 1.348 . S
C1238 C1240 1.353 . S
C1238 H1296 0.929 1_655 S
C1239 C1236 1.356 . S
C1239 C1241 1.358 . S
C1239 H1297 0.930 . S
C1240 N1237 1.314 . S
C1240 C1238 1.353 . S
C1240 H1298 0.930 . S
C1241 N1237 1.279 . S
C1241 C1239 1.358 . S
C1241 H1299 0.930 . S
C1242 C1245 1.348 . S
C1242 C1246 1.356 . S
C1242 O1293 1.325 . S
C1243 N1244 1.279 . S
C1243 C1246 1.358 . S
C1243 H1300 0.930 . S
N1244 C1243 1.279 . S
N1244 C1247 1.314 . S
C1245 C1242 1.348 . S
C1245 C1247 1.353 . S
C1245 H1301 0.929 . S
C1246 C1242 1.356 . S
C1246 C1243 1.358 . S
C1246 H1302 0.930 . S
C1247 N1244 1.314 . S
C1247 C1245 1.353 . S
C1247 H1303 0.930 . S
C1248 N1249 1.314 . S
C1248 C1253 1.353 . S
C1248 H1254 0.930 . S
N1249 Li1232 1.990 . S
N1249 C1248 1.314 . S
N1249 C1251 1.279 . S
C1250 C1251 1.358 . S
C1250 C1252 1.356 . S
C1250 H1304 0.930 . S
C1251 N1249 1.279 . S
C1251 C1250 1.358 . S
C1251 H1255 0.930 . S
C1252 C1250 1.356 . S
C1252 C1253 1.348 . S
C1253 C1248 1.353 . S
C1253 C1252 1.348 . S
C1253 H1305 0.929 . S
H1254 C1248 0.930 . S
H1255 C1251 0.930 . S
C1256 N1257 1.314 . S
C1256 C1258 1.353 . S
C1256 H1262 0.930 . S
N1257 Li1233 1.990 . S
N1257 C1256 1.314 . S
N1257 C1260 1.279 . S
C1258 C1256 1.353 . S
C1258 C1261 1.348 . S
C1258 H1306 0.929 1_455 S
C1259 C1260 1.358 . S
C1259 C1261 1.356 . S
C1259 H1307 0.930 . S
C1260 N1257 1.279 . S
C1260 C1259 1.358 . S
C1260 H1263 0.930 . S
C1261 C1258 1.348 . S
C1261 C1259 1.356 . S
H1262 C1256 0.930 . S
H1263 C1260 0.930 . S
C1264 C1266 1.348 . S
C1264 C1267 1.356 . S
C1264 O1294 1.325 . S
N1265 C1268 1.314 . S
N1265 C1269 1.279 . S
C1266 C1264 1.348 . S
C1266 C1268 1.353 . S
C1266 H1308 0.929 . S
C1267 C1264 1.356 . S
C1267 C1269 1.358 . S
C1267 H1309 0.930 . S
C1268 N1265 1.314 . S
C1268 C1266 1.353 . S
C1268 H1310 0.930 . S
C1269 N1265 1.279 . S
C1269 C1267 1.358 . S
C1269 H1311 0.930 . S
C1270 C1271 1.348 . S
C1270 C1272 1.356 . S
C1270 O1295 1.325 . S
C1271 C1270 1.348 . S
C1271 C1273 1.353 . S
C1271 H1312 0.929 1_455 S
C1272 C1270 1.356 . S
C1272 C1274 1.358 . S
C1272 H1313 0.930 . S
C1273 C1271 1.353 . S
C1273 N1275 1.314 . S
C1273 H1314 0.930 1_455 S
C1274 C1272 1.358 . S
C1274 N1275 1.279 . S
C1274 H1315 0.930 . S
N1275 C1273 1.314 . S
N1275 C1274 1.279 . S
C1276 C1278 1.353 . S
C1276 N1279 1.314 . S
C1276 H1282 0.930 . S
C1277 N1279 1.279 . S
C1277 C1280 1.358 . S
C1277 H1283 0.930 . S
C1278 C1276 1.353 . S
C1278 C1281 1.348 . S
C1278 H1316 0.929 . S
N1279 Li1234 1.990 1_655 S
N1279 C1276 1.314 . S
N1279 C1277 1.279 . S
C1280 C1277 1.358 . S
C1280 C1281 1.356 . S
C1280 H1317 0.930 . S
C1281 C1278 1.348 . S
C1281 C1280 1.356 . S
H1282 C1276 0.930 . S
H1283 C1277 0.930 . S
C1284 N1285 1.314 . S
C1284 C1286 1.353 . S
C1284 H1290 0.930 . S
N1285 Li1235 1.990 . S
N1285 C1284 1.314 . S
N1285 C1288 1.279 . S
C1286 C1284 1.353 . S
C1286 C1289 1.348 . S
C1286 H1318 0.929 . S
C1287 C1288 1.358 . S
C1287 C1289 1.356 . S
C1287 H1319 0.930 . S
C1288 N1285 1.279 . S
C1288 C1287 1.358 . S
C1288 H1291 0.930 . S
C1289 C1286 1.348 . S
C1289 C1287 1.356 . S
H1290 C1284 0.930 . S
H1291 C1288 0.930 . S
O1292 Li1232 1.956 . S
O1292 Li1233 1.970 . S
O1292 Li1234 1.961 . S
O1292 C1236 1.325 1_455 S
O1293 Li1232 1.970 . S
O1293 Li1233 1.956 . S
O1293 Li1235 1.961 . S
O1293 C1242 1.325 . S
O1294 Li1232 1.961 . S
O1294 Li1234 1.956 . S
O1294 Li1235 1.970 . S
O1294 C1264 1.325 . S
O1295 Li1233 1.961 . S
O1295 Li1234 1.970 . S
O1295 Li1235 1.956 . S
O1295 C1270 1.325 . S
H1296 C1238 0.929 1_455 S
H1297 C1239 0.930 . S
H1298 C1240 0.930 . S
H1299 C1241 0.930 . S
H1300 C1243 0.930 . S
H1301 C1245 0.929 . S
H1302 C1246 0.930 . S
H1303 C1247 0.930 . S
H1304 C1250 0.930 . S
H1305 C1253 0.929 . S
H1306 C1258 0.929 1_655 S
H1307 C1259 0.930 . S
H1308 C1266 0.929 . S
H1309 C1267 0.930 . S
H1310 C1268 0.930 . S
H1311 C1269 0.930 . S
H1312 C1271 0.929 1_655 S
H1313 C1272 0.930 . S
H1314 C1273 0.930 1_655 S
H1315 C1274 0.930 . S
H1316 C1278 0.929 . S
H1317 C1280 0.930 . S
H1318 C1286 0.929 . S
H1319 C1287 0.930 . S
Li1320 N1337 1.990 . S
Li1320 O1380 1.955 1_655 S
Li1320 O1381 2.001 . S
Li1320 O1382 1.961 . S
Li1321 N1345 1.990 . S
Li1321 O1380 1.972 . S
Li1321 O1381 1.934 1_455 S
Li1321 O1383 1.961 . S
Li1322 N1367 1.990 . S
Li1322 O1380 1.962 1_655 S
Li1322 O1382 1.956 . S
Li1322 O1383 1.970 1_655 S
Li1323 N1373 1.990 . S
Li1323 O1381 1.938 1_455 S
Li1323 O1382 1.970 1_455 S
Li1323 O1383 1.956 . S
C1324 C1326 1.348 1_655 S
C1324 C1327 1.356 . S
C1324 O1380 1.323 1_655 S
N1325 C1328 1.314 1_655 S
N1325 C1329 1.279 . S
C1326 C1324 1.348 1_455 S
C1326 C1328 1.353 . S
C1326 H1384 0.929 . S
C1327 C1324 1.356 . S
C1327 C1329 1.358 . S
C1327 H1385 0.930 . S
C1328 N1325 1.314 1_455 S
C1328 C1326 1.353 . S
C1328 H1386 0.930 . S
C1329 N1325 1.279 . S
C1329 C1327 1.358 . S
C1329 H1387 0.930 . S
C1330 C1333 1.333 1_455 S
C1330 C1334 1.369 . S
C1330 O1381 1.332 1_455 S
C1331 N1332 1.279 . S
C1331 C1334 1.358 . S
C1331 H1388 0.930 . S
N1332 C1331 1.279 . S
N1332 C1335 1.314 1_455 S
C1333 C1330 1.333 1_655 S
C1333 C1335 1.353 . S
C1333 H1389 0.929 . S
C1334 C1330 1.369 . S
C1334 C1331 1.358 . S
C1334 H1390 0.930 . S
C1335 N1332 1.314 1_655 S
C1335 C1333 1.353 . S
C1335 H1391 0.930 . S
C1336 N1337 1.314 . S
C1336 C1341 1.353 . S
C1336 H1342 0.930 . S
N1337 Li1320 1.990 . S
N1337 C1336 1.314 . S
N1337 C1339 1.279 . S
C1338 C1339 1.358 . S
C1338 C1340 1.356 . S
C1338 H1392 0.930 . S
C1339 N1337 1.279 . S
C1339 C1338 1.358 . S
C1339 H1343 0.930 . S
C1340 C1338 1.356 . S
C1340 C1341 1.348 . S
C1341 C1336 1.353 . S
C1341 C1340 1.348 . S
C1341 H1393 0.929 . S
H1342 C1336 0.930 . S
H1343 C1339 0.930 . S
C1344 N1345 1.314 . S
C1344 C1346 1.353 . S
C1344 H1350 0.930 . S
N1345 Li1321 1.990 . S
N1345 C1344 1.314 . S
N1345 C1348 1.279 . S
C1346 C1344 1.353 . S
C1346 C1349 1.348 . S
C1346 H1394 0.929 . S
C1347 C1348 1.358 . S
C1347 C1349 1.356 . S
C1347 H1395 0.930 . S
C1348 N1345 1.279 . S
C1348 C1347 1.358 . S
C1348 H1351 0.930 . S
C1349 C1346 1.348 . S
C1349 C1347 1.356 . S
H1350 C1344 0.930 . S
H1351 C1348 0.930 . S
C1352 C1354 1.348 . S
C1352 C1355 1.356 . S
C1352 O1382 1.325 . S
N1353 C1356 1.314 . S
N1353 C1357 1.279 . S
C1354 C1352 1.348 . S
C1354 C1356 1.353 . S
C1354 H1396 0.929 . S
C1355 C1352 1.356 . S
C1355 C1357 1.358 . S
C1355 H1397 0.930 . S
C1356 N1353 1.314 . S
C1356 C1354 1.353 . S
C1356 H1398 0.930 . S
C1357 N1353 1.279 . S
C1357 C1355 1.358 . S
C1357 H1399 0.930 . S
C1358 C1359 1.348 . S
C1358 C1360 1.356 . S
C1358 O1383 1.325 . S
C1359 C1358 1.348 . S
C1359 C1361 1.353 . S
C1359 H1400 0.929 . S
C1360 C1358 1.356 . S
C1360 C1362 1.358 . S
C1360 H1401 0.930 . S
C1361 C1359 1.353 . S
C1361 N1363 1.314 . S
C1361 H1402 0.930 . S
C1362 C1360 1.358 . S
C1362 N1363 1.279 . S
C1362 H1403 0.930 . S
N1363 C1361 1.314 . S
N1363 C1362 1.279 . S
C1364 C1366 1.353 . S
C1364 N1367 1.314 1_455 S
C1364 H1370 0.930 . S
C1365 N1367 1.279 . S
C1365 C1368 1.358 . S
C1365 H1371 0.930 . S
C1366 C1364 1.353 . S
C1366 C1369 1.348 1_455 S
C1366 H1404 0.929 . S
N1367 Li1322 1.990 . S
N1367 C1364 1.314 1_655 S
N1367 C1365 1.279 . S
C1368 C1365 1.358 . S
C1368 C1369 1.356 . S
C1368 H1405 0.930 . S
C1369 C1366 1.348 1_655 S
C1369 C1368 1.356 . S
H1370 C1364 0.930 . S
H1371 C1365 0.930 . S
C1372 N1373 1.314 1_655 S
C1372 C1374 1.353 . S
C1372 H1378 0.930 . S
N1373 Li1323 1.990 . S
N1373 C1372 1.314 1_455 S
N1373 C1376 1.279 . S
C1374 C1372 1.353 . S
C1374 C1377 1.348 1_655 S
C1374 H1406 0.929 . S
C1375 C1376 1.358 . S
C1375 C1377 1.356 . S
C1375 H1407 0.930 . S
C1376 N1373 1.279 . S
C1376 C1375 1.358 . S
C1376 H1379 0.930 . S
C1377 C1374 1.348 1_455 S
C1377 C1375 1.356 . S
H1378 C1372 0.930 . S
H1379 C1376 0.930 . S
O1380 Li1320 1.955 1_455 S
O1380 Li1321 1.972 . S
O1380 Li1322 1.962 1_455 S
O1380 C1324 1.323 1_455 S
O1381 Li1320 2.001 . S
O1381 Li1321 1.934 1_655 S
O1381 Li1323 1.938 1_655 S
O1381 C1330 1.332 1_655 S
O1382 Li1320 1.961 . S
O1382 Li1322 1.956 . S
O1382 Li1323 1.970 1_655 S
O1382 C1352 1.325 . S
O1383 Li1321 1.961 . S
O1383 Li1322 1.970 1_455 S
O1383 Li1323 1.956 . S
O1383 C1358 1.325 . S
H1384 C1326 0.929 . S
H1385 C1327 0.930 . S
H1386 C1328 0.930 . S
H1387 C1329 0.930 . S
H1388 C1331 0.930 . S
H1389 C1333 0.929 . S
H1390 C1334 0.930 . S
H1391 C1335 0.930 . S
H1392 C1338 0.930 . S
H1393 C1341 0.929 . S
H1394 C1346 0.929 . S
H1395 C1347 0.930 . S
H1396 C1354 0.929 . S
H1397 C1355 0.930 . S
H1398 C1356 0.930 . S
H1399 C1357 0.930 . S
H1400 C1359 0.929 . S
H1401 C1360 0.930 . S
H1402 C1361 0.930 . S
H1403 C1362 0.930 . S
H1404 C1366 0.929 . S
H1405 C1368 0.930 . S
H1406 C1374 0.929 . S
H1407 C1375 0.930 . S
Li1408 N1425 1.990 . S
Li1408 O1468 1.956 . S
Li1408 O1469 1.970 . S
Li1408 O1470 1.961 . S
Li1409 N1433 1.990 . S
Li1409 O1468 1.970 . S
Li1409 O1469 1.956 . S
Li1409 O1471 1.961 . S
Li1410 N1455 1.990 . S
Li1410 O1468 1.961 . S
Li1410 O1470 1.956 . S
Li1410 O1471 1.970 . S
Li1411 N1461 1.990 . S
Li1411 O1469 1.961 . S
Li1411 O1470 1.970 . S
Li1411 O1471 1.956 . S
C1412 C1414 1.348 . S
C1412 C1415 1.356 . S
C1412 O1468 1.325 . S
N1413 C1416 1.314 . S
N1413 C1417 1.279 . S
C1414 C1412 1.348 . S
C1414 C1416 1.353 . S
C1414 H1472 0.929 . S
C1415 C1412 1.356 . S
C1415 C1417 1.358 . S
C1415 H1473 0.930 . S
C1416 N1413 1.314 . S
C1416 C1414 1.353 . S
C1416 H1474 0.930 . S
C1417 N1413 1.279 . S
C1417 C1415 1.358 . S
C1417 H1475 0.930 . S
C1418 C1421 1.348 . S
C1418 C1422 1.356 . S
C1418 O1469 1.325 . S
C1419 N1420 1.279 . S
C1419 C1422 1.358 . S
C1419 H1476 0.930 . S
N1420 C1419 1.279 . S
N1420 C1423 1.314 . S
C1421 C1418 1.348 . S
C1421 C1423 1.353 . S
C1421 H1477 0.929 . S
C1422 C1418 1.356 . S
C1422 C1419 1.358 . S
C1422 H1478 0.930 . S
C1423 N1420 1.314 . S
C1423 C1421 1.353 . S
C1423 H1479 0.930 . S
C1424 N1425 1.314 . S
C1424 C1429 1.353 . S
C1424 H1430 0.930 . S
N1425 Li1408 1.990 . S
N1425 C1424 1.314 . S
N1425 C1427 1.279 . S
C1426 C1427 1.358 . S
C1426 C1428 1.356 . S
C1426 H1480 0.930 . S
C1427 N1425 1.279 . S
C1427 C1426 1.358 . S
C1427 H1431 0.930 . S
C1428 C1426 1.356 . S
C1428 C1429 1.348 . S
C1429 C1424 1.353 . S
C1429 C1428 1.348 . S
C1429 H1481 0.929 . S
H1430 C1424 0.930 . S
H1431 C1427 0.930 . S
C1432 N1433 1.314 . S
C1432 C1434 1.353 . S
C1432 H1438 0.930 . S
N1433 Li1409 1.990 . S
N1433 C1432 1.314 . S
N1433 C1436 1.279 . S
C1434 C1432 1.353 . S
C1434 C1437 1.348 . S
C1434 H1482 0.929 . S
C1435 C1436 1.358 . S
C1435 C1437 1.356 . S
C1435 H1483 0.930 . S
C1436 N1433 1.279 . S
C1436 C1435 1.358 . S
C1436 H1439 0.930 . S
C1437 C1434 1.348 . S
C1437 C1435 1.356 . S
H1438 C1432 0.930 . S
H1439 C1436 0.930 . S
C1440 C1442 1.348 . S
C1440 C1443 1.356 . S
C1440 O1470 1.325 . S
N1441 C1444 1.314 . S
N1441 C1445 1.279 . S
C1442 C1440 1.348 . S
C1442 C1444 1.353 . S
C1442 H1484 0.929 . S
C1443 C1440 1.356 . S
C1443 C1445 1.358 . S
C1443 H1485 0.930 . S
C1444 N1441 1.314 . S
C1444 C1442 1.353 . S
C1444 H1486 0.930 . S
C1445 N1441 1.279 . S
C1445 C1443 1.358 . S
C1445 H1487 0.930 . S
C1446 C1447 1.348 . S
C1446 C1448 1.356 . S
C1446 O1471 1.325 . S
C1447 C1446 1.348 . S
C1447 C1449 1.353 . S
C1447 H1488 0.929 . S
C1448 C1446 1.356 . S
C1448 C1450 1.358 . S
C1448 H1489 0.930 . S
C1449 C1447 1.353 . S
C1449 N1451 1.314 . S
C1449 H1490 0.930 . S
C1450 C1448 1.358 . S
C1450 N1451 1.279 . S
C1450 H1491 0.930 . S
N1451 C1449 1.314 . S
N1451 C1450 1.279 . S
C1452 C1454 1.353 . S
C1452 N1455 1.314 . S
C1452 H1458 0.930 . S
C1453 N1455 1.279 . S
C1453 C1456 1.358 . S
C1453 H1459 0.930 . S
C1454 C1452 1.353 . S
C1454 C1457 1.348 . S
C1454 H1492 0.929 . S
N1455 Li1410 1.990 . S
N1455 C1452 1.314 . S
N1455 C1453 1.279 . S
C1456 C1453 1.358 . S
C1456 C1457 1.356 . S
C1456 H1493 0.930 . S
C1457 C1454 1.348 . S
C1457 C1456 1.356 . S
H1458 C1452 0.930 . S
H1459 C1453 0.930 . S
C1460 N1461 1.314 . S
C1460 C1462 1.353 . S
C1460 H1466 0.930 . S
N1461 Li1411 1.990 . S
N1461 C1460 1.314 . S
N1461 C1464 1.279 . S
C1462 C1460 1.353 . S
C1462 C1465 1.348 . S
C1462 H1494 0.929 . S
C1463 C1464 1.358 . S
C1463 C1465 1.356 . S
C1463 H1495 0.930 . S
C1464 N1461 1.279 . S
C1464 C1463 1.358 . S
C1464 H1467 0.930 . S
C1465 C1462 1.348 . S
C1465 C1463 1.356 . S
H1466 C1460 0.930 . S
H1467 C1464 0.930 . S
O1468 Li1408 1.956 . S
O1468 Li1409 1.970 . S
O1468 Li1410 1.961 . S
O1468 C1412 1.325 . S
O1469 Li1408 1.970 . S
O1469 Li1409 1.956 . S
O1469 Li1411 1.961 . S
O1469 C1418 1.325 . S
O1470 Li1408 1.961 . S
O1470 Li1410 1.956 . S
O1470 Li1411 1.970 . S
O1470 C1440 1.325 . S
O1471 Li1409 1.961 . S
O1471 Li1410 1.970 . S
O1471 Li1411 1.956 . S
O1471 C1446 1.325 . S
H1472 C1414 0.929 . S
H1473 C1415 0.930 . S
H1474 C1416 0.930 . S
H1475 C1417 0.930 . S
H1476 C1419 0.930 . S
H1477 C1421 0.929 . S
H1478 C1422 0.930 . S
H1479 C1423 0.930 . S
H1480 C1426 0.930 . S
H1481 C1429 0.929 . S
H1482 C1434 0.929 . S
H1483 C1435 0.930 . S
H1484 C1442 0.929 . S
H1485 C1443 0.930 . S
H1486 C1444 0.930 . S
H1487 C1445 0.930 . S
H1488 C1447 0.929 . S
H1489 C1448 0.930 . S
H1490 C1449 0.930 . S
H1491 C1450 0.930 . S
H1492 C1454 0.929 . S
H1493 C1456 0.930 . S
H1494 C1462 0.929 . S
H1495 C1463 0.930 . S
Li1496 N1513 1.990 . S
Li1496 O1556 1.956 . S
Li1496 O1557 1.988 . S
Li1496 O1558 1.961 1_565 S
Li1497 N1521 1.979 1_565 S
Li1497 O1556 1.975 . S
Li1497 O1557 1.947 . S
Li1497 O1559 1.957 1_565 S
Li1498 N1543 1.990 1_545 S
Li1498 O1556 1.963 1_545 S
Li1498 O1558 1.958 . S
Li1498 O1559 1.966 . S
Li1499 N1549 1.990 . S
Li1499 O1557 1.947 1_545 S
Li1499 O1558 1.970 . S
Li1499 O1559 1.956 . S
C1500 C1502 1.348 . S
C1500 C1503 1.356 . S
C1500 O1556 1.325 . S
N1501 C1504 1.314 . S
N1501 C1505 1.279 . S
C1502 C1500 1.348 . S
C1502 C1504 1.353 . S
C1502 H1560 0.929 . S
C1503 C1500 1.356 . S
C1503 C1505 1.358 . S
C1503 H1561 0.930 . S
C1504 N1501 1.314 . S
C1504 C1502 1.353 . S
C1504 H1562 0.930 . S
C1505 N1501 1.279 . S
C1505 C1503 1.358 . S
C1505 H1563 0.930 . S
C1506 C1509 1.365 . S
C1506 C1510 1.341 1_565 S
C1506 O1557 1.325 . S
C1507 N1508 1.278 . S
C1507 C1510 1.358 . S
C1507 H1564 0.930 . S
N1508 C1507 1.278 . S
N1508 C1511 1.316 1_545 S
C1509 C1506 1.365 . S
C1509 C1511 1.353 . S
C1509 H1565 0.929 . S
C1510 C1506 1.341 1_545 S
C1510 C1507 1.358 . S
C1510 H1566 0.930 . S
C1511 N1508 1.316 1_565 S
C1511 C1509 1.353 . S
C1511 H1567 0.930 . S
C1512 N1513 1.314 . S
C1512 C1517 1.353 . S
C1512 H1518 0.930 . S
N1513 Li1496 1.990 . S
N1513 C1512 1.314 . S
N1513 C1515 1.279 . S
C1514 C1515 1.358 . S
C1514 C1516 1.356 . S
C1514 H1568 0.930 . S
C1515 N1513 1.279 . S
C1515 C1514 1.358 . S
C1515 H1519 0.930 . S
C1516 C1514 1.356 . S
C1516 C1517 1.348 . S
C1517 C1512 1.353 . S
C1517 C1516 1.348 . S
C1517 H1569 0.929 . S
H1518 C1512 0.930 . S
H1519 C1515 0.930 . S
C1520 N1521 1.327 . S
C1520 C1522 1.353 . S
C1520 H1526 0.930 . S
N1521 Li1497 1.979 1_545 S
N1521 C1520 1.327 . S
N1521 C1524 1.275 1_545 S
C1522 C1520 1.353 . S
C1522 C1525 1.348 1_545 S
C1522 H1570 0.929 . S
C1523 C1524 1.358 . S
C1523 C1525 1.356 . S
C1523 H1571 0.930 . S
C1524 N1521 1.275 1_565 S
C1524 C1523 1.358 . S
C1524 H1527 0.930 . S
C1525 C1522 1.348 1_565 S
C1525 C1523 1.356 . S
H1526 C1520 0.930 . S
H1527 C1524 0.930 . S
C1528 C1530 1.348 . S
C1528 C1531 1.356 1_545 S
C1528 O1558 1.325 . S
N1529 C1532 1.314 . S
N1529 C1533 1.279 1_545 S
C1530 C1528 1.348 . S
C1530 C1532 1.353 . S
C1530 H1572 0.929 . S
C1531 C1528 1.356 1_565 S
C1531 C1533 1.358 . S
C1531 H1573 0.930 . S
C1532 N1529 1.314 . S
C1532 C1530 1.353 . S
C1532 H1574 0.930 . S
C1533 N1529 1.279 1_565 S
C1533 C1531 1.358 . S
C1533 H1575 0.930 . S
C1534 C1535 1.348 . S
C1534 C1536 1.356 . S
C1534 O1559 1.325 . S
C1535 C1534 1.348 . S
C1535 C1537 1.353 . S
C1535 H1576 0.929 . S
C1536 C1534 1.356 . S
C1536 C1538 1.358 . S
C1536 H1577 0.930 . S
C1537 C1535 1.353 . S
C1537 N1539 1.314 . S
C1537 H1578 0.930 . S
C1538 C1536 1.358 . S
C1538 N1539 1.279 . S
C1538 H1579 0.930 . S
N1539 C1537 1.314 . S
N1539 C1538 1.279 . S
C1540 C1542 1.353 . S
C1540 N1543 1.314 . S
C1540 H1546 0.930 . S
C1541 N1543 1.279 1_545 S
C1541 C1544 1.358 . S
C1541 H1547 0.930 . S
C1542 C1540 1.353 . S
C1542 C1545 1.348 1_565 S
C1542 H1580 0.929 . S
N1543 Li1498 1.990 1_565 S
N1543 C1540 1.314 . S
N1543 C1541 1.279 1_565 S
C1544 C1541 1.358 . S
C1544 C1545 1.356 . S
C1544 H1581 0.930 . S
C1545 C1542 1.348 1_545 S
C1545 C1544 1.356 . S
H1546 C1540 0.930 . S
H1547 C1541 0.930 . S
C1548 N1549 1.314 . S
C1548 C1550 1.353 . S
C1548 H1554 0.930 . S
N1549 Li1499 1.990 . S
N1549 C1548 1.314 . S
N1549 C1552 1.279 . S
C1550 C1548 1.353 . S
C1550 C1553 1.348 . S
C1550 H1582 0.929 . S
C1551 C1552 1.358 . S
C1551 C1553 1.356 . S
C1551 H1583 0.930 . S
C1552 N1549 1.279 . S
C1552 C1551 1.358 . S
C1552 H1555 0.930 . S
C1553 C1550 1.348 . S
C1553 C1551 1.356 . S
H1554 C1548 0.930 . S
H1555 C1552 0.930 . S
O1556 Li1496 1.956 . S
O1556 Li1497 1.975 . S
O1556 Li1498 1.963 1_565 S
O1556 C1500 1.325 . S
O1557 Li1496 1.988 . S
O1557 Li1497 1.947 . S
O1557 Li1499 1.947 1_565 S
O1557 C1506 1.325 . S
O1558 Li1496 1.961 1_545 S
O1558 Li1498 1.958 . S
O1558 Li1499 1.970 . S
O1558 C1528 1.325 . S
O1559 Li1497 1.957 1_545 S
O1559 Li1498 1.966 . S
O1559 Li1499 1.956 . S
O1559 C1534 1.325 . S
H1560 C1502 0.929 . S
H1561 C1503 0.930 . S
H1562 C1504 0.930 . S
H1563 C1505 0.930 . S
H1564 C1507 0.930 . S
H1565 C1509 0.929 . S
H1566 C1510 0.930 . S
H1567 C1511 0.930 . S
H1568 C1514 0.930 . S
H1569 C1517 0.929 . S
H1570 C1522 0.929 . S
H1571 C1523 0.930 . S
H1572 C1530 0.929 . S
H1573 C1531 0.930 . S
H1574 C1532 0.930 . S
H1575 C1533 0.930 . S
H1576 C1535 0.929 . S
H1577 C1536 0.930 . S
H1578 C1537 0.930 . S
H1579 C1538 0.930 . S
H1580 C1542 0.929 . S
H1581 C1544 0.930 . S
H1582 C1550 0.929 . S
H1583 C1551 0.930 . S
H1584 C1596 0.930 1_565 S
H1585 C1598 0.930 . S
H1586 C1599 0.930 . S
H1587 C1603 0.944 1_545 S
H1588 C1603 0.959 . S
H1589 C1603 0.961 . S
H1590 C1604 0.960 . S
H1591 C1604 0.961 . S
H1592 C1604 0.959 . S
H1593 C1607 0.929 . S
H1594 C1608 0.933 . S
H1595 C1610 0.930 . S
C1596 H1584 0.930 1_545 S
C1596 C1597 1.399 . S
C1596 C1601 1.399 1_545 S
C1597 C1596 1.399 . S
C1597 C1598 1.376 . S
C1598 H1585 0.930 . S
C1598 C1597 1.376 . S
C1598 C1599 1.388 1_554 S
C1599 H1586 0.930 . S
C1599 C1598 1.388 1_556 S
C1599 C1600 1.394 . S
C1600 C1599 1.394 . S
C1600 C1601 1.373 1_546 S
C1600 C1606 1.479 . S
C1601 C1596 1.399 1_565 S
C1601 C1600 1.373 1_564 S
C1601 C1602 1.516 . S
C1602 C1601 1.516 . S
C1602 C1603 1.502 . S
C1602 C1604 1.561 . S
C1602 C1605 1.526 1_554 S
C1603 H1587 0.944 1_565 S
C1603 H1588 0.959 . S
C1603 H1589 0.961 . S
C1603 C1602 1.502 . S
C1604 H1590 0.960 . S
C1604 H1591 0.961 . S
C1604 H1592 0.959 . S
C1604 C1602 1.561 . S
C1605 C1602 1.526 1_556 S
C1605 C1606 1.396 1_565 S
C1605 C1610 1.390 . S
C1606 C1600 1.479 . S
C1606 C1605 1.396 1_545 S
C1606 C1607 1.399 . S
C1607 H1593 0.929 . S
C1607 C1606 1.399 . S
C1607 C1608 1.399 . S
C1608 H1594 0.933 . S
C1608 C1607 1.399 . S
C1608 C1609 1.374 1_545 S
C1609 C1608 1.374 1_565 S
C1609 C1610 1.387 . S
C1610 H1595 0.930 . S
C1610 C1605 1.390 . S
C1610 C1609 1.387 . S
H1611 C1623 0.930 . S
H1612 C1625 0.930 . S
H1613 C1626 0.930 . S
H1614 C1630 0.959 . S
H1615 C1630 0.959 . S
H1616 C1630 0.961 1_554 S
H1617 C1631 0.960 . S
H1618 C1631 0.961 . S
H1619 C1631 0.959 . S
H1620 C1634 0.929 . S
H1621 C1635 0.931 . S
H1622 C1637 0.930 . S
C1623 H1611 0.930 . S
C1623 C1624 1.399 . S
C1623 C1628 1.399 . S
C1624 C1623 1.399 . S
C1624 C1625 1.376 1_655 S
C1625 H1612 0.930 . S
C1625 C1624 1.376 1_455 S
C1625 C1626 1.388 . S
C1626 H1613 0.930 . S
C1626 C1625 1.388 . S
C1626 C1627 1.390 . S
C1627 C1626 1.390 . S
C1627 C1628 1.394 1_455 S
C1627 C1633 1.465 1_554 S
C1628 C1623 1.399 . S
C1628 C1627 1.394 1_655 S
C1628 C1629 1.516 . S
C1629 C1628 1.516 . S
C1629 C1630 1.502 1_554 S
C1629 C1631 1.561 . S
C1629 C1632 1.526 1_554 S
C1630 H1614 0.959 . S
C1630 H1615 0.959 . S
C1630 H1616 0.961 1_556 S
C1630 C1629 1.502 1_556 S
C1631 H1617 0.960 . S
C1631 H1618 0.961 . S
C1631 H1619 0.959 . S
C1631 C1629 1.561 . S
C1632 C1629 1.526 1_556 S
C1632 C1633 1.396 1_655 S
C1632 C1637 1.390 . S
C1633 C1627 1.465 1_556 S
C1633 C1632 1.396 1_455 S
C1633 C1634 1.399 . S
C1634 H1620 0.929 . S
C1634 C1633 1.399 . S
C1634 C1635 1.385 . S
C1635 H1621 0.931 . S
C1635 C1634 1.385 . S
C1635 C1636 1.389 . S
C1636 C1635 1.389 . S
C1636 C1637 1.387 1_455 S
C1637 H1622 0.930 . S
C1637 C1632 1.390 . S
C1637 C1636 1.387 1_655 S
H1638 C1650 0.930 . S
H1639 C1652 0.930 . S
H1640 C1653 0.930 . S
H1641 C1657 0.959 . S
H1642 C1657 0.959 . S
H1643 C1657 0.961 . S
H1644 C1658 0.960 . S
H1645 C1658 0.961 . S
H1646 C1658 0.959 . S
H1647 C1661 0.929 . S
H1648 C1662 0.931 . S
H1649 C1664 0.930 . S
C1650 H1638 0.930 . S
C1650 C1651 1.399 . S
C1650 C1655 1.399 . S
C1651 C1650 1.399 . S
C1651 C1652 1.376 . S
C1652 H1639 0.930 . S
C1652 C1651 1.376 . S
C1652 C1653 1.388 1_556 S
C1653 H1640 0.930 . S
C1653 C1652 1.388 1_554 S
C1653 C1654 1.393 . S
C1654 C1653 1.393 . S
C1654 C1655 1.376 1_554 S
C1654 C1660 1.477 . S
C1655 C1650 1.399 . S
C1655 C1654 1.376 1_556 S
C1655 C1656 1.516 . S
C1656 C1655 1.516 . S
C1656 C1657 1.502 . S
C1656 C1658 1.561 . S
C1656 C1659 1.526 1_556 S
C1657 H1641 0.959 . S
C1657 H1642 0.959 . S
C1657 H1643 0.961 . S
C1657 C1656 1.502 . S
C1658 H1644 0.960 . S
C1658 H1645 0.961 . S
C1658 H1646 0.959 . S
C1658 C1656 1.561 . S
C1659 C1656 1.526 1_554 S
C1659 C1660 1.396 . S
C1659 C1664 1.390 . S
C1660 C1654 1.477 . S
C1660 C1659 1.396 . S
C1660 C1661 1.399 . S
C1661 H1647 0.929 . S
C1661 C1660 1.399 . S
C1661 C1662 1.385 . S
C1662 H1648 0.931 . S
C1662 C1661 1.385 . S
C1662 C1663 1.389 . S
C1663 C1662 1.389 . S
C1663 C1664 1.387 . S
C1664 H1649 0.930 . S
C1664 C1659 1.390 . S
C1664 C1663 1.387 . S
H1665 C1677 0.930 . S
H1666 C1679 0.930 . S
H1667 C1680 0.930 . S
H1668 C1684 0.959 . S
H1669 C1684 0.959 . S
H1670 C1684 0.961 . S
H1671 C1685 0.960 . S
H1672 C1685 0.961 . S
H1673 C1685 0.959 . S
H1674 C1688 0.929 . S
H1675 C1689 0.931 . S
H1676 C1691 0.930 . S
C1677 H1665 0.930 . S
C1677 C1678 1.399 . S
C1677 C1682 1.399 . S
C1678 C1677 1.399 . S
C1678 C1679 1.376 . S
C1679 H1666 0.930 . S
C1679 C1678 1.376 . S
C1679 C1680 1.388 . S
C1680 H1667 0.930 . S
C1680 C1679 1.388 . S
C1680 C1681 1.390 . S
C1681 C1680 1.390 . S
C1681 C1682 1.394 . S
C1681 C1687 1.465 . S
C1682 C1677 1.399 . S
C1682 C1681 1.394 . S
C1682 C1683 1.516 . S
C1683 C1682 1.516 . S
C1683 C1684 1.502 . S
C1683 C1685 1.561 . S
C1683 C1686 1.526 . S
C1684 H1668 0.959 . S
C1684 H1669 0.959 . S
C1684 H1670 0.961 . S
C1684 C1683 1.502 . S
C1685 H1671 0.960 . S
C1685 H1672 0.961 . S
C1685 H1673 0.959 . S
C1685 C1683 1.561 . S
C1686 C1683 1.526 . S
C1686 C1687 1.396 . S
C1686 C1691 1.390 . S
C1687 C1681 1.465 . S
C1687 C1686 1.396 . S
C1687 C1688 1.399 . S
C1688 H1674 0.929 . S
C1688 C1687 1.399 . S
C1688 C1689 1.385 . S
C1689 H1675 0.931 . S
C1689 C1688 1.385 . S
C1689 C1690 1.389 . S
C1690 C1689 1.389 . S
C1690 C1691 1.387 . S
C1691 H1676 0.930 . S
C1691 C1686 1.390 . S
C1691 C1690 1.387 . S
H1692 C1704 0.930 . S
H1693 C1706 0.930 . S
H1694 C1707 0.930 . S
H1695 C1711 0.959 . S
H1696 C1711 0.959 . S
H1697 C1711 0.961 . S
H1698 C1712 0.960 . S
H1699 C1712 0.961 . S
H1700 C1712 0.959 . S
H1701 C1715 0.929 . S
H1702 C1716 0.931 . S
H1703 C1718 0.930 . S
C1704 H1692 0.930 . S
C1704 C1705 1.399 . S
C1704 C1709 1.399 . S
C1705 C1704 1.399 . S
C1705 C1706 1.376 . S
C1706 H1693 0.930 . S
C1706 C1705 1.376 . S
C1706 C1707 1.388 . S
C1707 H1694 0.930 . S
C1707 C1706 1.388 . S
C1707 C1708 1.390 . S
C1708 C1707 1.390 . S
C1708 C1709 1.394 . S
C1708 C1714 1.465 . S
C1709 C1704 1.399 . S
C1709 C1708 1.394 . S
C1709 C1710 1.516 . S
C1710 C1709 1.516 . S
C1710 C1711 1.502 . S
C1710 C1712 1.561 . S
C1710 C1713 1.526 . S
C1711 H1695 0.959 . S
C1711 H1696 0.959 . S
C1711 H1697 0.961 . S
C1711 C1710 1.502 . S
C1712 H1698 0.960 . S
C1712 H1699 0.961 . S
C1712 H1700 0.959 . S
C1712 C1710 1.561 . S
C1713 C1710 1.526 . S
C1713 C1714 1.396 . S
C1713 C1718 1.390 . S
C1714 C1708 1.465 . S
C1714 C1713 1.396 . S
C1714 C1715 1.399 . S
C1715 H1701 0.929 . S
C1715 C1714 1.399 . S
C1715 C1716 1.385 . S
C1716 H1702 0.931 . S
C1716 C1715 1.385 . S
C1716 C1717 1.389 . S
C1717 C1716 1.389 . S
C1717 C1718 1.387 . S
C1718 H1703 0.930 . S
C1718 C1713 1.390 . S
C1718 C1717 1.387 . S
H1719 C1731 0.930 . S
H1720 C1733 0.930 . S
H1721 C1734 0.930 . S
H1722 C1738 0.959 . S
H1723 C1738 0.959 . S
H1724 C1738 0.961 . S
H1725 C1739 0.960 . S
H1726 C1739 0.961 . S
H1727 C1739 0.959 . S
H1728 C1742 0.929 . S
H1729 C1743 0.931 . S
H1730 C1745 0.930 . S
C1731 H1719 0.930 . S
C1731 C1732 1.399 . S
C1731 C1736 1.399 . S
C1732 C1731 1.399 . S
C1732 C1733 1.376 . S
C1733 H1720 0.930 . S
C1733 C1732 1.376 . S
C1733 C1734 1.388 . S
C1734 H1721 0.930 . S
C1734 C1733 1.388 . S
C1734 C1735 1.390 . S
C1735 C1734 1.390 . S
C1735 C1736 1.394 . S
C1735 C1741 1.465 . S
C1736 C1731 1.399 . S
C1736 C1735 1.394 . S
C1736 C1737 1.516 . S
C1737 C1736 1.516 . S
C1737 C1738 1.502 . S
C1737 C1739 1.561 . S
C1737 C1740 1.526 . S
C1738 H1722 0.959 . S
C1738 H1723 0.959 . S
C1738 H1724 0.961 . S
C1738 C1737 1.502 . S
C1739 H1725 0.960 . S
C1739 H1726 0.961 . S
C1739 H1727 0.959 . S
C1739 C1737 1.561 . S
C1740 C1737 1.526 . S
C1740 C1741 1.396 . S
C1740 C1745 1.390 . S
C1741 C1735 1.465 . S
C1741 C1740 1.396 . S
C1741 C1742 1.399 . S
C1742 H1728 0.929 . S
C1742 C1741 1.399 . S
C1742 C1743 1.385 . S
C1743 H1729 0.931 . S
C1743 C1742 1.385 . S
C1743 C1744 1.389 . S
C1744 C1743 1.389 . S
C1744 C1745 1.387 . S
C1745 H1730 0.930 . S
C1745 C1740 1.390 . S
C1745 C1744 1.387 . S
H1746 C1758 0.930 . S
H1747 C1760 0.930 . S
H1748 C1761 0.930 . S
H1749 C1765 0.959 . S
H1750 C1765 0.959 . S
H1751 C1765 0.961 . S
H1752 C1766 0.960 . S
H1753 C1766 0.961 . S
H1754 C1766 0.959 . S
H1755 C1769 0.929 . S
H1756 C1770 0.931 . S
H1757 C1772 0.930 . S
C1758 H1746 0.930 . S
C1758 C1759 1.399 . S
C1758 C1763 1.399 . S
C1759 C1758 1.399 . S
C1759 C1760 1.376 . S
C1760 H1747 0.930 . S
C1760 C1759 1.376 . S
C1760 C1761 1.388 . S
C1761 H1748 0.930 . S
C1761 C1760 1.388 . S
C1761 C1762 1.390 . S
C1762 C1761 1.390 . S
C1762 C1763 1.394 . S
C1762 C1768 1.465 . S
C1763 C1758 1.399 . S
C1763 C1762 1.394 . S
C1763 C1764 1.516 . S
C1764 C1763 1.516 . S
C1764 C1765 1.502 . S
C1764 C1766 1.561 . S
C1764 C1767 1.526 . S
C1765 H1749 0.959 . S
C1765 H1750 0.959 . S
C1765 H1751 0.961 . S
C1765 C1764 1.502 . S
C1766 H1752 0.960 . S
C1766 H1753 0.961 . S
C1766 H1754 0.959 . S
C1766 C1764 1.561 . S
C1767 C1764 1.526 . S
C1767 C1768 1.396 . S
C1767 C1772 1.390 . S
C1768 C1762 1.465 . S
C1768 C1767 1.396 . S
C1768 C1769 1.399 . S
C1769 H1755 0.929 . S
C1769 C1768 1.399 . S
C1769 C1770 1.385 . S
C1770 H1756 0.931 . S
C1770 C1769 1.385 . S
C1770 C1771 1.389 . S
C1771 C1770 1.389 . S
C1771 C1772 1.387 . S
C1772 H1757 0.930 . S
C1772 C1767 1.390 . S
C1772 C1771 1.387 . S
H1773 C1785 0.930 . S
H1774 C1787 0.930 . S
H1775 C1788 0.930 . S
H1776 C1792 0.959 . S
H1777 C1792 0.959 . S
H1778 C1792 0.961 . S
H1779 C1793 0.960 . S
H1780 C1793 0.961 . S
H1781 C1793 0.959 . S
H1782 C1796 0.929 . S
H1783 C1797 0.931 . S
H1784 C1799 0.930 . S
C1785 H1773 0.930 . S
C1785 C1786 1.399 . S
C1785 C1790 1.399 . S
C1786 C1785 1.399 . S
C1786 C1787 1.376 . S
C1787 H1774 0.930 . S
C1787 C1786 1.376 . S
C1787 C1788 1.388 . S
C1788 H1775 0.930 . S
C1788 C1787 1.388 . S
C1788 C1789 1.390 . S
C1789 C1788 1.390 . S
C1789 C1790 1.394 . S
C1789 C1795 1.465 . S
C1790 C1785 1.399 . S
C1790 C1789 1.394 . S
C1790 C1791 1.516 . S
C1791 C1790 1.516 . S
C1791 C1792 1.502 . S
C1791 C1793 1.561 . S
C1791 C1794 1.526 . S
C1792 H1776 0.959 . S
C1792 H1777 0.959 . S
C1792 H1778 0.961 . S
C1792 C1791 1.502 . S
C1793 H1779 0.960 . S
C1793 H1780 0.961 . S
C1793 H1781 0.959 . S
C1793 C1791 1.561 . S
C1794 C1791 1.526 . S
C1794 C1795 1.396 . S
C1794 C1799 1.390 . S
C1795 C1789 1.465 . S
C1795 C1794 1.396 . S
C1795 C1796 1.399 . S
C1796 H1782 0.929 . S
C1796 C1795 1.399 . S
C1796 C1797 1.385 . S
C1797 H1783 0.931 . S
C1797 C1796 1.385 . S
C1797 C1798 1.389 . S
C1798 C1797 1.389 . S
C1798 C1799 1.387 . S
C1799 H1784 0.930 . S
C1799 C1794 1.390 . S
C1799 C1798 1.387 . S
H1800 C1812 0.930 . S
H1801 C1814 0.930 . S
H1802 C1815 0.930 . S
H1803 C1819 0.959 . S
H1804 C1819 0.959 . S
H1805 C1819 0.961 . S
H1806 C1820 0.960 . S
H1807 C1820 0.961 . S
H1808 C1820 0.959 . S
H1809 C1823 0.929 . S
H1810 C1824 0.931 . S
H1811 C1826 0.930 . S
C1812 H1800 0.930 . S
C1812 C1813 1.399 . S
C1812 C1817 1.399 . S
C1813 C1812 1.399 . S
C1813 C1814 1.376 . S
C1814 H1801 0.930 . S
C1814 C1813 1.376 . S
C1814 C1815 1.388 . S
C1815 H1802 0.930 . S
C1815 C1814 1.388 . S
C1815 C1816 1.390 . S
C1816 C1815 1.390 . S
C1816 C1817 1.394 . S
C1816 C1822 1.465 . S
C1817 C1812 1.399 . S
C1817 C1816 1.394 . S
C1817 C1818 1.516 . S
C1818 C1817 1.516 . S
C1818 C1819 1.502 . S
C1818 C1820 1.561 . S
C1818 C1821 1.526 . S
C1819 H1803 0.959 . S
C1819 H1804 0.959 . S
C1819 H1805 0.961 . S
C1819 C1818 1.502 . S
C1820 H1806 0.960 . S
C1820 H1807 0.961 . S
C1820 H1808 0.959 . S
C1820 C1818 1.561 . S
C1821 C1818 1.526 . S
C1821 C1822 1.396 . S
C1821 C1826 1.390 . S
C1822 C1816 1.465 . S
C1822 C1821 1.396 . S
C1822 C1823 1.399 . S
C1823 H1809 0.929 . S
C1823 C1822 1.399 . S
C1823 C1824 1.385 . S
C1824 H1810 0.931 . S
C1824 C1823 1.385 . S
C1824 C1825 1.389 . S
C1825 C1824 1.389 . S
C1825 C1826 1.387 . S
C1826 H1811 0.930 . S
C1826 C1821 1.390 . S
C1826 C1825 1.387 . S
H1827 C1839 0.930 . S
H1828 C1841 0.930 . S
H1829 C1842 0.930 . S
H1830 C1846 0.959 . S
H1831 C1846 0.959 . S
H1832 C1846 0.961 . S
H1833 C1847 0.960 . S
H1834 C1847 0.961 . S
H1835 C1847 0.959 . S
H1836 C1850 0.929 . S
H1837 C1851 0.931 . S
H1838 C1853 0.930 . S
C1839 H1827 0.930 . S
C1839 C1840 1.399 . S
C1839 C1844 1.399 . S
C1840 C1839 1.399 . S
C1840 C1841 1.376 . S
C1841 H1828 0.930 . S
C1841 C1840 1.376 . S
C1841 C1842 1.388 . S
C1842 H1829 0.930 . S
C1842 C1841 1.388 . S
C1842 C1843 1.390 . S
C1843 C1842 1.390 . S
C1843 C1844 1.394 . S
C1843 C1849 1.465 . S
C1844 C1839 1.399 . S
C1844 C1843 1.394 . S
C1844 C1845 1.516 . S
C1845 C1844 1.516 . S
C1845 C1846 1.502 . S
C1845 C1847 1.561 . S
C1845 C1848 1.526 . S
C1846 H1830 0.959 . S
C1846 H1831 0.959 . S
C1846 H1832 0.961 . S
C1846 C1845 1.502 . S
C1847 H1833 0.960 . S
C1847 H1834 0.961 . S
C1847 H1835 0.959 . S
C1847 C1845 1.561 . S
C1848 C1845 1.526 . S
C1848 C1849 1.396 . S
C1848 C1853 1.390 . S
C1849 C1843 1.465 . S
C1849 C1848 1.396 . S
C1849 C1850 1.399 . S
C1850 H1836 0.929 . S
C1850 C1849 1.399 . S
C1850 C1851 1.385 . S
C1851 H1837 0.931 . S
C1851 C1850 1.385 . S
C1851 C1852 1.389 . S
C1852 C1851 1.389 . S
C1852 C1853 1.387 . S
C1853 H1838 0.930 . S
C1853 C1848 1.390 . S
C1853 C1852 1.387 . S
H1854 C1866 0.930 . S
H1855 C1868 0.930 . S
H1856 C1869 0.930 . S
H1857 C1873 0.959 . S
H1858 C1873 0.959 . S
H1859 C1873 0.961 . S
H1860 C1874 0.960 . S
H1861 C1874 0.961 . S
H1862 C1874 0.959 . S
H1863 C1877 0.929 . S
H1864 C1878 0.931 . S
H1865 C1880 0.930 . S
C1866 H1854 0.930 . S
C1866 C1867 1.399 . S
C1866 C1871 1.399 . S
C1867 C1866 1.399 . S
C1867 C1868 1.376 . S
C1868 H1855 0.930 . S
C1868 C1867 1.376 . S
C1868 C1869 1.388 . S
C1869 H1856 0.930 . S
C1869 C1868 1.388 . S
C1869 C1870 1.390 . S
C1870 C1869 1.390 . S
C1870 C1871 1.394 . S
C1870 C1876 1.465 . S
C1871 C1866 1.399 . S
C1871 C1870 1.394 . S
C1871 C1872 1.516 . S
C1872 C1871 1.516 . S
C1872 C1873 1.502 . S
C1872 C1874 1.561 . S
C1872 C1875 1.526 . S
C1873 H1857 0.959 . S
C1873 H1858 0.959 . S
C1873 H1859 0.961 . S
C1873 C1872 1.502 . S
C1874 H1860 0.960 . S
C1874 H1861 0.961 . S
C1874 H1862 0.959 . S
C1874 C1872 1.561 . S
C1875 C1872 1.526 . S
C1875 C1876 1.396 . S
C1875 C1880 1.390 . S
C1876 C1870 1.465 . S
C1876 C1875 1.396 . S
C1876 C1877 1.399 . S
C1877 H1863 0.929 . S
C1877 C1876 1.399 . S
C1877 C1878 1.385 . S
C1878 H1864 0.931 . S
C1878 C1877 1.385 . S
C1878 C1879 1.389 . S
C1879 C1878 1.389 . S
C1879 C1880 1.387 . S
C1880 H1865 0.930 . S
C1880 C1875 1.390 . S
C1880 C1879 1.387 . S
H1881 C1893 0.930 . S
H1882 C1895 0.930 . S
H1883 C1896 0.930 . S
H1884 C1900 0.959 . S
H1885 C1900 0.959 . S
H1886 C1900 0.961 . S
H1887 C1901 0.960 . S
H1888 C1901 0.961 . S
H1889 C1901 0.959 . S
H1890 C1904 0.929 . S
H1891 C1905 0.931 . S
H1892 C1907 0.930 . S
C1893 H1881 0.930 . S
C1893 C1894 1.399 . S
C1893 C1898 1.399 . S
C1894 C1893 1.399 . S
C1894 C1895 1.376 . S
C1895 H1882 0.930 . S
C1895 C1894 1.376 . S
C1895 C1896 1.388 . S
C1896 H1883 0.930 . S
C1896 C1895 1.388 . S
C1896 C1897 1.390 . S
C1897 C1896 1.390 . S
C1897 C1898 1.394 . S
C1897 C1903 1.465 . S
C1898 C1893 1.399 . S
C1898 C1897 1.394 . S
C1898 C1899 1.516 . S
C1899 C1898 1.516 . S
C1899 C1900 1.502 . S
C1899 C1901 1.561 . S
C1899 C1902 1.526 . S
C1900 H1884 0.959 . S
C1900 H1885 0.959 . S
C1900 H1886 0.961 . S
C1900 C1899 1.502 . S
C1901 H1887 0.960 . S
C1901 H1888 0.961 . S
C1901 H1889 0.959 . S
C1901 C1899 1.561 . S
C1902 C1899 1.526 . S
C1902 C1903 1.396 . S
C1902 C1907 1.390 . S
C1903 C1897 1.465 . S
C1903 C1902 1.396 . S
C1903 C1904 1.399 . S
C1904 H1890 0.929 . S
C1904 C1903 1.399 . S
C1904 C1905 1.385 . S
C1905 H1891 0.931 . S
C1905 C1904 1.385 . S
C1905 C1906 1.389 . S
C1906 C1905 1.389 . S
C1906 C1907 1.387 . S
C1907 H1892 0.930 . S
C1907 C1902 1.390 . S
C1907 C1906 1.387 . S
H1908 C1920 0.930 . S
H1909 C1922 0.930 . S
H1910 C1923 0.930 . S
H1911 C1927 0.959 . S
H1912 C1927 0.959 . S
H1913 C1927 0.961 . S
H1914 C1928 0.960 . S
H1915 C1928 0.961 . S
H1916 C1928 0.959 . S
H1917 C1931 0.929 . S
H1918 C1932 0.931 . S
H1919 C1934 0.930 . S
C1920 H1908 0.930 . S
C1920 C1921 1.399 . S
C1920 C1925 1.399 . S
C1921 C1920 1.399 . S
C1921 C1922 1.376 . S
C1922 H1909 0.930 . S
C1922 C1921 1.376 . S
C1922 C1923 1.388 . S
C1923 H1910 0.930 . S
C1923 C1922 1.388 . S
C1923 C1924 1.390 . S
C1924 C1923 1.390 . S
C1924 C1925 1.394 . S
C1924 C1930 1.465 . S
C1925 C1920 1.399 . S
C1925 C1924 1.394 . S
C1925 C1926 1.516 . S
C1926 C1925 1.516 . S
C1926 C1927 1.502 . S
C1926 C1928 1.561 . S
C1926 C1929 1.526 . S
C1927 H1911 0.959 . S
C1927 H1912 0.959 . S
C1927 H1913 0.961 . S
C1927 C1926 1.502 . S
C1928 H1914 0.960 . S
C1928 H1915 0.961 . S
C1928 H1916 0.959 . S
C1928 C1926 1.561 . S
C1929 C1926 1.526 . S
C1929 C1930 1.396 . S
C1929 C1934 1.390 . S
C1930 C1924 1.465 . S
C1930 C1929 1.396 . S
C1930 C1931 1.399 . S
C1931 H1917 0.929 . S
C1931 C1930 1.399 . S
C1931 C1932 1.385 . S
C1932 H1918 0.931 . S
C1932 C1931 1.385 . S
C1932 C1933 1.389 . S
C1933 C1932 1.389 . S
C1933 C1934 1.387 . S
C1934 H1919 0.930 . S
C1934 C1929 1.390 . S
C1934 C1933 1.387 . S
H1935 C1947 0.930 . S
H1936 C1949 0.930 . S
H1937 C1950 0.930 . S
H1938 C1954 0.959 . S
H1939 C1954 0.959 . S
H1940 C1954 0.961 . S
H1941 C1955 0.960 . S
H1942 C1955 0.961 . S
H1943 C1955 0.959 . S
H1944 C1958 0.929 . S
H1945 C1959 0.931 . S
H1946 C1961 0.930 . S
C1947 H1935 0.930 . S
C1947 C1948 1.399 . S
C1947 C1952 1.399 . S
C1948 C1947 1.399 . S
C1948 C1949 1.376 . S
C1949 H1936 0.930 . S
C1949 C1948 1.376 . S
C1949 C1950 1.388 . S
C1950 H1937 0.930 . S
C1950 C1949 1.388 . S
C1950 C1951 1.390 . S
C1951 C1950 1.390 . S
C1951 C1952 1.394 . S
C1951 C1957 1.465 . S
C1952 C1947 1.399 . S
C1952 C1951 1.394 . S
C1952 C1953 1.516 . S
C1953 C1952 1.516 . S
C1953 C1954 1.502 . S
C1953 C1955 1.561 . S
C1953 C1956 1.526 . S
C1954 H1938 0.959 . S
C1954 H1939 0.959 . S
C1954 H1940 0.961 . S
C1954 C1953 1.502 . S
C1955 H1941 0.960 . S
C1955 H1942 0.961 . S
C1955 H1943 0.959 . S
C1955 C1953 1.561 . S
C1956 C1953 1.526 . S
C1956 C1957 1.396 . S
C1956 C1961 1.390 . S
C1957 C1951 1.465 . S
C1957 C1956 1.396 . S
C1957 C1958 1.399 . S
C1958 H1944 0.929 . S
C1958 C1957 1.399 . S
C1958 C1959 1.385 . S
C1959 H1945 0.931 . S
C1959 C1958 1.385 . S
C1959 C1960 1.389 . S
C1960 C1959 1.389 . S
C1960 C1961 1.387 . S
C1961 H1946 0.930 . S
C1961 C1956 1.390 . S
C1961 C1960 1.387 . S
H1962 C1974 0.930 . S
H1963 C1976 0.930 . S
H1964 C1977 0.930 . S
H1965 C1981 0.959 . S
H1966 C1981 0.959 . S
H1967 C1981 0.961 . S
H1968 C1982 0.960 . S
H1969 C1982 0.961 . S
H1970 C1982 0.959 . S
H1971 C1985 0.929 . S
H1972 C1986 0.931 . S
H1973 C1988 0.930 . S
C1974 H1962 0.930 . S
C1974 C1975 1.399 . S
C1974 C1979 1.399 . S
C1975 C1974 1.399 . S
C1975 C1976 1.376 . S
C1976 H1963 0.930 . S
C1976 C1975 1.376 . S
C1976 C1977 1.388 . S
C1977 H1964 0.930 . S
C1977 C1976 1.388 . S
C1977 C1978 1.390 . S
C1978 C1977 1.390 . S
C1978 C1979 1.394 . S
C1978 C1984 1.465 . S
C1979 C1974 1.399 . S
C1979 C1978 1.394 . S
C1979 C1980 1.516 . S
C1980 C1979 1.516 . S
C1980 C1981 1.502 . S
C1980 C1982 1.561 . S
C1980 C1983 1.526 . S
C1981 H1965 0.959 . S
C1981 H1966 0.959 . S
C1981 H1967 0.961 . S
C1981 C1980 1.502 . S
C1982 H1968 0.960 . S
C1982 H1969 0.961 . S
C1982 H1970 0.959 . S
C1982 C1980 1.561 . S
C1983 C1980 1.526 . S
C1983 C1984 1.396 . S
C1983 C1988 1.390 . S
C1984 C1978 1.465 . S
C1984 C1983 1.396 . S
C1984 C1985 1.399 . S
C1985 H1971 0.929 . S
C1985 C1984 1.399 . S
C1985 C1986 1.385 . S
C1986 H1972 0.931 . S
C1986 C1985 1.385 . S
C1986 C1987 1.389 . S
C1987 C1986 1.389 . S
C1987 C1988 1.387 . S
C1988 H1973 0.930 . S
C1988 C1983 1.390 . S
C1988 C1987 1.387 . S
H1989 C2001 0.930 . S
H1990 C2003 0.930 . S
H1991 C2004 0.930 . S
H1992 C2008 0.959 . S
H1993 C2008 0.959 . S
H1994 C2008 0.961 . S
H1995 C2009 0.960 . S
H1996 C2009 0.961 . S
H1997 C2009 0.959 . S
H1998 C2012 0.929 . S
H1999 C2013 0.931 . S
H2000 C2015 0.930 . S
C2001 H1989 0.930 . S
C2001 C2002 1.399 1_655 S
C2001 C2006 1.399 . S
C2002 C2001 1.399 1_455 S
C2002 C2003 1.376 . S
C2003 H1990 0.930 . S
C2003 C2002 1.376 . S
C2003 C2004 1.388 . S
C2004 H1991 0.930 . S
C2004 C2003 1.388 . S
C2004 C2005 1.390 . S
C2005 C2004 1.390 . S
C2005 C2006 1.394 1_455 S
C2005 C2011 1.465 . S
C2006 C2001 1.399 . S
C2006 C2005 1.394 1_655 S
C2006 C2007 1.516 . S
C2007 C2006 1.516 . S
C2007 C2008 1.502 . S
C2007 C2009 1.561 1_655 S
C2007 C2010 1.526 . S
C2008 H1992 0.959 . S
C2008 H1993 0.959 . S
C2008 H1994 0.961 . S
C2008 C2007 1.502 . S
C2009 H1995 0.960 . S
C2009 H1996 0.961 . S
C2009 H1997 0.959 . S
C2009 C2007 1.561 1_455 S
C2010 C2007 1.526 . S
C2010 C2011 1.396 1_655 S
C2010 C2015 1.390 . S
C2011 C2005 1.465 . S
C2011 C2010 1.396 1_455 S
C2011 C2012 1.399 . S
C2012 H1998 0.929 . S
C2012 C2011 1.399 . S
C2012 C2013 1.385 . S
C2013 H1999 0.931 . S
C2013 C2012 1.385 . S
C2013 C2014 1.389 . S
C2014 C2013 1.389 . S
C2014 C2015 1.387 1_455 S
C2015 H2000 0.930 . S
C2015 C2010 1.390 . S
C2015 C2014 1.387 1_655 S
H2016 C2028 0.930 . S
H2017 C2030 0.930 . S
H2018 C2031 0.930 . S
H2019 C2035 0.959 . S
H2020 C2035 0.959 . S
H2021 C2035 0.961 . S
H2022 C2036 0.960 . S
H2023 C2036 0.961 . S
H2024 C2036 0.959 . S
H2025 C2039 0.929 . S
H2026 C2040 0.931 . S
H2027 C2042 0.930 . S
C2028 H2016 0.930 . S
C2028 C2029 1.399 . S
C2028 C2033 1.399 . S
C2029 C2028 1.399 . S
C2029 C2030 1.376 . S
C2030 H2017 0.930 . S
C2030 C2029 1.376 . S
C2030 C2031 1.388 . S
C2031 H2018 0.930 . S
C2031 C2030 1.388 . S
C2031 C2032 1.390 . S
C2032 C2031 1.390 . S
C2032 C2033 1.394 . S
C2032 C2038 1.465 . S
C2033 C2028 1.399 . S
C2033 C2032 1.394 . S
C2033 C2034 1.516 . S
C2034 C2033 1.516 . S
C2034 C2035 1.502 . S
C2034 C2036 1.561 . S
C2034 C2037 1.526 . S
C2035 H2019 0.959 . S
C2035 H2020 0.959 . S
C2035 H2021 0.961 . S
C2035 C2034 1.502 . S
C2036 H2022 0.960 . S
C2036 H2023 0.961 . S
C2036 H2024 0.959 . S
C2036 C2034 1.561 . S
C2037 C2034 1.526 . S
C2037 C2038 1.396 . S
C2037 C2042 1.390 . S
C2038 C2032 1.465 . S
C2038 C2037 1.396 . S
C2038 C2039 1.399 . S
C2039 H2025 0.929 . S
C2039 C2038 1.399 . S
C2039 C2040 1.385 . S
C2040 H2026 0.931 . S
C2040 C2039 1.385 . S
C2040 C2041 1.389 . S
C2041 C2040 1.389 . S
C2041 C2042 1.387 . S
C2042 H2027 0.930 . S
C2042 C2037 1.390 . S
C2042 C2041 1.387 . S
H2043 C2055 0.930 . S
H2044 C2057 0.930 . S
H2045 C2058 0.930 . S
H2046 C2062 0.959 . S
H2047 C2062 0.959 . S
H2048 C2062 0.961 . S
H2049 C2063 0.960 . S
H2050 C2063 0.961 . S
H2051 C2063 0.959 . S
H2052 C2066 0.929 . S
H2053 C2067 0.931 . S
H2054 C2069 0.930 . S
C2055 H2043 0.930 . S
C2055 C2056 1.382 1_545 S
C2055 C2060 1.399 . S
C2056 C2055 1.382 1_565 S
C2056 C2057 1.389 . S
C2057 H2044 0.930 . S
C2057 C2056 1.389 . S
C2057 C2058 1.388 . S
C2058 H2045 0.930 . S
C2058 C2057 1.388 . S
C2058 C2059 1.390 . S
C2059 C2058 1.390 . S
C2059 C2060 1.394 1_565 S
C2059 C2065 1.465 . S
C2060 C2055 1.399 . S
C2060 C2059 1.394 1_545 S
C2060 C2061 1.516 . S
C2061 C2060 1.516 . S
C2061 C2062 1.502 . S
C2061 C2063 1.561 . S
C2061 C2064 1.526 . S
C2062 H2046 0.959 . S
C2062 H2047 0.959 . S
C2062 H2048 0.961 . S
C2062 C2061 1.502 . S
C2063 H2049 0.960 . S
C2063 H2050 0.961 . S
C2063 H2051 0.959 . S
C2063 C2061 1.561 . S
C2064 C2061 1.526 . S
C2064 C2065 1.396 1_545 S
C2064 C2069 1.390 . S
C2065 C2059 1.465 . S
C2065 C2064 1.396 1_565 S
C2065 C2066 1.399 . S
C2066 H2052 0.929 . S
C2066 C2065 1.399 . S
C2066 C2067 1.385 . S
C2067 H2053 0.931 . S
C2067 C2066 1.385 . S
C2067 C2068 1.389 . S
C2068 C2067 1.389 . S
C2068 C2069 1.387 1_565 S
C2069 H2054 0.930 . S
C2069 C2064 1.390 . S
C2069 C2068 1.387 1_545 S
H2070 C2082 0.930 . S
H2071 C2084 0.930 . S
H2072 C2085 0.930 . S
H2073 C2089 0.959 . S
H2074 C2089 0.959 1_556 S
H2075 C2089 0.961 . S
H2076 C2090 0.960 . S
H2077 C2090 0.961 . S
H2078 C2090 0.959 . S
H2079 C2093 0.929 . S
H2080 C2094 0.931 . S
H2081 C2096 0.930 . S
C2082 H2070 0.930 . S
C2082 C2083 1.399 . S
C2082 C2087 1.399 . S
C2083 C2082 1.399 . S
C2083 C2084 1.376 . S
C2084 H2071 0.930 . S
C2084 C2083 1.376 . S
C2084 C2085 1.388 . S
C2085 H2072 0.930 . S
C2085 C2084 1.388 . S
C2085 C2086 1.390 . S
C2086 C2085 1.390 . S
C2086 C2087 1.394 . S
C2086 C2092 1.465 . S
C2087 C2082 1.399 . S
C2087 C2086 1.394 . S
C2087 C2088 1.516 . S
C2088 C2087 1.516 . S
C2088 C2089 1.502 . S
C2088 C2090 1.561 1_554 S
C2088 C2091 1.526 . S
C2089 H2073 0.959 . S
C2089 H2074 0.959 1_554 S
C2089 H2075 0.961 . S
C2089 C2088 1.502 . S
C2090 H2076 0.960 . S
C2090 H2077 0.961 . S
C2090 H2078 0.959 . S
C2090 C2088 1.561 1_556 S
C2091 C2088 1.526 . S
C2091 C2092 1.396 . S
C2091 C2096 1.390 1_554 S
C2092 C2086 1.465 . S
C2092 C2091 1.396 . S
C2092 C2093 1.399 . S
C2093 H2079 0.929 . S
C2093 C2092 1.399 . S
C2093 C2094 1.385 . S
C2094 H2080 0.931 . S
C2094 C2093 1.385 . S
C2094 C2095 1.389 1_554 S
C2095 C2094 1.389 1_556 S
C2095 C2096 1.387 . S
C2096 H2081 0.930 . S
C2096 C2091 1.390 1_556 S
C2096 C2095 1.387 . S
H2097 C2109 0.930 . S
H2098 C2111 0.930 . S
H2099 C2112 0.930 . S
H2100 C2116 0.959 . S
H2101 C2116 0.959 . S
H2102 C2116 0.961 . S
H2103 C2117 0.960 . S
H2104 C2117 0.961 . S
H2105 C2117 0.959 . S
H2106 C2120 0.929 . S
H2107 C2121 0.931 . S
H2108 C2123 0.929 . S
C2109 H2097 0.930 . S
C2109 C2110 1.399 . S
C2109 C2114 1.399 . S
C2110 C2109 1.399 . S
C2110 C2111 1.376 . S
C2111 H2098 0.930 . S
C2111 C2110 1.376 . S
C2111 C2112 1.388 . S
C2112 H2099 0.930 . S
C2112 C2111 1.388 . S
C2112 C2113 1.390 . S
C2113 C2112 1.390 . S
C2113 C2114 1.394 . S
C2113 C2119 1.465 . S
C2114 C2109 1.399 . S
C2114 C2113 1.394 . S
C2114 C2115 1.516 . S
C2115 C2114 1.516 . S
C2115 C2116 1.502 . S
C2115 C2117 1.561 . S
C2115 C2118 1.526 . S
C2116 H2100 0.959 . S
C2116 H2101 0.959 . S
C2116 H2102 0.961 . S
C2116 C2115 1.502 . S
C2117 H2103 0.960 . S
C2117 H2104 0.961 . S
C2117 H2105 0.959 . S
C2117 C2115 1.561 . S
C2118 C2115 1.526 . S
C2118 C2119 1.396 . S
C2118 C2123 1.362 1_554 S
C2119 C2113 1.465 . S
C2119 C2118 1.396 . S
C2119 C2120 1.399 1_554 S
C2120 H2106 0.929 . S
C2120 C2119 1.399 1_556 S
C2120 C2121 1.385 . S
C2121 H2107 0.931 . S
C2121 C2120 1.385 . S
C2121 C2122 1.389 . S
C2122 C2121 1.389 . S
C2122 C2123 1.416 . S
C2123 H2108 0.929 . S
C2123 C2118 1.362 1_556 S
C2123 C2122 1.416 . S
H2124 C2136 0.930 . S
H2125 C2138 0.930 . S
H2126 C2139 0.930 . S
H2127 C2143 0.959 . S
H2128 C2143 0.990 . S
H2129 C2143 0.961 . S
H2130 C2144 0.960 . S
H2131 C2144 0.961 . S
H2132 C2144 0.959 . S
H2133 C2147 0.929 . S
H2134 C2148 0.931 . S
H2135 C2150 0.930 . S
C2136 H2124 0.930 . S
C2136 C2137 1.399 . S
C2136 C2141 1.399 . S
C2137 C2136 1.399 . S
C2137 C2138 1.376 . S
C2138 H2125 0.930 . S
C2138 C2137 1.376 . S
C2138 C2139 1.388 . S
C2139 H2126 0.930 . S
C2139 C2138 1.388 . S
C2139 C2140 1.390 . S
C2140 C2139 1.390 . S
C2140 C2141 1.394 . S
C2140 C2146 1.465 . S
C2141 C2136 1.399 . S
C2141 C2140 1.394 . S
C2141 C2142 1.516 . S
C2142 C2141 1.516 . S
C2142 C2143 1.502 . S
C2142 C2144 1.561 1_554 S
C2142 C2145 1.526 . S
C2143 H2127 0.959 . S
C2143 H2128 0.990 . S
C2143 H2129 0.961 . S
C2143 C2142 1.502 . S
C2144 H2130 0.960 . S
C2144 H2131 0.961 . S
C2144 H2132 0.959 . S
C2144 C2142 1.561 1_556 S
C2145 C2142 1.526 . S
C2145 C2146 1.396 . S
C2145 C2150 1.390 1_554 S
C2146 C2140 1.465 . S
C2146 C2145 1.396 . S
C2146 C2147 1.399 . S
C2147 H2133 0.929 . S
C2147 C2146 1.399 . S
C2147 C2148 1.385 . S
C2148 H2134 0.931 . S
C2148 C2147 1.385 . S
C2148 C2149 1.389 1_554 S
C2149 C2148 1.389 1_556 S
C2149 C2150 1.387 . S
C2150 H2135 0.930 . S
C2150 C2145 1.390 1_556 S
C2150 C2149 1.387 . S
H2151 C2163 0.930 . S
H2152 C2165 0.930 . S
H2153 C2166 0.930 . S
H2154 C2170 0.959 . S
H2155 C2170 0.959 . S
H2156 C2170 0.961 . S
H2157 C2171 0.960 . S
H2158 C2171 0.961 . S
H2159 C2171 0.959 . S
H2160 C2174 0.929 . S
H2161 C2175 0.931 . S
H2162 C2177 0.930 . S
C2163 H2151 0.930 . S
C2163 C2164 1.399 . S
C2163 C2168 1.399 . S
C2164 C2163 1.399 . S
C2164 C2165 1.376 . S
C2165 H2152 0.930 . S
C2165 C2164 1.376 . S
C2165 C2166 1.388 . S
C2166 H2153 0.930 . S
C2166 C2165 1.388 . S
C2166 C2167 1.390 . S
C2167 C2166 1.390 . S
C2167 C2168 1.394 . S
C2167 C2173 1.465 . S
C2168 C2163 1.399 . S
C2168 C2167 1.394 . S
C2168 C2169 1.516 . S
C2169 C2168 1.516 . S
C2169 C2170 1.502 . S
C2169 C2171 1.561 . S
C2169 C2172 1.526 . S
C2170 H2154 0.959 . S
C2170 H2155 0.959 . S
C2170 H2156 0.961 . S
C2170 C2169 1.502 . S
C2171 H2157 0.960 . S
C2171 H2158 0.961 . S
C2171 H2159 0.959 . S
C2171 C2169 1.561 . S
C2172 C2169 1.526 . S
C2172 C2173 1.396 . S
C2172 C2177 1.390 . S
C2173 C2167 1.465 . S
C2173 C2172 1.396 . S
C2173 C2174 1.399 1_556 S
C2174 H2160 0.929 . S
C2174 C2173 1.399 1_554 S
C2174 C2175 1.385 . S
C2175 H2161 0.931 . S
C2175 C2174 1.385 . S
C2175 C2176 1.389 . S
C2176 C2175 1.389 . S
C2176 C2177 1.387 1_554 S
C2177 H2162 0.930 . S
C2177 C2172 1.390 . S
C2177 C2176 1.387 1_556 S
H2178 C2190 0.930 . S
H2179 C2192 0.930 . S
H2180 C2193 0.930 . S
H2181 C2197 0.959 . S
H2182 C2197 0.959 . S
H2183 C2197 0.961 . S
H2184 C2198 0.960 . S
H2185 C2198 0.961 . S
H2186 C2198 0.959 . S
H2187 C2201 0.929 . S
H2188 C2202 0.931 . S
H2189 C2204 0.930 . S
C2190 H2178 0.930 . S
C2190 C2191 1.399 . S
C2190 C2195 1.399 1_554 S
C2191 C2190 1.399 . S
C2191 C2192 1.376 . S
C2192 H2179 0.930 . S
C2192 C2191 1.376 . S
C2192 C2193 1.388 1_554 S
C2193 H2180 0.930 . S
C2193 C2192 1.388 1_556 S
C2193 C2194 1.390 . S
C2194 C2193 1.390 . S
C2194 C2195 1.394 . S
C2194 C2200 1.465 . S
C2195 C2190 1.399 1_556 S
C2195 C2194 1.394 . S
C2195 C2196 1.516 . S
C2196 C2195 1.516 . S
C2196 C2197 1.502 . S
C2196 C2198 1.561 1_556 S
C2196 C2199 1.526 . S
C2197 H2181 0.959 . S
C2197 H2182 0.959 . S
C2197 H2183 0.961 . S
C2197 C2196 1.502 . S
C2198 H2184 0.960 . S
C2198 H2185 0.961 . S
C2198 H2186 0.959 . S
C2198 C2196 1.561 1_554 S
C2199 C2196 1.526 . S
C2199 C2200 1.396 . S
C2199 C2204 1.390 . S
C2200 C2194 1.465 . S
C2200 C2199 1.396 . S
C2200 C2201 1.399 . S
C2201 H2187 0.929 . S
C2201 C2200 1.399 . S
C2201 C2202 1.385 . S
C2202 H2188 0.931 . S
C2202 C2201 1.385 . S
C2202 C2203 1.389 . S
C2203 C2202 1.389 . S
C2203 C2204 1.387 . S
C2204 H2189 0.930 . S
C2204 C2199 1.390 . S
C2204 C2203 1.387 . S
H2205 C2217 0.930 . S
H2206 C2219 0.930 . S
H2207 C2220 0.930 . S
H2208 C2224 0.959 . S
H2209 C2224 0.959 . S
H2210 C2224 0.961 . S
H2211 C2225 0.960 . S
H2212 C2225 0.985 . S
H2213 C2225 0.959 1_554 S
H2214 C2228 0.929 . S
H2215 C2229 0.931 . S
H2216 C2231 0.930 . S
C2217 H2205 0.930 . S
C2217 C2218 1.399 . S
C2217 C2222 1.399 . S
C2218 C2217 1.399 . S
C2218 C2219 1.376 . S
C2219 H2206 0.930 . S
C2219 C2218 1.376 . S
C2219 C2220 1.388 . S
C2220 H2207 0.930 . S
C2220 C2219 1.388 . S
C2220 C2221 1.390 . S
C2221 C2220 1.390 . S
C2221 C2222 1.394 . S
C2221 C2227 1.465 . S
C2222 C2217 1.399 . S
C2222 C2221 1.394 . S
C2222 C2223 1.516 . S
C2223 C2222 1.516 . S
C2223 C2224 1.502 . S
C2223 C2225 1.561 . S
C2223 C2226 1.526 . S
C2224 H2208 0.959 . S
C2224 H2209 0.959 . S
C2224 H2210 0.961 . S
C2224 C2223 1.502 . S
C2225 H2211 0.960 . S
C2225 H2212 0.985 . S
C2225 H2213 0.959 1_556 S
C2225 C2223 1.561 . S
C2226 C2223 1.526 . S
C2226 C2227 1.396 . S
C2226 C2231 1.390 1_556 S
C2227 C2221 1.465 . S
C2227 C2226 1.396 . S
C2227 C2228 1.399 . S
C2228 H2214 0.929 . S
C2228 C2227 1.399 . S
C2228 C2229 1.385 1_556 S
C2229 H2215 0.931 . S
C2229 C2228 1.385 1_554 S
C2229 C2230 1.389 . S
C2230 C2229 1.389 . S
C2230 C2231 1.387 . S
C2231 H2216 0.930 . S
C2231 C2226 1.390 1_554 S
C2231 C2230 1.387 . S
H2232 C2244 0.930 . S
H2233 C2246 0.930 . S
H2234 C2247 0.930 . S
H2235 C2251 0.959 . S
H2236 C2251 0.959 . S
H2237 C2251 0.961 . S
H2238 C2252 0.960 . S
H2239 C2252 0.961 . S
H2240 C2252 0.959 . S
H2241 C2255 0.929 . S
H2242 C2256 0.931 . S
H2243 C2258 0.930 . S
C2244 H2232 0.930 . S
C2244 C2245 1.399 . S
C2244 C2249 1.399 . S
C2245 C2244 1.399 . S
C2245 C2246 1.376 . S
C2246 H2233 0.930 . S
C2246 C2245 1.376 . S
C2246 C2247 1.388 . S
C2247 H2234 0.930 . S
C2247 C2246 1.388 . S
C2247 C2248 1.390 . S
C2248 C2247 1.390 . S
C2248 C2249 1.394 . S
C2248 C2254 1.465 . S
C2249 C2244 1.399 . S
C2249 C2248 1.394 . S
C2249 C2250 1.516 . S
C2250 C2249 1.516 . S
C2250 C2251 1.502 . S
C2250 C2252 1.561 . S
C2250 C2253 1.526 . S
C2251 H2235 0.959 . S
C2251 H2236 0.959 . S
C2251 H2237 0.961 . S
C2251 C2250 1.502 . S
C2252 H2238 0.960 . S
C2252 H2239 0.961 . S
C2252 H2240 0.959 . S
C2252 C2250 1.561 . S
C2253 C2250 1.526 . S
C2253 C2254 1.396 . S
C2253 C2258 1.390 . S
C2254 C2248 1.465 . S
C2254 C2253 1.396 . S
C2254 C2255 1.399 . S
C2255 H2241 0.929 . S
C2255 C2254 1.399 . S
C2255 C2256 1.385 . S
C2256 H2242 0.931 . S
C2256 C2255 1.385 . S
C2256 C2257 1.389 . S
C2257 C2256 1.389 . S
C2257 C2258 1.387 . S
C2258 H2243 0.930 . S
C2258 C2253 1.390 . S
C2258 C2257 1.387 . S
H2259 C2271 0.930 . S
H2260 C2273 0.930 . S
H2261 C2274 0.930 . S
H2262 C2278 0.959 . S
H2263 C2278 0.959 . S
H2264 C2278 0.961 . S
H2265 C2279 0.960 . S
H2266 C2279 0.961 . S
H2267 C2279 0.959 . S
H2268 C2282 0.929 . S
H2269 C2283 0.931 . S
H2270 C2285 0.930 . S
C2271 H2259 0.930 . S
C2271 C2272 1.399 . S
C2271 C2276 1.399 . S
C2272 C2271 1.399 . S
C2272 C2273 1.376 . S
C2273 H2260 0.930 . S
C2273 C2272 1.376 . S
C2273 C2274 1.388 . S
C2274 H2261 0.930 . S
C2274 C2273 1.388 . S
C2274 C2275 1.390 . S
C2275 C2274 1.390 . S
C2275 C2276 1.394 . S
C2275 C2281 1.465 . S
C2276 C2271 1.399 . S
C2276 C2275 1.394 . S
C2276 C2277 1.516 . S
C2277 C2276 1.516 . S
C2277 C2278 1.502 . S
C2277 C2279 1.561 . S
C2277 C2280 1.526 . S
C2278 H2262 0.959 . S
C2278 H2263 0.959 . S
C2278 H2264 0.961 . S
C2278 C2277 1.502 . S
C2279 H2265 0.960 . S
C2279 H2266 0.961 . S
C2279 H2267 0.959 . S
C2279 C2277 1.561 . S
C2280 C2277 1.526 . S
C2280 C2281 1.396 . S
C2280 C2285 1.390 . S
C2281 C2275 1.465 . S
C2281 C2280 1.396 . S
C2281 C2282 1.399 . S
C2282 H2268 0.929 . S
C2282 C2281 1.399 . S
C2282 C2283 1.385 . S
C2283 H2269 0.931 . S
C2283 C2282 1.385 . S
C2283 C2284 1.389 . S
C2284 C2283 1.389 . S
C2284 C2285 1.387 . S
C2285 H2270 0.930 . S
C2285 C2280 1.390 . S
C2285 C2284 1.387 . S
H2286 C2298 0.930 . S
H2287 C2300 0.930 . S
H2288 C2301 0.930 . S
H2289 C2305 0.959 . S
H2290 C2305 0.959 . S
H2291 C2305 0.961 . S
H2292 C2306 0.960 . S
H2293 C2306 0.961 . S
H2294 C2306 0.959 . S
H2295 C2309 0.929 . S
H2296 C2310 0.931 . S
H2297 C2312 0.930 . S
C2298 H2286 0.930 . S
C2298 C2299 1.399 . S
C2298 C2303 1.399 . S
C2299 C2298 1.399 . S
C2299 C2300 1.376 . S
C2300 H2287 0.930 . S
C2300 C2299 1.376 . S
C2300 C2301 1.388 . S
C2301 H2288 0.930 . S
C2301 C2300 1.388 . S
C2301 C2302 1.390 . S
C2302 C2301 1.390 . S
C2302 C2303 1.394 . S
C2302 C2308 1.465 . S
C2303 C2298 1.399 . S
C2303 C2302 1.394 . S
C2303 C2304 1.516 . S
C2304 C2303 1.516 . S
C2304 C2305 1.502 . S
C2304 C2306 1.561 . S
C2304 C2307 1.526 . S
C2305 H2289 0.959 . S
C2305 H2290 0.959 . S
C2305 H2291 0.961 . S
C2305 C2304 1.502 . S
C2306 H2292 0.960 . S
C2306 H2293 0.961 . S
C2306 H2294 0.959 . S
C2306 C2304 1.561 . S
C2307 C2304 1.526 . S
C2307 C2308 1.396 . S
C2307 C2312 1.390 . S
C2308 C2302 1.465 . S
C2308 C2307 1.396 . S
C2308 C2309 1.399 . S
C2309 H2295 0.929 . S
C2309 C2308 1.399 . S
C2309 C2310 1.385 . S
C2310 H2296 0.931 . S
C2310 C2309 1.385 . S
C2310 C2311 1.389 . S
C2311 C2310 1.389 . S
C2311 C2312 1.387 . S
C2312 H2297 0.930 . S
C2312 C2307 1.390 . S
C2312 C2311 1.387 . S
H2313 C2325 0.930 . S
H2314 C2327 0.930 . S
H2315 C2328 0.930 . S
H2316 C2332 0.959 . S
H2317 C2332 0.959 . S
H2318 C2332 0.961 . S
H2319 C2333 0.960 . S
H2320 C2333 0.961 . S
H2321 C2333 0.959 . S
H2322 C2336 0.929 . S
H2323 C2337 0.931 . S
H2324 C2339 0.930 . S
C2325 H2313 0.930 . S
C2325 C2326 1.399 . S
C2325 C2330 1.399 . S
C2326 C2325 1.399 . S
C2326 C2327 1.376 . S
C2327 H2314 0.930 . S
C2327 C2326 1.376 . S
C2327 C2328 1.388 . S
C2328 H2315 0.930 . S
C2328 C2327 1.388 . S
C2328 C2329 1.390 . S
C2329 C2328 1.390 . S
C2329 C2330 1.394 . S
C2329 C2335 1.465 . S
C2330 C2325 1.399 . S
C2330 C2329 1.394 . S
C2330 C2331 1.516 . S
C2331 C2330 1.516 . S
C2331 C2332 1.502 . S
C2331 C2333 1.561 . S
C2331 C2334 1.526 . S
C2332 H2316 0.959 . S
C2332 H2317 0.959 . S
C2332 H2318 0.961 . S
C2332 C2331 1.502 . S
C2333 H2319 0.960 . S
C2333 H2320 0.961 . S
C2333 H2321 0.959 . S
C2333 C2331 1.561 . S
C2334 C2331 1.526 . S
C2334 C2335 1.396 . S
C2334 C2339 1.390 . S
C2335 C2329 1.465 . S
C2335 C2334 1.396 . S
C2335 C2336 1.399 . S
C2336 H2322 0.929 . S
C2336 C2335 1.399 . S
C2336 C2337 1.385 . S
C2337 H2323 0.931 . S
C2337 C2336 1.385 . S
C2337 C2338 1.389 . S
C2338 C2337 1.389 . S
C2338 C2339 1.387 . S
C2339 H2324 0.930 . S
C2339 C2334 1.390 . S
C2339 C2338 1.387 . S
H2340 C2352 0.930 . S
H2341 C2354 0.930 . S
H2342 C2355 0.930 . S
H2343 C2359 0.959 . S
H2344 C2359 0.959 . S
H2345 C2359 0.961 . S
H2346 C2360 0.960 . S
H2347 C2360 0.961 . S
H2348 C2360 0.959 . S
H2349 C2363 0.929 . S
H2350 C2364 0.931 . S
H2351 C2366 0.930 . S
C2352 H2340 0.930 . S
C2352 C2353 1.399 . S
C2352 C2357 1.399 . S
C2353 C2352 1.399 . S
C2353 C2354 1.376 . S
C2354 H2341 0.930 . S
C2354 C2353 1.376 . S
C2354 C2355 1.388 . S
C2355 H2342 0.930 . S
C2355 C2354 1.388 . S
C2355 C2356 1.390 . S
C2356 C2355 1.390 . S
C2356 C2357 1.394 . S
C2356 C2362 1.465 . S
C2357 C2352 1.399 . S
C2357 C2356 1.394 . S
C2357 C2358 1.516 . S
C2358 C2357 1.516 . S
C2358 C2359 1.502 . S
C2358 C2360 1.561 1_545 S
C2358 C2361 1.526 . S
C2359 H2343 0.959 . S
C2359 H2344 0.959 . S
C2359 H2345 0.961 . S
C2359 C2358 1.502 . S
C2360 H2346 0.960 . S
C2360 H2347 0.961 . S
C2360 H2348 0.959 . S
C2360 C2358 1.561 1_565 S
C2361 C2358 1.526 . S
C2361 C2362 1.396 . S
C2361 C2366 1.390 . S
C2362 C2356 1.465 . S
C2362 C2361 1.396 . S
C2362 C2363 1.399 . S
C2363 H2349 0.929 . S
C2363 C2362 1.399 . S
C2363 C2364 1.386 1_545 S
C2364 H2350 0.931 . S
C2364 C2363 1.386 1_565 S
C2364 C2365 1.405 . S
C2365 C2364 1.405 . S
C2365 C2366 1.383 1_565 S
C2366 H2351 0.930 . S
C2366 C2361 1.390 . S
C2366 C2365 1.383 1_545 S
H2367 C2379 0.930 . S
H2368 C2381 0.930 1_455 S
H2369 C2382 0.930 . S
H2370 C2386 0.959 . S
H2371 C2386 0.959 . S
H2372 C2386 0.961 . S
H2373 C2387 0.960 . S
H2374 C2387 0.961 . S
H2375 C2387 0.959 . S
H2376 C2390 0.929 . S
H2377 C2391 0.931 . S
H2378 C2393 0.930 . S
C2379 H2367 0.930 . S
C2379 C2380 1.399 . S
C2379 C2384 1.399 . S
C2380 C2379 1.399 . S
C2380 C2381 1.376 . S
C2381 H2368 0.930 1_655 S
C2381 C2380 1.376 . S
C2381 C2382 1.388 1_655 S
C2382 H2369 0.930 . S
C2382 C2381 1.388 1_455 S
C2382 C2383 1.390 1_455 S
C2383 C2382 1.390 1_655 S
C2383 C2384 1.394 . S
C2383 C2389 1.486 . S
C2384 C2379 1.399 . S
C2384 C2383 1.394 . S
C2384 C2385 1.516 . S
C2385 C2384 1.516 . S
C2385 C2386 1.502 . S
C2385 C2387 1.561 . S
C2385 C2388 1.526 . S
C2386 H2370 0.959 . S
C2386 H2371 0.959 . S
C2386 H2372 0.961 . S
C2386 C2385 1.502 . S
C2387 H2373 0.960 . S
C2387 H2374 0.961 . S
C2387 H2375 0.959 . S
C2387 C2385 1.561 . S
C2388 C2385 1.526 . S
C2388 C2389 1.404 . S
C2388 C2393 1.390 . S
C2389 C2383 1.486 . S
C2389 C2388 1.404 . S
C2389 C2390 1.375 1_655 S
C2390 H2376 0.929 . S
C2390 C2389 1.375 1_455 S
C2390 C2391 1.385 . S
C2391 H2377 0.931 . S
C2391 C2390 1.385 . S
C2391 C2392 1.389 . S
C2392 C2391 1.389 . S
C2392 C2393 1.387 1_455 S
C2393 H2378 0.930 . S
C2393 C2388 1.390 . S
C2393 C2392 1.387 1_655 S
H2394 C2406 0.930 . S
H2395 C2408 0.930 . S
H2396 C2409 0.930 . S
H2397 C2413 0.959 . S
H2398 C2413 0.959 . S
H2399 C2413 0.961 . S
H2400 C2414 0.960 . S
H2401 C2414 0.961 . S
H2402 C2414 0.959 . S
H2403 C2417 0.929 . S
H2404 C2418 0.931 . S
H2405 C2420 0.930 . S
C2406 H2394 0.930 . S
C2406 C2407 1.399 . S
C2406 C2411 1.399 . S
C2407 C2406 1.399 . S
C2407 C2408 1.376 . S
C2408 H2395 0.930 . S
C2408 C2407 1.376 . S
C2408 C2409 1.388 . S
C2409 H2396 0.930 . S
C2409 C2408 1.388 . S
C2409 C2410 1.390 . S
C2410 C2409 1.390 . S
C2410 C2411 1.394 . S
C2410 C2416 1.465 . S
C2411 C2406 1.399 . S
C2411 C2410 1.394 . S
C2411 C2412 1.516 . S
C2412 C2411 1.516 . S
C2412 C2413 1.502 . S
C2412 C2414 1.561 . S
C2412 C2415 1.526 . S
C2413 H2397 0.959 . S
C2413 H2398 0.959 . S
C2413 H2399 0.961 . S
C2413 C2412 1.502 . S
C2414 H2400 0.960 . S
C2414 H2401 0.961 . S
C2414 H2402 0.959 . S
C2414 C2412 1.561 . S
C2415 C2412 1.526 . S
C2415 C2416 1.396 . S
C2415 C2420 1.390 . S
C2416 C2410 1.465 . S
C2416 C2415 1.396 . S
C2416 C2417 1.399 . S
C2417 H2403 0.929 . S
C2417 C2416 1.399 . S
C2417 C2418 1.385 . S
C2418 H2404 0.931 . S
C2418 C2417 1.385 . S
C2418 C2419 1.389 . S
C2419 C2418 1.389 . S
C2419 C2420 1.387 . S
C2420 H2405 0.930 . S
C2420 C2415 1.390 . S
C2420 C2419 1.387 . S
H2421 C2433 0.930 . S
H2422 C2435 0.930 . S
H2423 C2436 0.930 . S
H2424 C2440 0.959 . S
H2425 C2440 0.959 . S
H2426 C2440 0.961 . S
H2427 C2441 0.960 . S
H2428 C2441 0.961 . S
H2429 C2441 0.959 . S
H2430 C2444 0.929 . S
H2431 C2445 0.931 . S
H2432 C2447 0.930 1_545 S
C2433 H2421 0.930 . S
C2433 C2434 1.399 1_545 S
C2433 C2438 1.399 . S
C2434 C2433 1.399 1_565 S
C2434 C2435 1.376 . S
C2435 H2422 0.930 . S
C2435 C2434 1.376 . S
C2435 C2436 1.388 . S
C2436 H2423 0.930 . S
C2436 C2435 1.388 . S
C2436 C2437 1.390 . S
C2437 C2436 1.390 . S
C2437 C2438 1.394 1_565 S
C2437 C2443 1.465 . S
C2438 C2433 1.399 . S
C2438 C2437 1.394 1_545 S
C2438 C2439 1.516 . S
C2439 C2438 1.516 . S
C2439 C2440 1.502 . S
C2439 C2441 1.561 . S
C2439 C2442 1.526 1_545 S
C2440 H2424 0.959 . S
C2440 H2425 0.959 . S
C2440 H2426 0.961 . S
C2440 C2439 1.502 . S
C2441 H2427 0.960 . S
C2441 H2428 0.961 . S
C2441 H2429 0.959 . S
C2441 C2439 1.561 . S
C2442 C2439 1.526 1_565 S
C2442 C2443 1.396 . S
C2442 C2447 1.390 . S
C2443 C2437 1.465 . S
C2443 C2442 1.396 . S
C2443 C2444 1.399 . S
C2444 H2430 0.929 . S
C2444 C2443 1.399 . S
C2444 C2445 1.385 . S
C2445 H2431 0.931 . S
C2445 C2444 1.385 . S
C2445 C2446 1.389 . S
C2446 C2445 1.389 . S
C2446 C2447 1.387 . S
C2447 H2432 0.930 1_565 S
C2447 C2442 1.390 . S
C2447 C2446 1.387 . S
H2448 C2460 0.930 . S
H2449 C2462 0.930 . S
H2450 C2463 0.930 . S
H2451 C2467 0.959 . S
H2452 C2467 0.959 . S
H2453 C2467 0.961 . S
H2454 C2468 0.960 . S
H2455 C2468 0.961 . S
H2456 C2468 0.959 . S
H2457 C2471 0.929 . S
H2458 C2472 0.931 . S
H2459 C2474 0.930 1_655 S
C2460 H2448 0.930 . S
C2460 C2461 1.399 . S
C2460 C2465 1.399 . S
C2461 C2460 1.399 . S
C2461 C2462 1.376 . S
C2462 H2449 0.930 . S
C2462 C2461 1.376 . S
C2462 C2463 1.388 . S
C2463 H2450 0.930 . S
C2463 C2462 1.388 . S
C2463 C2464 1.390 . S
C2464 C2463 1.390 . S
C2464 C2465 1.394 . S
C2464 C2470 1.465 . S
C2465 C2460 1.399 . S
C2465 C2464 1.394 . S
C2465 C2466 1.516 . S
C2466 C2465 1.516 . S
C2466 C2467 1.502 1_455 S
C2466 C2468 1.561 . S
C2466 C2469 1.526 . S
C2467 H2451 0.959 . S
C2467 H2452 0.959 . S
C2467 H2453 0.961 . S
C2467 C2466 1.502 1_655 S
C2468 H2454 0.960 . S
C2468 H2455 0.961 . S
C2468 H2456 0.959 . S
C2468 C2466 1.561 . S
C2469 C2466 1.526 . S
C2469 C2470 1.396 . S
C2469 C2474 1.390 . S
C2470 C2464 1.465 . S
C2470 C2469 1.396 . S
C2470 C2471 1.399 . S
C2471 H2457 0.929 . S
C2471 C2470 1.399 . S
C2471 C2472 1.385 . S
C2472 H2458 0.931 . S
C2472 C2471 1.385 . S
C2472 C2473 1.390 . S
C2473 C2472 1.390 . S
C2473 C2474 1.387 . S
C2474 H2459 0.930 1_455 S
C2474 C2469 1.390 . S
C2474 C2473 1.387 . S
H2475 C2487 0.930 . S
H2476 C2489 0.930 . S
H2477 C2490 0.930 . S
H2478 C2494 0.959 . S
H2479 C2494 0.959 . S
H2480 C2494 0.961 . S
H2481 C2495 0.960 . S
H2482 C2495 0.961 . S
H2483 C2495 0.959 . S
H2484 C2498 0.929 . S
H2485 C2499 0.931 . S
H2486 C2501 0.930 . S
C2487 H2475 0.930 . S
C2487 C2488 1.399 . S
C2487 C2492 1.399 . S
C2488 C2487 1.399 . S
C2488 C2489 1.376 . S
C2489 H2476 0.930 . S
C2489 C2488 1.376 . S
C2489 C2490 1.388 . S
C2490 H2477 0.930 . S
C2490 C2489 1.388 . S
C2490 C2491 1.390 . S
C2491 C2490 1.390 . S
C2491 C2492 1.394 . S
C2491 C2497 1.465 . S
C2492 C2487 1.399 . S
C2492 C2491 1.394 . S
C2492 C2493 1.516 . S
C2493 C2492 1.516 . S
C2493 C2494 1.502 . S
C2493 C2495 1.561 . S
C2493 C2496 1.526 . S
C2494 H2478 0.959 . S
C2494 H2479 0.959 . S
C2494 H2480 0.961 . S
C2494 C2493 1.502 . S
C2495 H2481 0.960 . S
C2495 H2482 0.961 . S
C2495 H2483 0.959 . S
C2495 C2493 1.561 . S
C2496 C2493 1.526 . S
C2496 C2497 1.396 . S
C2496 C2501 1.390 . S
C2497 C2491 1.465 . S
C2497 C2496 1.396 . S
C2497 C2498 1.399 . S
C2498 H2484 0.929 . S
C2498 C2497 1.399 . S
C2498 C2499 1.385 . S
C2499 H2485 0.931 . S
C2499 C2498 1.385 . S
C2499 C2500 1.389 . S
C2500 C2499 1.389 . S
C2500 C2501 1.387 . S
C2501 H2486 0.930 . S
C2501 C2496 1.390 . S
C2501 C2500 1.387 . S
H2502 C2514 0.930 . S
H2503 C2516 0.930 . S
H2504 C2517 0.930 . S
H2505 C2521 0.959 . S
H2506 C2521 0.959 . S
H2507 C2521 0.961 . S
H2508 C2522 0.960 . S
H2509 C2522 0.961 . S
H2510 C2522 0.959 . S
H2511 C2525 0.929 . S
H2512 C2526 0.931 . S
H2513 C2528 0.930 . S
C2514 H2502 0.930 . S
C2514 C2515 1.399 . S
C2514 C2519 1.399 . S
C2515 C2514 1.399 . S
C2515 C2516 1.376 . S
C2516 H2503 0.930 . S
C2516 C2515 1.376 . S
C2516 C2517 1.388 . S
C2517 H2504 0.930 . S
C2517 C2516 1.388 . S
C2517 C2518 1.390 . S
C2518 C2517 1.390 . S
C2518 C2519 1.394 . S
C2518 C2524 1.465 . S
C2519 C2514 1.399 . S
C2519 C2518 1.394 . S
C2519 C2520 1.516 . S
C2520 C2519 1.516 . S
C2520 C2521 1.502 . S
C2520 C2522 1.561 . S
C2520 C2523 1.526 . S
C2521 H2505 0.959 . S
C2521 H2506 0.959 . S
C2521 H2507 0.961 . S
C2521 C2520 1.502 . S
C2522 H2508 0.960 . S
C2522 H2509 0.961 . S
C2522 H2510 0.959 . S
C2522 C2520 1.561 . S
C2523 C2520 1.526 . S
C2523 C2524 1.396 . S
C2523 C2528 1.390 . S
C2524 C2518 1.465 . S
C2524 C2523 1.396 . S
C2524 C2525 1.399 . S
C2525 H2511 0.929 . S
C2525 C2524 1.399 . S
C2525 C2526 1.385 . S
C2526 H2512 0.931 . S
C2526 C2525 1.385 . S
C2526 C2527 1.389 . S
C2527 C2526 1.389 . S
C2527 C2528 1.387 . S
C2528 H2513 0.930 . S
C2528 C2523 1.390 . S
C2528 C2527 1.387 . S
H2529 C2541 0.930 . S
H2530 C2543 0.930 . S
H2531 C2544 0.930 . S
H2532 C2548 0.959 . S
H2533 C2548 0.959 . S
H2534 C2548 0.961 . S
H2535 C2549 0.960 . S
H2536 C2549 0.961 . S
H2537 C2549 0.959 . S
H2538 C2552 0.929 . S
H2539 C2553 0.931 . S
H2540 C2555 0.930 . S
C2541 H2529 0.930 . S
C2541 C2542 1.399 . S
C2541 C2546 1.399 . S
C2542 C2541 1.399 . S
C2542 C2543 1.376 . S
C2543 H2530 0.930 . S
C2543 C2542 1.376 . S
C2543 C2544 1.388 . S
C2544 H2531 0.930 . S
C2544 C2543 1.388 . S
C2544 C2545 1.390 . S
C2545 C2544 1.390 . S
C2545 C2546 1.394 . S
C2545 C2551 1.465 . S
C2546 C2541 1.399 . S
C2546 C2545 1.394 . S
C2546 C2547 1.516 . S
C2547 C2546 1.516 . S
C2547 C2548 1.502 . S
C2547 C2549 1.561 . S
C2547 C2550 1.526 . S
C2548 H2532 0.959 . S
C2548 H2533 0.959 . S
C2548 H2534 0.961 . S
C2548 C2547 1.502 . S
C2549 H2535 0.960 . S
C2549 H2536 0.961 . S
C2549 H2537 0.959 . S
C2549 C2547 1.561 . S
C2550 C2547 1.526 . S
C2550 C2551 1.396 . S
C2550 C2555 1.390 . S
C2551 C2545 1.465 . S
C2551 C2550 1.396 . S
C2551 C2552 1.399 . S
C2552 H2538 0.929 . S
C2552 C2551 1.399 . S
C2552 C2553 1.385 . S
C2553 H2539 0.931 . S
C2553 C2552 1.385 . S
C2553 C2554 1.389 . S
C2554 C2553 1.389 . S
C2554 C2555 1.387 . S
C2555 H2540 0.930 . S
C2555 C2550 1.390 . S
C2555 C2554 1.387 . S
C1597 C49 1.914 . S
C1609 C284 1.965 . S
C1624 C108 1.960 . S
C1636 C401 1.999 . S
C1651 C489 1.947 . S
C1663 C233 2.000 . S
C1678 C577 1.899 . S
C1690 C821 1.944 . S
C1705 C636 1.972 . S
C1717 C929 1.932 . S
C1732 C1017 1.906 . S
C1744 C761 1.932 . S
C1759 C1340 1.907 . S
C1771 C1105 1.944 . S
C1786 C1465 1.963 . S
C1798 C1173 1.949 . S
C1813 C1553 1.941 . S
C1825 C1281 1.895 . S
C1840 C29 2.533 . S
C1852 C849 2.573 . S
C1867 C145 2.519 . S
C1879 C900 2.586 . S
C1894 C1025 2.655 . S
C1906 C205 2.609 . S
C1921 C313 2.521 . S
C1933 C1085 2.581 . S
C1948 C372 2.525 . S
C1960 C1193 2.586 . S
C1975 C497 2.600 . S
C1987 C1252 2.650 . S
C2002 C557 2.572 . S
C2014 C1369 2.630 1_455 S
C2029 C673 2.583 . S
C2041 C1437 2.647 . S
C2056 C1545 2.547 1_565 S
C2068 C733 2.491 . S
C2083 C57 0.400 . S
C2095 C381 0.251 . S
C2110 C117 0.434 . S
C2122 C460 0.123 . S
C2137 C196 0.441 . S
C2149 C321 0.264 . S
C2164 C293 0.304 . S
C2176 C137 0.236 . S
C2191 C225 0.298 . S
C2203 C409 0.437 . S
C2218 C469 0.352 . S
C2230 C20 0.127 . S
C2245 C585 0.357 . S
C2257 C909 0.256 . S
C2272 C988 0.146 . S
C2284 C645 0.465 . S
C2299 C841 0.246 . S
C2311 C724 0.381 . S
C2326 C665 0.171 . S
C2338 C812 0.331 . S
C2353 C937 0.268 . S
C2365 C753 0.253 1_565 S
C2380 C997 0.358 . S
C2392 C548 0.292 1_455 S
C2407 C1428 0.294 . S
C2419 C1113 0.250 . S
C2434 C1525 0.207 . S
C2446 C1164 0.308 . S
C2461 C1261 0.345 . S
C2473 C1377 0.272 . S
C2488 C1201 0.153 . S
C2500 C1349 0.302 . S
C2515 C1289 0.034 . S
C2527 C1457 0.539 . S
C2542 C1076 0.170 . S
C2554 C1516 0.444 . S
