# Generated by pormake.
# Topology rob, (6)-cn, num edge types: 1
# Building blocks:
#     Node 0, Type 0, BuildingBlock: UKALOJ_clean_sbu_0, # of connection points: 6
#     Node 1, Type 0, BuildingBlock: UKALOJ_clean_sbu_0, # of connection points: 6
#     Node 2, Type 0, BuildingBlock: UKALOJ_clean_sbu_0, # of connection points: 6
#     Node 3, Type 0, BuildingBlock: UKALOJ_clean_sbu_0, # of connection points: 6
#     Edge 4, Type (0, 0), BuildingBlock: AJUNOK_clean_linker_0, # of connection points: 2
#     Edge 5, Type (0, 0), BuildingBlock: AJUNOK_clean_linker_0, # of connection points: 2
#     Edge 6, Type (0, 0), BuildingBlock: AJUNOK_clean_linker_0, # of connection points: 2
#     Edge 7, Type (0, 0), BuildingBlock: AJUNOK_clean_linker_0, # of connection points: 2
#     Edge 8, Type (0, 0), BuildingBlock: AJUNOK_clean_linker_0, # of connection points: 2
#     Edge 9, Type (0, 0), BuildingBlock: AJUNOK_clean_linker_0, # of connection points: 2
#     Edge 10, Type (0, 0), BuildingBlock: AJUNOK_clean_linker_0, # of connection points: 2
#     Edge 11, Type (0, 0), BuildingBlock: AJUNOK_clean_linker_0, # of connection points: 2
#     Edge 12, Type (0, 0), BuildingBlock: AJUNOK_clean_linker_0, # of connection points: 2
#     Edge 13, Type (0, 0), BuildingBlock: AJUNOK_clean_linker_0, # of connection points: 2
#     Edge 14, Type (0, 0), BuildingBlock: AJUNOK_clean_linker_0, # of connection points: 2
#     Edge 15, Type (0, 0), BuildingBlock: AJUNOK_clean_linker_0, # of connection points: 2
# Relax obj value: 0.126
# Max RMSD: 0.181
# Mean RMSD: 0.181
data_MOF--net-rob--node1-UKALOJ_clean_sbu_0--edge1-AJUNOK_clean_linker_0
_symmetry_space_group_name_H-M    P1
_symmetry_Int_Tables_number       1
_symmetry_cell_setting            triclinic
loop_
_symmetry_equiv_pos_as_xyz
'x, y, z'
_cell_length_a     10.954087
_cell_length_b     30.381329
_cell_length_c     17.472289
_cell_angle_alpha  99.617954
_cell_angle_beta   89.821751
_cell_angle_gamma 89.9405
loop_
_atom_site_label
_atom_site_type_symbol
_atom_site_fract_x
_atom_site_fract_y
_atom_site_fract_z
_atom_type_partial_charge
Zn0 Zn 0.25979 0.31741 -0.00143 0.0
O1 O 0.31356 0.30549 0.88101 0.0
C2 C 0.00856 0.29781 0.94233 0.0
Zn3 Zn 0.21309 0.24536 0.99 0.0
C4 C 0.30194 0.26685 0.84064 0.0
O5 O 0.26671 0.23456 0.87262 0.0
C6 C 0.16977 0.29655 0.14765 0.0
O7 O 0.38922 0.23292 0.02571 0.0
O8 O 0.43553 0.30398 0.03763 0.0
N9 N 0.17432 0.1785 0.9788 0.0
C10 C 0.0928 0.15462 0.01288 0.0
C11 C 0.1919 0.10861 0.92975 0.0
N12 N 0.23558 0.14976 0.92722 0.0
N13 N 0.10229 0.11083 0.98299 0.0
C14 C 0.38524 0.40777 0.98001 0.0
C15 C 0.25899 0.45463 0.04087 0.0
N16 N 0.29618 0.38418 0.008 0.0
N17 N 0.21827 0.41342 0.04599 0.0
N18 N 0.36381 0.45195 0.0001 0.0
H19 H 0.5099 0.35374 0.94 0.0
H20 H 0.5701 0.40911 0.93766 0.0
H21 H 0.45941 0.38512 0.86729 0.0
C22 C 0.48772 0.38767 0.92881 0.0
C23 C 0.00252 0.17421 0.07366 0.0
H24 H 0.96965 0.20701 0.0621 0.0
H25 H 0.04791 0.17943 0.13115 0.0
H26 H 0.92381 0.15146 0.07571 0.0
O27 O 0.16215 0.25749 0.10813 0.0
O28 O 0.20331 0.32876 0.11492 0.0
C29 C 0.46362 0.26458 0.0471 0.0
O30 O 0.0844 0.32931 0.96072 0.0
O31 O 0.0363 0.25881 0.95401 0.0
Zn32 Zn 0.76607 0.81608 0.00985 0.0
O33 O 0.93963 0.79814 0.9621 0.0
C34 C 0.6717 0.79892 0.85177 0.0
Zn35 Zn 0.71215 0.74443 0.97741 0.0
C36 C 0.96312 0.75864 0.9282 0.0
O37 O 0.88435 0.7282 0.92989 0.0
C38 C 0.51529 0.80152 0.05962 0.0
O39 O 0.76812 0.73011 0.08549 0.0
O40 O 0.81791 0.8008 0.11825 0.0
N41 N 0.65787 0.67941 0.94201 0.0
C42 C 0.61251 0.64812 0.98075 0.0
C43 C 0.62488 0.61852 0.86142 0.0
N44 N 0.66552 0.66084 0.86792 0.0
N45 N 0.59245 0.60957 0.93156 0.0
C46 C 0.86696 0.91187 0.00423 0.0
C47 C 0.83691 0.94471 0.12042 0.0
N48 N 0.81837 0.88151 0.04385 0.0
N49 N 0.7998 0.90207 0.11596 0.0
N50 N 0.87807 0.95197 0.05087 0.0
H51 H 0.93904 0.86655 0.90588 0.0
H52 H -0.01547 0.92391 0.91022 0.0
H53 H 0.83145 0.90628 0.88258 0.0
C54 C 0.90874 0.90157 0.92125 0.0
C55 C 0.58197 0.65594 0.06566 0.0
H56 H 0.66345 0.64846 0.09877 0.0
H57 H 0.50662 0.63378 0.07814 0.0
H58 H 0.55566 0.69116 0.08587 0.0
O59 O 0.53897 0.762 0.02578 0.0
O60 O 0.59344 0.83206 0.05711 0.0
C61 C 0.80589 0.76209 0.13594 0.0
O62 O 0.71087 0.83055 0.90223 0.0
O63 O 0.6594 0.76013 0.86902 0.0
Zn64 Zn 0.2077 0.81752 0.51174 0.0
O65 O 0.25639 0.83237 0.40164 0.0
C66 C 0.01641 0.75628 0.42835 0.0
Zn67 Zn 0.26433 0.74587 0.47829 0.0
C68 C 0.29724 0.80055 0.35174 0.0
O69 O 0.31393 0.76247 0.37069 0.0
C70 C 0.17709 0.76288 0.63797 0.0
O71 O 0.43263 0.76732 0.52785 0.0
O72 O 0.37776 0.83761 0.55872 0.0
N73 N 0.33585 0.68255 0.44209 0.0
C74 C 0.35525 0.64685 0.47743 0.0
C75 C 0.42677 0.63038 0.36252 0.0
N76 N 0.38014 0.67197 0.37065 0.0
N77 N 0.41253 0.61397 0.42884 0.0
C78 C 0.13196 0.91851 0.51947 0.0
C79 C 0.01889 0.92872 0.62039 0.0
N80 N 0.13366 0.88016 0.54884 0.0
N81 N 0.06375 0.88685 0.61184 0.0
N82 N 0.06061 0.94924 0.56309 0.0
H83 H 0.2978 0.91346 0.45377 0.0
H84 H 0.20969 0.96289 0.44763 0.0
H85 H 0.15936 0.90949 0.39676 0.0
C86 C 0.20399 0.92673 0.4504 0.0
C87 C 0.31126 0.64293 0.55739 0.0
H88 H 0.21156 0.64925 0.56128 0.0
H89 H 0.35864 0.66792 0.60077 0.0
H90 H 0.32713 0.60922 0.57165 0.0
O91 O 0.21156 0.7309 0.58643 0.0
O92 O 0.16287 0.80141 0.62061 0.0
C93 C 0.45565 0.80687 0.56167 0.0
O94 O 0.03757 0.79562 0.46391 0.0
O95 O 0.09617 0.72604 0.42956 0.0
Zn96 Zn 0.71151 0.31747 0.50017 0.0
O97 O 0.88233 0.33792 0.46556 0.0
C98 C 0.6761 0.26807 0.34055 0.0
Zn99 Zn 0.76174 0.24571 0.48932 0.0
C100 C 0.9586 0.30664 0.44484 0.0
O101 O 0.93205 0.26734 0.45513 0.0
C102 C 0.5142 0.25661 0.54455 0.0
O103 O 0.81179 0.25694 0.60653 0.0
O104 O 0.76351 0.32785 0.6179 0.0
N105 N 0.83125 0.18224 0.47392 0.0
C106 C 0.84257 0.15095 0.51993 0.0
C107 C 0.92976 0.12561 0.41232 0.0
N108 N 0.88559 0.16634 0.40721 0.0
N109 N 0.90523 0.11525 0.48274 0.0
C110 C 0.63043 0.4121 0.46987 0.0
C111 C 0.55456 0.4394 0.58013 0.0
N112 N 0.64373 0.38116 0.51632 0.0
N113 N 0.59639 0.39827 0.5847 0.0
N114 N 0.57391 0.44876 0.50846 0.0
H115 H 0.69761 0.44021 0.37221 0.0
H116 H 0.60827 0.39002 0.34831 0.0
H117 H 0.76177 0.38656 0.38232 0.0
C118 C 0.67795 0.40717 0.38855 0.0
C119 C 0.7876 0.15475 0.59932 0.0
H120 H 0.85404 0.1712 0.64255 0.0
H121 H 0.76552 0.1213 0.61312 0.0
H122 H 0.70417 0.17557 0.60407 0.0
O123 O 0.59047 0.22528 0.5238 0.0
O124 O 0.54102 0.29597 0.53476 0.0
C125 C 0.79862 0.29501 0.64855 0.0
O126 O 0.662 0.3062 0.38229 0.0
O127 O 0.70983 0.23516 0.37151 0.0
C128 C 0.43219 0.55227 0.90881 0.0
C129 C 0.53974 0.56864 0.94694 0.0
C130 C 0.37647 0.5133 0.92512 0.0
C131 C 0.4283 0.48906 0.97863 0.0
H132 H 0.3895 0.57045 0.86774 0.0
H133 H 0.29159 0.50223 0.89664 0.0
S134 S 0.71257 0.51632 0.09013 0.0
N135 N 0.69867 0.55668 0.03791 0.0
N136 N 0.59381 0.48313 0.0681 0.0
C137 C 0.53733 0.50433 0.01548 0.0
C138 C 0.59331 0.54425 -0.00035 0.0
C139 C 0.53453 0.57119 0.50905 0.0
C140 C 0.45866 0.57216 0.44467 0.0
C141 C 0.57414 0.53062 0.52834 0.0
C142 C 0.54104 0.48975 0.48309 0.0
H143 H 0.56148 0.60208 0.54535 0.0
H144 H 0.63018 0.53105 0.57941 0.0
S145 S 0.34477 0.47451 0.30823 0.0
N146 N 0.35367 0.52923 0.33488 0.0
N147 N 0.4272 0.45265 0.37157 0.0
C148 C 0.46746 0.49029 0.41753 0.0
C149 C 0.42703 0.53166 0.39795 0.0
C150 C 0.06834 0.05616 0.06986 0.0
C151 C 0.03725 0.07343 0.0029 0.0
C152 C 0.01459 1.01667 0.08556 0.0
C153 C 0.92836 0.99329 0.03466 0.0
H154 H 0.13699 0.07268 0.10892 0.0
H155 H 0.04272 1.00365 0.1368 0.0
S156 S 0.80599 1.02877 0.85673 0.0
N157 N 0.91052 0.06661 0.88827 0.0
N158 N 0.80438 0.99364 0.91945 0.0
C159 C 0.89251 1.0117 0.96947 0.0
C160 C 0.9486 0.05146 0.95307 0.0
C161 C 0.91958 0.03347 0.45636 0.0
C162 C 0.93821 0.07391 0.50724 0.0
C163 C 0.95908 0.99281 0.47529 0.0
C164 C 0.0187 0.9912 0.54574 0.0
H165 H 0.87473 0.03345 0.4012 0.0
H166 H 0.94334 0.96233 0.43463 0.0
S167 S 0.09703 0.08726 0.69703 0.0
N168 N 0.02724 0.10981 0.62925 0.0
N169 N 0.09658 0.0328 0.66608 0.0
C170 C 0.0373 1.03108 0.5975 0.0
C171 C -0.00143 0.07267 0.57785 0.0
C172 C 0.59186 0.22384 0.21982 0.0
C173 C 0.65202 0.26221 0.2568 0.0
C174 C 0.54568 0.22185 0.14478 0.0
C175 C 0.5573 0.25846 0.10505 0.0
H176 H 0.57178 0.19676 0.25111 0.0
H177 H 0.48969 0.19338 0.12161 0.0
S178 S 0.74666 0.35911 0.16701 0.0
N179 N 0.75079 0.33177 0.24111 0.0
N180 N 0.66115 0.32874 0.10049 0.0
C181 C 0.63345 0.29391 0.13715 0.0
C182 C 0.68084 0.29578 0.21338 0.0
C183 C 0.35748 0.77042 0.13739 0.0
C184 C 0.4202 0.80814 0.12085 0.0
C185 C 0.31125 0.76939 0.21162 0.0
C186 C 0.32334 0.80634 0.2713 0.0
H187 H 0.35465 0.73987 0.09536 0.0
H188 H 0.27193 0.73848 0.22347 0.0
S189 S 0.44733 0.91734 0.25184 0.0
N190 N 0.46762 0.88662 0.16544 0.0
N191 N 0.37993 0.88441 0.30522 0.0
C192 C 0.36962 0.84627 0.25268 0.0
C193 C 0.4175 0.84733 0.17699 0.0
C194 C 0.65762 0.77112 0.71054 0.0
C195 C 0.64294 0.80641 0.77282 0.0
C196 C 0.61325 0.77438 0.63693 0.0
C197 C 0.5488 0.81255 0.6237 0.0
H198 H 0.69853 0.73989 0.71955 0.0
H199 H 0.61889 0.74497 0.59242 0.0
S200 S 0.51393 0.9182 0.76367 0.0
N201 N 0.5828 0.88383 0.81357 0.0
N202 N 0.49552 0.88977 0.67529 0.0
C203 C 0.54777 0.85017 0.68311 0.0
C204 C 0.59498 0.84701 0.75802 0.0
C205 C 0.42993 0.21596 0.64511 0.0
C206 C 0.41961 0.25155 0.60305 0.0
C207 C 0.385 0.22001 0.72111 0.0
C208 C 0.32836 0.25964 0.75697 0.0
H209 H 0.48339 0.18665 0.62254 0.0
H210 H 0.40296 0.19337 0.75378 0.0
S211 S 0.24069 0.35555 0.66282 0.0
N212 N 0.31989 0.32247 0.59592 0.0
N213 N 0.23737 0.3302 0.73936 0.0
C214 C 0.302 0.2926 0.71201 0.0
C215 C 0.34614 0.28827 0.63442 0.0
C216 C 0.81882 0.79142 0.27676 0.0
C217 C 0.83257 0.75535 0.21565 0.0
C218 C 0.86181 0.78888 0.351 0.0
C219 C 0.92356 0.75058 0.36612 0.0
H220 H 0.77997 0.8227 0.26633 0.0
H221 H 0.85744 0.81883 0.39439 0.0
S222 S 0.95347 0.64312 0.23033 0.0
N223 N 0.8883 0.67724 0.17834 0.0
N224 N 0.97197 0.6725 0.31796 0.0
C225 C 0.92292 0.71227 0.30807 0.0
C226 C 0.87753 0.71476 0.23246 0.0
C227 C 0.11235 0.27226 0.34905 0.0
C228 C 0.05282 0.31132 0.38583 0.0
C229 C 0.15424 0.26845 0.27271 0.0
C230 C 0.14211 0.30401 0.23136 0.0
H231 H 0.11543 0.2427 0.37616 0.0
H232 H 0.19119 0.23667 0.24477 0.0
S233 S 0.02893 0.41785 0.30933 0.0
N234 N 0.00993 0.38951 0.3813 0.0
N235 N 0.09089 0.3825 0.23764 0.0
C236 C 0.09976 0.34531 0.27107 0.0
C237 C 0.05564 0.34907 0.34881 0.0
C238 C 0.81414 0.26266 0.76951 0.0
C239 C 0.82221 0.30022 0.7325 0.0
C240 C 0.85754 0.26402 0.84487 0.0
C241 C 0.91248 0.30287 0.88522 0.0
H242 H 0.77982 0.23128 0.7387 0.0
H243 H 0.85931 0.2331 0.86808 0.0
S244 S 0.91912 0.41387 0.82284 0.0
N245 N 0.86153 0.37997 0.74795 0.0
N246 N 0.9436 0.38274 0.89023 0.0
C247 C 0.90324 0.34244 0.8534 0.0
C248 C 0.85872 0.34101 0.77644 0.0
C249 C 0.09319 0.71762 0.73202 0.0
C250 C 0.15393 0.75603 0.71786 0.0
C251 C 0.04612 0.71546 0.80586 0.0
C252 C 0.05832 0.75181 0.86725 0.0
H253 H 0.07275 0.69084 0.68462 0.0
H254 H -0.01111 0.68722 0.81221 0.0
S255 S 0.24883 0.8524 0.86458 0.0
N256 N 0.25163 0.82573 0.77411 0.0
N257 N 0.16472 0.82145 0.9135 0.0
C258 C 0.13617 0.78698 0.85623 0.0
C259 C 0.18283 0.78936 0.78098 0.0
loop_
_geom_bond_atom_site_label_1
_geom_bond_atom_site_label_2
_geom_bond_distance
_geom_bond_site_symmetry_2
_ccdc_geom_bond_type
Zn0 O1 2.055 1_554 S
Zn0 O8 2.046 . S
Zn0 N16 2.036 . S
Zn0 O28 2.053 . S
Zn0 O30 2.066 1_554 S
O1 Zn0 2.055 1_556 S
O1 C4 1.259 . S
C2 O30 1.256 . S
C2 O31 1.244 . S
Zn3 O5 2.046 . S
Zn3 O7 2.055 1_556 S
Zn3 N9 2.036 . S
Zn3 O27 2.066 1_556 S
Zn3 O31 2.053 . S
C4 O1 1.259 . S
C4 O5 1.254 . S
O5 Zn3 2.046 . S
O5 C4 1.254 . S
C6 O27 1.256 . S
C6 O28 1.244 . S
O7 Zn3 2.055 1_554 S
O7 C29 1.259 . S
O8 Zn0 2.046 . S
O8 C29 1.254 . S
N9 Zn3 2.036 . S
N9 C10 1.298 1_556 S
N9 N12 1.398 . S
C10 N9 1.298 1_554 S
C10 N13 1.367 1_554 S
C10 C23 1.481 . S
C11 N12 1.299 . S
C11 N13 1.379 . S
N12 N9 1.398 . S
N12 C11 1.299 . S
N13 C10 1.367 1_556 S
N13 C11 1.379 . S
C14 N16 1.298 1_556 S
C14 N18 1.367 1_556 S
C14 C22 1.481 . S
C15 N17 1.299 . S
C15 N18 1.379 . S
N16 Zn0 2.036 . S
N16 C14 1.298 1_554 S
N16 N17 1.398 . S
N17 C15 1.299 . S
N17 N16 1.398 . S
N18 C14 1.367 1_554 S
N18 C15 1.379 . S
H19 C22 0.980 . S
H20 C22 0.981 . S
H21 C22 0.981 . S
C22 C14 1.481 . S
C22 H19 0.980 . S
C22 H20 0.981 . S
C22 H21 0.981 . S
C23 C10 1.481 . S
C23 H24 0.980 . S
C23 H25 0.981 . S
C23 H26 0.981 . S
H24 C23 0.980 . S
H25 C23 0.981 . S
H26 C23 0.981 . S
O27 Zn3 2.066 1_554 S
O27 C6 1.256 . S
O28 Zn0 2.053 . S
O28 C6 1.244 . S
C29 O7 1.259 . S
C29 O8 1.254 . S
O30 Zn0 2.066 1_556 S
O30 C2 1.256 . S
O31 C2 1.244 . S
O31 Zn3 2.053 . S
Zn32 O33 2.055 1_554 S
Zn32 O40 2.046 . S
Zn32 N48 2.036 . S
Zn32 O60 2.053 . S
Zn32 O62 2.066 1_554 S
O33 Zn32 2.055 1_556 S
O33 C36 1.259 . S
C34 O62 1.256 . S
C34 O63 1.244 . S
Zn35 O37 2.046 . S
Zn35 O39 2.055 1_556 S
Zn35 N41 2.036 . S
Zn35 O59 2.066 1_556 S
Zn35 O63 2.053 . S
C36 O33 1.259 . S
C36 O37 1.254 . S
O37 Zn35 2.046 . S
O37 C36 1.254 . S
C38 O59 1.256 . S
C38 O60 1.244 . S
O39 Zn35 2.055 1_554 S
O39 C61 1.259 . S
O40 Zn32 2.046 . S
O40 C61 1.254 . S
N41 Zn35 2.036 . S
N41 C42 1.298 1_556 S
N41 N44 1.398 . S
C42 N41 1.298 1_554 S
C42 N45 1.367 1_554 S
C42 C55 1.481 . S
C43 N44 1.299 . S
C43 N45 1.379 . S
N44 N41 1.398 . S
N44 C43 1.299 . S
N45 C42 1.367 1_556 S
N45 C43 1.379 . S
C46 N48 1.298 1_556 S
C46 N50 1.367 1_556 S
C46 C54 1.481 . S
C47 N49 1.299 . S
C47 N50 1.379 . S
N48 Zn32 2.036 . S
N48 C46 1.298 1_554 S
N48 N49 1.398 . S
N49 C47 1.299 . S
N49 N48 1.398 . S
N50 C46 1.367 1_554 S
N50 C47 1.379 . S
H51 C54 0.980 . S
H52 C54 0.981 . S
H53 C54 0.981 . S
C54 C46 1.481 . S
C54 H51 0.980 . S
C54 H52 0.981 . S
C54 H53 0.981 . S
C55 C42 1.481 . S
C55 H56 0.980 . S
C55 H57 0.981 . S
C55 H58 0.981 . S
H56 C55 0.980 . S
H57 C55 0.981 . S
H58 C55 0.981 . S
O59 Zn35 2.066 1_554 S
O59 C38 1.256 . S
O60 Zn32 2.053 . S
O60 C38 1.244 . S
C61 O39 1.259 . S
C61 O40 1.254 . S
O62 Zn32 2.066 1_556 S
O62 C34 1.256 . S
O63 C34 1.244 . S
O63 Zn35 2.053 . S
Zn64 O65 2.055 . S
Zn64 O72 2.046 . S
Zn64 N80 2.036 . S
Zn64 O92 2.053 . S
Zn64 O94 2.066 . S
O65 Zn64 2.055 . S
O65 C68 1.259 . S
C66 O94 1.256 . S
C66 O95 1.244 . S
Zn67 O69 2.046 . S
Zn67 O71 2.055 . S
Zn67 N73 2.036 . S
Zn67 O91 2.066 . S
Zn67 O95 2.053 . S
C68 O65 1.259 . S
C68 O69 1.254 . S
O69 Zn67 2.046 . S
O69 C68 1.254 . S
C70 O91 1.256 . S
C70 O92 1.244 . S
O71 Zn67 2.055 . S
O71 C93 1.259 . S
O72 Zn64 2.046 . S
O72 C93 1.254 . S
N73 Zn67 2.036 . S
N73 C74 1.298 . S
N73 N76 1.398 . S
C74 N73 1.298 . S
C74 N77 1.367 . S
C74 C87 1.481 . S
C75 N76 1.299 . S
C75 N77 1.379 . S
N76 N73 1.398 . S
N76 C75 1.299 . S
N77 C74 1.367 . S
N77 C75 1.379 . S
C78 N80 1.298 . S
C78 N82 1.367 . S
C78 C86 1.481 . S
C79 N81 1.299 . S
C79 N82 1.379 . S
N80 Zn64 2.036 . S
N80 C78 1.298 . S
N80 N81 1.398 . S
N81 C79 1.299 . S
N81 N80 1.398 . S
N82 C78 1.367 . S
N82 C79 1.379 . S
H83 C86 0.980 . S
H84 C86 0.981 . S
H85 C86 0.981 . S
C86 C78 1.481 . S
C86 H83 0.980 . S
C86 H84 0.981 . S
C86 H85 0.981 . S
C87 C74 1.481 . S
C87 H88 0.980 . S
C87 H89 0.981 . S
C87 H90 0.981 . S
H88 C87 0.980 . S
H89 C87 0.981 . S
H90 C87 0.981 . S
O91 Zn67 2.066 . S
O91 C70 1.256 . S
O92 Zn64 2.053 . S
O92 C70 1.244 . S
C93 O71 1.259 . S
C93 O72 1.254 . S
O94 Zn64 2.066 . S
O94 C66 1.256 . S
O95 C66 1.244 . S
O95 Zn67 2.053 . S
Zn96 O97 2.055 . S
Zn96 O104 2.046 . S
Zn96 N112 2.036 . S
Zn96 O124 2.053 . S
Zn96 O126 2.066 . S
O97 Zn96 2.055 . S
O97 C100 1.259 . S
C98 O126 1.256 . S
C98 O127 1.244 . S
Zn99 O101 2.046 . S
Zn99 O103 2.055 . S
Zn99 N105 2.036 . S
Zn99 O123 2.066 . S
Zn99 O127 2.053 . S
C100 O97 1.259 . S
C100 O101 1.254 . S
O101 Zn99 2.046 . S
O101 C100 1.254 . S
C102 O123 1.256 . S
C102 O124 1.244 . S
O103 Zn99 2.055 . S
O103 C125 1.259 . S
O104 Zn96 2.046 . S
O104 C125 1.254 . S
N105 Zn99 2.036 . S
N105 C106 1.298 . S
N105 N108 1.398 . S
C106 N105 1.298 . S
C106 N109 1.367 . S
C106 C119 1.481 . S
C107 N108 1.299 . S
C107 N109 1.379 . S
N108 N105 1.398 . S
N108 C107 1.299 . S
N109 C106 1.367 . S
N109 C107 1.379 . S
C110 N112 1.298 . S
C110 N114 1.367 . S
C110 C118 1.481 . S
C111 N113 1.299 . S
C111 N114 1.379 . S
N112 Zn96 2.036 . S
N112 C110 1.298 . S
N112 N113 1.398 . S
N113 C111 1.299 . S
N113 N112 1.398 . S
N114 C110 1.367 . S
N114 C111 1.379 . S
H115 C118 0.980 . S
H116 C118 0.981 . S
H117 C118 0.981 . S
C118 C110 1.481 . S
C118 H115 0.980 . S
C118 H116 0.981 . S
C118 H117 0.981 . S
C119 C106 1.481 . S
C119 H120 0.980 . S
C119 H121 0.981 . S
C119 H122 0.981 . S
H120 C119 0.980 . S
H121 C119 0.981 . S
H122 C119 0.981 . S
O123 Zn99 2.066 . S
O123 C102 1.256 . S
O124 Zn96 2.053 . S
O124 C102 1.244 . S
C125 O103 1.259 . S
C125 O104 1.254 . S
O126 Zn96 2.066 . S
O126 C98 1.256 . S
O127 C98 1.244 . S
O127 Zn99 2.053 . S
C128 C129 1.369 . S
C128 C130 1.419 . S
C128 H132 0.930 . S
C129 C128 1.369 . S
C129 C138 1.429 1_556 S
C130 C128 1.419 . S
C130 C131 1.361 1_556 S
C130 H133 0.929 . S
C131 C130 1.361 1_554 S
C131 C137 1.429 . S
H132 C128 0.930 . S
H133 C130 0.929 . S
S134 N135 1.613 . S
S134 N136 1.610 . S
N135 S134 1.613 . S
N135 C138 1.350 . S
N136 S134 1.610 . S
N136 C137 1.351 . S
C137 C131 1.429 . S
C137 N136 1.351 . S
C137 C138 1.434 . S
C138 C129 1.429 1_554 S
C138 N135 1.350 . S
C138 C137 1.434 . S
C139 C140 1.369 . S
C139 C141 1.419 . S
C139 H143 0.930 . S
C140 C139 1.369 . S
C140 C149 1.429 . S
C141 C139 1.419 . S
C141 C142 1.363 . S
C141 H144 0.929 . S
C142 C141 1.363 . S
C142 C148 1.428 . S
H143 C139 0.930 . S
H144 C141 0.929 . S
S145 N146 1.613 . S
S145 N147 1.610 . S
N146 S145 1.613 . S
N146 C149 1.350 . S
N147 S145 1.610 . S
N147 C148 1.351 . S
C148 C142 1.428 . S
C148 N147 1.351 . S
C148 C149 1.434 . S
C149 C140 1.429 . S
C149 N146 1.350 . S
C149 C148 1.434 . S
C150 C151 1.364 1_554 S
C150 C152 1.419 1_445 S
C150 H154 0.930 . S
C151 C150 1.364 1_556 S
C151 C160 1.433 1_455 S
C152 C150 1.419 1_665 S
C152 C153 1.365 . S
C152 H155 0.929 . S
C153 C152 1.365 . S
C153 C159 1.427 1_554 S
H154 C150 0.930 . S
H155 C152 0.929 . S
S156 N157 1.613 . S
S156 N158 1.610 1_545 S
N157 S156 1.613 . S
N157 C160 1.350 . S
N158 S156 1.610 1_565 S
N158 C159 1.351 . S
C159 C153 1.427 1_556 S
C159 N158 1.351 . S
C159 C160 1.434 1_565 S
C160 C151 1.433 1_655 S
C160 N157 1.350 . S
C160 C159 1.434 1_545 S
C161 C162 1.369 1_565 S
C161 C163 1.419 . S
C161 H165 0.930 . S
C162 C161 1.369 1_545 S
C162 C171 1.421 1_655 S
C163 C161 1.419 . S
C163 C164 1.363 1_655 S
C163 H166 0.929 . S
C164 C163 1.363 1_455 S
C164 C170 1.428 1_565 S
H165 C161 0.930 . S
H166 C163 0.929 . S
S167 N168 1.613 . S
S167 N169 1.610 . S
N168 S167 1.613 . S
N168 C171 1.353 . S
N169 S167 1.610 . S
N169 C170 1.351 . S
C170 C164 1.428 1_545 S
C170 N169 1.351 . S
C170 C171 1.439 . S
C171 C162 1.421 1_455 S
C171 N168 1.353 . S
C171 C170 1.439 . S
C172 C173 1.369 . S
C172 C174 1.419 . S
C172 H176 0.930 . S
C173 C172 1.369 . S
C173 C182 1.429 . S
C174 C172 1.419 . S
C174 C175 1.363 . S
C174 H177 0.929 . S
C175 C174 1.363 . S
C175 C181 1.428 . S
H176 C172 0.930 . S
H177 C174 0.929 . S
S178 N179 1.613 . S
S178 N180 1.610 . S
N179 S178 1.613 . S
N179 C182 1.350 . S
N180 S178 1.610 . S
N180 C181 1.351 . S
C181 C175 1.428 . S
C181 N180 1.351 . S
C181 C182 1.434 . S
C182 C173 1.429 . S
C182 N179 1.350 . S
C182 C181 1.434 . S
C183 C184 1.369 . S
C183 C185 1.419 . S
C183 H187 0.930 . S
C184 C183 1.369 . S
C184 C193 1.429 . S
C185 C183 1.419 . S
C185 C186 1.363 . S
C185 H188 0.929 . S
C186 C185 1.363 . S
C186 C192 1.428 . S
H187 C183 0.930 . S
H188 C185 0.929 . S
S189 N190 1.613 . S
S189 N191 1.610 . S
N190 S189 1.613 . S
N190 C193 1.350 . S
N191 S189 1.610 . S
N191 C192 1.351 . S
C192 C186 1.428 . S
C192 N191 1.351 . S
C192 C193 1.434 . S
C193 C184 1.429 . S
C193 N190 1.350 . S
C193 C192 1.434 . S
C194 C195 1.369 . S
C194 C196 1.419 . S
C194 H198 0.930 . S
C195 C194 1.369 . S
C195 C204 1.429 . S
C196 C194 1.419 . S
C196 C197 1.363 . S
C196 H199 0.929 . S
C197 C196 1.363 . S
C197 C203 1.428 . S
H198 C194 0.930 . S
H199 C196 0.929 . S
S200 N201 1.613 . S
S200 N202 1.610 . S
N201 S200 1.613 . S
N201 C204 1.350 . S
N202 S200 1.610 . S
N202 C203 1.351 . S
C203 C197 1.428 . S
C203 N202 1.351 . S
C203 C204 1.434 . S
C204 C195 1.429 . S
C204 N201 1.350 . S
C204 C203 1.434 . S
C205 C206 1.369 . S
C205 C207 1.419 . S
C205 H209 0.930 . S
C206 C205 1.369 . S
C206 C215 1.429 . S
C207 C205 1.419 . S
C207 C208 1.363 . S
C207 H210 0.929 . S
C208 C207 1.363 . S
C208 C214 1.428 . S
H209 C205 0.930 . S
H210 C207 0.929 . S
S211 N212 1.613 . S
S211 N213 1.610 . S
N212 S211 1.613 . S
N212 C215 1.350 . S
N213 S211 1.610 . S
N213 C214 1.351 . S
C214 C208 1.428 . S
C214 N213 1.351 . S
C214 C215 1.434 . S
C215 C206 1.429 . S
C215 N212 1.350 . S
C215 C214 1.434 . S
C216 C217 1.369 1_455 S
C216 C218 1.419 . S
C216 H220 0.930 . S
C217 C216 1.369 1_655 S
C217 C226 1.429 . S
C218 C216 1.419 . S
C218 C219 1.363 . S
C218 H221 0.929 . S
C219 C218 1.363 . S
C219 C225 1.428 1_455 S
H220 C216 0.930 . S
H221 C218 0.929 . S
S222 N223 1.613 . S
S222 N224 1.610 . S
N223 S222 1.613 . S
N223 C226 1.350 . S
N224 S222 1.610 . S
N224 C225 1.351 . S
C225 C219 1.428 1_655 S
C225 N224 1.351 . S
C225 C226 1.434 . S
C226 C217 1.429 . S
C226 N223 1.350 . S
C226 C225 1.434 . S
C227 C228 1.369 1_455 S
C227 C229 1.419 . S
C227 H231 0.930 . S
C228 C227 1.369 1_655 S
C228 C237 1.429 . S
C229 C227 1.419 . S
C229 C230 1.363 . S
C229 H232 0.929 . S
C230 C229 1.363 . S
C230 C236 1.428 1_455 S
H231 C227 0.930 . S
H232 C229 0.929 . S
S233 N234 1.613 . S
S233 N235 1.610 . S
N234 S233 1.613 . S
N234 C237 1.350 . S
N235 S233 1.610 . S
N235 C236 1.351 . S
C236 C230 1.428 1_655 S
C236 N235 1.351 . S
C236 C237 1.434 . S
C237 C228 1.429 . S
C237 N234 1.350 . S
C237 C236 1.434 . S
C238 C239 1.369 1_455 S
C238 C240 1.419 . S
C238 H242 0.930 . S
C239 C238 1.369 1_655 S
C239 C248 1.429 . S
C240 C238 1.419 . S
C240 C241 1.363 . S
C240 H243 0.929 . S
C241 C240 1.363 . S
C241 C247 1.428 1_455 S
H242 C238 0.930 . S
H243 C240 0.929 . S
S244 N245 1.613 . S
S244 N246 1.610 . S
N245 S244 1.613 . S
N245 C248 1.350 . S
N246 S244 1.610 . S
N246 C247 1.351 . S
C247 C241 1.428 1_655 S
C247 N246 1.351 . S
C247 C248 1.434 . S
C248 C239 1.429 . S
C248 N245 1.350 . S
C248 C247 1.434 . S
C249 C250 1.369 1_655 S
C249 C251 1.419 . S
C249 H253 0.930 . S
C250 C249 1.369 1_455 S
C250 C259 1.429 . S
C251 C249 1.419 . S
C251 C252 1.363 . S
C251 H254 0.929 . S
C252 C251 1.363 . S
C252 C258 1.428 1_655 S
H253 C249 0.930 . S
H254 C251 0.929 . S
S255 N256 1.613 . S
S255 N257 1.610 . S
N256 S255 1.613 . S
N256 C259 1.350 . S
N257 S255 1.610 . S
N257 C258 1.351 . S
C258 C252 1.428 1_455 S
C258 N257 1.351 . S
C258 C259 1.434 . S
C259 C250 1.429 . S
C259 N256 1.350 . S
C259 C258 1.434 . S
C129 N45 1.625 . S
C131 N18 1.586 . S
C140 N77 1.587 . S
C142 N114 1.623 . S
C151 N13 1.621 . S
C153 N50 1.589 . S
C162 N109 1.581 . S
C164 N82 1.625 . S
C173 C98 1.160 . S
C175 C29 1.169 . S
C184 C38 1.165 . S
C186 C68 1.169 . S
C195 C34 1.181 . S
C197 C93 1.188 . S
C206 C102 1.178 . S
C208 C4 1.186 . S
C217 C61 1.169 . S
C219 C66 1.163 . S
C228 C100 1.169 . S
C230 C6 1.163 . S
C239 C125 1.183 . S
C241 C2 1.184 . S
C250 C70 1.176 . S
C252 C36 1.188 . S
