# Generated by pormake.
# Topology npo, (4)-cn, num edge types: 1
# Building blocks:
#     Node 0, Type 0, BuildingBlock: QUQFOY_clean_sbu_1, # of connection points: 4
#     Node 1, Type 0, BuildingBlock: QUQFOY_clean_sbu_1, # of connection points: 4
#     Node 2, Type 0, BuildingBlock: QUQFOY_clean_sbu_1, # of connection points: 4
#     Node 3, Type 0, BuildingBlock: QUQFOY_clean_sbu_1, # of connection points: 4
#     Node 4, Type 0, BuildingBlock: QUQFOY_clean_sbu_1, # of connection points: 4
#     Node 5, Type 0, BuildingBlock: QUQFOY_clean_sbu_1, # of connection points: 4
#     Edge 6, Type (0, 0), BuildingBlock: FUNLAD_clean_linker_0, # of connection points: 2
#     Edge 7, Type (0, 0), BuildingBlock: FUNLAD_clean_linker_0, # of connection points: 2
#     Edge 8, Type (0, 0), BuildingBlock: FUNLAD_clean_linker_0, # of connection points: 2
#     Edge 9, Type (0, 0), BuildingBlock: FUNLAD_clean_linker_0, # of connection points: 2
#     Edge 10, Type (0, 0), BuildingBlock: FUNLAD_clean_linker_0, # of connection points: 2
#     Edge 11, Type (0, 0), BuildingBlock: FUNLAD_clean_linker_0, # of connection points: 2
#     Edge 12, Type (0, 0), BuildingBlock: FUNLAD_clean_linker_0, # of connection points: 2
#     Edge 13, Type (0, 0), BuildingBlock: FUNLAD_clean_linker_0, # of connection points: 2
#     Edge 14, Type (0, 0), BuildingBlock: FUNLAD_clean_linker_0, # of connection points: 2
#     Edge 15, Type (0, 0), BuildingBlock: FUNLAD_clean_linker_0, # of connection points: 2
#     Edge 16, Type (0, 0), BuildingBlock: FUNLAD_clean_linker_0, # of connection points: 2
#     Edge 17, Type (0, 0), BuildingBlock: FUNLAD_clean_linker_0, # of connection points: 2
# Relax obj value: 0.269
# Max RMSD: 0.245
# Mean RMSD: 0.245
data_MOF--net-npo--node1-QUQFOY_clean_sbu_1--edge1-FUNLAD_clean_linker_0
_symmetry_space_group_name_H-M    P1
_symmetry_Int_Tables_number       1
_symmetry_cell_setting            triclinic
loop_
_symmetry_equiv_pos_as_xyz
'x, y, z'
_cell_length_a     51.041819
_cell_length_b     50.700036
_cell_length_c     32.312116
_cell_angle_alpha  90.043487
_cell_angle_beta   89.755702
_cell_angle_gamma 120.07993
loop_
_atom_site_label
_atom_site_type_symbol
_atom_site_fract_x
_atom_site_fract_y
_atom_site_fract_z
_atom_type_partial_charge
O0 O 0.59882 0.14039 0.28003 0.0
Cd1 Cd 0.55267 0.1163 0.28949 0.0
Cd2 Cd 0.55251 0.11651 0.20278 0.0
O3 O 0.59857 0.14064 0.2118 0.0
O4 O 0.54915 0.10888 0.3501 0.0
O5 O 0.53093 0.07164 0.30411 0.0
C6 C 0.53499 0.08011 0.34238 0.0
C7 C 0.5358 0.08058 0.14977 0.0
C8 C 0.61296 0.14807 0.24573 0.0
C9 C 0.52098 0.14528 0.24664 0.0
O10 O 0.52824 0.13844 0.21232 0.0
O11 O 0.52857 0.13839 0.28055 0.0
O12 O 0.54931 0.10937 0.14215 0.0
O13 O 0.53152 0.07195 0.18802 0.0
O14 O 0.44269 0.59624 0.78362 0.0
Cd15 Cd 0.42306 0.54955 0.78786 0.0
Cd16 Cd 0.43191 0.5567 0.70127 0.0
O17 O 0.45385 0.60211 0.71703 0.0
O18 O 0.41979 0.54303 0.84867 0.0
O19 O 0.44753 0.53113 0.80865 0.0
C20 C 0.43783 0.53233 0.84519 0.0
C21 C 0.45381 0.54203 0.64939 0.0
C22 C 0.45459 0.61342 0.75237 0.0
C23 C 0.36799 0.51971 0.73343 0.0
O24 O 0.38528 0.53263 0.70262 0.0
O25 O 0.37887 0.52261 0.76949 0.0
O26 O 0.44099 0.55776 0.64134 0.0
O27 O 0.45469 0.53487 0.68752 0.0
O28 O 0.85162 0.39473 0.22289 0.0
Cd29 Cd 0.87228 0.44009 0.20693 0.0
Cd30 Cd 0.87147 0.44683 0.29351 0.0
O31 O 0.8479 0.39994 0.29007 0.0
O32 O 0.87965 0.43974 0.14664 0.0
O33 O 0.91656 0.4637 0.19186 0.0
C34 C 0.90817 0.4564 0.15391 0.0
C35 C 0.90485 0.46661 0.34895 0.0
C36 C 0.84289 0.38306 0.25861 0.0
C37 C 0.84139 0.47297 0.24103 0.0
O38 O 0.85005 0.47038 0.2768 0.0
O39 O 0.84724 0.46169 0.20965 0.0
O40 O 0.87602 0.45386 0.35411 0.0
O41 O 0.91503 0.46851 0.31175 0.0
O42 O 0.44039 0.85116 0.7066 0.0
Cd43 Cd 0.41897 0.87638 0.70294 0.0
Cd44 Cd 0.42581 0.87737 0.78846 0.0
O45 O 0.44914 0.85527 0.77371 0.0
O46 O 0.41953 0.88428 0.6427 0.0
O47 O 0.44284 0.92102 0.68875 0.0
C48 C 0.43614 0.91291 0.65057 0.0
C49 C 0.44591 0.91354 0.8411 0.0
C50 C 0.4516 0.8458 0.73832 0.0
C51 C 0.36231 0.84713 0.75425 0.0
O52 O 0.37924 0.85307 0.78566 0.0
O53 O 0.37377 0.85543 0.71836 0.0
O54 O 0.43306 0.8848 0.84873 0.0
O55 O 0.4477 0.92202 0.803 0.0
O56 O 0.51814 0.38523 0.2702 0.0
Cd57 Cd 0.54289 0.43042 0.28664 0.0
Cd58 Cd 0.55037 0.43792 0.1998 0.0
O59 O 0.52721 0.39098 0.20304 0.0
O60 O 0.5349 0.42989 0.34688 0.0
O61 O 0.52277 0.45462 0.30156 0.0
C62 C 0.52361 0.44711 0.33953 0.0
C63 C 0.53749 0.45816 0.14393 0.0
C64 C 0.51531 0.37385 0.23435 0.0
C65 C 0.60644 0.46384 0.25256 0.0
O66 O 0.59516 0.46165 0.21693 0.0
O67 O 0.58941 0.45192 0.28389 0.0
O68 O 0.55346 0.44521 0.13919 0.0
O69 O 0.52872 0.45982 0.18091 0.0
O70 O 0.13362 0.52659 0.78404 0.0
Cd71 Cd 0.10976 0.54924 0.79032 0.0
Cd72 Cd 0.11027 0.54537 0.70227 0.0
O73 O 0.13019 0.51992 0.7164 0.0
O74 O 0.10272 0.54766 0.85095 0.0
O75 O 0.06553 0.52593 0.80561 0.0
C76 C 0.07413 0.53178 0.84371 0.0
C77 C 0.07824 0.52915 0.64513 0.0
C78 C 0.13868 0.51579 0.75146 0.0
C79 C 0.13984 0.60787 0.74208 0.0
O80 O 0.1346 0.59198 0.70952 0.0
O81 O 0.131 0.59513 0.77719 0.0
O82 O 0.10711 0.54144 0.64113 0.0
O83 O 0.06723 0.52565 0.68209 0.0
C84 C 0.50132 0.17542 0.21025 0.0
C85 C 0.50585 0.16368 0.2472 0.0
C86 C 0.49133 0.19652 0.21119 0.0
C87 C 0.48544 0.20619 0.24925 0.0
C88 C 0.48812 0.19289 0.28592 0.0
C89 C 0.49818 0.17188 0.28497 0.0
C90 C 0.4807 0.23277 0.25278 0.0
C91 C 0.47534 0.24624 0.22054 0.0
C92 C 0.48006 0.27757 0.22334 0.0
C93 C 0.49079 0.29637 0.18823 0.0
C94 C 0.50086 0.32748 0.19127 0.0
C95 C 0.50022 0.34037 0.22954 0.0
H96 H 0.46753 0.27591 0.28811 0.0
C97 C 0.48709 0.32107 0.26388 0.0
C98 C 0.47695 0.28994 0.2608 0.0
H99 H 0.48561 0.33015 0.2936 0.0
H100 H 0.5069 0.16948 0.18059 0.0
H101 H 0.49004 0.20625 0.18208 0.0
H102 H 0.48374 0.19982 0.31568 0.0
H103 H 0.50113 0.16306 0.31402 0.0
H104 H 0.48499 0.24342 0.28305 0.0
H105 H 0.47126 0.23608 0.19003 0.0
H106 H 0.49306 0.28734 0.15887 0.0
H107 H 0.51046 0.34162 0.16404 0.0
C108 C 0.32212 0.50673 0.69122 0.0
C109 C 0.33479 0.50346 0.72802 0.0
C110 C 0.29104 0.49567 0.68863 0.0
C111 C 0.27199 0.48117 0.72269 0.0
C112 C 0.2843 0.47534 0.75809 0.0
C113 C 0.31544 0.48663 0.76082 0.0
C114 C 0.2405 0.47557 0.72134 0.0
C115 C 0.2247 0.47419 0.75566 0.0
C116 C 0.19851 0.47938 0.75521 0.0
C117 C 0.19217 0.49062 0.79134 0.0
C118 C 0.17154 0.50105 0.79072 0.0
C119 C 0.15675 0.50041 0.75386 0.0
H120 H 0.18482 0.46648 0.69123 0.0
C121 C 0.16121 0.4869 0.71855 0.0
C122 C 0.18171 0.47627 0.71925 0.0
H123 H 0.14959 0.4854 0.6899 0.0
H124 H 0.33636 0.51925 0.66516 0.0
H125 H 0.28217 0.50009 0.66072 0.0
H126 H 0.27028 0.46297 0.78431 0.0
H127 H 0.32444 0.48306 0.78922 0.0
H128 H 0.23236 0.47765 0.69125 0.0
H129 H 0.23385 0.47412 0.78586 0.0
H130 H 0.20443 0.49291 0.81967 0.0
H131 H 0.16834 0.51095 0.81865 0.0
C132 C 0.66214 0.18044 0.28217 0.0
C133 C 0.64626 0.16806 0.24521 0.0
C134 C 0.69273 0.20288 0.28125 0.0
C135 C 0.70817 0.21327 0.2432 0.0
C136 C 0.69268 0.19947 0.20652 0.0
C137 C 0.6621 0.17712 0.20746 0.0
C138 C 0.73872 0.24086 0.2397 0.0
C139 C 0.75728 0.2548 0.27192 0.0
C140 C 0.78311 0.2865 0.26907 0.0
C141 C 0.79075 0.30512 0.30425 0.0
C142 C 0.81128 0.33635 0.30133 0.0
C143 C 0.82473 0.34954 0.26312 0.0
H144 H 0.79413 0.2854 0.20422 0.0
C145 C 0.8189 0.3305 0.22864 0.0
C146 C 0.79842 0.29926 0.2316 0.0
H147 H 0.82939 0.33983 0.19895 0.0
H148 H 0.65062 0.1739 0.31182 0.0
H149 H 0.70337 0.21296 0.31036 0.0
H150 H 0.70392 0.20694 0.17677 0.0
H151 H 0.65063 0.16787 0.17839 0.0
H152 H 0.74468 0.25164 0.20944 0.0
H153 H 0.75156 0.24452 0.30243 0.0
H154 H 0.77959 0.29582 0.33362 0.0
H155 H 0.81556 0.3503 0.32866 0.0
C156 C 0.47914 0.82122 0.76892 0.0
C157 C 0.4654 0.82629 0.7346 0.0
C158 C 0.48852 0.79965 0.76701 0.0
C159 C 0.4839 0.78238 0.73083 0.0
C160 C 0.47221 0.78909 0.69569 0.0
C161 C 0.46302 0.81077 0.69751 0.0
C162 C 0.48861 0.75573 0.72911 0.0
C163 C 0.48812 0.73992 0.76295 0.0
C164 C 0.48417 0.70883 0.76103 0.0
C165 C 0.4904 0.69709 0.72516 0.0
C166 C 0.48185 0.66628 0.72289 0.0
C167 C 0.46733 0.64669 0.75655 0.0
H168 H 0.46693 0.69813 0.82381 0.0
C169 C 0.46326 0.65895 0.7934 0.0
C170 C 0.47163 0.68968 0.79558 0.0
H171 H 0.45244 0.64458 0.8201 0.0
H172 H 0.4819 0.83328 0.79771 0.0
H173 H 0.49869 0.79623 0.79426 0.0
H174 H 0.46876 0.77647 0.66721 0.0
H175 H 0.45284 0.81436 0.67033 0.0
H176 H 0.48822 0.74661 0.6986 0.0
H177 H 0.48632 0.74794 0.79338 0.0
H178 H 0.50125 0.7113 0.69842 0.0
H179 H 0.4859 0.65767 0.69432 0.0
C180 C 0.65892 0.49428 0.2236 0.0
C181 C 0.63965 0.47858 0.25704 0.0
C182 C 0.68997 0.50499 0.22611 0.0
C183 C 0.70229 0.49976 0.26198 0.0
C184 C 0.68331 0.48599 0.29633 0.0
C185 C 0.65233 0.47549 0.29393 0.0
C186 C 0.73394 0.50583 0.26398 0.0
C187 C 0.75034 0.50762 0.23015 0.0
C188 C 0.77757 0.50418 0.23191 0.0
C189 C 0.78477 0.49252 0.197 0.0
C190 C 0.80674 0.48387 0.19925 0.0
C191 C 0.822 0.48677 0.23654 0.0
H192 H 0.79094 0.51986 0.29516 0.0
C193 C 0.81659 0.50077 0.27049 0.0
C194 C 0.79475 0.50961 0.26814 0.0
H195 H 0.8285 0.50399 0.29939 0.0
H196 H 0.64994 0.49764 0.19504 0.0
H197 H 0.70392 0.51669 0.19954 0.0
H198 H 0.6922 0.482 0.32456 0.0
H199 H 0.63817 0.4638 0.32044 0.0
H200 H 0.74203 0.5043 0.29436 0.0
H201 H 0.7413 0.50696 0.19961 0.0
H202 H 0.77223 0.4885 0.16848 0.0
H203 H 0.81061 0.47351 0.17233 0.0
C204 C 0.30991 0.82148 0.72491 0.0
C205 C 0.32913 0.82773 0.75902 0.0
C206 C 0.2793 0.79925 0.72768 0.0
C207 C 0.26746 0.78249 0.76451 0.0
C208 C 0.28611 0.7907 0.79953 0.0
C209 C 0.31662 0.81306 0.79685 0.0
C210 C 0.2371 0.75457 0.76687 0.0
C211 C 0.22299 0.73737 0.73346 0.0
C212 C 0.19804 0.70508 0.73574 0.0
C213 C 0.19182 0.68702 0.70013 0.0
C214 C 0.17201 0.65563 0.70181 0.0
C215 C 0.1579 0.64149 0.73925 0.0
H216 H 0.18525 0.70419 0.80044 0.0
C217 C 0.16253 0.65971 0.77431 0.0
C218 C 0.18221 0.6912 0.77257 0.0
H219 H 0.15149 0.64957 0.80344 0.0
H220 H 0.3187 0.83293 0.69557 0.0
H221 H 0.26541 0.79474 0.7005 0.0
H222 H 0.27753 0.77856 0.8285 0.0
H223 H 0.3307 0.81762 0.82392 0.0
H224 H 0.22869 0.74589 0.79763 0.0
H225 H 0.23257 0.74559 0.70297 0.0
H226 H 0.20333 0.69701 0.67118 0.0
H227 H 0.1687 0.64233 0.67405 0.0
C228 C 0.45344 0.92534 0.91653 0.0
C229 C 0.45769 0.93575 0.87541 0.0
C230 C 0.46394 0.9459 0.94938 0.0
C231 C 0.47931 0.9775 0.94187 0.0
C232 C 0.48335 0.98789 0.90074 0.0
C233 C 0.47273 0.96725 0.86779 0.0
C234 C 0.49042 0.00022 0.97596 0.0
C235 C 0.49579 -0.00581 0.01469 0.0
C236 C 0.50634 0.01683 0.04882 0.0
C237 C 0.50068 0.00636 0.08994 0.0
C238 C 0.51017 0.02695 0.12293 0.0
C239 C 0.52573 0.05847 0.11535 0.0
H240 H 0.52831 0.05754 0.01031 0.0
C241 C 0.53187 0.06895 0.07425 0.0
C242 C 0.52243 0.04842 0.04136 0.0
H243 H 0.54416 0.09312 0.06734 0.0
H244 H 0.44162 0.90118 0.9235 0.0
H245 H 0.45928 0.93673 0.98045 0.0
H246 H 0.49484 0.01209 0.89404 0.0
H247 H 0.47623 0.97596 0.83644 0.0
H248 H 0.49428 0.02275 0.96845 0.0
H249 H 0.4919 0.97169 0.02238 0.0
H250 H 0.48861 0.98214 0.09659 0.0
H251 H 0.50526 0.01818 0.15427 0.0
C252 C 0.51382 0.44935 0.41484 0.0
C253 C 0.51283 0.4584 0.37404 0.0
C254 C 0.5049 0.46077 0.44795 0.0
C255 C 0.49498 0.48173 0.44102 0.0
C256 C 0.49323 0.49015 0.40014 0.0
C257 C 0.50218 0.47871 0.36695 0.0
C258 C 0.48557 0.49468 0.47541 0.0
C259 C 0.49542 0.497 0.51466 0.0
C260 C 0.48572 0.50976 0.54896 0.0
C261 C 0.48675 0.50087 0.58983 0.0
C262 C 0.47692 0.51171 0.62278 0.0
C263 C 0.46608 0.53184 0.6154 0.0
H264 H 0.47593 0.53925 0.51114 0.0
C265 C 0.46606 0.54155 0.57469 0.0
C266 C 0.47589 0.53078 0.54186 0.0
H267 H 0.45826 0.55741 0.56801 0.0
H268 H 0.52159 0.43344 0.42133 0.0
H269 H 0.5055 0.45272 0.47872 0.0
H270 H 0.48531 0.50598 0.39389 0.0
H271 H 0.50103 0.48602 0.33585 0.0
H272 H 0.47022 0.50285 0.4676 0.0
H273 H 0.51072 0.48878 0.52255 0.0
H274 H 0.49461 0.48502 0.59622 0.0
H275 H 0.47735 0.50393 0.65384 0.0
C276 C 0.06266 0.52648 0.9194 0.0
C277 C 0.05222 0.52051 0.87839 0.0
C278 C 0.04231 0.51577 0.95253 0.0
C279 C 0.01094 0.49903 0.94541 0.0
C280 C 0.00052 0.49274 0.9044 0.0
C281 C 0.02093 0.50346 0.87118 0.0
C282 C -0.01152 0.48702 0.97978 0.0
C283 C -0.00586 0.49914 0.01814 0.0
C284 C 0.97161 0.48739 0.05248 0.0
C285 C 0.98192 0.49462 0.09346 0.0
C286 C 0.96145 0.48445 0.12662 0.0
C287 C 0.93019 0.46695 0.11937 0.0
H288 H 0.93113 0.4649 0.01437 0.0
C289 C 0.91986 0.45992 0.0784 0.0
C290 C 0.94026 0.47013 0.04533 0.0
H291 H 0.89588 0.44677 0.0717 0.0
H292 H 0.08666 0.53926 0.92605 0.0
H293 H 0.05145 0.52021 0.98352 0.0
H294 H 0.97648 0.47964 0.89801 0.0
H295 H 0.01219 0.49834 0.83993 0.0
H296 H 0.96644 0.46771 0.97261 0.0
H297 H 0.0162 0.51848 0.0252 0.0
H298 H 0.00593 0.50812 0.09987 0.0
H299 H 0.9701 0.49036 0.15783 0.0
C300 C 0.53004 0.06809 0.41785 0.0
C301 C 0.52353 0.05784 0.37674 0.0
C302 C 0.51873 0.04749 0.45074 0.0
C303 C 0.50033 0.01607 0.44328 0.0
C304 C 0.4944 0.00578 0.40213 0.0
C305 C 0.5058 0.02644 0.36915 0.0
C306 C 0.48752 0.99335 0.4774 0.0
C307 C 0.48346 0.00028 0.51636 0.0
C308 C 0.47068 0.97748 0.55033 0.0
C309 C 0.47787 0.98743 0.59147 0.0
C310 C 0.46653 0.96659 0.62425 0.0
C311 C 0.44751 0.93538 0.61645 0.0
H312 H 0.44397 0.93778 0.51162 0.0
C313 C 0.43971 0.92552 0.57536 0.0
C314 C 0.45105 0.9463 0.54267 0.0
H315 H 0.42482 0.90165 0.5683 0.0
H316 H 0.54397 0.09213 0.42477 0.0
H317 H 0.52492 0.05642 0.48177 0.0
H318 H 0.48058 0.98167 0.39545 0.0
H319 H 0.50051 0.01783 0.33779 0.0
H320 H 0.48094 0.97002 0.46965 0.0
H321 H 0.49007 0.02358 0.52433 0.0
H322 H 0.49266 0.01138 0.59826 0.0
H323 H 0.47284 0.97491 0.65559 0.0
C324 C 0.46925 0.51349 0.87982 0.0
C325 C 0.44726 0.52233 0.88235 0.0
C326 C 0.47866 0.50503 0.9155 0.0
C327 C 0.46626 0.50535 0.95442 0.0
C328 C 0.44377 0.51346 0.95665 0.0
C329 C 0.43449 0.52203 0.9211 0.0
C330 C 0.47552 0.49665 0.99319 0.0
C331 C 0.5029 0.49936 -0.00163 0.0
C332 C 0.51185 0.48991 0.03674 0.0
C333 C 0.53368 0.48094 0.03382 0.0
C334 C 0.54214 0.47094 0.06877 0.0
C335 C 0.52925 0.47009 0.10762 0.0
H336 H 0.48334 0.49761 0.07957 0.0
C337 C 0.50812 0.48002 0.11094 0.0
C338 C 0.49947 0.48985 0.07582 0.0
H339 H 0.49801 0.47988 0.14055 0.0
H340 H 0.4793 0.51324 0.85033 0.0
H341 H 0.49528 0.49788 0.91224 0.0
H342 H 0.4336 0.51356 0.98612 0.0
H343 H 0.41733 0.52853 0.9241 0.0
H344 H 0.45918 0.48814 0.01839 0.0
H345 H 0.51925 0.50788 0.97319 0.0
H346 H 0.54381 0.48109 0.00421 0.0
H347 H 0.5587 0.46369 0.0652 0.0
C348 C 0.02793 0.51091 0.6113 0.0
C349 C 0.0588 0.52017 0.60811 0.0
C350 C 0.01014 0.50387 0.57574 0.0
C351 C 0.02298 0.50601 0.53632 0.0
C352 C 0.05358 0.51439 0.53337 0.0
C353 C 0.07137 0.5216 0.56881 0.0
C354 C 0.00512 0.49903 0.4977 0.0
C355 C 0.98082 0.50256 0.49391 0.0
C356 C 0.96246 0.49485 0.45566 0.0
C357 C 0.9319 0.48655 0.45923 0.0
C358 C 0.9134 0.47787 0.42441 0.0
C359 C 0.92517 0.4777 0.38507 0.0
H360 H -0.00171 0.50299 0.41189 0.0
C361 C 0.95605 0.48713 0.38113 0.0
C362 C 0.97457 0.49566 0.4161 0.0
H363 H 0.96581 0.4875 0.35115 0.0
H364 H 0.01757 0.50936 0.6412 0.0
H365 H 0.98635 0.49644 0.57939 0.0
H366 H 0.06392 0.51586 0.50346 0.0
H367 H 0.09506 0.52846 0.5653 0.0
H368 H 0.01275 0.49122 0.47147 0.0
H369 H 0.97327 0.51043 0.52019 0.0
H370 H 0.9221 0.4861 0.48923 0.0
H371 H 0.88974 0.47098 0.42846 0.0
loop_
_geom_bond_atom_site_label_1
_geom_bond_atom_site_label_2
_geom_bond_distance
_geom_bond_site_symmetry_2
_ccdc_geom_bond_type
O0 Cd1 2.223 . S
O0 C8 1.315 . S
Cd1 O0 2.223 . S
Cd1 O4 2.297 . S
Cd1 O5 2.439 . S
Cd1 O11 2.240 . S
Cd2 O3 2.240 . S
Cd2 O10 2.223 . S
Cd2 O12 2.297 . S
Cd2 O13 2.439 . S
O3 Cd2 2.240 . S
O3 C8 1.279 . S
O4 Cd1 2.297 . S
O4 C6 1.247 . S
O5 Cd1 2.439 . S
O5 C6 1.208 . S
C6 O4 1.247 . S
C6 O5 1.208 . S
C7 O12 1.247 . S
C7 O13 1.208 . S
C8 O0 1.315 . S
C8 O3 1.279 . S
C9 O10 1.315 . S
C9 O11 1.279 . S
O10 Cd2 2.223 . S
O10 C9 1.315 . S
O11 Cd1 2.240 . S
O11 C9 1.279 . S
O12 Cd2 2.297 . S
O12 C7 1.247 . S
O13 Cd2 2.439 . S
O13 C7 1.208 . S
O14 Cd15 2.223 . S
O14 C22 1.315 . S
Cd15 O14 2.223 . S
Cd15 O18 2.297 . S
Cd15 O19 2.439 . S
Cd15 O25 2.240 . S
Cd16 O17 2.240 . S
Cd16 O24 2.223 . S
Cd16 O26 2.297 . S
Cd16 O27 2.439 . S
O17 Cd16 2.240 . S
O17 C22 1.279 . S
O18 Cd15 2.297 . S
O18 C20 1.247 . S
O19 Cd15 2.439 . S
O19 C20 1.208 . S
C20 O18 1.247 . S
C20 O19 1.208 . S
C21 O26 1.247 . S
C21 O27 1.208 . S
C22 O14 1.315 . S
C22 O17 1.279 . S
C23 O24 1.315 . S
C23 O25 1.279 . S
O24 Cd16 2.223 . S
O24 C23 1.315 . S
O25 Cd15 2.240 . S
O25 C23 1.279 . S
O26 Cd16 2.297 . S
O26 C21 1.247 . S
O27 Cd16 2.439 . S
O27 C21 1.208 . S
O28 Cd29 2.223 . S
O28 C36 1.315 . S
Cd29 O28 2.223 . S
Cd29 O32 2.297 . S
Cd29 O33 2.439 . S
Cd29 O39 2.240 . S
Cd30 O31 2.240 . S
Cd30 O38 2.223 . S
Cd30 O40 2.297 . S
Cd30 O41 2.439 . S
O31 Cd30 2.240 . S
O31 C36 1.279 . S
O32 Cd29 2.297 . S
O32 C34 1.247 . S
O33 Cd29 2.439 . S
O33 C34 1.208 . S
C34 O32 1.247 . S
C34 O33 1.208 . S
C35 O40 1.247 . S
C35 O41 1.208 . S
C36 O28 1.315 . S
C36 O31 1.279 . S
C37 O38 1.315 . S
C37 O39 1.279 . S
O38 Cd30 2.223 . S
O38 C37 1.315 . S
O39 Cd29 2.240 . S
O39 C37 1.279 . S
O40 Cd30 2.297 . S
O40 C35 1.247 . S
O41 Cd30 2.439 . S
O41 C35 1.208 . S
O42 Cd43 2.223 . S
O42 C50 1.315 . S
Cd43 O42 2.223 . S
Cd43 O46 2.297 . S
Cd43 O47 2.439 . S
Cd43 O53 2.240 . S
Cd44 O45 2.240 . S
Cd44 O52 2.223 . S
Cd44 O54 2.297 . S
Cd44 O55 2.439 . S
O45 Cd44 2.240 . S
O45 C50 1.279 . S
O46 Cd43 2.297 . S
O46 C48 1.247 . S
O47 Cd43 2.439 . S
O47 C48 1.208 . S
C48 O46 1.247 . S
C48 O47 1.208 . S
C49 O54 1.247 . S
C49 O55 1.208 . S
C50 O42 1.315 . S
C50 O45 1.279 . S
C51 O52 1.315 . S
C51 O53 1.279 . S
O52 Cd44 2.223 . S
O52 C51 1.315 . S
O53 Cd43 2.240 . S
O53 C51 1.279 . S
O54 Cd44 2.297 . S
O54 C49 1.247 . S
O55 Cd44 2.439 . S
O55 C49 1.208 . S
O56 Cd57 2.223 . S
O56 C64 1.315 . S
Cd57 O56 2.223 . S
Cd57 O60 2.297 . S
Cd57 O61 2.439 . S
Cd57 O67 2.240 . S
Cd58 O59 2.240 . S
Cd58 O66 2.223 . S
Cd58 O68 2.297 . S
Cd58 O69 2.439 . S
O59 Cd58 2.240 . S
O59 C64 1.279 . S
O60 Cd57 2.297 . S
O60 C62 1.247 . S
O61 Cd57 2.439 . S
O61 C62 1.208 . S
C62 O60 1.247 . S
C62 O61 1.208 . S
C63 O68 1.247 . S
C63 O69 1.208 . S
C64 O56 1.315 . S
C64 O59 1.279 . S
C65 O66 1.315 . S
C65 O67 1.279 . S
O66 Cd58 2.223 . S
O66 C65 1.315 . S
O67 Cd57 2.240 . S
O67 C65 1.279 . S
O68 Cd58 2.297 . S
O68 C63 1.247 . S
O69 Cd58 2.439 . S
O69 C63 1.208 . S
O70 Cd71 2.223 . S
O70 C78 1.315 . S
Cd71 O70 2.223 . S
Cd71 O74 2.297 . S
Cd71 O75 2.439 . S
Cd71 O81 2.240 . S
Cd72 O73 2.240 . S
Cd72 O80 2.223 . S
Cd72 O82 2.297 . S
Cd72 O83 2.439 . S
O73 Cd72 2.240 . S
O73 C78 1.279 . S
O74 Cd71 2.297 . S
O74 C76 1.247 . S
O75 Cd71 2.439 . S
O75 C76 1.208 . S
C76 O74 1.247 . S
C76 O75 1.208 . S
C77 O82 1.247 . S
C77 O83 1.208 . S
C78 O70 1.315 . S
C78 O73 1.279 . S
C79 O80 1.315 . S
C79 O81 1.279 . S
O80 Cd72 2.223 . S
O80 C79 1.315 . S
O81 Cd71 2.240 . S
O81 C79 1.279 . S
O82 Cd72 2.297 . S
O82 C77 1.247 . S
O83 Cd72 2.439 . S
O83 C77 1.208 . S
C84 C85 1.386 . S
C84 C86 1.383 . S
C84 H100 0.951 . S
C85 C84 1.386 . S
C85 C89 1.383 . S
C86 C84 1.383 . S
C86 C87 1.402 . S
C86 H101 0.951 . S
C87 C86 1.402 . S
C87 C88 1.375 . S
C87 C90 1.481 . S
C88 C87 1.375 . S
C88 C89 1.367 . S
C88 H102 0.951 . S
C89 C85 1.383 . S
C89 C88 1.367 . S
C89 H103 0.950 . S
C90 C87 1.481 . S
C90 C91 1.297 . S
C90 H104 0.950 . S
C91 C90 1.297 . S
C91 C92 1.479 . S
C91 H105 0.950 . S
C92 C91 1.479 . S
C92 C93 1.375 . S
C92 C98 1.404 . S
C93 C92 1.375 . S
C93 C94 1.369 . S
C93 H106 0.950 . S
C94 C93 1.369 . S
C94 C95 1.392 . S
C94 H107 0.951 . S
C95 C94 1.392 . S
C95 C97 1.384 . S
H96 C98 0.949 . S
C97 C95 1.384 . S
C97 C98 1.385 . S
C97 H99 0.950 . S
C98 C92 1.404 . S
C98 H96 0.949 . S
C98 C97 1.385 . S
H99 C97 0.950 . S
H100 C84 0.951 . S
H101 C86 0.951 . S
H102 C88 0.951 . S
H103 C89 0.950 . S
H104 C90 0.950 . S
H105 C91 0.950 . S
H106 C93 0.950 . S
H107 C94 0.951 . S
C108 C109 1.386 . S
C108 C110 1.383 . S
C108 H124 0.951 . S
C109 C108 1.386 . S
C109 C113 1.383 . S
C110 C108 1.383 . S
C110 C111 1.402 . S
C110 H125 0.951 . S
C111 C110 1.402 . S
C111 C112 1.375 . S
C111 C114 1.481 . S
C112 C111 1.375 . S
C112 C113 1.367 . S
C112 H126 0.951 . S
C113 C109 1.383 . S
C113 C112 1.367 . S
C113 H127 0.950 . S
C114 C111 1.481 . S
C114 C115 1.297 . S
C114 H128 0.950 . S
C115 C114 1.297 . S
C115 C116 1.479 . S
C115 H129 0.950 . S
C116 C115 1.479 . S
C116 C117 1.375 . S
C116 C122 1.404 . S
C117 C116 1.375 . S
C117 C118 1.369 . S
C117 H130 0.950 . S
C118 C117 1.369 . S
C118 C119 1.392 . S
C118 H131 0.951 . S
C119 C118 1.392 . S
C119 C121 1.384 . S
H120 C122 0.949 . S
C121 C119 1.384 . S
C121 C122 1.385 . S
C121 H123 0.950 . S
C122 C116 1.404 . S
C122 H120 0.949 . S
C122 C121 1.385 . S
H123 C121 0.950 . S
H124 C108 0.951 . S
H125 C110 0.951 . S
H126 C112 0.951 . S
H127 C113 0.950 . S
H128 C114 0.950 . S
H129 C115 0.950 . S
H130 C117 0.950 . S
H131 C118 0.951 . S
C132 C133 1.386 . S
C132 C134 1.383 . S
C132 H148 0.951 . S
C133 C132 1.386 . S
C133 C137 1.383 . S
C134 C132 1.383 . S
C134 C135 1.402 . S
C134 H149 0.951 . S
C135 C134 1.402 . S
C135 C136 1.375 . S
C135 C138 1.481 . S
C136 C135 1.375 . S
C136 C137 1.367 . S
C136 H150 0.951 . S
C137 C133 1.383 . S
C137 C136 1.367 . S
C137 H151 0.950 . S
C138 C135 1.481 . S
C138 C139 1.297 . S
C138 H152 0.950 . S
C139 C138 1.297 . S
C139 C140 1.479 . S
C139 H153 0.950 . S
C140 C139 1.479 . S
C140 C141 1.375 . S
C140 C146 1.404 . S
C141 C140 1.375 . S
C141 C142 1.369 . S
C141 H154 0.950 . S
C142 C141 1.369 . S
C142 C143 1.392 . S
C142 H155 0.951 . S
C143 C142 1.392 . S
C143 C145 1.384 . S
H144 C146 0.949 . S
C145 C143 1.384 . S
C145 C146 1.385 . S
C145 H147 0.950 . S
C146 C140 1.404 . S
C146 H144 0.949 . S
C146 C145 1.385 . S
H147 C145 0.950 . S
H148 C132 0.951 . S
H149 C134 0.951 . S
H150 C136 0.951 . S
H151 C137 0.950 . S
H152 C138 0.950 . S
H153 C139 0.950 . S
H154 C141 0.950 . S
H155 C142 0.951 . S
C156 C157 1.386 . S
C156 C158 1.383 . S
C156 H172 0.951 . S
C157 C156 1.386 . S
C157 C161 1.383 . S
C158 C156 1.383 . S
C158 C159 1.402 . S
C158 H173 0.951 . S
C159 C158 1.402 . S
C159 C160 1.375 . S
C159 C162 1.481 . S
C160 C159 1.375 . S
C160 C161 1.367 . S
C160 H174 0.951 . S
C161 C157 1.383 . S
C161 C160 1.367 . S
C161 H175 0.950 . S
C162 C159 1.481 . S
C162 C163 1.297 . S
C162 H176 0.950 . S
C163 C162 1.297 . S
C163 C164 1.479 . S
C163 H177 0.950 . S
C164 C163 1.479 . S
C164 C165 1.375 . S
C164 C170 1.404 . S
C165 C164 1.375 . S
C165 C166 1.369 . S
C165 H178 0.950 . S
C166 C165 1.369 . S
C166 C167 1.392 . S
C166 H179 0.951 . S
C167 C166 1.392 . S
C167 C169 1.384 . S
H168 C170 0.949 . S
C169 C167 1.384 . S
C169 C170 1.385 . S
C169 H171 0.950 . S
C170 C164 1.404 . S
C170 H168 0.949 . S
C170 C169 1.385 . S
H171 C169 0.950 . S
H172 C156 0.951 . S
H173 C158 0.951 . S
H174 C160 0.951 . S
H175 C161 0.950 . S
H176 C162 0.950 . S
H177 C163 0.950 . S
H178 C165 0.950 . S
H179 C166 0.951 . S
C180 C181 1.386 . S
C180 C182 1.383 . S
C180 H196 0.951 . S
C181 C180 1.386 . S
C181 C185 1.383 . S
C182 C180 1.383 . S
C182 C183 1.402 . S
C182 H197 0.951 . S
C183 C182 1.402 . S
C183 C184 1.375 . S
C183 C186 1.481 . S
C184 C183 1.375 . S
C184 C185 1.367 . S
C184 H198 0.951 . S
C185 C181 1.383 . S
C185 C184 1.367 . S
C185 H199 0.950 . S
C186 C183 1.481 . S
C186 C187 1.297 . S
C186 H200 0.950 . S
C187 C186 1.297 . S
C187 C188 1.479 . S
C187 H201 0.950 . S
C188 C187 1.479 . S
C188 C189 1.375 . S
C188 C194 1.404 . S
C189 C188 1.375 . S
C189 C190 1.369 . S
C189 H202 0.950 . S
C190 C189 1.369 . S
C190 C191 1.392 . S
C190 H203 0.951 . S
C191 C190 1.392 . S
C191 C193 1.384 . S
H192 C194 0.949 . S
C193 C191 1.384 . S
C193 C194 1.385 . S
C193 H195 0.950 . S
C194 C188 1.404 . S
C194 H192 0.949 . S
C194 C193 1.385 . S
H195 C193 0.950 . S
H196 C180 0.951 . S
H197 C182 0.951 . S
H198 C184 0.951 . S
H199 C185 0.950 . S
H200 C186 0.950 . S
H201 C187 0.950 . S
H202 C189 0.950 . S
H203 C190 0.951 . S
C204 C205 1.386 . S
C204 C206 1.383 . S
C204 H220 0.951 . S
C205 C204 1.386 . S
C205 C209 1.383 . S
C206 C204 1.383 . S
C206 C207 1.402 . S
C206 H221 0.951 . S
C207 C206 1.402 . S
C207 C208 1.375 . S
C207 C210 1.481 . S
C208 C207 1.375 . S
C208 C209 1.367 . S
C208 H222 0.951 . S
C209 C205 1.383 . S
C209 C208 1.367 . S
C209 H223 0.950 . S
C210 C207 1.481 . S
C210 C211 1.297 . S
C210 H224 0.950 . S
C211 C210 1.297 . S
C211 C212 1.479 . S
C211 H225 0.950 . S
C212 C211 1.479 . S
C212 C213 1.375 . S
C212 C218 1.404 . S
C213 C212 1.375 . S
C213 C214 1.369 . S
C213 H226 0.950 . S
C214 C213 1.369 . S
C214 C215 1.392 . S
C214 H227 0.951 . S
C215 C214 1.392 . S
C215 C217 1.384 . S
H216 C218 0.949 . S
C217 C215 1.384 . S
C217 C218 1.385 . S
C217 H219 0.950 . S
C218 C212 1.404 . S
C218 H216 0.949 . S
C218 C217 1.385 . S
H219 C217 0.950 . S
H220 C204 0.951 . S
H221 C206 0.951 . S
H222 C208 0.951 . S
H223 C209 0.950 . S
H224 C210 0.950 . S
H225 C211 0.950 . S
H226 C213 0.950 . S
H227 C214 0.951 . S
C228 C229 1.386 . S
C228 C230 1.383 . S
C228 H244 0.951 . S
C229 C228 1.386 . S
C229 C233 1.383 . S
C230 C228 1.383 . S
C230 C231 1.402 . S
C230 H245 0.951 . S
C231 C230 1.402 . S
C231 C232 1.375 . S
C231 C234 1.481 1_565 S
C232 C231 1.375 . S
C232 C233 1.367 . S
C232 H246 0.951 1_565 S
C233 C229 1.383 . S
C233 C232 1.367 . S
C233 H247 0.950 . S
C234 C231 1.481 1_545 S
C234 C235 1.297 1_556 S
C234 H248 0.950 . S
C235 C234 1.297 1_554 S
C235 C236 1.479 . S
C235 H249 0.950 1_545 S
C236 C235 1.479 . S
C236 C237 1.375 . S
C236 C242 1.404 . S
C237 C236 1.375 . S
C237 C238 1.369 . S
C237 H250 0.950 1_545 S
C238 C237 1.369 . S
C238 C239 1.392 . S
C238 H251 0.951 . S
C239 C238 1.392 . S
C239 C241 1.384 . S
H240 C242 0.949 . S
C241 C239 1.384 . S
C241 C242 1.385 . S
C241 H243 0.950 . S
C242 C236 1.404 . S
C242 H240 0.949 . S
C242 C241 1.385 . S
H243 C241 0.950 . S
H244 C228 0.951 . S
H245 C230 0.951 . S
H246 C232 0.951 1_545 S
H247 C233 0.950 . S
H248 C234 0.950 . S
H249 C235 0.950 1_565 S
H250 C237 0.950 1_565 S
H251 C238 0.951 . S
C252 C253 1.386 . S
C252 C254 1.383 . S
C252 H268 0.951 . S
C253 C252 1.386 . S
C253 C257 1.383 . S
C254 C252 1.383 . S
C254 C255 1.402 . S
C254 H269 0.951 . S
C255 C254 1.402 . S
C255 C256 1.375 . S
C255 C258 1.481 . S
C256 C255 1.375 . S
C256 C257 1.367 . S
C256 H270 0.951 . S
C257 C253 1.383 . S
C257 C256 1.367 . S
C257 H271 0.950 . S
C258 C255 1.481 . S
C258 C259 1.297 . S
C258 H272 0.950 . S
C259 C258 1.297 . S
C259 C260 1.479 . S
C259 H273 0.950 . S
C260 C259 1.479 . S
C260 C261 1.375 . S
C260 C266 1.404 . S
C261 C260 1.375 . S
C261 C262 1.369 . S
C261 H274 0.950 . S
C262 C261 1.369 . S
C262 C263 1.392 . S
C262 H275 0.951 . S
C263 C262 1.392 . S
C263 C265 1.384 . S
H264 C266 0.949 . S
C265 C263 1.384 . S
C265 C266 1.385 . S
C265 H267 0.950 . S
C266 C260 1.404 . S
C266 H264 0.949 . S
C266 C265 1.385 . S
H267 C265 0.950 . S
H268 C252 0.951 . S
H269 C254 0.951 . S
H270 C256 0.951 . S
H271 C257 0.950 . S
H272 C258 0.950 . S
H273 C259 0.950 . S
H274 C261 0.950 . S
H275 C262 0.951 . S
C276 C277 1.386 . S
C276 C278 1.383 . S
C276 H292 0.951 . S
C277 C276 1.386 . S
C277 C281 1.383 . S
C278 C276 1.383 . S
C278 C279 1.402 . S
C278 H293 0.951 . S
C279 C278 1.402 . S
C279 C280 1.375 . S
C279 C282 1.481 . S
C280 C279 1.375 . S
C280 C281 1.367 . S
C280 H294 0.951 . S
C281 C277 1.383 . S
C281 C280 1.367 . S
C281 H295 0.950 . S
C282 C279 1.481 . S
C282 C283 1.297 1_556 S
C282 H296 0.950 1_455 S
C283 C282 1.297 1_554 S
C283 C284 1.479 1_455 S
C283 H297 0.950 . S
C284 C283 1.479 1_655 S
C284 C285 1.375 . S
C284 C290 1.404 . S
C285 C284 1.375 . S
C285 C286 1.369 . S
C285 H298 0.950 . S
C286 C285 1.369 . S
C286 C287 1.392 . S
C286 H299 0.951 . S
C287 C286 1.392 . S
C287 C289 1.384 . S
H288 C290 0.949 . S
C289 C287 1.384 . S
C289 C290 1.385 . S
C289 H291 0.950 . S
C290 C284 1.404 . S
C290 H288 0.949 . S
C290 C289 1.385 . S
H291 C289 0.950 . S
H292 C276 0.951 . S
H293 C278 0.951 . S
H294 C280 0.951 . S
H295 C281 0.950 . S
H296 C282 0.950 1_655 S
H297 C283 0.950 . S
H298 C285 0.950 . S
H299 C286 0.951 . S
C300 C301 1.386 . S
C300 C302 1.383 . S
C300 H316 0.951 . S
C301 C300 1.386 . S
C301 C305 1.383 . S
C302 C300 1.383 . S
C302 C303 1.402 . S
C302 H317 0.951 . S
C303 C302 1.402 . S
C303 C304 1.375 . S
C303 C306 1.481 1_545 S
C304 C303 1.375 . S
C304 C305 1.367 . S
C304 H318 0.951 1_545 S
C305 C301 1.383 . S
C305 C304 1.367 . S
C305 H319 0.950 . S
C306 C303 1.481 1_565 S
C306 C307 1.297 . S
C306 H320 0.950 . S
C307 C306 1.297 . S
C307 C308 1.479 . S
C307 H321 0.964 . S
C308 C307 1.479 . S
C308 C309 1.375 . S
C308 C314 1.404 . S
C309 C308 1.375 . S
C309 C310 1.369 . S
C309 H322 0.950 . S
C310 C309 1.369 . S
C310 C311 1.392 . S
C310 H323 0.951 . S
C311 C310 1.392 . S
C311 C313 1.384 . S
H312 C314 0.949 . S
C313 C311 1.384 . S
C313 C314 1.385 . S
C313 H315 0.950 . S
C314 C308 1.404 . S
C314 H312 0.949 . S
C314 C313 1.385 . S
H315 C313 0.950 . S
H316 C300 0.951 . S
H317 C302 0.951 . S
H318 C304 0.951 1_565 S
H319 C305 0.950 . S
H320 C306 0.950 . S
H321 C307 0.964 . S
H322 C309 0.950 . S
H323 C310 0.951 . S
C324 C325 1.386 . S
C324 C326 1.383 . S
C324 H340 0.951 . S
C325 C324 1.386 . S
C325 C329 1.383 . S
C326 C324 1.383 . S
C326 C327 1.402 . S
C326 H341 0.951 . S
C327 C326 1.402 . S
C327 C328 1.375 . S
C327 C330 1.494 . S
C328 C327 1.375 . S
C328 C329 1.367 . S
C328 H342 0.951 . S
C329 C325 1.383 . S
C329 C328 1.367 . S
C329 H343 0.950 . S
C330 C327 1.494 . S
C330 C331 1.294 1_556 S
C330 H344 0.939 1_556 S
C331 C330 1.294 1_554 S
C331 C332 1.479 . S
C331 H345 0.950 1_554 S
C332 C331 1.479 . S
C332 C333 1.375 . S
C332 C338 1.404 . S
C333 C332 1.375 . S
C333 C334 1.369 . S
C333 H346 0.950 . S
C334 C333 1.369 . S
C334 C335 1.392 . S
C334 H347 0.951 . S
C335 C334 1.392 . S
C335 C337 1.384 . S
H336 C338 0.949 . S
C337 C335 1.384 . S
C337 C338 1.385 . S
C337 H339 0.950 . S
C338 C332 1.404 . S
C338 H336 0.949 . S
C338 C337 1.385 . S
H339 C337 0.950 . S
H340 C324 0.951 . S
H341 C326 0.951 . S
H342 C328 0.951 . S
H343 C329 0.950 . S
H344 C330 0.939 1_554 S
H345 C331 0.950 1_556 S
H346 C333 0.950 . S
H347 C334 0.951 . S
C348 C349 1.386 . S
C348 C350 1.383 . S
C348 H364 0.951 . S
C349 C348 1.386 . S
C349 C353 1.383 . S
C350 C348 1.383 . S
C350 C351 1.402 . S
C350 H365 0.951 . S
C351 C350 1.402 . S
C351 C352 1.375 . S
C351 C354 1.481 . S
C352 C351 1.375 . S
C352 C353 1.367 . S
C352 H366 0.951 . S
C353 C349 1.383 . S
C353 C352 1.367 . S
C353 H367 0.950 . S
C354 C351 1.481 . S
C354 C355 1.297 1_455 S
C354 H368 0.950 . S
C355 C354 1.297 1_655 S
C355 C356 1.479 . S
C355 H369 0.950 . S
C356 C355 1.479 . S
C356 C357 1.375 . S
C356 C362 1.404 . S
C357 C356 1.375 . S
C357 C358 1.369 . S
C357 H370 0.950 . S
C358 C357 1.369 . S
C358 C359 1.392 . S
C358 H371 0.951 . S
C359 C358 1.392 . S
C359 C361 1.384 . S
H360 C362 0.949 1_455 S
C361 C359 1.384 . S
C361 C362 1.385 . S
C361 H363 0.950 . S
C362 C356 1.404 . S
C362 H360 0.949 1_655 S
C362 C361 1.385 . S
H363 C361 0.950 . S
H364 C348 0.951 . S
H365 C350 0.951 . S
H366 C352 0.951 . S
H367 C353 0.950 . S
H368 C354 0.950 . S
H369 C355 0.950 . S
H370 C357 0.950 . S
H371 C358 0.951 . S
C85 C9 1.238 . S
C95 C64 1.226 . S
C109 C23 1.238 . S
C119 C78 1.210 . S
C133 C8 1.237 . S
C143 C36 1.229 . S
C157 C50 1.200 . S
C167 C22 1.216 . S
C181 C65 1.233 . S
C191 C37 1.238 . S
C205 C51 1.217 . S
C215 C79 1.180 . S
C229 C49 1.448 . S
C239 C7 1.377 . S
C253 C62 1.449 . S
C263 C21 1.376 . S
C277 C76 1.404 . S
C287 C34 1.452 . S
C301 C6 1.457 . S
C311 C48 1.373 . S
C325 C20 1.421 . S
C335 C63 1.461 . S
C349 C77 1.408 . S
C359 C35 1.473 . S
