# Generated by pormake.
# Topology mdf, (4)-cn, num edge types: 1
# Building blocks:
#     Node 0, Type 0, BuildingBlock: QUQFOY_clean_sbu_1, # of connection points: 4
#     Node 1, Type 0, BuildingBlock: QUQFOY_clean_sbu_1, # of connection points: 4
#     Node 2, Type 0, BuildingBlock: QUQFOY_clean_sbu_1, # of connection points: 4
#     Node 3, Type 0, BuildingBlock: QUQFOY_clean_sbu_1, # of connection points: 4
#     Node 4, Type 0, BuildingBlock: QUQFOY_clean_sbu_1, # of connection points: 4
#     Node 5, Type 0, BuildingBlock: QUQFOY_clean_sbu_1, # of connection points: 4
#     Node 6, Type 0, BuildingBlock: QUQFOY_clean_sbu_1, # of connection points: 4
#     Node 7, Type 0, BuildingBlock: QUQFOY_clean_sbu_1, # of connection points: 4
#     Edge 8, Type (0, 0), BuildingBlock: UVAHIK_clean_linker_0, # of connection points: 2
#     Edge 9, Type (0, 0), BuildingBlock: UVAHIK_clean_linker_0, # of connection points: 2
#     Edge 10, Type (0, 0), BuildingBlock: UVAHIK_clean_linker_0, # of connection points: 2
#     Edge 11, Type (0, 0), BuildingBlock: UVAHIK_clean_linker_0, # of connection points: 2
#     Edge 12, Type (0, 0), BuildingBlock: UVAHIK_clean_linker_0, # of connection points: 2
#     Edge 13, Type (0, 0), BuildingBlock: UVAHIK_clean_linker_0, # of connection points: 2
#     Edge 14, Type (0, 0), BuildingBlock: UVAHIK_clean_linker_0, # of connection points: 2
#     Edge 15, Type (0, 0), BuildingBlock: UVAHIK_clean_linker_0, # of connection points: 2
#     Edge 16, Type (0, 0), BuildingBlock: UVAHIK_clean_linker_0, # of connection points: 2
#     Edge 17, Type (0, 0), BuildingBlock: UVAHIK_clean_linker_0, # of connection points: 2
#     Edge 18, Type (0, 0), BuildingBlock: UVAHIK_clean_linker_0, # of connection points: 2
#     Edge 19, Type (0, 0), BuildingBlock: UVAHIK_clean_linker_0, # of connection points: 2
#     Edge 20, Type (0, 0), BuildingBlock: UVAHIK_clean_linker_0, # of connection points: 2
#     Edge 21, Type (0, 0), BuildingBlock: UVAHIK_clean_linker_0, # of connection points: 2
#     Edge 22, Type (0, 0), BuildingBlock: UVAHIK_clean_linker_0, # of connection points: 2
#     Edge 23, Type (0, 0), BuildingBlock: UVAHIK_clean_linker_0, # of connection points: 2
# Relax obj value: 0.009
# Max RMSD: 0.069
# Mean RMSD: 0.069
data_MOF--net-mdf--node1-QUQFOY_clean_sbu_1--edge1-UVAHIK_clean_linker_0
_symmetry_space_group_name_H-M    P1
_symmetry_Int_Tables_number       1
_symmetry_cell_setting            triclinic
loop_
_symmetry_equiv_pos_as_xyz
'x, y, z'
_cell_length_a     50.73867
_cell_length_b     50.807511
_cell_length_c     15.684593
_cell_angle_alpha  90.021983
_cell_angle_beta   90.039471
_cell_angle_gamma 89.998769
loop_
_atom_site_label
_atom_site_type_symbol
_atom_site_fract_x
_atom_site_fract_y
_atom_site_fract_z
_atom_type_partial_charge
O0 O 0.2951 0.50124 0.33925 0.0
Cd1 Cd 0.26508 0.52506 0.29503 0.0
Cd2 Cd 0.25227 0.52607 0.46041 0.0
O3 O 0.28868 0.50823 0.47649 0.0
O4 O 0.27669 0.53925 0.18234 0.0
O5 O 0.27175 0.56406 0.2973 0.0
C6 C 0.27864 0.56202 0.21826 0.0
C7 C 0.23876 0.56257 0.54015 0.0
C8 C 0.3021 0.49801 0.41643 0.0
C9 C 0.21477 0.49851 0.34094 0.0
O10 O 0.22188 0.50253 0.41755 0.0
O11 O 0.22834 0.50777 0.27971 0.0
O12 O 0.23997 0.53938 0.57341 0.0
O13 O 0.24655 0.56529 0.46223 0.0
O14 O 0.51437 0.72105 0.66653 0.0
Cd15 Cd 0.49039 0.75089 0.71097 0.0
Cd16 Cd 0.48936 0.76387 0.5455 0.0
O17 O 0.50739 0.72758 0.52932 0.0
O18 O 0.47535 0.73879 0.82204 0.0
O19 O 0.45139 0.74447 0.70546 0.0
C20 C 0.45281 0.73711 0.7842 0.0
C21 C 0.45301 0.77737 0.46465 0.0
C22 C 0.51764 0.71414 0.5893 0.0
C23 C 0.51676 0.80127 0.66609 0.0
O24 O 0.51271 0.79425 0.58939 0.0
O25 O 0.50759 0.78758 0.72721 0.0
O26 O 0.47633 0.77629 0.43217 0.0
O27 O 0.45007 0.76949 0.54237 0.0
O28 O 0.29594 0.01373 0.91068 0.0
Cd29 Cd 0.26566 0.99076 0.95743 0.0
Cd30 Cd 0.25219 0.98992 0.79204 0.0
O31 O 0.28856 0.00761 0.77357 0.0
O32 O 0.27855 0.9776 0.06988 0.0
O33 O 0.27077 0.95147 0.95989 0.0
C34 C 0.27911 0.95429 0.03724 0.0
C35 C 0.23828 0.95344 0.7129 0.0
C36 C 0.30253 0.01726 0.83334 0.0
C37 C 0.21558 0.01803 0.91377 0.0
O38 O 0.22213 0.01355 0.83689 0.0
O39 O 0.22948 0.00896 0.97462 0.0
O40 O 0.2392 0.97666 0.67978 0.0
O41 O 0.24649 0.95069 0.79039 0.0
O42 O 1.00184 0.71991 0.09113 0.0
Cd43 Cd 0.02486 0.75008 0.04402 0.0
Cd44 Cd 0.02586 0.76365 0.20932 0.0
O45 O 1.00808 0.72737 0.22813 0.0
O46 O 0.03805 0.73712 0.93172 0.0
O47 O 0.0642 0.74498 0.04172 0.0
C48 C 0.06139 0.7366 0.96442 0.0
C49 C 0.06239 0.77754 0.28855 0.0
C50 C 0.99835 0.7134 0.16856 0.0
C51 C 0.99771 0.80018 0.08743 0.0
O52 O 1.00226 0.79369 0.16432 0.0
O53 O 1.00668 0.78623 0.02662 0.0
O54 O 0.03913 0.77666 0.32156 0.0
O55 O 0.06516 0.76929 0.21112 0.0
O56 O 0.79455 1.00126 0.83943 0.0
Cd57 Cd 0.76464 0.02479 0.79291 0.0
Cd58 Cd 0.75079 0.02492 0.95782 0.0
O59 O 0.78697 1.00686 0.97662 0.0
O60 O 0.77786 0.03791 0.68085 0.0
O61 O 0.77032 0.06401 0.79103 0.0
C62 C 0.77868 0.06117 0.71376 0.0
C63 C 0.73714 0.06147 0.03694 0.0
C64 C 0.80095 0.99732 0.91677 0.0
C65 C 0.71419 0.99777 0.83407 0.0
O66 O 0.72063 1.00169 0.91138 0.0
O67 O 0.72827 1.00711 0.77417 0.0
O68 O 0.73772 0.03821 0.06985 0.0
O69 O 0.74554 0.0642 0.95968 0.0
O70 O 0.01457 0.22101 0.16339 0.0
Cd71 Cd 0.99109 0.25084 0.21052 0.0
Cd72 Cd 0.99102 0.26502 0.04576 0.0
O73 O 0.00909 0.22891 0.02634 0.0
O74 O 0.97803 0.23747 0.32243 0.0
O75 O 0.9518 0.24526 0.21265 0.0
C76 C 0.9547 0.23676 0.28974 0.0
C77 C 0.95448 0.27883 0.96658 0.0
C78 C 0.01856 0.21479 0.08595 0.0
C79 C 0.01823 0.30128 0.1704 0.0
O80 O 0.01427 0.29503 0.09295 0.0
O81 O 0.00889 0.28707 0.22998 0.0
O82 O 0.97779 0.27831 0.93387 0.0
O83 O 0.95168 0.27029 0.04365 0.0
O84 O 0.79463 0.51284 0.41819 0.0
Cd85 Cd 0.7641 0.4896 0.46141 0.0
Cd86 Cd 0.75171 0.48958 0.29551 0.0
O87 O 0.78846 0.50685 0.28048 0.0
O88 O 0.7762 0.47639 0.5748 0.0
O89 O 0.76962 0.45037 0.46377 0.0
C90 C 0.77734 0.45316 0.54178 0.0
C91 C 0.73826 0.45252 0.21877 0.0
C92 C 0.80191 0.51644 0.34155 0.0
C93 C 0.71439 0.51737 0.41456 0.0
O94 O 0.72156 0.51355 0.33784 0.0
O95 O 0.72771 0.50765 0.47575 0.0
O96 O 0.74034 0.47524 0.18265 0.0
O97 O 0.74496 0.45058 0.29801 0.0
O98 O 0.50343 0.22094 0.58739 0.0
Cd99 Cd 0.52658 0.25146 0.54375 0.0
Cd100 Cd 0.52653 0.26382 0.70982 0.0
O101 O 0.50932 0.22709 0.7252 0.0
O102 O 0.53962 0.23939 0.43009 0.0
O103 O 0.56586 0.24601 0.54061 0.0
C104 C 0.56295 0.23829 0.46268 0.0
C105 C 0.56422 0.27739 0.78322 0.0
C106 C 0.49979 0.21365 0.664 0.0
C107 C 0.49868 0.30105 0.59074 0.0
O108 O 0.50248 0.29387 0.66746 0.0
O109 O 0.50846 0.28779 0.52955 0.0
O110 O 0.54174 0.27552 0.82123 0.0
O111 O 0.56554 0.27029 0.70421 0.0
C112 C 0.42997 0.72188 0.917 0.0
C113 C 0.42994 0.72503 0.82793 0.0
C114 C 0.40988 0.70774 0.95743 0.0
C115 C 0.36591 0.65301 0.91898 0.0
H116 H 0.32915 0.6759 0.12248 0.0
C117 C 0.29114 0.58448 0.08219 0.0
C118 C 0.29036 0.58448 0.17166 0.0
C119 C 0.30479 0.60413 0.03807 0.0
C120 C 0.33944 0.669 0.06635 0.0
H121 H 0.40843 0.71644 0.7117 0.0
H122 H 0.37365 0.69121 0.78232 0.0
H123 H 0.35957 0.70588 0.05087 0.0
H124 H 0.30278 0.60538 0.28515 0.0
H125 H 0.32755 0.63897 0.20892 0.0
H126 H 0.34726 0.61577 0.93599 0.0
C127 C 0.38914 0.69988 0.82071 0.0
C128 C 0.35673 0.6863 0.02508 0.0
C129 C 0.40896 0.71444 0.78044 0.0
C130 C 0.30286 0.60498 0.21609 0.0
C131 C 0.317 0.62435 0.17207 0.0
C132 C 0.34905 0.63555 0.96096 0.0
C133 C 0.38962 0.69606 0.90944 0.0
C134 C 0.37018 0.67843 0.95111 0.0
C135 C 0.31857 0.62397 0.08235 0.0
C136 C 0.33558 0.64321 0.03553 0.0
H137 H 0.44586 0.72982 0.95534 0.0
H138 H 0.4108 0.70497 0.02585 0.0
H139 H 0.37634 0.64628 0.86279 0.0
H140 H 0.28148 0.56905 0.04616 0.0
H141 H 0.30479 0.60347 0.9691 0.0
C142 C 0.43551 0.80092 0.33638 0.0
C143 C 0.43089 0.78929 0.41627 0.0
C144 C 0.41557 0.81484 0.29456 0.0
C145 C 0.35352 0.85051 0.33933 0.0
H146 H 0.35025 0.85448 0.09275 0.0
C147 C 0.30281 0.93642 0.16472 0.0
C148 C 0.29083 0.932 0.08517 0.0
C149 C 0.31641 0.91624 0.20633 0.0
C150 C 0.35052 0.85336 0.16168 0.0
H151 H 0.40128 0.78217 0.51313 0.0
H152 H 0.36623 0.80594 0.43917 0.0
H153 H 0.37982 0.82309 0.16019 0.0
H154 H 0.28282 0.90252 0.9886 0.0
H155 H 0.30604 0.86706 0.0622 0.0
H156 H 0.32395 0.88052 0.34083 0.0
C157 C 0.38548 0.80482 0.40966 0.0
C158 C 0.36781 0.83556 0.20047 0.0
C159 C 0.40552 0.791 0.45181 0.0
C160 C 0.29192 0.90662 0.04967 0.0
C161 C 0.30542 0.88633 0.09162 0.0
C162 C 0.33609 0.86818 0.30053 0.0
C163 C 0.39038 0.81736 0.33118 0.0
C164 C 0.36997 0.83427 0.28984 0.0
C165 C 0.31826 0.891 0.16984 0.0
C166 C 0.33474 0.87025 0.21116 0.0
H167 H 0.45484 0.80009 0.30724 0.0
H168 H 0.42029 0.8245 0.23497 0.0
H169 H 0.35472 0.85031 0.40825 0.0
H170 H 0.30246 0.95575 0.19382 0.0
H171 H 0.32632 0.92079 0.26569 0.0
C172 C 0.08017 0.80139 0.41586 0.0
C173 C 0.08463 0.78953 0.33619 0.0
C174 C 0.10026 0.81521 0.45726 0.0
C175 C 0.1627 0.85012 0.41192 0.0
H176 H 0.16601 0.85436 0.65846 0.0
C177 C 0.21441 0.93565 0.58558 0.0
C178 C 0.22629 0.93122 0.66527 0.0
C179 C 0.2006 0.91557 0.54419 0.0
C180 C 0.16574 0.85316 0.58955 0.0
H181 H 0.11409 0.78197 0.23919 0.0
H182 H 0.14941 0.80559 0.31245 0.0
H183 H 0.13609 0.82322 0.59136 0.0
H184 H 0.23389 0.9018 0.76232 0.0
H185 H 0.21029 0.86651 0.68907 0.0
H186 H 0.19262 0.87978 0.41011 0.0
C187 C 0.13016 0.8047 0.34211 0.0
C188 C 0.14824 0.83551 0.55093 0.0
C189 C 0.10997 0.79098 0.30036 0.0
C190 C 0.22487 0.90591 0.70113 0.0
C191 C 0.21115 0.88572 0.65939 0.0
C192 C 0.18034 0.86763 0.45054 0.0
C193 C 0.12544 0.81742 0.42046 0.0
C194 C 0.14606 0.83414 0.46158 0.0
C195 C 0.19842 0.89042 0.58102 0.0
C196 C 0.18171 0.8698 0.53989 0.0
H197 H 0.06086 0.80077 0.44521 0.0
H198 H 0.09566 0.82502 0.51672 0.0
H199 H 0.1615 0.84984 0.343 0.0
H200 H 0.21501 0.95493 0.55621 0.0
H201 H 0.19077 0.92015 0.48471 0.0
C202 C 0.0793 0.71277 0.83732 0.0
C203 C 0.08372 0.72488 0.91663 0.0
C204 C 0.09953 0.69919 0.79589 0.0
C205 C 0.16265 0.66544 0.84097 0.0
H206 H 0.16552 0.6607 0.59449 0.0
C207 C 0.21528 0.58033 0.66814 0.0
C208 C 0.22682 0.58476 0.58798 0.0
C209 C 0.20133 0.60031 0.70953 0.0
C210 C 0.16537 0.66206 0.66337 0.0
H211 H 0.11326 0.73315 0.01292 0.0
H212 H 0.14881 0.70997 0.9396 0.0
H213 H 0.13522 0.69148 0.66137 0.0
H214 H 0.23374 0.61408 0.49016 0.0
H215 H 0.20992 0.64921 0.56336 0.0
H216 H 0.19307 0.6363 0.84296 0.0
C217 C 0.12949 0.71046 0.91026 0.0
C218 C 0.14766 0.67949 0.70187 0.0
C219 C 0.10916 0.72394 0.95204 0.0
C220 C 0.22498 0.60999 0.55171 0.0
C221 C 0.21113 0.63007 0.59343 0.0
C222 C 0.18051 0.64815 0.80246 0.0
C223 C 0.12482 0.69749 0.8323 0.0
C224 C 0.14564 0.68103 0.79122 0.0
C225 C 0.19868 0.62536 0.67219 0.0
C226 C 0.18173 0.64579 0.71314 0.0
H227 H 0.05992 0.713 0.80831 0.0
H228 H 0.09498 0.68917 0.73675 0.0
H229 H 0.16158 0.66586 0.90989 0.0
H230 H 0.21621 0.56111 0.69785 0.0
H231 H 0.19174 0.59572 0.76935 0.0
C232 C 0.80256 0.07889 0.58652 0.0
C233 C 0.7907 0.08336 0.66619 0.0
C234 C 0.8164 0.09894 0.54516 0.0
C235 C 0.85144 0.16124 0.59067 0.0
H236 H 0.85545 0.16467 0.34413 0.0
C237 C 0.93702 0.21276 0.41678 0.0
C238 C 0.93249 0.22476 0.33737 0.0
C239 C 0.91694 0.19897 0.45818 0.0
C240 C 0.85431 0.16436 0.41305 0.0
H241 H 0.78319 0.1128 0.76325 0.0
H242 H 0.80684 0.14804 0.69011 0.0
H243 H 0.82429 0.13479 0.41119 0.0
H244 H 0.90291 0.23256 0.24083 0.0
H245 H 0.86761 0.20898 0.31407 0.0
H246 H 0.8812 0.19106 0.59254 0.0
C247 C 0.80593 0.12883 0.66039 0.0
C248 C 0.83666 0.14689 0.45163 0.0
C249 C 0.79218 0.10867 0.70208 0.0
C250 C 0.90709 0.22345 0.30179 0.0
C251 C 0.8869 0.20975 0.34353 0.0
C252 C 0.86897 0.17884 0.55209 0.0
C253 C 0.81863 0.1241 0.58204 0.0
C254 C 0.83537 0.14467 0.54098 0.0
C255 C 0.89169 0.19692 0.42163 0.0
C256 C 0.87106 0.18025 0.46274 0.0
H257 H 0.80192 0.05961 0.55711 0.0
H258 H 0.82619 0.09435 0.48568 0.0
H259 H 0.85123 0.16 0.65958 0.0
H260 H 0.95637 0.21327 0.44594 0.0
H261 H 0.92158 0.18907 0.51744 0.0
C262 C 0.93658 0.30282 0.83976 0.0
C263 C 0.93216 0.2907 0.919 0.0
C264 C 0.91637 0.31648 0.79842 0.0
C265 C 0.85335 0.3504 0.84346 0.0
H266 H 0.85035 0.35497 0.59696 0.0
C267 C 0.80075 0.43546 0.67009 0.0
C268 C 0.78919 0.43099 0.58992 0.0
C269 C 0.81468 0.4155 0.71166 0.0
C270 C 0.85053 0.35367 0.66585 0.0
H271 H 0.90266 0.28253 0.01533 0.0
H272 H 0.86714 0.30586 0.94218 0.0
H273 H 0.88063 0.32419 0.66394 0.0
H274 H 0.7822 0.40158 0.49231 0.0
H275 H 0.80596 0.36647 0.56584 0.0
H276 H 0.82298 0.3796 0.84535 0.0
C277 C 0.88644 0.3053 0.9128 0.0
C278 C 0.86824 0.33623 0.70441 0.0
C279 C 0.90675 0.29174 0.95449 0.0
C280 C 0.79097 0.40572 0.55386 0.0
C281 C 0.80479 0.38564 0.59576 0.0
C282 C 0.8355 0.3677 0.80489 0.0
C283 C 0.8911 0.31825 0.83487 0.0
C284 C 0.8703 0.33475 0.79376 0.0
C285 C 0.81728 0.39041 0.6745 0.0
C286 C 0.83423 0.36999 0.71556 0.0
H287 H 0.95594 0.30252 0.81069 0.0
H288 H 0.92092 0.32649 0.7393 0.0
H289 H 0.85446 0.35002 0.91239 0.0
H290 H 0.79988 0.45472 0.69963 0.0
H291 H 0.82429 0.42012 0.77146 0.0
C292 C 0.72585 0.42999 0.08262 0.0
C293 C 0.72656 0.43003 0.1721 0.0
C294 C 0.71221 0.41033 0.0384 0.0
C295 C 0.67753 0.34549 0.06633 0.0
H296 H 0.64066 0.3682 0.86261 0.0
C297 C 0.58714 0.29246 0.91623 0.0
C298 C 0.5871 0.28943 0.82711 0.0
C299 C 0.60722 0.3066 0.95682 0.0
C300 C 0.65108 0.36148 0.91883 0.0
H301 H 0.71406 0.40919 0.2855 0.0
H302 H 0.68932 0.37558 0.20906 0.0
H303 H 0.66972 0.39872 0.93609 0.0
H304 H 0.60852 0.29822 0.71096 0.0
H305 H 0.64329 0.32344 0.78187 0.0
H306 H 0.65745 0.30859 0.05059 0.0
C307 C 0.6999 0.39018 0.17231 0.0
C308 C 0.66793 0.37893 0.96097 0.0
C309 C 0.71402 0.40956 0.21644 0.0
C310 C 0.60803 0.30012 0.77973 0.0
C311 C 0.62785 0.31468 0.82017 0.0
C312 C 0.66026 0.32818 0.02488 0.0
C313 C 0.69839 0.39053 0.08257 0.0
C314 C 0.68138 0.37128 0.0356 0.0
C315 C 0.62741 0.3184 0.90896 0.0
C316 C 0.64683 0.33604 0.95084 0.0
H317 H 0.73554 0.4454 0.04665 0.0
H318 H 0.71224 0.41096 0.96942 0.0
H319 H 0.68782 0.3386 0.12252 0.0
H320 H 0.5713 0.28443 0.95448 0.0
H321 H 0.60633 0.30929 0.02528 0.0
C322 C 0.71335 0.07944 0.164 0.0
C323 C 0.72534 0.08379 0.0845 0.0
C324 C 0.69972 0.09965 0.20534 0.0
C325 C 0.66558 0.16247 0.16005 0.0
H326 H 0.66139 0.16572 0.40658 0.0
C327 C 0.58051 0.21488 0.33424 0.0
C328 C 0.5851 0.22651 0.4142 0.0
C329 C 0.60049 0.20101 0.29246 0.0
C330 C 0.66259 0.16547 0.33767 0.0
H331 H 0.73334 0.11317 0.98772 0.0
H332 H 0.71007 0.14869 0.06085 0.0
H333 H 0.69218 0.13549 0.33949 0.0
H334 H 0.61471 0.23372 0.51117 0.0
H335 H 0.64981 0.21007 0.43726 0.0
H336 H 0.63624 0.19272 0.15825 0.0
C337 C 0.7107 0.12945 0.09043 0.0
C338 C 0.68003 0.14779 0.29906 0.0
C339 C 0.72423 0.10913 0.04876 0.0
C340 C 0.61048 0.22488 0.4498 0.0
C341 C 0.63055 0.21113 0.40768 0.0
C342 C 0.64827 0.18029 0.19866 0.0
C343 C 0.69786 0.12485 0.16862 0.0
C344 C 0.68137 0.14563 0.20971 0.0
C345 C 0.62568 0.19856 0.32919 0.0
C346 C 0.64612 0.18165 0.28801 0.0
H347 H 0.71371 0.06014 0.19328 0.0
H348 H 0.6898 0.09516 0.26467 0.0
H349 H 0.66585 0.16129 0.09113 0.0
H350 H 0.56117 0.21565 0.30507 0.0
H351 H 0.59578 0.19134 0.23285 0.0
C352 C 0.33274 0.47621 0.52091 0.0
C353 C 0.32523 0.48116 0.43611 0.0
C354 C 0.35342 0.45886 0.53913 0.0
C355 C 0.41091 0.42471 0.44213 0.0
H356 H 0.40023 0.3751 0.62664 0.0
C357 C 0.47539 0.33154 0.48913 0.0
C358 C 0.48171 0.32423 0.57317 0.0
C359 C 0.45792 0.35232 0.47337 0.0
C360 C 0.40372 0.38903 0.57563 0.0
H361 H 0.3341 0.47214 0.3039 0.0
H362 H 0.36983 0.44177 0.33569 0.0
H363 H 0.36707 0.40859 0.59834 0.0
H364 H 0.47519 0.33371 0.7065 0.0
H365 H 0.44504 0.36995 0.67895 0.0
H366 H 0.44745 0.40481 0.41883 0.0
C367 C 0.35997 0.45151 0.3882 0.0
C368 C 0.38469 0.40828 0.55944 0.0
C369 C 0.33933 0.46884 0.36998 0.0
C370 C 0.47067 0.33864 0.64094 0.0
C371 C 0.45323 0.35936 0.62519 0.0
C372 C 0.42995 0.4054 0.45827 0.0
C373 C 0.36708 0.44604 0.47301 0.0
C374 C 0.38797 0.4263 0.49226 0.0
C375 C 0.44636 0.36624 0.5413 0.0
C376 C 0.42653 0.38727 0.52505 0.0
H377 H 0.3224 0.48543 0.57344 0.0
H378 H 0.35864 0.45542 0.60514 0.0
H379 H 0.41424 0.43849 0.3906 0.0
H380 H 0.48349 0.32086 0.43539 0.0
H381 H 0.45288 0.35696 0.40799 0.0
C382 C 0.68361 0.97568 0.72983 0.0
C383 C 0.69093 0.98107 0.81451 0.0
C384 C 0.66276 0.95847 0.71211 0.0
C385 C 0.6048 0.92528 0.81059 0.0
H386 H 0.61496 0.87495 0.62776 0.0
C387 C 0.54013 0.83193 0.76719 0.0
C388 C 0.53352 0.82463 0.68336 0.0
C389 C 0.55761 0.85276 0.78232 0.0
C390 C 0.61163 0.88908 0.67835 0.0
H391 H 0.6816 0.97295 0.94699 0.0
H392 H 0.64568 0.94279 0.91613 0.0
H393 H 0.64838 0.90829 0.65453 0.0
H394 H 0.53948 0.83419 0.54982 0.0
H395 H 0.56969 0.87044 0.57631 0.0
H396 H 0.56819 0.90563 0.83518 0.0
C397 C 0.65575 0.9521 0.86326 0.0
C398 C 0.6308 0.90826 0.69361 0.0
C399 C 0.67651 0.96932 0.88097 0.0
C400 C 0.54422 0.83912 0.61523 0.0
C401 C 0.5617 0.85984 0.63035 0.0
C402 C 0.58565 0.90601 0.79547 0.0
C403 C 0.64877 0.9462 0.77864 0.0
C404 C 0.62771 0.92656 0.76015 0.0
C405 C 0.56892 0.86668 0.71395 0.0
C406 C 0.58888 0.88762 0.72931 0.0
H407 H 0.6942 0.98447 0.67707 0.0
H408 H 0.65766 0.9547 0.64618 0.0
H409 H 0.60158 0.93928 0.86161 0.0
H410 H 0.53228 0.8212 0.82117 0.0
H411 H 0.56291 0.85742 0.84749 0.0
C412 C 0.04736 0.1773 0.13213 0.0
C413 C 0.03548 0.19175 0.06594 0.0
C414 C 0.06475 0.15672 0.11405 0.0
C415 C 0.10873 0.13231 0.94392 0.0
H416 H 0.11166 0.06955 0.0844 0.0
C417 C 0.17788 0.0459 0.86363 0.0
C418 C 0.19243 0.03505 0.93148 0.0
C419 C 0.15724 0.06345 0.8792 0.0
C420 C 0.1112 0.08705 0.045 0.0
H421 H 0.03205 0.19527 0.92856 0.0
H422 H 0.06211 0.15905 0.897 0.0
H423 H 0.07787 0.10273 0.11149 0.0
H424 H 0.19609 0.03367 0.06922 0.0
H425 H 0.15999 0.0644 0.09632 0.0
H426 H 0.14209 0.1167 0.87766 0.0
C427 C 0.05831 0.16398 0.96302 0.0
C428 C 0.09184 0.10609 0.0605 0.0
C429 C 0.04093 0.18465 0.98113 0.0
C430 C 0.18531 0.04164 0.01546 0.0
C431 C 0.16455 0.05917 0.03103 0.0
C432 C 0.12799 0.11325 0.92826 0.0
C433 C 0.07069 0.14996 0.0293 0.0
C434 C 0.09045 0.12904 0.01046 0.0
C435 C 0.15053 0.07057 0.96297 0.0
C436 C 0.12955 0.09045 0.97883 0.0
H437 H 0.04369 0.18221 0.19825 0.0
H438 H 0.07415 0.14662 0.16675 0.0
H439 H 0.1086 0.14993 0.90512 0.0
H440 H 0.18268 0.0412 0.79812 0.0
H441 H 0.14657 0.07153 0.82539 0.0
C442 C 0.97648 0.683 0.2736 0.0
C443 C 0.98169 0.69019 0.18872 0.0
C444 C 0.95929 0.66221 0.29194 0.0
C445 C 0.926 0.60408 0.19515 0.0
H446 H 0.8757 0.61468 0.37788 0.0
C447 C 0.83271 0.53943 0.24016 0.0
C448 C 0.8253 0.53315 0.32411 0.0
C449 C 0.85355 0.55687 0.22469 0.0
C450 C 0.88982 0.61122 0.32736 0.0
H451 H 0.9733 0.68063 0.05652 0.0
H452 H 0.9432 0.64477 0.08846 0.0
H453 H 0.90905 0.64802 0.35016 0.0
H454 H 0.83469 0.53966 0.45756 0.0
H455 H 0.87099 0.56977 0.4305 0.0
H456 H 0.90637 0.56743 0.17162 0.0
C457 C 0.95262 0.65493 0.141 0.0
C458 C 0.90901 0.63034 0.31153 0.0
C459 C 0.9698 0.67566 0.12268 0.0
C460 C 0.8397 0.54414 0.39206 0.0
C461 C 0.86045 0.56156 0.37661 0.0
C462 C 0.90674 0.58497 0.21087 0.0
C463 C 0.94689 0.64812 0.22584 0.0
C464 C 0.92727 0.6271 0.24498 0.0
C465 C 0.8674 0.56845 0.29283 0.0
C466 C 0.88836 0.58836 0.27699 0.0
H467 H 0.98537 0.69368 0.32606 0.0
H468 H 0.95564 0.65723 0.35801 0.0
H469 H 0.93997 0.60075 0.14413 0.0
H470 H 0.82205 0.53136 0.1863 0.0
H471 H 0.85828 0.56191 0.15939 0.0
C472 C 0.33308 0.03915 0.72875 0.0
C473 C 0.32581 0.03387 0.81352 0.0
C474 C 0.35394 0.05631 0.71077 0.0
C475 C 0.41207 0.08947 0.80846 0.0
H476 H 0.4016 0.13987 0.6261 0.0
C477 C 0.47672 0.18278 0.76501 0.0
C478 C 0.48309 0.19024 0.68118 0.0
C479 C 0.45928 0.16193 0.78013 0.0
C480 C 0.40502 0.12572 0.67653 0.0
H481 H 0.33529 0.04211 0.94588 0.0
H482 H 0.37125 0.07217 0.91456 0.0
H483 H 0.36821 0.10652 0.65312 0.0
H484 H 0.47677 0.18091 0.54759 0.0
H485 H 0.44665 0.1446 0.57407 0.0
H486 H 0.44873 0.10909 0.83263 0.0
C487 C 0.36111 0.06282 0.86183 0.0
C488 C 0.38587 0.10654 0.69195 0.0
C489 C 0.34032 0.04566 0.8798 0.0
C490 C 0.47221 0.17587 0.61301 0.0
C491 C 0.45478 0.15511 0.62813 0.0
C492 C 0.43121 0.10874 0.79317 0.0
C493 C 0.36801 0.06862 0.77712 0.0
C494 C 0.38907 0.08823 0.75836 0.0
C495 C 0.44779 0.14812 0.71176 0.0
C496 C 0.42786 0.12715 0.72719 0.0
H497 H 0.32241 0.03034 0.67612 0.0
H498 H 0.35897 0.06002 0.64478 0.0
H499 H 0.41536 0.07546 0.85939 0.0
H500 H 0.48471 0.19343 0.81901 0.0
H501 H 0.45416 0.15716 0.84534 0.0
C502 C 0.83828 0.96838 0.87004 0.0
C503 C 0.82402 0.98039 0.93642 0.0
C504 C 0.85888 0.95098 0.88786 0.0
C505 C 0.88362 0.90725 0.05809 0.0
H506 H 0.94609 0.90389 0.91608 0.0
C507 C 0.97008 0.83803 0.13751 0.0
C508 C 0.98073 0.82335 0.06969 0.0
C509 C 0.95256 0.85868 0.12199 0.0
C510 C 0.92867 0.90446 0.95591 0.0
H511 H 0.82088 0.98405 0.07383 0.0
H512 H 0.85714 0.95397 0.10492 0.0
H513 H 0.91291 0.9377 0.88922 0.0
H514 H 0.98178 0.81947 0.93198 0.0
H515 H 0.95108 0.85558 0.90494 0.0
H516 H 0.8993 0.87399 0.12455 0.0
C517 C 0.85204 0.95767 0.03897 0.0
C518 C 0.90964 0.92383 0.94055 0.0
C519 C 0.83135 0.97507 0.02113 0.0
C520 C 0.97397 0.83035 0.98573 0.0
C521 C 0.95645 0.85112 0.97019 0.0
C522 C 0.90267 0.88797 0.07361 0.0
C523 C 0.86586 0.94516 0.97252 0.0
C524 C 0.88678 0.92538 0.99116 0.0
C525 C 0.94525 0.86528 0.03827 0.0
C526 C 0.92537 0.88626 0.0225 0.0
H527 H 0.83319 0.97195 0.804 0.0
H528 H 0.86882 0.94148 0.83506 0.0
H529 H 0.86607 0.90749 0.09733 0.0
H530 H 0.97492 0.83333 0.20301 0.0
H531 H 0.94463 0.86946 0.17579 0.0
C532 C 0.04049 0.33149 0.27532 0.0
C533 C 0.03496 0.32445 0.19048 0.0
C534 C 0.05773 0.35227 0.29349 0.0
C535 C 0.09061 0.41057 0.19649 0.0
H536 H 0.14142 0.39995 0.37794 0.0
C537 C 0.18394 0.4753 0.23994 0.0
C538 C 0.19143 0.48168 0.32379 0.0
C539 C 0.16312 0.4578 0.22476 0.0
C540 C 0.12716 0.40341 0.32776 0.0
H541 H 0.04287 0.33423 0.05821 0.0
H542 H 0.07307 0.37004 0.08981 0.0
H543 H 0.10806 0.36656 0.35066 0.0
H544 H 0.18224 0.47525 0.45737 0.0
H545 H 0.146 0.44499 0.4308 0.0
H546 H 0.11013 0.44727 0.1728 0.0
C547 C 0.06385 0.35979 0.14248 0.0
C548 C 0.10797 0.38426 0.3122 0.0
C549 C 0.0466 0.33909 0.12434 0.0
C550 C 0.17715 0.4707 0.39194 0.0
C551 C 0.15644 0.4532 0.37677 0.0
C552 C 0.10989 0.4297 0.2119 0.0
C553 C 0.06987 0.36648 0.22724 0.0
C554 C 0.08951 0.38752 0.24612 0.0
C555 C 0.1494 0.44624 0.2931 0.0
C556 C 0.12845 0.4263 0.27756 0.0
H557 H 0.0318 0.32072 0.32786 0.0
H558 H 0.0616 0.35714 0.35953 0.0
H559 H 0.07649 0.41392 0.14586 0.0
H560 H 0.19451 0.48336 0.18595 0.0
H561 H 0.15832 0.4527 0.15954 0.0
C562 C 0.54691 0.67699 0.63558 0.0
C563 C 0.53456 0.69109 0.5695 0.0
C564 C 0.56424 0.65636 0.61729 0.0
C565 C 0.60735 0.6315 0.44584 0.0
H566 H 0.61071 0.56887 0.58673 0.0
C567 C 0.67676 0.54537 0.36438 0.0
C568 C 0.6912 0.53435 0.43214 0.0
C569 C 0.65607 0.56286 0.38014 0.0
C570 C 0.61015 0.58634 0.5472 0.0
H571 H 0.53023 0.69394 0.43219 0.0
H572 H 0.56023 0.65772 0.40037 0.0
H573 H 0.57713 0.60216 0.61501 0.0
H574 H 0.69466 0.53263 0.56991 0.0
H575 H 0.65861 0.5633 0.59733 0.0
H576 H 0.64046 0.61584 0.37848 0.0
C577 C 0.55682 0.66293 0.46639 0.0
C578 C 0.5909 0.60542 0.56338 0.0
C579 C 0.53948 0.6836 0.48469 0.0
C580 C 0.68396 0.54072 0.51618 0.0
C581 C 0.6632 0.55823 0.53195 0.0
C582 C 0.62655 0.61242 0.4296 0.0
C583 C 0.56966 0.64925 0.53247 0.0
C584 C 0.58935 0.62832 0.51316 0.0
C585 C 0.64925 0.56978 0.46403 0.0
C586 C 0.62828 0.58966 0.48029 0.0
H587 H 0.54364 0.68221 0.70167 0.0
H588 H 0.574 0.6465 0.66977 0.0
H589 H 0.60707 0.64909 0.40686 0.0
H590 H 0.68165 0.54082 0.29883 0.0
H591 H 0.64546 0.57104 0.32639 0.0
loop_
_geom_bond_atom_site_label_1
_geom_bond_atom_site_label_2
_geom_bond_distance
_geom_bond_site_symmetry_2
_ccdc_geom_bond_type
O0 Cd1 2.223 . S
O0 C8 1.315 . S
Cd1 O0 2.223 . S
Cd1 O4 2.297 . S
Cd1 O5 2.439 . S
Cd1 O11 2.240 . S
Cd2 O3 2.240 . S
Cd2 O10 2.223 . S
Cd2 O12 2.297 . S
Cd2 O13 2.439 . S
O3 Cd2 2.240 . S
O3 C8 1.279 . S
O4 Cd1 2.297 . S
O4 C6 1.247 . S
O5 Cd1 2.439 . S
O5 C6 1.208 . S
C6 O4 1.247 . S
C6 O5 1.208 . S
C7 O12 1.247 . S
C7 O13 1.208 . S
C8 O0 1.315 . S
C8 O3 1.279 . S
C9 O10 1.315 . S
C9 O11 1.279 . S
O10 Cd2 2.223 . S
O10 C9 1.315 . S
O11 Cd1 2.240 . S
O11 C9 1.279 . S
O12 Cd2 2.297 . S
O12 C7 1.247 . S
O13 Cd2 2.439 . S
O13 C7 1.208 . S
O14 Cd15 2.223 . S
O14 C22 1.315 . S
Cd15 O14 2.223 . S
Cd15 O18 2.297 . S
Cd15 O19 2.439 . S
Cd15 O25 2.240 . S
Cd16 O17 2.240 . S
Cd16 O24 2.223 . S
Cd16 O26 2.297 . S
Cd16 O27 2.439 . S
O17 Cd16 2.240 . S
O17 C22 1.279 . S
O18 Cd15 2.297 . S
O18 C20 1.247 . S
O19 Cd15 2.439 . S
O19 C20 1.208 . S
C20 O18 1.247 . S
C20 O19 1.208 . S
C21 O26 1.247 . S
C21 O27 1.208 . S
C22 O14 1.315 . S
C22 O17 1.279 . S
C23 O24 1.315 . S
C23 O25 1.279 . S
O24 Cd16 2.223 . S
O24 C23 1.315 . S
O25 Cd15 2.240 . S
O25 C23 1.279 . S
O26 Cd16 2.297 . S
O26 C21 1.247 . S
O27 Cd16 2.439 . S
O27 C21 1.208 . S
O28 Cd29 2.223 1_545 S
O28 C36 1.315 . S
Cd29 O28 2.223 1_565 S
Cd29 O32 2.297 1_556 S
Cd29 O33 2.439 . S
Cd29 O39 2.240 1_565 S
Cd30 O31 2.240 1_565 S
Cd30 O38 2.223 1_565 S
Cd30 O40 2.297 . S
Cd30 O41 2.439 . S
O31 Cd30 2.240 1_545 S
O31 C36 1.279 . S
O32 Cd29 2.297 1_554 S
O32 C34 1.247 . S
O33 Cd29 2.439 . S
O33 C34 1.208 1_556 S
C34 O32 1.247 . S
C34 O33 1.208 1_554 S
C35 O40 1.247 . S
C35 O41 1.208 . S
C36 O28 1.315 . S
C36 O31 1.279 . S
C37 O38 1.315 . S
C37 O39 1.279 . S
O38 Cd30 2.223 1_545 S
O38 C37 1.315 . S
O39 Cd29 2.240 1_545 S
O39 C37 1.279 . S
O40 Cd30 2.297 . S
O40 C35 1.247 . S
O41 Cd30 2.439 . S
O41 C35 1.208 . S
O42 Cd43 2.223 1_655 S
O42 C50 1.315 . S
Cd43 O42 2.223 1_455 S
Cd43 O46 2.297 1_554 S
Cd43 O47 2.439 . S
Cd43 O53 2.240 1_455 S
Cd44 O45 2.240 1_455 S
Cd44 O52 2.223 1_455 S
Cd44 O54 2.297 . S
Cd44 O55 2.439 . S
O45 Cd44 2.240 1_655 S
O45 C50 1.279 . S
O46 Cd43 2.297 1_556 S
O46 C48 1.247 . S
O47 Cd43 2.439 . S
O47 C48 1.208 1_554 S
C48 O46 1.247 . S
C48 O47 1.208 1_556 S
C49 O54 1.247 . S
C49 O55 1.208 . S
C50 O42 1.315 . S
C50 O45 1.279 . S
C51 O52 1.315 . S
C51 O53 1.279 . S
O52 Cd44 2.223 1_655 S
O52 C51 1.315 . S
O53 Cd43 2.240 1_655 S
O53 C51 1.279 . S
O54 Cd44 2.297 . S
O54 C49 1.247 . S
O55 Cd44 2.439 . S
O55 C49 1.208 . S
O56 Cd57 2.223 1_565 S
O56 C64 1.315 . S
Cd57 O56 2.223 1_545 S
Cd57 O60 2.297 . S
Cd57 O61 2.439 . S
Cd57 O67 2.240 1_545 S
Cd58 O59 2.240 1_545 S
Cd58 O66 2.223 1_545 S
Cd58 O68 2.297 1_556 S
Cd58 O69 2.439 . S
O59 Cd58 2.240 1_565 S
O59 C64 1.279 . S
O60 Cd57 2.297 . S
O60 C62 1.247 . S
O61 Cd57 2.439 . S
O61 C62 1.208 . S
C62 O60 1.247 . S
C62 O61 1.208 . S
C63 O68 1.247 . S
C63 O69 1.208 1_554 S
C64 O56 1.315 . S
C64 O59 1.279 . S
C65 O66 1.315 . S
C65 O67 1.279 . S
O66 Cd58 2.223 1_565 S
O66 C65 1.315 . S
O67 Cd57 2.240 1_565 S
O67 C65 1.279 . S
O68 Cd58 2.297 1_554 S
O68 C63 1.247 . S
O69 Cd58 2.439 . S
O69 C63 1.208 1_556 S
O70 Cd71 2.223 1_455 S
O70 C78 1.315 . S
Cd71 O70 2.223 1_655 S
Cd71 O74 2.297 . S
Cd71 O75 2.439 . S
Cd71 O81 2.240 1_655 S
Cd72 O73 2.240 1_655 S
Cd72 O80 2.223 1_655 S
Cd72 O82 2.297 1_554 S
Cd72 O83 2.439 . S
O73 Cd72 2.240 1_455 S
O73 C78 1.279 . S
O74 Cd71 2.297 . S
O74 C76 1.247 . S
O75 Cd71 2.439 . S
O75 C76 1.208 . S
C76 O74 1.247 . S
C76 O75 1.208 . S
C77 O82 1.247 . S
C77 O83 1.208 1_556 S
C78 O70 1.315 . S
C78 O73 1.279 . S
C79 O80 1.315 . S
C79 O81 1.279 . S
O80 Cd72 2.223 1_455 S
O80 C79 1.315 . S
O81 Cd71 2.240 1_455 S
O81 C79 1.279 . S
O82 Cd72 2.297 1_556 S
O82 C77 1.247 . S
O83 Cd72 2.439 . S
O83 C77 1.208 1_554 S
O84 Cd85 2.223 . S
O84 C92 1.315 . S
Cd85 O84 2.223 . S
Cd85 O88 2.297 . S
Cd85 O89 2.439 . S
Cd85 O95 2.240 . S
Cd86 O87 2.240 . S
Cd86 O94 2.223 . S
Cd86 O96 2.297 . S
Cd86 O97 2.439 . S
O87 Cd86 2.240 . S
O87 C92 1.279 . S
O88 Cd85 2.297 . S
O88 C90 1.247 . S
O89 Cd85 2.439 . S
O89 C90 1.208 . S
C90 O88 1.247 . S
C90 O89 1.208 . S
C91 O96 1.247 . S
C91 O97 1.208 . S
C92 O84 1.315 . S
C92 O87 1.279 . S
C93 O94 1.315 . S
C93 O95 1.279 . S
O94 Cd86 2.223 . S
O94 C93 1.315 . S
O95 Cd85 2.240 . S
O95 C93 1.279 . S
O96 Cd86 2.297 . S
O96 C91 1.247 . S
O97 Cd86 2.439 . S
O97 C91 1.208 . S
O98 Cd99 2.223 . S
O98 C106 1.315 . S
Cd99 O98 2.223 . S
Cd99 O102 2.297 . S
Cd99 O103 2.439 . S
Cd99 O109 2.240 . S
Cd100 O101 2.240 . S
Cd100 O108 2.223 . S
Cd100 O110 2.297 . S
Cd100 O111 2.439 . S
O101 Cd100 2.240 . S
O101 C106 1.279 . S
O102 Cd99 2.297 . S
O102 C104 1.247 . S
O103 Cd99 2.439 . S
O103 C104 1.208 . S
C104 O102 1.247 . S
C104 O103 1.208 . S
C105 O110 1.247 . S
C105 O111 1.208 . S
C106 O98 1.315 . S
C106 O101 1.279 . S
C107 O108 1.315 . S
C107 O109 1.279 . S
O108 Cd100 2.223 . S
O108 C107 1.315 . S
O109 Cd99 2.240 . S
O109 C107 1.279 . S
O110 Cd100 2.297 . S
O110 C105 1.247 . S
O111 Cd100 2.439 . S
O111 C105 1.208 . S
C112 C113 1.349 . S
C112 C114 1.327 . S
C112 H137 0.950 . S
C113 C112 1.349 . S
C113 C129 1.349 . S
C114 C112 1.327 . S
C114 C133 1.429 . S
C114 H138 0.950 . S
C115 C132 1.574 . S
C115 C134 1.368 . S
C115 H139 0.949 . S
H116 C120 0.949 . S
C117 C118 1.349 . S
C117 C119 1.327 . S
C117 H140 0.950 . S
C118 C117 1.349 . S
C118 C130 1.349 . S
C119 C117 1.327 . S
C119 C135 1.429 . S
C119 H141 0.950 . S
C120 H116 0.949 . S
C120 C128 1.574 . S
C120 C136 1.368 . S
H121 C129 0.950 . S
H122 C127 0.950 . S
H123 C128 0.949 . S
H124 C130 0.950 . S
H125 C131 0.950 . S
H126 C132 0.949 . S
C127 H122 0.950 . S
C127 C129 1.327 . S
C127 C133 1.429 . S
C128 C120 1.574 . S
C128 H123 0.949 . S
C128 C134 1.368 1_554 S
C129 C113 1.349 . S
C129 H121 0.950 . S
C129 C127 1.327 . S
C130 C118 1.349 . S
C130 H124 0.950 . S
C130 C131 1.327 . S
C131 H125 0.950 . S
C131 C130 1.327 . S
C131 C135 1.429 . S
C132 C115 1.574 . S
C132 H126 0.949 . S
C132 C136 1.368 1_556 S
C133 C114 1.429 . S
C133 C127 1.429 . S
C133 C134 1.523 . S
C134 C115 1.368 . S
C134 C128 1.368 1_556 S
C134 C133 1.523 . S
C135 C119 1.429 . S
C135 C131 1.429 . S
C135 C136 1.523 . S
C136 C120 1.368 . S
C136 C132 1.368 1_554 S
C136 C135 1.523 . S
H137 C112 0.950 . S
H138 C114 0.950 . S
H139 C115 0.949 . S
H140 C117 0.950 . S
H141 C119 0.950 . S
C142 C143 1.349 . S
C142 C144 1.327 . S
C142 H167 0.950 . S
C143 C142 1.349 . S
C143 C159 1.349 . S
C144 C142 1.327 . S
C144 C163 1.429 . S
C144 H168 0.950 . S
C145 C162 1.574 . S
C145 C164 1.368 . S
C145 H169 0.949 . S
H146 C150 0.949 . S
C147 C148 1.349 . S
C147 C149 1.327 . S
C147 H170 0.950 . S
C148 C147 1.349 . S
C148 C160 1.349 . S
C149 C147 1.327 . S
C149 C165 1.429 . S
C149 H171 0.950 . S
C150 H146 0.949 . S
C150 C158 1.574 . S
C150 C166 1.368 . S
H151 C159 0.950 . S
H152 C157 0.950 . S
H153 C158 0.949 . S
H154 C160 0.950 1_556 S
H155 C161 0.950 . S
H156 C162 0.949 . S
C157 H152 0.950 . S
C157 C159 1.327 . S
C157 C163 1.429 . S
C158 C150 1.574 . S
C158 H153 0.949 . S
C158 C164 1.368 . S
C159 C143 1.349 . S
C159 H151 0.950 . S
C159 C157 1.327 . S
C160 C148 1.349 . S
C160 H154 0.950 1_554 S
C160 C161 1.327 . S
C161 H155 0.950 . S
C161 C160 1.327 . S
C161 C165 1.429 . S
C162 C145 1.574 . S
C162 H156 0.949 . S
C162 C166 1.368 . S
C163 C144 1.429 . S
C163 C157 1.429 . S
C163 C164 1.523 . S
C164 C145 1.368 . S
C164 C158 1.368 . S
C164 C163 1.523 . S
C165 C149 1.429 . S
C165 C161 1.429 . S
C165 C166 1.523 . S
C166 C150 1.368 . S
C166 C162 1.368 . S
C166 C165 1.523 . S
H167 C142 0.950 . S
H168 C144 0.950 . S
H169 C145 0.949 . S
H170 C147 0.950 . S
H171 C149 0.950 . S
C172 C173 1.349 . S
C172 C174 1.327 . S
C172 H197 0.950 . S
C173 C172 1.349 . S
C173 C189 1.349 . S
C174 C172 1.327 . S
C174 C193 1.429 . S
C174 H198 0.950 . S
C175 C192 1.574 . S
C175 C194 1.368 . S
C175 H199 0.949 . S
H176 C180 0.949 . S
C177 C178 1.349 . S
C177 C179 1.327 . S
C177 H200 0.950 . S
C178 C177 1.349 . S
C178 C190 1.349 . S
C179 C177 1.327 . S
C179 C195 1.429 . S
C179 H201 0.950 . S
C180 H176 0.949 . S
C180 C188 1.574 . S
C180 C196 1.368 . S
H181 C189 0.950 . S
H182 C187 0.950 . S
H183 C188 0.949 . S
H184 C190 0.950 . S
H185 C191 0.950 . S
H186 C192 0.949 . S
C187 H182 0.950 . S
C187 C189 1.327 . S
C187 C193 1.429 . S
C188 C180 1.574 . S
C188 H183 0.949 . S
C188 C194 1.368 . S
C189 C173 1.349 . S
C189 H181 0.950 . S
C189 C187 1.327 . S
C190 C178 1.349 . S
C190 H184 0.950 . S
C190 C191 1.327 . S
C191 H185 0.950 . S
C191 C190 1.327 . S
C191 C195 1.429 . S
C192 C175 1.574 . S
C192 H186 0.949 . S
C192 C196 1.368 . S
C193 C174 1.429 . S
C193 C187 1.429 . S
C193 C194 1.523 . S
C194 C175 1.368 . S
C194 C188 1.368 . S
C194 C193 1.523 . S
C195 C179 1.429 . S
C195 C191 1.429 . S
C195 C196 1.523 . S
C196 C180 1.368 . S
C196 C192 1.368 . S
C196 C195 1.523 . S
H197 C172 0.950 . S
H198 C174 0.950 . S
H199 C175 0.949 . S
H200 C177 0.950 . S
H201 C179 0.950 . S
C202 C203 1.349 . S
C202 C204 1.327 . S
C202 H227 0.950 . S
C203 C202 1.349 . S
C203 C219 1.349 . S
C204 C202 1.327 . S
C204 C223 1.429 . S
C204 H228 0.950 . S
C205 C222 1.574 . S
C205 C224 1.368 . S
C205 H229 0.949 . S
H206 C210 0.949 . S
C207 C208 1.349 . S
C207 C209 1.327 . S
C207 H230 0.950 . S
C208 C207 1.349 . S
C208 C220 1.349 . S
C209 C207 1.327 . S
C209 C225 1.429 . S
C209 H231 0.950 . S
C210 H206 0.949 . S
C210 C218 1.574 . S
C210 C226 1.368 . S
H211 C219 0.950 1_554 S
H212 C217 0.950 . S
H213 C218 0.949 . S
H214 C220 0.950 . S
H215 C221 0.950 . S
H216 C222 0.949 . S
C217 H212 0.950 . S
C217 C219 1.327 . S
C217 C223 1.429 . S
C218 C210 1.574 . S
C218 H213 0.949 . S
C218 C224 1.368 . S
C219 C203 1.349 . S
C219 H211 0.950 1_556 S
C219 C217 1.327 . S
C220 C208 1.349 . S
C220 H214 0.950 . S
C220 C221 1.327 . S
C221 H215 0.950 . S
C221 C220 1.327 . S
C221 C225 1.429 . S
C222 C205 1.574 . S
C222 H216 0.949 . S
C222 C226 1.368 . S
C223 C204 1.429 . S
C223 C217 1.429 . S
C223 C224 1.523 . S
C224 C205 1.368 . S
C224 C218 1.368 . S
C224 C223 1.523 . S
C225 C209 1.429 . S
C225 C221 1.429 . S
C225 C226 1.523 . S
C226 C210 1.368 . S
C226 C222 1.368 . S
C226 C225 1.523 . S
H227 C202 0.950 . S
H228 C204 0.950 . S
H229 C205 0.949 . S
H230 C207 0.950 . S
H231 C209 0.950 . S
C232 C233 1.349 . S
C232 C234 1.327 . S
C232 H257 0.950 . S
C233 C232 1.349 . S
C233 C249 1.349 . S
C234 C232 1.327 . S
C234 C253 1.429 . S
C234 H258 0.950 . S
C235 C252 1.574 . S
C235 C254 1.368 . S
C235 H259 0.949 . S
H236 C240 0.949 . S
C237 C238 1.349 . S
C237 C239 1.327 . S
C237 H260 0.950 . S
C238 C237 1.349 . S
C238 C250 1.349 . S
C239 C237 1.327 . S
C239 C255 1.429 . S
C239 H261 0.950 . S
C240 H236 0.949 . S
C240 C248 1.574 . S
C240 C256 1.368 . S
H241 C249 0.950 . S
H242 C247 0.950 . S
H243 C248 0.949 . S
H244 C250 0.950 . S
H245 C251 0.950 . S
H246 C252 0.949 . S
C247 H242 0.950 . S
C247 C249 1.327 . S
C247 C253 1.429 . S
C248 C240 1.574 . S
C248 H243 0.949 . S
C248 C254 1.368 . S
C249 C233 1.349 . S
C249 H241 0.950 . S
C249 C247 1.327 . S
C250 C238 1.349 . S
C250 H244 0.950 . S
C250 C251 1.327 . S
C251 H245 0.950 . S
C251 C250 1.327 . S
C251 C255 1.429 . S
C252 C235 1.574 . S
C252 H246 0.949 . S
C252 C256 1.368 . S
C253 C234 1.429 . S
C253 C247 1.429 . S
C253 C254 1.523 . S
C254 C235 1.368 . S
C254 C248 1.368 . S
C254 C253 1.523 . S
C255 C239 1.429 . S
C255 C251 1.429 . S
C255 C256 1.523 . S
C256 C240 1.368 . S
C256 C252 1.368 . S
C256 C255 1.523 . S
H257 C232 0.950 . S
H258 C234 0.950 . S
H259 C235 0.949 . S
H260 C237 0.950 . S
H261 C239 0.950 . S
C262 C263 1.349 . S
C262 C264 1.327 . S
C262 H287 0.950 . S
C263 C262 1.349 . S
C263 C279 1.349 . S
C264 C262 1.327 . S
C264 C283 1.429 . S
C264 H288 0.950 . S
C265 C282 1.574 . S
C265 C284 1.368 . S
C265 H289 0.949 . S
H266 C270 0.949 . S
C267 C268 1.349 . S
C267 C269 1.327 . S
C267 H290 0.950 . S
C268 C267 1.349 . S
C268 C280 1.349 . S
C269 C267 1.327 . S
C269 C285 1.429 . S
C269 H291 0.950 . S
C270 H266 0.949 . S
C270 C278 1.574 . S
C270 C286 1.368 . S
H271 C279 0.950 1_554 S
H272 C277 0.950 . S
H273 C278 0.949 . S
H274 C280 0.950 . S
H275 C281 0.950 . S
H276 C282 0.949 . S
C277 H272 0.950 . S
C277 C279 1.327 . S
C277 C283 1.429 . S
C278 C270 1.574 . S
C278 H273 0.949 . S
C278 C284 1.368 . S
C279 C263 1.349 . S
C279 H271 0.950 1_556 S
C279 C277 1.327 . S
C280 C268 1.349 . S
C280 H274 0.950 . S
C280 C281 1.327 . S
C281 H275 0.950 . S
C281 C280 1.327 . S
C281 C285 1.429 . S
C282 C265 1.574 . S
C282 H276 0.949 . S
C282 C286 1.368 . S
C283 C264 1.429 . S
C283 C277 1.429 . S
C283 C284 1.523 . S
C284 C265 1.368 . S
C284 C278 1.368 . S
C284 C283 1.523 . S
C285 C269 1.429 . S
C285 C281 1.429 . S
C285 C286 1.523 . S
C286 C270 1.368 . S
C286 C282 1.368 . S
C286 C285 1.523 . S
H287 C262 0.950 . S
H288 C264 0.950 . S
H289 C265 0.949 . S
H290 C267 0.950 . S
H291 C269 0.950 . S
C292 C293 1.349 . S
C292 C294 1.327 . S
C292 H317 0.950 . S
C293 C292 1.349 . S
C293 C309 1.349 . S
C294 C292 1.327 . S
C294 C313 1.429 . S
C294 H318 0.950 . S
C295 C312 1.574 . S
C295 C314 1.368 . S
C295 H319 0.949 . S
H296 C300 0.949 . S
C297 C298 1.349 . S
C297 C299 1.327 . S
C297 H320 0.950 . S
C298 C297 1.349 . S
C298 C310 1.349 . S
C299 C297 1.327 . S
C299 C315 1.429 . S
C299 H321 0.950 . S
C300 H296 0.949 . S
C300 C308 1.574 . S
C300 C316 1.368 . S
H301 C309 0.950 . S
H302 C307 0.950 . S
H303 C308 0.949 . S
H304 C310 0.950 . S
H305 C311 0.950 . S
H306 C312 0.949 . S
C307 H302 0.950 . S
C307 C309 1.327 . S
C307 C313 1.429 . S
C308 C300 1.574 . S
C308 H303 0.949 . S
C308 C314 1.368 1_556 S
C309 C293 1.349 . S
C309 H301 0.950 . S
C309 C307 1.327 . S
C310 C298 1.349 . S
C310 H304 0.950 . S
C310 C311 1.327 . S
C311 H305 0.950 . S
C311 C310 1.327 . S
C311 C315 1.429 . S
C312 C295 1.574 . S
C312 H306 0.949 . S
C312 C316 1.368 1_554 S
C313 C294 1.429 . S
C313 C307 1.429 . S
C313 C314 1.523 . S
C314 C295 1.368 . S
C314 C308 1.368 1_554 S
C314 C313 1.523 . S
C315 C299 1.429 . S
C315 C311 1.429 . S
C315 C316 1.523 . S
C316 C300 1.368 . S
C316 C312 1.368 1_556 S
C316 C315 1.523 . S
H317 C292 0.950 . S
H318 C294 0.950 . S
H319 C295 0.949 . S
H320 C297 0.950 . S
H321 C299 0.950 . S
C322 C323 1.349 . S
C322 C324 1.327 . S
C322 H347 0.950 . S
C323 C322 1.349 . S
C323 C339 1.349 . S
C324 C322 1.327 . S
C324 C343 1.429 . S
C324 H348 0.950 . S
C325 C342 1.574 . S
C325 C344 1.368 . S
C325 H349 0.949 . S
H326 C330 0.949 . S
C327 C328 1.349 . S
C327 C329 1.327 . S
C327 H350 0.950 . S
C328 C327 1.349 . S
C328 C340 1.349 . S
C329 C327 1.327 . S
C329 C345 1.429 . S
C329 H351 0.950 . S
C330 H326 0.949 . S
C330 C338 1.574 . S
C330 C346 1.368 . S
H331 C339 0.950 1_556 S
H332 C337 0.950 . S
H333 C338 0.949 . S
H334 C340 0.950 . S
H335 C341 0.950 . S
H336 C342 0.949 . S
C337 H332 0.950 . S
C337 C339 1.327 . S
C337 C343 1.429 . S
C338 C330 1.574 . S
C338 H333 0.949 . S
C338 C344 1.368 . S
C339 C323 1.349 . S
C339 H331 0.950 1_554 S
C339 C337 1.327 . S
C340 C328 1.349 . S
C340 H334 0.950 . S
C340 C341 1.327 . S
C341 H335 0.950 . S
C341 C340 1.327 . S
C341 C345 1.429 . S
C342 C325 1.574 . S
C342 H336 0.949 . S
C342 C346 1.368 . S
C343 C324 1.429 . S
C343 C337 1.429 . S
C343 C344 1.523 . S
C344 C325 1.368 . S
C344 C338 1.368 . S
C344 C343 1.523 . S
C345 C329 1.429 . S
C345 C341 1.429 . S
C345 C346 1.523 . S
C346 C330 1.368 . S
C346 C342 1.368 . S
C346 C345 1.523 . S
H347 C322 0.950 . S
H348 C324 0.950 . S
H349 C325 0.949 . S
H350 C327 0.950 . S
H351 C329 0.950 . S
C352 C353 1.349 . S
C352 C354 1.327 . S
C352 H377 0.950 . S
C353 C352 1.349 . S
C353 C369 1.349 . S
C354 C352 1.327 . S
C354 C373 1.429 . S
C354 H378 0.950 . S
C355 C372 1.574 . S
C355 C374 1.368 . S
C355 H379 0.949 . S
H356 C360 0.949 . S
C357 C358 1.349 . S
C357 C359 1.327 . S
C357 H380 0.950 . S
C358 C357 1.349 . S
C358 C370 1.349 . S
C359 C357 1.327 . S
C359 C375 1.429 . S
C359 H381 0.950 . S
C360 H356 0.949 . S
C360 C368 1.574 . S
C360 C376 1.368 . S
H361 C369 0.950 . S
H362 C367 0.950 . S
H363 C368 0.949 . S
H364 C370 0.950 . S
H365 C371 0.950 . S
H366 C372 0.949 . S
C367 H362 0.950 . S
C367 C369 1.327 . S
C367 C373 1.429 . S
C368 C360 1.574 . S
C368 H363 0.949 . S
C368 C374 1.368 . S
C369 C353 1.349 . S
C369 H361 0.950 . S
C369 C367 1.327 . S
C370 C358 1.349 . S
C370 H364 0.950 . S
C370 C371 1.327 . S
C371 H365 0.950 . S
C371 C370 1.327 . S
C371 C375 1.429 . S
C372 C355 1.574 . S
C372 H366 0.949 . S
C372 C376 1.368 . S
C373 C354 1.429 . S
C373 C367 1.429 . S
C373 C374 1.523 . S
C374 C355 1.368 . S
C374 C368 1.368 . S
C374 C373 1.523 . S
C375 C359 1.429 . S
C375 C371 1.429 . S
C375 C376 1.523 . S
C376 C360 1.368 . S
C376 C372 1.368 . S
C376 C375 1.523 . S
H377 C352 0.950 . S
H378 C354 0.950 . S
H379 C355 0.949 . S
H380 C357 0.950 . S
H381 C359 0.950 . S
C382 C383 1.349 . S
C382 C384 1.327 . S
C382 H407 0.950 . S
C383 C382 1.349 . S
C383 C399 1.349 . S
C384 C382 1.327 . S
C384 C403 1.429 . S
C384 H408 0.950 . S
C385 C402 1.574 . S
C385 C404 1.368 . S
C385 H409 0.949 . S
H386 C390 0.949 . S
C387 C388 1.349 . S
C387 C389 1.327 . S
C387 H410 0.950 . S
C388 C387 1.349 . S
C388 C400 1.349 . S
C389 C387 1.327 . S
C389 C405 1.429 . S
C389 H411 0.950 . S
C390 H386 0.949 . S
C390 C398 1.574 . S
C390 C406 1.368 . S
H391 C399 0.950 . S
H392 C397 0.950 . S
H393 C398 0.949 . S
H394 C400 0.950 . S
H395 C401 0.950 . S
H396 C402 0.949 . S
C397 H392 0.950 . S
C397 C399 1.327 . S
C397 C403 1.429 . S
C398 C390 1.574 . S
C398 H393 0.949 . S
C398 C404 1.368 . S
C399 C383 1.349 . S
C399 H391 0.950 . S
C399 C397 1.327 . S
C400 C388 1.349 . S
C400 H394 0.950 . S
C400 C401 1.327 . S
C401 H395 0.950 . S
C401 C400 1.327 . S
C401 C405 1.429 . S
C402 C385 1.574 . S
C402 H396 0.949 . S
C402 C406 1.368 . S
C403 C384 1.429 . S
C403 C397 1.429 . S
C403 C404 1.523 . S
C404 C385 1.368 . S
C404 C398 1.368 . S
C404 C403 1.523 . S
C405 C389 1.429 . S
C405 C401 1.429 . S
C405 C406 1.523 . S
C406 C390 1.368 . S
C406 C402 1.368 . S
C406 C405 1.523 . S
H407 C382 0.950 . S
H408 C384 0.950 . S
H409 C385 0.949 . S
H410 C387 0.950 . S
H411 C389 0.950 . S
C412 C413 1.349 . S
C412 C414 1.327 . S
C412 H437 0.950 . S
C413 C412 1.349 . S
C413 C429 1.349 . S
C414 C412 1.327 . S
C414 C433 1.429 . S
C414 H438 0.950 . S
C415 C432 1.574 . S
C415 C434 1.368 1_556 S
C415 H439 0.949 . S
H416 C420 0.949 . S
C417 C418 1.349 . S
C417 C419 1.327 . S
C417 H440 0.950 . S
C418 C417 1.349 . S
C418 C430 1.349 . S
C419 C417 1.327 . S
C419 C435 1.429 . S
C419 H441 0.950 . S
C420 H416 0.949 . S
C420 C428 1.574 . S
C420 C436 1.368 1_554 S
H421 C429 0.950 . S
H422 C427 0.950 1_556 S
H423 C428 0.949 . S
H424 C430 0.950 . S
H425 C431 0.950 1_554 S
H426 C432 0.949 . S
C427 H422 0.950 1_554 S
C427 C429 1.327 . S
C427 C433 1.429 . S
C428 C420 1.574 . S
C428 H423 0.949 . S
C428 C434 1.368 . S
C429 C413 1.349 . S
C429 H421 0.950 . S
C429 C427 1.327 . S
C430 C418 1.349 . S
C430 H424 0.950 . S
C430 C431 1.327 . S
C431 H425 0.950 1_556 S
C431 C430 1.327 . S
C431 C435 1.429 . S
C432 C415 1.574 . S
C432 H426 0.949 . S
C432 C436 1.368 . S
C433 C414 1.429 . S
C433 C427 1.429 . S
C433 C434 1.523 . S
C434 C415 1.368 1_554 S
C434 C428 1.368 . S
C434 C433 1.523 . S
C435 C419 1.429 . S
C435 C431 1.429 . S
C435 C436 1.523 . S
C436 C420 1.368 1_556 S
C436 C432 1.368 . S
C436 C435 1.523 . S
H437 C412 0.950 . S
H438 C414 0.950 . S
H439 C415 0.949 . S
H440 C417 0.950 . S
H441 C419 0.950 . S
C442 C443 1.349 . S
C442 C444 1.327 . S
C442 H467 0.950 . S
C443 C442 1.349 . S
C443 C459 1.349 . S
C444 C442 1.327 . S
C444 C463 1.429 . S
C444 H468 0.950 . S
C445 C462 1.574 . S
C445 C464 1.368 . S
C445 H469 0.949 . S
H446 C450 0.949 . S
C447 C448 1.349 . S
C447 C449 1.327 . S
C447 H470 0.950 . S
C448 C447 1.349 . S
C448 C460 1.349 . S
C449 C447 1.327 . S
C449 C465 1.429 . S
C449 H471 0.950 . S
C450 H446 0.949 . S
C450 C458 1.574 . S
C450 C466 1.368 . S
H451 C459 0.950 . S
H452 C457 0.950 . S
H453 C458 0.949 . S
H454 C460 0.950 . S
H455 C461 0.950 . S
H456 C462 0.949 . S
C457 H452 0.950 . S
C457 C459 1.327 . S
C457 C463 1.429 . S
C458 C450 1.574 . S
C458 H453 0.949 . S
C458 C464 1.368 . S
C459 C443 1.349 . S
C459 H451 0.950 . S
C459 C457 1.327 . S
C460 C448 1.349 . S
C460 H454 0.950 . S
C460 C461 1.327 . S
C461 H455 0.950 . S
C461 C460 1.327 . S
C461 C465 1.429 . S
C462 C445 1.574 . S
C462 H456 0.949 . S
C462 C466 1.368 . S
C463 C444 1.429 . S
C463 C457 1.429 . S
C463 C464 1.523 . S
C464 C445 1.368 . S
C464 C458 1.368 . S
C464 C463 1.523 . S
C465 C449 1.429 . S
C465 C461 1.429 . S
C465 C466 1.523 . S
C466 C450 1.368 . S
C466 C462 1.368 . S
C466 C465 1.523 . S
H467 C442 0.950 . S
H468 C444 0.950 . S
H469 C445 0.949 . S
H470 C447 0.950 . S
H471 C449 0.950 . S
C472 C473 1.349 . S
C472 C474 1.327 . S
C472 H497 0.950 . S
C473 C472 1.349 . S
C473 C489 1.349 . S
C474 C472 1.327 . S
C474 C493 1.429 . S
C474 H498 0.950 . S
C475 C492 1.574 . S
C475 C494 1.368 . S
C475 H499 0.949 . S
H476 C480 0.949 . S
C477 C478 1.349 . S
C477 C479 1.327 . S
C477 H500 0.950 . S
C478 C477 1.349 . S
C478 C490 1.349 . S
C479 C477 1.327 . S
C479 C495 1.429 . S
C479 H501 0.950 . S
C480 H476 0.949 . S
C480 C488 1.574 . S
C480 C496 1.368 . S
H481 C489 0.950 . S
H482 C487 0.950 . S
H483 C488 0.949 . S
H484 C490 0.950 . S
H485 C491 0.950 . S
H486 C492 0.949 . S
C487 H482 0.950 . S
C487 C489 1.327 . S
C487 C493 1.429 . S
C488 C480 1.574 . S
C488 H483 0.949 . S
C488 C494 1.368 . S
C489 C473 1.349 . S
C489 H481 0.950 . S
C489 C487 1.327 . S
C490 C478 1.349 . S
C490 H484 0.950 . S
C490 C491 1.327 . S
C491 H485 0.950 . S
C491 C490 1.327 . S
C491 C495 1.429 . S
C492 C475 1.574 . S
C492 H486 0.949 . S
C492 C496 1.368 . S
C493 C474 1.429 . S
C493 C487 1.429 . S
C493 C494 1.523 . S
C494 C475 1.368 . S
C494 C488 1.368 . S
C494 C493 1.523 . S
C495 C479 1.429 . S
C495 C491 1.429 . S
C495 C496 1.523 . S
C496 C480 1.368 . S
C496 C492 1.368 . S
C496 C495 1.523 . S
H497 C472 0.950 . S
H498 C474 0.950 . S
H499 C475 0.949 . S
H500 C477 0.950 . S
H501 C479 0.950 . S
C502 C503 1.349 . S
C502 C504 1.327 . S
C502 H527 0.950 . S
C503 C502 1.349 . S
C503 C519 1.349 . S
C504 C502 1.327 . S
C504 C523 1.429 . S
C504 H528 0.950 . S
C505 C522 1.574 . S
C505 C524 1.368 1_554 S
C505 H529 0.949 . S
H506 C510 0.949 . S
C507 C508 1.349 . S
C507 C509 1.327 . S
C507 H530 0.950 . S
C508 C507 1.349 . S
C508 C520 1.349 . S
C509 C507 1.327 . S
C509 C525 1.429 . S
C509 H531 0.950 . S
C510 H506 0.949 . S
C510 C518 1.574 . S
C510 C526 1.368 1_556 S
H511 C519 0.950 1_554 S
H512 C517 0.950 . S
H513 C518 0.949 . S
H514 C520 0.950 1_556 S
H515 C521 0.950 . S
H516 C522 0.949 . S
C517 H512 0.950 . S
C517 C519 1.327 1_554 S
C517 C523 1.429 1_554 S
C518 C510 1.574 . S
C518 H513 0.949 . S
C518 C524 1.368 . S
C519 C503 1.349 . S
C519 H511 0.950 1_556 S
C519 C517 1.327 1_556 S
C520 C508 1.349 . S
C520 H514 0.950 1_554 S
C520 C521 1.327 1_554 S
C521 H515 0.950 . S
C521 C520 1.327 1_556 S
C521 C525 1.429 1_556 S
C522 C505 1.574 . S
C522 H516 0.949 . S
C522 C526 1.368 . S
C523 C504 1.429 . S
C523 C517 1.429 1_556 S
C523 C524 1.523 . S
C524 C505 1.368 1_556 S
C524 C518 1.368 . S
C524 C523 1.523 . S
C525 C509 1.429 . S
C525 C521 1.429 1_554 S
C525 C526 1.523 . S
C526 C510 1.368 1_554 S
C526 C522 1.368 . S
C526 C525 1.523 . S
H527 C502 0.950 . S
H528 C504 0.950 . S
H529 C505 0.949 . S
H530 C507 0.950 . S
H531 C509 0.950 . S
C532 C533 1.349 . S
C532 C534 1.327 . S
C532 H557 0.950 . S
C533 C532 1.349 . S
C533 C549 1.349 . S
C534 C532 1.327 . S
C534 C553 1.429 . S
C534 H558 0.950 . S
C535 C552 1.574 . S
C535 C554 1.368 . S
C535 H559 0.949 . S
H536 C540 0.949 . S
C537 C538 1.349 . S
C537 C539 1.327 . S
C537 H560 0.950 . S
C538 C537 1.349 . S
C538 C550 1.349 . S
C539 C537 1.327 . S
C539 C555 1.429 . S
C539 H561 0.950 . S
C540 H536 0.949 . S
C540 C548 1.574 . S
C540 C556 1.368 . S
H541 C549 0.950 . S
H542 C547 0.950 . S
H543 C548 0.949 . S
H544 C550 0.950 . S
H545 C551 0.950 . S
H546 C552 0.949 . S
C547 H542 0.950 . S
C547 C549 1.327 . S
C547 C553 1.429 . S
C548 C540 1.574 . S
C548 H543 0.949 . S
C548 C554 1.368 . S
C549 C533 1.349 . S
C549 H541 0.950 . S
C549 C547 1.327 . S
C550 C538 1.349 . S
C550 H544 0.950 . S
C550 C551 1.327 . S
C551 H545 0.950 . S
C551 C550 1.327 . S
C551 C555 1.429 . S
C552 C535 1.574 . S
C552 H546 0.949 . S
C552 C556 1.368 . S
C553 C534 1.429 . S
C553 C547 1.429 . S
C553 C554 1.523 . S
C554 C535 1.368 . S
C554 C548 1.368 . S
C554 C553 1.523 . S
C555 C539 1.429 . S
C555 C551 1.429 . S
C555 C556 1.523 . S
C556 C540 1.368 . S
C556 C552 1.368 . S
C556 C555 1.523 . S
H557 C532 0.950 . S
H558 C534 0.950 . S
H559 C535 0.949 . S
H560 C537 0.950 . S
H561 C539 0.950 . S
C562 C563 1.349 . S
C562 C564 1.327 . S
C562 H587 0.950 . S
C563 C562 1.349 . S
C563 C579 1.349 . S
C564 C562 1.327 . S
C564 C583 1.429 . S
C564 H588 0.950 . S
C565 C582 1.574 . S
C565 C584 1.368 . S
C565 H589 0.949 . S
H566 C570 0.949 . S
C567 C568 1.349 . S
C567 C569 1.327 . S
C567 H590 0.950 . S
C568 C567 1.349 . S
C568 C580 1.349 . S
C569 C567 1.327 . S
C569 C585 1.429 . S
C569 H591 0.950 . S
C570 H566 0.949 . S
C570 C578 1.574 . S
C570 C586 1.368 . S
H571 C579 0.950 . S
H572 C577 0.950 . S
H573 C578 0.949 . S
H574 C580 0.950 . S
H575 C581 0.950 . S
H576 C582 0.949 . S
C577 H572 0.950 . S
C577 C579 1.327 . S
C577 C583 1.429 . S
C578 C570 1.574 . S
C578 H573 0.949 . S
C578 C584 1.368 . S
C579 C563 1.349 . S
C579 H571 0.950 . S
C579 C577 1.327 . S
C580 C568 1.349 . S
C580 H574 0.950 . S
C580 C581 1.327 . S
C581 H575 0.950 . S
C581 C580 1.327 . S
C581 C585 1.429 . S
C582 C565 1.574 . S
C582 H576 0.949 . S
C582 C586 1.368 . S
C583 C564 1.429 . S
C583 C577 1.429 . S
C583 C584 1.523 . S
C584 C565 1.368 . S
C584 C578 1.368 . S
C584 C583 1.523 . S
C585 C569 1.429 . S
C585 C581 1.429 . S
C585 C586 1.523 . S
C586 C570 1.368 . S
C586 C582 1.368 . S
C586 C585 1.523 . S
H587 C562 0.950 . S
H588 C564 0.950 . S
H589 C565 0.949 . S
H590 C567 0.950 . S
H591 C569 0.950 . S
C113 C20 1.535 . S
C118 C6 1.535 . S
C143 C21 1.536 . S
C148 C34 1.536 . S
C173 C49 1.535 . S
C178 C35 1.535 . S
C203 C48 1.536 . S
C208 C7 1.536 . S
C233 C62 1.535 . S
C238 C76 1.535 . S
C263 C77 1.536 . S
C268 C90 1.536 . S
C293 C91 1.535 . S
C298 C105 1.535 . S
C323 C63 1.536 . S
C328 C104 1.536 . S
C353 C8 1.544 . S
C358 C107 1.544 . S
C383 C65 1.544 . S
C388 C23 1.544 . S
C413 C78 1.544 . S
C418 C37 1.544 . S
C443 C50 1.544 . S
C448 C92 1.544 . S
C473 C36 1.544 . S
C478 C106 1.544 . S
C503 C64 1.544 . S
C508 C51 1.544 . S
C533 C79 1.544 . S
C538 C9 1.544 . S
C563 C22 1.544 . S
C568 C93 1.544 . S
