# Generated by pormake.
# Topology mok, (4)-cn, num edge types: 1
# Building blocks:
#     Node 0, Type 0, BuildingBlock: TATPOV_clean_sbu_0, # of connection points: 4
#     Node 1, Type 0, BuildingBlock: TATPOV_clean_sbu_0, # of connection points: 4
#     Node 2, Type 0, BuildingBlock: TATPOV_clean_sbu_0, # of connection points: 4
#     Node 3, Type 0, BuildingBlock: TATPOV_clean_sbu_0, # of connection points: 4
#     Node 4, Type 0, BuildingBlock: TATPOV_clean_sbu_0, # of connection points: 4
#     Node 5, Type 0, BuildingBlock: TATPOV_clean_sbu_0, # of connection points: 4
#     Node 6, Type 0, BuildingBlock: TATPOV_clean_sbu_0, # of connection points: 4
#     Node 7, Type 0, BuildingBlock: TATPOV_clean_sbu_0, # of connection points: 4
#     Edge 8, Type (0, 0), BuildingBlock: ZUJKAS_clean_linker_0, # of connection points: 2
#     Edge 9, Type (0, 0), BuildingBlock: ZUJKAS_clean_linker_0, # of connection points: 2
#     Edge 10, Type (0, 0), BuildingBlock: ZUJKAS_clean_linker_0, # of connection points: 2
#     Edge 11, Type (0, 0), BuildingBlock: ZUJKAS_clean_linker_0, # of connection points: 2
#     Edge 12, Type (0, 0), BuildingBlock: ZUJKAS_clean_linker_0, # of connection points: 2
#     Edge 13, Type (0, 0), BuildingBlock: ZUJKAS_clean_linker_0, # of connection points: 2
#     Edge 14, Type (0, 0), BuildingBlock: ZUJKAS_clean_linker_0, # of connection points: 2
#     Edge 15, Type (0, 0), BuildingBlock: ZUJKAS_clean_linker_0, # of connection points: 2
#     Edge 16, Type (0, 0), BuildingBlock: ZUJKAS_clean_linker_0, # of connection points: 2
#     Edge 17, Type (0, 0), BuildingBlock: ZUJKAS_clean_linker_0, # of connection points: 2
#     Edge 18, Type (0, 0), BuildingBlock: ZUJKAS_clean_linker_0, # of connection points: 2
#     Edge 19, Type (0, 0), BuildingBlock: ZUJKAS_clean_linker_0, # of connection points: 2
#     Edge 20, Type (0, 0), BuildingBlock: ZUJKAS_clean_linker_0, # of connection points: 2
#     Edge 21, Type (0, 0), BuildingBlock: ZUJKAS_clean_linker_0, # of connection points: 2
#     Edge 22, Type (0, 0), BuildingBlock: ZUJKAS_clean_linker_0, # of connection points: 2
#     Edge 23, Type (0, 0), BuildingBlock: ZUJKAS_clean_linker_0, # of connection points: 2
# Relax obj value: 0.025
# Max RMSD: 0.042
# Mean RMSD: 0.042
data_MOF--net-mok--node1-TATPOV_clean_sbu_0--edge1-ZUJKAS_clean_linker_0
_symmetry_space_group_name_H-M    P1
_symmetry_Int_Tables_number       1
_symmetry_cell_setting            triclinic
loop_
_symmetry_equiv_pos_as_xyz
'x, y, z'
_cell_length_a     59.76337
_cell_length_b     25.794347
_cell_length_c     34.325469
_cell_angle_alpha  90.006755
_cell_angle_beta   89.942218
_cell_angle_gamma 90.22586
loop_
_atom_site_label
_atom_site_type_symbol
_atom_site_fract_x
_atom_site_fract_y
_atom_site_fract_z
_atom_type_partial_charge
Zn0 Zn 0.6169 0.43213 -0.00176 0.0
Zn1 Zn 0.59584 0.34337 0.00076 0.0
O2 O 0.58487 0.38005 0.05122 0.0
O3 O 0.60671 0.44897 0.05222 0.0
O4 O 0.57965 0.27367 0.00088 0.0
O5 O 0.59877 0.45619 0.95318 0.0
O6 O 0.58378 0.37828 0.95026 0.0
C7 C 0.59171 0.4213 0.06799 0.0
C8 C 0.64765 0.34999 -0.00644 0.0
O9 O 0.62991 0.32355 0.00028 0.0
O10 O 0.64648 0.39852 0.98896 0.0
C11 C 0.57512 0.2489 0.032 0.0
O12 O 0.58135 0.26848 0.06564 0.0
C13 C 0.58591 0.42407 0.93656 0.0
Zn14 Zn 0.41548 0.57522 0.01156 0.0
Zn15 Zn 0.43321 0.66903 0.0074 0.0
O16 O 0.4471 0.63777 0.05776 0.0
O17 O 0.43486 0.55707 0.05692 0.0
O18 O 0.44772 0.74047 0.00402 0.0
O19 O 0.42652 0.55758 0.95857 0.0
O20 O 0.44364 0.6332 0.9561 0.0
C21 C 0.4468 0.59217 0.07213 0.0
C22 C 0.38195 0.65383 0.0151 0.0
O23 O 0.39889 0.68353 0.01009 0.0
O24 O 0.38474 0.60538 0.01831 0.0
C25 C 0.45058 0.76842 0.03419 0.0
O26 O 0.44336 0.75122 0.06799 0.0
C27 C 0.43916 0.58919 0.94087 0.0
Zn28 Zn 0.61792 0.5972 0.50353 0.0
Zn29 Zn 0.59861 0.68835 0.50267 0.0
O30 O 0.58764 0.65379 0.45138 0.0
O31 O 0.60824 0.5834 0.44877 0.0
O32 O 0.58273 0.758 0.50345 0.0
O33 O 0.59795 0.57255 0.54649 0.0
O34 O 0.58605 0.65289 0.55251 0.0
C35 C 0.59378 0.61281 0.43359 0.0
C36 C 0.64984 0.67876 0.51133 0.0
O37 O 0.6327 0.70663 0.50421 0.0
O38 O 0.64777 0.63019 0.51518 0.0
C39 C 0.57763 0.78275 0.47265 0.0
O40 O 0.58351 0.76376 0.43865 0.0
C41 C 0.58629 0.60592 0.56414 0.0
Zn42 Zn 0.3956 0.42235 0.50578 0.0
Zn43 Zn 0.41806 0.3329 0.5065 0.0
O44 O 0.42924 0.36817 0.45612 0.0
O45 O 0.4102 0.44101 0.45471 0.0
O46 O 0.43527 0.26507 0.5078 0.0
O47 O 0.41036 0.44405 0.55529 0.0
O48 O 0.42933 0.37099 0.55623 0.0
C49 C 0.4246 0.41114 0.4397 0.0
C50 C 0.36604 0.33554 0.50785 0.0
O51 O 0.38435 0.3102 0.50619 0.0
O52 O 0.36628 0.38456 0.50859 0.0
C53 C 0.43891 0.23889 0.47702 0.0
O54 O 0.43083 0.25558 0.44373 0.0
C55 C 0.42461 0.41486 0.57129 0.0
Zn56 Zn 0.12302 0.92538 0.00148 0.0
Zn57 Zn 0.1039 0.83222 0.00018 0.0
O58 O 0.0926 0.86442 0.0518 0.0
O59 O 0.10817 0.94187 0.05215 0.0
O60 O 0.08851 0.76155 -0.00083 0.0
O61 O 0.1075 0.94556 0.95251 0.0
O62 O 0.09105 0.86908 0.9512 0.0
C63 C 0.09551 0.9085 0.06791 0.0
C64 C 0.15565 0.84494 -0.0007 0.0
O65 O 0.13824 0.81595 -0.00074 0.0
O66 O 0.15354 0.89373 -1e-05 0.0
C67 C 0.06793 0.75852 0.00861 0.0
O68 O 0.05736 0.80112 0.01848 0.0
C69 C 0.09403 0.91412 0.9366 0.0
Zn70 Zn 0.9056 0.08623 -0.00192 0.0
Zn71 Zn 0.92702 0.17627 -0.00098 0.0
O72 O 0.9372 0.14242 0.05066 0.0
O73 O 0.91749 0.07016 0.05125 0.0
O74 O 0.94436 0.24431 -0.00237 0.0
O75 O 0.92271 0.06191 0.95185 0.0
O76 O 0.93928 0.13818 0.95002 0.0
C77 C 0.93158 0.10008 0.06727 0.0
C78 C 0.87527 0.1706 -0.00702 0.0
O79 O 0.89317 0.19721 -0.00247 0.0
O80 O 0.87617 0.12172 0.99074 0.0
C81 C 0.93883 0.28459 0.0167 0.0
O82 O 0.92076 0.28317 0.03852 0.0
C83 C 0.9364 0.09283 0.93593 0.0
Zn84 Zn 0.10395 0.07104 0.51265 0.0
Zn85 Zn 0.08747 0.16711 0.50447 0.0
O86 O 0.07598 0.12938 0.45513 0.0
O87 O 0.09026 0.0511 0.46161 0.0
O88 O 0.07395 0.23906 0.50101 0.0
O89 O 0.08509 0.05871 0.55959 0.0
O90 O 0.07353 0.13968 0.5561 0.0
C91 C 0.07848 0.08312 0.44279 0.0
C92 C 0.13839 0.14952 0.51099 0.0
O93 O 0.12183 0.17951 0.50478 0.0
O94 O 0.13517 0.10156 0.51678 0.0
C95 C 0.07079 0.26333 0.46923 0.0
O96 O 0.0771 0.24192 0.43629 0.0
C97 C 0.07346 0.09553 0.57283 0.0
Zn98 Zn 0.91223 0.93069 0.51295 0.0
Zn99 Zn 0.93062 0.83954 0.50446 0.0
O100 O 0.94086 0.87881 0.45473 0.0
O101 O 0.92006 0.94895 0.45795 0.0
O102 O 0.94519 0.76867 0.5003 0.0
O103 O 0.93406 0.94985 0.55486 0.0
O104 O 0.94492 0.86836 0.55516 0.0
C105 C 0.93407 0.92125 0.43987 0.0
C106 C 0.87965 0.85092 0.51754 0.0
O107 O 0.89635 0.82362 0.50684 0.0
O108 O 0.88232 0.89844 0.52553 0.0
C109 C 0.94997 0.74643 0.46828 0.0
O110 O 0.94485 0.76937 0.43532 0.0
C111 C 0.94576 0.91401 0.56934 0.0
H112 H 0.85899 0.24969 0.03806 0.0
H113 H 0.81996 0.27924 0.04146 0.0
H114 H 0.80295 0.17782 0.94585 0.0
H115 H 0.84136 0.14609 0.94422 0.0
H116 H 0.79212 0.32622 -0.0027 0.0
H117 H 0.75721 0.13056 0.02071 0.0
H118 H 0.7869 0.14301 0.02135 0.0
H119 H 0.77249 0.13236 0.97584 0.0
C120 C 0.84687 0.23417 0.01765 0.0
C121 C 0.85305 0.19531 0.99114 0.0
C122 C 0.82457 0.25082 0.01968 0.0
C123 C 0.80822 0.22938 -0.00516 0.0
C124 C 0.8149 0.19328 0.96654 0.0
H125 H 0.6812 0.37246 0.94336 0.0
H126 H 0.71968 0.34124 0.94492 0.0
C127 C 0.83694 0.17569 0.96523 0.0
C128 C 0.78424 0.24469 -0.00184 0.0
H129 H 0.73102 0.19554 0.0001 0.0
C130 C 0.7788 0.29758 -0.00167 0.0
C131 C 0.76671 0.20756 0.00073 0.0
C132 C 0.77116 0.15029 0.00513 0.0
C133 C 0.75645 0.31427 -0.00057 0.0
C134 C 0.7389 0.27706 -0.00153 0.0
C135 C 0.74435 0.22421 -9e-05 0.0
C136 C 0.71489 0.29218 -0.00452 0.0
C137 C 0.75203 0.37173 0.0024 0.0
C138 C 0.69877 0.27194 0.02138 0.0
C139 C 0.67642 0.28826 0.01948 0.0
C140 C 0.66995 0.32561 -0.00799 0.0
C141 C 0.68583 0.34405 0.96513 0.0
C142 C 0.70792 0.32677 0.96637 0.0
H143 H 0.76611 0.3922 0.01697 0.0
H144 H 0.75042 0.3882 0.97268 0.0
H145 H 0.73644 0.37979 0.0189 0.0
H146 H 0.7036 0.24468 0.04383 0.0
H147 H 0.66451 0.27367 0.04064 0.0
H148 H 0.16842 0.74281 0.00791 0.0
H149 H 0.2068 0.70917 0.01177 0.0
H150 H 0.23289 0.86348 -0.0057 0.0
H151 H 0.19502 0.89732 0.99095 0.0
H152 H 0.24226 0.71435 0.9578 0.0
H153 H 0.26448 0.81838 0.0938 0.0
H154 H 0.23596 0.81156 0.07723 0.0
H155 H 0.25397 0.86019 0.0563 0.0
C156 C 0.18235 0.7695 0.00485 0.0
C157 C 0.17858 0.82284 -0.00047 0.0
C158 C 0.20425 0.75026 0.0071 0.0
C159 C 0.22271 0.78404 0.00422 0.0
C160 C 0.21895 0.8369 -0.00232 0.0
H161 H 0.36808 0.75464 0.00427 0.0
H162 H 0.32939 0.7863 0.00143 0.0
C163 C 0.1972 0.85611 -0.00445 0.0
C164 C 0.24599 0.76446 0.00752 0.0
H165 H 0.29457 0.77976 0.05888 0.0
C166 C 0.25365 0.72829 0.98009 0.0
C167 C 0.26088 0.78293 0.03651 0.0
C168 C 0.25338 0.82004 0.06787 0.0
C169 C 0.27592 0.71096 0.98033 0.0
C170 C 0.29084 0.72973 0.00914 0.0
C171 C 0.28316 0.76571 0.03667 0.0
C172 C 0.31428 0.71119 0.01186 0.0
C173 C 0.28344 0.67356 0.9492 0.0
C174 C 0.31859 0.65885 0.01962 0.0
C175 C 0.34055 0.64075 0.02135 0.0
C176 C 0.35879 0.67465 0.01553 0.0
C177 C 0.35446 0.72748 0.00879 0.0
C178 C 0.33237 0.7456 0.00711 0.0
H179 H 0.27193 0.67346 0.9238 0.0
H180 H 0.30058 0.68324 0.93889 0.0
H181 H 0.28374 0.63377 0.96147 0.0
H182 H 0.30491 0.63184 0.02425 0.0
H183 H 0.34317 0.5999 0.0269 0.0
H184 H 0.86139 0.777 0.46982 0.0
H185 H 0.82203 0.74993 0.46676 0.0
H186 H 0.80731 0.84634 0.56625 0.0
H187 H 0.84617 0.87586 0.56767 0.0
H188 H 0.7948 0.70098 0.51014 0.0
H189 H 0.7605 0.8983 0.4961 0.0
H190 H 0.7901 0.8858 0.49378 0.0
H191 H 0.77626 0.89282 0.54022 0.0
C192 C 0.84972 0.79215 0.49108 0.0
C193 C 0.85676 0.82888 0.51873 0.0
C194 C 0.8272 0.77685 0.48927 0.0
C195 C 0.81139 0.79736 0.51547 0.0
C196 C 0.81882 0.83163 0.54458 0.0
H197 H 0.68311 0.65043 0.56041 0.0
H198 H 0.72177 0.68127 0.56124 0.0
C199 C 0.84114 0.84797 0.54572 0.0
C200 C 0.78727 0.7825 0.51275 0.0
H201 H 0.73422 0.83175 0.5137 0.0
C202 C 0.78159 0.7297 0.51054 0.0
C203 C 0.76986 0.81978 0.51219 0.0
C204 C 0.77451 0.87729 0.51023 0.0
C205 C 0.75918 0.71313 0.50891 0.0
C206 C 0.74177 0.75023 0.51152 0.0
C207 C 0.74743 0.8031 0.51253 0.0
C208 C 0.71766 0.73496 0.51327 0.0
C209 C 0.75456 0.65601 0.50341 0.0
C210 C 0.70186 0.75761 0.48811 0.0
C211 C 0.67942 0.74141 0.48872 0.0
C212 C 0.6725 0.70172 0.51406 0.0
C213 C 0.68808 0.68061 0.54019 0.0
C214 C 0.71028 0.69776 0.54032 0.0
H215 H 0.76864 0.63661 0.48815 0.0
H216 H 0.75271 0.63729 0.53234 0.0
H217 H 0.73904 0.64927 0.48637 0.0
H218 H 0.707 0.78683 0.46724 0.0
H219 H 0.66775 0.7582 0.46821 0.0
H220 H 0.15575 0.22818 0.46663 0.0
H221 H 0.19499 0.25577 0.46244 0.0
H222 H 0.2122 0.14615 0.55248 0.0
H223 H 0.17342 0.11619 0.55465 0.0
H224 H 0.22221 0.29971 0.50736 0.0
H225 H 0.25886 0.10798 0.47763 0.0
H226 H 0.22907 0.11828 0.47766 0.0
H227 H 0.24376 0.10619 0.52266 0.0
C228 C 0.16798 0.20998 0.4854 0.0
C229 C 0.16161 0.16971 0.51066 0.0
C230 C 0.19043 0.22565 0.48298 0.0
C231 C 0.20687 0.20201 0.50629 0.0
C232 C 0.2002 0.1635 0.53288 0.0
H233 H 0.33281 0.35327 0.55936 0.0
H234 H 0.2948 0.31817 0.55859 0.0
C235 C 0.17793 0.14683 0.53449 0.0
C236 C 0.23079 0.2188 0.5038 0.0
H237 H 0.28449 0.17361 0.50011 0.0
C238 C 0.23577 0.27202 0.50532 0.0
C239 C 0.24868 0.18308 0.5001 0.0
C240 C 0.24479 0.12581 0.49394 0.0
C241 C 0.25793 0.29036 0.50443 0.0
C242 C 0.27584 0.25441 0.50412 0.0
C243 C 0.27089 0.20128 0.50128 0.0
C244 C 0.29972 0.27125 0.50694 0.0
C245 C 0.26173 0.34823 0.50289 0.0
C246 C 0.31584 0.25343 0.48017 0.0
C247 C 0.33796 0.27187 0.48169 0.0
C248 C 0.34415 0.30897 0.50961 0.0
C249 C 0.32833 0.32502 0.5373 0.0
C250 C 0.30651 0.30553 0.5365 0.0
H251 H 0.24735 0.3683 0.48909 0.0
H252 H 0.26334 0.36349 0.53298 0.0
H253 H 0.27712 0.35823 0.48633 0.0
H254 H 0.31117 0.22653 0.45733 0.0
H255 H 0.34988 0.25917 0.45991 0.0
H256 H 0.61234 0.48022 0.12211 0.0
H257 H 0.59687 0.51518 0.18194 0.0
H258 H 0.53374 0.4397 0.15822 0.0
H259 H 0.54966 0.40257 0.09814 0.0
H260 H 0.56104 0.58094 0.19062 0.0
H261 H 0.54602 0.3951 0.26975 0.0
H262 H 0.56239 0.39666 0.22557 0.0
H263 H 0.53263 0.40556 0.22351 0.0
C264 C 0.5952 0.47063 0.12966 0.0
C265 C 0.58222 0.43857 0.10552 0.0
C266 C 0.58631 0.49093 0.16379 0.0
C267 C 0.56411 0.48031 0.17455 0.0
C268 C 0.55099 0.44796 0.15071 0.0
H269 H 0.55651 0.65304 0.39719 0.0
H270 H 0.53984 0.62376 0.33538 0.0
C271 C 0.56009 0.42676 0.11651 0.0
C272 C 0.55571 0.50315 0.21138 0.0
H273 H 0.54911 0.47054 0.30693 0.0
C274 C 0.55777 0.55708 0.21603 0.0
C275 C 0.55089 0.472 0.24422 0.0
C276 C 0.54786 0.41409 0.24086 0.0
C277 C 0.55841 0.57974 0.25316 0.0
C278 C 0.55632 0.54758 0.2863 0.0
C279 C 0.55106 0.49485 0.28135 0.0
C280 C 0.56471 0.56457 0.32485 0.0
C281 C 0.56347 0.63689 0.25671 0.0
C282 C 0.58398 0.54071 0.33949 0.0
C283 C 0.59336 0.55696 0.37448 0.0
C284 C 0.58378 0.59775 0.39578 0.0
C285 C 0.5644 0.62183 0.38123 0.0
C286 C 0.55484 0.60512 0.34602 0.0
H287 H 0.56625 0.65552 0.22792 0.0
H288 H 0.54924 0.6566 0.27118 0.0
H289 H 0.5786 0.64307 0.27491 0.0
H290 H 0.59202 0.50973 0.32344 0.0
H291 H 0.60829 0.53753 0.3847 0.0
H292 H 0.44855 0.64779 0.13949 0.0
H293 H 0.45938 0.61412 0.20329 0.0
H294 H 0.48385 0.47436 0.14903 0.0
H295 H 0.47173 0.5068 0.08559 0.0
H296 H 0.45268 0.4524 0.19815 0.0
H297 H 0.51018 0.58587 0.27472 0.0
H298 H 0.48769 0.62032 0.25238 0.0
H299 H 0.50732 0.58572 0.22225 0.0
C300 C 0.45702 0.6108 0.14115 0.0
C301 C 0.45914 0.57958 0.10793 0.0
C302 C 0.46342 0.59165 0.17762 0.0
C303 C 0.47259 0.54168 0.1811 0.0
C304 C 0.47681 0.51292 0.14716 0.0
H305 H 0.45473 0.35568 0.39582 0.0
H306 H 0.47248 0.38253 0.33447 0.0
C307 C 0.46988 0.53144 0.11095 0.0
C308 C 0.47302 0.51546 0.21962 0.0
H309 H 0.48534 0.53474 0.31564 0.0
C310 C 0.46043 0.46961 0.22364 0.0
C311 C 0.48308 0.53776 0.25296 0.0
C312 C 0.49803 0.58482 0.25028 0.0
C313 C 0.45607 0.44794 0.26028 0.0
C314 C 0.46474 0.47247 0.29385 0.0
C315 C 0.47862 0.51622 0.28978 0.0
C316 C 0.45669 0.45786 0.33311 0.0
C317 C 0.44082 0.40126 0.26303 0.0
C318 C 0.44237 0.49174 0.35289 0.0
C319 C 0.43218 0.47656 0.38762 0.0
C320 C 0.43616 0.42714 0.40343 0.0
C321 C 0.45116 0.39381 0.38424 0.0
C322 C 0.46136 0.4091 0.34929 0.0
H323 H 0.43339 0.39068 0.23443 0.0
H324 H 0.45045 0.36753 0.27386 0.0
H325 H 0.42702 0.40872 0.28397 0.0
H326 H 0.43848 0.52941 0.34075 0.0
H327 H 0.4209 0.50344 0.40175 0.0
H328 H 0.4293 0.50212 0.89988 0.0
H329 H 0.44258 0.47701 0.83616 0.0
H330 H 0.48345 0.61516 0.83038 0.0
H331 H 0.46961 0.64154 0.89469 0.0
H332 H 0.46357 0.60514 0.76586 0.0
H333 H 0.49768 0.41372 0.79487 0.0
H334 H 0.47018 0.41224 0.8155 0.0
H335 H 0.49082 0.45723 0.83424 0.0
C336 C 0.44136 0.52705 0.88548 0.0
C337 C 0.4484 0.57392 0.90251 0.0
C338 C 0.44924 0.51213 0.84907 0.0
C339 C 0.46469 0.54307 0.8288 0.0
C340 C 0.47191 0.58995 0.84572 0.0
H341 H 0.4659 0.38806 0.60069 0.0
H342 H 0.48425 0.42447 0.65887 0.0
C343 C 0.46389 0.60518 0.88238 0.0
C344 C 0.47065 0.52872 0.78817 0.0
H345 H 0.47569 0.42041 0.732 0.0
C346 C 0.46693 0.56503 0.75848 0.0
C347 C 0.47638 0.47726 0.77784 0.0
C348 C 0.48428 0.4383 0.8075 0.0
C349 C 0.46552 0.54946 0.71944 0.0
C350 C 0.46663 0.49598 0.71029 0.0
C351 C 0.47373 0.46112 0.73907 0.0
C352 C 0.45669 0.47506 0.67385 0.0
C353 C 0.4617 0.59025 0.68871 0.0
C354 C 0.43491 0.49002 0.66362 0.0
C355 C 0.42464 0.4699 0.63057 0.0
C356 C 0.43559 0.43308 0.60735 0.0
C357 C 0.45708 0.41639 0.61815 0.0
C358 C 0.46761 0.43739 0.65117 0.0
H359 H 0.4714 0.62591 0.69564 0.0
H360 H 0.46662 0.57651 0.65928 0.0
H361 H 0.44374 0.60107 0.68838 0.0
H362 H 0.42562 0.51697 0.68156 0.0
H363 H 0.40793 0.48294 0.62341 0.0
H364 H 0.5845 0.52086 0.90556 0.0
H365 H 0.571 0.54622 0.84191 0.0
H366 H 0.54742 0.39041 0.82112 0.0
H367 H 0.56168 0.36388 0.88518 0.0
H368 H 0.57624 0.42554 0.76577 0.0
H369 H 0.51331 0.5792 0.78944 0.0
H370 H 0.53745 0.58614 0.81962 0.0
H371 H 0.51947 0.53069 0.82605 0.0
C372 C 0.57608 0.49195 0.88792 0.0
C373 C 0.57444 0.44009 0.90031 0.0
C374 C 0.56798 0.50687 0.85164 0.0
C375 C 0.55773 0.47058 0.827 0.0
C376 C 0.55503 0.41921 0.83995 0.0
H377 H 0.56279 0.51701 0.57437 0.0
H378 H 0.54869 0.4818 0.63593 0.0
C379 C 0.56324 0.40408 0.87645 0.0
C380 C 0.55374 0.48472 0.78577 0.0
H381 H 0.5326 0.58095 0.72841 0.0
C382 C 0.56622 0.45865 0.75732 0.0
C383 C 0.54092 0.5284 0.775 0.0
C384 C 0.52685 0.5574 0.80413 0.0
C385 C 0.56775 0.47749 0.71912 0.0
C386 C 0.5556 0.5225 0.70863 0.0
C387 C 0.54191 0.54657 0.73647 0.0
C388 C 0.55895 0.54806 0.67034 0.0
C389 C 0.5838 0.45128 0.69143 0.0
C390 C 0.56753 0.59887 0.66873 0.0
C391 C 0.57488 0.61977 0.63333 0.0
C392 C 0.57406 0.5897 0.59933 0.0
C393 C 0.56387 0.54056 0.60045 0.0
C394 C 0.55597 0.52031 0.63558 0.0
H395 H 0.5956 0.42521 0.70687 0.0
H396 H 0.57421 0.42738 0.67034 0.0
H397 H 0.59376 0.4803 0.6749 0.0
H398 H 0.56982 0.62118 0.69518 0.0
H399 H 0.58268 0.65776 0.63309 0.0
H400 H 0.0949 1.00224 0.10408 0.0
H401 H 0.07931 0.02335 0.16753 0.0
H402 H 0.05465 0.86681 0.1795 0.0
H403 H 0.07052 0.84481 0.11556 0.0
H404 H 0.03518 0.01488 0.2018 0.0
H405 H 0.09918 0.8877 0.2709 0.0
H406 H 0.10102 0.90661 0.22043 0.0
H407 H 0.08079 0.85902 0.23544 0.0
C408 C 0.08604 0.97219 0.11994 0.0
C409 C 0.08432 0.92151 0.10507 0.0
C410 C 0.07695 0.98455 0.15609 0.0
C411 C 0.066 0.94657 0.17823 0.0
C412 C 0.06323 0.89651 0.16285 0.0
H413 H 0.05991 0.98938 0.42833 0.0
H414 H 0.04888 0.95417 0.36511 0.0
C415 C 0.07233 0.88403 0.12643 0.0
C416 C 0.05994 0.95888 0.21891 0.0
H417 H 0.07924 0.94309 0.31141 0.0
C418 C 0.04444 0.99858 0.22601 0.0
C419 C 0.07205 0.9374 0.25029 0.0
C420 C 0.0893 0.89552 0.24416 0.0
C421 C 0.04155 0.01915 0.26357 0.0
C422 C 0.0547 0.9998 0.29451 0.0
C423 C 0.06913 0.95791 0.28769 0.0
C424 C 0.05569 0.02496 0.33332 0.0
C425 C 0.02487 0.06206 0.26959 0.0
C426 C 0.06236 0.07715 0.33676 0.0
C427 C 0.06819 0.0977 0.37311 0.0
C428 C 0.06811 0.0658 0.40618 0.0
C429 C 0.06028 0.01457 0.40307 0.0
C430 C 0.05391 0.99449 0.36703 0.0
H431 H 0.012 0.06198 0.24635 0.0
H432 H 0.01653 0.05855 0.29841 0.0
H433 H 0.0336 0.10003 0.2683 0.0
H434 H 0.06458 0.10105 0.31112 0.0
H435 H 0.07435 0.13719 0.37484 0.0
H436 H 0.97409 0.89843 0.40401 0.0
H437 H 0.98852 0.93577 0.34287 0.0
H438 H 0.92702 0.02101 0.3291 0.0
H439 H 0.91315 0.98605 0.39012 0.0
H440 H 0.97558 0.92933 0.27107 0.0
H441 H 0.97017 0.13471 0.30863 0.0
H442 H 0.96824 0.08479 0.34536 0.0
H443 H 0.9435 0.1069 0.32013 0.0
C444 C 0.96378 0.92532 0.38783 0.0
C445 C 0.94259 0.93978 0.40195 0.0
C446 C 0.97207 0.94683 0.35312 0.0
C447 C 0.9592 0.98274 0.33208 0.0
C448 C 0.93774 0.9954 0.34563 0.0
H449 H 0.92101 0.01517 0.11041 0.0
H450 H 0.93636 0.9889 0.17257 0.0
C451 C 0.92967 0.97477 0.38033 0.0
C452 C 0.96684 1.00432 0.29425 0.0
H453 H 0.96029 0.11357 0.2397 0.0
C454 C 0.97294 0.96994 0.26443 0.0
C455 C 0.96459 0.05771 0.28554 0.0
C456 C 0.96157 0.09806 0.31689 0.0
C457 C 0.97374 0.98642 0.2255 0.0
C458 C 0.96737 0.03777 0.21628 0.0
C459 C 0.9643 0.07361 0.24651 0.0
C460 C 0.96006 0.0524 0.17654 0.0
C461 C 0.98036 0.94798 0.19452 0.0
C462 C 0.96771 0.09804 0.15845 0.0
C463 C 0.95859 0.11388 0.12278 0.0
C464 C 0.94159 0.08443 0.10488 0.0
C465 C 0.93414 0.03874 0.12314 0.0
C466 C 0.94315 0.02316 0.15858 0.0
H467 H 0.99346 0.92135 0.20564 0.0
H468 H 0.9656 0.924 0.18655 0.0
H469 H 0.98678 0.96764 0.16796 0.0
H470 H 0.98051 0.12164 0.17213 0.0
H471 H 0.96472 0.14922 0.10941 0.0
H472 H 0.97291 0.99689 0.58046 0.0
H473 H 0.98813 0.02738 0.64249 0.0
H474 H 0.9617 0.89078 0.69918 0.0
H475 H 0.94789 0.85883 0.6367 0.0
H476 H 0.9611 0.05442 0.69506 0.0
H477 H 0.01482 0.9083 0.76542 0.0
H478 H 1.01038 0.90981 0.7133 0.0
H479 H 0.99042 0.87872 0.74519 0.0
C480 C 0.97125 0.97247 0.60599 0.0
C481 C 0.95922 0.92569 0.60409 0.0
C482 C 0.97996 0.98983 0.64139 0.0
C483 C 0.97629 0.96135 0.6757 0.0
C484 C 0.96552 0.91281 0.67318 0.0
H485 H 0.93327 0.99898 0.9002 0.0
H486 H 0.94982 0.97243 0.8388 0.0
C487 C 0.95737 0.89472 0.63748 0.0
C488 C 0.97915 0.98685 0.71421 0.0
H489 H 0.99313 0.96291 0.80888 0.0
C490 C 0.96873 0.03507 0.7197 0.0
C491 C 0.98912 0.96188 0.74647 0.0
C492 C 1.00203 0.91211 0.74216 0.0
C493 C 0.96618 0.05661 0.75687 0.0
C494 C 0.9746 0.02958 0.78951 0.0
C495 C 0.98651 0.98334 0.78381 0.0
C496 C 0.96792 0.04417 0.82957 0.0
C497 C 0.95297 0.10612 0.76107 0.0
C498 C 0.97308 0.09303 0.84541 0.0
C499 C 0.96331 0.10884 0.88057 0.0
C500 C 0.94842 0.07576 0.90046 0.0
C501 C 0.94443 0.02579 0.8855 0.0
C502 C 0.95405 0.01025 0.85048 0.0
H503 H 0.94474 0.11771 0.73341 0.0
H504 H 0.93989 0.10183 0.78384 0.0
H505 H 0.96439 0.13799 0.76996 0.0
H506 H 0.98403 0.11953 0.83002 0.0
H507 H 0.96696 0.14729 0.8916 0.0
H508 H 0.06203 0.86082 0.89454 0.0
H509 H 0.04331 0.88981 0.83466 0.0
H510 H 0.07983 0.0342 0.83961 0.0
H511 H 0.0981 0.00646 0.89911 0.0
H512 H 0.03472 0.04631 0.81663 0.0
H513 H 0.07881 0.8921 0.73264 0.0
H514 H 0.06091 0.87189 0.77193 0.0
H515 H 0.0862 0.90711 0.78229 0.0
C516 C 0.06594 0.89883 0.88292 0.0
C517 C 0.08183 0.93095 0.90129 0.0
C518 C 0.05521 0.91535 0.84883 0.0
C519 C 0.06037 0.96397 0.83259 0.0
C520 C 0.07554 0.99665 0.85173 0.0
H521 H 0.0747 0.15103 0.6401 0.0
H522 H 0.06269 0.11961 0.70397 0.0
C523 C 0.08614 0.98041 0.88564 0.0
C524 C 0.05204 0.97973 0.79381 0.0
H525 H 0.06144 0.95731 0.69749 0.0
C526 C 0.04016 0.02642 0.79045 0.0
C527 C 0.059 0.9535 0.75978 0.0
C528 C 0.07204 0.90353 0.76154 0.0
C529 C 0.03615 0.04905 0.7539 0.0
C530 C 0.04457 0.02467 0.72008 0.0
C531 C 0.05499 0.97613 0.7234 0.0
C532 C 0.04583 0.05109 0.68175 0.0
C533 C 0.02349 0.09941 0.75196 0.0
C534 C 0.04002 0.02384 0.64781 0.0
C535 C 0.04755 0.04097 0.61154 0.0
C536 C 0.06055 0.08623 0.60855 0.0
C537 C 0.06442 0.11642 0.6418 0.0
C538 C 0.05735 0.09859 0.6783 0.0
H539 H 0.01178 0.10321 0.77689 0.0
H540 H 0.03548 0.13225 0.75369 0.0
H541 H 0.01391 0.10266 0.72436 0.0
H542 H 0.03125 0.98708 0.64971 0.0
H543 H 0.04442 0.01713 0.58611 0.0
H544 H 0.46205 0.83323 0.09404 0.0
H545 H 0.48306 0.91459 0.09056 0.0
H546 H 0.48803 0.89895 0.96583 0.0
H547 H 0.4669 0.81741 0.96894 0.0
H548 H 0.52714 0.92856 0.05961 0.0
H549 H 0.46426 0.04828 0.98172 0.0
H550 H 0.45704 0.98829 0.00586 0.0
H551 H 0.47097 0.98714 0.95951 0.0
C552 C 0.46745 0.84715 0.06578 0.0
C553 C 0.46271 0.81874 0.03174 0.0
C554 C 0.47951 0.89369 0.06388 0.0
C555 C 0.48692 0.91314 0.02793 0.0
C556 C 0.48217 0.88509 -0.00617 0.0
H557 H 0.56157 0.19432 0.96743 0.0
H558 H 0.54106 0.11193 0.96556 0.0
C559 C 0.47017 0.83835 -0.0043 0.0
C560 C 0.50025 0.96188 0.02647 0.0
H561 H 0.49949 0.08697 -0.0063 0.0
C562 C 0.5211 0.96323 0.04523 0.0
C563 C 0.49241 0.00694 0.00745 0.0
C564 C 0.46988 0.00805 0.9877 0.0
C565 C 0.53439 0.00832 0.04536 0.0
C566 C 0.52637 0.05378 0.02703 0.0
C567 C 0.50562 0.0522 0.0078 0.0
C568 C 0.53901 0.10362 0.0282 0.0
C569 C 0.55707 0.00646 0.06457 0.0
C570 C 0.54447 0.12679 0.06399 0.0
C571 C 0.55628 0.17369 0.06517 0.0
C572 C 0.56271 0.19887 0.03053 0.0
C573 C 0.55696 0.17596 -0.00533 0.0
C574 C 0.5452 0.12886 -0.00646 0.0
H575 H 0.56345 0.96613 0.0665 0.0
H576 H 0.56948 0.0304 0.04846 0.0
H577 H 0.55569 0.02183 0.09467 0.0
H578 H 0.5394 0.10881 0.09113 0.0
H579 H 0.56023 0.19038 0.0933 0.0
H580 H 0.561 0.84001 0.41226 0.0
H581 H 0.53771 0.9176 0.41581 0.0
H582 H 0.54019 0.91224 0.54124 0.0
H583 H 0.5636 0.8346 0.53806 0.0
H584 H 0.49518 0.926 0.45395 0.0
H585 H 0.55795 0.06371 0.51451 0.0
H586 H 0.56575 1.00323 0.49182 0.0
H587 H 0.55469 1.00361 0.54047 0.0
C588 C 0.55676 0.85547 0.44065 0.0
C589 C 0.56424 0.83107 0.47489 0.0
C590 C 0.5434 0.89981 0.44259 0.0
C591 C 0.5374 0.921 0.47875 0.0
C592 C 0.54491 0.897 0.51301 0.0
H593 H 0.4573 0.19158 0.54101 0.0
H594 H 0.48033 0.11324 0.54248 0.0
C595 C 0.55822 0.85248 0.51112 0.0
C596 C 0.52262 0.96712 0.48046 0.0
H597 H 0.52096 0.09444 0.50774 0.0
C598 C 0.50081 0.96287 0.46566 0.0
C599 C 0.52995 0.01503 0.49602 0.0
C600 C 0.55341 0.0221 0.51138 0.0
C601 C 0.48607 1.00517 0.46617 0.0
C602 C 0.49351 0.05344 0.48105 0.0
C603 C 0.51526 0.05749 0.4963 0.0
C604 C 0.47919 0.10048 0.48021 0.0
C605 C 0.46252 0.99743 0.45137 0.0
C606 C 0.47107 0.11972 0.44469 0.0
C607 C 0.45783 0.1643 0.44377 0.0
C608 C 0.4526 0.19099 0.47833 0.0
C609 C 0.46093 0.17191 0.51386 0.0
C610 C 0.47413 0.12717 0.51476 0.0
H611 H 0.4575 0.95592 0.45215 0.0
H612 H 0.45033 0.02012 0.46879 0.0
H613 H 0.46157 0.01066 0.42067 0.0
H614 H 0.47518 0.10058 0.41755 0.0
H615 H 0.45188 0.17807 0.41585 0.0
H616 H 0.02595 0.73853 0.03622 0.0
H617 H 1.0057 0.65621 0.03636 0.0
H618 H 0.0617 0.58204 0.9803 0.0
H619 H 0.08238 0.66429 0.98098 0.0
H620 H 0.99224 0.59702 0.97619 0.0
H621 H 0.04997 0.48351 0.06936 0.0
H622 H 0.0521 0.55301 0.06453 0.0
H623 H 0.06307 0.51133 0.02715 0.0
C624 C 0.03406 0.70471 0.02409 0.0
C625 C 0.05586 0.70804 0.00872 0.0
C626 C 0.02243 0.65759 0.02417 0.0
C627 C 0.03225 0.61261 0.00887 0.0
C628 C 0.05394 0.61583 -0.00685 0.0
H629 H 0.97901 0.29849 0.97929 0.0
H630 H 1.00177 0.3776 0.97608 0.0
C631 C 0.0657 0.663 -0.00668 0.0
C632 C 0.01937 0.56303 0.00849 0.0
H633 H 0.01992 0.43736 0.04032 0.0
C634 C 0.99831 0.56218 0.99029 0.0
C635 C 0.02726 0.5174 0.02681 0.0
C636 C 0.04924 0.51627 0.04839 0.0
C637 C 0.98499 0.51716 0.98986 0.0
C638 C 0.99281 0.47177 0.00841 0.0
C639 C 0.01398 0.47223 0.0261 0.0
C640 C 0.979 0.4238 0.01048 0.0
C641 C 0.96272 0.51835 0.96922 0.0
C642 C 0.95876 0.42335 0.03126 0.0
C643 C 0.94574 0.37819 0.03329 0.0
C644 C 0.9527 0.33248 0.01454 0.0
C645 C 0.97308 0.33301 -0.00606 0.0
C646 C 0.98615 0.37816 -0.00789 0.0
H647 H 0.96154 0.5516 0.94875 0.0
H648 H 0.95983 0.48187 0.95276 0.0
H649 H 0.94915 0.52223 0.99111 0.0
H650 H 0.95308 0.45792 0.04616 0.0
H651 H 0.9302 0.37919 0.04953 0.0
H652 H 0.05996 0.32377 0.40643 0.0
H653 H 0.03998 0.40642 0.40651 0.0
H654 H 0.03505 0.40032 0.53173 0.0
H655 H 0.0552 0.31799 0.53205 0.0
H656 H 0.99679 0.42629 0.43508 0.0
H657 H 0.06029 0.54595 0.51193 0.0
H658 H 0.06672 0.48354 0.49098 0.0
H659 H 0.05248 0.48752 0.53703 0.0
C660 C 0.05479 0.34015 0.43405 0.0
C661 C 0.05928 0.31427 0.46926 0.0
C662 C 0.04333 0.38738 0.43401 0.0
C663 C 0.03627 0.40989 0.46914 0.0
C664 C 0.04072 0.3842 0.50433 0.0
H665 H 0.96236 0.68752 0.53107 0.0
H666 H 0.98259 0.60524 0.53067 0.0
C667 C 0.05215 0.33695 0.50442 0.0
C668 C 0.0236 0.45935 0.46887 0.0
H669 H 0.02477 0.58437 0.50173 0.0
C670 C 1.00295 0.46096 0.44947 0.0
C671 C 0.03163 0.50446 0.48779 0.0
C672 C 0.05408 0.50566 0.50784 0.0
C673 C 0.9899 0.50617 0.44907 0.0
C674 C 0.99793 0.55134 0.46796 0.0
C675 C 0.01861 0.54972 0.48733 0.0
C676 C 0.9852 0.60075 0.4679 0.0
C677 C 0.96738 0.50474 0.42925 0.0
C678 C 0.98007 0.62585 0.43274 0.0
C679 C 0.96842 0.67282 0.43285 0.0
C680 C 0.96183 0.69593 0.46816 0.0
C681 C 0.96711 0.6708 0.50334 0.0
C682 C 0.97872 0.62377 0.50319 0.0
H683 H 0.96109 0.46441 0.42577 0.0
H684 H 0.95481 0.52736 0.44588 0.0
H685 H 0.96894 0.52206 0.39978 0.0
H686 H 0.98533 0.60946 0.40519 0.0
H687 H 0.9648 0.69125 0.40523 0.0
loop_
_geom_bond_atom_site_label_1
_geom_bond_atom_site_label_2
_geom_bond_distance
_geom_bond_site_symmetry_2
_ccdc_geom_bond_type
Zn0 O3 2.031 . S
Zn0 O5 2.049 1_554 S
Zn0 O10 2.067 1_554 S
Zn1 O2 1.962 . S
Zn1 O4 1.986 1_554 S
Zn1 O6 1.996 1_554 S
Zn1 O9 1.943 . S
O2 Zn1 1.962 . S
O2 C7 1.254 . S
O3 Zn0 2.031 . S
O3 C7 1.269 . S
O4 Zn1 1.986 1_556 S
O4 C11 1.262 1_556 S
O5 Zn0 2.049 1_556 S
O5 C13 1.260 . S
O6 Zn1 1.996 1_556 S
O6 C13 1.257 . S
C7 O2 1.254 . S
C7 O3 1.269 . S
C8 O9 1.249 . S
C8 O10 1.270 1_554 S
O9 Zn1 1.943 . S
O9 C8 1.249 . S
O10 Zn0 2.067 1_556 S
O10 C8 1.270 1_556 S
C11 O4 1.262 1_554 S
C11 O12 1.232 . S
O12 C11 1.232 . S
C13 O5 1.260 . S
C13 O6 1.257 . S
Zn14 O17 2.031 . S
Zn14 O19 2.049 1_554 S
Zn14 O24 2.067 1_554 S
Zn15 O16 1.962 . S
Zn15 O18 1.986 1_554 S
Zn15 O20 1.996 1_554 S
Zn15 O23 1.943 . S
O16 Zn15 1.962 . S
O16 C21 1.254 . S
O17 Zn14 2.031 . S
O17 C21 1.269 . S
O18 Zn15 1.986 1_556 S
O18 C25 1.262 1_556 S
O19 Zn14 2.049 1_556 S
O19 C27 1.260 . S
O20 Zn15 1.996 1_556 S
O20 C27 1.257 . S
C21 O16 1.254 . S
C21 O17 1.269 . S
C22 O23 1.249 . S
C22 O24 1.270 1_554 S
O23 Zn15 1.943 . S
O23 C22 1.249 . S
O24 Zn14 2.067 1_556 S
O24 C22 1.270 1_556 S
C25 O18 1.262 1_554 S
C25 O26 1.232 . S
O26 C25 1.232 . S
C27 O19 1.260 . S
C27 O20 1.257 . S
Zn28 O31 2.031 . S
Zn28 O33 2.049 . S
Zn28 O38 2.067 . S
Zn29 O30 1.962 . S
Zn29 O32 1.986 . S
Zn29 O34 1.996 . S
Zn29 O37 1.943 . S
O30 Zn29 1.962 . S
O30 C35 1.254 . S
O31 Zn28 2.031 . S
O31 C35 1.269 . S
O32 Zn29 1.986 . S
O32 C39 1.262 . S
O33 Zn28 2.049 . S
O33 C41 1.260 . S
O34 Zn29 1.996 . S
O34 C41 1.257 . S
C35 O30 1.254 . S
C35 O31 1.269 . S
C36 O37 1.249 . S
C36 O38 1.270 . S
O37 Zn29 1.943 . S
O37 C36 1.249 . S
O38 Zn28 2.067 . S
O38 C36 1.270 . S
C39 O32 1.262 . S
C39 O40 1.232 . S
O40 C39 1.232 . S
C41 O33 1.260 . S
C41 O34 1.257 . S
Zn42 O45 2.031 . S
Zn42 O47 2.049 . S
Zn42 O52 2.067 . S
Zn43 O44 1.962 . S
Zn43 O46 1.986 . S
Zn43 O48 1.996 . S
Zn43 O51 1.943 . S
O44 Zn43 1.962 . S
O44 C49 1.254 . S
O45 Zn42 2.031 . S
O45 C49 1.269 . S
O46 Zn43 1.986 . S
O46 C53 1.262 . S
O47 Zn42 2.049 . S
O47 C55 1.260 . S
O48 Zn43 1.996 . S
O48 C55 1.257 . S
C49 O44 1.254 . S
C49 O45 1.269 . S
C50 O51 1.249 . S
C50 O52 1.270 . S
O51 Zn43 1.943 . S
O51 C50 1.249 . S
O52 Zn42 2.067 . S
O52 C50 1.270 . S
C53 O46 1.262 . S
C53 O54 1.232 . S
O54 C53 1.232 . S
C55 O47 1.260 . S
C55 O48 1.257 . S
Zn56 O59 2.031 . S
Zn56 O61 2.049 1_554 S
Zn56 O66 2.067 1_554 S
Zn57 O58 1.962 . S
Zn57 O60 1.986 1_554 S
Zn57 O62 1.996 1_554 S
Zn57 O65 1.943 . S
O58 Zn57 1.962 . S
O58 C63 1.254 . S
O59 Zn56 2.031 . S
O59 C63 1.269 . S
O60 Zn57 1.986 1_556 S
O60 C67 1.262 1_556 S
O61 Zn56 2.049 1_556 S
O61 C69 1.260 . S
O62 Zn57 1.996 1_556 S
O62 C69 1.257 . S
C63 O58 1.254 . S
C63 O59 1.269 . S
C64 O65 1.249 . S
C64 O66 1.270 1_554 S
O65 Zn57 1.943 . S
O65 C64 1.249 . S
O66 Zn56 2.067 1_556 S
O66 C64 1.270 1_556 S
C67 O60 1.262 1_554 S
C67 O68 1.232 . S
O68 C67 1.232 . S
C69 O61 1.260 . S
C69 O62 1.257 . S
Zn70 O73 2.031 . S
Zn70 O75 2.049 1_554 S
Zn70 O80 2.067 1_554 S
Zn71 O72 1.962 . S
Zn71 O74 1.986 1_554 S
Zn71 O76 1.996 1_554 S
Zn71 O79 1.943 . S
O72 Zn71 1.962 . S
O72 C77 1.254 . S
O73 Zn70 2.031 . S
O73 C77 1.269 . S
O74 Zn71 1.986 1_556 S
O74 C81 1.262 1_556 S
O75 Zn70 2.049 1_556 S
O75 C83 1.260 . S
O76 Zn71 1.996 1_556 S
O76 C83 1.257 . S
C77 O72 1.254 . S
C77 O73 1.269 . S
C78 O79 1.249 . S
C78 O80 1.270 1_554 S
O79 Zn71 1.943 . S
O79 C78 1.249 . S
O80 Zn70 2.067 1_556 S
O80 C78 1.270 1_556 S
C81 O74 1.262 1_554 S
C81 O82 1.232 . S
O82 C81 1.232 . S
C83 O75 1.260 . S
C83 O76 1.257 . S
Zn84 O87 2.031 . S
Zn84 O89 2.049 . S
Zn84 O94 2.067 . S
Zn85 O86 1.962 . S
Zn85 O88 1.986 . S
Zn85 O90 1.996 . S
Zn85 O93 1.943 . S
O86 Zn85 1.962 . S
O86 C91 1.254 . S
O87 Zn84 2.031 . S
O87 C91 1.269 . S
O88 Zn85 1.986 . S
O88 C95 1.262 . S
O89 Zn84 2.049 . S
O89 C97 1.260 . S
O90 Zn85 1.996 . S
O90 C97 1.257 . S
C91 O86 1.254 . S
C91 O87 1.269 . S
C92 O93 1.249 . S
C92 O94 1.270 . S
O93 Zn85 1.943 . S
O93 C92 1.249 . S
O94 Zn84 2.067 . S
O94 C92 1.270 . S
C95 O88 1.262 . S
C95 O96 1.232 . S
O96 C95 1.232 . S
C97 O89 1.260 . S
C97 O90 1.257 . S
Zn98 O101 2.031 . S
Zn98 O103 2.049 . S
Zn98 O108 2.067 . S
Zn99 O100 1.962 . S
Zn99 O102 1.986 . S
Zn99 O104 1.996 . S
Zn99 O107 1.943 . S
O100 Zn99 1.962 . S
O100 C105 1.254 . S
O101 Zn98 2.031 . S
O101 C105 1.269 . S
O102 Zn99 1.986 . S
O102 C109 1.262 . S
O103 Zn98 2.049 . S
O103 C111 1.260 . S
O104 Zn99 1.996 . S
O104 C111 1.257 . S
C105 O100 1.254 . S
C105 O101 1.269 . S
C106 O107 1.249 . S
C106 O108 1.270 . S
O107 Zn99 1.943 . S
O107 C106 1.249 . S
O108 Zn98 2.067 . S
O108 C106 1.270 . S
C109 O102 1.262 . S
C109 O110 1.232 . S
O110 C109 1.232 . S
C111 O103 1.260 . S
C111 O104 1.257 . S
H112 C120 0.929 . S
H113 C122 0.930 . S
H114 C124 0.930 . S
H115 C127 0.929 . S
H116 C130 0.930 . S
H117 C132 0.960 . S
H118 C132 0.960 . S
H119 C132 0.960 1_556 S
C120 H112 0.929 . S
C120 C121 1.377 . S
C120 C122 1.384 . S
C121 C120 1.377 . S
C121 C127 1.390 1_554 S
C122 H113 0.930 . S
C122 C120 1.384 . S
C122 C123 1.372 . S
C123 C122 1.372 . S
C123 C124 1.400 1_554 S
C123 C128 1.490 . S
C124 H114 0.930 . S
C124 C123 1.400 1_556 S
C124 C127 1.386 . S
H125 C141 0.930 . S
H126 C142 0.931 . S
C127 H115 0.929 . S
C127 C121 1.390 1_556 S
C127 C124 1.386 . S
C128 C123 1.490 . S
C128 C130 1.395 . S
C128 C131 1.403 . S
H129 C135 0.930 . S
C130 H116 0.930 . S
C130 C128 1.395 . S
C130 C133 1.403 . S
C131 C128 1.403 . S
C131 C132 1.524 . S
C131 C135 1.400 . S
C132 H117 0.960 . S
C132 H118 0.960 . S
C132 H119 0.960 1_554 S
C132 C131 1.524 . S
C133 C130 1.403 . S
C133 C134 1.392 . S
C133 C137 1.495 . S
C134 C133 1.392 . S
C134 C135 1.385 . S
C134 C136 1.478 . S
C135 H129 0.930 . S
C135 C131 1.400 . S
C135 C134 1.385 . S
C136 C134 1.478 . S
C136 C138 1.381 . S
C136 C142 1.383 1_554 S
C137 C133 1.495 . S
C137 H143 0.959 . S
C137 H144 0.961 . S
C137 H145 0.960 . S
C138 C136 1.381 . S
C138 C139 1.394 . S
C138 H146 0.930 . S
C139 C138 1.394 . S
C139 C140 1.383 . S
C139 H147 0.929 . S
C140 C139 1.383 . S
C140 C141 1.377 1_554 S
C141 H125 0.930 . S
C141 C140 1.377 1_556 S
C141 C142 1.379 . S
C142 H126 0.931 . S
C142 C136 1.383 1_556 S
C142 C141 1.379 . S
H143 C137 0.959 . S
H144 C137 0.961 . S
H145 C137 0.960 . S
H146 C138 0.930 . S
H147 C139 0.929 . S
H148 C156 0.929 . S
H149 C158 0.930 . S
H150 C160 0.930 . S
H151 C163 0.929 . S
H152 C166 0.930 . S
H153 C168 0.960 . S
H154 C168 0.960 . S
H155 C168 0.960 . S
C156 H148 0.929 . S
C156 C157 1.377 . S
C156 C158 1.384 . S
C157 C156 1.377 . S
C157 C163 1.390 1_554 S
C158 H149 0.930 . S
C158 C156 1.384 . S
C158 C159 1.372 . S
C159 C158 1.372 . S
C159 C160 1.400 1_554 S
C159 C164 1.490 . S
C160 H150 0.930 . S
C160 C159 1.400 1_556 S
C160 C163 1.386 . S
H161 C177 0.930 . S
H162 C178 0.931 . S
C163 H151 0.929 . S
C163 C157 1.390 1_556 S
C163 C160 1.386 . S
C164 C159 1.490 . S
C164 C166 1.395 . S
C164 C167 1.403 . S
H165 C171 0.930 . S
C166 H152 0.930 . S
C166 C164 1.395 . S
C166 C169 1.403 . S
C167 C164 1.403 . S
C167 C168 1.524 . S
C167 C171 1.400 . S
C168 H153 0.960 . S
C168 H154 0.960 . S
C168 H155 0.960 . S
C168 C167 1.524 . S
C169 C166 1.403 . S
C169 C170 1.392 . S
C169 C173 1.495 . S
C170 C169 1.392 . S
C170 C171 1.385 . S
C170 C172 1.478 . S
C171 H165 0.930 . S
C171 C167 1.400 . S
C171 C170 1.385 . S
C172 C170 1.478 . S
C172 C174 1.381 . S
C172 C178 1.383 1_554 S
C173 C169 1.495 . S
C173 H179 0.959 . S
C173 H180 0.961 1_554 S
C173 H181 0.960 . S
C174 C172 1.381 . S
C174 C175 1.394 . S
C174 H182 0.930 . S
C175 C174 1.394 . S
C175 C176 1.383 . S
C175 H183 0.929 . S
C176 C175 1.383 . S
C176 C177 1.377 1_554 S
C177 H161 0.930 . S
C177 C176 1.377 1_556 S
C177 C178 1.379 . S
C178 H162 0.931 . S
C178 C172 1.383 1_556 S
C178 C177 1.379 . S
H179 C173 0.959 . S
H180 C173 0.961 1_556 S
H181 C173 0.960 . S
H182 C174 0.930 . S
H183 C175 0.929 . S
H184 C192 0.929 . S
H185 C194 0.930 . S
H186 C196 0.930 . S
H187 C199 0.929 . S
H188 C202 0.930 . S
H189 C204 0.960 . S
H190 C204 0.960 . S
H191 C204 0.960 . S
C192 H184 0.929 . S
C192 C193 1.377 . S
C192 C194 1.384 . S
C193 C192 1.377 . S
C193 C199 1.390 . S
C194 H185 0.930 . S
C194 C192 1.384 . S
C194 C195 1.372 . S
C195 C194 1.372 . S
C195 C196 1.400 . S
C195 C200 1.490 . S
C196 H186 0.930 . S
C196 C195 1.400 . S
C196 C199 1.386 . S
H197 C213 0.930 . S
H198 C214 0.931 . S
C199 H187 0.929 . S
C199 C193 1.390 . S
C199 C196 1.386 . S
C200 C195 1.490 . S
C200 C202 1.395 . S
C200 C203 1.403 . S
H201 C207 0.930 . S
C202 H188 0.930 . S
C202 C200 1.395 . S
C202 C205 1.403 . S
C203 C200 1.403 . S
C203 C204 1.524 . S
C203 C207 1.400 . S
C204 H189 0.960 . S
C204 H190 0.960 . S
C204 H191 0.960 . S
C204 C203 1.524 . S
C205 C202 1.403 . S
C205 C206 1.392 . S
C205 C209 1.495 . S
C206 C205 1.392 . S
C206 C207 1.385 . S
C206 C208 1.478 . S
C207 H201 0.930 . S
C207 C203 1.400 . S
C207 C206 1.385 . S
C208 C206 1.478 . S
C208 C210 1.381 . S
C208 C214 1.383 . S
C209 C205 1.495 . S
C209 H215 0.959 . S
C209 H216 0.961 . S
C209 H217 0.960 . S
C210 C208 1.381 . S
C210 C211 1.394 . S
C210 H218 0.930 . S
C211 C210 1.394 . S
C211 C212 1.383 . S
C211 H219 0.929 . S
C212 C211 1.383 . S
C212 C213 1.377 . S
C213 H197 0.930 . S
C213 C212 1.377 . S
C213 C214 1.379 . S
C214 H198 0.931 . S
C214 C208 1.383 . S
C214 C213 1.379 . S
H215 C209 0.959 . S
H216 C209 0.961 . S
H217 C209 0.960 . S
H218 C210 0.930 . S
H219 C211 0.929 . S
H220 C228 0.929 . S
H221 C230 0.930 . S
H222 C232 0.930 . S
H223 C235 0.929 . S
H224 C238 0.930 . S
H225 C240 0.960 . S
H226 C240 0.960 . S
H227 C240 0.960 . S
C228 H220 0.929 . S
C228 C229 1.377 . S
C228 C230 1.384 . S
C229 C228 1.377 . S
C229 C235 1.390 . S
C230 H221 0.930 . S
C230 C228 1.384 . S
C230 C231 1.372 . S
C231 C230 1.372 . S
C231 C232 1.400 . S
C231 C236 1.490 . S
C232 H222 0.930 . S
C232 C231 1.400 . S
C232 C235 1.386 . S
H233 C249 0.930 . S
H234 C250 0.931 . S
C235 H223 0.929 . S
C235 C229 1.390 . S
C235 C232 1.386 . S
C236 C231 1.490 . S
C236 C238 1.395 . S
C236 C239 1.403 . S
H237 C243 0.930 . S
C238 H224 0.930 . S
C238 C236 1.395 . S
C238 C241 1.403 . S
C239 C236 1.403 . S
C239 C240 1.524 . S
C239 C243 1.400 . S
C240 H225 0.960 . S
C240 H226 0.960 . S
C240 H227 0.960 . S
C240 C239 1.524 . S
C241 C238 1.403 . S
C241 C242 1.392 . S
C241 C245 1.495 . S
C242 C241 1.392 . S
C242 C243 1.385 . S
C242 C244 1.478 . S
C243 H237 0.930 . S
C243 C239 1.400 . S
C243 C242 1.385 . S
C244 C242 1.478 . S
C244 C246 1.381 . S
C244 C250 1.383 . S
C245 C241 1.495 . S
C245 H251 0.959 . S
C245 H252 0.961 . S
C245 H253 0.960 . S
C246 C244 1.381 . S
C246 C247 1.394 . S
C246 H254 0.930 . S
C247 C246 1.394 . S
C247 C248 1.383 . S
C247 H255 0.929 . S
C248 C247 1.383 . S
C248 C249 1.377 . S
C249 H233 0.930 . S
C249 C248 1.377 . S
C249 C250 1.379 . S
C250 H234 0.931 . S
C250 C244 1.383 . S
C250 C249 1.379 . S
H251 C245 0.959 . S
H252 C245 0.961 . S
H253 C245 0.960 . S
H254 C246 0.930 . S
H255 C247 0.929 . S
H256 C264 0.929 . S
H257 C266 0.930 . S
H258 C268 0.930 . S
H259 C271 0.929 . S
H260 C274 0.930 . S
H261 C276 0.960 . S
H262 C276 0.960 . S
H263 C276 0.960 . S
C264 H256 0.929 . S
C264 C265 1.377 . S
C264 C266 1.384 . S
C265 C264 1.377 . S
C265 C271 1.390 . S
C266 H257 0.930 . S
C266 C264 1.384 . S
C266 C267 1.372 . S
C267 C266 1.372 . S
C267 C268 1.400 . S
C267 C272 1.490 . S
C268 H258 0.930 . S
C268 C267 1.400 . S
C268 C271 1.386 . S
H269 C285 0.930 . S
H270 C286 0.931 . S
C271 H259 0.929 . S
C271 C265 1.390 . S
C271 C268 1.386 . S
C272 C267 1.490 . S
C272 C274 1.395 . S
C272 C275 1.403 . S
H273 C279 0.930 . S
C274 H260 0.930 . S
C274 C272 1.395 . S
C274 C277 1.403 . S
C275 C272 1.403 . S
C275 C276 1.524 . S
C275 C279 1.400 . S
C276 H261 0.960 . S
C276 H262 0.960 . S
C276 H263 0.960 . S
C276 C275 1.524 . S
C277 C274 1.403 . S
C277 C278 1.392 . S
C277 C281 1.495 . S
C278 C277 1.392 . S
C278 C279 1.385 . S
C278 C280 1.478 . S
C279 H273 0.930 . S
C279 C275 1.400 . S
C279 C278 1.385 . S
C280 C278 1.478 . S
C280 C282 1.381 . S
C280 C286 1.383 . S
C281 C277 1.495 . S
C281 H287 0.959 . S
C281 H288 0.961 . S
C281 H289 0.960 . S
C282 C280 1.381 . S
C282 C283 1.394 . S
C282 H290 0.930 . S
C283 C282 1.394 . S
C283 C284 1.383 . S
C283 H291 0.929 . S
C284 C283 1.383 . S
C284 C285 1.377 . S
C285 H269 0.930 . S
C285 C284 1.377 . S
C285 C286 1.379 . S
C286 H270 0.931 . S
C286 C280 1.383 . S
C286 C285 1.379 . S
H287 C281 0.959 . S
H288 C281 0.961 . S
H289 C281 0.960 . S
H290 C282 0.930 . S
H291 C283 0.929 . S
H292 C300 0.929 . S
H293 C302 0.930 . S
H294 C304 0.930 . S
H295 C307 0.929 . S
H296 C310 0.930 . S
H297 C312 0.960 . S
H298 C312 0.960 . S
H299 C312 0.960 . S
C300 H292 0.929 . S
C300 C301 1.377 . S
C300 C302 1.384 . S
C301 C300 1.377 . S
C301 C307 1.390 . S
C302 H293 0.930 . S
C302 C300 1.384 . S
C302 C303 1.372 . S
C303 C302 1.372 . S
C303 C304 1.400 . S
C303 C308 1.490 . S
C304 H294 0.930 . S
C304 C303 1.400 . S
C304 C307 1.386 . S
H305 C321 0.930 . S
H306 C322 0.931 . S
C307 H295 0.929 . S
C307 C301 1.390 . S
C307 C304 1.386 . S
C308 C303 1.490 . S
C308 C310 1.395 . S
C308 C311 1.403 . S
H309 C315 0.930 . S
C310 H296 0.930 . S
C310 C308 1.395 . S
C310 C313 1.403 . S
C311 C308 1.403 . S
C311 C312 1.524 . S
C311 C315 1.400 . S
C312 H297 0.960 . S
C312 H298 0.960 . S
C312 H299 0.960 . S
C312 C311 1.524 . S
C313 C310 1.403 . S
C313 C314 1.392 . S
C313 C317 1.495 . S
C314 C313 1.392 . S
C314 C315 1.385 . S
C314 C316 1.478 . S
C315 H309 0.930 . S
C315 C311 1.400 . S
C315 C314 1.385 . S
C316 C314 1.478 . S
C316 C318 1.381 . S
C316 C322 1.383 . S
C317 C313 1.495 . S
C317 H323 0.959 . S
C317 H324 0.961 . S
C317 H325 0.960 . S
C318 C316 1.381 . S
C318 C319 1.394 . S
C318 H326 0.930 . S
C319 C318 1.394 . S
C319 C320 1.383 . S
C319 H327 0.929 . S
C320 C319 1.383 . S
C320 C321 1.377 . S
C321 H305 0.930 . S
C321 C320 1.377 . S
C321 C322 1.379 . S
C322 H306 0.931 . S
C322 C316 1.383 . S
C322 C321 1.379 . S
H323 C317 0.959 . S
H324 C317 0.961 . S
H325 C317 0.960 . S
H326 C318 0.930 . S
H327 C319 0.929 . S
H328 C336 0.929 . S
H329 C338 0.930 . S
H330 C340 0.930 . S
H331 C343 0.929 . S
H332 C346 0.930 . S
H333 C348 0.960 . S
H334 C348 0.960 . S
H335 C348 0.960 . S
C336 H328 0.929 . S
C336 C337 1.377 . S
C336 C338 1.384 . S
C337 C336 1.377 . S
C337 C343 1.390 . S
C338 H329 0.930 . S
C338 C336 1.384 . S
C338 C339 1.372 . S
C339 C338 1.372 . S
C339 C340 1.400 . S
C339 C344 1.490 . S
C340 H330 0.930 . S
C340 C339 1.400 . S
C340 C343 1.386 . S
H341 C357 0.930 . S
H342 C358 0.931 . S
C343 H331 0.929 . S
C343 C337 1.390 . S
C343 C340 1.386 . S
C344 C339 1.490 . S
C344 C346 1.395 . S
C344 C347 1.403 . S
H345 C351 0.930 . S
C346 H332 0.930 . S
C346 C344 1.395 . S
C346 C349 1.403 . S
C347 C344 1.403 . S
C347 C348 1.524 . S
C347 C351 1.400 . S
C348 H333 0.960 . S
C348 H334 0.960 . S
C348 H335 0.960 . S
C348 C347 1.524 . S
C349 C346 1.403 . S
C349 C350 1.392 . S
C349 C353 1.495 . S
C350 C349 1.392 . S
C350 C351 1.385 . S
C350 C352 1.478 . S
C351 H345 0.930 . S
C351 C347 1.400 . S
C351 C350 1.385 . S
C352 C350 1.478 . S
C352 C354 1.381 . S
C352 C358 1.383 . S
C353 C349 1.495 . S
C353 H359 0.959 . S
C353 H360 0.961 . S
C353 H361 0.960 . S
C354 C352 1.381 . S
C354 C355 1.394 . S
C354 H362 0.930 . S
C355 C354 1.394 . S
C355 C356 1.383 . S
C355 H363 0.929 . S
C356 C355 1.383 . S
C356 C357 1.377 . S
C357 H341 0.930 . S
C357 C356 1.377 . S
C357 C358 1.379 . S
C358 H342 0.931 . S
C358 C352 1.383 . S
C358 C357 1.379 . S
H359 C353 0.959 . S
H360 C353 0.961 . S
H361 C353 0.960 . S
H362 C354 0.930 . S
H363 C355 0.929 . S
H364 C372 0.929 . S
H365 C374 0.930 . S
H366 C376 0.930 . S
H367 C379 0.929 . S
H368 C382 0.930 . S
H369 C384 0.960 . S
H370 C384 0.960 . S
H371 C384 0.960 . S
C372 H364 0.929 . S
C372 C373 1.377 . S
C372 C374 1.384 . S
C373 C372 1.377 . S
C373 C379 1.390 . S
C374 H365 0.930 . S
C374 C372 1.384 . S
C374 C375 1.372 . S
C375 C374 1.372 . S
C375 C376 1.400 . S
C375 C380 1.490 . S
C376 H366 0.930 . S
C376 C375 1.400 . S
C376 C379 1.386 . S
H377 C393 0.930 . S
H378 C394 0.931 . S
C379 H367 0.929 . S
C379 C373 1.390 . S
C379 C376 1.386 . S
C380 C375 1.490 . S
C380 C382 1.395 . S
C380 C383 1.403 . S
H381 C387 0.930 . S
C382 H368 0.930 . S
C382 C380 1.395 . S
C382 C385 1.403 . S
C383 C380 1.403 . S
C383 C384 1.524 . S
C383 C387 1.400 . S
C384 H369 0.960 . S
C384 H370 0.960 . S
C384 H371 0.960 . S
C384 C383 1.524 . S
C385 C382 1.403 . S
C385 C386 1.392 . S
C385 C389 1.495 . S
C386 C385 1.392 . S
C386 C387 1.385 . S
C386 C388 1.478 . S
C387 H381 0.930 . S
C387 C383 1.400 . S
C387 C386 1.385 . S
C388 C386 1.478 . S
C388 C390 1.381 . S
C388 C394 1.383 . S
C389 C385 1.495 . S
C389 H395 0.959 . S
C389 H396 0.961 . S
C389 H397 0.960 . S
C390 C388 1.381 . S
C390 C391 1.394 . S
C390 H398 0.930 . S
C391 C390 1.394 . S
C391 C392 1.383 . S
C391 H399 0.929 . S
C392 C391 1.383 . S
C392 C393 1.377 . S
C393 H377 0.930 . S
C393 C392 1.377 . S
C393 C394 1.379 . S
C394 H378 0.931 . S
C394 C388 1.383 . S
C394 C393 1.379 . S
H395 C389 0.959 . S
H396 C389 0.961 . S
H397 C389 0.960 . S
H398 C390 0.930 . S
H399 C391 0.929 . S
H400 C408 0.929 . S
H401 C410 0.930 1_545 S
H402 C412 0.930 . S
H403 C415 0.929 . S
H404 C418 0.930 . S
H405 C420 0.960 . S
H406 C420 0.960 . S
H407 C420 0.960 . S
C408 H400 0.929 . S
C408 C409 1.377 . S
C408 C410 1.384 . S
C409 C408 1.377 . S
C409 C415 1.390 . S
C410 H401 0.930 1_565 S
C410 C408 1.384 . S
C410 C411 1.372 . S
C411 C410 1.372 . S
C411 C412 1.400 . S
C411 C416 1.490 . S
C412 H402 0.930 . S
C412 C411 1.400 . S
C412 C415 1.386 . S
H413 C429 0.930 . S
H414 C430 0.931 1_565 S
C415 H403 0.929 . S
C415 C409 1.390 . S
C415 C412 1.386 . S
C416 C411 1.490 . S
C416 C418 1.395 1_565 S
C416 C419 1.403 . S
H417 C423 0.930 . S
C418 H404 0.930 . S
C418 C416 1.395 1_545 S
C418 C421 1.403 . S
C419 C416 1.403 . S
C419 C420 1.524 . S
C419 C423 1.400 1_565 S
C420 H405 0.960 . S
C420 H406 0.960 . S
C420 H407 0.960 . S
C420 C419 1.524 . S
C421 C418 1.403 . S
C421 C422 1.392 . S
C421 C425 1.495 . S
C422 C421 1.392 . S
C422 C423 1.385 . S
C422 C424 1.478 . S
C423 H417 0.930 . S
C423 C419 1.400 1_545 S
C423 C422 1.385 . S
C424 C422 1.478 . S
C424 C426 1.381 . S
C424 C430 1.383 . S
C425 C421 1.495 . S
C425 H431 0.959 . S
C425 H432 0.961 . S
C425 H433 0.960 . S
C426 C424 1.381 . S
C426 C427 1.394 . S
C426 H434 0.930 . S
C427 C426 1.394 . S
C427 C428 1.383 . S
C427 H435 0.929 . S
C428 C427 1.383 . S
C428 C429 1.377 . S
C429 H413 0.930 . S
C429 C428 1.377 . S
C429 C430 1.379 . S
C430 H414 0.931 1_545 S
C430 C424 1.383 . S
C430 C429 1.379 . S
H431 C425 0.959 . S
H432 C425 0.961 . S
H433 C425 0.960 . S
H434 C426 0.930 . S
H435 C427 0.929 . S
H436 C444 0.929 . S
H437 C446 0.930 . S
H438 C448 0.930 . S
H439 C451 0.929 . S
H440 C454 0.930 . S
H441 C456 0.960 . S
H442 C456 0.960 . S
H443 C456 0.960 . S
C444 H436 0.929 . S
C444 C445 1.377 . S
C444 C446 1.384 . S
C445 C444 1.377 . S
C445 C451 1.390 . S
C446 H437 0.930 . S
C446 C444 1.384 . S
C446 C447 1.372 . S
C447 C446 1.372 . S
C447 C448 1.400 . S
C447 C452 1.490 . S
C448 H438 0.930 . S
C448 C447 1.400 . S
C448 C451 1.386 . S
H449 C465 0.930 . S
H450 C466 0.931 . S
C451 H439 0.929 . S
C451 C445 1.390 . S
C451 C448 1.386 . S
C452 C447 1.490 . S
C452 C454 1.395 . S
C452 C455 1.403 1_565 S
H453 C459 0.930 . S
C454 H440 0.930 . S
C454 C452 1.395 . S
C454 C457 1.403 . S
C455 C452 1.403 1_545 S
C455 C456 1.524 . S
C455 C459 1.400 . S
C456 H441 0.960 . S
C456 H442 0.960 . S
C456 H443 0.960 . S
C456 C455 1.524 . S
C457 C454 1.403 . S
C457 C458 1.392 1_565 S
C457 C461 1.495 . S
C458 C457 1.392 1_545 S
C458 C459 1.385 . S
C458 C460 1.478 . S
C459 H453 0.930 . S
C459 C455 1.400 . S
C459 C458 1.385 . S
C460 C458 1.478 . S
C460 C462 1.381 . S
C460 C466 1.383 . S
C461 C457 1.495 . S
C461 H467 0.959 . S
C461 H468 0.961 . S
C461 H469 0.960 . S
C462 C460 1.381 . S
C462 C463 1.394 . S
C462 H470 0.930 . S
C463 C462 1.394 . S
C463 C464 1.383 . S
C463 H471 0.929 . S
C464 C463 1.383 . S
C464 C465 1.377 . S
C465 H449 0.930 . S
C465 C464 1.377 . S
C465 C466 1.379 . S
C466 H450 0.931 . S
C466 C460 1.383 . S
C466 C465 1.379 . S
H467 C461 0.959 . S
H468 C461 0.961 . S
H469 C461 0.960 . S
H470 C462 0.930 . S
H471 C463 0.929 . S
H472 C480 0.929 . S
H473 C482 0.930 . S
H474 C484 0.930 . S
H475 C487 0.929 . S
H476 C490 0.930 . S
H477 C492 0.960 . S
H478 C492 0.960 . S
H479 C492 0.960 . S
C480 H472 0.929 . S
C480 C481 1.377 . S
C480 C482 1.384 . S
C481 C480 1.377 . S
C481 C487 1.390 . S
C482 H473 0.930 . S
C482 C480 1.384 . S
C482 C483 1.372 . S
C483 C482 1.372 . S
C483 C484 1.400 . S
C483 C488 1.490 . S
C484 H474 0.930 . S
C484 C483 1.400 . S
C484 C487 1.386 . S
H485 C501 0.930 . S
H486 C502 0.931 . S
C487 H475 0.929 . S
C487 C481 1.390 . S
C487 C484 1.386 . S
C488 C483 1.490 . S
C488 C490 1.395 1_565 S
C488 C491 1.403 . S
H489 C495 0.930 . S
C490 H476 0.930 . S
C490 C488 1.395 1_545 S
C490 C493 1.403 . S
C491 C488 1.403 . S
C491 C492 1.524 . S
C491 C495 1.400 . S
C492 H477 0.960 . S
C492 H478 0.960 . S
C492 H479 0.960 . S
C492 C491 1.524 . S
C493 C490 1.403 . S
C493 C494 1.392 . S
C493 C497 1.495 . S
C494 C493 1.392 . S
C494 C495 1.385 1_545 S
C494 C496 1.478 . S
C495 H489 0.930 . S
C495 C491 1.400 . S
C495 C494 1.385 1_565 S
C496 C494 1.478 . S
C496 C498 1.381 . S
C496 C502 1.383 . S
C497 C493 1.495 . S
C497 H503 0.959 . S
C497 H504 0.961 . S
C497 H505 0.960 . S
C498 C496 1.381 . S
C498 C499 1.394 . S
C498 H506 0.930 . S
C499 C498 1.394 . S
C499 C500 1.383 . S
C499 H507 0.929 . S
C500 C499 1.383 . S
C500 C501 1.377 . S
C501 H485 0.930 . S
C501 C500 1.377 . S
C501 C502 1.379 . S
C502 H486 0.931 . S
C502 C496 1.383 . S
C502 C501 1.379 . S
H503 C497 0.959 . S
H504 C497 0.961 . S
H505 C497 0.960 . S
H506 C498 0.930 . S
H507 C499 0.929 . S
H508 C516 0.929 . S
H509 C518 0.930 . S
H510 C520 0.930 . S
H511 C523 0.929 . S
H512 C526 0.930 . S
H513 C528 0.960 . S
H514 C528 0.960 . S
H515 C528 0.960 . S
C516 H508 0.929 . S
C516 C517 1.377 . S
C516 C518 1.384 . S
C517 C516 1.377 . S
C517 C523 1.390 . S
C518 H509 0.930 . S
C518 C516 1.384 . S
C518 C519 1.372 . S
C519 C518 1.372 . S
C519 C520 1.400 . S
C519 C524 1.490 . S
C520 H510 0.930 . S
C520 C519 1.400 . S
C520 C523 1.386 . S
H521 C537 0.930 . S
H522 C538 0.931 . S
C523 H511 0.929 . S
C523 C517 1.390 . S
C523 C520 1.386 . S
C524 C519 1.490 . S
C524 C526 1.395 1_565 S
C524 C527 1.403 . S
H525 C531 0.930 . S
C526 H512 0.930 . S
C526 C524 1.395 1_545 S
C526 C529 1.403 . S
C527 C524 1.403 . S
C527 C528 1.524 . S
C527 C531 1.400 . S
C528 H513 0.960 . S
C528 H514 0.960 . S
C528 H515 0.960 . S
C528 C527 1.524 . S
C529 C526 1.403 . S
C529 C530 1.392 . S
C529 C533 1.495 . S
C530 C529 1.392 . S
C530 C531 1.385 1_545 S
C530 C532 1.478 . S
C531 H525 0.930 . S
C531 C527 1.400 . S
C531 C530 1.385 1_565 S
C532 C530 1.478 . S
C532 C534 1.381 . S
C532 C538 1.383 . S
C533 C529 1.495 . S
C533 H539 0.959 . S
C533 H540 0.961 . S
C533 H541 0.960 . S
C534 C532 1.381 . S
C534 C535 1.394 . S
C534 H542 0.930 . S
C535 C534 1.394 . S
C535 C536 1.383 . S
C535 H543 0.929 . S
C536 C535 1.383 . S
C536 C537 1.377 . S
C537 H521 0.930 . S
C537 C536 1.377 . S
C537 C538 1.379 . S
C538 H522 0.931 . S
C538 C532 1.383 . S
C538 C537 1.379 . S
H539 C533 0.959 . S
H540 C533 0.961 . S
H541 C533 0.960 . S
H542 C534 0.930 . S
H543 C535 0.929 . S
H544 C552 0.929 . S
H545 C554 0.930 . S
H546 C556 0.930 . S
H547 C559 0.929 . S
H548 C562 0.930 . S
H549 C564 0.960 1_545 S
H550 C564 0.960 . S
H551 C564 0.960 . S
C552 H544 0.929 . S
C552 C553 1.377 . S
C552 C554 1.384 . S
C553 C552 1.377 . S
C553 C559 1.390 1_554 S
C554 H545 0.930 . S
C554 C552 1.384 . S
C554 C555 1.372 . S
C555 C554 1.372 . S
C555 C556 1.400 1_554 S
C555 C560 1.490 . S
C556 H546 0.930 . S
C556 C555 1.400 1_556 S
C556 C559 1.386 . S
H557 C573 0.930 . S
H558 C574 0.931 . S
C559 H547 0.929 . S
C559 C553 1.390 1_556 S
C559 C556 1.386 . S
C560 C555 1.490 . S
C560 C562 1.395 . S
C560 C563 1.403 1_554 S
H561 C567 0.930 . S
C562 H548 0.930 . S
C562 C560 1.395 . S
C562 C565 1.403 1_565 S
C563 C560 1.403 1_556 S
C563 C564 1.524 . S
C563 C567 1.400 1_565 S
C564 H549 0.960 1_565 S
C564 H550 0.960 . S
C564 H551 0.960 . S
C564 C563 1.524 . S
C565 C562 1.403 1_545 S
C565 C566 1.392 . S
C565 C569 1.495 . S
C566 C565 1.392 . S
C566 C567 1.385 1_554 S
C566 C568 1.478 . S
C567 H561 0.930 . S
C567 C563 1.400 1_545 S
C567 C566 1.385 1_556 S
C568 C566 1.478 . S
C568 C570 1.381 . S
C568 C574 1.383 1_554 S
C569 C565 1.495 . S
C569 H575 0.959 1_545 S
C569 H576 0.961 . S
C569 H577 0.960 . S
C570 C568 1.381 . S
C570 C571 1.394 . S
C570 H578 0.930 . S
C571 C570 1.394 . S
C571 C572 1.383 . S
C571 H579 0.929 . S
C572 C571 1.383 . S
C572 C573 1.377 1_554 S
C573 H557 0.930 . S
C573 C572 1.377 1_556 S
C573 C574 1.379 . S
C574 H558 0.931 . S
C574 C568 1.383 1_556 S
C574 C573 1.379 . S
H575 C569 0.959 1_565 S
H576 C569 0.961 . S
H577 C569 0.960 . S
H578 C570 0.930 . S
H579 C571 0.929 . S
H580 C588 0.929 . S
H581 C590 0.930 . S
H582 C592 0.930 . S
H583 C595 0.929 . S
H584 C598 0.930 . S
H585 C600 0.960 . S
H586 C600 0.960 . S
H587 C600 0.960 1_565 S
C588 H580 0.929 . S
C588 C589 1.377 . S
C588 C590 1.384 . S
C589 C588 1.377 . S
C589 C595 1.390 . S
C590 H581 0.930 . S
C590 C588 1.384 . S
C590 C591 1.372 . S
C591 C590 1.372 . S
C591 C592 1.400 . S
C591 C596 1.490 . S
C592 H582 0.930 . S
C592 C591 1.400 . S
C592 C595 1.386 . S
H593 C609 0.930 . S
H594 C610 0.931 . S
C595 H583 0.929 . S
C595 C589 1.390 . S
C595 C592 1.386 . S
C596 C591 1.490 . S
C596 C598 1.395 . S
C596 C599 1.403 1_565 S
H597 C603 0.930 . S
C598 H584 0.930 . S
C598 C596 1.395 . S
C598 C601 1.403 . S
C599 C596 1.403 1_545 S
C599 C600 1.524 . S
C599 C603 1.400 . S
C600 H585 0.960 . S
C600 H586 0.960 . S
C600 H587 0.960 1_545 S
C600 C599 1.524 . S
C601 C598 1.403 . S
C601 C602 1.392 1_565 S
C601 C605 1.495 . S
C602 C601 1.392 1_545 S
C602 C603 1.385 . S
C602 C604 1.478 . S
C603 H597 0.930 . S
C603 C599 1.400 . S
C603 C602 1.385 . S
C604 C602 1.478 . S
C604 C606 1.381 . S
C604 C610 1.383 . S
C605 C601 1.495 . S
C605 H611 0.959 . S
C605 H612 0.961 . S
C605 H613 0.960 . S
C606 C604 1.381 . S
C606 C607 1.394 . S
C606 H614 0.930 . S
C607 C606 1.394 . S
C607 C608 1.383 . S
C607 H615 0.929 . S
C608 C607 1.383 . S
C608 C609 1.377 . S
C609 H593 0.930 . S
C609 C608 1.377 . S
C609 C610 1.379 . S
C610 H594 0.931 . S
C610 C604 1.383 . S
C610 C609 1.379 . S
H611 C605 0.959 . S
H612 C605 0.961 . S
H613 C605 0.960 . S
H614 C606 0.930 . S
H615 C607 0.929 . S
H616 C624 0.929 . S
H617 C626 0.930 . S
H618 C628 0.930 . S
H619 C631 0.929 . S
H620 C634 0.925 1_556 S
H621 C636 0.960 . S
H622 C636 0.960 . S
H623 C636 0.960 . S
C624 H616 0.929 . S
C624 C625 1.377 . S
C624 C626 1.384 . S
C625 C624 1.377 . S
C625 C631 1.390 1_554 S
C626 H617 0.930 . S
C626 C624 1.384 . S
C626 C627 1.372 . S
C627 C626 1.372 . S
C627 C628 1.400 1_554 S
C627 C632 1.490 . S
C628 H618 0.930 . S
C628 C627 1.400 1_556 S
C628 C631 1.386 . S
H629 C645 0.930 . S
H630 C646 0.931 . S
C631 H619 0.929 . S
C631 C625 1.390 1_556 S
C631 C628 1.386 . S
C632 C627 1.490 . S
C632 C634 1.400 1_455 S
C632 C635 1.403 . S
H633 C639 0.930 . S
C634 H620 0.925 1_554 S
C634 C632 1.400 1_655 S
C634 C637 1.402 1_554 S
C635 C632 1.403 . S
C635 C636 1.524 . S
C635 C639 1.400 . S
C636 H621 0.960 . S
C636 H622 0.960 . S
C636 H623 0.960 . S
C636 C635 1.524 . S
C637 C634 1.402 1_556 S
C637 C638 1.385 1_556 S
C637 C641 1.504 . S
C638 C637 1.385 1_554 S
C638 C639 1.385 1_655 S
C638 C640 1.478 . S
C639 H633 0.930 . S
C639 C635 1.400 . S
C639 C638 1.385 1_455 S
C640 C638 1.478 . S
C640 C642 1.381 . S
C640 C646 1.383 1_554 S
C641 C637 1.504 . S
C641 H647 0.959 . S
C641 H648 0.961 . S
C641 H649 0.960 1_556 S
C642 C640 1.381 . S
C642 C643 1.394 . S
C642 H650 0.930 . S
C643 C642 1.394 . S
C643 C644 1.383 . S
C643 H651 0.929 . S
C644 C643 1.383 . S
C644 C645 1.377 1_554 S
C645 H629 0.930 . S
C645 C644 1.377 1_556 S
C645 C646 1.379 . S
C646 H630 0.931 . S
C646 C640 1.383 1_556 S
C646 C645 1.379 . S
H647 C641 0.959 . S
H648 C641 0.961 . S
H649 C641 0.960 1_554 S
H650 C642 0.930 . S
H651 C643 0.929 . S
H652 C660 0.929 . S
H653 C662 0.930 . S
H654 C664 0.930 . S
H655 C667 0.929 . S
H656 C670 0.930 . S
H657 C672 0.960 . S
H658 C672 0.960 . S
H659 C672 0.960 . S
C660 H652 0.929 . S
C660 C661 1.377 . S
C660 C662 1.384 . S
C661 C660 1.377 . S
C661 C667 1.390 . S
C662 H653 0.930 . S
C662 C660 1.384 . S
C662 C663 1.372 . S
C663 C662 1.372 . S
C663 C664 1.400 . S
C663 C668 1.490 . S
C664 H654 0.930 . S
C664 C663 1.400 . S
C664 C667 1.386 . S
H665 C681 0.930 . S
H666 C682 0.931 . S
C667 H655 0.929 . S
C667 C661 1.390 . S
C667 C664 1.386 . S
C668 C663 1.490 . S
C668 C670 1.395 1_455 S
C668 C671 1.403 . S
H669 C675 0.930 . S
C670 H656 0.930 . S
C670 C668 1.395 1_655 S
C670 C673 1.403 . S
C671 C668 1.403 . S
C671 C672 1.524 . S
C671 C675 1.405 . S
C672 H657 0.960 . S
C672 H658 0.960 . S
C672 H659 0.960 . S
C672 C671 1.524 . S
C673 C670 1.403 . S
C673 C674 1.392 . S
C673 C677 1.495 . S
C674 C673 1.392 . S
C674 C675 1.380 1_655 S
C674 C676 1.478 . S
C675 H669 0.930 . S
C675 C671 1.405 . S
C675 C674 1.380 1_455 S
C676 C674 1.478 . S
C676 C678 1.381 . S
C676 C682 1.383 . S
C677 C673 1.495 . S
C677 H683 0.959 . S
C677 H684 0.961 . S
C677 H685 0.960 . S
C678 C676 1.381 . S
C678 C679 1.394 . S
C678 H686 0.930 . S
C679 C678 1.394 . S
C679 C680 1.383 . S
C679 H687 0.929 . S
C680 C679 1.383 . S
C680 C681 1.377 . S
C681 H665 0.930 . S
C681 C680 1.377 . S
C681 C682 1.379 . S
C682 H666 0.931 . S
C682 C676 1.383 . S
C682 C681 1.379 . S
H683 C677 0.959 . S
H684 C677 0.961 . S
H685 C677 0.960 . S
H686 C678 0.930 . S
H687 C679 0.929 . S
C121 C78 1.462 . S
C140 C8 1.441 . S
C157 C64 1.464 . S
C176 C22 1.436 . S
C193 C106 1.465 . S
C212 C36 1.434 . S
C229 C92 1.463 . S
C248 C50 1.439 . S
C265 C7 1.370 . S
C284 C35 1.361 . S
C301 C21 1.370 . S
C320 C49 1.361 . S
C337 C27 1.293 . S
C356 C55 1.261 . S
C373 C13 1.293 . S
C392 C41 1.258 . S
C409 C63 1.365 . S
C428 C91 1.375 . S
C445 C105 1.367 . S
C464 C77 1.363 . S
C481 C111 1.309 . S
C500 C83 1.327 . S
C517 C69 1.309 . S
C536 C97 1.339 . S
C553 C25 1.511 . S
C572 C11 1.501 . S
C589 C39 1.509 . S
C608 C53 1.507 . S
C625 C67 1.509 . S
C644 C81 1.511 . S
C661 C95 1.511 . S
C680 C109 1.500 . S
