# Generated by pormake.
# Topology sop, (7)-cn, num edge types: 1
# Building blocks:
#     Node 0, Type 0, BuildingBlock: NUHQUE_clean_sbu_2, # of connection points: 7
#     Node 1, Type 0, BuildingBlock: NUHQUE_clean_sbu_2, # of connection points: 7
#     Node 2, Type 0, BuildingBlock: NUHQUE_clean_sbu_2, # of connection points: 7
#     Node 3, Type 0, BuildingBlock: NUHQUE_clean_sbu_2, # of connection points: 7
#     Node 4, Type 0, BuildingBlock: NUHQUE_clean_sbu_2, # of connection points: 7
#     Node 5, Type 0, BuildingBlock: NUHQUE_clean_sbu_2, # of connection points: 7
#     Node 6, Type 0, BuildingBlock: NUHQUE_clean_sbu_2, # of connection points: 7
#     Node 7, Type 0, BuildingBlock: NUHQUE_clean_sbu_2, # of connection points: 7
#     Node 8, Type 0, BuildingBlock: NUHQUE_clean_sbu_2, # of connection points: 7
#     Node 9, Type 0, BuildingBlock: NUHQUE_clean_sbu_2, # of connection points: 7
#     Node 10, Type 0, BuildingBlock: NUHQUE_clean_sbu_2, # of connection points: 7
#     Node 11, Type 0, BuildingBlock: NUHQUE_clean_sbu_2, # of connection points: 7
#     Node 12, Type 0, BuildingBlock: NUHQUE_clean_sbu_2, # of connection points: 7
#     Node 13, Type 0, BuildingBlock: NUHQUE_clean_sbu_2, # of connection points: 7
#     Node 14, Type 0, BuildingBlock: NUHQUE_clean_sbu_2, # of connection points: 7
#     Node 15, Type 0, BuildingBlock: NUHQUE_clean_sbu_2, # of connection points: 7
#     Node 16, Type 0, BuildingBlock: NUHQUE_clean_sbu_2, # of connection points: 7
#     Node 17, Type 0, BuildingBlock: NUHQUE_clean_sbu_2, # of connection points: 7
#     Node 18, Type 0, BuildingBlock: NUHQUE_clean_sbu_2, # of connection points: 7
#     Node 19, Type 0, BuildingBlock: NUHQUE_clean_sbu_2, # of connection points: 7
#     Node 20, Type 0, BuildingBlock: NUHQUE_clean_sbu_2, # of connection points: 7
#     Node 21, Type 0, BuildingBlock: NUHQUE_clean_sbu_2, # of connection points: 7
#     Node 22, Type 0, BuildingBlock: NUHQUE_clean_sbu_2, # of connection points: 7
#     Node 23, Type 0, BuildingBlock: NUHQUE_clean_sbu_2, # of connection points: 7
#     Node 24, Type 0, BuildingBlock: NUHQUE_clean_sbu_2, # of connection points: 7
#     Node 25, Type 0, BuildingBlock: NUHQUE_clean_sbu_2, # of connection points: 7
#     Node 26, Type 0, BuildingBlock: NUHQUE_clean_sbu_2, # of connection points: 7
#     Node 27, Type 0, BuildingBlock: NUHQUE_clean_sbu_2, # of connection points: 7
#     Node 28, Type 0, BuildingBlock: NUHQUE_clean_sbu_2, # of connection points: 7
#     Node 29, Type 0, BuildingBlock: NUHQUE_clean_sbu_2, # of connection points: 7
#     Node 30, Type 0, BuildingBlock: NUHQUE_clean_sbu_2, # of connection points: 7
#     Node 31, Type 0, BuildingBlock: NUHQUE_clean_sbu_2, # of connection points: 7
#     Edge 32, Type (0, 0), BuildingBlock: ZUJKAS_clean_linker_0, # of connection points: 2
#     Edge 33, Type (0, 0), BuildingBlock: ZUJKAS_clean_linker_0, # of connection points: 2
#     Edge 34, Type (0, 0), BuildingBlock: ZUJKAS_clean_linker_0, # of connection points: 2
#     Edge 35, Type (0, 0), BuildingBlock: ZUJKAS_clean_linker_0, # of connection points: 2
#     Edge 36, Type (0, 0), BuildingBlock: ZUJKAS_clean_linker_0, # of connection points: 2
#     Edge 37, Type (0, 0), BuildingBlock: ZUJKAS_clean_linker_0, # of connection points: 2
#     Edge 38, Type (0, 0), BuildingBlock: ZUJKAS_clean_linker_0, # of connection points: 2
#     Edge 39, Type (0, 0), BuildingBlock: ZUJKAS_clean_linker_0, # of connection points: 2
#     Edge 40, Type (0, 0), BuildingBlock: ZUJKAS_clean_linker_0, # of connection points: 2
#     Edge 41, Type (0, 0), BuildingBlock: ZUJKAS_clean_linker_0, # of connection points: 2
#     Edge 42, Type (0, 0), BuildingBlock: ZUJKAS_clean_linker_0, # of connection points: 2
#     Edge 43, Type (0, 0), BuildingBlock: ZUJKAS_clean_linker_0, # of connection points: 2
#     Edge 44, Type (0, 0), BuildingBlock: ZUJKAS_clean_linker_0, # of connection points: 2
#     Edge 45, Type (0, 0), BuildingBlock: ZUJKAS_clean_linker_0, # of connection points: 2
#     Edge 46, Type (0, 0), BuildingBlock: ZUJKAS_clean_linker_0, # of connection points: 2
#     Edge 47, Type (0, 0), BuildingBlock: ZUJKAS_clean_linker_0, # of connection points: 2
#     Edge 48, Type (0, 0), BuildingBlock: ZUJKAS_clean_linker_0, # of connection points: 2
#     Edge 49, Type (0, 0), BuildingBlock: ZUJKAS_clean_linker_0, # of connection points: 2
#     Edge 50, Type (0, 0), BuildingBlock: ZUJKAS_clean_linker_0, # of connection points: 2
#     Edge 51, Type (0, 0), BuildingBlock: ZUJKAS_clean_linker_0, # of connection points: 2
#     Edge 52, Type (0, 0), BuildingBlock: ZUJKAS_clean_linker_0, # of connection points: 2
#     Edge 53, Type (0, 0), BuildingBlock: ZUJKAS_clean_linker_0, # of connection points: 2
#     Edge 54, Type (0, 0), BuildingBlock: ZUJKAS_clean_linker_0, # of connection points: 2
#     Edge 55, Type (0, 0), BuildingBlock: ZUJKAS_clean_linker_0, # of connection points: 2
#     Edge 56, Type (0, 0), BuildingBlock: ZUJKAS_clean_linker_0, # of connection points: 2
#     Edge 57, Type (0, 0), BuildingBlock: ZUJKAS_clean_linker_0, # of connection points: 2
#     Edge 58, Type (0, 0), BuildingBlock: ZUJKAS_clean_linker_0, # of connection points: 2
#     Edge 59, Type (0, 0), BuildingBlock: ZUJKAS_clean_linker_0, # of connection points: 2
#     Edge 60, Type (0, 0), BuildingBlock: ZUJKAS_clean_linker_0, # of connection points: 2
#     Edge 61, Type (0, 0), BuildingBlock: ZUJKAS_clean_linker_0, # of connection points: 2
#     Edge 62, Type (0, 0), BuildingBlock: ZUJKAS_clean_linker_0, # of connection points: 2
#     Edge 63, Type (0, 0), BuildingBlock: ZUJKAS_clean_linker_0, # of connection points: 2
#     Edge 64, Type (0, 0), BuildingBlock: ZUJKAS_clean_linker_0, # of connection points: 2
#     Edge 65, Type (0, 0), BuildingBlock: ZUJKAS_clean_linker_0, # of connection points: 2
#     Edge 66, Type (0, 0), BuildingBlock: ZUJKAS_clean_linker_0, # of connection points: 2
#     Edge 67, Type (0, 0), BuildingBlock: ZUJKAS_clean_linker_0, # of connection points: 2
#     Edge 68, Type (0, 0), BuildingBlock: ZUJKAS_clean_linker_0, # of connection points: 2
#     Edge 69, Type (0, 0), BuildingBlock: ZUJKAS_clean_linker_0, # of connection points: 2
#     Edge 70, Type (0, 0), BuildingBlock: ZUJKAS_clean_linker_0, # of connection points: 2
#     Edge 71, Type (0, 0), BuildingBlock: ZUJKAS_clean_linker_0, # of connection points: 2
#     Edge 72, Type (0, 0), BuildingBlock: ZUJKAS_clean_linker_0, # of connection points: 2
#     Edge 73, Type (0, 0), BuildingBlock: ZUJKAS_clean_linker_0, # of connection points: 2
#     Edge 74, Type (0, 0), BuildingBlock: ZUJKAS_clean_linker_0, # of connection points: 2
#     Edge 75, Type (0, 0), BuildingBlock: ZUJKAS_clean_linker_0, # of connection points: 2
#     Edge 76, Type (0, 0), BuildingBlock: ZUJKAS_clean_linker_0, # of connection points: 2
#     Edge 77, Type (0, 0), BuildingBlock: ZUJKAS_clean_linker_0, # of connection points: 2
#     Edge 78, Type (0, 0), BuildingBlock: ZUJKAS_clean_linker_0, # of connection points: 2
#     Edge 79, Type (0, 0), BuildingBlock: ZUJKAS_clean_linker_0, # of connection points: 2
#     Edge 80, Type (0, 0), BuildingBlock: ZUJKAS_clean_linker_0, # of connection points: 2
#     Edge 81, Type (0, 0), BuildingBlock: ZUJKAS_clean_linker_0, # of connection points: 2
#     Edge 82, Type (0, 0), BuildingBlock: ZUJKAS_clean_linker_0, # of connection points: 2
#     Edge 83, Type (0, 0), BuildingBlock: ZUJKAS_clean_linker_0, # of connection points: 2
#     Edge 84, Type (0, 0), BuildingBlock: ZUJKAS_clean_linker_0, # of connection points: 2
#     Edge 85, Type (0, 0), BuildingBlock: ZUJKAS_clean_linker_0, # of connection points: 2
#     Edge 86, Type (0, 0), BuildingBlock: ZUJKAS_clean_linker_0, # of connection points: 2
#     Edge 87, Type (0, 0), BuildingBlock: ZUJKAS_clean_linker_0, # of connection points: 2
#     Edge 88, Type (0, 0), BuildingBlock: ZUJKAS_clean_linker_0, # of connection points: 2
#     Edge 89, Type (0, 0), BuildingBlock: ZUJKAS_clean_linker_0, # of connection points: 2
#     Edge 90, Type (0, 0), BuildingBlock: ZUJKAS_clean_linker_0, # of connection points: 2
#     Edge 91, Type (0, 0), BuildingBlock: ZUJKAS_clean_linker_0, # of connection points: 2
#     Edge 92, Type (0, 0), BuildingBlock: ZUJKAS_clean_linker_0, # of connection points: 2
#     Edge 93, Type (0, 0), BuildingBlock: ZUJKAS_clean_linker_0, # of connection points: 2
#     Edge 94, Type (0, 0), BuildingBlock: ZUJKAS_clean_linker_0, # of connection points: 2
#     Edge 95, Type (0, 0), BuildingBlock: ZUJKAS_clean_linker_0, # of connection points: 2
#     Edge 96, Type (0, 0), BuildingBlock: ZUJKAS_clean_linker_0, # of connection points: 2
#     Edge 97, Type (0, 0), BuildingBlock: ZUJKAS_clean_linker_0, # of connection points: 2
#     Edge 98, Type (0, 0), BuildingBlock: ZUJKAS_clean_linker_0, # of connection points: 2
#     Edge 99, Type (0, 0), BuildingBlock: ZUJKAS_clean_linker_0, # of connection points: 2
#     Edge 100, Type (0, 0), BuildingBlock: ZUJKAS_clean_linker_0, # of connection points: 2
#     Edge 101, Type (0, 0), BuildingBlock: ZUJKAS_clean_linker_0, # of connection points: 2
#     Edge 102, Type (0, 0), BuildingBlock: ZUJKAS_clean_linker_0, # of connection points: 2
#     Edge 103, Type (0, 0), BuildingBlock: ZUJKAS_clean_linker_0, # of connection points: 2
#     Edge 104, Type (0, 0), BuildingBlock: ZUJKAS_clean_linker_0, # of connection points: 2
#     Edge 105, Type (0, 0), BuildingBlock: ZUJKAS_clean_linker_0, # of connection points: 2
#     Edge 106, Type (0, 0), BuildingBlock: ZUJKAS_clean_linker_0, # of connection points: 2
#     Edge 107, Type (0, 0), BuildingBlock: ZUJKAS_clean_linker_0, # of connection points: 2
#     Edge 108, Type (0, 0), BuildingBlock: ZUJKAS_clean_linker_0, # of connection points: 2
#     Edge 109, Type (0, 0), BuildingBlock: ZUJKAS_clean_linker_0, # of connection points: 2
#     Edge 110, Type (0, 0), BuildingBlock: ZUJKAS_clean_linker_0, # of connection points: 2
#     Edge 111, Type (0, 0), BuildingBlock: ZUJKAS_clean_linker_0, # of connection points: 2
#     Edge 112, Type (0, 0), BuildingBlock: ZUJKAS_clean_linker_0, # of connection points: 2
#     Edge 113, Type (0, 0), BuildingBlock: ZUJKAS_clean_linker_0, # of connection points: 2
#     Edge 114, Type (0, 0), BuildingBlock: ZUJKAS_clean_linker_0, # of connection points: 2
#     Edge 115, Type (0, 0), BuildingBlock: ZUJKAS_clean_linker_0, # of connection points: 2
#     Edge 116, Type (0, 0), BuildingBlock: ZUJKAS_clean_linker_0, # of connection points: 2
#     Edge 117, Type (0, 0), BuildingBlock: ZUJKAS_clean_linker_0, # of connection points: 2
#     Edge 118, Type (0, 0), BuildingBlock: ZUJKAS_clean_linker_0, # of connection points: 2
#     Edge 119, Type (0, 0), BuildingBlock: ZUJKAS_clean_linker_0, # of connection points: 2
#     Edge 120, Type (0, 0), BuildingBlock: ZUJKAS_clean_linker_0, # of connection points: 2
#     Edge 121, Type (0, 0), BuildingBlock: ZUJKAS_clean_linker_0, # of connection points: 2
#     Edge 122, Type (0, 0), BuildingBlock: ZUJKAS_clean_linker_0, # of connection points: 2
#     Edge 123, Type (0, 0), BuildingBlock: ZUJKAS_clean_linker_0, # of connection points: 2
#     Edge 124, Type (0, 0), BuildingBlock: ZUJKAS_clean_linker_0, # of connection points: 2
#     Edge 125, Type (0, 0), BuildingBlock: ZUJKAS_clean_linker_0, # of connection points: 2
#     Edge 126, Type (0, 0), BuildingBlock: ZUJKAS_clean_linker_0, # of connection points: 2
#     Edge 127, Type (0, 0), BuildingBlock: ZUJKAS_clean_linker_0, # of connection points: 2
#     Edge 128, Type (0, 0), BuildingBlock: ZUJKAS_clean_linker_0, # of connection points: 2
#     Edge 129, Type (0, 0), BuildingBlock: ZUJKAS_clean_linker_0, # of connection points: 2
#     Edge 130, Type (0, 0), BuildingBlock: ZUJKAS_clean_linker_0, # of connection points: 2
#     Edge 131, Type (0, 0), BuildingBlock: ZUJKAS_clean_linker_0, # of connection points: 2
#     Edge 132, Type (0, 0), BuildingBlock: ZUJKAS_clean_linker_0, # of connection points: 2
#     Edge 133, Type (0, 0), BuildingBlock: ZUJKAS_clean_linker_0, # of connection points: 2
#     Edge 134, Type (0, 0), BuildingBlock: ZUJKAS_clean_linker_0, # of connection points: 2
#     Edge 135, Type (0, 0), BuildingBlock: ZUJKAS_clean_linker_0, # of connection points: 2
#     Edge 136, Type (0, 0), BuildingBlock: ZUJKAS_clean_linker_0, # of connection points: 2
#     Edge 137, Type (0, 0), BuildingBlock: ZUJKAS_clean_linker_0, # of connection points: 2
#     Edge 138, Type (0, 0), BuildingBlock: ZUJKAS_clean_linker_0, # of connection points: 2
#     Edge 139, Type (0, 0), BuildingBlock: ZUJKAS_clean_linker_0, # of connection points: 2
#     Edge 140, Type (0, 0), BuildingBlock: ZUJKAS_clean_linker_0, # of connection points: 2
#     Edge 141, Type (0, 0), BuildingBlock: ZUJKAS_clean_linker_0, # of connection points: 2
#     Edge 142, Type (0, 0), BuildingBlock: ZUJKAS_clean_linker_0, # of connection points: 2
#     Edge 143, Type (0, 0), BuildingBlock: ZUJKAS_clean_linker_0, # of connection points: 2
# Relax obj value: 0.227
# Max RMSD: 0.258
# Mean RMSD: 0.258
data_MOF--net-sop--node1-NUHQUE_clean_sbu_2--edge1-ZUJKAS_clean_linker_0
_symmetry_space_group_name_H-M    P1
_symmetry_Int_Tables_number       1
_symmetry_cell_setting            triclinic
loop_
_symmetry_equiv_pos_as_xyz
'x, y, z'
_cell_length_a     142.99568
_cell_length_b     33.999745
_cell_length_c     75.870748
_cell_angle_alpha  89.968968
_cell_angle_beta   90.015722
_cell_angle_gamma 89.999604
loop_
_atom_site_label
_atom_site_type_symbol
_atom_site_fract_x
_atom_site_fract_y
_atom_site_fract_z
_atom_type_partial_charge
O0 O 0.11727 0.35417 0.10755 0.0
Tb1 Tb 0.10465 0.38931 0.10899 0.0
Eu2 Eu 0.08382 0.41894 0.08388 0.0
C3 C 0.12068 0.34431 0.0921 0.0
O4 O 0.1168 0.35901 0.07784 0.0
C5 C 0.08913 0.33279 0.10213 0.0
O6 O 0.07766 0.4679 0.10068 0.0
C7 C 0.07368 0.41193 0.05489 0.0
C8 C 0.08261 0.48303 0.11368 0.0
O9 O 0.09072 0.46709 0.11746 0.0
C10 C 0.10416 0.47177 0.08716 0.0
C11 C 0.06846 0.42906 0.03915 0.0
C12 C 0.0714 0.4224 1.02138 0.0
C13 C 0.06587 0.43535 1.00682 0.0
C14 C 0.05728 0.45399 1.01033 0.0
C15 C 0.054 0.45996 1.02761 0.0
C16 C 0.0597 0.44777 0.04185 0.0
O17 O 0.09748 0.3411 0.09614 0.0
O18 O 0.08275 0.36126 0.10106 0.0
O19 O 0.1075 0.39098 0.1372 0.0
O20 O 0.09336 0.39217 0.12845 0.0
C21 C 0.09879 0.3918 0.14217 0.0
O22 O 0.09582 0.46482 0.07976 0.0
O23 O 0.10827 0.44683 0.0981 0.0
O24 O 0.0703 0.4186 0.07074 0.0
O25 O 0.08286 0.40784 0.05501 0.0
H26 H 0.07789 0.40703 1.01888 0.0
H27 H 0.05288 0.46238 0.99931 0.0
H28 H 0.05718 0.45233 0.05514 0.0
O29 O 0.16637 0.95631 0.05833 0.0
Tb30 Tb 0.15335 0.94552 0.0723 0.0
Eu31 Eu 0.17456 0.90223 0.07747 0.0
C32 C 0.17032 0.99091 0.05553 0.0
O33 O 0.17856 0.99211 0.04794 0.0
C34 C 0.1663 0.9827 0.10102 0.0
O35 O 0.17964 0.85597 0.09689 0.0
C36 C 0.18587 0.90557 0.04985 0.0
C37 C 0.17418 0.84576 0.11015 0.0
O38 O 0.16646 0.86591 0.11273 0.0
C39 C 0.15454 0.85221 0.07746 0.0
C40 C 0.1921 0.88977 0.03531 0.0
C41 C 0.18982 0.89668 1.01723 0.0
C42 C 0.19607 0.88632 1.00339 0.0
C43 C 0.20454 0.86776 1.00804 0.0
C44 C 0.20708 0.86065 1.0257 0.0
C45 C 0.20083 0.87203 0.03924 0.0
O46 O 0.15758 0.97527 0.09632 0.0
O47 O 0.17345 0.96164 0.09424 0.0
O48 O 0.14373 0.99436 0.07069 0.0
O49 O 0.14534 0.95109 0.04838 0.0
C50 C 0.14457 0.95696 0.06574 0.0
O51 O 0.16349 0.85366 0.07295 0.0
O52 O 0.14989 0.88476 0.08113 0.0
O53 O 0.18873 0.90569 0.06637 0.0
O54 O 0.17675 0.90268 0.04851 0.0
H55 H 0.18335 0.91159 1.014 0.0
H56 H 0.20936 0.85933 0.9977 0.0
H57 H 0.20279 0.8672 0.05286 0.0
O58 O 0.11475 0.95985 0.23583 0.0
Tb59 Tb 0.10288 0.92252 0.23034 0.0
Eu60 Eu 0.08099 0.89463 0.23776 0.0
C61 C 0.11495 0.97789 0.25112 0.0
O62 O 0.10863 0.9686 0.26299 0.0
C63 C 0.08728 0.98014 0.21963 0.0
O64 O 0.0738 0.84643 0.22235 0.0
C65 C 0.0719 0.90573 0.26757 0.0
C66 C 0.07234 0.84893 0.20527 0.0
O67 O 0.0736 0.88288 0.19737 0.0
C68 C 0.10001 0.84186 0.24606 0.0
C69 C 0.0666 0.88893 0.28323 0.0
C70 C 0.06944 0.89642 0.30097 0.0
C71 C 0.06361 0.88617 0.3155 0.0
C72 C 0.05499 0.86773 0.312 0.0
C73 C 0.05197 0.8596 0.29472 0.0
C74 C 0.05784 0.87025 0.28051 0.0
O75 O 0.09476 0.97684 0.22957 0.0
O76 O 0.08141 0.94968 0.21886 0.0
O77 O 0.11022 0.90236 0.2069 0.0
O78 O 0.09541 0.89498 0.20851 0.0
C79 C 0.10281 0.88874 0.19895 0.0
O80 O 0.09151 0.84267 0.23905 0.0
O81 O 0.1042 0.87541 0.24952 0.0
O82 O 0.06796 0.90297 0.25192 0.0
O83 O 0.08113 0.90443 0.26673 0.0
H84 H 0.07596 0.91174 0.30342 0.0
H85 H 0.05045 0.86044 0.32296 0.0
H86 H 0.05546 0.86452 0.2672 0.0
O87 O 0.16455 0.37073 0.25892 0.0
Tb88 Tb 0.15372 0.38041 0.23952 0.0
Eu89 Eu 0.17491 0.42251 0.23832 0.0
C90 C 0.16497 0.33987 0.26935 0.0
O91 O 0.17123 0.33919 0.28202 0.0
C92 C 0.1678 0.34482 0.2129 0.0
O93 O 0.17967 0.46909 0.21876 0.0
C94 C 0.1866 0.41981 0.26539 0.0
C95 C 0.1741 0.47948 0.20567 0.0
O96 O 0.16635 0.45946 0.20324 0.0
C97 C 0.1545 0.47251 0.23875 0.0
C98 C 0.19248 0.43575 0.28047 0.0
C99 C 0.18982 0.42897 0.29837 0.0
C100 C 0.19589 0.43852 0.3126 0.0
C101 C 0.20456 0.45599 0.30865 0.0
C102 C 0.20742 0.46362 0.29121 0.0
C103 C 0.20135 0.45302 0.27722 0.0
O104 O 0.15912 0.35631 0.21517 0.0
O105 O 0.17469 0.36251 0.222 0.0
O106 O 0.14187 0.36787 0.2571 0.0
O107 O 0.14349 0.33476 0.23369 0.0
C108 C 0.13838 0.33953 0.24766 0.0
O109 O 0.16348 0.47019 0.24334 0.0
O110 O 0.14983 0.44095 0.23383 0.0
O111 O 0.18924 0.42469 0.2489 0.0
O112 O 0.17749 0.41701 0.26698 0.0
H113 H 0.18322 0.41465 0.3012 0.0
H114 H 0.20925 0.46311 0.31941 0.0
H115 H 0.20358 0.45793 0.26376 0.0
O116 O 0.89615 0.71838 0.992 0.0
Tb117 Tb 0.907 0.68292 0.98025 0.0
Eu118 Eu 0.92884 0.64106 0.98636 0.0
C119 C 0.89659 0.7249 1.00905 0.0
O120 O 0.90307 0.70684 1.0183 0.0
C121 C 0.92405 0.73047 0.97201 0.0
O122 O 0.93542 0.59225 0.96986 0.0
C123 C 0.93832 0.64988 1.01593 0.0
C124 C 0.93052 0.57799 0.95656 0.0
O125 O 0.92247 0.59443 0.95292 0.0
C126 C 0.90818 0.5937 0.99169 0.0
C127 C 0.94365 0.63401 1.03179 0.0
C128 C 0.94072 0.64178 0.04947 0.0
C129 C 0.94658 0.63251 0.06413 0.0
C130 C 0.9553 0.61479 0.06082 0.0
C131 C 0.95841 0.60647 0.04363 0.0
C132 C 0.95253 0.61615 1.02928 0.0
O133 O 0.91758 0.72785 0.98428 0.0
O134 O 0.92882 0.69775 0.96852 0.0
O135 O 0.90098 0.69547 0.95435 0.0
O136 O 0.91327 0.66044 0.95631 0.0
C137 C 0.90747 0.6771 0.94548 0.0
O138 O 0.91728 0.59314 0.98807 0.0
O139 O 0.90349 0.62704 0.993 0.0
O140 O 0.94209 0.64543 1.00022 0.0
O141 O 0.92909 0.65069 1.01537 0.0
H142 H 0.93413 0.65659 0.05176 0.0
H143 H 0.95985 0.60829 0.07188 0.0
H144 H 0.95499 0.61035 1.01604 0.0
O145 O 0.86288 0.10432 0.99535 0.0
Tb146 Tb 0.8525 0.13984 0.9822 0.0
Eu147 Eu 0.83067 0.18119 0.98722 0.0
C148 C 0.86158 0.0957 1.01205 0.0
O149 O 0.85453 0.11199 1.02042 0.0
C150 C 0.83541 0.09189 0.97306 0.0
O151 O 0.82374 0.22917 0.97093 0.0
C152 C 0.82164 0.17284 1.01729 0.0
C153 C 0.82772 0.23919 0.95591 0.0
O154 O 0.83484 0.21825 0.95044 0.0
C155 C 0.85107 0.22965 0.99202 0.0
C156 C 0.81646 0.19018 0.03294 0.0
C157 C 0.81944 0.18347 0.05065 0.0
C158 C 0.81397 0.19629 0.06526 0.0
C159 C 0.80535 0.21489 0.06184 0.0
C160 C 0.80204 0.22095 0.04457 0.0
C161 C 0.80771 0.20896 1.0303 0.0
O162 O 0.84196 0.0942 0.9852 0.0
O163 O 0.83058 0.12445 0.96969 0.0
O164 O 0.85956 0.12646 0.95742 0.0
O165 O 0.84682 0.15886 0.95713 0.0
C166 C 0.85314 0.14213 0.94739 0.0
O167 O 0.8421 0.22974 0.9874 0.0
O168 O 0.85563 0.19641 0.99466 0.0
O169 O 0.81765 0.17558 1.00169 0.0
O170 O 0.83087 0.17326 1.01632 0.0
H171 H 0.82595 0.16805 0.05306 0.0
H172 H 0.80097 0.22312 0.07289 0.0
H173 H 0.80518 0.21369 1.01701 0.0
O174 O 0.91264 0.10651 0.81254 0.0
Tb175 Tb 0.90296 0.12463 0.83305 0.0
Eu176 Eu 0.9239 0.16304 0.82999 0.0
C177 C 0.91266 0.07137 0.80509 0.0
O178 O 0.91916 0.06327 0.79344 0.0
C179 C 0.91806 0.0869 0.85642 0.0
O180 O 0.9299 0.20313 0.85103 0.0
C181 C 0.93483 0.16767 0.80214 0.0
C182 C 0.92471 0.21445 0.86446 0.0
O183 O 0.91638 0.19875 0.86644 0.0
C184 C 0.90415 0.21768 0.83281 0.0
C185 C 0.94158 0.17137 0.7867 0.0
C186 C 0.93891 0.16361 0.76886 0.0
C187 C 0.94534 0.16894 0.75466 0.0
C188 C 0.95437 0.1831 0.75868 0.0
C189 C 0.95728 0.19097 0.77605 0.0
C190 C 0.95081 0.18502 0.78989 0.0
O191 O 0.90958 0.10186 0.85675 0.0
O192 O 0.9243 0.10166 0.84496 0.0
O193 O 0.88994 0.11321 0.81871 0.0
O194 O 0.89299 0.08066 0.84189 0.0
C195 C 0.88697 0.08587 0.82931 0.0
O196 O 0.91305 0.21429 0.82788 0.0
O197 O 0.89932 0.18636 0.83758 0.0
O198 O 0.93767 0.1732 0.81846 0.0
O199 O 0.92596 0.15754 0.8009 0.0
H200 H 0.9319 0.15328 0.76607 0.0
H201 H 0.95916 0.18919 0.74798 0.0
H202 H 0.953 0.19108 0.80328 0.0
O203 O 0.8465 0.71559 0.81235 0.0
Tb204 Tb 0.8564 0.69631 0.83213 0.0
Eu205 Eu 0.83497 0.65889 0.83167 0.0
C206 C 0.84697 0.75016 0.80447 0.0
O207 O 0.84065 0.7591 0.79258 0.0
C208 C 0.84204 0.73661 0.85719 0.0
O209 O 0.82881 0.61581 0.8513 0.0
C210 C 0.8238 0.66386 0.80397 0.0
C211 C 0.83389 0.60396 0.86479 0.0
O212 O 0.8421 0.62035 0.86734 0.0
C213 C 0.85445 0.60338 0.83327 0.0
C214 C 0.81796 0.64781 0.78881 0.0
C215 C 0.82067 0.65402 0.7709 0.0
C216 C 0.81452 0.64495 0.75671 0.0
C217 C 0.8057 0.62893 0.7607 0.0
C218 C 0.80271 0.62255 0.77814 0.0
C219 C 0.80894 0.6317 0.79208 0.0
O220 O 0.85081 0.72546 0.8553 0.0
O221 O 0.83524 0.71823 0.84818 0.0
O222 O 0.86872 0.70209 0.81514 0.0
O223 O 0.86779 0.73622 0.83848 0.0
C224 C 0.87291 0.72832 0.82478 0.0
O225 O 0.84557 0.60719 0.82817 0.0
O226 O 0.8593 0.63447 0.83824 0.0
O227 O 0.82092 0.65872 0.82029 0.0
O228 O 0.83296 0.66672 0.80286 0.0
H229 H 0.82735 0.66753 0.76803 0.0
H230 H 0.80106 0.62129 0.74993 0.0
H231 H 0.80657 0.62793 0.80553 0.0
O232 O 0.11487 0.85211 0.61143 0.0
Tb233 Tb 0.103 0.89121 0.60835 0.0
Eu234 Eu 0.08224 0.91873 0.58338 0.0
C235 C 0.12176 0.85144 0.60002 0.0
O236 O 0.12195 0.87763 0.58729 0.0
C237 C 0.08775 0.83296 0.60192 0.0
O238 O 0.07586 0.96511 0.60138 0.0
C239 C 0.07196 0.91235 0.55459 0.0
C240 C 0.08113 0.98302 0.61319 0.0
O241 O 0.08993 0.97273 0.61459 0.0
C242 C 0.10296 0.96982 0.58441 0.0
C243 C 0.06669 0.92855 0.53874 0.0
C244 C 0.06961 0.92105 0.52103 0.0
C245 C 0.06377 0.93085 0.50642 0.0
C246 C 0.05508 0.94882 0.5098 0.0
C247 C 0.05198 0.9568 0.52702 0.0
C248 C 0.05784 0.94657 0.54132 0.0
O249 O 0.09613 0.8416 0.59622 0.0
O250 O 0.0812 0.86054 0.60017 0.0
O251 O 0.10514 0.90515 0.63604 0.0
O252 O 0.09121 0.89877 0.62652 0.0
C253 C 0.09633 0.90595 0.64032 0.0
O254 O 0.09409 0.96519 0.57912 0.0
O255 O 0.10747 0.94344 0.59401 0.0
O256 O 0.06869 0.91994 0.57042 0.0
O257 O 0.08111 0.90728 0.55456 0.0
H258 H 0.07617 0.9061 0.51866 0.0
H259 H 0.05055 0.95579 0.49877 0.0
H260 H 0.05537 0.95206 0.55458 0.0
O261 O 0.16112 0.45366 0.55852 0.0
Tb262 Tb 0.15106 0.43876 0.5789 0.0
Eu263 Eu 0.17275 0.40306 0.57781 0.0
C264 C 0.16452 0.48919 0.55569 0.0
O265 O 0.17126 0.49355 0.5441 0.0
C266 C 0.16539 0.48109 0.60331 0.0
O267 O 0.17785 0.35639 0.59702 0.0
C268 C 0.18425 0.4085 0.55061 0.0
C269 C 0.17269 0.34716 0.61082 0.0
O270 O 0.16526 0.36863 0.61418 0.0
C271 C 0.15357 0.34809 0.57987 0.0
C272 C 0.19018 0.39262 0.53561 0.0
C273 C 0.18771 0.39971 0.51763 0.0
C274 C 0.19393 0.39015 0.50361 0.0
C275 C 0.20254 0.37251 0.50786 0.0
C276 C 0.2052 0.36475 0.52538 0.0
C277 C 0.199 0.37517 0.53914 0.0
O278 O 0.15661 0.47049 0.60122 0.0
O279 O 0.17225 0.46239 0.59452 0.0
O280 O 0.13862 0.44044 0.56196 0.0
O281 O 0.13898 0.47523 0.58513 0.0
C282 C 0.13394 0.46514 0.57162 0.0
O283 O 0.16187 0.35359 0.57239 0.0
O284 O 0.1492 0.37793 0.58716 0.0
O285 O 0.18698 0.40358 0.56705 0.0
O286 O 0.17511 0.4104 0.54914 0.0
H287 H 0.18116 0.41423 0.51459 0.0
H288 H 0.20735 0.36545 0.49728 0.0
H289 H 0.20111 0.37004 0.55266 0.0
O290 O 0.11419 0.46655 0.7148 0.0
Tb291 Tb 0.10211 0.42827 0.71642 0.0
Eu292 Eu 0.0808 0.39878 0.73881 0.0
C293 C 0.11784 0.4803 0.72943 0.0
O294 O 0.11452 0.46779 0.74457 0.0
C295 C 0.08652 0.4856 0.72148 0.0
O296 O 0.07448 0.35312 0.72034 0.0
C297 C 0.07058 0.40398 0.76774 0.0
C298 C 0.07984 0.33524 0.70867 0.0
O299 O 0.08869 0.34511 0.70769 0.0
C300 C 0.10159 0.34826 0.73888 0.0
C301 C 0.06555 0.38622 0.78356 0.0
C302 C 0.0687 0.39256 0.80122 0.0
C303 C 0.06337 0.37934 0.81597 0.0
C304 C 0.05472 0.36087 0.81275 0.0
C305 C 0.0512 0.35545 0.79559 0.0
C306 C 0.05676 0.36751 0.78114 0.0
O307 O 0.09475 0.47723 0.72805 0.0
O308 O 0.08002 0.45758 0.72233 0.0
O309 O 0.10473 0.41574 0.6887 0.0
O310 O 0.09066 0.41943 0.69767 0.0
C311 C 0.09598 0.41363 0.68404 0.0
O312 O 0.09247 0.35144 0.74259 0.0
O313 O 0.10644 0.37639 0.73109 0.0
O314 O 0.06725 0.39683 0.75189 0.0
O315 O 0.07971 0.40952 0.76764 0.0
H316 H 0.07522 0.4079 0.80348 0.0
H317 H 0.05055 0.35122 0.82387 0.0
H318 H 0.05399 0.36396 0.76795 0.0
O319 O 0.16307 0.86899 0.75935 0.0
Tb320 Tb 0.15223 0.88267 0.74034 0.0
Eu321 Eu 0.17373 0.92223 0.73827 0.0
C322 C 0.16649 0.83349 0.76195 0.0
O323 O 0.17373 0.82909 0.77244 0.0
C324 C 0.16599 0.84366 0.71368 0.0
O325 O 0.17857 0.9687 0.71873 0.0
C326 C 0.18542 0.91801 0.76528 0.0
C327 C 0.17303 0.97879 0.70558 0.0
O328 O 0.16535 0.95834 0.70307 0.0
C329 C 0.15389 0.97446 0.7384 0.0
C330 C 0.19126 0.93503 0.78017 0.0
C331 C 0.18864 0.92936 0.79816 0.0
C332 C 0.19447 0.94215 0.81225 0.0
C333 C 0.20306 0.96001 0.808 0.0
C334 C 0.20601 0.96533 0.79045 0.0
C335 C 0.20005 0.95275 0.77665 0.0
O336 O 0.15726 0.85365 0.71683 0.0
O337 O 0.17305 0.86282 0.72167 0.0
O338 O 0.14024 0.87751 0.75825 0.0
O339 O 0.14066 0.84269 0.73512 0.0
C340 C 0.13576 0.85141 0.74899 0.0
O341 O 0.16276 0.97135 0.7435 0.0
O342 O 0.14921 0.94331 0.73313 0.0
O343 O 0.18805 0.92263 0.74877 0.0
O344 O 0.17629 0.91579 0.76687 0.0
H345 H 0.1821 0.91478 0.8012 0.0
H346 H 0.20773 0.96836 0.81862 0.0
H347 H 0.20232 0.95646 0.76313 0.0
O348 O 0.89522 0.20101 0.4527 0.0
Tb349 Tb 0.90719 0.16588 0.45972 0.0
Eu350 Eu 0.92657 0.14696 0.48675 0.0
C351 C 0.89012 0.21601 0.46537 0.0
O352 O 0.89107 0.20159 0.48135 0.0
C353 C 0.92035 0.2322 0.46762 0.0
O354 O 0.93289 0.10038 0.46862 0.0
C355 C 0.93702 0.15352 0.51536 0.0
C356 C 0.92747 0.07981 0.45795 0.0
O357 O 0.91851 0.08763 0.45755 0.0
C358 C 0.90614 0.09405 0.48689 0.0
C359 C 0.94211 0.13578 0.53109 0.0
C360 C 0.93899 0.14131 0.54881 0.0
C361 C 0.94438 0.12767 0.56342 0.0
C362 C 0.95304 0.10952 0.56 0.0
C363 C 0.95649 0.10458 0.54277 0.0
C364 C 0.95093 0.11748 0.52849 0.0
O365 O 0.91187 0.22049 0.47136 0.0
O366 O 0.92726 0.20657 0.47046 0.0
O367 O 0.90679 0.1462 0.43249 0.0
O368 O 0.91997 0.16079 0.44388 0.0
C369 C 0.91574 0.14913 0.42959 0.0
O370 O 0.91485 0.1005 0.49265 0.0
O371 O 0.90196 0.11725 0.4754 0.0
O372 O 0.94022 0.14596 0.49946 0.0
O373 O 0.92789 0.15895 0.51544 0.0
H374 H 0.93243 0.1563 0.55124 0.0
H375 H 0.95735 0.10065 0.57106 0.0
H376 H 0.95358 0.11378 0.51523 0.0
O377 O 0.86554 0.63153 0.4652 0.0
Tb378 Tb 0.85216 0.65727 0.47131 0.0
Eu379 Eu 0.83117 0.67746 0.48855 0.0
C380 C 0.87046 0.61647 0.47813 0.0
O381 O 0.86785 0.6238 0.49441 0.0
C382 C 0.83723 0.59355 0.46744 0.0
O383 O 0.82452 0.72904 0.47416 0.0
C384 C 0.82155 0.66573 0.51772 0.0
C385 C 0.82216 0.72931 0.45737 0.0
O386 O 0.82239 0.69628 0.44839 0.0
C387 C 0.85128 0.72799 0.4952 0.0
C388 C 0.81632 0.68225 0.53354 0.0
C389 C 0.81926 0.67453 0.55119 0.0
C390 C 0.8135 0.68457 0.56584 0.0
C391 C 0.80485 0.70291 0.56256 0.0
C392 C 0.80174 0.71144 0.54537 0.0
C393 C 0.80755 0.70101 0.53102 0.0
O394 O 0.84566 0.59998 0.47352 0.0
O395 O 0.83079 0.62187 0.46943 0.0
O396 O 0.85366 0.68484 0.4455 0.0
O397 O 0.84139 0.6953 0.46037 0.0
C398 C 0.84576 0.70384 0.44588 0.0
O399 O 0.84207 0.72823 0.49255 0.0
O400 O 0.85602 0.69527 0.4929 0.0
O401 O 0.81785 0.67119 0.50201 0.0
O402 O 0.83078 0.6645 0.51725 0.0
H403 H 0.8258 0.65924 0.5535 0.0
H404 H 0.80037 0.70987 0.57365 0.0
H405 H 0.80512 0.70702 0.51777 0.0
O406 O 0.89514 0.61053 0.34243 0.0
Tb407 Tb 0.90324 0.66162 0.34995 0.0
Eu408 Eu 0.9272 0.67181 0.33211 0.0
C409 C 0.8991 0.5831 0.33279 0.0
O410 O 0.9076 0.58904 0.32676 0.0
C411 C 0.9194 0.6026 0.36092 0.0
O412 O 0.93493 0.71166 0.35105 0.0
C413 C 0.93662 0.6629 0.30248 0.0
C414 C 0.93082 0.72067 0.36606 0.0
O415 O 0.9231 0.70203 0.37026 0.0
C416 C 0.90888 0.72649 0.32587 0.0
C417 C 0.94224 0.67925 0.28712 0.0
C418 C 0.93961 0.67165 0.26927 0.0
C419 C 0.94564 0.68143 0.25497 0.0
C420 C 0.95424 0.69968 0.25883 0.0
C421 C 0.95705 0.70799 0.27623 0.0
C422 C 0.951 0.69759 0.29022 0.0
O423 O 0.91284 0.6271 0.36638 0.0
O424 O 0.92469 0.61151 0.34686 0.0
O425 O 0.89051 0.68432 0.36192 0.0
O426 O 0.90326 0.71601 0.36528 0.0
C427 C 0.89431 0.71608 0.36837 0.0
O428 O 0.91772 0.72689 0.3308 0.0
O429 O 0.90483 0.69196 0.32502 0.0
O430 O 0.94041 0.66359 0.31832 0.0
O431 O 0.92742 0.66592 0.30298 0.0
H432 H 0.9331 0.65655 0.26656 0.0
H433 H 0.95893 0.7067 0.24806 0.0
H434 H 0.95321 0.70333 0.30363 0.0
O435 O 0.84632 0.19888 0.31488 0.0
Tb436 Tb 0.85558 0.18519 0.33662 0.0
Eu437 Eu 0.83418 0.15123 0.33108 0.0
C438 C 0.84733 0.22956 0.30445 0.0
O439 O 0.84197 0.23266 0.29047 0.0
C440 C 0.8403 0.22719 0.35876 0.0
O441 O 0.82836 0.10404 0.34908 0.0
C442 C 0.82319 0.15707 0.3031 0.0
C443 C 0.83192 0.09775 0.36485 0.0
O444 O 0.83829 0.12207 0.37093 0.0
C445 C 0.85333 0.09465 0.33487 0.0
C446 C 0.81761 0.14015 0.28784 0.0
C447 C 0.82037 0.14671 0.26998 0.0
C448 C 0.8147 0.13396 0.25566 0.0
C449 C 0.80614 0.11542 0.25946 0.0
C450 C 0.80305 0.10928 0.27688 0.0
C451 C 0.80887 0.12159 0.29093 0.0
O452 O 0.84899 0.21456 0.35867 0.0
O453 O 0.83396 0.21048 0.34799 0.0
O454 O 0.86805 0.19342 0.32015 0.0
O455 O 0.86732 0.22172 0.34498 0.0
C456 C 0.87241 0.21657 0.331 0.0
O457 O 0.84525 0.10132 0.32662 0.0
O458 O 0.85754 0.12354 0.34323 0.0
O459 O 0.8202 0.15177 0.31934 0.0
O460 O 0.83235 0.15957 0.30227 0.0
H461 H 0.82687 0.16189 0.26723 0.0
H462 H 0.80165 0.10712 0.24858 0.0
H463 H 0.80653 0.11708 0.30435 0.0
O464 O 0.61455 0.35536 0.58512 0.0
Tb465 Tb 0.604 0.39074 0.59803 0.0
Eu466 Eu 0.58156 0.42597 0.58411 0.0
C467 C 0.61305 0.34025 0.56943 0.0
O468 O 0.60558 0.35099 0.56056 0.0
C469 C 0.58674 0.33953 0.60139 0.0
O470 O 0.57438 0.47004 0.60169 0.0
C471 C 0.57179 0.41687 0.55484 0.0
C472 C 0.57869 0.48045 0.61627 0.0
O473 O 0.58658 0.4628 0.62032 0.0
C474 C 0.60151 0.48087 0.58425 0.0
C475 C 0.56654 0.43286 0.53889 0.0
C476 C 0.56946 0.42458 0.52126 0.0
C477 C 0.56369 0.43415 0.50654 0.0
C478 C 0.55504 0.45263 0.50972 0.0
C479 C 0.55194 0.46155 0.52685 0.0
C480 C 0.55774 0.45151 0.54128 0.0
O481 O 0.59424 0.34359 0.59162 0.0
O482 O 0.58116 0.37063 0.60263 0.0
O483 O 0.6132 0.38369 0.62058 0.0
O484 O 0.59864 0.38792 0.62508 0.0
C485 C 0.60672 0.38265 0.63262 0.0
O486 O 0.59228 0.47753 0.58197 0.0
O487 O 0.60682 0.4507 0.58883 0.0
O488 O 0.56818 0.42295 0.57056 0.0
O489 O 0.58101 0.41438 0.55525 0.0
H490 H 0.57599 0.40922 0.51904 0.0
H491 H 0.55055 0.45927 0.49859 0.0
H492 H 0.55528 0.45771 0.55449 0.0
O493 O 0.66235 0.95233 0.55164 0.0
Tb494 Tb 0.65305 0.94884 0.574 0.0
Eu495 Eu 0.67437 0.90804 0.5784 0.0
C496 C 0.66199 0.98031 0.53968 0.0
O497 O 0.66718 0.9773 0.52547 0.0
C498 C 0.66721 0.99161 0.60036 0.0
O499 O 0.67933 0.86299 0.59827 0.0
C500 C 0.6865 0.91139 0.552 0.0
C501 C 0.67376 0.85279 0.61132 0.0
O502 O 0.66588 0.87208 0.61343 0.0
C503 C 0.6543 0.85796 0.57967 0.0
C504 C 0.69208 0.89408 0.53684 0.0
C505 C 0.68916 0.899 0.51896 0.0
C506 C 0.69483 0.88614 0.50465 0.0
C507 C 0.70356 0.86913 0.50854 0.0
C508 C 0.7069 0.86547 0.52595 0.0
C509 C 0.70103 0.87743 0.53998 0.0
O510 O 0.65861 0.98793 0.59426 0.0
O511 O 0.67398 0.96614 0.59575 0.0
O512 O 0.64081 0.94705 0.55667 0.0
O513 O 0.6415 0.99055 0.57641 0.0
C514 C 0.63646 0.97675 0.5636 0.0
O515 O 0.66305 0.85968 0.5737 0.0
O516 O 0.65005 0.89047 0.58479 0.0
O517 O 0.68881 0.90376 0.56845 0.0
O518 O 0.6775 0.91726 0.55022 0.0
H519 H 0.68253 0.91306 0.51615 0.0
H520 H 0.70793 0.85943 0.49773 0.0
H521 H 0.70361 0.87538 0.55337 0.0
O522 O 0.61323 0.98285 0.73808 0.0
Tb523 Tb 0.60311 0.93981 0.72945 0.0
Eu524 Eu 0.58119 0.9004 0.73723 0.0
C525 C 0.6117 0.99961 0.75341 0.0
O526 O 0.60521 0.98469 0.76369 0.0
C527 C 0.58595 0.98912 0.72137 0.0
O528 O 0.57389 0.85421 0.72057 0.0
C529 C 0.57169 0.90845 0.76687 0.0
C530 C 0.57841 0.83906 0.70706 0.0
O531 O 0.58677 0.85255 0.7034 0.0
C532 C 0.60179 0.85279 0.74261 0.0
C533 C 0.56643 0.89058 0.78237 0.0
C534 C 0.56936 0.89661 0.80015 0.0
C535 C 0.56386 0.88313 0.81461 0.0
C536 C 0.55527 0.86448 0.81098 0.0
C537 C 0.55199 0.85902 0.79365 0.0
C538 C 0.55768 0.87182 0.77951 0.0
O539 O 0.59294 0.9871 0.73257 0.0
O540 O 0.58085 0.95672 0.71915 0.0
O541 O 0.60986 0.93692 0.70357 0.0
O542 O 0.59564 0.91924 0.70646 0.0
C543 C 0.60245 0.92386 0.69537 0.0
O544 O 0.59273 0.85187 0.73847 0.0
O545 O 0.6062 0.88667 0.74459 0.0
O546 O 0.56795 0.90491 0.75111 0.0
O547 O 0.58092 0.90928 0.76629 0.0
H548 H 0.57586 0.91195 0.80275 0.0
H549 H 0.55089 0.85566 0.82195 0.0
H550 H 0.55518 0.86766 0.76617 0.0
O551 O 0.64363 0.39383 0.722 0.0
Tb552 Tb 0.65647 0.41143 0.70916 0.0
Eu553 Eu 0.67691 0.43075 0.73763 0.0
C554 C 0.64383 0.38749 0.73907 0.0
O555 O 0.65121 0.39905 0.74801 0.0
C556 C 0.67102 0.34862 0.71672 0.0
O557 O 0.682 0.48196 0.72114 0.0
C558 C 0.68758 0.42427 0.76594 0.0
C559 C 0.6799 0.48433 0.7043 0.0
O560 O 0.67572 0.45439 0.69675 0.0
C561 C 0.65889 0.48954 0.73044 0.0
C562 C 0.69295 0.43918 0.78197 0.0
C563 C 0.68994 0.43128 0.7996 0.0
C564 C 0.69581 0.43962 0.81435 0.0
C565 C 0.70465 0.4564 0.81119 0.0
C566 C 0.70792 0.46439 0.79406 0.0
C567 C 0.70197 0.45608 0.77962 0.0
O568 O 0.66263 0.35971 0.72146 0.0
O569 O 0.67795 0.37395 0.71974 0.0
O570 O 0.64926 0.40432 0.68408 0.0
O571 O 0.66386 0.39373 0.68528 0.0
C572 C 0.65655 0.39286 0.67508 0.0
O573 O 0.66402 0.47169 0.74282 0.0
O574 O 0.65827 0.47404 0.71458 0.0
O575 O 0.69062 0.43363 0.75011 0.0
O576 O 0.67849 0.41767 0.76623 0.0
H577 H 0.68325 0.41717 0.8018 0.0
H578 H 0.70907 0.46338 0.82237 0.0
H579 H 0.70458 0.46107 0.76641 0.0
O580 O 0.39202 0.70881 0.46798 0.0
Tb581 Tb 0.40495 0.67725 0.46435 0.0
Eu582 Eu 0.42578 0.64902 0.48466 0.0
C583 C 0.38937 0.71297 0.48445 0.0
O584 O 0.39435 0.69583 0.49682 0.0
C585 C 0.42059 0.73581 0.46574 0.0
O586 O 0.43127 0.59878 0.4675 0.0
C587 C 0.43677 0.6576 0.51239 0.0
C588 C 0.42534 0.5762 0.45877 0.0
O589 O 0.41647 0.58564 0.45861 0.0
C590 C 0.40507 0.59893 0.48796 0.0
C591 C 0.44207 0.64205 0.52835 0.0
C592 C 0.43917 0.65026 0.546 0.0
C593 C 0.44499 0.64083 0.56067 0.0
C594 C 0.45365 0.62256 0.55744 0.0
C595 C 0.45674 0.61373 0.54029 0.0
C596 C 0.45091 0.62371 0.5259 0.0
O597 O 0.41232 0.72967 0.47257 0.0
O598 O 0.42669 0.70606 0.46652 0.0
O599 O 0.40197 0.67017 0.4363 0.0
O600 O 0.41557 0.65665 0.44594 0.0
C601 C 0.41029 0.65747 0.43198 0.0
O602 O 0.41413 0.60324 0.49193 0.0
O603 O 0.40042 0.62529 0.47875 0.0
O604 O 0.43965 0.6474 0.49657 0.0
O605 O 0.42769 0.66443 0.51288 0.0
H606 H 0.43262 0.6654 0.54828 0.0
H607 H 0.45817 0.61597 0.56854 0.0
H608 H 0.45336 0.61769 0.51267 0.0
O609 O 0.36219 0.10538 0.48798 0.0
Tb610 Tb 0.35206 0.1382 0.47298 0.0
Eu611 Eu 0.33018 0.1779 0.48715 0.0
C612 C 0.35995 0.09534 0.50415 0.0
O613 O 0.35297 0.11368 0.51185 0.0
C614 C 0.33455 0.09061 0.47107 0.0
O615 O 0.32437 0.2259 0.46961 0.0
C616 C 0.31993 0.17057 0.51588 0.0
C617 C 0.32951 0.23776 0.45622 0.0
O618 O 0.33734 0.21899 0.45291 0.0
C619 C 0.35093 0.22813 0.48668 0.0
C620 C 0.31489 0.18785 0.53173 0.0
C621 C 0.31802 0.18143 0.54939 0.0
C622 C 0.31266 0.1946 0.5641 0.0
C623 C 0.30404 0.21325 0.56086 0.0
C624 C 0.30058 0.219 0.54368 0.0
C625 C 0.30611 0.20656 0.52929 0.0
O626 O 0.34176 0.09537 0.48145 0.0
O627 O 0.32918 0.12208 0.469 0.0
O628 O 0.35892 0.1157 0.44942 0.0
O629 O 0.34535 0.14149 0.44728 0.0
C630 C 0.35194 0.12305 0.43883 0.0
O631 O 0.3419 0.22499 0.4911 0.0
O632 O 0.35571 0.19876 0.47967 0.0
O633 O 0.31662 0.17851 0.50008 0.0
O634 O 0.32908 0.16522 0.51581 0.0
H635 H 0.32454 0.16606 0.55168 0.0
H636 H 0.29975 0.2218 0.57199 0.0
H637 H 0.30345 0.21092 0.51607 0.0
O638 O 0.41518 0.11799 0.3083 0.0
Tb639 Tb 0.4051 0.13202 0.3287 0.0
Eu640 Eu 0.4256 0.17254 0.32646 0.0
C641 C 0.4154 0.0843 0.29971 0.0
O642 O 0.4212 0.08034 0.28642 0.0
C643 C 0.42 0.09792 0.35338 0.0
O644 O 0.4317 0.21404 0.3466 0.0
C645 C 0.43628 0.17747 0.29832 0.0
C646 C 0.42718 0.22191 0.36127 0.0
O647 O 0.41952 0.20212 0.36491 0.0
C648 C 0.40535 0.22502 0.32869 0.0
C649 C 0.44285 0.1812 0.28268 0.0
C650 C 0.43998 0.17344 0.26499 0.0
C651 C 0.44631 0.17794 0.25062 0.0
C652 C 0.45545 0.19123 0.25424 0.0
C653 C 0.45849 0.19976 0.27147 0.0
C654 C 0.45213 0.19446 0.28553 0.0
O655 O 0.41159 0.11336 0.35322 0.0
O656 O 0.42628 0.11179 0.34184 0.0
O657 O 0.3928 0.11115 0.31396 0.0
O658 O 0.39607 0.08613 0.33882 0.0
C659 C 0.39035 0.085 0.32559 0.0
O660 O 0.41451 0.22311 0.32553 0.0
O661 O 0.40043 0.19283 0.33165 0.0
O662 O 0.43934 0.18115 0.31459 0.0
O663 O 0.42728 0.16958 0.29722 0.0
H664 H 0.43291 0.16356 0.26244 0.0
H665 H 0.46019 0.19618 0.24332 0.0
H666 H 0.45444 0.20073 0.29883 0.0
O667 O 0.36445 0.71085 0.34962 0.0
Tb668 Tb 0.35507 0.66274 0.35601 0.0
Eu669 Eu 0.33244 0.65421 0.33158 0.0
C670 C 0.36244 0.73388 0.33621 0.0
O671 O 0.35511 0.72564 0.32646 0.0
C672 C 0.33871 0.72403 0.36151 0.0
O673 O 0.32486 0.61292 0.35016 0.0
C674 C 0.3228 0.66216 0.3021 0.0
C675 C 0.3285 0.60592 0.36579 0.0
O676 O 0.33559 0.62746 0.37095 0.0
C677 C 0.35151 0.60007 0.32835 0.0
C678 C 0.31727 0.6453 0.28671 0.0
C679 C 0.32003 0.65244 0.26889 0.0
C680 C 0.31411 0.64215 0.25449 0.0
C681 C 0.30552 0.62379 0.25819 0.0
C682 C 0.30256 0.61589 0.27554 0.0
C683 C 0.30849 0.62692 0.28967 0.0
O684 O 0.3444 0.69851 0.36905 0.0
O685 O 0.33448 0.71524 0.3462 0.0
O686 O 0.36562 0.64235 0.37463 0.0
O687 O 0.35429 0.60452 0.36813 0.0
C688 C 0.36199 0.6076 0.37714 0.0
O689 O 0.34228 0.59998 0.32961 0.0
O690 O 0.35587 0.63376 0.33051 0.0
O691 O 0.31909 0.6606 0.31798 0.0
O692 O 0.33202 0.66069 0.30247 0.0
H693 H 0.32654 0.66758 0.26626 0.0
H694 H 0.30093 0.61635 0.24731 0.0
H695 H 0.30616 0.6216 0.30304 0.0
O696 O 0.61487 0.88458 0.09266 0.0
Tb697 Tb 0.60284 0.90164 0.10806 0.0
Eu698 Eu 0.58209 0.92671 0.08224 0.0
C699 C 0.61378 0.87766 0.07576 0.0
O700 O 0.60597 0.88878 0.06811 0.0
C701 C 0.58724 0.84301 0.10208 0.0
O702 O 0.57691 0.97776 0.09866 0.0
C703 C 0.57176 0.91989 0.05354 0.0
C704 C 0.57888 0.98001 0.11558 0.0
O705 O 0.58307 0.95014 0.12322 0.0
C706 C 0.60053 0.98325 0.08963 0.0
C707 C 0.56672 0.93663 0.03753 0.0
C708 C 0.56983 0.92957 1.01991 0.0
C709 C 0.56447 0.94231 1.00511 0.0
C710 C 0.55586 0.96114 1.00823 0.0
C711 C 0.55241 0.96744 1.02536 0.0
C712 C 0.55794 0.95543 0.03984 0.0
O713 O 0.59557 0.85203 0.09627 0.0
O714 O 0.58068 0.87042 0.10026 0.0
O715 O 0.61139 0.89042 0.13121 0.0
O716 O 0.59673 0.88125 0.13283 0.0
C717 C 0.60461 0.87817 0.14132 0.0
O718 O 0.59484 0.96843 0.07736 0.0
O719 O 0.60144 0.96516 0.10489 0.0
O720 O 0.56853 0.92877 0.06929 0.0
O721 O 0.58086 0.9136 0.05362 0.0
H722 H 0.57634 0.91407 1.01772 0.0
H723 H 0.55158 0.96941 0.99702 0.0
H724 H 0.55528 0.9602 0.05302 0.0
O725 O 0.64582 0.47424 0.08288 0.0
Tb726 Tb 0.65629 0.43349 0.09222 0.0
Eu727 Eu 0.67791 0.3965 0.08372 0.0
C728 C 0.64731 0.49046 0.06741 0.0
O729 O 0.65418 0.47683 0.05767 0.0
C730 C 0.67327 0.48381 0.10083 0.0
O731 O 0.68584 0.34899 0.0983 0.0
C732 C 0.68628 0.40753 0.0531 0.0
C733 C 0.68461 0.34516 0.11539 0.0
O734 O 0.67977 0.37214 0.12371 0.0
C735 C 0.65774 0.34665 0.07963 0.0
C736 C 0.69159 0.3913 0.03732 0.0
C737 C 0.68879 0.39939 1.0196 0.0
C738 C 0.6947 0.38999 1.00505 0.0
C739 C 0.70336 0.37188 1.00853 0.0
C740 C 0.70635 0.3633 1.02578 0.0
C741 C 0.70039 0.37292 0.03999 0.0
O742 O 0.66613 0.48237 0.08993 0.0
O743 O 0.67838 0.45134 0.10253 0.0
O744 O 0.64951 0.43223 0.11803 0.0
O745 O 0.66357 0.41201 0.11538 0.0
C746 C 0.65681 0.41866 0.12641 0.0
O747 O 0.66672 0.34661 0.08429 0.0
O748 O 0.65332 0.38024 0.07706 0.0
O749 O 0.69051 0.40629 0.06849 0.0
O750 O 0.67711 0.40439 0.05457 0.0
H751 H 0.68225 0.41459 1.0172 0.0
H752 H 0.70798 0.36531 0.99758 0.0
H753 H 0.70275 0.36677 0.05327 0.0
O754 O 0.59312 0.4566 0.25946 0.0
Tb755 Tb 0.60464 0.44486 0.24173 0.0
Eu756 Eu 0.58406 0.40326 0.24015 0.0
C757 C 0.59015 0.49201 0.26361 0.0
O758 O 0.58259 0.4957 0.27329 0.0
C759 C 0.59097 0.48184 0.21489 0.0
O760 O 0.57807 0.35884 0.22109 0.0
C761 C 0.57349 0.40527 0.2688 0.0
C762 C 0.58272 0.35072 0.20656 0.0
O763 O 0.5901 0.37206 0.20269 0.0
C764 C 0.60426 0.35198 0.23832 0.0
C765 C 0.56743 0.3893 0.2836 0.0
C766 C 0.56989 0.39593 0.30161 0.0
C767 C 0.56363 0.38656 0.31558 0.0
C768 C 0.55495 0.3697 0.3112 0.0
C769 C 0.55224 0.36273 0.29362 0.0
C770 C 0.55858 0.37235 0.27994 0.0
O771 O 0.59973 0.4713 0.21742 0.0
O772 O 0.58414 0.46337 0.22385 0.0
O773 O 0.61623 0.45308 0.26025 0.0
O774 O 0.61516 0.49037 0.23801 0.0
C775 C 0.62011 0.48223 0.2519 0.0
O776 O 0.59514 0.35303 0.24184 0.0
O777 O 0.60898 0.38474 0.23551 0.0
O778 O 0.57025 0.40624 0.25257 0.0
O779 O 0.58265 0.40232 0.26937 0.0
H780 H 0.5765 0.40996 0.3047 0.0
H781 H 0.55021 0.36166 0.32176 0.0
H782 H 0.55644 0.36808 0.26638 0.0
O783 O 0.64376 0.85894 0.22298 0.0
Tb784 Tb 0.65618 0.89026 0.21462 0.0
Eu785 Eu 0.67777 0.9225 0.23647 0.0
C786 C 0.64335 0.84092 0.23827 0.0
O787 O 0.65013 0.84605 0.24972 0.0
C788 C 0.67288 0.83617 0.21857 0.0
O789 O 0.68406 0.96823 0.21841 0.0
C790 C 0.68798 0.91576 0.26534 0.0
C791 C 0.6793 0.97905 0.20437 0.0
O792 O 0.67145 0.96069 0.20075 0.0
C793 C 0.65787 0.97726 0.23262 0.0
C794 C 0.69301 0.93236 0.28138 0.0
C795 C 0.68966 0.9264 0.29893 0.0
C796 C 0.69498 0.9389 0.31382 0.0
C797 C 0.70375 0.95645 0.3109 0.0
C798 C 0.70752 0.96095 0.29388 0.0
C799 C 0.70201 0.94949 0.27927 0.0
O800 O 0.66463 0.84272 0.22551 0.0
O801 O 0.67894 0.86578 0.21892 0.0
O802 O 0.64901 0.8851 0.18955 0.0
O803 O 0.66371 0.88119 0.18974 0.0
C804 C 0.65631 0.87841 0.1798 0.0
O805 O 0.66618 0.9704 0.24014 0.0
O806 O 0.65367 0.95142 0.2223 0.0
O807 O 0.69129 0.92424 0.24961 0.0
O808 O 0.67885 0.9099 0.26516 0.0
H809 H 0.68301 0.91193 0.30101 0.0
H810 H 0.70779 0.96595 0.3222 0.0
H811 H 0.70494 0.95223 0.26617 0.0
O812 O 0.39321 0.18883 0.97448 0.0
Tb813 Tb 0.40499 0.17163 0.95842 0.0
Eu814 Eu 0.42598 0.14939 0.98372 0.0
C815 C 0.39469 0.19796 0.99105 0.0
O816 O 0.4027 0.18786 0.99827 0.0
C817 C 0.42051 0.23194 0.96312 0.0
O818 O 0.43086 0.09813 0.96715 0.0
C819 C 0.43679 0.15667 1.01172 0.0
C820 C 0.42837 0.09539 0.9505 0.0
O821 O 0.42391 0.12499 0.94319 0.0
C822 C 0.4079 0.09147 0.97749 0.0
C823 C 0.44206 0.14074 1.02761 0.0
C824 C 0.43915 0.14841 0.0453 0.0
C825 C 0.44498 0.13864 0.05991 0.0
C826 C 0.45365 0.12055 0.05657 0.0
C827 C 0.45675 0.11247 0.03936 0.0
C828 C 0.45091 0.1227 1.02505 0.0
O829 O 0.41214 0.22318 0.96887 0.0
O830 O 0.42712 0.20484 0.9652 0.0
O831 O 0.3958 0.18015 0.93594 0.0
O832 O 0.4103 0.19096 0.93288 0.0
C833 C 0.4022 0.19274 0.92506 0.0
O834 O 0.41328 0.10834 0.9897 0.0
O835 O 0.40691 0.10848 0.96203 0.0
O836 O 0.43974 0.14685 0.99589 0.0
O837 O 0.42772 0.16367 1.01213 0.0
H838 H 0.43259 0.16342 0.04765 0.0
H839 H 0.45817 0.11359 0.06761 0.0
H840 H 0.45339 0.11719 1.01179 0.0
O841 O 0.36347 0.60527 0.98149 0.0
Tb842 Tb 0.35252 0.64635 0.9748 0.0
Eu843 Eu 0.33114 0.67846 0.98534 0.0
C844 C 0.36291 0.58957 0.99728 0.0
O845 O 0.35686 0.60459 1.00846 0.0
C846 C 0.33601 0.59255 0.96668 0.0
O847 O 0.3242 0.72855 0.97089 0.0
C848 C 0.32217 0.6679 1.01534 0.0
C849 C 0.32165 0.72662 0.95427 0.0
O850 O 0.32169 0.69243 0.94623 0.0
C851 C 0.3511 0.72897 0.99067 0.0
C852 C 0.31697 0.68432 1.03123 0.0
C853 C 0.31995 0.67659 0.04888 0.0
C854 C 0.3142 0.68643 0.06359 0.0
C855 C 0.30552 0.70459 0.06037 0.0
C856 C 0.30236 0.71288 0.04321 0.0
C857 C 0.30814 0.70271 1.02881 0.0
O858 O 0.34353 0.59474 0.97652 0.0
O859 O 0.33051 0.62416 0.96603 0.0
O860 O 0.35879 0.65738 0.94908 0.0
O861 O 0.34453 0.67353 0.95359 0.0
C862 C 0.35129 0.6729 0.9421 0.0
O863 O 0.34213 0.72921 0.98606 0.0
O864 O 0.35549 0.69517 0.99242 0.0
O865 O 0.31816 0.67158 0.99979 0.0
O866 O 0.3314 0.66819 1.01432 0.0
H867 H 0.3265 0.66141 0.05113 0.0
H868 H 0.30104 0.71142 0.07148 0.0
H869 H 0.30564 0.70853 1.01559 0.0
O870 O 0.41227 0.62285 0.80237 0.0
Tb871 Tb 0.40215 0.63411 0.82296 0.0
Eu872 Eu 0.42363 0.67193 0.82527 0.0
C873 C 0.41503 0.58739 0.79767 0.0
O874 O 0.42189 0.58381 0.7863 0.0
C875 C 0.41616 0.5894 0.84809 0.0
O876 O 0.42882 0.71626 0.84522 0.0
C877 C 0.43539 0.66825 0.79836 0.0
C878 C 0.42341 0.72515 0.85868 0.0
O879 O 0.41572 0.70466 0.8611 0.0
C880 C 0.40413 0.7248 0.82781 0.0
C881 C 0.44145 0.68436 0.78356 0.0
C882 C 0.43899 0.67801 0.76553 0.0
C883 C 0.44524 0.68773 0.7516 0.0
C884 C 0.45389 0.70493 0.756 0.0
C885 C 0.45656 0.71202 0.77359 0.0
C886 C 0.45031 0.7013 0.78726 0.0
O887 O 0.40738 0.59523 0.84339 0.0
O888 O 0.42306 0.61296 0.84218 0.0
O889 O 0.39035 0.63922 0.80477 0.0
O890 O 0.38942 0.59954 0.82618 0.0
C891 C 0.38494 0.61419 0.81277 0.0
O892 O 0.41271 0.72208 0.82115 0.0
O893 O 0.39994 0.69295 0.83369 0.0
O894 O 0.43798 0.67243 0.81492 0.0
O895 O 0.42627 0.66645 0.79663 0.0
H896 H 0.43241 0.66388 0.76238 0.0
H897 H 0.45872 0.71223 0.74548 0.0
H898 H 0.4524 0.70585 0.80083 0.0
O899 O 0.36501 0.21635 0.84918 0.0
Tb900 Tb 0.35243 0.18452 0.85622 0.0
Eu901 Eu 0.33112 0.15342 0.83162 0.0
C902 C 0.36627 0.23095 0.83334 0.0
O903 O 0.36037 0.22172 0.82072 0.0
C904 C 0.33607 0.23869 0.85022 0.0
O905 O 0.32505 0.10372 0.84774 0.0
C906 C 0.32101 0.16093 0.80266 0.0
C907 C 0.32858 0.09493 0.86327 0.0
O908 O 0.33509 0.11774 0.86994 0.0
C909 C 0.351 0.09937 0.8366 0.0
C910 C 0.31589 0.14362 0.78686 0.0
C911 C 0.31898 0.15005 0.76918 0.0
C912 C 0.31358 0.13684 0.75452 0.0
C913 C 0.30499 0.11807 0.7578 0.0
C914 C 0.30156 0.11237 0.77499 0.0
C915 C 0.30711 0.12494 0.78936 0.0
O916 O 0.34439 0.23124 0.84381 0.0
O917 O 0.32986 0.20964 0.84949 0.0
O918 O 0.3589 0.18875 0.88202 0.0
O919 O 0.34423 0.19467 0.88027 0.0
C920 C 0.35135 0.19612 0.89098 0.0
O921 O 0.34318 0.10794 0.82769 0.0
O922 O 0.35468 0.12316 0.84853 0.0
O923 O 0.31762 0.15376 0.81845 0.0
O924 O 0.33018 0.16544 0.80284 0.0
H925 H 0.32549 0.16546 0.76682 0.0
H926 H 0.30071 0.10935 0.74667 0.0
H927 H 0.30446 0.12066 0.80259 0.0
H928 H 0.06408 0.32453 0.84254 0.0
H929 H 0.06619 0.33492 0.87426 0.0
H930 H 0.07094 0.45828 0.865 0.0
H931 H 0.06884 0.44789 0.83308 0.0
H932 H 0.081 0.36628 0.89548 0.0
H933 H 0.04907 0.45831 0.90071 0.0
H934 H 0.05151 0.42839 0.88161 0.0
H935 H 0.05751 0.47427 0.88469 0.0
C936 C 0.06571 0.35387 0.84718 0.0
C937 C 0.06629 0.38532 0.83504 0.0
C938 C 0.06691 0.3598 0.86544 0.0
C939 C 0.06858 0.39754 0.87237 0.0
C940 C 0.06951 0.42887 0.86024 0.0
H941 H 0.06734 0.49079 0.98079 0.0
H942 H 0.06879 0.48126 0.94895 0.0
C943 C 0.06842 0.42284 0.84186 0.0
C944 C 0.06904 0.40389 0.89218 0.0
H945 H 0.05786 0.44955 0.92662 0.0
C946 C 0.07594 0.38459 0.90226 0.0
C947 C 0.06248 0.42765 0.90133 0.0
C948 C 0.05466 0.44816 0.89163 0.0
C949 C 0.07657 0.38896 0.92086 0.0
C950 C 0.06992 0.41236 0.93008 0.0
C951 C 0.06302 0.43161 0.91992 0.0
C952 C 0.06996 0.41783 0.95005 0.0
C953 C 0.08459 0.36929 0.93029 0.0
C954 C 0.07029 0.38571 0.96193 0.0
C955 C 0.06966 0.39133 0.98041 0.0
C956 C 0.0685 0.42919 0.98765 0.0
C957 C 0.06833 0.46122 0.97581 0.0
C958 C 0.06908 0.45569 0.95745 0.0
H959 H 0.09058 0.36408 0.92127 0.0
H960 H 0.08707 0.38721 0.94159 0.0
H961 H 0.08225 0.34025 0.93531 0.0
H962 H 0.07067 0.35597 0.95693 0.0
H963 H 0.06957 0.36583 0.98896 0.0
H964 H 0.20856 0.91277 0.97836 0.0
H965 H 0.20643 0.92046 0.94669 0.0
H966 H 0.17738 0.88923 0.95192 0.0
H967 H 0.17951 0.88066 0.98393 0.0
H968 H 0.20131 0.86507 0.9219 0.0
H969 H 0.17586 0.98826 0.92113 0.0
H970 H 0.18244 0.97521 0.94059 0.0
H971 H 0.1725 0.94633 0.9341 0.0
C972 C 0.20168 0.90727 0.97292 0.0
C973 C 0.19425 0.89543 0.98402 0.0
C974 C 0.20047 0.9119 0.95462 0.0
C975 C 0.19175 0.90554 0.94656 0.0
C976 C 0.18419 0.89488 0.9576 0.0
H977 H 0.18802 0.87519 0.82953 0.0
H978 H 0.18649 0.86443 0.86152 0.0
C979 C 0.18542 0.89001 0.97604 0.0
C980 C 0.1908 0.90903 0.92667 0.0
H981 H 0.18001 0.96114 0.89355 0.0
C982 C 0.19658 0.88591 0.91576 0.0
C983 C 0.18474 0.93644 0.91836 0.0
C984 C 0.17857 0.96329 0.92908 0.0
C985 C 0.19651 0.88944 0.89713 0.0
C986 C 0.19043 0.91674 0.8888 0.0
C987 C 0.18462 0.93985 0.89969 0.0
C988 C 0.19048 0.92357 0.869 0.0
C989 C 0.20324 0.86477 0.88655 0.0
C990 C 0.19285 0.96072 0.86214 0.0
C991 C 0.19369 0.96691 0.84384 0.0
C992 C 0.19209 0.93633 0.83159 0.0
C993 C 0.18927 0.89958 0.8384 0.0
C994 C 0.1885 0.89327 0.8568 0.0
H995 H 0.20881 0.85176 0.89493 0.0
H996 H 0.19936 0.84034 0.88019 0.0
H997 H 0.20658 0.88256 0.87601 0.0
H998 H 0.19437 0.98484 0.87101 0.0
H999 H 0.19581 0.99573 0.83925 0.0
H1000 H 0.07918 0.95328 0.48641 0.0
H1001 H 0.0813 0.94628 0.45428 0.0
H1002 H 0.05551 0.88128 0.45106 0.0
H1003 H 0.05339 0.8882 0.48293 0.0
H1004 H 0.06938 0.8486 0.42951 0.0
H1005 H 0.06647 1.00912 0.41723 0.0
H1006 H 0.07542 0.99455 0.43255 0.0
H1007 H 0.06333 0.98715 0.43807 0.0
C1008 C 0.07406 0.93684 0.4789 0.0
C1009 C 0.06612 0.92125 0.48742 0.0
C1010 C 0.07521 0.93325 0.4604 0.0
C1011 C 0.06849 0.91376 0.4499 0.0
C1012 C 0.06081 0.89664 0.45859 0.0
H1013 H 0.05292 0.9268 0.33924 0.0
H1014 H 0.05509 0.93381 0.37109 0.0
C1015 C 0.05961 0.90055 0.47694 0.0
C1016 C 0.0692 0.91183 0.42993 0.0
H1017 H 0.06877 0.96864 0.39242 0.0
C1018 C 0.06935 0.87494 0.42145 0.0
C1019 C 0.06902 0.94596 0.41912 0.0
C1020 C 0.06848 0.9865 0.4271 0.0
C1021 C 0.06931 0.87129 0.40281 0.0
C1022 C 0.06914 0.90542 0.392 0.0
C1023 C 0.06901 0.94231 0.40048 0.0
C1024 C 0.06836 0.90339 0.37205 0.0
C1025 C 0.06908 0.8307 0.39483 0.0
C1026 C 0.0752 0.88501 0.36143 0.0
C1027 C 0.07401 0.88136 0.34294 0.0
C1028 C 0.06591 0.89573 0.33454 0.0
C1029 C 0.05926 0.91531 0.34514 0.0
C1030 C 0.06049 0.91931 0.36348 0.0
H1031 H 0.06733 0.80777 0.40473 0.0
H1032 H 0.06389 0.82925 0.38395 0.0
H1033 H 0.07606 0.82374 0.38926 0.0
H1034 H 0.08144 0.87295 0.36746 0.0
H1035 H 0.07925 0.86583 0.33535 0.0
H1036 H 0.17868 0.3696 0.48277 0.0
H1037 H 0.177 0.37723 0.45056 0.0
H1038 H 0.20335 0.43849 0.44861 0.0
H1039 H 0.20503 0.43087 0.48054 0.0
H1040 H 0.18953 0.47381 0.42683 0.0
H1041 H 0.19214 0.31346 0.41373 0.0
H1042 H 0.18324 0.32833 0.42909 0.0
H1043 H 0.19534 0.33475 0.43468 0.0
C1044 C 0.18403 0.38526 0.47552 0.0
C1045 C 0.192 0.39956 0.48441 0.0
C1046 C 0.18313 0.38925 0.45699 0.0
C1047 C 0.19012 0.40798 0.44683 0.0
C1048 C 0.19785 0.42375 0.45588 0.0
H1049 H 0.20685 0.39993 0.33671 0.0
H1050 H 0.2045 0.39225 0.36849 0.0
C1051 C 0.1988 0.41937 0.47426 0.0
C1052 C 0.18962 0.41056 0.42688 0.0
H1053 H 0.19034 0.35491 0.38907 0.0
C1054 C 0.1896 0.44772 0.41862 0.0
C1055 C 0.18985 0.37676 0.41589 0.0
C1056 C 0.19021 0.33599 0.42369 0.0
C1057 C 0.18981 0.45193 0.40001 0.0
C1058 C 0.19005 0.41813 0.38903 0.0
C1059 C 0.19006 0.38097 0.39728 0.0
C1060 C 0.19101 0.42083 0.36913 0.0
C1061 C 0.19012 0.49273 0.39223 0.0
C1062 C 0.18411 0.43852 0.35839 0.0
C1063 C 0.1854 0.44257 0.33996 0.0
C1064 C 0.19367 0.42944 0.33173 0.0
C1065 C 0.2004 0.41067 0.34247 0.0
C1066 C 0.19907 0.40621 0.36076 0.0
H1067 H 0.19162 0.51548 0.40235 0.0
H1068 H 0.19552 0.49455 0.38175 0.0
H1069 H 0.18325 0.49956 0.38615 0.0
H1070 H 0.17775 0.44964 0.3643 0.0
H1071 H 0.18008 0.45734 0.33225 0.0
H1072 H 0.9313 0.60945 0.08435 0.0
H1073 H 0.92911 0.61766 0.11643 0.0
H1074 H 0.95465 0.68452 0.11915 0.0
H1075 H 0.95684 0.6763 0.08738 0.0
H1076 H 0.94103 0.59247 0.14413 0.0
H1077 H 0.93682 0.75403 0.14754 0.0
H1078 H 0.9356 0.72697 0.12719 0.0
H1079 H 0.94703 0.73898 0.13552 0.0
C1080 C 0.93632 0.62671 0.09172 0.0
C1081 C 0.9442 0.64256 0.08308 0.0
C1082 C 0.93512 0.63112 0.11017 0.0
C1083 C 0.94165 0.65213 0.1205 0.0
C1084 C 0.94938 0.66877 0.11173 0.0
H1085 H 0.95664 0.64059 0.23178 0.0
H1086 H 0.95476 0.63235 0.19995 0.0
C1087 C 0.95064 0.66399 0.09343 0.0
C1088 C 0.94075 0.65518 0.14042 0.0
H1089 H 0.94016 0.72129 0.17472 0.0
C1090 C 0.94075 0.62071 0.15074 0.0
C1091 C 0.9403 0.69183 0.1494 0.0
C1092 C 0.93985 0.73008 0.13937 0.0
C1093 C 0.94067 0.6219 0.16945 0.0
C1094 C 0.94062 0.65859 0.17843 0.0
C1095 C 0.94026 0.69303 0.1681 0.0
C1096 C 0.94138 0.6618 0.19836 0.0
C1097 C 0.94062 0.5836 0.17947 0.0
C1098 C 0.93452 0.68122 0.20858 0.0
C1099 C 0.93556 0.68568 0.22707 0.0
C1100 C 0.94357 0.67152 0.23586 0.0
C1101 C 0.95033 0.65169 0.22561 0.0
C1102 C 0.94925 0.64685 0.20728 0.0
H1103 H 0.93795 0.55903 0.17123 0.0
H1104 H 0.94788 0.57626 0.18348 0.0
H1105 H 0.93627 0.58578 0.19155 0.0
H1106 H 0.92839 0.69333 0.20221 0.0
H1107 H 0.93027 0.70163 0.23436 0.0
H1108 H 0.81874 0.20333 0.23786 0.0
H1109 H 0.81994 0.21327 0.20576 0.0
H1110 H 0.81752 0.0882 0.19779 0.0
H1111 H 0.81595 0.07856 0.2296 0.0
H1112 H 0.83093 0.19334 0.1793 0.0
H1113 H 0.79709 0.12091 0.16605 0.0
H1114 H 0.80097 0.13165 0.18812 0.0
H1115 H 0.80504 0.08817 0.17689 0.0
C1116 C 0.8186 0.17792 0.22927 0.0
C1117 C 0.81722 0.14011 0.23646 0.0
C1118 C 0.81923 0.18361 0.2108 0.0
C1119 C 0.81851 0.15169 0.19893 0.0
C1120 C 0.81772 0.11374 0.20628 0.0
H1121 H 0.81868 0.12677 0.08227 0.0
H1122 H 0.82043 0.11562 0.11424 0.0
C1123 C 0.81696 0.10814 0.22463 0.0
C1124 C 0.81847 0.15785 0.17904 0.0
H1125 H 0.80657 0.13447 0.14101 0.0
C1126 C 0.82556 0.18053 0.17103 0.0
C1127 C 0.81147 0.14156 0.16783 0.0
C1128 C 0.80316 0.1196 0.17517 0.0
C1129 C 0.82593 0.18657 0.15251 0.0
C1130 C 0.81903 0.16971 0.14137 0.0
C1131 C 0.81196 0.14707 0.14933 0.0
C1132 C 0.81875 0.17669 0.12162 0.0
C1133 C 0.83383 0.21058 0.14496 0.0
C1134 C 0.81729 0.21468 0.11478 0.0
C1135 C 0.81624 0.22101 0.09652 0.0
C1136 C 0.81669 0.18967 0.08434 0.0
C1137 C 0.81845 0.15175 0.09111 0.0
C1138 C 0.81937 0.14532 0.10948 0.0
H1139 H 0.83976 0.21324 0.15436 0.0
H1140 H 0.83644 0.19737 0.13251 0.0
H1141 H 0.83126 0.24063 0.14194 0.0
H1142 H 0.81662 0.23948 0.12364 0.0
H1143 H 0.8148 0.25057 0.09191 0.0
H1144 H 0.95641 0.13252 0.72996 0.0
H1145 H 0.95428 0.12813 0.69812 0.0
H1146 H 0.92709 0.18136 0.70289 0.0
H1147 H 0.92927 0.18672 0.73511 0.0
H1148 H 0.92818 0.11453 0.67772 0.0
H1149 H 0.95576 0.2253 0.66478 0.0
H1150 H 0.95929 0.18601 0.67916 0.0
H1151 H 0.95033 0.21966 0.68612 0.0
C1152 C 0.94994 0.14342 0.72437 0.0
C1153 C 0.94309 0.16065 0.73539 0.0
C1154 C 0.94874 0.14089 0.70599 0.0
C1155 C 0.94061 0.15516 0.69776 0.0
C1156 C 0.93349 0.17038 0.70873 0.0
H1157 H 0.93924 0.1955 0.58146 0.0
H1158 H 0.93734 0.20393 0.61356 0.0
C1159 C 0.93471 0.1732 0.72726 0.0
C1160 C 0.93979 0.15469 0.6778 0.0
H1161 H 0.95043 0.18851 0.64008 0.0
C1162 C 0.933 0.131 0.66954 0.0
C1163 C 0.94598 0.17632 0.66682 0.0
C1164 C 0.95321 0.20356 0.6746 0.0
C1165 C 0.93248 0.12734 0.6509 0.0
C1166 C 0.93893 0.14774 0.63994 0.0
C1167 C 0.94549 0.17254 0.64822 0.0
C1168 C 0.93929 0.14246 0.62005 0.0
C1169 C 0.92496 0.10161 0.64311 0.0
C1170 C 0.94095 0.10518 0.6126 0.0
C1171 C 0.94206 0.1004 0.59426 0.0
C1172 C 0.9415 0.13263 0.58255 0.0
C1173 C 0.93956 0.16984 0.5899 0.0
C1174 C 0.93855 0.17471 0.60836 0.0
H1175 H 0.91901 0.09775 0.65237 0.0
H1176 H 0.92227 0.1141 0.63057 0.0
H1177 H 0.92792 0.0721 0.64031 0.0
H1178 H 0.94175 0.07974 0.62105 0.0
H1179 H 0.94364 0.07134 0.58923 0.0
H1180 H 0.82973 0.62111 0.73648 0.0
H1181 H 0.83174 0.62752 0.70427 0.0
H1182 H 0.80596 0.69272 0.70117 0.0
H1183 H 0.80396 0.6864 0.73305 0.0
H1184 H 0.81977 0.60013 0.67709 0.0
H1185 H 0.82345 0.76164 0.67182 0.0
H1186 H 0.82483 0.73575 0.69244 0.0
H1187 H 0.81334 0.74684 0.68418 0.0
C1188 C 0.82461 0.63756 0.72898 0.0
C1189 C 0.81672 0.65346 0.73754 0.0
C1190 C 0.82571 0.64095 0.71047 0.0
C1191 C 0.81906 0.66099 0.70002 0.0
C1192 C 0.81132 0.67769 0.70869 0.0
H1193 H 0.80311 0.6428 0.58964 0.0
H1194 H 0.80545 0.63573 0.62143 0.0
C1195 C 0.81017 0.67394 0.72705 0.0
C1196 C 0.81985 0.66303 0.68008 0.0
H1197 H 0.81991 0.72737 0.6451 0.0
C1198 C 0.8199 0.62802 0.67016 0.0
C1199 C 0.82011 0.69924 0.67072 0.0
C1200 C 0.82052 0.73803 0.68031 0.0
C1201 C 0.81982 0.62825 0.65146 0.0
C1202 C 0.81964 0.66447 0.6421 0.0
C1203 C 0.81997 0.69946 0.65202 0.0
C1204 C 0.81866 0.66665 0.6222 0.0
C1205 C 0.81994 0.58943 0.64186 0.0
C1206 C 0.82527 0.68644 0.61156 0.0
C1207 C 0.82397 0.69023 0.59311 0.0
C1208 C 0.81593 0.67494 0.5848 0.0
C1209 C 0.80943 0.65465 0.59545 0.0
C1210 C 0.81077 0.65051 0.61375 0.0
H1211 H 0.82286 0.56559 0.65023 0.0
H1212 H 0.81268 0.5812 0.6383 0.0
H1213 H 0.82412 0.59136 0.62955 0.0
H1214 H 0.8314 0.69946 0.61757 0.0
H1215 H 0.82905 0.70661 0.58549 0.0
H1216 H 0.55231 0.424 0.33943 0.0
H1217 H 0.55433 0.43167 0.37124 0.0
H1218 H 0.58128 0.37564 0.368 0.0
H1219 H 0.57927 0.36786 0.33586 0.0
H1220 H 0.56987 0.34525 0.39589 0.0
H1221 H 0.57083 0.50776 0.3994 0.0
H1222 H 0.56099 0.48902 0.38734 0.0
H1223 H 0.57263 0.48127 0.37906 0.0
C1224 C 0.55875 0.41367 0.34538 0.0
C1225 C 0.56563 0.39537 0.33484 0.0
C1226 C 0.55991 0.41827 0.3637 0.0
C1227 C 0.568 0.40462 0.37233 0.0
C1228 C 0.57497 0.38669 0.36185 0.0
H1229 H 0.57865 0.45861 0.48592 0.0
H1230 H 0.58065 0.45031 0.45381 0.0
C1231 C 0.57385 0.3825 0.34337 0.0
C1232 C 0.56891 0.40786 0.39223 0.0
H1233 H 0.5683 0.47385 0.42656 0.0
C1234 C 0.56961 0.37347 0.40252 0.0
C1235 C 0.56866 0.44451 0.40123 0.0
C1236 C 0.56833 0.4828 0.39122 0.0
C1237 C 0.56972 0.37464 0.42123 0.0
C1238 C 0.56908 0.4112 0.43023 0.0
C1239 C 0.56873 0.44567 0.41993 0.0
C1240 C 0.56834 0.41415 0.45018 0.0
C1241 C 0.57055 0.33646 0.43123 0.0
C1242 C 0.56082 0.39655 0.45921 0.0
C1243 C 0.55968 0.40137 0.47753 0.0
C1244 C 0.56604 0.42373 0.48764 0.0
C1245 C 0.57372 0.44054 0.47874 0.0
C1246 C 0.57481 0.43609 0.46027 0.0
H1247 H 0.57366 0.31291 0.42295 0.0
H1248 H 0.57488 0.34011 0.44326 0.0
H1249 H 0.56347 0.32665 0.43531 0.0
H1250 H 0.5556 0.38009 0.45197 0.0
H1251 H 0.5536 0.38846 0.48379 0.0
H1252 H 0.6952 0.831 0.47818 0.0
H1253 H 0.69345 0.84078 0.44634 0.0
H1254 H 0.68714 0.96306 0.45506 0.0
H1255 H 0.68886 0.9533 0.4871 0.0
H1256 H 0.67842 0.86998 0.42436 0.0
H1257 H 0.70972 0.96622 0.42057 0.0
H1258 H 0.70731 0.9356 0.43948 0.0
H1259 H 0.70095 0.98057 0.43629 0.0
C1260 C 0.69331 0.85994 0.47339 0.0
C1261 C 0.69218 0.89132 0.48542 0.0
C1262 C 0.69232 0.86552 0.45507 0.0
C1263 C 0.6903 0.90283 0.44798 0.0
C1264 C 0.68883 0.93401 0.45997 0.0
H1265 H 0.69266 0.99492 0.33937 0.0
H1266 H 0.69069 0.98588 0.37117 0.0
C1267 C 0.6897 0.92831 0.4784 0.0
C1268 C 0.69007 0.90901 0.42816 0.0
H1269 H 0.70143 0.95577 0.39423 0.0
C1270 C 0.68345 0.88885 0.4178 0.0
C1271 C 0.6966 0.93352 0.41932 0.0
C1272 C 0.70411 0.95506 0.42939 0.0
C1273 C 0.68305 0.89305 0.39918 0.0
C1274 C 0.68967 0.91715 0.39025 0.0
C1275 C 0.69629 0.93729 0.40071 0.0
C1276 C 0.68991 0.92231 0.37028 0.0
C1277 C 0.67529 0.87242 0.3894 0.0
C1278 C 0.68997 0.88995 0.35856 0.0
C1279 C 0.69088 0.89527 0.34011 0.0
C1280 C 0.69194 0.93309 0.33277 0.0
C1281 C 0.69173 0.96538 0.34443 0.0
C1282 C 0.69069 0.96013 0.36277 0.0
H1283 H 0.66919 0.86677 0.39811 0.0
H1284 H 0.67288 0.88989 0.37789 0.0
H1285 H 0.67786 0.84354 0.38463 0.0
H1286 H 0.68969 0.86027 0.36367 0.0
H1287 H 0.69128 0.86962 0.33169 0.0
H1288 H 0.56843 0.87228 0.9879 0.0
H1289 H 0.57001 0.86146 0.95589 0.0
H1290 H 0.56776 0.98622 0.947 0.0
H1291 H 0.56613 0.99696 0.97877 0.0
H1292 H 0.55654 0.88249 0.92947 0.0
H1293 H 0.59019 0.95706 0.91564 0.0
H1294 H 0.5868 0.94215 0.93758 0.0
H1295 H 0.58198 0.98602 0.92798 0.0
C1296 C 0.56854 0.89748 0.97917 0.0
C1297 C 0.56729 0.93558 0.9861 0.0
C1298 C 0.56936 0.89126 0.96077 0.0
C1299 C 0.56911 0.92299 0.94874 0.0
C1300 C 0.56816 0.9611 0.95575 0.0
H1301 H 0.56833 0.95189 0.83253 0.0
H1302 H 0.56982 0.96115 0.86464 0.0
C1303 C 0.56722 0.96725 0.97404 0.0
C1304 C 0.56922 0.91637 0.92894 0.0
H1305 H 0.58099 0.93948 0.89079 0.0
C1306 C 0.56195 0.89467 0.92107 0.0
C1307 C 0.57615 0.93266 0.91768 0.0
C1308 C 0.58428 0.95552 0.9251 0.0
C1309 C 0.5613 0.88958 0.90256 0.0
C1310 C 0.56831 0.90536 0.89123 0.0
C1311 C 0.57559 0.92708 0.89915 0.0
C1312 C 0.56817 0.89958 0.87132 0.0
C1313 C 0.55282 0.8686 0.89535 0.0
C1314 C 0.56715 0.86184 0.86387 0.0
C1315 C 0.56624 0.85662 0.84553 0.0
C1316 C 0.56654 0.88878 0.83378 0.0
C1317 C 0.56814 0.92634 0.84105 0.0
C1318 C 0.56894 0.93165 0.85953 0.0
H1319 H 0.54683 0.87027 0.90463 0.0
H1320 H 0.5506 0.88118 0.88251 0.0
H1321 H 0.55452 0.83704 0.89344 0.0
H1322 H 0.5669 0.83616 0.87229 0.0
H1323 H 0.56507 0.82721 0.84051 0.0
H1324 H 0.7059 0.39555 0.83776 0.0
H1325 H 0.70359 0.3874 0.86949 0.0
H1326 H 0.67814 0.45477 0.86642 0.0
H1327 H 0.68046 0.46302 0.83437 0.0
H1328 H 0.68974 0.47965 0.89428 0.0
H1329 H 0.68583 0.31806 0.89773 0.0
H1330 H 0.69612 0.33308 0.88599 0.0
H1331 H 0.68476 0.34497 0.8773 0.0
C1332 C 0.69969 0.40801 0.84372 0.0
C1333 C 0.69332 0.42962 0.83327 0.0
C1334 C 0.69836 0.40324 0.862 0.0
C1335 C 0.69062 0.42002 0.87067 0.0
C1336 C 0.68415 0.4412 0.86025 0.0
H1337 H 0.67943 0.36838 0.98446 0.0
H1338 H 0.67748 0.37695 0.95234 0.0
C1339 C 0.68543 0.44563 0.84181 0.0
C1340 C 0.68965 0.41693 0.89059 0.0
H1341 H 0.68918 0.35081 0.92492 0.0
C1342 C 0.68953 0.4514 0.9009 0.0
C1343 C 0.68927 0.38027 0.89959 0.0
C1344 C 0.68891 0.34197 0.8896 0.0
C1345 C 0.68941 0.45021 0.91961 0.0
C1346 C 0.68946 0.41352 0.92861 0.0
C1347 C 0.68921 0.37907 0.9183 0.0
C1348 C 0.69022 0.41032 0.94856 0.0
C1349 C 0.6892 0.48854 0.92958 0.0
C1350 C 0.69796 0.42623 0.95753 0.0
C1351 C 0.69908 0.42128 0.97585 0.0
C1352 C 0.69248 0.40036 0.98605 0.0
C1353 C 0.68458 0.38524 0.97721 0.0
C1354 C 0.68351 0.38985 0.95874 0.0
H1355 H 0.68635 0.51279 0.92136 0.0
H1356 H 0.68491 0.48602 0.94174 0.0
H1357 H 0.69643 0.4966 0.93345 0.0
H1358 H 0.70337 0.4415 0.95024 0.0
H1359 H 0.70531 0.43304 0.98205 0.0
H1360 H 0.43008 0.61604 0.58132 0.0
H1361 H 0.4281 0.62418 0.61344 0.0
H1362 H 0.45309 0.69483 0.61524 0.0
H1363 H 0.45506 0.68663 0.5834 0.0
H1364 H 0.44053 0.60074 0.6406 0.0
H1365 H 0.43498 0.76155 0.64437 0.0
H1366 H 0.43376 0.7344 0.62404 0.0
H1367 H 0.44516 0.74808 0.63193 0.0
C1368 C 0.435 0.63416 0.5885 0.0
C1369 C 0.44265 0.65114 0.57959 0.0
C1370 C 0.43393 0.63852 0.60697 0.0
C1371 C 0.44038 0.66055 0.61705 0.0
C1372 C 0.44788 0.67831 0.60801 0.0
H1373 H 0.45659 0.65058 0.72768 0.0
H1374 H 0.45454 0.64297 0.69587 0.0
C1375 C 0.449 0.67358 0.58968 0.0
C1376 C 0.43967 0.66339 0.63699 0.0
H1377 H 0.43886 0.72919 0.67138 0.0
C1378 C 0.44007 0.62889 0.64725 0.0
C1379 C 0.439 0.69991 0.64602 0.0
C1380 C 0.43811 0.73811 0.63606 0.0
C1381 C 0.44018 0.62997 0.66595 0.0
C1382 C 0.4399 0.66659 0.67497 0.0
C1383 C 0.43914 0.70101 0.66472 0.0
C1384 C 0.44084 0.66977 0.69487 0.0
C1385 C 0.44057 0.59165 0.67593 0.0
C1386 C 0.43386 0.68754 0.70538 0.0
C1387 C 0.435 0.69171 0.72385 0.0
C1388 C 0.44325 0.67897 0.73233 0.0
C1389 C 0.45014 0.66082 0.72176 0.0
C1390 C 0.44895 0.65625 0.70344 0.0
H1391 H 0.43808 0.56667 0.66774 0.0
H1392 H 0.44792 0.58556 0.67976 0.0
H1393 H 0.43629 0.59305 0.68812 0.0
H1394 H 0.42753 0.69847 0.69927 0.0
H1395 H 0.42958 0.70621 0.73139 0.0
H1396 H 0.31698 0.20639 0.73646 0.0
H1397 H 0.31828 0.21554 0.70432 0.0
H1398 H 0.31758 0.08986 0.69716 0.0
H1399 H 0.31594 0.08091 0.729 0.0
H1400 H 0.32975 0.19672 0.67808 0.0
H1401 H 0.29674 0.11741 0.66513 0.0
H1402 H 0.30044 0.12985 0.68713 0.0
H1403 H 0.30505 0.08683 0.6763 0.0
C1404 C 0.31728 0.18071 0.72804 0.0
C1405 C 0.31637 0.14287 0.73546 0.0
C1406 C 0.31795 0.18594 0.70955 0.0
C1407 C 0.31773 0.15351 0.6979 0.0
C1408 C 0.31741 0.11567 0.70548 0.0
H1409 H 0.31758 0.12557 0.58135 0.0
H1410 H 0.3195 0.11523 0.61333 0.0
C1411 C 0.31662 0.1105 0.72385 0.0
C1412 C 0.31766 0.15901 0.67798 0.0
H1413 H 0.30604 0.13247 0.64007 0.0
C1414 C 0.32452 0.18271 0.66986 0.0
C1415 C 0.31086 0.14112 0.66685 0.0
C1416 C 0.3028 0.11774 0.6743 0.0
C1417 C 0.32486 0.18826 0.65132 0.0
C1418 C 0.31814 0.16994 0.64025 0.0
C1419 C 0.3113 0.14624 0.64832 0.0
C1420 C 0.31777 0.17644 0.62046 0.0
C1421 C 0.33256 0.21331 0.64368 0.0
C1422 C 0.31623 0.21423 0.61345 0.0
C1423 C 0.31511 0.2201 0.59518 0.0
C1424 C 0.31553 0.18848 0.58314 0.0
C1425 C 0.31737 0.15077 0.59006 0.0
C1426 C 0.31839 0.1448 0.60845 0.0
H1427 H 0.33853 0.21633 0.65296 0.0
H1428 H 0.33517 0.20077 0.63109 0.0
H1429 H 0.32979 0.24318 0.64094 0.0
H1430 H 0.31555 0.23923 0.62219 0.0
H1431 H 0.31361 0.24952 0.59047 0.0
H1432 H 0.43111 0.20428 0.23098 0.0
H1433 H 0.42861 0.19789 0.19892 0.0
H1434 H 0.45364 0.12801 0.19486 0.0
H1435 H 0.45609 0.13405 0.22661 0.0
H1436 H 0.44004 0.22307 0.17131 0.0
H1437 H 0.43557 0.06205 0.16614 0.0
H1438 H 0.4348 0.08774 0.18691 0.0
H1439 H 0.44603 0.07542 0.17775 0.0
C1440 C 0.43595 0.18676 0.22331 0.0
C1441 C 0.44378 0.16951 0.23158 0.0
C1442 C 0.43457 0.1834 0.20487 0.0
C1443 C 0.44088 0.16207 0.19418 0.0
C1444 C 0.44854 0.14403 0.20257 0.0
H1445 H 0.45542 0.18138 0.08322 0.0
H1446 H 0.45341 0.1884 0.11505 0.0
C1447 C 0.44996 0.14767 0.22086 0.0
C1448 C 0.43981 0.16015 0.17429 0.0
H1449 H 0.43911 0.09603 0.13928 0.0
C1450 C 0.43974 0.19521 0.16438 0.0
C1451 C 0.4393 0.12402 0.16491 0.0
C1452 C 0.43883 0.08517 0.17446 0.0
C1453 C 0.43956 0.19511 0.14568 0.0
C1454 C 0.43953 0.15893 0.13629 0.0
C1455 C 0.43921 0.12391 0.14621 0.0
C1456 C 0.44029 0.15681 0.11635 0.0
C1457 C 0.43938 0.23402 0.13615 0.0
C1458 C 0.43364 0.1366 0.10598 0.0
C1459 C 0.43476 0.13276 0.08749 0.0
C1460 C 0.44265 0.14847 0.07888 0.0
C1461 C 0.44919 0.16923 0.08926 0.0
C1462 C 0.44803 0.17335 0.1076 0.0
H1463 H 0.43648 0.25773 0.14461 0.0
H1464 H 0.44663 0.24239 0.13252 0.0
H1465 H 0.43515 0.23225 0.12389 0.0
H1466 H 0.42761 0.12324 0.11222 0.0
H1467 H 0.42966 0.11599 0.08007 0.0
H1468 H 0.32927 0.71107 0.08392 0.0
H1469 H 0.33135 0.70358 0.11606 0.0
H1470 H 0.30619 0.63413 0.11855 0.0
H1471 H 0.30412 0.64162 0.08671 0.0
H1472 H 0.31926 0.72821 0.14327 0.0
H1473 H 0.32409 0.56713 0.14781 0.0
H1474 H 0.32525 0.59362 0.12729 0.0
H1475 H 0.31386 0.58092 0.13556 0.0
C1476 C 0.32432 0.69334 0.09126 0.0
C1477 C 0.31659 0.67649 0.08253 0.0
C1478 C 0.32546 0.68935 0.10974 0.0
C1479 C 0.31899 0.66786 0.12002 0.0
C1480 C 0.31142 0.65023 0.11117 0.0
H1481 H 0.30323 0.68203 0.23077 0.0
H1482 H 0.30533 0.68946 0.19895 0.0
C1483 C 0.31023 0.65457 0.09283 0.0
C1484 C 0.31979 0.66541 0.13997 0.0
H1485 H 0.32038 0.60036 0.17469 0.0
C1486 C 0.3196 0.70018 0.15007 0.0
C1487 C 0.32031 0.62906 0.14919 0.0
C1488 C 0.32098 0.59055 0.13943 0.0
C1489 C 0.31957 0.69954 0.16878 0.0
C1490 C 0.31967 0.66312 0.17799 0.0
C1491 C 0.32022 0.62841 0.1679 0.0
C1492 C 0.31878 0.66044 0.19791 0.0
C1493 C 0.31943 0.73815 0.17854 0.0
C1494 C 0.32559 0.64154 0.20843 0.0
C1495 C 0.32443 0.63753 0.22691 0.0
C1496 C 0.31632 0.65164 0.23539 0.0
C1497 C 0.3096 0.67098 0.22484 0.0
C1498 C 0.31081 0.67536 0.20652 0.0
H1499 H 0.32212 0.76257 0.17023 0.0
H1500 H 0.31212 0.74529 0.18225 0.0
H1501 H 0.32367 0.73653 0.19078 0.0
H1502 H 0.3318 0.62947 0.2023 0.0
H1503 H 0.32969 0.62195 0.23444 0.0
H1504 H 0.1286 0.31508 0.0621 0.0
H1505 H 0.13869 0.25749 0.05935 0.0
H1506 H 0.13906 0.2445 0.11588 0.0
H1507 H 0.12881 0.30192 0.11878 0.0
H1508 H 0.15647 0.23815 0.07328 0.0
H1509 H 0.12844 0.13905 0.09826 0.0
H1510 H 0.12616 0.18935 0.09199 0.0
H1511 H 0.13185 0.17866 0.11256 0.0
C1512 C 0.13089 0.30031 0.07398 0.0
C1513 C 0.12781 0.31285 0.09065 0.0
C1514 C 0.13668 0.26741 0.07238 0.0
C1515 C 0.13948 0.24635 0.08739 0.0
C1516 C 0.13683 0.25995 0.10412 0.0
H1517 H 0.17769 0.04399 0.07818 0.0
H1518 H 0.17081 0.10669 0.08765 0.0
C1519 C 0.13102 0.29289 0.10574 0.0
C1520 C 0.14471 0.20904 0.08525 0.0
H1521 H 0.14247 0.10938 0.08914 0.0
C1522 C 0.15346 0.20998 0.07688 0.0
C1523 C 0.14073 0.17237 0.08992 0.0
C1524 C 0.13125 0.1695 0.09857 0.0
C1525 C 0.15824 0.17515 0.07263 0.0
C1526 C 0.15416 0.13852 0.07698 0.0
C1527 C 0.14554 0.13759 0.08579 0.0
C1528 C 0.15841 0.10076 0.0715 0.0
C1529 C 0.16743 0.17774 0.06295 0.0
C1530 C 0.15373 0.0767 0.05931 0.0
C1531 C 0.15761 0.04085 0.05408 0.0
C1532 C 0.16608 1.02804 0.06134 0.0
C1533 C 0.17095 0.05277 0.07295 0.0
C1534 C 0.16708 0.08862 0.07824 0.0
H1535 H 0.16873 0.20772 0.05765 0.0
H1536 H 0.1732 0.17031 0.07214 0.0
H1537 H 0.16763 0.15642 0.05187 0.0
H1538 H 0.14711 0.08589 0.05372 0.0
H1539 H 0.15403 1.02323 0.04429 0.0
H1540 H 0.11678 1.02211 0.28093 0.0
H1541 H 0.12489 0.08502 0.28398 0.0
H1542 H 0.13452 0.07647 0.23027 0.0
H1543 H 0.12637 1.01359 0.22701 0.0
H1544 H 0.14401 0.10406 0.27903 0.0
H1545 H 0.12086 0.18401 0.23237 0.0
H1546 H 0.11785 0.13665 0.24155 0.0
H1547 H 0.12603 0.13994 0.22365 0.0
C1548 C 0.12069 1.03338 0.2698 0.0
C1549 C 0.12089 1.01298 0.25369 0.0
C1550 C 0.1253 0.06937 0.27157 0.0
C1551 C 0.13012 0.08568 0.25723 0.0
C1552 C 0.13066 0.06468 0.24136 0.0
H1553 H 0.16265 0.29562 0.24002 0.0
H1554 H 0.1535 0.23499 0.23717 0.0
C1555 C 0.12608 1.02859 0.23959 0.0
C1556 C 0.13459 0.12467 0.25894 0.0
H1557 H 0.13423 0.21831 0.2427 0.0
C1558 C 0.14186 0.12914 0.27117 0.0
C1559 C 0.1317 0.15725 0.24869 0.0
C1560 C 0.12363 0.1545 0.23592 0.0
C1561 C 0.1465 0.16518 0.27313 0.0
C1562 C 0.14367 0.19769 0.26278 0.0
C1563 C 0.13635 0.19331 0.25062 0.0
C1564 C 0.14843 0.23615 0.26405 0.0
C1565 C 0.15456 0.16785 0.28593 0.0
C1566 C 0.14839 0.2573 0.27993 0.0
C1567 C 0.15359 0.29186 0.28151 0.0
C1568 C 0.15872 0.30613 0.2671 0.0
C1569 C 0.15854 0.28564 0.25109 0.0
C1570 C 0.15337 0.25096 0.24953 0.0
H1571 H 0.15723 0.13833 0.28969 0.0
H1572 H 0.16041 0.18519 0.28024 0.0
H1573 H 0.15218 0.18288 0.29811 0.0
H1574 H 0.14449 0.24661 0.2912 0.0
H1575 H 0.15372 0.30721 0.29402 0.0
H1576 H 0.85816 0.06 0.04371 0.0
H1577 H 0.86446 0.99704 0.05385 0.0
H1578 H 0.88248 0.99254 1.00831 0.0
H1579 H 0.87631 0.05536 0.99818 0.0
H1580 H 0.862 0.93049 0.03426 0.0
H1581 H 0.89964 0.95212 0.04691 0.0
H1582 H 0.89145 0.9926 0.04624 0.0
H1583 H 0.89636 0.97326 1.02616 0.0
C1584 C 0.86366 0.04616 0.03612 0.0
C1585 C 0.86668 0.06242 1.02004 0.0
C1586 C 0.86725 1.01019 0.04195 0.0
C1587 C 0.87398 0.9903 1.03191 0.0
C1588 C 0.87743 1.00776 1.01646 0.0
H1589 H 0.88304 0.76919 0.99337 0.0
H1590 H 0.8764 0.83049 1.0043 0.0
C1591 C 0.87383 0.04357 1.0106 0.0
C1592 C 0.87641 0.94896 0.03586 0.0
H1593 H 0.89504 0.88664 0.03692 0.0
C1594 C 0.86921 0.92088 0.03536 0.0
C1595 C 0.88578 0.93645 0.0376 0.0
C1596 C 0.89373 0.9653 0.03945 0.0
C1597 C 0.87122 0.88056 0.03486 0.0
C1598 C 0.88066 0.86825 0.03464 0.0
C1599 C 0.8878 0.89615 0.03685 0.0
C1600 C 0.88334 0.82779 1.02964 0.0
C1601 C 0.86325 0.85162 0.0338 0.0
C1602 C 0.88937 0.8057 0.04034 0.0
C1603 C 0.89322 0.77062 0.03408 0.0
C1604 C 0.89119 0.75745 1.01692 0.0
C1605 C 0.88475 0.77855 1.00663 0.0
C1606 C 0.88088 0.81348 1.01292 0.0
H1607 H 0.85689 0.8634 0.04036 0.0
H1608 H 0.86149 0.84634 1.01975 0.0
H1609 H 0.86513 0.82306 0.03996 0.0
H1610 H 0.89139 0.81643 0.05323 0.0
H1611 H 0.89816 0.75499 0.04233 0.0
H1612 H 0.84741 0.8074 0.82959 0.0
H1613 H 0.85864 0.86187 0.83183 0.0
H1614 H 0.87488 0.81082 0.78969 0.0
H1615 H 0.86324 0.75842 0.78657 0.0
H1616 H 0.87581 0.87428 0.83891 0.0
H1617 H 0.87149 0.9151 0.76898 0.0
H1618 H 0.86437 0.8779 0.7792 0.0
H1619 H 0.87583 0.86591 0.77078 0.0
C1620 C 0.85344 0.80782 0.82094 0.0
C1621 C 0.85454 0.77865 0.80802 0.0
C1622 C 0.85987 0.83895 0.8222 0.0
C1623 C 0.86753 0.84145 0.81057 0.0
C1624 C 0.86886 0.81081 0.79834 0.0
H1625 H 0.9142 1.00734 0.82646 0.0
H1626 H 0.90335 0.95174 0.8286 0.0
C1627 C 0.8623 0.78044 0.79674 0.0
C1628 C 0.87388 0.87659 0.81077 0.0
H1629 H 0.88432 0.94435 0.78393 0.0
C1630 C 0.87759 0.88986 0.82689 0.0
C1631 C 0.8761 0.89786 0.79522 0.0
C1632 C 0.87165 0.88873 0.77763 0.0
C1633 C 0.88347 0.92315 0.82786 0.0
C1634 C 0.88616 0.94286 0.81214 0.0
C1635 C 0.88239 0.92957 0.79607 0.0
C1636 C 0.89271 0.97751 0.81178 0.0
C1637 C 0.88645 0.9372 0.84587 0.0
C1638 C 0.89068 1.01028 0.80104 0.0
C1639 C 0.89708 0.04126 0.79928 0.0
C1640 C 0.90548 0.04123 0.80881 0.0
C1641 C 0.90757 1.00879 0.81956 0.0
C1642 C 0.9013 0.97709 0.82089 0.0
H1643 H 0.88113 0.92962 0.85601 0.0
H1644 H 0.89306 0.9223 0.84963 0.0
H1645 H 0.88757 0.96945 0.84616 0.0
H1646 H 0.88418 1.01176 0.79374 0.0
H1647 H 0.89547 0.06526 0.79038 0.0
H1648 H 0.1466 0.51389 0.55719 0.0
H1649 H 0.14068 0.57569 0.56949 0.0
H1650 H 0.16876 0.60825 0.58433 0.0
H1651 H 0.17455 0.54526 0.57281 0.0
H1652 H 0.15483 0.63097 0.60956 0.0
H1653 H 0.14599 0.67644 0.54137 0.0
H1654 H 0.14061 0.63095 0.54782 0.0
H1655 H 0.15314 0.63401 0.54612 0.0
C1656 C 0.15138 0.53331 0.56395 0.0
C1657 C 0.16091 0.52426 0.56476 0.0
C1658 C 0.14806 0.56898 0.57059 0.0
C1659 C 0.1543 0.59669 0.57769 0.0
C1660 C 0.16383 0.58727 0.57894 0.0
H1661 H 0.13763 0.84261 0.58023 0.0
H1662 H 0.1471 0.78315 0.57703 0.0
C1663 C 0.16713 0.55146 0.57232 0.0
C1664 C 0.15097 0.63668 0.58226 0.0
H1665 H 0.14028 0.717 0.56442 0.0
C1666 C 0.15169 0.64995 0.59973 0.0
C1667 C 0.14712 0.66178 0.56928 0.0
C1668 C 0.14675 0.65031 0.55007 0.0
C1669 C 0.14827 0.68713 0.6047 0.0
C1670 C 0.14394 0.71132 0.59186 0.0
C1671 C 0.14356 0.69847 0.57429 0.0
C1672 C 0.13932 0.74924 0.59623 0.0
C1673 C 0.14936 0.70014 0.62359 0.0
C1674 C 0.13192 0.75034 0.60837 0.0
C1675 C 0.12655 0.78442 0.61034 0.0
C1676 C 0.12837 0.81788 0.59997 0.0
C1677 C 0.13602 0.8173 0.58836 0.0
C1678 C 0.14145 0.78333 0.58654 0.0
H1679 H 0.15522 0.68454 0.63017 0.0
H1680 H 0.1506 0.73232 0.62446 0.0
H1681 H 0.14287 0.69311 0.63096 0.0
H1682 H 0.12996 0.72422 0.61566 0.0
H1683 H 0.12067 0.78376 0.61934 0.0
H1684 H 0.12593 0.51726 0.7574 0.0
H1685 H 0.13578 0.57573 0.75695 0.0
H1686 H 0.1352 0.57605 0.70011 0.0
H1687 H 0.12511 0.51772 0.70043 0.0
H1688 H 0.15304 0.59065 0.74224 0.0
H1689 H 0.12558 0.6858 0.71238 0.0
H1690 H 0.12305 0.63721 0.72068 0.0
H1691 H 0.12896 0.64311 0.69996 0.0
C1692 C 0.12794 0.5295 0.74477 0.0
C1693 C 0.12467 0.513 0.72896 0.0
C1694 C 0.13359 0.56294 0.74454 0.0
C1695 C 0.1361 0.58062 0.72851 0.0
C1696 C 0.13319 0.56332 0.71263 0.0
H1697 H 0.17508 0.78065 0.74055 0.0
H1698 H 0.16839 0.71982 0.72852 0.0
C1699 C 0.12748 0.52983 0.71285 0.0
C1700 C 0.14149 0.61785 0.72878 0.0
H1701 H 0.13948 0.71655 0.72131 0.0
C1702 C 0.15015 0.61817 0.73747 0.0
C1703 C 0.13767 0.65364 0.72255 0.0
C1704 C 0.12828 0.65525 0.71347 0.0
C1705 C 0.15487 0.65349 0.74096 0.0
C1706 C 0.15091 0.68945 0.73521 0.0
C1707 C 0.14248 0.68894 0.7257 0.0
C1708 C 0.15481 0.72798 0.74064 0.0
C1709 C 0.16376 0.65205 0.75168 0.0
C1710 C 0.14933 0.75342 0.75093 0.0
C1711 C 0.1531 0.78831 0.75751 0.0
C1712 C 0.16235 0.79863 0.75369 0.0
C1713 C 0.16785 0.77339 0.74339 0.0
C1714 C 0.16406 0.73862 0.73662 0.0
H1715 H 0.16473 0.62312 0.75825 0.0
H1716 H 0.16984 0.65698 0.74285 0.0
H1717 H 0.16379 0.67533 0.76193 0.0
H1718 H 0.14222 0.74559 0.75442 0.0
H1719 H 0.14893 0.80639 0.76622 0.0
H1720 H 0.88963 0.2596 0.43506 0.0
H1721 H 0.88782 0.33098 0.4332 0.0
H1722 H 0.88076 0.33516 0.4884 0.0
H1723 H 0.88259 0.26391 0.49049 0.0
H1724 H 0.87265 0.38541 0.44376 0.0
H1725 H 0.90567 0.40081 0.48108 0.0
H1726 H 0.90141 0.35377 0.47357 0.0
H1727 H 0.89686 0.37514 0.4934 0.0
C1728 C 0.88744 0.27551 0.44671 0.0
C1729 C 0.88641 0.25618 0.46301 0.0
C1730 C 0.88645 0.31629 0.44561 0.0
C1731 C 0.88441 0.33812 0.46076 0.0
C1732 C 0.88253 0.31863 0.47666 0.0
H1733 H 0.87692 0.56226 0.50158 0.0
H1734 H 0.88227 0.49631 0.49446 0.0
C1735 C 0.8835 0.2779 0.47778 0.0
C1736 C 0.88479 0.38139 0.46036 0.0
H1737 H 0.89626 0.45953 0.47835 0.0
C1738 C 0.87787 0.40184 0.45107 0.0
C1739 C 0.89168 0.40236 0.46985 0.0
C1740 C 0.89937 0.38184 0.47989 0.0
C1741 C 0.87724 0.44295 0.45207 0.0
C1742 C 0.88394 0.46396 0.46215 0.0
C1743 C 0.89118 0.44343 0.47057 0.0
C1744 C 0.88274 0.50617 0.46626 0.0
C1745 C 0.86904 0.46304 0.44332 0.0
C1746 C 0.88188 0.53443 0.45288 0.0
C1747 C 0.87867 0.57218 0.45691 0.0
C1748 C 0.87646 0.58221 0.4744 0.0
C1749 C 0.87846 0.55535 0.48795 0.0
C1750 C 0.88152 0.51753 0.48389 0.0
H1751 H 0.86361 0.4417 0.43902 0.0
H1752 H 0.86575 0.48459 0.45239 0.0
H1753 H 0.8715 0.47908 0.43146 0.0
H1754 H 0.88314 0.52664 0.43925 0.0
H1755 H 0.87734 0.59256 0.44622 0.0
H1756 H 0.84991 0.26956 0.33499 0.0
H1757 H 0.86031 0.32547 0.34021 0.0
H1758 H 0.87014 0.31771 0.28659 0.0
H1759 H 0.85981 0.26105 0.28152 0.0
H1760 H 0.88118 0.33588 0.33384 0.0
H1761 H 0.85744 0.42958 0.29348 0.0
H1762 H 0.85379 0.38299 0.3026 0.0
H1763 H 0.86133 0.38423 0.28371 0.0
C1764 C 0.85453 0.27886 0.32458 0.0
C1765 C 0.85425 0.2605 0.30806 0.0
C1766 C 0.86041 0.31097 0.32749 0.0
C1767 C 0.86599 0.32555 0.31378 0.0
C1768 C 0.86588 0.30674 0.29733 0.0
H1769 H 0.90632 0.51737 0.31716 0.0
H1770 H 0.89867 0.45365 0.31311 0.0
C1771 C 0.86 0.27455 0.29445 0.0
C1772 C 0.87122 0.36256 0.31625 0.0
H1773 H 0.87091 0.45975 0.30509 0.0
C1774 C 0.87899 0.36299 0.32752 0.0
C1775 C 0.86822 0.3978 0.30814 0.0
C1776 C 0.8597 0.399 0.29638 0.0
C1777 C 0.88391 0.39801 0.33082 0.0
C1778 C 0.88095 0.43319 0.32255 0.0
C1779 C 0.87316 0.43265 0.31134 0.0
C1780 C 0.88571 0.4712 0.32552 0.0
C1781 C 0.89209 0.39736 0.34339 0.0
C1782 C 0.88088 0.50233 0.33352 0.0
C1783 C 0.8852 0.53883 0.33579 0.0
C1784 C 0.89441 0.54491 0.32992 0.0
C1785 C 0.89921 0.51369 0.32178 0.0
C1786 C 0.89489 0.47714 0.3196 0.0
H1787 H 0.89227 0.36994 0.35136 0.0
H1788 H 0.8987 0.39922 0.33577 0.0
H1789 H 0.89183 0.423 0.35244 0.0
H1790 H 0.87376 0.49833 0.33806 0.0
H1791 H 0.88132 0.56224 0.34213 0.0
H1792 H 0.6106 0.29523 0.53983 0.0
H1793 H 0.61843 0.23306 0.5328 0.0
H1794 H 0.6359 0.24571 0.57872 0.0
H1795 H 0.62814 0.30772 0.58593 0.0
H1796 H 0.63907 0.21509 0.52918 0.0
H1797 H 0.62091 0.1378 0.5839 0.0
H1798 H 0.61684 0.18405 0.575 0.0
H1799 H 0.6266 0.18301 0.58986 0.0
C1800 C 0.6162 0.2851 0.5483 0.0
C1801 C 0.61869 0.30621 0.56355 0.0
C1802 C 0.62064 0.24957 0.54428 0.0
C1803 C 0.62759 0.23463 0.55547 0.0
C1804 C 0.63042 0.25657 0.57015 0.0
H1805 H 0.66206 1.03096 0.56708 0.0
H1806 H 0.65291 0.0916 0.57018 0.0
C1807 C 0.62602 0.29207 0.57417 0.0
C1808 C 0.63169 0.19543 0.55226 0.0
H1809 H 0.63324 0.10322 0.5698 0.0
C1810 C 0.63774 0.19044 0.53792 0.0
C1811 C 0.62988 0.1635 0.5637 0.0
C1812 C 0.62314 0.16706 0.57891 0.0
C1813 C 0.64236 0.15455 0.53511 0.0
C1814 C 0.64072 0.12284 0.5468 0.0
C1815 C 0.63448 0.12764 0.56089 0.0
C1816 C 0.64578 0.0851 0.5452 0.0
C1817 C 0.64923 0.1513 0.52009 0.0
C1818 C 0.64467 0.06121 0.53026 0.0
C1819 C 0.64985 1.02654 0.52859 0.0
C1820 C 0.65603 1.01501 0.54199 0.0
C1821 C 0.65704 0.0386 0.55699 0.0
C1822 C 0.65191 0.07332 0.55864 0.0
H1823 H 0.65115 0.18058 0.51467 0.0
H1824 H 0.65571 0.13608 0.52441 0.0
H1825 H 0.64605 0.13376 0.50931 0.0
H1826 H 0.63988 0.06958 0.51986 0.0
H1827 H 0.64905 1.00879 0.51683 0.0
H1828 H 0.6263 0.36662 0.72819 0.0
H1829 H 0.61795 0.3062 0.73591 0.0
H1830 H 0.63999 0.27608 0.77244 0.0
H1831 H 0.64787 0.3374 0.76584 0.0
H1832 H 0.62328 0.24008 0.72817 0.0
H1833 H 0.61948 0.23338 0.79995 0.0
H1834 H 0.62258 0.27853 0.78893 0.0
H1835 H 0.63149 0.24363 0.79535 0.0
C1836 C 0.62912 0.34782 0.73843 0.0
C1837 C 0.6377 0.35675 0.74645 0.0
C1838 C 0.62438 0.31317 0.74278 0.0
C1839 C 0.62827 0.2864 0.7549 0.0
C1840 C 0.63661 0.29651 0.76354 0.0
H1841 H 0.62654 0.03676 0.73795 0.0
H1842 H 0.63032 0.10688 0.7396 0.0
C1843 C 0.64119 0.33166 0.75962 0.0
C1844 C 0.62454 0.24565 0.75635 0.0
H1845 H 0.62148 0.16963 0.7852 0.0
C1846 C 0.62274 0.22502 0.74068 0.0
C1847 C 0.62357 0.22579 0.77267 0.0
C1848 C 0.62428 0.24678 0.79013 0.0
C1849 C 0.62052 0.18492 0.74075 0.0
C1850 C 0.62054 0.16422 0.75694 0.0
C1851 C 0.62179 0.18516 0.77272 0.0
C1852 C 0.6191 0.12105 0.75771 0.0
C1853 C 0.61813 0.16544 0.72343 0.0
C1854 C 0.61203 0.10525 0.76839 0.0
C1855 C 0.61008 0.06505 0.76791 0.0
C1856 C 0.61508 0.04001 0.75657 0.0
C1857 C 0.62252 0.05545 0.74667 0.0
C1858 C 0.6246 0.09557 0.74745 0.0
H1859 H 0.61534 0.18707 0.71378 0.0
H1860 H 0.62455 0.15245 0.71766 0.0
H1861 H 0.61286 0.14177 0.72519 0.0
H1862 H 0.60776 0.12423 0.77655 0.0
H1863 H 0.60428 0.05408 0.77569 0.0
H1864 H 0.37622 0.05601 0.49866 0.0
H1865 H 0.37806 0.98448 0.4988 0.0
H1866 H 0.35018 0.97171 0.51975 0.0
H1867 H 0.3485 0.04313 0.52055 0.0
H1868 H 0.36078 0.91408 0.53137 0.0
H1869 H 0.36515 0.92678 0.45949 0.0
H1870 H 0.3741 0.95456 0.47035 0.0
H1871 H 0.36199 0.96816 0.47308 0.0
C1872 C 0.37065 0.03792 0.50393 0.0
C1873 C 0.36222 0.05493 0.50946 0.0
C1874 C 0.37163 0.99714 0.50375 0.0
C1875 C 0.36409 0.97291 0.50855 0.0
C1876 C 0.35602 0.98991 0.51574 0.0
H1877 H 0.37475 0.74096 0.4648 0.0
H1878 H 0.36501 0.79831 0.47162 0.0
C1879 C 0.35511 1.03076 0.51631 0.0
C1880 C 0.36442 0.93031 0.50477 0.0
H1881 H 0.37057 0.86603 0.47249 0.0
C1882 C 0.36279 0.9034 0.51844 0.0
C1883 C 0.36644 0.91619 0.48766 0.0
C1884 C 0.36689 0.94297 0.47178 0.0
C1885 C 0.36402 0.86289 0.5158 0.0
C1886 C 0.36742 0.84938 0.49933 0.0
C1887 C 0.36819 0.87609 0.48528 0.0
C1888 C 0.37149 0.80957 0.49698 0.0
C1889 C 0.36171 0.83529 0.53075 0.0
C1890 C 0.37811 0.79583 0.50917 0.0
C1891 C 0.38341 0.76251 0.50554 0.0
C1892 C 0.38247 0.74309 0.48933 0.0
C1893 C 0.37561 0.75563 0.47736 0.0
C1894 C 0.37007 0.78835 0.48127 0.0
H1895 H 0.35543 0.84577 0.53798 0.0
H1896 H 0.36038 0.80488 0.52606 0.0
H1897 H 0.36759 0.83493 0.5403 0.0
H1898 H 0.37968 0.81224 0.52103 0.0
H1899 H 0.38872 0.75376 0.51494 0.0
H1900 H 0.41546 0.04258 0.33014 0.0
H1901 H 0.40595 0.98511 0.33762 0.0
H1902 H 0.3929 0.99068 0.28638 0.0
H1903 H 0.40217 0.04953 0.27934 0.0
H1904 H 0.38022 0.97483 0.31265 0.0
H1905 H 0.41096 0.8762 0.31855 0.0
H1906 H 0.41146 0.91802 0.33293 0.0
H1907 H 0.41177 0.92509 0.30943 0.0
C1908 C 0.41036 1.03224 0.32078 0.0
C1909 C 0.4093 0.05109 0.30448 0.0
C1910 C 0.40506 0.9989 0.32486 0.0
C1911 C 0.3988 0.98319 0.31245 0.0
C1912 C 0.3977 1.00224 0.29615 0.0
H1913 H 0.36187 0.78067 0.30699 0.0
H1914 H 0.37059 0.84124 0.30156 0.0
C1915 C 0.40298 0.03574 0.29213 0.0
C1916 C 0.39354 0.94654 0.31633 0.0
H1917 H 0.3963 0.84949 0.32681 0.0
C1918 C 0.38373 0.94749 0.31584 0.0
C1919 C 0.39813 0.91071 0.32029 0.0
C1920 C 0.40866 0.90721 0.32018 0.0
C1921 C 0.37838 0.91388 0.31963 0.0
C1922 C 0.38298 0.87797 0.32346 0.0
C1923 C 0.39279 0.87703 0.32393 0.0
C1924 C 0.37776 0.84083 0.32669 0.0
C1925 C 0.36786 0.91742 0.31985 0.0
C1926 C 0.37919 0.81938 0.34229 0.0
C1927 C 0.37435 0.78423 0.34529 0.0
C1928 C 0.36797 0.76991 0.33273 0.0
C1929 C 0.36667 0.79109 0.317 0.0
C1930 C 0.37158 0.82597 0.31394 0.0
H1931 H 0.36558 0.94839 0.32156 0.0
H1932 H 0.36501 0.90689 0.30709 0.0
H1933 H 0.36477 0.89939 0.33058 0.0
H1934 H 0.38399 0.83008 0.35225 0.0
H1935 H 0.37549 0.76865 0.35755 0.0
H1936 H 0.63161 0.8564 0.08425 0.0
H1937 H 0.63908 0.79366 0.07722 0.0
H1938 H 0.61568 0.76322 0.04396 0.0
H1939 H 0.6085 0.82648 0.0501 0.0
H1940 H 0.63202 0.72917 0.08789 0.0
H1941 H 0.63579 0.71497 1.01587 0.0
H1942 H 0.63344 0.76165 1.02626 0.0
H1943 H 0.62401 0.72823 1.02122 0.0
C1944 C 0.62828 0.83698 0.07483 0.0
C1945 C 0.61947 0.84623 0.06778 0.0
C1946 C 0.63252 0.80105 0.07089 0.0
C1947 C 0.62795 0.77357 0.06005 0.0
C1948 C 0.61948 0.78411 0.05199 0.0
H1949 H 0.63153 0.52351 0.08141 0.0
H1950 H 0.62641 0.59189 0.07825 0.0
C1951 C 0.61534 0.82039 0.0556 0.0
C1952 C 0.6312 0.73215 0.05952 0.0
H1953 H 0.63465 0.6538 1.03219 0.0
C1954 C 0.63275 0.71294 0.07565 0.0
C1955 C 0.6322 0.71083 0.04362 0.0
C1956 C 0.63137 0.7302 1.02579 0.0
C1957 C 0.63509 0.67299 0.07638 0.0
C1958 C 0.63546 0.65103 0.06054 0.0
C1959 C 0.63415 0.67039 0.04436 0.0
C1960 C 0.63761 0.60836 0.06048 0.0
C1961 C 0.63731 0.65514 0.09413 0.0
C1962 C 0.64513 0.59417 0.05047 0.0
C1963 C 0.64786 0.5549 0.0518 0.0
C1964 C 0.6432 0.52922 0.06336 0.0
C1965 C 0.63531 0.54279 0.07255 0.0
C1966 C 0.63246 0.58194 0.07091 0.0
H1967 H 0.63954 0.67791 0.10377 0.0
H1968 H 0.63095 0.64082 0.09949 0.0
H1969 H 0.64294 0.63275 0.09311 0.0
H1970 H 0.64916 0.61388 0.0422 0.0
H1971 H 0.65397 0.54534 0.04453 0.0
H1972 H 0.58444 0.5475 0.24029 0.0
H1973 H 0.59231 0.61003 0.23339 0.0
H1974 H 0.61454 0.5799 0.26943 0.0
H1975 H 0.60668 0.51749 0.27619 0.0
H1976 H 0.60447 0.65714 0.27414 0.0
H1977 H 0.61811 0.63066 0.20633 0.0
H1978 H 0.60623 0.61693 0.21134 0.0
H1979 H 0.6157 0.59065 0.22136 0.0
C1980 C 0.59114 0.55399 0.2463 0.0
C1981 C 0.59521 0.5274 0.25818 0.0
C1982 C 0.59559 0.58956 0.24242 0.0
C1983 C 0.60405 0.59918 0.25074 0.0
C1984 C 0.60807 0.57266 0.26272 0.0
H1985 H 0.64271 0.78671 0.26475 0.0
H1986 H 0.63212 0.73082 0.26736 0.0
C1987 C 0.60365 0.53704 0.26646 0.0
C1988 C 0.6084 0.63811 0.24812 0.0
H1989 H 0.6216 0.69174 0.21943 0.0
C1990 C 0.60817 0.66491 0.26215 0.0
C1991 C 0.61305 0.64818 0.23235 0.0
C1992 C 0.61337 0.6202 0.21693 0.0
C1993 C 0.6127 0.70137 0.261 0.0
C1994 C 0.61781 0.7107 0.24559 0.0
C1995 C 0.61772 0.68445 0.23127 0.0
C1996 C 0.62379 0.7462 0.24454 0.0
C1997 C 0.61194 0.72951 0.27631 0.0
C1998 C 0.62271 0.77323 0.23071 0.0
C1999 C 0.62886 0.80495 0.22901 0.0
C2000 C 0.63618 0.81029 0.24119 0.0
C2001 C 0.63708 0.78375 0.25528 0.0
C2002 C 0.63101 0.75182 0.25683 0.0
H2003 H 0.60544 0.72436 0.28397 0.0
H2004 H 0.61795 0.72482 0.28533 0.0
H2005 H 0.61203 0.76058 0.27181 0.0
H2006 H 0.61718 0.76943 0.2211 0.0
H2007 H 0.62801 0.82474 0.21793 0.0
H2008 H 0.40091 0.25344 1.01392 0.0
H2009 H 0.3939 0.3173 1.01915 0.0
H2010 H 0.36925 0.28165 0.99042 0.0
H2011 H 0.37659 0.21823 0.98405 0.0
H2012 H 0.37462 0.34521 0.97782 0.0
H2013 H 0.37548 0.3678 0.04948 0.0
H2014 H 0.38701 0.35503 0.04238 0.0
H2015 H 0.37758 0.32014 0.03985 0.0
C2016 C 0.39386 0.25859 1.00924 0.0
C2017 C 0.38929 0.23086 0.99855 0.0
C2018 C 0.38981 0.29525 1.01234 0.0
C2019 C 0.38097 0.30441 1.00538 0.0
C2020 C 0.37608 0.27539 0.99592 0.0
H2021 H 0.35755 0.53768 1.02262 0.0
H2022 H 0.36166 0.46842 1.02474 0.0
C2023 C 0.38024 0.23905 0.99239 0.0
C2024 C 0.37755 0.34569 1.00571 0.0
H2025 H 0.37616 0.42743 1.03165 0.0
C2026 C 0.37483 0.36295 0.98968 0.0
C2027 C 0.37761 0.36895 1.02118 0.0
C2028 C 0.37948 0.35176 0.03919 0.0
C2029 C 0.37255 0.40293 0.98852 0.0
C2030 C 0.37342 0.42689 1.0037 0.0
C2031 C 0.37576 0.40937 1.01989 0.0
C2032 C 0.37158 0.46983 1.00319 0.0
C2033 C 0.36909 0.41869 0.97108 0.0
C2034 C 0.37606 0.49422 0.99083 0.0
C2035 C 0.37358 0.53387 0.98934 0.0
C2036 C 0.36678 0.54999 1.00056 0.0
C2037 C 0.36282 0.52621 1.01377 0.0
C2038 C 0.36515 0.48648 1.01498 0.0
H2039 H 0.36595 0.39502 0.96289 0.0
H2040 H 0.36379 0.44217 0.97293 0.0
H2041 H 0.37508 0.43102 0.9636 0.0
H2042 H 0.38131 0.48239 0.98202 0.0
H2043 H 0.3768 0.55161 0.97915 0.0
H2044 H 0.39691 0.56623 0.79442 0.0
H2045 H 0.38962 0.50449 0.80382 0.0
H2046 H 0.4162 0.46449 0.82394 0.0
H2047 H 0.42341 0.52681 0.81476 0.0
H2048 H 0.40806 0.41031 0.80331 0.0
H2049 H 0.3821 0.46386 0.85176 0.0
H2050 H 0.38062 0.48671 0.83063 0.0
H2051 H 0.39113 0.49529 0.84304 0.0
C2052 C 0.40105 0.54493 0.80158 0.0
C2053 C 0.41056 0.55176 0.80465 0.0
C2054 C 0.39693 0.50951 0.80678 0.0
C2055 C 0.40231 0.4802 0.81501 0.0
C2056 C 0.41189 0.48685 0.81781 0.0
H2057 H 0.37708 0.26689 0.85835 0.0
H2058 H 0.38695 0.32503 0.85459 0.0
C2059 C 0.41599 0.52237 0.81264 0.0
C2060 C 0.39809 0.44153 0.81937 0.0
H2061 H 0.37983 0.3981 0.84087 0.0
C2062 C 0.40196 0.40762 0.8117 0.0
C2063 C 0.39015 0.43795 0.8304 0.0
C2064 C 0.38582 0.47288 0.83956 0.0
C2065 C 0.39789 0.37046 0.81423 0.0
C2066 C 0.38974 0.36722 0.82461 0.0
C2067 C 0.38606 0.4008 0.83282 0.0
C2068 C 0.38463 0.3296 0.8265 0.0
C2069 C 0.40231 0.33498 0.80569 0.0
C2070 C 0.38019 0.31263 0.81187 0.0
C2071 C 0.37454 0.2794 0.81393 0.0
C2072 C 0.37323 0.26261 0.83069 0.0
C2073 C 0.37797 0.27892 0.84523 0.0
C2074 C 0.38358 0.31226 0.84315 0.0
H2075 H 0.40969 0.34067 0.80188 0.0
H2076 H 0.4021 0.30919 0.81467 0.0
H2077 H 0.39835 0.32737 0.79359 0.0
H2078 H 0.38082 0.32595 0.79895 0.0
H2079 H 0.37097 0.26766 0.8025 0.0
H2080 H 0.10091 0.26869 0.10554 0.0
H2081 H 0.09979 0.21132 0.12487 0.0
H2082 H 0.07369 0.25447 0.14539 0.0
H2083 H 0.0748 0.31244 0.12593 0.0
H2084 H 0.08442 0.22498 0.17257 0.0
H2085 H 0.08459 0.11233 0.12014 0.0
H2086 H 0.09451 0.14455 0.11905 0.0
H2087 H 0.08295 0.16389 0.11541 0.0
C2088 C 0.09483 0.26607 0.11395 0.0
C2089 C 0.08789 0.29583 0.11366 0.0
C2090 C 0.09417 0.23262 0.12512 0.0
C2091 C 0.08655 0.227 0.13672 0.0
C2092 C 0.07965 0.25698 0.13667 0.0
H2093 H 0.07505 0.99628 0.19137 0.0
H2094 H 0.0745 0.0548 0.17214 0.0
C2095 C 0.08026 0.29042 0.12532 0.0
C2096 C 0.08593 0.19065 0.14895 0.0
H2097 H 0.08674 0.089 0.14945 0.0
C2098 C 0.0849 0.19535 0.16737 0.0
C2099 C 0.08644 0.15111 0.14269 0.0
C2100 C 0.08709 0.14248 0.12324 0.0
C2101 C 0.0846 0.16282 0.17933 0.0
C2102 C 0.08539 0.12329 0.17311 0.0
C2103 C 0.08619 0.11859 0.15465 0.0
C2104 C 0.08553 0.08691 0.1854 0.0
C2105 C 0.08325 0.1714 0.19866 0.0
C2106 C 0.09191 0.08376 0.19956 0.0
C2107 C 0.09224 0.05005 0.21063 0.0
C2108 C 0.08619 1.01743 0.20823 0.0
C2109 C 0.07977 1.02045 0.19407 0.0
C2110 C 0.0795 0.05424 0.18287 0.0
H2111 H 0.07994 0.2006 0.20076 0.0
H2112 H 0.07885 0.14858 0.20506 0.0
H2113 H 0.09017 0.1718 0.20527 0.0
H2114 H 0.09688 0.10718 0.20191 0.0
H2115 H 0.0974 0.04947 0.22106 0.0
H2116 H 0.15292 1.03253 0.11483 0.0
H2117 H 0.1545 0.09159 0.13258 0.0
H2118 H 0.1844 0.07753 0.13294 0.0
H2119 H 0.18284 1.01716 0.115 0.0
H2120 H 0.17862 0.10316 0.16564 0.0
H2121 H 0.16111 0.2001 0.11759 0.0
H2122 H 0.15382 0.15952 0.12369 0.0
H2123 H 0.1646 0.15069 0.11208 0.0
C2124 C 0.15991 0.0414 0.11861 0.0
C2125 C 0.16773 1.01875 0.11317 0.0
C2126 C 0.16081 0.07616 0.1288 0.0
C2127 C 0.1696 0.09082 0.13416 0.0
C2128 C 0.17747 0.06792 0.12914 0.0
H2129 H 0.18416 0.30127 0.20397 0.0
H2130 H 0.18544 0.24211 0.18527 0.0
C2131 C 0.17657 1.03288 0.11878 0.0
C2132 C 0.1704 0.12932 0.14502 0.0
H2133 H 0.16295 0.22594 0.14658 0.0
C2134 C 0.17525 0.13002 0.16128 0.0
C2135 C 0.16607 0.16538 0.13983 0.0
C2136 C 0.16119 0.16913 0.12228 0.0
C2137 C 0.17556 0.16402 0.17246 0.0
C2138 C 0.17108 0.19988 0.1674 0.0
C2139 C 0.1664 0.19927 0.15095 0.0
C2140 C 0.17067 0.23741 0.17907 0.0
C2141 C 0.18038 0.16036 0.19005 0.0
C2142 C 0.16208 0.25693 0.18186 0.0
C2143 C 0.16138 0.29126 0.19238 0.0
C2144 C 0.16922 0.30866 0.20081 0.0
C2145 C 0.1779 0.28957 0.19793 0.0
C2146 C 0.1786 0.25492 0.18725 0.0
H2147 H 0.18107 0.12914 0.1942 0.0
H2148 H 0.18752 0.17289 0.18904 0.0
H2149 H 0.17652 0.17657 0.20045 0.0
H2150 H 0.15575 0.24524 0.17603 0.0
H2151 H 0.1545 0.30401 0.19401 0.0
H2152 H 0.93524 0.74729 0.94234 0.0
H2153 H 0.93517 0.80606 0.92328 0.0
H2154 H 0.91302 0.85575 0.95457 0.0
H2155 H 0.91331 0.79824 0.97379 0.0
H2156 H 0.92426 0.84165 0.90124 0.0
H2157 H 0.92811 0.9513 0.95401 0.0
H2158 H 0.9293 0.89943 0.95827 0.0
H2159 H 0.91788 0.92207 0.95764 0.0
C2160 C 0.93045 0.77097 0.94541 0.0
C2161 C 0.92443 0.76741 0.96016 0.0
C2162 C 0.93036 0.80498 0.9343 0.0
C2163 C 0.92428 0.83729 0.93738 0.0
C2164 C 0.91813 0.83306 0.95187 0.0
H2165 H 0.90793 0.06089 0.88513 0.0
H2166 H 0.90989 1.00236 0.90346 0.0
C2167 C 0.91824 0.79936 0.96298 0.0
C2168 C 0.92418 0.87448 0.92543 0.0
H2169 H 0.92316 0.97617 0.9261 0.0
C2170 C 0.92408 0.87091 0.90682 0.0
C2171 C 0.92404 0.9138 0.93212 0.0
C2172 C 0.92494 0.92196 0.95158 0.0
C2173 C 0.9235 0.90408 0.89519 0.0
C2174 C 0.92314 0.94322 0.90194 0.0
C2175 C 0.92337 0.94685 0.9205 0.0
C2176 C 0.92221 0.98042 0.89022 0.0
C2177 C 0.92291 0.8966 0.87564 0.0
C2178 C 0.92852 0.98976 0.87637 0.0
C2179 C 0.92746 1.0243 0.86575 0.0
C2180 C 0.92001 0.05109 0.86841 0.0
C2181 C 0.9138 0.04175 0.88238 0.0
C2182 C 0.91492 1.00771 0.89305 0.0
H2183 H 0.92065 0.86605 0.87273 0.0
H2184 H 0.91796 0.91726 0.86922 0.0
H2185 H 0.92992 0.90101 0.8697 0.0
H2186 H 0.93436 0.97039 0.87375 0.0
H2187 H 0.93241 1.02959 0.85523 0.0
H2188 H 0.84995 0.04536 0.96134 0.0
H2189 H 0.8498 0.98829 0.94179 0.0
H2190 H 0.81975 0.99545 0.93863 0.0
H2191 H 0.82005 0.05497 0.95695 0.0
H2192 H 0.84523 0.91997 0.94234 0.0
H2193 H 0.82147 0.97188 0.88978 0.0
H2194 H 0.82495 1.00407 0.90737 0.0
H2195 H 0.81569 0.9689 0.91067 0.0
C2196 C 0.84327 1.03515 0.95637 0.0
C2197 C 0.83501 0.05561 0.96097 0.0
C2198 C 0.84318 1.00187 0.94504 0.0
C2199 C 0.83478 0.98633 0.93791 0.0
C2200 C 0.82647 1.00645 0.94288 0.0
H2201 H 0.8251 0.77027 0.86964 0.0
H2202 H 0.82298 0.82809 0.88898 0.0
C2203 C 0.82661 0.04073 0.95376 0.0
C2204 C 0.83492 0.94878 0.92614 0.0
H2205 H 0.82606 0.90501 0.88842 0.0
C2206 C 0.84105 0.91747 0.93047 0.0
C2207 C 0.82937 0.94307 0.91062 0.0
C2208 C 0.82257 0.97387 0.90425 0.0
C2209 C 0.84184 0.88237 0.92023 0.0
C2210 C 0.83657 0.87734 0.90441 0.0
C2211 C 0.83025 0.90799 0.90025 0.0
C2212 C 0.83771 0.84131 0.89205 0.0
C2213 C 0.84818 0.85032 0.92704 0.0
C2214 C 0.84664 0.82851 0.8865 0.0
C2215 C 0.84786 0.79507 0.87556 0.0
C2216 C 0.84023 0.77254 0.86918 0.0
C2217 C 0.83123 0.7859 0.87422 0.0
C2218 C 0.83001 0.81949 0.88537 0.0
H2219 H 0.84892 0.85183 0.9416 0.0
H2220 H 0.84554 0.82066 0.92351 0.0
H2221 H 0.85526 0.85416 0.92128 0.0
H2222 H 0.8528 0.84471 0.89048 0.0
H2223 H 0.85494 0.78717 0.87194 0.0
H2224 H 0.1014 0.78357 0.61509 0.0
H2225 H 0.10007 0.72738 0.63504 0.0
H2226 H 0.07019 0.74188 0.63637 0.0
H2227 H 0.0715 0.79926 0.61653 0.0
H2228 H 0.09181 0.72422 0.67077 0.0
H2229 H 0.07398 0.62084 0.6252 0.0
H2230 H 0.08046 0.66297 0.61733 0.0
H2231 H 0.06917 0.6696 0.62714 0.0
C2232 C 0.09448 0.77502 0.61945 0.0
C2233 C 0.08655 0.79667 0.6138 0.0
C2234 C 0.09374 0.74248 0.63106 0.0
C2235 C 0.08502 0.72925 0.63739 0.0
C2236 C 0.07705 0.75053 0.63172 0.0
H2237 H 0.07098 0.51605 0.70304 0.0
H2238 H 0.07023 0.57447 0.68378 0.0
C2239 C 0.0778 0.78371 0.62027 0.0
C2240 C 0.08443 0.69414 0.65014 0.0
H2241 H 0.07703 0.59788 0.6539 0.0
C2242 C 0.08855 0.69669 0.667 0.0
C2243 C 0.08014 0.65771 0.6457 0.0
C2244 C 0.07571 0.65214 0.62785 0.0
C2245 C 0.08844 0.6649 0.67929 0.0
C2246 C 0.08442 0.6278 0.67467 0.0
C2247 C 0.08018 0.62551 0.65783 0.0
C2248 C 0.08476 0.59131 0.68683 0.0
C2249 C 0.09239 0.67237 0.69742 0.0
C2250 C 0.09313 0.57945 0.69516 0.0
C2251 C 0.09353 0.54629 0.70645 0.0
C2252 C 0.08561 0.52239 0.70982 0.0
C2253 C 0.07724 0.53347 0.70118 0.0
C2254 C 0.07683 0.56716 0.68995 0.0
H2255 H 0.09185 0.70396 0.70103 0.0
H2256 H 0.08873 0.65481 0.70764 0.0
H2257 H 0.09992 0.66452 0.69752 0.0
H2258 H 0.09953 0.59556 0.69276 0.0
H2259 H 0.1002 0.53904 0.71236 0.0
H2260 H 0.15247 0.52187 0.6231 0.0
H2261 H 0.15412 0.58108 0.64067 0.0
H2262 H 0.18353 0.58467 0.62874 0.0
H2263 H 0.18186 0.52495 0.61052 0.0
H2264 H 0.16211 0.60048 0.66935 0.0
H2265 H 0.17833 0.69741 0.61952 0.0
H2266 H 0.17366 0.64974 0.614 0.0
H2267 H 0.1851 0.65398 0.62375 0.0
C2268 C 0.15937 0.53478 0.62408 0.0
C2269 C 0.16703 0.51736 0.61512 0.0
C2270 C 0.1603 0.5693 0.63436 0.0
C2271 C 0.16893 0.58898 0.63625 0.0
C2272 C 0.17667 0.57157 0.62747 0.0
H2273 H 0.1825 0.80656 0.70096 0.0
H2274 H 0.18382 0.74619 0.68288 0.0
C2275 C 0.17575 0.53663 0.6171 0.0
C2276 C 0.16961 0.62656 0.6477 0.0
H2277 H 0.17703 0.72342 0.6484 0.0
C2278 C 0.16541 0.62716 0.66459 0.0
C2279 C 0.17384 0.66244 0.64203 0.0
C2280 C 0.17791 0.66619 0.62378 0.0
C2281 C 0.16534 0.66116 0.6756 0.0
C2282 C 0.16952 0.69706 0.66992 0.0
C2283 C 0.17386 0.69647 0.65317 0.0
C2284 C 0.16893 0.73546 0.68074 0.0
C2285 C 0.16081 0.65796 0.69349 0.0
C2286 C 0.1602 0.75121 0.68565 0.0
C2287 C 0.15944 0.78595 0.69582 0.0
C2288 C 0.16737 0.80727 0.70179 0.0
C2289 C 0.17617 0.79183 0.69676 0.0
C2290 C 0.17693 0.75689 0.68632 0.0
H2291 H 0.16048 0.62698 0.69812 0.0
H2292 H 0.16464 0.67562 0.70343 0.0
H2293 H 0.15353 0.66916 0.69266 0.0
H2294 H 0.15384 0.7366 0.68152 0.0
H2295 H 0.15247 0.79579 0.69921 0.0
H2296 H 0.93361 0.54442 0.36002 0.0
H2297 H 0.93463 0.48239 0.37697 0.0
H2298 H 0.90843 0.50895 0.40209 0.0
H2299 H 0.90741 0.5703 0.38553 0.0
H2300 H 0.93502 0.46463 0.41411 0.0
H2301 H 0.90339 0.39698 0.38532 0.0
H2302 H 0.90891 0.43961 0.37569 0.0
H2303 H 0.9013 0.4449 0.39441 0.0
C2304 C 0.92805 0.5372 0.36912 0.0
C2305 C 0.92043 0.56348 0.37113 0.0
C2306 C 0.92864 0.50132 0.37896 0.0
C2307 C 0.92155 0.48959 0.39096 0.0
C2308 C 0.91398 0.5159 0.39291 0.0
H2309 H 0.90708 0.28926 0.46091 0.0
H2310 H 0.90793 0.34855 0.44284 0.0
C2311 C 0.91345 0.55173 0.38334 0.0
C2312 C 0.92198 0.45067 0.40154 0.0
H2313 H 0.90963 0.36583 0.41077 0.0
C2314 C 0.92949 0.44297 0.41318 0.0
C2315 C 0.91482 0.42153 0.40082 0.0
C2316 C 0.90669 0.42583 0.38829 0.0
C2317 C 0.92986 0.40879 0.42424 0.0
C2318 C 0.92266 0.37962 0.4236 0.0
C2319 C 0.91522 0.38723 0.41171 0.0
C2320 C 0.92244 0.34215 0.43535 0.0
C2321 C 0.93784 0.40548 0.43713 0.0
C2322 C 0.93024 0.31668 0.43765 0.0
C2323 C 0.92977 0.28206 0.44835 0.0
C2324 C 0.92146 0.27092 0.45717 0.0
C2325 C 0.91369 0.29624 0.45471 0.0
C2326 C 0.91416 0.33066 0.44412 0.0
H2327 H 0.94097 0.43468 0.44003 0.0
H2328 H 0.93552 0.39209 0.44974 0.0
H2329 H 0.9434 0.38676 0.43134 0.0
H2330 H 0.93671 0.32287 0.43082 0.0
H2331 H 0.93591 0.26352 0.44937 0.0
H2332 H 0.84892 0.52924 0.46512 0.0
H2333 H 0.8478 0.47005 0.44724 0.0
H2334 H 0.82117 0.5086 0.42726 0.0
H2335 H 0.82233 0.56898 0.44519 0.0
H2336 H 0.83777 0.4082 0.44553 0.0
H2337 H 0.83185 0.47944 0.38097 0.0
H2338 H 0.83485 0.50731 0.40037 0.0
H2339 H 0.82301 0.49098 0.39692 0.0
C2340 C 0.84275 0.52559 0.45701 0.0
C2341 C 0.83572 0.55508 0.45695 0.0
C2342 C 0.84213 0.49107 0.44657 0.0
C2343 C 0.83452 0.48384 0.43516 0.0
C2344 C 0.82734 0.51283 0.43529 0.0
H2345 H 0.85188 0.2619 0.3833 0.0
H2346 H 0.84994 0.32126 0.40069 0.0
C2347 C 0.82793 0.54763 0.44589 0.0
C2348 C 0.83422 0.44589 0.42375 0.0
H2349 H 0.83129 0.40989 0.3814 0.0
C2350 C 0.83635 0.40907 0.4315 0.0
C2351 C 0.83235 0.44527 0.40524 0.0
C2352 C 0.83047 0.48284 0.3953 0.0
C2353 C 0.83662 0.3731 0.42176 0.0
C2354 C 0.83492 0.37253 0.40322 0.0
C2355 C 0.83261 0.40916 0.39546 0.0
C2356 C 0.83594 0.33491 0.3918 0.0
C2357 C 0.83855 0.33563 0.43177 0.0
C2358 C 0.82891 0.32144 0.38 0.0
C2359 C 0.83003 0.28647 0.36965 0.0
C2360 C 0.8383 0.26352 0.37046 0.0
C2361 C 0.84531 0.27753 0.38213 0.0
C2362 C 0.84418 0.31206 0.39239 0.0
H2363 H 0.83645 0.33828 0.44582 0.0
H2364 H 0.8348 0.31021 0.42591 0.0
H2365 H 0.84617 0.32951 0.43147 0.0
H2366 H 0.82246 0.33791 0.37884 0.0
H2367 H 0.82446 0.27779 0.36082 0.0
H2368 H 0.57561 1.00037 0.69022 0.0
H2369 H 0.57544 0.05755 0.67027 0.0
H2370 H 0.59402 0.11925 0.70533 0.0
H2371 H 0.59445 0.06205 0.72483 0.0
H2372 H 0.57008 0.13035 0.66963 0.0
H2373 H 0.60834 0.14161 0.66259 0.0
H2374 H 0.60293 0.10076 0.67376 0.0
H2375 H 0.60492 0.14656 0.68517 0.0
C2376 C 0.57965 1.02611 0.69379 0.0
C2377 C 0.58505 1.02568 0.70945 0.0
C2378 C 0.57957 0.05925 0.6822 0.0
C2379 C 0.58491 0.09363 0.68561 0.0
C2380 C 0.59006 0.09348 0.70156 0.0
H2381 H 0.57425 0.3239 0.62912 0.0
H2382 H 0.57367 0.26693 0.64899 0.0
C2383 C 0.5902 0.06038 0.71303 0.0
C2384 C 0.58503 0.12926 0.67278 0.0
H2385 H 0.59955 0.19549 0.65171 0.0
C2386 C 0.57658 0.14441 0.66581 0.0
C2387 C 0.59339 0.14835 0.66704 0.0
C2388 C 0.60291 0.13326 0.67236 0.0
C2389 C 0.57624 0.17732 0.65402 0.0
C2390 C 0.58458 0.19754 0.64891 0.0
C2391 C 0.59303 0.18172 0.65557 0.0
C2392 C 0.58478 0.23382 0.63641 0.0
C2393 C 0.56684 0.18891 0.64665 0.0
C2394 C 0.59139 0.2368 0.62257 0.0
C2395 C 0.59182 0.27012 0.61124 0.0
C2396 C 0.58566 0.30255 0.61302 0.0
C2397 C 0.57903 0.29976 0.62682 0.0
C2398 C 0.57866 0.26648 0.6383 0.0
H2399 H 0.56187 0.16379 0.64681 0.0
H2400 H 0.5638 0.21256 0.65494 0.0
H2401 H 0.56744 0.19977 0.6329 0.0
H2402 H 0.59631 0.21307 0.62042 0.0
H2403 H 0.59713 0.27053 0.60106 0.0
H2404 H 0.67941 1.00235 0.62959 0.0
H2405 H 0.68058 0.05951 0.64957 0.0
H2406 H 0.66065 0.12193 0.61747 0.0
H2407 H 0.65897 0.06449 0.59868 0.0
H2408 H 0.68578 0.12928 0.65211 0.0
H2409 H 0.6479 0.14983 0.65991 0.0
H2410 H 0.65254 0.10822 0.64819 0.0
H2411 H 0.65087 0.15492 0.63715 0.0
C2412 C 0.67524 1.02817 0.62681 0.0
C2413 C 0.669 1.0277 0.6123 0.0
C2414 C 0.67589 0.06139 0.63839 0.0
C2415 C 0.67044 0.09604 0.63595 0.0
C2416 C 0.66463 0.09596 0.62083 0.0
H2417 H 0.68501 0.32381 0.6929 0.0
H2418 H 0.68522 0.26534 0.67394 0.0
C2419 C 0.66378 0.06265 0.60966 0.0
C2420 C 0.67086 0.13196 0.64874 0.0
H2421 H 0.65738 0.20351 0.66872 0.0
C2422 C 0.6795 0.14516 0.65573 0.0
C2423 C 0.6628 0.15358 0.65437 0.0
C2424 C 0.65302 0.14062 0.64967 0.0
C2425 C 0.68032 0.17829 0.66737 0.0
C2426 C 0.67232 0.20139 0.67208 0.0
C2427 C 0.66368 0.18759 0.66533 0.0
C2428 C 0.67255 0.23855 0.68422 0.0
C2429 C 0.68983 0.18675 0.67504 0.0
C2430 C 0.66524 0.24623 0.69637 0.0
C2431 C 0.66495 0.28088 0.70685 0.0
C2432 C 0.67206 0.30991 0.70622 0.0
C2433 C 0.67948 0.30231 0.69436 0.0
C2434 C 0.67963 0.26796 0.68344 0.0
H2435 H 0.69422 0.1598 0.67546 0.0
H2436 H 0.69349 0.20845 0.66656 0.0
H2437 H 0.68931 0.19864 0.68862 0.0
H2438 H 0.65958 0.22531 0.69782 0.0
H2439 H 0.65903 0.28496 0.71555 0.0
H2440 H 0.40799 0.06549 0.37789 0.0
H2441 H 0.40939 1.00605 0.39562 0.0
H2442 H 0.43663 0.98439 0.37354 0.0
H2443 H 0.4353 0.04493 0.35578 0.0
H2444 H 0.41004 0.93179 0.3893 0.0
H2445 H 0.44357 0.96141 0.42305 0.0
H2446 H 0.43762 0.99857 0.41032 0.0
H2447 H 0.44454 0.96153 0.39948 0.0
C2448 C 0.4144 0.04869 0.37682 0.0
C2449 C 0.42158 0.06147 0.36524 0.0
C2450 C 0.41517 1.01392 0.3871 0.0
C2451 C 0.42319 0.98964 0.38659 0.0
C2452 C 0.43041 1.0022 0.37498 0.0
H2453 H 0.43529 0.75881 0.44277 0.0
H2454 H 0.43624 0.81773 0.42371 0.0
C2455 C 0.42963 0.03726 0.3646 0.0
C2456 C 0.42364 0.95125 0.3977 0.0
H2457 H 0.43693 0.8984 0.42767 0.0
C2458 C 0.41596 0.92496 0.39768 0.0
C2459 C 0.4313 0.94062 0.40885 0.0
C2460 C 0.43969 0.96711 0.41062 0.0
C2461 C 0.41571 0.88973 0.40798 0.0
C2462 C 0.42328 0.87946 0.41939 0.0
C2463 C 0.43105 0.90528 0.4192 0.0
C2464 C 0.42304 0.84316 0.43181 0.0
C2465 C 0.40731 0.86324 0.40608 0.0
C2466 C 0.4155 0.83682 0.44352 0.0
C2467 C 0.41497 0.80309 0.45451 0.0
C2468 C 0.42198 0.77356 0.45467 0.0
C2469 C 0.42971 0.78028 0.44335 0.0
C2470 C 0.43024 0.81438 0.43227 0.0
H2471 H 0.40383 0.8674 0.39312 0.0
H2472 H 0.40927 0.83178 0.40744 0.0
H2473 H 0.40215 0.87056 0.41648 0.0
H2474 H 0.40991 0.85822 0.44423 0.0
H2475 H 0.40889 0.80006 0.4629 0.0
H2476 H 0.34764 1.03138 0.46646 0.0
H2477 H 0.34732 0.97368 0.44733 0.0
H2478 H 0.31976 1.00586 0.42952 0.0
H2479 H 0.32031 0.06507 0.44806 0.0
H2480 H 0.33884 0.90999 0.4455 0.0
H2481 H 0.32813 0.97902 0.38271 0.0
H2482 H 0.33082 1.0081 0.40187 0.0
H2483 H 0.31954 0.98497 0.39967 0.0
C2484 C 0.34148 1.02662 0.45842 0.0
C2485 C 0.334 0.05391 0.45912 0.0
C2486 C 0.3413 0.99297 0.4473 0.0
C2487 C 0.33359 0.98424 0.43623 0.0
C2488 C 0.32602 1.01129 0.43711 0.0
H2489 H 0.32373 0.77924 0.36129 0.0
H2490 H 0.32205 0.83994 0.37898 0.0
C2491 C 0.32627 0.04546 0.44808 0.0
C2492 C 0.33351 0.94647 0.42462 0.0
H2493 H 0.32895 0.90942 0.38295 0.0
C2494 C 0.33671 0.91046 0.43179 0.0
C2495 C 0.33054 0.94499 0.4066 0.0
C2496 C 0.32713 0.98136 0.3972 0.0
C2497 C 0.33705 0.87456 0.422 0.0
C2498 C 0.33449 0.87337 0.40379 0.0
C2499 C 0.33105 0.90911 0.39668 0.0
C2500 C 0.33549 0.83597 0.39209 0.0
C2501 C 0.33985 0.8378 0.43183 0.0
C2502 C 0.34368 0.81262 0.39254 0.0
C2503 C 0.34456 0.77742 0.38263 0.0
C2504 C 0.33745 0.76373 0.37115 0.0
C2505 C 0.32941 0.78794 0.36989 0.0
C2506 C 0.32845 0.82312 0.38016 0.0
H2507 H 0.33806 0.84001 0.44604 0.0
H2508 H 0.33636 0.81128 0.4264 0.0
H2509 H 0.34754 0.83395 0.43093 0.0
H2510 H 0.34953 0.82158 0.4006 0.0
H2511 H 0.35099 0.76085 0.38393 0.0
H2512 H 0.57286 0.81872 0.12529 0.0
H2513 H 0.57205 0.75889 0.14354 0.0
H2514 H 0.59807 0.71914 0.12137 0.0
H2515 H 0.59894 0.77848 0.10345 0.0
H2516 H 0.58941 0.65785 0.12588 0.0
H2517 H 0.58262 0.73247 0.18916 0.0
H2518 H 0.57332 0.7406 0.17374 0.0
H2519 H 0.58483 0.75983 0.16929 0.0
C2520 C 0.57844 0.7973 0.12427 0.0
C2521 C 0.58601 0.80457 0.11269 0.0
C2522 C 0.57805 0.7628 0.13507 0.0
C2523 C 0.58523 0.73379 0.1349 0.0
C2524 C 0.59252 0.74048 0.12266 0.0
H2525 H 0.60357 0.51958 0.19302 0.0
H2526 H 0.60177 0.57788 0.17463 0.0
C2527 C 0.59298 0.77496 0.1121 0.0
C2528 C 0.58523 0.69656 0.1469 0.0
H2529 H 0.58195 0.66269 0.18958 0.0
C2530 C 0.5878 0.65954 0.13981 0.0
C2531 C 0.58316 0.69683 0.16537 0.0
C2532 C 0.58092 0.73458 0.17489 0.0
C2533 C 0.58826 0.6243 0.15009 0.0
C2534 C 0.58619 0.62461 0.16848 0.0
C2535 C 0.58351 0.66135 0.17561 0.0
C2536 C 0.58715 0.58772 0.18039 0.0
C2537 C 0.59086 0.58653 0.14091 0.0
C2538 C 0.57966 0.57249 0.19062 0.0
C2539 C 0.58066 0.53804 0.20134 0.0
C2540 C 0.58927 0.5175 0.2026 0.0
C2541 C 0.59674 0.53334 0.19254 0.0
C2542 C 0.59572 0.56725 0.18177 0.0
H2543 H 0.58953 0.58822 0.1265 0.0
H2544 H 0.59843 0.58083 0.14286 0.0
H2545 H 0.58689 0.56123 0.14637 0.0
H2546 H 0.57294 0.58711 0.19021 0.0
H2547 H 0.57471 0.52791 0.2089 0.0
H2548 H 0.66441 0.55641 0.09915 0.0
H2549 H 0.66537 0.61277 0.11918 0.0
H2550 H 0.68568 0.55103 0.15063 0.0
H2551 H 0.68466 0.49425 0.13062 0.0
H2552 H 0.67828 0.66449 0.12888 0.0
H2553 H 0.66878 0.58476 0.18973 0.0
H2554 H 0.67897 0.56491 0.17921 0.0
H2555 H 0.66782 0.56247 0.16826 0.0
C2556 C 0.66914 0.55456 0.11026 0.0
C2557 C 0.67448 0.51993 0.1129 0.0
C2558 C 0.66969 0.58731 0.12189 0.0
C2559 C 0.67549 0.58712 0.137 0.0
C2560 C 0.68094 0.55269 0.13954 0.0
H2561 H 0.66232 0.76777 0.21809 0.0
H2562 H 0.66389 0.70906 0.1997 0.0
C2563 C 0.68044 0.51993 0.12781 0.0
C2564 C 0.67585 0.62283 0.14968 0.0
H2565 H 0.67375 0.65074 0.19328 0.0
C2566 C 0.67729 0.66118 0.14297 0.0
C2567 C 0.67446 0.61997 0.16826 0.0
C2568 C 0.67233 0.58093 0.17682 0.0
C2569 C 0.67746 0.69554 0.15386 0.0
C2570 C 0.67627 0.69269 0.17254 0.0
C2571 C 0.67476 0.65424 0.17921 0.0
C2572 C 0.67602 0.7287 0.18516 0.0
C2573 C 0.67869 0.73474 0.14485 0.0
C2574 C 0.68264 0.75983 0.1846 0.0
C2575 C 0.6819 0.79367 0.19567 0.0
C2576 C 0.67448 0.79822 0.20786 0.0
C2577 C 0.66812 0.76636 0.20893 0.0
C2578 C 0.66898 0.73236 0.19815 0.0
H2579 H 0.67636 0.73363 0.13089 0.0
H2580 H 0.67476 0.7584 0.1516 0.0
H2581 H 0.68623 0.7426 0.14489 0.0
H2582 H 0.68846 0.75822 0.17551 0.0
H2583 H 0.68704 0.81686 0.1943 0.0
H2584 H 0.43238 0.24929 0.93464 0.0
H2585 H 0.4325 0.30779 0.91572 0.0
H2586 H 0.41186 0.36217 0.94917 0.0
H2587 H 0.41108 0.30228 0.96682 0.0
H2588 H 0.40717 0.38643 0.92166 0.0
H2589 H 0.44503 0.40632 0.91291 0.0
H2590 H 0.44167 0.359 0.90481 0.0
H2591 H 0.44044 0.37033 0.92798 0.0
C2592 C 0.42797 0.27393 0.93816 0.0
C2593 C 0.4218 0.27037 0.95266 0.0
C2594 C 0.42808 0.30823 0.92725 0.0
C2595 C 0.42234 0.34154 0.9307 0.0
C2596 C 0.41639 0.33798 0.94555 0.0
H2597 H 0.43076 0.5723 0.87241 0.0
H2598 H 0.43225 0.51491 0.89224 0.0
C2599 C 0.41601 0.30329 0.956 0.0
C2600 C 0.42205 0.37883 0.9187 0.0
H2601 H 0.43529 0.44211 0.89305 0.0
C2602 C 0.41342 0.39813 0.91557 0.0
C2603 C 0.43005 0.39674 0.91067 0.0
C2604 C 0.43982 0.38231 0.91442 0.0
C2605 C 0.41253 0.43258 0.90491 0.0
C2606 C 0.42042 0.44885 0.89591 0.0
C2607 C 0.42909 0.43025 0.89931 0.0
C2608 C 0.41978 0.48466 0.88319 0.0
C2609 C 0.40303 0.45191 0.90421 0.0
C2610 C 0.4125 0.48804 0.87066 0.0
C2611 C 0.41151 0.52156 0.85971 0.0
C2612 C 0.41796 0.55316 0.85987 0.0
C2613 C 0.42558 0.54917 0.87166 0.0
C2614 C 0.42643 0.51584 0.88313 0.0
H2615 H 0.39896 0.4459 0.9164 0.0
H2616 H 0.40359 0.48427 0.90262 0.0
H2617 H 0.39899 0.43957 0.89302 0.0
H2618 H 0.40746 0.46456 0.86919 0.0
H2619 H 0.40561 0.5225 0.85083 0.0
H2620 H 0.32331 0.57829 0.93892 0.0
H2621 H 0.32222 0.52041 0.91941 0.0
H2622 H 0.34489 0.46567 0.94753 0.0
H2623 H 0.34592 0.52264 0.967 0.0
H2624 H 0.33355 0.48552 0.89573 0.0
H2625 H 0.32766 0.37375 0.94725 0.0
H2626 H 0.32709 0.4257 0.9519 0.0
H2627 H 0.33822 0.40091 0.95097 0.0
C2628 C 0.32798 0.55373 0.94119 0.0
C2629 C 0.33462 0.55584 0.95502 0.0
C2630 C 0.32739 0.52031 0.92982 0.0
C2631 C 0.33333 0.48714 0.93182 0.0
C2632 C 0.33997 0.48947 0.9456 0.0
H2633 H 0.34652 0.30707 0.84986 0.0
H2634 H 0.34512 0.36624 0.86783 0.0
C2635 C 0.34059 0.52275 0.95686 0.0
C2636 C 0.33281 0.45096 0.91943 0.0
H2637 H 0.33159 0.34941 0.91878 0.0
C2638 C 0.33312 0.45587 0.90092 0.0
C2639 C 0.33208 0.41139 0.9256 0.0
C2640 C 0.33114 0.40252 0.94499 0.0
C2641 C 0.33299 0.4235 0.88886 0.0
C2642 C 0.33265 0.38382 0.89507 0.0
C2643 C 0.33203 0.37903 0.91356 0.0
C2644 C 0.33306 0.34733 0.88282 0.0
C2645 C 0.33296 0.43266 0.86942 0.0
C2646 C 0.32673 0.31537 0.88445 0.0
C2647 C 0.32737 0.28115 0.87358 0.0
C2648 C 0.33456 0.27668 0.8609 0.0
C2649 C 0.34084 0.30868 0.85927 0.0
C2650 C 0.34003 0.34314 0.86973 0.0
H2651 H 0.3299 0.46213 0.86678 0.0
H2652 H 0.34027 0.433 0.86452 0.0
H2653 H 0.32894 0.41044 0.86184 0.0
H2654 H 0.32122 0.31675 0.89422 0.0
H2655 H 0.3224 0.25756 0.87557 0.0
H2656 H 0.08228 0.36049 0.15377 0.0
H2657 H 0.07854 0.34095 0.18424 0.0
H2658 H 0.10477 0.39044 0.20162 0.0
H2659 H 0.10851 0.40921 0.17154 0.0
H2660 H 0.08884 0.28807 0.20372 0.0
H2661 H 0.09655 0.43099 0.22505 0.0
H2662 H 0.08768 0.42414 0.24143 0.0
H2663 H 0.0846 0.42256 0.21828 0.0
C2664 C 0.08707 0.36816 0.16427 0.0
C2665 C 0.09567 0.38644 0.16046 0.0
C2666 C 0.08493 0.35699 0.18161 0.0
C2667 C 0.09126 0.36503 0.19529 0.0
C2668 C 0.09963 0.38498 0.19142 0.0
H2669 H 0.13019 0.28649 0.2263 0.0
H2670 H 0.1137 0.27549 0.22349 0.0
C2671 C 0.10182 0.39543 0.17419 0.0
C2672 C 0.09021 0.34777 0.2131 0.0
H2673 H 0.09976 0.37433 0.25207 0.0
C2674 C 0.09084 0.30671 0.21469 0.0
C2675 C 0.09201 0.37114 0.22807 0.0
C2676 C 0.09003 0.41465 0.22814 0.0
C2677 C 0.09549 0.28994 0.22917 0.0
C2678 C 0.10002 0.3152 0.24133 0.0
C2679 C 0.09702 0.35463 0.24211 0.0
C2680 C 0.10977 0.30687 0.24742 0.0
C2681 C 0.09645 0.24587 0.23016 0.0
C2682 C 0.11347 0.32599 0.26237 0.0
C2683 C 0.12308 0.33382 0.26352 0.0
C2684 C 0.1291 0.32159 0.24999 0.0
C2685 C 0.12565 0.29696 0.23673 0.0
C2686 C 0.1161 0.28996 0.23534 0.0
H2687 H 0.08938 0.23231 0.22989 0.0
H2688 H 0.10025 0.23481 0.2184 0.0
H2689 H 0.10011 0.23624 0.24233 0.0
H2690 H 0.10885 0.33861 0.27217 0.0
H2691 H 0.12563 0.35222 0.27413 0.0
H2692 H 0.08777 0.87233 0.17817 0.0
H2693 H 0.08799 0.85348 0.14704 0.0
H2694 H 0.11814 0.8477 0.14894 0.0
H2695 H 0.11787 0.86593 0.1799 0.0
H2696 H 0.09569 0.90401 0.1249 0.0
H2697 H 0.11302 0.76337 0.11302 0.0
H2698 H 0.10722 0.77384 0.1337 0.0
H2699 H 0.11936 0.78686 0.13042 0.0
C2700 C 0.09439 0.86565 0.17205 0.0
C2701 C 0.1028 0.87108 0.18128 0.0
C2702 C 0.09451 0.85465 0.1543 0.0
C2703 C 0.10306 0.84861 0.14566 0.0
C2704 C 0.11142 0.85107 0.15536 0.0
H2705 H 0.1338 0.89745 0.05038 0.0
H2706 H 0.12009 0.86462 0.06297 0.0
C2707 C 0.11129 0.86223 0.17302 0.0
C2708 C 0.10366 0.85011 0.12623 0.0
H2709 H 0.11963 0.82169 0.09567 0.0
C2710 C 0.10058 0.88492 0.11811 0.0
C2711 C 0.10971 0.82472 0.1169 0.0
C2712 C 0.1124 0.78489 0.12398 0.0
C2713 C 0.10497 0.89879 0.10284 0.0
C2714 C 0.11252 0.87724 0.0958 0.0
C2715 C 0.11412 0.83878 0.10166 0.0
C2716 C 0.12034 0.89794 0.08721 0.0
C2717 C 0.10237 0.93875 0.09578 0.0
C2718 C 0.12521 0.9262 0.09704 0.0
C2719 C 0.13308 0.94451 0.09013 0.0
C2720 C 0.13623 0.93545 0.07306 0.0
C2721 C 0.13146 0.90611 0.06337 0.0
C2722 C 0.1236 0.88734 0.07047 0.0
H2723 H 0.09477 0.94435 0.09751 0.0
H2724 H 0.10622 0.96168 0.10326 0.0
H2725 H 0.10419 0.94156 0.08161 0.0
H2726 H 0.12302 0.93358 0.1103 0.0
H2727 H 0.13671 0.96589 0.09821 0.0
H2728 H 0.92042 0.63858 0.9256 0.0
H2729 H 0.92472 0.6519 0.89492 0.0
H2730 H 0.90384 0.74335 0.89266 0.0
H2731 H 0.89944 0.72979 0.9232 0.0
H2732 H 0.91231 0.64567 0.86677 0.0
H2733 H 0.92702 0.79448 0.86877 0.0
H2734 H 0.92684 0.76242 0.88785 0.0
H2735 H 0.91679 0.79211 0.88243 0.0
C2736 C 0.91672 0.66138 0.91852 0.0
C2737 C 0.90949 0.68276 0.92665 0.0
C2738 C 0.91929 0.66932 0.90111 0.0
C2739 C 0.91481 0.69938 0.89174 0.0
C2740 C 0.90759 0.72081 0.89987 0.0
H2741 H 0.88202 0.78125 0.84484 0.0
H2742 H 0.89855 0.77941 0.85084 0.0
C2743 C 0.90495 0.71253 0.91717 0.0
C2744 C 0.91646 0.7049 0.8727 0.0
H2745 H 0.91615 0.781 0.84372 0.0
C2746 C 0.91346 0.67489 0.86145 0.0
C2747 C 0.91855 0.74222 0.8656 0.0
C2748 C 0.9226 0.77448 0.87682 0.0
C2749 C 0.91044 0.68358 0.84432 0.0
C2750 C 0.91036 0.72352 0.8387 0.0
C2751 C 0.91571 0.75084 0.84832 0.0
C2752 C 0.90194 0.73909 0.82948 0.0
C2753 C 0.90607 0.65078 0.83376 0.0
C2754 C 0.89837 0.72156 0.8141 0.0
C2755 C 0.88871 0.72145 0.81108 0.0
C2756 C 0.88271 0.74041 0.82302 0.0
C2757 C 0.88651 0.76511 0.83589 0.0
C2758 C 0.89606 0.76433 0.83918 0.0
H2759 H 0.90768 0.62138 0.8394 0.0
H2760 H 0.89835 0.65418 0.83359 0.0
H2761 H 0.90873 0.65132 0.82004 0.0
H2762 H 0.90284 0.70418 0.80564 0.0
H2763 H 0.88591 0.70334 0.80059 0.0
H2764 H 0.8386 0.16438 0.92648 0.0
H2765 H 0.83449 0.13801 0.89749 0.0
H2766 H 0.8594 0.06644 0.89819 0.0
H2767 H 0.8635 0.0925 0.92719 0.0
H2768 H 0.8441 0.14399 0.86738 0.0
H2769 H 0.83955 0.98797 0.88246 0.0
H2770 H 0.84023 1.02468 0.89976 0.0
H2771 H 0.85068 1.0025 0.891 0.0
C2772 C 0.84324 0.14334 0.92036 0.0
C2773 C 0.85144 0.13082 0.92896 0.0
C2774 C 0.8408 0.12787 0.90394 0.0
C2775 C 0.84646 0.09932 0.89598 0.0
C2776 C 0.85475 0.08744 0.9044 0.0
H2777 H 0.88021 1.03378 0.85264 0.0
H2778 H 0.86405 1.02177 0.85868 0.0
C2779 C 0.85721 0.10297 0.92077 0.0
C2780 C 0.84449 0.08524 0.87794 0.0
H2781 H 0.84743 1.00249 0.8535 0.0
C2782 C 0.84465 0.11292 0.86429 0.0
C2783 C 0.84441 0.04479 0.87367 0.0
C2784 C 0.84359 1.0134 0.88759 0.0
C2785 C 0.84695 0.10143 0.8471 0.0
C2786 C 0.84947 0.06159 0.84403 0.0
C2787 C 0.84629 1.03344 0.85625 0.0
C2788 C 0.85872 0.05325 0.83566 0.0
C2789 C 0.84789 0.13302 0.83328 0.0
C2790 C 0.86146 0.07058 0.81962 0.0
C2791 C 0.87093 0.07869 0.81649 0.0
C2792 C 0.87767 0.06778 0.82901 0.0
C2793 C 0.8751 0.0436 0.84307 0.0
C2794 C 0.86572 0.0364 0.8464 0.0
H2795 H 0.84392 0.15991 0.83693 0.0
H2796 H 0.85535 0.14149 0.83183 0.0
H2797 H 0.84518 0.1224 0.82044 0.0
H2798 H 0.85632 0.08124 0.81034 0.0
H2799 H 0.87286 0.09608 0.80509 0.0
H2800 H 0.12345 0.87645 0.77436 0.0
H2801 H 0.10639 0.87537 0.77173 0.0
H2802 H 0.10901 0.80434 0.72469 0.0
H2803 H 0.1257 0.80306 0.7282 0.0
H2804 H 0.0988 0.91394 0.75003 0.0
H2805 H 0.08357 0.77539 0.7328 0.0
H2806 H 0.09431 0.77576 0.74535 0.0
H2807 H 0.09445 0.77061 0.72154 0.0
C2808 C 0.12028 0.85899 0.76403 0.0
C2809 C 0.12585 0.84076 0.75117 0.0
C2810 C 0.11051 0.85841 0.76248 0.0
C2811 C 0.10623 0.84035 0.74784 0.0
C2812 C 0.11187 0.81801 0.73637 0.0
H2813 H 0.1058 0.93448 0.66814 0.0
H2814 H 0.10196 0.92634 0.69897 0.0
C2815 C 0.12156 0.81783 0.73816 0.0
C2816 C 0.09687 0.85365 0.74144 0.0
H2817 H 0.08397 0.827 0.7058 0.0
C2818 C 0.09521 0.89448 0.74098 0.0
C2819 C 0.09133 0.82927 0.73048 0.0
C2820 C 0.09097 0.78529 0.73284 0.0
C2821 C 0.09029 0.91134 0.7269 0.0
C2822 C 0.08738 0.88688 0.7129 0.0
C2823 C 0.08682 0.84616 0.71589 0.0
C2824 C 0.08827 0.90052 0.69438 0.0
C2825 C 0.08945 0.95547 0.7259 0.0
C2826 C 0.08188 0.88906 0.68127 0.0
C2827 C 0.08416 0.89356 0.6634 0.0
C2828 C 0.09292 0.9089 0.65853 0.0
C2829 C 0.09901 0.92259 0.67158 0.0
C2830 C 0.09672 0.91841 0.68928 0.0
H2831 H 0.08718 0.96729 0.73886 0.0
H2832 H 0.0964 0.96849 0.72296 0.0
H2833 H 0.08438 0.96481 0.71563 0.0
H2834 H 0.07539 0.8747 0.68484 0.0
H2835 H 0.07937 0.88262 0.65348 0.0
H2836 H 0.07872 0.43161 0.67065 0.0
H2837 H 0.07454 0.43659 0.63925 0.0
H2838 H 0.10198 0.39348 0.62537 0.0
H2839 H 0.10606 0.38849 0.65628 0.0
H2840 H 0.08256 0.48567 0.61702 0.0
H2841 H 0.08726 0.34199 0.58726 0.0
H2842 H 0.08439 0.34711 0.61039 0.0
H2843 H 0.09644 0.34542 0.6032 0.0
C2844 C 0.08371 0.42204 0.6608 0.0
C2845 C 0.09273 0.40988 0.66575 0.0
C2846 C 0.08131 0.42482 0.64291 0.0
C2847 C 0.08785 0.41465 0.62988 0.0
C2848 C 0.09666 0.40028 0.63506 0.0
H2849 H 0.12374 0.51276 0.5925 0.0
H2850 H 0.10711 0.5094 0.5968 0.0
C2851 C 0.09907 0.39791 0.65278 0.0
C2852 C 0.08654 0.42579 0.61114 0.0
H2853 H 0.09771 0.39651 0.5741 0.0
C2854 C 0.08547 0.46592 0.60724 0.0
C2855 C 0.08955 0.40023 0.59763 0.0
C2856 C 0.08933 0.3562 0.59986 0.0
C2857 C 0.08956 0.48186 0.59201 0.0
C2858 C 0.0952 0.45727 0.58134 0.0
C2859 C 0.09402 0.41629 0.58286 0.0
C2860 C 0.10434 0.47148 0.57428 0.0
C2861 C 0.08875 0.52542 0.58869 0.0
C2862 C 0.10856 0.453 0.5597 0.0
C2863 C 0.1183 0.45383 0.55765 0.0
C2864 C 0.12389 0.47372 0.56998 0.0
C2865 C 0.11959 0.49675 0.58294 0.0
C2866 C 0.10994 0.49536 0.58519 0.0
H2867 H 0.08127 0.53413 0.58899 0.0
H2868 H 0.09229 0.54191 0.59942 0.0
H2869 H 0.09178 0.53402 0.57578 0.0
H2870 H 0.10446 0.43475 0.55092 0.0
H2871 H 0.12148 0.43623 0.54737 0.0
H2872 H 0.90853 0.11395 0.40094 0.0
H2873 H 0.91185 0.13077 0.37075 0.0
H2874 H 0.93554 0.20044 0.38748 0.0
H2875 H 0.93189 0.18424 0.41825 0.0
H2876 H 0.92566 0.24556 0.37024 0.0
H2877 H 0.92576 0.12024 0.3272 0.0
H2878 H 0.91695 0.10596 0.34257 0.0
H2879 H 0.92881 0.1141 0.35017 0.0
C2880 C 0.91468 0.1315 0.39815 0.0
C2881 C 0.91984 0.14837 0.41185 0.0
C2882 C 0.91671 0.14079 0.38072 0.0
C2883 C 0.92402 0.16697 0.37656 0.0
C2884 C 0.92987 0.18022 0.39024 0.0
H2885 H 0.88453 0.20397 0.30357 0.0
H2886 H 0.9016 0.2096 0.30489 0.0
C2887 C 0.92781 0.17087 0.40783 0.0
C2888 C 0.9237 0.18743 0.3592 0.0
H2889 H 0.91124 0.1678 0.32228 0.0
C2890 C 0.92289 0.22866 0.35931 0.0
C2891 C 0.92086 0.16702 0.34388 0.0
C2892 C 0.9233 0.12441 0.34095 0.0
C2893 C 0.91715 0.24776 0.34698 0.0
C2894 C 0.9118 0.22463 0.33519 0.0
C2895 C 0.91468 0.1856 0.33219 0.0
C2896 C 0.90188 0.23489 0.33112 0.0
C2897 C 0.91609 0.29181 0.34801 0.0
C2898 C 0.89622 0.24982 0.34478 0.0
C2899 C 0.88652 0.24737 0.34383 0.0
C2900 C 0.88224 0.22899 0.32945 0.0
C2901 C 0.88772 0.21775 0.31495 0.0
C2902 C 0.89748 0.22098 0.31572 0.0
H2903 H 0.92311 0.30577 0.34783 0.0
H2904 H 0.91189 0.30371 0.33689 0.0
H2905 H 0.91276 0.30007 0.3607 0.0
H2906 H 0.89921 0.25971 0.35709 0.0
H2907 H 0.88244 0.25666 0.35512 0.0
H2908 H 0.84281 0.77546 0.46006 0.0
H2909 H 0.8469 0.83776 0.44608 0.0
H2910 H 0.85025 0.77731 0.3964 0.0
H2911 H 0.84649 0.71529 0.41057 0.0
H2912 H 0.86408 0.83985 0.4375 0.0
H2913 H 0.8468 0.88685 0.37848 0.0
H2914 H 0.8405 0.85635 0.39397 0.0
H2915 H 0.8465 0.83474 0.37536 0.0
C2916 C 0.84394 0.77602 0.44594 0.0
C2917 C 0.84444 0.74082 0.43631 0.0
C2918 C 0.84623 0.81175 0.43793 0.0
C2919 C 0.84897 0.81259 0.42017 0.0
C2920 C 0.84809 0.77797 0.41007 0.0
H2921 H 0.87576 0.71895 0.37443 0.0
H2922 H 0.86663 0.77412 0.38515 0.0
C2923 C 0.84602 0.7422 0.41817 0.0
C2924 C 0.85565 0.84297 0.41389 0.0
H2925 H 0.86434 0.85764 0.37289 0.0
C2926 C 0.86406 0.8457 0.42344 0.0
C2927 C 0.85572 0.85428 0.39598 0.0
C2928 C 0.84682 0.8582 0.38552 0.0
C2929 C 0.87264 0.84617 0.41451 0.0
C2930 C 0.87256 0.84459 0.39592 0.0
C2931 C 0.86432 0.85557 0.38711 0.0
C2932 C 0.87838 0.81419 0.38726 0.0
C2933 C 0.88153 0.84022 0.42483 0.0
C2934 C 0.88808 0.81808 0.38498 0.0
C2935 C 0.89337 0.78594 0.37904 0.0
C2936 C 0.88901 0.74971 0.37537 0.0
C2937 C 0.87932 0.74633 0.37734 0.0
C2938 C 0.87408 0.77812 0.38324 0.0
H2939 H 0.88068 0.849 0.43885 0.0
H2940 H 0.88353 0.80868 0.42443 0.0
H2941 H 0.88731 0.85764 0.41895 0.0
H2942 H 0.89154 0.84556 0.38802 0.0
H2943 H 0.90085 0.78939 0.37731 0.0
H2944 H 0.59692 0.31847 0.64273 0.0
H2945 H 0.60489 0.26122 0.65494 0.0
H2946 H 0.62783 0.33565 0.67079 0.0
H2947 H 0.62024 0.39165 0.65727 0.0
H2948 H 0.62045 0.25185 0.63384 0.0
H2949 H 0.6333 0.23943 0.701 0.0
H2950 H 0.6214 0.25463 0.69615 0.0
H2951 H 0.6307 0.29047 0.69774 0.0
C2952 C 0.6034 0.32288 0.64977 0.0
C2953 C 0.60813 0.35902 0.64859 0.0
C2954 C 0.60795 0.29 0.65683 0.0
C2955 C 0.61707 0.29367 0.66343 0.0
C2956 C 0.62081 0.33169 0.66574 0.0
H2957 H 0.64303 0.39242 0.64996 0.0
H2958 H 0.63685 0.33202 0.63782 0.0
C2959 C 0.61645 0.36408 0.65801 0.0
C2960 C 0.62386 0.26102 0.6613 0.0
H2961 H 0.64577 0.25968 0.678 0.0
C2962 C 0.62595 0.2513 0.64369 0.0
C2963 C 0.63097 0.25617 0.674 0.0
C2964 C 0.62891 0.26025 0.69333 0.0
C2965 C 0.63529 0.25154 0.63799 0.0
C2966 C 0.64231 0.26123 0.65029 0.0
C2967 C 0.64029 0.25556 0.66828 0.0
C2968 C 0.64842 0.29551 0.64661 0.0
C2969 C 0.63741 0.25068 0.6186 0.0
C2970 C 0.65755 0.29639 0.65331 0.0
C2971 C 0.66122 0.33164 0.65983 0.0
C2972 C 0.65564 0.36568 0.6601 0.0
C2973 C 0.6474 0.36638 0.65016 0.0
C2974 C 0.64388 0.33151 0.64314 0.0
H2975 H 0.6327 0.22969 0.61177 0.0
H2976 H 0.63618 0.28031 0.61292 0.0
H2977 H 0.64481 0.24232 0.61618 0.0
H2978 H 0.66127 0.26928 0.65573 0.0
H2979 H 0.66775 0.3307 0.66702 0.0
H2980 H 0.62381 0.93549 0.54392 0.0
H2981 H 0.60775 0.92454 0.55353 0.0
H2982 H 0.61051 1.02037 0.59053 0.0
H2983 H 0.62623 1.03225 0.58039 0.0
H2984 H 0.60906 0.89486 0.58336 0.0
H2985 H 0.59434 1.03458 0.59765 0.0
H2986 H 0.58347 1.01022 0.59378 0.0
H2987 H 0.59189 1.01419 0.57609 0.0
C2988 C 0.62074 0.9558 0.55328 0.0
C2989 C 0.62633 0.98341 0.56213 0.0
C2990 C 0.61153 0.94957 0.55876 0.0
C2991 C 0.60798 0.97041 0.57331 0.0
C2992 C 0.61297 1.00343 0.57939 0.0
H2993 H 0.61607 0.92719 0.67039 0.0
H2994 H 0.61392 0.92719 0.63839 0.0
C2995 C 0.6221 1.01003 0.57373 0.0
C2996 C 0.60169 0.95024 0.58603 0.0
H2997 H 0.5895 0.97703 0.62266 0.0
C2998 C 0.6044 0.91229 0.59148 0.0
C2999 C 0.5953 0.97153 0.59659 0.0
C3000 C 0.59104 1.00971 0.5905 0.0
C3001 C 0.60246 0.89894 0.60853 0.0
C3002 C 0.59772 0.9241 0.62027 0.0
C3003 C 0.59349 0.95845 0.6138 0.0
C3004 C 0.59888 0.91968 0.63949 0.0
C3005 C 0.60636 0.85984 0.61441 0.0
C3006 C 0.59113 0.91563 0.65062 0.0
C3007 C 0.59238 0.91541 0.66888 0.0
C3008 C 0.60136 0.91994 0.67621 0.0
C3009 C 0.6091 0.92342 0.66505 0.0
C3010 C 0.60787 0.92321 0.64681 0.0
H3011 H 0.6067 0.83882 0.60321 0.0
H3012 H 0.61358 0.86411 0.61939 0.0
H3013 H 0.60206 0.8468 0.62512 0.0
H3014 H 0.58415 0.91335 0.64519 0.0
H3015 H 0.58627 0.91308 0.67726 0.0
H3016 H 0.42521 0.60938 0.42531 0.0
H3017 H 0.42467 0.55292 0.40532 0.0
H3018 H 0.39966 0.60054 0.38154 0.0
H3019 H 0.39987 0.65478 0.40213 0.0
H3020 H 0.40955 0.50802 0.41236 0.0
H3021 H 0.40771 0.52992 0.34165 0.0
H3022 H 0.41625 0.5553 0.35519 0.0
H3023 H 0.40486 0.57659 0.35119 0.0
C3024 C 0.41978 0.60824 0.41541 0.0
C3025 C 0.41231 0.6352 0.41577 0.0
C3026 C 0.41958 0.57627 0.40379 0.0
C3027 C 0.4121 0.57201 0.39195 0.0
C3028 C 0.40558 0.60296 0.39037 0.0
H3029 H 0.37492 0.60814 0.40309 0.0
H3030 H 0.38745 0.56066 0.40663 0.0
C3031 C 0.40563 0.63405 0.40231 0.0
C3032 C 0.40905 0.53238 0.38612 0.0
H3033 H 0.39163 0.51652 0.35684 0.0
C3034 C 0.40595 0.50775 0.39981 0.0
C3035 C 0.40476 0.5284 0.36947 0.0
C3036 C 0.4087 0.54865 0.35349 0.0
C3037 C 0.39689 0.492 0.39916 0.0
C3038 C 0.39125 0.50101 0.38445 0.0
C3039 C 0.39572 0.51239 0.36874 0.0
C3040 C 0.38197 0.51916 0.38746 0.0
C3041 C 0.39276 0.47394 0.4155 0.0
C3042 C 0.37441 0.51086 0.37632 0.0
C3043 C 0.36704 0.53777 0.37474 0.0
C3044 C 0.36742 0.57396 0.3837 0.0
C3045 C 0.37448 0.58042 0.3961 0.0
C3046 C 0.38163 0.55298 0.39816 0.0
H3047 H 0.39792 0.45396 0.42183 0.0
H3048 H 0.39109 0.49752 0.42512 0.0
H3049 H 0.38627 0.45737 0.41245 0.0
H3050 H 0.37465 0.48548 0.36774 0.0
H3051 H 0.36162 0.53219 0.36508 0.0
H3052 H 0.33636 0.12487 0.41818 0.0
H3053 H 0.3338 0.08985 0.39034 0.0
H3054 H 0.36179 0.04283 0.39325 0.0
H3055 H 0.36433 0.0773 0.42106 0.0
H3056 H 0.34296 0.10283 0.36094 0.0
H3057 H 0.34669 0.9486 0.37719 0.0
H3058 H 0.34713 0.98487 0.39462 0.0
H3059 H 0.35767 0.96891 0.38377 0.0
C3060 C 0.34196 0.10705 0.41282 0.0
C3061 C 0.35061 0.10428 0.42155 0.0
C3062 C 0.34043 0.08664 0.39709 0.0
C3063 C 0.3475 0.06284 0.38996 0.0
C3064 C 0.35611 0.05993 0.39879 0.0
H3065 H 0.38544 1.03172 0.34987 0.0
H3066 H 0.37002 1.0075 0.35547 0.0
C3067 C 0.35764 0.08029 0.41448 0.0
C3068 C 0.34667 0.04654 0.37194 0.0
H3069 H 0.35538 0.97009 0.34826 0.0
C3070 C 0.3455 0.07344 0.35812 0.0
C3071 C 0.34927 1.00742 0.36789 0.0
C3072 C 0.35016 0.97596 0.38179 0.0
C3073 C 0.34908 0.0652 0.34133 0.0
C3074 C 0.35406 1.02954 0.33878 0.0
C3075 C 0.3523 0.99872 0.35073 0.0
C3076 C 0.36376 1.03153 0.33151 0.0
C3077 C 0.34867 0.0971 0.32756 0.0
C3078 C 0.3659 0.05013 0.31541 0.0
C3079 C 0.37487 0.06564 0.31256 0.0
C3080 C 0.3818 0.06115 0.32549 0.0
C3081 C 0.3801 0.03686 0.34 0.0
C3082 C 0.37119 1.02242 0.34305 0.0
H3083 H 0.34319 0.11923 0.33065 0.0
H3084 H 0.35548 0.11269 0.32692 0.0
H3085 H 0.34707 0.08428 0.31446 0.0
H3086 H 0.36053 0.05542 0.30567 0.0
H3087 H 0.37617 0.08322 0.30091 0.0
H3088 H 0.61878 0.87783 0.16482 0.0
H3089 H 0.62585 0.81835 0.17604 0.0
H3090 H 0.6019 0.751 0.15897 0.0
H3091 H 0.59458 0.8118 0.14839 0.0
H3092 H 0.62453 0.74387 0.19376 0.0
H3093 H 0.62089 0.71422 0.12299 0.0
H3094 H 0.61492 0.75845 0.12953 0.0
H3095 H 0.61136 0.71167 0.13861 0.0
C3096 C 0.61476 0.85081 0.16446 0.0
C3097 C 0.60631 0.84904 0.15526 0.0
C3098 C 0.61881 0.81643 0.17082 0.0
C3099 C 0.61458 0.77962 0.16764 0.0
C3100 C 0.6054 0.7788 0.16117 0.0
H3101 H 0.66682 0.81303 0.17349 0.0
H3102 H 0.65892 0.75169 0.16547 0.0
C3103 C 0.60122 0.81362 0.15517 0.0
C3104 C 0.62082 0.74478 0.16643 0.0
H3105 H 0.63611 0.73864 0.13239 0.0
C3106 C 0.6271 0.74023 0.18043 0.0
C3107 C 0.62408 0.73496 0.14937 0.0
C3108 C 0.61744 0.72939 0.13422 0.0
C3109 C 0.63673 0.74364 0.17721 0.0
C3110 C 0.63982 0.74855 0.15953 0.0
C3111 C 0.63369 0.73783 0.14594 0.0
C3112 C 0.64655 0.78062 0.15565 0.0
C3113 C 0.64313 0.74992 0.1927 0.0
C3114 C 0.64277 0.81704 0.15041 0.0
C3115 C 0.64722 0.85195 0.15516 0.0
C3116 C 0.65548 0.85059 0.16505 0.0
C3117 C 0.66029 0.81464 0.16637 0.0
C3118 C 0.65576 0.77949 0.16192 0.0
H3119 H 0.63988 0.74034 0.20529 0.0
H3120 H 0.64963 0.73298 0.19069 0.0
H3121 H 0.64494 0.78158 0.19384 0.0
H3122 H 0.63573 0.81885 0.14517 0.0
H3123 H 0.64342 0.87935 0.15372 0.0
H3124 H 0.63333 0.45202 0.27423 0.0
H3125 H 0.6499 0.44878 0.26663 0.0
H3126 H 0.64525 0.53428 0.22537 0.0
H3127 H 0.62907 0.53921 0.23371 0.0
H3128 H 0.65101 0.41224 0.23913 0.0
H3129 H 0.67213 0.53942 0.22325 0.0
H3130 H 0.66337 0.54257 0.24037 0.0
H3131 H 0.66064 0.55585 0.21782 0.0
C3132 C 0.63603 0.47199 0.26433 0.0
C3133 C 0.62992 0.49441 0.2539 0.0
C3134 C 0.64553 0.47017 0.25996 0.0
C3135 C 0.64884 0.48983 0.24486 0.0
C3136 C 0.64304 0.51835 0.23698 0.0
H3137 H 0.64329 0.41592 0.15153 0.0
H3138 H 0.64535 0.42507 0.18329 0.0
C3139 C 0.63364 0.52082 0.2416 0.0
C3140 C 0.65611 0.47104 0.23362 0.0
H3141 H 0.66752 0.49647 0.19589 0.0
C3142 C 0.655 0.43057 0.23018 0.0
C3143 C 0.66178 0.49351 0.2221 0.0
C3144 C 0.66461 0.53515 0.22631 0.0
C3145 C 0.65761 0.41456 0.21394 0.0
C3146 C 0.66136 0.43961 0.20094 0.0
C3147 C 0.6642 0.47772 0.20563 0.0
C3148 C 0.66046 0.42981 0.18206 0.0
C3149 C 0.65541 0.372 0.21018 0.0
C3150 C 0.66825 0.42985 0.1709 0.0
C3151 C 0.66706 0.42441 0.15279 0.0
C3152 C 0.65806 0.4194 0.14561 0.0
C3153 C 0.65029 0.41912 0.15681 0.0
C3154 C 0.65148 0.42414 0.17491 0.0
H3155 H 0.65603 0.35397 0.22234 0.0
H3156 H 0.64809 0.36956 0.20544 0.0
H3157 H 0.66013 0.35976 0.19994 0.0
H3158 H 0.67519 0.43495 0.17614 0.0
H3159 H 0.67314 0.42611 0.14434 0.0
H3160 H 0.34015 0.25849 0.89949 0.0
H3161 H 0.34675 0.31816 0.91244 0.0
H3162 H 0.37059 0.25102 0.93016 0.0
H3163 H 0.36403 0.19238 0.91728 0.0
H3164 H 0.3707 0.32179 0.94674 0.0
H3165 H 0.36402 0.36239 0.87767 0.0
H3166 H 0.35501 0.36066 0.89428 0.0
H3167 H 0.35877 0.31608 0.8833 0.0
C3168 C 0.34653 0.25625 0.90705 0.0
C3169 C 0.35183 0.22143 0.90669 0.0
C3170 C 0.35036 0.29058 0.91432 0.0
C3171 C 0.35947 0.28999 0.92126 0.0
C3172 C 0.36367 0.25309 0.92443 0.0
H3173 H 0.38699 0.19516 0.90376 0.0
H3174 H 0.37908 0.2565 0.89721 0.0
C3175 C 0.35989 0.21907 0.9171 0.0
C3176 C 0.36578 0.32486 0.92 0.0
H3177 H 0.37963 0.3396 0.88428 0.0
C3178 C 0.37261 0.32829 0.93322 0.0
C3179 C 0.36827 0.338 0.90287 0.0
C3180 C 0.36111 0.34477 0.88872 0.0
C3181 C 0.38212 0.32861 0.92852 0.0
C3182 C 0.38449 0.32624 0.9104 0.0
C3183 C 0.37775 0.33797 0.8981 0.0
C3184 C 0.39072 0.29366 0.90495 0.0
C3185 C 0.38934 0.32266 0.94271 0.0
C3186 C 0.40028 0.29397 0.90898 0.0
C3187 C 0.40492 0.25843 0.91217 0.0
C3188 C 0.3999 0.22284 0.91185 0.0
C3189 C 0.39096 0.22229 0.90436 0.0
C3190 C 0.38642 0.25761 0.90073 0.0
H3191 H 0.38677 0.33284 0.95574 0.0
H3192 H 0.39107 0.2909 0.94379 0.0
H3193 H 0.39582 0.33897 0.93942 0.0
H3194 H 0.40381 0.32133 0.9118 0.0
H3195 H 0.41191 0.25946 0.91753 0.0
H3196 H 0.37281 0.56786 0.83058 0.0
H3197 H 0.35761 0.58997 0.84014 0.0
H3198 H 0.35844 0.68417 0.80194 0.0
H3199 H 0.37397 0.66258 0.79279 0.0
H3200 H 0.35954 0.7149 0.83167 0.0
H3201 H 0.33087 0.61227 0.83999 0.0
H3202 H 0.34093 0.58318 0.84497 0.0
H3203 H 0.3396 0.60406 0.82315 0.0
C3204 C 0.36954 0.59196 0.82354 0.0
C3205 C 0.37468 0.61455 0.81153 0.0
C3206 C 0.36071 0.60452 0.82888 0.0
C3207 C 0.35689 0.63958 0.82211 0.0
C3208 C 0.36128 0.65745 0.80759 0.0
H3209 H 0.33533 0.69427 0.92492 0.0
H3210 H 0.33322 0.70257 0.89307 0.0
C3211 C 0.37019 0.64506 0.80235 0.0
C3212 C 0.35077 0.66317 0.8339 0.0
H3213 H 0.337 0.64298 0.86934 0.0
C3214 C 0.35425 0.69992 0.83941 0.0
C3215 C 0.34354 0.64538 0.84383 0.0
C3216 C 0.33848 0.60923 0.83744 0.0
C3217 C 0.35219 0.71458 0.8562 0.0
C3218 C 0.34661 0.69179 0.86763 0.0
C3219 C 0.34163 0.65962 0.86081 0.0
C3220 C 0.34785 0.69426 0.88694 0.0
C3221 C 0.35683 0.75206 0.86222 0.0
C3222 C 0.35678 0.68724 0.89403 0.0
C3223 C 0.35797 0.68202 0.91212 0.0
C3224 C 0.35025 0.68375 0.92343 0.0
C3225 C 0.34139 0.69274 0.91646 0.0
C3226 C 0.34017 0.69759 0.8983 0.0
H3227 H 0.35734 0.77332 0.85113 0.0
H3228 H 0.35295 0.76596 0.87325 0.0
H3229 H 0.36406 0.74545 0.86668 0.0
H3230 H 0.36278 0.6836 0.88547 0.0
H3231 H 0.36487 0.6751 0.91715 0.0
H3232 H 0.96721 0.54804 0.06259 0.0
H3233 H 0.98332 0.52449 0.05992 0.0
H3234 H 0.98769 0.60188 1.01569 0.0
H3235 H 0.97164 0.62642 1.01858 0.0
H3236 H 0.99281 0.48758 0.03298 0.0
H3237 H 0.00959 0.63104 0.04734 0.0
H3238 H 0.99731 0.62223 0.05113 0.0
H3239 H 1.0015 0.6323 1.02924 0.0
C3240 C 0.97159 0.5603 0.05232 0.0
C3241 C 0.96806 0.58953 0.04091 0.0
C3242 C 0.98083 0.54659 0.05076 0.0
C3243 C 0.98687 0.56184 0.03783 0.0
C3244 C 0.98329 0.59014 1.02605 0.0
H3245 H 0.04541 0.52051 1.00959 0.0
H3246 H 0.02931 0.54401 1.01227 0.0
C3247 C 0.97403 0.60382 1.02757 0.0
C3248 C 0.99684 0.54795 0.03671 0.0
H3249 H 0.01962 0.57923 0.03849 0.0
C3250 C 0.99866 0.50766 0.03426 0.0
C3251 C 0.00456 0.57393 0.03836 0.0
C3252 C 1.00318 0.61723 0.04183 0.0
C3253 C 0.00787 0.49286 0.03305 0.0
C3254 C 0.0156 0.51883 0.03475 0.0
C3255 C 0.01377 0.55913 0.03721 0.0
C3256 C 0.02558 0.50495 0.03365 0.0
C3257 C 0.00922 0.4496 1.02944 0.0
C3258 C 0.02907 0.4757 0.04505 0.0
C3259 C 0.03832 0.4619 0.04347 0.0
C3260 C 0.04438 0.47711 1.03049 0.0
C3261 C 0.04095 0.50743 1.01954 0.0
C3262 C 0.03172 0.52114 1.02112 0.0
H3263 H 1.00285 0.43614 1.0236 0.0
H3264 H 0.01519 0.44458 1.02035 0.0
H3265 H 0.01071 0.43418 0.04202 0.0
H3266 H 0.02462 0.46327 0.05516 0.0
H3267 H 0.04062 0.43848 0.05211 0.0
H3268 H 0.2938 0.77189 0.06215 0.0
H3269 H 0.2777 0.79577 0.05979 0.0
H3270 H 0.27294 0.71807 1.01586 0.0
H3271 H 0.28897 0.69317 1.01845 0.0
H3272 H 0.26801 0.83258 0.03313 0.0
H3273 H 0.25129 0.68933 0.04814 0.0
H3274 H 0.26361 0.69806 0.05155 0.0
H3275 H 0.25922 0.68777 1.02982 0.0
C3276 C 0.28933 0.75965 0.05201 0.0
C3277 C 0.29274 0.73019 0.0406 0.0
C3278 C 0.2801 0.77355 0.05063 0.0
C3279 C 0.27396 0.75828 0.03788 0.0
C3280 C 0.27742 0.72982 1.02609 0.0
H3281 H 0.21576 0.79915 1.0088 0.0
H3282 H 0.23179 0.77555 1.01239 0.0
C3283 C 0.28667 0.71593 1.02743 0.0
C3284 C 0.26398 0.77223 0.037 0.0
H3285 H 0.24122 0.74094 0.03912 0.0
C3286 C 0.26216 0.81252 0.03453 0.0
C3287 C 0.25628 0.74628 0.03885 0.0
C3288 C 0.25766 0.70301 0.04241 0.0
C3289 C 0.25294 0.8273 0.0334 0.0
C3290 C 0.24523 0.80132 0.03519 0.0
C3291 C 0.24706 0.76105 0.03776 0.0
C3292 C 0.23524 0.815 0.03378 0.0
C3293 C 0.25157 0.87053 1.02971 0.0
C3294 C 0.2316 0.8444 0.04493 0.0
C3295 C 0.22237 0.85821 0.04284 0.0
C3296 C 0.21652 0.8429 1.02957 0.0
C3297 C 0.22007 0.81226 1.01896 0.0
C3298 C 0.22926 0.79853 1.02106 0.0
H3299 H 0.25796 0.88417 1.02408 0.0
H3300 H 0.24567 0.87535 1.02043 0.0
H3301 H 0.24993 0.88592 0.04223 0.0
H3302 H 0.23593 0.85702 0.05518 0.0
H3303 H 0.21994 0.88181 0.05124 0.0
H3304 H 0.04335 0.80037 0.31347 0.0
H3305 H 0.02743 0.77507 0.31027 0.0
H3306 H 0.02284 0.85326 0.2664 0.0
H3307 H 0.03876 0.87886 0.26956 0.0
H3308 H 0.01073 0.81319 0.31327 0.0
H3309 H 0.01355 0.75046 0.24611 0.0
H3310 H 0.02367 0.76525 0.25868 0.0
H3311 H 0.01676 0.80142 0.24726 0.0
C3312 C 0.03898 0.81223 0.30309 0.0
C3313 C 0.04244 0.8418 0.29177 0.0
C3314 C 0.02984 0.79759 0.30125 0.0
C3315 C 0.02387 0.81176 0.28796 0.0
C3316 C 0.02731 0.841 0.27652 0.0
H3317 H 0.96579 0.76728 0.25778 0.0
H3318 H 0.98171 0.79233 0.26127 0.0
C3319 C 0.03647 0.85567 0.27834 0.0
C3320 C 0.01398 0.79693 0.28656 0.0
H3321 H 0.9983 0.75378 0.2584 0.0
C3322 C 0.00804 0.80002 0.30128 0.0
C3323 C 0.01038 0.7797 0.27095 0.0
C3324 C 0.01643 0.77361 0.25489 0.0
C3325 C 0.99864 0.78725 0.30073 0.0
C3326 C 0.99503 0.77008 0.28511 0.0
C3327 C 1.00099 0.76694 0.27039 0.0
C3328 C 0.98512 0.75554 0.28363 0.0
C3329 C 0.99259 0.79334 0.31678 0.0
C3330 C 0.98159 0.72638 0.29503 0.0
C3331 C 0.97242 0.71187 0.29304 0.0
C3332 C 0.96655 0.72581 0.27948 0.0
C3333 C 0.97009 0.75537 0.26825 0.0
C3334 C 0.97923 0.76986 0.27026 0.0
H3335 H 0.99549 0.81636 0.32561 0.0
H3336 H 0.98536 0.80185 0.31299 0.0
H3337 H 0.99223 0.76547 0.32437 0.0
H3338 H 0.986 0.71404 0.30522 0.0
H3339 H 0.97006 0.68872 0.30177 0.0
H3340 H 0.29416 0.55569 0.25714 0.0
H3341 H 0.27816 0.53106 0.25969 0.0
H3342 H 0.27327 0.60917 0.30343 0.0
H3343 H 0.28923 0.63495 0.30059 0.0
H3344 H 0.26853 0.49396 0.28574 0.0
H3345 H 0.25145 0.63696 0.27177 0.0
H3346 H 0.2638 0.62904 0.26842 0.0
H3347 H 0.25933 0.63828 0.29018 0.0
C3348 C 0.28969 0.56789 0.26728 0.0
C3349 C 0.29304 0.59783 0.27852 0.0
C3350 C 0.28051 0.55354 0.26878 0.0
C3351 C 0.27433 0.56871 0.28149 0.0
C3352 C 0.27775 0.59751 0.29319 0.0
H3353 H 0.21599 0.52373 0.30932 0.0
H3354 H 0.23201 0.5479 0.30652 0.0
C3355 C 0.28697 0.6119 0.29172 0.0
C3356 C 0.26437 0.55431 0.28237 0.0
H3357 H 0.24151 0.58455 0.28031 0.0
C3358 C 0.26264 0.51383 0.28448 0.0
C3359 C 0.25659 0.57995 0.28069 0.0
C3360 C 0.25785 0.62342 0.27747 0.0
C3361 C 0.25345 0.49854 0.28536 0.0
C3362 C 0.24567 0.5242 0.2837 0.0
C3363 C 0.2474 0.56467 0.28156 0.0
C3364 C 0.2357 0.50991 0.28475 0.0
C3365 C 0.25219 0.45508 0.28858 0.0
C3366 C 0.23219 0.48104 0.27316 0.0
C3367 C 0.22296 0.46691 0.27478 0.0
C3368 C 0.21696 0.48131 0.28803 0.0
C3369 C 0.2204 0.51128 0.29915 0.0
C3370 C 0.22959 0.52537 0.29751 0.0
H3371 H 0.2586 0.44148 0.29419 0.0
H3372 H 0.24626 0.44949 0.29771 0.0
H3373 H 0.25065 0.44025 0.27588 0.0
H3374 H 0.23662 0.46917 0.26289 0.0
H3375 H 0.22063 0.44384 0.26599 0.0
H3376 H 0.78869 0.1989 1.02018 0.0
H3377 H 0.7727 0.22374 1.01686 0.0
H3378 H 0.77726 0.30452 0.05975 0.0
H3379 H 0.79332 0.28097 0.06272 0.0
H3380 H 0.75821 0.22208 0.04009 0.0
H3381 H 0.76596 0.37741 1.02372 0.0
H3382 H 0.77482 0.33965 1.02338 0.0
H3383 H 0.77131 0.36166 0.04391 0.0
C3384 C 0.78638 0.22256 1.02867 0.0
C3385 C 0.79241 0.2379 0.04168 0.0
C3386 C 0.77717 0.23654 1.02686 0.0
C3387 C 0.77371 0.26649 0.03788 0.0
C3388 C 0.77973 0.28203 0.05079 0.0
H3389 H 0.7194 0.3836 0.05103 0.0
H3390 H 0.73541 0.35893 0.05445 0.0
C3391 C 0.78893 0.26811 0.05262 0.0
C3392 C 0.76375 0.28033 0.03634 0.0
H3393 H 0.75013 0.36234 1.03062 0.0
C3394 C 0.75646 0.25274 0.03791 0.0
C3395 C 0.76137 0.32039 0.03356 0.0
C3396 C 0.76877 0.35145 1.03087 0.0
C3397 C 0.74697 0.26404 0.0371 0.0
C3398 C 0.74459 0.30408 0.03436 0.0
C3399 C 0.75188 0.33169 0.03281 0.0
C3400 C 0.73464 0.31784 0.03274 0.0
C3401 C 0.73955 0.233 0.03964 0.0
C3402 C 0.72876 0.30315 1.01941 0.0
C3403 C 0.71957 0.31708 1.01748 0.0
C3404 C 0.71596 0.34631 1.02877 0.0
C3405 C 0.72183 0.36071 0.04224 0.0
C3406 C 0.73105 0.34683 0.04412 0.0
H3407 H 0.74236 0.20666 0.04651 0.0
H3408 H 0.73355 0.24463 0.04733 0.0
H3409 H 0.73692 0.22348 1.02656 0.0
H3410 H 0.73135 0.28134 1.01023 0.0
H3411 H 0.71529 0.30503 1.00701 0.0
H3412 H 0.96336 0.24766 0.79975 0.0
H3413 H 0.97919 0.27471 0.80318 0.0
H3414 H 0.98931 0.1958 0.76311 0.0
H3415 H 0.97364 0.16828 0.75979 0.0
H3416 H 0.99652 0.23937 0.81185 0.0
H3417 H 0.99807 0.30264 0.74456 0.0
H3418 H 0.98727 0.28613 0.75442 0.0
H3419 H 0.99531 0.25114 0.74513 0.0
C3420 C 0.96896 0.23568 0.79179 0.0
C3421 C 0.96709 0.20596 0.7793 0.0
C3422 C 0.97803 0.25142 0.7937 0.0
C3423 C 0.98548 0.2381 0.78311 0.0
C3424 C 0.9837 0.20755 0.7711 0.0
H3425 H 0.04493 0.30144 0.77086 0.0
H3426 H 0.02922 0.27285 0.76799 0.0
C3427 C 0.97467 0.19176 0.76923 0.0
C3428 C 0.9951 0.25581 0.78462 0.0
H3429 H 0.01215 0.30358 0.76107 0.0
C3430 C 0.99991 0.2536 0.80076 0.0
C3431 C 0.99963 0.27424 0.77016 0.0
C3432 C 0.9948 0.27908 0.75262 0.0
C3433 C 0.00908 0.26845 0.80275 0.0
C3434 C 0.0136 0.28716 0.78832 0.0
C3435 C 0.00879 0.28931 0.77217 0.0
C3436 C 0.02321 0.30518 0.78981 0.0
C3437 C 0.01394 0.26281 0.82022 0.0
C3438 C 0.02515 0.33379 0.80268 0.0
C3439 C 0.03413 0.35012 0.80435 0.0
C3440 C 0.0415 0.33874 0.79309 0.0
C3441 C 0.03949 0.31104 0.77979 0.0
C3442 C 0.03047 0.29452 0.77818 0.0
H3443 H 0.01089 0.23787 0.82774 0.0
H3444 H 0.02154 0.25731 0.81843 0.0
H3445 H 0.01308 0.28978 0.82829 0.0
H3446 H 0.01967 0.34379 0.81146 0.0
H3447 H 0.03527 0.37208 0.81446 0.0
H3448 H 0.78652 0.64458 0.76125 0.0
H3449 H 0.77079 0.61774 0.76446 0.0
H3450 H 0.78058 0.54 0.80537 0.0
H3451 H 0.79645 0.56689 0.8022 0.0
H3452 H 0.7644 0.54399 0.75901 0.0
H3453 H 0.75748 0.58472 0.8285 0.0
H3454 H 0.76721 0.60458 0.81625 0.0
H3455 H 0.76789 0.556 0.82557 0.0
C3456 C 0.78538 0.62172 0.77097 0.0
C3457 C 0.79288 0.60783 0.78137 0.0
C3458 C 0.77631 0.60641 0.77282 0.0
C3459 C 0.77435 0.57687 0.78525 0.0
C3460 C 0.78177 0.56328 0.79589 0.0
H3461 H 0.72393 0.44299 0.81186 0.0
H3462 H 0.73968 0.46994 0.80924 0.0
C3463 C 0.79089 0.5787 0.79406 0.0
C3464 C 0.76463 0.55974 0.78648 0.0
H3465 H 0.74631 0.54334 0.81471 0.0
C3466 C 0.76045 0.54404 0.77121 0.0
C3467 C 0.75937 0.55954 0.80233 0.0
C3468 C 0.76316 0.57742 0.81907 0.0
C3469 C 0.75135 0.52776 0.77139 0.0
C3470 C 0.74608 0.52767 0.78723 0.0
C3471 C 0.75026 0.54328 0.80252 0.0
C3472 C 0.73632 0.5109 0.78837 0.0
C3473 C 0.74758 0.5098 0.75466 0.0
C3474 C 0.72899 0.52466 0.77755 0.0
C3475 C 0.71986 0.50922 0.77906 0.0
C3476 C 0.71776 0.47985 0.79157 0.0
C3477 C 0.72515 0.46601 0.80227 0.0
C3478 C 0.73423 0.48137 0.80074 0.0
H3479 H 0.75329 0.50216 0.74532 0.0
H3480 H 0.74347 0.48282 0.75749 0.0
H3481 H 0.74292 0.53131 0.74803 0.0
H3482 H 0.73027 0.54798 0.76814 0.0
H3483 H 0.71439 0.52106 0.77072 0.0
H3484 H 0.96495 0.04317 0.56045 0.0
H3485 H 0.98105 1.01962 0.55792 0.0
H3486 H 0.98608 0.10242 0.51597 0.0
H3487 H 0.97009 0.12728 0.51889 0.0
H3488 H 0.99083 0.9855 0.53161 0.0
H3489 H 0.00772 0.12744 0.54814 0.0
H3490 H 0.99535 0.11919 0.55105 0.0
H3491 H 0.99997 0.13049 0.52958 0.0
C3492 C 0.96948 0.05672 0.55075 0.0
C3493 C 0.96614 0.08761 0.54002 0.0
C3494 C 0.97871 0.04296 0.54925 0.0
C3495 C 0.98495 0.05968 0.53702 0.0
C3496 C 0.98156 0.08956 0.52585 0.0
H3497 H 0.04333 1.01617 0.50843 0.0
H3498 H 0.02726 0.0401 0.51114 0.0
C3499 C 0.97231 0.1034 0.52736 0.0
C3500 C 0.99492 0.04562 0.53598 0.0
H3501 H 0.01774 0.07624 0.53838 0.0
C3502 C 0.9967 1.00539 0.53318 0.0
C3503 C 1.00267 0.07132 0.53805 0.0
C3504 C 1.00136 0.11444 0.54204 0.0
C3505 C 0.0059 0.99043 0.53204 0.0
C3506 C 0.01364 1.01615 0.53404 0.0
C3507 C 0.01187 0.05637 0.53684 0.0
C3508 C 0.0236 1.00208 0.53293 0.0
C3509 C 0.00724 0.94726 0.52821 0.0
C3510 C 0.0271 0.97326 0.54453 0.0
C3511 C 0.03634 0.95938 0.54299 0.0
C3512 C 0.04236 0.97396 0.5298 0.0
C3513 C 0.03891 1.0037 0.51857 0.0
C3514 C 0.02969 1.01762 0.52016 0.0
H3515 H 1.00083 0.93381 0.52252 0.0
H3516 H 0.01313 0.94256 0.51892 0.0
H3517 H 0.00887 0.93162 0.54067 0.0
H3518 H 0.02266 0.96127 0.55476 0.0
H3519 H 0.03868 0.93639 0.55184 0.0
H3520 H 0.28691 0.19678 0.51995 0.0
H3521 H 0.27094 0.22221 0.51713 0.0
H3522 H 0.2762 0.30423 0.55926 0.0
H3523 H 0.29223 0.28003 0.56173 0.0
H3524 H 0.25672 0.22201 0.54115 0.0
H3525 H 0.26464 0.37631 0.52311 0.0
H3526 H 0.2734 0.33811 0.52263 0.0
H3527 H 0.27022 0.36101 0.54316 0.0
C3528 C 0.28476 0.22082 0.52838 0.0
C3529 C 0.29097 0.2363 0.54104 0.0
C3530 C 0.27555 0.23514 0.52685 0.0
C3531 C 0.2723 0.26561 0.53782 0.0
C3532 C 0.27851 0.28132 0.55036 0.0
H3533 H 0.21816 0.38593 0.5507 0.0
H3534 H 0.23415 0.36084 0.55455 0.0
C3535 C 0.28769 0.26704 0.5519 0.0
C3536 C 0.26236 0.27984 0.53661 0.0
H3537 H 0.24885 0.36212 0.53061 0.0
C3538 C 0.25503 0.25264 0.53874 0.0
C3539 C 0.26004 0.31986 0.53357 0.0
C3540 C 0.26748 0.35047 0.53032 0.0
C3541 C 0.24555 0.26429 0.5382 0.0
C3542 C 0.24323 0.30428 0.53512 0.0
C3543 C 0.25056 0.33152 0.53306 0.0
C3544 C 0.23329 0.31822 0.53344 0.0
C3545 C 0.2381 0.23366 0.54132 0.0
C3546 C 0.22739 0.30277 0.52034 0.0
C3547 C 0.21824 0.31694 0.51818 0.0
C3548 C 0.21469 0.34724 0.52897 0.0
C3549 C 0.22056 0.3623 0.54228 0.0
C3550 C 0.22976 0.34816 0.5444 0.0
H3551 H 0.24091 0.20781 0.54855 0.0
H3552 H 0.23214 0.24601 0.5489 0.0
H3553 H 0.23542 0.22317 0.52842 0.0
H3554 H 0.22992 0.28023 0.51147 0.0
H3555 H 0.21395 0.30436 0.50785 0.0
H3556 H 0.29331 0.05073 0.75719 0.0
H3557 H 0.2772 1.02695 0.7593 0.0
H3558 H 0.27177 0.10987 0.80098 0.0
H3559 H 0.28781 0.13473 0.79857 0.0
H3560 H 0.26712 0.99315 0.78588 0.0
H3561 H 0.25054 0.13457 0.76736 0.0
H3562 H 0.26291 0.12584 0.76484 0.0
H3563 H 0.25816 0.13815 0.78609 0.0
C3564 C 0.28869 0.06417 0.76677 0.0
C3565 C 0.29193 0.09509 0.77758 0.0
C3566 C 0.27945 0.05032 0.76802 0.0
C3567 C 0.27311 0.06704 0.78003 0.0
C3568 C 0.2764 0.09696 0.79128 0.0
H3569 H 0.21452 1.02767 0.80711 0.0
H3570 H 0.2306 0.05107 0.80403 0.0
C3571 C 0.28565 0.11083 0.79006 0.0
C3572 C 0.26312 0.05307 0.78073 0.0
H3573 H 0.24037 0.08384 0.77704 0.0
C3574 C 0.26128 1.01301 0.78386 0.0
C3575 C 0.25542 0.07873 0.77806 0.0
C3576 C 0.25682 0.12164 0.77373 0.0
C3577 C 0.25206 0.99822 0.78483 0.0
C3578 C 0.24435 1.02392 0.78223 0.0
C3579 C 0.2462 0.06395 0.77902 0.0
C3580 C 0.23435 1.01021 0.78338 0.0
C3581 C 0.25066 0.95533 0.78918 0.0
C3582 C 0.23088 0.98 0.77247 0.0
C3583 C 0.22162 0.96634 0.77426 0.0
C3584 C 0.21556 0.98256 0.78699 0.0
C3585 C 0.21897 1.01386 0.79737 0.0
C3586 C 0.2282 1.02748 0.79557 0.0
H3587 H 0.25699 0.94223 0.79532 0.0
H3588 H 0.24466 0.95124 0.79828 0.0
H3589 H 0.24917 0.93888 0.77687 0.0
H3590 H 0.23535 0.96669 0.76264 0.0
H3591 H 0.21931 0.94219 0.76604 0.0
H3592 H 0.72273 0.88129 0.50658 0.0
H3593 H 0.73843 0.85477 0.51011 0.0
H3594 H 0.72957 0.79176 0.5565 0.0
H3595 H 0.71361 0.81679 0.55252 0.0
H3596 H 0.75122 0.86209 0.5347 0.0
H3597 H 0.7421 0.70408 0.53014 0.0
H3598 H 0.73383 0.74249 0.52504 0.0
H3599 H 0.7361 0.72916 0.5476 0.0
C3600 C 0.72401 0.86124 0.51741 0.0
C3601 C 0.71673 0.85071 0.52905 0.0
C3602 C 0.73309 0.84632 0.51951 0.0
C3603 C 0.73526 0.82041 0.53336 0.0
C3604 C 0.7281 0.81076 0.54539 0.0
H3605 H 0.79309 0.76895 0.56516 0.0
H3606 H 0.77723 0.79458 0.5624 0.0
C3607 C 0.71896 0.8256 0.54324 0.0
C3608 C 0.74504 0.80435 0.53516 0.0
H3609 H 0.75779 0.7191 0.53779 0.0
C3610 C 0.75262 0.83078 0.53537 0.0
C3611 C 0.74701 0.76345 0.53573 0.0
C3612 C 0.73935 0.73309 0.53444 0.0
C3613 C 0.76198 0.81771 0.53627 0.0
C3614 C 0.76394 0.77687 0.53745 0.0
C3615 C 0.75637 0.75039 0.53705 0.0
C3616 C 0.77375 0.76108 0.53906 0.0
C3617 C 0.76969 0.84797 0.53545 0.0
C3618 C 0.77717 0.73273 0.52717 0.0
C3619 C 0.78627 0.71735 0.52889 0.0
C3620 C 0.79222 0.72968 0.54266 0.0
C3621 C 0.78877 0.75827 0.55447 0.0
C3622 C 0.77967 0.77346 0.55277 0.0
H3623 H 0.76728 0.87559 0.52908 0.0
H3624 H 0.77195 0.85534 0.54905 0.0
H3625 H 0.77584 0.83672 0.52807 0.0
H3626 H 0.77277 0.72236 0.5165 0.0
H3627 H 0.78855 0.69502 0.51968 0.0
H3628 H 0.72286 0.94593 0.31482 0.0
H3629 H 0.73868 0.97179 0.31237 0.0
H3630 H 0.73098 1.03338 0.26487 0.0
H3631 H 0.7149 1.00926 0.26778 0.0
H3632 H 0.75191 0.96254 0.28911 0.0
H3633 H 0.74342 0.12134 0.29083 0.0
H3634 H 0.73486 0.08393 0.29569 0.0
H3635 H 0.73767 0.09592 0.27319 0.0
C3636 C 0.72441 0.96564 0.304 0.0
C3637 C 0.71741 0.97592 0.2917 0.0
C3638 C 0.73356 0.98016 0.30251 0.0
C3639 C 0.73611 1.00539 0.28864 0.0
C3640 C 0.72923 1.01493 0.27602 0.0
H3641 H 0.79442 0.04931 0.25858 0.0
H3642 H 0.77847 1.02489 0.26156 0.0
C3643 C 0.72001 1.00057 0.27756 0.0
C3644 C 0.74599 1.02063 0.28733 0.0
H3645 H 0.75914 0.10466 0.28391 0.0
C3646 C 0.75345 0.99367 0.28801 0.0
C3647 C 0.74815 0.06132 0.28622 0.0
C3648 C 0.74061 0.09235 0.28662 0.0
C3649 C 0.76288 1.00597 0.28738 0.0
C3650 C 0.76504 0.04652 0.28555 0.0
C3651 C 0.75758 0.07356 0.28514 0.0
C3652 C 0.77493 0.0614 0.28393 0.0
C3653 C 0.77044 0.97523 0.28916 0.0
C3654 C 0.77837 0.09096 0.29522 0.0
C3655 C 0.78753 0.10567 0.29334 0.0
C3656 C 0.79351 0.09143 0.28002 0.0
C3657 C 0.79006 0.06149 0.2689 0.0
C3658 C 0.78092 0.047 0.27073 0.0
H3659 H 0.76783 0.94861 0.2961 0.0
H3660 H 0.77276 0.96604 0.27584 0.0
H3661 H 0.77658 0.9868 0.29647 0.0
H3662 H 0.77393 0.10288 0.30548 0.0
H3663 H 0.78981 0.12904 0.30202 0.0
H3664 H 0.4702 0.63186 0.51535 0.0
H3665 H 0.48613 0.60557 0.51282 0.0
H3666 H 0.4811 0.52992 0.5574 0.0
H3667 H 0.46515 0.55505 0.55967 0.0
H3668 H 0.5006 0.60856 0.5367 0.0
H3669 H 0.49226 0.45254 0.52299 0.0
H3670 H 0.4836 0.49099 0.52154 0.0
H3671 H 0.48676 0.47068 0.54262 0.0
C3672 C 0.4724 0.60904 0.5244 0.0
C3673 C 0.46629 0.59567 0.5377 0.0
C3674 C 0.48158 0.59422 0.52304 0.0
C3675 C 0.48488 0.56527 0.53478 0.0
C3676 C 0.47876 0.5516 0.54793 0.0
H3677 H 0.53845 0.44359 0.55175 0.0
H3678 H 0.52253 0.46994 0.5542 0.0
C3679 C 0.46961 0.56641 0.54932 0.0
C3680 C 0.4948 0.55052 0.53379 0.0
H3681 H 0.50809 0.46689 0.53026 0.0
C3682 C 0.50221 0.57759 0.53516 0.0
C3683 C 0.49702 0.51005 0.53189 0.0
C3684 C 0.4895 0.4794 0.52951 0.0
C3685 C 0.51166 0.5654 0.53506 0.0
C3686 C 0.51388 0.52493 0.53317 0.0
C3687 C 0.50647 0.49786 0.53179 0.0
C3688 C 0.5238 0.51016 0.53222 0.0
C3689 C 0.51919 0.59605 0.53744 0.0
C3690 C 0.52994 0.52377 0.51909 0.0
C3691 C 0.53909 0.50892 0.51774 0.0
C3692 C 0.54239 0.47969 0.52939 0.0
C3693 C 0.53627 0.46639 0.54267 0.0
C3694 C 0.52709 0.48124 0.544 0.0
H3695 H 0.51642 0.62294 0.54393 0.0
H3696 H 0.52508 0.58447 0.54544 0.0
H3697 H 0.52194 0.6047 0.52433 0.0
H3698 H 0.52761 0.54542 0.50959 0.0
H3699 H 0.54356 0.52022 0.5074 0.0
H3700 H 0.54341 0.79792 0.8114 0.0
H3701 H 0.52743 0.77333 0.80816 0.0
H3702 H 0.52258 0.85606 0.76611 0.0
H3703 H 0.53855 0.88106 0.76934 0.0
H3704 H 0.5107 0.81118 0.81237 0.0
H3705 H 0.51305 0.75558 0.74391 0.0
H3706 H 0.52327 0.76887 0.75655 0.0
H3707 H 0.51633 0.8063 0.74606 0.0
C3708 C 0.53898 0.81098 0.80141 0.0
C3709 C 0.54239 0.84165 0.79063 0.0
C3710 C 0.5298 0.79672 0.79955 0.0
C3711 C 0.52372 0.81234 0.78676 0.0
C3712 C 0.52712 0.84269 0.77584 0.0
H3713 H 0.46551 0.7723 0.75623 0.0
H3714 H 0.48149 0.79624 0.76019 0.0
C3715 C 0.53631 0.85701 0.7777 0.0
C3716 C 0.5138 0.79775 0.78528 0.0
H3717 H 0.49788 0.75798 0.75656 0.0
C3718 C 0.50793 0.79935 0.80017 0.0
C3719 C 0.51007 0.78224 0.7694 0.0
C3720 C 0.51602 0.77773 0.75311 0.0
C3721 C 0.4985 0.78691 0.79954 0.0
C3722 C 0.49477 0.77151 0.78364 0.0
C3723 C 0.50065 0.76977 0.76877 0.0
C3724 C 0.48478 0.75764 0.78199 0.0
C3725 C 0.49255 0.79154 0.81582 0.0
C3726 C 0.48112 0.72787 0.79294 0.0
C3727 C 0.4719 0.71402 0.79071 0.0
C3728 C 0.4661 0.72921 0.77731 0.0
C3729 C 0.46975 0.75942 0.76656 0.0
C3730 C 0.47893 0.77326 0.76883 0.0
H3731 H 0.49554 0.8136 0.82503 0.0
H3732 H 0.48532 0.80059 0.81236 0.0
H3733 H 0.4922 0.76296 0.82286 0.0
H3734 H 0.48548 0.71449 0.80296 0.0
H3735 H 0.46944 0.69038 0.79907 0.0
H3736 H 0.53564 0.38287 0.30945 0.0
H3737 H 0.52016 0.35412 0.3052 0.0
H3738 H 0.53118 0.27846 0.26467 0.0
H3739 H 0.54683 0.30647 0.26922 0.0
H3740 H 0.50852 0.35131 0.27668 0.0
H3741 H 0.51804 0.19931 0.29633 0.0
H3742 H 0.52565 0.24074 0.30018 0.0
H3743 H 0.52493 0.219 0.27863 0.0
C3744 C 0.53483 0.35983 0.29972 0.0
C3745 C 0.5426 0.34669 0.28989 0.0
C3746 C 0.52591 0.34353 0.29722 0.0
C3747 C 0.52444 0.3134 0.28486 0.0
C3748 C 0.53211 0.30096 0.2746 0.0
H3749 H 0.47485 0.17666 0.25523 0.0
H3750 H 0.49051 0.20456 0.25835 0.0
C3751 C 0.54107 0.31739 0.27707 0.0
C3752 C 0.51486 0.29556 0.28276 0.0
H3753 H 0.50265 0.20899 0.28569 0.0
C3754 C 0.50725 0.32018 0.27869 0.0
C3755 C 0.51312 0.25489 0.28536 0.0
C3756 C 0.52083 0.22691 0.29052 0.0
C3757 C 0.49807 0.30539 0.2769 0.0
C3758 C 0.4963 0.26477 0.27965 0.0
C3759 C 0.50392 0.24009 0.28362 0.0
C3760 C 0.48666 0.24725 0.27818 0.0
C3761 C 0.49038 0.33342 0.27163 0.0
C3762 C 0.47917 0.26106 0.28854 0.0
C3763 C 0.47012 0.24525 0.28669 0.0
C3764 C 0.46828 0.21498 0.27447 0.0
C3765 C 0.47587 0.20041 0.26453 0.0
C3766 C 0.4849 0.21622 0.26639 0.0
H3767 H 0.49321 0.36028 0.26522 0.0
H3768 H 0.48537 0.31919 0.26245 0.0
H3769 H 0.4865 0.34273 0.28359 0.0
H3770 H 0.48031 0.28425 0.29808 0.0
H3771 H 0.46451 0.25748 0.29456 0.0
H3772 H 0.47016 0.13313 1.01483 0.0
H3773 H 0.48619 0.10807 1.01208 0.0
H3774 H 0.48134 1.02897 0.05552 0.0
H3775 H 0.46529 0.05302 0.05802 0.0
H3776 H 0.50053 0.11028 0.03666 0.0
H3777 H 0.49285 0.95525 1.01958 0.0
H3778 H 0.48409 0.99339 1.01852 0.0
H3779 H 0.48712 0.97143 0.03933 0.0
C3780 C 0.47243 0.10982 1.02357 0.0
C3781 C 0.46635 0.09513 0.03662 0.0
C3782 C 0.48166 0.09571 1.02208 0.0
C3783 C 0.48503 0.0662 0.03345 0.0
C3784 C 0.47893 0.05117 0.04634 0.0
H3785 H 0.5387 0.94575 0.04909 0.0
H3786 H 0.52269 0.97103 0.05155 0.0
C3787 C 0.46974 0.06531 0.04787 0.0
C3788 C 0.49499 0.05224 1.03235 0.0
H3789 H 0.50858 0.96998 1.02727 0.0
C3790 C 0.50228 0.07962 0.03448 0.0
C3791 C 0.49736 1.01219 1.02962 0.0
C3792 C 0.48995 0.98138 1.02646 0.0
C3793 C 0.51177 0.06808 0.03432 0.0
C3794 C 0.51414 1.02801 1.03159 0.0
C3795 C 0.50685 1.00064 1.02943 0.0
C3796 C 0.5241 1.01394 1.03065 0.0
C3797 C 0.51916 0.09889 0.0376 0.0
C3798 C 0.53034 1.02944 1.01812 0.0
C3799 C 0.53955 1.01526 1.01679 0.0
C3800 C 0.5428 0.98481 1.02785 0.0
C3801 C 0.53655 0.96956 0.04051 0.0
C3802 C 0.52734 0.98379 0.04183 0.0
H3803 H 0.51625 0.12482 0.04461 0.0
H3804 H 0.52505 0.0868 0.04546 0.0
H3805 H 0.52196 0.10921 1.02477 0.0
H3806 H 0.52805 0.0521 1.00906 0.0
H3807 H 0.54411 1.02805 1.00694 0.0
H3808 H 0.06738 0.53079 0.10711 0.0
H3809 H 0.06382 0.59453 0.12092 0.0
H3810 H 0.08791 0.58209 0.15461 0.0
H3811 H 0.09152 0.51899 0.14102 0.0
H3812 H 0.06075 0.61553 0.15753 0.0
H3813 H 0.09205 0.6889 0.1296 0.0
H3814 H 0.08763 0.64278 0.12123 0.0
H3815 H 0.09461 0.64379 0.14094 0.0
C3816 C 0.07187 0.54151 0.11756 0.0
C3817 C 0.07977 0.51983 0.12284 0.0
C3818 C 0.06983 0.57796 0.12541 0.0
C3819 C 0.0757 0.59343 0.13856 0.0
C3820 C 0.08339 0.57117 0.14424 0.0
H3821 H 0.07031 0.7735 0.21739 0.0
H3822 H 0.07001 0.71292 0.20011 0.0
C3823 C 0.08541 0.5349 0.13648 0.0
C3824 C 0.07395 0.63293 0.14637 0.0
H3825 H 0.08422 0.72256 0.15287 0.0
C3826 C 0.06582 0.6391 0.15636 0.0
C3827 C 0.08051 0.6639 0.14466 0.0
C3828 C 0.08915 0.65977 0.13339 0.0
C3829 C 0.06428 0.67483 0.16529 0.0
C3830 C 0.07109 0.70503 0.16435 0.0
C3831 C 0.07902 0.69938 0.15375 0.0
C3832 C 0.07035 0.74209 0.17476 0.0
C3833 C 0.05536 0.67988 0.17567 0.0
C3834 C 0.07069 0.77888 0.16634 0.0
C3835 C 0.07088 0.81371 0.17621 0.0
C3836 C 0.07084 0.81251 0.19476 0.0
C3837 C 0.07027 0.77564 0.20315 0.0
C3838 C 0.07006 0.74087 0.19326 0.0
H3839 H 0.04977 0.65992 0.17084 0.0
H3840 H 0.05672 0.67262 0.1897 0.0
H3841 H 0.0528 0.71067 0.17496 0.0
H3842 H 0.07099 0.78063 0.15209 0.0
H3843 H 0.07136 0.84149 0.16928 0.0
H3844 H 0.16352 0.5088 0.17869 0.0
H3845 H 0.1656 0.57022 0.16258 0.0
H3846 H 0.19072 0.59423 0.1921 0.0
H3847 H 0.18859 0.53272 0.20862 0.0
H3848 H 0.17943 0.6584 0.19053 0.0
H3849 H 0.18339 0.59814 0.1233 0.0
H3850 H 0.17292 0.58086 0.13376 0.0
H3851 H 0.18415 0.56767 0.14274 0.0
C3852 C 0.16957 0.52678 0.18167 0.0
C3853 C 0.17592 0.5155 0.19494 0.0
C3854 C 0.17078 0.56195 0.17232 0.0
C3855 C 0.17841 0.58675 0.17583 0.0
C3856 C 0.1848 0.57554 0.18901 0.0
H3857 H 0.18868 0.79252 0.10723 0.0
H3858 H 0.19079 0.73096 0.12373 0.0
C3859 C 0.1836 0.54025 0.19842 0.0
C3860 C 0.17937 0.62521 0.16637 0.0
H3861 H 0.17952 0.66675 0.12525 0.0
C3862 C 0.17956 0.66015 0.17625 0.0
C3863 C 0.17969 0.62779 0.14772 0.0
C3864 C 0.18013 0.59159 0.13627 0.0
C3865 C 0.17967 0.69736 0.16806 0.0
C3866 C 0.1794 0.69995 0.14941 0.0
C3867 C 0.17962 0.665 0.13953 0.0
C3868 C 0.17846 0.7384 0.13995 0.0
C3869 C 0.18009 0.73355 0.17952 0.0
C3870 C 0.17082 0.76319 0.14343 0.0
C3871 C 0.16964 0.79839 0.1341 0.0
C3872 C 0.176 0.80971 0.12087 0.0
C3873 C 0.18368 0.78497 0.1174 0.0
C3874 C 0.18487 0.74964 0.1268 0.0
H3875 H 0.18333 0.72699 0.19251 0.0
H3876 H 0.18412 0.75749 0.17308 0.0
H3877 H 0.17288 0.74425 0.182 0.0
H3878 H 0.16563 0.7549 0.15312 0.0
H3879 H 0.16358 0.81635 0.13705 0.0
H3880 H 0.92301 0.55144 0.92604 0.0
H3881 H 0.92518 0.4879 0.91205 0.0
H3882 H 0.94607 0.4575 0.95075 0.0
H3883 H 0.94371 0.5215 0.96531 0.0
H3884 H 0.93971 0.45136 0.89687 0.0
H3885 H 0.92782 0.36653 0.95543 0.0
H3886 H 0.92663 0.41924 0.95399 0.0
H3887 H 0.93781 0.39767 0.95881 0.0
C3888 C 0.92813 0.53148 0.93159 0.0
C3889 C 0.93312 0.5415 0.94694 0.0
C3890 C 0.92938 0.49504 0.9235 0.0
C3891 C 0.93566 0.46743 0.93047 0.0
C3892 C 0.94103 0.47794 0.94532 0.0
H3893 H 0.94179 0.25174 0.86572 0.0
H3894 H 0.94596 0.31047 0.88276 0.0
C3895 C 0.93976 0.51469 0.95352 0.0
C3896 C 0.93616 0.42754 0.92228 0.0
H3897 H 0.93102 0.33068 0.9297 0.0
C3898 C 0.93793 0.42485 0.9041 0.0
C3899 C 0.93372 0.39299 0.93165 0.0
C3900 C 0.93131 0.39403 0.95101 0.0
C3901 C 0.93697 0.38913 0.89491 0.0
C3902 C 0.93444 0.3546 0.90424 0.0
C3903 C 0.93301 0.357 0.92255 0.0
C3904 C 0.93237 0.31671 0.89505 0.0
C3905 C 0.93814 0.38934 0.87513 0.0
C3906 C 0.92351 0.29935 0.89687 0.0
C3907 C 0.92117 0.26542 0.88742 0.0
C3908 C 0.92763 0.24799 0.87581 0.0
C3909 C 0.93662 0.26455 0.87443 0.0
C3910 C 0.93899 0.29836 0.88407 0.0
H3911 H 0.93783 0.4196 0.86962 0.0
H3912 H 0.94507 0.37675 0.87172 0.0
H3913 H 0.93266 0.37131 0.86866 0.0
H3914 H 0.91827 0.31274 0.90526 0.0
H3915 H 0.91418 0.25358 0.88883 0.0
H3916 H 0.81553 0.29841 0.96575 0.0
H3917 H 0.8132 0.36207 0.95095 0.0
H3918 H 0.83264 0.32755 0.91036 0.0
H3919 H 0.83477 0.26425 0.92461 0.0
H3920 H 0.82566 0.41904 0.94506 0.0
H3921 H 0.81216 0.37134 0.88052 0.0
H3922 H 0.81271 0.33852 0.89919 0.0
H3923 H 0.82284 0.34605 0.88543 0.0
C3924 C 0.81914 0.30413 0.95346 0.0
C3925 C 0.8253 0.27606 0.94635 0.0
C3926 C 0.81783 0.3406 0.94504 0.0
C3927 C 0.82262 0.34953 0.92931 0.0
C3928 C 0.82865 0.32119 0.92215 0.0
H3929 H 0.84426 0.56527 0.88951 0.0
H3930 H 0.84016 0.50626 0.90595 0.0
C3931 C 0.82992 0.28493 0.93045 0.0
C3932 C 0.82198 0.38927 0.92098 0.0
H3933 H 0.81996 0.43475 0.88096 0.0
C3934 C 0.82424 0.42253 0.93111 0.0
C3935 C 0.81994 0.3943 0.90283 0.0
C3936 C 0.81667 0.36065 0.89144 0.0
C3937 C 0.82508 0.46004 0.9234 0.0
C3938 C 0.82389 0.46438 0.90494 0.0
C3939 C 0.82105 0.43157 0.89504 0.0
C3940 C 0.82611 0.50184 0.8955 0.0
C3941 C 0.82728 0.49456 0.93518 0.0
C3942 C 0.8197 0.51881 0.88364 0.0
C3943 C 0.8221 0.55247 0.8739 0.0
C3944 C 0.83097 0.5699 0.87583 0.0
C3945 C 0.83732 0.55305 0.88783 0.0
C3946 C 0.83495 0.51932 0.8974 0.0
H3947 H 0.82455 0.48973 0.94872 0.0
H3948 H 0.83498 0.49795 0.93619 0.0
H3949 H 0.82427 0.52231 0.92994 0.0
H3950 H 0.81286 0.50578 0.88179 0.0
H3951 H 0.81706 0.56453 0.86472 0.0
H3952 H 0.08829 0.30501 0.67969 0.0
H3953 H 0.08414 0.24612 0.66334 0.0
H3954 H 0.05964 0.23107 0.69577 0.0
H3955 H 0.06388 0.29034 0.7126 0.0
H3956 H 0.06979 0.16366 0.69337 0.0
H3957 H 0.06476 0.22266 0.62636 0.0
H3958 H 0.07571 0.23898 0.63524 0.0
H3959 H 0.06494 0.25393 0.6456 0.0
C3960 C 0.08193 0.2896 0.68326 0.0
C3961 C 0.07643 0.30236 0.69752 0.0
C3962 C 0.07951 0.25602 0.67373 0.0
C3963 C 0.07149 0.23436 0.67808 0.0
C3964 C 0.06582 0.24749 0.69206 0.0
H3965 H 0.06483 1.02573 0.60939 0.0
H3966 H 0.06019 0.08467 0.62607 0.0
C3967 C 0.06823 0.28142 0.70162 0.0
C3968 C 0.06967 0.19625 0.66901 0.0
H3969 H 0.06963 0.15408 0.62813 0.0
C3970 C 0.06953 0.16163 0.67911 0.0
C3971 C 0.06915 0.19334 0.65041 0.0
C3972 C 0.06854 0.2293 0.63881 0.0
C3973 C 0.06963 0.12433 0.6711 0.0
C3974 C 0.07007 0.12153 0.65249 0.0
C3975 C 0.06944 0.15607 0.64239 0.0
C3976 C 0.07223 0.08379 0.64337 0.0
C3977 C 0.06953 0.0883 0.68271 0.0
C3978 C 0.08051 0.06367 0.64752 0.0
C3979 C 0.08315 1.03026 0.63808 0.0
C3980 C 0.07762 1.01615 0.6241 0.0
C3981 C 0.06921 0.03571 0.62014 0.0
C3982 C 0.06657 0.06943 0.62963 0.0
H3983 H 0.06579 0.09418 0.69527 0.0
H3984 H 0.06614 0.06299 0.67602 0.0
H3985 H 0.07682 0.08004 0.68605 0.0
H3986 H 0.08513 0.07458 0.65772 0.0
H3987 H 0.08968 1.01599 0.64152 0.0
H3988 H 0.18764 1.03167 0.70791 0.0
H3989 H 0.1895 0.09375 0.69172 0.0
H3990 H 0.16386 0.07098 0.66361 0.0
H3991 H 0.16208 1.00887 0.67932 0.0
H3992 H 0.17701 0.09959 0.6417 0.0
H3993 H 0.17502 0.19366 0.70135 0.0
H3994 H 0.18426 0.15794 0.70183 0.0
H3995 H 0.17228 0.14189 0.7018 0.0
C3996 C 0.18244 0.03975 0.69818 0.0
C3997 C 0.17469 1.01517 0.695 0.0
C3998 C 0.18346 0.07548 0.68902 0.0
C3999 C 0.17673 0.08762 0.67662 0.0
C4000 C 0.16915 0.06254 0.67311 0.0
H4001 H 0.16227 0.318 0.63805 0.0
H4002 H 0.16415 0.25571 0.65358 0.0
C4003 C 0.16814 1.02688 0.68216 0.0
C4004 C 0.1774 0.12645 0.66737 0.0
H4005 H 0.17769 0.22594 0.67427 0.0
C4006 C 0.17722 0.12721 0.64884 0.0
C4007 C 0.17753 0.16266 0.67662 0.0
C4008 C 0.1772 0.16422 0.69649 0.0
C4009 C 0.17706 0.16287 0.63936 0.0
C4010 C 0.17731 0.19909 0.6486 0.0
C4011 C 0.1776 0.19832 0.66713 0.0
C4012 C 0.17658 0.23797 0.63941 0.0
C4013 C 0.17622 0.16134 0.61954 0.0
C4014 C 0.18305 0.24955 0.62641 0.0
C4015 C 0.18196 0.28537 0.61736 0.0
C4016 C 0.17443 0.31062 0.62124 0.0
C4017 C 0.16816 0.29947 0.63466 0.0
C4018 C 0.16923 0.26371 0.6436 0.0
H4019 H 0.17379 0.1321 0.61489 0.0
H4020 H 0.17129 0.18409 0.61465 0.0
H4021 H 0.18318 0.16701 0.61357 0.0
H4022 H 0.18892 0.23078 0.62316 0.0
H4023 H 0.18694 0.29301 0.60716 0.0
H4024 H 0.94427 0.03994 0.4606 0.0
H4025 H 0.94893 0.98059 0.44419 0.0
H4026 H 0.92308 0.98512 0.41497 0.0
H4027 H 0.91853 0.04408 0.43082 0.0
H4028 H 0.94016 0.90971 0.44384 0.0
H4029 H 0.94137 0.96595 0.37575 0.0
H4030 H 0.94125 0.9983 0.39462 0.0
H4031 H 0.93047 0.97878 0.3859 0.0
C4032 C 0.9397 1.02867 0.45041 0.0
C4033 C 0.93103 0.04674 0.44705 0.0
C4034 C 0.94234 0.99469 0.44109 0.0
C4035 C 0.93643 0.97862 0.42811 0.0
C4036 C 0.92789 0.99732 0.42455 0.0
H4037 H 0.92275 0.74884 0.39603 0.0
H4038 H 0.92614 0.80993 0.4114 0.0
C4039 C 0.92525 1.03097 0.4338 0.0
C4040 C 0.93864 0.94064 0.41921 0.0
H4041 H 0.93808 0.89609 0.37886 0.0
C4042 C 0.93991 0.90685 0.42961 0.0
C4043 C 0.93851 0.93673 0.40063 0.0
C4044 C 0.93793 0.972 0.3886 0.0
C4045 C 0.94036 0.86916 0.422 0.0
C4046 C 0.9393 0.86499 0.40352 0.0
C4047 C 0.93873 0.89901 0.39305 0.0
C4048 C 0.93792 0.8259 0.39496 0.0
C4049 C 0.9418 0.83417 0.43392 0.0
C4050 C 0.9433 0.81442 0.38031 0.0
C4051 C 0.94129 0.77937 0.37128 0.0
C4052 C 0.93383 0.75523 0.37667 0.0
C4053 C 0.92861 0.7664 0.39157 0.0
C4054 C 0.93059 0.80136 0.40051 0.0
H4055 H 0.94588 0.84245 0.44582 0.0
H4056 H 0.9349 0.82316 0.43842 0.0
H4057 H 0.94551 0.80995 0.42702 0.0
H4058 H 0.94894 0.83297 0.37565 0.0
H4059 H 0.94541 0.77181 0.35979 0.0
H4060 H 0.82253 0.80327 0.47169 0.0
H4061 H 0.82306 0.86621 0.4561 0.0
H4062 H 0.82033 0.80585 0.40645 0.0
H4063 H 0.81981 0.74261 0.42191 0.0
H4064 H 0.83698 0.88558 0.42926 0.0
H4065 H 0.80055 0.89689 0.40425 0.0
H4066 H 0.8037 0.86584 0.42266 0.0
H4067 H 0.8064 0.85077 0.40058 0.0
C4068 C 0.82184 0.8033 0.45748 0.0
C4069 C 0.82105 0.7677 0.44809 0.0
C4070 C 0.82219 0.83939 0.44858 0.0
C4071 C 0.82165 0.84084 0.43012 0.0
C4072 C 0.8206 0.80553 0.42072 0.0
H4073 H 0.82418 1.02961 0.35224 0.0
H4074 H 0.82179 0.96769 0.3681 0.0
C4075 C 0.82029 0.76935 0.4296 0.0
C4076 C 0.82274 0.87901 0.42069 0.0
H4077 H 0.81129 0.94491 0.39437 0.0
C4078 C 0.83137 0.89855 0.42165 0.0
C4079 C 0.81543 0.89588 0.41067 0.0
C4080 C 0.80596 0.87655 0.40951 0.0
C4081 C 0.83299 0.9338 0.41244 0.0
C4082 C 0.82562 0.95131 0.40268 0.0
C4083 C 0.81695 0.93179 0.40185 0.0
C4084 C 0.82677 0.98962 0.3932 0.0
C4085 C 0.84273 0.95093 0.41274 0.0
C4086 C 0.83013 1.02315 0.40203 0.0
C4087 C 0.83164 0.05842 0.3929 0.0
C4088 C 0.82958 0.06138 0.37482 0.0
C4089 C 0.82581 1.0284 0.36617 0.0
C4090 C 0.82446 0.9929 0.37524 0.0
H4091 H 0.84806 0.92817 0.41583 0.0
H4092 H 0.84455 0.9646 0.39989 0.0
H4093 H 0.84315 0.97376 0.42315 0.0
H4094 H 0.83164 1.02205 0.41599 0.0
H4095 H 0.83446 0.08336 0.4 0.0
H4096 H 0.56229 0.5222 0.61308 0.0
H4097 H 0.55778 0.58171 0.62929 0.0
H4098 H 0.58348 0.5757 0.65898 0.0
H4099 H 0.58783 0.5159 0.64342 0.0
H4100 H 0.56921 0.59652 0.67976 0.0
H4101 H 0.56886 0.68793 0.6189 0.0
H4102 H 0.5608 0.64747 0.61917 0.0
H4103 H 0.57317 0.63813 0.61905 0.0
C4104 C 0.56692 0.5334 0.62319 0.0
C4105 C 0.57545 0.51447 0.62685 0.0
C4106 C 0.56437 0.56757 0.63237 0.0
C4107 C 0.57038 0.5837 0.64513 0.0
C4108 C 0.57872 0.56394 0.64919 0.0
H4109 H 0.5862 0.80612 0.67803 0.0
H4110 H 0.58187 0.7453 0.66348 0.0
C4111 C 0.58122 0.5297 0.64022 0.0
C4112 C 0.56836 0.62198 0.65384 0.0
H4113 H 0.56679 0.7206 0.64573 0.0
C4114 C 0.56854 0.62366 0.67234 0.0
C4115 C 0.56751 0.65738 0.64413 0.0
C4116 C 0.56764 0.65792 0.62423 0.0
C4117 C 0.56848 0.65976 0.68137 0.0
C4118 C 0.56795 0.69521 0.67162 0.0
C4119 C 0.56716 0.69339 0.65318 0.0
C4120 C 0.56977 0.73415 0.67988 0.0
C4121 C 0.56966 0.65962 0.70114 0.0
C4122 C 0.56427 0.74895 0.69375 0.0
C4123 C 0.56682 0.78394 0.70235 0.0
C4124 C 0.57485 0.80471 0.69707 0.0
C4125 C 0.58002 0.79076 0.6826 0.0
C4126 C 0.57752 0.75594 0.67416 0.0
H4127 H 0.57162 0.63011 0.70625 0.0
H4128 H 0.57512 0.68099 0.70521 0.0
H4129 H 0.56298 0.66837 0.70743 0.0
H4130 H 0.55813 0.7331 0.69815 0.0
H4131 H 0.56267 0.79407 0.71338 0.0
H4132 H 0.69027 0.81196 0.61475 0.0
H4133 H 0.69295 0.75116 0.63142 0.0
H4134 H 0.66409 0.75131 0.64801 0.0
H4135 H 0.66149 0.81261 0.63208 0.0
H4136 H 0.6747 0.73113 0.6745 0.0
H4137 H 0.68549 0.64319 0.61645 0.0
H4138 H 0.69285 0.68505 0.62026 0.0
H4139 H 0.68076 0.69211 0.61441 0.0
C4140 C 0.68452 0.79911 0.62205 0.0
C4141 C 0.67567 0.81715 0.62206 0.0
C4142 C 0.68603 0.76412 0.63145 0.0
C4143 C 0.67867 0.74599 0.6407 0.0
C4144 C 0.66989 0.76451 0.64098 0.0
H4145 H 0.67266 0.50364 0.67212 0.0
H4146 H 0.67304 0.5674 0.65738 0.0
C4147 C 0.66842 0.79968 0.63184 0.0
C4148 C 0.67999 0.70777 0.65009 0.0
H4149 H 0.68652 0.61189 0.64423 0.0
C4150 C 0.6773 0.70509 0.66787 0.0
C4151 C 0.68326 0.6735 0.64142 0.0
C4152 C 0.68567 0.67338 0.62205 0.0
C4153 C 0.67768 0.66926 0.67713 0.0
C4154 C 0.68117 0.63524 0.66859 0.0
C4155 C 0.68395 0.638 0.65086 0.0
C4156 C 0.68142 0.59601 0.6774 0.0
C4157 C 0.67395 0.66798 0.69574 0.0
C4158 C 0.68618 0.59033 0.69342 0.0
C4159 C 0.68588 0.55383 0.70203 0.0
C4160 C 0.68097 0.52204 0.6946 0.0
C4161 C 0.67654 0.52739 0.67822 0.0
C4162 C 0.67674 0.56393 0.66975 0.0
H4163 H 0.66924 0.69323 0.69853 0.0
H4164 H 0.67003 0.64033 0.69822 0.0
H4165 H 0.67988 0.66945 0.70514 0.0
H4166 H 0.69005 0.61422 0.69938 0.0
H4167 H 0.68942 0.55065 0.71457 0.0
H4168 H 0.42005 0.24373 0.39324 0.0
H4169 H 0.42312 0.30455 0.40948 0.0
H4170 H 0.44327 0.3393 0.37023 0.0
H4171 H 0.44029 0.27841 0.35388 0.0
H4172 H 0.44132 0.33989 0.42238 0.0
H4173 H 0.42214 0.4275 0.37182 0.0
H4174 H 0.42064 0.37499 0.37395 0.0
H4175 H 0.43112 0.39433 0.36432 0.0
C4176 C 0.42523 0.264 0.38817 0.0
C4177 C 0.42988 0.25626 0.37221 0.0
C4178 C 0.42699 0.29871 0.39749 0.0
C4179 C 0.43337 0.3265 0.39097 0.0
C4180 C 0.43829 0.31828 0.37541 0.0
H4181 H 0.44297 0.55288 0.44767 0.0
H4182 H 0.4468 0.49297 0.43069 0.0
C4183 C 0.43659 0.2834 0.36613 0.0
C4184 C 0.43434 0.36507 0.39992 0.0
H4185 H 0.42733 0.46089 0.39701 0.0
C4186 C 0.43843 0.36657 0.41673 0.0
C4187 C 0.43049 0.39967 0.39252 0.0
C4188 C 0.42579 0.39936 0.3747 0.0
C4189 C 0.43852 0.40164 0.42657 0.0
C4190 C 0.43441 0.43586 0.41939 0.0
C4191 C 0.4306 0.43465 0.40235 0.0
C4192 C 0.43258 0.47117 0.43029 0.0
C4193 C 0.44252 0.40154 0.44496 0.0
C4194 C 0.42339 0.47832 0.43573 0.0
C4195 C 0.42121 0.51214 0.44518 0.0
C4196 C 0.42817 0.53972 0.44953 0.0
C4197 C 0.43747 0.53214 0.44451 0.0
C4198 C 0.43965 0.49805 0.43484 0.0
H4199 H 0.44527 0.37221 0.44881 0.0
H4200 H 0.44828 0.42335 0.44583 0.0
H4201 H 0.43705 0.41044 0.45454 0.0
H4202 H 0.41785 0.45781 0.43247 0.0
H4203 H 0.41399 0.51669 0.44897 0.0
H4204 H 0.3367 0.57881 0.39584 0.0
H4205 H 0.33407 0.51633 0.41068 0.0
H4206 H 0.31175 0.48958 0.37434 0.0
H4207 H 0.31458 0.55197 0.35894 0.0
H4208 H 0.31969 0.48319 0.42759 0.0
H4209 H 0.32837 0.39486 0.36822 0.0
H4210 H 0.33023 0.44725 0.3692 0.0
H4211 H 0.3187 0.42792 0.36545 0.0
C4212 C 0.33116 0.55993 0.39104 0.0
C4213 C 0.3259 0.57036 0.37607 0.0
C4214 C 0.32966 0.52409 0.39959 0.0
C4215 C 0.32283 0.49776 0.39346 0.0
C4216 C 0.31722 0.50891 0.37907 0.0
H4217 H 0.31356 0.28319 0.45786 0.0
H4218 H 0.31048 0.34507 0.44219 0.0
C4219 C 0.31879 0.54477 0.37036 0.0
C4220 C 0.32197 0.45828 0.40188 0.0
H4221 H 0.32454 0.35992 0.39394 0.0
C4222 C 0.32067 0.45618 0.42022 0.0
C4223 C 0.32336 0.42302 0.39229 0.0
C4224 C 0.32533 0.42318 0.37274 0.0
C4225 C 0.321 0.42009 0.42929 0.0
C4226 C 0.32239 0.38484 0.4197 0.0
C4227 C 0.32339 0.38685 0.40129 0.0
C4228 C 0.32379 0.34612 0.42857 0.0
C4229 C 0.32036 0.4204 0.44915 0.0
C4230 C 0.33211 0.3252 0.42564 0.0
C4231 C 0.33379 0.28964 0.43429 0.0
C4232 C 0.32722 0.27406 0.44619 0.0
C4233 C 0.31879 0.29449 0.44886 0.0
C4234 C 0.31705 0.33005 0.44001 0.0
H4235 H 0.32153 0.45026 0.45466 0.0
H4236 H 0.31327 0.41062 0.45319 0.0
H4237 H 0.32555 0.40003 0.45506 0.0
H4238 H 0.33742 0.33683 0.41689 0.0
H4239 H 0.34038 0.27483 0.4319 0.0
H4240 H 0.58182 0.99373 0.15068 0.0
H4241 H 0.58086 0.05643 0.16632 0.0
H4242 H 0.5722 0.11399 0.11837 0.0
H4243 H 0.57297 0.05122 0.10268 0.0
H4244 H 0.59107 0.12163 0.15992 0.0
H4245 H 0.55343 0.15754 0.15333 0.0
H4246 H 0.55803 0.10913 0.1488 0.0
H4247 H 0.55902 0.14762 0.13263 0.0
C4248 C 0.57956 1.01958 0.14349 0.0
C4249 C 0.57744 1.01734 0.12541 0.0
C4250 C 0.57904 0.05548 0.15247 0.0
C4251 C 0.57635 0.08997 0.14361 0.0
C4252 C 0.57408 0.08772 0.12562 0.0
H4253 H 0.59095 0.32685 0.17589 0.0
H4254 H 0.58893 0.26424 0.16059 0.0
C4255 C 0.57457 0.05176 0.11663 0.0
C4256 C 0.57656 0.12855 0.15294 0.0
H4257 H 0.56339 0.20923 0.16342 0.0
C4258 C 0.585 0.14065 0.16075 0.0
C4259 C 0.56862 0.15328 0.15422 0.0
C4260 C 0.55924 0.14113 0.14696 0.0
C4261 C 0.58576 0.17694 0.16948 0.0
C4262 C 0.57792 0.20236 0.17016 0.0
C4263 C 0.56942 0.18997 0.16271 0.0
C4264 C 0.57847 0.24184 0.17858 0.0
C4265 C 0.59493 0.18749 0.17812 0.0
C4266 C 0.57295 0.25091 0.19335 0.0
C4267 C 0.57404 0.28698 0.20209 0.0
C4268 C 0.58064 0.31469 0.19617 0.0
C4269 C 0.58584 0.30615 0.18091 0.0
C4270 C 0.58474 0.27021 0.17218 0.0
H4271 H 0.59932 0.16105 0.18055 0.0
H4272 H 0.5989 0.20752 0.16932 0.0
H4273 H 0.59377 0.20279 0.19087 0.0
H4274 H 0.56802 0.22957 0.19845 0.0
H4275 H 0.56991 0.29257 0.2138 0.0
H4276 H 0.67929 0.32234 0.14828 0.0
H4277 H 0.68163 0.25882 0.16226 0.0
H4278 H 0.69813 0.22044 0.11788 0.0
H4279 H 0.69543 0.28389 0.10334 0.0
H4280 H 0.68628 0.16633 0.12563 0.0
H4281 H 0.70247 0.2101 0.18839 0.0
H4282 H 0.69174 0.23646 0.18566 0.0
H4283 H 0.70121 0.24412 0.1703 0.0
C4284 C 0.68357 0.30073 0.14157 0.0
C4285 C 0.68719 0.3083 0.12468 0.0
C4286 C 0.68497 0.26436 0.1497 0.0
C4287 C 0.69024 0.23488 0.14137 0.0
C4288 C 0.6941 0.24272 0.12467 0.0
H4289 H 0.69621 1.01756 0.20414 0.0
H4290 H 0.70037 0.07676 0.18733 0.0
C4291 C 0.69257 0.27905 0.11638 0.0
C4292 C 0.69091 0.19496 0.14944 0.0
H4293 H 0.69398 0.14797 0.18884 0.0
C4294 C 0.68815 0.16228 0.13937 0.0
C4295 C 0.69355 0.1891 0.16726 0.0
C4296 C 0.69751 0.22183 0.17842 0.0
C4297 C 0.6874 0.12462 0.14688 0.0
C4298 C 0.68911 0.11963 0.16514 0.0
C4299 C 0.69246 0.15174 0.17493 0.0
C4300 C 0.68688 0.08226 0.17455 0.0
C4301 C 0.68474 0.09069 0.13508 0.0
C4302 C 0.67792 0.06568 0.17311 0.0
C4303 C 0.6756 1.03164 0.18243 0.0
C4304 C 0.68211 1.01378 0.19379 0.0
C4305 C 0.69106 1.03052 0.19543 0.0
C4306 C 0.69343 0.06438 0.18584 0.0
H4307 H 0.68724 0.09563 0.12139 0.0
H4308 H 0.68767 0.06245 0.13993 0.0
H4309 H 0.67701 0.08822 0.13457 0.0
H4310 H 0.67261 0.07957 0.16506 0.0
H4311 H 0.66859 1.01995 0.18108 0.0
H4312 H 0.42082 0.07558 0.91863 0.0
H4313 H 0.42117 1.01165 0.90402 0.0
H4314 H 0.43859 0.96565 0.94562 0.0
H4315 H 0.43803 1.02937 0.96063 0.0
H4316 H 0.43479 0.96761 0.89068 0.0
H4317 H 0.41776 0.88607 0.94521 0.0
H4318 H 0.41838 0.939 0.9447 0.0
H4319 H 0.42831 0.91055 0.95181 0.0
C4320 C 0.42478 0.05197 0.92466 0.0
C4321 C 0.42936 0.0576 0.94087 0.0
C4322 C 0.42496 1.01535 0.91627 0.0
C4323 C 0.42975 0.98348 0.92386 0.0
C4324 C 0.43463 0.9894 0.93972 0.0
H4325 H 0.43964 0.76789 0.86188 0.0
H4326 H 0.44193 0.82921 0.87835 0.0
C4327 C 0.43438 1.02599 0.94822 0.0
C4328 C 0.42954 0.94422 0.91512 0.0
H4329 H 0.42348 0.848 0.92141 0.0
C4330 C 0.43233 0.94143 0.89741 0.0
C4331 C 0.42617 0.91013 0.92378 0.0
C4332 C 0.42239 0.91152 0.94235 0.0
C4333 C 0.4318 0.90573 0.8881 0.0
C4334 C 0.42871 0.87133 0.89691 0.0
C4335 C 0.42597 0.87412 0.91467 0.0
C4336 C 0.42764 0.83278 0.88771 0.0
C4337 C 0.43418 0.90577 0.86871 0.0
C4338 C 0.419 0.81318 0.88812 0.0
C4339 C 0.41776 0.77769 0.87914 0.0
C4340 C 0.42511 0.76101 0.86936 0.0
C4341 C 0.43383 0.78013 0.8692 0.0
C4342 C 0.43511 0.81541 0.87848 0.0
H4343 H 0.43379 0.93582 0.86299 0.0
H4344 H 0.44145 0.89501 0.86695 0.0
H4345 H 0.42941 0.88629 0.86118 0.0
H4346 H 0.41312 0.82578 0.89513 0.0
H4347 H 0.41093 0.76393 0.87946 0.0
H4348 H 0.31899 1.032 0.84971 0.0
H4349 H 0.31599 0.96847 0.86399 0.0
H4350 H 0.32943 1.00986 0.91131 0.0
H4351 H 0.33257 0.07321 0.89714 0.0
H4352 H 0.33158 0.91853 0.88078 0.0
H4353 H 0.3028 0.96199 0.92606 0.0
H4354 H 0.30531 0.98838 0.90591 0.0
H4355 H 0.31272 0.99449 0.9248 0.0
C4356 C 0.32121 1.02778 0.86323 0.0
C4357 C 0.326 0.05774 0.8723 0.0
C4358 C 0.31952 0.99141 0.87133 0.0
C4359 C 0.32244 0.9846 0.88872 0.0
C4360 C 0.32705 1.01468 0.89793 0.0
H4361 H 0.32308 0.80198 0.96642 0.0
H4362 H 0.32261 0.8627 0.94937 0.0
C4363 C 0.32885 0.05084 0.88979 0.0
C4364 C 0.32109 0.94554 0.89708 0.0
H4365 H 0.30942 0.89891 0.93032 0.0
C4366 C 0.32667 0.91397 0.89149 0.0
C4367 C 0.31473 0.93993 0.91108 0.0
C4368 C 0.30848 0.97283 0.91732 0.0
C4369 C 0.3263 0.87722 0.89999 0.0
C4370 C 0.31998 0.87161 0.91417 0.0
C4371 C 0.31425 0.90308 0.91945 0.0
C4372 C 0.31964 0.83429 0.92447 0.0
C4373 C 0.33302 0.84544 0.89424 0.0
C4374 C 0.31788 0.79793 0.91629 0.0
C4375 C 0.31821 0.76289 0.92603 0.0
C4376 C 0.32018 0.7636 0.9442 0.0
C4377 C 0.32153 0.80021 0.95246 0.0
C4378 C 0.32127 0.83508 0.94271 0.0
H4379 H 0.33894 0.85759 0.88647 0.0
H4380 H 0.3359 0.82938 0.90577 0.0
H4381 H 0.32926 0.82403 0.88578 0.0
H4382 H 0.31636 0.79657 0.90232 0.0
H4383 H 0.31712 0.73525 0.91925 0.0
H4384 H 0.13782 0.83366 0.094 0.0
H4385 H 0.12961 0.77021 0.09525 0.0
H4386 H 0.15114 0.71718 0.06376 0.0
H4387 H 0.15958 0.78021 0.06285 0.0
H4388 H 0.13374 0.69337 0.05207 0.0
H4389 H 0.13462 0.67439 0.12441 0.0
H4390 H 0.12934 0.71995 0.11785 0.0
H4391 H 0.14153 0.71125 0.11332 0.0
C4392 C 0.14088 0.80859 0.08735 0.0
C4393 C 0.14947 0.81273 0.07834 0.0
C4394 C 0.13612 0.77205 0.08811 0.0
C4395 C 0.13962 0.73817 0.07966 0.0
C4396 C 0.14816 0.74233 0.07047 0.0
H4397 H 0.12129 0.49514 0.10022 0.0
H4398 H 0.12929 0.55805 0.09768 0.0
C4399 C 0.15304 0.77869 0.07 0.0
C4400 C 0.13434 0.69898 0.08028 0.0
H4401 H 0.12474 0.63075 0.10855 0.0
C4402 C 0.1318 0.67981 0.06447 0.0
C4403 C 0.13175 0.68025 0.09634 0.0
C4404 C 0.13452 0.69726 0.11394 0.0
C4405 C 0.12677 0.64362 0.06428 0.0
C4406 C 0.12401 0.62534 0.08034 0.0
C4407 C 0.12666 0.64429 0.09613 0.0
C4408 C 0.11888 0.58579 0.08118 0.0
C4409 C 0.12466 0.62475 0.04675 0.0
C4410 C 0.11018 0.57897 0.0728 0.0
C4411 C 0.10546 0.54223 0.07426 0.0
C4412 C 0.10927 0.51079 0.08414 0.0
C4413 C 0.118 0.51786 0.09237 0.0
C4414 C 0.12265 0.55439 0.09099 0.0
H4415 H 0.12917 0.63666 0.03609 0.0
H4416 H 0.12563 0.59238 0.0474 0.0
H4417 H 0.11727 0.63073 0.04318 0.0
H4418 H 0.10688 0.6024 0.0654 0.0
H4419 H 0.09874 0.53875 0.06786 0.0
H4420 H 0.16073 0.54674 0.24944 0.0
H4421 H 0.15178 0.60844 0.25151 0.0
H4422 H 0.12737 0.54914 0.23155 0.0
H4423 H 0.13614 0.48776 0.22979 0.0
H4424 H 0.14284 0.65563 0.22824 0.0
H4425 H 0.11583 0.59933 0.27376 0.0
H4426 H 0.12634 0.57202 0.26894 0.0
H4427 H 0.11655 0.57069 0.25399 0.0
C4428 C 0.15345 0.54668 0.24554 0.0
C4429 C 0.14924 0.51148 0.2396 0.0
C4430 C 0.14829 0.58228 0.24672 0.0
C4431 C 0.13871 0.58404 0.24212 0.0
C4432 C 0.1346 0.5491 0.23578 0.0
H4433 H 0.09448 0.76638 0.23668 0.0
H4434 H 0.10384 0.70585 0.23589 0.0
C4435 C 0.13972 0.51366 0.23462 0.0
C4436 C 0.13306 0.62207 0.24365 0.0
H4437 H 0.11265 0.66113 0.26025 0.0
C4438 C 0.13628 0.65671 0.23539 0.0
C4439 C 0.1244 0.62442 0.25289 0.0
C4440 C 0.12061 0.58976 0.26305 0.0
C4441 C 0.1311 0.69245 0.23569 0.0
C4442 C 0.12242 0.69469 0.24483 0.0
C4443 C 0.11922 0.66012 0.25316 0.0
C4444 C 0.11656 0.73224 0.24584 0.0
C4445 C 0.13489 0.72721 0.2256 0.0
C4446 C 0.12032 0.76798 0.25213 0.0
C4447 C 0.11493 0.80288 0.25266 0.0
C4448 C 0.1055 0.80354 0.24705 0.0
C4449 C 0.10166 0.76753 0.2412 0.0
C4450 C 0.10706 0.7326 0.2407 0.0
H4451 H 0.13991 0.71793 0.21523 0.0
H4452 H 0.12916 0.74421 0.21928 0.0
H4453 H 0.13866 0.74695 0.23482 0.0
H4454 H 0.12749 0.76903 0.2567 0.0
H4455 H 0.11823 0.82961 0.25729 0.0
H4456 H 0.86654 0.24755 1.01242 0.0
H4457 H 0.87568 0.30841 1.01344 0.0
H4458 H 0.85775 0.3589 0.97371 0.0
H4459 H 0.8482 0.2992 0.9738 0.0
H4460 H 0.88646 0.34489 0.99488 0.0
H4461 H 0.85799 0.45266 1.00198 0.0
H4462 H 0.85584 0.40063 1.00339 0.0
H4463 H 0.85637 0.42486 0.9822 0.0
C4464 C 0.86441 0.27191 1.00414 0.0
C4465 C 0.85644 0.26818 0.99328 0.0
C4466 C 0.86973 0.30705 1.00462 0.0
C4467 C 0.86747 0.33987 0.99396 0.0
C4468 C 0.8596 0.33564 0.98278 0.0
H4469 H 0.91154 0.52276 0.97501 0.0
H4470 H 0.902 0.46305 0.975 0.0
C4471 C 0.85411 0.30091 0.9827 0.0
C4472 C 0.87353 0.3773 0.99416 0.0
H4473 H 0.87277 0.47854 0.99328 0.0
C4474 C 0.88338 0.374 0.99471 0.0
C4475 C 0.8698 0.41622 0.99427 0.0
C4476 C 0.85943 0.42383 0.99563 0.0
C4477 C 0.88942 0.40726 0.99524 0.0
C4478 C 0.88571 0.44615 0.99422 0.0
C4479 C 0.87585 0.44944 0.99382 0.0
C4480 C 0.89177 0.48356 0.99402 0.0
C4481 C 0.89974 0.39977 0.99767 0.0
C4482 C 0.88924 0.51718 1.00392 0.0
C4483 C 0.89457 0.5523 1.00337 0.0
C4484 C 0.9028 0.55522 0.99321 0.0
C4485 C 0.90541 0.5217 0.98339 0.0
C4486 C 0.89992 0.48697 0.98352 0.0
H4487 H 0.90101 0.37143 1.00457 0.0
H4488 H 0.90314 0.39776 0.98456 0.0
H4489 H 0.90314 0.42353 1.00539 0.0
H4490 H 0.88307 0.51646 1.01219 0.0
H4491 H 0.89222 0.5773 1.01102 0.0
H4492 H 0.84699 0.52728 0.82989 0.0
H4493 H 0.85522 0.46364 0.83027 0.0
H4494 H 0.8815 0.52417 0.83594 0.0
H4495 H 0.87333 0.5871 0.83629 0.0
H4496 H 0.86707 0.42574 0.81108 0.0
H4497 H 0.88627 0.44775 0.87327 0.0
H4498 H 0.87729 0.48132 0.86615 0.0
H4499 H 0.88907 0.48578 0.85782 0.0
C4500 C 0.85452 0.52715 0.83137 0.0
C4501 C 0.85936 0.5632 0.83326 0.0
C4502 C 0.85929 0.49034 0.83156 0.0
C4503 C 0.86913 0.48777 0.83364 0.0
C4504 C 0.87395 0.52395 0.83506 0.0
H4505 H 0.9116 0.29375 0.82986 0.0
H4506 H 0.90334 0.35741 0.82993 0.0
C4507 C 0.8692 0.56055 0.83507 0.0
C4508 C 0.87434 0.44794 0.83383 0.0
H4509 H 0.89152 0.39461 0.85526 0.0
C4510 C 0.87235 0.41916 0.82091 0.0
C4511 C 0.88134 0.4379 0.84651 0.0
C4512 C 0.88355 0.46463 0.86182 0.0
C4513 C 0.87713 0.38233 0.82007 0.0
C4514 C 0.88422 0.3727 0.83255 0.0
C4515 C 0.88622 0.40132 0.84548 0.0
C4516 C 0.88943 0.33306 0.83262 0.0
C4517 C 0.87467 0.35426 0.80541 0.0
C4518 C 0.8846 0.29705 0.8344 0.0
C4519 C 0.88935 0.26041 0.83455 0.0
C4520 C 0.8992 0.25778 0.8328 0.0
C4521 C 0.90406 0.29385 0.83112 0.0
C4522 C 0.89929 0.33066 0.8312 0.0
H4523 H 0.87109 0.36946 0.79434 0.0
H4524 H 0.88102 0.33939 0.80024 0.0
H4525 H 0.86987 0.33137 0.81058 0.0
H4526 H 0.87707 0.29715 0.83589 0.0
H4527 H 0.88523 0.23389 0.83594 0.0
H4528 H 0.12131 0.98765 0.59216 0.0
H4529 H 0.12948 0.05032 0.59024 0.0
H4530 H 0.10505 0.10382 0.56735 0.0
H4531 H 0.09667 0.04053 0.56936 0.0
H4532 H 0.12264 0.12827 0.55077 0.0
H4533 H 0.12465 0.14442 0.62331 0.0
H4534 H 0.12903 0.09834 0.61519 0.0
H4535 H 0.11683 0.10996 0.6128 0.0
C4536 C 0.11759 1.01242 0.58657 0.0
C4537 C 0.10819 1.00819 0.58096 0.0
C4538 C 0.12233 0.04873 0.58558 0.0
C4539 C 0.11794 0.08267 0.57893 0.0
C4540 C 0.10868 0.07848 0.57265 0.0
H4541 H 0.13729 0.32608 0.59666 0.0
H4542 H 0.12898 0.26332 0.59582 0.0
C4543 C 0.10386 0.04197 0.57375 0.0
C4544 C 0.12302 0.12213 0.57896 0.0
H4545 H 0.13361 0.18933 0.60639 0.0
C4546 C 0.125 0.14156 0.56296 0.0
C4547 C 0.12614 0.14034 0.59478 0.0
C4548 C 0.124 0.12249 0.61253 0.0
C4549 C 0.13008 0.17758 0.56236 0.0
C4550 C 0.1334 0.19526 0.57817 0.0
C4551 C 0.13124 0.17616 0.59417 0.0
C4552 C 0.13877 0.23409 0.57854 0.0
C4553 C 0.13166 0.19685 0.54472 0.0
C4554 C 0.14729 0.23953 0.56937 0.0
C4555 C 0.15218 0.27587 0.56993 0.0
C4556 C 0.14872 0.3082 0.57963 0.0
C4557 C 0.14026 0.30239 0.58895 0.0
C4558 C 0.13544 0.26613 0.5885 0.0
H4559 H 0.12677 0.18549 0.53455 0.0
H4560 H 0.13082 0.22925 0.54565 0.0
H4561 H 0.1389 0.19058 0.54025 0.0
H4562 H 0.15024 0.2155 0.56186 0.0
H4563 H 0.15864 0.27868 0.5626 0.0
H4564 H 0.16094 0.05033 0.74335 0.0
H4565 H 0.15224 0.11287 0.74459 0.0
H4566 H 0.12644 0.05036 0.73611 0.0
H4567 H 0.13501 0.9883 0.73482 0.0
H4568 H 0.14034 0.1504 0.71948 0.0
H4569 H 0.11997 0.11595 0.7796 0.0
H4570 H 0.13015 0.08803 0.77319 0.0
H4571 H 0.11909 0.07939 0.76261 0.0
C4572 C 0.15341 0.04978 0.74181 0.0
C4573 C 0.14876 1.01363 0.73907 0.0
C4574 C 0.1484 0.0858 0.74249 0.0
C4575 C 0.13856 0.08691 0.74077 0.0
C4576 C 0.13396 0.05088 0.73788 0.0
H4577 H 0.09457 0.27204 0.74229 0.0
H4578 H 0.10338 0.20982 0.7428 0.0
C4579 C 0.13894 1.01509 0.73701 0.0
C4580 C 0.13311 0.12538 0.74164 0.0
H4581 H 0.11541 0.17303 0.76377 0.0
C4582 C 0.13494 0.15534 0.72928 0.0
C4583 C 0.12592 0.13236 0.75421 0.0
C4584 C 0.12369 0.10244 0.76827 0.0
C4585 C 0.12976 0.19101 0.72889 0.0
C4586 C 0.12264 0.19829 0.74162 0.0
C4587 C 0.12081 0.16823 0.75397 0.0
C4588 C 0.11711 0.23674 0.74237 0.0
C4589 C 0.1318 0.21988 0.71428 0.0
C4590 C 0.12169 0.27345 0.74267 0.0
C4591 C 0.11665 0.30911 0.74232 0.0
C4592 C 0.10676 0.30983 0.74204 0.0
C4593 C 0.10214 0.27315 0.74267 0.0
C4594 C 0.10722 0.23728 0.74284 0.0
H4595 H 0.13493 0.20503 0.70265 0.0
H4596 H 0.12536 0.2354 0.70996 0.0
H4597 H 0.13691 0.24201 0.71904 0.0
H4598 H 0.12925 0.27471 0.743 0.0
H4599 H 0.12056 0.33638 0.74198 0.0
H4600 H 0.87016 0.73829 0.50151 0.0
H4601 H 0.87927 0.79921 0.50209 0.0
H4602 H 0.85414 0.86614 0.49315 0.0
H4603 H 0.84495 0.80521 0.49293 0.0
H4604 H 0.88278 0.85366 0.47792 0.0
H4605 H 0.86473 0.92984 0.53255 0.0
H4606 H 0.86275 0.87857 0.52774 0.0
H4607 H 0.85693 0.91614 0.5151 0.0
C4608 C 0.86649 0.76593 0.49998 0.0
C4609 C 0.85669 0.76621 0.49746 0.0
C4610 C 0.87177 0.80109 0.50019 0.0
C4611 C 0.86751 0.83817 0.49795 0.0
C4612 C 0.85771 0.83856 0.49544 0.0
H4613 H 0.88716 0.08178 0.48596 0.0
H4614 H 0.87843 1.02048 0.48916 0.0
C4615 C 0.8524 0.80334 0.49529 0.0
C4616 C 0.87336 0.87579 0.49768 0.0
H4617 H 0.87539 0.9683 0.51574 0.0
C4618 C 0.88117 0.87849 0.48635 0.0
C4619 C 0.87142 0.90892 0.50854 0.0
C4620 C 0.86356 0.90821 0.5218 0.0
C4621 C 0.88682 0.91285 0.48529 0.0
C4622 C 0.88484 0.94602 0.49608 0.0
C4623 C 0.87705 0.94331 0.50743 0.0
C4624 C 0.89043 0.98425 0.4952 0.0
C4625 C 0.8947 0.9137 0.47209 0.0
C4626 C 0.9002 0.98572 0.49805 0.0
C4627 C 0.9053 1.02142 0.4964 0.0
C4628 C 0.90079 0.05693 0.49178 0.0
C4629 C 0.89098 0.05544 0.48954 0.0
C4630 C 0.88591 1.02004 0.49134 0.0
H4631 H 0.89386 0.89065 0.46183 0.0
H4632 H 0.89513 0.94281 0.46549 0.0
H4633 H 0.90141 0.90832 0.47902 0.0
H4634 H 0.90396 0.95911 0.50142 0.0
H4635 H 0.91282 1.02086 0.49808 0.0
H4636 H 0.91249 0.79815 0.34208 0.0
H4637 H 0.90257 0.85692 0.34361 0.0
H4638 H 0.88209 0.79974 0.31077 0.0
H4639 H 0.89169 0.74021 0.3103 0.0
H4640 H 0.89673 0.90889 0.32212 0.0
H4641 H 0.86362 0.83874 0.34366 0.0
H4642 H 0.8747 0.81329 0.34485 0.0
H4643 H 0.86851 0.81789 0.32424 0.0
C4644 C 0.90584 0.79792 0.33522 0.0
C4645 C 0.90297 0.76383 0.32606 0.0
C4646 C 0.9001 0.83187 0.33613 0.0
C4647 C 0.89126 0.83353 0.32776 0.0
C4648 C 0.88854 0.79971 0.31818 0.0
H4649 H 0.84876 1.02632 0.31592 0.0
H4650 H 0.8576 0.96418 0.31392 0.0
C4651 C 0.89418 0.76544 0.31762 0.0
C4652 C 0.8852 0.87087 0.32855 0.0
H4653 H 0.86291 0.90598 0.33626 0.0
C4654 C 0.88935 0.90788 0.32535 0.0
C4655 C 0.87543 0.87081 0.33248 0.0
C4656 C 0.87031 0.83316 0.33669 0.0
C4657 C 0.8842 0.94369 0.32576 0.0
C4658 C 0.8745 0.94374 0.32999 0.0
C4659 C 0.87029 0.90677 0.33303 0.0
C4660 C 0.86873 0.98168 0.33161 0.0
C4661 C 0.88927 0.9812 0.32109 0.0
C4662 C 0.87169 1.01282 0.34255 0.0
C4663 C 0.86665 0.0485 0.34366 0.0
C4664 C 0.8583 0.05483 0.33405 0.0
C4665 C 0.85513 1.02321 0.32352 0.0
C4666 C 0.86023 0.98733 0.32237 0.0
H4667 H 0.89547 0.97532 0.31268 0.0
H4668 H 0.88461 1.00206 0.31402 0.0
H4669 H 0.89178 0.9955 0.33335 0.0
H4670 H 0.87797 1.00964 0.35039 0.0
H4671 H 0.86938 0.07141 0.35213 0.0
H4672 H 0.59414 0.55753 0.58334 0.0
H4673 H 0.60264 0.62066 0.58212 0.0
H4674 H 0.62879 0.55818 0.57996 0.0
H4675 H 0.62043 0.49569 0.58111 0.0
H4676 H 0.616 0.65473 0.60461 0.0
H4677 H 0.63258 0.63401 0.53949 0.0
H4678 H 0.62308 0.60337 0.54704 0.0
H4679 H 0.63484 0.59426 0.55445 0.0
C4680 C 0.60169 0.55708 0.58234 0.0
C4681 C 0.60647 0.52062 0.58215 0.0
C4682 C 0.6066 0.59354 0.58175 0.0
C4683 C 0.61649 0.59514 0.58065 0.0
C4684 C 0.62122 0.55874 0.58039 0.0
H4685 H 0.66059 0.78079 0.57456 0.0
H4686 H 0.65159 0.71912 0.5753 0.0
C4687 C 0.61635 0.52251 0.58115 0.0
C4688 C 0.62189 0.63423 0.58025 0.0
H4689 H 0.63838 0.68679 0.55684 0.0
C4690 C 0.62083 0.6617 0.59404 0.0
C4691 C 0.62837 0.64418 0.56668 0.0
C4692 C 0.62975 0.61764 0.55098 0.0
C4693 C 0.62608 0.69735 0.5949 0.0
C4694 C 0.63253 0.70748 0.58127 0.0
C4695 C 0.63356 0.67998 0.56743 0.0
C4696 C 0.6382 0.74607 0.58102 0.0
C4697 C 0.62488 0.72296 0.61097 0.0
C4698 C 0.63392 0.78307 0.58371 0.0
C4699 C 0.63913 0.81856 0.58347 0.0
C4700 C 0.64887 0.81909 0.5802 0.0
C4701 C 0.65316 0.78222 0.57718 0.0
C4702 C 0.64794 0.74656 0.57758 0.0
H4703 H 0.62243 0.7056 0.62249 0.0
H4704 H 0.63152 0.73781 0.61462 0.0
H4705 H 0.61951 0.74572 0.60821 0.0
H4706 H 0.62645 0.78483 0.58575 0.0
H4707 H 0.63542 0.84589 0.58563 0.0
H4708 H 0.65473 0.52941 0.76208 0.0
H4709 H 0.64539 0.5898 0.76602 0.0
H4710 H 0.6414 0.59728 0.70987 0.0
H4711 H 0.65071 0.53802 0.70589 0.0
H4712 H 0.64465 0.6687 0.72169 0.0
H4713 H 0.61748 0.60527 0.7652 0.0
H4714 H 0.62914 0.60085 0.77377 0.0
H4715 H 0.62597 0.57513 0.75394 0.0
C4716 C 0.6519 0.54391 0.75055 0.0
C4717 C 0.65356 0.52791 0.73365 0.0
C4718 C 0.64641 0.57856 0.75283 0.0
C4719 C 0.64238 0.59862 0.73829 0.0
C4720 C 0.64426 0.58304 0.72146 0.0
H4721 H 0.5962 0.77504 0.73681 0.0
H4722 H 0.60583 0.71508 0.73628 0.0
C4723 C 0.64965 0.54858 0.7192 0.0
C4724 C 0.63637 0.63584 0.74022 0.0
H4725 H 0.6166 0.6739 0.75995 0.0
C4726 C 0.63855 0.66958 0.73016 0.0
C4727 C 0.6282 0.63789 0.75095 0.0
C4728 C 0.62497 0.60281 0.76146 0.0
C4729 C 0.63303 0.70443 0.7306 0.0
C4730 C 0.62499 0.70686 0.74164 0.0
C4731 C 0.62273 0.67299 0.75157 0.0
C4732 C 0.61887 0.74389 0.74285 0.0
C4733 C 0.63575 0.73804 0.71868 0.0
C4734 C 0.62271 0.78092 0.74717 0.0
C4735 C 0.61716 0.81545 0.74755 0.0
C4736 C 0.60748 0.8147 0.74376 0.0
C4737 C 0.60357 0.77744 0.73991 0.0
C4738 C 0.60914 0.74278 0.73957 0.0
H4739 H 0.64018 0.72792 0.70754 0.0
H4740 H 0.62949 0.75302 0.71322 0.0
H4741 H 0.63986 0.75983 0.72634 0.0
H4742 H 0.63008 0.78332 0.75025 0.0
H4743 H 0.62056 0.84306 0.75063 0.0
H4744 H 0.3861 0.58752 0.49119 0.0
H4745 H 0.37728 0.52611 0.49278 0.0
H4746 H 0.40307 0.46069 0.49305 0.0
H4747 H 0.41196 0.52254 0.492 0.0
H4748 H 0.37496 0.46859 0.47147 0.0
H4749 H 0.39059 0.40027 0.53061 0.0
H4750 H 0.39291 0.45066 0.52465 0.0
H4751 H 0.3992 0.41114 0.51415 0.0
C4752 C 0.38996 0.56018 0.49201 0.0
C4753 C 0.39985 0.56075 0.49183 0.0
C4754 C 0.38484 0.52462 0.49278 0.0
C4755 C 0.38933 0.48768 0.4933 0.0
C4756 C 0.39925 0.48813 0.49325 0.0
H4757 H 0.36997 0.24117 0.48583 0.0
H4758 H 0.37867 0.30285 0.48765 0.0
C4759 C 0.4044 0.5239 0.49266 0.0
C4760 C 0.38359 0.44946 0.49309 0.0
H4761 H 0.38086 0.35907 0.51309 0.0
C4762 C 0.37626 0.44495 0.48075 0.0
C4763 C 0.38508 0.41767 0.50502 0.0
C4764 C 0.3923 0.42023 0.51947 0.0
C4765 C 0.37066 0.41036 0.47978 0.0
C4766 C 0.37221 0.37855 0.49161 0.0
C4767 C 0.37954 0.38293 0.50393 0.0
C4768 C 0.36658 0.3402 0.49102 0.0
C4769 C 0.36328 0.40782 0.46561 0.0
C4770 C 0.35671 0.33922 0.49263 0.0
C4771 C 0.35162 0.30331 0.49172 0.0
C4772 C 0.35619 0.26692 0.4891 0.0
C4773 C 0.36607 0.26809 0.4878 0.0
C4774 C 0.37113 0.30375 0.48887 0.0
H4775 H 0.36452 0.42949 0.4549 0.0
H4776 H 0.36305 0.37791 0.45977 0.0
H4777 H 0.35634 0.41419 0.47148 0.0
H4778 H 0.35289 0.36633 0.49466 0.0
H4779 H 0.34407 0.30423 0.49276 0.0
H4780 H 0.3863 0.23927 0.3275 0.0
H4781 H 0.37784 0.30168 0.32705 0.0
H4782 H 0.40395 0.36438 0.33039 0.0
H4783 H 0.41249 0.3017 0.33004 0.0
H4784 H 0.37474 0.35833 0.34772 0.0
H4785 H 0.39353 0.42919 0.29267 0.0
H4786 H 0.39537 0.37831 0.29829 0.0
H4787 H 0.40128 0.41668 0.31035 0.0
C4788 C 0.39032 0.26624 0.328 0.0
C4789 C 0.4002 0.26459 0.32862 0.0
C4790 C 0.3854 0.30244 0.32779 0.0
C4791 C 0.39008 0.33904 0.32827 0.0
C4792 C 0.39998 0.33745 0.32931 0.0
H4793 H 0.37074 0.5887 0.32999 0.0
H4794 H 0.37965 0.52713 0.33034 0.0
C4795 C 0.40493 0.30111 0.32928 0.0
C4796 C 0.38455 0.37803 0.3281 0.0
H4797 H 0.38319 0.46989 0.30888 0.0
C4798 C 0.37663 0.38247 0.33909 0.0
C4799 C 0.38677 0.41057 0.31697 0.0
C4800 C 0.39463 0.4084 0.30378 0.0
C4801 C 0.37112 0.41742 0.33948 0.0
C4802 C 0.37337 0.45001 0.32841 0.0
C4803 C 0.38132 0.44572 0.31752 0.0
C4804 C 0.36768 0.4885 0.32791 0.0
C4805 C 0.363 0.41881 0.35217 0.0
C4806 C 0.35783 0.48895 0.32605 0.0
C4807 C 0.35265 0.52462 0.32593 0.0
C4808 C 0.35708 0.56165 0.32736 0.0
C4809 C 0.36695 0.56126 0.32874 0.0
C4810 C 0.37212 0.52561 0.32896 0.0
H4811 H 0.36428 0.39972 0.36381 0.0
H4812 H 0.36156 0.44905 0.35689 0.0
H4813 H 0.35665 0.40761 0.34542 0.0
H4814 H 0.35406 0.46154 0.32461 0.0
H4815 H 0.34511 0.52306 0.32479 0.0
H4816 H 0.66212 0.27269 0.09314 0.0
H4817 H 0.65248 0.21272 0.09363 0.0
H4818 H 0.63089 0.27275 0.06469 0.0
H4819 H 0.64039 0.33288 0.06444 0.0
H4820 H 0.63283 0.20459 0.10794 0.0
H4821 H 0.63476 0.166 0.03696 0.0
H4822 H 0.64341 0.19679 0.04751 0.0
H4823 H 0.63209 0.21635 0.0423 0.0
C4824 C 0.65537 0.2732 0.08667 0.0
C4825 C 0.65218 0.30827 0.07863 0.0
C4826 C 0.64979 0.23863 0.08704 0.0
C4827 C 0.64086 0.23734 0.07908 0.0
C4828 C 0.63773 0.27212 0.0708 0.0
H4829 H 0.59855 0.04438 0.06472 0.0
H4830 H 0.6078 0.10548 0.06221 0.0
C4831 C 0.64323 0.30685 0.07069 0.0
C4832 C 0.63473 0.20045 0.07994 0.0
H4833 H 0.62485 0.12712 0.05468 0.0
C4834 C 0.63115 0.18766 0.09626 0.0
C4835 C 0.63224 0.17811 0.0648 0.0
C4836 C 0.63584 0.18963 0.04686 0.0
C4837 C 0.62521 0.15421 0.09784 0.0
C4838 C 0.62295 0.13087 0.08278 0.0
C4839 C 0.62648 0.14404 0.06639 0.0
C4840 C 0.6172 0.09266 0.08389 0.0
C4841 C 0.62112 0.14541 0.11575 0.0
C4842 C 0.61931 0.0635 0.09651 0.0
C4843 C 0.61393 1.02882 0.0981 0.0
C4844 C 0.60627 1.02075 0.08687 0.0
C4845 C 0.60432 0.04907 0.07372 0.0
C4846 C 0.60967 0.08434 0.07229 0.0
H4847 H 0.62054 0.17253 0.12385 0.0
H4848 H 0.61407 0.13192 0.11471 0.0
H4849 H 0.62582 0.12485 0.12289 0.0
H4850 H 0.62523 0.06728 0.10523 0.0
H4851 H 0.61589 1.00794 0.10823 0.0
H4852 H 0.63912 0.99285 0.2281 0.0
H4853 H 0.63065 0.05511 0.22982 0.0
H4854 H 0.65609 0.11453 0.24429 0.0
H4855 H 0.66469 0.05166 0.24266 0.0
H4856 H 0.62745 0.10873 0.25696 0.0
H4857 H 0.6469 0.18376 0.20346 0.0
H4858 H 0.64765 0.13134 0.20703 0.0
H4859 H 0.65401 0.16454 0.221 0.0
C4860 C 0.643 1.01896 0.23174 0.0
C4861 C 0.65272 1.01636 0.23522 0.0
C4862 C 0.63807 0.05499 0.23273 0.0
C4863 C 0.64261 0.09056 0.23693 0.0
C4864 C 0.65231 0.08817 0.24069 0.0
H4865 H 0.62339 0.33956 0.23883 0.0
H4866 H 0.63219 0.27795 0.23898 0.0
C4867 C 0.65725 0.05179 0.23994 0.0
C4868 C 0.63712 0.12941 0.23736 0.0
H4869 H 0.63553 0.22129 0.2184 0.0
C4870 C 0.62926 0.13327 0.24849 0.0
C4871 C 0.6393 0.16218 0.22645 0.0
C4872 C 0.64737 0.16041 0.21368 0.0
C4873 C 0.62378 0.16829 0.24929 0.0
C4874 C 0.62584 0.20097 0.23813 0.0
C4875 C 0.63374 0.19701 0.22702 0.0
C4876 C 0.62014 0.23948 0.23801 0.0
C4877 C 0.61602 0.17008 0.26272 0.0
C4878 C 0.61023 0.24016 0.23715 0.0
C4879 C 0.60509 0.276 0.23734 0.0
C4880 C 0.60962 0.31293 0.23798 0.0
C4881 C 0.61951 0.31223 0.23835 0.0
C4882 C 0.62463 0.2765 0.23841 0.0
H4883 H 0.6173 0.14947 0.27383 0.0
H4884 H 0.61521 0.20017 0.26818 0.0
H4885 H 0.60935 0.16126 0.25637 0.0
H4886 H 0.60639 0.21286 0.23613 0.0
H4887 H 0.59752 0.2747 0.23677 0.0
H4888 H 0.36988 0.73882 0.99832 0.0
H4889 H 0.37934 0.79878 0.99779 0.0
H4890 H 0.35494 0.86641 0.98405 0.0
H4891 H 0.34539 0.80636 0.98475 0.0
H4892 H 0.38391 0.84853 0.97221 0.0
H4893 H 0.36506 0.93583 1.02234 0.0
H4894 H 0.3629 0.88402 1.01917 0.0
H4895 H 0.35762 0.91969 1.00473 0.0
C4896 C 0.36643 0.76642 0.99542 0.0
C4897 C 0.35673 0.76707 0.99178 0.0
C4898 C 0.37193 0.80106 0.99503 0.0
C4899 C 0.36799 0.83812 0.99112 0.0
C4900 C 0.35828 0.83893 0.98756 0.0
H4901 H 0.39935 0.04451 0.95286 0.0
H4902 H 0.39022 0.9847 0.95676 0.0
C4903 C 0.35276 0.80418 0.9879 0.0
C4904 C 0.37411 0.87507 0.99015 0.0
H4905 H 0.37643 0.97019 1.00531 0.0
C4906 C 0.38223 0.87497 0.97954 0.0
C4907 C 0.37221 0.9101 0.9998 0.0
C4908 C 0.36403 0.91246 1.01229 0.0
C4909 C 0.3882 0.90827 0.978 0.0
C4910 C 0.38611 0.94375 0.98714 0.0
C4911 C 0.37813 0.94361 0.9981 0.0
C4912 C 0.39192 0.98126 0.98503 0.0
C4913 C 0.39685 0.90471 0.96672 0.0
C4914 C 0.39599 1.00101 0.99957 0.0
C4915 C 0.40134 0.03596 0.99736 0.0
C4916 C 0.40271 0.05283 0.98052 0.0
C4917 C 0.39858 1.03298 0.96608 0.0
C4918 C 0.39333 0.99816 0.96828 0.0
H4919 H 0.39904 0.87354 0.96519 0.0
H4920 H 0.39534 0.91651 0.95338 0.0
H4921 H 0.40278 0.92161 0.97239 0.0
H4922 H 0.39506 0.98924 1.01272 0.0
H4923 H 0.40428 0.0501 1.00888 0.0
H4924 H 0.41069 0.80227 0.82494 0.0
H4925 H 0.4017 0.86401 0.82617 0.0
H4926 H 0.37623 0.79755 0.83188 0.0
H4927 H 0.38517 0.73655 0.83152 0.0
H4928 H 0.38946 0.90027 0.80782 0.0
H4929 H 0.3707 0.87062 0.86986 0.0
H4930 H 0.38 0.83919 0.86227 0.0
H4931 H 0.36824 0.83303 0.85404 0.0
C4932 C 0.40318 0.80075 0.82662 0.0
C4933 C 0.39878 0.76373 0.82833 0.0
C4934 C 0.39797 0.83641 0.8273 0.0
C4935 C 0.38813 0.83665 0.82963 0.0
C4936 C 0.38376 0.79948 0.83084 0.0
H4937 H 0.34441 1.02625 0.82462 0.0
H4938 H 0.35304 0.96344 0.82244 0.0
C4939 C 0.38895 0.76404 0.83045 0.0
C4940 C 0.38247 0.87517 0.83031 0.0
H4941 H 0.36478 0.92361 0.85247 0.0
C4942 C 0.38413 0.90509 0.81773 0.0
C4943 C 0.3754 0.88292 0.84316 0.0
C4944 C 0.37355 0.85493 0.85819 0.0
C4945 C 0.37897 0.941 0.81745 0.0
C4946 C 0.37179 0.94815 0.83 0.0
C4947 C 0.37011 0.91848 0.84258 0.0
C4948 C 0.36638 0.98696 0.83083 0.0
C4949 C 0.38118 0.97119 0.80351 0.0
C4950 C 0.37082 1.02187 0.83629 0.0
C4951 C 0.36586 0.05774 0.83773 0.0
C4952 C 0.35623 0.06069 0.83355 0.0
C4953 C 0.35179 1.02582 0.82778 0.0
C4954 C 0.35675 0.98957 0.82663 0.0
H4955 H 0.38569 0.959 0.79291 0.0
H4956 H 0.37464 0.9827 0.79754 0.0
H4957 H 0.3849 0.99631 0.80968 0.0
H4958 H 0.37816 1.02133 0.83977 0.0
H4959 H 0.36963 0.08342 0.84226 0.0
loop_
_geom_bond_atom_site_label_1
_geom_bond_atom_site_label_2
_geom_bond_distance
_geom_bond_site_symmetry_2
_ccdc_geom_bond_type
O0 Tb1 2.292 . S
O0 C3 1.255 . S
Tb1 O0 2.292 . S
Tb1 O17 2.326 . S
Tb1 O19 2.500 . S
Tb1 O20 2.473 . S
Tb1 O23 2.324 . S
Eu2 O6 2.292 . S
Eu2 C7 2.852 . S
Eu2 O18 2.324 . S
Eu2 O22 2.326 . S
Eu2 O24 2.500 . S
Eu2 O25 2.473 . S
C3 O0 1.255 . S
C3 O4 1.247 . S
O4 C3 1.247 . S
C5 O17 1.242 . S
C5 O18 1.258 . S
O6 Eu2 2.292 . S
O6 C8 1.255 . S
C7 Eu2 2.852 . S
C7 C11 1.503 . S
C7 O24 1.273 . S
C7 O25 1.257 . S
C8 O6 1.255 . S
C8 O9 1.247 . S
O9 C8 1.247 . S
C10 O22 1.242 . S
C10 O23 1.258 . S
C11 C7 1.503 . S
C11 C12 1.379 . S
C11 C16 1.392 . S
C12 C11 1.379 . S
C12 C13 1.404 1_554 S
C12 H26 0.929 . S
C13 C12 1.404 1_556 S
C13 C14 1.389 . S
C14 C13 1.389 . S
C14 C15 1.399 . S
C14 H27 0.931 . S
C15 C14 1.399 . S
C15 C16 1.390 1_556 S
C16 C11 1.392 . S
C16 C15 1.390 1_554 S
C16 H28 0.929 . S
O17 Tb1 2.326 . S
O17 C5 1.242 . S
O18 Eu2 2.324 . S
O18 C5 1.258 . S
O19 Tb1 2.500 . S
O19 C21 1.273 . S
O20 Tb1 2.473 . S
O20 C21 1.257 . S
C21 O19 1.273 . S
C21 O20 1.257 . S
O22 Eu2 2.326 . S
O22 C10 1.242 . S
O23 Tb1 2.324 . S
O23 C10 1.258 . S
O24 Eu2 2.500 . S
O24 C7 1.273 . S
O25 Eu2 2.473 . S
O25 C7 1.257 . S
H26 C12 0.929 . S
H27 C14 0.931 . S
H28 C16 0.929 . S
O29 Tb30 2.292 . S
O29 C32 1.255 . S
Tb30 O29 2.292 . S
Tb30 O46 2.326 . S
Tb30 O48 2.500 . S
Tb30 O49 2.473 . S
Tb30 O52 2.324 . S
Eu31 O35 2.292 . S
Eu31 C36 2.852 . S
Eu31 O47 2.324 . S
Eu31 O51 2.326 . S
Eu31 O53 2.500 . S
Eu31 O54 2.473 . S
C32 O29 1.255 . S
C32 O33 1.247 . S
O33 C32 1.247 . S
C34 O46 1.242 . S
C34 O47 1.258 . S
O35 Eu31 2.292 . S
O35 C37 1.255 . S
C36 Eu31 2.852 . S
C36 C40 1.503 . S
C36 O53 1.273 . S
C36 O54 1.257 . S
C37 O35 1.255 . S
C37 O38 1.247 . S
O38 C37 1.247 . S
C39 O51 1.242 . S
C39 O52 1.258 . S
C40 C36 1.503 . S
C40 C41 1.379 . S
C40 C45 1.392 . S
C41 C40 1.379 . S
C41 C42 1.404 1_554 S
C41 H55 0.929 . S
C42 C41 1.404 1_556 S
C42 C43 1.389 . S
C43 C42 1.389 . S
C43 C44 1.399 . S
C43 H56 0.931 . S
C44 C43 1.399 . S
C44 C45 1.390 1_556 S
C45 C40 1.392 . S
C45 C44 1.390 1_554 S
C45 H57 0.929 . S
O46 Tb30 2.326 . S
O46 C34 1.242 . S
O47 Eu31 2.324 . S
O47 C34 1.258 . S
O48 Tb30 2.500 . S
O48 C50 1.273 . S
O49 Tb30 2.473 . S
O49 C50 1.257 . S
C50 O48 1.273 . S
C50 O49 1.257 . S
O51 Eu31 2.326 . S
O51 C39 1.242 . S
O52 Tb30 2.324 . S
O52 C39 1.258 . S
O53 Eu31 2.500 . S
O53 C36 1.273 . S
O54 Eu31 2.473 . S
O54 C36 1.257 . S
H55 C41 0.929 . S
H56 C43 0.931 . S
H57 C45 0.929 . S
O58 Tb59 2.292 . S
O58 C61 1.255 . S
Tb59 O58 2.292 . S
Tb59 O75 2.326 . S
Tb59 O77 2.500 . S
Tb59 O78 2.473 . S
Tb59 O81 2.324 . S
Eu60 O64 2.292 . S
Eu60 C65 2.852 . S
Eu60 O76 2.324 . S
Eu60 O80 2.326 . S
Eu60 O82 2.500 . S
Eu60 O83 2.473 . S
C61 O58 1.255 . S
C61 O62 1.247 . S
O62 C61 1.247 . S
C63 O75 1.242 . S
C63 O76 1.258 . S
O64 Eu60 2.292 . S
O64 C66 1.255 . S
C65 Eu60 2.852 . S
C65 C69 1.503 . S
C65 O82 1.273 . S
C65 O83 1.257 . S
C66 O64 1.255 . S
C66 O67 1.247 . S
O67 C66 1.247 . S
C68 O80 1.242 . S
C68 O81 1.258 . S
C69 C65 1.503 . S
C69 C70 1.379 . S
C69 C74 1.392 . S
C70 C69 1.379 . S
C70 C71 1.404 . S
C70 H84 0.929 . S
C71 C70 1.404 . S
C71 C72 1.389 . S
C72 C71 1.389 . S
C72 C73 1.399 . S
C72 H85 0.931 . S
C73 C72 1.399 . S
C73 C74 1.390 . S
C74 C69 1.392 . S
C74 C73 1.390 . S
C74 H86 0.929 . S
O75 Tb59 2.326 . S
O75 C63 1.242 . S
O76 Eu60 2.324 . S
O76 C63 1.258 . S
O77 Tb59 2.500 . S
O77 C79 1.273 . S
O78 Tb59 2.473 . S
O78 C79 1.257 . S
C79 O77 1.273 . S
C79 O78 1.257 . S
O80 Eu60 2.326 . S
O80 C68 1.242 . S
O81 Tb59 2.324 . S
O81 C68 1.258 . S
O82 Eu60 2.500 . S
O82 C65 1.273 . S
O83 Eu60 2.473 . S
O83 C65 1.257 . S
H84 C70 0.929 . S
H85 C72 0.931 . S
H86 C74 0.929 . S
O87 Tb88 2.292 . S
O87 C90 1.255 . S
Tb88 O87 2.292 . S
Tb88 O104 2.326 . S
Tb88 O106 2.500 . S
Tb88 O107 2.473 . S
Tb88 O110 2.324 . S
Eu89 O93 2.292 . S
Eu89 C94 2.852 . S
Eu89 O105 2.324 . S
Eu89 O109 2.326 . S
Eu89 O111 2.500 . S
Eu89 O112 2.473 . S
C90 O87 1.255 . S
C90 O91 1.247 . S
O91 C90 1.247 . S
C92 O104 1.242 . S
C92 O105 1.258 . S
O93 Eu89 2.292 . S
O93 C95 1.255 . S
C94 Eu89 2.852 . S
C94 C98 1.503 . S
C94 O111 1.273 . S
C94 O112 1.257 . S
C95 O93 1.255 . S
C95 O96 1.247 . S
O96 C95 1.247 . S
C97 O109 1.242 . S
C97 O110 1.258 . S
C98 C94 1.503 . S
C98 C99 1.379 . S
C98 C103 1.392 . S
C99 C98 1.379 . S
C99 C100 1.404 . S
C99 H113 0.929 . S
C100 C99 1.404 . S
C100 C101 1.389 . S
C101 C100 1.389 . S
C101 C102 1.399 . S
C101 H114 0.931 . S
C102 C101 1.399 . S
C102 C103 1.390 . S
C103 C98 1.392 . S
C103 C102 1.390 . S
C103 H115 0.929 . S
O104 Tb88 2.326 . S
O104 C92 1.242 . S
O105 Eu89 2.324 . S
O105 C92 1.258 . S
O106 Tb88 2.500 . S
O106 C108 1.273 . S
O107 Tb88 2.473 . S
O107 C108 1.257 . S
C108 O106 1.273 . S
C108 O107 1.257 . S
O109 Eu89 2.326 . S
O109 C97 1.242 . S
O110 Tb88 2.324 . S
O110 C97 1.258 . S
O111 Eu89 2.500 . S
O111 C94 1.273 . S
O112 Eu89 2.473 . S
O112 C94 1.257 . S
H113 C99 0.929 . S
H114 C101 0.931 . S
H115 C103 0.929 . S
O116 Tb117 2.292 . S
O116 C119 1.255 . S
Tb117 O116 2.292 . S
Tb117 O133 2.326 . S
Tb117 O135 2.500 . S
Tb117 O136 2.473 . S
Tb117 O139 2.324 . S
Eu118 O122 2.292 . S
Eu118 C123 2.852 . S
Eu118 O134 2.324 . S
Eu118 O138 2.326 . S
Eu118 O140 2.500 . S
Eu118 O141 2.473 . S
C119 O116 1.255 . S
C119 O120 1.247 . S
O120 C119 1.247 . S
C121 O133 1.242 . S
C121 O134 1.258 . S
O122 Eu118 2.292 . S
O122 C124 1.255 . S
C123 Eu118 2.852 . S
C123 C127 1.503 . S
C123 O140 1.273 . S
C123 O141 1.257 . S
C124 O122 1.255 . S
C124 O125 1.247 . S
O125 C124 1.247 . S
C126 O138 1.242 . S
C126 O139 1.258 . S
C127 C123 1.503 . S
C127 C128 1.379 . S
C127 C132 1.392 . S
C128 C127 1.379 . S
C128 C129 1.404 1_556 S
C128 H142 0.929 . S
C129 C128 1.404 1_554 S
C129 C130 1.389 . S
C130 C129 1.389 . S
C130 C131 1.399 . S
C130 H143 0.931 . S
C131 C130 1.399 . S
C131 C132 1.390 1_554 S
C132 C127 1.392 . S
C132 C131 1.390 1_556 S
C132 H144 0.929 . S
O133 Tb117 2.326 . S
O133 C121 1.242 . S
O134 Eu118 2.324 . S
O134 C121 1.258 . S
O135 Tb117 2.500 . S
O135 C137 1.273 . S
O136 Tb117 2.473 . S
O136 C137 1.257 . S
C137 O135 1.273 . S
C137 O136 1.257 . S
O138 Eu118 2.326 . S
O138 C126 1.242 . S
O139 Tb117 2.324 . S
O139 C126 1.258 . S
O140 Eu118 2.500 . S
O140 C123 1.273 . S
O141 Eu118 2.473 . S
O141 C123 1.257 . S
H142 C128 0.929 . S
H143 C130 0.931 . S
H144 C132 0.929 . S
O145 Tb146 2.292 . S
O145 C148 1.255 . S
Tb146 O145 2.292 . S
Tb146 O162 2.326 . S
Tb146 O164 2.500 . S
Tb146 O165 2.473 . S
Tb146 O168 2.324 . S
Eu147 O151 2.292 . S
Eu147 C152 2.852 . S
Eu147 O163 2.324 . S
Eu147 O167 2.326 . S
Eu147 O169 2.500 . S
Eu147 O170 2.473 . S
C148 O145 1.255 . S
C148 O149 1.247 . S
O149 C148 1.247 . S
C150 O162 1.242 . S
C150 O163 1.258 . S
O151 Eu147 2.292 . S
O151 C153 1.255 . S
C152 Eu147 2.852 . S
C152 C156 1.503 . S
C152 O169 1.273 . S
C152 O170 1.257 . S
C153 O151 1.255 . S
C153 O154 1.247 . S
O154 C153 1.247 . S
C155 O167 1.242 . S
C155 O168 1.258 . S
C156 C152 1.503 . S
C156 C157 1.379 . S
C156 C161 1.392 . S
C157 C156 1.379 . S
C157 C158 1.404 1_556 S
C157 H171 0.929 . S
C158 C157 1.404 1_554 S
C158 C159 1.389 . S
C159 C158 1.389 . S
C159 C160 1.399 . S
C159 H172 0.931 . S
C160 C159 1.399 . S
C160 C161 1.390 1_554 S
C161 C156 1.392 . S
C161 C160 1.390 1_556 S
C161 H173 0.929 . S
O162 Tb146 2.326 . S
O162 C150 1.242 . S
O163 Eu147 2.324 . S
O163 C150 1.258 . S
O164 Tb146 2.500 . S
O164 C166 1.273 . S
O165 Tb146 2.473 . S
O165 C166 1.257 . S
C166 O164 1.273 . S
C166 O165 1.257 . S
O167 Eu147 2.326 . S
O167 C155 1.242 . S
O168 Tb146 2.324 . S
O168 C155 1.258 . S
O169 Eu147 2.500 . S
O169 C152 1.273 . S
O170 Eu147 2.473 . S
O170 C152 1.257 . S
H171 C157 0.929 . S
H172 C159 0.931 . S
H173 C161 0.929 . S
O174 Tb175 2.292 . S
O174 C177 1.255 . S
Tb175 O174 2.292 . S
Tb175 O191 2.326 . S
Tb175 O193 2.500 . S
Tb175 O194 2.473 . S
Tb175 O197 2.324 . S
Eu176 O180 2.292 . S
Eu176 C181 2.852 . S
Eu176 O192 2.324 . S
Eu176 O196 2.326 . S
Eu176 O198 2.500 . S
Eu176 O199 2.473 . S
C177 O174 1.255 . S
C177 O178 1.247 . S
O178 C177 1.247 . S
C179 O191 1.242 . S
C179 O192 1.258 . S
O180 Eu176 2.292 . S
O180 C182 1.255 . S
C181 Eu176 2.852 . S
C181 C185 1.503 . S
C181 O198 1.273 . S
C181 O199 1.257 . S
C182 O180 1.255 . S
C182 O183 1.247 . S
O183 C182 1.247 . S
C184 O196 1.242 . S
C184 O197 1.258 . S
C185 C181 1.503 . S
C185 C186 1.379 . S
C185 C190 1.392 . S
C186 C185 1.379 . S
C186 C187 1.404 . S
C186 H200 0.929 . S
C187 C186 1.404 . S
C187 C188 1.389 . S
C188 C187 1.389 . S
C188 C189 1.399 . S
C188 H201 0.931 . S
C189 C188 1.399 . S
C189 C190 1.390 . S
C190 C185 1.392 . S
C190 C189 1.390 . S
C190 H202 0.929 . S
O191 Tb175 2.326 . S
O191 C179 1.242 . S
O192 Eu176 2.324 . S
O192 C179 1.258 . S
O193 Tb175 2.500 . S
O193 C195 1.273 . S
O194 Tb175 2.473 . S
O194 C195 1.257 . S
C195 O193 1.273 . S
C195 O194 1.257 . S
O196 Eu176 2.326 . S
O196 C184 1.242 . S
O197 Tb175 2.324 . S
O197 C184 1.258 . S
O198 Eu176 2.500 . S
O198 C181 1.273 . S
O199 Eu176 2.473 . S
O199 C181 1.257 . S
H200 C186 0.929 . S
H201 C188 0.931 . S
H202 C190 0.929 . S
O203 Tb204 2.292 . S
O203 C206 1.255 . S
Tb204 O203 2.292 . S
Tb204 O220 2.326 . S
Tb204 O222 2.500 . S
Tb204 O223 2.473 . S
Tb204 O226 2.324 . S
Eu205 O209 2.292 . S
Eu205 C210 2.852 . S
Eu205 O221 2.324 . S
Eu205 O225 2.326 . S
Eu205 O227 2.500 . S
Eu205 O228 2.473 . S
C206 O203 1.255 . S
C206 O207 1.247 . S
O207 C206 1.247 . S
C208 O220 1.242 . S
C208 O221 1.258 . S
O209 Eu205 2.292 . S
O209 C211 1.255 . S
C210 Eu205 2.852 . S
C210 C214 1.503 . S
C210 O227 1.273 . S
C210 O228 1.257 . S
C211 O209 1.255 . S
C211 O212 1.247 . S
O212 C211 1.247 . S
C213 O225 1.242 . S
C213 O226 1.258 . S
C214 C210 1.503 . S
C214 C215 1.379 . S
C214 C219 1.392 . S
C215 C214 1.379 . S
C215 C216 1.404 . S
C215 H229 0.929 . S
C216 C215 1.404 . S
C216 C217 1.389 . S
C217 C216 1.389 . S
C217 C218 1.399 . S
C217 H230 0.931 . S
C218 C217 1.399 . S
C218 C219 1.390 . S
C219 C214 1.392 . S
C219 C218 1.390 . S
C219 H231 0.929 . S
O220 Tb204 2.326 . S
O220 C208 1.242 . S
O221 Eu205 2.324 . S
O221 C208 1.258 . S
O222 Tb204 2.500 . S
O222 C224 1.273 . S
O223 Tb204 2.473 . S
O223 C224 1.257 . S
C224 O222 1.273 . S
C224 O223 1.257 . S
O225 Eu205 2.326 . S
O225 C213 1.242 . S
O226 Tb204 2.324 . S
O226 C213 1.258 . S
O227 Eu205 2.500 . S
O227 C210 1.273 . S
O228 Eu205 2.473 . S
O228 C210 1.257 . S
H229 C215 0.929 . S
H230 C217 0.931 . S
H231 C219 0.929 . S
O232 Tb233 2.292 . S
O232 C235 1.255 . S
Tb233 O232 2.292 . S
Tb233 O249 2.326 . S
Tb233 O251 2.500 . S
Tb233 O252 2.473 . S
Tb233 O255 2.324 . S
Eu234 O238 2.292 . S
Eu234 C239 2.852 . S
Eu234 O250 2.324 . S
Eu234 O254 2.326 . S
Eu234 O256 2.500 . S
Eu234 O257 2.473 . S
C235 O232 1.255 . S
C235 O236 1.247 . S
O236 C235 1.247 . S
C237 O249 1.242 . S
C237 O250 1.258 . S
O238 Eu234 2.292 . S
O238 C240 1.255 . S
C239 Eu234 2.852 . S
C239 C243 1.503 . S
C239 O256 1.273 . S
C239 O257 1.257 . S
C240 O238 1.255 . S
C240 O241 1.247 . S
O241 C240 1.247 . S
C242 O254 1.242 . S
C242 O255 1.258 . S
C243 C239 1.503 . S
C243 C244 1.379 . S
C243 C248 1.392 . S
C244 C243 1.379 . S
C244 C245 1.404 . S
C244 H258 0.929 . S
C245 C244 1.404 . S
C245 C246 1.389 . S
C246 C245 1.389 . S
C246 C247 1.399 . S
C246 H259 0.931 . S
C247 C246 1.399 . S
C247 C248 1.390 . S
C248 C243 1.392 . S
C248 C247 1.390 . S
C248 H260 0.929 . S
O249 Tb233 2.326 . S
O249 C237 1.242 . S
O250 Eu234 2.324 . S
O250 C237 1.258 . S
O251 Tb233 2.500 . S
O251 C253 1.273 . S
O252 Tb233 2.473 . S
O252 C253 1.257 . S
C253 O251 1.273 . S
C253 O252 1.257 . S
O254 Eu234 2.326 . S
O254 C242 1.242 . S
O255 Tb233 2.324 . S
O255 C242 1.258 . S
O256 Eu234 2.500 . S
O256 C239 1.273 . S
O257 Eu234 2.473 . S
O257 C239 1.257 . S
H258 C244 0.929 . S
H259 C246 0.931 . S
H260 C248 0.929 . S
O261 Tb262 2.292 . S
O261 C264 1.255 . S
Tb262 O261 2.292 . S
Tb262 O278 2.326 . S
Tb262 O280 2.500 . S
Tb262 O281 2.473 . S
Tb262 O284 2.324 . S
Eu263 O267 2.292 . S
Eu263 C268 2.852 . S
Eu263 O279 2.324 . S
Eu263 O283 2.326 . S
Eu263 O285 2.500 . S
Eu263 O286 2.473 . S
C264 O261 1.255 . S
C264 O265 1.247 . S
O265 C264 1.247 . S
C266 O278 1.242 . S
C266 O279 1.258 . S
O267 Eu263 2.292 . S
O267 C269 1.255 . S
C268 Eu263 2.852 . S
C268 C272 1.503 . S
C268 O285 1.273 . S
C268 O286 1.257 . S
C269 O267 1.255 . S
C269 O270 1.247 . S
O270 C269 1.247 . S
C271 O283 1.242 . S
C271 O284 1.258 . S
C272 C268 1.503 . S
C272 C273 1.379 . S
C272 C277 1.392 . S
C273 C272 1.379 . S
C273 C274 1.404 . S
C273 H287 0.929 . S
C274 C273 1.404 . S
C274 C275 1.389 . S
C275 C274 1.389 . S
C275 C276 1.399 . S
C275 H288 0.931 . S
C276 C275 1.399 . S
C276 C277 1.390 . S
C277 C272 1.392 . S
C277 C276 1.390 . S
C277 H289 0.929 . S
O278 Tb262 2.326 . S
O278 C266 1.242 . S
O279 Eu263 2.324 . S
O279 C266 1.258 . S
O280 Tb262 2.500 . S
O280 C282 1.273 . S
O281 Tb262 2.473 . S
O281 C282 1.257 . S
C282 O280 1.273 . S
C282 O281 1.257 . S
O283 Eu263 2.326 . S
O283 C271 1.242 . S
O284 Tb262 2.324 . S
O284 C271 1.258 . S
O285 Eu263 2.500 . S
O285 C268 1.273 . S
O286 Eu263 2.473 . S
O286 C268 1.257 . S
H287 C273 0.929 . S
H288 C275 0.931 . S
H289 C277 0.929 . S
O290 Tb291 2.292 . S
O290 C293 1.255 . S
Tb291 O290 2.292 . S
Tb291 O307 2.326 . S
Tb291 O309 2.500 . S
Tb291 O310 2.473 . S
Tb291 O313 2.324 . S
Eu292 O296 2.292 . S
Eu292 C297 2.852 . S
Eu292 O308 2.324 . S
Eu292 O312 2.326 . S
Eu292 O314 2.500 . S
Eu292 O315 2.473 . S
C293 O290 1.255 . S
C293 O294 1.247 . S
O294 C293 1.247 . S
C295 O307 1.242 . S
C295 O308 1.258 . S
O296 Eu292 2.292 . S
O296 C298 1.255 . S
C297 Eu292 2.852 . S
C297 C301 1.503 . S
C297 O314 1.273 . S
C297 O315 1.257 . S
C298 O296 1.255 . S
C298 O299 1.247 . S
O299 C298 1.247 . S
C300 O312 1.242 . S
C300 O313 1.258 . S
C301 C297 1.503 . S
C301 C302 1.379 . S
C301 C306 1.392 . S
C302 C301 1.379 . S
C302 C303 1.404 . S
C302 H316 0.929 . S
C303 C302 1.404 . S
C303 C304 1.389 . S
C304 C303 1.389 . S
C304 C305 1.399 . S
C304 H317 0.931 . S
C305 C304 1.399 . S
C305 C306 1.390 . S
C306 C301 1.392 . S
C306 C305 1.390 . S
C306 H318 0.929 . S
O307 Tb291 2.326 . S
O307 C295 1.242 . S
O308 Eu292 2.324 . S
O308 C295 1.258 . S
O309 Tb291 2.500 . S
O309 C311 1.273 . S
O310 Tb291 2.473 . S
O310 C311 1.257 . S
C311 O309 1.273 . S
C311 O310 1.257 . S
O312 Eu292 2.326 . S
O312 C300 1.242 . S
O313 Tb291 2.324 . S
O313 C300 1.258 . S
O314 Eu292 2.500 . S
O314 C297 1.273 . S
O315 Eu292 2.473 . S
O315 C297 1.257 . S
H316 C302 0.929 . S
H317 C304 0.931 . S
H318 C306 0.929 . S
O319 Tb320 2.292 . S
O319 C322 1.255 . S
Tb320 O319 2.292 . S
Tb320 O336 2.326 . S
Tb320 O338 2.500 . S
Tb320 O339 2.473 . S
Tb320 O342 2.324 . S
Eu321 O325 2.292 . S
Eu321 C326 2.852 . S
Eu321 O337 2.324 . S
Eu321 O341 2.326 . S
Eu321 O343 2.500 . S
Eu321 O344 2.473 . S
C322 O319 1.255 . S
C322 O323 1.247 . S
O323 C322 1.247 . S
C324 O336 1.242 . S
C324 O337 1.258 . S
O325 Eu321 2.292 . S
O325 C327 1.255 . S
C326 Eu321 2.852 . S
C326 C330 1.503 . S
C326 O343 1.273 . S
C326 O344 1.257 . S
C327 O325 1.255 . S
C327 O328 1.247 . S
O328 C327 1.247 . S
C329 O341 1.242 . S
C329 O342 1.258 . S
C330 C326 1.503 . S
C330 C331 1.379 . S
C330 C335 1.392 . S
C331 C330 1.379 . S
C331 C332 1.404 . S
C331 H345 0.929 . S
C332 C331 1.404 . S
C332 C333 1.389 . S
C333 C332 1.389 . S
C333 C334 1.399 . S
C333 H346 0.931 . S
C334 C333 1.399 . S
C334 C335 1.390 . S
C335 C330 1.392 . S
C335 C334 1.390 . S
C335 H347 0.929 . S
O336 Tb320 2.326 . S
O336 C324 1.242 . S
O337 Eu321 2.324 . S
O337 C324 1.258 . S
O338 Tb320 2.500 . S
O338 C340 1.273 . S
O339 Tb320 2.473 . S
O339 C340 1.257 . S
C340 O338 1.273 . S
C340 O339 1.257 . S
O341 Eu321 2.326 . S
O341 C329 1.242 . S
O342 Tb320 2.324 . S
O342 C329 1.258 . S
O343 Eu321 2.500 . S
O343 C326 1.273 . S
O344 Eu321 2.473 . S
O344 C326 1.257 . S
H345 C331 0.929 . S
H346 C333 0.931 . S
H347 C335 0.929 . S
O348 Tb349 2.292 . S
O348 C351 1.255 . S
Tb349 O348 2.292 . S
Tb349 O365 2.326 . S
Tb349 O367 2.500 . S
Tb349 O368 2.473 . S
Tb349 O371 2.324 . S
Eu350 O354 2.292 . S
Eu350 C355 2.852 . S
Eu350 O366 2.324 . S
Eu350 O370 2.326 . S
Eu350 O372 2.500 . S
Eu350 O373 2.473 . S
C351 O348 1.255 . S
C351 O352 1.247 . S
O352 C351 1.247 . S
C353 O365 1.242 . S
C353 O366 1.258 . S
O354 Eu350 2.292 . S
O354 C356 1.255 . S
C355 Eu350 2.852 . S
C355 C359 1.503 . S
C355 O372 1.273 . S
C355 O373 1.257 . S
C356 O354 1.255 . S
C356 O357 1.247 . S
O357 C356 1.247 . S
C358 O370 1.242 . S
C358 O371 1.258 . S
C359 C355 1.503 . S
C359 C360 1.379 . S
C359 C364 1.392 . S
C360 C359 1.379 . S
C360 C361 1.404 . S
C360 H374 0.929 . S
C361 C360 1.404 . S
C361 C362 1.389 . S
C362 C361 1.389 . S
C362 C363 1.399 . S
C362 H375 0.931 . S
C363 C362 1.399 . S
C363 C364 1.390 . S
C364 C359 1.392 . S
C364 C363 1.390 . S
C364 H376 0.929 . S
O365 Tb349 2.326 . S
O365 C353 1.242 . S
O366 Eu350 2.324 . S
O366 C353 1.258 . S
O367 Tb349 2.500 . S
O367 C369 1.273 . S
O368 Tb349 2.473 . S
O368 C369 1.257 . S
C369 O367 1.273 . S
C369 O368 1.257 . S
O370 Eu350 2.326 . S
O370 C358 1.242 . S
O371 Tb349 2.324 . S
O371 C358 1.258 . S
O372 Eu350 2.500 . S
O372 C355 1.273 . S
O373 Eu350 2.473 . S
O373 C355 1.257 . S
H374 C360 0.929 . S
H375 C362 0.931 . S
H376 C364 0.929 . S
O377 Tb378 2.292 . S
O377 C380 1.255 . S
Tb378 O377 2.292 . S
Tb378 O394 2.326 . S
Tb378 O396 2.500 . S
Tb378 O397 2.473 . S
Tb378 O400 2.324 . S
Eu379 O383 2.292 . S
Eu379 C384 2.852 . S
Eu379 O395 2.324 . S
Eu379 O399 2.326 . S
Eu379 O401 2.500 . S
Eu379 O402 2.473 . S
C380 O377 1.255 . S
C380 O381 1.247 . S
O381 C380 1.247 . S
C382 O394 1.242 . S
C382 O395 1.258 . S
O383 Eu379 2.292 . S
O383 C385 1.255 . S
C384 Eu379 2.852 . S
C384 C388 1.503 . S
C384 O401 1.273 . S
C384 O402 1.257 . S
C385 O383 1.255 . S
C385 O386 1.247 . S
O386 C385 1.247 . S
C387 O399 1.242 . S
C387 O400 1.258 . S
C388 C384 1.503 . S
C388 C389 1.379 . S
C388 C393 1.392 . S
C389 C388 1.379 . S
C389 C390 1.404 . S
C389 H403 0.929 . S
C390 C389 1.404 . S
C390 C391 1.389 . S
C391 C390 1.389 . S
C391 C392 1.399 . S
C391 H404 0.931 . S
C392 C391 1.399 . S
C392 C393 1.390 . S
C393 C388 1.392 . S
C393 C392 1.390 . S
C393 H405 0.929 . S
O394 Tb378 2.326 . S
O394 C382 1.242 . S
O395 Eu379 2.324 . S
O395 C382 1.258 . S
O396 Tb378 2.500 . S
O396 C398 1.273 . S
O397 Tb378 2.473 . S
O397 C398 1.257 . S
C398 O396 1.273 . S
C398 O397 1.257 . S
O399 Eu379 2.326 . S
O399 C387 1.242 . S
O400 Tb378 2.324 . S
O400 C387 1.258 . S
O401 Eu379 2.500 . S
O401 C384 1.273 . S
O402 Eu379 2.473 . S
O402 C384 1.257 . S
H403 C389 0.929 . S
H404 C391 0.931 . S
H405 C393 0.929 . S
O406 Tb407 2.292 . S
O406 C409 1.255 . S
Tb407 O406 2.292 . S
Tb407 O423 2.326 . S
Tb407 O425 2.500 . S
Tb407 O426 2.473 . S
Tb407 O429 2.324 . S
Eu408 O412 2.292 . S
Eu408 C413 2.852 . S
Eu408 O424 2.324 . S
Eu408 O428 2.326 . S
Eu408 O430 2.500 . S
Eu408 O431 2.473 . S
C409 O406 1.255 . S
C409 O410 1.247 . S
O410 C409 1.247 . S
C411 O423 1.242 . S
C411 O424 1.258 . S
O412 Eu408 2.292 . S
O412 C414 1.255 . S
C413 Eu408 2.852 . S
C413 C417 1.503 . S
C413 O430 1.273 . S
C413 O431 1.257 . S
C414 O412 1.255 . S
C414 O415 1.247 . S
O415 C414 1.247 . S
C416 O428 1.242 . S
C416 O429 1.258 . S
C417 C413 1.503 . S
C417 C418 1.379 . S
C417 C422 1.392 . S
C418 C417 1.379 . S
C418 C419 1.404 . S
C418 H432 0.929 . S
C419 C418 1.404 . S
C419 C420 1.389 . S
C420 C419 1.389 . S
C420 C421 1.399 . S
C420 H433 0.931 . S
C421 C420 1.399 . S
C421 C422 1.390 . S
C422 C417 1.392 . S
C422 C421 1.390 . S
C422 H434 0.929 . S
O423 Tb407 2.326 . S
O423 C411 1.242 . S
O424 Eu408 2.324 . S
O424 C411 1.258 . S
O425 Tb407 2.500 . S
O425 C427 1.273 . S
O426 Tb407 2.473 . S
O426 C427 1.257 . S
C427 O425 1.273 . S
C427 O426 1.257 . S
O428 Eu408 2.326 . S
O428 C416 1.242 . S
O429 Tb407 2.324 . S
O429 C416 1.258 . S
O430 Eu408 2.500 . S
O430 C413 1.273 . S
O431 Eu408 2.473 . S
O431 C413 1.257 . S
H432 C418 0.929 . S
H433 C420 0.931 . S
H434 C422 0.929 . S
O435 Tb436 2.292 . S
O435 C438 1.255 . S
Tb436 O435 2.292 . S
Tb436 O452 2.326 . S
Tb436 O454 2.500 . S
Tb436 O455 2.473 . S
Tb436 O458 2.324 . S
Eu437 O441 2.292 . S
Eu437 C442 2.852 . S
Eu437 O453 2.324 . S
Eu437 O457 2.326 . S
Eu437 O459 2.500 . S
Eu437 O460 2.473 . S
C438 O435 1.255 . S
C438 O439 1.247 . S
O439 C438 1.247 . S
C440 O452 1.242 . S
C440 O453 1.258 . S
O441 Eu437 2.292 . S
O441 C443 1.255 . S
C442 Eu437 2.852 . S
C442 C446 1.503 . S
C442 O459 1.273 . S
C442 O460 1.257 . S
C443 O441 1.255 . S
C443 O444 1.247 . S
O444 C443 1.247 . S
C445 O457 1.242 . S
C445 O458 1.258 . S
C446 C442 1.503 . S
C446 C447 1.379 . S
C446 C451 1.392 . S
C447 C446 1.379 . S
C447 C448 1.404 . S
C447 H461 0.929 . S
C448 C447 1.404 . S
C448 C449 1.389 . S
C449 C448 1.389 . S
C449 C450 1.399 . S
C449 H462 0.931 . S
C450 C449 1.399 . S
C450 C451 1.390 . S
C451 C446 1.392 . S
C451 C450 1.390 . S
C451 H463 0.929 . S
O452 Tb436 2.326 . S
O452 C440 1.242 . S
O453 Eu437 2.324 . S
O453 C440 1.258 . S
O454 Tb436 2.500 . S
O454 C456 1.273 . S
O455 Tb436 2.473 . S
O455 C456 1.257 . S
C456 O454 1.273 . S
C456 O455 1.257 . S
O457 Eu437 2.326 . S
O457 C445 1.242 . S
O458 Tb436 2.324 . S
O458 C445 1.258 . S
O459 Eu437 2.500 . S
O459 C442 1.273 . S
O460 Eu437 2.473 . S
O460 C442 1.257 . S
H461 C447 0.929 . S
H462 C449 0.931 . S
H463 C451 0.929 . S
O464 Tb465 2.292 . S
O464 C467 1.255 . S
Tb465 O464 2.292 . S
Tb465 O481 2.326 . S
Tb465 O483 2.500 . S
Tb465 O484 2.473 . S
Tb465 O487 2.324 . S
Eu466 O470 2.292 . S
Eu466 C471 2.852 . S
Eu466 O482 2.324 . S
Eu466 O486 2.326 . S
Eu466 O488 2.500 . S
Eu466 O489 2.473 . S
C467 O464 1.255 . S
C467 O468 1.247 . S
O468 C467 1.247 . S
C469 O481 1.242 . S
C469 O482 1.258 . S
O470 Eu466 2.292 . S
O470 C472 1.255 . S
C471 Eu466 2.852 . S
C471 C475 1.503 . S
C471 O488 1.273 . S
C471 O489 1.257 . S
C472 O470 1.255 . S
C472 O473 1.247 . S
O473 C472 1.247 . S
C474 O486 1.242 . S
C474 O487 1.258 . S
C475 C471 1.503 . S
C475 C476 1.379 . S
C475 C480 1.392 . S
C476 C475 1.379 . S
C476 C477 1.404 . S
C476 H490 0.929 . S
C477 C476 1.404 . S
C477 C478 1.389 . S
C478 C477 1.389 . S
C478 C479 1.399 . S
C478 H491 0.931 . S
C479 C478 1.399 . S
C479 C480 1.390 . S
C480 C475 1.392 . S
C480 C479 1.390 . S
C480 H492 0.929 . S
O481 Tb465 2.326 . S
O481 C469 1.242 . S
O482 Eu466 2.324 . S
O482 C469 1.258 . S
O483 Tb465 2.500 . S
O483 C485 1.273 . S
O484 Tb465 2.473 . S
O484 C485 1.257 . S
C485 O483 1.273 . S
C485 O484 1.257 . S
O486 Eu466 2.326 . S
O486 C474 1.242 . S
O487 Tb465 2.324 . S
O487 C474 1.258 . S
O488 Eu466 2.500 . S
O488 C471 1.273 . S
O489 Eu466 2.473 . S
O489 C471 1.257 . S
H490 C476 0.929 . S
H491 C478 0.931 . S
H492 C480 0.929 . S
O493 Tb494 2.292 . S
O493 C496 1.255 . S
Tb494 O493 2.292 . S
Tb494 O510 2.326 . S
Tb494 O512 2.500 . S
Tb494 O513 2.473 . S
Tb494 O516 2.324 . S
Eu495 O499 2.292 . S
Eu495 C500 2.852 . S
Eu495 O511 2.324 . S
Eu495 O515 2.326 . S
Eu495 O517 2.500 . S
Eu495 O518 2.473 . S
C496 O493 1.255 . S
C496 O497 1.247 . S
O497 C496 1.247 . S
C498 O510 1.242 . S
C498 O511 1.258 . S
O499 Eu495 2.292 . S
O499 C501 1.255 . S
C500 Eu495 2.852 . S
C500 C504 1.503 . S
C500 O517 1.273 . S
C500 O518 1.257 . S
C501 O499 1.255 . S
C501 O502 1.247 . S
O502 C501 1.247 . S
C503 O515 1.242 . S
C503 O516 1.258 . S
C504 C500 1.503 . S
C504 C505 1.379 . S
C504 C509 1.392 . S
C505 C504 1.379 . S
C505 C506 1.404 . S
C505 H519 0.929 . S
C506 C505 1.404 . S
C506 C507 1.389 . S
C507 C506 1.389 . S
C507 C508 1.399 . S
C507 H520 0.931 . S
C508 C507 1.399 . S
C508 C509 1.390 . S
C509 C504 1.392 . S
C509 C508 1.390 . S
C509 H521 0.929 . S
O510 Tb494 2.326 . S
O510 C498 1.242 . S
O511 Eu495 2.324 . S
O511 C498 1.258 . S
O512 Tb494 2.500 . S
O512 C514 1.273 . S
O513 Tb494 2.473 . S
O513 C514 1.257 . S
C514 O512 1.273 . S
C514 O513 1.257 . S
O515 Eu495 2.326 . S
O515 C503 1.242 . S
O516 Tb494 2.324 . S
O516 C503 1.258 . S
O517 Eu495 2.500 . S
O517 C500 1.273 . S
O518 Eu495 2.473 . S
O518 C500 1.257 . S
H519 C505 0.929 . S
H520 C507 0.931 . S
H521 C509 0.929 . S
O522 Tb523 2.292 . S
O522 C525 1.255 . S
Tb523 O522 2.292 . S
Tb523 O539 2.326 . S
Tb523 O541 2.500 . S
Tb523 O542 2.473 . S
Tb523 O545 2.324 . S
Eu524 O528 2.292 . S
Eu524 C529 2.852 . S
Eu524 O540 2.324 . S
Eu524 O544 2.326 . S
Eu524 O546 2.500 . S
Eu524 O547 2.473 . S
C525 O522 1.255 . S
C525 O526 1.247 . S
O526 C525 1.247 . S
C527 O539 1.242 . S
C527 O540 1.258 . S
O528 Eu524 2.292 . S
O528 C530 1.255 . S
C529 Eu524 2.852 . S
C529 C533 1.503 . S
C529 O546 1.273 . S
C529 O547 1.257 . S
C530 O528 1.255 . S
C530 O531 1.247 . S
O531 C530 1.247 . S
C532 O544 1.242 . S
C532 O545 1.258 . S
C533 C529 1.503 . S
C533 C534 1.379 . S
C533 C538 1.392 . S
C534 C533 1.379 . S
C534 C535 1.404 . S
C534 H548 0.929 . S
C535 C534 1.404 . S
C535 C536 1.389 . S
C536 C535 1.389 . S
C536 C537 1.399 . S
C536 H549 0.931 . S
C537 C536 1.399 . S
C537 C538 1.390 . S
C538 C533 1.392 . S
C538 C537 1.390 . S
C538 H550 0.929 . S
O539 Tb523 2.326 . S
O539 C527 1.242 . S
O540 Eu524 2.324 . S
O540 C527 1.258 . S
O541 Tb523 2.500 . S
O541 C543 1.273 . S
O542 Tb523 2.473 . S
O542 C543 1.257 . S
C543 O541 1.273 . S
C543 O542 1.257 . S
O544 Eu524 2.326 . S
O544 C532 1.242 . S
O545 Tb523 2.324 . S
O545 C532 1.258 . S
O546 Eu524 2.500 . S
O546 C529 1.273 . S
O547 Eu524 2.473 . S
O547 C529 1.257 . S
H548 C534 0.929 . S
H549 C536 0.931 . S
H550 C538 0.929 . S
O551 Tb552 2.292 . S
O551 C554 1.255 . S
Tb552 O551 2.292 . S
Tb552 O568 2.326 . S
Tb552 O570 2.500 . S
Tb552 O571 2.473 . S
Tb552 O574 2.324 . S
Eu553 O557 2.292 . S
Eu553 C558 2.852 . S
Eu553 O569 2.324 . S
Eu553 O573 2.326 . S
Eu553 O575 2.500 . S
Eu553 O576 2.473 . S
C554 O551 1.255 . S
C554 O555 1.247 . S
O555 C554 1.247 . S
C556 O568 1.242 . S
C556 O569 1.258 . S
O557 Eu553 2.292 . S
O557 C559 1.255 . S
C558 Eu553 2.852 . S
C558 C562 1.503 . S
C558 O575 1.273 . S
C558 O576 1.257 . S
C559 O557 1.255 . S
C559 O560 1.247 . S
O560 C559 1.247 . S
C561 O573 1.242 . S
C561 O574 1.258 . S
C562 C558 1.503 . S
C562 C563 1.379 . S
C562 C567 1.392 . S
C563 C562 1.379 . S
C563 C564 1.404 . S
C563 H577 0.929 . S
C564 C563 1.404 . S
C564 C565 1.389 . S
C565 C564 1.389 . S
C565 C566 1.399 . S
C565 H578 0.931 . S
C566 C565 1.399 . S
C566 C567 1.390 . S
C567 C562 1.392 . S
C567 C566 1.390 . S
C567 H579 0.929 . S
O568 Tb552 2.326 . S
O568 C556 1.242 . S
O569 Eu553 2.324 . S
O569 C556 1.258 . S
O570 Tb552 2.500 . S
O570 C572 1.273 . S
O571 Tb552 2.473 . S
O571 C572 1.257 . S
C572 O570 1.273 . S
C572 O571 1.257 . S
O573 Eu553 2.326 . S
O573 C561 1.242 . S
O574 Tb552 2.324 . S
O574 C561 1.258 . S
O575 Eu553 2.500 . S
O575 C558 1.273 . S
O576 Eu553 2.473 . S
O576 C558 1.257 . S
H577 C563 0.929 . S
H578 C565 0.931 . S
H579 C567 0.929 . S
O580 Tb581 2.292 . S
O580 C583 1.255 . S
Tb581 O580 2.292 . S
Tb581 O597 2.326 . S
Tb581 O599 2.500 . S
Tb581 O600 2.473 . S
Tb581 O603 2.324 . S
Eu582 O586 2.292 . S
Eu582 C587 2.852 . S
Eu582 O598 2.324 . S
Eu582 O602 2.326 . S
Eu582 O604 2.500 . S
Eu582 O605 2.473 . S
C583 O580 1.255 . S
C583 O584 1.247 . S
O584 C583 1.247 . S
C585 O597 1.242 . S
C585 O598 1.258 . S
O586 Eu582 2.292 . S
O586 C588 1.255 . S
C587 Eu582 2.852 . S
C587 C591 1.503 . S
C587 O604 1.273 . S
C587 O605 1.257 . S
C588 O586 1.255 . S
C588 O589 1.247 . S
O589 C588 1.247 . S
C590 O602 1.242 . S
C590 O603 1.258 . S
C591 C587 1.503 . S
C591 C592 1.379 . S
C591 C596 1.392 . S
C592 C591 1.379 . S
C592 C593 1.404 . S
C592 H606 0.929 . S
C593 C592 1.404 . S
C593 C594 1.389 . S
C594 C593 1.389 . S
C594 C595 1.399 . S
C594 H607 0.931 . S
C595 C594 1.399 . S
C595 C596 1.390 . S
C596 C591 1.392 . S
C596 C595 1.390 . S
C596 H608 0.929 . S
O597 Tb581 2.326 . S
O597 C585 1.242 . S
O598 Eu582 2.324 . S
O598 C585 1.258 . S
O599 Tb581 2.500 . S
O599 C601 1.273 . S
O600 Tb581 2.473 . S
O600 C601 1.257 . S
C601 O599 1.273 . S
C601 O600 1.257 . S
O602 Eu582 2.326 . S
O602 C590 1.242 . S
O603 Tb581 2.324 . S
O603 C590 1.258 . S
O604 Eu582 2.500 . S
O604 C587 1.273 . S
O605 Eu582 2.473 . S
O605 C587 1.257 . S
H606 C592 0.929 . S
H607 C594 0.931 . S
H608 C596 0.929 . S
O609 Tb610 2.292 . S
O609 C612 1.255 . S
Tb610 O609 2.292 . S
Tb610 O626 2.326 . S
Tb610 O628 2.500 . S
Tb610 O629 2.473 . S
Tb610 O632 2.324 . S
Eu611 O615 2.292 . S
Eu611 C616 2.852 . S
Eu611 O627 2.324 . S
Eu611 O631 2.326 . S
Eu611 O633 2.500 . S
Eu611 O634 2.473 . S
C612 O609 1.255 . S
C612 O613 1.247 . S
O613 C612 1.247 . S
C614 O626 1.242 . S
C614 O627 1.258 . S
O615 Eu611 2.292 . S
O615 C617 1.255 . S
C616 Eu611 2.852 . S
C616 C620 1.503 . S
C616 O633 1.273 . S
C616 O634 1.257 . S
C617 O615 1.255 . S
C617 O618 1.247 . S
O618 C617 1.247 . S
C619 O631 1.242 . S
C619 O632 1.258 . S
C620 C616 1.503 . S
C620 C621 1.379 . S
C620 C625 1.392 . S
C621 C620 1.379 . S
C621 C622 1.404 . S
C621 H635 0.929 . S
C622 C621 1.404 . S
C622 C623 1.389 . S
C623 C622 1.389 . S
C623 C624 1.399 . S
C623 H636 0.931 . S
C624 C623 1.399 . S
C624 C625 1.390 . S
C625 C620 1.392 . S
C625 C624 1.390 . S
C625 H637 0.929 . S
O626 Tb610 2.326 . S
O626 C614 1.242 . S
O627 Eu611 2.324 . S
O627 C614 1.258 . S
O628 Tb610 2.500 . S
O628 C630 1.273 . S
O629 Tb610 2.473 . S
O629 C630 1.257 . S
C630 O628 1.273 . S
C630 O629 1.257 . S
O631 Eu611 2.326 . S
O631 C619 1.242 . S
O632 Tb610 2.324 . S
O632 C619 1.258 . S
O633 Eu611 2.500 . S
O633 C616 1.273 . S
O634 Eu611 2.473 . S
O634 C616 1.257 . S
H635 C621 0.929 . S
H636 C623 0.931 . S
H637 C625 0.929 . S
O638 Tb639 2.292 . S
O638 C641 1.255 . S
Tb639 O638 2.292 . S
Tb639 O655 2.326 . S
Tb639 O657 2.500 . S
Tb639 O658 2.473 . S
Tb639 O661 2.324 . S
Eu640 O644 2.292 . S
Eu640 C645 2.852 . S
Eu640 O656 2.324 . S
Eu640 O660 2.326 . S
Eu640 O662 2.500 . S
Eu640 O663 2.473 . S
C641 O638 1.255 . S
C641 O642 1.247 . S
O642 C641 1.247 . S
C643 O655 1.242 . S
C643 O656 1.258 . S
O644 Eu640 2.292 . S
O644 C646 1.255 . S
C645 Eu640 2.852 . S
C645 C649 1.503 . S
C645 O662 1.273 . S
C645 O663 1.257 . S
C646 O644 1.255 . S
C646 O647 1.247 . S
O647 C646 1.247 . S
C648 O660 1.242 . S
C648 O661 1.258 . S
C649 C645 1.503 . S
C649 C650 1.379 . S
C649 C654 1.392 . S
C650 C649 1.379 . S
C650 C651 1.404 . S
C650 H664 0.929 . S
C651 C650 1.404 . S
C651 C652 1.389 . S
C652 C651 1.389 . S
C652 C653 1.399 . S
C652 H665 0.931 . S
C653 C652 1.399 . S
C653 C654 1.390 . S
C654 C649 1.392 . S
C654 C653 1.390 . S
C654 H666 0.929 . S
O655 Tb639 2.326 . S
O655 C643 1.242 . S
O656 Eu640 2.324 . S
O656 C643 1.258 . S
O657 Tb639 2.500 . S
O657 C659 1.273 . S
O658 Tb639 2.473 . S
O658 C659 1.257 . S
C659 O657 1.273 . S
C659 O658 1.257 . S
O660 Eu640 2.326 . S
O660 C648 1.242 . S
O661 Tb639 2.324 . S
O661 C648 1.258 . S
O662 Eu640 2.500 . S
O662 C645 1.273 . S
O663 Eu640 2.473 . S
O663 C645 1.257 . S
H664 C650 0.929 . S
H665 C652 0.931 . S
H666 C654 0.929 . S
O667 Tb668 2.292 . S
O667 C670 1.255 . S
Tb668 O667 2.292 . S
Tb668 O684 2.326 . S
Tb668 O686 2.500 . S
Tb668 O687 2.473 . S
Tb668 O690 2.324 . S
Eu669 O673 2.292 . S
Eu669 C674 2.852 . S
Eu669 O685 2.324 . S
Eu669 O689 2.326 . S
Eu669 O691 2.500 . S
Eu669 O692 2.473 . S
C670 O667 1.255 . S
C670 O671 1.247 . S
O671 C670 1.247 . S
C672 O684 1.242 . S
C672 O685 1.258 . S
O673 Eu669 2.292 . S
O673 C675 1.255 . S
C674 Eu669 2.852 . S
C674 C678 1.503 . S
C674 O691 1.273 . S
C674 O692 1.257 . S
C675 O673 1.255 . S
C675 O676 1.247 . S
O676 C675 1.247 . S
C677 O689 1.242 . S
C677 O690 1.258 . S
C678 C674 1.503 . S
C678 C679 1.379 . S
C678 C683 1.392 . S
C679 C678 1.379 . S
C679 C680 1.404 . S
C679 H693 0.929 . S
C680 C679 1.404 . S
C680 C681 1.389 . S
C681 C680 1.389 . S
C681 C682 1.399 . S
C681 H694 0.931 . S
C682 C681 1.399 . S
C682 C683 1.390 . S
C683 C678 1.392 . S
C683 C682 1.390 . S
C683 H695 0.929 . S
O684 Tb668 2.326 . S
O684 C672 1.242 . S
O685 Eu669 2.324 . S
O685 C672 1.258 . S
O686 Tb668 2.500 . S
O686 C688 1.273 . S
O687 Tb668 2.473 . S
O687 C688 1.257 . S
C688 O686 1.273 . S
C688 O687 1.257 . S
O689 Eu669 2.326 . S
O689 C677 1.242 . S
O690 Tb668 2.324 . S
O690 C677 1.258 . S
O691 Eu669 2.500 . S
O691 C674 1.273 . S
O692 Eu669 2.473 . S
O692 C674 1.257 . S
H693 C679 0.929 . S
H694 C681 0.931 . S
H695 C683 0.929 . S
O696 Tb697 2.292 . S
O696 C699 1.255 . S
Tb697 O696 2.292 . S
Tb697 O713 2.326 . S
Tb697 O715 2.500 . S
Tb697 O716 2.473 . S
Tb697 O719 2.324 . S
Eu698 O702 2.292 . S
Eu698 C703 2.852 . S
Eu698 O714 2.324 . S
Eu698 O718 2.326 . S
Eu698 O720 2.500 . S
Eu698 O721 2.473 . S
C699 O696 1.255 . S
C699 O700 1.247 . S
O700 C699 1.247 . S
C701 O713 1.242 . S
C701 O714 1.258 . S
O702 Eu698 2.292 . S
O702 C704 1.255 . S
C703 Eu698 2.852 . S
C703 C707 1.503 . S
C703 O720 1.273 . S
C703 O721 1.257 . S
C704 O702 1.255 . S
C704 O705 1.247 . S
O705 C704 1.247 . S
C706 O718 1.242 . S
C706 O719 1.258 . S
C707 C703 1.503 . S
C707 C708 1.379 . S
C707 C712 1.392 . S
C708 C707 1.379 . S
C708 C709 1.404 1_554 S
C708 H722 0.929 . S
C709 C708 1.404 1_556 S
C709 C710 1.389 . S
C710 C709 1.389 . S
C710 C711 1.399 . S
C710 H723 0.931 . S
C711 C710 1.399 . S
C711 C712 1.390 1_556 S
C712 C707 1.392 . S
C712 C711 1.390 1_554 S
C712 H724 0.929 . S
O713 Tb697 2.326 . S
O713 C701 1.242 . S
O714 Eu698 2.324 . S
O714 C701 1.258 . S
O715 Tb697 2.500 . S
O715 C717 1.273 . S
O716 Tb697 2.473 . S
O716 C717 1.257 . S
C717 O715 1.273 . S
C717 O716 1.257 . S
O718 Eu698 2.326 . S
O718 C706 1.242 . S
O719 Tb697 2.324 . S
O719 C706 1.258 . S
O720 Eu698 2.500 . S
O720 C703 1.273 . S
O721 Eu698 2.473 . S
O721 C703 1.257 . S
H722 C708 0.929 . S
H723 C710 0.931 . S
H724 C712 0.929 . S
O725 Tb726 2.292 . S
O725 C728 1.255 . S
Tb726 O725 2.292 . S
Tb726 O742 2.326 . S
Tb726 O744 2.500 . S
Tb726 O745 2.473 . S
Tb726 O748 2.324 . S
Eu727 O731 2.292 . S
Eu727 C732 2.852 . S
Eu727 O743 2.324 . S
Eu727 O747 2.326 . S
Eu727 O749 2.500 . S
Eu727 O750 2.473 . S
C728 O725 1.255 . S
C728 O729 1.247 . S
O729 C728 1.247 . S
C730 O742 1.242 . S
C730 O743 1.258 . S
O731 Eu727 2.292 . S
O731 C733 1.255 . S
C732 Eu727 2.852 . S
C732 C736 1.503 . S
C732 O749 1.273 . S
C732 O750 1.257 . S
C733 O731 1.255 . S
C733 O734 1.247 . S
O734 C733 1.247 . S
C735 O747 1.242 . S
C735 O748 1.258 . S
C736 C732 1.503 . S
C736 C737 1.379 . S
C736 C741 1.392 . S
C737 C736 1.379 . S
C737 C738 1.404 1_554 S
C737 H751 0.929 . S
C738 C737 1.404 1_556 S
C738 C739 1.389 . S
C739 C738 1.389 . S
C739 C740 1.399 . S
C739 H752 0.931 . S
C740 C739 1.399 . S
C740 C741 1.390 1_556 S
C741 C736 1.392 . S
C741 C740 1.390 1_554 S
C741 H753 0.929 . S
O742 Tb726 2.326 . S
O742 C730 1.242 . S
O743 Eu727 2.324 . S
O743 C730 1.258 . S
O744 Tb726 2.500 . S
O744 C746 1.273 . S
O745 Tb726 2.473 . S
O745 C746 1.257 . S
C746 O744 1.273 . S
C746 O745 1.257 . S
O747 Eu727 2.326 . S
O747 C735 1.242 . S
O748 Tb726 2.324 . S
O748 C735 1.258 . S
O749 Eu727 2.500 . S
O749 C732 1.273 . S
O750 Eu727 2.473 . S
O750 C732 1.257 . S
H751 C737 0.929 . S
H752 C739 0.931 . S
H753 C741 0.929 . S
O754 Tb755 2.292 . S
O754 C757 1.255 . S
Tb755 O754 2.292 . S
Tb755 O771 2.326 . S
Tb755 O773 2.500 . S
Tb755 O774 2.473 . S
Tb755 O777 2.324 . S
Eu756 O760 2.292 . S
Eu756 C761 2.852 . S
Eu756 O772 2.324 . S
Eu756 O776 2.326 . S
Eu756 O778 2.500 . S
Eu756 O779 2.473 . S
C757 O754 1.255 . S
C757 O758 1.247 . S
O758 C757 1.247 . S
C759 O771 1.242 . S
C759 O772 1.258 . S
O760 Eu756 2.292 . S
O760 C762 1.255 . S
C761 Eu756 2.852 . S
C761 C765 1.503 . S
C761 O778 1.273 . S
C761 O779 1.257 . S
C762 O760 1.255 . S
C762 O763 1.247 . S
O763 C762 1.247 . S
C764 O776 1.242 . S
C764 O777 1.258 . S
C765 C761 1.503 . S
C765 C766 1.379 . S
C765 C770 1.392 . S
C766 C765 1.379 . S
C766 C767 1.404 . S
C766 H780 0.929 . S
C767 C766 1.404 . S
C767 C768 1.389 . S
C768 C767 1.389 . S
C768 C769 1.399 . S
C768 H781 0.931 . S
C769 C768 1.399 . S
C769 C770 1.390 . S
C770 C765 1.392 . S
C770 C769 1.390 . S
C770 H782 0.929 . S
O771 Tb755 2.326 . S
O771 C759 1.242 . S
O772 Eu756 2.324 . S
O772 C759 1.258 . S
O773 Tb755 2.500 . S
O773 C775 1.273 . S
O774 Tb755 2.473 . S
O774 C775 1.257 . S
C775 O773 1.273 . S
C775 O774 1.257 . S
O776 Eu756 2.326 . S
O776 C764 1.242 . S
O777 Tb755 2.324 . S
O777 C764 1.258 . S
O778 Eu756 2.500 . S
O778 C761 1.273 . S
O779 Eu756 2.473 . S
O779 C761 1.257 . S
H780 C766 0.929 . S
H781 C768 0.931 . S
H782 C770 0.929 . S
O783 Tb784 2.292 . S
O783 C786 1.255 . S
Tb784 O783 2.292 . S
Tb784 O800 2.326 . S
Tb784 O802 2.500 . S
Tb784 O803 2.473 . S
Tb784 O806 2.324 . S
Eu785 O789 2.292 . S
Eu785 C790 2.852 . S
Eu785 O801 2.324 . S
Eu785 O805 2.326 . S
Eu785 O807 2.500 . S
Eu785 O808 2.473 . S
C786 O783 1.255 . S
C786 O787 1.247 . S
O787 C786 1.247 . S
C788 O800 1.242 . S
C788 O801 1.258 . S
O789 Eu785 2.292 . S
O789 C791 1.255 . S
C790 Eu785 2.852 . S
C790 C794 1.503 . S
C790 O807 1.273 . S
C790 O808 1.257 . S
C791 O789 1.255 . S
C791 O792 1.247 . S
O792 C791 1.247 . S
C793 O805 1.242 . S
C793 O806 1.258 . S
C794 C790 1.503 . S
C794 C795 1.379 . S
C794 C799 1.392 . S
C795 C794 1.379 . S
C795 C796 1.404 . S
C795 H809 0.929 . S
C796 C795 1.404 . S
C796 C797 1.389 . S
C797 C796 1.389 . S
C797 C798 1.399 . S
C797 H810 0.931 . S
C798 C797 1.399 . S
C798 C799 1.390 . S
C799 C794 1.392 . S
C799 C798 1.390 . S
C799 H811 0.929 . S
O800 Tb784 2.326 . S
O800 C788 1.242 . S
O801 Eu785 2.324 . S
O801 C788 1.258 . S
O802 Tb784 2.500 . S
O802 C804 1.273 . S
O803 Tb784 2.473 . S
O803 C804 1.257 . S
C804 O802 1.273 . S
C804 O803 1.257 . S
O805 Eu785 2.326 . S
O805 C793 1.242 . S
O806 Tb784 2.324 . S
O806 C793 1.258 . S
O807 Eu785 2.500 . S
O807 C790 1.273 . S
O808 Eu785 2.473 . S
O808 C790 1.257 . S
H809 C795 0.929 . S
H810 C797 0.931 . S
H811 C799 0.929 . S
O812 Tb813 2.292 . S
O812 C815 1.255 . S
Tb813 O812 2.292 . S
Tb813 O829 2.326 . S
Tb813 O831 2.500 . S
Tb813 O832 2.473 . S
Tb813 O835 2.324 . S
Eu814 O818 2.292 . S
Eu814 C819 2.852 . S
Eu814 O830 2.324 . S
Eu814 O834 2.326 . S
Eu814 O836 2.500 . S
Eu814 O837 2.473 . S
C815 O812 1.255 . S
C815 O816 1.247 . S
O816 C815 1.247 . S
C817 O829 1.242 . S
C817 O830 1.258 . S
O818 Eu814 2.292 . S
O818 C820 1.255 . S
C819 Eu814 2.852 . S
C819 C823 1.503 . S
C819 O836 1.273 . S
C819 O837 1.257 . S
C820 O818 1.255 . S
C820 O821 1.247 . S
O821 C820 1.247 . S
C822 O834 1.242 . S
C822 O835 1.258 . S
C823 C819 1.503 . S
C823 C824 1.379 . S
C823 C828 1.392 . S
C824 C823 1.379 . S
C824 C825 1.404 1_556 S
C824 H838 0.929 . S
C825 C824 1.404 1_554 S
C825 C826 1.389 . S
C826 C825 1.389 . S
C826 C827 1.399 . S
C826 H839 0.931 . S
C827 C826 1.399 . S
C827 C828 1.390 1_554 S
C828 C823 1.392 . S
C828 C827 1.390 1_556 S
C828 H840 0.929 . S
O829 Tb813 2.326 . S
O829 C817 1.242 . S
O830 Eu814 2.324 . S
O830 C817 1.258 . S
O831 Tb813 2.500 . S
O831 C833 1.273 . S
O832 Tb813 2.473 . S
O832 C833 1.257 . S
C833 O831 1.273 . S
C833 O832 1.257 . S
O834 Eu814 2.326 . S
O834 C822 1.242 . S
O835 Tb813 2.324 . S
O835 C822 1.258 . S
O836 Eu814 2.500 . S
O836 C819 1.273 . S
O837 Eu814 2.473 . S
O837 C819 1.257 . S
H838 C824 0.929 . S
H839 C826 0.931 . S
H840 C828 0.929 . S
O841 Tb842 2.292 . S
O841 C844 1.255 . S
Tb842 O841 2.292 . S
Tb842 O858 2.326 . S
Tb842 O860 2.500 . S
Tb842 O861 2.473 . S
Tb842 O864 2.324 . S
Eu843 O847 2.292 . S
Eu843 C848 2.852 . S
Eu843 O859 2.324 . S
Eu843 O863 2.326 . S
Eu843 O865 2.500 . S
Eu843 O866 2.473 . S
C844 O841 1.255 . S
C844 O845 1.247 . S
O845 C844 1.247 . S
C846 O858 1.242 . S
C846 O859 1.258 . S
O847 Eu843 2.292 . S
O847 C849 1.255 . S
C848 Eu843 2.852 . S
C848 C852 1.503 . S
C848 O865 1.273 . S
C848 O866 1.257 . S
C849 O847 1.255 . S
C849 O850 1.247 . S
O850 C849 1.247 . S
C851 O863 1.242 . S
C851 O864 1.258 . S
C852 C848 1.503 . S
C852 C853 1.379 . S
C852 C857 1.392 . S
C853 C852 1.379 . S
C853 C854 1.404 1_556 S
C853 H867 0.929 . S
C854 C853 1.404 1_554 S
C854 C855 1.389 . S
C855 C854 1.389 . S
C855 C856 1.399 . S
C855 H868 0.931 . S
C856 C855 1.399 . S
C856 C857 1.390 1_554 S
C857 C852 1.392 . S
C857 C856 1.390 1_556 S
C857 H869 0.929 . S
O858 Tb842 2.326 . S
O858 C846 1.242 . S
O859 Eu843 2.324 . S
O859 C846 1.258 . S
O860 Tb842 2.500 . S
O860 C862 1.273 . S
O861 Tb842 2.473 . S
O861 C862 1.257 . S
C862 O860 1.273 . S
C862 O861 1.257 . S
O863 Eu843 2.326 . S
O863 C851 1.242 . S
O864 Tb842 2.324 . S
O864 C851 1.258 . S
O865 Eu843 2.500 . S
O865 C848 1.273 . S
O866 Eu843 2.473 . S
O866 C848 1.257 . S
H867 C853 0.929 . S
H868 C855 0.931 . S
H869 C857 0.929 . S
O870 Tb871 2.292 . S
O870 C873 1.255 . S
Tb871 O870 2.292 . S
Tb871 O887 2.326 . S
Tb871 O889 2.500 . S
Tb871 O890 2.473 . S
Tb871 O893 2.324 . S
Eu872 O876 2.292 . S
Eu872 C877 2.852 . S
Eu872 O888 2.324 . S
Eu872 O892 2.326 . S
Eu872 O894 2.500 . S
Eu872 O895 2.473 . S
C873 O870 1.255 . S
C873 O874 1.247 . S
O874 C873 1.247 . S
C875 O887 1.242 . S
C875 O888 1.258 . S
O876 Eu872 2.292 . S
O876 C878 1.255 . S
C877 Eu872 2.852 . S
C877 C881 1.503 . S
C877 O894 1.273 . S
C877 O895 1.257 . S
C878 O876 1.255 . S
C878 O879 1.247 . S
O879 C878 1.247 . S
C880 O892 1.242 . S
C880 O893 1.258 . S
C881 C877 1.503 . S
C881 C882 1.379 . S
C881 C886 1.392 . S
C882 C881 1.379 . S
C882 C883 1.404 . S
C882 H896 0.929 . S
C883 C882 1.404 . S
C883 C884 1.389 . S
C884 C883 1.389 . S
C884 C885 1.399 . S
C884 H897 0.931 . S
C885 C884 1.399 . S
C885 C886 1.390 . S
C886 C881 1.392 . S
C886 C885 1.390 . S
C886 H898 0.929 . S
O887 Tb871 2.326 . S
O887 C875 1.242 . S
O888 Eu872 2.324 . S
O888 C875 1.258 . S
O889 Tb871 2.500 . S
O889 C891 1.273 . S
O890 Tb871 2.473 . S
O890 C891 1.257 . S
C891 O889 1.273 . S
C891 O890 1.257 . S
O892 Eu872 2.326 . S
O892 C880 1.242 . S
O893 Tb871 2.324 . S
O893 C880 1.258 . S
O894 Eu872 2.500 . S
O894 C877 1.273 . S
O895 Eu872 2.473 . S
O895 C877 1.257 . S
H896 C882 0.929 . S
H897 C884 0.931 . S
H898 C886 0.929 . S
O899 Tb900 2.292 . S
O899 C902 1.255 . S
Tb900 O899 2.292 . S
Tb900 O916 2.326 . S
Tb900 O918 2.500 . S
Tb900 O919 2.473 . S
Tb900 O922 2.324 . S
Eu901 O905 2.292 . S
Eu901 C906 2.852 . S
Eu901 O917 2.324 . S
Eu901 O921 2.326 . S
Eu901 O923 2.500 . S
Eu901 O924 2.473 . S
C902 O899 1.255 . S
C902 O903 1.247 . S
O903 C902 1.247 . S
C904 O916 1.242 . S
C904 O917 1.258 . S
O905 Eu901 2.292 . S
O905 C907 1.255 . S
C906 Eu901 2.852 . S
C906 C910 1.503 . S
C906 O923 1.273 . S
C906 O924 1.257 . S
C907 O905 1.255 . S
C907 O908 1.247 . S
O908 C907 1.247 . S
C909 O921 1.242 . S
C909 O922 1.258 . S
C910 C906 1.503 . S
C910 C911 1.379 . S
C910 C915 1.392 . S
C911 C910 1.379 . S
C911 C912 1.404 . S
C911 H925 0.929 . S
C912 C911 1.404 . S
C912 C913 1.389 . S
C913 C912 1.389 . S
C913 C914 1.399 . S
C913 H926 0.931 . S
C914 C913 1.399 . S
C914 C915 1.390 . S
C915 C910 1.392 . S
C915 C914 1.390 . S
C915 H927 0.929 . S
O916 Tb900 2.326 . S
O916 C904 1.242 . S
O917 Eu901 2.324 . S
O917 C904 1.258 . S
O918 Tb900 2.500 . S
O918 C920 1.273 . S
O919 Tb900 2.473 . S
O919 C920 1.257 . S
C920 O918 1.273 . S
C920 O919 1.257 . S
O921 Eu901 2.326 . S
O921 C909 1.242 . S
O922 Tb900 2.324 . S
O922 C909 1.258 . S
O923 Eu901 2.500 . S
O923 C906 1.273 . S
O924 Eu901 2.473 . S
O924 C906 1.257 . S
H925 C911 0.929 . S
H926 C913 0.931 . S
H927 C915 0.929 . S
H928 C936 0.929 . S
H929 C938 0.930 . S
H930 C940 0.930 . S
H931 C943 0.929 . S
H932 C946 0.930 . S
H933 C948 0.960 . S
H934 C948 0.960 . S
H935 C948 0.960 . S
C936 H928 0.929 . S
C936 C937 1.377 . S
C936 C938 1.384 . S
C937 C936 1.377 . S
C937 C943 1.390 . S
C938 H929 0.930 . S
C938 C936 1.384 . S
C938 C939 1.372 . S
C939 C938 1.372 . S
C939 C940 1.400 . S
C939 C944 1.490 . S
C940 H930 0.930 . S
C940 C939 1.400 . S
C940 C943 1.386 . S
H941 C957 0.930 . S
H942 C958 0.931 . S
C943 H931 0.929 . S
C943 C937 1.390 . S
C943 C940 1.386 . S
C944 C939 1.490 . S
C944 C946 1.395 . S
C944 C947 1.403 . S
H945 C951 0.930 . S
C946 H932 0.930 . S
C946 C944 1.395 . S
C946 C949 1.403 . S
C947 C944 1.403 . S
C947 C948 1.524 . S
C947 C951 1.400 . S
C948 H933 0.960 . S
C948 H934 0.960 . S
C948 H935 0.960 . S
C948 C947 1.524 . S
C949 C946 1.403 . S
C949 C950 1.392 . S
C949 C953 1.495 . S
C950 C949 1.392 . S
C950 C951 1.385 . S
C950 C952 1.478 . S
C951 H945 0.930 . S
C951 C947 1.400 . S
C951 C950 1.385 . S
C952 C950 1.478 . S
C952 C954 1.381 . S
C952 C958 1.383 . S
C953 C949 1.495 . S
C953 H959 0.959 . S
C953 H960 0.961 . S
C953 H961 0.960 . S
C954 C952 1.381 . S
C954 C955 1.394 . S
C954 H962 0.930 . S
C955 C954 1.394 . S
C955 C956 1.383 . S
C955 H963 0.929 . S
C956 C955 1.383 . S
C956 C957 1.377 . S
C957 H941 0.930 . S
C957 C956 1.377 . S
C957 C958 1.379 . S
C958 H942 0.931 . S
C958 C952 1.383 . S
C958 C957 1.379 . S
H959 C953 0.959 . S
H960 C953 0.961 . S
H961 C953 0.960 . S
H962 C954 0.930 . S
H963 C955 0.929 . S
H964 C972 0.929 . S
H965 C974 0.930 . S
H966 C976 0.930 . S
H967 C979 0.929 . S
H968 C982 0.930 . S
H969 C984 0.960 . S
H970 C984 0.960 . S
H971 C984 0.960 . S
C972 H964 0.929 . S
C972 C973 1.377 . S
C972 C974 1.384 . S
C973 C972 1.377 . S
C973 C979 1.390 . S
C974 H965 0.930 . S
C974 C972 1.384 . S
C974 C975 1.372 . S
C975 C974 1.372 . S
C975 C976 1.400 . S
C975 C980 1.490 . S
C976 H966 0.930 . S
C976 C975 1.400 . S
C976 C979 1.386 . S
H977 C993 0.930 . S
H978 C994 0.931 . S
C979 H967 0.929 . S
C979 C973 1.390 . S
C979 C976 1.386 . S
C980 C975 1.490 . S
C980 C982 1.395 . S
C980 C983 1.403 . S
H981 C987 0.930 . S
C982 H968 0.930 . S
C982 C980 1.395 . S
C982 C985 1.403 . S
C983 C980 1.403 . S
C983 C984 1.524 . S
C983 C987 1.400 . S
C984 H969 0.960 . S
C984 H970 0.960 . S
C984 H971 0.960 . S
C984 C983 1.524 . S
C985 C982 1.403 . S
C985 C986 1.392 . S
C985 C989 1.495 . S
C986 C985 1.392 . S
C986 C987 1.385 . S
C986 C988 1.478 . S
C987 H981 0.930 . S
C987 C983 1.400 . S
C987 C986 1.385 . S
C988 C986 1.478 . S
C988 C990 1.381 . S
C988 C994 1.383 . S
C989 C985 1.495 . S
C989 H995 0.959 . S
C989 H996 0.961 . S
C989 H997 0.960 . S
C990 C988 1.381 . S
C990 C991 1.394 . S
C990 H998 0.930 . S
C991 C990 1.394 . S
C991 C992 1.383 . S
C991 H999 0.929 . S
C992 C991 1.383 . S
C992 C993 1.377 . S
C993 H977 0.930 . S
C993 C992 1.377 . S
C993 C994 1.379 . S
C994 H978 0.931 . S
C994 C988 1.383 . S
C994 C993 1.379 . S
H995 C989 0.959 . S
H996 C989 0.961 . S
H997 C989 0.960 . S
H998 C990 0.930 . S
H999 C991 0.929 . S
H1000 C1008 0.929 . S
H1001 C1010 0.930 . S
H1002 C1012 0.930 . S
H1003 C1015 0.929 . S
H1004 C1018 0.930 . S
H1005 C1020 0.960 . S
H1006 C1020 0.960 . S
H1007 C1020 0.960 . S
C1008 H1000 0.929 . S
C1008 C1009 1.377 . S
C1008 C1010 1.384 . S
C1009 C1008 1.377 . S
C1009 C1015 1.390 . S
C1010 H1001 0.930 . S
C1010 C1008 1.384 . S
C1010 C1011 1.372 . S
C1011 C1010 1.372 . S
C1011 C1012 1.400 . S
C1011 C1016 1.490 . S
C1012 H1002 0.930 . S
C1012 C1011 1.400 . S
C1012 C1015 1.386 . S
H1013 C1029 0.930 . S
H1014 C1030 0.931 . S
C1015 H1003 0.929 . S
C1015 C1009 1.390 . S
C1015 C1012 1.386 . S
C1016 C1011 1.490 . S
C1016 C1018 1.395 . S
C1016 C1019 1.403 . S
H1017 C1023 0.930 . S
C1018 H1004 0.930 . S
C1018 C1016 1.395 . S
C1018 C1021 1.403 . S
C1019 C1016 1.403 . S
C1019 C1020 1.524 . S
C1019 C1023 1.400 . S
C1020 H1005 0.960 . S
C1020 H1006 0.960 . S
C1020 H1007 0.960 . S
C1020 C1019 1.524 . S
C1021 C1018 1.403 . S
C1021 C1022 1.392 . S
C1021 C1025 1.495 . S
C1022 C1021 1.392 . S
C1022 C1023 1.385 . S
C1022 C1024 1.478 . S
C1023 H1017 0.930 . S
C1023 C1019 1.400 . S
C1023 C1022 1.385 . S
C1024 C1022 1.478 . S
C1024 C1026 1.381 . S
C1024 C1030 1.383 . S
C1025 C1021 1.495 . S
C1025 H1031 0.959 . S
C1025 H1032 0.961 . S
C1025 H1033 0.960 . S
C1026 C1024 1.381 . S
C1026 C1027 1.394 . S
C1026 H1034 0.930 . S
C1027 C1026 1.394 . S
C1027 C1028 1.383 . S
C1027 H1035 0.929 . S
C1028 C1027 1.383 . S
C1028 C1029 1.377 . S
C1029 H1013 0.930 . S
C1029 C1028 1.377 . S
C1029 C1030 1.379 . S
C1030 H1014 0.931 . S
C1030 C1024 1.383 . S
C1030 C1029 1.379 . S
H1031 C1025 0.959 . S
H1032 C1025 0.961 . S
H1033 C1025 0.960 . S
H1034 C1026 0.930 . S
H1035 C1027 0.929 . S
H1036 C1044 0.929 . S
H1037 C1046 0.930 . S
H1038 C1048 0.930 . S
H1039 C1051 0.929 . S
H1040 C1054 0.930 . S
H1041 C1056 0.960 . S
H1042 C1056 0.960 . S
H1043 C1056 0.960 . S
C1044 H1036 0.929 . S
C1044 C1045 1.377 . S
C1044 C1046 1.384 . S
C1045 C1044 1.377 . S
C1045 C1051 1.390 . S
C1046 H1037 0.930 . S
C1046 C1044 1.384 . S
C1046 C1047 1.372 . S
C1047 C1046 1.372 . S
C1047 C1048 1.400 . S
C1047 C1052 1.490 . S
C1048 H1038 0.930 . S
C1048 C1047 1.400 . S
C1048 C1051 1.386 . S
H1049 C1065 0.930 . S
H1050 C1066 0.931 . S
C1051 H1039 0.929 . S
C1051 C1045 1.390 . S
C1051 C1048 1.386 . S
C1052 C1047 1.490 . S
C1052 C1054 1.395 . S
C1052 C1055 1.403 . S
H1053 C1059 0.930 . S
C1054 H1040 0.930 . S
C1054 C1052 1.395 . S
C1054 C1057 1.403 . S
C1055 C1052 1.403 . S
C1055 C1056 1.524 . S
C1055 C1059 1.400 . S
C1056 H1041 0.960 . S
C1056 H1042 0.960 . S
C1056 H1043 0.960 . S
C1056 C1055 1.524 . S
C1057 C1054 1.403 . S
C1057 C1058 1.392 . S
C1057 C1061 1.495 . S
C1058 C1057 1.392 . S
C1058 C1059 1.385 . S
C1058 C1060 1.478 . S
C1059 H1053 0.930 . S
C1059 C1055 1.400 . S
C1059 C1058 1.385 . S
C1060 C1058 1.478 . S
C1060 C1062 1.381 . S
C1060 C1066 1.383 . S
C1061 C1057 1.495 . S
C1061 H1067 0.959 . S
C1061 H1068 0.961 . S
C1061 H1069 0.960 . S
C1062 C1060 1.381 . S
C1062 C1063 1.394 . S
C1062 H1070 0.930 . S
C1063 C1062 1.394 . S
C1063 C1064 1.383 . S
C1063 H1071 0.929 . S
C1064 C1063 1.383 . S
C1064 C1065 1.377 . S
C1065 H1049 0.930 . S
C1065 C1064 1.377 . S
C1065 C1066 1.379 . S
C1066 H1050 0.931 . S
C1066 C1060 1.383 . S
C1066 C1065 1.379 . S
H1067 C1061 0.959 . S
H1068 C1061 0.961 . S
H1069 C1061 0.960 . S
H1070 C1062 0.930 . S
H1071 C1063 0.929 . S
H1072 C1080 0.929 . S
H1073 C1082 0.930 . S
H1074 C1084 0.930 . S
H1075 C1087 0.929 . S
H1076 C1090 0.930 . S
H1077 C1092 0.960 . S
H1078 C1092 0.960 . S
H1079 C1092 0.960 . S
C1080 H1072 0.929 . S
C1080 C1081 1.377 . S
C1080 C1082 1.384 . S
C1081 C1080 1.377 . S
C1081 C1087 1.390 . S
C1082 H1073 0.930 . S
C1082 C1080 1.384 . S
C1082 C1083 1.372 . S
C1083 C1082 1.372 . S
C1083 C1084 1.400 . S
C1083 C1088 1.490 . S
C1084 H1074 0.930 . S
C1084 C1083 1.400 . S
C1084 C1087 1.386 . S
H1085 C1101 0.930 . S
H1086 C1102 0.931 . S
C1087 H1075 0.929 . S
C1087 C1081 1.390 . S
C1087 C1084 1.386 . S
C1088 C1083 1.490 . S
C1088 C1090 1.395 . S
C1088 C1091 1.403 . S
H1089 C1095 0.930 . S
C1090 H1076 0.930 . S
C1090 C1088 1.395 . S
C1090 C1093 1.403 . S
C1091 C1088 1.403 . S
C1091 C1092 1.524 . S
C1091 C1095 1.400 . S
C1092 H1077 0.960 . S
C1092 H1078 0.960 . S
C1092 H1079 0.960 . S
C1092 C1091 1.524 . S
C1093 C1090 1.403 . S
C1093 C1094 1.392 . S
C1093 C1097 1.495 . S
C1094 C1093 1.392 . S
C1094 C1095 1.385 . S
C1094 C1096 1.478 . S
C1095 H1089 0.930 . S
C1095 C1091 1.400 . S
C1095 C1094 1.385 . S
C1096 C1094 1.478 . S
C1096 C1098 1.381 . S
C1096 C1102 1.383 . S
C1097 C1093 1.495 . S
C1097 H1103 0.959 . S
C1097 H1104 0.961 . S
C1097 H1105 0.960 . S
C1098 C1096 1.381 . S
C1098 C1099 1.394 . S
C1098 H1106 0.930 . S
C1099 C1098 1.394 . S
C1099 C1100 1.383 . S
C1099 H1107 0.929 . S
C1100 C1099 1.383 . S
C1100 C1101 1.377 . S
C1101 H1085 0.930 . S
C1101 C1100 1.377 . S
C1101 C1102 1.379 . S
C1102 H1086 0.931 . S
C1102 C1096 1.383 . S
C1102 C1101 1.379 . S
H1103 C1097 0.959 . S
H1104 C1097 0.961 . S
H1105 C1097 0.960 . S
H1106 C1098 0.930 . S
H1107 C1099 0.929 . S
H1108 C1116 0.929 . S
H1109 C1118 0.930 . S
H1110 C1120 0.930 . S
H1111 C1123 0.929 . S
H1112 C1126 0.930 . S
H1113 C1128 0.960 . S
H1114 C1128 0.960 . S
H1115 C1128 0.960 . S
C1116 H1108 0.929 . S
C1116 C1117 1.377 . S
C1116 C1118 1.384 . S
C1117 C1116 1.377 . S
C1117 C1123 1.390 . S
C1118 H1109 0.930 . S
C1118 C1116 1.384 . S
C1118 C1119 1.372 . S
C1119 C1118 1.372 . S
C1119 C1120 1.400 . S
C1119 C1124 1.490 . S
C1120 H1110 0.930 . S
C1120 C1119 1.400 . S
C1120 C1123 1.386 . S
H1121 C1137 0.930 . S
H1122 C1138 0.931 . S
C1123 H1111 0.929 . S
C1123 C1117 1.390 . S
C1123 C1120 1.386 . S
C1124 C1119 1.490 . S
C1124 C1126 1.395 . S
C1124 C1127 1.403 . S
H1125 C1131 0.930 . S
C1126 H1112 0.930 . S
C1126 C1124 1.395 . S
C1126 C1129 1.403 . S
C1127 C1124 1.403 . S
C1127 C1128 1.524 . S
C1127 C1131 1.400 . S
C1128 H1113 0.960 . S
C1128 H1114 0.960 . S
C1128 H1115 0.960 . S
C1128 C1127 1.524 . S
C1129 C1126 1.403 . S
C1129 C1130 1.392 . S
C1129 C1133 1.495 . S
C1130 C1129 1.392 . S
C1130 C1131 1.385 . S
C1130 C1132 1.478 . S
C1131 H1125 0.930 . S
C1131 C1127 1.400 . S
C1131 C1130 1.385 . S
C1132 C1130 1.478 . S
C1132 C1134 1.381 . S
C1132 C1138 1.383 . S
C1133 C1129 1.495 . S
C1133 H1139 0.959 . S
C1133 H1140 0.961 . S
C1133 H1141 0.960 . S
C1134 C1132 1.381 . S
C1134 C1135 1.394 . S
C1134 H1142 0.930 . S
C1135 C1134 1.394 . S
C1135 C1136 1.383 . S
C1135 H1143 0.929 . S
C1136 C1135 1.383 . S
C1136 C1137 1.377 . S
C1137 H1121 0.930 . S
C1137 C1136 1.377 . S
C1137 C1138 1.379 . S
C1138 H1122 0.931 . S
C1138 C1132 1.383 . S
C1138 C1137 1.379 . S
H1139 C1133 0.959 . S
H1140 C1133 0.961 . S
H1141 C1133 0.960 . S
H1142 C1134 0.930 . S
H1143 C1135 0.929 . S
H1144 C1152 0.929 . S
H1145 C1154 0.930 . S
H1146 C1156 0.930 . S
H1147 C1159 0.929 . S
H1148 C1162 0.930 . S
H1149 C1164 0.960 . S
H1150 C1164 0.960 . S
H1151 C1164 0.960 . S
C1152 H1144 0.929 . S
C1152 C1153 1.377 . S
C1152 C1154 1.384 . S
C1153 C1152 1.377 . S
C1153 C1159 1.390 . S
C1154 H1145 0.930 . S
C1154 C1152 1.384 . S
C1154 C1155 1.372 . S
C1155 C1154 1.372 . S
C1155 C1156 1.400 . S
C1155 C1160 1.490 . S
C1156 H1146 0.930 . S
C1156 C1155 1.400 . S
C1156 C1159 1.386 . S
H1157 C1173 0.930 . S
H1158 C1174 0.931 . S
C1159 H1147 0.929 . S
C1159 C1153 1.390 . S
C1159 C1156 1.386 . S
C1160 C1155 1.490 . S
C1160 C1162 1.395 . S
C1160 C1163 1.403 . S
H1161 C1167 0.930 . S
C1162 H1148 0.930 . S
C1162 C1160 1.395 . S
C1162 C1165 1.403 . S
C1163 C1160 1.403 . S
C1163 C1164 1.524 . S
C1163 C1167 1.400 . S
C1164 H1149 0.960 . S
C1164 H1150 0.960 . S
C1164 H1151 0.960 . S
C1164 C1163 1.524 . S
C1165 C1162 1.403 . S
C1165 C1166 1.392 . S
C1165 C1169 1.495 . S
C1166 C1165 1.392 . S
C1166 C1167 1.385 . S
C1166 C1168 1.478 . S
C1167 H1161 0.930 . S
C1167 C1163 1.400 . S
C1167 C1166 1.385 . S
C1168 C1166 1.478 . S
C1168 C1170 1.381 . S
C1168 C1174 1.383 . S
C1169 C1165 1.495 . S
C1169 H1175 0.959 . S
C1169 H1176 0.961 . S
C1169 H1177 0.960 . S
C1170 C1168 1.381 . S
C1170 C1171 1.394 . S
C1170 H1178 0.930 . S
C1171 C1170 1.394 . S
C1171 C1172 1.383 . S
C1171 H1179 0.929 . S
C1172 C1171 1.383 . S
C1172 C1173 1.377 . S
C1173 H1157 0.930 . S
C1173 C1172 1.377 . S
C1173 C1174 1.379 . S
C1174 H1158 0.931 . S
C1174 C1168 1.383 . S
C1174 C1173 1.379 . S
H1175 C1169 0.959 . S
H1176 C1169 0.961 . S
H1177 C1169 0.960 . S
H1178 C1170 0.930 . S
H1179 C1171 0.929 . S
H1180 C1188 0.929 . S
H1181 C1190 0.930 . S
H1182 C1192 0.930 . S
H1183 C1195 0.929 . S
H1184 C1198 0.930 . S
H1185 C1200 0.960 . S
H1186 C1200 0.960 . S
H1187 C1200 0.960 . S
C1188 H1180 0.929 . S
C1188 C1189 1.377 . S
C1188 C1190 1.384 . S
C1189 C1188 1.377 . S
C1189 C1195 1.390 . S
C1190 H1181 0.930 . S
C1190 C1188 1.384 . S
C1190 C1191 1.372 . S
C1191 C1190 1.372 . S
C1191 C1192 1.400 . S
C1191 C1196 1.490 . S
C1192 H1182 0.930 . S
C1192 C1191 1.400 . S
C1192 C1195 1.386 . S
H1193 C1209 0.930 . S
H1194 C1210 0.931 . S
C1195 H1183 0.929 . S
C1195 C1189 1.390 . S
C1195 C1192 1.386 . S
C1196 C1191 1.490 . S
C1196 C1198 1.395 . S
C1196 C1199 1.403 . S
H1197 C1203 0.930 . S
C1198 H1184 0.930 . S
C1198 C1196 1.395 . S
C1198 C1201 1.403 . S
C1199 C1196 1.403 . S
C1199 C1200 1.524 . S
C1199 C1203 1.400 . S
C1200 H1185 0.960 . S
C1200 H1186 0.960 . S
C1200 H1187 0.960 . S
C1200 C1199 1.524 . S
C1201 C1198 1.403 . S
C1201 C1202 1.392 . S
C1201 C1205 1.495 . S
C1202 C1201 1.392 . S
C1202 C1203 1.385 . S
C1202 C1204 1.478 . S
C1203 H1197 0.930 . S
C1203 C1199 1.400 . S
C1203 C1202 1.385 . S
C1204 C1202 1.478 . S
C1204 C1206 1.381 . S
C1204 C1210 1.383 . S
C1205 C1201 1.495 . S
C1205 H1211 0.959 . S
C1205 H1212 0.961 . S
C1205 H1213 0.960 . S
C1206 C1204 1.381 . S
C1206 C1207 1.394 . S
C1206 H1214 0.930 . S
C1207 C1206 1.394 . S
C1207 C1208 1.383 . S
C1207 H1215 0.929 . S
C1208 C1207 1.383 . S
C1208 C1209 1.377 . S
C1209 H1193 0.930 . S
C1209 C1208 1.377 . S
C1209 C1210 1.379 . S
C1210 H1194 0.931 . S
C1210 C1204 1.383 . S
C1210 C1209 1.379 . S
H1211 C1205 0.959 . S
H1212 C1205 0.961 . S
H1213 C1205 0.960 . S
H1214 C1206 0.930 . S
H1215 C1207 0.929 . S
H1216 C1224 0.929 . S
H1217 C1226 0.930 . S
H1218 C1228 0.930 . S
H1219 C1231 0.929 . S
H1220 C1234 0.930 . S
H1221 C1236 0.960 . S
H1222 C1236 0.960 . S
H1223 C1236 0.960 . S
C1224 H1216 0.929 . S
C1224 C1225 1.377 . S
C1224 C1226 1.384 . S
C1225 C1224 1.377 . S
C1225 C1231 1.390 . S
C1226 H1217 0.930 . S
C1226 C1224 1.384 . S
C1226 C1227 1.372 . S
C1227 C1226 1.372 . S
C1227 C1228 1.400 . S
C1227 C1232 1.490 . S
C1228 H1218 0.930 . S
C1228 C1227 1.400 . S
C1228 C1231 1.386 . S
H1229 C1245 0.930 . S
H1230 C1246 0.931 . S
C1231 H1219 0.929 . S
C1231 C1225 1.390 . S
C1231 C1228 1.386 . S
C1232 C1227 1.490 . S
C1232 C1234 1.395 . S
C1232 C1235 1.403 . S
H1233 C1239 0.930 . S
C1234 H1220 0.930 . S
C1234 C1232 1.395 . S
C1234 C1237 1.403 . S
C1235 C1232 1.403 . S
C1235 C1236 1.524 . S
C1235 C1239 1.400 . S
C1236 H1221 0.960 . S
C1236 H1222 0.960 . S
C1236 H1223 0.960 . S
C1236 C1235 1.524 . S
C1237 C1234 1.403 . S
C1237 C1238 1.392 . S
C1237 C1241 1.495 . S
C1238 C1237 1.392 . S
C1238 C1239 1.385 . S
C1238 C1240 1.478 . S
C1239 H1233 0.930 . S
C1239 C1235 1.400 . S
C1239 C1238 1.385 . S
C1240 C1238 1.478 . S
C1240 C1242 1.381 . S
C1240 C1246 1.383 . S
C1241 C1237 1.495 . S
C1241 H1247 0.959 . S
C1241 H1248 0.961 . S
C1241 H1249 0.960 . S
C1242 C1240 1.381 . S
C1242 C1243 1.394 . S
C1242 H1250 0.930 . S
C1243 C1242 1.394 . S
C1243 C1244 1.383 . S
C1243 H1251 0.929 . S
C1244 C1243 1.383 . S
C1244 C1245 1.377 . S
C1245 H1229 0.930 . S
C1245 C1244 1.377 . S
C1245 C1246 1.379 . S
C1246 H1230 0.931 . S
C1246 C1240 1.383 . S
C1246 C1245 1.379 . S
H1247 C1241 0.959 . S
H1248 C1241 0.961 . S
H1249 C1241 0.960 . S
H1250 C1242 0.930 . S
H1251 C1243 0.929 . S
H1252 C1260 0.929 . S
H1253 C1262 0.930 . S
H1254 C1264 0.930 . S
H1255 C1267 0.929 . S
H1256 C1270 0.930 . S
H1257 C1272 0.960 . S
H1258 C1272 0.960 . S
H1259 C1272 0.960 . S
C1260 H1252 0.929 . S
C1260 C1261 1.377 . S
C1260 C1262 1.384 . S
C1261 C1260 1.377 . S
C1261 C1267 1.390 . S
C1262 H1253 0.930 . S
C1262 C1260 1.384 . S
C1262 C1263 1.372 . S
C1263 C1262 1.372 . S
C1263 C1264 1.400 . S
C1263 C1268 1.490 . S
C1264 H1254 0.930 . S
C1264 C1263 1.400 . S
C1264 C1267 1.386 . S
H1265 C1281 0.930 . S
H1266 C1282 0.931 . S
C1267 H1255 0.929 . S
C1267 C1261 1.390 . S
C1267 C1264 1.386 . S
C1268 C1263 1.490 . S
C1268 C1270 1.395 . S
C1268 C1271 1.403 . S
H1269 C1275 0.930 . S
C1270 H1256 0.930 . S
C1270 C1268 1.395 . S
C1270 C1273 1.403 . S
C1271 C1268 1.403 . S
C1271 C1272 1.524 . S
C1271 C1275 1.400 . S
C1272 H1257 0.960 . S
C1272 H1258 0.960 . S
C1272 H1259 0.960 . S
C1272 C1271 1.524 . S
C1273 C1270 1.403 . S
C1273 C1274 1.392 . S
C1273 C1277 1.495 . S
C1274 C1273 1.392 . S
C1274 C1275 1.385 . S
C1274 C1276 1.478 . S
C1275 H1269 0.930 . S
C1275 C1271 1.400 . S
C1275 C1274 1.385 . S
C1276 C1274 1.478 . S
C1276 C1278 1.381 . S
C1276 C1282 1.383 . S
C1277 C1273 1.495 . S
C1277 H1283 0.959 . S
C1277 H1284 0.961 . S
C1277 H1285 0.960 . S
C1278 C1276 1.381 . S
C1278 C1279 1.394 . S
C1278 H1286 0.930 . S
C1279 C1278 1.394 . S
C1279 C1280 1.383 . S
C1279 H1287 0.929 . S
C1280 C1279 1.383 . S
C1280 C1281 1.377 . S
C1281 H1265 0.930 . S
C1281 C1280 1.377 . S
C1281 C1282 1.379 . S
C1282 H1266 0.931 . S
C1282 C1276 1.383 . S
C1282 C1281 1.379 . S
H1283 C1277 0.959 . S
H1284 C1277 0.961 . S
H1285 C1277 0.960 . S
H1286 C1278 0.930 . S
H1287 C1279 0.929 . S
H1288 C1296 0.929 . S
H1289 C1298 0.930 . S
H1290 C1300 0.930 . S
H1291 C1303 0.929 . S
H1292 C1306 0.930 . S
H1293 C1308 0.960 . S
H1294 C1308 0.960 . S
H1295 C1308 0.960 . S
C1296 H1288 0.929 . S
C1296 C1297 1.377 . S
C1296 C1298 1.384 . S
C1297 C1296 1.377 . S
C1297 C1303 1.390 . S
C1298 H1289 0.930 . S
C1298 C1296 1.384 . S
C1298 C1299 1.372 . S
C1299 C1298 1.372 . S
C1299 C1300 1.400 . S
C1299 C1304 1.490 . S
C1300 H1290 0.930 . S
C1300 C1299 1.400 . S
C1300 C1303 1.386 . S
H1301 C1317 0.930 . S
H1302 C1318 0.931 . S
C1303 H1291 0.929 . S
C1303 C1297 1.390 . S
C1303 C1300 1.386 . S
C1304 C1299 1.490 . S
C1304 C1306 1.395 . S
C1304 C1307 1.403 . S
H1305 C1311 0.930 . S
C1306 H1292 0.930 . S
C1306 C1304 1.395 . S
C1306 C1309 1.403 . S
C1307 C1304 1.403 . S
C1307 C1308 1.524 . S
C1307 C1311 1.400 . S
C1308 H1293 0.960 . S
C1308 H1294 0.960 . S
C1308 H1295 0.960 . S
C1308 C1307 1.524 . S
C1309 C1306 1.403 . S
C1309 C1310 1.392 . S
C1309 C1313 1.495 . S
C1310 C1309 1.392 . S
C1310 C1311 1.385 . S
C1310 C1312 1.478 . S
C1311 H1305 0.930 . S
C1311 C1307 1.400 . S
C1311 C1310 1.385 . S
C1312 C1310 1.478 . S
C1312 C1314 1.381 . S
C1312 C1318 1.383 . S
C1313 C1309 1.495 . S
C1313 H1319 0.959 . S
C1313 H1320 0.961 . S
C1313 H1321 0.960 . S
C1314 C1312 1.381 . S
C1314 C1315 1.394 . S
C1314 H1322 0.930 . S
C1315 C1314 1.394 . S
C1315 C1316 1.383 . S
C1315 H1323 0.929 . S
C1316 C1315 1.383 . S
C1316 C1317 1.377 . S
C1317 H1301 0.930 . S
C1317 C1316 1.377 . S
C1317 C1318 1.379 . S
C1318 H1302 0.931 . S
C1318 C1312 1.383 . S
C1318 C1317 1.379 . S
H1319 C1313 0.959 . S
H1320 C1313 0.961 . S
H1321 C1313 0.960 . S
H1322 C1314 0.930 . S
H1323 C1315 0.929 . S
H1324 C1332 0.929 . S
H1325 C1334 0.930 . S
H1326 C1336 0.930 . S
H1327 C1339 0.929 . S
H1328 C1342 0.930 . S
H1329 C1344 0.960 . S
H1330 C1344 0.960 . S
H1331 C1344 0.960 . S
C1332 H1324 0.929 . S
C1332 C1333 1.377 . S
C1332 C1334 1.384 . S
C1333 C1332 1.377 . S
C1333 C1339 1.390 . S
C1334 H1325 0.930 . S
C1334 C1332 1.384 . S
C1334 C1335 1.372 . S
C1335 C1334 1.372 . S
C1335 C1336 1.400 . S
C1335 C1340 1.490 . S
C1336 H1326 0.930 . S
C1336 C1335 1.400 . S
C1336 C1339 1.386 . S
H1337 C1353 0.930 . S
H1338 C1354 0.931 . S
C1339 H1327 0.929 . S
C1339 C1333 1.390 . S
C1339 C1336 1.386 . S
C1340 C1335 1.490 . S
C1340 C1342 1.395 . S
C1340 C1343 1.403 . S
H1341 C1347 0.930 . S
C1342 H1328 0.930 . S
C1342 C1340 1.395 . S
C1342 C1345 1.403 . S
C1343 C1340 1.403 . S
C1343 C1344 1.524 . S
C1343 C1347 1.400 . S
C1344 H1329 0.960 . S
C1344 H1330 0.960 . S
C1344 H1331 0.960 . S
C1344 C1343 1.524 . S
C1345 C1342 1.403 . S
C1345 C1346 1.392 . S
C1345 C1349 1.495 . S
C1346 C1345 1.392 . S
C1346 C1347 1.385 . S
C1346 C1348 1.478 . S
C1347 H1341 0.930 . S
C1347 C1343 1.400 . S
C1347 C1346 1.385 . S
C1348 C1346 1.478 . S
C1348 C1350 1.381 . S
C1348 C1354 1.383 . S
C1349 C1345 1.495 . S
C1349 H1355 0.959 . S
C1349 H1356 0.961 . S
C1349 H1357 0.960 . S
C1350 C1348 1.381 . S
C1350 C1351 1.394 . S
C1350 H1358 0.930 . S
C1351 C1350 1.394 . S
C1351 C1352 1.383 . S
C1351 H1359 0.929 . S
C1352 C1351 1.383 . S
C1352 C1353 1.377 . S
C1353 H1337 0.930 . S
C1353 C1352 1.377 . S
C1353 C1354 1.379 . S
C1354 H1338 0.931 . S
C1354 C1348 1.383 . S
C1354 C1353 1.379 . S
H1355 C1349 0.959 . S
H1356 C1349 0.961 . S
H1357 C1349 0.960 . S
H1358 C1350 0.930 . S
H1359 C1351 0.929 . S
H1360 C1368 0.929 . S
H1361 C1370 0.930 . S
H1362 C1372 0.930 . S
H1363 C1375 0.929 . S
H1364 C1378 0.930 . S
H1365 C1380 0.960 . S
H1366 C1380 0.960 . S
H1367 C1380 0.960 . S
C1368 H1360 0.929 . S
C1368 C1369 1.377 . S
C1368 C1370 1.384 . S
C1369 C1368 1.377 . S
C1369 C1375 1.390 . S
C1370 H1361 0.930 . S
C1370 C1368 1.384 . S
C1370 C1371 1.372 . S
C1371 C1370 1.372 . S
C1371 C1372 1.400 . S
C1371 C1376 1.490 . S
C1372 H1362 0.930 . S
C1372 C1371 1.400 . S
C1372 C1375 1.386 . S
H1373 C1389 0.930 . S
H1374 C1390 0.931 . S
C1375 H1363 0.929 . S
C1375 C1369 1.390 . S
C1375 C1372 1.386 . S
C1376 C1371 1.490 . S
C1376 C1378 1.395 . S
C1376 C1379 1.403 . S
H1377 C1383 0.930 . S
C1378 H1364 0.930 . S
C1378 C1376 1.395 . S
C1378 C1381 1.403 . S
C1379 C1376 1.403 . S
C1379 C1380 1.524 . S
C1379 C1383 1.400 . S
C1380 H1365 0.960 . S
C1380 H1366 0.960 . S
C1380 H1367 0.960 . S
C1380 C1379 1.524 . S
C1381 C1378 1.403 . S
C1381 C1382 1.392 . S
C1381 C1385 1.495 . S
C1382 C1381 1.392 . S
C1382 C1383 1.385 . S
C1382 C1384 1.478 . S
C1383 H1377 0.930 . S
C1383 C1379 1.400 . S
C1383 C1382 1.385 . S
C1384 C1382 1.478 . S
C1384 C1386 1.381 . S
C1384 C1390 1.383 . S
C1385 C1381 1.495 . S
C1385 H1391 0.959 . S
C1385 H1392 0.961 . S
C1385 H1393 0.960 . S
C1386 C1384 1.381 . S
C1386 C1387 1.394 . S
C1386 H1394 0.930 . S
C1387 C1386 1.394 . S
C1387 C1388 1.383 . S
C1387 H1395 0.929 . S
C1388 C1387 1.383 . S
C1388 C1389 1.377 . S
C1389 H1373 0.930 . S
C1389 C1388 1.377 . S
C1389 C1390 1.379 . S
C1390 H1374 0.931 . S
C1390 C1384 1.383 . S
C1390 C1389 1.379 . S
H1391 C1385 0.959 . S
H1392 C1385 0.961 . S
H1393 C1385 0.960 . S
H1394 C1386 0.930 . S
H1395 C1387 0.929 . S
H1396 C1404 0.929 . S
H1397 C1406 0.930 . S
H1398 C1408 0.930 . S
H1399 C1411 0.929 . S
H1400 C1414 0.930 . S
H1401 C1416 0.960 . S
H1402 C1416 0.960 . S
H1403 C1416 0.960 . S
C1404 H1396 0.929 . S
C1404 C1405 1.377 . S
C1404 C1406 1.384 . S
C1405 C1404 1.377 . S
C1405 C1411 1.390 . S
C1406 H1397 0.930 . S
C1406 C1404 1.384 . S
C1406 C1407 1.372 . S
C1407 C1406 1.372 . S
C1407 C1408 1.400 . S
C1407 C1412 1.490 . S
C1408 H1398 0.930 . S
C1408 C1407 1.400 . S
C1408 C1411 1.386 . S
H1409 C1425 0.930 . S
H1410 C1426 0.931 . S
C1411 H1399 0.929 . S
C1411 C1405 1.390 . S
C1411 C1408 1.386 . S
C1412 C1407 1.490 . S
C1412 C1414 1.395 . S
C1412 C1415 1.403 . S
H1413 C1419 0.930 . S
C1414 H1400 0.930 . S
C1414 C1412 1.395 . S
C1414 C1417 1.403 . S
C1415 C1412 1.403 . S
C1415 C1416 1.524 . S
C1415 C1419 1.400 . S
C1416 H1401 0.960 . S
C1416 H1402 0.960 . S
C1416 H1403 0.960 . S
C1416 C1415 1.524 . S
C1417 C1414 1.403 . S
C1417 C1418 1.392 . S
C1417 C1421 1.495 . S
C1418 C1417 1.392 . S
C1418 C1419 1.385 . S
C1418 C1420 1.478 . S
C1419 H1413 0.930 . S
C1419 C1415 1.400 . S
C1419 C1418 1.385 . S
C1420 C1418 1.478 . S
C1420 C1422 1.381 . S
C1420 C1426 1.383 . S
C1421 C1417 1.495 . S
C1421 H1427 0.959 . S
C1421 H1428 0.961 . S
C1421 H1429 0.960 . S
C1422 C1420 1.381 . S
C1422 C1423 1.394 . S
C1422 H1430 0.930 . S
C1423 C1422 1.394 . S
C1423 C1424 1.383 . S
C1423 H1431 0.929 . S
C1424 C1423 1.383 . S
C1424 C1425 1.377 . S
C1425 H1409 0.930 . S
C1425 C1424 1.377 . S
C1425 C1426 1.379 . S
C1426 H1410 0.931 . S
C1426 C1420 1.383 . S
C1426 C1425 1.379 . S
H1427 C1421 0.959 . S
H1428 C1421 0.961 . S
H1429 C1421 0.960 . S
H1430 C1422 0.930 . S
H1431 C1423 0.929 . S
H1432 C1440 0.929 . S
H1433 C1442 0.930 . S
H1434 C1444 0.930 . S
H1435 C1447 0.929 . S
H1436 C1450 0.930 . S
H1437 C1452 0.960 . S
H1438 C1452 0.960 . S
H1439 C1452 0.960 . S
C1440 H1432 0.929 . S
C1440 C1441 1.377 . S
C1440 C1442 1.384 . S
C1441 C1440 1.377 . S
C1441 C1447 1.390 . S
C1442 H1433 0.930 . S
C1442 C1440 1.384 . S
C1442 C1443 1.372 . S
C1443 C1442 1.372 . S
C1443 C1444 1.400 . S
C1443 C1448 1.490 . S
C1444 H1434 0.930 . S
C1444 C1443 1.400 . S
C1444 C1447 1.386 . S
H1445 C1461 0.930 . S
H1446 C1462 0.931 . S
C1447 H1435 0.929 . S
C1447 C1441 1.390 . S
C1447 C1444 1.386 . S
C1448 C1443 1.490 . S
C1448 C1450 1.395 . S
C1448 C1451 1.403 . S
H1449 C1455 0.930 . S
C1450 H1436 0.930 . S
C1450 C1448 1.395 . S
C1450 C1453 1.403 . S
C1451 C1448 1.403 . S
C1451 C1452 1.524 . S
C1451 C1455 1.400 . S
C1452 H1437 0.960 . S
C1452 H1438 0.960 . S
C1452 H1439 0.960 . S
C1452 C1451 1.524 . S
C1453 C1450 1.403 . S
C1453 C1454 1.392 . S
C1453 C1457 1.495 . S
C1454 C1453 1.392 . S
C1454 C1455 1.385 . S
C1454 C1456 1.478 . S
C1455 H1449 0.930 . S
C1455 C1451 1.400 . S
C1455 C1454 1.385 . S
C1456 C1454 1.478 . S
C1456 C1458 1.381 . S
C1456 C1462 1.383 . S
C1457 C1453 1.495 . S
C1457 H1463 0.959 . S
C1457 H1464 0.961 . S
C1457 H1465 0.960 . S
C1458 C1456 1.381 . S
C1458 C1459 1.394 . S
C1458 H1466 0.930 . S
C1459 C1458 1.394 . S
C1459 C1460 1.383 . S
C1459 H1467 0.929 . S
C1460 C1459 1.383 . S
C1460 C1461 1.377 . S
C1461 H1445 0.930 . S
C1461 C1460 1.377 . S
C1461 C1462 1.379 . S
C1462 H1446 0.931 . S
C1462 C1456 1.383 . S
C1462 C1461 1.379 . S
H1463 C1457 0.959 . S
H1464 C1457 0.961 . S
H1465 C1457 0.960 . S
H1466 C1458 0.930 . S
H1467 C1459 0.929 . S
H1468 C1476 0.929 . S
H1469 C1478 0.930 . S
H1470 C1480 0.930 . S
H1471 C1483 0.929 . S
H1472 C1486 0.930 . S
H1473 C1488 0.960 . S
H1474 C1488 0.960 . S
H1475 C1488 0.960 . S
C1476 H1468 0.929 . S
C1476 C1477 1.377 . S
C1476 C1478 1.384 . S
C1477 C1476 1.377 . S
C1477 C1483 1.390 . S
C1478 H1469 0.930 . S
C1478 C1476 1.384 . S
C1478 C1479 1.372 . S
C1479 C1478 1.372 . S
C1479 C1480 1.400 . S
C1479 C1484 1.490 . S
C1480 H1470 0.930 . S
C1480 C1479 1.400 . S
C1480 C1483 1.386 . S
H1481 C1497 0.930 . S
H1482 C1498 0.931 . S
C1483 H1471 0.929 . S
C1483 C1477 1.390 . S
C1483 C1480 1.386 . S
C1484 C1479 1.490 . S
C1484 C1486 1.395 . S
C1484 C1487 1.403 . S
H1485 C1491 0.930 . S
C1486 H1472 0.930 . S
C1486 C1484 1.395 . S
C1486 C1489 1.403 . S
C1487 C1484 1.403 . S
C1487 C1488 1.524 . S
C1487 C1491 1.400 . S
C1488 H1473 0.960 . S
C1488 H1474 0.960 . S
C1488 H1475 0.960 . S
C1488 C1487 1.524 . S
C1489 C1486 1.403 . S
C1489 C1490 1.392 . S
C1489 C1493 1.495 . S
C1490 C1489 1.392 . S
C1490 C1491 1.385 . S
C1490 C1492 1.478 . S
C1491 H1485 0.930 . S
C1491 C1487 1.400 . S
C1491 C1490 1.385 . S
C1492 C1490 1.478 . S
C1492 C1494 1.381 . S
C1492 C1498 1.383 . S
C1493 C1489 1.495 . S
C1493 H1499 0.959 . S
C1493 H1500 0.961 . S
C1493 H1501 0.960 . S
C1494 C1492 1.381 . S
C1494 C1495 1.394 . S
C1494 H1502 0.930 . S
C1495 C1494 1.394 . S
C1495 C1496 1.383 . S
C1495 H1503 0.929 . S
C1496 C1495 1.383 . S
C1496 C1497 1.377 . S
C1497 H1481 0.930 . S
C1497 C1496 1.377 . S
C1497 C1498 1.379 . S
C1498 H1482 0.931 . S
C1498 C1492 1.383 . S
C1498 C1497 1.379 . S
H1499 C1493 0.959 . S
H1500 C1493 0.961 . S
H1501 C1493 0.960 . S
H1502 C1494 0.930 . S
H1503 C1495 0.929 . S
H1504 C1512 0.929 . S
H1505 C1514 0.930 . S
H1506 C1516 0.930 . S
H1507 C1519 0.929 . S
H1508 C1522 0.930 . S
H1509 C1524 0.960 . S
H1510 C1524 0.960 . S
H1511 C1524 0.960 . S
C1512 H1504 0.929 . S
C1512 C1513 1.377 . S
C1512 C1514 1.384 . S
C1513 C1512 1.377 . S
C1513 C1519 1.390 . S
C1514 H1505 0.930 . S
C1514 C1512 1.384 . S
C1514 C1515 1.372 . S
C1515 C1514 1.372 . S
C1515 C1516 1.400 . S
C1515 C1520 1.490 . S
C1516 H1506 0.930 . S
C1516 C1515 1.400 . S
C1516 C1519 1.386 . S
H1517 C1533 0.930 . S
H1518 C1534 0.931 . S
C1519 H1507 0.929 . S
C1519 C1513 1.390 . S
C1519 C1516 1.386 . S
C1520 C1515 1.490 . S
C1520 C1522 1.395 . S
C1520 C1523 1.403 . S
H1521 C1527 0.930 . S
C1522 H1508 0.930 . S
C1522 C1520 1.395 . S
C1522 C1525 1.403 . S
C1523 C1520 1.403 . S
C1523 C1524 1.524 . S
C1523 C1527 1.400 . S
C1524 H1509 0.960 . S
C1524 H1510 0.960 . S
C1524 H1511 0.960 . S
C1524 C1523 1.524 . S
C1525 C1522 1.403 . S
C1525 C1526 1.392 . S
C1525 C1529 1.495 . S
C1526 C1525 1.392 . S
C1526 C1527 1.385 . S
C1526 C1528 1.478 . S
C1527 H1521 0.930 . S
C1527 C1523 1.400 . S
C1527 C1526 1.385 . S
C1528 C1526 1.478 . S
C1528 C1530 1.381 . S
C1528 C1534 1.383 . S
C1529 C1525 1.495 . S
C1529 H1535 0.959 . S
C1529 H1536 0.961 . S
C1529 H1537 0.960 . S
C1530 C1528 1.381 . S
C1530 C1531 1.394 . S
C1530 H1538 0.930 . S
C1531 C1530 1.394 . S
C1531 C1532 1.383 . S
C1531 H1539 0.929 . S
C1532 C1531 1.383 . S
C1532 C1533 1.377 . S
C1533 H1517 0.930 . S
C1533 C1532 1.377 . S
C1533 C1534 1.379 . S
C1534 H1518 0.931 . S
C1534 C1528 1.383 . S
C1534 C1533 1.379 . S
H1535 C1529 0.959 . S
H1536 C1529 0.961 . S
H1537 C1529 0.960 . S
H1538 C1530 0.930 . S
H1539 C1531 0.929 . S
H1540 C1548 0.929 . S
H1541 C1550 0.930 . S
H1542 C1552 0.930 . S
H1543 C1555 0.929 1_565 S
H1544 C1558 0.930 . S
H1545 C1560 0.960 . S
H1546 C1560 0.960 . S
H1547 C1560 0.960 . S
C1548 H1540 0.929 . S
C1548 C1549 1.377 . S
C1548 C1550 1.384 . S
C1549 C1548 1.377 . S
C1549 C1555 1.390 . S
C1550 H1541 0.930 . S
C1550 C1548 1.384 . S
C1550 C1551 1.372 . S
C1551 C1550 1.372 . S
C1551 C1552 1.400 . S
C1551 C1556 1.490 . S
C1552 H1542 0.930 . S
C1552 C1551 1.400 . S
C1552 C1555 1.386 . S
H1553 C1569 0.930 . S
H1554 C1570 0.931 . S
C1555 H1543 0.929 1_545 S
C1555 C1549 1.390 . S
C1555 C1552 1.386 . S
C1556 C1551 1.490 . S
C1556 C1558 1.395 . S
C1556 C1559 1.403 . S
H1557 C1563 0.930 . S
C1558 H1544 0.930 . S
C1558 C1556 1.395 . S
C1558 C1561 1.403 . S
C1559 C1556 1.403 . S
C1559 C1560 1.524 . S
C1559 C1563 1.400 . S
C1560 H1545 0.960 . S
C1560 H1546 0.960 . S
C1560 H1547 0.960 . S
C1560 C1559 1.524 . S
C1561 C1558 1.403 . S
C1561 C1562 1.392 . S
C1561 C1565 1.495 . S
C1562 C1561 1.392 . S
C1562 C1563 1.385 . S
C1562 C1564 1.478 . S
C1563 H1557 0.930 . S
C1563 C1559 1.400 . S
C1563 C1562 1.385 . S
C1564 C1562 1.478 . S
C1564 C1566 1.381 . S
C1564 C1570 1.383 . S
C1565 C1561 1.495 . S
C1565 H1571 0.959 . S
C1565 H1572 0.961 . S
C1565 H1573 0.960 . S
C1566 C1564 1.381 . S
C1566 C1567 1.394 . S
C1566 H1574 0.930 . S
C1567 C1566 1.394 . S
C1567 C1568 1.383 . S
C1567 H1575 0.929 . S
C1568 C1567 1.383 . S
C1568 C1569 1.377 . S
C1569 H1553 0.930 . S
C1569 C1568 1.377 . S
C1569 C1570 1.379 . S
C1570 H1554 0.931 . S
C1570 C1564 1.383 . S
C1570 C1569 1.379 . S
H1571 C1565 0.959 . S
H1572 C1565 0.961 . S
H1573 C1565 0.960 . S
H1574 C1566 0.930 . S
H1575 C1567 0.929 . S
H1576 C1584 0.929 . S
H1577 C1586 0.930 . S
H1578 C1588 0.930 . S
H1579 C1591 0.929 . S
H1580 C1594 0.930 . S
H1581 C1596 0.960 . S
H1582 C1596 0.960 . S
H1583 C1596 0.960 . S
C1584 H1576 0.929 . S
C1584 C1585 1.377 . S
C1584 C1586 1.384 . S
C1585 C1584 1.377 . S
C1585 C1591 1.390 . S
C1586 H1577 0.930 . S
C1586 C1584 1.384 . S
C1586 C1587 1.372 . S
C1587 C1586 1.372 . S
C1587 C1588 1.400 . S
C1587 C1592 1.490 . S
C1588 H1578 0.930 . S
C1588 C1587 1.400 . S
C1588 C1591 1.386 . S
H1589 C1605 0.930 . S
H1590 C1606 0.931 . S
C1591 H1579 0.929 . S
C1591 C1585 1.390 . S
C1591 C1588 1.386 . S
C1592 C1587 1.490 . S
C1592 C1594 1.395 . S
C1592 C1595 1.403 . S
H1593 C1599 0.930 . S
C1594 H1580 0.930 . S
C1594 C1592 1.395 . S
C1594 C1597 1.403 . S
C1595 C1592 1.403 . S
C1595 C1596 1.524 . S
C1595 C1599 1.400 . S
C1596 H1581 0.960 . S
C1596 H1582 0.960 . S
C1596 H1583 0.960 . S
C1596 C1595 1.524 . S
C1597 C1594 1.403 . S
C1597 C1598 1.392 . S
C1597 C1601 1.495 . S
C1598 C1597 1.392 . S
C1598 C1599 1.385 . S
C1598 C1600 1.478 . S
C1599 H1593 0.930 . S
C1599 C1595 1.400 . S
C1599 C1598 1.385 . S
C1600 C1598 1.478 . S
C1600 C1602 1.381 . S
C1600 C1606 1.383 . S
C1601 C1597 1.495 . S
C1601 H1607 0.959 . S
C1601 H1608 0.961 . S
C1601 H1609 0.960 . S
C1602 C1600 1.381 . S
C1602 C1603 1.394 . S
C1602 H1610 0.930 . S
C1603 C1602 1.394 . S
C1603 C1604 1.383 . S
C1603 H1611 0.929 . S
C1604 C1603 1.383 . S
C1604 C1605 1.377 . S
C1605 H1589 0.930 . S
C1605 C1604 1.377 . S
C1605 C1606 1.379 . S
C1606 H1590 0.931 . S
C1606 C1600 1.383 . S
C1606 C1605 1.379 . S
H1607 C1601 0.959 . S
H1608 C1601 0.961 . S
H1609 C1601 0.960 . S
H1610 C1602 0.930 . S
H1611 C1603 0.929 . S
H1612 C1620 0.929 . S
H1613 C1622 0.930 . S
H1614 C1624 0.930 . S
H1615 C1627 0.929 . S
H1616 C1630 0.930 . S
H1617 C1632 0.960 . S
H1618 C1632 0.960 . S
H1619 C1632 0.960 . S
C1620 H1612 0.929 . S
C1620 C1621 1.377 . S
C1620 C1622 1.384 . S
C1621 C1620 1.377 . S
C1621 C1627 1.390 . S
C1622 H1613 0.930 . S
C1622 C1620 1.384 . S
C1622 C1623 1.372 . S
C1623 C1622 1.372 . S
C1623 C1624 1.400 . S
C1623 C1628 1.490 . S
C1624 H1614 0.930 . S
C1624 C1623 1.400 . S
C1624 C1627 1.386 . S
H1625 C1641 0.930 . S
H1626 C1642 0.931 . S
C1627 H1615 0.929 . S
C1627 C1621 1.390 . S
C1627 C1624 1.386 . S
C1628 C1623 1.490 . S
C1628 C1630 1.395 . S
C1628 C1631 1.403 . S
H1629 C1635 0.930 . S
C1630 H1616 0.930 . S
C1630 C1628 1.395 . S
C1630 C1633 1.403 . S
C1631 C1628 1.403 . S
C1631 C1632 1.524 . S
C1631 C1635 1.400 . S
C1632 H1617 0.960 . S
C1632 H1618 0.960 . S
C1632 H1619 0.960 . S
C1632 C1631 1.524 . S
C1633 C1630 1.403 . S
C1633 C1634 1.392 . S
C1633 C1637 1.495 . S
C1634 C1633 1.392 . S
C1634 C1635 1.385 . S
C1634 C1636 1.478 . S
C1635 H1629 0.930 . S
C1635 C1631 1.400 . S
C1635 C1634 1.385 . S
C1636 C1634 1.478 . S
C1636 C1638 1.381 . S
C1636 C1642 1.383 . S
C1637 C1633 1.495 . S
C1637 H1643 0.959 . S
C1637 H1644 0.961 . S
C1637 H1645 0.960 . S
C1638 C1636 1.381 . S
C1638 C1639 1.395 1_565 S
C1638 H1646 0.930 . S
C1639 C1638 1.395 1_545 S
C1639 C1640 1.383 1_545 S
C1639 H1647 0.929 . S
C1640 C1639 1.383 1_565 S
C1640 C1641 1.377 . S
C1641 H1625 0.930 . S
C1641 C1640 1.377 . S
C1641 C1642 1.379 . S
C1642 H1626 0.931 . S
C1642 C1636 1.383 . S
C1642 C1641 1.379 . S
H1643 C1637 0.959 . S
H1644 C1637 0.961 . S
H1645 C1637 0.960 . S
H1646 C1638 0.930 . S
H1647 C1639 0.929 . S
H1648 C1656 0.929 . S
H1649 C1658 0.930 . S
H1650 C1660 0.930 . S
H1651 C1663 0.929 . S
H1652 C1666 0.930 . S
H1653 C1668 0.960 . S
H1654 C1668 0.960 . S
H1655 C1668 0.960 . S
C1656 H1648 0.929 . S
C1656 C1657 1.377 . S
C1656 C1658 1.384 . S
C1657 C1656 1.377 . S
C1657 C1663 1.390 . S
C1658 H1649 0.930 . S
C1658 C1656 1.384 . S
C1658 C1659 1.372 . S
C1659 C1658 1.372 . S
C1659 C1660 1.400 . S
C1659 C1664 1.490 . S
C1660 H1650 0.930 . S
C1660 C1659 1.400 . S
C1660 C1663 1.386 . S
H1661 C1677 0.930 . S
H1662 C1678 0.931 . S
C1663 H1651 0.929 . S
C1663 C1657 1.390 . S
C1663 C1660 1.386 . S
C1664 C1659 1.490 . S
C1664 C1666 1.395 . S
C1664 C1667 1.403 . S
H1665 C1671 0.930 . S
C1666 H1652 0.930 . S
C1666 C1664 1.395 . S
C1666 C1669 1.403 . S
C1667 C1664 1.403 . S
C1667 C1668 1.524 . S
C1667 C1671 1.400 . S
C1668 H1653 0.960 . S
C1668 H1654 0.960 . S
C1668 H1655 0.960 . S
C1668 C1667 1.524 . S
C1669 C1666 1.403 . S
C1669 C1670 1.392 . S
C1669 C1673 1.495 . S
C1670 C1669 1.392 . S
C1670 C1671 1.385 . S
C1670 C1672 1.478 . S
C1671 H1665 0.930 . S
C1671 C1667 1.400 . S
C1671 C1670 1.385 . S
C1672 C1670 1.478 . S
C1672 C1674 1.381 . S
C1672 C1678 1.383 . S
C1673 C1669 1.495 . S
C1673 H1679 0.959 . S
C1673 H1680 0.961 . S
C1673 H1681 0.960 . S
C1674 C1672 1.381 . S
C1674 C1675 1.394 . S
C1674 H1682 0.930 . S
C1675 C1674 1.394 . S
C1675 C1676 1.383 . S
C1675 H1683 0.929 . S
C1676 C1675 1.383 . S
C1676 C1677 1.377 . S
C1677 H1661 0.930 . S
C1677 C1676 1.377 . S
C1677 C1678 1.379 . S
C1678 H1662 0.931 . S
C1678 C1672 1.383 . S
C1678 C1677 1.379 . S
H1679 C1673 0.959 . S
H1680 C1673 0.961 . S
H1681 C1673 0.960 . S
H1682 C1674 0.930 . S
H1683 C1675 0.929 . S
H1684 C1692 0.929 . S
H1685 C1694 0.930 . S
H1686 C1696 0.930 . S
H1687 C1699 0.929 . S
H1688 C1702 0.930 . S
H1689 C1704 0.960 . S
H1690 C1704 0.960 . S
H1691 C1704 0.960 . S
C1692 H1684 0.929 . S
C1692 C1693 1.377 . S
C1692 C1694 1.384 . S
C1693 C1692 1.377 . S
C1693 C1699 1.390 . S
C1694 H1685 0.930 . S
C1694 C1692 1.384 . S
C1694 C1695 1.372 . S
C1695 C1694 1.372 . S
C1695 C1696 1.400 . S
C1695 C1700 1.490 . S
C1696 H1686 0.930 . S
C1696 C1695 1.400 . S
C1696 C1699 1.386 . S
H1697 C1713 0.930 . S
H1698 C1714 0.931 . S
C1699 H1687 0.929 . S
C1699 C1693 1.390 . S
C1699 C1696 1.386 . S
C1700 C1695 1.490 . S
C1700 C1702 1.395 . S
C1700 C1703 1.403 . S
H1701 C1707 0.930 . S
C1702 H1688 0.930 . S
C1702 C1700 1.395 . S
C1702 C1705 1.403 . S
C1703 C1700 1.403 . S
C1703 C1704 1.524 . S
C1703 C1707 1.400 . S
C1704 H1689 0.960 . S
C1704 H1690 0.960 . S
C1704 H1691 0.960 . S
C1704 C1703 1.524 . S
C1705 C1702 1.403 . S
C1705 C1706 1.392 . S
C1705 C1709 1.495 . S
C1706 C1705 1.392 . S
C1706 C1707 1.385 . S
C1706 C1708 1.478 . S
C1707 H1701 0.930 . S
C1707 C1703 1.400 . S
C1707 C1706 1.385 . S
C1708 C1706 1.478 . S
C1708 C1710 1.381 . S
C1708 C1714 1.383 . S
C1709 C1705 1.495 . S
C1709 H1715 0.959 . S
C1709 H1716 0.961 . S
C1709 H1717 0.960 . S
C1710 C1708 1.381 . S
C1710 C1711 1.394 . S
C1710 H1718 0.930 . S
C1711 C1710 1.394 . S
C1711 C1712 1.383 . S
C1711 H1719 0.929 . S
C1712 C1711 1.383 . S
C1712 C1713 1.377 . S
C1713 H1697 0.930 . S
C1713 C1712 1.377 . S
C1713 C1714 1.379 . S
C1714 H1698 0.931 . S
C1714 C1708 1.383 . S
C1714 C1713 1.379 . S
H1715 C1709 0.959 . S
H1716 C1709 0.961 . S
H1717 C1709 0.960 . S
H1718 C1710 0.930 . S
H1719 C1711 0.929 . S
H1720 C1728 0.929 . S
H1721 C1730 0.930 . S
H1722 C1732 0.930 . S
H1723 C1735 0.929 . S
H1724 C1738 0.930 . S
H1725 C1740 0.960 . S
H1726 C1740 0.960 . S
H1727 C1740 0.960 . S
C1728 H1720 0.929 . S
C1728 C1729 1.377 . S
C1728 C1730 1.384 . S
C1729 C1728 1.377 . S
C1729 C1735 1.390 . S
C1730 H1721 0.930 . S
C1730 C1728 1.384 . S
C1730 C1731 1.372 . S
C1731 C1730 1.372 . S
C1731 C1732 1.400 . S
C1731 C1736 1.490 . S
C1732 H1722 0.930 . S
C1732 C1731 1.400 . S
C1732 C1735 1.386 . S
H1733 C1749 0.930 . S
H1734 C1750 0.931 . S
C1735 H1723 0.929 . S
C1735 C1729 1.390 . S
C1735 C1732 1.386 . S
C1736 C1731 1.490 . S
C1736 C1738 1.395 . S
C1736 C1739 1.403 . S
H1737 C1743 0.930 . S
C1738 H1724 0.930 . S
C1738 C1736 1.395 . S
C1738 C1741 1.403 . S
C1739 C1736 1.403 . S
C1739 C1740 1.524 . S
C1739 C1743 1.400 . S
C1740 H1725 0.960 . S
C1740 H1726 0.960 . S
C1740 H1727 0.960 . S
C1740 C1739 1.524 . S
C1741 C1738 1.403 . S
C1741 C1742 1.392 . S
C1741 C1745 1.495 . S
C1742 C1741 1.392 . S
C1742 C1743 1.385 . S
C1742 C1744 1.478 . S
C1743 H1737 0.930 . S
C1743 C1739 1.400 . S
C1743 C1742 1.385 . S
C1744 C1742 1.478 . S
C1744 C1746 1.381 . S
C1744 C1750 1.383 . S
C1745 C1741 1.495 . S
C1745 H1751 0.959 . S
C1745 H1752 0.961 . S
C1745 H1753 0.960 . S
C1746 C1744 1.381 . S
C1746 C1747 1.394 . S
C1746 H1754 0.930 . S
C1747 C1746 1.394 . S
C1747 C1748 1.383 . S
C1747 H1755 0.929 . S
C1748 C1747 1.383 . S
C1748 C1749 1.377 . S
C1749 H1733 0.930 . S
C1749 C1748 1.377 . S
C1749 C1750 1.379 . S
C1750 H1734 0.931 . S
C1750 C1744 1.383 . S
C1750 C1749 1.379 . S
H1751 C1745 0.959 . S
H1752 C1745 0.961 . S
H1753 C1745 0.960 . S
H1754 C1746 0.930 . S
H1755 C1747 0.929 . S
H1756 C1764 0.929 . S
H1757 C1766 0.930 . S
H1758 C1768 0.930 . S
H1759 C1771 0.929 . S
H1760 C1774 0.930 . S
H1761 C1776 0.960 . S
H1762 C1776 0.960 . S
H1763 C1776 0.960 . S
C1764 H1756 0.929 . S
C1764 C1765 1.377 . S
C1764 C1766 1.384 . S
C1765 C1764 1.377 . S
C1765 C1771 1.390 . S
C1766 H1757 0.930 . S
C1766 C1764 1.384 . S
C1766 C1767 1.372 . S
C1767 C1766 1.372 . S
C1767 C1768 1.400 . S
C1767 C1772 1.490 . S
C1768 H1758 0.930 . S
C1768 C1767 1.400 . S
C1768 C1771 1.386 . S
H1769 C1785 0.930 . S
H1770 C1786 0.931 . S
C1771 H1759 0.929 . S
C1771 C1765 1.390 . S
C1771 C1768 1.386 . S
C1772 C1767 1.490 . S
C1772 C1774 1.395 . S
C1772 C1775 1.403 . S
H1773 C1779 0.930 . S
C1774 H1760 0.930 . S
C1774 C1772 1.395 . S
C1774 C1777 1.403 . S
C1775 C1772 1.403 . S
C1775 C1776 1.524 . S
C1775 C1779 1.400 . S
C1776 H1761 0.960 . S
C1776 H1762 0.960 . S
C1776 H1763 0.960 . S
C1776 C1775 1.524 . S
C1777 C1774 1.403 . S
C1777 C1778 1.392 . S
C1777 C1781 1.495 . S
C1778 C1777 1.392 . S
C1778 C1779 1.385 . S
C1778 C1780 1.478 . S
C1779 H1773 0.930 . S
C1779 C1775 1.400 . S
C1779 C1778 1.385 . S
C1780 C1778 1.478 . S
C1780 C1782 1.381 . S
C1780 C1786 1.383 . S
C1781 C1777 1.495 . S
C1781 H1787 0.959 . S
C1781 H1788 0.961 . S
C1781 H1789 0.960 . S
C1782 C1780 1.381 . S
C1782 C1783 1.394 . S
C1782 H1790 0.930 . S
C1783 C1782 1.394 . S
C1783 C1784 1.383 . S
C1783 H1791 0.929 . S
C1784 C1783 1.383 . S
C1784 C1785 1.377 . S
C1785 H1769 0.930 . S
C1785 C1784 1.377 . S
C1785 C1786 1.379 . S
C1786 H1770 0.931 . S
C1786 C1780 1.383 . S
C1786 C1785 1.379 . S
H1787 C1781 0.959 . S
H1788 C1781 0.961 . S
H1789 C1781 0.960 . S
H1790 C1782 0.930 . S
H1791 C1783 0.929 . S
H1792 C1800 0.929 . S
H1793 C1802 0.930 . S
H1794 C1804 0.930 . S
H1795 C1807 0.929 . S
H1796 C1810 0.930 . S
H1797 C1812 0.960 . S
H1798 C1812 0.960 . S
H1799 C1812 0.960 . S
C1800 H1792 0.929 . S
C1800 C1801 1.377 . S
C1800 C1802 1.384 . S
C1801 C1800 1.377 . S
C1801 C1807 1.390 . S
C1802 H1793 0.930 . S
C1802 C1800 1.384 . S
C1802 C1803 1.372 . S
C1803 C1802 1.372 . S
C1803 C1804 1.400 . S
C1803 C1808 1.490 . S
C1804 H1794 0.930 . S
C1804 C1803 1.400 . S
C1804 C1807 1.386 . S
H1805 C1821 0.930 . S
H1806 C1822 0.931 . S
C1807 H1795 0.929 . S
C1807 C1801 1.390 . S
C1807 C1804 1.386 . S
C1808 C1803 1.490 . S
C1808 C1810 1.395 . S
C1808 C1811 1.403 . S
H1809 C1815 0.930 . S
C1810 H1796 0.930 . S
C1810 C1808 1.395 . S
C1810 C1813 1.403 . S
C1811 C1808 1.403 . S
C1811 C1812 1.524 . S
C1811 C1815 1.400 . S
C1812 H1797 0.960 . S
C1812 H1798 0.960 . S
C1812 H1799 0.960 . S
C1812 C1811 1.524 . S
C1813 C1810 1.403 . S
C1813 C1814 1.392 . S
C1813 C1817 1.495 . S
C1814 C1813 1.392 . S
C1814 C1815 1.385 . S
C1814 C1816 1.478 . S
C1815 H1809 0.930 . S
C1815 C1811 1.400 . S
C1815 C1814 1.385 . S
C1816 C1814 1.478 . S
C1816 C1818 1.381 . S
C1816 C1822 1.383 . S
C1817 C1813 1.495 . S
C1817 H1823 0.959 . S
C1817 H1824 0.961 . S
C1817 H1825 0.960 . S
C1818 C1816 1.381 . S
C1818 C1819 1.394 . S
C1818 H1826 0.930 . S
C1819 C1818 1.394 . S
C1819 C1820 1.383 . S
C1819 H1827 0.930 1_545 S
C1820 C1819 1.383 . S
C1820 C1821 1.377 . S
C1821 H1805 0.930 . S
C1821 C1820 1.377 . S
C1821 C1822 1.379 . S
C1822 H1806 0.931 . S
C1822 C1816 1.383 . S
C1822 C1821 1.379 . S
H1823 C1817 0.959 . S
H1824 C1817 0.961 . S
H1825 C1817 0.960 . S
H1826 C1818 0.930 . S
H1827 C1819 0.930 1_565 S
H1828 C1836 0.929 . S
H1829 C1838 0.930 . S
H1830 C1840 0.930 . S
H1831 C1843 0.929 . S
H1832 C1846 0.930 . S
H1833 C1848 0.960 . S
H1834 C1848 0.960 . S
H1835 C1848 0.960 . S
C1836 H1828 0.929 . S
C1836 C1837 1.377 . S
C1836 C1838 1.384 . S
C1837 C1836 1.377 . S
C1837 C1843 1.390 . S
C1838 H1829 0.930 . S
C1838 C1836 1.384 . S
C1838 C1839 1.372 . S
C1839 C1838 1.372 . S
C1839 C1840 1.400 . S
C1839 C1844 1.490 . S
C1840 H1830 0.930 . S
C1840 C1839 1.400 . S
C1840 C1843 1.386 . S
H1841 C1857 0.930 1_565 S
H1842 C1858 0.931 . S
C1843 H1831 0.929 . S
C1843 C1837 1.390 . S
C1843 C1840 1.386 . S
C1844 C1839 1.490 . S
C1844 C1846 1.395 . S
C1844 C1847 1.403 . S
H1845 C1851 0.930 . S
C1846 H1832 0.930 . S
C1846 C1844 1.395 . S
C1846 C1849 1.403 . S
C1847 C1844 1.403 . S
C1847 C1848 1.524 . S
C1847 C1851 1.400 . S
C1848 H1833 0.960 . S
C1848 H1834 0.960 . S
C1848 H1835 0.960 . S
C1848 C1847 1.524 . S
C1849 C1846 1.403 . S
C1849 C1850 1.392 . S
C1849 C1853 1.495 . S
C1850 C1849 1.392 . S
C1850 C1851 1.385 . S
C1850 C1852 1.478 . S
C1851 H1845 0.930 . S
C1851 C1847 1.400 . S
C1851 C1850 1.385 . S
C1852 C1850 1.478 . S
C1852 C1854 1.381 . S
C1852 C1858 1.383 . S
C1853 C1849 1.495 . S
C1853 H1859 0.959 . S
C1853 H1860 0.961 . S
C1853 H1861 0.960 . S
C1854 C1852 1.381 . S
C1854 C1855 1.394 . S
C1854 H1862 0.930 . S
C1855 C1854 1.394 . S
C1855 C1856 1.383 . S
C1855 H1863 0.929 . S
C1856 C1855 1.383 . S
C1856 C1857 1.377 . S
C1857 H1841 0.930 1_545 S
C1857 C1856 1.377 . S
C1857 C1858 1.379 . S
C1858 H1842 0.931 . S
C1858 C1852 1.383 . S
C1858 C1857 1.379 . S
H1859 C1853 0.959 . S
H1860 C1853 0.961 . S
H1861 C1853 0.960 . S
H1862 C1854 0.930 . S
H1863 C1855 0.929 . S
H1864 C1872 0.929 1_545 S
H1865 C1874 0.930 . S
H1866 C1876 0.930 . S
H1867 C1879 0.929 . S
H1868 C1882 0.930 . S
H1869 C1884 0.960 . S
H1870 C1884 0.960 . S
H1871 C1884 0.960 . S
C1872 H1864 0.929 1_565 S
C1872 C1873 1.377 . S
C1872 C1874 1.384 . S
C1873 C1872 1.377 . S
C1873 C1879 1.390 . S
C1874 H1865 0.930 . S
C1874 C1872 1.384 . S
C1874 C1875 1.372 . S
C1875 C1874 1.372 . S
C1875 C1876 1.400 . S
C1875 C1880 1.490 . S
C1876 H1866 0.930 . S
C1876 C1875 1.400 . S
C1876 C1879 1.386 . S
H1877 C1893 0.930 . S
H1878 C1894 0.931 . S
C1879 H1867 0.929 . S
C1879 C1873 1.390 . S
C1879 C1876 1.386 . S
C1880 C1875 1.490 . S
C1880 C1882 1.395 . S
C1880 C1883 1.403 . S
H1881 C1887 0.930 . S
C1882 H1868 0.930 . S
C1882 C1880 1.395 . S
C1882 C1885 1.403 . S
C1883 C1880 1.403 . S
C1883 C1884 1.524 . S
C1883 C1887 1.400 . S
C1884 H1869 0.960 . S
C1884 H1870 0.960 . S
C1884 H1871 0.960 . S
C1884 C1883 1.524 . S
C1885 C1882 1.403 . S
C1885 C1886 1.392 . S
C1885 C1889 1.495 . S
C1886 C1885 1.392 . S
C1886 C1887 1.385 . S
C1886 C1888 1.478 . S
C1887 H1881 0.930 . S
C1887 C1883 1.400 . S
C1887 C1886 1.385 . S
C1888 C1886 1.478 . S
C1888 C1890 1.381 . S
C1888 C1894 1.383 . S
C1889 C1885 1.495 . S
C1889 H1895 0.959 . S
C1889 H1896 0.961 . S
C1889 H1897 0.960 . S
C1890 C1888 1.381 . S
C1890 C1891 1.394 . S
C1890 H1898 0.930 . S
C1891 C1890 1.394 . S
C1891 C1892 1.383 . S
C1891 H1899 0.929 . S
C1892 C1891 1.383 . S
C1892 C1893 1.377 . S
C1893 H1877 0.930 . S
C1893 C1892 1.377 . S
C1893 C1894 1.379 . S
C1894 H1878 0.931 . S
C1894 C1888 1.383 . S
C1894 C1893 1.379 . S
H1895 C1889 0.959 . S
H1896 C1889 0.961 . S
H1897 C1889 0.960 . S
H1898 C1890 0.930 . S
H1899 C1891 0.929 . S
H1900 C1908 0.929 1_545 S
H1901 C1910 0.930 . S
H1902 C1912 0.930 . S
H1903 C1915 0.929 . S
H1904 C1918 0.930 . S
H1905 C1920 0.960 . S
H1906 C1920 0.960 . S
H1907 C1920 0.960 . S
C1908 H1900 0.929 1_565 S
C1908 C1909 1.377 . S
C1908 C1910 1.384 . S
C1909 C1908 1.377 . S
C1909 C1915 1.390 . S
C1910 H1901 0.930 . S
C1910 C1908 1.384 . S
C1910 C1911 1.372 . S
C1911 C1910 1.372 . S
C1911 C1912 1.400 . S
C1911 C1916 1.490 . S
C1912 H1902 0.930 . S
C1912 C1911 1.400 . S
C1912 C1915 1.386 . S
H1913 C1929 0.930 . S
H1914 C1930 0.931 . S
C1915 H1903 0.929 . S
C1915 C1909 1.390 . S
C1915 C1912 1.386 . S
C1916 C1911 1.490 . S
C1916 C1918 1.395 . S
C1916 C1919 1.403 . S
H1917 C1923 0.930 . S
C1918 H1904 0.930 . S
C1918 C1916 1.395 . S
C1918 C1921 1.403 . S
C1919 C1916 1.403 . S
C1919 C1920 1.524 . S
C1919 C1923 1.400 . S
C1920 H1905 0.960 . S
C1920 H1906 0.960 . S
C1920 H1907 0.960 . S
C1920 C1919 1.524 . S
C1921 C1918 1.403 . S
C1921 C1922 1.392 . S
C1921 C1925 1.495 . S
C1922 C1921 1.392 . S
C1922 C1923 1.385 . S
C1922 C1924 1.478 . S
C1923 H1917 0.930 . S
C1923 C1919 1.400 . S
C1923 C1922 1.385 . S
C1924 C1922 1.478 . S
C1924 C1926 1.381 . S
C1924 C1930 1.383 . S
C1925 C1921 1.495 . S
C1925 H1931 0.959 . S
C1925 H1932 0.961 . S
C1925 H1933 0.960 . S
C1926 C1924 1.381 . S
C1926 C1927 1.394 . S
C1926 H1934 0.930 . S
C1927 C1926 1.394 . S
C1927 C1928 1.383 . S
C1927 H1935 0.929 . S
C1928 C1927 1.383 . S
C1928 C1929 1.377 . S
C1929 H1913 0.930 . S
C1929 C1928 1.377 . S
C1929 C1930 1.379 . S
C1930 H1914 0.931 . S
C1930 C1924 1.383 . S
C1930 C1929 1.379 . S
H1931 C1925 0.959 . S
H1932 C1925 0.961 . S
H1933 C1925 0.960 . S
H1934 C1926 0.930 . S
H1935 C1927 0.929 . S
H1936 C1944 0.929 . S
H1937 C1946 0.930 . S
H1938 C1948 0.930 . S
H1939 C1951 0.929 . S
H1940 C1954 0.930 . S
H1941 C1956 0.930 1_556 S
H1942 C1956 0.947 1_556 S
H1943 C1956 0.964 . S
C1944 H1936 0.929 . S
C1944 C1945 1.377 . S
C1944 C1946 1.384 . S
C1945 C1944 1.377 . S
C1945 C1951 1.390 . S
C1946 H1937 0.930 . S
C1946 C1944 1.384 . S
C1946 C1947 1.372 . S
C1947 C1946 1.372 . S
C1947 C1948 1.400 . S
C1947 C1952 1.490 . S
C1948 H1938 0.930 . S
C1948 C1947 1.400 . S
C1948 C1951 1.386 . S
H1949 C1965 0.930 . S
H1950 C1966 0.931 . S
C1951 H1939 0.929 . S
C1951 C1945 1.390 . S
C1951 C1948 1.386 . S
C1952 C1947 1.490 . S
C1952 C1954 1.395 . S
C1952 C1955 1.403 . S
H1953 C1959 0.930 . S
C1954 H1940 0.930 . S
C1954 C1952 1.395 . S
C1954 C1957 1.403 . S
C1955 C1952 1.403 . S
C1955 C1956 1.566 . S
C1955 C1959 1.400 . S
C1956 H1941 0.930 1_554 S
C1956 H1942 0.947 1_554 S
C1956 H1943 0.964 . S
C1956 C1955 1.566 . S
C1957 C1954 1.403 . S
C1957 C1958 1.392 . S
C1957 C1961 1.495 . S
C1958 C1957 1.392 . S
C1958 C1959 1.385 . S
C1958 C1960 1.478 . S
C1959 H1953 0.930 . S
C1959 C1955 1.400 . S
C1959 C1958 1.385 . S
C1960 C1958 1.478 . S
C1960 C1962 1.381 . S
C1960 C1966 1.383 . S
C1961 C1957 1.495 . S
C1961 H1967 0.959 . S
C1961 H1968 0.961 . S
C1961 H1969 0.960 . S
C1962 C1960 1.381 . S
C1962 C1963 1.394 . S
C1962 H1970 0.930 . S
C1963 C1962 1.394 . S
C1963 C1964 1.383 . S
C1963 H1971 0.929 . S
C1964 C1963 1.383 . S
C1964 C1965 1.377 . S
C1965 H1949 0.930 . S
C1965 C1964 1.377 . S
C1965 C1966 1.379 . S
C1966 H1950 0.931 . S
C1966 C1960 1.383 . S
C1966 C1965 1.379 . S
H1967 C1961 0.959 . S
H1968 C1961 0.961 . S
H1969 C1961 0.960 . S
H1970 C1962 0.930 . S
H1971 C1963 0.929 . S
H1972 C1980 0.929 . S
H1973 C1982 0.930 . S
H1974 C1984 0.930 . S
H1975 C1987 0.929 . S
H1976 C1990 0.930 . S
H1977 C1992 0.960 . S
H1978 C1992 0.960 . S
H1979 C1992 0.960 . S
C1980 H1972 0.929 . S
C1980 C1981 1.377 . S
C1980 C1982 1.384 . S
C1981 C1980 1.377 . S
C1981 C1987 1.390 . S
C1982 H1973 0.930 . S
C1982 C1980 1.384 . S
C1982 C1983 1.372 . S
C1983 C1982 1.372 . S
C1983 C1984 1.400 . S
C1983 C1988 1.490 . S
C1984 H1974 0.930 . S
C1984 C1983 1.400 . S
C1984 C1987 1.386 . S
H1985 C2001 0.930 . S
H1986 C2002 0.931 . S
C1987 H1975 0.929 . S
C1987 C1981 1.390 . S
C1987 C1984 1.386 . S
C1988 C1983 1.490 . S
C1988 C1990 1.395 . S
C1988 C1991 1.403 . S
H1989 C1995 0.930 . S
C1990 H1976 0.930 . S
C1990 C1988 1.395 . S
C1990 C1993 1.403 . S
C1991 C1988 1.403 . S
C1991 C1992 1.524 . S
C1991 C1995 1.400 . S
C1992 H1977 0.960 . S
C1992 H1978 0.960 . S
C1992 H1979 0.960 . S
C1992 C1991 1.524 . S
C1993 C1990 1.403 . S
C1993 C1994 1.392 . S
C1993 C1997 1.495 . S
C1994 C1993 1.392 . S
C1994 C1995 1.385 . S
C1994 C1996 1.478 . S
C1995 H1989 0.930 . S
C1995 C1991 1.400 . S
C1995 C1994 1.385 . S
C1996 C1994 1.478 . S
C1996 C1998 1.381 . S
C1996 C2002 1.383 . S
C1997 C1993 1.495 . S
C1997 H2003 0.959 . S
C1997 H2004 0.961 . S
C1997 H2005 0.960 . S
C1998 C1996 1.381 . S
C1998 C1999 1.394 . S
C1998 H2006 0.930 . S
C1999 C1998 1.394 . S
C1999 C2000 1.383 . S
C1999 H2007 0.929 . S
C2000 C1999 1.383 . S
C2000 C2001 1.377 . S
C2001 H1985 0.930 . S
C2001 C2000 1.377 . S
C2001 C2002 1.379 . S
C2002 H1986 0.931 . S
C2002 C1996 1.383 . S
C2002 C2001 1.379 . S
H2003 C1997 0.959 . S
H2004 C1997 0.961 . S
H2005 C1997 0.960 . S
H2006 C1998 0.930 . S
H2007 C1999 0.929 . S
H2008 C2016 0.929 . S
H2009 C2018 0.930 . S
H2010 C2020 0.930 . S
H2011 C2023 0.929 . S
H2012 C2026 0.930 . S
H2013 C2028 0.982 . S
H2014 C2028 0.960 . S
H2015 C2028 0.975 . S
C2016 H2008 0.929 . S
C2016 C2017 1.377 . S
C2016 C2018 1.384 . S
C2017 C2016 1.377 . S
C2017 C2023 1.390 . S
C2018 H2009 0.930 . S
C2018 C2016 1.384 . S
C2018 C2019 1.372 . S
C2019 C2018 1.372 . S
C2019 C2020 1.400 . S
C2019 C2024 1.490 . S
C2020 H2010 0.930 . S
C2020 C2019 1.400 . S
C2020 C2023 1.386 . S
H2021 C2037 0.930 . S
H2022 C2038 0.931 . S
C2023 H2011 0.929 . S
C2023 C2017 1.390 . S
C2023 C2020 1.386 . S
C2024 C2019 1.490 . S
C2024 C2026 1.395 . S
C2024 C2027 1.403 . S
H2025 C2031 0.930 . S
C2026 H2012 0.930 . S
C2026 C2024 1.395 . S
C2026 C2029 1.403 . S
C2027 C2024 1.403 . S
C2027 C2028 1.524 . S
C2027 C2031 1.400 . S
C2028 H2013 0.982 . S
C2028 H2014 0.960 . S
C2028 H2015 0.975 . S
C2028 C2027 1.524 . S
C2029 C2026 1.403 . S
C2029 C2030 1.392 . S
C2029 C2033 1.495 . S
C2030 C2029 1.392 . S
C2030 C2031 1.385 . S
C2030 C2032 1.478 . S
C2031 H2025 0.930 . S
C2031 C2027 1.400 . S
C2031 C2030 1.385 . S
C2032 C2030 1.478 . S
C2032 C2034 1.381 . S
C2032 C2038 1.383 . S
C2033 C2029 1.495 . S
C2033 H2039 0.959 . S
C2033 H2040 0.961 . S
C2033 H2041 0.960 . S
C2034 C2032 1.381 . S
C2034 C2035 1.394 . S
C2034 H2042 0.930 . S
C2035 C2034 1.394 . S
C2035 C2036 1.383 . S
C2035 H2043 0.929 . S
C2036 C2035 1.383 . S
C2036 C2037 1.377 . S
C2037 H2021 0.930 . S
C2037 C2036 1.377 . S
C2037 C2038 1.379 . S
C2038 H2022 0.931 . S
C2038 C2032 1.383 . S
C2038 C2037 1.379 . S
H2039 C2033 0.959 . S
H2040 C2033 0.961 . S
H2041 C2033 0.960 . S
H2042 C2034 0.930 . S
H2043 C2035 0.929 . S
H2044 C2052 0.929 . S
H2045 C2054 0.930 . S
H2046 C2056 0.930 . S
H2047 C2059 0.929 . S
H2048 C2062 0.930 . S
H2049 C2064 0.960 . S
H2050 C2064 0.960 . S
H2051 C2064 0.960 . S
C2052 H2044 0.929 . S
C2052 C2053 1.377 . S
C2052 C2054 1.384 . S
C2053 C2052 1.377 . S
C2053 C2059 1.390 . S
C2054 H2045 0.930 . S
C2054 C2052 1.384 . S
C2054 C2055 1.372 . S
C2055 C2054 1.372 . S
C2055 C2056 1.400 . S
C2055 C2060 1.490 . S
C2056 H2046 0.930 . S
C2056 C2055 1.400 . S
C2056 C2059 1.386 . S
H2057 C2073 0.930 . S
H2058 C2074 0.931 . S
C2059 H2047 0.929 . S
C2059 C2053 1.390 . S
C2059 C2056 1.386 . S
C2060 C2055 1.490 . S
C2060 C2062 1.395 . S
C2060 C2063 1.403 . S
H2061 C2067 0.930 . S
C2062 H2048 0.930 . S
C2062 C2060 1.395 . S
C2062 C2065 1.403 . S
C2063 C2060 1.403 . S
C2063 C2064 1.524 . S
C2063 C2067 1.400 . S
C2064 H2049 0.960 . S
C2064 H2050 0.960 . S
C2064 H2051 0.960 . S
C2064 C2063 1.524 . S
C2065 C2062 1.403 . S
C2065 C2066 1.392 . S
C2065 C2069 1.495 . S
C2066 C2065 1.392 . S
C2066 C2067 1.385 . S
C2066 C2068 1.478 . S
C2067 H2061 0.930 . S
C2067 C2063 1.400 . S
C2067 C2066 1.385 . S
C2068 C2066 1.478 . S
C2068 C2070 1.381 . S
C2068 C2074 1.383 . S
C2069 C2065 1.495 . S
C2069 H2075 0.959 . S
C2069 H2076 0.961 . S
C2069 H2077 0.960 . S
C2070 C2068 1.381 . S
C2070 C2071 1.394 . S
C2070 H2078 0.930 . S
C2071 C2070 1.394 . S
C2071 C2072 1.383 . S
C2071 H2079 0.929 . S
C2072 C2071 1.383 . S
C2072 C2073 1.377 . S
C2073 H2057 0.930 . S
C2073 C2072 1.377 . S
C2073 C2074 1.379 . S
C2074 H2058 0.931 . S
C2074 C2068 1.383 . S
C2074 C2073 1.379 . S
H2075 C2069 0.959 . S
H2076 C2069 0.961 . S
H2077 C2069 0.960 . S
H2078 C2070 0.930 . S
H2079 C2071 0.929 . S
H2080 C2088 0.929 . S
H2081 C2090 0.930 . S
H2082 C2092 0.930 . S
H2083 C2095 0.929 . S
H2084 C2098 0.930 . S
H2085 C2100 0.960 . S
H2086 C2100 0.960 . S
H2087 C2100 0.960 . S
C2088 H2080 0.929 . S
C2088 C2089 1.377 . S
C2088 C2090 1.384 . S
C2089 C2088 1.377 . S
C2089 C2095 1.390 . S
C2090 H2081 0.930 . S
C2090 C2088 1.384 . S
C2090 C2091 1.372 . S
C2091 C2090 1.372 . S
C2091 C2092 1.400 . S
C2091 C2096 1.490 . S
C2092 H2082 0.930 . S
C2092 C2091 1.400 . S
C2092 C2095 1.386 . S
H2093 C2109 0.930 . S
H2094 C2110 0.931 . S
C2095 H2083 0.929 . S
C2095 C2089 1.390 . S
C2095 C2092 1.386 . S
C2096 C2091 1.490 . S
C2096 C2098 1.395 . S
C2096 C2099 1.403 . S
H2097 C2103 0.930 . S
C2098 H2084 0.930 . S
C2098 C2096 1.395 . S
C2098 C2101 1.403 . S
C2099 C2096 1.403 . S
C2099 C2100 1.524 . S
C2099 C2103 1.400 . S
C2100 H2085 0.960 . S
C2100 H2086 0.960 . S
C2100 H2087 0.960 . S
C2100 C2099 1.524 . S
C2101 C2098 1.403 . S
C2101 C2102 1.392 . S
C2101 C2105 1.495 . S
C2102 C2101 1.392 . S
C2102 C2103 1.385 . S
C2102 C2104 1.478 . S
C2103 H2097 0.930 . S
C2103 C2099 1.400 . S
C2103 C2102 1.385 . S
C2104 C2102 1.478 . S
C2104 C2106 1.381 . S
C2104 C2110 1.383 . S
C2105 C2101 1.495 . S
C2105 H2111 0.959 . S
C2105 H2112 0.961 . S
C2105 H2113 0.960 . S
C2106 C2104 1.381 . S
C2106 C2107 1.394 1_545 S
C2106 H2114 0.930 . S
C2107 C2106 1.394 1_565 S
C2107 C2108 1.383 . S
C2107 H2115 0.929 . S
C2108 C2107 1.383 . S
C2108 C2109 1.377 1_565 S
C2109 H2093 0.930 . S
C2109 C2108 1.377 1_545 S
C2109 C2110 1.379 . S
C2110 H2094 0.931 . S
C2110 C2104 1.383 . S
C2110 C2109 1.379 . S
H2111 C2105 0.959 . S
H2112 C2105 0.961 . S
H2113 C2105 0.960 . S
H2114 C2106 0.930 . S
H2115 C2107 0.929 . S
H2116 C2124 0.929 1_565 S
H2117 C2126 0.930 . S
H2118 C2128 0.930 . S
H2119 C2131 0.929 . S
H2120 C2134 0.930 . S
H2121 C2136 0.960 . S
H2122 C2136 0.960 . S
H2123 C2136 0.960 . S
C2124 H2116 0.929 1_545 S
C2124 C2125 1.377 1_545 S
C2124 C2126 1.384 . S
C2125 C2124 1.377 1_565 S
C2125 C2131 1.390 1_565 S
C2126 H2117 0.930 . S
C2126 C2124 1.384 . S
C2126 C2127 1.372 . S
C2127 C2126 1.372 . S
C2127 C2128 1.400 . S
C2127 C2132 1.490 . S
C2128 H2118 0.930 . S
C2128 C2127 1.400 . S
C2128 C2131 1.386 . S
H2129 C2145 0.930 . S
H2130 C2146 0.931 . S
C2131 H2119 0.929 . S
C2131 C2125 1.390 1_545 S
C2131 C2128 1.386 . S
C2132 C2127 1.490 . S
C2132 C2134 1.395 . S
C2132 C2135 1.403 . S
H2133 C2139 0.930 . S
C2134 H2120 0.930 . S
C2134 C2132 1.395 . S
C2134 C2137 1.403 . S
C2135 C2132 1.403 . S
C2135 C2136 1.524 . S
C2135 C2139 1.400 . S
C2136 H2121 0.960 . S
C2136 H2122 0.960 . S
C2136 H2123 0.960 . S
C2136 C2135 1.524 . S
C2137 C2134 1.403 . S
C2137 C2138 1.392 . S
C2137 C2141 1.495 . S
C2138 C2137 1.392 . S
C2138 C2139 1.385 . S
C2138 C2140 1.478 . S
C2139 H2133 0.930 . S
C2139 C2135 1.400 . S
C2139 C2138 1.385 . S
C2140 C2138 1.478 . S
C2140 C2142 1.381 . S
C2140 C2146 1.383 . S
C2141 C2137 1.495 . S
C2141 H2147 0.959 . S
C2141 H2148 0.961 . S
C2141 H2149 0.960 . S
C2142 C2140 1.381 . S
C2142 C2143 1.394 . S
C2142 H2150 0.930 . S
C2143 C2142 1.394 . S
C2143 C2144 1.383 . S
C2143 H2151 0.929 . S
C2144 C2143 1.383 . S
C2144 C2145 1.377 . S
C2145 H2129 0.930 . S
C2145 C2144 1.377 . S
C2145 C2146 1.379 . S
C2146 H2130 0.931 . S
C2146 C2140 1.383 . S
C2146 C2145 1.379 . S
H2147 C2141 0.959 . S
H2148 C2141 0.961 . S
H2149 C2141 0.960 . S
H2150 C2142 0.930 . S
H2151 C2143 0.929 . S
H2152 C2160 0.929 . S
H2153 C2162 0.930 . S
H2154 C2164 0.930 . S
H2155 C2167 0.929 . S
H2156 C2170 0.930 . S
H2157 C2172 0.960 . S
H2158 C2172 0.960 . S
H2159 C2172 0.960 . S
C2160 H2152 0.929 . S
C2160 C2161 1.377 . S
C2160 C2162 1.384 . S
C2161 C2160 1.377 . S
C2161 C2167 1.390 . S
C2162 H2153 0.930 . S
C2162 C2160 1.384 . S
C2162 C2163 1.372 . S
C2163 C2162 1.372 . S
C2163 C2164 1.400 . S
C2163 C2168 1.490 . S
C2164 H2154 0.930 . S
C2164 C2163 1.400 . S
C2164 C2167 1.386 . S
H2165 C2181 0.930 . S
H2166 C2182 0.931 . S
C2167 H2155 0.929 . S
C2167 C2161 1.390 . S
C2167 C2164 1.386 . S
C2168 C2163 1.490 . S
C2168 C2170 1.395 . S
C2168 C2171 1.403 . S
H2169 C2175 0.930 . S
C2170 H2156 0.930 . S
C2170 C2168 1.395 . S
C2170 C2173 1.403 . S
C2171 C2168 1.403 . S
C2171 C2172 1.524 . S
C2171 C2175 1.400 . S
C2172 H2157 0.960 . S
C2172 H2158 0.960 . S
C2172 H2159 0.960 . S
C2172 C2171 1.524 . S
C2173 C2170 1.403 . S
C2173 C2174 1.392 . S
C2173 C2177 1.495 . S
C2174 C2173 1.392 . S
C2174 C2175 1.385 . S
C2174 C2176 1.478 . S
C2175 H2169 0.930 . S
C2175 C2171 1.400 . S
C2175 C2174 1.385 . S
C2176 C2174 1.478 . S
C2176 C2178 1.381 . S
C2176 C2182 1.383 . S
C2177 C2173 1.495 . S
C2177 H2183 0.959 . S
C2177 H2184 0.961 . S
C2177 H2185 0.960 . S
C2178 C2176 1.381 . S
C2178 C2179 1.394 . S
C2178 H2186 0.930 . S
C2179 C2178 1.394 . S
C2179 C2180 1.383 1_565 S
C2179 H2187 0.929 1_565 S
C2180 C2179 1.383 1_545 S
C2180 C2181 1.377 1_545 S
C2181 H2165 0.930 . S
C2181 C2180 1.377 1_565 S
C2181 C2182 1.379 . S
C2182 H2166 0.931 . S
C2182 C2176 1.383 . S
C2182 C2181 1.379 . S
H2183 C2177 0.959 . S
H2184 C2177 0.961 . S
H2185 C2177 0.960 . S
H2186 C2178 0.930 . S
H2187 C2179 0.929 1_545 S
H2188 C2196 0.929 1_545 S
H2189 C2198 0.930 . S
H2190 C2200 0.930 . S
H2191 C2203 0.929 . S
H2192 C2206 0.930 . S
H2193 C2208 0.960 . S
H2194 C2208 0.960 . S
H2195 C2208 0.960 . S
C2196 H2188 0.929 1_565 S
C2196 C2197 1.377 1_565 S
C2196 C2198 1.384 . S
C2197 C2196 1.377 1_545 S
C2197 C2203 1.390 1_545 S
C2198 H2189 0.930 . S
C2198 C2196 1.384 . S
C2198 C2199 1.372 . S
C2199 C2198 1.372 . S
C2199 C2200 1.400 . S
C2199 C2204 1.490 . S
C2200 H2190 0.930 . S
C2200 C2199 1.400 . S
C2200 C2203 1.386 . S
H2201 C2217 0.930 . S
H2202 C2218 0.931 . S
C2203 H2191 0.929 . S
C2203 C2197 1.390 1_565 S
C2203 C2200 1.386 . S
C2204 C2199 1.490 . S
C2204 C2206 1.395 . S
C2204 C2207 1.403 . S
H2205 C2211 0.930 . S
C2206 H2192 0.930 . S
C2206 C2204 1.395 . S
C2206 C2209 1.403 . S
C2207 C2204 1.403 . S
C2207 C2208 1.524 . S
C2207 C2211 1.400 . S
C2208 H2193 0.960 . S
C2208 H2194 0.960 . S
C2208 H2195 0.960 . S
C2208 C2207 1.524 . S
C2209 C2206 1.403 . S
C2209 C2210 1.392 . S
C2209 C2213 1.495 . S
C2210 C2209 1.392 . S
C2210 C2211 1.385 . S
C2210 C2212 1.478 . S
C2211 H2205 0.930 . S
C2211 C2207 1.400 . S
C2211 C2210 1.385 . S
C2212 C2210 1.478 . S
C2212 C2214 1.381 . S
C2212 C2218 1.383 . S
C2213 C2209 1.495 . S
C2213 H2219 0.959 . S
C2213 H2220 0.961 . S
C2213 H2221 0.960 . S
C2214 C2212 1.381 . S
C2214 C2215 1.394 . S
C2214 H2222 0.930 . S
C2215 C2214 1.394 . S
C2215 C2216 1.383 . S
C2215 H2223 0.929 . S
C2216 C2215 1.383 . S
C2216 C2217 1.377 . S
C2217 H2201 0.930 . S
C2217 C2216 1.377 . S
C2217 C2218 1.379 . S
C2218 H2202 0.931 . S
C2218 C2212 1.383 . S
C2218 C2217 1.379 . S
H2219 C2213 0.959 . S
H2220 C2213 0.961 . S
H2221 C2213 0.960 . S
H2222 C2214 0.930 . S
H2223 C2215 0.929 . S
H2224 C2232 0.929 . S
H2225 C2234 0.930 . S
H2226 C2236 0.930 . S
H2227 C2239 0.929 . S
H2228 C2242 0.930 . S
H2229 C2244 0.960 . S
H2230 C2244 0.960 . S
H2231 C2244 0.960 . S
C2232 H2224 0.929 . S
C2232 C2233 1.377 . S
C2232 C2234 1.384 . S
C2233 C2232 1.377 . S
C2233 C2239 1.390 . S
C2234 H2225 0.930 . S
C2234 C2232 1.384 . S
C2234 C2235 1.372 . S
C2235 C2234 1.372 . S
C2235 C2236 1.400 . S
C2235 C2240 1.490 . S
C2236 H2226 0.930 . S
C2236 C2235 1.400 . S
C2236 C2239 1.386 . S
H2237 C2253 0.930 . S
H2238 C2254 0.931 . S
C2239 H2227 0.929 . S
C2239 C2233 1.390 . S
C2239 C2236 1.386 . S
C2240 C2235 1.490 . S
C2240 C2242 1.395 . S
C2240 C2243 1.403 . S
H2241 C2247 0.930 . S
C2242 H2228 0.930 . S
C2242 C2240 1.395 . S
C2242 C2245 1.403 . S
C2243 C2240 1.403 . S
C2243 C2244 1.524 . S
C2243 C2247 1.400 . S
C2244 H2229 0.960 . S
C2244 H2230 0.960 . S
C2244 H2231 0.960 . S
C2244 C2243 1.524 . S
C2245 C2242 1.403 . S
C2245 C2246 1.392 . S
C2245 C2249 1.495 . S
C2246 C2245 1.392 . S
C2246 C2247 1.385 . S
C2246 C2248 1.478 . S
C2247 H2241 0.930 . S
C2247 C2243 1.400 . S
C2247 C2246 1.385 . S
C2248 C2246 1.478 . S
C2248 C2250 1.381 . S
C2248 C2254 1.383 . S
C2249 C2245 1.495 . S
C2249 H2255 0.959 . S
C2249 H2256 0.961 . S
C2249 H2257 0.960 . S
C2250 C2248 1.381 . S
C2250 C2251 1.394 . S
C2250 H2258 0.930 . S
C2251 C2250 1.394 . S
C2251 C2252 1.383 . S
C2251 H2259 0.929 . S
C2252 C2251 1.383 . S
C2252 C2253 1.377 . S
C2253 H2237 0.930 . S
C2253 C2252 1.377 . S
C2253 C2254 1.379 . S
C2254 H2238 0.931 . S
C2254 C2248 1.383 . S
C2254 C2253 1.379 . S
H2255 C2249 0.959 . S
H2256 C2249 0.961 . S
H2257 C2249 0.960 . S
H2258 C2250 0.930 . S
H2259 C2251 0.929 . S
H2260 C2268 0.929 . S
H2261 C2270 0.930 . S
H2262 C2272 0.930 . S
H2263 C2275 0.929 . S
H2264 C2278 0.930 . S
H2265 C2280 0.960 . S
H2266 C2280 0.960 . S
H2267 C2280 0.960 . S
C2268 H2260 0.929 . S
C2268 C2269 1.377 . S
C2268 C2270 1.384 . S
C2269 C2268 1.377 . S
C2269 C2275 1.390 . S
C2270 H2261 0.930 . S
C2270 C2268 1.384 . S
C2270 C2271 1.372 . S
C2271 C2270 1.372 . S
C2271 C2272 1.400 . S
C2271 C2276 1.490 . S
C2272 H2262 0.930 . S
C2272 C2271 1.400 . S
C2272 C2275 1.386 . S
H2273 C2289 0.930 . S
H2274 C2290 0.931 . S
C2275 H2263 0.929 . S
C2275 C2269 1.390 . S
C2275 C2272 1.386 . S
C2276 C2271 1.490 . S
C2276 C2278 1.395 . S
C2276 C2279 1.403 . S
H2277 C2283 0.930 . S
C2278 H2264 0.930 . S
C2278 C2276 1.395 . S
C2278 C2281 1.403 . S
C2279 C2276 1.403 . S
C2279 C2280 1.524 . S
C2279 C2283 1.400 . S
C2280 H2265 0.960 . S
C2280 H2266 0.960 . S
C2280 H2267 0.960 . S
C2280 C2279 1.524 . S
C2281 C2278 1.403 . S
C2281 C2282 1.392 . S
C2281 C2285 1.495 . S
C2282 C2281 1.392 . S
C2282 C2283 1.385 . S
C2282 C2284 1.478 . S
C2283 H2277 0.930 . S
C2283 C2279 1.400 . S
C2283 C2282 1.385 . S
C2284 C2282 1.478 . S
C2284 C2286 1.381 . S
C2284 C2290 1.383 . S
C2285 C2281 1.495 . S
C2285 H2291 0.959 . S
C2285 H2292 0.961 . S
C2285 H2293 0.960 . S
C2286 C2284 1.381 . S
C2286 C2287 1.394 . S
C2286 H2294 0.930 . S
C2287 C2286 1.394 . S
C2287 C2288 1.383 . S
C2287 H2295 0.929 . S
C2288 C2287 1.383 . S
C2288 C2289 1.377 . S
C2289 H2273 0.930 . S
C2289 C2288 1.377 . S
C2289 C2290 1.379 . S
C2290 H2274 0.931 . S
C2290 C2284 1.383 . S
C2290 C2289 1.379 . S
H2291 C2285 0.959 . S
H2292 C2285 0.961 . S
H2293 C2285 0.960 . S
H2294 C2286 0.930 . S
H2295 C2287 0.929 . S
H2296 C2304 0.929 . S
H2297 C2306 0.930 . S
H2298 C2308 0.930 . S
H2299 C2311 0.929 . S
H2300 C2314 0.930 . S
H2301 C2316 0.960 . S
H2302 C2316 0.960 . S
H2303 C2316 0.960 . S
C2304 H2296 0.929 . S
C2304 C2305 1.377 . S
C2304 C2306 1.384 . S
C2305 C2304 1.377 . S
C2305 C2311 1.390 . S
C2306 H2297 0.930 . S
C2306 C2304 1.384 . S
C2306 C2307 1.372 . S
C2307 C2306 1.372 . S
C2307 C2308 1.400 . S
C2307 C2312 1.490 . S
C2308 H2298 0.930 . S
C2308 C2307 1.400 . S
C2308 C2311 1.386 . S
H2309 C2325 0.930 . S
H2310 C2326 0.931 . S
C2311 H2299 0.929 . S
C2311 C2305 1.390 . S
C2311 C2308 1.386 . S
C2312 C2307 1.490 . S
C2312 C2314 1.395 . S
C2312 C2315 1.403 . S
H2313 C2319 0.930 . S
C2314 H2300 0.930 . S
C2314 C2312 1.395 . S
C2314 C2317 1.403 . S
C2315 C2312 1.403 . S
C2315 C2316 1.524 . S
C2315 C2319 1.400 . S
C2316 H2301 0.960 . S
C2316 H2302 0.960 . S
C2316 H2303 0.960 . S
C2316 C2315 1.524 . S
C2317 C2314 1.403 . S
C2317 C2318 1.392 . S
C2317 C2321 1.495 . S
C2318 C2317 1.392 . S
C2318 C2319 1.385 . S
C2318 C2320 1.478 . S
C2319 H2313 0.930 . S
C2319 C2315 1.400 . S
C2319 C2318 1.385 . S
C2320 C2318 1.478 . S
C2320 C2322 1.381 . S
C2320 C2326 1.383 . S
C2321 C2317 1.495 . S
C2321 H2327 0.959 . S
C2321 H2328 0.961 . S
C2321 H2329 0.960 . S
C2322 C2320 1.381 . S
C2322 C2323 1.394 . S
C2322 H2330 0.930 . S
C2323 C2322 1.394 . S
C2323 C2324 1.383 . S
C2323 H2331 0.929 . S
C2324 C2323 1.383 . S
C2324 C2325 1.377 . S
C2325 H2309 0.930 . S
C2325 C2324 1.377 . S
C2325 C2326 1.379 . S
C2326 H2310 0.931 . S
C2326 C2320 1.383 . S
C2326 C2325 1.379 . S
H2327 C2321 0.959 . S
H2328 C2321 0.961 . S
H2329 C2321 0.960 . S
H2330 C2322 0.930 . S
H2331 C2323 0.929 . S
H2332 C2340 0.929 . S
H2333 C2342 0.930 . S
H2334 C2344 0.930 . S
H2335 C2347 0.929 . S
H2336 C2350 0.930 . S
H2337 C2352 0.960 . S
H2338 C2352 0.960 . S
H2339 C2352 0.960 . S
C2340 H2332 0.929 . S
C2340 C2341 1.377 . S
C2340 C2342 1.384 . S
C2341 C2340 1.377 . S
C2341 C2347 1.390 . S
C2342 H2333 0.930 . S
C2342 C2340 1.384 . S
C2342 C2343 1.372 . S
C2343 C2342 1.372 . S
C2343 C2344 1.400 . S
C2343 C2348 1.490 . S
C2344 H2334 0.930 . S
C2344 C2343 1.400 . S
C2344 C2347 1.386 . S
H2345 C2361 0.930 . S
H2346 C2362 0.931 . S
C2347 H2335 0.929 . S
C2347 C2341 1.390 . S
C2347 C2344 1.386 . S
C2348 C2343 1.490 . S
C2348 C2350 1.395 . S
C2348 C2351 1.403 . S
H2349 C2355 0.930 . S
C2350 H2336 0.930 . S
C2350 C2348 1.395 . S
C2350 C2353 1.403 . S
C2351 C2348 1.403 . S
C2351 C2352 1.524 . S
C2351 C2355 1.400 . S
C2352 H2337 0.960 . S
C2352 H2338 0.960 . S
C2352 H2339 0.960 . S
C2352 C2351 1.524 . S
C2353 C2350 1.403 . S
C2353 C2354 1.392 . S
C2353 C2357 1.495 . S
C2354 C2353 1.392 . S
C2354 C2355 1.385 . S
C2354 C2356 1.478 . S
C2355 H2349 0.930 . S
C2355 C2351 1.400 . S
C2355 C2354 1.385 . S
C2356 C2354 1.478 . S
C2356 C2358 1.381 . S
C2356 C2362 1.383 . S
C2357 C2353 1.495 . S
C2357 H2363 0.959 . S
C2357 H2364 0.961 . S
C2357 H2365 0.960 . S
C2358 C2356 1.381 . S
C2358 C2359 1.394 . S
C2358 H2366 0.930 . S
C2359 C2358 1.394 . S
C2359 C2360 1.383 . S
C2359 H2367 0.929 . S
C2360 C2359 1.383 . S
C2360 C2361 1.377 . S
C2361 H2345 0.930 . S
C2361 C2360 1.377 . S
C2361 C2362 1.379 . S
C2362 H2346 0.931 . S
C2362 C2356 1.383 . S
C2362 C2361 1.379 . S
H2363 C2357 0.959 . S
H2364 C2357 0.961 . S
H2365 C2357 0.960 . S
H2366 C2358 0.930 . S
H2367 C2359 0.929 . S
H2368 C2376 0.929 1_565 S
H2369 C2378 0.930 . S
H2370 C2380 0.930 . S
H2371 C2383 0.929 . S
H2372 C2386 0.930 . S
H2373 C2388 0.960 . S
H2374 C2388 0.960 . S
H2375 C2388 0.960 . S
C2376 H2368 0.929 1_545 S
C2376 C2377 1.377 1_545 S
C2376 C2378 1.384 . S
C2377 C2376 1.377 1_565 S
C2377 C2383 1.390 1_565 S
C2378 H2369 0.930 . S
C2378 C2376 1.384 . S
C2378 C2379 1.372 . S
C2379 C2378 1.372 . S
C2379 C2380 1.400 . S
C2379 C2384 1.490 . S
C2380 H2370 0.930 . S
C2380 C2379 1.400 . S
C2380 C2383 1.386 . S
H2381 C2397 0.930 . S
H2382 C2398 0.931 . S
C2383 H2371 0.929 . S
C2383 C2377 1.390 1_545 S
C2383 C2380 1.386 . S
C2384 C2379 1.490 . S
C2384 C2386 1.395 . S
C2384 C2387 1.403 . S
H2385 C2391 0.930 . S
C2386 H2372 0.930 . S
C2386 C2384 1.395 . S
C2386 C2389 1.403 . S
C2387 C2384 1.403 . S
C2387 C2388 1.524 . S
C2387 C2391 1.400 . S
C2388 H2373 0.960 . S
C2388 H2374 0.960 . S
C2388 H2375 0.960 . S
C2388 C2387 1.524 . S
C2389 C2386 1.403 . S
C2389 C2390 1.392 . S
C2389 C2393 1.495 . S
C2390 C2389 1.392 . S
C2390 C2391 1.385 . S
C2390 C2392 1.478 . S
C2391 H2385 0.930 . S
C2391 C2387 1.400 . S
C2391 C2390 1.385 . S
C2392 C2390 1.478 . S
C2392 C2394 1.381 . S
C2392 C2398 1.383 . S
C2393 C2389 1.495 . S
C2393 H2399 0.959 . S
C2393 H2400 0.961 . S
C2393 H2401 0.960 . S
C2394 C2392 1.381 . S
C2394 C2395 1.394 . S
C2394 H2402 0.930 . S
C2395 C2394 1.394 . S
C2395 C2396 1.383 . S
C2395 H2403 0.929 . S
C2396 C2395 1.383 . S
C2396 C2397 1.377 . S
C2397 H2381 0.930 . S
C2397 C2396 1.377 . S
C2397 C2398 1.379 . S
C2398 H2382 0.931 . S
C2398 C2392 1.383 . S
C2398 C2397 1.379 . S
H2399 C2393 0.959 . S
H2400 C2393 0.961 . S
H2401 C2393 0.960 . S
H2402 C2394 0.930 . S
H2403 C2395 0.929 . S
H2404 C2412 0.929 . S
H2405 C2414 0.930 . S
H2406 C2416 0.930 . S
H2407 C2419 0.929 . S
H2408 C2422 0.930 . S
H2409 C2424 0.960 . S
H2410 C2424 0.960 . S
H2411 C2424 0.960 . S
C2412 H2404 0.929 . S
C2412 C2413 1.377 . S
C2412 C2414 1.384 1_565 S
C2413 C2412 1.377 . S
C2413 C2419 1.390 1_565 S
C2414 H2405 0.930 . S
C2414 C2412 1.384 1_545 S
C2414 C2415 1.372 . S
C2415 C2414 1.372 . S
C2415 C2416 1.400 . S
C2415 C2420 1.490 . S
C2416 H2406 0.930 . S
C2416 C2415 1.400 . S
C2416 C2419 1.386 . S
H2417 C2433 0.930 . S
H2418 C2434 0.931 . S
C2419 H2407 0.929 . S
C2419 C2413 1.390 1_545 S
C2419 C2416 1.386 . S
C2420 C2415 1.490 . S
C2420 C2422 1.395 . S
C2420 C2423 1.403 . S
H2421 C2427 0.930 . S
C2422 H2408 0.930 . S
C2422 C2420 1.395 . S
C2422 C2425 1.403 . S
C2423 C2420 1.403 . S
C2423 C2424 1.524 . S
C2423 C2427 1.400 . S
C2424 H2409 0.960 . S
C2424 H2410 0.960 . S
C2424 H2411 0.960 . S
C2424 C2423 1.524 . S
C2425 C2422 1.403 . S
C2425 C2426 1.392 . S
C2425 C2429 1.495 . S
C2426 C2425 1.392 . S
C2426 C2427 1.385 . S
C2426 C2428 1.478 . S
C2427 H2421 0.930 . S
C2427 C2423 1.400 . S
C2427 C2426 1.385 . S
C2428 C2426 1.478 . S
C2428 C2430 1.381 . S
C2428 C2434 1.383 . S
C2429 C2425 1.495 . S
C2429 H2435 0.959 . S
C2429 H2436 0.961 . S
C2429 H2437 0.960 . S
C2430 C2428 1.381 . S
C2430 C2431 1.394 . S
C2430 H2438 0.930 . S
C2431 C2430 1.394 . S
C2431 C2432 1.383 . S
C2431 H2439 0.929 . S
C2432 C2431 1.383 . S
C2432 C2433 1.377 . S
C2433 H2417 0.930 . S
C2433 C2432 1.377 . S
C2433 C2434 1.379 . S
C2434 H2418 0.931 . S
C2434 C2428 1.383 . S
C2434 C2433 1.379 . S
H2435 C2429 0.959 . S
H2436 C2429 0.961 . S
H2437 C2429 0.960 . S
H2438 C2430 0.930 . S
H2439 C2431 0.929 . S
H2440 C2448 0.929 . S
H2441 C2450 0.930 . S
H2442 C2452 0.930 . S
H2443 C2455 0.929 . S
H2444 C2458 0.930 . S
H2445 C2460 0.960 . S
H2446 C2460 0.960 . S
H2447 C2460 0.960 . S
C2448 H2440 0.929 . S
C2448 C2449 1.377 . S
C2448 C2450 1.384 1_545 S
C2449 C2448 1.377 . S
C2449 C2455 1.390 1_545 S
C2450 H2441 0.930 . S
C2450 C2448 1.384 1_565 S
C2450 C2451 1.372 . S
C2451 C2450 1.372 . S
C2451 C2452 1.400 . S
C2451 C2456 1.490 . S
C2452 H2442 0.930 . S
C2452 C2451 1.400 . S
C2452 C2455 1.386 . S
H2453 C2469 0.930 . S
H2454 C2470 0.931 . S
C2455 H2443 0.929 . S
C2455 C2449 1.390 1_565 S
C2455 C2452 1.386 . S
C2456 C2451 1.490 . S
C2456 C2458 1.395 . S
C2456 C2459 1.403 . S
H2457 C2463 0.930 . S
C2458 H2444 0.930 . S
C2458 C2456 1.395 . S
C2458 C2461 1.403 . S
C2459 C2456 1.403 . S
C2459 C2460 1.524 . S
C2459 C2463 1.400 . S
C2460 H2445 0.960 . S
C2460 H2446 0.960 . S
C2460 H2447 0.960 . S
C2460 C2459 1.524 . S
C2461 C2458 1.403 . S
C2461 C2462 1.392 . S
C2461 C2465 1.495 . S
C2462 C2461 1.392 . S
C2462 C2463 1.385 . S
C2462 C2464 1.478 . S
C2463 H2457 0.930 . S
C2463 C2459 1.400 . S
C2463 C2462 1.385 . S
C2464 C2462 1.478 . S
C2464 C2466 1.381 . S
C2464 C2470 1.383 . S
C2465 C2461 1.495 . S
C2465 H2471 0.959 . S
C2465 H2472 0.961 . S
C2465 H2473 0.960 . S
C2466 C2464 1.381 . S
C2466 C2467 1.394 . S
C2466 H2474 0.930 . S
C2467 C2466 1.394 . S
C2467 C2468 1.383 . S
C2467 H2475 0.929 . S
C2468 C2467 1.383 . S
C2468 C2469 1.377 . S
C2469 H2453 0.930 . S
C2469 C2468 1.377 . S
C2469 C2470 1.379 . S
C2470 H2454 0.931 . S
C2470 C2464 1.383 . S
C2470 C2469 1.379 . S
H2471 C2465 0.959 . S
H2472 C2465 0.961 . S
H2473 C2465 0.960 . S
H2474 C2466 0.930 . S
H2475 C2467 0.929 . S
H2476 C2484 0.929 . S
H2477 C2486 0.930 . S
H2478 C2488 0.930 . S
H2479 C2491 0.942 . S
H2480 C2494 0.930 . S
H2481 C2496 0.960 . S
H2482 C2496 0.960 . S
H2483 C2496 0.960 . S
C2484 H2476 0.929 . S
C2484 C2485 1.377 1_565 S
C2484 C2486 1.384 . S
C2485 C2484 1.377 1_545 S
C2485 C2491 1.390 . S
C2486 H2477 0.930 . S
C2486 C2484 1.384 . S
C2486 C2487 1.372 . S
C2487 C2486 1.372 . S
C2487 C2488 1.400 . S
C2487 C2492 1.490 . S
C2488 H2478 0.930 . S
C2488 C2487 1.400 . S
C2488 C2491 1.373 1_565 S
H2489 C2505 0.930 . S
H2490 C2506 0.931 . S
C2491 H2479 0.942 . S
C2491 C2485 1.390 . S
C2491 C2488 1.373 1_545 S
C2492 C2487 1.490 . S
C2492 C2494 1.395 . S
C2492 C2495 1.403 . S
H2493 C2499 0.930 . S
C2494 H2480 0.930 . S
C2494 C2492 1.395 . S
C2494 C2497 1.403 . S
C2495 C2492 1.403 . S
C2495 C2496 1.524 . S
C2495 C2499 1.400 . S
C2496 H2481 0.960 . S
C2496 H2482 0.960 . S
C2496 H2483 0.960 . S
C2496 C2495 1.524 . S
C2497 C2494 1.403 . S
C2497 C2498 1.392 . S
C2497 C2501 1.495 . S
C2498 C2497 1.392 . S
C2498 C2499 1.385 . S
C2498 C2500 1.478 . S
C2499 H2493 0.930 . S
C2499 C2495 1.400 . S
C2499 C2498 1.385 . S
C2500 C2498 1.478 . S
C2500 C2502 1.381 . S
C2500 C2506 1.383 . S
C2501 C2497 1.495 . S
C2501 H2507 0.959 . S
C2501 H2508 0.961 . S
C2501 H2509 0.960 . S
C2502 C2500 1.381 . S
C2502 C2503 1.394 . S
C2502 H2510 0.930 . S
C2503 C2502 1.394 . S
C2503 C2504 1.383 . S
C2503 H2511 0.929 . S
C2504 C2503 1.383 . S
C2504 C2505 1.377 . S
C2505 H2489 0.930 . S
C2505 C2504 1.377 . S
C2505 C2506 1.379 . S
C2506 H2490 0.931 . S
C2506 C2500 1.383 . S
C2506 C2505 1.379 . S
H2507 C2501 0.959 . S
H2508 C2501 0.961 . S
H2509 C2501 0.960 . S
H2510 C2502 0.930 . S
H2511 C2503 0.929 . S
H2512 C2520 0.929 . S
H2513 C2522 0.930 . S
H2514 C2524 0.930 . S
H2515 C2527 0.929 . S
H2516 C2530 0.930 . S
H2517 C2532 0.960 . S
H2518 C2532 0.960 . S
H2519 C2532 0.960 . S
C2520 H2512 0.929 . S
C2520 C2521 1.377 . S
C2520 C2522 1.384 . S
C2521 C2520 1.377 . S
C2521 C2527 1.390 . S
C2522 H2513 0.930 . S
C2522 C2520 1.384 . S
C2522 C2523 1.372 . S
C2523 C2522 1.372 . S
C2523 C2524 1.400 . S
C2523 C2528 1.490 . S
C2524 H2514 0.930 . S
C2524 C2523 1.400 . S
C2524 C2527 1.386 . S
H2525 C2541 0.930 . S
H2526 C2542 0.931 . S
C2527 H2515 0.929 . S
C2527 C2521 1.390 . S
C2527 C2524 1.386 . S
C2528 C2523 1.490 . S
C2528 C2530 1.395 . S
C2528 C2531 1.403 . S
H2529 C2535 0.930 . S
C2530 H2516 0.930 . S
C2530 C2528 1.395 . S
C2530 C2533 1.403 . S
C2531 C2528 1.403 . S
C2531 C2532 1.524 . S
C2531 C2535 1.400 . S
C2532 H2517 0.960 . S
C2532 H2518 0.960 . S
C2532 H2519 0.960 . S
C2532 C2531 1.524 . S
C2533 C2530 1.403 . S
C2533 C2534 1.392 . S
C2533 C2537 1.495 . S
C2534 C2533 1.392 . S
C2534 C2535 1.385 . S
C2534 C2536 1.478 . S
C2535 H2529 0.930 . S
C2535 C2531 1.400 . S
C2535 C2534 1.385 . S
C2536 C2534 1.478 . S
C2536 C2538 1.381 . S
C2536 C2542 1.383 . S
C2537 C2533 1.495 . S
C2537 H2543 0.959 . S
C2537 H2544 0.961 . S
C2537 H2545 0.960 . S
C2538 C2536 1.381 . S
C2538 C2539 1.394 . S
C2538 H2546 0.930 . S
C2539 C2538 1.394 . S
C2539 C2540 1.383 . S
C2539 H2547 0.929 . S
C2540 C2539 1.383 . S
C2540 C2541 1.377 . S
C2541 H2525 0.930 . S
C2541 C2540 1.377 . S
C2541 C2542 1.379 . S
C2542 H2526 0.931 . S
C2542 C2536 1.383 . S
C2542 C2541 1.379 . S
H2543 C2537 0.959 . S
H2544 C2537 0.961 . S
H2545 C2537 0.960 . S
H2546 C2538 0.930 . S
H2547 C2539 0.929 . S
H2548 C2556 0.929 . S
H2549 C2558 0.930 . S
H2550 C2560 0.930 . S
H2551 C2563 0.929 . S
H2552 C2566 0.930 . S
H2553 C2568 0.960 . S
H2554 C2568 0.960 . S
H2555 C2568 0.960 . S
C2556 H2548 0.929 . S
C2556 C2557 1.377 . S
C2556 C2558 1.384 . S
C2557 C2556 1.377 . S
C2557 C2563 1.390 . S
C2558 H2549 0.930 . S
C2558 C2556 1.384 . S
C2558 C2559 1.372 . S
C2559 C2558 1.372 . S
C2559 C2560 1.400 . S
C2559 C2564 1.490 . S
C2560 H2550 0.930 . S
C2560 C2559 1.400 . S
C2560 C2563 1.386 . S
H2561 C2577 0.930 . S
H2562 C2578 0.931 . S
C2563 H2551 0.929 . S
C2563 C2557 1.390 . S
C2563 C2560 1.386 . S
C2564 C2559 1.490 . S
C2564 C2566 1.395 . S
C2564 C2567 1.403 . S
H2565 C2571 0.930 . S
C2566 H2552 0.930 . S
C2566 C2564 1.395 . S
C2566 C2569 1.403 . S
C2567 C2564 1.403 . S
C2567 C2568 1.524 . S
C2567 C2571 1.400 . S
C2568 H2553 0.960 . S
C2568 H2554 0.960 . S
C2568 H2555 0.960 . S
C2568 C2567 1.524 . S
C2569 C2566 1.403 . S
C2569 C2570 1.392 . S
C2569 C2573 1.495 . S
C2570 C2569 1.392 . S
C2570 C2571 1.385 . S
C2570 C2572 1.478 . S
C2571 H2565 0.930 . S
C2571 C2567 1.400 . S
C2571 C2570 1.385 . S
C2572 C2570 1.478 . S
C2572 C2574 1.381 . S
C2572 C2578 1.383 . S
C2573 C2569 1.495 . S
C2573 H2579 0.959 . S
C2573 H2580 0.961 . S
C2573 H2581 0.960 . S
C2574 C2572 1.381 . S
C2574 C2575 1.394 . S
C2574 H2582 0.930 . S
C2575 C2574 1.394 . S
C2575 C2576 1.383 . S
C2575 H2583 0.929 . S
C2576 C2575 1.383 . S
C2576 C2577 1.377 . S
C2577 H2561 0.930 . S
C2577 C2576 1.377 . S
C2577 C2578 1.379 . S
C2578 H2562 0.931 . S
C2578 C2572 1.383 . S
C2578 C2577 1.379 . S
H2579 C2573 0.959 . S
H2580 C2573 0.961 . S
H2581 C2573 0.960 . S
H2582 C2574 0.930 . S
H2583 C2575 0.929 . S
H2584 C2592 0.929 . S
H2585 C2594 0.930 . S
H2586 C2596 0.930 . S
H2587 C2599 0.929 . S
H2588 C2602 0.930 . S
H2589 C2604 0.960 . S
H2590 C2604 0.960 . S
H2591 C2604 0.960 . S
C2592 H2584 0.929 . S
C2592 C2593 1.377 . S
C2592 C2594 1.384 . S
C2593 C2592 1.377 . S
C2593 C2599 1.390 . S
C2594 H2585 0.930 . S
C2594 C2592 1.384 . S
C2594 C2595 1.372 . S
C2595 C2594 1.372 . S
C2595 C2596 1.400 . S
C2595 C2600 1.490 . S
C2596 H2586 0.930 . S
C2596 C2595 1.400 . S
C2596 C2599 1.386 . S
H2597 C2613 0.930 . S
H2598 C2614 0.931 . S
C2599 H2587 0.929 . S
C2599 C2593 1.390 . S
C2599 C2596 1.386 . S
C2600 C2595 1.490 . S
C2600 C2602 1.395 . S
C2600 C2603 1.403 . S
H2601 C2607 0.930 . S
C2602 H2588 0.930 . S
C2602 C2600 1.395 . S
C2602 C2605 1.403 . S
C2603 C2600 1.403 . S
C2603 C2604 1.524 . S
C2603 C2607 1.400 . S
C2604 H2589 0.960 . S
C2604 H2590 0.960 . S
C2604 H2591 0.960 . S
C2604 C2603 1.524 . S
C2605 C2602 1.403 . S
C2605 C2606 1.392 . S
C2605 C2609 1.495 . S
C2606 C2605 1.392 . S
C2606 C2607 1.385 . S
C2606 C2608 1.478 . S
C2607 H2601 0.930 . S
C2607 C2603 1.400 . S
C2607 C2606 1.385 . S
C2608 C2606 1.478 . S
C2608 C2610 1.381 . S
C2608 C2614 1.383 . S
C2609 C2605 1.495 . S
C2609 H2615 0.959 . S
C2609 H2616 0.961 . S
C2609 H2617 0.960 . S
C2610 C2608 1.381 . S
C2610 C2611 1.394 . S
C2610 H2618 0.930 . S
C2611 C2610 1.394 . S
C2611 C2612 1.383 . S
C2611 H2619 0.929 . S
C2612 C2611 1.383 . S
C2612 C2613 1.377 . S
C2613 H2597 0.930 . S
C2613 C2612 1.377 . S
C2613 C2614 1.379 . S
C2614 H2598 0.931 . S
C2614 C2608 1.383 . S
C2614 C2613 1.379 . S
H2615 C2609 0.959 . S
H2616 C2609 0.961 . S
H2617 C2609 0.960 . S
H2618 C2610 0.930 . S
H2619 C2611 0.929 . S
H2620 C2628 0.929 . S
H2621 C2630 0.930 . S
H2622 C2632 0.930 . S
H2623 C2635 0.929 . S
H2624 C2638 0.930 . S
H2625 C2640 0.960 . S
H2626 C2640 0.960 . S
H2627 C2640 0.960 . S
C2628 H2620 0.929 . S
C2628 C2629 1.377 . S
C2628 C2630 1.384 . S
C2629 C2628 1.377 . S
C2629 C2635 1.390 . S
C2630 H2621 0.930 . S
C2630 C2628 1.384 . S
C2630 C2631 1.372 . S
C2631 C2630 1.372 . S
C2631 C2632 1.400 . S
C2631 C2636 1.490 . S
C2632 H2622 0.930 . S
C2632 C2631 1.400 . S
C2632 C2635 1.386 . S
H2633 C2649 0.930 . S
H2634 C2650 0.931 . S
C2635 H2623 0.929 . S
C2635 C2629 1.390 . S
C2635 C2632 1.386 . S
C2636 C2631 1.490 . S
C2636 C2638 1.395 . S
C2636 C2639 1.403 . S
H2637 C2643 0.930 . S
C2638 H2624 0.930 . S
C2638 C2636 1.395 . S
C2638 C2641 1.403 . S
C2639 C2636 1.403 . S
C2639 C2640 1.524 . S
C2639 C2643 1.400 . S
C2640 H2625 0.960 . S
C2640 H2626 0.960 . S
C2640 H2627 0.960 . S
C2640 C2639 1.524 . S
C2641 C2638 1.403 . S
C2641 C2642 1.392 . S
C2641 C2645 1.495 . S
C2642 C2641 1.392 . S
C2642 C2643 1.385 . S
C2642 C2644 1.478 . S
C2643 H2637 0.930 . S
C2643 C2639 1.400 . S
C2643 C2642 1.385 . S
C2644 C2642 1.478 . S
C2644 C2646 1.381 . S
C2644 C2650 1.383 . S
C2645 C2641 1.495 . S
C2645 H2651 0.959 . S
C2645 H2652 0.961 . S
C2645 H2653 0.960 . S
C2646 C2644 1.381 . S
C2646 C2647 1.394 . S
C2646 H2654 0.930 . S
C2647 C2646 1.394 . S
C2647 C2648 1.383 . S
C2647 H2655 0.929 . S
C2648 C2647 1.383 . S
C2648 C2649 1.377 . S
C2649 H2633 0.930 . S
C2649 C2648 1.377 . S
C2649 C2650 1.379 . S
C2650 H2634 0.931 . S
C2650 C2644 1.383 . S
C2650 C2649 1.379 . S
H2651 C2645 0.959 . S
H2652 C2645 0.961 . S
H2653 C2645 0.960 . S
H2654 C2646 0.930 . S
H2655 C2647 0.929 . S
H2656 C2664 0.929 . S
H2657 C2666 0.930 . S
H2658 C2668 0.930 . S
H2659 C2671 0.929 . S
H2660 C2674 0.930 . S
H2661 C2676 0.960 . S
H2662 C2676 0.960 . S
H2663 C2676 0.960 . S
C2664 H2656 0.929 . S
C2664 C2665 1.377 . S
C2664 C2666 1.384 . S
C2665 C2664 1.377 . S
C2665 C2671 1.390 . S
C2666 H2657 0.930 . S
C2666 C2664 1.384 . S
C2666 C2667 1.372 . S
C2667 C2666 1.372 . S
C2667 C2668 1.400 . S
C2667 C2672 1.490 . S
C2668 H2658 0.930 . S
C2668 C2667 1.400 . S
C2668 C2671 1.386 . S
H2669 C2685 0.930 . S
H2670 C2686 0.931 . S
C2671 H2659 0.929 . S
C2671 C2665 1.390 . S
C2671 C2668 1.386 . S
C2672 C2667 1.490 . S
C2672 C2674 1.395 . S
C2672 C2675 1.403 . S
H2673 C2679 0.930 . S
C2674 H2660 0.930 . S
C2674 C2672 1.395 . S
C2674 C2677 1.403 . S
C2675 C2672 1.403 . S
C2675 C2676 1.524 . S
C2675 C2679 1.400 . S
C2676 H2661 0.960 . S
C2676 H2662 0.960 . S
C2676 H2663 0.960 . S
C2676 C2675 1.524 . S
C2677 C2674 1.403 . S
C2677 C2678 1.392 . S
C2677 C2681 1.495 . S
C2678 C2677 1.392 . S
C2678 C2679 1.385 . S
C2678 C2680 1.478 . S
C2679 H2673 0.930 . S
C2679 C2675 1.400 . S
C2679 C2678 1.385 . S
C2680 C2678 1.478 . S
C2680 C2682 1.381 . S
C2680 C2686 1.383 . S
C2681 C2677 1.495 . S
C2681 H2687 0.959 . S
C2681 H2688 0.961 . S
C2681 H2689 0.960 . S
C2682 C2680 1.381 . S
C2682 C2683 1.394 . S
C2682 H2690 0.930 . S
C2683 C2682 1.394 . S
C2683 C2684 1.383 . S
C2683 H2691 0.929 . S
C2684 C2683 1.383 . S
C2684 C2685 1.377 . S
C2685 H2669 0.930 . S
C2685 C2684 1.377 . S
C2685 C2686 1.379 . S
C2686 H2670 0.931 . S
C2686 C2680 1.383 . S
C2686 C2685 1.379 . S
H2687 C2681 0.959 . S
H2688 C2681 0.961 . S
H2689 C2681 0.960 . S
H2690 C2682 0.930 . S
H2691 C2683 0.929 . S
H2692 C2700 0.929 . S
H2693 C2702 0.930 . S
H2694 C2704 0.930 . S
H2695 C2707 0.929 . S
H2696 C2710 0.930 . S
H2697 C2712 0.960 . S
H2698 C2712 0.960 . S
H2699 C2712 0.960 . S
C2700 H2692 0.929 . S
C2700 C2701 1.377 . S
C2700 C2702 1.384 . S
C2701 C2700 1.377 . S
C2701 C2707 1.390 . S
C2702 H2693 0.930 . S
C2702 C2700 1.384 . S
C2702 C2703 1.372 . S
C2703 C2702 1.372 . S
C2703 C2704 1.400 . S
C2703 C2708 1.490 . S
C2704 H2694 0.930 . S
C2704 C2703 1.400 . S
C2704 C2707 1.386 . S
H2705 C2721 0.930 . S
H2706 C2722 0.931 . S
C2707 H2695 0.929 . S
C2707 C2701 1.390 . S
C2707 C2704 1.386 . S
C2708 C2703 1.490 . S
C2708 C2710 1.395 . S
C2708 C2711 1.403 . S
H2709 C2715 0.930 . S
C2710 H2696 0.930 . S
C2710 C2708 1.395 . S
C2710 C2713 1.403 . S
C2711 C2708 1.403 . S
C2711 C2712 1.524 . S
C2711 C2715 1.400 . S
C2712 H2697 0.960 . S
C2712 H2698 0.960 . S
C2712 H2699 0.960 . S
C2712 C2711 1.524 . S
C2713 C2710 1.403 . S
C2713 C2714 1.392 . S
C2713 C2717 1.495 . S
C2714 C2713 1.392 . S
C2714 C2715 1.385 . S
C2714 C2716 1.478 . S
C2715 H2709 0.930 . S
C2715 C2711 1.400 . S
C2715 C2714 1.385 . S
C2716 C2714 1.478 . S
C2716 C2718 1.381 . S
C2716 C2722 1.383 . S
C2717 C2713 1.495 . S
C2717 H2723 0.959 . S
C2717 H2724 0.961 . S
C2717 H2725 0.960 . S
C2718 C2716 1.381 . S
C2718 C2719 1.394 . S
C2718 H2726 0.930 . S
C2719 C2718 1.394 . S
C2719 C2720 1.383 . S
C2719 H2727 0.929 . S
C2720 C2719 1.383 . S
C2720 C2721 1.377 . S
C2721 H2705 0.930 . S
C2721 C2720 1.377 . S
C2721 C2722 1.379 . S
C2722 H2706 0.931 . S
C2722 C2716 1.383 . S
C2722 C2721 1.379 . S
H2723 C2717 0.959 . S
H2724 C2717 0.961 . S
H2725 C2717 0.960 . S
H2726 C2718 0.930 . S
H2727 C2719 0.929 . S
H2728 C2736 0.929 . S
H2729 C2738 0.930 . S
H2730 C2740 0.930 . S
H2731 C2743 0.929 . S
H2732 C2746 0.930 . S
H2733 C2748 0.960 . S
H2734 C2748 0.960 . S
H2735 C2748 0.960 . S
C2736 H2728 0.929 . S
C2736 C2737 1.377 . S
C2736 C2738 1.384 . S
C2737 C2736 1.377 . S
C2737 C2743 1.390 . S
C2738 H2729 0.930 . S
C2738 C2736 1.384 . S
C2738 C2739 1.372 . S
C2739 C2738 1.372 . S
C2739 C2740 1.400 . S
C2739 C2744 1.490 . S
C2740 H2730 0.930 . S
C2740 C2739 1.400 . S
C2740 C2743 1.386 . S
H2741 C2757 0.930 . S
H2742 C2758 0.931 . S
C2743 H2731 0.929 . S
C2743 C2737 1.390 . S
C2743 C2740 1.386 . S
C2744 C2739 1.490 . S
C2744 C2746 1.395 . S
C2744 C2747 1.403 . S
H2745 C2751 0.930 . S
C2746 H2732 0.930 . S
C2746 C2744 1.395 . S
C2746 C2749 1.403 . S
C2747 C2744 1.403 . S
C2747 C2748 1.524 . S
C2747 C2751 1.400 . S
C2748 H2733 0.960 . S
C2748 H2734 0.960 . S
C2748 H2735 0.960 . S
C2748 C2747 1.524 . S
C2749 C2746 1.403 . S
C2749 C2750 1.392 . S
C2749 C2753 1.495 . S
C2750 C2749 1.392 . S
C2750 C2751 1.385 . S
C2750 C2752 1.478 . S
C2751 H2745 0.930 . S
C2751 C2747 1.400 . S
C2751 C2750 1.385 . S
C2752 C2750 1.478 . S
C2752 C2754 1.381 . S
C2752 C2758 1.383 . S
C2753 C2749 1.495 . S
C2753 H2759 0.959 . S
C2753 H2760 0.961 . S
C2753 H2761 0.960 . S
C2754 C2752 1.381 . S
C2754 C2755 1.394 . S
C2754 H2762 0.930 . S
C2755 C2754 1.394 . S
C2755 C2756 1.383 . S
C2755 H2763 0.929 . S
C2756 C2755 1.383 . S
C2756 C2757 1.377 . S
C2757 H2741 0.930 . S
C2757 C2756 1.377 . S
C2757 C2758 1.379 . S
C2758 H2742 0.931 . S
C2758 C2752 1.383 . S
C2758 C2757 1.379 . S
H2759 C2753 0.959 . S
H2760 C2753 0.961 . S
H2761 C2753 0.960 . S
H2762 C2754 0.930 . S
H2763 C2755 0.929 . S
H2764 C2772 0.929 . S
H2765 C2774 0.930 . S
H2766 C2776 0.930 . S
H2767 C2779 0.929 . S
H2768 C2782 0.930 . S
H2769 C2784 0.960 . S
H2770 C2784 0.960 . S
H2771 C2784 0.960 . S
C2772 H2764 0.929 . S
C2772 C2773 1.377 . S
C2772 C2774 1.384 . S
C2773 C2772 1.377 . S
C2773 C2779 1.390 . S
C2774 H2765 0.930 . S
C2774 C2772 1.384 . S
C2774 C2775 1.372 . S
C2775 C2774 1.372 . S
C2775 C2776 1.400 . S
C2775 C2780 1.490 . S
C2776 H2766 0.930 . S
C2776 C2775 1.400 . S
C2776 C2779 1.386 . S
H2777 C2793 0.930 . S
H2778 C2794 0.931 . S
C2779 H2767 0.929 . S
C2779 C2773 1.390 . S
C2779 C2776 1.386 . S
C2780 C2775 1.490 . S
C2780 C2782 1.395 . S
C2780 C2783 1.403 . S
H2781 C2787 0.930 . S
C2782 H2768 0.930 . S
C2782 C2780 1.395 . S
C2782 C2785 1.403 . S
C2783 C2780 1.403 . S
C2783 C2784 1.524 . S
C2783 C2787 1.400 . S
C2784 H2769 0.960 . S
C2784 H2770 0.960 . S
C2784 H2771 0.960 . S
C2784 C2783 1.524 . S
C2785 C2782 1.403 . S
C2785 C2786 1.392 . S
C2785 C2789 1.495 . S
C2786 C2785 1.392 . S
C2786 C2787 1.385 . S
C2786 C2788 1.478 . S
C2787 H2781 0.930 . S
C2787 C2783 1.400 . S
C2787 C2786 1.385 . S
C2788 C2786 1.478 . S
C2788 C2790 1.381 . S
C2788 C2794 1.383 . S
C2789 C2785 1.495 . S
C2789 H2795 0.959 . S
C2789 H2796 0.961 . S
C2789 H2797 0.960 . S
C2790 C2788 1.381 . S
C2790 C2791 1.394 . S
C2790 H2798 0.930 . S
C2791 C2790 1.394 . S
C2791 C2792 1.383 . S
C2791 H2799 0.929 . S
C2792 C2791 1.383 . S
C2792 C2793 1.377 . S
C2793 H2777 0.930 . S
C2793 C2792 1.377 . S
C2793 C2794 1.379 . S
C2794 H2778 0.931 . S
C2794 C2788 1.383 . S
C2794 C2793 1.379 . S
H2795 C2789 0.959 . S
H2796 C2789 0.961 . S
H2797 C2789 0.960 . S
H2798 C2790 0.930 . S
H2799 C2791 0.929 . S
H2800 C2808 0.929 . S
H2801 C2810 0.930 . S
H2802 C2812 0.930 . S
H2803 C2815 0.929 . S
H2804 C2818 0.930 . S
H2805 C2820 0.960 . S
H2806 C2820 0.960 . S
H2807 C2820 0.960 . S
C2808 H2800 0.929 . S
C2808 C2809 1.377 . S
C2808 C2810 1.384 . S
C2809 C2808 1.377 . S
C2809 C2815 1.390 . S
C2810 H2801 0.930 . S
C2810 C2808 1.384 . S
C2810 C2811 1.372 . S
C2811 C2810 1.372 . S
C2811 C2812 1.400 . S
C2811 C2816 1.490 . S
C2812 H2802 0.930 . S
C2812 C2811 1.400 . S
C2812 C2815 1.386 . S
H2813 C2829 0.930 . S
H2814 C2830 0.931 . S
C2815 H2803 0.929 . S
C2815 C2809 1.390 . S
C2815 C2812 1.386 . S
C2816 C2811 1.490 . S
C2816 C2818 1.395 . S
C2816 C2819 1.403 . S
H2817 C2823 0.930 . S
C2818 H2804 0.930 . S
C2818 C2816 1.395 . S
C2818 C2821 1.403 . S
C2819 C2816 1.403 . S
C2819 C2820 1.524 . S
C2819 C2823 1.400 . S
C2820 H2805 0.960 . S
C2820 H2806 0.960 . S
C2820 H2807 0.960 . S
C2820 C2819 1.524 . S
C2821 C2818 1.403 . S
C2821 C2822 1.392 . S
C2821 C2825 1.495 . S
C2822 C2821 1.392 . S
C2822 C2823 1.385 . S
C2822 C2824 1.478 . S
C2823 H2817 0.930 . S
C2823 C2819 1.400 . S
C2823 C2822 1.385 . S
C2824 C2822 1.478 . S
C2824 C2826 1.381 . S
C2824 C2830 1.383 . S
C2825 C2821 1.495 . S
C2825 H2831 0.959 . S
C2825 H2832 0.961 . S
C2825 H2833 0.960 . S
C2826 C2824 1.381 . S
C2826 C2827 1.394 . S
C2826 H2834 0.930 . S
C2827 C2826 1.394 . S
C2827 C2828 1.383 . S
C2827 H2835 0.929 . S
C2828 C2827 1.383 . S
C2828 C2829 1.377 . S
C2829 H2813 0.930 . S
C2829 C2828 1.377 . S
C2829 C2830 1.379 . S
C2830 H2814 0.931 . S
C2830 C2824 1.383 . S
C2830 C2829 1.379 . S
H2831 C2825 0.959 . S
H2832 C2825 0.961 . S
H2833 C2825 0.960 . S
H2834 C2826 0.930 . S
H2835 C2827 0.929 . S
H2836 C2844 0.929 . S
H2837 C2846 0.930 . S
H2838 C2848 0.930 . S
H2839 C2851 0.929 . S
H2840 C2854 0.930 . S
H2841 C2856 0.960 . S
H2842 C2856 0.960 . S
H2843 C2856 0.960 . S
C2844 H2836 0.929 . S
C2844 C2845 1.377 . S
C2844 C2846 1.384 . S
C2845 C2844 1.377 . S
C2845 C2851 1.390 . S
C2846 H2837 0.930 . S
C2846 C2844 1.384 . S
C2846 C2847 1.372 . S
C2847 C2846 1.372 . S
C2847 C2848 1.400 . S
C2847 C2852 1.490 . S
C2848 H2838 0.930 . S
C2848 C2847 1.400 . S
C2848 C2851 1.386 . S
H2849 C2865 0.930 . S
H2850 C2866 0.931 . S
C2851 H2839 0.929 . S
C2851 C2845 1.390 . S
C2851 C2848 1.386 . S
C2852 C2847 1.490 . S
C2852 C2854 1.395 . S
C2852 C2855 1.403 . S
H2853 C2859 0.930 . S
C2854 H2840 0.930 . S
C2854 C2852 1.395 . S
C2854 C2857 1.403 . S
C2855 C2852 1.403 . S
C2855 C2856 1.524 . S
C2855 C2859 1.400 . S
C2856 H2841 0.960 . S
C2856 H2842 0.960 . S
C2856 H2843 0.960 . S
C2856 C2855 1.524 . S
C2857 C2854 1.403 . S
C2857 C2858 1.392 . S
C2857 C2861 1.495 . S
C2858 C2857 1.392 . S
C2858 C2859 1.385 . S
C2858 C2860 1.478 . S
C2859 H2853 0.930 . S
C2859 C2855 1.400 . S
C2859 C2858 1.385 . S
C2860 C2858 1.478 . S
C2860 C2862 1.381 . S
C2860 C2866 1.383 . S
C2861 C2857 1.495 . S
C2861 H2867 0.959 . S
C2861 H2868 0.961 . S
C2861 H2869 0.960 . S
C2862 C2860 1.381 . S
C2862 C2863 1.394 . S
C2862 H2870 0.930 . S
C2863 C2862 1.394 . S
C2863 C2864 1.383 . S
C2863 H2871 0.929 . S
C2864 C2863 1.383 . S
C2864 C2865 1.377 . S
C2865 H2849 0.930 . S
C2865 C2864 1.377 . S
C2865 C2866 1.379 . S
C2866 H2850 0.931 . S
C2866 C2860 1.383 . S
C2866 C2865 1.379 . S
H2867 C2861 0.959 . S
H2868 C2861 0.961 . S
H2869 C2861 0.960 . S
H2870 C2862 0.930 . S
H2871 C2863 0.929 . S
H2872 C2880 0.929 . S
H2873 C2882 0.930 . S
H2874 C2884 0.930 . S
H2875 C2887 0.929 . S
H2876 C2890 0.930 . S
H2877 C2892 0.960 . S
H2878 C2892 0.960 . S
H2879 C2892 0.960 . S
C2880 H2872 0.929 . S
C2880 C2881 1.377 . S
C2880 C2882 1.384 . S
C2881 C2880 1.377 . S
C2881 C2887 1.390 . S
C2882 H2873 0.930 . S
C2882 C2880 1.384 . S
C2882 C2883 1.372 . S
C2883 C2882 1.372 . S
C2883 C2884 1.400 . S
C2883 C2888 1.490 . S
C2884 H2874 0.930 . S
C2884 C2883 1.400 . S
C2884 C2887 1.386 . S
H2885 C2901 0.930 . S
H2886 C2902 0.931 . S
C2887 H2875 0.929 . S
C2887 C2881 1.390 . S
C2887 C2884 1.386 . S
C2888 C2883 1.490 . S
C2888 C2890 1.395 . S
C2888 C2891 1.403 . S
H2889 C2895 0.930 . S
C2890 H2876 0.930 . S
C2890 C2888 1.395 . S
C2890 C2893 1.403 . S
C2891 C2888 1.403 . S
C2891 C2892 1.524 . S
C2891 C2895 1.400 . S
C2892 H2877 0.960 . S
C2892 H2878 0.960 . S
C2892 H2879 0.960 . S
C2892 C2891 1.524 . S
C2893 C2890 1.403 . S
C2893 C2894 1.392 . S
C2893 C2897 1.495 . S
C2894 C2893 1.392 . S
C2894 C2895 1.385 . S
C2894 C2896 1.478 . S
C2895 H2889 0.930 . S
C2895 C2891 1.400 . S
C2895 C2894 1.385 . S
C2896 C2894 1.478 . S
C2896 C2898 1.381 . S
C2896 C2902 1.383 . S
C2897 C2893 1.495 . S
C2897 H2903 0.959 . S
C2897 H2904 0.961 . S
C2897 H2905 0.960 . S
C2898 C2896 1.381 . S
C2898 C2899 1.394 . S
C2898 H2906 0.930 . S
C2899 C2898 1.394 . S
C2899 C2900 1.383 . S
C2899 H2907 0.929 . S
C2900 C2899 1.383 . S
C2900 C2901 1.377 . S
C2901 H2885 0.930 . S
C2901 C2900 1.377 . S
C2901 C2902 1.379 . S
C2902 H2886 0.931 . S
C2902 C2896 1.383 . S
C2902 C2901 1.379 . S
H2903 C2897 0.959 . S
H2904 C2897 0.961 . S
H2905 C2897 0.960 . S
H2906 C2898 0.930 . S
H2907 C2899 0.929 . S
H2908 C2916 0.929 . S
H2909 C2918 0.930 . S
H2910 C2920 0.930 . S
H2911 C2923 0.929 . S
H2912 C2926 0.930 . S
H2913 C2928 0.960 . S
H2914 C2928 0.960 . S
H2915 C2928 0.960 . S
C2916 H2908 0.929 . S
C2916 C2917 1.377 . S
C2916 C2918 1.384 . S
C2917 C2916 1.377 . S
C2917 C2923 1.390 . S
C2918 H2909 0.930 . S
C2918 C2916 1.384 . S
C2918 C2919 1.372 . S
C2919 C2918 1.372 . S
C2919 C2920 1.400 . S
C2919 C2924 1.490 . S
C2920 H2910 0.930 . S
C2920 C2919 1.400 . S
C2920 C2923 1.386 . S
H2921 C2937 0.930 . S
H2922 C2938 0.931 . S
C2923 H2911 0.929 . S
C2923 C2917 1.390 . S
C2923 C2920 1.386 . S
C2924 C2919 1.490 . S
C2924 C2926 1.395 . S
C2924 C2927 1.403 . S
H2925 C2931 0.930 . S
C2926 H2912 0.930 . S
C2926 C2924 1.395 . S
C2926 C2929 1.403 . S
C2927 C2924 1.403 . S
C2927 C2928 1.524 . S
C2927 C2931 1.400 . S
C2928 H2913 0.960 . S
C2928 H2914 0.960 . S
C2928 H2915 0.960 . S
C2928 C2927 1.524 . S
C2929 C2926 1.403 . S
C2929 C2930 1.392 . S
C2929 C2933 1.495 . S
C2930 C2929 1.392 . S
C2930 C2931 1.385 . S
C2930 C2932 1.478 . S
C2931 H2925 0.930 . S
C2931 C2927 1.400 . S
C2931 C2930 1.385 . S
C2932 C2930 1.478 . S
C2932 C2934 1.381 . S
C2932 C2938 1.383 . S
C2933 C2929 1.495 . S
C2933 H2939 0.959 . S
C2933 H2940 0.961 . S
C2933 H2941 0.960 . S
C2934 C2932 1.381 . S
C2934 C2935 1.394 . S
C2934 H2942 0.930 . S
C2935 C2934 1.394 . S
C2935 C2936 1.383 . S
C2935 H2943 0.929 . S
C2936 C2935 1.383 . S
C2936 C2937 1.377 . S
C2937 H2921 0.930 . S
C2937 C2936 1.377 . S
C2937 C2938 1.379 . S
C2938 H2922 0.931 . S
C2938 C2932 1.383 . S
C2938 C2937 1.379 . S
H2939 C2933 0.959 . S
H2940 C2933 0.961 . S
H2941 C2933 0.960 . S
H2942 C2934 0.930 . S
H2943 C2935 0.929 . S
H2944 C2952 0.929 . S
H2945 C2954 0.930 . S
H2946 C2956 0.930 . S
H2947 C2959 0.929 . S
H2948 C2962 0.930 . S
H2949 C2964 0.960 . S
H2950 C2964 0.960 . S
H2951 C2964 0.960 . S
C2952 H2944 0.929 . S
C2952 C2953 1.377 . S
C2952 C2954 1.384 . S
C2953 C2952 1.377 . S
C2953 C2959 1.390 . S
C2954 H2945 0.930 . S
C2954 C2952 1.384 . S
C2954 C2955 1.372 . S
C2955 C2954 1.372 . S
C2955 C2956 1.400 . S
C2955 C2960 1.490 . S
C2956 H2946 0.930 . S
C2956 C2955 1.400 . S
C2956 C2959 1.386 . S
H2957 C2973 0.930 . S
H2958 C2974 0.931 . S
C2959 H2947 0.929 . S
C2959 C2953 1.390 . S
C2959 C2956 1.386 . S
C2960 C2955 1.490 . S
C2960 C2962 1.395 . S
C2960 C2963 1.403 . S
H2961 C2967 0.930 . S
C2962 H2948 0.930 . S
C2962 C2960 1.395 . S
C2962 C2965 1.403 . S
C2963 C2960 1.403 . S
C2963 C2964 1.524 . S
C2963 C2967 1.400 . S
C2964 H2949 0.960 . S
C2964 H2950 0.960 . S
C2964 H2951 0.960 . S
C2964 C2963 1.524 . S
C2965 C2962 1.403 . S
C2965 C2966 1.392 . S
C2965 C2969 1.495 . S
C2966 C2965 1.392 . S
C2966 C2967 1.385 . S
C2966 C2968 1.478 . S
C2967 H2961 0.930 . S
C2967 C2963 1.400 . S
C2967 C2966 1.385 . S
C2968 C2966 1.478 . S
C2968 C2970 1.381 . S
C2968 C2974 1.383 . S
C2969 C2965 1.495 . S
C2969 H2975 0.959 . S
C2969 H2976 0.961 . S
C2969 H2977 0.960 . S
C2970 C2968 1.381 . S
C2970 C2971 1.394 . S
C2970 H2978 0.930 . S
C2971 C2970 1.394 . S
C2971 C2972 1.383 . S
C2971 H2979 0.929 . S
C2972 C2971 1.383 . S
C2972 C2973 1.377 . S
C2973 H2957 0.930 . S
C2973 C2972 1.377 . S
C2973 C2974 1.379 . S
C2974 H2958 0.931 . S
C2974 C2968 1.383 . S
C2974 C2973 1.379 . S
H2975 C2969 0.959 . S
H2976 C2969 0.961 . S
H2977 C2969 0.960 . S
H2978 C2970 0.930 . S
H2979 C2971 0.929 . S
H2980 C2988 0.929 . S
H2981 C2990 0.930 . S
H2982 C2992 0.930 . S
H2983 C2995 0.929 . S
H2984 C2998 0.930 . S
H2985 C3000 0.960 . S
H2986 C3000 0.960 . S
H2987 C3000 0.960 . S
C2988 H2980 0.929 . S
C2988 C2989 1.377 . S
C2988 C2990 1.384 . S
C2989 C2988 1.377 . S
C2989 C2995 1.390 . S
C2990 H2981 0.930 . S
C2990 C2988 1.384 . S
C2990 C2991 1.372 . S
C2991 C2990 1.372 . S
C2991 C2992 1.400 . S
C2991 C2996 1.490 . S
C2992 H2982 0.930 . S
C2992 C2991 1.400 . S
C2992 C2995 1.386 . S
H2993 C3009 0.930 . S
H2994 C3010 0.931 . S
C2995 H2983 0.929 . S
C2995 C2989 1.390 . S
C2995 C2992 1.386 . S
C2996 C2991 1.490 . S
C2996 C2998 1.395 . S
C2996 C2999 1.403 . S
H2997 C3003 0.930 . S
C2998 H2984 0.930 . S
C2998 C2996 1.395 . S
C2998 C3001 1.403 . S
C2999 C2996 1.403 . S
C2999 C3000 1.524 . S
C2999 C3003 1.400 . S
C3000 H2985 0.960 . S
C3000 H2986 0.960 . S
C3000 H2987 0.960 . S
C3000 C2999 1.524 . S
C3001 C2998 1.403 . S
C3001 C3002 1.392 . S
C3001 C3005 1.495 . S
C3002 C3001 1.392 . S
C3002 C3003 1.385 . S
C3002 C3004 1.478 . S
C3003 H2997 0.930 . S
C3003 C2999 1.400 . S
C3003 C3002 1.385 . S
C3004 C3002 1.478 . S
C3004 C3006 1.381 . S
C3004 C3010 1.383 . S
C3005 C3001 1.495 . S
C3005 H3011 0.959 . S
C3005 H3012 0.961 . S
C3005 H3013 0.960 . S
C3006 C3004 1.381 . S
C3006 C3007 1.394 . S
C3006 H3014 0.930 . S
C3007 C3006 1.394 . S
C3007 C3008 1.383 . S
C3007 H3015 0.929 . S
C3008 C3007 1.383 . S
C3008 C3009 1.377 . S
C3009 H2993 0.930 . S
C3009 C3008 1.377 . S
C3009 C3010 1.379 . S
C3010 H2994 0.931 . S
C3010 C3004 1.383 . S
C3010 C3009 1.379 . S
H3011 C3005 0.959 . S
H3012 C3005 0.961 . S
H3013 C3005 0.960 . S
H3014 C3006 0.930 . S
H3015 C3007 0.929 . S
H3016 C3024 0.929 . S
H3017 C3026 0.930 . S
H3018 C3028 0.930 . S
H3019 C3031 0.929 . S
H3020 C3034 0.930 . S
H3021 C3036 0.960 . S
H3022 C3036 0.960 . S
H3023 C3036 0.960 . S
C3024 H3016 0.929 . S
C3024 C3025 1.377 . S
C3024 C3026 1.384 . S
C3025 C3024 1.377 . S
C3025 C3031 1.390 . S
C3026 H3017 0.930 . S
C3026 C3024 1.384 . S
C3026 C3027 1.372 . S
C3027 C3026 1.372 . S
C3027 C3028 1.400 . S
C3027 C3032 1.490 . S
C3028 H3018 0.930 . S
C3028 C3027 1.400 . S
C3028 C3031 1.386 . S
H3029 C3045 0.930 . S
H3030 C3046 0.931 . S
C3031 H3019 0.929 . S
C3031 C3025 1.390 . S
C3031 C3028 1.386 . S
C3032 C3027 1.490 . S
C3032 C3034 1.395 . S
C3032 C3035 1.403 . S
H3033 C3039 0.930 . S
C3034 H3020 0.930 . S
C3034 C3032 1.395 . S
C3034 C3037 1.403 . S
C3035 C3032 1.403 . S
C3035 C3036 1.524 . S
C3035 C3039 1.400 . S
C3036 H3021 0.960 . S
C3036 H3022 0.960 . S
C3036 H3023 0.960 . S
C3036 C3035 1.524 . S
C3037 C3034 1.403 . S
C3037 C3038 1.392 . S
C3037 C3041 1.495 . S
C3038 C3037 1.392 . S
C3038 C3039 1.385 . S
C3038 C3040 1.478 . S
C3039 H3033 0.930 . S
C3039 C3035 1.400 . S
C3039 C3038 1.385 . S
C3040 C3038 1.478 . S
C3040 C3042 1.381 . S
C3040 C3046 1.383 . S
C3041 C3037 1.495 . S
C3041 H3047 0.959 . S
C3041 H3048 0.961 . S
C3041 H3049 0.960 . S
C3042 C3040 1.381 . S
C3042 C3043 1.394 . S
C3042 H3050 0.930 . S
C3043 C3042 1.394 . S
C3043 C3044 1.383 . S
C3043 H3051 0.929 . S
C3044 C3043 1.383 . S
C3044 C3045 1.377 . S
C3045 H3029 0.930 . S
C3045 C3044 1.377 . S
C3045 C3046 1.379 . S
C3046 H3030 0.931 . S
C3046 C3040 1.383 . S
C3046 C3045 1.379 . S
H3047 C3041 0.959 . S
H3048 C3041 0.961 . S
H3049 C3041 0.960 . S
H3050 C3042 0.930 . S
H3051 C3043 0.929 . S
H3052 C3060 0.929 . S
H3053 C3062 0.930 . S
H3054 C3064 0.930 . S
H3055 C3067 0.929 . S
H3056 C3070 0.930 . S
H3057 C3072 0.960 . S
H3058 C3072 0.960 . S
H3059 C3072 0.960 . S
C3060 H3052 0.929 . S
C3060 C3061 1.377 . S
C3060 C3062 1.384 . S
C3061 C3060 1.377 . S
C3061 C3067 1.390 . S
C3062 H3053 0.930 . S
C3062 C3060 1.384 . S
C3062 C3063 1.372 . S
C3063 C3062 1.372 . S
C3063 C3064 1.400 . S
C3063 C3068 1.490 . S
C3064 H3054 0.930 . S
C3064 C3063 1.400 . S
C3064 C3067 1.386 . S
H3065 C3081 0.930 . S
H3066 C3082 0.931 . S
C3067 H3055 0.929 . S
C3067 C3061 1.390 . S
C3067 C3064 1.386 . S
C3068 C3063 1.490 . S
C3068 C3070 1.395 . S
C3068 C3071 1.403 . S
H3069 C3075 0.930 . S
C3070 H3056 0.930 . S
C3070 C3068 1.395 . S
C3070 C3073 1.403 . S
C3071 C3068 1.403 . S
C3071 C3072 1.524 . S
C3071 C3075 1.400 . S
C3072 H3057 0.960 . S
C3072 H3058 0.960 . S
C3072 H3059 0.960 . S
C3072 C3071 1.524 . S
C3073 C3070 1.403 . S
C3073 C3074 1.392 . S
C3073 C3077 1.495 . S
C3074 C3073 1.392 . S
C3074 C3075 1.385 . S
C3074 C3076 1.478 . S
C3075 H3069 0.930 . S
C3075 C3071 1.400 . S
C3075 C3074 1.385 . S
C3076 C3074 1.478 . S
C3076 C3078 1.381 . S
C3076 C3082 1.383 . S
C3077 C3073 1.495 . S
C3077 H3083 0.959 . S
C3077 H3084 0.961 . S
C3077 H3085 0.960 . S
C3078 C3076 1.381 . S
C3078 C3079 1.394 . S
C3078 H3086 0.930 . S
C3079 C3078 1.394 . S
C3079 C3080 1.383 . S
C3079 H3087 0.929 . S
C3080 C3079 1.383 . S
C3080 C3081 1.377 . S
C3081 H3065 0.930 . S
C3081 C3080 1.377 . S
C3081 C3082 1.379 . S
C3082 H3066 0.931 . S
C3082 C3076 1.383 . S
C3082 C3081 1.379 . S
H3083 C3077 0.959 . S
H3084 C3077 0.961 . S
H3085 C3077 0.960 . S
H3086 C3078 0.930 . S
H3087 C3079 0.929 . S
H3088 C3096 0.929 . S
H3089 C3098 0.930 . S
H3090 C3100 0.930 . S
H3091 C3103 0.929 . S
H3092 C3106 0.930 . S
H3093 C3108 0.960 . S
H3094 C3108 0.960 . S
H3095 C3108 0.960 . S
C3096 H3088 0.929 . S
C3096 C3097 1.377 . S
C3096 C3098 1.384 . S
C3097 C3096 1.377 . S
C3097 C3103 1.390 . S
C3098 H3089 0.930 . S
C3098 C3096 1.384 . S
C3098 C3099 1.372 . S
C3099 C3098 1.372 . S
C3099 C3100 1.400 . S
C3099 C3104 1.490 . S
C3100 H3090 0.930 . S
C3100 C3099 1.400 . S
C3100 C3103 1.386 . S
H3101 C3117 0.930 . S
H3102 C3118 0.931 . S
C3103 H3091 0.929 . S
C3103 C3097 1.390 . S
C3103 C3100 1.386 . S
C3104 C3099 1.490 . S
C3104 C3106 1.395 . S
C3104 C3107 1.403 . S
H3105 C3111 0.930 . S
C3106 H3092 0.930 . S
C3106 C3104 1.395 . S
C3106 C3109 1.403 . S
C3107 C3104 1.403 . S
C3107 C3108 1.524 . S
C3107 C3111 1.400 . S
C3108 H3093 0.960 . S
C3108 H3094 0.960 . S
C3108 H3095 0.960 . S
C3108 C3107 1.524 . S
C3109 C3106 1.403 . S
C3109 C3110 1.392 . S
C3109 C3113 1.495 . S
C3110 C3109 1.392 . S
C3110 C3111 1.385 . S
C3110 C3112 1.478 . S
C3111 H3105 0.930 . S
C3111 C3107 1.400 . S
C3111 C3110 1.385 . S
C3112 C3110 1.478 . S
C3112 C3114 1.381 . S
C3112 C3118 1.383 . S
C3113 C3109 1.495 . S
C3113 H3119 0.959 . S
C3113 H3120 0.961 . S
C3113 H3121 0.960 . S
C3114 C3112 1.381 . S
C3114 C3115 1.394 . S
C3114 H3122 0.930 . S
C3115 C3114 1.394 . S
C3115 C3116 1.383 . S
C3115 H3123 0.929 . S
C3116 C3115 1.383 . S
C3116 C3117 1.377 . S
C3117 H3101 0.930 . S
C3117 C3116 1.377 . S
C3117 C3118 1.379 . S
C3118 H3102 0.931 . S
C3118 C3112 1.383 . S
C3118 C3117 1.379 . S
H3119 C3113 0.959 . S
H3120 C3113 0.961 . S
H3121 C3113 0.960 . S
H3122 C3114 0.930 . S
H3123 C3115 0.929 . S
H3124 C3132 0.929 . S
H3125 C3134 0.930 . S
H3126 C3136 0.930 . S
H3127 C3139 0.929 . S
H3128 C3142 0.930 . S
H3129 C3144 0.960 . S
H3130 C3144 0.960 . S
H3131 C3144 0.960 . S
C3132 H3124 0.929 . S
C3132 C3133 1.377 . S
C3132 C3134 1.384 . S
C3133 C3132 1.377 . S
C3133 C3139 1.390 . S
C3134 H3125 0.930 . S
C3134 C3132 1.384 . S
C3134 C3135 1.372 . S
C3135 C3134 1.372 . S
C3135 C3136 1.400 . S
C3135 C3140 1.490 . S
C3136 H3126 0.930 . S
C3136 C3135 1.400 . S
C3136 C3139 1.386 . S
H3137 C3153 0.930 . S
H3138 C3154 0.931 . S
C3139 H3127 0.929 . S
C3139 C3133 1.390 . S
C3139 C3136 1.386 . S
C3140 C3135 1.490 . S
C3140 C3142 1.395 . S
C3140 C3143 1.403 . S
H3141 C3147 0.930 . S
C3142 H3128 0.930 . S
C3142 C3140 1.395 . S
C3142 C3145 1.403 . S
C3143 C3140 1.403 . S
C3143 C3144 1.524 . S
C3143 C3147 1.400 . S
C3144 H3129 0.960 . S
C3144 H3130 0.960 . S
C3144 H3131 0.960 . S
C3144 C3143 1.524 . S
C3145 C3142 1.403 . S
C3145 C3146 1.392 . S
C3145 C3149 1.495 . S
C3146 C3145 1.392 . S
C3146 C3147 1.385 . S
C3146 C3148 1.478 . S
C3147 H3141 0.930 . S
C3147 C3143 1.400 . S
C3147 C3146 1.385 . S
C3148 C3146 1.478 . S
C3148 C3150 1.381 . S
C3148 C3154 1.383 . S
C3149 C3145 1.495 . S
C3149 H3155 0.959 . S
C3149 H3156 0.961 . S
C3149 H3157 0.960 . S
C3150 C3148 1.381 . S
C3150 C3151 1.394 . S
C3150 H3158 0.930 . S
C3151 C3150 1.394 . S
C3151 C3152 1.383 . S
C3151 H3159 0.929 . S
C3152 C3151 1.383 . S
C3152 C3153 1.377 . S
C3153 H3137 0.930 . S
C3153 C3152 1.377 . S
C3153 C3154 1.379 . S
C3154 H3138 0.931 . S
C3154 C3148 1.383 . S
C3154 C3153 1.379 . S
H3155 C3149 0.959 . S
H3156 C3149 0.961 . S
H3157 C3149 0.960 . S
H3158 C3150 0.930 . S
H3159 C3151 0.929 . S
H3160 C3168 0.929 . S
H3161 C3170 0.930 . S
H3162 C3172 0.930 . S
H3163 C3175 0.929 . S
H3164 C3178 0.930 . S
H3165 C3180 0.960 . S
H3166 C3180 0.960 . S
H3167 C3180 0.960 . S
C3168 H3160 0.929 . S
C3168 C3169 1.377 . S
C3168 C3170 1.384 . S
C3169 C3168 1.377 . S
C3169 C3175 1.390 . S
C3170 H3161 0.930 . S
C3170 C3168 1.384 . S
C3170 C3171 1.372 . S
C3171 C3170 1.372 . S
C3171 C3172 1.400 . S
C3171 C3176 1.490 . S
C3172 H3162 0.930 . S
C3172 C3171 1.400 . S
C3172 C3175 1.386 . S
H3173 C3189 0.930 . S
H3174 C3190 0.931 . S
C3175 H3163 0.929 . S
C3175 C3169 1.390 . S
C3175 C3172 1.386 . S
C3176 C3171 1.490 . S
C3176 C3178 1.395 . S
C3176 C3179 1.403 . S
H3177 C3183 0.930 . S
C3178 H3164 0.930 . S
C3178 C3176 1.395 . S
C3178 C3181 1.403 . S
C3179 C3176 1.403 . S
C3179 C3180 1.524 . S
C3179 C3183 1.400 . S
C3180 H3165 0.960 . S
C3180 H3166 0.960 . S
C3180 H3167 0.960 . S
C3180 C3179 1.524 . S
C3181 C3178 1.403 . S
C3181 C3182 1.392 . S
C3181 C3185 1.495 . S
C3182 C3181 1.392 . S
C3182 C3183 1.385 . S
C3182 C3184 1.478 . S
C3183 H3177 0.930 . S
C3183 C3179 1.400 . S
C3183 C3182 1.385 . S
C3184 C3182 1.478 . S
C3184 C3186 1.381 . S
C3184 C3190 1.383 . S
C3185 C3181 1.495 . S
C3185 H3191 0.959 . S
C3185 H3192 0.961 . S
C3185 H3193 0.960 . S
C3186 C3184 1.381 . S
C3186 C3187 1.394 . S
C3186 H3194 0.930 . S
C3187 C3186 1.394 . S
C3187 C3188 1.383 . S
C3187 H3195 0.929 . S
C3188 C3187 1.383 . S
C3188 C3189 1.377 . S
C3189 H3173 0.930 . S
C3189 C3188 1.377 . S
C3189 C3190 1.379 . S
C3190 H3174 0.931 . S
C3190 C3184 1.383 . S
C3190 C3189 1.379 . S
H3191 C3185 0.959 . S
H3192 C3185 0.961 . S
H3193 C3185 0.960 . S
H3194 C3186 0.930 . S
H3195 C3187 0.929 . S
H3196 C3204 0.929 . S
H3197 C3206 0.930 . S
H3198 C3208 0.930 . S
H3199 C3211 0.929 . S
H3200 C3214 0.930 . S
H3201 C3216 0.960 . S
H3202 C3216 0.960 . S
H3203 C3216 0.960 . S
C3204 H3196 0.929 . S
C3204 C3205 1.377 . S
C3204 C3206 1.384 . S
C3205 C3204 1.377 . S
C3205 C3211 1.390 . S
C3206 H3197 0.930 . S
C3206 C3204 1.384 . S
C3206 C3207 1.372 . S
C3207 C3206 1.372 . S
C3207 C3208 1.400 . S
C3207 C3212 1.490 . S
C3208 H3198 0.930 . S
C3208 C3207 1.400 . S
C3208 C3211 1.386 . S
H3209 C3225 0.930 . S
H3210 C3226 0.931 . S
C3211 H3199 0.929 . S
C3211 C3205 1.390 . S
C3211 C3208 1.386 . S
C3212 C3207 1.490 . S
C3212 C3214 1.395 . S
C3212 C3215 1.403 . S
H3213 C3219 0.930 . S
C3214 H3200 0.930 . S
C3214 C3212 1.395 . S
C3214 C3217 1.403 . S
C3215 C3212 1.403 . S
C3215 C3216 1.524 . S
C3215 C3219 1.400 . S
C3216 H3201 0.960 . S
C3216 H3202 0.960 . S
C3216 H3203 0.960 . S
C3216 C3215 1.524 . S
C3217 C3214 1.403 . S
C3217 C3218 1.392 . S
C3217 C3221 1.495 . S
C3218 C3217 1.392 . S
C3218 C3219 1.385 . S
C3218 C3220 1.478 . S
C3219 H3213 0.930 . S
C3219 C3215 1.400 . S
C3219 C3218 1.385 . S
C3220 C3218 1.478 . S
C3220 C3222 1.381 . S
C3220 C3226 1.383 . S
C3221 C3217 1.495 . S
C3221 H3227 0.959 . S
C3221 H3228 0.961 . S
C3221 H3229 0.960 . S
C3222 C3220 1.381 . S
C3222 C3223 1.394 . S
C3222 H3230 0.930 . S
C3223 C3222 1.394 . S
C3223 C3224 1.383 . S
C3223 H3231 0.929 . S
C3224 C3223 1.383 . S
C3224 C3225 1.377 . S
C3225 H3209 0.930 . S
C3225 C3224 1.377 . S
C3225 C3226 1.379 . S
C3226 H3210 0.931 . S
C3226 C3220 1.383 . S
C3226 C3225 1.379 . S
H3227 C3221 0.959 . S
H3228 C3221 0.961 . S
H3229 C3221 0.960 . S
H3230 C3222 0.930 . S
H3231 C3223 0.929 . S
H3232 C3240 0.929 . S
H3233 C3242 0.930 . S
H3234 C3244 0.920 1_556 S
H3235 C3247 0.929 . S
H3236 C3250 0.930 . S
H3237 C3252 0.960 1_455 S
H3238 C3252 0.960 . S
H3239 C3252 0.960 . S
C3240 H3232 0.929 . S
C3240 C3241 1.377 . S
C3240 C3242 1.384 . S
C3241 C3240 1.377 . S
C3241 C3247 1.390 . S
C3242 H3233 0.930 . S
C3242 C3240 1.384 . S
C3242 C3243 1.372 . S
C3243 C3242 1.372 . S
C3243 C3244 1.400 . S
C3243 C3248 1.490 . S
C3244 H3234 0.920 1_554 S
C3244 C3243 1.400 . S
C3244 C3247 1.386 . S
H3245 C3261 0.930 . S
H3246 C3262 0.931 . S
C3247 H3235 0.929 . S
C3247 C3241 1.390 . S
C3247 C3244 1.386 . S
C3248 C3243 1.490 . S
C3248 C3250 1.395 1_554 S
C3248 C3251 1.403 . S
H3249 C3255 0.930 . S
C3250 H3236 0.930 . S
C3250 C3248 1.395 1_556 S
C3250 C3253 1.403 1_655 S
C3251 C3248 1.403 . S
C3251 C3252 1.524 . S
C3251 C3255 1.400 1_655 S
C3252 H3237 0.960 1_655 S
C3252 H3238 0.960 . S
C3252 H3239 0.960 . S
C3252 C3251 1.524 . S
C3253 C3250 1.403 1_455 S
C3253 C3254 1.392 . S
C3253 C3257 1.495 . S
C3254 C3253 1.392 . S
C3254 C3255 1.385 1_556 S
C3254 C3256 1.478 . S
C3255 H3249 0.930 . S
C3255 C3251 1.400 1_455 S
C3255 C3254 1.385 1_554 S
C3256 C3254 1.478 . S
C3256 C3258 1.381 . S
C3256 C3262 1.383 . S
C3257 C3253 1.495 . S
C3257 H3263 0.959 1_455 S
C3257 H3264 0.961 . S
C3257 H3265 0.960 . S
C3258 C3256 1.381 . S
C3258 C3259 1.394 . S
C3258 H3266 0.930 1_556 S
C3259 C3258 1.394 . S
C3259 C3260 1.383 . S
C3259 H3267 0.940 . S
C3260 C3259 1.383 . S
C3260 C3261 1.377 . S
C3261 H3245 0.930 . S
C3261 C3260 1.377 . S
C3261 C3262 1.379 . S
C3262 H3246 0.931 . S
C3262 C3256 1.383 . S
C3262 C3261 1.379 . S
H3263 C3257 0.959 1_655 S
H3264 C3257 0.961 . S
H3265 C3257 0.960 . S
H3266 C3258 0.930 1_554 S
H3267 C3259 0.940 . S
H3268 C3276 0.929 . S
H3269 C3278 0.930 . S
H3270 C3280 0.930 . S
H3271 C3283 0.949 . S
H3272 C3286 0.930 . S
H3273 C3288 0.960 . S
H3274 C3288 0.960 . S
H3275 C3288 0.960 . S
C3276 H3268 0.929 . S
C3276 C3277 1.377 . S
C3276 C3278 1.384 . S
C3277 C3276 1.377 . S
C3277 C3283 1.367 1_554 S
C3278 H3269 0.930 . S
C3278 C3276 1.384 . S
C3278 C3279 1.372 . S
C3279 C3278 1.372 . S
C3279 C3280 1.400 1_554 S
C3279 C3284 1.490 . S
C3280 H3270 0.930 . S
C3280 C3279 1.400 1_556 S
C3280 C3283 1.391 . S
H3281 C3297 0.930 . S
H3282 C3298 0.931 . S
C3283 H3271 0.949 . S
C3283 C3277 1.367 1_556 S
C3283 C3280 1.391 . S
C3284 C3279 1.490 . S
C3284 C3286 1.395 1_554 S
C3284 C3287 1.403 . S
H3285 C3291 0.930 . S
C3286 H3272 0.930 . S
C3286 C3284 1.395 1_556 S
C3286 C3289 1.403 . S
C3287 C3284 1.403 . S
C3287 C3288 1.524 . S
C3287 C3291 1.400 . S
C3288 H3273 0.960 . S
C3288 H3274 0.960 . S
C3288 H3275 0.960 . S
C3288 C3287 1.524 . S
C3289 C3286 1.403 . S
C3289 C3290 1.392 . S
C3289 C3293 1.495 . S
C3290 C3289 1.392 . S
C3290 C3291 1.385 1_556 S
C3290 C3292 1.478 . S
C3291 H3285 0.930 . S
C3291 C3287 1.400 . S
C3291 C3290 1.385 1_554 S
C3292 C3290 1.478 . S
C3292 C3294 1.381 1_556 S
C3292 C3298 1.383 . S
C3293 C3289 1.495 . S
C3293 H3299 0.959 . S
C3293 H3300 0.961 . S
C3293 H3301 0.960 . S
C3294 C3292 1.381 1_554 S
C3294 C3295 1.394 . S
C3294 H3302 0.930 . S
C3295 C3294 1.394 . S
C3295 C3296 1.383 1_554 S
C3295 H3303 0.929 . S
C3296 C3295 1.383 1_556 S
C3296 C3297 1.377 . S
C3297 H3281 0.930 . S
C3297 C3296 1.377 . S
C3297 C3298 1.379 . S
C3298 H3282 0.931 . S
C3298 C3292 1.383 . S
C3298 C3297 1.379 . S
H3299 C3293 0.959 . S
H3300 C3293 0.961 . S
H3301 C3293 0.960 . S
H3302 C3294 0.930 . S
H3303 C3295 0.929 . S
H3304 C3312 0.929 . S
H3305 C3314 0.930 . S
H3306 C3316 0.930 . S
H3307 C3319 0.929 . S
H3308 C3322 0.930 . S
H3309 C3324 0.960 . S
H3310 C3324 0.960 . S
H3311 C3324 0.960 . S
C3312 H3304 0.929 . S
C3312 C3313 1.377 . S
C3312 C3314 1.384 . S
C3313 C3312 1.377 . S
C3313 C3319 1.390 . S
C3314 H3305 0.930 . S
C3314 C3312 1.384 . S
C3314 C3315 1.372 . S
C3315 C3314 1.372 . S
C3315 C3316 1.400 . S
C3315 C3320 1.490 . S
C3316 H3306 0.930 . S
C3316 C3315 1.400 . S
C3316 C3319 1.386 . S
H3317 C3333 0.930 . S
H3318 C3334 0.931 . S
C3319 H3307 0.929 . S
C3319 C3313 1.390 . S
C3319 C3316 1.386 . S
C3320 C3315 1.490 . S
C3320 C3322 1.395 . S
C3320 C3323 1.403 . S
H3321 C3327 0.930 . S
C3322 H3308 0.930 . S
C3322 C3320 1.395 . S
C3322 C3325 1.403 1_455 S
C3323 C3320 1.403 . S
C3323 C3324 1.524 . S
C3323 C3327 1.400 1_455 S
C3324 H3309 0.960 . S
C3324 H3310 0.960 . S
C3324 H3311 0.960 . S
C3324 C3323 1.524 . S
C3325 C3322 1.403 1_655 S
C3325 C3326 1.392 . S
C3325 C3329 1.495 . S
C3326 C3325 1.392 . S
C3326 C3327 1.385 . S
C3326 C3328 1.478 . S
C3327 H3321 0.930 . S
C3327 C3323 1.400 1_655 S
C3327 C3326 1.385 . S
C3328 C3326 1.478 . S
C3328 C3330 1.381 . S
C3328 C3334 1.383 . S
C3329 C3325 1.495 . S
C3329 H3335 0.959 . S
C3329 H3336 0.961 . S
C3329 H3337 0.960 . S
C3330 C3328 1.381 . S
C3330 C3331 1.394 . S
C3330 H3338 0.930 . S
C3331 C3330 1.394 . S
C3331 C3332 1.383 . S
C3331 H3339 0.929 . S
C3332 C3331 1.383 . S
C3332 C3333 1.377 . S
C3333 H3317 0.930 . S
C3333 C3332 1.377 . S
C3333 C3334 1.379 . S
C3334 H3318 0.931 . S
C3334 C3328 1.383 . S
C3334 C3333 1.379 . S
H3335 C3329 0.959 . S
H3336 C3329 0.961 . S
H3337 C3329 0.960 . S
H3338 C3330 0.930 . S
H3339 C3331 0.929 . S
H3340 C3348 0.929 . S
H3341 C3350 0.930 . S
H3342 C3352 0.930 . S
H3343 C3355 0.929 . S
H3344 C3358 0.930 . S
H3345 C3360 0.960 . S
H3346 C3360 0.960 . S
H3347 C3360 0.960 . S
C3348 H3340 0.929 . S
C3348 C3349 1.377 . S
C3348 C3350 1.384 . S
C3349 C3348 1.377 . S
C3349 C3355 1.390 . S
C3350 H3341 0.930 . S
C3350 C3348 1.384 . S
C3350 C3351 1.372 . S
C3351 C3350 1.372 . S
C3351 C3352 1.400 . S
C3351 C3356 1.490 . S
C3352 H3342 0.930 . S
C3352 C3351 1.400 . S
C3352 C3355 1.386 . S
H3353 C3369 0.930 . S
H3354 C3370 0.931 . S
C3355 H3343 0.929 . S
C3355 C3349 1.390 . S
C3355 C3352 1.386 . S
C3356 C3351 1.490 . S
C3356 C3358 1.395 . S
C3356 C3359 1.403 . S
H3357 C3363 0.930 . S
C3358 H3344 0.930 . S
C3358 C3356 1.395 . S
C3358 C3361 1.403 . S
C3359 C3356 1.403 . S
C3359 C3360 1.524 . S
C3359 C3363 1.400 . S
C3360 H3345 0.960 . S
C3360 H3346 0.960 . S
C3360 H3347 0.960 . S
C3360 C3359 1.524 . S
C3361 C3358 1.403 . S
C3361 C3362 1.392 . S
C3361 C3365 1.495 . S
C3362 C3361 1.392 . S
C3362 C3363 1.385 . S
C3362 C3364 1.478 . S
C3363 H3357 0.930 . S
C3363 C3359 1.400 . S
C3363 C3362 1.385 . S
C3364 C3362 1.478 . S
C3364 C3366 1.381 . S
C3364 C3370 1.383 . S
C3365 C3361 1.495 . S
C3365 H3371 0.959 . S
C3365 H3372 0.961 . S
C3365 H3373 0.960 . S
C3366 C3364 1.381 . S
C3366 C3367 1.394 . S
C3366 H3374 0.930 . S
C3367 C3366 1.394 . S
C3367 C3368 1.383 . S
C3367 H3375 0.929 . S
C3368 C3367 1.383 . S
C3368 C3369 1.377 . S
C3369 H3353 0.930 . S
C3369 C3368 1.377 . S
C3369 C3370 1.379 . S
C3370 H3354 0.931 . S
C3370 C3364 1.383 . S
C3370 C3369 1.379 . S
H3371 C3365 0.959 . S
H3372 C3365 0.961 . S
H3373 C3365 0.960 . S
H3374 C3366 0.930 . S
H3375 C3367 0.929 . S
H3376 C3384 0.929 . S
H3377 C3386 0.930 . S
H3378 C3388 0.930 . S
H3379 C3391 0.929 . S
H3380 C3394 0.930 . S
H3381 C3396 0.960 . S
H3382 C3396 0.960 . S
H3383 C3396 0.960 . S
C3384 H3376 0.929 . S
C3384 C3385 1.377 . S
C3384 C3386 1.384 . S
C3385 C3384 1.377 . S
C3385 C3391 1.390 . S
C3386 H3377 0.930 . S
C3386 C3384 1.384 . S
C3386 C3387 1.372 . S
C3387 C3386 1.372 . S
C3387 C3388 1.400 . S
C3387 C3392 1.490 . S
C3388 H3378 0.930 . S
C3388 C3387 1.400 . S
C3388 C3391 1.386 . S
H3389 C3405 0.930 . S
H3390 C3406 0.930 . S
C3391 H3379 0.929 . S
C3391 C3385 1.390 . S
C3391 C3388 1.386 . S
C3392 C3387 1.490 . S
C3392 C3394 1.395 . S
C3392 C3395 1.403 1_554 S
H3393 C3399 0.930 . S
C3394 H3380 0.930 . S
C3394 C3392 1.395 . S
C3394 C3397 1.403 . S
C3395 C3392 1.403 1_556 S
C3395 C3396 1.524 . S
C3395 C3399 1.400 . S
C3396 H3381 0.960 . S
C3396 H3382 0.960 . S
C3396 H3383 0.960 . S
C3396 C3395 1.524 . S
C3397 C3394 1.403 . S
C3397 C3398 1.404 . S
C3397 C3401 1.495 . S
C3398 C3397 1.404 . S
C3398 C3399 1.374 1_554 S
C3398 C3400 1.476 1_554 S
C3399 H3393 0.930 . S
C3399 C3395 1.400 . S
C3399 C3398 1.374 1_556 S
C3400 C3398 1.476 1_556 S
C3400 C3402 1.381 . S
C3400 C3406 1.383 1_556 S
C3401 C3397 1.495 . S
C3401 H3407 0.959 . S
C3401 H3408 0.961 . S
C3401 H3409 0.960 . S
C3402 C3400 1.381 . S
C3402 C3403 1.394 . S
C3402 H3410 0.930 . S
C3403 C3402 1.394 . S
C3403 C3404 1.383 . S
C3403 H3411 0.929 . S
C3404 C3403 1.383 . S
C3404 C3405 1.377 . S
C3405 H3389 0.930 . S
C3405 C3404 1.377 . S
C3405 C3406 1.380 1_556 S
C3406 H3390 0.930 . S
C3406 C3400 1.383 1_554 S
C3406 C3405 1.380 1_554 S
H3407 C3401 0.959 . S
H3408 C3401 0.961 . S
H3409 C3401 0.960 . S
H3410 C3402 0.930 . S
H3411 C3403 0.929 . S
H3412 C3420 0.929 . S
H3413 C3422 0.930 . S
H3414 C3424 0.930 . S
H3415 C3427 0.929 . S
H3416 C3430 0.930 . S
H3417 C3432 1.023 . S
H3418 C3432 0.960 . S
H3419 C3432 0.960 . S
C3420 H3412 0.929 . S
C3420 C3421 1.377 . S
C3420 C3422 1.384 . S
C3421 C3420 1.377 . S
C3421 C3427 1.390 . S
C3422 H3413 0.930 . S
C3422 C3420 1.384 . S
C3422 C3423 1.372 . S
C3423 C3422 1.372 . S
C3423 C3424 1.400 . S
C3423 C3428 1.490 . S
C3424 H3414 0.930 . S
C3424 C3423 1.400 . S
C3424 C3427 1.386 . S
H3425 C3441 0.930 . S
H3426 C3442 0.931 . S
C3427 H3415 0.929 . S
C3427 C3421 1.390 . S
C3427 C3424 1.386 . S
C3428 C3423 1.490 . S
C3428 C3430 1.395 . S
C3428 C3431 1.403 . S
H3429 C3435 0.930 . S
C3430 H3416 0.930 . S
C3430 C3428 1.395 . S
C3430 C3433 1.403 1_655 S
C3431 C3428 1.403 . S
C3431 C3432 1.524 . S
C3431 C3435 1.400 1_655 S
C3432 H3417 1.023 . S
C3432 H3418 0.960 . S
C3432 H3419 0.960 . S
C3432 C3431 1.524 . S
C3433 C3430 1.403 1_455 S
C3433 C3434 1.392 . S
C3433 C3437 1.495 . S
C3434 C3433 1.392 . S
C3434 C3435 1.385 . S
C3434 C3436 1.478 . S
C3435 H3429 0.930 . S
C3435 C3431 1.400 1_455 S
C3435 C3434 1.385 . S
C3436 C3434 1.478 . S
C3436 C3438 1.381 . S
C3436 C3442 1.383 . S
C3437 C3433 1.495 . S
C3437 H3443 0.997 . S
C3437 H3444 0.961 . S
C3437 H3445 0.960 . S
C3438 C3436 1.381 . S
C3438 C3439 1.394 . S
C3438 H3446 0.930 . S
C3439 C3438 1.394 . S
C3439 C3440 1.383 . S
C3439 H3447 0.929 . S
C3440 C3439 1.383 . S
C3440 C3441 1.377 . S
C3441 H3425 0.930 . S
C3441 C3440 1.377 . S
C3441 C3442 1.379 . S
C3442 H3426 0.931 . S
C3442 C3436 1.383 . S
C3442 C3441 1.379 . S
H3443 C3437 0.997 . S
H3444 C3437 0.961 . S
H3445 C3437 0.960 . S
H3446 C3438 0.930 . S
H3447 C3439 0.929 . S
H3448 C3456 0.929 . S
H3449 C3458 0.930 . S
H3450 C3460 0.930 . S
H3451 C3463 0.929 . S
H3452 C3466 0.930 . S
H3453 C3468 0.960 . S
H3454 C3468 0.960 . S
H3455 C3468 0.960 . S
C3456 H3448 0.929 . S
C3456 C3457 1.377 . S
C3456 C3458 1.384 . S
C3457 C3456 1.377 . S
C3457 C3463 1.390 . S
C3458 H3449 0.930 . S
C3458 C3456 1.384 . S
C3458 C3459 1.372 . S
C3459 C3458 1.372 . S
C3459 C3460 1.400 . S
C3459 C3464 1.490 . S
C3460 H3450 0.930 . S
C3460 C3459 1.400 . S
C3460 C3463 1.386 . S
H3461 C3477 0.930 . S
H3462 C3478 0.931 . S
C3463 H3451 0.929 . S
C3463 C3457 1.390 . S
C3463 C3460 1.386 . S
C3464 C3459 1.490 . S
C3464 C3466 1.395 . S
C3464 C3467 1.403 . S
H3465 C3471 0.930 . S
C3466 H3452 0.930 . S
C3466 C3464 1.395 . S
C3466 C3469 1.403 . S
C3467 C3464 1.403 . S
C3467 C3468 1.524 . S
C3467 C3471 1.400 . S
C3468 H3453 0.960 . S
C3468 H3454 0.960 . S
C3468 H3455 0.960 . S
C3468 C3467 1.524 . S
C3469 C3466 1.403 . S
C3469 C3470 1.392 . S
C3469 C3473 1.495 . S
C3470 C3469 1.392 . S
C3470 C3471 1.385 . S
C3470 C3472 1.478 . S
C3471 H3465 0.930 . S
C3471 C3467 1.400 . S
C3471 C3470 1.385 . S
C3472 C3470 1.478 . S
C3472 C3474 1.381 . S
C3472 C3478 1.383 . S
C3473 C3469 1.495 . S
C3473 H3479 0.959 . S
C3473 H3480 0.961 . S
C3473 H3481 0.960 . S
C3474 C3472 1.381 . S
C3474 C3475 1.394 . S
C3474 H3482 0.930 . S
C3475 C3474 1.394 . S
C3475 C3476 1.383 . S
C3475 H3483 0.929 . S
C3476 C3475 1.383 . S
C3476 C3477 1.377 . S
C3477 H3461 0.930 . S
C3477 C3476 1.377 . S
C3477 C3478 1.379 . S
C3478 H3462 0.931 . S
C3478 C3472 1.383 . S
C3478 C3477 1.379 . S
H3479 C3473 0.959 . S
H3480 C3473 0.961 . S
H3481 C3473 0.960 . S
H3482 C3474 0.930 . S
H3483 C3475 0.929 . S
H3484 C3492 0.929 . S
H3485 C3494 0.930 1_565 S
H3486 C3496 0.930 . S
H3487 C3499 0.929 . S
H3488 C3502 0.930 . S
H3489 C3504 0.960 1_455 S
H3490 C3504 0.960 . S
H3491 C3504 0.960 . S
C3492 H3484 0.929 . S
C3492 C3493 1.377 . S
C3492 C3494 1.384 . S
C3493 C3492 1.377 . S
C3493 C3499 1.390 . S
C3494 H3485 0.930 1_545 S
C3494 C3492 1.384 . S
C3494 C3495 1.372 . S
C3495 C3494 1.372 . S
C3495 C3496 1.400 . S
C3495 C3500 1.490 . S
C3496 H3486 0.930 . S
C3496 C3495 1.400 . S
C3496 C3499 1.386 . S
H3497 C3513 0.930 . S
H3498 C3514 0.931 1_545 S
C3499 H3487 0.929 . S
C3499 C3493 1.390 . S
C3499 C3496 1.386 . S
C3500 C3495 1.490 . S
C3500 C3502 1.395 1_545 S
C3500 C3503 1.403 . S
H3501 C3507 0.930 . S
C3502 H3488 0.930 . S
C3502 C3500 1.395 1_565 S
C3502 C3505 1.403 1_655 S
C3503 C3500 1.403 . S
C3503 C3504 1.524 . S
C3503 C3507 1.400 1_655 S
C3504 H3489 0.960 1_655 S
C3504 H3490 0.960 . S
C3504 H3491 0.960 . S
C3504 C3503 1.524 . S
C3505 C3502 1.403 1_455 S
C3505 C3506 1.392 . S
C3505 C3509 1.495 . S
C3506 C3505 1.392 . S
C3506 C3507 1.385 1_565 S
C3506 C3508 1.478 . S
C3507 H3501 0.930 . S
C3507 C3503 1.400 1_455 S
C3507 C3506 1.385 1_545 S
C3508 C3506 1.478 . S
C3508 C3510 1.381 . S
C3508 C3514 1.383 . S
C3509 C3505 1.495 . S
C3509 H3515 0.959 1_455 S
C3509 H3516 0.961 . S
C3509 H3517 0.960 . S
C3510 C3508 1.381 . S
C3510 C3511 1.394 . S
C3510 H3518 0.930 . S
C3511 C3510 1.394 . S
C3511 C3512 1.383 . S
C3511 H3519 0.929 . S
C3512 C3511 1.383 . S
C3512 C3513 1.377 . S
C3513 H3497 0.930 . S
C3513 C3512 1.377 . S
C3513 C3514 1.379 . S
C3514 H3498 0.931 1_565 S
C3514 C3508 1.383 . S
C3514 C3513 1.379 . S
H3515 C3509 0.959 1_655 S
H3516 C3509 0.961 . S
H3517 C3509 0.960 . S
H3518 C3510 0.930 . S
H3519 C3511 0.929 . S
H3520 C3528 0.929 . S
H3521 C3530 0.930 . S
H3522 C3532 0.930 . S
H3523 C3535 0.929 . S
H3524 C3538 0.930 . S
H3525 C3540 0.960 . S
H3526 C3540 0.960 . S
H3527 C3540 0.960 . S
C3528 H3520 0.929 . S
C3528 C3529 1.377 . S
C3528 C3530 1.384 . S
C3529 C3528 1.377 . S
C3529 C3535 1.390 . S
C3530 H3521 0.930 . S
C3530 C3528 1.384 . S
C3530 C3531 1.372 . S
C3531 C3530 1.372 . S
C3531 C3532 1.400 . S
C3531 C3536 1.490 . S
C3532 H3522 0.930 . S
C3532 C3531 1.400 . S
C3532 C3535 1.386 . S
H3533 C3549 0.930 . S
H3534 C3550 0.931 . S
C3535 H3523 0.929 . S
C3535 C3529 1.390 . S
C3535 C3532 1.386 . S
C3536 C3531 1.490 . S
C3536 C3538 1.395 . S
C3536 C3539 1.403 . S
H3537 C3543 0.930 . S
C3538 H3524 0.930 . S
C3538 C3536 1.395 . S
C3538 C3541 1.403 . S
C3539 C3536 1.403 . S
C3539 C3540 1.524 . S
C3539 C3543 1.400 . S
C3540 H3525 0.960 . S
C3540 H3526 0.960 . S
C3540 H3527 0.960 . S
C3540 C3539 1.524 . S
C3541 C3538 1.403 . S
C3541 C3542 1.392 . S
C3541 C3545 1.495 . S
C3542 C3541 1.392 . S
C3542 C3543 1.385 . S
C3542 C3544 1.478 . S
C3543 H3537 0.930 . S
C3543 C3539 1.400 . S
C3543 C3542 1.385 . S
C3544 C3542 1.478 . S
C3544 C3546 1.381 . S
C3544 C3550 1.383 . S
C3545 C3541 1.495 . S
C3545 H3551 0.959 . S
C3545 H3552 0.961 . S
C3545 H3553 0.960 . S
C3546 C3544 1.381 . S
C3546 C3547 1.394 . S
C3546 H3554 0.930 . S
C3547 C3546 1.394 . S
C3547 C3548 1.383 . S
C3547 H3555 0.929 . S
C3548 C3547 1.383 . S
C3548 C3549 1.377 . S
C3549 H3533 0.930 . S
C3549 C3548 1.377 . S
C3549 C3550 1.379 . S
C3550 H3534 0.931 . S
C3550 C3544 1.383 . S
C3550 C3549 1.379 . S
H3551 C3545 0.959 . S
H3552 C3545 0.961 . S
H3553 C3545 0.960 . S
H3554 C3546 0.930 . S
H3555 C3547 0.929 . S
H3556 C3564 0.929 . S
H3557 C3566 0.930 1_565 S
H3558 C3568 0.930 . S
H3559 C3571 0.929 . S
H3560 C3574 0.930 . S
H3561 C3576 0.960 . S
H3562 C3576 0.960 . S
H3563 C3576 0.960 . S
C3564 H3556 0.929 . S
C3564 C3565 1.377 . S
C3564 C3566 1.384 . S
C3565 C3564 1.377 . S
C3565 C3571 1.390 . S
C3566 H3557 0.930 1_545 S
C3566 C3564 1.384 . S
C3566 C3567 1.372 . S
C3567 C3566 1.372 . S
C3567 C3568 1.400 . S
C3567 C3572 1.490 . S
C3568 H3558 0.930 . S
C3568 C3567 1.400 . S
C3568 C3571 1.386 . S
H3569 C3585 0.930 . S
H3570 C3586 0.931 1_545 S
C3571 H3559 0.929 . S
C3571 C3565 1.390 . S
C3571 C3568 1.386 . S
C3572 C3567 1.490 . S
C3572 C3574 1.395 1_545 S
C3572 C3575 1.403 . S
H3573 C3579 0.930 . S
C3574 H3560 0.930 . S
C3574 C3572 1.395 1_565 S
C3574 C3577 1.403 . S
C3575 C3572 1.403 . S
C3575 C3576 1.524 . S
C3575 C3579 1.400 . S
C3576 H3561 0.960 . S
C3576 H3562 0.960 . S
C3576 H3563 0.960 . S
C3576 C3575 1.524 . S
C3577 C3574 1.403 . S
C3577 C3578 1.392 . S
C3577 C3581 1.495 . S
C3578 C3577 1.392 . S
C3578 C3579 1.385 1_565 S
C3578 C3580 1.478 . S
C3579 H3573 0.930 . S
C3579 C3575 1.400 . S
C3579 C3578 1.385 1_545 S
C3580 C3578 1.478 . S
C3580 C3582 1.381 . S
C3580 C3586 1.383 . S
C3581 C3577 1.495 . S
C3581 H3587 0.959 . S
C3581 H3588 0.961 . S
C3581 H3589 0.960 . S
C3582 C3580 1.381 . S
C3582 C3583 1.394 . S
C3582 H3590 0.930 . S
C3583 C3582 1.394 . S
C3583 C3584 1.383 . S
C3583 H3591 0.929 . S
C3584 C3583 1.383 . S
C3584 C3585 1.377 . S
C3585 H3569 0.930 . S
C3585 C3584 1.377 . S
C3585 C3586 1.379 . S
C3586 H3570 0.931 1_565 S
C3586 C3580 1.383 . S
C3586 C3585 1.379 . S
H3587 C3581 0.959 . S
H3588 C3581 0.961 . S
H3589 C3581 0.960 . S
H3590 C3582 0.930 . S
H3591 C3583 0.929 . S
H3592 C3600 0.929 . S
H3593 C3602 0.930 . S
H3594 C3604 0.930 . S
H3595 C3607 0.929 . S
H3596 C3610 0.930 . S
H3597 C3612 0.960 . S
H3598 C3612 0.960 . S
H3599 C3612 0.960 . S
C3600 H3592 0.929 . S
C3600 C3601 1.377 . S
C3600 C3602 1.384 . S
C3601 C3600 1.377 . S
C3601 C3607 1.390 . S
C3602 H3593 0.930 . S
C3602 C3600 1.384 . S
C3602 C3603 1.372 . S
C3603 C3602 1.372 . S
C3603 C3604 1.400 . S
C3603 C3608 1.490 . S
C3604 H3594 0.930 . S
C3604 C3603 1.400 . S
C3604 C3607 1.386 . S
H3605 C3621 0.930 . S
H3606 C3622 0.931 . S
C3607 H3595 0.929 . S
C3607 C3601 1.390 . S
C3607 C3604 1.386 . S
C3608 C3603 1.490 . S
C3608 C3610 1.395 . S
C3608 C3611 1.403 . S
H3609 C3615 0.930 . S
C3610 H3596 0.930 . S
C3610 C3608 1.395 . S
C3610 C3613 1.403 . S
C3611 C3608 1.403 . S
C3611 C3612 1.524 . S
C3611 C3615 1.400 . S
C3612 H3597 0.960 . S
C3612 H3598 0.960 . S
C3612 H3599 0.960 . S
C3612 C3611 1.524 . S
C3613 C3610 1.403 . S
C3613 C3614 1.392 . S
C3613 C3617 1.495 . S
C3614 C3613 1.392 . S
C3614 C3615 1.385 . S
C3614 C3616 1.478 . S
C3615 H3609 0.930 . S
C3615 C3611 1.400 . S
C3615 C3614 1.385 . S
C3616 C3614 1.478 . S
C3616 C3618 1.381 . S
C3616 C3622 1.383 . S
C3617 C3613 1.495 . S
C3617 H3623 0.959 . S
C3617 H3624 0.961 . S
C3617 H3625 0.960 . S
C3618 C3616 1.381 . S
C3618 C3619 1.394 . S
C3618 H3626 0.930 . S
C3619 C3618 1.394 . S
C3619 C3620 1.383 . S
C3619 H3627 0.929 . S
C3620 C3619 1.383 . S
C3620 C3621 1.377 . S
C3621 H3605 0.930 . S
C3621 C3620 1.377 . S
C3621 C3622 1.379 . S
C3622 H3606 0.931 . S
C3622 C3616 1.383 . S
C3622 C3621 1.379 . S
H3623 C3617 0.959 . S
H3624 C3617 0.961 . S
H3625 C3617 0.960 . S
H3626 C3618 0.930 . S
H3627 C3619 0.929 . S
H3628 C3636 0.929 . S
H3629 C3638 0.930 . S
H3630 C3640 0.930 . S
H3631 C3643 0.929 . S
H3632 C3646 0.930 . S
H3633 C3648 0.960 . S
H3634 C3648 0.960 . S
H3635 C3648 0.960 . S
C3636 H3628 0.929 . S
C3636 C3637 1.377 . S
C3636 C3638 1.384 . S
C3637 C3636 1.377 . S
C3637 C3643 1.390 . S
C3638 H3629 0.930 . S
C3638 C3636 1.384 . S
C3638 C3639 1.372 . S
C3639 C3638 1.372 . S
C3639 C3640 1.400 . S
C3639 C3644 1.490 . S
C3640 H3630 0.930 . S
C3640 C3639 1.400 . S
C3640 C3643 1.386 . S
H3641 C3657 0.930 . S
H3642 C3658 0.931 . S
C3643 H3631 0.929 . S
C3643 C3637 1.390 . S
C3643 C3640 1.386 . S
C3644 C3639 1.490 . S
C3644 C3646 1.395 . S
C3644 C3647 1.403 1_565 S
H3645 C3651 0.930 . S
C3646 H3632 0.930 . S
C3646 C3644 1.395 . S
C3646 C3649 1.403 . S
C3647 C3644 1.403 1_545 S
C3647 C3648 1.524 . S
C3647 C3651 1.400 . S
C3648 H3633 0.960 . S
C3648 H3634 0.960 . S
C3648 H3635 0.960 . S
C3648 C3647 1.524 . S
C3649 C3646 1.403 . S
C3649 C3650 1.392 1_565 S
C3649 C3653 1.495 . S
C3650 C3649 1.392 1_545 S
C3650 C3651 1.385 . S
C3650 C3652 1.478 . S
C3651 H3645 0.930 . S
C3651 C3647 1.400 . S
C3651 C3650 1.385 . S
C3652 C3650 1.478 . S
C3652 C3654 1.381 . S
C3652 C3658 1.383 . S
C3653 C3649 1.495 . S
C3653 H3659 0.959 . S
C3653 H3660 0.961 . S
C3653 H3661 0.960 . S
C3654 C3652 1.381 . S
C3654 C3655 1.394 . S
C3654 H3662 0.930 . S
C3655 C3654 1.394 . S
C3655 C3656 1.383 . S
C3655 H3663 0.929 . S
C3656 C3655 1.383 . S
C3656 C3657 1.377 . S
C3657 H3641 0.930 . S
C3657 C3656 1.377 . S
C3657 C3658 1.379 . S
C3658 H3642 0.931 . S
C3658 C3652 1.383 . S
C3658 C3657 1.379 . S
H3659 C3653 0.959 . S
H3660 C3653 0.961 . S
H3661 C3653 0.960 . S
H3662 C3654 0.930 . S
H3663 C3655 0.929 . S
H3664 C3672 0.929 . S
H3665 C3674 0.930 . S
H3666 C3676 0.930 . S
H3667 C3679 0.929 . S
H3668 C3682 0.930 . S
H3669 C3684 0.960 . S
H3670 C3684 0.960 . S
H3671 C3684 0.960 . S
C3672 H3664 0.929 . S
C3672 C3673 1.377 . S
C3672 C3674 1.384 . S
C3673 C3672 1.377 . S
C3673 C3679 1.390 . S
C3674 H3665 0.930 . S
C3674 C3672 1.384 . S
C3674 C3675 1.372 . S
C3675 C3674 1.372 . S
C3675 C3676 1.400 . S
C3675 C3680 1.490 . S
C3676 H3666 0.930 . S
C3676 C3675 1.400 . S
C3676 C3679 1.386 . S
H3677 C3693 0.930 . S
H3678 C3694 0.931 . S
C3679 H3667 0.929 . S
C3679 C3673 1.390 . S
C3679 C3676 1.386 . S
C3680 C3675 1.490 . S
C3680 C3682 1.395 . S
C3680 C3683 1.403 . S
H3681 C3687 0.930 . S
C3682 H3668 0.930 . S
C3682 C3680 1.395 . S
C3682 C3685 1.403 . S
C3683 C3680 1.403 . S
C3683 C3684 1.524 . S
C3683 C3687 1.400 . S
C3684 H3669 0.960 . S
C3684 H3670 0.960 . S
C3684 H3671 0.960 . S
C3684 C3683 1.524 . S
C3685 C3682 1.403 . S
C3685 C3686 1.392 . S
C3685 C3689 1.495 . S
C3686 C3685 1.392 . S
C3686 C3687 1.385 . S
C3686 C3688 1.478 . S
C3687 H3681 0.930 . S
C3687 C3683 1.400 . S
C3687 C3686 1.385 . S
C3688 C3686 1.478 . S
C3688 C3690 1.381 . S
C3688 C3694 1.383 . S
C3689 C3685 1.495 . S
C3689 H3695 0.959 . S
C3689 H3696 0.961 . S
C3689 H3697 0.960 . S
C3690 C3688 1.381 . S
C3690 C3691 1.394 . S
C3690 H3698 0.930 . S
C3691 C3690 1.394 . S
C3691 C3692 1.383 . S
C3691 H3699 0.929 . S
C3692 C3691 1.383 . S
C3692 C3693 1.377 . S
C3693 H3677 0.930 . S
C3693 C3692 1.377 . S
C3693 C3694 1.379 . S
C3694 H3678 0.931 . S
C3694 C3688 1.383 . S
C3694 C3693 1.379 . S
H3695 C3689 0.959 . S
H3696 C3689 0.961 . S
H3697 C3689 0.960 . S
H3698 C3690 0.930 . S
H3699 C3691 0.929 . S
H3700 C3708 0.929 . S
H3701 C3710 0.930 . S
H3702 C3712 0.930 . S
H3703 C3715 0.929 . S
H3704 C3718 0.930 . S
H3705 C3720 0.960 . S
H3706 C3720 0.960 . S
H3707 C3720 0.960 . S
C3708 H3700 0.929 . S
C3708 C3709 1.377 . S
C3708 C3710 1.384 . S
C3709 C3708 1.377 . S
C3709 C3715 1.390 . S
C3710 H3701 0.930 . S
C3710 C3708 1.384 . S
C3710 C3711 1.372 . S
C3711 C3710 1.372 . S
C3711 C3712 1.400 . S
C3711 C3716 1.490 . S
C3712 H3702 0.930 . S
C3712 C3711 1.400 . S
C3712 C3715 1.386 . S
H3713 C3729 0.930 . S
H3714 C3730 0.931 . S
C3715 H3703 0.929 . S
C3715 C3709 1.390 . S
C3715 C3712 1.386 . S
C3716 C3711 1.490 . S
C3716 C3718 1.395 . S
C3716 C3719 1.403 . S
H3717 C3723 0.930 . S
C3718 H3704 0.930 . S
C3718 C3716 1.395 . S
C3718 C3721 1.403 . S
C3719 C3716 1.403 . S
C3719 C3720 1.524 . S
C3719 C3723 1.400 . S
C3720 H3705 0.960 . S
C3720 H3706 0.960 . S
C3720 H3707 0.960 . S
C3720 C3719 1.524 . S
C3721 C3718 1.403 . S
C3721 C3722 1.392 . S
C3721 C3725 1.495 . S
C3722 C3721 1.392 . S
C3722 C3723 1.385 . S
C3722 C3724 1.478 . S
C3723 H3717 0.930 . S
C3723 C3719 1.400 . S
C3723 C3722 1.385 . S
C3724 C3722 1.478 . S
C3724 C3726 1.381 . S
C3724 C3730 1.383 . S
C3725 C3721 1.495 . S
C3725 H3731 0.959 . S
C3725 H3732 0.961 . S
C3725 H3733 0.960 . S
C3726 C3724 1.381 . S
C3726 C3727 1.394 . S
C3726 H3734 0.930 . S
C3727 C3726 1.394 . S
C3727 C3728 1.383 . S
C3727 H3735 0.929 . S
C3728 C3727 1.383 . S
C3728 C3729 1.377 . S
C3729 H3713 0.930 . S
C3729 C3728 1.377 . S
C3729 C3730 1.379 . S
C3730 H3714 0.931 . S
C3730 C3724 1.383 . S
C3730 C3729 1.379 . S
H3731 C3725 0.959 . S
H3732 C3725 0.961 . S
H3733 C3725 0.960 . S
H3734 C3726 0.930 . S
H3735 C3727 0.929 . S
H3736 C3744 0.929 . S
H3737 C3746 0.930 . S
H3738 C3748 0.930 . S
H3739 C3751 0.929 . S
H3740 C3754 0.930 . S
H3741 C3756 0.960 . S
H3742 C3756 0.960 . S
H3743 C3756 0.960 . S
C3744 H3736 0.929 . S
C3744 C3745 1.377 . S
C3744 C3746 1.384 . S
C3745 C3744 1.377 . S
C3745 C3751 1.390 . S
C3746 H3737 0.930 . S
C3746 C3744 1.384 . S
C3746 C3747 1.372 . S
C3747 C3746 1.372 . S
C3747 C3748 1.400 . S
C3747 C3752 1.490 . S
C3748 H3738 0.930 . S
C3748 C3747 1.400 . S
C3748 C3751 1.386 . S
H3749 C3765 0.930 . S
H3750 C3766 0.931 . S
C3751 H3739 0.929 . S
C3751 C3745 1.390 . S
C3751 C3748 1.386 . S
C3752 C3747 1.490 . S
C3752 C3754 1.395 . S
C3752 C3755 1.403 . S
H3753 C3759 0.930 . S
C3754 H3740 0.930 . S
C3754 C3752 1.395 . S
C3754 C3757 1.403 . S
C3755 C3752 1.403 . S
C3755 C3756 1.524 . S
C3755 C3759 1.400 . S
C3756 H3741 0.960 . S
C3756 H3742 0.960 . S
C3756 H3743 0.960 . S
C3756 C3755 1.524 . S
C3757 C3754 1.403 . S
C3757 C3758 1.392 . S
C3757 C3761 1.495 . S
C3758 C3757 1.392 . S
C3758 C3759 1.385 . S
C3758 C3760 1.478 . S
C3759 H3753 0.930 . S
C3759 C3755 1.400 . S
C3759 C3758 1.385 . S
C3760 C3758 1.478 . S
C3760 C3762 1.381 . S
C3760 C3766 1.383 . S
C3761 C3757 1.495 . S
C3761 H3767 0.959 . S
C3761 H3768 0.961 . S
C3761 H3769 0.960 . S
C3762 C3760 1.381 . S
C3762 C3763 1.394 . S
C3762 H3770 0.930 . S
C3763 C3762 1.394 . S
C3763 C3764 1.383 . S
C3763 H3771 0.929 . S
C3764 C3763 1.383 . S
C3764 C3765 1.377 . S
C3765 H3749 0.930 . S
C3765 C3764 1.377 . S
C3765 C3766 1.379 . S
C3766 H3750 0.931 . S
C3766 C3760 1.383 . S
C3766 C3765 1.379 . S
H3767 C3761 0.959 . S
H3768 C3761 0.961 . S
H3769 C3761 0.960 . S
H3770 C3762 0.930 . S
H3771 C3763 0.929 . S
H3772 C3780 0.929 . S
H3773 C3782 0.930 . S
H3774 C3784 0.930 . S
H3775 C3787 0.929 . S
H3776 C3790 0.930 . S
H3777 C3792 0.960 . S
H3778 C3792 0.960 . S
H3779 C3792 0.960 . S
C3780 H3772 0.929 . S
C3780 C3781 1.377 1_556 S
C3780 C3782 1.384 . S
C3781 C3780 1.377 1_554 S
C3781 C3787 1.390 . S
C3782 H3773 0.930 . S
C3782 C3780 1.384 . S
C3782 C3783 1.372 1_556 S
C3783 C3782 1.372 1_554 S
C3783 C3784 1.400 . S
C3783 C3788 1.500 . S
C3784 H3774 0.930 . S
C3784 C3783 1.400 . S
C3784 C3787 1.386 . S
H3785 C3801 0.930 . S
H3786 C3802 0.931 . S
C3787 H3775 0.929 . S
C3787 C3781 1.390 . S
C3787 C3784 1.386 . S
C3788 C3783 1.500 . S
C3788 C3790 1.364 1_554 S
C3788 C3791 1.426 1_545 S
H3789 C3795 0.930 . S
C3790 H3776 0.930 . S
C3790 C3788 1.364 1_556 S
C3790 C3793 1.403 . S
C3791 C3788 1.426 1_565 S
C3791 C3792 1.524 . S
C3791 C3795 1.400 . S
C3792 H3777 0.960 . S
C3792 H3778 0.960 . S
C3792 H3779 0.960 . S
C3792 C3791 1.524 . S
C3793 C3790 1.403 . S
C3793 C3794 1.392 1_545 S
C3793 C3797 1.495 . S
C3794 C3793 1.392 1_565 S
C3794 C3795 1.385 1_556 S
C3794 C3796 1.478 . S
C3795 H3789 0.930 . S
C3795 C3791 1.400 . S
C3795 C3794 1.385 1_554 S
C3796 C3794 1.478 . S
C3796 C3798 1.381 . S
C3796 C3802 1.383 1_556 S
C3797 C3793 1.495 . S
C3797 H3803 0.959 . S
C3797 H3804 0.961 . S
C3797 H3805 0.960 . S
C3798 C3796 1.381 . S
C3798 C3799 1.394 . S
C3798 H3806 0.930 . S
C3799 C3798 1.394 . S
C3799 C3800 1.383 . S
C3799 H3807 0.929 . S
C3800 C3799 1.383 . S
C3800 C3801 1.377 1_556 S
C3801 H3785 0.930 . S
C3801 C3800 1.377 1_554 S
C3801 C3802 1.379 . S
C3802 H3786 0.931 . S
C3802 C3796 1.383 1_554 S
C3802 C3801 1.379 . S
H3803 C3797 0.959 . S
H3804 C3797 0.961 . S
H3805 C3797 0.960 . S
H3806 C3798 0.930 . S
H3807 C3799 0.929 . S
H3808 C3816 0.929 . S
H3809 C3818 0.930 . S
H3810 C3820 0.930 . S
H3811 C3823 0.929 . S
H3812 C3826 0.930 . S
H3813 C3828 0.960 . S
H3814 C3828 0.960 . S
H3815 C3828 0.960 . S
C3816 H3808 0.929 . S
C3816 C3817 1.377 . S
C3816 C3818 1.384 . S
C3817 C3816 1.377 . S
C3817 C3823 1.390 . S
C3818 H3809 0.930 . S
C3818 C3816 1.384 . S
C3818 C3819 1.372 . S
C3819 C3818 1.372 . S
C3819 C3820 1.400 . S
C3819 C3824 1.490 . S
C3820 H3810 0.930 . S
C3820 C3819 1.400 . S
C3820 C3823 1.386 . S
H3821 C3837 0.930 . S
H3822 C3838 0.931 . S
C3823 H3811 0.929 . S
C3823 C3817 1.390 . S
C3823 C3820 1.386 . S
C3824 C3819 1.490 . S
C3824 C3826 1.395 . S
C3824 C3827 1.403 . S
H3825 C3831 0.930 . S
C3826 H3812 0.930 . S
C3826 C3824 1.395 . S
C3826 C3829 1.403 . S
C3827 C3824 1.403 . S
C3827 C3828 1.524 . S
C3827 C3831 1.400 . S
C3828 H3813 0.960 . S
C3828 H3814 0.960 . S
C3828 H3815 0.960 . S
C3828 C3827 1.524 . S
C3829 C3826 1.403 . S
C3829 C3830 1.392 . S
C3829 C3833 1.495 . S
C3830 C3829 1.392 . S
C3830 C3831 1.385 . S
C3830 C3832 1.478 . S
C3831 H3825 0.930 . S
C3831 C3827 1.400 . S
C3831 C3830 1.385 . S
C3832 C3830 1.478 . S
C3832 C3834 1.381 . S
C3832 C3838 1.383 . S
C3833 C3829 1.495 . S
C3833 H3839 0.959 . S
C3833 H3840 0.961 . S
C3833 H3841 0.960 . S
C3834 C3832 1.381 . S
C3834 C3835 1.394 . S
C3834 H3842 0.930 . S
C3835 C3834 1.394 . S
C3835 C3836 1.383 . S
C3835 H3843 0.929 . S
C3836 C3835 1.383 . S
C3836 C3837 1.377 . S
C3837 H3821 0.930 . S
C3837 C3836 1.377 . S
C3837 C3838 1.379 . S
C3838 H3822 0.931 . S
C3838 C3832 1.383 . S
C3838 C3837 1.379 . S
H3839 C3833 0.959 . S
H3840 C3833 0.961 . S
H3841 C3833 0.960 . S
H3842 C3834 0.930 . S
H3843 C3835 0.929 . S
H3844 C3852 0.929 . S
H3845 C3854 0.930 . S
H3846 C3856 0.930 . S
H3847 C3859 0.929 . S
H3848 C3862 0.930 . S
H3849 C3864 0.960 . S
H3850 C3864 0.960 . S
H3851 C3864 0.960 . S
C3852 H3844 0.929 . S
C3852 C3853 1.377 . S
C3852 C3854 1.384 . S
C3853 C3852 1.377 . S
C3853 C3859 1.390 . S
C3854 H3845 0.930 . S
C3854 C3852 1.384 . S
C3854 C3855 1.372 . S
C3855 C3854 1.372 . S
C3855 C3856 1.400 . S
C3855 C3860 1.490 . S
C3856 H3846 0.930 . S
C3856 C3855 1.400 . S
C3856 C3859 1.386 . S
H3857 C3873 0.930 . S
H3858 C3874 0.931 . S
C3859 H3847 0.929 . S
C3859 C3853 1.390 . S
C3859 C3856 1.386 . S
C3860 C3855 1.490 . S
C3860 C3862 1.395 . S
C3860 C3863 1.403 . S
H3861 C3867 0.930 . S
C3862 H3848 0.930 . S
C3862 C3860 1.395 . S
C3862 C3865 1.403 . S
C3863 C3860 1.403 . S
C3863 C3864 1.524 . S
C3863 C3867 1.400 . S
C3864 H3849 0.960 . S
C3864 H3850 0.960 . S
C3864 H3851 0.960 . S
C3864 C3863 1.524 . S
C3865 C3862 1.403 . S
C3865 C3866 1.392 . S
C3865 C3869 1.495 . S
C3866 C3865 1.392 . S
C3866 C3867 1.385 . S
C3866 C3868 1.478 . S
C3867 H3861 0.930 . S
C3867 C3863 1.400 . S
C3867 C3866 1.385 . S
C3868 C3866 1.478 . S
C3868 C3870 1.381 . S
C3868 C3874 1.383 . S
C3869 C3865 1.495 . S
C3869 H3875 0.959 . S
C3869 H3876 0.961 . S
C3869 H3877 0.960 . S
C3870 C3868 1.381 . S
C3870 C3871 1.394 . S
C3870 H3878 0.930 . S
C3871 C3870 1.394 . S
C3871 C3872 1.383 . S
C3871 H3879 0.929 . S
C3872 C3871 1.383 . S
C3872 C3873 1.377 . S
C3873 H3857 0.930 . S
C3873 C3872 1.377 . S
C3873 C3874 1.379 . S
C3874 H3858 0.931 . S
C3874 C3868 1.383 . S
C3874 C3873 1.379 . S
H3875 C3869 0.959 . S
H3876 C3869 0.961 . S
H3877 C3869 0.960 . S
H3878 C3870 0.930 . S
H3879 C3871 0.929 . S
H3880 C3888 0.929 . S
H3881 C3890 0.930 . S
H3882 C3892 0.930 . S
H3883 C3895 0.929 . S
H3884 C3898 0.930 . S
H3885 C3900 0.960 . S
H3886 C3900 0.960 . S
H3887 C3900 0.960 . S
C3888 H3880 0.929 . S
C3888 C3889 1.377 . S
C3888 C3890 1.384 . S
C3889 C3888 1.377 . S
C3889 C3895 1.390 . S
C3890 H3881 0.930 . S
C3890 C3888 1.384 . S
C3890 C3891 1.372 . S
C3891 C3890 1.372 . S
C3891 C3892 1.400 . S
C3891 C3896 1.490 . S
C3892 H3882 0.930 . S
C3892 C3891 1.400 . S
C3892 C3895 1.386 . S
H3893 C3909 0.930 . S
H3894 C3910 0.931 . S
C3895 H3883 0.929 . S
C3895 C3889 1.390 . S
C3895 C3892 1.386 . S
C3896 C3891 1.490 . S
C3896 C3898 1.395 . S
C3896 C3899 1.403 . S
H3897 C3903 0.930 . S
C3898 H3884 0.930 . S
C3898 C3896 1.395 . S
C3898 C3901 1.403 . S
C3899 C3896 1.403 . S
C3899 C3900 1.524 . S
C3899 C3903 1.400 . S
C3900 H3885 0.960 . S
C3900 H3886 0.960 . S
C3900 H3887 0.960 . S
C3900 C3899 1.524 . S
C3901 C3898 1.403 . S
C3901 C3902 1.392 . S
C3901 C3905 1.495 . S
C3902 C3901 1.392 . S
C3902 C3903 1.385 . S
C3902 C3904 1.478 . S
C3903 H3897 0.930 . S
C3903 C3899 1.400 . S
C3903 C3902 1.385 . S
C3904 C3902 1.478 . S
C3904 C3906 1.381 . S
C3904 C3910 1.383 . S
C3905 C3901 1.495 . S
C3905 H3911 0.959 . S
C3905 H3912 0.961 . S
C3905 H3913 0.960 . S
C3906 C3904 1.381 . S
C3906 C3907 1.394 . S
C3906 H3914 0.930 . S
C3907 C3906 1.394 . S
C3907 C3908 1.383 . S
C3907 H3915 0.929 . S
C3908 C3907 1.383 . S
C3908 C3909 1.377 . S
C3909 H3893 0.930 . S
C3909 C3908 1.377 . S
C3909 C3910 1.379 . S
C3910 H3894 0.931 . S
C3910 C3904 1.383 . S
C3910 C3909 1.379 . S
H3911 C3905 0.959 . S
H3912 C3905 0.961 . S
H3913 C3905 0.960 . S
H3914 C3906 0.930 . S
H3915 C3907 0.929 . S
H3916 C3924 0.929 . S
H3917 C3926 0.930 . S
H3918 C3928 0.930 . S
H3919 C3931 0.929 . S
H3920 C3934 0.930 . S
H3921 C3936 0.960 . S
H3922 C3936 0.960 . S
H3923 C3936 0.960 . S
C3924 H3916 0.929 . S
C3924 C3925 1.377 . S
C3924 C3926 1.384 . S
C3925 C3924 1.377 . S
C3925 C3931 1.390 . S
C3926 H3917 0.930 . S
C3926 C3924 1.384 . S
C3926 C3927 1.372 . S
C3927 C3926 1.372 . S
C3927 C3928 1.400 . S
C3927 C3932 1.490 . S
C3928 H3918 0.930 . S
C3928 C3927 1.400 . S
C3928 C3931 1.386 . S
H3929 C3945 0.930 . S
H3930 C3946 0.931 . S
C3931 H3919 0.929 . S
C3931 C3925 1.390 . S
C3931 C3928 1.386 . S
C3932 C3927 1.490 . S
C3932 C3934 1.395 . S
C3932 C3935 1.403 . S
H3933 C3939 0.930 . S
C3934 H3920 0.930 . S
C3934 C3932 1.395 . S
C3934 C3937 1.403 . S
C3935 C3932 1.403 . S
C3935 C3936 1.524 . S
C3935 C3939 1.400 . S
C3936 H3921 0.960 . S
C3936 H3922 0.960 . S
C3936 H3923 0.960 . S
C3936 C3935 1.524 . S
C3937 C3934 1.403 . S
C3937 C3938 1.392 . S
C3937 C3941 1.495 . S
C3938 C3937 1.392 . S
C3938 C3939 1.385 . S
C3938 C3940 1.478 . S
C3939 H3933 0.930 . S
C3939 C3935 1.400 . S
C3939 C3938 1.385 . S
C3940 C3938 1.478 . S
C3940 C3942 1.381 . S
C3940 C3946 1.383 . S
C3941 C3937 1.495 . S
C3941 H3947 0.959 . S
C3941 H3948 0.961 . S
C3941 H3949 0.960 . S
C3942 C3940 1.381 . S
C3942 C3943 1.394 . S
C3942 H3950 0.930 . S
C3943 C3942 1.394 . S
C3943 C3944 1.383 . S
C3943 H3951 0.929 . S
C3944 C3943 1.383 . S
C3944 C3945 1.377 . S
C3945 H3929 0.930 . S
C3945 C3944 1.377 . S
C3945 C3946 1.379 . S
C3946 H3930 0.931 . S
C3946 C3940 1.383 . S
C3946 C3945 1.379 . S
H3947 C3941 0.959 . S
H3948 C3941 0.961 . S
H3949 C3941 0.960 . S
H3950 C3942 0.930 . S
H3951 C3943 0.929 . S
H3952 C3960 0.929 . S
H3953 C3962 0.930 . S
H3954 C3964 0.930 . S
H3955 C3967 0.929 . S
H3956 C3970 0.930 . S
H3957 C3972 0.960 . S
H3958 C3972 0.960 . S
H3959 C3972 0.960 . S
C3960 H3952 0.929 . S
C3960 C3961 1.377 . S
C3960 C3962 1.384 . S
C3961 C3960 1.377 . S
C3961 C3967 1.390 . S
C3962 H3953 0.930 . S
C3962 C3960 1.384 . S
C3962 C3963 1.372 . S
C3963 C3962 1.372 . S
C3963 C3964 1.400 . S
C3963 C3968 1.490 . S
C3964 H3954 0.930 . S
C3964 C3963 1.400 . S
C3964 C3967 1.386 . S
H3965 C3981 0.930 1_565 S
H3966 C3982 0.931 . S
C3967 H3955 0.929 . S
C3967 C3961 1.390 . S
C3967 C3964 1.386 . S
C3968 C3963 1.490 . S
C3968 C3970 1.395 . S
C3968 C3971 1.403 . S
H3969 C3975 0.930 . S
C3970 H3956 0.930 . S
C3970 C3968 1.395 . S
C3970 C3973 1.403 . S
C3971 C3968 1.403 . S
C3971 C3972 1.524 . S
C3971 C3975 1.400 . S
C3972 H3957 0.960 . S
C3972 H3958 0.960 . S
C3972 H3959 0.960 . S
C3972 C3971 1.524 . S
C3973 C3970 1.403 . S
C3973 C3974 1.392 . S
C3973 C3977 1.495 . S
C3974 C3973 1.392 . S
C3974 C3975 1.385 . S
C3974 C3976 1.478 . S
C3975 H3969 0.930 . S
C3975 C3971 1.400 . S
C3975 C3974 1.385 . S
C3976 C3974 1.478 . S
C3976 C3978 1.381 . S
C3976 C3982 1.383 . S
C3977 C3973 1.495 . S
C3977 H3983 0.959 . S
C3977 H3984 0.961 . S
C3977 H3985 0.960 . S
C3978 C3976 1.381 . S
C3978 C3979 1.394 . S
C3978 H3986 0.930 . S
C3979 C3978 1.394 . S
C3979 C3980 1.383 1_545 S
C3979 H3987 0.929 . S
C3980 C3979 1.383 1_565 S
C3980 C3981 1.377 1_565 S
C3981 H3965 0.930 1_545 S
C3981 C3980 1.377 1_545 S
C3981 C3982 1.379 . S
C3982 H3966 0.931 . S
C3982 C3976 1.383 . S
C3982 C3981 1.379 . S
H3983 C3977 0.959 . S
H3984 C3977 0.961 . S
H3985 C3977 0.960 . S
H3986 C3978 0.930 . S
H3987 C3979 0.929 . S
H3988 C3996 0.929 . S
H3989 C3998 0.930 . S
H3990 C4000 0.930 . S
H3991 C4003 0.929 . S
H3992 C4006 0.930 . S
H3993 C4008 0.960 . S
H3994 C4008 0.960 . S
H3995 C4008 0.960 . S
C3996 H3988 0.929 . S
C3996 C3997 1.374 1_545 S
C3996 C3998 1.384 . S
C3997 C3996 1.374 1_565 S
C3997 C4003 1.385 1_565 S
C3998 H3989 0.930 . S
C3998 C3996 1.384 . S
C3998 C3999 1.372 . S
C3999 C3998 1.372 . S
C3999 C4000 1.400 . S
C3999 C4004 1.490 . S
C4000 H3990 0.930 . S
C4000 C3999 1.400 . S
C4000 C4003 1.386 . S
H4001 C4017 0.930 . S
H4002 C4018 0.931 . S
C4003 H3991 0.929 . S
C4003 C3997 1.385 1_545 S
C4003 C4000 1.386 . S
C4004 C3999 1.490 . S
C4004 C4006 1.395 . S
C4004 C4007 1.403 . S
H4005 C4011 0.930 . S
C4006 H3992 0.930 . S
C4006 C4004 1.395 . S
C4006 C4009 1.403 . S
C4007 C4004 1.403 . S
C4007 C4008 1.524 . S
C4007 C4011 1.400 . S
C4008 H3993 0.960 . S
C4008 H3994 0.960 . S
C4008 H3995 0.960 . S
C4008 C4007 1.524 . S
C4009 C4006 1.403 . S
C4009 C4010 1.392 . S
C4009 C4013 1.495 . S
C4010 C4009 1.392 . S
C4010 C4011 1.385 . S
C4010 C4012 1.478 . S
C4011 H4005 0.930 . S
C4011 C4007 1.400 . S
C4011 C4010 1.385 . S
C4012 C4010 1.478 . S
C4012 C4014 1.381 . S
C4012 C4018 1.383 . S
C4013 C4009 1.495 . S
C4013 H4019 0.959 . S
C4013 H4020 0.961 . S
C4013 H4021 0.960 . S
C4014 C4012 1.381 . S
C4014 C4015 1.394 . S
C4014 H4022 0.930 . S
C4015 C4014 1.394 . S
C4015 C4016 1.383 . S
C4015 H4023 0.929 . S
C4016 C4015 1.383 . S
C4016 C4017 1.377 . S
C4017 H4001 0.930 . S
C4017 C4016 1.377 . S
C4017 C4018 1.379 . S
C4018 H4002 0.931 . S
C4018 C4012 1.383 . S
C4018 C4017 1.379 . S
H4019 C4013 0.959 . S
H4020 C4013 0.961 . S
H4021 C4013 0.960 . S
H4022 C4014 0.930 . S
H4023 C4015 0.929 . S
H4024 C4032 0.929 . S
H4025 C4034 0.930 . S
H4026 C4036 0.930 . S
H4027 C4039 0.929 1_545 S
H4028 C4042 0.930 . S
H4029 C4044 0.960 . S
H4030 C4044 0.960 . S
H4031 C4044 0.960 . S
C4032 H4024 0.929 . S
C4032 C4033 1.362 1_565 S
C4032 C4034 1.384 . S
C4033 C4032 1.362 1_545 S
C4033 C4039 1.388 1_545 S
C4034 H4025 0.930 . S
C4034 C4032 1.384 . S
C4034 C4035 1.372 . S
C4035 C4034 1.372 . S
C4035 C4036 1.400 . S
C4035 C4040 1.490 . S
C4036 H4026 0.930 . S
C4036 C4035 1.400 . S
C4036 C4039 1.386 . S
H4037 C4053 0.930 . S
H4038 C4054 0.931 . S
C4039 H4027 0.929 1_565 S
C4039 C4033 1.388 1_565 S
C4039 C4036 1.386 . S
C4040 C4035 1.490 . S
C4040 C4042 1.395 . S
C4040 C4043 1.403 . S
H4041 C4047 0.930 . S
C4042 H4028 0.930 . S
C4042 C4040 1.395 . S
C4042 C4045 1.403 . S
C4043 C4040 1.403 . S
C4043 C4044 1.524 . S
C4043 C4047 1.400 . S
C4044 H4029 0.960 . S
C4044 H4030 0.960 . S
C4044 H4031 0.960 . S
C4044 C4043 1.524 . S
C4045 C4042 1.403 . S
C4045 C4046 1.392 . S
C4045 C4049 1.495 . S
C4046 C4045 1.392 . S
C4046 C4047 1.385 . S
C4046 C4048 1.478 . S
C4047 H4041 0.930 . S
C4047 C4043 1.400 . S
C4047 C4046 1.385 . S
C4048 C4046 1.478 . S
C4048 C4050 1.381 . S
C4048 C4054 1.383 . S
C4049 C4045 1.495 . S
C4049 H4055 0.959 . S
C4049 H4056 0.961 . S
C4049 H4057 0.960 . S
C4050 C4048 1.381 . S
C4050 C4051 1.394 . S
C4050 H4058 0.930 . S
C4051 C4050 1.394 . S
C4051 C4052 1.383 . S
C4051 H4059 0.929 . S
C4052 C4051 1.383 . S
C4052 C4053 1.377 . S
C4053 H4037 0.930 . S
C4053 C4052 1.377 . S
C4053 C4054 1.379 . S
C4054 H4038 0.931 . S
C4054 C4048 1.383 . S
C4054 C4053 1.379 . S
H4055 C4049 0.959 . S
H4056 C4049 0.961 . S
H4057 C4049 0.960 . S
H4058 C4050 0.930 . S
H4059 C4051 0.929 . S
H4060 C4068 0.929 . S
H4061 C4070 0.930 . S
H4062 C4072 0.930 . S
H4063 C4075 0.929 . S
H4064 C4078 0.930 . S
H4065 C4080 0.960 . S
H4066 C4080 0.960 . S
H4067 C4080 0.960 . S
C4068 H4060 0.929 . S
C4068 C4069 1.377 . S
C4068 C4070 1.384 . S
C4069 C4068 1.377 . S
C4069 C4075 1.390 . S
C4070 H4061 0.930 . S
C4070 C4068 1.384 . S
C4070 C4071 1.372 . S
C4071 C4070 1.372 . S
C4071 C4072 1.400 . S
C4071 C4076 1.490 . S
C4072 H4062 0.930 . S
C4072 C4071 1.400 . S
C4072 C4075 1.386 . S
H4073 C4089 0.930 . S
H4074 C4090 0.931 . S
C4075 H4063 0.929 . S
C4075 C4069 1.390 . S
C4075 C4072 1.386 . S
C4076 C4071 1.490 . S
C4076 C4078 1.395 . S
C4076 C4079 1.403 . S
H4077 C4083 0.930 . S
C4078 H4064 0.930 . S
C4078 C4076 1.395 . S
C4078 C4081 1.403 . S
C4079 C4076 1.403 . S
C4079 C4080 1.524 . S
C4079 C4083 1.400 . S
C4080 H4065 0.960 . S
C4080 H4066 0.960 . S
C4080 H4067 0.960 . S
C4080 C4079 1.524 . S
C4081 C4078 1.403 . S
C4081 C4082 1.392 . S
C4081 C4085 1.495 . S
C4082 C4081 1.392 . S
C4082 C4083 1.385 . S
C4082 C4084 1.478 . S
C4083 H4077 0.930 . S
C4083 C4079 1.400 . S
C4083 C4082 1.385 . S
C4084 C4082 1.478 . S
C4084 C4086 1.381 . S
C4084 C4090 1.383 . S
C4085 C4081 1.495 . S
C4085 H4091 0.959 . S
C4085 H4092 0.961 . S
C4085 H4093 0.960 . S
C4086 C4084 1.381 . S
C4086 C4087 1.394 1_565 S
C4086 H4094 0.930 . S
C4087 C4086 1.394 1_545 S
C4087 C4088 1.383 . S
C4087 H4095 0.929 . S
C4088 C4087 1.383 . S
C4088 C4089 1.377 1_545 S
C4089 H4073 0.930 . S
C4089 C4088 1.377 1_565 S
C4089 C4090 1.379 . S
C4090 H4074 0.931 . S
C4090 C4084 1.383 . S
C4090 C4089 1.379 . S
H4091 C4085 0.959 . S
H4092 C4085 0.961 . S
H4093 C4085 0.960 . S
H4094 C4086 0.930 . S
H4095 C4087 0.929 . S
H4096 C4104 0.929 . S
H4097 C4106 0.930 . S
H4098 C4108 0.930 . S
H4099 C4111 0.929 . S
H4100 C4114 0.930 . S
H4101 C4116 0.960 . S
H4102 C4116 0.960 . S
H4103 C4116 0.960 . S
C4104 H4096 0.929 . S
C4104 C4105 1.377 . S
C4104 C4106 1.384 . S
C4105 C4104 1.377 . S
C4105 C4111 1.390 . S
C4106 H4097 0.930 . S
C4106 C4104 1.384 . S
C4106 C4107 1.372 . S
C4107 C4106 1.372 . S
C4107 C4108 1.400 . S
C4107 C4112 1.490 . S
C4108 H4098 0.930 . S
C4108 C4107 1.400 . S
C4108 C4111 1.386 . S
H4109 C4125 0.930 . S
H4110 C4126 0.931 . S
C4111 H4099 0.929 . S
C4111 C4105 1.390 . S
C4111 C4108 1.386 . S
C4112 C4107 1.490 . S
C4112 C4114 1.395 . S
C4112 C4115 1.403 . S
H4113 C4119 0.930 . S
C4114 H4100 0.930 . S
C4114 C4112 1.395 . S
C4114 C4117 1.403 . S
C4115 C4112 1.403 . S
C4115 C4116 1.524 . S
C4115 C4119 1.400 . S
C4116 H4101 0.960 . S
C4116 H4102 0.960 . S
C4116 H4103 0.960 . S
C4116 C4115 1.524 . S
C4117 C4114 1.403 . S
C4117 C4118 1.392 . S
C4117 C4121 1.495 . S
C4118 C4117 1.392 . S
C4118 C4119 1.385 . S
C4118 C4120 1.478 . S
C4119 H4113 0.930 . S
C4119 C4115 1.400 . S
C4119 C4118 1.385 . S
C4120 C4118 1.478 . S
C4120 C4122 1.381 . S
C4120 C4126 1.383 . S
C4121 C4117 1.495 . S
C4121 H4127 0.959 . S
C4121 H4128 0.961 . S
C4121 H4129 0.960 . S
C4122 C4120 1.381 . S
C4122 C4123 1.394 . S
C4122 H4130 0.930 . S
C4123 C4122 1.394 . S
C4123 C4124 1.383 . S
C4123 H4131 0.929 . S
C4124 C4123 1.383 . S
C4124 C4125 1.377 . S
C4125 H4109 0.930 . S
C4125 C4124 1.377 . S
C4125 C4126 1.379 . S
C4126 H4110 0.931 . S
C4126 C4120 1.383 . S
C4126 C4125 1.379 . S
H4127 C4121 0.959 . S
H4128 C4121 0.961 . S
H4129 C4121 0.960 . S
H4130 C4122 0.930 . S
H4131 C4123 0.929 . S
H4132 C4140 0.929 . S
H4133 C4142 0.930 . S
H4134 C4144 0.930 . S
H4135 C4147 0.929 . S
H4136 C4150 0.930 . S
H4137 C4152 0.960 . S
H4138 C4152 0.960 . S
H4139 C4152 0.960 . S
C4140 H4132 0.929 . S
C4140 C4141 1.377 . S
C4140 C4142 1.384 . S
C4141 C4140 1.377 . S
C4141 C4147 1.390 . S
C4142 H4133 0.930 . S
C4142 C4140 1.384 . S
C4142 C4143 1.372 . S
C4143 C4142 1.372 . S
C4143 C4144 1.400 . S
C4143 C4148 1.490 . S
C4144 H4134 0.930 . S
C4144 C4143 1.400 . S
C4144 C4147 1.386 . S
H4145 C4161 0.930 . S
H4146 C4162 0.931 . S
C4147 H4135 0.929 . S
C4147 C4141 1.390 . S
C4147 C4144 1.386 . S
C4148 C4143 1.490 . S
C4148 C4150 1.395 . S
C4148 C4151 1.403 . S
H4149 C4155 0.930 . S
C4150 H4136 0.930 . S
C4150 C4148 1.395 . S
C4150 C4153 1.403 . S
C4151 C4148 1.403 . S
C4151 C4152 1.524 . S
C4151 C4155 1.400 . S
C4152 H4137 0.960 . S
C4152 H4138 0.960 . S
C4152 H4139 0.960 . S
C4152 C4151 1.524 . S
C4153 C4150 1.403 . S
C4153 C4154 1.392 . S
C4153 C4157 1.495 . S
C4154 C4153 1.392 . S
C4154 C4155 1.385 . S
C4154 C4156 1.478 . S
C4155 H4149 0.930 . S
C4155 C4151 1.400 . S
C4155 C4154 1.385 . S
C4156 C4154 1.478 . S
C4156 C4158 1.381 . S
C4156 C4162 1.383 . S
C4157 C4153 1.495 . S
C4157 H4163 0.959 . S
C4157 H4164 0.961 . S
C4157 H4165 0.960 . S
C4158 C4156 1.381 . S
C4158 C4159 1.394 . S
C4158 H4166 0.930 . S
C4159 C4158 1.394 . S
C4159 C4160 1.383 . S
C4159 H4167 0.929 . S
C4160 C4159 1.383 . S
C4160 C4161 1.377 . S
C4161 H4145 0.930 . S
C4161 C4160 1.377 . S
C4161 C4162 1.379 . S
C4162 H4146 0.931 . S
C4162 C4156 1.383 . S
C4162 C4161 1.379 . S
H4163 C4157 0.959 . S
H4164 C4157 0.961 . S
H4165 C4157 0.960 . S
H4166 C4158 0.930 . S
H4167 C4159 0.929 . S
H4168 C4176 0.929 . S
H4169 C4178 0.930 . S
H4170 C4180 0.930 . S
H4171 C4183 0.929 . S
H4172 C4186 0.930 . S
H4173 C4188 0.960 . S
H4174 C4188 0.960 . S
H4175 C4188 0.960 . S
C4176 H4168 0.929 . S
C4176 C4177 1.377 . S
C4176 C4178 1.384 . S
C4177 C4176 1.377 . S
C4177 C4183 1.390 . S
C4178 H4169 0.930 . S
C4178 C4176 1.384 . S
C4178 C4179 1.372 . S
C4179 C4178 1.372 . S
C4179 C4180 1.400 . S
C4179 C4184 1.490 . S
C4180 H4170 0.930 . S
C4180 C4179 1.400 . S
C4180 C4183 1.386 . S
H4181 C4197 0.930 . S
H4182 C4198 0.931 . S
C4183 H4171 0.929 . S
C4183 C4177 1.390 . S
C4183 C4180 1.386 . S
C4184 C4179 1.490 . S
C4184 C4186 1.395 . S
C4184 C4187 1.403 . S
H4185 C4191 0.930 . S
C4186 H4172 0.930 . S
C4186 C4184 1.395 . S
C4186 C4189 1.403 . S
C4187 C4184 1.403 . S
C4187 C4188 1.524 . S
C4187 C4191 1.400 . S
C4188 H4173 0.960 . S
C4188 H4174 0.960 . S
C4188 H4175 0.960 . S
C4188 C4187 1.524 . S
C4189 C4186 1.403 . S
C4189 C4190 1.392 . S
C4189 C4193 1.495 . S
C4190 C4189 1.392 . S
C4190 C4191 1.385 . S
C4190 C4192 1.478 . S
C4191 H4185 0.930 . S
C4191 C4187 1.400 . S
C4191 C4190 1.385 . S
C4192 C4190 1.478 . S
C4192 C4194 1.381 . S
C4192 C4198 1.383 . S
C4193 C4189 1.495 . S
C4193 H4199 0.959 . S
C4193 H4200 0.961 . S
C4193 H4201 0.960 . S
C4194 C4192 1.381 . S
C4194 C4195 1.394 . S
C4194 H4202 0.930 . S
C4195 C4194 1.394 . S
C4195 C4196 1.383 . S
C4195 H4203 0.929 . S
C4196 C4195 1.383 . S
C4196 C4197 1.377 . S
C4197 H4181 0.930 . S
C4197 C4196 1.377 . S
C4197 C4198 1.379 . S
C4198 H4182 0.931 . S
C4198 C4192 1.383 . S
C4198 C4197 1.379 . S
H4199 C4193 0.959 . S
H4200 C4193 0.961 . S
H4201 C4193 0.960 . S
H4202 C4194 0.930 . S
H4203 C4195 0.929 . S
H4204 C4212 0.929 . S
H4205 C4214 0.930 . S
H4206 C4216 0.930 . S
H4207 C4219 0.929 . S
H4208 C4222 0.930 . S
H4209 C4224 0.960 . S
H4210 C4224 0.960 . S
H4211 C4224 0.960 . S
C4212 H4204 0.929 . S
C4212 C4213 1.377 . S
C4212 C4214 1.384 . S
C4213 C4212 1.377 . S
C4213 C4219 1.390 . S
C4214 H4205 0.930 . S
C4214 C4212 1.384 . S
C4214 C4215 1.372 . S
C4215 C4214 1.372 . S
C4215 C4216 1.400 . S
C4215 C4220 1.490 . S
C4216 H4206 0.930 . S
C4216 C4215 1.400 . S
C4216 C4219 1.386 . S
H4217 C4233 0.930 . S
H4218 C4234 0.931 . S
C4219 H4207 0.929 . S
C4219 C4213 1.390 . S
C4219 C4216 1.386 . S
C4220 C4215 1.490 . S
C4220 C4222 1.395 . S
C4220 C4223 1.403 . S
H4221 C4227 0.930 . S
C4222 H4208 0.930 . S
C4222 C4220 1.395 . S
C4222 C4225 1.403 . S
C4223 C4220 1.403 . S
C4223 C4224 1.524 . S
C4223 C4227 1.400 . S
C4224 H4209 0.960 . S
C4224 H4210 0.960 . S
C4224 H4211 0.960 . S
C4224 C4223 1.524 . S
C4225 C4222 1.403 . S
C4225 C4226 1.392 . S
C4225 C4229 1.495 . S
C4226 C4225 1.392 . S
C4226 C4227 1.385 . S
C4226 C4228 1.478 . S
C4227 H4221 0.930 . S
C4227 C4223 1.400 . S
C4227 C4226 1.385 . S
C4228 C4226 1.478 . S
C4228 C4230 1.381 . S
C4228 C4234 1.383 . S
C4229 C4225 1.495 . S
C4229 H4235 0.959 . S
C4229 H4236 0.961 . S
C4229 H4237 0.960 . S
C4230 C4228 1.381 . S
C4230 C4231 1.394 . S
C4230 H4238 0.930 . S
C4231 C4230 1.394 . S
C4231 C4232 1.383 . S
C4231 H4239 0.929 . S
C4232 C4231 1.383 . S
C4232 C4233 1.377 . S
C4233 H4217 0.930 . S
C4233 C4232 1.377 . S
C4233 C4234 1.379 . S
C4234 H4218 0.931 . S
C4234 C4228 1.383 . S
C4234 C4233 1.379 . S
H4235 C4229 0.959 . S
H4236 C4229 0.961 . S
H4237 C4229 0.960 . S
H4238 C4230 0.930 . S
H4239 C4231 0.929 . S
H4240 C4248 0.929 1_565 S
H4241 C4250 0.930 . S
H4242 C4252 0.930 . S
H4243 C4255 0.929 . S
H4244 C4258 0.930 . S
H4245 C4260 0.960 . S
H4246 C4260 0.960 . S
H4247 C4260 0.960 . S
C4248 H4240 0.929 1_545 S
C4248 C4249 1.376 1_545 S
C4248 C4250 1.384 . S
C4249 C4248 1.376 1_565 S
C4249 C4255 1.377 1_565 S
C4250 H4241 0.930 . S
C4250 C4248 1.384 . S
C4250 C4251 1.372 . S
C4251 C4250 1.372 . S
C4251 C4252 1.400 . S
C4251 C4256 1.490 . S
C4252 H4242 0.930 . S
C4252 C4251 1.400 . S
C4252 C4255 1.386 . S
H4253 C4269 0.930 . S
H4254 C4270 0.931 . S
C4255 H4243 0.929 . S
C4255 C4249 1.377 1_545 S
C4255 C4252 1.386 . S
C4256 C4251 1.490 . S
C4256 C4258 1.395 . S
C4256 C4259 1.403 . S
H4257 C4263 0.930 . S
C4258 H4244 0.930 . S
C4258 C4256 1.395 . S
C4258 C4261 1.403 . S
C4259 C4256 1.403 . S
C4259 C4260 1.524 . S
C4259 C4263 1.400 . S
C4260 H4245 0.960 . S
C4260 H4246 0.960 . S
C4260 H4247 0.960 . S
C4260 C4259 1.524 . S
C4261 C4258 1.403 . S
C4261 C4262 1.392 . S
C4261 C4265 1.495 . S
C4262 C4261 1.392 . S
C4262 C4263 1.385 . S
C4262 C4264 1.478 . S
C4263 H4257 0.930 . S
C4263 C4259 1.400 . S
C4263 C4262 1.385 . S
C4264 C4262 1.478 . S
C4264 C4266 1.381 . S
C4264 C4270 1.383 . S
C4265 C4261 1.495 . S
C4265 H4271 0.959 . S
C4265 H4272 0.961 . S
C4265 H4273 0.960 . S
C4266 C4264 1.381 . S
C4266 C4267 1.394 . S
C4266 H4274 0.930 . S
C4267 C4266 1.394 . S
C4267 C4268 1.383 . S
C4267 H4275 0.929 . S
C4268 C4267 1.383 . S
C4268 C4269 1.377 . S
C4269 H4253 0.930 . S
C4269 C4268 1.377 . S
C4269 C4270 1.379 . S
C4270 H4254 0.931 . S
C4270 C4264 1.383 . S
C4270 C4269 1.379 . S
H4271 C4265 0.959 . S
H4272 C4265 0.961 . S
H4273 C4265 0.960 . S
H4274 C4266 0.930 . S
H4275 C4267 0.929 . S
H4276 C4284 0.929 . S
H4277 C4286 0.930 . S
H4278 C4288 0.930 . S
H4279 C4291 0.929 . S
H4280 C4294 0.930 . S
H4281 C4296 0.960 . S
H4282 C4296 0.960 . S
H4283 C4296 0.960 . S
C4284 H4276 0.929 . S
C4284 C4285 1.377 . S
C4284 C4286 1.384 . S
C4285 C4284 1.377 . S
C4285 C4291 1.390 . S
C4286 H4277 0.930 . S
C4286 C4284 1.384 . S
C4286 C4287 1.372 . S
C4287 C4286 1.372 . S
C4287 C4288 1.400 . S
C4287 C4292 1.490 . S
C4288 H4278 0.930 . S
C4288 C4287 1.400 . S
C4288 C4291 1.386 . S
H4289 C4305 0.930 . S
H4290 C4306 0.931 . S
C4291 H4279 0.929 . S
C4291 C4285 1.390 . S
C4291 C4288 1.386 . S
C4292 C4287 1.490 . S
C4292 C4294 1.395 . S
C4292 C4295 1.403 . S
H4293 C4299 0.930 . S
C4294 H4280 0.930 . S
C4294 C4292 1.395 . S
C4294 C4297 1.403 . S
C4295 C4292 1.403 . S
C4295 C4296 1.524 . S
C4295 C4299 1.400 . S
C4296 H4281 0.960 . S
C4296 H4282 0.960 . S
C4296 H4283 0.960 . S
C4296 C4295 1.524 . S
C4297 C4294 1.403 . S
C4297 C4298 1.392 . S
C4297 C4301 1.495 . S
C4298 C4297 1.392 . S
C4298 C4299 1.385 . S
C4298 C4300 1.478 . S
C4299 H4293 0.930 . S
C4299 C4295 1.400 . S
C4299 C4298 1.385 . S
C4300 C4298 1.478 . S
C4300 C4302 1.381 . S
C4300 C4306 1.383 . S
C4301 C4297 1.495 . S
C4301 H4307 0.959 . S
C4301 H4308 0.961 . S
C4301 H4309 0.960 . S
C4302 C4300 1.381 . S
C4302 C4303 1.394 . S
C4302 H4310 0.930 . S
C4303 C4302 1.394 . S
C4303 C4304 1.383 1_545 S
C4303 H4311 0.929 . S
C4304 C4303 1.383 1_565 S
C4304 C4305 1.377 1_565 S
C4305 H4289 0.930 . S
C4305 C4304 1.377 1_545 S
C4305 C4306 1.379 . S
C4306 H4290 0.931 . S
C4306 C4300 1.383 . S
C4306 C4305 1.379 . S
H4307 C4301 0.959 . S
H4308 C4301 0.961 . S
H4309 C4301 0.960 . S
H4310 C4302 0.930 . S
H4311 C4303 0.929 . S
H4312 C4320 0.929 . S
H4313 C4322 0.930 . S
H4314 C4324 0.930 . S
H4315 C4327 0.929 . S
H4316 C4330 0.930 . S
H4317 C4332 0.960 . S
H4318 C4332 0.960 . S
H4319 C4332 0.960 . S
C4320 H4312 0.929 . S
C4320 C4321 1.374 1_565 S
C4320 C4322 1.384 . S
C4321 C4320 1.374 1_545 S
C4321 C4327 1.385 1_545 S
C4322 H4313 0.930 . S
C4322 C4320 1.384 . S
C4322 C4323 1.372 . S
C4323 C4322 1.372 . S
C4323 C4324 1.400 . S
C4323 C4328 1.490 . S
C4324 H4314 0.930 . S
C4324 C4323 1.400 . S
C4324 C4327 1.386 . S
H4325 C4341 0.930 . S
H4326 C4342 0.931 . S
C4327 H4315 0.929 . S
C4327 C4321 1.385 1_565 S
C4327 C4324 1.386 . S
C4328 C4323 1.490 . S
C4328 C4330 1.395 . S
C4328 C4331 1.403 . S
H4329 C4335 0.930 . S
C4330 H4316 0.930 . S
C4330 C4328 1.395 . S
C4330 C4333 1.403 . S
C4331 C4328 1.403 . S
C4331 C4332 1.524 . S
C4331 C4335 1.400 . S
C4332 H4317 0.960 . S
C4332 H4318 0.960 . S
C4332 H4319 0.960 . S
C4332 C4331 1.524 . S
C4333 C4330 1.403 . S
C4333 C4334 1.392 . S
C4333 C4337 1.495 . S
C4334 C4333 1.392 . S
C4334 C4335 1.385 . S
C4334 C4336 1.478 . S
C4335 H4329 0.930 . S
C4335 C4331 1.400 . S
C4335 C4334 1.385 . S
C4336 C4334 1.478 . S
C4336 C4338 1.381 . S
C4336 C4342 1.383 . S
C4337 C4333 1.495 . S
C4337 H4343 0.959 . S
C4337 H4344 0.961 . S
C4337 H4345 0.960 . S
C4338 C4336 1.381 . S
C4338 C4339 1.394 . S
C4338 H4346 0.930 . S
C4339 C4338 1.394 . S
C4339 C4340 1.383 . S
C4339 H4347 0.929 . S
C4340 C4339 1.383 . S
C4340 C4341 1.377 . S
C4341 H4325 0.930 . S
C4341 C4340 1.377 . S
C4341 C4342 1.379 . S
C4342 H4326 0.931 . S
C4342 C4336 1.383 . S
C4342 C4341 1.379 . S
H4343 C4337 0.959 . S
H4344 C4337 0.961 . S
H4345 C4337 0.960 . S
H4346 C4338 0.930 . S
H4347 C4339 0.929 . S
H4348 C4356 0.929 . S
H4349 C4358 0.930 . S
H4350 C4360 0.930 . S
H4351 C4363 0.929 . S
H4352 C4366 0.930 . S
H4353 C4368 0.960 . S
H4354 C4368 0.960 . S
H4355 C4368 0.960 . S
C4356 H4348 0.929 . S
C4356 C4357 1.366 1_565 S
C4356 C4358 1.384 . S
C4357 C4356 1.366 1_545 S
C4357 C4363 1.391 . S
C4358 H4349 0.930 . S
C4358 C4356 1.384 . S
C4358 C4359 1.372 . S
C4359 C4358 1.372 . S
C4359 C4360 1.400 . S
C4359 C4364 1.490 . S
C4360 H4350 0.930 . S
C4360 C4359 1.400 . S
C4360 C4363 1.386 1_565 S
H4361 C4377 0.930 . S
H4362 C4378 0.931 . S
C4363 H4351 0.929 . S
C4363 C4357 1.391 . S
C4363 C4360 1.386 1_545 S
C4364 C4359 1.490 . S
C4364 C4366 1.395 . S
C4364 C4367 1.403 . S
H4365 C4371 0.930 . S
C4366 H4352 0.930 . S
C4366 C4364 1.395 . S
C4366 C4369 1.403 . S
C4367 C4364 1.403 . S
C4367 C4368 1.524 . S
C4367 C4371 1.400 . S
C4368 H4353 0.960 . S
C4368 H4354 0.960 . S
C4368 H4355 0.960 . S
C4368 C4367 1.524 . S
C4369 C4366 1.403 . S
C4369 C4370 1.392 . S
C4369 C4373 1.495 . S
C4370 C4369 1.392 . S
C4370 C4371 1.385 . S
C4370 C4372 1.478 . S
C4371 H4365 0.930 . S
C4371 C4367 1.400 . S
C4371 C4370 1.385 . S
C4372 C4370 1.478 . S
C4372 C4374 1.381 . S
C4372 C4378 1.383 . S
C4373 C4369 1.495 . S
C4373 H4379 0.959 . S
C4373 H4380 0.961 . S
C4373 H4381 0.960 . S
C4374 C4372 1.381 . S
C4374 C4375 1.394 . S
C4374 H4382 0.930 . S
C4375 C4374 1.394 . S
C4375 C4376 1.383 . S
C4375 H4383 0.929 . S
C4376 C4375 1.383 . S
C4376 C4377 1.377 . S
C4377 H4361 0.930 . S
C4377 C4376 1.377 . S
C4377 C4378 1.379 . S
C4378 H4362 0.931 . S
C4378 C4372 1.383 . S
C4378 C4377 1.379 . S
H4379 C4373 0.959 . S
H4380 C4373 0.961 . S
H4381 C4373 0.960 . S
H4382 C4374 0.930 . S
H4383 C4375 0.929 . S
H4384 C4392 0.929 . S
H4385 C4394 0.930 . S
H4386 C4396 0.930 . S
H4387 C4399 0.929 . S
H4388 C4402 0.930 . S
H4389 C4404 0.960 . S
H4390 C4404 0.960 . S
H4391 C4404 0.960 . S
C4392 H4384 0.929 . S
C4392 C4393 1.377 . S
C4392 C4394 1.384 . S
C4393 C4392 1.377 . S
C4393 C4399 1.390 . S
C4394 H4385 0.930 . S
C4394 C4392 1.384 . S
C4394 C4395 1.372 . S
C4395 C4394 1.372 . S
C4395 C4396 1.400 . S
C4395 C4400 1.490 . S
C4396 H4386 0.930 . S
C4396 C4395 1.400 . S
C4396 C4399 1.386 . S
H4397 C4413 0.930 . S
H4398 C4414 0.931 . S
C4399 H4387 0.929 . S
C4399 C4393 1.390 . S
C4399 C4396 1.386 . S
C4400 C4395 1.490 . S
C4400 C4402 1.395 . S
C4400 C4403 1.403 . S
H4401 C4407 0.930 . S
C4402 H4388 0.930 . S
C4402 C4400 1.395 . S
C4402 C4405 1.403 . S
C4403 C4400 1.403 . S
C4403 C4404 1.524 . S
C4403 C4407 1.400 . S
C4404 H4389 0.960 . S
C4404 H4390 0.960 . S
C4404 H4391 0.960 . S
C4404 C4403 1.524 . S
C4405 C4402 1.403 . S
C4405 C4406 1.392 . S
C4405 C4409 1.495 . S
C4406 C4405 1.392 . S
C4406 C4407 1.385 . S
C4406 C4408 1.478 . S
C4407 H4401 0.930 . S
C4407 C4403 1.400 . S
C4407 C4406 1.385 . S
C4408 C4406 1.478 . S
C4408 C4410 1.381 . S
C4408 C4414 1.383 . S
C4409 C4405 1.495 . S
C4409 H4415 0.959 . S
C4409 H4416 0.961 . S
C4409 H4417 0.960 . S
C4410 C4408 1.381 . S
C4410 C4411 1.394 . S
C4410 H4418 0.930 . S
C4411 C4410 1.394 . S
C4411 C4412 1.383 . S
C4411 H4419 0.929 . S
C4412 C4411 1.383 . S
C4412 C4413 1.377 . S
C4413 H4397 0.930 . S
C4413 C4412 1.377 . S
C4413 C4414 1.379 . S
C4414 H4398 0.931 . S
C4414 C4408 1.383 . S
C4414 C4413 1.379 . S
H4415 C4409 0.959 . S
H4416 C4409 0.961 . S
H4417 C4409 0.960 . S
H4418 C4410 0.930 . S
H4419 C4411 0.929 . S
H4420 C4428 0.929 . S
H4421 C4430 0.930 . S
H4422 C4432 0.930 . S
H4423 C4435 0.929 . S
H4424 C4438 0.930 . S
H4425 C4440 0.960 . S
H4426 C4440 0.960 . S
H4427 C4440 0.960 . S
C4428 H4420 0.929 . S
C4428 C4429 1.377 . S
C4428 C4430 1.384 . S
C4429 C4428 1.377 . S
C4429 C4435 1.390 . S
C4430 H4421 0.930 . S
C4430 C4428 1.384 . S
C4430 C4431 1.372 . S
C4431 C4430 1.372 . S
C4431 C4432 1.400 . S
C4431 C4436 1.490 . S
C4432 H4422 0.930 . S
C4432 C4431 1.400 . S
C4432 C4435 1.386 . S
H4433 C4449 0.930 . S
H4434 C4450 0.931 . S
C4435 H4423 0.929 . S
C4435 C4429 1.390 . S
C4435 C4432 1.386 . S
C4436 C4431 1.490 . S
C4436 C4438 1.395 . S
C4436 C4439 1.403 . S
H4437 C4443 0.930 . S
C4438 H4424 0.930 . S
C4438 C4436 1.395 . S
C4438 C4441 1.403 . S
C4439 C4436 1.403 . S
C4439 C4440 1.524 . S
C4439 C4443 1.400 . S
C4440 H4425 0.960 . S
C4440 H4426 0.960 . S
C4440 H4427 0.960 . S
C4440 C4439 1.524 . S
C4441 C4438 1.403 . S
C4441 C4442 1.392 . S
C4441 C4445 1.495 . S
C4442 C4441 1.392 . S
C4442 C4443 1.385 . S
C4442 C4444 1.478 . S
C4443 H4437 0.930 . S
C4443 C4439 1.400 . S
C4443 C4442 1.385 . S
C4444 C4442 1.478 . S
C4444 C4446 1.381 . S
C4444 C4450 1.383 . S
C4445 C4441 1.495 . S
C4445 H4451 0.959 . S
C4445 H4452 0.961 . S
C4445 H4453 0.960 . S
C4446 C4444 1.381 . S
C4446 C4447 1.394 . S
C4446 H4454 0.930 . S
C4447 C4446 1.394 . S
C4447 C4448 1.383 . S
C4447 H4455 0.929 . S
C4448 C4447 1.383 . S
C4448 C4449 1.377 . S
C4449 H4433 0.930 . S
C4449 C4448 1.377 . S
C4449 C4450 1.379 . S
C4450 H4434 0.931 . S
C4450 C4444 1.383 . S
C4450 C4449 1.379 . S
H4451 C4445 0.959 . S
H4452 C4445 0.961 . S
H4453 C4445 0.960 . S
H4454 C4446 0.930 . S
H4455 C4447 0.929 . S
H4456 C4464 0.929 . S
H4457 C4466 0.930 . S
H4458 C4468 0.930 . S
H4459 C4471 0.929 . S
H4460 C4474 0.930 . S
H4461 C4476 0.960 . S
H4462 C4476 0.960 . S
H4463 C4476 0.960 . S
C4464 H4456 0.929 . S
C4464 C4465 1.377 . S
C4464 C4466 1.384 . S
C4465 C4464 1.377 . S
C4465 C4471 1.390 . S
C4466 H4457 0.930 . S
C4466 C4464 1.384 . S
C4466 C4467 1.372 . S
C4467 C4466 1.372 . S
C4467 C4468 1.400 . S
C4467 C4472 1.490 . S
C4468 H4458 0.930 . S
C4468 C4467 1.400 . S
C4468 C4471 1.386 . S
H4469 C4485 0.930 . S
H4470 C4486 0.931 . S
C4471 H4459 0.929 . S
C4471 C4465 1.390 . S
C4471 C4468 1.386 . S
C4472 C4467 1.490 . S
C4472 C4474 1.395 . S
C4472 C4475 1.403 . S
H4473 C4479 0.930 . S
C4474 H4460 0.930 . S
C4474 C4472 1.395 . S
C4474 C4477 1.403 . S
C4475 C4472 1.403 . S
C4475 C4476 1.524 . S
C4475 C4479 1.400 . S
C4476 H4461 0.960 . S
C4476 H4462 0.960 . S
C4476 H4463 0.960 . S
C4476 C4475 1.524 . S
C4477 C4474 1.403 . S
C4477 C4478 1.392 . S
C4477 C4481 1.495 . S
C4478 C4477 1.392 . S
C4478 C4479 1.385 . S
C4478 C4480 1.478 . S
C4479 H4473 0.930 . S
C4479 C4475 1.400 . S
C4479 C4478 1.385 . S
C4480 C4478 1.478 . S
C4480 C4482 1.381 . S
C4480 C4486 1.383 . S
C4481 C4477 1.495 . S
C4481 H4487 0.959 . S
C4481 H4488 0.961 . S
C4481 H4489 0.960 . S
C4482 C4480 1.381 . S
C4482 C4483 1.394 . S
C4482 H4490 0.930 . S
C4483 C4482 1.394 . S
C4483 C4484 1.383 . S
C4483 H4491 0.929 . S
C4484 C4483 1.383 . S
C4484 C4485 1.377 . S
C4485 H4469 0.930 . S
C4485 C4484 1.377 . S
C4485 C4486 1.379 . S
C4486 H4470 0.931 . S
C4486 C4480 1.383 . S
C4486 C4485 1.379 . S
H4487 C4481 0.959 . S
H4488 C4481 0.961 . S
H4489 C4481 0.960 . S
H4490 C4482 0.930 . S
H4491 C4483 0.929 . S
H4492 C4500 0.929 . S
H4493 C4502 0.930 . S
H4494 C4504 0.930 . S
H4495 C4507 0.929 . S
H4496 C4510 0.930 . S
H4497 C4512 0.960 . S
H4498 C4512 0.960 . S
H4499 C4512 0.960 . S
C4500 H4492 0.929 . S
C4500 C4501 1.377 . S
C4500 C4502 1.384 . S
C4501 C4500 1.377 . S
C4501 C4507 1.390 . S
C4502 H4493 0.930 . S
C4502 C4500 1.384 . S
C4502 C4503 1.372 . S
C4503 C4502 1.372 . S
C4503 C4504 1.400 . S
C4503 C4508 1.490 . S
C4504 H4494 0.930 . S
C4504 C4503 1.400 . S
C4504 C4507 1.386 . S
H4505 C4521 0.930 . S
H4506 C4522 0.931 . S
C4507 H4495 0.929 . S
C4507 C4501 1.390 . S
C4507 C4504 1.386 . S
C4508 C4503 1.490 . S
C4508 C4510 1.395 . S
C4508 C4511 1.403 . S
H4509 C4515 0.930 . S
C4510 H4496 0.930 . S
C4510 C4508 1.395 . S
C4510 C4513 1.403 . S
C4511 C4508 1.403 . S
C4511 C4512 1.524 . S
C4511 C4515 1.400 . S
C4512 H4497 0.960 . S
C4512 H4498 0.960 . S
C4512 H4499 0.960 . S
C4512 C4511 1.524 . S
C4513 C4510 1.403 . S
C4513 C4514 1.392 . S
C4513 C4517 1.495 . S
C4514 C4513 1.392 . S
C4514 C4515 1.385 . S
C4514 C4516 1.478 . S
C4515 H4509 0.930 . S
C4515 C4511 1.400 . S
C4515 C4514 1.385 . S
C4516 C4514 1.478 . S
C4516 C4518 1.381 . S
C4516 C4522 1.383 . S
C4517 C4513 1.495 . S
C4517 H4523 0.959 . S
C4517 H4524 0.961 . S
C4517 H4525 0.960 . S
C4518 C4516 1.381 . S
C4518 C4519 1.394 . S
C4518 H4526 0.930 . S
C4519 C4518 1.394 . S
C4519 C4520 1.383 . S
C4519 H4527 0.929 . S
C4520 C4519 1.383 . S
C4520 C4521 1.377 . S
C4521 H4505 0.930 . S
C4521 C4520 1.377 . S
C4521 C4522 1.379 . S
C4522 H4506 0.931 . S
C4522 C4516 1.383 . S
C4522 C4521 1.379 . S
H4523 C4517 0.959 . S
H4524 C4517 0.961 . S
H4525 C4517 0.960 . S
H4526 C4518 0.930 . S
H4527 C4519 0.929 . S
H4528 C4536 0.929 . S
H4529 C4538 0.930 . S
H4530 C4540 0.930 . S
H4531 C4543 0.929 . S
H4532 C4546 0.930 . S
H4533 C4548 0.960 . S
H4534 C4548 0.960 . S
H4535 C4548 0.960 . S
C4536 H4528 0.929 . S
C4536 C4537 1.377 1_565 S
C4536 C4538 1.384 1_565 S
C4537 C4536 1.377 1_545 S
C4537 C4543 1.390 . S
C4538 H4529 0.930 . S
C4538 C4536 1.384 1_545 S
C4538 C4539 1.372 . S
C4539 C4538 1.372 . S
C4539 C4540 1.400 . S
C4539 C4544 1.490 . S
C4540 H4530 0.930 . S
C4540 C4539 1.400 . S
C4540 C4543 1.386 . S
H4541 C4557 0.930 . S
H4542 C4558 0.931 . S
C4543 H4531 0.929 . S
C4543 C4537 1.390 . S
C4543 C4540 1.386 . S
C4544 C4539 1.490 . S
C4544 C4546 1.395 . S
C4544 C4547 1.403 . S
H4545 C4551 0.930 . S
C4546 H4532 0.930 . S
C4546 C4544 1.395 . S
C4546 C4549 1.403 . S
C4547 C4544 1.403 . S
C4547 C4548 1.524 . S
C4547 C4551 1.400 . S
C4548 H4533 0.960 . S
C4548 H4534 0.960 . S
C4548 H4535 0.960 . S
C4548 C4547 1.524 . S
C4549 C4546 1.403 . S
C4549 C4550 1.392 . S
C4549 C4553 1.495 . S
C4550 C4549 1.392 . S
C4550 C4551 1.385 . S
C4550 C4552 1.478 . S
C4551 H4545 0.930 . S
C4551 C4547 1.400 . S
C4551 C4550 1.385 . S
C4552 C4550 1.478 . S
C4552 C4554 1.381 . S
C4552 C4558 1.383 . S
C4553 C4549 1.495 . S
C4553 H4559 0.959 . S
C4553 H4560 0.961 . S
C4553 H4561 0.960 . S
C4554 C4552 1.381 . S
C4554 C4555 1.394 . S
C4554 H4562 0.930 . S
C4555 C4554 1.394 . S
C4555 C4556 1.383 . S
C4555 H4563 0.929 . S
C4556 C4555 1.383 . S
C4556 C4557 1.377 . S
C4557 H4541 0.930 . S
C4557 C4556 1.377 . S
C4557 C4558 1.379 . S
C4558 H4542 0.931 . S
C4558 C4552 1.383 . S
C4558 C4557 1.379 . S
H4559 C4553 0.959 . S
H4560 C4553 0.961 . S
H4561 C4553 0.960 . S
H4562 C4554 0.930 . S
H4563 C4555 0.929 . S
H4564 C4572 0.929 . S
H4565 C4574 0.930 . S
H4566 C4576 0.930 . S
H4567 C4579 0.929 1_565 S
H4568 C4582 0.930 . S
H4569 C4584 0.960 . S
H4570 C4584 0.960 . S
H4571 C4584 0.960 . S
C4572 H4564 0.929 . S
C4572 C4573 1.377 . S
C4572 C4574 1.384 . S
C4573 C4572 1.377 . S
C4573 C4579 1.390 . S
C4574 H4565 0.930 . S
C4574 C4572 1.384 . S
C4574 C4575 1.372 . S
C4575 C4574 1.372 . S
C4575 C4576 1.400 . S
C4575 C4580 1.490 . S
C4576 H4566 0.930 . S
C4576 C4575 1.400 . S
C4576 C4579 1.386 . S
H4577 C4593 0.930 . S
H4578 C4594 0.931 . S
C4579 H4567 0.929 1_545 S
C4579 C4573 1.390 . S
C4579 C4576 1.386 . S
C4580 C4575 1.490 . S
C4580 C4582 1.395 . S
C4580 C4583 1.403 . S
H4581 C4587 0.930 . S
C4582 H4568 0.930 . S
C4582 C4580 1.395 . S
C4582 C4585 1.403 . S
C4583 C4580 1.403 . S
C4583 C4584 1.524 . S
C4583 C4587 1.400 . S
C4584 H4569 0.960 . S
C4584 H4570 0.960 . S
C4584 H4571 0.960 . S
C4584 C4583 1.524 . S
C4585 C4582 1.403 . S
C4585 C4586 1.392 . S
C4585 C4589 1.495 . S
C4586 C4585 1.392 . S
C4586 C4587 1.385 . S
C4586 C4588 1.478 . S
C4587 H4581 0.930 . S
C4587 C4583 1.400 . S
C4587 C4586 1.385 . S
C4588 C4586 1.478 . S
C4588 C4590 1.381 . S
C4588 C4594 1.383 . S
C4589 C4585 1.495 . S
C4589 H4595 0.959 . S
C4589 H4596 0.961 . S
C4589 H4597 0.960 . S
C4590 C4588 1.381 . S
C4590 C4591 1.394 . S
C4590 H4598 0.930 . S
C4591 C4590 1.394 . S
C4591 C4592 1.383 . S
C4591 H4599 0.929 . S
C4592 C4591 1.383 . S
C4592 C4593 1.377 . S
C4593 H4577 0.930 . S
C4593 C4592 1.377 . S
C4593 C4594 1.379 . S
C4594 H4578 0.931 . S
C4594 C4588 1.383 . S
C4594 C4593 1.379 . S
H4595 C4589 0.959 . S
H4596 C4589 0.961 . S
H4597 C4589 0.960 . S
H4598 C4590 0.930 . S
H4599 C4591 0.929 . S
H4600 C4608 0.929 . S
H4601 C4610 0.930 . S
H4602 C4612 0.930 . S
H4603 C4615 0.929 . S
H4604 C4618 0.930 . S
H4605 C4620 0.960 . S
H4606 C4620 0.960 . S
H4607 C4620 0.960 . S
C4608 H4600 0.929 . S
C4608 C4609 1.377 . S
C4608 C4610 1.384 . S
C4609 C4608 1.377 . S
C4609 C4615 1.390 . S
C4610 H4601 0.930 . S
C4610 C4608 1.384 . S
C4610 C4611 1.372 . S
C4611 C4610 1.372 . S
C4611 C4612 1.400 . S
C4611 C4616 1.490 . S
C4612 H4602 0.930 . S
C4612 C4611 1.400 . S
C4612 C4615 1.386 . S
H4613 C4629 0.949 . S
H4614 C4630 0.931 . S
C4615 H4603 0.929 . S
C4615 C4609 1.390 . S
C4615 C4612 1.386 . S
C4616 C4611 1.490 . S
C4616 C4618 1.395 . S
C4616 C4619 1.403 . S
H4617 C4623 0.930 . S
C4618 H4604 0.930 . S
C4618 C4616 1.395 . S
C4618 C4621 1.403 . S
C4619 C4616 1.403 . S
C4619 C4620 1.524 . S
C4619 C4623 1.400 . S
C4620 H4605 0.960 . S
C4620 H4606 0.960 . S
C4620 H4607 0.960 . S
C4620 C4619 1.524 . S
C4621 C4618 1.403 . S
C4621 C4622 1.392 . S
C4621 C4625 1.495 . S
C4622 C4621 1.392 . S
C4622 C4623 1.385 . S
C4622 C4624 1.478 . S
C4623 H4617 0.930 . S
C4623 C4619 1.400 . S
C4623 C4622 1.385 . S
C4624 C4622 1.478 . S
C4624 C4626 1.381 . S
C4624 C4630 1.383 . S
C4625 C4621 1.495 . S
C4625 H4631 0.959 . S
C4625 H4632 0.961 . S
C4625 H4633 0.960 . S
C4626 C4624 1.381 . S
C4626 C4627 1.394 . S
C4626 H4634 0.930 . S
C4627 C4626 1.394 . S
C4627 C4628 1.383 . S
C4627 H4635 0.929 . S
C4628 C4627 1.383 . S
C4628 C4629 1.375 1_565 S
C4629 H4613 0.949 . S
C4629 C4628 1.375 1_545 S
C4629 C4630 1.362 1_545 S
C4630 H4614 0.931 . S
C4630 C4624 1.383 . S
C4630 C4629 1.362 1_565 S
H4631 C4625 0.959 . S
H4632 C4625 0.961 . S
H4633 C4625 0.960 . S
H4634 C4626 0.930 . S
H4635 C4627 0.929 . S
H4636 C4644 0.929 . S
H4637 C4646 0.930 . S
H4638 C4648 0.930 . S
H4639 C4651 0.929 . S
H4640 C4654 0.930 . S
H4641 C4656 0.960 . S
H4642 C4656 0.960 . S
H4643 C4656 0.960 . S
C4644 H4636 0.929 . S
C4644 C4645 1.377 . S
C4644 C4646 1.384 . S
C4645 C4644 1.377 . S
C4645 C4651 1.390 . S
C4646 H4637 0.930 . S
C4646 C4644 1.384 . S
C4646 C4647 1.372 . S
C4647 C4646 1.372 . S
C4647 C4648 1.400 . S
C4647 C4652 1.490 . S
C4648 H4638 0.930 . S
C4648 C4647 1.400 . S
C4648 C4651 1.386 . S
H4649 C4665 0.930 . S
H4650 C4666 0.931 . S
C4651 H4639 0.929 . S
C4651 C4645 1.390 . S
C4651 C4648 1.386 . S
C4652 C4647 1.490 . S
C4652 C4654 1.395 . S
C4652 C4655 1.403 . S
H4653 C4659 0.930 . S
C4654 H4640 0.930 . S
C4654 C4652 1.395 . S
C4654 C4657 1.403 . S
C4655 C4652 1.403 . S
C4655 C4656 1.524 . S
C4655 C4659 1.400 . S
C4656 H4641 0.960 . S
C4656 H4642 0.960 . S
C4656 H4643 0.960 . S
C4656 C4655 1.524 . S
C4657 C4654 1.403 . S
C4657 C4658 1.392 . S
C4657 C4661 1.495 . S
C4658 C4657 1.392 . S
C4658 C4659 1.385 . S
C4658 C4660 1.478 . S
C4659 H4653 0.930 . S
C4659 C4655 1.400 . S
C4659 C4658 1.385 . S
C4660 C4658 1.478 . S
C4660 C4662 1.381 . S
C4660 C4666 1.383 . S
C4661 C4657 1.495 . S
C4661 H4667 0.959 . S
C4661 H4668 0.961 . S
C4661 H4669 0.960 . S
C4662 C4660 1.381 . S
C4662 C4663 1.394 1_565 S
C4662 H4670 0.930 . S
C4663 C4662 1.394 1_545 S
C4663 C4664 1.383 1_545 S
C4663 H4671 0.929 . S
C4664 C4663 1.383 1_565 S
C4664 C4665 1.377 . S
C4665 H4649 0.930 . S
C4665 C4664 1.377 . S
C4665 C4666 1.379 . S
C4666 H4650 0.931 . S
C4666 C4660 1.383 . S
C4666 C4665 1.379 . S
H4667 C4661 0.959 . S
H4668 C4661 0.961 . S
H4669 C4661 0.960 . S
H4670 C4662 0.930 . S
H4671 C4663 0.929 . S
H4672 C4680 0.929 . S
H4673 C4682 0.930 . S
H4674 C4684 0.930 . S
H4675 C4687 0.929 . S
H4676 C4690 0.930 . S
H4677 C4692 0.960 . S
H4678 C4692 0.960 . S
H4679 C4692 0.960 . S
C4680 H4672 0.929 . S
C4680 C4681 1.377 . S
C4680 C4682 1.384 . S
C4681 C4680 1.377 . S
C4681 C4687 1.390 . S
C4682 H4673 0.930 . S
C4682 C4680 1.384 . S
C4682 C4683 1.372 . S
C4683 C4682 1.372 . S
C4683 C4684 1.400 . S
C4683 C4688 1.490 . S
C4684 H4674 0.930 . S
C4684 C4683 1.400 . S
C4684 C4687 1.386 . S
H4685 C4701 0.930 . S
H4686 C4702 0.931 . S
C4687 H4675 0.929 . S
C4687 C4681 1.390 . S
C4687 C4684 1.386 . S
C4688 C4683 1.490 . S
C4688 C4690 1.395 . S
C4688 C4691 1.403 . S
H4689 C4695 0.930 . S
C4690 H4676 0.930 . S
C4690 C4688 1.395 . S
C4690 C4693 1.403 . S
C4691 C4688 1.403 . S
C4691 C4692 1.524 . S
C4691 C4695 1.400 . S
C4692 H4677 0.960 . S
C4692 H4678 0.960 . S
C4692 H4679 0.960 . S
C4692 C4691 1.524 . S
C4693 C4690 1.403 . S
C4693 C4694 1.392 . S
C4693 C4697 1.495 . S
C4694 C4693 1.392 . S
C4694 C4695 1.385 . S
C4694 C4696 1.478 . S
C4695 H4689 0.930 . S
C4695 C4691 1.400 . S
C4695 C4694 1.385 . S
C4696 C4694 1.478 . S
C4696 C4698 1.381 . S
C4696 C4702 1.383 . S
C4697 C4693 1.495 . S
C4697 H4703 0.959 . S
C4697 H4704 0.961 . S
C4697 H4705 0.960 . S
C4698 C4696 1.381 . S
C4698 C4699 1.394 . S
C4698 H4706 0.930 . S
C4699 C4698 1.394 . S
C4699 C4700 1.383 . S
C4699 H4707 0.929 . S
C4700 C4699 1.383 . S
C4700 C4701 1.377 . S
C4701 H4685 0.930 . S
C4701 C4700 1.377 . S
C4701 C4702 1.379 . S
C4702 H4686 0.931 . S
C4702 C4696 1.383 . S
C4702 C4701 1.379 . S
H4703 C4697 0.959 . S
H4704 C4697 0.961 . S
H4705 C4697 0.960 . S
H4706 C4698 0.930 . S
H4707 C4699 0.929 . S
H4708 C4716 0.929 . S
H4709 C4718 0.930 . S
H4710 C4720 0.930 . S
H4711 C4723 0.929 . S
H4712 C4726 0.930 . S
H4713 C4728 0.960 . S
H4714 C4728 0.960 . S
H4715 C4728 0.960 . S
C4716 H4708 0.929 . S
C4716 C4717 1.377 . S
C4716 C4718 1.384 . S
C4717 C4716 1.377 . S
C4717 C4723 1.390 . S
C4718 H4709 0.930 . S
C4718 C4716 1.384 . S
C4718 C4719 1.372 . S
C4719 C4718 1.372 . S
C4719 C4720 1.400 . S
C4719 C4724 1.490 . S
C4720 H4710 0.930 . S
C4720 C4719 1.400 . S
C4720 C4723 1.386 . S
H4721 C4737 0.930 . S
H4722 C4738 0.931 . S
C4723 H4711 0.929 . S
C4723 C4717 1.390 . S
C4723 C4720 1.386 . S
C4724 C4719 1.490 . S
C4724 C4726 1.395 . S
C4724 C4727 1.403 . S
H4725 C4731 0.930 . S
C4726 H4712 0.930 . S
C4726 C4724 1.395 . S
C4726 C4729 1.403 . S
C4727 C4724 1.403 . S
C4727 C4728 1.524 . S
C4727 C4731 1.400 . S
C4728 H4713 0.960 . S
C4728 H4714 0.960 . S
C4728 H4715 0.960 . S
C4728 C4727 1.524 . S
C4729 C4726 1.403 . S
C4729 C4730 1.392 . S
C4729 C4733 1.495 . S
C4730 C4729 1.392 . S
C4730 C4731 1.385 . S
C4730 C4732 1.478 . S
C4731 H4725 0.930 . S
C4731 C4727 1.400 . S
C4731 C4730 1.385 . S
C4732 C4730 1.478 . S
C4732 C4734 1.381 . S
C4732 C4738 1.383 . S
C4733 C4729 1.495 . S
C4733 H4739 0.959 . S
C4733 H4740 0.961 . S
C4733 H4741 0.960 . S
C4734 C4732 1.381 . S
C4734 C4735 1.394 . S
C4734 H4742 0.930 . S
C4735 C4734 1.394 . S
C4735 C4736 1.383 . S
C4735 H4743 0.929 . S
C4736 C4735 1.383 . S
C4736 C4737 1.377 . S
C4737 H4721 0.930 . S
C4737 C4736 1.377 . S
C4737 C4738 1.379 . S
C4738 H4722 0.931 . S
C4738 C4732 1.383 . S
C4738 C4737 1.379 . S
H4739 C4733 0.959 . S
H4740 C4733 0.961 . S
H4741 C4733 0.960 . S
H4742 C4734 0.930 . S
H4743 C4735 0.929 . S
H4744 C4752 0.929 . S
H4745 C4754 0.930 . S
H4746 C4756 0.930 . S
H4747 C4759 0.929 . S
H4748 C4762 0.930 . S
H4749 C4764 0.960 . S
H4750 C4764 0.960 . S
H4751 C4764 0.960 . S
C4752 H4744 0.929 . S
C4752 C4753 1.377 . S
C4752 C4754 1.384 . S
C4753 C4752 1.377 . S
C4753 C4759 1.390 . S
C4754 H4745 0.930 . S
C4754 C4752 1.384 . S
C4754 C4755 1.372 . S
C4755 C4754 1.372 . S
C4755 C4756 1.400 . S
C4755 C4760 1.490 . S
C4756 H4746 0.930 . S
C4756 C4755 1.400 . S
C4756 C4759 1.386 . S
H4757 C4773 0.930 . S
H4758 C4774 0.931 . S
C4759 H4747 0.929 . S
C4759 C4753 1.390 . S
C4759 C4756 1.386 . S
C4760 C4755 1.490 . S
C4760 C4762 1.395 . S
C4760 C4763 1.403 . S
H4761 C4767 0.930 . S
C4762 H4748 0.930 . S
C4762 C4760 1.395 . S
C4762 C4765 1.403 . S
C4763 C4760 1.403 . S
C4763 C4764 1.524 . S
C4763 C4767 1.400 . S
C4764 H4749 0.960 . S
C4764 H4750 0.960 . S
C4764 H4751 0.960 . S
C4764 C4763 1.524 . S
C4765 C4762 1.403 . S
C4765 C4766 1.392 . S
C4765 C4769 1.495 . S
C4766 C4765 1.392 . S
C4766 C4767 1.385 . S
C4766 C4768 1.478 . S
C4767 H4761 0.930 . S
C4767 C4763 1.400 . S
C4767 C4766 1.385 . S
C4768 C4766 1.478 . S
C4768 C4770 1.381 . S
C4768 C4774 1.383 . S
C4769 C4765 1.495 . S
C4769 H4775 0.959 . S
C4769 H4776 0.961 . S
C4769 H4777 0.960 . S
C4770 C4768 1.381 . S
C4770 C4771 1.394 . S
C4770 H4778 0.930 . S
C4771 C4770 1.394 . S
C4771 C4772 1.383 . S
C4771 H4779 0.929 . S
C4772 C4771 1.383 . S
C4772 C4773 1.377 . S
C4773 H4757 0.930 . S
C4773 C4772 1.377 . S
C4773 C4774 1.379 . S
C4774 H4758 0.931 . S
C4774 C4768 1.383 . S
C4774 C4773 1.379 . S
H4775 C4769 0.959 . S
H4776 C4769 0.961 . S
H4777 C4769 0.960 . S
H4778 C4770 0.930 . S
H4779 C4771 0.929 . S
H4780 C4788 0.929 . S
H4781 C4790 0.930 . S
H4782 C4792 0.930 . S
H4783 C4795 0.929 . S
H4784 C4798 0.930 . S
H4785 C4800 0.960 . S
H4786 C4800 0.960 . S
H4787 C4800 0.960 . S
C4788 H4780 0.929 . S
C4788 C4789 1.377 . S
C4788 C4790 1.384 . S
C4789 C4788 1.377 . S
C4789 C4795 1.390 . S
C4790 H4781 0.930 . S
C4790 C4788 1.384 . S
C4790 C4791 1.372 . S
C4791 C4790 1.372 . S
C4791 C4792 1.400 . S
C4791 C4796 1.490 . S
C4792 H4782 0.930 . S
C4792 C4791 1.400 . S
C4792 C4795 1.386 . S
H4793 C4809 0.930 . S
H4794 C4810 0.931 . S
C4795 H4783 0.929 . S
C4795 C4789 1.390 . S
C4795 C4792 1.386 . S
C4796 C4791 1.490 . S
C4796 C4798 1.395 . S
C4796 C4799 1.403 . S
H4797 C4803 0.930 . S
C4798 H4784 0.930 . S
C4798 C4796 1.395 . S
C4798 C4801 1.403 . S
C4799 C4796 1.403 . S
C4799 C4800 1.524 . S
C4799 C4803 1.400 . S
C4800 H4785 0.960 . S
C4800 H4786 0.960 . S
C4800 H4787 0.960 . S
C4800 C4799 1.524 . S
C4801 C4798 1.403 . S
C4801 C4802 1.392 . S
C4801 C4805 1.495 . S
C4802 C4801 1.392 . S
C4802 C4803 1.385 . S
C4802 C4804 1.478 . S
C4803 H4797 0.930 . S
C4803 C4799 1.400 . S
C4803 C4802 1.385 . S
C4804 C4802 1.478 . S
C4804 C4806 1.381 . S
C4804 C4810 1.383 . S
C4805 C4801 1.495 . S
C4805 H4811 0.959 . S
C4805 H4812 0.961 . S
C4805 H4813 0.960 . S
C4806 C4804 1.381 . S
C4806 C4807 1.394 . S
C4806 H4814 0.930 . S
C4807 C4806 1.394 . S
C4807 C4808 1.383 . S
C4807 H4815 0.929 . S
C4808 C4807 1.383 . S
C4808 C4809 1.377 . S
C4809 H4793 0.930 . S
C4809 C4808 1.377 . S
C4809 C4810 1.379 . S
C4810 H4794 0.931 . S
C4810 C4804 1.383 . S
C4810 C4809 1.379 . S
H4811 C4805 0.959 . S
H4812 C4805 0.961 . S
H4813 C4805 0.960 . S
H4814 C4806 0.930 . S
H4815 C4807 0.929 . S
H4816 C4824 0.929 . S
H4817 C4826 0.930 . S
H4818 C4828 0.930 . S
H4819 C4831 0.929 . S
H4820 C4834 0.930 . S
H4821 C4836 0.960 . S
H4822 C4836 0.960 . S
H4823 C4836 0.960 . S
C4824 H4816 0.929 . S
C4824 C4825 1.377 . S
C4824 C4826 1.384 . S
C4825 C4824 1.377 . S
C4825 C4831 1.390 . S
C4826 H4817 0.930 . S
C4826 C4824 1.384 . S
C4826 C4827 1.372 . S
C4827 C4826 1.372 . S
C4827 C4828 1.400 . S
C4827 C4832 1.490 . S
C4828 H4818 0.930 . S
C4828 C4827 1.400 . S
C4828 C4831 1.386 . S
H4829 C4845 0.930 . S
H4830 C4846 0.931 . S
C4831 H4819 0.929 . S
C4831 C4825 1.390 . S
C4831 C4828 1.386 . S
C4832 C4827 1.490 . S
C4832 C4834 1.395 . S
C4832 C4835 1.403 . S
H4833 C4839 0.930 . S
C4834 H4820 0.930 . S
C4834 C4832 1.395 . S
C4834 C4837 1.403 . S
C4835 C4832 1.403 . S
C4835 C4836 1.524 . S
C4835 C4839 1.400 . S
C4836 H4821 0.960 . S
C4836 H4822 0.960 . S
C4836 H4823 0.960 . S
C4836 C4835 1.524 . S
C4837 C4834 1.403 . S
C4837 C4838 1.392 . S
C4837 C4841 1.495 . S
C4838 C4837 1.392 . S
C4838 C4839 1.385 . S
C4838 C4840 1.478 . S
C4839 H4833 0.930 . S
C4839 C4835 1.400 . S
C4839 C4838 1.385 . S
C4840 C4838 1.478 . S
C4840 C4842 1.381 . S
C4840 C4846 1.383 . S
C4841 C4837 1.495 . S
C4841 H4847 0.959 . S
C4841 H4848 0.961 . S
C4841 H4849 0.960 . S
C4842 C4840 1.381 . S
C4842 C4843 1.394 . S
C4842 H4850 0.930 . S
C4843 C4842 1.394 . S
C4843 C4844 1.383 . S
C4843 H4851 0.929 1_545 S
C4844 C4843 1.383 . S
C4844 C4845 1.377 . S
C4845 H4829 0.930 . S
C4845 C4844 1.377 . S
C4845 C4846 1.379 . S
C4846 H4830 0.931 . S
C4846 C4840 1.383 . S
C4846 C4845 1.379 . S
H4847 C4841 0.959 . S
H4848 C4841 0.961 . S
H4849 C4841 0.960 . S
H4850 C4842 0.930 . S
H4851 C4843 0.929 1_565 S
H4852 C4860 0.908 1_565 S
H4853 C4862 0.930 . S
H4854 C4864 0.930 . S
H4855 C4867 0.929 . S
H4856 C4870 0.930 . S
H4857 C4872 0.960 . S
H4858 C4872 0.960 . S
H4859 C4872 0.960 . S
C4860 H4852 0.908 1_545 S
C4860 C4861 1.379 . S
C4860 C4862 1.403 . S
C4861 C4860 1.379 . S
C4861 C4867 1.390 . S
C4862 H4853 0.930 . S
C4862 C4860 1.403 . S
C4862 C4863 1.372 . S
C4863 C4862 1.372 . S
C4863 C4864 1.400 . S
C4863 C4868 1.490 . S
C4864 H4854 0.930 . S
C4864 C4863 1.400 . S
C4864 C4867 1.386 . S
H4865 C4881 0.930 . S
H4866 C4882 0.931 . S
C4867 H4855 0.929 . S
C4867 C4861 1.390 . S
C4867 C4864 1.386 . S
C4868 C4863 1.490 . S
C4868 C4870 1.395 . S
C4868 C4871 1.403 . S
H4869 C4875 0.930 . S
C4870 H4856 0.930 . S
C4870 C4868 1.395 . S
C4870 C4873 1.403 . S
C4871 C4868 1.403 . S
C4871 C4872 1.524 . S
C4871 C4875 1.400 . S
C4872 H4857 0.960 . S
C4872 H4858 0.960 . S
C4872 H4859 0.960 . S
C4872 C4871 1.524 . S
C4873 C4870 1.403 . S
C4873 C4874 1.392 . S
C4873 C4877 1.495 . S
C4874 C4873 1.392 . S
C4874 C4875 1.385 . S
C4874 C4876 1.478 . S
C4875 H4869 0.930 . S
C4875 C4871 1.400 . S
C4875 C4874 1.385 . S
C4876 C4874 1.478 . S
C4876 C4878 1.381 . S
C4876 C4882 1.383 . S
C4877 C4873 1.495 . S
C4877 H4883 0.959 . S
C4877 H4884 0.961 . S
C4877 H4885 0.960 . S
C4878 C4876 1.381 . S
C4878 C4879 1.394 . S
C4878 H4886 0.930 . S
C4879 C4878 1.394 . S
C4879 C4880 1.383 . S
C4879 H4887 0.929 . S
C4880 C4879 1.383 . S
C4880 C4881 1.377 . S
C4881 H4865 0.930 . S
C4881 C4880 1.377 . S
C4881 C4882 1.379 . S
C4882 H4866 0.931 . S
C4882 C4876 1.383 . S
C4882 C4881 1.379 . S
H4883 C4877 0.959 . S
H4884 C4877 0.961 . S
H4885 C4877 0.960 . S
H4886 C4878 0.930 . S
H4887 C4879 0.929 . S
H4888 C4896 0.929 . S
H4889 C4898 0.930 . S
H4890 C4900 0.930 . S
H4891 C4903 0.929 . S
H4892 C4906 0.930 . S
H4893 C4908 0.960 . S
H4894 C4908 0.960 . S
H4895 C4908 0.960 . S
C4896 H4888 0.929 . S
C4896 C4897 1.377 . S
C4896 C4898 1.384 . S
C4897 C4896 1.377 . S
C4897 C4903 1.390 . S
C4898 H4889 0.930 . S
C4898 C4896 1.384 . S
C4898 C4899 1.372 . S
C4899 C4898 1.372 . S
C4899 C4900 1.400 . S
C4899 C4904 1.490 . S
C4900 H4890 0.930 . S
C4900 C4899 1.400 . S
C4900 C4903 1.386 . S
H4901 C4917 0.930 . S
H4902 C4918 0.931 . S
C4903 H4891 0.929 . S
C4903 C4897 1.390 . S
C4903 C4900 1.386 . S
C4904 C4899 1.490 . S
C4904 C4906 1.395 . S
C4904 C4907 1.403 . S
H4905 C4911 0.930 . S
C4906 H4892 0.930 . S
C4906 C4904 1.395 . S
C4906 C4909 1.403 . S
C4907 C4904 1.403 . S
C4907 C4908 1.524 . S
C4907 C4911 1.400 . S
C4908 H4893 0.960 . S
C4908 H4894 0.960 . S
C4908 H4895 0.960 . S
C4908 C4907 1.524 . S
C4909 C4906 1.403 . S
C4909 C4910 1.392 . S
C4909 C4913 1.495 . S
C4910 C4909 1.392 . S
C4910 C4911 1.385 . S
C4910 C4912 1.478 . S
C4911 H4905 0.930 . S
C4911 C4907 1.400 . S
C4911 C4910 1.385 . S
C4912 C4910 1.478 . S
C4912 C4914 1.381 . S
C4912 C4918 1.383 . S
C4913 C4909 1.495 . S
C4913 H4919 0.959 . S
C4913 H4920 0.961 . S
C4913 H4921 0.960 . S
C4914 C4912 1.381 . S
C4914 C4915 1.394 . S
C4914 H4922 0.930 . S
C4915 C4914 1.394 . S
C4915 C4916 1.383 . S
C4915 H4923 0.929 . S
C4916 C4915 1.383 . S
C4916 C4917 1.377 . S
C4917 H4901 0.930 . S
C4917 C4916 1.377 . S
C4917 C4918 1.379 . S
C4918 H4902 0.931 . S
C4918 C4912 1.383 . S
C4918 C4917 1.379 . S
H4919 C4913 0.959 . S
H4920 C4913 0.961 . S
H4921 C4913 0.960 . S
H4922 C4914 0.930 . S
H4923 C4915 0.929 . S
H4924 C4932 0.929 . S
H4925 C4934 0.930 . S
H4926 C4936 0.930 . S
H4927 C4939 0.929 . S
H4928 C4942 0.930 . S
H4929 C4944 0.960 . S
H4930 C4944 0.960 . S
H4931 C4944 0.960 . S
C4932 H4924 0.929 . S
C4932 C4933 1.377 . S
C4932 C4934 1.384 . S
C4933 C4932 1.377 . S
C4933 C4939 1.390 . S
C4934 H4925 0.930 . S
C4934 C4932 1.384 . S
C4934 C4935 1.372 . S
C4935 C4934 1.372 . S
C4935 C4936 1.400 . S
C4935 C4940 1.490 . S
C4936 H4926 0.930 . S
C4936 C4935 1.400 . S
C4936 C4939 1.386 . S
H4937 C4953 0.930 . S
H4938 C4954 0.931 . S
C4939 H4927 0.929 . S
C4939 C4933 1.390 . S
C4939 C4936 1.386 . S
C4940 C4935 1.490 . S
C4940 C4942 1.395 . S
C4940 C4943 1.403 . S
H4941 C4947 0.930 . S
C4942 H4928 0.930 . S
C4942 C4940 1.395 . S
C4942 C4945 1.403 . S
C4943 C4940 1.403 . S
C4943 C4944 1.524 . S
C4943 C4947 1.400 . S
C4944 H4929 0.960 . S
C4944 H4930 0.960 . S
C4944 H4931 0.960 . S
C4944 C4943 1.524 . S
C4945 C4942 1.403 . S
C4945 C4946 1.392 . S
C4945 C4949 1.495 . S
C4946 C4945 1.392 . S
C4946 C4947 1.385 . S
C4946 C4948 1.478 . S
C4947 H4941 0.930 . S
C4947 C4943 1.400 . S
C4947 C4946 1.385 . S
C4948 C4946 1.478 . S
C4948 C4950 1.381 . S
C4948 C4954 1.383 . S
C4949 C4945 1.495 . S
C4949 H4955 0.959 . S
C4949 H4956 0.961 . S
C4949 H4957 0.960 . S
C4950 C4948 1.381 . S
C4950 C4951 1.394 . S
C4950 H4958 0.930 . S
C4951 C4950 1.394 . S
C4951 C4952 1.383 . S
C4951 H4959 0.929 1_565 S
C4952 C4951 1.383 . S
C4952 C4953 1.377 . S
C4953 H4937 0.930 . S
C4953 C4952 1.377 . S
C4953 C4954 1.379 . S
C4954 H4938 0.931 . S
C4954 C4948 1.383 . S
C4954 C4953 1.379 . S
H4955 C4949 0.959 . S
H4956 C4949 0.961 . S
H4957 C4949 0.960 . S
H4958 C4950 0.930 . S
H4959 C4951 0.929 1_545 S
C937 C303 3.415 . S
C956 C13 3.419 . S
C973 C42 3.422 . S
C992 C332 3.405 . S
C1009 C245 3.416 . S
C1028 C71 3.407 . S
C1045 C274 3.416 . S
C1064 C100 3.409 . S
C1081 C129 3.422 . S
C1100 C419 3.431 . S
C1117 C448 3.420 . S
C1136 C158 3.418 . S
C1153 C187 3.417 . S
C1172 C361 3.401 . S
C1189 C216 3.422 . S
C1208 C390 3.431 . S
C1225 C767 3.420 . S
C1244 C477 3.428 . S
C1261 C506 3.415 . S
C1280 C796 3.422 . S
C1297 C709 3.422 . S
C1316 C535 3.404 . S
C1333 C564 3.420 . S
C1352 C738 3.429 . S
C1369 C593 3.422 . S
C1388 C883 3.431 . S
C1405 C912 3.420 . S
C1424 C622 3.417 . S
C1441 C651 3.422 . S
C1460 C825 3.430 . S
C1477 C854 3.422 . S
C1496 C680 3.431 . S
C1513 C3 0.818 . S
C1532 C32 0.839 1_545 S
C1549 C61 0.812 1_545 S
C1568 C90 0.790 . S
C1585 C148 0.812 1_565 S
C1604 C119 0.789 . S
C1621 C206 0.819 . S
C1640 C177 0.807 1_565 S
C1657 C264 0.810 . S
C1676 C235 0.788 . S
C1693 C293 0.818 . S
C1712 C322 0.814 . S
C1729 C351 0.817 . S
C1748 C380 0.838 . S
C1765 C438 0.815 . S
C1784 C409 0.790 . S
C1801 C467 0.818 . S
C1820 C496 0.815 1_545 S
C1837 C554 0.810 . S
C1856 C525 0.814 1_545 S
C1873 C612 0.810 1_565 S
C1892 C583 0.821 . S
C1909 C641 0.816 1_565 S
C1928 C670 0.839 . S
C1945 C699 0.811 . S
C1964 C728 0.814 . S
C1981 C757 0.820 . S
C2000 C786 0.831 . S
C2017 C815 0.819 . S
C2036 C844 0.828 . S
C2053 C873 0.809 . S
C2072 C902 0.821 . S
C2089 C5 2.539 . S
C2108 C63 2.536 . S
C2125 C34 2.538 . S
C2144 C92 2.543 . S
C2161 C121 2.539 . S
C2180 C179 2.541 . S
C2197 C150 2.535 . S
C2216 C208 2.525 . S
C2233 C237 2.539 . S
C2252 C295 2.541 . S
C2269 C266 2.539 . S
C2288 C324 2.540 . S
C2305 C411 2.539 . S
C2324 C353 2.543 . S
C2341 C382 2.537 . S
C2360 C440 2.524 . S
C2377 C527 2.535 . S
C2396 C469 2.528 . S
C2413 C498 2.535 . S
C2432 C556 2.535 . S
C2449 C643 2.536 . S
C2468 C585 2.533 . S
C2485 C614 2.537 . S
C2504 C672 2.524 . S
C2521 C701 2.536 . S
C2540 C759 2.523 . S
C2557 C730 2.537 . S
C2576 C788 2.522 . S
C2593 C817 2.536 . S
C2612 C875 2.535 . S
C2629 C846 2.539 . S
C2648 C904 2.541 . S
C2665 C21 1.204 . S
C2684 C108 1.220 . S
C2701 C79 1.203 . S
C2720 C50 1.207 . S
C2737 C137 1.208 . S
C2756 C224 1.188 . S
C2773 C166 1.206 . S
C2792 C195 1.189 . S
C2809 C340 1.211 . S
C2828 C253 1.247 . S
C2845 C311 1.213 . S
C2864 C282 1.250 . S
C2881 C369 1.212 . S
C2900 C456 1.249 . S
C2917 C398 1.203 . S
C2936 C427 1.227 . S
C2953 C485 1.213 . S
C2972 C572 1.250 . S
C2989 C514 1.212 . S
C3008 C543 1.249 . S
C3025 C601 1.215 . S
C3044 C688 1.211 . S
C3061 C630 1.206 . S
C3080 C659 1.189 . S
C3097 C717 1.205 . S
C3116 C804 1.188 . S
C3133 C775 1.211 . S
C3152 C746 1.247 . S
C3169 C920 1.203 . S
C3188 C833 1.214 . S
C3205 C891 1.212 . S
C3224 C862 1.249 . S
C3241 C131 2.476 . S
C3260 C15 2.465 . S
C3277 C856 2.474 . S
C3296 C44 2.456 . S
C3313 C73 2.472 . S
C3332 C421 2.448 . S
C3349 C682 2.471 . S
C3368 C102 2.446 . S
C3385 C160 2.467 . S
C3404 C740 2.466 . S
C3421 C189 2.476 . S
C3440 C305 2.480 . S
C3457 C218 2.466 . S
C3476 C566 2.452 . S
C3493 C363 2.473 . S
C3512 C247 2.451 . S
C3529 C624 2.471 . S
C3548 C276 2.487 . S
C3565 C914 2.473 . S
C3584 C334 2.450 . S
C3601 C508 2.476 . S
C3620 C392 2.482 . S
C3637 C798 2.476 . S
C3656 C450 2.483 . S
C3673 C595 2.469 . S
C3692 C479 2.482 . S
C3709 C537 2.476 . S
C3728 C885 2.470 . S
C3745 C769 2.476 . S
C3764 C653 2.483 . S
C3781 C827 2.473 . S
C3800 C711 2.491 . S
C3817 C8 0.872 . S
C3836 C66 0.865 . S
C3853 C95 0.867 . S
C3872 C37 0.822 . S
C3889 C124 0.874 . S
C3908 C182 0.928 . S
C3925 C153 0.878 . S
C3944 C211 0.851 . S
C3961 C298 0.868 . S
C3980 C240 0.821 . S
C3997 C327 0.900 . S
C4016 C269 0.931 . S
C4033 C356 0.905 . S
C4052 C414 0.827 . S
C4069 C385 0.891 . S
C4088 C443 0.827 . S
C4105 C472 0.891 . S
C4124 C530 0.930 . S
C4141 C501 0.887 . S
C4160 C559 0.929 . S
C4177 C646 0.870 . S
C4196 C588 0.934 . S
C4213 C675 0.883 . S
C4232 C617 0.896 . S
C4249 C704 0.904 . S
C4268 C762 0.908 . S
C4285 C733 0.867 . S
C4304 C791 0.826 . S
C4321 C820 0.890 . S
C4340 C878 0.906 . S
C4357 C907 0.902 . S
C4376 C849 0.824 . S
C4393 C39 3.288 . S
C4412 C10 3.289 . S
C4429 C97 3.287 . S
C4448 C68 3.266 . S
C4465 C155 3.288 . S
C4484 C126 3.295 . S
C4501 C213 3.287 . S
C4520 C184 3.285 . S
C4537 C242 3.283 1_545 S
C4556 C271 3.293 . S
C4573 C329 3.286 1_545 S
C4592 C300 3.266 . S
C4609 C387 3.284 . S
C4628 C358 3.277 1_565 S
C4645 C416 3.286 . S
C4664 C445 3.279 1_565 S
C4681 C474 3.289 . S
C4700 C503 3.273 . S
C4717 C561 3.286 . S
C4736 C532 3.267 . S
C4753 C590 3.287 . S
C4772 C619 3.289 . S
C4789 C648 3.284 . S
C4808 C677 3.277 . S
C4825 C735 3.286 . S
C4844 C706 3.267 1_545 S
C4861 C793 3.284 1_545 S
C4880 C764 3.295 . S
C4897 C851 3.288 . S
C4916 C822 3.295 1_565 S
C4933 C880 3.284 . S
C4952 C909 3.270 1_565 S
