# Generated by pormake.
# Topology ukr, (4)-cn, num edge types: 1
# Building blocks:
#     Node 0, Type 0, BuildingBlock: NAHDIM_clean_sbu_0, # of connection points: 4
#     Node 1, Type 0, BuildingBlock: NAHDIM_clean_sbu_0, # of connection points: 4
#     Node 2, Type 0, BuildingBlock: NAHDIM_clean_sbu_0, # of connection points: 4
#     Node 3, Type 0, BuildingBlock: NAHDIM_clean_sbu_0, # of connection points: 4
#     Node 4, Type 0, BuildingBlock: NAHDIM_clean_sbu_0, # of connection points: 4
#     Node 5, Type 0, BuildingBlock: NAHDIM_clean_sbu_0, # of connection points: 4
#     Node 6, Type 0, BuildingBlock: NAHDIM_clean_sbu_0, # of connection points: 4
#     Node 7, Type 0, BuildingBlock: NAHDIM_clean_sbu_0, # of connection points: 4
#     Node 8, Type 0, BuildingBlock: NAHDIM_clean_sbu_0, # of connection points: 4
#     Node 9, Type 0, BuildingBlock: NAHDIM_clean_sbu_0, # of connection points: 4
#     Node 10, Type 0, BuildingBlock: NAHDIM_clean_sbu_0, # of connection points: 4
#     Node 11, Type 0, BuildingBlock: NAHDIM_clean_sbu_0, # of connection points: 4
#     Node 12, Type 0, BuildingBlock: NAHDIM_clean_sbu_0, # of connection points: 4
#     Node 13, Type 0, BuildingBlock: NAHDIM_clean_sbu_0, # of connection points: 4
#     Node 14, Type 0, BuildingBlock: NAHDIM_clean_sbu_0, # of connection points: 4
#     Node 15, Type 0, BuildingBlock: NAHDIM_clean_sbu_0, # of connection points: 4
#     Node 16, Type 0, BuildingBlock: NAHDIM_clean_sbu_0, # of connection points: 4
#     Node 17, Type 0, BuildingBlock: NAHDIM_clean_sbu_0, # of connection points: 4
#     Node 18, Type 0, BuildingBlock: NAHDIM_clean_sbu_0, # of connection points: 4
#     Node 19, Type 0, BuildingBlock: NAHDIM_clean_sbu_0, # of connection points: 4
#     Node 20, Type 0, BuildingBlock: NAHDIM_clean_sbu_0, # of connection points: 4
#     Node 21, Type 0, BuildingBlock: NAHDIM_clean_sbu_0, # of connection points: 4
#     Node 22, Type 0, BuildingBlock: NAHDIM_clean_sbu_0, # of connection points: 4
#     Node 23, Type 0, BuildingBlock: NAHDIM_clean_sbu_0, # of connection points: 4
#     Node 24, Type 0, BuildingBlock: NAHDIM_clean_sbu_0, # of connection points: 4
#     Node 25, Type 0, BuildingBlock: NAHDIM_clean_sbu_0, # of connection points: 4
#     Node 26, Type 0, BuildingBlock: NAHDIM_clean_sbu_0, # of connection points: 4
#     Node 27, Type 0, BuildingBlock: NAHDIM_clean_sbu_0, # of connection points: 4
#     Node 28, Type 0, BuildingBlock: NAHDIM_clean_sbu_0, # of connection points: 4
#     Node 29, Type 0, BuildingBlock: NAHDIM_clean_sbu_0, # of connection points: 4
#     Node 30, Type 0, BuildingBlock: NAHDIM_clean_sbu_0, # of connection points: 4
#     Node 31, Type 0, BuildingBlock: NAHDIM_clean_sbu_0, # of connection points: 4
#     Node 32, Type 0, BuildingBlock: NAHDIM_clean_sbu_0, # of connection points: 4
#     Node 33, Type 0, BuildingBlock: NAHDIM_clean_sbu_0, # of connection points: 4
#     Node 34, Type 0, BuildingBlock: NAHDIM_clean_sbu_0, # of connection points: 4
#     Node 35, Type 0, BuildingBlock: NAHDIM_clean_sbu_0, # of connection points: 4
#     Node 36, Type 0, BuildingBlock: NAHDIM_clean_sbu_0, # of connection points: 4
#     Node 37, Type 0, BuildingBlock: NAHDIM_clean_sbu_0, # of connection points: 4
#     Node 38, Type 0, BuildingBlock: NAHDIM_clean_sbu_0, # of connection points: 4
#     Node 39, Type 0, BuildingBlock: NAHDIM_clean_sbu_0, # of connection points: 4
#     Node 40, Type 0, BuildingBlock: NAHDIM_clean_sbu_0, # of connection points: 4
#     Node 41, Type 0, BuildingBlock: NAHDIM_clean_sbu_0, # of connection points: 4
#     Node 42, Type 0, BuildingBlock: NAHDIM_clean_sbu_0, # of connection points: 4
#     Node 43, Type 0, BuildingBlock: NAHDIM_clean_sbu_0, # of connection points: 4
#     Node 44, Type 0, BuildingBlock: NAHDIM_clean_sbu_0, # of connection points: 4
#     Node 45, Type 0, BuildingBlock: NAHDIM_clean_sbu_0, # of connection points: 4
#     Node 46, Type 0, BuildingBlock: NAHDIM_clean_sbu_0, # of connection points: 4
#     Node 47, Type 0, BuildingBlock: NAHDIM_clean_sbu_0, # of connection points: 4
#     Edge 48, Type (0, 0), BuildingBlock: AJUNOK_clean_linker_0, # of connection points: 2
#     Edge 49, Type (0, 0), BuildingBlock: AJUNOK_clean_linker_0, # of connection points: 2
#     Edge 50, Type (0, 0), BuildingBlock: AJUNOK_clean_linker_0, # of connection points: 2
#     Edge 51, Type (0, 0), BuildingBlock: AJUNOK_clean_linker_0, # of connection points: 2
#     Edge 52, Type (0, 0), BuildingBlock: AJUNOK_clean_linker_0, # of connection points: 2
#     Edge 53, Type (0, 0), BuildingBlock: AJUNOK_clean_linker_0, # of connection points: 2
#     Edge 54, Type (0, 0), BuildingBlock: AJUNOK_clean_linker_0, # of connection points: 2
#     Edge 55, Type (0, 0), BuildingBlock: AJUNOK_clean_linker_0, # of connection points: 2
#     Edge 56, Type (0, 0), BuildingBlock: AJUNOK_clean_linker_0, # of connection points: 2
#     Edge 57, Type (0, 0), BuildingBlock: AJUNOK_clean_linker_0, # of connection points: 2
#     Edge 58, Type (0, 0), BuildingBlock: AJUNOK_clean_linker_0, # of connection points: 2
#     Edge 59, Type (0, 0), BuildingBlock: AJUNOK_clean_linker_0, # of connection points: 2
#     Edge 60, Type (0, 0), BuildingBlock: AJUNOK_clean_linker_0, # of connection points: 2
#     Edge 61, Type (0, 0), BuildingBlock: AJUNOK_clean_linker_0, # of connection points: 2
#     Edge 62, Type (0, 0), BuildingBlock: AJUNOK_clean_linker_0, # of connection points: 2
#     Edge 63, Type (0, 0), BuildingBlock: AJUNOK_clean_linker_0, # of connection points: 2
#     Edge 64, Type (0, 0), BuildingBlock: AJUNOK_clean_linker_0, # of connection points: 2
#     Edge 65, Type (0, 0), BuildingBlock: AJUNOK_clean_linker_0, # of connection points: 2
#     Edge 66, Type (0, 0), BuildingBlock: AJUNOK_clean_linker_0, # of connection points: 2
#     Edge 67, Type (0, 0), BuildingBlock: AJUNOK_clean_linker_0, # of connection points: 2
#     Edge 68, Type (0, 0), BuildingBlock: AJUNOK_clean_linker_0, # of connection points: 2
#     Edge 69, Type (0, 0), BuildingBlock: AJUNOK_clean_linker_0, # of connection points: 2
#     Edge 70, Type (0, 0), BuildingBlock: AJUNOK_clean_linker_0, # of connection points: 2
#     Edge 71, Type (0, 0), BuildingBlock: AJUNOK_clean_linker_0, # of connection points: 2
#     Edge 72, Type (0, 0), BuildingBlock: AJUNOK_clean_linker_0, # of connection points: 2
#     Edge 73, Type (0, 0), BuildingBlock: AJUNOK_clean_linker_0, # of connection points: 2
#     Edge 74, Type (0, 0), BuildingBlock: AJUNOK_clean_linker_0, # of connection points: 2
#     Edge 75, Type (0, 0), BuildingBlock: AJUNOK_clean_linker_0, # of connection points: 2
#     Edge 76, Type (0, 0), BuildingBlock: AJUNOK_clean_linker_0, # of connection points: 2
#     Edge 77, Type (0, 0), BuildingBlock: AJUNOK_clean_linker_0, # of connection points: 2
#     Edge 78, Type (0, 0), BuildingBlock: AJUNOK_clean_linker_0, # of connection points: 2
#     Edge 79, Type (0, 0), BuildingBlock: AJUNOK_clean_linker_0, # of connection points: 2
#     Edge 80, Type (0, 0), BuildingBlock: AJUNOK_clean_linker_0, # of connection points: 2
#     Edge 81, Type (0, 0), BuildingBlock: AJUNOK_clean_linker_0, # of connection points: 2
#     Edge 82, Type (0, 0), BuildingBlock: AJUNOK_clean_linker_0, # of connection points: 2
#     Edge 83, Type (0, 0), BuildingBlock: AJUNOK_clean_linker_0, # of connection points: 2
#     Edge 84, Type (0, 0), BuildingBlock: AJUNOK_clean_linker_0, # of connection points: 2
#     Edge 85, Type (0, 0), BuildingBlock: AJUNOK_clean_linker_0, # of connection points: 2
#     Edge 86, Type (0, 0), BuildingBlock: AJUNOK_clean_linker_0, # of connection points: 2
#     Edge 87, Type (0, 0), BuildingBlock: AJUNOK_clean_linker_0, # of connection points: 2
#     Edge 88, Type (0, 0), BuildingBlock: AJUNOK_clean_linker_0, # of connection points: 2
#     Edge 89, Type (0, 0), BuildingBlock: AJUNOK_clean_linker_0, # of connection points: 2
#     Edge 90, Type (0, 0), BuildingBlock: AJUNOK_clean_linker_0, # of connection points: 2
#     Edge 91, Type (0, 0), BuildingBlock: AJUNOK_clean_linker_0, # of connection points: 2
#     Edge 92, Type (0, 0), BuildingBlock: AJUNOK_clean_linker_0, # of connection points: 2
#     Edge 93, Type (0, 0), BuildingBlock: AJUNOK_clean_linker_0, # of connection points: 2
#     Edge 94, Type (0, 0), BuildingBlock: AJUNOK_clean_linker_0, # of connection points: 2
#     Edge 95, Type (0, 0), BuildingBlock: AJUNOK_clean_linker_0, # of connection points: 2
#     Edge 96, Type (0, 0), BuildingBlock: AJUNOK_clean_linker_0, # of connection points: 2
#     Edge 97, Type (0, 0), BuildingBlock: AJUNOK_clean_linker_0, # of connection points: 2
#     Edge 98, Type (0, 0), BuildingBlock: AJUNOK_clean_linker_0, # of connection points: 2
#     Edge 99, Type (0, 0), BuildingBlock: AJUNOK_clean_linker_0, # of connection points: 2
#     Edge 100, Type (0, 0), BuildingBlock: AJUNOK_clean_linker_0, # of connection points: 2
#     Edge 101, Type (0, 0), BuildingBlock: AJUNOK_clean_linker_0, # of connection points: 2
#     Edge 102, Type (0, 0), BuildingBlock: AJUNOK_clean_linker_0, # of connection points: 2
#     Edge 103, Type (0, 0), BuildingBlock: AJUNOK_clean_linker_0, # of connection points: 2
#     Edge 104, Type (0, 0), BuildingBlock: AJUNOK_clean_linker_0, # of connection points: 2
#     Edge 105, Type (0, 0), BuildingBlock: AJUNOK_clean_linker_0, # of connection points: 2
#     Edge 106, Type (0, 0), BuildingBlock: AJUNOK_clean_linker_0, # of connection points: 2
#     Edge 107, Type (0, 0), BuildingBlock: AJUNOK_clean_linker_0, # of connection points: 2
#     Edge 108, Type (0, 0), BuildingBlock: AJUNOK_clean_linker_0, # of connection points: 2
#     Edge 109, Type (0, 0), BuildingBlock: AJUNOK_clean_linker_0, # of connection points: 2
#     Edge 110, Type (0, 0), BuildingBlock: AJUNOK_clean_linker_0, # of connection points: 2
#     Edge 111, Type (0, 0), BuildingBlock: AJUNOK_clean_linker_0, # of connection points: 2
#     Edge 112, Type (0, 0), BuildingBlock: AJUNOK_clean_linker_0, # of connection points: 2
#     Edge 113, Type (0, 0), BuildingBlock: AJUNOK_clean_linker_0, # of connection points: 2
#     Edge 114, Type (0, 0), BuildingBlock: AJUNOK_clean_linker_0, # of connection points: 2
#     Edge 115, Type (0, 0), BuildingBlock: AJUNOK_clean_linker_0, # of connection points: 2
#     Edge 116, Type (0, 0), BuildingBlock: AJUNOK_clean_linker_0, # of connection points: 2
#     Edge 117, Type (0, 0), BuildingBlock: AJUNOK_clean_linker_0, # of connection points: 2
#     Edge 118, Type (0, 0), BuildingBlock: AJUNOK_clean_linker_0, # of connection points: 2
#     Edge 119, Type (0, 0), BuildingBlock: AJUNOK_clean_linker_0, # of connection points: 2
#     Edge 120, Type (0, 0), BuildingBlock: AJUNOK_clean_linker_0, # of connection points: 2
#     Edge 121, Type (0, 0), BuildingBlock: AJUNOK_clean_linker_0, # of connection points: 2
#     Edge 122, Type (0, 0), BuildingBlock: AJUNOK_clean_linker_0, # of connection points: 2
#     Edge 123, Type (0, 0), BuildingBlock: AJUNOK_clean_linker_0, # of connection points: 2
#     Edge 124, Type (0, 0), BuildingBlock: AJUNOK_clean_linker_0, # of connection points: 2
#     Edge 125, Type (0, 0), BuildingBlock: AJUNOK_clean_linker_0, # of connection points: 2
#     Edge 126, Type (0, 0), BuildingBlock: AJUNOK_clean_linker_0, # of connection points: 2
#     Edge 127, Type (0, 0), BuildingBlock: AJUNOK_clean_linker_0, # of connection points: 2
#     Edge 128, Type (0, 0), BuildingBlock: AJUNOK_clean_linker_0, # of connection points: 2
#     Edge 129, Type (0, 0), BuildingBlock: AJUNOK_clean_linker_0, # of connection points: 2
#     Edge 130, Type (0, 0), BuildingBlock: AJUNOK_clean_linker_0, # of connection points: 2
#     Edge 131, Type (0, 0), BuildingBlock: AJUNOK_clean_linker_0, # of connection points: 2
#     Edge 132, Type (0, 0), BuildingBlock: AJUNOK_clean_linker_0, # of connection points: 2
#     Edge 133, Type (0, 0), BuildingBlock: AJUNOK_clean_linker_0, # of connection points: 2
#     Edge 134, Type (0, 0), BuildingBlock: AJUNOK_clean_linker_0, # of connection points: 2
#     Edge 135, Type (0, 0), BuildingBlock: AJUNOK_clean_linker_0, # of connection points: 2
#     Edge 136, Type (0, 0), BuildingBlock: AJUNOK_clean_linker_0, # of connection points: 2
#     Edge 137, Type (0, 0), BuildingBlock: AJUNOK_clean_linker_0, # of connection points: 2
#     Edge 138, Type (0, 0), BuildingBlock: AJUNOK_clean_linker_0, # of connection points: 2
#     Edge 139, Type (0, 0), BuildingBlock: AJUNOK_clean_linker_0, # of connection points: 2
#     Edge 140, Type (0, 0), BuildingBlock: AJUNOK_clean_linker_0, # of connection points: 2
#     Edge 141, Type (0, 0), BuildingBlock: AJUNOK_clean_linker_0, # of connection points: 2
#     Edge 142, Type (0, 0), BuildingBlock: AJUNOK_clean_linker_0, # of connection points: 2
#     Edge 143, Type (0, 0), BuildingBlock: AJUNOK_clean_linker_0, # of connection points: 2
# Relax obj value: 0.398
# Max RMSD: 0.188
# Mean RMSD: 0.188
data_MOF--net-ukr--node1-NAHDIM_clean_sbu_0--edge1-AJUNOK_clean_linker_0
_symmetry_space_group_name_H-M    P1
_symmetry_Int_Tables_number       1
_symmetry_cell_setting            triclinic
loop_
_symmetry_equiv_pos_as_xyz
'x, y, z'
_cell_length_a     50.535392
_cell_length_b     50.581107
_cell_length_c     50.566579
_cell_angle_alpha  89.966173
_cell_angle_beta   89.976821
_cell_angle_gamma 90.000382
loop_
_atom_site_label
_atom_site_type_symbol
_atom_site_fract_x
_atom_site_fract_y
_atom_site_fract_z
_atom_type_partial_charge
C0 C 0.05855 0.30187 0.1629 0.0
O1 O 0.07355 0.32293 0.16537 0.0
O2 O 0.10756 0.24099 0.20233 0.0
Zn3 Zn 0.10489 0.27518 0.18213 0.0
O4 O 0.11337 0.3043 0.20765 0.0
C5 C 0.133 0.25155 0.14023 0.0
O6 O 0.11421 0.23402 0.14405 0.0
O7 O 0.06828 0.27932 0.16812 0.0
C8 C 0.13076 0.32203 0.20405 0.0
O9 O 0.14333 0.32298 0.18132 0.0
C10 C 0.10812 0.24012 0.22744 0.0
O11 O 0.10504 0.26203 0.24101 0.0
O12 O 0.13224 0.27293 0.1534 0.0
C13 C 0.20011 0.5581 0.6762 0.0
O14 O 0.19402 0.56849 0.6992 0.0
O15 O 0.26245 0.6023 0.68818 0.0
Zn16 Zn 0.22696 0.60731 0.67116 0.0
O17 O 0.20377 0.62452 0.69862 0.0
C18 C 0.22074 0.65224 0.63481 0.0
O19 O 0.19804 0.65618 0.64682 0.0
O20 O 0.21348 0.57173 0.65985 0.0
C21 C 0.1788 0.62741 0.69844 0.0
O22 O 0.16504 0.6189 0.67813 0.0
C23 C 0.26569 0.59914 0.7129 0.0
O24 O 0.2448 0.59687 0.72819 0.0
O25 O 0.23438 0.63204 0.64086 0.0
C26 C 0.94688 0.6837 0.18557 0.0
O27 O 0.93354 0.66688 0.2002 0.0
O28 O 0.90017 0.7509 0.2068 0.0
Zn29 Zn 0.8992 0.71484 0.19021 0.0
O30 O 0.88524 0.68993 0.21775 0.0
C31 C 0.87358 0.73824 0.14608 0.0
O32 O 0.89318 0.75501 0.14924 0.0
O33 O 0.9357 0.70496 0.17818 0.0
C34 C 0.86939 0.67114 0.21274 0.0
O35 O 0.86258 0.66663 0.18808 0.0
C36 C 0.90037 0.75486 0.23162 0.0
O37 O 0.90215 0.73454 0.24768 0.0
O38 O 0.87308 0.71757 0.16037 0.0
C39 C 0.80504 0.44049 0.66906 0.0
O40 O 0.82629 0.42589 0.67229 0.0
O41 O 0.74397 0.39075 0.70642 0.0
Zn42 Zn 0.77722 0.39296 0.68443 0.0
O43 O 0.80727 0.38116 0.70761 0.0
C44 C 0.75211 0.36942 0.63955 0.0
O45 O 0.73474 0.38818 0.64426 0.0
O46 O 0.7824 0.43017 0.67254 0.0
C47 C 0.82199 0.36147 0.70254 0.0
O48 O 0.81903 0.34901 0.67996 0.0
C49 C 0.74468 0.3908 0.73157 0.0
O50 O 0.76754 0.39342 0.74364 0.0
O51 O 0.77282 0.36827 0.65372 0.0
C52 C 0.05855 0.69468 0.83039 0.0
O53 O 0.0717 0.67406 0.82164 0.0
O54 O 0.1042 0.76063 0.79818 0.0
Zn55 Zn 0.1051 0.7245 0.81461 0.0
O56 O 0.11477 0.69837 0.78617 0.0
C57 C 0.13266 0.74407 0.85983 0.0
O58 O 0.1126 0.76059 0.85979 0.0
O59 O 0.06935 0.71731 0.82964 0.0
C60 C 0.13384 0.68227 0.78893 0.0
O61 O 0.14666 0.68169 0.81152 0.0
C62 C 0.09989 0.76485 0.77378 0.0
O63 O 0.09503 0.74477 0.75806 0.0
O64 O 0.13302 0.72559 0.84284 0.0
C65 C 0.79153 0.55282 0.33531 0.0
O66 O 0.81195 0.56854 0.3321 0.0
O67 O 0.72581 0.59819 0.29928 0.0
Zn68 Zn 0.76109 0.59806 0.31767 0.0
O69 O 0.78856 0.60906 0.29121 0.0
C70 C 0.73943 0.62452 0.36252 0.0
O71 O 0.72232 0.60506 0.36065 0.0
O72 O 0.7684 0.56171 0.33114 0.0
C73 C 0.80868 0.62271 0.29749 0.0
O74 O 0.81221 0.62916 0.32239 0.0
C75 C 0.72324 0.59454 0.27453 0.0
O76 O 0.7443 0.58929 0.26025 0.0
O77 O 0.75907 0.62484 0.34685 0.0
C78 C 0.94408 0.30445 0.83503 0.0
O79 O 0.92944 0.32281 0.82394 0.0
O80 O 0.90705 0.23199 0.80301 0.0
Zn81 Zn 0.90254 0.26881 0.81767 0.0
O82 O 0.89227 0.29252 0.78747 0.0
C83 C 0.85227 0.25497 0.83148 0.0
O84 O 0.85389 0.2498 0.80607 0.0
O85 O 0.93601 0.28066 0.83513 0.0
C86 C 0.8772 0.31236 0.7904 0.0
O87 O 0.86942 0.31883 0.81434 0.0
C88 C 0.9099 0.22746 0.77845 0.0
O89 O 0.91393 0.24747 0.7624 0.0
O90 O 0.87195 0.26569 0.84287 0.0
C91 C 0.19016 0.4443 0.3342 0.0
O92 O 0.17104 0.4309 0.32284 0.0
O93 O 0.25784 0.40182 0.30239 0.0
Zn94 Zn 0.2224 0.39903 0.32011 0.0
O95 O 0.19725 0.3889 0.29122 0.0
C96 C 0.24471 0.3669 0.36112 0.0
O97 O 0.26343 0.38488 0.35971 0.0
O98 O 0.21303 0.43402 0.33595 0.0
C99 C 0.1768 0.37478 0.29477 0.0
O100 O 0.17061 0.36735 0.31889 0.0
C101 C 0.25973 0.41218 0.27955 0.0
O102 O 0.23862 0.42285 0.2688 0.0
O103 O 0.22425 0.36963 0.3468 0.0
C104 C 0.1694 0.05342 0.30355 0.0
O105 O 0.17662 0.06796 0.32379 0.0
O106 O 0.20086 0.09811 0.23523 0.0
Zn107 Zn 0.18502 0.09899 0.27174 0.0
O108 O 0.21327 0.11005 0.29761 0.0
C109 C 0.16299 0.15037 0.27043 0.0
O110 O 0.1878 0.15636 0.27527 0.0
O111 O 0.17076 0.06304 0.28036 0.0
C112 C 0.20866 0.1213 0.31958 0.0
O113 O 0.184 0.1254 0.32677 0.0
C114 C 0.22549 0.09841 0.23021 0.0
O115 O 0.24244 0.09792 0.24989 0.0
O116 O 0.15616 0.12622 0.26929 0.0
C117 C 0.4394 0.66679 0.79941 0.0
O118 O 0.42455 0.67399 0.81948 0.0
O119 O 0.39386 0.69691 0.73096 0.0
Zn120 Zn 0.39392 0.68173 0.7677 0.0
O121 O 0.38256 0.71016 0.79302 0.0
C122 C 0.36721 0.63621 0.74857 0.0
O123 O 0.3871 0.6368 0.73182 0.0
O124 O 0.43009 0.66817 0.77613 0.0
C125 C 0.36867 0.70487 0.81328 0.0
O126 O 0.36269 0.6801 0.81829 0.0
C127 C 0.39573 0.72142 0.72577 0.0
O128 O 0.39908 0.73825 0.74526 0.0
O129 O 0.36682 0.65283 0.76737 0.0
C130 C 0.84268 0.93691 0.27828 0.0
O131 O 0.84859 0.92727 0.25492 0.0
O132 O 0.80194 0.88983 0.24519 0.0
Zn133 Zn 0.81584 0.88737 0.2824 0.0
O134 O 0.78558 0.87584 0.30539 0.0
C135 C 0.8584 0.8567 0.26162 0.0
O136 O 0.85613 0.8743 0.24265 0.0
O137 O 0.82925 0.9228 0.29415 0.0
C138 C 0.78804 0.86032 0.32496 0.0
O139 O 0.81176 0.85193 0.33149 0.0
C140 C 0.77761 0.89272 0.2395 0.0
O141 O 0.76044 0.8962 0.25867 0.0
O142 O 0.84399 0.85911 0.28209 0.0
C143 C 0.55449 0.33803 0.80629 0.0
O144 O 0.56772 0.3319 0.82778 0.0
O145 O 0.60796 0.30867 0.7435 0.0
Zn146 Zn 0.60293 0.32321 0.77985 0.0
O147 O 0.61041 0.29339 0.805 0.0
C148 C 0.65426 0.34415 0.78239 0.0
O149 O 0.65912 0.31902 0.78675 0.0
O150 O 0.56594 0.33649 0.78398 0.0
C151 C 0.62014 0.29583 0.82801 0.0
O152 O 0.62493 0.31962 0.83725 0.0
C153 C 0.60257 0.28551 0.73546 0.0
O154 O 0.59007 0.26907 0.75124 0.0
O155 O 0.63037 0.35194 0.78125 0.0
C156 C 0.16146 0.94502 0.69543 0.0
O157 O 0.16695 0.93055 0.67459 0.0
O158 O 0.19028 0.8921 0.75931 0.0
Zn159 Zn 0.17548 0.89757 0.72303 0.0
O160 O 0.20478 0.88905 0.69778 0.0
C161 C 0.13086 0.86921 0.73974 0.0
O162 O 0.13158 0.88812 0.75754 0.0
O163 O 0.16282 0.93463 0.71826 0.0
C164 C 0.20091 0.87633 0.67651 0.0
O165 O 0.17664 0.86968 0.67006 0.0
C166 C 0.21392 0.89676 0.76644 0.0
O167 O 0.23005 0.90884 0.75003 0.0
O168 O 0.14664 0.87056 0.72024 0.0
C169 C 0.54983 0.66788 0.18592 0.0
O170 O 0.56279 0.67701 0.16533 0.0
O171 O 0.60397 0.69257 0.24949 0.0
Zn172 Zn 0.59914 0.67745 0.21327 0.0
O173 O 0.61047 0.70556 0.18767 0.0
C174 C 0.62371 0.63168 0.23261 0.0
O175 O 0.60365 0.63388 0.24902 0.0
O176 O 0.56161 0.66612 0.20802 0.0
C177 C 0.62557 0.70069 0.16819 0.0
O178 O 0.63238 0.67609 0.16345 0.0
C179 C 0.59864 0.71573 0.25757 0.0
O180 O 0.58652 0.73235 0.24169 0.0
O181 O 0.62465 0.64708 0.21278 0.0
C182 C 0.82832 0.05717 0.68893 0.0
O183 O 0.81909 0.07039 0.66855 0.0
O184 O 0.79508 0.10668 0.75058 0.0
Zn185 Zn 0.8173 0.10553 0.71744 0.0
O186 O 0.79387 0.11799 0.68783 0.0
C187 C 0.86089 0.13033 0.74376 0.0
O188 O 0.85564 0.11194 0.76137 0.0
O189 O 0.82974 0.06849 0.7113 0.0
C190 C 0.79155 0.14255 0.68321 0.0
O191 O 0.80644 0.1593 0.69635 0.0
C192 C 0.77005 0.10422 0.74965 0.0
O193 O 0.75858 0.09954 0.72683 0.0
O194 O 0.84771 0.13067 0.72238 0.0
C195 C 0.43541 0.31505 0.2026 0.0
O196 O 0.42085 0.29414 0.19765 0.0
O197 O 0.38684 0.31462 0.26367 0.0
Zn198 Zn 0.38776 0.3314 0.22794 0.0
O199 O 0.36514 0.30744 0.20585 0.0
C200 C 0.34923 0.37319 0.22126 0.0
O201 O 0.34305 0.36036 0.19956 0.0
O202 O 0.42522 0.3343 0.21511 0.0
C203 C 0.3632 0.3046 0.181 0.0
O204 O 0.37779 0.31922 0.16521 0.0
C205 C 0.3875 0.28979 0.26732 0.0
O206 O 0.39344 0.27418 0.24744 0.0
O207 O 0.36961 0.36613 0.23413 0.0
C208 C 0.30564 0.1849 0.05179 0.0
O209 O 0.31809 0.20437 0.0636 0.0
O210 O 0.2415 0.19712 0.10121 0.0
Zn211 Zn 0.27856 0.18277 0.10158 0.0
O212 O 0.30259 0.21108 0.11556 0.0
C213 C 0.25749 0.13794 0.12774 0.0
O214 O 0.24019 0.1405 0.10853 0.0
O215 O 0.28849 0.17184 0.06474 0.0
C216 C 0.29751 0.22016 0.1384 0.0
O217 O 0.27736 0.2103 0.15154 0.0
C218 C 0.23516 0.22127 0.09852 0.0
O219 O 0.25379 0.23892 0.09442 0.0
O220 O 0.27786 0.15268 0.12755 0.0
C221 C 0.30544 0.81739 0.94737 0.0
O222 O 0.31907 0.79859 0.93573 0.0
O223 O 0.23846 0.798 0.90455 0.0
Zn224 Zn 0.27449 0.8145 0.89976 0.0
O225 O 0.29901 0.78676 0.88534 0.0
C226 C 0.25567 0.83476 0.85318 0.0
O227 O 0.24923 0.80961 0.85236 0.0
O228 O 0.28641 0.82812 0.93497 0.0
C229 C 0.31741 0.79146 0.86892 0.0
O230 O 0.32149 0.81592 0.86116 0.0
C231 C 0.23409 0.7733 0.90317 0.0
O232 O 0.25424 0.75703 0.90116 0.0
O233 O 0.26908 0.84323 0.87268 0.0
C234 C 0.65754 0.8019 0.44447 0.0
O235 O 0.66938 0.82015 0.43026 0.0
O236 O 0.68523 0.73075 0.40528 0.0
Zn237 Zn 0.67029 0.76739 0.4004 0.0
O238 O 0.69977 0.79146 0.38881 0.0
C239 C 0.65375 0.75151 0.35148 0.0
O240 O 0.67883 0.74474 0.35255 0.0
O241 O 0.65467 0.77888 0.43487 0.0
C242 C 0.69594 0.81054 0.37295 0.0
O243 O 0.67174 0.81548 0.36486 0.0
C244 C 0.70984 0.72564 0.4059 0.0
O245 O 0.72683 0.7453 0.40584 0.0
O246 O 0.64367 0.76385 0.37093 0.0
C247 C 0.69367 0.16514 0.93758 0.0
O248 O 0.67196 0.17072 0.92447 0.0
O249 O 0.75243 0.19091 0.87966 0.0
Zn250 Zn 0.7173 0.17461 0.8871 0.0
O251 O 0.69073 0.20311 0.87951 0.0
C252 C 0.71457 0.15063 0.83728 0.0
O253 O 0.70858 0.17515 0.83117 0.0
O254 O 0.71548 0.164 0.92515 0.0
C255 C 0.66746 0.20074 0.87039 0.0
O256 O 0.65826 0.17712 0.86473 0.0
C257 C 0.76046 0.21362 0.88671 0.0
O258 O 0.74567 0.22818 0.90234 0.0
O259 O 0.71642 0.14425 0.86153 0.0
C260 C 0.32762 0.18928 0.44586 0.0
O261 O 0.31796 0.17005 0.43135 0.0
O262 O 0.29603 0.25855 0.40519 0.0
Zn263 Zn 0.31359 0.22289 0.40127 0.0
O264 O 0.28693 0.19644 0.38827 0.0
C265 C 0.33131 0.24022 0.35347 0.0
O266 O 0.30552 0.24319 0.35235 0.0
O267 O 0.32862 0.2125 0.43632 0.0
C268 C 0.29337 0.17746 0.37315 0.0
O269 O 0.31838 0.1744 0.36679 0.0
C270 C 0.27167 0.26289 0.40067 0.0
O271 O 0.25599 0.24273 0.39596 0.0
O272 O 0.34147 0.22909 0.37357 0.0
C273 C 0.70319 0.83384 0.05847 0.0
O274 O 0.6821 0.82854 0.07272 0.0
O275 O 0.76834 0.7974 0.10463 0.0
Zn276 Zn 0.73189 0.81341 0.10368 0.0
O277 O 0.70529 0.78481 0.11097 0.0
C278 C 0.75047 0.85611 0.13482 0.0
O279 O 0.7688 0.85586 0.11638 0.0
O280 O 0.72596 0.82948 0.06813 0.0
C281 C 0.68417 0.78892 0.12391 0.0
O282 O 0.67895 0.81298 0.13219 0.0
C283 C 0.77308 0.77274 0.10374 0.0
O284 O 0.7533 0.75611 0.10105 0.0
O285 O 0.73102 0.84035 0.13272 0.0
C286 C 0.66854 0.19488 0.55328 0.0
O287 O 0.6796 0.17738 0.56895 0.0
O288 O 0.69365 0.26834 0.59154 0.0
Zn289 Zn 0.67894 0.2316 0.59626 0.0
O290 O 0.70841 0.20902 0.61038 0.0
C291 C 0.66049 0.24762 0.64413 0.0
O292 O 0.6857 0.25397 0.64395 0.0
O293 O 0.66543 0.21843 0.56144 0.0
C294 C 0.70462 0.18824 0.62394 0.0
O295 O 0.68032 0.18008 0.62823 0.0
C296 C 0.71833 0.27275 0.58959 0.0
O297 O 0.73447 0.2526 0.58681 0.0
O298 O 0.65097 0.23529 0.6244 0.0
C299 C 0.32443 0.81421 0.55069 0.0
O300 O 0.31164 0.83246 0.56403 0.0
O301 O 0.29587 0.74742 0.59558 0.0
Zn302 Zn 0.31446 0.78255 0.59721 0.0
O303 O 0.28725 0.80873 0.6091 0.0
C304 C 0.35608 0.75713 0.62447 0.0
O305 O 0.35282 0.74077 0.60457 0.0
O306 O 0.32862 0.79186 0.5614 0.0
C307 C 0.29121 0.82701 0.62578 0.0
O308 O 0.315 0.83013 0.63576 0.0
C309 C 0.2712 0.74508 0.59129 0.0
O310 O 0.25725 0.76629 0.58579 0.0
O311 O 0.34284 0.77848 0.62471 0.0
C312 C 0.94464 0.69325 0.83681 0.0
O313 O 0.93114 0.67184 0.83103 0.0
O314 O 0.8891 0.75528 0.80944 0.0
Zn315 Zn 0.89538 0.71942 0.82477 0.0
O316 O 0.88602 0.69336 0.79628 0.0
C317 C 0.84545 0.71667 0.849 0.0
O318 O 0.83906 0.71159 0.82436 0.0
O319 O 0.93314 0.71557 0.83602 0.0
C320 C 0.87627 0.67047 0.79962 0.0
O321 O 0.87239 0.66169 0.82378 0.0
C322 C 0.89111 0.76171 0.78526 0.0
O323 O 0.90146 0.74491 0.76838 0.0
O324 O 0.86974 0.71881 0.85514 0.0
C325 C 0.79701 0.43915 0.33166 0.0
O326 O 0.81878 0.42582 0.32686 0.0
O327 O 0.73335 0.38946 0.29717 0.0
Zn328 Zn 0.77041 0.39258 0.31126 0.0
O329 O 0.79578 0.38749 0.2811 0.0
C330 C 0.75573 0.36094 0.35472 0.0
O331 O 0.73736 0.3793 0.35577 0.0
O332 O 0.77476 0.42832 0.32731 0.0
C333 C 0.81836 0.37692 0.28398 0.0
O334 O 0.82584 0.36947 0.30773 0.0
C335 C 0.72713 0.39151 0.27292 0.0
O336 O 0.74556 0.39736 0.25555 0.0
O337 O 0.77415 0.36332 0.33779 0.0
C338 C 0.05669 0.30994 0.83758 0.0
O339 O 0.06932 0.32834 0.82425 0.0
O340 O 0.09302 0.24194 0.80317 0.0
Zn341 Zn 0.10043 0.27625 0.82181 0.0
O342 O 0.11189 0.30229 0.79412 0.0
C343 C 0.1478 0.25363 0.83585 0.0
O344 O 0.14606 0.24893 0.81037 0.0
O345 O 0.06719 0.28728 0.84005 0.0
C346 C 0.13006 0.31928 0.79741 0.0
O347 O 0.14152 0.32114 0.82065 0.0
C348 C 0.08799 0.23983 0.77865 0.0
O349 O 0.08454 0.26138 0.76456 0.0
O350 O 0.13023 0.26782 0.84689 0.0
C351 C 0.19144 0.55756 0.33339 0.0
O352 O 0.17291 0.57123 0.32133 0.0
O353 O 0.26188 0.59845 0.30519 0.0
Zn354 Zn 0.22522 0.6022 0.32052 0.0
O355 O 0.20148 0.61372 0.29076 0.0
C356 C 0.24452 0.63192 0.36462 0.0
O357 O 0.2616 0.61236 0.36548 0.0
O358 O 0.21441 0.56744 0.33574 0.0
C359 C 0.21121 0.6318 0.27626 0.0
O360 O 0.23425 0.64202 0.28259 0.0
C361 C 0.26541 0.58861 0.28231 0.0
O362 O 0.24505 0.57882 0.26948 0.0
O363 O 0.22603 0.63104 0.34766 0.0
C364 C 0.94415 0.3068 0.15734 0.0
O365 O 0.93063 0.32892 0.1559 0.0
O366 O 0.884 0.2509 0.18916 0.0
Zn367 Zn 0.89349 0.2847 0.17097 0.0
O368 O 0.88355 0.31297 0.19693 0.0
C369 C 0.84648 0.28741 0.1408 0.0
O370 O 0.83725 0.2947 0.16397 0.0
O371 O 0.93212 0.28548 0.16297 0.0
C372 C 0.87364 0.33563 0.19267 0.0
O373 O 0.87017 0.34369 0.16822 0.0
C374 C 0.89615 0.23921 0.20778 0.0
O375 O 0.91878 0.2487 0.21632 0.0
O376 O 0.87128 0.28436 0.13804 0.0
C377 C 0.19343 0.44449 0.67429 0.0
O378 O 0.1755 0.43195 0.68831 0.0
O379 O 0.26026 0.39614 0.69577 0.0
Zn380 Zn 0.22327 0.39623 0.68125 0.0
O381 O 0.19927 0.38487 0.7108 0.0
C382 C 0.24229 0.36732 0.63701 0.0
O383 O 0.26047 0.38587 0.63803 0.0
O384 O 0.21472 0.43264 0.66818 0.0
C385 C 0.17845 0.37135 0.70699 0.0
O386 O 0.1715 0.3656 0.68263 0.0
C387 C 0.26537 0.39963 0.72012 0.0
O388 O 0.24594 0.40522 0.73645 0.0
O389 O 0.22269 0.36877 0.65266 0.0
C390 C 0.06113 0.68242 0.17743 0.0
O391 O 0.07508 0.67048 0.1958 0.0
O392 O 0.10946 0.74282 0.19307 0.0
Zn393 Zn 0.10993 0.71009 0.17025 0.0
O394 O 0.12929 0.68255 0.19151 0.0
C395 C 0.12724 0.74132 0.12624 0.0
O396 O 0.10697 0.75586 0.13353 0.0
O397 O 0.07237 0.69961 0.16293 0.0
C398 C 0.15416 0.67968 0.18918 0.0
O399 O 0.1667 0.69328 0.17094 0.0
C400 C 0.13045 0.75661 0.19394 0.0
O401 O 0.15139 0.74884 0.18068 0.0
O402 O 0.13047 0.71895 0.13725 0.0
C403 C 0.80399 0.55453 0.67121 0.0
O404 O 0.82482 0.56907 0.67659 0.0
O405 O 0.73772 0.60039 0.70466 0.0
Zn406 Zn 0.77393 0.6005 0.68816 0.0
O407 O 0.80043 0.61023 0.71603 0.0
C408 C 0.75427 0.62849 0.64341 0.0
O409 O 0.73647 0.60959 0.64462 0.0
O410 O 0.78105 0.56442 0.67395 0.0
C411 C 0.82107 0.62358 0.71083 0.0
O412 O 0.82573 0.63045 0.68621 0.0
C413 C 0.73337 0.59832 0.72934 0.0
O414 O 0.75346 0.59581 0.74563 0.0
O415 O 0.77348 0.62803 0.65959 0.0
C416 C 0.82663 0.94339 0.69182 0.0
O417 O 0.81404 0.93015 0.67335 0.0
O418 O 0.79732 0.90225 0.7606 0.0
Zn419 Zn 0.81447 0.89792 0.72488 0.0
O420 O 0.78715 0.88496 0.69905 0.0
C421 C 0.8317 0.84988 0.74251 0.0
O422 O 0.80598 0.84938 0.74625 0.0
O423 O 0.82986 0.93283 0.71438 0.0
C424 C 0.79296 0.86965 0.68002 0.0
O425 O 0.81786 0.86322 0.67622 0.0
C426 C 0.77269 0.89947 0.76485 0.0
O427 O 0.75671 0.89654 0.7446 0.0
O428 O 0.84193 0.86965 0.73081 0.0
C429 C 0.54896 0.30318 0.19614 0.0
O430 O 0.56049 0.28594 0.18052 0.0
O431 O 0.5993 0.28427 0.25972 0.0
Zn432 Zn 0.59883 0.30101 0.2237 0.0
O433 O 0.61252 0.27472 0.19728 0.0
C434 C 0.62591 0.3454 0.2461 0.0
O435 O 0.60846 0.34169 0.26502 0.0
O436 O 0.562 0.3129 0.21528 0.0
C437 C 0.62641 0.28258 0.1779 0.0
O438 O 0.63016 0.30805 0.17455 0.0
C439 C 0.60208 0.25966 0.26384 0.0
O440 O 0.6034 0.24349 0.24356 0.0
O441 O 0.62446 0.33128 0.22541 0.0
C442 C 0.16578 0.05857 0.69857 0.0
O443 O 0.18565 0.06951 0.68593 0.0
O444 O 0.19119 0.09872 0.76264 0.0
Zn445 Zn 0.16939 0.10568 0.73023 0.0
O446 O 0.19469 0.12274 0.70467 0.0
C447 C 0.12664 0.14574 0.7274 0.0
O448 O 0.12866 0.14429 0.70156 0.0
O449 O 0.15498 0.07102 0.71752 0.0
C450 C 0.19223 0.12892 0.68045 0.0
O451 O 0.1698 0.1243 0.66819 0.0
C452 C 0.21505 0.09092 0.76101 0.0
O453 O 0.22503 0.08561 0.73761 0.0
O454 O 0.1411 0.13105 0.74175 0.0
C455 C 0.43541 0.66313 0.18592 0.0
O456 O 0.42197 0.67291 0.16595 0.0
O457 O 0.38151 0.68406 0.2498 0.0
Zn458 Zn 0.38578 0.66893 0.21361 0.0
O459 O 0.37325 0.6966 0.18802 0.0
C460 C 0.36321 0.62342 0.2349 0.0
O461 O 0.38385 0.62679 0.25035 0.0
O462 O 0.42366 0.65916 0.20776 0.0
C463 C 0.34891 0.70282 0.18896 0.0
O464 O 0.33338 0.69022 0.20556 0.0
C465 C 0.38777 0.70677 0.25836 0.0
O466 O 0.40024 0.72331 0.24265 0.0
O467 O 0.36124 0.63773 0.21432 0.0
C468 C 0.84164 0.04989 0.29175 0.0
O469 O 0.82963 0.06045 0.31223 0.0
O470 O 0.80692 0.09824 0.23148 0.0
Zn471 Zn 0.82701 0.09871 0.26577 0.0
O472 O 0.80089 0.10714 0.29452 0.0
C473 C 0.84151 0.14971 0.25502 0.0
O474 O 0.8155 0.14997 0.25454 0.0
O475 O 0.84383 0.06328 0.27062 0.0
C476 C 0.80645 0.12071 0.3149 0.0
O477 O 0.83095 0.12858 0.31848 0.0
C478 C 0.78216 0.09427 0.22971 0.0
O479 O 0.76883 0.08794 0.25109 0.0
O480 O 0.85315 0.12839 0.26147 0.0
C481 C 0.44085 0.33222 0.80338 0.0
O482 O 0.42685 0.32552 0.82423 0.0
O483 O 0.39444 0.29786 0.73786 0.0
Zn484 Zn 0.39497 0.3149 0.77374 0.0
O485 O 0.38442 0.28768 0.8007 0.0
C486 C 0.36694 0.35843 0.75246 0.0
O487 O 0.3859 0.35633 0.7348 0.0
O488 O 0.43093 0.32946 0.78051 0.0
C489 C 0.36098 0.279 0.79813 0.0
O490 O 0.34623 0.28856 0.77899 0.0
C491 C 0.39695 0.2732 0.73376 0.0
O492 O 0.40177 0.25739 0.7538 0.0
O493 O 0.36757 0.34351 0.77265 0.0
C494 C 0.16628 0.93981 0.30334 0.0
O495 O 0.18193 0.92693 0.31958 0.0
O496 O 0.20076 0.90428 0.23928 0.0
Zn497 Zn 0.17655 0.89537 0.26943 0.0
O498 O 0.19846 0.87723 0.29732 0.0
C499 C 0.14535 0.8474 0.26166 0.0
O500 O 0.15106 0.84164 0.28633 0.0
O501 O 0.1598 0.929 0.28163 0.0
C502 C 0.21378 0.85913 0.28898 0.0
O503 O 0.21317 0.85279 0.26379 0.0
C504 C 0.22534 0.90937 0.2404 0.0
O505 O 0.2369 0.9114 0.26357 0.0
O506 O 0.15144 0.86995 0.25249 0.0
C507 C 0.55311 0.66275 0.80803 0.0
O508 O 0.56511 0.67001 0.8299 0.0
O509 O 0.61058 0.6891 0.74775 0.0
Zn510 Zn 0.6035 0.67471 0.78388 0.0
O511 O 0.61169 0.70391 0.80931 0.0
C512 C 0.62994 0.63008 0.76645 0.0
O513 O 0.60999 0.63163 0.74988 0.0
O514 O 0.56597 0.6627 0.78647 0.0
C515 C 0.62444 0.70045 0.83065 0.0
O516 O 0.63125 0.67634 0.83746 0.0
C517 C 0.60898 0.71303 0.74043 0.0
O518 O 0.5989 0.73068 0.7566 0.0
O519 O 0.62988 0.64521 0.78651 0.0
C520 C 0.69971 0.8348 0.94499 0.0
O521 O 0.67778 0.82979 0.93198 0.0
O522 O 0.75872 0.79417 0.89505 0.0
Zn523 Zn 0.72476 0.81483 0.89786 0.0
O524 O 0.6956 0.78875 0.89133 0.0
C525 C 0.74522 0.85761 0.86757 0.0
O526 O 0.76366 0.85622 0.88585 0.0
O527 O 0.72183 0.83049 0.93389 0.0
C528 C 0.67641 0.79211 0.87554 0.0
O529 O 0.67377 0.81503 0.86357 0.0
C530 C 0.75911 0.76958 0.90027 0.0
O531 O 0.73771 0.7582 0.90963 0.0
O532 O 0.72535 0.84236 0.86934 0.0
C533 C 0.70575 0.18027 0.04993 0.0
O534 O 0.69498 0.20161 0.06005 0.0
O535 O 0.76765 0.20518 0.093 0.0
Zn536 Zn 0.7356 0.18223 0.09798 0.0
O537 O 0.70859 0.20584 0.11532 0.0
C538 C 0.73167 0.13933 0.13734 0.0
O539 O 0.70594 0.14181 0.13488 0.0
O540 O 0.72359 0.16822 0.06288 0.0
C541 C 0.68398 0.20251 0.11916 0.0
O542 O 0.67261 0.18038 0.11172 0.0
C543 C 0.76542 0.22965 0.08771 0.0
O544 O 0.74189 0.23937 0.08253 0.0
O545 O 0.74679 0.15345 0.12304 0.0
C546 C 0.3257 0.18885 0.55946 0.0
O547 O 0.31717 0.16908 0.57399 0.0
O548 O 0.29617 0.25813 0.60322 0.0
Zn549 Zn 0.31072 0.22117 0.60444 0.0
O550 O 0.28095 0.19686 0.61456 0.0
C551 C 0.35534 0.24005 0.63275 0.0
O552 O 0.35535 0.25688 0.61295 0.0
O553 O 0.3254 0.21208 0.56899 0.0
C554 C 0.28374 0.17913 0.6321 0.0
O555 O 0.30713 0.17565 0.64288 0.0
C556 C 0.27179 0.26344 0.60006 0.0
O557 O 0.25503 0.24405 0.59586 0.0
O558 O 0.33861 0.22132 0.63264 0.0
C559 C 0.29583 0.81812 0.06062 0.0
O560 O 0.29937 0.79496 0.07181 0.0
O561 O 0.22981 0.81294 0.10199 0.0
Zn562 Zn 0.2665 0.82712 0.10816 0.0
O563 O 0.28565 0.79826 0.12776 0.0
C564 C 0.27723 0.86622 0.14974 0.0
O565 O 0.29993 0.85394 0.15273 0.0
O566 O 0.28301 0.83577 0.07308 0.0
C567 C 0.31029 0.79458 0.13099 0.0
O568 O 0.32717 0.81171 0.12112 0.0
C569 C 0.22599 0.78907 0.09513 0.0
O570 O 0.24657 0.77397 0.09029 0.0
O571 O 0.26166 0.85886 0.13145 0.0
C572 C 0.66616 0.80228 0.55725 0.0
O573 O 0.67813 0.82142 0.57008 0.0
O574 O 0.70076 0.73317 0.59602 0.0
Zn575 Zn 0.68371 0.76894 0.60087 0.0
O576 O 0.71167 0.79505 0.6117 0.0
C577 C 0.66802 0.75088 0.64976 0.0
O578 O 0.6934 0.74535 0.64912 0.0
O579 O 0.66579 0.7792 0.56714 0.0
C580 C 0.70708 0.81382 0.6277 0.0
O581 O 0.68284 0.81727 0.63644 0.0
C582 C 0.72552 0.72919 0.59797 0.0
O583 O 0.7414 0.74965 0.59982 0.0
O584 O 0.65781 0.7636 0.63064 0.0
C585 C 0.30112 0.17833 0.9377 0.0
O586 O 0.30631 0.19982 0.92409 0.0
O587 O 0.24047 0.18013 0.88838 0.0
Zn588 Zn 0.27654 0.16392 0.88904 0.0
O589 O 0.2983 0.18942 0.86778 0.0
C590 C 0.28053 0.1258 0.84679 0.0
O591 O 0.29985 0.14111 0.83857 0.0
O592 O 0.28881 0.15951 0.92651 0.0
C593 C 0.32296 0.19333 0.86524 0.0
O594 O 0.33975 0.1784 0.8783 0.0
C595 C 0.23645 0.20489 0.88931 0.0
O596 O 0.25613 0.22074 0.89535 0.0
O597 O 0.27077 0.12983 0.86957 0.0
C598 C 0.32253 0.81093 0.43733 0.0
O599 O 0.30518 0.82553 0.42463 0.0
O600 O 0.29678 0.74045 0.40343 0.0
Zn601 Zn 0.31497 0.77454 0.39373 0.0
O602 O 0.28872 0.79894 0.37608 0.0
C603 C 0.3341 0.74719 0.35062 0.0
O604 O 0.30898 0.74064 0.3514 0.0
O605 O 0.33032 0.78947 0.42693 0.0
C606 C 0.29454 0.81027 0.35442 0.0
O607 O 0.31844 0.80737 0.34463 0.0
C608 C 0.27215 0.73617 0.40096 0.0
O609 O 0.25649 0.75599 0.39485 0.0
O610 O 0.34297 0.76373 0.36734 0.0
C611 C 0.67667 0.18478 0.44059 0.0
O612 O 0.68779 0.16422 0.42926 0.0
O613 O 0.70615 0.25046 0.39211 0.0
Zn614 Zn 0.69162 0.21344 0.39278 0.0
O615 O 0.72123 0.18851 0.38399 0.0
C616 C 0.64618 0.23015 0.36496 0.0
O617 O 0.64541 0.24631 0.38527 0.0
O618 O 0.67608 0.20672 0.42843 0.0
C619 C 0.71779 0.16753 0.37068 0.0
O620 O 0.69364 0.16086 0.36375 0.0
C621 C 0.73067 0.25606 0.39276 0.0
O622 O 0.74801 0.23691 0.3954 0.0
O623 O 0.66392 0.21236 0.36447 0.0
C624 C 0.98681 0.28228 0.15479 0.0
C625 C 0.97338 0.30663 0.1551 0.0
C626 C 0.01439 0.2811 0.156 0.0
C627 C 0.02979 0.30421 0.15765 0.0
H628 H 0.97595 0.26382 0.15438 0.0
H629 H 0.02359 0.26176 0.15653 0.0
S630 S 0.0045 0.37314 0.15615 0.0
N631 N 0.97766 0.35458 0.15489 0.0
N632 N 0.02966 0.35235 0.15722 0.0
C633 C 0.01675 0.32879 0.15645 0.0
C634 C 0.98852 0.33 0.15516 0.0
C635 C 0.17734 0.51604 0.68811 0.0
C636 C 0.195 0.52967 0.67147 0.0
C637 C 0.1755 0.48845 0.68751 0.0
C638 C 0.19152 0.47341 0.67046 0.0
H639 H 0.1656 0.52666 0.70256 0.0
H640 H 0.16259 0.47884 0.70167 0.0
S641 S 0.23796 0.49964 0.62 0.0
N642 N 0.22646 0.52618 0.63513 0.0
N643 N 0.22319 0.47424 0.63424 0.0
C644 C 0.2078 0.48685 0.65233 0.0
C645 C 0.20948 0.51501 0.65274 0.0
C646 C 0.01666 0.69741 0.16195 0.0
C647 C 0.03197 0.67933 0.17657 0.0
C648 C 0.98906 0.69779 0.16404 0.0
C649 C 0.97558 0.68 0.18069 0.0
H650 H 0.02605 0.71224 0.14967 0.0
H651 H 0.97832 0.71281 0.15317 0.0
S652 S 0.00619 0.62619 0.22026 0.0
N653 N 0.03143 0.64132 0.2061 0.0
N654 N 0.97951 0.64196 0.20997 0.0
C655 C 0.99049 0.66061 0.19401 0.0
C656 C 0.01868 0.66031 0.19197 0.0
C657 C 0.78385 0.48372 0.65903 0.0
C658 C 0.80695 0.46941 0.66499 0.0
C659 C 0.78361 0.51131 0.65949 0.0
C660 C 0.80645 0.52582 0.66598 0.0
H661 H 0.76542 0.47356 0.65498 0.0
H662 H 0.76499 0.52126 0.65579 0.0
S663 S 0.87309 0.49793 0.67941 0.0
N664 N 0.85407 0.47182 0.6747 0.0
N665 N 0.85362 0.52387 0.67561 0.0
C666 C 0.83023 0.51187 0.67 0.0
C667 C 0.83047 0.48362 0.6695 0.0
C668 C 0.9878 0.67012 0.83007 0.0
C669 C 0.97371 0.69201 0.83991 0.0
C670 C 0.01548 0.67043 0.82853 0.0
C671 C 0.03005 0.69262 0.83683 0.0
H672 H 0.97738 0.65317 0.82214 0.0
H673 H 0.02535 0.65372 0.81947 0.0
S674 S 0.0028 0.75276 0.86898 0.0
N675 N 0.97654 0.73486 0.86154 0.0
N676 N 0.02853 0.73542 0.85881 0.0
C677 C 0.0163 0.7137 0.84873 0.0
C678 C 0.98814 0.71341 0.85022 0.0
C679 C 0.7727 0.5084 0.3449 0.0
C680 C 0.79506 0.52407 0.33957 0.0
C681 C 0.77403 0.48085 0.34405 0.0
C682 C 0.79779 0.46776 0.33779 0.0
H683 H 0.75362 0.51745 0.34862 0.0
H684 H 0.75593 0.4698 0.34713 0.0
S685 S 0.86305 0.49953 0.32638 0.0
N686 N 0.84248 0.52446 0.33101 0.0
N687 N 0.84499 0.47249 0.32936 0.0
C688 C 0.82084 0.48308 0.33461 0.0
C689 C 0.81947 0.51128 0.3355 0.0
C690 C 0.01319 0.33207 0.82992 0.0
C691 C 0.02815 0.31288 0.84344 0.0
C692 C 0.98551 0.33064 0.82919 0.0
C693 C 0.97194 0.30994 0.84192 0.0
H694 H 0.02288 0.34709 0.8181 0.0
H695 H 0.97493 0.34461 0.81687 0.0
S696 S 0.00153 0.25902 0.88565 0.0
N697 N 0.02708 0.27577 0.8741 0.0
N698 N 0.97508 0.273 0.87254 0.0
C699 C 0.98647 0.29252 0.85796 0.0
C700 C 0.01461 0.29403 0.8588 0.0
C701 C 0.16714 0.48728 0.32643 0.0
C702 C 0.18697 0.47285 0.33959 0.0
C703 C 0.16745 0.51499 0.32622 0.0
C704 C 0.18759 0.52915 0.33916 0.0
H705 H 0.15231 0.47722 0.3147 0.0
H706 H 0.15285 0.52521 0.31433 0.0
S707 S 0.2403 0.50067 0.38162 0.0
N708 N 0.2245 0.47474 0.36963 0.0
N709 N 0.22506 0.52678 0.3693 0.0
C710 C 0.20588 0.51497 0.35462 0.0
C711 C 0.20558 0.4868 0.35481 0.0
C712 C 0.15136 0.98331 0.28558 0.0
C713 C 0.16165 0.96855 0.30682 0.0
C714 C 0.15243 0.01091 0.2855 0.0
C715 C 0.16357 0.02492 0.30677 0.0
H716 H 0.14387 0.97355 0.26805 0.0
H717 H 0.14559 0.02126 0.26803 0.0
S718 S 0.18835 0.99588 0.3695 0.0
N719 N 0.17975 0.97012 0.3514 0.0
N720 N 0.18159 0.02215 0.35133 0.0
C721 C 0.17154 0.01058 0.32926 0.0
C722 C 0.17062 0.98235 0.32927 0.0
C723 C 0.50843 0.66882 0.82836 0.0
C724 C 0.52407 0.65904 0.80752 0.0
C725 C 0.48079 0.66983 0.82625 0.0
C726 C 0.46785 0.66111 0.80323 0.0
H727 H 0.51758 0.67707 0.84587 0.0
H728 H 0.46969 0.67882 0.84222 0.0
S729 S 0.49942 0.62897 0.74526 0.0
N730 N 0.52434 0.63696 0.76476 0.0
N731 N 0.47247 0.6389 0.7608 0.0
C732 C 0.48312 0.64933 0.78317 0.0
C733 C 0.51121 0.64828 0.78532 0.0
C734 C 0.83497 0.00438 0.30966 0.0
C735 C 0.84718 0.02116 0.29113 0.0
C736 C 0.83506 0.97692 0.30626 0.0
C737 C 0.8474 0.9652 0.28422 0.0
H738 H 0.82386 0.0125 0.32608 0.0
H739 H 0.82411 0.96498 0.32028 0.0
S740 S 0.88695 0.00014 0.23309 0.0
N741 N 0.87542 0.02392 0.25223 0.0
N742 N 0.87566 0.97229 0.24585 0.0
C743 C 0.86175 0.98161 0.26689 0.0
C744 C 0.86163 0.00959 0.27034 0.0
C745 C 0.51106 0.33247 0.82924 0.0
C746 C 0.5255 0.3418 0.80734 0.0
C747 C 0.48338 0.331 0.82854 0.0
C748 C 0.46923 0.33882 0.8059 0.0
H749 H 0.5212 0.32478 0.84648 0.0
H750 H 0.4732 0.32224 0.84524 0.0
S751 S 0.49741 0.36987 0.7456 0.0
N752 N 0.52338 0.36274 0.76406 0.0
N753 N 0.4714 0.36001 0.76273 0.0
C754 C 0.48329 0.35034 0.78483 0.0
C755 C 0.51143 0.35183 0.78555 0.0
C756 C 0.14831 0.01569 0.71541 0.0
C757 C 0.15992 0.03021 0.6947 0.0
C758 C 0.14748 0.98808 0.71472 0.0
C759 C 0.15789 0.97394 0.69315 0.0
H760 H 0.14125 0.02555 0.73307 0.0
H761 H 0.13962 0.97771 0.73176 0.0
S762 S 0.18622 0.00291 0.63189 0.0
N763 N 0.17901 0.02868 0.65058 0.0
N764 N 0.17719 0.97667 0.6491 0.0
C765 C 0.16745 0.98829 0.67129 0.0
C766 C 0.16856 0.01646 0.67213 0.0
C767 C 0.47847 0.67239 0.16336 0.0
C768 C 0.46456 0.66047 0.18433 0.0
C769 C 0.50618 0.67358 0.16338 0.0
C770 C 0.521 0.66292 0.18438 0.0
H771 H 0.46793 0.68193 0.14734 0.0
H772 H 0.51591 0.68398 0.14737 0.0
S773 S 0.49431 0.62566 0.24179 0.0
N774 N 0.46786 0.63493 0.22503 0.0
N775 N 0.51987 0.63723 0.22507 0.0
C776 C 0.50742 0.64939 0.20457 0.0
C777 C 0.47923 0.64814 0.20454 0.0
C778 C 0.8204 0.01368 0.66693 0.0
C779 C 0.83273 0.02832 0.6871 0.0
C780 C 0.82006 0.98598 0.66759 0.0
C781 C 0.8321 0.97196 0.68841 0.0
H782 H 0.80956 0.02361 0.65134 0.0
H783 H 0.80897 0.97564 0.65247 0.0
S784 S 0.87182 0.00103 0.7429 0.0
N785 N 0.8607 0.02678 0.7262 0.0
N786 N 0.86023 0.97477 0.7274 0.0
C787 C 0.84654 0.98635 0.70736 0.0
C788 C 0.8468 0.01453 0.70673 0.0
C789 C 0.50868 0.32794 0.21036 0.0
C790 C 0.52022 0.30856 0.19404 0.0
C791 C 0.4812 0.33091 0.21187 0.0
C792 C 0.46417 0.31447 0.1973 0.0
H793 H 0.52089 0.34035 0.22283 0.0
H794 H 0.4733 0.34536 0.22557 0.0
S795 S 0.48428 0.26332 0.14871 0.0
N796 N 0.51243 0.27465 0.16074 0.0
N797 N 0.46074 0.28017 0.1638 0.0
C798 C 0.47541 0.29618 0.17963 0.0
C799 C 0.50345 0.29327 0.17792 0.0
C800 C 0.29273 0.1616 0.01017 0.0
C801 C 0.30831 0.18087 0.02286 0.0
C802 C 0.29164 0.15998 0.98256 0.0
C803 C 0.30596 0.17766 0.96655 0.0
H804 H 0.28041 0.14828 0.02157 0.0
H805 H 0.27846 0.14555 0.97379 0.0
S806 S 0.35303 0.22894 0.98978 0.0
N807 N 0.34089 0.21593 0.01716 0.0
N808 N 0.33864 0.21293 0.96526 0.0
C809 C 0.32299 0.19583 0.97891 0.0
C810 C 0.32424 0.1974 0.00706 0.0
C811 C 0.31747 0.80201 0.01936 0.0
C812 C 0.3028 0.82174 0.03239 0.0
C813 C 0.32007 0.80195 0.99182 0.0
C814 C 0.3079 0.8215 0.97623 0.0
H815 H 0.32597 0.7857 0.03035 0.0
H816 H 0.33026 0.78547 0.98269 0.0
S817 S 0.2717 0.88037 0.0009 0.0
N818 N 0.27927 0.86354 0.02783 0.0
N819 N 0.28402 0.86326 0.97599 0.0
C820 C 0.29521 0.84263 0.98912 0.0
C821 C 0.2927 0.84281 0.01723 0.0
C822 C 0.66978 0.82597 0.51406 0.0
C823 C 0.65813 0.80587 0.52937 0.0
C824 C 0.66758 0.82594 0.48643 0.0
C825 C 0.65363 0.8058 0.47322 0.0
H826 H 0.68229 0.84075 0.52322 0.0
H827 H 0.6785 0.84069 0.47537 0.0
S828 S 0.61408 0.75259 0.50477 0.0
N829 N 0.62819 0.76821 0.52971 0.0
N830 N 0.62398 0.76816 0.47783 0.0
C831 C 0.6395 0.78733 0.48851 0.0
C832 C 0.64179 0.78735 0.5166 0.0
C833 C 0.71914 0.1589 0.00758 0.0
C834 C 0.70004 0.17274 0.02231 0.0
C835 C 0.71618 0.15524 0.98031 0.0
C836 C 0.69386 0.16497 0.96683 0.0
H837 H 0.7372 0.15203 0.01685 0.0
H838 H 0.73202 0.14558 0.96958 0.0
S839 S 0.63632 0.19913 0.99719 0.0
N840 N 0.65676 0.19374 0.02208 0.0
N841 N 0.65099 0.18662 0.97084 0.0
C842 C 0.67368 0.17711 0.98169 0.0
C843 C 0.67686 0.18111 0.00944 0.0
C844 C 0.3425 0.20668 0.51679 0.0
C845 C 0.3314 0.18545 0.53094 0.0
C846 C 0.34305 0.20676 0.48919 0.0
C847 C 0.33246 0.18562 0.47454 0.0
H848 H 0.34964 0.22408 0.52705 0.0
H849 H 0.35056 0.22423 0.47931 0.0
S850 S 0.30566 0.12305 0.50213 0.0
N851 N 0.31302 0.14104 0.52835 0.0
N852 N 0.31402 0.14117 0.47628 0.0
C853 C 0.32363 0.16314 0.4884 0.0
C854 C 0.3231 0.16306 0.51667 0.0
C855 C 0.67743 0.83314 0.01633 0.0
C856 C 0.70073 0.83987 0.02997 0.0
C857 C 0.67658 0.83338 0.98863 0.0
C858 C 0.699 0.84036 0.97368 0.0
H859 H 0.66024 0.82602 0.02697 0.0
H860 H 0.65876 0.82644 0.97896 0.0
S861 S 0.76282 0.86526 7e-05 0.0
N862 N 0.74527 0.85785 0.02659 0.0
N863 N 0.74367 0.8583 0.97457 0.0
C864 C 0.72155 0.84952 0.98713 0.0
C865 C 0.72242 0.84928 0.01529 0.0
C866 C 0.67889 0.16777 0.51331 0.0
C867 C 0.66512 0.18906 0.52482 0.0
C868 C 0.68093 0.16531 0.48579 0.0
C869 C 0.6693 0.18406 0.46887 0.0
H870 H 0.68963 0.15386 0.52555 0.0
H871 H 0.69317 0.14962 0.47786 0.0
S872 S 0.62603 0.23983 0.48899 0.0
N873 N 0.63595 0.22656 0.51713 0.0
N874 N 0.63982 0.22194 0.46543 0.0
C875 C 0.65332 0.20388 0.48008 0.0
C876 C 0.65122 0.20638 0.50806 0.0
C877 C 0.31272 0.83433 0.47974 0.0
C878 C 0.32815 0.81594 0.46565 0.0
C879 C 0.31315 0.83509 0.50743 0.0
C880 C 0.32895 0.81742 0.52199 0.0
H881 H 0.29892 0.84711 0.46948 0.0
H882 H 0.29965 0.84839 0.51741 0.0
S883 S 0.37746 0.76974 0.49454 0.0
N884 N 0.3631 0.78286 0.46832 0.0
N885 N 0.36362 0.78416 0.52035 0.0
C886 C 0.34636 0.80078 0.50814 0.0
C887 C 0.34606 0.80009 0.47996 0.0
C888 C 0.17355 0.36685 0.24611 0.0
C889 C 0.16244 0.36417 0.27153 0.0
C890 C 0.1624 0.35423 0.22415 0.0
C891 C 0.13961 0.33847 0.22667 0.0
H892 H 0.19167 0.37792 0.2432 0.0
H893 H 0.17239 0.35605 0.20529 0.0
S894 S 0.10052 0.32837 0.28815 0.0
N895 N 0.12574 0.34689 0.29743 0.0
N896 N 0.10456 0.32337 0.25616 0.0
C897 C 0.12728 0.33706 0.25166 0.0
C898 C 0.13875 0.34982 0.27408 0.0
C899 C 0.16848 0.65438 0.76755 0.0
C900 C 0.14353 0.66661 0.76611 0.0
C901 C 0.17942 0.6415 0.74566 0.0
C902 C 0.16577 0.64002 0.72145 0.0
H903 H 0.18008 0.6553 0.78553 0.0
H904 H 0.19889 0.6328 0.74776 0.0
S905 S 0.0991 0.66744 0.70759 0.0
N906 N 0.10492 0.67548 0.73869 0.0
N907 N 0.12548 0.651 0.69756 0.0
C908 C 0.14042 0.65137 0.7199 0.0
C909 C 0.12932 0.66475 0.7422 0.0
C910 C 0.82037 0.6281 0.24974 0.0
C911 C 0.82637 0.63308 0.27647 0.0
C912 C 0.83506 0.63965 0.22929 0.0
C913 C 0.85636 0.65668 0.2347 0.0
H914 H 0.80369 0.61575 0.24441 0.0
H915 H 0.82905 0.6358 0.2091 0.0
S916 S 0.88214 0.67392 0.30133 0.0
N917 N 0.85651 0.65458 0.30724 0.0
N918 N 0.88416 0.67622 0.26884 0.0
C919 C 0.86343 0.66083 0.26134 0.0
C920 C 0.84844 0.64906 0.2822 0.0
C921 C 0.85091 0.34918 0.77061 0.0
C922 C 0.86622 0.32626 0.76702 0.0
C923 C 0.83776 0.36112 0.74938 0.0
C924 C 0.8392 0.35053 0.72365 0.0
H925 H 0.84843 0.35767 0.79011 0.0
H926 H 0.8256 0.37827 0.75347 0.0
S927 S 0.87874 0.29215 0.70312 0.0
N928 N 0.88371 0.2945 0.73528 0.0
N929 N 0.85886 0.31687 0.69543 0.0
C930 C 0.85548 0.32835 0.7195 0.0
C931 C 0.86902 0.31624 0.74115 0.0
C932 C 0.24576 0.16519 0.36766 0.0
C933 C 0.27248 0.16067 0.36117 0.0
C934 C 0.22532 0.15156 0.35488 0.0
C935 C 0.23074 0.1329 0.335 0.0
H936 H 0.24041 0.17991 0.38227 0.0
H937 H 0.20511 0.15642 0.36006 0.0
S938 S 0.29741 0.11161 0.31252 0.0
N939 N 0.3033 0.13458 0.33493 0.0
N940 N 0.2649 0.10898 0.31092 0.0
C941 C 0.2574 0.12725 0.32916 0.0
C942 C 0.27825 0.14111 0.34223 0.0
C943 C 0.34844 0.77393 0.83461 0.0
C944 C 0.33232 0.76929 0.85681 0.0
C945 C 0.36075 0.75305 0.82121 0.0
C946 C 0.35747 0.72665 0.82945 0.0
H947 H 0.35102 0.79377 0.82697 0.0
H948 H 0.37235 0.75769 0.8038 0.0
S949 S 0.31956 0.70408 0.88822 0.0
N950 N 0.31544 0.73643 0.88775 0.0
N951 N 0.3385 0.69724 0.86253 0.0
C952 C 0.34233 0.72181 0.85232 0.0
C953 C 0.32979 0.7431 0.86599 0.0
C954 C 0.74476 0.8179 0.36928 0.0
C955 C 0.71888 0.82536 0.36212 0.0
C956 C 0.76693 0.82988 0.35777 0.0
C957 C 0.76421 0.84984 0.33859 0.0
H958 H 0.74804 0.80219 0.38348 0.0
H959 H 0.78635 0.8229 0.36355 0.0
S960 S 0.70081 0.87825 0.31444 0.0
N961 N 0.69184 0.85521 0.33574 0.0
N962 N 0.73346 0.87777 0.31416 0.0
C963 C 0.73845 0.85824 0.33196 0.0
C964 C 0.71583 0.846 0.3437 0.0
C965 C 0.6333 0.22361 0.84302 0.0
C966 C 0.65258 0.22481 0.86298 0.0
C967 C 0.62199 0.24669 0.83273 0.0
C968 C 0.62933 0.27186 0.84217 0.0
H969 H 0.62783 0.20482 0.83432 0.0
H970 H 0.60803 0.24478 0.81659 0.0
S971 S 0.6762 0.28539 0.89705 0.0
N972 N 0.67651 0.25292 0.89384 0.0
N973 N 0.65517 0.29631 0.8746 0.0
C974 C 0.64725 0.2732 0.86341 0.0
C975 C 0.65891 0.24968 0.87376 0.0
C976 C 0.27146 0.85757 0.65921 0.0
C977 C 0.26846 0.8423 0.63619 0.0
C978 C 0.24963 0.86941 0.67145 0.0
C979 C 0.22389 0.86646 0.66118 0.0
H980 H 0.29066 0.85963 0.6685 0.0
H981 H 0.25294 0.88017 0.68967 0.0
S982 S 0.20585 0.83154 0.59919 0.0
N983 N 0.23809 0.82717 0.60199 0.0
N984 N 0.19707 0.84934 0.62509 0.0
C985 C 0.2208 0.85254 0.63731 0.0
C986 C 0.24307 0.84049 0.62481 0.0
C987 C 0.64718 0.7704 0.15101 0.0
C988 C 0.66722 0.76641 0.13212 0.0
C989 C 0.633 0.74912 0.16161 0.0
C990 C 0.63823 0.72291 0.15376 0.0
H991 H 0.64299 0.79003 0.15846 0.0
H992 H 0.61846 0.75327 0.17679 0.0
S993 S 0.68628 0.70207 0.10223 0.0
N994 N 0.68976 0.73445 0.10401 0.0
N995 N 0.66313 0.69445 0.12397 0.0
C996 C 0.65713 0.71876 0.13373 0.0
C997 C 0.67162 0.74048 0.12292 0.0
C998 C 0.77147 0.17869 0.65633 0.0
C999 C 0.77032 0.15254 0.6657 0.0
C1000 C 0.7505 0.18969 0.642 0.0
C1001 C 0.72733 0.17513 0.63689 0.0
H1002 H 0.78855 0.19096 0.66046 0.0
H1003 H 0.75213 0.21011 0.63571 0.0
S1004 S 0.71496 0.10529 0.65555 0.0
N1005 N 0.74466 0.1118 0.66746 0.0
N1006 N 0.70501 0.13277 0.64098 0.0
C1007 C 0.72618 0.14873 0.64544 0.0
C1008 C 0.74775 0.13734 0.65968 0.0
C1009 C 0.33212 0.25529 0.13363 0.0
C1010 C 0.31365 0.24189 0.14964 0.0
C1011 C 0.34769 0.27588 0.14374 0.0
C1012 C 0.34555 0.28376 0.17032 0.0
H1013 H 0.33463 0.24987 0.11306 0.0
H1014 H 0.36178 0.28538 0.13068 0.0
S1015 S 0.29981 0.25541 0.22051 0.0
N1016 N 0.29387 0.2383 0.19339 0.0
N1017 N 0.32302 0.27686 0.21239 0.0
C1018 C 0.32696 0.27069 0.18651 0.0
C1019 C 0.31104 0.24981 0.17618 0.0
C1020 C 0.83242 0.6255 0.75892 0.0
C1021 C 0.83798 0.6333 0.73275 0.0
C1022 C 0.84592 0.63659 0.7804 0.0
C1023 C 0.86541 0.65604 0.77659 0.0
H1024 H 0.81692 0.61128 0.76302 0.0
H1025 H 0.84015 0.63067 0.80017 0.0
S1026 S 0.88983 0.68104 0.71195 0.0
N1027 N 0.86617 0.65994 0.70417 0.0
N1028 N 0.89147 0.6808 0.74455 0.0
C1029 C 0.87224 0.66296 0.75048 0.0
C1030 C 0.85856 0.65158 0.72857 0.0
C1031 C 0.86975 0.34318 0.24122 0.0
C1032 C 0.86219 0.35023 0.21536 0.0
C1033 C 0.85631 0.353 0.26332 0.0
C1034 C 0.8346 0.37014 0.26049 0.0
H1035 H 0.88563 0.32916 0.24446 0.0
H1036 H 0.86234 0.34611 0.28269 0.0
S1037 S 0.80885 0.39729 0.19723 0.0
N1038 N 0.83314 0.37739 0.18828 0.0
N1039 N 0.8078 0.3959 0.22983 0.0
C1040 C 0.82785 0.3787 0.23482 0.0
C1041 C 0.84169 0.36876 0.21226 0.0
C1042 C 0.1629 0.35038 0.77736 0.0
C1043 C 0.14014 0.33465 0.7745 0.0
C1044 C 0.17455 0.36287 0.75556 0.0
C1045 C 0.16397 0.36014 0.72994 0.0
H1046 H 0.17234 0.35251 0.79647 0.0
H1047 H 0.1925 0.37413 0.75881 0.0
S1048 S 0.10289 0.32344 0.71212 0.0
N1049 N 0.10615 0.31879 0.74425 0.0
N1050 N 0.12815 0.34217 0.70331 0.0
C1051 C 0.14052 0.34546 0.72694 0.0
C1052 C 0.12859 0.33276 0.74919 0.0
C1053 C 0.16925 0.64137 0.25197 0.0
C1054 C 0.19703 0.64145 0.25267 0.0
C1055 C 0.15552 0.65282 0.23078 0.0
C1056 C 0.16909 0.66451 0.20939 0.0
H1057 H 0.15803 0.63335 0.26838 0.0
H1058 H 0.13411 0.6532 0.23165 0.0
S1059 S 0.24202 0.66568 0.20004 0.0
N1060 N 0.23769 0.6514 0.22905 0.0
N1061 N 0.21206 0.67262 0.18904 0.0
C1062 C 0.19693 0.66315 0.20916 0.0
C1063 C 0.21085 0.65173 0.23087 0.0
C1064 C 0.74491 0.86174 0.67126 0.0
C1065 C 0.77151 0.85719 0.66431 0.0
C1066 C 0.72422 0.84832 0.65867 0.0
C1067 C 0.72922 0.82979 0.63855 0.0
H1068 H 0.73993 0.87525 0.68711 0.0
H1069 H 0.7042 0.85204 0.66534 0.0
S1070 S 0.79521 0.81254 0.61103 0.0
N1071 N 0.8016 0.83419 0.63459 0.0
N1072 N 0.76275 0.80904 0.61085 0.0
C1073 C 0.75565 0.82591 0.63053 0.0
C1074 C 0.77677 0.83957 0.64342 0.0
C1075 C 0.63124 0.23668 0.16016 0.0
C1076 C 0.64011 0.26307 0.16094 0.0
C1077 C 0.64507 0.21734 0.1459 0.0
C1078 C 0.66851 0.22358 0.1323 0.0
H1079 H 0.61363 0.23083 0.17089 0.0
H1080 H 0.63775 0.19721 0.14622 0.0
S1081 S 0.69952 0.29 0.12714 0.0
N1082 N 0.67325 0.29461 0.14598 0.0
N1083 N 0.69935 0.25829 0.1195 0.0
C1084 C 0.67726 0.25002 0.13242 0.0
C1085 C 0.66301 0.26976 0.14663 0.0
C1086 C 0.26261 0.15044 0.66621 0.0
C1087 C 0.26037 0.16475 0.64248 0.0
C1088 C 0.24051 0.13869 0.67798 0.0
C1089 C 0.21523 0.14051 0.66643 0.0
H1090 H 0.28147 0.14882 0.67626 0.0
H1091 H 0.24334 0.12827 0.69649 0.0
S1092 S 0.19887 0.17431 0.60337 0.0
N1093 N 0.23097 0.17908 0.6071 0.0
N1094 N 0.1894 0.15678 0.62925 0.0
C1095 C 0.21278 0.15398 0.64223 0.0
C1096 C 0.23534 0.16616 0.63027 0.0
C1097 C 0.34693 0.76671 0.14948 0.0
C1098 C 0.3197 0.77067 0.14522 0.0
C1099 C 0.35624 0.74442 0.16311 0.0
C1100 C 0.33868 0.72529 0.17318 0.0
H1101 H 0.36124 0.781 0.14242 0.0
H1102 H 0.37736 0.74248 0.16623 0.0
S1103 S 0.26559 0.72532 0.1659 0.0
N1104 N 0.27531 0.75273 0.15116 0.0
N1105 N 0.29285 0.71109 0.17685 0.0
C1106 C 0.31145 0.72872 0.16866 0.0
C1107 C 0.30195 0.75132 0.15467 0.0
C1108 C 0.73705 0.1337 0.34028 0.0
C1109 C 0.74093 0.15313 0.35978 0.0
C1110 C 0.75847 0.12249 0.32678 0.0
C1111 C 0.7847 0.13019 0.33221 0.0
H1112 H 0.71727 0.12778 0.33456 0.0
H1113 H 0.75425 0.10833 0.31128 0.0
S1114 S 0.80582 0.17771 0.38404 0.0
N1115 N 0.77322 0.17764 0.38579 0.0
N1116 N 0.81346 0.15661 0.36035 0.0
C1117 C 0.78899 0.14839 0.35282 0.0
C1118 C 0.76712 0.15984 0.3666 0.0
C1119 C 0.35934 0.22175 0.84688 0.0
C1120 C 0.33229 0.21523 0.84802 0.0
C1121 C 0.36843 0.24261 0.83098 0.0
C1122 C 0.35085 0.25764 0.81547 0.0
H1123 H 0.37366 0.21073 0.8584 0.0
H1124 H 0.38946 0.24676 0.83065 0.0
S1125 S 0.27794 0.24915 0.81175 0.0
N1126 N 0.2879 0.22594 0.83239 0.0
N1127 N 0.30502 0.26494 0.80267 0.0
C1128 C 0.32374 0.25145 0.81651 0.0
C1129 C 0.31446 0.23032 0.83273 0.0
C1130 C 0.27691 0.82565 0.31112 0.0
C1131 C 0.27391 0.82379 0.3387 0.0
C1132 C 0.25719 0.83688 0.29531 0.0
C1133 C 0.23386 0.84711 0.30647 0.0
H1134 H 0.29443 0.8179 0.3015 0.0
H1135 H 0.26043 0.83774 0.27414 0.0
S1136 S 0.21659 0.84781 0.37777 0.0
N1137 N 0.24589 0.83339 0.37663 0.0
N1138 N 0.20897 0.85509 0.34685 0.0
C1139 C 0.23073 0.84582 0.33407 0.0
C1140 C 0.25069 0.83397 0.3502 0.0
C1141 C 0.63006 0.74935 0.83516 0.0
C1142 C 0.63464 0.72378 0.84523 0.0
C1143 C 0.64252 0.77154 0.84602 0.0
C1144 C 0.66008 0.76911 0.86744 0.0
H1145 H 0.61755 0.75226 0.818 0.0
H1146 H 0.63918 0.79056 0.83676 0.0
S1147 S 0.67587 0.70711 0.90368 0.0
N1148 N 0.6558 0.69771 0.87972 0.0
N1149 N 0.67908 0.7394 0.90029 0.0
C1150 C 0.66343 0.74391 0.8789 0.0
C1151 C 0.65076 0.72126 0.86776 0.0
C1152 C 0.13272 0.21818 0.26403 0.0
C1153 C 0.11764 0.21593 0.24076 0.0
C1154 C 0.14633 0.19639 0.27436 0.0
C1155 C 0.14471 0.17148 0.26222 0.0
H1156 H 0.13542 0.23722 0.27345 0.0
H1157 H 0.15896 0.19926 0.29143 0.0
S1158 S 0.10564 0.15452 0.20254 0.0
N1159 N 0.10036 0.18644 0.20695 0.0
N1160 N 0.12537 0.14527 0.22688 0.0
C1161 C 0.12825 0.16852 0.24003 0.0
C1162 C 0.11486 0.19083 0.22915 0.0
C1163 C 0.33936 0.61168 0.7161 0.0
C1164 C 0.3429 0.62121 0.74199 0.0
C1165 C 0.31461 0.60286 0.7074 0.0
C1166 C 0.29246 0.60298 0.72428 0.0
H1167 H 0.35535 0.61257 0.70185 0.0
H1168 H 0.31258 0.59714 0.68685 0.0
S1169 S 0.29247 0.62129 0.7954 0.0
N1170 N 0.32312 0.62678 0.78551 0.0
N1171 N 0.27658 0.61003 0.7692 0.0
C1172 C 0.2963 0.61011 0.75092 0.0
C1173 C 0.32152 0.61929 0.75975 0.0
C1174 C 0.88506 0.828 0.23168 0.0
C1175 C 0.87354 0.83206 0.2567 0.0
C1176 C 0.89512 0.80332 0.22436 0.0
C1177 C 0.89429 0.78167 0.2418 0.0
H1178 H 0.88518 0.84362 0.21701 0.0
H1179 H 0.9026 0.80097 0.20441 0.0
S1180 S 0.86999 0.78285 0.31112 0.0
N1181 N 0.86469 0.81311 0.30008 0.0
N1182 N 0.88376 0.76666 0.28634 0.0
C1183 C 0.88478 0.78594 0.26763 0.0
C1184 C 0.87436 0.81114 0.27507 0.0
C1185 C 0.70156 0.35764 0.7829 0.0
C1186 C 0.67596 0.36103 0.77262 0.0
C1187 C 0.72359 0.36896 0.77044 0.0
C1188 C 0.72084 0.38343 0.74683 0.0
H1189 H 0.70471 0.34523 0.80009 0.0
H1190 H 0.74304 0.36491 0.77849 0.0
S1191 S 0.65782 0.39978 0.71301 0.0
N1192 N 0.64883 0.38164 0.73865 0.0
N1193 N 0.69035 0.40231 0.71479 0.0
C1194 C 0.69521 0.38809 0.73709 0.0
C1195 C 0.67272 0.37706 0.75012 0.0
C1196 C 0.10239 0.81357 0.7806 0.0
C1197 C 0.10314 0.79195 0.76315 0.0
C1198 C 0.10934 0.83899 0.77222 0.0
C1199 C 0.11771 0.84378 0.7461 0.0
H1200 H 0.09731 0.81071 0.80123 0.0
H1201 H 0.10962 0.85464 0.78683 0.0
S1202 S 0.11965 0.79462 0.69165 0.0
N1203 N 0.11006 0.7775 0.71776 0.0
N1204 N 0.12346 0.82532 0.70204 0.0
C1205 C 0.11674 0.82271 0.72794 0.0
C1206 C 0.10938 0.79679 0.73645 0.0
C1207 C 0.65006 0.60868 0.2674 0.0
C1208 C 0.64777 0.6171 0.24096 0.0
C1209 C 0.6743 0.60017 0.27769 0.0
C1210 C 0.69721 0.59938 0.2619 0.0
H1211 H 0.63339 0.61008 0.2808 0.0
H1212 H 0.67526 0.59511 0.29849 0.0
S1213 S 0.70094 0.61539 0.19031 0.0
N1214 N 0.66984 0.62126 0.19838 0.0
N1215 N 0.71541 0.60496 0.21766 0.0
C1216 C 0.69477 0.6057 0.23489 0.0
C1217 C 0.67006 0.61463 0.22444 0.0
C1218 C 0.89804 0.18002 0.78564 0.0
C1219 C 0.90269 0.201 0.76793 0.0
C1220 C 0.88609 0.1565 0.77725 0.0
C1221 C 0.87813 0.15303 0.75082 0.0
H1222 H 0.90249 0.18219 0.80649 0.0
H1223 H 0.88179 0.14155 0.79199 0.0
S1224 S 0.88963 0.20015 0.69564 0.0
N1225 N 0.90133 0.21542 0.72199 0.0
N1226 N 0.87876 0.17127 0.70626 0.0
C1227 C 0.88452 0.17299 0.73246 0.0
C1228 C 0.89686 0.19694 0.741 0.0
C1229 C 0.32958 0.39157 0.26261 0.0
C1230 C 0.32884 0.38928 0.23486 0.0
C1231 C 0.3076 0.40058 0.27683 0.0
C1232 C 0.28415 0.40805 0.26387 0.0
H1233 H 0.34654 0.38463 0.27372 0.0
H1234 H 0.30861 0.40048 0.29823 0.0
S1235 S 0.27375 0.4103 0.19119 0.0
N1236 N 0.30399 0.39846 0.19474 0.0
N1237 N 0.26273 0.41582 0.22143 0.0
C1238 C 0.284 0.40822 0.23601 0.0
C1239 C 0.30633 0.39872 0.22152 0.0
C1240 C 0.26831 0.12262 0.17359 0.0
C1241 C 0.25065 0.12287 0.15204 0.0
C1242 C 0.26052 0.11314 0.19846 0.0
C1243 C 0.23471 0.10366 0.20283 0.0
H1244 H 0.28796 0.13096 0.17165 0.0
H1245 H 0.27446 0.11459 0.21466 0.0
S1246 S 0.18218 0.09606 0.15205 0.0
N1247 N 0.20714 0.10971 0.13603 0.0
N1248 N 0.19253 0.09207 0.18275 0.0
C1249 C 0.21749 0.10195 0.18102 0.0
C1250 C 0.22546 0.11147 0.15564 0.0
C1251 C 0.37323 0.76621 0.67001 0.0
C1252 C 0.37071 0.7487 0.64851 0.0
C1253 C 0.38281 0.75757 0.69455 0.0
C1254 C 0.39008 0.73103 0.69863 0.0
H1255 H 0.36674 0.78655 0.66827 0.0
H1256 H 0.38325 0.77156 0.71075 0.0
S1257 S 0.39085 0.67803 0.64784 0.0
N1258 N 0.37907 0.70415 0.63222 0.0
N1259 N 0.39688 0.68796 0.67833 0.0
C1260 C 0.38934 0.71372 0.67685 0.0
C1261 C 0.37974 0.72255 0.6518 0.0
C1262 C 0.78756 0.88786 0.19141 0.0
C1263 C 0.76876 0.88807 0.21194 0.0
C1264 C 0.78094 0.87921 0.16599 0.0
C1265 C 0.7553 0.87013 0.1601 0.0
H1266 H 0.80791 0.89344 0.19523 0.0
H1267 H 0.79651 0.8783 0.15129 0.0
S1268 S 0.69775 0.87016 0.20577 0.0
N1269 N 0.72258 0.88118 0.22388 0.0
N1270 N 0.71019 0.8647 0.17608 0.0
C1271 C 0.7358 0.87198 0.17991 0.0
C1272 C 0.74251 0.88102 0.20582 0.0
C1273 C 0.63635 0.29042 0.70008 0.0
C1274 C 0.61487 0.27614 0.71058 0.0
C1275 C 0.65056 0.28103 0.67839 0.0
C1276 C 0.64365 0.25722 0.66591 0.0
H1277 H 0.64296 0.30864 0.70918 0.0
H1278 H 0.66729 0.29252 0.67145 0.0
S1279 S 0.58801 0.21315 0.68423 0.0
N1280 N 0.58663 0.23741 0.70606 0.0
N1281 N 0.61322 0.22006 0.66459 0.0
C1282 C 0.6216 0.24319 0.67535 0.0
C1283 C 0.60728 0.25255 0.69789 0.0
C1284 C 0.20986 0.8623 0.80129 0.0
C1285 C 0.22414 0.88367 0.79058 0.0
C1286 C 0.22021 0.84702 0.8218 0.0
C1287 C 0.24503 0.85275 0.83288 0.0
H1288 H 0.19089 0.85655 0.79314 0.0
H1289 H 0.20871 0.83037 0.82888 0.0
S1290 S 0.2895 0.90779 0.81377 0.0
N1291 N 0.26392 0.91064 0.79362 0.0
N1292 N 0.28309 0.88208 0.83292 0.0
C1293 C 0.25906 0.87476 0.82339 0.0
C1294 C 0.2487 0.89016 0.80202 0.0
C1295 C 0.6308 0.70973 0.29429 0.0
C1296 C 0.61026 0.72472 0.28292 0.0
C1297 C 0.64433 0.71857 0.31663 0.0
C1298 C 0.63763 0.74252 0.32893 0.0
H1299 H 0.63719 0.6913 0.28542 0.0
H1300 H 0.66035 0.70652 0.32424 0.0
S1301 S 0.58434 0.78848 0.30841 0.0
N1302 N 0.58314 0.76435 0.28642 0.0
N1303 N 0.60841 0.78066 0.32909 0.0
C1304 C 0.6165 0.7573 0.31859 0.0
C1305 C 0.60289 0.7485 0.2954 0.0
C1306 C 0.72925 0.12376 0.7693 0.0
C1307 C 0.75385 0.11126 0.77295 0.0
C1308 C 0.71563 0.13501 0.79066 0.0
C1309 C 0.72576 0.13348 0.81649 0.0
H1310 H 0.72123 0.1264 0.74961 0.0
H1311 H 0.69763 0.14597 0.78678 0.0
S1312 S 0.78787 0.10012 0.83695 0.0
N1313 N 0.78676 0.09613 0.80455 0.0
N1314 N 0.7608 0.11661 0.84485 0.0
C1315 C 0.74935 0.11932 0.82068 0.0
C1316 C 0.76352 0.10839 0.79884 0.0
C1317 C 0.38152 0.25229 0.29919 0.0
C1318 C 0.37589 0.27854 0.29172 0.0
C1319 C 0.36794 0.24013 0.32019 0.0
C1320 C 0.34788 0.25368 0.33378 0.0
H1321 H 0.39607 0.24088 0.28836 0.0
H1322 H 0.37229 0.21972 0.325 0.0
S1323 S 0.32647 0.32298 0.32326 0.0
N1324 N 0.34978 0.31806 0.30092 0.0
N1325 N 0.32398 0.29488 0.33968 0.0
C1326 C 0.34265 0.28009 0.32715 0.0
C1327 C 0.35675 0.29264 0.30629 0.0
C1328 C 0.20251 0.25584 0.1122 0.0
C1329 C 0.20769 0.22963 0.10446 0.0
C1330 C 0.17775 0.26314 0.12235 0.0
C1331 C 0.15714 0.24457 0.12499 0.0
H1332 H 0.21807 0.27056 0.11175 0.0
H1333 H 0.17518 0.28326 0.12922 0.0
S1334 S 0.15943 0.17428 0.1037 0.0
N1335 N 0.18931 0.18576 0.09729 0.0
N1336 N 0.1428 0.19944 0.11617 0.0
C1337 C 0.16148 0.21876 0.11545 0.0
C1338 C 0.18675 0.21131 0.10527 0.0
C1339 C 0.20319 0.73942 0.88481 0.0
C1340 C 0.20689 0.76386 0.89754 0.0
C1341 C 0.1786 0.73245 0.8741 0.0
C1342 C 0.15668 0.74956 0.87582 0.0
H1343 H 0.21974 0.72619 0.88164 0.0
H1344 H 0.17719 0.71403 0.86327 0.0
S1345 S 0.15481 0.81367 0.91161 0.0
N1346 N 0.18574 0.80359 0.91449 0.0
N1347 N 0.13948 0.79046 0.89454 0.0
C1348 C 0.15954 0.77302 0.89055 0.0
C1349 C 0.18466 0.78018 0.90135 0.0
C1350 C 0.74424 0.69415 0.38961 0.0
C1351 C 0.71895 0.69833 0.40046 0.0
C1352 C 0.75133 0.66962 0.37891 0.0
C1353 C 0.73348 0.64823 0.37878 0.0
H1354 H 0.75815 0.71034 0.38783 0.0
H1355 H 0.77051 0.66788 0.36949 0.0
S1356 S 0.66671 0.64753 0.40954 0.0
N1357 N 0.67741 0.67805 0.41387 0.0
N1358 N 0.69075 0.63188 0.39394 0.0
C1359 C 0.70903 0.65147 0.39175 0.0
C1360 C 0.70175 0.67654 0.40252 0.0
C1361 C 0.7933 0.2133 0.85017 0.0
C1362 C 0.78448 0.22455 0.87404 0.0
C1363 C 0.81505 0.22357 0.83665 0.0
C1364 C 0.82924 0.24527 0.84659 0.0
H1365 H 0.78305 0.19661 0.84146 0.0
H1366 H 0.8209 0.21415 0.81831 0.0
S1367 S 0.81482 0.28173 0.90853 0.0
N1368 N 0.79176 0.25861 0.90721 0.0
N1369 N 0.8333 0.27763 0.88188 0.0
C1370 C 0.82102 0.25657 0.87062 0.0
C1371 C 0.79845 0.24632 0.88428 0.0
C1372 C 0.28144 0.31103 0.39491 0.0
C1373 C 0.26276 0.29035 0.39517 0.0
C1374 C 0.27496 0.33615 0.38526 0.0
C1375 C 0.24951 0.34172 0.37545 0.0
H1376 H 0.30169 0.30754 0.40101 0.0
H1377 H 0.29048 0.3509 0.38435 0.0
S1378 S 0.19211 0.29585 0.37571 0.0
N1379 N 0.21678 0.27813 0.3877 0.0
N1380 N 0.20459 0.32538 0.36956 0.0
C1381 C 0.23008 0.32184 0.37738 0.0
C1382 C 0.2367 0.29619 0.38725 0.0
C1383 C 0.80346 0.73702 0.11945 0.0
C1384 C 0.80002 0.76291 0.10988 0.0
C1385 C 0.82785 0.72865 0.12964 0.0
C1386 C 0.84982 0.74577 0.1305 0.0
H1387 H 0.78687 0.7235 0.12042 0.0
H1388 H 0.82907 0.70896 0.138 0.0
S1389 S 0.85227 0.8141 0.10355 0.0
N1390 N 0.82142 0.80453 0.09879 0.0
N1391 N 0.8673 0.78881 0.1177 0.0
C1392 C 0.84718 0.77102 0.11901 0.0
C1393 C 0.82227 0.77959 0.1088 0.0
C1394 C 0.71887 0.34351 0.61382 0.0
C1395 C 0.74528 0.34712 0.6218 0.0
C1396 C 0.71069 0.32007 0.6016 0.0
C1397 C 0.72862 0.29931 0.59673 0.0
H1398 H 0.70397 0.35822 0.61841 0.0
H1399 H 0.68984 0.31772 0.59723 0.0
S1400 S 0.80105 0.30103 0.60922 0.0
N1401 N 0.79009 0.32958 0.6206 0.0
N1402 N 0.77481 0.28553 0.59751 0.0
C1403 C 0.75556 0.30366 0.60242 0.0
C1404 C 0.76386 0.32753 0.61501 0.0
C1405 C 0.21832 0.69699 0.61377 0.0
C1406 C 0.23278 0.67372 0.61874 0.0
C1407 C 0.23055 0.71951 0.60319 0.0
C1408 C 0.25777 0.71973 0.59734 0.0
H1409 H 0.19763 0.69831 0.61923 0.0
H1410 H 0.21882 0.73731 0.60102 0.0
S1411 S 0.30374 0.66272 0.60259 0.0
N1412 N 0.27524 0.65135 0.61379 0.0
N1413 N 0.29814 0.69375 0.59418 0.0
C1414 C 0.27204 0.69603 0.60031 0.0
C1415 C 0.25957 0.67301 0.61091 0.0
C1416 C 0.86993 0.81839 0.74056 0.0
C1417 C 0.84822 0.829 0.7543 0.0
C1418 C 0.88421 0.79692 0.75095 0.0
C1419 C 0.87764 0.7859 0.77569 0.0
H1420 H 0.87527 0.82609 0.72128 0.0
H1421 H 0.90027 0.7887 0.73938 0.0
S1422 S 0.82362 0.80842 0.82031 0.0
N1423 N 0.82163 0.82808 0.79433 0.0
N1424 N 0.84859 0.78832 0.81416 0.0
C1425 C 0.8566 0.79724 0.79006 0.0
C1426 C 0.84184 0.81864 0.77926 0.0
C1427 C 0.65546 0.37004 0.27702 0.0
C1428 C 0.6499 0.36154 0.25112 0.0
C1429 C 0.68006 0.38092 0.28354 0.0
C1430 C 0.70007 0.38399 0.2644 0.0
H1431 H 0.64124 0.36706 0.29278 0.0
H1432 H 0.68371 0.38607 0.30401 0.0
S1433 S 0.6942 0.36837 0.19288 0.0
N1434 N 0.66544 0.35953 0.20559 0.0
N1435 N 0.71167 0.38013 0.21782 0.0
C1436 C 0.69413 0.37738 0.23803 0.0
C1437 C 0.66906 0.36611 0.2314 0.0
C1438 C 0.10469 0.19005 0.72526 0.0
C1439 C 0.11147 0.16743 0.73998 0.0
C1440 C 0.09521 0.21292 0.73774 0.0
C1441 C 0.09211 0.21399 0.7654 0.0
H1442 H 0.10822 0.19072 0.70414 0.0
H1443 H 0.0918 0.23032 0.72572 0.0
S1444 S 0.10199 0.15824 0.81223 0.0
N1445 N 0.11071 0.14621 0.78318 0.0
N1446 N 0.09283 0.18905 0.80661 0.0
C1447 C 0.09655 0.1907 0.78002 0.0
C1448 C 0.10626 0.16747 0.76733 0.0
C1449 C 0.33802 0.60363 0.27244 0.0
C1450 C 0.33964 0.60928 0.24521 0.0
C1451 C 0.31417 0.59567 0.28407 0.0
C1452 C 0.29113 0.5925 0.26887 0.0
H1453 H 0.35484 0.6069 0.2853 0.0
H1454 H 0.31357 0.59292 0.30532 0.0
S1455 S 0.28555 0.60148 0.19621 0.0
N1456 N 0.31665 0.60883 0.20295 0.0
N1457 N 0.27191 0.59333 0.22475 0.0
C1458 C 0.29289 0.59616 0.24132 0.0
C1459 C 0.31713 0.60467 0.22951 0.0
C1460 C 0.84275 0.19132 0.22898 0.0
C1461 C 0.85631 0.17272 0.24459 0.0
C1462 C 0.85594 0.21252 0.21724 0.0
C1463 C 0.88328 0.21635 0.22084 0.0
H1464 H 0.82174 0.18928 0.22525 0.0
H1465 H 0.84445 0.22608 0.20528 0.0
S1466 S 0.92791 0.17391 0.26078 0.0
N1467 N 0.89858 0.15973 0.26356 0.0
N1468 N 0.92347 0.20009 0.24174 0.0
C1469 C 0.89711 0.19825 0.23685 0.0
C1470 C 0.88362 0.17631 0.24862 0.0
C1471 C 0.3134 0.39154 0.71209 0.0
C1472 C 0.29228 0.39365 0.73011 0.0
C1473 C 0.33809 0.38182 0.71997 0.0
C1474 C 0.3426 0.37353 0.74615 0.0
H1475 H 0.3106 0.3965 0.69143 0.0
H1476 H 0.35326 0.37951 0.70501 0.0
S1477 S 0.29498 0.37826 0.80188 0.0
N1478 N 0.27837 0.38924 0.776 0.0
N1479 N 0.32477 0.37074 0.79077 0.0
C1480 C 0.32224 0.37719 0.76479 0.0
C1481 C 0.29709 0.38733 0.75679 0.0
C1482 C 0.12359 0.80413 0.25145 0.0
C1483 C 0.13861 0.82596 0.24299 0.0
C1484 C 0.11984 0.78213 0.23492 0.0
C1485 C 0.13171 0.78099 0.20979 0.0
H1486 H 0.11511 0.80384 0.27112 0.0
H1487 H 0.10862 0.76544 0.24233 0.0
S1488 S 0.17218 0.83321 0.17793 0.0
N1489 N 0.1645 0.84542 0.20722 0.0
N1490 N 0.15804 0.80382 0.17671 0.0
C1491 C 0.14621 0.8029 0.20086 0.0
C1492 C 0.14951 0.82548 0.21732 0.0
C1493 C 0.70226 0.61017 0.76598 0.0
C1494 C 0.70618 0.60195 0.73969 0.0
C1495 C 0.67712 0.61758 0.77508 0.0
C1496 C 0.65488 0.61682 0.75831 0.0
H1497 H 0.71892 0.61224 0.77929 0.0
H1498 H 0.67539 0.62511 0.79506 0.0
S1499 S 0.65401 0.59261 0.68891 0.0
N1500 N 0.68532 0.59055 0.69791 0.0
N1501 N 0.63808 0.6041 0.71498 0.0
C1502 C 0.65824 0.60664 0.73258 0.0
C1503 C 0.68388 0.59936 0.72327 0.0
C1504 C 0.7754 0.88301 0.83784 0.0
C1505 C 0.75 0.87285 0.84295 0.0
C1506 C 0.78201 0.89322 0.81298 0.0
C1507 C 0.7635 0.89375 0.79217 0.0
H1508 H 0.79081 0.88185 0.85268 0.0
H1509 H 0.80225 0.89951 0.80977 0.0
S1510 S 0.69289 0.87385 0.79676 0.0
N1511 N 0.70521 0.86712 0.82623 0.0
N1512 N 0.71762 0.88637 0.77947 0.0
C1513 C 0.73741 0.88565 0.79765 0.0
C1514 C 0.73067 0.87517 0.82303 0.0
C1515 C 0.62218 0.22615 0.29409 0.0
C1516 C 0.60858 0.25018 0.29079 0.0
C1517 C 0.63292 0.21904 0.31862 0.0
C1518 C 0.63032 0.23559 0.34086 0.0
H1519 H 0.6259 0.21337 0.27732 0.0
H1520 H 0.64438 0.20098 0.31979 0.0
S1521 S 0.59233 0.29843 0.34365 0.0
N1522 N 0.59009 0.2889 0.31253 0.0
N1523 N 0.61006 0.2755 0.35867 0.0
C1524 C 0.61485 0.25862 0.33832 0.0
C1525 C 0.60406 0.26593 0.31327 0.0
C1526 C 0.25983 0.09794 0.78065 0.0
C1527 C 0.23261 0.09337 0.7843 0.0
C1528 C 0.27586 0.10632 0.80165 0.0
C1529 C 0.26533 0.11016 0.82714 0.0
H1530 H 0.26852 0.09687 0.76109 0.0
H1531 H 0.29628 0.11133 0.79747 0.0
S1532 S 0.19628 0.09562 0.84802 0.0
N1533 N 0.19663 0.08949 0.81597 0.0
N1534 N 0.22668 0.10483 0.85556 0.0
C1535 C 0.23871 0.10301 0.83157 0.0
C1536 C 0.22235 0.09477 0.8101 0.0
C1537 C 0.36898 0.75148 0.31581 0.0
C1538 C 0.35102 0.7357 0.32995 0.0
C1539 C 0.38183 0.74162 0.29323 0.0
C1540 C 0.37734 0.71559 0.28435 0.0
H1541 H 0.37203 0.77194 0.32135 0.0
H1542 H 0.39456 0.75483 0.28216 0.0
S1543 S 0.33498 0.66529 0.31752 0.0
N1544 N 0.33138 0.69226 0.3355 0.0
N1545 N 0.35575 0.67338 0.29367 0.0
C1546 C 0.36077 0.69911 0.29966 0.0
C1547 C 0.34752 0.70929 0.3223 0.0
C1548 C 0.77104 0.12079 0.1606 0.0
C1549 C 0.74337 0.12349 0.15912 0.0
C1550 C 0.78323 0.10988 0.18289 0.0
C1551 C 0.76832 0.1012 0.20474 0.0
H1552 H 0.7836 0.1281 0.14484 0.0
H1553 H 0.80466 0.1093 0.18333 0.0
S1554 S 0.69496 0.10042 0.20938 0.0
N1555 N 0.70116 0.11398 0.18033 0.0
N1556 N 0.72412 0.09345 0.22231 0.0
C1557 C 0.74052 0.10204 0.20281 0.0
C1558 C 0.72804 0.11317 0.17998 0.0
C1559 C 0.39073 0.2797 0.68529 0.0
C1560 C 0.39078 0.26254 0.70719 0.0
C1561 C 0.38091 0.27159 0.66073 0.0
C1562 C 0.37041 0.24608 0.65716 0.0
H1563 H 0.39744 0.29994 0.68733 0.0
H1564 H 0.38026 0.28599 0.64488 0.0
S1565 S 0.36906 0.19241 0.70728 0.0
N1566 N 0.38195 0.21794 0.72301 0.0
N1567 N 0.36324 0.20275 0.67685 0.0
C1568 C 0.37195 0.22813 0.6784 0.0
C1569 C 0.3822 0.23634 0.70341 0.0
C1570 C 0.267 0.89509 0.21797 0.0
C1571 C 0.24126 0.90552 0.21615 0.0
C1572 C 0.27963 0.88436 0.19573 0.0
C1573 C 0.26696 0.88372 0.17093 0.0
H1574 H 0.27664 0.89326 0.23702 0.0
H1575 H 0.29862 0.87481 0.19851 0.0
S1576 S 0.20207 0.91417 0.15475 0.0
N1577 N 0.20546 0.91868 0.18689 0.0
N1578 N 0.22917 0.89873 0.14508 0.0
C1579 C 0.24246 0.89673 0.16837 0.0
C1580 C 0.22961 0.90756 0.191 0.0
C1581 C 0.63128 0.75564 0.68261 0.0
C1582 C 0.65161 0.74038 0.6714 0.0
C1583 C 0.61705 0.74643 0.70463 0.0
C1584 C 0.62229 0.7214 0.71569 0.0
H1585 H 0.62699 0.77517 0.67491 0.0
H1586 H 0.60212 0.75914 0.71325 0.0
S1587 S 0.67209 0.67287 0.69154 0.0
N1588 N 0.67529 0.69857 0.67168 0.0
N1589 N 0.64836 0.6809 0.71248 0.0
C1590 C 0.64185 0.70549 0.70373 0.0
C1591 C 0.65658 0.7151 0.68174 0.0
C1592 C 0.82868 0.75102 0.87984 0.0
C1593 C 0.82481 0.72674 0.86688 0.0
C1594 C 0.80744 0.76433 0.89171 0.0
C1595 C 0.78184 0.75344 0.89159 0.0
H1596 H 0.8478 0.76069 0.87922 0.0
H1597 H 0.8109 0.78368 0.90022 0.0
S1598 S 0.76209 0.68916 0.86229 0.0
N1599 N 0.79403 0.69164 0.85582 0.0
N1600 N 0.75424 0.71607 0.87903 0.0
C1601 C 0.77814 0.72834 0.88022 0.0
C1602 C 0.79962 0.71514 0.86758 0.0
C1603 C 0.80166 0.28577 0.12053 0.0
C1604 C 0.82788 0.27649 0.12109 0.0
C1605 C 0.7818 0.2717 0.10728 0.0
C1606 C 0.78741 0.24754 0.0947 0.0
H1607 H 0.79614 0.30321 0.13167 0.0
H1608 H 0.76161 0.27873 0.10881 0.0
S1609 S 0.85348 0.21668 0.08711 0.0
N1610 N 0.85898 0.24341 0.10502 0.0
N1611 N 0.82142 0.21662 0.0808 0.0
C1612 C 0.81386 0.23918 0.09329 0.0
C1613 C 0.8342 0.25378 0.10631 0.0
C1614 C 0.27359 0.33692 0.61396 0.0
C1615 C 0.2477 0.34232 0.62267 0.0
C1616 C 0.28081 0.31165 0.60534 0.0
C1617 C 0.26238 0.2908 0.60478 0.0
H1618 H 0.28889 0.35187 0.61518 0.0
H1619 H 0.3013 0.30821 0.60006 0.0
S1620 S 0.19099 0.29567 0.62155 0.0
N1621 N 0.20281 0.32554 0.62731 0.0
N1622 N 0.21632 0.27804 0.61086 0.0
C1623 C 0.23591 0.29644 0.61141 0.0
C1624 C 0.22859 0.32219 0.62042 0.0
C1625 C 0.19652 0.7496 0.09918 0.0
C1626 C 0.19922 0.77723 0.09745 0.0
C1627 C 0.17244 0.73797 0.10645 0.0
C1628 C 0.15001 0.75348 0.11217 0.0
H1629 H 0.2135 0.73682 0.09645 0.0
H1630 H 0.17189 0.71672 0.10903 0.0
S1631 S 0.14538 0.82651 0.1056 0.0
N1632 N 0.17649 0.81962 0.09843 0.0
N1633 N 0.13117 0.79781 0.11193 0.0
C1634 C 0.1518 0.78099 0.10813 0.0
C1635 C 0.17642 0.79286 0.10088 0.0
C1636 C 0.7239 0.65671 0.61657 0.0
C1637 C 0.74927 0.65241 0.62717 0.0
C1638 C 0.71697 0.6811 0.60546 0.0
C1639 C 0.73514 0.70219 0.60439 0.0
H1640 H 0.70872 0.64168 0.61814 0.0
H1641 H 0.69674 0.68377 0.5989 0.0
S1642 S 0.80562 0.69947 0.62511 0.0
N1643 N 0.79372 0.67005 0.63273 0.0
N1644 N 0.78076 0.71589 0.61174 0.0
C1645 C 0.76126 0.69741 0.61287 0.0
C1646 C 0.76829 0.67254 0.62432 0.0
C1647 C 0.18253 0.25396 0.87114 0.0
C1648 C 0.16854 0.24035 0.85139 0.0
C1649 C 0.20404 0.24204 0.88407 0.0
C1650 C 0.21172 0.21593 0.87816 0.0
H1651 H 0.17753 0.27425 0.87581 0.0
H1652 H 0.21505 0.25352 0.89842 0.0
S1653 S 0.17948 0.17123 0.8295 0.0
N1654 N 0.1626 0.1991 0.82755 0.0
N1655 N 0.20239 0.17641 0.85216 0.0
C1656 C 0.19688 0.20174 0.85932 0.0
C1657 C 0.17545 0.21406 0.84584 0.0
C1658 C 0.23842 0.7036 0.38537 0.0
C1659 C 0.26282 0.70854 0.3978 0.0
C1660 C 0.23187 0.67828 0.37629 0.0
C1661 C 0.24941 0.65685 0.37934 0.0
H1662 H 0.22492 0.71967 0.38107 0.0
H1663 H 0.21349 0.67588 0.36553 0.0
S1664 S 0.31348 0.65827 0.41527 0.0
N1665 N 0.30285 0.6891 0.41623 0.0
N1666 N 0.29055 0.64154 0.39917 0.0
C1667 C 0.27275 0.661 0.39395 0.0
C1668 C 0.27944 0.68683 0.40318 0.0
C1669 C 0.72674 0.32961 0.37949 0.0
C1670 C 0.75174 0.33547 0.36872 0.0
C1671 C 0.72058 0.30415 0.3884 0.0
C1672 C 0.73924 0.28355 0.3872 0.0
H1673 H 0.71124 0.34439 0.37982 0.0
H1674 H 0.70067 0.30042 0.39542 0.0
S1675 S 0.80884 0.2895 0.36434 0.0
N1676 N 0.79623 0.31929 0.35996 0.0
N1677 N 0.78474 0.27142 0.37696 0.0
C1678 C 0.76495 0.28958 0.37831 0.0
C1679 C 0.77118 0.31553 0.36899 0.0
loop_
_geom_bond_atom_site_label_1
_geom_bond_atom_site_label_2
_geom_bond_distance
_geom_bond_site_symmetry_2
_ccdc_geom_bond_type
C0 O1 1.160 . S
C0 O7 1.185 . S
O1 C0 1.160 . S
O2 Zn3 1.899 . S
O2 C10 1.284 . S
Zn3 O2 1.899 . S
Zn3 O4 2.032 . S
Zn3 O7 2.086 . S
Zn3 O12 1.977 . S
O4 Zn3 2.032 . S
O4 C8 1.278 . S
C5 O6 1.203 . S
C5 O12 1.267 . S
O6 C5 1.203 . S
O7 C0 1.185 . S
O7 Zn3 2.086 . S
C8 O4 1.278 . S
C8 O9 1.211 . S
O9 C8 1.211 . S
C10 O2 1.284 . S
C10 O11 1.273 . S
O11 C10 1.273 . S
O12 Zn3 1.977 . S
O12 C5 1.267 . S
C13 O14 1.160 . S
C13 O20 1.185 . S
O14 C13 1.160 . S
O15 Zn16 1.899 . S
O15 C23 1.284 . S
Zn16 O15 1.899 . S
Zn16 O17 2.032 . S
Zn16 O20 2.086 . S
Zn16 O25 1.977 . S
O17 Zn16 2.032 . S
O17 C21 1.278 . S
C18 O19 1.203 . S
C18 O25 1.267 . S
O19 C18 1.203 . S
O20 C13 1.185 . S
O20 Zn16 2.086 . S
C21 O17 1.278 . S
C21 O22 1.211 . S
O22 C21 1.211 . S
C23 O15 1.284 . S
C23 O24 1.273 . S
O24 C23 1.273 . S
O25 Zn16 1.977 . S
O25 C18 1.267 . S
C26 O27 1.160 . S
C26 O33 1.185 . S
O27 C26 1.160 . S
O28 Zn29 1.899 . S
O28 C36 1.284 . S
Zn29 O28 1.899 . S
Zn29 O30 2.032 . S
Zn29 O33 2.086 . S
Zn29 O38 1.977 . S
O30 Zn29 2.032 . S
O30 C34 1.278 . S
C31 O32 1.203 . S
C31 O38 1.267 . S
O32 C31 1.203 . S
O33 C26 1.185 . S
O33 Zn29 2.086 . S
C34 O30 1.278 . S
C34 O35 1.211 . S
O35 C34 1.211 . S
C36 O28 1.284 . S
C36 O37 1.273 . S
O37 C36 1.273 . S
O38 Zn29 1.977 . S
O38 C31 1.267 . S
C39 O40 1.160 . S
C39 O46 1.185 . S
O40 C39 1.160 . S
O41 Zn42 1.899 . S
O41 C49 1.284 . S
Zn42 O41 1.899 . S
Zn42 O43 2.032 . S
Zn42 O46 2.086 . S
Zn42 O51 1.977 . S
O43 Zn42 2.032 . S
O43 C47 1.278 . S
C44 O45 1.203 . S
C44 O51 1.267 . S
O45 C44 1.203 . S
O46 C39 1.185 . S
O46 Zn42 2.086 . S
C47 O43 1.278 . S
C47 O48 1.211 . S
O48 C47 1.211 . S
C49 O41 1.284 . S
C49 O50 1.273 . S
O50 C49 1.273 . S
O51 Zn42 1.977 . S
O51 C44 1.267 . S
C52 O53 1.160 . S
C52 O59 1.185 . S
O53 C52 1.160 . S
O54 Zn55 1.899 . S
O54 C62 1.284 . S
Zn55 O54 1.899 . S
Zn55 O56 2.032 . S
Zn55 O59 2.086 . S
Zn55 O64 1.977 . S
O56 Zn55 2.032 . S
O56 C60 1.278 . S
C57 O58 1.203 . S
C57 O64 1.267 . S
O58 C57 1.203 . S
O59 C52 1.185 . S
O59 Zn55 2.086 . S
C60 O56 1.278 . S
C60 O61 1.211 . S
O61 C60 1.211 . S
C62 O54 1.284 . S
C62 O63 1.273 . S
O63 C62 1.273 . S
O64 Zn55 1.977 . S
O64 C57 1.267 . S
C65 O66 1.160 . S
C65 O72 1.185 . S
O66 C65 1.160 . S
O67 Zn68 1.899 . S
O67 C75 1.284 . S
Zn68 O67 1.899 . S
Zn68 O69 2.032 . S
Zn68 O72 2.086 . S
Zn68 O77 1.977 . S
O69 Zn68 2.032 . S
O69 C73 1.278 . S
C70 O71 1.203 . S
C70 O77 1.267 . S
O71 C70 1.203 . S
O72 C65 1.185 . S
O72 Zn68 2.086 . S
C73 O69 1.278 . S
C73 O74 1.211 . S
O74 C73 1.211 . S
C75 O67 1.284 . S
C75 O76 1.273 . S
O76 C75 1.273 . S
O77 Zn68 1.977 . S
O77 C70 1.267 . S
C78 O79 1.160 . S
C78 O85 1.185 . S
O79 C78 1.160 . S
O80 Zn81 1.899 . S
O80 C88 1.284 . S
Zn81 O80 1.899 . S
Zn81 O82 2.032 . S
Zn81 O85 2.086 . S
Zn81 O90 1.977 . S
O82 Zn81 2.032 . S
O82 C86 1.278 . S
C83 O84 1.203 . S
C83 O90 1.267 . S
O84 C83 1.203 . S
O85 C78 1.185 . S
O85 Zn81 2.086 . S
C86 O82 1.278 . S
C86 O87 1.211 . S
O87 C86 1.211 . S
C88 O80 1.284 . S
C88 O89 1.273 . S
O89 C88 1.273 . S
O90 Zn81 1.977 . S
O90 C83 1.267 . S
C91 O92 1.160 . S
C91 O98 1.185 . S
O92 C91 1.160 . S
O93 Zn94 1.899 . S
O93 C101 1.284 . S
Zn94 O93 1.899 . S
Zn94 O95 2.032 . S
Zn94 O98 2.086 . S
Zn94 O103 1.977 . S
O95 Zn94 2.032 . S
O95 C99 1.278 . S
C96 O97 1.203 . S
C96 O103 1.267 . S
O97 C96 1.203 . S
O98 C91 1.185 . S
O98 Zn94 2.086 . S
C99 O95 1.278 . S
C99 O100 1.211 . S
O100 C99 1.211 . S
C101 O93 1.284 . S
C101 O102 1.273 . S
O102 C101 1.273 . S
O103 Zn94 1.977 . S
O103 C96 1.267 . S
C104 O105 1.160 . S
C104 O111 1.185 . S
O105 C104 1.160 . S
O106 Zn107 1.899 . S
O106 C114 1.284 . S
Zn107 O106 1.899 . S
Zn107 O108 2.032 . S
Zn107 O111 2.086 . S
Zn107 O116 1.977 . S
O108 Zn107 2.032 . S
O108 C112 1.278 . S
C109 O110 1.203 . S
C109 O116 1.267 . S
O110 C109 1.203 . S
O111 C104 1.185 . S
O111 Zn107 2.086 . S
C112 O108 1.278 . S
C112 O113 1.211 . S
O113 C112 1.211 . S
C114 O106 1.284 . S
C114 O115 1.273 . S
O115 C114 1.273 . S
O116 Zn107 1.977 . S
O116 C109 1.267 . S
C117 O118 1.160 . S
C117 O124 1.185 . S
O118 C117 1.160 . S
O119 Zn120 1.899 . S
O119 C127 1.284 . S
Zn120 O119 1.899 . S
Zn120 O121 2.032 . S
Zn120 O124 2.086 . S
Zn120 O129 1.977 . S
O121 Zn120 2.032 . S
O121 C125 1.278 . S
C122 O123 1.203 . S
C122 O129 1.267 . S
O123 C122 1.203 . S
O124 C117 1.185 . S
O124 Zn120 2.086 . S
C125 O121 1.278 . S
C125 O126 1.211 . S
O126 C125 1.211 . S
C127 O119 1.284 . S
C127 O128 1.273 . S
O128 C127 1.273 . S
O129 Zn120 1.977 . S
O129 C122 1.267 . S
C130 O131 1.160 . S
C130 O137 1.185 . S
O131 C130 1.160 . S
O132 Zn133 1.899 . S
O132 C140 1.284 . S
Zn133 O132 1.899 . S
Zn133 O134 2.032 . S
Zn133 O137 2.086 . S
Zn133 O142 1.977 . S
O134 Zn133 2.032 . S
O134 C138 1.278 . S
C135 O136 1.203 . S
C135 O142 1.267 . S
O136 C135 1.203 . S
O137 C130 1.185 . S
O137 Zn133 2.086 . S
C138 O134 1.278 . S
C138 O139 1.211 . S
O139 C138 1.211 . S
C140 O132 1.284 . S
C140 O141 1.273 . S
O141 C140 1.273 . S
O142 Zn133 1.977 . S
O142 C135 1.267 . S
C143 O144 1.160 . S
C143 O150 1.185 . S
O144 C143 1.160 . S
O145 Zn146 1.899 . S
O145 C153 1.284 . S
Zn146 O145 1.899 . S
Zn146 O147 2.032 . S
Zn146 O150 2.086 . S
Zn146 O155 1.977 . S
O147 Zn146 2.032 . S
O147 C151 1.278 . S
C148 O149 1.203 . S
C148 O155 1.267 . S
O149 C148 1.203 . S
O150 C143 1.185 . S
O150 Zn146 2.086 . S
C151 O147 1.278 . S
C151 O152 1.211 . S
O152 C151 1.211 . S
C153 O145 1.284 . S
C153 O154 1.273 . S
O154 C153 1.273 . S
O155 Zn146 1.977 . S
O155 C148 1.267 . S
C156 O157 1.160 . S
C156 O163 1.185 . S
O157 C156 1.160 . S
O158 Zn159 1.899 . S
O158 C166 1.284 . S
Zn159 O158 1.899 . S
Zn159 O160 2.032 . S
Zn159 O163 2.086 . S
Zn159 O168 1.977 . S
O160 Zn159 2.032 . S
O160 C164 1.278 . S
C161 O162 1.203 . S
C161 O168 1.267 . S
O162 C161 1.203 . S
O163 C156 1.185 . S
O163 Zn159 2.086 . S
C164 O160 1.278 . S
C164 O165 1.211 . S
O165 C164 1.211 . S
C166 O158 1.284 . S
C166 O167 1.273 . S
O167 C166 1.273 . S
O168 Zn159 1.977 . S
O168 C161 1.267 . S
C169 O170 1.160 . S
C169 O176 1.185 . S
O170 C169 1.160 . S
O171 Zn172 1.899 . S
O171 C179 1.284 . S
Zn172 O171 1.899 . S
Zn172 O173 2.032 . S
Zn172 O176 2.086 . S
Zn172 O181 1.977 . S
O173 Zn172 2.032 . S
O173 C177 1.278 . S
C174 O175 1.203 . S
C174 O181 1.267 . S
O175 C174 1.203 . S
O176 C169 1.185 . S
O176 Zn172 2.086 . S
C177 O173 1.278 . S
C177 O178 1.211 . S
O178 C177 1.211 . S
C179 O171 1.284 . S
C179 O180 1.273 . S
O180 C179 1.273 . S
O181 Zn172 1.977 . S
O181 C174 1.267 . S
C182 O183 1.160 . S
C182 O189 1.185 . S
O183 C182 1.160 . S
O184 Zn185 1.899 . S
O184 C192 1.284 . S
Zn185 O184 1.899 . S
Zn185 O186 2.032 . S
Zn185 O189 2.086 . S
Zn185 O194 1.977 . S
O186 Zn185 2.032 . S
O186 C190 1.278 . S
C187 O188 1.203 . S
C187 O194 1.267 . S
O188 C187 1.203 . S
O189 C182 1.185 . S
O189 Zn185 2.086 . S
C190 O186 1.278 . S
C190 O191 1.211 . S
O191 C190 1.211 . S
C192 O184 1.284 . S
C192 O193 1.273 . S
O193 C192 1.273 . S
O194 Zn185 1.977 . S
O194 C187 1.267 . S
C195 O196 1.160 . S
C195 O202 1.185 . S
O196 C195 1.160 . S
O197 Zn198 1.899 . S
O197 C205 1.284 . S
Zn198 O197 1.899 . S
Zn198 O199 2.032 . S
Zn198 O202 2.086 . S
Zn198 O207 1.977 . S
O199 Zn198 2.032 . S
O199 C203 1.278 . S
C200 O201 1.203 . S
C200 O207 1.267 . S
O201 C200 1.203 . S
O202 C195 1.185 . S
O202 Zn198 2.086 . S
C203 O199 1.278 . S
C203 O204 1.211 . S
O204 C203 1.211 . S
C205 O197 1.284 . S
C205 O206 1.273 . S
O206 C205 1.273 . S
O207 Zn198 1.977 . S
O207 C200 1.267 . S
C208 O209 1.160 . S
C208 O215 1.185 . S
O209 C208 1.160 . S
O210 Zn211 1.899 . S
O210 C218 1.284 . S
Zn211 O210 1.899 . S
Zn211 O212 2.032 . S
Zn211 O215 2.086 . S
Zn211 O220 1.977 . S
O212 Zn211 2.032 . S
O212 C216 1.278 . S
C213 O214 1.203 . S
C213 O220 1.267 . S
O214 C213 1.203 . S
O215 C208 1.185 . S
O215 Zn211 2.086 . S
C216 O212 1.278 . S
C216 O217 1.211 . S
O217 C216 1.211 . S
C218 O210 1.284 . S
C218 O219 1.273 . S
O219 C218 1.273 . S
O220 Zn211 1.977 . S
O220 C213 1.267 . S
C221 O222 1.160 . S
C221 O228 1.185 . S
O222 C221 1.160 . S
O223 Zn224 1.899 . S
O223 C231 1.284 . S
Zn224 O223 1.899 . S
Zn224 O225 2.032 . S
Zn224 O228 2.086 . S
Zn224 O233 1.977 . S
O225 Zn224 2.032 . S
O225 C229 1.278 . S
C226 O227 1.203 . S
C226 O233 1.267 . S
O227 C226 1.203 . S
O228 C221 1.185 . S
O228 Zn224 2.086 . S
C229 O225 1.278 . S
C229 O230 1.211 . S
O230 C229 1.211 . S
C231 O223 1.284 . S
C231 O232 1.273 . S
O232 C231 1.273 . S
O233 Zn224 1.977 . S
O233 C226 1.267 . S
C234 O235 1.160 . S
C234 O241 1.185 . S
O235 C234 1.160 . S
O236 Zn237 1.899 . S
O236 C244 1.284 . S
Zn237 O236 1.899 . S
Zn237 O238 2.032 . S
Zn237 O241 2.086 . S
Zn237 O246 1.977 . S
O238 Zn237 2.032 . S
O238 C242 1.278 . S
C239 O240 1.203 . S
C239 O246 1.267 . S
O240 C239 1.203 . S
O241 C234 1.185 . S
O241 Zn237 2.086 . S
C242 O238 1.278 . S
C242 O243 1.211 . S
O243 C242 1.211 . S
C244 O236 1.284 . S
C244 O245 1.273 . S
O245 C244 1.273 . S
O246 Zn237 1.977 . S
O246 C239 1.267 . S
C247 O248 1.160 . S
C247 O254 1.185 . S
O248 C247 1.160 . S
O249 Zn250 1.899 . S
O249 C257 1.284 . S
Zn250 O249 1.899 . S
Zn250 O251 2.032 . S
Zn250 O254 2.086 . S
Zn250 O259 1.977 . S
O251 Zn250 2.032 . S
O251 C255 1.278 . S
C252 O253 1.203 . S
C252 O259 1.267 . S
O253 C252 1.203 . S
O254 C247 1.185 . S
O254 Zn250 2.086 . S
C255 O251 1.278 . S
C255 O256 1.211 . S
O256 C255 1.211 . S
C257 O249 1.284 . S
C257 O258 1.273 . S
O258 C257 1.273 . S
O259 Zn250 1.977 . S
O259 C252 1.267 . S
C260 O261 1.160 . S
C260 O267 1.185 . S
O261 C260 1.160 . S
O262 Zn263 1.899 . S
O262 C270 1.284 . S
Zn263 O262 1.899 . S
Zn263 O264 2.032 . S
Zn263 O267 2.086 . S
Zn263 O272 1.977 . S
O264 Zn263 2.032 . S
O264 C268 1.278 . S
C265 O266 1.203 . S
C265 O272 1.267 . S
O266 C265 1.203 . S
O267 C260 1.185 . S
O267 Zn263 2.086 . S
C268 O264 1.278 . S
C268 O269 1.211 . S
O269 C268 1.211 . S
C270 O262 1.284 . S
C270 O271 1.273 . S
O271 C270 1.273 . S
O272 Zn263 1.977 . S
O272 C265 1.267 . S
C273 O274 1.160 . S
C273 O280 1.185 . S
O274 C273 1.160 . S
O275 Zn276 1.899 . S
O275 C283 1.284 . S
Zn276 O275 1.899 . S
Zn276 O277 2.032 . S
Zn276 O280 2.086 . S
Zn276 O285 1.977 . S
O277 Zn276 2.032 . S
O277 C281 1.278 . S
C278 O279 1.203 . S
C278 O285 1.267 . S
O279 C278 1.203 . S
O280 C273 1.185 . S
O280 Zn276 2.086 . S
C281 O277 1.278 . S
C281 O282 1.211 . S
O282 C281 1.211 . S
C283 O275 1.284 . S
C283 O284 1.273 . S
O284 C283 1.273 . S
O285 Zn276 1.977 . S
O285 C278 1.267 . S
C286 O287 1.160 . S
C286 O293 1.185 . S
O287 C286 1.160 . S
O288 Zn289 1.899 . S
O288 C296 1.284 . S
Zn289 O288 1.899 . S
Zn289 O290 2.032 . S
Zn289 O293 2.086 . S
Zn289 O298 1.977 . S
O290 Zn289 2.032 . S
O290 C294 1.278 . S
C291 O292 1.203 . S
C291 O298 1.267 . S
O292 C291 1.203 . S
O293 C286 1.185 . S
O293 Zn289 2.086 . S
C294 O290 1.278 . S
C294 O295 1.211 . S
O295 C294 1.211 . S
C296 O288 1.284 . S
C296 O297 1.273 . S
O297 C296 1.273 . S
O298 Zn289 1.977 . S
O298 C291 1.267 . S
C299 O300 1.160 . S
C299 O306 1.185 . S
O300 C299 1.160 . S
O301 Zn302 1.899 . S
O301 C309 1.284 . S
Zn302 O301 1.899 . S
Zn302 O303 2.032 . S
Zn302 O306 2.086 . S
Zn302 O311 1.977 . S
O303 Zn302 2.032 . S
O303 C307 1.278 . S
C304 O305 1.203 . S
C304 O311 1.267 . S
O305 C304 1.203 . S
O306 C299 1.185 . S
O306 Zn302 2.086 . S
C307 O303 1.278 . S
C307 O308 1.211 . S
O308 C307 1.211 . S
C309 O301 1.284 . S
C309 O310 1.273 . S
O310 C309 1.273 . S
O311 Zn302 1.977 . S
O311 C304 1.267 . S
C312 O313 1.160 . S
C312 O319 1.185 . S
O313 C312 1.160 . S
O314 Zn315 1.899 . S
O314 C322 1.284 . S
Zn315 O314 1.899 . S
Zn315 O316 2.032 . S
Zn315 O319 2.086 . S
Zn315 O324 1.977 . S
O316 Zn315 2.032 . S
O316 C320 1.278 . S
C317 O318 1.203 . S
C317 O324 1.267 . S
O318 C317 1.203 . S
O319 C312 1.185 . S
O319 Zn315 2.086 . S
C320 O316 1.278 . S
C320 O321 1.211 . S
O321 C320 1.211 . S
C322 O314 1.284 . S
C322 O323 1.273 . S
O323 C322 1.273 . S
O324 Zn315 1.977 . S
O324 C317 1.267 . S
C325 O326 1.160 . S
C325 O332 1.185 . S
O326 C325 1.160 . S
O327 Zn328 1.899 . S
O327 C335 1.284 . S
Zn328 O327 1.899 . S
Zn328 O329 2.032 . S
Zn328 O332 2.086 . S
Zn328 O337 1.977 . S
O329 Zn328 2.032 . S
O329 C333 1.278 . S
C330 O331 1.203 . S
C330 O337 1.267 . S
O331 C330 1.203 . S
O332 C325 1.185 . S
O332 Zn328 2.086 . S
C333 O329 1.278 . S
C333 O334 1.211 . S
O334 C333 1.211 . S
C335 O327 1.284 . S
C335 O336 1.273 . S
O336 C335 1.273 . S
O337 Zn328 1.977 . S
O337 C330 1.267 . S
C338 O339 1.160 . S
C338 O345 1.185 . S
O339 C338 1.160 . S
O340 Zn341 1.899 . S
O340 C348 1.284 . S
Zn341 O340 1.899 . S
Zn341 O342 2.032 . S
Zn341 O345 2.086 . S
Zn341 O350 1.977 . S
O342 Zn341 2.032 . S
O342 C346 1.278 . S
C343 O344 1.203 . S
C343 O350 1.267 . S
O344 C343 1.203 . S
O345 C338 1.185 . S
O345 Zn341 2.086 . S
C346 O342 1.278 . S
C346 O347 1.211 . S
O347 C346 1.211 . S
C348 O340 1.284 . S
C348 O349 1.273 . S
O349 C348 1.273 . S
O350 Zn341 1.977 . S
O350 C343 1.267 . S
C351 O352 1.160 . S
C351 O358 1.185 . S
O352 C351 1.160 . S
O353 Zn354 1.899 . S
O353 C361 1.284 . S
Zn354 O353 1.899 . S
Zn354 O355 2.032 . S
Zn354 O358 2.086 . S
Zn354 O363 1.977 . S
O355 Zn354 2.032 . S
O355 C359 1.278 . S
C356 O357 1.203 . S
C356 O363 1.267 . S
O357 C356 1.203 . S
O358 C351 1.185 . S
O358 Zn354 2.086 . S
C359 O355 1.278 . S
C359 O360 1.211 . S
O360 C359 1.211 . S
C361 O353 1.284 . S
C361 O362 1.273 . S
O362 C361 1.273 . S
O363 Zn354 1.977 . S
O363 C356 1.267 . S
C364 O365 1.160 . S
C364 O371 1.185 . S
O365 C364 1.160 . S
O366 Zn367 1.899 . S
O366 C374 1.284 . S
Zn367 O366 1.899 . S
Zn367 O368 2.032 . S
Zn367 O371 2.086 . S
Zn367 O376 1.977 . S
O368 Zn367 2.032 . S
O368 C372 1.278 . S
C369 O370 1.203 . S
C369 O376 1.267 . S
O370 C369 1.203 . S
O371 C364 1.185 . S
O371 Zn367 2.086 . S
C372 O368 1.278 . S
C372 O373 1.211 . S
O373 C372 1.211 . S
C374 O366 1.284 . S
C374 O375 1.273 . S
O375 C374 1.273 . S
O376 Zn367 1.977 . S
O376 C369 1.267 . S
C377 O378 1.160 . S
C377 O384 1.185 . S
O378 C377 1.160 . S
O379 Zn380 1.899 . S
O379 C387 1.284 . S
Zn380 O379 1.899 . S
Zn380 O381 2.032 . S
Zn380 O384 2.086 . S
Zn380 O389 1.977 . S
O381 Zn380 2.032 . S
O381 C385 1.278 . S
C382 O383 1.203 . S
C382 O389 1.267 . S
O383 C382 1.203 . S
O384 C377 1.185 . S
O384 Zn380 2.086 . S
C385 O381 1.278 . S
C385 O386 1.211 . S
O386 C385 1.211 . S
C387 O379 1.284 . S
C387 O388 1.273 . S
O388 C387 1.273 . S
O389 Zn380 1.977 . S
O389 C382 1.267 . S
C390 O391 1.160 . S
C390 O397 1.185 . S
O391 C390 1.160 . S
O392 Zn393 1.899 . S
O392 C400 1.284 . S
Zn393 O392 1.899 . S
Zn393 O394 2.032 . S
Zn393 O397 2.086 . S
Zn393 O402 1.977 . S
O394 Zn393 2.032 . S
O394 C398 1.278 . S
C395 O396 1.203 . S
C395 O402 1.267 . S
O396 C395 1.203 . S
O397 C390 1.185 . S
O397 Zn393 2.086 . S
C398 O394 1.278 . S
C398 O399 1.211 . S
O399 C398 1.211 . S
C400 O392 1.284 . S
C400 O401 1.273 . S
O401 C400 1.273 . S
O402 Zn393 1.977 . S
O402 C395 1.267 . S
C403 O404 1.160 . S
C403 O410 1.185 . S
O404 C403 1.160 . S
O405 Zn406 1.899 . S
O405 C413 1.284 . S
Zn406 O405 1.899 . S
Zn406 O407 2.032 . S
Zn406 O410 2.086 . S
Zn406 O415 1.977 . S
O407 Zn406 2.032 . S
O407 C411 1.278 . S
C408 O409 1.203 . S
C408 O415 1.267 . S
O409 C408 1.203 . S
O410 C403 1.185 . S
O410 Zn406 2.086 . S
C411 O407 1.278 . S
C411 O412 1.211 . S
O412 C411 1.211 . S
C413 O405 1.284 . S
C413 O414 1.273 . S
O414 C413 1.273 . S
O415 Zn406 1.977 . S
O415 C408 1.267 . S
C416 O417 1.160 . S
C416 O423 1.185 . S
O417 C416 1.160 . S
O418 Zn419 1.899 . S
O418 C426 1.284 . S
Zn419 O418 1.899 . S
Zn419 O420 2.032 . S
Zn419 O423 2.086 . S
Zn419 O428 1.977 . S
O420 Zn419 2.032 . S
O420 C424 1.278 . S
C421 O422 1.203 . S
C421 O428 1.267 . S
O422 C421 1.203 . S
O423 C416 1.185 . S
O423 Zn419 2.086 . S
C424 O420 1.278 . S
C424 O425 1.211 . S
O425 C424 1.211 . S
C426 O418 1.284 . S
C426 O427 1.273 . S
O427 C426 1.273 . S
O428 Zn419 1.977 . S
O428 C421 1.267 . S
C429 O430 1.160 . S
C429 O436 1.185 . S
O430 C429 1.160 . S
O431 Zn432 1.899 . S
O431 C439 1.284 . S
Zn432 O431 1.899 . S
Zn432 O433 2.032 . S
Zn432 O436 2.086 . S
Zn432 O441 1.977 . S
O433 Zn432 2.032 . S
O433 C437 1.278 . S
C434 O435 1.203 . S
C434 O441 1.267 . S
O435 C434 1.203 . S
O436 C429 1.185 . S
O436 Zn432 2.086 . S
C437 O433 1.278 . S
C437 O438 1.211 . S
O438 C437 1.211 . S
C439 O431 1.284 . S
C439 O440 1.273 . S
O440 C439 1.273 . S
O441 Zn432 1.977 . S
O441 C434 1.267 . S
C442 O443 1.160 . S
C442 O449 1.185 . S
O443 C442 1.160 . S
O444 Zn445 1.899 . S
O444 C452 1.284 . S
Zn445 O444 1.899 . S
Zn445 O446 2.032 . S
Zn445 O449 2.086 . S
Zn445 O454 1.977 . S
O446 Zn445 2.032 . S
O446 C450 1.278 . S
C447 O448 1.203 . S
C447 O454 1.267 . S
O448 C447 1.203 . S
O449 C442 1.185 . S
O449 Zn445 2.086 . S
C450 O446 1.278 . S
C450 O451 1.211 . S
O451 C450 1.211 . S
C452 O444 1.284 . S
C452 O453 1.273 . S
O453 C452 1.273 . S
O454 Zn445 1.977 . S
O454 C447 1.267 . S
C455 O456 1.160 . S
C455 O462 1.185 . S
O456 C455 1.160 . S
O457 Zn458 1.899 . S
O457 C465 1.284 . S
Zn458 O457 1.899 . S
Zn458 O459 2.032 . S
Zn458 O462 2.086 . S
Zn458 O467 1.977 . S
O459 Zn458 2.032 . S
O459 C463 1.278 . S
C460 O461 1.203 . S
C460 O467 1.267 . S
O461 C460 1.203 . S
O462 C455 1.185 . S
O462 Zn458 2.086 . S
C463 O459 1.278 . S
C463 O464 1.211 . S
O464 C463 1.211 . S
C465 O457 1.284 . S
C465 O466 1.273 . S
O466 C465 1.273 . S
O467 Zn458 1.977 . S
O467 C460 1.267 . S
C468 O469 1.160 . S
C468 O475 1.185 . S
O469 C468 1.160 . S
O470 Zn471 1.899 . S
O470 C478 1.284 . S
Zn471 O470 1.899 . S
Zn471 O472 2.032 . S
Zn471 O475 2.086 . S
Zn471 O480 1.977 . S
O472 Zn471 2.032 . S
O472 C476 1.278 . S
C473 O474 1.203 . S
C473 O480 1.267 . S
O474 C473 1.203 . S
O475 C468 1.185 . S
O475 Zn471 2.086 . S
C476 O472 1.278 . S
C476 O477 1.211 . S
O477 C476 1.211 . S
C478 O470 1.284 . S
C478 O479 1.273 . S
O479 C478 1.273 . S
O480 Zn471 1.977 . S
O480 C473 1.267 . S
C481 O482 1.160 . S
C481 O488 1.185 . S
O482 C481 1.160 . S
O483 Zn484 1.899 . S
O483 C491 1.284 . S
Zn484 O483 1.899 . S
Zn484 O485 2.032 . S
Zn484 O488 2.086 . S
Zn484 O493 1.977 . S
O485 Zn484 2.032 . S
O485 C489 1.278 . S
C486 O487 1.203 . S
C486 O493 1.267 . S
O487 C486 1.203 . S
O488 C481 1.185 . S
O488 Zn484 2.086 . S
C489 O485 1.278 . S
C489 O490 1.211 . S
O490 C489 1.211 . S
C491 O483 1.284 . S
C491 O492 1.273 . S
O492 C491 1.273 . S
O493 Zn484 1.977 . S
O493 C486 1.267 . S
C494 O495 1.160 . S
C494 O501 1.185 . S
O495 C494 1.160 . S
O496 Zn497 1.899 . S
O496 C504 1.284 . S
Zn497 O496 1.899 . S
Zn497 O498 2.032 . S
Zn497 O501 2.086 . S
Zn497 O506 1.977 . S
O498 Zn497 2.032 . S
O498 C502 1.278 . S
C499 O500 1.203 . S
C499 O506 1.267 . S
O500 C499 1.203 . S
O501 C494 1.185 . S
O501 Zn497 2.086 . S
C502 O498 1.278 . S
C502 O503 1.211 . S
O503 C502 1.211 . S
C504 O496 1.284 . S
C504 O505 1.273 . S
O505 C504 1.273 . S
O506 Zn497 1.977 . S
O506 C499 1.267 . S
C507 O508 1.160 . S
C507 O514 1.185 . S
O508 C507 1.160 . S
O509 Zn510 1.899 . S
O509 C517 1.284 . S
Zn510 O509 1.899 . S
Zn510 O511 2.032 . S
Zn510 O514 2.086 . S
Zn510 O519 1.977 . S
O511 Zn510 2.032 . S
O511 C515 1.278 . S
C512 O513 1.203 . S
C512 O519 1.267 . S
O513 C512 1.203 . S
O514 C507 1.185 . S
O514 Zn510 2.086 . S
C515 O511 1.278 . S
C515 O516 1.211 . S
O516 C515 1.211 . S
C517 O509 1.284 . S
C517 O518 1.273 . S
O518 C517 1.273 . S
O519 Zn510 1.977 . S
O519 C512 1.267 . S
C520 O521 1.160 . S
C520 O527 1.185 . S
O521 C520 1.160 . S
O522 Zn523 1.899 . S
O522 C530 1.284 . S
Zn523 O522 1.899 . S
Zn523 O524 2.032 . S
Zn523 O527 2.086 . S
Zn523 O532 1.977 . S
O524 Zn523 2.032 . S
O524 C528 1.278 . S
C525 O526 1.203 . S
C525 O532 1.267 . S
O526 C525 1.203 . S
O527 C520 1.185 . S
O527 Zn523 2.086 . S
C528 O524 1.278 . S
C528 O529 1.211 . S
O529 C528 1.211 . S
C530 O522 1.284 . S
C530 O531 1.273 . S
O531 C530 1.273 . S
O532 Zn523 1.977 . S
O532 C525 1.267 . S
C533 O534 1.160 . S
C533 O540 1.185 . S
O534 C533 1.160 . S
O535 Zn536 1.899 . S
O535 C543 1.284 . S
Zn536 O535 1.899 . S
Zn536 O537 2.032 . S
Zn536 O540 2.086 . S
Zn536 O545 1.977 . S
O537 Zn536 2.032 . S
O537 C541 1.278 . S
C538 O539 1.203 . S
C538 O545 1.267 . S
O539 C538 1.203 . S
O540 C533 1.185 . S
O540 Zn536 2.086 . S
C541 O537 1.278 . S
C541 O542 1.211 . S
O542 C541 1.211 . S
C543 O535 1.284 . S
C543 O544 1.273 . S
O544 C543 1.273 . S
O545 Zn536 1.977 . S
O545 C538 1.267 . S
C546 O547 1.160 . S
C546 O553 1.185 . S
O547 C546 1.160 . S
O548 Zn549 1.899 . S
O548 C556 1.284 . S
Zn549 O548 1.899 . S
Zn549 O550 2.032 . S
Zn549 O553 2.086 . S
Zn549 O558 1.977 . S
O550 Zn549 2.032 . S
O550 C554 1.278 . S
C551 O552 1.203 . S
C551 O558 1.267 . S
O552 C551 1.203 . S
O553 C546 1.185 . S
O553 Zn549 2.086 . S
C554 O550 1.278 . S
C554 O555 1.211 . S
O555 C554 1.211 . S
C556 O548 1.284 . S
C556 O557 1.273 . S
O557 C556 1.273 . S
O558 Zn549 1.977 . S
O558 C551 1.267 . S
C559 O560 1.160 . S
C559 O566 1.185 . S
O560 C559 1.160 . S
O561 Zn562 1.899 . S
O561 C569 1.284 . S
Zn562 O561 1.899 . S
Zn562 O563 2.032 . S
Zn562 O566 2.086 . S
Zn562 O571 1.977 . S
O563 Zn562 2.032 . S
O563 C567 1.278 . S
C564 O565 1.203 . S
C564 O571 1.267 . S
O565 C564 1.203 . S
O566 C559 1.185 . S
O566 Zn562 2.086 . S
C567 O563 1.278 . S
C567 O568 1.211 . S
O568 C567 1.211 . S
C569 O561 1.284 . S
C569 O570 1.273 . S
O570 C569 1.273 . S
O571 Zn562 1.977 . S
O571 C564 1.267 . S
C572 O573 1.160 . S
C572 O579 1.185 . S
O573 C572 1.160 . S
O574 Zn575 1.899 . S
O574 C582 1.284 . S
Zn575 O574 1.899 . S
Zn575 O576 2.032 . S
Zn575 O579 2.086 . S
Zn575 O584 1.977 . S
O576 Zn575 2.032 . S
O576 C580 1.278 . S
C577 O578 1.203 . S
C577 O584 1.267 . S
O578 C577 1.203 . S
O579 C572 1.185 . S
O579 Zn575 2.086 . S
C580 O576 1.278 . S
C580 O581 1.211 . S
O581 C580 1.211 . S
C582 O574 1.284 . S
C582 O583 1.273 . S
O583 C582 1.273 . S
O584 Zn575 1.977 . S
O584 C577 1.267 . S
C585 O586 1.160 . S
C585 O592 1.185 . S
O586 C585 1.160 . S
O587 Zn588 1.899 . S
O587 C595 1.284 . S
Zn588 O587 1.899 . S
Zn588 O589 2.032 . S
Zn588 O592 2.086 . S
Zn588 O597 1.977 . S
O589 Zn588 2.032 . S
O589 C593 1.278 . S
C590 O591 1.203 . S
C590 O597 1.267 . S
O591 C590 1.203 . S
O592 C585 1.185 . S
O592 Zn588 2.086 . S
C593 O589 1.278 . S
C593 O594 1.211 . S
O594 C593 1.211 . S
C595 O587 1.284 . S
C595 O596 1.273 . S
O596 C595 1.273 . S
O597 Zn588 1.977 . S
O597 C590 1.267 . S
C598 O599 1.160 . S
C598 O605 1.185 . S
O599 C598 1.160 . S
O600 Zn601 1.899 . S
O600 C608 1.284 . S
Zn601 O600 1.899 . S
Zn601 O602 2.032 . S
Zn601 O605 2.086 . S
Zn601 O610 1.977 . S
O602 Zn601 2.032 . S
O602 C606 1.278 . S
C603 O604 1.203 . S
C603 O610 1.267 . S
O604 C603 1.203 . S
O605 C598 1.185 . S
O605 Zn601 2.086 . S
C606 O602 1.278 . S
C606 O607 1.211 . S
O607 C606 1.211 . S
C608 O600 1.284 . S
C608 O609 1.273 . S
O609 C608 1.273 . S
O610 Zn601 1.977 . S
O610 C603 1.267 . S
C611 O612 1.160 . S
C611 O618 1.185 . S
O612 C611 1.160 . S
O613 Zn614 1.899 . S
O613 C621 1.284 . S
Zn614 O613 1.899 . S
Zn614 O615 2.032 . S
Zn614 O618 2.086 . S
Zn614 O623 1.977 . S
O615 Zn614 2.032 . S
O615 C619 1.278 . S
C616 O617 1.203 . S
C616 O623 1.267 . S
O617 C616 1.203 . S
O618 C611 1.185 . S
O618 Zn614 2.086 . S
C619 O615 1.278 . S
C619 O620 1.211 . S
O620 C619 1.211 . S
C621 O613 1.284 . S
C621 O622 1.273 . S
O622 C621 1.273 . S
O623 Zn614 1.977 . S
O623 C616 1.267 . S
C624 C625 1.369 . S
C624 C626 1.419 1_655 S
C624 H628 0.930 . S
C625 C624 1.369 . S
C625 C634 1.429 . S
C626 C624 1.419 1_455 S
C626 C627 1.363 . S
C626 H629 0.929 . S
C627 C626 1.363 . S
C627 C633 1.428 . S
H628 C624 0.930 . S
H629 C626 0.929 . S
S630 N631 1.616 1_455 S
S630 N632 1.607 . S
N631 S630 1.616 1_655 S
N631 C634 1.350 . S
N632 S630 1.607 . S
N632 C633 1.351 . S
C633 C627 1.428 . S
C633 N632 1.351 . S
C633 C634 1.434 1_455 S
C634 C625 1.429 . S
C634 N631 1.350 . S
C634 C633 1.434 1_655 S
C635 C636 1.369 . S
C635 C637 1.419 . S
C635 H639 0.930 . S
C636 C635 1.369 . S
C636 C645 1.429 . S
C637 C635 1.419 . S
C637 C638 1.363 . S
C637 H640 0.929 . S
C638 C637 1.363 . S
C638 C644 1.428 . S
H639 C635 0.930 . S
H640 C637 0.929 . S
S641 N642 1.613 . S
S641 N643 1.610 . S
N642 S641 1.613 . S
N642 C645 1.350 . S
N643 S641 1.610 . S
N643 C644 1.351 . S
C644 C638 1.428 . S
C644 N643 1.351 . S
C644 C645 1.434 . S
C645 C636 1.429 . S
C645 N642 1.350 . S
C645 C644 1.434 . S
C646 C647 1.369 . S
C646 C648 1.419 1_455 S
C646 H650 0.930 . S
C647 C646 1.369 . S
C647 C656 1.429 . S
C648 C646 1.419 1_655 S
C648 C649 1.363 . S
C648 H651 0.929 . S
C649 C648 1.363 . S
C649 C655 1.428 . S
H650 C646 0.930 . S
H651 C648 0.929 . S
S652 N653 1.616 1_655 S
S652 N654 1.607 . S
N653 S652 1.616 1_455 S
N653 C656 1.350 . S
N654 S652 1.607 . S
N654 C655 1.351 . S
C655 C649 1.428 . S
C655 N654 1.351 . S
C655 C656 1.434 1_655 S
C656 C647 1.429 . S
C656 N653 1.350 . S
C656 C655 1.434 1_455 S
C657 C658 1.369 . S
C657 C659 1.419 . S
C657 H661 0.930 . S
C658 C657 1.369 . S
C658 C667 1.429 . S
C659 C657 1.419 . S
C659 C660 1.363 . S
C659 H662 0.929 . S
C660 C659 1.363 . S
C660 C666 1.428 . S
H661 C657 0.930 . S
H662 C659 0.929 . S
S663 N664 1.613 . S
S663 N665 1.610 . S
N664 S663 1.613 . S
N664 C667 1.350 . S
N665 S663 1.610 . S
N665 C666 1.351 . S
C666 C660 1.428 . S
C666 N665 1.351 . S
C666 C667 1.434 . S
C667 C658 1.429 . S
C667 N664 1.350 . S
C667 C666 1.434 . S
C668 C669 1.369 . S
C668 C670 1.419 1_655 S
C668 H672 0.930 . S
C669 C668 1.369 . S
C669 C678 1.429 . S
C670 C668 1.419 1_455 S
C670 C671 1.363 . S
C670 H673 0.929 . S
C671 C670 1.363 . S
C671 C677 1.428 . S
H672 C668 0.930 . S
H673 C670 0.929 . S
S674 N675 1.616 1_455 S
S674 N676 1.607 . S
N675 S674 1.616 1_655 S
N675 C678 1.350 . S
N676 S674 1.607 . S
N676 C677 1.351 . S
C677 C671 1.428 . S
C677 N676 1.351 . S
C677 C678 1.434 1_455 S
C678 C669 1.429 . S
C678 N675 1.350 . S
C678 C677 1.434 1_655 S
C679 C680 1.369 . S
C679 C681 1.419 . S
C679 H683 0.930 . S
C680 C679 1.369 . S
C680 C689 1.429 . S
C681 C679 1.419 . S
C681 C682 1.363 . S
C681 H684 0.929 . S
C682 C681 1.363 . S
C682 C688 1.428 . S
H683 C679 0.930 . S
H684 C681 0.929 . S
S685 N686 1.613 . S
S685 N687 1.610 . S
N686 S685 1.613 . S
N686 C689 1.350 . S
N687 S685 1.610 . S
N687 C688 1.351 . S
C688 C682 1.428 . S
C688 N687 1.351 . S
C688 C689 1.434 . S
C689 C680 1.429 . S
C689 N686 1.350 . S
C689 C688 1.434 . S
C690 C691 1.369 . S
C690 C692 1.419 1_455 S
C690 H694 0.930 . S
C691 C690 1.369 . S
C691 C700 1.429 . S
C692 C690 1.419 1_655 S
C692 C693 1.363 . S
C692 H695 0.929 . S
C693 C692 1.363 . S
C693 C699 1.428 . S
H694 C690 0.930 . S
H695 C692 0.929 . S
S696 N697 1.616 1_655 S
S696 N698 1.607 . S
N697 S696 1.616 1_455 S
N697 C700 1.350 . S
N698 S696 1.607 . S
N698 C699 1.351 . S
C699 C693 1.428 . S
C699 N698 1.351 . S
C699 C700 1.434 1_655 S
C700 C691 1.429 . S
C700 N697 1.350 . S
C700 C699 1.434 1_455 S
C701 C702 1.369 . S
C701 C703 1.419 . S
C701 H705 0.930 . S
C702 C701 1.369 . S
C702 C711 1.429 . S
C703 C701 1.419 . S
C703 C704 1.363 . S
C703 H706 0.929 . S
C704 C703 1.363 . S
C704 C710 1.428 . S
H705 C701 0.930 . S
H706 C703 0.929 . S
S707 N708 1.613 . S
S707 N709 1.610 . S
N708 S707 1.613 . S
N708 C711 1.350 . S
N709 S707 1.610 . S
N709 C710 1.351 . S
C710 C704 1.428 . S
C710 N709 1.351 . S
C710 C711 1.434 . S
C711 C702 1.429 . S
C711 N708 1.350 . S
C711 C710 1.434 . S
C712 C713 1.369 . S
C712 C714 1.419 1_565 S
C712 H716 0.930 . S
C713 C712 1.369 . S
C713 C722 1.429 . S
C714 C712 1.419 1_545 S
C714 C715 1.363 . S
C714 H717 0.929 . S
C715 C714 1.363 . S
C715 C721 1.428 . S
H716 C712 0.930 . S
H717 C714 0.929 . S
S718 N719 1.616 1_545 S
S718 N720 1.607 . S
N719 S718 1.616 1_565 S
N719 C722 1.350 . S
N720 S718 1.607 . S
N720 C721 1.351 . S
C721 C715 1.428 . S
C721 N720 1.351 . S
C721 C722 1.434 1_545 S
C722 C713 1.429 . S
C722 N719 1.350 . S
C722 C721 1.434 1_565 S
C723 C724 1.369 . S
C723 C725 1.419 . S
C723 H727 0.930 . S
C724 C723 1.369 . S
C724 C733 1.429 . S
C725 C723 1.419 . S
C725 C726 1.363 . S
C725 H728 0.929 . S
C726 C725 1.363 . S
C726 C732 1.428 . S
H727 C723 0.930 . S
H728 C725 0.929 . S
S729 N730 1.613 . S
S729 N731 1.610 . S
N730 S729 1.613 . S
N730 C733 1.350 . S
N731 S729 1.610 . S
N731 C732 1.351 . S
C732 C726 1.428 . S
C732 N731 1.351 . S
C732 C733 1.434 . S
C733 C724 1.429 . S
C733 N730 1.350 . S
C733 C732 1.434 . S
C734 C735 1.369 . S
C734 C736 1.419 1_545 S
C734 H738 0.930 . S
C735 C734 1.369 . S
C735 C744 1.429 . S
C736 C734 1.419 1_565 S
C736 C737 1.363 . S
C736 H739 0.929 . S
C737 C736 1.363 . S
C737 C743 1.428 . S
H738 C734 0.930 . S
H739 C736 0.929 . S
S740 N741 1.616 1_565 S
S740 N742 1.607 . S
N741 S740 1.616 1_545 S
N741 C744 1.350 . S
N742 S740 1.607 . S
N742 C743 1.351 . S
C743 C737 1.428 . S
C743 N742 1.351 . S
C743 C744 1.434 1_565 S
C744 C735 1.429 . S
C744 N741 1.350 . S
C744 C743 1.434 1_545 S
C745 C746 1.369 . S
C745 C747 1.419 . S
C745 H749 0.930 . S
C746 C745 1.369 . S
C746 C755 1.429 . S
C747 C745 1.419 . S
C747 C748 1.363 . S
C747 H750 0.929 . S
C748 C747 1.363 . S
C748 C754 1.428 . S
H749 C745 0.930 . S
H750 C747 0.929 . S
S751 N752 1.613 . S
S751 N753 1.610 . S
N752 S751 1.613 . S
N752 C755 1.350 . S
N753 S751 1.610 . S
N753 C754 1.351 . S
C754 C748 1.428 . S
C754 N753 1.351 . S
C754 C755 1.434 . S
C755 C746 1.429 . S
C755 N752 1.350 . S
C755 C754 1.434 . S
C756 C757 1.369 . S
C756 C758 1.419 1_545 S
C756 H760 0.930 . S
C757 C756 1.369 . S
C757 C766 1.429 . S
C758 C756 1.419 1_565 S
C758 C759 1.363 . S
C758 H761 0.929 . S
C759 C758 1.363 . S
C759 C765 1.428 . S
H760 C756 0.930 . S
H761 C758 0.929 . S
S762 N763 1.616 1_565 S
S762 N764 1.607 . S
N763 S762 1.616 1_545 S
N763 C766 1.350 . S
N764 S762 1.607 . S
N764 C765 1.351 . S
C765 C759 1.428 . S
C765 N764 1.351 . S
C765 C766 1.434 1_565 S
C766 C757 1.429 . S
C766 N763 1.350 . S
C766 C765 1.434 1_545 S
C767 C768 1.369 . S
C767 C769 1.419 . S
C767 H771 0.930 . S
C768 C767 1.369 . S
C768 C777 1.429 . S
C769 C767 1.419 . S
C769 C770 1.363 . S
C769 H772 0.929 . S
C770 C769 1.363 . S
C770 C776 1.428 . S
H771 C767 0.930 . S
H772 C769 0.929 . S
S773 N774 1.613 . S
S773 N775 1.610 . S
N774 S773 1.613 . S
N774 C777 1.350 . S
N775 S773 1.610 . S
N775 C776 1.351 . S
C776 C770 1.428 . S
C776 N775 1.351 . S
C776 C777 1.434 . S
C777 C768 1.429 . S
C777 N774 1.350 . S
C777 C776 1.434 . S
C778 C779 1.369 . S
C778 C780 1.419 1_545 S
C778 H782 0.930 . S
C779 C778 1.369 . S
C779 C788 1.429 . S
C780 C778 1.419 1_565 S
C780 C781 1.363 . S
C780 H783 0.929 . S
C781 C780 1.363 . S
C781 C787 1.428 . S
H782 C778 0.930 . S
H783 C780 0.929 . S
S784 N785 1.616 1_565 S
S784 N786 1.607 . S
N785 S784 1.616 1_545 S
N785 C788 1.350 . S
N786 S784 1.607 . S
N786 C787 1.351 . S
C787 C781 1.428 . S
C787 N786 1.351 . S
C787 C788 1.434 1_565 S
C788 C779 1.429 . S
C788 N785 1.350 . S
C788 C787 1.434 1_545 S
C789 C790 1.369 . S
C789 C791 1.419 . S
C789 H793 0.930 . S
C790 C789 1.369 . S
C790 C799 1.429 . S
C791 C789 1.419 . S
C791 C792 1.363 . S
C791 H794 0.929 . S
C792 C791 1.363 . S
C792 C798 1.428 . S
H793 C789 0.930 . S
H794 C791 0.929 . S
S795 N796 1.613 . S
S795 N797 1.610 . S
N796 S795 1.613 . S
N796 C799 1.350 . S
N797 S795 1.610 . S
N797 C798 1.351 . S
C798 C792 1.428 . S
C798 N797 1.351 . S
C798 C799 1.434 . S
C799 C790 1.429 . S
C799 N796 1.350 . S
C799 C798 1.434 . S
C800 C801 1.369 . S
C800 C802 1.419 1_554 S
C800 H804 0.930 . S
C801 C800 1.369 . S
C801 C810 1.429 . S
C802 C800 1.419 1_556 S
C802 C803 1.363 . S
C802 H805 0.929 . S
C803 C802 1.363 . S
C803 C809 1.428 . S
H804 C800 0.930 . S
H805 C802 0.929 . S
S806 N807 1.616 1_556 S
S806 N808 1.607 . S
N807 S806 1.616 1_554 S
N807 C810 1.350 . S
N808 S806 1.607 . S
N808 C809 1.351 . S
C809 C803 1.428 . S
C809 N808 1.351 . S
C809 C810 1.434 1_556 S
C810 C801 1.429 . S
C810 N807 1.350 . S
C810 C809 1.434 1_554 S
C811 C812 1.369 . S
C811 C813 1.419 1_554 S
C811 H815 0.930 . S
C812 C811 1.369 . S
C812 C821 1.429 . S
C813 C811 1.419 1_556 S
C813 C814 1.363 . S
C813 H816 0.929 . S
C814 C813 1.363 . S
C814 C820 1.428 . S
H815 C811 0.930 . S
H816 C813 0.929 . S
S817 N818 1.616 1_556 S
S817 N819 1.607 . S
N818 S817 1.616 1_554 S
N818 C821 1.350 . S
N819 S817 1.607 . S
N819 C820 1.351 . S
C820 C814 1.428 . S
C820 N819 1.351 . S
C820 C821 1.434 1_556 S
C821 C812 1.429 . S
C821 N818 1.350 . S
C821 C820 1.434 1_554 S
C822 C823 1.369 . S
C822 C824 1.419 . S
C822 H826 0.930 . S
C823 C822 1.369 . S
C823 C832 1.429 . S
C824 C822 1.419 . S
C824 C825 1.363 . S
C824 H827 0.929 . S
C825 C824 1.363 . S
C825 C831 1.428 . S
H826 C822 0.930 . S
H827 C824 0.929 . S
S828 N829 1.613 . S
S828 N830 1.610 . S
N829 S828 1.613 . S
N829 C832 1.350 . S
N830 S828 1.610 . S
N830 C831 1.351 . S
C831 C825 1.428 . S
C831 N830 1.351 . S
C831 C832 1.434 . S
C832 C823 1.429 . S
C832 N829 1.350 . S
C832 C831 1.434 . S
C833 C834 1.369 . S
C833 C835 1.419 1_554 S
C833 H837 0.930 . S
C834 C833 1.369 . S
C834 C843 1.429 . S
C835 C833 1.419 1_556 S
C835 C836 1.363 . S
C835 H838 0.929 . S
C836 C835 1.363 . S
C836 C842 1.428 . S
H837 C833 0.930 . S
H838 C835 0.929 . S
S839 N840 1.616 1_556 S
S839 N841 1.607 . S
N840 S839 1.616 1_554 S
N840 C843 1.350 . S
N841 S839 1.607 . S
N841 C842 1.351 . S
C842 C836 1.428 . S
C842 N841 1.351 . S
C842 C843 1.434 1_556 S
C843 C834 1.429 . S
C843 N840 1.350 . S
C843 C842 1.434 1_554 S
C844 C845 1.369 . S
C844 C846 1.419 . S
C844 H848 0.930 . S
C845 C844 1.369 . S
C845 C854 1.429 . S
C846 C844 1.419 . S
C846 C847 1.363 . S
C846 H849 0.929 . S
C847 C846 1.363 . S
C847 C853 1.428 . S
H848 C844 0.930 . S
H849 C846 0.929 . S
S850 N851 1.613 . S
S850 N852 1.610 . S
N851 S850 1.613 . S
N851 C854 1.350 . S
N852 S850 1.610 . S
N852 C853 1.351 . S
C853 C847 1.428 . S
C853 N852 1.351 . S
C853 C854 1.434 . S
C854 C845 1.429 . S
C854 N851 1.350 . S
C854 C853 1.434 . S
C855 C856 1.369 . S
C855 C857 1.419 1_554 S
C855 H859 0.930 . S
C856 C855 1.369 . S
C856 C865 1.429 . S
C857 C855 1.419 1_556 S
C857 C858 1.363 . S
C857 H860 0.929 . S
C858 C857 1.363 . S
C858 C864 1.428 . S
H859 C855 0.930 . S
H860 C857 0.929 . S
S861 N862 1.616 1_556 S
S861 N863 1.607 . S
N862 S861 1.616 1_554 S
N862 C865 1.350 . S
N863 S861 1.607 . S
N863 C864 1.351 . S
C864 C858 1.428 . S
C864 N863 1.351 . S
C864 C865 1.434 1_556 S
C865 C856 1.429 . S
C865 N862 1.350 . S
C865 C864 1.434 1_554 S
C866 C867 1.369 . S
C866 C868 1.419 . S
C866 H870 0.930 . S
C867 C866 1.369 . S
C867 C876 1.429 . S
C868 C866 1.419 . S
C868 C869 1.363 . S
C868 H871 0.929 . S
C869 C868 1.363 . S
C869 C875 1.428 . S
H870 C866 0.930 . S
H871 C868 0.929 . S
S872 N873 1.613 . S
S872 N874 1.610 . S
N873 S872 1.613 . S
N873 C876 1.350 . S
N874 S872 1.610 . S
N874 C875 1.351 . S
C875 C869 1.428 . S
C875 N874 1.351 . S
C875 C876 1.434 . S
C876 C867 1.429 . S
C876 N873 1.350 . S
C876 C875 1.434 . S
C877 C878 1.369 . S
C877 C879 1.419 . S
C877 H881 0.930 . S
C878 C877 1.369 . S
C878 C887 1.429 . S
C879 C877 1.419 . S
C879 C880 1.363 . S
C879 H882 0.929 . S
C880 C879 1.363 . S
C880 C886 1.428 . S
H881 C877 0.930 . S
H882 C879 0.929 . S
S883 N884 1.613 . S
S883 N885 1.610 . S
N884 S883 1.613 . S
N884 C887 1.350 . S
N885 S883 1.610 . S
N885 C886 1.351 . S
C886 C880 1.428 . S
C886 N885 1.351 . S
C886 C887 1.434 . S
C887 C878 1.429 . S
C887 N884 1.350 . S
C887 C886 1.434 . S
C888 C889 1.369 . S
C888 C890 1.419 . S
C888 H892 0.930 . S
C889 C888 1.369 . S
C889 C898 1.429 . S
C890 C888 1.419 . S
C890 C891 1.363 . S
C890 H893 0.929 . S
C891 C890 1.363 . S
C891 C897 1.428 . S
H892 C888 0.930 . S
H893 C890 0.929 . S
S894 N895 1.613 . S
S894 N896 1.610 . S
N895 S894 1.613 . S
N895 C898 1.350 . S
N896 S894 1.610 . S
N896 C897 1.351 . S
C897 C891 1.428 . S
C897 N896 1.351 . S
C897 C898 1.434 . S
C898 C889 1.429 . S
C898 N895 1.350 . S
C898 C897 1.434 . S
C899 C900 1.369 . S
C899 C901 1.419 . S
C899 H903 0.930 . S
C900 C899 1.369 . S
C900 C909 1.429 . S
C901 C899 1.419 . S
C901 C902 1.363 . S
C901 H904 0.929 . S
C902 C901 1.363 . S
C902 C908 1.428 . S
H903 C899 0.930 . S
H904 C901 0.929 . S
S905 N906 1.613 . S
S905 N907 1.610 . S
N906 S905 1.613 . S
N906 C909 1.350 . S
N907 S905 1.610 . S
N907 C908 1.351 . S
C908 C902 1.428 . S
C908 N907 1.351 . S
C908 C909 1.434 . S
C909 C900 1.429 . S
C909 N906 1.350 . S
C909 C908 1.434 . S
C910 C911 1.369 . S
C910 C912 1.419 . S
C910 H914 0.930 . S
C911 C910 1.369 . S
C911 C920 1.429 . S
C912 C910 1.419 . S
C912 C913 1.363 . S
C912 H915 0.929 . S
C913 C912 1.363 . S
C913 C919 1.428 . S
H914 C910 0.930 . S
H915 C912 0.929 . S
S916 N917 1.613 . S
S916 N918 1.610 . S
N917 S916 1.613 . S
N917 C920 1.350 . S
N918 S916 1.610 . S
N918 C919 1.351 . S
C919 C913 1.428 . S
C919 N918 1.351 . S
C919 C920 1.434 . S
C920 C911 1.429 . S
C920 N917 1.350 . S
C920 C919 1.434 . S
C921 C922 1.369 . S
C921 C923 1.419 . S
C921 H925 0.930 . S
C922 C921 1.369 . S
C922 C931 1.429 . S
C923 C921 1.419 . S
C923 C924 1.363 . S
C923 H926 0.929 . S
C924 C923 1.363 . S
C924 C930 1.428 . S
H925 C921 0.930 . S
H926 C923 0.929 . S
S927 N928 1.613 . S
S927 N929 1.610 . S
N928 S927 1.613 . S
N928 C931 1.350 . S
N929 S927 1.610 . S
N929 C930 1.351 . S
C930 C924 1.428 . S
C930 N929 1.351 . S
C930 C931 1.434 . S
C931 C922 1.429 . S
C931 N928 1.350 . S
C931 C930 1.434 . S
C932 C933 1.369 . S
C932 C934 1.419 . S
C932 H936 0.930 . S
C933 C932 1.369 . S
C933 C942 1.429 . S
C934 C932 1.419 . S
C934 C935 1.363 . S
C934 H937 0.929 . S
C935 C934 1.363 . S
C935 C941 1.428 . S
H936 C932 0.930 . S
H937 C934 0.929 . S
S938 N939 1.613 . S
S938 N940 1.610 . S
N939 S938 1.613 . S
N939 C942 1.350 . S
N940 S938 1.610 . S
N940 C941 1.351 . S
C941 C935 1.428 . S
C941 N940 1.351 . S
C941 C942 1.434 . S
C942 C933 1.429 . S
C942 N939 1.350 . S
C942 C941 1.434 . S
C943 C944 1.369 . S
C943 C945 1.419 . S
C943 H947 0.930 . S
C944 C943 1.369 . S
C944 C953 1.429 . S
C945 C943 1.419 . S
C945 C946 1.363 . S
C945 H948 0.929 . S
C946 C945 1.363 . S
C946 C952 1.428 . S
H947 C943 0.930 . S
H948 C945 0.929 . S
S949 N950 1.613 . S
S949 N951 1.610 . S
N950 S949 1.613 . S
N950 C953 1.350 . S
N951 S949 1.610 . S
N951 C952 1.351 . S
C952 C946 1.428 . S
C952 N951 1.351 . S
C952 C953 1.434 . S
C953 C944 1.429 . S
C953 N950 1.350 . S
C953 C952 1.434 . S
C954 C955 1.369 . S
C954 C956 1.419 . S
C954 H958 0.930 . S
C955 C954 1.369 . S
C955 C964 1.429 . S
C956 C954 1.419 . S
C956 C957 1.363 . S
C956 H959 0.929 . S
C957 C956 1.363 . S
C957 C963 1.428 . S
H958 C954 0.930 . S
H959 C956 0.929 . S
S960 N961 1.613 . S
S960 N962 1.610 . S
N961 S960 1.613 . S
N961 C964 1.350 . S
N962 S960 1.610 . S
N962 C963 1.351 . S
C963 C957 1.428 . S
C963 N962 1.351 . S
C963 C964 1.434 . S
C964 C955 1.429 . S
C964 N961 1.350 . S
C964 C963 1.434 . S
C965 C966 1.369 . S
C965 C967 1.419 . S
C965 H969 0.930 . S
C966 C965 1.369 . S
C966 C975 1.429 . S
C967 C965 1.419 . S
C967 C968 1.363 . S
C967 H970 0.929 . S
C968 C967 1.363 . S
C968 C974 1.428 . S
H969 C965 0.930 . S
H970 C967 0.929 . S
S971 N972 1.613 . S
S971 N973 1.610 . S
N972 S971 1.613 . S
N972 C975 1.350 . S
N973 S971 1.610 . S
N973 C974 1.351 . S
C974 C968 1.428 . S
C974 N973 1.351 . S
C974 C975 1.434 . S
C975 C966 1.429 . S
C975 N972 1.350 . S
C975 C974 1.434 . S
C976 C977 1.369 . S
C976 C978 1.419 . S
C976 H980 0.930 . S
C977 C976 1.369 . S
C977 C986 1.429 . S
C978 C976 1.419 . S
C978 C979 1.363 . S
C978 H981 0.929 . S
C979 C978 1.363 . S
C979 C985 1.428 . S
H980 C976 0.930 . S
H981 C978 0.929 . S
S982 N983 1.613 . S
S982 N984 1.610 . S
N983 S982 1.613 . S
N983 C986 1.350 . S
N984 S982 1.610 . S
N984 C985 1.351 . S
C985 C979 1.428 . S
C985 N984 1.351 . S
C985 C986 1.434 . S
C986 C977 1.429 . S
C986 N983 1.350 . S
C986 C985 1.434 . S
C987 C988 1.369 . S
C987 C989 1.419 . S
C987 H991 0.930 . S
C988 C987 1.369 . S
C988 C997 1.429 . S
C989 C987 1.419 . S
C989 C990 1.363 . S
C989 H992 0.929 . S
C990 C989 1.363 . S
C990 C996 1.428 . S
H991 C987 0.930 . S
H992 C989 0.929 . S
S993 N994 1.613 . S
S993 N995 1.610 . S
N994 S993 1.613 . S
N994 C997 1.350 . S
N995 S993 1.610 . S
N995 C996 1.351 . S
C996 C990 1.428 . S
C996 N995 1.351 . S
C996 C997 1.434 . S
C997 C988 1.429 . S
C997 N994 1.350 . S
C997 C996 1.434 . S
C998 C999 1.369 . S
C998 C1000 1.419 . S
C998 H1002 0.930 . S
C999 C998 1.369 . S
C999 C1008 1.429 . S
C1000 C998 1.419 . S
C1000 C1001 1.363 . S
C1000 H1003 0.929 . S
C1001 C1000 1.363 . S
C1001 C1007 1.428 . S
H1002 C998 0.930 . S
H1003 C1000 0.929 . S
S1004 N1005 1.613 . S
S1004 N1006 1.610 . S
N1005 S1004 1.613 . S
N1005 C1008 1.350 . S
N1006 S1004 1.610 . S
N1006 C1007 1.351 . S
C1007 C1001 1.428 . S
C1007 N1006 1.351 . S
C1007 C1008 1.434 . S
C1008 C999 1.429 . S
C1008 N1005 1.350 . S
C1008 C1007 1.434 . S
C1009 C1010 1.369 . S
C1009 C1011 1.419 . S
C1009 H1013 0.930 . S
C1010 C1009 1.369 . S
C1010 C1019 1.429 . S
C1011 C1009 1.419 . S
C1011 C1012 1.363 . S
C1011 H1014 0.929 . S
C1012 C1011 1.363 . S
C1012 C1018 1.428 . S
H1013 C1009 0.930 . S
H1014 C1011 0.929 . S
S1015 N1016 1.613 . S
S1015 N1017 1.610 . S
N1016 S1015 1.613 . S
N1016 C1019 1.350 . S
N1017 S1015 1.610 . S
N1017 C1018 1.351 . S
C1018 C1012 1.428 . S
C1018 N1017 1.351 . S
C1018 C1019 1.434 . S
C1019 C1010 1.429 . S
C1019 N1016 1.350 . S
C1019 C1018 1.434 . S
C1020 C1021 1.369 . S
C1020 C1022 1.419 . S
C1020 H1024 0.930 . S
C1021 C1020 1.369 . S
C1021 C1030 1.429 . S
C1022 C1020 1.419 . S
C1022 C1023 1.363 . S
C1022 H1025 0.929 . S
C1023 C1022 1.363 . S
C1023 C1029 1.428 . S
H1024 C1020 0.930 . S
H1025 C1022 0.929 . S
S1026 N1027 1.613 . S
S1026 N1028 1.610 . S
N1027 S1026 1.613 . S
N1027 C1030 1.350 . S
N1028 S1026 1.610 . S
N1028 C1029 1.351 . S
C1029 C1023 1.428 . S
C1029 N1028 1.351 . S
C1029 C1030 1.434 . S
C1030 C1021 1.429 . S
C1030 N1027 1.350 . S
C1030 C1029 1.434 . S
C1031 C1032 1.369 . S
C1031 C1033 1.419 . S
C1031 H1035 0.930 . S
C1032 C1031 1.369 . S
C1032 C1041 1.429 . S
C1033 C1031 1.419 . S
C1033 C1034 1.363 . S
C1033 H1036 0.929 . S
C1034 C1033 1.363 . S
C1034 C1040 1.428 . S
H1035 C1031 0.930 . S
H1036 C1033 0.929 . S
S1037 N1038 1.613 . S
S1037 N1039 1.610 . S
N1038 S1037 1.613 . S
N1038 C1041 1.350 . S
N1039 S1037 1.610 . S
N1039 C1040 1.351 . S
C1040 C1034 1.428 . S
C1040 N1039 1.351 . S
C1040 C1041 1.434 . S
C1041 C1032 1.429 . S
C1041 N1038 1.350 . S
C1041 C1040 1.434 . S
C1042 C1043 1.369 . S
C1042 C1044 1.419 . S
C1042 H1046 0.930 . S
C1043 C1042 1.369 . S
C1043 C1052 1.429 . S
C1044 C1042 1.419 . S
C1044 C1045 1.363 . S
C1044 H1047 0.929 . S
C1045 C1044 1.363 . S
C1045 C1051 1.428 . S
H1046 C1042 0.930 . S
H1047 C1044 0.929 . S
S1048 N1049 1.613 . S
S1048 N1050 1.610 . S
N1049 S1048 1.613 . S
N1049 C1052 1.350 . S
N1050 S1048 1.610 . S
N1050 C1051 1.351 . S
C1051 C1045 1.428 . S
C1051 N1050 1.351 . S
C1051 C1052 1.434 . S
C1052 C1043 1.429 . S
C1052 N1049 1.350 . S
C1052 C1051 1.434 . S
C1053 C1054 1.369 . S
C1053 C1055 1.419 . S
C1053 H1057 0.930 . S
C1054 C1053 1.369 . S
C1054 C1063 1.429 . S
C1055 C1053 1.419 . S
C1055 C1056 1.363 . S
C1055 H1058 0.929 . S
C1056 C1055 1.363 . S
C1056 C1062 1.428 . S
H1057 C1053 0.930 . S
H1058 C1055 0.929 . S
S1059 N1060 1.613 . S
S1059 N1061 1.610 . S
N1060 S1059 1.613 . S
N1060 C1063 1.350 . S
N1061 S1059 1.610 . S
N1061 C1062 1.351 . S
C1062 C1056 1.428 . S
C1062 N1061 1.351 . S
C1062 C1063 1.434 . S
C1063 C1054 1.429 . S
C1063 N1060 1.350 . S
C1063 C1062 1.434 . S
C1064 C1065 1.369 . S
C1064 C1066 1.419 . S
C1064 H1068 0.930 . S
C1065 C1064 1.369 . S
C1065 C1074 1.429 . S
C1066 C1064 1.419 . S
C1066 C1067 1.363 . S
C1066 H1069 0.929 . S
C1067 C1066 1.363 . S
C1067 C1073 1.428 . S
H1068 C1064 0.930 . S
H1069 C1066 0.929 . S
S1070 N1071 1.613 . S
S1070 N1072 1.610 . S
N1071 S1070 1.613 . S
N1071 C1074 1.350 . S
N1072 S1070 1.610 . S
N1072 C1073 1.351 . S
C1073 C1067 1.428 . S
C1073 N1072 1.351 . S
C1073 C1074 1.434 . S
C1074 C1065 1.429 . S
C1074 N1071 1.350 . S
C1074 C1073 1.434 . S
C1075 C1076 1.369 . S
C1075 C1077 1.419 . S
C1075 H1079 0.930 . S
C1076 C1075 1.369 . S
C1076 C1085 1.429 . S
C1077 C1075 1.419 . S
C1077 C1078 1.363 . S
C1077 H1080 0.929 . S
C1078 C1077 1.363 . S
C1078 C1084 1.428 . S
H1079 C1075 0.930 . S
H1080 C1077 0.929 . S
S1081 N1082 1.613 . S
S1081 N1083 1.610 . S
N1082 S1081 1.613 . S
N1082 C1085 1.350 . S
N1083 S1081 1.610 . S
N1083 C1084 1.351 . S
C1084 C1078 1.428 . S
C1084 N1083 1.351 . S
C1084 C1085 1.434 . S
C1085 C1076 1.429 . S
C1085 N1082 1.350 . S
C1085 C1084 1.434 . S
C1086 C1087 1.369 . S
C1086 C1088 1.419 . S
C1086 H1090 0.930 . S
C1087 C1086 1.369 . S
C1087 C1096 1.429 . S
C1088 C1086 1.419 . S
C1088 C1089 1.363 . S
C1088 H1091 0.929 . S
C1089 C1088 1.363 . S
C1089 C1095 1.428 . S
H1090 C1086 0.930 . S
H1091 C1088 0.929 . S
S1092 N1093 1.613 . S
S1092 N1094 1.610 . S
N1093 S1092 1.613 . S
N1093 C1096 1.350 . S
N1094 S1092 1.610 . S
N1094 C1095 1.351 . S
C1095 C1089 1.428 . S
C1095 N1094 1.351 . S
C1095 C1096 1.434 . S
C1096 C1087 1.429 . S
C1096 N1093 1.350 . S
C1096 C1095 1.434 . S
C1097 C1098 1.369 . S
C1097 C1099 1.419 . S
C1097 H1101 0.930 . S
C1098 C1097 1.369 . S
C1098 C1107 1.429 . S
C1099 C1097 1.419 . S
C1099 C1100 1.363 . S
C1099 H1102 0.929 . S
C1100 C1099 1.363 . S
C1100 C1106 1.428 . S
H1101 C1097 0.930 . S
H1102 C1099 0.929 . S
S1103 N1104 1.613 . S
S1103 N1105 1.610 . S
N1104 S1103 1.613 . S
N1104 C1107 1.350 . S
N1105 S1103 1.610 . S
N1105 C1106 1.351 . S
C1106 C1100 1.428 . S
C1106 N1105 1.351 . S
C1106 C1107 1.434 . S
C1107 C1098 1.429 . S
C1107 N1104 1.350 . S
C1107 C1106 1.434 . S
C1108 C1109 1.369 . S
C1108 C1110 1.419 . S
C1108 H1112 0.930 . S
C1109 C1108 1.369 . S
C1109 C1118 1.429 . S
C1110 C1108 1.419 . S
C1110 C1111 1.363 . S
C1110 H1113 0.929 . S
C1111 C1110 1.363 . S
C1111 C1117 1.428 . S
H1112 C1108 0.930 . S
H1113 C1110 0.929 . S
S1114 N1115 1.613 . S
S1114 N1116 1.610 . S
N1115 S1114 1.613 . S
N1115 C1118 1.350 . S
N1116 S1114 1.610 . S
N1116 C1117 1.351 . S
C1117 C1111 1.428 . S
C1117 N1116 1.351 . S
C1117 C1118 1.434 . S
C1118 C1109 1.429 . S
C1118 N1115 1.350 . S
C1118 C1117 1.434 . S
C1119 C1120 1.369 . S
C1119 C1121 1.419 . S
C1119 H1123 0.930 . S
C1120 C1119 1.369 . S
C1120 C1129 1.429 . S
C1121 C1119 1.419 . S
C1121 C1122 1.363 . S
C1121 H1124 0.929 . S
C1122 C1121 1.363 . S
C1122 C1128 1.428 . S
H1123 C1119 0.930 . S
H1124 C1121 0.929 . S
S1125 N1126 1.613 . S
S1125 N1127 1.610 . S
N1126 S1125 1.613 . S
N1126 C1129 1.350 . S
N1127 S1125 1.610 . S
N1127 C1128 1.351 . S
C1128 C1122 1.428 . S
C1128 N1127 1.351 . S
C1128 C1129 1.434 . S
C1129 C1120 1.429 . S
C1129 N1126 1.350 . S
C1129 C1128 1.434 . S
C1130 C1131 1.369 . S
C1130 C1132 1.419 . S
C1130 H1134 0.930 . S
C1131 C1130 1.369 . S
C1131 C1140 1.429 . S
C1132 C1130 1.419 . S
C1132 C1133 1.363 . S
C1132 H1135 0.929 . S
C1133 C1132 1.363 . S
C1133 C1139 1.428 . S
H1134 C1130 0.930 . S
H1135 C1132 0.929 . S
S1136 N1137 1.613 . S
S1136 N1138 1.610 . S
N1137 S1136 1.613 . S
N1137 C1140 1.350 . S
N1138 S1136 1.610 . S
N1138 C1139 1.351 . S
C1139 C1133 1.428 . S
C1139 N1138 1.351 . S
C1139 C1140 1.434 . S
C1140 C1131 1.429 . S
C1140 N1137 1.350 . S
C1140 C1139 1.434 . S
C1141 C1142 1.369 . S
C1141 C1143 1.419 . S
C1141 H1145 0.930 . S
C1142 C1141 1.369 . S
C1142 C1151 1.429 . S
C1143 C1141 1.419 . S
C1143 C1144 1.363 . S
C1143 H1146 0.929 . S
C1144 C1143 1.363 . S
C1144 C1150 1.428 . S
H1145 C1141 0.930 . S
H1146 C1143 0.929 . S
S1147 N1148 1.613 . S
S1147 N1149 1.610 . S
N1148 S1147 1.613 . S
N1148 C1151 1.350 . S
N1149 S1147 1.610 . S
N1149 C1150 1.351 . S
C1150 C1144 1.428 . S
C1150 N1149 1.351 . S
C1150 C1151 1.434 . S
C1151 C1142 1.429 . S
C1151 N1148 1.350 . S
C1151 C1150 1.434 . S
C1152 C1153 1.369 . S
C1152 C1154 1.419 . S
C1152 H1156 0.930 . S
C1153 C1152 1.369 . S
C1153 C1162 1.429 . S
C1154 C1152 1.419 . S
C1154 C1155 1.363 . S
C1154 H1157 0.929 . S
C1155 C1154 1.363 . S
C1155 C1161 1.428 . S
H1156 C1152 0.930 . S
H1157 C1154 0.929 . S
S1158 N1159 1.613 . S
S1158 N1160 1.610 . S
N1159 S1158 1.613 . S
N1159 C1162 1.350 . S
N1160 S1158 1.610 . S
N1160 C1161 1.351 . S
C1161 C1155 1.428 . S
C1161 N1160 1.351 . S
C1161 C1162 1.434 . S
C1162 C1153 1.429 . S
C1162 N1159 1.350 . S
C1162 C1161 1.434 . S
C1163 C1164 1.369 . S
C1163 C1165 1.419 . S
C1163 H1167 0.930 . S
C1164 C1163 1.369 . S
C1164 C1173 1.429 . S
C1165 C1163 1.419 . S
C1165 C1166 1.363 . S
C1165 H1168 0.929 . S
C1166 C1165 1.363 . S
C1166 C1172 1.428 . S
H1167 C1163 0.930 . S
H1168 C1165 0.929 . S
S1169 N1170 1.613 . S
S1169 N1171 1.610 . S
N1170 S1169 1.613 . S
N1170 C1173 1.350 . S
N1171 S1169 1.610 . S
N1171 C1172 1.351 . S
C1172 C1166 1.428 . S
C1172 N1171 1.351 . S
C1172 C1173 1.434 . S
C1173 C1164 1.429 . S
C1173 N1170 1.350 . S
C1173 C1172 1.434 . S
C1174 C1175 1.369 . S
C1174 C1176 1.419 . S
C1174 H1178 0.930 . S
C1175 C1174 1.369 . S
C1175 C1184 1.429 . S
C1176 C1174 1.419 . S
C1176 C1177 1.363 . S
C1176 H1179 0.929 . S
C1177 C1176 1.363 . S
C1177 C1183 1.428 . S
H1178 C1174 0.930 . S
H1179 C1176 0.929 . S
S1180 N1181 1.613 . S
S1180 N1182 1.610 . S
N1181 S1180 1.613 . S
N1181 C1184 1.350 . S
N1182 S1180 1.610 . S
N1182 C1183 1.351 . S
C1183 C1177 1.428 . S
C1183 N1182 1.351 . S
C1183 C1184 1.434 . S
C1184 C1175 1.429 . S
C1184 N1181 1.350 . S
C1184 C1183 1.434 . S
C1185 C1186 1.369 . S
C1185 C1187 1.419 . S
C1185 H1189 0.930 . S
C1186 C1185 1.369 . S
C1186 C1195 1.429 . S
C1187 C1185 1.419 . S
C1187 C1188 1.363 . S
C1187 H1190 0.929 . S
C1188 C1187 1.363 . S
C1188 C1194 1.428 . S
H1189 C1185 0.930 . S
H1190 C1187 0.929 . S
S1191 N1192 1.613 . S
S1191 N1193 1.610 . S
N1192 S1191 1.613 . S
N1192 C1195 1.350 . S
N1193 S1191 1.610 . S
N1193 C1194 1.351 . S
C1194 C1188 1.428 . S
C1194 N1193 1.351 . S
C1194 C1195 1.434 . S
C1195 C1186 1.429 . S
C1195 N1192 1.350 . S
C1195 C1194 1.434 . S
C1196 C1197 1.369 . S
C1196 C1198 1.419 . S
C1196 H1200 0.930 . S
C1197 C1196 1.369 . S
C1197 C1206 1.429 . S
C1198 C1196 1.419 . S
C1198 C1199 1.363 . S
C1198 H1201 0.929 . S
C1199 C1198 1.363 . S
C1199 C1205 1.428 . S
H1200 C1196 0.930 . S
H1201 C1198 0.929 . S
S1202 N1203 1.613 . S
S1202 N1204 1.610 . S
N1203 S1202 1.613 . S
N1203 C1206 1.350 . S
N1204 S1202 1.610 . S
N1204 C1205 1.351 . S
C1205 C1199 1.428 . S
C1205 N1204 1.351 . S
C1205 C1206 1.434 . S
C1206 C1197 1.429 . S
C1206 N1203 1.350 . S
C1206 C1205 1.434 . S
C1207 C1208 1.369 . S
C1207 C1209 1.419 . S
C1207 H1211 0.930 . S
C1208 C1207 1.369 . S
C1208 C1217 1.429 . S
C1209 C1207 1.419 . S
C1209 C1210 1.363 . S
C1209 H1212 0.929 . S
C1210 C1209 1.363 . S
C1210 C1216 1.428 . S
H1211 C1207 0.930 . S
H1212 C1209 0.929 . S
S1213 N1214 1.613 . S
S1213 N1215 1.610 . S
N1214 S1213 1.613 . S
N1214 C1217 1.350 . S
N1215 S1213 1.610 . S
N1215 C1216 1.351 . S
C1216 C1210 1.428 . S
C1216 N1215 1.351 . S
C1216 C1217 1.434 . S
C1217 C1208 1.429 . S
C1217 N1214 1.350 . S
C1217 C1216 1.434 . S
C1218 C1219 1.369 . S
C1218 C1220 1.419 . S
C1218 H1222 0.930 . S
C1219 C1218 1.369 . S
C1219 C1228 1.429 . S
C1220 C1218 1.419 . S
C1220 C1221 1.363 . S
C1220 H1223 0.929 . S
C1221 C1220 1.363 . S
C1221 C1227 1.428 . S
H1222 C1218 0.930 . S
H1223 C1220 0.929 . S
S1224 N1225 1.613 . S
S1224 N1226 1.610 . S
N1225 S1224 1.613 . S
N1225 C1228 1.350 . S
N1226 S1224 1.610 . S
N1226 C1227 1.351 . S
C1227 C1221 1.428 . S
C1227 N1226 1.351 . S
C1227 C1228 1.434 . S
C1228 C1219 1.429 . S
C1228 N1225 1.350 . S
C1228 C1227 1.434 . S
C1229 C1230 1.369 . S
C1229 C1231 1.419 . S
C1229 H1233 0.930 . S
C1230 C1229 1.369 . S
C1230 C1239 1.429 . S
C1231 C1229 1.419 . S
C1231 C1232 1.363 . S
C1231 H1234 0.929 . S
C1232 C1231 1.363 . S
C1232 C1238 1.428 . S
H1233 C1229 0.930 . S
H1234 C1231 0.929 . S
S1235 N1236 1.613 . S
S1235 N1237 1.610 . S
N1236 S1235 1.613 . S
N1236 C1239 1.350 . S
N1237 S1235 1.610 . S
N1237 C1238 1.351 . S
C1238 C1232 1.428 . S
C1238 N1237 1.351 . S
C1238 C1239 1.434 . S
C1239 C1230 1.429 . S
C1239 N1236 1.350 . S
C1239 C1238 1.434 . S
C1240 C1241 1.369 . S
C1240 C1242 1.419 . S
C1240 H1244 0.930 . S
C1241 C1240 1.369 . S
C1241 C1250 1.429 . S
C1242 C1240 1.419 . S
C1242 C1243 1.363 . S
C1242 H1245 0.929 . S
C1243 C1242 1.363 . S
C1243 C1249 1.428 . S
H1244 C1240 0.930 . S
H1245 C1242 0.929 . S
S1246 N1247 1.613 . S
S1246 N1248 1.610 . S
N1247 S1246 1.613 . S
N1247 C1250 1.350 . S
N1248 S1246 1.610 . S
N1248 C1249 1.351 . S
C1249 C1243 1.428 . S
C1249 N1248 1.351 . S
C1249 C1250 1.434 . S
C1250 C1241 1.429 . S
C1250 N1247 1.350 . S
C1250 C1249 1.434 . S
C1251 C1252 1.369 . S
C1251 C1253 1.419 . S
C1251 H1255 0.930 . S
C1252 C1251 1.369 . S
C1252 C1261 1.429 . S
C1253 C1251 1.419 . S
C1253 C1254 1.363 . S
C1253 H1256 0.929 . S
C1254 C1253 1.363 . S
C1254 C1260 1.428 . S
H1255 C1251 0.930 . S
H1256 C1253 0.929 . S
S1257 N1258 1.613 . S
S1257 N1259 1.610 . S
N1258 S1257 1.613 . S
N1258 C1261 1.350 . S
N1259 S1257 1.610 . S
N1259 C1260 1.351 . S
C1260 C1254 1.428 . S
C1260 N1259 1.351 . S
C1260 C1261 1.434 . S
C1261 C1252 1.429 . S
C1261 N1258 1.350 . S
C1261 C1260 1.434 . S
C1262 C1263 1.369 . S
C1262 C1264 1.419 . S
C1262 H1266 0.930 . S
C1263 C1262 1.369 . S
C1263 C1272 1.429 . S
C1264 C1262 1.419 . S
C1264 C1265 1.363 . S
C1264 H1267 0.929 . S
C1265 C1264 1.363 . S
C1265 C1271 1.428 . S
H1266 C1262 0.930 . S
H1267 C1264 0.929 . S
S1268 N1269 1.613 . S
S1268 N1270 1.610 . S
N1269 S1268 1.613 . S
N1269 C1272 1.350 . S
N1270 S1268 1.610 . S
N1270 C1271 1.351 . S
C1271 C1265 1.428 . S
C1271 N1270 1.351 . S
C1271 C1272 1.434 . S
C1272 C1263 1.429 . S
C1272 N1269 1.350 . S
C1272 C1271 1.434 . S
C1273 C1274 1.369 . S
C1273 C1275 1.419 . S
C1273 H1277 0.930 . S
C1274 C1273 1.369 . S
C1274 C1283 1.429 . S
C1275 C1273 1.419 . S
C1275 C1276 1.363 . S
C1275 H1278 0.929 . S
C1276 C1275 1.363 . S
C1276 C1282 1.428 . S
H1277 C1273 0.930 . S
H1278 C1275 0.929 . S
S1279 N1280 1.613 . S
S1279 N1281 1.610 . S
N1280 S1279 1.613 . S
N1280 C1283 1.350 . S
N1281 S1279 1.610 . S
N1281 C1282 1.351 . S
C1282 C1276 1.428 . S
C1282 N1281 1.351 . S
C1282 C1283 1.434 . S
C1283 C1274 1.429 . S
C1283 N1280 1.350 . S
C1283 C1282 1.434 . S
C1284 C1285 1.369 . S
C1284 C1286 1.419 . S
C1284 H1288 0.930 . S
C1285 C1284 1.369 . S
C1285 C1294 1.429 . S
C1286 C1284 1.419 . S
C1286 C1287 1.363 . S
C1286 H1289 0.929 . S
C1287 C1286 1.363 . S
C1287 C1293 1.428 . S
H1288 C1284 0.930 . S
H1289 C1286 0.929 . S
S1290 N1291 1.613 . S
S1290 N1292 1.610 . S
N1291 S1290 1.613 . S
N1291 C1294 1.350 . S
N1292 S1290 1.610 . S
N1292 C1293 1.351 . S
C1293 C1287 1.428 . S
C1293 N1292 1.351 . S
C1293 C1294 1.434 . S
C1294 C1285 1.429 . S
C1294 N1291 1.350 . S
C1294 C1293 1.434 . S
C1295 C1296 1.369 . S
C1295 C1297 1.419 . S
C1295 H1299 0.930 . S
C1296 C1295 1.369 . S
C1296 C1305 1.429 . S
C1297 C1295 1.419 . S
C1297 C1298 1.363 . S
C1297 H1300 0.929 . S
C1298 C1297 1.363 . S
C1298 C1304 1.428 . S
H1299 C1295 0.930 . S
H1300 C1297 0.929 . S
S1301 N1302 1.613 . S
S1301 N1303 1.610 . S
N1302 S1301 1.613 . S
N1302 C1305 1.350 . S
N1303 S1301 1.610 . S
N1303 C1304 1.351 . S
C1304 C1298 1.428 . S
C1304 N1303 1.351 . S
C1304 C1305 1.434 . S
C1305 C1296 1.429 . S
C1305 N1302 1.350 . S
C1305 C1304 1.434 . S
C1306 C1307 1.369 . S
C1306 C1308 1.419 . S
C1306 H1310 0.930 . S
C1307 C1306 1.369 . S
C1307 C1316 1.429 . S
C1308 C1306 1.419 . S
C1308 C1309 1.363 . S
C1308 H1311 0.929 . S
C1309 C1308 1.363 . S
C1309 C1315 1.428 . S
H1310 C1306 0.930 . S
H1311 C1308 0.929 . S
S1312 N1313 1.613 . S
S1312 N1314 1.610 . S
N1313 S1312 1.613 . S
N1313 C1316 1.350 . S
N1314 S1312 1.610 . S
N1314 C1315 1.351 . S
C1315 C1309 1.428 . S
C1315 N1314 1.351 . S
C1315 C1316 1.434 . S
C1316 C1307 1.429 . S
C1316 N1313 1.350 . S
C1316 C1315 1.434 . S
C1317 C1318 1.369 . S
C1317 C1319 1.419 . S
C1317 H1321 0.930 . S
C1318 C1317 1.369 . S
C1318 C1327 1.429 . S
C1319 C1317 1.419 . S
C1319 C1320 1.363 . S
C1319 H1322 0.929 . S
C1320 C1319 1.363 . S
C1320 C1326 1.428 . S
H1321 C1317 0.930 . S
H1322 C1319 0.929 . S
S1323 N1324 1.613 . S
S1323 N1325 1.610 . S
N1324 S1323 1.613 . S
N1324 C1327 1.350 . S
N1325 S1323 1.610 . S
N1325 C1326 1.351 . S
C1326 C1320 1.428 . S
C1326 N1325 1.351 . S
C1326 C1327 1.434 . S
C1327 C1318 1.429 . S
C1327 N1324 1.350 . S
C1327 C1326 1.434 . S
C1328 C1329 1.369 . S
C1328 C1330 1.419 . S
C1328 H1332 0.930 . S
C1329 C1328 1.369 . S
C1329 C1338 1.429 . S
C1330 C1328 1.419 . S
C1330 C1331 1.363 . S
C1330 H1333 0.929 . S
C1331 C1330 1.363 . S
C1331 C1337 1.428 . S
H1332 C1328 0.930 . S
H1333 C1330 0.929 . S
S1334 N1335 1.613 . S
S1334 N1336 1.610 . S
N1335 S1334 1.613 . S
N1335 C1338 1.350 . S
N1336 S1334 1.610 . S
N1336 C1337 1.351 . S
C1337 C1331 1.428 . S
C1337 N1336 1.351 . S
C1337 C1338 1.434 . S
C1338 C1329 1.429 . S
C1338 N1335 1.350 . S
C1338 C1337 1.434 . S
C1339 C1340 1.369 . S
C1339 C1341 1.419 . S
C1339 H1343 0.930 . S
C1340 C1339 1.369 . S
C1340 C1349 1.429 . S
C1341 C1339 1.419 . S
C1341 C1342 1.363 . S
C1341 H1344 0.929 . S
C1342 C1341 1.363 . S
C1342 C1348 1.428 . S
H1343 C1339 0.930 . S
H1344 C1341 0.929 . S
S1345 N1346 1.613 . S
S1345 N1347 1.610 . S
N1346 S1345 1.613 . S
N1346 C1349 1.350 . S
N1347 S1345 1.610 . S
N1347 C1348 1.351 . S
C1348 C1342 1.428 . S
C1348 N1347 1.351 . S
C1348 C1349 1.434 . S
C1349 C1340 1.429 . S
C1349 N1346 1.350 . S
C1349 C1348 1.434 . S
C1350 C1351 1.369 . S
C1350 C1352 1.419 . S
C1350 H1354 0.930 . S
C1351 C1350 1.369 . S
C1351 C1360 1.429 . S
C1352 C1350 1.419 . S
C1352 C1353 1.363 . S
C1352 H1355 0.929 . S
C1353 C1352 1.363 . S
C1353 C1359 1.428 . S
H1354 C1350 0.930 . S
H1355 C1352 0.929 . S
S1356 N1357 1.613 . S
S1356 N1358 1.610 . S
N1357 S1356 1.613 . S
N1357 C1360 1.350 . S
N1358 S1356 1.610 . S
N1358 C1359 1.351 . S
C1359 C1353 1.428 . S
C1359 N1358 1.351 . S
C1359 C1360 1.434 . S
C1360 C1351 1.429 . S
C1360 N1357 1.350 . S
C1360 C1359 1.434 . S
C1361 C1362 1.369 . S
C1361 C1363 1.419 . S
C1361 H1365 0.930 . S
C1362 C1361 1.369 . S
C1362 C1371 1.429 . S
C1363 C1361 1.419 . S
C1363 C1364 1.363 . S
C1363 H1366 0.929 . S
C1364 C1363 1.363 . S
C1364 C1370 1.428 . S
H1365 C1361 0.930 . S
H1366 C1363 0.929 . S
S1367 N1368 1.613 . S
S1367 N1369 1.610 . S
N1368 S1367 1.613 . S
N1368 C1371 1.350 . S
N1369 S1367 1.610 . S
N1369 C1370 1.351 . S
C1370 C1364 1.428 . S
C1370 N1369 1.351 . S
C1370 C1371 1.434 . S
C1371 C1362 1.429 . S
C1371 N1368 1.350 . S
C1371 C1370 1.434 . S
C1372 C1373 1.369 . S
C1372 C1374 1.419 . S
C1372 H1376 0.930 . S
C1373 C1372 1.369 . S
C1373 C1382 1.429 . S
C1374 C1372 1.419 . S
C1374 C1375 1.363 . S
C1374 H1377 0.929 . S
C1375 C1374 1.363 . S
C1375 C1381 1.428 . S
H1376 C1372 0.930 . S
H1377 C1374 0.929 . S
S1378 N1379 1.613 . S
S1378 N1380 1.610 . S
N1379 S1378 1.613 . S
N1379 C1382 1.350 . S
N1380 S1378 1.610 . S
N1380 C1381 1.351 . S
C1381 C1375 1.428 . S
C1381 N1380 1.351 . S
C1381 C1382 1.434 . S
C1382 C1373 1.429 . S
C1382 N1379 1.350 . S
C1382 C1381 1.434 . S
C1383 C1384 1.369 . S
C1383 C1385 1.419 . S
C1383 H1387 0.930 . S
C1384 C1383 1.369 . S
C1384 C1393 1.429 . S
C1385 C1383 1.419 . S
C1385 C1386 1.363 . S
C1385 H1388 0.929 . S
C1386 C1385 1.363 . S
C1386 C1392 1.428 . S
H1387 C1383 0.930 . S
H1388 C1385 0.929 . S
S1389 N1390 1.613 . S
S1389 N1391 1.610 . S
N1390 S1389 1.613 . S
N1390 C1393 1.350 . S
N1391 S1389 1.610 . S
N1391 C1392 1.351 . S
C1392 C1386 1.428 . S
C1392 N1391 1.351 . S
C1392 C1393 1.434 . S
C1393 C1384 1.429 . S
C1393 N1390 1.350 . S
C1393 C1392 1.434 . S
C1394 C1395 1.369 . S
C1394 C1396 1.419 . S
C1394 H1398 0.930 . S
C1395 C1394 1.369 . S
C1395 C1404 1.429 . S
C1396 C1394 1.419 . S
C1396 C1397 1.363 . S
C1396 H1399 0.929 . S
C1397 C1396 1.363 . S
C1397 C1403 1.428 . S
H1398 C1394 0.930 . S
H1399 C1396 0.929 . S
S1400 N1401 1.613 . S
S1400 N1402 1.610 . S
N1401 S1400 1.613 . S
N1401 C1404 1.350 . S
N1402 S1400 1.610 . S
N1402 C1403 1.351 . S
C1403 C1397 1.428 . S
C1403 N1402 1.351 . S
C1403 C1404 1.434 . S
C1404 C1395 1.429 . S
C1404 N1401 1.350 . S
C1404 C1403 1.434 . S
C1405 C1406 1.369 . S
C1405 C1407 1.419 . S
C1405 H1409 0.930 . S
C1406 C1405 1.369 . S
C1406 C1415 1.429 . S
C1407 C1405 1.419 . S
C1407 C1408 1.363 . S
C1407 H1410 0.929 . S
C1408 C1407 1.363 . S
C1408 C1414 1.428 . S
H1409 C1405 0.930 . S
H1410 C1407 0.929 . S
S1411 N1412 1.613 . S
S1411 N1413 1.610 . S
N1412 S1411 1.613 . S
N1412 C1415 1.350 . S
N1413 S1411 1.610 . S
N1413 C1414 1.351 . S
C1414 C1408 1.428 . S
C1414 N1413 1.351 . S
C1414 C1415 1.434 . S
C1415 C1406 1.429 . S
C1415 N1412 1.350 . S
C1415 C1414 1.434 . S
C1416 C1417 1.369 . S
C1416 C1418 1.419 . S
C1416 H1420 0.930 . S
C1417 C1416 1.369 . S
C1417 C1426 1.429 . S
C1418 C1416 1.419 . S
C1418 C1419 1.363 . S
C1418 H1421 0.929 . S
C1419 C1418 1.363 . S
C1419 C1425 1.428 . S
H1420 C1416 0.930 . S
H1421 C1418 0.929 . S
S1422 N1423 1.613 . S
S1422 N1424 1.610 . S
N1423 S1422 1.613 . S
N1423 C1426 1.350 . S
N1424 S1422 1.610 . S
N1424 C1425 1.351 . S
C1425 C1419 1.428 . S
C1425 N1424 1.351 . S
C1425 C1426 1.434 . S
C1426 C1417 1.429 . S
C1426 N1423 1.350 . S
C1426 C1425 1.434 . S
C1427 C1428 1.369 . S
C1427 C1429 1.419 . S
C1427 H1431 0.930 . S
C1428 C1427 1.369 . S
C1428 C1437 1.429 . S
C1429 C1427 1.419 . S
C1429 C1430 1.363 . S
C1429 H1432 0.929 . S
C1430 C1429 1.363 . S
C1430 C1436 1.428 . S
H1431 C1427 0.930 . S
H1432 C1429 0.929 . S
S1433 N1434 1.613 . S
S1433 N1435 1.610 . S
N1434 S1433 1.613 . S
N1434 C1437 1.350 . S
N1435 S1433 1.610 . S
N1435 C1436 1.351 . S
C1436 C1430 1.428 . S
C1436 N1435 1.351 . S
C1436 C1437 1.434 . S
C1437 C1428 1.429 . S
C1437 N1434 1.350 . S
C1437 C1436 1.434 . S
C1438 C1439 1.369 . S
C1438 C1440 1.419 . S
C1438 H1442 0.930 . S
C1439 C1438 1.369 . S
C1439 C1448 1.429 . S
C1440 C1438 1.419 . S
C1440 C1441 1.363 . S
C1440 H1443 0.929 . S
C1441 C1440 1.363 . S
C1441 C1447 1.428 . S
H1442 C1438 0.930 . S
H1443 C1440 0.929 . S
S1444 N1445 1.613 . S
S1444 N1446 1.610 . S
N1445 S1444 1.613 . S
N1445 C1448 1.350 . S
N1446 S1444 1.610 . S
N1446 C1447 1.351 . S
C1447 C1441 1.428 . S
C1447 N1446 1.351 . S
C1447 C1448 1.434 . S
C1448 C1439 1.429 . S
C1448 N1445 1.350 . S
C1448 C1447 1.434 . S
C1449 C1450 1.369 . S
C1449 C1451 1.419 . S
C1449 H1453 0.930 . S
C1450 C1449 1.369 . S
C1450 C1459 1.429 . S
C1451 C1449 1.419 . S
C1451 C1452 1.363 . S
C1451 H1454 0.929 . S
C1452 C1451 1.363 . S
C1452 C1458 1.428 . S
H1453 C1449 0.930 . S
H1454 C1451 0.929 . S
S1455 N1456 1.613 . S
S1455 N1457 1.610 . S
N1456 S1455 1.613 . S
N1456 C1459 1.350 . S
N1457 S1455 1.610 . S
N1457 C1458 1.351 . S
C1458 C1452 1.428 . S
C1458 N1457 1.351 . S
C1458 C1459 1.434 . S
C1459 C1450 1.429 . S
C1459 N1456 1.350 . S
C1459 C1458 1.434 . S
C1460 C1461 1.369 . S
C1460 C1462 1.419 . S
C1460 H1464 0.930 . S
C1461 C1460 1.369 . S
C1461 C1470 1.429 . S
C1462 C1460 1.419 . S
C1462 C1463 1.363 . S
C1462 H1465 0.929 . S
C1463 C1462 1.363 . S
C1463 C1469 1.428 . S
H1464 C1460 0.930 . S
H1465 C1462 0.929 . S
S1466 N1467 1.613 . S
S1466 N1468 1.610 . S
N1467 S1466 1.613 . S
N1467 C1470 1.350 . S
N1468 S1466 1.610 . S
N1468 C1469 1.351 . S
C1469 C1463 1.428 . S
C1469 N1468 1.351 . S
C1469 C1470 1.434 . S
C1470 C1461 1.429 . S
C1470 N1467 1.350 . S
C1470 C1469 1.434 . S
C1471 C1472 1.369 . S
C1471 C1473 1.419 . S
C1471 H1475 0.930 . S
C1472 C1471 1.369 . S
C1472 C1481 1.429 . S
C1473 C1471 1.419 . S
C1473 C1474 1.363 . S
C1473 H1476 0.929 . S
C1474 C1473 1.363 . S
C1474 C1480 1.428 . S
H1475 C1471 0.930 . S
H1476 C1473 0.929 . S
S1477 N1478 1.613 . S
S1477 N1479 1.610 . S
N1478 S1477 1.613 . S
N1478 C1481 1.350 . S
N1479 S1477 1.610 . S
N1479 C1480 1.351 . S
C1480 C1474 1.428 . S
C1480 N1479 1.351 . S
C1480 C1481 1.434 . S
C1481 C1472 1.429 . S
C1481 N1478 1.350 . S
C1481 C1480 1.434 . S
C1482 C1483 1.369 . S
C1482 C1484 1.419 . S
C1482 H1486 0.930 . S
C1483 C1482 1.369 . S
C1483 C1492 1.429 . S
C1484 C1482 1.419 . S
C1484 C1485 1.363 . S
C1484 H1487 0.929 . S
C1485 C1484 1.363 . S
C1485 C1491 1.428 . S
H1486 C1482 0.930 . S
H1487 C1484 0.929 . S
S1488 N1489 1.613 . S
S1488 N1490 1.610 . S
N1489 S1488 1.613 . S
N1489 C1492 1.350 . S
N1490 S1488 1.610 . S
N1490 C1491 1.351 . S
C1491 C1485 1.428 . S
C1491 N1490 1.351 . S
C1491 C1492 1.434 . S
C1492 C1483 1.429 . S
C1492 N1489 1.350 . S
C1492 C1491 1.434 . S
C1493 C1494 1.369 . S
C1493 C1495 1.419 . S
C1493 H1497 0.930 . S
C1494 C1493 1.369 . S
C1494 C1503 1.429 . S
C1495 C1493 1.419 . S
C1495 C1496 1.363 . S
C1495 H1498 0.929 . S
C1496 C1495 1.363 . S
C1496 C1502 1.428 . S
H1497 C1493 0.930 . S
H1498 C1495 0.929 . S
S1499 N1500 1.613 . S
S1499 N1501 1.610 . S
N1500 S1499 1.613 . S
N1500 C1503 1.350 . S
N1501 S1499 1.610 . S
N1501 C1502 1.351 . S
C1502 C1496 1.428 . S
C1502 N1501 1.351 . S
C1502 C1503 1.434 . S
C1503 C1494 1.429 . S
C1503 N1500 1.350 . S
C1503 C1502 1.434 . S
C1504 C1505 1.369 . S
C1504 C1506 1.419 . S
C1504 H1508 0.930 . S
C1505 C1504 1.369 . S
C1505 C1514 1.429 . S
C1506 C1504 1.419 . S
C1506 C1507 1.363 . S
C1506 H1509 0.929 . S
C1507 C1506 1.363 . S
C1507 C1513 1.428 . S
H1508 C1504 0.930 . S
H1509 C1506 0.929 . S
S1510 N1511 1.613 . S
S1510 N1512 1.610 . S
N1511 S1510 1.613 . S
N1511 C1514 1.350 . S
N1512 S1510 1.610 . S
N1512 C1513 1.351 . S
C1513 C1507 1.428 . S
C1513 N1512 1.351 . S
C1513 C1514 1.434 . S
C1514 C1505 1.429 . S
C1514 N1511 1.350 . S
C1514 C1513 1.434 . S
C1515 C1516 1.369 . S
C1515 C1517 1.419 . S
C1515 H1519 0.930 . S
C1516 C1515 1.369 . S
C1516 C1525 1.429 . S
C1517 C1515 1.419 . S
C1517 C1518 1.363 . S
C1517 H1520 0.929 . S
C1518 C1517 1.363 . S
C1518 C1524 1.428 . S
H1519 C1515 0.930 . S
H1520 C1517 0.929 . S
S1521 N1522 1.613 . S
S1521 N1523 1.610 . S
N1522 S1521 1.613 . S
N1522 C1525 1.350 . S
N1523 S1521 1.610 . S
N1523 C1524 1.351 . S
C1524 C1518 1.428 . S
C1524 N1523 1.351 . S
C1524 C1525 1.434 . S
C1525 C1516 1.429 . S
C1525 N1522 1.350 . S
C1525 C1524 1.434 . S
C1526 C1527 1.369 . S
C1526 C1528 1.419 . S
C1526 H1530 0.930 . S
C1527 C1526 1.369 . S
C1527 C1536 1.429 . S
C1528 C1526 1.419 . S
C1528 C1529 1.363 . S
C1528 H1531 0.929 . S
C1529 C1528 1.363 . S
C1529 C1535 1.428 . S
H1530 C1526 0.930 . S
H1531 C1528 0.929 . S
S1532 N1533 1.613 . S
S1532 N1534 1.610 . S
N1533 S1532 1.613 . S
N1533 C1536 1.350 . S
N1534 S1532 1.610 . S
N1534 C1535 1.351 . S
C1535 C1529 1.428 . S
C1535 N1534 1.351 . S
C1535 C1536 1.434 . S
C1536 C1527 1.429 . S
C1536 N1533 1.350 . S
C1536 C1535 1.434 . S
C1537 C1538 1.369 . S
C1537 C1539 1.419 . S
C1537 H1541 0.930 . S
C1538 C1537 1.369 . S
C1538 C1547 1.429 . S
C1539 C1537 1.419 . S
C1539 C1540 1.363 . S
C1539 H1542 0.929 . S
C1540 C1539 1.363 . S
C1540 C1546 1.428 . S
H1541 C1537 0.930 . S
H1542 C1539 0.929 . S
S1543 N1544 1.613 . S
S1543 N1545 1.610 . S
N1544 S1543 1.613 . S
N1544 C1547 1.350 . S
N1545 S1543 1.610 . S
N1545 C1546 1.351 . S
C1546 C1540 1.428 . S
C1546 N1545 1.351 . S
C1546 C1547 1.434 . S
C1547 C1538 1.429 . S
C1547 N1544 1.350 . S
C1547 C1546 1.434 . S
C1548 C1549 1.369 . S
C1548 C1550 1.419 . S
C1548 H1552 0.930 . S
C1549 C1548 1.369 . S
C1549 C1558 1.429 . S
C1550 C1548 1.419 . S
C1550 C1551 1.363 . S
C1550 H1553 0.929 . S
C1551 C1550 1.363 . S
C1551 C1557 1.428 . S
H1552 C1548 0.930 . S
H1553 C1550 0.929 . S
S1554 N1555 1.613 . S
S1554 N1556 1.610 . S
N1555 S1554 1.613 . S
N1555 C1558 1.350 . S
N1556 S1554 1.610 . S
N1556 C1557 1.351 . S
C1557 C1551 1.428 . S
C1557 N1556 1.351 . S
C1557 C1558 1.434 . S
C1558 C1549 1.429 . S
C1558 N1555 1.350 . S
C1558 C1557 1.434 . S
C1559 C1560 1.369 . S
C1559 C1561 1.419 . S
C1559 H1563 0.930 . S
C1560 C1559 1.369 . S
C1560 C1569 1.429 . S
C1561 C1559 1.419 . S
C1561 C1562 1.363 . S
C1561 H1564 0.929 . S
C1562 C1561 1.363 . S
C1562 C1568 1.428 . S
H1563 C1559 0.930 . S
H1564 C1561 0.929 . S
S1565 N1566 1.613 . S
S1565 N1567 1.610 . S
N1566 S1565 1.613 . S
N1566 C1569 1.350 . S
N1567 S1565 1.610 . S
N1567 C1568 1.351 . S
C1568 C1562 1.428 . S
C1568 N1567 1.351 . S
C1568 C1569 1.434 . S
C1569 C1560 1.429 . S
C1569 N1566 1.350 . S
C1569 C1568 1.434 . S
C1570 C1571 1.369 . S
C1570 C1572 1.419 . S
C1570 H1574 0.930 . S
C1571 C1570 1.369 . S
C1571 C1580 1.429 . S
C1572 C1570 1.419 . S
C1572 C1573 1.363 . S
C1572 H1575 0.929 . S
C1573 C1572 1.363 . S
C1573 C1579 1.428 . S
H1574 C1570 0.930 . S
H1575 C1572 0.929 . S
S1576 N1577 1.613 . S
S1576 N1578 1.610 . S
N1577 S1576 1.613 . S
N1577 C1580 1.350 . S
N1578 S1576 1.610 . S
N1578 C1579 1.351 . S
C1579 C1573 1.428 . S
C1579 N1578 1.351 . S
C1579 C1580 1.434 . S
C1580 C1571 1.429 . S
C1580 N1577 1.350 . S
C1580 C1579 1.434 . S
C1581 C1582 1.369 . S
C1581 C1583 1.419 . S
C1581 H1585 0.930 . S
C1582 C1581 1.369 . S
C1582 C1591 1.429 . S
C1583 C1581 1.419 . S
C1583 C1584 1.363 . S
C1583 H1586 0.929 . S
C1584 C1583 1.363 . S
C1584 C1590 1.428 . S
H1585 C1581 0.930 . S
H1586 C1583 0.929 . S
S1587 N1588 1.613 . S
S1587 N1589 1.610 . S
N1588 S1587 1.613 . S
N1588 C1591 1.350 . S
N1589 S1587 1.610 . S
N1589 C1590 1.351 . S
C1590 C1584 1.428 . S
C1590 N1589 1.351 . S
C1590 C1591 1.434 . S
C1591 C1582 1.429 . S
C1591 N1588 1.350 . S
C1591 C1590 1.434 . S
C1592 C1593 1.369 . S
C1592 C1594 1.419 . S
C1592 H1596 0.930 . S
C1593 C1592 1.369 . S
C1593 C1602 1.429 . S
C1594 C1592 1.419 . S
C1594 C1595 1.363 . S
C1594 H1597 0.929 . S
C1595 C1594 1.363 . S
C1595 C1601 1.428 . S
H1596 C1592 0.930 . S
H1597 C1594 0.929 . S
S1598 N1599 1.613 . S
S1598 N1600 1.610 . S
N1599 S1598 1.613 . S
N1599 C1602 1.350 . S
N1600 S1598 1.610 . S
N1600 C1601 1.351 . S
C1601 C1595 1.428 . S
C1601 N1600 1.351 . S
C1601 C1602 1.434 . S
C1602 C1593 1.429 . S
C1602 N1599 1.350 . S
C1602 C1601 1.434 . S
C1603 C1604 1.369 . S
C1603 C1605 1.419 . S
C1603 H1607 0.930 . S
C1604 C1603 1.369 . S
C1604 C1613 1.429 . S
C1605 C1603 1.419 . S
C1605 C1606 1.363 . S
C1605 H1608 0.929 . S
C1606 C1605 1.363 . S
C1606 C1612 1.428 . S
H1607 C1603 0.930 . S
H1608 C1605 0.929 . S
S1609 N1610 1.613 . S
S1609 N1611 1.610 . S
N1610 S1609 1.613 . S
N1610 C1613 1.350 . S
N1611 S1609 1.610 . S
N1611 C1612 1.351 . S
C1612 C1606 1.428 . S
C1612 N1611 1.351 . S
C1612 C1613 1.434 . S
C1613 C1604 1.429 . S
C1613 N1610 1.350 . S
C1613 C1612 1.434 . S
C1614 C1615 1.369 . S
C1614 C1616 1.419 . S
C1614 H1618 0.930 . S
C1615 C1614 1.369 . S
C1615 C1624 1.429 . S
C1616 C1614 1.419 . S
C1616 C1617 1.363 . S
C1616 H1619 0.929 . S
C1617 C1616 1.363 . S
C1617 C1623 1.428 . S
H1618 C1614 0.930 . S
H1619 C1616 0.929 . S
S1620 N1621 1.613 . S
S1620 N1622 1.610 . S
N1621 S1620 1.613 . S
N1621 C1624 1.350 . S
N1622 S1620 1.610 . S
N1622 C1623 1.351 . S
C1623 C1617 1.428 . S
C1623 N1622 1.351 . S
C1623 C1624 1.434 . S
C1624 C1615 1.429 . S
C1624 N1621 1.350 . S
C1624 C1623 1.434 . S
C1625 C1626 1.369 . S
C1625 C1627 1.419 . S
C1625 H1629 0.930 . S
C1626 C1625 1.369 . S
C1626 C1635 1.429 . S
C1627 C1625 1.419 . S
C1627 C1628 1.363 . S
C1627 H1630 0.929 . S
C1628 C1627 1.363 . S
C1628 C1634 1.428 . S
H1629 C1625 0.930 . S
H1630 C1627 0.929 . S
S1631 N1632 1.613 . S
S1631 N1633 1.610 . S
N1632 S1631 1.613 . S
N1632 C1635 1.350 . S
N1633 S1631 1.610 . S
N1633 C1634 1.351 . S
C1634 C1628 1.428 . S
C1634 N1633 1.351 . S
C1634 C1635 1.434 . S
C1635 C1626 1.429 . S
C1635 N1632 1.350 . S
C1635 C1634 1.434 . S
C1636 C1637 1.369 . S
C1636 C1638 1.419 . S
C1636 H1640 0.930 . S
C1637 C1636 1.369 . S
C1637 C1646 1.429 . S
C1638 C1636 1.419 . S
C1638 C1639 1.363 . S
C1638 H1641 0.929 . S
C1639 C1638 1.363 . S
C1639 C1645 1.428 . S
H1640 C1636 0.930 . S
H1641 C1638 0.929 . S
S1642 N1643 1.613 . S
S1642 N1644 1.610 . S
N1643 S1642 1.613 . S
N1643 C1646 1.350 . S
N1644 S1642 1.610 . S
N1644 C1645 1.351 . S
C1645 C1639 1.428 . S
C1645 N1644 1.351 . S
C1645 C1646 1.434 . S
C1646 C1637 1.429 . S
C1646 N1643 1.350 . S
C1646 C1645 1.434 . S
C1647 C1648 1.369 . S
C1647 C1649 1.419 . S
C1647 H1651 0.930 . S
C1648 C1647 1.369 . S
C1648 C1657 1.429 . S
C1649 C1647 1.419 . S
C1649 C1650 1.363 . S
C1649 H1652 0.929 . S
C1650 C1649 1.363 . S
C1650 C1656 1.428 . S
H1651 C1647 0.930 . S
H1652 C1649 0.929 . S
S1653 N1654 1.613 . S
S1653 N1655 1.610 . S
N1654 S1653 1.613 . S
N1654 C1657 1.350 . S
N1655 S1653 1.610 . S
N1655 C1656 1.351 . S
C1656 C1650 1.428 . S
C1656 N1655 1.351 . S
C1656 C1657 1.434 . S
C1657 C1648 1.429 . S
C1657 N1654 1.350 . S
C1657 C1656 1.434 . S
C1658 C1659 1.369 . S
C1658 C1660 1.419 . S
C1658 H1662 0.930 . S
C1659 C1658 1.369 . S
C1659 C1668 1.429 . S
C1660 C1658 1.419 . S
C1660 C1661 1.363 . S
C1660 H1663 0.929 . S
C1661 C1660 1.363 . S
C1661 C1667 1.428 . S
H1662 C1658 0.930 . S
H1663 C1660 0.929 . S
S1664 N1665 1.613 . S
S1664 N1666 1.610 . S
N1665 S1664 1.613 . S
N1665 C1668 1.350 . S
N1666 S1664 1.610 . S
N1666 C1667 1.351 . S
C1667 C1661 1.428 . S
C1667 N1666 1.351 . S
C1667 C1668 1.434 . S
C1668 C1659 1.429 . S
C1668 N1665 1.350 . S
C1668 C1667 1.434 . S
C1669 C1670 1.369 . S
C1669 C1671 1.419 . S
C1669 H1673 0.930 . S
C1670 C1669 1.369 . S
C1670 C1679 1.429 . S
C1671 C1669 1.419 . S
C1671 C1672 1.363 . S
C1671 H1674 0.929 . S
C1672 C1671 1.363 . S
C1672 C1678 1.428 . S
H1673 C1669 0.930 . S
H1674 C1671 0.929 . S
S1675 N1676 1.613 . S
S1675 N1677 1.610 . S
N1676 S1675 1.613 . S
N1676 C1679 1.350 . S
N1677 S1675 1.610 . S
N1677 C1678 1.351 . S
C1678 C1672 1.428 . S
C1678 N1677 1.351 . S
C1678 C1679 1.434 . S
C1679 C1670 1.429 . S
C1679 N1676 1.350 . S
C1679 C1678 1.434 . S
C625 C364 1.185 . S
C627 C0 1.184 . S
C636 C13 1.183 . S
C638 C377 1.182 . S
C647 C390 1.180 . S
C649 C26 1.180 . S
C658 C39 1.179 . S
C660 C403 1.180 . S
C669 C312 1.179 . S
C671 C52 1.180 . S
C680 C65 1.178 . S
C682 C325 1.179 . S
C691 C338 1.179 . S
C693 C78 1.180 . S
C702 C91 1.183 . S
C704 C351 1.182 . S
C713 C494 1.187 . S
C715 C104 1.186 . S
C724 C507 1.181 . S
C726 C117 1.182 . S
C735 C468 1.175 . S
C737 C130 1.176 . S
C746 C143 1.187 . S
C748 C481 1.185 . S
C757 C442 1.187 . S
C759 C156 1.185 . S
C768 C455 1.187 . S
C770 C169 1.186 . S
C779 C182 1.188 . S
C781 C416 1.186 . S
C790 C429 1.181 . S
C792 C195 1.181 . S
C801 C208 1.178 . S
C803 C585 1.179 . S
C812 C559 1.187 . S
C814 C221 1.186 . S
C823 C572 1.175 . S
C825 C234 1.177 . S
C834 C533 1.178 . S
C836 C247 1.178 . S
C845 C546 1.186 . S
C847 C260 1.185 . S
C856 C273 1.187 . S
C858 C520 1.185 . S
C867 C286 1.181 . S
C869 C611 1.181 . S
C878 C598 1.186 . S
C880 C299 1.185 . S
C889 C99 1.436 . S
C891 C8 1.437 . S
C900 C60 1.440 . S
C902 C21 1.438 . S
C911 C73 1.432 . S
C913 C34 1.434 . S
C922 C86 1.436 . S
C924 C47 1.434 . S
C933 C268 1.430 . S
C935 C112 1.432 . S
C944 C229 1.440 . S
C946 C125 1.438 . S
C955 C242 1.432 . S
C957 C138 1.434 . S
C966 C255 1.438 . S
C968 C151 1.435 . S
C977 C307 1.435 . S
C979 C164 1.433 . S
C988 C281 1.440 . S
C990 C177 1.438 . S
C999 C190 1.440 . S
C1001 C294 1.439 . S
C1010 C216 1.431 . S
C1012 C203 1.433 . S
C1021 C411 1.439 . S
C1023 C320 1.439 . S
C1032 C372 1.432 . S
C1034 C333 1.434 . S
C1043 C346 1.438 . S
C1045 C385 1.436 . S
C1054 C359 1.430 . S
C1056 C398 1.432 . S
C1065 C424 1.433 . S
C1067 C580 1.435 . S
C1076 C437 1.434 . S
C1078 C541 1.435 . S
C1087 C554 1.436 . S
C1089 C450 1.434 . S
C1098 C567 1.435 . S
C1100 C463 1.434 . S
C1109 C619 1.438 . S
C1111 C476 1.436 . S
C1120 C593 1.430 . S
C1122 C489 1.432 . S
C1131 C606 1.434 . S
C1133 C502 1.433 . S
C1142 C515 1.433 . S
C1144 C528 1.434 . S
C1153 C10 1.287 . S
C1155 C109 1.079 . S
C1164 C122 1.085 . S
C1166 C23 1.282 . S
C1175 C135 1.080 . S
C1177 C36 1.282 . S
C1186 C148 1.071 . S
C1188 C49 1.284 . S
C1197 C62 1.282 . S
C1199 C161 1.077 . S
C1208 C174 1.073 . S
C1210 C75 1.283 . S
C1219 C88 1.282 . S
C1221 C187 1.087 . S
C1230 C200 1.093 . S
C1232 C101 1.284 . S
C1241 C213 1.080 . S
C1243 C114 1.286 . S
C1252 C304 1.085 . S
C1254 C127 1.286 . S
C1263 C140 1.282 . S
C1265 C278 1.075 . S
C1274 C153 1.283 . S
C1276 C291 1.089 . S
C1285 C166 1.282 . S
C1287 C226 1.086 . S
C1296 C179 1.282 . S
C1298 C239 1.085 . S
C1307 C192 1.287 . S
C1309 C252 1.085 . S
C1318 C205 1.285 . S
C1320 C265 1.074 . S
C1329 C218 1.285 . S
C1331 C5 1.091 . S
C1340 C231 1.285 . S
C1342 C57 1.091 . S
C1351 C244 1.287 . S
C1353 C70 1.086 . S
C1362 C257 1.282 . S
C1364 C83 1.085 . S
C1373 C270 1.284 . S
C1375 C96 1.074 . S
C1384 C283 1.286 . S
C1386 C31 1.089 . S
C1395 C44 1.091 . S
C1397 C296 1.283 . S
C1406 C18 1.073 . S
C1408 C309 1.285 . S
C1417 C421 1.073 . S
C1419 C322 1.285 . S
C1428 C434 1.081 . S
C1430 C335 1.282 . S
C1439 C447 1.080 . S
C1441 C348 1.286 . S
C1450 C460 1.073 . S
C1452 C361 1.282 . S
C1461 C473 1.092 . S
C1463 C374 1.284 . S
C1472 C387 1.281 . S
C1474 C486 1.080 . S
C1483 C499 1.072 . S
C1485 C400 1.285 . S
C1494 C413 1.287 . S
C1496 C512 1.089 . S
C1505 C525 1.076 . S
C1507 C426 1.282 . S
C1516 C439 1.286 . S
C1518 C616 1.090 . S
C1527 C452 1.287 . S
C1529 C590 1.082 . S
C1538 C603 1.073 . S
C1540 C465 1.285 . S
C1549 C538 1.083 . S
C1551 C478 1.282 . S
C1560 C491 1.281 . S
C1562 C551 1.082 . S
C1571 C504 1.286 . S
C1573 C564 1.079 . S
C1582 C577 1.072 . S
C1584 C517 1.285 . S
C1593 C317 1.086 . S
C1595 C530 1.282 . S
C1604 C369 1.084 . S
C1606 C543 1.286 . S
C1615 C382 1.072 . S
C1617 C556 1.283 . S
C1626 C569 1.287 . S
C1628 C395 1.088 . S
C1637 C408 1.079 . S
C1639 C582 1.282 . S
C1648 C343 1.074 . S
C1650 C595 1.285 . S
C1659 C608 1.286 . S
C1661 C356 1.090 . S
C1670 C330 1.072 . S
C1672 C621 1.283 . S
