# Generated by pormake.
# Topology upb, (4)-cn, num edge types: 1
# Building blocks:
#     Node 0, Type 0, BuildingBlock: TATPOV_clean_sbu_0, # of connection points: 4
#     Node 1, Type 0, BuildingBlock: TATPOV_clean_sbu_0, # of connection points: 4
#     Node 2, Type 0, BuildingBlock: TATPOV_clean_sbu_0, # of connection points: 4
#     Node 3, Type 0, BuildingBlock: TATPOV_clean_sbu_0, # of connection points: 4
#     Node 4, Type 0, BuildingBlock: TATPOV_clean_sbu_0, # of connection points: 4
#     Node 5, Type 0, BuildingBlock: TATPOV_clean_sbu_0, # of connection points: 4
#     Node 6, Type 0, BuildingBlock: TATPOV_clean_sbu_0, # of connection points: 4
#     Node 7, Type 0, BuildingBlock: TATPOV_clean_sbu_0, # of connection points: 4
#     Node 8, Type 0, BuildingBlock: TATPOV_clean_sbu_0, # of connection points: 4
#     Node 9, Type 0, BuildingBlock: TATPOV_clean_sbu_0, # of connection points: 4
#     Node 10, Type 0, BuildingBlock: TATPOV_clean_sbu_0, # of connection points: 4
#     Node 11, Type 0, BuildingBlock: TATPOV_clean_sbu_0, # of connection points: 4
#     Node 12, Type 0, BuildingBlock: TATPOV_clean_sbu_0, # of connection points: 4
#     Node 13, Type 0, BuildingBlock: TATPOV_clean_sbu_0, # of connection points: 4
#     Node 14, Type 0, BuildingBlock: TATPOV_clean_sbu_0, # of connection points: 4
#     Node 15, Type 0, BuildingBlock: TATPOV_clean_sbu_0, # of connection points: 4
#     Edge 16, Type (0, 0), BuildingBlock: CIFDUS_clean_linker_0, # of connection points: 2
#     Edge 17, Type (0, 0), BuildingBlock: CIFDUS_clean_linker_0, # of connection points: 2
#     Edge 18, Type (0, 0), BuildingBlock: CIFDUS_clean_linker_0, # of connection points: 2
#     Edge 19, Type (0, 0), BuildingBlock: CIFDUS_clean_linker_0, # of connection points: 2
#     Edge 20, Type (0, 0), BuildingBlock: CIFDUS_clean_linker_0, # of connection points: 2
#     Edge 21, Type (0, 0), BuildingBlock: CIFDUS_clean_linker_0, # of connection points: 2
#     Edge 22, Type (0, 0), BuildingBlock: CIFDUS_clean_linker_0, # of connection points: 2
#     Edge 23, Type (0, 0), BuildingBlock: CIFDUS_clean_linker_0, # of connection points: 2
#     Edge 24, Type (0, 0), BuildingBlock: CIFDUS_clean_linker_0, # of connection points: 2
#     Edge 25, Type (0, 0), BuildingBlock: CIFDUS_clean_linker_0, # of connection points: 2
#     Edge 26, Type (0, 0), BuildingBlock: CIFDUS_clean_linker_0, # of connection points: 2
#     Edge 27, Type (0, 0), BuildingBlock: CIFDUS_clean_linker_0, # of connection points: 2
#     Edge 28, Type (0, 0), BuildingBlock: CIFDUS_clean_linker_0, # of connection points: 2
#     Edge 29, Type (0, 0), BuildingBlock: CIFDUS_clean_linker_0, # of connection points: 2
#     Edge 30, Type (0, 0), BuildingBlock: CIFDUS_clean_linker_0, # of connection points: 2
#     Edge 31, Type (0, 0), BuildingBlock: CIFDUS_clean_linker_0, # of connection points: 2
#     Edge 32, Type (0, 0), BuildingBlock: CIFDUS_clean_linker_0, # of connection points: 2
#     Edge 33, Type (0, 0), BuildingBlock: CIFDUS_clean_linker_0, # of connection points: 2
#     Edge 34, Type (0, 0), BuildingBlock: CIFDUS_clean_linker_0, # of connection points: 2
#     Edge 35, Type (0, 0), BuildingBlock: CIFDUS_clean_linker_0, # of connection points: 2
#     Edge 36, Type (0, 0), BuildingBlock: CIFDUS_clean_linker_0, # of connection points: 2
#     Edge 37, Type (0, 0), BuildingBlock: CIFDUS_clean_linker_0, # of connection points: 2
#     Edge 38, Type (0, 0), BuildingBlock: CIFDUS_clean_linker_0, # of connection points: 2
#     Edge 39, Type (0, 0), BuildingBlock: CIFDUS_clean_linker_0, # of connection points: 2
#     Edge 40, Type (0, 0), BuildingBlock: CIFDUS_clean_linker_0, # of connection points: 2
#     Edge 41, Type (0, 0), BuildingBlock: CIFDUS_clean_linker_0, # of connection points: 2
#     Edge 42, Type (0, 0), BuildingBlock: CIFDUS_clean_linker_0, # of connection points: 2
#     Edge 43, Type (0, 0), BuildingBlock: CIFDUS_clean_linker_0, # of connection points: 2
#     Edge 44, Type (0, 0), BuildingBlock: CIFDUS_clean_linker_0, # of connection points: 2
#     Edge 45, Type (0, 0), BuildingBlock: CIFDUS_clean_linker_0, # of connection points: 2
#     Edge 46, Type (0, 0), BuildingBlock: CIFDUS_clean_linker_0, # of connection points: 2
#     Edge 47, Type (0, 0), BuildingBlock: CIFDUS_clean_linker_0, # of connection points: 2
# Relax obj value: 0.237
# Max RMSD: 0.115
# Mean RMSD: 0.115
data_MOF--net-upb--node1-TATPOV_clean_sbu_0--edge1-CIFDUS_clean_linker_0
_symmetry_space_group_name_H-M    P1
_symmetry_Int_Tables_number       1
_symmetry_cell_setting            triclinic
loop_
_symmetry_equiv_pos_as_xyz
'x, y, z'
_cell_length_a     35.073962
_cell_length_b     35.039392
_cell_length_c     39.287307
_cell_angle_alpha  89.997782
_cell_angle_beta   90.158977
_cell_angle_gamma 90.033367
loop_
_atom_site_label
_atom_site_type_symbol
_atom_site_fract_x
_atom_site_fract_y
_atom_site_fract_z
_atom_type_partial_charge
Zn0 Zn 0.01085 0.18363 0.32458 0.0
Zn1 Zn 0.0225 0.25562 0.33046 0.0
O2 O 0.02127 0.24847 0.38139 0.0
O3 O 0.01047 0.18665 0.37716 0.0
O4 O 0.03585 0.3104 0.32027 0.0
O5 O 0.05909 0.16888 0.30046 0.0
O6 O 0.07117 0.22873 0.31238 0.0
C7 C 0.01522 0.21629 0.39542 0.0
C8 C 0.94631 0.22045 0.30252 0.0
O9 O 0.96645 0.2479 0.3141 0.0
O10 O 0.96086 0.18759 0.29988 0.0
C11 C 0.02497 0.32488 0.29221 0.0
O12 O 0.00171 0.30527 0.27262 0.0
C13 C 0.08234 0.19641 0.30134 0.0
Zn14 Zn 0.73168 0.07659 0.37501 0.0
Zn15 Zn 0.68724 0.07009 0.32577 0.0
O16 O 0.6603 0.05135 0.37089 0.0
O17 O 0.69479 0.07316 0.41325 0.0
O18 O 0.64506 0.0845 0.29287 0.0
O19 O 0.75755 0.12616 0.36487 0.0
O20 O 0.7245 0.11589 0.31842 0.0
C21 C 0.66544 0.05583 0.40288 0.0
C22 C 0.74385 0.01113 0.32604 0.0
O23 O 0.71679 0.02483 0.30818 0.0
O24 O 0.75352 0.02688 0.35395 0.0
C25 C 0.62117 0.10894 0.30373 0.0
O26 O 0.62292 0.11918 0.33588 0.0
C27 C 0.74953 0.13515 0.33459 0.0
Zn28 Zn 0.9837 0.87895 0.35756 0.0
Zn29 Zn 0.97488 0.80892 0.34086 0.0
O30 O 0.97948 0.79967 0.39226 0.0
O31 O 0.9892 0.85977 0.40621 0.0
O32 O 0.96464 0.75771 0.3185 0.0
O33 O 0.93467 0.89872 0.34014 0.0
O34 O 0.92443 0.83821 0.32842 0.0
C35 C 0.98646 0.82496 0.41478 0.0
C36 C 0.04607 0.85712 0.32011 0.0
O37 O 0.02904 0.8251 0.32334 0.0
O38 O 0.03032 0.88732 0.33043 0.0
C39 C 0.93582 0.73834 0.32787 0.0
O40 O 0.91548 0.75072 0.35365 0.0
C41 C 0.91308 0.87281 0.32891 0.0
Zn42 Zn 0.25516 0.0262 0.39512 0.0
Zn43 Zn 0.30213 0.00174 0.3493 0.0
O44 O 0.33188 0.00218 0.39576 0.0
O45 O 0.29443 0.03292 0.43115 0.0
O46 O 0.34142 0.98224 0.31643 0.0
O47 O 0.22604 0.97583 0.3904 0.0
O48 O 0.26174 0.95984 0.34667 0.0
C49 C 0.32586 0.0168 0.42504 0.0
C50 C 0.25515 0.07494 0.33764 0.0
O51 O 0.28 0.05112 0.32719 0.0
O52 O 0.24026 0.07098 0.36668 0.0
C53 C 0.33495 0.98233 0.2846 0.0
O54 O 0.30327 0.99784 0.27324 0.0
C55 C 0.23371 0.95316 0.36621 0.0
Zn56 Zn 0.0059 0.82905 0.68715 0.0
Zn57 Zn 0.02421 0.75995 0.67584 0.0
O58 O 0.02866 0.77402 0.62599 0.0
O59 O 0.01333 0.83417 0.63531 0.0
O60 O 0.04094 0.70502 0.68184 0.0
O61 O 0.04778 0.84402 0.71902 0.0
O62 O 0.06754 0.78743 0.70329 0.0
C63 C 0.02212 0.80752 0.61481 0.0
C64 C 0.94159 0.78623 0.69611 0.0
O65 O 0.96548 0.76172 0.68508 0.0
O66 O 0.95305 0.81925 0.70407 0.0
C67 C 0.02446 0.68292 0.70287 0.0
O68 O 0.99322 0.69458 0.718 0.0
C69 C 0.07343 0.81875 0.71904 0.0
Zn70 Zn 0.2577 0.97481 0.64193 0.0
Zn71 Zn 0.30761 0.98693 0.68861 0.0
O72 O 0.33439 0.99479 0.64104 0.0
O73 O 0.29345 0.97313 0.60323 0.0
O74 O 0.3494 0.00226 0.72146 0.0
O75 O 0.22994 0.02357 0.65448 0.0
O76 O 0.2664 0.02649 0.70004 0.0
C77 C 0.32604 0.98614 0.61033 0.0
C78 C 0.26034 0.91382 0.69008 0.0
O79 O 0.28762 0.93309 0.70319 0.0
O80 O 0.24293 0.92602 0.66407 0.0
C81 C 0.38453 0.99722 0.71489 0.0
O82 O 0.39396 0.97703 0.68802 0.0
C83 C 0.23833 0.03886 0.68272 0.0
Zn84 Zn 0.9865 0.11632 0.65533 0.0
Zn85 Zn 0.9787 0.18828 0.66215 0.0
O86 O 0.98449 0.19125 0.6108 0.0
O87 O 0.99038 0.12903 0.60444 0.0
O88 O 0.97018 0.24125 0.68066 0.0
O89 O 0.93709 0.10021 0.67504 0.0
O90 O 0.92657 0.16194 0.67337 0.0
C91 C 0.98908 0.16231 0.59162 0.0
C92 C 0.04899 0.14266 0.68986 0.0
O93 O 0.03177 0.17366 0.68256 0.0
O94 O 0.03354 0.11103 0.68303 0.0
C95 C 0.94434 0.2634 0.66949 0.0
O96 O 0.92426 0.25292 0.64279 0.0
C97 C 0.91462 0.12802 0.67852 0.0
Zn98 Zn 0.73854 0.93296 0.60068 0.0
Zn99 Zn 0.68755 0.9343 0.64704 0.0
O100 O 0.66168 0.951 0.60105 0.0
O101 O 0.70288 0.93675 0.56105 0.0
O102 O 0.64435 0.92064 0.6785 0.0
O103 O 0.76342 0.88305 0.61287 0.0
O104 O 0.72302 0.88755 0.65511 0.0
C105 C 0.67041 0.94898 0.56955 0.0
C106 C 0.74391 0.99535 0.65257 0.0
O107 O 0.7157 0.97947 0.66714 0.0
O108 O 0.75696 0.98206 0.62485 0.0
C109 C 0.62473 0.8917 0.66973 0.0
O110 O 0.63119 0.87619 0.63984 0.0
C111 C 0.75085 0.87057 0.64084 0.0
Zn112 Zn 0.57274 0.66416 0.90783 0.0
Zn113 Zn 0.54808 0.70621 0.85878 0.0
O114 O 0.54348 0.7391 0.90281 0.0
O115 O 0.57252 0.70547 0.94233 0.0
O116 O 0.53961 0.74502 0.82169 0.0
O117 O 0.62178 0.65014 0.88659 0.0
O118 O 0.59958 0.68195 0.84255 0.0
C119 C 0.55548 0.73554 0.93331 0.0
C120 C 0.49995 0.63909 0.87733 0.0
O121 O 0.50406 0.66761 0.85749 0.0
O122 O 0.52494 0.63215 0.89993 0.0
C123 C 0.53621 0.73509 0.79073 0.0
O124 O 0.534 0.69857 0.78336 0.0
C125 C 0.62553 0.66164 0.85637 0.0
Zn126 Zn 0.25905 0.45836 0.86938 0.0
Zn127 Zn 0.2284 0.50038 0.82278 0.0
O128 O 0.19147 0.5007 0.86475 0.0
O129 O 0.21597 0.46089 0.90202 0.0
O130 O 0.19916 0.53064 0.7873 0.0
O131 O 0.30244 0.49742 0.87117 0.0
O132 O 0.27537 0.53334 0.83206 0.0
C133 C 0.18982 0.48376 0.8935 0.0
C134 C 0.25987 0.41867 0.80819 0.0
O135 O 0.24658 0.45067 0.798 0.0
O136 O 0.26473 0.4129 0.83965 0.0
C137 C 0.16312 0.52805 0.78424 0.0
O138 O 0.14457 0.50358 0.80339 0.0
C139 C 0.30287 0.52701 0.85252 0.0
Zn140 Zn 0.51051 0.31874 0.80004 0.0
Zn141 Zn 0.49869 0.24966 0.81775 0.0
O142 O 0.50429 0.26788 0.8666 0.0
O143 O 0.51869 0.32669 0.85153 0.0
O144 O 0.48446 0.19378 0.81924 0.0
O145 O 0.46024 0.33039 0.77836 0.0
O146 O 0.44904 0.27219 0.79614 0.0
C147 C 0.51441 0.30162 0.87462 0.0
C148 C 0.57195 0.27711 0.7794 0.0
O149 O 0.55349 0.25301 0.79733 0.0
O150 O 0.55634 0.30834 0.77139 0.0
C151 C 0.49586 0.17023 0.79684 0.0
O152 O 0.52113 0.18149 0.77436 0.0
C153 C 0.43739 0.30283 0.78194 0.0
Zn154 Zn 0.74817 0.43561 0.87795 0.0
Zn155 Zn 0.80397 0.43336 0.83984 0.0
O156 O 0.82985 0.44417 0.88722 0.0
O157 O 0.77811 0.46009 0.91539 0.0
O158 O 0.84632 0.42189 0.80672 0.0
O159 O 0.73655 0.37958 0.87866 0.0
O160 O 0.77155 0.38383 0.83276 0.0
C161 C 0.81401 0.45787 0.91377 0.0
C162 C 0.74154 0.4888 0.82389 0.0
O163 O 0.77699 0.48154 0.82117 0.0
O164 O 0.72115 0.46949 0.84408 0.0
C165 C 0.87437 0.40129 0.81581 0.0
O166 O 0.87795 0.39202 0.84807 0.0
C167 C 0.74829 0.36506 0.85121 0.0
Zn168 Zn 0.53749 0.39067 0.12373 0.0
Zn169 Zn 0.52379 0.32653 0.15042 0.0
O170 O 0.53122 0.31306 0.09925 0.0
O171 O 0.55216 0.36762 0.07903 0.0
O172 O 0.52128 0.27525 0.17414 0.0
O173 O 0.57564 0.40842 0.1576 0.0
O174 O 0.57113 0.34948 0.17624 0.0
C175 C 0.5433 0.333 0.07429 0.0
C176 C 0.45992 0.3852 0.14444 0.0
O177 O 0.4707 0.35335 0.15714 0.0
O178 O 0.48357 0.40593 0.12875 0.0
C179 C 0.51354 0.27466 0.20574 0.0
O180 O 0.50289 0.30657 0.22049 0.0
C181 C 0.58667 0.38239 0.17751 0.0
Zn182 Zn 0.76027 0.4963 0.13521 0.0
Zn183 Zn 0.79771 0.53737 0.16972 0.0
O184 O 0.82562 0.53422 0.12168 0.0
O185 O 0.77759 0.51396 0.09044 0.0
O186 O 0.83238 0.5682 0.20084 0.0
O187 O 0.71293 0.51873 0.15641 0.0
O188 O 0.74743 0.56862 0.1701 0.0
C189 C 0.81111 0.52675 0.09249 0.0
C190 C 0.78149 0.45292 0.18524 0.0
O191 O 0.78509 0.48702 0.19619 0.0
O192 O 0.78276 0.44767 0.15351 0.0
C193 C 0.82065 0.57402 0.23102 0.0
O194 O 0.78825 0.55846 0.24045 0.0
C195 C 0.71491 0.55252 0.16773 0.0
Zn196 Zn 0.45677 0.67892 0.15432 0.0
Zn197 Zn 0.47198 0.74359 0.18141 0.0
O198 O 0.47552 0.7571 0.13073 0.0
O199 O 0.45006 0.70535 0.10858 0.0
O200 O 0.47418 0.79462 0.20515 0.0
O201 O 0.41181 0.66614 0.18284 0.0
O202 O 0.41747 0.72639 0.19723 0.0
C203 C 0.46306 0.73886 0.10502 0.0
C204 C 0.53015 0.6791 0.18647 0.0
O205 O 0.52051 0.71273 0.19564 0.0
O206 O 0.50785 0.65935 0.16823 0.0
C207 C 0.45102 0.81911 0.19307 0.0
O208 O 0.43157 0.81031 0.16553 0.0
C209 C 0.39875 0.69517 0.1978 0.0
Zn210 Zn 0.21487 0.56642 0.11185 0.0
Zn211 Zn 0.18807 0.51769 0.15096 0.0
O212 O 0.1603 0.5156 0.10334 0.0
O213 O 0.17746 0.56582 0.07394 0.0
O214 O 0.15408 0.48707 0.18219 0.0
O215 O 0.26065 0.52934 0.11051 0.0
O216 O 0.23675 0.48713 0.14604 0.0
C217 C 0.15784 0.53575 0.07629 0.0
C218 C 0.21455 0.60005 0.17333 0.0
O219 O 0.20401 0.5658 0.17935 0.0
O220 O 0.21725 0.61109 0.14285 0.0
C221 C 0.11809 0.48706 0.17806 0.0
O222 O 0.1031 0.50799 0.15373 0.0
C223 C 0.26382 0.49822 0.12697 0.0
H224 H 0.11684 0.14029 0.26437 0.0
H225 H 0.14055 0.23408 0.33238 0.0
H226 H 0.20353 0.20807 0.34439 0.0
H227 H 0.24381 0.15052 0.34666 0.0
H228 H 0.2215 0.05758 0.27774 0.0
H229 H 0.1667 0.09178 0.25422 0.0
C230 C 0.13638 0.15575 0.2808 0.0
C231 C 0.12363 0.18844 0.29819 0.0
C232 C 0.17267 0.14052 0.28776 0.0
C233 C 0.14944 0.20862 0.31893 0.0
C234 C 0.18545 0.19358 0.32607 0.0
C235 C 0.22809 0.13875 0.32526 0.0
C236 C 0.23626 0.10159 0.3141 0.0
C237 C 0.19632 0.15836 0.31226 0.0
C238 C 0.21579 0.08634 0.28652 0.0
C239 C 0.18406 0.10564 0.27346 0.0
H240 H 0.89629 0.18401 0.26055 0.0
H241 H 0.90226 0.26179 0.34542 0.0
H242 H 0.83652 0.24684 0.36046 0.0
H243 H 0.78372 0.20022 0.35719 0.0
H244 H 0.77638 0.1248 0.27073 0.0
H245 H 0.83571 0.15081 0.24819 0.0
C246 C 0.88259 0.19889 0.28142 0.0
C247 C 0.90427 0.22337 0.3022 0.0
C248 C 0.84473 0.19001 0.29006 0.0
C249 C 0.8862 0.24276 0.32902 0.0
C250 C 0.84869 0.23384 0.33794 0.0
C251 C 0.79438 0.19064 0.33275 0.0
C252 C 0.77615 0.16023 0.31596 0.0
C253 C 0.82856 0.20579 0.31985 0.0
C254 C 0.78994 0.1482 0.28416 0.0
C255 C 0.82413 0.16278 0.2714 0.0
H256 H 0.75348 0.94077 0.3529 0.0
H257 H 0.78978 0.01417 0.27125 0.0
H258 H 0.84421 0.97235 0.26007 0.0
H259 H 0.88771 0.92261 0.28175 0.0
H260 H 0.85048 0.84777 0.36197 0.0
H261 H 0.78952 0.88161 0.36506 0.0
C262 C 0.77256 0.94662 0.33183 0.0
C263 C 0.76803 0.98032 0.31293 0.0
C264 C 0.80369 0.9224 0.3256 0.0
C265 C 0.79278 0.98808 0.28584 0.0
C266 C 0.82404 0.9644 0.27969 0.0
C267 C 0.86549 0.91278 0.2988 0.0
C268 C 0.87328 0.883 0.32167 0.0
C269 C 0.83073 0.93253 0.3005 0.0
C270 C 0.84471 0.87045 0.34393 0.0
C271 C 0.81011 0.89012 0.34599 0.0
H272 H 0.09772 0.83907 0.36653 0.0
H273 H 0.08527 0.88452 0.2654 0.0
H274 H 0.14916 0.91276 0.26889 0.0
H275 H 0.20126 0.93632 0.30569 0.0
H276 H 0.20611 0.90083 0.4106 0.0
H277 H 0.15293 0.85681 0.40111 0.0
C278 C 0.10994 0.85357 0.34469 0.0
C279 C 0.08748 0.8591 0.31548 0.0
C280 C 0.14494 0.87255 0.34822 0.0
C281 C 0.10262 0.87919 0.28775 0.0
C282 C 0.13881 0.89589 0.29007 0.0
C283 C 0.19127 0.91802 0.32608 0.0
C284 C 0.20734 0.92154 0.35876 0.0
C285 C 0.1592 0.8946 0.3209 0.0
C286 C 0.19394 0.89845 0.38531 0.0
C287 C 0.16356 0.87341 0.37987 0.0
H288 H 0.14104 0.78969 0.69752 0.0
H289 H 0.09278 0.87238 0.76635 0.0
H290 H 0.1547 0.90358 0.77198 0.0
H291 H 0.21651 0.91697 0.74544 0.0
H292 H 0.26124 0.83965 0.67051 0.0
H293 H 0.20792 0.79598 0.68 0.0
C294 C 0.14442 0.81364 0.71477 0.0
C295 C 0.1122 0.82914 0.73099 0.0
C296 C 0.17972 0.83265 0.71649 0.0
C297 C 0.11703 0.86024 0.7532 0.0
C298 C 0.15244 0.87821 0.75631 0.0
C299 C 0.21562 0.88948 0.73273 0.0
C300 C 0.24279 0.88124 0.70759 0.0
C301 C 0.1833 0.86611 0.73642 0.0
C302 C 0.24091 0.84617 0.6904 0.0
C303 C 0.20999 0.82159 0.69537 0.0
H304 H 0.21541 0.10747 0.65828 0.0
H305 H 0.19866 0.02779 0.74038 0.0
H306 H 0.13922 0.05968 0.75596 0.0
H307 H 0.08594 0.10047 0.73719 0.0
H308 H 0.10371 0.182 0.65672 0.0
H309 H 0.16948 0.16033 0.65028 0.0
C310 C 0.1994 0.09819 0.68038 0.0
C311 C 0.2108 0.06527 0.69799 0.0
C312 C 0.16541 0.11683 0.68928 0.0
C313 C 0.19021 0.05324 0.72661 0.0
C314 C 0.15612 0.07126 0.73533 0.0
C315 C 0.10488 0.11471 0.71947 0.0
C316 C 0.09011 0.14234 0.69718 0.0
C317 C 0.14249 0.10177 0.71566 0.0
C318 C 0.11465 0.16075 0.67425 0.0
C319 C 0.15208 0.14793 0.67018 0.0
H320 H 0.87949 0.07817 0.72062 0.0
H321 H 0.85887 0.15714 0.63858 0.0
H322 H 0.79844 0.12543 0.62564 0.0
H323 H 0.75976 0.06655 0.62989 0.0
H324 H 0.77883 0.98932 0.71349 0.0
H325 H 0.83128 0.02925 0.73412 0.0
C326 C 0.86087 0.08939 0.70092 0.0
C327 C 0.87359 0.11953 0.68031 0.0
C328 C 0.82634 0.07084 0.69352 0.0
C329 C 0.84945 0.13404 0.65485 0.0
C330 C 0.81515 0.11557 0.64714 0.0
C331 C 0.77454 0.05942 0.65333 0.0
C332 C 0.76598 0.0251 0.67009 0.0
C333 C 0.80448 0.08264 0.66509 0.0
C334 C 0.78504 0.01582 0.7004 0.0
C335 C 0.8152 0.03845 0.712 0.0
H336 H 0.79258 0.81052 0.61716 0.0
H337 H 0.76381 0.87152 0.70886 0.0
H338 H 0.81843 0.84347 0.73811 0.0
H339 H 0.88195 0.8138 0.73285 0.0
H340 H 0.90926 0.75022 0.64223 0.0
H341 H 0.84723 0.76593 0.61781 0.0
C342 C 0.79749 0.81647 0.64391 0.0
C343 C 0.77467 0.8436 0.6606 0.0
C344 C 0.82899 0.8001 0.6607 0.0
C345 C 0.78101 0.8508 0.69538 0.0
C346 C 0.81251 0.83503 0.71208 0.0
C347 C 0.87357 0.80195 0.70844 0.0
C348 C 0.90039 0.78147 0.68916 0.0
C349 C 0.83786 0.81136 0.69438 0.0
C350 C 0.88916 0.76605 0.65763 0.0
C351 C 0.85382 0.77551 0.64339 0.0
H352 H 0.61911 0.6109 0.80583 0.0
H353 H 0.70121 0.67317 0.86554 0.0
H354 H 0.75075 0.62702 0.85073 0.0
H355 H 0.76474 0.56079 0.83466 0.0
H356 H 0.67871 0.49388 0.78398 0.0
H357 H 0.63708 0.54966 0.78027 0.0
C358 C 0.64837 0.61526 0.81404 0.0
C359 C 0.65683 0.64527 0.83646 0.0
C360 C 0.6758 0.587 0.80755 0.0
C361 C 0.6944 0.65036 0.84791 0.0
C362 C 0.72254 0.62368 0.83981 0.0
C363 C 0.73766 0.55911 0.82131 0.0
C364 C 0.72467 0.52361 0.80948 0.0
C365 C 0.71285 0.59059 0.82162 0.0
C366 C 0.68921 0.52117 0.793 0.0
C367 C 0.66527 0.55295 0.79127 0.0
H368 H 0.43538 0.64909 0.83868 0.0
H369 H 0.48744 0.57301 0.91181 0.0
H370 H 0.4311 0.53269 0.91105 0.0
H371 H 0.36722 0.51867 0.89017 0.0
H372 H 0.31398 0.59361 0.81696 0.0
H373 H 0.37043 0.63468 0.81745 0.0
C374 C 0.43444 0.6236 0.85431 0.0
C375 C 0.46575 0.61422 0.87523 0.0
C376 C 0.40164 0.60036 0.85395 0.0
C377 C 0.46389 0.58111 0.89545 0.0
C378 C 0.4316 0.55794 0.89511 0.0
C379 C 0.36777 0.54405 0.87436 0.0
C380 C 0.33629 0.553 0.85362 0.0
C381 C 0.4003 0.56733 0.87459 0.0
C382 C 0.33774 0.586 0.83325 0.0
C383 C 0.37008 0.60949 0.83345 0.0
H384 H 0.27054 0.34246 0.81489 0.0
H385 H 0.29727 0.43791 0.74999 0.0
H386 H 0.35404 0.40496 0.72956 0.0
H387 H 0.40394 0.35761 0.74269 0.0
H388 H 0.37786 0.26313 0.80916 0.0
H389 H 0.31291 0.28661 0.81586 0.0
C390 C 0.28786 0.35525 0.79508 0.0
C391 C 0.28032 0.39294 0.78466 0.0
C392 C 0.32127 0.33672 0.78447 0.0
C393 C 0.30255 0.40903 0.75863 0.0
C394 C 0.33546 0.39041 0.74734 0.0
C395 C 0.38366 0.34148 0.75774 0.0
C396 C 0.39609 0.30936 0.77627 0.0
C397 C 0.34646 0.35557 0.76203 0.0
C398 C 0.36928 0.28825 0.79502 0.0
C399 C 0.3321 0.30182 0.79907 0.0
H400 H 0.7287 0.35109 0.78569 0.0
H401 H 0.72118 0.30436 0.88693 0.0
H402 H 0.67059 0.26108 0.86845 0.0
H403 H 0.61833 0.25001 0.82844 0.0
H404 H 0.61948 0.3049 0.7303 0.0
H405 H 0.68323 0.33006 0.74179 0.0
C406 C 0.71703 0.33032 0.8033 0.0
C407 C 0.72824 0.33116 0.8377 0.0
C408 C 0.68627 0.30724 0.79298 0.0
C409 C 0.71271 0.30439 0.86039 0.0
C410 C 0.68362 0.27981 0.84985 0.0
C411 C 0.63331 0.26589 0.80889 0.0
C412 C 0.61407 0.276 0.77873 0.0
C413 C 0.66854 0.28281 0.81685 0.0
C414 C 0.6337 0.29688 0.75375 0.0
C415 C 0.66993 0.31176 0.76057 0.0
H416 H 0.7255 0.46997 0.22945 0.0
H417 H 0.78153 0.37499 0.18123 0.0
H418 H 0.72251 0.33804 0.18334 0.0
H419 H 0.65221 0.3418 0.18131 0.0
H420 H 0.59618 0.44199 0.22021 0.0
H421 H 0.65718 0.4678 0.23938 0.0
C422 C 0.7254 0.44044 0.22108 0.0
C423 C 0.75753 0.4256 0.20432 0.0
C424 C 0.69052 0.42085 0.21945 0.0
C425 C 0.75699 0.3872 0.1939 0.0
C426 C 0.72296 0.36635 0.19445 0.0
C427 C 0.65338 0.36839 0.19542 0.0
C428 C 0.62005 0.39018 0.19923 0.0
C429 C 0.68894 0.38416 0.20443 0.0
C430 C 0.62166 0.4249 0.217 0.0
C431 C 0.65657 0.43974 0.22777 0.0
H432 H 0.54717 0.60539 0.1958 0.0
H433 H 0.59885 0.71683 0.19156 0.0
H434 H 0.66236 0.68743 0.18825 0.0
H435 H 0.70204 0.62928 0.17869 0.0
H436 H 0.64735 0.51876 0.18109 0.0
H437 H 0.58643 0.54852 0.1929 0.0
C438 C 0.57241 0.6233 0.19486 0.0
C439 C 0.56839 0.66314 0.19362 0.0
C440 C 0.60833 0.60627 0.19194 0.0
C441 C 0.60127 0.68605 0.19275 0.0
C442 C 0.63752 0.6692 0.19042 0.0
C443 C 0.67682 0.61181 0.18217 0.0
C444 C 0.67921 0.57188 0.17819 0.0
C445 C 0.64128 0.62925 0.1887 0.0
C446 C 0.64632 0.54958 0.18318 0.0
C447 C 0.61137 0.56653 0.19013 0.0
H448 H 0.36493 0.64105 0.23638 0.0
H449 H 0.3428 0.74547 0.18198 0.0
H450 H 0.27519 0.72911 0.17794 0.0
H451 H 0.22867 0.67645 0.175 0.0
H452 H 0.25152 0.57168 0.22891 0.0
H453 H 0.31167 0.59755 0.24957 0.0
C454 C 0.34489 0.66103 0.22515 0.0
C455 C 0.35868 0.69394 0.20887 0.0
C456 C 0.30622 0.65106 0.22242 0.0
C457 C 0.3327 0.71989 0.19459 0.0
C458 C 0.29409 0.7103 0.19193 0.0
C459 C 0.24591 0.66004 0.19269 0.0
C460 C 0.23641 0.62167 0.19924 0.0
C461 C 0.28123 0.67467 0.20355 0.0
C462 C 0.25843 0.60105 0.22288 0.0
C463 C 0.29327 0.61563 0.23432 0.0
H464 H 0.29013 0.44092 0.16888 0.0
H465 H 0.31825 0.50585 0.07882 0.0
H466 H 0.37986 0.47463 0.0758 0.0
H467 H 0.42705 0.4325 0.09991 0.0
H468 H 0.40245 0.36696 0.19012 0.0
H469 H 0.33783 0.39449 0.19171 0.0
C470 C 0.30965 0.44789 0.14845 0.0
C471 C 0.29965 0.47605 0.1243 0.0
C472 C 0.34563 0.42996 0.14699 0.0
C473 C 0.32525 0.48471 0.09796 0.0
C474 C 0.36055 0.46684 0.09616 0.0
C475 C 0.40769 0.42412 0.12007 0.0
C476 C 0.41975 0.39825 0.14524 0.0
C477 C 0.37124 0.44007 0.12083 0.0
C478 C 0.39389 0.38702 0.17058 0.0
C479 C 0.35706 0.40286 0.1715 0.0
H480 H 0.0019 0.36834 0.23884 0.0
H481 H 0.0901 0.35928 0.31522 0.0
H482 H 0.12606 0.41017 0.28747 0.0
H483 H 0.1351 0.45324 0.23862 0.0
H484 H 0.0461 0.46314 0.16305 0.0
H485 H 0.00783 0.41606 0.19343 0.0
C486 C 0.02875 0.37784 0.24967 0.0
C487 C 0.04346 0.35974 0.27882 0.0
C488 C 0.04935 0.40702 0.23354 0.0
C489 C 0.0781 0.37269 0.29278 0.0
C490 C 0.09883 0.40165 0.2768 0.0
C491 C 0.10721 0.44528 0.22896 0.0
C492 C 0.0937 0.4613 0.19839 0.0
C493 C 0.08518 0.41834 0.24669 0.0
C494 C 0.05725 0.45115 0.18646 0.0
C495 C 0.03536 0.42415 0.20377 0.0
H496 H 0.56618 0.16033 0.31963 0.0
H497 H 0.62147 0.10717 0.23388 0.0
H498 H 0.58916 0.15126 0.19516 0.0
H499 H 0.55139 0.20988 0.1865 0.0
H500 H 0.49792 0.26372 0.27292 0.0
H501 H 0.523 0.21421 0.31034 0.0
C502 C 0.57078 0.15796 0.29243 0.0
C503 C 0.59665 0.13076 0.27979 0.0
C504 C 0.55264 0.18381 0.27038 0.0
C505 C 0.60187 0.1279 0.24439 0.0
C506 C 0.58353 0.15327 0.22221 0.0
C507 C 0.54462 0.21041 0.21341 0.0
C508 C 0.52317 0.24085 0.22689 0.0
C509 C 0.55976 0.18211 0.23502 0.0
C510 C 0.51464 0.24092 0.26184 0.0
C511 C 0.52906 0.21262 0.28333 0.0
H512 H 0.88647 0.61422 0.21938 0.0
H513 H 0.80063 0.59312 0.29571 0.0
H514 H 0.83017 0.64004 0.33309 0.0
H515 H 0.87768 0.69 0.34292 0.0
H516 H 0.9637 0.71197 0.26707 0.0
H517 H 0.93706 0.66162 0.23105 0.0
C518 C 0.87442 0.61966 0.2443 0.0
C519 C 0.84111 0.60031 0.25449 0.0
C520 C 0.89151 0.64697 0.26582 0.0
C521 C 0.82606 0.60765 0.28699 0.0
C522 C 0.84293 0.63456 0.30847 0.0
C523 C 0.89087 0.68362 0.31865 0.0
C524 C 0.92248 0.70504 0.30767 0.0
C525 C 0.87525 0.65485 0.29794 0.0
C526 C 0.93931 0.69605 0.2762 0.0
C527 C 0.92398 0.66732 0.25549 0.0
H528 H 0.39708 0.93932 0.30115 0.0
H529 H 0.32801 0.97507 0.21574 0.0
H530 H 0.36185 0.93076 0.17876 0.0
H531 H 0.40529 0.87677 0.17225 0.0
H532 H 0.47283 0.83893 0.25782 0.0
H533 H 0.44581 0.88969 0.29299 0.0
C534 C 0.3898 0.93787 0.27434 0.0
C535 C 0.3596 0.96009 0.26138 0.0
C536 C 0.40893 0.91179 0.25328 0.0
C537 C 0.35081 0.95804 0.22651 0.0
C538 C 0.37011 0.93264 0.20531 0.0
C539 C 0.41457 0.87991 0.19847 0.0
C540 C 0.44059 0.85371 0.21253 0.0
C541 C 0.39834 0.90856 0.21867 0.0
C542 C 0.45267 0.85856 0.2464 0.0
C543 C 0.43707 0.88746 0.26658 0.0
H544 H 0.08633 0.53859 0.78077 0.0
H545 H 0.19235 0.57874 0.73818 0.0
H546 H 0.15807 0.62766 0.70611 0.0
H547 H 0.09876 0.66257 0.69411 0.0
H548 H 0.99334 0.62442 0.73918 0.0
H549 H 0.02654 0.57096 0.76593 0.0
C550 C 0.10195 0.55772 0.76417 0.0
C551 C 0.14193 0.5551 0.76212 0.0
C552 C 0.08214 0.58629 0.74629 0.0
C553 C 0.16162 0.58021 0.74045 0.0
C554 C 0.14202 0.60825 0.72209 0.0
C555 C 0.0829 0.64219 0.70929 0.0
C556 C 0.04361 0.6476 0.71472 0.0
C557 C 0.10238 0.61206 0.72536 0.0
C558 C 0.02361 0.62104 0.73469 0.0
C559 C 0.0426 0.59051 0.75009 0.0
H560 H 0.51468 0.11203 0.75418 0.0
H561 H 0.43049 0.1463 0.82806 0.0
H562 H 0.39032 0.09236 0.81199 0.0
H563 H 0.37533 0.04078 0.77176 0.0
H564 H 0.45933 0.00678 0.69761 0.0
H565 H 0.50342 0.05481 0.71939 0.0
C566 C 0.48784 0.10735 0.76719 0.0
C567 C 0.47538 0.13361 0.79187 0.0
C568 C 0.46462 0.07645 0.75758 0.0
C569 C 0.44074 0.12675 0.80879 0.0
C570 C 0.41761 0.09596 0.79951 0.0
C571 C 0.40353 0.04339 0.76074 0.0
C572 C 0.41367 0.02063 0.73267 0.0
C573 C 0.42866 0.07143 0.77312 0.0
C574 C 0.45056 0.02408 0.71904 0.0
C575 C 0.4758 0.05172 0.73138 0.0
H576 H 0.97255 0.28615 0.73084 0.0
H577 H 0.88987 0.3165 0.65387 0.0
H578 H 0.86418 0.366 0.69106 0.0
H579 H 0.86016 0.39509 0.74782 0.0
H580 H 0.94054 0.36196 0.82578 0.0
H581 H 0.97246 0.31956 0.78563 0.0
C582 C 0.9493 0.30396 0.72192 0.0
C583 C 0.93288 0.29723 0.68972 0.0
C584 C 0.93406 0.33176 0.74374 0.0
C585 C 0.90288 0.32078 0.67862 0.0
C586 C 0.88809 0.34907 0.69992 0.0
C587 C 0.88514 0.37921 0.75587 0.0
C588 C 0.89771 0.38145 0.78988 0.0
C589 C 0.9027 0.35401 0.73291 0.0
C590 C 0.93008 0.36056 0.79984 0.0
C591 C 0.94828 0.3362 0.77691 0.0
H592 H 0.58494 0.826 0.66026 0.0
H593 H 0.61079 0.91151 0.73601 0.0
H594 H 0.58077 0.87223 0.77977 0.0
H595 H 0.55478 0.81028 0.79759 0.0
H596 H 0.53175 0.72371 0.72205 0.0
H597 H 0.55264 0.76697 0.67715 0.0
C598 C 0.58351 0.83639 0.68623 0.0
C599 C 0.60063 0.87144 0.69489 0.0
C600 C 0.56699 0.81328 0.7114 0.0
C601 C 0.59814 0.88453 0.72864 0.0
C602 C 0.58109 0.862 0.75373 0.0
C603 C 0.55367 0.80105 0.77126 0.0
C604 C 0.54221 0.76354 0.7633 0.0
C605 C 0.56658 0.82578 0.74559 0.0
C606 C 0.54078 0.75224 0.72899 0.0
C607 C 0.55284 0.77695 0.70326 0.0
H608 H 0.00611 0.15171 0.4324 0.0
H609 H 0.01747 0.27384 0.44284 0.0
H610 H 0.00988 0.26817 0.50452 0.0
H611 H 0.99928 0.2283 0.5555 0.0
H612 H 0.98864 0.10615 0.54386 0.0
H613 H 0.9965 0.11225 0.48263 0.0
C614 C 0.00703 0.17717 0.44808 0.0
C615 C 0.0123 0.21314 0.43293 0.0
C616 C 0.0026 0.17374 0.48337 0.0
C617 C 0.01351 0.24575 0.45379 0.0
C618 C 0.00906 0.24256 0.48907 0.0
C619 C 0.99858 0.20306 0.53954 0.0
C620 C 0.9933 0.16685 0.55434 0.0
C621 C 0.00341 0.20667 0.50414 0.0
C622 C 0.9927 0.13439 0.53327 0.0
C623 C 0.99721 0.1378 0.49818 0.0
H624 H 0.65218 0.92567 0.50558 0.0
H625 H 0.64188 0.02038 0.57485 0.0
H626 H 0.63071 0.06369 0.52715 0.0
H627 H 0.64051 0.07594 0.46581 0.0
H628 H 0.64803 0.98097 0.39652 0.0
H629 H 0.6424 0.93632 0.44394 0.0
C630 C 0.64567 0.95548 0.51024 0.0
C631 C 0.64833 0.96996 0.54355 0.0
C632 C 0.63938 0.98026 0.48261 0.0
C633 C 0.63983 0.00857 0.54942 0.0
C634 C 0.63393 0.03347 0.52207 0.0
C635 C 0.63899 0.04549 0.46101 0.0
C636 C 0.6452 0.03173 0.42784 0.0
C637 C 0.63602 0.01994 0.48851 0.0
C638 C 0.64316 0.99225 0.42181 0.0
C639 C 0.64051 0.96666 0.44903 0.0
H640 H 0.00956 0.75713 0.56295 0.0
H641 H 0.03188 0.87602 0.58391 0.0
H642 H 0.02314 0.89145 0.52393 0.0
H643 H 0.0063 0.87211 0.4664 0.0
H644 H 0.98217 0.75384 0.44431 0.0
H645 H 0.99422 0.73728 0.50398 0.0
C646 C 0.01309 0.78628 0.55423 0.0
C647 C 0.02143 0.81539 0.57784 0.0
C648 C 0.00716 0.79516 0.51967 0.0
C649 C 0.02541 0.85312 0.56628 0.0
C650 C 0.02029 0.86201 0.532 0.0
C651 C 0.00358 0.84264 0.47449 0.0
C652 C 0.99306 0.81431 0.45087 0.0
C653 C 0.01054 0.8334 0.50863 0.0
C654 C 0.99 0.77628 0.46196 0.0
C655 C 0.99701 0.76678 0.49606 0.0
H656 H 0.35423 0.94085 0.56092 0.0
H657 H 0.34827 0.05768 0.59434 0.0
H658 H 0.35808 0.07974 0.53599 0.0
H659 H 0.3488 0.06453 0.47521 0.0
H660 H 0.35459 0.9476 0.44182 0.0
H661 H 0.36583 0.92666 0.50028 0.0
C662 C 0.35726 0.97108 0.55558 0.0
C663 C 0.35012 0.99769 0.58156 0.0
C664 C 0.36207 0.98344 0.52185 0.0
C665 C 0.35389 0.03678 0.57465 0.0
C666 C 0.3589 0.04937 0.54118 0.0
C667 C 0.35455 0.03471 0.48059 0.0
C668 C 0.35017 0.00752 0.45454 0.0
C669 C 0.36018 0.02287 0.5144 0.0
C670 C 0.35781 0.96899 0.46153 0.0
C671 C 0.36368 0.95696 0.49508 0.0
H672 H 0.48241 0.74547 0.9489 0.0
H673 H 0.59615 0.77543 0.98039 0.0
H674 H 0.57336 0.78922 0.03791 0.0
H675 H 0.52509 0.77574 0.08147 0.0
H676 H 0.41482 0.73327 0.05107 0.0
H677 H 0.43152 0.74167 0.99115 0.0
C678 C 0.50169 0.75695 0.96799 0.0
C679 C 0.54071 0.75982 0.96064 0.0
C680 C 0.48898 0.7613 0.00159 0.0
C681 C 0.56589 0.77357 0.98559 0.0
C682 C 0.55292 0.78079 0.01857 0.0
C683 C 0.50433 0.7697 0.06166 0.0
C684 C 0.46895 0.7537 0.07039 0.0
C685 C 0.51511 0.7722 0.02734 0.0
C686 C 0.44233 0.74538 0.04471 0.0
C687 C 0.45194 0.75006 0.01052 0.0
H688 H 0.16177 0.44175 0.94565 0.0
H689 H 0.15906 0.55455 0.90189 0.0
H690 H 0.13787 0.58095 0.95616 0.0
H691 H 0.13781 0.57361 0.01849 0.0
H692 H 0.14291 0.46086 0.0624 0.0
H693 H 0.14401 0.43273 0.00567 0.0
C694 C 0.15506 0.47189 0.94768 0.0
C695 C 0.16295 0.49634 0.92017 0.0
C696 C 0.14391 0.48698 0.97923 0.0
C697 C 0.15353 0.53519 0.9228 0.0
C698 C 0.14181 0.55037 0.95399 0.0
C699 C 0.13763 0.54281 0.01563 0.0
C700 C 0.14161 0.51944 0.0446 0.0
C701 C 0.13954 0.52686 0.98287 0.0
C702 C 0.14042 0.47959 0.04057 0.0
C703 C 0.14152 0.46344 0.00805 0.0
H704 H 0.55855 0.3722 0.01666 0.0
H705 H 0.52313 0.26112 0.05207 0.0
H706 H 0.51164 0.24103 0.99316 0.0
H707 H 0.50798 0.25673 0.93167 0.0
H708 H 0.54104 0.3695 0.89829 0.0
H709 H 0.55659 0.38718 0.95644 0.0
C710 C 0.54875 0.34337 0.01166 0.0
C711 C 0.5417 0.31826 0.03888 0.0
C712 C 0.54116 0.33247 0.97802 0.0
C713 C 0.52891 0.28106 0.03166 0.0
C714 C 0.52207 0.26965 0.99797 0.0
C715 C 0.51855 0.28516 0.93715 0.0
C716 C 0.52301 0.31177 0.91051 0.0
C717 C 0.52737 0.29541 0.97096 0.0
C718 C 0.53698 0.34844 0.91814 0.0
C719 C 0.54608 0.35862 0.95145 0.0
H720 H 0.8174 0.52886 0.93893 0.0
H721 H 0.85641 0.41416 0.95679 0.0
H722 H 0.87007 0.42997 0.01639 0.0
H723 H 0.85444 0.47151 0.06523 0.0
H724 H 0.81119 0.58464 0.04722 0.0
H725 H 0.81705 0.57528 0.98582 0.0
C726 C 0.83061 0.50794 0.95557 0.0
C727 C 0.83591 0.47046 0.94376 0.0
C728 C 0.83722 0.51703 0.9899 0.0
C729 C 0.85252 0.44328 0.96538 0.0
C730 C 0.85986 0.45225 0.99954 0.0
C731 C 0.84852 0.49482 0.04782 0.0
C732 C 0.83272 0.52884 0.06056 0.0
C733 C 0.85014 0.48837 0.01248 0.0
C734 C 0.82403 0.55853 0.03792 0.0
C735 C 0.82672 0.55287 0.00278 0.0
loop_
_geom_bond_atom_site_label_1
_geom_bond_atom_site_label_2
_geom_bond_distance
_geom_bond_site_symmetry_2
_ccdc_geom_bond_type
Zn0 O3 2.025 1_455 S
Zn0 O5 2.049 . S
Zn0 O10 2.067 1_455 S
Zn1 O2 1.962 . S
Zn1 O4 1.986 . S
Zn1 O6 1.996 . S
Zn1 O9 1.943 1_455 S
O2 Zn1 1.962 . S
O2 C7 1.254 . S
O3 Zn0 2.025 1_655 S
O3 C7 1.261 1_655 S
O4 Zn1 1.986 . S
O4 C11 1.262 . S
O5 Zn0 2.049 . S
O5 C13 1.260 . S
O6 Zn1 1.996 . S
O6 C13 1.257 . S
C7 O2 1.254 . S
C7 O3 1.261 1_455 S
C8 O9 1.249 . S
C8 O10 1.270 . S
O9 Zn1 1.943 1_655 S
O9 C8 1.249 . S
O10 Zn0 2.067 1_655 S
O10 C8 1.270 . S
C11 O4 1.262 . S
C11 O12 1.232 . S
O12 C11 1.232 . S
C13 O5 1.260 . S
C13 O6 1.257 . S
Zn14 O17 2.025 1_545 S
Zn14 O19 2.049 . S
Zn14 O24 2.067 1_545 S
Zn15 O16 1.962 . S
Zn15 O18 1.986 . S
Zn15 O20 1.996 . S
Zn15 O23 1.943 1_545 S
O16 Zn15 1.962 . S
O16 C21 1.254 . S
O17 Zn14 2.025 1_565 S
O17 C21 1.261 1_565 S
O18 Zn15 1.986 . S
O18 C25 1.262 . S
O19 Zn14 2.049 . S
O19 C27 1.260 . S
O20 Zn15 1.996 . S
O20 C27 1.257 . S
C21 O16 1.254 . S
C21 O17 1.261 1_545 S
C22 O23 1.249 . S
C22 O24 1.270 . S
O23 Zn15 1.943 1_565 S
O23 C22 1.249 . S
O24 Zn14 2.067 1_565 S
O24 C22 1.270 . S
C25 O18 1.262 . S
C25 O26 1.232 . S
O26 C25 1.232 . S
C27 O19 1.260 . S
C27 O20 1.257 . S
Zn28 O31 2.025 1_655 S
Zn28 O33 2.049 . S
Zn28 O38 2.067 1_655 S
Zn29 O30 1.962 . S
Zn29 O32 1.986 . S
Zn29 O34 1.996 . S
Zn29 O37 1.943 1_655 S
O30 Zn29 1.962 . S
O30 C35 1.254 . S
O31 Zn28 2.025 1_455 S
O31 C35 1.261 1_455 S
O32 Zn29 1.986 . S
O32 C39 1.262 . S
O33 Zn28 2.049 . S
O33 C41 1.260 . S
O34 Zn29 1.996 . S
O34 C41 1.257 . S
C35 O30 1.254 . S
C35 O31 1.261 1_655 S
C36 O37 1.249 . S
C36 O38 1.270 . S
O37 Zn29 1.943 1_455 S
O37 C36 1.249 . S
O38 Zn28 2.067 1_455 S
O38 C36 1.270 . S
C39 O32 1.262 . S
C39 O40 1.232 . S
O40 C39 1.232 . S
C41 O33 1.260 . S
C41 O34 1.257 . S
Zn42 O45 2.025 1_565 S
Zn42 O47 2.049 . S
Zn42 O52 2.067 1_565 S
Zn43 O44 1.962 . S
Zn43 O46 1.986 . S
Zn43 O48 1.996 . S
Zn43 O51 1.943 1_565 S
O44 Zn43 1.962 . S
O44 C49 1.254 . S
O45 Zn42 2.025 1_545 S
O45 C49 1.261 1_545 S
O46 Zn43 1.986 . S
O46 C53 1.262 . S
O47 Zn42 2.049 . S
O47 C55 1.260 . S
O48 Zn43 1.996 . S
O48 C55 1.257 . S
C49 O44 1.254 . S
C49 O45 1.261 1_565 S
C50 O51 1.249 . S
C50 O52 1.270 . S
O51 Zn43 1.943 1_545 S
O51 C50 1.249 . S
O52 Zn42 2.067 1_545 S
O52 C50 1.270 . S
C53 O46 1.262 . S
C53 O54 1.232 . S
O54 C53 1.232 . S
C55 O47 1.260 . S
C55 O48 1.257 . S
Zn56 O59 2.025 1_455 S
Zn56 O61 2.049 . S
Zn56 O66 2.067 1_455 S
Zn57 O58 1.962 . S
Zn57 O60 1.986 . S
Zn57 O62 1.996 . S
Zn57 O65 1.943 1_455 S
O58 Zn57 1.962 . S
O58 C63 1.254 . S
O59 Zn56 2.025 1_655 S
O59 C63 1.261 1_655 S
O60 Zn57 1.986 . S
O60 C67 1.262 . S
O61 Zn56 2.049 . S
O61 C69 1.260 . S
O62 Zn57 1.996 . S
O62 C69 1.257 . S
C63 O58 1.254 . S
C63 O59 1.261 1_455 S
C64 O65 1.249 . S
C64 O66 1.270 . S
O65 Zn57 1.943 1_655 S
O65 C64 1.249 . S
O66 Zn56 2.067 1_655 S
O66 C64 1.270 . S
C67 O60 1.262 . S
C67 O68 1.232 . S
O68 C67 1.232 . S
C69 O61 1.260 . S
C69 O62 1.257 . S
Zn70 O73 2.025 1_545 S
Zn70 O75 2.049 . S
Zn70 O80 2.067 1_545 S
Zn71 O72 1.962 . S
Zn71 O74 1.986 . S
Zn71 O76 1.996 . S
Zn71 O79 1.943 1_545 S
O72 Zn71 1.962 . S
O72 C77 1.254 . S
O73 Zn70 2.025 1_565 S
O73 C77 1.261 1_565 S
O74 Zn71 1.986 . S
O74 C81 1.262 . S
O75 Zn70 2.049 . S
O75 C83 1.260 . S
O76 Zn71 1.996 . S
O76 C83 1.257 . S
C77 O72 1.254 . S
C77 O73 1.261 1_545 S
C78 O79 1.249 . S
C78 O80 1.270 . S
O79 Zn71 1.943 1_565 S
O79 C78 1.249 . S
O80 Zn70 2.067 1_565 S
O80 C78 1.270 . S
C81 O74 1.262 . S
C81 O82 1.232 . S
O82 C81 1.232 . S
C83 O75 1.260 . S
C83 O76 1.257 . S
Zn84 O87 2.025 1_655 S
Zn84 O89 2.049 . S
Zn84 O94 2.067 1_655 S
Zn85 O86 1.962 . S
Zn85 O88 1.986 . S
Zn85 O90 1.996 . S
Zn85 O93 1.943 1_655 S
O86 Zn85 1.962 . S
O86 C91 1.254 . S
O87 Zn84 2.025 1_455 S
O87 C91 1.261 1_455 S
O88 Zn85 1.986 . S
O88 C95 1.262 . S
O89 Zn84 2.049 . S
O89 C97 1.260 . S
O90 Zn85 1.996 . S
O90 C97 1.257 . S
C91 O86 1.254 . S
C91 O87 1.261 1_655 S
C92 O93 1.249 . S
C92 O94 1.270 . S
O93 Zn85 1.943 1_455 S
O93 C92 1.249 . S
O94 Zn84 2.067 1_455 S
O94 C92 1.270 . S
C95 O88 1.262 . S
C95 O96 1.232 . S
O96 C95 1.232 . S
C97 O89 1.260 . S
C97 O90 1.257 . S
Zn98 O101 2.025 1_565 S
Zn98 O103 2.049 . S
Zn98 O108 2.067 1_565 S
Zn99 O100 1.962 . S
Zn99 O102 1.986 . S
Zn99 O104 1.996 . S
Zn99 O107 1.943 1_565 S
O100 Zn99 1.962 . S
O100 C105 1.254 . S
O101 Zn98 2.025 1_545 S
O101 C105 1.261 1_545 S
O102 Zn99 1.986 . S
O102 C109 1.262 . S
O103 Zn98 2.049 . S
O103 C111 1.260 . S
O104 Zn99 1.996 . S
O104 C111 1.257 . S
C105 O100 1.254 . S
C105 O101 1.261 1_565 S
C106 O107 1.249 . S
C106 O108 1.270 . S
O107 Zn99 1.943 1_545 S
O107 C106 1.249 . S
O108 Zn98 2.067 1_545 S
O108 C106 1.270 . S
C109 O102 1.262 . S
C109 O110 1.232 . S
O110 C109 1.232 . S
C111 O103 1.260 . S
C111 O104 1.257 . S
Zn112 O115 2.031 . S
Zn112 O117 2.049 . S
Zn112 O122 2.067 . S
Zn113 O114 1.962 . S
Zn113 O116 1.986 . S
Zn113 O118 1.996 . S
Zn113 O121 1.943 . S
O114 Zn113 1.962 . S
O114 C119 1.254 . S
O115 Zn112 2.031 . S
O115 C119 1.269 . S
O116 Zn113 1.986 . S
O116 C123 1.262 . S
O117 Zn112 2.049 . S
O117 C125 1.260 . S
O118 Zn113 1.996 . S
O118 C125 1.257 . S
C119 O114 1.254 . S
C119 O115 1.269 . S
C120 O121 1.249 . S
C120 O122 1.270 . S
O121 Zn113 1.943 . S
O121 C120 1.249 . S
O122 Zn112 2.067 . S
O122 C120 1.270 . S
C123 O116 1.262 . S
C123 O124 1.232 . S
O124 C123 1.232 . S
C125 O117 1.260 . S
C125 O118 1.257 . S
Zn126 O129 2.031 . S
Zn126 O131 2.049 . S
Zn126 O136 2.067 . S
Zn127 O128 1.962 . S
Zn127 O130 1.986 . S
Zn127 O132 1.996 . S
Zn127 O135 1.943 . S
O128 Zn127 1.962 . S
O128 C133 1.254 . S
O129 Zn126 2.031 . S
O129 C133 1.269 . S
O130 Zn127 1.986 . S
O130 C137 1.262 . S
O131 Zn126 2.049 . S
O131 C139 1.260 . S
O132 Zn127 1.996 . S
O132 C139 1.257 . S
C133 O128 1.254 . S
C133 O129 1.269 . S
C134 O135 1.249 . S
C134 O136 1.270 . S
O135 Zn127 1.943 . S
O135 C134 1.249 . S
O136 Zn126 2.067 . S
O136 C134 1.270 . S
C137 O130 1.262 . S
C137 O138 1.232 . S
O138 C137 1.232 . S
C139 O131 1.260 . S
C139 O132 1.257 . S
Zn140 O143 2.031 . S
Zn140 O145 2.049 . S
Zn140 O150 2.067 . S
Zn141 O142 1.962 . S
Zn141 O144 1.986 . S
Zn141 O146 1.996 . S
Zn141 O149 1.943 . S
O142 Zn141 1.962 . S
O142 C147 1.254 . S
O143 Zn140 2.031 . S
O143 C147 1.269 . S
O144 Zn141 1.986 . S
O144 C151 1.262 . S
O145 Zn140 2.049 . S
O145 C153 1.260 . S
O146 Zn141 1.996 . S
O146 C153 1.257 . S
C147 O142 1.254 . S
C147 O143 1.269 . S
C148 O149 1.249 . S
C148 O150 1.270 . S
O149 Zn141 1.943 . S
O149 C148 1.249 . S
O150 Zn140 2.067 . S
O150 C148 1.270 . S
C151 O144 1.262 . S
C151 O152 1.232 . S
O152 C151 1.232 . S
C153 O145 1.260 . S
C153 O146 1.257 . S
Zn154 O157 2.031 . S
Zn154 O159 2.049 . S
Zn154 O164 2.067 . S
Zn155 O156 1.962 . S
Zn155 O158 1.986 . S
Zn155 O160 1.996 . S
Zn155 O163 1.943 . S
O156 Zn155 1.962 . S
O156 C161 1.254 . S
O157 Zn154 2.031 . S
O157 C161 1.269 . S
O158 Zn155 1.986 . S
O158 C165 1.262 . S
O159 Zn154 2.049 . S
O159 C167 1.260 . S
O160 Zn155 1.996 . S
O160 C167 1.257 . S
C161 O156 1.254 . S
C161 O157 1.269 . S
C162 O163 1.249 . S
C162 O164 1.270 . S
O163 Zn155 1.943 . S
O163 C162 1.249 . S
O164 Zn154 2.067 . S
O164 C162 1.270 . S
C165 O158 1.262 . S
C165 O166 1.232 . S
O166 C165 1.232 . S
C167 O159 1.260 . S
C167 O160 1.257 . S
Zn168 O171 2.031 . S
Zn168 O173 2.049 . S
Zn168 O178 2.067 . S
Zn169 O170 1.962 . S
Zn169 O172 1.986 . S
Zn169 O174 1.996 . S
Zn169 O177 1.943 . S
O170 Zn169 1.962 . S
O170 C175 1.254 . S
O171 Zn168 2.031 . S
O171 C175 1.269 . S
O172 Zn169 1.986 . S
O172 C179 1.262 . S
O173 Zn168 2.049 . S
O173 C181 1.260 . S
O174 Zn169 1.996 . S
O174 C181 1.257 . S
C175 O170 1.254 . S
C175 O171 1.269 . S
C176 O177 1.249 . S
C176 O178 1.270 . S
O177 Zn169 1.943 . S
O177 C176 1.249 . S
O178 Zn168 2.067 . S
O178 C176 1.270 . S
C179 O172 1.262 . S
C179 O180 1.232 . S
O180 C179 1.232 . S
C181 O173 1.260 . S
C181 O174 1.257 . S
Zn182 O185 2.031 . S
Zn182 O187 2.049 . S
Zn182 O192 2.067 . S
Zn183 O184 1.962 . S
Zn183 O186 1.986 . S
Zn183 O188 1.996 . S
Zn183 O191 1.943 . S
O184 Zn183 1.962 . S
O184 C189 1.254 . S
O185 Zn182 2.031 . S
O185 C189 1.269 . S
O186 Zn183 1.986 . S
O186 C193 1.262 . S
O187 Zn182 2.049 . S
O187 C195 1.260 . S
O188 Zn183 1.996 . S
O188 C195 1.257 . S
C189 O184 1.254 . S
C189 O185 1.269 . S
C190 O191 1.249 . S
C190 O192 1.270 . S
O191 Zn183 1.943 . S
O191 C190 1.249 . S
O192 Zn182 2.067 . S
O192 C190 1.270 . S
C193 O186 1.262 . S
C193 O194 1.232 . S
O194 C193 1.232 . S
C195 O187 1.260 . S
C195 O188 1.257 . S
Zn196 O199 2.031 . S
Zn196 O201 2.049 . S
Zn196 O206 2.067 . S
Zn197 O198 1.962 . S
Zn197 O200 1.986 . S
Zn197 O202 1.996 . S
Zn197 O205 1.943 . S
O198 Zn197 1.962 . S
O198 C203 1.254 . S
O199 Zn196 2.031 . S
O199 C203 1.269 . S
O200 Zn197 1.986 . S
O200 C207 1.262 . S
O201 Zn196 2.049 . S
O201 C209 1.260 . S
O202 Zn197 1.996 . S
O202 C209 1.257 . S
C203 O198 1.254 . S
C203 O199 1.269 . S
C204 O205 1.249 . S
C204 O206 1.270 . S
O205 Zn197 1.943 . S
O205 C204 1.249 . S
O206 Zn196 2.067 . S
O206 C204 1.270 . S
C207 O200 1.262 . S
C207 O208 1.232 . S
O208 C207 1.232 . S
C209 O201 1.260 . S
C209 O202 1.257 . S
Zn210 O213 2.031 . S
Zn210 O215 2.049 . S
Zn210 O220 2.067 . S
Zn211 O212 1.962 . S
Zn211 O214 1.986 . S
Zn211 O216 1.996 . S
Zn211 O219 1.943 . S
O212 Zn211 1.962 . S
O212 C217 1.254 . S
O213 Zn210 2.031 . S
O213 C217 1.269 . S
O214 Zn211 1.986 . S
O214 C221 1.262 . S
O215 Zn210 2.049 . S
O215 C223 1.260 . S
O216 Zn211 1.996 . S
O216 C223 1.257 . S
C217 O212 1.254 . S
C217 O213 1.269 . S
C218 O219 1.249 . S
C218 O220 1.270 . S
O219 Zn211 1.943 . S
O219 C218 1.249 . S
O220 Zn210 2.067 . S
O220 C218 1.270 . S
C221 O214 1.262 . S
C221 O222 1.232 . S
O222 C221 1.232 . S
C223 O215 1.260 . S
C223 O216 1.257 . S
H224 C230 0.930 . S
H225 C233 0.930 . S
H226 C234 0.930 . S
H227 C235 0.930 . S
H228 C238 0.930 . S
H229 C239 0.930 . S
C230 H224 0.930 . S
C230 C231 1.355 . S
C230 C232 1.415 . S
C231 C230 1.355 . S
C231 C233 1.419 . S
C232 C230 1.415 . S
C232 C237 1.425 . S
C232 C239 1.409 . S
C233 H225 0.930 . S
C233 C231 1.419 . S
C233 C234 1.362 . S
C234 H226 0.930 . S
C234 C233 1.362 . S
C234 C237 1.409 . S
C235 H227 0.930 . S
C235 C236 1.355 . S
C235 C237 1.415 . S
C236 C235 1.355 . S
C236 C238 1.419 . S
C237 C232 1.425 . S
C237 C234 1.409 . S
C237 C235 1.415 . S
C238 H228 0.930 . S
C238 C236 1.419 . S
C238 C239 1.362 . S
C239 H229 0.930 . S
C239 C232 1.409 . S
C239 C238 1.362 . S
H240 C246 0.930 . S
H241 C249 0.930 . S
H242 C250 0.930 . S
H243 C251 0.930 . S
H244 C254 0.930 . S
H245 C255 0.930 . S
C246 H240 0.930 . S
C246 C247 1.355 . S
C246 C248 1.415 . S
C247 C246 1.355 . S
C247 C249 1.419 . S
C248 C246 1.415 . S
C248 C253 1.425 . S
C248 C255 1.409 . S
C249 H241 0.930 . S
C249 C247 1.419 . S
C249 C250 1.362 . S
C250 H242 0.930 . S
C250 C249 1.362 . S
C250 C253 1.409 . S
C251 H243 0.930 . S
C251 C252 1.355 . S
C251 C253 1.415 . S
C252 C251 1.355 . S
C252 C254 1.419 . S
C253 C248 1.425 . S
C253 C250 1.409 . S
C253 C251 1.415 . S
C254 H244 0.930 . S
C254 C252 1.419 . S
C254 C255 1.362 . S
C255 H245 0.930 . S
C255 C248 1.409 . S
C255 C254 1.362 . S
H256 C262 0.930 . S
H257 C265 0.930 . S
H258 C266 0.930 . S
H259 C267 0.930 . S
H260 C270 0.930 . S
H261 C271 0.930 . S
C262 H256 0.930 . S
C262 C263 1.355 . S
C262 C264 1.415 . S
C263 C262 1.355 . S
C263 C265 1.419 . S
C264 C262 1.415 . S
C264 C269 1.425 . S
C264 C271 1.409 . S
C265 H257 0.930 . S
C265 C263 1.419 . S
C265 C266 1.362 . S
C266 H258 0.930 . S
C266 C265 1.362 . S
C266 C269 1.409 . S
C267 H259 0.930 . S
C267 C268 1.355 . S
C267 C269 1.415 . S
C268 C267 1.355 . S
C268 C270 1.419 . S
C269 C264 1.425 . S
C269 C266 1.409 . S
C269 C267 1.415 . S
C270 H260 0.930 . S
C270 C268 1.419 . S
C270 C271 1.362 . S
C271 H261 0.930 . S
C271 C264 1.409 . S
C271 C270 1.362 . S
H272 C278 0.930 . S
H273 C281 0.930 . S
H274 C282 0.930 . S
H275 C283 0.930 . S
H276 C286 0.930 . S
H277 C287 0.930 . S
C278 H272 0.930 . S
C278 C279 1.355 . S
C278 C280 1.415 . S
C279 C278 1.355 . S
C279 C281 1.419 . S
C280 C278 1.415 . S
C280 C285 1.425 . S
C280 C287 1.409 . S
C281 H273 0.930 . S
C281 C279 1.419 . S
C281 C282 1.362 . S
C282 H274 0.930 . S
C282 C281 1.362 . S
C282 C285 1.409 . S
C283 H275 0.930 . S
C283 C284 1.355 . S
C283 C285 1.415 . S
C284 C283 1.355 . S
C284 C286 1.419 . S
C285 C280 1.425 . S
C285 C282 1.409 . S
C285 C283 1.415 . S
C286 H276 0.930 . S
C286 C284 1.419 . S
C286 C287 1.362 . S
C287 H277 0.930 . S
C287 C280 1.409 . S
C287 C286 1.362 . S
H288 C294 0.930 . S
H289 C297 0.930 . S
H290 C298 0.930 . S
H291 C299 0.930 . S
H292 C302 0.930 . S
H293 C303 0.930 . S
C294 H288 0.930 . S
C294 C295 1.355 . S
C294 C296 1.415 . S
C295 C294 1.355 . S
C295 C297 1.419 . S
C296 C294 1.415 . S
C296 C301 1.425 . S
C296 C303 1.409 . S
C297 H289 0.930 . S
C297 C295 1.419 . S
C297 C298 1.362 . S
C298 H290 0.930 . S
C298 C297 1.362 . S
C298 C301 1.409 . S
C299 H291 0.930 . S
C299 C300 1.355 . S
C299 C301 1.415 . S
C300 C299 1.355 . S
C300 C302 1.419 . S
C301 C296 1.425 . S
C301 C298 1.409 . S
C301 C299 1.415 . S
C302 H292 0.930 . S
C302 C300 1.419 . S
C302 C303 1.362 . S
C303 H293 0.930 . S
C303 C296 1.409 . S
C303 C302 1.362 . S
H304 C310 0.930 . S
H305 C313 0.930 . S
H306 C314 0.930 . S
H307 C315 0.930 . S
H308 C318 0.930 . S
H309 C319 0.930 . S
C310 H304 0.930 . S
C310 C311 1.355 . S
C310 C312 1.415 . S
C311 C310 1.355 . S
C311 C313 1.419 . S
C312 C310 1.415 . S
C312 C317 1.425 . S
C312 C319 1.409 . S
C313 H305 0.930 . S
C313 C311 1.419 . S
C313 C314 1.362 . S
C314 H306 0.930 . S
C314 C313 1.362 . S
C314 C317 1.409 . S
C315 H307 0.930 . S
C315 C316 1.355 . S
C315 C317 1.415 . S
C316 C315 1.355 . S
C316 C318 1.419 . S
C317 C312 1.425 . S
C317 C314 1.409 . S
C317 C315 1.415 . S
C318 H308 0.930 . S
C318 C316 1.419 . S
C318 C319 1.362 . S
C319 H309 0.930 . S
C319 C312 1.409 . S
C319 C318 1.362 . S
H320 C326 0.930 . S
H321 C329 0.930 . S
H322 C330 0.930 . S
H323 C331 0.930 . S
H324 C334 0.930 . S
H325 C335 0.930 . S
C326 H320 0.930 . S
C326 C327 1.355 . S
C326 C328 1.415 . S
C327 C326 1.355 . S
C327 C329 1.419 . S
C328 C326 1.415 . S
C328 C333 1.425 . S
C328 C335 1.409 . S
C329 H321 0.930 . S
C329 C327 1.419 . S
C329 C330 1.362 . S
C330 H322 0.930 . S
C330 C329 1.362 . S
C330 C333 1.409 . S
C331 H323 0.930 . S
C331 C332 1.355 . S
C331 C333 1.415 . S
C332 C331 1.355 . S
C332 C334 1.419 . S
C333 C328 1.425 . S
C333 C330 1.409 . S
C333 C331 1.415 . S
C334 H324 0.930 . S
C334 C332 1.419 . S
C334 C335 1.362 . S
C335 H325 0.930 . S
C335 C328 1.409 . S
C335 C334 1.362 . S
H336 C342 0.930 . S
H337 C345 0.930 . S
H338 C346 0.930 . S
H339 C347 0.930 . S
H340 C350 0.930 . S
H341 C351 0.930 . S
C342 H336 0.930 . S
C342 C343 1.355 . S
C342 C344 1.415 . S
C343 C342 1.355 . S
C343 C345 1.419 . S
C344 C342 1.415 . S
C344 C349 1.425 . S
C344 C351 1.409 . S
C345 H337 0.930 . S
C345 C343 1.419 . S
C345 C346 1.362 . S
C346 H338 0.930 . S
C346 C345 1.362 . S
C346 C349 1.409 . S
C347 H339 0.930 . S
C347 C348 1.355 . S
C347 C349 1.415 . S
C348 C347 1.355 . S
C348 C350 1.419 . S
C349 C344 1.425 . S
C349 C346 1.409 . S
C349 C347 1.415 . S
C350 H340 0.930 . S
C350 C348 1.419 . S
C350 C351 1.362 . S
C351 H341 0.930 . S
C351 C344 1.409 . S
C351 C350 1.362 . S
H352 C358 0.930 . S
H353 C361 0.930 . S
H354 C362 0.930 . S
H355 C363 0.930 . S
H356 C366 0.930 . S
H357 C367 0.930 . S
C358 H352 0.930 . S
C358 C359 1.355 . S
C358 C360 1.415 . S
C359 C358 1.355 . S
C359 C361 1.419 . S
C360 C358 1.415 . S
C360 C365 1.425 . S
C360 C367 1.409 . S
C361 H353 0.930 . S
C361 C359 1.419 . S
C361 C362 1.362 . S
C362 H354 0.930 . S
C362 C361 1.362 . S
C362 C365 1.409 . S
C363 H355 0.930 . S
C363 C364 1.355 . S
C363 C365 1.415 . S
C364 C363 1.355 . S
C364 C366 1.419 . S
C365 C360 1.425 . S
C365 C362 1.409 . S
C365 C363 1.415 . S
C366 H356 0.930 . S
C366 C364 1.419 . S
C366 C367 1.362 . S
C367 H357 0.930 . S
C367 C360 1.409 . S
C367 C366 1.362 . S
H368 C374 0.930 . S
H369 C377 0.930 . S
H370 C378 0.930 . S
H371 C379 0.930 . S
H372 C382 0.930 . S
H373 C383 0.930 . S
C374 H368 0.930 . S
C374 C375 1.355 . S
C374 C376 1.415 . S
C375 C374 1.355 . S
C375 C377 1.419 . S
C376 C374 1.415 . S
C376 C381 1.425 . S
C376 C383 1.409 . S
C377 H369 0.930 . S
C377 C375 1.419 . S
C377 C378 1.362 . S
C378 H370 0.930 . S
C378 C377 1.362 . S
C378 C381 1.409 . S
C379 H371 0.930 . S
C379 C380 1.355 . S
C379 C381 1.415 . S
C380 C379 1.355 . S
C380 C382 1.419 . S
C381 C376 1.425 . S
C381 C378 1.409 . S
C381 C379 1.415 . S
C382 H372 0.930 . S
C382 C380 1.419 . S
C382 C383 1.362 . S
C383 H373 0.930 . S
C383 C376 1.409 . S
C383 C382 1.362 . S
H384 C390 0.930 . S
H385 C393 0.930 . S
H386 C394 0.930 . S
H387 C395 0.930 . S
H388 C398 0.930 . S
H389 C399 0.930 . S
C390 H384 0.930 . S
C390 C391 1.355 . S
C390 C392 1.415 . S
C391 C390 1.355 . S
C391 C393 1.419 . S
C392 C390 1.415 . S
C392 C397 1.425 . S
C392 C399 1.409 . S
C393 H385 0.930 . S
C393 C391 1.419 . S
C393 C394 1.362 . S
C394 H386 0.930 . S
C394 C393 1.362 . S
C394 C397 1.409 . S
C395 H387 0.930 . S
C395 C396 1.355 . S
C395 C397 1.415 . S
C396 C395 1.355 . S
C396 C398 1.419 . S
C397 C392 1.425 . S
C397 C394 1.409 . S
C397 C395 1.415 . S
C398 H388 0.930 . S
C398 C396 1.419 . S
C398 C399 1.362 . S
C399 H389 0.930 . S
C399 C392 1.409 . S
C399 C398 1.362 . S
H400 C406 0.930 . S
H401 C409 0.930 . S
H402 C410 0.930 . S
H403 C411 0.930 . S
H404 C414 0.930 . S
H405 C415 0.930 . S
C406 H400 0.930 . S
C406 C407 1.355 . S
C406 C408 1.415 . S
C407 C406 1.355 . S
C407 C409 1.419 . S
C408 C406 1.415 . S
C408 C413 1.425 . S
C408 C415 1.409 . S
C409 H401 0.930 . S
C409 C407 1.419 . S
C409 C410 1.362 . S
C410 H402 0.930 . S
C410 C409 1.362 . S
C410 C413 1.409 . S
C411 H403 0.930 . S
C411 C412 1.355 . S
C411 C413 1.415 . S
C412 C411 1.355 . S
C412 C414 1.419 . S
C413 C408 1.425 . S
C413 C410 1.409 . S
C413 C411 1.415 . S
C414 H404 0.930 . S
C414 C412 1.419 . S
C414 C415 1.362 . S
C415 H405 0.930 . S
C415 C408 1.409 . S
C415 C414 1.362 . S
H416 C422 0.930 . S
H417 C425 0.930 . S
H418 C426 0.930 . S
H419 C427 0.930 . S
H420 C430 0.930 . S
H421 C431 0.930 . S
C422 H416 0.930 . S
C422 C423 1.355 . S
C422 C424 1.415 . S
C423 C422 1.355 . S
C423 C425 1.419 . S
C424 C422 1.415 . S
C424 C429 1.425 . S
C424 C431 1.409 . S
C425 H417 0.930 . S
C425 C423 1.419 . S
C425 C426 1.362 . S
C426 H418 0.930 . S
C426 C425 1.362 . S
C426 C429 1.409 . S
C427 H419 0.930 . S
C427 C428 1.355 . S
C427 C429 1.415 . S
C428 C427 1.355 . S
C428 C430 1.419 . S
C429 C424 1.425 . S
C429 C426 1.409 . S
C429 C427 1.415 . S
C430 H420 0.930 . S
C430 C428 1.419 . S
C430 C431 1.362 . S
C431 H421 0.930 . S
C431 C424 1.409 . S
C431 C430 1.362 . S
H432 C438 0.930 . S
H433 C441 0.930 . S
H434 C442 0.930 . S
H435 C443 0.930 . S
H436 C446 0.930 . S
H437 C447 0.930 . S
C438 H432 0.930 . S
C438 C439 1.355 . S
C438 C440 1.415 . S
C439 C438 1.355 . S
C439 C441 1.419 . S
C440 C438 1.415 . S
C440 C445 1.425 . S
C440 C447 1.409 . S
C441 H433 0.930 . S
C441 C439 1.419 . S
C441 C442 1.362 . S
C442 H434 0.930 . S
C442 C441 1.362 . S
C442 C445 1.409 . S
C443 H435 0.930 . S
C443 C444 1.355 . S
C443 C445 1.415 . S
C444 C443 1.355 . S
C444 C446 1.419 . S
C445 C440 1.425 . S
C445 C442 1.409 . S
C445 C443 1.415 . S
C446 H436 0.930 . S
C446 C444 1.419 . S
C446 C447 1.362 . S
C447 H437 0.930 . S
C447 C440 1.409 . S
C447 C446 1.362 . S
H448 C454 0.930 . S
H449 C457 0.930 . S
H450 C458 0.930 . S
H451 C459 0.930 . S
H452 C462 0.930 . S
H453 C463 0.930 . S
C454 H448 0.930 . S
C454 C455 1.355 . S
C454 C456 1.415 . S
C455 C454 1.355 . S
C455 C457 1.419 . S
C456 C454 1.415 . S
C456 C461 1.425 . S
C456 C463 1.409 . S
C457 H449 0.930 . S
C457 C455 1.419 . S
C457 C458 1.362 . S
C458 H450 0.930 . S
C458 C457 1.362 . S
C458 C461 1.409 . S
C459 H451 0.930 . S
C459 C460 1.355 . S
C459 C461 1.415 . S
C460 C459 1.355 . S
C460 C462 1.419 . S
C461 C456 1.425 . S
C461 C458 1.409 . S
C461 C459 1.415 . S
C462 H452 0.930 . S
C462 C460 1.419 . S
C462 C463 1.362 . S
C463 H453 0.930 . S
C463 C456 1.409 . S
C463 C462 1.362 . S
H464 C470 0.930 . S
H465 C473 0.930 . S
H466 C474 0.930 . S
H467 C475 0.930 . S
H468 C478 0.930 . S
H469 C479 0.930 . S
C470 H464 0.930 . S
C470 C471 1.355 . S
C470 C472 1.415 . S
C471 C470 1.355 . S
C471 C473 1.419 . S
C472 C470 1.415 . S
C472 C477 1.425 . S
C472 C479 1.409 . S
C473 H465 0.930 . S
C473 C471 1.419 . S
C473 C474 1.362 . S
C474 H466 0.930 . S
C474 C473 1.362 . S
C474 C477 1.409 . S
C475 H467 0.930 . S
C475 C476 1.355 . S
C475 C477 1.415 . S
C476 C475 1.355 . S
C476 C478 1.419 . S
C477 C472 1.425 . S
C477 C474 1.409 . S
C477 C475 1.415 . S
C478 H468 0.930 . S
C478 C476 1.419 . S
C478 C479 1.362 . S
C479 H469 0.930 . S
C479 C472 1.409 . S
C479 C478 1.362 . S
H480 C486 0.930 . S
H481 C489 0.930 . S
H482 C490 0.930 . S
H483 C491 0.930 . S
H484 C494 0.930 . S
H485 C495 0.930 . S
C486 H480 0.930 . S
C486 C487 1.355 . S
C486 C488 1.415 . S
C487 C486 1.355 . S
C487 C489 1.419 . S
C488 C486 1.415 . S
C488 C493 1.425 . S
C488 C495 1.409 . S
C489 H481 0.930 . S
C489 C487 1.419 . S
C489 C490 1.362 . S
C490 H482 0.930 . S
C490 C489 1.362 . S
C490 C493 1.409 . S
C491 H483 0.930 . S
C491 C492 1.355 . S
C491 C493 1.415 . S
C492 C491 1.355 . S
C492 C494 1.419 . S
C493 C488 1.425 . S
C493 C490 1.409 . S
C493 C491 1.415 . S
C494 H484 0.930 . S
C494 C492 1.419 . S
C494 C495 1.362 . S
C495 H485 0.930 . S
C495 C488 1.409 . S
C495 C494 1.362 . S
H496 C502 0.930 . S
H497 C505 0.930 . S
H498 C506 0.930 . S
H499 C507 0.930 . S
H500 C510 0.930 . S
H501 C511 0.930 . S
C502 H496 0.930 . S
C502 C503 1.355 . S
C502 C504 1.415 . S
C503 C502 1.355 . S
C503 C505 1.419 . S
C504 C502 1.415 . S
C504 C509 1.425 . S
C504 C511 1.409 . S
C505 H497 0.930 . S
C505 C503 1.419 . S
C505 C506 1.362 . S
C506 H498 0.930 . S
C506 C505 1.362 . S
C506 C509 1.409 . S
C507 H499 0.930 . S
C507 C508 1.355 . S
C507 C509 1.415 . S
C508 C507 1.355 . S
C508 C510 1.419 . S
C509 C504 1.425 . S
C509 C506 1.409 . S
C509 C507 1.415 . S
C510 H500 0.930 . S
C510 C508 1.419 . S
C510 C511 1.362 . S
C511 H501 0.930 . S
C511 C504 1.409 . S
C511 C510 1.362 . S
H512 C518 0.930 . S
H513 C521 0.930 . S
H514 C522 0.930 . S
H515 C523 0.930 . S
H516 C526 0.930 . S
H517 C527 0.930 . S
C518 H512 0.930 . S
C518 C519 1.355 . S
C518 C520 1.415 . S
C519 C518 1.355 . S
C519 C521 1.419 . S
C520 C518 1.415 . S
C520 C525 1.425 . S
C520 C527 1.409 . S
C521 H513 0.930 . S
C521 C519 1.419 . S
C521 C522 1.362 . S
C522 H514 0.930 . S
C522 C521 1.362 . S
C522 C525 1.409 . S
C523 H515 0.930 . S
C523 C524 1.355 . S
C523 C525 1.415 . S
C524 C523 1.355 . S
C524 C526 1.419 . S
C525 C520 1.425 . S
C525 C522 1.409 . S
C525 C523 1.415 . S
C526 H516 0.930 . S
C526 C524 1.419 . S
C526 C527 1.362 . S
C527 H517 0.930 . S
C527 C520 1.409 . S
C527 C526 1.362 . S
H528 C534 0.930 . S
H529 C537 0.930 . S
H530 C538 0.930 . S
H531 C539 0.930 . S
H532 C542 0.930 . S
H533 C543 0.930 . S
C534 H528 0.930 . S
C534 C535 1.355 . S
C534 C536 1.415 . S
C535 C534 1.355 . S
C535 C537 1.419 . S
C536 C534 1.415 . S
C536 C541 1.425 . S
C536 C543 1.409 . S
C537 H529 0.930 . S
C537 C535 1.419 . S
C537 C538 1.362 . S
C538 H530 0.930 . S
C538 C537 1.362 . S
C538 C541 1.409 . S
C539 H531 0.930 . S
C539 C540 1.355 . S
C539 C541 1.415 . S
C540 C539 1.355 . S
C540 C542 1.419 . S
C541 C536 1.425 . S
C541 C538 1.409 . S
C541 C539 1.415 . S
C542 H532 0.930 . S
C542 C540 1.419 . S
C542 C543 1.362 . S
C543 H533 0.930 . S
C543 C536 1.409 . S
C543 C542 1.362 . S
H544 C550 0.930 . S
H545 C553 0.930 . S
H546 C554 0.930 . S
H547 C555 0.930 . S
H548 C558 0.930 . S
H549 C559 0.930 . S
C550 H544 0.930 . S
C550 C551 1.355 . S
C550 C552 1.415 . S
C551 C550 1.355 . S
C551 C553 1.419 . S
C552 C550 1.415 . S
C552 C557 1.425 . S
C552 C559 1.409 . S
C553 H545 0.930 . S
C553 C551 1.419 . S
C553 C554 1.362 . S
C554 H546 0.930 . S
C554 C553 1.362 . S
C554 C557 1.409 . S
C555 H547 0.930 . S
C555 C556 1.355 . S
C555 C557 1.415 . S
C556 C555 1.355 . S
C556 C558 1.419 . S
C557 C552 1.425 . S
C557 C554 1.409 . S
C557 C555 1.415 . S
C558 H548 0.930 . S
C558 C556 1.419 . S
C558 C559 1.362 . S
C559 H549 0.930 . S
C559 C552 1.409 . S
C559 C558 1.362 . S
H560 C566 0.930 . S
H561 C569 0.930 . S
H562 C570 0.930 . S
H563 C571 0.930 . S
H564 C574 0.930 . S
H565 C575 0.930 . S
C566 H560 0.930 . S
C566 C567 1.355 . S
C566 C568 1.415 . S
C567 C566 1.355 . S
C567 C569 1.419 . S
C568 C566 1.415 . S
C568 C573 1.425 . S
C568 C575 1.409 . S
C569 H561 0.930 . S
C569 C567 1.419 . S
C569 C570 1.362 . S
C570 H562 0.930 . S
C570 C569 1.362 . S
C570 C573 1.409 . S
C571 H563 0.930 . S
C571 C572 1.355 . S
C571 C573 1.415 . S
C572 C571 1.355 . S
C572 C574 1.419 . S
C573 C568 1.425 . S
C573 C570 1.409 . S
C573 C571 1.415 . S
C574 H564 0.930 . S
C574 C572 1.419 . S
C574 C575 1.362 . S
C575 H565 0.930 . S
C575 C568 1.409 . S
C575 C574 1.362 . S
H576 C582 0.930 . S
H577 C585 0.930 . S
H578 C586 0.930 . S
H579 C587 0.930 . S
H580 C590 0.930 . S
H581 C591 0.930 . S
C582 H576 0.930 . S
C582 C583 1.355 . S
C582 C584 1.415 . S
C583 C582 1.355 . S
C583 C585 1.419 . S
C584 C582 1.415 . S
C584 C589 1.425 . S
C584 C591 1.409 . S
C585 H577 0.930 . S
C585 C583 1.419 . S
C585 C586 1.362 . S
C586 H578 0.930 . S
C586 C585 1.362 . S
C586 C589 1.409 . S
C587 H579 0.930 . S
C587 C588 1.355 . S
C587 C589 1.415 . S
C588 C587 1.355 . S
C588 C590 1.419 . S
C589 C584 1.425 . S
C589 C586 1.409 . S
C589 C587 1.415 . S
C590 H580 0.930 . S
C590 C588 1.419 . S
C590 C591 1.362 . S
C591 H581 0.930 . S
C591 C584 1.409 . S
C591 C590 1.362 . S
H592 C598 0.930 . S
H593 C601 0.930 . S
H594 C602 0.930 . S
H595 C603 0.930 . S
H596 C606 0.930 . S
H597 C607 0.930 . S
C598 H592 0.930 . S
C598 C599 1.355 . S
C598 C600 1.415 . S
C599 C598 1.355 . S
C599 C601 1.419 . S
C600 C598 1.415 . S
C600 C605 1.425 . S
C600 C607 1.409 . S
C601 H593 0.930 . S
C601 C599 1.419 . S
C601 C602 1.362 . S
C602 H594 0.930 . S
C602 C601 1.362 . S
C602 C605 1.409 . S
C603 H595 0.930 . S
C603 C604 1.355 . S
C603 C605 1.415 . S
C604 C603 1.355 . S
C604 C606 1.419 . S
C605 C600 1.425 . S
C605 C602 1.409 . S
C605 C603 1.415 . S
C606 H596 0.930 . S
C606 C604 1.419 . S
C606 C607 1.362 . S
C607 H597 0.930 . S
C607 C600 1.409 . S
C607 C606 1.362 . S
H608 C614 0.930 . S
H609 C617 0.930 . S
H610 C618 0.930 . S
H611 C619 0.930 . S
H612 C622 0.930 . S
H613 C623 0.930 . S
C614 H608 0.930 . S
C614 C615 1.355 1_655 S
C614 C616 1.415 . S
C615 C614 1.355 1_455 S
C615 C617 1.419 . S
C616 C614 1.415 . S
C616 C621 1.425 1_655 S
C616 C623 1.409 . S
C617 H609 0.930 . S
C617 C615 1.419 . S
C617 C618 1.362 . S
C618 H610 0.930 . S
C618 C617 1.362 . S
C618 C621 1.409 . S
C619 H611 0.930 . S
C619 C620 1.355 1_455 S
C619 C621 1.415 . S
C620 C619 1.355 1_655 S
C620 C622 1.419 . S
C621 C616 1.425 1_455 S
C621 C618 1.409 . S
C621 C619 1.415 . S
C622 H612 0.930 . S
C622 C620 1.419 . S
C622 C623 1.362 . S
C623 H613 0.930 . S
C623 C616 1.409 . S
C623 C622 1.362 . S
H624 C630 0.930 . S
H625 C633 0.930 . S
H626 C634 0.930 . S
H627 C635 0.930 . S
H628 C638 0.930 . S
H629 C639 0.930 . S
C630 H624 0.930 . S
C630 C631 1.355 . S
C630 C632 1.415 . S
C631 C630 1.355 . S
C631 C633 1.419 1_565 S
C632 C630 1.415 . S
C632 C637 1.425 1_565 S
C632 C639 1.409 . S
C633 H625 0.930 . S
C633 C631 1.419 1_545 S
C633 C634 1.362 . S
C634 H626 0.930 . S
C634 C633 1.362 . S
C634 C637 1.409 . S
C635 H627 0.930 . S
C635 C636 1.355 . S
C635 C637 1.415 . S
C636 C635 1.355 . S
C636 C638 1.419 1_545 S
C637 C632 1.425 1_545 S
C637 C634 1.409 . S
C637 C635 1.415 . S
C638 H628 0.930 . S
C638 C636 1.419 1_565 S
C638 C639 1.362 . S
C639 H629 0.930 . S
C639 C632 1.409 . S
C639 C638 1.362 . S
H640 C646 0.930 . S
H641 C649 0.930 . S
H642 C650 0.930 . S
H643 C651 0.930 . S
H644 C654 0.930 . S
H645 C655 0.930 . S
C646 H640 0.930 . S
C646 C647 1.355 . S
C646 C648 1.415 . S
C647 C646 1.355 . S
C647 C649 1.419 1_455 S
C648 C646 1.415 . S
C648 C653 1.425 1_455 S
C648 C655 1.409 . S
C649 H641 0.930 . S
C649 C647 1.419 1_655 S
C649 C650 1.362 . S
C650 H642 0.930 . S
C650 C649 1.362 . S
C650 C653 1.409 . S
C651 H643 0.930 . S
C651 C652 1.355 . S
C651 C653 1.415 . S
C652 C651 1.355 . S
C652 C654 1.419 1_655 S
C653 C648 1.425 1_655 S
C653 C650 1.409 . S
C653 C651 1.415 . S
C654 H644 0.930 . S
C654 C652 1.419 1_455 S
C654 C655 1.362 . S
C655 H645 0.930 . S
C655 C648 1.409 . S
C655 C654 1.362 . S
H656 C662 0.930 . S
H657 C665 0.930 . S
H658 C666 0.930 . S
H659 C667 0.930 . S
H660 C670 0.930 . S
H661 C671 0.930 . S
C662 H656 0.930 . S
C662 C663 1.355 1_565 S
C662 C664 1.415 . S
C663 C662 1.355 1_545 S
C663 C665 1.419 . S
C664 C662 1.415 . S
C664 C669 1.425 1_565 S
C664 C671 1.409 . S
C665 H657 0.930 . S
C665 C663 1.419 . S
C665 C666 1.362 . S
C666 H658 0.930 . S
C666 C665 1.362 . S
C666 C669 1.409 . S
C667 H659 0.930 . S
C667 C668 1.355 1_545 S
C667 C669 1.415 . S
C668 C667 1.355 1_565 S
C668 C670 1.419 . S
C669 C664 1.425 1_545 S
C669 C666 1.409 . S
C669 C667 1.415 . S
C670 H660 0.930 . S
C670 C668 1.419 . S
C670 C671 1.362 . S
C671 H661 0.930 . S
C671 C664 1.409 . S
C671 C670 1.362 . S
H672 C678 0.930 . S
H673 C681 0.930 . S
H674 C682 0.930 . S
H675 C683 0.930 . S
H676 C686 0.930 . S
H677 C687 0.930 . S
C678 H672 0.930 . S
C678 C679 1.355 . S
C678 C680 1.415 . S
C679 C678 1.355 . S
C679 C681 1.419 . S
C680 C678 1.415 . S
C680 C685 1.425 1_556 S
C680 C687 1.409 1_556 S
C681 H673 0.930 . S
C681 C679 1.419 . S
C681 C682 1.362 . S
C682 H674 0.930 . S
C682 C681 1.362 . S
C682 C685 1.409 1_556 S
C683 H675 0.930 . S
C683 C684 1.355 . S
C683 C685 1.415 . S
C684 C683 1.355 . S
C684 C686 1.419 . S
C685 C680 1.425 1_554 S
C685 C682 1.409 1_554 S
C685 C683 1.415 . S
C686 H676 0.930 . S
C686 C684 1.419 . S
C686 C687 1.362 . S
C687 H677 0.930 . S
C687 C680 1.409 1_554 S
C687 C686 1.362 . S
H688 C694 0.930 . S
H689 C697 0.930 . S
H690 C698 0.930 . S
H691 C699 0.930 . S
H692 C702 0.930 . S
H693 C703 0.930 . S
C694 H688 0.930 . S
C694 C695 1.355 . S
C694 C696 1.415 . S
C695 C694 1.355 . S
C695 C697 1.419 . S
C696 C694 1.415 . S
C696 C701 1.425 1_556 S
C696 C703 1.409 1_556 S
C697 H689 0.930 . S
C697 C695 1.419 . S
C697 C698 1.362 . S
C698 H690 0.930 . S
C698 C697 1.362 . S
C698 C701 1.409 1_556 S
C699 H691 0.930 . S
C699 C700 1.355 . S
C699 C701 1.415 . S
C700 C699 1.355 . S
C700 C702 1.419 . S
C701 C696 1.425 1_554 S
C701 C698 1.409 1_554 S
C701 C699 1.415 . S
C702 H692 0.930 . S
C702 C700 1.419 . S
C702 C703 1.362 . S
C703 H693 0.930 . S
C703 C696 1.409 1_554 S
C703 C702 1.362 . S
H704 C710 0.930 . S
H705 C713 0.930 . S
H706 C714 0.930 . S
H707 C715 0.930 . S
H708 C718 0.930 . S
H709 C719 0.930 . S
C710 H704 0.930 . S
C710 C711 1.355 . S
C710 C712 1.415 . S
C711 C710 1.355 . S
C711 C713 1.419 . S
C712 C710 1.415 . S
C712 C717 1.425 1_554 S
C712 C719 1.409 1_554 S
C713 H705 0.930 . S
C713 C711 1.419 . S
C713 C714 1.362 . S
C714 H706 0.930 . S
C714 C713 1.362 . S
C714 C717 1.409 1_554 S
C715 H707 0.930 . S
C715 C716 1.355 . S
C715 C717 1.415 . S
C716 C715 1.355 . S
C716 C718 1.419 . S
C717 C712 1.425 1_556 S
C717 C714 1.409 1_556 S
C717 C715 1.415 . S
C718 H708 0.930 . S
C718 C716 1.419 . S
C718 C719 1.362 . S
C719 H709 0.930 . S
C719 C712 1.409 1_556 S
C719 C718 1.362 . S
H720 C726 0.930 . S
H721 C729 0.930 . S
H722 C730 0.930 . S
H723 C731 0.930 . S
H724 C734 0.930 . S
H725 C735 0.930 . S
C726 H720 0.930 . S
C726 C727 1.355 . S
C726 C728 1.415 . S
C727 C726 1.355 . S
C727 C729 1.419 . S
C728 C726 1.415 . S
C728 C733 1.425 1_556 S
C728 C735 1.409 1_556 S
C729 H721 0.930 . S
C729 C727 1.419 . S
C729 C730 1.362 . S
C730 H722 0.930 . S
C730 C729 1.362 . S
C730 C733 1.409 1_556 S
C731 H723 0.930 . S
C731 C732 1.355 . S
C731 C733 1.415 . S
C732 C731 1.355 . S
C732 C734 1.419 . S
C733 C728 1.425 1_554 S
C733 C730 1.409 1_554 S
C733 C731 1.415 . S
C734 H724 0.930 . S
C734 C732 1.419 . S
C734 C735 1.362 . S
C735 H725 0.930 . S
C735 C728 1.409 1_554 S
C735 C734 1.362 . S
C231 C13 1.339 . S
C236 C50 1.213 . S
C247 C8 1.323 . S
C252 C27 1.283 . S
C263 C22 1.274 . S
C268 C41 1.282 . S
C279 C36 1.216 . S
C284 C55 1.362 . S
C295 C69 1.293 . S
C300 C78 1.317 . S
C311 C83 1.353 . S
C316 C92 1.243 . S
C327 C97 1.288 . S
C332 C106 1.266 . S
C343 C111 1.347 . S
C348 C64 1.253 . S
C359 C125 1.349 . S
C364 C162 1.208 . S
C375 C120 1.330 . S
C380 C139 1.268 . S
C391 C134 1.207 . S
C396 C153 1.358 . S
C407 C167 1.259 . S
C412 C148 1.324 . S
C423 C190 1.227 . S
C428 C181 1.360 . S
C439 C204 1.326 . S
C444 C195 1.280 . S
C455 C209 1.268 . S
C460 C218 1.296 . S
C471 C223 1.260 . S
C476 C176 1.327 . S
C487 C11 1.058 . S
C492 C221 1.089 . S
C503 C25 1.101 . S
C508 C179 1.121 . S
C519 C193 1.113 . S
C524 C39 1.075 . S
C535 C53 1.117 . S
C540 C207 1.081 . S
C551 C137 1.071 . S
C556 C67 1.110 . S
C567 C151 1.067 . S
C572 C81 1.106 . S
C583 C95 1.057 . S
C588 C165 1.078 . S
C599 C109 1.105 . S
C604 C123 1.120 . S
C615 C7 1.436 . S
C620 C91 1.374 . S
C631 C105 1.390 . S
C636 C21 1.438 . S
C647 C63 1.373 . S
C652 C35 1.442 . S
C663 C77 1.415 . S
C668 C49 1.388 . S
C679 C119 1.382 . S
C684 C203 1.422 . S
C695 C133 1.437 . S
C700 C217 1.373 . S
C711 C175 1.426 . S
C716 C147 1.407 . S
C727 C161 1.432 . S
C732 C189 1.375 . S
