# Generated by pormake.
# Topology una, (4)-cn, num edge types: 1
# Building blocks:
#     Node 0, Type 0, BuildingBlock: ICAMEG_clean_sbu_1, # of connection points: 4
#     Node 1, Type 0, BuildingBlock: ICAMEG_clean_sbu_1, # of connection points: 4
#     Node 2, Type 0, BuildingBlock: ICAMEG_clean_sbu_1, # of connection points: 4
#     Node 3, Type 0, BuildingBlock: ICAMEG_clean_sbu_1, # of connection points: 4
#     Node 4, Type 0, BuildingBlock: ICAMEG_clean_sbu_1, # of connection points: 4
#     Node 5, Type 0, BuildingBlock: ICAMEG_clean_sbu_1, # of connection points: 4
#     Node 6, Type 0, BuildingBlock: ICAMEG_clean_sbu_1, # of connection points: 4
#     Node 7, Type 0, BuildingBlock: ICAMEG_clean_sbu_1, # of connection points: 4
#     Node 8, Type 0, BuildingBlock: ICAMEG_clean_sbu_1, # of connection points: 4
#     Node 9, Type 0, BuildingBlock: ICAMEG_clean_sbu_1, # of connection points: 4
#     Node 10, Type 0, BuildingBlock: ICAMEG_clean_sbu_1, # of connection points: 4
#     Node 11, Type 0, BuildingBlock: ICAMEG_clean_sbu_1, # of connection points: 4
#     Edge 12, Type (0, 0), BuildingBlock: EZIPEK_clean_linker_0, # of connection points: 2
#     Edge 13, Type (0, 0), BuildingBlock: EZIPEK_clean_linker_0, # of connection points: 2
#     Edge 14, Type (0, 0), BuildingBlock: EZIPEK_clean_linker_0, # of connection points: 2
#     Edge 15, Type (0, 0), BuildingBlock: EZIPEK_clean_linker_0, # of connection points: 2
#     Edge 16, Type (0, 0), BuildingBlock: EZIPEK_clean_linker_0, # of connection points: 2
#     Edge 17, Type (0, 0), BuildingBlock: EZIPEK_clean_linker_0, # of connection points: 2
#     Edge 18, Type (0, 0), BuildingBlock: EZIPEK_clean_linker_0, # of connection points: 2
#     Edge 19, Type (0, 0), BuildingBlock: EZIPEK_clean_linker_0, # of connection points: 2
#     Edge 20, Type (0, 0), BuildingBlock: EZIPEK_clean_linker_0, # of connection points: 2
#     Edge 21, Type (0, 0), BuildingBlock: EZIPEK_clean_linker_0, # of connection points: 2
#     Edge 22, Type (0, 0), BuildingBlock: EZIPEK_clean_linker_0, # of connection points: 2
#     Edge 23, Type (0, 0), BuildingBlock: EZIPEK_clean_linker_0, # of connection points: 2
#     Edge 24, Type (0, 0), BuildingBlock: EZIPEK_clean_linker_0, # of connection points: 2
#     Edge 25, Type (0, 0), BuildingBlock: EZIPEK_clean_linker_0, # of connection points: 2
#     Edge 26, Type (0, 0), BuildingBlock: EZIPEK_clean_linker_0, # of connection points: 2
#     Edge 27, Type (0, 0), BuildingBlock: EZIPEK_clean_linker_0, # of connection points: 2
#     Edge 28, Type (0, 0), BuildingBlock: EZIPEK_clean_linker_0, # of connection points: 2
#     Edge 29, Type (0, 0), BuildingBlock: EZIPEK_clean_linker_0, # of connection points: 2
#     Edge 30, Type (0, 0), BuildingBlock: EZIPEK_clean_linker_0, # of connection points: 2
#     Edge 31, Type (0, 0), BuildingBlock: EZIPEK_clean_linker_0, # of connection points: 2
#     Edge 32, Type (0, 0), BuildingBlock: EZIPEK_clean_linker_0, # of connection points: 2
#     Edge 33, Type (0, 0), BuildingBlock: EZIPEK_clean_linker_0, # of connection points: 2
#     Edge 34, Type (0, 0), BuildingBlock: EZIPEK_clean_linker_0, # of connection points: 2
#     Edge 35, Type (0, 0), BuildingBlock: EZIPEK_clean_linker_0, # of connection points: 2
# Relax obj value: 0.056
# Max RMSD: 0.083
# Mean RMSD: 0.083
data_MOF--net-una--node1-ICAMEG_clean_sbu_1--edge1-EZIPEK_clean_linker_0
_symmetry_space_group_name_H-M    P1
_symmetry_Int_Tables_number       1
_symmetry_cell_setting            triclinic
loop_
_symmetry_equiv_pos_as_xyz
'x, y, z'
_cell_length_a     47.284387
_cell_length_b     47.279483
_cell_length_c     16.310035
_cell_angle_alpha  89.987295
_cell_angle_beta   90.011093
_cell_angle_gamma 119.98897
loop_
_atom_site_label
_atom_site_type_symbol
_atom_site_fract_x
_atom_site_fract_y
_atom_site_fract_z
_atom_type_partial_charge
Co0 Co 0.19108 0.48757 0.00761 0.0
Co1 Co 0.13288 0.40954 0.06793 0.0
O2 O 0.14521 0.4541 0.03148 0.0
C3 C 0.15946 0.52497 0.07824 0.0
O4 O 0.13174 0.49776 0.08887 0.0
C5 C 0.07686 0.40042 0.95498 0.0
O6 O 0.09305 0.43124 0.93373 0.0
O7 O 0.1545 0.40441 0.96834 0.0
O8 O 0.20056 0.45325 0.96449 0.0
H9 H 0.15582 0.31863 0.1277 0.0
H10 H 0.13603 0.49328 0.93385 0.0
O11 O 0.18422 0.52437 0.04884 0.0
H12 H 0.2023 0.49397 0.70042 0.0
H13 H 0.28108 0.5962 0.9045 0.0
H14 H 0.25537 0.49215 0.03486 0.0
H15 H 0.21876 0.4909 0.84154 0.0
H16 H 0.22411 0.55419 0.93199 0.0
O17 O 0.08955 0.389 0.00497 0.0
H18 H 0.16943 0.37415 0.08596 0.0
H19 H 0.0713 0.3506 0.12404 0.0
H20 H 0.31283 0.53364 0.0102 0.0
H21 H 0.11909 0.49707 0.79373 0.0
H22 H 0.32601 0.58603 0.94346 0.0
H23 H 0.15237 0.4975 0.67541 0.0
O24 O 0.20405 0.48198 0.12061 0.0
H25 H 0.06276 0.44433 0.22024 0.0
H26 H 0.13266 0.39488 0.24601 0.0
H27 H 0.10701 0.40222 0.36944 0.0
H28 H 0.07181 0.42721 0.35715 0.0
H29 H 0.08854 0.4361 0.09835 0.0
H30 H 0.05645 0.29476 0.16554 0.0
H31 H 0.0989 0.27845 0.16786 0.0
O32 O 0.1748 0.4273 0.1343 0.0
C33 C 0.18293 0.42384 0.93995 0.0
C34 C 0.13709 0.32542 0.12688 0.0
C35 C 0.08132 0.31201 0.148 0.0
N36 N 0.12127 0.36566 0.10214 0.0
C37 C 0.1447 0.35684 0.10324 0.0
C38 C 0.08986 0.34365 0.12398 0.0
C39 C 0.10515 0.30289 0.14937 0.0
C40 C 0.15089 0.49381 0.88327 0.0
N41 N 0.17859 0.49228 0.89673 0.0
C42 C 0.14111 0.49589 0.80373 0.0
C43 C 0.15978 0.49616 0.7374 0.0
C44 C 0.18791 0.49441 0.75135 0.0
C45 C 0.197 0.49251 0.8317 0.0
C46 C 0.27568 0.57346 0.93357 0.0
C47 C 0.26086 0.51487 0.00677 0.0
C48 C 0.24339 0.54958 0.94965 0.0
N49 N 0.23625 0.52059 0.98549 0.0
C50 C 0.29348 0.53831 0.99257 0.0
C51 C 0.30087 0.56773 0.95533 0.0
C52 C 0.19767 0.4555 0.15712 0.0
C53 C 0.07796 0.43334 0.22643 0.0
C54 C 0.11713 0.40548 0.23984 0.0
C55 C 0.10272 0.40964 0.31011 0.0
C56 C 0.08304 0.42372 0.3032 0.0
N57 N 0.11191 0.41482 0.16458 0.0
C58 C 0.09269 0.42867 0.15751 0.0
Co59 Co 0.7087 0.18412 0.16853 0.0
Co60 Co 0.72822 0.12656 0.22582 0.0
O61 O 0.69582 0.13873 0.19341 0.0
C62 C 0.65273 0.16626 0.28333 0.0
O63 O 0.66799 0.15881 0.33903 0.0
C64 C 0.68522 0.07315 0.10556 0.0
O65 O 0.68334 0.09519 0.0608 0.0
O66 O 0.75215 0.14562 0.12039 0.0
O67 O 0.75154 0.19284 0.12141 0.0
H68 H 0.84137 0.14225 0.24417 0.0
H69 H 0.64667 0.12969 0.103 0.0
O70 O 0.66536 0.17621 0.21259 0.0
H71 H 0.70834 0.19216 0.86083 0.0
H72 H 0.68847 0.27402 0.07535 0.0
H73 H 0.76979 0.24803 0.18675 0.0
H74 H 0.73079 0.20986 0.99945 0.0
H75 H 0.67366 0.21691 0.10215 0.0
O76 O 0.70154 0.0817 0.1724 0.0
H77 H 0.80024 0.15779 0.2095 0.0
H78 H 0.72457 0.06674 0.29779 0.0
H79 H 0.78536 0.30553 0.16276 0.0
H80 H 0.62247 0.11181 0.96562 0.0
H81 H 0.74471 0.31879 0.10564 0.0
H82 H 0.65358 0.14306 0.84301 0.0
O83 O 0.72947 0.19785 0.27914 0.0
H84 H 0.62766 0.06747 0.40073 0.0
H85 H 0.74799 0.12997 0.40127 0.0
H86 H 0.71847 0.10985 0.53197 0.0
H87 H 0.65783 0.07806 0.53224 0.0
H88 H 0.65823 0.08857 0.27163 0.0
H89 H 0.76481 0.05 0.33267 0.0
H90 H 0.82375 0.08801 0.30661 0.0
O91 O 0.75584 0.17004 0.28446 0.0
C92 C 0.76196 0.17451 0.09343 0.0
C93 C 0.81582 0.12564 0.25693 0.0
C94 C 0.77286 0.07387 0.3065 0.0
N95 N 0.76018 0.11383 0.25472 0.0
C96 C 0.79243 0.13445 0.23804 0.0
C97 C 0.75019 0.08355 0.28684 0.0
C98 C 0.80591 0.09519 0.29177 0.0
C99 C 0.65975 0.1439 0.05039 0.0
N100 N 0.68971 0.17105 0.05978 0.0
C101 C 0.64617 0.13349 0.97253 0.0
C102 C 0.66367 0.15098 0.90378 0.0
C103 C 0.69434 0.17857 0.91369 0.0
C104 C 0.70698 0.18838 0.99252 0.0
C105 C 0.70645 0.26854 0.09994 0.0
C106 C 0.75191 0.25359 0.16205 0.0
C107 C 0.6982 0.23625 0.1154 0.0
N108 N 0.72085 0.22911 0.14591 0.0
C109 C 0.76089 0.2862 0.14853 0.0
C110 C 0.73802 0.29364 0.11684 0.0
C111 C 0.75199 0.1937 0.30938 0.0
C112 C 0.65409 0.08082 0.40133 0.0
C113 C 0.72163 0.11593 0.40068 0.0
C114 C 0.70503 0.10467 0.47499 0.0
C115 C 0.67102 0.08688 0.4751 0.0
N116 N 0.70486 0.10928 0.32829 0.0
C117 C 0.67153 0.0925 0.32824 0.0
Co118 Co 0.61148 0.72712 0.39545 0.0
Co119 Co 0.53299 0.70462 0.33703 0.0
O120 O 0.5673 0.69384 0.36172 0.0
C121 C 0.62192 0.68546 0.27137 0.0
O122 O 0.59617 0.68108 0.2307 0.0
C123 C 0.49895 0.6459 0.44573 0.0
O124 O 0.52403 0.65934 0.49565 0.0
O125 O 0.5387 0.72463 0.44863 0.0
O126 O 0.59351 0.7514 0.46061 0.0
H127 H 0.4816 0.77569 0.32914 0.0
H128 H 0.58715 0.65704 0.42775 0.0
O129 O 0.63111 0.70329 0.33555 0.0
H130 H 0.62221 0.71106 0.69689 0.0
H131 H 0.72757 0.768 0.48554 0.0
H132 H 0.64603 0.79919 0.40915 0.0
H133 H 0.62702 0.74303 0.57291 0.0
H134 H 0.6715 0.726 0.4487 0.0
O135 O 0.49886 0.66052 0.38017 0.0
H136 H 0.52554 0.7632 0.35523 0.0
H137 H 0.46548 0.66639 0.2696 0.0
H138 H 0.70174 0.84205 0.44636 0.0
H139 H 0.58179 0.62408 0.55019 0.0
H140 H 0.743 0.82652 0.48485 0.0
H141 H 0.59941 0.65112 0.68601 0.0
O142 O 0.61533 0.75274 0.29412 0.0
H143 H 0.52188 0.61978 0.13328 0.0
H144 H 0.52805 0.72627 0.16826 0.0
H145 H 0.52279 0.70367 0.02957 0.0
H146 H 0.51919 0.64982 0.01121 0.0
H147 H 0.52855 0.64416 0.27062 0.0
H148 H 0.42102 0.67786 0.24112 0.0
H149 H 0.42896 0.7329 0.27069 0.0
O150 O 0.56579 0.7485 0.29045 0.0
C151 C 0.56517 0.7456 0.48388 0.0
C152 C 0.4779 0.75166 0.31565 0.0
C153 C 0.44387 0.69675 0.26649 0.0
N154 N 0.49824 0.71419 0.31437 0.0
C155 C 0.50273 0.74447 0.33063 0.0
C156 C 0.46915 0.69038 0.28303 0.0
C157 C 0.44834 0.72763 0.28302 0.0
C158 C 0.59496 0.66897 0.48656 0.0
N159 N 0.60748 0.70191 0.49307 0.0
C160 C 0.59183 0.65019 0.55572 0.0
C161 C 0.60171 0.66537 0.6319 0.0
C162 C 0.61454 0.699 0.63803 0.0
C163 C 0.61721 0.71698 0.56759 0.0
C164 C 0.70982 0.77508 0.4688 0.0
C165 C 0.66378 0.79228 0.42596 0.0
C166 C 0.67804 0.75141 0.44748 0.0
N167 N 0.65544 0.76016 0.42661 0.0
C168 C 0.69533 0.81664 0.44693 0.0
C169 C 0.71846 0.80791 0.46846 0.0
C170 C 0.59527 0.76094 0.26554 0.0
C171 C 0.52297 0.64306 0.14041 0.0
C172 C 0.52665 0.70288 0.16103 0.0
C173 C 0.52348 0.69012 0.0822 0.0
C174 C 0.52156 0.65996 0.07198 0.0
N175 N 0.52802 0.68615 0.22796 0.0
C176 C 0.52629 0.65669 0.21826 0.0
Co177 Co 0.83234 0.52899 0.51082 0.0
Co178 Co 0.88957 0.60823 0.57043 0.0
O179 O 0.87776 0.56348 0.53655 0.0
C180 C 0.86391 0.49375 0.59378 0.0
O181 O 0.89119 0.52138 0.60429 0.0
C182 C 0.94571 0.61708 0.45849 0.0
O183 O 0.93016 0.58584 0.44135 0.0
O184 O 0.86684 0.61228 0.47184 0.0
O185 O 0.82282 0.56206 0.4607 0.0
H186 H 0.8641 0.6976 0.62721 0.0
H187 H 0.88883 0.52309 0.44788 0.0
O188 O 0.83935 0.49336 0.5598 0.0
H189 H 0.82515 0.51779 0.2036 0.0
H190 H 0.74548 0.41766 0.41377 0.0
H191 H 0.76705 0.52368 0.52209 0.0
H192 H 0.80707 0.52331 0.34097 0.0
H193 H 0.80161 0.46112 0.44341 0.0
O194 O 0.93253 0.62894 0.50556 0.0
H195 H 0.8516 0.64216 0.58829 0.0
H196 H 0.95087 0.66877 0.62152 0.0
H197 H 0.71034 0.4808 0.4953 0.0
H198 H 0.90773 0.51747 0.3117 0.0
H199 H 0.69924 0.42735 0.43957 0.0
H200 H 0.87583 0.51479 0.18801 0.0
O201 O 0.81717 0.53559 0.62004 0.0
H202 H 0.96255 0.57701 0.7232 0.0
H203 H 0.89167 0.6254 0.74713 0.0
H204 H 0.9195 0.62095 0.86994 0.0
H205 H 0.95516 0.59646 0.85862 0.0
H206 H 0.93479 0.58256 0.60182 0.0
H207 H 0.96458 0.72458 0.65994 0.0
H208 H 0.921 0.7393 0.66334 0.0
O209 O 0.84811 0.59006 0.63802 0.0
C210 C 0.83901 0.59221 0.44148 0.0
C211 C 0.88331 0.6915 0.62596 0.0
C212 C 0.9397 0.70665 0.64417 0.0
N213 N 0.90041 0.65214 0.60238 0.0
C214 C 0.87635 0.66011 0.604 0.0
C215 C 0.93181 0.67501 0.62187 0.0
C216 C 0.91524 0.71488 0.64616 0.0
C217 C 0.87461 0.52169 0.39493 0.0
N218 N 0.84666 0.52318 0.40325 0.0
C219 C 0.88551 0.51859 0.31765 0.0
C220 C 0.86764 0.51711 0.24828 0.0
C221 C 0.8392 0.51875 0.25697 0.0
C222 C 0.82909 0.52188 0.33519 0.0
C223 C 0.74995 0.44082 0.43822 0.0
C224 C 0.76245 0.5005 0.49942 0.0
C225 C 0.78176 0.46551 0.45569 0.0
N226 N 0.78776 0.49497 0.48606 0.0
C227 C 0.73026 0.4763 0.48356 0.0
C228 C 0.72404 0.44628 0.45254 0.0
C229 C 0.82394 0.56206 0.65723 0.0
C230 C 0.94712 0.58778 0.72897 0.0
C231 C 0.90744 0.61507 0.74127 0.0
C232 C 0.92307 0.61252 0.81124 0.0
C233 C 0.943 0.59872 0.80489 0.0
N234 N 0.91173 0.60446 0.66678 0.0
C235 C 0.93122 0.59089 0.66031 0.0
Co236 Co 0.31105 0.82881 0.67768 0.0
Co237 Co 0.29153 0.887 0.73478 0.0
O238 O 0.3236 0.87454 0.6998 0.0
C239 C 0.36999 0.85129 0.7843 0.0
O240 O 0.35668 0.86204 0.83714 0.0
C241 C 0.33501 0.93984 0.61208 0.0
O242 O 0.34022 0.91861 0.57328 0.0
O243 O 0.26555 0.86576 0.6333 0.0
O244 O 0.26707 0.81892 0.63398 0.0
H245 H 0.17793 0.8661 0.78744 0.0
H246 H 0.37161 0.88274 0.60492 0.0
O247 O 0.35525 0.83782 0.7178 0.0
H248 H 0.30784 0.81515 0.37109 0.0
H249 H 0.33248 0.73954 0.58531 0.0
H250 H 0.25122 0.76424 0.70194 0.0
H251 H 0.2868 0.8003 0.51182 0.0
H252 H 0.34646 0.79648 0.61035 0.0
O253 O 0.31633 0.93082 0.67491 0.0
H254 H 0.21945 0.85152 0.74895 0.0
H255 H 0.29495 0.94913 0.78921 0.0
H256 H 0.23621 0.70691 0.679 0.0
H257 H 0.3943 0.89806 0.46529 0.0
H258 H 0.27694 0.69425 0.61942 0.0
H259 H 0.36214 0.86414 0.3469 0.0
O260 O 0.29232 0.81627 0.79091 0.0
H261 H 0.39561 0.95093 0.89466 0.0
H262 H 0.27546 0.88907 0.9113 0.0
H263 H 0.30765 0.91392 0.03631 0.0
H264 H 0.36821 0.94516 0.02857 0.0
H265 H 0.36245 0.926 0.77091 0.0
H266 H 0.25432 0.96492 0.82737 0.0
H267 H 0.19532 0.92324 0.82702 0.0
O268 O 0.26608 0.84484 0.7999 0.0
C269 C 0.25602 0.83689 0.60664 0.0
C270 C 0.20356 0.8845 0.78782 0.0
C271 C 0.24642 0.93996 0.81009 0.0
N272 N 0.25955 0.89933 0.76655 0.0
C273 C 0.22716 0.87633 0.76607 0.0
C274 C 0.26931 0.93088 0.78792 0.0
C275 C 0.21333 0.91656 0.80996 0.0
C276 C 0.35802 0.86753 0.55411 0.0
N277 N 0.32827 0.84051 0.56698 0.0
C278 C 0.37076 0.87644 0.47499 0.0
C279 C 0.35269 0.85744 0.4086 0.0
C280 C 0.32229 0.8299 0.4221 0.0
C281 C 0.31042 0.82173 0.50208 0.0
C282 C 0.31448 0.74473 0.61119 0.0
C283 C 0.26905 0.75896 0.67663 0.0
C284 C 0.32228 0.77694 0.6258 0.0
N285 N 0.29959 0.78375 0.65776 0.0
C286 C 0.26044 0.72643 0.66351 0.0
C287 C 0.28332 0.71933 0.63026 0.0
C288 C 0.27177 0.8225 0.82554 0.0
C289 C 0.36924 0.9377 0.89871 0.0
C290 C 0.30177 0.90316 0.90692 0.0
C291 C 0.31989 0.917 0.97815 0.0
C292 C 0.35385 0.93443 0.97381 0.0
N293 N 0.31701 0.90699 0.8331 0.0
C294 C 0.35031 0.92361 0.82875 0.0
Co295 Co 0.40873 0.28659 0.88404 0.0
Co296 Co 0.48729 0.30945 0.83039 0.0
O297 O 0.45313 0.32038 0.85404 0.0
C298 C 0.3983 0.3287 0.76285 0.0
O299 O 0.42265 0.33106 0.71929 0.0
C300 C 0.52144 0.37647 0.9125 0.0
O301 O 0.49354 0.375 0.92769 0.0
O302 O 0.47999 0.28843 0.94049 0.0
O303 O 0.42579 0.26009 0.94365 0.0
H304 H 0.53512 0.23537 0.82759 0.0
H305 H 0.42897 0.35513 0.92647 0.0
O306 O 0.38984 0.31201 0.82892 0.0
H307 H 0.40209 0.29641 0.19031 0.0
H308 H 0.29424 0.24593 0.98623 0.0
H309 H 0.37007 0.21444 0.86603 0.0
H310 H 0.39623 0.26722 0.06075 0.0
H311 H 0.3509 0.28768 0.95369 0.0
O312 O 0.52241 0.35268 0.87797 0.0
H313 H 0.49183 0.24929 0.84828 0.0
H314 H 0.55578 0.34635 0.76785 0.0
H315 H 0.31374 0.17181 0.89823 0.0
H316 H 0.43465 0.38521 0.05457 0.0
H317 H 0.27536 0.18745 0.95915 0.0
H318 H 0.42131 0.35585 0.1878 0.0
O319 O 0.40556 0.26339 0.77878 0.0
H320 H 0.49771 0.39475 0.62878 0.0
H321 H 0.49551 0.29004 0.66179 0.0
H322 H 0.50198 0.31372 0.52408 0.0
H323 H 0.50368 0.36672 0.50668 0.0
H324 H 0.48982 0.36927 0.76488 0.0
H325 H 0.59946 0.33321 0.7446 0.0
H326 H 0.58924 0.27736 0.77455 0.0
O327 O 0.45451 0.26646 0.78017 0.0
C328 C 0.45362 0.26494 0.96924 0.0
C329 C 0.53976 0.25971 0.8137 0.0
C330 C 0.57592 0.31466 0.7675 0.0
N331 N 0.52122 0.2986 0.80937 0.0
C332 C 0.51533 0.26774 0.82522 0.0
C333 C 0.5511 0.32196 0.78097 0.0
C334 C 0.57017 0.28332 0.78421 0.0
C335 C 0.42296 0.34214 0.98411 0.0
N336 N 0.41257 0.30951 0.98599 0.0
C337 C 0.4263 0.35933 0.0565 0.0
C338 C 0.41884 0.34285 0.13123 0.0
C339 C 0.40812 0.30952 0.13269 0.0
C340 C 0.40508 0.29315 0.05908 0.0
C341 C 0.31084 0.23875 0.96075 0.0
C342 C 0.35378 0.22139 0.8939 0.0
C343 C 0.34304 0.26227 0.94251 0.0
N344 N 0.36428 0.25339 0.91102 0.0
C345 C 0.32178 0.19716 0.91142 0.0
C346 C 0.30025 0.20595 0.94542 0.0
C347 C 0.4256 0.25484 0.7521 0.0
C348 C 0.49773 0.37199 0.63557 0.0
C349 C 0.4964 0.31322 0.65514 0.0
C350 C 0.5001 0.32652 0.57679 0.0
C351 C 0.50094 0.35619 0.56711 0.0
N352 N 0.49369 0.32907 0.72226 0.0
C353 C 0.49391 0.35783 0.71291 0.0
Co354 Co 0.53166 0.82482 0.91956 0.0
Co355 Co 0.60909 0.88447 0.86169 0.0
O356 O 0.56427 0.87106 0.89762 0.0
C357 C 0.4933 0.85604 0.85328 0.0
O358 O 0.52028 0.88411 0.84455 0.0
C359 C 0.61578 0.94001 0.9726 0.0
O360 O 0.58456 0.92357 0.98975 0.0
O361 O 0.61456 0.86323 0.96161 0.0
O362 O 0.56677 0.81605 0.96087 0.0
H363 H 0.70196 0.86435 0.8039 0.0
H364 H 0.52452 0.8783 0.99834 0.0
O365 O 0.49426 0.83111 0.88016 0.0
H366 H 0.52509 0.81021 0.22589 0.0
H367 H 0.42399 0.73188 0.0186 0.0
H368 H 0.529 0.76173 0.88743 0.0
H369 H 0.5287 0.7956 0.08329 0.0
H370 H 0.46491 0.78953 0.99439 0.0
O371 O 0.62836 0.92766 0.92512 0.0
H372 H 0.64599 0.84942 0.8447 0.0
H373 H 0.66727 0.94681 0.8061 0.0
H374 H 0.48873 0.70367 0.9092 0.0
H375 H 0.52046 0.89357 0.14 0.0
H376 H 0.43582 0.68839 0.97617 0.0
H377 H 0.5206 0.85934 0.25538 0.0
O378 O 0.53769 0.81333 0.80544 0.0
H379 H 0.57229 0.95259 0.70687 0.0
H380 H 0.6242 0.88484 0.68403 0.0
H381 H 0.61616 0.90957 0.55976 0.0
H382 H 0.58996 0.9437 0.57057 0.0
H383 H 0.58115 0.92771 0.82952 0.0
H384 H 0.72354 0.963 0.76555 0.0
H385 H 0.74122 0.92159 0.76396 0.0
O386 O 0.59244 0.84265 0.79516 0.0
C387 C 0.5956 0.83443 0.98851 0.0
C388 C 0.69458 0.88264 0.80444 0.0
C389 C 0.7067 0.938 0.78304 0.0
N390 N 0.65333 0.89716 0.82831 0.0
C391 C 0.6629 0.87429 0.82757 0.0
C392 C 0.67482 0.92872 0.80656 0.0
C393 C 0.71659 0.91475 0.78208 0.0
C394 C 0.52441 0.86313 0.04759 0.0
N395 N 0.52653 0.83591 0.03164 0.0
C396 C 0.5221 0.87192 0.12803 0.0
C397 C 0.52215 0.85271 0.19272 0.0
C398 C 0.52445 0.82504 0.17625 0.0
C399 C 0.52662 0.81698 0.09507 0.0
C400 C 0.44696 0.7382 0.98942 0.0
C401 C 0.50608 0.75534 0.91587 0.0
C402 C 0.47021 0.77087 0.97519 0.0
N403 N 0.49947 0.77916 0.9392 0.0
C404 C 0.48332 0.72238 0.92832 0.0
C405 C 0.45362 0.71382 0.9657 0.0
C406 C 0.56446 0.82009 0.76999 0.0
C407 C 0.58383 0.93786 0.70133 0.0
C408 C 0.61304 0.89988 0.68959 0.0
C409 C 0.6085 0.91378 0.61883 0.0
C410 C 0.59374 0.93287 0.6249 0.0
N411 N 0.6034 0.90501 0.76456 0.0
C412 C 0.58887 0.92364 0.77076 0.0
Co413 Co 0.70849 0.5291 0.08666 0.0
Co414 Co 0.73122 0.60852 0.03582 0.0
O415 O 0.69757 0.56356 0.06517 0.0
C416 C 0.6417 0.49465 1.00431 0.0
O417 O 0.64221 0.52248 0.99598 0.0
C418 C 0.69071 0.61804 0.16411 0.0
O419 O 0.68887 0.59349 0.20595 0.0
O420 O 0.75643 0.61146 0.13727 0.0
O421 O 0.75054 0.56139 0.14028 0.0
H422 H 0.84628 0.70056 0.99929 0.0
H423 H 0.64674 0.52395 0.15109 0.0
O424 O 0.66602 0.49388 0.03612 0.0
H425 H 0.70387 0.51494 0.39321 0.0
H426 H 0.68824 0.41848 0.17821 0.0
H427 H 0.7684 0.52511 0.06179 0.0
H428 H 0.72735 0.52072 0.25563 0.0
H429 H 0.67328 0.46067 0.15235 0.0
O430 O 0.70669 0.62691 0.09705 0.0
H431 H 0.80349 0.64428 0.03249 0.0
H432 H 0.72983 0.66827 0.98237 0.0
H433 H 0.78457 0.48376 0.08714 0.0
H434 H 0.62189 0.51701 0.28716 0.0
H435 H 0.74438 0.43002 0.14623 0.0
H436 H 0.65051 0.5125 0.40988 0.0
O437 O 0.73004 0.53744 0.97646 0.0
H438 H 0.62964 0.5817 0.87747 0.0
H439 H 0.74807 0.62335 0.85836 0.0
H440 H 0.71677 0.6178 0.73272 0.0
H441 H 0.65709 0.59683 0.74173 0.0
H442 H 0.66186 0.58737 1.0016 0.0
H443 H 0.77179 0.72489 0.94952 0.0
H444 H 0.8305 0.74132 0.95751 0.0
O445 O 0.75657 0.59226 0.97026 0.0
C446 C 0.76357 0.5907 0.16634 0.0
C447 C 0.82078 0.69367 0.99524 0.0
C448 C 0.77897 0.70733 0.96742 0.0
N449 N 0.76422 0.6529 0.00852 0.0
C450 C 0.79645 0.6618 0.01365 0.0
C451 C 0.75532 0.67524 0.98624 0.0
C452 C 0.81191 0.71653 0.9719 0.0
C453 C 0.65899 0.52109 0.20331 0.0
N454 N 0.68802 0.52171 0.19426 0.0
C455 C 0.64491 0.51748 0.28067 0.0
C456 C 0.661 0.51504 0.34948 0.0
C457 C 0.69086 0.51627 0.34018 0.0
C458 C 0.70405 0.5196 0.26184 0.0
C459 C 0.70601 0.44185 0.15268 0.0
C460 C 0.75082 0.50188 0.08778 0.0
C461 C 0.6976 0.4658 0.13756 0.0
N462 N 0.71999 0.49551 0.10626 0.0
C463 C 0.76009 0.4785 0.10184 0.0
C464 C 0.73751 0.44834 0.1348 0.0
C465 C 0.75113 0.56449 0.94396 0.0
C466 C 0.65563 0.59086 0.87273 0.0
C467 C 0.72209 0.61406 0.8629 0.0
C468 C 0.70451 0.61109 0.79148 0.0
C469 C 0.67103 0.59933 0.79658 0.0
N470 N 0.70676 0.60547 0.93734 0.0
C471 C 0.67401 0.59418 0.94284 0.0
Co472 Co 0.13162 0.72904 0.20048 0.0
Co473 Co 0.18818 0.70746 0.25838 0.0
O474 O 0.14283 0.69604 0.23525 0.0
C475 C 0.0782 0.68683 0.323 0.0
O476 O 0.09928 0.6821 0.36413 0.0
C477 C 0.16469 0.64831 0.15175 0.0
O478 O 0.15417 0.66192 0.09914 0.0
O479 O 0.2013 0.72623 0.14528 0.0
O480 O 0.17421 0.75398 0.13682 0.0
H481 H 0.31043 0.77985 0.25828 0.0
H482 H 0.09197 0.6584 0.16139 0.0
O483 O 0.08744 0.70472 0.25872 0.0
H484 H 0.10588 0.71516 0.89819 0.0
H485 H 0.05612 0.76926 0.10761 0.0
H486 H 0.16861 0.80119 0.18802 0.0
H487 H 0.13071 0.74637 0.02443 0.0
H488 H 0.07047 0.72751 0.14509 0.0
O489 O 0.17829 0.66293 0.21828 0.0
H490 H 0.25355 0.76628 0.23468 0.0
H491 H 0.2189 0.67066 0.32681 0.0
H492 H 0.15549 0.84382 0.15023 0.0
H493 H 0.06695 0.62619 0.03643 0.0
H494 H 0.09881 0.82791 0.10966 0.0
H495 H 0.07366 0.65458 0.90359 0.0
O496 O 0.15277 0.75433 0.30295 0.0
H497 H 0.11643 0.62523 0.46978 0.0
H498 H 0.21674 0.73084 0.42467 0.0
H499 H 0.20109 0.70975 0.56517 0.0
H500 H 0.15082 0.65637 0.58863 0.0
H501 H 0.1326 0.648 0.33042 0.0
H502 H 0.27536 0.68322 0.35264 0.0
H503 H 0.32163 0.73822 0.31859 0.0
O504 O 0.19902 0.75172 0.30222 0.0
C505 C 0.19594 0.74744 0.11097 0.0
C506 C 0.29047 0.75586 0.27379 0.0
C507 C 0.27081 0.70161 0.32648 0.0
N508 N 0.23286 0.71782 0.27913 0.0
C509 C 0.2582 0.74807 0.2603 0.0
C510 C 0.23887 0.69462 0.31143 0.0
C511 C 0.29675 0.73247 0.30744 0.0
C512 C 0.09465 0.67098 0.10412 0.0
N513 N 0.11175 0.70429 0.1011 0.0
C514 C 0.08057 0.65259 0.03341 0.0
C515 C 0.08437 0.66852 0.95891 0.0
C516 C 0.10235 0.7025 0.95588 0.0
C517 C 0.11617 0.72006 0.02782 0.0
C518 C 0.08089 0.77652 0.12535 0.0
C519 C 0.144 0.79413 0.17049 0.0
C520 C 0.08915 0.75298 0.14715 0.0
N521 N 0.12045 0.76193 0.1691 0.0
C522 C 0.13666 0.81835 0.14912 0.0
C523 C 0.10486 0.80941 0.12642 0.0
C524 C 0.18147 0.76321 0.32989 0.0
C525 C 0.13864 0.64832 0.46039 0.0
C526 C 0.19479 0.70759 0.4341 0.0
C527 C 0.18615 0.6957 0.51395 0.0
C528 C 0.15789 0.66582 0.52703 0.0
N529 N 0.17582 0.69022 0.36891 0.0
C530 C 0.14805 0.66105 0.38141 0.0
Co531 Co 0.4875 0.18847 0.41313 0.0
Co532 Co 0.41111 0.1263 0.35839 0.0
O533 O 0.45625 0.14154 0.39517 0.0
C534 C 0.52797 0.15893 0.35097 0.0
O535 O 0.50159 0.1302 0.34494 0.0
C536 C 0.40518 0.07225 0.47435 0.0
O537 O 0.43593 0.08983 0.49572 0.0
O538 O 0.40473 0.14776 0.45721 0.0
O539 O 0.45143 0.19585 0.45238 0.0
H540 H 0.3134 0.13947 0.30917 0.0
H541 H 0.49737 0.1375 0.49695 0.0
O542 O 0.52602 0.18366 0.37512 0.0
H543 H 0.49352 0.20629 0.71795 0.0
H544 H 0.59308 0.28656 0.50373 0.0
H545 H 0.48617 0.24887 0.37246 0.0
H546 H 0.48962 0.21913 0.57403 0.0
H547 H 0.55425 0.22781 0.48651 0.0
O548 O 0.39283 0.08363 0.42324 0.0
H549 H 0.36979 0.15695 0.35191 0.0
H550 H 0.35594 0.06333 0.29563 0.0
H551 H 0.5245 0.30789 0.38701 0.0
H552 H 0.50252 0.1245 0.64004 0.0
H553 H 0.57825 0.32711 0.4539 0.0
H554 H 0.50065 0.15905 0.75223 0.0
O555 O 0.4805 0.19811 0.2985 0.0
H556 H 0.45235 0.0604 0.21141 0.0
H557 H 0.39748 0.1251 0.1791 0.0
H558 H 0.40848 0.10145 0.05709 0.0
H559 H 0.43605 0.06875 0.07271 0.0
H560 H 0.44088 0.08453 0.33169 0.0
H561 H 0.29921 0.04449 0.25348 0.0
H562 H 0.27763 0.08277 0.25946 0.0
O563 O 0.42619 0.16719 0.28896 0.0
C564 C 0.42317 0.17702 0.48224 0.0
C565 C 0.32259 0.12264 0.30551 0.0
C566 C 0.31461 0.06933 0.27443 0.0
N567 N 0.3665 0.11158 0.3243 0.0
C568 C 0.35461 0.13255 0.32904 0.0
C569 C 0.34678 0.08015 0.29844 0.0
C570 C 0.30252 0.09081 0.2778 0.0
C571 C 0.49709 0.15303 0.54471 0.0
N572 N 0.49371 0.17936 0.5262 0.0
C573 C 0.49989 0.14544 0.62601 0.0
C574 C 0.49886 0.16482 0.68891 0.0
C575 C 0.49516 0.19149 0.66979 0.0
C576 C 0.49275 0.1985 0.58784 0.0
C577 C 0.56971 0.2785 0.47459 0.0
C578 C 0.50959 0.25699 0.40116 0.0
C579 C 0.54765 0.24522 0.46446 0.0
N580 N 0.51793 0.2348 0.42852 0.0
C581 C 0.53119 0.29046 0.40931 0.0
C582 C 0.56137 0.30124 0.44668 0.0
C583 C 0.45364 0.19018 0.26205 0.0
C584 C 0.44018 0.07448 0.20378 0.0
C585 C 0.40944 0.11086 0.18667 0.0
C586 C 0.41559 0.09752 0.11721 0.0
C587 C 0.43107 0.0792 0.126 0.0
N588 N 0.41823 0.10594 0.26299 0.0
C589 C 0.4336 0.08819 0.27182 0.0
Co590 Co 0.31117 0.48735 0.5932 0.0
Co591 Co 0.29058 0.40945 0.53231 0.0
O592 O 0.32315 0.45382 0.56801 0.0
C593 C 0.37989 0.52391 0.52106 0.0
O594 O 0.37984 0.49641 0.51043 0.0
C595 C 0.33217 0.39887 0.65631 0.0
O596 O 0.33626 0.4244 0.6975 0.0
O597 O 0.26463 0.40429 0.6337 0.0
O598 O 0.26749 0.45318 0.63787 0.0
H599 H 0.17662 0.31789 0.47747 0.0
H600 H 0.37188 0.49193 0.66466 0.0
O601 O 0.3548 0.52384 0.55073 0.0
H602 H 0.30826 0.49434 0.90062 0.0
H603 H 0.33104 0.59639 0.69666 0.0
H604 H 0.25167 0.49241 0.5679 0.0
H605 H 0.28788 0.49098 0.76031 0.0
H606 H 0.34543 0.55398 0.66877 0.0
O607 O 0.3148 0.39001 0.59134 0.0
H608 H 0.2185 0.37361 0.51776 0.0
H609 H 0.29336 0.35077 0.47515 0.0
H610 H 0.23629 0.53436 0.59277 0.0
H611 H 0.39366 0.49653 0.80376 0.0
H612 H 0.27601 0.5867 0.65876 0.0
H613 H 0.36177 0.49771 0.92339 0.0
O614 O 0.29207 0.48181 0.48084 0.0
H615 H 0.39399 0.44042 0.3779 0.0
H616 H 0.2753 0.39648 0.35381 0.0
H617 H 0.3077 0.40327 0.22939 0.0
H618 H 0.36754 0.42552 0.24091 0.0
H619 H 0.36057 0.43299 0.50078 0.0
H620 H 0.25237 0.29472 0.43509 0.0
H621 H 0.19351 0.27796 0.43579 0.0
O622 O 0.26565 0.42706 0.46849 0.0
C623 C 0.25587 0.42381 0.66291 0.0
C624 C 0.20219 0.32488 0.47692 0.0
C625 C 0.24469 0.31188 0.45324 0.0
N626 N 0.25829 0.3655 0.49906 0.0
C627 C 0.22598 0.35643 0.49969 0.0
C628 C 0.26779 0.34364 0.47637 0.0
C629 C 0.21168 0.30249 0.45358 0.0
C630 C 0.35816 0.49327 0.71566 0.0
N631 N 0.32898 0.49201 0.70338 0.0
C632 C 0.37054 0.49559 0.7947 0.0
C633 C 0.35263 0.4962 0.86177 0.0
C634 C 0.3227 0.4945 0.84907 0.0
C635 C 0.31124 0.49245 0.76919 0.0
C636 C 0.31347 0.57367 0.66797 0.0
C637 C 0.26912 0.51512 0.59568 0.0
C638 C 0.32155 0.54956 0.6517 0.0
N639 N 0.29943 0.5206 0.61631 0.0
C640 C 0.26028 0.53881 0.60999 0.0
C641 C 0.2826 0.56821 0.6468 0.0
C642 C 0.27138 0.45536 0.4452 0.0
C643 C 0.36796 0.43077 0.37203 0.0
C644 C 0.30132 0.40618 0.3594 0.0
C645 C 0.31954 0.4099 0.2887 0.0
C646 C 0.3531 0.4224 0.2952 0.0
N647 N 0.31611 0.41464 0.4345 0.0
C648 C 0.34893 0.42657 0.4414 0.0
Co649 Co 0.8909 0.28548 0.69702 0.0
Co650 Co 0.83293 0.30533 0.75238 0.0
O651 O 0.87891 0.31818 0.73059 0.0
C652 C 0.94434 0.32809 0.81914 0.0
O653 O 0.9229 0.33203 0.86101 0.0
C654 C 0.86473 0.37477 0.68355 0.0
O655 O 0.89247 0.37551 0.67185 0.0
O656 O 0.82107 0.28703 0.63901 0.0
O657 O 0.84843 0.25978 0.63353 0.0
H658 H 0.7118 0.22801 0.74298 0.0
H659 H 0.9332 0.35555 0.65789 0.0
O660 O 0.93523 0.31039 0.75454 0.0
H661 H 0.91096 0.29873 0.39218 0.0
H662 H 0.96625 0.24671 0.59411 0.0
H663 H 0.85648 0.21325 0.70106 0.0
H664 H 0.88842 0.26773 0.51999 0.0
H665 H 0.95122 0.288 0.63189 0.0
O666 O 0.83991 0.34922 0.71212 0.0
H667 H 0.76976 0.24499 0.72136 0.0
H668 H 0.7985 0.33818 0.82347 0.0
H669 H 0.87021 0.17108 0.66284 0.0
H670 H 0.9565 0.38765 0.53155 0.0
H671 H 0.9255 0.18776 0.60884 0.0
H672 H 0.94543 0.35916 0.39738 0.0
O673 O 0.87025 0.26048 0.80041 0.0
H674 H 0.90386 0.3853 0.96912 0.0
H675 H 0.80355 0.28046 0.91723 0.0
H676 H 0.81941 0.29927 0.05907 0.0
H677 H 0.86943 0.35246 0.08609 0.0
H678 H 0.88814 0.36425 0.82851 0.0
H679 H 0.74085 0.32198 0.84733 0.0
H680 H 0.69704 0.26648 0.80731 0.0
O681 O 0.82349 0.26168 0.79504 0.0
C682 C 0.82694 0.26614 0.60473 0.0
C683 C 0.73068 0.25216 0.76127 0.0
C684 C 0.74698 0.30495 0.81955 0.0
N685 N 0.78752 0.29248 0.77148 0.0
C686 C 0.76355 0.26194 0.74908 0.0
C687 C 0.77958 0.314 0.80571 0.0
C688 C 0.72241 0.2738 0.79714 0.0
C689 C 0.92857 0.34304 0.59984 0.0
N690 N 0.91007 0.30984 0.59676 0.0
C691 C 0.94171 0.36131 0.52846 0.0
C692 C 0.93547 0.34532 0.45323 0.0
C693 C 0.91617 0.31143 0.45028 0.0
C694 C 0.9035 0.294 0.52299 0.0
C695 C 0.942 0.23913 0.61695 0.0
C696 C 0.88033 0.22064 0.6763 0.0
C697 C 0.93334 0.26239 0.63849 0.0
N698 N 0.90264 0.25298 0.66664 0.0
C699 C 0.88809 0.19668 0.65536 0.0
C700 C 0.91913 0.20605 0.62524 0.0
C701 C 0.84133 0.25125 0.82603 0.0
C702 C 0.88155 0.36247 0.95822 0.0
C703 C 0.82537 0.30369 0.92801 0.0
C704 C 0.83413 0.31426 0.00873 0.0
C705 C 0.86231 0.34399 0.0238 0.0
N706 N 0.84429 0.32202 0.86379 0.0
C707 C 0.87222 0.35084 0.87835 0.0
C708 C 0.20682 0.45958 0.31043 0.0
C709 C 0.21754 0.45729 0.23073 0.0
C710 C 0.26642 0.45995 0.2921 0.0
C711 C 0.2533 0.45734 0.37179 0.0
N712 N 0.20761 0.4487 0.45528 0.0
N713 N 0.2547 0.44872 0.14746 0.0
C714 C 0.2225 0.45548 0.38056 0.0
C715 C 0.24659 0.45565 0.22202 0.0
N716 N 0.18211 0.46637 0.31939 0.0
N717 N 0.29806 0.46721 0.28305 0.0
H718 H 0.2402 0.44447 0.09581 0.0
H719 H 0.27383 0.44406 0.13894 0.0
H720 H 0.31344 0.47115 0.33291 0.0
H721 H 0.30983 0.47233 0.22645 0.0
H722 H 0.17524 0.47127 0.37595 0.0
H723 H 0.17056 0.47013 0.26949 0.0
H724 H 0.18375 0.44381 0.46397 0.0
H725 H 0.21814 0.44496 0.50712 0.0
C726 C 0.80471 0.21823 0.50263 0.0
C727 C 0.80834 0.2487 0.52736 0.0
C728 C 0.77351 0.24435 0.40924 0.0
C729 C 0.77374 0.21578 0.37909 0.0
N730 N 0.80895 0.19199 0.38205 0.0
N731 N 0.80761 0.29627 0.47552 0.0
C732 C 0.79498 0.20735 0.42117 0.0
C733 C 0.79592 0.26342 0.47276 0.0
N734 N 0.80998 0.19904 0.55537 0.0
N735 N 0.75325 0.25459 0.37866 0.0
H736 H 0.82778 0.31193 0.51086 0.0
H737 H 0.80092 0.30834 0.43291 0.0
H738 H 0.73761 0.2446 0.32934 0.0
H739 H 0.7508 0.27301 0.40722 0.0
H740 H 0.80623 0.17613 0.53819 0.0
H741 H 0.81326 0.20372 0.61774 0.0
H742 H 0.82508 0.18629 0.41151 0.0
H743 H 0.80999 0.19164 0.31845 0.0
C744 C 0.56317 0.79381 0.54698 0.0
C745 C 0.56324 0.76396 0.55691 0.0
C746 C 0.56686 0.7724 0.7063 0.0
C747 C 0.56329 0.80032 0.69678 0.0
N748 N 0.55132 0.83364 0.60772 0.0
N749 N 0.55754 0.72132 0.64808 0.0
C750 C 0.5593 0.80977 0.61693 0.0
C751 C 0.56277 0.75219 0.63726 0.0
N752 N 0.56804 0.80764 0.47118 0.0
N753 N 0.57518 0.76563 0.78081 0.0
H754 H 0.55398 0.70574 0.59914 0.0
H755 H 0.55373 0.71022 0.70535 0.0
H756 H 0.57869 0.78009 0.83209 0.0
H757 H 0.58147 0.74764 0.78971 0.0
H758 H 0.57153 0.83093 0.46104 0.0
H759 H 0.57168 0.79697 0.41952 0.0
H760 H 0.54509 0.83947 0.55147 0.0
H761 H 0.54809 0.84563 0.65745 0.0
C762 C 0.81709 0.56423 0.80945 0.0
C763 C 0.80383 0.5605 0.72986 0.0
C764 C 0.75398 0.55559 0.79145 0.0
C765 C 0.76939 0.56384 0.86948 0.0
N766 N 0.8209 0.58882 0.94099 0.0
N767 N 0.7627 0.5615 0.64462 0.0
C768 C 0.80248 0.57175 0.87549 0.0
C769 C 0.77295 0.55846 0.72047 0.0
N770 N 0.84342 0.56033 0.82258 0.0
N771 N 0.72159 0.54584 0.78451 0.0
H772 H 0.77742 0.56655 0.5931 0.0
H773 H 0.74171 0.56298 0.63471 0.0
H774 H 0.70727 0.54466 0.83449 0.0
H775 H 0.70858 0.53677 0.7301 0.0
H776 H 0.85244 0.56066 0.88116 0.0
H777 H 0.8538 0.55337 0.77594 0.0
H778 H 0.84572 0.59656 0.94584 0.0
H779 H 0.81263 0.5999 0.98199 0.0
C780 C 0.26538 0.81278 0.97905 0.0
C781 C 0.25296 0.80252 0.89857 0.0
C782 C 0.20578 0.7537 0.95754 0.0
C783 C 0.21619 0.766 0.03803 0.0
N784 N 0.25326 0.81069 0.12397 0.0
N785 N 0.20792 0.76603 0.81274 0.0
C786 C 0.24528 0.79654 0.04833 0.0
C787 C 0.22217 0.77373 0.88829 0.0
N788 N 0.29666 0.83766 0.98962 0.0
N789 N 0.18057 0.72258 0.94691 0.0
H790 H 0.21905 0.78036 0.76138 0.0
H791 H 0.18404 0.74736 0.80263 0.0
H792 H 0.16798 0.70735 0.99594 0.0
H793 H 0.17404 0.71102 0.89006 0.0
H794 H 0.30827 0.84403 0.04643 0.0
H795 H 0.31194 0.85012 0.94058 0.0
H796 H 0.27218 0.83445 0.13414 0.0
H797 H 0.23897 0.79962 0.17541 0.0
C798 C 0.48189 0.2227 0.1318 0.0
C799 C 0.4543 0.20858 0.18498 0.0
C800 C 0.42532 0.22086 0.0793 0.0
C801 C 0.45478 0.24327 0.0381 0.0
N802 N 0.51457 0.26665 0.03958 0.0
N803 N 0.40213 0.20472 0.21338 0.0
C804 C 0.48422 0.2449 0.06869 0.0
C805 C 0.42677 0.21096 0.16033 0.0
N806 N 0.50497 0.21343 0.13648 0.0
N807 N 0.39601 0.20629 0.04 0.0
H808 H 0.40412 0.20185 0.27579 0.0
H809 H 0.38233 0.20749 0.1966 0.0
H810 H 0.39464 0.20573 0.97641 0.0
H811 H 0.3744 0.18942 0.06903 0.0
H812 H 0.52398 0.22117 0.09421 0.0
H813 H 0.50257 0.1945 0.17393 0.0
H814 H 0.53573 0.2703 0.06903 0.0
H815 H 0.51979 0.28241 0.99073 0.0
C816 C 0.14884 0.56112 0.17234 0.0
C817 C 0.16141 0.55692 0.09705 0.0
C818 C 0.1789 0.61394 0.06118 0.0
C819 C 0.16277 0.61661 0.1315 0.0
N820 N 0.12446 0.58904 0.24078 0.0
N821 N 0.18056 0.57751 0.96032 0.0
C822 C 0.14555 0.58917 0.1836 0.0
C823 C 0.17441 0.58287 0.0388 0.0
N824 N 0.14094 0.53896 0.2343 0.0
N825 N 0.19915 0.64111 0.01651 0.0
H826 H 0.17532 0.55466 0.93941 0.0
H827 H 0.1871 0.59475 0.91371 0.0
H828 H 0.2034 0.6644 0.03109 0.0
H829 H 0.2141 0.64094 0.96978 0.0
H830 H 0.13445 0.54258 0.29279 0.0
H831 H 0.14432 0.51883 0.2302 0.0
H832 H 0.1093 0.56866 0.27624 0.0
H833 H 0.11897 0.60775 0.24426 0.0
C834 C 0.61831 0.1826 0.3677 0.0
C835 C 0.62079 0.16394 0.30295 0.0
C836 C 0.56443 0.14668 0.26264 0.0
C837 C 0.5605 0.16194 0.33337 0.0
N838 N 0.58227 0.18696 0.46514 0.0
N839 N 0.59266 0.12051 0.20524 0.0
C840 C 0.58708 0.178 0.38922 0.0
C841 C 0.59284 0.14382 0.25483 0.0
N842 N 0.64573 0.20525 0.40774 0.0
N843 N 0.54162 0.13573 0.20153 0.0
H844 H 0.61171 0.11544 0.20555 0.0
H845 H 0.57201 0.10348 0.17333 0.0
H846 H 0.52127 0.13882 0.2026 0.0
H847 H 0.5449 0.12695 0.14583 0.0
H848 H 0.64554 0.22178 0.44969 0.0
H849 H 0.66908 0.2096 0.39347 0.0
H850 H 0.60017 0.19601 0.51056 0.0
H851 H 0.55939 0.18163 0.48623 0.0
C852 C 0.42357 0.58159 0.56019 0.0
C853 C 0.41028 0.55553 0.50223 0.0
C854 C 0.4589 0.58669 0.41663 0.0
C855 C 0.46937 0.6144 0.4678 0.0
N856 N 0.45821 0.63975 0.58207 0.0
N857 N 0.41283 0.53696 0.3657 0.0
C858 C 0.45066 0.61234 0.53773 0.0
C859 C 0.42722 0.55915 0.42753 0.0
N860 N 0.41196 0.57661 0.63852 0.0
N861 N 0.4799 0.58586 0.36071 0.0
H862 H 0.38905 0.51728 0.36933 0.0
H863 H 0.4232 0.54022 0.30761 0.0
H864 H 0.50432 0.6041 0.3582 0.0
H865 H 0.47438 0.56526 0.32584 0.0
H866 H 0.42282 0.59391 0.68494 0.0
H867 H 0.39407 0.55393 0.65964 0.0
H868 H 0.44319 0.64011 0.62835 0.0
H869 H 0.47786 0.66273 0.56791 0.0
C870 C 0.87393 0.45993 0.69704 0.0
C871 C 0.86221 0.46246 0.61879 0.0
C872 C 0.84612 0.40516 0.59173 0.0
C873 C 0.8624 0.40439 0.66393 0.0
N874 N 0.89669 0.43364 0.77934 0.0
N875 N 0.84469 0.43918 0.48356 0.0
C876 C 0.87783 0.43257 0.71477 0.0
C877 C 0.85007 0.43545 0.564 0.0
N878 N 0.88011 0.4829 0.75587 0.0
N879 N 0.82714 0.37712 0.54886 0.0
H880 H 0.85016 0.46157 0.45875 0.0
H881 H 0.83876 0.42109 0.43953 0.0
H882 H 0.82376 0.35454 0.56716 0.0
H883 H 0.81227 0.37584 0.50014 0.0
H884 H 0.88569 0.48055 0.81639 0.0
H885 H 0.87611 0.50247 0.74684 0.0
H886 H 0.91127 0.45484 0.81276 0.0
H887 H 0.9001 0.41426 0.79489 0.0
C888 C 0.40416 0.83591 0.87202 0.0
C889 C 0.40165 0.8531 0.8038 0.0
C890 C 0.45719 0.86775 0.76209 0.0
C891 C 0.46124 0.85396 0.83551 0.0
N892 N 0.44039 0.83263 0.97077 0.0
N893 N 0.42942 0.89326 0.69834 0.0
C894 C 0.43517 0.84001 0.89338 0.0
C895 C 0.42919 0.87122 0.75268 0.0
N896 N 0.37691 0.81514 0.91572 0.0
N897 N 0.47949 0.87667 0.7001 0.0
H898 H 0.41071 0.89881 0.69663 0.0
H899 H 0.44987 0.909 0.66385 0.0
H900 H 0.49957 0.87317 0.70271 0.0
H901 H 0.47601 0.88417 0.64272 0.0
H902 H 0.37692 0.79945 0.96059 0.0
H903 H 0.35372 0.81139 0.90213 0.0
H904 H 0.42305 0.82532 0.01736 0.0
H905 H 0.4632 0.83757 0.99124 0.0
C906 C 0.56507 0.435 0.88629 0.0
C907 C 0.5525 0.4064 0.93543 0.0
C908 C 0.5969 0.43629 0.03385 0.0
C909 C 0.61172 0.46359 0.97965 0.0
N910 N 0.6132 0.48499 0.84428 0.0
N911 N 0.55963 0.37816 0.04961 0.0
C912 C 0.59674 0.4618 0.9029 0.0
C913 C 0.56963 0.40645 0.00676 0.0
N914 N 0.54657 0.43709 0.82494 0.0
N915 N 0.60706 0.43939 0.11333 0.0
H916 H 0.53892 0.35614 0.034 0.0
H917 H 0.57336 0.37606 0.09673 0.0
H918 H 0.62498 0.46136 0.13785 0.0
H919 H 0.59509 0.42128 0.1574 0.0
H920 H 0.55337 0.45855 0.79252 0.0
H921 H 0.52291 0.41858 0.81257 0.0
H922 H 0.60462 0.48312 0.78454 0.0
H923 H 0.63705 0.50416 0.85229 0.0
C924 C 0.24313 0.41194 0.81338 0.0
C925 C 0.2324 0.41329 0.73282 0.0
C926 C 0.18403 0.41279 0.7894 0.0
C927 C 0.19582 0.41346 0.86988 0.0
N928 N 0.23039 0.40355 0.95868 0.0
N929 N 0.18834 0.40461 0.64393 0.0
C930 C 0.22343 0.40972 0.8818 0.0
C931 C 0.20133 0.41028 0.7209 0.0
N932 N 0.2729 0.41445 0.82476 0.0
N933 N 0.15732 0.41632 0.7783 0.0
H934 H 0.20028 0.40158 0.59401 0.0
H935 H 0.16472 0.39957 0.6309 0.0
H936 H 0.14399 0.41798 0.82704 0.0
H937 H 0.14956 0.41976 0.72135 0.0
H938 H 0.28414 0.41798 0.88168 0.0
H939 H 0.28727 0.4147 0.77626 0.0
H940 H 0.24854 0.39787 0.97158 0.0
H941 H 0.21554 0.40081 0.00866 0.0
C942 C 0.77754 0.17736 0.94491 0.0
C943 C 0.78676 0.18866 0.02655 0.0
C944 C 0.83749 0.23594 0.97553 0.0
C945 C 0.82629 0.22675 0.89365 0.0
N946 N 0.78625 0.1888 0.79913 0.0
N947 N 0.82551 0.22764 0.12165 0.0
C948 C 0.79674 0.1971 0.87817 0.0
C949 C 0.81709 0.21738 0.04237 0.0
N950 N 0.74981 0.14815 0.93117 0.0
N951 N 0.86718 0.26309 0.98925 0.0
H952 H 0.81208 0.21369 0.17178 0.0
H953 H 0.845 0.2502 0.13859 0.0
H954 H 0.88156 0.27839 0.9423 0.0
H955 H 0.87852 0.26986 0.04619 0.0
H956 H 0.74316 0.13652 0.87455 0.0
H957 H 0.73399 0.13435 0.97792 0.0
H958 H 0.76315 0.1702 0.78237 0.0
H959 H 0.80061 0.2017 0.74925 0.0
C960 C 0.60686 0.77396 0.11514 0.0
C961 C 0.60525 0.78444 0.19577 0.0
C962 C 0.60625 0.83318 0.13953 0.0
C963 C 0.60596 0.82163 0.05894 0.0
N964 N 0.6171 0.78778 0.97082 0.0
N965 N 0.61343 0.82818 0.28532 0.0
C966 C 0.60983 0.79411 0.04713 0.0
C967 C 0.60823 0.81551 0.20805 0.0
N968 N 0.60391 0.74402 0.10313 0.0
N969 N 0.60297 0.86005 0.15065 0.0
H970 H 0.61601 0.81599 0.33537 0.0
H971 H 0.61844 0.85176 0.29872 0.0
H972 H 0.60211 0.87392 0.10208 0.0
H973 H 0.59916 0.86757 0.2075 0.0
H974 H 0.60056 0.73311 0.04581 0.0
H975 H 0.60283 0.72912 0.15131 0.0
H976 H 0.62291 0.76968 0.95834 0.0
H977 H 0.62089 0.80327 0.92154 0.0
C978 C 0.83595 0.59926 0.29168 0.0
C979 C 0.82617 0.60237 0.37128 0.0
C980 C 0.78226 0.60952 0.31232 0.0
C981 C 0.78818 0.60005 0.23401 0.0
N982 N 0.81989 0.58331 0.15178 0.0
N983 N 0.79071 0.61108 0.45972 0.0
C984 C 0.81511 0.59465 0.22429 0.0
C985 C 0.79976 0.60813 0.38215 0.0
N986 N 0.86496 0.59998 0.28076 0.0
N987 N 0.75967 0.61927 0.3207 0.0
H988 H 0.80457 0.61255 0.51088 0.0
H989 H 0.76904 0.61068 0.47376 0.0
H990 H 0.74568 0.6199 0.27244 0.0
H991 H 0.7566 0.62941 0.37423 0.0
H992 H 0.87522 0.60121 0.22344 0.0
H993 H 0.88024 0.60234 0.32949 0.0
H994 H 0.83628 0.57488 0.14402 0.0
H995 H 0.80553 0.57982 0.10077 0.0
C996 C 0.18368 0.77594 0.481 0.0
C997 C 0.19521 0.78658 0.40004 0.0
C998 C 0.24359 0.83487 0.45553 0.0
C999 C 0.23265 0.82359 0.53645 0.0
N1000 N 0.18806 0.78957 0.62565 0.0
N1001 N 0.23022 0.83072 0.31077 0.0
C1002 C 0.20124 0.79606 0.54887 0.0
C1003 C 0.22331 0.8176 0.38761 0.0
N1004 N 0.15696 0.74585 0.4934 0.0
N1005 N 0.27407 0.86102 0.44323 0.0
H1006 H 0.21492 0.81893 0.26127 0.0
H1007 H 0.24872 0.85439 0.29782 0.0
H1008 H 0.28946 0.87438 0.49128 0.0
H1009 H 0.28505 0.8681 0.38584 0.0
H1010 H 0.14961 0.73498 0.55084 0.0
H1011 H 0.14331 0.73066 0.4454 0.0
H1012 H 0.16418 0.77153 0.63856 0.0
H1013 H 0.2001 0.8048 0.67509 0.0
C1014 C 0.4134 0.19981 0.70006 0.0
C1015 C 0.4158 0.2305 0.68445 0.0
C1016 C 0.41006 0.2186 0.53678 0.0
C1017 C 0.41288 0.19058 0.5513 0.0
N1018 N 0.41611 0.15326 0.6462 0.0
N1019 N 0.41753 0.26996 0.58788 0.0
C1020 C 0.41342 0.18037 0.633 0.0
C1021 C 0.41373 0.23983 0.60285 0.0
N1022 N 0.41146 0.18953 0.77929 0.0
N1023 N 0.40375 0.22475 0.45918 0.0
H1024 H 0.41972 0.28594 0.63442 0.0
H1025 H 0.42072 0.28012 0.52963 0.0
H1026 H 0.40082 0.20933 0.41046 0.0
H1027 H 0.39829 0.24292 0.44453 0.0
H1028 H 0.40662 0.16628 0.7958 0.0
H1029 H 0.41246 0.2037 0.82939 0.0
H1030 H 0.42043 0.14629 0.7032 0.0
H1031 H 0.41568 0.1383 0.59879 0.0
C1032 C 0.03881 0.3774 0.83309 0.0
C1033 C 0.04336 0.37875 0.91944 0.0
C1034 C 0.98443 0.33985 0.93509 0.0
C1035 C 0.97902 0.34311 0.8507 0.0
N1036 N 1.00232 0.36747 0.71939 0.0
N1037 N 0.01883 0.36379 0.05397 0.0
C1038 C 1.00659 0.36232 0.79954 0.0
C1039 C 0.01574 0.36048 0.9708 0.0
N1040 N 0.06536 0.38952 0.78245 0.0
N1041 N 0.95999 0.31587 0.98071 0.0
H1042 H 0.04097 0.37862 0.08304 0.0
H1043 H 0.99891 0.35412 0.0937 0.0
H1044 H 0.93763 0.2989 0.95532 0.0
H1045 H 0.96329 0.31025 0.04045 0.0
H1046 H 0.06368 0.386 0.7192 0.0
H1047 H 0.08919 0.40013 0.80434 0.0
H1048 H 0.02089 0.38492 0.68271 0.0
H1049 H 0.97983 0.35585 0.69058 0.0
C1050 C 0.65601 1.00106 0.95709 0.0
C1051 C 0.63625 0.97373 0.00806 0.0
C1052 C 0.64837 0.01139 0.12461 0.0
C1053 C 0.66989 0.03844 0.0748 0.0
N1054 N 0.70154 0.05638 0.9503 0.0
N1055 N 0.62084 0.95279 0.14557 0.0
C1056 C 0.67588 0.03245 0.99301 0.0
C1057 C 0.63463 0.9789 0.09342 0.0
N1058 N 0.6547 0.99772 0.87385 0.0
N1059 N 0.63961 0.01651 0.20042 0.0
H1060 H 0.61132 0.92877 0.12573 0.0
H1061 H 0.62198 0.95514 0.20917 0.0
H1062 H 0.64866 0.03961 0.22537 0.0
H1063 H 0.62114 0.99808 0.23533 0.0
H1064 H 0.66591 0.01752 0.8339 0.0
H1065 H 0.63973 0.9757 0.84442 0.0
H1066 H 0.70888 0.05247 0.89321 0.0
H1067 H 0.71792 0.07882 0.97636 0.0
C1068 C 0.63878 0.61756 0.204 0.0
C1069 C 0.67322 0.6352 0.19337 0.0
C1070 C 0.67366 0.68626 0.22701 0.0
C1071 C 0.63969 0.66821 0.2448 0.0
N1072 N 0.59128 0.61578 0.26578 0.0
N1073 N 0.72428 0.68556 0.20886 0.0
C1074 C 0.62262 0.63359 0.23753 0.0
C1075 C 0.6909 0.66937 0.20876 0.0
N1076 N 0.62119 0.58578 0.17874 0.0
N1077 N 0.68927 0.71961 0.22413 0.0
H1078 H 0.73778 0.67405 0.19692 0.0
H1079 H 0.73858 0.70965 0.2282 0.0
H1080 H 0.67752 0.73288 0.23578 0.0
H1081 H 0.71307 0.734 0.20286 0.0
H1082 H 0.59578 0.57279 0.17637 0.0
H1083 H 0.63189 0.57324 0.15274 0.0
H1084 H 0.57885 0.59041 0.27047 0.0
H1085 H 0.57867 0.62635 0.29206 0.0
C1086 C 0.01625 0.65205 0.30412 0.0
C1087 C 0.04367 0.67228 0.3545 0.0
C1088 C 1.00677 0.65763 0.47364 0.0
C1089 C 0.97922 0.63844 0.42266 0.0
N1090 N 0.95754 0.6245 0.2856 0.0
N1091 N 0.06303 0.70152 0.48192 0.0
C1092 C 0.98397 0.63785 0.33677 0.0
C1093 C 0.03828 0.6772 0.43769 0.0
N1094 N 0.02084 0.64491 0.22596 0.0
N1095 N 1.00345 0.65601 0.55689 0.0
H1096 H 0.08589 0.71727 0.45673 0.0
H1097 H 0.0598 0.70848 0.54019 0.0
H1098 H 0.98119 0.642 0.58616 0.0
H1099 H 0.02323 0.66627 0.59706 0.0
H1100 H 1.0023 0.62698 0.19017 0.0
H1101 H 0.04366 0.6551 0.19888 0.0
H1102 H 0.95939 0.62654 0.22199 0.0
H1103 H 0.93365 0.61427 0.3068 0.0
C1104 C 0.36689 0.01075 0.45909 0.0
C1105 C 0.38463 0.03859 0.5103 0.0
C1106 C 0.36907 1.00197 0.63032 0.0
C1107 C 0.35001 0.97429 0.57949 0.0
N1108 N 0.32334 0.95445 0.44917 0.0
N1109 N 0.39521 0.06069 0.64731 0.0
C1110 C 0.34674 0.97936 0.49495 0.0
C1111 C 0.38351 0.03415 0.5967 0.0
N1112 N 0.37038 0.01373 0.37594 0.0
N1113 N 0.37477 0.99777 0.71014 0.0
H1114 H 0.40532 0.0845 0.62551 0.0
H1115 H 0.39183 0.05891 0.71061 0.0
H1116 H 0.3643 0.97507 0.73802 0.0
H1117 H 0.39186 0.01658 0.7469 0.0
H1118 H 0.3611 0.99376 0.33641 0.0
H1119 H 0.38513 0.03585 0.34675 0.0
H1120 H 0.31758 0.95748 0.38935 0.0
H1121 H 0.30702 0.93173 0.47412 0.0
C1122 C 0.33053 0.34685 0.70183 0.0
C1123 C 0.34898 0.38078 0.68381 0.0
C1124 C 0.39914 0.38105 0.72626 0.0
C1125 C 0.38117 0.34659 0.73646 0.0
N1126 N 0.33044 0.29587 0.7209 0.0
N1127 N 0.40173 0.42893 0.66437 0.0
C1128 C 0.34701 0.32926 0.72083 0.0
C1129 C 0.38354 0.39756 0.69218 0.0
N1130 N 0.2972 0.33161 0.704 0.0
N1131 N 0.43084 0.39831 0.75226 0.0
H1132 H 0.39146 0.44178 0.63782 0.0
H1133 H 0.4271 0.44116 0.6604 0.0
H1134 H 0.44301 0.38734 0.77897 0.0
H1135 H 0.4441 0.42371 0.75473 0.0
H1136 H 0.2825 0.30788 0.72538 0.0
H1137 H 0.28423 0.34362 0.69157 0.0
H1138 H 0.30637 0.28181 0.70119 0.0
H1139 H 0.34156 0.28208 0.73363 0.0
loop_
_geom_bond_atom_site_label_1
_geom_bond_atom_site_label_2
_geom_bond_distance
_geom_bond_site_symmetry_2
_ccdc_geom_bond_type
Co0 O2 2.143 . S
Co0 O8 2.074 1_554 S
Co0 O11 2.093 . S
Co0 O24 2.097 . S
Co0 N41 2.151 1_554 S
Co0 N49 2.214 . S
Co1 O2 2.160 . S
Co1 O7 2.058 1_554 S
Co1 O17 2.057 1_554 S
Co1 O32 2.037 . S
Co1 N36 2.145 . S
Co1 N57 2.257 . S
O2 Co0 2.143 . S
O2 Co1 2.160 . S
C3 O4 1.278 . S
C3 O11 1.224 . S
O4 C3 1.278 . S
C5 O6 1.245 . S
C5 O17 1.232 . S
O6 C5 1.245 . S
O7 Co1 2.058 1_556 S
O7 C33 1.269 . S
O8 Co0 2.074 1_556 S
O8 C33 1.257 . S
H9 C34 0.930 . S
H10 C40 0.930 . S
O11 Co0 2.093 . S
O11 C3 1.224 . S
H12 C44 0.929 . S
H13 C46 0.930 . S
H14 C47 0.930 . S
H15 C45 0.929 . S
H16 C48 0.928 . S
O17 Co1 2.057 1_556 S
O17 C5 1.232 . S
H18 C37 0.929 . S
H19 C38 0.929 . S
H20 C50 0.931 . S
H21 C42 0.929 . S
H22 C51 0.930 . S
H23 C43 0.931 . S
O24 Co0 2.097 . S
O24 C52 1.214 . S
H25 C53 0.929 . S
H26 C54 0.929 . S
H27 C55 0.930 . S
H28 C56 0.929 . S
H29 C58 0.930 . S
H30 C35 0.930 . S
H31 C39 0.930 . S
O32 Co1 2.037 . S
O32 C52 1.234 . S
C33 O7 1.269 . S
C33 O8 1.257 . S
C34 H9 0.930 . S
C34 C37 1.388 . S
C34 C39 1.418 . S
C35 H30 0.930 . S
C35 C38 1.404 . S
C35 C39 1.353 . S
N36 Co1 2.145 . S
N36 C37 1.397 . S
N36 C38 1.334 . S
C37 H18 0.929 . S
C37 C34 1.388 . S
C37 N36 1.397 . S
C38 H19 0.929 . S
C38 C35 1.404 . S
C38 N36 1.334 . S
C39 H31 0.930 . S
C39 C34 1.418 . S
C39 C35 1.353 . S
C40 H10 0.930 . S
C40 N41 1.330 . S
C40 C42 1.446 . S
N41 Co0 2.151 1_556 S
N41 C40 1.330 . S
N41 C45 1.418 . S
C42 H21 0.929 . S
C42 C40 1.446 . S
C42 C43 1.332 . S
C43 H23 0.931 . S
C43 C42 1.332 . S
C43 C44 1.267 . S
C44 H12 0.929 . S
C44 C43 1.267 . S
C44 C45 1.251 . S
C45 H15 0.929 . S
C45 N41 1.418 . S
C45 C44 1.251 . S
C46 H13 0.930 . S
C46 C48 1.406 . S
C46 C51 1.261 . S
C47 H14 0.930 . S
C47 N49 1.325 . S
C47 C50 1.357 . S
C48 H16 0.928 . S
C48 C46 1.406 . S
C48 N49 1.261 . S
N49 Co0 2.214 . S
N49 C47 1.325 . S
N49 C48 1.261 . S
C50 H20 0.931 . S
C50 C47 1.357 . S
C50 C51 1.312 . S
C51 H22 0.930 . S
C51 C46 1.261 . S
C51 C50 1.312 . S
C52 O24 1.214 . S
C52 O32 1.234 . S
C53 H25 0.929 . S
C53 C56 1.391 . S
C53 C58 1.391 . S
C54 H26 0.929 . S
C54 C55 1.390 . S
C54 N57 1.391 . S
C55 H27 0.930 . S
C55 C54 1.390 . S
C55 C56 1.392 . S
C56 H28 0.929 . S
C56 C53 1.391 . S
C56 C55 1.392 . S
N57 Co1 2.257 . S
N57 C54 1.391 . S
N57 C58 1.388 . S
C58 H29 0.930 . S
C58 C53 1.391 . S
C58 N57 1.388 . S
Co59 O61 2.143 . S
Co59 O67 2.074 . S
Co59 O70 2.093 . S
Co59 O83 2.097 . S
Co59 N100 2.151 . S
Co59 N108 2.214 . S
Co60 O61 2.160 . S
Co60 O66 2.058 . S
Co60 O76 2.057 . S
Co60 O91 2.037 . S
Co60 N95 2.145 . S
Co60 N116 2.257 . S
O61 Co59 2.143 . S
O61 Co60 2.160 . S
C62 O63 1.278 . S
C62 O70 1.224 . S
O63 C62 1.278 . S
C64 O65 1.245 . S
C64 O76 1.232 . S
O65 C64 1.245 . S
O66 Co60 2.058 . S
O66 C92 1.269 . S
O67 Co59 2.074 . S
O67 C92 1.257 . S
H68 C93 0.930 . S
H69 C99 0.930 . S
O70 Co59 2.093 . S
O70 C62 1.224 . S
H71 C103 0.929 . S
H72 C105 0.930 . S
H73 C106 0.930 . S
H74 C104 0.929 . S
H75 C107 0.928 . S
O76 Co60 2.057 . S
O76 C64 1.232 . S
H77 C96 0.929 . S
H78 C97 0.929 . S
H79 C109 0.931 . S
H80 C101 0.929 . S
H81 C110 0.930 . S
H82 C102 0.931 . S
O83 Co59 2.097 . S
O83 C111 1.214 . S
H84 C112 0.929 . S
H85 C113 0.929 . S
H86 C114 0.930 . S
H87 C115 0.929 . S
H88 C117 0.930 . S
H89 C94 0.930 . S
H90 C98 0.930 . S
O91 Co60 2.037 . S
O91 C111 1.234 . S
C92 O66 1.269 . S
C92 O67 1.257 . S
C93 H68 0.930 . S
C93 C96 1.388 . S
C93 C98 1.418 . S
C94 H89 0.930 . S
C94 C97 1.404 . S
C94 C98 1.353 . S
N95 Co60 2.145 . S
N95 C96 1.397 . S
N95 C97 1.334 . S
C96 H77 0.929 . S
C96 C93 1.388 . S
C96 N95 1.397 . S
C97 H78 0.929 . S
C97 C94 1.404 . S
C97 N95 1.334 . S
C98 H90 0.930 . S
C98 C93 1.418 . S
C98 C94 1.353 . S
C99 H69 0.930 . S
C99 N100 1.330 . S
C99 C101 1.446 . S
N100 Co59 2.151 . S
N100 C99 1.330 . S
N100 C104 1.418 . S
C101 H80 0.929 . S
C101 C99 1.446 . S
C101 C102 1.332 1_554 S
C102 H82 0.931 . S
C102 C101 1.332 1_556 S
C102 C103 1.267 . S
C103 H71 0.929 . S
C103 C102 1.267 . S
C103 C104 1.251 1_556 S
C104 H74 0.929 . S
C104 N100 1.418 . S
C104 C103 1.251 1_554 S
C105 H72 0.930 . S
C105 C107 1.406 . S
C105 C110 1.261 . S
C106 H73 0.930 . S
C106 N108 1.325 . S
C106 C109 1.357 . S
C107 H75 0.928 . S
C107 C105 1.406 . S
C107 N108 1.261 . S
N108 Co59 2.214 . S
N108 C106 1.325 . S
N108 C107 1.261 . S
C109 H79 0.931 . S
C109 C106 1.357 . S
C109 C110 1.312 . S
C110 H81 0.930 . S
C110 C105 1.261 . S
C110 C109 1.312 . S
C111 O83 1.214 . S
C111 O91 1.234 . S
C112 H84 0.929 . S
C112 C115 1.391 . S
C112 C117 1.391 . S
C113 H85 0.929 . S
C113 C114 1.390 . S
C113 N116 1.391 . S
C114 H86 0.930 . S
C114 C113 1.390 . S
C114 C115 1.392 . S
C115 H87 0.929 . S
C115 C112 1.391 . S
C115 C114 1.392 . S
N116 Co60 2.257 . S
N116 C113 1.391 . S
N116 C117 1.388 . S
C117 H88 0.930 . S
C117 C112 1.391 . S
C117 N116 1.388 . S
Co118 O120 2.143 . S
Co118 O126 2.074 . S
Co118 O129 2.093 . S
Co118 O142 2.097 . S
Co118 N159 2.151 . S
Co118 N167 2.214 . S
Co119 O120 2.160 . S
Co119 O125 2.058 . S
Co119 O135 2.057 . S
Co119 O150 2.037 . S
Co119 N154 2.145 . S
Co119 N175 2.257 . S
O120 Co118 2.143 . S
O120 Co119 2.160 . S
C121 O122 1.278 . S
C121 O129 1.224 . S
O122 C121 1.278 . S
C123 O124 1.245 . S
C123 O135 1.232 . S
O124 C123 1.245 . S
O125 Co119 2.058 . S
O125 C151 1.269 . S
O126 Co118 2.074 . S
O126 C151 1.257 . S
H127 C152 0.930 . S
H128 C158 0.930 . S
O129 Co118 2.093 . S
O129 C121 1.224 . S
H130 C162 0.929 . S
H131 C164 0.930 . S
H132 C165 0.930 . S
H133 C163 0.929 . S
H134 C166 0.928 . S
O135 Co119 2.057 . S
O135 C123 1.232 . S
H136 C155 0.929 . S
H137 C156 0.929 . S
H138 C168 0.931 . S
H139 C160 0.929 . S
H140 C169 0.930 . S
H141 C161 0.931 . S
O142 Co118 2.097 . S
O142 C170 1.214 . S
H143 C171 0.929 . S
H144 C172 0.929 . S
H145 C173 0.930 . S
H146 C174 0.929 . S
H147 C176 0.930 . S
H148 C153 0.930 . S
H149 C157 0.930 . S
O150 Co119 2.037 . S
O150 C170 1.234 . S
C151 O125 1.269 . S
C151 O126 1.257 . S
C152 H127 0.930 . S
C152 C155 1.388 . S
C152 C157 1.418 . S
C153 H148 0.930 . S
C153 C156 1.404 . S
C153 C157 1.353 . S
N154 Co119 2.145 . S
N154 C155 1.397 . S
N154 C156 1.334 . S
C155 H136 0.929 . S
C155 C152 1.388 . S
C155 N154 1.397 . S
C156 H137 0.929 . S
C156 C153 1.404 . S
C156 N154 1.334 . S
C157 H149 0.930 . S
C157 C152 1.418 . S
C157 C153 1.353 . S
C158 H128 0.930 . S
C158 N159 1.330 . S
C158 C160 1.446 . S
N159 Co118 2.151 . S
N159 C158 1.330 . S
N159 C163 1.418 . S
C160 H139 0.929 . S
C160 C158 1.446 . S
C160 C161 1.332 . S
C161 H141 0.931 . S
C161 C160 1.332 . S
C161 C162 1.267 . S
C162 H130 0.929 . S
C162 C161 1.267 . S
C162 C163 1.251 . S
C163 H133 0.929 . S
C163 N159 1.418 . S
C163 C162 1.251 . S
C164 H131 0.930 . S
C164 C166 1.406 . S
C164 C169 1.261 . S
C165 H132 0.930 . S
C165 N167 1.325 . S
C165 C168 1.357 . S
C166 H134 0.928 . S
C166 C164 1.406 . S
C166 N167 1.261 . S
N167 Co118 2.214 . S
N167 C165 1.325 . S
N167 C166 1.261 . S
C168 H138 0.931 . S
C168 C165 1.357 . S
C168 C169 1.312 . S
C169 H140 0.930 . S
C169 C164 1.261 . S
C169 C168 1.312 . S
C170 O142 1.214 . S
C170 O150 1.234 . S
C171 H143 0.929 . S
C171 C174 1.391 . S
C171 C176 1.391 . S
C172 H144 0.929 . S
C172 C173 1.390 . S
C172 N175 1.391 . S
C173 H145 0.930 . S
C173 C172 1.390 . S
C173 C174 1.392 . S
C174 H146 0.929 . S
C174 C171 1.391 . S
C174 C173 1.392 . S
N175 Co119 2.257 . S
N175 C172 1.391 . S
N175 C176 1.388 . S
C176 H147 0.930 . S
C176 C171 1.391 . S
C176 N175 1.388 . S
Co177 O179 2.143 . S
Co177 O185 2.074 . S
Co177 O188 2.093 . S
Co177 O201 2.097 . S
Co177 N218 2.151 . S
Co177 N226 2.214 . S
Co178 O179 2.160 . S
Co178 O184 2.058 . S
Co178 O194 2.057 . S
Co178 O209 2.037 . S
Co178 N213 2.145 . S
Co178 N234 2.257 . S
O179 Co177 2.143 . S
O179 Co178 2.160 . S
C180 O181 1.278 . S
C180 O188 1.224 . S
O181 C180 1.278 . S
C182 O183 1.245 . S
C182 O194 1.232 . S
O183 C182 1.245 . S
O184 Co178 2.058 . S
O184 C210 1.269 . S
O185 Co177 2.074 . S
O185 C210 1.257 . S
H186 C211 0.930 . S
H187 C217 0.930 . S
O188 Co177 2.093 . S
O188 C180 1.224 . S
H189 C221 0.929 . S
H190 C223 0.930 . S
H191 C224 0.930 . S
H192 C222 0.929 . S
H193 C225 0.928 . S
O194 Co178 2.057 . S
O194 C182 1.232 . S
H195 C214 0.929 . S
H196 C215 0.929 . S
H197 C227 0.931 . S
H198 C219 0.929 . S
H199 C228 0.930 . S
H200 C220 0.931 . S
O201 Co177 2.097 . S
O201 C229 1.214 . S
H202 C230 0.929 . S
H203 C231 0.929 . S
H204 C232 0.930 . S
H205 C233 0.929 . S
H206 C235 0.930 . S
H207 C212 0.930 . S
H208 C216 0.930 . S
O209 Co178 2.037 . S
O209 C229 1.234 . S
C210 O184 1.269 . S
C210 O185 1.257 . S
C211 H186 0.930 . S
C211 C214 1.388 . S
C211 C216 1.418 . S
C212 H207 0.930 . S
C212 C215 1.404 . S
C212 C216 1.353 . S
N213 Co178 2.145 . S
N213 C214 1.397 . S
N213 C215 1.334 . S
C214 H195 0.929 . S
C214 C211 1.388 . S
C214 N213 1.397 . S
C215 H196 0.929 . S
C215 C212 1.404 . S
C215 N213 1.334 . S
C216 H208 0.930 . S
C216 C211 1.418 . S
C216 C212 1.353 . S
C217 H187 0.930 . S
C217 N218 1.330 . S
C217 C219 1.446 . S
N218 Co177 2.151 . S
N218 C217 1.330 . S
N218 C222 1.418 . S
C219 H198 0.929 . S
C219 C217 1.446 . S
C219 C220 1.332 . S
C220 H200 0.931 . S
C220 C219 1.332 . S
C220 C221 1.267 . S
C221 H189 0.929 . S
C221 C220 1.267 . S
C221 C222 1.251 . S
C222 H192 0.929 . S
C222 N218 1.418 . S
C222 C221 1.251 . S
C223 H190 0.930 . S
C223 C225 1.406 . S
C223 C228 1.261 . S
C224 H191 0.930 . S
C224 N226 1.325 . S
C224 C227 1.357 . S
C225 H193 0.928 . S
C225 C223 1.406 . S
C225 N226 1.261 . S
N226 Co177 2.214 . S
N226 C224 1.325 . S
N226 C225 1.261 . S
C227 H197 0.931 . S
C227 C224 1.357 . S
C227 C228 1.312 . S
C228 H199 0.930 . S
C228 C223 1.261 . S
C228 C227 1.312 . S
C229 O201 1.214 . S
C229 O209 1.234 . S
C230 H202 0.929 . S
C230 C233 1.391 . S
C230 C235 1.391 . S
C231 H203 0.929 . S
C231 C232 1.390 . S
C231 N234 1.391 . S
C232 H204 0.930 . S
C232 C231 1.390 . S
C232 C233 1.392 . S
C233 H205 0.929 . S
C233 C230 1.391 . S
C233 C232 1.392 . S
N234 Co178 2.257 . S
N234 C231 1.391 . S
N234 C235 1.388 . S
C235 H206 0.930 . S
C235 C230 1.391 . S
C235 N234 1.388 . S
Co236 O238 2.143 . S
Co236 O244 2.074 . S
Co236 O247 2.093 . S
Co236 O260 2.097 . S
Co236 N277 2.151 . S
Co236 N285 2.214 . S
Co237 O238 2.160 . S
Co237 O243 2.058 . S
Co237 O253 2.057 . S
Co237 O268 2.037 . S
Co237 N272 2.145 . S
Co237 N293 2.257 . S
O238 Co236 2.143 . S
O238 Co237 2.160 . S
C239 O240 1.278 . S
C239 O247 1.224 . S
O240 C239 1.278 . S
C241 O242 1.245 . S
C241 O253 1.232 . S
O242 C241 1.245 . S
O243 Co237 2.058 . S
O243 C269 1.269 . S
O244 Co236 2.074 . S
O244 C269 1.257 . S
H245 C270 0.930 . S
H246 C276 0.930 . S
O247 Co236 2.093 . S
O247 C239 1.224 . S
H248 C280 0.929 . S
H249 C282 0.930 . S
H250 C283 0.930 . S
H251 C281 0.929 . S
H252 C284 0.928 . S
O253 Co237 2.057 . S
O253 C241 1.232 . S
H254 C273 0.929 . S
H255 C274 0.929 . S
H256 C286 0.931 . S
H257 C278 0.929 . S
H258 C287 0.930 . S
H259 C279 0.931 . S
O260 Co236 2.097 . S
O260 C288 1.214 . S
H261 C289 0.929 . S
H262 C290 0.929 . S
H263 C291 0.930 1_554 S
H264 C292 0.929 1_554 S
H265 C294 0.930 . S
H266 C271 0.930 . S
H267 C275 0.930 . S
O268 Co237 2.037 . S
O268 C288 1.234 . S
C269 O243 1.269 . S
C269 O244 1.257 . S
C270 H245 0.930 . S
C270 C273 1.388 . S
C270 C275 1.418 . S
C271 H266 0.930 . S
C271 C274 1.404 . S
C271 C275 1.353 . S
N272 Co237 2.145 . S
N272 C273 1.397 . S
N272 C274 1.334 . S
C273 H254 0.929 . S
C273 C270 1.388 . S
C273 N272 1.397 . S
C274 H255 0.929 . S
C274 C271 1.404 . S
C274 N272 1.334 . S
C275 H267 0.930 . S
C275 C270 1.418 . S
C275 C271 1.353 . S
C276 H246 0.930 . S
C276 N277 1.330 . S
C276 C278 1.446 . S
N277 Co236 2.151 . S
N277 C276 1.330 . S
N277 C281 1.418 . S
C278 H257 0.929 . S
C278 C276 1.446 . S
C278 C279 1.332 . S
C279 H259 0.931 . S
C279 C278 1.332 . S
C279 C280 1.267 . S
C280 H248 0.929 . S
C280 C279 1.267 . S
C280 C281 1.251 . S
C281 H251 0.929 . S
C281 N277 1.418 . S
C281 C280 1.251 . S
C282 H249 0.930 . S
C282 C284 1.406 . S
C282 C287 1.261 . S
C283 H250 0.930 . S
C283 N285 1.325 . S
C283 C286 1.357 . S
C284 H252 0.928 . S
C284 C282 1.406 . S
C284 N285 1.261 . S
N285 Co236 2.214 . S
N285 C283 1.325 . S
N285 C284 1.261 . S
C286 H256 0.931 . S
C286 C283 1.357 . S
C286 C287 1.312 . S
C287 H258 0.930 . S
C287 C282 1.261 . S
C287 C286 1.312 . S
C288 O260 1.214 . S
C288 O268 1.234 . S
C289 H261 0.929 . S
C289 C292 1.391 . S
C289 C294 1.391 . S
C290 H262 0.929 . S
C290 C291 1.390 . S
C290 N293 1.391 . S
C291 H263 0.930 1_556 S
C291 C290 1.390 . S
C291 C292 1.392 . S
C292 H264 0.929 1_556 S
C292 C289 1.391 . S
C292 C291 1.392 . S
N293 Co237 2.257 . S
N293 C290 1.391 . S
N293 C294 1.388 . S
C294 H265 0.930 . S
C294 C289 1.391 . S
C294 N293 1.388 . S
Co295 O297 2.143 . S
Co295 O303 2.074 . S
Co295 O306 2.093 . S
Co295 O319 2.097 . S
Co295 N336 2.151 . S
Co295 N344 2.214 . S
Co296 O297 2.160 . S
Co296 O302 2.058 . S
Co296 O312 2.057 . S
Co296 O327 2.037 . S
Co296 N331 2.145 . S
Co296 N352 2.257 . S
O297 Co295 2.143 . S
O297 Co296 2.160 . S
C298 O299 1.278 . S
C298 O306 1.224 . S
O299 C298 1.278 . S
C300 O301 1.245 . S
C300 O312 1.232 . S
O301 C300 1.245 . S
O302 Co296 2.058 . S
O302 C328 1.269 . S
O303 Co295 2.074 . S
O303 C328 1.257 . S
H304 C329 0.930 . S
H305 C335 0.930 . S
O306 Co295 2.093 . S
O306 C298 1.224 . S
H307 C339 0.929 . S
H308 C341 0.930 . S
H309 C342 0.930 . S
H310 C340 0.929 . S
H311 C343 0.928 . S
O312 Co296 2.057 . S
O312 C300 1.232 . S
H313 C332 0.929 . S
H314 C333 0.929 . S
H315 C345 0.931 . S
H316 C337 0.929 . S
H317 C346 0.930 . S
H318 C338 0.931 . S
O319 Co295 2.097 . S
O319 C347 1.214 . S
H320 C348 0.929 . S
H321 C349 0.929 . S
H322 C350 0.930 . S
H323 C351 0.929 . S
H324 C353 0.930 . S
H325 C330 0.930 . S
H326 C334 0.930 . S
O327 Co296 2.037 . S
O327 C347 1.234 . S
C328 O302 1.269 . S
C328 O303 1.257 . S
C329 H304 0.930 . S
C329 C332 1.388 . S
C329 C334 1.418 . S
C330 H325 0.930 . S
C330 C333 1.404 . S
C330 C334 1.353 . S
N331 Co296 2.145 . S
N331 C332 1.397 . S
N331 C333 1.334 . S
C332 H313 0.929 . S
C332 C329 1.388 . S
C332 N331 1.397 . S
C333 H314 0.929 . S
C333 C330 1.404 . S
C333 N331 1.334 . S
C334 H326 0.930 . S
C334 C329 1.418 . S
C334 C330 1.353 . S
C335 H305 0.930 . S
C335 N336 1.330 . S
C335 C337 1.446 1_556 S
N336 Co295 2.151 . S
N336 C335 1.330 . S
N336 C340 1.418 1_556 S
C337 H316 0.929 . S
C337 C335 1.446 1_554 S
C337 C338 1.332 . S
C338 H318 0.931 . S
C338 C337 1.332 . S
C338 C339 1.267 . S
C339 H307 0.929 . S
C339 C338 1.267 . S
C339 C340 1.251 . S
C340 H310 0.929 . S
C340 N336 1.418 1_554 S
C340 C339 1.251 . S
C341 H308 0.930 . S
C341 C343 1.406 . S
C341 C346 1.261 . S
C342 H309 0.930 . S
C342 N344 1.325 . S
C342 C345 1.357 . S
C343 H311 0.928 . S
C343 C341 1.406 . S
C343 N344 1.261 . S
N344 Co295 2.214 . S
N344 C342 1.325 . S
N344 C343 1.261 . S
C345 H315 0.931 . S
C345 C342 1.357 . S
C345 C346 1.312 . S
C346 H317 0.930 . S
C346 C341 1.261 . S
C346 C345 1.312 . S
C347 O319 1.214 . S
C347 O327 1.234 . S
C348 H320 0.929 . S
C348 C351 1.391 . S
C348 C353 1.391 . S
C349 H321 0.929 . S
C349 C350 1.390 . S
C349 N352 1.391 . S
C350 H322 0.930 . S
C350 C349 1.390 . S
C350 C351 1.392 . S
C351 H323 0.929 . S
C351 C348 1.391 . S
C351 C350 1.392 . S
N352 Co296 2.257 . S
N352 C349 1.391 . S
N352 C353 1.388 . S
C353 H324 0.930 . S
C353 C348 1.391 . S
C353 N352 1.388 . S
Co354 O356 2.143 . S
Co354 O362 2.074 . S
Co354 O365 2.093 . S
Co354 O378 2.097 . S
Co354 N395 2.151 . S
Co354 N403 2.214 . S
Co355 O356 2.160 . S
Co355 O361 2.058 . S
Co355 O371 2.057 . S
Co355 O386 2.037 . S
Co355 N390 2.145 . S
Co355 N411 2.257 . S
O356 Co354 2.143 . S
O356 Co355 2.160 . S
C357 O358 1.278 . S
C357 O365 1.224 . S
O358 C357 1.278 . S
C359 O360 1.245 . S
C359 O371 1.232 . S
O360 C359 1.245 . S
O361 Co355 2.058 . S
O361 C387 1.269 . S
O362 Co354 2.074 . S
O362 C387 1.257 . S
H363 C388 0.930 . S
H364 C394 0.930 1_556 S
O365 Co354 2.093 . S
O365 C357 1.224 . S
H366 C398 0.929 . S
H367 C400 0.930 . S
H368 C401 0.930 . S
H369 C399 0.929 . S
H370 C402 0.928 . S
O371 Co355 2.057 . S
O371 C359 1.232 . S
H372 C391 0.929 . S
H373 C392 0.929 . S
H374 C404 0.931 . S
H375 C396 0.929 . S
H376 C405 0.930 . S
H377 C397 0.931 . S
O378 Co354 2.097 . S
O378 C406 1.214 . S
H379 C407 0.929 . S
H380 C408 0.929 . S
H381 C409 0.930 . S
H382 C410 0.929 . S
H383 C412 0.930 . S
H384 C389 0.930 . S
H385 C393 0.930 . S
O386 Co355 2.037 . S
O386 C406 1.234 . S
C387 O361 1.269 . S
C387 O362 1.257 . S
C388 H363 0.930 . S
C388 C391 1.388 . S
C388 C393 1.418 . S
C389 H384 0.930 . S
C389 C392 1.404 . S
C389 C393 1.353 . S
N390 Co355 2.145 . S
N390 C391 1.397 . S
N390 C392 1.334 . S
C391 H372 0.929 . S
C391 C388 1.388 . S
C391 N390 1.397 . S
C392 H373 0.929 . S
C392 C389 1.404 . S
C392 N390 1.334 . S
C393 H385 0.930 . S
C393 C388 1.418 . S
C393 C389 1.353 . S
C394 H364 0.930 1_554 S
C394 N395 1.330 1_554 S
C394 C396 1.446 . S
N395 Co354 2.151 . S
N395 C394 1.330 1_556 S
N395 C399 1.418 1_556 S
C396 H375 0.929 . S
C396 C394 1.446 . S
C396 C397 1.332 . S
C397 H377 0.931 . S
C397 C396 1.332 . S
C397 C398 1.267 . S
C398 H366 0.929 . S
C398 C397 1.267 . S
C398 C399 1.251 . S
C399 H369 0.929 . S
C399 N395 1.418 1_554 S
C399 C398 1.251 . S
C400 H367 0.930 . S
C400 C402 1.406 . S
C400 C405 1.261 . S
C401 H368 0.930 . S
C401 N403 1.325 . S
C401 C404 1.357 . S
C402 H370 0.928 . S
C402 C400 1.406 . S
C402 N403 1.261 . S
N403 Co354 2.214 . S
N403 C401 1.325 . S
N403 C402 1.261 . S
C404 H374 0.931 . S
C404 C401 1.357 . S
C404 C405 1.312 . S
C405 H376 0.930 . S
C405 C400 1.261 . S
C405 C404 1.312 . S
C406 O378 1.214 . S
C406 O386 1.234 . S
C407 H379 0.929 . S
C407 C410 1.391 . S
C407 C412 1.391 . S
C408 H380 0.929 . S
C408 C409 1.390 . S
C408 N411 1.391 . S
C409 H381 0.930 . S
C409 C408 1.390 . S
C409 C410 1.392 . S
C410 H382 0.929 . S
C410 C407 1.391 . S
C410 C409 1.392 . S
N411 Co355 2.257 . S
N411 C408 1.391 . S
N411 C412 1.388 . S
C412 H383 0.930 . S
C412 C407 1.391 . S
C412 N411 1.388 . S
Co413 O415 2.143 . S
Co413 O421 2.074 . S
Co413 O424 2.093 1_554 S
Co413 O437 2.097 1_554 S
Co413 N454 2.151 . S
Co413 N462 2.214 . S
Co414 O415 2.160 . S
Co414 O420 2.058 . S
Co414 O430 2.057 . S
Co414 O445 2.037 1_554 S
Co414 N449 2.145 . S
Co414 N470 2.257 1_554 S
O415 Co413 2.143 . S
O415 Co414 2.160 . S
C416 O417 1.278 . S
C416 O424 1.224 . S
O417 C416 1.278 . S
C418 O419 1.245 . S
C418 O430 1.232 . S
O419 C418 1.245 . S
O420 Co414 2.058 . S
O420 C446 1.269 . S
O421 Co413 2.074 . S
O421 C446 1.257 . S
H422 C447 0.930 . S
H423 C453 0.930 . S
O424 Co413 2.093 1_556 S
O424 C416 1.224 . S
H425 C457 0.929 . S
H426 C459 0.930 . S
H427 C460 0.930 . S
H428 C458 0.929 . S
H429 C461 0.928 . S
O430 Co414 2.057 . S
O430 C418 1.232 . S
H431 C450 0.929 . S
H432 C451 0.929 . S
H433 C463 0.931 . S
H434 C455 0.929 . S
H435 C464 0.930 . S
H436 C456 0.931 . S
O437 Co413 2.097 1_556 S
O437 C465 1.214 . S
H438 C466 0.929 . S
H439 C467 0.929 . S
H440 C468 0.930 . S
H441 C469 0.929 . S
H442 C471 0.930 . S
H443 C448 0.930 . S
H444 C452 0.930 . S
O445 Co414 2.037 1_556 S
O445 C465 1.234 . S
C446 O420 1.269 . S
C446 O421 1.257 . S
C447 H422 0.930 . S
C447 C450 1.388 . S
C447 C452 1.418 . S
C448 H443 0.930 . S
C448 C451 1.404 . S
C448 C452 1.353 1_554 S
N449 Co414 2.145 . S
N449 C450 1.397 1_554 S
N449 C451 1.334 . S
C450 H431 0.929 . S
C450 C447 1.388 . S
C450 N449 1.397 1_556 S
C451 H432 0.929 . S
C451 C448 1.404 . S
C451 N449 1.334 . S
C452 H444 0.930 . S
C452 C447 1.418 . S
C452 C448 1.353 1_556 S
C453 H423 0.930 . S
C453 N454 1.330 . S
C453 C455 1.446 . S
N454 Co413 2.151 . S
N454 C453 1.330 . S
N454 C458 1.418 . S
C455 H434 0.929 . S
C455 C453 1.446 . S
C455 C456 1.332 . S
C456 H436 0.931 . S
C456 C455 1.332 . S
C456 C457 1.267 . S
C457 H425 0.929 . S
C457 C456 1.267 . S
C457 C458 1.251 . S
C458 H428 0.929 . S
C458 N454 1.418 . S
C458 C457 1.251 . S
C459 H426 0.930 . S
C459 C461 1.406 . S
C459 C464 1.261 . S
C460 H427 0.930 . S
C460 N462 1.325 . S
C460 C463 1.357 . S
C461 H429 0.928 . S
C461 C459 1.406 . S
C461 N462 1.261 . S
N462 Co413 2.214 . S
N462 C460 1.325 . S
N462 C461 1.261 . S
C463 H433 0.931 . S
C463 C460 1.357 . S
C463 C464 1.312 . S
C464 H435 0.930 . S
C464 C459 1.261 . S
C464 C463 1.312 . S
C465 O437 1.214 . S
C465 O445 1.234 . S
C466 H438 0.929 . S
C466 C469 1.391 . S
C466 C471 1.391 . S
C467 H439 0.929 . S
C467 C468 1.390 . S
C467 N470 1.391 . S
C468 H440 0.930 . S
C468 C467 1.390 . S
C468 C469 1.392 . S
C469 H441 0.929 . S
C469 C466 1.391 . S
C469 C468 1.392 . S
N470 Co414 2.257 1_556 S
N470 C467 1.391 . S
N470 C471 1.388 . S
C471 H442 0.930 . S
C471 C466 1.391 . S
C471 N470 1.388 . S
Co472 O474 2.143 . S
Co472 O480 2.074 . S
Co472 O483 2.093 . S
Co472 O496 2.097 . S
Co472 N513 2.151 . S
Co472 N521 2.214 . S
Co473 O474 2.160 . S
Co473 O479 2.058 . S
Co473 O489 2.057 . S
Co473 O504 2.037 . S
Co473 N508 2.145 . S
Co473 N529 2.257 . S
O474 Co472 2.143 . S
O474 Co473 2.160 . S
C475 O476 1.278 . S
C475 O483 1.224 . S
O476 C475 1.278 . S
C477 O478 1.245 . S
C477 O489 1.232 . S
O478 C477 1.245 . S
O479 Co473 2.058 . S
O479 C505 1.269 . S
O480 Co472 2.074 . S
O480 C505 1.257 . S
H481 C506 0.930 . S
H482 C512 0.930 . S
O483 Co472 2.093 . S
O483 C475 1.224 . S
H484 C516 0.929 . S
H485 C518 0.930 . S
H486 C519 0.930 . S
H487 C517 0.929 . S
H488 C520 0.928 . S
O489 Co473 2.057 . S
O489 C477 1.232 . S
H490 C509 0.929 . S
H491 C510 0.929 . S
H492 C522 0.931 . S
H493 C514 0.929 . S
H494 C523 0.930 . S
H495 C515 0.931 . S
O496 Co472 2.097 . S
O496 C524 1.214 . S
H497 C525 0.929 . S
H498 C526 0.929 . S
H499 C527 0.930 . S
H500 C528 0.929 . S
H501 C530 0.930 . S
H502 C507 0.930 . S
H503 C511 0.930 . S
O504 Co473 2.037 . S
O504 C524 1.234 . S
C505 O479 1.269 . S
C505 O480 1.257 . S
C506 H481 0.930 . S
C506 C509 1.388 . S
C506 C511 1.418 . S
C507 H502 0.930 . S
C507 C510 1.404 . S
C507 C511 1.353 . S
N508 Co473 2.145 . S
N508 C509 1.397 . S
N508 C510 1.334 . S
C509 H490 0.929 . S
C509 C506 1.388 . S
C509 N508 1.397 . S
C510 H491 0.929 . S
C510 C507 1.404 . S
C510 N508 1.334 . S
C511 H503 0.930 . S
C511 C506 1.418 . S
C511 C507 1.353 . S
C512 H482 0.930 . S
C512 N513 1.330 . S
C512 C514 1.446 . S
N513 Co472 2.151 . S
N513 C512 1.330 . S
N513 C517 1.418 . S
C514 H493 0.929 . S
C514 C512 1.446 . S
C514 C515 1.332 1_554 S
C515 H495 0.931 . S
C515 C514 1.332 1_556 S
C515 C516 1.267 . S
C516 H484 0.929 . S
C516 C515 1.267 . S
C516 C517 1.251 1_556 S
C517 H487 0.929 . S
C517 N513 1.418 . S
C517 C516 1.251 1_554 S
C518 H485 0.930 . S
C518 C520 1.406 . S
C518 C523 1.261 . S
C519 H486 0.930 . S
C519 N521 1.325 . S
C519 C522 1.357 . S
C520 H488 0.928 . S
C520 C518 1.406 . S
C520 N521 1.261 . S
N521 Co472 2.214 . S
N521 C519 1.325 . S
N521 C520 1.261 . S
C522 H492 0.931 . S
C522 C519 1.357 . S
C522 C523 1.312 . S
C523 H494 0.930 . S
C523 C518 1.261 . S
C523 C522 1.312 . S
C524 O496 1.214 . S
C524 O504 1.234 . S
C525 H497 0.929 . S
C525 C528 1.391 . S
C525 C530 1.391 . S
C526 H498 0.929 . S
C526 C527 1.390 . S
C526 N529 1.391 . S
C527 H499 0.930 . S
C527 C526 1.390 . S
C527 C528 1.392 . S
C528 H500 0.929 . S
C528 C525 1.391 . S
C528 C527 1.392 . S
N529 Co473 2.257 . S
N529 C526 1.391 . S
N529 C530 1.388 . S
C530 H501 0.930 . S
C530 C525 1.391 . S
C530 N529 1.388 . S
Co531 O533 2.143 . S
Co531 O539 2.074 . S
Co531 O542 2.093 . S
Co531 O555 2.097 . S
Co531 N572 2.151 . S
Co531 N580 2.214 . S
Co532 O533 2.160 . S
Co532 O538 2.058 . S
Co532 O548 2.057 . S
Co532 O563 2.037 . S
Co532 N567 2.145 . S
Co532 N588 2.257 . S
O533 Co531 2.143 . S
O533 Co532 2.160 . S
C534 O535 1.278 . S
C534 O542 1.224 . S
O535 C534 1.278 . S
C536 O537 1.245 . S
C536 O548 1.232 . S
O537 C536 1.245 . S
O538 Co532 2.058 . S
O538 C564 1.269 . S
O539 Co531 2.074 . S
O539 C564 1.257 . S
H540 C565 0.930 . S
H541 C571 0.930 . S
O542 Co531 2.093 . S
O542 C534 1.224 . S
H543 C575 0.929 . S
H544 C577 0.930 . S
H545 C578 0.930 . S
H546 C576 0.929 . S
H547 C579 0.928 . S
O548 Co532 2.057 . S
O548 C536 1.232 . S
H549 C568 0.929 . S
H550 C569 0.929 . S
H551 C581 0.931 . S
H552 C573 0.929 . S
H553 C582 0.930 . S
H554 C574 0.931 . S
O555 Co531 2.097 . S
O555 C583 1.214 . S
H556 C584 0.929 . S
H557 C585 0.929 . S
H558 C586 0.930 . S
H559 C587 0.929 . S
H560 C589 0.930 . S
H561 C566 0.930 . S
H562 C570 0.930 . S
O563 Co532 2.037 . S
O563 C583 1.234 . S
C564 O538 1.269 . S
C564 O539 1.257 . S
C565 H540 0.930 . S
C565 C568 1.388 . S
C565 C570 1.418 . S
C566 H561 0.930 . S
C566 C569 1.404 . S
C566 C570 1.353 . S
N567 Co532 2.145 . S
N567 C568 1.397 . S
N567 C569 1.334 . S
C568 H549 0.929 . S
C568 C565 1.388 . S
C568 N567 1.397 . S
C569 H550 0.929 . S
C569 C566 1.404 . S
C569 N567 1.334 . S
C570 H562 0.930 . S
C570 C565 1.418 . S
C570 C566 1.353 . S
C571 H541 0.930 . S
C571 N572 1.330 . S
C571 C573 1.446 . S
N572 Co531 2.151 . S
N572 C571 1.330 . S
N572 C576 1.418 . S
C573 H552 0.929 . S
C573 C571 1.446 . S
C573 C574 1.332 . S
C574 H554 0.931 . S
C574 C573 1.332 . S
C574 C575 1.267 . S
C575 H543 0.929 . S
C575 C574 1.267 . S
C575 C576 1.251 . S
C576 H546 0.929 . S
C576 N572 1.418 . S
C576 C575 1.251 . S
C577 H544 0.930 . S
C577 C579 1.406 . S
C577 C582 1.261 . S
C578 H545 0.930 . S
C578 N580 1.325 . S
C578 C581 1.357 . S
C579 H547 0.928 . S
C579 C577 1.406 . S
C579 N580 1.261 . S
N580 Co531 2.214 . S
N580 C578 1.325 . S
N580 C579 1.261 . S
C581 H551 0.931 . S
C581 C578 1.357 . S
C581 C582 1.312 . S
C582 H553 0.930 . S
C582 C577 1.261 . S
C582 C581 1.312 . S
C583 O555 1.214 . S
C583 O563 1.234 . S
C584 H556 0.929 . S
C584 C587 1.391 . S
C584 C589 1.391 . S
C585 H557 0.929 . S
C585 C586 1.390 . S
C585 N588 1.391 . S
C586 H558 0.930 . S
C586 C585 1.390 . S
C586 C587 1.392 . S
C587 H559 0.929 . S
C587 C584 1.391 . S
C587 C586 1.392 . S
N588 Co532 2.257 . S
N588 C585 1.391 . S
N588 C589 1.388 . S
C589 H560 0.930 . S
C589 C584 1.391 . S
C589 N588 1.388 . S
Co590 O592 2.143 . S
Co590 O598 2.074 . S
Co590 O601 2.093 . S
Co590 O614 2.097 . S
Co590 N631 2.151 . S
Co590 N639 2.214 . S
Co591 O592 2.160 . S
Co591 O597 2.058 . S
Co591 O607 2.057 . S
Co591 O622 2.037 . S
Co591 N626 2.145 . S
Co591 N647 2.257 . S
O592 Co590 2.143 . S
O592 Co591 2.160 . S
C593 O594 1.278 . S
C593 O601 1.224 . S
O594 C593 1.278 . S
C595 O596 1.245 . S
C595 O607 1.232 . S
O596 C595 1.245 . S
O597 Co591 2.058 . S
O597 C623 1.269 . S
O598 Co590 2.074 . S
O598 C623 1.257 . S
H599 C624 0.930 . S
H600 C630 0.930 . S
O601 Co590 2.093 . S
O601 C593 1.224 . S
H602 C634 0.929 . S
H603 C636 0.930 . S
H604 C637 0.930 . S
H605 C635 0.929 . S
H606 C638 0.928 . S
O607 Co591 2.057 . S
O607 C595 1.232 . S
H608 C627 0.929 . S
H609 C628 0.929 . S
H610 C640 0.931 . S
H611 C632 0.929 . S
H612 C641 0.930 . S
H613 C633 0.931 . S
O614 Co590 2.097 . S
O614 C642 1.214 . S
H615 C643 0.929 . S
H616 C644 0.929 . S
H617 C645 0.930 . S
H618 C646 0.929 . S
H619 C648 0.930 . S
H620 C625 0.930 . S
H621 C629 0.930 . S
O622 Co591 2.037 . S
O622 C642 1.234 . S
C623 O597 1.269 . S
C623 O598 1.257 . S
C624 H599 0.930 . S
C624 C627 1.388 . S
C624 C629 1.418 . S
C625 H620 0.930 . S
C625 C628 1.404 . S
C625 C629 1.353 . S
N626 Co591 2.145 . S
N626 C627 1.397 . S
N626 C628 1.334 . S
C627 H608 0.929 . S
C627 C624 1.388 . S
C627 N626 1.397 . S
C628 H609 0.929 . S
C628 C625 1.404 . S
C628 N626 1.334 . S
C629 H621 0.930 . S
C629 C624 1.418 . S
C629 C625 1.353 . S
C630 H600 0.930 . S
C630 N631 1.330 . S
C630 C632 1.446 . S
N631 Co590 2.151 . S
N631 C630 1.330 . S
N631 C635 1.418 . S
C632 H611 0.929 . S
C632 C630 1.446 . S
C632 C633 1.332 . S
C633 H613 0.931 . S
C633 C632 1.332 . S
C633 C634 1.267 . S
C634 H602 0.929 . S
C634 C633 1.267 . S
C634 C635 1.251 . S
C635 H605 0.929 . S
C635 N631 1.418 . S
C635 C634 1.251 . S
C636 H603 0.930 . S
C636 C638 1.406 . S
C636 C641 1.261 . S
C637 H604 0.930 . S
C637 N639 1.325 . S
C637 C640 1.357 . S
C638 H606 0.928 . S
C638 C636 1.406 . S
C638 N639 1.261 . S
N639 Co590 2.214 . S
N639 C637 1.325 . S
N639 C638 1.261 . S
C640 H610 0.931 . S
C640 C637 1.357 . S
C640 C641 1.312 . S
C641 H612 0.930 . S
C641 C636 1.261 . S
C641 C640 1.312 . S
C642 O614 1.214 . S
C642 O622 1.234 . S
C643 H615 0.929 . S
C643 C646 1.391 . S
C643 C648 1.391 . S
C644 H616 0.929 . S
C644 C645 1.390 . S
C644 N647 1.391 . S
C645 H617 0.930 . S
C645 C644 1.390 . S
C645 C646 1.392 . S
C646 H618 0.929 . S
C646 C643 1.391 . S
C646 C645 1.392 . S
N647 Co591 2.257 . S
N647 C644 1.391 . S
N647 C648 1.388 . S
C648 H619 0.930 . S
C648 C643 1.391 . S
C648 N647 1.388 . S
Co649 O651 2.143 . S
Co649 O657 2.074 . S
Co649 O660 2.093 . S
Co649 O673 2.097 . S
Co649 N690 2.151 . S
Co649 N698 2.214 . S
Co650 O651 2.160 . S
Co650 O656 2.058 . S
Co650 O666 2.057 . S
Co650 O681 2.037 . S
Co650 N685 2.145 . S
Co650 N706 2.257 . S
O651 Co649 2.143 . S
O651 Co650 2.160 . S
C652 O653 1.278 . S
C652 O660 1.224 . S
O653 C652 1.278 . S
C654 O655 1.245 . S
C654 O666 1.232 . S
O655 C654 1.245 . S
O656 Co650 2.058 . S
O656 C682 1.269 . S
O657 Co649 2.074 . S
O657 C682 1.257 . S
H658 C683 0.930 . S
H659 C689 0.930 . S
O660 Co649 2.093 . S
O660 C652 1.224 . S
H661 C693 0.929 . S
H662 C695 0.930 . S
H663 C696 0.930 . S
H664 C694 0.929 . S
H665 C697 0.928 . S
O666 Co650 2.057 . S
O666 C654 1.232 . S
H667 C686 0.929 . S
H668 C687 0.929 . S
H669 C699 0.931 . S
H670 C691 0.929 . S
H671 C700 0.930 . S
H672 C692 0.931 . S
O673 Co649 2.097 . S
O673 C701 1.214 . S
H674 C702 0.929 . S
H675 C703 0.929 . S
H676 C704 0.930 1_554 S
H677 C705 0.929 1_554 S
H678 C707 0.930 . S
H679 C684 0.930 . S
H680 C688 0.930 . S
O681 Co650 2.037 . S
O681 C701 1.234 . S
C682 O656 1.269 . S
C682 O657 1.257 . S
C683 H658 0.930 . S
C683 C686 1.388 . S
C683 C688 1.418 . S
C684 H679 0.930 . S
C684 C687 1.404 . S
C684 C688 1.353 . S
N685 Co650 2.145 . S
N685 C686 1.397 . S
N685 C687 1.334 . S
C686 H667 0.929 . S
C686 C683 1.388 . S
C686 N685 1.397 . S
C687 H668 0.929 . S
C687 C684 1.404 . S
C687 N685 1.334 . S
C688 H680 0.930 . S
C688 C683 1.418 . S
C688 C684 1.353 . S
C689 H659 0.930 . S
C689 N690 1.330 . S
C689 C691 1.446 . S
N690 Co649 2.151 . S
N690 C689 1.330 . S
N690 C694 1.418 . S
C691 H670 0.929 . S
C691 C689 1.446 . S
C691 C692 1.332 . S
C692 H672 0.931 . S
C692 C691 1.332 . S
C692 C693 1.267 . S
C693 H661 0.929 . S
C693 C692 1.267 . S
C693 C694 1.251 . S
C694 H664 0.929 . S
C694 N690 1.418 . S
C694 C693 1.251 . S
C695 H662 0.930 . S
C695 C697 1.406 . S
C695 C700 1.261 . S
C696 H663 0.930 . S
C696 N698 1.325 . S
C696 C699 1.357 . S
C697 H665 0.928 . S
C697 C695 1.406 . S
C697 N698 1.261 . S
N698 Co649 2.214 . S
N698 C696 1.325 . S
N698 C697 1.261 . S
C699 H669 0.931 . S
C699 C696 1.357 . S
C699 C700 1.312 . S
C700 H671 0.930 . S
C700 C695 1.261 . S
C700 C699 1.312 . S
C701 O673 1.214 . S
C701 O681 1.234 . S
C702 H674 0.929 . S
C702 C705 1.391 . S
C702 C707 1.391 . S
C703 H675 0.929 . S
C703 C704 1.390 . S
C703 N706 1.391 . S
C704 H676 0.930 1_556 S
C704 C703 1.390 . S
C704 C705 1.392 . S
C705 H677 0.929 1_556 S
C705 C702 1.391 . S
C705 C704 1.392 . S
N706 Co650 2.257 . S
N706 C703 1.391 . S
N706 C707 1.388 . S
C707 H678 0.930 . S
C707 C702 1.391 . S
C707 N706 1.388 . S
C708 C709 1.363 . S
C708 C714 1.379 . S
C708 N716 1.356 . S
C709 C708 1.363 . S
C709 C715 1.363 . S
C710 C711 1.363 . S
C710 C715 1.379 . S
C710 N717 1.356 . S
C711 C710 1.363 . S
C711 C714 1.363 . S
N712 C714 1.356 . S
N712 H724 0.984 . S
N712 H725 0.985 . S
N713 C715 1.356 . S
N713 H718 0.984 . S
N713 H719 0.985 . S
C714 C708 1.379 . S
C714 C711 1.363 . S
C714 N712 1.356 . S
C715 C709 1.363 . S
C715 C710 1.379 . S
C715 N713 1.356 . S
N716 C708 1.356 . S
N716 H722 0.984 . S
N716 H723 0.984 . S
N717 C710 1.356 . S
N717 H720 0.984 . S
N717 H721 0.985 . S
H718 N713 0.984 . S
H719 N713 0.985 . S
H720 N717 0.984 . S
H721 N717 0.985 . S
H722 N716 0.984 . S
H723 N716 0.984 . S
H724 N712 0.984 . S
H725 N712 0.985 . S
C726 C727 1.363 . S
C726 C732 1.379 . S
C726 N734 1.356 . S
C727 C726 1.363 . S
C727 C733 1.363 . S
C728 C729 1.363 . S
C728 C733 1.379 . S
C728 N735 1.356 . S
C729 C728 1.363 . S
C729 C732 1.363 . S
N730 C732 1.356 . S
N730 H742 0.984 . S
N730 H743 0.985 . S
N731 C733 1.356 . S
N731 H736 0.984 . S
N731 H737 0.985 . S
C732 C726 1.379 . S
C732 C729 1.363 . S
C732 N730 1.356 . S
C733 C727 1.363 . S
C733 C728 1.379 . S
C733 N731 1.356 . S
N734 C726 1.356 . S
N734 H740 0.984 . S
N734 H741 0.984 . S
N735 C728 1.356 . S
N735 H738 0.984 . S
N735 H739 0.985 . S
H736 N731 0.984 . S
H737 N731 0.985 . S
H738 N735 0.984 . S
H739 N735 0.985 . S
H740 N734 0.984 . S
H741 N734 0.984 . S
H742 N730 0.984 . S
H743 N730 0.985 . S
C744 C745 1.363 . S
C744 C750 1.379 . S
C744 N752 1.356 . S
C745 C744 1.363 . S
C745 C751 1.363 . S
C746 C747 1.363 . S
C746 C751 1.379 . S
C746 N753 1.356 . S
C747 C746 1.363 . S
C747 C750 1.363 . S
N748 C750 1.356 . S
N748 H760 0.984 . S
N748 H761 0.985 . S
N749 C751 1.356 . S
N749 H754 0.984 . S
N749 H755 0.985 . S
C750 C744 1.379 . S
C750 C747 1.363 . S
C750 N748 1.356 . S
C751 C745 1.363 . S
C751 C746 1.379 . S
C751 N749 1.356 . S
N752 C744 1.356 . S
N752 H758 0.984 . S
N752 H759 0.984 . S
N753 C746 1.356 . S
N753 H756 0.984 . S
N753 H757 0.985 . S
H754 N749 0.984 . S
H755 N749 0.985 . S
H756 N753 0.984 . S
H757 N753 0.985 . S
H758 N752 0.984 . S
H759 N752 0.984 . S
H760 N748 0.984 . S
H761 N748 0.985 . S
C762 C763 1.363 . S
C762 C768 1.379 . S
C762 N770 1.356 . S
C763 C762 1.363 . S
C763 C769 1.363 . S
C764 C765 1.363 . S
C764 C769 1.379 . S
C764 N771 1.356 . S
C765 C764 1.363 . S
C765 C768 1.363 . S
N766 C768 1.356 . S
N766 H778 0.984 . S
N766 H779 0.985 . S
N767 C769 1.356 . S
N767 H772 0.984 . S
N767 H773 0.985 . S
C768 C762 1.379 . S
C768 C765 1.363 . S
C768 N766 1.356 . S
C769 C763 1.363 . S
C769 C764 1.379 . S
C769 N767 1.356 . S
N770 C762 1.356 . S
N770 H776 0.984 . S
N770 H777 0.984 . S
N771 C764 1.356 . S
N771 H774 0.984 . S
N771 H775 0.985 . S
H772 N767 0.984 . S
H773 N767 0.985 . S
H774 N771 0.984 . S
H775 N771 0.985 . S
H776 N770 0.984 . S
H777 N770 0.984 . S
H778 N766 0.984 . S
H779 N766 0.985 . S
C780 C781 1.363 . S
C780 C786 1.379 1_556 S
C780 N788 1.356 . S
C781 C780 1.363 . S
C781 C787 1.363 . S
C782 C783 1.363 1_556 S
C782 C787 1.379 . S
C782 N789 1.356 . S
C783 C782 1.363 1_554 S
C783 C786 1.363 . S
N784 C786 1.356 . S
N784 H796 0.984 . S
N784 H797 0.985 . S
N785 C787 1.356 . S
N785 H790 0.984 . S
N785 H791 0.985 . S
C786 C780 1.379 1_554 S
C786 C783 1.363 . S
C786 N784 1.356 . S
C787 C781 1.363 . S
C787 C782 1.379 . S
C787 N785 1.356 . S
N788 C780 1.356 . S
N788 H794 0.984 1_556 S
N788 H795 0.984 . S
N789 C782 1.356 . S
N789 H792 0.984 1_556 S
N789 H793 0.985 . S
H790 N785 0.984 . S
H791 N785 0.985 . S
H792 N789 0.984 1_554 S
H793 N789 0.985 . S
H794 N788 0.984 1_554 S
H795 N788 0.984 . S
H796 N784 0.984 . S
H797 N784 0.985 . S
C798 C799 1.363 . S
C798 C804 1.379 . S
C798 N806 1.356 . S
C799 C798 1.363 . S
C799 C805 1.363 . S
C800 C801 1.363 . S
C800 C805 1.379 . S
C800 N807 1.356 . S
C801 C800 1.363 . S
C801 C804 1.363 . S
N802 C804 1.356 . S
N802 H814 0.984 . S
N802 H815 0.985 1_554 S
N803 C805 1.356 . S
N803 H808 0.984 . S
N803 H809 0.985 . S
C804 C798 1.379 . S
C804 C801 1.363 . S
C804 N802 1.356 . S
C805 C799 1.363 . S
C805 C800 1.379 . S
C805 N803 1.356 . S
N806 C798 1.356 . S
N806 H812 0.984 . S
N806 H813 0.984 . S
N807 C800 1.356 . S
N807 H810 0.984 . S
N807 H811 0.985 . S
H808 N803 0.984 . S
H809 N803 0.985 . S
H810 N807 0.984 . S
H811 N807 0.985 . S
H812 N806 0.984 . S
H813 N806 0.984 . S
H814 N802 0.984 . S
H815 N802 0.985 1_556 S
C816 C817 1.363 . S
C816 C822 1.379 . S
C816 N824 1.356 . S
C817 C816 1.363 . S
C817 C823 1.363 . S
C818 C819 1.363 . S
C818 C823 1.379 . S
C818 N825 1.356 . S
C819 C818 1.363 . S
C819 C822 1.363 . S
N820 C822 1.356 . S
N820 H832 0.984 . S
N820 H833 0.985 . S
N821 C823 1.356 . S
N821 H826 0.984 . S
N821 H827 0.985 . S
C822 C816 1.379 . S
C822 C819 1.363 . S
C822 N820 1.356 . S
C823 C817 1.363 . S
C823 C818 1.379 . S
C823 N821 1.356 . S
N824 C816 1.356 . S
N824 H830 0.984 . S
N824 H831 0.984 . S
N825 C818 1.356 . S
N825 H828 0.984 . S
N825 H829 0.985 1_554 S
H826 N821 0.984 . S
H827 N821 0.985 . S
H828 N825 0.984 . S
H829 N825 0.985 1_556 S
H830 N824 0.984 . S
H831 N824 0.984 . S
H832 N820 0.984 . S
H833 N820 0.985 . S
C834 C835 1.363 . S
C834 C840 1.379 . S
C834 N842 1.356 . S
C835 C834 1.363 . S
C835 C841 1.363 . S
C836 C837 1.363 . S
C836 C841 1.379 . S
C836 N843 1.356 . S
C837 C836 1.363 . S
C837 C840 1.363 . S
N838 C840 1.356 . S
N838 H850 0.984 . S
N838 H851 0.985 . S
N839 C841 1.356 . S
N839 H844 0.984 . S
N839 H845 0.985 . S
C840 C834 1.379 . S
C840 C837 1.363 . S
C840 N838 1.356 . S
C841 C835 1.363 . S
C841 C836 1.379 . S
C841 N839 1.356 . S
N842 C834 1.356 . S
N842 H848 0.984 . S
N842 H849 0.984 . S
N843 C836 1.356 . S
N843 H846 0.984 . S
N843 H847 0.985 . S
H844 N839 0.984 . S
H845 N839 0.985 . S
H846 N843 0.984 . S
H847 N843 0.985 . S
H848 N842 0.984 . S
H849 N842 0.984 . S
H850 N838 0.984 . S
H851 N838 0.985 . S
C852 C853 1.363 . S
C852 C858 1.379 . S
C852 N860 1.356 . S
C853 C852 1.363 . S
C853 C859 1.363 . S
C854 C855 1.363 . S
C854 C859 1.379 . S
C854 N861 1.356 . S
C855 C854 1.363 . S
C855 C858 1.363 . S
N856 C858 1.356 . S
N856 H868 0.984 . S
N856 H869 0.985 . S
N857 C859 1.356 . S
N857 H862 0.984 . S
N857 H863 0.985 . S
C858 C852 1.379 . S
C858 C855 1.363 . S
C858 N856 1.356 . S
C859 C853 1.363 . S
C859 C854 1.379 . S
C859 N857 1.356 . S
N860 C852 1.356 . S
N860 H866 0.984 . S
N860 H867 0.984 . S
N861 C854 1.356 . S
N861 H864 0.984 . S
N861 H865 0.985 . S
H862 N857 0.984 . S
H863 N857 0.985 . S
H864 N861 0.984 . S
H865 N861 0.985 . S
H866 N860 0.984 . S
H867 N860 0.984 . S
H868 N856 0.984 . S
H869 N856 0.985 . S
C870 C871 1.363 . S
C870 C876 1.379 . S
C870 N878 1.356 . S
C871 C870 1.363 . S
C871 C877 1.363 . S
C872 C873 1.363 . S
C872 C877 1.379 . S
C872 N879 1.356 . S
C873 C872 1.363 . S
C873 C876 1.363 . S
N874 C876 1.356 . S
N874 H886 0.984 . S
N874 H887 0.985 . S
N875 C877 1.356 . S
N875 H880 0.984 . S
N875 H881 0.985 . S
C876 C870 1.379 . S
C876 C873 1.363 . S
C876 N874 1.356 . S
C877 C871 1.363 . S
C877 C872 1.379 . S
C877 N875 1.356 . S
N878 C870 1.356 . S
N878 H884 0.984 . S
N878 H885 0.984 . S
N879 C872 1.356 . S
N879 H882 0.984 . S
N879 H883 0.985 . S
H880 N875 0.984 . S
H881 N875 0.985 . S
H882 N879 0.984 . S
H883 N879 0.985 . S
H884 N878 0.984 . S
H885 N878 0.984 . S
H886 N874 0.984 . S
H887 N874 0.985 . S
C888 C889 1.363 . S
C888 C894 1.379 . S
C888 N896 1.356 . S
C889 C888 1.363 . S
C889 C895 1.363 . S
C890 C891 1.363 . S
C890 C895 1.379 . S
C890 N897 1.356 . S
C891 C890 1.363 . S
C891 C894 1.363 . S
N892 C894 1.356 . S
N892 H904 0.984 . S
N892 H905 0.985 . S
N893 C895 1.356 . S
N893 H898 0.984 . S
N893 H899 0.985 . S
C894 C888 1.379 . S
C894 C891 1.363 . S
C894 N892 1.356 . S
C895 C889 1.363 . S
C895 C890 1.379 . S
C895 N893 1.356 . S
N896 C888 1.356 . S
N896 H902 0.984 . S
N896 H903 0.984 . S
N897 C890 1.356 . S
N897 H900 0.984 . S
N897 H901 0.985 . S
H898 N893 0.984 . S
H899 N893 0.985 . S
H900 N897 0.984 . S
H901 N897 0.985 . S
H902 N896 0.984 . S
H903 N896 0.984 . S
H904 N892 0.984 . S
H905 N892 0.985 . S
C906 C907 1.363 . S
C906 C912 1.379 . S
C906 N914 1.356 . S
C907 C906 1.363 . S
C907 C913 1.363 1_556 S
C908 C909 1.363 1_554 S
C908 C913 1.379 . S
C908 N915 1.356 . S
C909 C908 1.363 1_556 S
C909 C912 1.363 . S
N910 C912 1.356 . S
N910 H922 0.984 . S
N910 H923 0.985 . S
N911 C913 1.356 . S
N911 H916 0.984 . S
N911 H917 0.985 . S
C912 C906 1.379 . S
C912 C909 1.363 . S
C912 N910 1.356 . S
C913 C907 1.363 1_554 S
C913 C908 1.379 . S
C913 N911 1.356 . S
N914 C906 1.356 . S
N914 H920 0.984 . S
N914 H921 0.984 . S
N915 C908 1.356 . S
N915 H918 0.984 . S
N915 H919 0.985 . S
H916 N911 0.984 . S
H917 N911 0.985 . S
H918 N915 0.984 . S
H919 N915 0.985 . S
H920 N914 0.984 . S
H921 N914 0.984 . S
H922 N910 0.984 . S
H923 N910 0.985 . S
C924 C925 1.363 . S
C924 C930 1.379 . S
C924 N932 1.356 . S
C925 C924 1.363 . S
C925 C931 1.363 . S
C926 C927 1.363 . S
C926 C931 1.379 . S
C926 N933 1.356 . S
C927 C926 1.363 . S
C927 C930 1.363 . S
N928 C930 1.356 . S
N928 H940 0.984 . S
N928 H941 0.985 . S
N929 C931 1.356 . S
N929 H934 0.984 . S
N929 H935 0.985 . S
C930 C924 1.379 . S
C930 C927 1.363 . S
C930 N928 1.356 . S
C931 C925 1.363 . S
C931 C926 1.379 . S
C931 N929 1.356 . S
N932 C924 1.356 . S
N932 H938 0.984 . S
N932 H939 0.984 . S
N933 C926 1.356 . S
N933 H936 0.984 . S
N933 H937 0.985 . S
H934 N929 0.984 . S
H935 N929 0.985 . S
H936 N933 0.984 . S
H937 N933 0.985 . S
H938 N932 0.984 . S
H939 N932 0.984 . S
H940 N928 0.984 . S
H941 N928 0.985 . S
C942 C943 1.363 1_556 S
C942 C948 1.379 . S
C942 N950 1.356 . S
C943 C942 1.363 1_554 S
C943 C949 1.363 . S
C944 C945 1.363 . S
C944 C949 1.379 1_556 S
C944 N951 1.356 . S
C945 C944 1.363 . S
C945 C948 1.363 . S
N946 C948 1.356 . S
N946 H958 0.984 . S
N946 H959 0.985 . S
N947 C949 1.356 . S
N947 H952 0.984 . S
N947 H953 0.985 . S
C948 C942 1.379 . S
C948 C945 1.363 . S
C948 N946 1.356 . S
C949 C943 1.363 . S
C949 C944 1.379 1_554 S
C949 N947 1.356 . S
N950 C942 1.356 . S
N950 H956 0.984 . S
N950 H957 0.984 1_556 S
N951 C944 1.356 . S
N951 H954 0.984 . S
N951 H955 0.985 . S
H952 N947 0.984 . S
H953 N947 0.985 . S
H954 N951 0.984 . S
H955 N951 0.985 . S
H956 N950 0.984 . S
H957 N950 0.984 1_554 S
H958 N946 0.984 . S
H959 N946 0.985 . S
C960 C961 1.363 . S
C960 C966 1.379 . S
C960 N968 1.356 . S
C961 C960 1.363 . S
C961 C967 1.363 . S
C962 C963 1.363 . S
C962 C967 1.379 . S
C962 N969 1.356 . S
C963 C962 1.363 . S
C963 C966 1.363 . S
N964 C966 1.356 1_556 S
N964 H976 0.984 . S
N964 H977 0.985 . S
N965 C967 1.356 . S
N965 H970 0.984 . S
N965 H971 0.985 . S
C966 C960 1.379 . S
C966 C963 1.363 . S
C966 N964 1.356 1_554 S
C967 C961 1.363 . S
C967 C962 1.379 . S
C967 N965 1.356 . S
N968 C960 1.356 . S
N968 H974 0.984 . S
N968 H975 0.984 . S
N969 C962 1.356 . S
N969 H972 0.984 . S
N969 H973 0.985 . S
H970 N965 0.984 . S
H971 N965 0.985 . S
H972 N969 0.984 . S
H973 N969 0.985 . S
H974 N968 0.984 . S
H975 N968 0.984 . S
H976 N964 0.984 . S
H977 N964 0.985 . S
C978 C979 1.363 . S
C978 C984 1.379 . S
C978 N986 1.356 . S
C979 C978 1.363 . S
C979 C985 1.363 . S
C980 C981 1.363 . S
C980 C985 1.379 . S
C980 N987 1.356 . S
C981 C980 1.363 . S
C981 C984 1.363 . S
N982 C984 1.356 . S
N982 H994 0.984 . S
N982 H995 0.985 . S
N983 C985 1.356 . S
N983 H988 0.984 . S
N983 H989 0.985 . S
C984 C978 1.379 . S
C984 C981 1.363 . S
C984 N982 1.356 . S
C985 C979 1.363 . S
C985 C980 1.379 . S
C985 N983 1.356 . S
N986 C978 1.356 . S
N986 H992 0.984 . S
N986 H993 0.984 . S
N987 C980 1.356 . S
N987 H990 0.984 . S
N987 H991 0.985 . S
H988 N983 0.984 . S
H989 N983 0.985 . S
H990 N987 0.984 . S
H991 N987 0.985 . S
H992 N986 0.984 . S
H993 N986 0.984 . S
H994 N982 0.984 . S
H995 N982 0.985 . S
C996 C997 1.363 . S
C996 C1002 1.379 . S
C996 N1004 1.356 . S
C997 C996 1.363 . S
C997 C1003 1.363 . S
C998 C999 1.363 . S
C998 C1003 1.379 . S
C998 N1005 1.356 . S
C999 C998 1.363 . S
C999 C1002 1.363 . S
N1000 C1002 1.356 . S
N1000 H1012 0.984 . S
N1000 H1013 0.985 . S
N1001 C1003 1.356 . S
N1001 H1006 0.984 . S
N1001 H1007 0.985 . S
C1002 C996 1.379 . S
C1002 C999 1.363 . S
C1002 N1000 1.356 . S
C1003 C997 1.363 . S
C1003 C998 1.379 . S
C1003 N1001 1.356 . S
N1004 C996 1.356 . S
N1004 H1010 0.984 . S
N1004 H1011 0.984 . S
N1005 C998 1.356 . S
N1005 H1008 0.984 . S
N1005 H1009 0.985 . S
H1006 N1001 0.984 . S
H1007 N1001 0.985 . S
H1008 N1005 0.984 . S
H1009 N1005 0.985 . S
H1010 N1004 0.984 . S
H1011 N1004 0.984 . S
H1012 N1000 0.984 . S
H1013 N1000 0.985 . S
C1014 C1015 1.363 . S
C1014 C1020 1.379 . S
C1014 N1022 1.356 . S
C1015 C1014 1.363 . S
C1015 C1021 1.363 . S
C1016 C1017 1.363 . S
C1016 C1021 1.379 . S
C1016 N1023 1.356 . S
C1017 C1016 1.363 . S
C1017 C1020 1.363 . S
N1018 C1020 1.356 . S
N1018 H1030 0.984 . S
N1018 H1031 0.985 . S
N1019 C1021 1.356 . S
N1019 H1024 0.984 . S
N1019 H1025 0.985 . S
C1020 C1014 1.379 . S
C1020 C1017 1.363 . S
C1020 N1018 1.356 . S
C1021 C1015 1.363 . S
C1021 C1016 1.379 . S
C1021 N1019 1.356 . S
N1022 C1014 1.356 . S
N1022 H1028 0.984 . S
N1022 H1029 0.984 . S
N1023 C1016 1.356 . S
N1023 H1026 0.984 . S
N1023 H1027 0.985 . S
H1024 N1019 0.984 . S
H1025 N1019 0.985 . S
H1026 N1023 0.984 . S
H1027 N1023 0.985 . S
H1028 N1022 0.984 . S
H1029 N1022 0.984 . S
H1030 N1018 0.984 . S
H1031 N1018 0.985 . S
C1032 C1033 1.363 . S
C1032 C1038 1.379 1_455 S
C1032 N1040 1.356 . S
C1033 C1032 1.363 . S
C1033 C1039 1.363 . S
C1034 C1035 1.363 . S
C1034 C1039 1.379 1_655 S
C1034 N1041 1.356 . S
C1035 C1034 1.363 . S
C1035 C1038 1.363 . S
N1036 C1038 1.356 . S
N1036 H1048 0.988 . S
N1036 H1049 0.985 . S
N1037 C1039 1.356 1_554 S
N1037 H1042 0.984 . S
N1037 H1043 0.972 1_455 S
C1038 C1032 1.379 1_655 S
C1038 C1035 1.363 . S
C1038 N1036 1.356 . S
C1039 C1033 1.363 . S
C1039 C1034 1.379 1_455 S
C1039 N1037 1.356 1_556 S
N1040 C1032 1.356 . S
N1040 H1046 0.984 . S
N1040 H1047 0.984 . S
N1041 C1034 1.356 . S
N1041 H1044 0.984 . S
N1041 H1045 0.976 1_556 S
H1042 N1037 0.984 . S
H1043 N1037 0.972 1_655 S
H1044 N1041 0.984 . S
H1045 N1041 0.976 1_554 S
H1046 N1040 0.984 . S
H1047 N1040 0.984 . S
H1048 N1036 0.988 . S
H1049 N1036 0.985 . S
C1050 C1051 1.363 1_556 S
C1050 C1056 1.379 1_566 S
C1050 N1058 1.356 . S
C1051 C1050 1.363 1_554 S
C1051 C1057 1.363 . S
C1052 C1053 1.363 . S
C1052 C1057 1.379 1_545 S
C1052 N1059 1.356 . S
C1053 C1052 1.363 . S
C1053 C1056 1.363 . S
N1054 C1056 1.356 . S
N1054 H1066 0.984 1_554 S
N1054 H1067 0.985 . S
N1055 C1057 1.356 . S
N1055 H1060 0.984 . S
N1055 H1061 0.985 . S
C1056 C1050 1.379 1_544 S
C1056 C1053 1.363 . S
C1056 N1054 1.356 . S
C1057 C1051 1.363 . S
C1057 C1052 1.379 1_565 S
C1057 N1055 1.356 . S
N1058 C1050 1.356 . S
N1058 H1064 0.984 . S
N1058 H1065 0.984 . S
N1059 C1052 1.356 . S
N1059 H1062 0.984 . S
N1059 H1063 0.985 . S
H1060 N1055 0.984 . S
H1061 N1055 0.985 . S
H1062 N1059 0.984 . S
H1063 N1059 0.985 . S
H1064 N1058 0.984 . S
H1065 N1058 0.984 . S
H1066 N1054 0.984 1_556 S
H1067 N1054 0.985 . S
C1068 C1069 1.363 . S
C1068 C1074 1.379 . S
C1068 N1076 1.356 . S
C1069 C1068 1.363 . S
C1069 C1075 1.363 . S
C1070 C1071 1.363 . S
C1070 C1075 1.379 . S
C1070 N1077 1.356 . S
C1071 C1070 1.363 . S
C1071 C1074 1.363 . S
N1072 C1074 1.356 . S
N1072 H1084 0.984 . S
N1072 H1085 0.985 . S
N1073 C1075 1.356 . S
N1073 H1078 0.984 . S
N1073 H1079 0.985 . S
C1074 C1068 1.379 . S
C1074 C1071 1.363 . S
C1074 N1072 1.356 . S
C1075 C1069 1.363 . S
C1075 C1070 1.379 . S
C1075 N1073 1.356 . S
N1076 C1068 1.356 . S
N1076 H1082 0.984 . S
N1076 H1083 0.984 . S
N1077 C1070 1.356 . S
N1077 H1080 0.984 . S
N1077 H1081 0.985 . S
H1078 N1073 0.984 . S
H1079 N1073 0.985 . S
H1080 N1077 0.984 . S
H1081 N1077 0.985 . S
H1082 N1076 0.984 . S
H1083 N1076 0.984 . S
H1084 N1072 0.984 . S
H1085 N1072 0.985 . S
C1086 C1087 1.363 . S
C1086 C1092 1.379 1_455 S
C1086 N1094 1.356 . S
C1087 C1086 1.363 . S
C1087 C1093 1.363 . S
C1088 C1089 1.363 . S
C1088 C1093 1.379 1_655 S
C1088 N1095 1.356 . S
C1089 C1088 1.363 . S
C1089 C1092 1.363 . S
N1090 C1092 1.356 . S
N1090 H1102 0.984 . S
N1090 H1103 0.985 . S
N1091 C1093 1.356 . S
N1091 H1096 0.984 . S
N1091 H1097 0.985 . S
C1092 C1086 1.379 1_655 S
C1092 C1089 1.363 . S
C1092 N1090 1.356 . S
C1093 C1087 1.363 . S
C1093 C1088 1.379 1_455 S
C1093 N1091 1.356 . S
N1094 C1086 1.356 . S
N1094 H1100 0.997 . S
N1094 H1101 0.984 . S
N1095 C1088 1.356 . S
N1095 H1098 0.984 . S
N1095 H1099 0.982 1_655 S
H1096 N1091 0.984 . S
H1097 N1091 0.985 . S
H1098 N1095 0.984 . S
H1099 N1095 0.982 1_455 S
H1100 N1094 0.997 . S
H1101 N1094 0.984 . S
H1102 N1090 0.984 . S
H1103 N1090 0.985 . S
C1104 C1105 1.363 . S
C1104 C1110 1.379 1_545 S
C1104 N1112 1.356 . S
C1105 C1104 1.363 . S
C1105 C1111 1.363 . S
C1106 C1107 1.363 . S
C1106 C1111 1.379 1_565 S
C1106 N1113 1.356 . S
C1107 C1106 1.363 . S
C1107 C1110 1.363 . S
N1108 C1110 1.356 . S
N1108 H1120 0.984 . S
N1108 H1121 0.985 . S
N1109 C1111 1.356 . S
N1109 H1114 0.984 . S
N1109 H1115 0.985 . S
C1110 C1104 1.379 1_565 S
C1110 C1107 1.363 . S
C1110 N1108 1.356 . S
C1111 C1105 1.363 . S
C1111 C1106 1.379 1_545 S
C1111 N1109 1.356 . S
N1112 C1104 1.356 . S
N1112 H1118 0.984 . S
N1112 H1119 0.984 . S
N1113 C1106 1.356 . S
N1113 H1116 0.984 . S
N1113 H1117 0.985 . S
H1114 N1109 0.984 . S
H1115 N1109 0.985 . S
H1116 N1113 0.984 . S
H1117 N1113 0.985 . S
H1118 N1112 0.984 . S
H1119 N1112 0.984 . S
H1120 N1108 0.984 . S
H1121 N1108 0.985 . S
C1122 C1123 1.363 . S
C1122 C1128 1.379 . S
C1122 N1130 1.356 . S
C1123 C1122 1.363 . S
C1123 C1129 1.363 . S
C1124 C1125 1.363 . S
C1124 C1129 1.379 . S
C1124 N1131 1.356 . S
C1125 C1124 1.363 . S
C1125 C1128 1.363 . S
N1126 C1128 1.356 . S
N1126 H1138 0.984 . S
N1126 H1139 0.985 . S
N1127 C1129 1.356 . S
N1127 H1132 0.984 . S
N1127 H1133 0.985 . S
C1128 C1122 1.379 . S
C1128 C1125 1.363 . S
C1128 N1126 1.356 . S
C1129 C1123 1.363 . S
C1129 C1124 1.379 . S
C1129 N1127 1.356 . S
N1130 C1122 1.356 . S
N1130 H1136 0.984 . S
N1130 H1137 0.984 . S
N1131 C1124 1.356 . S
N1131 H1134 0.984 . S
N1131 H1135 0.985 . S
H1132 N1127 0.984 . S
H1133 N1127 0.985 . S
H1134 N1131 0.984 . S
H1135 N1131 0.985 . S
H1136 N1130 0.984 . S
H1137 N1130 0.984 . S
H1138 N1126 0.984 . S
H1139 N1126 0.985 . S
C709 C52 1.650 . S
C711 C642 1.650 . S
C727 C682 1.650 . S
C729 C111 1.649 . S
C745 C151 1.650 . S
C747 C406 1.649 . S
C763 C229 1.650 . S
C765 C465 1.650 . S
C781 C288 1.649 . S
C783 C505 1.650 . S
C799 C583 1.649 . S
C801 C328 1.650 1_554 S
C817 C3 1.715 . S
C819 C477 1.711 . S
C835 C62 1.715 . S
C837 C534 1.715 . S
C853 C593 1.715 . S
C855 C123 1.711 . S
C871 C180 1.715 . S
C873 C654 1.711 . S
C889 C239 1.715 . S
C891 C357 1.715 . S
C907 C300 1.711 . S
C909 C416 1.715 . S
C925 C623 1.660 . S
C927 C33 1.660 . S
C943 C92 1.659 . S
C945 C701 1.649 . S
C961 C170 1.649 . S
C963 C387 1.659 1_554 S
C979 C210 1.659 . S
C981 C446 1.659 . S
C997 C524 1.649 . S
C999 C269 1.659 . S
C1015 C347 1.649 . S
C1017 C564 1.659 . S
C1033 C5 1.367 . S
C1035 C652 1.364 . S
C1051 C359 1.368 1_554 S
C1053 C64 1.368 . S
C1069 C418 1.367 . S
C1071 C121 1.364 . S
C1087 C475 1.364 . S
C1089 C182 1.367 . S
C1105 C536 1.368 . S
C1107 C241 1.368 . S
C1123 C595 1.367 . S
C1125 C298 1.364 . S
