# Generated by pormake.
# Topology uke, (4)-cn, num edge types: 1
# Building blocks:
#     Node 0, Type 0, BuildingBlock: AZAVOO_clean_sbu_0, # of connection points: 4
#     Node 1, Type 0, BuildingBlock: AZAVOO_clean_sbu_0, # of connection points: 4
#     Node 2, Type 0, BuildingBlock: AZAVOO_clean_sbu_0, # of connection points: 4
#     Node 3, Type 0, BuildingBlock: AZAVOO_clean_sbu_0, # of connection points: 4
#     Node 4, Type 0, BuildingBlock: AZAVOO_clean_sbu_0, # of connection points: 4
#     Node 5, Type 0, BuildingBlock: AZAVOO_clean_sbu_0, # of connection points: 4
#     Node 6, Type 0, BuildingBlock: AZAVOO_clean_sbu_0, # of connection points: 4
#     Node 7, Type 0, BuildingBlock: AZAVOO_clean_sbu_0, # of connection points: 4
#     Node 8, Type 0, BuildingBlock: AZAVOO_clean_sbu_0, # of connection points: 4
#     Node 9, Type 0, BuildingBlock: AZAVOO_clean_sbu_0, # of connection points: 4
#     Node 10, Type 0, BuildingBlock: AZAVOO_clean_sbu_0, # of connection points: 4
#     Node 11, Type 0, BuildingBlock: AZAVOO_clean_sbu_0, # of connection points: 4
#     Node 12, Type 0, BuildingBlock: AZAVOO_clean_sbu_0, # of connection points: 4
#     Node 13, Type 0, BuildingBlock: AZAVOO_clean_sbu_0, # of connection points: 4
#     Node 14, Type 0, BuildingBlock: AZAVOO_clean_sbu_0, # of connection points: 4
#     Node 15, Type 0, BuildingBlock: AZAVOO_clean_sbu_0, # of connection points: 4
#     Node 16, Type 0, BuildingBlock: AZAVOO_clean_sbu_0, # of connection points: 4
#     Node 17, Type 0, BuildingBlock: AZAVOO_clean_sbu_0, # of connection points: 4
#     Node 18, Type 0, BuildingBlock: AZAVOO_clean_sbu_0, # of connection points: 4
#     Node 19, Type 0, BuildingBlock: AZAVOO_clean_sbu_0, # of connection points: 4
#     Node 20, Type 0, BuildingBlock: AZAVOO_clean_sbu_0, # of connection points: 4
#     Node 21, Type 0, BuildingBlock: AZAVOO_clean_sbu_0, # of connection points: 4
#     Node 22, Type 0, BuildingBlock: AZAVOO_clean_sbu_0, # of connection points: 4
#     Node 23, Type 0, BuildingBlock: AZAVOO_clean_sbu_0, # of connection points: 4
#     Node 24, Type 0, BuildingBlock: AZAVOO_clean_sbu_0, # of connection points: 4
#     Node 25, Type 0, BuildingBlock: AZAVOO_clean_sbu_0, # of connection points: 4
#     Node 26, Type 0, BuildingBlock: AZAVOO_clean_sbu_0, # of connection points: 4
#     Node 27, Type 0, BuildingBlock: AZAVOO_clean_sbu_0, # of connection points: 4
#     Node 28, Type 0, BuildingBlock: AZAVOO_clean_sbu_0, # of connection points: 4
#     Node 29, Type 0, BuildingBlock: AZAVOO_clean_sbu_0, # of connection points: 4
#     Node 30, Type 0, BuildingBlock: AZAVOO_clean_sbu_0, # of connection points: 4
#     Node 31, Type 0, BuildingBlock: AZAVOO_clean_sbu_0, # of connection points: 4
#     Edge 32, Type (0, 0), BuildingBlock: AJUNOK_clean_linker_0, # of connection points: 2
#     Edge 33, Type (0, 0), BuildingBlock: AJUNOK_clean_linker_0, # of connection points: 2
#     Edge 34, Type (0, 0), BuildingBlock: AJUNOK_clean_linker_0, # of connection points: 2
#     Edge 35, Type (0, 0), BuildingBlock: AJUNOK_clean_linker_0, # of connection points: 2
#     Edge 36, Type (0, 0), BuildingBlock: AJUNOK_clean_linker_0, # of connection points: 2
#     Edge 37, Type (0, 0), BuildingBlock: AJUNOK_clean_linker_0, # of connection points: 2
#     Edge 38, Type (0, 0), BuildingBlock: AJUNOK_clean_linker_0, # of connection points: 2
#     Edge 39, Type (0, 0), BuildingBlock: AJUNOK_clean_linker_0, # of connection points: 2
#     Edge 40, Type (0, 0), BuildingBlock: AJUNOK_clean_linker_0, # of connection points: 2
#     Edge 41, Type (0, 0), BuildingBlock: AJUNOK_clean_linker_0, # of connection points: 2
#     Edge 42, Type (0, 0), BuildingBlock: AJUNOK_clean_linker_0, # of connection points: 2
#     Edge 43, Type (0, 0), BuildingBlock: AJUNOK_clean_linker_0, # of connection points: 2
#     Edge 44, Type (0, 0), BuildingBlock: AJUNOK_clean_linker_0, # of connection points: 2
#     Edge 45, Type (0, 0), BuildingBlock: AJUNOK_clean_linker_0, # of connection points: 2
#     Edge 46, Type (0, 0), BuildingBlock: AJUNOK_clean_linker_0, # of connection points: 2
#     Edge 47, Type (0, 0), BuildingBlock: AJUNOK_clean_linker_0, # of connection points: 2
#     Edge 48, Type (0, 0), BuildingBlock: AJUNOK_clean_linker_0, # of connection points: 2
#     Edge 49, Type (0, 0), BuildingBlock: AJUNOK_clean_linker_0, # of connection points: 2
#     Edge 50, Type (0, 0), BuildingBlock: AJUNOK_clean_linker_0, # of connection points: 2
#     Edge 51, Type (0, 0), BuildingBlock: AJUNOK_clean_linker_0, # of connection points: 2
#     Edge 52, Type (0, 0), BuildingBlock: AJUNOK_clean_linker_0, # of connection points: 2
#     Edge 53, Type (0, 0), BuildingBlock: AJUNOK_clean_linker_0, # of connection points: 2
#     Edge 54, Type (0, 0), BuildingBlock: AJUNOK_clean_linker_0, # of connection points: 2
#     Edge 55, Type (0, 0), BuildingBlock: AJUNOK_clean_linker_0, # of connection points: 2
#     Edge 56, Type (0, 0), BuildingBlock: AJUNOK_clean_linker_0, # of connection points: 2
#     Edge 57, Type (0, 0), BuildingBlock: AJUNOK_clean_linker_0, # of connection points: 2
#     Edge 58, Type (0, 0), BuildingBlock: AJUNOK_clean_linker_0, # of connection points: 2
#     Edge 59, Type (0, 0), BuildingBlock: AJUNOK_clean_linker_0, # of connection points: 2
#     Edge 60, Type (0, 0), BuildingBlock: AJUNOK_clean_linker_0, # of connection points: 2
#     Edge 61, Type (0, 0), BuildingBlock: AJUNOK_clean_linker_0, # of connection points: 2
#     Edge 62, Type (0, 0), BuildingBlock: AJUNOK_clean_linker_0, # of connection points: 2
#     Edge 63, Type (0, 0), BuildingBlock: AJUNOK_clean_linker_0, # of connection points: 2
#     Edge 64, Type (0, 0), BuildingBlock: AJUNOK_clean_linker_0, # of connection points: 2
#     Edge 65, Type (0, 0), BuildingBlock: AJUNOK_clean_linker_0, # of connection points: 2
#     Edge 66, Type (0, 0), BuildingBlock: AJUNOK_clean_linker_0, # of connection points: 2
#     Edge 67, Type (0, 0), BuildingBlock: AJUNOK_clean_linker_0, # of connection points: 2
#     Edge 68, Type (0, 0), BuildingBlock: AJUNOK_clean_linker_0, # of connection points: 2
#     Edge 69, Type (0, 0), BuildingBlock: AJUNOK_clean_linker_0, # of connection points: 2
#     Edge 70, Type (0, 0), BuildingBlock: AJUNOK_clean_linker_0, # of connection points: 2
#     Edge 71, Type (0, 0), BuildingBlock: AJUNOK_clean_linker_0, # of connection points: 2
#     Edge 72, Type (0, 0), BuildingBlock: AJUNOK_clean_linker_0, # of connection points: 2
#     Edge 73, Type (0, 0), BuildingBlock: AJUNOK_clean_linker_0, # of connection points: 2
#     Edge 74, Type (0, 0), BuildingBlock: AJUNOK_clean_linker_0, # of connection points: 2
#     Edge 75, Type (0, 0), BuildingBlock: AJUNOK_clean_linker_0, # of connection points: 2
#     Edge 76, Type (0, 0), BuildingBlock: AJUNOK_clean_linker_0, # of connection points: 2
#     Edge 77, Type (0, 0), BuildingBlock: AJUNOK_clean_linker_0, # of connection points: 2
#     Edge 78, Type (0, 0), BuildingBlock: AJUNOK_clean_linker_0, # of connection points: 2
#     Edge 79, Type (0, 0), BuildingBlock: AJUNOK_clean_linker_0, # of connection points: 2
#     Edge 80, Type (0, 0), BuildingBlock: AJUNOK_clean_linker_0, # of connection points: 2
#     Edge 81, Type (0, 0), BuildingBlock: AJUNOK_clean_linker_0, # of connection points: 2
#     Edge 82, Type (0, 0), BuildingBlock: AJUNOK_clean_linker_0, # of connection points: 2
#     Edge 83, Type (0, 0), BuildingBlock: AJUNOK_clean_linker_0, # of connection points: 2
#     Edge 84, Type (0, 0), BuildingBlock: AJUNOK_clean_linker_0, # of connection points: 2
#     Edge 85, Type (0, 0), BuildingBlock: AJUNOK_clean_linker_0, # of connection points: 2
#     Edge 86, Type (0, 0), BuildingBlock: AJUNOK_clean_linker_0, # of connection points: 2
#     Edge 87, Type (0, 0), BuildingBlock: AJUNOK_clean_linker_0, # of connection points: 2
#     Edge 88, Type (0, 0), BuildingBlock: AJUNOK_clean_linker_0, # of connection points: 2
#     Edge 89, Type (0, 0), BuildingBlock: AJUNOK_clean_linker_0, # of connection points: 2
#     Edge 90, Type (0, 0), BuildingBlock: AJUNOK_clean_linker_0, # of connection points: 2
#     Edge 91, Type (0, 0), BuildingBlock: AJUNOK_clean_linker_0, # of connection points: 2
#     Edge 92, Type (0, 0), BuildingBlock: AJUNOK_clean_linker_0, # of connection points: 2
#     Edge 93, Type (0, 0), BuildingBlock: AJUNOK_clean_linker_0, # of connection points: 2
#     Edge 94, Type (0, 0), BuildingBlock: AJUNOK_clean_linker_0, # of connection points: 2
#     Edge 95, Type (0, 0), BuildingBlock: AJUNOK_clean_linker_0, # of connection points: 2
# Relax obj value: 0.238
# Max RMSD: 0.250
# Mean RMSD: 0.250
data_MOF--net-uke--node1-AZAVOO_clean_sbu_0--edge1-AJUNOK_clean_linker_0
_symmetry_space_group_name_H-M    P1
_symmetry_Int_Tables_number       1
_symmetry_cell_setting            triclinic
loop_
_symmetry_equiv_pos_as_xyz
'x, y, z'
_cell_length_a     21.937501
_cell_length_b     78.708268
_cell_length_c     29.795037
_cell_angle_alpha  90.20553
_cell_angle_beta   89.987017
_cell_angle_gamma 90.154433
loop_
_atom_site_label
_atom_site_type_symbol
_atom_site_fract_x
_atom_site_fract_y
_atom_site_fract_z
_atom_type_partial_charge
Mg0 Mg 0.09837 0.06059 0.29293 0.0
O1 O 0.1008 0.05872 0.21667 0.0
O2 O 0.02126 0.07213 0.18728 0.0
Mg3 Mg 0.96973 0.08399 0.24647 0.0
C4 C 0.0699 0.06346 0.18291 0.0
C5 C 0.2065 0.03746 0.26548 0.0
O6 O 0.221 0.05129 0.24333 0.0
O7 O 0.01855 0.04236 0.30047 0.0
O8 O 0.94156 0.05834 0.2763 0.0
O9 O 0.15395 0.08429 0.28964 0.0
O10 O 0.05322 0.08411 0.28917 0.0
C11 C 0.96184 0.0447 0.29382 0.0
C12 C 0.10326 0.09266 0.28718 0.0
O13 O 0.16242 0.038 0.29309 0.0
Mg14 Mg 0.11483 0.19752 0.31297 0.0
O15 O 0.13628 0.19462 0.23815 0.0
O16 O 0.20258 0.17342 0.22965 0.0
Mg17 Mg 0.23773 0.16646 0.29921 0.0
C18 C 0.16576 0.18429 0.21343 0.0
C19 C 0.02783 0.222 0.26068 0.0
O20 O 0.0177 0.20792 0.23806 0.0
O21 O 0.20003 0.21311 0.32862 0.0
O22 O 0.27104 0.19318 0.31841 0.0
O23 O 0.05113 0.17539 0.30406 0.0
O24 O 0.14707 0.173 0.32548 0.0
C25 C 0.25555 0.20835 0.32844 0.0
C26 C 0.09734 0.16576 0.3131 0.0
O27 O 0.06281 0.22155 0.2947 0.0
Mg28 Mg 0.07357 0.18954 0.92801 0.0
O29 O 0.08213 0.1867 0.00398 0.0
O30 O 0.02479 0.16507 0.0271 0.0
Mg31 Mg 0.97481 0.15471 0.9655 0.0
C32 C 0.06291 0.17696 0.0349 0.0
C33 C 0.10114 0.22886 0.94697 0.0
O34 O 0.04205 0.23092 0.94304 0.0
O35 O 0.97915 0.20168 0.9313 0.0
O36 O 0.92278 0.1793 0.95154 0.0
O37 O 0.14619 0.16986 0.91891 0.0
O38 O 0.04781 0.1641 0.92061 0.0
C39 C 0.92763 0.19484 0.93981 0.0
C40 C 0.10283 0.15867 0.91781 0.0
O41 O 0.1246 0.21441 0.939 0.0
Mg42 Mg 0.15364 0.05419 0.8945 0.0
O43 O 0.14714 0.05428 0.97085 0.0
O44 O 0.2214 0.07036 0.99931 0.0
Mg45 Mg 0.27227 0.08203 0.93939 0.0
C46 C 0.17479 0.06082 0.00426 0.0
C47 C 0.0477 0.02947 0.91735 0.0
O48 O 0.02447 0.04375 0.93244 0.0
O49 O 0.23865 0.03827 0.89307 0.0
O50 O 0.31108 0.05672 0.91301 0.0
O51 O 0.09049 0.0761 0.89386 0.0
O52 O 0.19078 0.07868 0.89573 0.0
C53 C 0.29457 0.04219 0.89798 0.0
C54 C 0.13812 0.08583 0.89688 0.0
O55 O 0.09756 0.02998 0.89582 0.0
Mg56 Mg 0.85697 0.91473 0.64523 0.0
O57 O 0.86235 0.91798 0.7205 0.0
O58 O 0.94017 0.90404 0.75012 0.0
Mg59 Mg 0.9829 0.88998 0.68976 0.0
C60 C 0.89386 0.91367 0.75423 0.0
C61 C 0.81789 0.95133 0.66889 0.0
O62 O 0.87616 0.95182 0.67869 0.0
O63 O 0.94138 0.93057 0.6316 0.0
O64 O 0.01805 0.91482 0.65738 0.0
O65 O 0.79647 0.89249 0.65538 0.0
O66 O 0.8966 0.89049 0.64897 0.0
C67 C -0.0019 0.92813 0.63783 0.0
C68 C 0.84482 0.88305 0.65534 0.0
O69 O 0.79576 0.93811 0.65013 0.0
Mg70 Mg 0.79574 0.77804 0.6786 0.0
O71 O 0.79801 0.78583 0.75356 0.0
O72 O 0.74426 0.80957 0.76669 0.0
Mg73 Mg 0.68131 0.81004 0.70598 0.0
C74 C 0.78221 0.7982 0.7789 0.0
C75 C 0.89697 0.75698 0.72274 0.0
O76 O 0.91841 0.77248 0.72715 0.0
O77 O 0.7071 0.76236 0.67877 0.0
O78 O 0.67337 0.78214 0.72164 0.0
O79 O 0.86185 0.79909 0.6689 0.0
O80 O 0.76233 0.80292 0.66328 0.0
C81 C 0.66225 0.77126 0.69143 0.0
C82 C 0.8164 0.8094 0.66422 0.0
O83 O 0.84912 0.75467 0.69949 0.0
Mg84 Mg 0.88261 0.80493 0.06126 0.0
O85 O 0.87495 0.80351 0.98539 0.0
O86 O 0.95273 0.81654 0.95234 0.0
Mg87 Mg 0.00821 0.82848 0.00966 0.0
C88 C 0.90322 0.80808 0.95023 0.0
C89 C 0.82434 0.77059 0.03606 0.0
O90 O 0.87579 0.7702 0.01353 0.0
O91 O 0.96288 0.78673 0.06644 0.0
O92 O 0.03795 0.80309 0.04013 0.0
O93 O 0.82854 0.82877 0.05923 0.0
O94 O 0.92904 0.82819 0.05645 0.0
C95 C 0.01927 0.78945 0.05882 0.0
C96 C 0.87967 0.83694 0.05552 0.0
O97 O 0.8141 0.78309 0.06221 0.0
Mg98 Mg 0.86214 0.94251 0.03769 0.0
O99 O 0.85013 0.93826 0.96222 0.0
O100 O 0.77179 0.92083 0.94959 0.0
Mg101 Mg 0.73484 0.91327 0.01849 0.0
C102 C 0.81595 0.92992 0.93553 0.0
C103 C 0.95701 0.96541 0.9887 0.0
O104 O 0.96977 0.9507 0.97005 0.0
O105 O 0.77812 0.95923 0.04659 0.0
O106 O 0.70402 0.93999 0.03851 0.0
O107 O 0.92428 0.9201 0.03784 0.0
O108 O 0.82514 0.91841 0.04978 0.0
C109 C 0.72194 0.95506 0.04745 0.0
C110 C 0.87642 0.91076 0.04453 0.0
O111 O 0.91825 0.9659 0.02039 0.0
Mg112 Mg 0.1309 0.54794 0.83239 0.0
O113 O 0.13317 0.54928 0.75613 0.0
O114 O 0.05648 0.56483 0.73046 0.0
Mg115 Mg 0.00744 0.57528 0.79246 0.0
C116 C 0.10349 0.5557 0.72378 0.0
C117 C 0.18034 0.51403 0.79563 0.0
O118 O 0.12686 0.51502 0.77607 0.0
O119 O 0.04632 0.53088 0.83692 0.0
O120 O 0.97446 0.54941 0.81684 0.0
O121 O 0.18987 0.57117 0.8346 0.0
O122 O 0.08937 0.57185 0.83535 0.0
C123 C 0.99044 0.53486 0.83145 0.0
C124 C 0.14016 0.58002 0.83501 0.0
O125 O 0.19485 0.52529 0.82457 0.0
Mg126 Mg 0.12642 0.68561 0.85739 0.0
O127 O 0.13045 0.68632 0.781 0.0
O128 O 0.21309 0.67305 0.75589 0.0
Mg129 Mg 0.26194 0.66291 0.81818 0.0
C130 C 0.16378 0.68113 0.74887 0.0
C131 C 0.00878 0.70323 0.82786 0.0
O132 O -0.00351 0.68727 0.81856 0.0
O133 O 0.20265 0.70499 0.86778 0.0
O134 O 0.28253 0.68916 0.84774 0.0
O135 O 0.07647 0.66098 0.85174 0.0
O136 O 0.17642 0.6629 0.85803 0.0
C137 C 0.26003 0.70284 0.86384 0.0
C138 C 0.12901 0.65352 0.85264 0.0
O139 O 0.05679 0.70665 0.85001 0.0
Mg140 Mg 0.11503 0.68681 0.45722 0.0
O141 O 0.11189 0.68557 0.5334 0.0
O142 O 0.03485 0.66915 0.55538 0.0
Mg143 Mg 0.99395 0.65754 0.49128 0.0
C144 C 0.07978 0.67891 0.56421 0.0
C145 C 0.1514 0.72235 0.49294 0.0
O146 O 0.0987 0.71978 0.5127 0.0
O147 O 0.02786 0.70205 0.45052 0.0
O148 O 0.95563 0.68291 0.4662 0.0
O149 O 0.17903 0.66487 0.45732 0.0
O150 O 0.07911 0.66222 0.45244 0.0
C151 C 0.97196 0.69769 0.45324 0.0
C152 C 0.13158 0.65505 0.45477 0.0
O153 O 0.17147 0.71109 0.46591 0.0
Mg154 Mg 0.19134 0.55051 0.43615 0.0
O155 O 0.18702 0.5502 0.51246 0.0
O156 O 0.25323 0.56851 0.54225 0.0
Mg157 Mg 0.29881 0.58173 0.48263 0.0
C158 C 0.2113 0.5574 0.54628 0.0
C159 C 0.09059 0.52566 0.46207 0.0
O160 O 0.06898 0.54055 0.47395 0.0
O161 O 0.28372 0.53713 0.43082 0.0
O162 O 0.34507 0.55784 0.4555 0.0
O163 O 0.12097 0.57099 0.43746 0.0
O164 O 0.21986 0.57604 0.43808 0.0
C165 C 0.33693 0.54311 0.43839 0.0
C166 C 0.16522 0.58186 0.44008 0.0
O167 O 0.14024 0.52521 0.44003 0.0
Mg168 Mg 0.9088 0.44727 0.20017 0.0
O169 O 0.92445 0.44032 0.2729 0.0
O170 O 0.97779 0.41636 0.27803 0.0
Mg171 Mg 0.01037 0.41062 0.20649 0.0
C172 C 0.94725 0.42836 0.2959 0.0
C173 C 0.83177 0.48137 0.21224 0.0
O174 O 0.81327 0.47863 0.1709 0.0
O175 O 0.00258 0.45947 0.19234 0.0
O176 O 0.05999 0.43612 0.19728 0.0
O177 O 0.83295 0.42818 0.20053 0.0
O178 O 0.92727 0.42242 0.17939 0.0
C179 C 0.05442 0.45216 0.19233 0.0
C180 C 0.87333 0.41709 0.18848 0.0
O181 O 0.86957 0.47129 0.22997 0.0
Mg182 Mg 0.82276 0.31236 0.18802 0.0
O183 O 0.83084 0.31016 0.26393 0.0
O184 O 0.75942 0.32579 0.29701 0.0
Mg185 Mg 0.70744 0.33926 0.2403 0.0
C186 C 0.80487 0.31574 0.29916 0.0
C187 C 0.92787 0.28736 0.20689 0.0
O188 O 0.94788 0.30119 0.22692 0.0
O189 O 0.73592 0.29673 0.18452 0.0
O190 O 0.66613 0.31476 0.21083 0.0
O191 O 0.88757 0.33407 0.18938 0.0
O192 O 0.7876 0.33708 0.19468 0.0
C193 C 0.68061 0.30063 0.19258 0.0
C194 C 0.841 0.34395 0.19494 0.0
O195 O 0.87915 0.28817 0.18397 0.0
Mg196 Mg 0.91969 0.30106 0.58059 0.0
O197 O 0.90346 0.30266 0.50511 0.0
O198 O 0.9794 0.31675 0.47246 0.0
Mg199 Mg 0.04109 0.32628 0.52951 0.0
C200 C 0.92893 0.30874 0.47035 0.0
C201 C 0.80312 0.28054 0.55939 0.0
O202 O 0.7865 0.29585 0.54722 0.0
O203 O -0.00089 0.2826 0.57577 0.0
O204 O 0.07299 0.3 0.55267 0.0
O205 O 0.86618 0.3249 0.58858 0.0
O206 O 0.96594 0.32449 0.57965 0.0
C207 C 0.0552 0.28568 0.56795 0.0
C208 C 0.91687 0.33323 0.58406 0.0
O209 O 0.85363 0.27877 0.57966 0.0
Mg210 Mg 0.89626 0.4391 0.58298 0.0
O211 O 0.88689 0.43585 0.50733 0.0
O212 O 0.81689 0.41626 0.49112 0.0
Mg213 Mg 0.77449 0.40851 0.55807 0.0
C214 C 0.8583 0.42667 0.47909 0.0
C215 C 0.99196 0.46287 0.53672 0.0
O216 O 0.00717 0.44836 0.51792 0.0
O217 O 0.80972 0.45494 0.59017 0.0
O218 O 0.73929 0.43503 0.57674 0.0
O219 O 0.96013 0.4169 0.58294 0.0
O220 O 0.86092 0.41462 0.59313 0.0
C221 C 0.75415 0.4502 0.58752 0.0
C222 C 0.91272 0.40727 0.58834 0.0
O223 O 0.95162 0.46291 0.56742 0.0
Mg224 Mg 0.60504 0.03301 0.79339 0.0
O225 O 0.59735 0.04066 0.7188 0.0
O226 O 0.5329 0.06255 0.71108 0.0
Mg227 Mg 0.46883 0.05775 0.76996 0.0
C228 C 0.57517 0.05293 0.69611 0.0
C229 C 0.67073 -0.00188 0.77267 0.0
O230 O 0.62601 0.99188 0.79687 0.0
O231 O 0.53072 0.01248 0.79199 0.0
O232 O 0.48196 0.03016 0.75099 0.0
O233 O 0.65193 0.05787 0.80418 0.0
O234 O 0.55244 0.05483 0.81241 0.0
C235 C 0.47993 0.01853 0.78016 0.0
C236 C 0.59923 0.06473 0.81165 0.0
O237 O 0.67661 0.01413 0.76924 0.0
Mg238 Mg 0.58289 0.17048 0.83743 0.0
O239 O 0.58937 0.1737 0.76169 0.0
O240 O 0.67169 0.16061 0.73516 0.0
Mg241 Mg 0.71583 0.14732 0.79521 0.0
C242 C 0.62422 0.16964 0.7293 0.0
C243 C 0.52906 0.20773 0.84572 0.0
O244 O 0.57775 0.21041 0.87034 0.0
O245 O 0.6637 0.1882 0.85097 0.0
O246 O 0.74278 0.17275 0.82742 0.0
O247 O 0.52848 0.14665 0.82746 0.0
O248 O 0.62867 0.14709 0.83367 0.0
C249 C 0.7208 0.18614 0.84543 0.0
C250 C 0.57956 0.13842 0.82733 0.0
O251 O 0.51594 0.19267 0.83345 0.0
Mg252 Mg 0.59089 0.19611 0.44307 0.0
O253 O 0.58218 0.19196 0.51879 0.0
O254 O 0.50699 0.17357 0.53239 0.0
Mg255 Mg 0.46862 0.16547 0.46416 0.0
C256 C 0.55023 0.18316 0.54589 0.0
C257 C 0.69028 0.21952 0.48508 0.0
O258 O 0.70997 0.20463 0.49844 0.0
O259 O 0.50434 0.2119 0.4365 0.0
O260 O 0.43331 0.19187 0.44554 0.0
O261 O 0.65664 0.17452 0.44115 0.0
O262 O 0.5573 0.1715 0.43181 0.0
C263 C 0.44877 0.20714 0.43679 0.0
C264 C 0.6101 0.16455 0.43568 0.0
O265 O 0.64463 0.2201 0.45894 0.0
Mg266 Mg 0.63466 0.05909 0.41359 0.0
O267 O 0.64736 0.05854 0.48899 0.0
O268 O 0.72022 0.07612 0.51243 0.0
Mg269 Mg 0.76281 0.08614 0.44737 0.0
C270 C 0.67758 0.06553 0.52033 0.0
C271 C 0.53393 0.03775 0.45576 0.0
O272 O 0.52525 0.0528 0.47378 0.0
O273 O 0.71622 0.04202 0.40157 0.0
O274 O 0.79147 0.05976 0.421 0.0
O275 O 0.57607 0.082 0.42147 0.0
O276 O 0.67548 0.08324 0.41047 0.0
C277 C 0.77277 0.04544 0.40585 0.0
C278 C 0.62517 0.09109 0.41803 0.0
O279 O 0.57301 0.03624 0.42445 0.0
Mg280 Mg 0.38913 0.94745 0.16397 0.0
O281 O 0.39185 0.94749 0.24035 0.0
O282 O 0.46428 0.93049 0.26647 0.0
Mg283 Mg 0.50801 0.91875 0.20363 0.0
C284 C 0.42029 0.94075 0.27289 0.0
C285 C 0.29169 0.97216 0.19849 0.0
O286 O 0.27317 0.95774 0.21587 0.0
O287 O 0.47631 0.9628 0.1555 0.0
O288 O 0.54633 0.94389 0.17633 0.0
O289 O 0.32358 0.92575 0.16726 0.0
O290 O 0.42341 0.9226 0.16331 0.0
C291 C 0.53173 0.95839 0.16053 0.0
C292 C 0.37033 0.91573 0.16702 0.0
O293 O 0.33506 0.97193 0.17023 0.0
Mg294 Mg 0.34855 0.80982 0.16715 0.0
O295 O 0.34568 0.81111 0.24393 0.0
O296 O 0.26601 0.82649 0.26612 0.0
Mg297 Mg 0.21927 0.83582 0.20221 0.0
C298 C 0.31333 0.81774 0.27481 0.0
C299 C 0.45864 0.7894 0.19975 0.0
O300 O 0.47268 0.80484 0.21309 0.0
O301 O 0.26792 0.79175 0.16134 0.0
O302 O 0.19109 0.80896 0.17968 0.0
O303 O 0.40574 0.83319 0.1681 0.0
O304 O 0.30534 0.83352 0.1632 0.0
C305 C 0.21117 0.79456 0.16647 0.0
C306 C 0.35567 0.84187 0.16662 0.0
O307 O 0.41183 0.78734 0.17528 0.0
Mg308 Mg 0.34669 0.81676 0.56754 0.0
O309 O 0.35578 0.81642 0.49136 0.0
O310 O 0.43693 0.83138 0.47026 0.0
Mg311 Mg 0.47717 0.84288 0.53473 0.0
C312 C 0.39079 0.82214 0.46089 0.0
C313 C 0.30209 0.78144 0.53504 0.0
O314 O 0.35616 0.78242 0.51626 0.0
O315 O 0.42918 0.79989 0.57941 0.0
O316 O 0.5074 0.81694 0.56241 0.0
O317 O 0.28843 0.83987 0.56168 0.0
O318 O 0.38828 0.84064 0.57042 0.0
C319 C 0.48628 0.80283 0.57681 0.0
C320 C 0.33809 0.84877 0.5647 0.0
O321 O 0.28432 0.7936 0.56008 0.0
Mg322 Mg 0.31347 0.95476 0.55768 0.0
O323 O 0.32364 0.95168 0.48028 0.0
O324 O 0.26614 0.93019 0.45406 0.0
Mg325 Mg 0.19724 0.92664 0.51021 0.0
C326 C 0.30754 0.94147 0.44889 0.0
C327 C 0.42285 0.9769 0.52989 0.0
O328 O 0.43995 0.96192 0.51516 0.0
O329 O 0.2282 0.97165 0.55822 0.0
O330 O 0.19649 0.95521 0.50566 0.0
O331 O 0.37372 0.93236 0.56345 0.0
O332 O 0.27329 0.93 0.56034 0.0
C333 C 0.18363 0.96425 0.53943 0.0
C334 C 0.32586 0.92271 0.56155 0.0
O335 O 0.37407 0.97807 0.55262 0.0
Mg336 Mg 0.67111 0.57187 0.32897 0.0
O337 O 0.6595 0.57284 0.25363 0.0
O338 O 0.57652 0.58707 0.23387 0.0
Mg339 Mg 0.53702 0.59697 0.30053 0.0
C340 C 0.62373 0.57847 0.22374 0.0
C341 C 0.73123 0.53515 0.32335 0.0
O342 O 0.69279 0.53091 0.35521 0.0
O343 O 0.59186 0.55327 0.33841 0.0
O344 O 0.51216 0.57003 0.32415 0.0
O345 O 0.72589 0.59573 0.32641 0.0
O346 O 0.62607 0.59523 0.33649 0.0
C347 C 0.53451 0.55577 0.33612 0.0
C348 C 0.67535 0.60398 0.33173 0.0
O349 O 0.73614 0.55055 0.3115 0.0
Mg350 Mg 0.66377 0.70977 0.33795 0.0
O351 O 0.67786 0.7041 0.26212 0.0
O352 O 0.73615 0.68087 0.25526 0.0
Mg353 Mg 0.79769 0.68416 0.3162 0.0
C354 C 0.69691 0.69127 0.23972 0.0
C355 C 0.56488 0.72965 0.28324 0.0
O356 O 0.55718 0.71474 0.26405 0.0
O357 O 0.74015 0.7295 0.34516 0.0
O358 O 0.78916 0.71227 0.30249 0.0
O359 O 0.61166 0.68546 0.34003 0.0
O360 O 0.71041 0.68678 0.35451 0.0
C361 C 0.7908 0.72312 0.33393 0.0
C362 C 0.66235 0.67764 0.34824 0.0
O363 O 0.60025 0.73094 0.31683 0.0
Mg364 Mg 0.58892 0.68503 0.96115 0.0
O365 O 0.59754 0.68466 0.03699 0.0
O366 O 0.52588 0.66866 0.06847 0.0
Mg367 Mg 0.46829 0.65899 0.00933 0.0
C368 C 0.57267 0.6782 0.0714 0.0
C369 C 0.64108 0.71938 0.99314 0.0
O370 O 0.58927 0.71851 0.01506 0.0
O371 O 0.5068 0.70246 0.96078 0.0
O372 O 0.43413 0.68544 0.98752 0.0
O373 O 0.64669 0.66197 0.95722 0.0
O374 O 0.54622 0.66081 0.96089 0.0
C375 C 0.45136 0.69963 0.97101 0.0
C376 C 0.59747 0.65285 0.95894 0.0
O377 O 0.65374 0.70776 0.96476 0.0
Mg378 Mg 0.64393 0.54843 0.94013 0.0
O379 O 0.6601 0.55467 0.01444 0.0
O380 O 0.72854 0.57559 0.02108 0.0
Mg381 Mg 0.75977 0.58185 0.94998 0.0
C382 C 0.69029 0.56526 0.03817 0.0
C383 C 0.57009 0.52122 0.99687 0.0
O384 O 0.55736 0.53456 0.02169 0.0
O385 O 0.73345 0.53432 0.93038 0.0
O386 O 0.80088 0.55547 0.9367 0.0
O387 O 0.57328 0.5688 0.94227 0.0
O388 O 0.66965 0.57334 0.92448 0.0
C389 C 0.78808 0.53982 0.93025 0.0
C390 C 0.61684 0.57949 0.93389 0.0
O391 O 0.60006 0.52324 0.96076 0.0
Mg392 Mg 0.42347 0.43324 0.6985 0.0
O393 O 0.42681 0.43348 0.77465 0.0
O394 O 0.50634 0.4192 0.80061 0.0
Mg395 Mg 0.55447 0.4088 0.73782 0.0
C396 C 0.45824 0.42792 0.80719 0.0
C397 C 0.36591 0.46669 0.73294 0.0
O398 O 0.41984 0.46733 0.75204 0.0
O399 O 0.50303 0.45166 0.6893 0.0
O400 O 0.58041 0.43516 0.7107 0.0
O401 O 0.36926 0.40943 0.70286 0.0
O402 O 0.46965 0.40991 0.69716 0.0
C403 C 0.55994 0.44909 0.69483 0.0
C404 C 0.42034 0.4012 0.70171 0.0
O405 O 0.35443 0.4547 0.70544 0.0
Mg406 Mg 0.38829 0.29608 0.69971 0.0
O407 O 0.358 0.29948 0.77217 0.0
O408 O 0.28868 0.32002 0.77828 0.0
Mg409 Mg 0.26604 0.32764 0.70607 0.0
C410 C 0.32387 0.30901 0.79575 0.0
C411 C 0.40718 0.26158 0.74814 0.0
O412 O 0.34809 0.26341 0.7532 0.0
O413 O 0.30383 0.28092 0.67883 0.0
O414 O 0.2331 0.30115 0.68473 0.0
O415 O 0.45441 0.31738 0.7109 0.0
O416 O 0.36034 0.32104 0.68606 0.0
C417 C 0.24877 0.2859 0.67586 0.0
C418 C 0.4108 0.32761 0.69993 0.0
O419 O 0.43673 0.27228 0.72461 0.0
Mg420 Mg 0.36498 0.29317 0.08449 0.0
O421 O 0.37607 0.297 0.00801 0.0
O422 O 0.44315 0.31778 0.99352 0.0
Mg423 Mg 0.504 0.31577 0.0554 0.0
C424 C 0.40036 0.30773 0.98131 0.0
C425 C 0.24961 0.27919 0.03952 0.0
O426 O 0.24776 0.29532 0.02847 0.0
O427 O 0.43603 0.27198 0.0915 0.0
O428 O 0.48764 0.28758 0.04626 0.0
O429 O 0.31941 0.3181 0.08653 0.0
O430 O 0.41885 0.31567 0.09708 0.0
C431 C 0.48777 0.27725 0.07871 0.0
C432 C 0.3718 0.32534 0.09272 0.0
O433 O 0.29123 0.27415 0.06602 0.0
Mg434 Mg 0.39734 0.43151 0.0985 0.0
O435 O 0.39597 0.43212 0.02191 0.0
O436 O 0.31478 0.41854 0.99489 0.0
Mg437 Mg 0.26509 0.40783 0.05622 0.0
C438 C 0.36364 0.42704 0.98909 0.0
C439 C 0.50357 0.45423 0.06412 0.0
O440 O 0.51573 0.44017 0.04207 0.0
O441 O 0.31821 0.45012 0.10632 0.0
O442 O 0.23993 0.43422 0.08267 0.0
O443 O 0.44877 0.40664 0.09579 0.0
O444 O 0.34886 0.4087 0.09824 0.0
C445 C 0.26137 0.44799 0.09911 0.0
C446 C 0.39606 0.39916 0.09625 0.0
O447 O 0.46306 0.45389 0.09461 0.0
C448 C 0.18453 0.05988 0.08799 0.0
C449 C 0.14746 0.05911 0.04957 0.0
C450 C 0.15894 0.06037 0.13113 0.0
C451 C 0.09526 0.06049 0.13747 0.0
H452 H 0.23367 0.06048 0.08469 0.0
H453 H 0.18938 0.06148 0.15957 0.0
S454 S 0.97809 0.05788 0.04812 0.0
N455 N 0.04363 0.05777 0.0209 0.0
N456 N 0.99586 0.05893 0.10189 0.0
C457 C 0.05773 0.05921 0.09948 0.0
C458 C 0.08374 0.05843 0.05559 0.0
C459 C 0.10696 0.19477 0.09697 0.0
C460 C 0.08973 0.17869 0.0803 0.0
C461 C 0.13328 0.19658 0.13974 0.0
C462 C 0.1455 0.1823 0.16644 0.0
H463 H 0.09883 0.20608 0.07723 0.0
H464 H 0.14381 0.20921 0.1521 0.0
S465 S 0.11008 0.13738 0.13809 0.0
N466 N 0.08697 0.14824 0.09398 0.0
N467 N 0.13797 0.15159 0.17347 0.0
C468 C 0.12959 0.16614 0.14979 0.0
C469 C 0.10133 0.16434 0.10694 0.0
C470 C 0.89704 0.92561 0.878 0.0
C471 C 0.83499 0.92815 0.88813 0.0
C472 C 0.91595 0.9211 0.83457 0.0
C473 C 0.87366 0.91937 0.7994 0.0
H474 H 0.93104 0.92629 0.90432 0.0
H475 H 0.96395 0.91879 0.82863 0.0
S476 S 0.70628 0.92602 0.80789 0.0
N477 N 0.73171 0.92936 0.85934 0.0
N478 N 0.76693 0.92148 0.77733 0.0
C479 C 0.81169 0.92266 0.80874 0.0
C480 C 0.79242 0.92687 0.8532 0.0
C481 C 0.81024 0.80281 0.90363 0.0
C482 C 0.87416 0.80474 0.90613 0.0
C483 C 0.7805 0.80079 0.8623 0.0
C484 C 0.81373 0.80023 0.82216 0.0
H485 H 0.78265 0.80327 0.93377 0.0
H486 H 0.73129 0.79958 0.86174 0.0
S487 S 0.98117 0.80448 0.80969 0.0
N488 N 0.96937 0.80589 0.86434 0.0
N489 N 0.91324 0.80185 0.78679 0.0
C490 C 0.87743 0.80191 0.824 0.0
C491 C 0.90773 0.80423 0.86596 0.0
C492 C 0.19203 0.55178 0.67178 0.0
C493 C 0.12875 0.55409 0.67779 0.0
C494 C 0.21868 0.55246 0.62899 0.0
C495 C 0.18279 0.55494 0.59063 0.0
H496 H 0.22171 0.5502 0.7005 0.0
H497 H 0.26771 0.55128 0.62595 0.0
S498 S 0.01519 0.56105 0.58756 0.0
N499 N 0.03102 0.55855 0.6413 0.0
N500 N 0.08095 0.55946 0.56095 0.0
C501 C 0.11936 0.55662 0.5959 0.0
C502 C 0.09236 0.55628 0.63945 0.0
C503 C 0.18218 0.68342 0.66615 0.0
C504 C 0.14095 0.6827 0.70221 0.0
C505 C 0.16164 0.68298 0.62158 0.0
C506 C 0.09917 0.68136 0.61139 0.0
H507 H 0.23079 0.68404 0.67239 0.0
H508 H 0.19524 0.6832 0.59493 0.0
S509 S 0.97228 0.67977 0.69334 0.0
N510 N 0.03429 0.68112 0.72454 0.0
N511 N -0.00388 0.6799 0.64081 0.0
C512 C 0.05736 0.68109 0.64702 0.0
C513 C 0.07812 0.68189 0.69239 0.0
C514 C 0.90556 0.44174 0.41402 0.0
C515 C 0.87919 0.4269 0.43185 0.0
C516 C 0.92912 0.44202 0.37029 0.0
C517 C 0.92912 0.42731 0.34341 0.0
H518 H 0.90742 0.4533 0.43386 0.0
H519 H 0.9474 0.45383 0.35735 0.0
S520 S 0.86616 0.38516 0.37401 0.0
N521 N 0.85448 0.39709 0.41889 0.0
N522 N 0.9002 0.39759 0.33712 0.0
C523 C 0.90371 0.41234 0.36088 0.0
C524 C 0.87833 0.41214 0.40498 0.0
C525 C 0.89536 0.30747 0.34549 0.0
C526 C 0.83319 0.31199 0.34338 0.0
C527 C 0.92585 0.30598 0.38668 0.0
C528 C 0.89502 0.30852 0.42741 0.0
H529 H 0.92162 0.30575 0.31507 0.0
H530 H 0.9741 0.30309 0.38662 0.0
S531 S 0.73191 0.31992 0.44093 0.0
N532 N 0.74169 0.31849 0.38611 0.0
N533 N 0.79874 0.31546 0.4634 0.0
C534 C 0.83244 0.31241 0.42598 0.0
C535 C 0.8016 0.31421 0.38404 0.0
C536 C 0.6096 0.04314 0.62079 0.0
C537 C 0.602 0.05643 0.65184 0.0
C538 C 0.63575 0.04612 0.57864 0.0
C539 C 0.65715 0.06238 0.56676 0.0
H540 H 0.59399 0.03043 0.62879 0.0
H541 H 0.63885 0.03566 0.55502 0.0
S542 S 0.64981 0.10126 0.63726 0.0
N543 N 0.61849 0.08631 0.66856 0.0
N544 N 0.66961 0.09186 0.58978 0.0
C545 C 0.65123 0.07567 0.59808 0.0
C546 C 0.62305 0.07272 0.64052 0.0
C547 C 0.54457 0.17602 0.67173 0.0
C548 C 0.60667 0.17474 0.68328 0.0
C549 C 0.52643 0.17933 0.62744 0.0
C550 C 0.56972 0.18195 0.59337 0.0
H551 H 0.50958 0.17379 0.69671 0.0
H552 H 0.4782 0.17954 0.61967 0.0
S553 S 0.73803 0.18096 0.60672 0.0
N554 N 0.7114 0.17703 0.65747 0.0
N555 N 0.67752 0.18351 0.57454 0.0
C556 C 0.63195 0.18137 0.6049 0.0
C557 C 0.65038 0.17768 0.64975 0.0
C558 C 0.30304 0.94393 0.36583 0.0
C559 C 0.33815 0.94263 0.40497 0.0
C560 C 0.33063 0.94413 0.32347 0.0
C561 C 0.39433 0.9427 0.31855 0.0
H562 H 0.25379 0.94464 0.36796 0.0
H563 H 0.30139 0.94467 0.29429 0.0
S564 S 0.5064 0.93905 0.4111 0.0
N565 N 0.43968 0.94013 0.43667 0.0
N566 N 0.49173 0.9402 0.3568 0.0
C567 C 0.43002 0.94158 0.35758 0.0
C568 C 0.40187 0.94166 0.40086 0.0
C569 C 0.31195 0.81638 0.40202 0.0
C570 C 0.37358 0.81925 0.41327 0.0
C571 C 0.2929 0.81547 0.35714 0.0
C572 C 0.33493 0.81691 0.3218 0.0
H573 H 0.27759 0.81552 0.42804 0.0
H574 H 0.24479 0.81385 0.35004 0.0
S575 S 0.50173 0.82373 0.33292 0.0
N576 N 0.47676 0.82299 0.38514 0.0
N577 N 0.44111 0.82094 0.30088 0.0
C578 C 0.39695 0.81912 0.33249 0.0
C579 C 0.41622 0.82038 0.37818 0.0
C580 C 0.71729 0.57006 0.11873 0.0
C581 C 0.67268 0.5677 0.08555 0.0
C582 C 0.7008 0.57345 0.16336 0.0
C583 C 0.63917 0.57507 0.17615 0.0
H584 H 0.76519 0.56918 0.11019 0.0
H585 H 0.73675 0.57501 0.18797 0.0
S586 S 0.50533 0.57148 0.10071 0.0
N587 N 0.56456 0.56813 0.06768 0.0
N588 N 0.53361 0.57468 0.15142 0.0
C589 C 0.59423 0.57314 0.14296 0.0
C590 C 0.61099 0.56939 0.09771 0.0
C591 C 0.65592 0.70074 0.16586 0.0
C592 C 0.66716 0.68756 0.19642 0.0
C593 C 0.62474 0.69761 0.12559 0.0
C594 C 0.60171 0.68134 0.11535 0.0
H595 H 0.67186 0.71351 0.17293 0.0
H596 H 0.61818 0.70803 0.10246 0.0
S597 S 0.61661 0.64273 0.18543 0.0
N598 N 0.65211 0.65773 0.2143 0.0
N599 N 0.5915 0.65198 0.13931 0.0
C600 C 0.61149 0.66814 0.14611 0.0
C601 C 0.64479 0.67122 0.18649 0.0
C602 C 0.47307 0.42774 0.89066 0.0
C603 C 0.43433 0.43002 0.85356 0.0
C604 C 0.45004 0.42763 0.93458 0.0
C605 C 0.38726 0.42946 0.94304 0.0
H606 H 0.5214 0.42563 0.88575 0.0
H607 H 0.48137 0.42528 0.96193 0.0
S608 S 0.26697 0.43736 0.85845 0.0
N609 N 0.33023 0.43553 0.82883 0.0
N610 N 0.28733 0.43483 0.91135 0.0
C611 C 0.34831 0.43239 0.90659 0.0
C612 C 0.37177 0.43284 0.86189 0.0
C613 C 0.34166 0.29364 0.86749 0.0
C614 C 0.33422 0.30908 0.84461 0.0
C615 C 0.36162 0.29335 0.91218 0.0
C616 C 0.37706 0.30847 0.93489 0.0
H617 H 0.33314 0.28168 0.85041 0.0
H618 H 0.36708 0.28118 0.92854 0.0
S619 S 0.36447 0.35221 0.8901 0.0
N620 N 0.34187 0.33987 0.8483 0.0
N621 N 0.38142 0.3393 0.93186 0.0
C622 C 0.36896 0.324 0.91262 0.0
C623 C 0.34696 0.32431 0.86757 0.0
C624 C 0.28274 0.00378 0.19367 0.0
C625 C 0.26913 0.98859 0.21636 0.0
C626 C 0.26433 0.01956 0.21074 0.0
C627 C 0.23167 0.02082 0.2513 0.0
H628 H 0.30746 0.0035 0.1622 0.0
H629 H 0.27466 0.03081 0.1913 0.0
S630 S 0.18903 0.98498 0.32586 0.0
N631 N 0.22391 0.9759 0.283 0.0
N632 N 0.18953 0.00553 0.31509 0.0
C633 C 0.21909 0.00576 0.27498 0.0
C634 C 0.23764 0.98967 0.25749 0.0
C635 C 0.99529 0.26931 0.25435 0.0
C636 C 0.9556 0.27068 0.21745 0.0
C637 C 0.01793 0.25355 0.26806 0.0
C638 C 0.00222 0.23845 0.24533 0.0
H639 H 0.00802 0.28045 0.27365 0.0
H640 H 0.04789 0.25326 0.29694 0.0
S641 S 0.90236 0.23517 0.14489 0.0
N642 N 0.90318 0.25563 0.15727 0.0
N643 N 0.94603 0.22599 0.18279 0.0
C644 C 0.96354 0.23965 0.20771 0.0
C645 C 0.94021 0.25575 0.19385 0.0
C646 C 0.1903 0.23735 0.9937 0.0
C647 C 0.13879 0.24214 0.96867 0.0
C648 C 0.22471 0.24937 0.0174 0.0
C649 C 0.20955 0.26672 0.01658 0.0
H650 H 0.20367 0.22414 0.9958 0.0
H651 H 0.26403 0.24499 0.03602 0.0
S652 S 0.07938 0.28589 0.95538 0.0
N653 N 0.07423 0.26537 0.94424 0.0
N654 N 0.13951 0.28811 0.98824 0.0
C655 C 0.1583 0.27172 0.99143 0.0
C656 C 0.12277 0.2594 0.96765 0.0
C657 C 0.9798 0.01255 0.96758 0.0
C658 C 0.02273 0.01293 0.93252 0.0
C659 C 0.95978 -0.00284 0.9859 0.0
C660 C 0.98149 0.98147 0.96977 0.0
H661 H 0.96225 0.02424 0.98179 0.0
H662 H 0.92679 -0.00236 0.01292 0.0
S663 S 0.09286 0.97541 0.87714 0.0
N664 N 0.08537 -0.00379 0.8815 0.0
N665 N 0.04756 0.96728 0.91577 0.0
C666 C 0.02385 0.98163 0.93423 0.0
C667 C 0.04442 -0.00266 0.91564 0.0
C668 C 0.68928 0.96978 0.73732 0.0
C669 C 0.70862 0.98663 0.74485 0.0
C670 C 0.7229 0.9587 0.71008 0.0
C671 C 0.77763 0.96399 0.68997 0.0
H672 H 0.6478 0.96503 0.75256 0.0
H673 H 0.70722 0.94571 0.70635 0.0
S674 S 0.84718 0.00688 0.69709 0.0
N675 N 0.78498 0.00822 0.72811 0.0
N676 N 0.8488 0.9872 0.6778 0.0
C677 C 0.79702 0.98084 0.69643 0.0
C678 C 0.76239 0.99221 0.72364 0.0
C679 C 0.00254 0.73327 0.80136 0.0
C680 C 0.97607 0.717 0.80408 0.0
C681 C 0.97703 0.74595 0.77451 0.0
C682 C 0.92391 0.74294 0.7492 0.0
H683 H 0.0443 0.73619 0.81922 0.0
H684 H -0.00046 0.75821 0.77351 0.0
S685 S 0.83394 0.70287 0.74731 0.0
N686 N 0.8916 0.69885 0.78119 0.0
N687 N 0.84383 0.72264 0.7304 0.0
C688 C 0.89607 0.72683 0.75238 0.0
C689 C 0.922 0.71391 0.77993 0.0
C690 C 0.74222 0.7334 0.98159 0.0
C691 C 0.68621 0.73279 0.00445 0.0
C692 C 0.78668 0.74548 0.99268 0.0
C693 C 0.77709 0.7575 0.02708 0.0
H694 H 0.75209 0.72445 0.95488 0.0
H695 H 0.82879 0.74542 0.97369 0.0
S696 S 0.63865 0.76118 0.09815 0.0
N697 N 0.62384 0.7452 0.06381 0.0
N698 N 0.70751 0.76789 0.0845 0.0
C699 C 0.7214 0.75703 0.05045 0.0
C700 C 0.67598 0.7447 0.03915 0.0
C701 C 0.28499 0.5015 0.79807 0.0
C702 C 0.22571 0.50134 0.7801 0.0
C703 C 0.32995 0.49044 0.78206 0.0
C704 C 0.31765 0.4787 0.74741 0.0
H705 H 0.29717 0.51035 0.82452 0.0
H706 H 0.37472 0.4911 0.79729 0.0
S707 S 0.16945 0.47294 0.689 0.0
N708 N 0.15689 0.48827 0.72575 0.0
N709 N 0.24146 0.46752 0.69575 0.0
C710 C 0.25847 0.47831 0.72922 0.0
C711 C 0.21254 0.48959 0.74556 0.0
C712 C 0.28237 0.75399 0.49511 0.0
C713 C 0.26229 0.76659 0.52535 0.0
C714 C 0.24604 0.73988 0.48454 0.0
C715 C 0.18804 0.73772 0.5038 0.0
H716 H 0.32664 0.75498 0.47922 0.0
H717 H 0.26391 0.73056 0.4612 0.0
S718 S 0.11366 0.76709 0.58499 0.0
N719 N 0.18026 0.776 0.57438 0.0
N720 N 0.1119 0.74951 0.55464 0.0
C721 C 0.16716 0.75025 0.53406 0.0
C722 C 0.20426 0.76465 0.5448 0.0
C723 C 0.06432 0.47883 0.48707 0.0
C724 C 0.01676 0.47908 0.51883 0.0
C725 C 0.08701 0.49387 0.46817 0.0
C726 C 0.06274 0.50981 0.47992 0.0
H727 H 0.08451 0.4669 0.4767 0.0
H728 H 0.12419 0.49296 0.44436 0.0
S729 S 0.9363 0.51749 0.5606 0.0
N730 N 0.94544 0.4967 0.56069 0.0
N731 N 0.98729 0.52486 0.52489 0.0
C732 C 0.01454 0.51024 0.51123 0.0
C733 C 0.99186 0.49493 0.53079 0.0
C734 C 0.78487 0.50744 0.31397 0.0
C735 C 0.75858 0.5219 0.29473 0.0
C736 C 0.8093 0.49454 0.2869 0.0
C737 C 0.80674 0.49544 0.23963 0.0
H738 H 0.78692 0.50615 0.35013 0.0
H739 H 0.82938 0.48363 0.30326 0.0
S740 S 0.73889 0.53029 0.17306 0.0
N741 N 0.72961 0.53627 0.2258 0.0
N742 N 0.77417 0.51182 0.175 0.0
C743 C 0.77963 0.50975 0.22008 0.0
C744 C 0.75591 0.52303 0.24762 0.0
C745 C 0.78941 0.249 0.55526 0.0
C746 C 0.77007 0.26532 0.54248 0.0
C747 C 0.76362 0.23434 0.5363 0.0
C748 C 0.71745 0.23535 0.50364 0.0
H749 H 0.82549 0.24747 0.57972 0.0
H750 H 0.78033 0.22212 0.5474 0.0
S751 S 0.64942 0.27503 0.45892 0.0
N752 N 0.70076 0.2816 0.49558 0.0
N753 N 0.65264 0.25409 0.45979 0.0
C754 C 0.69698 0.25159 0.49092 0.0
C755 C 0.72308 0.26654 0.51042 0.0
C756 C 0.40852 0.23292 0.7838 0.0
C757 C 0.43914 0.24812 0.77324 0.0
C758 C 0.43737 0.22007 0.80832 0.0
C759 C 0.49732 0.22214 0.82422 0.0
H760 H 0.36223 0.23081 0.77236 0.0
H761 H 0.41263 0.20839 0.81464 0.0
S762 S 0.59617 0.25999 0.80752 0.0
N763 N 0.532 0.26475 0.78158 0.0
N764 N 0.58587 0.2408 0.82843 0.0
C765 C 0.52786 0.23749 0.81488 0.0
C766 C 0.49891 0.25041 0.78913 0.0
C767 C 0.51034 0.00665 0.45374 0.0
C768 C 0.50477 0.02248 0.47543 0.0
C769 C 0.48533 0.9919 0.4724 0.0
C770 C 0.45351 0.9924 0.51338 0.0
H771 H 0.534 0.00562 0.42194 0.0
H772 H 0.48977 0.98008 0.45392 0.0
S773 S 0.43048 0.03026 0.58578 0.0
N774 N 0.46813 0.03751 0.54183 0.0
N775 N 0.42059 0.00976 0.57641 0.0
C776 C 0.44851 0.00803 0.53592 0.0
C777 C 0.47423 0.02307 0.51707 0.0
C778 C 0.4944 0.74356 0.22868 0.0
C779 C 0.53869 0.7451 0.26258 0.0
C780 C 0.47027 0.75792 0.20755 0.0
C781 C 0.48973 0.77442 0.21922 0.0
H782 H 0.47774 0.73116 0.21852 0.0
H783 H 0.43537 0.75602 0.1823 0.0
S784 S 0.6081 0.78537 0.30376 0.0
N785 N 0.60316 0.76447 0.3055 0.0
N786 N 0.55841 0.79138 0.26546 0.0
C787 C 0.53526 0.77613 0.25223 0.0
C788 C 0.55945 0.76151 0.27405 0.0
C789 C 0.51597 0.48566 0.0732 0.0
C790 C 0.5261 0.47089 0.04757 0.0
C791 C 0.53 0.50181 0.05638 0.0
C792 C 0.55466 0.5039 0.01311 0.0
H793 H 0.49614 0.48481 0.10643 0.0
H794 H 0.52119 0.51273 0.07761 0.0
S795 S 0.58991 0.46929 0.93206 0.0
N796 N 0.56267 0.4594 0.97652 0.0
N797 N 0.58895 0.4897 0.94492 0.0
C798 C 0.56575 0.48922 0.98722 0.0
C799 C 0.55163 0.47274 0.00445 0.0
C800 C 0.14325 0.1372 0.32403 0.0
C801 C 0.09708 0.14721 0.30477 0.0
C802 C 0.14622 0.1197 0.3163 0.0
C803 C 0.10283 0.11142 0.28932 0.0
H804 H 0.17715 0.14288 0.34589 0.0
H805 H 0.18165 0.11251 0.33292 0.0
S806 S 0.97708 0.13201 0.22665 0.0
N807 N 0.00984 0.14774 0.2545 0.0
N808 N 0.01542 0.11473 0.24006 0.0
C809 C 0.05745 0.12129 0.26871 0.0
C810 C 0.0545 0.13921 0.27647 0.0
C811 C 0.06519 0.12875 0.91532 0.0
C812 C 0.11469 0.14018 0.91425 0.0
C813 C 0.07359 0.11128 0.91035 0.0
C814 C 0.1318 0.10441 0.90335 0.0
H815 H 0.01902 0.13325 0.91929 0.0
H816 H 0.03374 0.10313 0.91153 0.0
S817 S 0.27669 0.12881 0.89501 0.0
N818 N 0.22425 0.14337 0.90477 0.0
N819 N 0.23997 0.11049 0.89363 0.0
C820 C 0.18192 0.11565 0.90161 0.0
C821 C 0.17339 0.13352 0.90743 0.0
C822 C 0.78183 0.85669 0.66276 0.0
C823 C 0.83986 0.86429 0.66019 0.0
C824 C 0.77483 0.83901 0.66398 0.0
C825 C 0.82557 0.8281 0.66338 0.0
H826 H 0.74107 0.86443 0.66294 0.0
H827 H 0.72902 0.83391 0.66501 0.0
S828 S 0.98786 0.84142 0.65704 0.0
N829 N 0.9493 0.85939 0.65662 0.0
N830 N 0.93618 0.82622 0.66044 0.0
C831 C 0.88401 0.8355 0.66148 0.0
C832 C 0.89114 0.85354 0.65956 0.0
C833 C 0.82526 0.88233 0.04454 0.0
C834 C 0.87948 0.89194 0.04503 0.0
C835 C 0.82607 0.8646 0.04677 0.0
C836 C 0.88113 0.85567 0.05039 0.0
H837 H 0.78138 0.88844 0.04302 0.0
H838 H 0.78287 0.8579 0.04641 0.0
S839 S 0.0362 0.8748 0.05559 0.0
N840 N 0.99006 0.89118 0.05004 0.0
N841 N 0.99172 0.85786 0.05607 0.0
C842 C 0.93594 0.86508 0.05127 0.0
C843 C 0.93508 0.8832 0.04818 0.0
C844 C 0.08614 0.6078 0.82838 0.0
C845 C 0.14059 0.59884 0.83612 0.0
C846 C 0.08329 0.62546 0.83292 0.0
C847 C 0.13462 0.63494 0.84594 0.0
H848 H 0.0447 0.60121 0.81946 0.0
H849 H 0.04008 0.63167 0.82677 0.0
S850 S 0.28816 0.61763 0.87185 0.0
N851 N 0.24729 0.60082 0.8576 0.0
N852 N 0.24169 0.634 0.86762 0.0
C853 C 0.18966 0.6262 0.85369 0.0
C854 C 0.19271 0.60817 0.8484 0.0
C855 C 0.19565 0.62893 0.45775 0.0
C856 C 0.13765 0.63627 0.45371 0.0
C857 C 0.20381 0.61137 0.45374 0.0
C858 C 0.15423 0.60032 0.44628 0.0
H859 H 0.23555 0.63681 0.46315 0.0
H860 H 0.24978 0.60657 0.4558 0.0
S861 S 0.99259 0.61304 0.43229 0.0
N862 N 0.02955 0.63107 0.44045 0.0
N863 N 0.04477 0.59801 0.43484 0.0
C864 C 0.09572 0.60743 0.4428 0.0
C865 C 0.08745 0.62539 0.4461 0.0
C866 C 0.8939 0.36998 0.16893 0.0
C867 C 0.84882 0.36259 0.19608 0.0
C868 C 0.90029 0.38761 0.16615 0.0
C869 C 0.86203 0.3986 0.19058 0.0
H870 H 0.92376 0.36207 0.14882 0.0
H871 H 0.9355 0.39268 0.14443 0.0
S872 S 0.74168 0.38562 0.27089 0.0
N873 N 0.76855 0.36756 0.25077 0.0
N874 N 0.78036 0.40081 0.2454 0.0
C875 C 0.81756 0.39141 0.21868 0.0
C876 C 0.81106 0.37337 0.2215 0.0
C877 C 0.863 0.36103 0.5876 0.0
C878 C 0.91803 0.35208 0.58388 0.0
C879 C 0.86214 0.37877 0.58936 0.0
C880 C 0.91613 0.38844 0.58641 0.0
H881 H 0.81995 0.35431 0.58986 0.0
H882 H 0.81843 0.38484 0.59363 0.0
S883 S 0.07308 0.37124 0.57903 0.0
N884 N 0.02876 0.35427 0.58015 0.0
N885 N 0.02665 0.38768 0.58115 0.0
C886 C 0.97169 0.3797 0.58287 0.0
C887 C 0.97274 0.36153 0.58205 0.0
C888 C 0.64216 0.09412 0.80578 0.0
C889 C 0.59219 0.08346 0.8149 0.0
C890 C 0.63724 0.11183 0.80903 0.0
C891 C 0.58201 0.1197 0.82106 0.0
H892 H 0.68575 0.08878 0.79622 0.0
H893 H 0.67743 0.11932 0.8022 0.0
S894 S 0.43757 0.09758 0.84974 0.0
N895 N 0.48568 0.08212 0.83784 0.0
N896 N 0.47623 0.11539 0.84273 0.0
C897 C 0.53137 0.10922 0.82985 0.0
C898 C 0.53653 0.09113 0.82712 0.0
C899 C 0.56713 0.13529 0.44474 0.0
C900 C 0.61681 0.14585 0.43396 0.0
C901 C 0.57067 0.11762 0.44022 0.0
C902 C 0.62398 0.10976 0.42442 0.0
H903 H 0.5249 0.14061 0.45674 0.0
H904 H 0.53096 0.1101 0.44884 0.0
S905 S 0.76698 0.13175 0.39073 0.0
N906 N 0.72122 0.1472 0.40698 0.0
N907 N 0.72773 0.11402 0.39734 0.0
C908 C 0.6744 0.12017 0.41386 0.0
C909 C 0.67089 0.13819 0.41898 0.0
C910 C 0.41535 0.8869 0.17839 0.0
C911 C 0.36372 0.89701 0.17026 0.0
C912 C 0.4118 0.86915 0.17825 0.0
C913 C 0.35656 0.86069 0.16946 0.0
H914 H 0.45939 0.89264 0.18429 0.0
H915 H 0.45314 0.86203 0.18438 0.0
S916 S 0.20779 0.88121 0.14516 0.0
N917 N 0.25526 0.89722 0.15342 0.0
N918 N 0.24877 0.86385 0.1518 0.0
C919 C 0.30425 0.87062 0.16161 0.0
C920 C 0.30778 0.88876 0.16235 0.0
C921 C 0.27961 0.89383 0.55067 0.0
C922 C 0.33111 0.90393 0.56026 0.0
C923 C 0.28266 0.87605 0.55122 0.0
C924 C 0.33719 0.8676 0.5618 0.0
H925 H 0.23624 0.89966 0.54305 0.0
H926 H 0.2416 0.8689 0.54383 0.0
S927 S 0.4848 0.88815 0.5911 0.0
N928 N 0.43836 0.90413 0.58095 0.0
N929 N 0.44373 0.87081 0.58334 0.0
C930 C 0.38911 0.87755 0.5715 0.0
C931 C 0.38616 0.89566 0.5704 0.0
C932 C 0.61766 0.6494 0.32704 0.0
C933 C 0.66682 0.65887 0.34444 0.0
C934 C 0.62116 0.6317 0.32224 0.0
C935 C 0.67417 0.62277 0.33415 0.0
H936 H 0.57606 0.65569 0.31683 0.0
H937 H 0.58203 0.62503 0.30886 0.0
S938 S 0.81488 0.64136 0.38321 0.0
N939 N 0.7695 0.65777 0.37541 0.0
N940 N 0.77648 0.62463 0.36506 0.0
C941 C 0.7238 0.63205 0.35137 0.0
C942 C 0.71999 0.65004 0.35692 0.0
C943 C 0.65369 0.62663 0.93695 0.0
C944 C 0.60051 0.63404 0.95456 0.0
C945 C 0.6577 0.60911 0.9295 0.0
C946 C 0.60922 0.59809 0.94021 0.0
H947 H 0.69239 0.63447 0.92781 0.0
H948 H 0.69932 0.60425 0.91489 0.0
S949 S 0.45973 0.61086 0.98766 0.0
N950 N 0.4977 0.62886 0.98206 0.0
N951 N 0.50614 0.59585 0.96964 0.0
C952 C 0.55573 0.60525 0.95801 0.0
C953 C 0.55121 0.62321 0.96487 0.0
C954 C 0.36921 0.3737 0.71932 0.0
C955 C 0.4218 0.38245 0.70548 0.0
C956 C 0.36703 0.35595 0.71921 0.0
C957 C 0.41708 0.34621 0.70496 0.0
H958 H 0.32893 0.3806 0.72976 0.0
H959 H 0.32563 0.34991 0.73042 0.0
S960 S 0.56714 0.36277 0.66817 0.0
N961 N 0.52668 0.37994 0.6793 0.0
N962 N 0.52203 0.34648 0.67918 0.0
C963 C 0.47097 0.3547 0.69306 0.0
C964 C 0.47339 0.37285 0.69315 0.0
C965 C 0.43975 0.36989 0.08583 0.0
C966 C 0.38925 0.38037 0.09459 0.0
C967 C 0.43401 0.3521 0.08536 0.0
C968 C 0.37743 0.34412 0.09314 0.0
H969 H 0.48413 0.37543 0.07942 0.0
H970 H 0.47423 0.3446 0.07865 0.0
S971 S 0.23198 0.36568 0.12115 0.0
N972 N 0.28141 0.38127 0.11421 0.0
N973 N 0.27054 0.34806 0.11181 0.0
C974 C 0.32673 0.35444 0.10225 0.0
C975 C 0.33266 0.37249 0.10336 0.0
C976 C 0.92731 0.03397 0.36691 0.0
C977 C 0.9177 0.03473 0.32023 0.0
C978 C 0.87789 0.03454 0.39671 0.0
C979 C 0.81777 0.0353 0.38055 0.0
H980 H 0.97267 0.03573 0.38058 0.0
H981 H 0.88702 0.03667 0.43204 0.0
S982 S 0.76951 0.03107 0.26178 0.0
N983 N 0.84472 0.03177 0.25964 0.0
N984 N 0.75157 0.0319 0.31559 0.0
C985 C 0.80795 0.03242 0.33445 0.0
C986 C 0.85825 0.03236 0.30412 0.0
C987 C 0.29297 0.2187 0.40102 0.0
C988 C 0.30099 0.21812 0.35417 0.0
C989 C 0.34333 0.21798 0.42997 0.0
C990 C 0.40293 0.21731 0.41278 0.0
H991 H 0.24794 0.21697 0.41531 0.0
H992 H 0.33535 0.21575 0.46536 0.0
S993 S 0.44748 0.22082 0.29319 0.0
N994 N 0.3722 0.22043 0.29234 0.0
N995 N 0.46708 0.22019 0.34669 0.0
C996 C 0.41128 0.22 0.36652 0.0
C997 C 0.36003 0.22012 0.33705 0.0
C998 C 0.81857 0.20198 0.84882 0.0
C999 C 0.76406 0.19711 0.86997 0.0
C1000 C 0.87161 0.20495 0.87396 0.0
C1001 C 0.87203 0.20237 0.9207 0.0
H1002 H 0.82197 0.2016 0.81255 0.0
H1003 H 0.91412 0.2066 0.85593 0.0
S1004 S 0.73778 0.1939 0.99246 0.0
N1005 N 0.71051 0.19369 0.94077 0.0
N1006 N 0.81122 0.19824 0.98773 0.0
C1007 C 0.81598 0.20007 0.94254 0.0
C1008 C 0.76157 0.19761 0.91709 0.0
C1009 C 0.4032 0.03405 0.88555 0.0
C1010 C 0.34113 0.03156 0.87541 0.0
C1011 C 0.44885 0.0284 0.85624 0.0
C1012 C 0.43378 0.02036 0.81551 0.0
H1013 H 0.41651 0.04139 0.9148 0.0
H1014 H 0.49588 0.03144 0.86398 0.0
S1015 S 0.27974 0.00828 0.77631 0.0
N1016 N 0.26799 0.01821 0.82444 0.0
N1017 N 0.35431 0.00831 0.76883 0.0
C1018 C 0.37272 0.01652 0.8067 0.0
C1019 C 0.32618 0.02188 0.83693 0.0
C1020 C 0.14816 0.94957 0.60895 0.0
C1021 C 0.1344 0.95792 0.56856 0.0
C1022 C 0.10306 0.94061 0.6325 0.0
C1023 C 0.04252 0.93992 0.61685 0.0
H1024 H 0.19467 0.94917 0.62111 0.0
H1025 H 0.11618 0.93369 0.66234 0.0
S1026 S 0.98305 0.96107 0.51451 0.0
N1027 N 0.0564 0.96581 0.5151 0.0
N1028 N 0.97088 0.94948 0.55974 0.0
C1029 C 0.02775 0.94914 0.57783 0.0
C1030 C 0.07396 0.95796 0.55352 0.0
C1031 C 0.55498 0.77696 0.67005 0.0
C1032 C 0.61646 0.77588 0.6574 0.0
C1033 C 0.51165 0.78426 0.64149 0.0
C1034 C 0.52881 0.79124 0.59989 0.0
H1035 H 0.54075 0.77277 0.70305 0.0
H1036 H 0.46535 0.7856 0.65364 0.0
S1037 S 0.68336 0.79031 0.54967 0.0
N1038 N 0.69156 0.78098 0.59886 0.0
N1039 N 0.61057 0.79545 0.54604 0.0
C1040 C 0.58962 0.78946 0.5859 0.0
C1041 C 0.63341 0.7816 0.61448 0.0
C1042 C 0.17528 0.7805 0.09741 0.0
C1043 C 0.16692 0.78337 0.14366 0.0
C1044 C 0.12495 0.77914 0.06859 0.0
C1045 C 0.0652 0.78021 0.08549 0.0
H1046 H 0.22003 0.78201 0.0825 0.0
H1047 H 0.13282 0.77971 0.03271 0.0
S1048 S 0.02107 0.78115 0.20563 0.0
N1049 N 0.09617 0.78268 0.20608 0.0
N1050 N 0.00147 0.77922 0.15233 0.0
C1051 C 0.05717 0.77937 0.13234 0.0
C1052 C 0.1083 0.78127 0.1615 0.0
C1053 C 0.61863 0.96707 0.05725 0.0
C1054 C 0.67863 0.96556 0.07314 0.0
C1055 C 0.56948 0.96816 0.08724 0.0
C1056 C 0.579 0.96709 0.1339 0.0
H1057 H 0.60907 0.96526 0.02187 0.0
H1058 H 0.52378 0.96718 0.07365 0.0
S1059 S 0.72798 0.96762 0.19201 0.0
N1060 N 0.7455 0.96713 0.13808 0.0
N1061 N 0.65276 0.9681 0.19439 0.0
C1062 C 0.63893 0.96822 0.14995 0.0
C1063 C 0.68902 0.96773 0.11942 0.0
C1064 C 0.88479 0.52419 0.83749 0.0
C1065 C 0.94299 0.52575 0.85688 0.0
C1066 C 0.83208 0.52578 0.86385 0.0
C1067 C 0.83639 0.52935 0.91004 0.0
H1068 H 0.87998 0.52412 0.80129 0.0
H1069 H 0.78848 0.52669 0.84695 0.0
S1070 S 0.97715 0.52988 0.97825 0.0
N1071 N 0.00115 0.52687 0.92627 0.0
N1072 N 0.90204 0.53079 0.9753 0.0
C1073 C 0.89362 0.52826 0.9306 0.0
C1074 C 0.94714 0.52608 0.90401 0.0
C1075 C 0.36122 0.71581 0.87585 0.0
C1076 C 0.30192 0.71293 0.89204 0.0
C1077 C 0.41161 0.71472 0.90463 0.0
C1078 C 0.40386 0.71028 0.95006 0.0
H1079 H 0.36936 0.71637 0.84 0.0
H1080 H 0.45661 0.71469 0.88963 0.0
S1081 S 0.25732 0.70778 0.01119 0.0
N1082 N 0.23767 0.71071 0.95827 0.0
N1083 N 0.33261 0.70786 0.01197 0.0
C1084 C 0.34472 0.7107 0.96791 0.0
C1085 C 0.29343 0.71232 0.93882 0.0
C1086 C 0.94235 0.71656 0.3903 0.0
C1087 C 0.92597 0.70824 0.43034 0.0
C1088 C 0.89786 0.72224 0.36023 0.0
C1089 C 0.83567 0.72031 0.36985 0.0
H1090 H 0.98969 0.71739 0.38018 0.0
H1091 H 0.91218 0.72745 0.32829 0.0
S1092 S 0.76897 0.70168 0.47302 0.0
N1093 N 0.84336 0.69982 0.47991 0.0
N1094 N 0.75965 0.7112 0.42421 0.0
C1095 C 0.81863 0.71341 0.4115 0.0
C1096 C 0.86389 0.70723 0.44163 0.0
C1097 C 0.43501 0.54068 0.33899 0.0
C1098 C 0.49231 0.54384 0.35844 0.0
C1099 C 0.38441 0.53664 0.36577 0.0
C1100 C 0.38927 0.53639 0.4129 0.0
H1101 H 0.42779 0.54322 0.30367 0.0
H1102 H 0.33992 0.53639 0.34998 0.0
S1103 S 0.53184 0.5396 0.47876 0.0
N1104 N 0.55355 0.54266 0.4263 0.0
N1105 N 0.45759 0.5361 0.4768 0.0
C1106 C 0.44778 0.53699 0.43185 0.0
C1107 C 0.49966 0.54055 0.40447 0.0
C1108 C 0.16429 0.45912 0.19493 0.0
C1109 C 0.10778 0.46092 0.17333 0.0
C1110 C 0.21851 0.4584 0.17004 0.0
C1111 C 0.21714 0.45881 0.12283 0.0
H1112 H 0.16588 0.4561 0.23037 0.0
H1113 H 0.25996 0.45483 0.18736 0.0
S1114 S 0.08284 0.46776 0.05181 0.0
N1115 N 0.05543 0.46704 0.10343 0.0
N1116 N 0.15702 0.46465 0.05646 0.0
C1117 C 0.16237 0.46323 0.10171 0.0
C1118 C 0.10751 0.46454 0.12717 0.0
C1119 C 0.64408 0.28266 0.12907 0.0
C1120 C 0.63174 0.29061 0.17054 0.0
C1121 C 0.59677 0.27746 0.10056 0.0
C1122 C 0.53557 0.27954 0.113 0.0
H1123 H 0.69041 0.28169 0.11676 0.0
H1124 H 0.60812 0.27251 0.06762 0.0
S1125 S 0.47883 0.2973 0.22063 0.0
N1126 N 0.55378 0.29871 0.22448 0.0
N1127 N 0.46484 0.28845 0.17135 0.0
C1128 C 0.52251 0.28609 0.15592 0.0
C1129 C 0.57067 0.29171 0.18463 0.0
C1130 C 0.16168 0.27545 0.57425 0.0
C1131 C 0.10204 0.27562 0.59164 0.0
C1132 C 0.2123 0.2754 0.60304 0.0
C1133 C 0.20446 0.27586 0.64987 0.0
H1134 H 0.16922 0.27772 0.53883 0.0
H1135 H 0.25698 0.27763 0.58864 0.0
S1136 S 0.05919 0.27116 0.71151 0.0
N1137 N 0.03902 0.27168 0.65812 0.0
N1138 N 0.13432 0.27253 0.71196 0.0
C1139 C 0.14597 0.27312 0.6672 0.0
C1140 C 0.0945 0.27266 0.63795 0.0
C1141 C 0.59641 0.45985 0.62224 0.0
C1142 C 0.60401 0.45937 0.66914 0.0
C1143 C 0.64719 0.45991 0.59359 0.0
C1144 C 0.70669 0.46005 0.6111 0.0
H1145 H 0.55197 0.45746 0.6076 0.0
H1146 H 0.63999 0.45754 0.55813 0.0
S1147 S 0.74905 0.4647 0.73094 0.0
N1148 N 0.67395 0.4631 0.73135 0.0
N1149 N 0.76937 0.46418 0.67756 0.0
C1150 C 0.71394 0.46302 0.6574 0.0
C1151 C 0.66238 0.46241 0.68658 0.0
loop_
_geom_bond_atom_site_label_1
_geom_bond_atom_site_label_2
_geom_bond_distance
_geom_bond_site_symmetry_2
_ccdc_geom_bond_type
Mg0 O1 2.028 . S
Mg0 O7 1.986 . S
Mg0 O9 2.114 . S
Mg0 O10 2.251 . S
Mg0 O13 2.010 . S
O1 Mg0 2.028 . S
O1 C4 1.250 . S
O2 Mg3 2.028 1_455 S
O2 C4 1.248 . S
Mg3 O2 2.028 1_655 S
Mg3 O8 2.032 . S
Mg3 O10 2.079 1_655 S
C4 O1 1.250 . S
C4 O2 1.248 . S
C5 O6 1.264 . S
C5 O13 1.249 . S
O6 C5 1.264 . S
O7 Mg0 1.986 . S
O7 C11 1.246 1_455 S
O8 Mg3 2.032 . S
O8 C11 1.259 . S
O9 Mg0 2.114 . S
O9 C12 1.252 . S
O10 Mg0 2.251 . S
O10 Mg3 2.079 1_455 S
O10 C12 1.273 . S
C11 O7 1.246 1_655 S
C11 O8 1.259 . S
C12 O9 1.252 . S
C12 O10 1.273 . S
O13 Mg0 2.010 . S
O13 C5 1.249 . S
Mg14 O15 2.028 . S
Mg14 O21 1.986 . S
Mg14 O23 2.114 . S
Mg14 O24 2.251 . S
Mg14 O27 2.010 . S
O15 Mg14 2.028 . S
O15 C18 1.250 . S
O16 Mg17 2.028 . S
O16 C18 1.248 . S
Mg17 O16 2.028 . S
Mg17 O22 2.032 . S
Mg17 O24 2.079 . S
C18 O15 1.250 . S
C18 O16 1.248 . S
C19 O20 1.264 . S
C19 O27 1.249 . S
O20 C19 1.264 . S
O21 Mg14 1.986 . S
O21 C25 1.246 . S
O22 Mg17 2.032 . S
O22 C25 1.259 . S
O23 Mg14 2.114 . S
O23 C26 1.252 . S
O24 Mg14 2.251 . S
O24 Mg17 2.079 . S
O24 C26 1.273 . S
C25 O21 1.246 . S
C25 O22 1.259 . S
C26 O23 1.252 . S
C26 O24 1.273 . S
O27 Mg14 2.010 . S
O27 C19 1.249 . S
Mg28 O29 2.028 1_556 S
Mg28 O35 1.986 . S
Mg28 O37 2.114 . S
Mg28 O38 2.251 . S
Mg28 O41 2.010 . S
O29 Mg28 2.028 1_554 S
O29 C32 1.250 . S
O30 Mg31 2.028 1_455 S
O30 C32 1.248 . S
Mg31 O30 2.028 1_655 S
Mg31 O36 2.032 1_554 S
Mg31 O38 2.079 1_654 S
C32 O29 1.250 . S
C32 O30 1.248 . S
C33 O34 1.264 . S
C33 O41 1.249 . S
O34 C33 1.264 . S
O35 Mg28 1.986 . S
O35 C39 1.246 1_455 S
O36 Mg31 2.032 1_556 S
O36 C39 1.259 . S
O37 Mg28 2.114 . S
O37 C40 1.252 . S
O38 Mg28 2.251 . S
O38 Mg31 2.079 1_456 S
O38 C40 1.273 . S
C39 O35 1.246 1_655 S
C39 O36 1.259 . S
C40 O37 1.252 . S
C40 O38 1.273 . S
O41 Mg28 2.010 . S
O41 C33 1.249 . S
Mg42 O43 2.028 1_556 S
Mg42 O49 1.986 . S
Mg42 O51 2.114 . S
Mg42 O52 2.251 . S
Mg42 O55 2.010 . S
O43 Mg42 2.028 1_554 S
O43 C46 1.250 . S
O44 Mg45 2.028 . S
O44 C46 1.248 . S
Mg45 O44 2.028 . S
Mg45 O50 2.032 1_554 S
Mg45 O52 2.079 1_554 S
C46 O43 1.250 . S
C46 O44 1.248 . S
C47 O48 1.264 . S
C47 O55 1.249 . S
O48 C47 1.264 . S
O49 Mg42 1.986 . S
O49 C53 1.246 . S
O50 Mg45 2.032 1_556 S
O50 C53 1.259 . S
O51 Mg42 2.114 . S
O51 C54 1.252 . S
O52 Mg42 2.251 . S
O52 Mg45 2.079 1_556 S
O52 C54 1.273 . S
C53 O49 1.246 . S
C53 O50 1.259 . S
C54 O51 1.252 . S
C54 O52 1.273 . S
O55 Mg42 2.010 . S
O55 C47 1.249 . S
Mg56 O57 2.028 . S
Mg56 O63 1.986 . S
Mg56 O65 2.114 . S
Mg56 O66 2.251 . S
Mg56 O69 2.010 . S
O57 Mg56 2.028 . S
O57 C60 1.250 . S
O58 Mg59 2.028 1_655 S
O58 C60 1.248 . S
Mg59 O58 2.028 1_455 S
Mg59 O64 2.032 . S
Mg59 O66 2.079 1_455 S
C60 O57 1.250 . S
C60 O58 1.248 . S
C61 O62 1.264 . S
C61 O69 1.249 . S
O62 C61 1.264 . S
O63 Mg56 1.986 . S
O63 C67 1.246 1_655 S
O64 Mg59 2.032 . S
O64 C67 1.259 . S
O65 Mg56 2.114 . S
O65 C68 1.252 . S
O66 Mg56 2.251 . S
O66 Mg59 2.079 1_655 S
O66 C68 1.273 . S
C67 O63 1.246 1_455 S
C67 O64 1.259 . S
C68 O65 1.252 . S
C68 O66 1.273 . S
O69 Mg56 2.010 . S
O69 C61 1.249 . S
Mg70 O71 2.028 . S
Mg70 O77 1.986 . S
Mg70 O79 2.114 . S
Mg70 O80 2.251 . S
Mg70 O83 2.010 . S
O71 Mg70 2.028 . S
O71 C74 1.250 . S
O72 Mg73 2.028 . S
O72 C74 1.248 . S
Mg73 O72 2.028 . S
Mg73 O78 2.032 . S
Mg73 O80 2.079 . S
C74 O71 1.250 . S
C74 O72 1.248 . S
C75 O76 1.264 . S
C75 O83 1.249 . S
O76 C75 1.264 . S
O77 Mg70 1.986 . S
O77 C81 1.246 . S
O78 Mg73 2.032 . S
O78 C81 1.259 . S
O79 Mg70 2.114 . S
O79 C82 1.252 . S
O80 Mg70 2.251 . S
O80 Mg73 2.079 . S
O80 C82 1.273 . S
C81 O77 1.246 . S
C81 O78 1.259 . S
C82 O79 1.252 . S
C82 O80 1.273 . S
O83 Mg70 2.010 . S
O83 C75 1.249 . S
Mg84 O85 2.028 1_554 S
Mg84 O91 1.986 . S
Mg84 O93 2.114 . S
Mg84 O94 2.251 . S
Mg84 O97 2.010 . S
O85 Mg84 2.028 1_556 S
O85 C88 1.250 . S
O86 Mg87 2.028 1_655 S
O86 C88 1.248 . S
Mg87 O86 2.028 1_455 S
Mg87 O92 2.032 1_556 S
Mg87 O94 2.079 1_456 S
C88 O85 1.250 . S
C88 O86 1.248 . S
C89 O90 1.264 . S
C89 O97 1.249 . S
O90 C89 1.264 . S
O91 Mg84 1.986 . S
O91 C95 1.246 1_655 S
O92 Mg87 2.032 1_554 S
O92 C95 1.259 . S
O93 Mg84 2.114 . S
O93 C96 1.252 . S
O94 Mg84 2.251 . S
O94 Mg87 2.079 1_654 S
O94 C96 1.273 . S
C95 O91 1.246 1_455 S
C95 O92 1.259 . S
C96 O93 1.252 . S
C96 O94 1.273 . S
O97 Mg84 2.010 . S
O97 C89 1.249 . S
Mg98 O99 2.028 1_554 S
Mg98 O105 1.986 . S
Mg98 O107 2.114 . S
Mg98 O108 2.251 . S
Mg98 O111 2.010 . S
O99 Mg98 2.028 1_556 S
O99 C102 1.250 . S
O100 Mg101 2.028 . S
O100 C102 1.248 . S
Mg101 O100 2.028 . S
Mg101 O106 2.032 1_556 S
Mg101 O108 2.079 1_556 S
C102 O99 1.250 . S
C102 O100 1.248 . S
C103 O104 1.264 . S
C103 O111 1.249 . S
O104 C103 1.264 . S
O105 Mg98 1.986 . S
O105 C109 1.246 . S
O106 Mg101 2.032 1_554 S
O106 C109 1.259 . S
O107 Mg98 2.114 . S
O107 C110 1.252 . S
O108 Mg98 2.251 . S
O108 Mg101 2.079 1_554 S
O108 C110 1.273 . S
C109 O105 1.246 . S
C109 O106 1.259 . S
C110 O107 1.252 . S
C110 O108 1.273 . S
O111 Mg98 2.010 . S
O111 C103 1.249 . S
Mg112 O113 2.028 . S
Mg112 O119 1.986 . S
Mg112 O121 2.114 . S
Mg112 O122 2.251 . S
Mg112 O125 2.010 . S
O113 Mg112 2.028 . S
O113 C116 1.250 . S
O114 Mg115 2.028 1_455 S
O114 C116 1.248 . S
Mg115 O114 2.028 1_655 S
Mg115 O120 2.032 . S
Mg115 O122 2.079 1_655 S
C116 O113 1.250 . S
C116 O114 1.248 . S
C117 O118 1.264 . S
C117 O125 1.249 . S
O118 C117 1.264 . S
O119 Mg112 1.986 . S
O119 C123 1.246 1_455 S
O120 Mg115 2.032 . S
O120 C123 1.259 . S
O121 Mg112 2.114 . S
O121 C124 1.252 . S
O122 Mg112 2.251 . S
O122 Mg115 2.079 1_455 S
O122 C124 1.273 . S
C123 O119 1.246 1_655 S
C123 O120 1.259 . S
C124 O121 1.252 . S
C124 O122 1.273 . S
O125 Mg112 2.010 . S
O125 C117 1.249 . S
Mg126 O127 2.028 . S
Mg126 O133 1.986 . S
Mg126 O135 2.114 . S
Mg126 O136 2.251 . S
Mg126 O139 2.010 . S
O127 Mg126 2.028 . S
O127 C130 1.250 . S
O128 Mg129 2.028 . S
O128 C130 1.248 . S
Mg129 O128 2.028 . S
Mg129 O134 2.032 . S
Mg129 O136 2.079 . S
C130 O127 1.250 . S
C130 O128 1.248 . S
C131 O132 1.264 . S
C131 O139 1.249 . S
O132 C131 1.264 . S
O133 Mg126 1.986 . S
O133 C137 1.246 . S
O134 Mg129 2.032 . S
O134 C137 1.259 . S
O135 Mg126 2.114 . S
O135 C138 1.252 . S
O136 Mg126 2.251 . S
O136 Mg129 2.079 . S
O136 C138 1.273 . S
C137 O133 1.246 . S
C137 O134 1.259 . S
C138 O135 1.252 . S
C138 O136 1.273 . S
O139 Mg126 2.010 . S
O139 C131 1.249 . S
Mg140 O141 2.028 . S
Mg140 O147 1.986 . S
Mg140 O149 2.114 . S
Mg140 O150 2.251 . S
Mg140 O153 2.010 . S
O141 Mg140 2.028 . S
O141 C144 1.250 . S
O142 Mg143 2.028 1_455 S
O142 C144 1.248 . S
Mg143 O142 2.028 1_655 S
Mg143 O148 2.032 . S
Mg143 O150 2.079 1_655 S
C144 O141 1.250 . S
C144 O142 1.248 . S
C145 O146 1.264 . S
C145 O153 1.249 . S
O146 C145 1.264 . S
O147 Mg140 1.986 . S
O147 C151 1.246 1_455 S
O148 Mg143 2.032 . S
O148 C151 1.259 . S
O149 Mg140 2.114 . S
O149 C152 1.252 . S
O150 Mg140 2.251 . S
O150 Mg143 2.079 1_455 S
O150 C152 1.273 . S
C151 O147 1.246 1_655 S
C151 O148 1.259 . S
C152 O149 1.252 . S
C152 O150 1.273 . S
O153 Mg140 2.010 . S
O153 C145 1.249 . S
Mg154 O155 2.028 . S
Mg154 O161 1.986 . S
Mg154 O163 2.114 . S
Mg154 O164 2.251 . S
Mg154 O167 2.010 . S
O155 Mg154 2.028 . S
O155 C158 1.250 . S
O156 Mg157 2.028 . S
O156 C158 1.248 . S
Mg157 O156 2.028 . S
Mg157 O162 2.032 . S
Mg157 O164 2.079 . S
C158 O155 1.250 . S
C158 O156 1.248 . S
C159 O160 1.264 . S
C159 O167 1.249 . S
O160 C159 1.264 . S
O161 Mg154 1.986 . S
O161 C165 1.246 . S
O162 Mg157 2.032 . S
O162 C165 1.259 . S
O163 Mg154 2.114 . S
O163 C166 1.252 . S
O164 Mg154 2.251 . S
O164 Mg157 2.079 . S
O164 C166 1.273 . S
C165 O161 1.246 . S
C165 O162 1.259 . S
C166 O163 1.252 . S
C166 O164 1.273 . S
O167 Mg154 2.010 . S
O167 C159 1.249 . S
Mg168 O169 2.028 . S
Mg168 O175 1.986 . S
Mg168 O177 2.114 . S
Mg168 O178 2.251 . S
Mg168 O181 2.010 . S
O169 Mg168 2.028 . S
O169 C172 1.250 . S
O170 Mg171 2.028 1_655 S
O170 C172 1.248 . S
Mg171 O170 2.028 1_455 S
Mg171 O176 2.032 . S
Mg171 O178 2.079 1_455 S
C172 O169 1.250 . S
C172 O170 1.248 . S
C173 O174 1.264 . S
C173 O181 1.249 . S
O174 C173 1.264 . S
O175 Mg168 1.986 . S
O175 C179 1.246 1_655 S
O176 Mg171 2.032 . S
O176 C179 1.259 . S
O177 Mg168 2.114 . S
O177 C180 1.252 . S
O178 Mg168 2.251 . S
O178 Mg171 2.079 1_655 S
O178 C180 1.273 . S
C179 O175 1.246 1_455 S
C179 O176 1.259 . S
C180 O177 1.252 . S
C180 O178 1.273 . S
O181 Mg168 2.010 . S
O181 C173 1.249 . S
Mg182 O183 2.028 . S
Mg182 O189 1.986 . S
Mg182 O191 2.114 . S
Mg182 O192 2.251 . S
Mg182 O195 2.010 . S
O183 Mg182 2.028 . S
O183 C186 1.250 . S
O184 Mg185 2.028 . S
O184 C186 1.248 . S
Mg185 O184 2.028 . S
Mg185 O190 2.032 . S
Mg185 O192 2.079 . S
C186 O183 1.250 . S
C186 O184 1.248 . S
C187 O188 1.264 . S
C187 O195 1.249 . S
O188 C187 1.264 . S
O189 Mg182 1.986 . S
O189 C193 1.246 . S
O190 Mg185 2.032 . S
O190 C193 1.259 . S
O191 Mg182 2.114 . S
O191 C194 1.252 . S
O192 Mg182 2.251 . S
O192 Mg185 2.079 . S
O192 C194 1.273 . S
C193 O189 1.246 . S
C193 O190 1.259 . S
C194 O191 1.252 . S
C194 O192 1.273 . S
O195 Mg182 2.010 . S
O195 C187 1.249 . S
Mg196 O197 2.028 . S
Mg196 O203 1.986 . S
Mg196 O205 2.114 . S
Mg196 O206 2.251 . S
Mg196 O209 2.010 . S
O197 Mg196 2.028 . S
O197 C200 1.250 . S
O198 Mg199 2.028 1_655 S
O198 C200 1.248 . S
Mg199 O198 2.028 1_455 S
Mg199 O204 2.032 . S
Mg199 O206 2.079 1_455 S
C200 O197 1.250 . S
C200 O198 1.248 . S
C201 O202 1.264 . S
C201 O209 1.249 . S
O202 C201 1.264 . S
O203 Mg196 1.986 . S
O203 C207 1.246 1_655 S
O204 Mg199 2.032 . S
O204 C207 1.259 . S
O205 Mg196 2.114 . S
O205 C208 1.252 . S
O206 Mg196 2.251 . S
O206 Mg199 2.079 1_655 S
O206 C208 1.273 . S
C207 O203 1.246 1_455 S
C207 O204 1.259 . S
C208 O205 1.252 . S
C208 O206 1.273 . S
O209 Mg196 2.010 . S
O209 C201 1.249 . S
Mg210 O211 2.028 . S
Mg210 O217 1.986 . S
Mg210 O219 2.114 . S
Mg210 O220 2.251 . S
Mg210 O223 2.010 . S
O211 Mg210 2.028 . S
O211 C214 1.250 . S
O212 Mg213 2.028 . S
O212 C214 1.248 . S
Mg213 O212 2.028 . S
Mg213 O218 2.032 . S
Mg213 O220 2.079 . S
C214 O211 1.250 . S
C214 O212 1.248 . S
C215 O216 1.264 . S
C215 O223 1.249 . S
O216 C215 1.264 . S
O217 Mg210 1.986 . S
O217 C221 1.246 . S
O218 Mg213 2.032 . S
O218 C221 1.259 . S
O219 Mg210 2.114 . S
O219 C222 1.252 . S
O220 Mg210 2.251 . S
O220 Mg213 2.079 . S
O220 C222 1.273 . S
C221 O217 1.246 . S
C221 O218 1.259 . S
C222 O219 1.252 . S
C222 O220 1.273 . S
O223 Mg210 2.010 . S
O223 C215 1.249 . S
Mg224 O225 2.028 . S
Mg224 O231 1.986 . S
Mg224 O233 2.114 . S
Mg224 O234 2.251 . S
Mg224 O237 2.010 . S
O225 Mg224 2.028 . S
O225 C228 1.250 . S
O226 Mg227 2.028 . S
O226 C228 1.248 . S
Mg227 O226 2.028 . S
Mg227 O232 2.032 . S
Mg227 O234 2.079 . S
C228 O225 1.250 . S
C228 O226 1.248 . S
C229 O230 1.264 . S
C229 O237 1.249 . S
O230 C229 1.264 . S
O231 Mg224 1.986 . S
O231 C235 1.246 . S
O232 Mg227 2.032 . S
O232 C235 1.259 . S
O233 Mg224 2.114 . S
O233 C236 1.252 . S
O234 Mg224 2.251 . S
O234 Mg227 2.079 . S
O234 C236 1.273 . S
C235 O231 1.246 . S
C235 O232 1.259 . S
C236 O233 1.252 . S
C236 O234 1.273 . S
O237 Mg224 2.010 . S
O237 C229 1.249 . S
Mg238 O239 2.028 . S
Mg238 O245 1.986 . S
Mg238 O247 2.114 . S
Mg238 O248 2.251 . S
Mg238 O251 2.010 . S
O239 Mg238 2.028 . S
O239 C242 1.250 . S
O240 Mg241 2.028 . S
O240 C242 1.248 . S
Mg241 O240 2.028 . S
Mg241 O246 2.032 . S
Mg241 O248 2.079 . S
C242 O239 1.250 . S
C242 O240 1.248 . S
C243 O244 1.264 . S
C243 O251 1.249 . S
O244 C243 1.264 . S
O245 Mg238 1.986 . S
O245 C249 1.246 . S
O246 Mg241 2.032 . S
O246 C249 1.259 . S
O247 Mg238 2.114 . S
O247 C250 1.252 . S
O248 Mg238 2.251 . S
O248 Mg241 2.079 . S
O248 C250 1.273 . S
C249 O245 1.246 . S
C249 O246 1.259 . S
C250 O247 1.252 . S
C250 O248 1.273 . S
O251 Mg238 2.010 . S
O251 C243 1.249 . S
Mg252 O253 2.028 . S
Mg252 O259 1.986 . S
Mg252 O261 2.114 . S
Mg252 O262 2.251 . S
Mg252 O265 2.010 . S
O253 Mg252 2.028 . S
O253 C256 1.250 . S
O254 Mg255 2.028 . S
O254 C256 1.248 . S
Mg255 O254 2.028 . S
Mg255 O260 2.032 . S
Mg255 O262 2.079 . S
C256 O253 1.250 . S
C256 O254 1.248 . S
C257 O258 1.264 . S
C257 O265 1.249 . S
O258 C257 1.264 . S
O259 Mg252 1.986 . S
O259 C263 1.246 . S
O260 Mg255 2.032 . S
O260 C263 1.259 . S
O261 Mg252 2.114 . S
O261 C264 1.252 . S
O262 Mg252 2.251 . S
O262 Mg255 2.079 . S
O262 C264 1.273 . S
C263 O259 1.246 . S
C263 O260 1.259 . S
C264 O261 1.252 . S
C264 O262 1.273 . S
O265 Mg252 2.010 . S
O265 C257 1.249 . S
Mg266 O267 2.028 . S
Mg266 O273 1.986 . S
Mg266 O275 2.114 . S
Mg266 O276 2.251 . S
Mg266 O279 2.010 . S
O267 Mg266 2.028 . S
O267 C270 1.250 . S
O268 Mg269 2.028 . S
O268 C270 1.248 . S
Mg269 O268 2.028 . S
Mg269 O274 2.032 . S
Mg269 O276 2.079 . S
C270 O267 1.250 . S
C270 O268 1.248 . S
C271 O272 1.264 . S
C271 O279 1.249 . S
O272 C271 1.264 . S
O273 Mg266 1.986 . S
O273 C277 1.246 . S
O274 Mg269 2.032 . S
O274 C277 1.259 . S
O275 Mg266 2.114 . S
O275 C278 1.252 . S
O276 Mg266 2.251 . S
O276 Mg269 2.079 . S
O276 C278 1.273 . S
C277 O273 1.246 . S
C277 O274 1.259 . S
C278 O275 1.252 . S
C278 O276 1.273 . S
O279 Mg266 2.010 . S
O279 C271 1.249 . S
Mg280 O281 2.028 . S
Mg280 O287 1.986 . S
Mg280 O289 2.114 . S
Mg280 O290 2.251 . S
Mg280 O293 2.010 . S
O281 Mg280 2.028 . S
O281 C284 1.250 . S
O282 Mg283 2.028 . S
O282 C284 1.248 . S
Mg283 O282 2.028 . S
Mg283 O288 2.032 . S
Mg283 O290 2.079 . S
C284 O281 1.250 . S
C284 O282 1.248 . S
C285 O286 1.264 . S
C285 O293 1.249 . S
O286 C285 1.264 . S
O287 Mg280 1.986 . S
O287 C291 1.246 . S
O288 Mg283 2.032 . S
O288 C291 1.259 . S
O289 Mg280 2.114 . S
O289 C292 1.252 . S
O290 Mg280 2.251 . S
O290 Mg283 2.079 . S
O290 C292 1.273 . S
C291 O287 1.246 . S
C291 O288 1.259 . S
C292 O289 1.252 . S
C292 O290 1.273 . S
O293 Mg280 2.010 . S
O293 C285 1.249 . S
Mg294 O295 2.028 . S
Mg294 O301 1.986 . S
Mg294 O303 2.114 . S
Mg294 O304 2.251 . S
Mg294 O307 2.010 . S
O295 Mg294 2.028 . S
O295 C298 1.250 . S
O296 Mg297 2.028 . S
O296 C298 1.248 . S
Mg297 O296 2.028 . S
Mg297 O302 2.032 . S
Mg297 O304 2.079 . S
C298 O295 1.250 . S
C298 O296 1.248 . S
C299 O300 1.264 . S
C299 O307 1.249 . S
O300 C299 1.264 . S
O301 Mg294 1.986 . S
O301 C305 1.246 . S
O302 Mg297 2.032 . S
O302 C305 1.259 . S
O303 Mg294 2.114 . S
O303 C306 1.252 . S
O304 Mg294 2.251 . S
O304 Mg297 2.079 . S
O304 C306 1.273 . S
C305 O301 1.246 . S
C305 O302 1.259 . S
C306 O303 1.252 . S
C306 O304 1.273 . S
O307 Mg294 2.010 . S
O307 C299 1.249 . S
Mg308 O309 2.028 . S
Mg308 O315 1.986 . S
Mg308 O317 2.114 . S
Mg308 O318 2.251 . S
Mg308 O321 2.010 . S
O309 Mg308 2.028 . S
O309 C312 1.250 . S
O310 Mg311 2.028 . S
O310 C312 1.248 . S
Mg311 O310 2.028 . S
Mg311 O316 2.032 . S
Mg311 O318 2.079 . S
C312 O309 1.250 . S
C312 O310 1.248 . S
C313 O314 1.264 . S
C313 O321 1.249 . S
O314 C313 1.264 . S
O315 Mg308 1.986 . S
O315 C319 1.246 . S
O316 Mg311 2.032 . S
O316 C319 1.259 . S
O317 Mg308 2.114 . S
O317 C320 1.252 . S
O318 Mg308 2.251 . S
O318 Mg311 2.079 . S
O318 C320 1.273 . S
C319 O315 1.246 . S
C319 O316 1.259 . S
C320 O317 1.252 . S
C320 O318 1.273 . S
O321 Mg308 2.010 . S
O321 C313 1.249 . S
Mg322 O323 2.028 . S
Mg322 O329 1.986 . S
Mg322 O331 2.114 . S
Mg322 O332 2.251 . S
Mg322 O335 2.010 . S
O323 Mg322 2.028 . S
O323 C326 1.250 . S
O324 Mg325 2.028 . S
O324 C326 1.248 . S
Mg325 O324 2.028 . S
Mg325 O330 2.032 . S
Mg325 O332 2.079 . S
C326 O323 1.250 . S
C326 O324 1.248 . S
C327 O328 1.264 . S
C327 O335 1.249 . S
O328 C327 1.264 . S
O329 Mg322 1.986 . S
O329 C333 1.246 . S
O330 Mg325 2.032 . S
O330 C333 1.259 . S
O331 Mg322 2.114 . S
O331 C334 1.252 . S
O332 Mg322 2.251 . S
O332 Mg325 2.079 . S
O332 C334 1.273 . S
C333 O329 1.246 . S
C333 O330 1.259 . S
C334 O331 1.252 . S
C334 O332 1.273 . S
O335 Mg322 2.010 . S
O335 C327 1.249 . S
Mg336 O337 2.028 . S
Mg336 O343 1.986 . S
Mg336 O345 2.114 . S
Mg336 O346 2.251 . S
Mg336 O349 2.010 . S
O337 Mg336 2.028 . S
O337 C340 1.250 . S
O338 Mg339 2.028 . S
O338 C340 1.248 . S
Mg339 O338 2.028 . S
Mg339 O344 2.032 . S
Mg339 O346 2.079 . S
C340 O337 1.250 . S
C340 O338 1.248 . S
C341 O342 1.264 . S
C341 O349 1.249 . S
O342 C341 1.264 . S
O343 Mg336 1.986 . S
O343 C347 1.246 . S
O344 Mg339 2.032 . S
O344 C347 1.259 . S
O345 Mg336 2.114 . S
O345 C348 1.252 . S
O346 Mg336 2.251 . S
O346 Mg339 2.079 . S
O346 C348 1.273 . S
C347 O343 1.246 . S
C347 O344 1.259 . S
C348 O345 1.252 . S
C348 O346 1.273 . S
O349 Mg336 2.010 . S
O349 C341 1.249 . S
Mg350 O351 2.028 . S
Mg350 O357 1.986 . S
Mg350 O359 2.114 . S
Mg350 O360 2.251 . S
Mg350 O363 2.010 . S
O351 Mg350 2.028 . S
O351 C354 1.250 . S
O352 Mg353 2.028 . S
O352 C354 1.248 . S
Mg353 O352 2.028 . S
Mg353 O358 2.032 . S
Mg353 O360 2.079 . S
C354 O351 1.250 . S
C354 O352 1.248 . S
C355 O356 1.264 . S
C355 O363 1.249 . S
O356 C355 1.264 . S
O357 Mg350 1.986 . S
O357 C361 1.246 . S
O358 Mg353 2.032 . S
O358 C361 1.259 . S
O359 Mg350 2.114 . S
O359 C362 1.252 . S
O360 Mg350 2.251 . S
O360 Mg353 2.079 . S
O360 C362 1.273 . S
C361 O357 1.246 . S
C361 O358 1.259 . S
C362 O359 1.252 . S
C362 O360 1.273 . S
O363 Mg350 2.010 . S
O363 C355 1.249 . S
Mg364 O365 2.028 1_556 S
Mg364 O371 1.986 . S
Mg364 O373 2.114 . S
Mg364 O374 2.251 . S
Mg364 O377 2.010 . S
O365 Mg364 2.028 1_554 S
O365 C368 1.250 . S
O366 Mg367 2.028 . S
O366 C368 1.248 . S
Mg367 O366 2.028 . S
Mg367 O372 2.032 1_554 S
Mg367 O374 2.079 1_554 S
C368 O365 1.250 . S
C368 O366 1.248 . S
C369 O370 1.264 . S
C369 O377 1.249 . S
O370 C369 1.264 . S
O371 Mg364 1.986 . S
O371 C375 1.246 . S
O372 Mg367 2.032 1_556 S
O372 C375 1.259 . S
O373 Mg364 2.114 . S
O373 C376 1.252 . S
O374 Mg364 2.251 . S
O374 Mg367 2.079 1_556 S
O374 C376 1.273 . S
C375 O371 1.246 . S
C375 O372 1.259 . S
C376 O373 1.252 . S
C376 O374 1.273 . S
O377 Mg364 2.010 . S
O377 C369 1.249 . S
Mg378 O379 2.028 1_556 S
Mg378 O385 1.986 . S
Mg378 O387 2.114 . S
Mg378 O388 2.251 . S
Mg378 O391 2.010 . S
O379 Mg378 2.028 1_554 S
O379 C382 1.250 . S
O380 Mg381 2.028 . S
O380 C382 1.248 . S
Mg381 O380 2.028 . S
Mg381 O386 2.032 1_554 S
Mg381 O388 2.079 1_554 S
C382 O379 1.250 . S
C382 O380 1.248 . S
C383 O384 1.264 . S
C383 O391 1.249 . S
O384 C383 1.264 . S
O385 Mg378 1.986 . S
O385 C389 1.246 . S
O386 Mg381 2.032 1_556 S
O386 C389 1.259 . S
O387 Mg378 2.114 . S
O387 C390 1.252 . S
O388 Mg378 2.251 . S
O388 Mg381 2.079 1_556 S
O388 C390 1.273 . S
C389 O385 1.246 . S
C389 O386 1.259 . S
C390 O387 1.252 . S
C390 O388 1.273 . S
O391 Mg378 2.010 . S
O391 C383 1.249 . S
Mg392 O393 2.028 . S
Mg392 O399 1.986 . S
Mg392 O401 2.114 . S
Mg392 O402 2.251 . S
Mg392 O405 2.010 . S
O393 Mg392 2.028 . S
O393 C396 1.250 . S
O394 Mg395 2.028 . S
O394 C396 1.248 . S
Mg395 O394 2.028 . S
Mg395 O400 2.032 . S
Mg395 O402 2.079 . S
C396 O393 1.250 . S
C396 O394 1.248 . S
C397 O398 1.264 . S
C397 O405 1.249 . S
O398 C397 1.264 . S
O399 Mg392 1.986 . S
O399 C403 1.246 . S
O400 Mg395 2.032 . S
O400 C403 1.259 . S
O401 Mg392 2.114 . S
O401 C404 1.252 . S
O402 Mg392 2.251 . S
O402 Mg395 2.079 . S
O402 C404 1.273 . S
C403 O399 1.246 . S
C403 O400 1.259 . S
C404 O401 1.252 . S
C404 O402 1.273 . S
O405 Mg392 2.010 . S
O405 C397 1.249 . S
Mg406 O407 2.028 . S
Mg406 O413 1.986 . S
Mg406 O415 2.114 . S
Mg406 O416 2.251 . S
Mg406 O419 2.010 . S
O407 Mg406 2.028 . S
O407 C410 1.250 . S
O408 Mg409 2.028 . S
O408 C410 1.248 . S
Mg409 O408 2.028 . S
Mg409 O414 2.032 . S
Mg409 O416 2.079 . S
C410 O407 1.250 . S
C410 O408 1.248 . S
C411 O412 1.264 . S
C411 O419 1.249 . S
O412 C411 1.264 . S
O413 Mg406 1.986 . S
O413 C417 1.246 . S
O414 Mg409 2.032 . S
O414 C417 1.259 . S
O415 Mg406 2.114 . S
O415 C418 1.252 . S
O416 Mg406 2.251 . S
O416 Mg409 2.079 . S
O416 C418 1.273 . S
C417 O413 1.246 . S
C417 O414 1.259 . S
C418 O415 1.252 . S
C418 O416 1.273 . S
O419 Mg406 2.010 . S
O419 C411 1.249 . S
Mg420 O421 2.028 1_554 S
Mg420 O427 1.986 . S
Mg420 O429 2.114 . S
Mg420 O430 2.251 . S
Mg420 O433 2.010 . S
O421 Mg420 2.028 1_556 S
O421 C424 1.250 . S
O422 Mg423 2.028 . S
O422 C424 1.248 . S
Mg423 O422 2.028 . S
Mg423 O428 2.032 1_556 S
Mg423 O430 2.079 1_556 S
C424 O421 1.250 . S
C424 O422 1.248 . S
C425 O426 1.264 . S
C425 O433 1.249 . S
O426 C425 1.264 . S
O427 Mg420 1.986 . S
O427 C431 1.246 . S
O428 Mg423 2.032 1_554 S
O428 C431 1.259 . S
O429 Mg420 2.114 . S
O429 C432 1.252 . S
O430 Mg420 2.251 . S
O430 Mg423 2.079 1_554 S
O430 C432 1.273 . S
C431 O427 1.246 . S
C431 O428 1.259 . S
C432 O429 1.252 . S
C432 O430 1.273 . S
O433 Mg420 2.010 . S
O433 C425 1.249 . S
Mg434 O435 2.028 1_554 S
Mg434 O441 1.986 . S
Mg434 O443 2.114 . S
Mg434 O444 2.251 . S
Mg434 O447 2.010 . S
O435 Mg434 2.028 1_556 S
O435 C438 1.250 . S
O436 Mg437 2.028 . S
O436 C438 1.248 . S
Mg437 O436 2.028 . S
Mg437 O442 2.032 1_556 S
Mg437 O444 2.079 1_556 S
C438 O435 1.250 . S
C438 O436 1.248 . S
C439 O440 1.264 . S
C439 O447 1.249 . S
O440 C439 1.264 . S
O441 Mg434 1.986 . S
O441 C445 1.246 . S
O442 Mg437 2.032 1_554 S
O442 C445 1.259 . S
O443 Mg434 2.114 . S
O443 C446 1.252 . S
O444 Mg434 2.251 . S
O444 Mg437 2.079 1_554 S
O444 C446 1.273 . S
C445 O441 1.246 . S
C445 O442 1.259 . S
C446 O443 1.252 . S
C446 O444 1.273 . S
O447 Mg434 2.010 . S
O447 C439 1.249 . S
C448 C449 1.369 . S
C448 C450 1.419 . S
C448 H452 0.930 . S
C449 C448 1.369 . S
C449 C458 1.429 . S
C450 C448 1.419 . S
C450 C451 1.363 . S
C450 H453 0.929 . S
C451 C450 1.363 . S
C451 C457 1.428 . S
H452 C448 0.930 . S
H453 C450 0.929 . S
S454 N455 1.613 . S
S454 N456 1.610 . S
N455 S454 1.613 . S
N455 C458 1.350 . S
N456 S454 1.610 . S
N456 C457 1.351 . S
C457 C451 1.428 . S
C457 N456 1.351 . S
C457 C458 1.434 . S
C458 C449 1.429 . S
C458 N455 1.350 . S
C458 C457 1.434 . S
C459 C460 1.369 . S
C459 C461 1.419 . S
C459 H463 0.930 . S
C460 C459 1.369 . S
C460 C469 1.429 . S
C461 C459 1.419 . S
C461 C462 1.363 . S
C461 H464 0.929 . S
C462 C461 1.363 . S
C462 C468 1.428 . S
H463 C459 0.930 . S
H464 C461 0.929 . S
S465 N466 1.613 . S
S465 N467 1.610 . S
N466 S465 1.613 . S
N466 C469 1.350 . S
N467 S465 1.610 . S
N467 C468 1.351 . S
C468 C462 1.428 . S
C468 N467 1.351 . S
C468 C469 1.434 . S
C469 C460 1.429 . S
C469 N466 1.350 . S
C469 C468 1.434 . S
C470 C471 1.369 . S
C470 C472 1.419 . S
C470 H474 0.930 . S
C471 C470 1.369 . S
C471 C480 1.429 . S
C472 C470 1.419 . S
C472 C473 1.363 . S
C472 H475 0.929 . S
C473 C472 1.363 . S
C473 C479 1.428 . S
H474 C470 0.930 . S
H475 C472 0.929 . S
S476 N477 1.613 . S
S476 N478 1.610 . S
N477 S476 1.613 . S
N477 C480 1.350 . S
N478 S476 1.610 . S
N478 C479 1.351 . S
C479 C473 1.428 . S
C479 N478 1.351 . S
C479 C480 1.434 . S
C480 C471 1.429 . S
C480 N477 1.350 . S
C480 C479 1.434 . S
C481 C482 1.369 . S
C481 C483 1.419 . S
C481 H485 0.930 . S
C482 C481 1.369 . S
C482 C491 1.429 . S
C483 C481 1.419 . S
C483 C484 1.363 . S
C483 H486 0.929 . S
C484 C483 1.363 . S
C484 C490 1.428 . S
H485 C481 0.930 . S
H486 C483 0.929 . S
S487 N488 1.613 . S
S487 N489 1.610 . S
N488 S487 1.613 . S
N488 C491 1.350 . S
N489 S487 1.610 . S
N489 C490 1.351 . S
C490 C484 1.428 . S
C490 N489 1.351 . S
C490 C491 1.434 . S
C491 C482 1.429 . S
C491 N488 1.350 . S
C491 C490 1.434 . S
C492 C493 1.369 . S
C492 C494 1.419 . S
C492 H496 0.930 . S
C493 C492 1.369 . S
C493 C502 1.429 . S
C494 C492 1.419 . S
C494 C495 1.363 . S
C494 H497 0.929 . S
C495 C494 1.363 . S
C495 C501 1.428 . S
H496 C492 0.930 . S
H497 C494 0.929 . S
S498 N499 1.613 . S
S498 N500 1.610 . S
N499 S498 1.613 . S
N499 C502 1.350 . S
N500 S498 1.610 . S
N500 C501 1.351 . S
C501 C495 1.428 . S
C501 N500 1.351 . S
C501 C502 1.434 . S
C502 C493 1.429 . S
C502 N499 1.350 . S
C502 C501 1.434 . S
C503 C504 1.369 . S
C503 C505 1.419 . S
C503 H507 0.930 . S
C504 C503 1.369 . S
C504 C513 1.429 . S
C505 C503 1.419 . S
C505 C506 1.363 . S
C505 H508 0.929 . S
C506 C505 1.363 . S
C506 C512 1.428 . S
H507 C503 0.930 . S
H508 C505 0.929 . S
S509 N510 1.613 . S
S509 N511 1.610 . S
N510 S509 1.613 . S
N510 C513 1.350 . S
N511 S509 1.610 . S
N511 C512 1.351 . S
C512 C506 1.428 . S
C512 N511 1.351 . S
C512 C513 1.434 . S
C513 C504 1.429 . S
C513 N510 1.350 . S
C513 C512 1.434 . S
C514 C515 1.369 . S
C514 C516 1.419 . S
C514 H518 0.930 . S
C515 C514 1.369 . S
C515 C524 1.429 . S
C516 C514 1.419 . S
C516 C517 1.363 . S
C516 H519 0.929 . S
C517 C516 1.363 . S
C517 C523 1.428 . S
H518 C514 0.930 . S
H519 C516 0.929 . S
S520 N521 1.613 . S
S520 N522 1.610 . S
N521 S520 1.613 . S
N521 C524 1.350 . S
N522 S520 1.610 . S
N522 C523 1.351 . S
C523 C517 1.428 . S
C523 N522 1.351 . S
C523 C524 1.434 . S
C524 C515 1.429 . S
C524 N521 1.350 . S
C524 C523 1.434 . S
C525 C526 1.369 . S
C525 C527 1.419 . S
C525 H529 0.930 . S
C526 C525 1.369 . S
C526 C535 1.429 . S
C527 C525 1.419 . S
C527 C528 1.363 . S
C527 H530 0.929 . S
C528 C527 1.363 . S
C528 C534 1.428 . S
H529 C525 0.930 . S
H530 C527 0.929 . S
S531 N532 1.613 . S
S531 N533 1.610 . S
N532 S531 1.613 . S
N532 C535 1.350 . S
N533 S531 1.610 . S
N533 C534 1.351 . S
C534 C528 1.428 . S
C534 N533 1.351 . S
C534 C535 1.434 . S
C535 C526 1.429 . S
C535 N532 1.350 . S
C535 C534 1.434 . S
C536 C537 1.369 . S
C536 C538 1.419 . S
C536 H540 0.930 . S
C537 C536 1.369 . S
C537 C546 1.429 . S
C538 C536 1.419 . S
C538 C539 1.363 . S
C538 H541 0.929 . S
C539 C538 1.363 . S
C539 C545 1.428 . S
H540 C536 0.930 . S
H541 C538 0.929 . S
S542 N543 1.613 . S
S542 N544 1.610 . S
N543 S542 1.613 . S
N543 C546 1.350 . S
N544 S542 1.610 . S
N544 C545 1.351 . S
C545 C539 1.428 . S
C545 N544 1.351 . S
C545 C546 1.434 . S
C546 C537 1.429 . S
C546 N543 1.350 . S
C546 C545 1.434 . S
C547 C548 1.369 . S
C547 C549 1.419 . S
C547 H551 0.930 . S
C548 C547 1.369 . S
C548 C557 1.429 . S
C549 C547 1.419 . S
C549 C550 1.363 . S
C549 H552 0.929 . S
C550 C549 1.363 . S
C550 C556 1.428 . S
H551 C547 0.930 . S
H552 C549 0.929 . S
S553 N554 1.613 . S
S553 N555 1.610 . S
N554 S553 1.613 . S
N554 C557 1.350 . S
N555 S553 1.610 . S
N555 C556 1.351 . S
C556 C550 1.428 . S
C556 N555 1.351 . S
C556 C557 1.434 . S
C557 C548 1.429 . S
C557 N554 1.350 . S
C557 C556 1.434 . S
C558 C559 1.369 . S
C558 C560 1.419 . S
C558 H562 0.930 . S
C559 C558 1.369 . S
C559 C568 1.429 . S
C560 C558 1.419 . S
C560 C561 1.363 . S
C560 H563 0.929 . S
C561 C560 1.363 . S
C561 C567 1.428 . S
H562 C558 0.930 . S
H563 C560 0.929 . S
S564 N565 1.613 . S
S564 N566 1.610 . S
N565 S564 1.613 . S
N565 C568 1.350 . S
N566 S564 1.610 . S
N566 C567 1.351 . S
C567 C561 1.428 . S
C567 N566 1.351 . S
C567 C568 1.434 . S
C568 C559 1.429 . S
C568 N565 1.350 . S
C568 C567 1.434 . S
C569 C570 1.369 . S
C569 C571 1.419 . S
C569 H573 0.930 . S
C570 C569 1.369 . S
C570 C579 1.429 . S
C571 C569 1.419 . S
C571 C572 1.363 . S
C571 H574 0.929 . S
C572 C571 1.363 . S
C572 C578 1.428 . S
H573 C569 0.930 . S
H574 C571 0.929 . S
S575 N576 1.613 . S
S575 N577 1.610 . S
N576 S575 1.613 . S
N576 C579 1.350 . S
N577 S575 1.610 . S
N577 C578 1.351 . S
C578 C572 1.428 . S
C578 N577 1.351 . S
C578 C579 1.434 . S
C579 C570 1.429 . S
C579 N576 1.350 . S
C579 C578 1.434 . S
C580 C581 1.369 . S
C580 C582 1.419 . S
C580 H584 0.930 . S
C581 C580 1.369 . S
C581 C590 1.429 . S
C582 C580 1.419 . S
C582 C583 1.363 . S
C582 H585 0.929 . S
C583 C582 1.363 . S
C583 C589 1.428 . S
H584 C580 0.930 . S
H585 C582 0.929 . S
S586 N587 1.613 . S
S586 N588 1.610 . S
N587 S586 1.613 . S
N587 C590 1.350 . S
N588 S586 1.610 . S
N588 C589 1.351 . S
C589 C583 1.428 . S
C589 N588 1.351 . S
C589 C590 1.434 . S
C590 C581 1.429 . S
C590 N587 1.350 . S
C590 C589 1.434 . S
C591 C592 1.369 . S
C591 C593 1.419 . S
C591 H595 0.930 . S
C592 C591 1.369 . S
C592 C601 1.429 . S
C593 C591 1.419 . S
C593 C594 1.363 . S
C593 H596 0.929 . S
C594 C593 1.363 . S
C594 C600 1.428 . S
H595 C591 0.930 . S
H596 C593 0.929 . S
S597 N598 1.613 . S
S597 N599 1.610 . S
N598 S597 1.613 . S
N598 C601 1.350 . S
N599 S597 1.610 . S
N599 C600 1.351 . S
C600 C594 1.428 . S
C600 N599 1.351 . S
C600 C601 1.434 . S
C601 C592 1.429 . S
C601 N598 1.350 . S
C601 C600 1.434 . S
C602 C603 1.369 . S
C602 C604 1.419 . S
C602 H606 0.930 . S
C603 C602 1.369 . S
C603 C612 1.429 . S
C604 C602 1.419 . S
C604 C605 1.363 . S
C604 H607 0.929 . S
C605 C604 1.363 . S
C605 C611 1.428 . S
H606 C602 0.930 . S
H607 C604 0.929 . S
S608 N609 1.613 . S
S608 N610 1.610 . S
N609 S608 1.613 . S
N609 C612 1.350 . S
N610 S608 1.610 . S
N610 C611 1.351 . S
C611 C605 1.428 . S
C611 N610 1.351 . S
C611 C612 1.434 . S
C612 C603 1.429 . S
C612 N609 1.350 . S
C612 C611 1.434 . S
C613 C614 1.369 . S
C613 C615 1.419 . S
C613 H617 0.930 . S
C614 C613 1.369 . S
C614 C623 1.429 . S
C615 C613 1.419 . S
C615 C616 1.363 . S
C615 H618 0.929 . S
C616 C615 1.363 . S
C616 C622 1.428 . S
H617 C613 0.930 . S
H618 C615 0.929 . S
S619 N620 1.613 . S
S619 N621 1.610 . S
N620 S619 1.613 . S
N620 C623 1.350 . S
N621 S619 1.610 . S
N621 C622 1.351 . S
C622 C616 1.428 . S
C622 N621 1.351 . S
C622 C623 1.434 . S
C623 C614 1.429 . S
C623 N620 1.350 . S
C623 C622 1.434 . S
C624 C625 1.369 . S
C624 C626 1.419 1_565 S
C624 H628 0.930 . S
C625 C624 1.369 . S
C625 C634 1.429 . S
C626 C624 1.419 1_545 S
C626 C627 1.363 . S
C626 H629 0.929 . S
C627 C626 1.363 . S
C627 C633 1.428 . S
H628 C624 0.930 . S
H629 C626 0.929 . S
S630 N631 1.613 . S
S630 N632 1.610 1_565 S
N631 S630 1.613 . S
N631 C634 1.350 . S
N632 S630 1.610 1_545 S
N632 C633 1.351 . S
C633 C627 1.428 . S
C633 N632 1.351 . S
C633 C634 1.434 1_545 S
C634 C625 1.429 . S
C634 N631 1.350 . S
C634 C633 1.434 1_565 S
C635 C636 1.369 1_455 S
C635 C637 1.419 . S
C635 H639 0.930 . S
C636 C635 1.369 1_655 S
C636 C645 1.429 . S
C637 C635 1.419 . S
C637 C638 1.363 . S
C637 H640 0.929 . S
C638 C637 1.363 . S
C638 C644 1.428 1_455 S
H639 C635 0.930 . S
H640 C637 0.929 . S
S641 N642 1.613 . S
S641 N643 1.610 . S
N642 S641 1.613 . S
N642 C645 1.350 . S
N643 S641 1.610 . S
N643 C644 1.351 . S
C644 C638 1.428 1_655 S
C644 N643 1.351 . S
C644 C645 1.434 . S
C645 C636 1.429 . S
C645 N642 1.350 . S
C645 C644 1.434 . S
C646 C647 1.369 1_554 S
C646 C648 1.419 . S
C646 H650 0.930 . S
C647 C646 1.369 1_556 S
C647 C656 1.429 . S
C648 C646 1.419 . S
C648 C649 1.363 . S
C648 H651 0.929 . S
C649 C648 1.363 . S
C649 C655 1.428 1_554 S
H650 C646 0.930 . S
H651 C648 0.929 . S
S652 N653 1.613 . S
S652 N654 1.610 . S
N653 S652 1.613 . S
N653 C656 1.350 . S
N654 S652 1.610 . S
N654 C655 1.351 . S
C655 C649 1.428 1_556 S
C655 N654 1.351 . S
C655 C656 1.434 . S
C656 C647 1.429 . S
C656 N653 1.350 . S
C656 C655 1.434 . S
C657 C658 1.369 1_655 S
C657 C659 1.419 1_545 S
C657 H661 0.930 . S
C658 C657 1.369 1_455 S
C658 C667 1.429 1_556 S
C659 C657 1.419 1_565 S
C659 C660 1.363 1_556 S
C659 H662 0.929 . S
C660 C659 1.363 1_554 S
C660 C666 1.428 1_655 S
H661 C657 0.930 . S
H662 C659 0.929 . S
S663 N664 1.613 . S
S663 N665 1.610 1_545 S
N664 S663 1.613 . S
N664 C667 1.350 . S
N665 S663 1.610 1_565 S
N665 C666 1.351 . S
C666 C660 1.428 1_455 S
C666 N665 1.351 . S
C666 C667 1.434 1_565 S
C667 C658 1.429 1_554 S
C667 N664 1.350 . S
C667 C666 1.434 1_545 S
C668 C669 1.369 1_565 S
C668 C670 1.419 . S
C668 H672 0.930 . S
C669 C668 1.369 1_545 S
C669 C678 1.429 . S
C670 C668 1.419 . S
C670 C671 1.363 . S
C670 H673 0.929 . S
C671 C670 1.363 . S
C671 C677 1.428 1_565 S
H672 C668 0.930 . S
H673 C670 0.929 . S
S674 N675 1.613 . S
S674 N676 1.610 . S
N675 S674 1.613 . S
N675 C678 1.350 . S
N676 S674 1.610 . S
N676 C677 1.351 . S
C677 C671 1.428 1_545 S
C677 N676 1.351 . S
C677 C678 1.434 . S
C678 C669 1.429 . S
C678 N675 1.350 . S
C678 C677 1.434 . S
C679 C680 1.369 . S
C679 C681 1.419 . S
C679 H683 0.930 . S
C680 C679 1.369 . S
C680 C689 1.429 1_455 S
C681 C679 1.419 . S
C681 C682 1.363 1_455 S
C681 H684 0.929 . S
C682 C681 1.363 1_655 S
C682 C688 1.428 . S
H683 C679 0.930 . S
H684 C681 0.929 . S
S685 N686 1.613 . S
S685 N687 1.610 . S
N686 S685 1.613 . S
N686 C689 1.350 . S
N687 S685 1.610 . S
N687 C688 1.351 . S
C688 C682 1.428 . S
C688 N687 1.351 . S
C688 C689 1.434 . S
C689 C680 1.429 1_655 S
C689 N686 1.350 . S
C689 C688 1.434 . S
C690 C691 1.369 1_554 S
C690 C692 1.419 . S
C690 H694 0.930 . S
C691 C690 1.369 1_556 S
C691 C700 1.429 . S
C692 C690 1.419 . S
C692 C693 1.363 . S
C692 H695 0.929 . S
C693 C692 1.363 . S
C693 C699 1.428 1_554 S
H694 C690 0.930 . S
H695 C692 0.929 . S
S696 N697 1.613 . S
S696 N698 1.610 . S
N697 S696 1.613 . S
N697 C700 1.350 . S
N698 S696 1.610 . S
N698 C699 1.351 . S
C699 C693 1.428 1_556 S
C699 N698 1.351 . S
C699 C700 1.434 . S
C700 C691 1.429 . S
C700 N697 1.350 . S
C700 C699 1.434 . S
C701 C702 1.369 . S
C701 C703 1.419 . S
C701 H705 0.930 . S
C702 C701 1.369 . S
C702 C711 1.429 . S
C703 C701 1.419 . S
C703 C704 1.363 . S
C703 H706 0.929 . S
C704 C703 1.363 . S
C704 C710 1.428 . S
H705 C701 0.930 . S
H706 C703 0.929 . S
S707 N708 1.613 . S
S707 N709 1.610 . S
N708 S707 1.613 . S
N708 C711 1.350 . S
N709 S707 1.610 . S
N709 C710 1.351 . S
C710 C704 1.428 . S
C710 N709 1.351 . S
C710 C711 1.434 . S
C711 C702 1.429 . S
C711 N708 1.350 . S
C711 C710 1.434 . S
C712 C713 1.369 . S
C712 C714 1.419 . S
C712 H716 0.930 . S
C713 C712 1.369 . S
C713 C722 1.429 . S
C714 C712 1.419 . S
C714 C715 1.363 . S
C714 H717 0.929 . S
C715 C714 1.363 . S
C715 C721 1.428 . S
H716 C712 0.930 . S
H717 C714 0.929 . S
S718 N719 1.613 . S
S718 N720 1.610 . S
N719 S718 1.613 . S
N719 C722 1.350 . S
N720 S718 1.610 . S
N720 C721 1.351 . S
C721 C715 1.428 . S
C721 N720 1.351 . S
C721 C722 1.434 . S
C722 C713 1.429 . S
C722 N719 1.350 . S
C722 C721 1.434 . S
C723 C724 1.369 1_455 S
C723 C725 1.419 . S
C723 H727 0.930 . S
C724 C723 1.369 1_655 S
C724 C733 1.429 . S
C725 C723 1.419 . S
C725 C726 1.363 . S
C725 H728 0.929 . S
C726 C725 1.363 . S
C726 C732 1.428 1_455 S
H727 C723 0.930 . S
H728 C725 0.929 . S
S729 N730 1.613 . S
S729 N731 1.610 . S
N730 S729 1.613 . S
N730 C733 1.350 . S
N731 S729 1.610 . S
N731 C732 1.351 . S
C732 C726 1.428 1_655 S
C732 N731 1.351 . S
C732 C733 1.434 . S
C733 C724 1.429 . S
C733 N730 1.350 . S
C733 C732 1.434 . S
C734 C735 1.369 . S
C734 C736 1.419 . S
C734 H738 0.930 . S
C735 C734 1.369 . S
C735 C744 1.429 . S
C736 C734 1.419 . S
C736 C737 1.363 . S
C736 H739 0.929 . S
C737 C736 1.363 . S
C737 C743 1.428 . S
H738 C734 0.930 . S
H739 C736 0.929 . S
S740 N741 1.613 . S
S740 N742 1.610 . S
N741 S740 1.613 . S
N741 C744 1.350 . S
N742 S740 1.610 . S
N742 C743 1.351 . S
C743 C737 1.428 . S
C743 N742 1.351 . S
C743 C744 1.434 . S
C744 C735 1.429 . S
C744 N741 1.350 . S
C744 C743 1.434 . S
C745 C746 1.369 . S
C745 C747 1.419 . S
C745 H749 0.930 . S
C746 C745 1.369 . S
C746 C755 1.429 . S
C747 C745 1.419 . S
C747 C748 1.363 . S
C747 H750 0.929 . S
C748 C747 1.363 . S
C748 C754 1.428 . S
H749 C745 0.930 . S
H750 C747 0.929 . S
S751 N752 1.613 . S
S751 N753 1.610 . S
N752 S751 1.613 . S
N752 C755 1.350 . S
N753 S751 1.610 . S
N753 C754 1.351 . S
C754 C748 1.428 . S
C754 N753 1.351 . S
C754 C755 1.434 . S
C755 C746 1.429 . S
C755 N752 1.350 . S
C755 C754 1.434 . S
C756 C757 1.369 . S
C756 C758 1.419 . S
C756 H760 0.930 . S
C757 C756 1.369 . S
C757 C766 1.429 . S
C758 C756 1.419 . S
C758 C759 1.363 . S
C758 H761 0.929 . S
C759 C758 1.363 . S
C759 C765 1.428 . S
H760 C756 0.930 . S
H761 C758 0.929 . S
S762 N763 1.613 . S
S762 N764 1.610 . S
N763 S762 1.613 . S
N763 C766 1.350 . S
N764 S762 1.610 . S
N764 C765 1.351 . S
C765 C759 1.428 . S
C765 N764 1.351 . S
C765 C766 1.434 . S
C766 C757 1.429 . S
C766 N763 1.350 . S
C766 C765 1.434 . S
C767 C768 1.369 . S
C767 C769 1.419 1_545 S
C767 H771 0.930 . S
C768 C767 1.369 . S
C768 C777 1.429 . S
C769 C767 1.419 1_565 S
C769 C770 1.363 . S
C769 H772 0.929 . S
C770 C769 1.363 . S
C770 C776 1.428 . S
H771 C767 0.930 . S
H772 C769 0.929 . S
S773 N774 1.613 . S
S773 N775 1.610 1_545 S
N774 S773 1.613 . S
N774 C777 1.350 . S
N775 S773 1.610 1_565 S
N775 C776 1.351 . S
C776 C770 1.428 . S
C776 N775 1.351 . S
C776 C777 1.434 1_565 S
C777 C768 1.429 . S
C777 N774 1.350 . S
C777 C776 1.434 1_545 S
C778 C779 1.369 . S
C778 C780 1.419 . S
C778 H782 0.930 . S
C779 C778 1.369 . S
C779 C788 1.429 . S
C780 C778 1.419 . S
C780 C781 1.363 . S
C780 H783 0.929 . S
C781 C780 1.363 . S
C781 C787 1.428 . S
H782 C778 0.930 . S
H783 C780 0.929 . S
S784 N785 1.613 . S
S784 N786 1.610 . S
N785 S784 1.613 . S
N785 C788 1.350 . S
N786 S784 1.610 . S
N786 C787 1.351 . S
C787 C781 1.428 . S
C787 N786 1.351 . S
C787 C788 1.434 . S
C788 C779 1.429 . S
C788 N785 1.350 . S
C788 C787 1.434 . S
C789 C790 1.369 1_556 S
C789 C791 1.419 . S
C789 H793 0.930 . S
C790 C789 1.369 1_554 S
C790 C799 1.429 . S
C791 C789 1.419 . S
C791 C792 1.363 . S
C791 H794 0.929 . S
C792 C791 1.363 . S
C792 C798 1.428 1_556 S
H793 C789 0.930 . S
H794 C791 0.929 . S
S795 N796 1.613 . S
S795 N797 1.610 . S
N796 S795 1.613 . S
N796 C799 1.350 . S
N797 S795 1.610 . S
N797 C798 1.351 . S
C798 C792 1.428 1_554 S
C798 N797 1.351 . S
C798 C799 1.434 . S
C799 C790 1.429 . S
C799 N796 1.350 . S
C799 C798 1.434 . S
C800 C801 1.369 . S
C800 C802 1.419 . S
C800 H804 0.930 . S
C801 C800 1.369 . S
C801 C810 1.429 . S
C802 C800 1.419 . S
C802 C803 1.363 . S
C802 H805 0.929 . S
C803 C802 1.363 . S
C803 C809 1.428 . S
H804 C800 0.930 . S
H805 C802 0.929 . S
S806 N807 1.613 . S
S806 N808 1.610 . S
N807 S806 1.613 . S
N807 C810 1.350 . S
N808 S806 1.610 . S
N808 C809 1.351 . S
C809 C803 1.428 . S
C809 N808 1.351 . S
C809 C810 1.434 . S
C810 C801 1.429 . S
C810 N807 1.350 . S
C810 C809 1.434 . S
C811 C812 1.369 . S
C811 C813 1.419 . S
C811 H815 0.930 . S
C812 C811 1.369 . S
C812 C821 1.434 . S
C813 C811 1.419 . S
C813 C814 1.363 . S
C813 H816 0.929 . S
C814 C813 1.363 . S
C814 C820 1.435 . S
H815 C811 0.930 . S
H816 C813 0.929 . S
S817 N818 1.613 . S
S817 N819 1.610 . S
N818 S817 1.613 . S
N818 C821 1.344 1_554 S
N819 S817 1.610 . S
N819 C820 1.344 1_554 S
C820 C814 1.435 . S
C820 N819 1.344 1_556 S
C820 C821 1.434 . S
C821 C812 1.434 . S
C821 N818 1.344 1_556 S
C821 C820 1.434 . S
C822 C823 1.369 . S
C822 C824 1.419 . S
C822 H826 0.930 . S
C823 C822 1.369 . S
C823 C832 1.429 . S
C824 C822 1.419 . S
C824 C825 1.363 . S
C824 H827 0.929 . S
C825 C824 1.363 . S
C825 C831 1.428 . S
H826 C822 0.930 . S
H827 C824 0.929 . S
S828 N829 1.601 1_455 S
S828 N830 1.604 1_455 S
N829 S828 1.601 1_655 S
N829 C832 1.350 . S
N830 S828 1.604 1_655 S
N830 C831 1.351 . S
C831 C825 1.428 . S
C831 N830 1.351 . S
C831 C832 1.434 . S
C832 C823 1.429 . S
C832 N829 1.350 . S
C832 C831 1.434 . S
C833 C834 1.369 . S
C833 C835 1.419 . S
C833 H837 0.930 . S
C834 C833 1.369 . S
C834 C843 1.429 . S
C835 C833 1.419 . S
C835 C836 1.363 . S
C835 H838 0.929 . S
C836 C835 1.363 . S
C836 C842 1.428 . S
H837 C833 0.930 . S
H838 C835 0.929 . S
S839 N840 1.613 1_455 S
S839 N841 1.610 1_455 S
N840 S839 1.613 1_655 S
N840 C843 1.350 . S
N841 S839 1.610 1_655 S
N841 C842 1.351 . S
C842 C836 1.428 . S
C842 N841 1.351 . S
C842 C843 1.434 . S
C843 C834 1.429 . S
C843 N840 1.350 . S
C843 C842 1.434 . S
C844 C845 1.369 . S
C844 C846 1.419 . S
C844 H848 0.930 . S
C845 C844 1.369 . S
C845 C854 1.429 . S
C846 C844 1.419 . S
C846 C847 1.363 . S
C846 H849 0.929 . S
C847 C846 1.363 . S
C847 C853 1.428 . S
H848 C844 0.930 . S
H849 C846 0.929 . S
S850 N851 1.613 . S
S850 N852 1.610 . S
N851 S850 1.613 . S
N851 C854 1.350 . S
N852 S850 1.610 . S
N852 C853 1.351 . S
C853 C847 1.428 . S
C853 N852 1.351 . S
C853 C854 1.434 . S
C854 C845 1.429 . S
C854 N851 1.350 . S
C854 C853 1.434 . S
C855 C856 1.369 . S
C855 C857 1.419 . S
C855 H859 0.930 . S
C856 C855 1.369 . S
C856 C865 1.429 . S
C857 C855 1.419 . S
C857 C858 1.363 . S
C857 H860 0.929 . S
C858 C857 1.363 . S
C858 C864 1.428 . S
H859 C855 0.930 . S
H860 C857 0.929 . S
S861 N862 1.613 . S
S861 N863 1.610 . S
N862 S861 1.613 . S
N862 C865 1.350 . S
N863 S861 1.610 . S
N863 C864 1.351 . S
C864 C858 1.428 . S
C864 N863 1.351 . S
C864 C865 1.434 . S
C865 C856 1.429 . S
C865 N862 1.350 . S
C865 C864 1.434 . S
C866 C867 1.369 . S
C866 C868 1.419 . S
C866 H870 0.930 . S
C867 C866 1.369 . S
C867 C876 1.429 . S
C868 C866 1.419 . S
C868 C869 1.363 . S
C868 H871 0.929 . S
C869 C868 1.363 . S
C869 C875 1.428 . S
H870 C866 0.930 . S
H871 C868 0.929 . S
S872 N873 1.613 . S
S872 N874 1.610 . S
N873 S872 1.613 . S
N873 C876 1.350 . S
N874 S872 1.610 . S
N874 C875 1.351 . S
C875 C869 1.428 . S
C875 N874 1.351 . S
C875 C876 1.434 . S
C876 C867 1.429 . S
C876 N873 1.350 . S
C876 C875 1.434 . S
C877 C878 1.369 . S
C877 C879 1.419 . S
C877 H881 0.930 . S
C878 C877 1.369 . S
C878 C887 1.429 . S
C879 C877 1.419 . S
C879 C880 1.363 . S
C879 H882 0.929 . S
C880 C879 1.363 . S
C880 C886 1.428 . S
H881 C877 0.930 . S
H882 C879 0.929 . S
S883 N884 1.613 1_455 S
S883 N885 1.610 1_455 S
N884 S883 1.613 1_655 S
N884 C887 1.350 . S
N885 S883 1.610 1_655 S
N885 C886 1.351 . S
C886 C880 1.428 . S
C886 N885 1.351 . S
C886 C887 1.434 . S
C887 C878 1.429 . S
C887 N884 1.350 . S
C887 C886 1.434 . S
C888 C889 1.369 . S
C888 C890 1.419 . S
C888 H892 0.930 . S
C889 C888 1.369 . S
C889 C898 1.429 . S
C890 C888 1.419 . S
C890 C891 1.363 . S
C890 H893 0.929 . S
C891 C890 1.363 . S
C891 C897 1.428 . S
H892 C888 0.930 . S
H893 C890 0.929 . S
S894 N895 1.613 . S
S894 N896 1.610 . S
N895 S894 1.613 . S
N895 C898 1.350 . S
N896 S894 1.610 . S
N896 C897 1.351 . S
C897 C891 1.428 . S
C897 N896 1.351 . S
C897 C898 1.434 . S
C898 C889 1.429 . S
C898 N895 1.350 . S
C898 C897 1.434 . S
C899 C900 1.369 . S
C899 C901 1.419 . S
C899 H903 0.930 . S
C900 C899 1.369 . S
C900 C909 1.429 . S
C901 C899 1.419 . S
C901 C902 1.363 . S
C901 H904 0.929 . S
C902 C901 1.363 . S
C902 C908 1.428 . S
H903 C899 0.930 . S
H904 C901 0.929 . S
S905 N906 1.613 . S
S905 N907 1.610 . S
N906 S905 1.613 . S
N906 C909 1.350 . S
N907 S905 1.610 . S
N907 C908 1.351 . S
C908 C902 1.428 . S
C908 N907 1.351 . S
C908 C909 1.434 . S
C909 C900 1.429 . S
C909 N906 1.350 . S
C909 C908 1.434 . S
C910 C911 1.369 . S
C910 C912 1.419 . S
C910 H914 0.930 . S
C911 C910 1.369 . S
C911 C920 1.429 . S
C912 C910 1.419 . S
C912 C913 1.363 . S
C912 H915 0.929 . S
C913 C912 1.363 . S
C913 C919 1.428 . S
H914 C910 0.930 . S
H915 C912 0.929 . S
S916 N917 1.613 . S
S916 N918 1.610 . S
N917 S916 1.613 . S
N917 C920 1.350 . S
N918 S916 1.610 . S
N918 C919 1.351 . S
C919 C913 1.428 . S
C919 N918 1.351 . S
C919 C920 1.434 . S
C920 C911 1.429 . S
C920 N917 1.350 . S
C920 C919 1.434 . S
C921 C922 1.369 . S
C921 C923 1.419 . S
C921 H925 0.930 . S
C922 C921 1.369 . S
C922 C931 1.429 . S
C923 C921 1.419 . S
C923 C924 1.363 . S
C923 H926 0.929 . S
C924 C923 1.363 . S
C924 C930 1.428 . S
H925 C921 0.930 . S
H926 C923 0.929 . S
S927 N928 1.613 . S
S927 N929 1.610 . S
N928 S927 1.613 . S
N928 C931 1.350 . S
N929 S927 1.610 . S
N929 C930 1.351 . S
C930 C924 1.428 . S
C930 N929 1.351 . S
C930 C931 1.434 . S
C931 C922 1.429 . S
C931 N928 1.350 . S
C931 C930 1.434 . S
C932 C933 1.369 . S
C932 C934 1.419 . S
C932 H936 0.930 . S
C933 C932 1.369 . S
C933 C942 1.429 . S
C934 C932 1.419 . S
C934 C935 1.363 . S
C934 H937 0.929 . S
C935 C934 1.363 . S
C935 C941 1.428 . S
H936 C932 0.930 . S
H937 C934 0.929 . S
S938 N939 1.613 . S
S938 N940 1.610 . S
N939 S938 1.613 . S
N939 C942 1.350 . S
N940 S938 1.610 . S
N940 C941 1.351 . S
C941 C935 1.428 . S
C941 N940 1.351 . S
C941 C942 1.434 . S
C942 C933 1.429 . S
C942 N939 1.350 . S
C942 C941 1.434 . S
C943 C944 1.369 . S
C943 C945 1.419 . S
C943 H947 0.930 . S
C944 C943 1.369 . S
C944 C953 1.429 . S
C945 C943 1.419 . S
C945 C946 1.363 . S
C945 H948 0.929 . S
C946 C945 1.363 . S
C946 C952 1.428 . S
H947 C943 0.930 . S
H948 C945 0.929 . S
S949 N950 1.613 . S
S949 N951 1.610 . S
N950 S949 1.613 . S
N950 C953 1.350 . S
N951 S949 1.610 . S
N951 C952 1.351 . S
C952 C946 1.428 . S
C952 N951 1.351 . S
C952 C953 1.434 . S
C953 C944 1.429 . S
C953 N950 1.350 . S
C953 C952 1.434 . S
C954 C955 1.369 . S
C954 C956 1.419 . S
C954 H958 0.930 . S
C955 C954 1.369 . S
C955 C964 1.429 . S
C956 C954 1.419 . S
C956 C957 1.363 . S
C956 H959 0.929 . S
C957 C956 1.363 . S
C957 C963 1.428 . S
H958 C954 0.930 . S
H959 C956 0.929 . S
S960 N961 1.613 . S
S960 N962 1.610 . S
N961 S960 1.613 . S
N961 C964 1.350 . S
N962 S960 1.610 . S
N962 C963 1.351 . S
C963 C957 1.428 . S
C963 N962 1.351 . S
C963 C964 1.434 . S
C964 C955 1.429 . S
C964 N961 1.350 . S
C964 C963 1.434 . S
C965 C966 1.369 . S
C965 C967 1.419 . S
C965 H969 0.930 . S
C966 C965 1.369 . S
C966 C975 1.429 . S
C967 C965 1.419 . S
C967 C968 1.363 . S
C967 H970 0.929 . S
C968 C967 1.363 . S
C968 C974 1.428 . S
H969 C965 0.930 . S
H970 C967 0.929 . S
S971 N972 1.613 . S
S971 N973 1.610 . S
N972 S971 1.613 . S
N972 C975 1.350 . S
N973 S971 1.610 . S
N973 C974 1.351 . S
C974 C968 1.428 . S
C974 N973 1.351 . S
C974 C975 1.434 . S
C975 C966 1.429 . S
C975 N972 1.350 . S
C975 C974 1.434 . S
C976 C977 1.369 . S
C976 C978 1.419 . S
C976 H980 0.930 . S
C977 C976 1.369 . S
C977 C986 1.429 . S
C978 C976 1.419 . S
C978 C979 1.363 . S
C978 H981 0.929 . S
C979 C978 1.363 . S
C979 C985 1.428 . S
H980 C976 0.930 . S
H981 C978 0.929 . S
S982 N983 1.613 . S
S982 N984 1.610 . S
N983 S982 1.613 . S
N983 C986 1.350 . S
N984 S982 1.610 . S
N984 C985 1.351 . S
C985 C979 1.428 . S
C985 N984 1.351 . S
C985 C986 1.434 . S
C986 C977 1.429 . S
C986 N983 1.350 . S
C986 C985 1.434 . S
C987 C988 1.369 . S
C987 C989 1.419 . S
C987 H991 0.930 . S
C988 C987 1.369 . S
C988 C997 1.429 . S
C989 C987 1.419 . S
C989 C990 1.363 . S
C989 H992 0.929 . S
C990 C989 1.363 . S
C990 C996 1.428 . S
H991 C987 0.930 . S
H992 C989 0.929 . S
S993 N994 1.613 . S
S993 N995 1.610 . S
N994 S993 1.613 . S
N994 C997 1.350 . S
N995 S993 1.610 . S
N995 C996 1.351 . S
C996 C990 1.428 . S
C996 N995 1.351 . S
C996 C997 1.434 . S
C997 C988 1.429 . S
C997 N994 1.350 . S
C997 C996 1.434 . S
C998 C999 1.369 . S
C998 C1000 1.419 . S
C998 H1002 0.930 . S
C999 C998 1.369 . S
C999 C1008 1.429 . S
C1000 C998 1.419 . S
C1000 C1001 1.363 . S
C1000 H1003 0.929 . S
C1001 C1000 1.363 . S
C1001 C1007 1.428 . S
H1002 C998 0.930 . S
H1003 C1000 0.929 . S
S1004 N1005 1.613 . S
S1004 N1006 1.610 . S
N1005 S1004 1.613 . S
N1005 C1008 1.350 . S
N1006 S1004 1.610 . S
N1006 C1007 1.351 . S
C1007 C1001 1.428 . S
C1007 N1006 1.351 . S
C1007 C1008 1.434 . S
C1008 C999 1.429 . S
C1008 N1005 1.350 . S
C1008 C1007 1.434 . S
C1009 C1010 1.369 . S
C1009 C1011 1.419 . S
C1009 H1013 0.930 . S
C1010 C1009 1.369 . S
C1010 C1019 1.429 . S
C1011 C1009 1.419 . S
C1011 C1012 1.363 . S
C1011 H1014 0.929 . S
C1012 C1011 1.363 . S
C1012 C1018 1.428 . S
H1013 C1009 0.930 . S
H1014 C1011 0.929 . S
S1015 N1016 1.613 . S
S1015 N1017 1.610 . S
N1016 S1015 1.613 . S
N1016 C1019 1.350 . S
N1017 S1015 1.610 . S
N1017 C1018 1.351 . S
C1018 C1012 1.428 . S
C1018 N1017 1.351 . S
C1018 C1019 1.434 . S
C1019 C1010 1.429 . S
C1019 N1016 1.350 . S
C1019 C1018 1.434 . S
C1020 C1021 1.369 . S
C1020 C1022 1.419 . S
C1020 H1024 0.930 . S
C1021 C1020 1.369 . S
C1021 C1030 1.429 . S
C1022 C1020 1.419 . S
C1022 C1023 1.363 . S
C1022 H1025 0.929 . S
C1023 C1022 1.363 . S
C1023 C1029 1.428 . S
H1024 C1020 0.930 . S
H1025 C1022 0.929 . S
S1026 N1027 1.613 . S
S1026 N1028 1.610 . S
N1027 S1026 1.613 . S
N1027 C1030 1.350 . S
N1028 S1026 1.610 . S
N1028 C1029 1.351 . S
C1029 C1023 1.428 . S
C1029 N1028 1.351 . S
C1029 C1030 1.434 . S
C1030 C1021 1.429 . S
C1030 N1027 1.350 . S
C1030 C1029 1.434 . S
C1031 C1032 1.369 . S
C1031 C1033 1.419 . S
C1031 H1035 0.930 . S
C1032 C1031 1.369 . S
C1032 C1041 1.429 . S
C1033 C1031 1.419 . S
C1033 C1034 1.363 . S
C1033 H1036 0.929 . S
C1034 C1033 1.363 . S
C1034 C1040 1.428 . S
H1035 C1031 0.930 . S
H1036 C1033 0.929 . S
S1037 N1038 1.613 . S
S1037 N1039 1.610 . S
N1038 S1037 1.613 . S
N1038 C1041 1.350 . S
N1039 S1037 1.610 . S
N1039 C1040 1.351 . S
C1040 C1034 1.428 . S
C1040 N1039 1.351 . S
C1040 C1041 1.434 . S
C1041 C1032 1.429 . S
C1041 N1038 1.350 . S
C1041 C1040 1.434 . S
C1042 C1043 1.369 . S
C1042 C1044 1.419 . S
C1042 H1046 0.930 . S
C1043 C1042 1.369 . S
C1043 C1052 1.429 . S
C1044 C1042 1.419 . S
C1044 C1045 1.363 . S
C1044 H1047 0.929 . S
C1045 C1044 1.363 . S
C1045 C1051 1.428 . S
H1046 C1042 0.930 . S
H1047 C1044 0.929 . S
S1048 N1049 1.613 . S
S1048 N1050 1.610 . S
N1049 S1048 1.613 . S
N1049 C1052 1.350 . S
N1050 S1048 1.610 . S
N1050 C1051 1.351 . S
C1051 C1045 1.428 . S
C1051 N1050 1.351 . S
C1051 C1052 1.434 . S
C1052 C1043 1.429 . S
C1052 N1049 1.350 . S
C1052 C1051 1.434 . S
C1053 C1054 1.369 . S
C1053 C1055 1.419 . S
C1053 H1057 0.930 . S
C1054 C1053 1.369 . S
C1054 C1063 1.429 . S
C1055 C1053 1.419 . S
C1055 C1056 1.363 . S
C1055 H1058 0.929 . S
C1056 C1055 1.363 . S
C1056 C1062 1.428 . S
H1057 C1053 0.930 . S
H1058 C1055 0.929 . S
S1059 N1060 1.613 . S
S1059 N1061 1.610 . S
N1060 S1059 1.613 . S
N1060 C1063 1.350 . S
N1061 S1059 1.610 . S
N1061 C1062 1.351 . S
C1062 C1056 1.428 . S
C1062 N1061 1.351 . S
C1062 C1063 1.434 . S
C1063 C1054 1.429 . S
C1063 N1060 1.350 . S
C1063 C1062 1.434 . S
C1064 C1065 1.369 . S
C1064 C1066 1.419 . S
C1064 H1068 0.930 . S
C1065 C1064 1.369 . S
C1065 C1074 1.429 . S
C1066 C1064 1.419 . S
C1066 C1067 1.363 . S
C1066 H1069 0.929 . S
C1067 C1066 1.363 . S
C1067 C1073 1.428 . S
H1068 C1064 0.930 . S
H1069 C1066 0.929 . S
S1070 N1071 1.613 . S
S1070 N1072 1.610 . S
N1071 S1070 1.613 . S
N1071 C1074 1.350 . S
N1072 S1070 1.610 . S
N1072 C1073 1.351 . S
C1073 C1067 1.428 . S
C1073 N1072 1.351 . S
C1073 C1074 1.434 . S
C1074 C1065 1.429 . S
C1074 N1071 1.350 . S
C1074 C1073 1.434 . S
C1075 C1076 1.369 . S
C1075 C1077 1.419 . S
C1075 H1079 0.930 . S
C1076 C1075 1.369 . S
C1076 C1085 1.429 . S
C1077 C1075 1.419 . S
C1077 C1078 1.363 . S
C1077 H1080 0.929 . S
C1078 C1077 1.363 . S
C1078 C1084 1.428 . S
H1079 C1075 0.930 . S
H1080 C1077 0.929 . S
S1081 N1082 1.613 . S
S1081 N1083 1.610 . S
N1082 S1081 1.613 . S
N1082 C1085 1.350 . S
N1083 S1081 1.610 . S
N1083 C1084 1.351 . S
C1084 C1078 1.428 . S
C1084 N1083 1.351 . S
C1084 C1085 1.434 . S
C1085 C1076 1.429 . S
C1085 N1082 1.350 . S
C1085 C1084 1.434 . S
C1086 C1087 1.369 . S
C1086 C1088 1.419 . S
C1086 H1090 0.930 . S
C1087 C1086 1.369 . S
C1087 C1096 1.429 . S
C1088 C1086 1.419 . S
C1088 C1089 1.363 . S
C1088 H1091 0.929 . S
C1089 C1088 1.363 . S
C1089 C1095 1.428 . S
H1090 C1086 0.930 . S
H1091 C1088 0.929 . S
S1092 N1093 1.613 . S
S1092 N1094 1.610 . S
N1093 S1092 1.613 . S
N1093 C1096 1.350 . S
N1094 S1092 1.610 . S
N1094 C1095 1.351 . S
C1095 C1089 1.428 . S
C1095 N1094 1.351 . S
C1095 C1096 1.434 . S
C1096 C1087 1.429 . S
C1096 N1093 1.350 . S
C1096 C1095 1.434 . S
C1097 C1098 1.369 . S
C1097 C1099 1.419 . S
C1097 H1101 0.930 . S
C1098 C1097 1.369 . S
C1098 C1107 1.429 . S
C1099 C1097 1.419 . S
C1099 C1100 1.363 . S
C1099 H1102 0.929 . S
C1100 C1099 1.363 . S
C1100 C1106 1.428 . S
H1101 C1097 0.930 . S
H1102 C1099 0.929 . S
S1103 N1104 1.613 . S
S1103 N1105 1.610 . S
N1104 S1103 1.613 . S
N1104 C1107 1.350 . S
N1105 S1103 1.610 . S
N1105 C1106 1.351 . S
C1106 C1100 1.428 . S
C1106 N1105 1.351 . S
C1106 C1107 1.434 . S
C1107 C1098 1.429 . S
C1107 N1104 1.350 . S
C1107 C1106 1.434 . S
C1108 C1109 1.369 . S
C1108 C1110 1.419 . S
C1108 H1112 0.930 . S
C1109 C1108 1.369 . S
C1109 C1118 1.429 . S
C1110 C1108 1.419 . S
C1110 C1111 1.363 . S
C1110 H1113 0.929 . S
C1111 C1110 1.363 . S
C1111 C1117 1.428 . S
H1112 C1108 0.930 . S
H1113 C1110 0.929 . S
S1114 N1115 1.613 . S
S1114 N1116 1.610 . S
N1115 S1114 1.613 . S
N1115 C1118 1.350 . S
N1116 S1114 1.610 . S
N1116 C1117 1.351 . S
C1117 C1111 1.428 . S
C1117 N1116 1.351 . S
C1117 C1118 1.434 . S
C1118 C1109 1.429 . S
C1118 N1115 1.350 . S
C1118 C1117 1.434 . S
C1119 C1120 1.369 . S
C1119 C1121 1.419 . S
C1119 H1123 0.930 . S
C1120 C1119 1.369 . S
C1120 C1129 1.429 . S
C1121 C1119 1.419 . S
C1121 C1122 1.363 . S
C1121 H1124 0.929 . S
C1122 C1121 1.363 . S
C1122 C1128 1.428 . S
H1123 C1119 0.930 . S
H1124 C1121 0.929 . S
S1125 N1126 1.613 . S
S1125 N1127 1.610 . S
N1126 S1125 1.613 . S
N1126 C1129 1.350 . S
N1127 S1125 1.610 . S
N1127 C1128 1.351 . S
C1128 C1122 1.428 . S
C1128 N1127 1.351 . S
C1128 C1129 1.434 . S
C1129 C1120 1.429 . S
C1129 N1126 1.350 . S
C1129 C1128 1.434 . S
C1130 C1131 1.369 . S
C1130 C1132 1.419 . S
C1130 H1134 0.930 . S
C1131 C1130 1.369 . S
C1131 C1140 1.429 . S
C1132 C1130 1.419 . S
C1132 C1133 1.363 . S
C1132 H1135 0.929 . S
C1133 C1132 1.363 . S
C1133 C1139 1.428 . S
H1134 C1130 0.930 . S
H1135 C1132 0.929 . S
S1136 N1137 1.613 . S
S1136 N1138 1.610 . S
N1137 S1136 1.613 . S
N1137 C1140 1.350 . S
N1138 S1136 1.610 . S
N1138 C1139 1.351 . S
C1139 C1133 1.428 . S
C1139 N1138 1.351 . S
C1139 C1140 1.434 . S
C1140 C1131 1.429 . S
C1140 N1137 1.350 . S
C1140 C1139 1.434 . S
C1141 C1142 1.369 . S
C1141 C1143 1.419 . S
C1141 H1145 0.930 . S
C1142 C1141 1.369 . S
C1142 C1151 1.429 . S
C1143 C1141 1.419 . S
C1143 C1144 1.363 . S
C1143 H1146 0.929 . S
C1144 C1143 1.363 . S
C1144 C1150 1.428 . S
H1145 C1141 0.930 . S
H1146 C1143 0.929 . S
S1147 N1148 1.613 . S
S1147 N1149 1.610 . S
N1148 S1147 1.613 . S
N1148 C1151 1.350 . S
N1149 S1147 1.610 . S
N1149 C1150 1.351 . S
C1150 C1144 1.428 . S
C1150 N1149 1.351 . S
C1150 C1151 1.434 . S
C1151 C1142 1.429 . S
C1151 N1148 1.350 . S
C1151 C1150 1.434 . S
C449 C46 1.033 . S
C451 C4 1.036 . S
C460 C32 1.036 . S
C462 C18 1.034 . S
C471 C102 1.037 . S
C473 C60 1.034 . S
C482 C88 1.039 . S
C484 C74 1.033 . S
C493 C116 1.046 . S
C495 C158 1.039 . S
C504 C130 1.032 . S
C506 C144 1.040 . S
C515 C214 1.035 . S
C517 C172 1.034 . S
C526 C186 1.036 . S
C528 C200 1.034 . S
C537 C228 1.034 . S
C539 C270 1.035 . S
C548 C242 1.045 . S
C550 C256 1.036 . S
C559 C326 1.033 . S
C561 C284 1.042 . S
C570 C312 1.035 . S
C572 C298 1.034 . S
C581 C382 1.035 . S
C583 C340 1.044 . S
C592 C354 1.037 . S
C594 C368 1.034 . S
C603 C396 1.032 . S
C605 C438 1.040 . S
C614 C410 1.034 . S
C616 C424 1.035 . S
C625 C285 1.626 . S
C627 C5 1.628 . S
C636 C187 1.629 . S
C638 C19 1.626 . S
C647 C33 1.625 . S
C649 C425 1.630 . S
C658 C47 1.629 . S
C660 C103 1.627 . S
C669 C229 1.630 . S
C671 C61 1.625 . S
C680 C131 1.628 . S
C682 C75 1.627 . S
C691 C369 1.626 . S
C693 C89 1.629 . S
C702 C117 1.625 . S
C704 C397 1.629 . S
C713 C313 1.630 . S
C715 C145 1.626 . S
C724 C215 1.630 . S
C726 C159 1.626 . S
C735 C341 1.629 . S
C737 C173 1.625 . S
C746 C201 1.628 . S
C748 C257 1.627 . S
C757 C411 1.629 . S
C759 C243 1.626 . S
C768 C271 1.628 . S
C770 C327 1.628 . S
C779 C355 1.625 . S
C781 C299 1.629 . S
C790 C439 1.625 . S
C792 C383 1.629 . S
C801 C26 1.409 . S
C803 C12 1.404 . S
C812 C40 1.408 . S
C814 C54 1.405 . S
C823 C68 1.406 . S
C825 C82 1.410 . S
C834 C110 1.411 . S
C836 C96 1.404 . S
C845 C124 1.412 . S
C847 C138 1.404 . S
C856 C152 1.406 . S
C858 C166 1.406 . S
C867 C194 1.402 . S
C869 C180 1.410 . S
C878 C208 1.403 . S
C880 C222 1.411 . S
C889 C236 1.404 . S
C891 C250 1.410 . S
C900 C264 1.412 . S
C902 C278 1.404 . S
C911 C292 1.405 . S
C913 C306 1.406 . S
C922 C334 1.411 . S
C924 C320 1.404 . S
C933 C362 1.404 . S
C935 C348 1.411 . S
C944 C376 1.403 . S
C946 C390 1.409 . S
C955 C404 1.406 . S
C957 C418 1.410 . S
C966 C446 1.405 . S
C968 C432 1.411 . S
C977 C11 1.497 . S
C979 C277 1.497 . S
C988 C25 1.497 . S
C990 C263 1.497 . S
C999 C249 1.502 . S
C1001 C39 1.502 . S
C1010 C53 1.504 . S
C1012 C235 1.503 . S
C1021 C333 1.497 . S
C1023 C67 1.498 . S
C1032 C81 1.497 . S
C1034 C319 1.497 . S
C1043 C305 1.504 . S
C1045 C95 1.503 . S
C1054 C109 1.503 . S
C1056 C291 1.503 . S
C1065 C123 1.503 . S
C1067 C389 1.503 . S
C1076 C137 1.503 . S
C1078 C375 1.503 . S
C1087 C151 1.496 . S
C1089 C361 1.497 . S
C1098 C347 1.502 . S
C1100 C165 1.502 . S
C1109 C179 1.501 . S
C1111 C445 1.502 . S
C1120 C193 1.498 . S
C1122 C431 1.498 . S
C1131 C207 1.500 . S
C1133 C417 1.501 . S
C1142 C403 1.503 . S
C1144 C221 1.502 . S
