# Generated by pormake.
# Topology vbd, (5)-cn, num edge types: 1
# Building blocks:
#     Node 0, Type 0, BuildingBlock: XOMCOT_clean_sbu_0, # of connection points: 5
#     Node 1, Type 0, BuildingBlock: XOMCOT_clean_sbu_0, # of connection points: 5
#     Node 2, Type 0, BuildingBlock: XOMCOT_clean_sbu_0, # of connection points: 5
#     Node 3, Type 0, BuildingBlock: XOMCOT_clean_sbu_0, # of connection points: 5
#     Node 4, Type 0, BuildingBlock: XOMCOT_clean_sbu_0, # of connection points: 5
#     Node 5, Type 0, BuildingBlock: XOMCOT_clean_sbu_0, # of connection points: 5
#     Node 6, Type 0, BuildingBlock: XOMCOT_clean_sbu_0, # of connection points: 5
#     Node 7, Type 0, BuildingBlock: XOMCOT_clean_sbu_0, # of connection points: 5
#     Node 8, Type 0, BuildingBlock: XOMCOT_clean_sbu_0, # of connection points: 5
#     Node 9, Type 0, BuildingBlock: XOMCOT_clean_sbu_0, # of connection points: 5
#     Node 10, Type 0, BuildingBlock: XOMCOT_clean_sbu_0, # of connection points: 5
#     Node 11, Type 0, BuildingBlock: XOMCOT_clean_sbu_0, # of connection points: 5
#     Node 12, Type 0, BuildingBlock: XOMCOT_clean_sbu_0, # of connection points: 5
#     Node 13, Type 0, BuildingBlock: XOMCOT_clean_sbu_0, # of connection points: 5
#     Node 14, Type 0, BuildingBlock: XOMCOT_clean_sbu_0, # of connection points: 5
#     Node 15, Type 0, BuildingBlock: XOMCOT_clean_sbu_0, # of connection points: 5
#     Node 16, Type 0, BuildingBlock: XOMCOT_clean_sbu_0, # of connection points: 5
#     Node 17, Type 0, BuildingBlock: XOMCOT_clean_sbu_0, # of connection points: 5
#     Node 18, Type 0, BuildingBlock: XOMCOT_clean_sbu_0, # of connection points: 5
#     Node 19, Type 0, BuildingBlock: XOMCOT_clean_sbu_0, # of connection points: 5
#     Node 20, Type 0, BuildingBlock: XOMCOT_clean_sbu_0, # of connection points: 5
#     Node 21, Type 0, BuildingBlock: XOMCOT_clean_sbu_0, # of connection points: 5
#     Node 22, Type 0, BuildingBlock: XOMCOT_clean_sbu_0, # of connection points: 5
#     Node 23, Type 0, BuildingBlock: XOMCOT_clean_sbu_0, # of connection points: 5
#     Node 24, Type 0, BuildingBlock: XOMCOT_clean_sbu_0, # of connection points: 5
#     Node 25, Type 0, BuildingBlock: XOMCOT_clean_sbu_0, # of connection points: 5
#     Node 26, Type 0, BuildingBlock: XOMCOT_clean_sbu_0, # of connection points: 5
#     Node 27, Type 0, BuildingBlock: XOMCOT_clean_sbu_0, # of connection points: 5
#     Node 28, Type 0, BuildingBlock: XOMCOT_clean_sbu_0, # of connection points: 5
#     Node 29, Type 0, BuildingBlock: XOMCOT_clean_sbu_0, # of connection points: 5
#     Node 30, Type 0, BuildingBlock: XOMCOT_clean_sbu_0, # of connection points: 5
#     Node 31, Type 0, BuildingBlock: XOMCOT_clean_sbu_0, # of connection points: 5
#     Edge 32, Type (0, 0), BuildingBlock: AJUNOK_clean_linker_0, # of connection points: 2
#     Edge 33, Type (0, 0), BuildingBlock: AJUNOK_clean_linker_0, # of connection points: 2
#     Edge 34, Type (0, 0), BuildingBlock: AJUNOK_clean_linker_0, # of connection points: 2
#     Edge 35, Type (0, 0), BuildingBlock: AJUNOK_clean_linker_0, # of connection points: 2
#     Edge 36, Type (0, 0), BuildingBlock: AJUNOK_clean_linker_0, # of connection points: 2
#     Edge 37, Type (0, 0), BuildingBlock: AJUNOK_clean_linker_0, # of connection points: 2
#     Edge 38, Type (0, 0), BuildingBlock: AJUNOK_clean_linker_0, # of connection points: 2
#     Edge 39, Type (0, 0), BuildingBlock: AJUNOK_clean_linker_0, # of connection points: 2
#     Edge 40, Type (0, 0), BuildingBlock: AJUNOK_clean_linker_0, # of connection points: 2
#     Edge 41, Type (0, 0), BuildingBlock: AJUNOK_clean_linker_0, # of connection points: 2
#     Edge 42, Type (0, 0), BuildingBlock: AJUNOK_clean_linker_0, # of connection points: 2
#     Edge 43, Type (0, 0), BuildingBlock: AJUNOK_clean_linker_0, # of connection points: 2
#     Edge 44, Type (0, 0), BuildingBlock: AJUNOK_clean_linker_0, # of connection points: 2
#     Edge 45, Type (0, 0), BuildingBlock: AJUNOK_clean_linker_0, # of connection points: 2
#     Edge 46, Type (0, 0), BuildingBlock: AJUNOK_clean_linker_0, # of connection points: 2
#     Edge 47, Type (0, 0), BuildingBlock: AJUNOK_clean_linker_0, # of connection points: 2
#     Edge 48, Type (0, 0), BuildingBlock: AJUNOK_clean_linker_0, # of connection points: 2
#     Edge 49, Type (0, 0), BuildingBlock: AJUNOK_clean_linker_0, # of connection points: 2
#     Edge 50, Type (0, 0), BuildingBlock: AJUNOK_clean_linker_0, # of connection points: 2
#     Edge 51, Type (0, 0), BuildingBlock: AJUNOK_clean_linker_0, # of connection points: 2
#     Edge 52, Type (0, 0), BuildingBlock: AJUNOK_clean_linker_0, # of connection points: 2
#     Edge 53, Type (0, 0), BuildingBlock: AJUNOK_clean_linker_0, # of connection points: 2
#     Edge 54, Type (0, 0), BuildingBlock: AJUNOK_clean_linker_0, # of connection points: 2
#     Edge 55, Type (0, 0), BuildingBlock: AJUNOK_clean_linker_0, # of connection points: 2
#     Edge 56, Type (0, 0), BuildingBlock: AJUNOK_clean_linker_0, # of connection points: 2
#     Edge 57, Type (0, 0), BuildingBlock: AJUNOK_clean_linker_0, # of connection points: 2
#     Edge 58, Type (0, 0), BuildingBlock: AJUNOK_clean_linker_0, # of connection points: 2
#     Edge 59, Type (0, 0), BuildingBlock: AJUNOK_clean_linker_0, # of connection points: 2
#     Edge 60, Type (0, 0), BuildingBlock: AJUNOK_clean_linker_0, # of connection points: 2
#     Edge 61, Type (0, 0), BuildingBlock: AJUNOK_clean_linker_0, # of connection points: 2
#     Edge 62, Type (0, 0), BuildingBlock: AJUNOK_clean_linker_0, # of connection points: 2
#     Edge 63, Type (0, 0), BuildingBlock: AJUNOK_clean_linker_0, # of connection points: 2
#     Edge 64, Type (0, 0), BuildingBlock: AJUNOK_clean_linker_0, # of connection points: 2
#     Edge 65, Type (0, 0), BuildingBlock: AJUNOK_clean_linker_0, # of connection points: 2
#     Edge 66, Type (0, 0), BuildingBlock: AJUNOK_clean_linker_0, # of connection points: 2
#     Edge 67, Type (0, 0), BuildingBlock: AJUNOK_clean_linker_0, # of connection points: 2
#     Edge 68, Type (0, 0), BuildingBlock: AJUNOK_clean_linker_0, # of connection points: 2
#     Edge 69, Type (0, 0), BuildingBlock: AJUNOK_clean_linker_0, # of connection points: 2
#     Edge 70, Type (0, 0), BuildingBlock: AJUNOK_clean_linker_0, # of connection points: 2
#     Edge 71, Type (0, 0), BuildingBlock: AJUNOK_clean_linker_0, # of connection points: 2
#     Edge 72, Type (0, 0), BuildingBlock: AJUNOK_clean_linker_0, # of connection points: 2
#     Edge 73, Type (0, 0), BuildingBlock: AJUNOK_clean_linker_0, # of connection points: 2
#     Edge 74, Type (0, 0), BuildingBlock: AJUNOK_clean_linker_0, # of connection points: 2
#     Edge 75, Type (0, 0), BuildingBlock: AJUNOK_clean_linker_0, # of connection points: 2
#     Edge 76, Type (0, 0), BuildingBlock: AJUNOK_clean_linker_0, # of connection points: 2
#     Edge 77, Type (0, 0), BuildingBlock: AJUNOK_clean_linker_0, # of connection points: 2
#     Edge 78, Type (0, 0), BuildingBlock: AJUNOK_clean_linker_0, # of connection points: 2
#     Edge 79, Type (0, 0), BuildingBlock: AJUNOK_clean_linker_0, # of connection points: 2
#     Edge 80, Type (0, 0), BuildingBlock: AJUNOK_clean_linker_0, # of connection points: 2
#     Edge 81, Type (0, 0), BuildingBlock: AJUNOK_clean_linker_0, # of connection points: 2
#     Edge 82, Type (0, 0), BuildingBlock: AJUNOK_clean_linker_0, # of connection points: 2
#     Edge 83, Type (0, 0), BuildingBlock: AJUNOK_clean_linker_0, # of connection points: 2
#     Edge 84, Type (0, 0), BuildingBlock: AJUNOK_clean_linker_0, # of connection points: 2
#     Edge 85, Type (0, 0), BuildingBlock: AJUNOK_clean_linker_0, # of connection points: 2
#     Edge 86, Type (0, 0), BuildingBlock: AJUNOK_clean_linker_0, # of connection points: 2
#     Edge 87, Type (0, 0), BuildingBlock: AJUNOK_clean_linker_0, # of connection points: 2
#     Edge 88, Type (0, 0), BuildingBlock: AJUNOK_clean_linker_0, # of connection points: 2
#     Edge 89, Type (0, 0), BuildingBlock: AJUNOK_clean_linker_0, # of connection points: 2
#     Edge 90, Type (0, 0), BuildingBlock: AJUNOK_clean_linker_0, # of connection points: 2
#     Edge 91, Type (0, 0), BuildingBlock: AJUNOK_clean_linker_0, # of connection points: 2
#     Edge 92, Type (0, 0), BuildingBlock: AJUNOK_clean_linker_0, # of connection points: 2
#     Edge 93, Type (0, 0), BuildingBlock: AJUNOK_clean_linker_0, # of connection points: 2
#     Edge 94, Type (0, 0), BuildingBlock: AJUNOK_clean_linker_0, # of connection points: 2
#     Edge 95, Type (0, 0), BuildingBlock: AJUNOK_clean_linker_0, # of connection points: 2
#     Edge 96, Type (0, 0), BuildingBlock: AJUNOK_clean_linker_0, # of connection points: 2
#     Edge 97, Type (0, 0), BuildingBlock: AJUNOK_clean_linker_0, # of connection points: 2
#     Edge 98, Type (0, 0), BuildingBlock: AJUNOK_clean_linker_0, # of connection points: 2
#     Edge 99, Type (0, 0), BuildingBlock: AJUNOK_clean_linker_0, # of connection points: 2
#     Edge 100, Type (0, 0), BuildingBlock: AJUNOK_clean_linker_0, # of connection points: 2
#     Edge 101, Type (0, 0), BuildingBlock: AJUNOK_clean_linker_0, # of connection points: 2
#     Edge 102, Type (0, 0), BuildingBlock: AJUNOK_clean_linker_0, # of connection points: 2
#     Edge 103, Type (0, 0), BuildingBlock: AJUNOK_clean_linker_0, # of connection points: 2
#     Edge 104, Type (0, 0), BuildingBlock: AJUNOK_clean_linker_0, # of connection points: 2
#     Edge 105, Type (0, 0), BuildingBlock: AJUNOK_clean_linker_0, # of connection points: 2
#     Edge 106, Type (0, 0), BuildingBlock: AJUNOK_clean_linker_0, # of connection points: 2
#     Edge 107, Type (0, 0), BuildingBlock: AJUNOK_clean_linker_0, # of connection points: 2
#     Edge 108, Type (0, 0), BuildingBlock: AJUNOK_clean_linker_0, # of connection points: 2
#     Edge 109, Type (0, 0), BuildingBlock: AJUNOK_clean_linker_0, # of connection points: 2
#     Edge 110, Type (0, 0), BuildingBlock: AJUNOK_clean_linker_0, # of connection points: 2
#     Edge 111, Type (0, 0), BuildingBlock: AJUNOK_clean_linker_0, # of connection points: 2
# Relax obj value: 0.065
# Max RMSD: 0.125
# Mean RMSD: 0.122
data_MOF--net-vbd--node1-XOMCOT_clean_sbu_0--edge1-AJUNOK_clean_linker_0
_symmetry_space_group_name_H-M    P1
_symmetry_Int_Tables_number       1
_symmetry_cell_setting            triclinic
loop_
_symmetry_equiv_pos_as_xyz
'x, y, z'
_cell_length_a     80.527615
_cell_length_b     18.171518
_cell_length_c     51.777732
_cell_angle_alpha  89.937918
_cell_angle_beta   90.526506
_cell_angle_gamma 89.800972
loop_
_atom_site_label
_atom_site_type_symbol
_atom_site_fract_x
_atom_site_fract_y
_atom_site_fract_z
_atom_type_partial_charge
Co0 Co 0.04333 0.29751 0.05117 0.0
C1 C 0.04484 0.34522 0.99542 0.0
C2 C 0.02975 0.24943 1.00092 0.0
C3 C 0.02858 0.27044 0.97549 0.0
N4 N 0.03998 0.29592 1.01362 0.0
N5 N 0.03796 0.33078 0.97191 0.0
H6 H 0.05238 0.39301 0.99958 0.0
H7 H 0.02288 0.20505 1.00962 0.0
C8 C 0.03846 0.1285 0.05615 0.0
O9 O 0.05399 0.10701 0.05831 0.0
N10 N 0.04608 0.29818 0.08912 0.0
C11 C 0.04518 0.35663 0.10517 0.0
C12 C 0.04647 0.3327 0.13045 0.0
C13 C 0.04809 0.23965 0.10525 0.0
N14 N 0.04832 0.25895 0.13055 0.0
C15 C 0.07869 0.29514 0.06236 0.0
C16 C 0.08653 0.18117 0.02913 0.0
C17 C 0.0989 0.20762 0.04583 0.0
C18 C 0.09497 0.26689 0.06204 0.0
C19 C 0.07052 0.21193 0.02967 0.0
N20 N 0.0665 0.26556 0.04709 0.0
H21 H 0.07581 0.33981 0.07534 0.0
H22 H 0.06112 0.18933 1.017 0.0
H23 H 0.04349 0.41316 0.0992 0.0
H24 H 0.04892 0.18361 0.09889 0.0
O25 O 0.04499 0.40525 0.04938 0.0
O26 O 0.02188 0.34208 0.05445 0.0
O27 O 0.03442 0.19569 0.0535 0.0
C28 C 0.02877 0.40559 0.0515 0.0
H29 H 0.02083 0.24484 0.96086 0.0
H30 H 0.04601 0.36713 0.14747 0.0
H31 H 0.08916 0.13656 1.01591 0.0
H32 H 0.1043 0.29 0.07483 0.0
Co33 Co 0.22514 0.04276 0.04619 0.0
C34 C 0.22635 0.10253 0.10056 0.0
C35 C 0.23762 0.99618 0.0975 0.0
C36 C 0.23913 0.01967 0.12265 0.0
N37 N 0.22942 0.04755 0.08349 0.0
N38 N 0.23182 0.08624 0.12474 0.0
H39 H 0.22053 0.1541 0.09558 0.0
H40 H 0.24255 0.94528 0.09007 0.0
C41 C 0.22609 0.87925 0.03292 0.0
O42 O 0.2159 0.88089 1.013 0.0
N43 N 0.22108 0.03941 1.00884 0.0
C44 C 0.20847 0.07377 0.99639 0.0
C45 C 0.20878 0.0554 0.97067 0.0
C46 C 0.22949 0.00371 0.98997 0.0
N47 N 0.22187 0.01078 0.96658 0.0
C48 C 0.19567 0.12151 0.05887 0.0
C49 C 0.1724 0.01756 0.04506 0.0
C50 C 0.16687 0.08918 0.05128 0.0
C51 C 0.17889 0.14001 0.05913 0.0
C52 C 0.18958 0.00035 0.04575 0.0
N53 N 0.20107 0.05287 0.05204 0.0
H54 H 0.2043 0.16518 0.06259 0.0
H55 H 0.19357 0.94631 0.03984 0.0
H56 H 0.19936 0.10903 1.00533 0.0
H57 H 0.24033 0.96967 0.99355 0.0
O58 O 0.2304 0.14583 0.04303 0.0
O59 O 0.24871 0.05466 0.04063 0.0
O60 O 0.22604 0.93125 0.04955 0.0
C61 C 0.24574 0.12491 0.04071 0.0
H62 H 0.24559 0.99049 0.13795 0.0
H63 H 0.19986 0.07263 0.95608 0.0
H64 H 0.16369 0.97618 0.03855 0.0
H65 H 0.17544 0.19553 0.06455 0.0
Co66 Co 0.04589 0.01816 0.29883 0.0
C67 C 0.04898 0.96077 0.35349 0.0
C68 C 0.03642 0.06487 0.35154 0.0
C69 C 0.03722 0.04319 0.37689 0.0
N70 N 0.04395 0.01398 0.33662 0.0
N71 N 0.04514 0.97799 0.37825 0.0
H72 H 0.05521 0.9105 0.34785 0.0
H73 H 0.03056 0.11475 0.34479 0.0
C74 C 0.0406 0.18739 0.29726 0.0
O75 O 0.05577 0.20925 0.2923 0.0
N76 N 0.04739 0.02315 0.26074 0.0
C77 C 0.0473 0.96577 0.24413 0.0
C78 C 0.04828 0.99158 0.21915 0.0
C79 C 0.04845 0.0833 0.24513 0.0
N80 N 0.04909 0.0656 0.21971 0.0
C81 C 0.08083 0.01713 0.28628 0.0
C82 C 0.09036 0.12438 0.32124 0.0
C83 C 0.1022 0.09755 0.30392 0.0
C84 C 0.09732 0.04203 0.28662 0.0
C85 C 0.07399 0.09859 0.32009 0.0
N86 N 0.06922 0.04735 0.3022 0.0
H87 H 0.07733 0.97431 0.27287 0.0
H88 H 0.06503 0.12234 0.33302 0.0
H89 H 0.04652 0.90846 0.24951 0.0
H90 H 0.04894 0.13914 0.25188 0.0
O91 O 0.04735 0.91057 0.29817 0.0
O92 O 0.02426 0.9767 0.29576 0.0
O93 O 0.03709 0.11983 0.29933 0.0
C94 C 0.03109 0.91236 0.29651 0.0
H95 H 0.03187 0.07212 0.3931 0.0
H96 H 0.04799 0.95819 0.20186 0.0
H97 H 0.09357 0.16692 0.33503 0.0
H98 H 0.10617 0.01811 0.27339 0.0
Co99 Co 0.22438 0.31086 0.29428 0.0
C100 C 0.223 0.36849 0.34834 0.0
C101 C 0.24082 0.28142 0.34403 0.0
C102 C 0.2419 0.30746 0.36885 0.0
N103 N 0.22889 0.31908 0.33112 0.0
N104 N 0.23082 0.36255 0.37159 0.0
H105 H 0.21344 0.40852 0.34378 0.0
H106 H 0.2488 0.23987 0.33579 0.0
C107 C 0.23094 0.14565 0.28733 0.0
O108 O 0.21722 0.1285 0.27484 0.0
N109 N 0.22058 0.30252 0.2569 0.0
C110 C 0.21122 0.34715 0.24173 0.0
C111 C 0.2121 0.32355 0.21648 0.0
C112 C 0.22771 0.25489 0.24015 0.0
N113 N 0.22231 0.26484 0.21557 0.0
C114 C 0.18849 0.32097 0.2922 0.0
C115 C 0.18239 0.18865 0.31668 0.0
C116 C 0.16904 0.22577 0.30483 0.0
C117 C 0.1722 0.29421 0.2933 0.0
C118 C 0.19851 0.2172 0.31494 0.0
N119 N 0.20155 0.28021 0.30134 0.0
H120 H 0.19059 0.37423 0.28374 0.0
H121 H 0.20859 0.18747 0.3241 0.0
H122 H 0.20449 0.39504 0.2482 0.0
H123 H 0.23718 0.21543 0.24539 0.0
O124 O 0.22226 0.41764 0.29212 0.0
O125 O 0.24546 0.35314 0.28763 0.0
O126 O 0.23336 0.20973 0.296 0.0
C127 C 0.23832 0.41682 0.28828 0.0
H128 H 0.25071 0.2894 0.38348 0.0
H129 H 0.20558 0.3473 0.20008 0.0
H130 H 0.18048 0.13676 0.3265 0.0
H131 H 0.16216 0.3267 0.28508 0.0
Co132 Co 0.97359 0.77885 0.04172 0.0
C133 C 0.97068 0.74559 0.09897 0.0
C134 C 0.99331 0.79956 0.08897 0.0
C135 C 0.99378 0.78416 0.11493 0.0
N136 N 0.97866 0.77731 0.07884 0.0
N137 N 0.97952 0.75051 0.12133 0.0
H138 H 0.95907 0.71656 0.09736 0.0
H139 H 1.00336 0.82278 0.07793 0.0
C140 C 0.98228 0.93201 0.05613 0.0
O141 O 0.97202 0.92882 0.07569 0.0
N142 N 0.96909 0.78059 1.0047 0.0
C143 C 0.95714 0.74196 0.99249 0.0
C144 C 0.95543 0.76808 0.96757 0.0
C145 C 0.97461 0.82937 0.98688 0.0
N146 N 0.96642 0.82301 0.96402 0.0
C147 C 0.93903 0.76867 0.05786 0.0
C148 C 0.92948 0.90542 0.03938 0.0
C149 C 0.91754 0.86216 0.05165 0.0
C150 C 0.92248 0.79247 0.06078 0.0
C151 C 0.94582 0.87993 0.03707 0.0
N152 N 0.9507 0.81353 0.04717 0.0
H153 H 0.94229 0.71324 0.06346 0.0
H154 H 0.95441 0.91346 0.02644 0.0
H155 H 0.94949 0.7007 1.00155 0.0
H156 H 0.98363 0.87191 0.99097 0.0
O157 O 0.9711 0.67195 0.04281 0.0
O158 O 0.99457 0.73109 0.03589 0.0
O159 O 0.98256 0.88074 0.03945 0.0
C160 C 0.98716 0.66876 0.03922 0.0
H161 H 1.00429 0.7927 0.12775 0.0
H162 H 0.94634 0.75005 0.95343 0.0
H163 H 0.92621 0.95877 0.03144 0.0
H164 H 0.91353 0.75566 0.06936 0.0
Co165 Co 0.79181 0.04022 0.04639 0.0
C166 C 0.79403 0.09346 0.10099 0.0
C167 C 0.77801 -0.00011 0.09702 0.0
C168 C 0.77824 0.02114 0.12253 0.0
N169 N 0.788 0.0447 0.08347 0.0
N170 N 0.78836 0.07974 0.12511 0.0
H171 H 0.80228 0.13823 0.09618 0.0
H172 H 0.7707 0.95566 0.08891 0.0
C173 C 0.79176 0.87329 0.03806 0.0
O174 O 0.80611 0.87264 0.02618 0.0
N175 N 0.79528 0.03642 1.00884 0.0
C176 C 0.80262 0.08873 0.99439 0.0
C177 C 0.80303 0.06632 0.96904 0.0
C178 C 0.79048 0.98463 0.99141 0.0
N179 N 0.7954 0.00067 0.96711 0.0
C180 C 0.82767 0.06149 0.04287 0.0
C181 C 0.83636 0.93598 0.07011 0.0
C182 C 0.84896 0.9747 0.05741 0.0
C183 C 0.84441 0.03968 0.04433 0.0
C184 C 0.81982 0.96006 0.0683 0.0
N185 N 0.81545 0.01914 0.05327 0.0
H186 H 0.8246 0.11219 0.03318 0.0
H187 H 0.8104 0.9289 0.07817 0.0
H188 H 0.8073 0.14053 1.00154 0.0
H189 H 0.78311 0.93696 0.99593 0.0
O190 O 0.79112 0.14822 0.04509 0.0
O191 O 0.76953 0.07479 0.04007 0.0
O192 O 0.78581 0.93316 0.04693 0.0
C193 C 0.77513 0.14142 0.041 0.0
H194 H 0.77098 0.99702 0.13784 0.0
H195 H 0.80891 0.09555 0.95339 0.0
H196 H 0.83908 0.88571 0.08057 0.0
H197 H 0.85372 0.07327 0.03507 0.0
Co198 Co 0.97522 0.04885 0.79693 0.0
C199 C 0.97514 0.09022 0.74008 0.0
C200 C 0.99345 0.00904 0.7498 0.0
C201 C 0.99523 0.02751 0.72427 0.0
N202 N 0.98044 0.04597 0.75982 0.0
N203 N 0.9839 0.07945 0.7181 0.0
H204 H 0.96612 0.13386 0.74215 0.0
H205 H 1.00188 0.97424 0.76064 0.0
C206 C 0.98201 0.88836 0.78802 0.0
O207 O 0.97244 0.88791 0.76732 0.0
N208 N 0.97053 0.05236 0.83382 0.0
C209 C 0.9585 0.09284 0.84488 0.0
C210 C 0.95651 0.0694 0.87002 0.0
C211 C 0.97586 0.00549 0.8526 0.0
N212 N 0.9674 0.01434 0.87488 0.0
C213 C 0.94137 0.05518 0.77595 0.0
C214 C 0.93018 0.93283 0.80229 0.0
C215 C 0.91886 0.97075 0.78637 0.0
C216 C 0.92478 0.03255 0.77287 0.0
C217 C 0.94666 0.95613 0.80433 0.0
N218 N 0.95228 0.01594 0.79095 0.0
H219 H 0.94524 0.10536 0.7668 0.0
H220 H 0.95479 0.92681 0.81747 0.0
H221 H 0.95092 0.13316 0.83485 0.0
H222 H 0.98486 0.96217 0.84956 0.0
O223 O 0.97314 0.15553 0.79448 0.0
O224 O 0.99635 0.09422 0.80307 0.0
O225 O 0.98342 0.94599 0.80169 0.0
C226 C 0.98915 0.15709 0.79913 0.0
H227 H 1.00467 0.0062 0.71152 0.0
H228 H 0.94723 0.08909 0.88336 0.0
H229 H 0.92627 0.88621 0.81375 0.0
H230 H 0.91671 0.06369 0.76006 0.0
Co231 Co 0.79397 0.78002 0.79815 0.0
C232 C 0.79487 0.73604 0.74198 0.0
C233 C 0.77607 0.81606 0.75002 0.0
C234 C 0.77421 0.79377 0.72485 0.0
N235 N 0.78936 0.78192 0.76083 0.0
N236 N 0.78596 0.74318 0.7198 0.0
H237 H 0.80391 0.69284 0.74498 0.0
H238 H 0.76735 0.85033 0.76026 0.0
C239 C 0.78743 0.93891 0.78725 0.0
O240 O 0.79764 0.93703 0.76761 0.0
N241 N 0.79779 0.77781 0.83532 0.0
C242 C 0.80966 0.73999 0.8482 0.0
C243 C 0.81 0.76351 0.87359 0.0
C244 C 0.79096 0.82303 0.85311 0.0
N245 N 0.79839 0.81653 0.87657 0.0
C246 C 0.82803 0.77617 0.77879 0.0
C247 C 0.83844 0.90036 0.80505 0.0
C248 C 0.84972 0.86585 0.78844 0.0
C249 C 0.84433 0.80197 0.77554 0.0
C250 C 0.82224 0.87384 0.80728 0.0
N251 N 0.81694 0.81376 0.79364 0.0
H252 H 0.82453 0.72522 0.76976 0.0
H253 H 0.81399 0.9015 0.82045 0.0
H254 H 0.8181 0.70113 0.83942 0.0
H255 H 0.78106 0.86152 0.84879 0.0
O256 O 0.79636 0.67359 0.7961 0.0
O257 O 0.77283 0.73397 0.80279 0.0
O258 O 0.78563 0.88288 0.80162 0.0
C259 C 0.78025 0.67154 0.79914 0.0
H260 H 0.76428 0.80984 0.71175 0.0
H261 H 0.81879 0.74606 0.88833 0.0
H262 H 0.84213 0.94686 0.81679 0.0
H263 H 0.85265 0.77182 0.76305 0.0
Co264 Co 0.04365 0.7926 0.55379 0.0
C265 C 0.04811 0.82495 0.49713 0.0
C266 C 0.02457 0.77627 0.5054 0.0
C267 C 0.02495 0.7934 0.47953 0.0
N268 N 0.03924 0.79419 0.5165 0.0
N269 N 0.0397 0.82449 0.47429 0.0
H270 H 0.06016 0.84974 0.49973 0.0
H271 H 0.01399 0.7548 0.51566 0.0
C272 C 0.03235 0.64119 0.54021 0.0
O273 O 0.04159 0.64043 0.51941 0.0
N274 N 0.04786 0.79204 0.59087 0.0
C275 C 0.05854 0.83659 0.60345 0.0
C276 C 0.06045 0.81196 0.62851 0.0
C277 C 0.04339 0.74089 0.60857 0.0
N278 N 0.0509 0.75188 0.63172 0.0
C279 C 0.07882 0.79944 0.54094 0.0
C280 C 0.0863 0.65709 0.55626 0.0
C281 C 0.09923 0.70079 0.54698 0.0
C282 C 0.0953 0.77344 0.53948 0.0
C283 C 0.07018 0.68527 0.55767 0.0
N284 N 0.06633 0.75472 0.54917 0.0
H285 H 0.07621 0.85624 0.53621 0.0
H286 H 0.06099 0.65105 0.56662 0.0
H287 H 0.06521 0.88152 0.59464 0.0
H288 H 0.03575 0.69366 0.60431 0.0
O289 O 0.04628 0.90017 0.55246 0.0
O290 O 0.02285 0.84065 0.55904 0.0
O291 O 0.03383 0.69261 0.5566 0.0
C292 C 0.03021 0.903 0.55622 0.0
H293 H 0.01476 0.78758 0.46591 0.0
H294 H 0.06871 0.83484 0.643 0.0
H295 H 0.08862 0.6013 0.56277 0.0
H296 H 0.10493 0.81081 0.53333 0.0
Co297 Co 0.22671 0.56614 0.54366 0.0
C298 C 0.22497 0.62143 0.59836 0.0
C299 C 0.24258 0.53396 0.59379 0.0
C300 C 0.24294 0.55646 0.61916 0.0
N301 N 0.23123 0.57414 0.58065 0.0
N302 N 0.23172 0.61103 0.62215 0.0
H303 H 0.21577 0.66303 0.59418 0.0
H304 H 0.25036 0.49198 0.58546 0.0
C305 C 0.22819 0.40164 0.53177 0.0
O306 O 0.21719 0.40228 0.51291 0.0
N307 N 0.22228 0.56021 0.50658 0.0
C308 C 0.21 0.59641 0.49394 0.0
C309 C 0.2105 0.5789 0.46817 0.0
C310 C 0.23055 0.52343 0.4879 0.0
N311 N 0.22335 0.5327 0.46434 0.0
C312 C 0.19625 0.64091 0.55343 0.0
C313 C 0.17459 0.52487 0.54757 0.0
C314 C 0.16815 0.59668 0.54968 0.0
C315 C 0.17925 0.6544 0.55327 0.0
C316 C 0.19198 0.51348 0.54769 0.0
N317 N 0.20265 0.57167 0.54999 0.0
H318 H 0.20423 0.68805 0.55503 0.0
H319 H 0.19672 0.4585 0.54511 0.0
H320 H 0.20104 0.63261 0.5027 0.0
H321 H 0.24129 0.48879 0.49153 0.0
O322 O 0.2309 0.66957 0.5396 0.0
O323 O 0.25009 0.58282 0.53706 0.0
O324 O 0.22909 0.45527 0.54771 0.0
C325 C 0.24642 0.65243 0.5366 0.0
H326 H 0.25124 0.53557 0.63401 0.0
H327 H 0.20159 0.59616 0.45358 0.0
H328 H 0.16632 0.47857 0.54493 0.0
H329 H 0.17479 0.71047 0.55518 0.0
Co330 Co 0.04472 0.52824 0.79835 0.0
C331 C 0.04535 0.49113 0.85526 0.0
C332 C 0.02492 0.56049 0.84433 0.0
C333 C 0.02304 0.54051 0.86972 0.0
N334 N 0.03913 0.53136 0.83517 0.0
N335 N 0.03584 0.49668 0.8767 0.0
H336 H 0.05561 0.45312 0.85372 0.0
H337 H 0.01586 0.59033 0.83284 0.0
C338 C 0.03621 0.68713 0.80758 0.0
O339 O 0.04462 0.68726 0.82945 0.0
N340 N 0.04987 0.52379 0.76178 0.0
C341 C 0.06311 0.48935 0.75156 0.0
C342 C 0.06491 0.51238 0.72636 0.0
C343 C 0.04357 0.56589 0.74243 0.0
N344 N 0.05266 0.56076 0.72065 0.0
C345 C 0.07909 0.52246 0.818 0.0
C346 C 0.08871 0.65134 0.79392 0.0
C347 C 0.10068 0.61141 0.80776 0.0
C348 C 0.0957 0.5464 0.82018 0.0
C349 C 0.0724 0.62607 0.79238 0.0
N350 N 0.06751 0.56313 0.8047 0.0
H351 H 0.0758 0.46975 0.82596 0.0
H352 H 0.06391 0.65605 0.78002 0.0
H353 H 0.07158 0.45422 0.76227 0.0
H354 H 0.03323 0.60309 0.74472 0.0
O355 O 0.04669 0.42077 0.80092 0.0
O356 O 0.02378 0.48305 0.7917 0.0
O357 O 0.03611 0.6306 0.79316 0.0
C358 C 0.03074 0.41986 0.79556 0.0
H359 H 0.01253 0.55395 0.88175 0.0
H360 H 0.07498 0.49766 0.71363 0.0
H361 H 0.09203 0.70115 0.7837 0.0
H362 H 0.1047 0.51279 0.8305 0.0
Co363 Co 0.22398 0.81283 0.79311 0.0
C364 C 0.22377 0.85783 0.84918 0.0
C365 C 0.24488 0.79215 0.83946 0.0
C366 C 0.2468 0.81593 0.86449 0.0
N367 N 0.2302 0.8163 0.82985 0.0
N368 N 0.23365 0.85826 0.87059 0.0
H369 H 0.2128 0.89158 0.84718 0.0
H370 H 0.25412 0.76238 0.82859 0.0
C371 C 0.23528 0.65927 0.8051 0.0
O372 O 0.22668 0.65687 0.82653 0.0
N373 N 0.2185 0.81048 0.75654 0.0
C374 C 0.20586 0.84515 0.74433 0.0
C375 C 0.20554 0.82295 0.71878 0.0
C376 C 0.22571 0.76825 0.73832 0.0
N377 N 0.21792 0.77392 0.71518 0.0
C378 C 0.18992 0.81595 0.81249 0.0
C379 C 0.18125 0.68016 0.79245 0.0
C380 C 0.16909 0.72092 0.80526 0.0
C381 C 0.17361 0.78953 0.81561 0.0
C382 C 0.19729 0.70809 0.78992 0.0
N383 N 0.2017 0.77452 0.80033 0.0
H384 H 0.1928 0.87094 0.81884 0.0
H385 H 0.20593 0.67694 0.77847 0.0
H386 H 0.19718 0.8821 0.75353 0.0
H387 H 0.23636 0.73335 0.74191 0.0
O388 O 0.22071 0.91922 0.7939 0.0
O389 O 0.24428 0.861 0.78544 0.0
O390 O 0.23371 0.71291 0.78964 0.0
C391 C 0.23658 0.92273 0.78863 0.0
H392 H 0.25729 0.8038 0.87698 0.0
H393 H 0.1965 0.83934 0.70425 0.0
H394 H 0.17828 0.62745 0.78384 0.0
H395 H 0.16446 0.82377 0.82503 0.0
Co396 Co 0.97358 0.27038 0.54254 0.0
C397 C 0.97288 0.22746 0.59911 0.0
C398 C 0.98842 0.32033 0.59189 0.0
C399 C 0.99025 0.30061 0.61732 0.0
N400 N 0.97713 0.2763 0.58026 0.0
N401 N 0.9807 0.24153 0.62194 0.0
H402 H 0.96544 0.17891 0.59576 0.0
H403 H 0.99611 0.36014 0.58228 0.0
C404 C 0.97824 0.43355 0.54927 0.0
O405 O 0.96677 0.4365 0.56713 0.0
N406 N 0.97077 0.26433 0.50507 0.0
C407 C 0.95959 0.22333 0.49206 0.0
C408 C 0.95946 0.24478 0.46642 0.0
C409 C 0.97738 0.3095 0.48704 0.0
N410 N 0.97062 0.29933 0.46327 0.0
C411 C 0.93925 0.26933 0.56132 0.0
C412 C 0.92849 0.3846 0.53035 0.0
C413 C 0.91706 0.35244 0.54713 0.0
C414 C 0.92267 0.29404 0.56285 0.0
C415 C 0.94484 0.35871 0.5295 0.0
N416 N 0.95028 0.30272 0.5452 0.0
H417 H 0.9431 0.22283 0.57285 0.0
H418 H 0.9532 0.3845 0.51609 0.0
H419 H 0.95133 0.18403 0.5009 0.0
H420 H 0.98646 0.35136 0.49131 0.0
O421 O 0.97188 0.16371 0.54561 0.0
O422 O 0.99514 0.22591 0.53978 0.0
O423 O 0.98146 0.37322 0.53801 0.0
C424 C 0.98807 0.16291 0.54334 0.0
H425 H 0.99883 0.32512 0.63102 0.0
H426 H 0.95094 0.22521 0.45169 0.0
H427 H 0.92489 0.43024 0.51802 0.0
H428 H 0.91422 0.26675 0.57587 0.0
Co429 Co 0.79182 0.54265 0.54755 0.0
C430 C 0.79318 0.58897 0.60322 0.0
C431 C 0.78122 0.48459 0.598 0.0
C432 C 0.78019 0.50391 0.62357 0.0
N433 N 0.78943 0.53756 0.58508 0.0
N434 N 0.78748 0.5699 0.62685 0.0
H435 H 0.7991 0.64093 0.59902 0.0
H436 H 0.77575 0.43609 0.58947 0.0
C437 C 0.79164 0.37363 0.54015 0.0
O438 O 0.80758 0.36557 0.53587 0.0
N439 N 0.79347 0.54739 0.50952 0.0
C440 C 0.79268 0.60838 0.49453 0.0
C441 C 0.79311 0.58841 0.46884 0.0
C442 C 0.79455 0.49127 0.49226 0.0
N443 N 0.79422 0.51462 0.46747 0.0
C444 C 0.82688 0.55179 0.53467 0.0
C445 C 0.83776 0.44542 0.56922 0.0
C446 C 0.84914 0.47307 0.55134 0.0
C447 C 0.84358 0.5289 0.53448 0.0
C448 C 0.82121 0.46972 0.56878 0.0
N449 N 0.81568 0.51966 0.5508 0.0
H450 H 0.82292 0.59435 0.5214 0.0
H451 H 0.81264 0.44407 0.58187 0.0
H452 H 0.79182 0.66417 0.50152 0.0
H453 H 0.79523 0.43405 0.49716 0.0
O454 O 0.79161 0.65054 0.54977 0.0
O455 O 0.76941 0.58021 0.54549 0.0
O456 O 0.78529 0.43654 0.54483 0.0
C457 C 0.77541 0.64578 0.54827 0.0
H458 H 0.77406 0.47266 0.63851 0.0
H459 H 0.79279 0.62546 0.45246 0.0
H460 H 0.84141 0.40274 0.58277 0.0
H461 H 0.85203 0.5544 0.52103 0.0
Co462 Co 0.97509 0.54456 0.29557 0.0
C463 C 0.97313 0.60864 0.24188 0.0
C464 C 0.98203 0.49736 0.24187 0.0
C465 C 0.98132 0.52182 0.21683 0.0
N466 N 0.97688 0.55143 0.25785 0.0
N467 N 0.97579 0.59175 0.21671 0.0
H468 H 0.96838 0.66109 0.2484 0.0
H469 H 0.98592 0.44286 0.24758 0.0
C470 C 0.98247 0.37726 0.29923 0.0
O471 O 0.96871 0.35524 0.31025 0.0
N472 N 0.97333 0.53687 0.33349 0.0
C473 C 0.96601 0.58623 0.34924 0.0
C474 C 0.96569 0.55864 0.37405 0.0
C475 C 0.97792 0.48094 0.34957 0.0
N476 N 0.97299 0.4918 0.37427 0.0
C477 C 0.93961 0.55409 0.30208 0.0
C478 C 0.93173 0.42542 0.27637 0.0
C479 C 0.91901 0.46416 0.28876 0.0
C480 C 0.92306 0.53046 0.30112 0.0
C481 C 0.94807 0.45134 0.27761 0.0
N482 N 0.95201 0.51292 0.29149 0.0
H483 H 0.94243 0.60554 0.31144 0.0
H484 H 0.95754 0.42107 0.26755 0.0
H485 H 0.9609 0.6386 0.34321 0.0
H486 H 0.98515 0.43404 0.34381 0.0
O487 O 0.97276 0.65145 0.29741 0.0
O488 O 0.99641 0.58923 0.29939 0.0
O489 O 0.98469 0.44435 0.29381 0.0
C490 C 0.98899 0.65236 0.29917 0.0
H491 H 0.98491 0.49079 0.19992 0.0
H492 H 0.96001 0.58494 0.39052 0.0
H493 H 0.92906 0.37554 0.26569 0.0
H494 H 0.91357 0.56314 0.31043 0.0
Co495 Co 0.7934 0.28862 0.29783 0.0
C496 C 0.79675 0.243 0.24202 0.0
C497 C 0.777 0.32008 0.24785 0.0
C498 C 0.77664 0.29822 0.22244 0.0
N499 N 0.78994 0.28762 0.26019 0.0
N500 N 0.78897 0.24932 0.21874 0.0
H501 H 0.80651 0.20366 0.24589 0.0
H502 H 0.76767 0.35374 0.25701 0.0
C503 C 0.78619 0.44719 0.28534 0.0
O504 O 0.79653 0.4468 0.26586 0.0
N505 N 0.79625 0.28962 0.33543 0.0
C506 C 0.8011 0.23367 0.3509 0.0
C507 C 0.8014 0.25786 0.37619 0.0
C508 C 0.79381 0.34711 0.35169 0.0
N509 N 0.79676 0.32933 0.37674 0.0
C510 C 0.82804 0.27212 0.28418 0.0
C511 C 0.83835 0.40696 0.30296 0.0
C512 C 0.85016 0.36087 0.29152 0.0
C513 C 0.8448 0.29235 0.28212 0.0
C514 C 0.82178 0.38482 0.30452 0.0
N515 N 0.8166 0.31915 0.29443 0.0
H516 H 0.82439 0.21789 0.27802 0.0
H517 H 0.81326 0.42057 0.31441 0.0
H518 H 0.80425 0.17891 0.34441 0.0
H519 H 0.79051 0.40176 0.3453 0.0
O520 O 0.79546 0.1821 0.29687 0.0
O521 O 0.772 0.24452 0.30148 0.0
O522 O 0.7849 0.39116 0.29979 0.0
C523 C 0.77929 0.18134 0.29899 0.0
H524 H 0.76728 0.31308 0.20821 0.0
H525 H 0.80469 0.22492 0.3929 0.0
H526 H 0.84194 0.45935 0.31122 0.0
H527 H 0.85344 0.25454 0.27321 0.0
Co528 Co 0.54303 0.28906 0.54136 0.0
C529 C 0.54446 0.35228 0.48762 0.0
C530 C 0.53578 0.24107 0.48752 0.0
C531 C 0.53608 0.26589 0.46248 0.0
N532 N 0.54101 0.29491 0.50356 0.0
N533 N 0.54145 0.33594 0.46242 0.0
H534 H 0.54926 0.40454 0.49422 0.0
H535 H 0.53217 0.18663 0.49324 0.0
C536 C 0.5362 0.12392 0.54885 0.0
O537 O 0.54965 0.1094 0.56253 0.0
N538 N 0.54517 0.28458 0.57948 0.0
C539 C 0.55357 0.33406 0.59399 0.0
C540 C 0.55477 0.30938 0.61906 0.0
C541 C 0.54049 0.23234 0.59687 0.0
N542 N 0.54677 0.24476 0.62086 0.0
C543 C 0.57903 0.29167 0.54834 0.0
C544 C 0.58513 0.15828 0.52449 0.0
C545 C 0.5984 0.19331 0.53712 0.0
C546 C 0.59519 0.26196 0.54865 0.0
C547 C 0.56925 0.19012 0.52449 0.0
N548 N 0.56606 0.25392 0.5376 0.0
H549 H 0.577 0.34489 0.55689 0.0
H550 H 0.55942 0.16153 0.51451 0.0
H551 H 0.55897 0.38435 0.58685 0.0
H552 H 0.53279 0.18573 0.59247 0.0
O553 O 0.5452 0.39705 0.54258 0.0
O554 O 0.52176 0.33515 0.54466 0.0
O555 O 0.53333 0.18803 0.54006 0.0
C556 C 0.52898 0.39841 0.54434 0.0
H557 H 0.53232 0.23497 0.44556 0.0
H558 H 0.56144 0.33602 0.63468 0.0
H559 H 0.58681 0.10536 0.51529 0.0
H560 H 0.6051 0.29261 0.5579 0.0
Co561 Co 0.72492 0.04943 0.53803 0.0
C562 C 0.7239 0.09929 0.59377 0.0
C563 C 0.74423 0.02682 0.58603 0.0
C564 C 0.7458 0.05214 0.61102 0.0
N565 N 0.73034 0.05534 0.57509 0.0
N566 N 0.7331 0.09851 0.61582 0.0
H567 H 0.71327 0.13452 0.59127 0.0
H568 H 0.753 0.99171 0.5762 0.0
C569 C 0.72826 0.89115 0.55612 0.0
O570 O 0.72132 0.90398 0.57853 0.0
N571 N 0.71999 0.04446 0.50124 0.0
C572 C 0.70921 0.08739 0.48804 0.0
C573 C 0.70844 0.06356 0.46281 0.0
C574 C 0.72578 0.9956 0.48374 0.0
N575 N 0.71879 0.00549 0.46001 0.0
C576 C 0.69444 0.11985 0.55078 0.0
C577 C 0.67293 0.00753 0.53822 0.0
C578 C 0.66632 0.07688 0.54483 0.0
C579 C 0.67741 0.13254 0.55158 0.0
C580 C 0.69034 0.99629 0.53838 0.0
N581 N 0.70092 0.05246 0.54464 0.0
H582 H 0.70237 0.16652 0.55401 0.0
H583 H 0.69526 0.94386 0.53219 0.0
H584 H 0.70216 0.1322 0.49628 0.0
H585 H 0.73505 0.95437 0.48835 0.0
O586 O 0.72862 0.15359 0.53516 0.0
O587 O 0.74805 0.06828 0.53065 0.0
O588 O 0.72723 0.93857 0.53798 0.0
C589 C 0.7441 0.13763 0.53114 0.0
H590 H 0.75568 0.03795 0.62443 0.0
H591 H 0.70052 0.08639 0.4478 0.0
H592 H 0.66477 0.96308 0.53253 0.0
H593 H 0.67295 0.18732 0.55614 0.0
Co594 Co 0.54508 0.01979 0.78842 0.0
C595 C 0.54633 0.97763 0.84518 0.0
C596 C 0.52855 0.06219 0.83672 0.0
C597 C 0.52679 0.04157 0.86203 0.0
N598 N 0.54114 0.0241 0.82597 0.0
N599 N 0.53787 0.988 0.86751 0.0
H600 H 0.55489 0.93251 0.84231 0.0
H601 H 0.52008 0.09811 0.82643 0.0
C602 C 0.5387 0.18032 0.7966 0.0
O603 O 0.54972 0.1823 0.81547 0.0
N604 N 0.54832 0.01504 0.75106 0.0
C605 C 0.55966 0.97318 0.73892 0.0
C606 C 0.5606 0.99543 0.71346 0.0
C607 C 0.54234 0.06158 0.73258 0.0
N608 N 0.54978 0.05129 0.70951 0.0
C609 C 0.57956 0.01959 0.8076 0.0
C610 C 0.58919 0.14007 0.77868 0.0
C611 C 0.60109 0.10583 0.7945 0.0
C612 C 0.59607 0.04501 0.8093 0.0
C613 C 0.57297 0.11329 0.77759 0.0
N614 N 0.5681 0.05461 0.79225 0.0
H615 H 0.57618 0.97082 0.81812 0.0
H616 H 0.56434 0.14 0.76454 0.0
H617 H 0.5675 0.93259 0.74832 0.0
H618 H 0.53367 0.10581 0.73626 0.0
O619 O 0.54749 0.91328 0.79137 0.0
O620 O 0.52391 0.97363 0.78446 0.0
O621 O 0.53645 0.1215 0.78391 0.0
C622 C 0.53132 0.91128 0.78838 0.0
H623 H 0.51731 0.06139 0.875 0.0
H624 H 0.56921 0.97464 0.69926 0.0
H625 H 0.59239 0.18734 0.76699 0.0
H626 H 0.60494 0.01604 0.82147 0.0
Co627 Co 0.72533 0.30343 0.78648 0.0
C628 C 0.7243 0.34525 0.84282 0.0
C629 C 0.7447 0.27442 0.83386 0.0
C630 C 0.74631 0.29629 0.85917 0.0
N631 N 0.73061 0.30303 0.82358 0.0
N632 N 0.73347 0.34081 0.86492 0.0
H633 H 0.71388 0.38214 0.84046 0.0
H634 H 0.75387 0.24367 0.82319 0.0
C635 C 0.7335 0.14599 0.79778 0.0
O636 O 0.72434 0.14797 0.81864 0.0
N637 N 0.72075 0.30476 0.74953 0.0
C638 C 0.7074 0.33462 0.73765 0.0
C639 C 0.70718 0.3122 0.71217 0.0
C640 C 0.72863 0.26583 0.73103 0.0
N641 N 0.72052 0.26869 0.70801 0.0
C642 C 0.69085 0.30815 0.80463 0.0
C643 C 0.68163 0.17748 0.78124 0.0
C644 C 0.66953 0.21707 0.79464 0.0
C645 C 0.67434 0.28311 0.80666 0.0
C646 C 0.69784 0.20407 0.77976 0.0
N647 N 0.70255 0.2677 0.79189 0.0
H648 H 0.69396 0.36141 0.81235 0.0
H649 H 0.70643 0.17419 0.76781 0.0
H650 H 0.698 0.36712 0.74717 0.0
H651 H 0.73961 0.23314 0.73469 0.0
O652 O 0.72278 0.4104 0.78823 0.0
O653 O 0.74616 0.35003 0.78072 0.0
O654 O 0.7342 0.20133 0.78282 0.0
C655 C 0.73881 0.41256 0.78412 0.0
H656 H 0.75679 0.28452 0.87177 0.0
H657 H 0.69766 0.3252 0.69798 0.0
H658 H 0.67853 0.12661 0.77146 0.0
H659 H 0.66527 0.31651 0.81664 0.0
Co660 Co 0.47378 0.77279 0.54597 0.0
C661 C 0.46919 0.71864 0.60043 0.0
C662 C 0.49022 0.78974 0.59603 0.0
C663 C 0.48952 0.76805 0.62138 0.0
N664 N 0.47732 0.76041 0.58293 0.0
N665 N 0.47637 0.72339 0.62418 0.0
H666 H 0.45858 0.68453 0.59583 0.0
H667 H 0.49999 0.82181 0.58744 0.0
C668 C 0.47822 0.94034 0.5452 0.0
O669 O 0.46425 0.95527 0.53294 0.0
N670 N 0.47081 0.78546 0.50829 0.0
C671 C 0.46409 0.7357 0.49194 0.0
C672 C 0.46351 0.76451 0.46733 0.0
C673 C 0.4749 0.84294 0.49271 0.0
N674 N 0.47014 0.83246 0.46776 0.0
C675 C 0.43794 0.77259 0.53835 0.0
C676 C 0.4311 0.88848 0.57115 0.0
C677 C 0.41811 0.86081 0.55571 0.0
C678 C 0.42171 0.80082 0.53958 0.0
C679 C 0.44718 0.85865 0.56927 0.0
N680 N 0.45068 0.80404 0.55195 0.0
H681 H 0.44023 0.72571 0.52619 0.0
H682 H 0.45697 0.8815 0.58117 0.0
H683 H 0.45968 0.68184 0.4974 0.0
H684 H 0.48181 0.89031 0.49899 0.0
O685 O 0.47155 0.66618 0.54289 0.0
O686 O 0.4951 0.72773 0.54017 0.0
O687 O 0.48263 0.87454 0.54988 0.0
C688 C 0.48772 0.66454 0.54049 0.0
H689 H 0.49851 0.78082 0.63639 0.0
H690 H 0.45827 0.73778 0.45047 0.0
H691 H 0.42904 0.9345 0.584 0.0
H692 H 0.41203 0.77585 0.52792 0.0
Co693 Co 0.29401 0.06008 0.53971 0.0
C694 C 0.29595 0.11209 0.59491 0.0
C695 C 0.27902 0.02229 0.5895 0.0
C696 C 0.27884 0.04243 0.61507 0.0
N697 N 0.28986 0.06513 0.57678 0.0
N698 N 0.28952 0.09857 0.61861 0.0
H699 H 0.30476 0.15532 0.59084 0.0
H700 H 0.27137 0.98026 0.58073 0.0
C701 C 0.29422 0.89129 0.53475 0.0
O702 O 0.30924 0.88664 0.52516 0.0
N703 N 0.29753 0.05491 0.50205 0.0
C704 C 0.30289 0.1098 0.48661 0.0
C705 C 0.30359 0.08519 0.46141 0.0
C706 C 0.2944 -0.00141 0.48545 0.0
N707 N 0.29844 0.01482 0.46075 0.0
C708 C 0.33004 0.07196 0.53348 0.0
C709 C 0.3381 0.96044 0.56783 0.0
C710 C 0.35087 0.99073 0.55296 0.0
C711 C 0.34665 0.04833 0.53595 0.0
C712 C 0.3217 0.98537 0.56468 0.0
N713 N 0.31763 0.03812 0.54679 0.0
H714 H 0.32723 0.11684 0.52056 0.0
H715 H 0.3121 0.95928 0.57587 0.0
H716 H 0.30621 0.16437 0.4931 0.0
H717 H 0.28863 0.94751 0.49073 0.0
O718 O 0.29339 0.16816 0.53844 0.0
O719 O 0.27177 0.09517 0.53334 0.0
O720 O 0.28795 0.95346 0.54063 0.0
C721 C 0.27734 0.16179 0.53474 0.0
H722 H 0.27093 0.01932 0.62978 0.0
H723 H 0.30784 0.11628 0.44491 0.0
H724 H 0.3406 0.91559 0.5811 0.0
H725 H 0.35611 0.07477 0.5245 0.0
Co726 Co 0.47469 0.05366 0.29957 0.0
C727 C 0.47426 0.09398 0.24264 0.0
C728 C 0.49159 0.00822 0.25184 0.0
C729 C 0.49331 0.02616 0.22628 0.0
N730 N 0.47921 0.04841 0.26224 0.0
N731 N 0.48265 0.0811 0.22043 0.0
H732 H 0.46583 0.1398 0.24501 0.0
H733 H 0.49978 0.97173 0.26242 0.0
C734 C 0.48004 0.89165 0.29123 0.0
O735 O 0.46989 0.89237 0.27121 0.0
N736 N 0.47077 0.05955 0.33671 0.0
C737 C 0.45895 0.09981 0.34839 0.0
C738 C 0.45799 0.07847 0.37397 0.0
C739 C 0.47696 0.01494 0.3555 0.0
N740 N 0.46927 0.02469 0.37844 0.0
C741 C 0.44058 0.06017 0.27926 0.0
C742 C 0.4297 0.93845 0.30634 0.0
C743 C 0.41854 0.97317 0.28934 0.0
C744 C 0.42408 0.03598 0.27608 0.0
C745 C 0.44596 0.96403 0.30886 0.0
N746 N 0.45152 0.02259 0.29476 0.0
H747 H 0.44442 0.10961 0.26956 0.0
H748 H 0.45408 0.93654 0.32251 0.0
H749 H 0.45082 0.13848 0.33858 0.0
H750 H 0.48649 0.97427 0.3523 0.0
O751 O 0.47323 0.1607 0.29652 0.0
O752 O 0.49616 0.09684 0.30436 0.0
O753 O 0.48238 0.94964 0.30449 0.0
C754 C 0.48934 0.16043 0.30029 0.0
H755 H 0.50234 0.00259 0.21331 0.0
H756 H 0.44886 0.09749 0.38767 0.0
H757 H 0.42585 0.89217 0.31802 0.0
H758 H 0.41578 0.06594 0.26326 0.0
Co759 Co 0.29393 0.78359 0.29161 0.0
C760 C 0.29661 0.73327 0.23634 0.0
C761 C 0.28116 0.82885 0.24041 0.0
C762 C 0.28072 0.80717 0.21503 0.0
N763 N 0.29125 0.78323 0.25394 0.0
N764 N 0.29045 0.74724 0.2123 0.0
H765 H 0.30442 0.68651 0.24111 0.0
H766 H 0.27385 0.87298 0.24846 0.0
C767 C 0.28808 0.95193 0.29491 0.0
O768 O 0.30333 0.97443 0.29919 0.0
N769 N 0.29589 0.7846 0.32965 0.0
C770 C 0.29323 0.72743 0.34578 0.0
C771 C 0.29395 0.75151 0.37094 0.0
C772 C 0.29843 0.84276 0.34574 0.0
N773 N 0.29733 0.82414 0.37109 0.0
C774 C 0.32896 0.78238 0.30347 0.0
C775 C 0.33784 0.89299 0.26955 0.0
C776 C 0.35016 0.86227 0.28561 0.0
C777 C 0.34554 0.80561 0.30255 0.0
C778 C 0.32144 0.86773 0.27093 0.0
N779 N 0.31704 0.81482 0.28835 0.0
H780 H 0.32564 0.7387 0.31662 0.0
H781 H 0.31216 0.89237 0.2584 0.0
H782 H 0.29045 0.67174 0.34001 0.0
H783 H 0.30101 0.89777 0.33923 0.0
O784 O 0.29623 0.67695 0.2907 0.0
O785 O 0.2726 0.73933 0.29417 0.0
O786 O 0.2847 0.88436 0.29247 0.0
C787 C 0.27997 0.67635 0.29195 0.0
H788 H 0.27297 0.83122 0.20003 0.0
H789 H 0.29137 0.71812 0.38772 0.0
H790 H 0.34087 0.93613 0.25595 0.0
H791 H 0.3546 0.78033 0.31538 0.0
Co792 Co 0.54273 0.7919 0.04251 0.0
C793 C 0.54443 0.83024 0.98562 0.0
C794 C 0.52451 0.75716 0.99457 0.0
C795 C 0.52312 0.77698 0.96905 0.0
N796 N 0.53815 0.78841 1.00511 0.0
N797 N 0.53557 0.82333 0.96326 0.0
H798 H 0.55418 0.87021 0.98824 0.0
H799 H 0.51536 0.72619 1.00513 0.0
C800 C 0.53378 0.6328 0.03408 0.0
O801 O 0.54276 0.62903 1.01306 0.0
N802 N 0.54688 0.79708 0.07961 0.0
C803 C 0.55871 0.83743 0.09148 0.0
C804 C 0.5597 0.8167 0.11714 0.0
C805 C 0.54077 0.75294 0.0983 0.0
N806 N 0.54849 0.76316 0.12131 0.0
C807 C 0.57734 0.78634 1.02456 0.0
C808 C 0.58535 0.66029 0.05215 0.0
C809 C 0.59779 0.69369 0.03767 0.0
C810 C 0.59362 0.75733 1.02349 0.0
C811 C 0.56942 0.69045 0.05258 0.0
N812 N 0.56532 0.75199 0.03857 0.0
H813 H 0.57465 0.83753 1.01486 0.0
H814 H 0.56049 0.6648 0.06506 0.0
H815 H 0.56676 0.87597 0.08181 0.0
H816 H 0.53123 0.71251 0.09508 0.0
O817 O 0.54568 0.89866 0.03978 0.0
O818 O 0.52199 0.84131 0.04691 0.0
O819 O 0.53326 0.69141 0.04739 0.0
C820 C 0.52962 0.90293 0.04359 0.0
H821 H 0.51311 0.76156 0.95609 0.0
H822 H 0.56873 0.8359 0.13119 0.0
H823 H 0.58799 0.61148 0.06353 0.0
H824 H 0.60298 0.78588 1.01248 0.0
Co825 Co 0.7245 0.54718 0.03821 0.0
C826 C 0.72658 0.61917 0.09065 0.0
C827 C 0.73053 0.50273 0.09285 0.0
C828 C 0.73088 0.53099 0.11745 0.0
N829 N 0.72763 0.55765 0.07578 0.0
N830 N 0.72827 0.6042 0.11622 0.0
H831 H 0.72416 0.67354 0.08305 0.0
H832 H 0.73202 0.44524 0.08821 0.0
C833 C 0.72673 0.38106 0.02792 0.0
O834 O 0.71708 0.37966 1.00737 0.0
N835 N 0.72137 0.53853 1.0008 0.0
C836 C 0.70911 0.57149 0.98713 0.0
C837 C 0.71017 0.55062 0.9617 0.0
C838 C 0.73027 0.50081 0.983 0.0
N839 N 0.72331 0.50518 0.95901 0.0
C840 C 0.69426 0.61811 0.05129 0.0
C841 C 0.67211 0.5132 0.03414 0.0
C842 C 0.66598 0.58163 0.04253 0.0
C843 C 0.67733 0.63353 0.05156 0.0
C844 C 0.68939 0.49907 0.03477 0.0
N845 N 0.70031 0.55203 0.04286 0.0
H846 H 0.70252 0.66181 0.0567 0.0
H847 H 0.69391 0.44715 0.0277 0.0
H848 H 0.69973 0.60731 0.99514 0.0
H849 H 0.74132 0.46935 0.9877 0.0
O850 O 0.72841 0.65069 0.03367 0.0
O851 O 0.74798 0.56474 0.03354 0.0
O852 O 0.72677 0.43668 0.043 0.0
C853 C 0.7441 0.63418 0.03242 0.0
H854 H 0.73274 0.49954 0.13502 0.0
H855 H 0.70146 0.56553 0.94651 0.0
H856 H 0.66368 0.47151 0.02696 0.0
H857 H 0.67317 0.68731 0.05788 0.0
Co858 Co 0.5434 0.53336 0.28872 0.0
C859 C 0.5465 0.49676 0.3457 0.0
C860 C 0.52509 0.56195 0.33647 0.0
C861 C 0.52459 0.54426 0.36224 0.0
N862 N 0.53909 0.53438 0.326 0.0
N863 N 0.53809 0.50346 0.36819 0.0
H864 H 0.55719 0.46153 0.34354 0.0
H865 H 0.51531 0.58953 0.32573 0.0
C866 C 0.53513 0.68959 0.30046 0.0
O867 O 0.54537 0.68837 0.32036 0.0
N868 N 0.54709 0.53238 0.25162 0.0
C869 C 0.55843 0.49179 0.23898 0.0
C870 C 0.55951 0.51731 0.2139 0.0
C871 C 0.54136 0.58167 0.23398 0.0
N872 N 0.54894 0.57457 0.2109 0.0
C873 C 0.5782 0.52926 0.30555 0.0
C874 C 0.58686 0.66025 0.28203 0.0
C875 C 0.59913 0.62129 0.29564 0.0
C876 C 0.59466 0.5548 0.30752 0.0
C877 C 0.57061 0.63366 0.28095 0.0
N878 N 0.5662 0.56996 0.29324 0.0
H879 H 0.57532 0.47552 0.31304 0.0
H880 H 0.5617 0.66382 0.26938 0.0
H881 H 0.56611 0.44956 0.24779 0.0
H882 H 0.53223 0.62355 0.23811 0.0
O883 O 0.54639 0.42677 0.29071 0.0
O884 O 0.52254 0.48465 0.28381 0.0
O885 O 0.5341 0.63474 0.28538 0.0
C886 C 0.53028 0.42286 0.28736 0.0
H887 H 0.51441 0.55595 0.37513 0.0
H888 H 0.56814 0.4981 0.19946 0.0
H889 H 0.58985 0.71082 0.27202 0.0
H890 H 0.60393 0.52151 0.31736 0.0
Co891 Co 0.72331 0.81527 0.28562 0.0
C892 C 0.72022 0.85127 0.34223 0.0
C893 C 0.74108 0.78214 0.33426 0.0
C894 C 0.74163 0.80099 0.35997 0.0
N895 N 0.72735 0.81143 0.32307 0.0
N896 N 0.7285 0.84448 0.36504 0.0
H897 H 0.70985 0.88818 0.33945 0.0
H898 H 0.75075 0.75302 0.32408 0.0
C899 C 0.73209 0.65697 0.29593 0.0
O900 O 0.72246 0.65396 0.31628 0.0
N901 N 0.71994 0.81998 0.24815 0.0
C902 C 0.7147 0.87799 0.23391 0.0
C903 C 0.71491 0.85897 0.20804 0.0
C904 C 0.72304 0.76643 0.23062 0.0
N905 N 0.72021 0.78877 0.20607 0.0
C906 C 0.68856 0.82548 0.30096 0.0
C907 C 0.67913 0.69203 0.27986 0.0
C908 C 0.66723 0.73327 0.29307 0.0
C909 C 0.67207 0.80118 0.3036 0.0
C910 C 0.69543 0.71754 0.27808 0.0
N911 N 0.70022 0.78243 0.28925 0.0
H912 H 0.69178 0.87967 0.30774 0.0
H913 H 0.70409 0.685 0.26716 0.0
H914 H 0.71098 0.93069 0.24164 0.0
H915 H 0.7273 0.71176 0.23547 0.0
O916 O 0.72154 0.92246 0.28848 0.0
O917 O 0.74456 0.85885 0.28188 0.0
O918 O 0.73202 0.7135 0.28159 0.0
C919 C 0.73769 0.92219 0.28554 0.0
H920 H 0.75158 0.78807 0.37344 0.0
H921 H 0.71112 0.89366 0.19202 0.0
H922 H 0.67585 0.64016 0.2709 0.0
H923 H 0.66308 0.8361 0.31312 0.0
Co924 Co 0.47377 0.27613 0.04516 0.0
C925 C 0.47314 0.23261 0.10175 0.0
C926 C 0.49066 0.31746 0.09346 0.0
C927 C 0.49253 0.29762 0.11886 0.0
N928 N 0.47811 0.279 0.08261 0.0
N929 N 0.48175 0.24331 0.12415 0.0
H930 H 0.46456 0.1877 0.09887 0.0
H931 H 0.49895 0.35338 0.08318 0.0
C932 C 0.47938 0.43794 0.05409 0.0
O933 O 0.46968 0.43897 0.07436 0.0
N934 N 0.47009 0.27285 1.00794 0.0
C935 C 0.45902 0.2305 0.99526 0.0
C936 C 0.45815 0.25313 0.9698 0.0
C937 C 0.47588 0.32028 0.98996 0.0
N938 N 0.46872 0.30985 0.96653 0.0
C939 C 0.43922 0.27028 0.06344 0.0
C940 C 0.429 0.39304 0.03576 0.0
C941 C 0.41719 0.35573 0.05038 0.0
C942 C 0.4225 0.29383 0.06463 0.0
C943 C 0.44536 0.36793 0.03505 0.0
N944 N 0.45054 0.30805 0.04908 0.0
H945 H 0.44288 0.2207 0.07344 0.0
H946 H 0.4538 0.39653 1.02253 0.0
H947 H 0.45137 0.18905 1.00424 0.0
H948 H 0.48468 0.3636 0.99404 0.0
O949 O 0.47254 0.1686 0.04695 0.0
O950 O 0.49529 0.23363 0.04075 0.0
O951 O 0.48146 0.37944 0.04118 0.0
C952 C 0.48864 0.16953 0.04338 0.0
H953 H 0.50186 0.31878 0.13206 0.0
H954 H 0.44959 0.23258 0.9553 0.0
H955 H 0.42558 0.4412 1.02453 0.0
H956 H 0.41371 0.26259 0.0759 0.0
Co957 Co 0.29084 0.53307 0.04066 0.0
C958 C 0.29364 0.5825 0.09566 0.0
C959 C 0.27705 0.49152 0.09166 0.0
C960 C 0.27689 0.5147 0.11702 0.0
N961 N 0.28799 0.53241 0.07827 0.0
N962 N 0.28726 0.57233 0.11954 0.0
H963 H 0.30156 0.62794 0.09074 0.0
H964 H 0.26902 0.45007 0.0834 0.0
C965 C 0.28956 0.37076 0.05213 0.0
O966 O 0.29994 0.37985 0.07158 0.0
N967 N 0.29347 0.53615 1.00339 0.0
C968 C 0.30463 0.57851 0.99116 0.0
C969 C 0.30602 0.5547 0.96605 0.0
C970 C 0.28789 0.48826 0.98528 0.0
N971 N 0.29557 0.49777 0.96237 0.0
C972 C 0.32594 0.54846 0.05764 0.0
C973 C 0.33675 0.42511 0.03132 0.0
C974 C 0.34829 0.4633 0.0465 0.0
C975 C 0.34272 0.5261 0.05976 0.0
C976 C 0.3203 0.44904 0.02977 0.0
N977 N 0.31472 0.50822 0.04362 0.0
H978 H 0.32224 0.59894 0.06675 0.0
H979 H 0.31201 0.41903 1.01718 0.0
H980 H 0.3122 0.61999 1.00045 0.0
H981 H 0.27931 0.44432 0.98921 0.0
O982 O 0.29038 0.64134 0.04139 0.0
O983 O 0.26849 0.56965 0.03696 0.0
O984 O 0.28493 0.42551 0.03835 0.0
C985 C 0.27425 0.63589 0.03857 0.0
H986 H 0.269 0.49352 0.1321 0.0
H987 H 0.31477 0.57483 0.95197 0.0
H988 H 0.34039 0.37654 1.02063 0.0
H989 H 0.35133 0.55867 0.07111 0.0
Co990 Co 0.47526 0.54587 0.80007 0.0
C991 C 0.47077 0.57991 0.74325 0.0
C992 C 0.49324 0.52094 0.75168 0.0
C993 C 0.49271 0.53571 0.72564 0.0
N994 N 0.47924 0.54628 0.76278 0.0
N995 N 0.47857 0.57257 0.72031 0.0
H996 H 0.4596 0.61196 0.74564 0.0
H997 H 0.50352 0.49572 0.762 0.0
C998 C 0.48466 0.39076 0.78707 0.0
O999 O 0.47496 0.38987 0.76652 0.0
N1000 N 0.47167 0.54525 0.83722 0.0
C1001 C 0.4615 0.58998 0.85056 0.0
C1002 C 0.46024 0.56384 0.87555 0.0
C1003 C 0.47645 0.49266 0.85434 0.0
N1004 N 0.46949 0.50204 0.87778 0.0
C1005 C 0.44032 0.55846 0.78551 0.0
C1006 C 0.43142 0.42109 0.80374 0.0
C1007 C 0.41912 0.4658 0.79267 0.0
C1008 C 0.4237 0.53537 0.78337 0.0
C1009 C 0.44779 0.44575 0.80522 0.0
N1010 N 0.45229 0.51273 0.79544 0.0
H1011 H 0.44344 0.61393 0.77995 0.0
H1012 H 0.45667 0.41126 0.81519 0.0
H1013 H 0.45478 0.63618 0.84236 0.0
H1014 H 0.48448 0.44704 0.84968 0.0
O1015 O 0.47324 0.65326 0.79882 0.0
O1016 O 0.49646 0.59026 0.80517 0.0
O1017 O 0.48413 0.44407 0.80278 0.0
C1018 C 0.48938 0.65363 0.80234 0.0
H1019 H 0.50245 0.52426 0.71193 0.0
H1020 H 0.45242 0.58627 0.89052 0.0
H1021 H 0.42836 0.3676 0.81161 0.0
H1022 H 0.41443 0.57251 0.77542 0.0
Co1023 Co 0.29398 0.28483 0.79417 0.0
C1024 C 0.29668 0.24609 0.73796 0.0
C1025 C 0.27868 0.33074 0.7443 0.0
C1026 C 0.27831 0.31214 0.71851 0.0
N1027 N 0.2906 0.2912 0.75657 0.0
N1028 N 0.28956 0.25849 0.7145 0.0
H1029 H 0.30541 0.20213 0.74163 0.0
H1030 H 0.26997 0.3672 0.75361 0.0
C1031 C 0.28787 0.44726 0.78689 0.0
O1032 O 0.29832 0.45197 0.76761 0.0
N1033 N 0.29698 0.2773 0.83141 0.0
C1034 C 0.30824 0.2343 0.84358 0.0
C1035 C 0.30896 0.25396 0.86928 0.0
C1036 C 0.2908 0.32184 0.85001 0.0
N1037 N 0.29799 0.30897 0.8733 0.0
C1038 C 0.32877 0.27561 0.77826 0.0
C1039 C 0.33873 0.39924 0.80536 0.0
C1040 C 0.35054 0.36121 0.7909 0.0
C1041 C 0.34543 0.29858 0.77716 0.0
C1042 C 0.32231 0.3751 0.8057 0.0
N1043 N 0.31727 0.31528 0.79167 0.0
H1044 H 0.32534 0.22482 0.76903 0.0
H1045 H 0.31372 0.40419 0.8179 0.0
H1046 H 0.31617 0.19472 0.83408 0.0
H1047 H 0.28218 0.36642 0.84635 0.0
O1048 O 0.29516 0.17777 0.79118 0.0
O1049 O 0.27237 0.24413 0.79707 0.0
O1050 O 0.28611 0.38722 0.79898 0.0
C1051 C 0.27902 0.17999 0.79416 0.0
H1052 H 0.26961 0.33286 0.70416 0.0
H1053 H 0.31747 0.23203 0.88367 0.0
H1054 H 0.34219 0.44723 0.81656 0.0
H1055 H 0.35433 0.26638 0.76637 0.0
C1056 C 0.04082 0.18212 0.19764 0.0
C1057 C 0.04968 0.1151 0.19763 0.0
C1058 C 0.04055 0.22884 0.17585 0.0
C1059 C 0.04918 0.21088 0.15306 0.0
H1060 H 0.03369 0.19775 0.2144 0.0
H1061 H 0.0332 0.27874 0.17669 0.0
S1062 S 0.07605 0.04648 0.14426 0.0
N1063 N 0.06845 0.03645 0.17355 0.0
N1064 N 0.06806 0.12398 0.13295 0.0
C1065 C 0.05851 0.14515 0.15314 0.0
C1066 C 0.05874 0.09749 0.17528 0.0
C1067 C 0.22954 0.20788 0.14642 0.0
C1068 C 0.23008 0.13042 0.14792 0.0
C1069 C 0.2273 0.25148 0.16859 0.0
C1070 C 0.22569 0.21956 0.19323 0.0
H1071 H 0.23089 0.23519 0.12798 0.0
H1072 H 0.22686 0.31072 0.16645 0.0
S1073 S 0.22522 0.01967 0.20782 0.0
N1074 N 0.22797 0.02396 0.17631 0.0
N1075 N 0.22422 0.10584 0.2177 0.0
C1076 C 0.2263 0.1424 0.19507 0.0
C1077 C 0.22838 0.09792 0.17252 0.0
C1078 C 0.95255 0.94448 0.90864 0.0
C1079 C 0.96759 0.96673 0.89739 0.0
C1080 C 0.95231 0.89753 0.93023 0.0
C1081 C 0.9671 0.87176 0.94188 0.0
H1082 H 0.94082 0.96258 0.90039 0.0
H1083 H 0.94042 0.88181 0.93809 0.0
S1084 S 0.00978 0.91404 0.92022 0.0
N1085 N 0.99768 0.95915 0.89961 0.0
N1086 N 0.99722 0.87205 0.94051 0.0
C1087 C 0.98223 0.89406 0.93104 0.0
C1088 C 0.98248 0.94097 0.9087 0.0
C1089 C 0.7977 0.83286 0.92419 0.0
C1090 C 0.79618 0.86274 0.89913 0.0
C1091 C 0.79672 0.87764 0.94634 0.0
C1092 C 0.79439 0.95436 0.94435 0.0
H1093 H 0.79985 0.77442 0.92666 0.0
H1094 H 0.79842 0.85235 0.96513 0.0
S1095 S 0.78911 0.05994 0.88338 0.0
N1096 N 0.79204 0.97425 0.87387 0.0
N1097 N 0.78967 0.05746 0.91525 0.0
C1098 C 0.7924 0.98458 0.91945 0.0
C1099 C 0.79341 0.9391 0.89695 0.0
C1100 C 0.06596 0.68633 0.6667 0.0
C1101 C 0.05093 0.7035 0.65394 0.0
C1102 C 0.06641 0.63916 0.6882 0.0
C1103 C 0.0518 0.60807 0.69817 0.0
H1104 H 0.07753 0.70886 0.65978 0.0
H1105 H 0.07828 0.62782 0.69738 0.0
S1106 S 0.00921 0.63639 0.67215 0.0
N1107 N 0.02105 0.6859 0.65293 0.0
N1108 N 0.02186 0.5981 0.69364 0.0
C1109 C 0.03666 0.62525 0.68577 0.0
C1110 C 0.03624 0.67248 0.66356 0.0
C1111 C 0.22353 0.72592 0.64482 0.0
C1112 C 0.22805 0.65092 0.64568 0.0
C1113 C 0.22018 0.7657 0.66752 0.0
C1114 C 0.22133 0.73226 0.69201 0.0
H1115 H 0.22282 0.75449 0.62648 0.0
H1116 H 0.21693 0.8234 0.66595 0.0
S1117 S 0.23085 0.53562 0.70491 0.0
N1118 N 0.23214 0.54366 0.67323 0.0
N1119 N 0.22611 0.61851 0.71563 0.0
C1120 C 0.22551 0.65709 0.69314 0.0
C1121 C 0.2288 0.61648 0.67008 0.0
C1122 C 0.97534 0.46904 0.42155 0.0
C1123 C 0.97394 0.44151 0.39615 0.0
C1124 C 0.9748 0.42226 0.44324 0.0
C1125 C 0.97264 0.34567 0.44061 0.0
H1126 H 0.9767 0.52758 0.42472 0.0
H1127 H 0.9755 0.44672 0.46227 0.0
S1128 S 0.9692 0.24439 0.37857 0.0
N1129 N 0.97082 0.33147 0.36985 0.0
N1130 N 0.97003 0.24401 0.41045 0.0
C1131 C 0.97168 0.31704 0.41536 0.0
C1132 C 0.97232 0.36466 0.39323 0.0
C1133 C 0.806 0.36297 0.42118 0.0
C1134 C 0.79584 0.3768 0.39933 0.0
C1135 C 0.80537 0.40791 0.44328 0.0
C1136 C 0.79472 0.4693 0.44447 0.0
H1137 H 0.8147 0.31747 0.42116 0.0
H1138 H 0.81349 0.39517 0.45948 0.0
S1139 S 0.76445 0.52683 0.39384 0.0
N1140 N 0.77384 0.45434 0.38141 0.0
N1141 N 0.7731 0.53943 0.42252 0.0
C1142 C 0.78438 0.48363 0.42298 0.0
C1143 C 0.78483 0.43737 0.40057 0.0
C1144 C 0.53375 0.11582 0.67472 0.0
C1145 C 0.54899 0.09922 0.6871 0.0
C1146 C 0.53304 0.16187 0.65264 0.0
C1147 C 0.54749 0.19455 0.64267 0.0
H1148 H 0.52237 0.09235 0.682 0.0
H1149 H 0.52112 0.1732 0.64363 0.0
S1150 S 0.59037 0.16862 0.66809 0.0
N1151 N 0.57876 0.11899 0.68758 0.0
N1152 N 0.57745 0.20547 0.64672 0.0
C1153 C 0.56273 0.17818 0.65497 0.0
C1154 C 0.56347 0.13065 0.67701 0.0
C1155 C 0.71093 0.19809 0.66964 0.0
C1156 C 0.72402 0.22674 0.68483 0.0
C1157 C 0.714 0.1565 0.64725 0.0
C1158 C 0.73028 0.14153 0.63902 0.0
H1159 H 0.69818 0.20684 0.67533 0.0
H1160 H 0.70351 0.13494 0.63649 0.0
S1161 S 0.76892 0.20975 0.67053 0.0
N1162 N 0.75388 0.24072 0.6891 0.0
N1163 N 0.75968 0.16322 0.64713 0.0
C1164 C 0.74349 0.17086 0.65382 0.0
C1165 C 0.74036 0.21316 0.67665 0.0
C1166 C 0.47307 0.85521 0.42065 0.0
C1167 C 0.47115 0.88277 0.44591 0.0
C1168 C 0.47274 0.90189 0.39893 0.0
C1169 C 0.47063 0.97849 0.40133 0.0
H1170 H 0.47462 0.79671 0.41755 0.0
H1171 H 0.4735 0.87741 0.37999 0.0
S1172 S 0.46487 0.07945 0.46288 0.0
N1173 N 0.46663 0.99246 0.47179 0.0
N1174 N 0.46675 0.08002 0.43114 0.0
C1175 C 0.46889 0.00711 0.42644 0.0
C1176 C 0.46906 0.95948 0.44862 0.0
C1177 C 0.29325 0.94652 0.39199 0.0
C1178 C 0.29821 0.87206 0.39362 0.0
C1179 C 0.29331 0.99271 0.4139 0.0
C1180 C 0.29815 0.96636 0.43846 0.0
H1181 H 0.28898 0.96909 0.37374 0.0
H1182 H 0.28928 0.04928 0.41168 0.0
S1183 S 0.31401 0.77883 0.45302 0.0
N1184 N 0.30953 0.77664 0.42185 0.0
N1185 N 0.30915 0.86257 0.46273 0.0
C1186 C 0.30342 0.89267 0.44031 0.0
C1187 C 0.30358 0.84588 0.41803 0.0
C1188 C 0.54859 0.63976 0.14159 0.0
C1189 C 0.54749 0.71675 0.14394 0.0
C1190 C 0.54877 0.59375 0.16347 0.0
C1191 C 0.54773 0.62282 0.18862 0.0
H1192 H 0.54989 0.61517 0.12269 0.0
H1193 H 0.54984 0.53487 0.16072 0.0
S1194 S 0.54492 0.82136 0.20516 0.0
N1195 N 0.54545 0.8202 0.17327 0.0
N1196 N 0.54587 0.73441 0.21441 0.0
C1197 C 0.54652 0.69993 0.19119 0.0
C1198 C 0.54645 0.74667 0.16887 0.0
C1199 C 0.71932 0.62544 0.16129 0.0
C1200 C 0.72606 0.65293 0.13816 0.0
C1201 C 0.71739 0.67014 0.18315 0.0
C1202 C 0.72195 0.74474 0.18293 0.0
H1203 H 0.71534 0.56874 0.16252 0.0
H1204 H 0.71212 0.6462 0.20038 0.0
S1205 S 0.74102 0.84378 0.12797 0.0
N1206 N 0.73792 0.75968 0.11688 0.0
N1207 N 0.73403 0.8439 0.15787 0.0
C1208 C 0.72865 0.77342 0.15998 0.0
C1209 C 0.73075 0.72759 0.13766 0.0
C1210 C 0.47067 0.48088 0.9251 0.0
C1211 C 0.4702 0.45266 0.89978 0.0
C1212 C 0.47069 0.43399 0.94677 0.0
C1213 C 0.46995 0.35691 0.94402 0.0
H1214 H 0.471 0.53979 0.92816 0.0
H1215 H 0.47078 0.45837 0.96584 0.0
S1216 S 0.46865 0.25477 0.88205 0.0
N1217 N 0.46903 0.34218 0.87334 0.0
N1218 N 0.46916 0.25457 0.91395 0.0
C1219 C 0.46964 0.32796 0.91884 0.0
C1220 C 0.46977 0.3756 0.89678 0.0
C1221 C 0.31094 0.4241 0.9304 0.0
C1222 C 0.29571 0.44823 0.94056 0.0
C1223 C 0.31153 0.37762 0.9088 0.0
C1224 C 0.29693 0.35436 0.89615 0.0
H1225 H 0.3225 0.44116 0.93934 0.0
H1226 H 0.32355 0.36103 0.90155 0.0
S1227 S 0.25391 0.40082 0.9153 0.0
N1228 N 0.26567 0.44398 0.93675 0.0
N1229 N 0.26679 0.35785 0.89566 0.0
C1230 C 0.28161 0.37776 0.90615 0.0
C1231 C 0.281 0.42412 0.92852 0.0
C1232 C 0.02298 0.3863 0.93484 0.0
C1233 C 0.03794 0.37521 0.94862 0.0
C1234 C 0.02249 0.42547 0.91149 0.0
C1235 C 0.03697 0.45489 0.90055 0.0
H1236 H 0.01146 0.3646 0.94227 0.0
H1237 H 0.01063 0.43198 0.90172 0.0
S1238 S 0.07939 0.44159 0.92874 0.0
N1239 N 0.06766 0.39719 0.94962 0.0
N1240 N 0.06678 0.47065 0.90548 0.0
C1241 C 0.05207 0.44425 0.91403 0.0
C1242 C 0.05253 0.40485 0.93814 0.0
C1243 C 0.21488 0.90792 0.90409 0.0
C1244 C 0.23104 0.89784 0.89459 0.0
C1245 C 0.21205 0.94425 0.92762 0.0
C1246 C 0.22526 0.972 0.94277 0.0
H1247 H 0.20432 0.8865 0.89344 0.0
H1248 H 0.19939 0.9499 0.93419 0.0
S1249 S 0.26979 0.96688 0.9257 0.0
N1250 N 0.26041 0.92395 0.90158 0.0
N1251 N 0.25498 0.99053 0.94595 0.0
C1252 C 0.24145 0.96319 0.93346 0.0
C1253 C 0.24436 0.9267 0.90936 0.0
C1254 C 0.04108 0.86209 0.40258 0.0
C1255 C 0.04702 0.93467 0.40155 0.0
C1256 C 0.03947 0.82509 0.42637 0.0
C1257 C 0.04398 0.85879 0.44997 0.0
H1258 H 0.03671 0.83555 0.3851 0.0
H1259 H 0.03412 0.77052 0.42644 0.0
S1260 S 0.06149 0.04617 0.45729 0.0
N1261 N 0.05846 0.03704 0.42587 0.0
N1262 N 0.05549 0.96782 0.47036 0.0
C1263 C 0.05082 0.92979 0.44895 0.0
C1264 C 0.0523 0.9676 0.42481 0.0
C1265 C 0.23078 0.37432 0.41917 0.0
C1266 C 0.22888 0.40681 0.39456 0.0
C1267 C 0.2296 0.41614 0.44186 0.0
C1268 C 0.22643 0.49219 0.44088 0.0
H1269 H 0.23296 0.31569 0.42089 0.0
H1270 H 0.23068 0.38838 0.46032 0.0
S1271 S 0.22234 0.60555 0.3815 0.0
N1272 N 0.22502 0.52088 0.3707 0.0
N1273 N 0.22259 0.59933 0.41334 0.0
C1274 C 0.22491 0.52577 0.41645 0.0
C1275 C 0.22616 0.48318 0.39332 0.0
C1276 C 0.96949 0.64485 0.14699 0.0
C1277 C 0.97614 0.71621 0.14597 0.0
C1278 C 0.96862 0.60611 0.17044 0.0
C1279 C 0.97418 0.63732 0.19389 0.0
H1280 H 0.96576 0.61724 0.12936 0.0
H1281 H 0.96404 0.55015 0.17012 0.0
S1282 S 0.991 0.82554 0.20212 0.0
N1283 N 0.98706 0.81901 0.17084 0.0
N1284 N 0.98552 0.74586 0.21478 0.0
C1285 C 0.97994 0.71017 0.19338 0.0
C1286 C 0.98094 0.74954 0.16946 0.0
C1287 C 0.78991 0.24071 0.17101 0.0
C1288 C 0.79126 0.20654 0.19543 0.0
C1289 C 0.7899 0.19944 0.14799 0.0
C1290 C 0.79089 0.12214 0.14849 0.0
H1291 H 0.78846 0.29987 0.16978 0.0
H1292 H 0.78828 0.22791 0.12975 0.0
S1293 S 0.79539 0.00596 0.20715 0.0
N1294 N 0.79426 0.09075 0.21847 0.0
N1295 N 0.79422 0.01339 0.17539 0.0
C1296 C 0.79281 0.08751 0.17271 0.0
C1297 C 0.79302 0.12957 0.19611 0.0
C1298 C 0.96688 0.17522 0.65808 0.0
C1299 C 0.98141 0.19696 0.64521 0.0
C1300 C 0.96768 0.13811 0.68215 0.0
C1301 C 0.98305 0.1205 0.69399 0.0
H1302 H 0.95485 0.18854 0.64977 0.0
H1303 H 0.95623 0.12237 0.69142 0.0
S1304 S 0.02468 0.16476 0.66794 0.0
N1305 N 0.01155 0.19646 0.64592 0.0
N1306 N 0.01308 0.12936 0.6909 0.0
C1307 C 0.9976 0.14178 0.68112 0.0
C1308 C 0.99678 0.1792 0.65683 0.0
C1309 C 0.80119 0.69052 0.6826 0.0
C1310 C 0.78655 0.69716 0.69711 0.0
C1311 C 0.80141 0.6501 0.65932 0.0
C1312 C 0.78709 0.61388 0.65012 0.0
H1313 H 0.81239 0.71801 0.68905 0.0
H1314 H 0.81287 0.64627 0.64861 0.0
S1315 S 0.74577 0.61378 0.68134 0.0
N1316 N 0.75756 0.66351 0.70082 0.0
N1317 N 0.75789 0.5883 0.65738 0.0
C1318 C 0.77247 0.61989 0.66467 0.0
C1319 C 0.77223 0.66127 0.68808 0.0
C1320 C 0.5466 0.39201 0.39272 0.0
C1321 C 0.54102 0.46544 0.39245 0.0
C1322 C 0.54736 0.35124 0.41582 0.0
C1323 C 0.54272 0.38221 0.43969 0.0
H1324 H 0.54968 0.36473 0.37481 0.0
H1325 H 0.55127 0.29424 0.41489 0.0
S1326 S 0.52862 0.57448 0.44983 0.0
N1327 N 0.53197 0.56922 0.41846 0.0
N1328 N 0.53315 0.49231 0.46165 0.0
C1329 C 0.53787 0.45661 0.43986 0.0
C1330 C 0.53704 0.49813 0.41632 0.0
C1331 C 0.71907 -0.00255 0.41206 0.0
C1332 C 0.72135 0.96364 0.43643 0.0
C1333 C 0.72105 0.95809 0.38888 0.0
C1334 C 0.72556 0.88328 0.389 0.0
H1335 H 0.71594 0.05529 0.41079 0.0
H1336 H 0.71944 0.98691 0.37071 0.0
S1337 S 0.73183 0.76652 0.44713 0.0
N1338 N 0.7274 0.84867 0.45885 0.0
N1339 N 0.73151 0.77579 0.4154 0.0
C1340 C 0.72773 0.84843 0.4131 0.0
C1341 C 0.72556 0.88823 0.43673 0.0
C1342 C 0.52277 0.92704 0.903 0.0
C1343 C 0.53792 0.94391 0.89097 0.0
C1344 C 0.52223 0.88868 0.92651 0.0
C1345 C 0.5368 0.86528 0.9394 0.0
H1346 H 0.51113 0.9435 0.89409 0.0
H1347 H 0.51019 0.87799 0.93481 0.0
S1348 S 0.57975 0.89457 0.91624 0.0
N1349 N 0.56796 0.93371 0.89377 0.0
N1350 N 0.56694 0.8612 0.93807 0.0
C1351 C 0.55209 0.88151 0.92766 0.0
C1352 C 0.55264 0.92042 0.90342 0.0
C1353 C 0.7237 0.49545 0.91118 0.0
C1354 C 0.72729 0.46464 0.93567 0.0
C1355 C 0.72564 0.4549 0.88826 0.0
C1356 C 0.73134 0.38165 0.88873 0.0
H1357 H 0.71924 0.55156 0.90971 0.0
H1358 H 0.7228 0.48139 0.87001 0.0
S1359 S 0.74198 0.27345 0.94754 0.0
N1360 N 0.73656 0.35505 0.9587 0.0
N1361 N 0.74024 0.27926 0.9158 0.0
C1362 C 0.73513 0.35018 0.91299 0.0
C1363 C 0.73314 0.39148 0.93636 0.0
C1364 C 0.47084 0.72053 0.67088 0.0
C1365 C 0.47294 0.68268 0.6474 0.0
C1366 C 0.47141 0.68336 0.69473 0.0
C1367 C 0.47457 0.60727 0.69592 0.0
H1368 H 0.46955 0.77987 0.67077 0.0
H1369 H 0.47053 0.71498 0.71238 0.0
S1370 S 0.48007 0.48256 0.63998 0.0
N1371 N 0.47733 0.56464 0.6268 0.0
N1372 N 0.47881 0.49479 0.67153 0.0
C1373 C 0.47596 0.56843 0.67253 0.0
C1374 C 0.47503 0.60609 0.64828 0.0
C1375 C 0.29141 0.2158 0.64306 0.0
C1376 C 0.29193 0.13841 0.64258 0.0
C1377 C 0.2911 0.25463 0.66663 0.0
C1378 C 0.2916 0.21776 0.69064 0.0
H1379 H 0.29043 0.24629 0.62513 0.0
H1380 H 0.29016 0.31407 0.6661 0.0
S1381 S 0.29403 0.01547 0.69985 0.0
N1382 N 0.29381 0.02654 0.66818 0.0
N1383 N 0.29315 0.0991 0.7122 0.0
C1384 C 0.29279 0.14052 0.69035 0.0
C1385 C 0.29296 0.10106 0.66642 0.0
C1386 C 0.46727 0.14485 0.18463 0.0
C1387 C 0.48235 0.12296 0.19647 0.0
C1388 C 0.467 0.18199 0.16053 0.0
C1389 C 0.48183 0.19939 0.14761 0.0
H1390 H 0.45562 0.13229 0.19389 0.0
H1391 H 0.45518 0.19855 0.15222 0.0
S1392 S 0.52456 0.15492 0.17039 0.0
N1393 N 0.51246 0.12348 0.19341 0.0
N1394 N 0.51192 0.1899 0.1483 0.0
C1395 C 0.49691 0.17736 0.15926 0.0
C1396 C 0.49719 0.14017 0.1836 0.0
C1397 C 0.29084 0.62614 0.19002 0.0
C1398 C 0.29176 0.70343 0.18901 0.0
C1399 C 0.2897 0.58378 0.16727 0.0
C1400 C 0.28961 0.61681 0.14257 0.0
H1401 H 0.2903 0.59845 0.20852 0.0
H1402 H 0.28866 0.5246 0.16901 0.0
S1403 S 0.2926 0.81726 0.12943 0.0
N1404 N 0.29341 0.81093 0.16122 0.0
N1405 N 0.29086 0.73204 0.11876 0.0
C1406 C 0.29104 0.69393 0.14135 0.0
C1407 C 0.2922 0.73693 0.16446 0.0
C1408 C 0.12951 0.21496 0.03757 0.0
C1409 C 0.11587 0.17417 0.04617 0.0
C1410 C 0.14569 0.18563 0.03839 0.0
C1411 C 0.1491 0.11459 0.0484 0.0
H1412 H 0.12766 0.27014 0.0301 0.0
H1413 H 0.15568 0.21958 0.03124 0.0
S1414 S 0.11742 0.98571 0.07365 0.0
N1415 N 0.10657 0.05877 0.06457 0.0
N1416 N 0.13701 0.00444 0.0671 0.0
C1417 C 0.13543 0.07282 0.05675 0.0
C1418 C 0.11886 0.10248 0.05549 0.0
C1419 C 0.12867 0.1354 0.32678 0.0
C1420 C 0.11939 0.12877 0.30368 0.0
C1421 C 0.1447 0.16618 0.32702 0.0
C1422 C 0.15201 0.19296 0.30425 0.0
H1423 H 0.12353 0.11614 0.34481 0.0
H1424 H 0.15135 0.16998 0.34525 0.0
S1425 S 0.13294 0.18901 0.23871 0.0
N1426 N 0.11875 0.15193 0.25746 0.0
N1427 N 0.14874 0.20964 0.2579 0.0
C1428 C 0.14284 0.18673 0.28105 0.0
C1429 C 0.12662 0.15464 0.28076 0.0
C1430 C 0.87546 0.94722 0.03349 0.0
C1431 C 0.86653 0.94623 0.0568 0.0
C1432 C 0.89177 0.91953 0.03201 0.0
C1433 C 0.89995 0.88909 0.05373 0.0
H1434 H 0.86971 0.96869 1.01604 0.0
H1435 H 0.89798 0.92134 1.01355 0.0
S1436 S 0.88275 0.87765 0.11984 0.0
N1437 N 0.86763 0.91532 0.10252 0.0
N1438 N 0.8981 0.86249 0.09957 0.0
C1439 C 0.89126 0.88799 0.07719 0.0
C1440 C 0.87465 0.91666 0.07877 0.0
C1441 C 0.89721 0.87029 0.78464 0.0
C1442 C 0.90103 0.94608 0.78479 0.0
C1443 C 0.88072 0.84503 0.78524 0.0
C1444 C 0.86716 0.89423 0.7858 0.0
H1445 H 0.90708 0.82968 0.78433 0.0
H1446 H 0.87864 0.78623 0.78598 0.0
S1447 S 0.8701 0.09839 0.78457 0.0
N1448 N 0.8896 0.07019 0.78499 0.0
N1449 N 0.85875 0.02296 0.78442 0.0
C1450 C 0.87075 0.97021 0.78492 0.0
C1451 C 0.88758 0.99599 0.78473 0.0
C1452 C 0.12286 0.62801 0.56731 0.0
C1453 C 0.11668 0.67099 0.54651 0.0
C1454 C 0.13923 0.60032 0.56763 0.0
C1455 C 0.15012 0.61448 0.54721 0.0
H1456 H 0.11514 0.61732 0.5839 0.0
H1457 H 0.14359 0.57004 0.58442 0.0
S1458 S 0.14013 0.71867 0.48741 0.0
N1459 N 0.12278 0.72171 0.50416 0.0
N1460 N 0.15355 0.67147 0.50523 0.0
C1461 C 0.14409 0.6557 0.5261 0.0
C1462 C 0.12741 0.68354 0.52564 0.0
C1463 C 0.14327 0.68316 0.82951 0.0
C1464 C 0.15159 0.69348 0.80594 0.0
C1465 C 0.12701 0.65426 0.83018 0.0
C1466 C 0.11839 0.63589 0.80728 0.0
H1467 H 0.14945 0.69672 0.84755 0.0
H1468 H 0.12102 0.64767 0.84868 0.0
S1469 S 0.13452 0.65326 0.74066 0.0
N1470 N 0.14985 0.68319 0.75922 0.0
N1471 N 0.11949 0.6298 0.76048 0.0
C1472 C 0.12659 0.64614 0.78368 0.0
C1473 C 0.14311 0.67467 0.78301 0.0
C1474 C 0.87583 0.42826 0.5726 0.0
C1475 C 0.86646 0.44209 0.54992 0.0
C1476 C 0.89198 0.398 0.57164 0.0
C1477 C 0.89949 0.38029 0.54796 0.0
H1478 H 0.87074 0.44188 0.59129 0.0
H1479 H 0.89877 0.38986 0.58958 0.0
S1480 S 0.87967 0.39757 0.48318 0.0
N1481 N 0.86557 0.42986 0.50318 0.0
N1482 N 0.89575 0.37383 0.5014 0.0
C1483 C 0.89011 0.39214 0.52521 0.0
C1484 C 0.87369 0.42279 0.52618 0.0
C1485 C 0.88828 0.48212 0.28183 0.0
C1486 C 0.90162 0.43579 0.28879 0.0
C1487 C 0.87179 0.45701 0.28234 0.0
C1488 C 0.86791 0.3846 0.28998 0.0
H1489 H 0.8906 0.53823 0.27581 0.0
H1490 H 0.86198 0.49476 0.27665 0.0
S1491 S 0.8983 0.24296 0.31179 0.0
N1492 N 0.90984 0.31484 0.30445 0.0
N1493 N 0.87891 0.26798 0.30577 0.0
C1494 C 0.88117 0.3378 0.2971 0.0
C1495 C 0.89797 0.3633 0.29644 0.0
C1496 C 0.62434 0.15959 0.56233 0.0
C1497 C 0.61533 0.15809 0.53886 0.0
C1498 C 0.6404 0.12934 0.56445 0.0
C1499 C 0.64821 0.0955 0.54328 0.0
H1500 H 0.61898 0.18496 0.57926 0.0
H1501 H 0.64697 0.13406 0.58272 0.0
S1502 S 0.63042 0.07789 0.4773 0.0
N1503 N 0.61575 0.12031 0.49376 0.0
N1504 N 0.64577 0.06268 0.49802 0.0
C1505 C 0.63927 0.09192 0.51987 0.0
C1506 C 0.62292 0.1233 0.51759 0.0
C1507 C 0.64327 0.17951 0.81775 0.0
C1508 C 0.65192 0.19074 0.79453 0.0
C1509 C 0.62701 0.15043 0.81776 0.0
C1510 C 0.61869 0.1326 0.79453 0.0
H1511 H 0.64921 0.19215 0.83606 0.0
H1512 H 0.62082 0.14292 0.83605 0.0
S1513 S 0.63576 0.15253 0.72851 0.0
N1514 N 0.65075 0.1825 0.74771 0.0
N1515 N 0.62051 0.12785 0.74773 0.0
C1516 C 0.62721 0.14394 0.77124 0.0
C1517 C 0.64371 0.17297 0.77124 0.0
C1518 C 0.3928 0.91074 0.53221 0.0
C1519 C 0.40105 0.895 0.55574 0.0
C1520 C 0.37685 0.94294 0.53153 0.0
C1521 C 0.36826 0.96025 0.55436 0.0
H1522 H 0.39879 0.89853 0.51405 0.0
H1523 H 0.37105 0.95304 0.5129 0.0
S1524 S 0.38426 0.93092 0.62111 0.0
N1525 N 0.39927 0.89958 0.60255 0.0
N1526 N 0.3695 0.96047 0.60128 0.0
C1527 C 0.37639 0.9452 0.57804 0.0
C1528 C 0.39269 0.91277 0.57873 0.0
C1529 C 0.371 0.96585 0.28674 0.0
C1530 C 0.36766 0.88988 0.28498 0.0
C1531 C 0.38741 0.99266 0.28746 0.0
C1532 C 0.40117 0.94462 0.28636 0.0
H1533 H 0.36085 0.00483 0.28828 0.0
H1534 H 0.38932 0.05129 0.28966 0.0
S1535 S 0.39912 0.74173 0.27812 0.0
N1536 N 0.3795 0.76775 0.27988 0.0
N1537 N 0.41017 0.81772 0.28089 0.0
C1538 C 0.39794 0.86879 0.28354 0.0
C1539 C 0.38127 0.84158 0.28295 0.0
C1540 C 0.62361 0.643 1.01638 0.0
C1541 C 0.61512 0.66377 0.03893 0.0
C1542 C 0.63975 0.61231 1.01765 0.0
C1543 C 0.64802 0.6021 0.0415 0.0
H1544 H 0.61772 0.65025 0.99765 0.0
H1545 H 0.646 0.59869 0.99984 0.0
S1546 S 0.6314 0.64841 0.10604 0.0
N1547 N 0.61635 0.67194 0.08576 0.0
N1548 N 0.64651 0.61539 0.08803 0.0
C1549 C 0.63962 0.62241 0.06409 0.0
C1550 C 0.62324 0.65288 0.06284 0.0
C1551 C 0.64103 0.68879 0.27159 0.0
C1552 C 0.64975 0.70633 0.29446 0.0
C1553 C 0.62474 0.66121 0.27223 0.0
C1554 C 0.61661 0.64845 0.29577 0.0
H1555 H 0.64681 0.69701 0.25301 0.0
H1556 H 0.61849 0.64921 0.25411 0.0
S1557 S 0.634 0.68415 0.36109 0.0
N1558 N 0.649 0.70884 0.34133 0.0
N1559 N 0.61853 0.65553 0.34252 0.0
C1560 C 0.62522 0.66508 0.31878 0.0
C1561 C 0.64172 0.69451 0.31812 0.0
C1562 C 0.37427 0.42506 0.07121 0.0
C1563 C 0.36604 0.43807 0.04746 0.0
C1564 C 0.39061 0.3964 0.07218 0.0
C1565 C 0.39942 0.38059 0.04943 0.0
H1566 H 0.36793 0.43597 0.08917 0.0
H1567 H 0.39648 0.38778 0.09084 0.0
S1568 S 0.38357 0.40527 0.98238 0.0
N1569 N 0.36816 0.43365 1.0007 0.0
N1570 N 0.39848 0.37924 1.0025 0.0
C1571 C 0.39129 0.39343 0.02563 0.0
C1572 C 0.37475 0.42229 1.02465 0.0
C1573 C 0.39265 0.43328 0.76894 0.0
C1574 C 0.40152 0.44071 0.79236 0.0
C1575 C 0.37631 0.40562 0.76843 0.0
C1576 C 0.36819 0.38574 0.79138 0.0
H1577 H 0.39848 0.4479 0.75088 0.0
H1578 H 0.36988 0.40092 0.75004 0.0
S1579 S 0.38592 0.39553 0.85766 0.0
N1580 N 0.40092 0.42611 0.83898 0.0
N1581 N 0.37031 0.37522 0.83806 0.0
C1582 C 0.37692 0.39334 0.81486 0.0
C1583 C 0.39354 0.42053 0.81534 0.0
C1584 C 0.02456 0.53887 0.03937 0.0
C1585 C 0.01817 0.47293 0.04929 0.0
C1586 C 0.01431 0.60094 0.03559 0.0
C1587 C 0.9972 0.59983 0.04152 0.0
H1588 H 0.03753 0.54242 0.03419 0.0
H1589 H 0.01992 0.65045 0.02801 0.0
S1590 S 0.97438 0.4416 0.06899 0.0
N1591 N 0.99357 0.41105 0.06566 0.0
N1592 N 0.97451 0.52732 0.05845 0.0
C1593 C 0.99067 0.53438 0.05154 0.0
C1594 C 1.00109 0.47122 0.05548 0.0
C1595 C 0.24602 0.68867 0.02862 0.0
C1596 C 0.26251 0.69994 0.03732 0.0
C1597 C 0.23433 0.74638 0.02749 0.0
C1598 C 0.23844 0.81789 0.03553 0.0
H1599 H 0.24205 0.6346 1.02237 0.0
H1600 H 0.22192 0.73469 1.02038 0.0
S1601 S 0.28003 0.87833 0.05881 0.0
N1602 N 0.28238 0.78935 0.05342 0.0
N1603 N 0.26051 0.89762 0.05131 0.0
C1604 C 0.2549 0.83024 0.04413 0.0
C1605 C 0.26689 0.77149 0.045 0.0
C1606 C 0.02648 0.77801 0.30495 0.0
C1607 C 0.02038 0.84601 0.29616 0.0
C1608 C 0.01606 0.71641 0.30639 0.0
C1609 C 0.99912 0.72036 0.29917 0.0
H1610 H 0.03932 0.7725 0.31111 0.0
H1611 H 0.02138 0.66511 0.31328 0.0
S1612 S 0.97724 0.88456 0.27328 0.0
N1613 N 0.99637 0.91295 0.27899 0.0
N1614 N 0.97694 0.79717 0.28195 0.0
C1615 C 0.99289 0.78779 0.29013 0.0
C1616 C 1.00349 0.8505 0.28853 0.0
C1617 C 0.24281 0.55019 0.29738 0.0
C1618 C 0.24865 0.48374 0.28712 0.0
C1619 C 0.2532 0.61163 0.29916 0.0
C1620 C 0.26983 0.6089 0.2908 0.0
H1621 H 0.23028 0.55431 0.30472 0.0
H1622 H 0.24815 0.66159 0.30742 0.0
S1623 S 0.29078 0.4494 0.26065 0.0
N1624 N 0.27192 0.41973 0.26717 0.0
N1625 N 0.29136 0.53552 0.27072 0.0
C1626 C 0.27575 0.54327 0.28009 0.0
C1627 C 0.26516 0.48069 0.27815 0.0
C1628 C 0.74804 0.19322 1.0249 0.0
C1629 C 0.7634 0.20461 0.03763 0.0
C1630 C 0.73623 0.24996 1.0221 0.0
C1631 C 0.73905 0.32041 0.03242 0.0
H1632 H 0.74511 0.13985 1.01678 0.0
H1633 H 0.72476 0.23832 1.01183 0.0
S1634 S 0.77736 0.37972 0.06721 0.0
N1635 N 0.78085 0.29234 0.06031 0.0
N1636 N 0.7587 0.39879 0.05544 0.0
C1637 C 0.75438 0.33265 0.04523 0.0
C1638 C 0.76653 0.27498 0.0477 0.0
C1639 C 0.01593 0.22371 0.80736 0.0
C1640 C 0.9993 0.22531 0.79841 0.0
C1641 C 0.02622 0.28594 0.80586 0.0
C1642 C 0.02031 0.35228 0.79528 0.0
H1643 H 0.0211 0.17389 0.81571 0.0
H1644 H 0.03879 0.28225 0.81341 0.0
S1645 S 0.97802 0.38428 0.76761 0.0
N1646 N 0.97766 0.29818 0.77772 0.0
N1647 N 0.99681 0.41475 0.77464 0.0
C1648 C 1.00375 0.35422 0.78587 0.0
C1649 C 0.9933 0.29098 0.78754 0.0
C1650 C 0.7433 0.54153 0.80006 0.0
C1651 C 0.74898 0.48039 0.78609 0.0
C1652 C 0.75368 0.60221 0.8047 0.0
C1653 C 0.77018 0.60392 0.79571 0.0
H1654 H 0.7309 0.54187 0.80799 0.0
H1655 H 0.74873 0.64811 0.81555 0.0
S1656 S 0.7906 0.46028 0.75626 0.0
N1657 N 0.77192 0.42724 0.76195 0.0
N1658 N 0.79132 0.54084 0.77091 0.0
C1659 C 0.77591 0.54372 0.78135 0.0
C1660 C 0.76533 0.48222 0.77645 0.0
C1661 C 0.01513 0.09558 0.53825 0.0
C1662 C 0.99848 0.09573 0.54667 0.0
C1663 C 0.02565 0.03449 0.54223 0.0
C1664 C 0.01996 0.9713 0.55498 0.0
H1665 H 0.02008 0.14293 0.52823 0.0
H1666 H 0.03815 0.03612 0.5347 0.0
S1667 S 0.97794 0.94637 0.58303 0.0
N1668 N 0.9772 0.0288 0.56966 0.0
N1669 N 0.9968 0.91467 0.57752 0.0
C1670 C 1.00346 0.97169 0.56415 0.0
C1671 C 0.99276 0.03355 0.55987 0.0
C1672 C 0.24867 0.21234 0.52633 0.0
C1673 C 0.26542 0.22521 0.5334 0.0
C1674 C 0.23673 0.26916 0.52598 0.0
C1675 C 0.24088 0.34137 0.53316 0.0
H1676 H 0.24465 0.15757 0.52098 0.0
H1677 H 0.2241 0.25619 0.52027 0.0
S1678 S 0.28313 0.40638 0.55139 0.0
N1679 N 0.28557 0.31718 0.54658 0.0
N1680 N 0.26327 0.42373 0.5458 0.0
C1681 C 0.25763 0.35546 0.53983 0.0
C1682 C 0.26983 0.29761 0.53997 0.0
C1683 C 0.27328 0.0504 0.78065 0.0
C1684 C 0.26815 0.11459 0.79327 0.0
C1685 C 0.26261 0.98998 0.77834 0.0
C1686 C 0.24642 0.9913 0.78863 0.0
H1687 H 0.28553 0.04706 0.77224 0.0
H1688 H 0.26721 0.94139 0.7686 0.0
S1689 S 0.2272 0.14568 0.82426 0.0
N1690 N 0.24585 0.17574 0.81665 0.0
N1691 N 0.22593 0.06176 0.81226 0.0
C1692 C 0.2411 0.05523 0.80118 0.0
C1693 C 0.25195 0.11686 0.80357 0.0
C1694 C 0.73719 0.76024 0.56514 0.0
C1695 C 0.7402 0.82854 0.55332 0.0
C1696 C 0.74868 0.70183 0.56331 0.0
C1697 C 0.76394 0.71005 0.55045 0.0
H1698 H 0.72578 0.75157 0.57562 0.0
H1699 H 0.74566 0.64986 0.57238 0.0
S1700 S 0.77827 0.87868 0.51725 0.0
N1701 N 0.7598 0.90107 0.52846 0.0
N1702 N 0.78155 0.79253 0.52618 0.0
C1703 C 0.76729 0.77844 0.53907 0.0
C1704 C 0.75539 0.83723 0.54019 0.0
C1705 C 0.75179 0.11757 0.29979 0.0
C1706 C 0.76916 0.11375 0.29638 0.0
C1707 C 0.74159 0.05606 0.29582 0.0
C1708 C 0.74835 0.98834 0.28817 0.0
H1709 H 0.74595 0.1687 0.30552 0.0
H1710 H 0.72837 0.06158 0.29895 0.0
S1711 S 0.79311 0.94921 0.27643 0.0
N1712 N 0.79261 0.03668 0.28487 0.0
N1713 N 0.77366 0.92124 0.27717 0.0
C1714 C 0.76574 0.98384 0.28462 0.0
C1715 C 0.77608 0.0464 0.28881 0.0
C1716 C 0.52492 0.53416 0.53556 0.0
C1717 C 0.51862 0.46676 0.54439 0.0
C1718 C 0.51471 0.59716 0.53378 0.0
C1719 C 0.49776 0.59538 0.54065 0.0
H1720 H 0.53775 0.53809 0.5296 0.0
H1721 H 0.5202 0.64782 0.52694 0.0
S1722 S 0.47535 0.43351 0.56627 0.0
N1723 N 0.49436 0.40304 0.56107 0.0
N1724 N 0.47539 0.52081 0.55748 0.0
C1725 C 0.49136 0.52851 0.54966 0.0
C1726 C 0.50172 0.46455 0.55162 0.0
C1727 C 0.50429 0.8447 0.78392 0.0
C1728 C 0.52117 0.84388 0.79162 0.0
C1729 C 0.49385 0.78426 0.78827 0.0
C1730 C 0.49986 0.72055 0.80056 0.0
H1731 H 0.49904 0.89253 0.77433 0.0
H1732 H 0.48111 0.78694 0.78144 0.0
S1733 S 0.54275 0.69211 0.82618 0.0
N1734 N 0.54314 0.77506 0.81318 0.0
N1735 N 0.52368 0.66159 0.82152 0.0
C1736 C 0.51665 0.7195 0.8088 0.0
C1737 C 0.52727 0.78097 0.80425 0.0
C1738 C 0.50344 0.35427 0.28335 0.0
C1739 C 0.52052 0.35379 0.28983 0.0
C1740 C 0.49336 0.29238 0.28726 0.0
C1741 C 0.49991 0.22722 0.29787 0.0
H1742 H 0.4977 0.40318 0.27522 0.0
H1743 H 0.48038 0.29553 0.28167 0.0
S1744 S 0.54375 0.19757 0.31898 0.0
N1745 N 0.54342 0.28276 0.30789 0.0
N1746 N 0.52464 0.16644 0.3153 0.0
C1747 C 0.51698 0.22596 0.30454 0.0
C1748 C 0.52724 0.28908 0.30048 0.0
C1749 C 0.4925 0.0328 0.04769 0.0
C1750 C 0.49933 0.10237 0.04302 0.0
C1751 C 0.5025 0.96938 0.04796 0.0
C1752 C 0.5198 0.97253 0.04358 0.0
H1753 H 0.47933 0.02712 0.05127 0.0
H1754 H 0.4965 0.91722 0.05165 0.0
S1755 S 0.54392 0.14127 0.03024 0.0
N1756 N 0.52466 0.17069 0.03377 0.0
N1757 N 0.54326 0.05124 0.03433 0.0
C1758 C 0.52681 0.04163 0.03886 0.0
C1759 C 0.51664 0.10647 0.03857 0.0
C1760 C 0.01107 0.96503 0.04333 0.0
C1761 C 0.99635 0.98378 0.05648 0.0
C1762 C 0.02509 0.01016 0.04441 0.0
C1763 C 0.02476 0.07606 0.0583 0.0
H1764 H 0.0119 0.91462 0.03226 0.0
H1765 H 0.03602 0.99465 0.03361 0.0
S1766 S 0.98974 0.14945 0.0968 0.0
N1767 N 0.98263 0.07173 0.08452 0.0
N1768 N 1.00892 0.15745 0.08621 0.0
C1769 C 0.01028 0.09516 0.07183 0.0
C1770 C 0.99607 0.0488 0.071 0.0
C1771 C 0.26492 0.2 0.06711 0.0
C1772 C 0.25914 0.17871 0.04257 0.0
C1773 C 0.27581 0.2595 0.06997 0.0
C1774 C 0.28106 0.29976 0.04836 0.0
H1775 H 0.26042 0.17253 0.08426 0.0
H1776 H 0.27931 0.27673 0.08929 0.0
S1777 S 0.27109 0.25862 0.97976 0.0
N1778 N 0.26047 0.19708 0.99627 0.0
N1779 N 0.28121 0.30827 1.00146 0.0
C1780 C 0.27613 0.27572 1.02362 0.0
C1781 C 0.26504 0.21527 1.02076 0.0
C1782 C 0.99684 0.25772 0.30768 0.0
C1783 C 0.99725 0.32889 0.29739 0.0
C1784 C 0.01104 0.21348 0.30789 0.0
C1785 C 0.02633 0.23865 0.29802 0.0
H1786 H 0.98553 0.23603 0.31586 0.0
H1787 H 0.0099 0.15865 0.31585 0.0
S1788 S 0.03399 0.41996 0.26785 0.0
N1789 N 0.01429 0.42229 0.27621 0.0
N1790 N 0.04089 0.33832 0.27696 0.0
C1791 C 0.02695 0.30944 0.28751 0.0
C1792 C 0.01244 0.35463 0.28706 0.0
C1793 C 0.24363 0.02044 0.28945 0.0
C1794 C 0.24554 0.09662 0.28785 0.0
C1795 C 0.25753 0.97462 0.29199 0.0
C1796 C 0.27387 0.00329 0.29278 0.0
H1797 H 0.23135 0.99624 0.28938 0.0
H1798 H 0.25534 0.91601 0.29352 0.0
S1799 S 0.28551 0.19938 0.28651 0.0
N1800 N 0.26504 0.19914 0.2852 0.0
N1801 N 0.29104 0.11246 0.29016 0.0
C1802 C 0.27593 0.07935 0.29048 0.0
C1803 C 0.2618 0.1261 0.28789 0.0
C1804 C 0.75226 0.76214 0.04243 0.0
C1805 C 0.75679 0.6926 0.03306 0.0
C1806 C 0.76382 0.81866 0.0446 0.0
C1807 C 0.78048 0.80883 0.03715 0.0
H1808 H 0.73965 0.77309 0.04854 0.0
H1809 H 0.75944 0.87104 0.05187 0.0
S1810 S 0.79875 0.63624 1.0115 0.0
N1811 N 0.77908 0.61569 1.01664 0.0
N1812 N 0.80095 0.72319 1.02015 0.0
C1813 C 0.78526 0.73926 0.0278 0.0
C1814 C 0.7734 0.6809 0.02591 0.0
C1815 C 1.0 0.81571 0.81775 0.0
C1816 C 0.99476 0.83145 0.79231 0.0
C1817 C 0.01403 0.77202 0.82265 0.0
C1818 C 0.02339 0.74324 0.80225 0.0
H1819 H 0.99324 0.83778 0.83401 0.0
H1820 H 0.01729 0.75916 0.8425 0.0
S1821 S 0.01593 0.7746 0.73225 0.0
N1822 N 1.00052 0.81818 0.74656 0.0
N1823 N 0.02719 0.73783 0.75577 0.0
C1824 C 0.01851 0.76001 0.77675 0.0
C1825 C 1.00407 0.80346 0.77176 0.0
C1826 C 0.76776 0.01129 0.81371 0.0
C1827 C 0.77464 0.99642 0.78937 0.0
C1828 C 0.75387 0.05697 0.81625 0.0
C1829 C 0.74625 0.0887 0.79445 0.0
H1830 H 0.77309 0.98684 0.83094 0.0
H1831 H 0.74937 0.06888 0.83546 0.0
S1832 S 0.75821 0.06042 0.72608 0.0
N1833 N 0.77215 0.01328 0.7429 0.0
N1834 N 0.74573 0.09771 0.74757 0.0
C1835 C 0.7527 0.07267 0.76991 0.0
C1836 C 0.76701 0.02707 0.76737 0.0
C1837 C 0.01568 0.53506 0.52436 0.0
C1838 C 0.01824 0.58995 0.54293 0.0
C1839 C 1.00209 0.48785 0.52584 0.0
C1840 C 0.9905 0.4931 0.54603 0.0
H1841 H 0.02426 0.52799 0.50856 0.0
H1842 H 1.00099 0.44558 0.51126 0.0
S1843 S 0.99075 0.63131 0.59863 0.0
N1844 N 1.00733 0.65031 0.58142 0.0
N1845 N 0.98199 0.56015 0.58428 0.0
C1846 C 0.99254 0.54934 0.56428 0.0
C1847 C 1.00639 0.59783 0.56278 0.0
C1848 C 0.25445 0.78305 0.54053 0.0
C1849 C 0.25917 0.71046 0.53503 0.0
C1850 C 0.26597 0.83985 0.54064 0.0
C1851 C 0.28285 0.82721 0.53505 0.0
H1852 H 0.2417 0.79652 0.54516 0.0
H1853 H 0.2614 0.8945 0.54502 0.0
S1854 S 0.30163 0.6466 0.51873 0.0
N1855 N 0.28182 0.6281 0.52354 0.0
N1856 N 0.30368 0.73606 0.52342 0.0
C1857 C 0.28781 0.75481 0.52924 0.0
C1858 C 0.27594 0.69622 0.52932 0.0
C1859 C 0.26278 0.49115 0.81023 0.0
C1860 C 0.2755 0.50542 0.79225 0.0
C1861 C 0.24982 0.54086 0.8142 0.0
C1862 C 0.24899 0.60693 0.80038 0.0
H1863 H 0.26251 0.44022 0.82107 0.0
H1864 H 0.24029 0.52686 0.82798 0.0
S1865 S 0.27992 0.67419 0.75279 0.0
N1866 N 0.28689 0.59238 0.76159 0.0
N1867 N 0.26273 0.68712 0.76927 0.0
C1868 C 0.26189 0.62324 0.78289 0.0
C1869 C 0.2751 0.57225 0.7788 0.0
C1870 C 0.77324 0.18169 0.53747 0.0
C1871 C 0.75671 0.19599 0.52988 0.0
C1872 C 0.78477 0.23912 0.54004 0.0
C1873 C 0.78005 0.31237 0.53516 0.0
H1874 H 0.77712 0.12634 0.54254 0.0
H1875 H 0.79722 0.22645 0.54682 0.0
S1876 S 0.73897 0.37653 0.51049 0.0
N1877 N 0.73676 0.28707 0.5146 0.0
N1878 N 0.75829 0.39468 0.51919 0.0
C1879 C 0.76381 0.32647 0.52601 0.0
C1880 C 0.75216 0.2683 0.52344 0.0
C1881 C 0.76193 0.49956 0.30868 0.0
C1882 C 0.77336 0.50499 0.28824 0.0
C1883 C 0.74836 0.5473 0.31057 0.0
C1884 C 0.74568 0.60294 0.29222 0.0
H1885 H 0.76325 0.45722 0.3233 0.0
H1886 H 0.74003 0.54076 0.32671 0.0
S1887 S 0.77242 0.64309 0.23552 0.0
N1888 N 0.78136 0.5717 0.24967 0.0
N1889 N 0.75605 0.66244 0.2532 0.0
C1890 C 0.75721 0.60995 0.27186 0.0
C1891 C 0.77102 0.56098 0.26994 0.0
C1892 C 0.51156 0.07246 0.52619 0.0
C1893 C 0.522 0.07317 0.54818 0.0
C1894 C 0.49657 0.03398 0.52598 0.0
C1895 C 0.4914 0.99533 0.54785 0.0
H1896 H 0.51499 0.10153 0.50886 0.0
H1897 H 0.48937 0.03195 0.50827 0.0
S1898 S 0.51303 0.98671 0.61135 0.0
N1899 N 0.52547 0.03595 0.59301 0.0
N1900 N 0.49701 0.96468 0.59278 0.0
C1901 C 0.50137 -0.00247 0.57027 0.0
C1902 C 0.51678 0.03594 0.57039 0.0
C1903 C 0.51304 0.22848 0.77514 0.0
C1904 C 0.52602 0.23863 0.79333 0.0
C1905 C 0.49961 0.27708 0.77352 0.0
C1906 C 0.49859 0.33805 0.78995 0.0
H1907 H 0.51298 0.18156 0.76226 0.0
H1908 H 0.48994 0.26644 0.75935 0.0
S1909 S 0.53005 0.39341 0.83948 0.0
N1910 N 0.53744 0.31651 0.82713 0.0
N1911 N 0.51239 0.40898 0.82402 0.0
C1912 C 0.51175 0.3503 0.80776 0.0
C1913 C 0.52543 0.3005 0.80941 0.0
C1914 C 0.50022 0.80392 0.27208 0.0
C1915 C 0.49266 0.8334 0.29412 0.0
C1916 C 0.51446 0.75993 0.27428 0.0
C1917 C 0.52168 0.7443 0.29857 0.0
H1918 H 0.49548 0.81712 0.25296 0.0
H1919 H 0.5199 0.7381 0.25682 0.0
S1920 S 0.50555 0.80196 0.36221 0.0
N1921 N 0.49264 0.83929 0.34095 0.0
N1922 N 0.51954 0.75737 0.34511 0.0
C1923 C 0.51405 0.77216 0.32074 0.0
C1924 C 0.49947 0.81629 0.31849 0.0
C1925 C 0.51054 0.5537 1.01911 0.0
C1926 C 0.52082 0.57829 0.03933 0.0
C1927 C 0.4963 0.51243 1.02427 0.0
C1928 C 0.49178 0.49533 0.04978 0.0
H1929 H 0.51328 0.5679 0.99928 0.0
H1930 H 0.48887 0.49281 1.00816 0.0
S1931 S 0.51532 0.54199 0.10923 0.0
N1932 N 0.52618 0.57838 0.08556 0.0
N1933 N 0.49903 0.5034 0.09529 0.0
C1934 C 0.50193 0.51972 0.07011 0.0
C1935 C 0.5166 0.56033 0.06484 0.0
loop_
_geom_bond_atom_site_label_1
_geom_bond_atom_site_label_2
_geom_bond_distance
_geom_bond_site_symmetry_2
_ccdc_geom_bond_type
Co0 N4 2.148 1_554 S
Co0 N10 2.128 . S
Co0 N20 2.194 . S
Co0 O25 2.351 . S
Co0 O26 2.155 . S
Co0 O27 2.096 . S
C1 N4 1.301 . S
C1 N5 1.328 . S
C1 H6 0.930 . S
C2 C3 1.333 . S
C2 N4 1.317 . S
C2 H7 0.930 . S
C3 C2 1.333 . S
C3 N5 1.350 . S
C3 H29 0.931 . S
N4 Co0 2.148 1_556 S
N4 C1 1.301 . S
N4 C2 1.317 . S
N5 C1 1.328 . S
N5 C3 1.350 . S
H6 C1 0.930 . S
H7 C2 0.930 . S
C8 O9 1.224 . S
C8 O27 1.247 . S
O9 C8 1.224 . S
N10 Co0 2.128 . S
N10 C11 1.355 . S
N10 C13 1.311 . S
C11 N10 1.355 . S
C11 C12 1.363 . S
C11 H23 0.929 . S
C12 C11 1.363 . S
C12 N14 1.375 . S
C12 H30 0.931 . S
C13 N10 1.311 . S
C13 N14 1.347 . S
C13 H24 0.929 . S
N14 C12 1.375 . S
N14 C13 1.347 . S
C15 C18 1.365 . S
C15 N20 1.328 . S
C15 H21 0.929 . S
C16 C17 1.362 . S
C16 C19 1.378 . S
C16 H31 0.929 . S
C17 C16 1.362 . S
C17 C18 1.366 . S
C18 C15 1.365 . S
C18 C17 1.366 . S
C18 H32 0.930 . S
C19 C16 1.378 . S
C19 N20 1.315 . S
C19 H22 0.930 . S
N20 Co0 2.194 . S
N20 C15 1.328 . S
N20 C19 1.315 . S
H21 C15 0.929 . S
H22 C19 0.930 . S
H23 C11 0.929 . S
H24 C13 0.929 . S
O25 Co0 2.351 . S
O25 C28 1.244 . S
O26 Co0 2.155 . S
O26 C28 1.240 . S
O27 Co0 2.096 . S
O27 C8 1.247 . S
C28 O25 1.244 . S
C28 O26 1.240 . S
H29 C3 0.931 . S
H30 C12 0.931 . S
H31 C16 0.929 . S
H32 C18 0.930 . S
Co33 N37 2.148 . S
Co33 N43 2.128 1_554 S
Co33 N53 2.194 . S
Co33 O58 2.351 . S
Co33 O59 2.155 . S
Co33 O60 2.096 1_545 S
C34 N37 1.301 . S
C34 N38 1.328 . S
C34 H39 0.930 . S
C35 C36 1.333 . S
C35 N37 1.317 . S
C35 H40 0.930 1_545 S
C36 C35 1.333 . S
C36 N38 1.350 . S
C36 H62 0.931 . S
N37 Co33 2.148 . S
N37 C34 1.301 . S
N37 C35 1.317 . S
N38 C34 1.328 . S
N38 C36 1.350 . S
H39 C34 0.930 . S
H40 C35 0.930 1_565 S
C41 O42 1.224 . S
C41 O60 1.247 . S
O42 C41 1.224 . S
N43 Co33 2.128 1_556 S
N43 C44 1.355 . S
N43 C46 1.311 . S
C44 N43 1.355 . S
C44 C45 1.363 . S
C44 H56 0.929 . S
C45 C44 1.363 . S
C45 N47 1.375 . S
C45 H63 0.931 . S
C46 N43 1.311 . S
C46 N47 1.347 . S
C46 H57 0.929 1_545 S
N47 C45 1.375 . S
N47 C46 1.347 . S
C48 C51 1.365 . S
C48 N53 1.328 . S
C48 H54 0.929 . S
C49 C50 1.362 . S
C49 C52 1.378 . S
C49 H64 0.929 1_545 S
C50 C49 1.362 . S
C50 C51 1.366 . S
C51 C48 1.365 . S
C51 C50 1.366 . S
C51 H65 0.930 . S
C52 C49 1.378 . S
C52 N53 1.315 . S
C52 H55 0.930 1_545 S
N53 Co33 2.194 . S
N53 C48 1.328 . S
N53 C52 1.315 . S
H54 C48 0.929 . S
H55 C52 0.930 1_565 S
H56 C44 0.929 . S
H57 C46 0.929 1_565 S
O58 Co33 2.351 . S
O58 C61 1.244 . S
O59 Co33 2.155 . S
O59 C61 1.240 . S
O60 Co33 2.096 1_565 S
O60 C41 1.247 . S
C61 O58 1.244 . S
C61 O59 1.240 . S
H62 C36 0.931 . S
H63 C45 0.931 . S
H64 C49 0.929 1_565 S
H65 C51 0.930 . S
Co66 N70 2.148 . S
Co66 N76 2.128 . S
Co66 N86 2.194 . S
Co66 O91 2.351 1_545 S
Co66 O92 2.155 1_545 S
Co66 O93 2.096 . S
C67 N70 1.291 1_565 S
C67 N71 1.326 1_565 S
C67 H72 0.941 . S
C68 C69 1.333 . S
C68 N70 1.317 . S
C68 H73 0.930 . S
C69 C68 1.333 . S
C69 N71 1.350 . S
C69 H95 0.931 . S
N70 Co66 2.148 . S
N70 C67 1.291 1_545 S
N70 C68 1.317 . S
N71 C67 1.326 1_545 S
N71 C69 1.350 . S
H72 C67 0.941 . S
H73 C68 0.930 . S
C74 O75 1.224 . S
C74 O93 1.247 . S
O75 C74 1.224 . S
N76 Co66 2.128 . S
N76 C77 1.355 . S
N76 C79 1.311 . S
C77 N76 1.355 . S
C77 C78 1.363 . S
C77 H89 0.929 . S
C78 C77 1.363 . S
C78 N80 1.375 . S
C78 H96 0.931 . S
C79 N76 1.311 . S
C79 N80 1.347 . S
C79 H90 0.929 . S
N80 C78 1.375 . S
N80 C79 1.347 . S
C81 C84 1.365 . S
C81 N86 1.328 . S
C81 H87 0.929 1_545 S
C82 C83 1.362 . S
C82 C85 1.378 . S
C82 H97 0.929 . S
C83 C82 1.362 . S
C83 C84 1.366 . S
C84 C81 1.365 . S
C84 C83 1.366 . S
C84 H98 0.930 1_545 S
C85 C82 1.378 . S
C85 N86 1.315 . S
C85 H88 0.930 . S
N86 Co66 2.194 . S
N86 C81 1.328 . S
N86 C85 1.315 . S
H87 C81 0.929 1_565 S
H88 C85 0.930 . S
H89 C77 0.929 . S
H90 C79 0.929 . S
O91 Co66 2.351 1_565 S
O91 C94 1.244 . S
O92 Co66 2.155 1_565 S
O92 C94 1.240 . S
O93 Co66 2.096 . S
O93 C74 1.247 . S
C94 O91 1.244 . S
C94 O92 1.240 . S
H95 C69 0.931 . S
H96 C78 0.931 . S
H97 C82 0.929 . S
H98 C84 0.930 1_565 S
Co99 N103 2.148 . S
Co99 N109 2.128 . S
Co99 N119 2.194 . S
Co99 O124 2.351 . S
Co99 O125 2.155 . S
Co99 O126 2.096 . S
C100 N103 1.301 . S
C100 N104 1.328 . S
C100 H105 0.930 . S
C101 C102 1.333 . S
C101 N103 1.317 . S
C101 H106 0.930 . S
C102 C101 1.333 . S
C102 N104 1.350 . S
C102 H128 0.931 . S
N103 Co99 2.148 . S
N103 C100 1.301 . S
N103 C101 1.317 . S
N104 C100 1.328 . S
N104 C102 1.350 . S
H105 C100 0.930 . S
H106 C101 0.930 . S
C107 O108 1.224 . S
C107 O126 1.247 . S
O108 C107 1.224 . S
N109 Co99 2.128 . S
N109 C110 1.355 . S
N109 C112 1.311 . S
C110 N109 1.355 . S
C110 C111 1.363 . S
C110 H122 0.929 . S
C111 C110 1.363 . S
C111 N113 1.375 . S
C111 H129 0.931 . S
C112 N109 1.311 . S
C112 N113 1.347 . S
C112 H123 0.929 . S
N113 C111 1.375 . S
N113 C112 1.347 . S
C114 C117 1.365 . S
C114 N119 1.328 . S
C114 H120 0.929 . S
C115 C116 1.362 . S
C115 C118 1.378 . S
C115 H130 0.929 . S
C116 C115 1.362 . S
C116 C117 1.366 . S
C117 C114 1.365 . S
C117 C116 1.366 . S
C117 H131 0.930 . S
C118 C115 1.378 . S
C118 N119 1.315 . S
C118 H121 0.930 . S
N119 Co99 2.194 . S
N119 C114 1.328 . S
N119 C118 1.315 . S
H120 C114 0.929 . S
H121 C118 0.930 . S
H122 C110 0.929 . S
H123 C112 0.929 . S
O124 Co99 2.351 . S
O124 C127 1.244 . S
O125 Co99 2.155 . S
O125 C127 1.240 . S
O126 Co99 2.096 . S
O126 C107 1.247 . S
C127 O124 1.244 . S
C127 O125 1.240 . S
H128 C102 0.931 . S
H129 C111 0.931 . S
H130 C115 0.929 . S
H131 C117 0.930 . S
Co132 N136 2.148 . S
Co132 N142 2.128 1_554 S
Co132 N152 2.194 . S
Co132 O157 2.351 . S
Co132 O158 2.155 . S
Co132 O159 2.096 . S
C133 N136 1.301 . S
C133 N137 1.328 . S
C133 H138 0.930 . S
C134 C135 1.333 . S
C134 N136 1.317 . S
C134 H139 0.930 . S
C135 C134 1.333 . S
C135 N137 1.350 . S
C135 H161 0.931 . S
N136 Co132 2.148 . S
N136 C133 1.301 . S
N136 C134 1.317 . S
N137 C133 1.328 . S
N137 C135 1.350 . S
H138 C133 0.930 . S
H139 C134 0.930 . S
C140 O141 1.224 . S
C140 O159 1.247 . S
O141 C140 1.224 . S
N142 Co132 2.128 1_556 S
N142 C143 1.355 . S
N142 C145 1.311 . S
C143 N142 1.355 . S
C143 C144 1.363 . S
C143 H155 0.929 . S
C144 C143 1.363 . S
C144 N146 1.375 . S
C144 H162 0.931 . S
C145 N142 1.311 . S
C145 N146 1.347 . S
C145 H156 0.929 . S
N146 C144 1.375 . S
N146 C145 1.347 . S
C147 C150 1.365 . S
C147 N152 1.328 . S
C147 H153 0.929 . S
C148 C149 1.362 . S
C148 C151 1.378 . S
C148 H163 0.929 . S
C149 C148 1.362 . S
C149 C150 1.366 . S
C150 C147 1.365 . S
C150 C149 1.366 . S
C150 H164 0.930 . S
C151 C148 1.378 . S
C151 N152 1.315 . S
C151 H154 0.930 . S
N152 Co132 2.194 . S
N152 C147 1.328 . S
N152 C151 1.315 . S
H153 C147 0.929 . S
H154 C151 0.930 . S
H155 C143 0.929 . S
H156 C145 0.929 . S
O157 Co132 2.351 . S
O157 C160 1.244 . S
O158 Co132 2.155 . S
O158 C160 1.240 . S
O159 Co132 2.096 . S
O159 C140 1.247 . S
C160 O157 1.244 . S
C160 O158 1.240 . S
H161 C135 0.931 . S
H162 C144 0.931 . S
H163 C148 0.929 . S
H164 C150 0.930 . S
Co165 N169 2.148 . S
Co165 N175 2.128 1_554 S
Co165 N185 2.194 . S
Co165 O190 2.351 . S
Co165 O191 2.155 . S
Co165 O192 2.096 1_545 S
C166 N169 1.301 . S
C166 N170 1.328 . S
C166 H171 0.930 . S
C167 C168 1.333 1_565 S
C167 N169 1.317 1_565 S
C167 H172 0.930 . S
C168 C167 1.333 1_545 S
C168 N170 1.350 . S
C168 H194 0.931 1_545 S
N169 Co165 2.148 . S
N169 C166 1.301 . S
N169 C167 1.317 1_545 S
N170 C166 1.328 . S
N170 C168 1.350 . S
H171 C166 0.930 . S
H172 C167 0.930 . S
C173 O174 1.224 . S
C173 O192 1.247 . S
O174 C173 1.224 . S
N175 Co165 2.128 1_556 S
N175 C176 1.355 . S
N175 C178 1.311 1_545 S
C176 N175 1.355 . S
C176 C177 1.363 . S
C176 H188 0.929 . S
C177 C176 1.363 . S
C177 N179 1.375 1_545 S
C177 H195 0.931 . S
C178 N175 1.311 1_565 S
C178 N179 1.347 . S
C178 H189 0.929 . S
N179 C177 1.375 1_565 S
N179 C178 1.347 . S
C180 C183 1.365 . S
C180 N185 1.328 . S
C180 H186 0.929 . S
C181 C182 1.362 . S
C181 C184 1.378 . S
C181 H196 0.929 . S
C182 C181 1.362 . S
C182 C183 1.366 1_565 S
C183 C180 1.365 . S
C183 C182 1.366 1_545 S
C183 H197 0.930 . S
C184 C181 1.378 . S
C184 N185 1.315 1_565 S
C184 H187 0.930 . S
N185 Co165 2.194 . S
N185 C180 1.328 . S
N185 C184 1.315 1_545 S
H186 C180 0.929 . S
H187 C184 0.930 . S
H188 C176 0.929 . S
H189 C178 0.929 . S
O190 Co165 2.351 . S
O190 C193 1.244 . S
O191 Co165 2.155 . S
O191 C193 1.240 . S
O192 Co165 2.096 1_565 S
O192 C173 1.247 . S
C193 O190 1.244 . S
C193 O191 1.240 . S
H194 C168 0.931 1_565 S
H195 C177 0.931 . S
H196 C181 0.929 . S
H197 C183 0.930 . S
Co198 N202 2.148 . S
Co198 N208 2.128 . S
Co198 N218 2.194 . S
Co198 O223 2.351 . S
Co198 O224 2.155 . S
Co198 O225 2.096 1_545 S
C199 N202 1.301 . S
C199 N203 1.328 . S
C199 H204 0.930 . S
C200 C201 1.333 1_565 S
C200 N202 1.317 1_565 S
C200 H205 0.930 . S
C201 C200 1.333 1_545 S
C201 N203 1.350 . S
C201 H227 0.931 1_545 S
N202 Co198 2.148 . S
N202 C199 1.301 . S
N202 C200 1.317 1_545 S
N203 C199 1.328 . S
N203 C201 1.350 . S
H204 C199 0.930 . S
H205 C200 0.930 . S
C206 O207 1.224 . S
C206 O225 1.247 . S
O207 C206 1.224 . S
N208 Co198 2.128 . S
N208 C209 1.355 . S
N208 C211 1.311 1_545 S
C209 N208 1.355 . S
C209 C210 1.363 . S
C209 H221 0.929 . S
C210 C209 1.363 . S
C210 N212 1.375 1_545 S
C210 H228 0.931 . S
C211 N208 1.311 1_565 S
C211 N212 1.347 . S
C211 H222 0.929 . S
N212 C210 1.375 1_565 S
N212 C211 1.347 . S
C213 C216 1.365 . S
C213 N218 1.328 . S
C213 H219 0.929 . S
C214 C215 1.362 . S
C214 C217 1.378 . S
C214 H229 0.929 . S
C215 C214 1.362 . S
C215 C216 1.366 1_565 S
C216 C213 1.365 . S
C216 C215 1.366 1_545 S
C216 H230 0.930 . S
C217 C214 1.378 . S
C217 N218 1.315 1_565 S
C217 H220 0.930 . S
N218 Co198 2.194 . S
N218 C213 1.328 . S
N218 C217 1.315 1_545 S
H219 C213 0.929 . S
H220 C217 0.930 . S
H221 C209 0.929 . S
H222 C211 0.929 . S
O223 Co198 2.351 . S
O223 C226 1.244 . S
O224 Co198 2.155 . S
O224 C226 1.240 . S
O225 Co198 2.096 1_565 S
O225 C206 1.247 . S
C226 O223 1.244 . S
C226 O224 1.240 . S
H227 C201 0.931 1_565 S
H228 C210 0.931 . S
H229 C214 0.929 . S
H230 C216 0.930 . S
Co231 N235 2.148 . S
Co231 N241 2.128 . S
Co231 N251 2.194 . S
Co231 O256 2.351 . S
Co231 O257 2.155 . S
Co231 O258 2.096 . S
C232 N235 1.301 . S
C232 N236 1.328 . S
C232 H237 0.930 . S
C233 C234 1.333 . S
C233 N235 1.317 . S
C233 H238 0.930 . S
C234 C233 1.333 . S
C234 N236 1.350 . S
C234 H260 0.931 . S
N235 Co231 2.148 . S
N235 C232 1.301 . S
N235 C233 1.317 . S
N236 C232 1.328 . S
N236 C234 1.350 . S
H237 C232 0.930 . S
H238 C233 0.930 . S
C239 O240 1.224 . S
C239 O258 1.247 . S
O240 C239 1.224 . S
N241 Co231 2.128 . S
N241 C242 1.355 . S
N241 C244 1.311 . S
C242 N241 1.355 . S
C242 C243 1.363 . S
C242 H254 0.929 . S
C243 C242 1.363 . S
C243 N245 1.375 . S
C243 H261 0.931 . S
C244 N241 1.311 . S
C244 N245 1.347 . S
C244 H255 0.929 . S
N245 C243 1.375 . S
N245 C244 1.347 . S
C246 C249 1.365 . S
C246 N251 1.328 . S
C246 H252 0.929 . S
C247 C248 1.362 . S
C247 C250 1.378 . S
C247 H262 0.929 . S
C248 C247 1.362 . S
C248 C249 1.366 . S
C249 C246 1.365 . S
C249 C248 1.366 . S
C249 H263 0.930 . S
C250 C247 1.378 . S
C250 N251 1.315 . S
C250 H253 0.930 . S
N251 Co231 2.194 . S
N251 C246 1.328 . S
N251 C250 1.315 . S
H252 C246 0.929 . S
H253 C250 0.930 . S
H254 C242 0.929 . S
H255 C244 0.929 . S
O256 Co231 2.351 . S
O256 C259 1.244 . S
O257 Co231 2.155 . S
O257 C259 1.240 . S
O258 Co231 2.096 . S
O258 C239 1.247 . S
C259 O256 1.244 . S
C259 O257 1.240 . S
H260 C234 0.931 . S
H261 C243 0.931 . S
H262 C247 0.929 . S
H263 C249 0.930 . S
Co264 N268 2.148 . S
Co264 N274 2.128 . S
Co264 N284 2.194 . S
Co264 O289 2.351 . S
Co264 O290 2.155 . S
Co264 O291 2.096 . S
C265 N268 1.301 . S
C265 N269 1.328 . S
C265 H270 0.930 . S
C266 C267 1.333 . S
C266 N268 1.317 . S
C266 H271 0.930 . S
C267 C266 1.333 . S
C267 N269 1.350 . S
C267 H293 0.931 . S
N268 Co264 2.148 . S
N268 C265 1.301 . S
N268 C266 1.317 . S
N269 C265 1.328 . S
N269 C267 1.350 . S
H270 C265 0.930 . S
H271 C266 0.930 . S
C272 O273 1.224 . S
C272 O291 1.247 . S
O273 C272 1.224 . S
N274 Co264 2.128 . S
N274 C275 1.355 . S
N274 C277 1.311 . S
C275 N274 1.355 . S
C275 C276 1.363 . S
C275 H287 0.929 . S
C276 C275 1.363 . S
C276 N278 1.375 . S
C276 H294 0.931 . S
C277 N274 1.311 . S
C277 N278 1.347 . S
C277 H288 0.929 . S
N278 C276 1.375 . S
N278 C277 1.347 . S
C279 C282 1.365 . S
C279 N284 1.328 . S
C279 H285 0.929 . S
C280 C281 1.362 . S
C280 C283 1.378 . S
C280 H295 0.929 . S
C281 C280 1.362 . S
C281 C282 1.366 . S
C282 C279 1.365 . S
C282 C281 1.366 . S
C282 H296 0.930 . S
C283 C280 1.378 . S
C283 N284 1.315 . S
C283 H286 0.930 . S
N284 Co264 2.194 . S
N284 C279 1.328 . S
N284 C283 1.315 . S
H285 C279 0.929 . S
H286 C283 0.930 . S
H287 C275 0.929 . S
H288 C277 0.929 . S
O289 Co264 2.351 . S
O289 C292 1.244 . S
O290 Co264 2.155 . S
O290 C292 1.240 . S
O291 Co264 2.096 . S
O291 C272 1.247 . S
C292 O289 1.244 . S
C292 O290 1.240 . S
H293 C267 0.931 . S
H294 C276 0.931 . S
H295 C280 0.929 . S
H296 C282 0.930 . S
Co297 N301 2.148 . S
Co297 N307 2.128 . S
Co297 N317 2.194 . S
Co297 O322 2.351 . S
Co297 O323 2.155 . S
Co297 O324 2.096 . S
C298 N301 1.301 . S
C298 N302 1.328 . S
C298 H303 0.930 . S
C299 C300 1.333 . S
C299 N301 1.317 . S
C299 H304 0.930 . S
C300 C299 1.333 . S
C300 N302 1.350 . S
C300 H326 0.931 . S
N301 Co297 2.148 . S
N301 C298 1.301 . S
N301 C299 1.317 . S
N302 C298 1.328 . S
N302 C300 1.350 . S
H303 C298 0.930 . S
H304 C299 0.930 . S
C305 O306 1.224 . S
C305 O324 1.247 . S
O306 C305 1.224 . S
N307 Co297 2.128 . S
N307 C308 1.355 . S
N307 C310 1.311 . S
C308 N307 1.355 . S
C308 C309 1.363 . S
C308 H320 0.929 . S
C309 C308 1.363 . S
C309 N311 1.375 . S
C309 H327 0.931 . S
C310 N307 1.311 . S
C310 N311 1.347 . S
C310 H321 0.929 . S
N311 C309 1.375 . S
N311 C310 1.347 . S
C312 C315 1.365 . S
C312 N317 1.328 . S
C312 H318 0.929 . S
C313 C314 1.362 . S
C313 C316 1.378 . S
C313 H328 0.929 . S
C314 C313 1.362 . S
C314 C315 1.366 . S
C315 C312 1.365 . S
C315 C314 1.366 . S
C315 H329 0.930 . S
C316 C313 1.378 . S
C316 N317 1.315 . S
C316 H319 0.930 . S
N317 Co297 2.194 . S
N317 C312 1.328 . S
N317 C316 1.315 . S
H318 C312 0.929 . S
H319 C316 0.930 . S
H320 C308 0.929 . S
H321 C310 0.929 . S
O322 Co297 2.351 . S
O322 C325 1.244 . S
O323 Co297 2.155 . S
O323 C325 1.240 . S
O324 Co297 2.096 . S
O324 C305 1.247 . S
C325 O322 1.244 . S
C325 O323 1.240 . S
H326 C300 0.931 . S
H327 C309 0.931 . S
H328 C313 0.929 . S
H329 C315 0.930 . S
Co330 N334 2.148 . S
Co330 N340 2.128 . S
Co330 N350 2.194 . S
Co330 O355 2.351 . S
Co330 O356 2.155 . S
Co330 O357 2.096 . S
C331 N334 1.301 . S
C331 N335 1.328 . S
C331 H336 0.930 . S
C332 C333 1.333 . S
C332 N334 1.317 . S
C332 H337 0.930 . S
C333 C332 1.333 . S
C333 N335 1.350 . S
C333 H359 0.931 . S
N334 Co330 2.148 . S
N334 C331 1.301 . S
N334 C332 1.317 . S
N335 C331 1.328 . S
N335 C333 1.350 . S
H336 C331 0.930 . S
H337 C332 0.930 . S
C338 O339 1.224 . S
C338 O357 1.247 . S
O339 C338 1.224 . S
N340 Co330 2.128 . S
N340 C341 1.355 . S
N340 C343 1.311 . S
C341 N340 1.355 . S
C341 C342 1.363 . S
C341 H353 0.929 . S
C342 C341 1.363 . S
C342 N344 1.375 . S
C342 H360 0.931 . S
C343 N340 1.311 . S
C343 N344 1.347 . S
C343 H354 0.929 . S
N344 C342 1.375 . S
N344 C343 1.347 . S
C345 C348 1.365 . S
C345 N350 1.328 . S
C345 H351 0.929 . S
C346 C347 1.362 . S
C346 C349 1.378 . S
C346 H361 0.929 . S
C347 C346 1.362 . S
C347 C348 1.366 . S
C348 C345 1.365 . S
C348 C347 1.366 . S
C348 H362 0.930 . S
C349 C346 1.378 . S
C349 N350 1.315 . S
C349 H352 0.930 . S
N350 Co330 2.194 . S
N350 C345 1.328 . S
N350 C349 1.315 . S
H351 C345 0.929 . S
H352 C349 0.930 . S
H353 C341 0.929 . S
H354 C343 0.929 . S
O355 Co330 2.351 . S
O355 C358 1.244 . S
O356 Co330 2.155 . S
O356 C358 1.240 . S
O357 Co330 2.096 . S
O357 C338 1.247 . S
C358 O355 1.244 . S
C358 O356 1.240 . S
H359 C333 0.931 . S
H360 C342 0.931 . S
H361 C346 0.929 . S
H362 C348 0.930 . S
Co363 N367 2.148 . S
Co363 N373 2.128 . S
Co363 N383 2.194 . S
Co363 O388 2.351 . S
Co363 O389 2.155 . S
Co363 O390 2.096 . S
C364 N367 1.301 . S
C364 N368 1.328 . S
C364 H369 0.930 . S
C365 C366 1.333 . S
C365 N367 1.317 . S
C365 H370 0.930 . S
C366 C365 1.333 . S
C366 N368 1.350 . S
C366 H392 0.931 . S
N367 Co363 2.148 . S
N367 C364 1.301 . S
N367 C365 1.317 . S
N368 C364 1.328 . S
N368 C366 1.350 . S
H369 C364 0.930 . S
H370 C365 0.930 . S
C371 O372 1.224 . S
C371 O390 1.247 . S
O372 C371 1.224 . S
N373 Co363 2.128 . S
N373 C374 1.355 . S
N373 C376 1.311 . S
C374 N373 1.355 . S
C374 C375 1.363 . S
C374 H386 0.929 . S
C375 C374 1.363 . S
C375 N377 1.375 . S
C375 H393 0.931 . S
C376 N373 1.311 . S
C376 N377 1.347 . S
C376 H387 0.929 . S
N377 C375 1.375 . S
N377 C376 1.347 . S
C378 C381 1.365 . S
C378 N383 1.328 . S
C378 H384 0.929 . S
C379 C380 1.362 . S
C379 C382 1.378 . S
C379 H394 0.929 . S
C380 C379 1.362 . S
C380 C381 1.366 . S
C381 C378 1.365 . S
C381 C380 1.366 . S
C381 H395 0.930 . S
C382 C379 1.378 . S
C382 N383 1.315 . S
C382 H385 0.930 . S
N383 Co363 2.194 . S
N383 C378 1.328 . S
N383 C382 1.315 . S
H384 C378 0.929 . S
H385 C382 0.930 . S
H386 C374 0.929 . S
H387 C376 0.929 . S
O388 Co363 2.351 . S
O388 C391 1.244 . S
O389 Co363 2.155 . S
O389 C391 1.240 . S
O390 Co363 2.096 . S
O390 C371 1.247 . S
C391 O388 1.244 . S
C391 O389 1.240 . S
H392 C366 0.931 . S
H393 C375 0.931 . S
H394 C379 0.929 . S
H395 C381 0.930 . S
Co396 N400 2.148 . S
Co396 N406 2.128 . S
Co396 N416 2.194 . S
Co396 O421 2.351 . S
Co396 O422 2.155 . S
Co396 O423 2.096 . S
C397 N400 1.301 . S
C397 N401 1.328 . S
C397 H402 0.930 . S
C398 C399 1.333 . S
C398 N400 1.317 . S
C398 H403 0.930 . S
C399 C398 1.333 . S
C399 N401 1.350 . S
C399 H425 0.931 . S
N400 Co396 2.148 . S
N400 C397 1.301 . S
N400 C398 1.317 . S
N401 C397 1.328 . S
N401 C399 1.350 . S
H402 C397 0.930 . S
H403 C398 0.930 . S
C404 O405 1.224 . S
C404 O423 1.247 . S
O405 C404 1.224 . S
N406 Co396 2.128 . S
N406 C407 1.355 . S
N406 C409 1.311 . S
C407 N406 1.355 . S
C407 C408 1.363 . S
C407 H419 0.929 . S
C408 C407 1.363 . S
C408 N410 1.375 . S
C408 H426 0.931 . S
C409 N406 1.311 . S
C409 N410 1.347 . S
C409 H420 0.929 . S
N410 C408 1.375 . S
N410 C409 1.347 . S
C411 C414 1.365 . S
C411 N416 1.328 . S
C411 H417 0.929 . S
C412 C413 1.362 . S
C412 C415 1.378 . S
C412 H427 0.929 . S
C413 C412 1.362 . S
C413 C414 1.366 . S
C414 C411 1.365 . S
C414 C413 1.366 . S
C414 H428 0.930 . S
C415 C412 1.378 . S
C415 N416 1.315 . S
C415 H418 0.930 . S
N416 Co396 2.194 . S
N416 C411 1.328 . S
N416 C415 1.315 . S
H417 C411 0.929 . S
H418 C415 0.930 . S
H419 C407 0.929 . S
H420 C409 0.929 . S
O421 Co396 2.351 . S
O421 C424 1.244 . S
O422 Co396 2.155 . S
O422 C424 1.240 . S
O423 Co396 2.096 . S
O423 C404 1.247 . S
C424 O421 1.244 . S
C424 O422 1.240 . S
H425 C399 0.931 . S
H426 C408 0.931 . S
H427 C412 0.929 . S
H428 C414 0.930 . S
Co429 N433 2.148 . S
Co429 N439 2.128 . S
Co429 N449 2.194 . S
Co429 O454 2.351 . S
Co429 O455 2.155 . S
Co429 O456 2.096 . S
C430 N433 1.301 . S
C430 N434 1.328 . S
C430 H435 0.930 . S
C431 C432 1.333 . S
C431 N433 1.317 . S
C431 H436 0.930 . S
C432 C431 1.333 . S
C432 N434 1.350 . S
C432 H458 0.931 . S
N433 Co429 2.148 . S
N433 C430 1.301 . S
N433 C431 1.317 . S
N434 C430 1.328 . S
N434 C432 1.350 . S
H435 C430 0.930 . S
H436 C431 0.930 . S
C437 O438 1.224 . S
C437 O456 1.247 . S
O438 C437 1.224 . S
N439 Co429 2.128 . S
N439 C440 1.355 . S
N439 C442 1.311 . S
C440 N439 1.355 . S
C440 C441 1.363 . S
C440 H452 0.929 . S
C441 C440 1.363 . S
C441 N443 1.375 . S
C441 H459 0.931 . S
C442 N439 1.311 . S
C442 N443 1.347 . S
C442 H453 0.929 . S
N443 C441 1.375 . S
N443 C442 1.347 . S
C444 C447 1.365 . S
C444 N449 1.328 . S
C444 H450 0.929 . S
C445 C446 1.362 . S
C445 C448 1.378 . S
C445 H460 0.929 . S
C446 C445 1.362 . S
C446 C447 1.366 . S
C447 C444 1.365 . S
C447 C446 1.366 . S
C447 H461 0.930 . S
C448 C445 1.378 . S
C448 N449 1.315 . S
C448 H451 0.930 . S
N449 Co429 2.194 . S
N449 C444 1.328 . S
N449 C448 1.315 . S
H450 C444 0.929 . S
H451 C448 0.930 . S
H452 C440 0.929 . S
H453 C442 0.929 . S
O454 Co429 2.351 . S
O454 C457 1.244 . S
O455 Co429 2.155 . S
O455 C457 1.240 . S
O456 Co429 2.096 . S
O456 C437 1.247 . S
C457 O454 1.244 . S
C457 O455 1.240 . S
H458 C432 0.931 . S
H459 C441 0.931 . S
H460 C445 0.929 . S
H461 C447 0.930 . S
Co462 N466 2.148 . S
Co462 N472 2.128 . S
Co462 N482 2.194 . S
Co462 O487 2.351 . S
Co462 O488 2.155 . S
Co462 O489 2.096 . S
C463 N466 1.301 . S
C463 N467 1.328 . S
C463 H468 0.930 . S
C464 C465 1.333 . S
C464 N466 1.317 . S
C464 H469 0.930 . S
C465 C464 1.333 . S
C465 N467 1.350 . S
C465 H491 0.931 . S
N466 Co462 2.148 . S
N466 C463 1.301 . S
N466 C464 1.317 . S
N467 C463 1.328 . S
N467 C465 1.350 . S
H468 C463 0.930 . S
H469 C464 0.930 . S
C470 O471 1.224 . S
C470 O489 1.247 . S
O471 C470 1.224 . S
N472 Co462 2.128 . S
N472 C473 1.355 . S
N472 C475 1.311 . S
C473 N472 1.355 . S
C473 C474 1.363 . S
C473 H485 0.929 . S
C474 C473 1.363 . S
C474 N476 1.375 . S
C474 H492 0.931 . S
C475 N472 1.311 . S
C475 N476 1.347 . S
C475 H486 0.929 . S
N476 C474 1.375 . S
N476 C475 1.347 . S
C477 C480 1.365 . S
C477 N482 1.328 . S
C477 H483 0.929 . S
C478 C479 1.362 . S
C478 C481 1.378 . S
C478 H493 0.929 . S
C479 C478 1.362 . S
C479 C480 1.366 . S
C480 C477 1.365 . S
C480 C479 1.366 . S
C480 H494 0.930 . S
C481 C478 1.378 . S
C481 N482 1.315 . S
C481 H484 0.930 . S
N482 Co462 2.194 . S
N482 C477 1.328 . S
N482 C481 1.315 . S
H483 C477 0.929 . S
H484 C481 0.930 . S
H485 C473 0.929 . S
H486 C475 0.929 . S
O487 Co462 2.351 . S
O487 C490 1.244 . S
O488 Co462 2.155 . S
O488 C490 1.240 . S
O489 Co462 2.096 . S
O489 C470 1.247 . S
C490 O487 1.244 . S
C490 O488 1.240 . S
H491 C465 0.931 . S
H492 C474 0.931 . S
H493 C478 0.929 . S
H494 C480 0.930 . S
Co495 N499 2.148 . S
Co495 N505 2.128 . S
Co495 N515 2.194 . S
Co495 O520 2.351 . S
Co495 O521 2.155 . S
Co495 O522 2.096 . S
C496 N499 1.301 . S
C496 N500 1.328 . S
C496 H501 0.930 . S
C497 C498 1.333 . S
C497 N499 1.317 . S
C497 H502 0.930 . S
C498 C497 1.333 . S
C498 N500 1.350 . S
C498 H524 0.931 . S
N499 Co495 2.148 . S
N499 C496 1.301 . S
N499 C497 1.317 . S
N500 C496 1.328 . S
N500 C498 1.350 . S
H501 C496 0.930 . S
H502 C497 0.930 . S
C503 O504 1.224 . S
C503 O522 1.247 . S
O504 C503 1.224 . S
N505 Co495 2.128 . S
N505 C506 1.355 . S
N505 C508 1.311 . S
C506 N505 1.355 . S
C506 C507 1.363 . S
C506 H518 0.929 . S
C507 C506 1.363 . S
C507 N509 1.375 . S
C507 H525 0.931 . S
C508 N505 1.311 . S
C508 N509 1.347 . S
C508 H519 0.929 . S
N509 C507 1.375 . S
N509 C508 1.347 . S
C510 C513 1.365 . S
C510 N515 1.328 . S
C510 H516 0.929 . S
C511 C512 1.362 . S
C511 C514 1.378 . S
C511 H526 0.929 . S
C512 C511 1.362 . S
C512 C513 1.366 . S
C513 C510 1.365 . S
C513 C512 1.366 . S
C513 H527 0.930 . S
C514 C511 1.378 . S
C514 N515 1.315 . S
C514 H517 0.930 . S
N515 Co495 2.194 . S
N515 C510 1.328 . S
N515 C514 1.315 . S
H516 C510 0.929 . S
H517 C514 0.930 . S
H518 C506 0.929 . S
H519 C508 0.929 . S
O520 Co495 2.351 . S
O520 C523 1.244 . S
O521 Co495 2.155 . S
O521 C523 1.240 . S
O522 Co495 2.096 . S
O522 C503 1.247 . S
C523 O520 1.244 . S
C523 O521 1.240 . S
H524 C498 0.931 . S
H525 C507 0.931 . S
H526 C511 0.929 . S
H527 C513 0.930 . S
Co528 N532 2.148 . S
Co528 N538 2.128 . S
Co528 N548 2.194 . S
Co528 O553 2.351 . S
Co528 O554 2.155 . S
Co528 O555 2.096 . S
C529 N532 1.301 . S
C529 N533 1.328 . S
C529 H534 0.930 . S
C530 C531 1.333 . S
C530 N532 1.317 . S
C530 H535 0.930 . S
C531 C530 1.333 . S
C531 N533 1.350 . S
C531 H557 0.931 . S
N532 Co528 2.148 . S
N532 C529 1.301 . S
N532 C530 1.317 . S
N533 C529 1.328 . S
N533 C531 1.350 . S
H534 C529 0.930 . S
H535 C530 0.930 . S
C536 O537 1.224 . S
C536 O555 1.247 . S
O537 C536 1.224 . S
N538 Co528 2.128 . S
N538 C539 1.355 . S
N538 C541 1.311 . S
C539 N538 1.355 . S
C539 C540 1.363 . S
C539 H551 0.929 . S
C540 C539 1.363 . S
C540 N542 1.375 . S
C540 H558 0.931 . S
C541 N538 1.311 . S
C541 N542 1.347 . S
C541 H552 0.929 . S
N542 C540 1.375 . S
N542 C541 1.347 . S
C543 C546 1.365 . S
C543 N548 1.328 . S
C543 H549 0.929 . S
C544 C545 1.362 . S
C544 C547 1.378 . S
C544 H559 0.929 . S
C545 C544 1.362 . S
C545 C546 1.366 . S
C546 C543 1.365 . S
C546 C545 1.366 . S
C546 H560 0.930 . S
C547 C544 1.378 . S
C547 N548 1.315 . S
C547 H550 0.930 . S
N548 Co528 2.194 . S
N548 C543 1.328 . S
N548 C547 1.315 . S
H549 C543 0.929 . S
H550 C547 0.930 . S
H551 C539 0.929 . S
H552 C541 0.929 . S
O553 Co528 2.351 . S
O553 C556 1.244 . S
O554 Co528 2.155 . S
O554 C556 1.240 . S
O555 Co528 2.096 . S
O555 C536 1.247 . S
C556 O553 1.244 . S
C556 O554 1.240 . S
H557 C531 0.931 . S
H558 C540 0.931 . S
H559 C544 0.929 . S
H560 C546 0.930 . S
Co561 N565 2.148 . S
Co561 N571 2.128 . S
Co561 N581 2.194 . S
Co561 O586 2.351 . S
Co561 O587 2.155 . S
Co561 O588 2.096 1_545 S
C562 N565 1.301 . S
C562 N566 1.328 . S
C562 H567 0.930 . S
C563 C564 1.333 . S
C563 N565 1.317 . S
C563 H568 0.930 1_545 S
C564 C563 1.333 . S
C564 N566 1.350 . S
C564 H590 0.931 . S
N565 Co561 2.148 . S
N565 C562 1.301 . S
N565 C563 1.317 . S
N566 C562 1.328 . S
N566 C564 1.350 . S
H567 C562 0.930 . S
H568 C563 0.930 1_565 S
C569 O570 1.224 . S
C569 O588 1.247 . S
O570 C569 1.224 . S
N571 Co561 2.128 . S
N571 C572 1.355 . S
N571 C574 1.311 . S
C572 N571 1.355 . S
C572 C573 1.363 . S
C572 H584 0.929 . S
C573 C572 1.363 . S
C573 N575 1.375 . S
C573 H591 0.931 . S
C574 N571 1.311 . S
C574 N575 1.347 . S
C574 H585 0.929 1_545 S
N575 C573 1.375 . S
N575 C574 1.347 . S
C576 C579 1.365 . S
C576 N581 1.328 . S
C576 H582 0.929 . S
C577 C578 1.362 . S
C577 C580 1.378 . S
C577 H592 0.929 1_545 S
C578 C577 1.362 . S
C578 C579 1.366 . S
C579 C576 1.365 . S
C579 C578 1.366 . S
C579 H593 0.930 . S
C580 C577 1.378 . S
C580 N581 1.315 . S
C580 H583 0.930 1_545 S
N581 Co561 2.194 . S
N581 C576 1.328 . S
N581 C580 1.315 . S
H582 C576 0.929 . S
H583 C580 0.930 1_565 S
H584 C572 0.929 . S
H585 C574 0.929 1_565 S
O586 Co561 2.351 . S
O586 C589 1.244 . S
O587 Co561 2.155 . S
O587 C589 1.240 . S
O588 Co561 2.096 1_565 S
O588 C569 1.247 . S
C589 O586 1.244 . S
C589 O587 1.240 . S
H590 C564 0.931 . S
H591 C573 0.931 . S
H592 C577 0.929 1_565 S
H593 C579 0.930 . S
Co594 N598 2.148 . S
Co594 N604 2.128 . S
Co594 N614 2.194 . S
Co594 O619 2.351 1_545 S
Co594 O620 2.155 1_545 S
Co594 O621 2.096 . S
C595 N598 1.290 1_565 S
C595 N599 1.326 1_565 S
C595 H600 0.942 . S
C596 C597 1.333 . S
C596 N598 1.317 . S
C596 H601 0.930 . S
C597 C596 1.333 . S
C597 N599 1.350 . S
C597 H623 0.931 . S
N598 Co594 2.148 . S
N598 C595 1.290 1_545 S
N598 C596 1.317 . S
N599 C595 1.326 1_545 S
N599 C597 1.350 . S
H600 C595 0.942 . S
H601 C596 0.930 . S
C602 O603 1.224 . S
C602 O621 1.247 . S
O603 C602 1.224 . S
N604 Co594 2.128 . S
N604 C605 1.355 . S
N604 C607 1.311 . S
C605 N604 1.355 . S
C605 C606 1.363 . S
C605 H617 0.929 . S
C606 C605 1.363 . S
C606 N608 1.375 . S
C606 H624 0.931 . S
C607 N604 1.311 . S
C607 N608 1.347 . S
C607 H618 0.929 . S
N608 C606 1.375 . S
N608 C607 1.347 . S
C609 C612 1.365 . S
C609 N614 1.328 . S
C609 H615 0.929 1_545 S
C610 C611 1.362 . S
C610 C613 1.378 . S
C610 H625 0.929 . S
C611 C610 1.362 . S
C611 C612 1.366 . S
C612 C609 1.365 . S
C612 C611 1.366 . S
C612 H626 0.930 1_545 S
C613 C610 1.378 . S
C613 N614 1.315 . S
C613 H616 0.930 . S
N614 Co594 2.194 . S
N614 C609 1.328 . S
N614 C613 1.315 . S
H615 C609 0.929 1_565 S
H616 C613 0.930 . S
H617 C605 0.929 . S
H618 C607 0.929 . S
O619 Co594 2.351 1_565 S
O619 C622 1.244 . S
O620 Co594 2.155 1_565 S
O620 C622 1.240 . S
O621 Co594 2.096 . S
O621 C602 1.247 . S
C622 O619 1.244 . S
C622 O620 1.240 . S
H623 C597 0.931 . S
H624 C606 0.931 . S
H625 C610 0.929 . S
H626 C612 0.930 1_565 S
Co627 N631 2.148 . S
Co627 N637 2.128 . S
Co627 N647 2.194 . S
Co627 O652 2.351 . S
Co627 O653 2.155 . S
Co627 O654 2.096 . S
C628 N631 1.301 . S
C628 N632 1.328 . S
C628 H633 0.930 . S
C629 C630 1.333 . S
C629 N631 1.317 . S
C629 H634 0.930 . S
C630 C629 1.333 . S
C630 N632 1.350 . S
C630 H656 0.931 . S
N631 Co627 2.148 . S
N631 C628 1.301 . S
N631 C629 1.317 . S
N632 C628 1.328 . S
N632 C630 1.350 . S
H633 C628 0.930 . S
H634 C629 0.930 . S
C635 O636 1.224 . S
C635 O654 1.247 . S
O636 C635 1.224 . S
N637 Co627 2.128 . S
N637 C638 1.355 . S
N637 C640 1.311 . S
C638 N637 1.355 . S
C638 C639 1.363 . S
C638 H650 0.929 . S
C639 C638 1.363 . S
C639 N641 1.375 . S
C639 H657 0.931 . S
C640 N637 1.311 . S
C640 N641 1.347 . S
C640 H651 0.929 . S
N641 C639 1.375 . S
N641 C640 1.347 . S
C642 C645 1.365 . S
C642 N647 1.328 . S
C642 H648 0.929 . S
C643 C644 1.362 . S
C643 C646 1.378 . S
C643 H658 0.929 . S
C644 C643 1.362 . S
C644 C645 1.366 . S
C645 C642 1.365 . S
C645 C644 1.366 . S
C645 H659 0.930 . S
C646 C643 1.378 . S
C646 N647 1.315 . S
C646 H649 0.930 . S
N647 Co627 2.194 . S
N647 C642 1.328 . S
N647 C646 1.315 . S
H648 C642 0.929 . S
H649 C646 0.930 . S
H650 C638 0.929 . S
H651 C640 0.929 . S
O652 Co627 2.351 . S
O652 C655 1.244 . S
O653 Co627 2.155 . S
O653 C655 1.240 . S
O654 Co627 2.096 . S
O654 C635 1.247 . S
C655 O652 1.244 . S
C655 O653 1.240 . S
H656 C630 0.931 . S
H657 C639 0.931 . S
H658 C643 0.929 . S
H659 C645 0.930 . S
Co660 N664 2.148 . S
Co660 N670 2.128 . S
Co660 N680 2.194 . S
Co660 O685 2.351 . S
Co660 O686 2.155 . S
Co660 O687 2.096 . S
C661 N664 1.301 . S
C661 N665 1.328 . S
C661 H666 0.930 . S
C662 C663 1.333 . S
C662 N664 1.317 . S
C662 H667 0.930 . S
C663 C662 1.333 . S
C663 N665 1.350 . S
C663 H689 0.931 . S
N664 Co660 2.148 . S
N664 C661 1.301 . S
N664 C662 1.317 . S
N665 C661 1.328 . S
N665 C663 1.350 . S
H666 C661 0.930 . S
H667 C662 0.930 . S
C668 O669 1.224 . S
C668 O687 1.247 . S
O669 C668 1.224 . S
N670 Co660 2.128 . S
N670 C671 1.355 . S
N670 C673 1.311 . S
C671 N670 1.355 . S
C671 C672 1.363 . S
C671 H683 0.929 . S
C672 C671 1.363 . S
C672 N674 1.375 . S
C672 H690 0.931 . S
C673 N670 1.311 . S
C673 N674 1.347 . S
C673 H684 0.929 . S
N674 C672 1.375 . S
N674 C673 1.347 . S
C675 C678 1.365 . S
C675 N680 1.328 . S
C675 H681 0.929 . S
C676 C677 1.362 . S
C676 C679 1.378 . S
C676 H691 0.929 . S
C677 C676 1.362 . S
C677 C678 1.366 . S
C678 C675 1.365 . S
C678 C677 1.366 . S
C678 H692 0.930 . S
C679 C676 1.378 . S
C679 N680 1.315 . S
C679 H682 0.930 . S
N680 Co660 2.194 . S
N680 C675 1.328 . S
N680 C679 1.315 . S
H681 C675 0.929 . S
H682 C679 0.930 . S
H683 C671 0.929 . S
H684 C673 0.929 . S
O685 Co660 2.351 . S
O685 C688 1.244 . S
O686 Co660 2.155 . S
O686 C688 1.240 . S
O687 Co660 2.096 . S
O687 C668 1.247 . S
C688 O685 1.244 . S
C688 O686 1.240 . S
H689 C663 0.931 . S
H690 C672 0.931 . S
H691 C676 0.929 . S
H692 C678 0.930 . S
Co693 N697 2.148 . S
Co693 N703 2.128 . S
Co693 N713 2.194 . S
Co693 O718 2.351 . S
Co693 O719 2.155 . S
Co693 O720 2.096 1_545 S
C694 N697 1.301 . S
C694 N698 1.328 . S
C694 H699 0.930 . S
C695 C696 1.333 1_565 S
C695 N697 1.317 1_565 S
C695 H700 0.930 . S
C696 C695 1.333 1_545 S
C696 N698 1.350 . S
C696 H722 0.931 1_545 S
N697 Co693 2.148 . S
N697 C694 1.301 . S
N697 C695 1.317 1_545 S
N698 C694 1.328 . S
N698 C696 1.350 . S
H699 C694 0.930 . S
H700 C695 0.930 . S
C701 O702 1.224 . S
C701 O720 1.247 . S
O702 C701 1.224 . S
N703 Co693 2.128 . S
N703 C704 1.355 . S
N703 C706 1.311 1_545 S
C704 N703 1.355 . S
C704 C705 1.363 . S
C704 H716 0.929 . S
C705 C704 1.363 . S
C705 N707 1.375 1_545 S
C705 H723 0.931 . S
C706 N703 1.311 1_565 S
C706 N707 1.347 . S
C706 H717 0.929 . S
N707 C705 1.375 1_565 S
N707 C706 1.347 . S
C708 C711 1.365 . S
C708 N713 1.328 . S
C708 H714 0.929 . S
C709 C710 1.362 . S
C709 C712 1.378 . S
C709 H724 0.929 . S
C710 C709 1.362 . S
C710 C711 1.366 1_565 S
C711 C708 1.365 . S
C711 C710 1.366 1_545 S
C711 H725 0.930 . S
C712 C709 1.378 . S
C712 N713 1.315 1_565 S
C712 H715 0.930 . S
N713 Co693 2.194 . S
N713 C708 1.328 . S
N713 C712 1.315 1_545 S
H714 C708 0.929 . S
H715 C712 0.930 . S
H716 C704 0.929 . S
H717 C706 0.929 . S
O718 Co693 2.351 . S
O718 C721 1.244 . S
O719 Co693 2.155 . S
O719 C721 1.240 . S
O720 Co693 2.096 1_565 S
O720 C701 1.247 . S
C721 O718 1.244 . S
C721 O719 1.240 . S
H722 C696 0.931 1_565 S
H723 C705 0.931 . S
H724 C709 0.929 . S
H725 C711 0.930 . S
Co726 N730 2.148 . S
Co726 N736 2.128 . S
Co726 N746 2.194 . S
Co726 O751 2.351 . S
Co726 O752 2.155 . S
Co726 O753 2.096 1_545 S
C727 N730 1.301 . S
C727 N731 1.328 . S
C727 H732 0.930 . S
C728 C729 1.333 1_565 S
C728 N730 1.317 1_565 S
C728 H733 0.930 . S
C729 C728 1.333 1_545 S
C729 N731 1.350 . S
C729 H755 0.931 1_545 S
N730 Co726 2.148 . S
N730 C727 1.301 . S
N730 C728 1.317 1_545 S
N731 C727 1.328 . S
N731 C729 1.350 . S
H732 C727 0.930 . S
H733 C728 0.930 . S
C734 O735 1.224 . S
C734 O753 1.247 . S
O735 C734 1.224 . S
N736 Co726 2.128 . S
N736 C737 1.355 . S
N736 C739 1.311 1_545 S
C737 N736 1.355 . S
C737 C738 1.363 . S
C737 H749 0.929 . S
C738 C737 1.363 . S
C738 N740 1.375 1_545 S
C738 H756 0.931 . S
C739 N736 1.311 1_565 S
C739 N740 1.347 . S
C739 H750 0.929 . S
N740 C738 1.375 1_565 S
N740 C739 1.347 . S
C741 C744 1.365 . S
C741 N746 1.328 . S
C741 H747 0.929 . S
C742 C743 1.362 . S
C742 C745 1.378 . S
C742 H757 0.929 . S
C743 C742 1.362 . S
C743 C744 1.366 1_565 S
C744 C741 1.365 . S
C744 C743 1.366 1_545 S
C744 H758 0.930 . S
C745 C742 1.378 . S
C745 N746 1.315 1_565 S
C745 H748 0.930 . S
N746 Co726 2.194 . S
N746 C741 1.328 . S
N746 C745 1.315 1_545 S
H747 C741 0.929 . S
H748 C745 0.930 . S
H749 C737 0.929 . S
H750 C739 0.929 . S
O751 Co726 2.351 . S
O751 C754 1.244 . S
O752 Co726 2.155 . S
O752 C754 1.240 . S
O753 Co726 2.096 1_565 S
O753 C734 1.247 . S
C754 O751 1.244 . S
C754 O752 1.240 . S
H755 C729 0.931 1_565 S
H756 C738 0.931 . S
H757 C742 0.929 . S
H758 C744 0.930 . S
Co759 N763 2.148 . S
Co759 N769 2.128 . S
Co759 N779 2.194 . S
Co759 O784 2.351 . S
Co759 O785 2.155 . S
Co759 O786 2.096 . S
C760 N763 1.301 . S
C760 N764 1.328 . S
C760 H765 0.930 . S
C761 C762 1.333 . S
C761 N763 1.317 . S
C761 H766 0.930 . S
C762 C761 1.333 . S
C762 N764 1.350 . S
C762 H788 0.931 . S
N763 Co759 2.148 . S
N763 C760 1.301 . S
N763 C761 1.317 . S
N764 C760 1.328 . S
N764 C762 1.350 . S
H765 C760 0.930 . S
H766 C761 0.930 . S
C767 O768 1.224 . S
C767 O786 1.247 . S
O768 C767 1.224 . S
N769 Co759 2.128 . S
N769 C770 1.355 . S
N769 C772 1.311 . S
C770 N769 1.355 . S
C770 C771 1.363 . S
C770 H782 0.929 . S
C771 C770 1.363 . S
C771 N773 1.375 . S
C771 H789 0.931 . S
C772 N769 1.311 . S
C772 N773 1.347 . S
C772 H783 0.929 . S
N773 C771 1.375 . S
N773 C772 1.347 . S
C774 C777 1.365 . S
C774 N779 1.328 . S
C774 H780 0.929 . S
C775 C776 1.362 . S
C775 C778 1.378 . S
C775 H790 0.929 . S
C776 C775 1.362 . S
C776 C777 1.366 . S
C777 C774 1.365 . S
C777 C776 1.366 . S
C777 H791 0.930 . S
C778 C775 1.378 . S
C778 N779 1.315 . S
C778 H781 0.930 . S
N779 Co759 2.194 . S
N779 C774 1.328 . S
N779 C778 1.315 . S
H780 C774 0.929 . S
H781 C778 0.930 . S
H782 C770 0.929 . S
H783 C772 0.929 . S
O784 Co759 2.351 . S
O784 C787 1.244 . S
O785 Co759 2.155 . S
O785 C787 1.240 . S
O786 Co759 2.096 . S
O786 C767 1.247 . S
C787 O784 1.244 . S
C787 O785 1.240 . S
H788 C762 0.931 . S
H789 C771 0.931 . S
H790 C775 0.929 . S
H791 C777 0.930 . S
Co792 N796 2.148 1_554 S
Co792 N802 2.128 . S
Co792 N812 2.194 . S
Co792 O817 2.351 . S
Co792 O818 2.155 . S
Co792 O819 2.096 . S
C793 N796 1.301 . S
C793 N797 1.328 . S
C793 H798 0.930 . S
C794 C795 1.333 . S
C794 N796 1.317 . S
C794 H799 0.930 . S
C795 C794 1.333 . S
C795 N797 1.350 . S
C795 H821 0.931 . S
N796 Co792 2.148 1_556 S
N796 C793 1.301 . S
N796 C794 1.317 . S
N797 C793 1.328 . S
N797 C795 1.350 . S
H798 C793 0.930 . S
H799 C794 0.930 . S
C800 O801 1.224 . S
C800 O819 1.247 . S
O801 C800 1.224 . S
N802 Co792 2.128 . S
N802 C803 1.355 . S
N802 C805 1.311 . S
C803 N802 1.355 . S
C803 C804 1.363 . S
C803 H815 0.929 . S
C804 C803 1.363 . S
C804 N806 1.375 . S
C804 H822 0.931 . S
C805 N802 1.311 . S
C805 N806 1.347 . S
C805 H816 0.929 . S
N806 C804 1.375 . S
N806 C805 1.347 . S
C807 C810 1.365 . S
C807 N812 1.328 . S
C807 H813 0.929 . S
C808 C809 1.362 . S
C808 C811 1.378 . S
C808 H823 0.929 . S
C809 C808 1.362 . S
C809 C810 1.366 . S
C810 C807 1.365 . S
C810 C809 1.366 . S
C810 H824 0.930 . S
C811 C808 1.378 . S
C811 N812 1.315 . S
C811 H814 0.930 . S
N812 Co792 2.194 . S
N812 C807 1.328 . S
N812 C811 1.315 . S
H813 C807 0.929 . S
H814 C811 0.930 . S
H815 C803 0.929 . S
H816 C805 0.929 . S
O817 Co792 2.351 . S
O817 C820 1.244 . S
O818 Co792 2.155 . S
O818 C820 1.240 . S
O819 Co792 2.096 . S
O819 C800 1.247 . S
C820 O817 1.244 . S
C820 O818 1.240 . S
H821 C795 0.931 . S
H822 C804 0.931 . S
H823 C808 0.929 . S
H824 C810 0.930 . S
Co825 N829 2.148 . S
Co825 N835 2.128 1_554 S
Co825 N845 2.194 . S
Co825 O850 2.351 . S
Co825 O851 2.155 . S
Co825 O852 2.096 . S
C826 N829 1.301 . S
C826 N830 1.328 . S
C826 H831 0.930 . S
C827 C828 1.333 . S
C827 N829 1.317 . S
C827 H832 0.930 . S
C828 C827 1.333 . S
C828 N830 1.350 . S
C828 H854 0.931 . S
N829 Co825 2.148 . S
N829 C826 1.301 . S
N829 C827 1.317 . S
N830 C826 1.328 . S
N830 C828 1.350 . S
H831 C826 0.930 . S
H832 C827 0.930 . S
C833 O834 1.224 . S
C833 O852 1.247 . S
O834 C833 1.224 . S
N835 Co825 2.128 1_556 S
N835 C836 1.355 . S
N835 C838 1.311 . S
C836 N835 1.355 . S
C836 C837 1.363 . S
C836 H848 0.929 . S
C837 C836 1.363 . S
C837 N839 1.375 . S
C837 H855 0.931 . S
C838 N835 1.311 . S
C838 N839 1.347 . S
C838 H849 0.929 . S
N839 C837 1.375 . S
N839 C838 1.347 . S
C840 C843 1.365 . S
C840 N845 1.328 . S
C840 H846 0.929 . S
C841 C842 1.362 . S
C841 C844 1.378 . S
C841 H856 0.929 . S
C842 C841 1.362 . S
C842 C843 1.366 . S
C843 C840 1.365 . S
C843 C842 1.366 . S
C843 H857 0.930 . S
C844 C841 1.378 . S
C844 N845 1.315 . S
C844 H847 0.930 . S
N845 Co825 2.194 . S
N845 C840 1.328 . S
N845 C844 1.315 . S
H846 C840 0.929 . S
H847 C844 0.930 . S
H848 C836 0.929 . S
H849 C838 0.929 . S
O850 Co825 2.351 . S
O850 C853 1.244 . S
O851 Co825 2.155 . S
O851 C853 1.240 . S
O852 Co825 2.096 . S
O852 C833 1.247 . S
C853 O850 1.244 . S
C853 O851 1.240 . S
H854 C828 0.931 . S
H855 C837 0.931 . S
H856 C841 0.929 . S
H857 C843 0.930 . S
Co858 N862 2.148 . S
Co858 N868 2.128 . S
Co858 N878 2.194 . S
Co858 O883 2.351 . S
Co858 O884 2.155 . S
Co858 O885 2.096 . S
C859 N862 1.301 . S
C859 N863 1.328 . S
C859 H864 0.930 . S
C860 C861 1.333 . S
C860 N862 1.317 . S
C860 H865 0.930 . S
C861 C860 1.333 . S
C861 N863 1.350 . S
C861 H887 0.931 . S
N862 Co858 2.148 . S
N862 C859 1.301 . S
N862 C860 1.317 . S
N863 C859 1.328 . S
N863 C861 1.350 . S
H864 C859 0.930 . S
H865 C860 0.930 . S
C866 O867 1.224 . S
C866 O885 1.247 . S
O867 C866 1.224 . S
N868 Co858 2.128 . S
N868 C869 1.355 . S
N868 C871 1.311 . S
C869 N868 1.355 . S
C869 C870 1.363 . S
C869 H881 0.929 . S
C870 C869 1.363 . S
C870 N872 1.375 . S
C870 H888 0.931 . S
C871 N868 1.311 . S
C871 N872 1.347 . S
C871 H882 0.929 . S
N872 C870 1.375 . S
N872 C871 1.347 . S
C873 C876 1.365 . S
C873 N878 1.328 . S
C873 H879 0.929 . S
C874 C875 1.362 . S
C874 C877 1.378 . S
C874 H889 0.929 . S
C875 C874 1.362 . S
C875 C876 1.366 . S
C876 C873 1.365 . S
C876 C875 1.366 . S
C876 H890 0.930 . S
C877 C874 1.378 . S
C877 N878 1.315 . S
C877 H880 0.930 . S
N878 Co858 2.194 . S
N878 C873 1.328 . S
N878 C877 1.315 . S
H879 C873 0.929 . S
H880 C877 0.930 . S
H881 C869 0.929 . S
H882 C871 0.929 . S
O883 Co858 2.351 . S
O883 C886 1.244 . S
O884 Co858 2.155 . S
O884 C886 1.240 . S
O885 Co858 2.096 . S
O885 C866 1.247 . S
C886 O883 1.244 . S
C886 O884 1.240 . S
H887 C861 0.931 . S
H888 C870 0.931 . S
H889 C874 0.929 . S
H890 C876 0.930 . S
Co891 N895 2.148 . S
Co891 N901 2.128 . S
Co891 N911 2.194 . S
Co891 O916 2.351 . S
Co891 O917 2.155 . S
Co891 O918 2.096 . S
C892 N895 1.301 . S
C892 N896 1.328 . S
C892 H897 0.930 . S
C893 C894 1.333 . S
C893 N895 1.317 . S
C893 H898 0.930 . S
C894 C893 1.333 . S
C894 N896 1.350 . S
C894 H920 0.931 . S
N895 Co891 2.148 . S
N895 C892 1.301 . S
N895 C893 1.317 . S
N896 C892 1.328 . S
N896 C894 1.350 . S
H897 C892 0.930 . S
H898 C893 0.930 . S
C899 O900 1.224 . S
C899 O918 1.247 . S
O900 C899 1.224 . S
N901 Co891 2.128 . S
N901 C902 1.355 . S
N901 C904 1.311 . S
C902 N901 1.355 . S
C902 C903 1.363 . S
C902 H914 0.929 . S
C903 C902 1.363 . S
C903 N905 1.375 . S
C903 H921 0.931 . S
C904 N901 1.311 . S
C904 N905 1.347 . S
C904 H915 0.929 . S
N905 C903 1.375 . S
N905 C904 1.347 . S
C906 C909 1.365 . S
C906 N911 1.328 . S
C906 H912 0.929 . S
C907 C908 1.362 . S
C907 C910 1.378 . S
C907 H922 0.929 . S
C908 C907 1.362 . S
C908 C909 1.366 . S
C909 C906 1.365 . S
C909 C908 1.366 . S
C909 H923 0.930 . S
C910 C907 1.378 . S
C910 N911 1.315 . S
C910 H913 0.930 . S
N911 Co891 2.194 . S
N911 C906 1.328 . S
N911 C910 1.315 . S
H912 C906 0.929 . S
H913 C910 0.930 . S
H914 C902 0.929 . S
H915 C904 0.929 . S
O916 Co891 2.351 . S
O916 C919 1.244 . S
O917 Co891 2.155 . S
O917 C919 1.240 . S
O918 Co891 2.096 . S
O918 C899 1.247 . S
C919 O916 1.244 . S
C919 O917 1.240 . S
H920 C894 0.931 . S
H921 C903 0.931 . S
H922 C907 0.929 . S
H923 C909 0.930 . S
Co924 N928 2.148 . S
Co924 N934 2.128 1_554 S
Co924 N944 2.194 . S
Co924 O949 2.351 . S
Co924 O950 2.155 . S
Co924 O951 2.096 . S
C925 N928 1.301 . S
C925 N929 1.328 . S
C925 H930 0.930 . S
C926 C927 1.333 . S
C926 N928 1.317 . S
C926 H931 0.930 . S
C927 C926 1.333 . S
C927 N929 1.350 . S
C927 H953 0.931 . S
N928 Co924 2.148 . S
N928 C925 1.301 . S
N928 C926 1.317 . S
N929 C925 1.328 . S
N929 C927 1.350 . S
H930 C925 0.930 . S
H931 C926 0.930 . S
C932 O933 1.224 . S
C932 O951 1.247 . S
O933 C932 1.224 . S
N934 Co924 2.128 1_556 S
N934 C935 1.355 . S
N934 C937 1.311 . S
C935 N934 1.355 . S
C935 C936 1.363 . S
C935 H947 0.929 . S
C936 C935 1.363 . S
C936 N938 1.375 . S
C936 H954 0.931 . S
C937 N934 1.311 . S
C937 N938 1.347 . S
C937 H948 0.929 . S
N938 C936 1.375 . S
N938 C937 1.347 . S
C939 C942 1.365 . S
C939 N944 1.328 . S
C939 H945 0.929 . S
C940 C941 1.362 . S
C940 C943 1.378 . S
C940 H955 0.929 . S
C941 C940 1.362 . S
C941 C942 1.366 . S
C942 C939 1.365 . S
C942 C941 1.366 . S
C942 H956 0.930 . S
C943 C940 1.378 . S
C943 N944 1.315 . S
C943 H946 0.930 . S
N944 Co924 2.194 . S
N944 C939 1.328 . S
N944 C943 1.315 . S
H945 C939 0.929 . S
H946 C943 0.930 . S
H947 C935 0.929 . S
H948 C937 0.929 . S
O949 Co924 2.351 . S
O949 C952 1.244 . S
O950 Co924 2.155 . S
O950 C952 1.240 . S
O951 Co924 2.096 . S
O951 C932 1.247 . S
C952 O949 1.244 . S
C952 O950 1.240 . S
H953 C927 0.931 . S
H954 C936 0.931 . S
H955 C940 0.929 . S
H956 C942 0.930 . S
Co957 N961 2.148 . S
Co957 N967 2.128 1_554 S
Co957 N977 2.194 . S
Co957 O982 2.351 . S
Co957 O983 2.155 . S
Co957 O984 2.096 . S
C958 N961 1.301 . S
C958 N962 1.328 . S
C958 H963 0.930 . S
C959 C960 1.333 . S
C959 N961 1.317 . S
C959 H964 0.930 . S
C960 C959 1.333 . S
C960 N962 1.350 . S
C960 H986 0.931 . S
N961 Co957 2.148 . S
N961 C958 1.301 . S
N961 C959 1.317 . S
N962 C958 1.328 . S
N962 C960 1.350 . S
H963 C958 0.930 . S
H964 C959 0.930 . S
C965 O966 1.224 . S
C965 O984 1.247 . S
O966 C965 1.224 . S
N967 Co957 2.128 1_556 S
N967 C968 1.355 . S
N967 C970 1.311 . S
C968 N967 1.355 . S
C968 C969 1.363 . S
C968 H980 0.929 . S
C969 C968 1.363 . S
C969 N971 1.375 . S
C969 H987 0.931 . S
C970 N967 1.311 . S
C970 N971 1.347 . S
C970 H981 0.929 . S
N971 C969 1.375 . S
N971 C970 1.347 . S
C972 C975 1.365 . S
C972 N977 1.328 . S
C972 H978 0.929 . S
C973 C974 1.362 . S
C973 C976 1.378 . S
C973 H988 0.929 . S
C974 C973 1.362 . S
C974 C975 1.366 . S
C975 C972 1.365 . S
C975 C974 1.366 . S
C975 H989 0.930 . S
C976 C973 1.378 . S
C976 N977 1.315 . S
C976 H979 0.930 . S
N977 Co957 2.194 . S
N977 C972 1.328 . S
N977 C976 1.315 . S
H978 C972 0.929 . S
H979 C976 0.930 . S
H980 C968 0.929 . S
H981 C970 0.929 . S
O982 Co957 2.351 . S
O982 C985 1.244 . S
O983 Co957 2.155 . S
O983 C985 1.240 . S
O984 Co957 2.096 . S
O984 C965 1.247 . S
C985 O982 1.244 . S
C985 O983 1.240 . S
H986 C960 0.931 . S
H987 C969 0.931 . S
H988 C973 0.929 . S
H989 C975 0.930 . S
Co990 N994 2.148 . S
Co990 N1000 2.128 . S
Co990 N1010 2.194 . S
Co990 O1015 2.351 . S
Co990 O1016 2.155 . S
Co990 O1017 2.096 . S
C991 N994 1.301 . S
C991 N995 1.328 . S
C991 H996 0.930 . S
C992 C993 1.333 . S
C992 N994 1.317 . S
C992 H997 0.930 . S
C993 C992 1.333 . S
C993 N995 1.350 . S
C993 H1019 0.931 . S
N994 Co990 2.148 . S
N994 C991 1.301 . S
N994 C992 1.317 . S
N995 C991 1.328 . S
N995 C993 1.350 . S
H996 C991 0.930 . S
H997 C992 0.930 . S
C998 O999 1.224 . S
C998 O1017 1.247 . S
O999 C998 1.224 . S
N1000 Co990 2.128 . S
N1000 C1001 1.355 . S
N1000 C1003 1.311 . S
C1001 N1000 1.355 . S
C1001 C1002 1.363 . S
C1001 H1013 0.929 . S
C1002 C1001 1.363 . S
C1002 N1004 1.375 . S
C1002 H1020 0.931 . S
C1003 N1000 1.311 . S
C1003 N1004 1.347 . S
C1003 H1014 0.929 . S
N1004 C1002 1.375 . S
N1004 C1003 1.347 . S
C1005 C1008 1.365 . S
C1005 N1010 1.328 . S
C1005 H1011 0.929 . S
C1006 C1007 1.362 . S
C1006 C1009 1.378 . S
C1006 H1021 0.929 . S
C1007 C1006 1.362 . S
C1007 C1008 1.366 . S
C1008 C1005 1.365 . S
C1008 C1007 1.366 . S
C1008 H1022 0.930 . S
C1009 C1006 1.378 . S
C1009 N1010 1.315 . S
C1009 H1012 0.930 . S
N1010 Co990 2.194 . S
N1010 C1005 1.328 . S
N1010 C1009 1.315 . S
H1011 C1005 0.929 . S
H1012 C1009 0.930 . S
H1013 C1001 0.929 . S
H1014 C1003 0.929 . S
O1015 Co990 2.351 . S
O1015 C1018 1.244 . S
O1016 Co990 2.155 . S
O1016 C1018 1.240 . S
O1017 Co990 2.096 . S
O1017 C998 1.247 . S
C1018 O1015 1.244 . S
C1018 O1016 1.240 . S
H1019 C993 0.931 . S
H1020 C1002 0.931 . S
H1021 C1006 0.929 . S
H1022 C1008 0.930 . S
Co1023 N1027 2.148 . S
Co1023 N1033 2.128 . S
Co1023 N1043 2.194 . S
Co1023 O1048 2.351 . S
Co1023 O1049 2.155 . S
Co1023 O1050 2.096 . S
C1024 N1027 1.301 . S
C1024 N1028 1.328 . S
C1024 H1029 0.930 . S
C1025 C1026 1.333 . S
C1025 N1027 1.317 . S
C1025 H1030 0.930 . S
C1026 C1025 1.333 . S
C1026 N1028 1.350 . S
C1026 H1052 0.931 . S
N1027 Co1023 2.148 . S
N1027 C1024 1.301 . S
N1027 C1025 1.317 . S
N1028 C1024 1.328 . S
N1028 C1026 1.350 . S
H1029 C1024 0.930 . S
H1030 C1025 0.930 . S
C1031 O1032 1.224 . S
C1031 O1050 1.247 . S
O1032 C1031 1.224 . S
N1033 Co1023 2.128 . S
N1033 C1034 1.355 . S
N1033 C1036 1.311 . S
C1034 N1033 1.355 . S
C1034 C1035 1.363 . S
C1034 H1046 0.929 . S
C1035 C1034 1.363 . S
C1035 N1037 1.375 . S
C1035 H1053 0.931 . S
C1036 N1033 1.311 . S
C1036 N1037 1.347 . S
C1036 H1047 0.929 . S
N1037 C1035 1.375 . S
N1037 C1036 1.347 . S
C1038 C1041 1.365 . S
C1038 N1043 1.328 . S
C1038 H1044 0.929 . S
C1039 C1040 1.362 . S
C1039 C1042 1.378 . S
C1039 H1054 0.929 . S
C1040 C1039 1.362 . S
C1040 C1041 1.366 . S
C1041 C1038 1.365 . S
C1041 C1040 1.366 . S
C1041 H1055 0.930 . S
C1042 C1039 1.378 . S
C1042 N1043 1.315 . S
C1042 H1045 0.930 . S
N1043 Co1023 2.194 . S
N1043 C1038 1.328 . S
N1043 C1042 1.315 . S
H1044 C1038 0.929 . S
H1045 C1042 0.930 . S
H1046 C1034 0.929 . S
H1047 C1036 0.929 . S
O1048 Co1023 2.351 . S
O1048 C1051 1.244 . S
O1049 Co1023 2.155 . S
O1049 C1051 1.240 . S
O1050 Co1023 2.096 . S
O1050 C1031 1.247 . S
C1051 O1048 1.244 . S
C1051 O1049 1.240 . S
H1052 C1026 0.931 . S
H1053 C1035 0.931 . S
H1054 C1039 0.929 . S
H1055 C1041 0.930 . S
C1056 C1057 1.369 . S
C1056 C1058 1.419 . S
C1056 H1060 0.930 . S
C1057 C1056 1.369 . S
C1057 C1066 1.429 . S
C1058 C1056 1.419 . S
C1058 C1059 1.363 . S
C1058 H1061 0.929 . S
C1059 C1058 1.363 . S
C1059 C1065 1.428 . S
H1060 C1056 0.930 . S
H1061 C1058 0.929 . S
S1062 N1063 1.613 . S
S1062 N1064 1.610 . S
N1063 S1062 1.613 . S
N1063 C1066 1.350 . S
N1064 S1062 1.610 . S
N1064 C1065 1.351 . S
C1065 C1059 1.428 . S
C1065 N1064 1.351 . S
C1065 C1066 1.434 . S
C1066 C1057 1.429 . S
C1066 N1063 1.350 . S
C1066 C1065 1.434 . S
C1067 C1068 1.369 . S
C1067 C1069 1.419 . S
C1067 H1071 0.930 . S
C1068 C1067 1.369 . S
C1068 C1077 1.429 . S
C1069 C1067 1.419 . S
C1069 C1070 1.363 . S
C1069 H1072 0.929 . S
C1070 C1069 1.363 . S
C1070 C1076 1.428 . S
H1071 C1067 0.930 . S
H1072 C1069 0.929 . S
S1073 N1074 1.613 1_565 S
S1073 N1075 1.610 1_565 S
N1074 S1073 1.613 1_545 S
N1074 C1077 1.350 . S
N1075 S1073 1.610 1_545 S
N1075 C1076 1.351 . S
C1076 C1070 1.428 . S
C1076 N1075 1.351 . S
C1076 C1077 1.434 . S
C1077 C1068 1.429 . S
C1077 N1074 1.350 . S
C1077 C1076 1.434 . S
C1078 C1079 1.369 . S
C1078 C1080 1.419 . S
C1078 H1082 0.930 . S
C1079 C1078 1.369 . S
C1079 C1088 1.429 . S
C1080 C1078 1.419 . S
C1080 C1081 1.363 . S
C1080 H1083 0.929 . S
C1081 C1080 1.363 . S
C1081 C1087 1.428 . S
H1082 C1078 0.930 . S
H1083 C1080 0.929 . S
S1084 N1085 1.613 1_455 S
S1084 N1086 1.610 1_455 S
N1085 S1084 1.613 1_655 S
N1085 C1088 1.350 . S
N1086 S1084 1.610 1_655 S
N1086 C1087 1.351 . S
C1087 C1081 1.428 . S
C1087 N1086 1.351 . S
C1087 C1088 1.434 . S
C1088 C1079 1.429 . S
C1088 N1085 1.350 . S
C1088 C1087 1.434 . S
C1089 C1090 1.369 . S
C1089 C1091 1.419 . S
C1089 H1093 0.930 . S
C1090 C1089 1.369 . S
C1090 C1099 1.429 . S
C1091 C1089 1.419 . S
C1091 C1092 1.363 . S
C1091 H1094 0.929 . S
C1092 C1091 1.363 . S
C1092 C1098 1.428 . S
H1093 C1089 0.930 . S
H1094 C1091 0.929 . S
S1095 N1096 1.613 . S
S1095 N1097 1.610 . S
N1096 S1095 1.613 . S
N1096 C1099 1.350 1_545 S
N1097 S1095 1.610 . S
N1097 C1098 1.351 1_545 S
C1098 C1092 1.428 . S
C1098 N1097 1.351 1_565 S
C1098 C1099 1.434 . S
C1099 C1090 1.429 . S
C1099 N1096 1.350 1_565 S
C1099 C1098 1.434 . S
C1100 C1101 1.369 . S
C1100 C1102 1.419 . S
C1100 H1104 0.930 . S
C1101 C1100 1.369 . S
C1101 C1110 1.429 . S
C1102 C1100 1.419 . S
C1102 C1103 1.363 . S
C1102 H1105 0.929 . S
C1103 C1102 1.363 . S
C1103 C1109 1.428 . S
H1104 C1100 0.930 . S
H1105 C1102 0.929 . S
S1106 N1107 1.613 1_655 S
S1106 N1108 1.610 1_655 S
N1107 S1106 1.613 1_455 S
N1107 C1110 1.350 . S
N1108 S1106 1.610 1_455 S
N1108 C1109 1.351 . S
C1109 C1103 1.428 . S
C1109 N1108 1.351 . S
C1109 C1110 1.434 . S
C1110 C1101 1.429 . S
C1110 N1107 1.350 . S
C1110 C1109 1.434 . S
C1111 C1112 1.369 . S
C1111 C1113 1.419 . S
C1111 H1115 0.930 . S
C1112 C1111 1.369 . S
C1112 C1121 1.429 . S
C1113 C1111 1.419 . S
C1113 C1114 1.363 . S
C1113 H1116 0.929 . S
C1114 C1113 1.363 . S
C1114 C1120 1.428 . S
H1115 C1111 0.930 . S
H1116 C1113 0.929 . S
S1117 N1118 1.613 . S
S1117 N1119 1.610 . S
N1118 S1117 1.613 . S
N1118 C1121 1.350 . S
N1119 S1117 1.610 . S
N1119 C1120 1.351 . S
C1120 C1114 1.428 . S
C1120 N1119 1.351 . S
C1120 C1121 1.434 . S
C1121 C1112 1.429 . S
C1121 N1118 1.350 . S
C1121 C1120 1.434 . S
C1122 C1123 1.369 . S
C1122 C1124 1.419 . S
C1122 H1126 0.930 . S
C1123 C1122 1.369 . S
C1123 C1132 1.429 . S
C1124 C1122 1.419 . S
C1124 C1125 1.363 . S
C1124 H1127 0.929 . S
C1125 C1124 1.363 . S
C1125 C1131 1.428 . S
H1126 C1122 0.930 . S
H1127 C1124 0.929 . S
S1128 N1129 1.613 . S
S1128 N1130 1.610 . S
N1129 S1128 1.613 . S
N1129 C1132 1.350 . S
N1130 S1128 1.610 . S
N1130 C1131 1.351 . S
C1131 C1125 1.428 . S
C1131 N1130 1.351 . S
C1131 C1132 1.434 . S
C1132 C1123 1.429 . S
C1132 N1129 1.350 . S
C1132 C1131 1.434 . S
C1133 C1134 1.369 . S
C1133 C1135 1.419 . S
C1133 H1137 0.930 . S
C1134 C1133 1.369 . S
C1134 C1143 1.429 . S
C1135 C1133 1.419 . S
C1135 C1136 1.363 . S
C1135 H1138 0.929 . S
C1136 C1135 1.363 . S
C1136 C1142 1.428 . S
H1137 C1133 0.930 . S
H1138 C1135 0.929 . S
S1139 N1140 1.613 . S
S1139 N1141 1.610 . S
N1140 S1139 1.613 . S
N1140 C1143 1.350 . S
N1141 S1139 1.610 . S
N1141 C1142 1.351 . S
C1142 C1136 1.428 . S
C1142 N1141 1.351 . S
C1142 C1143 1.434 . S
C1143 C1134 1.429 . S
C1143 N1140 1.350 . S
C1143 C1142 1.434 . S
C1144 C1145 1.369 . S
C1144 C1146 1.419 . S
C1144 H1148 0.930 . S
C1145 C1144 1.369 . S
C1145 C1154 1.429 . S
C1146 C1144 1.419 . S
C1146 C1147 1.363 . S
C1146 H1149 0.929 . S
C1147 C1146 1.363 . S
C1147 C1153 1.428 . S
H1148 C1144 0.930 . S
H1149 C1146 0.929 . S
S1150 N1151 1.613 . S
S1150 N1152 1.610 . S
N1151 S1150 1.613 . S
N1151 C1154 1.350 . S
N1152 S1150 1.610 . S
N1152 C1153 1.351 . S
C1153 C1147 1.428 . S
C1153 N1152 1.351 . S
C1153 C1154 1.434 . S
C1154 C1145 1.429 . S
C1154 N1151 1.350 . S
C1154 C1153 1.434 . S
C1155 C1156 1.369 . S
C1155 C1157 1.419 . S
C1155 H1159 0.930 . S
C1156 C1155 1.369 . S
C1156 C1165 1.429 . S
C1157 C1155 1.419 . S
C1157 C1158 1.363 . S
C1157 H1160 0.929 . S
C1158 C1157 1.363 . S
C1158 C1164 1.428 . S
H1159 C1155 0.930 . S
H1160 C1157 0.929 . S
S1161 N1162 1.613 . S
S1161 N1163 1.610 . S
N1162 S1161 1.613 . S
N1162 C1165 1.350 . S
N1163 S1161 1.610 . S
N1163 C1164 1.351 . S
C1164 C1158 1.428 . S
C1164 N1163 1.351 . S
C1164 C1165 1.434 . S
C1165 C1156 1.429 . S
C1165 N1162 1.350 . S
C1165 C1164 1.434 . S
C1166 C1167 1.369 . S
C1166 C1168 1.419 . S
C1166 H1170 0.930 . S
C1167 C1166 1.369 . S
C1167 C1176 1.429 . S
C1168 C1166 1.419 . S
C1168 C1169 1.363 . S
C1168 H1171 0.929 . S
C1169 C1168 1.363 . S
C1169 C1175 1.428 . S
H1170 C1166 0.930 . S
H1171 C1168 0.929 . S
S1172 N1173 1.613 1_545 S
S1172 N1174 1.610 . S
N1173 S1172 1.613 1_565 S
N1173 C1176 1.350 . S
N1174 S1172 1.610 . S
N1174 C1175 1.351 1_545 S
C1175 C1169 1.428 . S
C1175 N1174 1.351 1_565 S
C1175 C1176 1.434 . S
C1176 C1167 1.429 . S
C1176 N1173 1.350 . S
C1176 C1175 1.434 . S
C1177 C1178 1.369 . S
C1177 C1179 1.419 . S
C1177 H1181 0.930 . S
C1178 C1177 1.369 . S
C1178 C1187 1.429 . S
C1179 C1177 1.419 . S
C1179 C1180 1.363 . S
C1179 H1182 0.929 . S
C1180 C1179 1.363 . S
C1180 C1186 1.428 . S
H1181 C1177 0.930 . S
H1182 C1179 0.929 . S
S1183 N1184 1.613 . S
S1183 N1185 1.610 . S
N1184 S1183 1.613 . S
N1184 C1187 1.350 . S
N1185 S1183 1.610 . S
N1185 C1186 1.351 . S
C1186 C1180 1.428 . S
C1186 N1185 1.351 . S
C1186 C1187 1.434 . S
C1187 C1178 1.429 . S
C1187 N1184 1.350 . S
C1187 C1186 1.434 . S
C1188 C1189 1.369 . S
C1188 C1190 1.419 . S
C1188 H1192 0.930 . S
C1189 C1188 1.369 . S
C1189 C1198 1.429 . S
C1190 C1188 1.419 . S
C1190 C1191 1.363 . S
C1190 H1193 0.929 . S
C1191 C1190 1.363 . S
C1191 C1197 1.428 . S
H1192 C1188 0.930 . S
H1193 C1190 0.929 . S
S1194 N1195 1.613 . S
S1194 N1196 1.610 . S
N1195 S1194 1.613 . S
N1195 C1198 1.350 . S
N1196 S1194 1.610 . S
N1196 C1197 1.351 . S
C1197 C1191 1.428 . S
C1197 N1196 1.351 . S
C1197 C1198 1.434 . S
C1198 C1189 1.429 . S
C1198 N1195 1.350 . S
C1198 C1197 1.434 . S
C1199 C1200 1.369 . S
C1199 C1201 1.419 . S
C1199 H1203 0.930 . S
C1200 C1199 1.369 . S
C1200 C1209 1.429 . S
C1201 C1199 1.419 . S
C1201 C1202 1.363 . S
C1201 H1204 0.929 . S
C1202 C1201 1.363 . S
C1202 C1208 1.428 . S
H1203 C1199 0.930 . S
H1204 C1201 0.929 . S
S1205 N1206 1.613 . S
S1205 N1207 1.610 . S
N1206 S1205 1.613 . S
N1206 C1209 1.350 . S
N1207 S1205 1.610 . S
N1207 C1208 1.351 . S
C1208 C1202 1.428 . S
C1208 N1207 1.351 . S
C1208 C1209 1.434 . S
C1209 C1200 1.429 . S
C1209 N1206 1.350 . S
C1209 C1208 1.434 . S
C1210 C1211 1.369 . S
C1210 C1212 1.419 . S
C1210 H1214 0.930 . S
C1211 C1210 1.369 . S
C1211 C1220 1.429 . S
C1212 C1210 1.419 . S
C1212 C1213 1.363 . S
C1212 H1215 0.929 . S
C1213 C1212 1.363 . S
C1213 C1219 1.428 . S
H1214 C1210 0.930 . S
H1215 C1212 0.929 . S
S1216 N1217 1.613 . S
S1216 N1218 1.610 . S
N1217 S1216 1.613 . S
N1217 C1220 1.350 . S
N1218 S1216 1.610 . S
N1218 C1219 1.351 . S
C1219 C1213 1.428 . S
C1219 N1218 1.351 . S
C1219 C1220 1.434 . S
C1220 C1211 1.429 . S
C1220 N1217 1.350 . S
C1220 C1219 1.434 . S
C1221 C1222 1.369 . S
C1221 C1223 1.419 . S
C1221 H1225 0.930 . S
C1222 C1221 1.369 . S
C1222 C1231 1.429 . S
C1223 C1221 1.419 . S
C1223 C1224 1.363 . S
C1223 H1226 0.929 . S
C1224 C1223 1.363 . S
C1224 C1230 1.428 . S
H1225 C1221 0.930 . S
H1226 C1223 0.929 . S
S1227 N1228 1.613 . S
S1227 N1229 1.610 . S
N1228 S1227 1.613 . S
N1228 C1231 1.350 . S
N1229 S1227 1.610 . S
N1229 C1230 1.351 . S
C1230 C1224 1.428 . S
C1230 N1229 1.351 . S
C1230 C1231 1.434 . S
C1231 C1222 1.429 . S
C1231 N1228 1.350 . S
C1231 C1230 1.434 . S
C1232 C1233 1.369 . S
C1232 C1234 1.419 . S
C1232 H1236 0.930 . S
C1233 C1232 1.369 . S
C1233 C1242 1.429 . S
C1234 C1232 1.419 . S
C1234 C1235 1.363 . S
C1234 H1237 0.929 . S
C1235 C1234 1.363 . S
C1235 C1241 1.428 . S
H1236 C1232 0.930 . S
H1237 C1234 0.929 . S
S1238 N1239 1.613 . S
S1238 N1240 1.610 . S
N1239 S1238 1.613 . S
N1239 C1242 1.350 . S
N1240 S1238 1.610 . S
N1240 C1241 1.351 . S
C1241 C1235 1.428 . S
C1241 N1240 1.351 . S
C1241 C1242 1.434 . S
C1242 C1233 1.429 . S
C1242 N1239 1.350 . S
C1242 C1241 1.434 . S
C1243 C1244 1.369 . S
C1243 C1245 1.419 . S
C1243 H1247 0.930 . S
C1244 C1243 1.369 . S
C1244 C1253 1.429 . S
C1245 C1243 1.419 . S
C1245 C1246 1.363 . S
C1245 H1248 0.929 . S
C1246 C1245 1.363 . S
C1246 C1252 1.428 . S
H1247 C1243 0.930 . S
H1248 C1245 0.929 . S
S1249 N1250 1.613 . S
S1249 N1251 1.610 . S
N1250 S1249 1.613 . S
N1250 C1253 1.350 . S
N1251 S1249 1.610 . S
N1251 C1252 1.351 . S
C1252 C1246 1.428 . S
C1252 N1251 1.351 . S
C1252 C1253 1.434 . S
C1253 C1244 1.429 . S
C1253 N1250 1.350 . S
C1253 C1252 1.434 . S
C1254 C1255 1.369 . S
C1254 C1256 1.419 . S
C1254 H1258 0.930 . S
C1255 C1254 1.369 . S
C1255 C1264 1.429 . S
C1256 C1254 1.419 . S
C1256 C1257 1.363 . S
C1256 H1259 0.929 . S
C1257 C1256 1.363 . S
C1257 C1263 1.428 . S
H1258 C1254 0.930 . S
H1259 C1256 0.929 . S
S1260 N1261 1.613 . S
S1260 N1262 1.610 1_545 S
N1261 S1260 1.613 . S
N1261 C1264 1.350 1_545 S
N1262 S1260 1.610 1_565 S
N1262 C1263 1.351 . S
C1263 C1257 1.428 . S
C1263 N1262 1.351 . S
C1263 C1264 1.434 . S
C1264 C1255 1.429 . S
C1264 N1261 1.350 1_565 S
C1264 C1263 1.434 . S
C1265 C1266 1.369 . S
C1265 C1267 1.419 . S
C1265 H1269 0.930 . S
C1266 C1265 1.369 . S
C1266 C1275 1.429 . S
C1267 C1265 1.419 . S
C1267 C1268 1.363 . S
C1267 H1270 0.929 . S
C1268 C1267 1.363 . S
C1268 C1274 1.428 . S
H1269 C1265 0.930 . S
H1270 C1267 0.929 . S
S1271 N1272 1.613 . S
S1271 N1273 1.610 . S
N1272 S1271 1.613 . S
N1272 C1275 1.350 . S
N1273 S1271 1.610 . S
N1273 C1274 1.351 . S
C1274 C1268 1.428 . S
C1274 N1273 1.351 . S
C1274 C1275 1.434 . S
C1275 C1266 1.429 . S
C1275 N1272 1.350 . S
C1275 C1274 1.434 . S
C1276 C1277 1.369 . S
C1276 C1278 1.419 . S
C1276 H1280 0.930 . S
C1277 C1276 1.369 . S
C1277 C1286 1.429 . S
C1278 C1276 1.419 . S
C1278 C1279 1.363 . S
C1278 H1281 0.929 . S
C1279 C1278 1.363 . S
C1279 C1285 1.428 . S
H1280 C1276 0.930 . S
H1281 C1278 0.929 . S
S1282 N1283 1.613 . S
S1282 N1284 1.610 . S
N1283 S1282 1.613 . S
N1283 C1286 1.350 . S
N1284 S1282 1.610 . S
N1284 C1285 1.351 . S
C1285 C1279 1.428 . S
C1285 N1284 1.351 . S
C1285 C1286 1.434 . S
C1286 C1277 1.429 . S
C1286 N1283 1.350 . S
C1286 C1285 1.434 . S
C1287 C1288 1.369 . S
C1287 C1289 1.419 . S
C1287 H1291 0.930 . S
C1288 C1287 1.369 . S
C1288 C1297 1.429 . S
C1289 C1287 1.419 . S
C1289 C1290 1.363 . S
C1289 H1292 0.929 . S
C1290 C1289 1.363 . S
C1290 C1296 1.428 . S
H1291 C1287 0.930 . S
H1292 C1289 0.929 . S
S1293 N1294 1.613 . S
S1293 N1295 1.610 . S
N1294 S1293 1.613 . S
N1294 C1297 1.350 . S
N1295 S1293 1.610 . S
N1295 C1296 1.351 . S
C1296 C1290 1.428 . S
C1296 N1295 1.351 . S
C1296 C1297 1.434 . S
C1297 C1288 1.429 . S
C1297 N1294 1.350 . S
C1297 C1296 1.434 . S
C1298 C1299 1.369 . S
C1298 C1300 1.419 . S
C1298 H1302 0.930 . S
C1299 C1298 1.369 . S
C1299 C1308 1.429 . S
C1300 C1298 1.419 . S
C1300 C1301 1.363 . S
C1300 H1303 0.929 . S
C1301 C1300 1.363 . S
C1301 C1307 1.428 . S
H1302 C1298 0.930 . S
H1303 C1300 0.929 . S
S1304 N1305 1.613 1_455 S
S1304 N1306 1.610 1_455 S
N1305 S1304 1.613 1_655 S
N1305 C1308 1.350 . S
N1306 S1304 1.610 1_655 S
N1306 C1307 1.351 . S
C1307 C1301 1.428 . S
C1307 N1306 1.351 . S
C1307 C1308 1.434 . S
C1308 C1299 1.429 . S
C1308 N1305 1.350 . S
C1308 C1307 1.434 . S
C1309 C1310 1.369 . S
C1309 C1311 1.419 . S
C1309 H1313 0.930 . S
C1310 C1309 1.369 . S
C1310 C1319 1.429 . S
C1311 C1309 1.419 . S
C1311 C1312 1.363 . S
C1311 H1314 0.929 . S
C1312 C1311 1.363 . S
C1312 C1318 1.428 . S
H1313 C1309 0.930 . S
H1314 C1311 0.929 . S
S1315 N1316 1.613 . S
S1315 N1317 1.610 . S
N1316 S1315 1.613 . S
N1316 C1319 1.350 . S
N1317 S1315 1.610 . S
N1317 C1318 1.351 . S
C1318 C1312 1.428 . S
C1318 N1317 1.351 . S
C1318 C1319 1.434 . S
C1319 C1310 1.429 . S
C1319 N1316 1.350 . S
C1319 C1318 1.434 . S
C1320 C1321 1.369 . S
C1320 C1322 1.419 . S
C1320 H1324 0.930 . S
C1321 C1320 1.369 . S
C1321 C1330 1.429 . S
C1322 C1320 1.419 . S
C1322 C1323 1.363 . S
C1322 H1325 0.929 . S
C1323 C1322 1.363 . S
C1323 C1329 1.428 . S
H1324 C1320 0.930 . S
H1325 C1322 0.929 . S
S1326 N1327 1.613 . S
S1326 N1328 1.610 . S
N1327 S1326 1.613 . S
N1327 C1330 1.350 . S
N1328 S1326 1.610 . S
N1328 C1329 1.351 . S
C1329 C1323 1.428 . S
C1329 N1328 1.351 . S
C1329 C1330 1.434 . S
C1330 C1321 1.429 . S
C1330 N1327 1.350 . S
C1330 C1329 1.434 . S
C1331 C1332 1.369 . S
C1331 C1333 1.419 . S
C1331 H1335 0.930 1_565 S
C1332 C1331 1.369 . S
C1332 C1341 1.429 . S
C1333 C1331 1.419 . S
C1333 C1334 1.363 . S
C1333 H1336 0.929 . S
C1334 C1333 1.363 . S
C1334 C1340 1.428 . S
H1335 C1331 0.930 1_545 S
H1336 C1333 0.929 . S
S1337 N1338 1.613 . S
S1337 N1339 1.610 . S
N1338 S1337 1.613 . S
N1338 C1341 1.350 . S
N1339 S1337 1.610 . S
N1339 C1340 1.351 . S
C1340 C1334 1.428 . S
C1340 N1339 1.351 . S
C1340 C1341 1.434 . S
C1341 C1332 1.429 . S
C1341 N1338 1.350 . S
C1341 C1340 1.434 . S
C1342 C1343 1.369 . S
C1342 C1344 1.419 . S
C1342 H1346 0.930 . S
C1343 C1342 1.369 . S
C1343 C1352 1.429 . S
C1344 C1342 1.419 . S
C1344 C1345 1.363 . S
C1344 H1347 0.929 . S
C1345 C1344 1.363 . S
C1345 C1351 1.428 . S
H1346 C1342 0.930 . S
H1347 C1344 0.929 . S
S1348 N1349 1.613 . S
S1348 N1350 1.610 . S
N1349 S1348 1.613 . S
N1349 C1352 1.350 . S
N1350 S1348 1.610 . S
N1350 C1351 1.351 . S
C1351 C1345 1.428 . S
C1351 N1350 1.351 . S
C1351 C1352 1.434 . S
C1352 C1343 1.429 . S
C1352 N1349 1.350 . S
C1352 C1351 1.434 . S
C1353 C1354 1.369 . S
C1353 C1355 1.419 . S
C1353 H1357 0.930 . S
C1354 C1353 1.369 . S
C1354 C1363 1.429 . S
C1355 C1353 1.419 . S
C1355 C1356 1.363 . S
C1355 H1358 0.929 . S
C1356 C1355 1.363 . S
C1356 C1362 1.428 . S
H1357 C1353 0.930 . S
H1358 C1355 0.929 . S
S1359 N1360 1.613 . S
S1359 N1361 1.610 . S
N1360 S1359 1.613 . S
N1360 C1363 1.350 . S
N1361 S1359 1.610 . S
N1361 C1362 1.351 . S
C1362 C1356 1.428 . S
C1362 N1361 1.351 . S
C1362 C1363 1.434 . S
C1363 C1354 1.429 . S
C1363 N1360 1.350 . S
C1363 C1362 1.434 . S
C1364 C1365 1.369 . S
C1364 C1366 1.419 . S
C1364 H1368 0.930 . S
C1365 C1364 1.369 . S
C1365 C1374 1.429 . S
C1366 C1364 1.419 . S
C1366 C1367 1.363 . S
C1366 H1369 0.929 . S
C1367 C1366 1.363 . S
C1367 C1373 1.428 . S
H1368 C1364 0.930 . S
H1369 C1366 0.929 . S
S1370 N1371 1.613 . S
S1370 N1372 1.610 . S
N1371 S1370 1.613 . S
N1371 C1374 1.350 . S
N1372 S1370 1.610 . S
N1372 C1373 1.351 . S
C1373 C1367 1.428 . S
C1373 N1372 1.351 . S
C1373 C1374 1.434 . S
C1374 C1365 1.429 . S
C1374 N1371 1.350 . S
C1374 C1373 1.434 . S
C1375 C1376 1.369 . S
C1375 C1377 1.419 . S
C1375 H1379 0.930 . S
C1376 C1375 1.369 . S
C1376 C1385 1.429 . S
C1377 C1375 1.419 . S
C1377 C1378 1.363 . S
C1377 H1380 0.929 . S
C1378 C1377 1.363 . S
C1378 C1384 1.428 . S
H1379 C1375 0.930 . S
H1380 C1377 0.929 . S
S1381 N1382 1.613 . S
S1381 N1383 1.610 . S
N1382 S1381 1.613 . S
N1382 C1385 1.350 . S
N1383 S1381 1.610 . S
N1383 C1384 1.351 . S
C1384 C1378 1.428 . S
C1384 N1383 1.351 . S
C1384 C1385 1.434 . S
C1385 C1376 1.429 . S
C1385 N1382 1.350 . S
C1385 C1384 1.434 . S
C1386 C1387 1.369 . S
C1386 C1388 1.419 . S
C1386 H1390 0.930 . S
C1387 C1386 1.369 . S
C1387 C1396 1.429 . S
C1388 C1386 1.419 . S
C1388 C1389 1.363 . S
C1388 H1391 0.929 . S
C1389 C1388 1.363 . S
C1389 C1395 1.428 . S
H1390 C1386 0.930 . S
H1391 C1388 0.929 . S
S1392 N1393 1.613 . S
S1392 N1394 1.610 . S
N1393 S1392 1.613 . S
N1393 C1396 1.350 . S
N1394 S1392 1.610 . S
N1394 C1395 1.351 . S
C1395 C1389 1.428 . S
C1395 N1394 1.351 . S
C1395 C1396 1.434 . S
C1396 C1387 1.429 . S
C1396 N1393 1.350 . S
C1396 C1395 1.434 . S
C1397 C1398 1.369 . S
C1397 C1399 1.419 . S
C1397 H1401 0.930 . S
C1398 C1397 1.369 . S
C1398 C1407 1.429 . S
C1399 C1397 1.419 . S
C1399 C1400 1.363 . S
C1399 H1402 0.929 . S
C1400 C1399 1.363 . S
C1400 C1406 1.428 . S
H1401 C1397 0.930 . S
H1402 C1399 0.929 . S
S1403 N1404 1.613 . S
S1403 N1405 1.610 . S
N1404 S1403 1.613 . S
N1404 C1407 1.350 . S
N1405 S1403 1.610 . S
N1405 C1406 1.351 . S
C1406 C1400 1.428 . S
C1406 N1405 1.351 . S
C1406 C1407 1.434 . S
C1407 C1398 1.429 . S
C1407 N1404 1.350 . S
C1407 C1406 1.434 . S
C1408 C1409 1.376 . S
C1408 C1410 1.419 . S
C1408 H1412 0.923 1_554 S
C1409 C1408 1.376 . S
C1409 C1418 1.429 . S
C1410 C1408 1.419 . S
C1410 C1411 1.375 . S
C1410 H1413 0.917 1_554 S
C1411 C1410 1.375 . S
C1411 C1417 1.428 . S
H1412 C1408 0.923 1_556 S
H1413 C1410 0.917 1_556 S
S1414 N1415 1.613 . S
S1414 N1416 1.610 . S
N1415 S1414 1.613 . S
N1415 C1418 1.350 . S
N1416 S1414 1.610 . S
N1416 C1417 1.351 . S
C1417 C1411 1.428 . S
C1417 N1416 1.351 . S
C1417 C1418 1.434 . S
C1418 C1409 1.429 . S
C1418 N1415 1.350 . S
C1418 C1417 1.434 . S
C1419 C1420 1.369 . S
C1419 C1421 1.419 . S
C1419 H1423 0.930 . S
C1420 C1419 1.369 . S
C1420 C1429 1.429 . S
C1421 C1419 1.419 . S
C1421 C1422 1.363 . S
C1421 H1424 0.929 . S
C1422 C1421 1.363 . S
C1422 C1428 1.428 . S
H1423 C1419 0.930 . S
H1424 C1421 0.929 . S
S1425 N1426 1.613 . S
S1425 N1427 1.610 . S
N1426 S1425 1.613 . S
N1426 C1429 1.350 . S
N1427 S1425 1.610 . S
N1427 C1428 1.351 . S
C1428 C1422 1.428 . S
C1428 N1427 1.351 . S
C1428 C1429 1.434 . S
C1429 C1420 1.429 . S
C1429 N1426 1.350 . S
C1429 C1428 1.434 . S
C1430 C1431 1.369 . S
C1430 C1432 1.419 . S
C1430 H1434 0.930 1_554 S
C1431 C1430 1.369 . S
C1431 C1440 1.429 . S
C1432 C1430 1.419 . S
C1432 C1433 1.363 . S
C1432 H1435 0.929 1_554 S
C1433 C1432 1.363 . S
C1433 C1439 1.428 . S
H1434 C1430 0.930 1_556 S
H1435 C1432 0.929 1_556 S
S1436 N1437 1.613 . S
S1436 N1438 1.610 . S
N1437 S1436 1.613 . S
N1437 C1440 1.350 . S
N1438 S1436 1.610 . S
N1438 C1439 1.351 . S
C1439 C1433 1.428 . S
C1439 N1438 1.351 . S
C1439 C1440 1.434 . S
C1440 C1431 1.429 . S
C1440 N1437 1.350 . S
C1440 C1439 1.434 . S
C1441 C1442 1.369 . S
C1441 C1443 1.419 . S
C1441 H1445 0.930 . S
C1442 C1441 1.369 . S
C1442 C1451 1.429 . S
C1443 C1441 1.419 . S
C1443 C1444 1.363 . S
C1443 H1446 0.929 . S
C1444 C1443 1.363 . S
C1444 C1450 1.428 . S
H1445 C1441 0.930 . S
H1446 C1443 0.929 . S
S1447 N1448 1.613 . S
S1447 N1449 1.613 . S
N1448 S1447 1.613 . S
N1448 C1451 1.350 1_545 S
N1449 S1447 1.613 . S
N1449 C1450 1.349 1_545 S
C1450 C1444 1.428 . S
C1450 N1449 1.349 1_565 S
C1450 C1451 1.434 . S
C1451 C1442 1.429 . S
C1451 N1448 1.350 1_565 S
C1451 C1450 1.434 . S
C1452 C1453 1.369 . S
C1452 C1454 1.419 . S
C1452 H1456 0.930 . S
C1453 C1452 1.369 . S
C1453 C1462 1.429 . S
C1454 C1452 1.419 . S
C1454 C1455 1.363 . S
C1454 H1457 0.929 . S
C1455 C1454 1.363 . S
C1455 C1461 1.428 . S
H1456 C1452 0.930 . S
H1457 C1454 0.929 . S
S1458 N1459 1.613 . S
S1458 N1460 1.610 . S
N1459 S1458 1.613 . S
N1459 C1462 1.350 . S
N1460 S1458 1.610 . S
N1460 C1461 1.351 . S
C1461 C1455 1.428 . S
C1461 N1460 1.351 . S
C1461 C1462 1.434 . S
C1462 C1453 1.429 . S
C1462 N1459 1.350 . S
C1462 C1461 1.434 . S
C1463 C1464 1.369 . S
C1463 C1465 1.419 . S
C1463 H1467 0.930 . S
C1464 C1463 1.369 . S
C1464 C1473 1.429 . S
C1465 C1463 1.419 . S
C1465 C1466 1.363 . S
C1465 H1468 0.929 . S
C1466 C1465 1.363 . S
C1466 C1472 1.428 . S
H1467 C1463 0.930 . S
H1468 C1465 0.929 . S
S1469 N1470 1.613 . S
S1469 N1471 1.610 . S
N1470 S1469 1.613 . S
N1470 C1473 1.350 . S
N1471 S1469 1.610 . S
N1471 C1472 1.351 . S
C1472 C1466 1.428 . S
C1472 N1471 1.351 . S
C1472 C1473 1.434 . S
C1473 C1464 1.429 . S
C1473 N1470 1.350 . S
C1473 C1472 1.434 . S
C1474 C1475 1.369 . S
C1474 C1476 1.419 . S
C1474 H1478 0.930 . S
C1475 C1474 1.369 . S
C1475 C1484 1.429 . S
C1476 C1474 1.419 . S
C1476 C1477 1.363 . S
C1476 H1479 0.929 . S
C1477 C1476 1.363 . S
C1477 C1483 1.428 . S
H1478 C1474 0.930 . S
H1479 C1476 0.929 . S
S1480 N1481 1.613 . S
S1480 N1482 1.610 . S
N1481 S1480 1.613 . S
N1481 C1484 1.350 . S
N1482 S1480 1.610 . S
N1482 C1483 1.351 . S
C1483 C1477 1.428 . S
C1483 N1482 1.351 . S
C1483 C1484 1.434 . S
C1484 C1475 1.429 . S
C1484 N1481 1.350 . S
C1484 C1483 1.434 . S
C1485 C1486 1.369 . S
C1485 C1487 1.419 . S
C1485 H1489 0.930 . S
C1486 C1485 1.369 . S
C1486 C1495 1.429 . S
C1487 C1485 1.419 . S
C1487 C1488 1.363 . S
C1487 H1490 0.929 . S
C1488 C1487 1.363 . S
C1488 C1494 1.428 . S
H1489 C1485 0.930 . S
H1490 C1487 0.929 . S
S1491 N1492 1.613 . S
S1491 N1493 1.610 . S
N1492 S1491 1.613 . S
N1492 C1495 1.350 . S
N1493 S1491 1.610 . S
N1493 C1494 1.351 . S
C1494 C1488 1.428 . S
C1494 N1493 1.351 . S
C1494 C1495 1.434 . S
C1495 C1486 1.429 . S
C1495 N1492 1.350 . S
C1495 C1494 1.434 . S
C1496 C1497 1.369 . S
C1496 C1498 1.419 . S
C1496 H1500 0.930 . S
C1497 C1496 1.369 . S
C1497 C1506 1.429 . S
C1498 C1496 1.419 . S
C1498 C1499 1.363 . S
C1498 H1501 0.929 . S
C1499 C1498 1.363 . S
C1499 C1505 1.428 . S
H1500 C1496 0.930 . S
H1501 C1498 0.929 . S
S1502 N1503 1.613 . S
S1502 N1504 1.610 . S
N1503 S1502 1.613 . S
N1503 C1506 1.350 . S
N1504 S1502 1.610 . S
N1504 C1505 1.351 . S
C1505 C1499 1.428 . S
C1505 N1504 1.351 . S
C1505 C1506 1.434 . S
C1506 C1497 1.429 . S
C1506 N1503 1.350 . S
C1506 C1505 1.434 . S
C1507 C1508 1.369 . S
C1507 C1509 1.419 . S
C1507 H1511 0.930 . S
C1508 C1507 1.369 . S
C1508 C1517 1.429 . S
C1509 C1507 1.419 . S
C1509 C1510 1.363 . S
C1509 H1512 0.929 . S
C1510 C1509 1.363 . S
C1510 C1516 1.428 . S
H1511 C1507 0.930 . S
H1512 C1509 0.929 . S
S1513 N1514 1.613 . S
S1513 N1515 1.610 . S
N1514 S1513 1.613 . S
N1514 C1517 1.350 . S
N1515 S1513 1.610 . S
N1515 C1516 1.351 . S
C1516 C1510 1.428 . S
C1516 N1515 1.351 . S
C1516 C1517 1.434 . S
C1517 C1508 1.429 . S
C1517 N1514 1.350 . S
C1517 C1516 1.434 . S
C1518 C1519 1.369 . S
C1518 C1520 1.419 . S
C1518 H1522 0.930 . S
C1519 C1518 1.369 . S
C1519 C1528 1.429 . S
C1520 C1518 1.419 . S
C1520 C1521 1.363 . S
C1520 H1523 0.929 . S
C1521 C1520 1.363 . S
C1521 C1527 1.428 . S
H1522 C1518 0.930 . S
H1523 C1520 0.929 . S
S1524 N1525 1.613 1_545 S
S1524 N1526 1.610 . S
N1525 S1524 1.613 1_565 S
N1525 C1528 1.350 . S
N1526 S1524 1.610 . S
N1526 C1527 1.351 1_545 S
C1527 C1521 1.428 . S
C1527 N1526 1.351 1_565 S
C1527 C1528 1.434 . S
C1528 C1519 1.429 . S
C1528 N1525 1.350 . S
C1528 C1527 1.434 . S
C1529 C1530 1.369 . S
C1529 C1531 1.419 . S
C1529 H1533 0.930 . S
C1530 C1529 1.369 . S
C1530 C1539 1.429 . S
C1531 C1529 1.419 . S
C1531 C1532 1.363 . S
C1531 H1534 0.929 1_565 S
C1532 C1531 1.363 . S
C1532 C1538 1.428 . S
H1533 C1529 0.930 . S
H1534 C1531 0.929 1_545 S
S1535 N1536 1.613 . S
S1535 N1537 1.610 . S
N1536 S1535 1.613 . S
N1536 C1539 1.350 . S
N1537 S1535 1.610 . S
N1537 C1538 1.351 . S
C1538 C1532 1.428 . S
C1538 N1537 1.351 . S
C1538 C1539 1.434 . S
C1539 C1530 1.429 . S
C1539 N1536 1.350 . S
C1539 C1538 1.434 . S
C1540 C1541 1.369 1_556 S
C1540 C1542 1.419 . S
C1540 H1544 0.930 . S
C1541 C1540 1.369 1_554 S
C1541 C1550 1.429 . S
C1542 C1540 1.419 . S
C1542 C1543 1.363 1_556 S
C1542 H1545 0.929 . S
C1543 C1542 1.363 1_554 S
C1543 C1549 1.428 . S
H1544 C1540 0.930 . S
H1545 C1542 0.929 . S
S1546 N1547 1.613 . S
S1546 N1548 1.610 . S
N1547 S1546 1.613 . S
N1547 C1550 1.350 . S
N1548 S1546 1.610 . S
N1548 C1549 1.351 . S
C1549 C1543 1.428 . S
C1549 N1548 1.351 . S
C1549 C1550 1.434 . S
C1550 C1541 1.429 . S
C1550 N1547 1.350 . S
C1550 C1549 1.434 . S
C1551 C1552 1.369 . S
C1551 C1553 1.419 . S
C1551 H1555 0.930 . S
C1552 C1551 1.369 . S
C1552 C1561 1.429 . S
C1553 C1551 1.419 . S
C1553 C1554 1.363 . S
C1553 H1556 0.929 . S
C1554 C1553 1.363 . S
C1554 C1560 1.428 . S
H1555 C1551 0.930 . S
H1556 C1553 0.929 . S
S1557 N1558 1.613 . S
S1557 N1559 1.610 . S
N1558 S1557 1.613 . S
N1558 C1561 1.350 . S
N1559 S1557 1.610 . S
N1559 C1560 1.351 . S
C1560 C1554 1.428 . S
C1560 N1559 1.351 . S
C1560 C1561 1.434 . S
C1561 C1552 1.429 . S
C1561 N1558 1.350 . S
C1561 C1560 1.434 . S
C1562 C1563 1.369 . S
C1562 C1564 1.419 . S
C1562 H1566 0.930 . S
C1563 C1562 1.369 . S
C1563 C1572 1.429 . S
C1564 C1562 1.419 . S
C1564 C1565 1.363 . S
C1564 H1567 0.929 . S
C1565 C1564 1.363 . S
C1565 C1571 1.428 . S
H1566 C1562 0.930 . S
H1567 C1564 0.929 . S
S1568 N1569 1.613 . S
S1568 N1570 1.610 . S
N1569 S1568 1.613 . S
N1569 C1572 1.350 1_556 S
N1570 S1568 1.610 . S
N1570 C1571 1.351 1_556 S
C1571 C1565 1.428 . S
C1571 N1570 1.351 1_554 S
C1571 C1572 1.434 . S
C1572 C1563 1.429 . S
C1572 N1569 1.350 1_554 S
C1572 C1571 1.434 . S
C1573 C1574 1.369 . S
C1573 C1575 1.419 . S
C1573 H1577 0.930 . S
C1574 C1573 1.369 . S
C1574 C1583 1.429 . S
C1575 C1573 1.419 . S
C1575 C1576 1.363 . S
C1575 H1578 0.929 . S
C1576 C1575 1.363 . S
C1576 C1582 1.428 . S
H1577 C1573 0.930 . S
H1578 C1575 0.929 . S
S1579 N1580 1.613 . S
S1579 N1581 1.610 . S
N1580 S1579 1.613 . S
N1580 C1583 1.350 . S
N1581 S1579 1.610 . S
N1581 C1582 1.351 . S
C1582 C1576 1.428 . S
C1582 N1581 1.351 . S
C1582 C1583 1.434 . S
C1583 C1574 1.429 . S
C1583 N1580 1.350 . S
C1583 C1582 1.434 . S
C1584 C1585 1.369 . S
C1584 C1586 1.418 1_454 S
C1584 H1588 0.930 1_554 S
C1585 C1584 1.369 . S
C1585 C1594 1.429 . S
C1586 C1584 1.418 1_656 S
C1586 C1587 1.361 1_556 S
C1586 H1589 0.931 . S
C1587 C1586 1.361 1_554 S
C1587 C1593 1.428 . S
H1588 C1584 0.930 1_556 S
H1589 C1586 0.931 . S
S1590 N1591 1.613 1_655 S
S1590 N1592 1.610 . S
N1591 S1590 1.613 1_455 S
N1591 C1594 1.350 . S
N1592 S1590 1.610 . S
N1592 C1593 1.351 . S
C1593 C1587 1.428 . S
C1593 N1592 1.351 . S
C1593 C1594 1.434 1_655 S
C1594 C1585 1.429 . S
C1594 N1591 1.350 . S
C1594 C1593 1.434 1_455 S
C1595 C1596 1.369 . S
C1595 C1597 1.419 . S
C1595 H1599 0.917 1_554 S
C1596 C1595 1.369 . S
C1596 C1605 1.429 . S
C1597 C1595 1.419 . S
C1597 C1598 1.363 . S
C1597 H1600 0.929 . S
C1598 C1597 1.363 . S
C1598 C1604 1.428 . S
H1599 C1595 0.917 1_556 S
H1600 C1597 0.929 . S
S1601 N1602 1.613 . S
S1601 N1603 1.610 . S
N1602 S1601 1.613 . S
N1602 C1605 1.350 . S
N1603 S1601 1.610 . S
N1603 C1604 1.351 . S
C1604 C1598 1.428 . S
C1604 N1603 1.351 . S
C1604 C1605 1.434 . S
C1605 C1596 1.429 . S
C1605 N1602 1.350 . S
C1605 C1604 1.434 . S
C1606 C1607 1.369 . S
C1606 C1608 1.419 . S
C1606 H1610 0.930 . S
C1607 C1606 1.369 . S
C1607 C1616 1.429 1_455 S
C1608 C1606 1.419 . S
C1608 C1609 1.363 1_455 S
C1608 H1611 0.929 . S
C1609 C1608 1.363 1_655 S
C1609 C1615 1.428 . S
H1610 C1606 0.930 . S
H1611 C1608 0.929 . S
S1612 N1613 1.613 . S
S1612 N1614 1.610 . S
N1613 S1612 1.613 . S
N1613 C1616 1.350 . S
N1614 S1612 1.610 . S
N1614 C1615 1.351 . S
C1615 C1609 1.428 . S
C1615 N1614 1.351 . S
C1615 C1616 1.434 . S
C1616 C1607 1.429 1_655 S
C1616 N1613 1.350 . S
C1616 C1615 1.434 . S
C1617 C1618 1.369 . S
C1617 C1619 1.419 . S
C1617 H1621 0.930 . S
C1618 C1617 1.369 . S
C1618 C1627 1.429 . S
C1619 C1617 1.419 . S
C1619 C1620 1.363 . S
C1619 H1622 0.929 . S
C1620 C1619 1.363 . S
C1620 C1626 1.428 . S
H1621 C1617 0.930 . S
H1622 C1619 0.929 . S
S1623 N1624 1.613 . S
S1623 N1625 1.610 . S
N1624 S1623 1.613 . S
N1624 C1627 1.350 . S
N1625 S1623 1.610 . S
N1625 C1626 1.351 . S
C1626 C1620 1.428 . S
C1626 N1625 1.351 . S
C1626 C1627 1.434 . S
C1627 C1618 1.429 . S
C1627 N1624 1.350 . S
C1627 C1626 1.434 . S
C1628 C1629 1.369 . S
C1628 C1630 1.419 . S
C1628 H1632 0.930 1_554 S
C1629 C1628 1.369 . S
C1629 C1638 1.429 . S
C1630 C1628 1.419 . S
C1630 C1631 1.363 . S
C1630 H1633 0.929 1_554 S
C1631 C1630 1.363 . S
C1631 C1637 1.428 . S
H1632 C1628 0.930 1_556 S
H1633 C1630 0.929 1_556 S
S1634 N1635 1.613 . S
S1634 N1636 1.610 . S
N1635 S1634 1.613 . S
N1635 C1638 1.350 . S
N1636 S1634 1.610 . S
N1636 C1637 1.351 . S
C1637 C1631 1.428 . S
C1637 N1636 1.351 . S
C1637 C1638 1.434 . S
C1638 C1629 1.429 . S
C1638 N1635 1.350 . S
C1638 C1637 1.434 . S
C1639 C1640 1.369 . S
C1639 C1641 1.419 1_655 S
C1639 H1643 0.930 . S
C1640 C1639 1.369 . S
C1640 C1649 1.429 . S
C1641 C1639 1.419 1_455 S
C1641 C1642 1.363 . S
C1641 H1644 0.929 . S
C1642 C1641 1.363 . S
C1642 C1648 1.428 . S
H1643 C1639 0.930 . S
H1644 C1641 0.929 . S
S1645 N1646 1.613 . S
S1645 N1647 1.610 1_655 S
N1646 S1645 1.613 . S
N1646 C1649 1.350 . S
N1647 S1645 1.610 1_455 S
N1647 C1648 1.351 . S
C1648 C1642 1.428 . S
C1648 N1647 1.351 . S
C1648 C1649 1.434 1_455 S
C1649 C1640 1.429 . S
C1649 N1646 1.350 . S
C1649 C1648 1.434 1_655 S
C1650 C1651 1.369 . S
C1650 C1652 1.419 . S
C1650 H1654 0.930 . S
C1651 C1650 1.369 . S
C1651 C1660 1.429 . S
C1652 C1650 1.419 . S
C1652 C1653 1.363 . S
C1652 H1655 0.929 . S
C1653 C1652 1.363 . S
C1653 C1659 1.428 . S
H1654 C1650 0.930 . S
H1655 C1652 0.929 . S
S1656 N1657 1.613 . S
S1656 N1658 1.610 . S
N1657 S1656 1.613 . S
N1657 C1660 1.350 . S
N1658 S1656 1.610 . S
N1658 C1659 1.351 . S
C1659 C1653 1.428 . S
C1659 N1658 1.351 . S
C1659 C1660 1.434 . S
C1660 C1651 1.429 . S
C1660 N1657 1.350 . S
C1660 C1659 1.434 . S
C1661 C1662 1.369 . S
C1661 C1663 1.419 1_655 S
C1661 H1665 0.930 . S
C1662 C1661 1.369 . S
C1662 C1671 1.429 . S
C1663 C1661 1.419 1_455 S
C1663 C1664 1.363 1_545 S
C1663 H1666 0.929 . S
C1664 C1663 1.363 1_565 S
C1664 C1670 1.428 . S
H1665 C1661 0.930 . S
H1666 C1663 0.929 . S
S1667 N1668 1.613 1_565 S
S1667 N1669 1.610 1_655 S
N1668 S1667 1.613 1_545 S
N1668 C1671 1.350 . S
N1669 S1667 1.610 1_455 S
N1669 C1670 1.351 . S
C1670 C1664 1.428 . S
C1670 N1669 1.351 . S
C1670 C1671 1.434 1_465 S
C1671 C1662 1.429 . S
C1671 N1668 1.350 . S
C1671 C1670 1.434 1_645 S
C1672 C1673 1.369 . S
C1672 C1674 1.419 . S
C1672 H1676 0.930 . S
C1673 C1672 1.369 . S
C1673 C1682 1.429 . S
C1674 C1672 1.419 . S
C1674 C1675 1.363 . S
C1674 H1677 0.929 . S
C1675 C1674 1.363 . S
C1675 C1681 1.428 . S
H1676 C1672 0.930 . S
H1677 C1674 0.929 . S
S1678 N1679 1.613 . S
S1678 N1680 1.610 . S
N1679 S1678 1.613 . S
N1679 C1682 1.350 . S
N1680 S1678 1.610 . S
N1680 C1681 1.351 . S
C1681 C1675 1.428 . S
C1681 N1680 1.351 . S
C1681 C1682 1.434 . S
C1682 C1673 1.429 . S
C1682 N1679 1.350 . S
C1682 C1681 1.434 . S
C1683 C1684 1.369 . S
C1683 C1685 1.419 1_545 S
C1683 H1687 0.930 . S
C1684 C1683 1.369 . S
C1684 C1693 1.429 . S
C1685 C1683 1.419 1_565 S
C1685 C1686 1.363 . S
C1685 H1688 0.929 . S
C1686 C1685 1.363 . S
C1686 C1692 1.428 1_565 S
H1687 C1683 0.930 . S
H1688 C1685 0.929 . S
S1689 N1690 1.613 . S
S1689 N1691 1.610 . S
N1690 S1689 1.613 . S
N1690 C1693 1.350 . S
N1691 S1689 1.610 . S
N1691 C1692 1.351 . S
C1692 C1686 1.428 1_545 S
C1692 N1691 1.351 . S
C1692 C1693 1.434 . S
C1693 C1684 1.429 . S
C1693 N1690 1.350 . S
C1693 C1692 1.434 . S
C1694 C1695 1.369 . S
C1694 C1696 1.419 . S
C1694 H1698 0.930 . S
C1695 C1694 1.369 . S
C1695 C1704 1.429 . S
C1696 C1694 1.419 . S
C1696 C1697 1.363 . S
C1696 H1699 0.929 . S
C1697 C1696 1.363 . S
C1697 C1703 1.428 . S
H1698 C1694 0.930 . S
H1699 C1696 0.929 . S
S1700 N1701 1.613 . S
S1700 N1702 1.610 . S
N1701 S1700 1.613 . S
N1701 C1704 1.350 . S
N1702 S1700 1.610 . S
N1702 C1703 1.351 . S
C1703 C1697 1.428 . S
C1703 N1702 1.351 . S
C1703 C1704 1.434 . S
C1704 C1695 1.429 . S
C1704 N1701 1.350 . S
C1704 C1703 1.434 . S
C1705 C1706 1.369 . S
C1705 C1707 1.419 . S
C1705 H1709 0.930 . S
C1706 C1705 1.369 . S
C1706 C1715 1.429 . S
C1707 C1705 1.419 . S
C1707 C1708 1.363 1_545 S
C1707 H1710 0.929 . S
C1708 C1707 1.363 1_565 S
C1708 C1714 1.428 . S
H1709 C1705 0.930 . S
H1710 C1707 0.929 . S
S1711 N1712 1.601 1_565 S
S1711 N1713 1.610 . S
N1712 S1711 1.601 1_545 S
N1712 C1715 1.354 . S
N1713 S1711 1.610 . S
N1713 C1714 1.351 . S
C1714 C1708 1.428 . S
C1714 N1713 1.351 . S
C1714 C1715 1.434 1_565 S
C1715 C1706 1.429 . S
C1715 N1712 1.354 . S
C1715 C1714 1.434 1_545 S
C1716 C1717 1.369 . S
C1716 C1718 1.419 . S
C1716 H1720 0.930 . S
C1717 C1716 1.369 . S
C1717 C1726 1.429 . S
C1718 C1716 1.419 . S
C1718 C1719 1.363 . S
C1718 H1721 0.929 . S
C1719 C1718 1.363 . S
C1719 C1725 1.428 . S
H1720 C1716 0.930 . S
H1721 C1718 0.929 . S
S1722 N1723 1.613 . S
S1722 N1724 1.610 . S
N1723 S1722 1.613 . S
N1723 C1726 1.350 . S
N1724 S1722 1.610 . S
N1724 C1725 1.351 . S
C1725 C1719 1.428 . S
C1725 N1724 1.351 . S
C1725 C1726 1.434 . S
C1726 C1717 1.429 . S
C1726 N1723 1.350 . S
C1726 C1725 1.434 . S
C1727 C1728 1.369 . S
C1727 C1729 1.419 . S
C1727 H1731 0.930 . S
C1728 C1727 1.369 . S
C1728 C1737 1.429 . S
C1729 C1727 1.419 . S
C1729 C1730 1.363 . S
C1729 H1732 0.929 . S
C1730 C1729 1.363 . S
C1730 C1736 1.428 . S
H1731 C1727 0.930 . S
H1732 C1729 0.929 . S
S1733 N1734 1.613 . S
S1733 N1735 1.610 . S
N1734 S1733 1.613 . S
N1734 C1737 1.350 . S
N1735 S1733 1.610 . S
N1735 C1736 1.351 . S
C1736 C1730 1.428 . S
C1736 N1735 1.351 . S
C1736 C1737 1.434 . S
C1737 C1728 1.429 . S
C1737 N1734 1.350 . S
C1737 C1736 1.434 . S
C1738 C1739 1.369 . S
C1738 C1740 1.419 . S
C1738 H1742 0.930 . S
C1739 C1738 1.369 . S
C1739 C1748 1.429 . S
C1740 C1738 1.419 . S
C1740 C1741 1.363 . S
C1740 H1743 0.929 . S
C1741 C1740 1.363 . S
C1741 C1747 1.428 . S
H1742 C1738 0.930 . S
H1743 C1740 0.929 . S
S1744 N1745 1.613 . S
S1744 N1746 1.610 . S
N1745 S1744 1.613 . S
N1745 C1748 1.350 . S
N1746 S1744 1.610 . S
N1746 C1747 1.351 . S
C1747 C1741 1.428 . S
C1747 N1746 1.351 . S
C1747 C1748 1.434 . S
C1748 C1739 1.429 . S
C1748 N1745 1.350 . S
C1748 C1747 1.434 . S
C1749 C1750 1.339 1_556 S
C1749 C1751 1.417 1_556 S
C1749 H1753 0.964 . S
C1750 C1749 1.339 1_554 S
C1750 C1759 1.429 . S
C1751 C1749 1.417 1_554 S
C1751 C1752 1.378 1_545 S
C1751 H1754 0.914 1_544 S
C1752 C1751 1.378 1_565 S
C1752 C1758 1.428 1_565 S
H1753 C1749 0.964 . S
H1754 C1751 0.914 1_566 S
S1755 N1756 1.613 . S
S1755 N1757 1.610 . S
N1756 S1755 1.613 . S
N1756 C1759 1.350 . S
N1757 S1755 1.610 . S
N1757 C1758 1.351 . S
C1758 C1752 1.428 1_545 S
C1758 N1757 1.351 . S
C1758 C1759 1.434 . S
C1759 C1750 1.429 . S
C1759 N1756 1.350 . S
C1759 C1758 1.434 . S
C1760 C1761 1.369 1_455 S
C1760 C1762 1.419 1_565 S
C1760 H1764 0.930 . S
C1761 C1760 1.369 1_655 S
C1761 C1770 1.429 1_565 S
C1762 C1760 1.419 1_545 S
C1762 C1763 1.363 . S
C1762 H1765 0.929 . S
C1763 C1762 1.363 . S
C1763 C1769 1.428 1_455 S
H1764 C1760 0.930 . S
H1765 C1762 0.929 . S
S1766 N1767 1.613 . S
S1766 N1768 1.610 . S
N1767 S1766 1.613 . S
N1767 C1770 1.350 . S
N1768 S1766 1.610 . S
N1768 C1769 1.351 . S
C1769 C1763 1.428 1_655 S
C1769 N1768 1.351 . S
C1769 C1770 1.434 . S
C1770 C1761 1.429 1_545 S
C1770 N1767 1.350 . S
C1770 C1769 1.434 . S
C1771 C1772 1.369 . S
C1771 C1773 1.419 . S
C1771 H1775 0.930 . S
C1772 C1771 1.369 . S
C1772 C1781 1.429 1_554 S
C1773 C1771 1.419 . S
C1773 C1774 1.363 . S
C1773 H1776 0.929 . S
C1774 C1773 1.363 . S
C1774 C1780 1.428 1_554 S
H1775 C1771 0.930 . S
H1776 C1773 0.929 . S
S1777 N1778 1.613 . S
S1777 N1779 1.610 . S
N1778 S1777 1.613 . S
N1778 C1781 1.350 . S
N1779 S1777 1.610 . S
N1779 C1780 1.351 . S
C1780 C1774 1.428 1_556 S
C1780 N1779 1.351 . S
C1780 C1781 1.434 . S
C1781 C1772 1.429 1_556 S
C1781 N1778 1.350 . S
C1781 C1780 1.434 . S
C1782 C1783 1.369 . S
C1782 C1784 1.419 . S
C1782 H1786 0.930 . S
C1783 C1782 1.369 . S
C1783 C1792 1.429 1_655 S
C1784 C1782 1.419 . S
C1784 C1785 1.363 1_655 S
C1784 H1787 0.929 . S
C1785 C1784 1.363 1_455 S
C1785 C1791 1.428 . S
H1786 C1782 0.930 . S
H1787 C1784 0.929 . S
S1788 N1789 1.613 . S
S1788 N1790 1.610 . S
N1789 S1788 1.613 . S
N1789 C1792 1.350 . S
N1790 S1788 1.610 . S
N1790 C1791 1.351 . S
C1791 C1785 1.428 . S
C1791 N1790 1.351 . S
C1791 C1792 1.434 . S
C1792 C1783 1.429 1_455 S
C1792 N1789 1.350 . S
C1792 C1791 1.434 . S
C1793 C1794 1.369 . S
C1793 C1795 1.419 1_545 S
C1793 H1797 0.930 . S
C1794 C1793 1.369 . S
C1794 C1803 1.429 . S
C1795 C1793 1.419 1_565 S
C1795 C1796 1.363 . S
C1795 H1798 0.929 . S
C1796 C1795 1.363 . S
C1796 C1802 1.428 1_565 S
H1797 C1793 0.930 . S
H1798 C1795 0.929 . S
S1799 N1800 1.613 . S
S1799 N1801 1.610 . S
N1800 S1799 1.613 . S
N1800 C1803 1.350 . S
N1801 S1799 1.610 . S
N1801 C1802 1.351 . S
C1802 C1796 1.428 1_545 S
C1802 N1801 1.351 . S
C1802 C1803 1.434 . S
C1803 C1794 1.429 . S
C1803 N1800 1.350 . S
C1803 C1802 1.434 . S
C1804 C1805 1.369 . S
C1804 C1806 1.419 . S
C1804 H1808 0.930 . S
C1805 C1804 1.369 . S
C1805 C1814 1.429 1_554 S
C1806 C1804 1.419 . S
C1806 C1807 1.363 . S
C1806 H1809 0.929 . S
C1807 C1806 1.363 . S
C1807 C1813 1.428 1_554 S
H1808 C1804 0.930 . S
H1809 C1806 0.929 . S
S1810 N1811 1.613 . S
S1810 N1812 1.610 . S
N1811 S1810 1.613 . S
N1811 C1814 1.350 . S
N1812 S1810 1.610 . S
N1812 C1813 1.351 . S
C1813 C1807 1.428 1_556 S
C1813 N1812 1.351 . S
C1813 C1814 1.434 . S
C1814 C1805 1.429 1_556 S
C1814 N1811 1.350 . S
C1814 C1813 1.434 . S
C1815 C1816 1.369 . S
C1815 C1817 1.457 . S
C1815 H1819 0.930 . S
C1816 C1815 1.369 . S
C1816 C1825 1.429 1_655 S
C1817 C1815 1.457 . S
C1817 C1818 1.320 1_655 S
C1817 H1820 0.938 . S
C1818 C1817 1.320 1_455 S
C1818 C1824 1.428 . S
H1819 C1815 0.930 . S
H1820 C1817 0.938 . S
S1821 N1822 1.613 . S
S1821 N1823 1.610 . S
N1822 S1821 1.613 . S
N1822 C1825 1.350 . S
N1823 S1821 1.610 . S
N1823 C1824 1.351 . S
C1824 C1818 1.428 . S
C1824 N1823 1.351 . S
C1824 C1825 1.434 . S
C1825 C1816 1.429 1_455 S
C1825 N1822 1.350 . S
C1825 C1824 1.434 . S
C1826 C1827 1.369 1_545 S
C1826 C1828 1.419 . S
C1826 H1830 0.930 . S
C1827 C1826 1.369 1_565 S
C1827 C1836 1.429 . S
C1828 C1826 1.419 . S
C1828 C1829 1.363 . S
C1828 H1831 0.929 . S
C1829 C1828 1.363 . S
C1829 C1835 1.428 . S
H1830 C1826 0.930 . S
H1831 C1828 0.929 . S
S1832 N1833 1.613 1_545 S
S1832 N1834 1.610 . S
N1833 S1832 1.613 1_565 S
N1833 C1836 1.350 . S
N1834 S1832 1.610 . S
N1834 C1835 1.351 . S
C1835 C1829 1.428 . S
C1835 N1834 1.351 . S
C1835 C1836 1.434 1_545 S
C1836 C1827 1.429 . S
C1836 N1833 1.350 . S
C1836 C1835 1.434 1_565 S
C1837 C1838 1.369 . S
C1837 C1839 1.419 . S
C1837 H1841 0.930 . S
C1838 C1837 1.369 . S
C1838 C1847 1.429 1_455 S
C1839 C1837 1.419 . S
C1839 C1840 1.363 1_455 S
C1839 H1842 0.929 . S
C1840 C1839 1.363 1_655 S
C1840 C1846 1.428 . S
H1841 C1837 0.930 . S
H1842 C1839 0.929 . S
S1843 N1844 1.613 . S
S1843 N1845 1.610 . S
N1844 S1843 1.613 . S
N1844 C1847 1.350 . S
N1845 S1843 1.610 . S
N1845 C1846 1.351 . S
C1846 C1840 1.428 . S
C1846 N1845 1.351 . S
C1846 C1847 1.434 . S
C1847 C1838 1.429 1_655 S
C1847 N1844 1.350 . S
C1847 C1846 1.434 . S
C1848 C1849 1.369 . S
C1848 C1850 1.419 . S
C1848 H1852 0.930 . S
C1849 C1848 1.369 . S
C1849 C1858 1.429 . S
C1850 C1848 1.419 . S
C1850 C1851 1.363 . S
C1850 H1853 0.929 . S
C1851 C1850 1.363 . S
C1851 C1857 1.428 . S
H1852 C1848 0.930 . S
H1853 C1850 0.929 . S
S1854 N1855 1.613 . S
S1854 N1856 1.610 . S
N1855 S1854 1.613 . S
N1855 C1858 1.350 . S
N1856 S1854 1.610 . S
N1856 C1857 1.351 . S
C1857 C1851 1.428 . S
C1857 N1856 1.351 . S
C1857 C1858 1.434 . S
C1858 C1849 1.429 . S
C1858 N1855 1.350 . S
C1858 C1857 1.434 . S
C1859 C1860 1.369 . S
C1859 C1861 1.419 . S
C1859 H1863 0.930 . S
C1860 C1859 1.369 . S
C1860 C1869 1.429 . S
C1861 C1859 1.419 . S
C1861 C1862 1.363 . S
C1861 H1864 0.929 . S
C1862 C1861 1.363 . S
C1862 C1868 1.428 . S
H1863 C1859 0.930 . S
H1864 C1861 0.929 . S
S1865 N1866 1.613 . S
S1865 N1867 1.610 . S
N1866 S1865 1.613 . S
N1866 C1869 1.350 . S
N1867 S1865 1.610 . S
N1867 C1868 1.351 . S
C1868 C1862 1.428 . S
C1868 N1867 1.351 . S
C1868 C1869 1.434 . S
C1869 C1860 1.429 . S
C1869 N1866 1.350 . S
C1869 C1868 1.434 . S
C1870 C1871 1.369 . S
C1870 C1872 1.419 . S
C1870 H1874 0.930 . S
C1871 C1870 1.369 . S
C1871 C1880 1.429 . S
C1872 C1870 1.419 . S
C1872 C1873 1.363 . S
C1872 H1875 0.929 . S
C1873 C1872 1.363 . S
C1873 C1879 1.428 . S
H1874 C1870 0.930 . S
H1875 C1872 0.929 . S
S1876 N1877 1.613 . S
S1876 N1878 1.610 . S
N1877 S1876 1.613 . S
N1877 C1880 1.350 . S
N1878 S1876 1.610 . S
N1878 C1879 1.351 . S
C1879 C1873 1.428 . S
C1879 N1878 1.351 . S
C1879 C1880 1.434 . S
C1880 C1871 1.429 . S
C1880 N1877 1.350 . S
C1880 C1879 1.434 . S
C1881 C1882 1.369 . S
C1881 C1883 1.419 . S
C1881 H1885 0.930 . S
C1882 C1881 1.369 . S
C1882 C1891 1.429 . S
C1883 C1881 1.419 . S
C1883 C1884 1.363 . S
C1883 H1886 0.929 . S
C1884 C1883 1.363 . S
C1884 C1890 1.428 . S
H1885 C1881 0.930 . S
H1886 C1883 0.929 . S
S1887 N1888 1.613 . S
S1887 N1889 1.610 . S
N1888 S1887 1.613 . S
N1888 C1891 1.350 . S
N1889 S1887 1.610 . S
N1889 C1890 1.351 . S
C1890 C1884 1.428 . S
C1890 N1889 1.351 . S
C1890 C1891 1.434 . S
C1891 C1882 1.429 . S
C1891 N1888 1.350 . S
C1891 C1890 1.434 . S
C1892 C1893 1.369 . S
C1892 C1894 1.419 1_545 S
C1892 H1896 0.930 . S
C1893 C1892 1.369 . S
C1893 C1902 1.429 . S
C1894 C1892 1.419 1_565 S
C1894 C1895 1.363 . S
C1894 H1897 0.929 . S
C1895 C1894 1.363 . S
C1895 C1901 1.428 1_565 S
H1896 C1892 0.930 . S
H1897 C1894 0.929 . S
S1898 N1899 1.613 . S
S1898 N1900 1.610 . S
N1899 S1898 1.613 . S
N1899 C1902 1.350 . S
N1900 S1898 1.610 . S
N1900 C1901 1.351 . S
C1901 C1895 1.428 1_545 S
C1901 N1900 1.351 . S
C1901 C1902 1.434 . S
C1902 C1893 1.429 . S
C1902 N1899 1.350 . S
C1902 C1901 1.434 . S
C1903 C1904 1.369 . S
C1903 C1905 1.419 . S
C1903 H1907 0.930 . S
C1904 C1903 1.369 . S
C1904 C1913 1.429 . S
C1905 C1903 1.419 . S
C1905 C1906 1.363 . S
C1905 H1908 0.929 . S
C1906 C1905 1.363 . S
C1906 C1912 1.428 . S
H1907 C1903 0.930 . S
H1908 C1905 0.929 . S
S1909 N1910 1.613 . S
S1909 N1911 1.610 . S
N1910 S1909 1.613 . S
N1910 C1913 1.350 . S
N1911 S1909 1.610 . S
N1911 C1912 1.351 . S
C1912 C1906 1.428 . S
C1912 N1911 1.351 . S
C1912 C1913 1.434 . S
C1913 C1904 1.429 . S
C1913 N1910 1.350 . S
C1913 C1912 1.434 . S
C1914 C1915 1.369 . S
C1914 C1916 1.419 . S
C1914 H1918 0.930 . S
C1915 C1914 1.369 . S
C1915 C1924 1.429 . S
C1916 C1914 1.419 . S
C1916 C1917 1.363 . S
C1916 H1919 0.929 . S
C1917 C1916 1.363 . S
C1917 C1923 1.428 . S
H1918 C1914 0.930 . S
H1919 C1916 0.929 . S
S1920 N1921 1.613 . S
S1920 N1922 1.610 . S
N1921 S1920 1.613 . S
N1921 C1924 1.350 . S
N1922 S1920 1.610 . S
N1922 C1923 1.351 . S
C1923 C1917 1.428 . S
C1923 N1922 1.351 . S
C1923 C1924 1.434 . S
C1924 C1915 1.429 . S
C1924 N1921 1.350 . S
C1924 C1923 1.434 . S
C1925 C1926 1.390 . S
C1925 C1927 1.424 . S
C1925 H1929 0.904 1_554 S
C1926 C1925 1.390 . S
C1926 C1935 1.429 . S
C1927 C1925 1.424 . S
C1927 C1928 1.363 . S
C1927 H1930 0.929 1_554 S
C1928 C1927 1.363 . S
C1928 C1934 1.428 . S
H1929 C1925 0.904 1_556 S
H1930 C1927 0.929 1_556 S
S1931 N1932 1.613 . S
S1931 N1933 1.610 . S
N1932 S1931 1.613 . S
N1932 C1935 1.350 . S
N1933 S1931 1.610 . S
N1933 C1934 1.351 . S
C1934 C1928 1.428 . S
C1934 N1933 1.351 . S
C1934 C1935 1.434 . S
C1935 C1926 1.429 . S
C1935 N1932 1.350 . S
C1935 C1934 1.434 . S
C1057 N80 1.522 . S
C1059 N14 1.527 . S
C1068 N38 1.529 . S
C1070 N113 1.528 . S
C1079 N212 1.546 . S
C1081 N146 1.542 . S
C1090 N245 1.525 . S
C1092 N179 1.517 . S
C1101 N278 1.527 . S
C1103 N344 1.528 . S
C1112 N302 1.530 . S
C1114 N377 1.528 . S
C1123 N476 1.546 . S
C1125 N410 1.540 . S
C1134 N509 1.526 . S
C1136 N443 1.519 . S
C1145 N608 1.523 . S
C1147 N542 1.525 . S
C1156 N641 1.525 . S
C1158 N566 1.534 . S
C1167 N674 1.546 . S
C1169 N740 1.541 . S
C1178 N773 1.518 . S
C1180 N707 1.519 . S
C1189 N806 1.524 . S
C1191 N872 1.528 . S
C1200 N830 1.535 . S
C1202 N905 1.525 . S
C1211 N1004 1.546 . S
C1213 N938 1.540 . S
C1222 N971 1.522 . S
C1224 N1037 1.524 . S
C1233 N5 1.523 . S
C1235 N335 1.521 . S
C1244 N368 1.533 . S
C1246 N47 1.539 1_565 S
C1255 N71 1.521 1_565 S
C1257 N269 1.523 . S
C1266 N104 1.534 . S
C1268 N311 1.538 . S
C1277 N137 1.515 . S
C1279 N467 1.515 . S
C1288 N500 1.542 . S
C1290 N170 1.540 . S
C1299 N401 1.514 . S
C1301 N203 1.514 . S
C1310 N236 1.540 . S
C1312 N434 1.538 . S
C1321 N863 1.520 . S
C1323 N533 1.522 . S
C1332 N575 1.539 1_565 S
C1334 N896 1.534 . S
C1343 N599 1.521 1_565 S
C1345 N797 1.523 . S
C1354 N839 1.539 . S
C1356 N632 1.533 . S
C1365 N665 1.517 . S
C1367 N995 1.516 . S
C1376 N698 1.538 . S
C1378 N1028 1.541 . S
C1387 N731 1.514 . S
C1389 N929 1.514 . S
C1398 N764 1.541 . S
C1400 N962 1.539 . S
C1409 C17 1.581 . S
C1411 C50 1.566 . S
C1420 C83 1.567 . S
C1422 C116 1.571 . S
C1431 C182 1.569 . S
C1433 C149 1.569 . S
C1442 C215 1.575 . S
C1444 C248 1.570 . S
C1453 C281 1.584 . S
C1455 C314 1.563 . S
C1464 C380 1.569 . S
C1466 C347 1.571 . S
C1475 C446 1.571 . S
C1477 C413 1.568 . S
C1486 C479 1.569 . S
C1488 C512 1.574 . S
C1497 C545 1.581 . S
C1499 C578 1.567 . S
C1508 C644 1.572 . S
C1510 C611 1.568 . S
C1519 C677 1.569 . S
C1521 C710 1.569 . S
C1530 C776 1.575 . S
C1532 C743 1.569 . S
C1541 C809 1.582 . S
C1543 C842 1.566 . S
C1552 C908 1.569 . S
C1554 C875 1.569 . S
C1563 C974 1.570 . S
C1565 C941 1.570 . S
C1574 C1007 1.570 . S
C1576 C1040 1.573 . S
C1585 C28 1.553 . S
C1587 C160 1.557 . S
C1596 C985 1.575 . S
C1598 C41 1.587 . S
C1607 C94 1.552 . S
C1609 C490 1.558 . S
C1618 C127 1.564 . S
C1620 C787 1.570 . S
C1629 C193 1.575 . S
C1631 C833 1.587 . S
C1640 C226 1.554 . S
C1642 C358 1.556 . S
C1651 C655 1.565 . S
C1653 C259 1.569 . S
C1662 C424 1.556 . S
C1664 C292 1.556 . S
C1673 C721 1.573 . S
C1675 C305 1.588 . S
C1684 C1051 1.563 . S
C1686 C391 1.570 . S
C1695 C569 1.586 . S
C1697 C457 1.575 . S
C1706 C523 1.569 . S
C1708 C919 1.565 . S
C1717 C556 1.553 . S
C1719 C688 1.558 . S
C1728 C622 1.558 . S
C1730 C1018 1.552 . S
C1739 C886 1.558 . S
C1741 C754 1.553 . S
C1750 C952 1.554 . S
C1752 C820 1.557 . S
C1761 C140 0.788 . S
C1763 C8 0.790 . S
C1772 C61 0.785 . S
C1774 C965 0.783 . S
C1783 C470 0.795 . S
C1785 C74 0.794 . S
C1794 C107 0.784 . S
C1796 C767 0.791 . S
C1805 C853 0.787 . S
C1807 C173 0.782 . S
C1816 C206 0.797 . S
C1818 C338 0.791 . S
C1827 C239 0.792 . S
C1829 C635 0.785 . S
C1838 C272 0.789 . S
C1840 C404 0.790 . S
C1849 C325 0.787 . S
C1851 C701 0.781 . S
C1860 C1031 0.785 . S
C1862 C371 0.790 . S
C1871 C589 0.787 . S
C1873 C437 0.783 . S
C1882 C503 0.785 . S
C1884 C899 0.790 . S
C1893 C536 0.786 . S
C1895 C668 0.792 . S
C1904 C602 0.795 . S
C1906 C998 0.794 . S
C1915 C734 0.791 . S
C1917 C866 0.797 . S
C1926 C800 0.788 . S
C1928 C932 0.791 . S
