# Generated by pormake.
# Topology umx, (4)-cn, num edge types: 1
# Building blocks:
#     Node 0, Type 0, BuildingBlock: CEKHIL_clean_sbu_0, # of connection points: 4
#     Node 1, Type 0, BuildingBlock: CEKHIL_clean_sbu_0, # of connection points: 4
#     Node 2, Type 0, BuildingBlock: CEKHIL_clean_sbu_0, # of connection points: 4
#     Node 3, Type 0, BuildingBlock: CEKHIL_clean_sbu_0, # of connection points: 4
#     Node 4, Type 0, BuildingBlock: CEKHIL_clean_sbu_0, # of connection points: 4
#     Node 5, Type 0, BuildingBlock: CEKHIL_clean_sbu_0, # of connection points: 4
#     Node 6, Type 0, BuildingBlock: CEKHIL_clean_sbu_0, # of connection points: 4
#     Node 7, Type 0, BuildingBlock: CEKHIL_clean_sbu_0, # of connection points: 4
#     Edge 8, Type (0, 0), BuildingBlock: TEMPAE_clean_linker_10, # of connection points: 2
#     Edge 9, Type (0, 0), BuildingBlock: TEMPAE_clean_linker_10, # of connection points: 2
#     Edge 10, Type (0, 0), BuildingBlock: TEMPAE_clean_linker_10, # of connection points: 2
#     Edge 11, Type (0, 0), BuildingBlock: TEMPAE_clean_linker_10, # of connection points: 2
#     Edge 12, Type (0, 0), BuildingBlock: TEMPAE_clean_linker_10, # of connection points: 2
#     Edge 13, Type (0, 0), BuildingBlock: TEMPAE_clean_linker_10, # of connection points: 2
#     Edge 14, Type (0, 0), BuildingBlock: TEMPAE_clean_linker_10, # of connection points: 2
#     Edge 15, Type (0, 0), BuildingBlock: TEMPAE_clean_linker_10, # of connection points: 2
#     Edge 16, Type (0, 0), BuildingBlock: TEMPAE_clean_linker_10, # of connection points: 2
#     Edge 17, Type (0, 0), BuildingBlock: TEMPAE_clean_linker_10, # of connection points: 2
#     Edge 18, Type (0, 0), BuildingBlock: TEMPAE_clean_linker_10, # of connection points: 2
#     Edge 19, Type (0, 0), BuildingBlock: TEMPAE_clean_linker_10, # of connection points: 2
#     Edge 20, Type (0, 0), BuildingBlock: TEMPAE_clean_linker_10, # of connection points: 2
#     Edge 21, Type (0, 0), BuildingBlock: TEMPAE_clean_linker_10, # of connection points: 2
#     Edge 22, Type (0, 0), BuildingBlock: TEMPAE_clean_linker_10, # of connection points: 2
#     Edge 23, Type (0, 0), BuildingBlock: TEMPAE_clean_linker_10, # of connection points: 2
# Relax obj value: 0.076
# Max RMSD: 0.187
# Mean RMSD: 0.187
data_MOF--net-umx--node1-CEKHIL_clean_sbu_0--edge1-TEMPAE_clean_linker_10
_symmetry_space_group_name_H-M    P1
_symmetry_Int_Tables_number       1
_symmetry_cell_setting            triclinic
loop_
_symmetry_equiv_pos_as_xyz
'x, y, z'
_cell_length_a     39.418491
_cell_length_b     39.401975
_cell_length_c     28.115716
_cell_angle_alpha  90.014793
_cell_angle_beta   90.060081
_cell_angle_gamma 89.964851
loop_
_atom_site_label
_atom_site_type_symbol
_atom_site_fract_x
_atom_site_fract_y
_atom_site_fract_z
_atom_type_partial_charge
Co0 Co 0.18832 0.4375 0.00929 0.0
O1 O 0.22781 0.40915 0.00793 0.0
O2 O 0.17731 0.3927 0.03386 0.0
C3 C 0.1937 0.45697 0.93443 0.0
O4 O 0.14172 0.45999 0.01349 0.0
Co5 Co 0.19686 0.51525 -0.00049 0.0
O6 O 0.14723 0.51371 0.98744 0.0
C7 C 0.21178 0.48276 0.09151 0.0
C8 C 0.20875 0.38517 0.02445 0.0
C9 C 0.12896 0.48855 -7e-05 0.0
O10 O 0.20061 0.45439 0.075 0.0
O11 O 0.21497 0.50948 0.06596 0.0
O12 O 0.17957 0.42787 0.9427 0.0
O13 O 0.20725 0.47177 0.97091 0.0
Co14 Co 0.56032 0.19039 0.50091 0.0
O15 O 0.58316 0.23316 0.49935 0.0
O16 O 0.60562 0.18598 0.5281 0.0
C17 C 0.54238 0.19264 0.42524 0.0
O18 O 0.54366 0.14122 0.50589 0.0
Co19 Co 0.48232 0.1883 0.48604 0.0
O20 O 0.49159 0.13983 0.47289 0.0
C21 C 0.50993 0.20627 0.58027 0.0
C22 C 0.60918 0.21804 0.51783 0.0
C23 C 0.51788 0.12494 0.48903 0.0
O24 O 0.54033 0.20181 0.56492 0.0
O25 O 0.48342 0.20317 0.55431 0.0
O26 O 0.57272 0.18204 0.4352 0.0
O27 O 0.52499 0.20436 0.46062 0.0
Co28 Co 0.81295 0.56807 0.01489 0.0
O29 O 0.77189 0.59401 0.01785 0.0
O30 O 0.82217 0.6126 0.04174 0.0
C31 C 0.80659 0.55097 0.93897 0.0
O32 O 0.86079 0.54812 0.01521 0.0
Co33 Co 0.80812 0.4903 -7e-05 0.0
O34 O 0.85739 0.49483 0.98664 0.0
C35 C 0.79333 0.51894 0.09439 0.0
C36 C 0.79006 0.61859 0.03473 0.0
C37 C 0.87464 0.52056 -0.00021 0.0
O38 O 0.80345 0.5482 0.07977 0.0
O39 O 0.79044 0.49313 0.06697 0.0
O40 O 0.81912 0.58058 0.94871 0.0
O41 O 0.79498 0.53416 0.97502 0.0
Co42 Co 0.44923 0.80651 0.50243 0.0
O43 O 0.42427 0.76489 0.50245 0.0
O44 O 0.40451 0.81364 0.53016 0.0
C45 C 0.46629 0.80292 0.42651 0.0
O46 O 0.46846 0.85483 0.50595 0.0
Co47 Co 0.52717 0.80358 0.48657 0.0
O48 O 0.52158 0.85296 0.47671 0.0
C49 C 0.49942 0.78857 0.58146 0.0
C50 C 0.39932 0.78163 0.52101 0.0
C51 C 0.49587 0.86953 0.4914 0.0
O52 O 0.46925 0.7949 0.56642 0.0
O53 O 0.52582 0.78945 0.55506 0.0
O54 O 0.43652 0.81482 0.43684 0.0
O55 O 0.48335 0.79038 0.4617 0.0
Co56 Co 0.18945 0.56878 0.52522 0.0
O57 O 0.22987 0.59568 0.52682 0.0
O58 O 0.18031 0.61361 0.4991 0.0
C59 C 0.19386 0.55021 0.60079 0.0
O60 O 0.14217 0.54791 0.52065 0.0
Co61 Co 0.19523 0.49085 0.53735 0.0
O62 O 0.14571 0.49468 0.54938 0.0
C63 C 0.2115 0.52148 0.4446 0.0
C64 C 0.21186 0.62014 0.50933 0.0
C65 C 0.12843 0.52015 0.53534 0.0
O66 O 0.20143 0.5505 0.46023 0.0
O67 O 0.2137 0.49499 0.47085 0.0
O68 O 0.18074 0.57966 0.59148 0.0
O69 O 0.20686 0.53439 0.56479 0.0
Co70 Co 0.43812 0.1922 0.01389 0.0
O71 O 0.41335 0.234 0.01334 0.0
O72 O 0.39326 0.18506 0.98663 0.0
C73 C 0.45559 0.19617 0.08958 0.0
O74 O 0.45702 0.14373 0.01098 0.0
Co75 Co 0.51611 0.19415 0.02938 0.0
O76 O 0.50937 0.14535 0.04306 0.0
C77 C 0.48809 0.20945 0.93451 0.0
C78 C 0.38827 0.21717 -0.00475 0.0
C79 C 0.48371 0.12894 0.02782 0.0
O80 O 0.45794 0.20327 0.94969 0.0
O81 O 0.51455 0.20847 0.96092 0.0
O82 O 0.42568 0.18444 0.07968 0.0
O83 O 0.47257 0.20832 0.05411 0.0
Co84 Co 0.81467 0.43728 0.53098 0.0
O85 O 0.77518 0.40947 0.5366 0.0
O86 O 0.8244 0.39163 0.50783 0.0
C87 C 0.81123 0.45871 0.60504 0.0
O88 O 0.86123 0.45931 0.52314 0.0
Co89 Co 0.80624 0.51522 0.53695 0.0
O90 O 0.85617 0.51382 0.54601 0.0
C91 C 0.7897 0.48047 0.44732 0.0
C92 C 0.79335 0.38474 0.52033 0.0
C93 C 0.87423 0.4883 0.53426 0.0
O94 O 0.80082 0.45245 0.46505 0.0
O95 O 0.78706 0.5079 0.47146 0.0
O96 O 0.82523 0.42941 0.59753 0.0
O97 O 0.79684 0.47261 0.56851 0.0
Co98 Co 0.56915 0.81508 0.01472 0.0
O99 O 0.59738 0.77552 0.01459 0.0
O100 O 0.61317 0.82595 0.98751 0.0
C101 C 0.55219 0.80971 0.09047 0.0
O102 O 0.54645 0.86186 0.01139 0.0
Co103 Co 0.49163 0.80716 0.03017 0.0
O104 O 0.49387 0.85666 0.04161 0.0
C105 C 0.52072 0.7933 0.93559 0.0
C106 C 0.62086 0.79446 -0.0035 0.0
C107 C 0.51841 0.87481 0.02676 0.0
O108 O 0.55029 0.80208 0.95059 0.0
O109 O 0.4943 0.79237 0.96198 0.0
O110 O 0.58092 0.82402 0.08047 0.0
O111 O 0.53614 0.79627 0.05499 0.0
C112 C 0.20117 0.46455 0.17544 0.0
C113 C 0.21837 0.48566 0.14335 0.0
C114 C 0.20333 0.46996 0.22473 0.0
C115 C 0.22385 0.49662 0.24251 0.0
C116 C 0.24287 0.51672 0.21042 0.0
C117 C 0.23955 0.51131 0.16121 0.0
C118 C 0.18215 0.44831 0.25759 0.0
C119 C 0.26582 0.54472 0.22798 0.0
C120 C 0.19735 0.53554 0.36046 0.0
C121 C 0.21753 0.51759 0.39291 0.0
C122 C 0.19947 0.5292 0.31142 0.0
C123 C 0.22316 0.5051 0.29421 0.0
C124 C 0.24481 0.4881 0.32667 0.0
C125 C 0.2413 0.49409 0.37576 0.0
C126 C 0.17531 0.54726 0.27823 0.0
C127 C 0.27116 0.46311 0.30964 0.0
H128 H 0.1846 0.44481 0.16196 0.0
H129 H 0.25317 0.52753 0.13665 0.0
H130 H 0.19829 0.43688 0.28567 0.0
H131 H 0.16295 0.4644 0.27562 0.0
H132 H 0.1688 0.4276 0.23838 0.0
H133 H 0.28196 0.55519 0.19914 0.0
H134 H 0.2503 0.56565 0.2429 0.0
H135 H 0.28246 0.53524 0.25695 0.0
H136 H 0.17865 0.55342 0.3736 0.0
H137 H 0.25705 0.48027 0.40077 0.0
H138 H 0.15915 0.52839 0.25961 0.0
H139 H 0.18966 0.56129 0.25063 0.0
H140 H 0.15858 0.56546 0.29724 0.0
H141 H 0.25851 0.44044 0.29443 0.0
H142 H 0.28826 0.45471 0.3388 0.0
H143 H 0.28672 0.47458 0.28098 0.0
C144 C 0.48232 0.19197 0.65673 0.0
C145 C 0.50514 0.21227 0.63144 0.0
C146 C 0.47964 0.19461 0.70628 0.0
C147 C 0.49929 0.21912 0.73076 0.0
C148 C 0.52117 0.24088 0.70494 0.0
C149 C 0.52446 0.23663 0.65554 0.0
C150 C 0.45696 0.17008 0.73259 0.0
C151 C 0.54146 0.26821 0.72956 0.0
C152 C 0.46956 0.23476 0.85727 0.0
C153 C 0.49277 0.21517 0.88318 0.0
C154 C 0.47262 0.23807 0.80772 0.0
C155 C 0.49856 0.22012 0.78359 0.0
C156 C 0.52233 0.20071 0.80985 0.0
C157 C 0.5195 0.19902 0.85947 0.0
C158 C 0.44763 0.26007 0.78112 0.0
C159 C 0.54965 0.18024 0.7854 0.0
H160 H 0.4677 0.17289 0.63793 0.0
H161 H 0.54199 0.25239 0.63569 0.0
H162 H 0.47235 0.15474 0.75774 0.0
H163 H 0.43792 0.18413 0.75388 0.0
H164 H 0.44338 0.15255 0.70817 0.0
H165 H 0.55393 0.28558 0.70385 0.0
H166 H 0.52482 0.28334 0.75332 0.0
H167 H 0.56136 0.25646 0.7521 0.0
H168 H 0.44901 0.24741 0.87579 0.0
H169 H 0.53723 0.18357 0.87956 0.0
H170 H 0.43034 0.24388 0.75981 0.0
H171 H 0.46117 0.27703 0.756 0.0
H172 H 0.43205 0.27584 0.80553 0.0
H173 H 0.53777 0.16097 0.76189 0.0
H174 H 0.5665 0.167 0.8111 0.0
H175 H 0.56543 0.19687 0.76261 0.0
C176 C 0.76086 0.50644 0.37659 0.0
C177 C 0.7833 0.48226 0.39541 0.0
C178 C 0.75813 0.51144 0.32722 0.0
C179 C 0.77913 0.49257 0.29606 0.0
C180 C 0.80096 0.46731 0.31481 0.0
C181 C 0.80241 0.46214 0.36419 0.0
C182 C 0.73372 0.53781 0.30857 0.0
C183 C 0.8243 0.4471 0.28299 0.0
C184 C 0.76468 0.48912 0.16218 0.0
C185 C 0.78721 0.51412 0.14596 0.0
C186 C 0.76067 0.48274 0.21107 0.0
C187 C 0.78046 0.50107 0.24439 0.0
C188 C 0.80289 0.52665 0.22817 0.0
C189 C 0.80562 0.53319 0.17924 0.0
C190 C 0.73573 0.45602 0.227 0.0
C191 C 0.82501 0.54628 0.26237 0.0
H192 H 0.74585 0.52191 0.40055 0.0
H193 H 0.82003 0.44362 0.3785 0.0
H194 H 0.7481 0.55981 0.29451 0.0
H195 H 0.71854 0.52728 0.27876 0.0
H196 H 0.71615 0.54705 0.33661 0.0
H197 H 0.83848 0.42725 0.30282 0.0
H198 H 0.80967 0.43474 0.25409 0.0
H199 H 0.84287 0.46442 0.26596 0.0
H200 H 0.75021 0.47447 0.13659 0.0
H201 H 0.8233 0.55232 0.16692 0.0
H202 H 0.71866 0.4665 0.25474 0.0
H203 H 0.74955 0.43435 0.2431 0.0
H204 H 0.72003 0.44634 0.1971 0.0
H205 H 0.80909 0.55942 0.28917 0.0
H206 H 0.84096 0.56548 0.24406 0.0
H207 H 0.8419 0.52853 0.28187 0.0
C208 C 0.4897 0.80213 0.85989 0.0
C209 C 0.51644 0.78665 0.88446 0.0
C210 C 0.48701 0.7993 0.81035 0.0
C211 C 0.51089 0.77934 0.78516 0.0
C212 C 0.53689 0.76211 0.81027 0.0
C213 C 0.53985 0.76664 0.85966 0.0
C214 C 0.45969 0.81911 0.7848 0.0
C215 C 0.56195 0.73952 0.78488 0.0
C216 C 0.485 0.75979 0.65787 0.0
C217 C 0.50432 0.78357 0.63277 0.0
C218 C 0.48833 0.75667 0.70744 0.0
C219 C 0.51021 0.77903 0.73232 0.0
C220 C 0.52986 0.80296 0.7068 0.0
C221 C 0.52717 0.80443 0.65716 0.0
C222 C 0.46805 0.72992 0.73324 0.0
C223 C 0.55249 0.82814 0.73203 0.0
H224 H 0.47184 0.81789 0.8792 0.0
H225 H 0.56039 0.75452 0.87893 0.0
H226 H 0.47155 0.83771 0.76028 0.0
H227 H 0.44387 0.80187 0.76291 0.0
H228 H 0.44287 0.83306 0.80976 0.0
H229 H 0.57761 0.72448 0.81012 0.0
H230 H 0.54846 0.72184 0.76065 0.0
H231 H 0.57916 0.75519 0.76275 0.0
H232 H 0.46742 0.74363 0.63869 0.0
H233 H 0.54176 0.82307 0.63752 0.0
H234 H 0.44803 0.74217 0.75497 0.0
H235 H 0.48466 0.71548 0.7579 0.0
H236 H 0.45574 0.71185 0.70828 0.0
H237 H 0.53707 0.84405 0.7564 0.0
H238 H 0.56606 0.8451 0.70686 0.0
H239 H 0.57156 0.81465 0.75403 0.0
C240 C 0.83465 0.46337 0.68687 0.0
C241 C 0.81098 0.47408 0.65282 0.0
C242 C 0.83394 0.47617 0.73335 0.0
C243 C 0.80847 0.49973 0.7463 0.0
C244 C 0.78456 0.51079 0.71197 0.0
C245 C 0.78634 0.49808 0.66535 0.0
C246 C 0.86039 0.46441 0.76861 0.0
C247 C 0.75682 0.5356 0.7247 0.0
C248 C 0.78923 0.50778 0.87831 0.0
C249 C 0.80679 0.53753 0.88995 0.0
C250 C 0.78907 0.49543 0.83141 0.0
C251 C 0.80725 0.51308 0.7957 0.0
C252 C 0.82515 0.54303 0.80742 0.0
C253 C 0.82455 0.55498 0.85434 0.0
C254 C 0.76948 0.46352 0.82006 0.0
C255 C 0.84528 0.56227 0.77051 0.0
H256 H 0.85389 0.44496 0.6771 0.0
H257 H 0.76788 0.50619 0.63909 0.0
H258 H 0.87438 0.48656 0.78307 0.0
H259 H 0.84795 0.45156 0.79905 0.0
H260 H 0.87896 0.44659 0.75249 0.0
H261 H 0.74 0.54137 0.69401 0.0
H262 H 0.74115 0.52513 0.75399 0.0
H263 H 0.76807 0.55968 0.73772 0.0
H264 H 0.77541 0.49429 0.90573 0.0
H265 H 0.83829 0.57796 0.86318 0.0
H266 H 0.78704 0.44363 0.80689 0.0
H267 H 0.75087 0.46862 0.79129 0.0
H268 H 0.75571 0.45347 0.85149 0.0
H269 H 0.86515 0.54556 0.75523 0.0
H270 H 0.85768 0.58523 0.78544 0.0
H271 H 0.82846 0.57015 0.74085 0.0
C272 C 0.5127 0.78711 0.15202 0.0
C273 C 0.53889 0.8093 0.13933 0.0
C274 C 0.50103 0.78563 0.19908 0.0
C275 C 0.51557 0.80728 0.23374 0.0
C276 C 0.54161 0.83015 0.22083 0.0
C277 C 0.55315 0.83069 0.17378 0.0
C278 C 0.47341 0.76071 0.21182 0.0
C279 C 0.55722 0.85409 0.25668 0.0
C280 C 0.46399 0.82561 0.34419 0.0
C281 C 0.47968 0.8045 0.37776 0.0
C282 C 0.47565 0.82699 0.29723 0.0
C283 C 0.50329 0.80633 0.28349 0.0
C284 C 0.5193 0.78499 0.31727 0.0
C285 C 0.50745 0.78456 0.36428 0.0
C286 C 0.45842 0.85057 0.26238 0.0
C287 C 0.54866 0.76239 0.30359 0.0
H288 H 0.50177 0.77048 0.1254 0.0
H289 H 0.57328 0.84805 0.16391 0.0
H290 H 0.48248 0.74335 0.2402 0.0
H291 H 0.45105 0.77445 0.22606 0.0
H292 H 0.46519 0.74527 0.18081 0.0
H293 H 0.57685 0.87072 0.2406 0.0
H294 H 0.53725 0.87034 0.27264 0.0
H295 H 0.56902 0.83943 0.28604 0.0
H296 H 0.44264 0.84126 0.35468 0.0
H297 H 0.5195 0.76816 0.39024 0.0
H298 H 0.44762 0.83576 0.23242 0.0
H299 H 0.47721 0.86845 0.24712 0.0
H300 H 0.4377 0.8655 0.27912 0.0
H301 H 0.54085 0.74498 0.27455 0.0
H302 H 0.55801 0.74698 0.334 0.0
H303 H 0.56994 0.77797 0.28991 0.0
C304 C 0.1697 0.46078 0.85281 0.0
C305 C 0.19352 0.47195 0.88638 0.0
C306 C 0.16958 0.47365 0.80636 0.0
C307 C 0.19434 0.49777 0.7929 0.0
C308 C 0.21847 0.5092 0.82669 0.0
C309 C 0.21752 0.49641 0.87332 0.0
C310 C 0.14292 0.46145 0.77171 0.0
C311 C 0.2455 0.5346 0.8134 0.0
C312 C 0.21205 0.50676 0.66059 0.0
C313 C 0.19383 0.53626 0.64954 0.0
C314 C 0.21282 0.49414 0.70731 0.0
C315 C 0.19463 0.51127 0.74354 0.0
C316 C 0.17596 0.5409 0.73241 0.0
C317 C 0.17592 0.55311 0.6856 0.0
C318 C 0.23315 0.46255 0.71796 0.0
C319 C 0.15583 0.55958 0.76989 0.0
H320 H 0.15092 0.44205 0.86298 0.0
H321 H 0.23605 0.50492 0.89922 0.0
H322 H 0.12819 0.48335 0.75789 0.0
H323 H 0.15522 0.44905 0.74078 0.0
H324 H 0.12501 0.44313 0.78816 0.0
H325 H 0.26267 0.54053 0.84364 0.0
H326 H 0.26092 0.52458 0.78353 0.0
H327 H 0.23356 0.55852 0.801 0.0
H328 H 0.226 0.49373 0.63283 0.0
H329 H 0.16168 0.57589 0.67723 0.0
H330 H 0.21617 0.44235 0.73162 0.0
H331 H 0.25211 0.46795 0.74616 0.0
H332 H 0.24661 0.45275 0.68609 0.0
H333 H 0.13663 0.54237 0.78567 0.0
H334 H 0.14263 0.58224 0.75535 0.0
H335 H 0.17285 0.56787 0.79911 0.0
C336 C 0.50099 0.21135 0.36361 0.0
C337 C 0.52898 0.19148 0.37645 0.0
C338 C 0.48933 0.21189 0.3165 0.0
C339 C 0.50571 0.19155 0.28193 0.0
C340 C 0.53346 0.17078 0.29504 0.0
C341 C 0.54497 0.17124 0.34217 0.0
C342 C 0.45986 0.23461 0.30357 0.0
C343 C 0.55103 0.14819 0.2593 0.0
C344 C 0.45548 0.1714 0.17074 0.0
C345 C 0.46951 0.19421 0.13801 0.0
C346 C 0.46754 0.16976 0.21752 0.0
C347 C 0.49375 0.19199 0.23198 0.0
C348 C 0.50821 0.21491 0.19894 0.0
C349 C 0.49612 0.21548 0.15202 0.0
C350 C 0.45211 0.14442 0.25151 0.0
C351 C 0.53593 0.23926 0.21341 0.0
H352 H 0.48871 0.2271 0.39013 0.0
H353 H 0.56649 0.15565 0.35221 0.0
H354 H 0.46772 0.25286 0.27562 0.0
H355 H 0.4388 0.21924 0.2887 0.0
H356 H 0.45016 0.2491 0.33461 0.0
H357 H 0.57154 0.13277 0.27568 0.0
H358 H 0.53238 0.1308 0.24254 0.0
H359 H 0.56217 0.16383 0.23048 0.0
H360 H 0.43511 0.15467 0.15972 0.0
H361 H 0.50688 0.23316 0.12665 0.0
H362 H 0.43973 0.15795 0.28143 0.0
H363 H 0.47224 0.12808 0.26696 0.0
H364 H 0.43297 0.12794 0.23398 0.0
H365 H 0.52674 0.25594 0.2425 0.0
H366 H 0.54447 0.25544 0.18337 0.0
H367 H 0.55809 0.22502 0.22734 0.0
C368 C 0.9325 0.53719 0.02894 0.0
C369 C 0.91211 0.51766 -0.00144 0.0
C370 C 0.96789 0.53274 0.03002 0.0
C371 C 0.98325 0.50867 -0.00063 0.0
C372 C 0.96284 0.48951 0.96783 0.0
C373 C 0.92755 0.49404 0.96809 0.0
C374 C 0.9888 0.55337 0.06451 0.0
C375 C 0.97827 0.46413 0.93387 0.0
C376 C 0.07691 0.51826 0.97082 0.0
C377 C 0.09163 0.49307 -0.0005 0.0
C378 C 0.04171 0.52356 0.9704 0.0
C379 C 0.02069 0.50355 -4e-05 0.0
C380 C 0.03536 0.47816 0.02918 0.0
C381 C 0.07065 0.47299 0.02826 0.0
C382 C 0.02702 0.55039 0.938 0.0
C383 C 0.01378 0.4566 0.0616 0.0
H384 H 0.92071 0.5553 0.05279 0.0
H385 H 0.91198 0.47907 0.94419 0.0
H386 H 0.00281 0.53618 0.08886 0.0
H387 H 0.00796 0.5685 0.04493 0.0
H388 H 0.973 0.5709 0.08613 0.0
H389 H 0.95895 0.45197 0.91066 0.0
H390 H 0.99737 0.4768 0.911 0.0
H391 H 0.99166 0.444 0.9541 0.0
H392 H 0.09292 0.5337 0.94818 0.0
H393 H 0.08187 0.45366 0.05075 0.0
H394 H 0.01295 0.5695 0.95921 0.0
H395 H 0.00863 0.53867 0.91302 0.0
H396 H 0.04684 0.56365 0.91699 0.0
H397 H 0.99904 0.47307 0.08605 0.0
H398 H 0.02917 0.43865 0.08314 0.0
H399 H 0.99526 0.44182 0.0403 0.0
C400 C 0.5272 0.9229 0.47187 0.0
C401 C 0.49882 0.90715 0.49262 0.0
C402 C 0.53133 0.95819 0.47301 0.0
C403 C 0.50657 0.97854 0.49554 0.0
C404 C 0.47795 0.96298 0.51689 0.0
C405 C 0.47434 0.92744 0.51504 0.0
C406 C 0.56202 0.97375 0.44935 0.0
C407 C 0.45107 0.98391 0.54139 0.0
C408 C 0.53218 0.0691 0.52704 0.0
C409 C 0.51723 0.08742 0.4898 0.0
C410 C 0.52839 0.03363 0.52999 0.0
C411 C 0.50988 0.01619 0.49428 0.0
C412 C 0.49551 0.03459 0.45603 0.0
C413 C 0.4991 0.06995 0.45452 0.0
C414 C 0.54375 0.01489 0.57157 0.0
C415 C 0.47633 0.01693 0.4166 0.0
H416 H 0.54632 0.90764 0.45429 0.0
H417 H 0.45245 0.91559 0.53139 0.0
H418 H 0.5538 0.99082 0.42014 0.0
H419 H 0.57634 0.98942 0.47526 0.0
H420 H 0.57942 0.9543 0.4344 0.0
H421 H 0.4312 0.96792 0.55816 0.0
H422 H 0.46283 1.00009 0.56918 0.0
H423 H 0.43875 1.0011 0.51532 0.0
H424 H 0.54585 0.08259 0.55465 0.0
H425 H 0.48766 0.08404 0.42551 0.0
H426 H 0.56236 0.99588 0.55866 0.0
H427 H 0.52368 1.00084 0.59097 0.0
H428 H 0.55674 0.03222 0.59687 0.0
H429 H 0.49299 0.99802 0.39898 0.0
H430 H 0.46688 0.03495 0.38924 0.0
H431 H 0.45438 0.00293 0.43151 0.0
C432 C 0.0716 0.53214 0.49919 0.0
C433 C 0.09109 0.5168 0.53493 0.0
C434 C 0.03632 0.52716 0.49706 0.0
C435 C 0.02016 0.50716 0.53228 0.0
C436 C 0.03972 0.49224 0.56899 0.0
C437 C 0.07499 0.49688 0.5695 0.0
C438 C 0.01638 0.54295 0.45689 0.0
C439 C 0.02338 0.47154 0.60793 0.0
C440 C 0.92637 0.52116 0.55541 0.0
C441 C 0.91162 0.4928 0.53326 0.0
C442 C 0.96157 0.52618 0.55509 0.0
C443 C 0.98268 0.50249 0.5316 0.0
C444 C 0.96805 0.47395 0.5088 0.0
C445 C 0.93268 0.4693 0.51018 0.0
C446 C 0.9762 0.55666 0.58047 0.0
C447 C 0.98976 0.44833 0.48297 0.0
H448 H 0.08407 0.54725 0.47216 0.0
H449 H 0.09002 0.48519 0.59737 0.0
H450 H 0.00247 0.52296 0.43706 0.0
H451 H 0.99718 0.56077 0.47133 0.0
H452 H 0.03286 0.55696 0.43159 0.0
H453 H 0.04214 0.46216 0.63436 0.0
H454 H 0.00413 0.48708 0.62678 0.0
H455 H 0.00999 0.44942 0.59236 0.0
H456 H 0.9104 0.53939 0.57364 0.0
H457 H 0.92154 0.44744 0.49276 0.0
H458 H 0.99095 0.57242 0.5552 0.0
H459 H 0.99395 0.54819 0.60874 0.0
H460 H 0.95627 0.57277 0.59693 0.0
H461 H 0.0053 0.46125 0.45552 0.0
H462 H 0.9744 0.42823 0.46552 0.0
H463 H 0.00757 0.43611 0.5083 0.0
C464 C 0.53439 0.93349 -0.00071 0.0
C465 C 0.51337 0.91218 0.02623 0.0
C466 C 0.52863 0.96872 -0.00234 0.0
C467 C 0.5015 0.98299 0.02402 0.0
C468 C 0.48035 0.96163 0.05141 0.0
C469 C 0.48645 0.92658 0.05204 0.0
C470 C 0.55163 0.99073 0.96785 0.0
C471 C 0.45149 0.97584 0.08062 0.0
C472 C 0.50808 0.07544 0.06051 0.0
C473 C 0.48615 0.09142 0.02811 0.0
C474 C 0.51313 0.04025 0.05961 0.0
C475 C 0.49616 0.02042 0.02506 0.0
C476 C 0.47368 0.03626 0.9925 0.0
C477 C 0.4687 0.07162 0.99467 0.0
C478 C 0.53675 0.02432 0.0956 0.0
C479 C 0.45532 0.01593 0.95497 0.0
H480 H 0.55508 0.92261 0.97901 0.0
H481 H 0.47013 0.91044 0.07324 0.0
H482 H 0.53637 0.00571 0.94215 0.0
H483 H 0.56523 0.00905 0.99097 0.0
H484 H 0.57067 0.97561 0.94785 0.0
H485 H 0.43694 0.9557 0.09924 0.0
H486 H 0.46153 0.9938 0.10757 0.0
H487 H 0.43382 0.99028 0.05749 0.0
H488 H 0.52144 0.09056 0.08674 0.0
H489 H 0.45196 0.08386 0.96931 0.0
H490 H 0.55789 0.01125 0.07709 0.0
H491 H 0.52299 0.00486 0.11658 0.0
H492 H 0.54764 0.04328 0.12055 0.0
H493 H 0.47398 0.00259 0.9321 0.0
H494 H 0.43892 0.03206 0.93209 0.0
H495 H 0.43933 0.99623 0.972 0.0
C496 C 0.21941 0.33038 0.98485 0.0
C497 C 0.22209 0.35042 0.0258 0.0
C498 C 0.2411 0.30253 0.97771 0.0
C499 C 0.26587 0.2947 0.01254 0.0
C500 C 0.26623 0.31296 0.05604 0.0
C501 C 0.24462 0.34101 0.06184 0.0
C502 C 0.23989 0.28399 0.93078 0.0
C503 C 0.29175 0.30505 0.09454 0.0
C504 C 0.32519 0.21838 0.00484 0.0
C505 C 0.35515 0.23408 0.98958 0.0
C506 C 0.29517 0.23736 0.01065 0.0
C507 C 0.29527 0.27256 0.0002 0.0
C508 C 0.32492 0.28772 0.98128 0.0
C509 C 0.35454 0.26838 0.97674 0.0
C510 C 0.2642 0.22031 0.0311 0.0
C511 C 0.32605 0.32496 0.96849 0.0
H512 H 0.20238 0.33823 0.95658 0.0
H513 H 0.247 0.35696 0.09311 0.0
H514 H 0.26088 0.2931 0.90782 0.0
H515 H 0.2434 0.2563 0.93591 0.0
H516 H 0.21555 0.28842 0.91181 0.0
H517 H 0.28505 0.31742 0.12879 0.0
H518 H 0.29366 0.27726 0.10026 0.0
H519 H 0.31714 0.31427 0.08346 0.0
H520 H 0.32582 0.19193 0.01543 0.0
H521 H 0.37776 0.28047 0.96491 0.0
H522 H 0.24096 0.22822 0.01178 0.0
H523 H 0.26114 0.22813 0.06878 0.0
H524 H 0.26627 0.1922 0.02981 0.0
H525 H 0.30433 0.33166 0.94519 0.0
H526 H 0.34994 0.33197 0.95002 0.0
H527 H 0.32395 0.34049 0.00128 0.0
C528 C 0.77241 0.33237 0.47972 0.0
C529 C 0.77932 0.35021 0.5216 0.0
C530 C 0.75 0.30454 0.48023 0.0
C531 C 0.73447 0.29465 0.52363 0.0
C532 C 0.74448 0.31048 0.56658 0.0
C533 C 0.76652 0.3383 0.56492 0.0
C534 C 0.74021 0.28818 0.43371 0.0
C535 C 0.72894 0.30071 0.61369 0.0
C536 C 0.64125 0.27216 0.5178 0.0
C537 C 0.64152 0.23679 0.52315 0.0
C538 C 0.67133 0.29093 0.51762 0.0
C539 C 0.7028 0.27402 0.52302 0.0
C540 C 0.70339 0.23832 0.5294 0.0
C541 C 0.67262 0.22004 0.52943 0.0
C542 C 0.66932 0.329 0.51134 0.0
C543 C 0.73645 0.2195 0.53538 0.0
H544 H 0.78215 0.34185 0.44621 0.0
H545 H 0.77198 0.35226 0.59731 0.0
H546 H 0.73785 0.26028 0.43776 0.0
H547 H 0.71514 0.29808 0.42223 0.0
H548 H 0.75896 0.29373 0.40528 0.0
H549 H 0.74395 0.31058 0.64417 0.0
H550 H 0.70294 0.31141 0.616 0.0
H551 H 0.72685 0.27275 0.61703 0.0
H552 H 0.61733 0.28534 0.51313 0.0
H553 H 0.67299 0.19267 0.53318 0.0
H554 H 0.6841 0.33683 0.47963 0.0
H555 H 0.68058 0.34191 0.54267 0.0
H556 H 0.64283 0.33812 0.50698 0.0
H557 H 0.75198 0.22232 0.50274 0.0
H558 H 0.73253 0.19203 0.54231 0.0
H559 H 0.75126 0.23052 0.56518 0.0
C560 C 0.74258 0.65549 0.05957 0.0
C561 C 0.77481 0.65251 0.0393 0.0
C562 C 0.72314 0.68492 0.05318 0.0
C563 C 0.73583 0.71155 0.02437 0.0
C564 C 0.76936 0.70958 0.00643 0.0
C565 C 0.78867 0.68006 0.01456 0.0
C566 C 0.68792 0.68628 0.07422 0.0
C567 C 0.78373 0.73715 0.97519 0.0
C568 C 0.66135 0.75302 0.96314 0.0
C569 C 0.65541 0.78084 0.9928 0.0
C570 C 0.68984 0.73222 0.96992 0.0
C571 C 0.71213 0.73879 0.00846 0.0
C572 C 0.70761 0.7685 0.03613 0.0
C573 C 0.67928 0.78938 0.02771 0.0
C574 C 0.69416 0.70135 0.93868 0.0
C575 C 0.73048 0.77633 0.07776 0.0
H576 H 0.73187 0.63401 0.07845 0.0
H577 H 0.81341 0.67743 -0.00186 0.0
H578 H 0.68345 0.71114 0.09169 0.0
H579 H 0.66882 0.68349 0.04546 0.0
H580 H 0.68369 0.66581 0.10073 0.0
H581 H 0.81173 0.73504 0.97176 0.0
H582 H 0.77239 0.73508 0.93915 0.0
H583 H 0.77732 0.76265 0.98926 0.0
H584 H 0.64251 0.74623 0.93663 0.0
H585 H 0.67415 0.81053 0.05132 0.0
H586 H 0.68663 0.67831 0.95877 0.0
H587 H 0.72109 0.69825 0.92812 0.0
H588 H 0.67831 0.70288 0.90604 0.0
H589 H 0.72354 0.75971 0.10809 0.0
H590 H 0.72797 0.80317 0.08939 0.0
H591 H 0.7574 0.7712 0.06891 0.0
C592 C 0.3356 0.78215 0.52065 0.0
C593 C 0.36623 0.76466 0.52725 0.0
C594 C 0.30462 0.7644 0.51764 0.0
C595 C 0.30451 0.72854 0.52188 0.0
C596 C 0.33528 0.71117 0.53118 0.0
C597 C 0.36567 0.72941 0.53345 0.0
C598 C 0.27239 0.78377 0.50762 0.0
C599 C 0.33638 0.67304 0.53696 0.0
C600 C 0.23075 0.67147 0.55146 0.0
C601 C 0.2263 0.65444 0.50821 0.0
C602 C 0.25374 0.69849 0.55546 0.0
C603 C 0.27289 0.70835 0.51522 0.0
C604 C 0.26595 0.69329 0.47039 0.0
C605 C 0.24284 0.66617 0.46749 0.0
C606 C 0.26019 0.71375 0.60387 0.0
C607 C 0.28546 0.70335 0.42648 0.0
H608 H 0.33605 0.80939 0.51529 0.0
H609 H 0.38933 0.71587 0.53879 0.0
H610 H 0.26389 0.77838 0.47075 0.0
H611 H 0.2518 0.7755 0.53186 0.0
H612 H 0.27594 0.81161 0.51144 0.0
H613 H 0.36212 0.66369 0.5464 0.0
H614 H 0.31844 0.66492 0.56511 0.0
H615 H 0.32841 0.66063 0.50333 0.0
H616 H 0.21821 0.66191 0.58306 0.0
H617 H 0.23972 0.65254 0.43426 0.0
H618 H 0.26356 0.74164 0.60138 0.0
H619 H 0.28393 0.70295 0.61879 0.0
H620 H 0.23917 0.70826 0.62902 0.0
H621 H 0.28796 0.73135 0.42424 0.0
H622 H 0.27311 0.69392 0.39349 0.0
H623 H 0.31143 0.69252 0.42837 0.0
loop_
_geom_bond_atom_site_label_1
_geom_bond_atom_site_label_2
_geom_bond_distance
_geom_bond_site_symmetry_2
_ccdc_geom_bond_type
Co0 O1 2.216 . S
Co0 O2 2.091 . S
Co0 O4 2.004 . S
Co0 O10 2.021 . S
Co0 O12 2.137 1_554 S
Co0 O13 2.244 1_554 S
O1 Co0 2.216 . S
O1 C8 1.247 . S
O2 Co0 2.091 . S
O2 C8 1.261 . S
C3 O12 1.247 . S
C3 O13 1.272 . S
O4 Co0 2.004 . S
O4 C9 1.259 . S
Co5 O6 2.061 . S
Co5 O11 2.052 . S
Co5 O13 2.135 1_554 S
O6 Co5 2.061 . S
O6 C9 1.235 . S
C7 O10 1.238 . S
C7 O11 1.241 . S
C8 O1 1.247 . S
C8 O2 1.261 . S
C9 O4 1.259 . S
C9 O6 1.235 . S
O10 Co0 2.021 . S
O10 C7 1.238 . S
O11 Co5 2.052 . S
O11 C7 1.241 . S
O12 Co0 2.137 1_556 S
O12 C3 1.247 . S
O13 Co0 2.244 1_556 S
O13 C3 1.272 . S
O13 Co5 2.135 1_556 S
Co14 O15 2.216 . S
Co14 O16 2.091 . S
Co14 O18 2.004 . S
Co14 O24 2.021 . S
Co14 O26 2.137 . S
Co14 O27 2.244 . S
O15 Co14 2.216 . S
O15 C22 1.247 . S
O16 Co14 2.091 . S
O16 C22 1.261 . S
C17 O26 1.247 . S
C17 O27 1.272 . S
O18 Co14 2.004 . S
O18 C23 1.259 . S
Co19 O20 2.061 . S
Co19 O25 2.052 . S
Co19 O27 2.135 . S
O20 Co19 2.061 . S
O20 C23 1.235 . S
C21 O24 1.238 . S
C21 O25 1.241 . S
C22 O15 1.247 . S
C22 O16 1.261 . S
C23 O18 1.259 . S
C23 O20 1.235 . S
O24 Co14 2.021 . S
O24 C21 1.238 . S
O25 Co19 2.052 . S
O25 C21 1.241 . S
O26 Co14 2.137 . S
O26 C17 1.247 . S
O27 Co14 2.244 . S
O27 C17 1.272 . S
O27 Co19 2.135 . S
Co28 O29 2.216 . S
Co28 O30 2.091 . S
Co28 O32 2.004 . S
Co28 O38 2.021 . S
Co28 O40 2.137 1_554 S
Co28 O41 2.244 1_554 S
O29 Co28 2.216 . S
O29 C36 1.247 . S
O30 Co28 2.091 . S
O30 C36 1.261 . S
C31 O40 1.247 . S
C31 O41 1.272 . S
O32 Co28 2.004 . S
O32 C37 1.259 . S
Co33 O34 2.061 . S
Co33 O39 2.052 . S
Co33 O41 2.135 1_554 S
O34 Co33 2.061 . S
O34 C37 1.235 . S
C35 O38 1.238 . S
C35 O39 1.241 . S
C36 O29 1.247 . S
C36 O30 1.261 . S
C37 O32 1.259 . S
C37 O34 1.235 . S
O38 Co28 2.021 . S
O38 C35 1.238 . S
O39 Co33 2.052 . S
O39 C35 1.241 . S
O40 Co28 2.137 1_556 S
O40 C31 1.247 . S
O41 Co28 2.244 1_556 S
O41 C31 1.272 . S
O41 Co33 2.135 1_556 S
Co42 O43 2.216 . S
Co42 O44 2.091 . S
Co42 O46 2.004 . S
Co42 O52 2.021 . S
Co42 O54 2.137 . S
Co42 O55 2.244 . S
O43 Co42 2.216 . S
O43 C50 1.247 . S
O44 Co42 2.091 . S
O44 C50 1.261 . S
C45 O54 1.247 . S
C45 O55 1.272 . S
O46 Co42 2.004 . S
O46 C51 1.259 . S
Co47 O48 2.061 . S
Co47 O53 2.052 . S
Co47 O55 2.135 . S
O48 Co47 2.061 . S
O48 C51 1.235 . S
C49 O52 1.238 . S
C49 O53 1.241 . S
C50 O43 1.247 . S
C50 O44 1.261 . S
C51 O46 1.259 . S
C51 O48 1.235 . S
O52 Co42 2.021 . S
O52 C49 1.238 . S
O53 Co47 2.052 . S
O53 C49 1.241 . S
O54 Co42 2.137 . S
O54 C45 1.247 . S
O55 Co42 2.244 . S
O55 C45 1.272 . S
O55 Co47 2.135 . S
Co56 O57 2.216 . S
Co56 O58 2.091 . S
Co56 O60 2.004 . S
Co56 O66 2.021 . S
Co56 O68 2.137 . S
Co56 O69 2.244 . S
O57 Co56 2.216 . S
O57 C64 1.247 . S
O58 Co56 2.091 . S
O58 C64 1.261 . S
C59 O68 1.247 . S
C59 O69 1.272 . S
O60 Co56 2.004 . S
O60 C65 1.259 . S
Co61 O62 2.061 . S
Co61 O67 2.052 . S
Co61 O69 2.135 . S
O62 Co61 2.061 . S
O62 C65 1.235 . S
C63 O66 1.238 . S
C63 O67 1.241 . S
C64 O57 1.247 . S
C64 O58 1.261 . S
C65 O60 1.259 . S
C65 O62 1.235 . S
O66 Co56 2.021 . S
O66 C63 1.238 . S
O67 Co61 2.052 . S
O67 C63 1.241 . S
O68 Co56 2.137 . S
O68 C59 1.247 . S
O69 Co56 2.244 . S
O69 C59 1.272 . S
O69 Co61 2.135 . S
Co70 O71 2.216 . S
Co70 O72 2.091 . S
Co70 O74 2.004 . S
Co70 O80 2.021 1_554 S
Co70 O82 2.137 . S
Co70 O83 2.244 . S
O71 Co70 2.216 . S
O71 C78 1.247 . S
O72 Co70 2.091 . S
O72 C78 1.261 . S
C73 O82 1.247 . S
C73 O83 1.272 . S
O74 Co70 2.004 . S
O74 C79 1.259 . S
Co75 O76 2.061 . S
Co75 O81 2.052 1_554 S
Co75 O83 2.135 . S
O76 Co75 2.061 . S
O76 C79 1.235 . S
C77 O80 1.238 . S
C77 O81 1.241 . S
C78 O71 1.247 . S
C78 O72 1.261 . S
C79 O74 1.259 . S
C79 O76 1.235 . S
O80 Co70 2.021 1_556 S
O80 C77 1.238 . S
O81 Co75 2.052 1_556 S
O81 C77 1.241 . S
O82 Co70 2.137 . S
O82 C73 1.247 . S
O83 Co70 2.244 . S
O83 C73 1.272 . S
O83 Co75 2.135 . S
Co84 O85 2.216 . S
Co84 O86 2.091 . S
Co84 O88 2.004 . S
Co84 O94 2.021 . S
Co84 O96 2.137 . S
Co84 O97 2.244 . S
O85 Co84 2.216 . S
O85 C92 1.247 . S
O86 Co84 2.091 . S
O86 C92 1.261 . S
C87 O96 1.247 . S
C87 O97 1.272 . S
O88 Co84 2.004 . S
O88 C93 1.259 . S
Co89 O90 2.061 . S
Co89 O95 2.052 . S
Co89 O97 2.135 . S
O90 Co89 2.061 . S
O90 C93 1.235 . S
C91 O94 1.238 . S
C91 O95 1.241 . S
C92 O85 1.247 . S
C92 O86 1.261 . S
C93 O88 1.259 . S
C93 O90 1.235 . S
O94 Co84 2.021 . S
O94 C91 1.238 . S
O95 Co89 2.052 . S
O95 C91 1.241 . S
O96 Co84 2.137 . S
O96 C87 1.247 . S
O97 Co84 2.244 . S
O97 C87 1.272 . S
O97 Co89 2.135 . S
Co98 O99 2.216 . S
Co98 O100 2.091 . S
Co98 O102 2.004 . S
Co98 O108 2.021 1_554 S
Co98 O110 2.137 . S
Co98 O111 2.244 . S
O99 Co98 2.216 . S
O99 C106 1.247 . S
O100 Co98 2.091 . S
O100 C106 1.261 . S
C101 O110 1.247 . S
C101 O111 1.272 . S
O102 Co98 2.004 . S
O102 C107 1.259 . S
Co103 O104 2.061 . S
Co103 O109 2.052 1_554 S
Co103 O111 2.135 . S
O104 Co103 2.061 . S
O104 C107 1.235 . S
C105 O108 1.238 . S
C105 O109 1.241 . S
C106 O99 1.247 . S
C106 O100 1.261 . S
C107 O102 1.259 . S
C107 O104 1.235 . S
O108 Co98 2.021 1_556 S
O108 C105 1.238 . S
O109 Co103 2.052 1_556 S
O109 C105 1.241 . S
O110 Co98 2.137 . S
O110 C101 1.247 . S
O111 Co98 2.244 . S
O111 C101 1.272 . S
O111 Co103 2.135 . S
C112 C113 1.391 . S
C112 C114 1.394 . S
C112 H128 0.931 . S
C113 C112 1.391 . S
C113 C117 1.376 . S
C114 C112 1.394 . S
C114 C115 1.369 . S
C114 C118 1.531 . S
C115 C114 1.369 . S
C115 C116 1.410 . S
C115 C123 1.503 . S
C116 C115 1.410 . S
C116 C117 1.392 . S
C116 C119 1.511 . S
C117 C113 1.376 . S
C117 C116 1.392 . S
C117 H129 0.929 . S
C118 C114 1.531 . S
C118 H130 0.960 . S
C118 H131 0.962 . S
C118 H132 0.960 . S
C119 C116 1.511 . S
C119 H133 0.961 . S
C119 H134 0.961 . S
C119 H135 0.961 . S
C120 C121 1.370 . S
C120 C122 1.363 . S
C120 H136 0.931 . S
C121 C120 1.370 . S
C121 C125 1.408 . S
C122 C120 1.363 . S
C122 C123 1.370 . S
C122 C126 1.524 . S
C123 C115 1.503 . S
C123 C122 1.370 . S
C123 C124 1.403 . S
C124 C123 1.403 . S
C124 C125 1.404 . S
C124 C127 1.539 . S
C125 C121 1.408 . S
C125 C124 1.404 . S
C125 H137 0.930 . S
C126 C122 1.524 . S
C126 H138 0.956 . S
C126 H139 0.961 . S
C126 H140 0.961 . S
C127 C124 1.539 . S
C127 H141 0.958 . S
C127 H142 0.961 . S
C127 H143 0.960 . S
H128 C112 0.931 . S
H129 C117 0.929 . S
H130 C118 0.960 . S
H131 C118 0.962 . S
H132 C118 0.960 . S
H133 C119 0.961 . S
H134 C119 0.961 . S
H135 C119 0.961 . S
H136 C120 0.931 . S
H137 C125 0.930 . S
H138 C126 0.956 . S
H139 C126 0.961 . S
H140 C126 0.961 . S
H141 C127 0.958 . S
H142 C127 0.961 . S
H143 C127 0.960 . S
C144 C145 1.391 . S
C144 C146 1.394 . S
C144 H160 0.931 . S
C145 C144 1.391 . S
C145 C149 1.376 . S
C146 C144 1.394 . S
C146 C147 1.369 . S
C146 C150 1.531 . S
C147 C146 1.369 . S
C147 C148 1.410 . S
C147 C155 1.503 . S
C148 C147 1.410 . S
C148 C149 1.392 . S
C148 C151 1.511 . S
C149 C145 1.376 . S
C149 C148 1.392 . S
C149 H161 0.929 . S
C150 C146 1.531 . S
C150 H162 0.960 . S
C150 H163 0.962 . S
C150 H164 0.960 . S
C151 C148 1.511 . S
C151 H165 0.961 . S
C151 H166 0.961 . S
C151 H167 0.961 . S
C152 C153 1.370 . S
C152 C154 1.363 . S
C152 H168 0.931 . S
C153 C152 1.370 . S
C153 C157 1.408 . S
C154 C152 1.363 . S
C154 C155 1.370 . S
C154 C158 1.524 . S
C155 C147 1.503 . S
C155 C154 1.370 . S
C155 C156 1.403 . S
C156 C155 1.403 . S
C156 C157 1.404 . S
C156 C159 1.539 . S
C157 C153 1.408 . S
C157 C156 1.404 . S
C157 H169 0.930 . S
C158 C154 1.524 . S
C158 H170 0.956 . S
C158 H171 0.961 . S
C158 H172 0.961 . S
C159 C156 1.539 . S
C159 H173 0.958 . S
C159 H174 0.961 . S
C159 H175 0.960 . S
H160 C144 0.931 . S
H161 C149 0.929 . S
H162 C150 0.960 . S
H163 C150 0.962 . S
H164 C150 0.960 . S
H165 C151 0.961 . S
H166 C151 0.961 . S
H167 C151 0.961 . S
H168 C152 0.931 . S
H169 C157 0.930 . S
H170 C158 0.956 . S
H171 C158 0.961 . S
H172 C158 0.961 . S
H173 C159 0.958 . S
H174 C159 0.961 . S
H175 C159 0.960 . S
C176 C177 1.391 . S
C176 C178 1.394 . S
C176 H192 0.931 . S
C177 C176 1.391 . S
C177 C181 1.376 . S
C178 C176 1.394 . S
C178 C179 1.369 . S
C178 C182 1.531 . S
C179 C178 1.369 . S
C179 C180 1.410 . S
C179 C187 1.503 . S
C180 C179 1.410 . S
C180 C181 1.392 . S
C180 C183 1.511 . S
C181 C177 1.376 . S
C181 C180 1.392 . S
C181 H193 0.929 . S
C182 C178 1.531 . S
C182 H194 0.960 . S
C182 H195 0.962 . S
C182 H196 0.960 . S
C183 C180 1.511 . S
C183 H197 0.961 . S
C183 H198 0.961 . S
C183 H199 0.961 . S
C184 C185 1.370 . S
C184 C186 1.363 . S
C184 H200 0.931 . S
C185 C184 1.370 . S
C185 C189 1.408 . S
C186 C184 1.363 . S
C186 C187 1.370 . S
C186 C190 1.524 . S
C187 C179 1.503 . S
C187 C186 1.370 . S
C187 C188 1.403 . S
C188 C187 1.403 . S
C188 C189 1.404 . S
C188 C191 1.539 . S
C189 C185 1.408 . S
C189 C188 1.404 . S
C189 H201 0.930 . S
C190 C186 1.524 . S
C190 H202 0.956 . S
C190 H203 0.961 . S
C190 H204 0.961 . S
C191 C188 1.539 . S
C191 H205 0.958 . S
C191 H206 0.961 . S
C191 H207 0.960 . S
H192 C176 0.931 . S
H193 C181 0.929 . S
H194 C182 0.960 . S
H195 C182 0.962 . S
H196 C182 0.960 . S
H197 C183 0.961 . S
H198 C183 0.961 . S
H199 C183 0.961 . S
H200 C184 0.931 . S
H201 C189 0.930 . S
H202 C190 0.956 . S
H203 C190 0.961 . S
H204 C190 0.961 . S
H205 C191 0.958 . S
H206 C191 0.961 . S
H207 C191 0.960 . S
C208 C209 1.391 . S
C208 C210 1.394 . S
C208 H224 0.931 . S
C209 C208 1.391 . S
C209 C213 1.376 . S
C210 C208 1.394 . S
C210 C211 1.369 . S
C210 C214 1.531 . S
C211 C210 1.369 . S
C211 C212 1.410 . S
C211 C219 1.503 . S
C212 C211 1.410 . S
C212 C213 1.392 . S
C212 C215 1.511 . S
C213 C209 1.376 . S
C213 C212 1.392 . S
C213 H225 0.929 . S
C214 C210 1.531 . S
C214 H226 0.960 . S
C214 H227 0.962 . S
C214 H228 0.960 . S
C215 C212 1.511 . S
C215 H229 0.961 . S
C215 H230 0.961 . S
C215 H231 0.961 . S
C216 C217 1.370 . S
C216 C218 1.363 . S
C216 H232 0.931 . S
C217 C216 1.370 . S
C217 C221 1.408 . S
C218 C216 1.363 . S
C218 C219 1.370 . S
C218 C222 1.524 . S
C219 C211 1.503 . S
C219 C218 1.370 . S
C219 C220 1.403 . S
C220 C219 1.403 . S
C220 C221 1.404 . S
C220 C223 1.539 . S
C221 C217 1.408 . S
C221 C220 1.404 . S
C221 H233 0.930 . S
C222 C218 1.524 . S
C222 H234 0.956 . S
C222 H235 0.961 . S
C222 H236 0.961 . S
C223 C220 1.539 . S
C223 H237 0.958 . S
C223 H238 0.961 . S
C223 H239 0.960 . S
H224 C208 0.931 . S
H225 C213 0.929 . S
H226 C214 0.960 . S
H227 C214 0.962 . S
H228 C214 0.960 . S
H229 C215 0.961 . S
H230 C215 0.961 . S
H231 C215 0.961 . S
H232 C216 0.931 . S
H233 C221 0.930 . S
H234 C222 0.956 . S
H235 C222 0.961 . S
H236 C222 0.961 . S
H237 C223 0.958 . S
H238 C223 0.961 . S
H239 C223 0.960 . S
C240 C241 1.391 . S
C240 C242 1.394 . S
C240 H256 0.931 . S
C241 C240 1.391 . S
C241 C245 1.376 . S
C242 C240 1.394 . S
C242 C243 1.369 . S
C242 C246 1.531 . S
C243 C242 1.369 . S
C243 C244 1.410 . S
C243 C251 1.503 . S
C244 C243 1.410 . S
C244 C245 1.392 . S
C244 C247 1.511 . S
C245 C241 1.376 . S
C245 C244 1.392 . S
C245 H257 0.929 . S
C246 C242 1.531 . S
C246 H258 0.960 . S
C246 H259 0.962 . S
C246 H260 0.960 . S
C247 C244 1.511 . S
C247 H261 0.961 . S
C247 H262 0.961 . S
C247 H263 0.961 . S
C248 C249 1.370 . S
C248 C250 1.363 . S
C248 H264 0.931 . S
C249 C248 1.370 . S
C249 C253 1.408 . S
C250 C248 1.363 . S
C250 C251 1.370 . S
C250 C254 1.524 . S
C251 C243 1.503 . S
C251 C250 1.370 . S
C251 C252 1.403 . S
C252 C251 1.403 . S
C252 C253 1.404 . S
C252 C255 1.539 . S
C253 C249 1.408 . S
C253 C252 1.404 . S
C253 H265 0.930 . S
C254 C250 1.524 . S
C254 H266 0.956 . S
C254 H267 0.961 . S
C254 H268 0.961 . S
C255 C252 1.539 . S
C255 H269 0.958 . S
C255 H270 0.961 . S
C255 H271 0.960 . S
H256 C240 0.931 . S
H257 C245 0.929 . S
H258 C246 0.960 . S
H259 C246 0.962 . S
H260 C246 0.960 . S
H261 C247 0.961 . S
H262 C247 0.961 . S
H263 C247 0.961 . S
H264 C248 0.931 . S
H265 C253 0.930 . S
H266 C254 0.956 . S
H267 C254 0.961 . S
H268 C254 0.961 . S
H269 C255 0.958 . S
H270 C255 0.961 . S
H271 C255 0.960 . S
C272 C273 1.391 . S
C272 C274 1.394 . S
C272 H288 0.931 . S
C273 C272 1.391 . S
C273 C277 1.376 . S
C274 C272 1.394 . S
C274 C275 1.369 . S
C274 C278 1.531 . S
C275 C274 1.369 . S
C275 C276 1.410 . S
C275 C283 1.503 . S
C276 C275 1.410 . S
C276 C277 1.392 . S
C276 C279 1.511 . S
C277 C273 1.376 . S
C277 C276 1.392 . S
C277 H289 0.929 . S
C278 C274 1.531 . S
C278 H290 0.960 . S
C278 H291 0.962 . S
C278 H292 0.960 . S
C279 C276 1.511 . S
C279 H293 0.961 . S
C279 H294 0.961 . S
C279 H295 0.961 . S
C280 C281 1.370 . S
C280 C282 1.363 . S
C280 H296 0.931 . S
C281 C280 1.370 . S
C281 C285 1.408 . S
C282 C280 1.363 . S
C282 C283 1.370 . S
C282 C286 1.524 . S
C283 C275 1.503 . S
C283 C282 1.370 . S
C283 C284 1.403 . S
C284 C283 1.403 . S
C284 C285 1.404 . S
C284 C287 1.539 . S
C285 C281 1.408 . S
C285 C284 1.404 . S
C285 H297 0.930 . S
C286 C282 1.524 . S
C286 H298 0.956 . S
C286 H299 0.961 . S
C286 H300 0.961 . S
C287 C284 1.539 . S
C287 H301 0.958 . S
C287 H302 0.961 . S
C287 H303 0.960 . S
H288 C272 0.931 . S
H289 C277 0.929 . S
H290 C278 0.960 . S
H291 C278 0.962 . S
H292 C278 0.960 . S
H293 C279 0.961 . S
H294 C279 0.961 . S
H295 C279 0.961 . S
H296 C280 0.931 . S
H297 C285 0.930 . S
H298 C286 0.956 . S
H299 C286 0.961 . S
H300 C286 0.961 . S
H301 C287 0.958 . S
H302 C287 0.961 . S
H303 C287 0.960 . S
C304 C305 1.391 . S
C304 C306 1.394 . S
C304 H320 0.931 . S
C305 C304 1.391 . S
C305 C309 1.376 . S
C306 C304 1.394 . S
C306 C307 1.369 . S
C306 C310 1.531 . S
C307 C306 1.369 . S
C307 C308 1.410 . S
C307 C315 1.503 . S
C308 C307 1.410 . S
C308 C309 1.392 . S
C308 C311 1.511 . S
C309 C305 1.376 . S
C309 C308 1.392 . S
C309 H321 0.929 . S
C310 C306 1.531 . S
C310 H322 0.960 . S
C310 H323 0.962 . S
C310 H324 0.960 . S
C311 C308 1.511 . S
C311 H325 0.961 . S
C311 H326 0.961 . S
C311 H327 0.961 . S
C312 C313 1.370 . S
C312 C314 1.363 . S
C312 H328 0.931 . S
C313 C312 1.370 . S
C313 C317 1.408 . S
C314 C312 1.363 . S
C314 C315 1.370 . S
C314 C318 1.524 . S
C315 C307 1.503 . S
C315 C314 1.370 . S
C315 C316 1.403 . S
C316 C315 1.403 . S
C316 C317 1.404 . S
C316 C319 1.539 . S
C317 C313 1.408 . S
C317 C316 1.404 . S
C317 H329 0.930 . S
C318 C314 1.524 . S
C318 H330 0.956 . S
C318 H331 0.961 . S
C318 H332 0.961 . S
C319 C316 1.539 . S
C319 H333 0.958 . S
C319 H334 0.961 . S
C319 H335 0.960 . S
H320 C304 0.931 . S
H321 C309 0.929 . S
H322 C310 0.960 . S
H323 C310 0.962 . S
H324 C310 0.960 . S
H325 C311 0.961 . S
H326 C311 0.961 . S
H327 C311 0.961 . S
H328 C312 0.931 . S
H329 C317 0.930 . S
H330 C318 0.956 . S
H331 C318 0.961 . S
H332 C318 0.961 . S
H333 C319 0.958 . S
H334 C319 0.961 . S
H335 C319 0.960 . S
C336 C337 1.391 . S
C336 C338 1.394 . S
C336 H352 0.931 . S
C337 C336 1.391 . S
C337 C341 1.376 . S
C338 C336 1.394 . S
C338 C339 1.369 . S
C338 C342 1.531 . S
C339 C338 1.369 . S
C339 C340 1.410 . S
C339 C347 1.503 . S
C340 C339 1.410 . S
C340 C341 1.392 . S
C340 C343 1.511 . S
C341 C337 1.376 . S
C341 C340 1.392 . S
C341 H353 0.929 . S
C342 C338 1.531 . S
C342 H354 0.960 . S
C342 H355 0.962 . S
C342 H356 0.960 . S
C343 C340 1.511 . S
C343 H357 0.961 . S
C343 H358 0.961 . S
C343 H359 0.961 . S
C344 C345 1.370 . S
C344 C346 1.363 . S
C344 H360 0.931 . S
C345 C344 1.370 . S
C345 C349 1.408 . S
C346 C344 1.363 . S
C346 C347 1.370 . S
C346 C350 1.524 . S
C347 C339 1.503 . S
C347 C346 1.370 . S
C347 C348 1.403 . S
C348 C347 1.403 . S
C348 C349 1.404 . S
C348 C351 1.539 . S
C349 C345 1.408 . S
C349 C348 1.404 . S
C349 H361 0.930 . S
C350 C346 1.524 . S
C350 H362 0.956 . S
C350 H363 0.961 . S
C350 H364 0.961 . S
C351 C348 1.539 . S
C351 H365 0.958 . S
C351 H366 0.961 . S
C351 H367 0.960 . S
H352 C336 0.931 . S
H353 C341 0.929 . S
H354 C342 0.960 . S
H355 C342 0.962 . S
H356 C342 0.960 . S
H357 C343 0.961 . S
H358 C343 0.961 . S
H359 C343 0.961 . S
H360 C344 0.931 . S
H361 C349 0.930 . S
H362 C350 0.956 . S
H363 C350 0.961 . S
H364 C350 0.961 . S
H365 C351 0.958 . S
H366 C351 0.961 . S
H367 C351 0.960 . S
C368 C369 1.391 . S
C368 C370 1.394 . S
C368 H384 0.931 . S
C369 C368 1.391 . S
C369 C373 1.376 1_554 S
C370 C368 1.394 . S
C370 C371 1.369 . S
C370 C374 1.531 . S
C371 C370 1.369 . S
C371 C372 1.410 1_554 S
C371 C379 1.503 1_655 S
C372 C371 1.410 1_556 S
C372 C373 1.392 . S
C372 C375 1.511 . S
C373 C369 1.376 1_556 S
C373 C372 1.392 . S
C373 H385 0.929 . S
C374 C370 1.531 . S
C374 H386 0.960 1_655 S
C374 H387 0.962 1_655 S
C374 H388 0.960 . S
C375 C372 1.511 . S
C375 H389 0.961 . S
C375 H390 0.961 . S
C375 H391 0.961 . S
C376 C377 1.370 1_556 S
C376 C378 1.363 . S
C376 H392 0.931 . S
C377 C376 1.370 1_554 S
C377 C381 1.408 . S
C378 C376 1.363 . S
C378 C379 1.370 1_556 S
C378 C382 1.524 . S
C379 C371 1.503 1_455 S
C379 C378 1.370 1_554 S
C379 C380 1.403 . S
C380 C379 1.403 . S
C380 C381 1.404 . S
C380 C383 1.539 . S
C381 C377 1.408 . S
C381 C380 1.404 . S
C381 H393 0.930 . S
C382 C378 1.524 . S
C382 H394 0.956 . S
C382 H395 0.961 . S
C382 H396 0.961 . S
C383 C380 1.539 . S
C383 H397 0.958 . S
C383 H398 0.961 . S
C383 H399 0.960 1_455 S
H384 C368 0.931 . S
H385 C373 0.929 . S
H386 C374 0.960 1_455 S
H387 C374 0.962 1_455 S
H388 C374 0.960 . S
H389 C375 0.961 . S
H390 C375 0.961 . S
H391 C375 0.961 . S
H392 C376 0.931 . S
H393 C381 0.930 . S
H394 C382 0.956 . S
H395 C382 0.961 . S
H396 C382 0.961 . S
H397 C383 0.958 . S
H398 C383 0.961 . S
H399 C383 0.960 1_655 S
C400 C401 1.391 . S
C400 C402 1.394 . S
C400 H416 0.931 . S
C401 C400 1.391 . S
C401 C405 1.376 . S
C402 C400 1.394 . S
C402 C403 1.369 . S
C402 C406 1.531 . S
C403 C402 1.369 . S
C403 C404 1.410 . S
C403 C411 1.503 1_565 S
C404 C403 1.410 . S
C404 C405 1.392 . S
C404 C407 1.511 1_565 S
C405 C401 1.376 . S
C405 C404 1.392 . S
C405 H417 0.929 . S
C406 C402 1.531 . S
C406 H418 0.960 . S
C406 H419 0.962 . S
C406 H420 0.960 . S
C407 C404 1.511 1_545 S
C407 H421 0.961 1_545 S
C407 H422 0.961 . S
C407 H423 0.961 . S
C408 C409 1.370 . S
C408 C410 1.363 . S
C408 H424 0.931 . S
C409 C408 1.370 . S
C409 C413 1.408 . S
C410 C408 1.363 . S
C410 C411 1.370 . S
C410 C414 1.524 . S
C411 C403 1.503 1_545 S
C411 C410 1.370 . S
C411 C412 1.403 . S
C412 C411 1.403 . S
C412 C413 1.404 . S
C412 C415 1.539 . S
C413 C409 1.408 . S
C413 C412 1.404 . S
C413 H425 0.930 . S
C414 C410 1.524 . S
C414 H426 0.956 1_545 S
C414 H427 0.961 . S
C414 H428 0.961 . S
C415 C412 1.539 . S
C415 H429 0.958 . S
C415 H430 0.961 . S
C415 H431 0.960 . S
H416 C400 0.931 . S
H417 C405 0.929 . S
H418 C406 0.960 . S
H419 C406 0.962 . S
H420 C406 0.960 . S
H421 C407 0.961 1_565 S
H422 C407 0.961 . S
H423 C407 0.961 . S
H424 C408 0.931 . S
H425 C413 0.930 . S
H426 C414 0.956 1_565 S
H427 C414 0.961 . S
H428 C414 0.961 . S
H429 C415 0.958 . S
H430 C415 0.961 . S
H431 C415 0.960 . S
C432 C433 1.391 . S
C432 C434 1.394 . S
C432 H448 0.931 . S
C433 C432 1.391 . S
C433 C437 1.376 . S
C434 C432 1.394 . S
C434 C435 1.369 . S
C434 C438 1.531 . S
C435 C434 1.369 . S
C435 C436 1.410 . S
C435 C443 1.503 1_455 S
C436 C435 1.410 . S
C436 C437 1.392 . S
C436 C439 1.511 . S
C437 C433 1.376 . S
C437 C436 1.392 . S
C437 H449 0.929 . S
C438 C434 1.531 . S
C438 H450 0.960 . S
C438 H451 0.962 . S
C438 H452 0.960 . S
C439 C436 1.511 . S
C439 H453 0.961 . S
C439 H454 0.961 1_455 S
C439 H455 0.961 . S
C440 C441 1.370 . S
C440 C442 1.363 . S
C440 H456 0.931 . S
C441 C440 1.370 . S
C441 C445 1.408 . S
C442 C440 1.363 . S
C442 C443 1.370 . S
C442 C446 1.524 . S
C443 C435 1.503 1_655 S
C443 C442 1.370 . S
C443 C444 1.403 . S
C444 C443 1.403 . S
C444 C445 1.404 . S
C444 C447 1.530 1_655 S
C445 C441 1.408 . S
C445 C444 1.404 . S
C445 H457 0.930 . S
C446 C442 1.524 . S
C446 H458 0.956 . S
C446 H459 0.961 . S
C446 H460 0.961 . S
C447 C444 1.530 1_455 S
C447 H461 0.962 . S
C447 H462 0.956 1_455 S
C447 H463 0.970 . S
H448 C432 0.931 . S
H449 C437 0.929 . S
H450 C438 0.960 . S
H451 C438 0.962 . S
H452 C438 0.960 . S
H453 C439 0.961 . S
H454 C439 0.961 1_655 S
H455 C439 0.961 . S
H456 C440 0.931 . S
H457 C445 0.930 . S
H458 C446 0.956 . S
H459 C446 0.961 . S
H460 C446 0.961 . S
H461 C447 0.962 . S
H462 C447 0.956 1_655 S
H463 C447 0.970 . S
C464 C465 1.391 . S
C464 C466 1.394 1_554 S
C464 H480 0.931 1_554 S
C465 C464 1.391 . S
C465 C469 1.376 . S
C466 C464 1.394 1_556 S
C466 C467 1.369 1_556 S
C466 C470 1.531 1_565 S
C467 C466 1.369 1_554 S
C467 C468 1.410 . S
C467 C475 1.503 1_565 S
C468 C467 1.410 . S
C468 C469 1.392 . S
C468 C471 1.511 . S
C469 C465 1.376 . S
C469 C468 1.392 . S
C469 H481 0.929 . S
C470 C466 1.531 1_545 S
C470 H482 0.960 . S
C470 H483 0.962 1_556 S
C470 H484 0.960 1_545 S
C471 C468 1.511 . S
C471 H485 0.961 . S
C471 H486 0.961 . S
C471 H487 0.961 . S
C472 C473 1.370 . S
C472 C474 1.363 . S
C472 H488 0.931 . S
C473 C472 1.370 . S
C473 C477 1.408 1_554 S
C474 C472 1.363 . S
C474 C475 1.370 . S
C474 C478 1.524 . S
C475 C467 1.503 1_545 S
C475 C474 1.370 . S
C475 C476 1.403 1_554 S
C476 C475 1.403 1_556 S
C476 C477 1.404 . S
C476 C479 1.539 . S
C477 C473 1.408 1_556 S
C477 C476 1.404 . S
C477 H489 0.930 . S
C478 C474 1.524 . S
C478 H490 0.956 . S
C478 H491 0.961 1_545 S
C478 H492 0.961 . S
C479 C476 1.539 . S
C479 H493 0.958 . S
C479 H494 0.961 . S
C479 H495 0.960 1_545 S
H480 C464 0.931 1_556 S
H481 C469 0.929 . S
H482 C470 0.960 . S
H483 C470 0.962 1_554 S
H484 C470 0.960 1_565 S
H485 C471 0.961 . S
H486 C471 0.961 . S
H487 C471 0.961 . S
H488 C472 0.931 . S
H489 C477 0.930 . S
H490 C478 0.956 . S
H491 C478 0.961 1_565 S
H492 C478 0.961 . S
H493 C479 0.958 . S
H494 C479 0.961 . S
H495 C479 0.960 1_565 S
C496 C497 1.391 1_556 S
C496 C498 1.394 . S
C496 H512 0.931 . S
C497 C496 1.391 1_554 S
C497 C501 1.376 . S
C498 C496 1.394 . S
C498 C499 1.369 1_556 S
C498 C502 1.531 . S
C499 C498 1.369 1_554 S
C499 C500 1.410 . S
C499 C507 1.503 . S
C500 C499 1.410 . S
C500 C501 1.392 . S
C500 C503 1.511 . S
C501 C497 1.376 . S
C501 C500 1.392 . S
C501 H513 0.929 . S
C502 C498 1.531 . S
C502 H514 0.960 . S
C502 H515 0.962 . S
C502 H516 0.960 . S
C503 C500 1.511 . S
C503 H517 0.961 . S
C503 H518 0.961 . S
C503 H519 0.961 . S
C504 C505 1.370 . S
C504 C506 1.363 . S
C504 H520 0.931 . S
C505 C504 1.370 . S
C505 C509 1.408 1_554 S
C506 C504 1.363 . S
C506 C507 1.370 . S
C506 C510 1.524 . S
C507 C499 1.503 . S
C507 C506 1.370 . S
C507 C508 1.403 1_554 S
C508 C507 1.403 1_556 S
C508 C509 1.404 . S
C508 C511 1.539 . S
C509 C505 1.408 1_556 S
C509 C508 1.404 . S
C509 H521 0.930 . S
C510 C506 1.524 . S
C510 H522 0.956 . S
C510 H523 0.961 . S
C510 H524 0.961 . S
C511 C508 1.539 . S
C511 H525 0.958 . S
C511 H526 0.961 . S
C511 H527 0.960 . S
H512 C496 0.931 . S
H513 C501 0.929 . S
H514 C502 0.960 . S
H515 C502 0.962 . S
H516 C502 0.960 . S
H517 C503 0.961 . S
H518 C503 0.961 . S
H519 C503 0.961 . S
H520 C504 0.931 . S
H521 C509 0.930 . S
H522 C510 0.956 . S
H523 C510 0.961 . S
H524 C510 0.961 . S
H525 C511 0.958 . S
H526 C511 0.961 . S
H527 C511 0.960 . S
C528 C529 1.391 . S
C528 C530 1.394 . S
C528 H544 0.931 . S
C529 C528 1.391 . S
C529 C533 1.376 . S
C530 C528 1.394 . S
C530 C531 1.369 . S
C530 C534 1.531 . S
C531 C530 1.369 . S
C531 C532 1.410 . S
C531 C539 1.503 . S
C532 C531 1.410 . S
C532 C533 1.392 . S
C532 C535 1.511 . S
C533 C529 1.376 . S
C533 C532 1.392 . S
C533 H545 0.929 . S
C534 C530 1.531 . S
C534 H546 0.960 . S
C534 H547 0.962 . S
C534 H548 0.960 . S
C535 C532 1.511 . S
C535 H549 0.961 . S
C535 H550 0.961 . S
C535 H551 0.961 . S
C536 C537 1.370 . S
C536 C538 1.363 . S
C536 H552 0.931 . S
C537 C536 1.370 . S
C537 C541 1.408 . S
C538 C536 1.363 . S
C538 C539 1.370 . S
C538 C542 1.524 . S
C539 C531 1.503 . S
C539 C538 1.370 . S
C539 C540 1.403 . S
C540 C539 1.403 . S
C540 C541 1.404 . S
C540 C543 1.539 . S
C541 C537 1.408 . S
C541 C540 1.404 . S
C541 H553 0.930 . S
C542 C538 1.524 . S
C542 H554 0.956 . S
C542 H555 0.961 . S
C542 H556 0.961 . S
C543 C540 1.539 . S
C543 H557 0.958 . S
C543 H558 0.961 . S
C543 H559 0.960 . S
H544 C528 0.931 . S
H545 C533 0.929 . S
H546 C534 0.960 . S
H547 C534 0.962 . S
H548 C534 0.960 . S
H549 C535 0.961 . S
H550 C535 0.961 . S
H551 C535 0.961 . S
H552 C536 0.931 . S
H553 C541 0.930 . S
H554 C542 0.956 . S
H555 C542 0.961 . S
H556 C542 0.961 . S
H557 C543 0.958 . S
H558 C543 0.961 . S
H559 C543 0.960 . S
C560 C561 1.391 . S
C560 C562 1.394 . S
C560 H576 0.931 . S
C561 C560 1.391 . S
C561 C565 1.376 . S
C562 C560 1.394 . S
C562 C563 1.369 . S
C562 C566 1.531 . S
C563 C562 1.369 . S
C563 C564 1.410 . S
C563 C571 1.503 . S
C564 C563 1.410 . S
C564 C565 1.392 . S
C564 C567 1.511 1_554 S
C565 C561 1.376 . S
C565 C564 1.392 . S
C565 H577 0.929 1_554 S
C566 C562 1.531 . S
C566 H578 0.960 . S
C566 H579 0.962 . S
C566 H580 0.960 . S
C567 C564 1.511 1_556 S
C567 H581 0.961 . S
C567 H582 0.961 . S
C567 H583 0.956 1_556 S
C568 C569 1.370 1_556 S
C568 C570 1.363 . S
C568 H584 0.931 . S
C569 C568 1.370 1_554 S
C569 C573 1.408 . S
C570 C568 1.363 . S
C570 C571 1.370 1_556 S
C570 C574 1.524 . S
C571 C563 1.503 . S
C571 C570 1.370 1_554 S
C571 C572 1.403 . S
C572 C571 1.403 . S
C572 C573 1.404 . S
C572 C575 1.539 . S
C573 C569 1.408 . S
C573 C572 1.404 . S
C573 H585 0.930 . S
C574 C570 1.524 . S
C574 H586 0.956 . S
C574 H587 0.961 . S
C574 H588 0.961 . S
C575 C572 1.539 . S
C575 H589 0.958 . S
C575 H590 0.961 . S
C575 H591 0.960 . S
H576 C560 0.931 . S
H577 C565 0.929 1_556 S
H578 C566 0.960 . S
H579 C566 0.962 . S
H580 C566 0.960 . S
H581 C567 0.961 . S
H582 C567 0.961 . S
H583 C567 0.956 1_554 S
H584 C568 0.931 . S
H585 C573 0.930 . S
H586 C574 0.956 . S
H587 C574 0.961 . S
H588 C574 0.961 . S
H589 C575 0.958 . S
H590 C575 0.961 . S
H591 C575 0.960 . S
C592 C593 1.391 . S
C592 C594 1.394 . S
C592 H608 0.931 . S
C593 C592 1.391 . S
C593 C597 1.376 . S
C594 C592 1.394 . S
C594 C595 1.369 . S
C594 C598 1.531 . S
C595 C594 1.369 . S
C595 C596 1.410 . S
C595 C603 1.503 . S
C596 C595 1.410 . S
C596 C597 1.392 . S
C596 C599 1.511 . S
C597 C593 1.376 . S
C597 C596 1.392 . S
C597 H609 0.929 . S
C598 C594 1.531 . S
C598 H610 0.960 . S
C598 H611 0.962 . S
C598 H612 0.960 . S
C599 C596 1.511 . S
C599 H613 0.961 . S
C599 H614 0.961 . S
C599 H615 0.961 . S
C600 C601 1.370 . S
C600 C602 1.363 . S
C600 H616 0.931 . S
C601 C600 1.370 . S
C601 C605 1.408 . S
C602 C600 1.363 . S
C602 C603 1.370 . S
C602 C606 1.524 . S
C603 C595 1.503 . S
C603 C602 1.370 . S
C603 C604 1.403 . S
C604 C603 1.403 . S
C604 C605 1.404 . S
C604 C607 1.539 . S
C605 C601 1.408 . S
C605 C604 1.404 . S
C605 H617 0.930 . S
C606 C602 1.524 . S
C606 H618 0.956 . S
C606 H619 0.961 . S
C606 H620 0.961 . S
C607 C604 1.539 . S
C607 H621 0.958 . S
C607 H622 0.961 . S
C607 H623 0.960 . S
H608 C592 0.931 . S
H609 C597 0.929 . S
H610 C598 0.960 . S
H611 C598 0.962 . S
H612 C598 0.960 . S
H613 C599 0.961 . S
H614 C599 0.961 . S
H615 C599 0.961 . S
H616 C600 0.931 . S
H617 C605 0.930 . S
H618 C606 0.956 . S
H619 C606 0.961 . S
H620 C606 0.961 . S
H621 C607 0.958 . S
H622 C607 0.961 . S
H623 C607 0.960 . S
C113 C7 1.333 . S
C121 C63 1.323 . S
C145 C21 1.301 . S
C153 C77 1.310 . S
C177 C91 1.293 . S
C185 C35 1.305 . S
C209 C105 1.290 . S
C217 C49 1.305 . S
C241 C87 1.237 . S
C249 C31 1.192 . S
C273 C101 1.188 . S
C281 C45 1.219 . S
C305 C3 1.237 . S
C313 C59 1.193 . S
C337 C17 1.201 . S
C345 C73 1.216 . S
C369 C37 1.324 . S
C377 C9 1.360 . S
C401 C51 1.338 . S
C409 C23 1.346 . S
C433 C65 1.311 . S
C441 C93 1.361 . S
C465 C107 1.336 . S
C473 C79 1.356 . S
C497 C8 1.349 . S
C505 C78 1.357 . S
C529 C92 1.355 . S
C537 C22 1.359 . S
C561 C36 1.359 . S
C569 C106 1.356 . S
C593 C50 1.348 . S
C601 C64 1.359 . S
