# Generated by pormake.
# Topology irl, (4)-cn, num edge types: 1
# Building blocks:
#     Node 0, Type 0, BuildingBlock: GALJAG_clean_sbu_0, # of connection points: 4
#     Node 1, Type 0, BuildingBlock: GALJAG_clean_sbu_0, # of connection points: 4
#     Node 2, Type 0, BuildingBlock: GALJAG_clean_sbu_0, # of connection points: 4
#     Node 3, Type 0, BuildingBlock: GALJAG_clean_sbu_0, # of connection points: 4
#     Node 4, Type 0, BuildingBlock: GALJAG_clean_sbu_0, # of connection points: 4
#     Node 5, Type 0, BuildingBlock: GALJAG_clean_sbu_0, # of connection points: 4
#     Node 6, Type 0, BuildingBlock: GALJAG_clean_sbu_0, # of connection points: 4
#     Node 7, Type 0, BuildingBlock: GALJAG_clean_sbu_0, # of connection points: 4
#     Edge 8, Type (0, 0), BuildingBlock: TEMPAE_clean_linker_10, # of connection points: 2
#     Edge 9, Type (0, 0), BuildingBlock: TEMPAE_clean_linker_10, # of connection points: 2
#     Edge 10, Type (0, 0), BuildingBlock: TEMPAE_clean_linker_10, # of connection points: 2
#     Edge 11, Type (0, 0), BuildingBlock: TEMPAE_clean_linker_10, # of connection points: 2
#     Edge 12, Type (0, 0), BuildingBlock: TEMPAE_clean_linker_10, # of connection points: 2
#     Edge 13, Type (0, 0), BuildingBlock: TEMPAE_clean_linker_10, # of connection points: 2
#     Edge 14, Type (0, 0), BuildingBlock: TEMPAE_clean_linker_10, # of connection points: 2
#     Edge 15, Type (0, 0), BuildingBlock: TEMPAE_clean_linker_10, # of connection points: 2
#     Edge 16, Type (0, 0), BuildingBlock: TEMPAE_clean_linker_10, # of connection points: 2
#     Edge 17, Type (0, 0), BuildingBlock: TEMPAE_clean_linker_10, # of connection points: 2
#     Edge 18, Type (0, 0), BuildingBlock: TEMPAE_clean_linker_10, # of connection points: 2
#     Edge 19, Type (0, 0), BuildingBlock: TEMPAE_clean_linker_10, # of connection points: 2
#     Edge 20, Type (0, 0), BuildingBlock: TEMPAE_clean_linker_10, # of connection points: 2
#     Edge 21, Type (0, 0), BuildingBlock: TEMPAE_clean_linker_10, # of connection points: 2
#     Edge 22, Type (0, 0), BuildingBlock: TEMPAE_clean_linker_10, # of connection points: 2
#     Edge 23, Type (0, 0), BuildingBlock: TEMPAE_clean_linker_10, # of connection points: 2
# Relax obj value: 0.098
# Max RMSD: 0.151
# Mean RMSD: 0.151
data_MOF--net-irl--node1-GALJAG_clean_sbu_0--edge1-TEMPAE_clean_linker_10
_symmetry_space_group_name_H-M    P1
_symmetry_Int_Tables_number       1
_symmetry_cell_setting            triclinic
loop_
_symmetry_equiv_pos_as_xyz
'x, y, z'
_cell_length_a     30.453266
_cell_length_b     48.392577
_cell_length_c     29.228216
_cell_angle_alpha  90.223898
_cell_angle_beta   90.010309
_cell_angle_gamma 89.861625
loop_
_atom_site_label
_atom_site_type_symbol
_atom_site_fract_x
_atom_site_fract_y
_atom_site_fract_z
_atom_type_partial_charge
In0 In 0.04128 0.1681 0.04106 0.0
O1 O -0.00141 0.18006 0.10264 0.0
O2 O 0.06176 0.16165 0.11376 0.0
C3 C 0.00837 0.18234 0.95954 0.0
C4 C 0.10263 0.20693 0.04423 0.0
C5 C 0.03553 0.11308 0.03354 0.0
O6 O 0.98387 0.18133 0.99463 0.0
O7 O 0.0481 0.17626 0.96611 0.0
O8 O 0.07123 0.1256 0.02566 0.0
O9 O 0.00354 0.12832 0.0446 0.0
C10 C 0.02727 0.17178 0.13115 0.0
O11 O 0.11202 0.18188 0.03539 0.0
O12 O 0.0624 0.2121 0.05117 0.0
In13 In 0.94295 0.85747 0.01088 0.0
O14 O 0.86932 0.85774 0.99489 0.0
O15 O 0.89977 0.82017 0.01639 0.0
C16 C 0.96764 0.91057 0.01157 0.0
C17 C 0.95586 0.84758 0.09995 0.0
C18 C 0.97703 0.83959 0.9313 0.0
O19 O 0.9287 0.90329 0.0024 0.0
O20 O -0.0061 0.89106 0.02055 0.0
O21 O 0.98638 0.8278 0.96865 0.0
O22 O 0.9521 0.86027 0.93488 0.0
C23 C 0.86513 0.83238 0.00424 0.0
O24 O 0.9818 0.8382 0.06962 0.0
O25 O 0.92454 0.86215 0.08502 0.0
In26 In 0.04977 0.82701 0.52054 0.0
O27 O -0.00137 0.815 0.46631 0.0
O28 O 0.04989 0.84343 0.44941 0.0
C29 C 0.03665 0.80715 0.60455 0.0
C30 C 0.11494 0.7926 0.49916 0.0
C31 C 0.03712 0.88004 0.5428 0.0
O32 O 0.00664 0.80591 0.57433 0.0
O33 O 0.07233 0.81777 0.59148 0.0
O34 O 0.07396 0.87133 0.52838 0.0
O35 O 0.00738 0.86198 0.54607 0.0
C36 C 0.01657 0.83014 0.43618 0.0
O37 O 0.12227 0.81706 0.51293 0.0
O38 O 0.07495 0.7859 0.49598 0.0
In39 In 0.93839 0.13418 0.54849 0.0
O40 O 0.97795 0.16183 0.49944 0.0
O41 O 0.95732 0.1223 0.47637 0.0
C42 C 0.96136 0.16078 0.62642 0.0
C43 C 0.85557 0.15157 0.53653 0.0
C44 C 0.95139 0.07985 0.56364 0.0
O45 O 0.98923 0.14823 0.60191 0.0
O46 O 0.92298 0.16083 0.61061 0.0
O47 O 0.91757 0.08893 0.54368 0.0
O48 O 0.97778 0.09818 0.5771 0.0
C49 C 0.97607 0.14468 0.46675 0.0
O50 O 0.86523 0.13312 0.56543 0.0
O51 O 0.88737 0.16034 0.51312 0.0
In52 In 0.54001 0.67213 0.01025 0.0
O53 O 0.6109 0.68259 0.99421 0.0
O54 O 0.56477 0.7156 0.00485 0.0
C55 C 0.52727 0.61783 0.01759 0.0
C56 C 0.52852 0.68338 0.09893 0.0
C57 C 0.50689 0.67653 0.92627 0.0
O58 O 0.56562 0.62803 0.01665 0.0
O59 O 0.49606 0.63507 0.01546 0.0
O60 O 0.48899 0.68915 0.9597 0.0
O61 O 0.54055 0.66241 0.93588 0.0
C62 C 0.60386 0.70843 0.99616 0.0
O63 O 0.49784 0.68758 0.07022 0.0
O64 O 0.56368 0.67371 0.08242 0.0
In65 In 0.43017 0.3625 0.04228 0.0
O66 O 0.47415 0.33527 0.08728 0.0
O67 O 0.44547 0.37166 0.11602 0.0
C68 C 0.44491 0.3432 0.95727 0.0
C69 C 0.35072 0.34053 0.05706 0.0
C70 C 0.45214 0.416 0.03549 0.0
O71 O 0.4711 0.33808 0.98986 0.0
O72 O 0.41213 0.35778 0.96802 0.0
O73 O 0.41641 0.40826 0.05326 0.0
O74 O 0.47652 0.3968 0.02073 0.0
C75 C 0.46869 0.3504 0.1223 0.0
O76 O 0.35511 0.36398 0.03882 0.0
O77 O 0.386 0.32872 0.06814 0.0
In78 In 0.55221 0.32932 0.54129 0.0
O79 O 0.62285 0.31484 0.54843 0.0
O80 O 0.57169 0.28465 0.54187 0.0
C81 C 0.54164 0.38406 0.53949 0.0
C82 C 0.53417 0.32137 0.45292 0.0
C83 C 0.52517 0.32366 0.62734 0.0
O84 O 0.57956 0.37313 0.53738 0.0
O85 O 0.50988 0.36734 0.54207 0.0
O86 O 0.50268 0.31399 0.59429 0.0
O87 O 0.56056 0.33552 0.61635 0.0
C88 C 0.61229 0.28948 0.54608 0.0
O89 O 0.5058 0.316 0.48358 0.0
O90 O 0.57034 0.33065 0.46745 0.0
In91 In 0.44233 0.63923 0.50783 0.0
O92 O 0.36727 0.63687 0.50471 0.0
O93 O 0.39933 0.67161 0.47536 0.0
C94 C 0.46475 0.58584 0.51819 0.0
C95 C 0.4858 0.65225 0.43105 0.0
C96 C 0.449 0.66045 0.59279 0.0
O97 O 0.43016 0.59322 0.49762 0.0
O98 O 0.48768 0.60537 0.53405 0.0
O99 O 0.47958 0.66308 0.56376 0.0
O100 O 0.41601 0.64726 0.57868 0.0
C101 C 0.36364 0.65974 0.48427 0.0
O102 O 0.4863 0.66797 0.46579 0.0
O103 O 0.46554 0.6298 0.43637 0.0
C104 C 0.01764 0.94791 0.03861 0.0
C105 C 0.98142 0.93974 0.01231 0.0
C106 C 0.02989 0.97579 0.04145 0.0
C107 C 0.00601 0.99579 0.01637 0.0
C108 C 0.97044 0.98744 0.98835 0.0
C109 C 0.95814 0.95953 0.9872 0.0
C110 C 0.06722 0.98398 0.07265 0.0
C111 C 0.94482 0.00808 0.96029 0.0
C112 C -0.00027 0.06976 0.05848 0.0
C113 C 0.03072 0.08286 0.03067 0.0
C114 C -0.0075 0.04127 0.05513 0.0
C115 C 0.01592 0.02565 0.02213 0.0
C116 C 0.04758 0.03875 0.99411 0.0
C117 C 0.05511 0.06725 -0.00079 0.0
C118 C 0.95935 0.02798 0.08653 0.0
C119 C 0.07236 0.02285 0.95781 0.0
H120 H 0.03556 0.93259 0.05817 0.0
H121 H 0.93041 0.95315 0.96646 0.0
H122 H 0.092 0.99609 0.05355 0.0
H123 H 0.05457 0.99743 0.10055 0.0
H124 H 0.0837 0.96579 0.08819 0.0
H125 H 0.9209 0.9979 0.93702 0.0
H126 H 0.92659 0.02231 0.98332 0.0
H127 H 0.96752 0.02082 0.93954 0.0
H128 H 0.98113 0.08186 0.0831 0.0
H129 H 0.07883 0.0775 0.97749 0.0
H130 H 0.97452 0.01024 0.10462 0.0
H131 H 0.93146 0.01982 0.0662 0.0
H132 H 0.94623 0.04271 0.11241 0.0
H133 H 0.08985 0.00506 0.97329 0.0
H134 H 0.09663 0.03593 0.93963 0.0
H135 H 0.04888 0.01435 0.93238 0.0
C136 C -0.00668 0.91665 0.58171 0.0
C137 C 0.02806 0.9094 0.55258 0.0
C138 C 0.9813 0.94438 0.58814 0.0
C139 C 0.00386 0.96522 0.56386 0.0
C140 C 0.03973 0.95803 0.53527 0.0
C141 C 0.05178 0.93015 0.53042 0.0
C142 C 0.94368 0.95128 0.61987 0.0
C143 C 0.0641 0.97965 0.50822 0.0
C144 C 0.94206 0.03133 0.53673 0.0
C145 C 0.96174 0.05014 0.56688 0.0
C146 C 0.95532 0.00356 0.53562 0.0
C147 C 0.9883 0.99432 0.56618 0.0
C148 C 0.00698 0.01302 0.59801 0.0
C149 C -0.00615 0.04083 0.59758 0.0
C150 C 0.9351 0.98434 0.5007 0.0
C151 C 0.04135 0.00375 0.63191 0.0
H152 H 0.97517 0.90057 0.59915 0.0
H153 H 0.07847 0.9245 0.50766 0.0
H154 H 0.95348 0.96776 0.6443 0.0
H155 H 0.91553 0.9593 0.59977 0.0
H156 H 0.93249 0.93302 0.63957 0.0
H157 H 0.09223 0.97078 0.48887 0.0
H158 H 0.04132 0.98962 0.48362 0.0
H159 H 0.07655 0.99607 0.53135 0.0
H160 H 0.9175 0.03855 0.5127 0.0
H161 H 0.009 0.05538 0.62103 0.0
H162 H 0.91982 0.96642 0.51803 0.0
H163 H 0.96103 0.9761 0.47768 0.0
H164 H 0.90972 0.99476 0.47955 0.0
H165 H 0.02933 0.98565 0.6514 0.0
H166 H 0.05028 0.02038 0.65648 0.0
H167 H 0.07144 0.99713 0.61347 0.0
C168 C 0.54855 0.57004 0.04111 0.0
C169 C 0.51887 0.58792 0.01965 0.0
C170 C 0.53939 0.54169 0.04468 0.0
C171 C 0.50036 0.53105 0.02503 0.0
C172 C 0.47094 0.54902 0.00225 0.0
C173 C 0.48025 0.57731 0.00047 0.0
C174 C 0.5709 0.52324 0.07029 0.0
C175 C 0.4296 0.53837 0.97977 0.0
C176 C 0.49307 0.45437 -0.00158 0.0
C177 C 0.46501 0.44526 0.03316 0.0
C178 C 0.50502 0.48228 0.99539 0.0
C179 C 0.48963 0.50123 0.0288 0.0
C180 C 0.46225 0.4919 0.0647 0.0
C181 C 0.44965 0.46406 0.06599 0.0
C182 C 0.53314 0.49162 0.95584 0.0
C183 C 0.44613 0.51135 0.10162 0.0
H184 H 0.57829 0.57835 0.05617 0.0
H185 H 0.45749 0.59116 0.98347 0.0
H186 H 0.55367 0.51328 0.0993 0.0
H187 H 0.58296 0.50648 0.04752 0.0
H188 H 0.59962 0.53478 0.08385 0.0
H189 H 0.41148 0.55486 0.96127 0.0
H190 H 0.4378 0.52161 0.95516 0.0
H191 H 0.40747 0.52945 0.00594 0.0
H192 H 0.50479 0.43977 0.97294 0.0
H193 H 0.42834 0.45689 0.09317 0.0
H194 H 0.56343 0.50166 0.96873 0.0
H195 H 0.51506 0.50723 0.93542 0.0
H196 H 0.54263 0.47423 0.93293 0.0
H197 H 0.47429 0.52234 0.11742 0.0
H198 H 0.42776 0.50041 0.12891 0.0
H199 H 0.42427 0.52724 0.08648 0.0
C200 C 0.56356 0.43195 0.51718 0.0
C201 C 0.53416 0.41416 0.53908 0.0
C202 C 0.55445 0.46037 0.51386 0.0
C203 C 0.51568 0.47116 0.53403 0.0
C204 C 0.48682 0.45334 0.55766 0.0
C205 C 0.49612 0.425 0.55934 0.0
C206 C 0.58549 0.47865 0.48753 0.0
C207 C 0.44574 0.46413 0.58062 0.0
C208 C 0.50653 0.54828 0.5572 0.0
C209 C 0.47815 0.55665 0.52212 0.0
C210 C 0.51925 0.5205 0.56146 0.0
C211 C 0.50416 0.50087 0.52905 0.0
C212 C 0.47631 0.5094 0.49292 0.0
C213 C 0.46312 0.53715 0.49029 0.0
C214 C 0.54796 0.51205 0.60116 0.0
C215 C 0.4603 0.4892 0.45714 0.0
H216 H 0.59285 0.4235 0.50129 0.0
H217 H 0.47355 0.41126 0.57666 0.0
H218 H 0.56809 0.48778 0.45782 0.0
H219 H 0.59674 0.49603 0.5094 0.0
H220 H 0.61472 0.46719 0.47484 0.0
H221 H 0.42847 0.44787 0.60036 0.0
H222 H 0.45401 0.4814 0.60416 0.0
H223 H 0.42282 0.47239 0.55451 0.0
H224 H 0.51805 0.56338 0.58192 0.0
H225 H 0.44155 0.54368 0.46284 0.0
H226 H 0.57833 0.50194 0.58844 0.0
H227 H 0.53043 0.49673 0.62255 0.0
H228 H 0.55729 0.52991 0.62307 0.0
H229 H 0.48859 0.47821 0.44145 0.0
H230 H 0.44125 0.49951 0.42961 0.0
H231 H 0.43913 0.47339 0.47332 0.0
C232 C 0.98029 0.178 0.20099 0.0
C233 C 0.0215 0.17298 0.18134 0.0
C234 C 0.97442 0.17634 0.24863 0.0
C235 C 0.01069 0.16972 0.27702 0.0
C236 C 0.05276 0.16609 0.25742 0.0
C237 C 0.0576 0.16766 0.20985 0.0
C238 C 0.92903 0.1803 0.26835 0.0
C239 C 0.09232 0.15918 0.28643 0.0
C240 C 0.00025 0.17802 0.40626 0.0
C241 C 0.9894 0.15103 0.41932 0.0
C242 C 0.00757 0.18451 0.36 0.0
C243 C 0.00392 0.16351 0.32631 0.0
C244 C -0.00587 0.13612 0.33961 0.0
C245 C 0.98705 0.13024 0.38587 0.0
C246 C 0.01827 0.21389 0.34705 0.0
C247 C 0.99031 0.11305 0.30483 0.0
H248 H 0.95237 0.1822 0.17908 0.0
H249 H 0.08969 0.16408 0.19488 0.0
H250 H 0.91686 0.16033 0.2818 0.0
H251 H 0.92997 0.19509 0.29742 0.0
H252 H 0.90529 0.188 0.24246 0.0
H253 H 0.12341 0.15997 0.26659 0.0
H254 H 0.09484 0.17368 0.31579 0.0
H255 H 0.08867 0.13808 0.30062 0.0
H256 H 0.00181 0.19418 0.43197 0.0
H257 H 0.9787 0.10933 0.39574 0.0
H258 H 0.99205 0.22226 0.32465 0.0
H259 H 0.04935 0.21451 0.32729 0.0
H260 H 0.02156 0.22759 0.37745 0.0
H261 H 0.96403 0.11797 0.27983 0.0
H262 H 0.98271 0.09285 0.32089 0.0
H263 H 0.02144 0.11096 0.28541 0.0
C264 C 0.01907 0.85251 0.36007 0.0
C265 C 0.00196 0.83169 0.38808 0.0
C266 C 0.00922 0.85353 0.31338 0.0
C267 C 0.98168 0.83312 0.294 0.0
C268 C 0.96352 0.81229 0.32218 0.0
C269 C 0.97378 0.81187 0.36913 0.0
C270 C 0.02882 0.87631 0.28468 0.0
C271 C 0.93406 0.7902 0.30254 0.0
C272 C 0.93154 0.8539 0.1807 0.0
C273 C 0.96112 0.84213 0.14936 0.0
C274 C 0.93666 0.85004 0.22789 0.0
C275 C 0.97218 0.83397 0.24416 0.0
C276 C 0.00126 0.82119 0.21265 0.0
C277 C -0.00456 0.82548 0.16552 0.0
C278 C 0.90512 0.86416 0.26037 0.0
C279 C 0.03945 0.80384 0.22878 0.0
H280 H 0.04071 0.86799 0.3746 0.0
H281 H 0.96072 0.79567 0.39068 0.0
H282 H 0.04984 0.86726 0.25746 0.0
H283 H 0.00235 0.88819 0.26756 0.0
H284 H 0.04898 0.89087 0.30528 0.0
H285 H 0.92167 0.7759 0.32921 0.0
H286 H 0.90559 0.79981 0.285 0.0
H287 H 0.95229 0.778 0.27651 0.0
H288 H 0.90474 0.86664 0.16842 0.0
H289 H 0.01816 0.81616 0.1414 0.0
H290 H 0.92267 0.88047 0.27985 0.0
H291 H 0.89217 0.84917 0.28557 0.0
H292 H 0.87701 0.87384 0.24221 0.0
H293 H 0.06356 0.81717 0.24678 0.0
H294 H 0.05645 0.7932 0.20003 0.0
H295 H 0.02809 0.78809 0.25355 0.0
C296 C 0.98752 0.79668 0.67099 0.0
C297 C 0.02979 0.80052 0.65331 0.0
C298 C 0.98029 0.79703 0.71849 0.0
C299 C 0.01613 0.80157 0.74854 0.0
C300 C 0.05929 0.80261 0.73087 0.0
C301 C 0.06559 0.80195 0.68345 0.0
C302 C 0.93386 0.79515 0.73618 0.0
C303 C 0.09846 0.80745 0.76156 0.0
C304 C 0.99202 0.84823 0.84949 0.0
C305 C 0.99132 0.82962 0.88601 0.0
C306 C 0.0006 0.83926 0.80487 0.0
C307 C 0.00796 0.8108 0.79633 0.0
C308 C 0.00806 0.79187 0.83319 0.0
C309 C 4e-05 0.80158 0.87789 0.0
C310 C 0.00118 0.8603 0.76675 0.0
C311 C 0.0152 0.76136 0.82522 0.0
H312 H 0.95979 0.79528 0.64784 0.0
H313 H 0.09851 0.80445 0.66996 0.0
H314 H 0.93246 0.78222 0.76741 0.0
H315 H 0.92202 0.81613 0.74554 0.0
H316 H 0.9112 0.7864 0.71012 0.0
H317 H 0.12993 0.80303 0.74372 0.0
H318 H 0.0987 0.82938 0.77283 0.0
H319 H 0.09659 0.79446 0.79266 0.0
H320 H 0.98538 0.86995 0.8558 0.0
H321 H -0.0011 0.78713 0.90612 0.0
H322 H 0.97503 0.85551 0.74153 0.0
H323 H 0.03306 0.85942 0.74842 0.0
H324 H -0.00393 0.88173 0.77949 0.0
H325 H 0.98745 0.75291 0.80499 0.0
H326 H 0.01765 0.74969 0.85778 0.0
H327 H 0.04554 0.7578 0.80504 0.0
C328 C 0.95907 0.1715 0.89427 0.0
C329 C -0.00741 0.18769 0.91294 0.0
C330 C 0.95223 0.17073 0.84672 0.0
C331 C 0.97882 0.18715 0.81772 0.0
C332 C 0.00999 0.20539 0.83711 0.0
C333 C 0.01711 0.20502 0.88449 0.0
C334 C 0.91917 0.15065 0.82735 0.0
C335 C 0.03787 0.22394 0.80764 0.0
C336 C 0.00282 0.15787 0.69961 0.0
C337 C 0.97058 0.17084 0.67311 0.0
C338 C 0.00623 0.16335 0.74666 0.0
C339 C 0.97754 0.18288 0.76729 0.0
C340 C 0.9468 0.19731 0.73999 0.0
C341 C 0.94318 0.19077 0.69331 0.0
C342 C 0.03906 0.1472 0.77469 0.0
C343 C 0.91679 0.21897 0.76035 0.0
H344 H 0.94075 0.15776 0.91636 0.0
H345 H 0.04321 0.21743 0.89916 0.0
H346 H 0.89729 0.16112 0.80251 0.0
H347 H 0.93668 0.13394 0.80862 0.0
H348 H 0.89866 0.14112 0.85444 0.0
H349 H 0.05495 0.24002 0.82819 0.0
H350 H 0.06304 0.21139 0.78959 0.0
H351 H 0.0175 0.23425 0.78122 0.0
H352 H 0.02364 0.14222 0.68413 0.0
H353 H 0.91822 0.20082 0.67274 0.0
H354 H 0.02158 0.13496 0.80101 0.0
H355 H 0.06149 0.16151 0.79292 0.0
H356 H 0.05909 0.13289 0.75338 0.0
H357 H 0.89262 0.209 0.78331 0.0
H358 H 0.89857 0.23058 0.73364 0.0
H359 H 0.93592 0.23384 0.78133 0.0
C360 C 0.56169 0.6875 0.17623 0.0
C361 C 0.52387 0.68731 0.1488 0.0
C362 C 0.55876 0.68628 0.22398 0.0
C363 C 0.51696 0.68462 0.24476 0.0
C364 C 0.47857 0.68652 0.21745 0.0
C365 C 0.48249 0.68794 0.16959 0.0
C366 C 0.60046 0.68463 0.25182 0.0
C367 C 0.4334 0.685 0.2385 0.0
C368 C 0.50568 0.64078 0.35097 0.0
C369 C 0.50101 0.66079 0.38537 0.0
C370 C 0.51206 0.64838 0.30532 0.0
C371 C 0.51353 0.67674 0.29372 0.0
C372 C 0.51087 0.69708 0.32858 0.0
C373 C 0.50476 0.68883 0.37422 0.0
C374 C 0.51556 0.626 0.26929 0.0
C375 C 0.51246 0.72749 0.31747 0.0
H376 H 0.59383 0.68743 0.16027 0.0
H377 H 0.45322 0.68789 0.14847 0.0
H378 H 0.59847 0.69836 0.28223 0.0
H379 H 0.60499 0.6632 0.26436 0.0
H380 H 0.62984 0.69038 0.23147 0.0
H381 H 0.40718 0.69034 0.2136 0.0
H382 H 0.42746 0.66372 0.25106 0.0
H383 H 0.43092 0.69915 0.26834 0.0
H384 H 0.5029 0.61908 0.35957 0.0
H385 H 0.50069 0.70435 0.40074 0.0
H386 H 0.54622 0.62856 0.24927 0.0
H387 H 0.48765 0.62768 0.24505 0.0
H388 H 0.51542 0.60494 0.28429 0.0
H389 H 0.54088 0.73206 0.29503 0.0
H390 H 0.51476 0.74053 0.34875 0.0
H391 H 0.48233 0.7334 0.2985 0.0
C392 C 0.56117 0.32176 0.37276 0.0
C393 C 0.526 0.31862 0.40331 0.0
C394 C 0.55415 0.32309 0.3255 0.0
C395 C 0.51087 0.32128 0.30834 0.0
C396 C 0.4755 0.31628 0.33873 0.0
C397 C 0.48351 0.31499 0.38606 0.0
C398 C 0.59278 0.32833 0.29431 0.0
C399 C 0.42891 0.31402 0.32155 0.0
C400 C 0.48471 0.36319 0.20277 0.0
C401 C 0.484 0.34291 0.16846 0.0
C402 C 0.49389 0.35635 0.24823 0.0
C403 C 0.50213 0.32844 0.25981 0.0
C404 C 0.50246 0.30789 0.22517 0.0
C405 C 0.49361 0.31542 0.17966 0.0
C406 C 0.49407 0.37899 0.284 0.0
C407 C 0.51097 0.27793 0.23638 0.0
H408 H 0.59424 0.32419 0.38588 0.0
H409 H 0.4563 0.3124 0.40955 0.0
H410 H 0.59197 0.31418 0.26439 0.0
H411 H 0.59094 0.34976 0.28108 0.0
H412 H 0.62469 0.32569 0.31222 0.0
H413 H 0.40612 0.30659 0.34847 0.0
H414 H 0.41744 0.33459 0.30983 0.0
H415 H 0.42722 0.29976 0.29179 0.0
H416 H 0.4774 0.38448 0.19414 0.0
H417 H 0.4926 0.29967 0.1532 0.0
H418 H 0.52623 0.37944 0.30183 0.0
H419 H 0.46854 0.37484 0.31014 0.0
H420 H 0.48782 0.39971 0.2691 0.0
H421 H 0.54252 0.27575 0.255 0.0
H422 H 0.51205 0.26469 0.20526 0.0
H423 H 0.48473 0.27019 0.25929 0.0
C424 C 0.42576 0.34504 0.87465 0.0
C425 C 0.45272 0.33454 0.90943 0.0
C426 C 0.43489 0.33971 0.82851 0.0
C427 C 0.47153 0.32312 0.81683 0.0
C428 C 0.49726 0.31099 0.85185 0.0
C429 C 0.48778 0.31705 0.89789 0.0
C430 C 0.40704 0.35344 0.79229 0.0
C431 C 0.53609 0.29275 0.84066 0.0
C432 C 0.48158 0.30268 0.69128 0.0
C433 C 0.51118 0.32262 0.67559 0.0
C434 C 0.46935 0.30185 0.7377 0.0
C435 C 0.48632 0.32188 0.76843 0.0
C436 C 0.51607 0.34208 0.75247 0.0
C437 C 0.52846 0.34198 0.70643 0.0
C438 C 0.43829 0.27969 0.75384 0.0
C439 C 0.53412 0.36425 0.78378 0.0
H440 H 0.39843 0.35846 0.88336 0.0
H441 H 0.5084 0.30865 0.9247 0.0
H442 H 0.42674 0.36942 0.77455 0.0
H443 H 0.39656 0.33817 0.76613 0.0
H444 H 0.37733 0.36348 0.80692 0.0
H445 H 0.54847 0.28162 0.87126 0.0
H446 H 0.5272 0.27738 0.81397 0.0
H447 H 0.56313 0.30555 0.8268 0.0
H448 H 0.4685 0.28756 0.66747 0.0
H449 H 0.55117 0.35755 0.69432 0.0
H450 H 0.40738 0.28925 0.76635 0.0
H451 H 0.45302 0.26833 0.78298 0.0
H452 H 0.43014 0.26468 0.72628 0.0
H453 H 0.50675 0.37668 0.79827 0.0
H454 H 0.55699 0.37841 0.76585 0.0
H455 H 0.55183 0.35468 0.81287 0.0
C456 C 0.49913 0.65485 0.85019 0.0
C457 C 0.49071 0.6775 0.87885 0.0
C458 C 0.48868 0.65562 0.80368 0.0
C459 C 0.46997 0.67989 0.78506 0.0
C460 C 0.46035 0.70269 0.81401 0.0
C461 C 0.47053 0.70113 0.86094 0.0
C462 C 0.49853 0.63057 0.77434 0.0
C463 C 0.44078 0.72896 0.79517 0.0
C464 C 0.49065 0.68215 0.65751 0.0
C465 C 0.4521 0.67007 0.64074 0.0
C466 C 0.49556 0.68776 0.70444 0.0
C467 C 0.46123 0.6809 0.73507 0.0
C468 C 0.42112 0.67054 0.71778 0.0
C469 C 0.41702 0.66531 0.67081 0.0
C470 C 0.53863 0.69918 0.72157 0.0
C471 C 0.38378 0.66285 0.74922 0.0
H472 H 0.51442 0.63646 0.86418 0.0
H473 H 0.46439 0.71872 0.88314 0.0
H474 H 0.46836 0.6237 0.75635 0.0
H475 H 0.52312 0.63593 0.74784 0.0
H476 H 0.51147 0.61297 0.79463 0.0
H477 H 0.43211 0.74394 0.82264 0.0
H478 H 0.46467 0.73885 0.77175 0.0
H479 H 0.41089 0.72433 0.77486 0.0
H480 H 0.51767 0.68614 0.63434 0.0
H481 H 0.38687 0.65628 0.65797 0.0
H482 H 0.55732 0.68257 0.73904 0.0
H483 H 0.53287 0.71592 0.74694 0.0
H484 H 0.55914 0.70738 0.69331 0.0
H485 H 0.39248 0.64371 0.76801 0.0
H486 H 0.35279 0.65911 0.73014 0.0
H487 H 0.37794 0.67931 0.77502 0.0
C488 C 0.2757 0.33044 0.02797 0.0
C489 C 0.30847 0.32622 0.06079 0.0
C490 C 0.23906 0.31297 0.02594 0.0
C491 C 0.23498 0.29136 0.05818 0.0
C492 C 0.26648 0.28841 0.09342 0.0
C493 C 0.30322 0.30569 0.09392 0.0
C494 C 0.2064 0.31645 0.98751 0.0
C495 C 0.26263 0.26606 0.12913 0.0
C496 C 0.12705 0.25338 0.07039 0.0
C497 C 0.13607 0.22874 0.04679 0.0
C498 C 0.15883 0.27415 0.07413 0.0
C499 C 0.20011 0.27031 0.05291 0.0
C500 C 0.209 0.24571 0.02813 0.0
C501 C 0.17696 0.22502 0.02582 0.0
C502 C 0.14865 0.29984 0.10168 0.0
C503 C 0.25249 0.24112 0.0044 0.0
H504 H 0.28009 0.34622 0.00214 0.0
H505 H 0.32859 0.30261 0.11947 0.0
H506 H 0.20918 0.29868 0.96356 0.0
H507 H 0.17236 0.31658 0.00099 0.0
H508 H 0.21192 0.3358 0.96802 0.0
H509 H 0.28694 0.26867 0.15716 0.0
H510 H 0.22917 0.266 0.14415 0.0
H511 H 0.26803 0.24556 0.11295 0.0
H512 H 0.09542 0.25617 0.08682 0.0
H513 H 0.18375 0.20605 0.00727 0.0
H514 H 0.15359 0.31853 0.08048 0.0
H515 H 0.17155 0.30134 0.13111 0.0
H516 H 0.11445 0.29997 0.11492 0.0
H517 H 0.2596 0.25861 0.98112 0.0
H518 H 0.25311 0.22162 0.98423 0.0
H519 H 0.27927 0.24034 0.0301 0.0
C520 C 0.63426 0.75502 0.01198 0.0
C521 C 0.63903 0.72896 0.99149 0.0
C522 C 0.66874 0.77409 0.01157 0.0
C523 C 0.70838 0.76711 0.98909 0.0
C524 C 0.71244 0.74138 0.96617 0.0
C525 C 0.67783 0.72237 0.96825 0.0
C526 C 0.66364 0.80098 0.03747 0.0
C527 C 0.75391 0.73354 0.94091 0.0
C528 C 0.79266 0.82329 0.96744 0.0
C529 C 0.82324 0.81758 0.00187 0.0
C530 C 0.75481 0.807 0.96265 0.0
C531 C 0.74719 0.78525 0.99395 0.0
C532 C 0.77727 0.78029 0.02991 0.0
C533 C 0.81531 0.79627 0.03295 0.0
C534 C 0.72387 0.81238 0.92332 0.0
C535 C 0.76964 0.75784 0.0648 0.0
H536 H 0.60421 0.76006 0.03012 0.0
H537 H 0.68125 0.7023 0.952 0.0
H538 H 0.68608 0.80105 0.0674 0.0
H539 H 0.67293 0.81869 0.01558 0.0
H540 H 0.62954 0.80423 0.04992 0.0
H541 H 0.74972 0.71444 0.92016 0.0
H542 H 0.76425 0.75056 0.91802 0.0
H543 H 0.78084 0.73006 0.9658 0.0
H544 H 0.79925 0.83967 0.94321 0.0
H545 H 0.83901 0.79209 0.05977 0.0
H546 H 0.69001 0.81573 0.93617 0.0
H547 H 0.72298 0.79402 0.90046 0.0
H548 H 0.73378 0.83064 0.90288 0.0
H549 H 0.73676 0.76035 0.08066 0.0
H550 H 0.79479 0.75797 0.09235 0.0
H551 H 0.77032 0.73732 0.04778 0.0
C552 C 0.14157 0.74882 0.46379 0.0
C553 C 0.1502 0.7725 0.49005 0.0
C554 C 0.1738 0.72845 0.45746 0.0
C555 C 0.21513 0.73164 0.47884 0.0
C556 C 0.22417 0.75572 0.50491 0.0
C557 C 0.19166 0.77605 0.50976 0.0
C558 C 0.1635 0.7034 0.42845 0.0
C559 C 0.26778 0.75966 0.52868 0.0
C560 C 0.28706 0.6703 0.50793 0.0
C561 C 0.32152 0.67385 0.47689 0.0
C562 C 0.25087 0.68828 0.50764 0.0
C563 C 0.24898 0.70972 0.47482 0.0
C564 C 0.28199 0.7118 0.44099 0.0
C565 C 0.31825 0.69402 0.44282 0.0
C566 C 0.2165 0.68565 0.54458 0.0
C567 C 0.28047 0.73389 0.40468 0.0
H568 H 0.10949 0.74618 0.44829 0.0
H569 H 0.1982 0.79429 0.53031 0.0
H570 H 0.18876 0.70079 0.40142 0.0
H571 H 0.16431 0.68454 0.44987 0.0
H572 H 0.13072 0.7049 0.41194 0.0
H573 H 0.26937 0.77946 0.54796 0.0
H574 H 0.27366 0.74242 0.55286 0.0
H575 H 0.29481 0.75928 0.50326 0.0
H576 H 0.28988 0.65482 0.53449 0.0
H577 H 0.34494 0.69659 0.41865 0.0
H578 H 0.18308 0.68589 0.52953 0.0
H579 H 0.21883 0.70359 0.56822 0.0
H580 H 0.22056 0.66641 0.56479 0.0
H581 H 0.24731 0.73501 0.38904 0.0
H582 H 0.30501 0.73015 0.3772 0.0
H583 H 0.28733 0.75431 0.42047 0.0
C584 C 0.68853 0.27205 0.55852 0.0
C585 C 0.64482 0.2669 0.54651 0.0
C586 C 0.7198 0.25074 0.55764 0.0
C587 C 0.70703 0.22385 0.54374 0.0
C588 C 0.66282 0.21849 0.53206 0.0
C589 C 0.63214 0.24008 0.53389 0.0
C590 C 0.76666 0.2571 0.57089 0.0
C591 C 0.6482 0.19018 0.51648 0.0
C592 C 0.80118 0.18132 0.49711 0.0
C593 C 0.81264 0.16548 0.5353 0.0
C594 C 0.76511 0.19928 0.49854 0.0
C595 C 0.74056 0.20175 0.53946 0.0
C596 C 0.75047 0.18461 0.57725 0.0
C597 C 0.78631 0.16641 0.57455 0.0
C598 C 0.75488 0.21676 0.45716 0.0
C599 C 0.72518 0.18684 0.62154 0.0
H600 H 0.69832 0.29273 0.56851 0.0
H601 H 0.59833 0.23605 0.52443 0.0
H602 H 0.77778 0.24276 0.59809 0.0
H603 H 0.78854 0.25395 0.54096 0.0
H604 H 0.77065 0.27866 0.58336 0.0
H605 H 0.61221 0.18917 0.51047 0.0
H606 H 0.66532 0.18454 0.48425 0.0
H607 H 0.65721 0.17444 0.54234 0.0
H608 H 0.8215 0.18048 0.46667 0.0
H609 H 0.79543 0.15431 0.60423 0.0
H610 H 0.76282 0.23868 0.46467 0.0
H611 H 0.71937 0.21574 0.4489 0.0
H612 H 0.77392 0.21015 0.42658 0.0
H613 H 0.73227 0.20705 0.63801 0.0
H614 H 0.73399 0.17014 0.64588 0.0
H615 H 0.68933 0.18606 0.615 0.0
loop_
_geom_bond_atom_site_label_1
_geom_bond_atom_site_label_2
_geom_bond_distance
_geom_bond_site_symmetry_2
_ccdc_geom_bond_type
In0 O1 2.294 1_455 S
In0 O2 2.326 . S
In0 O6 2.266 1_454 S
In0 O7 2.326 1_554 S
In0 O8 2.266 . S
In0 O9 2.326 1_455 S
In0 O11 2.294 . S
In0 O12 2.326 . S
O1 In0 2.294 1_655 S
O1 C10 1.240 1_655 S
O2 In0 2.326 . S
O2 C10 1.252 . S
C3 O6 1.252 1_455 S
C3 O7 1.260 . S
C4 O11 1.240 . S
C4 O12 1.252 . S
C5 O8 1.252 . S
C5 O9 1.260 1_455 S
O6 In0 2.266 1_656 S
O6 C3 1.252 1_655 S
O7 In0 2.326 1_556 S
O7 C3 1.260 . S
O8 In0 2.266 . S
O8 C5 1.252 . S
O9 In0 2.326 1_655 S
O9 C5 1.260 1_655 S
C10 O1 1.240 1_455 S
C10 O2 1.252 . S
O11 In0 2.294 . S
O11 C4 1.240 . S
O12 In0 2.326 . S
O12 C4 1.252 . S
In13 O14 2.294 . S
In13 O15 2.326 . S
In13 O19 2.266 . S
In13 O20 2.326 1_655 S
In13 O21 2.266 1_654 S
In13 O22 2.326 1_554 S
In13 O24 2.294 1_655 S
In13 O25 2.326 . S
O14 In13 2.294 . S
O14 C23 1.240 . S
O15 In13 2.326 . S
O15 C23 1.252 . S
C16 O19 1.252 . S
C16 O20 1.260 1_655 S
C17 O24 1.240 1_655 S
C17 O25 1.252 . S
C18 O21 1.252 1_655 S
C18 O22 1.260 . S
O19 In13 2.266 . S
O19 C16 1.252 . S
O20 In13 2.326 1_455 S
O20 C16 1.260 1_455 S
O21 In13 2.266 1_456 S
O21 C18 1.252 1_455 S
O22 In13 2.326 1_556 S
O22 C18 1.260 . S
C23 O14 1.240 . S
C23 O15 1.252 . S
O24 In13 2.294 1_455 S
O24 C17 1.240 1_455 S
O25 In13 2.326 . S
O25 C17 1.252 . S
In26 O27 2.294 1_455 S
In26 O28 2.326 . S
In26 O32 2.266 1_455 S
In26 O33 2.326 . S
In26 O34 2.266 . S
In26 O35 2.326 1_455 S
In26 O37 2.294 . S
In26 O38 2.326 . S
O27 In26 2.294 1_655 S
O27 C36 1.240 1_655 S
O28 In26 2.326 . S
O28 C36 1.252 . S
C29 O32 1.252 1_455 S
C29 O33 1.260 . S
C30 O37 1.240 . S
C30 O38 1.252 . S
C31 O34 1.252 . S
C31 O35 1.260 1_455 S
O32 In26 2.266 1_655 S
O32 C29 1.252 1_655 S
O33 In26 2.326 . S
O33 C29 1.260 . S
O34 In26 2.266 . S
O34 C31 1.252 . S
O35 In26 2.326 1_655 S
O35 C31 1.260 1_655 S
C36 O27 1.240 1_455 S
C36 O28 1.252 . S
O37 In26 2.294 . S
O37 C30 1.240 . S
O38 In26 2.326 . S
O38 C30 1.252 . S
In39 O40 2.294 1_655 S
In39 O41 2.326 . S
In39 O45 2.266 1_655 S
In39 O46 2.326 . S
In39 O47 2.266 . S
In39 O48 2.326 1_655 S
In39 O50 2.294 . S
In39 O51 2.326 . S
O40 In39 2.294 1_455 S
O40 C49 1.240 1_455 S
O41 In39 2.326 . S
O41 C49 1.252 . S
C42 O45 1.252 1_655 S
C42 O46 1.260 . S
C43 O50 1.240 . S
C43 O51 1.252 . S
C44 O47 1.252 . S
C44 O48 1.260 1_655 S
O45 In39 2.266 1_455 S
O45 C42 1.252 1_455 S
O46 In39 2.326 . S
O46 C42 1.260 . S
O47 In39 2.266 . S
O47 C44 1.252 . S
O48 In39 2.326 1_455 S
O48 C44 1.260 1_455 S
C49 O40 1.240 1_655 S
C49 O41 1.252 . S
O50 In39 2.294 . S
O50 C43 1.240 . S
O51 In39 2.326 . S
O51 C43 1.252 . S
In52 O53 2.294 . S
In52 O54 2.326 . S
In52 O58 2.266 . S
In52 O59 2.326 . S
In52 O60 2.266 1_554 S
In52 O61 2.326 1_554 S
In52 O63 2.294 . S
In52 O64 2.326 . S
O53 In52 2.294 . S
O53 C62 1.240 . S
O54 In52 2.326 . S
O54 C62 1.252 . S
C55 O58 1.252 . S
C55 O59 1.260 . S
C56 O63 1.240 . S
C56 O64 1.252 . S
C57 O60 1.252 . S
C57 O61 1.260 . S
O58 In52 2.266 . S
O58 C55 1.252 . S
O59 In52 2.326 . S
O59 C55 1.260 . S
O60 In52 2.266 1_556 S
O60 C57 1.252 . S
O61 In52 2.326 1_556 S
O61 C57 1.260 . S
C62 O53 1.240 . S
C62 O54 1.252 . S
O63 In52 2.294 . S
O63 C56 1.240 . S
O64 In52 2.326 . S
O64 C56 1.252 . S
In65 O66 2.294 . S
In65 O67 2.326 . S
In65 O71 2.266 1_554 S
In65 O72 2.326 1_554 S
In65 O73 2.266 . S
In65 O74 2.326 . S
In65 O76 2.294 . S
In65 O77 2.326 . S
O66 In65 2.294 . S
O66 C75 1.240 . S
O67 In65 2.326 . S
O67 C75 1.252 . S
C68 O71 1.252 . S
C68 O72 1.260 . S
C69 O76 1.240 . S
C69 O77 1.252 . S
C70 O73 1.252 . S
C70 O74 1.260 . S
O71 In65 2.266 1_556 S
O71 C68 1.252 . S
O72 In65 2.326 1_556 S
O72 C68 1.260 . S
O73 In65 2.266 . S
O73 C70 1.252 . S
O74 In65 2.326 . S
O74 C70 1.260 . S
C75 O66 1.240 . S
C75 O67 1.252 . S
O76 In65 2.294 . S
O76 C69 1.240 . S
O77 In65 2.326 . S
O77 C69 1.252 . S
In78 O79 2.294 . S
In78 O80 2.326 . S
In78 O84 2.266 . S
In78 O85 2.326 . S
In78 O86 2.266 . S
In78 O87 2.326 . S
In78 O89 2.294 . S
In78 O90 2.326 . S
O79 In78 2.294 . S
O79 C88 1.240 . S
O80 In78 2.326 . S
O80 C88 1.252 . S
C81 O84 1.252 . S
C81 O85 1.260 . S
C82 O89 1.240 . S
C82 O90 1.252 . S
C83 O86 1.252 . S
C83 O87 1.260 . S
O84 In78 2.266 . S
O84 C81 1.252 . S
O85 In78 2.326 . S
O85 C81 1.260 . S
O86 In78 2.266 . S
O86 C83 1.252 . S
O87 In78 2.326 . S
O87 C83 1.260 . S
C88 O79 1.240 . S
C88 O80 1.252 . S
O89 In78 2.294 . S
O89 C82 1.240 . S
O90 In78 2.326 . S
O90 C82 1.252 . S
In91 O92 2.294 . S
In91 O93 2.326 . S
In91 O97 2.266 . S
In91 O98 2.326 . S
In91 O99 2.266 . S
In91 O100 2.326 . S
In91 O102 2.294 . S
In91 O103 2.326 . S
O92 In91 2.294 . S
O92 C101 1.240 . S
O93 In91 2.326 . S
O93 C101 1.252 . S
C94 O97 1.252 . S
C94 O98 1.260 . S
C95 O102 1.240 . S
C95 O103 1.252 . S
C96 O99 1.252 . S
C96 O100 1.260 . S
O97 In91 2.266 . S
O97 C94 1.252 . S
O98 In91 2.326 . S
O98 C94 1.260 . S
O99 In91 2.266 . S
O99 C96 1.252 . S
O100 In91 2.326 . S
O100 C96 1.260 . S
C101 O92 1.240 . S
C101 O93 1.252 . S
O102 In91 2.294 . S
O102 C95 1.240 . S
O103 In91 2.326 . S
O103 C95 1.252 . S
C104 C105 1.391 1_455 S
C104 C106 1.394 . S
C104 H120 0.931 . S
C105 C104 1.391 1_655 S
C105 C109 1.376 1_554 S
C106 C104 1.394 . S
C106 C107 1.369 . S
C106 C110 1.531 . S
C107 C106 1.369 . S
C107 C108 1.410 1_454 S
C107 C115 1.503 1_565 S
C108 C107 1.410 1_656 S
C108 C109 1.392 . S
C108 C111 1.511 . S
C109 C105 1.376 1_556 S
C109 C108 1.392 . S
C109 H121 0.929 . S
C110 C106 1.531 . S
C110 H122 0.960 . S
C110 H123 0.962 . S
C110 H124 0.960 . S
C111 C108 1.511 . S
C111 H125 0.961 . S
C111 H126 0.961 1_565 S
C111 H127 0.961 . S
C112 C113 1.370 1_655 S
C112 C114 1.363 . S
C112 H128 0.931 . S
C113 C112 1.370 1_455 S
C113 C117 1.408 1_554 S
C114 C112 1.363 . S
C114 C115 1.370 1_655 S
C114 C118 1.524 . S
C115 C107 1.503 1_545 S
C115 C114 1.370 1_455 S
C115 C116 1.403 1_554 S
C116 C115 1.403 1_556 S
C116 C117 1.404 . S
C116 C119 1.539 . S
C117 C113 1.408 1_556 S
C117 C116 1.404 . S
C117 H129 0.930 . S
C118 C114 1.524 . S
C118 H130 0.956 . S
C118 H131 0.961 . S
C118 H132 0.961 . S
C119 C116 1.539 . S
C119 H133 0.958 . S
C119 H134 0.961 . S
C119 H135 0.960 1_545 S
H120 C104 0.931 . S
H121 C109 0.929 . S
H122 C110 0.960 . S
H123 C110 0.962 . S
H124 C110 0.960 . S
H125 C111 0.961 . S
H126 C111 0.961 1_545 S
H127 C111 0.961 . S
H128 C112 0.931 . S
H129 C117 0.930 . S
H130 C118 0.956 . S
H131 C118 0.961 . S
H132 C118 0.961 . S
H133 C119 0.958 . S
H134 C119 0.961 . S
H135 C119 0.960 1_565 S
C136 C137 1.391 1_655 S
C136 C138 1.394 . S
C136 H152 0.931 . S
C137 C136 1.391 1_455 S
C137 C141 1.376 . S
C138 C136 1.394 . S
C138 C139 1.369 1_655 S
C138 C142 1.531 . S
C139 C138 1.369 1_455 S
C139 C140 1.410 . S
C139 C147 1.503 1_465 S
C140 C139 1.410 . S
C140 C141 1.392 . S
C140 C143 1.511 . S
C141 C137 1.376 . S
C141 C140 1.392 . S
C141 H153 0.929 . S
C142 C138 1.531 . S
C142 H154 0.960 . S
C142 H155 0.962 . S
C142 H156 0.960 . S
C143 C140 1.511 . S
C143 H157 0.961 . S
C143 H158 0.961 1_565 S
C143 H159 0.961 1_565 S
C144 C145 1.370 . S
C144 C146 1.363 . S
C144 H160 0.931 . S
C145 C144 1.370 . S
C145 C149 1.408 . S
C146 C144 1.363 . S
C146 C147 1.370 . S
C146 C150 1.524 . S
C147 C139 1.503 1_645 S
C147 C146 1.370 . S
C147 C148 1.403 1_655 S
C148 C147 1.403 1_455 S
C148 C149 1.404 1_455 S
C148 C151 1.539 . S
C149 C145 1.408 . S
C149 C148 1.404 1_655 S
C149 H161 0.926 1_655 S
C150 C146 1.524 . S
C150 H162 0.956 1_545 S
C150 H163 0.979 1_545 S
C150 H164 0.961 . S
C151 C148 1.539 . S
C151 H165 0.958 . S
C151 H166 0.961 . S
C151 H167 0.960 . S
H152 C136 0.931 . S
H153 C141 0.929 . S
H154 C142 0.960 . S
H155 C142 0.962 . S
H156 C142 0.960 . S
H157 C143 0.961 . S
H158 C143 0.961 1_545 S
H159 C143 0.961 1_545 S
H160 C144 0.931 . S
H161 C149 0.926 1_455 S
H162 C150 0.956 1_565 S
H163 C150 0.979 1_565 S
H164 C150 0.961 . S
H165 C151 0.958 . S
H166 C151 0.961 . S
H167 C151 0.960 . S
C168 C169 1.391 . S
C168 C170 1.394 . S
C168 H184 0.931 . S
C169 C168 1.391 . S
C169 C173 1.376 1_554 S
C170 C168 1.394 . S
C170 C171 1.369 . S
C170 C174 1.531 . S
C171 C170 1.369 . S
C171 C172 1.410 1_554 S
C171 C179 1.503 . S
C172 C171 1.410 1_556 S
C172 C173 1.392 . S
C172 C175 1.511 . S
C173 C169 1.376 1_556 S
C173 C172 1.392 . S
C173 H185 0.929 . S
C174 C170 1.531 . S
C174 H186 0.960 . S
C174 H187 0.962 . S
C174 H188 0.960 . S
C175 C172 1.511 . S
C175 H189 0.961 . S
C175 H190 0.961 . S
C175 H191 0.961 . S
C176 C177 1.370 . S
C176 C178 1.363 . S
C176 H192 0.931 . S
C177 C176 1.370 . S
C177 C181 1.408 . S
C178 C176 1.363 . S
C178 C179 1.370 . S
C178 C182 1.524 . S
C179 C171 1.503 . S
C179 C178 1.370 . S
C179 C180 1.403 . S
C180 C179 1.403 . S
C180 C181 1.404 . S
C180 C183 1.539 . S
C181 C177 1.408 . S
C181 C180 1.404 . S
C181 H193 0.930 . S
C182 C178 1.524 . S
C182 H194 0.956 . S
C182 H195 0.961 1_554 S
C182 H196 0.961 1_554 S
C183 C180 1.539 . S
C183 H197 0.958 . S
C183 H198 0.961 . S
C183 H199 0.960 . S
H184 C168 0.931 . S
H185 C173 0.929 . S
H186 C174 0.960 . S
H187 C174 0.962 . S
H188 C174 0.960 . S
H189 C175 0.961 . S
H190 C175 0.961 . S
H191 C175 0.961 . S
H192 C176 0.931 . S
H193 C181 0.930 . S
H194 C182 0.956 . S
H195 C182 0.961 1_556 S
H196 C182 0.961 1_556 S
H197 C183 0.958 . S
H198 C183 0.961 . S
H199 C183 0.960 . S
C200 C201 1.391 . S
C200 C202 1.394 . S
C200 H216 0.931 . S
C201 C200 1.391 . S
C201 C205 1.376 . S
C202 C200 1.394 . S
C202 C203 1.369 . S
C202 C206 1.531 . S
C203 C202 1.369 . S
C203 C204 1.410 . S
C203 C211 1.503 . S
C204 C203 1.410 . S
C204 C205 1.392 . S
C204 C207 1.511 . S
C205 C201 1.376 . S
C205 C204 1.392 . S
C205 H217 0.929 . S
C206 C202 1.531 . S
C206 H218 0.960 . S
C206 H219 0.962 . S
C206 H220 0.960 . S
C207 C204 1.511 . S
C207 H221 0.961 . S
C207 H222 0.961 . S
C207 H223 0.961 . S
C208 C209 1.370 . S
C208 C210 1.363 . S
C208 H224 0.931 . S
C209 C208 1.370 . S
C209 C213 1.408 . S
C210 C208 1.363 . S
C210 C211 1.370 . S
C210 C214 1.524 . S
C211 C203 1.503 . S
C211 C210 1.370 . S
C211 C212 1.403 . S
C212 C211 1.403 . S
C212 C213 1.404 . S
C212 C215 1.539 . S
C213 C209 1.408 . S
C213 C212 1.404 . S
C213 H225 0.930 . S
C214 C210 1.524 . S
C214 H226 0.956 . S
C214 H227 0.961 . S
C214 H228 0.961 . S
C215 C212 1.539 . S
C215 H229 0.958 . S
C215 H230 0.961 . S
C215 H231 0.960 . S
H216 C200 0.931 . S
H217 C205 0.929 . S
H218 C206 0.960 . S
H219 C206 0.962 . S
H220 C206 0.960 . S
H221 C207 0.961 . S
H222 C207 0.961 . S
H223 C207 0.961 . S
H224 C208 0.931 . S
H225 C213 0.930 . S
H226 C214 0.956 . S
H227 C214 0.961 . S
H228 C214 0.961 . S
H229 C215 0.958 . S
H230 C215 0.961 . S
H231 C215 0.960 . S
C232 C233 1.391 1_655 S
C232 C234 1.394 . S
C232 H248 0.931 . S
C233 C232 1.391 1_455 S
C233 C237 1.376 . S
C234 C232 1.394 . S
C234 C235 1.369 1_655 S
C234 C238 1.531 . S
C235 C234 1.369 1_455 S
C235 C236 1.410 . S
C235 C243 1.503 . S
C236 C235 1.410 . S
C236 C237 1.392 . S
C236 C239 1.511 . S
C237 C233 1.376 . S
C237 C236 1.392 . S
C237 H249 0.929 . S
C238 C234 1.531 . S
C238 H250 0.960 . S
C238 H251 0.962 . S
C238 H252 0.960 . S
C239 C236 1.511 . S
C239 H253 0.961 . S
C239 H254 0.961 . S
C239 H255 0.961 . S
C240 C241 1.370 . S
C240 C242 1.363 . S
C240 H256 0.931 . S
C241 C240 1.370 . S
C241 C245 1.408 1_655 S
C242 C240 1.363 . S
C242 C243 1.370 1_655 S
C242 C246 1.524 . S
C243 C235 1.503 . S
C243 C242 1.370 1_455 S
C243 C244 1.403 . S
C244 C243 1.403 . S
C244 C245 1.404 . S
C244 C247 1.539 . S
C245 C241 1.408 1_455 S
C245 C244 1.404 . S
C245 H257 0.930 . S
C246 C242 1.524 . S
C246 H258 0.956 . S
C246 H259 0.961 . S
C246 H260 0.961 . S
C247 C244 1.539 . S
C247 H261 0.958 . S
C247 H262 0.961 . S
C247 H263 0.960 . S
H248 C232 0.931 . S
H249 C237 0.929 . S
H250 C238 0.960 . S
H251 C238 0.962 . S
H252 C238 0.960 . S
H253 C239 0.961 . S
H254 C239 0.961 . S
H255 C239 0.961 . S
H256 C240 0.931 . S
H257 C245 0.930 . S
H258 C246 0.956 . S
H259 C246 0.961 . S
H260 C246 0.961 . S
H261 C247 0.958 . S
H262 C247 0.961 . S
H263 C247 0.960 . S
C264 C265 1.391 . S
C264 C266 1.394 . S
C264 H280 0.931 . S
C265 C264 1.391 . S
C265 C269 1.376 1_455 S
C266 C264 1.394 . S
C266 C267 1.364 1_455 S
C266 C270 1.531 . S
C267 C266 1.364 1_655 S
C267 C268 1.414 . S
C267 C275 1.504 . S
C268 C267 1.414 . S
C268 C269 1.392 . S
C268 C271 1.511 . S
C269 C265 1.376 1_655 S
C269 C268 1.392 . S
C269 H281 0.929 . S
C270 C266 1.531 . S
C270 H282 0.960 . S
C270 H283 0.962 . S
C270 H284 0.960 . S
C271 C268 1.511 . S
C271 H285 0.961 . S
C271 H286 0.961 . S
C271 H287 0.961 . S
C272 C273 1.370 1_455 S
C272 C274 1.363 . S
C272 H288 0.931 . S
C273 C272 1.370 1_655 S
C273 C277 1.408 . S
C274 C272 1.363 . S
C274 C275 1.370 1_455 S
C274 C278 1.524 . S
C275 C267 1.504 . S
C275 C274 1.370 1_655 S
C275 C276 1.403 . S
C276 C275 1.403 . S
C276 C277 1.404 . S
C276 C279 1.539 . S
C277 C273 1.408 . S
C277 C276 1.404 . S
C277 H289 0.930 . S
C278 C274 1.524 . S
C278 H290 0.956 . S
C278 H291 0.961 1_455 S
C278 H292 0.961 . S
C279 C276 1.539 . S
C279 H293 0.958 . S
C279 H294 0.961 . S
C279 H295 0.960 . S
H280 C264 0.931 . S
H281 C269 0.929 . S
H282 C270 0.960 . S
H283 C270 0.962 . S
H284 C270 0.960 . S
H285 C271 0.961 . S
H286 C271 0.961 . S
H287 C271 0.961 . S
H288 C272 0.931 . S
H289 C277 0.930 . S
H290 C278 0.956 . S
H291 C278 0.961 1_655 S
H292 C278 0.961 . S
H293 C279 0.958 . S
H294 C279 0.961 . S
H295 C279 0.960 . S
C296 C297 1.391 1_655 S
C296 C298 1.394 . S
C296 H312 0.931 . S
C297 C296 1.391 1_455 S
C297 C301 1.376 . S
C298 C296 1.394 . S
C298 C299 1.369 1_655 S
C298 C302 1.531 . S
C299 C298 1.369 1_455 S
C299 C300 1.410 . S
C299 C307 1.503 . S
C300 C299 1.410 . S
C300 C301 1.392 . S
C300 C303 1.511 . S
C301 C297 1.376 . S
C301 C300 1.392 . S
C301 H313 0.929 . S
C302 C298 1.531 . S
C302 H314 0.960 . S
C302 H315 0.962 . S
C302 H316 0.960 . S
C303 C300 1.511 . S
C303 H317 0.961 . S
C303 H318 0.961 . S
C303 H319 0.961 . S
C304 C305 1.356 1_655 S
C304 C306 1.363 . S
C304 H320 0.931 . S
C305 C304 1.356 1_455 S
C305 C309 1.424 . S
C306 C304 1.363 . S
C306 C307 1.370 1_655 S
C306 C310 1.524 . S
C307 C299 1.503 . S
C307 C306 1.370 1_455 S
C307 C308 1.403 . S
C308 C307 1.403 . S
C308 C309 1.404 . S
C308 C311 1.539 . S
C309 C305 1.424 . S
C309 C308 1.404 . S
C309 H321 0.930 . S
C310 C306 1.524 . S
C310 H322 0.956 . S
C310 H323 0.961 . S
C310 H324 0.961 . S
C311 C308 1.539 . S
C311 H325 0.958 . S
C311 H326 0.961 . S
C311 H327 0.960 . S
H312 C296 0.931 . S
H313 C301 0.929 . S
H314 C302 0.960 . S
H315 C302 0.962 . S
H316 C302 0.960 . S
H317 C303 0.961 . S
H318 C303 0.961 . S
H319 C303 0.961 . S
H320 C304 0.931 . S
H321 C309 0.930 . S
H322 C310 0.956 . S
H323 C310 0.961 . S
H324 C310 0.961 . S
H325 C311 0.958 . S
H326 C311 0.961 . S
H327 C311 0.960 . S
C328 C329 1.407 . S
C328 C330 1.394 . S
C328 H344 0.931 . S
C329 C328 1.407 . S
C329 C333 1.361 1_655 S
C330 C328 1.394 . S
C330 C331 1.369 . S
C330 C334 1.531 . S
C331 C330 1.369 . S
C331 C332 1.410 1_655 S
C331 C339 1.503 . S
C332 C331 1.410 1_455 S
C332 C333 1.392 . S
C332 C335 1.511 . S
C333 C329 1.361 1_455 S
C333 C332 1.392 . S
C333 H345 0.929 . S
C334 C330 1.531 . S
C334 H346 0.960 . S
C334 H347 0.962 . S
C334 H348 0.960 . S
C335 C332 1.511 . S
C335 H349 0.961 . S
C335 H350 0.961 . S
C335 H351 0.961 . S
C336 C337 1.370 1_455 S
C336 C338 1.363 . S
C336 H352 0.931 . S
C337 C336 1.370 1_655 S
C337 C341 1.408 . S
C338 C336 1.363 . S
C338 C339 1.370 1_455 S
C338 C342 1.524 . S
C339 C331 1.503 . S
C339 C338 1.370 1_655 S
C339 C340 1.403 . S
C340 C339 1.403 . S
C340 C341 1.404 . S
C340 C343 1.539 . S
C341 C337 1.408 . S
C341 C340 1.404 . S
C341 H353 0.930 . S
C342 C338 1.524 . S
C342 H354 0.956 . S
C342 H355 0.961 . S
C342 H356 0.961 . S
C343 C340 1.539 . S
C343 H357 0.958 . S
C343 H358 0.961 . S
C343 H359 0.960 . S
H344 C328 0.931 . S
H345 C333 0.929 . S
H346 C334 0.960 . S
H347 C334 0.962 . S
H348 C334 0.960 . S
H349 C335 0.961 . S
H350 C335 0.961 . S
H351 C335 0.961 . S
H352 C336 0.931 . S
H353 C341 0.930 . S
H354 C342 0.956 . S
H355 C342 0.961 . S
H356 C342 0.961 . S
H357 C343 0.958 . S
H358 C343 0.961 . S
H359 C343 0.960 . S
C360 C361 1.391 . S
C360 C362 1.394 . S
C360 H376 0.931 . S
C361 C360 1.391 . S
C361 C365 1.376 . S
C362 C360 1.394 . S
C362 C363 1.369 . S
C362 C366 1.531 . S
C363 C362 1.369 . S
C363 C364 1.410 . S
C363 C371 1.503 . S
C364 C363 1.410 . S
C364 C365 1.392 . S
C364 C367 1.511 . S
C365 C361 1.376 . S
C365 C364 1.392 . S
C365 H377 0.929 . S
C366 C362 1.531 . S
C366 H378 0.960 . S
C366 H379 0.962 . S
C366 H380 0.960 . S
C367 C364 1.511 . S
C367 H381 0.961 . S
C367 H382 0.961 . S
C367 H383 0.961 . S
C368 C369 1.370 . S
C368 C370 1.363 . S
C368 H384 0.931 . S
C369 C368 1.370 . S
C369 C373 1.408 . S
C370 C368 1.363 . S
C370 C371 1.370 . S
C370 C374 1.524 . S
C371 C363 1.503 . S
C371 C370 1.370 . S
C371 C372 1.403 . S
C372 C371 1.403 . S
C372 C373 1.404 . S
C372 C375 1.539 . S
C373 C369 1.408 . S
C373 C372 1.404 . S
C373 H385 0.930 . S
C374 C370 1.524 . S
C374 H386 0.956 . S
C374 H387 0.961 . S
C374 H388 0.961 . S
C375 C372 1.539 . S
C375 H389 0.958 . S
C375 H390 0.961 . S
C375 H391 0.960 . S
H376 C360 0.931 . S
H377 C365 0.929 . S
H378 C366 0.960 . S
H379 C366 0.962 . S
H380 C366 0.960 . S
H381 C367 0.961 . S
H382 C367 0.961 . S
H383 C367 0.961 . S
H384 C368 0.931 . S
H385 C373 0.930 . S
H386 C374 0.956 . S
H387 C374 0.961 . S
H388 C374 0.961 . S
H389 C375 0.958 . S
H390 C375 0.961 . S
H391 C375 0.960 . S
C392 C393 1.391 . S
C392 C394 1.394 . S
C392 H408 0.931 . S
C393 C392 1.391 . S
C393 C397 1.376 . S
C394 C392 1.394 . S
C394 C395 1.369 . S
C394 C398 1.531 . S
C395 C394 1.369 . S
C395 C396 1.410 . S
C395 C403 1.503 . S
C396 C395 1.410 . S
C396 C397 1.392 . S
C396 C399 1.511 . S
C397 C393 1.376 . S
C397 C396 1.392 . S
C397 H409 0.929 . S
C398 C394 1.531 . S
C398 H410 0.960 . S
C398 H411 0.962 . S
C398 H412 0.960 . S
C399 C396 1.511 . S
C399 H413 0.961 . S
C399 H414 0.961 . S
C399 H415 0.961 . S
C400 C401 1.370 . S
C400 C402 1.363 . S
C400 H416 0.931 . S
C401 C400 1.370 . S
C401 C405 1.408 . S
C402 C400 1.363 . S
C402 C403 1.370 . S
C402 C406 1.524 . S
C403 C395 1.503 . S
C403 C402 1.370 . S
C403 C404 1.403 . S
C404 C403 1.403 . S
C404 C405 1.404 . S
C404 C407 1.539 . S
C405 C401 1.408 . S
C405 C404 1.404 . S
C405 H417 0.930 . S
C406 C402 1.524 . S
C406 H418 0.956 . S
C406 H419 0.961 . S
C406 H420 0.961 . S
C407 C404 1.539 . S
C407 H421 0.958 . S
C407 H422 0.961 . S
C407 H423 0.960 . S
H408 C392 0.931 . S
H409 C397 0.929 . S
H410 C398 0.960 . S
H411 C398 0.962 . S
H412 C398 0.960 . S
H413 C399 0.961 . S
H414 C399 0.961 . S
H415 C399 0.961 . S
H416 C400 0.931 . S
H417 C405 0.930 . S
H418 C406 0.956 . S
H419 C406 0.961 . S
H420 C406 0.961 . S
H421 C407 0.958 . S
H422 C407 0.961 . S
H423 C407 0.960 . S
C424 C425 1.391 . S
C424 C426 1.394 . S
C424 H440 0.931 . S
C425 C424 1.391 . S
C425 C429 1.376 . S
C426 C424 1.394 . S
C426 C427 1.369 . S
C426 C430 1.531 . S
C427 C426 1.369 . S
C427 C428 1.410 . S
C427 C435 1.503 . S
C428 C427 1.410 . S
C428 C429 1.392 . S
C428 C431 1.511 . S
C429 C425 1.376 . S
C429 C428 1.392 . S
C429 H441 0.929 . S
C430 C426 1.531 . S
C430 H442 0.960 . S
C430 H443 0.962 . S
C430 H444 0.960 . S
C431 C428 1.511 . S
C431 H445 0.961 . S
C431 H446 0.961 . S
C431 H447 0.961 . S
C432 C433 1.370 . S
C432 C434 1.363 . S
C432 H448 0.931 . S
C433 C432 1.370 . S
C433 C437 1.408 . S
C434 C432 1.363 . S
C434 C435 1.370 . S
C434 C438 1.524 . S
C435 C427 1.503 . S
C435 C434 1.370 . S
C435 C436 1.403 . S
C436 C435 1.403 . S
C436 C437 1.404 . S
C436 C439 1.539 . S
C437 C433 1.408 . S
C437 C436 1.404 . S
C437 H449 0.930 . S
C438 C434 1.524 . S
C438 H450 0.956 . S
C438 H451 0.961 . S
C438 H452 0.961 . S
C439 C436 1.539 . S
C439 H453 0.958 . S
C439 H454 0.961 . S
C439 H455 0.960 . S
H440 C424 0.931 . S
H441 C429 0.929 . S
H442 C430 0.960 . S
H443 C430 0.962 . S
H444 C430 0.960 . S
H445 C431 0.961 . S
H446 C431 0.961 . S
H447 C431 0.961 . S
H448 C432 0.931 . S
H449 C437 0.930 . S
H450 C438 0.956 . S
H451 C438 0.961 . S
H452 C438 0.961 . S
H453 C439 0.958 . S
H454 C439 0.961 . S
H455 C439 0.960 . S
C456 C457 1.391 . S
C456 C458 1.394 . S
C456 H472 0.931 . S
C457 C456 1.391 . S
C457 C461 1.376 . S
C458 C456 1.394 . S
C458 C459 1.369 . S
C458 C462 1.531 . S
C459 C458 1.369 . S
C459 C460 1.410 . S
C459 C467 1.503 . S
C460 C459 1.410 . S
C460 C461 1.392 . S
C460 C463 1.511 . S
C461 C457 1.376 . S
C461 C460 1.392 . S
C461 H473 0.929 . S
C462 C458 1.531 . S
C462 H474 0.960 . S
C462 H475 0.962 . S
C462 H476 0.960 . S
C463 C460 1.511 . S
C463 H477 0.961 . S
C463 H478 0.961 . S
C463 H479 0.961 . S
C464 C465 1.370 . S
C464 C466 1.363 . S
C464 H480 0.931 . S
C465 C464 1.370 . S
C465 C469 1.408 . S
C466 C464 1.363 . S
C466 C467 1.370 . S
C466 C470 1.524 . S
C467 C459 1.503 . S
C467 C466 1.370 . S
C467 C468 1.403 . S
C468 C467 1.403 . S
C468 C469 1.404 . S
C468 C471 1.539 . S
C469 C465 1.408 . S
C469 C468 1.404 . S
C469 H481 0.930 . S
C470 C466 1.524 . S
C470 H482 0.956 . S
C470 H483 0.961 . S
C470 H484 0.961 . S
C471 C468 1.539 . S
C471 H485 0.958 . S
C471 H486 0.961 . S
C471 H487 0.960 . S
H472 C456 0.931 . S
H473 C461 0.929 . S
H474 C462 0.960 . S
H475 C462 0.962 . S
H476 C462 0.960 . S
H477 C463 0.961 . S
H478 C463 0.961 . S
H479 C463 0.961 . S
H480 C464 0.931 . S
H481 C469 0.930 . S
H482 C470 0.956 . S
H483 C470 0.961 . S
H484 C470 0.961 . S
H485 C471 0.958 . S
H486 C471 0.961 . S
H487 C471 0.960 . S
C488 C489 1.391 . S
C488 C490 1.394 . S
C488 H504 0.931 1_554 S
C489 C488 1.391 . S
C489 C493 1.376 . S
C490 C488 1.394 . S
C490 C491 1.374 . S
C490 C494 1.525 1_554 S
C491 C490 1.374 . S
C491 C492 1.410 . S
C491 C499 1.503 . S
C492 C491 1.410 . S
C492 C493 1.392 . S
C492 C495 1.511 . S
C493 C489 1.376 . S
C493 C492 1.392 . S
C493 H505 0.929 . S
C494 C490 1.525 1_556 S
C494 H506 0.960 . S
C494 H507 0.962 . S
C494 H508 0.960 . S
C495 C492 1.511 . S
C495 H509 0.961 . S
C495 H510 0.961 . S
C495 H511 0.961 . S
C496 C497 1.370 . S
C496 C498 1.363 . S
C496 H512 0.931 . S
C497 C496 1.370 . S
C497 C501 1.408 . S
C498 C496 1.363 . S
C498 C499 1.370 . S
C498 C502 1.524 . S
C499 C491 1.503 . S
C499 C498 1.370 . S
C499 C500 1.403 . S
C500 C499 1.403 . S
C500 C501 1.404 . S
C500 C503 1.539 . S
C501 C497 1.408 . S
C501 C500 1.404 . S
C501 H513 0.930 . S
C502 C498 1.524 . S
C502 H514 0.956 . S
C502 H515 0.961 . S
C502 H516 0.961 . S
C503 C500 1.539 . S
C503 H517 0.958 1_554 S
C503 H518 0.961 . S
C503 H519 0.960 . S
H504 C488 0.931 1_556 S
H505 C493 0.929 . S
H506 C494 0.960 . S
H507 C494 0.962 . S
H508 C494 0.960 . S
H509 C495 0.961 . S
H510 C495 0.961 . S
H511 C495 0.961 . S
H512 C496 0.931 . S
H513 C501 0.930 . S
H514 C502 0.956 . S
H515 C502 0.961 . S
H516 C502 0.961 . S
H517 C503 0.958 1_556 S
H518 C503 0.961 . S
H519 C503 0.960 . S
C520 C521 1.391 . S
C520 C522 1.394 . S
C520 H536 0.931 . S
C521 C520 1.391 . S
C521 C525 1.376 . S
C522 C520 1.394 . S
C522 C523 1.369 . S
C522 C526 1.531 . S
C523 C522 1.369 . S
C523 C524 1.410 . S
C523 C531 1.503 . S
C524 C523 1.410 . S
C524 C525 1.392 . S
C524 C527 1.511 . S
C525 C521 1.376 . S
C525 C524 1.392 . S
C525 H537 0.929 . S
C526 C522 1.531 . S
C526 H538 0.960 . S
C526 H539 0.962 . S
C526 H540 0.960 . S
C527 C524 1.511 . S
C527 H541 0.961 1_554 S
C527 H542 0.961 1_554 S
C527 H543 0.961 . S
C528 C529 1.370 . S
C528 C530 1.363 . S
C528 H544 0.931 1_554 S
C529 C528 1.370 . S
C529 C533 1.408 . S
C530 C528 1.363 . S
C530 C531 1.370 . S
C530 C534 1.524 1_554 S
C531 C523 1.503 . S
C531 C530 1.370 . S
C531 C532 1.403 . S
C532 C531 1.403 . S
C532 C533 1.404 . S
C532 C535 1.539 . S
C533 C529 1.408 . S
C533 C532 1.404 . S
C533 H545 0.930 . S
C534 C530 1.524 1_556 S
C534 H546 0.956 . S
C534 H547 0.961 . S
C534 H548 0.961 . S
C535 C532 1.539 . S
C535 H549 0.958 . S
C535 H550 0.961 . S
C535 H551 0.960 . S
H536 C520 0.931 . S
H537 C525 0.929 . S
H538 C526 0.960 . S
H539 C526 0.962 . S
H540 C526 0.960 . S
H541 C527 0.961 1_556 S
H542 C527 0.961 1_556 S
H543 C527 0.961 . S
H544 C528 0.931 1_556 S
H545 C533 0.930 . S
H546 C534 0.956 . S
H547 C534 0.961 . S
H548 C534 0.961 . S
H549 C535 0.958 . S
H550 C535 0.961 . S
H551 C535 0.960 . S
C552 C553 1.391 . S
C552 C554 1.394 . S
C552 H568 0.931 . S
C553 C552 1.391 . S
C553 C557 1.376 . S
C554 C552 1.394 . S
C554 C555 1.369 . S
C554 C558 1.531 . S
C555 C554 1.369 . S
C555 C556 1.410 . S
C555 C563 1.503 . S
C556 C555 1.410 . S
C556 C557 1.392 . S
C556 C559 1.511 . S
C557 C553 1.376 . S
C557 C556 1.392 . S
C557 H569 0.929 . S
C558 C554 1.531 . S
C558 H570 0.960 . S
C558 H571 0.962 . S
C558 H572 0.960 . S
C559 C556 1.511 . S
C559 H573 0.961 . S
C559 H574 0.961 . S
C559 H575 0.961 . S
C560 C561 1.370 . S
C560 C562 1.363 . S
C560 H576 0.931 . S
C561 C560 1.370 . S
C561 C565 1.408 . S
C562 C560 1.363 . S
C562 C563 1.370 . S
C562 C566 1.524 . S
C563 C555 1.503 . S
C563 C562 1.370 . S
C563 C564 1.403 . S
C564 C563 1.403 . S
C564 C565 1.404 . S
C564 C567 1.539 . S
C565 C561 1.408 . S
C565 C564 1.404 . S
C565 H577 0.930 . S
C566 C562 1.524 . S
C566 H578 0.956 . S
C566 H579 0.961 . S
C566 H580 0.961 . S
C567 C564 1.539 . S
C567 H581 0.958 . S
C567 H582 0.961 . S
C567 H583 0.960 . S
H568 C552 0.931 . S
H569 C557 0.929 . S
H570 C558 0.960 . S
H571 C558 0.962 . S
H572 C558 0.960 . S
H573 C559 0.961 . S
H574 C559 0.961 . S
H575 C559 0.961 . S
H576 C560 0.931 . S
H577 C565 0.930 . S
H578 C566 0.956 . S
H579 C566 0.961 . S
H580 C566 0.961 . S
H581 C567 0.958 . S
H582 C567 0.961 . S
H583 C567 0.960 . S
C584 C585 1.391 . S
C584 C586 1.394 . S
C584 H600 0.931 . S
C585 C584 1.391 . S
C585 C589 1.376 . S
C586 C584 1.394 . S
C586 C587 1.369 . S
C586 C590 1.531 . S
C587 C586 1.369 . S
C587 C588 1.410 . S
C587 C595 1.503 . S
C588 C587 1.410 . S
C588 C589 1.392 . S
C588 C591 1.511 . S
C589 C585 1.376 . S
C589 C588 1.392 . S
C589 H601 0.929 . S
C590 C586 1.531 . S
C590 H602 0.960 . S
C590 H603 0.962 . S
C590 H604 0.960 . S
C591 C588 1.511 . S
C591 H605 0.961 . S
C591 H606 0.961 . S
C591 H607 0.961 . S
C592 C593 1.370 . S
C592 C594 1.363 . S
C592 H608 0.931 . S
C593 C592 1.370 . S
C593 C597 1.408 . S
C594 C592 1.363 . S
C594 C595 1.370 . S
C594 C598 1.524 . S
C595 C587 1.503 . S
C595 C594 1.370 . S
C595 C596 1.403 . S
C596 C595 1.403 . S
C596 C597 1.404 . S
C596 C599 1.539 . S
C597 C593 1.408 . S
C597 C596 1.404 . S
C597 H609 0.930 . S
C598 C594 1.524 . S
C598 H610 0.956 . S
C598 H611 0.961 . S
C598 H612 0.961 . S
C599 C596 1.539 . S
C599 H613 0.958 . S
C599 H614 0.961 . S
C599 H615 0.960 . S
H600 C584 0.931 . S
H601 C589 0.929 . S
H602 C590 0.960 . S
H603 C590 0.962 . S
H604 C590 0.960 . S
H605 C591 0.961 . S
H606 C591 0.961 . S
H607 C591 0.961 . S
H608 C592 0.931 . S
H609 C597 0.930 . S
H610 C598 0.956 . S
H611 C598 0.961 . S
H612 C598 0.961 . S
H613 C599 0.958 . S
H614 C599 0.961 . S
H615 C599 0.960 . S
C105 C16 1.513 . S
C113 C5 1.520 . S
C137 C31 1.520 . S
C145 C44 1.518 . S
C169 C55 1.508 . S
C177 C70 1.520 . S
C201 C81 1.507 . S
C209 C94 1.517 . S
C233 C10 1.332 . S
C241 C49 1.353 . S
C265 C36 1.370 . S
C273 C17 1.358 . S
C297 C29 1.309 . S
C305 C18 1.335 1_455 S
C329 C3 1.339 1_655 S
C337 C42 1.330 . S
C361 C56 1.373 . S
C369 C95 1.354 . S
C393 C82 1.373 . S
C401 C75 1.352 . S
C425 C68 1.310 . S
C433 C83 1.326 . S
C457 C57 1.350 . S
C465 C96 1.318 . S
C489 C69 1.518 . S
C497 C4 1.520 . S
C521 C62 1.518 . S
C529 C23 1.522 . S
C553 C30 1.518 . S
C561 C101 1.522 . S
C585 C88 1.516 . S
C593 C43 1.520 . S
