# Generated by pormake.
# Topology umu, (4)-cn, num edge types: 1
# Building blocks:
#     Node 0, Type 0, BuildingBlock: TATPOV_clean_sbu_0, # of connection points: 4
#     Node 1, Type 0, BuildingBlock: TATPOV_clean_sbu_0, # of connection points: 4
#     Node 2, Type 0, BuildingBlock: TATPOV_clean_sbu_0, # of connection points: 4
#     Node 3, Type 0, BuildingBlock: TATPOV_clean_sbu_0, # of connection points: 4
#     Node 4, Type 0, BuildingBlock: TATPOV_clean_sbu_0, # of connection points: 4
#     Node 5, Type 0, BuildingBlock: TATPOV_clean_sbu_0, # of connection points: 4
#     Node 6, Type 0, BuildingBlock: TATPOV_clean_sbu_0, # of connection points: 4
#     Node 7, Type 0, BuildingBlock: TATPOV_clean_sbu_0, # of connection points: 4
#     Node 8, Type 0, BuildingBlock: TATPOV_clean_sbu_0, # of connection points: 4
#     Node 9, Type 0, BuildingBlock: TATPOV_clean_sbu_0, # of connection points: 4
#     Node 10, Type 0, BuildingBlock: TATPOV_clean_sbu_0, # of connection points: 4
#     Node 11, Type 0, BuildingBlock: TATPOV_clean_sbu_0, # of connection points: 4
#     Node 12, Type 0, BuildingBlock: TATPOV_clean_sbu_0, # of connection points: 4
#     Node 13, Type 0, BuildingBlock: TATPOV_clean_sbu_0, # of connection points: 4
#     Node 14, Type 0, BuildingBlock: TATPOV_clean_sbu_0, # of connection points: 4
#     Node 15, Type 0, BuildingBlock: TATPOV_clean_sbu_0, # of connection points: 4
#     Node 16, Type 0, BuildingBlock: TATPOV_clean_sbu_0, # of connection points: 4
#     Node 17, Type 0, BuildingBlock: TATPOV_clean_sbu_0, # of connection points: 4
#     Node 18, Type 0, BuildingBlock: TATPOV_clean_sbu_0, # of connection points: 4
#     Node 19, Type 0, BuildingBlock: TATPOV_clean_sbu_0, # of connection points: 4
#     Node 20, Type 0, BuildingBlock: TATPOV_clean_sbu_0, # of connection points: 4
#     Node 21, Type 0, BuildingBlock: TATPOV_clean_sbu_0, # of connection points: 4
#     Node 22, Type 0, BuildingBlock: TATPOV_clean_sbu_0, # of connection points: 4
#     Node 23, Type 0, BuildingBlock: TATPOV_clean_sbu_0, # of connection points: 4
#     Node 24, Type 0, BuildingBlock: TATPOV_clean_sbu_0, # of connection points: 4
#     Node 25, Type 0, BuildingBlock: TATPOV_clean_sbu_0, # of connection points: 4
#     Node 26, Type 0, BuildingBlock: TATPOV_clean_sbu_0, # of connection points: 4
#     Node 27, Type 0, BuildingBlock: TATPOV_clean_sbu_0, # of connection points: 4
#     Node 28, Type 0, BuildingBlock: TATPOV_clean_sbu_0, # of connection points: 4
#     Node 29, Type 0, BuildingBlock: TATPOV_clean_sbu_0, # of connection points: 4
#     Node 30, Type 0, BuildingBlock: TATPOV_clean_sbu_0, # of connection points: 4
#     Node 31, Type 0, BuildingBlock: TATPOV_clean_sbu_0, # of connection points: 4
#     Edge 32, Type (0, 0), BuildingBlock: CIFDUS_clean_linker_0, # of connection points: 2
#     Edge 33, Type (0, 0), BuildingBlock: CIFDUS_clean_linker_0, # of connection points: 2
#     Edge 34, Type (0, 0), BuildingBlock: CIFDUS_clean_linker_0, # of connection points: 2
#     Edge 35, Type (0, 0), BuildingBlock: CIFDUS_clean_linker_0, # of connection points: 2
#     Edge 36, Type (0, 0), BuildingBlock: CIFDUS_clean_linker_0, # of connection points: 2
#     Edge 37, Type (0, 0), BuildingBlock: CIFDUS_clean_linker_0, # of connection points: 2
#     Edge 38, Type (0, 0), BuildingBlock: CIFDUS_clean_linker_0, # of connection points: 2
#     Edge 39, Type (0, 0), BuildingBlock: CIFDUS_clean_linker_0, # of connection points: 2
#     Edge 40, Type (0, 0), BuildingBlock: CIFDUS_clean_linker_0, # of connection points: 2
#     Edge 41, Type (0, 0), BuildingBlock: CIFDUS_clean_linker_0, # of connection points: 2
#     Edge 42, Type (0, 0), BuildingBlock: CIFDUS_clean_linker_0, # of connection points: 2
#     Edge 43, Type (0, 0), BuildingBlock: CIFDUS_clean_linker_0, # of connection points: 2
#     Edge 44, Type (0, 0), BuildingBlock: CIFDUS_clean_linker_0, # of connection points: 2
#     Edge 45, Type (0, 0), BuildingBlock: CIFDUS_clean_linker_0, # of connection points: 2
#     Edge 46, Type (0, 0), BuildingBlock: CIFDUS_clean_linker_0, # of connection points: 2
#     Edge 47, Type (0, 0), BuildingBlock: CIFDUS_clean_linker_0, # of connection points: 2
#     Edge 48, Type (0, 0), BuildingBlock: CIFDUS_clean_linker_0, # of connection points: 2
#     Edge 49, Type (0, 0), BuildingBlock: CIFDUS_clean_linker_0, # of connection points: 2
#     Edge 50, Type (0, 0), BuildingBlock: CIFDUS_clean_linker_0, # of connection points: 2
#     Edge 51, Type (0, 0), BuildingBlock: CIFDUS_clean_linker_0, # of connection points: 2
#     Edge 52, Type (0, 0), BuildingBlock: CIFDUS_clean_linker_0, # of connection points: 2
#     Edge 53, Type (0, 0), BuildingBlock: CIFDUS_clean_linker_0, # of connection points: 2
#     Edge 54, Type (0, 0), BuildingBlock: CIFDUS_clean_linker_0, # of connection points: 2
#     Edge 55, Type (0, 0), BuildingBlock: CIFDUS_clean_linker_0, # of connection points: 2
#     Edge 56, Type (0, 0), BuildingBlock: CIFDUS_clean_linker_0, # of connection points: 2
#     Edge 57, Type (0, 0), BuildingBlock: CIFDUS_clean_linker_0, # of connection points: 2
#     Edge 58, Type (0, 0), BuildingBlock: CIFDUS_clean_linker_0, # of connection points: 2
#     Edge 59, Type (0, 0), BuildingBlock: CIFDUS_clean_linker_0, # of connection points: 2
#     Edge 60, Type (0, 0), BuildingBlock: CIFDUS_clean_linker_0, # of connection points: 2
#     Edge 61, Type (0, 0), BuildingBlock: CIFDUS_clean_linker_0, # of connection points: 2
#     Edge 62, Type (0, 0), BuildingBlock: CIFDUS_clean_linker_0, # of connection points: 2
#     Edge 63, Type (0, 0), BuildingBlock: CIFDUS_clean_linker_0, # of connection points: 2
#     Edge 64, Type (0, 0), BuildingBlock: CIFDUS_clean_linker_0, # of connection points: 2
#     Edge 65, Type (0, 0), BuildingBlock: CIFDUS_clean_linker_0, # of connection points: 2
#     Edge 66, Type (0, 0), BuildingBlock: CIFDUS_clean_linker_0, # of connection points: 2
#     Edge 67, Type (0, 0), BuildingBlock: CIFDUS_clean_linker_0, # of connection points: 2
#     Edge 68, Type (0, 0), BuildingBlock: CIFDUS_clean_linker_0, # of connection points: 2
#     Edge 69, Type (0, 0), BuildingBlock: CIFDUS_clean_linker_0, # of connection points: 2
#     Edge 70, Type (0, 0), BuildingBlock: CIFDUS_clean_linker_0, # of connection points: 2
#     Edge 71, Type (0, 0), BuildingBlock: CIFDUS_clean_linker_0, # of connection points: 2
#     Edge 72, Type (0, 0), BuildingBlock: CIFDUS_clean_linker_0, # of connection points: 2
#     Edge 73, Type (0, 0), BuildingBlock: CIFDUS_clean_linker_0, # of connection points: 2
#     Edge 74, Type (0, 0), BuildingBlock: CIFDUS_clean_linker_0, # of connection points: 2
#     Edge 75, Type (0, 0), BuildingBlock: CIFDUS_clean_linker_0, # of connection points: 2
#     Edge 76, Type (0, 0), BuildingBlock: CIFDUS_clean_linker_0, # of connection points: 2
#     Edge 77, Type (0, 0), BuildingBlock: CIFDUS_clean_linker_0, # of connection points: 2
#     Edge 78, Type (0, 0), BuildingBlock: CIFDUS_clean_linker_0, # of connection points: 2
#     Edge 79, Type (0, 0), BuildingBlock: CIFDUS_clean_linker_0, # of connection points: 2
#     Edge 80, Type (0, 0), BuildingBlock: CIFDUS_clean_linker_0, # of connection points: 2
#     Edge 81, Type (0, 0), BuildingBlock: CIFDUS_clean_linker_0, # of connection points: 2
#     Edge 82, Type (0, 0), BuildingBlock: CIFDUS_clean_linker_0, # of connection points: 2
#     Edge 83, Type (0, 0), BuildingBlock: CIFDUS_clean_linker_0, # of connection points: 2
#     Edge 84, Type (0, 0), BuildingBlock: CIFDUS_clean_linker_0, # of connection points: 2
#     Edge 85, Type (0, 0), BuildingBlock: CIFDUS_clean_linker_0, # of connection points: 2
#     Edge 86, Type (0, 0), BuildingBlock: CIFDUS_clean_linker_0, # of connection points: 2
#     Edge 87, Type (0, 0), BuildingBlock: CIFDUS_clean_linker_0, # of connection points: 2
#     Edge 88, Type (0, 0), BuildingBlock: CIFDUS_clean_linker_0, # of connection points: 2
#     Edge 89, Type (0, 0), BuildingBlock: CIFDUS_clean_linker_0, # of connection points: 2
#     Edge 90, Type (0, 0), BuildingBlock: CIFDUS_clean_linker_0, # of connection points: 2
#     Edge 91, Type (0, 0), BuildingBlock: CIFDUS_clean_linker_0, # of connection points: 2
#     Edge 92, Type (0, 0), BuildingBlock: CIFDUS_clean_linker_0, # of connection points: 2
#     Edge 93, Type (0, 0), BuildingBlock: CIFDUS_clean_linker_0, # of connection points: 2
#     Edge 94, Type (0, 0), BuildingBlock: CIFDUS_clean_linker_0, # of connection points: 2
#     Edge 95, Type (0, 0), BuildingBlock: CIFDUS_clean_linker_0, # of connection points: 2
# Relax obj value: 0.144
# Max RMSD: 0.105
# Mean RMSD: 0.105
data_MOF--net-umu--node1-TATPOV_clean_sbu_0--edge1-CIFDUS_clean_linker_0
_symmetry_space_group_name_H-M    P1
_symmetry_Int_Tables_number       1
_symmetry_cell_setting            triclinic
loop_
_symmetry_equiv_pos_as_xyz
'x, y, z'
_cell_length_a     74.015502
_cell_length_b     73.995845
_cell_length_c     21.817513
_cell_angle_alpha  89.93973
_cell_angle_beta   89.974715
_cell_angle_gamma 90.038004
loop_
_atom_site_label
_atom_site_type_symbol
_atom_site_fract_x
_atom_site_fract_y
_atom_site_fract_z
_atom_type_partial_charge
Zn0 Zn 0.23373 0.17804 0.05502 0.0
Zn1 Zn 0.2029 0.16237 0.02898 0.0
O2 O 0.21269 0.14688 0.10215 0.0
O3 O 0.24019 0.15797 0.11062 0.0
O4 O 0.18109 0.14891 -0.00294 0.0
O5 O 0.24338 0.17695 0.97015 0.0
O6 O 0.2183 0.16204 0.95079 0.0
C7 C 0.22848 0.14637 0.12576 0.0
C8 C 0.20293 0.20131 0.07385 0.0
O9 O 0.19413 0.18826 0.04998 0.0
O10 O 0.21969 0.19971 0.08424 0.0
C11 C 0.16554 0.14715 0.021 0.0
O12 O 0.16223 0.15457 0.07451 0.0
C13 C 0.23347 0.16831 0.93328 0.0
Zn14 Zn 0.0728 0.98592 0.28882 0.0
Zn15 Zn 0.09072 0.95704 0.2699 0.0
O16 O 0.10689 0.97134 0.33264 0.0
O17 O 0.09318 0.9977 0.33063 0.0
O18 O 0.10577 0.93553 0.24412 0.0
O19 O 0.0696 0.99227 0.20155 0.0
O20 O 0.08802 0.96938 0.18604 0.0
C21 C 0.10639 0.98808 0.34708 0.0
C22 C 0.05325 0.9551 0.3286 0.0
O23 O 0.06613 0.94684 0.30156 0.0
O24 O 0.05382 0.9721 0.33444 0.0
C25 C 0.10699 0.9201 0.26941 0.0
O26 O 0.09799 0.91689 0.32019 0.0
C27 C 0.079 0.98275 0.16575 0.0
Zn28 Zn 0.27964 0.8232 0.55151 0.0
Zn29 Zn 0.30948 0.84094 0.52481 0.0
O30 O 0.29868 0.85511 0.59961 0.0
O31 O 0.27198 0.84225 0.60929 0.0
O32 O 0.33028 0.85662 0.49484 0.0
O33 O 0.26952 0.82437 0.4672 0.0
O34 O 0.29389 0.84032 0.44665 0.0
C35 C 0.28305 0.85445 0.62443 0.0
C36 C 0.31215 0.80189 0.5675 0.0
O37 O 0.32009 0.81557 0.54411 0.0
O38 O 0.29533 0.80235 0.57828 0.0
C39 C 0.32545 0.87139 0.46975 0.0
O40 O 0.30819 0.87557 0.46955 0.0
C41 C 0.27891 0.83344 0.42989 0.0
Zn42 Zn 0.44453 0.03259 0.80867 0.0
Zn43 Zn 0.42446 0.05675 0.77858 0.0
O44 O 0.40972 0.04373 0.84763 0.0
O45 O 0.42427 0.01796 0.84259 0.0
O46 O 0.40819 0.07652 0.74566 0.0
O47 O 0.45299 0.02711 0.72373 0.0
O48 O 0.4275 0.04086 0.70187 0.0
C49 C 0.41087 0.02697 0.86122 0.0
C50 C 0.46052 0.06425 0.84208 0.0
O51 O 0.44865 0.06955 0.80361 0.0
O52 O 0.45967 0.0483 0.8627 0.0
C53 C 0.40594 0.09202 0.76951 0.0
O54 O 0.41434 0.09596 0.82084 0.0
C55 C 0.44074 0.03098 0.68568 0.0
Zn56 Zn 0.23216 0.82531 0.98388 0.0
Zn57 Zn 0.20291 0.84338 0.00422 0.0
O58 O 0.21602 0.85784 0.93425 0.0
O59 O 0.24266 0.84467 0.93271 0.0
O60 O 0.18177 0.85925 0.02867 0.0
O61 O 0.24006 0.82422 0.07029 0.0
O62 O 0.21655 0.84175 0.0869 0.0
C63 C 0.23228 0.8571 0.91452 0.0
C64 C 0.20001 0.80567 0.95073 0.0
O65 O 0.19184 0.81893 0.9757 0.0
O66 O 0.21706 0.80569 0.94606 0.0
C67 C 0.17335 0.85596 0.07837 0.0
O68 O 0.17768 0.84148 0.11002 0.0
C69 C 0.23062 0.83364 0.10629 0.0
Zn70 Zn 0.43399 0.98731 0.23735 0.0
Zn71 Zn 0.41651 0.96088 0.25646 0.0
O72 O 0.4027 0.9742 0.18561 0.0
O73 O 0.41341 1.0013 0.20294 0.0
O74 O 0.40068 0.93965 0.28033 0.0
O75 O 0.44096 0.99187 0.32377 0.0
O76 O 0.417 0.97495 0.33831 0.0
C77 C 0.40215 0.99124 0.17612 0.0
C78 C 0.4534 0.95802 0.19689 0.0
O79 O 0.44188 0.95044 0.23217 0.0
O80 O 0.45124 0.9744 0.18215 0.0
C81 C 0.40635 0.92762 0.31739 0.0
O82 O 0.42325 0.92817 0.33567 0.0
C83 C 0.42888 0.98579 0.35908 0.0
Zn84 Zn 0.27533 0.17631 0.48234 0.0
Zn85 Zn 0.30605 0.16161 0.50013 0.0
O86 O 0.29375 0.14562 0.43244 0.0
O87 O 0.26584 0.15569 0.43518 0.0
O88 O 0.32872 0.14777 0.52326 0.0
O89 O 0.26813 0.17782 0.56913 0.0
O90 O 0.29306 0.16225 0.5841 0.0
C91 C 0.27725 0.14443 0.41553 0.0
C92 C 0.30454 0.19908 0.44366 0.0
O93 O 0.31428 0.18705 0.46953 0.0
O94 O 0.28761 0.19699 0.43994 0.0
C95 C 0.33698 0.15179 0.57261 0.0
O96 O 0.33161 0.16594 0.60403 0.0
C97 C 0.27859 0.16935 0.60461 0.0
Zn98 Zn 0.07364 0.0258 0.71334 0.0
Zn99 Zn 0.09214 0.05453 0.73578 0.0
O100 O 0.10772 0.04112 0.66926 0.0
O101 O 0.09358 0.01496 0.66652 0.0
O102 O 0.10741 0.07591 0.76193 0.0
O103 O 0.07165 0.01826 0.80014 0.0
O104 O 0.0902 0.04096 0.81755 0.0
C105 C 0.10686 0.0247 0.65141 0.0
C106 C 0.05382 0.05744 0.68364 0.0
O107 O 0.06721 0.06511 0.70977 0.0
O108 O 0.05413 0.04058 0.674 0.0
C109 C 0.10327 0.08415 0.81119 0.0
O110 O 0.08838 0.07955 0.84007 0.0
C111 C 0.08135 0.0273 0.83653 0.0
Zn112 Zn 0.77975 0.82223 0.00011 0.0
Zn113 Zn 0.8055 0.84202 0.03058 0.0
O114 O 0.7961 0.85391 0.94949 0.0
O115 O 0.76951 0.8408 0.94407 0.0
O116 O 0.82585 0.8583 0.05866 0.0
O117 O 0.76996 0.82051 0.08502 0.0
O118 O 0.78776 0.84364 0.10366 0.0
C119 C 0.78043 0.85271 0.92536 0.0
C120 C 0.81199 0.80285 -0.00777 0.0
O121 O 0.81737 0.81656 0.02259 0.0
O122 O 0.79634 0.80283 0.96901 0.0
C123 C 0.8321 0.8564 0.11263 0.0
O124 O 0.82564 0.84343 0.14753 0.0
C125 C 0.77512 0.83302 0.12032 0.0
Zn126 Zn 0.92791 0.02549 0.73502 0.0
Zn127 Zn 0.91532 0.0574 0.75604 0.0
O128 O 0.89762 0.04624 0.69153 0.0
O129 O 0.90582 0.01772 0.69132 0.0
O130 O 0.90357 0.08075 0.78412 0.0
O131 O 0.93034 0.01818 0.82188 0.0
O132 O 0.917 0.04421 0.83946 0.0
C133 C 0.89507 0.02996 0.67413 0.0
C134 C 0.95146 0.05396 0.69207 0.0
O135 O 0.94041 0.0643 0.72005 0.0
O136 O 0.94848 0.03712 0.6892 0.0
C137 C 0.88924 0.08758 0.76174 0.0
O138 O 0.88198 0.08023 0.71282 0.0
C139 C 0.9234 0.02928 0.85891 0.0
Zn140 Zn 0.73996 0.18823 0.51913 0.0
Zn141 Zn 0.71076 0.17076 0.54439 0.0
O142 O 0.72129 0.15753 0.4674 0.0
O143 O 0.74854 0.16936 0.46216 0.0
O144 O 0.68954 0.15509 0.57028 0.0
O145 O 0.7499 0.18779 0.60337 0.0
O146 O 0.72664 0.17018 0.62295 0.0
C147 C 0.73709 0.15793 0.44382 0.0
C148 C 0.70791 0.20938 0.49867 0.0
O149 O 0.70003 0.19606 0.52462 0.0
O150 O 0.72472 0.20883 0.48819 0.0
C151 C 0.68245 0.15721 0.62298 0.0
O152 O 0.68833 0.17037 0.65813 0.0
C153 C 0.74131 0.17771 0.63994 0.0
Zn154 Zn 0.57566 0.99049 0.25217 0.0
Zn155 Zn 0.59262 0.96165 0.29393 0.0
O156 O 0.6096 0.97021 0.22316 0.0
O157 O 0.59701 0.99639 0.20113 0.0
O158 O 0.60613 0.94116 0.33484 0.0
O159 O 0.57437 1.0026 0.33356 0.0
O160 O 0.59071 0.97958 0.36546 0.0
C161 C 0.60981 0.98526 0.19454 0.0
C162 C 0.55488 0.95787 0.23818 0.0
O163 O 0.56777 0.95089 0.26895 0.0
O164 O 0.55565 0.97428 0.22188 0.0
C165 C 0.61362 0.92809 0.30694 0.0
O166 O 0.61239 0.92716 0.24695 0.0
C167 C 0.58313 0.99475 0.37552 0.0
Zn168 Zn 0.76136 0.1848 0.12352 0.0
Zn169 Zn 0.8073 0.16654 0.04943 0.0
O170 O 0.80496 0.14938 0.12515 0.0
O171 O 0.78311 0.16825 0.12481 0.0
O172 O 0.82505 0.15551 0.98974 0.0
O173 O 0.75409 0.17831 0.03568 0.0
O174 O 0.78175 0.16917 0.00413 0.0
C175 C 0.79026 0.1545 0.14899 0.0
C176 C 0.80202 0.19884 0.10305 0.0
O177 O 0.8158 0.19212 0.07709 0.0
O178 O 0.78852 0.18838 0.10747 0.0
C179 C 0.84106 0.1516 0.0061 0.0
O180 O 0.84621 0.15544 0.06223 0.0
C181 C 0.76484 0.17233 -0.00591 0.0
Zn182 Zn 0.58269 0.02707 0.84769 0.0
Zn183 Zn 0.59845 0.05586 0.81204 0.0
O184 O 0.61509 0.04609 0.88267 0.0
O185 O 0.60366 0.01895 0.89575 0.0
O186 O 0.61232 0.07722 0.77762 0.0
O187 O 0.57999 0.01614 0.76581 0.0
O188 O 0.59628 0.03943 0.73551 0.0
C189 C 0.61583 0.03041 0.90712 0.0
C190 C 0.56143 0.05841 0.87235 0.0
O191 O 0.57361 0.06615 0.8403 0.0
O192 O 0.56289 0.04183 0.88575 0.0
C193 C 0.6168 0.09093 0.8092 0.0
O194 O 0.61199 0.09168 0.86712 0.0
C195 C 0.58838 0.02447 0.72409 0.0
Zn196 Zn 0.72713 0.82089 0.56943 0.0
Zn197 Zn 0.70154 0.83976 0.53993 0.0
O198 O 0.71381 0.85404 0.61135 0.0
O199 O 0.74059 0.84145 0.60718 0.0
O200 O 0.68163 0.85579 0.50678 0.0
O201 O 0.73337 0.81293 0.48473 0.0
O202 O 0.7172 0.83689 0.4619 0.0
C203 C 0.73036 0.85367 0.62788 0.0
C204 C 0.69497 0.80437 0.60576 0.0
O205 O 0.68879 0.81589 0.5676 0.0
O206 O 0.71137 0.80516 0.62173 0.0
C207 C 0.67303 0.86794 0.53577 0.0
O208 O 0.67643 0.87049 0.59423 0.0
C209 C 0.72811 0.82444 0.44596 0.0
Zn210 Zn 0.9278 0.99025 0.31817 0.0
Zn211 Zn 0.9146 0.95862 0.29498 0.0
O212 O 0.89734 0.96916 0.36184 0.0
O213 O 0.90612 0.99752 0.36527 0.0
O214 O 0.90214 0.93579 0.2672 0.0
O215 O 0.92934 0.99822 0.23148 0.0
O216 O 0.91588 0.9723 0.21266 0.0
C217 C 0.8952 0.98528 0.38141 0.0
C218 C 0.95146 0.96101 0.35436 0.0
O219 O 0.93988 0.9511 0.3271 0.0
O220 O 0.94877 0.97785 0.35958 0.0
C221 C 0.89589 0.9234 0.30155 0.0
O222 O 0.8981 0.92459 0.36116 0.0
C223 C 0.9222 0.98736 0.19401 0.0
Zn224 Zn 0.72575 0.68877 0.5889 0.0
Zn225 Zn 0.70253 0.66718 0.5546 0.0
O226 O 0.71402 0.65501 0.63142 0.0
O227 O 0.73942 0.67023 0.63649 0.0
O228 O 0.68439 0.64853 0.52721 0.0
O229 O 0.73354 0.69445 0.50331 0.0
O230 O 0.7195 0.66918 0.47981 0.0
C231 C 0.72984 0.65701 0.65351 0.0
C232 C 0.69187 0.7041 0.60411 0.0
O233 O 0.68804 0.69098 0.56848 0.0
O234 O 0.70727 0.70469 0.62916 0.0
C235 C 0.67383 0.65059 0.48179 0.0
O236 O 0.6739 0.666 0.45183 0.0
C237 C 0.73001 0.68213 0.46512 0.0
Zn238 Zn 0.5831 0.48471 0.80555 0.0
Zn239 Zn 0.59809 0.4567 0.78115 0.0
O240 O 0.61217 0.46738 0.85586 0.0
O241 O 0.60445 0.49579 0.84634 0.0
O242 O 0.61258 0.43471 0.75582 0.0
O243 O 0.57732 0.4918 0.72028 0.0
O244 O 0.59863 0.47199 0.70111 0.0
C245 C 0.61413 0.48388 0.87163 0.0
C246 C 0.56132 0.45558 0.8404 0.0
O247 O 0.5723 0.44744 0.80471 0.0
O248 O 0.56439 0.4718 0.85545 0.0
C249 C 0.60946 0.42729 0.70428 0.0
O250 O 0.59596 0.43328 0.67086 0.0
C251 C 0.58821 0.48462 0.68307 0.0
Zn252 Zn 0.75995 0.32633 0.07024 0.0
Zn253 Zn 0.79002 0.34217 0.03824 0.0
O254 O 0.77859 0.36069 0.09915 0.0
O255 O 0.75192 0.34821 0.11367 0.0
O256 O 0.81245 0.35508 0.00731 0.0
O257 O 0.751 0.32393 0.98553 0.0
O258 O 0.77531 0.33939 0.95934 0.0
C259 C 0.76255 0.36141 0.1205 0.0
C260 C 0.79027 0.30449 0.09908 0.0
O261 O 0.79868 0.31712 0.07102 0.0
O262 O 0.77353 0.30604 0.10957 0.0
C263 C 0.82739 0.35565 0.03594 0.0
O264 O 0.82883 0.34719 0.0887 0.0
C265 C 0.76044 0.33176 0.94526 0.0
Zn266 Zn 0.93997 0.5254 0.35283 0.0
Zn267 Zn 0.91948 0.55115 0.3222 0.0
O268 O 0.90632 0.54087 0.39994 0.0
O269 O 0.92129 0.51527 0.40806 0.0
O270 O 0.90353 0.57145 0.2908 0.0
O271 O 0.94148 0.51501 0.26881 0.0
O272 O 0.91899 0.53348 0.24912 0.0
C273 C 0.90824 0.52521 0.4238 0.0
C274 C 0.95883 0.55784 0.3624 0.0
O275 O 0.94482 0.56325 0.33364 0.0
O276 O 0.95932 0.54193 0.38354 0.0
C277 C 0.8892 0.56724 0.26194 0.0
O278 O 0.88473 0.5501 0.25756 0.0
C279 C 0.92915 0.52041 0.2332 0.0
Zn280 Zn 0.73895 0.33079 0.46514 0.0
Zn281 Zn 0.70972 0.34605 0.50158 0.0
O282 O 0.72028 0.36488 0.43969 0.0
O283 O 0.74747 0.3535 0.42774 0.0
O284 O 0.68798 0.35868 0.53778 0.0
O285 O 0.74846 0.32571 0.54802 0.0
O286 O 0.72539 0.34237 0.57773 0.0
C287 C 0.73646 0.36632 0.42 0.0
C288 C 0.70828 0.30979 0.4344 0.0
O289 O 0.70045 0.32137 0.46859 0.0
O290 O 0.72468 0.31201 0.41965 0.0
C291 C 0.67363 0.36246 0.50851 0.0
O292 O 0.67226 0.35765 0.45074 0.0
C293 C 0.73984 0.33372 0.58987 0.0
Zn294 Zn 0.93877 0.47232 0.79246 0.0
Zn295 Zn 0.91607 0.45033 0.80815 0.0
O296 O 0.90514 0.46755 0.74121 0.0
O297 O 0.92158 0.49124 0.76382 0.0
O298 O 0.89682 0.43145 0.82558 0.0
O299 O 0.94662 0.47248 0.88018 0.0
O300 O 0.91878 0.46291 0.89208 0.0
C301 C 0.90823 0.48449 0.73603 0.0
C302 C 0.95201 0.44108 0.74811 0.0
O303 O 0.93949 0.43591 0.78436 0.0
O304 O 0.95255 0.45746 0.73184 0.0
C305 C 0.89877 0.42122 0.87208 0.0
O306 O 0.91358 0.42267 0.90493 0.0
C307 C 0.93323 0.46949 0.91457 0.0
Zn308 Zn 0.77981 0.68081 0.02053 0.0
Zn309 Zn 0.80711 0.6638 0.0452 0.0
O310 O 0.79631 0.65084 0.96854 0.0
O311 O 0.76842 0.66062 0.97427 0.0
O312 O 0.8275 0.6475 0.07224 0.0
O313 O 0.77194 0.68537 0.10593 0.0
O314 O 0.79123 0.66348 0.12373 0.0
C315 C 0.77992 0.65015 0.95051 0.0
C316 C 0.8109 0.701 -0.00933 0.0
O317 O 0.81833 0.68901 0.02435 0.0
O318 O 0.79444 0.69944 0.97606 0.0
C319 C 0.83866 0.65223 0.11355 0.0
O320 O 0.83799 0.66879 0.13517 0.0
C321 C 0.77861 0.67385 0.1421 0.0
Zn322 Zn 0.56742 0.52767 0.22843 0.0
Zn323 Zn 0.58363 0.55603 0.25992 0.0
O324 O 0.59943 0.54601 0.18873 0.0
O325 O 0.58906 0.51824 0.18429 0.0
O326 O 0.59704 0.57848 0.28736 0.0
O327 O 0.56292 0.51978 0.31466 0.0
O328 O 0.58347 0.54018 0.33782 0.0
C329 C 0.60065 0.52989 0.16849 0.0
C330 C 0.54584 0.55769 0.20345 0.0
O331 O 0.55779 0.56503 0.23747 0.0
O332 O 0.54816 0.5417 0.18459 0.0
C333 C 0.61062 0.57662 0.32255 0.0
O334 O 0.61566 0.56026 0.33855 0.0
C335 C 0.57339 0.52699 0.35322 0.0
Zn336 Zn 0.27925 0.3245 0.46815 0.0
Zn337 Zn 0.30972 0.34109 0.49043 0.0
O338 O 0.29842 0.35597 0.41835 0.0
O339 O 0.27124 0.34402 0.4126 0.0
O340 O 0.33194 0.35538 0.51424 0.0
O341 O 0.27081 0.32584 0.55444 0.0
O342 O 0.29538 0.34186 0.57108 0.0
C343 C 0.28243 0.35598 0.39633 0.0
C344 C 0.31015 0.30182 0.44768 0.0
O345 O 0.31873 0.31516 0.47057 0.0
O346 O 0.29333 0.30301 0.4379 0.0
C347 C 0.33981 0.3518 0.56467 0.0
O348 O 0.33416 0.33795 0.59719 0.0
C349 C 0.28059 0.33507 0.59005 0.0
Zn350 Zn 0.42305 0.51546 0.21866 0.0
Zn351 Zn 0.40761 0.54411 0.25219 0.0
O352 O 0.39099 0.53385 0.18237 0.0
O353 O 0.40181 0.50635 0.1743 0.0
O354 O 0.39359 0.56567 0.2846 0.0
O355 O 0.42705 0.50509 0.30049 0.0
O356 O 0.41006 0.52795 0.32955 0.0
C357 C 0.38991 0.51786 0.16058 0.0
C358 C 0.44402 0.54642 0.18836 0.0
O359 O 0.43228 0.55431 0.22178 0.0
O360 O 0.44229 0.52981 0.17588 0.0
C361 C 0.39646 0.57203 0.33794 0.0
O362 O 0.40946 0.56506 0.37143 0.0
C363 C 0.41845 0.51334 0.34181 0.0
Zn364 Zn 0.22739 0.69005 0.97135 0.0
Zn365 Zn 0.20488 0.66848 0.00424 0.0
O366 O 0.21777 0.65491 0.93227 0.0
O367 O 0.24271 0.67094 0.93384 0.0
O368 O 0.18596 0.65099 0.036 0.0
O369 O 0.23331 0.69801 0.05652 0.0
O370 O 0.22151 0.67159 0.07916 0.0
C371 C 0.23423 0.65707 0.91626 0.0
C372 C 0.19481 0.70489 0.94655 0.0
O373 O 0.1909 0.69241 0.98478 0.0
O374 O 0.21017 0.70478 0.92124 0.0
C375 C 0.17852 0.65393 0.08767 0.0
O376 O 0.18273 0.66872 0.11775 0.0
C377 C 0.23071 0.6854 0.09457 0.0
Zn378 Zn 0.06993 0.47881 0.73905 0.0
Zn379 Zn 0.08777 0.4525 0.77587 0.0
O380 O 0.10334 0.46242 0.70345 0.0
O381 O 0.09142 0.48953 0.697 0.0
O382 O 0.10275 0.43274 0.81493 0.0
O383 O 0.06301 0.48766 0.82234 0.0
O384 O 0.08535 0.46983 0.84963 0.0
C385 C 0.10365 0.47847 0.68191 0.0
C386 C 0.05175 0.44642 0.7123 0.0
O387 O 0.06341 0.44037 0.7502 0.0
O388 O 0.05299 0.46253 0.69328 0.0
C389 C 0.11 0.41928 0.78846 0.0
O390 O 0.10773 0.41712 0.72919 0.0
C391 C 0.07395 0.48213 0.86255 0.0
Zn392 Zn 0.276 0.68197 0.54113 0.0
Zn393 Zn 0.30236 0.66362 0.52351 0.0
O394 O 0.2886 0.64974 0.59303 0.0
O395 O 0.2619 0.66158 0.5767 0.0
O396 O 0.3231 0.64748 0.49802 0.0
O397 O 0.27136 0.68866 0.45445 0.0
O398 O 0.28841 0.66474 0.44141 0.0
C399 C 0.27157 0.64979 0.60261 0.0
C400 C 0.30613 0.70026 0.58431 0.0
O401 O 0.3137 0.68838 0.55053 0.0
O402 O 0.28941 0.69905 0.59549 0.0
C403 C 0.33609 0.64155 0.53037 0.0
O404 O 0.33712 0.64613 0.58843 0.0
C405 C 0.27755 0.67648 0.41986 0.0
Zn406 Zn 0.08049 0.52532 0.31534 0.0
Zn407 Zn 0.0971 0.55317 0.29062 0.0
O408 O 0.11114 0.54211 0.36488 0.0
O409 O 0.10135 0.51418 0.35924 0.0
O410 O 0.11216 0.57429 0.26104 0.0
O411 O 0.07516 0.518 0.22961 0.0
O412 O 0.09665 0.53775 0.21118 0.0
C413 C 0.112 0.52565 0.38241 0.0
C414 C 0.0604 0.55603 0.35004 0.0
O415 O 0.07203 0.56384 0.31586 0.0
O416 O 0.06214 0.53945 0.36274 0.0
C417 C 0.11455 0.58938 0.28758 0.0
O418 O 0.10689 0.5923 0.341 0.0
C419 C 0.08622 0.52516 0.19284 0.0
Zn420 Zn 0.23804 0.32816 0.04126 0.0
Zn421 Zn 0.20675 0.34148 0.02045 0.0
O422 O 0.2176 0.35822 0.0888 0.0
O423 O 0.24595 0.34942 0.08854 0.0
O424 O 0.18376 0.35371 -0.00843 0.0
O425 O 0.24616 0.3268 0.95532 0.0
O426 O 0.22052 0.34092 0.93804 0.0
C427 C 0.2339 0.36017 0.10706 0.0
C428 C 0.20939 0.30434 0.07849 0.0
O429 O 0.19936 0.31593 0.05169 0.0
O430 O 0.22622 0.30706 0.08313 0.0
C431 C 0.17542 0.36643 0.01858 0.0
O432 O 0.18091 0.37169 0.07297 0.0
C433 C 0.23548 0.33458 0.91879 0.0
Zn434 Zn 0.4352 0.4819 0.81435 0.0
Zn435 Zn 0.41982 0.4518 0.77361 0.0
O436 O 0.40268 0.45927 0.84492 0.0
O437 O 0.41383 0.48607 0.86734 0.0
O438 O 0.40742 0.43028 0.73534 0.0
O439 O 0.43468 0.49389 0.73246 0.0
O440 O 0.41989 0.46967 0.70189 0.0
C441 C 0.4017 0.4742 0.87388 0.0
C442 C 0.45834 0.45077 0.82454 0.0
O443 O 0.44557 0.44293 0.79565 0.0
O444 O 0.45662 0.46705 0.84145 0.0
C445 C 0.40434 0.41548 0.76303 0.0
O446 O 0.40972 0.41358 0.82006 0.0
C447 C 0.42624 0.48537 0.69125 0.0
H448 H 0.09976 0.10132 0.92092 0.0
H449 H 0.13561 0.09613 0.76575 0.0
H450 H 0.15774 0.11549 0.81647 0.0
H451 H 0.16749 0.13277 0.90645 0.0
H452 H 0.13181 0.13782 0.06211 0.0
H453 H 0.10905 0.11961 0.00946 0.0
C454 C 0.11234 0.10453 0.89786 0.0
C455 C 0.116 0.0972 0.83957 0.0
C456 C 0.1251 0.11554 0.92757 0.0
C457 C 0.13241 0.10154 0.81057 0.0
C458 C 0.14511 0.11258 0.83964 0.0
C459 C 0.15472 0.12994 0.92895 0.0
C460 C 0.15144 0.13659 0.98844 0.0
C461 C 0.1417 0.11946 0.89845 0.0
C462 C 0.13475 0.13286 0.0165 0.0
C463 C 0.12172 0.12243 0.9864 0.0
H464 H 0.12383 0.92131 0.15853 0.0
H465 H 0.11572 0.88684 0.31596 0.0
H466 H 0.13488 0.8637 0.26956 0.0
H467 H 0.15459 0.85359 0.1856 0.0
H468 H 0.16261 0.88812 0.02823 0.0
H469 H 0.1427 0.91081 0.07323 0.0
C470 C 0.12623 0.90874 0.18282 0.0
C471 C 0.1184 0.9059 0.24093 0.0
C472 C 0.13722 0.89547 0.15579 0.0
C473 C 0.12158 0.88944 0.27132 0.0
C474 C 0.13255 0.87619 0.24479 0.0
C475 C 0.15191 0.86602 0.16086 0.0
C476 C 0.16017 0.86912 0.10358 0.0
C477 C 0.14051 0.87909 0.18719 0.0
C478 C 0.15648 0.88533 0.07232 0.0
C479 C 0.14512 0.89836 0.09812 0.0
H480 H 0.36966 0.92901 0.31725 0.0
H481 H 0.41444 0.89695 0.38188 0.0
H482 H 0.39351 0.87655 0.43444 0.0
H483 H 0.36237 0.86826 0.46443 0.0
H484 H 0.31796 0.90134 0.40212 0.0
H485 H 0.33883 0.92084 0.34686 0.0
C486 C 0.37486 0.91746 0.34229 0.0
C487 C 0.3936 0.91449 0.34532 0.0
C488 C 0.36279 0.90601 0.37346 0.0
C489 C 0.40007 0.89956 0.3787 0.0
C490 C 0.38811 0.8879 0.40893 0.0
C491 C 0.35727 0.87974 0.43882 0.0
C492 C 0.33858 0.88329 0.43771 0.0
C493 C 0.36942 0.89109 0.40714 0.0
C494 C 0.33225 0.89826 0.40418 0.0
C495 C 0.34418 0.90944 0.37228 0.0
H496 H 0.38973 0.08947 0.65763 0.0
H497 H 0.3954 0.12498 0.81333 0.0
H498 H 0.37536 0.14693 0.76476 0.0
H499 H 0.35546 0.15565 0.6797 0.0
H500 H 0.34975 0.12016 0.52396 0.0
H501 H 0.3707 0.09872 0.57076 0.0
C502 C 0.3866 0.10201 0.68101 0.0
C503 C 0.39401 0.10548 0.73933 0.0
C504 C 0.37509 0.11463 0.65271 0.0
C505 C 0.38989 0.12189 0.76857 0.0
C506 C 0.37842 0.13448 0.74079 0.0
C507 C 0.35889 0.1433 0.65566 0.0
C508 C 0.35096 0.13954 0.59837 0.0
C509 C 0.37085 0.13094 0.68305 0.0
C510 C 0.35562 0.12344 0.56804 0.0
C511 C 0.36757 0.11112 0.59489 0.0
H512 H 0.8451 0.85817 0.22919 0.0
H513 H 0.84923 0.88389 0.05199 0.0
H514 H 0.87001 0.90627 0.09428 0.0
H515 H 0.88595 0.91931 0.18226 0.0
H516 H 0.88124 0.89411 0.36014 0.0
H517 H 0.86181 0.8707 0.31665 0.0
C518 C 0.85063 0.86859 0.19963 0.0
C519 C 0.84554 0.86935 0.13747 0.0
C520 C 0.86243 0.88155 0.2244 0.0
C521 C 0.85285 0.88298 0.1 0.0
C522 C 0.86474 0.89581 0.12416 0.0
C523 C 0.8808 0.90864 0.21156 0.0
C524 C 0.88504 0.90854 0.27451 0.0
C525 C 0.86946 0.89534 0.18642 0.0
C526 C 0.87818 0.89459 0.31162 0.0
C527 C 0.86704 0.88119 0.28679 0.0
H528 H 0.8986 0.10305 0.87057 0.0
H529 H 0.85763 0.10423 0.72981 0.0
H530 H 0.8396 0.12502 0.79139 0.0
H531 H 0.8344 0.14107 0.8884 0.0
H532 H 0.87518 0.13942 0.02974 0.0
H533 H 0.89431 0.1207 0.96458 0.0
C534 C 0.88583 0.10801 0.85293 0.0
C535 C 0.87945 0.10194 0.79573 0.0
C536 C 0.87539 0.11979 0.88895 0.0
C537 C 0.86287 0.10858 0.77372 0.0
C538 C 0.8525 0.12045 0.80903 0.0
C539 C 0.84753 0.13675 0.90483 0.0
C540 C 0.85324 0.14154 0.96421 0.0
C541 C 0.85845 0.12584 0.86724 0.0
C542 C 0.87036 0.13588 0.98445 0.0
C543 C 0.88134 0.12514 0.9472 0.0
H544 H 0.66681 0.15677 0.73591 0.0
H545 H 0.66777 0.12804 0.56381 0.0
H546 H 0.64711 0.10538 0.60551 0.0
H547 H 0.62973 0.09304 0.69214 0.0
H548 H 0.62916 0.12166 0.8645 0.0
H549 H 0.64867 0.14501 0.82122 0.0
C550 C 0.66242 0.14563 0.70727 0.0
C551 C 0.66892 0.14413 0.64678 0.0
C552 C 0.65066 0.13255 0.73169 0.0
C553 C 0.66304 0.12957 0.61051 0.0
C554 C 0.65124 0.11656 0.63437 0.0
C555 C 0.63379 0.10442 0.72023 0.0
C556 C 0.62801 0.1055 0.78168 0.0
C557 C 0.64511 0.1178 0.69512 0.0
C558 C 0.63341 0.1204 0.8172 0.0
C559 C 0.64459 0.13379 0.79247 0.0
H560 H 0.61963 0.9269 0.43021 0.0
H561 H 0.63189 0.89887 0.26177 0.0
H562 H 0.65071 0.87745 0.31801 0.0
H563 H 0.66455 0.86729 0.41425 0.0
H564 H 0.65263 0.89551 0.58258 0.0
H565 H 0.63276 0.91616 0.52704 0.0
C566 C 0.62634 0.91607 0.40574 0.0
C567 C 0.62437 0.91458 0.34169 0.0
C568 C 0.63725 0.90383 0.43833 0.0
C569 C 0.63317 0.9004 0.31094 0.0
C570 C 0.64396 0.88813 0.34309 0.0
C571 C 0.65755 0.87789 0.43898 0.0
C572 C 0.66017 0.87985 0.5026 0.0
C573 C 0.64623 0.88981 0.40669 0.0
C574 C 0.65093 0.89368 0.53368 0.0
C575 C 0.63956 0.90552 0.50191 0.0
H576 H 0.6481 0.65069 0.39202 0.0
H577 H 0.67431 0.61587 0.52374 0.0
H578 H 0.6571 0.59012 0.48602 0.0
H579 H 0.63518 0.57725 0.41454 0.0
H580 H 0.60825 0.61181 0.284 0.0
H581 H 0.62517 0.63787 0.32242 0.0
C582 C 0.65 0.63749 0.41262 0.0
C583 C 0.66255 0.63525 0.46053 0.0
C584 C 0.63998 0.62266 0.39081 0.0
C585 C 0.66475 0.61804 0.48686 0.0
C586 C 0.65494 0.60325 0.46522 0.0
C587 C 0.633 0.59047 0.39436 0.0
C588 C 0.62056 0.59254 0.34617 0.0
C589 C 0.64263 0.60538 0.41698 0.0
C590 C 0.61777 0.60983 0.32109 0.0
C591 C 0.62745 0.62474 0.34301 0.0
H592 H 0.60807 0.41117 0.59227 0.0
H593 H 0.63926 0.41259 0.7594 0.0
H594 H 0.66138 0.39202 0.71449 0.0
H595 H 0.67275 0.37496 0.62599 0.0
H596 H 0.6418 0.37397 0.4583 0.0
H597 H 0.61872 0.39299 0.50542 0.0
C598 C 0.61962 0.40688 0.61917 0.0
C599 C 0.62201 0.41352 0.6791 0.0
C600 C 0.63241 0.39519 0.59283 0.0
C601 C 0.63707 0.40775 0.71316 0.0
C602 C 0.64977 0.39601 0.68744 0.0
C603 C 0.66091 0.3788 0.59976 0.0
C604 C 0.65911 0.37311 0.53846 0.0
C605 C 0.64772 0.38986 0.62701 0.0
C606 C 0.64361 0.37819 0.50542 0.0
C607 C 0.63039 0.3891 0.53234 0.0
H608 H 0.89849 0.3991 0.97177 0.0
H609 H 0.86597 0.41541 0.81711 0.0
H610 H 0.84127 0.3962 0.85313 0.0
H611 H 0.8285 0.37557 0.93047 0.0
H612 H 0.86104 0.35964 0.08559 0.0
H613 H 0.88609 0.37789 0.04728 0.0
C614 C 0.88604 0.39841 0.94564 0.0
C615 C 0.88412 0.40876 0.89182 0.0
C616 C 0.87184 0.38744 0.96685 0.0
C617 C 0.86786 0.40763 0.85869 0.0
C618 C 0.85369 0.39666 0.87934 0.0
C619 C 0.84108 0.37602 0.95584 0.0
C620 C 0.8428 0.36626 0.01106 0.0
C621 C 0.85546 0.38663 0.93367 0.0
C622 C 0.85926 0.36702 0.04312 0.0
C623 C 0.87363 0.37747 0.02124 0.0
H624 H 0.83631 0.61569 0.10529 0.0
H625 H 0.86785 0.65829 0.18762 0.0
H626 H 0.8864 0.63584 0.24069 0.0
H627 H 0.89318 0.60402 0.26569 0.0
H628 H 0.86063 0.56172 0.18565 0.0
H629 H 0.84295 0.58415 0.13024 0.0
C630 C 0.84735 0.62009 0.13436 0.0
C631 C 0.85073 0.63865 0.14219 0.0
C632 C 0.8577 0.60714 0.16571 0.0
C633 C 0.86496 0.64408 0.1807 0.0
C634 C 0.87555 0.63125 0.2112 0.0
C635 C 0.8822 0.59971 0.23619 0.0
C636 C 0.87826 0.58118 0.23006 0.0
C637 C 0.87194 0.61273 0.20449 0.0
C638 C 0.86396 0.57587 0.1916 0.0
C639 C 0.85384 0.58869 0.15962 0.0
H640 H 0.35656 0.34966 0.67546 0.0
H641 H 0.35388 0.38222 0.51137 0.0
H642 H 0.37427 0.40434 0.55729 0.0
H643 H 0.39143 0.4153 0.64608 0.0
H644 H 0.39371 0.38297 0.81077 0.0
H645 H 0.37495 0.3599 0.76236 0.0
C646 C 0.36056 0.3615 0.64942 0.0
C647 C 0.35359 0.36429 0.59009 0.0
C648 C 0.37213 0.37429 0.67637 0.0
C649 C 0.35897 0.37972 0.55713 0.0
C650 C 0.37061 0.39242 0.58344 0.0
C651 C 0.38792 0.40317 0.67136 0.0
C652 C 0.39389 0.40097 0.73222 0.0
C653 C 0.37703 0.38999 0.64338 0.0
C654 C 0.38927 0.38509 0.76402 0.0
C655 C 0.37852 0.37187 0.73636 0.0
H656 H 0.33725 0.6294 0.41266 0.0
H657 H 0.36525 0.62562 0.58577 0.0
H658 H 0.38676 0.60437 0.54087 0.0
H659 H 0.39708 0.58615 0.45333 0.0
H660 H 0.36876 0.58974 0.28077 0.0
H661 H 0.34799 0.61184 0.32468 0.0
C662 C 0.34808 0.62399 0.44066 0.0
C663 C 0.34955 0.6291 0.50268 0.0
C664 C 0.36036 0.61172 0.41464 0.0
C665 C 0.36373 0.62194 0.53802 0.0
C666 C 0.37605 0.60976 0.51235 0.0
C667 C 0.38644 0.59184 0.42513 0.0
C668 C 0.3845 0.58623 0.36377 0.0
C669 C 0.37443 0.60446 0.45083 0.0
C670 C 0.37059 0.59376 0.32809 0.0
C671 C 0.35867 0.60639 0.3532 0.0
H672 H 0.13029 0.58819 0.17475 0.0
H673 H 0.12419 0.62243 0.33354 0.0
H674 H 0.143 0.64552 0.28507 0.0
H675 H 0.16159 0.65581 0.1984 0.0
H676 H 0.16766 0.62153 0.0397 0.0
H677 H 0.14837 0.59871 0.08736 0.0
C678 C 0.13305 0.6007 0.19888 0.0
C679 C 0.12585 0.6035 0.25792 0.0
C680 C 0.14386 0.61395 0.1707 0.0
C681 C 0.12955 0.61986 0.28818 0.0
C682 C 0.14032 0.63309 0.26046 0.0
C683 C 0.15865 0.64339 0.17403 0.0
C684 C 0.16612 0.64042 0.11548 0.0
C685 C 0.14759 0.63026 0.20183 0.0
C686 C 0.16212 0.62421 0.08474 0.0
C687 C 0.15111 0.61112 0.11203 0.0
H688 H 0.11763 0.4205 0.91053 0.0
H689 H 0.12855 0.38975 0.74655 0.0
H690 H 0.14884 0.37002 0.80417 0.0
H691 H 0.16458 0.36238 0.89989 0.0
H692 H 0.15411 0.39357 0.06324 0.0
H693 H 0.13244 0.41211 0.00705 0.0
C694 C 0.12436 0.40943 0.88732 0.0
C695 C 0.1216 0.40671 0.82409 0.0
C696 C 0.13612 0.3982 0.92064 0.0
C697 C 0.13043 0.39224 0.79505 0.0
C698 C 0.14206 0.38093 0.82799 0.0
C699 C 0.15744 0.37311 0.92347 0.0
C700 C 0.16106 0.37658 0.98579 0.0
C701 C 0.14515 0.3839 0.89065 0.0
C702 C 0.15167 0.3906 0.01535 0.0
C703 C 0.13928 0.40125 0.98319 0.0
H704 H 0.26772 0.16783 0.89007 0.0
H705 H 0.21195 0.16409 0.83357 0.0
H706 H 0.22124 0.16353 0.72617 0.0
H707 H 0.24501 0.16595 0.64886 0.0
H708 H 0.30091 0.16807 0.70409 0.0
H709 H 0.2918 0.16731 0.81219 0.0
C710 C 0.25764 0.1668 0.85413 0.0
C711 C 0.2392 0.16624 0.86928 0.0
C712 C 0.26309 0.16626 0.79271 0.0
C713 C 0.22623 0.16457 0.82273 0.0
C714 C 0.23152 0.16432 0.76146 0.0
C715 C 0.25518 0.16618 0.68469 0.0
C716 C 0.27353 0.16736 0.66919 0.0
C717 C 0.24987 0.16546 0.74604 0.0
C718 C 0.28668 0.16725 0.71546 0.0
C719 C 0.28148 0.16687 0.777 0.0
H720 H 0.08118 0.01641 0.12147 0.0
H721 H 0.07991 0.96045 0.06678 0.0
H722 H 0.0806 0.96946 0.95859 0.0
H723 H 0.08061 0.99339 0.88052 0.0
H724 H 0.08439 0.04923 0.93571 0.0
H725 H 0.08382 0.04017 0.04365 0.0
C726 C 0.08104 0.00624 0.08567 0.0
C727 C 0.08021 0.98787 0.10122 0.0
C728 C 0.08193 0.0115 0.02428 0.0
C729 C 0.08047 0.97468 0.05518 0.0
C730 C 0.08083 0.97982 -0.00634 0.0
C731 C 0.08134 1.00352 0.91637 0.0
C732 C 0.0823 0.0219 0.90091 0.0
C733 C 0.0814 0.9982 0.97781 0.0
C734 C 0.08362 0.03499 0.9471 0.0
C735 C 0.08323 0.02983 0.00854 0.0
H736 H 0.26474 0.83597 0.1466 0.0
H737 H 0.20938 0.83563 0.20825 0.0
H738 H 0.21956 0.836 0.31526 0.0
H739 H 0.24435 0.83468 0.3904 0.0
H740 H 0.29961 0.83703 0.32781 0.0
H741 H 0.28933 0.83777 0.22136 0.0
C742 C 0.25493 0.83605 0.18361 0.0
C743 C 0.2364 0.83548 0.17022 0.0
C744 C 0.26086 0.8366 0.24437 0.0
C745 C 0.22373 0.83599 0.21799 0.0
C746 C 0.22954 0.83615 0.27891 0.0
C747 C 0.25409 0.83544 0.35332 0.0
C748 C 0.27267 0.83554 0.36644 0.0
C749 C 0.24808 0.83617 0.29253 0.0
C750 C 0.28523 0.83689 0.31848 0.0
C751 C 0.27938 0.83725 0.25778 0.0
H752 H 0.41272 0.01804 0.62006 0.0
H753 H 0.47042 0.026 0.61528 0.0
H754 H 0.47187 0.01217 0.51363 0.0
H755 H 0.45668 0.99817 0.42636 0.0
H756 H 0.39928 0.98817 0.43327 0.0
H757 H 0.39773 1.00216 0.53481 0.0
C758 C 0.42555 0.01682 0.59633 0.0
C759 C 0.44141 0.02319 0.62408 0.0
C760 C 0.42633 0.00835 0.53901 0.0
C761 C 0.45806 0.02124 0.59414 0.0
C762 C 0.45889 0.01332 0.53632 0.0
C763 C 0.44385 0.99898 0.45028 0.0
C764 C 0.4281 0.99233 0.42254 0.0
C765 C 0.44312 0.00684 0.50843 0.0
C766 C 0.41159 0.99318 0.45408 0.0
C767 C 0.41068 1.00128 0.5118 0.0
H768 H 0.75963 0.80654 0.18634 0.0
H769 H 0.7717 0.86356 0.18993 0.0
H770 H 0.75676 0.86629 0.28985 0.0
H771 H 0.74072 0.85211 0.37701 0.0
H772 H 0.73152 0.79457 0.37615 0.0
H773 H 0.7447 0.79234 0.27367 0.0
C774 C 0.75892 0.81959 0.2089 0.0
C775 C 0.76659 0.83486 0.18092 0.0
C776 C 0.75076 0.82092 0.26651 0.0
C777 C 0.76588 0.85162 0.2109 0.0
C778 C 0.7573 0.85318 0.26777 0.0
C779 C 0.74147 0.83917 0.35381 0.0
C780 C 0.73506 0.82354 0.38316 0.0
C781 C 0.74971 0.8379 0.29602 0.0
C782 C 0.73637 0.80674 0.35386 0.0
C783 C 0.74391 0.80546 0.29553 0.0
H784 H 0.92208 0.99581 0.90735 0.0
H785 H 0.92228 0.05228 0.95648 0.0
H786 H 0.92184 0.04418 0.06531 0.0
H787 H 0.92217 0.02099 0.14583 0.0
H788 H 0.92026 0.96457 0.09628 0.0
H789 H 0.92051 0.97271 0.98762 0.0
C790 C 0.92205 0.00634 0.94195 0.0
C791 C 0.92243 0.02459 0.9243 0.0
C792 C 0.92148 1.00158 0.00398 0.0
C793 C 0.92203 0.03813 0.96926 0.0
C794 C 0.92182 0.03351 0.03131 0.0
C795 C 0.9218 0.01049 0.11117 0.0
C796 C 0.92139 0.99222 0.12872 0.0
C797 C 0.92167 0.01528 0.04909 0.0
C798 C 0.92059 0.97873 0.08364 0.0
C799 C 0.92079 0.98337 0.02166 0.0
H800 H 0.78385 0.17374 0.8885 0.0
H801 H 0.72987 0.16654 0.95918 0.0
H802 H 0.71786 0.16596 0.85479 0.0
H803 H 0.72253 0.16972 0.74363 0.0
H804 H 0.77637 0.17936 0.67495 0.0
H805 H 0.78862 0.17665 0.77826 0.0
C806 C 0.76949 0.17179 0.88105 0.0
C807 C 0.75777 0.1702 0.93133 0.0
C808 C 0.76264 0.17204 0.82124 0.0
C809 C 0.73916 0.16789 0.92106 0.0
C810 C 0.73228 0.16756 0.86145 0.0
C811 C 0.73695 0.17103 0.7514 0.0
C812 C 0.74853 0.17481 0.70203 0.0
C813 C 0.74386 0.16997 0.81122 0.0
C814 C 0.76718 0.17662 0.71249 0.0
C815 C 0.7742 0.17504 0.77146 0.0
H816 H 0.58687 0.04199 0.61526 0.0
H817 H 0.59119 0.98902 0.69657 0.0
H818 H 0.59092 0.97512 0.59512 0.0
H819 H 0.58829 0.97795 0.48384 0.0
H820 H 0.58124 0.03062 0.40237 0.0
H821 H 0.58366 0.04477 0.50327 0.0
C822 C 0.58791 0.02743 0.61041 0.0
C823 C 0.58912 0.0165 0.66271 0.0
C824 C 0.58712 0.01951 0.55214 0.0
C825 C 0.59019 0.99764 0.65652 0.0
C826 C 0.59004 0.9897 0.59871 0.0
C827 C 0.58738 0.99253 0.48825 0.0
C828 C 0.58464 1.00325 0.43611 0.0
C829 C 0.58832 1.00049 0.54629 0.0
C830 C 0.58326 0.02211 0.4422 0.0
C831 C 0.5847 0.0302 0.49973 0.0
H832 H 0.74515 0.65482 0.40025 0.0
H833 H 0.73321 0.71183 0.39451 0.0
H834 H 0.74739 0.71428 0.29372 0.0
H835 H 0.76313 0.7003 0.20783 0.0
H836 H 0.77745 0.64386 0.21538 0.0
H837 H 0.76266 0.64106 0.31557 0.0
C838 C 0.7456 0.6677 0.37645 0.0
C839 C 0.73804 0.68309 0.40383 0.0
C840 C 0.75433 0.66912 0.3195 0.0
C841 C 0.73894 0.69983 0.37375 0.0
C842 C 0.74704 0.70124 0.31636 0.0
C843 C 0.76304 0.68739 0.23152 0.0
C844 C 0.77119 0.67227 0.20441 0.0
C845 C 0.75481 0.68599 0.28898 0.0
C846 C 0.77127 0.65569 0.23573 0.0
C847 C 0.76273 0.65407 0.29269 0.0
H848 H 0.60218 0.51456 0.41645 0.0
H849 H 0.54478 0.52363 0.42838 0.0
H850 H 0.54437 0.51129 0.53245 0.0
H851 H 0.56029 0.49786 0.61912 0.0
H852 H 0.61717 0.486 0.60532 0.0
H853 H 0.61792 0.49922 0.50213 0.0
C854 C 0.58968 0.51389 0.44236 0.0
C855 C 0.57357 0.52014 0.41602 0.0
C856 C 0.58947 0.50615 0.50109 0.0
C857 C 0.5573 0.51895 0.44861 0.0
C858 C 0.55707 0.51188 0.50777 0.0
C859 C 0.57284 0.49816 0.59342 0.0
C860 C 0.58868 0.49117 0.61953 0.0
C861 C 0.57305 0.50541 0.53428 0.0
C862 C 0.60481 0.49131 0.58572 0.0
C863 C 0.60526 0.49894 0.52706 0.0
H864 H 0.7201 0.3352 0.69312 0.0
H865 H 0.77479 0.33089 0.62628 0.0
H866 H 0.78621 0.33055 0.73142 0.0
H867 H 0.78048 0.33144 0.84218 0.0
H868 H 0.72559 0.33337 0.90845 0.0
H869 H 0.7143 0.33472 0.80338 0.0
C870 C 0.73451 0.33424 0.70177 0.0
C871 C 0.74664 0.33319 0.65269 0.0
C872 C 0.74088 0.33363 0.76193 0.0
C873 C 0.76525 0.33166 0.66387 0.0
C874 C 0.77177 0.33152 0.72374 0.0
C875 C 0.76607 0.33221 0.83332 0.0
C876 C 0.75384 0.33241 0.88226 0.0
C877 C 0.75969 0.3325 0.77306 0.0
C878 C 0.73519 0.33314 0.87094 0.0
C879 C 0.72875 0.33396 0.81112 0.0
H880 H 0.95264 0.4983 0.17575 0.0
H881 H 0.89963 0.522 0.15803 0.0
H882 H 0.89534 0.50644 0.06022 0.0
H883 H 0.90734 0.48714 0.97763 0.0
H884 H 0.96133 0.46575 -0.0075 0.0
H885 H 0.96447 0.47906 0.09449 0.0
C886 C 0.94011 0.50001 0.15066 0.0
C887 C 0.92648 0.51128 0.17393 0.0
C888 C 0.93788 0.49131 0.09432 0.0
C889 C 0.91037 0.51348 0.14074 0.0
C890 C 0.90788 0.50452 0.08504 0.0
C891 C 0.91962 0.48516 0.00393 0.0
C892 C 0.93403 0.47541 0.9785 0.0
C893 C 0.9216 0.4935 0.06123 0.0
C894 C 0.95007 0.47319 0.01182 0.0
C895 C 0.9519 0.48084 0.06977 0.0
H896 H 0.24649 0.33528 0.63353 0.0
H897 H 0.3022 0.34016 0.68939 0.0
H898 H 0.29293 0.34098 0.79696 0.0
H899 H 0.26915 0.3384 0.8746 0.0
H900 H 0.21332 0.33508 0.81909 0.0
H901 H 0.22245 0.33566 0.71115 0.0
C902 C 0.25656 0.33662 0.66935 0.0
C903 C 0.27498 0.3374 0.65405 0.0
C904 C 0.25113 0.33729 0.73071 0.0
C905 C 0.28794 0.33949 0.70041 0.0
C906 C 0.28266 0.33989 0.76175 0.0
C907 C 0.259 0.33786 0.83875 0.0
C908 C 0.24065 0.33641 0.85421 0.0
C909 C 0.26433 0.33847 0.77733 0.0
C910 C 0.22754 0.33613 0.80783 0.0
C911 C 0.23275 0.3364 0.74635 0.0
H912 H 0.41923 0.53144 0.44951 0.0
H913 H 0.41712 0.47796 0.37137 0.0
H914 H 0.41824 0.46454 0.47354 0.0
H915 H 0.42124 0.46797 0.58426 0.0
H916 H 0.42605 0.52124 0.66279 0.0
H917 H 0.42252 0.53486 0.56129 0.0
C918 C 0.41884 0.51687 0.45522 0.0
C919 C 0.41806 0.50565 0.40362 0.0
C920 C 0.42012 0.50925 0.5139 0.0
C921 C 0.41781 0.4868 0.41089 0.0
C922 C 0.41844 0.47913 0.4691 0.0
C923 C 0.42139 0.48256 0.57913 0.0
C924 C 0.42386 0.49361 0.63055 0.0
C925 C 0.41983 0.49022 0.5208 0.0
C926 C 0.42426 0.51249 0.62349 0.0
C927 C 0.42219 0.52027 0.56564 0.0
H928 H 0.26426 0.70362 0.35114 0.0
H929 H 0.27593 0.64651 0.34724 0.0
H930 H 0.2617 0.64404 0.24631 0.0
H931 H 0.245 0.65809 0.16093 0.0
H932 H 0.23518 0.71553 0.16298 0.0
H933 H 0.24947 0.71793 0.26361 0.0
C934 C 0.26378 0.69065 0.32799 0.0
C935 C 0.27096 0.67525 0.35647 0.0
C936 C 0.25574 0.68939 0.2702 0.0
C937 C 0.27051 0.65857 0.32588 0.0
C938 C 0.26227 0.65713 0.2685 0.0
C939 C 0.24593 0.67107 0.1838 0.0
C940 C 0.23891 0.68658 0.15551 0.0
C941 C 0.25464 0.67241 0.24065 0.0
C942 C 0.24047 0.70343 0.18444 0.0
C943 C 0.24865 0.70481 0.24173 0.0
H944 H 0.05836 0.51367 0.12429 0.0
H945 H 0.116 0.52194 0.12011 0.0
H946 H 0.11749 0.50851 0.0175 0.0
H947 H 0.10224 0.49374 0.93009 0.0
H948 H 0.04426 0.4883 0.93134 0.0
H949 H 0.04294 0.50122 0.03446 0.0
C950 C 0.07122 0.51257 0.10068 0.0
C951 C 0.08707 0.51857 0.12944 0.0
C952 C 0.07187 0.50526 0.04163 0.0
C953 C 0.10364 0.5174 0.09843 0.0
C954 C 0.10449 0.50966 0.04009 0.0
C955 C 0.08938 0.49538 0.95331 0.0
C956 C 0.07338 0.48994 0.92418 0.0
C957 C 0.0887 0.50339 0.01151 0.0
C958 C 0.0567 0.49239 0.95351 0.0
C959 C 0.05596 0.49975 0.01223 0.0
H960 H 0.2096 0.22502 0.16421 0.0
H961 H 0.17903 0.21839 -0.00216 0.0
H962 H 0.17475 0.25117 -0.00899 0.0
H963 H 0.18591 0.28166 0.0202 0.0
H964 H 0.21809 0.28743 0.18368 0.0
H965 H 0.21517 0.25522 0.20483 0.0
C966 C 0.20145 0.23074 0.12768 0.0
C967 C 0.19488 0.21942 0.08115 0.0
C968 C 0.19957 0.24953 0.12315 0.0
C969 C 0.18421 0.22687 0.03425 0.0
C970 C 0.18196 0.24565 0.02997 0.0
C971 C 0.19162 0.27593 0.06164 0.0
C972 C 0.20238 0.28678 0.10001 0.0
C973 C 0.19047 0.25716 0.0723 0.0
C974 C 0.20988 0.27924 0.15332 0.0
C975 C 0.20832 0.26081 0.16523 0.0
H976 H 0.03181 0.96151 0.42552 0.0
H977 H 0.03555 0.92954 0.26123 0.0
H978 H 1.00278 0.92485 0.26234 0.0
H979 H 0.97293 0.93654 0.29569 0.0
H980 H 0.96993 0.97044 0.45599 0.0
H981 H 1.00237 0.96736 0.47183 0.0
C982 C 0.0255 0.95289 0.39145 0.0
C983 C 0.03595 0.94611 0.34292 0.0
C984 C 0.00667 0.95092 0.39108 0.0
C985 C 0.02775 0.93487 0.29914 0.0
C986 C 0.00896 0.93243 0.29929 0.0
C987 C 0.97931 0.9426 0.33542 0.0
C988 C 0.96917 0.95393 0.37413 0.0
C989 C 0.99819 0.94136 0.34284 0.0
C990 C 0.97756 0.96183 0.42526 0.0
C991 C 0.99612 0.96015 0.43415 0.0
H992 H 0.31032 0.7793 0.66384 0.0
H993 H 0.33329 0.78473 0.48347 0.0
H994 H 0.33783 0.75196 0.4781 0.0
H995 H 0.32793 0.72178 0.51483 0.0
H996 H 0.3035 0.71706 0.69349 0.0
H997 H 0.30743 0.74937 0.71057 0.0
C998 C 0.31703 0.77334 0.62451 0.0
C999 C 0.32129 0.78427 0.5739 0.0
C1000 C 0.3191 0.75453 0.62122 0.0
C1001 C 0.32998 0.77653 0.5231 0.0
C1002 C 0.33235 0.75776 0.51975 0.0
C1003 C 0.3243 0.72772 0.55855 0.0
C1004 C 0.31525 0.71716 0.60261 0.0
C1005 C 0.32593 0.74655 0.56705 0.0
C1006 C 0.3104 0.725 0.65887 0.0
C1007 C 0.31248 0.74351 0.6684 0.0
H1008 H 0.48154 0.06411 0.94282 0.0
H1009 H 0.47844 0.08547 0.7594 0.0
H1010 H 0.51119 0.08992 0.75814 0.0
H1011 H 0.54079 0.07985 0.79898 0.0
H1012 H 0.54322 0.05609 0.97923 0.0
H1013 H 0.51088 0.06084 -0.00724 0.0
C1014 C 0.48798 0.07046 0.9036 0.0
C1015 C 0.4777 0.0741 0.8509 0.0
C1016 C 0.50684 0.07218 0.90226 0.0
C1017 C 0.48608 0.08249 0.80053 0.0
C1018 C 0.50488 0.08478 0.79947 0.0
C1019 C 0.53433 0.07649 0.84215 0.0
C1020 C 0.54425 0.06742 0.88778 0.0
C1021 C 0.51548 0.07852 0.84849 0.0
C1022 C 0.53577 0.06295 0.94337 0.0
C1023 C 0.51725 0.06555 0.95094 0.0
H1024 H 0.17923 0.7831 0.01906 0.0
H1025 H 0.20075 0.79125 0.83769 0.0
H1026 H 0.19571 0.75949 0.81321 0.0
H1027 H 0.19317 0.72874 0.85306 0.0
H1028 H 0.17432 0.71989 0.03753 0.0
H1029 H 0.16964 0.75235 0.0506 0.0
C1030 C 0.18196 0.77803 0.97335 0.0
C1031 C 0.19041 0.78935 0.9302 0.0
C1032 C 0.17984 0.75947 0.96067 0.0
C1033 C 0.19422 0.78269 0.87141 0.0
C1034 C 0.19149 0.7645 0.85764 0.0
C1035 C 0.1873 0.73387 0.89519 0.0
C1036 C 0.18452 0.72202 0.94469 0.0
C1037 C 0.18549 0.75259 0.90329 0.0
C1038 C 0.17669 0.72874 -0.00122 0.0
C1039 C 0.17427 0.74738 0.0066 0.0
H1040 H 0.47456 0.93785 0.27265 0.0
H1041 H 0.47233 0.96108 0.09154 0.0
H1042 H 0.5051 0.95922 0.08291 0.0
H1043 H 0.53405 0.95841 0.13709 0.0
H1044 H 0.5368 0.93654 0.31982 0.0
H1045 H 0.50433 0.9301 0.31746 0.0
C1046 C 0.48121 0.94167 0.23026 0.0
C1047 C 0.47112 0.94983 0.1831 0.0
C1048 C 0.50022 0.94125 0.22664 0.0
C1049 C 0.47988 0.95488 0.12855 0.0
C1050 C 0.49864 0.95399 0.12386 0.0
C1051 C 0.52763 0.95159 0.17543 0.0
C1052 C 0.53764 0.9482 0.22885 0.0
C1053 C 0.50896 0.94836 0.17417 0.0
C1054 C 0.52932 0.93927 0.27817 0.0
C1055 C 0.5107 0.93577 0.27705 0.0
H1056 H 0.32754 0.22179 0.50378 0.0
H1057 H 0.29717 0.21553 0.33663 0.0
H1058 H 0.30002 0.24774 0.31531 0.0
H1059 H 0.30469 0.27805 0.35656 0.0
H1060 H 0.33357 0.28514 0.52612 0.0
H1061 H 0.33818 0.25241 0.5337 0.0
C1062 C 0.32227 0.22741 0.46149 0.0
C1063 C 0.31202 0.21643 0.42204 0.0
C1064 C 0.32337 0.24618 0.45069 0.0
C1065 C 0.30503 0.22382 0.3677 0.0
C1066 C 0.30654 0.24225 0.35573 0.0
C1067 C 0.31259 0.27244 0.39393 0.0
C1068 C 0.31857 0.28386 0.44108 0.0
C1069 C 0.31469 0.25367 0.39874 0.0
C1070 C 0.32887 0.27657 0.48918 0.0
C1071 C 0.33131 0.25782 0.49388 0.0
H1072 H 0.97519 0.07754 0.7447 0.0
H1073 H 0.96671 0.04444 0.58478 0.0
H1074 H 0.99861 0.0468 0.55827 0.0
H1075 H 0.02939 0.05185 0.59441 0.0
H1076 H 0.03869 0.08297 0.7581 0.0
H1077 H 0.00619 0.08835 0.76839 0.0
C1078 C 0.98026 0.07151 0.70279 0.0
C1079 C 0.96875 0.06064 0.66709 0.0
C1080 C 0.99886 0.07231 0.68913 0.0
C1081 C 0.97542 0.05273 0.61315 0.0
C1082 C 0.99367 0.05399 0.59816 0.0
C1083 C 0.02433 0.06042 0.63093 0.0
C1084 C 0.03631 0.06674 0.67595 0.0
C1085 C 0.00565 0.06279 0.63784 0.0
C1086 C 0.0297 0.07795 0.72282 0.0
C1087 C 0.01107 0.0808 0.72921 0.0
H1088 H 0.82881 0.7243 0.06555 0.0
H1089 H 0.81192 0.71617 0.87862 0.0
H1090 H 0.81524 0.74836 0.85772 0.0
H1091 H 0.81508 0.77896 0.89994 0.0
H1092 H 0.83019 0.78774 0.08813 0.0
H1093 H 0.83587 0.75535 0.10113 0.0
C1094 C 0.82674 0.72951 0.0196 0.0
C1095 C 0.81999 0.718 0.97373 0.0
C1096 C 0.82792 0.74826 0.00864 0.0
C1097 C 0.81709 0.72486 0.91453 0.0
C1098 C 0.8188 0.7433 0.90275 0.0
C1099 C 0.82033 0.77383 0.94303 0.0
C1100 C 0.82194 0.78557 -0.00676 0.0
C1101 C 0.82301 0.7552 0.95051 0.0
C1102 C 0.82886 0.77891 0.0488 0.0
C1103 C 0.83188 0.76035 0.05643 0.0
H1104 H 0.70953 0.22812 0.39363 0.0
H1105 H 0.68583 0.22891 0.57383 0.0
H1106 H 0.67925 0.26125 0.5628 0.0
H1107 H 0.68726 0.29005 0.5117 0.0
H1108 H 0.71267 0.2888 0.33388 0.0
H1109 H 0.71093 0.2559 0.33281 0.0
C1110 C 0.7023 0.23527 0.42946 0.0
C1111 C 0.69836 0.22635 0.48469 0.0
C1112 C 0.69904 0.25385 0.42327 0.0
C1113 C 0.68894 0.23558 0.53086 0.0
C1114 C 0.68537 0.2541 0.52474 0.0
C1115 C 0.69161 0.2826 0.47155 0.0
C1116 C 0.70034 0.29178 0.4233 0.0
C1117 C 0.69132 0.26356 0.47255 0.0
C1118 C 0.70604 0.28198 0.3717 0.0
C1119 C 0.70523 0.26315 0.37138 0.0
H1120 H 0.77726 0.27731 0.16913 0.0
H1121 H 0.82198 0.29114 0.05117 0.0
H1122 H 0.83108 0.25933 0.04764 0.0
H1123 H 0.82339 0.22708 0.06553 0.0
H1124 H 0.7772 0.21395 0.17801 0.0
H1125 H 0.77161 0.24592 0.19598 0.0
C1126 C 0.78923 0.27347 0.14354 0.0
C1127 C 0.79875 0.28658 0.10973 0.0
C1128 C 0.79392 0.25516 0.13979 0.0
C1129 C 0.81437 0.28135 0.07757 0.0
C1130 C 0.81946 0.26311 0.07501 0.0
C1131 C 0.8123 0.23125 0.09476 0.0
C1132 C 0.80056 0.21817 0.11966 0.0
C1133 C 0.80888 0.2498 0.10389 0.0
C1134 C 0.78627 0.22375 0.15757 0.0
C1135 C 0.78307 0.24205 0.16799 0.0
H1136 H 0.6877 0.72726 0.69833 0.0
H1137 H 0.67276 0.71891 0.50971 0.0
H1138 H 0.6673 0.75129 0.49732 0.0
H1139 H 0.67552 0.78204 0.53239 0.0
H1140 H 0.6929 0.7898 0.71896 0.0
H1141 H 0.68812 0.75783 0.74068 0.0
C1142 C 0.68246 0.73246 0.65535 0.0
C1143 C 0.68102 0.72085 0.60469 0.0
C1144 C 0.68012 0.75115 0.64797 0.0
C1145 C 0.67404 0.72762 0.54936 0.0
C1146 C 0.67117 0.74621 0.54202 0.0
C1147 C 0.67735 0.77685 0.5785 0.0
C1148 C 0.68477 0.78812 0.62388 0.0
C1149 C 0.67543 0.75819 0.58979 0.0
C1150 C 0.68729 0.78129 0.68334 0.0
C1151 C 0.68473 0.76297 0.69558 0.0
H1152 H 0.53888 0.43454 0.77129 0.0
H1153 H 0.5439 0.46021 0.94782 0.0
H1154 H 0.51149 0.45726 0.96463 0.0
H1155 H 0.48152 0.45404 0.91895 0.0
H1156 H 0.47579 0.42957 0.74099 0.0
H1157 H 0.50853 0.425 0.73529 0.0
C1158 C 0.53294 0.43877 0.81441 0.0
C1159 C 0.54366 0.44784 0.85788 0.0
C1160 C 0.51409 0.4376 0.82291 0.0
C1161 C 0.53584 0.45337 0.91346 0.0
C1162 C 0.51729 0.4518 0.92294 0.0
C1163 C 0.48741 0.44713 0.87991 0.0
C1164 C 0.47638 0.44242 0.83009 0.0
C1165 C 0.5062 0.44497 0.87643 0.0
C1166 C 0.48405 0.43332 0.77993 0.0
C1167 C 0.5028 0.4309 0.77639 0.0
H1168 H 0.98364 0.5601 0.45218 0.0
H1169 H 0.97278 0.57733 0.26728 0.0
H1170 H 0.00502 0.58287 0.25054 0.0
H1171 H 0.03638 0.57497 0.28071 0.0
H1172 H 0.04654 0.55579 0.46401 0.0
H1173 H 0.0147 0.55936 0.48996 0.0
C1174 C 0.98829 0.5658 0.40912 0.0
C1175 C 0.97598 0.56803 0.36076 0.0
C1176 C 0.00685 0.56832 0.3993 0.0
C1177 C 0.98204 0.57552 0.30523 0.0
C1178 C 1.00053 0.57845 0.29539 0.0
C1179 C 0.0317 0.57243 0.32705 0.0
C1180 C 0.04366 0.56498 0.37033 0.0
C1181 C 0.01314 0.57377 0.34086 0.0
C1182 C 0.03749 0.56148 0.43004 0.0
C1183 C 0.01926 0.56336 0.44471 0.0
H1184 H 0.97211 0.43925 0.64543 0.0
H1185 H 0.96962 0.42016 0.83171 0.0
H1186 H 1.00232 0.41547 0.83201 0.0
H1187 H 0.0317 0.42531 0.78894 0.0
H1188 H 0.03362 0.4464 0.6048 0.0
H1189 H 1.00128 0.4413 0.59312 0.0
C1190 C 0.97865 0.43322 0.68498 0.0
C1191 C 0.9686 0.43036 0.73874 0.0
C1192 C 0.99751 0.43131 0.68557 0.0
C1193 C 0.9771 0.42247 0.78973 0.0
C1194 C 0.99588 0.42007 0.79022 0.0
C1195 C 0.02516 0.42796 0.74537 0.0
C1196 C 0.03491 0.43655 0.69819 0.0
C1197 C 0.00632 0.42569 0.73989 0.0
C1198 C 0.02631 0.43999 0.64198 0.0
C1199 C 0.00778 0.43721 0.63544 0.0
H1200 H 0.46486 0.56949 0.25538 0.0
H1201 H 0.46156 0.54245 0.0808 0.0
H1202 H 0.49358 0.54796 0.06272 0.0
H1203 H 0.52326 0.55358 0.10768 0.0
H1204 H 0.52737 0.57872 0.28514 0.0
H1205 H 0.49445 0.58137 0.29037 0.0
C1206 C 0.47103 0.56552 0.21237 0.0
C1207 C 0.461 0.55536 0.16983 0.0
C1208 C 0.48972 0.56809 0.20337 0.0
C1209 C 0.46912 0.55014 0.11441 0.0
C1210 C 0.48745 0.55318 0.10422 0.0
C1211 C 0.51695 0.56026 0.14644 0.0
C1212 C 0.52764 0.56562 0.19639 0.0
C1213 C 0.49806 0.5611 0.15005 0.0
C1214 C 0.5194 0.57444 0.24611 0.0
C1215 C 0.50054 0.57574 0.24946 0.0
H1216 H 0.26073 0.13117 0.14855 0.0
H1217 H 0.20668 0.13572 0.22032 0.0
H1218 H 0.21784 0.12899 0.32333 0.0
H1219 H 0.24365 0.13188 0.39314 0.0
H1220 H 0.2979 0.13164 0.32102 0.0
H1221 H 0.28615 0.12586 0.21831 0.0
C1222 C 0.25132 0.1299 0.18648 0.0
C1223 C 0.23304 0.13446 0.17763 0.0
C1224 C 0.25802 0.12716 0.24577 0.0
C1225 C 0.22083 0.13244 0.22631 0.0
C1226 C 0.22728 0.12884 0.28534 0.0
C1227 C 0.25293 0.12983 0.35524 0.0
C1228 C 0.27155 0.13286 0.36394 0.0
C1229 C 0.24598 0.1277 0.29595 0.0
C1230 C 0.2835 0.12966 0.31523 0.0
C1231 C 0.27674 0.1266 0.25632 0.0
H1232 H 0.12125 0.97268 0.4482 0.0
H1233 H 0.11914 0.02234 0.34537 0.0
H1234 H 0.12541 0.0397 0.43767 0.0
H1235 H 0.12043 0.04065 0.54915 0.0
H1236 H 0.12069 0.99095 0.65196 0.0
H1237 H 0.12694 0.9738 0.55913 0.0
C1238 C 0.1232 0.98719 0.44551 0.0
C1239 C 0.11907 0.99631 0.39099 0.0
C1240 C 0.126 0.99717 0.49947 0.0
C1241 C 0.12183 0.0151 0.3876 0.0
C1242 C 0.12524 0.02508 0.44053 0.0
C1243 C 0.12291 0.02621 0.5516 0.0
C1244 C 0.1195 0.01695 0.60644 0.0
C1245 C 0.12567 0.01633 0.4974 0.0
C1246 C 0.12287 0.99826 0.60953 0.0
C1247 C 0.12625 0.98841 0.55633 0.0
H1248 H 0.26636 0.86823 0.89248 0.0
H1249 H 0.21245 0.86968 0.81799 0.0
H1250 H 0.22477 0.87468 0.71542 0.0
H1251 H 0.25046 0.869 0.6468 0.0
H1252 H 0.3042 0.86446 0.72106 0.0
H1253 H 0.29255 0.87082 0.82376 0.0
C1254 C 0.25732 0.87042 0.85405 0.0
C1255 C 0.23858 0.86806 0.86216 0.0
C1256 C 0.26455 0.87233 0.795 0.0
C1257 C 0.22692 0.87127 0.81268 0.0
C1258 C 0.23399 0.87387 0.75388 0.0
C1259 C 0.25969 0.8702 0.68522 0.0
C1260 C 0.27805 0.86584 0.67707 0.0
C1261 C 0.25274 0.87297 0.74422 0.0
C1262 C 0.29001 0.86767 0.72649 0.0
C1263 C 0.28329 0.87106 0.78531 0.0
H1264 H 0.39487 0.04233 0.96055 0.0
H1265 H 0.40073 0.99184 0.86436 0.0
H1266 H 0.3925 0.97515 0.95657 0.0
H1267 H 0.39302 0.9751 0.06893 0.0
H1268 H 0.38958 0.0256 0.16639 0.0
H1269 H 0.38675 0.042 0.06993 0.0
C1270 C 0.3935 0.02774 0.95915 0.0
C1271 C 0.39889 0.01828 0.90656 0.0
C1272 C 0.38954 0.01817 0.01326 0.0
C1273 C 0.39699 0.99937 0.90501 0.0
C1274 C 0.39239 0.9898 0.95785 0.0
C1275 C 0.39074 0.98958 0.06912 0.0
C1276 C 0.39209 0.9992 0.12431 0.0
C1277 C 0.39004 0.99902 0.01326 0.0
C1278 C 0.38897 0.01795 0.12409 0.0
C1279 C 0.38753 0.02738 0.06888 0.0
H1280 H 0.74769 0.86625 0.89759 0.0
H1281 H 0.80182 0.86077 0.82728 0.0
H1282 H 0.79074 0.8658 0.723 0.0
H1283 H 0.76489 0.86323 0.65271 0.0
H1284 H 0.71061 0.8668 0.72364 0.0
H1285 H 0.72247 0.87174 0.82668 0.0
C1286 C 0.75712 0.8669 0.85957 0.0
C1287 C 0.77544 0.86275 0.86953 0.0
C1288 C 0.75055 0.86917 0.79981 0.0
C1289 C 0.78765 0.86385 0.82049 0.0
C1290 C 0.78127 0.86651 0.76081 0.0
C1291 C 0.75568 0.86581 0.69041 0.0
C1292 C 0.73692 0.86411 0.68109 0.0
C1293 C 0.76261 0.86791 0.74981 0.0
C1294 C 0.7251 0.86785 0.72978 0.0
C1295 C 0.73189 0.87045 0.7889 0.0
H1296 H 0.8805 0.99734 0.64885 0.0
H1297 H 0.88222 0.05243 0.58451 0.0
H1298 H 0.87557 0.04226 0.48058 0.0
H1299 H 0.88021 0.01761 0.40723 0.0
H1300 H 0.88306 0.96257 0.47145 0.0
H1301 H 0.87633 0.9726 0.57557 0.0
C1302 C 0.87865 0.00717 0.61244 0.0
C1303 C 0.88262 0.02549 0.6235 0.0
C1304 C 0.87608 1.00109 0.55228 0.0
C1305 C 0.87961 0.0382 0.57682 0.0
C1306 C 0.87604 0.03234 0.51714 0.0
C1307 C 0.87858 0.00775 0.44368 0.0
C1308 C 0.88284 0.9895 0.43251 0.0
C1309 C 0.87593 0.01377 0.50386 0.0
C1310 C 0.88016 0.97673 0.47924 0.0
C1311 C 0.87656 0.98252 0.53899 0.0
H1312 H 0.75481 0.1507 0.17254 0.0
H1313 H 0.80758 0.14021 0.24794 0.0
H1314 H 0.7942 0.13534 0.34933 0.0
H1315 H 0.76865 0.14158 0.41833 0.0
H1316 H 0.71609 0.15307 0.343 0.0
H1317 H 0.72801 0.14932 0.23921 0.0
C1318 C 0.76327 0.14677 0.21092 0.0
C1319 C 0.78213 0.14619 0.20366 0.0
C1320 C 0.75549 0.14427 0.26889 0.0
C1321 C 0.79303 0.14081 0.25291 0.0
C1322 C 0.78538 0.13817 0.31085 0.0
C1323 C 0.75967 0.14244 0.37913 0.0
C1324 C 0.74165 0.14789 0.3878 0.0
C1325 C 0.76679 0.14091 0.31983 0.0
C1326 C 0.73001 0.14886 0.33721 0.0
C1327 C 0.7369 0.14701 0.27788 0.0
H1328 H 0.62523 0.01751 0.17387 0.0
H1329 H 0.62376 0.96272 0.10761 0.0
H1330 H 0.63308 0.97304 0.00586 0.0
H1331 H 0.63067 0.99808 0.93253 0.0
H1332 H 0.62752 0.0529 -0.00209 0.0
H1333 H 0.63191 0.0424 0.10299 0.0
C1334 C 0.62781 0.00778 0.13772 0.0
C1335 C 0.62331 0.98951 0.14714 0.0
C1336 C 0.63202 0.01399 0.07876 0.0
C1337 C 0.62697 0.97687 0.10097 0.0
C1338 C 0.63206 0.98284 0.04259 0.0
C1339 C 0.63188 0.00777 0.96964 0.0
C1340 C 0.6281 0.02612 0.95825 0.0
C1341 C 0.63301 1.00146 0.03008 0.0
C1342 C 0.63012 0.03868 0.00583 0.0
C1343 C 0.63231 0.03261 0.06609 0.0
H1344 H 0.747 0.63718 0.92001 0.0
H1345 H 0.80123 0.64362 0.85106 0.0
H1346 H 0.79003 0.64193 0.74601 0.0
H1347 H 0.76426 0.64738 0.67734 0.0
H1348 H 0.70992 0.64265 0.74672 0.0
H1349 H 0.72164 0.63455 0.84786 0.0
C1350 C 0.75643 0.63744 0.8819 0.0
C1351 C 0.77481 0.64106 0.89296 0.0
C1352 C 0.74978 0.63722 0.82176 0.0
C1353 C 0.78699 0.64102 0.84363 0.0
C1354 C 0.78054 0.64031 0.78349 0.0
C1355 C 0.75501 0.64394 0.71417 0.0
C1356 C 0.73631 0.64606 0.70546 0.0
C1357 C 0.76187 0.63979 0.77236 0.0
C1358 C 0.72438 0.64125 0.75272 0.0
C1359 C 0.73109 0.63678 0.81066 0.0
H1360 H 0.61448 0.49689 0.14478 0.0
H1361 H 0.61486 0.552 0.08039 0.0
H1362 H 0.62555 0.54193 0.98009 0.0
H1363 H 0.62569 0.51712 0.90555 0.0
H1364 H 0.6223 0.46196 0.9687 0.0
H1365 H 0.62276 0.4723 0.07478 0.0
C1366 C 0.61753 0.50674 0.10936 0.0
C1367 C 0.61333 0.52506 0.11897 0.0
C1368 C 0.62294 0.50076 0.05127 0.0
C1369 C 0.61775 0.53779 0.07365 0.0
C1370 C 0.62371 0.532 0.01611 0.0
C1371 C 0.6258 0.50733 0.94262 0.0
C1372 C 0.62321 0.48888 0.92948 0.0
C1373 C 0.62501 0.51345 0.00334 0.0
C1374 C 0.62394 0.47627 0.97759 0.0
C1375 C 0.62394 0.48221 0.03837 0.0
H1376 H 0.71693 0.3817 0.3289 0.0
H1377 H 0.7692 0.38272 0.41508 0.0
H1378 H 0.78369 0.38819 0.31668 0.0
H1379 H 0.78154 0.37925 0.20817 0.0
H1380 H 0.7292 0.37624 0.12271 0.0
H1381 H 0.71471 0.3857 0.21747 0.0
C1382 C 0.73134 0.38434 0.32658 0.0
C1383 C 0.74215 0.38076 0.37783 0.0
C1384 C 0.73965 0.38647 0.26919 0.0
C1385 C 0.76072 0.38476 0.37516 0.0
C1386 C 0.76906 0.38762 0.31868 0.0
C1387 C 0.76711 0.38177 0.20938 0.0
C1388 C 0.75631 0.3762 0.1602 0.0
C1389 C 0.75878 0.38642 0.26504 0.0
C1390 C 0.73767 0.37988 0.16132 0.0
C1391 C 0.72934 0.38514 0.21569 0.0
H1392 H 0.89127 0.47357 0.63168 0.0
H1393 H 0.90521 0.52107 0.7358 0.0
H1394 H 0.90101 0.53997 0.64546 0.0
H1395 H 0.90199 0.54138 0.53281 0.0
H1396 H 0.89049 0.49346 0.42813 0.0
H1397 H 0.88446 0.47656 0.522 0.0
C1398 C 0.89263 0.48813 0.63515 0.0
C1399 C 0.89908 0.49584 0.68968 0.0
C1400 C 0.89088 0.49888 0.58227 0.0
C1401 C 0.90066 0.51476 0.69374 0.0
C1402 C 0.89834 0.5256 0.64199 0.0
C1403 C 0.8972 0.52753 0.5307 0.0
C1404 C 0.89684 0.51857 0.47415 0.0
C1405 C 0.89473 0.51763 0.58513 0.0
C1406 C 0.89087 0.50055 0.47156 0.0
C1407 C 0.88766 0.49082 0.52526 0.0
H1408 H 0.26642 0.37496 0.13138 0.0
H1409 H 0.21221 0.37052 0.20223 0.0
H1410 H 0.22354 0.37473 0.30633 0.0
H1411 H 0.24916 0.36915 0.37504 0.0
H1412 H 0.30345 0.36929 0.30346 0.0
H1413 H 0.29198 0.37767 0.20223 0.0
C1414 C 0.25702 0.37573 0.1695 0.0
C1415 C 0.23863 0.37172 0.15974 0.0
C1416 C 0.2638 0.37683 0.22931 0.0
C1417 C 0.22646 0.37326 0.20877 0.0
C1418 C 0.233 0.37537 0.26845 0.0
C1419 C 0.25852 0.37172 0.3377 0.0
C1420 C 0.27703 0.36804 0.34575 0.0
C1421 C 0.25172 0.37552 0.27923 0.0
C1422 C 0.28913 0.37181 0.29796 0.0
C1423 C 0.28253 0.37641 0.23994 0.0
H1424 H 0.38478 0.50566 0.89374 0.0
H1425 H 0.38795 0.45078 0.95895 0.0
H1426 H 0.37637 0.46026 0.05894 0.0
H1427 H 0.37617 0.48513 0.13309 0.0
H1428 H 0.378 0.54025 0.06952 0.0
H1429 H 0.37566 0.52991 0.96368 0.0
C1430 C 0.38215 0.49569 0.92918 0.0
C1431 C 0.38771 0.47771 0.92026 0.0
C1432 C 0.37659 0.50146 0.98726 0.0
C1433 C 0.38396 0.46474 0.96536 0.0
C1434 C 0.37753 0.47022 0.0227 0.0
C1435 C 0.37513 0.49488 0.09605 0.0
C1436 C 0.3781 0.51333 0.10844 0.0
C1437 C 0.37537 0.48873 0.03537 0.0
C1438 C 0.37613 0.52595 0.06091 0.0
C1439 C 0.37515 0.51999 0.00023 0.0
H1440 H 0.21933 0.64178 0.81504 0.0
H1441 H 0.26937 0.64722 0.91415 0.0
H1442 H 0.28646 0.63934 0.82251 0.0
H1443 H 0.28707 0.64017 0.71025 0.0
H1444 H 0.23704 0.63754 0.60976 0.0
H1445 H 0.22014 0.63433 0.70512 0.0
C1446 C 0.23391 0.64038 0.8171 0.0
C1447 C 0.24314 0.64547 0.8705 0.0
C1448 C 0.24371 0.6367 0.76331 0.0
C1449 C 0.26203 0.64364 0.87293 0.0
C1450 C 0.27183 0.63926 0.82042 0.0
C1451 C 0.27258 0.63797 0.70915 0.0
C1452 C 0.26324 0.6396 0.65348 0.0
C1453 C 0.26286 0.63713 0.76442 0.0
C1454 C 0.24446 0.63666 0.65247 0.0
C1455 C 0.23476 0.63502 0.70706 0.0
H1456 H 0.12351 0.49224 0.41459 0.0
H1457 H 0.12091 0.54723 0.47925 0.0
H1458 H 0.12309 0.53667 0.58498 0.0
H1459 H 0.11654 0.51178 0.65634 0.0
H1460 H 0.11685 0.4568 0.5912 0.0
H1461 H 0.12522 0.46727 0.48875 0.0
C1462 C 0.12417 0.50194 0.45179 0.0
C1463 C 0.12145 0.52043 0.4394 0.0
C1464 C 0.12459 0.4957 0.51251 0.0
C1465 C 0.12275 0.53292 0.48762 0.0
C1466 C 0.12376 0.52685 0.54823 0.0
C1467 C 0.11915 0.50206 0.62019 0.0
C1468 C 0.1156 0.48362 0.63058 0.0
C1469 C 0.12326 0.50825 0.56103 0.0
C1470 C 0.11934 0.47108 0.58408 0.0
C1471 C 0.12392 0.4771 0.52529 0.0
loop_
_geom_bond_atom_site_label_1
_geom_bond_atom_site_label_2
_geom_bond_distance
_geom_bond_site_symmetry_2
_ccdc_geom_bond_type
Zn0 O3 2.031 . S
Zn0 O5 2.049 1_554 S
Zn0 O10 2.067 . S
Zn1 O2 1.962 . S
Zn1 O4 1.986 1_554 S
Zn1 O6 1.996 1_554 S
Zn1 O9 1.943 . S
O2 Zn1 1.962 . S
O2 C7 1.254 . S
O3 Zn0 2.031 . S
O3 C7 1.269 . S
O4 Zn1 1.986 1_556 S
O4 C11 1.262 1_556 S
O5 Zn0 2.049 1_556 S
O5 C13 1.260 . S
O6 Zn1 1.996 1_556 S
O6 C13 1.257 . S
C7 O2 1.254 . S
C7 O3 1.269 . S
C8 O9 1.249 . S
C8 O10 1.270 . S
O9 Zn1 1.943 . S
O9 C8 1.249 . S
O10 Zn0 2.067 . S
O10 C8 1.270 . S
C11 O4 1.262 1_554 S
C11 O12 1.232 . S
O12 C11 1.232 . S
C13 O5 1.260 . S
C13 O6 1.257 . S
Zn14 O17 2.031 . S
Zn14 O19 2.049 . S
Zn14 O24 2.067 . S
Zn15 O16 1.962 . S
Zn15 O18 1.986 . S
Zn15 O20 1.996 . S
Zn15 O23 1.943 . S
O16 Zn15 1.962 . S
O16 C21 1.254 . S
O17 Zn14 2.031 . S
O17 C21 1.269 . S
O18 Zn15 1.986 . S
O18 C25 1.262 . S
O19 Zn14 2.049 . S
O19 C27 1.260 . S
O20 Zn15 1.996 . S
O20 C27 1.257 . S
C21 O16 1.254 . S
C21 O17 1.269 . S
C22 O23 1.249 . S
C22 O24 1.270 . S
O23 Zn15 1.943 . S
O23 C22 1.249 . S
O24 Zn14 2.067 . S
O24 C22 1.270 . S
C25 O18 1.262 . S
C25 O26 1.232 . S
O26 C25 1.232 . S
C27 O19 1.260 . S
C27 O20 1.257 . S
Zn28 O31 2.031 . S
Zn28 O33 2.049 . S
Zn28 O38 2.067 . S
Zn29 O30 1.962 . S
Zn29 O32 1.986 . S
Zn29 O34 1.996 . S
Zn29 O37 1.943 . S
O30 Zn29 1.962 . S
O30 C35 1.254 . S
O31 Zn28 2.031 . S
O31 C35 1.269 . S
O32 Zn29 1.986 . S
O32 C39 1.262 . S
O33 Zn28 2.049 . S
O33 C41 1.260 . S
O34 Zn29 1.996 . S
O34 C41 1.257 . S
C35 O30 1.254 . S
C35 O31 1.269 . S
C36 O37 1.249 . S
C36 O38 1.270 . S
O37 Zn29 1.943 . S
O37 C36 1.249 . S
O38 Zn28 2.067 . S
O38 C36 1.270 . S
C39 O32 1.262 . S
C39 O40 1.232 . S
O40 C39 1.232 . S
C41 O33 1.260 . S
C41 O34 1.257 . S
Zn42 O45 2.031 . S
Zn42 O47 2.049 . S
Zn42 O52 2.067 . S
Zn43 O44 1.962 . S
Zn43 O46 1.986 . S
Zn43 O48 1.996 . S
Zn43 O51 1.943 . S
O44 Zn43 1.962 . S
O44 C49 1.254 . S
O45 Zn42 2.031 . S
O45 C49 1.269 . S
O46 Zn43 1.986 . S
O46 C53 1.262 . S
O47 Zn42 2.049 . S
O47 C55 1.260 . S
O48 Zn43 1.996 . S
O48 C55 1.257 . S
C49 O44 1.254 . S
C49 O45 1.269 . S
C50 O51 1.249 . S
C50 O52 1.270 . S
O51 Zn43 1.943 . S
O51 C50 1.249 . S
O52 Zn42 2.067 . S
O52 C50 1.270 . S
C53 O46 1.262 . S
C53 O54 1.232 . S
O54 C53 1.232 . S
C55 O47 1.260 . S
C55 O48 1.257 . S
Zn56 O59 2.031 1_554 S
Zn56 O61 2.049 . S
Zn56 O66 2.067 . S
Zn57 O58 1.962 1_554 S
Zn57 O60 1.986 . S
Zn57 O62 1.996 . S
Zn57 O65 1.943 . S
O58 Zn57 1.962 1_556 S
O58 C63 1.254 . S
O59 Zn56 2.031 1_556 S
O59 C63 1.269 . S
O60 Zn57 1.986 . S
O60 C67 1.262 . S
O61 Zn56 2.049 . S
O61 C69 1.260 . S
O62 Zn57 1.996 . S
O62 C69 1.257 . S
C63 O58 1.254 . S
C63 O59 1.269 . S
C64 O65 1.249 . S
C64 O66 1.270 . S
O65 Zn57 1.943 . S
O65 C64 1.249 . S
O66 Zn56 2.067 . S
O66 C64 1.270 . S
C67 O60 1.262 . S
C67 O68 1.232 . S
O68 C67 1.232 . S
C69 O61 1.260 . S
C69 O62 1.257 . S
Zn70 O73 2.031 . S
Zn70 O75 2.049 . S
Zn70 O80 2.067 . S
Zn71 O72 1.962 . S
Zn71 O74 1.986 . S
Zn71 O76 1.996 . S
Zn71 O79 1.943 . S
O72 Zn71 1.962 . S
O72 C77 1.254 . S
O73 Zn70 2.031 . S
O73 C77 1.269 . S
O74 Zn71 1.986 . S
O74 C81 1.262 . S
O75 Zn70 2.049 . S
O75 C83 1.260 . S
O76 Zn71 1.996 . S
O76 C83 1.257 . S
C77 O72 1.254 . S
C77 O73 1.269 . S
C78 O79 1.249 . S
C78 O80 1.270 . S
O79 Zn71 1.943 . S
O79 C78 1.249 . S
O80 Zn70 2.067 . S
O80 C78 1.270 . S
C81 O74 1.262 . S
C81 O82 1.232 . S
O82 C81 1.232 . S
C83 O75 1.260 . S
C83 O76 1.257 . S
Zn84 O87 2.031 . S
Zn84 O89 2.049 . S
Zn84 O94 2.067 . S
Zn85 O86 1.962 . S
Zn85 O88 1.986 . S
Zn85 O90 1.996 . S
Zn85 O93 1.943 . S
O86 Zn85 1.962 . S
O86 C91 1.254 . S
O87 Zn84 2.031 . S
O87 C91 1.269 . S
O88 Zn85 1.986 . S
O88 C95 1.262 . S
O89 Zn84 2.049 . S
O89 C97 1.260 . S
O90 Zn85 1.996 . S
O90 C97 1.257 . S
C91 O86 1.254 . S
C91 O87 1.269 . S
C92 O93 1.249 . S
C92 O94 1.270 . S
O93 Zn85 1.943 . S
O93 C92 1.249 . S
O94 Zn84 2.067 . S
O94 C92 1.270 . S
C95 O88 1.262 . S
C95 O96 1.232 . S
O96 C95 1.232 . S
C97 O89 1.260 . S
C97 O90 1.257 . S
Zn98 O101 2.031 . S
Zn98 O103 2.049 . S
Zn98 O108 2.067 . S
Zn99 O100 1.962 . S
Zn99 O102 1.986 . S
Zn99 O104 1.996 . S
Zn99 O107 1.943 . S
O100 Zn99 1.962 . S
O100 C105 1.254 . S
O101 Zn98 2.031 . S
O101 C105 1.269 . S
O102 Zn99 1.986 . S
O102 C109 1.262 . S
O103 Zn98 2.049 . S
O103 C111 1.260 . S
O104 Zn99 1.996 . S
O104 C111 1.257 . S
C105 O100 1.254 . S
C105 O101 1.269 . S
C106 O107 1.249 . S
C106 O108 1.270 . S
O107 Zn99 1.943 . S
O107 C106 1.249 . S
O108 Zn98 2.067 . S
O108 C106 1.270 . S
C109 O102 1.262 . S
C109 O110 1.232 . S
O110 C109 1.232 . S
C111 O103 1.260 . S
C111 O104 1.257 . S
Zn112 O115 2.031 1_554 S
Zn112 O117 2.049 . S
Zn112 O122 2.067 . S
Zn113 O114 1.962 1_554 S
Zn113 O116 1.986 . S
Zn113 O118 1.996 . S
Zn113 O121 1.943 . S
O114 Zn113 1.962 1_556 S
O114 C119 1.254 . S
O115 Zn112 2.031 1_556 S
O115 C119 1.269 . S
O116 Zn113 1.986 . S
O116 C123 1.262 . S
O117 Zn112 2.049 . S
O117 C125 1.260 . S
O118 Zn113 1.996 . S
O118 C125 1.257 . S
C119 O114 1.254 . S
C119 O115 1.269 . S
C120 O121 1.249 . S
C120 O122 1.270 . S
O121 Zn113 1.943 . S
O121 C120 1.249 . S
O122 Zn112 2.067 . S
O122 C120 1.270 . S
C123 O116 1.262 . S
C123 O124 1.232 . S
O124 C123 1.232 . S
C125 O117 1.260 . S
C125 O118 1.257 . S
Zn126 O129 2.031 . S
Zn126 O131 2.049 . S
Zn126 O136 2.067 . S
Zn127 O128 1.962 . S
Zn127 O130 1.986 . S
Zn127 O132 1.996 . S
Zn127 O135 1.943 . S
O128 Zn127 1.962 . S
O128 C133 1.254 . S
O129 Zn126 2.031 . S
O129 C133 1.269 . S
O130 Zn127 1.986 . S
O130 C137 1.262 . S
O131 Zn126 2.049 . S
O131 C139 1.260 . S
O132 Zn127 1.996 . S
O132 C139 1.257 . S
C133 O128 1.254 . S
C133 O129 1.269 . S
C134 O135 1.249 . S
C134 O136 1.270 . S
O135 Zn127 1.943 . S
O135 C134 1.249 . S
O136 Zn126 2.067 . S
O136 C134 1.270 . S
C137 O130 1.262 . S
C137 O138 1.232 . S
O138 C137 1.232 . S
C139 O131 1.260 . S
C139 O132 1.257 . S
Zn140 O143 2.031 . S
Zn140 O145 2.049 . S
Zn140 O150 2.067 . S
Zn141 O142 1.962 . S
Zn141 O144 1.986 . S
Zn141 O146 1.996 . S
Zn141 O149 1.943 . S
O142 Zn141 1.962 . S
O142 C147 1.254 . S
O143 Zn140 2.031 . S
O143 C147 1.269 . S
O144 Zn141 1.986 . S
O144 C151 1.262 . S
O145 Zn140 2.049 . S
O145 C153 1.260 . S
O146 Zn141 1.996 . S
O146 C153 1.257 . S
C147 O142 1.254 . S
C147 O143 1.269 . S
C148 O149 1.249 . S
C148 O150 1.270 . S
O149 Zn141 1.943 . S
O149 C148 1.249 . S
O150 Zn140 2.067 . S
O150 C148 1.270 . S
C151 O144 1.262 . S
C151 O152 1.232 . S
O152 C151 1.232 . S
C153 O145 1.260 . S
C153 O146 1.257 . S
Zn154 O157 2.031 . S
Zn154 O159 2.049 . S
Zn154 O164 2.067 . S
Zn155 O156 1.962 . S
Zn155 O158 1.986 . S
Zn155 O160 1.996 . S
Zn155 O163 1.943 . S
O156 Zn155 1.962 . S
O156 C161 1.254 . S
O157 Zn154 2.031 . S
O157 C161 1.269 . S
O158 Zn155 1.986 . S
O158 C165 1.262 . S
O159 Zn154 2.049 . S
O159 C167 1.260 . S
O160 Zn155 1.996 . S
O160 C167 1.257 . S
C161 O156 1.254 . S
C161 O157 1.269 . S
C162 O163 1.249 . S
C162 O164 1.270 . S
O163 Zn155 1.943 . S
O163 C162 1.249 . S
O164 Zn154 2.067 . S
O164 C162 1.270 . S
C165 O158 1.262 . S
C165 O166 1.232 . S
O166 C165 1.232 . S
C167 O159 1.260 . S
C167 O160 1.257 . S
Zn168 O171 2.031 . S
Zn168 O173 2.049 1_554 S
Zn168 O178 2.067 . S
Zn169 O170 1.962 . S
Zn169 O172 1.986 1_554 S
Zn169 O174 1.996 1_554 S
Zn169 O177 1.943 . S
O170 Zn169 1.962 . S
O170 C175 1.254 . S
O171 Zn168 2.031 . S
O171 C175 1.269 . S
O172 Zn169 1.986 1_556 S
O172 C179 1.262 1_556 S
O173 Zn168 2.049 1_556 S
O173 C181 1.260 . S
O174 Zn169 1.996 1_556 S
O174 C181 1.257 . S
C175 O170 1.254 . S
C175 O171 1.269 . S
C176 O177 1.249 . S
C176 O178 1.270 . S
O177 Zn169 1.943 . S
O177 C176 1.249 . S
O178 Zn168 2.067 . S
O178 C176 1.270 . S
C179 O172 1.262 1_554 S
C179 O180 1.232 . S
O180 C179 1.232 . S
C181 O173 1.260 . S
C181 O174 1.257 . S
Zn182 O185 2.031 . S
Zn182 O187 2.049 . S
Zn182 O192 2.067 . S
Zn183 O184 1.962 . S
Zn183 O186 1.986 . S
Zn183 O188 1.996 . S
Zn183 O191 1.943 . S
O184 Zn183 1.962 . S
O184 C189 1.254 . S
O185 Zn182 2.031 . S
O185 C189 1.269 . S
O186 Zn183 1.986 . S
O186 C193 1.262 . S
O187 Zn182 2.049 . S
O187 C195 1.260 . S
O188 Zn183 1.996 . S
O188 C195 1.257 . S
C189 O184 1.254 . S
C189 O185 1.269 . S
C190 O191 1.249 . S
C190 O192 1.270 . S
O191 Zn183 1.943 . S
O191 C190 1.249 . S
O192 Zn182 2.067 . S
O192 C190 1.270 . S
C193 O186 1.262 . S
C193 O194 1.232 . S
O194 C193 1.232 . S
C195 O187 1.260 . S
C195 O188 1.257 . S
Zn196 O199 2.031 . S
Zn196 O201 2.049 . S
Zn196 O206 2.067 . S
Zn197 O198 1.962 . S
Zn197 O200 1.986 . S
Zn197 O202 1.996 . S
Zn197 O205 1.943 . S
O198 Zn197 1.962 . S
O198 C203 1.254 . S
O199 Zn196 2.031 . S
O199 C203 1.269 . S
O200 Zn197 1.986 . S
O200 C207 1.262 . S
O201 Zn196 2.049 . S
O201 C209 1.260 . S
O202 Zn197 1.996 . S
O202 C209 1.257 . S
C203 O198 1.254 . S
C203 O199 1.269 . S
C204 O205 1.249 . S
C204 O206 1.270 . S
O205 Zn197 1.943 . S
O205 C204 1.249 . S
O206 Zn196 2.067 . S
O206 C204 1.270 . S
C207 O200 1.262 . S
C207 O208 1.232 . S
O208 C207 1.232 . S
C209 O201 1.260 . S
C209 O202 1.257 . S
Zn210 O213 2.031 . S
Zn210 O215 2.049 . S
Zn210 O220 2.067 . S
Zn211 O212 1.962 . S
Zn211 O214 1.986 . S
Zn211 O216 1.996 . S
Zn211 O219 1.943 . S
O212 Zn211 1.962 . S
O212 C217 1.254 . S
O213 Zn210 2.031 . S
O213 C217 1.269 . S
O214 Zn211 1.986 . S
O214 C221 1.262 . S
O215 Zn210 2.049 . S
O215 C223 1.260 . S
O216 Zn211 1.996 . S
O216 C223 1.257 . S
C217 O212 1.254 . S
C217 O213 1.269 . S
C218 O219 1.249 . S
C218 O220 1.270 . S
O219 Zn211 1.943 . S
O219 C218 1.249 . S
O220 Zn210 2.067 . S
O220 C218 1.270 . S
C221 O214 1.262 . S
C221 O222 1.232 . S
O222 C221 1.232 . S
C223 O215 1.260 . S
C223 O216 1.257 . S
Zn224 O227 2.031 . S
Zn224 O229 2.049 . S
Zn224 O234 2.067 . S
Zn225 O226 1.962 . S
Zn225 O228 1.986 . S
Zn225 O230 1.996 . S
Zn225 O233 1.943 . S
O226 Zn225 1.962 . S
O226 C231 1.254 . S
O227 Zn224 2.031 . S
O227 C231 1.269 . S
O228 Zn225 1.986 . S
O228 C235 1.262 . S
O229 Zn224 2.049 . S
O229 C237 1.260 . S
O230 Zn225 1.996 . S
O230 C237 1.257 . S
C231 O226 1.254 . S
C231 O227 1.269 . S
C232 O233 1.249 . S
C232 O234 1.270 . S
O233 Zn225 1.943 . S
O233 C232 1.249 . S
O234 Zn224 2.067 . S
O234 C232 1.270 . S
C235 O228 1.262 . S
C235 O236 1.232 . S
O236 C235 1.232 . S
C237 O229 1.260 . S
C237 O230 1.257 . S
Zn238 O241 2.031 . S
Zn238 O243 2.049 . S
Zn238 O248 2.067 . S
Zn239 O240 1.962 . S
Zn239 O242 1.986 . S
Zn239 O244 1.996 . S
Zn239 O247 1.943 . S
O240 Zn239 1.962 . S
O240 C245 1.254 . S
O241 Zn238 2.031 . S
O241 C245 1.269 . S
O242 Zn239 1.986 . S
O242 C249 1.262 . S
O243 Zn238 2.049 . S
O243 C251 1.260 . S
O244 Zn239 1.996 . S
O244 C251 1.257 . S
C245 O240 1.254 . S
C245 O241 1.269 . S
C246 O247 1.249 . S
C246 O248 1.270 . S
O247 Zn239 1.943 . S
O247 C246 1.249 . S
O248 Zn238 2.067 . S
O248 C246 1.270 . S
C249 O242 1.262 . S
C249 O250 1.232 . S
O250 C249 1.232 . S
C251 O243 1.260 . S
C251 O244 1.257 . S
Zn252 O255 2.031 . S
Zn252 O257 2.049 1_554 S
Zn252 O262 2.067 . S
Zn253 O254 1.962 . S
Zn253 O256 1.986 1_554 S
Zn253 O258 1.996 1_554 S
Zn253 O261 1.943 . S
O254 Zn253 1.962 . S
O254 C259 1.254 . S
O255 Zn252 2.031 . S
O255 C259 1.269 . S
O256 Zn253 1.986 1_556 S
O256 C263 1.262 1_556 S
O257 Zn252 2.049 1_556 S
O257 C265 1.260 . S
O258 Zn253 1.996 1_556 S
O258 C265 1.257 . S
C259 O254 1.254 . S
C259 O255 1.269 . S
C260 O261 1.249 . S
C260 O262 1.270 . S
O261 Zn253 1.943 . S
O261 C260 1.249 . S
O262 Zn252 2.067 . S
O262 C260 1.270 . S
C263 O256 1.262 1_554 S
C263 O264 1.232 . S
O264 C263 1.232 . S
C265 O257 1.260 . S
C265 O258 1.257 . S
Zn266 O269 2.031 . S
Zn266 O271 2.049 . S
Zn266 O276 2.067 . S
Zn267 O268 1.962 . S
Zn267 O270 1.986 . S
Zn267 O272 1.996 . S
Zn267 O275 1.943 . S
O268 Zn267 1.962 . S
O268 C273 1.254 . S
O269 Zn266 2.031 . S
O269 C273 1.269 . S
O270 Zn267 1.986 . S
O270 C277 1.262 . S
O271 Zn266 2.049 . S
O271 C279 1.260 . S
O272 Zn267 1.996 . S
O272 C279 1.257 . S
C273 O268 1.254 . S
C273 O269 1.269 . S
C274 O275 1.249 . S
C274 O276 1.270 . S
O275 Zn267 1.943 . S
O275 C274 1.249 . S
O276 Zn266 2.067 . S
O276 C274 1.270 . S
C277 O270 1.262 . S
C277 O278 1.232 . S
O278 C277 1.232 . S
C279 O271 1.260 . S
C279 O272 1.257 . S
Zn280 O283 2.031 . S
Zn280 O285 2.049 . S
Zn280 O290 2.067 . S
Zn281 O282 1.962 . S
Zn281 O284 1.986 . S
Zn281 O286 1.996 . S
Zn281 O289 1.943 . S
O282 Zn281 1.962 . S
O282 C287 1.254 . S
O283 Zn280 2.031 . S
O283 C287 1.269 . S
O284 Zn281 1.986 . S
O284 C291 1.262 . S
O285 Zn280 2.049 . S
O285 C293 1.260 . S
O286 Zn281 1.996 . S
O286 C293 1.257 . S
C287 O282 1.254 . S
C287 O283 1.269 . S
C288 O289 1.249 . S
C288 O290 1.270 . S
O289 Zn281 1.943 . S
O289 C288 1.249 . S
O290 Zn280 2.067 . S
O290 C288 1.270 . S
C291 O284 1.262 . S
C291 O292 1.232 . S
O292 C291 1.232 . S
C293 O285 1.260 . S
C293 O286 1.257 . S
Zn294 O297 2.031 . S
Zn294 O299 2.049 . S
Zn294 O304 2.067 . S
Zn295 O296 1.962 . S
Zn295 O298 1.986 . S
Zn295 O300 1.996 . S
Zn295 O303 1.943 . S
O296 Zn295 1.962 . S
O296 C301 1.254 . S
O297 Zn294 2.031 . S
O297 C301 1.269 . S
O298 Zn295 1.986 . S
O298 C305 1.262 . S
O299 Zn294 2.049 . S
O299 C307 1.260 . S
O300 Zn295 1.996 . S
O300 C307 1.257 . S
C301 O296 1.254 . S
C301 O297 1.269 . S
C302 O303 1.249 . S
C302 O304 1.270 . S
O303 Zn295 1.943 . S
O303 C302 1.249 . S
O304 Zn294 2.067 . S
O304 C302 1.270 . S
C305 O298 1.262 . S
C305 O306 1.232 . S
O306 C305 1.232 . S
C307 O299 1.260 . S
C307 O300 1.257 . S
Zn308 O311 2.031 1_554 S
Zn308 O313 2.049 . S
Zn308 O318 2.067 . S
Zn309 O310 1.962 1_554 S
Zn309 O312 1.986 . S
Zn309 O314 1.996 . S
Zn309 O317 1.943 . S
O310 Zn309 1.962 1_556 S
O310 C315 1.254 . S
O311 Zn308 2.031 1_556 S
O311 C315 1.269 . S
O312 Zn309 1.986 . S
O312 C319 1.262 . S
O313 Zn308 2.049 . S
O313 C321 1.260 . S
O314 Zn309 1.996 . S
O314 C321 1.257 . S
C315 O310 1.254 . S
C315 O311 1.269 . S
C316 O317 1.249 . S
C316 O318 1.270 . S
O317 Zn309 1.943 . S
O317 C316 1.249 . S
O318 Zn308 2.067 . S
O318 C316 1.270 . S
C319 O312 1.262 . S
C319 O320 1.232 . S
O320 C319 1.232 . S
C321 O313 1.260 . S
C321 O314 1.257 . S
Zn322 O325 2.031 . S
Zn322 O327 2.049 . S
Zn322 O332 2.067 . S
Zn323 O324 1.962 . S
Zn323 O326 1.986 . S
Zn323 O328 1.996 . S
Zn323 O331 1.943 . S
O324 Zn323 1.962 . S
O324 C329 1.254 . S
O325 Zn322 2.031 . S
O325 C329 1.269 . S
O326 Zn323 1.986 . S
O326 C333 1.262 . S
O327 Zn322 2.049 . S
O327 C335 1.260 . S
O328 Zn323 1.996 . S
O328 C335 1.257 . S
C329 O324 1.254 . S
C329 O325 1.269 . S
C330 O331 1.249 . S
C330 O332 1.270 . S
O331 Zn323 1.943 . S
O331 C330 1.249 . S
O332 Zn322 2.067 . S
O332 C330 1.270 . S
C333 O326 1.262 . S
C333 O334 1.232 . S
O334 C333 1.232 . S
C335 O327 1.260 . S
C335 O328 1.257 . S
Zn336 O339 2.031 . S
Zn336 O341 2.049 . S
Zn336 O346 2.067 . S
Zn337 O338 1.962 . S
Zn337 O340 1.986 . S
Zn337 O342 1.996 . S
Zn337 O345 1.943 . S
O338 Zn337 1.962 . S
O338 C343 1.254 . S
O339 Zn336 2.031 . S
O339 C343 1.269 . S
O340 Zn337 1.986 . S
O340 C347 1.262 . S
O341 Zn336 2.049 . S
O341 C349 1.260 . S
O342 Zn337 1.996 . S
O342 C349 1.257 . S
C343 O338 1.254 . S
C343 O339 1.269 . S
C344 O345 1.249 . S
C344 O346 1.270 . S
O345 Zn337 1.943 . S
O345 C344 1.249 . S
O346 Zn336 2.067 . S
O346 C344 1.270 . S
C347 O340 1.262 . S
C347 O348 1.232 . S
O348 C347 1.232 . S
C349 O341 1.260 . S
C349 O342 1.257 . S
Zn350 O353 2.031 . S
Zn350 O355 2.049 . S
Zn350 O360 2.067 . S
Zn351 O352 1.962 . S
Zn351 O354 1.986 . S
Zn351 O356 1.996 . S
Zn351 O359 1.943 . S
O352 Zn351 1.962 . S
O352 C357 1.254 . S
O353 Zn350 2.031 . S
O353 C357 1.269 . S
O354 Zn351 1.986 . S
O354 C361 1.262 . S
O355 Zn350 2.049 . S
O355 C363 1.260 . S
O356 Zn351 1.996 . S
O356 C363 1.257 . S
C357 O352 1.254 . S
C357 O353 1.269 . S
C358 O359 1.249 . S
C358 O360 1.270 . S
O359 Zn351 1.943 . S
O359 C358 1.249 . S
O360 Zn350 2.067 . S
O360 C358 1.270 . S
C361 O354 1.262 . S
C361 O362 1.232 . S
O362 C361 1.232 . S
C363 O355 1.260 . S
C363 O356 1.257 . S
Zn364 O367 2.031 1_554 S
Zn364 O369 2.049 . S
Zn364 O374 2.067 . S
Zn365 O366 1.962 1_554 S
Zn365 O368 1.986 . S
Zn365 O370 1.996 . S
Zn365 O373 1.943 . S
O366 Zn365 1.962 1_556 S
O366 C371 1.254 . S
O367 Zn364 2.031 1_556 S
O367 C371 1.269 . S
O368 Zn365 1.986 . S
O368 C375 1.262 . S
O369 Zn364 2.049 . S
O369 C377 1.260 . S
O370 Zn365 1.996 . S
O370 C377 1.257 . S
C371 O366 1.254 . S
C371 O367 1.269 . S
C372 O373 1.249 . S
C372 O374 1.270 . S
O373 Zn365 1.943 . S
O373 C372 1.249 . S
O374 Zn364 2.067 . S
O374 C372 1.270 . S
C375 O368 1.262 . S
C375 O376 1.232 . S
O376 C375 1.232 . S
C377 O369 1.260 . S
C377 O370 1.257 . S
Zn378 O381 2.031 . S
Zn378 O383 2.049 . S
Zn378 O388 2.067 . S
Zn379 O380 1.962 . S
Zn379 O382 1.986 . S
Zn379 O384 1.996 . S
Zn379 O387 1.943 . S
O380 Zn379 1.962 . S
O380 C385 1.254 . S
O381 Zn378 2.031 . S
O381 C385 1.269 . S
O382 Zn379 1.986 . S
O382 C389 1.262 . S
O383 Zn378 2.049 . S
O383 C391 1.260 . S
O384 Zn379 1.996 . S
O384 C391 1.257 . S
C385 O380 1.254 . S
C385 O381 1.269 . S
C386 O387 1.249 . S
C386 O388 1.270 . S
O387 Zn379 1.943 . S
O387 C386 1.249 . S
O388 Zn378 2.067 . S
O388 C386 1.270 . S
C389 O382 1.262 . S
C389 O390 1.232 . S
O390 C389 1.232 . S
C391 O383 1.260 . S
C391 O384 1.257 . S
Zn392 O395 2.031 . S
Zn392 O397 2.049 . S
Zn392 O402 2.067 . S
Zn393 O394 1.962 . S
Zn393 O396 1.986 . S
Zn393 O398 1.996 . S
Zn393 O401 1.943 . S
O394 Zn393 1.962 . S
O394 C399 1.254 . S
O395 Zn392 2.031 . S
O395 C399 1.269 . S
O396 Zn393 1.986 . S
O396 C403 1.262 . S
O397 Zn392 2.049 . S
O397 C405 1.260 . S
O398 Zn393 1.996 . S
O398 C405 1.257 . S
C399 O394 1.254 . S
C399 O395 1.269 . S
C400 O401 1.249 . S
C400 O402 1.270 . S
O401 Zn393 1.943 . S
O401 C400 1.249 . S
O402 Zn392 2.067 . S
O402 C400 1.270 . S
C403 O396 1.262 . S
C403 O404 1.232 . S
O404 C403 1.232 . S
C405 O397 1.260 . S
C405 O398 1.257 . S
Zn406 O409 2.031 . S
Zn406 O411 2.049 . S
Zn406 O416 2.067 . S
Zn407 O408 1.962 . S
Zn407 O410 1.986 . S
Zn407 O412 1.996 . S
Zn407 O415 1.943 . S
O408 Zn407 1.962 . S
O408 C413 1.254 . S
O409 Zn406 2.031 . S
O409 C413 1.269 . S
O410 Zn407 1.986 . S
O410 C417 1.262 . S
O411 Zn406 2.049 . S
O411 C419 1.260 . S
O412 Zn407 1.996 . S
O412 C419 1.257 . S
C413 O408 1.254 . S
C413 O409 1.269 . S
C414 O415 1.249 . S
C414 O416 1.270 . S
O415 Zn407 1.943 . S
O415 C414 1.249 . S
O416 Zn406 2.067 . S
O416 C414 1.270 . S
C417 O410 1.262 . S
C417 O418 1.232 . S
O418 C417 1.232 . S
C419 O411 1.260 . S
C419 O412 1.257 . S
Zn420 O423 2.031 . S
Zn420 O425 2.049 1_554 S
Zn420 O430 2.067 . S
Zn421 O422 1.962 . S
Zn421 O424 1.986 1_554 S
Zn421 O426 1.996 1_554 S
Zn421 O429 1.943 . S
O422 Zn421 1.962 . S
O422 C427 1.254 . S
O423 Zn420 2.031 . S
O423 C427 1.269 . S
O424 Zn421 1.986 1_556 S
O424 C431 1.262 1_556 S
O425 Zn420 2.049 1_556 S
O425 C433 1.260 . S
O426 Zn421 1.996 1_556 S
O426 C433 1.257 . S
C427 O422 1.254 . S
C427 O423 1.269 . S
C428 O429 1.249 . S
C428 O430 1.270 . S
O429 Zn421 1.943 . S
O429 C428 1.249 . S
O430 Zn420 2.067 . S
O430 C428 1.270 . S
C431 O424 1.262 1_554 S
C431 O432 1.232 . S
O432 C431 1.232 . S
C433 O425 1.260 . S
C433 O426 1.257 . S
Zn434 O437 2.031 . S
Zn434 O439 2.049 . S
Zn434 O444 2.067 . S
Zn435 O436 1.962 . S
Zn435 O438 1.986 . S
Zn435 O440 1.996 . S
Zn435 O443 1.943 . S
O436 Zn435 1.962 . S
O436 C441 1.254 . S
O437 Zn434 2.031 . S
O437 C441 1.269 . S
O438 Zn435 1.986 . S
O438 C445 1.262 . S
O439 Zn434 2.049 . S
O439 C447 1.260 . S
O440 Zn435 1.996 . S
O440 C447 1.257 . S
C441 O436 1.254 . S
C441 O437 1.269 . S
C442 O443 1.249 . S
C442 O444 1.270 . S
O443 Zn435 1.943 . S
O443 C442 1.249 . S
O444 Zn434 2.067 . S
O444 C442 1.270 . S
C445 O438 1.262 . S
C445 O446 1.232 . S
O446 C445 1.232 . S
C447 O439 1.260 . S
C447 O440 1.257 . S
H448 C454 0.930 . S
H449 C457 0.930 . S
H450 C458 0.930 . S
H451 C459 0.930 . S
H452 C462 0.930 . S
H453 C463 0.930 . S
C454 H448 0.930 . S
C454 C455 1.355 . S
C454 C456 1.415 . S
C455 C454 1.355 . S
C455 C457 1.419 . S
C456 C454 1.415 . S
C456 C461 1.425 . S
C456 C463 1.409 . S
C457 H449 0.930 . S
C457 C455 1.419 . S
C457 C458 1.362 . S
C458 H450 0.930 . S
C458 C457 1.362 . S
C458 C461 1.409 . S
C459 H451 0.930 . S
C459 C460 1.355 . S
C459 C461 1.415 . S
C460 C459 1.355 . S
C460 C462 1.419 . S
C461 C456 1.425 . S
C461 C458 1.409 . S
C461 C459 1.415 . S
C462 H452 0.930 . S
C462 C460 1.419 . S
C462 C463 1.362 . S
C463 H453 0.930 . S
C463 C456 1.409 . S
C463 C462 1.362 . S
H464 C470 0.930 . S
H465 C473 0.930 . S
H466 C474 0.930 . S
H467 C475 0.930 . S
H468 C478 0.930 . S
H469 C479 0.930 . S
C470 H464 0.930 . S
C470 C471 1.355 . S
C470 C472 1.415 . S
C471 C470 1.355 . S
C471 C473 1.419 . S
C472 C470 1.415 . S
C472 C477 1.425 . S
C472 C479 1.409 . S
C473 H465 0.930 . S
C473 C471 1.419 . S
C473 C474 1.362 . S
C474 H466 0.930 . S
C474 C473 1.362 . S
C474 C477 1.409 . S
C475 H467 0.930 . S
C475 C476 1.355 . S
C475 C477 1.415 . S
C476 C475 1.355 . S
C476 C478 1.419 . S
C477 C472 1.425 . S
C477 C474 1.409 . S
C477 C475 1.415 . S
C478 H468 0.930 . S
C478 C476 1.419 . S
C478 C479 1.362 . S
C479 H469 0.930 . S
C479 C472 1.409 . S
C479 C478 1.362 . S
H480 C486 0.930 . S
H481 C489 0.930 . S
H482 C490 0.930 . S
H483 C491 0.930 . S
H484 C494 0.930 . S
H485 C495 0.930 . S
C486 H480 0.930 . S
C486 C487 1.355 . S
C486 C488 1.415 . S
C487 C486 1.355 . S
C487 C489 1.419 . S
C488 C486 1.415 . S
C488 C493 1.425 . S
C488 C495 1.409 . S
C489 H481 0.930 . S
C489 C487 1.419 . S
C489 C490 1.362 . S
C490 H482 0.930 . S
C490 C489 1.362 . S
C490 C493 1.409 . S
C491 H483 0.930 . S
C491 C492 1.355 . S
C491 C493 1.415 . S
C492 C491 1.355 . S
C492 C494 1.419 . S
C493 C488 1.425 . S
C493 C490 1.409 . S
C493 C491 1.415 . S
C494 H484 0.930 . S
C494 C492 1.419 . S
C494 C495 1.362 . S
C495 H485 0.930 . S
C495 C488 1.409 . S
C495 C494 1.362 . S
H496 C502 0.930 . S
H497 C505 0.930 . S
H498 C506 0.930 . S
H499 C507 0.930 . S
H500 C510 0.930 . S
H501 C511 0.930 . S
C502 H496 0.930 . S
C502 C503 1.355 . S
C502 C504 1.415 . S
C503 C502 1.355 . S
C503 C505 1.419 . S
C504 C502 1.415 . S
C504 C509 1.425 . S
C504 C511 1.409 . S
C505 H497 0.930 . S
C505 C503 1.419 . S
C505 C506 1.362 . S
C506 H498 0.930 . S
C506 C505 1.362 . S
C506 C509 1.409 . S
C507 H499 0.930 . S
C507 C508 1.355 . S
C507 C509 1.415 . S
C508 C507 1.355 . S
C508 C510 1.419 . S
C509 C504 1.425 . S
C509 C506 1.409 . S
C509 C507 1.415 . S
C510 H500 0.930 . S
C510 C508 1.419 . S
C510 C511 1.362 . S
C511 H501 0.930 . S
C511 C504 1.409 . S
C511 C510 1.362 . S
H512 C518 0.930 . S
H513 C521 0.930 . S
H514 C522 0.930 . S
H515 C523 0.930 . S
H516 C526 0.930 . S
H517 C527 0.930 . S
C518 H512 0.930 . S
C518 C519 1.355 . S
C518 C520 1.415 . S
C519 C518 1.355 . S
C519 C521 1.419 . S
C520 C518 1.415 . S
C520 C525 1.425 . S
C520 C527 1.409 . S
C521 H513 0.930 . S
C521 C519 1.419 . S
C521 C522 1.362 . S
C522 H514 0.930 . S
C522 C521 1.362 . S
C522 C525 1.409 . S
C523 H515 0.930 . S
C523 C524 1.355 . S
C523 C525 1.415 . S
C524 C523 1.355 . S
C524 C526 1.419 . S
C525 C520 1.425 . S
C525 C522 1.409 . S
C525 C523 1.415 . S
C526 H516 0.930 . S
C526 C524 1.419 . S
C526 C527 1.362 . S
C527 H517 0.930 . S
C527 C520 1.409 . S
C527 C526 1.362 . S
H528 C534 0.930 . S
H529 C537 0.930 . S
H530 C538 0.930 . S
H531 C539 0.930 . S
H532 C542 0.930 . S
H533 C543 0.930 1_554 S
C534 H528 0.930 . S
C534 C535 1.355 . S
C534 C536 1.415 . S
C535 C534 1.355 . S
C535 C537 1.419 . S
C536 C534 1.415 . S
C536 C541 1.425 . S
C536 C543 1.409 . S
C537 H529 0.930 . S
C537 C535 1.419 . S
C537 C538 1.362 . S
C538 H530 0.930 . S
C538 C537 1.362 . S
C538 C541 1.409 . S
C539 H531 0.930 . S
C539 C540 1.355 . S
C539 C541 1.415 . S
C540 C539 1.355 . S
C540 C542 1.419 1_556 S
C541 C536 1.425 . S
C541 C538 1.409 . S
C541 C539 1.415 . S
C542 H532 0.930 . S
C542 C540 1.419 1_554 S
C542 C543 1.362 1_554 S
C543 H533 0.930 1_556 S
C543 C536 1.409 . S
C543 C542 1.362 1_556 S
H544 C550 0.930 . S
H545 C553 0.930 . S
H546 C554 0.930 . S
H547 C555 0.930 . S
H548 C558 0.930 . S
H549 C559 0.930 . S
C550 H544 0.930 . S
C550 C551 1.355 . S
C550 C552 1.415 . S
C551 C550 1.355 . S
C551 C553 1.419 . S
C552 C550 1.415 . S
C552 C557 1.425 . S
C552 C559 1.409 . S
C553 H545 0.930 . S
C553 C551 1.419 . S
C553 C554 1.362 . S
C554 H546 0.930 . S
C554 C553 1.362 . S
C554 C557 1.409 . S
C555 H547 0.930 . S
C555 C556 1.355 . S
C555 C557 1.415 . S
C556 C555 1.355 . S
C556 C558 1.419 . S
C557 C552 1.425 . S
C557 C554 1.409 . S
C557 C555 1.415 . S
C558 H548 0.930 . S
C558 C556 1.419 . S
C558 C559 1.362 . S
C559 H549 0.930 . S
C559 C552 1.409 . S
C559 C558 1.362 . S
H560 C566 0.930 . S
H561 C569 0.930 . S
H562 C570 0.930 . S
H563 C571 0.930 . S
H564 C574 0.930 . S
H565 C575 0.930 . S
C566 H560 0.930 . S
C566 C567 1.355 . S
C566 C568 1.415 . S
C567 C566 1.355 . S
C567 C569 1.419 . S
C568 C566 1.415 . S
C568 C573 1.425 . S
C568 C575 1.409 . S
C569 H561 0.930 . S
C569 C567 1.419 . S
C569 C570 1.362 . S
C570 H562 0.930 . S
C570 C569 1.362 . S
C570 C573 1.409 . S
C571 H563 0.930 . S
C571 C572 1.355 . S
C571 C573 1.415 . S
C572 C571 1.355 . S
C572 C574 1.419 . S
C573 C568 1.425 . S
C573 C570 1.409 . S
C573 C571 1.415 . S
C574 H564 0.930 . S
C574 C572 1.419 . S
C574 C575 1.362 . S
C575 H565 0.930 . S
C575 C568 1.409 . S
C575 C574 1.362 . S
H576 C582 0.930 . S
H577 C585 0.930 . S
H578 C586 0.930 . S
H579 C587 0.930 . S
H580 C590 0.930 . S
H581 C591 0.930 . S
C582 H576 0.930 . S
C582 C583 1.355 . S
C582 C584 1.415 . S
C583 C582 1.355 . S
C583 C585 1.419 . S
C584 C582 1.415 . S
C584 C589 1.425 . S
C584 C591 1.409 . S
C585 H577 0.930 . S
C585 C583 1.419 . S
C585 C586 1.362 . S
C586 H578 0.930 . S
C586 C585 1.362 . S
C586 C589 1.409 . S
C587 H579 0.930 . S
C587 C588 1.355 . S
C587 C589 1.415 . S
C588 C587 1.355 . S
C588 C590 1.419 . S
C589 C584 1.425 . S
C589 C586 1.409 . S
C589 C587 1.415 . S
C590 H580 0.930 . S
C590 C588 1.419 . S
C590 C591 1.362 . S
C591 H581 0.930 . S
C591 C584 1.409 . S
C591 C590 1.362 . S
H592 C598 0.930 . S
H593 C601 0.930 . S
H594 C602 0.930 . S
H595 C603 0.930 . S
H596 C606 0.930 . S
H597 C607 0.930 . S
C598 H592 0.930 . S
C598 C599 1.355 . S
C598 C600 1.415 . S
C599 C598 1.355 . S
C599 C601 1.419 . S
C600 C598 1.415 . S
C600 C605 1.425 . S
C600 C607 1.409 . S
C601 H593 0.930 . S
C601 C599 1.419 . S
C601 C602 1.362 . S
C602 H594 0.930 . S
C602 C601 1.362 . S
C602 C605 1.409 . S
C603 H595 0.930 . S
C603 C604 1.355 . S
C603 C605 1.415 . S
C604 C603 1.355 . S
C604 C606 1.419 . S
C605 C600 1.425 . S
C605 C602 1.409 . S
C605 C603 1.415 . S
C606 H596 0.930 . S
C606 C604 1.419 . S
C606 C607 1.362 . S
C607 H597 0.930 . S
C607 C600 1.409 . S
C607 C606 1.362 . S
H608 C614 0.930 . S
H609 C617 0.930 . S
H610 C618 0.930 . S
H611 C619 0.930 . S
H612 C622 0.930 . S
H613 C623 0.930 . S
C614 H608 0.930 . S
C614 C615 1.355 . S
C614 C616 1.415 . S
C615 C614 1.355 . S
C615 C617 1.419 . S
C616 C614 1.415 . S
C616 C621 1.425 . S
C616 C623 1.409 . S
C617 H609 0.930 . S
C617 C615 1.419 . S
C617 C618 1.362 . S
C618 H610 0.930 . S
C618 C617 1.362 . S
C618 C621 1.409 . S
C619 H611 0.930 . S
C619 C620 1.355 . S
C619 C621 1.415 . S
C620 C619 1.355 . S
C620 C622 1.419 . S
C621 C616 1.425 . S
C621 C618 1.409 . S
C621 C619 1.415 . S
C622 H612 0.930 . S
C622 C620 1.419 . S
C622 C623 1.362 . S
C623 H613 0.930 . S
C623 C616 1.409 . S
C623 C622 1.362 . S
H624 C630 0.930 . S
H625 C633 0.930 . S
H626 C634 0.930 . S
H627 C635 0.930 . S
H628 C638 0.930 . S
H629 C639 0.930 . S
C630 H624 0.930 . S
C630 C631 1.355 . S
C630 C632 1.415 . S
C631 C630 1.355 . S
C631 C633 1.419 . S
C632 C630 1.415 . S
C632 C637 1.425 . S
C632 C639 1.409 . S
C633 H625 0.930 . S
C633 C631 1.419 . S
C633 C634 1.362 . S
C634 H626 0.930 . S
C634 C633 1.362 . S
C634 C637 1.409 . S
C635 H627 0.930 . S
C635 C636 1.355 . S
C635 C637 1.415 . S
C636 C635 1.355 . S
C636 C638 1.419 . S
C637 C632 1.425 . S
C637 C634 1.409 . S
C637 C635 1.415 . S
C638 H628 0.930 . S
C638 C636 1.419 . S
C638 C639 1.362 . S
C639 H629 0.930 . S
C639 C632 1.409 . S
C639 C638 1.362 . S
H640 C646 0.930 . S
H641 C649 0.930 . S
H642 C650 0.930 . S
H643 C651 0.930 . S
H644 C654 0.930 . S
H645 C655 0.930 . S
C646 H640 0.930 . S
C646 C647 1.355 . S
C646 C648 1.415 . S
C647 C646 1.355 . S
C647 C649 1.419 . S
C648 C646 1.415 . S
C648 C653 1.425 . S
C648 C655 1.409 . S
C649 H641 0.930 . S
C649 C647 1.419 . S
C649 C650 1.362 . S
C650 H642 0.930 . S
C650 C649 1.362 . S
C650 C653 1.409 . S
C651 H643 0.930 . S
C651 C652 1.355 . S
C651 C653 1.415 . S
C652 C651 1.355 . S
C652 C654 1.419 . S
C653 C648 1.425 . S
C653 C650 1.409 . S
C653 C651 1.415 . S
C654 H644 0.930 . S
C654 C652 1.419 . S
C654 C655 1.362 . S
C655 H645 0.930 . S
C655 C648 1.409 . S
C655 C654 1.362 . S
H656 C662 0.930 . S
H657 C665 0.930 . S
H658 C666 0.930 . S
H659 C667 0.930 . S
H660 C670 0.930 . S
H661 C671 0.930 . S
C662 H656 0.930 . S
C662 C663 1.355 . S
C662 C664 1.415 . S
C663 C662 1.355 . S
C663 C665 1.419 . S
C664 C662 1.415 . S
C664 C669 1.425 . S
C664 C671 1.409 . S
C665 H657 0.930 . S
C665 C663 1.419 . S
C665 C666 1.362 . S
C666 H658 0.930 . S
C666 C665 1.362 . S
C666 C669 1.409 . S
C667 H659 0.930 . S
C667 C668 1.355 . S
C667 C669 1.415 . S
C668 C667 1.355 . S
C668 C670 1.419 . S
C669 C664 1.425 . S
C669 C666 1.409 . S
C669 C667 1.415 . S
C670 H660 0.930 . S
C670 C668 1.419 . S
C670 C671 1.362 . S
C671 H661 0.930 . S
C671 C664 1.409 . S
C671 C670 1.362 . S
H672 C678 0.930 . S
H673 C681 0.930 . S
H674 C682 0.930 . S
H675 C683 0.930 . S
H676 C686 0.930 . S
H677 C687 0.930 . S
C678 H672 0.930 . S
C678 C679 1.355 . S
C678 C680 1.415 . S
C679 C678 1.355 . S
C679 C681 1.419 . S
C680 C678 1.415 . S
C680 C685 1.425 . S
C680 C687 1.409 . S
C681 H673 0.930 . S
C681 C679 1.419 . S
C681 C682 1.362 . S
C682 H674 0.930 . S
C682 C681 1.362 . S
C682 C685 1.409 . S
C683 H675 0.930 . S
C683 C684 1.355 . S
C683 C685 1.415 . S
C684 C683 1.355 . S
C684 C686 1.419 . S
C685 C680 1.425 . S
C685 C682 1.409 . S
C685 C683 1.415 . S
C686 H676 0.930 . S
C686 C684 1.419 . S
C686 C687 1.362 . S
C687 H677 0.930 . S
C687 C680 1.409 . S
C687 C686 1.362 . S
H688 C694 0.930 . S
H689 C697 0.930 . S
H690 C698 0.930 . S
H691 C699 0.930 . S
H692 C702 0.930 . S
H693 C703 0.930 1_554 S
C694 H688 0.930 . S
C694 C695 1.355 . S
C694 C696 1.415 . S
C695 C694 1.355 . S
C695 C697 1.419 . S
C696 C694 1.415 . S
C696 C701 1.425 . S
C696 C703 1.409 . S
C697 H689 0.930 . S
C697 C695 1.419 . S
C697 C698 1.362 . S
C698 H690 0.930 . S
C698 C697 1.362 . S
C698 C701 1.409 . S
C699 H691 0.930 . S
C699 C700 1.355 . S
C699 C701 1.415 . S
C700 C699 1.355 . S
C700 C702 1.419 1_556 S
C701 C696 1.425 . S
C701 C698 1.409 . S
C701 C699 1.415 . S
C702 H692 0.930 . S
C702 C700 1.419 1_554 S
C702 C703 1.362 1_554 S
C703 H693 0.930 1_556 S
C703 C696 1.409 . S
C703 C702 1.362 1_556 S
H704 C710 0.930 . S
H705 C713 0.930 . S
H706 C714 0.930 . S
H707 C715 0.930 . S
H708 C718 0.930 . S
H709 C719 0.930 . S
C710 H704 0.930 . S
C710 C711 1.355 . S
C710 C712 1.415 . S
C711 C710 1.355 . S
C711 C713 1.419 . S
C712 C710 1.415 . S
C712 C717 1.425 . S
C712 C719 1.409 . S
C713 H705 0.930 . S
C713 C711 1.419 . S
C713 C714 1.362 . S
C714 H706 0.930 . S
C714 C713 1.362 . S
C714 C717 1.409 . S
C715 H707 0.930 . S
C715 C716 1.355 . S
C715 C717 1.415 . S
C716 C715 1.355 . S
C716 C718 1.419 . S
C717 C712 1.425 . S
C717 C714 1.409 . S
C717 C715 1.415 . S
C718 H708 0.930 . S
C718 C716 1.419 . S
C718 C719 1.362 . S
C719 H709 0.930 . S
C719 C712 1.409 . S
C719 C718 1.362 . S
H720 C726 0.930 . S
H721 C729 0.930 . S
H722 C730 0.930 . S
H723 C731 0.930 . S
H724 C734 0.930 . S
H725 C735 0.930 . S
C726 H720 0.930 . S
C726 C727 1.355 . S
C726 C728 1.415 1_565 S
C727 C726 1.355 . S
C727 C729 1.419 . S
C728 C726 1.415 1_545 S
C728 C733 1.425 1_545 S
C728 C735 1.409 . S
C729 H721 0.930 . S
C729 C727 1.419 . S
C729 C730 1.362 . S
C730 H722 0.930 . S
C730 C729 1.362 . S
C730 C733 1.409 . S
C731 H723 0.930 . S
C731 C732 1.355 . S
C731 C733 1.415 1_546 S
C732 C731 1.355 . S
C732 C734 1.419 . S
C733 C728 1.425 1_565 S
C733 C730 1.409 . S
C733 C731 1.415 1_564 S
C734 H724 0.930 . S
C734 C732 1.419 . S
C734 C735 1.362 1_556 S
C735 H725 0.930 . S
C735 C728 1.409 . S
C735 C734 1.362 1_554 S
H736 C742 0.930 . S
H737 C745 0.930 . S
H738 C746 0.930 . S
H739 C747 0.930 . S
H740 C750 0.930 . S
H741 C751 0.930 . S
C742 H736 0.930 . S
C742 C743 1.355 . S
C742 C744 1.415 . S
C743 C742 1.355 . S
C743 C745 1.419 . S
C744 C742 1.415 . S
C744 C749 1.425 . S
C744 C751 1.409 . S
C745 H737 0.930 . S
C745 C743 1.419 . S
C745 C746 1.362 . S
C746 H738 0.930 . S
C746 C745 1.362 . S
C746 C749 1.409 . S
C747 H739 0.930 . S
C747 C748 1.355 . S
C747 C749 1.415 . S
C748 C747 1.355 . S
C748 C750 1.419 . S
C749 C744 1.425 . S
C749 C746 1.409 . S
C749 C747 1.415 . S
C750 H740 0.930 . S
C750 C748 1.419 . S
C750 C751 1.362 . S
C751 H741 0.930 . S
C751 C744 1.409 . S
C751 C750 1.362 . S
H752 C758 0.930 . S
H753 C761 0.930 . S
H754 C762 0.930 . S
H755 C763 0.930 . S
H756 C766 0.930 . S
H757 C767 0.930 . S
C758 H752 0.930 . S
C758 C759 1.355 . S
C758 C760 1.415 . S
C759 C758 1.355 . S
C759 C761 1.419 . S
C760 C758 1.415 . S
C760 C765 1.425 1_545 S
C760 C767 1.409 1_545 S
C761 H753 0.930 . S
C761 C759 1.419 . S
C761 C762 1.362 . S
C762 H754 0.930 . S
C762 C761 1.362 . S
C762 C765 1.409 1_545 S
C763 H755 0.930 . S
C763 C764 1.355 . S
C763 C765 1.415 . S
C764 C763 1.355 . S
C764 C766 1.419 . S
C765 C760 1.425 1_565 S
C765 C762 1.409 1_565 S
C765 C763 1.415 . S
C766 H756 0.930 . S
C766 C764 1.419 . S
C766 C767 1.362 . S
C767 H757 0.930 . S
C767 C760 1.409 1_565 S
C767 C766 1.362 . S
H768 C774 0.930 . S
H769 C777 0.930 . S
H770 C778 0.930 . S
H771 C779 0.930 . S
H772 C782 0.930 . S
H773 C783 0.930 . S
C774 H768 0.930 . S
C774 C775 1.355 . S
C774 C776 1.415 . S
C775 C774 1.355 . S
C775 C777 1.419 . S
C776 C774 1.415 . S
C776 C781 1.425 . S
C776 C783 1.409 . S
C777 H769 0.930 . S
C777 C775 1.419 . S
C777 C778 1.362 . S
C778 H770 0.930 . S
C778 C777 1.362 . S
C778 C781 1.409 . S
C779 H771 0.930 . S
C779 C780 1.355 . S
C779 C781 1.415 . S
C780 C779 1.355 . S
C780 C782 1.419 . S
C781 C776 1.425 . S
C781 C778 1.409 . S
C781 C779 1.415 . S
C782 H772 0.930 . S
C782 C780 1.419 . S
C782 C783 1.362 . S
C783 H773 0.930 . S
C783 C776 1.409 . S
C783 C782 1.362 . S
H784 C790 0.930 . S
H785 C793 0.930 . S
H786 C794 0.930 . S
H787 C795 0.930 . S
H788 C798 0.930 . S
H789 C799 0.930 . S
C790 H784 0.930 . S
C790 C791 1.355 . S
C790 C792 1.415 1_546 S
C791 C790 1.355 . S
C791 C793 1.419 . S
C792 C790 1.415 1_564 S
C792 C797 1.425 1_565 S
C792 C799 1.409 . S
C793 H785 0.930 . S
C793 C791 1.419 . S
C793 C794 1.362 1_556 S
C794 H786 0.930 . S
C794 C793 1.362 1_554 S
C794 C797 1.409 . S
C795 H787 0.930 . S
C795 C796 1.355 . S
C795 C797 1.415 1_565 S
C796 C795 1.355 . S
C796 C798 1.419 . S
C797 C792 1.425 1_545 S
C797 C794 1.409 . S
C797 C795 1.415 1_545 S
C798 H788 0.930 . S
C798 C796 1.419 . S
C798 C799 1.362 . S
C799 H789 0.930 . S
C799 C792 1.409 . S
C799 C798 1.362 . S
H800 C806 0.930 . S
H801 C809 0.930 . S
H802 C810 0.930 . S
H803 C811 0.930 . S
H804 C814 0.930 . S
H805 C815 0.930 . S
C806 H800 0.930 . S
C806 C807 1.355 . S
C806 C808 1.415 . S
C807 C806 1.355 . S
C807 C809 1.419 . S
C808 C806 1.415 . S
C808 C813 1.425 . S
C808 C815 1.409 . S
C809 H801 0.930 . S
C809 C807 1.419 . S
C809 C810 1.362 . S
C810 H802 0.930 . S
C810 C809 1.362 . S
C810 C813 1.409 . S
C811 H803 0.930 . S
C811 C812 1.355 . S
C811 C813 1.415 . S
C812 C811 1.355 . S
C812 C814 1.419 . S
C813 C808 1.425 . S
C813 C810 1.409 . S
C813 C811 1.415 . S
C814 H804 0.930 . S
C814 C812 1.419 . S
C814 C815 1.362 . S
C815 H805 0.930 . S
C815 C808 1.409 . S
C815 C814 1.362 . S
H816 C822 0.930 . S
H817 C825 0.948 . S
H818 C826 0.930 . S
H819 C827 0.930 . S
H820 C830 0.948 . S
H821 C831 0.930 . S
C822 H816 0.930 . S
C822 C823 1.355 . S
C822 C824 1.415 . S
C823 C822 1.355 . S
C823 C825 1.360 1_545 S
C824 C822 1.415 . S
C824 C829 1.425 1_545 S
C824 C831 1.409 . S
C825 H817 0.948 . S
C825 C823 1.360 1_565 S
C825 C826 1.406 . S
C826 H818 0.930 . S
C826 C825 1.406 . S
C826 C829 1.409 . S
C827 H819 0.930 . S
C827 C828 1.355 . S
C827 C829 1.415 . S
C828 C827 1.355 . S
C828 C830 1.360 1_565 S
C829 C824 1.425 1_565 S
C829 C826 1.409 . S
C829 C827 1.415 . S
C830 H820 0.948 . S
C830 C828 1.360 1_545 S
C830 C831 1.406 . S
C831 H821 0.930 . S
C831 C824 1.409 . S
C831 C830 1.406 . S
H832 C838 0.930 . S
H833 C841 0.930 . S
H834 C842 0.930 . S
H835 C843 0.930 . S
H836 C846 0.930 . S
H837 C847 0.930 . S
C838 H832 0.930 . S
C838 C839 1.355 . S
C838 C840 1.415 . S
C839 C838 1.355 . S
C839 C841 1.419 . S
C840 C838 1.415 . S
C840 C845 1.425 . S
C840 C847 1.409 . S
C841 H833 0.930 . S
C841 C839 1.419 . S
C841 C842 1.362 . S
C842 H834 0.930 . S
C842 C841 1.362 . S
C842 C845 1.409 . S
C843 H835 0.930 . S
C843 C844 1.355 . S
C843 C845 1.415 . S
C844 C843 1.355 . S
C844 C846 1.419 . S
C845 C840 1.425 . S
C845 C842 1.409 . S
C845 C843 1.415 . S
C846 H836 0.930 . S
C846 C844 1.419 . S
C846 C847 1.362 . S
C847 H837 0.930 . S
C847 C840 1.409 . S
C847 C846 1.362 . S
H848 C854 0.930 . S
H849 C857 0.930 . S
H850 C858 0.930 . S
H851 C859 0.930 . S
H852 C862 0.930 . S
H853 C863 0.930 . S
C854 H848 0.930 . S
C854 C855 1.355 . S
C854 C856 1.415 . S
C855 C854 1.355 . S
C855 C857 1.419 . S
C856 C854 1.415 . S
C856 C861 1.425 . S
C856 C863 1.409 . S
C857 H849 0.930 . S
C857 C855 1.419 . S
C857 C858 1.362 . S
C858 H850 0.930 . S
C858 C857 1.362 . S
C858 C861 1.409 . S
C859 H851 0.930 . S
C859 C860 1.355 . S
C859 C861 1.415 . S
C860 C859 1.355 . S
C860 C862 1.419 . S
C861 C856 1.425 . S
C861 C858 1.409 . S
C861 C859 1.415 . S
C862 H852 0.930 . S
C862 C860 1.419 . S
C862 C863 1.362 . S
C863 H853 0.930 . S
C863 C856 1.409 . S
C863 C862 1.362 . S
H864 C870 0.930 . S
H865 C873 0.930 . S
H866 C874 0.930 . S
H867 C875 0.930 . S
H868 C878 0.930 . S
H869 C879 0.930 . S
C870 H864 0.930 . S
C870 C871 1.355 . S
C870 C872 1.415 . S
C871 C870 1.355 . S
C871 C873 1.419 . S
C872 C870 1.415 . S
C872 C877 1.425 . S
C872 C879 1.409 . S
C873 H865 0.930 . S
C873 C871 1.419 . S
C873 C874 1.362 . S
C874 H866 0.930 . S
C874 C873 1.362 . S
C874 C877 1.409 . S
C875 H867 0.930 . S
C875 C876 1.355 . S
C875 C877 1.415 . S
C876 C875 1.355 . S
C876 C878 1.419 . S
C877 C872 1.425 . S
C877 C874 1.409 . S
C877 C875 1.415 . S
C878 H868 0.930 . S
C878 C876 1.419 . S
C878 C879 1.362 . S
C879 H869 0.930 . S
C879 C872 1.409 . S
C879 C878 1.362 . S
H880 C886 0.930 . S
H881 C889 0.930 . S
H882 C890 0.930 1_556 S
H883 C891 0.930 . S
H884 C894 0.930 . S
H885 C895 0.930 . S
C886 H880 0.930 . S
C886 C887 1.355 . S
C886 C888 1.415 . S
C887 C886 1.355 . S
C887 C889 1.419 . S
C888 C886 1.415 . S
C888 C893 1.425 . S
C888 C895 1.409 . S
C889 H881 0.930 . S
C889 C887 1.419 . S
C889 C890 1.362 . S
C890 H882 0.930 1_554 S
C890 C889 1.362 . S
C890 C893 1.409 . S
C891 H883 0.930 . S
C891 C892 1.355 . S
C891 C893 1.415 1_556 S
C892 C891 1.355 . S
C892 C894 1.419 . S
C893 C888 1.425 . S
C893 C890 1.409 . S
C893 C891 1.415 1_554 S
C894 H884 0.930 . S
C894 C892 1.419 . S
C894 C895 1.362 1_556 S
C895 H885 0.930 . S
C895 C888 1.409 . S
C895 C894 1.362 1_554 S
H896 C902 0.930 . S
H897 C905 0.930 . S
H898 C906 0.930 . S
H899 C907 0.930 . S
H900 C910 0.930 . S
H901 C911 0.930 . S
C902 H896 0.930 . S
C902 C903 1.355 . S
C902 C904 1.415 . S
C903 C902 1.355 . S
C903 C905 1.419 . S
C904 C902 1.415 . S
C904 C909 1.425 . S
C904 C911 1.409 . S
C905 H897 0.930 . S
C905 C903 1.419 . S
C905 C906 1.362 . S
C906 H898 0.930 . S
C906 C905 1.362 . S
C906 C909 1.409 . S
C907 H899 0.930 . S
C907 C908 1.355 . S
C907 C909 1.415 . S
C908 C907 1.355 . S
C908 C910 1.419 . S
C909 C904 1.425 . S
C909 C906 1.409 . S
C909 C907 1.415 . S
C910 H900 0.930 . S
C910 C908 1.419 . S
C910 C911 1.362 . S
C911 H901 0.930 . S
C911 C904 1.409 . S
C911 C910 1.362 . S
H912 C918 0.930 . S
H913 C921 0.930 . S
H914 C922 0.930 . S
H915 C923 0.930 . S
H916 C926 0.930 . S
H917 C927 0.930 . S
C918 H912 0.930 . S
C918 C919 1.355 . S
C918 C920 1.415 . S
C919 C918 1.355 . S
C919 C921 1.419 . S
C920 C918 1.415 . S
C920 C925 1.425 . S
C920 C927 1.409 . S
C921 H913 0.930 . S
C921 C919 1.419 . S
C921 C922 1.362 . S
C922 H914 0.930 . S
C922 C921 1.362 . S
C922 C925 1.409 . S
C923 H915 0.930 . S
C923 C924 1.355 . S
C923 C925 1.415 . S
C924 C923 1.355 . S
C924 C926 1.419 . S
C925 C920 1.425 . S
C925 C922 1.409 . S
C925 C923 1.415 . S
C926 H916 0.930 . S
C926 C924 1.419 . S
C926 C927 1.362 . S
C927 H917 0.930 . S
C927 C920 1.409 . S
C927 C926 1.362 . S
H928 C934 0.930 . S
H929 C937 0.930 . S
H930 C938 0.930 . S
H931 C939 0.930 . S
H932 C942 0.930 . S
H933 C943 0.930 . S
C934 H928 0.930 . S
C934 C935 1.355 . S
C934 C936 1.415 . S
C935 C934 1.355 . S
C935 C937 1.419 . S
C936 C934 1.415 . S
C936 C941 1.425 . S
C936 C943 1.409 . S
C937 H929 0.930 . S
C937 C935 1.419 . S
C937 C938 1.362 . S
C938 H930 0.930 . S
C938 C937 1.362 . S
C938 C941 1.409 . S
C939 H931 0.930 . S
C939 C940 1.355 . S
C939 C941 1.415 . S
C940 C939 1.355 . S
C940 C942 1.419 . S
C941 C936 1.425 . S
C941 C938 1.409 . S
C941 C939 1.415 . S
C942 H932 0.930 . S
C942 C940 1.419 . S
C942 C943 1.362 . S
C943 H933 0.930 . S
C943 C936 1.409 . S
C943 C942 1.362 . S
H944 C950 0.930 . S
H945 C953 0.930 . S
H946 C954 0.930 . S
H947 C955 0.930 . S
H948 C958 0.930 . S
H949 C959 0.930 . S
C950 H944 0.930 . S
C950 C951 1.355 . S
C950 C952 1.415 . S
C951 C950 1.355 . S
C951 C953 1.419 . S
C952 C950 1.415 . S
C952 C957 1.425 . S
C952 C959 1.409 . S
C953 H945 0.930 . S
C953 C951 1.419 . S
C953 C954 1.362 . S
C954 H946 0.930 . S
C954 C953 1.362 . S
C954 C957 1.409 . S
C955 H947 0.930 . S
C955 C956 1.355 . S
C955 C957 1.415 1_556 S
C956 C955 1.355 . S
C956 C958 1.419 . S
C957 C952 1.425 . S
C957 C954 1.409 . S
C957 C955 1.415 1_554 S
C958 H948 0.930 . S
C958 C956 1.419 . S
C958 C959 1.362 1_556 S
C959 H949 0.930 . S
C959 C952 1.409 . S
C959 C958 1.362 1_554 S
H960 C966 0.930 . S
H961 C969 0.930 . S
H962 C970 0.930 . S
H963 C971 0.930 1_556 S
H964 C974 0.930 . S
H965 C975 0.930 . S
C966 H960 0.930 . S
C966 C967 1.355 . S
C966 C968 1.415 . S
C967 C966 1.355 . S
C967 C969 1.419 1_554 S
C968 C966 1.415 . S
C968 C973 1.425 . S
C968 C975 1.409 . S
C969 H961 0.930 . S
C969 C967 1.419 1_556 S
C969 C970 1.362 . S
C970 H962 0.930 . S
C970 C969 1.362 . S
C970 C973 1.409 1_556 S
C971 H963 0.930 1_554 S
C971 C972 1.355 . S
C971 C973 1.415 . S
C972 C971 1.355 . S
C972 C974 1.419 . S
C973 C968 1.425 . S
C973 C970 1.409 1_554 S
C973 C971 1.415 . S
C974 H964 0.930 . S
C974 C972 1.419 . S
C974 C975 1.362 . S
C975 H965 0.930 . S
C975 C968 1.409 . S
C975 C974 1.362 . S
H976 C982 0.930 . S
H977 C985 0.930 . S
H978 C986 0.930 . S
H979 C987 0.930 . S
H980 C990 0.930 . S
H981 C991 0.930 . S
C982 H976 0.930 . S
C982 C983 1.355 . S
C982 C984 1.415 . S
C983 C982 1.355 . S
C983 C985 1.419 . S
C984 C982 1.415 . S
C984 C989 1.425 1_455 S
C984 C991 1.409 1_455 S
C985 H977 0.930 . S
C985 C983 1.419 . S
C985 C986 1.362 . S
C986 H978 0.930 . S
C986 C985 1.362 . S
C986 C989 1.409 1_455 S
C987 H979 0.930 . S
C987 C988 1.355 . S
C987 C989 1.415 . S
C988 C987 1.355 . S
C988 C990 1.419 . S
C989 C984 1.425 1_655 S
C989 C986 1.409 1_655 S
C989 C987 1.415 . S
C990 H980 0.930 . S
C990 C988 1.419 . S
C990 C991 1.362 . S
C991 H981 0.930 . S
C991 C984 1.409 1_655 S
C991 C990 1.362 . S
H992 C998 0.930 . S
H993 C1001 0.930 . S
H994 C1002 0.930 . S
H995 C1003 0.930 . S
H996 C1006 0.930 . S
H997 C1007 0.930 . S
C998 H992 0.930 . S
C998 C999 1.355 . S
C998 C1000 1.415 . S
C999 C998 1.355 . S
C999 C1001 1.419 . S
C1000 C998 1.415 . S
C1000 C1005 1.425 . S
C1000 C1007 1.409 . S
C1001 H993 0.930 . S
C1001 C999 1.419 . S
C1001 C1002 1.362 . S
C1002 H994 0.930 . S
C1002 C1001 1.362 . S
C1002 C1005 1.409 . S
C1003 H995 0.930 . S
C1003 C1004 1.355 . S
C1003 C1005 1.415 . S
C1004 C1003 1.355 . S
C1004 C1006 1.419 . S
C1005 C1000 1.425 . S
C1005 C1002 1.409 . S
C1005 C1003 1.415 . S
C1006 H996 0.930 . S
C1006 C1004 1.419 . S
C1006 C1007 1.362 . S
C1007 H997 0.930 . S
C1007 C1000 1.409 . S
C1007 C1006 1.362 . S
H1008 C1014 0.930 . S
H1009 C1017 0.930 . S
H1010 C1018 0.930 . S
H1011 C1019 0.930 . S
H1012 C1022 0.930 . S
H1013 C1023 0.930 . S
C1014 H1008 0.930 . S
C1014 C1015 1.355 . S
C1014 C1016 1.415 . S
C1015 C1014 1.355 . S
C1015 C1017 1.419 . S
C1016 C1014 1.415 . S
C1016 C1021 1.425 . S
C1016 C1023 1.409 . S
C1017 H1009 0.930 . S
C1017 C1015 1.419 . S
C1017 C1018 1.362 . S
C1018 H1010 0.930 . S
C1018 C1017 1.362 . S
C1018 C1021 1.409 . S
C1019 H1011 0.930 . S
C1019 C1020 1.355 . S
C1019 C1021 1.415 . S
C1020 C1019 1.355 . S
C1020 C1022 1.419 . S
C1021 C1016 1.425 . S
C1021 C1018 1.409 . S
C1021 C1019 1.415 . S
C1022 H1012 0.930 . S
C1022 C1020 1.419 . S
C1022 C1023 1.362 . S
C1023 H1013 0.930 . S
C1023 C1016 1.409 . S
C1023 C1022 1.362 . S
H1024 C1030 0.930 . S
H1025 C1033 0.930 . S
H1026 C1034 0.930 . S
H1027 C1035 0.930 1_556 S
H1028 C1038 0.930 . S
H1029 C1039 0.930 . S
C1030 H1024 0.930 . S
C1030 C1031 1.355 . S
C1030 C1032 1.415 . S
C1031 C1030 1.355 . S
C1031 C1033 1.419 1_554 S
C1032 C1030 1.415 . S
C1032 C1037 1.425 . S
C1032 C1039 1.409 . S
C1033 H1025 0.930 . S
C1033 C1031 1.419 1_556 S
C1033 C1034 1.362 . S
C1034 H1026 0.930 . S
C1034 C1033 1.362 . S
C1034 C1037 1.409 1_556 S
C1035 H1027 0.930 1_554 S
C1035 C1036 1.355 . S
C1035 C1037 1.415 . S
C1036 C1035 1.355 . S
C1036 C1038 1.419 . S
C1037 C1032 1.425 . S
C1037 C1034 1.409 1_554 S
C1037 C1035 1.415 . S
C1038 H1028 0.930 . S
C1038 C1036 1.419 . S
C1038 C1039 1.362 . S
C1039 H1029 0.930 . S
C1039 C1032 1.409 . S
C1039 C1038 1.362 . S
H1040 C1046 0.930 . S
H1041 C1049 0.930 . S
H1042 C1050 0.930 . S
H1043 C1051 0.930 . S
H1044 C1054 0.930 . S
H1045 C1055 0.930 . S
C1046 H1040 0.930 . S
C1046 C1047 1.355 . S
C1046 C1048 1.415 . S
C1047 C1046 1.355 . S
C1047 C1049 1.419 . S
C1048 C1046 1.415 . S
C1048 C1053 1.425 . S
C1048 C1055 1.409 . S
C1049 H1041 0.930 . S
C1049 C1047 1.419 . S
C1049 C1050 1.362 . S
C1050 H1042 0.930 . S
C1050 C1049 1.362 . S
C1050 C1053 1.409 . S
C1051 H1043 0.930 . S
C1051 C1052 1.355 . S
C1051 C1053 1.415 . S
C1052 C1051 1.355 . S
C1052 C1054 1.419 . S
C1053 C1048 1.425 . S
C1053 C1050 1.409 . S
C1053 C1051 1.415 . S
C1054 H1044 0.930 . S
C1054 C1052 1.419 . S
C1054 C1055 1.362 . S
C1055 H1045 0.930 . S
C1055 C1048 1.409 . S
C1055 C1054 1.362 . S
H1056 C1062 0.930 . S
H1057 C1065 0.930 . S
H1058 C1066 0.930 . S
H1059 C1067 0.930 . S
H1060 C1070 0.930 . S
H1061 C1071 0.930 . S
C1062 H1056 0.930 . S
C1062 C1063 1.355 . S
C1062 C1064 1.415 . S
C1063 C1062 1.355 . S
C1063 C1065 1.419 . S
C1064 C1062 1.415 . S
C1064 C1069 1.425 . S
C1064 C1071 1.409 . S
C1065 H1057 0.930 . S
C1065 C1063 1.419 . S
C1065 C1066 1.362 . S
C1066 H1058 0.930 . S
C1066 C1065 1.362 . S
C1066 C1069 1.409 . S
C1067 H1059 0.930 . S
C1067 C1068 1.355 . S
C1067 C1069 1.415 . S
C1068 C1067 1.355 . S
C1068 C1070 1.419 . S
C1069 C1064 1.425 . S
C1069 C1066 1.409 . S
C1069 C1067 1.415 . S
C1070 H1060 0.930 . S
C1070 C1068 1.419 . S
C1070 C1071 1.362 . S
C1071 H1061 0.930 . S
C1071 C1064 1.409 . S
C1071 C1070 1.362 . S
H1072 C1078 0.930 . S
H1073 C1081 0.930 . S
H1074 C1082 0.930 . S
H1075 C1083 0.930 . S
H1076 C1086 0.930 . S
H1077 C1087 0.930 . S
C1078 H1072 0.930 . S
C1078 C1079 1.355 . S
C1078 C1080 1.415 . S
C1079 C1078 1.355 . S
C1079 C1081 1.419 . S
C1080 C1078 1.415 . S
C1080 C1085 1.425 1_655 S
C1080 C1087 1.409 1_655 S
C1081 H1073 0.930 . S
C1081 C1079 1.419 . S
C1081 C1082 1.362 . S
C1082 H1074 0.930 . S
C1082 C1081 1.362 . S
C1082 C1085 1.409 1_655 S
C1083 H1075 0.930 . S
C1083 C1084 1.355 . S
C1083 C1085 1.415 . S
C1084 C1083 1.355 . S
C1084 C1086 1.419 . S
C1085 C1080 1.425 1_455 S
C1085 C1082 1.409 1_455 S
C1085 C1083 1.415 . S
C1086 H1076 0.930 . S
C1086 C1084 1.419 . S
C1086 C1087 1.362 . S
C1087 H1077 0.930 . S
C1087 C1080 1.409 1_455 S
C1087 C1086 1.362 . S
H1088 C1094 0.930 . S
H1089 C1097 0.930 . S
H1090 C1098 0.930 . S
H1091 C1099 0.930 1_556 S
H1092 C1102 0.930 . S
H1093 C1103 0.930 . S
C1094 H1088 0.930 . S
C1094 C1095 1.355 . S
C1094 C1096 1.415 . S
C1095 C1094 1.355 . S
C1095 C1097 1.419 1_554 S
C1096 C1094 1.415 . S
C1096 C1101 1.425 . S
C1096 C1103 1.409 . S
C1097 H1089 0.930 . S
C1097 C1095 1.419 1_556 S
C1097 C1098 1.362 . S
C1098 H1090 0.930 . S
C1098 C1097 1.362 . S
C1098 C1101 1.409 1_556 S
C1099 H1091 0.930 1_554 S
C1099 C1100 1.355 . S
C1099 C1101 1.415 . S
C1100 C1099 1.355 . S
C1100 C1102 1.419 . S
C1101 C1096 1.425 . S
C1101 C1098 1.409 1_554 S
C1101 C1099 1.415 . S
C1102 H1092 0.930 . S
C1102 C1100 1.419 . S
C1102 C1103 1.362 . S
C1103 H1093 0.930 . S
C1103 C1096 1.409 . S
C1103 C1102 1.362 . S
H1104 C1110 0.930 . S
H1105 C1113 0.930 . S
H1106 C1114 0.930 . S
H1107 C1115 0.930 . S
H1108 C1118 0.930 . S
H1109 C1119 0.930 . S
C1110 H1104 0.930 . S
C1110 C1111 1.355 . S
C1110 C1112 1.415 . S
C1111 C1110 1.355 . S
C1111 C1113 1.419 . S
C1112 C1110 1.415 . S
C1112 C1117 1.425 . S
C1112 C1119 1.409 . S
C1113 H1105 0.930 . S
C1113 C1111 1.419 . S
C1113 C1114 1.362 . S
C1114 H1106 0.930 . S
C1114 C1113 1.362 . S
C1114 C1117 1.409 . S
C1115 H1107 0.930 . S
C1115 C1116 1.355 . S
C1115 C1117 1.415 . S
C1116 C1115 1.355 . S
C1116 C1118 1.419 . S
C1117 C1112 1.425 . S
C1117 C1114 1.409 . S
C1117 C1115 1.415 . S
C1118 H1108 0.930 . S
C1118 C1116 1.419 . S
C1118 C1119 1.362 . S
C1119 H1109 0.930 . S
C1119 C1112 1.409 . S
C1119 C1118 1.362 . S
H1120 C1126 0.930 . S
H1121 C1129 0.930 . S
H1122 C1130 0.930 . S
H1123 C1131 0.930 . S
H1124 C1134 0.930 . S
H1125 C1135 0.930 1_556 S
C1126 H1120 0.930 . S
C1126 C1127 1.355 . S
C1126 C1128 1.415 . S
C1127 C1126 1.355 . S
C1127 C1129 1.419 . S
C1128 C1126 1.415 . S
C1128 C1133 1.425 . S
C1128 C1135 1.409 . S
C1129 H1121 0.930 . S
C1129 C1127 1.419 . S
C1129 C1130 1.362 . S
C1130 H1122 0.930 . S
C1130 C1129 1.362 . S
C1130 C1133 1.409 . S
C1131 H1123 0.930 . S
C1131 C1132 1.355 . S
C1131 C1133 1.415 . S
C1132 C1131 1.355 . S
C1132 C1134 1.419 . S
C1133 C1128 1.425 . S
C1133 C1130 1.409 . S
C1133 C1131 1.415 . S
C1134 H1124 0.930 . S
C1134 C1132 1.419 . S
C1134 C1135 1.362 . S
C1135 H1125 0.930 1_554 S
C1135 C1128 1.409 . S
C1135 C1134 1.362 . S
H1136 C1142 0.930 . S
H1137 C1145 0.930 . S
H1138 C1146 0.930 . S
H1139 C1147 0.930 . S
H1140 C1150 0.930 . S
H1141 C1151 0.930 . S
C1142 H1136 0.930 . S
C1142 C1143 1.355 . S
C1142 C1144 1.415 . S
C1143 C1142 1.355 . S
C1143 C1145 1.419 . S
C1144 C1142 1.415 . S
C1144 C1149 1.425 . S
C1144 C1151 1.409 . S
C1145 H1137 0.930 . S
C1145 C1143 1.419 . S
C1145 C1146 1.362 . S
C1146 H1138 0.930 . S
C1146 C1145 1.362 . S
C1146 C1149 1.409 . S
C1147 H1139 0.930 . S
C1147 C1148 1.355 . S
C1147 C1149 1.415 . S
C1148 C1147 1.355 . S
C1148 C1150 1.419 . S
C1149 C1144 1.425 . S
C1149 C1146 1.409 . S
C1149 C1147 1.415 . S
C1150 H1140 0.930 . S
C1150 C1148 1.419 . S
C1150 C1151 1.362 . S
C1151 H1141 0.930 . S
C1151 C1144 1.409 . S
C1151 C1150 1.362 . S
H1152 C1158 0.930 . S
H1153 C1161 0.930 . S
H1154 C1162 0.930 . S
H1155 C1163 0.930 . S
H1156 C1166 0.930 . S
H1157 C1167 0.930 . S
C1158 H1152 0.930 . S
C1158 C1159 1.355 . S
C1158 C1160 1.415 . S
C1159 C1158 1.355 . S
C1159 C1161 1.419 . S
C1160 C1158 1.415 . S
C1160 C1165 1.425 . S
C1160 C1167 1.409 . S
C1161 H1153 0.930 . S
C1161 C1159 1.419 . S
C1161 C1162 1.362 . S
C1162 H1154 0.930 . S
C1162 C1161 1.362 . S
C1162 C1165 1.409 . S
C1163 H1155 0.930 . S
C1163 C1164 1.355 . S
C1163 C1165 1.415 . S
C1164 C1163 1.355 . S
C1164 C1166 1.419 . S
C1165 C1160 1.425 . S
C1165 C1162 1.409 . S
C1165 C1163 1.415 . S
C1166 H1156 0.930 . S
C1166 C1164 1.419 . S
C1166 C1167 1.362 . S
C1167 H1157 0.930 . S
C1167 C1160 1.409 . S
C1167 C1166 1.362 . S
H1168 C1174 0.930 . S
H1169 C1177 0.930 . S
H1170 C1178 0.930 . S
H1171 C1179 0.930 . S
H1172 C1182 0.930 . S
H1173 C1183 0.930 . S
C1174 H1168 0.930 . S
C1174 C1175 1.355 . S
C1174 C1176 1.415 . S
C1175 C1174 1.355 . S
C1175 C1177 1.419 . S
C1176 C1174 1.415 . S
C1176 C1181 1.425 1_655 S
C1176 C1183 1.409 1_655 S
C1177 H1169 0.930 . S
C1177 C1175 1.419 . S
C1177 C1178 1.362 . S
C1178 H1170 0.930 . S
C1178 C1177 1.362 . S
C1178 C1181 1.409 1_655 S
C1179 H1171 0.930 . S
C1179 C1180 1.355 . S
C1179 C1181 1.415 . S
C1180 C1179 1.355 . S
C1180 C1182 1.419 . S
C1181 C1176 1.425 1_455 S
C1181 C1178 1.409 1_455 S
C1181 C1179 1.415 . S
C1182 H1172 0.930 . S
C1182 C1180 1.419 . S
C1182 C1183 1.362 . S
C1183 H1173 0.930 . S
C1183 C1176 1.409 1_455 S
C1183 C1182 1.362 . S
H1184 C1190 0.930 . S
H1185 C1193 0.930 . S
H1186 C1194 0.930 . S
H1187 C1195 0.930 . S
H1188 C1198 0.930 . S
H1189 C1199 0.930 . S
C1190 H1184 0.930 . S
C1190 C1191 1.355 . S
C1190 C1192 1.415 . S
C1191 C1190 1.355 . S
C1191 C1193 1.419 . S
C1192 C1190 1.415 . S
C1192 C1197 1.425 1_655 S
C1192 C1199 1.409 1_655 S
C1193 H1185 0.930 . S
C1193 C1191 1.419 . S
C1193 C1194 1.362 . S
C1194 H1186 0.930 . S
C1194 C1193 1.362 . S
C1194 C1197 1.409 1_655 S
C1195 H1187 0.930 . S
C1195 C1196 1.355 . S
C1195 C1197 1.415 . S
C1196 C1195 1.355 . S
C1196 C1198 1.419 . S
C1197 C1192 1.425 1_455 S
C1197 C1194 1.409 1_455 S
C1197 C1195 1.415 . S
C1198 H1188 0.930 . S
C1198 C1196 1.419 . S
C1198 C1199 1.362 . S
C1199 H1189 0.930 . S
C1199 C1192 1.409 1_455 S
C1199 C1198 1.362 . S
H1200 C1206 0.930 . S
H1201 C1209 0.930 . S
H1202 C1210 0.930 . S
H1203 C1211 0.930 . S
H1204 C1214 0.930 . S
H1205 C1215 0.930 . S
C1206 H1200 0.930 . S
C1206 C1207 1.355 . S
C1206 C1208 1.415 . S
C1207 C1206 1.355 . S
C1207 C1209 1.419 . S
C1208 C1206 1.415 . S
C1208 C1213 1.425 . S
C1208 C1215 1.409 . S
C1209 H1201 0.930 . S
C1209 C1207 1.419 . S
C1209 C1210 1.362 . S
C1210 H1202 0.930 . S
C1210 C1209 1.362 . S
C1210 C1213 1.409 . S
C1211 H1203 0.930 . S
C1211 C1212 1.355 . S
C1211 C1213 1.415 . S
C1212 C1211 1.355 . S
C1212 C1214 1.419 . S
C1213 C1208 1.425 . S
C1213 C1210 1.409 . S
C1213 C1211 1.415 . S
C1214 H1204 0.930 . S
C1214 C1212 1.419 . S
C1214 C1215 1.362 . S
C1215 H1205 0.930 . S
C1215 C1208 1.409 . S
C1215 C1214 1.362 . S
H1216 C1222 0.930 . S
H1217 C1225 0.930 . S
H1218 C1226 0.930 . S
H1219 C1227 0.930 . S
H1220 C1230 0.930 . S
H1221 C1231 0.930 . S
C1222 H1216 0.930 . S
C1222 C1223 1.355 . S
C1222 C1224 1.415 . S
C1223 C1222 1.355 . S
C1223 C1225 1.419 . S
C1224 C1222 1.415 . S
C1224 C1229 1.425 . S
C1224 C1231 1.409 . S
C1225 H1217 0.930 . S
C1225 C1223 1.419 . S
C1225 C1226 1.362 . S
C1226 H1218 0.930 . S
C1226 C1225 1.362 . S
C1226 C1229 1.409 . S
C1227 H1219 0.930 . S
C1227 C1228 1.355 . S
C1227 C1229 1.415 . S
C1228 C1227 1.355 . S
C1228 C1230 1.419 . S
C1229 C1224 1.425 . S
C1229 C1226 1.409 . S
C1229 C1227 1.415 . S
C1230 H1220 0.930 . S
C1230 C1228 1.419 . S
C1230 C1231 1.362 . S
C1231 H1221 0.930 . S
C1231 C1224 1.409 . S
C1231 C1230 1.362 . S
H1232 C1238 0.930 . S
H1233 C1241 0.930 . S
H1234 C1242 0.930 . S
H1235 C1243 0.930 . S
H1236 C1246 0.930 . S
H1237 C1247 0.930 . S
C1238 H1232 0.930 . S
C1238 C1239 1.355 . S
C1238 C1240 1.415 . S
C1239 C1238 1.355 . S
C1239 C1241 1.419 . S
C1240 C1238 1.415 . S
C1240 C1245 1.425 1_565 S
C1240 C1247 1.409 . S
C1241 H1233 0.930 . S
C1241 C1239 1.419 . S
C1241 C1242 1.362 1_565 S
C1242 H1234 0.930 . S
C1242 C1241 1.362 1_545 S
C1242 C1245 1.409 . S
C1243 H1235 0.930 . S
C1243 C1244 1.355 . S
C1243 C1245 1.415 . S
C1244 C1243 1.355 . S
C1244 C1246 1.419 . S
C1245 C1240 1.425 1_545 S
C1245 C1242 1.409 . S
C1245 C1243 1.415 . S
C1246 H1236 0.930 . S
C1246 C1244 1.419 . S
C1246 C1247 1.362 1_545 S
C1247 H1237 0.930 . S
C1247 C1240 1.409 . S
C1247 C1246 1.362 1_565 S
H1248 C1254 0.930 . S
H1249 C1257 0.930 . S
H1250 C1258 0.930 . S
H1251 C1259 0.930 . S
H1252 C1262 0.930 . S
H1253 C1263 0.930 . S
C1254 H1248 0.930 . S
C1254 C1255 1.355 . S
C1254 C1256 1.415 . S
C1255 C1254 1.355 . S
C1255 C1257 1.419 . S
C1256 C1254 1.415 . S
C1256 C1261 1.425 . S
C1256 C1263 1.409 . S
C1257 H1249 0.930 . S
C1257 C1255 1.419 . S
C1257 C1258 1.362 . S
C1258 H1250 0.930 . S
C1258 C1257 1.362 . S
C1258 C1261 1.409 . S
C1259 H1251 0.930 . S
C1259 C1260 1.355 . S
C1259 C1261 1.415 . S
C1260 C1259 1.355 . S
C1260 C1262 1.419 . S
C1261 C1256 1.425 . S
C1261 C1258 1.409 . S
C1261 C1259 1.415 . S
C1262 H1252 0.930 . S
C1262 C1260 1.419 . S
C1262 C1263 1.362 . S
C1263 H1253 0.930 . S
C1263 C1256 1.409 . S
C1263 C1262 1.362 . S
H1264 C1270 0.930 . S
H1265 C1273 0.930 . S
H1266 C1274 0.930 . S
H1267 C1275 0.930 . S
H1268 C1278 0.930 . S
H1269 C1279 0.930 . S
C1270 H1264 0.930 . S
C1270 C1271 1.355 . S
C1270 C1272 1.415 1_556 S
C1271 C1270 1.355 . S
C1271 C1273 1.419 . S
C1272 C1270 1.415 1_554 S
C1272 C1277 1.425 1_545 S
C1272 C1279 1.409 . S
C1273 H1265 0.930 . S
C1273 C1271 1.419 . S
C1273 C1274 1.362 1_545 S
C1274 H1266 0.930 . S
C1274 C1273 1.362 1_565 S
C1274 C1277 1.409 1_556 S
C1275 H1267 0.930 . S
C1275 C1276 1.355 . S
C1275 C1277 1.415 . S
C1276 C1275 1.355 . S
C1276 C1278 1.419 . S
C1277 C1272 1.425 1_565 S
C1277 C1274 1.409 1_554 S
C1277 C1275 1.415 . S
C1278 H1268 0.930 . S
C1278 C1276 1.419 . S
C1278 C1279 1.362 1_565 S
C1279 H1269 0.930 . S
C1279 C1272 1.409 . S
C1279 C1278 1.362 1_545 S
H1280 C1286 0.930 . S
H1281 C1289 0.930 . S
H1282 C1290 0.930 . S
H1283 C1291 0.930 . S
H1284 C1294 0.930 . S
H1285 C1295 0.930 . S
C1286 H1280 0.930 . S
C1286 C1287 1.355 . S
C1286 C1288 1.415 . S
C1287 C1286 1.355 . S
C1287 C1289 1.419 . S
C1288 C1286 1.415 . S
C1288 C1293 1.425 . S
C1288 C1295 1.409 . S
C1289 H1281 0.930 . S
C1289 C1287 1.419 . S
C1289 C1290 1.362 . S
C1290 H1282 0.930 . S
C1290 C1289 1.362 . S
C1290 C1293 1.409 . S
C1291 H1283 0.930 . S
C1291 C1292 1.355 . S
C1291 C1293 1.415 . S
C1292 C1291 1.355 . S
C1292 C1294 1.419 . S
C1293 C1288 1.425 . S
C1293 C1290 1.409 . S
C1293 C1291 1.415 . S
C1294 H1284 0.930 . S
C1294 C1292 1.419 . S
C1294 C1295 1.362 . S
C1295 H1285 0.930 . S
C1295 C1288 1.409 . S
C1295 C1294 1.362 . S
H1296 C1302 0.941 . S
H1297 C1305 0.930 . S
H1298 C1306 0.930 . S
H1299 C1307 0.941 . S
H1300 C1310 0.930 . S
H1301 C1311 0.930 . S
C1302 H1296 0.941 . S
C1302 C1303 1.355 . S
C1302 C1304 1.415 1_545 S
C1303 C1302 1.355 . S
C1303 C1305 1.419 . S
C1304 C1302 1.415 1_565 S
C1304 C1309 1.425 1_565 S
C1304 C1311 1.409 . S
C1305 H1297 0.930 . S
C1305 C1303 1.419 . S
C1305 C1306 1.362 . S
C1306 H1298 0.930 . S
C1306 C1305 1.362 . S
C1306 C1309 1.409 . S
C1307 H1299 0.941 . S
C1307 C1308 1.355 . S
C1307 C1309 1.415 1_565 S
C1308 C1307 1.355 . S
C1308 C1310 1.419 . S
C1309 C1304 1.425 1_545 S
C1309 C1306 1.409 . S
C1309 C1307 1.415 1_545 S
C1310 H1300 0.930 . S
C1310 C1308 1.419 . S
C1310 C1311 1.362 . S
C1311 H1301 0.930 . S
C1311 C1304 1.409 . S
C1311 C1310 1.362 . S
H1312 C1318 0.930 . S
H1313 C1321 0.930 . S
H1314 C1322 0.930 . S
H1315 C1323 0.930 . S
H1316 C1326 0.930 . S
H1317 C1327 0.930 . S
C1318 H1312 0.930 . S
C1318 C1319 1.355 . S
C1318 C1320 1.415 . S
C1319 C1318 1.355 . S
C1319 C1321 1.419 . S
C1320 C1318 1.415 . S
C1320 C1325 1.425 . S
C1320 C1327 1.409 . S
C1321 H1313 0.930 . S
C1321 C1319 1.419 . S
C1321 C1322 1.362 . S
C1322 H1314 0.930 . S
C1322 C1321 1.362 . S
C1322 C1325 1.409 . S
C1323 H1315 0.930 . S
C1323 C1324 1.355 . S
C1323 C1325 1.415 . S
C1324 C1323 1.355 . S
C1324 C1326 1.419 . S
C1325 C1320 1.425 . S
C1325 C1322 1.409 . S
C1325 C1323 1.415 . S
C1326 H1316 0.930 . S
C1326 C1324 1.419 . S
C1326 C1327 1.362 . S
C1327 H1317 0.930 . S
C1327 C1320 1.409 . S
C1327 C1326 1.362 . S
H1328 C1334 0.930 . S
H1329 C1337 0.930 . S
H1330 C1338 0.930 . S
H1331 C1339 0.930 . S
H1332 C1342 0.930 . S
H1333 C1343 0.930 . S
C1334 H1328 0.930 . S
C1334 C1335 1.355 . S
C1334 C1336 1.415 1_565 S
C1335 C1334 1.355 . S
C1335 C1337 1.419 . S
C1336 C1334 1.415 1_545 S
C1336 C1341 1.425 1_545 S
C1336 C1343 1.409 . S
C1337 H1329 0.930 . S
C1337 C1335 1.419 . S
C1337 C1338 1.362 . S
C1338 H1330 0.930 . S
C1338 C1337 1.362 . S
C1338 C1341 1.409 . S
C1339 H1331 0.930 . S
C1339 C1340 1.355 . S
C1339 C1341 1.415 1_546 S
C1340 C1339 1.355 . S
C1340 C1342 1.419 . S
C1341 C1336 1.425 1_565 S
C1341 C1338 1.409 . S
C1341 C1339 1.415 1_564 S
C1342 H1332 0.930 . S
C1342 C1340 1.419 . S
C1342 C1343 1.362 1_556 S
C1343 H1333 0.930 . S
C1343 C1336 1.409 . S
C1343 C1342 1.362 1_554 S
H1344 C1350 0.930 . S
H1345 C1353 0.930 . S
H1346 C1354 0.930 . S
H1347 C1355 0.930 . S
H1348 C1358 0.930 . S
H1349 C1359 0.930 . S
C1350 H1344 0.930 . S
C1350 C1351 1.355 . S
C1350 C1352 1.415 . S
C1351 C1350 1.355 . S
C1351 C1353 1.419 . S
C1352 C1350 1.415 . S
C1352 C1357 1.425 . S
C1352 C1359 1.409 . S
C1353 H1345 0.930 . S
C1353 C1351 1.419 . S
C1353 C1354 1.362 . S
C1354 H1346 0.930 . S
C1354 C1353 1.362 . S
C1354 C1357 1.409 . S
C1355 H1347 0.930 . S
C1355 C1356 1.355 . S
C1355 C1357 1.415 . S
C1356 C1355 1.355 . S
C1356 C1358 1.419 . S
C1357 C1352 1.425 . S
C1357 C1354 1.409 . S
C1357 C1355 1.415 . S
C1358 H1348 0.930 . S
C1358 C1356 1.419 . S
C1358 C1359 1.362 . S
C1359 H1349 0.930 . S
C1359 C1352 1.409 . S
C1359 C1358 1.362 . S
H1360 C1366 0.930 . S
H1361 C1369 0.930 . S
H1362 C1370 0.936 . S
H1363 C1371 0.930 . S
H1364 C1374 0.932 . S
H1365 C1375 0.930 . S
C1366 H1360 0.930 . S
C1366 C1367 1.355 . S
C1366 C1368 1.415 . S
C1367 C1366 1.355 . S
C1367 C1369 1.419 . S
C1368 C1366 1.415 . S
C1368 C1373 1.425 . S
C1368 C1375 1.409 . S
C1369 H1361 0.930 . S
C1369 C1367 1.419 . S
C1369 C1370 1.362 . S
C1370 H1362 0.936 . S
C1370 C1369 1.362 . S
C1370 C1373 1.409 . S
C1371 H1363 0.930 . S
C1371 C1372 1.355 . S
C1371 C1373 1.415 1_556 S
C1372 C1371 1.355 . S
C1372 C1374 1.429 . S
C1373 C1368 1.425 . S
C1373 C1370 1.409 . S
C1373 C1371 1.415 1_554 S
C1374 H1364 0.932 . S
C1374 C1372 1.429 . S
C1374 C1375 1.350 1_556 S
C1375 H1365 0.930 . S
C1375 C1368 1.409 . S
C1375 C1374 1.350 1_554 S
H1376 C1382 0.930 . S
H1377 C1385 0.930 . S
H1378 C1386 0.930 . S
H1379 C1387 0.930 . S
H1380 C1390 0.930 . S
H1381 C1391 0.930 . S
C1382 H1376 0.930 . S
C1382 C1383 1.355 . S
C1382 C1384 1.415 . S
C1383 C1382 1.355 . S
C1383 C1385 1.419 . S
C1384 C1382 1.415 . S
C1384 C1389 1.425 . S
C1384 C1391 1.409 . S
C1385 H1377 0.930 . S
C1385 C1383 1.419 . S
C1385 C1386 1.362 . S
C1386 H1378 0.930 . S
C1386 C1385 1.362 . S
C1386 C1389 1.409 . S
C1387 H1379 0.930 . S
C1387 C1388 1.355 . S
C1387 C1389 1.415 . S
C1388 C1387 1.355 . S
C1388 C1390 1.419 . S
C1389 C1384 1.425 . S
C1389 C1386 1.409 . S
C1389 C1387 1.415 . S
C1390 H1380 0.930 . S
C1390 C1388 1.419 . S
C1390 C1391 1.362 . S
C1391 H1381 0.930 . S
C1391 C1384 1.409 . S
C1391 C1390 1.362 . S
H1392 C1398 0.930 . S
H1393 C1401 0.930 . S
H1394 C1402 0.930 . S
H1395 C1403 0.930 . S
H1396 C1406 0.930 . S
H1397 C1407 0.930 . S
C1398 H1392 0.930 . S
C1398 C1399 1.355 . S
C1398 C1400 1.415 . S
C1399 C1398 1.355 . S
C1399 C1401 1.419 . S
C1400 C1398 1.415 . S
C1400 C1405 1.425 . S
C1400 C1407 1.409 . S
C1401 H1393 0.930 . S
C1401 C1399 1.419 . S
C1401 C1402 1.362 . S
C1402 H1394 0.930 . S
C1402 C1401 1.362 . S
C1402 C1405 1.409 . S
C1403 H1395 0.930 . S
C1403 C1404 1.355 . S
C1403 C1405 1.415 . S
C1404 C1403 1.355 . S
C1404 C1406 1.419 . S
C1405 C1400 1.425 . S
C1405 C1402 1.409 . S
C1405 C1403 1.415 . S
C1406 H1396 0.930 . S
C1406 C1404 1.419 . S
C1406 C1407 1.362 . S
C1407 H1397 0.930 . S
C1407 C1400 1.409 . S
C1407 C1406 1.362 . S
H1408 C1414 0.930 . S
H1409 C1417 0.930 . S
H1410 C1418 0.930 . S
H1411 C1419 0.930 . S
H1412 C1422 0.930 . S
H1413 C1423 0.930 . S
C1414 H1408 0.930 . S
C1414 C1415 1.355 . S
C1414 C1416 1.415 . S
C1415 C1414 1.355 . S
C1415 C1417 1.419 . S
C1416 C1414 1.415 . S
C1416 C1421 1.425 . S
C1416 C1423 1.409 . S
C1417 H1409 0.930 . S
C1417 C1415 1.419 . S
C1417 C1418 1.362 . S
C1418 H1410 0.930 . S
C1418 C1417 1.362 . S
C1418 C1421 1.409 . S
C1419 H1411 0.930 . S
C1419 C1420 1.355 . S
C1419 C1421 1.415 . S
C1420 C1419 1.355 . S
C1420 C1422 1.419 . S
C1421 C1416 1.425 . S
C1421 C1418 1.409 . S
C1421 C1419 1.415 . S
C1422 H1412 0.930 . S
C1422 C1420 1.419 . S
C1422 C1423 1.362 . S
C1423 H1413 0.930 . S
C1423 C1416 1.409 . S
C1423 C1422 1.362 . S
H1424 C1430 0.930 . S
H1425 C1433 0.930 . S
H1426 C1434 0.930 . S
H1427 C1435 0.930 . S
H1428 C1438 0.930 . S
H1429 C1439 0.930 1_556 S
C1430 H1424 0.930 . S
C1430 C1431 1.355 . S
C1430 C1432 1.415 1_556 S
C1431 C1430 1.355 . S
C1431 C1433 1.419 1_556 S
C1432 C1430 1.415 1_554 S
C1432 C1437 1.425 . S
C1432 C1439 1.409 . S
C1433 H1425 0.930 . S
C1433 C1431 1.419 1_554 S
C1433 C1434 1.362 . S
C1434 H1426 0.930 . S
C1434 C1433 1.362 . S
C1434 C1437 1.409 . S
C1435 H1427 0.930 . S
C1435 C1436 1.355 . S
C1435 C1437 1.415 . S
C1436 C1435 1.355 . S
C1436 C1438 1.419 . S
C1437 C1432 1.425 . S
C1437 C1434 1.409 . S
C1437 C1435 1.415 . S
C1438 H1428 0.930 . S
C1438 C1436 1.419 . S
C1438 C1439 1.362 . S
C1439 H1429 0.930 1_554 S
C1439 C1432 1.409 . S
C1439 C1438 1.362 . S
H1440 C1446 0.930 . S
H1441 C1449 0.930 . S
H1442 C1450 0.930 . S
H1443 C1451 0.930 . S
H1444 C1454 0.930 . S
H1445 C1455 0.930 . S
C1446 H1440 0.930 . S
C1446 C1447 1.355 . S
C1446 C1448 1.415 . S
C1447 C1446 1.355 . S
C1447 C1449 1.419 . S
C1448 C1446 1.415 . S
C1448 C1453 1.425 . S
C1448 C1455 1.409 . S
C1449 H1441 0.930 . S
C1449 C1447 1.419 . S
C1449 C1450 1.362 . S
C1450 H1442 0.930 . S
C1450 C1449 1.362 . S
C1450 C1453 1.409 . S
C1451 H1443 0.930 . S
C1451 C1452 1.355 . S
C1451 C1453 1.415 . S
C1452 C1451 1.355 . S
C1452 C1454 1.419 . S
C1453 C1448 1.425 . S
C1453 C1450 1.409 . S
C1453 C1451 1.415 . S
C1454 H1444 0.930 . S
C1454 C1452 1.419 . S
C1454 C1455 1.362 . S
C1455 H1445 0.930 . S
C1455 C1448 1.409 . S
C1455 C1454 1.362 . S
H1456 C1462 0.930 . S
H1457 C1465 0.930 . S
H1458 C1466 0.930 . S
H1459 C1467 0.930 . S
H1460 C1470 0.930 . S
H1461 C1471 0.930 . S
C1462 H1456 0.930 . S
C1462 C1463 1.355 . S
C1462 C1464 1.415 . S
C1463 C1462 1.355 . S
C1463 C1465 1.419 . S
C1464 C1462 1.415 . S
C1464 C1469 1.425 . S
C1464 C1471 1.409 . S
C1465 H1457 0.930 . S
C1465 C1463 1.419 . S
C1465 C1466 1.362 . S
C1466 H1458 0.930 . S
C1466 C1465 1.362 . S
C1466 C1469 1.409 . S
C1467 H1459 0.930 . S
C1467 C1468 1.355 . S
C1467 C1469 1.415 . S
C1468 C1467 1.355 . S
C1468 C1470 1.419 . S
C1469 C1464 1.425 . S
C1469 C1466 1.409 . S
C1469 C1467 1.415 . S
C1470 H1460 0.930 . S
C1470 C1468 1.419 . S
C1470 C1471 1.362 . S
C1471 H1461 0.930 . S
C1471 C1464 1.409 . S
C1471 C1470 1.362 . S
C455 C109 1.431 . S
C460 C11 1.453 1_556 S
C471 C25 1.446 . S
C476 C67 1.423 . S
C487 C81 1.459 . S
C492 C39 1.448 . S
C503 C53 1.422 . S
C508 C95 1.416 . S
C519 C123 1.422 . S
C524 C221 1.444 . S
C535 C137 1.459 . S
C540 C179 1.451 1_556 S
C551 C151 1.429 . S
C556 C193 1.451 . S
C567 C165 1.445 . S
C572 C207 1.459 . S
C583 C235 1.417 . S
C588 C333 1.419 . S
C599 C249 1.418 . S
C604 C291 1.438 . S
C615 C305 1.430 . S
C620 C263 1.452 1_556 S
C631 C319 1.455 . S
C636 C277 1.434 . S
C647 C347 1.432 . S
C652 C445 1.454 . S
C663 C403 1.458 . S
C668 C361 1.440 . S
C679 C417 1.458 . S
C684 C375 1.439 . S
C695 C389 1.440 . S
C700 C431 1.458 1_556 S
C711 C13 0.967 . S
C716 C97 0.949 . S
C727 C27 0.882 . S
C732 C111 0.963 . S
C743 C69 0.966 . S
C748 C41 0.950 . S
C759 C55 0.841 . S
C764 C83 0.929 . S
C775 C125 0.886 . S
C780 C209 0.824 . S
C791 C139 0.928 . S
C796 C223 0.973 . S
C807 C181 0.870 . S
C812 C153 0.826 . S
C823 C195 0.831 . S
C828 C167 0.854 . S
C839 C237 0.844 . S
C844 C321 0.933 . S
C855 C335 0.829 . S
C860 C251 0.858 . S
C871 C293 0.830 . S
C876 C265 0.857 . S
C887 C279 0.907 . S
C892 C307 0.972 . S
C903 C349 0.967 . S
C908 C433 0.948 . S
C919 C363 0.836 . S
C924 C447 0.847 . S
C935 C405 0.862 . S
C940 C377 0.827 . S
C951 C419 0.911 . S
C956 C391 0.831 . S
C967 C8 1.236 . S
C972 C428 1.304 . S
C983 C22 1.242 . S
C988 C218 1.299 . S
C999 C36 1.319 . S
C1004 C400 1.220 . S
C1015 C50 1.315 . S
C1020 C190 1.225 . S
C1031 C64 1.242 . S
C1036 C372 1.298 . S
C1047 C78 1.300 . S
C1052 C162 1.240 . S
C1063 C92 1.265 . S
C1068 C344 1.276 . S
C1079 C134 1.238 . S
C1084 C106 1.303 . S
C1095 C316 1.280 . S
C1100 C120 1.262 . S
C1111 C148 1.222 . S
C1116 C288 1.317 . S
C1127 C260 1.319 . S
C1132 C176 1.220 . S
C1143 C232 1.243 . S
C1148 C204 1.298 . S
C1159 C246 1.220 . S
C1164 C442 1.319 . S
C1175 C274 1.238 . S
C1180 C414 1.303 . S
C1191 C302 1.228 . S
C1196 C386 1.312 . S
C1207 C358 1.313 . S
C1212 C330 1.227 . S
C1223 C7 1.674 . S
C1228 C91 1.681 . S
C1239 C21 1.628 . S
C1244 C105 1.650 . S
C1255 C63 1.678 . S
C1260 C35 1.679 . S
C1271 C49 1.638 . S
C1276 C77 1.623 . S
C1287 C119 1.681 . S
C1292 C203 1.666 . S
C1303 C133 1.680 . S
C1308 C217 1.677 . S
C1319 C175 1.649 . S
C1324 C147 1.673 . S
C1335 C161 1.680 . S
C1340 C189 1.665 . S
C1351 C315 1.681 . S
C1356 C231 1.668 . S
C1367 C329 1.670 . S
C1372 C245 1.681 . S
C1383 C287 1.622 . S
C1388 C259 1.632 . S
C1399 C301 1.625 . S
C1404 C273 1.645 . S
C1415 C427 1.640 . S
C1420 C343 1.665 . S
C1431 C441 1.677 . S
C1436 C357 1.679 . S
C1447 C371 1.659 . S
C1452 C399 1.634 . S
C1463 C413 1.668 . S
C1468 C385 1.681 . S
