# Generated by pormake.
# Topology uos, (4)-cn, num edge types: 1
# Building blocks:
#     Node 0, Type 0, BuildingBlock: QUQFOY_clean_sbu_3, # of connection points: 4
#     Node 1, Type 0, BuildingBlock: QUQFOY_clean_sbu_3, # of connection points: 4
#     Node 2, Type 0, BuildingBlock: QUQFOY_clean_sbu_3, # of connection points: 4
#     Node 3, Type 0, BuildingBlock: QUQFOY_clean_sbu_3, # of connection points: 4
#     Node 4, Type 0, BuildingBlock: QUQFOY_clean_sbu_3, # of connection points: 4
#     Node 5, Type 0, BuildingBlock: QUQFOY_clean_sbu_3, # of connection points: 4
#     Node 6, Type 0, BuildingBlock: QUQFOY_clean_sbu_3, # of connection points: 4
#     Node 7, Type 0, BuildingBlock: QUQFOY_clean_sbu_3, # of connection points: 4
#     Node 8, Type 0, BuildingBlock: QUQFOY_clean_sbu_3, # of connection points: 4
#     Node 9, Type 0, BuildingBlock: QUQFOY_clean_sbu_3, # of connection points: 4
#     Node 10, Type 0, BuildingBlock: QUQFOY_clean_sbu_3, # of connection points: 4
#     Node 11, Type 0, BuildingBlock: QUQFOY_clean_sbu_3, # of connection points: 4
#     Node 12, Type 0, BuildingBlock: QUQFOY_clean_sbu_3, # of connection points: 4
#     Node 13, Type 0, BuildingBlock: QUQFOY_clean_sbu_3, # of connection points: 4
#     Node 14, Type 0, BuildingBlock: QUQFOY_clean_sbu_3, # of connection points: 4
#     Node 15, Type 0, BuildingBlock: QUQFOY_clean_sbu_3, # of connection points: 4
#     Node 16, Type 0, BuildingBlock: QUQFOY_clean_sbu_3, # of connection points: 4
#     Node 17, Type 0, BuildingBlock: QUQFOY_clean_sbu_3, # of connection points: 4
#     Node 18, Type 0, BuildingBlock: QUQFOY_clean_sbu_3, # of connection points: 4
#     Node 19, Type 0, BuildingBlock: QUQFOY_clean_sbu_3, # of connection points: 4
#     Node 20, Type 0, BuildingBlock: QUQFOY_clean_sbu_3, # of connection points: 4
#     Node 21, Type 0, BuildingBlock: QUQFOY_clean_sbu_3, # of connection points: 4
#     Node 22, Type 0, BuildingBlock: QUQFOY_clean_sbu_3, # of connection points: 4
#     Node 23, Type 0, BuildingBlock: QUQFOY_clean_sbu_3, # of connection points: 4
#     Node 24, Type 0, BuildingBlock: QUQFOY_clean_sbu_3, # of connection points: 4
#     Node 25, Type 0, BuildingBlock: QUQFOY_clean_sbu_3, # of connection points: 4
#     Node 26, Type 0, BuildingBlock: QUQFOY_clean_sbu_3, # of connection points: 4
#     Node 27, Type 0, BuildingBlock: QUQFOY_clean_sbu_3, # of connection points: 4
#     Node 28, Type 0, BuildingBlock: QUQFOY_clean_sbu_3, # of connection points: 4
#     Node 29, Type 0, BuildingBlock: QUQFOY_clean_sbu_3, # of connection points: 4
#     Node 30, Type 0, BuildingBlock: QUQFOY_clean_sbu_3, # of connection points: 4
#     Node 31, Type 0, BuildingBlock: QUQFOY_clean_sbu_3, # of connection points: 4
#     Edge 32, Type (0, 0), BuildingBlock: OJICUG_clean_linker_0, # of connection points: 2
#     Edge 33, Type (0, 0), BuildingBlock: OJICUG_clean_linker_0, # of connection points: 2
#     Edge 34, Type (0, 0), BuildingBlock: OJICUG_clean_linker_0, # of connection points: 2
#     Edge 35, Type (0, 0), BuildingBlock: OJICUG_clean_linker_0, # of connection points: 2
#     Edge 36, Type (0, 0), BuildingBlock: OJICUG_clean_linker_0, # of connection points: 2
#     Edge 37, Type (0, 0), BuildingBlock: OJICUG_clean_linker_0, # of connection points: 2
#     Edge 38, Type (0, 0), BuildingBlock: OJICUG_clean_linker_0, # of connection points: 2
#     Edge 39, Type (0, 0), BuildingBlock: OJICUG_clean_linker_0, # of connection points: 2
#     Edge 40, Type (0, 0), BuildingBlock: OJICUG_clean_linker_0, # of connection points: 2
#     Edge 41, Type (0, 0), BuildingBlock: OJICUG_clean_linker_0, # of connection points: 2
#     Edge 42, Type (0, 0), BuildingBlock: OJICUG_clean_linker_0, # of connection points: 2
#     Edge 43, Type (0, 0), BuildingBlock: OJICUG_clean_linker_0, # of connection points: 2
#     Edge 44, Type (0, 0), BuildingBlock: OJICUG_clean_linker_0, # of connection points: 2
#     Edge 45, Type (0, 0), BuildingBlock: OJICUG_clean_linker_0, # of connection points: 2
#     Edge 46, Type (0, 0), BuildingBlock: OJICUG_clean_linker_0, # of connection points: 2
#     Edge 47, Type (0, 0), BuildingBlock: OJICUG_clean_linker_0, # of connection points: 2
#     Edge 48, Type (0, 0), BuildingBlock: OJICUG_clean_linker_0, # of connection points: 2
#     Edge 49, Type (0, 0), BuildingBlock: OJICUG_clean_linker_0, # of connection points: 2
#     Edge 50, Type (0, 0), BuildingBlock: OJICUG_clean_linker_0, # of connection points: 2
#     Edge 51, Type (0, 0), BuildingBlock: OJICUG_clean_linker_0, # of connection points: 2
#     Edge 52, Type (0, 0), BuildingBlock: OJICUG_clean_linker_0, # of connection points: 2
#     Edge 53, Type (0, 0), BuildingBlock: OJICUG_clean_linker_0, # of connection points: 2
#     Edge 54, Type (0, 0), BuildingBlock: OJICUG_clean_linker_0, # of connection points: 2
#     Edge 55, Type (0, 0), BuildingBlock: OJICUG_clean_linker_0, # of connection points: 2
#     Edge 56, Type (0, 0), BuildingBlock: OJICUG_clean_linker_0, # of connection points: 2
#     Edge 57, Type (0, 0), BuildingBlock: OJICUG_clean_linker_0, # of connection points: 2
#     Edge 58, Type (0, 0), BuildingBlock: OJICUG_clean_linker_0, # of connection points: 2
#     Edge 59, Type (0, 0), BuildingBlock: OJICUG_clean_linker_0, # of connection points: 2
#     Edge 60, Type (0, 0), BuildingBlock: OJICUG_clean_linker_0, # of connection points: 2
#     Edge 61, Type (0, 0), BuildingBlock: OJICUG_clean_linker_0, # of connection points: 2
#     Edge 62, Type (0, 0), BuildingBlock: OJICUG_clean_linker_0, # of connection points: 2
#     Edge 63, Type (0, 0), BuildingBlock: OJICUG_clean_linker_0, # of connection points: 2
#     Edge 64, Type (0, 0), BuildingBlock: OJICUG_clean_linker_0, # of connection points: 2
#     Edge 65, Type (0, 0), BuildingBlock: OJICUG_clean_linker_0, # of connection points: 2
#     Edge 66, Type (0, 0), BuildingBlock: OJICUG_clean_linker_0, # of connection points: 2
#     Edge 67, Type (0, 0), BuildingBlock: OJICUG_clean_linker_0, # of connection points: 2
#     Edge 68, Type (0, 0), BuildingBlock: OJICUG_clean_linker_0, # of connection points: 2
#     Edge 69, Type (0, 0), BuildingBlock: OJICUG_clean_linker_0, # of connection points: 2
#     Edge 70, Type (0, 0), BuildingBlock: OJICUG_clean_linker_0, # of connection points: 2
#     Edge 71, Type (0, 0), BuildingBlock: OJICUG_clean_linker_0, # of connection points: 2
#     Edge 72, Type (0, 0), BuildingBlock: OJICUG_clean_linker_0, # of connection points: 2
#     Edge 73, Type (0, 0), BuildingBlock: OJICUG_clean_linker_0, # of connection points: 2
#     Edge 74, Type (0, 0), BuildingBlock: OJICUG_clean_linker_0, # of connection points: 2
#     Edge 75, Type (0, 0), BuildingBlock: OJICUG_clean_linker_0, # of connection points: 2
#     Edge 76, Type (0, 0), BuildingBlock: OJICUG_clean_linker_0, # of connection points: 2
#     Edge 77, Type (0, 0), BuildingBlock: OJICUG_clean_linker_0, # of connection points: 2
#     Edge 78, Type (0, 0), BuildingBlock: OJICUG_clean_linker_0, # of connection points: 2
#     Edge 79, Type (0, 0), BuildingBlock: OJICUG_clean_linker_0, # of connection points: 2
#     Edge 80, Type (0, 0), BuildingBlock: OJICUG_clean_linker_0, # of connection points: 2
#     Edge 81, Type (0, 0), BuildingBlock: OJICUG_clean_linker_0, # of connection points: 2
#     Edge 82, Type (0, 0), BuildingBlock: OJICUG_clean_linker_0, # of connection points: 2
#     Edge 83, Type (0, 0), BuildingBlock: OJICUG_clean_linker_0, # of connection points: 2
#     Edge 84, Type (0, 0), BuildingBlock: OJICUG_clean_linker_0, # of connection points: 2
#     Edge 85, Type (0, 0), BuildingBlock: OJICUG_clean_linker_0, # of connection points: 2
#     Edge 86, Type (0, 0), BuildingBlock: OJICUG_clean_linker_0, # of connection points: 2
#     Edge 87, Type (0, 0), BuildingBlock: OJICUG_clean_linker_0, # of connection points: 2
#     Edge 88, Type (0, 0), BuildingBlock: OJICUG_clean_linker_0, # of connection points: 2
#     Edge 89, Type (0, 0), BuildingBlock: OJICUG_clean_linker_0, # of connection points: 2
#     Edge 90, Type (0, 0), BuildingBlock: OJICUG_clean_linker_0, # of connection points: 2
#     Edge 91, Type (0, 0), BuildingBlock: OJICUG_clean_linker_0, # of connection points: 2
#     Edge 92, Type (0, 0), BuildingBlock: OJICUG_clean_linker_0, # of connection points: 2
#     Edge 93, Type (0, 0), BuildingBlock: OJICUG_clean_linker_0, # of connection points: 2
#     Edge 94, Type (0, 0), BuildingBlock: OJICUG_clean_linker_0, # of connection points: 2
#     Edge 95, Type (0, 0), BuildingBlock: OJICUG_clean_linker_0, # of connection points: 2
# Relax obj value: 0.041
# Max RMSD: 0.065
# Mean RMSD: 0.065
data_MOF--net-uos--node1-QUQFOY_clean_sbu_3--edge1-OJICUG_clean_linker_0
_symmetry_space_group_name_H-M    P1
_symmetry_Int_Tables_number       1
_symmetry_cell_setting            triclinic
loop_
_symmetry_equiv_pos_as_xyz
'x, y, z'
_cell_length_a     64.822254
_cell_length_b     64.281276
_cell_length_c     17.960628
_cell_angle_alpha  90.047137
_cell_angle_beta   90.154875
_cell_angle_gamma 89.948887
loop_
_atom_site_label
_atom_site_type_symbol
_atom_site_fract_x
_atom_site_fract_y
_atom_site_fract_z
_atom_type_partial_charge
C0 C 0.17216 0.20425 0.15149 0.0
O1 O 0.17183 0.20191 0.22166 0.0
Cd2 Cd 0.16166 0.17274 0.29348 0.0
O3 O 0.167 0.1895 0.10789 0.0
Cd4 Cd 0.15722 0.15263 0.13006 0.0
C5 C 0.19981 0.14084 0.2293 0.0
O6 O 0.13355 0.15764 0.23152 0.0
O7 O 0.14505 0.12648 0.21678 0.0
O8 O 0.13109 0.1549 0.0347 0.0
C9 C 0.13309 0.13876 0.25104 0.0
O10 O 0.1905 0.14934 0.28372 0.0
C11 C 0.13611 0.13822 0.00165 0.0
O12 O 0.1924 0.14162 0.16339 0.0
O13 O 0.15217 0.12887 0.02508 0.0
C14 C 0.04031 0.90569 0.40667 0.0
O15 O 0.03999 0.9052 0.47732 0.0
Cd16 Cd 0.0663 0.91458 0.56222 0.0
O17 O 0.05661 0.91031 0.37078 0.0
Cd18 Cd 0.09357 0.9166 0.4045 0.0
C19 C 0.07997 0.96208 0.48211 0.0
O20 O 0.09419 0.89638 0.5143 0.0
O21 O 0.12063 0.91633 0.50231 0.0
O22 O 0.10028 0.88775 0.32457 0.0
C23 C 0.11121 0.90267 0.54004 0.0
O24 O 0.07296 0.95087 0.53475 0.0
C25 C 0.11481 0.89598 0.2879 0.0
O26 O 0.08743 0.95395 0.42306 0.0
O27 O 0.11916 0.91487 0.30269 0.0
C28 C 0.33739 0.7856 0.61485 0.0
O29 O 0.3422 0.79406 0.67633 0.0
Cd30 Cd 0.33245 0.82741 0.71695 0.0
O31 O 0.3277 0.79575 0.56464 0.0
Cd32 Cd 0.31748 0.83331 0.54793 0.0
C33 C 0.28006 0.82626 0.67206 0.0
O34 O 0.34408 0.84875 0.62004 0.0
O35 O 0.31731 0.86805 0.60866 0.0
O36 O 0.33652 0.83177 0.43361 0.0
C37 C 0.3357 0.86616 0.63172 0.0
O38 O 0.29467 0.82711 0.71966 0.0
C39 C 0.32503 0.84422 0.39772 0.0
O40 O 0.28377 0.82686 0.60235 0.0
O41 O 0.30854 0.8502 0.42945 0.0
C42 C 0.46361 0.09701 0.93217 0.0
O43 O 0.46133 0.0949 0.00188 0.0
Cd44 Cd 0.43165 0.08633 0.07073 0.0
O45 O 0.44853 0.09488 0.88714 0.0
Cd46 Cd 0.4109 0.0892 0.90981 0.0
C47 C 0.41721 0.0414 0.98131 0.0
O48 O 0.40731 0.10954 0.02103 0.0
O49 O 0.38298 0.08748 0.00206 0.0
O50 O 0.40093 0.11633 0.82283 0.0
C51 C 0.39001 0.10244 0.04038 0.0
O52 O 0.42224 0.05043 0.04184 0.0
C53 C 0.38771 0.10536 0.78844 0.0
O54 O 0.41415 0.05177 0.92186 0.0
O55 O 0.38625 0.08639 0.80747 0.0
C56 C 0.13921 0.78736 0.84515 0.0
O57 O 0.13474 0.79439 0.78108 0.0
Cd58 Cd 0.14355 0.82719 0.73244 0.0
O59 O 0.14829 0.79876 0.89345 0.0
Cd60 Cd 0.15868 0.83632 0.90215 0.0
C61 C 0.19589 0.82726 0.77731 0.0
O62 O 0.13196 0.84989 0.82567 0.0
O63 O 0.15778 0.8704 0.83832 0.0
O64 O 0.14031 0.83689 0.01797 0.0
C65 C 0.13981 0.86746 0.81261 0.0
O66 O 0.18128 0.82718 0.72962 0.0
C67 C 0.15225 0.84958 0.05073 0.0
O68 O 0.19219 0.82908 0.84678 0.0
O69 O 0.16862 0.85477 0.01665 0.0
C70 C 0.4391 0.89155 0.02188 0.0
O71 O 0.43811 0.89273 0.9514 0.0
Cd72 Cd 0.41162 0.90681 0.87659 0.0
O73 O 0.42395 0.89682 0.06309 0.0
Cd74 Cd 0.38692 0.90658 0.04055 0.0
C75 C 0.40409 0.95268 0.9769 0.0
O76 O 0.38342 0.88945 0.92552 0.0
O77 O 0.35836 0.91046 0.94815 0.0
O78 O 0.3786 0.87754 0.11879 0.0
C79 C 0.36658 0.89737 0.90453 0.0
O80 O 0.40929 0.94279 0.91829 0.0
C81 C 0.36523 0.88687 0.15799 0.0
O82 O 0.39646 0.94331 0.03312 0.0
O83 O 0.36245 0.90615 0.14515 0.0
C84 C 0.31458 0.19856 0.33857 0.0
O85 O 0.31803 0.19195 0.27314 0.0
Cd86 Cd 0.3289 0.15896 0.23042 0.0
O87 O 0.3165 0.18674 0.39521 0.0
Cd88 Cd 0.32436 0.14872 0.40714 0.0
C89 C 0.28496 0.13546 0.29148 0.0
O90 O 0.35229 0.14779 0.3221 0.0
O91 O 0.33934 0.1179 0.34654 0.0
O92 O 0.34456 0.1551 0.51791 0.0
C93 C 0.35318 0.12833 0.31384 0.0
O94 O 0.29694 0.13964 0.23746 0.0
C95 C 0.33762 0.13963 0.55379 0.0
O96 O 0.29046 0.13882 0.35877 0.0
O97 O 0.32289 0.12952 0.52406 0.0
C98 C 0.01788 0.09889 0.56862 0.0
O99 O 0.02408 0.10087 0.50199 0.0
Cd100 Cd 0.05767 0.09876 0.45177 0.0
O101 O 0.03053 0.09577 0.62199 0.0
Cd102 Cd 0.06895 0.09404 0.62701 0.0
C103 C 0.07046 0.05064 0.52069 0.0
O104 O 0.07674 0.11963 0.53438 0.0
O105 O 0.1015 0.09872 0.56083 0.0
O106 O 0.0722 0.11654 0.73453 0.0
C107 C 0.09536 0.11454 0.52512 0.0
O108 O 0.06789 0.06229 0.46402 0.0
C109 C 0.08456 0.10463 0.76926 0.0
O110 O 0.06983 0.05806 0.5865 0.0
O111 O 0.08799 0.08686 0.74088 0.0
C112 C 0.81323 0.78254 0.79798 0.0
O113 O 0.81597 0.7868 0.72969 0.0
Cd114 Cd 0.82415 0.81859 0.67052 0.0
O115 O 0.81457 0.79656 0.84808 0.0
Cd116 Cd 0.82053 0.83496 0.84315 0.0
C117 C 0.77991 0.84322 0.72804 0.0
O118 O 0.84732 0.83479 0.75191 0.0
O119 O 0.83304 0.86448 0.77064 0.0
O120 O 0.84307 0.83261 0.94957 0.0
C121 C 0.84678 0.854 0.73745 0.0
O122 O 0.79174 0.83705 0.67601 0.0
C123 C 0.83596 0.84849 0.98276 0.0
O124 O 0.78559 0.84242 0.79619 0.0
O125 O 0.82011 0.85708 0.95434 0.0
C126 C 0.93071 0.08808 0.56952 0.0
O127 O 0.92327 0.09041 0.50463 0.0
Cd128 Cd 0.89011 0.08105 0.46576 0.0
O129 O 0.91978 0.08076 0.62247 0.0
Cd130 Cd 0.88248 0.07089 0.6388 0.0
C131 C 0.89057 0.02986 0.52833 0.0
O132 O 0.87106 0.09744 0.56018 0.0
O133 O 0.84842 0.07351 0.57203 0.0
O134 O 0.88644 0.09156 0.74933 0.0
C135 C 0.8529 0.09148 0.54801 0.0
O136 O 0.89018 0.04316 0.4758 0.0
C137 C 0.87207 0.08301 0.78585 0.0
O138 O 0.88908 0.03553 0.59621 0.0
O139 O 0.86359 0.06712 0.75675 0.0
C140 C 0.63104 0.20084 0.34144 0.0
O141 O 0.62805 0.19042 0.28236 0.0
Cd142 Cd 0.64201 0.1574 0.25523 0.0
O143 O 0.64096 0.193 0.3962 0.0
Cd144 Cd 0.65563 0.15771 0.42519 0.0
C145 C 0.69289 0.16743 0.30239 0.0
O146 O 0.63214 0.13666 0.3572 0.0
O147 O 0.66169 0.12242 0.37357 0.0
O148 O 0.63719 0.15803 0.54145 0.0
C149 C 0.6433 0.12066 0.35045 0.0
O150 O 0.67956 0.16264 0.25289 0.0
C151 C 0.65104 0.14859 0.57835 0.0
O152 O 0.68801 0.16832 0.37104 0.0
O153 O 0.66806 0.14511 0.5457 0.0
C154 C 0.52214 0.88874 0.01589 0.0
O155 O 0.52201 0.89265 0.94665 0.0
Cd156 Cd 0.54974 0.90108 0.86654 0.0
O157 O 0.53883 0.88866 0.05345 0.0
Cd158 Cd 0.57551 0.89371 0.0158 0.0
C159 C 0.56905 0.94317 0.95991 0.0
O160 O 0.57479 0.87594 0.89726 0.0
O161 O 0.60086 0.89608 0.91575 0.0
O162 O 0.587 0.86493 0.09348 0.0
C163 C 0.59205 0.88261 0.8752 0.0
O164 O 0.56189 0.93584 0.89924 0.0
C165 C 0.60094 0.87522 0.12684 0.0
O166 O 0.57328 0.93133 0.01467 0.0
O167 O 0.60248 0.89438 0.11058 0.0
C168 C 0.84197 0.20417 0.17989 0.0
O169 O 0.84282 0.20093 0.24951 0.0
Cd170 Cd 0.82793 0.17386 0.31882 0.0
O171 O 0.83397 0.19085 0.13556 0.0
Cd172 Cd 0.82193 0.15366 0.14857 0.0
C173 C 0.77935 0.17124 0.23359 0.0
O174 O 0.8402 0.14462 0.25785 0.0
O175 O 0.81552 0.12348 0.23147 0.0
O176 O 0.84841 0.14306 0.06309 0.0
C177 C 0.83005 0.12858 0.27508 0.0
O178 O 0.79135 0.1747 0.28859 0.0
C179 C 0.83694 0.13163 0.02295 0.0
O180 O 0.78629 0.16445 0.17164 0.0
O181 O 0.81776 0.13148 0.038 0.0
C182 C 0.54692 0.09184 0.9521 0.0
O183 O 0.54686 0.08934 0.02224 0.0
Cd184 Cd 0.57288 0.07467 0.09829 0.0
O185 O 0.56283 0.08793 0.91292 0.0
Cd186 Cd 0.59975 0.07896 0.93792 0.0
C187 C 0.58319 0.03128 0.98785 0.0
O188 O 0.60115 0.09352 0.05758 0.0
O189 O 0.62812 0.07537 0.03157 0.0
O190 O 0.60598 0.10996 0.86747 0.0
C191 C 0.61833 0.08636 0.07832 0.0
O192 O 0.57697 0.03983 0.04781 0.0
C193 C 0.61978 0.10233 0.8256 0.0
O194 O 0.59118 0.0419 0.93525 0.0
O195 O 0.62416 0.08316 0.8344 0.0
C196 C 0.66374 0.78328 0.59554 0.0
O197 O 0.6589 0.79042 0.65906 0.0
Cd198 Cd 0.64872 0.82417 0.69587 0.0
O199 O 0.66379 0.79475 0.53764 0.0
Cd200 Cd 0.65746 0.83278 0.51886 0.0
C201 C 0.69511 0.84491 0.644 0.0
O202 O 0.628 0.8357 0.59663 0.0
O203 O 0.64231 0.86482 0.5705 0.0
O204 O 0.63961 0.82561 0.40358 0.0
C205 C 0.62766 0.85527 0.60208 0.0
O206 O 0.68194 0.84149 0.69508 0.0
C207 C 0.64785 0.84039 0.36752 0.0
O208 O 0.69072 0.84163 0.5756 0.0
O209 O 0.66217 0.85045 0.40001 0.0
C210 C 0.95702 0.89538 0.37542 0.0
O211 O 0.95372 0.89209 0.444 0.0
Cd212 Cd 0.92289 0.89524 0.51282 0.0
O213 O 0.94242 0.90005 0.33077 0.0
Cd214 Cd 0.90406 0.90114 0.34617 0.0
C215 C 0.90652 0.9439 0.45333 0.0
O216 O 0.89935 0.87583 0.44316 0.0
O217 O 0.87451 0.89766 0.42874 0.0
O218 O 0.89848 0.87645 0.24729 0.0
C219 C 0.88152 0.88177 0.46194 0.0
O220 O 0.91223 0.93157 0.505 0.0
C221 C 0.88474 0.88696 0.21375 0.0
O222 O 0.90395 0.93742 0.38672 0.0
O223 O 0.88116 0.90518 0.23822 0.0
C224 C 0.66836 0.69759 0.65155 0.0
O225 O 0.66937 0.69552 0.72174 0.0
Cd226 Cd 0.66176 0.66629 0.79704 0.0
O227 O 0.66313 0.68241 0.6099 0.0
Cd228 Cd 0.65564 0.6452 0.63742 0.0
C229 C 0.70003 0.63561 0.72684 0.0
O230 O 0.63322 0.64972 0.74319 0.0
O231 O 0.64655 0.61927 0.72997 0.0
O232 O 0.62806 0.64429 0.54706 0.0
C233 C 0.63424 0.63106 0.76486 0.0
O234 O 0.69119 0.64384 0.7828 0.0
C235 C 0.6341 0.62783 0.51473 0.0
O236 O 0.69172 0.63605 0.66238 0.0
O237 O 0.65118 0.62014 0.53616 0.0
C238 C 0.54524 0.40359 0.86577 0.0
O239 O 0.55377 0.39954 0.92775 0.0
Cd240 Cd 0.58799 0.40654 0.96001 0.0
O241 O 0.55547 0.41146 0.81205 0.0
Cd242 Cd 0.59267 0.42002 0.78804 0.0
C243 C 0.58825 0.45889 0.91076 0.0
O244 O 0.6042 0.39127 0.8564 0.0
O245 O 0.62774 0.41422 0.84442 0.0
O246 O 0.58544 0.40256 0.67259 0.0
C247 C 0.62279 0.39614 0.86606 0.0
O248 O 0.58899 0.44456 0.95969 0.0
C249 C 0.59943 0.4115 0.63532 0.0
O250 O 0.58849 0.45454 0.84147 0.0
O251 O 0.60925 0.42612 0.66734 0.0
C252 C 0.84211 0.28869 0.19831 0.0
O253 O 0.84104 0.28953 0.26883 0.0
Cd254 Cd 0.82421 0.31516 0.34217 0.0
O255 O 0.83593 0.30375 0.15788 0.0
Cd256 Cd 0.8246 0.34031 0.1817 0.0
C257 C 0.77957 0.32005 0.23645 0.0
O258 O 0.83835 0.34651 0.30215 0.0
O259 O 0.81504 0.36861 0.26811 0.0
O260 O 0.85344 0.35201 0.10923 0.0
C261 C 0.82756 0.36235 0.31756 0.0
O262 O 0.78873 0.31534 0.29706 0.0
C263 C 0.84299 0.36383 0.06694 0.0
O264 O 0.78923 0.32821 0.18203 0.0
O265 O 0.82353 0.36418 0.07621 0.0
C266 C 0.95599 0.59384 0.39916 0.0
O267 O 0.95665 0.59471 0.46966 0.0
Cd268 Cd 0.93102 0.58547 0.55626 0.0
O269 O 0.93958 0.58865 0.36482 0.0
Cd270 Cd 0.90347 0.58354 0.40832 0.0
C271 C 0.91439 0.53789 0.4865 0.0
O272 O 0.90251 0.60495 0.51841 0.0
O273 O 0.87902 0.58133 0.51109 0.0
O274 O 0.89174 0.61126 0.32927 0.0
C275 C 0.88654 0.59673 0.54582 0.0
O276 O 0.92239 0.54895 0.53795 0.0
C277 C 0.8779 0.60082 0.29618 0.0
O278 O 0.90749 0.54622 0.42699 0.0
O279 O 0.87645 0.58164 0.31279 0.0
C280 C 0.62955 0.28547 0.26658 0.0
O281 O 0.63075 0.28564 0.19602 0.0
Cd282 Cd 0.64604 0.31153 0.11933 0.0
O283 O 0.635 0.3012 0.30514 0.0
Cd284 Cd 0.64609 0.33748 0.27713 0.0
C285 C 0.69124 0.31795 0.21929 0.0
O286 O 0.63133 0.34303 0.15704 0.0
O287 O 0.65575 0.36433 0.18667 0.0
O288 O 0.61877 0.35199 0.35244 0.0
C289 C 0.64243 0.35846 0.13944 0.0
O290 O 0.68204 0.31301 0.15897 0.0
C291 C 0.63051 0.36346 0.39152 0.0
O292 O 0.68149 0.32571 0.2743 0.0
O293 O 0.6498 0.36213 0.37961 0.0
C294 C 0.93004 0.38903 0.58056 0.0
O295 O 0.92031 0.38702 0.51959 0.0
Cd296 Cd 0.88763 0.40104 0.49469 0.0
O297 O 0.92181 0.39817 0.63622 0.0
Cd298 Cd 0.88675 0.41248 0.66548 0.0
C299 C 0.89711 0.45174 0.55072 0.0
O300 O 0.86898 0.38727 0.59624 0.0
O301 O 0.8511 0.41489 0.61082 0.0
O302 O 0.89099 0.39339 0.77935 0.0
C303 C 0.8518 0.39616 0.58889 0.0
O304 O 0.89304 0.43892 0.49855 0.0
C305 C 0.87946 0.40503 0.81819 0.0
O306 O 0.89697 0.44602 0.61858 0.0
O307 O 0.87253 0.42142 0.78744 0.0
C308 C 0.81584 0.69497 0.82897 0.0
O309 O 0.82008 0.68758 0.76522 0.0
Cd310 Cd 0.83064 0.65391 0.72827 0.0
O311 O 0.81654 0.68369 0.88738 0.0
Cd312 Cd 0.82319 0.6457 0.90632 0.0
C313 C 0.78548 0.63185 0.78379 0.0
O314 O 0.85231 0.64364 0.82703 0.0
O315 O 0.83966 0.61407 0.85684 0.0
O316 O 0.84016 0.65225 0.02356 0.0
C317 C 0.85355 0.62409 0.82294 0.0
O318 O 0.79798 0.63547 0.73078 0.0
C319 C 0.83169 0.63718 0.05738 0.0
O320 O 0.79041 0.63564 0.85126 0.0
O321 O 0.81767 0.62731 0.02269 0.0
C322 C 0.52157 0.5904 0.0753 0.0
O323 O 0.52784 0.59504 0.01048 0.0
Cd324 Cd 0.56136 0.59407 0.95943 0.0
O325 O 0.53413 0.5848 0.12632 0.0
Cd326 Cd 0.57248 0.58236 0.13433 0.0
C327 C 0.57416 0.54343 0.00823 0.0
O328 O 0.5807 0.61038 0.05246 0.0
O329 O 0.6057 0.58947 0.0754 0.0
O330 O 0.57278 0.60251 0.24716 0.0
C331 C 0.5994 0.6057 0.04249 0.0
O332 O 0.571 0.55739 0.95911 0.0
C333 C 0.58554 0.59093 0.28126 0.0
O334 O 0.57398 0.54782 0.07758 0.0
O335 O 0.59064 0.574 0.24962 0.0
C336 C 0.31151 0.28489 0.29752 0.0
O337 O 0.31183 0.28751 0.22747 0.0
Cd338 Cd 0.32077 0.31707 0.15548 0.0
O339 O 0.31593 0.29971 0.34198 0.0
Cd340 Cd 0.32394 0.33716 0.32044 0.0
C341 C 0.28147 0.34779 0.21874 0.0
O342 O 0.34778 0.3336 0.21869 0.0
O343 O 0.33478 0.36408 0.23479 0.0
O344 O 0.3503 0.33745 0.41519 0.0
C345 C 0.34716 0.3525 0.19943 0.0
O346 O 0.29113 0.3395 0.16471 0.0
C347 C 0.34372 0.35356 0.44836 0.0
O348 O 0.28865 0.34714 0.285 0.0
O349 O 0.32674 0.36119 0.4256 0.0
C350 C 0.43393 0.58295 0.08144 0.0
O351 O 0.42617 0.58656 0.0178 0.0
Cd352 Cd 0.39241 0.57945 0.97944 0.0
O353 O 0.42304 0.57544 0.13413 0.0
Cd354 Cd 0.38547 0.56712 0.15169 0.0
C355 C 0.391 0.52749 0.03288 0.0
O356 O 0.37461 0.59526 0.07824 0.0
O357 O 0.35111 0.57224 0.09007 0.0
O358 O 0.39023 0.58547 0.26688 0.0
C359 C 0.35617 0.59012 0.06674 0.0
O360 O 0.39092 0.54146 0.98259 0.0
C361 C 0.37603 0.57617 0.30198 0.0
O362 O 0.39013 0.53233 0.10166 0.0
O363 O 0.36732 0.56097 0.26928 0.0
C364 C 0.13665 0.69902 0.84696 0.0
O365 O 0.13276 0.69211 0.78221 0.0
Cd366 Cd 0.14169 0.65872 0.737 0.0
O367 O 0.14462 0.68732 0.89659 0.0
Cd368 Cd 0.15378 0.64971 0.90522 0.0
C369 C 0.19275 0.65948 0.78978 0.0
O370 O 0.1277 0.63576 0.82641 0.0
O371 O 0.15393 0.61573 0.84091 0.0
O372 O 0.13563 0.64929 0.02116 0.0
C373 C 0.13585 0.61817 0.81541 0.0
O374 O 0.17956 0.65864 0.7371 0.0
C375 C 0.14799 0.63699 0.05388 0.0
O376 O 0.18727 0.65797 0.85756 0.0
O377 O 0.16419 0.63169 0.01898 0.0
C378 C 0.01464 0.38145 0.52137 0.0
O379 O 0.01595 0.38256 0.451 0.0
Cd380 Cd 0.04473 0.392 0.37772 0.0
O381 O 0.03029 0.38464 0.56286 0.0
Cd382 Cd 0.06728 0.39096 0.5352 0.0
C383 C 0.05766 0.43791 0.46348 0.0
O384 O 0.07159 0.37097 0.42305 0.0
O385 O 0.09406 0.39511 0.44118 0.0
O386 O 0.07967 0.36468 0.62126 0.0
C387 C 0.08807 0.37973 0.40267 0.0
O388 O 0.05263 0.42849 0.40369 0.0
C389 C 0.09216 0.37668 0.65482 0.0
O390 O 0.06176 0.42791 0.52287 0.0
O391 O 0.09214 0.39569 0.63554 0.0
C392 C 0.33862 0.6998 0.66749 0.0
O393 O 0.34034 0.69878 0.7378 0.0
Cd394 Cd 0.32806 0.67226 0.81736 0.0
O395 O 0.33183 0.68445 0.62965 0.0
Cd396 Cd 0.32357 0.64721 0.6577 0.0
C397 C 0.27994 0.66382 0.73427 0.0
O398 O 0.34211 0.6417 0.77051 0.0
O399 O 0.31768 0.61966 0.74998 0.0
O400 O 0.3509 0.63558 0.57803 0.0
C401 C 0.33216 0.62588 0.7919 0.0
O402 O 0.29152 0.66945 0.78815 0.0
C403 C 0.33999 0.62304 0.54017 0.0
O404 O 0.28747 0.65615 0.67469 0.0
O405 O 0.32075 0.62254 0.55407 0.0
C406 C 0.03702 0.5875 0.40383 0.0
O407 O 0.03584 0.58699 0.47436 0.0
Cd408 Cd 0.05989 0.57304 0.55997 0.0
O409 O 0.05319 0.58165 0.36956 0.0
Cd410 Cd 0.08893 0.57207 0.40737 0.0
C411 C 0.06953 0.52663 0.46614 0.0
O412 O 0.08974 0.58984 0.52189 0.0
O413 O 0.11519 0.56864 0.50763 0.0
O414 O 0.09795 0.60149 0.33469 0.0
C415 C 0.10612 0.58205 0.54775 0.0
O416 O 0.06285 0.53684 0.522 0.0
C417 C 0.1118 0.59267 0.29625 0.0
O418 O 0.07885 0.53561 0.41259 0.0
O419 O 0.11489 0.57334 0.30767 0.0
C420 C 0.16959 0.29008 0.10757 0.0
O421 O 0.16593 0.29658 0.173 0.0
Cd422 Cd 0.15342 0.32907 0.21438 0.0
O423 O 0.16706 0.30174 0.05084 0.0
Cd424 Cd 0.15772 0.33929 0.03816 0.0
C425 C 0.19654 0.35397 0.15408 0.0
O426 O 0.12951 0.33835 0.12153 0.0
O427 O 0.1404 0.3691 0.09778 0.0
O428 O 0.13878 0.33105 0.92637 0.0
C429 C 0.12713 0.35769 0.12942 0.0
O430 O 0.18458 0.34965 0.20801 0.0
C431 C 0.14452 0.34705 0.89068 0.0
O432 O 0.1912 0.35031 0.08685 0.0
O433 O 0.15812 0.35849 0.92118 0.0
C434 C 0.45765 0.39565 0.88007 0.0
O435 O 0.45182 0.39154 0.94588 0.0
Cd436 Cd 0.41862 0.39224 -0.00096 0.0
O437 O 0.44472 0.40046 0.8292 0.0
Cd438 Cd 0.4063 0.40202 0.82408 0.0
C439 C 0.4047 0.44213 0.94501 0.0
O440 O 0.39934 0.37447 0.90933 0.0
O441 O 0.37381 0.39483 0.88782 0.0
O442 O 0.40544 0.38089 0.71354 0.0
C443 C 0.38064 0.37883 0.92078 0.0
O444 O 0.4083 0.4287 -0.00438 0.0
C445 C 0.39212 0.3919 0.67977 0.0
O446 O 0.40461 0.43706 0.87626 0.0
O447 O 0.38696 0.409 0.71012 0.0
C448 C 0.24879 0.12889 0.33228 0.0
C449 C 0.26324 0.1303 0.27453 0.0
H450 H 0.21705 0.13066 0.36272 0.0
C451 C 0.25619 0.1303 0.20026 0.0
H452 H 0.25368 0.12844 0.38997 0.0
C453 C 0.23513 0.13165 0.18454 0.0
C454 C 0.22086 0.13298 0.24291 0.0
H455 H 0.26695 0.13099 0.15428 0.0
H456 H 0.23024 0.13347 0.12719 0.0
C457 C 0.22777 0.13021 0.31657 0.0
C458 C 0.0758 -0.00662 0.5622 0.0
C459 C 0.07888 0.98488 0.49094 0.0
H460 H 0.07084 0.02065 0.6274 0.0
C461 C 0.08 -0.00173 0.42937 0.0
H462 H 0.07505 0.9835 0.61096 0.0
C463 C 0.07741 0.01972 0.43884 0.0
C464 C 0.0739 0.02812 0.51013 0.0
H465 H 0.08236 0.99215 0.37383 0.0
H466 H 0.07801 0.02969 0.3903 0.0
C467 C 0.07342 0.01472 0.57172 0.0
C468 C 0.22166 0.82491 0.67398 0.0
C469 C 0.21743 0.82583 0.75074 0.0
H470 H 0.24467 0.82429 0.58887 0.0
C471 C 0.23398 0.82599 0.80134 0.0
H472 H 0.20928 0.82471 0.63338 0.0
C473 C 0.25429 0.82571 0.77571 0.0
C474 C 0.25852 0.8253 0.69889 0.0
H475 H 0.23128 0.82662 0.86078 0.0
H476 H 0.26668 0.82615 0.81628 0.0
C477 C 0.24197 0.82467 0.64835 0.0
C478 C 0.41139 0.00768 0.0476 0.0
C479 C 0.4142 0.01866 0.98068 0.0
H480 H 0.40567 0.97817 0.09897 0.0
C481 C 0.41353 0.0078 0.91293 0.0
H482 H 0.41169 0.01568 0.1007 0.0
C483 C 0.41025 0.98638 0.91205 0.0
C484 C 0.40728 0.97539 0.97882 0.0
H485 H 0.41564 0.01582 0.86048 0.0
H486 H 0.40988 0.97845 0.8588 0.0
C487 C 0.4078 0.98625 0.04665 0.0
C488 C 0.74302 0.84952 0.76265 0.0
C489 C 0.75846 0.84873 0.70812 0.0
H490 H 0.71068 0.84925 0.78505 0.0
C491 C 0.75281 0.85055 0.63268 0.0
H492 H 0.74688 0.84838 0.82122 0.0
C493 C 0.73209 0.85098 0.6118 0.0
C494 C 0.71659 0.84964 0.66597 0.0
H495 H 0.76437 0.85041 0.58923 0.0
H496 H 0.72827 0.85106 0.55304 0.0
C497 C 0.72226 0.84999 0.74175 0.0
C498 C 0.90238 0.97243 0.54703 0.0
C499 C 0.90227 0.96588 0.47222 0.0
H500 H 0.89855 -0.00235 0.62356 0.0
C501 C 0.8977 0.98043 0.41632 0.0
H502 H 0.9057 0.96159 0.59162 0.0
C503 C 0.8936 0.00113 0.43476 0.0
C504 C 0.89387 0.00771 0.50953 0.0
H505 H 0.8974 0.97589 0.35824 0.0
H506 H 0.89032 0.012 0.3902 0.0
C507 C 0.89816 -0.00691 0.56549 0.0
C508 C 0.72864 0.17909 0.33217 0.0
C509 C 0.71455 0.17093 0.28048 0.0
H510 H 0.76003 0.18604 0.35722 0.0
C511 C 0.72163 0.16505 0.20952 0.0
H512 H 0.72365 0.18405 0.3869 0.0
C513 C 0.74264 0.16612 0.19236 0.0
C514 C 0.75688 0.17319 0.24578 0.0
H515 H 0.7111 0.1588 0.16828 0.0
H516 H 0.74778 0.1606 0.13851 0.0
C517 C 0.74954 0.18028 0.31494 0.0
C518 C 0.57834 -0.00381 0.04353 0.0
C519 C 0.58042 0.00865 0.97973 0.0
H520 H 0.57323 0.96573 0.0872 0.0
C521 C 0.57894 -0.00059 0.9091 0.0
H522 H 0.57948 0.00289 0.09875 0.0
C523 C 0.57501 0.97811 0.90251 0.0
C524 C 0.57288 0.96569 0.96646 0.0
H525 H 0.58037 0.00868 0.85906 0.0
H526 H 0.57378 0.97136 0.8474 0.0
C527 C 0.57478 0.97491 0.03696 0.0
C528 C 0.72864 0.62414 0.80921 0.0
C529 C 0.72137 0.6283 0.73696 0.0
H530 H 0.75486 0.62156 0.88069 0.0
C531 C 0.73542 0.62892 0.67775 0.0
H532 H 0.71807 0.6231 0.85571 0.0
C533 C 0.7566 0.62804 0.69212 0.0
C534 C 0.7639 0.62653 0.76584 0.0
H535 H 0.73021 0.63192 0.62142 0.0
H536 H 0.76716 0.63028 0.64619 0.0
C537 C 0.74973 0.62324 0.82355 0.0
C538 C 0.58291 0.49673 0.8834 0.0
C539 C 0.58576 0.48071 0.9355 0.0
H540 H 0.57694 0.52901 0.8654 0.0
C541 C 0.5852 0.48556 0.0119 0.0
H542 H 0.58323 0.49354 0.82418 0.0
C543 C 0.58153 0.50591 0.03566 0.0
C544 C 0.57832 0.52187 0.98355 0.0
H545 H 0.58736 0.47359 0.05363 0.0
H546 H 0.58105 0.50908 0.09487 0.0
C547 C 0.57922 0.51707 0.90715 0.0
C548 C 0.7238 0.31565 0.29282 0.0
C549 C 0.71381 0.31611 0.22347 0.0
H550 H 0.75254 0.31617 0.35116 0.0
C551 C 0.72565 0.31628 0.15804 0.0
H552 H 0.71502 0.31538 0.34407 0.0
C553 C 0.74712 0.31705 0.16202 0.0
C554 C 0.75709 0.31727 0.23148 0.0
H555 H 0.71832 0.31669 0.10377 0.0
H556 H 0.75589 0.31786 0.11084 0.0
C557 C 0.74526 0.31602 0.29679 0.0
C558 C 0.89866 0.48155 0.46079 0.0
C559 C 0.90238 0.47348 0.53235 0.0
H560 H 0.89958 0.50831 0.3898 0.0
C561 C 0.9112 0.48641 0.58677 0.0
H562 H 0.89194 0.47193 0.41757 0.0
C563 C 0.9158 0.50707 0.57065 0.0
C564 C 0.91149 0.5154 0.49991 0.0
H565 H 0.91448 0.48062 0.64218 0.0
H566 H 0.92227 0.51665 0.61452 0.0
C567 C 0.90308 0.50237 0.44481 0.0
C568 C 0.25377 0.3583 0.13011 0.0
C569 C 0.26048 0.35567 0.20408 0.0
H570 H 0.22805 0.36032 0.05598 0.0
C571 C 0.24614 0.35757 0.26201 0.0
H572 H 0.26456 0.35746 0.08426 0.0
C573 C 0.22514 0.35933 0.24572 0.0
C574 C 0.21823 0.35916 0.17128 0.0
H575 H 0.25089 0.35594 0.31958 0.0
H576 H 0.21429 0.35905 0.29146 0.0
C577 C 0.23282 0.36004 0.11383 0.0
C578 C 0.3959 0.48987 0.06443 0.0
C579 C 0.39337 0.50547 0.01053 0.0
H580 H 0.40154 0.45771 0.08609 0.0
C581 C 0.39405 0.49998 0.93471 0.0
H582 H 0.39547 0.49356 0.12327 0.0
C583 C 0.39756 0.47941 0.91328 0.0
C584 C 0.40052 0.46388 0.9672 0.0
H585 H 0.39211 0.51162 0.89167 0.0
H586 H 0.39818 0.47574 0.85445 0.0
C587 C 0.39947 0.46931 0.04301 0.0
C588 C 0.2494 0.67017 0.81476 0.0
C589 C 0.25739 0.66469 0.74477 0.0
H590 H 0.22279 0.67272 0.88369 0.0
C591 C 0.24374 0.65869 0.68776 0.0
H592 H 0.25944 0.67495 0.85995 0.0
C593 C 0.22255 0.65755 0.70147 0.0
C594 C 0.21477 0.66214 0.77259 0.0
H595 H 0.24943 0.65443 0.63319 0.0
H596 H 0.21237 0.65244 0.65718 0.0
C597 C 0.22836 0.6688 0.82861 0.0
C598 C 0.0592 0.4718 0.53045 0.0
C599 C 0.0598 0.4607 0.46322 0.0
H600 H 0.0617 0.50136 0.58383 0.0
C601 C 0.06342 0.47144 0.39639 0.0
H602 H 0.05642 0.46391 0.58275 0.0
C603 C 0.0668 0.4929 0.39708 0.0
C604 C 0.06623 0.50397 0.46446 0.0
H605 H 0.0641 0.46322 0.34379 0.0
H606 H 0.06972 0.50082 0.34495 0.0
C607 C 0.06221 0.49324 0.53099 0.0
C608 C 0.10568 0.14064 0.91676 0.0
C609 C 0.12292 0.12945 0.94244 0.0
H610 H 0.07979 0.14138 0.84287 0.0
C611 C 0.12662 0.10941 0.91425 0.0
H612 H 0.10229 0.15604 0.93799 0.0
C613 C 0.11352 0.10087 0.86045 0.0
C614 C 0.09655 0.11228 0.83358 0.0
H615 H 0.13964 0.10031 0.93372 0.0
H616 H 0.11702 0.08558 0.83849 0.0
C617 C 0.09266 0.13216 0.86278 0.0
C618 C 0.12904 0.85168 0.16011 0.0
C619 C 0.14544 0.8601 0.11933 0.0
H620 H 0.10656 0.85642 0.24474 0.0
C621 C 0.15279 0.88005 0.13768 0.0
H622 H 0.12305 0.83636 0.1472 0.0
C623 C 0.14306 0.8918 0.19321 0.0
C624 C 0.126 0.88367 0.23144 0.0
H625 H 0.1653 0.887 0.10656 0.0
H626 H 0.14858 0.90737 0.20492 0.0
C627 C 0.11948 0.86328 0.21564 0.0
C628 C 0.35903 0.85494 0.23318 0.0
C629 C 0.35345 0.87546 0.21515 0.0
H630 H 0.35404 0.8288 0.30429 0.0
C631 C 0.33663 0.88468 0.25178 0.0
H632 H 0.37177 0.8473 0.20541 0.0
C633 C 0.32617 0.87384 0.30773 0.0
C634 C 0.33255 0.85375 0.32835 0.0
H635 H 0.33183 0.90038 0.23832 0.0
H636 H 0.31386 0.88162 0.33746 0.0
C637 C 0.34877 0.84425 0.28941 0.0
C638 C 0.35768 0.10295 0.70108 0.0
C639 C 0.37411 0.1145 0.73113 0.0
H640 H 0.33279 0.10211 0.6226 0.0
C641 C 0.3771 0.13509 0.70745 0.0
H642 H 0.35482 0.08713 0.71903 0.0
C643 C 0.36443 0.14369 0.65258 0.0
C644 C 0.34843 0.13192 0.62066 0.0
H645 H 0.38948 0.14446 0.73022 0.0
H646 H 0.36757 0.15936 0.6336 0.0
C647 C 0.34489 0.11162 0.64655 0.0
C648 C 0.84243 0.87794 0.07134 0.0
C649 C 0.8473 0.85786 0.04577 0.0
H650 H 0.85073 0.90315 0.14366 0.0
C651 C 0.86463 0.84763 0.07532 0.0
H652 H 0.82928 0.8863 0.04898 0.0
C653 C 0.87698 0.85732 0.12865 0.0
C654 C 0.87232 0.8775 0.15361 0.0
H655 H 0.86889 0.83221 0.05644 0.0
H656 H 0.8902 0.84895 0.15034 0.0
C657 C 0.85486 0.8877 0.12475 0.0
C658 C 0.83437 0.10259 0.92987 0.0
C659 C 0.84594 0.11844 0.96405 0.0
H660 H 0.83383 0.07836 0.84771 0.0
C661 C 0.86669 0.12109 0.94384 0.0
H662 H 0.81842 0.1 0.94514 0.0
C663 C 0.87549 0.1087 0.88867 0.0
C664 C 0.86381 0.09324 0.85296 0.0
H665 H 0.87609 0.13301 0.9697 0.0
H666 H 0.89132 0.11162 0.8726 0.0
C667 C 0.84327 0.09 0.875 0.0
C668 C 0.62118 0.13478 0.75011 0.0
C669 C 0.62968 0.1153 0.76815 0.0
H670 H 0.62156 0.16082 0.67604 0.0
C671 C 0.64718 0.1083 0.7296 0.0
H672 H 0.6078 0.1407 0.77927 0.0
C673 C 0.65538 0.12013 0.67143 0.0
C674 C 0.64595 0.13894 0.65027 0.0
H675 H 0.65418 0.09345 0.74298 0.0
H676 H 0.66825 0.11392 0.6401 0.0
C677 C 0.62914 0.1464 0.69135 0.0
C678 C 0.62289 0.83613 0.26273 0.0
C679 C 0.63864 0.84772 0.29708 0.0
H680 H 0.59859 0.83578 0.18197 0.0
C681 C 0.64308 0.86776 0.27049 0.0
H682 H 0.61912 0.82064 0.28201 0.0
C683 C 0.6311 0.87656 0.2139 0.0
C684 C 0.61461 0.86539 0.18249 0.0
H685 H 0.65506 0.87711 0.29606 0.0
H686 H 0.63441 0.89232 0.19628 0.0
C687 C 0.61103 0.84487 0.20579 0.0
C688 C 0.62696 0.5984 0.42689 0.0
C689 C 0.62122 0.61767 0.4575 0.0
H690 H 0.61978 0.57445 0.34807 0.0
C691 C 0.60259 0.62691 0.43491 0.0
H692 H 0.6411 0.59077 0.44403 0.0
C693 C 0.59033 0.6175 0.3807 0.0
C694 C 0.5964 0.59862 0.34803 0.0
H695 H 0.59761 0.64163 0.4582 0.0
H696 H 0.57641 0.62539 0.3627 0.0
C697 C 0.61462 0.58893 0.3727 0.0
C698 C 0.59337 0.38845 0.52622 0.0
C699 C 0.60622 0.40253 0.56401 0.0
H700 H 0.59099 0.36506 0.44204 0.0
C701 C 0.62673 0.40496 0.54049 0.0
H702 H 0.5775 0.38623 0.54331 0.0
C703 C 0.6346 0.3925 0.48339 0.0
C704 C 0.622 0.37763 0.44833 0.0
H705 H 0.63704 0.41557 0.56911 0.0
H706 H 0.65067 0.39414 0.46808 0.0
C707 C 0.60115 0.3762 0.46864 0.0
C708 C 0.85188 0.40321 0.91413 0.0
C709 C 0.87178 0.3977 0.89044 0.0
H710 H 0.82689 0.3964 0.98807 0.0
C711 C 0.88274 0.38231 0.92929 0.0
H712 H 0.84302 0.41489 0.88456 0.0
C713 C 0.87357 0.37183 0.98845 0.0
C714 C 0.85315 0.37631 0.00894 0.0
H715 H 0.89809 0.37776 0.91194 0.0
H716 H 0.8822 0.35959 0.01597 0.0
C717 C 0.84255 0.39245 0.97261 0.0
C718 C 0.86739 0.63166 0.2212 0.0
C719 C 0.86426 0.61075 0.24084 0.0
H720 H 0.85911 0.65664 0.14857 0.0
C721 C 0.84827 0.59954 0.20653 0.0
H722 H 0.87941 0.64082 0.24745 0.0
C723 C 0.8364 0.60876 0.15047 0.0
C724 C 0.84048 0.62925 0.12753 0.0
H725 H 0.84532 0.58349 0.22137 0.0
H726 H 0.82485 0.59943 0.12233 0.0
C727 C 0.85565 0.64081 0.16497 0.0
C728 C 0.37481 0.35466 0.53018 0.0
C729 C 0.35616 0.36372 0.50683 0.0
H730 H 0.40107 0.35677 0.60185 0.0
C731 C 0.35026 0.38304 0.53658 0.0
H732 H 0.37993 0.33991 0.50761 0.0
C733 C 0.36257 0.39288 0.59002 0.0
C734 C 0.38094 0.3835 0.6148 0.0
H735 H 0.3361 0.39052 0.51884 0.0
H736 H 0.35735 0.40747 0.6136 0.0
C737 C 0.38706 0.36444 0.58362 0.0
C738 C 0.33816 0.59382 0.44778 0.0
C739 C 0.34956 0.6095 0.48361 0.0
H740 H 0.33791 0.57033 0.36303 0.0
C741 C 0.37047 0.61213 0.46552 0.0
H742 H 0.3221 0.59125 0.46145 0.0
C743 C 0.3795 0.60015 0.40976 0.0
C744 C 0.36787 0.58517 0.37133 0.0
H745 H 0.37975 0.62389 0.49284 0.0
H746 H 0.39538 0.6032 0.39472 0.0
C747 C 0.34729 0.58165 0.39226 0.0
C748 C 0.12671 0.6364 0.16807 0.0
C749 C 0.14195 0.62706 0.12412 0.0
H750 H 0.10536 0.63285 0.25702 0.0
C751 C 0.14872 0.60684 0.14134 0.0
H752 H 0.12126 0.65198 0.15599 0.0
C753 C 0.13931 0.59563 0.1987 0.0
C754 C 0.12323 0.60463 0.2399 0.0
H755 H 0.16036 0.59924 0.10773 0.0
H756 H 0.14416 0.57977 0.20916 0.0
C757 C 0.11752 0.62535 0.22563 0.0
C758 C 0.10529 0.34796 0.73558 0.0
C759 C 0.10653 0.36873 0.71188 0.0
H760 H 0.1167 0.32465 0.8099 0.0
C761 C 0.12188 0.38167 0.74209 0.0
H762 H 0.09378 0.33754 0.71267 0.0
C763 C 0.13524 0.37419 0.79704 0.0
C764 C 0.13337 0.35368 0.8231 0.0
H765 H 0.12338 0.39768 0.72414 0.0
H766 H 0.14642 0.38475 0.82126 0.0
C767 C 0.11854 0.34052 0.7908 0.0
C768 C 0.18876 0.25969 0.15382 0.0
C769 C 0.17562 0.2682 0.09976 0.0
H770 H 0.19832 0.23228 0.21125 0.0
C771 C 0.16501 0.25494 0.05073 0.0
H772 H 0.19725 0.26968 0.19167 0.0
C773 C 0.16555 0.23338 0.06216 0.0
C774 C 0.17668 0.22515 0.12265 0.0
H775 H 0.15473 0.26127 0.00883 0.0
H776 H 0.15572 0.22347 0.0286 0.0
C777 C 0.18932 0.23832 0.16511 0.0
C778 C 0.98791 0.91354 0.32642 0.0
C779 C 0.97858 0.89511 0.35129 0.0
H780 H 0.01593 0.93136 0.32391 0.0
C781 C -0.00903 0.87846 0.37474 0.0
H782 H 0.97854 0.92665 0.3092 0.0
C783 C 0.01214 0.88115 0.3831 0.0
C784 C 0.02113 0.90047 0.36789 0.0
H785 H 0.98401 0.86418 0.3945 0.0
H786 H 0.0211 0.86887 0.40904 0.0
C787 C 0.00924 0.91624 0.33491 0.0
C788 C 0.32762 0.75006 0.56916 0.0
C789 C 0.34149 0.76315 0.607 0.0
H790 H 0.31601 0.7189 0.55821 0.0
C791 C 0.35735 0.75425 0.64983 0.0
H792 H 0.31527 0.75656 0.53568 0.0
C793 C 0.35773 0.73293 0.66271 0.0
C794 C 0.34236 0.72011 0.63256 0.0
H795 H 0.36849 0.76396 0.6785 0.0
H796 H 0.36905 0.72672 0.70129 0.0
C797 C 0.32807 0.72854 0.58189 0.0
C798 C 0.49515 0.08539 0.86652 0.0
C799 C 0.48459 0.10095 0.90589 0.0
H800 H 0.52441 0.07048 0.84945 0.0
C801 C 0.49578 0.11679 0.94127 0.0
H802 H 0.48672 0.07288 0.83978 0.0
C803 C 0.51713 0.11536 0.94718 0.0
C804 C 0.52747 0.09814 0.91732 0.0
H805 H 0.48785 0.12887 0.97218 0.0
H806 H 0.52524 0.12639 0.98231 0.0
C807 C 0.51667 0.084 0.87219 0.0
C808 C 0.12128 0.75443 0.81358 0.0
C809 C 0.13523 0.76515 0.85962 0.0
H810 H 0.11055 0.725 0.77471 0.0
C811 C 0.14701 0.75391 0.91167 0.0
H812 H 0.11167 0.76269 0.77397 0.0
C813 C 0.1463 0.73212 0.91224 0.0
C814 C 0.13383 0.72145 0.86069 0.0
H815 H 0.15781 0.76181 0.94808 0.0
H816 H 0.1566 0.7237 0.94901 0.0
C817 C 0.12061 0.73282 0.81404 0.0
C818 C 0.46925 0.86848 0.02465 0.0
C819 C 0.45915 0.88596 0.05378 0.0
H820 H 0.49819 0.85543 -0.00793 0.0
C821 C 0.47062 0.90117 0.09171 0.0
H822 H 0.46064 0.85666 -0.00521 0.0
C823 C 0.49222 0.9005 0.08994 0.0
C824 C 0.50222 0.88454 0.05071 0.0
H825 H 0.46309 0.91492 0.1136 0.0
H826 H 0.50087 0.91373 0.11053 0.0
C827 C 0.49071 0.86777 0.02312 0.0
C828 C 0.29571 0.22918 0.29262 0.0
C829 C 0.30892 0.22056 0.34626 0.0
H830 H 0.28583 0.25669 0.23661 0.0
C831 C 0.3196 0.23375 0.39536 0.0
H832 H 0.28716 0.21926 0.2547 0.0
C833 C 0.3189 0.25537 0.38479 0.0
C834 C 0.30753 0.26373 0.32509 0.0
H835 H 0.32995 0.22735 0.43691 0.0
H836 H 0.32869 0.26526 0.41858 0.0
C837 C 0.29499 0.25057 0.2822 0.0
C838 C 0.96179 0.10751 0.53104 0.0
C839 C 0.95252 0.09364 0.58109 0.0
H840 H -0.01025 0.1203 0.48933 0.0
C841 C 0.96472 0.08395 0.63587 0.0
H842 H 0.95273 0.11559 0.48929 0.0
C843 C 0.98618 0.08677 0.63602 0.0
C844 C -0.00452 0.09926 0.58138 0.0
H845 H 0.95789 0.07327 0.67534 0.0
H846 H -0.00446 0.07813 0.67539 0.0
C847 C 0.98301 0.11027 0.53116 0.0
C848 C 0.80068 0.72631 0.77178 0.0
C849 C 0.81068 0.71722 0.83296 0.0
H850 H 0.79329 0.75427 0.71401 0.0
C851 C 0.81822 0.73 0.8904 0.0
H852 H 0.79441 0.71676 0.72739 0.0
C853 C 0.81761 0.75172 0.88262 0.0
C854 C 0.80945 0.76063 0.8174 0.0
H855 H 0.82599 0.72327 0.93813 0.0
H856 H 0.8249 0.76137 0.92454 0.0
C857 C 0.80006 0.74777 0.76411 0.0
C858 C 0.63649 0.23764 0.38357 0.0
C859 C 0.62556 0.22314 0.3401 0.0
H860 H 0.64606 0.26945 0.39454 0.0
C861 C 0.61211 0.23043 0.28442 0.0
H862 H 0.64689 0.23248 0.42711 0.0
C863 C 0.61176 0.25142 0.2656 0.0
C864 C 0.62465 0.26554 0.30273 0.0
H865 H 0.60314 0.21968 0.25097 0.0
H866 H 0.60265 0.25631 0.21805 0.0
C867 C 0.63599 0.25881 0.36502 0.0
C868 C 0.86355 0.25703 0.19835 0.0
C869 C 0.84767 0.26858 0.16515 0.0
H870 H 0.87465 0.22672 0.22587 0.0
C871 C 0.83377 0.25859 0.11678 0.0
H872 H 0.8745 0.26447 0.23547 0.0
C873 C 0.83374 0.23683 0.11165 0.0
C874 C 0.84765 0.22515 0.15476 0.0
H875 H 0.82134 0.26725 0.09087 0.0
H876 H 0.82125 0.22923 0.08212 0.0
C877 C 0.86362 0.23544 0.19278 0.0
C878 C 0.66002 0.72587 0.56011 0.0
C879 C 0.67169 0.71852 0.62076 0.0
H880 H 0.64844 0.75296 0.50336 0.0
C881 C 0.68412 0.73247 0.66088 0.0
H882 H 0.65033 0.71537 0.52836 0.0
C883 C 0.68301 0.75367 0.64672 0.0
C884 C 0.6696 0.76129 0.59189 0.0
H885 H 0.69353 0.72715 0.70707 0.0
H886 H 0.69147 0.76426 0.68252 0.0
C887 C 0.65896 0.74729 0.5457 0.0
C888 C 0.51392 0.38522 0.90803 0.0
C889 C 0.52302 0.39933 0.85847 0.0
H890 H 0.48614 0.3728 0.95237 0.0
C891 C 0.51047 0.41026 0.8079 0.0
H892 H 0.52322 0.37621 0.94654 0.0
C893 C 0.48895 0.40824 0.8112 0.0
C894 C 0.47994 0.3953 0.86511 0.0
H895 H 0.51716 0.42115 0.76885 0.0
H896 H 0.47941 0.41764 0.77477 0.0
C897 C 0.49266 0.38324 0.91133 0.0
C898 C 0.98754 0.61392 0.38002 0.0
C899 C 0.97552 0.59668 0.36 0.0
H900 H 0.01781 0.62453 0.40782 0.0
C901 C 0.98504 0.5792 0.32823 0.0
H902 H 0.9804 0.62754 0.40467 0.0
C903 C 0.00655 0.57749 0.32995 0.0
C904 C 0.01832 0.59328 0.36328 0.0
H905 H 0.97598 0.56568 0.31303 0.0
H906 H 0.01358 0.5627 0.31584 0.0
C907 C 0.00893 0.6122 0.38189 0.0
C908 C 0.96625 0.39279 0.62786 0.0
C909 C 0.95181 0.38252 0.58232 0.0
H910 H -0.00178 0.40023 0.64442 0.0
C911 C 0.9588 0.36829 0.52867 0.0
H912 H 0.96123 0.40376 0.66989 0.0
C913 C 0.97975 0.36636 0.51413 0.0
C914 C -0.00593 0.37848 0.5534 0.0
H915 H 0.94801 0.35982 0.49387 0.0
H916 H 0.98463 0.35656 0.46827 0.0
C917 C 0.98738 0.39074 0.61345 0.0
C918 C 0.46555 0.60157 0.04399 0.0
C919 C 0.45605 0.58724 0.09173 0.0
H920 H 0.49369 0.61399 0.00272 0.0
C921 C 0.46819 0.57598 0.14262 0.0
H922 H 0.45655 0.61081 0.0053 0.0
C923 C 0.48975 0.57784 0.14115 0.0
C924 C 0.4992 0.59096 0.08878 0.0
H925 H 0.46118 0.5649 0.18023 0.0
H926 H 0.49898 0.56815 0.17764 0.0
C927 C 0.48685 0.6034 0.04252 0.0
C928 C 0.13024 0.11462 0.35851 0.0
C929 C 0.12366 0.13271 0.32173 0.0
H930 H 0.12684 0.095 0.45354 0.0
C931 C 0.10871 0.1455 0.35474 0.0
H932 H 0.14197 0.10465 0.33462 0.0
C933 C 0.10003 0.13996 0.42269 0.0
C934 C 0.10639 0.12171 0.45893 0.0
H935 H 0.10353 0.15962 0.32758 0.0
H936 H 0.08812 0.14977 0.44628 0.0
C937 C 0.12179 0.10925 0.42697 0.0
C938 C 0.1047 0.88431 0.65877 0.0
C939 C 0.11802 0.89623 0.61455 0.0
H940 H 0.10112 0.86637 0.75762 0.0
C941 C 0.13779 0.90117 0.64132 0.0
H942 H 0.08922 0.88059 0.64025 0.0
C943 C 0.1446 0.89304 0.70927 0.0
C944 C 0.13167 0.87992 0.75077 0.0
H945 H 0.14825 0.91053 0.60848 0.0
H946 H 0.16029 0.89606 0.72704 0.0
C947 C 0.11145 0.87628 0.72627 0.0
C948 C 0.33819 0.89684 0.80961 0.0
C949 C 0.35893 0.89349 0.82884 0.0
H950 H 0.3143 0.89089 0.72952 0.0
C951 C 0.37242 0.88482 0.77626 0.0
H952 H 0.32758 0.9037 0.84914 0.0
C953 C 0.36499 0.87785 0.70822 0.0
C954 C 0.34391 0.87925 0.69168 0.0
H955 H 0.3886 0.88248 0.78892 0.0
H956 H 0.37551 0.87003 0.67062 0.0
C957 C 0.33067 0.88969 0.7411 0.0
C958 C 0.36528 0.09629 0.14429 0.0
C959 C 0.38114 0.10816 0.11249 0.0
H960 H 0.34426 0.09306 0.23519 0.0
C961 C 0.38898 0.12543 0.15108 0.0
H962 H 0.35917 0.08274 0.11596 0.0
C963 C 0.38056 0.13124 0.21903 0.0
C964 C 0.36426 0.11983 0.24974 0.0
H965 H 0.40133 0.13474 0.12807 0.0
H966 H 0.3864 0.14506 0.24651 0.0
C967 C 0.35696 0.10201 0.21285 0.0
C968 C 0.87992 0.85651 0.56632 0.0
C969 C 0.87239 0.87457 0.53187 0.0
H970 H 0.87781 0.83597 0.65947 0.0
C971 C 0.85701 0.88637 0.56712 0.0
H972 H 0.89189 0.84723 0.54042 0.0
C973 C 0.84925 0.88015 0.63578 0.0
C974 C 0.85655 0.86189 0.66962 0.0
H975 H 0.85111 0.9005 0.54209 0.0
H976 H 0.83721 0.88938 0.6614 0.0
C977 C 0.87199 0.85016 0.63454 0.0
C978 C 0.82604 0.099 0.36476 0.0
C979 C 0.83214 0.11953 0.34964 0.0
H980 H 0.82773 0.07361 0.44228 0.0
C981 C 0.84121 0.13149 0.40619 0.0
H982 H 0.81879 0.08959 0.32203 0.0
C983 C 0.84564 0.12269 0.47471 0.0
C984 C 0.84156 0.10161 0.48755 0.0
H985 H 0.84574 0.14748 0.39675 0.0
H986 H 0.85376 0.13198 0.51577 0.0
C987 C 0.83087 0.08997 0.43362 0.0
C988 C 0.65258 0.0982 0.24232 0.0
C989 C 0.63773 0.10547 0.29305 0.0
H990 H 0.65792 0.08624 0.13233 0.0
C991 C 0.61676 0.10229 0.27814 0.0
H992 H 0.66888 0.10056 0.2527 0.0
C993 C 0.61058 0.09446 0.20965 0.0
C994 C 0.62529 0.08951 0.15524 0.0
H995 H 0.60508 0.10761 0.31683 0.0
H996 H 0.59423 0.09364 0.19763 0.0
C997 C 0.64634 0.09018 0.17339 0.0
C998 C 0.62452 0.88214 0.70133 0.0
C999 C 0.61639 0.86477 0.66403 0.0
H1000 H 0.62336 0.90122 0.7989 0.0
C1001 C 0.59922 0.85445 0.69357 0.0
H1002 H 0.63787 0.89028 0.67989 0.0
C1003 C 0.59095 0.86067 0.76143 0.0
C1004 C 0.59988 0.87719 0.80112 0.0
H1005 H 0.59271 0.841 0.66569 0.0
H1006 H 0.57806 0.85204 0.78403 0.0
C1007 C 0.61639 0.88823 0.76978 0.0
C1008 C 0.62567 0.60154 0.94296 0.0
C1009 C 0.61014 0.61351 0.97651 0.0
H1010 H 0.64516 0.59745 0.84827 0.0
C1011 C 0.60308 0.63165 0.94121 0.0
H1012 H 0.63128 0.58738 0.96879 0.0
C1013 C 0.611 0.63741 0.87228 0.0
C1014 C 0.62592 0.62498 0.8374 0.0
H1015 H 0.59106 0.64109 0.96597 0.0
H1016 H 0.60516 0.65134 0.8457 0.0
C1017 C 0.63338 0.60715 0.87362 0.0
C1018 C 0.63294 0.35529 0.00642 0.0
C1019 C 0.64174 0.36708 0.06394 0.0
H1020 H 0.62105 0.35532 0.89563 0.0
C1021 C 0.64871 0.38735 0.04926 0.0
H1022 H 0.62794 0.33943 0.01576 0.0
C1023 C 0.6448 0.39648 0.97998 0.0
C1024 C 0.63403 0.38527 0.92518 0.0
H1025 H 0.65583 0.39659 0.09273 0.0
H1026 H 0.64847 0.41276 0.97193 0.0
C1027 C 0.62927 0.36427 0.93739 0.0
C1028 C 0.8309 0.40113 0.47392 0.0
C1029 C 0.83795 0.38808 0.53135 0.0
H1030 H 0.82198 0.40291 0.35882 0.0
C1031 C 0.83719 0.36645 0.522 0.0
H1032 H 0.83152 0.41789 0.47985 0.0
C1033 C 0.8324 0.35803 0.45295 0.0
C1034 C 0.82783 0.37112 0.39279 0.0
H1035 H 0.84247 0.35612 0.56582 0.0
H1036 H 0.83359 0.34135 0.44552 0.0
C1037 C 0.82574 0.39261 0.4046 0.0
C1038 C 0.8572 0.59647 0.72668 0.0
C1039 C 0.86452 0.61482 0.75991 0.0
H1040 H 0.8582 0.57654 0.63136 0.0
C1041 C 0.88025 0.62618 0.72515 0.0
H1042 H 0.84498 0.5875 0.75222 0.0
C1043 C 0.8877 0.62 0.65609 0.0
C1044 C 0.87947 0.60241 0.62057 0.0
H1045 H 0.88614 0.64037 0.74986 0.0
H1046 H 0.89942 0.62939 0.6295 0.0
C1047 C 0.86455 0.59037 0.65715 0.0
C1048 C 0.34777 0.37694 0.09236 0.0
C1049 C 0.35548 0.35904 0.12747 0.0
H1050 H 0.34925 0.39691 -0.0024 0.0
C1051 C 0.37038 0.34685 0.09148 0.0
H1052 H 0.33603 0.38645 0.11851 0.0
C1053 C 0.37794 0.35283 0.02227 0.0
C1054 C 0.37051 0.37095 0.9878 0.0
H1055 H 0.37641 0.33287 0.11726 0.0
H1056 H 0.38989 0.34353 -0.00359 0.0
C1057 C 0.35511 0.38276 0.02272 0.0
C1058 C 0.3506 0.62108 -0.01091 0.0
C1059 C 0.34512 0.60052 0.00602 0.0
H1060 H 0.35103 0.64506 0.90738 0.0
C1061 C 0.33285 0.58918 0.95589 0.0
H1062 H 0.35994 0.63017 0.02724 0.0
C1063 C 0.32774 0.59775 0.88669 0.0
C1064 C 0.335 0.6176 0.8673 0.0
H1065 H 0.32854 0.57324 0.96766 0.0
H1066 H 0.31918 0.58843 0.84697 0.0
C1067 C 0.34571 0.6295 0.92017 0.0
C1068 C 0.10682 0.60706 0.73601 0.0
C1069 C 0.12755 0.60475 0.75656 0.0
H1070 H 0.0838 0.60148 0.65371 0.0
C1071 C 0.14062 0.5922 0.71321 0.0
H1072 H 0.09638 0.61643 0.7691 0.0
C1073 C 0.13342 0.58366 0.64641 0.0
C1074 C 0.11314 0.58762 0.62285 0.0
H1075 H 0.1567 0.5902 0.72811 0.0
H1076 H 0.144 0.57505 0.61137 0.0
C1077 C 0.09967 0.59859 0.66974 0.0
C1078 C 0.09952 0.35263 0.22213 0.0
C1079 C 0.11509 0.36529 0.19263 0.0
H1080 H 0.07888 0.34723 0.31239 0.0
C1081 C 0.12095 0.38347 0.23043 0.0
H1082 H 0.09477 0.33852 0.19384 0.0
C1083 C 0.1121 0.38829 0.29896 0.0
C1084 C 0.09713 0.37511 0.32988 0.0
H1085 H 0.13305 0.39339 0.209 0.0
H1086 H 0.11721 0.40211 0.32818 0.0
C1087 C 0.09056 0.35753 0.29012 0.0
loop_
_geom_bond_atom_site_label_1
_geom_bond_atom_site_label_2
_geom_bond_distance
_geom_bond_site_symmetry_2
_ccdc_geom_bond_type
C0 O1 1.306 . S
C0 O3 1.160 . S
O1 C0 1.306 . S
O1 Cd2 2.228 . S
Cd2 O1 2.228 . S
Cd2 O6 2.273 . S
Cd2 O10 2.277 . S
O3 C0 1.160 . S
O3 Cd4 2.203 . S
Cd4 O3 2.203 . S
Cd4 O6 2.411 . S
Cd4 O7 2.333 . S
Cd4 O8 2.352 . S
Cd4 O12 2.277 . S
Cd4 O13 2.356 . S
C5 O10 1.209 . S
C5 O12 1.226 . S
O6 Cd2 2.273 . S
O6 Cd4 2.411 . S
O6 C9 1.320 . S
O7 Cd4 2.333 . S
O7 C9 1.214 . S
O8 Cd4 2.352 . S
O8 C11 1.259 . S
C9 O6 1.320 . S
C9 O7 1.214 . S
O10 Cd2 2.277 . S
O10 C5 1.209 . S
C11 O8 1.259 . S
C11 O13 1.282 . S
O12 Cd4 2.277 . S
O12 C5 1.226 . S
O13 Cd4 2.356 . S
O13 C11 1.282 . S
C14 O15 1.306 . S
C14 O17 1.160 . S
O15 C14 1.306 . S
O15 Cd16 2.228 . S
Cd16 O15 2.228 . S
Cd16 O20 2.273 . S
Cd16 O24 2.277 . S
O17 C14 1.160 . S
O17 Cd18 2.203 . S
Cd18 O17 2.203 . S
Cd18 O20 2.411 . S
Cd18 O21 2.333 . S
Cd18 O22 2.352 . S
Cd18 O26 2.277 . S
Cd18 O27 2.356 . S
C19 O24 1.209 . S
C19 O26 1.226 . S
O20 Cd16 2.273 . S
O20 Cd18 2.411 . S
O20 C23 1.320 . S
O21 Cd18 2.333 . S
O21 C23 1.214 . S
O22 Cd18 2.352 . S
O22 C25 1.258 . S
C23 O20 1.320 . S
C23 O21 1.214 . S
O24 Cd16 2.277 . S
O24 C19 1.209 . S
C25 O22 1.258 . S
C25 O27 1.282 . S
O26 Cd18 2.277 . S
O26 C19 1.226 . S
O27 Cd18 2.356 . S
O27 C25 1.282 . S
C28 O29 1.306 . S
C28 O31 1.160 . S
O29 C28 1.306 . S
O29 Cd30 2.228 . S
Cd30 O29 2.228 . S
Cd30 O34 2.273 . S
Cd30 O38 2.277 . S
O31 C28 1.160 . S
O31 Cd32 2.203 . S
Cd32 O31 2.203 . S
Cd32 O34 2.411 . S
Cd32 O35 2.333 . S
Cd32 O36 2.352 . S
Cd32 O40 2.277 . S
Cd32 O41 2.356 . S
C33 O38 1.209 . S
C33 O40 1.226 . S
O34 Cd30 2.273 . S
O34 Cd32 2.411 . S
O34 C37 1.320 . S
O35 Cd32 2.333 . S
O35 C37 1.214 . S
O36 Cd32 2.352 . S
O36 C39 1.258 . S
C37 O34 1.320 . S
C37 O35 1.214 . S
O38 Cd30 2.277 . S
O38 C33 1.209 . S
C39 O36 1.258 . S
C39 O41 1.282 . S
O40 Cd32 2.277 . S
O40 C33 1.226 . S
O41 Cd32 2.356 . S
O41 C39 1.282 . S
C42 O43 1.306 . S
C42 O45 1.160 . S
O43 C42 1.306 . S
O43 Cd44 2.228 1_556 S
Cd44 O43 2.228 1_554 S
Cd44 O48 2.273 1_554 S
Cd44 O52 2.277 1_554 S
O45 C42 1.160 . S
O45 Cd46 2.203 . S
Cd46 O45 2.203 . S
Cd46 O48 2.411 . S
Cd46 O49 2.333 . S
Cd46 O50 2.352 . S
Cd46 O54 2.277 . S
Cd46 O55 2.356 . S
C47 O52 1.209 . S
C47 O54 1.226 . S
O48 Cd44 2.273 1_556 S
O48 Cd46 2.411 . S
O48 C51 1.320 . S
O49 Cd46 2.333 . S
O49 C51 1.214 . S
O50 Cd46 2.352 . S
O50 C53 1.258 . S
C51 O48 1.320 . S
C51 O49 1.214 . S
O52 Cd44 2.277 1_556 S
O52 C47 1.209 . S
C53 O50 1.258 . S
C53 O55 1.282 . S
O54 Cd46 2.277 . S
O54 C47 1.226 . S
O55 Cd46 2.356 . S
O55 C53 1.282 . S
C56 O57 1.306 . S
C56 O59 1.160 . S
O57 C56 1.306 . S
O57 Cd58 2.228 . S
Cd58 O57 2.228 . S
Cd58 O62 2.273 . S
Cd58 O66 2.277 . S
O59 C56 1.160 . S
O59 Cd60 2.203 . S
Cd60 O59 2.203 . S
Cd60 O62 2.411 . S
Cd60 O63 2.333 . S
Cd60 O64 2.352 . S
Cd60 O68 2.277 . S
Cd60 O69 2.356 . S
C61 O66 1.209 . S
C61 O68 1.226 . S
O62 Cd58 2.273 . S
O62 Cd60 2.411 . S
O62 C65 1.320 . S
O63 Cd60 2.333 . S
O63 C65 1.214 . S
O64 Cd60 2.352 . S
O64 C67 1.259 . S
C65 O62 1.320 . S
C65 O63 1.214 . S
O66 Cd58 2.277 . S
O66 C61 1.209 . S
C67 O64 1.259 . S
C67 O69 1.282 . S
O68 Cd60 2.277 . S
O68 C61 1.226 . S
O69 Cd60 2.356 . S
O69 C67 1.282 . S
C70 O71 1.306 . S
C70 O73 1.160 . S
O71 C70 1.306 . S
O71 Cd72 2.228 1_554 S
Cd72 O71 2.228 1_556 S
Cd72 O76 2.273 1_556 S
Cd72 O80 2.277 1_556 S
O73 C70 1.160 . S
O73 Cd74 2.203 . S
Cd74 O73 2.203 . S
Cd74 O76 2.411 . S
Cd74 O77 2.333 . S
Cd74 O78 2.352 . S
Cd74 O82 2.277 . S
Cd74 O83 2.356 . S
C75 O80 1.209 . S
C75 O82 1.226 . S
O76 Cd72 2.273 1_554 S
O76 Cd74 2.411 . S
O76 C79 1.320 . S
O77 Cd74 2.333 . S
O77 C79 1.214 . S
O78 Cd74 2.352 . S
O78 C81 1.258 . S
C79 O76 1.320 . S
C79 O77 1.214 . S
O80 Cd72 2.277 1_554 S
O80 C75 1.209 . S
C81 O78 1.258 . S
C81 O83 1.282 . S
O82 Cd74 2.277 . S
O82 C75 1.226 . S
O83 Cd74 2.356 . S
O83 C81 1.282 . S
C84 O85 1.306 . S
C84 O87 1.160 . S
O85 C84 1.306 . S
O85 Cd86 2.228 . S
Cd86 O85 2.228 . S
Cd86 O90 2.273 . S
Cd86 O94 2.277 . S
O87 C84 1.160 . S
O87 Cd88 2.203 . S
Cd88 O87 2.203 . S
Cd88 O90 2.411 . S
Cd88 O91 2.333 . S
Cd88 O92 2.352 . S
Cd88 O96 2.277 . S
Cd88 O97 2.356 . S
C89 O94 1.209 . S
C89 O96 1.226 . S
O90 Cd86 2.273 . S
O90 Cd88 2.411 . S
O90 C93 1.320 . S
O91 Cd88 2.333 . S
O91 C93 1.214 . S
O92 Cd88 2.352 . S
O92 C95 1.258 . S
C93 O90 1.320 . S
C93 O91 1.214 . S
O94 Cd86 2.277 . S
O94 C89 1.209 . S
C95 O92 1.258 . S
C95 O97 1.282 . S
O96 Cd88 2.277 . S
O96 C89 1.226 . S
O97 Cd88 2.356 . S
O97 C95 1.282 . S
C98 O99 1.306 . S
C98 O101 1.160 . S
O99 C98 1.306 . S
O99 Cd100 2.228 . S
Cd100 O99 2.228 . S
Cd100 O104 2.273 . S
Cd100 O108 2.277 . S
O101 C98 1.160 . S
O101 Cd102 2.203 . S
Cd102 O101 2.203 . S
Cd102 O104 2.411 . S
Cd102 O105 2.333 . S
Cd102 O106 2.352 . S
Cd102 O110 2.277 . S
Cd102 O111 2.356 . S
C103 O108 1.209 . S
C103 O110 1.226 . S
O104 Cd100 2.273 . S
O104 Cd102 2.411 . S
O104 C107 1.320 . S
O105 Cd102 2.333 . S
O105 C107 1.214 . S
O106 Cd102 2.352 . S
O106 C109 1.258 . S
C107 O104 1.320 . S
C107 O105 1.214 . S
O108 Cd100 2.277 . S
O108 C103 1.209 . S
C109 O106 1.258 . S
C109 O111 1.282 . S
O110 Cd102 2.277 . S
O110 C103 1.226 . S
O111 Cd102 2.356 . S
O111 C109 1.282 . S
C112 O113 1.306 . S
C112 O115 1.160 . S
O113 C112 1.306 . S
O113 Cd114 2.228 . S
Cd114 O113 2.228 . S
Cd114 O118 2.273 . S
Cd114 O122 2.277 . S
O115 C112 1.160 . S
O115 Cd116 2.203 . S
Cd116 O115 2.203 . S
Cd116 O118 2.411 . S
Cd116 O119 2.333 . S
Cd116 O120 2.352 . S
Cd116 O124 2.277 . S
Cd116 O125 2.356 . S
C117 O122 1.209 . S
C117 O124 1.226 . S
O118 Cd114 2.273 . S
O118 Cd116 2.411 . S
O118 C121 1.320 . S
O119 Cd116 2.333 . S
O119 C121 1.214 . S
O120 Cd116 2.352 . S
O120 C123 1.259 . S
C121 O118 1.320 . S
C121 O119 1.214 . S
O122 Cd114 2.277 . S
O122 C117 1.209 . S
C123 O120 1.259 . S
C123 O125 1.282 . S
O124 Cd116 2.277 . S
O124 C117 1.226 . S
O125 Cd116 2.356 . S
O125 C123 1.282 . S
C126 O127 1.306 . S
C126 O129 1.160 . S
O127 C126 1.306 . S
O127 Cd128 2.228 . S
Cd128 O127 2.228 . S
Cd128 O132 2.273 . S
Cd128 O136 2.277 . S
O129 C126 1.160 . S
O129 Cd130 2.203 . S
Cd130 O129 2.203 . S
Cd130 O132 2.411 . S
Cd130 O133 2.333 . S
Cd130 O134 2.352 . S
Cd130 O138 2.277 . S
Cd130 O139 2.356 . S
C131 O136 1.209 . S
C131 O138 1.226 . S
O132 Cd128 2.273 . S
O132 Cd130 2.411 . S
O132 C135 1.320 . S
O133 Cd130 2.333 . S
O133 C135 1.214 . S
O134 Cd130 2.352 . S
O134 C137 1.258 . S
C135 O132 1.320 . S
C135 O133 1.214 . S
O136 Cd128 2.277 . S
O136 C131 1.209 . S
C137 O134 1.258 . S
C137 O139 1.282 . S
O138 Cd130 2.277 . S
O138 C131 1.226 . S
O139 Cd130 2.356 . S
O139 C137 1.282 . S
C140 O141 1.306 . S
C140 O143 1.160 . S
O141 C140 1.306 . S
O141 Cd142 2.228 . S
Cd142 O141 2.228 . S
Cd142 O146 2.273 . S
Cd142 O150 2.277 . S
O143 C140 1.160 . S
O143 Cd144 2.203 . S
Cd144 O143 2.203 . S
Cd144 O146 2.411 . S
Cd144 O147 2.333 . S
Cd144 O148 2.352 . S
Cd144 O152 2.277 . S
Cd144 O153 2.356 . S
C145 O150 1.209 . S
C145 O152 1.226 . S
O146 Cd142 2.273 . S
O146 Cd144 2.411 . S
O146 C149 1.320 . S
O147 Cd144 2.333 . S
O147 C149 1.214 . S
O148 Cd144 2.352 . S
O148 C151 1.258 . S
C149 O146 1.320 . S
C149 O147 1.214 . S
O150 Cd142 2.277 . S
O150 C145 1.209 . S
C151 O148 1.258 . S
C151 O153 1.282 . S
O152 Cd144 2.277 . S
O152 C145 1.226 . S
O153 Cd144 2.356 . S
O153 C151 1.282 . S
C154 O155 1.306 . S
C154 O157 1.160 . S
O155 C154 1.306 . S
O155 Cd156 2.228 1_554 S
Cd156 O155 2.228 1_556 S
Cd156 O160 2.273 1_556 S
Cd156 O164 2.277 1_556 S
O157 C154 1.160 . S
O157 Cd158 2.203 . S
Cd158 O157 2.203 . S
Cd158 O160 2.411 . S
Cd158 O161 2.333 . S
Cd158 O162 2.352 . S
Cd158 O166 2.277 . S
Cd158 O167 2.356 . S
C159 O164 1.209 . S
C159 O166 1.226 . S
O160 Cd156 2.273 1_554 S
O160 Cd158 2.411 . S
O160 C163 1.320 . S
O161 Cd158 2.333 . S
O161 C163 1.214 . S
O162 Cd158 2.352 . S
O162 C165 1.258 . S
C163 O160 1.320 . S
C163 O161 1.214 . S
O164 Cd156 2.277 1_554 S
O164 C159 1.209 . S
C165 O162 1.258 . S
C165 O167 1.282 . S
O166 Cd158 2.277 . S
O166 C159 1.226 . S
O167 Cd158 2.356 . S
O167 C165 1.282 . S
C168 O169 1.306 . S
C168 O171 1.160 . S
O169 C168 1.306 . S
O169 Cd170 2.228 . S
Cd170 O169 2.228 . S
Cd170 O174 2.273 . S
Cd170 O178 2.277 . S
O171 C168 1.160 . S
O171 Cd172 2.203 . S
Cd172 O171 2.203 . S
Cd172 O174 2.411 . S
Cd172 O175 2.333 . S
Cd172 O176 2.352 . S
Cd172 O180 2.277 . S
Cd172 O181 2.356 . S
C173 O178 1.209 . S
C173 O180 1.226 . S
O174 Cd170 2.273 . S
O174 Cd172 2.411 . S
O174 C177 1.320 . S
O175 Cd172 2.333 . S
O175 C177 1.214 . S
O176 Cd172 2.352 . S
O176 C179 1.259 . S
C177 O174 1.320 . S
C177 O175 1.214 . S
O178 Cd170 2.277 . S
O178 C173 1.209 . S
C179 O176 1.259 . S
C179 O181 1.282 . S
O180 Cd172 2.277 . S
O180 C173 1.226 . S
O181 Cd172 2.356 . S
O181 C179 1.282 . S
C182 O183 1.306 . S
C182 O185 1.160 . S
O183 C182 1.306 . S
O183 Cd184 2.228 1_556 S
Cd184 O183 2.228 1_554 S
Cd184 O188 2.273 1_554 S
Cd184 O192 2.277 1_554 S
O185 C182 1.160 . S
O185 Cd186 2.203 . S
Cd186 O185 2.203 . S
Cd186 O188 2.411 . S
Cd186 O189 2.333 . S
Cd186 O190 2.352 . S
Cd186 O194 2.277 . S
Cd186 O195 2.356 . S
C187 O192 1.209 . S
C187 O194 1.226 . S
O188 Cd184 2.273 1_556 S
O188 Cd186 2.411 . S
O188 C191 1.320 . S
O189 Cd186 2.333 . S
O189 C191 1.214 . S
O190 Cd186 2.352 . S
O190 C193 1.258 . S
C191 O188 1.320 . S
C191 O189 1.214 . S
O192 Cd184 2.277 1_556 S
O192 C187 1.209 . S
C193 O190 1.258 . S
C193 O195 1.282 . S
O194 Cd186 2.277 . S
O194 C187 1.226 . S
O195 Cd186 2.356 . S
O195 C193 1.282 . S
C196 O197 1.306 . S
C196 O199 1.160 . S
O197 C196 1.306 . S
O197 Cd198 2.228 . S
Cd198 O197 2.228 . S
Cd198 O202 2.273 . S
Cd198 O206 2.277 . S
O199 C196 1.160 . S
O199 Cd200 2.203 . S
Cd200 O199 2.203 . S
Cd200 O202 2.411 . S
Cd200 O203 2.333 . S
Cd200 O204 2.352 . S
Cd200 O208 2.277 . S
Cd200 O209 2.356 . S
C201 O206 1.209 . S
C201 O208 1.226 . S
O202 Cd198 2.273 . S
O202 Cd200 2.411 . S
O202 C205 1.320 . S
O203 Cd200 2.333 . S
O203 C205 1.214 . S
O204 Cd200 2.352 . S
O204 C207 1.258 . S
C205 O202 1.320 . S
C205 O203 1.214 . S
O206 Cd198 2.277 . S
O206 C201 1.209 . S
C207 O204 1.258 . S
C207 O209 1.282 . S
O208 Cd200 2.277 . S
O208 C201 1.226 . S
O209 Cd200 2.356 . S
O209 C207 1.282 . S
C210 O211 1.306 . S
C210 O213 1.160 . S
O211 C210 1.306 . S
O211 Cd212 2.228 . S
Cd212 O211 2.228 . S
Cd212 O216 2.273 . S
Cd212 O220 2.277 . S
O213 C210 1.160 . S
O213 Cd214 2.203 . S
Cd214 O213 2.203 . S
Cd214 O216 2.411 . S
Cd214 O217 2.333 . S
Cd214 O218 2.352 . S
Cd214 O222 2.277 . S
Cd214 O223 2.356 . S
C215 O220 1.209 . S
C215 O222 1.226 . S
O216 Cd212 2.273 . S
O216 Cd214 2.411 . S
O216 C219 1.320 . S
O217 Cd214 2.333 . S
O217 C219 1.214 . S
O218 Cd214 2.352 . S
O218 C221 1.258 . S
C219 O216 1.320 . S
C219 O217 1.214 . S
O220 Cd212 2.277 . S
O220 C215 1.209 . S
C221 O218 1.258 . S
C221 O223 1.282 . S
O222 Cd214 2.277 . S
O222 C215 1.226 . S
O223 Cd214 2.356 . S
O223 C221 1.282 . S
C224 O225 1.306 . S
C224 O227 1.160 . S
O225 C224 1.306 . S
O225 Cd226 2.228 . S
Cd226 O225 2.228 . S
Cd226 O230 2.273 . S
Cd226 O234 2.277 . S
O227 C224 1.160 . S
O227 Cd228 2.203 . S
Cd228 O227 2.203 . S
Cd228 O230 2.411 . S
Cd228 O231 2.333 . S
Cd228 O232 2.352 . S
Cd228 O236 2.277 . S
Cd228 O237 2.356 . S
C229 O234 1.209 . S
C229 O236 1.226 . S
O230 Cd226 2.273 . S
O230 Cd228 2.411 . S
O230 C233 1.320 . S
O231 Cd228 2.333 . S
O231 C233 1.214 . S
O232 Cd228 2.352 . S
O232 C235 1.258 . S
C233 O230 1.320 . S
C233 O231 1.214 . S
O234 Cd226 2.277 . S
O234 C229 1.209 . S
C235 O232 1.258 . S
C235 O237 1.282 . S
O236 Cd228 2.277 . S
O236 C229 1.226 . S
O237 Cd228 2.356 . S
O237 C235 1.282 . S
C238 O239 1.306 . S
C238 O241 1.160 . S
O239 C238 1.306 . S
O239 Cd240 2.228 1_556 S
Cd240 O239 2.228 1_554 S
Cd240 O244 2.273 1_554 S
Cd240 O248 2.277 1_554 S
O241 C238 1.160 . S
O241 Cd242 2.203 . S
Cd242 O241 2.203 . S
Cd242 O244 2.411 . S
Cd242 O245 2.333 . S
Cd242 O246 2.352 . S
Cd242 O250 2.277 . S
Cd242 O251 2.356 . S
C243 O248 1.209 . S
C243 O250 1.226 . S
O244 Cd240 2.273 1_556 S
O244 Cd242 2.411 . S
O244 C247 1.320 . S
O245 Cd242 2.333 . S
O245 C247 1.214 . S
O246 Cd242 2.352 . S
O246 C249 1.258 . S
C247 O244 1.320 . S
C247 O245 1.214 . S
O248 Cd240 2.277 1_556 S
O248 C243 1.209 . S
C249 O246 1.258 . S
C249 O251 1.282 . S
O250 Cd242 2.277 . S
O250 C243 1.226 . S
O251 Cd242 2.356 . S
O251 C249 1.282 . S
C252 O253 1.306 . S
C252 O255 1.160 . S
O253 C252 1.306 . S
O253 Cd254 2.228 . S
Cd254 O253 2.228 . S
Cd254 O258 2.273 . S
Cd254 O262 2.277 . S
O255 C252 1.160 . S
O255 Cd256 2.203 . S
Cd256 O255 2.203 . S
Cd256 O258 2.411 . S
Cd256 O259 2.333 . S
Cd256 O260 2.352 . S
Cd256 O264 2.277 . S
Cd256 O265 2.356 . S
C257 O262 1.209 . S
C257 O264 1.226 . S
O258 Cd254 2.273 . S
O258 Cd256 2.411 . S
O258 C261 1.320 . S
O259 Cd256 2.333 . S
O259 C261 1.214 . S
O260 Cd256 2.352 . S
O260 C263 1.259 . S
C261 O258 1.320 . S
C261 O259 1.214 . S
O262 Cd254 2.277 . S
O262 C257 1.209 . S
C263 O260 1.259 . S
C263 O265 1.282 . S
O264 Cd256 2.277 . S
O264 C257 1.226 . S
O265 Cd256 2.356 . S
O265 C263 1.282 . S
C266 O267 1.306 . S
C266 O269 1.160 . S
O267 C266 1.306 . S
O267 Cd268 2.228 . S
Cd268 O267 2.228 . S
Cd268 O272 2.273 . S
Cd268 O276 2.277 . S
O269 C266 1.160 . S
O269 Cd270 2.203 . S
Cd270 O269 2.203 . S
Cd270 O272 2.411 . S
Cd270 O273 2.333 . S
Cd270 O274 2.352 . S
Cd270 O278 2.277 . S
Cd270 O279 2.356 . S
C271 O276 1.209 . S
C271 O278 1.226 . S
O272 Cd268 2.273 . S
O272 Cd270 2.411 . S
O272 C275 1.320 . S
O273 Cd270 2.333 . S
O273 C275 1.214 . S
O274 Cd270 2.352 . S
O274 C277 1.258 . S
C275 O272 1.320 . S
C275 O273 1.214 . S
O276 Cd268 2.277 . S
O276 C271 1.209 . S
C277 O274 1.258 . S
C277 O279 1.282 . S
O278 Cd270 2.277 . S
O278 C271 1.226 . S
O279 Cd270 2.356 . S
O279 C277 1.282 . S
C280 O281 1.306 . S
C280 O283 1.160 . S
O281 C280 1.306 . S
O281 Cd282 2.228 . S
Cd282 O281 2.228 . S
Cd282 O286 2.273 . S
Cd282 O290 2.277 . S
O283 C280 1.160 . S
O283 Cd284 2.203 . S
Cd284 O283 2.203 . S
Cd284 O286 2.411 . S
Cd284 O287 2.333 . S
Cd284 O288 2.352 . S
Cd284 O292 2.277 . S
Cd284 O293 2.356 . S
C285 O290 1.209 . S
C285 O292 1.226 . S
O286 Cd282 2.273 . S
O286 Cd284 2.411 . S
O286 C289 1.320 . S
O287 Cd284 2.333 . S
O287 C289 1.214 . S
O288 Cd284 2.352 . S
O288 C291 1.258 . S
C289 O286 1.320 . S
C289 O287 1.214 . S
O290 Cd282 2.277 . S
O290 C285 1.209 . S
C291 O288 1.258 . S
C291 O293 1.282 . S
O292 Cd284 2.277 . S
O292 C285 1.226 . S
O293 Cd284 2.356 . S
O293 C291 1.282 . S
C294 O295 1.306 . S
C294 O297 1.160 . S
O295 C294 1.306 . S
O295 Cd296 2.228 . S
Cd296 O295 2.228 . S
Cd296 O300 2.273 . S
Cd296 O304 2.277 . S
O297 C294 1.160 . S
O297 Cd298 2.203 . S
Cd298 O297 2.203 . S
Cd298 O300 2.411 . S
Cd298 O301 2.333 . S
Cd298 O302 2.352 . S
Cd298 O306 2.277 . S
Cd298 O307 2.356 . S
C299 O304 1.209 . S
C299 O306 1.226 . S
O300 Cd296 2.273 . S
O300 Cd298 2.411 . S
O300 C303 1.320 . S
O301 Cd298 2.333 . S
O301 C303 1.214 . S
O302 Cd298 2.352 . S
O302 C305 1.258 . S
C303 O300 1.320 . S
C303 O301 1.214 . S
O304 Cd296 2.277 . S
O304 C299 1.209 . S
C305 O302 1.258 . S
C305 O307 1.282 . S
O306 Cd298 2.277 . S
O306 C299 1.226 . S
O307 Cd298 2.356 . S
O307 C305 1.282 . S
C308 O309 1.306 . S
C308 O311 1.160 . S
O309 C308 1.306 . S
O309 Cd310 2.228 . S
Cd310 O309 2.228 . S
Cd310 O314 2.273 . S
Cd310 O318 2.277 . S
O311 C308 1.160 . S
O311 Cd312 2.203 . S
Cd312 O311 2.203 . S
Cd312 O314 2.411 . S
Cd312 O315 2.333 . S
Cd312 O316 2.352 . S
Cd312 O320 2.277 . S
Cd312 O321 2.356 . S
C313 O318 1.209 . S
C313 O320 1.226 . S
O314 Cd310 2.273 . S
O314 Cd312 2.411 . S
O314 C317 1.320 . S
O315 Cd312 2.333 . S
O315 C317 1.214 . S
O316 Cd312 2.352 . S
O316 C319 1.259 . S
C317 O314 1.320 . S
C317 O315 1.214 . S
O318 Cd310 2.277 . S
O318 C313 1.209 . S
C319 O316 1.259 . S
C319 O321 1.282 . S
O320 Cd312 2.277 . S
O320 C313 1.226 . S
O321 Cd312 2.356 . S
O321 C319 1.282 . S
C322 O323 1.306 . S
C322 O325 1.160 . S
O323 C322 1.306 . S
O323 Cd324 2.228 1_554 S
Cd324 O323 2.228 1_556 S
Cd324 O328 2.273 1_556 S
Cd324 O332 2.277 1_556 S
O325 C322 1.160 . S
O325 Cd326 2.203 . S
Cd326 O325 2.203 . S
Cd326 O328 2.411 . S
Cd326 O329 2.333 . S
Cd326 O330 2.352 . S
Cd326 O334 2.277 . S
Cd326 O335 2.356 . S
C327 O332 1.209 . S
C327 O334 1.226 . S
O328 Cd324 2.273 1_554 S
O328 Cd326 2.411 . S
O328 C331 1.320 . S
O329 Cd326 2.333 . S
O329 C331 1.214 . S
O330 Cd326 2.352 . S
O330 C333 1.258 . S
C331 O328 1.320 . S
C331 O329 1.214 . S
O332 Cd324 2.277 1_554 S
O332 C327 1.209 . S
C333 O330 1.258 . S
C333 O335 1.282 . S
O334 Cd326 2.277 . S
O334 C327 1.226 . S
O335 Cd326 2.356 . S
O335 C333 1.282 . S
C336 O337 1.306 . S
C336 O339 1.160 . S
O337 C336 1.306 . S
O337 Cd338 2.228 . S
Cd338 O337 2.228 . S
Cd338 O342 2.273 . S
Cd338 O346 2.277 . S
O339 C336 1.160 . S
O339 Cd340 2.203 . S
Cd340 O339 2.203 . S
Cd340 O342 2.411 . S
Cd340 O343 2.333 . S
Cd340 O344 2.352 . S
Cd340 O348 2.277 . S
Cd340 O349 2.356 . S
C341 O346 1.209 . S
C341 O348 1.226 . S
O342 Cd338 2.273 . S
O342 Cd340 2.411 . S
O342 C345 1.320 . S
O343 Cd340 2.333 . S
O343 C345 1.214 . S
O344 Cd340 2.352 . S
O344 C347 1.258 . S
C345 O342 1.320 . S
C345 O343 1.214 . S
O346 Cd338 2.277 . S
O346 C341 1.209 . S
C347 O344 1.258 . S
C347 O349 1.282 . S
O348 Cd340 2.277 . S
O348 C341 1.226 . S
O349 Cd340 2.356 . S
O349 C347 1.282 . S
C350 O351 1.306 . S
C350 O353 1.160 . S
O351 C350 1.306 . S
O351 Cd352 2.228 1_554 S
Cd352 O351 2.228 1_556 S
Cd352 O356 2.273 1_556 S
Cd352 O360 2.277 1_556 S
O353 C350 1.160 . S
O353 Cd354 2.203 . S
Cd354 O353 2.203 . S
Cd354 O356 2.411 . S
Cd354 O357 2.333 . S
Cd354 O358 2.352 . S
Cd354 O362 2.277 . S
Cd354 O363 2.356 . S
C355 O360 1.209 . S
C355 O362 1.226 . S
O356 Cd352 2.273 1_554 S
O356 Cd354 2.411 . S
O356 C359 1.320 . S
O357 Cd354 2.333 . S
O357 C359 1.214 . S
O358 Cd354 2.352 . S
O358 C361 1.258 . S
C359 O356 1.320 . S
C359 O357 1.214 . S
O360 Cd352 2.277 1_554 S
O360 C355 1.209 . S
C361 O358 1.258 . S
C361 O363 1.282 . S
O362 Cd354 2.277 . S
O362 C355 1.226 . S
O363 Cd354 2.356 . S
O363 C361 1.282 . S
C364 O365 1.306 . S
C364 O367 1.160 . S
O365 C364 1.306 . S
O365 Cd366 2.228 . S
Cd366 O365 2.228 . S
Cd366 O370 2.273 . S
Cd366 O374 2.277 . S
O367 C364 1.160 . S
O367 Cd368 2.203 . S
Cd368 O367 2.203 . S
Cd368 O370 2.411 . S
Cd368 O371 2.333 . S
Cd368 O372 2.352 . S
Cd368 O376 2.277 . S
Cd368 O377 2.356 . S
C369 O374 1.209 . S
C369 O376 1.226 . S
O370 Cd366 2.273 . S
O370 Cd368 2.411 . S
O370 C373 1.320 . S
O371 Cd368 2.333 . S
O371 C373 1.214 . S
O372 Cd368 2.352 . S
O372 C375 1.259 . S
C373 O370 1.320 . S
C373 O371 1.214 . S
O374 Cd366 2.277 . S
O374 C369 1.209 . S
C375 O372 1.259 . S
C375 O377 1.282 . S
O376 Cd368 2.277 . S
O376 C369 1.226 . S
O377 Cd368 2.356 . S
O377 C375 1.282 . S
C378 O379 1.306 . S
C378 O381 1.160 . S
O379 C378 1.306 . S
O379 Cd380 2.228 . S
Cd380 O379 2.228 . S
Cd380 O384 2.273 . S
Cd380 O388 2.277 . S
O381 C378 1.160 . S
O381 Cd382 2.203 . S
Cd382 O381 2.203 . S
Cd382 O384 2.411 . S
Cd382 O385 2.333 . S
Cd382 O386 2.352 . S
Cd382 O390 2.277 . S
Cd382 O391 2.356 . S
C383 O388 1.209 . S
C383 O390 1.226 . S
O384 Cd380 2.273 . S
O384 Cd382 2.411 . S
O384 C387 1.320 . S
O385 Cd382 2.333 . S
O385 C387 1.214 . S
O386 Cd382 2.352 . S
O386 C389 1.258 . S
C387 O384 1.320 . S
C387 O385 1.214 . S
O388 Cd380 2.277 . S
O388 C383 1.209 . S
C389 O386 1.258 . S
C389 O391 1.282 . S
O390 Cd382 2.277 . S
O390 C383 1.226 . S
O391 Cd382 2.356 . S
O391 C389 1.282 . S
C392 O393 1.306 . S
C392 O395 1.160 . S
O393 C392 1.306 . S
O393 Cd394 2.228 . S
Cd394 O393 2.228 . S
Cd394 O398 2.273 . S
Cd394 O402 2.277 . S
O395 C392 1.160 . S
O395 Cd396 2.203 . S
Cd396 O395 2.203 . S
Cd396 O398 2.411 . S
Cd396 O399 2.333 . S
Cd396 O400 2.352 . S
Cd396 O404 2.277 . S
Cd396 O405 2.356 . S
C397 O402 1.209 . S
C397 O404 1.226 . S
O398 Cd394 2.273 . S
O398 Cd396 2.411 . S
O398 C401 1.320 . S
O399 Cd396 2.333 . S
O399 C401 1.214 . S
O400 Cd396 2.352 . S
O400 C403 1.258 . S
C401 O398 1.320 . S
C401 O399 1.214 . S
O402 Cd394 2.277 . S
O402 C397 1.209 . S
C403 O400 1.258 . S
C403 O405 1.282 . S
O404 Cd396 2.277 . S
O404 C397 1.226 . S
O405 Cd396 2.356 . S
O405 C403 1.282 . S
C406 O407 1.306 . S
C406 O409 1.160 . S
O407 C406 1.306 . S
O407 Cd408 2.228 . S
Cd408 O407 2.228 . S
Cd408 O412 2.273 . S
Cd408 O416 2.277 . S
O409 C406 1.160 . S
O409 Cd410 2.203 . S
Cd410 O409 2.203 . S
Cd410 O412 2.411 . S
Cd410 O413 2.333 . S
Cd410 O414 2.352 . S
Cd410 O418 2.277 . S
Cd410 O419 2.356 . S
C411 O416 1.209 . S
C411 O418 1.226 . S
O412 Cd408 2.273 . S
O412 Cd410 2.411 . S
O412 C415 1.320 . S
O413 Cd410 2.333 . S
O413 C415 1.214 . S
O414 Cd410 2.352 . S
O414 C417 1.258 . S
C415 O412 1.320 . S
C415 O413 1.214 . S
O416 Cd408 2.277 . S
O416 C411 1.209 . S
C417 O414 1.258 . S
C417 O419 1.282 . S
O418 Cd410 2.277 . S
O418 C411 1.226 . S
O419 Cd410 2.356 . S
O419 C417 1.282 . S
C420 O421 1.306 . S
C420 O423 1.160 . S
O421 C420 1.306 . S
O421 Cd422 2.228 . S
Cd422 O421 2.228 . S
Cd422 O426 2.273 . S
Cd422 O430 2.277 . S
O423 C420 1.160 . S
O423 Cd424 2.203 . S
Cd424 O423 2.203 . S
Cd424 O426 2.411 . S
Cd424 O427 2.333 . S
Cd424 O428 2.352 . S
Cd424 O432 2.277 . S
Cd424 O433 2.356 . S
C425 O430 1.209 . S
C425 O432 1.226 . S
O426 Cd422 2.273 . S
O426 Cd424 2.411 . S
O426 C429 1.320 . S
O427 Cd424 2.333 . S
O427 C429 1.214 . S
O428 Cd424 2.352 . S
O428 C431 1.259 . S
C429 O426 1.320 . S
C429 O427 1.214 . S
O430 Cd422 2.277 . S
O430 C425 1.209 . S
C431 O428 1.259 . S
C431 O433 1.282 . S
O432 Cd424 2.277 . S
O432 C425 1.226 . S
O433 Cd424 2.356 . S
O433 C431 1.282 . S
C434 O435 1.306 . S
C434 O437 1.160 . S
O435 C434 1.306 . S
O435 Cd436 2.228 1_556 S
Cd436 O435 2.228 1_554 S
Cd436 O440 2.273 1_554 S
Cd436 O444 2.277 1_554 S
O437 C434 1.160 . S
O437 Cd438 2.203 . S
Cd438 O437 2.203 . S
Cd438 O440 2.411 . S
Cd438 O441 2.333 . S
Cd438 O442 2.352 . S
Cd438 O446 2.277 . S
Cd438 O447 2.356 . S
C439 O444 1.209 . S
C439 O446 1.226 . S
O440 Cd436 2.273 1_556 S
O440 Cd438 2.411 . S
O440 C443 1.320 . S
O441 Cd438 2.333 . S
O441 C443 1.214 . S
O442 Cd438 2.352 . S
O442 C445 1.258 . S
C443 O440 1.320 . S
C443 O441 1.214 . S
O444 Cd436 2.277 1_556 S
O444 C439 1.209 . S
C445 O442 1.258 . S
C445 O447 1.282 . S
O446 Cd438 2.277 . S
O446 C439 1.226 . S
O447 Cd438 2.356 . S
O447 C445 1.282 . S
C448 C449 1.387 . S
C448 H452 0.950 . S
C448 C457 1.390 . S
C449 C448 1.387 . S
C449 C451 1.387 . S
H450 C457 0.950 . S
C451 C449 1.387 . S
C451 C453 1.390 . S
C451 H455 0.950 . S
H452 C448 0.950 . S
C453 C451 1.390 . S
C453 C454 1.387 . S
C453 H456 0.950 . S
C454 C453 1.387 . S
C454 C457 1.387 . S
H455 C451 0.950 . S
H456 C453 0.950 . S
C457 C448 1.390 . S
C457 H450 0.950 . S
C457 C454 1.387 . S
C458 C459 1.387 . S
C458 H462 0.950 . S
C458 C467 1.390 1_565 S
C459 C458 1.387 . S
C459 C461 1.387 . S
H460 C467 0.950 . S
C461 C459 1.387 . S
C461 C463 1.390 1_565 S
C461 H465 0.950 . S
H462 C458 0.950 . S
C463 C461 1.390 1_545 S
C463 C464 1.387 . S
C463 H466 0.950 . S
C464 C463 1.387 . S
C464 C467 1.387 . S
H465 C461 0.950 . S
H466 C463 0.950 . S
C467 C458 1.390 1_545 S
C467 H460 0.950 . S
C467 C464 1.387 . S
C468 C469 1.387 . S
C468 H472 0.950 . S
C468 C477 1.390 . S
C469 C468 1.387 . S
C469 C471 1.387 . S
H470 C477 0.950 . S
C471 C469 1.387 . S
C471 C473 1.390 . S
C471 H475 0.950 . S
H472 C468 0.950 . S
C473 C471 1.390 . S
C473 C474 1.387 . S
C473 H476 0.950 . S
C474 C473 1.387 . S
C474 C477 1.387 . S
H475 C471 0.950 . S
H476 C473 0.950 . S
C477 C468 1.390 . S
C477 H470 0.950 . S
C477 C474 1.387 . S
C478 C479 1.387 . S
C478 H482 0.950 . S
C478 C487 1.390 1_546 S
C479 C478 1.387 . S
C479 C481 1.387 . S
H480 C487 0.950 . S
C481 C479 1.387 . S
C481 C483 1.390 1_546 S
C481 H485 0.950 . S
H482 C478 0.950 . S
C483 C481 1.390 1_564 S
C483 C484 1.387 . S
C483 H486 0.950 . S
C484 C483 1.387 . S
C484 C487 1.387 . S
H485 C481 0.950 . S
H486 C483 0.950 . S
C487 C478 1.390 1_564 S
C487 H480 0.950 . S
C487 C484 1.387 . S
C488 C489 1.387 . S
C488 H492 0.950 . S
C488 C497 1.390 . S
C489 C488 1.387 . S
C489 C491 1.387 . S
H490 C497 0.950 . S
C491 C489 1.387 . S
C491 C493 1.390 . S
C491 H495 0.950 . S
H492 C488 0.950 . S
C493 C491 1.390 . S
C493 C494 1.387 . S
C493 H496 0.950 . S
C494 C493 1.387 . S
C494 C497 1.387 . S
H495 C491 0.950 . S
H496 C493 0.950 . S
C497 C488 1.390 . S
C497 H490 0.950 . S
C497 C494 1.387 . S
C498 C499 1.387 . S
C498 H502 0.950 . S
C498 C507 1.390 1_565 S
C499 C498 1.387 . S
C499 C501 1.387 . S
H500 C507 0.950 . S
C501 C499 1.387 . S
C501 C503 1.390 1_565 S
C501 H505 0.950 . S
H502 C498 0.950 . S
C503 C501 1.390 1_545 S
C503 C504 1.387 . S
C503 H506 0.950 . S
C504 C503 1.387 . S
C504 C507 1.387 . S
H505 C501 0.950 . S
H506 C503 0.950 . S
C507 C498 1.390 1_545 S
C507 H500 0.950 . S
C507 C504 1.387 . S
C508 C509 1.387 . S
C508 H512 0.950 . S
C508 C517 1.390 . S
C509 C508 1.387 . S
C509 C511 1.387 . S
H510 C517 0.950 . S
C511 C509 1.387 . S
C511 C513 1.390 . S
C511 H515 0.950 . S
H512 C508 0.950 . S
C513 C511 1.390 . S
C513 C514 1.387 . S
C513 H516 0.950 . S
C514 C513 1.387 . S
C514 C517 1.387 . S
H515 C511 0.950 . S
H516 C513 0.950 . S
C517 C508 1.390 . S
C517 H510 0.950 . S
C517 C514 1.387 . S
C518 C519 1.387 . S
C518 H522 0.950 . S
C518 C527 1.390 1_546 S
C519 C518 1.387 . S
C519 C521 1.387 . S
H520 C527 0.950 . S
C521 C519 1.387 . S
C521 C523 1.390 1_546 S
C521 H525 0.950 . S
H522 C518 0.950 . S
C523 C521 1.390 1_564 S
C523 C524 1.387 . S
C523 H526 0.950 . S
C524 C523 1.387 . S
C524 C527 1.387 . S
H525 C521 0.950 . S
H526 C523 0.950 . S
C527 C518 1.390 1_564 S
C527 H520 0.950 . S
C527 C524 1.387 . S
C528 C529 1.387 . S
C528 H532 0.950 . S
C528 C537 1.390 . S
C529 C528 1.387 . S
C529 C531 1.387 . S
H530 C537 0.950 . S
C531 C529 1.387 . S
C531 C533 1.390 . S
C531 H535 0.950 . S
H532 C528 0.950 . S
C533 C531 1.390 . S
C533 C534 1.387 . S
C533 H536 0.950 . S
C534 C533 1.387 . S
C534 C537 1.387 . S
H535 C531 0.950 . S
H536 C533 0.950 . S
C537 C528 1.390 . S
C537 H530 0.950 . S
C537 C534 1.387 . S
C538 C539 1.387 . S
C538 H542 0.950 . S
C538 C547 1.390 1_556 S
C539 C538 1.387 . S
C539 C541 1.387 . S
H540 C547 0.950 . S
C541 C539 1.387 . S
C541 C543 1.390 1_556 S
C541 H545 0.950 . S
H542 C538 0.950 . S
C543 C541 1.390 1_554 S
C543 C544 1.387 . S
C543 H546 0.950 . S
C544 C543 1.387 . S
C544 C547 1.387 . S
H545 C541 0.950 . S
H546 C543 0.950 . S
C547 C538 1.390 1_554 S
C547 H540 0.950 . S
C547 C544 1.387 . S
C548 C549 1.387 . S
C548 H552 0.950 . S
C548 C557 1.390 . S
C549 C548 1.387 . S
C549 C551 1.387 . S
H550 C557 0.950 . S
C551 C549 1.387 . S
C551 C553 1.390 . S
C551 H555 0.950 . S
H552 C548 0.950 . S
C553 C551 1.390 . S
C553 C554 1.387 . S
C553 H556 0.950 . S
C554 C553 1.387 . S
C554 C557 1.387 . S
H555 C551 0.950 . S
H556 C553 0.950 . S
C557 C548 1.390 . S
C557 H550 0.950 . S
C557 C554 1.387 . S
C558 C559 1.387 . S
C558 H562 0.950 . S
C558 C567 1.390 . S
C559 C558 1.387 . S
C559 C561 1.387 . S
H560 C567 0.950 . S
C561 C559 1.387 . S
C561 C563 1.390 . S
C561 H565 0.950 . S
H562 C558 0.950 . S
C563 C561 1.390 . S
C563 C564 1.387 . S
C563 H566 0.950 . S
C564 C563 1.387 . S
C564 C567 1.387 . S
H565 C561 0.950 . S
H566 C563 0.950 . S
C567 C558 1.390 . S
C567 H560 0.950 . S
C567 C564 1.387 . S
C568 C569 1.387 . S
C568 H572 0.950 . S
C568 C577 1.390 . S
C569 C568 1.387 . S
C569 C571 1.387 . S
H570 C577 0.950 . S
C571 C569 1.387 . S
C571 C573 1.390 . S
C571 H575 0.950 . S
H572 C568 0.950 . S
C573 C571 1.390 . S
C573 C574 1.387 . S
C573 H576 0.950 . S
C574 C573 1.387 . S
C574 C577 1.387 . S
H575 C571 0.950 . S
H576 C573 0.950 . S
C577 C568 1.390 . S
C577 H570 0.950 . S
C577 C574 1.387 . S
C578 C579 1.387 . S
C578 H582 0.950 . S
C578 C587 1.390 1_554 S
C579 C578 1.387 . S
C579 C581 1.387 . S
H580 C587 0.950 . S
C581 C579 1.387 . S
C581 C583 1.390 1_554 S
C581 H585 0.950 . S
H582 C578 0.950 . S
C583 C581 1.390 1_556 S
C583 C584 1.387 . S
C583 H586 0.950 . S
C584 C583 1.387 . S
C584 C587 1.387 . S
H585 C581 0.950 . S
H586 C583 0.950 . S
C587 C578 1.390 1_556 S
C587 H580 0.950 . S
C587 C584 1.387 . S
C588 C589 1.387 . S
C588 H592 0.950 . S
C588 C597 1.390 . S
C589 C588 1.387 . S
C589 C591 1.387 . S
H590 C597 0.950 . S
C591 C589 1.387 . S
C591 C593 1.390 . S
C591 H595 0.950 . S
H592 C588 0.950 . S
C593 C591 1.390 . S
C593 C594 1.387 . S
C593 H596 0.950 . S
C594 C593 1.387 . S
C594 C597 1.387 . S
H595 C591 0.950 . S
H596 C593 0.950 . S
C597 C588 1.390 . S
C597 H590 0.950 . S
C597 C594 1.387 . S
C598 C599 1.387 . S
C598 H602 0.950 . S
C598 C607 1.390 . S
C599 C598 1.387 . S
C599 C601 1.387 . S
H600 C607 0.950 . S
C601 C599 1.387 . S
C601 C603 1.390 . S
C601 H605 0.950 . S
H602 C598 0.950 . S
C603 C601 1.390 . S
C603 C604 1.387 . S
C603 H606 0.950 . S
C604 C603 1.387 . S
C604 C607 1.387 . S
H605 C601 0.950 . S
H606 C603 0.950 . S
C607 C598 1.390 . S
C607 H600 0.950 . S
C607 C604 1.387 . S
C608 C609 1.387 . S
C608 H612 0.948 1_556 S
C608 C617 1.390 . S
C609 C608 1.387 . S
C609 C611 1.387 . S
H610 C617 0.950 . S
C611 C609 1.387 . S
C611 C613 1.390 . S
C611 H615 0.950 . S
H612 C608 0.948 1_554 S
C613 C611 1.390 . S
C613 C614 1.387 . S
C613 H616 0.950 . S
C614 C613 1.387 . S
C614 C617 1.387 . S
H615 C611 0.950 . S
H616 C613 0.950 . S
C617 C608 1.390 . S
C617 H610 0.950 . S
C617 C614 1.387 . S
C618 C619 1.387 . S
C618 H622 0.950 . S
C618 C627 1.390 . S
C619 C618 1.387 . S
C619 C621 1.387 . S
H620 C627 0.950 . S
C621 C619 1.387 . S
C621 C623 1.390 . S
C621 H625 0.950 . S
H622 C618 0.950 . S
C623 C621 1.390 . S
C623 C624 1.387 . S
C623 H626 0.950 . S
C624 C623 1.387 . S
C624 C627 1.387 . S
H625 C621 0.950 . S
H626 C623 0.950 . S
C627 C618 1.390 . S
C627 H620 0.950 . S
C627 C624 1.387 . S
C628 C629 1.387 . S
C628 H632 0.950 . S
C628 C637 1.390 . S
C629 C628 1.387 . S
C629 C631 1.387 . S
H630 C637 0.950 . S
C631 C629 1.387 . S
C631 C633 1.390 . S
C631 H635 0.950 . S
H632 C628 0.950 . S
C633 C631 1.390 . S
C633 C634 1.387 . S
C633 H636 0.950 . S
C634 C633 1.387 . S
C634 C637 1.387 . S
H635 C631 0.950 . S
H636 C633 0.950 . S
C637 C628 1.390 . S
C637 H630 0.950 . S
C637 C634 1.387 . S
C638 C639 1.387 . S
C638 H642 0.950 . S
C638 C647 1.390 . S
C639 C638 1.387 . S
C639 C641 1.387 . S
H640 C647 0.950 . S
C641 C639 1.387 . S
C641 C643 1.390 . S
C641 H645 0.950 . S
H642 C638 0.950 . S
C643 C641 1.390 . S
C643 C644 1.387 . S
C643 H646 0.950 . S
C644 C643 1.387 . S
C644 C647 1.387 . S
H645 C641 0.950 . S
H646 C643 0.950 . S
C647 C638 1.390 . S
C647 H640 0.950 . S
C647 C644 1.387 . S
C648 C649 1.387 . S
C648 H652 0.950 . S
C648 C657 1.390 . S
C649 C648 1.387 . S
C649 C651 1.387 . S
H650 C657 0.950 . S
C651 C649 1.387 . S
C651 C653 1.390 . S
C651 H655 0.950 . S
H652 C648 0.950 . S
C653 C651 1.390 . S
C653 C654 1.387 . S
C653 H656 0.950 . S
C654 C653 1.387 . S
C654 C657 1.387 . S
H655 C651 0.950 . S
H656 C653 0.950 . S
C657 C648 1.390 . S
C657 H650 0.950 . S
C657 C654 1.387 . S
C658 C659 1.387 . S
C658 H662 0.950 . S
C658 C667 1.390 . S
C659 C658 1.387 . S
C659 C661 1.387 . S
H660 C667 0.950 . S
C661 C659 1.387 . S
C661 C663 1.390 . S
C661 H665 0.950 . S
H662 C658 0.950 . S
C663 C661 1.390 . S
C663 C664 1.387 . S
C663 H666 0.950 . S
C664 C663 1.387 . S
C664 C667 1.387 . S
H665 C661 0.950 . S
H666 C663 0.950 . S
C667 C658 1.390 . S
C667 H660 0.950 . S
C667 C664 1.387 . S
C668 C669 1.387 . S
C668 H672 0.950 . S
C668 C677 1.390 . S
C669 C668 1.387 . S
C669 C671 1.387 . S
H670 C677 0.950 . S
C671 C669 1.387 . S
C671 C673 1.390 . S
C671 H675 0.950 . S
H672 C668 0.950 . S
C673 C671 1.390 . S
C673 C674 1.387 . S
C673 H676 0.950 . S
C674 C673 1.387 . S
C674 C677 1.387 . S
H675 C671 0.950 . S
H676 C673 0.950 . S
C677 C668 1.390 . S
C677 H670 0.950 . S
C677 C674 1.387 . S
C678 C679 1.387 . S
C678 H682 0.950 . S
C678 C687 1.390 . S
C679 C678 1.387 . S
C679 C681 1.387 . S
H680 C687 0.950 . S
C681 C679 1.387 . S
C681 C683 1.390 . S
C681 H685 0.950 . S
H682 C678 0.950 . S
C683 C681 1.390 . S
C683 C684 1.387 . S
C683 H686 0.950 . S
C684 C683 1.387 . S
C684 C687 1.387 . S
H685 C681 0.950 . S
H686 C683 0.950 . S
C687 C678 1.390 . S
C687 H680 0.950 . S
C687 C684 1.387 . S
C688 C689 1.387 . S
C688 H692 0.950 . S
C688 C697 1.390 . S
C689 C688 1.387 . S
C689 C691 1.387 . S
H690 C697 0.950 . S
C691 C689 1.387 . S
C691 C693 1.390 . S
C691 H695 0.950 . S
H692 C688 0.950 . S
C693 C691 1.390 . S
C693 C694 1.387 . S
C693 H696 0.950 . S
C694 C693 1.387 . S
C694 C697 1.387 . S
H695 C691 0.950 . S
H696 C693 0.950 . S
C697 C688 1.390 . S
C697 H690 0.950 . S
C697 C694 1.387 . S
C698 C699 1.387 . S
C698 H702 0.950 . S
C698 C707 1.390 . S
C699 C698 1.387 . S
C699 C701 1.387 . S
H700 C707 0.950 . S
C701 C699 1.387 . S
C701 C703 1.390 . S
C701 H705 0.950 . S
H702 C698 0.950 . S
C703 C701 1.390 . S
C703 C704 1.387 . S
C703 H706 0.950 . S
C704 C703 1.387 . S
C704 C707 1.387 . S
H705 C701 0.950 . S
H706 C703 0.950 . S
C707 C698 1.390 . S
C707 H700 0.950 . S
C707 C704 1.387 . S
C708 C709 1.387 . S
C708 H712 0.950 . S
C708 C717 1.390 . S
C709 C708 1.387 . S
C709 C711 1.387 . S
H710 C717 0.950 . S
C711 C709 1.387 . S
C711 C713 1.390 . S
C711 H715 0.950 . S
H712 C708 0.950 . S
C713 C711 1.390 . S
C713 C714 1.387 . S
C713 H716 0.950 . S
C714 C713 1.387 . S
C714 C717 1.387 . S
H715 C711 0.950 . S
H716 C713 0.950 . S
C717 C708 1.390 . S
C717 H710 0.950 . S
C717 C714 1.387 . S
C718 C719 1.387 . S
C718 H722 0.950 . S
C718 C727 1.390 . S
C719 C718 1.387 . S
C719 C721 1.387 . S
H720 C727 0.950 . S
C721 C719 1.387 . S
C721 C723 1.390 . S
C721 H725 0.950 . S
H722 C718 0.950 . S
C723 C721 1.390 . S
C723 C724 1.387 . S
C723 H726 0.950 . S
C724 C723 1.387 . S
C724 C727 1.387 . S
H725 C721 0.950 . S
H726 C723 0.950 . S
C727 C718 1.390 . S
C727 H720 0.950 . S
C727 C724 1.387 . S
C728 C729 1.387 . S
C728 H732 0.950 . S
C728 C737 1.390 . S
C729 C728 1.387 . S
C729 C731 1.387 . S
H730 C737 0.950 . S
C731 C729 1.387 . S
C731 C733 1.390 . S
C731 H735 0.950 . S
H732 C728 0.950 . S
C733 C731 1.390 . S
C733 C734 1.387 . S
C733 H736 0.950 . S
C734 C733 1.387 . S
C734 C737 1.387 . S
H735 C731 0.950 . S
H736 C733 0.950 . S
C737 C728 1.390 . S
C737 H730 0.950 . S
C737 C734 1.387 . S
C738 C739 1.387 . S
C738 H742 0.950 . S
C738 C747 1.390 . S
C739 C738 1.387 . S
C739 C741 1.387 . S
H740 C747 0.950 . S
C741 C739 1.387 . S
C741 C743 1.390 . S
C741 H745 0.950 . S
H742 C738 0.950 . S
C743 C741 1.390 . S
C743 C744 1.387 . S
C743 H746 0.950 . S
C744 C743 1.387 . S
C744 C747 1.387 . S
H745 C741 0.950 . S
H746 C743 0.950 . S
C747 C738 1.390 . S
C747 H740 0.950 . S
C747 C744 1.387 . S
C748 C749 1.387 . S
C748 H752 0.950 . S
C748 C757 1.390 . S
C749 C748 1.387 . S
C749 C751 1.387 . S
H750 C757 0.950 . S
C751 C749 1.387 . S
C751 C753 1.390 . S
C751 H755 0.950 1_554 S
H752 C748 0.950 . S
C753 C751 1.390 . S
C753 C754 1.387 . S
C753 H756 0.950 . S
C754 C753 1.387 . S
C754 C757 1.387 . S
H755 C751 0.950 1_556 S
H756 C753 0.950 . S
C757 C748 1.390 . S
C757 H750 0.950 . S
C757 C754 1.387 . S
C758 C759 1.387 . S
C758 H762 0.950 . S
C758 C767 1.390 . S
C759 C758 1.387 . S
C759 C761 1.387 . S
H760 C767 0.950 . S
C761 C759 1.387 . S
C761 C763 1.390 . S
C761 H765 0.950 . S
H762 C758 0.950 . S
C763 C761 1.390 . S
C763 C764 1.387 . S
C763 H766 0.950 . S
C764 C763 1.387 . S
C764 C767 1.387 . S
H765 C761 0.950 . S
H766 C763 0.950 . S
C767 C758 1.390 . S
C767 H760 0.950 . S
C767 C764 1.387 . S
C768 C769 1.387 . S
C768 H772 0.950 . S
C768 C777 1.390 . S
C769 C768 1.387 . S
C769 C771 1.387 . S
H770 C777 0.950 . S
C771 C769 1.387 . S
C771 C773 1.390 . S
C771 H775 0.950 1_554 S
H772 C768 0.950 . S
C773 C771 1.390 . S
C773 C774 1.387 . S
C773 H776 0.950 1_554 S
C774 C773 1.387 . S
C774 C777 1.387 . S
H775 C771 0.950 1_556 S
H776 C773 0.950 1_556 S
C777 C768 1.390 . S
C777 H770 0.950 . S
C777 C774 1.387 . S
C778 C779 1.387 . S
C778 H782 0.950 . S
C778 C787 1.390 1_655 S
C779 C778 1.387 . S
C779 C781 1.387 . S
H780 C787 0.950 . S
C781 C779 1.387 . S
C781 C783 1.390 1_655 S
C781 H785 0.950 . S
H782 C778 0.950 . S
C783 C781 1.390 1_455 S
C783 C784 1.387 . S
C783 H786 0.950 . S
C784 C783 1.387 . S
C784 C787 1.387 . S
H785 C781 0.950 . S
H786 C783 0.950 . S
C787 C778 1.390 1_455 S
C787 H780 0.950 . S
C787 C784 1.387 . S
C788 C789 1.387 . S
C788 H792 0.950 . S
C788 C797 1.390 . S
C789 C788 1.387 . S
C789 C791 1.387 . S
H790 C797 0.950 . S
C791 C789 1.387 . S
C791 C793 1.390 . S
C791 H795 0.950 . S
H792 C788 0.950 . S
C793 C791 1.390 . S
C793 C794 1.387 . S
C793 H796 0.950 . S
C794 C793 1.387 . S
C794 C797 1.387 . S
H795 C791 0.950 . S
H796 C793 0.950 . S
C797 C788 1.390 . S
C797 H790 0.950 . S
C797 C794 1.387 . S
C798 C799 1.387 . S
C798 H802 0.950 . S
C798 C807 1.390 . S
C799 C798 1.387 . S
C799 C801 1.387 . S
H800 C807 0.950 . S
C801 C799 1.387 . S
C801 C803 1.390 . S
C801 H805 0.950 . S
H802 C798 0.950 . S
C803 C801 1.390 . S
C803 C804 1.387 . S
C803 H806 0.950 . S
C804 C803 1.387 . S
C804 C807 1.387 . S
H805 C801 0.950 . S
H806 C803 0.950 . S
C807 C798 1.390 . S
C807 H800 0.950 . S
C807 C804 1.387 . S
C808 C809 1.387 . S
C808 H812 0.950 . S
C808 C817 1.390 . S
C809 C808 1.387 . S
C809 C811 1.387 . S
H810 C817 0.950 . S
C811 C809 1.387 . S
C811 C813 1.390 . S
C811 H815 0.950 . S
H812 C808 0.950 . S
C813 C811 1.390 . S
C813 C814 1.387 . S
C813 H816 0.950 . S
C814 C813 1.387 . S
C814 C817 1.387 . S
H815 C811 0.950 . S
H816 C813 0.950 . S
C817 C808 1.390 . S
C817 H810 0.950 . S
C817 C814 1.387 . S
C818 C819 1.387 . S
C818 H822 0.950 . S
C818 C827 1.390 . S
C819 C818 1.387 . S
C819 C821 1.387 . S
H820 C827 0.950 . S
C821 C819 1.387 . S
C821 C823 1.390 . S
C821 H825 0.950 . S
H822 C818 0.950 . S
C823 C821 1.390 . S
C823 C824 1.387 . S
C823 H826 0.950 . S
C824 C823 1.387 . S
C824 C827 1.387 . S
H825 C821 0.950 . S
H826 C823 0.950 . S
C827 C818 1.390 . S
C827 H820 0.950 . S
C827 C824 1.387 . S
C828 C829 1.387 . S
C828 H832 0.950 . S
C828 C837 1.390 . S
C829 C828 1.387 . S
C829 C831 1.387 . S
H830 C837 0.950 . S
C831 C829 1.387 . S
C831 C833 1.390 . S
C831 H835 0.950 . S
H832 C828 0.950 . S
C833 C831 1.390 . S
C833 C834 1.387 . S
C833 H836 0.950 . S
C834 C833 1.387 . S
C834 C837 1.387 . S
H835 C831 0.950 . S
H836 C833 0.950 . S
C837 C828 1.390 . S
C837 H830 0.950 . S
C837 C834 1.387 . S
C838 C839 1.387 . S
C838 H842 0.950 . S
C838 C847 1.390 1_655 S
C839 C838 1.387 . S
C839 C841 1.387 . S
H840 C847 0.950 . S
C841 C839 1.387 . S
C841 C843 1.390 1_655 S
C841 H845 0.950 . S
H842 C838 0.950 . S
C843 C841 1.390 1_455 S
C843 C844 1.387 . S
C843 H846 0.950 . S
C844 C843 1.387 . S
C844 C847 1.387 . S
H845 C841 0.950 . S
H846 C843 0.950 . S
C847 C838 1.390 1_455 S
C847 H840 0.950 . S
C847 C844 1.387 . S
C848 C849 1.387 . S
C848 H852 0.950 . S
C848 C857 1.390 . S
C849 C848 1.387 . S
C849 C851 1.387 . S
H850 C857 0.950 . S
C851 C849 1.387 . S
C851 C853 1.390 . S
C851 H855 0.950 1_556 S
H852 C848 0.950 . S
C853 C851 1.390 . S
C853 C854 1.387 . S
C853 H856 0.950 1_556 S
C854 C853 1.387 . S
C854 C857 1.387 . S
H855 C851 0.950 1_554 S
H856 C853 0.950 1_554 S
C857 C848 1.390 . S
C857 H850 0.950 . S
C857 C854 1.387 . S
C858 C859 1.387 . S
C858 H862 0.950 . S
C858 C867 1.390 . S
C859 C858 1.387 . S
C859 C861 1.387 . S
H860 C867 0.950 . S
C861 C859 1.387 . S
C861 C863 1.390 . S
C861 H865 0.950 . S
H862 C858 0.950 . S
C863 C861 1.390 . S
C863 C864 1.387 . S
C863 H866 0.950 . S
C864 C863 1.387 . S
C864 C867 1.387 . S
H865 C861 0.950 . S
H866 C863 0.950 . S
C867 C858 1.390 . S
C867 H860 0.950 . S
C867 C864 1.387 . S
C868 C869 1.387 . S
C868 H872 0.950 . S
C868 C877 1.390 . S
C869 C868 1.387 . S
C869 C871 1.387 . S
H870 C877 0.950 . S
C871 C869 1.387 . S
C871 C873 1.390 . S
C871 H875 0.950 . S
H872 C868 0.950 . S
C873 C871 1.390 . S
C873 C874 1.387 . S
C873 H876 0.950 . S
C874 C873 1.387 . S
C874 C877 1.387 . S
H875 C871 0.950 . S
H876 C873 0.950 . S
C877 C868 1.390 . S
C877 H870 0.950 . S
C877 C874 1.387 . S
C878 C879 1.387 . S
C878 H882 0.950 . S
C878 C887 1.390 . S
C879 C878 1.387 . S
C879 C881 1.387 . S
H880 C887 0.950 . S
C881 C879 1.387 . S
C881 C883 1.390 . S
C881 H885 0.950 . S
H882 C878 0.950 . S
C883 C881 1.390 . S
C883 C884 1.387 . S
C883 H886 0.950 . S
C884 C883 1.387 . S
C884 C887 1.387 . S
H885 C881 0.950 . S
H886 C883 0.950 . S
C887 C878 1.390 . S
C887 H880 0.950 . S
C887 C884 1.387 . S
C888 C889 1.387 . S
C888 H892 0.950 . S
C888 C897 1.390 . S
C889 C888 1.387 . S
C889 C891 1.387 . S
H890 C897 0.950 . S
C891 C889 1.387 . S
C891 C893 1.390 . S
C891 H895 0.950 . S
H892 C888 0.950 . S
C893 C891 1.390 . S
C893 C894 1.387 . S
C893 H896 0.950 . S
C894 C893 1.387 . S
C894 C897 1.387 . S
H895 C891 0.950 . S
H896 C893 0.950 . S
C897 C888 1.390 . S
C897 H890 0.950 . S
C897 C894 1.387 . S
C898 C899 1.387 . S
C898 H902 0.950 . S
C898 C907 1.390 1_655 S
C899 C898 1.387 . S
C899 C901 1.387 . S
H900 C907 0.950 . S
C901 C899 1.387 . S
C901 C903 1.390 1_655 S
C901 H905 0.950 . S
H902 C898 0.950 . S
C903 C901 1.390 1_455 S
C903 C904 1.387 . S
C903 H906 0.950 . S
C904 C903 1.387 . S
C904 C907 1.387 . S
H905 C901 0.950 . S
H906 C903 0.950 . S
C907 C898 1.390 1_455 S
C907 H900 0.950 . S
C907 C904 1.387 . S
C908 C909 1.387 . S
C908 H912 0.950 . S
C908 C917 1.390 1_655 S
C909 C908 1.387 . S
C909 C911 1.387 . S
H910 C917 0.950 . S
C911 C909 1.387 . S
C911 C913 1.390 1_655 S
C911 H915 0.950 . S
H912 C908 0.950 . S
C913 C911 1.390 1_455 S
C913 C914 1.387 . S
C913 H916 0.950 . S
C914 C913 1.387 . S
C914 C917 1.387 . S
H915 C911 0.950 . S
H916 C913 0.950 . S
C917 C908 1.390 1_455 S
C917 H910 0.950 . S
C917 C914 1.387 . S
C918 C919 1.387 . S
C918 H922 0.950 . S
C918 C927 1.390 . S
C919 C918 1.387 . S
C919 C921 1.387 . S
H920 C927 0.950 . S
C921 C919 1.387 . S
C921 C923 1.390 . S
C921 H925 0.950 . S
H922 C918 0.950 . S
C923 C921 1.390 . S
C923 C924 1.387 . S
C923 H926 0.950 . S
C924 C923 1.387 . S
C924 C927 1.387 . S
H925 C921 0.950 . S
H926 C923 0.950 . S
C927 C918 1.390 . S
C927 H920 0.950 . S
C927 C924 1.387 . S
C928 C929 1.387 . S
C928 H932 0.950 . S
C928 C937 1.390 . S
C929 C928 1.387 . S
C929 C931 1.387 . S
H930 C937 0.950 . S
C931 C929 1.387 . S
C931 C933 1.390 . S
C931 H935 0.950 . S
H932 C928 0.950 . S
C933 C931 1.390 . S
C933 C934 1.387 . S
C933 H936 0.950 . S
C934 C933 1.387 . S
C934 C937 1.387 . S
H935 C931 0.950 . S
H936 C933 0.950 . S
C937 C928 1.390 . S
C937 H930 0.950 . S
C937 C934 1.387 . S
C938 C939 1.387 . S
C938 H942 0.950 . S
C938 C947 1.390 . S
C939 C938 1.387 . S
C939 C941 1.387 . S
H940 C947 0.950 . S
C941 C939 1.387 . S
C941 C943 1.390 . S
C941 H945 0.950 . S
H942 C938 0.950 . S
C943 C941 1.390 . S
C943 C944 1.387 . S
C943 H946 0.950 . S
C944 C943 1.387 . S
C944 C947 1.387 . S
H945 C941 0.950 . S
H946 C943 0.950 . S
C947 C938 1.390 . S
C947 H940 0.950 . S
C947 C944 1.387 . S
C948 C949 1.387 . S
C948 H952 0.950 . S
C948 C957 1.390 . S
C949 C948 1.387 . S
C949 C951 1.387 . S
H950 C957 0.950 . S
C951 C949 1.387 . S
C951 C953 1.390 . S
C951 H955 0.950 . S
H952 C948 0.950 . S
C953 C951 1.390 . S
C953 C954 1.387 . S
C953 H956 0.950 . S
C954 C953 1.387 . S
C954 C957 1.387 . S
H955 C951 0.950 . S
H956 C953 0.950 . S
C957 C948 1.390 . S
C957 H950 0.950 . S
C957 C954 1.387 . S
C958 C959 1.387 . S
C958 H962 0.950 . S
C958 C967 1.390 . S
C959 C958 1.387 . S
C959 C961 1.387 . S
H960 C967 0.950 . S
C961 C959 1.387 . S
C961 C963 1.390 . S
C961 H965 0.950 . S
H962 C958 0.950 . S
C963 C961 1.390 . S
C963 C964 1.387 . S
C963 H966 0.950 . S
C964 C963 1.387 . S
C964 C967 1.387 . S
H965 C961 0.950 . S
H966 C963 0.950 . S
C967 C958 1.390 . S
C967 H960 0.950 . S
C967 C964 1.387 . S
C968 C969 1.387 . S
C968 H972 0.950 . S
C968 C977 1.390 . S
C969 C968 1.387 . S
C969 C971 1.387 . S
H970 C977 0.950 . S
C971 C969 1.387 . S
C971 C973 1.390 . S
C971 H975 0.950 . S
H972 C968 0.950 . S
C973 C971 1.390 . S
C973 C974 1.387 . S
C973 H976 0.950 . S
C974 C973 1.387 . S
C974 C977 1.387 . S
H975 C971 0.950 . S
H976 C973 0.950 . S
C977 C968 1.390 . S
C977 H970 0.950 . S
C977 C974 1.387 . S
C978 C979 1.387 . S
C978 H982 0.950 . S
C978 C987 1.390 . S
C979 C978 1.387 . S
C979 C981 1.387 . S
H980 C987 0.950 . S
C981 C979 1.387 . S
C981 C983 1.390 . S
C981 H985 0.950 . S
H982 C978 0.950 . S
C983 C981 1.390 . S
C983 C984 1.387 . S
C983 H986 0.950 . S
C984 C983 1.387 . S
C984 C987 1.387 . S
H985 C981 0.950 . S
H986 C983 0.950 . S
C987 C978 1.390 . S
C987 H980 0.950 . S
C987 C984 1.387 . S
C988 C989 1.387 . S
C988 H992 0.950 . S
C988 C997 1.390 . S
C989 C988 1.387 . S
C989 C991 1.387 . S
H990 C997 0.950 . S
C991 C989 1.387 . S
C991 C993 1.390 . S
C991 H995 0.950 . S
H992 C988 0.950 . S
C993 C991 1.390 . S
C993 C994 1.387 . S
C993 H996 0.950 . S
C994 C993 1.387 . S
C994 C997 1.387 . S
H995 C991 0.950 . S
H996 C993 0.950 . S
C997 C988 1.390 . S
C997 H990 0.950 . S
C997 C994 1.387 . S
C998 C999 1.387 . S
C998 H1002 0.950 . S
C998 C1007 1.390 . S
C999 C998 1.387 . S
C999 C1001 1.387 . S
H1000 C1007 0.950 . S
C1001 C999 1.387 . S
C1001 C1003 1.390 . S
C1001 H1005 0.950 . S
H1002 C998 0.950 . S
C1003 C1001 1.390 . S
C1003 C1004 1.387 . S
C1003 H1006 0.950 . S
C1004 C1003 1.387 . S
C1004 C1007 1.387 . S
H1005 C1001 0.950 . S
H1006 C1003 0.950 . S
C1007 C998 1.390 . S
C1007 H1000 0.950 . S
C1007 C1004 1.387 . S
C1008 C1009 1.387 . S
C1008 H1012 0.950 . S
C1008 C1017 1.390 . S
C1009 C1008 1.387 . S
C1009 C1011 1.387 . S
H1010 C1017 0.950 . S
C1011 C1009 1.387 . S
C1011 C1013 1.390 . S
C1011 H1015 0.950 . S
H1012 C1008 0.950 . S
C1013 C1011 1.390 . S
C1013 C1014 1.387 . S
C1013 H1016 0.950 . S
C1014 C1013 1.387 . S
C1014 C1017 1.387 . S
H1015 C1011 0.950 . S
H1016 C1013 0.950 . S
C1017 C1008 1.390 . S
C1017 H1010 0.950 . S
C1017 C1014 1.387 . S
C1018 C1019 1.387 . S
C1018 H1022 0.950 . S
C1018 C1027 1.390 . S
C1019 C1018 1.387 . S
C1019 C1021 1.387 . S
H1020 C1027 0.950 . S
C1021 C1019 1.387 . S
C1021 C1023 1.390 . S
C1021 H1025 0.950 . S
H1022 C1018 0.950 . S
C1023 C1021 1.390 . S
C1023 C1024 1.387 . S
C1023 H1026 0.950 . S
C1024 C1023 1.387 . S
C1024 C1027 1.387 . S
H1025 C1021 0.950 . S
H1026 C1023 0.950 . S
C1027 C1018 1.390 . S
C1027 H1020 0.950 . S
C1027 C1024 1.387 . S
C1028 C1029 1.387 . S
C1028 H1032 0.950 . S
C1028 C1037 1.390 . S
C1029 C1028 1.387 . S
C1029 C1031 1.387 . S
H1030 C1037 0.950 . S
C1031 C1029 1.387 . S
C1031 C1033 1.390 . S
C1031 H1035 0.950 . S
H1032 C1028 0.950 . S
C1033 C1031 1.390 . S
C1033 C1034 1.387 . S
C1033 H1036 0.950 . S
C1034 C1033 1.387 . S
C1034 C1037 1.387 . S
H1035 C1031 0.950 . S
H1036 C1033 0.950 . S
C1037 C1028 1.390 . S
C1037 H1030 0.950 . S
C1037 C1034 1.387 . S
C1038 C1039 1.387 . S
C1038 H1042 0.950 . S
C1038 C1047 1.390 . S
C1039 C1038 1.387 . S
C1039 C1041 1.387 . S
H1040 C1047 0.950 . S
C1041 C1039 1.387 . S
C1041 C1043 1.390 . S
C1041 H1045 0.950 . S
H1042 C1038 0.950 . S
C1043 C1041 1.390 . S
C1043 C1044 1.387 . S
C1043 H1046 0.950 . S
C1044 C1043 1.387 . S
C1044 C1047 1.387 . S
H1045 C1041 0.950 . S
H1046 C1043 0.950 . S
C1047 C1038 1.390 . S
C1047 H1040 0.950 . S
C1047 C1044 1.387 . S
C1048 C1049 1.387 . S
C1048 H1052 0.950 . S
C1048 C1057 1.390 . S
C1049 C1048 1.387 . S
C1049 C1051 1.387 . S
H1050 C1057 0.950 . S
C1051 C1049 1.387 . S
C1051 C1053 1.390 . S
C1051 H1055 0.950 . S
H1052 C1048 0.950 . S
C1053 C1051 1.390 . S
C1053 C1054 1.387 . S
C1053 H1056 0.950 . S
C1054 C1053 1.387 . S
C1054 C1057 1.387 . S
H1055 C1051 0.950 . S
H1056 C1053 0.950 . S
C1057 C1048 1.390 . S
C1057 H1050 0.950 . S
C1057 C1054 1.387 . S
C1058 C1059 1.387 . S
C1058 H1062 0.950 . S
C1058 C1067 1.390 . S
C1059 C1058 1.387 . S
C1059 C1061 1.387 . S
H1060 C1067 0.950 . S
C1061 C1059 1.387 . S
C1061 C1063 1.390 . S
C1061 H1065 0.950 . S
H1062 C1058 0.950 . S
C1063 C1061 1.390 . S
C1063 C1064 1.387 . S
C1063 H1066 0.950 . S
C1064 C1063 1.387 . S
C1064 C1067 1.387 . S
H1065 C1061 0.950 . S
H1066 C1063 0.950 . S
C1067 C1058 1.390 . S
C1067 H1060 0.950 . S
C1067 C1064 1.387 . S
C1068 C1069 1.387 . S
C1068 H1072 0.950 . S
C1068 C1077 1.390 . S
C1069 C1068 1.387 . S
C1069 C1071 1.387 . S
H1070 C1077 0.950 . S
C1071 C1069 1.387 . S
C1071 C1073 1.390 . S
C1071 H1075 0.950 . S
H1072 C1068 0.950 . S
C1073 C1071 1.390 . S
C1073 C1074 1.387 . S
C1073 H1076 0.950 . S
C1074 C1073 1.387 . S
C1074 C1077 1.387 . S
H1075 C1071 0.950 . S
H1076 C1073 0.950 . S
C1077 C1068 1.390 . S
C1077 H1070 0.950 . S
C1077 C1074 1.387 . S
C1078 C1079 1.387 . S
C1078 H1082 0.950 . S
C1078 C1087 1.390 . S
C1079 C1078 1.387 . S
C1079 C1081 1.387 . S
H1080 C1087 0.950 . S
C1081 C1079 1.387 . S
C1081 C1083 1.390 . S
C1081 H1085 0.950 . S
H1082 C1078 0.950 . S
C1083 C1081 1.390 . S
C1083 C1084 1.387 . S
C1083 H1086 0.950 . S
C1084 C1083 1.387 . S
C1084 C1087 1.387 . S
H1085 C1081 0.950 . S
H1086 C1083 0.950 . S
C1087 C1078 1.390 . S
C1087 H1080 0.950 . S
C1087 C1084 1.387 . S
C449 C89 1.491 . S
C454 C5 1.491 . S
C459 C19 1.491 . S
C464 C103 1.491 . S
C469 C61 1.491 . S
C474 C33 1.491 . S
C479 C47 1.491 . S
C484 C75 1.491 . S
C489 C117 1.491 . S
C494 C201 1.491 . S
C499 C215 1.491 . S
C504 C131 1.491 . S
C509 C145 1.491 . S
C514 C173 1.491 . S
C519 C187 1.491 . S
C524 C159 1.491 . S
C529 C229 1.491 . S
C534 C313 1.491 . S
C539 C243 1.491 . S
C544 C327 1.491 . S
C549 C285 1.491 . S
C554 C257 1.491 . S
C559 C299 1.491 . S
C564 C271 1.491 . S
C569 C341 1.491 . S
C574 C425 1.491 . S
C579 C355 1.491 . S
C584 C439 1.491 . S
C589 C397 1.491 . S
C594 C369 1.491 . S
C599 C383 1.491 . S
C604 C411 1.491 . S
C609 C11 1.474 1_556 S
C614 C109 1.475 . S
C619 C67 1.474 1_554 S
C624 C25 1.474 . S
C629 C81 1.474 . S
C634 C39 1.474 . S
C639 C53 1.475 . S
C644 C95 1.474 . S
C649 C123 1.474 1_554 S
C654 C221 1.474 . S
C659 C179 1.475 1_556 S
C664 C137 1.474 . S
C669 C193 1.475 . S
C674 C151 1.474 . S
C679 C207 1.474 . S
C684 C165 1.475 . S
C689 C235 1.475 . S
C694 C333 1.475 . S
C699 C249 1.474 . S
C704 C291 1.475 . S
C709 C305 1.475 . S
C714 C263 1.474 1_556 S
C719 C277 1.474 . S
C724 C319 1.474 1_554 S
C729 C347 1.475 . S
C734 C445 1.475 . S
C739 C403 1.475 . S
C744 C361 1.474 . S
C749 C375 1.474 1_554 S
C754 C417 1.475 . S
C759 C389 1.475 . S
C764 C431 1.474 1_556 S
C769 C420 1.489 . S
C774 C0 1.490 . S
C779 C210 1.490 . S
C784 C14 1.489 . S
C789 C28 1.489 . S
C794 C392 1.491 . S
C799 C42 1.489 . S
C804 C182 1.491 . S
C809 C56 1.491 . S
C814 C364 1.489 . S
C819 C70 1.491 . S
C824 C154 1.489 . S
C829 C84 1.490 . S
C834 C336 1.489 . S
C839 C126 1.489 . S
C844 C98 1.490 . S
C849 C308 1.490 . S
C854 C112 1.489 . S
C859 C140 1.490 . S
C864 C280 1.490 . S
C869 C252 1.491 . S
C874 C168 1.489 . S
C879 C224 1.489 . S
C884 C196 1.490 . S
C889 C238 1.490 . S
C894 C434 1.489 . S
C899 C266 1.491 . S
C904 C406 1.489 . S
C909 C294 1.489 . S
C914 C378 1.491 . S
C919 C350 1.489 . S
C924 C322 1.490 . S
C929 C9 1.514 . S
C934 C107 1.514 . S
C939 C23 1.514 . S
C944 C65 1.514 . S
C949 C79 1.514 1_556 S
C954 C37 1.514 . S
C959 C51 1.514 1_554 S
C964 C93 1.514 . S
C969 C219 1.514 . S
C974 C121 1.514 . S
C979 C177 1.514 . S
C984 C135 1.514 . S
C989 C149 1.514 . S
C994 C191 1.514 1_554 S
C999 C205 1.514 . S
C1004 C163 1.514 1_556 S
C1009 C331 1.514 1_556 S
C1014 C233 1.514 . S
C1019 C289 1.514 . S
C1024 C247 1.514 1_554 S
C1029 C303 1.514 . S
C1034 C261 1.514 . S
C1039 C317 1.514 . S
C1044 C275 1.514 . S
C1049 C345 1.514 . S
C1054 C443 1.514 1_554 S
C1059 C359 1.514 1_556 S
C1064 C401 1.514 . S
C1069 C373 1.514 . S
C1074 C415 1.514 . S
C1079 C429 1.514 . S
C1084 C387 1.514 . S
