# Generated by pormake.
# Topology uog, (4)-cn, num edge types: 1
# Building blocks:
#     Node 0, Type 0, BuildingBlock: QUQFOY_clean_sbu_3, # of connection points: 4
#     Node 1, Type 0, BuildingBlock: QUQFOY_clean_sbu_3, # of connection points: 4
#     Node 2, Type 0, BuildingBlock: QUQFOY_clean_sbu_3, # of connection points: 4
#     Node 3, Type 0, BuildingBlock: QUQFOY_clean_sbu_3, # of connection points: 4
#     Node 4, Type 0, BuildingBlock: QUQFOY_clean_sbu_3, # of connection points: 4
#     Node 5, Type 0, BuildingBlock: QUQFOY_clean_sbu_3, # of connection points: 4
#     Edge 6, Type (0, 0), BuildingBlock: KIFKEQ_clean_linker_1, # of connection points: 2
#     Edge 7, Type (0, 0), BuildingBlock: KIFKEQ_clean_linker_1, # of connection points: 2
#     Edge 8, Type (0, 0), BuildingBlock: KIFKEQ_clean_linker_1, # of connection points: 2
#     Edge 9, Type (0, 0), BuildingBlock: KIFKEQ_clean_linker_1, # of connection points: 2
#     Edge 10, Type (0, 0), BuildingBlock: KIFKEQ_clean_linker_1, # of connection points: 2
#     Edge 11, Type (0, 0), BuildingBlock: KIFKEQ_clean_linker_1, # of connection points: 2
#     Edge 12, Type (0, 0), BuildingBlock: KIFKEQ_clean_linker_1, # of connection points: 2
#     Edge 13, Type (0, 0), BuildingBlock: KIFKEQ_clean_linker_1, # of connection points: 2
#     Edge 14, Type (0, 0), BuildingBlock: KIFKEQ_clean_linker_1, # of connection points: 2
#     Edge 15, Type (0, 0), BuildingBlock: KIFKEQ_clean_linker_1, # of connection points: 2
#     Edge 16, Type (0, 0), BuildingBlock: KIFKEQ_clean_linker_1, # of connection points: 2
#     Edge 17, Type (0, 0), BuildingBlock: KIFKEQ_clean_linker_1, # of connection points: 2
# Relax obj value: 0.081
# Max RMSD: 0.177
# Mean RMSD: 0.177
data_MOF--net-uog--node1-QUQFOY_clean_sbu_3--edge1-KIFKEQ_clean_linker_1
_symmetry_space_group_name_H-M    P1
_symmetry_Int_Tables_number       1
_symmetry_cell_setting            triclinic
loop_
_symmetry_equiv_pos_as_xyz
'x, y, z'
_cell_length_a     29.669496
_cell_length_b     29.70849
_cell_length_c     44.170518
_cell_angle_alpha  90.077467
_cell_angle_beta   90.088969
_cell_angle_gamma 120.01453
loop_
_atom_site_label
_atom_site_type_symbol
_atom_site_fract_x
_atom_site_fract_y
_atom_site_fract_z
_atom_type_partial_charge
C0 C 0.71201 0.35896 0.19501 0.0
O1 O 0.74245 0.39686 0.17838 0.0
Cd2 Cd 0.70422 0.41266 0.13381 0.0
O3 O 0.66586 0.32805 0.18629 0.0
Cd4 Cd 0.60263 0.30236 0.1461 0.0
C5 C 0.596 0.40743 0.16748 0.0
O6 O 0.65693 0.33864 0.10105 0.0
O7 O 0.57484 0.31485 0.09783 0.0
O8 O 0.60633 0.22363 0.14972 0.0
C9 C 0.61881 0.33349 0.08504 0.0
O10 O 0.6405 0.43256 0.15494 0.0
C11 C 0.55777 0.19286 0.15236 0.0
O12 O 0.57255 0.3579 0.16947 0.0
O13 O 0.5285 0.21289 0.15191 0.0
C14 C 0.34791 0.7062 0.5286 0.0
O15 O 0.34349 0.73913 0.51252 0.0
Cd16 Cd 0.28992 0.70513 0.46745 0.0
O17 O 0.33137 0.66055 0.51864 0.0
Cd18 Cd 0.29569 0.60386 0.47524 0.0
C19 C 0.1849 0.59564 0.49838 0.0
O20 O 0.31479 0.6608 0.43123 0.0
O21 O 0.25015 0.58144 0.42816 0.0
O22 O 0.37817 0.60744 0.47627 0.0
C23 C 0.27871 0.62486 0.4154 0.0
O24 O 0.20494 0.64107 0.48705 0.0
C25 C 0.36066 0.55882 0.47738 0.0
O26 O 0.21056 0.57164 0.49937 0.0
O27 O 0.31132 0.52942 0.47704 0.0
C28 C 0.63032 0.34236 0.86207 0.0
O29 O 0.59213 0.33504 0.84561 0.0
Cd30 Cd 0.57553 0.28232 0.80041 0.0
O31 O 0.66163 0.32803 0.85282 0.0
Cd32 Cd 0.6868 0.29266 0.81117 0.0
C33 C 0.58341 0.17952 0.83205 0.0
O34 O 0.64864 0.31095 0.76695 0.0
O35 O 0.67279 0.25318 0.76252 0.0
O36 O 0.76554 0.37544 0.81439 0.0
C37 C 0.65359 0.27851 0.75036 0.0
O38 O 0.55739 0.1986 0.82027 0.0
C39 C 0.79663 0.35793 0.81628 0.0
O40 O 0.63302 0.2062 0.83378 0.0
O41 O 0.77673 0.30869 0.81567 0.0
C42 C 0.276 0.63269 0.19316 0.0
O43 O 0.2498 0.59377 0.17602 0.0
Cd44 Cd 0.28971 0.58296 0.13096 0.0
O45 O 0.32137 0.66793 0.18564 0.0
Cd46 Cd 0.38711 0.69857 0.14628 0.0
C47 C 0.40107 0.59655 0.16584 0.0
O48 O 0.33375 0.66028 0.10115 0.0
O49 O 0.41699 0.69067 0.09736 0.0
O50 O 0.38065 0.77607 0.15028 0.0
C51 C 0.37251 0.66847 0.08485 0.0
O52 O 0.35736 0.5697 0.15255 0.0
C53 C 0.42899 0.80768 0.15333 0.0
O54 O 0.42163 0.64579 0.16873 0.0
O55 O 0.45908 0.78861 0.15325 0.0
C56 C 0.63761 0.28323 0.52774 0.0
O57 O 0.64534 0.25284 0.51116 0.0
Cd58 Cd 0.69914 0.28984 0.46659 0.0
O59 O 0.65152 0.32884 0.51871 0.0
Cd60 Cd 0.68619 0.38897 0.47686 0.0
C61 C 0.79988 0.40147 0.49931 0.0
O62 O 0.67153 0.33401 0.43229 0.0
O63 O 0.72863 0.4164 0.42931 0.0
O64 O 0.60205 0.38246 0.47771 0.0
C65 C 0.70475 0.37222 0.41656 0.0
O66 O 0.78159 0.35645 0.48753 0.0
C67 C 0.61844 0.43081 0.47985 0.0
O68 O 0.77256 0.42373 0.50054 0.0
O69 O 0.66762 0.46105 0.48063 0.0
C70 C 0.35258 0.63425 0.86299 0.0
O71 O 0.39054 0.64186 0.84631 0.0
Cd72 Cd 0.40478 0.69273 0.80067 0.0
O73 O 0.32014 0.64715 0.85378 0.0
Cd74 Cd 0.29255 0.67991 0.81191 0.0
C75 C 0.39479 0.79451 0.8323 0.0
O76 O 0.33104 0.66286 0.7674 0.0
O77 O 0.30553 0.71966 0.76361 0.0
O78 O 0.21442 0.5964 0.81475 0.0
C79 C 0.32534 0.69514 0.75114 0.0
O80 O 0.42124 0.776 0.82044 0.0
C81 C 0.18292 0.6134 0.81686 0.0
O82 O 0.34526 0.76708 0.83424 0.0
O83 O 0.20234 0.66258 0.81664 0.0
H84 H 0.45921 0.11324 0.14018 0.0
H85 H 0.61038 0.1452 0.17136 0.0
H86 H 0.42848 0.02016 0.14157 0.0
H87 H 0.57932 0.05261 0.17437 0.0
H88 H 0.52773 0.88773 0.14305 0.0
H89 H 0.55772 0.98054 0.1439 0.0
H90 H 0.40451 0.94741 0.17201 0.0
H91 H 0.37421 0.8548 0.16955 0.0
C92 C 0.48555 0.10026 0.1478 0.0
C93 C 0.53722 0.13639 0.15543 0.0
C94 C 0.46797 0.04689 0.14877 0.0
C95 C 0.50148 0.02854 0.15791 0.0
C96 C 0.5527 0.06502 0.16648 0.0
C97 C 0.57045 0.11821 0.16499 0.0
C98 C 0.50066 0.90044 0.14954 0.0
C99 C 0.44864 0.86408 0.15609 0.0
C100 C 0.51783 0.9537 0.15021 0.0
C101 C 0.48355 0.97181 0.15795 0.0
C102 C 0.43181 0.93515 0.16528 0.0
C103 C 0.41449 0.88197 0.16412 0.0
H104 H 0.34213 0.461 0.46332 0.0
H105 H 0.46148 0.61118 0.49557 0.0
H106 H 0.40476 0.43041 0.4639 0.0
H107 H 0.52318 0.58027 0.49774 0.0
H108 H 0.63713 0.52916 0.46826 0.0
H109 H 0.57403 0.55895 0.4675 0.0
H110 H 0.45299 0.40582 0.49467 0.0
H111 H 0.51557 0.37574 0.49383 0.0
C112 C 0.38156 0.48719 0.47089 0.0
C113 C 0.397 0.5385 0.47918 0.0
C114 C 0.4175 0.46969 0.4714 0.0
C115 C 0.46939 0.50292 0.48073 0.0
C116 C 0.48414 0.55388 0.4897 0.0
C117 C 0.44856 0.57153 0.48869 0.0
C118 C 0.59705 0.50204 0.47413 0.0
C119 C 0.58127 0.45017 0.48101 0.0
C120 C 0.56079 0.51908 0.47386 0.0
C121 C 0.50811 0.48482 0.481 0.0
C122 C 0.49279 0.43311 0.48841 0.0
C123 C 0.52883 0.41593 0.48819 0.0
H124 H 0.84514 0.45894 0.83415 0.0
H125 H 0.87587 0.33872 0.80378 0.0
H126 H 0.93799 0.5204 0.8365 0.0
H127 H 0.96914 0.40092 0.80456 0.0
H128 H 0.13492 0.51164 0.83309 0.0
H129 H 0.0421 0.44982 0.83517 0.0
H130 H 0.01017 0.57 0.80585 0.0
H131 H 0.1033 0.63244 0.80535 0.0
C132 C 0.87189 0.44574 0.8278 0.0
C133 C 0.85329 0.39404 0.81871 0.0
C134 C 0.92522 0.48115 0.8289 0.0
C135 C 0.9614 0.46603 0.82046 0.0
C136 C 0.94264 0.41396 0.81167 0.0
C137 C 0.88915 0.37825 0.81105 0.0
C138 C 0.10799 0.52489 0.82726 0.0
C139 C 0.12633 0.57687 0.81903 0.0
C140 C 0.05468 0.48929 0.82821 0.0
C141 C 0.01829 0.50455 0.82047 0.0
C142 C 0.03681 0.55684 0.81245 0.0
C143 C 0.09024 0.5927 0.81198 0.0
H144 H 0.12794 0.50124 0.52675 0.0
H145 H 0.11703 0.63154 0.49222 0.0
H146 H 0.03457 0.45514 0.53691 0.0
H147 H 0.02424 0.58502 0.50097 0.0
H148 H 0.85717 0.49996 0.52336 0.0
H149 H 0.9509 0.54788 0.53283 0.0
H150 H 0.96058 0.41301 0.50582 0.0
H151 H 0.86768 0.36499 0.49779 0.0
C152 C 0.10578 0.52021 0.52156 0.0
C153 C 0.12987 0.56972 0.50824 0.0
C154 C 0.0522 0.49374 0.52726 0.0
C155 C 0.02153 0.51599 0.51941 0.0
C156 C 0.04637 0.56672 0.50771 0.0
C157 C 0.09981 0.59331 0.50236 0.0
C158 C 0.87927 0.48034 0.52007 0.0
C159 C 0.85498 0.42893 0.50933 0.0
C160 C 0.93306 0.50786 0.52533 0.0
C161 C 0.96363 0.48463 0.5197 0.0
C162 C 0.93858 0.43221 0.51077 0.0
C163 C 0.88503 0.4047 0.50581 0.0
H164 H 0.49876 0.86305 0.82849 0.0
H165 H 0.35424 0.85137 0.85761 0.0
H166 H 0.54352 0.95587 0.83658 0.0
H167 H 0.39996 0.94498 0.86704 0.0
H168 H 0.62269 0.12276 0.85888 0.0
H169 H 0.57642 0.02931 0.86847 0.0
H170 H 0.43417 0.0184 0.83515 0.0
H171 H 0.47946 0.11119 0.8269 0.0
C172 C 0.47661 0.88013 0.83726 0.0
C173 C 0.42259 0.84977 0.84185 0.0
C174 C 0.5026 0.93361 0.84225 0.0
C175 C 0.47541 0.95825 0.85225 0.0
C176 C 0.42195 0.92742 0.85876 0.0
C177 C 0.39574 0.87372 0.8535 0.0
C178 C 0.58134 0.10046 0.85416 0.0
C179 C 0.55505 0.12439 0.84167 0.0
C180 C 0.55482 0.04685 0.85952 0.0
C181 C 0.5016 0.01603 0.85223 0.0
C182 C 0.47488 0.04067 0.84141 0.0
C183 C 0.50118 0.09411 0.83634 0.0
H184 H 0.36563 0.49262 0.16402 0.0
H185 H 0.499 0.63858 0.19105 0.0
H186 H 0.4139 0.44844 0.17315 0.0
H187 H 0.54722 0.59344 0.20153 0.0
H188 H 0.50147 0.37012 0.19585 0.0
H189 H 0.45519 0.4173 0.2056 0.0
H190 H 0.58577 0.55748 0.17018 0.0
H191 H 0.63246 0.51132 0.16178 0.0
C192 C 0.40506 0.51526 0.17254 0.0
C193 C 0.42878 0.56945 0.1762 0.0
C194 C 0.43267 0.4896 0.17817 0.0
C195 C 0.48473 0.51729 0.18787 0.0
C196 C 0.50746 0.57103 0.19352 0.0
C197 C 0.47979 0.59691 0.18766 0.0
C198 C 0.5206 0.41124 0.19073 0.0
C199 C 0.57026 0.43663 0.17752 0.0
C200 C 0.49402 0.43829 0.19619 0.0
C201 C 0.51636 0.49111 0.18825 0.0
C202 C 0.56737 0.51709 0.1769 0.0
C203 C 0.59404 0.49028 0.17175 0.0
H204 H 0.70985 0.36434 0.90085 0.0
H205 H 0.56396 0.3634 0.89466 0.0
H206 H 0.71037 0.37444 0.955 0.0
H207 H 0.56595 0.37674 0.94932 0.0
H208 H 0.54136 0.30198 0.0436 0.0
H209 H 0.54891 0.31998 -0.01013 0.0
H210 H 0.71571 0.41771 -0.00018 0.0
H211 H 0.70804 0.397 0.05375 0.0
C212 C 0.67848 0.3678 0.91098 0.0
C213 C 0.63606 0.36159 0.89351 0.0
C214 C 0.67909 0.3742 0.94222 0.0
C215 C 0.63765 0.37534 0.95679 0.0
C216 C 0.59777 0.37444 0.93893 0.0
C217 C 0.59681 0.36732 0.90756 0.0
C218 C 0.57966 0.32754 0.03435 0.0
C219 C 0.62424 0.34743 0.05272 0.0
C220 C 0.58396 0.33851 0.0035 0.0
C221 C 0.63295 0.37039 -0.0097 0.0
C222 C 0.67742 0.39224 0.00906 0.0
C223 C 0.67315 0.38044 0.03994 0.0
H224 H 0.21326 0.5507 0.22923 0.0
H225 H 0.30105 0.71841 0.22709 0.0
H226 H 0.20605 0.55322 0.28395 0.0
H227 H 0.29195 0.72131 0.28175 0.0
H228 H 0.34603 0.69907 0.37617 0.0
H229 H 0.33371 0.70405 0.322 0.0
H230 H 0.17711 0.57336 0.32884 0.0
H231 H 0.19053 0.56711 0.38267 0.0
C232 C 0.22913 0.58813 0.24036 0.0
C233 C 0.25833 0.6343 0.22407 0.0
C234 C 0.22507 0.5897 0.2718 0.0
C235 C 0.24948 0.63755 0.2874 0.0
C236 C 0.27407 0.6838 0.27058 0.0
C237 C 0.2788 0.68218 0.23924 0.0
C238 C 0.30885 0.67188 0.3661 0.0
C239 C 0.26961 0.63226 0.38346 0.0
C240 C 0.30149 0.67491 0.33507 0.0
C241 C 0.2544 0.63882 0.32093 0.0
C242 C 0.21418 0.60107 0.33881 0.0
C243 C 0.22184 0.5976 0.36968 0.0
H244 H 0.68359 0.2331 0.70787 0.0
H245 H 0.58905 0.30461 0.72036 0.0
H246 H 0.66361 0.22313 0.65432 0.0
H247 H 0.56638 0.29211 0.6666 0.0
H248 H 0.61653 0.34032 0.56731 0.0
H249 H 0.60801 0.33027 0.62149 0.0
H250 H 0.60509 0.18359 0.61429 0.0
H251 H 0.61683 0.19539 0.55961 0.0
C252 C 0.65772 0.24591 0.69917 0.0
C253 C 0.63852 0.27039 0.71816 0.0
C254 C 0.6456 0.23952 0.66843 0.0
C255 C 0.61324 0.25671 0.65594 0.0
C256 C 0.59215 0.2792 0.67529 0.0
C257 C 0.60508 0.28642 0.70608 0.0
C258 C 0.61323 0.30539 0.57712 0.0
C259 C 0.61887 0.26934 0.55921 0.0
C260 C 0.60776 0.29934 0.60837 0.0
C261 C 0.60701 0.25666 0.62251 0.0
C262 C 0.60716 0.21779 0.60423 0.0
C263 C 0.61336 0.22422 0.57285 0.0
H264 H 0.27217 0.60785 0.90166 0.0
H265 H 0.42482 0.62345 0.89652 0.0
H266 H 0.27469 0.60443 0.95613 0.0
H267 H 0.42621 0.61698 0.95158 0.0
H268 H 0.44829 0.70231 0.04239 0.0
H269 H 0.43979 0.67794 -0.01055 0.0
H270 H 0.27594 0.569 0.00279 0.0
H271 H 0.28429 0.59585 0.05577 0.0
C272 C 0.30574 0.60893 0.91215 0.0
C273 C 0.34899 0.61744 0.8948 0.0
C274 C 0.30696 0.60646 0.94358 0.0
C275 C 0.35121 0.61168 0.95846 0.0
C276 C 0.39215 0.61445 0.94089 0.0
C277 C 0.39117 0.61757 0.9093 0.0
C278 C 0.41047 0.673 0.03403 0.0
C279 C 0.36676 0.65156 0.05302 0.0
C280 C 0.40569 0.65839 0.00369 0.0
C281 C 0.35716 0.62131 -0.00833 0.0
C282 C 0.31376 0.59831 0.0111 0.0
C283 C 0.31842 0.61366 0.04142 0.0
H284 H 0.6848 0.28344 0.38641 0.0
H285 H 0.75034 0.4489 0.37501 0.0
H286 H 0.70218 0.27559 0.33317 0.0
H287 H 0.76495 0.44107 0.32191 0.0
H288 H 0.79817 0.42744 0.22803 0.0
H289 H 0.80852 0.42606 0.28281 0.0
H290 H 0.66594 0.27761 0.28715 0.0
H291 H 0.65763 0.27763 0.2329 0.0
C292 C 0.70269 0.31801 0.37246 0.0
C293 C 0.7156 0.36661 0.38467 0.0
C294 C 0.71273 0.31364 0.34198 0.0
C295 C 0.73487 0.35767 0.32303 0.0
C296 C 0.74898 0.40641 0.33572 0.0
C297 C 0.73986 0.41084 0.36619 0.0
C298 C 0.77011 0.39382 0.24067 0.0
C299 C 0.72637 0.35337 0.22625 0.0
C300 C 0.77565 0.3932 0.27211 0.0
C301 C 0.73719 0.35247 0.28964 0.0
C302 C 0.69645 0.30969 0.27467 0.0
C303 C 0.69136 0.30998 0.24337 0.0
H304 H 0.29702 0.74345 0.70966 0.0
H305 H 0.38971 0.66952 0.72048 0.0
H306 H 0.31881 0.7569 0.65646 0.0
H307 H 0.41397 0.68529 0.66705 0.0
H308 H 0.36609 0.64488 0.56632 0.0
H309 H 0.37304 0.65065 0.62076 0.0
H310 H 0.37996 0.79952 0.61792 0.0
H311 H 0.36998 0.79219 0.56295 0.0
C312 C 0.32282 0.73076 0.70069 0.0
C313 C 0.34107 0.70473 0.7191 0.0
C314 C 0.33599 0.73918 0.67017 0.0
C315 C 0.36839 0.72241 0.6573 0.0
C316 C 0.38831 0.69807 0.67607 0.0
C317 C 0.37443 0.68894 0.70664 0.0
C318 C 0.36998 0.67939 0.57717 0.0
C319 C 0.36597 0.71742 0.56036 0.0
C320 C 0.37453 0.68294 0.60856 0.0
C321 C 0.37589 0.72499 0.62394 0.0
C322 C 0.37743 0.76579 0.60684 0.0
C323 C 0.37223 0.76191 0.57531 0.0
loop_
_geom_bond_atom_site_label_1
_geom_bond_atom_site_label_2
_geom_bond_distance
_geom_bond_site_symmetry_2
_ccdc_geom_bond_type
C0 O1 1.306 . S
C0 O3 1.160 . S
O1 C0 1.306 . S
O1 Cd2 2.228 . S
Cd2 O1 2.228 . S
Cd2 O6 2.273 . S
Cd2 O10 2.277 . S
O3 C0 1.160 . S
O3 Cd4 2.203 . S
Cd4 O3 2.203 . S
Cd4 O6 2.411 . S
Cd4 O7 2.333 . S
Cd4 O8 2.352 . S
Cd4 O12 2.277 . S
Cd4 O13 2.356 . S
C5 O10 1.209 . S
C5 O12 1.226 . S
O6 Cd2 2.273 . S
O6 Cd4 2.411 . S
O6 C9 1.320 . S
O7 Cd4 2.333 . S
O7 C9 1.214 . S
O8 Cd4 2.352 . S
O8 C11 1.258 . S
C9 O6 1.320 . S
C9 O7 1.214 . S
O10 Cd2 2.277 . S
O10 C5 1.209 . S
C11 O8 1.258 . S
C11 O13 1.282 . S
O12 Cd4 2.277 . S
O12 C5 1.226 . S
O13 Cd4 2.356 . S
O13 C11 1.282 . S
C14 O15 1.306 . S
C14 O17 1.160 . S
O15 C14 1.306 . S
O15 Cd16 2.228 . S
Cd16 O15 2.228 . S
Cd16 O20 2.273 . S
Cd16 O24 2.277 . S
O17 C14 1.160 . S
O17 Cd18 2.203 . S
Cd18 O17 2.203 . S
Cd18 O20 2.411 . S
Cd18 O21 2.333 . S
Cd18 O22 2.352 . S
Cd18 O26 2.277 . S
Cd18 O27 2.356 . S
C19 O24 1.209 . S
C19 O26 1.226 . S
O20 Cd16 2.273 . S
O20 Cd18 2.411 . S
O20 C23 1.320 . S
O21 Cd18 2.333 . S
O21 C23 1.214 . S
O22 Cd18 2.352 . S
O22 C25 1.258 . S
C23 O20 1.320 . S
C23 O21 1.214 . S
O24 Cd16 2.277 . S
O24 C19 1.209 . S
C25 O22 1.258 . S
C25 O27 1.282 . S
O26 Cd18 2.277 . S
O26 C19 1.226 . S
O27 Cd18 2.356 . S
O27 C25 1.282 . S
C28 O29 1.306 . S
C28 O31 1.160 . S
O29 C28 1.306 . S
O29 Cd30 2.228 . S
Cd30 O29 2.228 . S
Cd30 O34 2.273 . S
Cd30 O38 2.277 . S
O31 C28 1.160 . S
O31 Cd32 2.203 . S
Cd32 O31 2.203 . S
Cd32 O34 2.411 . S
Cd32 O35 2.333 . S
Cd32 O36 2.352 . S
Cd32 O40 2.277 . S
Cd32 O41 2.356 . S
C33 O38 1.209 . S
C33 O40 1.226 . S
O34 Cd30 2.273 . S
O34 Cd32 2.411 . S
O34 C37 1.320 . S
O35 Cd32 2.333 . S
O35 C37 1.214 . S
O36 Cd32 2.352 . S
O36 C39 1.258 . S
C37 O34 1.320 . S
C37 O35 1.214 . S
O38 Cd30 2.277 . S
O38 C33 1.209 . S
C39 O36 1.258 . S
C39 O41 1.282 . S
O40 Cd32 2.277 . S
O40 C33 1.226 . S
O41 Cd32 2.356 . S
O41 C39 1.282 . S
C42 O43 1.306 . S
C42 O45 1.160 . S
O43 C42 1.306 . S
O43 Cd44 2.228 . S
Cd44 O43 2.228 . S
Cd44 O48 2.273 . S
Cd44 O52 2.277 . S
O45 C42 1.160 . S
O45 Cd46 2.203 . S
Cd46 O45 2.203 . S
Cd46 O48 2.411 . S
Cd46 O49 2.333 . S
Cd46 O50 2.352 . S
Cd46 O54 2.277 . S
Cd46 O55 2.356 . S
C47 O52 1.209 . S
C47 O54 1.226 . S
O48 Cd44 2.273 . S
O48 Cd46 2.411 . S
O48 C51 1.320 . S
O49 Cd46 2.333 . S
O49 C51 1.214 . S
O50 Cd46 2.352 . S
O50 C53 1.258 . S
C51 O48 1.320 . S
C51 O49 1.214 . S
O52 Cd44 2.277 . S
O52 C47 1.209 . S
C53 O50 1.258 . S
C53 O55 1.282 . S
O54 Cd46 2.277 . S
O54 C47 1.226 . S
O55 Cd46 2.356 . S
O55 C53 1.282 . S
C56 O57 1.306 . S
C56 O59 1.160 . S
O57 C56 1.306 . S
O57 Cd58 2.228 . S
Cd58 O57 2.228 . S
Cd58 O62 2.273 . S
Cd58 O66 2.277 . S
O59 C56 1.160 . S
O59 Cd60 2.203 . S
Cd60 O59 2.203 . S
Cd60 O62 2.411 . S
Cd60 O63 2.333 . S
Cd60 O64 2.352 . S
Cd60 O68 2.277 . S
Cd60 O69 2.356 . S
C61 O66 1.209 . S
C61 O68 1.226 . S
O62 Cd58 2.273 . S
O62 Cd60 2.411 . S
O62 C65 1.320 . S
O63 Cd60 2.333 . S
O63 C65 1.214 . S
O64 Cd60 2.352 . S
O64 C67 1.258 . S
C65 O62 1.320 . S
C65 O63 1.214 . S
O66 Cd58 2.277 . S
O66 C61 1.209 . S
C67 O64 1.258 . S
C67 O69 1.282 . S
O68 Cd60 2.277 . S
O68 C61 1.226 . S
O69 Cd60 2.356 . S
O69 C67 1.282 . S
C70 O71 1.306 . S
C70 O73 1.160 . S
O71 C70 1.306 . S
O71 Cd72 2.228 . S
Cd72 O71 2.228 . S
Cd72 O76 2.273 . S
Cd72 O80 2.277 . S
O73 C70 1.160 . S
O73 Cd74 2.203 . S
Cd74 O73 2.203 . S
Cd74 O76 2.411 . S
Cd74 O77 2.333 . S
Cd74 O78 2.352 . S
Cd74 O82 2.277 . S
Cd74 O83 2.356 . S
C75 O80 1.209 . S
C75 O82 1.226 . S
O76 Cd72 2.273 . S
O76 Cd74 2.411 . S
O76 C79 1.320 . S
O77 Cd74 2.333 . S
O77 C79 1.214 . S
O78 Cd74 2.352 . S
O78 C81 1.258 . S
C79 O76 1.320 . S
C79 O77 1.214 . S
O80 Cd72 2.277 . S
O80 C75 1.209 . S
C81 O78 1.258 . S
C81 O83 1.282 . S
O82 Cd74 2.277 . S
O82 C75 1.226 . S
O83 Cd74 2.356 . S
O83 C81 1.282 . S
H84 C92 0.950 . S
H85 C97 0.950 . S
H86 C94 0.950 . S
H87 C96 0.950 . S
H88 C98 0.950 . S
H89 C100 0.950 . S
H90 C102 0.950 . S
H91 C103 0.950 . S
C92 H84 0.950 . S
C92 C93 1.386 . S
C92 C94 1.391 . S
C93 C92 1.386 . S
C93 C97 1.393 . S
C94 H86 0.950 . S
C94 C92 1.391 . S
C94 C95 1.400 . S
C95 C94 1.400 . S
C95 C96 1.398 . S
C95 C101 1.491 1_545 S
C96 H87 0.950 . S
C96 C95 1.398 . S
C96 C97 1.391 . S
C97 H85 0.950 . S
C97 C93 1.393 . S
C97 C96 1.391 . S
C98 H88 0.950 . S
C98 C99 1.386 . S
C98 C100 1.391 . S
C99 C98 1.386 . S
C99 C103 1.393 . S
C100 H89 0.950 . S
C100 C98 1.391 . S
C100 C101 1.400 . S
C101 C95 1.491 1_565 S
C101 C100 1.400 . S
C101 C102 1.398 . S
C102 H90 0.950 . S
C102 C101 1.398 . S
C102 C103 1.391 . S
C103 H91 0.950 . S
C103 C99 1.393 . S
C103 C102 1.391 . S
H104 C112 0.950 . S
H105 C117 0.950 . S
H106 C114 0.950 . S
H107 C116 0.950 . S
H108 C118 0.950 . S
H109 C120 0.950 . S
H110 C122 0.950 . S
H111 C123 0.950 . S
C112 H104 0.950 . S
C112 C113 1.386 . S
C112 C114 1.391 . S
C113 C112 1.386 . S
C113 C117 1.393 . S
C114 H106 0.950 . S
C114 C112 1.391 . S
C114 C115 1.400 . S
C115 C114 1.400 . S
C115 C116 1.398 . S
C115 C121 1.491 . S
C116 H107 0.950 . S
C116 C115 1.398 . S
C116 C117 1.391 . S
C117 H105 0.950 . S
C117 C113 1.393 . S
C117 C116 1.391 . S
C118 H108 0.950 . S
C118 C119 1.386 . S
C118 C120 1.391 . S
C119 C118 1.386 . S
C119 C123 1.393 . S
C120 H109 0.950 . S
C120 C118 1.391 . S
C120 C121 1.400 . S
C121 C115 1.491 . S
C121 C120 1.400 . S
C121 C122 1.398 . S
C122 H110 0.950 . S
C122 C121 1.398 . S
C122 C123 1.391 . S
C123 H111 0.950 . S
C123 C119 1.393 . S
C123 C122 1.391 . S
H124 C132 0.950 . S
H125 C137 0.950 . S
H126 C134 0.950 . S
H127 C136 0.950 . S
H128 C138 0.950 . S
H129 C140 0.950 . S
H130 C142 0.950 . S
H131 C143 0.950 . S
C132 H124 0.950 . S
C132 C133 1.386 . S
C132 C134 1.391 . S
C133 C132 1.386 . S
C133 C137 1.393 . S
C134 H126 0.950 . S
C134 C132 1.391 . S
C134 C135 1.400 . S
C135 C134 1.400 . S
C135 C136 1.398 . S
C135 C141 1.491 1_655 S
C136 H127 0.950 . S
C136 C135 1.398 . S
C136 C137 1.391 . S
C137 H125 0.950 . S
C137 C133 1.393 . S
C137 C136 1.391 . S
C138 H128 0.950 . S
C138 C139 1.386 . S
C138 C140 1.391 . S
C139 C138 1.386 . S
C139 C143 1.393 . S
C140 H129 0.950 . S
C140 C138 1.391 . S
C140 C141 1.400 . S
C141 C135 1.491 1_455 S
C141 C140 1.400 . S
C141 C142 1.398 . S
C142 H130 0.950 . S
C142 C141 1.398 . S
C142 C143 1.391 . S
C143 H131 0.950 . S
C143 C139 1.393 . S
C143 C142 1.391 . S
H144 C152 0.950 . S
H145 C157 0.950 . S
H146 C154 0.950 . S
H147 C156 0.950 . S
H148 C158 0.950 . S
H149 C160 0.950 . S
H150 C162 0.950 . S
H151 C163 0.950 . S
C152 H144 0.950 . S
C152 C153 1.386 . S
C152 C154 1.391 . S
C153 C152 1.386 . S
C153 C157 1.393 . S
C154 H146 0.950 . S
C154 C152 1.391 . S
C154 C155 1.400 . S
C155 C154 1.400 . S
C155 C156 1.398 . S
C155 C161 1.491 1_455 S
C156 H147 0.950 . S
C156 C155 1.398 . S
C156 C157 1.391 . S
C157 H145 0.950 . S
C157 C153 1.393 . S
C157 C156 1.391 . S
C158 H148 0.950 . S
C158 C159 1.386 . S
C158 C160 1.391 . S
C159 C158 1.386 . S
C159 C163 1.393 . S
C160 H149 0.950 . S
C160 C158 1.391 . S
C160 C161 1.400 . S
C161 C155 1.491 1_655 S
C161 C160 1.400 . S
C161 C162 1.398 . S
C162 H150 0.950 . S
C162 C161 1.398 . S
C162 C163 1.391 . S
C163 H151 0.950 . S
C163 C159 1.393 . S
C163 C162 1.391 . S
H164 C172 0.950 . S
H165 C177 0.950 . S
H166 C174 0.950 . S
H167 C176 0.950 . S
H168 C178 0.950 . S
H169 C180 0.950 . S
H170 C182 0.950 . S
H171 C183 0.950 . S
C172 H164 0.950 . S
C172 C173 1.386 . S
C172 C174 1.391 . S
C173 C172 1.386 . S
C173 C177 1.393 . S
C174 H166 0.950 . S
C174 C172 1.391 . S
C174 C175 1.400 . S
C175 C174 1.400 . S
C175 C176 1.398 . S
C175 C181 1.491 1_565 S
C176 H167 0.950 . S
C176 C175 1.398 . S
C176 C177 1.391 . S
C177 H165 0.950 . S
C177 C173 1.393 . S
C177 C176 1.391 . S
C178 H168 0.950 . S
C178 C179 1.386 . S
C178 C180 1.391 . S
C179 C178 1.386 . S
C179 C183 1.393 . S
C180 H169 0.950 . S
C180 C178 1.391 . S
C180 C181 1.400 . S
C181 C175 1.491 1_545 S
C181 C180 1.400 . S
C181 C182 1.398 . S
C182 H170 0.950 . S
C182 C181 1.398 . S
C182 C183 1.391 . S
C183 H171 0.950 . S
C183 C179 1.393 . S
C183 C182 1.391 . S
H184 C192 0.950 . S
H185 C197 0.950 . S
H186 C194 0.950 . S
H187 C196 0.950 . S
H188 C198 0.950 . S
H189 C200 0.950 . S
H190 C202 0.950 . S
H191 C203 0.950 . S
C192 H184 0.950 . S
C192 C193 1.386 . S
C192 C194 1.391 . S
C193 C192 1.386 . S
C193 C197 1.393 . S
C194 H186 0.950 . S
C194 C192 1.391 . S
C194 C195 1.400 . S
C195 C194 1.400 . S
C195 C196 1.398 . S
C195 C201 1.491 . S
C196 H187 0.950 . S
C196 C195 1.398 . S
C196 C197 1.391 . S
C197 H185 0.950 . S
C197 C193 1.393 . S
C197 C196 1.391 . S
C198 H188 0.950 . S
C198 C199 1.386 . S
C198 C200 1.391 . S
C199 C198 1.386 . S
C199 C203 1.393 . S
C200 H189 0.950 . S
C200 C198 1.391 . S
C200 C201 1.400 . S
C201 C195 1.491 . S
C201 C200 1.400 . S
C201 C202 1.398 . S
C202 H190 0.950 . S
C202 C201 1.398 . S
C202 C203 1.391 . S
C203 H191 0.950 . S
C203 C199 1.393 . S
C203 C202 1.391 . S
H204 C212 0.950 . S
H205 C217 0.950 . S
H206 C214 0.950 . S
H207 C216 0.950 . S
H208 C218 0.950 . S
H209 C220 0.950 . S
H210 C222 0.950 . S
H211 C223 0.950 . S
C212 H204 0.950 . S
C212 C213 1.386 . S
C212 C214 1.391 . S
C213 C212 1.386 . S
C213 C217 1.393 . S
C214 H206 0.950 . S
C214 C212 1.391 . S
C214 C215 1.400 . S
C215 C214 1.400 . S
C215 C216 1.398 . S
C215 C221 1.491 1_556 S
C216 H207 0.950 . S
C216 C215 1.398 . S
C216 C217 1.391 . S
C217 H205 0.950 . S
C217 C213 1.393 . S
C217 C216 1.391 . S
C218 H208 0.950 . S
C218 C219 1.386 . S
C218 C220 1.391 . S
C219 C218 1.386 . S
C219 C223 1.393 . S
C220 H209 0.950 . S
C220 C218 1.391 . S
C220 C221 1.400 . S
C221 C215 1.491 1_554 S
C221 C220 1.400 . S
C221 C222 1.398 . S
C222 H210 0.950 . S
C222 C221 1.398 . S
C222 C223 1.391 . S
C223 H211 0.950 . S
C223 C219 1.393 . S
C223 C222 1.391 . S
H224 C232 0.950 . S
H225 C237 0.950 . S
H226 C234 0.950 . S
H227 C236 0.950 . S
H228 C238 0.950 . S
H229 C240 0.950 . S
H230 C242 0.950 . S
H231 C243 0.950 . S
C232 H224 0.950 . S
C232 C233 1.386 . S
C232 C234 1.391 . S
C233 C232 1.386 . S
C233 C237 1.393 . S
C234 H226 0.950 . S
C234 C232 1.391 . S
C234 C235 1.400 . S
C235 C234 1.400 . S
C235 C236 1.398 . S
C235 C241 1.491 . S
C236 H227 0.950 . S
C236 C235 1.398 . S
C236 C237 1.391 . S
C237 H225 0.950 . S
C237 C233 1.393 . S
C237 C236 1.391 . S
C238 H228 0.950 . S
C238 C239 1.386 . S
C238 C240 1.391 . S
C239 C238 1.386 . S
C239 C243 1.393 . S
C240 H229 0.950 . S
C240 C238 1.391 . S
C240 C241 1.400 . S
C241 C235 1.491 . S
C241 C240 1.400 . S
C241 C242 1.398 . S
C242 H230 0.950 . S
C242 C241 1.398 . S
C242 C243 1.391 . S
C243 H231 0.950 . S
C243 C239 1.393 . S
C243 C242 1.391 . S
H244 C252 0.950 . S
H245 C257 0.950 . S
H246 C254 0.950 . S
H247 C256 0.950 . S
H248 C258 0.950 . S
H249 C260 0.950 . S
H250 C262 0.950 . S
H251 C263 0.950 . S
C252 H244 0.950 . S
C252 C253 1.386 . S
C252 C254 1.391 . S
C253 C252 1.386 . S
C253 C257 1.393 . S
C254 H246 0.950 . S
C254 C252 1.391 . S
C254 C255 1.400 . S
C255 C254 1.400 . S
C255 C256 1.398 . S
C255 C261 1.491 . S
C256 H247 0.950 . S
C256 C255 1.398 . S
C256 C257 1.391 . S
C257 H245 0.950 . S
C257 C253 1.393 . S
C257 C256 1.391 . S
C258 H248 0.950 . S
C258 C259 1.386 . S
C258 C260 1.391 . S
C259 C258 1.386 . S
C259 C263 1.393 . S
C260 H249 0.950 . S
C260 C258 1.391 . S
C260 C261 1.400 . S
C261 C255 1.491 . S
C261 C260 1.400 . S
C261 C262 1.398 . S
C262 H250 0.950 . S
C262 C261 1.398 . S
C262 C263 1.391 . S
C263 H251 0.950 . S
C263 C259 1.393 . S
C263 C262 1.391 . S
H264 C272 0.950 . S
H265 C277 0.950 . S
H266 C274 0.950 . S
H267 C276 0.950 . S
H268 C278 0.950 . S
H269 C280 0.950 . S
H270 C282 0.950 . S
H271 C283 0.950 . S
C272 H264 0.950 . S
C272 C273 1.386 . S
C272 C274 1.391 . S
C273 C272 1.386 . S
C273 C277 1.393 . S
C274 H266 0.950 . S
C274 C272 1.391 . S
C274 C275 1.400 . S
C275 C274 1.400 . S
C275 C276 1.398 . S
C275 C281 1.491 1_556 S
C276 H267 0.950 . S
C276 C275 1.398 . S
C276 C277 1.391 . S
C277 H265 0.950 . S
C277 C273 1.393 . S
C277 C276 1.391 . S
C278 H268 0.950 . S
C278 C279 1.386 . S
C278 C280 1.391 . S
C279 C278 1.386 . S
C279 C283 1.393 . S
C280 H269 0.950 . S
C280 C278 1.391 . S
C280 C281 1.400 . S
C281 C275 1.491 1_554 S
C281 C280 1.400 . S
C281 C282 1.398 . S
C282 H270 0.950 . S
C282 C281 1.398 . S
C282 C283 1.391 . S
C283 H271 0.950 . S
C283 C279 1.393 . S
C283 C282 1.391 . S
H284 C292 0.950 . S
H285 C297 0.950 . S
H286 C294 0.950 . S
H287 C296 0.950 . S
H288 C298 0.950 . S
H289 C300 0.950 . S
H290 C302 0.950 . S
H291 C303 0.950 . S
C292 H284 0.950 . S
C292 C293 1.386 . S
C292 C294 1.391 . S
C293 C292 1.386 . S
C293 C297 1.393 . S
C294 H286 0.950 . S
C294 C292 1.391 . S
C294 C295 1.400 . S
C295 C294 1.400 . S
C295 C296 1.398 . S
C295 C301 1.491 . S
C296 H287 0.950 . S
C296 C295 1.398 . S
C296 C297 1.391 . S
C297 H285 0.950 . S
C297 C293 1.393 . S
C297 C296 1.391 . S
C298 H288 0.950 . S
C298 C299 1.386 . S
C298 C300 1.391 . S
C299 C298 1.386 . S
C299 C303 1.393 . S
C300 H289 0.950 . S
C300 C298 1.391 . S
C300 C301 1.400 . S
C301 C295 1.491 . S
C301 C300 1.400 . S
C301 C302 1.398 . S
C302 H290 0.950 . S
C302 C301 1.398 . S
C302 C303 1.391 . S
C303 H291 0.950 . S
C303 C299 1.393 . S
C303 C302 1.391 . S
H304 C312 0.950 . S
H305 C317 0.950 . S
H306 C314 0.950 . S
H307 C316 0.950 . S
H308 C318 0.950 . S
H309 C320 0.950 . S
H310 C322 0.950 . S
H311 C323 0.950 . S
C312 H304 0.950 . S
C312 C313 1.386 . S
C312 C314 1.391 . S
C313 C312 1.386 . S
C313 C317 1.393 . S
C314 H306 0.950 . S
C314 C312 1.391 . S
C314 C315 1.400 . S
C315 C314 1.400 . S
C315 C316 1.398 . S
C315 C321 1.491 . S
C316 H307 0.950 . S
C316 C315 1.398 . S
C316 C317 1.391 . S
C317 H305 0.950 . S
C317 C313 1.393 . S
C317 C316 1.391 . S
C318 H308 0.950 . S
C318 C319 1.386 . S
C318 C320 1.391 . S
C319 C318 1.386 . S
C319 C323 1.393 . S
C320 H309 0.950 . S
C320 C318 1.391 . S
C320 C321 1.400 . S
C321 C315 1.491 . S
C321 C320 1.400 . S
C321 C322 1.398 . S
C322 H310 0.950 . S
C322 C321 1.398 . S
C322 C323 1.391 . S
C323 H311 0.950 . S
C323 C319 1.393 . S
C323 C322 1.391 . S
C93 C11 1.352 . S
C99 C53 1.356 . S
C113 C25 1.353 . S
C119 C67 1.356 . S
C133 C39 1.357 . S
C139 C81 1.354 . S
C153 C19 1.543 . S
C159 C61 1.545 . S
C173 C75 1.548 . S
C179 C33 1.548 . S
C193 C47 1.547 . S
C199 C5 1.547 . S
C213 C28 1.266 . S
C219 C9 1.213 . S
C233 C42 1.264 . S
C239 C23 1.244 . S
C253 C37 1.214 . S
C259 C56 1.261 . S
C273 C70 1.272 . S
C279 C51 1.247 . S
C293 C65 1.246 . S
C299 C0 1.274 . S
C313 C79 1.221 . S
C319 C14 1.257 . S
