# Generated by pormake.
# Topology bcs, (6)-cn, num edge types: 1
# Building blocks:
#     Node 0, Type 0, BuildingBlock: PAMTUU_clean_sbu_0, # of connection points: 6
#     Node 1, Type 0, BuildingBlock: PAMTUU_clean_sbu_0, # of connection points: 6
#     Node 2, Type 0, BuildingBlock: PAMTUU_clean_sbu_0, # of connection points: 6
#     Node 3, Type 0, BuildingBlock: PAMTUU_clean_sbu_0, # of connection points: 6
#     Node 4, Type 0, BuildingBlock: PAMTUU_clean_sbu_0, # of connection points: 6
#     Node 5, Type 0, BuildingBlock: PAMTUU_clean_sbu_0, # of connection points: 6
#     Node 6, Type 0, BuildingBlock: PAMTUU_clean_sbu_0, # of connection points: 6
#     Node 7, Type 0, BuildingBlock: PAMTUU_clean_sbu_0, # of connection points: 6
#     Node 8, Type 0, BuildingBlock: PAMTUU_clean_sbu_0, # of connection points: 6
#     Node 9, Type 0, BuildingBlock: PAMTUU_clean_sbu_0, # of connection points: 6
#     Node 10, Type 0, BuildingBlock: PAMTUU_clean_sbu_0, # of connection points: 6
#     Node 11, Type 0, BuildingBlock: PAMTUU_clean_sbu_0, # of connection points: 6
#     Node 12, Type 0, BuildingBlock: PAMTUU_clean_sbu_0, # of connection points: 6
#     Node 13, Type 0, BuildingBlock: PAMTUU_clean_sbu_0, # of connection points: 6
#     Node 14, Type 0, BuildingBlock: PAMTUU_clean_sbu_0, # of connection points: 6
#     Node 15, Type 0, BuildingBlock: PAMTUU_clean_sbu_0, # of connection points: 6
#     Edge 16, Type (0, 0), BuildingBlock: OJICUG_clean_linker_0, # of connection points: 2
#     Edge 17, Type (0, 0), BuildingBlock: OJICUG_clean_linker_0, # of connection points: 2
#     Edge 18, Type (0, 0), BuildingBlock: OJICUG_clean_linker_0, # of connection points: 2
#     Edge 19, Type (0, 0), BuildingBlock: OJICUG_clean_linker_0, # of connection points: 2
#     Edge 20, Type (0, 0), BuildingBlock: OJICUG_clean_linker_0, # of connection points: 2
#     Edge 21, Type (0, 0), BuildingBlock: OJICUG_clean_linker_0, # of connection points: 2
#     Edge 22, Type (0, 0), BuildingBlock: OJICUG_clean_linker_0, # of connection points: 2
#     Edge 23, Type (0, 0), BuildingBlock: OJICUG_clean_linker_0, # of connection points: 2
#     Edge 24, Type (0, 0), BuildingBlock: OJICUG_clean_linker_0, # of connection points: 2
#     Edge 25, Type (0, 0), BuildingBlock: OJICUG_clean_linker_0, # of connection points: 2
#     Edge 26, Type (0, 0), BuildingBlock: OJICUG_clean_linker_0, # of connection points: 2
#     Edge 27, Type (0, 0), BuildingBlock: OJICUG_clean_linker_0, # of connection points: 2
#     Edge 28, Type (0, 0), BuildingBlock: OJICUG_clean_linker_0, # of connection points: 2
#     Edge 29, Type (0, 0), BuildingBlock: OJICUG_clean_linker_0, # of connection points: 2
#     Edge 30, Type (0, 0), BuildingBlock: OJICUG_clean_linker_0, # of connection points: 2
#     Edge 31, Type (0, 0), BuildingBlock: OJICUG_clean_linker_0, # of connection points: 2
#     Edge 32, Type (0, 0), BuildingBlock: OJICUG_clean_linker_0, # of connection points: 2
#     Edge 33, Type (0, 0), BuildingBlock: OJICUG_clean_linker_0, # of connection points: 2
#     Edge 34, Type (0, 0), BuildingBlock: OJICUG_clean_linker_0, # of connection points: 2
#     Edge 35, Type (0, 0), BuildingBlock: OJICUG_clean_linker_0, # of connection points: 2
#     Edge 36, Type (0, 0), BuildingBlock: OJICUG_clean_linker_0, # of connection points: 2
#     Edge 37, Type (0, 0), BuildingBlock: OJICUG_clean_linker_0, # of connection points: 2
#     Edge 38, Type (0, 0), BuildingBlock: OJICUG_clean_linker_0, # of connection points: 2
#     Edge 39, Type (0, 0), BuildingBlock: OJICUG_clean_linker_0, # of connection points: 2
#     Edge 40, Type (0, 0), BuildingBlock: OJICUG_clean_linker_0, # of connection points: 2
#     Edge 41, Type (0, 0), BuildingBlock: OJICUG_clean_linker_0, # of connection points: 2
#     Edge 42, Type (0, 0), BuildingBlock: OJICUG_clean_linker_0, # of connection points: 2
#     Edge 43, Type (0, 0), BuildingBlock: OJICUG_clean_linker_0, # of connection points: 2
#     Edge 44, Type (0, 0), BuildingBlock: OJICUG_clean_linker_0, # of connection points: 2
#     Edge 45, Type (0, 0), BuildingBlock: OJICUG_clean_linker_0, # of connection points: 2
#     Edge 46, Type (0, 0), BuildingBlock: OJICUG_clean_linker_0, # of connection points: 2
#     Edge 47, Type (0, 0), BuildingBlock: OJICUG_clean_linker_0, # of connection points: 2
#     Edge 48, Type (0, 0), BuildingBlock: OJICUG_clean_linker_0, # of connection points: 2
#     Edge 49, Type (0, 0), BuildingBlock: OJICUG_clean_linker_0, # of connection points: 2
#     Edge 50, Type (0, 0), BuildingBlock: OJICUG_clean_linker_0, # of connection points: 2
#     Edge 51, Type (0, 0), BuildingBlock: OJICUG_clean_linker_0, # of connection points: 2
#     Edge 52, Type (0, 0), BuildingBlock: OJICUG_clean_linker_0, # of connection points: 2
#     Edge 53, Type (0, 0), BuildingBlock: OJICUG_clean_linker_0, # of connection points: 2
#     Edge 54, Type (0, 0), BuildingBlock: OJICUG_clean_linker_0, # of connection points: 2
#     Edge 55, Type (0, 0), BuildingBlock: OJICUG_clean_linker_0, # of connection points: 2
#     Edge 56, Type (0, 0), BuildingBlock: OJICUG_clean_linker_0, # of connection points: 2
#     Edge 57, Type (0, 0), BuildingBlock: OJICUG_clean_linker_0, # of connection points: 2
#     Edge 58, Type (0, 0), BuildingBlock: OJICUG_clean_linker_0, # of connection points: 2
#     Edge 59, Type (0, 0), BuildingBlock: OJICUG_clean_linker_0, # of connection points: 2
#     Edge 60, Type (0, 0), BuildingBlock: OJICUG_clean_linker_0, # of connection points: 2
#     Edge 61, Type (0, 0), BuildingBlock: OJICUG_clean_linker_0, # of connection points: 2
#     Edge 62, Type (0, 0), BuildingBlock: OJICUG_clean_linker_0, # of connection points: 2
#     Edge 63, Type (0, 0), BuildingBlock: OJICUG_clean_linker_0, # of connection points: 2
# Relax obj value: 0.216
# Max RMSD: 0.305
# Mean RMSD: 0.165
data_MOF--net-bcs--node1-PAMTUU_clean_sbu_0--edge1-OJICUG_clean_linker_0
_symmetry_space_group_name_H-M    P1
_symmetry_Int_Tables_number       1
_symmetry_cell_setting            triclinic
loop_
_symmetry_equiv_pos_as_xyz
'x, y, z'
_cell_length_a     30.195728
_cell_length_b     35.725609
_cell_length_c     31.495794
_cell_angle_alpha  92.524391
_cell_angle_beta   86.412409
_cell_angle_gamma 126.96883
loop_
_atom_site_label
_atom_site_type_symbol
_atom_site_fract_x
_atom_site_fract_y
_atom_site_fract_z
_atom_type_partial_charge
Tb0 Tb 1.00136 0.95606 0.96693 0.0
Tb1 Tb 0.11852 0.0348 0.00975 0.0
C2 C 1.02998 0.94322 0.05516 0.0
C3 C 0.86219 0.8908 0.92468 0.0
C4 C 0.80535 0.92356 0.89647 0.0
C5 C 0.82831 0.90814 0.86698 0.0
C6 C 0.85589 0.89123 0.88106 0.0
C7 C 0.83163 0.89887 0.95404 0.0
C8 C 0.8029 0.91484 0.9399 0.0
C9 C 0.90841 0.89155 0.93829 0.0
O10 O 0.98178 -0.00242 0.00596 0.0
O11 O 0.06976 0.06152 0.02209 0.0
O12 O 0.1286 0.05054 0.94274 0.0
O13 O 1.0385 0.01939 0.93008 0.0
O14 O 0.17444 0.10337 0.03371 0.0
O15 O 0.19508 0.05532 0.02988 0.0
O16 O 0.12399 0.97828 0.98648 0.0
O17 O 0.06118 0.94787 0.93424 0.0
O18 O 1.01527 0.92515 0.0171 0.0
O19 O 0.06259 0.9886 0.06079 0.0
C20 C 1.01585 0.04014 0.02213 0.0
O21 O 0.95419 0.91682 0.91473 0.0
O22 O 0.91819 0.89883 0.97874 0.0
C23 C 0.09184 0.04779 0.92001 0.0
C24 C 0.22206 0.10284 0.08981 0.0
C25 C 0.24257 0.08454 0.16894 0.0
C26 C 0.28696 0.11507 0.14015 0.0
C27 C 0.27664 0.12366 0.1005 0.0
C28 C 0.17895 0.07908 0.12102 0.0
C29 C 0.18911 0.06997 0.16043 0.0
C30 C 0.20866 0.09527 0.04493 0.0
C31 C 0.10261 0.95249 0.95177 0.0
H32 H 0.83046 0.91383 0.83319 0.0
H33 H 0.87768 0.88372 0.85783 0.0
H34 H 0.83425 0.89736 0.98799 0.0
H35 H 0.78416 0.9253 0.96315 0.0
H36 H 0.3288 0.12798 0.14613 0.0
H37 H 0.31049 0.14244 0.07683 0.0
H38 H 0.13649 0.06305 0.11334 0.0
H39 H 0.15383 0.04666 0.18175 0.0
Tb40 Tb 0.23501 0.77596 0.26359 0.0
Tb41 Tb 0.32651 0.75417 0.26174 0.0
C42 C 0.34632 0.83925 0.30996 0.0
C43 C 0.18792 0.84894 0.27015 0.0
C44 C 0.21877 0.93979 0.26114 0.0
C45 C 0.16238 0.90091 0.26304 0.0
C46 C 0.14708 0.85567 0.26734 0.0
C47 C 0.24391 0.88787 0.27135 0.0
C48 C 0.25923 0.93297 0.26687 0.0
C49 C 0.17331 0.80169 0.26784 0.0
O50 O 0.3041 0.82364 0.21969 0.0
O51 O 0.32996 0.77676 0.19894 0.0
O52 O 0.25759 0.69446 0.22861 0.0
O53 O 0.20428 0.71962 0.21708 0.0
O54 O 0.41053 0.78173 0.26451 0.0
O55 O 0.34619 0.7072 0.26387 0.0
O56 O 0.2807 0.73377 0.3222 0.0
O57 O 0.1982 0.7129 0.29974 0.0
O58 O 0.29263 0.81742 0.31342 0.0
O59 O 0.36779 0.82635 0.28123 0.0
C60 C 0.32695 0.81091 0.19158 0.0
O61 O 0.18896 0.79186 0.23229 0.0
O62 O 0.18537 0.78905 0.30076 0.0
C63 C 0.21661 0.6901 0.21044 0.0
C64 C 0.41364 0.73535 0.31292 0.0
C65 C 0.4063 0.69506 0.38956 0.0
C66 C 0.43322 0.69138 0.35337 0.0
C67 C 0.43629 0.71103 0.31496 0.0
C68 C 0.39349 0.74429 0.35045 0.0
C69 C 0.38886 0.72345 0.38854 0.0
C70 C 0.39765 0.74061 0.27199 0.0
C71 C 0.22662 0.70835 0.32596 0.0
H72 H 0.13039 0.90508 0.25812 0.0
H73 H 0.1037 0.82591 0.26636 0.0
H74 H 0.27597 0.88319 0.27361 0.0
H75 H 0.3029 0.96232 0.26558 0.0
H76 H 0.44615 0.66891 0.3536 0.0
H77 H 0.4515 0.7035 0.28628 0.0
H78 H 0.3762 0.76338 0.34943 0.0
H79 H 0.36739 0.72611 0.416 0.0
Tb80 Tb 0.60079 0.02564 0.48843 0.0
Tb81 Tb 0.48774 0.97133 0.54696 0.0
C82 C 0.60141 0.04228 0.58502 0.0
C83 C 0.71859 0.0614 0.41352 0.0
C84 C 0.76506 0.03174 0.35395 0.0
C85 C 0.77663 0.03659 0.39731 0.0
C86 C 0.75373 0.05125 0.42668 0.0
C87 C 0.7085 0.05848 0.37018 0.0
C88 C 0.73115 0.04344 0.34071 0.0
C89 C 0.69101 0.07315 0.44523 0.0
O90 O 0.58315 0.9563 0.49015 0.0
O91 O 0.51437 0.92475 0.54317 0.0
O92 O 0.4574 0.9393 0.48597 0.0
O93 O 0.5363 0.98562 0.44267 0.0
O94 O 0.45244 0.93358 0.60352 0.0
O95 O 0.40504 0.94407 0.56378 0.0
O96 O 0.49392 0.0322 0.52219 0.0
O97 O 0.58656 0.07842 0.5029 0.0
O98 O 0.62102 0.03004 0.55399 0.0
O99 O 0.55133 0.03032 0.58392 0.0
C100 C 0.54918 0.92238 0.51742 0.0
O101 O 0.64542 0.06558 0.43412 0.0
O102 O 0.68624 0.05906 0.48381 0.0
C103 C 0.48279 0.95244 0.44838 0.0
C104 C 0.3854 0.93904 0.63874 0.0
C105 C 0.3516 0.96383 0.71309 0.0
C106 C 0.34022 0.97078 0.67273 0.0
C107 C 0.35712 0.95868 0.63593 0.0
C108 C 0.39322 0.92892 0.67908 0.0
C109 C 0.37689 0.9416 0.716 0.0
C110 C 0.40628 0.92842 0.60007 0.0
C111 C 0.53962 0.07316 0.50913 0.0
H112 H 0.80371 0.0294 0.40899 0.0
H113 H 0.76333 0.05426 0.45979 0.0
H114 H 0.68192 0.0666 0.35912 0.0
H115 H 0.72007 0.03937 0.30794 0.0
H116 H 0.32143 0.98842 0.66937 0.0
H117 H 0.34922 0.96584 0.60537 0.0
H118 H 0.41349 0.91247 0.6821 0.0
H119 H 0.38601 0.93579 0.74671 0.0
Tb120 Tb 0.32004 0.24721 0.73865 0.0
Tb121 Tb 0.23739 0.2775 0.74667 0.0
C122 C 0.20436 0.18505 0.78853 0.0
C123 C 0.38774 0.19287 0.7596 0.0
C124 C 0.37552 0.11385 0.78847 0.0
C125 C 0.33754 0.12272 0.80263 0.0
C126 C 0.34379 0.1622 0.78835 0.0
C127 C 0.42868 0.18685 0.74899 0.0
C128 C 0.42287 0.14777 0.76355 0.0
C129 C 0.3867 0.2267 0.73614 0.0
O130 O 0.28034 0.22845 0.6785 0.0
O131 O 0.20133 0.22186 0.69894 0.0
O132 O 0.2934 0.31302 0.69185 0.0
O133 O 0.36602 0.31933 0.71817 0.0
O134 O 0.16133 0.26575 0.76274 0.0
O135 O 0.23259 0.33309 0.74022 0.0
O136 O 0.30172 0.31748 0.79294 0.0
O137 O 0.31457 0.26243 0.80467 0.0
O138 O 0.24144 0.18576 0.76351 0.0
O139 O 0.20303 0.2212 0.79219 0.0
C140 C 0.2284 0.21116 0.67329 0.0
O141 O 0.34538 0.20814 0.71114 0.0
O142 O 0.3942 0.26162 0.75821 0.0
C143 C 0.3468 0.33418 0.69292 0.0
C144 C 0.18009 0.33353 0.79694 0.0
C145 C 0.18629 0.38634 0.86831 0.0
C146 C 0.17406 0.39348 0.82841 0.0
C147 C 0.171 0.36724 0.79297 0.0
C148 C 0.1925 0.32637 0.83669 0.0
C149 C 0.19518 0.35235 0.87219 0.0
C150 C 0.18344 0.31006 0.75893 0.0
C151 C 0.31936 0.30002 0.81668 0.0
H152 H 0.3009 0.09739 0.82196 0.0
H153 H 0.31235 0.16706 0.79728 0.0
H154 H 0.46295 0.21041 0.72697 0.0
H155 H 0.45266 0.14188 0.7516 0.0
H156 H 0.16608 0.41892 0.82473 0.0
H157 H 0.16234 0.37372 0.76238 0.0
H158 H 0.20102 0.30123 0.84011 0.0
H159 H 0.20478 0.34626 0.90253 0.0
Tb160 Tb 1.02277 0.01806 0.4754 0.0
Tb161 Tb 0.09264 0.97337 0.50681 0.0
C162 C 0.10796 0.06402 0.5489 0.0
C163 C 0.95171 0.07218 0.42559 0.0
C164 C 0.90914 0.11495 0.38497 0.0
C165 C 0.92238 0.12349 0.42837 0.0
C166 C 0.94321 0.10249 0.44826 0.0
C167 C 0.93786 0.0631 0.38264 0.0
C168 C 0.91699 0.0838 0.36287 0.0
C169 C 0.97821 0.05252 0.4451 0.0
O170 O 0.09946 0.04792 0.43698 0.0
O171 O 0.15611 0.03903 0.47497 0.0
O172 O 0.05458 0.94033 0.44608 0.0
O173 O 0.98438 0.94916 0.44756 0.0
O174 O 0.10816 0.94843 0.5589 0.0
O175 O 0.14199 0.94856 0.49574 0.0
O176 O 1.00524 0.9255 0.52604 0.0
O177 O 0.97192 0.96972 0.528 0.0
O178 O 0.08417 0.06942 0.51869 0.0
O179 O 0.10757 0.02715 0.55234 0.0
C180 C 0.14867 0.06009 0.44605 0.0
O181 O 0.99499 0.03149 0.42231 0.0
O182 O 0.98458 0.05259 0.4858 0.0
C183 C 1.00752 0.92943 0.43246 0.0
C184 C 0.16472 0.91987 0.55605 0.0
C185 C 0.2108 0.88034 0.59705 0.0
C186 C 0.19933 0.87245 0.55331 0.0
C187 C 0.17692 0.89203 0.53316 0.0
C188 C 0.17727 0.92863 0.59931 0.0
C189 C 0.20024 0.90972 0.61924 0.0
C190 C 0.13773 0.93884 0.53603 0.0
C191 C 0.96821 0.93246 0.53873 0.0
H192 H 0.91774 0.14716 0.44706 0.0
H193 H 0.95375 0.11079 0.4813 0.0
H194 H 0.94338 0.0399 0.36393 0.0
H195 H 0.90626 0.07437 0.33004 0.0
H196 H 0.20622 0.85008 0.53466 0.0
H197 H 0.16789 0.8844 0.49982 0.0
H198 H 0.16932 0.95035 0.61802 0.0
H199 H 0.20979 0.91849 0.65237 0.0
Tb200 Tb 0.36637 0.75834 0.70746 0.0
Tb201 Tb 0.26427 0.73513 0.77609 0.0
C202 C 0.3834 0.82083 0.78297 0.0
C203 C 0.49732 0.77842 0.6594 0.0
C204 C 0.57142 0.75867 0.62098 0.0
C205 C 0.58695 0.8069 0.62713 0.0
C206 C 0.54777 0.81464 0.6408 0.0
C207 C 0.49459 0.74088 0.67406 0.0
C208 C 0.53585 0.73564 0.66031 0.0
C209 C 0.44809 0.77837 0.65933 0.0
O210 O 0.361 0.71014 0.75227 0.0
O211 O 0.29904 0.70225 0.80508 0.0
O212 O 0.22216 0.6728 0.73424 0.0
O213 O 0.29019 0.70054 0.67976 0.0
O214 O 0.25164 0.7488 0.83971 0.0
O215 O 0.18598 0.71829 0.79581 0.0
O216 O 0.25395 0.76447 0.72207 0.0
O217 O 0.33605 0.79647 0.68223 0.0
O218 O 0.40024 0.79738 0.7658 0.0
O219 O 0.33463 0.8083 0.77449 0.0
C220 C 0.33577 0.69516 0.79024 0.0
O221 O 0.39976 0.73744 0.66066 0.0
O222 O 0.44783 0.80953 0.68237 0.0
C223 C 0.23949 0.66929 0.69551 0.0
C224 C 0.19476 0.77511 0.8467 0.0
C225 C 0.16993 0.8375 0.87929 0.0
C226 C 0.14779 0.81165 0.84113 0.0
C227 C 0.16062 0.78164 0.82488 0.0
C228 C 0.21809 0.80162 0.88408 0.0
C229 C 0.20637 0.83246 0.89984 0.0
C230 C 0.20359 0.73906 0.83267 0.0
C231 C 0.28838 0.79051 0.69043 0.0
H232 H 0.62461 0.83852 0.61432 0.0
H233 H 0.55588 0.84787 0.63443 0.0
H234 H 0.46014 0.71489 0.69471 0.0
H235 H 0.53083 0.70647 0.67527 0.0
H236 H 0.11897 0.81321 0.82406 0.0
H237 H 0.14214 0.76231 0.79579 0.0
H238 H 0.24492 0.79797 0.90175 0.0
H239 H 0.22622 0.85224 0.92837 0.0
Tb240 Tb 0.5719 0.95746 0.99889 0.0
Tb241 Tb 0.51498 0.01388 0.99618 0.0
C242 C 0.4646 0.92771 0.05163 0.0
C243 C 0.62592 0.89088 0.96294 0.0
C244 C 0.65147 0.84927 0.89731 0.0
C245 C 0.64366 0.83509 0.93985 0.0
C246 C 0.63104 0.85572 0.97229 0.0
C247 C 0.63384 0.90544 0.92069 0.0
C248 C 0.64658 0.88488 0.88818 0.0
C249 C 0.6085 0.90959 0.99699 0.0
O250 O 0.54196 0.94763 0.93594 0.0
O251 O 0.47258 0.95575 0.95101 0.0
O252 O 0.57703 0.04141 0.94508 0.0
O253 O 0.63382 0.02398 0.96834 0.0
O254 O 0.44395 0.01199 1.00222 0.0
O255 O 0.52499 0.07674 0.98894 0.0
O256 O 0.58117 0.05105 0.04024 0.0
O257 O 0.58947 0.99399 0.05965 0.0
O258 O 0.48703 0.91365 0.02497 0.0
O259 O 0.48066 0.9707 0.05163 0.0
C260 C 0.49571 0.94048 0.92653 0.0
O261 O 0.63957 0.95498 1.00187 0.0
O262 O 0.55607 0.89167 0.99844 0.0
C263 C 0.62483 0.04826 0.94517 0.0
C264 C 0.46486 0.08078 0.03607 0.0
C265 C 0.45541 0.12974 0.10445 0.0
C266 C 0.45047 0.13781 0.06222 0.0
C267 C 0.45526 0.11359 0.02835 0.0
C268 C 0.46943 0.07229 0.07811 0.0
C269 C 0.46463 0.09647 0.11202 0.0
C270 C 0.47329 0.05753 1.00023 0.0
C271 C 0.59697 0.034 0.0665 0.0
H272 H 0.6463 0.80741 0.9481 0.0
H273 H 0.6244 0.84367 0.00465 0.0
H274 H 0.62969 0.93239 0.91283 0.0
H275 H 0.65316 0.89726 0.85598 0.0
H276 H 0.44234 0.16255 0.05534 0.0
H277 H 0.45183 0.1207 0.99611 0.0
H278 H 0.47731 0.0473 0.08466 0.0
H279 H 0.46902 0.08966 0.14407 0.0
Tb280 Tb 0.32456 0.23974 0.24654 0.0
Tb281 Tb 0.43515 0.29645 0.30245 0.0
C282 C 0.31898 0.20927 0.33682 0.0
C283 C 0.20981 0.20011 0.17713 0.0
C284 C 0.14658 0.22641 0.14807 0.0
C285 C 0.12037 0.18303 0.16799 0.0
C286 C 0.15185 0.16977 0.18209 0.0
C287 C 0.23586 0.24231 0.15509 0.0
C288 C 0.20429 0.25517 0.14029 0.0
C289 C 0.24223 0.19054 0.20049 0.0
O290 O 0.32416 0.29656 0.27417 0.0
O291 O 0.38566 0.32061 0.32796 0.0
O292 O 0.45612 0.34983 0.2553 0.0
O293 O 0.38433 0.3021 0.20956 0.0
O294 O 0.51299 0.30939 0.3058 0.0
O295 O 0.48057 0.32697 0.35824 0.0
O296 O 0.4468 0.26826 0.24384 0.0
O297 O 0.36017 0.20203 0.24663 0.0
O298 O 0.29563 0.21928 0.31099 0.0
O299 O 0.37159 0.22677 0.33052 0.0
C300 C 0.34598 0.31952 0.31008 0.0
O301 O 0.29335 0.21051 0.18662 0.0
O302 O 0.23834 0.19409 0.24165 0.0
C303 C 0.43069 0.34271 0.21948 0.0
C304 C 0.52785 0.29493 0.37417 0.0
C305 C 0.53863 0.22954 0.45283 0.0
C306 C 0.60076 0.28463 0.43308 0.0
C307 C 0.59528 0.31882 0.39526 0.0
C308 C 0.4683 0.23855 0.39103 0.0
C309 C 0.47269 0.2077 0.43163 0.0
C310 C 0.51868 0.32188 0.34558 0.0
C311 C 0.41208 0.22394 0.23455 0.0
H312 H 0.07584 0.16034 0.17421 0.0
H313 H 0.13125 0.13715 0.19915 0.0
H314 H 0.28067 0.2665 0.15131 0.0
H315 H 0.22529 0.28896 0.12531 0.0
H316 H 0.64114 0.29722 0.44333 0.0
H317 H 0.6318 0.35269 0.38497 0.0
H318 H 0.42851 0.22369 0.37848 0.0
H319 H 0.43551 0.17382 0.44099 0.0
Tb320 Tb 0.52001 0.51601 0.98995 0.0
Tb321 Tb 0.58487 0.46023 0.98741 0.0
C322 C 0.63082 0.55418 0.03748 0.0
C323 C 0.45185 0.57338 0.95157 0.0
C324 C 0.40884 0.60833 0.89785 0.0
C325 C 0.39726 0.60318 0.9424 0.0
C326 C 0.41819 0.58614 0.96845 0.0
C327 C 0.46295 0.57758 0.90714 0.0
C328 C 0.44169 0.59435 0.8809 0.0
C329 C 0.47903 0.56099 0.9815 0.0
O330 O 0.54742 0.51364 0.92515 0.0
O331 O 0.6212 0.51162 0.93438 0.0
O332 O 0.51613 0.42216 0.94496 0.0
O333 O 0.46029 0.44366 0.97067 0.0
O334 O 0.65814 0.46449 0.98755 0.0
O335 O 0.57795 0.39773 0.99048 0.0
O336 O 0.52754 0.43508 0.04281 0.0
O337 O 0.50495 0.48706 0.05465 0.0
O338 O 0.60266 0.56408 0.01619 0.0
O339 O 0.62145 0.51335 0.03574 0.0
C340 C 0.59498 0.5228 0.91165 0.0
O341 O 0.45118 0.51881 0.99716 0.0
O342 O 0.53073 0.57776 0.9733 0.0
C343 C 0.46873 0.41676 0.94742 0.0
C344 C 0.65168 0.40204 0.02324 0.0
C345 C 0.69014 0.36592 0.0799 0.0
C346 C 0.69449 0.36256 0.0351 0.0
C347 C 0.67578 0.3802 0.00758 0.0
C348 C 0.64702 0.40569 0.06785 0.0
C349 C 0.66585 0.38801 0.09558 0.0
C350 C 0.63131 0.41939 0.99208 0.0
C351 C 0.50782 0.45343 0.0672 0.0
H352 H 0.37329 0.61369 0.95784 0.0
H353 H 0.40916 0.58421 1.00245 0.0
H354 H 0.48885 0.56852 0.89259 0.0
H355 H 0.45141 0.59632 0.84707 0.0
H356 H 0.7115 0.34536 0.02083 0.0
H357 H 0.67987 0.37633 0.97355 0.0
H358 H 0.62876 0.4222 0.08136 0.0
H359 H 0.6618 0.39227 0.12949 0.0
Tb360 Tb 0.83384 0.24223 0.20484 0.0
Tb361 Tb 0.73725 0.22577 0.27925 0.0
C362 C 0.86595 0.31452 0.28227 0.0
C363 C 0.90176 0.20144 0.12961 0.0
C364 C 0.93322 0.14392 0.0957 0.0
C365 C 0.93931 0.15759 0.13901 0.0
C366 C 0.92336 0.18545 0.15576 0.0
C367 C 0.89452 0.18695 0.08662 0.0
C368 C 0.90961 0.1585 0.07002 0.0
C369 C 0.89 0.23537 0.14525 0.0
O370 O 0.8485 0.2169 0.25916 0.0
O371 O 0.77152 0.19045 0.30446 0.0
O372 O 0.69772 0.18206 0.22405 0.0
O373 O 0.76226 0.16979 0.21251 0.0
O374 O 0.71085 0.25157 0.3272 0.0
O375 O 0.65748 0.17842 0.30958 0.0
O376 O 0.73893 0.26987 0.23137 0.0
O377 O 0.79795 0.27451 0.17723 0.0
O378 O 0.88072 0.30669 0.24419 0.0
O379 O 0.81593 0.28649 0.30022 0.0
C380 C 0.81788 0.1948 0.29357 0.0
O381 O 0.83994 0.22274 0.14152 0.0
O382 O 0.91016 0.25774 0.18111 0.0
C383 C 0.7127 0.15722 0.20676 0.0
C384 C 0.61402 0.21381 0.3381 0.0
C385 C 0.5444 0.23928 0.37945 0.0
C386 C 0.53032 0.19125 0.37855 0.0
C387 C 0.56733 0.18154 0.36309 0.0
C388 C 0.61545 0.2501 0.32207 0.0
C389 C 0.57791 0.25882 0.33837 0.0
C390 C 0.66199 0.21171 0.33275 0.0
C391 C 0.76235 0.28268 0.19254 0.0
H392 H 0.95674 0.14689 0.16011 0.0
H393 H 0.92928 0.19542 0.18905 0.0
H394 H 0.87828 0.19864 0.06541 0.0
H395 H 0.90444 0.1492 0.03657 0.0
H396 H 0.49562 0.1617 0.39618 0.0
H397 H 0.56024 0.14938 0.37229 0.0
H398 H 0.64689 0.27307 0.29804 0.0
H399 H 0.58423 0.28774 0.32186 0.0
Tb400 Tb 0.09213 0.47159 0.48323 0.0
Tb401 Tb 0.99986 0.49892 0.50294 0.0
C402 C 0.98565 0.41583 0.54279 0.0
C403 C 0.17853 0.42586 0.44498 0.0
C404 C 0.23124 0.39011 0.39887 0.0
C405 C 0.20895 0.37567 0.44074 0.0
C406 C 0.18325 0.39325 0.46325 0.0
C407 C 0.19952 0.43987 0.40289 0.0
C408 C 0.22519 0.42206 0.38011 0.0
C409 C 0.15533 0.4464 0.4723 0.0
O410 O 1.02774 0.4309 0.43724 0.0
O411 O 0.98218 0.4654 0.43956 0.0
O412 O 0.0771 0.55965 0.47676 0.0
O413 O 0.11237 0.52496 0.43902 0.0
O414 O 0.9341 0.48847 0.54196 0.0
O415 O 0.96556 0.53372 0.48765 0.0
O416 O 1.05305 0.5258 0.55765 0.0
O417 O 0.12759 0.52602 0.53296 0.0
O418 O 1.03931 0.43734 0.53941 0.0
O419 O 0.9615 0.42691 0.51866 0.0
C420 C 0.99372 0.43777 0.42132 0.0
O421 O 0.17105 0.48864 0.46517 0.0
O422 O 0.1034 0.41881 0.48565 0.0
C423 C 0.10902 0.55976 0.44637 0.0
C424 C 0.91836 0.54742 0.54482 0.0
C425 C 0.87785 0.59527 0.58713 0.0
C426 C 0.90123 0.60664 0.54514 0.0
C427 C 0.92088 0.58302 0.52435 0.0
C428 C 0.89601 0.53664 0.58695 0.0
C429 C 0.87634 0.56009 0.60767 0.0
C430 C 0.93058 0.51698 0.52058 0.0
C431 C 0.1037 0.53813 0.5612 0.0
H432 H 0.2112 0.35057 0.45646 0.0
H433 H 0.16773 0.38178 0.49564 0.0
H434 H 0.19711 0.46523 0.38783 0.0
H435 H 0.24222 0.43489 0.3483 0.0
H436 H 0.90418 0.6337 0.52799 0.0
H437 H 0.93677 0.59189 0.49169 0.0
H438 H 0.89191 0.5088 0.6037 0.0
H439 H 0.8581 0.54915 0.63953 0.0
Tb440 Tb 0.87126 0.71525 0.23212 0.0
Tb441 Tb 0.79557 0.75121 0.23155 0.0
C442 C 0.76179 0.66702 0.28604 0.0
C443 C 0.92972 0.65903 0.18661 0.0
C444 C 0.93807 0.61695 0.11227 0.0
C445 C 0.88633 0.60484 0.12722 0.0
C446 C 0.88222 0.62586 0.16398 0.0
C447 C 0.98158 0.67175 0.17136 0.0
C448 C 0.98577 0.65086 0.1344 0.0
C449 C 0.92575 0.68325 0.22376 0.0
O450 O 0.80319 0.66788 0.19038 0.0
O451 O 0.7907 0.72086 0.17002 0.0
O452 O 0.87947 0.8097 0.21254 0.0
O453 O 0.90118 0.76424 0.18034 0.0
O454 O 0.74352 0.76688 0.25967 0.0
O455 O 0.76042 0.77127 0.19173 0.0
O456 O 0.84224 0.78334 0.28855 0.0
O457 O 0.91036 0.77252 0.27835 0.0
O458 O 0.8149 0.68676 0.2874 0.0
O459 O 0.7437 0.68095 0.25843 0.0
C460 C 0.78334 0.68129 0.16403 0.0
O461 O 0.94771 0.72721 0.21783 0.0
O462 O 0.87711 0.66107 0.24352 0.0
C463 C 0.90966 0.80469 0.18482 0.0
C464 C 0.75967 0.83017 0.22394 0.0
C465 C 0.79398 0.92125 0.23848 0.0
C466 C 0.83243 0.91154 0.23946 0.0
C467 C 0.81525 0.86605 0.23233 0.0
C468 C 0.72289 0.8408 0.21801 0.0
C469 C 0.74017 0.88649 0.22506 0.0
C470 C 0.74034 0.7818 0.22369 0.0
C471 C 0.88902 0.79158 0.29892 0.0
H472 H 0.84904 0.57871 0.11076 0.0
H473 H 0.84177 0.61599 0.17469 0.0
H474 H 1.01871 0.69776 0.18805 0.0
H475 H 1.02604 0.66007 0.12393 0.0
H476 H 0.87379 0.93781 0.2504 0.0
H477 H 0.84426 0.85831 0.2365 0.0
H478 H 0.68012 0.81339 0.21084 0.0
H479 H 0.70976 0.89336 0.22486 0.0
Tb480 Tb 0.78204 0.26098 0.76701 0.0
Tb481 Tb 0.86413 0.23072 0.74978 0.0
C482 C 0.89172 0.31211 0.80999 0.0
C483 C 0.72441 0.32711 0.78877 0.0
C484 C 0.73042 0.40852 0.78883 0.0
C485 C 0.76997 0.40628 0.76515 0.0
C486 C 0.76712 0.36596 0.76531 0.0
C487 C 0.68701 0.32993 0.81455 0.0
C488 C 0.6901 0.37052 0.81475 0.0
C489 C 0.71889 0.28367 0.78683 0.0
O490 O 0.82435 0.29138 0.70567 0.0
O491 O 0.90063 0.29232 0.71221 0.0
O492 O 0.80469 0.20026 0.70021 0.0
O493 O 0.73298 0.19106 0.73975 0.0
O494 O 0.94008 0.24293 0.75991 0.0
O495 O 0.8798 0.18603 0.71972 0.0
O496 O 0.79812 0.17743 0.79177 0.0
O497 O 0.77409 0.22264 0.82161 0.0
O498 O 0.86398 0.31927 0.78565 0.0
O499 O 0.88601 0.27271 0.80756 0.0
C500 C 0.87409 0.30455 0.69264 0.0
O501 O 0.72241 0.26893 0.74898 0.0
O502 O 0.74796 0.28132 0.81383 0.0
C503 C 0.75135 0.17872 0.70755 0.0
C504 C 0.91523 0.16778 0.77075 0.0
C505 C 0.86403 0.08585 0.81834 0.0
C506 C 0.88629 0.08868 0.77695 0.0
C507 C 0.91159 0.12939 0.75324 0.0
C508 C 0.89647 0.16608 0.81314 0.0
C509 C 0.8711 0.12547 0.83672 0.0
C510 C 0.92262 0.20265 0.7425 0.0
C511 C 0.77353 0.18579 0.82213 0.0
H512 H 0.80104 0.43437 0.74417 0.0
H513 H 0.79694 0.36447 0.74586 0.0
H514 H 0.65453 0.30031 0.83357 0.0
H515 H 0.65947 0.37135 0.83365 0.0
H516 H 0.88292 0.05902 0.7625 0.0
H517 H 0.92489 0.12978 0.72039 0.0
H518 H 0.89755 0.19487 0.82711 0.0
H519 H 0.85451 0.12436 0.86854 0.0
Tb520 Tb 0.68935 0.70293 0.68781 0.0
Tb521 Tb 0.80086 0.75277 0.74536 0.0
C522 C 0.69014 0.65064 0.76822 0.0
C523 C 0.59412 0.70679 0.61969 0.0
C524 C 0.56983 0.77044 0.54935 0.0
C525 C 0.51202 0.71292 0.56883 0.0
C526 C 0.52447 0.67988 0.60193 0.0
C527 C 0.65024 0.76516 0.60288 0.0
C528 C 0.63912 0.79525 0.56574 0.0
C529 C 0.60754 0.67952 0.6435 0.0
O530 O 0.67758 0.73166 0.74599 0.0
O531 O 0.76799 0.79218 0.75579 0.0
O532 O 0.82849 0.7815 0.68232 0.0
O533 O 0.75184 0.77532 0.66613 0.0
O534 O 0.83468 0.77582 0.80558 0.0
O535 O 0.88705 0.79174 0.74908 0.0
O536 O 0.79472 0.69475 0.714 0.0
O537 O 0.73993 0.681 0.65835 0.0
O538 O 0.66663 0.64638 0.73208 0.0
O539 O 0.73677 0.68996 0.77989 0.0
C540 C 0.71519 0.77208 0.76329 0.0
O541 O 0.60819 0.68394 0.68466 0.0
O542 O 0.65038 0.68162 0.62899 0.0
C543 C 0.80463 0.79382 0.6595 0.0
C544 C 0.90998 0.77367 0.8102 0.0
C545 C 0.96366 0.73922 0.84183 0.0
C546 C 0.98211 0.78511 0.85184 0.0
C547 C 0.95549 0.80238 0.83584 0.0
C548 C 0.89002 0.72724 0.80186 0.0
C549 C 0.91679 0.71018 0.81742 0.0
C550 C 0.88432 0.79212 0.79052 0.0
C551 C 0.77642 0.6776 0.67591 0.0
H552 H 0.47002 0.69835 0.5612 0.0
H553 H 0.49046 0.64469 0.61164 0.0
H554 H 0.69163 0.78141 0.61329 0.0
H555 H 0.67378 0.83024 0.55613 0.0
H556 H 1.01816 0.80799 0.87064 0.0
H557 H 0.97109 0.83828 0.84265 0.0
H558 H 0.85451 0.70453 0.78244 0.0
H559 H 0.90141 0.67449 0.80979 0.0
Tb560 Tb 0.49978 0.4821 0.47028 0.0
Tb561 Tb 0.61308 0.5236 0.51914 0.0
C562 C 0.4982 0.46951 0.56647 0.0
C563 C 0.37807 0.47137 0.44712 0.0
C564 C 0.34873 0.53253 0.45633 0.0
C565 C 0.36195 0.51961 0.49208 0.0
C566 C 0.37626 0.48898 0.48757 0.0
C567 C 0.36097 0.48165 0.4121 0.0
C568 C 0.34583 0.51156 0.41672 0.0
C569 C 0.40914 0.45198 0.43965 0.0
O570 O 0.52955 0.55457 0.48259 0.0
O571 O 0.60501 0.5809 0.52181 0.0
O572 O 0.64453 0.55151 0.45631 0.0
O573 O 0.56398 0.51009 0.41919 0.0
O574 O 0.66009 0.56946 0.56799 0.0
O575 O 0.6846 0.53015 0.53419 0.0
O576 O 0.59001 0.45533 0.49541 0.0
O577 O 0.50224 0.42159 0.47231 0.0
O578 O 0.48306 0.4848 0.53802 0.0
O579 O 0.54383 0.47342 0.56033 0.0
C580 C 0.57193 0.5878 0.50446 0.0
O581 O 0.45685 0.47994 0.41924 0.0
O582 O 0.41288 0.43284 0.47219 0.0
C583 C 0.61831 0.54013 0.42092 0.0
C584 C 0.69767 0.54239 0.60874 0.0
C585 C 0.7129 0.51955 0.68781 0.0
C586 C 0.73356 0.51147 0.6502 0.0
C587 C 0.72598 0.52276 0.61093 0.0
C588 C 0.67677 0.5503 0.64665 0.0
C589 C 0.68401 0.53858 0.68593 0.0
C590 C 0.69206 0.55639 0.56733 0.0
C591 C 0.54216 0.41858 0.48146 0.0
H592 H 0.36533 0.53593 0.52274 0.0
H593 H 0.39031 0.48231 0.51506 0.0
H594 H 0.36345 0.46949 0.38054 0.0
H595 H 0.33708 0.52179 0.38838 0.0
H596 H 0.75464 0.49548 0.6512 0.0
H597 H 0.7427 0.51657 0.58235 0.0
H598 H 0.65501 0.56571 0.64615 0.0
H599 H 0.66707 0.54426 0.71471 0.0
Tb600 Tb 1.03112 0.45541 0.04385 0.0
Tb601 Tb 0.10831 0.54144 0.97582 0.0
C602 C 1.01015 0.44082 0.94656 0.0
C603 C 0.99077 0.35651 0.10685 0.0
C604 C 1.03416 0.30743 0.12106 0.0
C605 C 1.01017 0.30214 0.08238 0.0
C606 C 0.98863 0.32639 0.07532 0.0
C607 C 1.01219 0.36 0.14627 0.0
C608 C 1.03404 0.33591 0.15326 0.0
C609 C 0.97949 0.38972 0.09663 0.0
O610 O 0.08504 0.44268 0.00933 0.0
O611 O 0.15706 0.51844 0.99241 0.0
O612 O 0.11217 0.57095 0.03804 0.0
O613 O 0.10414 0.51392 0.0749 0.0
O614 O 0.13544 0.56532 0.91322 0.0
O615 O 0.16992 0.61358 0.96595 0.0
O616 O 1.0299 0.53163 0.98218 0.0
O617 O 0.99785 0.49456 0.04718 0.0
O618 O 0.9874 0.43075 0.98521 0.0
O619 O 0.06063 0.47822 0.93788 0.0
C620 C 0.1362 0.47401 0.99497 0.0
O621 O 1.01781 0.43311 0.10702 0.0
O622 O 0.96283 0.38647 0.05862 0.0
C623 C 0.11883 0.55653 0.07274 0.0
C624 C 0.14201 0.63402 0.90846 0.0
C625 C 0.08419 0.66955 0.88758 0.0
C626 C 0.12262 0.69069 0.91996 0.0
C627 C 0.15138 0.67323 0.93016 0.0
C628 C 0.10543 0.61414 0.87498 0.0
C629 C 0.07634 0.63119 0.86513 0.0
C630 C 0.16195 0.60889 0.92527 0.0
C631 C 0.99719 0.51815 0.01669 0.0
H632 H 1.00858 0.27964 0.05733 0.0
H633 H 0.97237 0.32288 0.04451 0.0
H634 H 1.01454 0.38319 0.17094 0.0
H635 H 1.05265 0.341 0.1833 0.0
H636 H 0.13094 0.72094 0.93738 0.0
H637 H 0.17941 0.6894 0.95608 0.0
H638 H 0.09695 0.58375 0.85764 0.0
H639 H 1.04641 0.6131 0.84063 0.0
C640 C 0.18013 0.11283 0.82274 0.0
C641 C 0.16848 0.14495 0.81762 0.0
H642 H 0.16489 0.05705 0.85976 0.0
C643 C 0.12563 0.14054 0.84321 0.0
H644 H 0.21217 0.11461 0.80328 0.0
C645 C 0.0973 0.10636 0.87491 0.0
C646 C 0.11236 0.07696 0.88189 0.0
H647 H 0.11533 0.1645 0.83978 0.0
H648 H 0.0662 0.10486 0.89557 0.0
C649 C 0.15295 0.07968 0.85498 0.0
C650 C 0.215 0.04088 0.238 0.0
C651 C 0.24847 0.05796 0.2002 0.0
H652 H 0.17903 0.98946 0.2874 0.0
C653 C 0.27892 0.04096 0.18756 0.0
H654 H 0.1913 0.05346 0.2488 0.0
C655 C 0.27296 0.00545 0.21008 0.0
C656 C 0.23532 0.98515 0.24527 0.0
H657 H 0.30359 0.05185 0.15796 0.0
H658 H 0.29403 0.99101 0.19748 0.0
C659 C 0.20798 0.00434 0.26011 0.0
C660 C 0.39136 0.90413 0.41463 0.0
C661 C 0.44907 0.92784 0.41106 0.0
H662 H 0.31376 0.85847 0.38508 0.0
C663 C 0.4734 0.92606 0.37232 0.0
H664 H 0.37151 0.90543 0.44394 0.0
C665 C 0.44014 0.89882 0.33856 0.0
C666 C 0.38214 0.87348 0.34283 0.0
H667 H 0.5178 0.94413 0.36865 0.0
H668 H 0.45975 0.89651 0.30961 0.0
C669 C 0.35827 0.87749 0.38077 0.0
C670 C 0.30806 0.02855 0.77454 0.0
C671 C 0.35993 0.06586 0.78955 0.0
H672 H 0.26393 0.96461 0.73857 0.0
C673 C 0.40124 0.05948 0.79243 0.0
H674 H 0.275 0.032 0.77235 0.0
C675 C 0.39491 0.02088 0.77268 0.0
C676 C 0.34711 0.9884 0.75014 0.0
H677 H 0.44111 0.08722 0.80483 0.0
H678 H 0.43037 0.02021 0.77009 0.0
C679 C 0.30171 0.98994 0.75488 0.0
C680 C 0.2656 0.84605 0.59941 0.0
C681 C 0.23191 0.85742 0.62002 0.0
H682 H 0.31097 0.81735 0.60482 0.0
C683 C 0.2184 0.84666 0.66367 0.0
H684 H 0.2778 0.85387 0.56606 0.0
C685 C 0.23775 0.8261 0.68572 0.0
C686 C 0.2717 0.81515 0.66545 0.0
H687 H 0.19171 0.85326 0.68117 0.0
H688 H 0.22574 0.81864 0.71919 0.0
C689 C 0.2854 0.8255 0.6218 0.0
C690 C 0.39124 0.87414 0.84114 0.0
C691 C 0.41478 0.85583 0.81656 0.0
H692 H 0.3983 0.91529 0.89547 0.0
C693 C 0.46668 0.86831 0.82661 0.0
H694 H 0.35119 0.86512 0.8341 0.0
C695 C 0.49355 0.89693 0.86166 0.0
C696 C 0.46899 0.91361 0.88747 0.0
H697 H 0.48595 0.85492 0.80813 0.0
H698 H 0.53299 0.90492 0.86904 0.0
C699 C 0.41811 0.90275 0.87638 0.0
C700 C 0.41796 0.1316 0.17753 0.0
C701 C 0.44963 0.1553 0.14029 0.0
H702 H 0.37976 0.13454 0.23618 0.0
C703 C 0.4734 0.20313 0.13668 0.0
H704 H 0.39975 0.09497 0.18157 0.0
C705 C 0.46342 0.22604 0.16852 0.0
C706 C 0.42846 0.20133 0.20411 0.0
H707 H 0.49913 0.2227 0.1089 0.0
H708 H 0.48099 0.26255 0.16434 0.0
C709 C 0.40655 0.15416 0.20878 0.0
C710 C 0.24623 0.10532 0.41207 0.0
C711 C 0.1972 0.10084 0.42279 0.0
H712 H 0.32453 0.1438 0.37593 0.0
C713 C 0.19315 0.13566 0.40976 0.0
H714 H 0.25062 0.07914 0.42209 0.0
C715 C 0.23507 0.17239 0.38445 0.0
C716 C 0.28229 0.17536 0.37085 0.0
H717 H 0.15675 0.13407 0.41843 0.0
H718 H 0.22934 0.1977 0.37411 0.0
C719 C 0.28859 0.14239 0.38597 0.0
C720 C 0.92196 0.07875 0.04813 0.0
C721 C 0.95315 0.11618 0.07718 0.0
H722 H 0.91607 0.02503 0.00879 0.0
C723 C 1.00458 0.1276 0.08789 0.0
H724 H 0.88205 0.06853 0.03903 0.0
C725 C 1.02461 0.10323 0.07002 0.0
C726 C 0.99342 0.06562 0.04124 0.0
H727 H 1.03003 0.1562 0.10964 0.0
H728 H 0.0647 0.11383 0.07911 0.0
C729 C 0.94144 0.05355 0.03085 0.0
C730 C 0.11783 0.62225 0.40618 0.0
C731 C 0.14066 0.5999 0.41795 0.0
H732 H 0.12721 0.67413 0.3667 0.0
C733 C 0.19267 0.61469 0.40081 0.0
H734 H 0.07745 0.61101 0.41898 0.0
C735 C 0.22149 0.65123 0.37183 0.0
C736 C 0.19783 0.67249 0.35883 0.0
H737 H 0.21079 0.5978 0.4097 0.0
H738 H 0.26142 0.66177 0.35857 0.0
C739 C 0.14597 0.65798 0.37627 0.0
C740 C 0.59921 0.88408 0.50656 0.0
C741 C 0.55164 0.88088 0.5207 0.0
H742 H 0.64203 0.85278 0.50319 0.0
C743 C 0.50733 0.83786 0.53929 0.0
H744 H 0.6344 0.91604 0.49185 0.0
C745 C 0.51112 0.80053 0.54469 0.0
C746 C 0.56012 0.8049 0.53313 0.0
H747 H 0.46965 0.83317 0.55049 0.0
H748 H 0.47657 0.76933 0.56069 0.0
C749 C 0.60356 0.84728 0.51306 0.0
C750 C 0.38754 0.39026 0.90463 0.0
C751 C 0.42511 0.38281 0.91846 0.0
H752 H 0.32457 0.36992 0.86116 0.0
C753 C 0.42384 0.34533 0.90131 0.0
H754 H 0.38774 0.41909 0.91716 0.0
C755 C 0.38725 0.31694 0.86969 0.0
C756 C 0.35198 0.32606 0.85406 0.0
H757 H 0.45212 0.33869 0.91152 0.0
H758 H 0.3885 0.28915 0.85619 0.0
C759 C 0.35157 0.36234 0.87242 0.0
C760 C 0.8959 0.84458 0.35682 0.0
C761 C 0.91925 0.82508 0.33428 0.0
H762 H 0.90484 0.89197 0.40501 0.0
C763 C 0.97184 0.83912 0.34515 0.0
H764 H 0.85551 0.83468 0.34957 0.0
C765 C 1.00066 0.87255 0.37746 0.0
C766 C 0.97742 0.89255 0.39938 0.0
H767 H 0.9911 0.82484 0.32837 0.0
H768 H 1.04134 0.88317 0.38478 0.0
C769 C 0.92448 0.87773 0.3888 0.0
C770 C 0.63217 0.67367 0.52663 0.0
C771 C 0.58202 0.63448 0.51203 0.0
H772 H 0.6814 0.74416 0.54354 0.0
C773 C 0.54434 0.64278 0.5019 0.0
H774 H 0.66735 0.67289 0.52821 0.0
C775 C 0.55255 0.68507 0.51478 0.0
C776 C 0.59102 0.71746 0.54842 0.0
H777 H 0.50892 0.61709 0.48352 0.0
H778 H 0.52369 0.68908 0.501 0.0
C779 C 0.63855 0.71538 0.53804 0.0
C780 C 0.70139 0.07761 0.89005 0.0
C781 C 0.6696 0.08531 0.91804 0.0
H782 H 0.75936 0.1037 0.83638 0.0
C783 C 0.67659 0.12765 0.91729 0.0
H784 H 0.69614 0.04482 0.89037 0.0
C785 C 0.71284 0.16122 0.8874 0.0
C786 C 0.74199 0.15262 0.85712 0.0
H787 H 0.65265 0.1342 0.93908 0.0
H788 H 0.71599 0.19305 0.88704 0.0
C789 C 0.73724 0.1111 0.8593 0.0
C790 C 0.093 0.28299 0.09395 0.0
C791 C 0.06084 0.28455 0.12725 0.0
H792 H 0.14547 0.26303 0.07452 0.0
C793 C 0.05573 0.26534 0.16681 0.0
H794 H 0.09855 0.29827 0.06332 0.0
C795 C 0.08212 0.24493 0.17296 0.0
C796 C 0.11498 0.24421 0.13993 0.0
H797 H 1.03108 0.26583 0.19301 0.0
H798 H 0.07812 0.23087 0.20394 0.0
C799 C 0.12013 0.26319 0.10033 0.0
C800 C 0.67648 0.57797 0.86072 0.0
C801 C 0.61905 0.54863 0.87013 0.0
H802 H 0.74352 0.63259 0.82117 0.0
C803 C 0.58452 0.54879 0.84176 0.0
H804 H 0.70448 0.57912 0.88157 0.0
C805 C 0.60683 0.57925 0.80667 0.0
C806 C 0.66447 0.61104 0.79921 0.0
H807 H 0.53994 0.52654 0.84763 0.0
H808 H 0.57909 0.57986 0.78704 0.0
C809 C 0.6988 0.60888 0.82603 0.0
C810 C 0.77092 0.32315 0.12345 0.0
C811 C 0.74576 0.30585 0.16429 0.0
H812 H 0.77529 0.35602 0.06618 0.0
C813 C 0.70282 0.30961 0.17728 0.0
H814 H 0.80416 0.32142 0.1118 0.0
C815 C 0.68541 0.32911 0.1506 0.0
C816 C 0.71013 0.34607 0.10949 0.0
H817 H 0.68166 0.29669 0.20813 0.0
H818 H 0.65139 0.32979 0.16214 0.0
C819 C 0.75371 0.34288 0.09683 0.0
C820 C 0.91955 0.40766 0.36809 0.0
C821 C 0.96597 0.41178 0.3812 0.0
H822 H 0.85236 0.37437 0.32581 0.0
C823 C 0.98429 0.38916 0.35634 0.0
H824 H 0.90419 0.42457 0.38603 0.0
C825 C 0.95513 0.36113 0.32092 0.0
C826 C 0.90665 0.35467 0.30974 0.0
H827 H 1.02023 0.39182 0.36504 0.0
H828 H 0.96826 0.34192 0.30424 0.0
C829 C 0.89009 0.37919 0.33318 0.0
C830 C 0.7091 0.58646 0.38024 0.0
C831 C 0.65219 0.56595 0.38231 0.0
H832 H 0.78786 0.63389 0.34837 0.0
C833 C 0.63034 0.57585 0.35021 0.0
H834 H 0.72715 0.57934 0.40436 0.0
C835 C 0.66553 0.60788 0.31806 0.0
C836 C 0.72298 0.63015 0.31738 0.0
H837 H 0.58666 0.56081 0.35119 0.0
H838 H 0.64799 0.61619 0.29458 0.0
C839 C 0.74398 0.61797 0.34814 0.0
C840 C 0.95322 0.39364 0.83819 0.0
C841 C 0.92269 0.34529 0.84454 0.0
H842 H 1.00625 0.46225 0.86591 0.0
C843 C 0.92027 0.32851 0.88473 0.0
H844 H 0.95539 0.40716 0.80738 0.0
C845 C 0.94757 0.3597 0.91835 0.0
C846 C 0.979 0.40808 0.91182 0.0
H847 H 0.89638 0.29123 0.89035 0.0
H848 H 0.94512 0.34609 0.94919 0.0
C849 C 0.9821 0.42495 0.87148 0.0
C850 C 0.96571 0.83272 0.11655 0.0
C851 C 0.94778 0.84266 0.1546 0.0
H852 H 1.00609 0.85724 0.05513 0.0
C853 C 0.96322 0.88816 0.16183 0.0
H854 H 0.95477 0.79811 0.11013 0.0
C855 C 0.99364 0.92239 0.13047 0.0
C856 C 1.0079 0.91115 0.0913 0.0
H857 H 0.95032 0.89687 0.1911 0.0
H858 H 1.00311 0.95663 0.13589 0.0
C859 C 0.99503 0.86652 0.08503 0.0
C860 C 0.79955 -0.00159 0.82205 0.0
C861 C 0.83473 0.04196 0.84252 0.0
H862 H 0.75942 0.92471 0.82447 0.0
C863 C 0.84584 0.0433 0.88534 0.0
H864 H 0.78855 0.99635 0.7895 0.0
C865 C 0.82834 0.00238 0.90552 0.0
C866 C 0.80009 0.95965 0.88295 0.0
H867 H 0.87239 0.07631 0.90211 0.0
H868 H 0.843 0.00549 0.93694 0.0
C869 C 0.78218 0.9574 0.84221 0.0
C870 C 0.7308 0.12506 0.64592 0.0
C871 C 0.71186 0.14128 0.67822 0.0
H872 H 0.71063 0.08064 0.59152 0.0
C873 C 0.6553 0.12219 0.68149 0.0
H874 H 0.77402 0.13873 0.64279 0.0
C875 C 0.61881 0.08877 0.65198 0.0
C876 C 0.63822 0.07373 0.61885 0.0
H877 H 0.6394 0.1338 0.7062 0.0
H878 H 0.57572 0.07555 0.6546 0.0
C879 C 0.69435 0.09157 0.61661 0.0
C880 C 0.79126 0.01996 0.27955 0.0
C881 C 0.78437 0.01092 0.32358 0.0
H882 H 0.79907 -0.00252 0.21688 0.0
C883 C 0.79116 0.97811 0.3382 0.0
H884 H 0.78849 0.0462 0.26708 0.0
C885 C 0.8009 0.95299 0.30972 0.0
C886 C 0.80187 0.95861 0.26594 0.0
H887 H 0.78523 0.96898 0.37141 0.0
H888 H 0.8024 0.92588 0.32194 0.0
C889 C 0.79854 0.993 0.25075 0.0
C890 C 0.83186 0.16834 0.36313 0.0
C891 C 0.83776 0.17265 0.31853 0.0
H892 H 0.85007 0.14836 0.41912 0.0
C893 C 0.86861 0.15931 0.29674 0.0
H894 H 0.80927 0.17883 0.38129 0.0
C895 C 0.89229 0.14212 0.31817 0.0
C896 C 0.8862 0.13692 0.36276 0.0
H897 H 0.8749 0.16233 0.26246 0.0
H898 H 0.91617 0.13351 0.29918 0.0
C899 C 0.85622 0.15131 0.3849 0.0
C900 C 0.63543 0.1188 0.1573 0.0
C901 C 0.67843 0.1209 0.17485 0.0
H902 H 0.57645 0.08981 0.10894 0.0
C903 C 0.69151 0.09109 0.15876 0.0
H904 H 0.62437 0.14129 0.16898 0.0
C905 C 0.66338 0.06098 0.1245 0.0
C906 C 0.62271 0.06111 0.10547 0.0
H907 H 0.72445 0.09195 0.17185 0.0
H908 H 0.67511 0.03927 0.11176 0.0
C909 C 0.60821 0.08951 0.12272 0.0
C910 C 0.71872 0.79934 0.83756 0.0
C911 C 0.69816 0.79145 0.79691 0.0
H912 H 0.71865 0.82196 0.90134 0.0
C913 C 0.66008 0.80047 0.7895 0.0
H914 H 0.74743 0.79179 0.8441 0.0
C915 C 0.64466 0.81913 0.82204 0.0
C916 C 0.66583 0.82774 0.86286 0.0
H917 H 0.64306 0.79384 0.75843 0.0
H918 H 0.61573 0.82634 0.81533 0.0
C919 C 0.70186 0.81634 0.87038 0.0
C920 C 0.88203 0.90046 0.58743 0.0
C921 C 0.92014 0.89501 0.56567 0.0
H922 H 0.81398 0.87188 0.63427 0.0
C923 C 0.91425 0.85338 0.57164 0.0
H924 H 0.88508 0.9319 0.5834 0.0
C925 C 0.87441 0.81982 0.60045 0.0
C926 C 0.83851 0.82626 0.62397 0.0
H927 H 0.94173 0.84704 0.55507 0.0
H928 H 0.87285 0.78918 0.60535 0.0
C929 C 0.8412 0.8661 0.61633 0.0
C930 C 0.15767 0.87966 0.94179 0.0
C931 C 0.15464 0.86874 0.89778 0.0
H932 H 0.14517 0.91491 0.99291 0.0
C933 C 0.13593 0.88761 0.87192 0.0
H934 H 0.17031 0.86553 0.96361 0.0
C935 C 0.11949 0.91474 0.88937 0.0
C936 C 0.12277 0.92548 0.93313 0.0
H937 H 0.13383 0.88167 0.83791 0.0
H938 H 0.10449 0.92768 0.86835 0.0
C939 C 0.14279 0.90801 0.95897 0.0
C940 C 0.90177 0.37185 0.59256 0.0
C941 C 0.95421 0.38424 0.57888 0.0
H942 H 0.8352 0.33724 0.63998 0.0
C943 C 0.9791 0.36955 0.6023 0.0
H944 H 0.88179 0.38303 0.57519 0.0
C945 C 0.95296 0.34401 0.63925 0.0
C946 C 0.90112 0.33238 0.6537 0.0
H947 H 1.01937 0.37838 0.59249 0.0
H948 H 0.97382 0.33361 0.65651 0.0
C949 C 0.87537 0.34608 0.62981 0.0
C950 C 0.58896 0.15752 0.48393 0.0
C951 C 0.54005 0.11526 0.50012 0.0
H952 H 0.62766 0.22574 0.45751 0.0
C953 C 0.49242 0.11401 0.50549 0.0
H954 H 0.62696 0.16078 0.47907 0.0
C955 C 0.49322 0.15238 0.49355 0.0
C956 C 0.5415 0.19375 0.47538 0.0
H957 H 0.4539 0.08285 0.51804 0.0
H958 H 0.45501 0.14877 0.49762 0.0
C959 C 0.58968 0.19571 0.47189 0.0
C960 C 0.70078 0.57656 0.09107 0.0
C961 C 0.67326 0.58883 0.06718 0.0
H962 H 0.75696 0.59592 0.14017 0.0
C963 C 0.68534 0.63311 0.07351 0.0
H964 H 0.69292 0.5428 0.08699 0.0
C965 C 0.72269 0.66376 0.10403 0.0
C966 C 0.74846 0.65063 0.12897 0.0
H967 H 0.66518 0.64374 0.05558 0.0
H968 H 0.73016 0.69731 0.10879 0.0
C969 C 0.73779 0.60704 0.12166 0.0
C970 C 0.21587 0.14772 0.62674 0.0
C971 C 0.19875 0.17552 0.63967 0.0
H972 H 0.19982 0.09011 0.58855 0.0
C973 C 0.15165 0.16676 0.62219 0.0
H974 H 0.25167 0.15329 0.64002 0.0
C975 C 0.12235 0.13085 0.59208 0.0
C976 C 0.13885 0.10239 0.58004 0.0
H977 H 0.13752 0.1876 0.63175 0.0
H978 H 0.08618 0.12471 0.57892 0.0
C979 C 0.18587 0.11121 0.5976 0.0
C980 C 0.56465 0.32304 0.47777 0.0
C981 C 0.52511 0.28659 0.44657 0.0
H982 H 0.60827 0.39333 0.50337 0.0
C983 C 0.47732 0.28884 0.45456 0.0
H984 H 0.59517 0.32217 0.49302 0.0
C985 C 0.48281 0.33086 0.46296 0.0
C986 C 0.53305 0.37193 0.4754 0.0
H987 H 0.43466 0.25913 0.44976 0.0
H988 H 0.44691 0.33048 0.46053 0.0
C989 C 0.57218 0.36572 0.48657 0.0
C990 C 0.40136 0.91105 0.11464 0.0
C991 C 0.4235 0.89563 0.08434 0.0
H992 H 0.3528 0.89596 0.17257 0.0
C993 C 0.40876 0.85037 0.08726 0.0
H994 H 0.41158 0.94568 0.11291 0.0
C995 C 0.37517 0.82203 0.12133 0.0
C996 C 0.35577 0.83849 0.15301 0.0
H997 H 0.42465 0.83734 0.06411 0.0
H998 H 0.36586 0.78775 0.12345 0.0
C999 C 0.36761 0.8826 0.14875 0.0
C1000 C 1.039 0.7091 0.90729 0.0
C1001 C 1.05324 0.68777 0.87642 0.0
H1002 H 0.9998 0.74263 0.92042 0.0
C1003 C 1.03813 0.68437 0.83426 0.0
H1004 H 1.04896 0.71174 0.94021 0.0
C1005 C 1.0092 0.70121 0.82336 0.0
C1006 C 0.99497 0.72225 0.85416 0.0
H1007 H 1.05 0.67 0.8091 0.0
H1008 H 0.99872 0.69848 0.79052 0.0
C1009 C 1.01058 0.7266 0.89613 0.0
C1010 C 0.528 0.43379 0.13549 0.0
C1011 C 0.49084 0.43504 0.11158 0.0
H1012 H 0.539 0.40511 0.18914 0.0
C1013 C 0.4357 0.41088 0.12723 0.0
H1014 H 0.5707 0.45161 0.12393 0.0
C1015 C 0.41739 0.3835 0.16416 0.0
C1016 C 0.4539 0.38027 0.1869 0.0
H1017 H 0.40586 0.41035 0.1093 0.0
H1018 H 0.37374 0.36288 0.17384 0.0
C1019 C 0.50998 0.40726 0.17297 0.0
C1020 C 0.34118 0.62785 0.88165 0.0
C1021 C 0.38834 0.62918 0.86984 0.0
H1022 H 0.28779 0.6467 0.86721 0.0
C1023 C 0.41647 0.65186 0.83098 0.0
H1024 H 0.31691 0.61042 0.91052 0.0
C1025 C 0.39878 0.67201 0.80557 0.0
C1026 C 0.35225 0.67119 0.81762 0.0
H1027 H 0.45342 0.65525 0.82016 0.0
H1028 H 0.42273 0.68922 0.77648 0.0
C1029 C 0.32382 0.64858 0.85634 0.0
C1030 C 0.11261 0.58021 0.63128 0.0
C1031 C 0.1361 0.56799 0.59852 0.0
H1032 H 0.12616 0.62097 0.68831 0.0
C1033 C 0.19193 0.58577 0.60112 0.0
H1034 H 0.06965 0.56702 0.63067 0.0
C1035 C 0.22393 0.61643 0.63403 0.0
C1036 C 0.20133 0.6302 0.66582 0.0
H1037 H 0.2117 0.57715 0.57699 0.0
H1038 H 0.26727 0.63046 0.63388 0.0
C1039 C 0.1448 0.6108 0.66467 0.0
C1040 C 0.44314 0.39637 0.66548 0.0
C1041 C 0.38581 0.37336 0.66376 0.0
H1042 H 0.52366 0.44561 0.63658 0.0
C1043 C 0.36634 0.38668 0.63267 0.0
H1044 H 0.45966 0.38749 0.68936 0.0
C1045 C 0.40329 0.42037 0.60232 0.0
C1046 C 0.46023 0.44112 0.60259 0.0
H1047 H 0.3224 0.36987 0.63075 0.0
H1048 H 0.38693 0.42831 0.57749 0.0
C1049 C 0.4799 0.42985 0.63525 0.0
C1050 C 0.1899 0.61512 0.17544 0.0
C1051 C 0.1865 0.65277 0.17807 0.0
H1052 H 0.17048 0.55457 0.14008 0.0
C1053 C 0.15791 0.65665 0.14719 0.0
H1054 H 0.21147 0.61109 0.1989 0.0
C1055 C 0.13548 0.62492 0.11332 0.0
C1056 C 0.14036 0.58818 0.10995 0.0
H1057 H 0.15459 0.68524 0.14821 0.0
H1058 H 0.11467 0.62945 0.08952 0.0
C1059 C 0.16651 0.58279 0.14184 0.0
C1060 C 0.77287 0.49077 0.76789 0.0
C1061 C 0.72529 0.44596 0.77942 0.0
H1062 H 0.80604 0.55028 0.72844 0.0
C1063 C 0.67272 0.43365 0.77122 0.0
H1064 H 0.81381 0.50186 0.77503 0.0
C1065 C 0.66841 0.46204 0.74564 0.0
C1066 C 0.71651 0.50257 0.72791 0.0
H1067 H 0.6351 0.39957 0.77977 0.0
H1068 H 0.62789 0.44928 0.73539 0.0
C1069 C 0.76855 0.51866 0.74157 0.0
C1070 C 0.90782 0.54112 0.07925 0.0
C1071 C 0.9418 0.59022 0.07716 0.0
H1072 H 0.89866 0.47877 0.06 0.0
C1073 C 0.98503 0.6132 0.04585 0.0
H1074 H 0.87412 0.52259 0.10306 0.0
C1075 C 0.9984 0.58792 0.02062 0.0
C1076 C 0.96927 0.53971 0.02728 0.0
H1077 H 1.01117 0.65102 0.04332 0.0
H1078 H 1.03538 0.60695 0.99977 0.0
C1079 C 0.92171 0.51601 0.05457 0.0
C1080 C 0.82898 0.63438 0.58636 0.0
C1081 C 0.85378 0.61858 0.60915 0.0
H1082 H 0.78453 0.66437 0.58891 0.0
C1083 C 0.85312 0.62345 0.65383 0.0
H1084 H 0.82774 0.63115 0.55207 0.0
C1085 C 0.82722 0.64155 0.67487 0.0
C1086 C 0.80111 0.65604 0.65228 0.0
H1087 H 0.87283 0.61336 0.67298 0.0
H1088 H 0.82762 0.64403 0.70927 0.0
C1089 C 0.80313 0.65283 0.60758 0.0
C1090 C 0.31384 0.57612 0.43435 0.0
C1091 C 0.35191 0.57538 0.45685 0.0
H1092 H 0.30223 0.61696 0.39566 0.0
C1093 C 0.40203 0.618 0.46787 0.0
H1094 H 0.27505 0.54373 0.42546 0.0
C1095 C 0.41828 0.65979 0.44987 0.0
C1096 C 0.38326 0.6592 0.42234 0.0
H1097 H 0.43163 0.6182 0.48561 0.0
H1098 H 0.46002 0.69134 0.4539 0.0
C1099 C 0.3294 0.618 0.41736 0.0
C1100 C 0.15434 0.38762 0.94297 0.0
C1101 C 0.18584 0.41217 0.9061 0.0
H1102 H 0.11502 0.3888 1.00129 0.0
C1103 C 0.21128 0.46038 0.90389 0.0
H1104 H 0.13448 0.35047 0.94559 0.0
C1105 C 0.2006 0.48254 0.936 0.0
C1106 C 0.16364 0.45653 0.97045 0.0
H1107 H 0.23676 0.48028 0.87613 0.0
H1108 H 0.21718 0.5188 0.93173 0.0
C1109 C 0.14326 0.40962 0.97489 0.0
C1110 C 0.32191 0.34764 0.37689 0.0
C1111 C 0.3206 0.34108 0.33248 0.0
H1112 H 0.29479 0.3669 0.43236 0.0
C1113 C 0.28992 0.35116 0.31004 0.0
H1114 H 0.34434 0.33981 0.39552 0.0
C1115 C 0.26159 0.3672 0.33119 0.0
C1116 C 0.26194 0.37304 0.37579 0.0
H1117 H 0.28731 0.34623 0.27586 0.0
H1118 H 0.2382 0.37388 0.31245 0.0
C1119 C 0.2926 0.36273 0.39816 0.0
loop_
_geom_bond_atom_site_label_1
_geom_bond_atom_site_label_2
_geom_bond_distance
_geom_bond_site_symmetry_2
_ccdc_geom_bond_type
Tb0 C9 2.764 . S
Tb0 O10 2.325 1_566 S
Tb0 O13 2.303 1_665 S
Tb0 O17 2.322 . S
Tb0 O18 2.349 1_556 S
Tb0 O21 2.415 1_565 S
Tb0 O22 2.399 . S
Tb1 O11 2.322 . S
Tb1 O12 2.349 1_554 S
Tb1 O14 2.415 1_545 S
Tb1 O15 2.399 . S
Tb1 O16 2.325 1_544 S
Tb1 O19 2.303 1_445 S
Tb1 C30 2.764 . S
C2 O18 1.261 . S
C2 O19 1.257 . S
C3 C6 1.361 . S
C3 C7 1.302 1_565 S
C3 C9 1.530 . S
C4 C5 1.373 1_545 S
C4 C8 1.308 . S
C5 C4 1.373 1_565 S
C5 C6 1.429 . S
C5 H32 0.932 . S
C6 C3 1.361 . S
C6 C5 1.429 . S
C6 H33 0.930 . S
C7 C3 1.302 1_545 S
C7 C8 1.394 . S
C7 H34 0.932 . S
C8 C4 1.308 . S
C8 C7 1.394 . S
C8 H35 0.929 . S
C9 Tb0 2.764 . S
C9 C3 1.530 . S
C9 O21 1.239 1_565 S
C9 O22 1.263 . S
O10 Tb0 2.325 1_544 S
O10 C20 1.236 . S
O11 Tb1 2.322 . S
O11 C20 1.257 1_455 S
O12 Tb1 2.349 1_556 S
O12 C23 1.261 . S
O13 Tb0 2.303 1_445 S
O13 C23 1.257 . S
O14 Tb1 2.415 1_565 S
O14 C30 1.239 1_565 S
O15 Tb1 2.399 . S
O15 C30 1.263 . S
O16 Tb1 2.325 1_566 S
O16 C31 1.236 . S
O17 Tb0 2.322 . S
O17 C31 1.257 1_655 S
O18 Tb0 2.349 1_554 S
O18 C2 1.261 . S
O19 Tb1 2.303 1_665 S
O19 C2 1.257 . S
C20 O10 1.236 . S
C20 O11 1.257 1_655 S
O21 Tb0 2.415 1_545 S
O21 C9 1.239 1_545 S
O22 Tb0 2.399 . S
O22 C9 1.263 . S
C23 O12 1.261 . S
C23 O13 1.257 . S
C24 C27 1.358 . S
C24 C28 1.332 1_545 S
C24 C30 1.504 . S
C25 C26 1.373 1_565 S
C25 C29 1.308 . S
C26 C25 1.373 1_545 S
C26 C27 1.429 . S
C26 H36 0.932 . S
C27 C24 1.358 . S
C27 C26 1.429 . S
C27 H37 0.930 . S
C28 C24 1.332 1_565 S
C28 C29 1.394 . S
C28 H38 0.932 . S
C29 C25 1.308 . S
C29 C28 1.394 . S
C29 H39 0.929 . S
C30 Tb1 2.764 . S
C30 O14 1.239 1_545 S
C30 O15 1.263 . S
C30 C24 1.504 . S
C31 O16 1.236 . S
C31 O17 1.257 1_455 S
H32 C5 0.932 . S
H33 C6 0.930 . S
H34 C7 0.932 . S
H35 C8 0.929 . S
H36 C26 0.932 . S
H37 C27 0.930 . S
H38 C28 0.932 . S
H39 C29 0.929 . S
Tb40 C49 2.764 . S
Tb40 O50 2.325 . S
Tb40 O53 2.303 . S
Tb40 O57 2.322 . S
Tb40 O58 2.349 . S
Tb40 O61 2.415 . S
Tb40 O62 2.399 . S
Tb41 O51 2.322 . S
Tb41 O52 2.349 . S
Tb41 O54 2.415 . S
Tb41 O55 2.399 . S
Tb41 O56 2.325 . S
Tb41 O59 2.303 . S
Tb41 C70 2.764 . S
C42 O58 1.261 . S
C42 O59 1.257 . S
C43 C46 1.358 . S
C43 C47 1.332 . S
C43 C49 1.504 . S
C44 C45 1.373 . S
C44 C48 1.308 . S
C45 C44 1.373 . S
C45 C46 1.429 . S
C45 H72 0.932 . S
C46 C43 1.358 . S
C46 C45 1.429 . S
C46 H73 0.930 . S
C47 C43 1.332 . S
C47 C48 1.394 . S
C47 H74 0.932 . S
C48 C44 1.308 . S
C48 C47 1.394 . S
C48 H75 0.929 . S
C49 Tb40 2.764 . S
C49 C43 1.504 . S
C49 O61 1.239 . S
C49 O62 1.263 . S
O50 Tb40 2.325 . S
O50 C60 1.236 . S
O51 Tb41 2.322 . S
O51 C60 1.257 . S
O52 Tb41 2.349 . S
O52 C63 1.261 . S
O53 Tb40 2.303 . S
O53 C63 1.257 . S
O54 Tb41 2.415 . S
O54 C70 1.239 . S
O55 Tb41 2.399 . S
O55 C70 1.263 . S
O56 Tb41 2.325 . S
O56 C71 1.236 . S
O57 Tb40 2.322 . S
O57 C71 1.257 . S
O58 Tb40 2.349 . S
O58 C42 1.261 . S
O59 Tb41 2.303 . S
O59 C42 1.257 . S
C60 O50 1.236 . S
C60 O51 1.257 . S
O61 Tb40 2.415 . S
O61 C49 1.239 . S
O62 Tb40 2.399 . S
O62 C49 1.263 . S
C63 O52 1.261 . S
C63 O53 1.257 . S
C64 C67 1.358 . S
C64 C68 1.332 . S
C64 C70 1.504 . S
C65 C66 1.373 . S
C65 C69 1.308 . S
C66 C65 1.373 . S
C66 C67 1.429 . S
C66 H76 0.932 . S
C67 C64 1.358 . S
C67 C66 1.429 . S
C67 H77 0.930 . S
C68 C64 1.332 . S
C68 C69 1.394 . S
C68 H78 0.932 . S
C69 C65 1.308 . S
C69 C68 1.394 . S
C69 H79 0.929 . S
C70 Tb41 2.764 . S
C70 O54 1.239 . S
C70 O55 1.263 . S
C70 C64 1.504 . S
C71 O56 1.236 . S
C71 O57 1.257 . S
H72 C45 0.932 . S
H73 C46 0.930 . S
H74 C47 0.932 . S
H75 C48 0.929 . S
H76 C66 0.932 . S
H77 C67 0.930 . S
H78 C68 0.932 . S
H79 C69 0.929 . S
Tb80 C89 2.759 1_545 S
Tb80 O90 2.325 1_545 S
Tb80 O93 2.303 1_545 S
Tb80 O97 2.322 . S
Tb80 O98 2.349 . S
Tb80 O101 2.415 1_545 S
Tb80 O102 2.399 . S
Tb81 O91 2.322 . S
Tb81 O92 2.349 . S
Tb81 O94 2.415 1_565 S
Tb81 O95 2.399 . S
Tb81 O96 2.325 1_565 S
Tb81 O99 2.303 1_565 S
Tb81 C110 2.764 1_565 S
C82 O98 1.261 . S
C82 O99 1.257 . S
C83 C86 1.358 1_565 S
C83 C87 1.332 . S
C83 C89 1.508 . S
C84 C85 1.373 1_565 S
C84 C88 1.308 . S
C85 C84 1.373 1_545 S
C85 C86 1.429 . S
C85 H112 0.932 . S
C86 C83 1.358 1_545 S
C86 C85 1.429 . S
C86 H113 0.930 . S
C87 C83 1.332 . S
C87 C88 1.394 . S
C87 H114 0.932 . S
C88 C84 1.308 . S
C88 C87 1.394 . S
C88 H115 0.929 . S
C89 Tb80 2.759 1_565 S
C89 C83 1.508 . S
C89 O101 1.238 . S
C89 O102 1.259 1_565 S
O90 Tb80 2.325 1_565 S
O90 C100 1.236 . S
O91 Tb81 2.322 . S
O91 C100 1.257 . S
O92 Tb81 2.349 . S
O92 C103 1.261 . S
O93 Tb80 2.303 1_565 S
O93 C103 1.257 . S
O94 Tb81 2.415 1_545 S
O94 C110 1.239 . S
O95 Tb81 2.399 . S
O95 C110 1.263 1_565 S
O96 Tb81 2.325 1_545 S
O96 C111 1.236 . S
O97 Tb80 2.322 . S
O97 C111 1.257 . S
O98 Tb80 2.349 . S
O98 C82 1.261 . S
O99 Tb81 2.303 1_545 S
O99 C82 1.257 . S
C100 O90 1.236 . S
C100 O91 1.257 . S
O101 Tb80 2.415 1_565 S
O101 C89 1.238 . S
O102 Tb80 2.399 . S
O102 C89 1.259 1_545 S
C103 O92 1.261 . S
C103 O93 1.257 . S
C104 C107 1.358 1_545 S
C104 C108 1.332 . S
C104 C110 1.504 . S
C105 C106 1.373 1_545 S
C105 C109 1.308 . S
C106 C105 1.373 1_565 S
C106 C107 1.429 . S
C106 H116 0.932 . S
C107 C104 1.358 1_565 S
C107 C106 1.429 . S
C107 H117 0.930 . S
C108 C104 1.332 . S
C108 C109 1.394 . S
C108 H118 0.932 . S
C109 C105 1.308 . S
C109 C108 1.394 . S
C109 H119 0.929 . S
C110 Tb81 2.764 1_545 S
C110 O94 1.239 . S
C110 O95 1.263 1_545 S
C110 C104 1.504 . S
C111 O96 1.236 . S
C111 O97 1.257 . S
H112 C85 0.932 . S
H113 C86 0.930 . S
H114 C87 0.932 . S
H115 C88 0.929 . S
H116 C106 0.932 . S
H117 C107 0.930 . S
H118 C108 0.932 . S
H119 C109 0.929 . S
Tb120 C129 2.764 . S
Tb120 O130 2.325 . S
Tb120 O133 2.303 . S
Tb120 O137 2.322 . S
Tb120 O138 2.349 . S
Tb120 O141 2.415 . S
Tb120 O142 2.399 . S
Tb121 O131 2.322 . S
Tb121 O132 2.349 . S
Tb121 O134 2.415 . S
Tb121 O135 2.399 . S
Tb121 O136 2.325 . S
Tb121 O139 2.303 . S
Tb121 C150 2.764 . S
C122 O138 1.261 . S
C122 O139 1.257 . S
C123 C126 1.358 . S
C123 C127 1.332 . S
C123 C129 1.504 . S
C124 C125 1.373 . S
C124 C128 1.308 . S
C125 C124 1.373 . S
C125 C126 1.429 . S
C125 H152 0.932 . S
C126 C123 1.358 . S
C126 C125 1.429 . S
C126 H153 0.930 . S
C127 C123 1.332 . S
C127 C128 1.394 . S
C127 H154 0.932 . S
C128 C124 1.308 . S
C128 C127 1.394 . S
C128 H155 0.929 . S
C129 Tb120 2.764 . S
C129 C123 1.504 . S
C129 O141 1.239 . S
C129 O142 1.263 . S
O130 Tb120 2.325 . S
O130 C140 1.236 . S
O131 Tb121 2.322 . S
O131 C140 1.257 . S
O132 Tb121 2.349 . S
O132 C143 1.261 . S
O133 Tb120 2.303 . S
O133 C143 1.257 . S
O134 Tb121 2.415 . S
O134 C150 1.239 . S
O135 Tb121 2.399 . S
O135 C150 1.263 . S
O136 Tb121 2.325 . S
O136 C151 1.236 . S
O137 Tb120 2.322 . S
O137 C151 1.257 . S
O138 Tb120 2.349 . S
O138 C122 1.261 . S
O139 Tb121 2.303 . S
O139 C122 1.257 . S
C140 O130 1.236 . S
C140 O131 1.257 . S
O141 Tb120 2.415 . S
O141 C129 1.239 . S
O142 Tb120 2.399 . S
O142 C129 1.263 . S
C143 O132 1.261 . S
C143 O133 1.257 . S
C144 C147 1.358 . S
C144 C148 1.332 . S
C144 C150 1.504 . S
C145 C146 1.373 . S
C145 C149 1.308 . S
C146 C145 1.373 . S
C146 C147 1.429 . S
C146 H156 0.932 . S
C147 C144 1.358 . S
C147 C146 1.429 . S
C147 H157 0.930 . S
C148 C144 1.332 . S
C148 C149 1.394 . S
C148 H158 0.932 . S
C149 C145 1.308 . S
C149 C148 1.394 . S
C149 H159 0.929 . S
C150 Tb121 2.764 . S
C150 O134 1.239 . S
C150 O135 1.263 . S
C150 C144 1.504 . S
C151 O136 1.236 . S
C151 O137 1.257 . S
H152 C125 0.932 . S
H153 C126 0.930 . S
H154 C127 0.932 . S
H155 C128 0.929 . S
H156 C146 0.932 . S
H157 C147 0.930 . S
H158 C148 0.932 . S
H159 C149 0.929 . S
Tb160 C169 2.764 . S
Tb160 O170 2.325 1_655 S
Tb160 O173 2.303 1_545 S
Tb160 O177 2.322 1_545 S
Tb160 O178 2.349 1_655 S
Tb160 O181 2.415 . S
Tb160 O182 2.399 . S
Tb161 O171 2.322 1_565 S
Tb161 O172 2.349 1_455 S
Tb161 O174 2.415 . S
Tb161 O175 2.399 . S
Tb161 O176 2.325 1_455 S
Tb161 O179 2.303 1_565 S
Tb161 C190 2.764 . S
C162 O178 1.261 . S
C162 O179 1.257 . S
C163 C166 1.358 . S
C163 C167 1.332 . S
C163 C169 1.504 . S
C164 C165 1.373 . S
C164 C168 1.308 . S
C165 C164 1.373 . S
C165 C166 1.429 . S
C165 H192 0.932 . S
C166 C163 1.358 . S
C166 C165 1.429 . S
C166 H193 0.930 . S
C167 C163 1.332 . S
C167 C168 1.394 . S
C167 H194 0.932 . S
C168 C164 1.308 . S
C168 C167 1.394 . S
C168 H195 0.929 . S
C169 Tb160 2.764 . S
C169 C163 1.504 . S
C169 O181 1.239 . S
C169 O182 1.263 . S
O170 Tb160 2.325 1_455 S
O170 C180 1.236 . S
O171 Tb161 2.322 1_545 S
O171 C180 1.257 . S
O172 Tb161 2.349 1_655 S
O172 C183 1.261 . S
O173 Tb160 2.303 1_565 S
O173 C183 1.257 . S
O174 Tb161 2.415 . S
O174 C190 1.239 . S
O175 Tb161 2.399 . S
O175 C190 1.263 . S
O176 Tb161 2.325 1_655 S
O176 C191 1.236 . S
O177 Tb160 2.322 1_565 S
O177 C191 1.257 . S
O178 Tb160 2.349 1_455 S
O178 C162 1.261 . S
O179 Tb161 2.303 1_545 S
O179 C162 1.257 . S
C180 O170 1.236 . S
C180 O171 1.257 . S
O181 Tb160 2.415 . S
O181 C169 1.239 . S
O182 Tb160 2.399 . S
O182 C169 1.263 . S
C183 O172 1.261 . S
C183 O173 1.257 . S
C184 C187 1.358 . S
C184 C188 1.332 . S
C184 C190 1.504 . S
C185 C186 1.373 . S
C185 C189 1.308 . S
C186 C185 1.373 . S
C186 C187 1.429 . S
C186 H196 0.932 . S
C187 C184 1.358 . S
C187 C186 1.429 . S
C187 H197 0.930 . S
C188 C184 1.332 . S
C188 C189 1.394 . S
C188 H198 0.932 . S
C189 C185 1.308 . S
C189 C188 1.394 . S
C189 H199 0.929 . S
C190 Tb161 2.764 . S
C190 O174 1.239 . S
C190 O175 1.263 . S
C190 C184 1.504 . S
C191 O176 1.236 . S
C191 O177 1.257 . S
H192 C165 0.932 . S
H193 C166 0.930 . S
H194 C167 0.932 . S
H195 C168 0.929 . S
H196 C186 0.932 . S
H197 C187 0.930 . S
H198 C188 0.932 . S
H199 C189 0.929 . S
Tb200 C209 2.764 . S
Tb200 O210 2.325 . S
Tb200 O213 2.303 . S
Tb200 O217 2.322 . S
Tb200 O218 2.349 . S
Tb200 O221 2.415 . S
Tb200 O222 2.399 . S
Tb201 O211 2.322 . S
Tb201 O212 2.349 . S
Tb201 O214 2.415 . S
Tb201 O215 2.399 . S
Tb201 O216 2.325 . S
Tb201 O219 2.303 . S
Tb201 C230 2.764 . S
C202 O218 1.261 . S
C202 O219 1.257 . S
C203 C206 1.358 . S
C203 C207 1.332 . S
C203 C209 1.504 . S
C204 C205 1.373 . S
C204 C208 1.308 . S
C205 C204 1.373 . S
C205 C206 1.429 . S
C205 H232 0.932 . S
C206 C203 1.358 . S
C206 C205 1.429 . S
C206 H233 0.930 . S
C207 C203 1.332 . S
C207 C208 1.394 . S
C207 H234 0.932 . S
C208 C204 1.308 . S
C208 C207 1.394 . S
C208 H235 0.929 . S
C209 Tb200 2.764 . S
C209 C203 1.504 . S
C209 O221 1.239 . S
C209 O222 1.263 . S
O210 Tb200 2.325 . S
O210 C220 1.236 . S
O211 Tb201 2.322 . S
O211 C220 1.257 . S
O212 Tb201 2.349 . S
O212 C223 1.261 . S
O213 Tb200 2.303 . S
O213 C223 1.257 . S
O214 Tb201 2.415 . S
O214 C230 1.239 . S
O215 Tb201 2.399 . S
O215 C230 1.263 . S
O216 Tb201 2.325 . S
O216 C231 1.236 . S
O217 Tb200 2.322 . S
O217 C231 1.257 . S
O218 Tb200 2.349 . S
O218 C202 1.261 . S
O219 Tb201 2.303 . S
O219 C202 1.257 . S
C220 O210 1.236 . S
C220 O211 1.257 . S
O221 Tb200 2.415 . S
O221 C209 1.239 . S
O222 Tb200 2.399 . S
O222 C209 1.263 . S
C223 O212 1.261 . S
C223 O213 1.257 . S
C224 C227 1.358 . S
C224 C228 1.332 . S
C224 C230 1.504 . S
C225 C226 1.373 . S
C225 C229 1.308 . S
C226 C225 1.373 . S
C226 C227 1.429 . S
C226 H236 0.932 1_455 S
C227 C224 1.358 . S
C227 C226 1.429 . S
C227 H237 0.930 . S
C228 C224 1.332 . S
C228 C229 1.394 . S
C228 H238 0.932 . S
C229 C225 1.308 . S
C229 C228 1.394 . S
C229 H239 0.929 . S
C230 Tb201 2.764 . S
C230 O214 1.239 . S
C230 O215 1.263 . S
C230 C224 1.504 . S
C231 O216 1.236 . S
C231 O217 1.257 . S
H232 C205 0.932 . S
H233 C206 0.930 . S
H234 C207 0.932 . S
H235 C208 0.929 . S
H236 C226 0.932 1_655 S
H237 C227 0.930 . S
H238 C228 0.932 . S
H239 C229 0.929 . S
Tb240 C249 2.764 . S
Tb240 O250 2.325 . S
Tb240 O253 2.303 1_565 S
Tb240 O257 2.322 1_566 S
Tb240 O258 2.349 1_556 S
Tb240 O261 2.415 . S
Tb240 O262 2.399 . S
Tb241 O251 2.322 1_544 S
Tb241 O252 2.349 1_554 S
Tb241 O254 2.415 . S
Tb241 O255 2.399 . S
Tb241 O256 2.325 . S
Tb241 O259 2.303 1_545 S
Tb241 C270 2.764 . S
C242 O258 1.261 . S
C242 O259 1.257 . S
C243 C246 1.358 . S
C243 C247 1.332 . S
C243 C249 1.504 . S
C244 C245 1.373 . S
C244 C248 1.308 . S
C245 C244 1.373 . S
C245 C246 1.429 . S
C245 H272 0.932 . S
C246 C243 1.358 . S
C246 C245 1.429 . S
C246 H273 0.930 . S
C247 C243 1.332 . S
C247 C248 1.394 . S
C247 H274 0.932 . S
C248 C244 1.308 . S
C248 C247 1.394 . S
C248 H275 0.929 . S
C249 Tb240 2.764 . S
C249 C243 1.504 . S
C249 O261 1.239 . S
C249 O262 1.263 . S
O250 Tb240 2.325 . S
O250 C260 1.236 . S
O251 Tb241 2.322 1_566 S
O251 C260 1.257 . S
O252 Tb241 2.349 1_556 S
O252 C263 1.261 . S
O253 Tb240 2.303 1_545 S
O253 C263 1.257 . S
O254 Tb241 2.415 . S
O254 C270 1.239 . S
O255 Tb241 2.399 . S
O255 C270 1.263 . S
O256 Tb241 2.325 . S
O256 C271 1.236 . S
O257 Tb240 2.322 1_544 S
O257 C271 1.257 . S
O258 Tb240 2.349 1_554 S
O258 C242 1.261 . S
O259 Tb241 2.303 1_565 S
O259 C242 1.257 . S
C260 O250 1.236 . S
C260 O251 1.257 . S
O261 Tb240 2.415 . S
O261 C249 1.239 . S
O262 Tb240 2.399 . S
O262 C249 1.263 . S
C263 O252 1.261 . S
C263 O253 1.257 . S
C264 C267 1.358 . S
C264 C268 1.332 . S
C264 C270 1.504 . S
C265 C266 1.373 . S
C265 C269 1.308 . S
C266 C265 1.373 . S
C266 C267 1.429 . S
C266 H276 0.932 . S
C267 C264 1.358 . S
C267 C266 1.429 . S
C267 H277 0.930 . S
C268 C264 1.332 . S
C268 C269 1.394 . S
C268 H278 0.932 . S
C269 C265 1.308 . S
C269 C268 1.394 . S
C269 H279 0.929 . S
C270 Tb241 2.764 . S
C270 O254 1.239 . S
C270 O255 1.263 . S
C270 C264 1.504 . S
C271 O256 1.236 . S
C271 O257 1.257 . S
H272 C245 0.932 . S
H273 C246 0.930 . S
H274 C247 0.932 . S
H275 C248 0.929 . S
H276 C266 0.932 . S
H277 C267 0.930 . S
H278 C268 0.932 . S
H279 C269 0.929 . S
Tb280 C289 2.764 . S
Tb280 O290 2.325 . S
Tb280 O293 2.303 . S
Tb280 O297 2.322 . S
Tb280 O298 2.349 . S
Tb280 O301 2.415 . S
Tb280 O302 2.399 . S
Tb281 O291 2.322 . S
Tb281 O292 2.349 . S
Tb281 O294 2.415 . S
Tb281 O295 2.399 . S
Tb281 O296 2.325 . S
Tb281 O299 2.303 . S
Tb281 C310 2.764 . S
C282 O298 1.261 . S
C282 O299 1.257 . S
C283 C286 1.358 . S
C283 C287 1.332 . S
C283 C289 1.504 . S
C284 C285 1.373 . S
C284 C288 1.308 . S
C285 C284 1.373 . S
C285 C286 1.429 . S
C285 H312 0.932 . S
C286 C283 1.358 . S
C286 C285 1.429 . S
C286 H313 0.930 . S
C287 C283 1.332 . S
C287 C288 1.394 . S
C287 H314 0.932 . S
C288 C284 1.308 . S
C288 C287 1.394 . S
C288 H315 0.929 . S
C289 Tb280 2.764 . S
C289 C283 1.504 . S
C289 O301 1.239 . S
C289 O302 1.263 . S
O290 Tb280 2.325 . S
O290 C300 1.236 . S
O291 Tb281 2.322 . S
O291 C300 1.257 . S
O292 Tb281 2.349 . S
O292 C303 1.261 . S
O293 Tb280 2.303 . S
O293 C303 1.257 . S
O294 Tb281 2.415 . S
O294 C310 1.239 . S
O295 Tb281 2.399 . S
O295 C310 1.263 . S
O296 Tb281 2.325 . S
O296 C311 1.236 . S
O297 Tb280 2.322 . S
O297 C311 1.257 . S
O298 Tb280 2.349 . S
O298 C282 1.261 . S
O299 Tb281 2.303 . S
O299 C282 1.257 . S
C300 O290 1.236 . S
C300 O291 1.257 . S
O301 Tb280 2.415 . S
O301 C289 1.239 . S
O302 Tb280 2.399 . S
O302 C289 1.263 . S
C303 O292 1.261 . S
C303 O293 1.257 . S
C304 C307 1.358 . S
C304 C308 1.332 . S
C304 C310 1.504 . S
C305 C306 1.373 . S
C305 C309 1.308 . S
C306 C305 1.373 . S
C306 C307 1.429 . S
C306 H316 0.932 . S
C307 C304 1.358 . S
C307 C306 1.429 . S
C307 H317 0.930 . S
C308 C304 1.332 . S
C308 C309 1.394 . S
C308 H318 0.932 . S
C309 C305 1.308 . S
C309 C308 1.394 . S
C309 H319 0.929 . S
C310 Tb281 2.764 . S
C310 O294 1.239 . S
C310 O295 1.263 . S
C310 C304 1.504 . S
C311 O296 1.236 . S
C311 O297 1.257 . S
H312 C285 0.932 . S
H313 C286 0.930 . S
H314 C287 0.932 . S
H315 C288 0.929 . S
H316 C306 0.932 . S
H317 C307 0.930 . S
H318 C308 0.932 . S
H319 C309 0.929 . S
Tb320 C329 2.764 1_554 S
Tb320 O330 2.325 1_554 S
Tb320 O333 2.303 1_554 S
Tb320 O337 2.322 . S
Tb320 O338 2.349 . S
Tb320 O341 2.415 1_554 S
Tb320 O342 2.399 . S
Tb321 O331 2.322 . S
Tb321 O332 2.349 . S
Tb321 O334 2.415 1_556 S
Tb321 O335 2.399 . S
Tb321 O336 2.325 1_556 S
Tb321 O339 2.303 1_556 S
Tb321 C350 2.764 1_556 S
C322 O338 1.261 . S
C322 O339 1.257 . S
C323 C326 1.358 . S
C323 C327 1.332 . S
C323 C329 1.504 . S
C324 C325 1.373 . S
C324 C328 1.308 . S
C325 C324 1.373 . S
C325 C326 1.429 . S
C325 H352 0.932 . S
C326 C323 1.358 . S
C326 C325 1.429 . S
C326 H353 0.930 1_556 S
C327 C323 1.332 . S
C327 C328 1.394 . S
C327 H354 0.932 . S
C328 C324 1.308 . S
C328 C327 1.394 . S
C328 H355 0.929 . S
C329 Tb320 2.764 1_556 S
C329 C323 1.504 . S
C329 O341 1.239 . S
C329 O342 1.263 1_556 S
O330 Tb320 2.325 1_556 S
O330 C340 1.236 . S
O331 Tb321 2.322 . S
O331 C340 1.257 . S
O332 Tb321 2.349 . S
O332 C343 1.261 . S
O333 Tb320 2.303 1_556 S
O333 C343 1.257 . S
O334 Tb321 2.415 1_554 S
O334 C350 1.239 . S
O335 Tb321 2.399 . S
O335 C350 1.263 1_556 S
O336 Tb321 2.325 1_554 S
O336 C351 1.236 . S
O337 Tb320 2.322 . S
O337 C351 1.257 . S
O338 Tb320 2.349 . S
O338 C322 1.261 . S
O339 Tb321 2.303 1_554 S
O339 C322 1.257 . S
C340 O330 1.236 . S
C340 O331 1.257 . S
O341 Tb320 2.415 1_556 S
O341 C329 1.239 . S
O342 Tb320 2.399 . S
O342 C329 1.263 1_554 S
C343 O332 1.261 . S
C343 O333 1.257 . S
C344 C347 1.358 . S
C344 C348 1.332 . S
C344 C350 1.504 . S
C345 C346 1.373 . S
C345 C349 1.308 . S
C346 C345 1.373 . S
C346 C347 1.429 . S
C346 H356 0.932 . S
C347 C344 1.358 . S
C347 C346 1.429 . S
C347 H357 0.910 1_554 S
C348 C344 1.332 . S
C348 C349 1.394 . S
C348 H358 0.932 . S
C349 C345 1.308 . S
C349 C348 1.394 . S
C349 H359 0.929 . S
C350 Tb321 2.764 1_554 S
C350 O334 1.239 . S
C350 O335 1.263 1_554 S
C350 C344 1.504 . S
C351 O336 1.236 . S
C351 O337 1.257 . S
H352 C325 0.932 . S
H353 C326 0.930 1_554 S
H354 C327 0.932 . S
H355 C328 0.929 . S
H356 C346 0.932 . S
H357 C347 0.910 1_556 S
H358 C348 0.932 . S
H359 C349 0.929 . S
Tb360 C369 2.764 . S
Tb360 O370 2.325 . S
Tb360 O373 2.303 . S
Tb360 O377 2.322 . S
Tb360 O378 2.349 . S
Tb360 O381 2.415 . S
Tb360 O382 2.399 . S
Tb361 O371 2.322 . S
Tb361 O372 2.349 . S
Tb361 O374 2.415 . S
Tb361 O375 2.399 . S
Tb361 O376 2.325 . S
Tb361 O379 2.303 . S
Tb361 C390 2.764 . S
C362 O378 1.261 . S
C362 O379 1.257 . S
C363 C366 1.358 . S
C363 C367 1.332 . S
C363 C369 1.504 . S
C364 C365 1.373 . S
C364 C368 1.308 . S
C365 C364 1.373 . S
C365 C366 1.429 . S
C365 H392 0.932 1_655 S
C366 C363 1.358 . S
C366 C365 1.429 . S
C366 H393 0.930 . S
C367 C363 1.332 . S
C367 C368 1.394 . S
C367 H394 0.932 . S
C368 C364 1.308 . S
C368 C367 1.394 . S
C368 H395 0.929 . S
C369 Tb360 2.764 . S
C369 C363 1.504 . S
C369 O381 1.239 . S
C369 O382 1.263 . S
O370 Tb360 2.325 . S
O370 C380 1.236 . S
O371 Tb361 2.322 . S
O371 C380 1.257 . S
O372 Tb361 2.349 . S
O372 C383 1.261 . S
O373 Tb360 2.303 . S
O373 C383 1.257 . S
O374 Tb361 2.415 . S
O374 C390 1.239 . S
O375 Tb361 2.399 . S
O375 C390 1.263 . S
O376 Tb361 2.325 . S
O376 C391 1.236 . S
O377 Tb360 2.322 . S
O377 C391 1.257 . S
O378 Tb360 2.349 . S
O378 C362 1.261 . S
O379 Tb361 2.303 . S
O379 C362 1.257 . S
C380 O370 1.236 . S
C380 O371 1.257 . S
O381 Tb360 2.415 . S
O381 C369 1.239 . S
O382 Tb360 2.399 . S
O382 C369 1.263 . S
C383 O372 1.261 . S
C383 O373 1.257 . S
C384 C387 1.358 . S
C384 C388 1.332 . S
C384 C390 1.504 . S
C385 C386 1.373 . S
C385 C389 1.308 . S
C386 C385 1.373 . S
C386 C387 1.429 . S
C386 H396 0.932 . S
C387 C384 1.358 . S
C387 C386 1.429 . S
C387 H397 0.930 . S
C388 C384 1.332 . S
C388 C389 1.394 . S
C388 H398 0.932 . S
C389 C385 1.308 . S
C389 C388 1.394 . S
C389 H399 0.929 . S
C390 Tb361 2.764 . S
C390 O374 1.239 . S
C390 O375 1.263 . S
C390 C384 1.504 . S
C391 O376 1.236 . S
C391 O377 1.257 . S
H392 C365 0.932 1_455 S
H393 C366 0.930 . S
H394 C367 0.932 . S
H395 C368 0.929 . S
H396 C386 0.932 . S
H397 C387 0.930 . S
H398 C388 0.932 . S
H399 C389 0.929 . S
Tb400 C409 2.764 . S
Tb400 O410 2.325 1_455 S
Tb400 O413 2.303 . S
Tb400 O417 2.322 . S
Tb400 O418 2.349 1_455 S
Tb400 O421 2.415 . S
Tb400 O422 2.399 . S
Tb401 O411 2.322 . S
Tb401 O412 2.349 1_655 S
Tb401 O414 2.415 . S
Tb401 O415 2.399 . S
Tb401 O416 2.325 1_655 S
Tb401 O419 2.303 . S
Tb401 C430 2.764 . S
C402 O418 1.261 . S
C402 O419 1.257 . S
C403 C406 1.358 . S
C403 C407 1.332 . S
C403 C409 1.504 . S
C404 C405 1.373 . S
C404 C408 1.308 . S
C405 C404 1.373 . S
C405 C406 1.429 . S
C405 H432 0.932 . S
C406 C403 1.358 . S
C406 C405 1.429 . S
C406 H433 0.930 . S
C407 C403 1.332 . S
C407 C408 1.394 . S
C407 H434 0.932 . S
C408 C404 1.308 . S
C408 C407 1.394 . S
C408 H435 0.929 . S
C409 Tb400 2.764 . S
C409 C403 1.504 . S
C409 O421 1.239 . S
C409 O422 1.263 . S
O410 Tb400 2.325 1_655 S
O410 C420 1.236 . S
O411 Tb401 2.322 . S
O411 C420 1.257 . S
O412 Tb401 2.349 1_455 S
O412 C423 1.261 . S
O413 Tb400 2.303 . S
O413 C423 1.257 . S
O414 Tb401 2.415 . S
O414 C430 1.239 . S
O415 Tb401 2.399 . S
O415 C430 1.263 . S
O416 Tb401 2.325 1_455 S
O416 C431 1.236 . S
O417 Tb400 2.322 . S
O417 C431 1.257 . S
O418 Tb400 2.349 1_655 S
O418 C402 1.261 . S
O419 Tb401 2.303 . S
O419 C402 1.257 . S
C420 O410 1.236 . S
C420 O411 1.257 . S
O421 Tb400 2.415 . S
O421 C409 1.239 . S
O422 Tb400 2.399 . S
O422 C409 1.263 . S
C423 O412 1.261 . S
C423 O413 1.257 . S
C424 C427 1.358 . S
C424 C428 1.332 . S
C424 C430 1.504 . S
C425 C426 1.373 . S
C425 C429 1.308 . S
C426 C425 1.373 . S
C426 C427 1.429 . S
C426 H436 0.932 . S
C427 C424 1.358 . S
C427 C426 1.429 . S
C427 H437 0.930 . S
C428 C424 1.332 . S
C428 C429 1.394 . S
C428 H438 0.932 . S
C429 C425 1.308 . S
C429 C428 1.394 . S
C429 H439 0.929 . S
C430 Tb401 2.764 . S
C430 O414 1.239 . S
C430 O415 1.263 . S
C430 C424 1.504 . S
C431 O416 1.236 . S
C431 O417 1.257 . S
H432 C405 0.932 . S
H433 C406 0.930 . S
H434 C407 0.932 . S
H435 C408 0.929 . S
H436 C426 0.932 . S
H437 C427 0.930 . S
H438 C428 0.932 . S
H439 C429 0.929 . S
Tb440 C449 2.764 . S
Tb440 O450 2.325 . S
Tb440 O453 2.303 . S
Tb440 O457 2.322 . S
Tb440 O458 2.349 . S
Tb440 O461 2.415 . S
Tb440 O462 2.399 . S
Tb441 O451 2.322 . S
Tb441 O452 2.349 . S
Tb441 O454 2.415 . S
Tb441 O455 2.399 . S
Tb441 O456 2.325 . S
Tb441 O459 2.303 . S
Tb441 C470 2.764 . S
C442 O458 1.261 . S
C442 O459 1.257 . S
C443 C446 1.358 . S
C443 C447 1.332 . S
C443 C449 1.504 . S
C444 C445 1.373 . S
C444 C448 1.308 . S
C445 C444 1.373 . S
C445 C446 1.429 . S
C445 H472 0.932 . S
C446 C443 1.358 . S
C446 C445 1.429 . S
C446 H473 0.930 . S
C447 C443 1.332 . S
C447 C448 1.394 . S
C447 H474 0.932 . S
C448 C444 1.308 . S
C448 C447 1.394 . S
C448 H475 0.929 . S
C449 Tb440 2.764 . S
C449 C443 1.504 . S
C449 O461 1.239 . S
C449 O462 1.263 . S
O450 Tb440 2.325 . S
O450 C460 1.236 . S
O451 Tb441 2.322 . S
O451 C460 1.257 . S
O452 Tb441 2.349 . S
O452 C463 1.261 . S
O453 Tb440 2.303 . S
O453 C463 1.257 . S
O454 Tb441 2.415 . S
O454 C470 1.239 . S
O455 Tb441 2.399 . S
O455 C470 1.263 . S
O456 Tb441 2.325 . S
O456 C471 1.236 . S
O457 Tb440 2.322 . S
O457 C471 1.257 . S
O458 Tb440 2.349 . S
O458 C442 1.261 . S
O459 Tb441 2.303 . S
O459 C442 1.257 . S
C460 O450 1.236 . S
C460 O451 1.257 . S
O461 Tb440 2.415 . S
O461 C449 1.239 . S
O462 Tb440 2.399 . S
O462 C449 1.263 . S
C463 O452 1.261 . S
C463 O453 1.257 . S
C464 C467 1.358 . S
C464 C468 1.332 . S
C464 C470 1.504 . S
C465 C466 1.373 . S
C465 C469 1.308 . S
C466 C465 1.373 . S
C466 C467 1.429 . S
C466 H476 0.932 . S
C467 C464 1.358 . S
C467 C466 1.429 . S
C467 H477 0.930 . S
C468 C464 1.332 . S
C468 C469 1.394 . S
C468 H478 0.932 . S
C469 C465 1.308 . S
C469 C468 1.394 . S
C469 H479 0.929 . S
C470 Tb441 2.764 . S
C470 O454 1.239 . S
C470 O455 1.263 . S
C470 C464 1.504 . S
C471 O456 1.236 . S
C471 O457 1.257 . S
H472 C445 0.932 . S
H473 C446 0.930 . S
H474 C447 0.932 . S
H475 C448 0.929 . S
H476 C466 0.932 . S
H477 C467 0.930 . S
H478 C468 0.932 . S
H479 C469 0.929 . S
Tb480 C489 2.764 . S
Tb480 O490 2.325 . S
Tb480 O493 2.303 . S
Tb480 O497 2.322 . S
Tb480 O498 2.349 . S
Tb480 O501 2.415 . S
Tb480 O502 2.399 . S
Tb481 O491 2.322 . S
Tb481 O492 2.349 . S
Tb481 O494 2.415 . S
Tb481 O495 2.399 . S
Tb481 O496 2.325 . S
Tb481 O499 2.303 . S
Tb481 C510 2.764 . S
C482 O498 1.261 . S
C482 O499 1.257 . S
C483 C486 1.358 . S
C483 C487 1.332 . S
C483 C489 1.504 . S
C484 C485 1.373 . S
C484 C488 1.308 . S
C485 C484 1.373 . S
C485 C486 1.429 . S
C485 H512 0.932 . S
C486 C483 1.358 . S
C486 C485 1.429 . S
C486 H513 0.930 . S
C487 C483 1.332 . S
C487 C488 1.394 . S
C487 H514 0.932 . S
C488 C484 1.308 . S
C488 C487 1.394 . S
C488 H515 0.929 . S
C489 Tb480 2.764 . S
C489 C483 1.504 . S
C489 O501 1.239 . S
C489 O502 1.263 . S
O490 Tb480 2.325 . S
O490 C500 1.236 . S
O491 Tb481 2.322 . S
O491 C500 1.257 . S
O492 Tb481 2.349 . S
O492 C503 1.261 . S
O493 Tb480 2.303 . S
O493 C503 1.257 . S
O494 Tb481 2.415 . S
O494 C510 1.239 . S
O495 Tb481 2.399 . S
O495 C510 1.263 . S
O496 Tb481 2.325 . S
O496 C511 1.236 . S
O497 Tb480 2.322 . S
O497 C511 1.257 . S
O498 Tb480 2.349 . S
O498 C482 1.261 . S
O499 Tb481 2.303 . S
O499 C482 1.257 . S
C500 O490 1.236 . S
C500 O491 1.257 . S
O501 Tb480 2.415 . S
O501 C489 1.239 . S
O502 Tb480 2.399 . S
O502 C489 1.263 . S
C503 O492 1.261 . S
C503 O493 1.257 . S
C504 C507 1.358 . S
C504 C508 1.332 . S
C504 C510 1.504 . S
C505 C506 1.373 . S
C505 C509 1.308 . S
C506 C505 1.373 . S
C506 C507 1.429 . S
C506 H516 0.932 . S
C507 C504 1.358 . S
C507 C506 1.429 . S
C507 H517 0.930 . S
C508 C504 1.332 . S
C508 C509 1.394 . S
C508 H518 0.932 . S
C509 C505 1.308 . S
C509 C508 1.394 . S
C509 H519 0.929 . S
C510 Tb481 2.764 . S
C510 O494 1.239 . S
C510 O495 1.263 . S
C510 C504 1.504 . S
C511 O496 1.236 . S
C511 O497 1.257 . S
H512 C485 0.932 . S
H513 C486 0.930 . S
H514 C487 0.932 . S
H515 C488 0.929 . S
H516 C506 0.932 . S
H517 C507 0.930 . S
H518 C508 0.932 . S
H519 C509 0.929 . S
Tb520 C529 2.764 . S
Tb520 O530 2.325 . S
Tb520 O533 2.303 . S
Tb520 O537 2.322 . S
Tb520 O538 2.349 . S
Tb520 O541 2.415 . S
Tb520 O542 2.399 . S
Tb521 O531 2.322 . S
Tb521 O532 2.349 . S
Tb521 O534 2.415 . S
Tb521 O535 2.399 . S
Tb521 O536 2.325 . S
Tb521 O539 2.303 . S
Tb521 C550 2.764 . S
C522 O538 1.261 . S
C522 O539 1.257 . S
C523 C526 1.358 . S
C523 C527 1.332 . S
C523 C529 1.504 . S
C524 C525 1.373 . S
C524 C528 1.308 . S
C525 C524 1.373 . S
C525 C526 1.429 . S
C525 H552 0.932 . S
C526 C523 1.358 . S
C526 C525 1.429 . S
C526 H553 0.930 . S
C527 C523 1.332 . S
C527 C528 1.394 . S
C527 H554 0.932 . S
C528 C524 1.308 . S
C528 C527 1.394 . S
C528 H555 0.929 . S
C529 Tb520 2.764 . S
C529 C523 1.504 . S
C529 O541 1.239 . S
C529 O542 1.263 . S
O530 Tb520 2.325 . S
O530 C540 1.236 . S
O531 Tb521 2.322 . S
O531 C540 1.257 . S
O532 Tb521 2.349 . S
O532 C543 1.261 . S
O533 Tb520 2.303 . S
O533 C543 1.257 . S
O534 Tb521 2.415 . S
O534 C550 1.239 . S
O535 Tb521 2.399 . S
O535 C550 1.263 . S
O536 Tb521 2.325 . S
O536 C551 1.236 . S
O537 Tb520 2.322 . S
O537 C551 1.257 . S
O538 Tb520 2.349 . S
O538 C522 1.261 . S
O539 Tb521 2.303 . S
O539 C522 1.257 . S
C540 O530 1.236 . S
C540 O531 1.257 . S
O541 Tb520 2.415 . S
O541 C529 1.239 . S
O542 Tb520 2.399 . S
O542 C529 1.263 . S
C543 O532 1.261 . S
C543 O533 1.257 . S
C544 C547 1.358 . S
C544 C548 1.332 . S
C544 C550 1.504 . S
C545 C546 1.373 . S
C545 C549 1.308 . S
C546 C545 1.373 . S
C546 C547 1.429 . S
C546 H556 0.932 . S
C547 C544 1.358 . S
C547 C546 1.429 . S
C547 H557 0.930 . S
C548 C544 1.332 . S
C548 C549 1.394 . S
C548 H558 0.932 . S
C549 C545 1.308 . S
C549 C548 1.394 . S
C549 H559 0.929 . S
C550 Tb521 2.764 . S
C550 O534 1.239 . S
C550 O535 1.263 . S
C550 C544 1.504 . S
C551 O536 1.236 . S
C551 O537 1.257 . S
H552 C525 0.932 . S
H553 C526 0.930 . S
H554 C527 0.932 . S
H555 C528 0.929 . S
H556 C546 0.932 . S
H557 C547 0.930 . S
H558 C548 0.932 . S
H559 C549 0.929 . S
Tb560 C569 2.764 . S
Tb560 O570 2.325 . S
Tb560 O573 2.303 . S
Tb560 O577 2.322 . S
Tb560 O578 2.349 . S
Tb560 O581 2.415 . S
Tb560 O582 2.399 . S
Tb561 O571 2.322 . S
Tb561 O572 2.349 . S
Tb561 O574 2.415 . S
Tb561 O575 2.399 . S
Tb561 O576 2.325 . S
Tb561 O579 2.303 . S
Tb561 C590 2.764 . S
C562 O578 1.261 . S
C562 O579 1.257 . S
C563 C566 1.358 . S
C563 C567 1.332 . S
C563 C569 1.504 . S
C564 C565 1.373 . S
C564 C568 1.308 . S
C565 C564 1.373 . S
C565 C566 1.429 . S
C565 H592 0.932 . S
C566 C563 1.358 . S
C566 C565 1.429 . S
C566 H593 0.930 . S
C567 C563 1.332 . S
C567 C568 1.394 . S
C567 H594 0.932 . S
C568 C564 1.308 . S
C568 C567 1.394 . S
C568 H595 0.929 . S
C569 Tb560 2.764 . S
C569 C563 1.504 . S
C569 O581 1.239 . S
C569 O582 1.263 . S
O570 Tb560 2.325 . S
O570 C580 1.236 . S
O571 Tb561 2.322 . S
O571 C580 1.257 . S
O572 Tb561 2.349 . S
O572 C583 1.261 . S
O573 Tb560 2.303 . S
O573 C583 1.257 . S
O574 Tb561 2.415 . S
O574 C590 1.239 . S
O575 Tb561 2.399 . S
O575 C590 1.263 . S
O576 Tb561 2.325 . S
O576 C591 1.236 . S
O577 Tb560 2.322 . S
O577 C591 1.257 . S
O578 Tb560 2.349 . S
O578 C562 1.261 . S
O579 Tb561 2.303 . S
O579 C562 1.257 . S
C580 O570 1.236 . S
C580 O571 1.257 . S
O581 Tb560 2.415 . S
O581 C569 1.239 . S
O582 Tb560 2.399 . S
O582 C569 1.263 . S
C583 O572 1.261 . S
C583 O573 1.257 . S
C584 C587 1.358 . S
C584 C588 1.332 . S
C584 C590 1.504 . S
C585 C586 1.373 . S
C585 C589 1.308 . S
C586 C585 1.373 . S
C586 C587 1.429 . S
C586 H596 0.932 . S
C587 C584 1.358 . S
C587 C586 1.429 . S
C587 H597 0.930 . S
C588 C584 1.332 . S
C588 C589 1.394 . S
C588 H598 0.932 . S
C589 C585 1.308 . S
C589 C588 1.394 . S
C589 H599 0.929 . S
C590 Tb561 2.764 . S
C590 O574 1.239 . S
C590 O575 1.263 . S
C590 C584 1.504 . S
C591 O576 1.236 . S
C591 O577 1.257 . S
H592 C565 0.932 . S
H593 C566 0.930 . S
H594 C567 0.932 . S
H595 C568 0.929 . S
H596 C586 0.932 . S
H597 C587 0.930 . S
H598 C588 0.932 . S
H599 C589 0.929 . S
Tb600 C609 2.764 . S
Tb600 O610 2.325 1_654 S
Tb600 O613 2.303 1_655 S
Tb600 O617 2.322 . S
Tb600 O618 2.349 1_554 S
Tb600 O621 2.415 1_655 S
Tb600 O622 2.399 . S
Tb601 O611 2.322 . S
Tb601 O612 2.349 1_556 S
Tb601 O614 2.415 1_455 S
Tb601 O615 2.399 . S
Tb601 O616 2.325 1_456 S
Tb601 O619 2.303 1_455 S
Tb601 C630 2.764 . S
C602 O618 1.261 . S
C602 O619 1.257 . S
C603 C606 1.358 1_455 S
C603 C607 1.332 . S
C603 C609 1.504 1_455 S
C604 C605 1.373 1_455 S
C604 C608 1.308 . S
C605 C604 1.373 1_655 S
C605 C606 1.429 . S
C605 H632 0.932 . S
C606 C603 1.358 1_655 S
C606 C605 1.429 . S
C606 H633 0.930 . S
C607 C603 1.332 . S
C607 C608 1.394 . S
C607 H634 0.932 . S
C608 C604 1.308 . S
C608 C607 1.394 . S
C608 H635 0.929 . S
C609 Tb600 2.764 . S
C609 C603 1.504 1_655 S
C609 O621 1.239 1_655 S
C609 O622 1.263 . S
O610 Tb600 2.325 1_456 S
O610 C620 1.236 . S
O611 Tb601 2.322 . S
O611 C620 1.257 . S
O612 Tb601 2.349 1_554 S
O612 C623 1.261 . S
O613 Tb600 2.303 1_455 S
O613 C623 1.257 . S
O614 Tb601 2.415 1_655 S
O614 C630 1.239 1_655 S
O615 Tb601 2.399 . S
O615 C630 1.263 . S
O616 Tb601 2.325 1_654 S
O616 C631 1.236 . S
O617 Tb600 2.322 . S
O617 C631 1.257 . S
O618 Tb600 2.349 1_556 S
O618 C602 1.261 . S
O619 Tb601 2.303 1_655 S
O619 C602 1.257 . S
C620 O610 1.236 . S
C620 O611 1.257 . S
O621 Tb600 2.415 1_455 S
O621 C609 1.239 1_455 S
O622 Tb600 2.399 . S
O622 C609 1.263 . S
C623 O612 1.261 . S
C623 O613 1.257 . S
C624 C627 1.358 1_655 S
C624 C628 1.332 . S
C624 C630 1.504 1_655 S
C625 C626 1.373 1_655 S
C625 C629 1.308 . S
C626 C625 1.373 1_455 S
C626 C627 1.429 . S
C626 H636 0.932 . S
C627 C624 1.358 1_455 S
C627 C626 1.429 . S
C627 H637 0.930 . S
C628 C624 1.332 . S
C628 C629 1.394 . S
C628 H638 0.932 . S
C629 C625 1.308 . S
C629 C628 1.394 . S
C629 H639 0.929 . S
C630 Tb601 2.764 . S
C630 O614 1.239 1_455 S
C630 O615 1.263 . S
C630 C624 1.504 1_455 S
C631 O616 1.236 . S
C631 O617 1.257 . S
H632 C605 0.932 . S
H633 C606 0.930 . S
H634 C607 0.932 . S
H635 C608 0.929 . S
H636 C626 0.932 . S
H637 C627 0.930 . S
H638 C628 0.932 . S
H639 C629 0.929 . S
C640 C641 1.387 . S
C640 H644 0.950 . S
C640 C649 1.390 . S
C641 C640 1.387 . S
C641 C643 1.387 . S
H642 C649 0.950 . S
C643 C641 1.387 . S
C643 C645 1.390 . S
C643 H647 0.950 . S
H644 C640 0.950 . S
C645 C643 1.390 . S
C645 C646 1.387 . S
C645 H648 0.950 . S
C646 C645 1.387 . S
C646 C649 1.387 . S
H647 C643 0.950 . S
H648 C645 0.950 . S
C649 C640 1.390 . S
C649 H642 0.950 . S
C649 C646 1.387 . S
C650 C651 1.387 . S
C650 H654 0.950 . S
C650 C659 1.390 . S
C651 C650 1.387 . S
C651 C653 1.387 . S
H652 C659 0.950 . S
C653 C651 1.387 . S
C653 C655 1.390 . S
C653 H657 0.950 . S
H654 C650 0.950 . S
C655 C653 1.390 . S
C655 C656 1.387 . S
C655 H658 0.950 . S
C656 C655 1.387 . S
C656 C659 1.387 . S
H657 C653 0.950 . S
H658 C655 0.950 . S
C659 C650 1.390 . S
C659 H652 0.950 . S
C659 C656 1.387 . S
C660 C661 1.387 . S
C660 H664 0.950 . S
C660 C669 1.390 . S
C661 C660 1.387 . S
C661 C663 1.387 . S
H662 C669 0.950 . S
C663 C661 1.387 . S
C663 C665 1.390 . S
C663 H667 0.950 . S
H664 C660 0.950 . S
C665 C663 1.390 . S
C665 C666 1.387 . S
C665 H668 0.950 . S
C666 C665 1.387 . S
C666 C669 1.387 . S
H667 C663 0.950 . S
H668 C665 0.950 . S
C669 C660 1.390 . S
C669 H662 0.950 . S
C669 C666 1.387 . S
C670 C671 1.387 . S
C670 H674 0.950 . S
C670 C679 1.390 . S
C671 C670 1.387 . S
C671 C673 1.387 . S
H672 C679 0.950 . S
C673 C671 1.387 . S
C673 C675 1.390 . S
C673 H677 0.950 . S
H674 C670 0.950 . S
C675 C673 1.390 . S
C675 C676 1.387 . S
C675 H678 0.950 . S
C676 C675 1.387 . S
C676 C679 1.387 . S
H677 C673 0.950 . S
H678 C675 0.950 . S
C679 C670 1.390 . S
C679 H672 0.950 . S
C679 C676 1.387 . S
C680 C681 1.387 . S
C680 H684 0.950 . S
C680 C689 1.390 . S
C681 C680 1.387 . S
C681 C683 1.387 . S
H682 C689 0.950 . S
C683 C681 1.387 . S
C683 C685 1.390 . S
C683 H687 0.950 . S
H684 C680 0.950 . S
C685 C683 1.390 . S
C685 C686 1.387 . S
C685 H688 0.950 . S
C686 C685 1.387 . S
C686 C689 1.387 . S
H687 C683 0.950 . S
H688 C685 0.950 . S
C689 C680 1.390 . S
C689 H682 0.950 . S
C689 C686 1.387 . S
C690 C691 1.387 . S
C690 H694 0.950 . S
C690 C699 1.390 . S
C691 C690 1.387 . S
C691 C693 1.387 . S
H692 C699 0.950 . S
C693 C691 1.387 . S
C693 C695 1.390 . S
C693 H697 0.950 . S
H694 C690 0.950 . S
C695 C693 1.390 . S
C695 C696 1.387 . S
C695 H698 0.950 . S
C696 C695 1.387 . S
C696 C699 1.387 . S
H697 C693 0.950 . S
H698 C695 0.950 . S
C699 C690 1.390 . S
C699 H692 0.950 . S
C699 C696 1.387 . S
C700 C701 1.387 . S
C700 H704 0.950 . S
C700 C709 1.390 . S
C701 C700 1.387 . S
C701 C703 1.387 . S
H702 C709 0.950 . S
C703 C701 1.387 . S
C703 C705 1.390 . S
C703 H707 0.950 . S
H704 C700 0.950 . S
C705 C703 1.390 . S
C705 C706 1.387 . S
C705 H708 0.950 . S
C706 C705 1.387 . S
C706 C709 1.387 . S
H707 C703 0.950 . S
H708 C705 0.950 . S
C709 C700 1.390 . S
C709 H702 0.950 . S
C709 C706 1.387 . S
C710 C711 1.387 . S
C710 H714 0.950 . S
C710 C719 1.390 . S
C711 C710 1.387 . S
C711 C713 1.387 . S
H712 C719 0.950 . S
C713 C711 1.387 . S
C713 C715 1.390 . S
C713 H717 0.950 . S
H714 C710 0.950 . S
C715 C713 1.390 . S
C715 C716 1.387 . S
C715 H718 0.950 . S
C716 C715 1.387 . S
C716 C719 1.387 . S
H717 C713 0.950 . S
H718 C715 0.950 . S
C719 C710 1.390 . S
C719 H712 0.950 . S
C719 C716 1.387 . S
C720 C721 1.387 . S
C720 H724 0.950 . S
C720 C729 1.390 . S
C721 C720 1.387 . S
C721 C723 1.387 . S
H722 C729 0.950 . S
C723 C721 1.387 . S
C723 C725 1.390 . S
C723 H727 0.950 . S
H724 C720 0.950 . S
C725 C723 1.390 . S
C725 C726 1.387 . S
C725 H728 0.950 . S
C726 C725 1.387 . S
C726 C729 1.387 . S
H727 C723 0.950 . S
H728 C725 0.950 . S
C729 C720 1.390 . S
C729 H722 0.950 . S
C729 C726 1.387 . S
C730 C731 1.387 . S
C730 H734 0.950 . S
C730 C739 1.390 . S
C731 C730 1.387 . S
C731 C733 1.387 . S
H732 C739 0.950 . S
C733 C731 1.387 . S
C733 C735 1.390 . S
C733 H737 0.950 . S
H734 C730 0.950 . S
C735 C733 1.390 . S
C735 C736 1.387 . S
C735 H738 0.950 . S
C736 C735 1.387 . S
C736 C739 1.387 . S
H737 C733 0.950 . S
H738 C735 0.950 . S
C739 C730 1.390 . S
C739 H732 0.950 . S
C739 C736 1.387 . S
C740 C741 1.387 . S
C740 H744 0.950 . S
C740 C749 1.390 . S
C741 C740 1.387 . S
C741 C743 1.387 . S
H742 C749 0.950 . S
C743 C741 1.387 . S
C743 C745 1.390 . S
C743 H747 0.950 . S
H744 C740 0.950 . S
C745 C743 1.390 . S
C745 C746 1.387 . S
C745 H748 0.950 . S
C746 C745 1.387 . S
C746 C749 1.387 . S
H747 C743 0.950 . S
H748 C745 0.950 . S
C749 C740 1.390 . S
C749 H742 0.950 . S
C749 C746 1.387 . S
C750 C751 1.387 . S
C750 H754 0.950 . S
C750 C759 1.390 . S
C751 C750 1.387 . S
C751 C753 1.387 . S
H752 C759 0.950 . S
C753 C751 1.387 . S
C753 C755 1.390 . S
C753 H757 0.950 . S
H754 C750 0.950 . S
C755 C753 1.390 . S
C755 C756 1.387 . S
C755 H758 0.950 . S
C756 C755 1.387 . S
C756 C759 1.387 . S
H757 C753 0.950 . S
H758 C755 0.950 . S
C759 C750 1.390 . S
C759 H752 0.950 . S
C759 C756 1.387 . S
C760 C761 1.387 . S
C760 H764 0.950 . S
C760 C769 1.390 . S
C761 C760 1.387 . S
C761 C763 1.387 . S
H762 C769 0.950 . S
C763 C761 1.387 . S
C763 C765 1.390 . S
C763 H767 0.950 . S
H764 C760 0.950 . S
C765 C763 1.390 . S
C765 C766 1.387 . S
C765 H768 0.950 . S
C766 C765 1.387 . S
C766 C769 1.387 . S
H767 C763 0.950 . S
H768 C765 0.950 . S
C769 C760 1.390 . S
C769 H762 0.950 . S
C769 C766 1.387 . S
C770 C771 1.387 . S
C770 H774 0.950 . S
C770 C779 1.390 . S
C771 C770 1.387 . S
C771 C773 1.387 . S
H772 C779 0.950 . S
C773 C771 1.387 . S
C773 C775 1.390 . S
C773 H777 0.950 . S
H774 C770 0.950 . S
C775 C773 1.390 . S
C775 C776 1.387 . S
C775 H778 0.950 . S
C776 C775 1.387 . S
C776 C779 1.387 . S
H777 C773 0.950 . S
H778 C775 0.950 . S
C779 C770 1.390 . S
C779 H772 0.950 . S
C779 C776 1.387 . S
C780 C781 1.387 . S
C780 H784 0.950 . S
C780 C789 1.390 . S
C781 C780 1.387 . S
C781 C783 1.387 . S
H782 C789 0.950 . S
C783 C781 1.387 . S
C783 C785 1.390 . S
C783 H787 0.950 . S
H784 C780 0.950 . S
C785 C783 1.390 . S
C785 C786 1.387 . S
C785 H788 0.950 . S
C786 C785 1.387 . S
C786 C789 1.387 . S
H787 C783 0.950 . S
H788 C785 0.950 . S
C789 C780 1.390 . S
C789 H782 0.950 . S
C789 C786 1.387 . S
C790 C791 1.387 . S
C790 H794 0.950 . S
C790 C799 1.390 . S
C791 C790 1.387 . S
C791 C793 1.387 . S
H792 C799 0.950 . S
C793 C791 1.387 . S
C793 C795 1.390 . S
C793 H797 0.950 . S
H794 C790 0.950 . S
C795 C793 1.390 . S
C795 C796 1.387 . S
C795 H798 0.950 . S
C796 C795 1.387 . S
C796 C799 1.387 . S
H797 C793 0.950 . S
H798 C795 0.950 . S
C799 C790 1.390 . S
C799 H792 0.950 . S
C799 C796 1.387 . S
C800 C801 1.387 . S
C800 H804 0.950 . S
C800 C809 1.390 . S
C801 C800 1.387 . S
C801 C803 1.387 . S
H802 C809 0.950 . S
C803 C801 1.387 . S
C803 C805 1.390 . S
C803 H807 0.950 . S
H804 C800 0.950 . S
C805 C803 1.390 . S
C805 C806 1.387 . S
C805 H808 0.950 . S
C806 C805 1.387 . S
C806 C809 1.387 . S
H807 C803 0.950 . S
H808 C805 0.950 . S
C809 C800 1.390 . S
C809 H802 0.950 . S
C809 C806 1.387 . S
C810 C811 1.387 . S
C810 H814 0.950 . S
C810 C819 1.390 . S
C811 C810 1.387 . S
C811 C813 1.387 . S
H812 C819 0.950 . S
C813 C811 1.387 . S
C813 C815 1.390 . S
C813 H817 0.950 . S
H814 C810 0.950 . S
C815 C813 1.390 . S
C815 C816 1.387 . S
C815 H818 0.950 . S
C816 C815 1.387 . S
C816 C819 1.387 . S
H817 C813 0.950 . S
H818 C815 0.950 . S
C819 C810 1.390 . S
C819 H812 0.950 . S
C819 C816 1.387 . S
C820 C821 1.387 . S
C820 H824 0.950 . S
C820 C829 1.390 . S
C821 C820 1.387 . S
C821 C823 1.387 . S
H822 C829 0.950 . S
C823 C821 1.387 . S
C823 C825 1.390 . S
C823 H827 0.950 . S
H824 C820 0.950 . S
C825 C823 1.390 . S
C825 C826 1.387 . S
C825 H828 0.950 . S
C826 C825 1.387 . S
C826 C829 1.387 . S
H827 C823 0.950 . S
H828 C825 0.950 . S
C829 C820 1.390 . S
C829 H822 0.950 . S
C829 C826 1.387 . S
C830 C831 1.387 . S
C830 H834 0.950 . S
C830 C839 1.390 . S
C831 C830 1.387 . S
C831 C833 1.387 . S
H832 C839 0.950 . S
C833 C831 1.387 . S
C833 C835 1.390 . S
C833 H837 0.950 . S
H834 C830 0.950 . S
C835 C833 1.390 . S
C835 C836 1.387 . S
C835 H838 0.950 . S
C836 C835 1.387 . S
C836 C839 1.387 . S
H837 C833 0.950 . S
H838 C835 0.950 . S
C839 C830 1.390 . S
C839 H832 0.950 . S
C839 C836 1.387 . S
C840 C841 1.387 . S
C840 H844 0.950 . S
C840 C849 1.390 . S
C841 C840 1.387 . S
C841 C843 1.387 . S
H842 C849 0.950 . S
C843 C841 1.387 . S
C843 C845 1.390 . S
C843 H847 0.950 . S
H844 C840 0.950 . S
C845 C843 1.390 . S
C845 C846 1.387 . S
C845 H848 0.950 . S
C846 C845 1.387 . S
C846 C849 1.387 . S
H847 C843 0.950 . S
H848 C845 0.950 . S
C849 C840 1.390 . S
C849 H842 0.950 . S
C849 C846 1.387 . S
C850 C851 1.387 . S
C850 H854 0.950 . S
C850 C859 1.390 . S
C851 C850 1.387 . S
C851 C853 1.387 . S
H852 C859 0.950 . S
C853 C851 1.387 . S
C853 C855 1.390 . S
C853 H857 0.950 . S
H854 C850 0.950 . S
C855 C853 1.390 . S
C855 C856 1.387 . S
C855 H858 0.950 . S
C856 C855 1.387 . S
C856 C859 1.387 . S
H857 C853 0.950 . S
H858 C855 0.950 . S
C859 C850 1.390 . S
C859 H852 0.950 . S
C859 C856 1.387 . S
C860 C861 1.387 . S
C860 H864 0.950 . S
C860 C869 1.390 . S
C861 C860 1.387 . S
C861 C863 1.387 . S
H862 C869 0.950 . S
C863 C861 1.387 . S
C863 C865 1.390 . S
C863 H867 0.950 . S
H864 C860 0.950 . S
C865 C863 1.390 . S
C865 C866 1.387 . S
C865 H868 0.950 . S
C866 C865 1.387 . S
C866 C869 1.387 . S
H867 C863 0.950 . S
H868 C865 0.950 . S
C869 C860 1.390 . S
C869 H862 0.950 . S
C869 C866 1.387 . S
C870 C871 1.387 . S
C870 H874 0.950 . S
C870 C879 1.390 . S
C871 C870 1.387 . S
C871 C873 1.387 . S
H872 C879 0.950 . S
C873 C871 1.387 . S
C873 C875 1.390 . S
C873 H877 0.950 . S
H874 C870 0.950 . S
C875 C873 1.390 . S
C875 C876 1.387 . S
C875 H878 0.950 . S
C876 C875 1.387 . S
C876 C879 1.387 . S
H877 C873 0.950 . S
H878 C875 0.950 . S
C879 C870 1.390 . S
C879 H872 0.950 . S
C879 C876 1.387 . S
C880 C881 1.387 . S
C880 H884 0.950 . S
C880 C889 1.390 . S
C881 C880 1.387 . S
C881 C883 1.387 . S
H882 C889 0.950 . S
C883 C881 1.387 . S
C883 C885 1.390 . S
C883 H887 0.950 . S
H884 C880 0.950 . S
C885 C883 1.390 . S
C885 C886 1.387 . S
C885 H888 0.950 . S
C886 C885 1.387 . S
C886 C889 1.387 . S
H887 C883 0.950 . S
H888 C885 0.950 . S
C889 C880 1.390 . S
C889 H882 0.950 . S
C889 C886 1.387 . S
C890 C891 1.387 . S
C890 H894 0.950 . S
C890 C899 1.390 . S
C891 C890 1.387 . S
C891 C893 1.387 . S
H892 C899 0.950 . S
C893 C891 1.387 . S
C893 C895 1.390 . S
C893 H897 0.950 . S
H894 C890 0.950 . S
C895 C893 1.390 . S
C895 C896 1.387 . S
C895 H898 0.950 . S
C896 C895 1.387 . S
C896 C899 1.387 . S
H897 C893 0.950 . S
H898 C895 0.950 . S
C899 C890 1.390 . S
C899 H892 0.950 . S
C899 C896 1.387 . S
C900 C901 1.387 . S
C900 H904 0.950 . S
C900 C909 1.390 . S
C901 C900 1.387 . S
C901 C903 1.387 . S
H902 C909 0.950 . S
C903 C901 1.387 . S
C903 C905 1.390 . S
C903 H907 0.950 . S
H904 C900 0.950 . S
C905 C903 1.390 . S
C905 C906 1.387 . S
C905 H908 0.950 . S
C906 C905 1.387 . S
C906 C909 1.387 . S
H907 C903 0.950 . S
H908 C905 0.950 . S
C909 C900 1.390 . S
C909 H902 0.950 . S
C909 C906 1.387 . S
C910 C911 1.387 . S
C910 H914 0.950 . S
C910 C919 1.390 . S
C911 C910 1.387 . S
C911 C913 1.387 . S
H912 C919 0.950 . S
C913 C911 1.387 . S
C913 C915 1.390 . S
C913 H917 0.950 . S
H914 C910 0.950 . S
C915 C913 1.390 . S
C915 C916 1.387 . S
C915 H918 0.950 . S
C916 C915 1.387 . S
C916 C919 1.387 . S
H917 C913 0.950 . S
H918 C915 0.950 . S
C919 C910 1.390 . S
C919 H912 0.950 . S
C919 C916 1.387 . S
C920 C921 1.387 . S
C920 H924 0.950 . S
C920 C929 1.390 . S
C921 C920 1.387 . S
C921 C923 1.387 . S
H922 C929 0.950 . S
C923 C921 1.387 . S
C923 C925 1.390 . S
C923 H927 0.950 . S
H924 C920 0.950 . S
C925 C923 1.390 . S
C925 C926 1.387 . S
C925 H928 0.950 . S
C926 C925 1.387 . S
C926 C929 1.387 . S
H927 C923 0.950 . S
H928 C925 0.950 . S
C929 C920 1.390 . S
C929 H922 0.950 . S
C929 C926 1.387 . S
C930 C931 1.387 . S
C930 H934 0.950 . S
C930 C939 1.390 . S
C931 C930 1.387 . S
C931 C933 1.387 . S
H932 C939 0.950 . S
C933 C931 1.387 . S
C933 C935 1.390 . S
C933 H937 0.950 . S
H934 C930 0.950 . S
C935 C933 1.390 . S
C935 C936 1.387 . S
C935 H938 0.950 . S
C936 C935 1.387 . S
C936 C939 1.387 . S
H937 C933 0.950 . S
H938 C935 0.950 . S
C939 C930 1.390 . S
C939 H932 0.950 . S
C939 C936 1.387 . S
C940 C941 1.387 . S
C940 H944 0.950 . S
C940 C949 1.390 . S
C941 C940 1.387 . S
C941 C943 1.387 . S
H942 C949 0.950 . S
C943 C941 1.387 . S
C943 C945 1.390 . S
C943 H947 0.950 . S
H944 C940 0.950 . S
C945 C943 1.390 . S
C945 C946 1.387 . S
C945 H948 0.950 . S
C946 C945 1.387 . S
C946 C949 1.387 . S
H947 C943 0.950 . S
H948 C945 0.950 . S
C949 C940 1.390 . S
C949 H942 0.950 . S
C949 C946 1.387 . S
C950 C951 1.387 . S
C950 H954 0.950 . S
C950 C959 1.390 . S
C951 C950 1.387 . S
C951 C953 1.387 . S
H952 C959 0.950 . S
C953 C951 1.387 . S
C953 C955 1.390 . S
C953 H957 0.950 . S
H954 C950 0.950 . S
C955 C953 1.390 . S
C955 C956 1.387 . S
C955 H958 0.950 . S
C956 C955 1.387 . S
C956 C959 1.387 . S
H957 C953 0.950 . S
H958 C955 0.950 . S
C959 C950 1.390 . S
C959 H952 0.950 . S
C959 C956 1.387 . S
C960 C961 1.387 . S
C960 H964 0.950 . S
C960 C969 1.390 . S
C961 C960 1.387 . S
C961 C963 1.387 . S
H962 C969 0.950 . S
C963 C961 1.387 . S
C963 C965 1.390 . S
C963 H967 0.950 . S
H964 C960 0.950 . S
C965 C963 1.390 . S
C965 C966 1.387 . S
C965 H968 0.950 . S
C966 C965 1.387 . S
C966 C969 1.387 . S
H967 C963 0.950 . S
H968 C965 0.950 . S
C969 C960 1.390 . S
C969 H962 0.950 . S
C969 C966 1.387 . S
C970 C971 1.387 . S
C970 H974 0.950 . S
C970 C979 1.390 . S
C971 C970 1.387 . S
C971 C973 1.387 . S
H972 C979 0.950 . S
C973 C971 1.387 . S
C973 C975 1.390 . S
C973 H977 0.950 . S
H974 C970 0.950 . S
C975 C973 1.390 . S
C975 C976 1.387 . S
C975 H978 0.950 . S
C976 C975 1.387 . S
C976 C979 1.387 . S
H977 C973 0.950 . S
H978 C975 0.950 . S
C979 C970 1.390 . S
C979 H972 0.950 . S
C979 C976 1.387 . S
C980 C981 1.387 . S
C980 H984 0.950 . S
C980 C989 1.390 . S
C981 C980 1.387 . S
C981 C983 1.387 . S
H982 C989 0.950 . S
C983 C981 1.387 . S
C983 C985 1.390 . S
C983 H987 0.950 . S
H984 C980 0.950 . S
C985 C983 1.390 . S
C985 C986 1.387 . S
C985 H988 0.950 . S
C986 C985 1.387 . S
C986 C989 1.387 . S
H987 C983 0.950 . S
H988 C985 0.950 . S
C989 C980 1.390 . S
C989 H982 0.950 . S
C989 C986 1.387 . S
C990 C991 1.387 . S
C990 H994 0.950 . S
C990 C999 1.390 . S
C991 C990 1.387 . S
C991 C993 1.387 . S
H992 C999 0.950 . S
C993 C991 1.387 . S
C993 C995 1.390 . S
C993 H997 0.950 . S
H994 C990 0.950 . S
C995 C993 1.390 . S
C995 C996 1.387 . S
C995 H998 0.950 . S
C996 C995 1.387 . S
C996 C999 1.387 . S
H997 C993 0.950 . S
H998 C995 0.950 . S
C999 C990 1.390 . S
C999 H992 0.950 . S
C999 C996 1.387 . S
C1000 C1001 1.387 . S
C1000 H1004 0.950 . S
C1000 C1009 1.390 . S
C1001 C1000 1.387 . S
C1001 C1003 1.387 . S
H1002 C1009 0.950 . S
C1003 C1001 1.387 . S
C1003 C1005 1.390 . S
C1003 H1007 0.950 . S
H1004 C1000 0.950 . S
C1005 C1003 1.390 . S
C1005 C1006 1.387 . S
C1005 H1008 0.950 . S
C1006 C1005 1.387 . S
C1006 C1009 1.387 . S
H1007 C1003 0.950 . S
H1008 C1005 0.950 . S
C1009 C1000 1.390 . S
C1009 H1002 0.950 . S
C1009 C1006 1.387 . S
C1010 C1011 1.387 . S
C1010 H1014 0.950 . S
C1010 C1019 1.390 . S
C1011 C1010 1.387 . S
C1011 C1013 1.387 . S
H1012 C1019 0.950 . S
C1013 C1011 1.387 . S
C1013 C1015 1.390 . S
C1013 H1017 0.950 . S
H1014 C1010 0.950 . S
C1015 C1013 1.390 . S
C1015 C1016 1.387 . S
C1015 H1018 0.950 . S
C1016 C1015 1.387 . S
C1016 C1019 1.387 . S
H1017 C1013 0.950 . S
H1018 C1015 0.950 . S
C1019 C1010 1.390 . S
C1019 H1012 0.950 . S
C1019 C1016 1.387 . S
C1020 C1021 1.387 . S
C1020 H1024 0.950 . S
C1020 C1029 1.390 . S
C1021 C1020 1.387 . S
C1021 C1023 1.387 . S
H1022 C1029 0.950 . S
C1023 C1021 1.387 . S
C1023 C1025 1.390 . S
C1023 H1027 0.950 . S
H1024 C1020 0.950 . S
C1025 C1023 1.390 . S
C1025 C1026 1.387 . S
C1025 H1028 0.950 . S
C1026 C1025 1.387 . S
C1026 C1029 1.387 . S
H1027 C1023 0.950 . S
H1028 C1025 0.950 . S
C1029 C1020 1.390 . S
C1029 H1022 0.950 . S
C1029 C1026 1.387 . S
C1030 C1031 1.387 . S
C1030 H1034 0.950 . S
C1030 C1039 1.390 . S
C1031 C1030 1.387 . S
C1031 C1033 1.387 . S
H1032 C1039 0.950 . S
C1033 C1031 1.387 . S
C1033 C1035 1.390 . S
C1033 H1037 0.950 . S
H1034 C1030 0.950 . S
C1035 C1033 1.390 . S
C1035 C1036 1.387 . S
C1035 H1038 0.950 . S
C1036 C1035 1.387 . S
C1036 C1039 1.387 . S
H1037 C1033 0.950 . S
H1038 C1035 0.950 . S
C1039 C1030 1.390 . S
C1039 H1032 0.950 . S
C1039 C1036 1.387 . S
C1040 C1041 1.387 . S
C1040 H1044 0.950 . S
C1040 C1049 1.390 . S
C1041 C1040 1.387 . S
C1041 C1043 1.387 . S
H1042 C1049 0.950 . S
C1043 C1041 1.387 . S
C1043 C1045 1.390 . S
C1043 H1047 0.950 . S
H1044 C1040 0.950 . S
C1045 C1043 1.390 . S
C1045 C1046 1.387 . S
C1045 H1048 0.950 . S
C1046 C1045 1.387 . S
C1046 C1049 1.387 . S
H1047 C1043 0.950 . S
H1048 C1045 0.950 . S
C1049 C1040 1.390 . S
C1049 H1042 0.950 . S
C1049 C1046 1.387 . S
C1050 C1051 1.387 . S
C1050 H1054 0.950 . S
C1050 C1059 1.390 . S
C1051 C1050 1.387 . S
C1051 C1053 1.387 . S
H1052 C1059 0.950 . S
C1053 C1051 1.387 . S
C1053 C1055 1.390 . S
C1053 H1057 0.950 . S
H1054 C1050 0.950 . S
C1055 C1053 1.390 . S
C1055 C1056 1.387 . S
C1055 H1058 0.950 . S
C1056 C1055 1.387 . S
C1056 C1059 1.387 . S
H1057 C1053 0.950 . S
H1058 C1055 0.950 . S
C1059 C1050 1.390 . S
C1059 H1052 0.950 . S
C1059 C1056 1.387 . S
C1060 C1061 1.387 . S
C1060 H1064 0.950 . S
C1060 C1069 1.390 . S
C1061 C1060 1.387 . S
C1061 C1063 1.387 . S
H1062 C1069 0.950 . S
C1063 C1061 1.387 . S
C1063 C1065 1.390 . S
C1063 H1067 0.950 . S
H1064 C1060 0.950 . S
C1065 C1063 1.390 . S
C1065 C1066 1.387 . S
C1065 H1068 0.950 . S
C1066 C1065 1.387 . S
C1066 C1069 1.387 . S
H1067 C1063 0.950 . S
H1068 C1065 0.950 . S
C1069 C1060 1.390 . S
C1069 H1062 0.950 . S
C1069 C1066 1.387 . S
C1070 C1071 1.387 . S
C1070 H1074 0.950 . S
C1070 C1079 1.390 . S
C1071 C1070 1.387 . S
C1071 C1073 1.387 . S
H1072 C1079 0.950 . S
C1073 C1071 1.387 . S
C1073 C1075 1.390 . S
C1073 H1077 0.950 1_554 S
H1074 C1070 0.950 . S
C1075 C1073 1.390 . S
C1075 C1076 1.387 . S
C1075 H1078 0.950 1_554 S
C1076 C1075 1.387 . S
C1076 C1079 1.387 . S
H1077 C1073 0.950 1_556 S
H1078 C1075 0.950 1_556 S
C1079 C1070 1.390 . S
C1079 H1072 0.950 . S
C1079 C1076 1.387 . S
C1080 C1081 1.387 . S
C1080 H1084 0.950 . S
C1080 C1089 1.390 . S
C1081 C1080 1.387 . S
C1081 C1083 1.387 . S
H1082 C1089 0.950 . S
C1083 C1081 1.387 . S
C1083 C1085 1.390 . S
C1083 H1087 0.950 . S
H1084 C1080 0.950 . S
C1085 C1083 1.390 . S
C1085 C1086 1.387 . S
C1085 H1088 0.950 . S
C1086 C1085 1.387 . S
C1086 C1089 1.387 . S
H1087 C1083 0.950 . S
H1088 C1085 0.950 . S
C1089 C1080 1.390 . S
C1089 H1082 0.950 . S
C1089 C1086 1.387 . S
C1090 C1091 1.387 . S
C1090 H1094 0.950 . S
C1090 C1099 1.390 . S
C1091 C1090 1.387 . S
C1091 C1093 1.387 . S
H1092 C1099 0.950 . S
C1093 C1091 1.387 . S
C1093 C1095 1.390 . S
C1093 H1097 0.950 . S
H1094 C1090 0.950 . S
C1095 C1093 1.390 . S
C1095 C1096 1.387 . S
C1095 H1098 0.950 . S
C1096 C1095 1.387 . S
C1096 C1099 1.387 . S
H1097 C1093 0.950 . S
H1098 C1095 0.950 . S
C1099 C1090 1.390 . S
C1099 H1092 0.950 . S
C1099 C1096 1.387 . S
C1100 C1101 1.387 . S
C1100 H1104 0.950 1_556 S
C1100 C1109 1.390 . S
C1101 C1100 1.387 . S
C1101 C1103 1.387 . S
H1102 C1109 0.950 1_554 S
C1103 C1101 1.387 . S
C1103 C1105 1.390 . S
C1103 H1107 0.950 . S
H1104 C1100 0.950 1_554 S
C1105 C1103 1.390 . S
C1105 C1106 1.387 . S
C1105 H1108 0.950 . S
C1106 C1105 1.387 . S
C1106 C1109 1.387 . S
H1107 C1103 0.950 . S
H1108 C1105 0.950 . S
C1109 C1100 1.390 . S
C1109 H1102 0.950 1_556 S
C1109 C1106 1.387 . S
C1110 C1111 1.387 . S
C1110 H1114 0.950 . S
C1110 C1119 1.390 . S
C1111 C1110 1.387 . S
C1111 C1113 1.387 . S
H1112 C1119 0.950 . S
C1113 C1111 1.387 . S
C1113 C1115 1.390 . S
C1113 H1117 0.950 . S
H1114 C1110 0.950 . S
C1115 C1113 1.390 . S
C1115 C1116 1.387 . S
C1115 H1118 0.950 . S
C1116 C1115 1.387 . S
C1116 C1119 1.387 . S
H1117 C1113 0.950 . S
H1118 C1115 0.950 . S
C1119 C1110 1.390 . S
C1119 H1112 0.950 . S
C1119 C1116 1.387 . S
C641 C122 1.210 . S
C646 C23 1.342 . S
C651 C25 0.780 . S
C656 C44 0.841 . S
C661 C103 1.572 . S
C666 C42 1.562 . S
C671 C124 0.683 . S
C676 C105 0.727 . S
C681 C185 2.861 . S
C686 C231 2.778 . S
C691 C202 1.378 . S
C696 C260 1.404 . S
C701 C265 1.715 . S
C706 C311 1.687 . S
C711 C180 1.320 . S
C716 C282 1.280 . S
C721 C364 2.070 . S
C726 C20 2.176 . S
C731 C423 1.452 . S
C736 C71 1.491 . S
C741 C100 2.588 . S
C746 C524 2.388 . S
C751 C343 1.176 . S
C756 C151 1.131 . S
C761 C471 1.920 . S
C766 C183 1.872 . S
C771 C580 2.277 . S
C776 C204 2.188 . S
C781 C263 1.273 . S
C786 C511 1.309 . S
C791 C604 0.910 . S
C796 C284 0.914 . S
C801 C340 1.990 . S
C806 C522 1.980 . S
C811 C391 2.838 . S
C816 C345 2.889 . S
C821 C420 1.561 . S
C826 C362 1.531 . S
C831 C583 2.040 . S
C836 C442 2.073 . S
C841 C482 1.499 . S
C846 C602 1.494 . S
C851 C463 1.212 . S
C856 C2 1.344 . S
C861 C505 0.833 . S
C866 C4 0.771 . S
C871 C503 1.562 . S
C876 C82 1.572 . S
C881 C84 0.727 . S
C886 C465 0.684 . S
C891 C380 2.776 . S
C896 C164 2.860 . S
C901 C383 1.378 . S
C906 C271 1.404 . S
C911 C540 1.686 . S
C916 C244 1.715 . S
C921 C191 1.321 . S
C926 C543 1.282 . S
C931 C225 2.073 . S
C936 C31 2.178 . S
C941 C402 1.454 . S
C946 C500 1.491 . S
C951 C111 2.589 . S
C956 C305 2.389 . S
C961 C322 1.176 . S
C966 C460 1.135 . S
C971 C140 1.920 . S
C976 C162 1.871 . S
C981 C385 2.188 . S
C986 C591 2.277 . S
C991 C242 1.274 . S
C996 C60 1.309 . S
C1001 C625 0.907 . S
C1006 C545 0.917 . S
C1011 C351 1.991 . S
C1016 C303 1.981 . S
C1021 C324 2.889 . S
C1026 C220 2.836 . S
C1031 C431 1.562 . S
C1036 C223 1.532 . S
C1041 C143 2.072 . S
C1046 C562 2.039 . S
C1051 C63 1.498 . S
C1056 C623 1.492 . S
C1061 C484 0.735 . S
C1066 C585 0.755 . S
C1071 C444 1.134 . S
C1076 C631 1.078 . S
C1081 C425 2.445 . S
C1086 C551 2.364 . S
C1091 C564 0.747 . S
C1096 C65 0.727 . S
C1101 C145 1.134 . S
C1106 C620 1.078 . S
C1111 C300 2.362 . S
C1116 C404 2.444 . S
