# Generated by pormake.
# Topology wlk, (5)-cn, num edge types: 1
# Building blocks:
#     Node 0, Type 0, BuildingBlock: XOMCOT_clean_sbu_1, # of connection points: 5
#     Node 1, Type 0, BuildingBlock: XOMCOT_clean_sbu_1, # of connection points: 5
#     Node 2, Type 0, BuildingBlock: XOMCOT_clean_sbu_1, # of connection points: 5
#     Node 3, Type 0, BuildingBlock: XOMCOT_clean_sbu_1, # of connection points: 5
#     Node 4, Type 0, BuildingBlock: XOMCOT_clean_sbu_1, # of connection points: 5
#     Node 5, Type 0, BuildingBlock: XOMCOT_clean_sbu_1, # of connection points: 5
#     Node 6, Type 0, BuildingBlock: XOMCOT_clean_sbu_1, # of connection points: 5
#     Node 7, Type 0, BuildingBlock: XOMCOT_clean_sbu_1, # of connection points: 5
#     Node 8, Type 0, BuildingBlock: XOMCOT_clean_sbu_1, # of connection points: 5
#     Node 9, Type 0, BuildingBlock: XOMCOT_clean_sbu_1, # of connection points: 5
#     Node 10, Type 0, BuildingBlock: XOMCOT_clean_sbu_1, # of connection points: 5
#     Node 11, Type 0, BuildingBlock: XOMCOT_clean_sbu_1, # of connection points: 5
#     Node 12, Type 0, BuildingBlock: XOMCOT_clean_sbu_1, # of connection points: 5
#     Node 13, Type 0, BuildingBlock: XOMCOT_clean_sbu_1, # of connection points: 5
#     Node 14, Type 0, BuildingBlock: XOMCOT_clean_sbu_1, # of connection points: 5
#     Node 15, Type 0, BuildingBlock: XOMCOT_clean_sbu_1, # of connection points: 5
#     Node 16, Type 0, BuildingBlock: XOMCOT_clean_sbu_1, # of connection points: 5
#     Node 17, Type 0, BuildingBlock: XOMCOT_clean_sbu_1, # of connection points: 5
#     Edge 18, Type (0, 0), BuildingBlock: TEMPAE_clean_linker_10, # of connection points: 2
#     Edge 19, Type (0, 0), BuildingBlock: TEMPAE_clean_linker_10, # of connection points: 2
#     Edge 20, Type (0, 0), BuildingBlock: TEMPAE_clean_linker_10, # of connection points: 2
#     Edge 21, Type (0, 0), BuildingBlock: TEMPAE_clean_linker_10, # of connection points: 2
#     Edge 22, Type (0, 0), BuildingBlock: TEMPAE_clean_linker_10, # of connection points: 2
#     Edge 23, Type (0, 0), BuildingBlock: TEMPAE_clean_linker_10, # of connection points: 2
#     Edge 24, Type (0, 0), BuildingBlock: TEMPAE_clean_linker_10, # of connection points: 2
#     Edge 25, Type (0, 0), BuildingBlock: TEMPAE_clean_linker_10, # of connection points: 2
#     Edge 26, Type (0, 0), BuildingBlock: TEMPAE_clean_linker_10, # of connection points: 2
#     Edge 27, Type (0, 0), BuildingBlock: TEMPAE_clean_linker_10, # of connection points: 2
#     Edge 28, Type (0, 0), BuildingBlock: TEMPAE_clean_linker_10, # of connection points: 2
#     Edge 29, Type (0, 0), BuildingBlock: TEMPAE_clean_linker_10, # of connection points: 2
#     Edge 30, Type (0, 0), BuildingBlock: TEMPAE_clean_linker_10, # of connection points: 2
#     Edge 31, Type (0, 0), BuildingBlock: TEMPAE_clean_linker_10, # of connection points: 2
#     Edge 32, Type (0, 0), BuildingBlock: TEMPAE_clean_linker_10, # of connection points: 2
#     Edge 33, Type (0, 0), BuildingBlock: TEMPAE_clean_linker_10, # of connection points: 2
#     Edge 34, Type (0, 0), BuildingBlock: TEMPAE_clean_linker_10, # of connection points: 2
#     Edge 35, Type (0, 0), BuildingBlock: TEMPAE_clean_linker_10, # of connection points: 2
#     Edge 36, Type (0, 0), BuildingBlock: TEMPAE_clean_linker_10, # of connection points: 2
#     Edge 37, Type (0, 0), BuildingBlock: TEMPAE_clean_linker_10, # of connection points: 2
#     Edge 38, Type (0, 0), BuildingBlock: TEMPAE_clean_linker_10, # of connection points: 2
#     Edge 39, Type (0, 0), BuildingBlock: TEMPAE_clean_linker_10, # of connection points: 2
#     Edge 40, Type (0, 0), BuildingBlock: TEMPAE_clean_linker_10, # of connection points: 2
#     Edge 41, Type (0, 0), BuildingBlock: TEMPAE_clean_linker_10, # of connection points: 2
#     Edge 42, Type (0, 0), BuildingBlock: TEMPAE_clean_linker_10, # of connection points: 2
#     Edge 43, Type (0, 0), BuildingBlock: TEMPAE_clean_linker_10, # of connection points: 2
#     Edge 44, Type (0, 0), BuildingBlock: TEMPAE_clean_linker_10, # of connection points: 2
#     Edge 45, Type (0, 0), BuildingBlock: TEMPAE_clean_linker_10, # of connection points: 2
#     Edge 46, Type (0, 0), BuildingBlock: TEMPAE_clean_linker_10, # of connection points: 2
#     Edge 47, Type (0, 0), BuildingBlock: TEMPAE_clean_linker_10, # of connection points: 2
#     Edge 48, Type (0, 0), BuildingBlock: TEMPAE_clean_linker_10, # of connection points: 2
#     Edge 49, Type (0, 0), BuildingBlock: TEMPAE_clean_linker_10, # of connection points: 2
#     Edge 50, Type (0, 0), BuildingBlock: TEMPAE_clean_linker_10, # of connection points: 2
#     Edge 51, Type (0, 0), BuildingBlock: TEMPAE_clean_linker_10, # of connection points: 2
#     Edge 52, Type (0, 0), BuildingBlock: TEMPAE_clean_linker_10, # of connection points: 2
#     Edge 53, Type (0, 0), BuildingBlock: TEMPAE_clean_linker_10, # of connection points: 2
#     Edge 54, Type (0, 0), BuildingBlock: TEMPAE_clean_linker_10, # of connection points: 2
#     Edge 55, Type (0, 0), BuildingBlock: TEMPAE_clean_linker_10, # of connection points: 2
#     Edge 56, Type (0, 0), BuildingBlock: TEMPAE_clean_linker_10, # of connection points: 2
#     Edge 57, Type (0, 0), BuildingBlock: TEMPAE_clean_linker_10, # of connection points: 2
#     Edge 58, Type (0, 0), BuildingBlock: TEMPAE_clean_linker_10, # of connection points: 2
#     Edge 59, Type (0, 0), BuildingBlock: TEMPAE_clean_linker_10, # of connection points: 2
#     Edge 60, Type (0, 0), BuildingBlock: TEMPAE_clean_linker_10, # of connection points: 2
#     Edge 61, Type (0, 0), BuildingBlock: TEMPAE_clean_linker_10, # of connection points: 2
#     Edge 62, Type (0, 0), BuildingBlock: TEMPAE_clean_linker_10, # of connection points: 2
# Relax obj value: 0.168
# Max RMSD: 0.217
# Mean RMSD: 0.217
data_MOF--net-wlk--node1-XOMCOT_clean_sbu_1--edge1-TEMPAE_clean_linker_10
_symmetry_space_group_name_H-M    P1
_symmetry_Int_Tables_number       1
_symmetry_cell_setting            triclinic
loop_
_symmetry_equiv_pos_as_xyz
'x, y, z'
_cell_length_a     65.517761
_cell_length_b     65.644644
_cell_length_c     28.40078
_cell_angle_alpha  89.990432
_cell_angle_beta   90.183023
_cell_angle_gamma 119.90306
loop_
_atom_site_label
_atom_site_type_symbol
_atom_site_fract_x
_atom_site_fract_y
_atom_site_fract_z
_atom_type_partial_charge
C0 C 0.20959 0.26179 0.97432 0.0
C1 C 0.2088 0.243 0.95113 0.0
N2 N 0.20323 0.22546 0.98221 0.0
N3 N 0.20499 0.25661 0.02037 0.0
C4 C 0.19995 0.23391 0.0235 0.0
H5 H 0.21473 0.27874 0.95895 0.0
Co6 Co 0.20879 0.27857 0.0684 0.0
C7 C 0.23723 0.25697 0.11148 0.0
O8 O 0.24009 0.24787 0.07266 0.0
N9 N 0.21295 0.30047 0.11777 0.0
C10 C 0.23241 0.32904 0.17057 0.0
C11 C 0.2345 0.31718 0.13298 0.0
C12 C 0.19796 0.30223 0.14855 0.0
N13 N 0.20948 0.31969 0.18067 0.0
O14 O 0.17784 0.2559 0.09284 0.0
H15 H 0.25109 0.32013 0.11912 0.0
H16 H 0.17908 0.29074 0.14826 0.0
O17 O 0.22573 0.26804 0.11088 0.0
C18 C 0.16344 0.26072 0.07164 0.0
O19 O 0.17225 0.27867 0.04258 0.0
N20 N 0.2371 0.30192 0.03934 0.0
C21 C 0.27415 0.33936 0.99095 0.0
C22 C 0.27662 0.32074 0.00887 0.0
C23 C 0.25791 0.30219 0.03299 0.0
C24 C 0.23429 0.31963 0.0212 0.0
C25 C 0.25258 0.33859 0.99749 0.0
H26 H 0.26037 0.28824 0.04593 0.0
H27 H 0.21761 0.31906 0.02539 0.0
H28 H 0.19563 0.22435 0.05639 0.0
H29 H 0.21383 0.24308 0.91485 0.0
H30 H 0.24679 0.34281 0.19049 0.0
H31 H 0.29297 0.3206 1.00465 0.0
H32 H 0.24969 0.35232 0.98365 0.0
C33 C 0.78448 0.94748 1.00108 0.0
C34 C 0.80235 0.96786 0.98219 0.0
N35 N 0.80572 0.98612 0.00941 0.0
N36 N 0.7764 0.95251 0.04035 0.0
C37 C 0.78959 0.97629 0.04447 0.0
H38 H 0.77764 0.92998 0.98685 0.0
Co39 Co 0.75168 0.9287 0.07565 0.0
C40 C 0.74243 0.95235 0.15442 0.0
O41 O 0.71996 0.93742 0.14739 0.0
N42 N 0.72675 0.90382 0.11136 0.0
C43 C 0.6925 0.87316 0.13312 0.0
C44 C 0.70524 0.88719 0.09614 0.0
C45 C 0.72683 0.89862 0.1578 0.0
N46 N 0.70591 0.88046 0.17227 0.0
O47 O 0.77336 0.91909 0.10054 0.0
H48 H 0.69888 0.88495 0.06044 0.0
H49 H 0.74167 0.90867 0.18099 0.0
O50 O 0.7578 0.95118 0.12826 0.0
C51 C 0.7693 0.90037 0.07855 0.0
O52 O 0.75226 0.89162 0.04714 0.0
N53 N 0.73041 0.93624 0.04502 0.0
C54 C 0.69659 0.94003 0.99145 0.0
C55 C 0.70926 0.95654 0.02669 0.0
C56 C 0.72683 0.95488 0.05194 0.0
C57 C 0.71981 0.92155 1.00777 0.0
C58 C 0.70261 0.92288 0.98096 0.0
H59 H 0.73744 0.96867 0.07654 0.0
H60 H 0.72434 0.90821 0.99958 0.0
H61 H 0.78754 0.98616 0.07275 0.0
H62 H 0.81183 0.9691 0.95019 0.0
H63 H 0.67469 0.85849 0.13109 0.0
H64 H 0.70583 0.97075 0.03413 0.0
H65 H 0.69373 0.9103 0.9529 0.0
C66 C 0.08499 0.84437 0.99553 0.0
C67 C 0.06465 0.84123 0.97465 0.0
N68 N 0.04605 0.82321 0.99595 0.0
N69 N 0.0796 0.82848 0.03019 0.0
C70 C 0.05565 0.81574 0.02953 0.0
H71 H 0.1027 0.85757 0.98611 0.0
Co72 Co 0.10291 0.82753 0.06864 0.0
C73 C 0.0673 0.81666 0.14401 0.0
O74 O 0.06907 0.83745 0.14092 0.0
N75 N 0.12624 0.827 0.1072 0.0
C76 C 0.15939 0.8279 0.12848 0.0
C77 C 0.14517 0.8262 0.09111 0.0
C78 C 0.12929 0.82904 0.15465 0.0
N79 N 0.14943 0.82969 0.16856 0.0
O80 O 0.11233 0.85897 0.09186 0.0
H81 H 0.1486 0.82491 0.05432 0.0
H82 H 0.11739 0.83084 0.17841 0.0
O83 O 0.07987 0.81162 0.11764 0.0
C84 C 0.13153 0.87363 0.07149 0.0
O85 O 0.14085 0.86541 0.04138 0.0
N86 N 0.09587 0.7983 0.0421 0.0
C87 C 0.09296 0.75886 0.99704 0.0
C88 C 0.08972 0.75897 0.04596 0.0
C89 C 0.0913 0.7789 0.06785 0.0
C90 C 0.09916 0.79852 0.99467 0.0
C91 C 0.09752 0.77898 0.97143 0.0
H92 H 0.08992 0.77911 0.10569 0.0
H93 H 0.1039 0.8143 0.97477 0.0
H94 H 0.04545 0.80115 0.05294 0.0
H95 H 0.06371 0.85184 0.94648 0.0
H96 H 0.17587 0.82787 0.12629 0.0
H97 H 0.08623 0.74389 0.06725 0.0
H98 H 0.10067 0.77997 0.93386 0.0
C99 C 0.82715 0.75607 0.03716 0.0
C100 C 0.82821 0.7745 0.06238 0.0
N101 N 0.83395 0.79268 0.03292 0.0
N102 N 0.83184 0.76222 0.99148 0.0
C103 C 0.83716 0.78504 0.99066 0.0
H104 H 0.82176 0.73882 0.0511 0.0
Co105 Co 0.82744 0.74232 0.93893 0.0
C106 C 0.79934 0.76582 0.90893 0.0
O107 O 0.79337 0.76757 0.95224 0.0
N108 N 0.8227 0.7229 0.88481 0.0
C109 C 0.80339 0.70176 0.82157 0.0
C110 C 0.80148 0.71111 0.86311 0.0
C111 C 0.83742 0.72032 0.85464 0.0
N112 N 0.82597 0.70762 0.81577 0.0
O113 O 0.85918 0.76492 0.91822 0.0
H114 H 0.78561 0.71066 0.87443 0.0
H115 H 0.85629 0.72879 0.85926 0.0
O116 O 0.81257 0.75694 0.90136 0.0
C117 C 0.87234 0.75782 0.93717 0.0
O118 O 0.8621 0.73809 0.96109 0.0
N119 N 0.79828 0.71839 0.96431 0.0
C120 C 0.76153 0.67954 0.00976 0.0
C121 C 0.75705 0.69479 0.98278 0.0
C122 C 0.77566 0.71421 0.96053 0.0
C123 C 0.80265 0.70321 0.98933 0.0
C124 C 0.78469 0.68395 0.01286 0.0
H125 H 0.77132 0.72488 0.93882 0.0
H126 H 0.82044 0.70632 0.99167 0.0
H127 H 0.84131 0.7952 0.95856 0.0
H128 H 0.82311 0.77374 0.09883 0.0
H129 H 0.78936 0.69224 0.79631 0.0
H130 H 0.73931 0.69184 0.97919 0.0
H131 H 0.78887 0.67246 0.03294 0.0
C132 C 0.2733 0.07531 0.04062 0.0
C133 C 0.25479 0.05803 0.06564 0.0
N134 N 0.23617 0.04643 0.03644 0.0
N135 N 0.26677 0.07457 0.99534 0.0
C136 C 0.24371 0.05773 0.99459 0.0
H137 H 0.29093 0.08649 0.054 0.0
Co138 Co 0.28685 0.09032 0.94374 0.0
C139 C 0.26275 0.0387 0.90858 0.0
O140 O 0.25508 0.02853 0.94957 0.0
N141 N 0.30668 0.10542 0.89067 0.0
C142 C 0.32976 0.10835 0.83039 0.0
C143 C 0.32033 0.09735 0.87212 0.0
C144 C 0.30822 0.12158 0.85864 0.0
N145 N 0.32211 0.12351 0.82153 0.0
O146 O 0.26358 0.09826 0.92087 0.0
H147 H 0.32226 0.08313 0.88633 0.0
H148 H 0.29823 0.1306 0.86066 0.0
O149 O 0.27393 0.06117 0.90551 0.0
C150 C 0.26939 0.11823 0.93953 0.0
O151 O 0.28881 0.12849 0.96483 0.0
N152 N 0.31095 0.08571 0.97078 0.0
C153 C 0.34909 0.08619 0.0173 0.0
C154 C 0.3296 0.06499 1.00238 0.0
C155 C 0.31073 0.06511 0.97928 0.0
C156 C 0.32973 0.10646 0.98524 0.0
C157 C 0.34902 0.10715 0.00812 0.0
H158 H 0.2961 0.04856 0.9691 0.0
H159 H 0.32963 0.12269 0.97925 0.0
H160 H 0.2333 0.05249 0.96261 0.0
H161 H 0.25582 0.05313 0.10156 0.0
H162 H 0.34069 0.10477 0.8072 0.0
H163 H 0.32893 0.04837 0.00839 0.0
H164 H 0.36349 0.12392 0.0195 0.0
C165 C 0.96103 0.20775 0.04886 0.0
C166 C 0.97925 0.20704 0.07166 0.0
N167 N 0.99017 0.20001 0.04093 0.0
N168 N 0.96041 0.20157 1.00338 0.0
C169 C 0.97761 0.19579 1.00035 0.0
H170 H 0.9499 0.21384 0.06394 0.0
Co171 Co 0.94166 0.20431 0.95471 0.0
C172 C 0.99156 0.23243 0.91258 0.0
O173 O 1.00297 0.23604 0.95255 0.0
N174 N 0.92362 0.20744 0.90485 0.0
C175 C 0.916 0.22627 0.84827 0.0
C176 C 0.93016 0.22868 0.8857 0.0
C177 C 0.9054 0.19216 0.87691 0.0
N178 N 0.9003 0.20335 0.84234 0.0
O179 O 0.9333 0.17305 0.93261 0.0
H180 H 0.94516 0.24509 0.89668 0.0
H181 H 0.89647 0.17327 0.88103 0.0
O182 O 0.96901 0.22044 0.91174 0.0
C183 C 0.91695 0.15897 0.96053 0.0
O184 O 0.91017 0.16804 0.99408 0.0
N185 N 0.94647 0.23302 0.98148 0.0
C186 C 0.94521 0.27035 0.02678 0.0
C187 C 0.9664 0.27305 0.00903 0.0
C188 C 0.96667 0.25421 0.98637 0.0
C189 C 0.92583 0.23006 0.99928 0.0
C190 C 0.92473 0.24849 0.02149 0.0
H191 H 0.98314 0.25698 0.97323 0.0
H192 H 0.90999 0.21312 0.99608 0.0
H193 H 0.98206 0.19042 0.96773 0.0
H194 H 0.98509 0.2131 0.10723 0.0
H195 H 0.91801 0.24037 0.82545 0.0
H196 H 0.98263 0.28969 0.01223 0.0
H197 H 0.90805 0.24549 0.03523 0.0
C198 C 0.87441 0.60604 0.3072 0.0
C199 C 0.87317 0.58723 0.28314 0.0
N200 N 0.86689 0.56925 0.31343 0.0
N201 N 0.86928 0.6003 0.35294 0.0
C202 C 0.86354 0.57738 0.35494 0.0
H203 H 0.88028 0.62326 0.29255 0.0
Co204 Co 0.87365 0.62058 0.40459 0.0
C205 C 0.90233 0.59791 0.43472 0.0
O206 O 0.90783 0.59597 0.39113 0.0
N207 N 0.87831 0.64046 0.45762 0.0
C208 C 0.89793 0.66426 0.51763 0.0
C209 C 0.89949 0.65253 0.47934 0.0
C210 C 0.86387 0.64484 0.48497 0.0
N211 N 0.87558 0.65949 0.52148 0.0
O212 O 0.84199 0.59792 0.42583 0.0
H213 H 0.91514 0.65208 0.46969 0.0
H214 H 0.84516 0.63724 0.47891 0.0
O215 O 0.88888 0.6065 0.44281 0.0
C216 C 0.82863 0.60444 0.40561 0.0
O217 O 0.83874 0.62385 0.38064 0.0
N218 N 0.9027 0.64449 0.37867 0.0
C219 C 0.93916 0.68331 0.33223 0.0
C220 C 0.94382 0.66817 0.35923 0.0
C221 C 0.9254 0.64891 0.38227 0.0
C222 C 0.89811 0.6595 0.35363 0.0
C223 C 0.91591 0.6788 0.32993 0.0
H224 H 0.93 0.63854 0.40426 0.0
H225 H 0.88028 0.6563 0.35162 0.0
H226 H 0.85913 0.56755 0.38751 0.0
H227 H 0.87857 0.5876 0.24703 0.0
H228 H 0.912 0.67466 0.54225 0.0
H229 H 0.96156 0.6711 0.36243 0.0
H230 H 0.91148 0.69024 0.31037 0.0
C231 C 0.45029 0.27205 0.34488 0.0
C232 C 0.46725 0.2918 0.32242 0.0
N233 N 0.46743 0.31079 0.34096 0.0
N234 N 0.43969 0.2783 0.37785 0.0
C235 C 0.45049 0.30207 0.37457 0.0
H236 H 0.4458 0.25416 0.33723 0.0
Co237 Co 0.41477 0.25642 0.41581 0.0
C238 C 0.41727 0.28329 0.50612 0.0
O239 O 0.39776 0.26597 0.52311 0.0
N240 N 0.38955 0.23343 0.45302 0.0
C241 C 0.35356 0.20646 0.47569 0.0
C242 C 0.36665 0.22155 0.44026 0.0
C243 C 0.38997 0.22402 0.49542 0.0
N244 N 0.36814 0.20827 0.5111 0.0
O245 O 0.43504 0.24453 0.43803 0.0
H246 H 0.35971 0.22363 0.40716 0.0
H247 H 0.40597 0.22978 0.51558 0.0
O248 O 0.42512 0.28111 0.46612 0.0
C249 C 0.42892 0.22471 0.41831 0.0
O250 O 0.41029 0.21542 0.39075 0.0
N251 N 0.39462 0.26619 0.38886 0.0
C252 C 0.36104 0.27211 0.33909 0.0
C253 C 0.36517 0.27789 0.38707 0.0
C254 C 0.38221 0.27496 0.41136 0.0
C255 C 0.39091 0.26075 0.34214 0.0
C256 C 0.37447 0.26385 0.3165 0.0
H257 H 0.38438 0.27865 0.44846 0.0
H258 H 0.4002 0.25309 0.32493 0.0
H259 H 0.4456 0.31269 0.39552 0.0
H260 H 0.4787 0.29208 0.29475 0.0
H261 H 0.33466 0.19502 0.47508 0.0
H262 H 0.35503 0.2842 0.40579 0.0
H263 H 0.37155 0.25878 0.27973 0.0
C264 C 0.7578 0.16553 0.3323 0.0
C265 C 0.7376 0.1621 0.31024 0.0
N266 N 0.7198 0.15315 0.34158 0.0
N267 N 0.75309 0.15876 0.37757 0.0
C268 C 0.72977 0.15132 0.38227 0.0
H269 H 0.77488 0.17222 0.31611 0.0
Co270 Co 0.77629 0.15998 0.41899 0.0
C271 C 0.75037 0.13025 0.50118 0.0
O272 O 0.76577 0.12299 0.50304 0.0
N273 N 0.80048 0.16202 0.46057 0.0
C274 C 0.83288 0.16295 0.48817 0.0
C275 C 0.81901 0.15931 0.44912 0.0
C276 C 0.80415 0.16816 0.50695 0.0
N277 N 0.82342 0.16827 0.52478 0.0
O278 O 0.78453 0.19168 0.43739 0.0
H279 H 0.82273 0.15529 0.41452 0.0
H280 H 0.79277 0.17228 0.5274 0.0
O281 O 0.75227 0.14501 0.46937 0.0
C282 C 0.8031 0.20527 0.41391 0.0
O283 O 0.81169 0.19561 0.38553 0.0
N284 N 0.77038 0.13064 0.39472 0.0
C285 C 0.76752 0.09234 0.34564 0.0
C286 C 0.75072 0.089 0.37986 0.0
C287 C 0.75201 0.10851 0.40296 0.0
C288 C 0.7859 0.13411 0.35952 0.0
C289 C 0.78498 0.11529 0.33493 0.0
H290 H 0.73783 0.10561 0.4261 0.0
H291 H 0.79915 0.15182 0.35026 0.0
H292 H 0.7203 0.14483 0.41489 0.0
H293 H 0.73614 0.16544 0.27343 0.0
H294 H 0.8486 0.16146 0.48965 0.0
H295 H 0.73629 0.07156 0.38745 0.0
H296 H 0.79788 0.11867 0.30782 0.0
C297 C 0.50817 0.09329 0.36027 0.0
C298 C 0.505 0.11003 0.38281 0.0
N299 N 0.49533 0.11865 0.35233 0.0
N300 N 0.5005 0.09096 0.31555 0.0
C301 C 0.49281 0.10666 0.3116 0.0
H302 H 0.51522 0.08305 0.37583 0.0
Co303 Co 0.50082 0.06852 0.27464 0.0
C304 C 0.4712 0.06541 0.19166 0.0
O305 O 0.4634 0.04269 0.18999 0.0
N306 N 0.50193 0.04572 0.23393 0.0
C307 C 0.4997 0.0126 0.20815 0.0
C308 C 0.4978 0.02417 0.24663 0.0
C309 C 0.50759 0.04714 0.18744 0.0
N310 N 0.50548 0.02683 0.17045 0.0
O311 O 0.5327 0.0913 0.25569 0.0
H312 H 0.49386 0.01703 0.28171 0.0
H313 H 0.51213 0.06244 0.16602 0.0
O314 O 0.48609 0.07798 0.22372 0.0
C315 C 0.547 0.08704 0.27881 0.0
O316 O 0.53827 0.06897 0.30748 0.0
N317 N 0.47116 0.04581 0.29939 0.0
C318 C 0.43218 1.01073 0.34735 0.0
C319 C 0.4293 0.02414 0.31225 0.0
C320 C 0.44912 0.04219 0.28977 0.0
C321 C 0.47422 0.034 0.33576 0.0
C322 C 0.45504 0.01626 0.35984 0.0
H323 H 0.44648 0.05338 0.26582 0.0
H324 H 0.49184 0.0383 0.34594 0.0
H325 H 0.48548 0.10918 0.27955 0.0
H326 H 0.50901 0.11486 0.41946 0.0
H327 H 0.49718 0.99501 0.20821 0.0
H328 H 0.41193 0.02114 0.30328 0.0
H329 H 0.45807 1.00678 0.38766 0.0
C330 C 0.9218 0.41798 0.35921 0.0
C331 C 0.90544 0.39767 0.38113 0.0
N332 N 0.90274 0.37911 0.35578 0.0
N333 N 0.92951 0.41252 0.31993 0.0
C334 C 0.91759 0.38867 0.31875 0.0
H335 H 0.92776 0.4357 0.37124 0.0
Co336 Co 0.95235 0.43554 0.28048 0.0
C337 C 0.95832 0.4099 0.20003 0.0
O338 O 0.98095 0.42531 0.2007 0.0
N339 N 0.97535 0.45972 0.2409 0.0
C340 C 1.00673 0.49251 0.21534 0.0
C341 C 0.9962 0.47841 0.25373 0.0
C342 C 0.97341 0.46348 0.19441 0.0
N343 N 0.99249 0.48302 0.17787 0.0
O344 O 0.9292 0.44367 0.25803 0.0
H345 H 1.00341 0.48224 0.28884 0.0
H346 H 0.95824 0.45207 0.17302 0.0
O347 O 0.94458 0.41159 0.23001 0.0
C348 C 0.93341 0.46277 0.27859 0.0
O349 O 0.95123 0.47254 0.30816 0.0
N350 N 0.97525 0.42952 0.30795 0.0
C351 C 1.0114 0.4275 0.35713 0.0
C352 C 0.99721 0.40989 0.32458 0.0
C353 C 0.97884 0.41091 0.30116 0.0
C354 C 0.98737 0.4454 0.3426 0.0
C355 C 1.00583 0.44512 0.36668 0.0
H356 H 0.96745 0.3965 0.27846 0.0
H357 H 0.98291 0.45877 0.35104 0.0
H358 H 0.92012 0.3785 0.2919 0.0
H359 H 0.89609 0.39674 0.41311 0.0
H360 H 0.02372 0.50844 0.21494 0.0
H361 H 0.99999 0.39522 0.31782 0.0
H362 H 1.01586 0.45892 0.39198 0.0
C363 C 0.61522 0.51415 0.34834 0.0
C364 C 0.63567 0.51768 0.36943 0.0
N365 N 0.65418 0.5332 0.34359 0.0
N366 N 0.62044 0.5272 0.30897 0.0
C367 C 0.64437 0.53863 0.30685 0.0
H368 H 0.59756 0.50279 0.36113 0.0
Co369 Co 0.59677 0.5275 0.27118 0.0
C370 C 0.62162 0.56098 0.19476 0.0
O371 O 0.60618 0.568 0.20054 0.0
N372 N 0.57204 0.5269 0.23256 0.0
C373 C 0.54064 0.52859 0.20707 0.0
C374 C 0.55423 0.53051 0.24553 0.0
C375 C 0.56794 0.52168 0.18577 0.0
N376 N 0.54931 0.52323 0.16922 0.0
O377 O 0.58789 0.49637 0.24794 0.0
H378 H 0.55066 0.53398 0.28065 0.0
H379 H 0.57897 0.51765 0.16391 0.0
O380 O 0.62003 0.54401 0.22003 0.0
C381 C 0.56908 0.48227 0.27025 0.0
O382 O 0.56035 0.49115 0.30017 0.0
N383 N 0.60345 0.55616 0.30042 0.0
C384 C 0.60573 0.5939 0.3503 0.0
C385 C 0.62429 0.59727 0.32076 0.0
C386 C 0.62303 0.57797 0.29674 0.0
C387 C 0.58708 0.55234 0.33386 0.0
C388 C 0.58736 0.57097 0.3579 0.0
H389 H 0.63782 0.58072 0.27553 0.0
H390 H 0.57328 0.53459 0.34117 0.0
H391 H 0.65442 0.55108 0.27952 0.0
H392 H 0.63669 0.50922 0.40133 0.0
H393 H 0.5253 0.53076 0.20713 0.0
H394 H 0.63941 0.61461 0.31587 0.0
H395 H 0.57338 0.56745 0.38254 0.0
C396 C 0.54015 0.92964 0.6401 0.0
C397 C 0.53881 0.91097 0.61538 0.0
N398 N 0.53246 0.89276 0.64508 0.0
N399 N 0.53513 0.92368 0.68577 0.0
C400 C 0.52931 0.90071 0.68709 0.0
H401 H 0.54585 0.94696 0.62603 0.0
Co402 Co 0.53893 0.94486 0.73539 0.0
C403 C 0.56599 0.9214 0.77826 0.0
O404 O 0.56769 0.91118 0.74 0.0
N405 N 0.54307 0.96601 0.78652 0.0
C406 C 0.56284 0.9923 0.84307 0.0
C407 C 0.56468 0.98234 0.80228 0.0
C408 C 0.52826 0.96644 0.81971 0.0
N409 N 0.54 0.98228 0.85455 0.0
O410 O 0.50763 0.92226 0.75757 0.0
H411 H 0.58125 0.98601 0.78707 0.0
H412 H 0.50948 0.95439 0.82026 0.0
O413 O 0.55538 0.93335 0.77724 0.0
C414 C 0.49384 0.92806 0.73684 0.0
O415 O 0.50329 0.94719 0.71103 0.0
N416 N 0.56762 0.96807 0.70832 0.0
C417 C 0.60624 1.00573 0.66452 0.0
C418 C 0.6075 0.98613 0.68047 0.0
C419 C 0.58796 0.96741 0.70215 0.0
C420 C 0.56589 0.98665 0.69166 0.0
C421 C 0.58501 1.00575 0.67023 0.0
H422 H 0.58936 0.95255 0.71336 0.0
H423 H 0.5495 0.98671 0.69552 0.0
H424 H 0.52433 0.89047 0.71916 0.0
H425 H 0.54396 0.91151 0.57903 0.0
H426 H 0.57737 1.00527 0.864 0.0
H427 H 0.62353 0.98533 0.67661 0.0
H428 H 0.58305 0.02026 0.6576 0.0
C429 C 0.10817 0.60528 0.66452 0.0
C430 C 0.1258 0.62505 0.64329 0.0
N431 N 0.13026 0.64397 0.66948 0.0
N432 N 0.1014 0.61143 0.70421 0.0
C433 C 0.11508 0.63518 0.70623 0.0
H434 H 0.10062 0.58745 0.65168 0.0
Co435 Co 0.07757 0.58915 0.7431 0.0
C436 C 0.07165 0.61569 0.82143 0.0
O437 O 0.04892 0.60093 0.81796 0.0
N438 N 0.05344 0.56575 0.78252 0.0
C439 C 0.01958 0.53671 0.81045 0.0
C440 C 0.03096 0.54965 0.77136 0.0
C441 C 0.05539 0.5613 0.82866 0.0
N442 N 0.03485 0.54411 0.84666 0.0
O443 O 0.09938 0.57931 0.76637 0.0
H444 H 0.02288 0.54701 0.7372 0.0
H445 H 0.07133 0.57121 0.84916 0.0
O446 O 0.08587 0.61341 0.79362 0.0
C447 C 0.09396 0.5599 0.74554 0.0
O448 O 0.07581 0.55092 0.71673 0.0
N449 N 0.05606 0.59664 0.71399 0.0
C450 C 0.02162 0.60013 0.66198 0.0
C451 C 0.03635 0.61809 0.69333 0.0
C452 C 0.05383 0.6162 0.71855 0.0
C453 C 0.04376 0.58064 0.67964 0.0
C454 C 0.02599 0.58159 0.65437 0.0
H455 H 0.06556 0.63058 0.74103 0.0
H456 H 0.0473 0.56649 0.67286 0.0
H457 H 0.11407 0.64581 0.73419 0.0
H458 H 0.13436 0.62543 0.61052 0.0
H459 H 1.00138 0.5228 0.81205 0.0
H460 H 0.03424 0.63327 0.69862 0.0
H461 H 1.01584 0.56798 0.62877 0.0
C462 C 0.41767 0.49452 0.64339 0.0
C463 C 0.39736 0.49081 0.62154 0.0
N464 N 0.3808 0.48605 0.65453 0.0
N465 N 0.41429 0.4921 0.69024 0.0
C466 C 0.3916 0.48689 0.6961 0.0
H467 H 0.43391 0.49846 0.62608 0.0
Co468 Co 0.43836 0.49559 0.73195 0.0
C469 C 0.41307 0.46428 0.81243 0.0
O470 O 0.42897 0.45765 0.81222 0.0
N471 N 0.46356 0.50013 0.77378 0.0
C472 C 0.49904 0.50797 0.79941 0.0
C473 C 0.48486 0.50354 0.76061 0.0
C474 C 0.46591 0.50377 0.82124 0.0
N475 N 0.48709 0.50792 0.83778 0.0
O476 O 0.44473 0.52707 0.74883 0.0
H477 H 0.49049 0.50381 0.72495 0.0
H478 H 0.45249 0.50378 0.84334 0.0
O479 O 0.41457 0.47972 0.78266 0.0
C480 C 0.46101 0.54052 0.72015 0.0
O481 O 0.4677 0.53036 0.68874 0.0
N482 N 0.43435 0.46646 0.70918 0.0
C483 C 0.43306 0.42775 0.664 0.0
C484 C 0.4142 0.42493 0.69216 0.0
C485 C 0.41494 0.44459 0.71357 0.0
C486 C 0.45165 0.4696 0.67851 0.0
C487 C 0.45173 0.45059 0.65669 0.0
H488 H 0.39962 0.44213 0.73247 0.0
H489 H 0.46508 0.48714 0.66914 0.0
H490 H 0.38322 0.48393 0.73012 0.0
H491 H 0.3949 0.49105 0.5839 0.0
H492 H 0.51686 0.51097 0.79932 0.0
H493 H 0.39895 0.40772 0.69745 0.0
H494 H 0.46596 0.45389 0.63295 0.0
C495 C 0.18128 0.43546 0.67909 0.0
C496 C 0.17936 0.45254 0.70386 0.0
N497 N 0.16422 0.45739 0.68088 0.0
N498 N 0.16746 0.42942 0.64048 0.0
C499 C 0.15728 0.44306 0.64272 0.0
H500 H 0.19211 0.42794 0.68867 0.0
Co501 Co 0.16361 0.40674 0.59471 0.0
C502 C 0.15133 0.43324 0.52421 0.0
O503 O 0.17303 0.45037 0.518 0.0
N504 N 0.15887 0.38403 0.54635 0.0
C505 C 0.1386 0.35635 0.49232 0.0
C506 C 0.13716 0.36698 0.53258 0.0
C507 C 0.17328 0.38331 0.51257 0.0
N508 N 0.16125 0.36662 0.47934 0.0
O509 O 0.19475 0.42854 0.57066 0.0
H510 H 0.12075 0.36325 0.54861 0.0
H511 H 0.19191 0.39577 0.51019 0.0
O512 O 0.14706 0.41687 0.55335 0.0
C513 C 0.20863 0.42246 0.59006 0.0
O514 O 0.1993 0.40314 0.6153 0.0
N515 N 0.13539 0.38502 0.62393 0.0
C516 C 0.0972 0.34959 0.67262 0.0
C517 C 0.09555 0.36809 0.65146 0.0
C518 C 0.11493 0.38573 0.62704 0.0
C519 C 0.13746 0.36762 0.64552 0.0
C520 C 0.11855 0.34961 0.66948 0.0
H521 H 0.11347 0.39983 0.61084 0.0
H522 H 0.15396 0.36764 0.64364 0.0
H523 H 0.14451 0.44216 0.61741 0.0
H524 H 0.18864 0.46089 0.73605 0.0
H525 H 0.12391 0.34272 0.47278 0.0
H526 H 0.07942 0.36881 0.65348 0.0
H527 H 0.12079 0.33601 0.68622 0.0
C528 C 0.60263 0.74672 0.6977 0.0
C529 C 0.5849 0.72949 0.72434 0.0
N530 N 0.56668 0.7156 0.69578 0.0
N531 N 0.59601 0.74377 0.65211 0.0
C532 C 0.57348 0.72561 0.65261 0.0
H533 H 0.61983 0.75963 0.71059 0.0
Co534 Co 0.61587 0.75906 0.59971 0.0
C535 C 0.59361 0.70707 0.57019 0.0
O536 O 0.58878 0.69849 0.61308 0.0
N537 N 0.63558 0.77382 0.54611 0.0
C538 C 0.65918 0.77682 0.48683 0.0
C539 C 0.64886 0.76532 0.52763 0.0
C540 C 0.63825 0.79077 0.51486 0.0
N541 N 0.65246 0.79274 0.47821 0.0
O542 O 0.59213 0.76602 0.57582 0.0
H543 H 0.65017 0.75071 0.54149 0.0
H544 H 0.62906 0.80059 0.51742 0.0
O545 O 0.60315 0.72929 0.56361 0.0
C546 C 0.59783 0.78609 0.59378 0.0
O547 O 0.61732 0.7967 0.6188 0.0
N548 N 0.64053 0.75565 0.62775 0.0
C549 C 0.67922 0.75911 0.67764 0.0
C550 C 0.66233 0.73773 0.65746 0.0
C551 C 0.64319 0.73636 0.63255 0.0
C552 C 0.6571 0.77666 0.6463 0.0
C553 C 0.67651 0.77881 0.67125 0.0
H554 H 0.63108 0.71984 0.61696 0.0
H555 H 0.65496 0.79188 0.6424 0.0
H556 H 0.56324 0.71825 0.62084 0.0
H557 H 0.58603 0.7267 0.76156 0.0
H558 H 0.67036 0.77324 0.46439 0.0
H559 H 0.66394 0.72215 0.66066 0.0
H560 H 0.68892 0.79565 0.6865 0.0
C561 C 0.28495 0.85925 0.68947 0.0
C562 C 0.3053 0.8623 0.71001 0.0
N563 N 0.32167 0.86772 0.67631 0.0
N564 N 0.28807 0.8627 0.64271 0.0
C565 C 0.31072 0.86794 0.63562 0.0
H566 H 0.26889 0.85513 0.70773 0.0
Co567 Co 0.26376 0.86047 0.60288 0.0
C568 C 0.28789 0.89256 0.52408 0.0
O569 O 0.27184 0.89889 0.52777 0.0
N570 N 0.2385 0.85732 0.56253 0.0
C571 C 0.20638 0.85678 0.53416 0.0
C572 C 0.21983 0.85991 0.57357 0.0
C573 C 0.235 0.85132 0.51599 0.0
N574 N 0.21593 0.85151 0.49773 0.0
O575 O 0.2565 0.82933 0.5833 0.0
H576 H 0.21562 0.86365 0.60788 0.0
H577 H 0.24678 0.8478 0.4954 0.0
O578 O 0.28687 0.87649 0.55146 0.0
C579 C 0.24157 0.81539 0.61349 0.0
O580 O 0.23531 0.82446 0.6479 0.0
N581 N 0.26903 0.88952 0.62838 0.0
C582 C 0.2719 0.92801 0.67676 0.0
C583 C 0.29048 0.93076 0.64798 0.0
C584 C 0.28889 0.91113 0.62469 0.0
C585 C 0.2523 0.88635 0.66049 0.0
C586 C 0.25288 0.90536 0.68364 0.0
H587 H 0.30387 0.91336 0.60479 0.0
H588 H 0.23845 0.86877 0.66878 0.0
H589 H 0.31899 0.87179 0.60136 0.0
H590 H 0.30792 0.8612 0.74735 0.0
H591 H 0.19061 0.85819 0.53245 0.0
H592 H 0.30606 0.94783 0.64371 0.0
H593 H 0.23888 0.90226 0.70787 0.0
C594 C 0.2594 0.24206 0.15803 0.0
C595 C 0.25128 0.2581 0.15347 0.0
C596 C 0.27567 0.24478 0.19321 0.0
C597 C 0.28437 0.26424 0.2243 0.0
C598 C 0.27538 0.27987 0.22135 0.0
C599 C 0.25878 0.27651 0.18616 0.0
C600 C 0.28439 0.22741 0.1956 0.0
C601 C 0.28427 0.30091 0.25354 0.0
C602 C 0.31879 0.26164 0.33035 0.0
C603 C 0.34185 0.27306 0.31286 0.0
C604 C 0.2999 0.25943 0.30273 0.0
C605 C 0.30427 0.26913 0.25681 0.0
C606 C 0.32773 0.28182 0.24015 0.0
C607 C 0.34619 0.28346 0.2682 0.0
C608 C 0.27518 0.24559 0.32168 0.0
C609 C 0.33327 0.29279 0.19178 0.0
H610 H 0.25351 0.22767 0.13315 0.0
H611 H 0.25266 0.28903 0.18278 0.0
H612 H 0.3032 0.2362 0.18523 0.0
H613 H 0.28319 0.22095 0.23216 0.0
H614 H 0.27427 0.21207 0.172 0.0
H615 H 0.27371 0.30984 0.25032 0.0
H616 H 0.28396 0.29563 0.29074 0.0
H617 H 0.30283 0.31372 0.24471 0.0
H618 H 0.31535 0.2534 0.3647 0.0
H619 H 0.36403 0.29245 0.25475 0.0
H620 H 0.26539 0.22882 0.30194 0.0
H621 H 0.26562 0.25541 0.31658 0.0
H622 H 0.27494 0.24148 0.35969 0.0
H623 H 0.32602 0.27877 0.16458 0.0
H624 H 0.35251 0.30397 0.18591 0.0
H625 H 0.32483 0.30368 0.18664 0.0
C626 C 0.77217 0.9902 0.19418 0.0
C627 C 0.74877 0.97244 0.18688 0.0
C628 C 0.77747 1.00997 0.2223 0.0
C629 C 0.75892 0.01217 0.24274 0.0
C630 C 0.73537 0.99406 0.23615 0.0
C631 C 0.73065 0.97442 0.20887 0.0
C632 C 0.80284 0.0287 0.22937 0.0
C633 C 0.71499 0.99578 0.25652 0.0
C634 C 0.76607 0.05345 0.34358 0.0
C635 C 0.76633 0.07221 0.31947 0.0
C636 C 0.76508 0.03439 0.31894 0.0
C637 C 0.76365 0.03378 0.26909 0.0
C638 C 0.76417 0.05286 0.24466 0.0
C639 C 0.76577 0.07195 0.27014 0.0
C640 C 0.76507 0.01466 0.34626 0.0
C641 C 0.76204 0.05269 0.19168 0.0
H642 H 0.78629 0.98882 0.17747 0.0
H643 H 0.71247 0.96085 0.20374 0.0
H644 H 0.80619 0.04513 0.2116 0.0
H645 H 0.80662 0.03276 0.2674 0.0
H646 H 0.81524 0.02337 0.21505 0.0
H647 H 0.6977 0.98003 0.24854 0.0
H648 H 0.71689 0.99796 0.29528 0.0
H649 H 0.71495 0.01148 0.24212 0.0
H650 H 0.76681 0.05381 0.38174 0.0
H651 H 0.7659 0.08643 0.25149 0.0
H652 H 0.77831 1.01059 0.33155 0.0
H653 H 0.74761 0.99853 0.34302 0.0
H654 H 0.76895 0.01898 0.38423 0.0
H655 H 0.77562 0.04969 0.17511 0.0
H656 H 0.76392 0.06937 0.17788 0.0
H657 H 0.74459 0.03801 0.18068 0.0
C658 C 0.03433 0.80258 0.20292 0.0
C659 C 0.04942 0.79819 0.17519 0.0
C660 C 1.01667 0.78474 0.23064 0.0
C661 C 1.01397 0.76192 0.23053 0.0
C662 C 0.02938 0.75751 0.20323 0.0
C663 C 0.04687 0.77564 0.17607 0.0
C664 C 1.00065 0.79018 0.25944 0.0
C665 C 0.02712 0.73346 0.20191 0.0
C666 C 0.98026 0.71805 0.32809 0.0
C667 C 0.95831 0.70372 0.30664 0.0
C668 C 0.99838 0.73734 0.30416 0.0
C669 C 0.99454 0.74236 0.25751 0.0
C670 C 0.97239 0.72803 0.23577 0.0
C671 C 0.95457 0.70895 0.26057 0.0
C672 C 0.0217 0.75226 0.32868 0.0
C673 C 0.96762 0.7326 0.18594 0.0
H674 H 0.03611 0.81991 0.2026 0.0
H675 H 0.05835 0.77194 0.15494 0.0
H676 H 0.98225 0.77944 0.2467 0.0
H677 H 1.00095 0.78545 0.29684 0.0
H678 H 1.00573 0.80903 0.25754 0.0
H679 H 0.0409 0.73306 0.17985 0.0
H680 H 0.02838 0.72777 0.23806 0.0
H681 H 1.0096 0.72044 0.18766 0.0
H682 H 0.98321 0.71434 0.36387 0.0
H683 H 0.93778 0.69782 0.2435 0.0
H684 H 0.02612 0.77092 0.32899 0.0
H685 H 0.03589 0.75139 0.30915 0.0
H686 H 0.02162 0.74654 0.36552 0.0
H687 H 0.97092 0.75084 0.18272 0.0
H688 H 0.94924 0.72028 0.1746 0.0
H689 H 0.9798 0.73085 0.16142 0.0
C690 C 0.69509 0.7431 0.73914 0.0
C691 C 0.69908 0.76074 0.70648 0.0
C692 C 0.71322 0.74502 0.76871 0.0
C693 C 0.73601 0.76503 0.76556 0.0
C694 C 0.74034 0.7826 0.73177 0.0
C695 C 0.72183 0.78028 0.70278 0.0
C696 C 0.70777 0.72592 0.80439 0.0
C697 C 0.76441 0.80408 0.72693 0.0
C698 C 0.77244 0.77946 0.87781 0.0
C699 C 0.7862 0.76893 0.86942 0.0
C700 C 0.75678 0.77916 0.84357 0.0
C701 C 0.75478 0.76809 0.79964 0.0
C702 C 0.76957 0.75858 0.78993 0.0
C703 C 0.78514 0.75915 0.82489 0.0
C704 C 0.74152 0.78969 0.85539 0.0
C705 C 0.76815 0.74678 0.74346 0.0
H706 H 0.67754 0.72807 0.74269 0.0
H707 H 0.72517 0.79385 0.67721 0.0
H708 H 0.72019 0.71918 0.80045 0.0
H709 H 0.71011 0.73324 0.84049 0.0
H710 H 0.6895 0.71096 0.80086 0.0
H711 H 0.76532 0.81536 0.69691 0.0
H712 H 0.769 0.81467 0.75971 0.0
H713 H 0.77792 0.79881 0.72192 0.0
H714 H 0.77328 0.78727 0.91192 0.0
H715 H 0.79569 0.75098 0.81797 0.0
H716 H 0.72282 0.77553 0.85724 0.0
H717 H 0.7428 0.80205 0.8274 0.0
H718 H 0.74646 0.79921 0.88958 0.0
H719 H 0.75092 0.73034 0.74056 0.0
H720 H 0.78236 0.74235 0.73961 0.0
H721 H 0.76925 0.75828 0.7138 0.0
C722 C 0.2533 0.99986 0.87433 0.0
C723 C 0.26273 0.02415 0.86837 0.0
C724 C 0.2555 0.98602 0.8393 0.0
C725 C 0.26712 0.99656 0.79666 0.0
C726 C 0.27591 0.0209 0.78953 0.0
C727 C 0.27371 0.03445 0.82555 0.0
C728 C 0.24592 0.96016 0.84858 0.0
C729 C 0.28802 0.03273 0.74426 0.0
C730 C 0.29126 0.9622 0.73237 0.0
C731 C 0.27253 0.94812 0.70209 0.0
C732 C 0.29027 0.97893 0.76184 0.0
C733 C 0.27026 0.98189 0.76032 0.0
C734 C 0.25202 0.96872 0.72754 0.0
C735 C 0.25325 0.95181 0.69924 0.0
C736 C 0.30997 0.99234 0.79668 0.0
C737 C 0.23062 0.97163 0.72398 0.0
H738 H 0.24471 0.99164 0.9071 0.0
H739 H 0.28101 0.05317 0.82046 0.0
H740 H 0.23292 0.94949 0.82102 0.0
H741 H 0.26042 0.95606 0.84703 0.0
H742 H 0.23728 0.95465 0.8835 0.0
H743 H 0.29278 0.05151 0.7432 0.0
H744 H 0.30431 0.03169 0.74005 0.0
H745 H 0.27645 0.02348 0.71374 0.0
H746 H 0.3061 0.95925 0.73485 0.0
H747 H 0.23882 0.94103 0.67555 0.0
H748 H 0.30338 0.98645 0.83293 0.0
H749 H 0.3161 0.01141 0.7948 0.0
H750 H 0.32521 0.98968 0.79052 0.0
H751 H 0.21963 0.96428 0.7559 0.0
H752 H 0.21965 0.96253 0.69262 0.0
H753 H 0.23595 0.99053 0.72217 0.0
C754 C 0.02952 0.2595 0.87267 0.0
C755 C 1.00484 0.24625 0.87075 0.0
C756 C 0.04254 0.27514 0.83654 0.0
C757 C 0.03069 0.27758 0.79703 0.0
C758 C 1.00585 0.26358 0.79381 0.0
C759 C 0.9932 0.24809 0.83075 0.0
C760 C 0.069 0.28962 0.84144 0.0
C761 C 0.9926 0.26544 0.75202 0.0
C762 C 0.06588 0.33628 0.73456 0.0
C763 C 0.07735 0.33069 0.6996 0.0
C764 C 0.04963 0.31888 0.76503 0.0
C765 C 0.04455 0.29531 0.76009 0.0
C766 C 0.05496 0.28936 0.72288 0.0
C767 C 0.07132 0.30713 0.6933 0.0
C768 C 0.03903 0.32602 0.80435 0.0
C769 C 0.0498 0.26444 0.71583 0.0
H770 H 0.03875 0.25813 0.90317 0.0
H771 H 0.97416 0.23795 0.82885 0.0
H772 H 0.07761 0.28678 0.81056 0.0
H773 H 0.07452 0.30858 0.84239 0.0
H774 H 0.07557 0.28527 0.87385 0.0
H775 H 0.97353 0.25221 0.75321 0.0
H776 H 0.99456 0.28322 0.751 0.0
H777 H 1.00007 0.26309 0.71881 0.0
H778 H 0.07057 0.35446 0.73973 0.0
H779 H 0.07992 0.30268 0.66589 0.0
H780 H 0.04625 0.32433 0.83861 0.0
H781 H 0.01967 0.31422 0.80545 0.0
H782 H 0.04284 0.34443 0.8006 0.0
H783 H 0.05792 0.25957 0.74485 0.0
H784 H 0.05682 0.26217 0.68188 0.0
H785 H 0.03056 0.25203 0.71686 0.0
C786 C 0.91592 0.60348 0.51927 0.0
C787 C 0.91624 0.59547 0.47358 0.0
C788 C 0.93158 0.60422 0.55424 0.0
C789 C 0.94805 0.59692 0.54319 0.0
C790 C 0.94783 0.58802 0.49766 0.0
C791 C 0.93189 0.58727 0.46364 0.0
C792 C 0.93095 0.61342 0.60259 0.0
C793 C 0.96503 0.58002 0.48426 0.0
C794 C 1.00611 0.62029 0.60973 0.0
C795 C 1.00208 0.60059 0.63609 0.0
C796 C 0.98836 0.61967 0.58064 0.0
C797 C 0.96596 0.59898 0.57849 0.0
C798 C 0.96148 0.57952 0.60707 0.0
C799 C 0.97964 0.58049 0.63516 0.0
C800 C 0.99397 0.64072 0.55039 0.0
C801 C 0.93778 0.55731 0.60661 0.0
H802 H 0.90394 0.60988 0.52738 0.0
H803 H 0.93222 0.58089 0.42861 0.0
H804 H 0.92952 0.6007 0.62995 0.0
H805 H 0.9476 0.63007 0.60923 0.0
H806 H 0.91601 0.61676 0.60663 0.0
H807 H 0.96226 0.57313 0.44768 0.0
H808 H 0.98331 0.59494 0.48746 0.0
H809 H 0.96336 0.56608 0.50862 0.0
H810 H 0.02346 0.6358 0.61018 0.0
H811 H 0.9764 0.56531 0.65594 0.0
H812 H 0.98046 0.64602 0.55518 0.0
H813 H 0.99361 0.63604 0.51273 0.0
H814 H 1.01155 0.656 0.55861 0.0
H815 H 0.92349 0.56152 0.61136 0.0
H816 H 0.93632 0.54483 0.6346 0.0
H817 H 0.93492 0.54843 0.572 0.0
C818 C 0.41268 0.38959 0.6189 0.0
C819 C 0.43309 0.40737 0.64059 0.0
C820 C 0.41274 0.37066 0.59577 0.0
C821 C 0.43366 0.36928 0.59452 0.0
C822 C 0.45433 0.38719 0.61626 0.0
C823 C 0.45381 0.406 0.63887 0.0
C824 C 0.39033 0.35202 0.57284 0.0
C825 C 0.47691 0.3863 0.61624 0.0
C826 C 0.42305 0.30728 0.57795 0.0
C827 C 0.42651 0.30651 0.5294 0.0
C828 C 0.42651 0.32793 0.59993 0.0
C829 C 0.43341 0.34839 0.57268 0.0
C830 C 0.43833 0.34815 0.5241 0.0
C831 C 0.43487 0.3272 0.50304 0.0
C832 C 0.42145 0.3274 0.6519 0.0
C833 C 0.4458 0.36956 0.49371 0.0
H834 H 0.3967 0.39066 0.61935 0.0
H835 H 0.46962 0.41953 0.65589 0.0
H836 H 0.39353 0.35016 0.53516 0.0
H837 H 0.38454 0.33479 0.58991 0.0
H838 H 0.37582 0.3561 0.57528 0.0
H839 H 0.4917 0.40205 0.63306 0.0
H840 H 0.47428 0.37044 0.63539 0.0
H841 H 0.48195 0.3849 0.57964 0.0
H842 H 0.41662 0.29135 0.59856 0.0
H843 H 0.43722 0.32669 0.46544 0.0
H844 H 0.40548 0.32893 0.65701 0.0
H845 H 0.43624 0.34255 0.67011 0.0
H846 H 0.41852 0.31093 0.66894 0.0
H847 H 0.43069 0.37257 0.48889 0.0
H848 H 0.45189 0.36756 0.45844 0.0
H849 H 0.46014 0.38544 0.51098 0.0
C850 C 0.64001 0.02208 0.60769 0.0
C851 C 0.62679 0.02595 0.64159 0.0
C852 C 0.65941 0.04096 0.58571 0.0
C853 C 0.66596 0.06435 0.59821 0.0
C854 C 0.65261 0.06839 0.63222 0.0
C855 C 0.63315 0.04916 0.65335 0.0
C856 C 0.67301 0.03585 0.54928 0.0
C857 C 0.65912 0.09301 0.64681 0.0
C858 C 0.73016 0.10809 0.57344 0.0
C859 C 0.72879 0.11739 0.52987 0.0
C860 C 0.70977 0.09185 0.5974 0.0
C861 C 0.6874 0.0844 0.57696 0.0
C862 C 0.68586 0.09476 0.53424 0.0
C863 C 0.70661 0.11124 0.51128 0.0
C864 C 0.71228 0.08166 0.6433 0.0
C865 C 0.66242 0.08732 0.51106 0.0
H866 H 0.63501 1.00422 0.59792 0.0
H867 H 0.62314 0.05229 0.67981 0.0
H868 H 0.67368 0.04486 0.51578 0.0
H869 H 0.69143 0.0428 0.56141 0.0
H870 H 0.66512 0.01674 0.54219 0.0
H871 H 0.64651 0.09322 0.67261 0.0
H872 H 0.67698 0.10195 0.66278 0.0
H873 H 0.6597 0.1034 0.61551 0.0
H874 H 0.7473 0.11287 0.58802 0.0
H875 H 0.70542 0.11806 0.47733 0.0
H876 H 0.7071 0.06295 0.63804 0.0
H877 H 0.70038 0.08225 0.67029 0.0
H878 H 0.73061 0.09117 0.65704 0.0
H879 H 0.65547 0.06955 0.49554 0.0
H880 H 0.66394 0.0996 0.4826 0.0
H881 H 0.64939 0.08626 0.5372 0.0
C882 C 0.45316 0.09106 0.1797 0.0
C883 C 0.45886 0.07458 0.16209 0.0
C884 C 0.43712 0.0958 0.15567 0.0
C885 C 0.42675 0.08393 0.11286 0.0
C886 C 0.43376 0.06851 0.09349 0.0
C887 C 0.44956 0.06391 0.11846 0.0
C888 C 0.43013 0.11232 0.17774 0.0
C889 C 0.42354 0.05575 0.04764 0.0
C890 C 0.3648 0.06977 0.07831 0.0
C891 C 0.36912 0.08636 0.04297 0.0
C892 C 0.3834 0.06931 0.10223 0.0
C893 C 0.40701 0.08576 0.09042 0.0
C894 C 0.41153 0.10283 0.05534 0.0
C895 C 0.39255 0.10299 0.03217 0.0
C896 C 0.37773 0.05093 0.13968 0.0
C897 C 0.43639 0.12055 0.04142 0.0
H898 H 0.46 0.09912 0.21365 0.0
H899 H 0.45397 0.0512 0.1046 0.0
H900 H 0.42997 0.1246 0.1511 0.0
H901 H 0.41203 0.10202 0.19202 0.0
H902 H 0.44218 0.1227 0.20692 0.0
H903 H 0.43264 0.04636 0.03489 0.0
H904 H 0.40462 0.04272 0.05247 0.0
H905 H 0.42473 0.06826 0.02006 0.0
H906 H 0.34679 0.05713 0.0875 0.0
H907 H 0.39608 0.11578 1.00472 0.0
H908 H 0.38681 0.05943 0.17309 0.0
H909 H 0.38424 0.03897 0.12868 0.0
H910 H 0.35853 0.04024 0.14651 0.0
H911 H 0.4468 0.1301 0.07296 0.0
H912 H 0.437 0.13355 0.01558 0.0
H913 H 0.44505 0.11134 0.02569 0.0
C914 C 0.93467 0.36628 0.18682 0.0
C915 C 0.95044 0.38882 0.16995 0.0
C916 C 0.93135 0.34608 0.1627 0.0
C917 C 0.94377 0.34854 0.12028 0.0
C918 C 0.95835 0.37127 0.10147 0.0
C919 C 0.96169 0.39109 0.12677 0.0
C920 C 0.9158 0.32224 0.18429 0.0
C921 C 0.97147 0.37478 0.05586 0.0
C922 C 0.96124 0.30322 0.08588 0.0
C923 C 0.94448 0.29008 0.05125 0.0
C924 C 0.96074 0.3218 0.10945 0.0
C925 C 0.94329 0.32772 0.09764 0.0
C926 C 0.92627 0.31447 0.06277 0.0
C927 C 0.92696 0.29571 0.04028 0.0
C928 C 0.97905 0.33524 0.14681 0.0
C929 C 0.90766 0.32044 0.0485 0.0
H930 H 0.92612 0.36441 0.22035 0.0
H931 H 0.97384 0.4085 0.1135 0.0
H932 H 0.90346 0.30984 0.15762 0.0
H933 H 0.92687 0.31494 0.19701 0.0
H934 H 0.90546 0.32307 0.21442 0.0
H935 H 0.97978 0.39322 0.04324 0.0
H936 H 0.98548 0.37017 0.06094 0.0
H937 H 0.95941 0.36301 0.02808 0.0
H938 H 0.97462 0.29876 0.09496 0.0
H939 H 0.91406 0.28572 0.01329 0.0
H940 H 0.97037 0.33536 0.18021 0.0
H941 H 0.99024 0.35379 0.1357 0.0
H942 H 0.9906 0.32765 0.1537 0.0
H943 H 0.89754 0.32039 0.07977 0.0
H944 H 0.89519 0.30793 0.02203 0.0
H945 H 0.91616 0.33841 0.03345 0.0
C946 C 0.64749 0.59853 0.15313 0.0
C947 C 0.6427 0.57585 0.16557 0.0
C948 C 0.66751 0.61373 0.12724 0.0
C949 C 0.68314 0.60607 0.11226 0.0
C950 C 0.67836 0.58308 0.12404 0.0
C951 C 0.6583 0.5683 0.15111 0.0
C952 C 0.67207 0.63822 0.11648 0.0
C953 C 0.6944 0.57415 0.10794 0.0
C954 C 0.72156 0.64339 0.01135 0.0
C955 C 0.74224 0.65932 0.03507 0.0
C956 C 0.70278 0.62484 0.0355 0.0
C957 C 0.70448 0.62254 0.08479 0.0
C958 C 0.72563 0.63822 0.1086 0.0
C959 C 0.74433 0.65626 0.08336 0.0
C960 C 0.68076 0.60826 0.00857 0.0
C961 C 0.72802 0.63682 0.16123 0.0
H962 H 0.63576 0.60474 0.16449 0.0
H963 H 0.65474 0.55084 0.1606 0.0
H964 H 0.68954 0.65148 0.13056 0.0
H965 H 0.67242 0.64082 0.07785 0.0
H966 H 0.6585 0.64166 0.13181 0.0
H967 H 0.68781 0.5556 0.11844 0.0
H968 H 0.69618 0.57548 0.06905 0.0
H969 H 0.71226 0.58519 0.12306 0.0
H970 H 0.72004 0.64553 0.97388 0.0
H971 H 0.76028 0.66861 0.10179 0.0
H972 H 0.66632 0.61167 0.01807 0.0
H973 H 0.67497 0.58977 0.01809 0.0
H974 H 0.68341 0.61032 0.96987 0.0
H975 H 0.71598 0.64158 0.17929 0.0
H976 H 0.74626 0.64883 0.17375 0.0
H977 H 0.72284 0.61863 0.17188 0.0
C978 C 0.59287 0.94441 0.84494 0.0
C979 C 0.58127 0.92351 0.81879 0.0
C980 C 0.61092 0.94835 0.877 0.0
C981 C 0.61715 0.93074 0.88385 0.0
C982 C 0.60436 0.909 0.85981 0.0
C983 C 0.58684 0.90579 0.82716 0.0
C984 C 0.6243 0.97192 0.90117 0.0
C985 C 0.60991 0.88947 0.86695 0.0
C986 C 0.67945 0.94577 0.91737 0.0
C987 C 0.67713 0.94036 0.96541 0.0
C988 C 0.66034 0.94379 0.891 0.0
C989 C 0.63817 0.93555 0.91296 0.0
C990 C 0.63593 0.93052 0.96183 0.0
C991 C 0.65553 0.9332 0.98759 0.0
C992 C 0.6637 0.94984 0.83927 0.0
C993 C 0.61258 0.92126 0.98644 0.0
H994 H 0.58886 0.95829 0.83828 0.0
H995 H 0.57789 0.88958 0.80713 0.0
H996 H 0.6259 0.96966 0.93945 0.0
H997 H 0.64242 0.98168 0.88674 0.0
H998 H 0.61576 0.98274 0.89609 0.0
H999 H 0.59671 0.87284 0.84975 0.0
H1000 H 0.62748 0.89474 0.85205 0.0
H1001 H 0.61058 0.88614 0.90507 0.0
H1002 H 0.69618 0.95124 0.90031 0.0
H1003 H 0.65373 0.92877 0.0247 0.0
H1004 H 0.65721 0.96212 0.83068 0.0
H1005 H 0.65328 0.93369 0.81801 0.0
H1006 H 0.68245 0.95801 0.82856 0.0
H1007 H 0.60509 0.93286 0.97959 0.0
H1008 H 0.61412 0.9198 0.0251 0.0
H1009 H 0.5999 0.90362 0.97227 0.0
C1010 C 0.09962 0.65813 0.84325 0.0
C1011 C 0.07934 0.63654 0.85257 0.0
C1012 C 0.10425 0.67866 0.8681 0.0
C1013 C 0.0883 0.67752 0.90318 0.0
C1014 C 0.06856 0.65548 0.91434 0.0
C1015 C 0.06436 0.63539 0.88903 0.0
C1016 C 0.12561 0.70174 0.85528 0.0
C1017 C 0.0511 0.65326 0.95147 0.0
C1018 C 0.10333 0.72663 0.99254 0.0
C1019 C 0.09224 0.73825 0.97276 0.0
C1020 C 0.10296 0.70741 0.96958 0.0
C1021 C 0.09102 0.69936 0.92593 0.0
C1022 C 0.07999 0.71117 0.90563 0.0
C1023 C 0.0808 0.73043 0.92913 0.0
C1024 C 0.11509 0.69549 0.99234 0.0
C1025 C 0.06678 0.70307 0.85953 0.0
H1026 H 0.11125 0.65924 0.8151 0.0
H1027 H 0.04876 0.61875 0.89686 0.0
H1028 H 0.11992 0.71327 0.83804 0.0
H1029 H 0.13562 0.71096 0.88743 0.0
H1030 H 0.13751 0.69939 0.83092 0.0
H1031 H 0.03758 0.63467 0.95825 0.0
H1032 H 0.06032 0.6613 0.98502 0.0
H1033 H 0.04204 0.66289 0.94 0.0
H1034 H 0.11254 0.73275 0.02583 0.0
H1035 H 0.07201 0.73912 0.91369 0.0
H1036 H 0.12756 0.69461 0.96722 0.0
H1037 H 0.10189 0.67716 1.00173 0.0
H1038 H 0.12489 0.70475 0.02471 0.0
H1039 H 0.07835 0.70236 0.83192 0.0
H1040 H 0.06013 0.71477 0.84727 0.0
H1041 H 0.05158 0.68503 0.86352 0.0
C1042 C 0.29968 0.38265 0.97467 0.0
C1043 C 0.29377 0.35934 0.96513 0.0
C1044 C 0.31827 0.40165 0.95089 0.0
C1045 C 0.33113 0.3973 0.91619 0.0
C1046 C 0.32494 0.37377 0.90584 0.0
C1047 C 0.3065 0.35514 0.9306 0.0
C1048 C 0.32449 0.42641 0.96367 0.0
C1049 C 0.33796 0.36826 0.8688 0.0
C1050 C 0.36931 0.44364 0.82518 0.0
C1051 C 0.392 0.45081 0.84233 0.0
C1052 C 0.34921 0.4268 0.84959 0.0
C1053 C 0.35189 0.41724 0.89249 0.0
C1054 C 0.37478 0.42564 0.91125 0.0
C1055 C 0.39449 0.44208 0.88574 0.0
C1056 C 0.3252 0.41824 0.82806 0.0
C1057 C 0.37857 0.41642 0.95723 0.0
H1058 H 0.29007 0.38607 1.00156 0.0
H1059 H 0.30185 0.33719 0.92254 0.0
H1060 H 0.34263 0.43599 0.97825 0.0
H1061 H 0.32422 0.43603 0.93178 0.0
H1062 H 0.31223 0.42685 0.99005 0.0
H1063 H 0.33019 0.34906 0.86303 0.0
H1064 H 0.33781 0.37659 0.8349 0.0
H1065 H 0.35664 0.37565 0.87949 0.0
H1066 H 0.3673 0.45006 0.79131 0.0
H1067 H 0.41202 0.44761 0.89914 0.0
H1068 H 0.31304 0.41884 0.85437 0.0
H1069 H 0.31767 0.39965 0.81694 0.0
H1070 H 0.32589 0.4288 0.79691 0.0
H1071 H 0.36713 0.41722 0.98504 0.0
H1072 H 0.39717 0.42647 0.96935 0.0
H1073 H 0.37367 0.39773 0.953 0.0
C1074 C 0.03708 0.43459 0.4285 0.0
C1075 C 0.0318 0.4276 0.38118 0.0
C1076 C 0.05686 0.43591 0.45095 0.0
C1077 C 0.07172 0.42988 0.42577 0.0
C1078 C 0.06637 0.42252 0.37822 0.0
C1079 C 0.04655 0.42152 0.35651 0.0
C1080 C 0.06184 0.44376 0.50173 0.0
C1081 C 0.08166 0.41577 0.35022 0.0
C1082 C 0.134 0.45213 0.47279 0.0
C1083 C 0.13133 0.43254 0.49787 0.0
C1084 C 0.11481 0.45149 0.44887 0.0
C1085 C 0.09248 0.43071 0.44968 0.0
C1086 C 0.08981 0.4108 0.47437 0.0
C1087 C 0.10918 0.41198 0.49821 0.0
C1088 C 0.11834 0.47316 0.42325 0.0
C1089 C 0.06642 0.38824 0.47591 0.0
H1090 H 0.02563 0.43891 0.44828 0.0
H1091 H 0.04286 0.41639 0.31983 0.0
H1092 H 0.06142 0.42959 0.52372 0.0
H1093 H 0.07975 0.45929 0.50507 0.0
H1094 H 0.04892 0.4484 0.51605 0.0
H1095 H 0.07506 0.41029 0.31371 0.0
H1096 H 0.09991 0.43083 0.34862 0.0
H1097 H 0.08247 0.40112 0.36789 0.0
H1098 H 0.151 0.46809 0.47239 0.0
H1099 H 0.10692 0.39664 0.51709 0.0
H1100 H 0.10677 0.47926 0.43863 0.0
H1101 H 0.11327 0.46895 0.3857 0.0
H1102 H 0.13686 0.48776 0.42514 0.0
H1103 H 0.05303 0.39144 0.49281 0.0
H1104 H 0.06741 0.37415 0.49567 0.0
H1105 H 0.06018 0.3819 0.43961 0.0
C1106 C 0.60313 0.70081 0.48743 0.0
C1107 C 0.59316 0.69159 0.53153 0.0
C1108 C 0.60553 0.68666 0.45314 0.0
C1109 C 0.59793 0.66279 0.46332 0.0
C1110 C 0.58712 0.65324 0.50713 0.0
C1111 C 0.58474 0.66767 0.54045 0.0
C1112 C 0.61674 0.69738 0.40653 0.0
C1113 C 0.57875 0.6279 0.51954 0.0
C1114 C 0.58527 0.61615 0.37094 0.0
C1115 C 0.60535 0.61377 0.37432 0.0
C1116 C 0.58326 0.63308 0.39751 0.0
C1117 C 0.60156 0.64769 0.429 0.0
C1118 C 0.62231 0.64601 0.43106 0.0
C1119 C 0.62404 0.62918 0.40333 0.0
C1120 C 0.56106 0.63458 0.39347 0.0
C1121 C 0.64212 0.66105 0.46455 0.0
H1122 H 0.60966 0.71925 0.4801 0.0
H1123 H 0.57689 0.66028 0.57423 0.0
H1124 H 0.63357 0.69735 0.40286 0.0
H1125 H 0.60512 0.68674 0.37712 0.0
H1126 H 0.62037 0.71575 0.40293 0.0
H1127 H 0.57038 0.62309 0.55482 0.0
H1128 H 0.56583 0.61605 0.49298 0.0
H1129 H 0.59384 0.62467 0.51913 0.0
H1130 H 0.5709 0.60436 0.3481 0.0
H1131 H 0.63951 0.62727 0.40611 0.0
H1132 H 0.56543 0.65313 0.38927 0.0
H1133 H 0.55062 0.62784 0.42622 0.0
H1134 H 0.5499 0.62418 0.36328 0.0
H1135 H 0.64741 0.67984 0.4603 0.0
H1136 H 0.65781 0.65905 0.45911 0.0
H1137 H 0.63601 0.65608 0.50136 0.0
C1138 C 0.32718 0.90209 0.4893 0.0
C1139 C 0.30888 0.90716 0.49434 0.0
C1140 C 0.34767 0.91721 0.46371 0.0
C1141 C 0.35006 0.93808 0.44357 0.0
C1142 C 0.33149 0.94305 0.44811 0.0
C1143 C 0.31114 0.92748 0.47287 0.0
C1144 C 0.3669 0.91107 0.45885 0.0
C1145 C 0.33336 0.96525 0.42805 0.0
C1146 C 0.41031 0.99145 0.42126 0.0
C1147 C 0.41158 0.99157 0.37199 0.0
C1148 C 0.39071 0.97375 0.44511 0.0
C1149 C 0.37216 0.95537 0.41913 0.0
C1150 C 0.37379 0.95498 0.36941 0.0
C1151 C 0.39333 0.97327 0.34639 0.0
C1152 C 0.38944 0.97524 0.49798 0.0
C1153 C 0.35467 0.93548 0.34047 0.0
H1154 H 0.32563 0.88647 0.50571 0.0
H1155 H 0.29721 0.93171 0.47646 0.0
H1156 H 0.37182 0.91176 0.42128 0.0
H1157 H 0.38285 0.92415 0.47809 0.0
H1158 H 0.36155 0.89332 0.47292 0.0
H1159 H 0.31732 0.96651 0.43465 0.0
H1160 H 0.3487 0.98085 0.44388 0.0
H1161 H 0.33633 0.96603 0.38952 0.0
H1162 H 0.4244 1.00564 0.44107 0.0
H1163 H 0.39445 0.97319 0.30832 0.0
H1164 H 0.38631 0.95862 0.51452 0.0
H1165 H 0.37439 0.9777 0.50747 0.0
H1166 H 0.40579 0.99 0.51317 0.0
H1167 H 0.35053 0.91812 0.35489 0.0
H1168 H 0.35973 0.93635 0.30291 0.0
H1169 H 0.33833 0.93656 0.3423 0.0
C1170 C 0.15644 0.35877 0.39394 0.0
C1171 C 0.16947 0.36213 0.43545 0.0
C1172 C 0.16245 0.35203 0.35156 0.0
C1173 C 0.18182 0.3481 0.35047 0.0
C1174 C 0.19531 0.35181 0.39217 0.0
C1175 C 0.18911 0.35902 0.43405 0.0
C1176 C 0.14792 0.34897 0.30797 0.0
C1177 C 0.21596 0.34763 0.39278 0.0
C1178 C 0.18368 0.30964 0.25073 0.0
C1179 C 0.20048 0.32649 0.22049 0.0
C1180 C 0.17753 0.31636 0.29327 0.0
C1181 C 0.18811 0.34053 0.30546 0.0
C1182 C 0.20446 0.35758 0.27407 0.0
C1183 C 0.21055 0.35036 0.23239 0.0
C1184 C 0.16017 0.29756 0.3258 0.0
C1185 C 0.21575 0.38352 0.28472 0.0
H1186 H 0.14136 0.36137 0.39478 0.0
H1187 H 0.19905 0.36137 0.46614 0.0
H1188 H 0.15941 0.36033 0.27926 0.0
H1189 H 0.13963 0.33053 0.29541 0.0
H1190 H 0.13385 0.35337 0.31433 0.0
H1191 H 0.22459 0.35116 0.4279 0.0
H1192 H 0.20999 0.32915 0.3828 0.0
H1193 H 0.22921 0.35904 0.36643 0.0
H1194 H 0.17613 0.29119 0.24205 0.0
H1195 H 0.22349 0.36343 0.209 0.0
H1196 H 0.14496 0.30022 0.33211 0.0
H1197 H 0.16863 0.29885 0.36043 0.0
H1198 H 0.15354 0.2796 0.31142 0.0
H1199 H 0.20197 0.38839 0.29028 0.0
H1200 H 0.22755 0.39457 0.25599 0.0
H1201 H 0.22617 0.38766 0.31774 0.0
C1202 C 0.66339 0.83027 0.43681 0.0
C1203 C 0.65811 0.80677 0.43574 0.0
C1204 C 0.6715 0.8445 0.39602 0.0
C1205 C 0.6742 0.83494 0.35313 0.0
C1206 C 0.66816 0.81102 0.35179 0.0
C1207 C 0.66022 0.79735 0.39282 0.0
C1208 C 0.67764 0.86987 0.39902 0.0
C1209 C 0.67033 0.79983 0.30701 0.0
C1210 C 0.67469 0.86045 0.23219 0.0
C1211 C 0.69856 0.87112 0.21941 0.0
C1212 C 0.66675 0.84971 0.27638 0.0
C1213 C 0.68298 0.8495 0.30913 0.0
C1214 C 0.70726 0.86111 0.29734 0.0
C1215 C 0.71475 0.87181 0.25276 0.0
C1216 C 0.64076 0.83772 0.28719 0.0
C1217 C 0.72521 0.86135 0.33105 0.0
H1218 H 0.66194 0.8377 0.46983 0.0
H1219 H 0.65576 0.77909 0.3914 0.0
H1220 H 0.69664 0.88145 0.3915 0.0
H1221 H 0.66769 0.87363 0.37203 0.0
H1222 H 0.67377 0.87445 0.43426 0.0
H1223 H 0.66483 0.78098 0.31177 0.0
H1224 H 0.65934 0.80125 0.27885 0.0
H1225 H 0.68884 0.80925 0.29464 0.0
H1226 H 0.66205 0.8603 0.20734 0.0
H1227 H 0.73318 0.87996 0.24341 0.0
H1228 H 0.63783 0.84355 0.32193 0.0
H1229 H 0.63352 0.81845 0.28918 0.0
H1230 H 0.63073 0.84132 0.26003 0.0
H1231 H 0.72317 0.86726 0.36643 0.0
H1232 H 0.74354 0.87299 0.31884 0.0
H1233 H 0.7223 0.84326 0.33491 0.0
C1234 C 0.14443 0.82214 0.25466 0.0
C1235 C 0.1591 0.83265 0.21572 0.0
C1236 C 0.15386 0.8243 0.30039 0.0
C1237 C 0.17858 0.83778 0.30774 0.0
C1238 C 0.19341 0.84863 0.26852 0.0
C1239 C 0.18355 0.84575 0.22316 0.0
C1240 C 0.13736 0.8121 0.34088 0.0
C1241 C 0.21974 0.86367 0.27455 0.0
C1242 C 0.20004 0.86331 0.43073 0.0
C1243 C 0.20788 0.84858 0.44933 0.0
C1244 C 0.19084 0.86018 0.38478 0.0
C1245 C 0.18885 0.84146 0.35658 0.0
C1246 C 0.19685 0.82654 0.37509 0.0
C1247 C 0.20654 0.83046 0.421 0.0
C1248 C 0.1832 0.87695 0.36643 0.0
C1249 C 0.19474 0.80615 0.34672 0.0
H1250 H 0.12557 0.8118 0.24916 0.0
H1251 H 0.195 0.85417 0.1934 0.0
H1252 H 0.14262 0.80055 0.35946 0.0
H1253 H 0.1385 0.8253 0.36672 0.0
H1254 H 0.11876 0.80134 0.32913 0.0
H1255 H 0.22889 0.87078 0.24055 0.0
H1256 H 0.22382 0.87861 0.29845 0.0
H1257 H 0.22698 0.85329 0.29109 0.0
H1258 H 0.20127 0.8775 0.45229 0.0
H1259 H 0.21237 0.81891 0.43536 0.0
H1260 H 0.16411 0.86723 0.35815 0.0
H1261 H 0.19263 0.88519 0.33327 0.0
H1262 H 0.18664 0.89107 0.39212 0.0
H1263 H 0.17602 0.79412 0.33733 0.0
H1264 H 0.20152 0.79603 0.36613 0.0
H1265 H 0.20463 0.81258 0.31329 0.0
C1266 C 0.82695 0.706 0.72928 0.0
C1267 C 0.83528 0.70337 0.77318 0.0
C1268 C 0.83319 0.69925 0.68727 0.0
C1269 C 0.84803 0.68934 0.68892 0.0
C1270 C 0.85702 0.68715 0.73309 0.0
C1271 C 0.85066 0.69436 0.77473 0.0
C1272 C 0.8236 0.70246 0.64114 0.0
C1273 C 0.87285 0.67663 0.73645 0.0
C1274 C 0.84628 0.65182 0.58397 0.0
C1275 C 0.86689 0.6674 0.55997 0.0
C1276 C 0.83993 0.65865 0.62609 0.0
C1277 C 0.85439 0.68169 0.64423 0.0
C1278 C 0.87474 0.69768 0.61902 0.0
C1279 C 0.88077 0.69031 0.57753 0.0
C1280 C 0.81812 0.64102 0.65189 0.0
C1281 C 0.8904 0.72253 0.63624 0.0
H1282 H 0.81522 0.71318 0.72795 0.0
H1283 H 0.85692 0.69211 0.80862 0.0
H1284 H 0.8383 0.71332 0.61685 0.0
H1285 H 0.81261 0.68515 0.62393 0.0
H1286 H 0.81277 0.711 0.6458 0.0
H1287 H 0.87849 0.67627 0.77322 0.0
H1288 H 0.86353 0.65841 0.72248 0.0
H1289 H 0.88875 0.68684 0.71451 0.0
H1290 H 0.83572 0.63402 0.5709 0.0
H1291 H 0.89667 0.70241 0.55891 0.0
H1292 H 0.80589 0.64797 0.65625 0.0
H1293 H 0.82296 0.63805 0.68768 0.0
H1294 H 0.8087 0.62389 0.63319 0.0
H1295 H 0.87999 0.73155 0.64027 0.0
H1296 H 0.90527 0.73298 0.61191 0.0
H1297 H 0.8977 0.72231 0.6714 0.0
C1298 C 0.325 0.12516 0.73512 0.0
C1299 C 0.32605 0.13629 0.77796 0.0
C1300 C 0.33151 0.13762 0.69251 0.0
C1301 C 0.33958 0.16204 0.69246 0.0
C1302 C 0.3401 0.17334 0.7355 0.0
C1303 C 0.33315 0.16027 0.77776 0.0
C1304 C 0.33013 0.12466 0.64761 0.0
C1305 C 0.3487 0.19934 0.73709 0.0
C1306 C 0.37762 0.19554 0.58677 0.0
C1307 C 0.36133 0.19731 0.55722 0.0
C1308 C 0.37102 0.18487 0.63148 0.0
C1309 C 0.34749 0.17551 0.64718 0.0
C1310 C 0.33108 0.17756 0.61794 0.0
C1311 C 0.33819 0.18849 0.57372 0.0
C1312 C 0.38914 0.18317 0.66157 0.0
C1313 C 0.30579 0.16773 0.63292 0.0
H1314 H 0.31928 0.10656 0.73514 0.0
H1315 H 0.33417 0.16893 0.81087 0.0
H1316 H 0.31905 0.12718 0.62126 0.0
H1317 H 0.34797 0.13189 0.63225 0.0
H1318 H 0.3227 0.10551 0.65342 0.0
H1319 H 0.34723 0.20534 0.77284 0.0
H1320 H 0.3674 0.20926 0.726 0.0
H1321 H 0.3385 0.20379 0.71202 0.0
H1322 H 0.39548 0.20212 0.57475 0.0
H1323 H 0.32546 0.19016 0.5522 0.0
H1324 H 0.38415 0.16446 0.66592 0.0
H1325 H 0.38972 0.19037 0.69721 0.0
H1326 H 0.40704 0.19278 0.64602 0.0
H1327 H 0.2973 0.14839 0.6371 0.0
H1328 H 0.2954 0.17159 0.60709 0.0
H1329 H 0.30502 0.17508 0.6676 0.0
C1330 C 0.81634 0.16275 0.61091 0.0
C1331 C 0.83196 0.17207 0.57289 0.0
C1332 C 0.82472 0.16493 0.65759 0.0
C1333 C 0.84932 0.17718 0.66667 0.0
C1334 C 0.86509 0.18683 0.62829 0.0
C1335 C 0.85624 0.18396 0.58208 0.0
C1336 C 0.80726 0.15399 0.69716 0.0
C1337 C 0.8914 0.20051 0.63603 0.0
C1338 C 0.87481 0.20767 0.78378 0.0
C1339 C 0.8838 0.19404 0.80327 0.0
C1340 C 0.86265 0.20178 0.74062 0.0
C1341 C 0.85882 0.18138 0.71617 0.0
C1342 C 0.86625 0.16651 0.73731 0.0
C1343 C 0.87874 0.17305 0.78052 0.0
C1344 C 0.85527 0.21831 0.71978 0.0
C1345 C 0.8621 0.14432 0.71309 0.0
H1346 H 0.79757 0.15321 0.60394 0.0
H1347 H 0.86838 0.19129 0.55289 0.0
H1348 H 0.81118 0.14194 0.71766 0.0
H1349 H 0.80883 0.16785 0.7217 0.0
H1350 H 0.78881 0.144 0.68416 0.0
H1351 H 0.9013 0.20673 0.6025 0.0
H1352 H 0.89607 0.21599 0.65875 0.0
H1353 H 0.89725 0.18943 0.65458 0.0
H1354 H 0.87814 0.22364 0.80158 0.0
H1355 H 0.88557 0.1624 0.79514 0.0
H1356 H 0.83647 0.20854 0.7092 0.0
H1357 H 0.86571 0.22657 0.68758 0.0
H1358 H 0.85792 0.23247 0.74471 0.0
H1359 H 0.84367 0.13411 0.70021 0.0
H1360 H 0.86571 0.133 0.73678 0.0
H1361 H 0.87378 0.14892 0.68199 0.0
C1362 C 0.52193 0.03765 0.08941 0.0
C1363 C 0.5075 0.02057 0.12229 0.0
C1364 C 0.52507 0.03126 0.04362 0.0
C1365 C 0.51351 1.00721 0.03018 0.0
C1366 C 0.49817 0.99004 0.06258 0.0
C1367 C 0.49532 0.9969 0.10788 0.0
C1368 C 0.54149 0.05019 0.01021 0.0
C1369 C 0.48545 0.96423 0.05011 0.0
C1370 C 0.51213 0.98974 0.90049 0.0
C1371 C 0.53147 0.98613 0.89872 0.0
C1372 C 0.50598 0.99665 0.9429 0.0
C1373 C 0.51934 0.99973 0.98452 0.0
C1374 C 0.53837 0.99528 0.98295 0.0
C1375 C 0.54418 0.98864 0.94029 0.0
C1376 C 0.48561 1.00124 0.94292 0.0
C1377 C 0.55288 0.99782 0.02631 0.0
H1378 H 0.5314 0.05595 0.09992 0.0
H1379 H 0.48358 0.98354 0.13226 0.0
H1380 H 0.55733 0.04852 1.00429 0.0
H1381 H 0.53281 0.04811 0.97553 0.0
H1382 H 0.54725 0.0681 0.02393 0.0
H1383 H 0.47266 0.95325 0.07762 0.0
H1384 H 0.47591 0.96122 0.0162 0.0
H1385 H 0.49842 0.95821 0.04557 0.0
H1386 H 0.50242 0.98804 0.86838 0.0
H1387 H 0.55898 0.98561 0.93921 0.0
H1388 H 0.49206 0.01996 0.95165 0.0
H1389 H 0.47271 0.99051 0.97041 0.0
H1390 H 0.47643 0.99724 0.90833 0.0
H1391 H 0.56127 0.01614 0.03962 0.0
H1392 H 0.56689 0.99339 0.01935 0.0
H1393 H 0.54137 0.98619 0.0547 0.0
C1394 C 0.04551 0.53347 0.92303 0.0
C1395 C 0.02937 0.53607 0.89482 0.0
C1396 C 0.0396 0.52444 0.96917 0.0
C1397 C 1.01719 0.51834 0.98787 0.0
C1398 C 1.00107 0.52144 0.95974 0.0
C1399 C 1.00727 0.53006 0.91361 0.0
C1400 C 0.0572 0.52113 0.99768 0.0
C1401 C 0.97725 0.51575 0.97841 0.0
C1402 C 0.99174 0.47611 0.09203 0.0
C1403 C 0.99757 0.49167 0.13009 0.0
C1404 C 0.99833 0.48451 0.0457 0.0
C1405 C 1.01064 0.50907 0.03704 0.0
C1406 C 1.01614 0.52481 0.07536 0.0
C1407 C 1.00975 0.51593 0.12132 0.0
C1408 C 0.9924 0.4671 1.00609 0.0
C1409 C 0.02871 0.55106 0.06781 0.0
H1410 H 0.06251 0.53793 0.90854 0.0
H1411 H 0.99486 0.53237 0.89222 0.0
H1412 H 0.06173 0.53175 0.03042 0.0
H1413 H 0.04935 0.50246 0.00834 0.0
H1414 H 0.07366 0.52629 0.97787 0.0
H1415 H 0.96689 0.51953 0.95236 0.0
H1416 H 0.967 0.4969 0.98815 0.0
H1417 H 0.97942 0.52611 0.01079 0.0
H1418 H 0.98264 0.45738 0.09874 0.0
H1419 H 1.01413 0.528 0.15061 0.0
H1420 H 1.0087 0.47074 0.98732 0.0
H1421 H 0.98077 0.469 0.98012 0.0
H1422 H 0.98344 0.44864 0.01878 0.0
H1423 H 0.04611 0.55699 0.05137 0.0
H1424 H 0.03143 0.56092 0.1012 0.0
H1425 H 0.01842 0.55565 0.04325 0.0
C1426 C 0.51935 0.52588 0.89643 0.0
C1427 C 0.49542 0.5109 0.88601 0.0
C1428 C 0.52825 0.5278 0.9424 0.0
C1429 C 0.51296 0.51415 0.97918 0.0
C1430 C 0.48871 0.49907 0.96896 0.0
C1431 C 0.48021 0.49779 0.92266 0.0
C1432 C 0.55407 0.5445 0.95159 0.0
C1433 C 0.47179 0.48403 1.00683 0.0
C1434 C 0.54123 0.50487 0.08968 0.0
C1435 C 0.5408 0.52108 0.12125 0.0
C1436 C 0.53192 0.50213 0.04366 0.0
C1437 C 0.52231 0.51623 0.02844 0.0
C1438 C 0.52222 0.53287 0.06003 0.0
C1439 C 0.53128 0.53497 0.10586 0.0
C1440 C 0.53219 0.48401 0.01141 0.0
C1441 C 0.51268 0.54865 0.04531 0.0
H1442 H 0.53117 0.53624 0.86843 0.0
H1443 H 0.46178 0.48596 0.91478 0.0
H1444 H 0.55616 0.55754 0.97879 0.0
H1445 H 0.56252 0.53469 0.96547 0.0
H1446 H 0.56358 0.55407 0.91936 0.0
H1447 H 0.4536 0.4729 0.99313 0.0
H1448 H 0.47784 0.47246 0.02259 0.0
H1449 H 0.47141 0.49531 0.03549 0.0
H1450 H 0.54836 0.49396 0.10136 0.0
H1451 H 0.53121 0.54782 0.12968 0.0
H1452 H 0.54271 0.49268 0.97954 0.0
H1453 H 0.51401 0.47144 0.99948 0.0
H1454 H 0.53969 0.47402 0.02877 0.0
H1455 H 0.52256 0.5593 0.01439 0.0
H1456 H 0.51391 0.56073 0.07397 0.0
H1457 H 0.49398 0.53789 0.03449 0.0
C1458 C 0.21265 0.19526 0.01164 0.0
C1459 C 0.20615 0.2051 0.97454 0.0
C1460 C 0.21958 0.17837 1.0032 0.0
C1461 C 0.21999 0.17086 0.95651 0.0
C1462 C 0.21193 0.17951 0.91936 0.0
C1463 C 0.20511 0.19638 0.92878 0.0
C1464 C 0.22786 0.16966 0.04411 0.0
C1465 C 0.21185 0.17201 0.86909 0.0
C1466 C 0.26788 0.15523 0.93339 0.0
C1467 C 0.25556 0.13057 0.93489 0.0
C1468 C 0.25636 0.16831 0.93857 0.0
C1469 C 0.23173 0.1566 0.94609 0.0
C1470 C 0.21894 0.1316 0.9456 0.0
C1471 C 0.23099 0.11885 0.9398 0.0
C1472 C 0.27084 0.19482 0.93799 0.0
C1473 C 0.19271 0.11833 0.95353 0.0
H1474 H 0.21356 0.2016 0.04716 0.0
H1475 H 0.19966 0.20332 0.89983 0.0
H1476 H 0.2194 0.15022 0.04306 0.0
H1477 H 0.24716 0.17689 0.04156 0.0
H1478 H 0.224 0.17497 0.07859 0.0
H1479 H 0.20229 0.1778 0.84516 0.0
H1480 H 0.23026 0.17971 0.85654 0.0
H1481 H 0.20364 0.15263 0.86671 0.0
H1482 H 0.28687 0.16443 0.92963 0.0
H1483 H 0.22139 0.09983 0.94182 0.0
H1484 H 0.27017 0.20189 0.97309 0.0
H1485 H 0.26347 0.20209 0.91206 0.0
H1486 H 0.28957 0.20124 0.92903 0.0
H1487 H 0.18896 0.12084 0.99049 0.0
H1488 H 0.18493 0.0992 0.94681 0.0
H1489 H 0.18387 0.12526 0.93046 0.0
C1490 C 0.90721 0.12139 0.99935 0.0
C1491 C 0.90577 0.13298 0.95906 0.0
C1492 C 0.89191 0.09715 1.00611 0.0
C1493 C 0.87423 0.08406 0.97219 0.0
C1494 C 0.8733 0.09552 0.93041 0.0
C1495 C 0.8891 0.11984 0.92433 0.0
C1496 C 0.89395 0.08584 0.05082 0.0
C1497 C 0.85477 0.0824 0.89333 0.0
C1498 C 0.84391 0.01691 0.9768 0.0
C1499 C 0.82298 1.01071 1.00137 0.0
C1500 C 0.86052 0.04052 0.96678 0.0
C1501 C 0.8563 0.0587 0.98147 0.0
C1502 C 0.83529 0.05264 1.00655 0.0
C1503 C 0.81899 0.02882 0.01633 0.0
C1504 C 0.88273 0.046 0.9407 0.0
C1505 C 0.82997 0.07136 0.02292 0.0
H1506 H 0.9197 0.1316 0.02682 0.0
H1507 H 0.88739 0.12884 0.89387 0.0
H1508 H 0.87814 0.08047 0.07288 0.0
H1509 H 0.89474 0.06973 0.04252 0.0
H1510 H 0.9098 0.09788 0.07175 0.0
H1511 H 0.85737 0.09326 0.8615 0.0
H1512 H 0.85492 0.0662 0.88274 0.0
H1513 H 0.8371 0.0769 0.90805 0.0
H1514 H 0.84751 1.00324 0.96572 0.0
H1515 H 0.80289 0.02434 0.03491 0.0
H1516 H 0.89834 0.05727 0.96285 0.0
H1517 H 0.88421 0.05599 0.90816 0.0
H1518 H 0.88327 0.02989 0.93094 0.0
H1519 H 0.84395 0.08359 0.04742 0.0
H1520 H 0.81273 0.06385 0.04109 0.0
H1521 H 0.82987 0.08186 0.99239 0.0
C1522 C 1.01451 0.81741 0.93949 0.0
C1523 C 0.02136 0.81459 0.98496 0.0
C1524 C 0.99083 0.80994 0.92825 0.0
C1525 C 0.97324 0.79931 0.96321 0.0
C1526 C 0.97998 0.79642 0.00924 0.0
C1527 C 1.00384 0.80399 0.01949 0.0
C1528 C 0.9846 0.81309 0.87859 0.0
C1529 C 0.96191 0.78522 0.04774 0.0
C1530 C 0.91242 0.79403 0.94652 0.0
C1531 C 0.89851 0.77029 0.93408 0.0
C1532 C 0.93688 0.80394 0.95516 0.0
C1533 C 0.94767 0.78984 0.95086 0.0
C1534 C 0.93377 0.76622 0.93579 0.0
C1535 C 0.90949 0.75678 0.92802 0.0
C1536 C 0.95093 0.82917 0.97116 0.0
C1537 C 0.94433 0.75052 0.92981 0.0
H1538 H 0.02769 0.82521 0.91221 0.0
H1539 H 1.00884 0.80193 0.0548 0.0
H1540 H 0.97269 0.79566 0.86261 0.0
H1541 H 0.97499 0.82302 0.87885 0.0
H1542 H 1.00038 0.82253 0.85591 0.0
H1543 H 0.97 0.78507 0.08209 0.0
H1544 H 0.95208 0.79481 0.05204 0.0
H1545 H 0.94893 0.76685 0.03794 0.0
H1546 H 0.90399 0.80443 0.95235 0.0
H1547 H 0.89879 0.73835 0.91878 0.0
H1548 H 0.96686 0.83892 0.94907 0.0
H1549 H 0.95698 0.82979 1.00794 0.0
H1550 H 0.9405 0.83828 0.96964 0.0
H1551 H 0.95991 0.75899 0.90642 0.0
H1552 H 0.93155 0.7331 0.91479 0.0
H1553 H 0.95043 0.74774 0.96444 0.0
C1554 C 0.77005 0.86322 0.08817 0.0
C1555 C 0.78269 0.88784 0.08595 0.0
C1556 C 0.78125 0.84983 0.08341 0.0
C1557 C 0.80584 0.86122 0.07536 0.0
C1558 C 0.81896 0.8862 0.07547 0.0
C1559 C 0.80723 0.89925 0.08094 0.0
C1560 C 0.76646 0.82335 0.08433 0.0
C1561 C 0.84514 0.89912 0.0669 0.0
C1562 C 0.83223 0.82104 0.0886 0.0
C1563 C 0.83083 0.81275 0.04234 0.0
C1564 C 0.82549 0.83782 0.09956 0.0
C1565 C 0.8171 0.84672 0.06349 0.0
C1566 C 0.81694 0.83947 0.01635 0.0
C1567 C 0.8238 0.8227 1.00638 0.0
C1568 C 0.82612 0.84503 0.15023 0.0
C1569 C 0.80817 0.84839 0.97659 0.0
H1570 H 0.75104 0.85433 0.09164 0.0
H1571 H 0.81702 0.91824 0.07813 0.0
H1572 H 0.76633 0.81618 0.04888 0.0
H1573 H 0.77409 0.8159 0.10922 0.0
H1574 H 0.74797 0.81725 0.09478 0.0
H1575 H 0.85325 0.91824 0.07408 0.0
H1576 H 0.8539 0.89184 0.08922 0.0
H1577 H 0.84856 0.89672 0.02964 0.0
H1578 H 0.83797 0.81386 0.11665 0.0
H1579 H 0.82241 0.81652 0.97056 0.0
H1580 H 0.80786 0.83743 0.16354 0.0
H1581 H 0.83454 0.86442 0.15318 0.0
H1582 H 0.83577 0.83894 0.17319 0.0
H1583 H 0.78894 0.84131 0.98041 0.0
H1584 H 0.81143 0.84308 0.94152 0.0
H1585 H 0.8168 0.86784 0.97788 0.0
C1586 C 0.20428 1.00753 1.00791 0.0
C1587 C 0.21581 0.02335 0.04514 0.0
C1588 C 0.18766 0.98375 0.01636 0.0
C1589 C 0.18216 0.97534 0.06323 0.0
C1590 C 0.1923 0.99153 0.1009 0.0
C1591 C 0.20887 0.01523 0.09145 0.0
C1592 C 0.17725 0.96728 0.97493 0.0
C1593 C 0.18686 0.98352 0.15141 0.0
C1594 C 0.1315 0.91198 0.07973 0.0
C1595 C 0.14371 0.89949 0.0788 0.0
C1596 C 0.14371 0.93681 0.07638 0.0
C1597 C 0.16866 0.94934 0.07246 0.0
C1598 C 0.18098 0.93672 0.07436 0.0
C1599 C 0.16839 0.91209 0.07717 0.0
C1600 C 0.12985 0.94948 0.0744 0.0
C1601 C 0.20751 0.94912 0.07106 0.0
H1602 H 0.20911 0.01326 0.97194 0.0
H1603 H 0.21704 0.02724 0.12064 0.0
H1604 H 0.18489 0.95554 0.97327 0.0
H1605 H 0.15793 0.95599 0.9791 0.0
H1606 H 0.18081 0.97687 0.941 0.0
H1607 H 0.19327 0.99855 0.17627 0.0
H1608 H 0.16763 0.97195 0.15636 0.0
H1609 H 0.19544 0.97312 0.16055 0.0
H1610 H 0.11241 0.90233 0.08025 0.0
H1611 H 0.17793 0.90253 0.0765 0.0
H1612 H 0.13045 0.95601 0.0381 0.0
H1613 H 0.13772 0.96498 0.09813 0.0
H1614 H 0.11113 0.93785 0.08427 0.0
H1615 H 0.21316 0.95741 0.0359 0.0
H1616 H 0.21451 0.93697 0.07637 0.0
H1617 H 0.21558 0.96334 0.09775 0.0
C1618 C 0.12599 0.26123 0.08038 0.0
C1619 C 0.13746 0.248 0.079 0.0
C1620 C 0.10135 0.25058 0.07719 0.0
C1621 C 0.08748 0.22588 0.07178 0.0
C1622 C 0.09885 0.21223 0.07245 0.0
C1623 C 0.12372 0.22344 0.07624 0.0
C1624 C 0.09027 0.26598 0.07747 0.0
C1625 C 0.08487 0.1859 0.0667 0.0
C1626 C 0.02178 0.20215 0.09318 0.0
C1627 C 1.01335 0.20242 0.04766 0.0
C1628 C 0.04545 0.20832 0.10132 0.0
C1629 C 0.06136 0.21495 0.06309 0.0
C1630 C 0.05264 0.21385 0.01677 0.0
C1631 C 0.02888 0.2076 0.00963 0.0
C1632 C 0.05372 0.20905 0.15126 0.0
C1633 C 0.06879 0.22065 0.97477 0.0
H1634 H 0.13649 0.28023 0.08237 0.0
H1635 H 0.13245 0.21313 0.07426 0.0
H1636 H 0.08201 0.26497 0.04273 0.0
H1637 H 0.07616 0.25971 0.10433 0.0
H1638 H 0.10329 0.28468 0.08495 0.0
H1639 H 0.09575 0.17755 0.07336 0.0
H1640 H 0.06962 0.1782 0.09099 0.0
H1641 H 0.07778 0.18155 0.03029 0.0
H1642 H 1.01 0.19776 0.12287 0.0
H1643 H 0.02287 0.208 0.97429 0.0
H1644 H 0.06525 0.2276 0.16218 0.0
H1645 H 0.06431 0.20015 0.15378 0.0
H1646 H 0.03881 0.20062 0.17637 0.0
H1647 H 0.08139 0.23983 0.97573 0.0
H1648 H 0.05896 0.21637 0.94091 0.0
H1649 H 0.07923 0.21157 0.97591 0.0
C1650 C 0.87667 0.53943 0.3429 0.0
C1651 C 0.86993 0.54901 0.30575 0.0
C1652 C 0.88363 0.52261 0.33464 0.0
C1653 C 0.88389 0.51496 0.28804 0.0
C1654 C 0.8757 0.52341 0.25078 0.0
C1655 C 0.86883 0.54025 0.26005 0.0
C1656 C 0.89217 0.51416 0.37561 0.0
C1657 C 0.87553 0.51576 0.20062 0.0
C1658 C 0.93192 0.49945 0.26773 0.0
C1659 C 0.91964 0.47485 0.27072 0.0
C1660 C 0.9203 0.51249 0.27086 0.0
C1661 C 0.89563 0.50074 0.27796 0.0
C1662 C 0.88289 0.47576 0.27865 0.0
C1663 C 0.89505 0.46307 0.27481 0.0
C1664 C 0.9347 0.53899 0.26915 0.0
C1665 C 0.85663 0.46251 0.28626 0.0
H1666 H 0.87782 0.54599 0.37832 0.0
H1667 H 0.86331 0.54715 0.23111 0.0
H1668 H 0.88387 0.49474 0.37485 0.0
H1669 H 0.91149 0.52157 0.37289 0.0
H1670 H 0.88833 0.51953 0.41006 0.0
H1671 H 0.86577 0.52132 0.1767 0.0
H1672 H 0.89391 0.52357 0.18784 0.0
H1673 H 0.86749 0.49638 0.19853 0.0
H1674 H 0.95096 0.50863 0.26472 0.0
H1675 H 0.88552 0.44409 0.27801 0.0
H1676 H 0.93431 0.54638 0.30405 0.0
H1677 H 0.9271 0.54598 0.24313 0.0
H1678 H 0.95336 0.54533 0.25969 0.0
H1679 H 0.85278 0.46509 0.3231 0.0
H1680 H 0.84889 0.44336 0.27978 0.0
H1681 H 0.84784 0.46936 0.26287 0.0
C1682 C 0.53218 0.4446 0.25807 0.0
C1683 C 0.5566 0.45637 0.26548 0.0
C1684 C 0.51812 0.42041 0.26682 0.0
C1685 C 0.52861 0.40759 0.28441 0.0
C1686 C 0.55349 0.41916 0.28971 0.0
C1687 C 0.56722 0.44344 0.28005 0.0
C1688 C 0.49181 0.40891 0.25983 0.0
C1689 C 0.56544 0.40623 0.30843 0.0
C1690 C 0.48876 0.35358 0.3589 0.0
C1691 C 0.48259 0.33507 0.32696 0.0
C1692 C 0.50404 0.37714 0.34582 0.0
C1693 C 0.51334 0.38249 0.2995 0.0
C1694 C 0.50708 0.36391 0.26707 0.0
C1695 C 0.49188 0.34055 0.28113 0.0
C1696 C 0.51021 0.39635 0.38165 0.0
C1697 C 0.5162 0.36872 0.2172 0.0
H1698 H 0.52389 0.45467 0.24764 0.0
H1699 H 0.58599 0.45261 0.28715 0.0
H1700 H 0.48523 0.39256 0.23881 0.0
H1701 H 0.4829 0.40392 0.29451 0.0
H1702 H 0.48666 0.4207 0.2418 0.0
H1703 H 0.58493 0.41703 0.3065 0.0
H1704 H 0.56036 0.40135 0.34572 0.0
H1705 H 0.55961 0.38971 0.28845 0.0
H1706 H 0.48194 0.34963 0.39444 0.0
H1707 H 0.48698 0.32653 0.2558 0.0
H1708 H 0.50421 0.40849 0.36899 0.0
H1709 H 0.5296 0.40683 0.38618 0.0
H1710 H 0.50207 0.38931 0.41649 0.0
H1711 H 0.51 0.3796 0.19897 0.0
H1712 H 0.51032 0.35232 0.19664 0.0
H1713 H 0.53572 0.37887 0.21732 0.0
C1714 C 0.58587 0.09181 0.25736 0.0
C1715 C 0.57299 0.10166 0.27624 0.0
C1716 C 0.6102 0.10181 0.26605 0.0
C1717 C 0.62197 0.12189 0.29545 0.0
C1718 C 0.60916 0.13242 0.3132 0.0
C1719 C 0.58484 0.12218 0.30337 0.0
C1720 C 0.62303 0.0901 0.24571 0.0
C1721 C 0.6208 0.15369 0.34489 0.0
C1722 C 0.67693 0.12952 0.35998 0.0
C1723 C 0.69533 0.14632 0.33209 0.0
C1724 C 0.65311 0.12184 0.34908 0.0
C1725 C 0.64731 0.13107 0.30925 0.0
C1726 C 0.66577 0.14838 0.28164 0.0
C1727 C 0.68939 0.15582 0.29343 0.0
C1728 C 0.63406 0.10346 0.37978 0.0
C1729 C 0.66057 0.15875 0.23892 0.0
H1730 H 0.57662 0.07555 0.23753 0.0
H1731 H 0.57478 0.12936 0.31944 0.0
H1732 H 0.63923 0.10321 0.22738 0.0
H1733 H 0.62852 0.08245 0.27456 0.0
H1734 H 0.61192 0.07587 0.22048 0.0
H1735 H 0.60912 0.16106 0.3523 0.0
H1736 H 0.62562 0.14878 0.37881 0.0
H1737 H 0.6373 0.16759 0.32879 0.0
H1738 H 0.68106 0.12187 0.38971 0.0
H1739 H 0.70325 0.16914 0.27203 0.0
H1740 H 0.62268 0.08753 0.35862 0.0
H1741 H 0.6227 0.11017 0.3936 0.0
H1742 H 0.64134 0.09833 0.40995 0.0
H1743 H 0.65045 0.14469 0.21273 0.0
H1744 H 0.67685 0.17258 0.22188 0.0
H1745 H 0.64949 0.16645 0.24892 0.0
C1746 C 0.47316 0.13944 0.33268 0.0
C1747 C 0.48842 0.13615 0.36266 0.0
C1748 C 0.46554 0.15555 0.34388 0.0
C1749 C 0.47301 0.16864 0.38644 0.0
C1750 C 0.48872 0.16579 0.41635 0.0
C1751 C 0.49636 0.14989 0.40397 0.0
C1752 C 0.44905 0.15823 0.31052 0.0
C1753 C 0.49702 0.17912 0.46222 0.0
C1754 C 0.46494 0.22243 0.39877 0.0
C1755 C 0.44293 0.21267 0.4208 0.0
C1756 C 0.47527 0.20852 0.38831 0.0
C1757 C 0.46346 0.18435 0.40075 0.0
C1758 C 0.44186 0.17488 0.42547 0.0
C1759 C 0.43173 0.18902 0.43445 0.0
C1760 C 0.49809 0.21934 0.36133 0.0
C1761 C 0.42883 0.14945 0.44053 0.0
H1762 H 0.46671 0.12912 0.30079 0.0
H1763 H 0.50853 0.14823 0.42722 0.0
H1764 H 0.43175 0.15193 0.3277 0.0
H1765 H 0.45614 0.17704 0.30172 0.0
H1766 H 0.44622 0.14821 0.27734 0.0
H1767 H 0.50976 0.17551 0.48106 0.0
H1768 H 0.50547 0.19829 0.45573 0.0
H1769 H 0.48171 0.17424 0.48554 0.0
H1770 H 0.47329 0.24049 0.38678 0.0
H1771 H 0.41447 0.1813 0.45055 0.0
H1772 H 0.49484 0.21142 0.32564 0.0
H1773 H 0.51097 0.21559 0.37902 0.0
H1774 H 0.50604 0.23868 0.35761 0.0
H1775 H 0.42254 0.13794 0.40899 0.0
H1776 H 0.41342 0.14534 0.46305 0.0
H1777 H 0.44079 0.14507 0.46023 0.0
C1778 C 0.80452 0.24438 0.41142 0.0
C1779 C 0.81595 0.23131 0.41716 0.0
C1780 C 0.81757 0.2689 0.40336 0.0
C1781 C 0.84257 0.28056 0.40153 0.0
C1782 C 0.85406 0.26748 0.40995 0.0
C1783 C 0.84065 0.24312 0.41722 0.0
C1784 C 0.80459 0.28212 0.39446 0.0
C1785 C 0.88059 0.27903 0.40926 0.0
C1786 C 0.87867 0.33724 0.33134 0.0
C1787 C 0.88734 0.35444 0.36686 0.0
C1788 C 0.86353 0.3133 0.34192 0.0
C1789 C 0.8569 0.30618 0.38928 0.0
C1790 C 0.86549 0.32346 0.42521 0.0
C1791 C 0.88051 0.34724 0.41363 0.0
C1792 C 0.85483 0.29554 0.30239 0.0
C1793 C 0.85929 0.31676 0.47619 0.0
H1794 H 0.78544 0.23528 0.41039 0.0
H1795 H 0.84956 0.23304 0.4214 0.0
H1796 H 0.81156 0.29782 0.41756 0.0
H1797 H 0.80744 0.28843 0.35751 0.0
H1798 H 0.78535 0.27102 0.40051 0.0
H1799 H 0.88683 0.26674 0.41971 0.0
H1800 H 0.88716 0.28564 0.37334 0.0
H1801 H 0.88852 0.29436 0.43342 0.0
H1802 H 0.88354 0.3425 0.2951 0.0
H1803 H 0.88731 0.36018 0.44159 0.0
H1804 H 0.83531 0.28501 0.30292 0.0
H1805 H 0.86157 0.28317 0.3073 0.0
H1806 H 0.86052 0.30394 0.26728 0.0
H1807 H 0.8399 0.30632 0.48039 0.0
H1808 H 0.86625 0.33236 0.49969 0.0
H1809 H 0.86659 0.30555 0.48788 0.0
C1810 C 0.68625 0.54199 0.40119 0.0
C1811 C 0.67896 0.54211 0.35453 0.0
C1812 C 0.71005 0.55021 0.41276 0.0
C1813 C 0.72736 0.55895 0.377 0.0
C1814 C 0.72018 0.55902 0.32975 0.0
C1815 C 0.69618 0.55069 0.31914 0.0
C1816 C 0.71673 0.55003 0.46363 0.0
C1817 C 0.73794 0.56818 0.29037 0.0
C1818 C 0.79079 0.60456 0.40809 0.0
C1819 C 0.8024 0.59144 0.40755 0.0
C1820 C 0.76646 0.5941 0.39955 0.0
C1821 C 0.75309 0.56975 0.38953 0.0
C1822 C 0.7645 0.55614 0.39081 0.0
C1823 C 0.78902 0.56712 0.39997 0.0
C1824 C 0.75526 0.6094 0.39944 0.0
C1825 C 0.75101 0.53015 0.38043 0.0
H1826 H 0.67339 0.53586 0.42918 0.0
H1827 H 0.6909 0.55071 0.28298 0.0
H1828 H 0.72694 0.54079 0.46719 0.0
H1829 H 0.72819 0.56833 0.47609 0.0
H1830 H 0.7011 0.54137 0.48696 0.0
H1831 H 0.72951 0.56595 0.2553 0.0
H1832 H 0.75058 0.58713 0.29599 0.0
H1833 H 0.74821 0.55892 0.29032 0.0
H1834 H 0.80102 0.6234 0.4137 0.0
H1835 H 0.7979 0.55694 0.39851 0.0
H1836 H 0.73991 0.60205 0.42349 0.0
H1837 H 0.74865 0.60974 0.36359 0.0
H1838 H 0.76777 0.62775 0.4104 0.0
H1839 H 0.73522 0.5213 0.40321 0.0
H1840 H 0.76191 0.52172 0.38581 0.0
H1841 H 0.74474 0.52729 0.34338 0.0
C1842 C 0.55916 0.78615 0.59457 0.0
C1843 C 0.58371 0.79811 0.58924 0.0
C1844 C 0.54692 0.79867 0.60113 0.0
C1845 C 0.55953 0.82366 0.60223 0.0
C1846 C 0.58412 0.83562 0.59412 0.0
C1847 C 0.5958 0.82277 0.58791 0.0
C1848 C 0.52072 0.78514 0.60934 0.0
C1849 C 0.59843 0.86215 0.59434 0.0
C1850 C 0.53333 0.86395 0.58936 0.0
C1851 C 0.53466 0.87212 0.63573 0.0
C1852 C 0.53971 0.84691 0.57832 0.0
C1853 C 0.54775 0.83768 0.61436 0.0
C1854 C 0.54754 0.84457 0.66164 0.0
C1855 C 0.5409 0.86152 0.67174 0.0
C1856 C 0.53924 0.83993 0.52754 0.0
C1857 C 0.55589 0.83526 0.7014 0.0
H1858 H 0.54973 0.76712 0.59641 0.0
H1859 H 0.61478 0.83215 0.58378 0.0
H1860 H 0.51708 0.78685 0.64682 0.0
H1861 H 0.51174 0.79244 0.58773 0.0
H1862 H 0.51301 0.76617 0.60098 0.0
H1863 H 0.61715 0.86878 0.58494 0.0
H1864 H 0.59087 0.86953 0.56912 0.0
H1865 H 0.59784 0.86888 0.62985 0.0
H1866 H 0.52803 0.87149 0.56125 0.0
H1867 H 0.54192 0.86736 0.7077 0.0
H1868 H 0.53118 0.82058 0.5243 0.0
H1869 H 0.55754 0.84793 0.5142 0.0
H1870 H 0.52934 0.8458 0.50479 0.0
H1871 H 0.54732 0.81583 0.69932 0.0
H1872 H 0.55222 0.84019 0.73648 0.0
H1873 H 0.57516 0.84242 0.69833 0.0
C1874 C 0.21336 0.77632 0.57824 0.0
C1875 C 0.23058 0.78948 0.61205 0.0
C1876 C 0.19763 0.75207 0.5849 0.0
C1877 C 0.19926 0.74075 0.62623 0.0
C1878 C 0.21759 0.75382 0.65896 0.0
C1879 C 0.23278 0.77801 0.65173 0.0
C1880 C 0.17834 0.73893 0.54919 0.0
C1881 C 0.22037 0.74259 0.70308 0.0
C1882 C 0.14446 0.68683 0.6748 0.0
C1883 C 0.1476 0.66826 0.65936 0.0
C1884 C 0.16091 0.71039 0.6637 0.0
C1885 C 0.18118 0.71568 0.63674 0.0
C1886 C 0.18452 0.69703 0.62139 0.0
C1887 C 0.16777 0.67368 0.63277 0.0
C1888 C 0.15655 0.72965 0.68081 0.0
C1889 C 0.20597 0.70177 0.59331 0.0
H1890 H 0.21113 0.78529 0.54831 0.0
H1891 H 0.24573 0.78829 0.67846 0.0
H1892 H 0.17786 0.72244 0.53857 0.0
H1893 H 0.16105 0.73397 0.5652 0.0
H1894 H 0.1806 0.74959 0.5172 0.0
H1895 H 0.23682 0.7545 0.72255 0.0
H1896 H 0.20519 0.73775 0.72674 0.0
H1897 H 0.2205 0.72619 0.6943 0.0
H1898 H 0.12892 0.68293 0.69492 0.0
H1899 H 0.17068 0.65961 0.62127 0.0
H1900 H 0.15612 0.74009 0.65047 0.0
H1901 H 0.17117 0.74182 0.70422 0.0
H1902 H 0.13974 0.72267 0.70042 0.0
H1903 H 0.20706 0.71168 0.56088 0.0
H1904 H 0.2058 0.68534 0.58315 0.0
H1905 H 0.22214 0.71286 0.61421 0.0
C1906 C 0.24707 0.4248 0.57588 0.0
C1907 C 0.23471 0.43638 0.58788 0.0
C1908 C 0.27128 0.43477 0.5855 0.0
C1909 C 0.28353 0.45675 0.60891 0.0
C1910 C 0.27131 0.46898 0.61954 0.0
C1911 C 0.24705 0.45869 0.60873 0.0
C1912 C 0.28348 0.42121 0.57251 0.0
C1913 C 0.28349 0.49231 0.64481 0.0
C1914 C 0.33843 0.46678 0.67725 0.0
C1915 C 0.35665 0.48046 0.64564 0.0
C1916 C 0.31472 0.45972 0.66663 0.0
C1917 C 0.30887 0.46636 0.62321 0.0
C1918 C 0.32725 0.48083 0.59199 0.0
C1919 C 0.35074 0.48776 0.60363 0.0
C1920 C 0.2958 0.44449 0.70129 0.0
C1921 C 0.32202 0.48836 0.54537 0.0
H1922 H 0.23748 0.40732 0.56066 0.0
H1923 H 0.23742 0.46736 0.61951 0.0
H1924 H 0.29963 0.43249 0.55196 0.0
H1925 H 0.28898 0.4158 0.60497 0.0
H1926 H 0.27197 0.40522 0.5515 0.0
H1927 H 0.27226 0.50054 0.64691 0.0
H1928 H 0.2881 0.48973 0.68112 0.0
H1929 H 0.30017 0.50461 0.62683 0.0
H1930 H 0.34258 0.46091 0.70967 0.0
H1931 H 0.36454 0.4988 0.57928 0.0
H1932 H 0.28457 0.42675 0.68594 0.0
H1933 H 0.28426 0.45201 0.70858 0.0
H1934 H 0.30325 0.44258 0.73511 0.0
H1935 H 0.31159 0.47268 0.52284 0.0
H1936 H 0.3383 0.50074 0.5262 0.0
H1937 H 0.31126 0.49689 0.5508 0.0
C1938 C 0.0944 0.52242 0.75167 0.0
C1939 C 0.10723 0.54707 0.75057 0.0
C1940 C 0.10531 0.50887 0.74468 0.0
C1941 C 0.12979 0.52014 0.73561 0.0
C1942 C 0.14314 0.54511 0.73699 0.0
C1943 C 0.13171 0.55831 0.74462 0.0
C1944 C 0.09029 0.48241 0.74425 0.0
C1945 C 0.16924 0.55791 0.72756 0.0
C1946 C 0.15762 0.48085 0.74172 0.0
C1947 C 0.15678 0.47408 0.69442 0.0
C1948 C 0.14973 0.49643 0.75547 0.0
C1949 C 0.14074 0.50564 0.72124 0.0
C1950 C 0.14038 0.49934 0.67332 0.0
C1951 C 0.14834 0.48373 0.66057 0.0
C1952 C 0.15034 0.50245 0.80692 0.0
C1953 C 0.13103 0.5087 0.63544 0.0
H1954 H 0.07545 0.51363 0.75599 0.0
H1955 H 0.14166 0.57733 0.74277 0.0
H1956 H 0.08956 0.47574 0.70803 0.0
H1957 H 0.09811 0.47445 0.76732 0.0
H1958 H 0.072 0.47635 0.75612 0.0
H1959 H 0.17757 0.577 0.7353 0.0
H1960 H 0.17805 0.55037 0.74898 0.0
H1961 H 0.17234 0.55569 0.68999 0.0
H1962 H 0.16387 0.47347 0.76839 0.0
H1963 H 0.14796 0.4791 0.62387 0.0
H1964 H 0.13209 0.495 0.82021 0.0
H1965 H 0.1592 0.52178 0.81169 0.0
H1966 H 0.15961 0.49549 0.82871 0.0
H1967 H 0.11202 0.50214 0.64132 0.0
H1968 H 0.13326 0.50335 0.59957 0.0
H1969 H 0.14018 0.52817 0.63708 0.0
C1970 C 0.49369 0.57926 0.69282 0.0
C1971 C 0.4736 0.56686 0.72122 0.0
C1972 C 0.50649 0.6039 0.69159 0.0
C1973 C 0.49918 0.61701 0.71925 0.0
C1974 C 0.47881 0.60477 0.74786 0.0
C1975 C 0.46631 0.57983 0.74874 0.0
C1976 C 0.52817 0.6159 0.66091 0.0
C1977 C 0.47028 0.61805 0.77756 0.0
C1978 C 0.54985 0.67889 0.74323 0.0
C1979 C 0.54763 0.69196 0.70623 0.0
C1980 C 0.53331 0.65494 0.74988 0.0
C1981 C 0.51378 0.64342 0.71899 0.0
C1982 C 0.51061 0.65677 0.68334 0.0
C1983 C 0.52754 0.68075 0.67728 0.0
C1984 C 0.53775 0.64157 0.78802 0.0
C1985 C 0.48998 0.6454 0.64983 0.0
H1986 H 0.49975 0.56966 0.67143 0.0
H1987 H 0.45084 0.57055 0.77065 0.0
H1988 H 0.52634 0.62762 0.63521 0.0
H1989 H 0.54389 0.62702 0.68293 0.0
H1990 H 0.5314 0.60318 0.64114 0.0
H1991 H 0.45371 0.60613 0.7964 0.0
H1992 H 0.48394 0.629 0.80387 0.0
H1993 H 0.46728 0.63015 0.75509 0.0
H1994 H 0.56525 0.68694 0.76571 0.0
H1995 H 0.52533 0.69056 0.64902 0.0
H1996 H 0.54319 0.62966 0.77168 0.0
H1997 H 0.52144 0.63049 0.80825 0.0
H1998 H 0.55179 0.65346 0.81287 0.0
H1999 H 0.49262 0.63391 0.62492 0.0
H2000 H 0.48789 0.65861 0.62914 0.0
H2001 H 0.47344 0.63417 0.66931 0.0
C2002 C 0.36406 0.88751 0.65324 0.0
C2003 C 0.34582 0.87295 0.68405 0.0
C2004 C 0.38777 0.8942 0.66312 0.0
C2005 C 0.39359 0.88626 0.70493 0.0
C2006 C 0.37518 0.87093 0.73522 0.0
C2007 C 0.35169 0.86441 0.72436 0.0
C2008 C 0.40671 0.91038 0.62945 0.0
C2009 C 0.38034 0.86196 0.78008 0.0
C2010 C 0.45514 0.8928 0.71546 0.0
C2011 C 0.46773 0.91435 0.73911 0.0
C2012 C 0.43092 0.88312 0.70493 0.0
C2013 C 0.41894 0.89522 0.71858 0.0
C2014 C 0.43143 0.9164 0.74461 0.0
C2015 C 0.45562 0.92579 0.75395 0.0
C2016 C 0.4185 0.86064 0.67686 0.0
C2017 C 0.41952 0.92978 0.76082 0.0
H2018 H 0.35993 0.89431 0.62212 0.0
H2019 H 0.33788 0.8527 0.748 0.0
H2020 H 0.41819 0.92754 0.64686 0.0
H2021 H 0.41801 0.90289 0.61967 0.0
H2022 H 0.3993 0.91354 0.59682 0.0
H2023 H 0.36404 0.84916 0.79866 0.0
H2024 H 0.39091 0.85342 0.77236 0.0
H2025 H 0.39095 0.87692 0.80415 0.0
H2026 H 0.46458 0.8843 0.70245 0.0
H2027 H 0.46541 0.94275 0.7712 0.0
H2028 H 0.41388 0.86439 0.64153 0.0
H2029 H 0.40181 0.8479 0.69425 0.0
H2030 H 0.42956 0.85233 0.6723 0.0
H2031 H 0.41411 0.93626 0.72979 0.0
H2032 H 0.43118 0.94506 0.78341 0.0
H2033 H 0.40333 0.91803 0.78085 0.0
loop_
_geom_bond_atom_site_label_1
_geom_bond_atom_site_label_2
_geom_bond_distance
_geom_bond_site_symmetry_2
_ccdc_geom_bond_type
C0 C1 1.351 . S
C0 N3 1.368 . S
C0 H5 0.931 . S
C1 C0 1.351 . S
C1 N2 1.373 . S
C1 H29 0.930 1_554 S
N2 C1 1.373 . S
N2 C4 1.340 . S
N3 C0 1.368 . S
N3 C4 1.321 . S
N3 Co6 2.135 . S
C4 N2 1.340 . S
C4 N3 1.321 . S
C4 H28 0.930 . S
H5 C0 0.931 . S
Co6 N3 2.135 . S
Co6 N9 2.121 . S
Co6 O14 2.055 . S
Co6 O17 2.039 . S
Co6 N20 2.140 . S
C7 O8 1.227 . S
C7 O17 1.265 . S
O8 C7 1.227 . S
N9 Co6 2.121 . S
N9 C11 1.375 . S
N9 C12 1.313 . S
C10 C11 1.338 . S
C10 N13 1.377 . S
C10 H30 0.930 . S
C11 N9 1.375 . S
C11 C10 1.338 . S
C11 H15 0.931 . S
C12 N9 1.313 . S
C12 N13 1.344 . S
C12 H16 0.930 . S
N13 C10 1.377 . S
N13 C12 1.344 . S
O14 Co6 2.055 . S
O14 C18 1.253 . S
H15 C11 0.931 . S
H16 C12 0.930 . S
O17 Co6 2.039 . S
O17 C7 1.265 . S
C18 O14 1.253 . S
C18 O19 1.227 . S
O19 C18 1.227 . S
N20 Co6 2.140 . S
N20 C23 1.346 . S
N20 C24 1.345 . S
C21 C22 1.387 . S
C21 C25 1.391 . S
C22 C21 1.387 . S
C22 C23 1.369 . S
C22 H31 0.929 . S
C23 N20 1.346 . S
C23 C22 1.369 . S
C23 H26 0.928 . S
C24 N20 1.345 . S
C24 C25 1.371 . S
C24 H27 0.931 . S
C25 C21 1.391 . S
C25 C24 1.371 . S
C25 H32 0.930 . S
H26 C23 0.928 . S
H27 C24 0.931 . S
H28 C4 0.930 . S
H29 C1 0.930 1_556 S
H30 C10 0.930 . S
H31 C22 0.929 . S
H32 C25 0.930 . S
C33 C34 1.351 . S
C33 N36 1.368 . S
C33 H38 0.931 . S
C34 C33 1.351 . S
C34 N35 1.373 1_565 S
C34 H62 0.930 1_554 S
N35 C34 1.373 1_545 S
N35 C37 1.340 1_545 S
N36 C33 1.368 . S
N36 C37 1.321 . S
N36 Co39 2.135 . S
C37 N35 1.340 1_565 S
C37 N36 1.321 . S
C37 H61 0.930 1_565 S
H38 C33 0.931 . S
Co39 N36 2.135 . S
Co39 N42 2.121 . S
Co39 O47 2.055 . S
Co39 O50 2.039 . S
Co39 N53 2.140 . S
C40 O41 1.227 . S
C40 O50 1.265 . S
O41 C40 1.227 . S
N42 Co39 2.121 . S
N42 C44 1.375 . S
N42 C45 1.313 . S
C43 C44 1.338 . S
C43 N46 1.377 . S
C43 H63 0.930 . S
C44 N42 1.375 . S
C44 C43 1.338 . S
C44 H48 0.931 . S
C45 N42 1.313 . S
C45 N46 1.344 . S
C45 H49 0.930 . S
N46 C43 1.377 . S
N46 C45 1.344 . S
O47 Co39 2.055 . S
O47 C51 1.253 . S
H48 C44 0.931 . S
H49 C45 0.930 . S
O50 Co39 2.039 . S
O50 C40 1.265 . S
C51 O47 1.253 . S
C51 O52 1.227 . S
O52 C51 1.227 . S
N53 Co39 2.140 . S
N53 C56 1.346 . S
N53 C57 1.345 . S
C54 C55 1.387 . S
C54 C58 1.391 . S
C55 C54 1.387 . S
C55 C56 1.369 . S
C55 H64 0.929 . S
C56 N53 1.346 . S
C56 C55 1.369 . S
C56 H59 0.928 . S
C57 N53 1.345 . S
C57 C58 1.371 . S
C57 H60 0.931 . S
C58 C54 1.391 . S
C58 C57 1.371 . S
C58 H65 0.930 . S
H59 C56 0.928 . S
H60 C57 0.931 . S
H61 C37 0.930 1_545 S
H62 C34 0.930 1_556 S
H63 C43 0.930 . S
H64 C55 0.929 . S
H65 C58 0.930 . S
C66 C67 1.351 . S
C66 N69 1.368 . S
C66 H71 0.931 . S
C67 C66 1.351 . S
C67 N68 1.373 1_455 S
C67 H95 0.930 1_554 S
N68 C67 1.373 1_655 S
N68 C70 1.340 1_655 S
N69 C66 1.368 . S
N69 C70 1.321 . S
N69 Co72 2.135 . S
C70 N68 1.340 1_455 S
C70 N69 1.321 . S
C70 H94 0.930 1_455 S
H71 C66 0.931 . S
Co72 N69 2.135 . S
Co72 N75 2.121 . S
Co72 O80 2.055 . S
Co72 O83 2.039 . S
Co72 N86 2.140 . S
C73 O74 1.227 . S
C73 O83 1.265 . S
O74 C73 1.227 . S
N75 Co72 2.121 . S
N75 C77 1.375 . S
N75 C78 1.313 . S
C76 C77 1.338 . S
C76 N79 1.377 . S
C76 H96 0.930 . S
C77 N75 1.375 . S
C77 C76 1.338 . S
C77 H81 0.931 . S
C78 N75 1.313 . S
C78 N79 1.344 . S
C78 H82 0.930 . S
N79 C76 1.377 . S
N79 C78 1.344 . S
O80 Co72 2.055 . S
O80 C84 1.253 . S
H81 C77 0.931 . S
H82 C78 0.930 . S
O83 Co72 2.039 . S
O83 C73 1.265 . S
C84 O80 1.253 . S
C84 O85 1.227 . S
O85 C84 1.227 . S
N86 Co72 2.140 . S
N86 C89 1.346 . S
N86 C90 1.345 . S
C87 C88 1.387 . S
C87 C91 1.391 . S
C88 C87 1.387 . S
C88 C89 1.369 . S
C88 H97 0.929 . S
C89 N86 1.346 . S
C89 C88 1.369 . S
C89 H92 0.928 . S
C90 N86 1.345 . S
C90 C91 1.371 . S
C90 H93 0.931 . S
C91 C87 1.391 . S
C91 C90 1.371 . S
C91 H98 0.930 . S
H92 C89 0.928 . S
H93 C90 0.931 . S
H94 C70 0.930 1_655 S
H95 C67 0.930 1_556 S
H96 C76 0.930 . S
H97 C88 0.929 . S
H98 C91 0.930 . S
C99 C100 1.351 . S
C99 N102 1.368 . S
C99 H104 0.931 . S
C100 C99 1.351 . S
C100 N101 1.373 . S
C100 H128 0.930 1_556 S
N101 C100 1.373 . S
N101 C103 1.340 . S
N102 C99 1.368 . S
N102 C103 1.321 . S
N102 Co105 2.135 . S
C103 N101 1.340 . S
C103 N102 1.321 . S
C103 H127 0.930 . S
H104 C99 0.931 . S
Co105 N102 2.135 . S
Co105 N108 2.121 . S
Co105 O113 2.055 . S
Co105 O116 2.039 . S
Co105 N119 2.140 . S
C106 O107 1.227 . S
C106 O116 1.265 . S
O107 C106 1.227 . S
N108 Co105 2.121 . S
N108 C110 1.375 . S
N108 C111 1.313 . S
C109 C110 1.338 . S
C109 N112 1.377 . S
C109 H129 0.930 . S
C110 N108 1.375 . S
C110 C109 1.338 . S
C110 H114 0.931 . S
C111 N108 1.313 . S
C111 N112 1.344 . S
C111 H115 0.930 . S
N112 C109 1.377 . S
N112 C111 1.344 . S
O113 Co105 2.055 . S
O113 C117 1.253 . S
H114 C110 0.931 . S
H115 C111 0.930 . S
O116 Co105 2.039 . S
O116 C106 1.265 . S
C117 O113 1.253 . S
C117 O118 1.227 . S
O118 C117 1.227 . S
N119 Co105 2.140 . S
N119 C122 1.346 . S
N119 C123 1.345 . S
C120 C121 1.387 . S
C120 C124 1.391 . S
C121 C120 1.387 . S
C121 C122 1.369 . S
C121 H130 0.929 . S
C122 N119 1.346 . S
C122 C121 1.369 . S
C122 H125 0.928 . S
C123 N119 1.345 . S
C123 C124 1.371 . S
C123 H126 0.931 . S
C124 C120 1.391 . S
C124 C123 1.371 . S
C124 H131 0.930 . S
H125 C122 0.928 . S
H126 C123 0.931 . S
H127 C103 0.930 . S
H128 C100 0.930 1_554 S
H129 C109 0.930 . S
H130 C121 0.929 . S
H131 C124 0.930 . S
C132 C133 1.351 . S
C132 N135 1.368 . S
C132 H137 0.931 . S
C133 C132 1.351 . S
C133 N134 1.373 1_545 S
C133 H161 0.930 1_556 S
N134 C133 1.373 1_565 S
N134 C136 1.340 1_565 S
N135 C132 1.368 . S
N135 C136 1.321 . S
N135 Co138 2.135 . S
C136 N134 1.340 1_545 S
C136 N135 1.321 . S
C136 H160 0.930 1_545 S
H137 C132 0.931 . S
Co138 N135 2.135 . S
Co138 N141 2.121 . S
Co138 O146 2.055 . S
Co138 O149 2.039 . S
Co138 N152 2.140 . S
C139 O140 1.227 . S
C139 O149 1.265 . S
O140 C139 1.227 . S
N141 Co138 2.121 . S
N141 C143 1.375 . S
N141 C144 1.313 . S
C142 C143 1.338 . S
C142 N145 1.377 . S
C142 H162 0.930 . S
C143 N141 1.375 . S
C143 C142 1.338 . S
C143 H147 0.931 . S
C144 N141 1.313 . S
C144 N145 1.344 . S
C144 H148 0.930 . S
N145 C142 1.377 . S
N145 C144 1.344 . S
O146 Co138 2.055 . S
O146 C150 1.253 . S
H147 C143 0.931 . S
H148 C144 0.930 . S
O149 Co138 2.039 . S
O149 C139 1.265 . S
C150 O146 1.253 . S
C150 O151 1.227 . S
O151 C150 1.227 . S
N152 Co138 2.140 . S
N152 C155 1.346 . S
N152 C156 1.345 . S
C153 C154 1.387 . S
C153 C157 1.391 . S
C154 C153 1.387 . S
C154 C155 1.369 . S
C154 H163 0.929 . S
C155 N152 1.346 . S
C155 C154 1.369 . S
C155 H158 0.928 . S
C156 N152 1.345 . S
C156 C157 1.371 . S
C156 H159 0.931 . S
C157 C153 1.391 . S
C157 C156 1.371 . S
C157 H164 0.930 . S
H158 C155 0.928 . S
H159 C156 0.931 . S
H160 C136 0.930 1_565 S
H161 C133 0.930 1_554 S
H162 C142 0.930 . S
H163 C154 0.929 . S
H164 C157 0.930 . S
C165 C166 1.351 . S
C165 N168 1.368 . S
C165 H170 0.931 . S
C166 C165 1.351 . S
C166 N167 1.373 1_655 S
C166 H194 0.930 1_556 S
N167 C166 1.373 1_455 S
N167 C169 1.340 1_455 S
N168 C165 1.368 . S
N168 C169 1.321 . S
N168 Co171 2.135 . S
C169 N167 1.340 1_655 S
C169 N168 1.321 . S
C169 H193 0.930 1_655 S
H170 C165 0.931 . S
Co171 N168 2.135 . S
Co171 N174 2.121 . S
Co171 O179 2.055 . S
Co171 O182 2.039 . S
Co171 N185 2.140 . S
C172 O173 1.227 . S
C172 O182 1.265 . S
O173 C172 1.227 . S
N174 Co171 2.121 . S
N174 C176 1.375 . S
N174 C177 1.313 . S
C175 C176 1.338 . S
C175 N178 1.377 . S
C175 H195 0.930 . S
C176 N174 1.375 . S
C176 C175 1.338 . S
C176 H180 0.931 . S
C177 N174 1.313 . S
C177 N178 1.344 . S
C177 H181 0.930 . S
N178 C175 1.377 . S
N178 C177 1.344 . S
O179 Co171 2.055 . S
O179 C183 1.253 . S
H180 C176 0.931 . S
H181 C177 0.930 . S
O182 Co171 2.039 . S
O182 C172 1.265 . S
C183 O179 1.253 . S
C183 O184 1.227 . S
O184 C183 1.227 . S
N185 Co171 2.140 . S
N185 C188 1.346 . S
N185 C189 1.345 . S
C186 C187 1.387 . S
C186 C190 1.391 . S
C187 C186 1.387 . S
C187 C188 1.369 . S
C187 H196 0.929 . S
C188 N185 1.346 . S
C188 C187 1.369 . S
C188 H191 0.928 . S
C189 N185 1.345 . S
C189 C190 1.371 . S
C189 H192 0.931 . S
C190 C186 1.391 . S
C190 C189 1.371 . S
C190 H197 0.930 . S
H191 C188 0.928 . S
H192 C189 0.931 . S
H193 C169 0.930 1_455 S
H194 C166 0.930 1_554 S
H195 C175 0.930 . S
H196 C187 0.929 . S
H197 C190 0.930 . S
C198 C199 1.351 . S
C198 N201 1.368 . S
C198 H203 0.931 . S
C199 C198 1.351 . S
C199 N200 1.373 . S
C199 H227 0.930 . S
N200 C199 1.373 . S
N200 C202 1.340 . S
N201 C198 1.368 . S
N201 C202 1.321 . S
N201 Co204 2.135 . S
C202 N200 1.340 . S
C202 N201 1.321 . S
C202 H226 0.930 . S
H203 C198 0.931 . S
Co204 N201 2.135 . S
Co204 N207 2.121 . S
Co204 O212 2.055 . S
Co204 O215 2.039 . S
Co204 N218 2.140 . S
C205 O206 1.227 . S
C205 O215 1.265 . S
O206 C205 1.227 . S
N207 Co204 2.121 . S
N207 C209 1.375 . S
N207 C210 1.313 . S
C208 C209 1.338 . S
C208 N211 1.377 . S
C208 H228 0.930 . S
C209 N207 1.375 . S
C209 C208 1.338 . S
C209 H213 0.931 . S
C210 N207 1.313 . S
C210 N211 1.344 . S
C210 H214 0.930 . S
N211 C208 1.377 . S
N211 C210 1.344 . S
O212 Co204 2.055 . S
O212 C216 1.253 . S
H213 C209 0.931 . S
H214 C210 0.930 . S
O215 Co204 2.039 . S
O215 C205 1.265 . S
C216 O212 1.253 . S
C216 O217 1.227 . S
O217 C216 1.227 . S
N218 Co204 2.140 . S
N218 C221 1.346 . S
N218 C222 1.345 . S
C219 C220 1.387 . S
C219 C223 1.391 . S
C220 C219 1.387 . S
C220 C221 1.369 . S
C220 H229 0.929 . S
C221 N218 1.346 . S
C221 C220 1.369 . S
C221 H224 0.928 . S
C222 N218 1.345 . S
C222 C223 1.371 . S
C222 H225 0.931 . S
C223 C219 1.391 . S
C223 C222 1.371 . S
C223 H230 0.930 . S
H224 C221 0.928 . S
H225 C222 0.931 . S
H226 C202 0.930 . S
H227 C199 0.930 . S
H228 C208 0.930 . S
H229 C220 0.929 . S
H230 C223 0.930 . S
C231 C232 1.351 . S
C231 N234 1.368 . S
C231 H236 0.931 . S
C232 C231 1.351 . S
C232 N233 1.373 . S
C232 H260 0.930 . S
N233 C232 1.373 . S
N233 C235 1.340 . S
N234 C231 1.368 . S
N234 C235 1.321 . S
N234 Co237 2.135 . S
C235 N233 1.340 . S
C235 N234 1.321 . S
C235 H259 0.930 . S
H236 C231 0.931 . S
Co237 N234 2.135 . S
Co237 N240 2.121 . S
Co237 O245 2.055 . S
Co237 O248 2.039 . S
Co237 N251 2.140 . S
C238 O239 1.227 . S
C238 O248 1.265 . S
O239 C238 1.227 . S
N240 Co237 2.121 . S
N240 C242 1.375 . S
N240 C243 1.313 . S
C241 C242 1.338 . S
C241 N244 1.377 . S
C241 H261 0.930 . S
C242 N240 1.375 . S
C242 C241 1.338 . S
C242 H246 0.931 . S
C243 N240 1.313 . S
C243 N244 1.344 . S
C243 H247 0.930 . S
N244 C241 1.377 . S
N244 C243 1.344 . S
O245 Co237 2.055 . S
O245 C249 1.253 . S
H246 C242 0.931 . S
H247 C243 0.930 . S
O248 Co237 2.039 . S
O248 C238 1.265 . S
C249 O245 1.253 . S
C249 O250 1.227 . S
O250 C249 1.227 . S
N251 Co237 2.140 . S
N251 C254 1.346 . S
N251 C255 1.345 . S
C252 C253 1.387 . S
C252 C256 1.391 . S
C253 C252 1.387 . S
C253 C254 1.369 . S
C253 H262 0.929 . S
C254 N251 1.346 . S
C254 C253 1.369 . S
C254 H257 0.928 . S
C255 N251 1.345 . S
C255 C256 1.371 . S
C255 H258 0.931 . S
C256 C252 1.391 . S
C256 C255 1.371 . S
C256 H263 0.930 . S
H257 C254 0.928 . S
H258 C255 0.931 . S
H259 C235 0.930 . S
H260 C232 0.930 . S
H261 C241 0.930 . S
H262 C253 0.929 . S
H263 C256 0.930 . S
C264 C265 1.351 . S
C264 N267 1.368 . S
C264 H269 0.931 . S
C265 C264 1.351 . S
C265 N266 1.373 . S
C265 H293 0.930 . S
N266 C265 1.373 . S
N266 C268 1.340 . S
N267 C264 1.368 . S
N267 C268 1.321 . S
N267 Co270 2.135 . S
C268 N266 1.340 . S
C268 N267 1.321 . S
C268 H292 0.930 . S
H269 C264 0.931 . S
Co270 N267 2.135 . S
Co270 N273 2.121 . S
Co270 O278 2.055 . S
Co270 O281 2.039 . S
Co270 N284 2.140 . S
C271 O272 1.227 . S
C271 O281 1.265 . S
O272 C271 1.227 . S
N273 Co270 2.121 . S
N273 C275 1.375 . S
N273 C276 1.313 . S
C274 C275 1.338 . S
C274 N277 1.377 . S
C274 H294 0.930 . S
C275 N273 1.375 . S
C275 C274 1.338 . S
C275 H279 0.931 . S
C276 N273 1.313 . S
C276 N277 1.344 . S
C276 H280 0.930 . S
N277 C274 1.377 . S
N277 C276 1.344 . S
O278 Co270 2.055 . S
O278 C282 1.253 . S
H279 C275 0.931 . S
H280 C276 0.930 . S
O281 Co270 2.039 . S
O281 C271 1.265 . S
C282 O278 1.253 . S
C282 O283 1.227 . S
O283 C282 1.227 . S
N284 Co270 2.140 . S
N284 C287 1.346 . S
N284 C288 1.345 . S
C285 C286 1.387 . S
C285 C289 1.391 . S
C286 C285 1.387 . S
C286 C287 1.369 . S
C286 H295 0.929 . S
C287 N284 1.346 . S
C287 C286 1.369 . S
C287 H290 0.928 . S
C288 N284 1.345 . S
C288 C289 1.371 . S
C288 H291 0.931 . S
C289 C285 1.391 . S
C289 C288 1.371 . S
C289 H296 0.930 . S
H290 C287 0.928 . S
H291 C288 0.931 . S
H292 C268 0.930 . S
H293 C265 0.930 . S
H294 C274 0.930 . S
H295 C286 0.929 . S
H296 C289 0.930 . S
C297 C298 1.351 . S
C297 N300 1.368 . S
C297 H302 0.931 . S
C298 C297 1.351 . S
C298 N299 1.373 . S
C298 H326 0.930 . S
N299 C298 1.373 . S
N299 C301 1.340 . S
N300 C297 1.368 . S
N300 C301 1.321 . S
N300 Co303 2.135 . S
C301 N299 1.340 . S
C301 N300 1.321 . S
C301 H325 0.930 . S
H302 C297 0.931 . S
Co303 N300 2.135 . S
Co303 N306 2.121 . S
Co303 O311 2.055 . S
Co303 O314 2.039 . S
Co303 N317 2.140 . S
C304 O305 1.227 . S
C304 O314 1.265 . S
O305 C304 1.227 . S
N306 Co303 2.121 . S
N306 C308 1.375 . S
N306 C309 1.313 . S
C307 C308 1.338 . S
C307 N310 1.377 . S
C307 H327 0.930 . S
C308 N306 1.375 . S
C308 C307 1.338 . S
C308 H312 0.931 . S
C309 N306 1.313 . S
C309 N310 1.344 . S
C309 H313 0.930 . S
N310 C307 1.377 . S
N310 C309 1.344 . S
O311 Co303 2.055 . S
O311 C315 1.253 . S
H312 C308 0.931 . S
H313 C309 0.930 . S
O314 Co303 2.039 . S
O314 C304 1.265 . S
C315 O311 1.253 . S
C315 O316 1.227 . S
O316 C315 1.227 . S
N317 Co303 2.140 . S
N317 C320 1.346 . S
N317 C321 1.345 . S
C318 C319 1.387 . S
C318 C322 1.391 . S
C319 C318 1.387 . S
C319 C320 1.369 . S
C319 H328 0.929 . S
C320 N317 1.346 . S
C320 C319 1.369 . S
C320 H323 0.928 . S
C321 N317 1.345 . S
C321 C322 1.371 . S
C321 H324 0.931 . S
C322 C318 1.391 . S
C322 C321 1.371 . S
C322 H329 0.930 . S
H323 C320 0.928 . S
H324 C321 0.931 . S
H325 C301 0.930 . S
H326 C298 0.930 . S
H327 C307 0.930 . S
H328 C319 0.929 . S
H329 C322 0.930 . S
C330 C331 1.351 . S
C330 N333 1.368 . S
C330 H335 0.931 . S
C331 C330 1.351 . S
C331 N332 1.373 . S
C331 H359 0.930 . S
N332 C331 1.373 . S
N332 C334 1.340 . S
N333 C330 1.368 . S
N333 C334 1.321 . S
N333 Co336 2.135 . S
C334 N332 1.340 . S
C334 N333 1.321 . S
C334 H358 0.930 . S
H335 C330 0.931 . S
Co336 N333 2.135 . S
Co336 N339 2.121 . S
Co336 O344 2.055 . S
Co336 O347 2.039 . S
Co336 N350 2.140 . S
C337 O338 1.227 . S
C337 O347 1.265 . S
O338 C337 1.227 . S
N339 Co336 2.121 . S
N339 C341 1.375 . S
N339 C342 1.313 . S
C340 C341 1.338 . S
C340 N343 1.377 . S
C340 H360 0.930 . S
C341 N339 1.375 . S
C341 C340 1.338 . S
C341 H345 0.931 . S
C342 N339 1.313 . S
C342 N343 1.344 . S
C342 H346 0.930 . S
N343 C340 1.377 . S
N343 C342 1.344 . S
O344 Co336 2.055 . S
O344 C348 1.253 . S
H345 C341 0.931 . S
H346 C342 0.930 . S
O347 Co336 2.039 . S
O347 C337 1.265 . S
C348 O344 1.253 . S
C348 O349 1.227 . S
O349 C348 1.227 . S
N350 Co336 2.140 . S
N350 C353 1.346 . S
N350 C354 1.345 . S
C351 C352 1.387 . S
C351 C355 1.391 . S
C352 C351 1.387 . S
C352 C353 1.369 . S
C352 H361 0.929 . S
C353 N350 1.346 . S
C353 C352 1.369 . S
C353 H356 0.928 . S
C354 N350 1.345 . S
C354 C355 1.371 . S
C354 H357 0.931 . S
C355 C351 1.391 . S
C355 C354 1.371 . S
C355 H362 0.930 . S
H356 C353 0.928 . S
H357 C354 0.931 . S
H358 C334 0.930 . S
H359 C331 0.930 . S
H360 C340 0.930 . S
H361 C352 0.929 . S
H362 C355 0.930 . S
C363 C364 1.351 . S
C363 N366 1.368 . S
C363 H368 0.931 . S
C364 C363 1.351 . S
C364 N365 1.373 . S
C364 H392 0.930 . S
N365 C364 1.373 . S
N365 C367 1.340 . S
N366 C363 1.368 . S
N366 C367 1.321 . S
N366 Co369 2.135 . S
C367 N365 1.340 . S
C367 N366 1.321 . S
C367 H391 0.930 . S
H368 C363 0.931 . S
Co369 N366 2.135 . S
Co369 N372 2.121 . S
Co369 O377 2.055 . S
Co369 O380 2.039 . S
Co369 N383 2.140 . S
C370 O371 1.227 . S
C370 O380 1.265 . S
O371 C370 1.227 . S
N372 Co369 2.121 . S
N372 C374 1.375 . S
N372 C375 1.313 . S
C373 C374 1.338 . S
C373 N376 1.377 . S
C373 H393 0.930 . S
C374 N372 1.375 . S
C374 C373 1.338 . S
C374 H378 0.931 . S
C375 N372 1.313 . S
C375 N376 1.344 . S
C375 H379 0.930 . S
N376 C373 1.377 . S
N376 C375 1.344 . S
O377 Co369 2.055 . S
O377 C381 1.253 . S
H378 C374 0.931 . S
H379 C375 0.930 . S
O380 Co369 2.039 . S
O380 C370 1.265 . S
C381 O377 1.253 . S
C381 O382 1.227 . S
O382 C381 1.227 . S
N383 Co369 2.140 . S
N383 C386 1.346 . S
N383 C387 1.345 . S
C384 C385 1.387 . S
C384 C388 1.391 . S
C385 C384 1.387 . S
C385 C386 1.369 . S
C385 H394 0.929 . S
C386 N383 1.346 . S
C386 C385 1.369 . S
C386 H389 0.928 . S
C387 N383 1.345 . S
C387 C388 1.371 . S
C387 H390 0.931 . S
C388 C384 1.391 . S
C388 C387 1.371 . S
C388 H395 0.930 . S
H389 C386 0.928 . S
H390 C387 0.931 . S
H391 C367 0.930 . S
H392 C364 0.930 . S
H393 C373 0.930 . S
H394 C385 0.929 . S
H395 C388 0.930 . S
C396 C397 1.351 . S
C396 N399 1.368 . S
C396 H401 0.931 . S
C397 C396 1.351 . S
C397 N398 1.373 . S
C397 H425 0.930 . S
N398 C397 1.373 . S
N398 C400 1.340 . S
N399 C396 1.368 . S
N399 C400 1.321 . S
N399 Co402 2.135 . S
C400 N398 1.340 . S
C400 N399 1.321 . S
C400 H424 0.930 . S
H401 C396 0.931 . S
Co402 N399 2.135 . S
Co402 N405 2.121 . S
Co402 O410 2.055 . S
Co402 O413 2.039 . S
Co402 N416 2.140 . S
C403 O404 1.227 . S
C403 O413 1.265 . S
O404 C403 1.227 . S
N405 Co402 2.121 . S
N405 C407 1.375 . S
N405 C408 1.313 . S
C406 C407 1.338 . S
C406 N409 1.377 . S
C406 H426 0.930 . S
C407 N405 1.375 . S
C407 C406 1.338 . S
C407 H411 0.931 . S
C408 N405 1.313 . S
C408 N409 1.344 . S
C408 H412 0.930 . S
N409 C406 1.377 . S
N409 C408 1.344 . S
O410 Co402 2.055 . S
O410 C414 1.253 . S
H411 C407 0.931 . S
H412 C408 0.930 . S
O413 Co402 2.039 . S
O413 C403 1.265 . S
C414 O410 1.253 . S
C414 O415 1.227 . S
O415 C414 1.227 . S
N416 Co402 2.140 . S
N416 C419 1.346 . S
N416 C420 1.345 . S
C417 C418 1.387 . S
C417 C421 1.391 . S
C418 C417 1.387 . S
C418 C419 1.369 . S
C418 H427 0.929 . S
C419 N416 1.346 . S
C419 C418 1.369 . S
C419 H422 0.928 . S
C420 N416 1.345 . S
C420 C421 1.371 . S
C420 H423 0.931 . S
C421 C417 1.391 . S
C421 C420 1.371 . S
C421 H428 0.930 . S
H422 C419 0.928 . S
H423 C420 0.931 . S
H424 C400 0.930 . S
H425 C397 0.930 . S
H426 C406 0.930 . S
H427 C418 0.929 . S
H428 C421 0.930 . S
C429 C430 1.351 . S
C429 N432 1.368 . S
C429 H434 0.931 . S
C430 C429 1.351 . S
C430 N431 1.373 . S
C430 H458 0.930 . S
N431 C430 1.373 . S
N431 C433 1.340 . S
N432 C429 1.368 . S
N432 C433 1.321 . S
N432 Co435 2.135 . S
C433 N431 1.340 . S
C433 N432 1.321 . S
C433 H457 0.930 . S
H434 C429 0.931 . S
Co435 N432 2.135 . S
Co435 N438 2.121 . S
Co435 O443 2.055 . S
Co435 O446 2.039 . S
Co435 N449 2.140 . S
C436 O437 1.227 . S
C436 O446 1.265 . S
O437 C436 1.227 . S
N438 Co435 2.121 . S
N438 C440 1.375 . S
N438 C441 1.313 . S
C439 C440 1.338 . S
C439 N442 1.377 . S
C439 H459 0.930 . S
C440 N438 1.375 . S
C440 C439 1.338 . S
C440 H444 0.931 . S
C441 N438 1.313 . S
C441 N442 1.344 . S
C441 H445 0.930 . S
N442 C439 1.377 . S
N442 C441 1.344 . S
O443 Co435 2.055 . S
O443 C447 1.253 . S
H444 C440 0.931 . S
H445 C441 0.930 . S
O446 Co435 2.039 . S
O446 C436 1.265 . S
C447 O443 1.253 . S
C447 O448 1.227 . S
O448 C447 1.227 . S
N449 Co435 2.140 . S
N449 C452 1.346 . S
N449 C453 1.345 . S
C450 C451 1.387 . S
C450 C454 1.391 . S
C451 C450 1.387 . S
C451 C452 1.369 . S
C451 H460 0.929 . S
C452 N449 1.346 . S
C452 C451 1.369 . S
C452 H455 0.928 . S
C453 N449 1.345 . S
C453 C454 1.371 . S
C453 H456 0.931 . S
C454 C450 1.391 . S
C454 C453 1.371 . S
C454 H461 0.930 . S
H455 C452 0.928 . S
H456 C453 0.931 . S
H457 C433 0.930 . S
H458 C430 0.930 . S
H459 C439 0.930 . S
H460 C451 0.929 . S
H461 C454 0.930 . S
C462 C463 1.351 . S
C462 N465 1.368 . S
C462 H467 0.931 . S
C463 C462 1.351 . S
C463 N464 1.373 . S
C463 H491 0.930 . S
N464 C463 1.373 . S
N464 C466 1.340 . S
N465 C462 1.368 . S
N465 C466 1.321 . S
N465 Co468 2.135 . S
C466 N464 1.340 . S
C466 N465 1.321 . S
C466 H490 0.930 . S
H467 C462 0.931 . S
Co468 N465 2.135 . S
Co468 N471 2.121 . S
Co468 O476 2.055 . S
Co468 O479 2.039 . S
Co468 N482 2.140 . S
C469 O470 1.227 . S
C469 O479 1.265 . S
O470 C469 1.227 . S
N471 Co468 2.121 . S
N471 C473 1.375 . S
N471 C474 1.313 . S
C472 C473 1.338 . S
C472 N475 1.377 . S
C472 H492 0.930 . S
C473 N471 1.375 . S
C473 C472 1.338 . S
C473 H477 0.931 . S
C474 N471 1.313 . S
C474 N475 1.344 . S
C474 H478 0.930 . S
N475 C472 1.377 . S
N475 C474 1.344 . S
O476 Co468 2.055 . S
O476 C480 1.253 . S
H477 C473 0.931 . S
H478 C474 0.930 . S
O479 Co468 2.039 . S
O479 C469 1.265 . S
C480 O476 1.253 . S
C480 O481 1.227 . S
O481 C480 1.227 . S
N482 Co468 2.140 . S
N482 C485 1.346 . S
N482 C486 1.345 . S
C483 C484 1.387 . S
C483 C487 1.391 . S
C484 C483 1.387 . S
C484 C485 1.369 . S
C484 H493 0.929 . S
C485 N482 1.346 . S
C485 C484 1.369 . S
C485 H488 0.928 . S
C486 N482 1.345 . S
C486 C487 1.371 . S
C486 H489 0.931 . S
C487 C483 1.391 . S
C487 C486 1.371 . S
C487 H494 0.930 . S
H488 C485 0.928 . S
H489 C486 0.931 . S
H490 C466 0.930 . S
H491 C463 0.930 . S
H492 C472 0.930 . S
H493 C484 0.929 . S
H494 C487 0.930 . S
C495 C496 1.351 . S
C495 N498 1.368 . S
C495 H500 0.931 . S
C496 C495 1.351 . S
C496 N497 1.373 . S
C496 H524 0.930 . S
N497 C496 1.373 . S
N497 C499 1.340 . S
N498 C495 1.368 . S
N498 C499 1.321 . S
N498 Co501 2.135 . S
C499 N497 1.340 . S
C499 N498 1.321 . S
C499 H523 0.930 . S
H500 C495 0.931 . S
Co501 N498 2.135 . S
Co501 N504 2.121 . S
Co501 O509 2.055 . S
Co501 O512 2.039 . S
Co501 N515 2.140 . S
C502 O503 1.227 . S
C502 O512 1.265 . S
O503 C502 1.227 . S
N504 Co501 2.121 . S
N504 C506 1.375 . S
N504 C507 1.313 . S
C505 C506 1.338 . S
C505 N508 1.377 . S
C505 H525 0.930 . S
C506 N504 1.375 . S
C506 C505 1.338 . S
C506 H510 0.931 . S
C507 N504 1.313 . S
C507 N508 1.344 . S
C507 H511 0.930 . S
N508 C505 1.377 . S
N508 C507 1.344 . S
O509 Co501 2.055 . S
O509 C513 1.253 . S
H510 C506 0.931 . S
H511 C507 0.930 . S
O512 Co501 2.039 . S
O512 C502 1.265 . S
C513 O509 1.253 . S
C513 O514 1.227 . S
O514 C513 1.227 . S
N515 Co501 2.140 . S
N515 C518 1.346 . S
N515 C519 1.345 . S
C516 C517 1.387 . S
C516 C520 1.391 . S
C517 C516 1.387 . S
C517 C518 1.369 . S
C517 H526 0.929 . S
C518 N515 1.346 . S
C518 C517 1.369 . S
C518 H521 0.928 . S
C519 N515 1.345 . S
C519 C520 1.371 . S
C519 H522 0.931 . S
C520 C516 1.391 . S
C520 C519 1.371 . S
C520 H527 0.930 . S
H521 C518 0.928 . S
H522 C519 0.931 . S
H523 C499 0.930 . S
H524 C496 0.930 . S
H525 C505 0.930 . S
H526 C517 0.929 . S
H527 C520 0.930 . S
C528 C529 1.351 . S
C528 N531 1.368 . S
C528 H533 0.931 . S
C529 C528 1.351 . S
C529 N530 1.373 . S
C529 H557 0.930 . S
N530 C529 1.373 . S
N530 C532 1.340 . S
N531 C528 1.368 . S
N531 C532 1.321 . S
N531 Co534 2.135 . S
C532 N530 1.340 . S
C532 N531 1.321 . S
C532 H556 0.930 . S
H533 C528 0.931 . S
Co534 N531 2.135 . S
Co534 N537 2.121 . S
Co534 O542 2.055 . S
Co534 O545 2.039 . S
Co534 N548 2.140 . S
C535 O536 1.227 . S
C535 O545 1.265 . S
O536 C535 1.227 . S
N537 Co534 2.121 . S
N537 C539 1.375 . S
N537 C540 1.313 . S
C538 C539 1.338 . S
C538 N541 1.377 . S
C538 H558 0.930 . S
C539 N537 1.375 . S
C539 C538 1.338 . S
C539 H543 0.931 . S
C540 N537 1.313 . S
C540 N541 1.344 . S
C540 H544 0.930 . S
N541 C538 1.377 . S
N541 C540 1.344 . S
O542 Co534 2.055 . S
O542 C546 1.253 . S
H543 C539 0.931 . S
H544 C540 0.930 . S
O545 Co534 2.039 . S
O545 C535 1.265 . S
C546 O542 1.253 . S
C546 O547 1.227 . S
O547 C546 1.227 . S
N548 Co534 2.140 . S
N548 C551 1.346 . S
N548 C552 1.345 . S
C549 C550 1.387 . S
C549 C553 1.391 . S
C550 C549 1.387 . S
C550 C551 1.369 . S
C550 H559 0.929 . S
C551 N548 1.346 . S
C551 C550 1.369 . S
C551 H554 0.928 . S
C552 N548 1.345 . S
C552 C553 1.371 . S
C552 H555 0.931 . S
C553 C549 1.391 . S
C553 C552 1.371 . S
C553 H560 0.930 . S
H554 C551 0.928 . S
H555 C552 0.931 . S
H556 C532 0.930 . S
H557 C529 0.930 . S
H558 C538 0.930 . S
H559 C550 0.929 . S
H560 C553 0.930 . S
C561 C562 1.351 . S
C561 N564 1.368 . S
C561 H566 0.931 . S
C562 C561 1.351 . S
C562 N563 1.373 . S
C562 H590 0.930 . S
N563 C562 1.373 . S
N563 C565 1.340 . S
N564 C561 1.368 . S
N564 C565 1.321 . S
N564 Co567 2.135 . S
C565 N563 1.340 . S
C565 N564 1.321 . S
C565 H589 0.930 . S
H566 C561 0.931 . S
Co567 N564 2.135 . S
Co567 N570 2.121 . S
Co567 O575 2.055 . S
Co567 O578 2.039 . S
Co567 N581 2.140 . S
C568 O569 1.227 . S
C568 O578 1.265 . S
O569 C568 1.227 . S
N570 Co567 2.121 . S
N570 C572 1.375 . S
N570 C573 1.313 . S
C571 C572 1.338 . S
C571 N574 1.377 . S
C571 H591 0.930 . S
C572 N570 1.375 . S
C572 C571 1.338 . S
C572 H576 0.931 . S
C573 N570 1.313 . S
C573 N574 1.344 . S
C573 H577 0.930 . S
N574 C571 1.377 . S
N574 C573 1.344 . S
O575 Co567 2.055 . S
O575 C579 1.253 . S
H576 C572 0.931 . S
H577 C573 0.930 . S
O578 Co567 2.039 . S
O578 C568 1.265 . S
C579 O575 1.253 . S
C579 O580 1.227 . S
O580 C579 1.227 . S
N581 Co567 2.140 . S
N581 C584 1.346 . S
N581 C585 1.345 . S
C582 C583 1.387 . S
C582 C586 1.391 . S
C583 C582 1.387 . S
C583 C584 1.369 . S
C583 H592 0.929 . S
C584 N581 1.346 . S
C584 C583 1.369 . S
C584 H587 0.928 . S
C585 N581 1.345 . S
C585 C586 1.371 . S
C585 H588 0.931 . S
C586 C582 1.391 . S
C586 C585 1.371 . S
C586 H593 0.930 . S
H587 C584 0.928 . S
H588 C585 0.931 . S
H589 C565 0.930 . S
H590 C562 0.930 . S
H591 C571 0.930 . S
H592 C583 0.929 . S
H593 C586 0.930 . S
C594 C595 1.391 . S
C594 C596 1.394 . S
C594 H610 0.931 . S
C595 C594 1.391 . S
C595 C599 1.376 . S
C596 C594 1.394 . S
C596 C597 1.369 . S
C596 C600 1.531 . S
C597 C596 1.369 . S
C597 C598 1.410 . S
C597 C605 1.503 . S
C598 C597 1.410 . S
C598 C599 1.392 . S
C598 C601 1.511 . S
C599 C595 1.376 . S
C599 C598 1.392 . S
C599 H611 0.929 . S
C600 C596 1.531 . S
C600 H612 0.960 . S
C600 H613 0.962 . S
C600 H614 0.960 . S
C601 C598 1.511 . S
C601 H615 0.961 . S
C601 H616 0.961 . S
C601 H617 0.961 . S
C602 C603 1.370 . S
C602 C604 1.363 . S
C602 H618 0.931 . S
C603 C602 1.370 . S
C603 C607 1.408 . S
C604 C602 1.363 . S
C604 C605 1.370 . S
C604 C608 1.524 . S
C605 C597 1.503 . S
C605 C604 1.370 . S
C605 C606 1.403 . S
C606 C605 1.403 . S
C606 C607 1.404 . S
C606 C609 1.539 . S
C607 C603 1.408 . S
C607 C606 1.404 . S
C607 H619 0.930 . S
C608 C604 1.524 . S
C608 H620 0.956 . S
C608 H621 0.961 . S
C608 H622 0.961 . S
C609 C606 1.539 . S
C609 H623 0.958 . S
C609 H624 0.961 . S
C609 H625 0.960 . S
H610 C594 0.931 . S
H611 C599 0.929 . S
H612 C600 0.960 . S
H613 C600 0.962 . S
H614 C600 0.960 . S
H615 C601 0.961 . S
H616 C601 0.961 . S
H617 C601 0.961 . S
H618 C602 0.931 . S
H619 C607 0.930 . S
H620 C608 0.956 . S
H621 C608 0.961 . S
H622 C608 0.961 . S
H623 C609 0.958 . S
H624 C609 0.961 . S
H625 C609 0.960 . S
C626 C627 1.391 1_545 S
C626 C628 1.394 . S
C626 H642 0.931 1_545 S
C627 C626 1.391 1_565 S
C627 C631 1.376 1_565 S
C628 C626 1.394 . S
C628 C629 1.369 . S
C628 C632 1.531 . S
C629 C628 1.369 . S
C629 C630 1.410 . S
C629 C637 1.503 . S
C630 C629 1.410 . S
C630 C631 1.392 . S
C630 C633 1.511 . S
C631 C627 1.376 1_545 S
C631 C630 1.392 . S
C631 H643 0.929 1_545 S
C632 C628 1.531 . S
C632 H644 0.960 . S
C632 H645 0.962 . S
C632 H646 0.960 . S
C633 C630 1.511 . S
C633 H647 0.961 . S
C633 H648 0.961 . S
C633 H649 0.961 . S
C634 C635 1.370 . S
C634 C636 1.363 . S
C634 H650 0.931 . S
C635 C634 1.370 . S
C635 C639 1.408 . S
C636 C634 1.363 . S
C636 C637 1.370 . S
C636 C640 1.524 . S
C637 C629 1.503 . S
C637 C636 1.370 . S
C637 C638 1.403 . S
C638 C637 1.403 . S
C638 C639 1.404 . S
C638 C641 1.539 . S
C639 C635 1.408 . S
C639 C638 1.404 . S
C639 H651 0.930 . S
C640 C636 1.524 . S
C640 H652 0.956 . S
C640 H653 0.979 . S
C640 H654 0.961 . S
C641 C638 1.539 . S
C641 H655 0.958 . S
C641 H656 0.961 . S
C641 H657 0.960 . S
H642 C626 0.931 1_565 S
H643 C631 0.929 1_565 S
H644 C632 0.960 . S
H645 C632 0.962 . S
H646 C632 0.960 . S
H647 C633 0.961 . S
H648 C633 0.961 . S
H649 C633 0.961 . S
H650 C634 0.931 . S
H651 C639 0.930 . S
H652 C640 0.956 . S
H653 C640 0.979 . S
H654 C640 0.961 . S
H655 C641 0.958 . S
H656 C641 0.961 . S
H657 C641 0.960 . S
C658 C659 1.391 . S
C658 C660 1.394 1_455 S
C658 H674 0.931 . S
C659 C658 1.391 . S
C659 C663 1.376 1_455 S
C660 C658 1.394 1_655 S
C660 C661 1.369 . S
C660 C664 1.531 . S
C661 C660 1.369 . S
C661 C662 1.410 . S
C661 C669 1.503 . S
C662 C661 1.410 . S
C662 C663 1.392 . S
C662 C665 1.511 . S
C663 C659 1.376 1_655 S
C663 C662 1.392 . S
C663 H675 0.929 . S
C664 C660 1.531 . S
C664 H676 0.960 . S
C664 H677 0.962 1_655 S
C664 H678 0.960 1_655 S
C665 C662 1.511 . S
C665 H679 0.961 . S
C665 H680 0.961 . S
C665 H681 0.961 . S
C666 C667 1.370 . S
C666 C668 1.363 . S
C666 H682 0.931 . S
C667 C666 1.370 . S
C667 C671 1.408 . S
C668 C666 1.363 . S
C668 C669 1.370 . S
C668 C672 1.524 . S
C669 C661 1.503 . S
C669 C668 1.370 . S
C669 C670 1.403 . S
C670 C669 1.403 . S
C670 C671 1.404 . S
C670 C673 1.539 . S
C671 C667 1.408 . S
C671 C670 1.404 . S
C671 H683 0.930 . S
C672 C668 1.524 . S
C672 H684 0.956 . S
C672 H685 0.961 . S
C672 H686 0.961 . S
C673 C670 1.539 . S
C673 H687 0.958 . S
C673 H688 0.961 . S
C673 H689 0.960 . S
H674 C658 0.931 . S
H675 C663 0.929 . S
H676 C664 0.960 . S
H677 C664 0.962 1_455 S
H678 C664 0.960 1_455 S
H679 C665 0.961 . S
H680 C665 0.961 . S
H681 C665 0.961 . S
H682 C666 0.931 . S
H683 C671 0.930 . S
H684 C672 0.956 . S
H685 C672 0.961 . S
H686 C672 0.961 . S
H687 C673 0.958 . S
H688 C673 0.961 . S
H689 C673 0.960 . S
C690 C691 1.391 . S
C690 C692 1.394 . S
C690 H706 0.931 . S
C691 C690 1.391 . S
C691 C695 1.376 . S
C692 C690 1.394 . S
C692 C693 1.369 . S
C692 C696 1.531 . S
C693 C692 1.369 . S
C693 C694 1.410 . S
C693 C701 1.503 . S
C694 C693 1.410 . S
C694 C695 1.392 . S
C694 C697 1.511 . S
C695 C691 1.376 . S
C695 C694 1.392 . S
C695 H707 0.929 . S
C696 C692 1.531 . S
C696 H708 0.960 . S
C696 H709 0.962 . S
C696 H710 0.960 . S
C697 C694 1.511 . S
C697 H711 0.961 . S
C697 H712 0.961 . S
C697 H713 0.961 . S
C698 C699 1.370 . S
C698 C700 1.363 . S
C698 H714 0.931 . S
C699 C698 1.370 . S
C699 C703 1.408 . S
C700 C698 1.363 . S
C700 C701 1.370 . S
C700 C704 1.524 . S
C701 C693 1.503 . S
C701 C700 1.370 . S
C701 C702 1.403 . S
C702 C701 1.403 . S
C702 C703 1.404 . S
C702 C705 1.539 . S
C703 C699 1.408 . S
C703 C702 1.404 . S
C703 H715 0.930 . S
C704 C700 1.524 . S
C704 H716 0.956 . S
C704 H717 0.961 . S
C704 H718 0.961 . S
C705 C702 1.539 . S
C705 H719 0.958 . S
C705 H720 0.961 . S
C705 H721 0.960 . S
H706 C690 0.931 . S
H707 C695 0.929 . S
H708 C696 0.960 . S
H709 C696 0.962 . S
H710 C696 0.960 . S
H711 C697 0.961 . S
H712 C697 0.961 . S
H713 C697 0.961 . S
H714 C698 0.931 . S
H715 C703 0.930 . S
H716 C704 0.956 . S
H717 C704 0.961 . S
H718 C704 0.961 . S
H719 C705 0.958 . S
H720 C705 0.961 . S
H721 C705 0.960 . S
C722 C723 1.391 . S
C722 C724 1.394 1_545 S
C722 H738 0.931 . S
C723 C722 1.391 . S
C723 C727 1.376 . S
C724 C722 1.394 1_565 S
C724 C725 1.369 . S
C724 C728 1.531 . S
C725 C724 1.369 . S
C725 C726 1.410 . S
C725 C733 1.503 . S
C726 C725 1.410 . S
C726 C727 1.392 1_565 S
C726 C729 1.511 . S
C727 C723 1.376 . S
C727 C726 1.392 1_545 S
C727 H739 0.929 . S
C728 C724 1.531 . S
C728 H740 0.960 . S
C728 H741 0.962 . S
C728 H742 0.960 . S
C729 C726 1.511 . S
C729 H743 0.961 . S
C729 H744 0.961 . S
C729 H745 0.961 . S
C730 C731 1.370 . S
C730 C732 1.363 . S
C730 H746 0.931 . S
C731 C730 1.370 . S
C731 C735 1.408 . S
C732 C730 1.363 . S
C732 C733 1.370 . S
C732 C736 1.524 . S
C733 C725 1.503 . S
C733 C732 1.370 . S
C733 C734 1.403 . S
C734 C733 1.403 . S
C734 C735 1.404 . S
C734 C737 1.539 . S
C735 C731 1.408 . S
C735 C734 1.404 . S
C735 H747 0.930 . S
C736 C732 1.524 . S
C736 H748 0.956 . S
C736 H749 0.961 . S
C736 H750 0.961 . S
C737 C734 1.539 . S
C737 H751 0.985 . S
C737 H752 0.961 . S
C737 H753 0.960 1_565 S
H738 C722 0.931 . S
H739 C727 0.929 . S
H740 C728 0.960 . S
H741 C728 0.962 . S
H742 C728 0.960 . S
H743 C729 0.961 . S
H744 C729 0.961 . S
H745 C729 0.961 . S
H746 C730 0.931 . S
H747 C735 0.930 . S
H748 C736 0.956 . S
H749 C736 0.961 . S
H750 C736 0.961 . S
H751 C737 0.985 . S
H752 C737 0.961 . S
H753 C737 0.960 1_545 S
C754 C755 1.391 1_455 S
C754 C756 1.394 . S
C754 H770 0.931 . S
C755 C754 1.391 1_655 S
C755 C759 1.376 . S
C756 C754 1.394 . S
C756 C757 1.369 . S
C756 C760 1.531 . S
C757 C756 1.369 . S
C757 C758 1.410 1_455 S
C757 C765 1.503 . S
C758 C757 1.410 1_655 S
C758 C759 1.392 . S
C758 C761 1.511 . S
C759 C755 1.376 . S
C759 C758 1.392 . S
C759 H771 0.929 . S
C760 C756 1.531 . S
C760 H772 0.960 . S
C760 H773 0.962 . S
C760 H774 0.960 . S
C761 C758 1.511 . S
C761 H775 0.961 . S
C761 H776 0.961 1_655 S
C761 H777 0.961 . S
C762 C763 1.370 . S
C762 C764 1.363 . S
C762 H778 0.931 . S
C763 C762 1.370 . S
C763 C767 1.408 . S
C764 C762 1.363 . S
C764 C765 1.370 . S
C764 C768 1.524 . S
C765 C757 1.503 . S
C765 C764 1.370 . S
C765 C766 1.403 . S
C766 C765 1.403 . S
C766 C767 1.404 . S
C766 C769 1.539 . S
C767 C763 1.408 . S
C767 C766 1.404 . S
C767 H779 0.930 . S
C768 C764 1.524 . S
C768 H780 0.956 . S
C768 H781 0.961 . S
C768 H782 0.961 . S
C769 C766 1.539 . S
C769 H783 0.958 . S
C769 H784 0.961 . S
C769 H785 0.960 . S
H770 C754 0.931 . S
H771 C759 0.929 . S
H772 C760 0.960 . S
H773 C760 0.962 . S
H774 C760 0.960 . S
H775 C761 0.961 . S
H776 C761 0.961 1_455 S
H777 C761 0.961 . S
H778 C762 0.931 . S
H779 C767 0.930 . S
H780 C768 0.956 . S
H781 C768 0.961 . S
H782 C768 0.961 . S
H783 C769 0.958 . S
H784 C769 0.961 . S
H785 C769 0.960 . S
C786 C787 1.391 . S
C786 C788 1.394 . S
C786 H802 0.931 . S
C787 C786 1.391 . S
C787 C791 1.376 . S
C788 C786 1.394 . S
C788 C789 1.369 . S
C788 C792 1.531 . S
C789 C788 1.369 . S
C789 C790 1.410 . S
C789 C797 1.503 . S
C790 C789 1.410 . S
C790 C791 1.392 . S
C790 C793 1.511 . S
C791 C787 1.376 . S
C791 C790 1.392 . S
C791 H803 0.929 . S
C792 C788 1.531 . S
C792 H804 0.960 . S
C792 H805 0.962 . S
C792 H806 0.960 . S
C793 C790 1.511 . S
C793 H807 0.961 . S
C793 H808 0.961 . S
C793 H809 0.961 . S
C794 C795 1.370 . S
C794 C796 1.363 1_455 S
C794 H810 0.931 . S
C795 C794 1.370 . S
C795 C799 1.408 1_455 S
C796 C794 1.363 1_655 S
C796 C797 1.370 . S
C796 C800 1.524 . S
C797 C789 1.503 . S
C797 C796 1.370 . S
C797 C798 1.403 . S
C798 C797 1.403 . S
C798 C799 1.404 . S
C798 C801 1.539 . S
C799 C795 1.408 1_655 S
C799 C798 1.404 . S
C799 H811 0.930 . S
C800 C796 1.524 . S
C800 H812 0.956 . S
C800 H813 0.961 . S
C800 H814 0.961 . S
C801 C798 1.539 . S
C801 H815 0.958 . S
C801 H816 0.961 . S
C801 H817 0.960 . S
H802 C786 0.931 . S
H803 C791 0.929 . S
H804 C792 0.960 . S
H805 C792 0.962 . S
H806 C792 0.960 . S
H807 C793 0.961 . S
H808 C793 0.961 . S
H809 C793 0.961 . S
H810 C794 0.931 . S
H811 C799 0.930 . S
H812 C800 0.956 . S
H813 C800 0.961 . S
H814 C800 0.961 . S
H815 C801 0.958 . S
H816 C801 0.961 . S
H817 C801 0.960 . S
C818 C819 1.391 . S
C818 C820 1.394 . S
C818 H834 0.931 . S
C819 C818 1.391 . S
C819 C823 1.376 . S
C820 C818 1.394 . S
C820 C821 1.369 . S
C820 C824 1.531 . S
C821 C820 1.369 . S
C821 C822 1.410 . S
C821 C829 1.503 . S
C822 C821 1.410 . S
C822 C823 1.392 . S
C822 C825 1.511 . S
C823 C819 1.376 . S
C823 C822 1.392 . S
C823 H835 0.929 . S
C824 C820 1.531 . S
C824 H836 0.960 . S
C824 H837 0.962 . S
C824 H838 0.960 . S
C825 C822 1.511 . S
C825 H839 0.961 . S
C825 H840 0.961 . S
C825 H841 0.961 . S
C826 C827 1.370 . S
C826 C828 1.363 . S
C826 H842 0.931 . S
C827 C826 1.370 . S
C827 C831 1.408 . S
C828 C826 1.363 . S
C828 C829 1.370 . S
C828 C832 1.524 . S
C829 C821 1.503 . S
C829 C828 1.370 . S
C829 C830 1.403 . S
C830 C829 1.403 . S
C830 C831 1.404 . S
C830 C833 1.539 . S
C831 C827 1.408 . S
C831 C830 1.404 . S
C831 H843 0.930 . S
C832 C828 1.524 . S
C832 H844 0.956 . S
C832 H845 0.961 . S
C832 H846 0.961 . S
C833 C830 1.539 . S
C833 H847 0.958 . S
C833 H848 0.961 . S
C833 H849 0.960 . S
H834 C818 0.931 . S
H835 C823 0.929 . S
H836 C824 0.960 . S
H837 C824 0.962 . S
H838 C824 0.960 . S
H839 C825 0.961 . S
H840 C825 0.961 . S
H841 C825 0.961 . S
H842 C826 0.931 . S
H843 C831 0.930 . S
H844 C832 0.956 . S
H845 C832 0.961 . S
H846 C832 0.961 . S
H847 C833 0.958 . S
H848 C833 0.961 . S
H849 C833 0.960 . S
C850 C851 1.391 . S
C850 C852 1.394 1_565 S
C850 H866 0.931 . S
C851 C850 1.391 . S
C851 C855 1.376 1_565 S
C852 C850 1.394 1_545 S
C852 C853 1.369 . S
C852 C856 1.531 . S
C853 C852 1.369 . S
C853 C854 1.410 . S
C853 C861 1.503 . S
C854 C853 1.410 . S
C854 C855 1.392 . S
C854 C857 1.511 . S
C855 C851 1.376 1_545 S
C855 C854 1.392 . S
C855 H867 0.929 . S
C856 C852 1.531 . S
C856 H868 0.960 . S
C856 H869 0.962 . S
C856 H870 0.960 1_545 S
C857 C854 1.511 . S
C857 H871 0.961 . S
C857 H872 0.961 . S
C857 H873 0.961 . S
C858 C859 1.370 . S
C858 C860 1.363 . S
C858 H874 0.931 . S
C859 C858 1.370 . S
C859 C863 1.408 . S
C860 C858 1.363 . S
C860 C861 1.370 . S
C860 C864 1.524 . S
C861 C853 1.503 . S
C861 C860 1.370 . S
C861 C862 1.403 . S
C862 C861 1.403 . S
C862 C863 1.404 . S
C862 C865 1.539 . S
C863 C859 1.408 . S
C863 C862 1.404 . S
C863 H875 0.930 . S
C864 C860 1.524 . S
C864 H876 0.956 . S
C864 H877 0.961 . S
C864 H878 0.961 . S
C865 C862 1.539 . S
C865 H879 0.958 . S
C865 H880 0.961 . S
C865 H881 0.960 . S
H866 C850 0.931 . S
H867 C855 0.929 . S
H868 C856 0.960 . S
H869 C856 0.962 . S
H870 C856 0.960 1_565 S
H871 C857 0.961 . S
H872 C857 0.961 . S
H873 C857 0.961 . S
H874 C858 0.931 . S
H875 C863 0.930 . S
H876 C864 0.956 . S
H877 C864 0.961 . S
H878 C864 0.961 . S
H879 C865 0.958 . S
H880 C865 0.961 . S
H881 C865 0.960 . S
C882 C883 1.391 . S
C882 C884 1.394 . S
C882 H898 0.931 . S
C883 C882 1.391 . S
C883 C887 1.376 . S
C884 C882 1.394 . S
C884 C885 1.369 . S
C884 C888 1.531 . S
C885 C884 1.369 . S
C885 C886 1.410 . S
C885 C893 1.503 . S
C886 C885 1.410 . S
C886 C887 1.392 . S
C886 C889 1.511 . S
C887 C883 1.376 . S
C887 C886 1.392 . S
C887 H899 0.929 . S
C888 C884 1.531 . S
C888 H900 0.960 . S
C888 H901 0.962 . S
C888 H902 0.960 . S
C889 C886 1.511 . S
C889 H903 0.961 . S
C889 H904 0.961 . S
C889 H905 0.961 1_554 S
C890 C891 1.370 . S
C890 C892 1.363 . S
C890 H906 0.931 . S
C891 C890 1.370 . S
C891 C895 1.408 1_554 S
C892 C890 1.363 . S
C892 C893 1.370 . S
C892 C896 1.524 . S
C893 C885 1.503 . S
C893 C892 1.370 . S
C893 C894 1.403 . S
C894 C893 1.403 . S
C894 C895 1.404 1_554 S
C894 C897 1.539 . S
C895 C891 1.408 1_556 S
C895 C894 1.404 1_556 S
C895 H907 0.930 . S
C896 C892 1.524 . S
C896 H908 0.956 . S
C896 H909 0.961 . S
C896 H910 0.961 . S
C897 C894 1.539 . S
C897 H911 0.958 . S
C897 H912 0.961 1_554 S
C897 H913 0.960 . S
H898 C882 0.931 . S
H899 C887 0.929 . S
H900 C888 0.960 . S
H901 C888 0.962 . S
H902 C888 0.960 . S
H903 C889 0.961 . S
H904 C889 0.961 . S
H905 C889 0.961 1_556 S
H906 C890 0.931 . S
H907 C895 0.930 . S
H908 C896 0.956 . S
H909 C896 0.961 . S
H910 C896 0.961 . S
H911 C897 0.958 . S
H912 C897 0.961 1_556 S
H913 C897 0.960 . S
C914 C915 1.391 . S
C914 C916 1.394 . S
C914 H930 0.931 . S
C915 C914 1.391 . S
C915 C919 1.376 . S
C916 C914 1.394 . S
C916 C917 1.369 . S
C916 C920 1.531 . S
C917 C916 1.369 . S
C917 C918 1.410 . S
C917 C925 1.503 . S
C918 C917 1.410 . S
C918 C919 1.392 . S
C918 C921 1.511 . S
C919 C915 1.376 . S
C919 C918 1.392 . S
C919 H931 0.929 . S
C920 C916 1.531 . S
C920 H932 0.960 . S
C920 H933 0.962 . S
C920 H934 0.960 . S
C921 C918 1.511 . S
C921 H935 0.961 . S
C921 H936 0.961 . S
C921 H937 0.961 1_554 S
C922 C923 1.370 . S
C922 C924 1.363 . S
C922 H938 0.931 . S
C923 C922 1.370 . S
C923 C927 1.408 1_554 S
C924 C922 1.363 . S
C924 C925 1.370 . S
C924 C928 1.524 . S
C925 C917 1.503 . S
C925 C924 1.370 . S
C925 C926 1.403 . S
C926 C925 1.403 . S
C926 C927 1.404 1_554 S
C926 C929 1.539 1_554 S
C927 C923 1.408 1_556 S
C927 C926 1.404 1_556 S
C927 H939 0.930 . S
C928 C924 1.524 . S
C928 H940 0.956 . S
C928 H941 0.961 . S
C928 H942 0.961 . S
C929 C926 1.539 1_556 S
C929 H943 0.958 1_556 S
C929 H944 0.961 . S
C929 H945 0.960 . S
H930 C914 0.931 . S
H931 C919 0.929 . S
H932 C920 0.960 . S
H933 C920 0.962 . S
H934 C920 0.960 . S
H935 C921 0.961 . S
H936 C921 0.961 . S
H937 C921 0.961 1_556 S
H938 C922 0.931 . S
H939 C927 0.930 . S
H940 C928 0.956 . S
H941 C928 0.961 . S
H942 C928 0.961 . S
H943 C929 0.958 1_554 S
H944 C929 0.961 . S
H945 C929 0.960 . S
C946 C947 1.391 . S
C946 C948 1.394 . S
C946 H962 0.931 . S
C947 C946 1.391 . S
C947 C951 1.376 . S
C948 C946 1.394 . S
C948 C949 1.369 . S
C948 C952 1.531 . S
C949 C948 1.369 . S
C949 C950 1.410 . S
C949 C957 1.503 . S
C950 C949 1.410 . S
C950 C951 1.392 . S
C950 C953 1.511 . S
C951 C947 1.376 . S
C951 C950 1.392 . S
C951 H963 0.929 . S
C952 C948 1.531 . S
C952 H964 0.960 . S
C952 H965 0.962 . S
C952 H966 0.960 . S
C953 C950 1.511 . S
C953 H967 0.961 . S
C953 H968 0.961 . S
C953 H969 0.961 . S
C954 C955 1.370 . S
C954 C956 1.363 . S
C954 H970 0.931 1_554 S
C955 C954 1.370 . S
C955 C959 1.408 . S
C956 C954 1.363 . S
C956 C957 1.370 . S
C956 C960 1.524 . S
C957 C949 1.503 . S
C957 C956 1.370 . S
C957 C958 1.403 . S
C958 C957 1.403 . S
C958 C959 1.404 . S
C958 C961 1.539 . S
C959 C955 1.408 . S
C959 C958 1.404 . S
C959 H971 0.930 . S
C960 C956 1.524 . S
C960 H972 0.956 . S
C960 H973 0.961 . S
C960 H974 0.971 . S
C961 C958 1.539 . S
C961 H975 0.958 . S
C961 H976 0.961 . S
C961 H977 0.960 . S
H962 C946 0.931 . S
H963 C951 0.929 . S
H964 C952 0.960 . S
H965 C952 0.962 . S
H966 C952 0.960 . S
H967 C953 0.961 . S
H968 C953 0.961 . S
H969 C953 0.961 . S
H970 C954 0.931 1_556 S
H971 C959 0.930 . S
H972 C960 0.956 . S
H973 C960 0.961 . S
H974 C960 0.971 . S
H975 C961 0.958 . S
H976 C961 0.961 . S
H977 C961 0.960 . S
C978 C979 1.391 . S
C978 C980 1.394 . S
C978 H994 0.931 . S
C979 C978 1.391 . S
C979 C983 1.376 . S
C980 C978 1.394 . S
C980 C981 1.369 . S
C980 C984 1.531 . S
C981 C980 1.369 . S
C981 C982 1.410 . S
C981 C989 1.503 . S
C982 C981 1.410 . S
C982 C983 1.392 . S
C982 C985 1.511 . S
C983 C979 1.376 . S
C983 C982 1.392 . S
C983 H995 0.929 . S
C984 C980 1.531 . S
C984 H996 0.960 . S
C984 H997 0.962 . S
C984 H998 0.960 . S
C985 C982 1.511 . S
C985 H999 0.961 . S
C985 H1000 0.961 . S
C985 H1001 0.961 . S
C986 C987 1.370 . S
C986 C988 1.363 . S
C986 H1002 0.931 . S
C987 C986 1.370 . S
C987 C991 1.408 1_556 S
C988 C986 1.363 . S
C988 C989 1.370 . S
C988 C992 1.524 . S
C989 C981 1.503 . S
C989 C988 1.370 . S
C989 C990 1.403 . S
C990 C989 1.403 . S
C990 C991 1.404 1_556 S
C990 C993 1.539 1_556 S
C991 C987 1.408 1_554 S
C991 C990 1.404 1_554 S
C991 H1003 0.930 . S
C992 C988 1.524 . S
C992 H1004 0.956 . S
C992 H1005 0.961 . S
C992 H1006 0.961 . S
C993 C990 1.539 1_554 S
C993 H1007 0.958 . S
C993 H1008 0.961 . S
C993 H1009 0.960 . S
H994 C978 0.931 . S
H995 C983 0.929 . S
H996 C984 0.960 . S
H997 C984 0.962 . S
H998 C984 0.960 . S
H999 C985 0.961 . S
H1000 C985 0.961 . S
H1001 C985 0.961 . S
H1002 C986 0.931 . S
H1003 C991 0.930 . S
H1004 C992 0.956 . S
H1005 C992 0.961 . S
H1006 C992 0.961 . S
H1007 C993 0.958 . S
H1008 C993 0.961 . S
H1009 C993 0.960 . S
C1010 C1011 1.391 . S
C1010 C1012 1.394 . S
C1010 H1026 0.931 . S
C1011 C1010 1.391 . S
C1011 C1015 1.376 . S
C1012 C1010 1.394 . S
C1012 C1013 1.369 . S
C1012 C1016 1.531 . S
C1013 C1012 1.369 . S
C1013 C1014 1.410 . S
C1013 C1021 1.503 . S
C1014 C1013 1.410 . S
C1014 C1015 1.392 . S
C1014 C1017 1.511 . S
C1015 C1011 1.376 . S
C1015 C1014 1.392 . S
C1015 H1027 0.929 . S
C1016 C1012 1.531 . S
C1016 H1028 0.960 . S
C1016 H1029 0.962 . S
C1016 H1030 0.960 . S
C1017 C1014 1.511 . S
C1017 H1031 0.961 . S
C1017 H1032 0.961 . S
C1017 H1033 0.961 . S
C1018 C1019 1.370 1_554 S
C1018 C1020 1.363 1_554 S
C1018 H1034 0.931 . S
C1019 C1018 1.370 1_556 S
C1019 C1023 1.408 . S
C1020 C1018 1.363 1_556 S
C1020 C1021 1.370 . S
C1020 C1024 1.524 1_556 S
C1021 C1013 1.503 . S
C1021 C1020 1.370 . S
C1021 C1022 1.403 . S
C1022 C1021 1.403 . S
C1022 C1023 1.404 . S
C1022 C1025 1.539 . S
C1023 C1019 1.408 . S
C1023 C1022 1.404 . S
C1023 H1035 0.930 . S
C1024 C1020 1.524 1_554 S
C1024 H1036 0.956 1_554 S
C1024 H1037 0.960 1_554 S
C1024 H1038 0.961 . S
C1025 C1022 1.539 . S
C1025 H1039 0.958 . S
C1025 H1040 0.961 . S
C1025 H1041 0.960 . S
H1026 C1010 0.931 . S
H1027 C1015 0.929 . S
H1028 C1016 0.960 . S
H1029 C1016 0.962 . S
H1030 C1016 0.960 . S
H1031 C1017 0.961 . S
H1032 C1017 0.961 . S
H1033 C1017 0.961 . S
H1034 C1018 0.931 . S
H1035 C1023 0.930 . S
H1036 C1024 0.956 1_556 S
H1037 C1024 0.960 1_556 S
H1038 C1024 0.961 . S
H1039 C1025 0.958 . S
H1040 C1025 0.961 . S
H1041 C1025 0.960 . S
C1042 C1043 1.391 . S
C1042 C1044 1.394 . S
C1042 H1058 0.931 1_556 S
C1043 C1042 1.391 . S
C1043 C1047 1.376 . S
C1044 C1042 1.394 . S
C1044 C1045 1.369 . S
C1044 C1048 1.531 . S
C1045 C1044 1.369 . S
C1045 C1046 1.410 . S
C1045 C1053 1.503 . S
C1046 C1045 1.410 . S
C1046 C1047 1.392 . S
C1046 C1049 1.511 . S
C1047 C1043 1.376 . S
C1047 C1046 1.392 . S
C1047 H1059 0.929 . S
C1048 C1044 1.531 . S
C1048 H1060 0.960 . S
C1048 H1061 0.962 . S
C1048 H1062 0.960 1_556 S
C1049 C1046 1.511 . S
C1049 H1063 0.961 . S
C1049 H1064 0.961 . S
C1049 H1065 0.961 . S
C1050 C1051 1.370 . S
C1050 C1052 1.363 . S
C1050 H1066 0.931 . S
C1051 C1050 1.370 . S
C1051 C1055 1.408 . S
C1052 C1050 1.363 . S
C1052 C1053 1.370 . S
C1052 C1056 1.524 . S
C1053 C1045 1.503 . S
C1053 C1052 1.370 . S
C1053 C1054 1.403 . S
C1054 C1053 1.403 . S
C1054 C1055 1.404 . S
C1054 C1057 1.539 . S
C1055 C1051 1.408 . S
C1055 C1054 1.404 . S
C1055 H1067 0.930 . S
C1056 C1052 1.524 . S
C1056 H1068 0.956 . S
C1056 H1069 0.961 . S
C1056 H1070 0.961 . S
C1057 C1054 1.539 . S
C1057 H1071 0.958 1_556 S
C1057 H1072 0.961 . S
C1057 H1073 0.960 1_556 S
H1058 C1042 0.931 1_554 S
H1059 C1047 0.929 . S
H1060 C1048 0.960 . S
H1061 C1048 0.962 . S
H1062 C1048 0.960 1_554 S
H1063 C1049 0.961 . S
H1064 C1049 0.961 . S
H1065 C1049 0.961 . S
H1066 C1050 0.931 . S
H1067 C1055 0.930 . S
H1068 C1056 0.956 . S
H1069 C1056 0.961 . S
H1070 C1056 0.961 . S
H1071 C1057 0.958 1_554 S
H1072 C1057 0.961 . S
H1073 C1057 0.960 1_554 S
C1074 C1075 1.391 . S
C1074 C1076 1.394 1_655 S
C1074 H1090 0.931 . S
C1075 C1074 1.391 . S
C1075 C1079 1.376 1_655 S
C1076 C1074 1.394 1_455 S
C1076 C1077 1.369 . S
C1076 C1080 1.531 . S
C1077 C1076 1.369 . S
C1077 C1078 1.410 . S
C1077 C1085 1.503 . S
C1078 C1077 1.410 . S
C1078 C1079 1.392 . S
C1078 C1081 1.511 . S
C1079 C1075 1.376 1_455 S
C1079 C1078 1.392 . S
C1079 H1091 0.929 . S
C1080 C1076 1.531 . S
C1080 H1092 0.960 . S
C1080 H1093 0.962 . S
C1080 H1094 0.960 . S
C1081 C1078 1.511 . S
C1081 H1095 0.961 . S
C1081 H1096 0.961 . S
C1081 H1097 0.961 . S
C1082 C1083 1.370 . S
C1082 C1084 1.363 . S
C1082 H1098 0.931 . S
C1083 C1082 1.370 . S
C1083 C1087 1.408 . S
C1084 C1082 1.363 . S
C1084 C1085 1.370 . S
C1084 C1088 1.524 . S
C1085 C1077 1.503 . S
C1085 C1084 1.370 . S
C1085 C1086 1.403 . S
C1086 C1085 1.403 . S
C1086 C1087 1.404 . S
C1086 C1089 1.539 . S
C1087 C1083 1.408 . S
C1087 C1086 1.404 . S
C1087 H1099 0.930 . S
C1088 C1084 1.524 . S
C1088 H1100 0.956 . S
C1088 H1101 0.961 . S
C1088 H1102 0.961 . S
C1089 C1086 1.539 . S
C1089 H1103 0.958 . S
C1089 H1104 0.961 . S
C1089 H1105 0.960 . S
H1090 C1074 0.931 . S
H1091 C1079 0.929 . S
H1092 C1080 0.960 . S
H1093 C1080 0.962 . S
H1094 C1080 0.960 . S
H1095 C1081 0.961 . S
H1096 C1081 0.961 . S
H1097 C1081 0.961 . S
H1098 C1082 0.931 . S
H1099 C1087 0.930 . S
H1100 C1088 0.956 . S
H1101 C1088 0.961 . S
H1102 C1088 0.961 . S
H1103 C1089 0.958 . S
H1104 C1089 0.961 . S
H1105 C1089 0.960 . S
C1106 C1107 1.391 . S
C1106 C1108 1.394 . S
C1106 H1122 0.931 . S
C1107 C1106 1.391 . S
C1107 C1111 1.376 . S
C1108 C1106 1.394 . S
C1108 C1109 1.369 . S
C1108 C1112 1.531 . S
C1109 C1108 1.369 . S
C1109 C1110 1.410 . S
C1109 C1117 1.503 . S
C1110 C1109 1.410 . S
C1110 C1111 1.392 . S
C1110 C1113 1.511 . S
C1111 C1107 1.376 . S
C1111 C1110 1.392 . S
C1111 H1123 0.929 . S
C1112 C1108 1.531 . S
C1112 H1124 0.960 . S
C1112 H1125 0.962 . S
C1112 H1126 0.960 . S
C1113 C1110 1.511 . S
C1113 H1127 0.961 . S
C1113 H1128 0.961 . S
C1113 H1129 0.961 . S
C1114 C1115 1.370 . S
C1114 C1116 1.363 . S
C1114 H1130 0.931 . S
C1115 C1114 1.370 . S
C1115 C1119 1.408 . S
C1116 C1114 1.363 . S
C1116 C1117 1.370 . S
C1116 C1120 1.524 . S
C1117 C1109 1.503 . S
C1117 C1116 1.370 . S
C1117 C1118 1.403 . S
C1118 C1117 1.403 . S
C1118 C1119 1.404 . S
C1118 C1121 1.539 . S
C1119 C1115 1.408 . S
C1119 C1118 1.404 . S
C1119 H1131 0.930 . S
C1120 C1116 1.524 . S
C1120 H1132 0.956 . S
C1120 H1133 0.961 . S
C1120 H1134 0.961 . S
C1121 C1118 1.539 . S
C1121 H1135 0.958 . S
C1121 H1136 0.961 . S
C1121 H1137 0.960 . S
H1122 C1106 0.931 . S
H1123 C1111 0.929 . S
H1124 C1112 0.960 . S
H1125 C1112 0.962 . S
H1126 C1112 0.960 . S
H1127 C1113 0.961 . S
H1128 C1113 0.961 . S
H1129 C1113 0.961 . S
H1130 C1114 0.931 . S
H1131 C1119 0.930 . S
H1132 C1120 0.956 . S
H1133 C1120 0.961 . S
H1134 C1120 0.961 . S
H1135 C1121 0.958 . S
H1136 C1121 0.961 . S
H1137 C1121 0.960 . S
C1138 C1139 1.391 . S
C1138 C1140 1.394 . S
C1138 H1154 0.931 . S
C1139 C1138 1.391 . S
C1139 C1143 1.376 . S
C1140 C1138 1.394 . S
C1140 C1141 1.369 . S
C1140 C1144 1.531 . S
C1141 C1140 1.369 . S
C1141 C1142 1.410 . S
C1141 C1149 1.503 . S
C1142 C1141 1.410 . S
C1142 C1143 1.392 . S
C1142 C1145 1.511 . S
C1143 C1139 1.376 . S
C1143 C1142 1.392 . S
C1143 H1155 0.929 . S
C1144 C1140 1.531 . S
C1144 H1156 0.960 . S
C1144 H1157 0.962 . S
C1144 H1158 0.960 . S
C1145 C1142 1.511 . S
C1145 H1159 0.961 . S
C1145 H1160 0.961 . S
C1145 H1161 0.961 . S
C1146 C1147 1.370 1_565 S
C1146 C1148 1.363 . S
C1146 H1162 0.931 . S
C1147 C1146 1.370 1_545 S
C1147 C1151 1.413 1_545 S
C1148 C1146 1.363 . S
C1148 C1149 1.370 . S
C1148 C1152 1.524 . S
C1149 C1141 1.503 . S
C1149 C1148 1.370 . S
C1149 C1150 1.403 . S
C1150 C1149 1.403 . S
C1150 C1151 1.412 . S
C1150 C1153 1.539 . S
C1151 C1147 1.413 1_565 S
C1151 C1150 1.412 . S
C1151 H1163 0.918 1_565 S
C1152 C1148 1.524 . S
C1152 H1164 0.956 . S
C1152 H1165 0.961 . S
C1152 H1166 0.961 . S
C1153 C1150 1.539 . S
C1153 H1167 0.958 . S
C1153 H1168 0.961 . S
C1153 H1169 0.960 . S
H1154 C1138 0.931 . S
H1155 C1143 0.929 . S
H1156 C1144 0.960 . S
H1157 C1144 0.962 . S
H1158 C1144 0.960 . S
H1159 C1145 0.961 . S
H1160 C1145 0.961 . S
H1161 C1145 0.961 . S
H1162 C1146 0.931 . S
H1163 C1151 0.918 1_545 S
H1164 C1152 0.956 . S
H1165 C1152 0.961 . S
H1166 C1152 0.961 . S
H1167 C1153 0.958 . S
H1168 C1153 0.961 . S
H1169 C1153 0.960 . S
C1170 C1171 1.391 . S
C1170 C1172 1.394 . S
C1170 H1186 0.931 . S
C1171 C1170 1.391 . S
C1171 C1175 1.376 . S
C1172 C1170 1.394 . S
C1172 C1173 1.369 . S
C1172 C1176 1.531 . S
C1173 C1172 1.369 . S
C1173 C1174 1.410 . S
C1173 C1181 1.503 . S
C1174 C1173 1.410 . S
C1174 C1175 1.392 . S
C1174 C1177 1.511 . S
C1175 C1171 1.376 . S
C1175 C1174 1.392 . S
C1175 H1187 0.929 . S
C1176 C1172 1.531 . S
C1176 H1188 0.960 . S
C1176 H1189 0.962 . S
C1176 H1190 0.960 . S
C1177 C1174 1.511 . S
C1177 H1191 0.961 . S
C1177 H1192 0.961 . S
C1177 H1193 0.961 . S
C1178 C1179 1.370 . S
C1178 C1180 1.363 . S
C1178 H1194 0.931 . S
C1179 C1178 1.370 . S
C1179 C1183 1.408 . S
C1180 C1178 1.363 . S
C1180 C1181 1.370 . S
C1180 C1184 1.524 . S
C1181 C1173 1.503 . S
C1181 C1180 1.370 . S
C1181 C1182 1.403 . S
C1182 C1181 1.403 . S
C1182 C1183 1.404 . S
C1182 C1185 1.539 . S
C1183 C1179 1.408 . S
C1183 C1182 1.404 . S
C1183 H1195 0.930 . S
C1184 C1180 1.524 . S
C1184 H1196 0.956 . S
C1184 H1197 0.961 . S
C1184 H1198 0.961 . S
C1185 C1182 1.539 . S
C1185 H1199 0.958 . S
C1185 H1200 0.961 . S
C1185 H1201 0.960 . S
H1186 C1170 0.931 . S
H1187 C1175 0.929 . S
H1188 C1176 0.960 . S
H1189 C1176 0.962 . S
H1190 C1176 0.960 . S
H1191 C1177 0.961 . S
H1192 C1177 0.961 . S
H1193 C1177 0.961 . S
H1194 C1178 0.931 . S
H1195 C1183 0.930 . S
H1196 C1184 0.956 . S
H1197 C1184 0.961 . S
H1198 C1184 0.961 . S
H1199 C1185 0.958 . S
H1200 C1185 0.961 . S
H1201 C1185 0.960 . S
C1202 C1203 1.391 . S
C1202 C1204 1.394 . S
C1202 H1218 0.931 . S
C1203 C1202 1.391 . S
C1203 C1207 1.376 . S
C1204 C1202 1.394 . S
C1204 C1205 1.369 . S
C1204 C1208 1.531 . S
C1205 C1204 1.369 . S
C1205 C1206 1.410 . S
C1205 C1213 1.503 . S
C1206 C1205 1.410 . S
C1206 C1207 1.392 . S
C1206 C1209 1.511 . S
C1207 C1203 1.376 . S
C1207 C1206 1.392 . S
C1207 H1219 0.929 . S
C1208 C1204 1.531 . S
C1208 H1220 0.960 . S
C1208 H1221 0.962 . S
C1208 H1222 0.960 . S
C1209 C1206 1.511 . S
C1209 H1223 0.961 . S
C1209 H1224 0.961 . S
C1209 H1225 0.961 . S
C1210 C1211 1.370 . S
C1210 C1212 1.363 . S
C1210 H1226 0.931 . S
C1211 C1210 1.370 . S
C1211 C1215 1.408 . S
C1212 C1210 1.363 . S
C1212 C1213 1.370 . S
C1212 C1216 1.524 . S
C1213 C1205 1.503 . S
C1213 C1212 1.370 . S
C1213 C1214 1.403 . S
C1214 C1213 1.403 . S
C1214 C1215 1.404 . S
C1214 C1217 1.539 . S
C1215 C1211 1.408 . S
C1215 C1214 1.404 . S
C1215 H1227 0.930 . S
C1216 C1212 1.524 . S
C1216 H1228 0.956 . S
C1216 H1229 0.961 . S
C1216 H1230 0.961 . S
C1217 C1214 1.539 . S
C1217 H1231 0.958 . S
C1217 H1232 0.961 . S
C1217 H1233 0.960 . S
H1218 C1202 0.931 . S
H1219 C1207 0.929 . S
H1220 C1208 0.960 . S
H1221 C1208 0.962 . S
H1222 C1208 0.960 . S
H1223 C1209 0.961 . S
H1224 C1209 0.961 . S
H1225 C1209 0.961 . S
H1226 C1210 0.931 . S
H1227 C1215 0.930 . S
H1228 C1216 0.956 . S
H1229 C1216 0.961 . S
H1230 C1216 0.961 . S
H1231 C1217 0.958 . S
H1232 C1217 0.961 . S
H1233 C1217 0.960 . S
C1234 C1235 1.391 . S
C1234 C1236 1.394 . S
C1234 H1250 0.931 . S
C1235 C1234 1.391 . S
C1235 C1239 1.376 . S
C1236 C1234 1.394 . S
C1236 C1237 1.369 . S
C1236 C1240 1.531 . S
C1237 C1236 1.369 . S
C1237 C1238 1.410 . S
C1237 C1245 1.503 . S
C1238 C1237 1.410 . S
C1238 C1239 1.392 . S
C1238 C1241 1.511 . S
C1239 C1235 1.376 . S
C1239 C1238 1.392 . S
C1239 H1251 0.929 . S
C1240 C1236 1.531 . S
C1240 H1252 0.960 . S
C1240 H1253 0.962 . S
C1240 H1254 0.960 . S
C1241 C1238 1.511 . S
C1241 H1255 0.961 . S
C1241 H1256 0.961 . S
C1241 H1257 0.961 . S
C1242 C1243 1.370 . S
C1242 C1244 1.363 . S
C1242 H1258 0.931 . S
C1243 C1242 1.370 . S
C1243 C1247 1.408 . S
C1244 C1242 1.363 . S
C1244 C1245 1.370 . S
C1244 C1248 1.524 . S
C1245 C1237 1.503 . S
C1245 C1244 1.370 . S
C1245 C1246 1.403 . S
C1246 C1245 1.403 . S
C1246 C1247 1.404 . S
C1246 C1249 1.539 . S
C1247 C1243 1.408 . S
C1247 C1246 1.404 . S
C1247 H1259 0.930 . S
C1248 C1244 1.524 . S
C1248 H1260 0.956 . S
C1248 H1261 0.961 . S
C1248 H1262 0.961 . S
C1249 C1246 1.539 . S
C1249 H1263 0.958 . S
C1249 H1264 0.961 . S
C1249 H1265 0.960 . S
H1250 C1234 0.931 . S
H1251 C1239 0.929 . S
H1252 C1240 0.960 . S
H1253 C1240 0.962 . S
H1254 C1240 0.960 . S
H1255 C1241 0.961 . S
H1256 C1241 0.961 . S
H1257 C1241 0.961 . S
H1258 C1242 0.931 . S
H1259 C1247 0.930 . S
H1260 C1248 0.956 . S
H1261 C1248 0.961 . S
H1262 C1248 0.961 . S
H1263 C1249 0.958 . S
H1264 C1249 0.961 . S
H1265 C1249 0.960 . S
C1266 C1267 1.391 . S
C1266 C1268 1.394 . S
C1266 H1282 0.931 . S
C1267 C1266 1.391 . S
C1267 C1271 1.376 . S
C1268 C1266 1.394 . S
C1268 C1269 1.369 . S
C1268 C1272 1.531 . S
C1269 C1268 1.369 . S
C1269 C1270 1.410 . S
C1269 C1277 1.503 . S
C1270 C1269 1.410 . S
C1270 C1271 1.392 . S
C1270 C1273 1.511 . S
C1271 C1267 1.376 . S
C1271 C1270 1.392 . S
C1271 H1283 0.929 . S
C1272 C1268 1.531 . S
C1272 H1284 0.960 . S
C1272 H1285 0.962 . S
C1272 H1286 0.960 . S
C1273 C1270 1.511 . S
C1273 H1287 0.961 . S
C1273 H1288 0.961 . S
C1273 H1289 0.961 . S
C1274 C1275 1.370 . S
C1274 C1276 1.363 . S
C1274 H1290 0.931 . S
C1275 C1274 1.370 . S
C1275 C1279 1.408 . S
C1276 C1274 1.363 . S
C1276 C1277 1.370 . S
C1276 C1280 1.524 . S
C1277 C1269 1.503 . S
C1277 C1276 1.370 . S
C1277 C1278 1.403 . S
C1278 C1277 1.403 . S
C1278 C1279 1.404 . S
C1278 C1281 1.539 . S
C1279 C1275 1.408 . S
C1279 C1278 1.404 . S
C1279 H1291 0.930 . S
C1280 C1276 1.524 . S
C1280 H1292 0.956 . S
C1280 H1293 0.961 . S
C1280 H1294 0.961 . S
C1281 C1278 1.539 . S
C1281 H1295 0.958 . S
C1281 H1296 0.961 . S
C1281 H1297 0.960 . S
H1282 C1266 0.931 . S
H1283 C1271 0.929 . S
H1284 C1272 0.960 . S
H1285 C1272 0.962 . S
H1286 C1272 0.960 . S
H1287 C1273 0.961 . S
H1288 C1273 0.961 . S
H1289 C1273 0.961 . S
H1290 C1274 0.931 . S
H1291 C1279 0.930 . S
H1292 C1280 0.956 . S
H1293 C1280 0.961 . S
H1294 C1280 0.961 . S
H1295 C1281 0.958 . S
H1296 C1281 0.961 . S
H1297 C1281 0.960 . S
C1298 C1299 1.391 . S
C1298 C1300 1.394 . S
C1298 H1314 0.931 . S
C1299 C1298 1.391 . S
C1299 C1303 1.376 . S
C1300 C1298 1.394 . S
C1300 C1301 1.369 . S
C1300 C1304 1.531 . S
C1301 C1300 1.369 . S
C1301 C1302 1.410 . S
C1301 C1309 1.503 . S
C1302 C1301 1.410 . S
C1302 C1303 1.392 . S
C1302 C1305 1.511 . S
C1303 C1299 1.376 . S
C1303 C1302 1.392 . S
C1303 H1315 0.929 . S
C1304 C1300 1.531 . S
C1304 H1316 0.960 . S
C1304 H1317 0.962 . S
C1304 H1318 0.960 . S
C1305 C1302 1.511 . S
C1305 H1319 0.961 . S
C1305 H1320 0.961 . S
C1305 H1321 0.961 . S
C1306 C1307 1.370 . S
C1306 C1308 1.363 . S
C1306 H1322 0.931 . S
C1307 C1306 1.370 . S
C1307 C1311 1.408 . S
C1308 C1306 1.363 . S
C1308 C1309 1.370 . S
C1308 C1312 1.524 . S
C1309 C1301 1.503 . S
C1309 C1308 1.370 . S
C1309 C1310 1.403 . S
C1310 C1309 1.403 . S
C1310 C1311 1.404 . S
C1310 C1313 1.539 . S
C1311 C1307 1.408 . S
C1311 C1310 1.404 . S
C1311 H1323 0.930 . S
C1312 C1308 1.524 . S
C1312 H1324 0.956 . S
C1312 H1325 0.961 . S
C1312 H1326 0.961 . S
C1313 C1310 1.539 . S
C1313 H1327 0.958 . S
C1313 H1328 0.961 . S
C1313 H1329 0.960 . S
H1314 C1298 0.931 . S
H1315 C1303 0.929 . S
H1316 C1304 0.960 . S
H1317 C1304 0.962 . S
H1318 C1304 0.960 . S
H1319 C1305 0.961 . S
H1320 C1305 0.961 . S
H1321 C1305 0.961 . S
H1322 C1306 0.931 . S
H1323 C1311 0.930 . S
H1324 C1312 0.956 . S
H1325 C1312 0.961 . S
H1326 C1312 0.961 . S
H1327 C1313 0.958 . S
H1328 C1313 0.961 . S
H1329 C1313 0.960 . S
C1330 C1331 1.391 . S
C1330 C1332 1.394 . S
C1330 H1346 0.931 . S
C1331 C1330 1.391 . S
C1331 C1335 1.376 . S
C1332 C1330 1.394 . S
C1332 C1333 1.369 . S
C1332 C1336 1.531 . S
C1333 C1332 1.369 . S
C1333 C1334 1.410 . S
C1333 C1341 1.503 . S
C1334 C1333 1.410 . S
C1334 C1335 1.392 . S
C1334 C1337 1.511 . S
C1335 C1331 1.376 . S
C1335 C1334 1.392 . S
C1335 H1347 0.929 . S
C1336 C1332 1.531 . S
C1336 H1348 0.960 . S
C1336 H1349 0.962 . S
C1336 H1350 0.960 . S
C1337 C1334 1.511 . S
C1337 H1351 0.961 . S
C1337 H1352 0.961 . S
C1337 H1353 0.961 . S
C1338 C1339 1.370 . S
C1338 C1340 1.363 . S
C1338 H1354 0.931 . S
C1339 C1338 1.370 . S
C1339 C1343 1.408 . S
C1340 C1338 1.363 . S
C1340 C1341 1.370 . S
C1340 C1344 1.524 . S
C1341 C1333 1.503 . S
C1341 C1340 1.370 . S
C1341 C1342 1.403 . S
C1342 C1341 1.403 . S
C1342 C1343 1.404 . S
C1342 C1345 1.539 . S
C1343 C1339 1.408 . S
C1343 C1342 1.404 . S
C1343 H1355 0.930 . S
C1344 C1340 1.524 . S
C1344 H1356 0.956 . S
C1344 H1357 0.961 . S
C1344 H1358 0.961 . S
C1345 C1342 1.539 . S
C1345 H1359 0.958 . S
C1345 H1360 0.961 . S
C1345 H1361 0.960 . S
H1346 C1330 0.931 . S
H1347 C1335 0.929 . S
H1348 C1336 0.960 . S
H1349 C1336 0.962 . S
H1350 C1336 0.960 . S
H1351 C1337 0.961 . S
H1352 C1337 0.961 . S
H1353 C1337 0.961 . S
H1354 C1338 0.931 . S
H1355 C1343 0.930 . S
H1356 C1344 0.956 . S
H1357 C1344 0.961 . S
H1358 C1344 0.961 . S
H1359 C1345 0.958 . S
H1360 C1345 0.961 . S
H1361 C1345 0.960 . S
C1362 C1363 1.391 . S
C1362 C1364 1.394 . S
C1362 H1378 0.931 . S
C1363 C1362 1.391 . S
C1363 C1367 1.376 . S
C1364 C1362 1.394 . S
C1364 C1365 1.369 . S
C1364 C1368 1.531 1_554 S
C1365 C1364 1.369 . S
C1365 C1366 1.410 1_545 S
C1365 C1373 1.503 1_544 S
C1366 C1365 1.410 1_565 S
C1366 C1367 1.392 1_565 S
C1366 C1369 1.511 . S
C1367 C1363 1.376 . S
C1367 C1366 1.392 1_545 S
C1367 H1379 0.929 1_545 S
C1368 C1364 1.531 1_556 S
C1368 H1380 0.960 . S
C1368 H1381 0.962 . S
C1368 H1382 0.960 . S
C1369 C1366 1.511 . S
C1369 H1383 0.961 . S
C1369 H1384 0.961 . S
C1369 H1385 0.961 . S
C1370 C1371 1.370 . S
C1370 C1372 1.363 . S
C1370 H1386 0.931 . S
C1371 C1370 1.370 . S
C1371 C1375 1.408 . S
C1372 C1370 1.363 . S
C1372 C1373 1.370 . S
C1372 C1376 1.524 . S
C1373 C1365 1.503 1_566 S
C1373 C1372 1.370 . S
C1373 C1374 1.403 1_565 S
C1374 C1373 1.403 1_545 S
C1374 C1375 1.404 1_545 S
C1374 C1377 1.539 . S
C1375 C1371 1.408 . S
C1375 C1374 1.404 1_565 S
C1375 H1387 0.930 . S
C1376 C1372 1.524 . S
C1376 H1388 0.956 . S
C1376 H1389 0.961 . S
C1376 H1390 0.961 . S
C1377 C1374 1.539 . S
C1377 H1391 0.958 . S
C1377 H1392 0.961 . S
C1377 H1393 0.960 1_556 S
H1378 C1362 0.931 . S
H1379 C1367 0.929 1_565 S
H1380 C1368 0.960 . S
H1381 C1368 0.962 . S
H1382 C1368 0.960 . S
H1383 C1369 0.961 . S
H1384 C1369 0.961 . S
H1385 C1369 0.961 . S
H1386 C1370 0.931 . S
H1387 C1375 0.930 . S
H1388 C1376 0.956 . S
H1389 C1376 0.961 . S
H1390 C1376 0.961 . S
H1391 C1377 0.958 . S
H1392 C1377 0.961 . S
H1393 C1377 0.960 1_554 S
C1394 C1395 1.391 . S
C1394 C1396 1.394 . S
C1394 H1410 0.931 . S
C1395 C1394 1.391 . S
C1395 C1399 1.328 1_455 S
C1396 C1394 1.394 . S
C1396 C1397 1.369 . S
C1396 C1400 1.531 1_556 S
C1397 C1396 1.369 . S
C1397 C1398 1.410 1_455 S
C1397 C1405 1.503 1_456 S
C1398 C1397 1.410 1_655 S
C1398 C1399 1.401 . S
C1398 C1401 1.511 . S
C1399 C1395 1.328 1_655 S
C1399 C1398 1.401 . S
C1399 H1411 0.971 . S
C1400 C1396 1.531 1_554 S
C1400 H1412 0.960 . S
C1400 H1413 0.962 . S
C1400 H1414 0.960 . S
C1401 C1398 1.511 . S
C1401 H1415 0.961 . S
C1401 H1416 0.961 . S
C1401 H1417 0.961 . S
C1402 C1403 1.370 . S
C1402 C1404 1.363 . S
C1402 H1418 0.931 . S
C1403 C1402 1.370 . S
C1403 C1407 1.408 . S
C1404 C1402 1.363 . S
C1404 C1405 1.370 . S
C1404 C1408 1.524 1_554 S
C1405 C1397 1.503 1_654 S
C1405 C1404 1.370 . S
C1405 C1406 1.403 . S
C1406 C1405 1.403 . S
C1406 C1407 1.404 . S
C1406 C1409 1.552 1_655 S
C1407 C1403 1.408 . S
C1407 C1406 1.404 . S
C1407 H1419 0.930 . S
C1408 C1404 1.524 1_556 S
C1408 H1420 0.956 1_655 S
C1408 H1421 0.961 . S
C1408 H1422 0.961 . S
C1409 C1406 1.552 1_455 S
C1409 H1423 0.993 . S
C1409 H1424 0.930 1_455 S
C1409 H1425 0.946 1_455 S
H1410 C1394 0.931 . S
H1411 C1399 0.971 . S
H1412 C1400 0.960 . S
H1413 C1400 0.962 . S
H1414 C1400 0.960 . S
H1415 C1401 0.961 . S
H1416 C1401 0.961 . S
H1417 C1401 0.961 . S
H1418 C1402 0.931 . S
H1419 C1407 0.930 . S
H1420 C1408 0.956 1_455 S
H1421 C1408 0.961 . S
H1422 C1408 0.961 . S
H1423 C1409 0.993 . S
H1424 C1409 0.930 1_655 S
H1425 C1409 0.946 1_655 S
C1426 C1427 1.391 . S
C1426 C1428 1.394 . S
C1426 H1442 0.931 . S
C1427 C1426 1.391 . S
C1427 C1431 1.376 . S
C1428 C1426 1.394 . S
C1428 C1429 1.369 . S
C1428 C1432 1.531 . S
C1429 C1428 1.369 . S
C1429 C1430 1.410 . S
C1429 C1437 1.503 1_556 S
C1430 C1429 1.410 . S
C1430 C1431 1.392 . S
C1430 C1433 1.511 1_556 S
C1431 C1427 1.376 . S
C1431 C1430 1.392 . S
C1431 H1443 0.929 . S
C1432 C1428 1.531 . S
C1432 H1444 0.960 . S
C1432 H1445 0.962 . S
C1432 H1446 0.960 . S
C1433 C1430 1.511 1_554 S
C1433 H1447 0.961 . S
C1433 H1448 0.961 . S
C1433 H1449 0.961 . S
C1434 C1435 1.370 . S
C1434 C1436 1.363 . S
C1434 H1450 0.931 . S
C1435 C1434 1.370 . S
C1435 C1439 1.408 . S
C1436 C1434 1.363 . S
C1436 C1437 1.370 . S
C1436 C1440 1.524 . S
C1437 C1429 1.503 1_554 S
C1437 C1436 1.370 . S
C1437 C1438 1.403 . S
C1438 C1437 1.403 . S
C1438 C1439 1.404 . S
C1438 C1441 1.539 . S
C1439 C1435 1.408 . S
C1439 C1438 1.404 . S
C1439 H1451 0.930 . S
C1440 C1436 1.524 . S
C1440 H1452 0.956 1_554 S
C1440 H1453 0.961 . S
C1440 H1454 0.961 . S
C1441 C1438 1.539 . S
C1441 H1455 0.958 1_554 S
C1441 H1456 0.961 . S
C1441 H1457 0.968 . S
H1442 C1426 0.931 . S
H1443 C1431 0.929 . S
H1444 C1432 0.960 . S
H1445 C1432 0.962 . S
H1446 C1432 0.960 . S
H1447 C1433 0.961 . S
H1448 C1433 0.961 . S
H1449 C1433 0.961 . S
H1450 C1434 0.931 . S
H1451 C1439 0.930 . S
H1452 C1440 0.956 1_556 S
H1453 C1440 0.961 . S
H1454 C1440 0.961 . S
H1455 C1441 0.958 1_556 S
H1456 C1441 0.961 . S
H1457 C1441 0.968 . S
C1458 C1459 1.391 . S
C1458 C1460 1.384 1_554 S
C1458 H1474 0.931 . S
C1459 C1458 1.391 . S
C1459 C1463 1.376 1_554 S
C1460 C1458 1.384 1_556 S
C1460 C1461 1.383 . S
C1460 C1464 1.526 1_556 S
C1461 C1460 1.383 . S
C1461 C1462 1.410 . S
C1461 C1469 1.503 . S
C1462 C1461 1.410 . S
C1462 C1463 1.392 . S
C1462 C1465 1.511 . S
C1463 C1459 1.376 1_556 S
C1463 C1462 1.392 . S
C1463 H1475 0.929 . S
C1464 C1460 1.526 1_554 S
C1464 H1476 0.960 1_554 S
C1464 H1477 0.962 . S
C1464 H1478 0.960 . S
C1465 C1462 1.511 . S
C1465 H1479 0.961 . S
C1465 H1480 0.961 . S
C1465 H1481 0.961 . S
C1466 C1467 1.370 . S
C1466 C1468 1.363 . S
C1466 H1482 0.931 . S
C1467 C1466 1.370 . S
C1467 C1471 1.408 . S
C1468 C1466 1.363 . S
C1468 C1469 1.370 . S
C1468 C1472 1.524 1_556 S
C1469 C1461 1.503 . S
C1469 C1468 1.370 . S
C1469 C1470 1.403 . S
C1470 C1469 1.403 . S
C1470 C1471 1.404 . S
C1470 C1473 1.539 . S
C1471 C1467 1.408 . S
C1471 C1470 1.404 . S
C1471 H1483 0.930 . S
C1472 C1468 1.524 1_554 S
C1472 H1484 0.956 . S
C1472 H1485 0.961 . S
C1472 H1486 0.961 . S
C1473 C1470 1.539 . S
C1473 H1487 0.958 . S
C1473 H1488 0.961 . S
C1473 H1489 0.960 . S
H1474 C1458 0.931 . S
H1475 C1463 0.929 . S
H1476 C1464 0.960 1_556 S
H1477 C1464 0.962 . S
H1478 C1464 0.960 . S
H1479 C1465 0.961 . S
H1480 C1465 0.961 . S
H1481 C1465 0.961 . S
H1482 C1466 0.931 . S
H1483 C1471 0.930 . S
H1484 C1472 0.956 . S
H1485 C1472 0.961 . S
H1486 C1472 0.961 . S
H1487 C1473 0.958 . S
H1488 C1473 0.961 . S
H1489 C1473 0.960 . S
C1490 C1491 1.391 . S
C1490 C1492 1.394 . S
C1490 H1506 0.931 . S
C1491 C1490 1.391 . S
C1491 C1495 1.376 . S
C1492 C1490 1.394 . S
C1492 C1493 1.369 . S
C1492 C1496 1.531 1_556 S
C1493 C1492 1.369 . S
C1493 C1494 1.410 . S
C1493 C1501 1.503 . S
C1494 C1493 1.410 . S
C1494 C1495 1.392 . S
C1494 C1497 1.511 . S
C1495 C1491 1.376 . S
C1495 C1494 1.392 . S
C1495 H1507 0.929 . S
C1496 C1492 1.531 1_554 S
C1496 H1508 0.960 . S
C1496 H1509 0.962 . S
C1496 H1510 0.960 . S
C1497 C1494 1.511 . S
C1497 H1511 0.961 . S
C1497 H1512 0.961 . S
C1497 H1513 0.961 . S
C1498 C1499 1.370 1_556 S
C1498 C1500 1.363 . S
C1498 H1514 0.931 . S
C1499 C1498 1.370 1_554 S
C1499 C1503 1.408 . S
C1500 C1498 1.363 . S
C1500 C1501 1.370 . S
C1500 C1504 1.524 . S
C1501 C1493 1.503 . S
C1501 C1500 1.370 . S
C1501 C1502 1.403 1_556 S
C1502 C1501 1.403 1_554 S
C1502 C1503 1.404 . S
C1502 C1505 1.539 . S
C1503 C1499 1.408 . S
C1503 C1502 1.404 . S
C1503 H1515 0.930 . S
C1504 C1500 1.524 . S
C1504 H1516 0.956 . S
C1504 H1517 0.961 . S
C1504 H1518 0.961 . S
C1505 C1502 1.539 . S
C1505 H1519 0.958 . S
C1505 H1520 0.961 . S
C1505 H1521 0.960 1_554 S
H1506 C1490 0.931 . S
H1507 C1495 0.929 . S
H1508 C1496 0.960 . S
H1509 C1496 0.962 . S
H1510 C1496 0.960 . S
H1511 C1497 0.961 . S
H1512 C1497 0.961 . S
H1513 C1497 0.961 . S
H1514 C1498 0.931 . S
H1515 C1503 0.930 . S
H1516 C1504 0.956 . S
H1517 C1504 0.961 . S
H1518 C1504 0.961 . S
H1519 C1505 0.958 . S
H1520 C1505 0.961 . S
H1521 C1505 0.960 1_556 S
C1522 C1523 1.391 1_556 S
C1522 C1524 1.394 . S
C1522 H1538 0.931 . S
C1523 C1522 1.391 1_554 S
C1523 C1527 1.376 . S
C1524 C1522 1.394 . S
C1524 C1525 1.369 . S
C1524 C1528 1.531 . S
C1525 C1524 1.369 . S
C1525 C1526 1.410 1_556 S
C1525 C1533 1.503 . S
C1526 C1525 1.410 1_554 S
C1526 C1527 1.392 . S
C1526 C1529 1.511 . S
C1527 C1523 1.376 . S
C1527 C1526 1.392 . S
C1527 H1539 0.929 . S
C1528 C1524 1.531 . S
C1528 H1540 0.960 . S
C1528 H1541 0.962 . S
C1528 H1542 0.960 . S
C1529 C1526 1.511 . S
C1529 H1543 0.961 . S
C1529 H1544 0.961 . S
C1529 H1545 0.961 . S
C1530 C1531 1.370 . S
C1530 C1532 1.363 . S
C1530 H1546 0.931 . S
C1531 C1530 1.370 . S
C1531 C1535 1.408 . S
C1532 C1530 1.363 . S
C1532 C1533 1.370 . S
C1532 C1536 1.524 . S
C1533 C1525 1.503 . S
C1533 C1532 1.370 . S
C1533 C1534 1.403 . S
C1534 C1533 1.403 . S
C1534 C1535 1.404 . S
C1534 C1537 1.539 . S
C1535 C1531 1.408 . S
C1535 C1534 1.404 . S
C1535 H1547 0.930 . S
C1536 C1532 1.524 . S
C1536 H1548 0.956 . S
C1536 H1549 0.961 . S
C1536 H1550 0.961 . S
C1537 C1534 1.539 . S
C1537 H1551 0.958 . S
C1537 H1552 0.961 . S
C1537 H1553 0.960 . S
H1538 C1522 0.931 . S
H1539 C1527 0.929 . S
H1540 C1528 0.960 . S
H1541 C1528 0.962 . S
H1542 C1528 0.960 . S
H1543 C1529 0.961 . S
H1544 C1529 0.961 . S
H1545 C1529 0.961 . S
H1546 C1530 0.931 . S
H1547 C1535 0.930 . S
H1548 C1536 0.956 . S
H1549 C1536 0.961 . S
H1550 C1536 0.961 . S
H1551 C1537 0.958 . S
H1552 C1537 0.961 . S
H1553 C1537 0.960 . S
C1554 C1555 1.391 . S
C1554 C1556 1.394 . S
C1554 H1570 0.931 . S
C1555 C1554 1.391 . S
C1555 C1559 1.376 . S
C1556 C1554 1.394 . S
C1556 C1557 1.369 . S
C1556 C1560 1.531 . S
C1557 C1556 1.369 . S
C1557 C1558 1.410 . S
C1557 C1565 1.503 . S
C1558 C1557 1.410 . S
C1558 C1559 1.392 . S
C1558 C1561 1.511 1_554 S
C1559 C1555 1.376 . S
C1559 C1558 1.392 . S
C1559 H1571 0.929 . S
C1560 C1556 1.531 . S
C1560 H1572 0.960 . S
C1560 H1573 0.962 . S
C1560 H1574 0.960 . S
C1561 C1558 1.511 1_556 S
C1561 H1575 0.961 . S
C1561 H1576 0.961 . S
C1561 H1577 0.961 . S
C1562 C1563 1.370 1_554 S
C1562 C1564 1.363 . S
C1562 H1578 0.931 . S
C1563 C1562 1.370 1_556 S
C1563 C1567 1.408 . S
C1564 C1562 1.363 . S
C1564 C1565 1.370 . S
C1564 C1568 1.524 . S
C1565 C1557 1.503 . S
C1565 C1564 1.370 . S
C1565 C1566 1.403 1_554 S
C1566 C1565 1.403 1_556 S
C1566 C1567 1.404 . S
C1566 C1569 1.539 . S
C1567 C1563 1.408 . S
C1567 C1566 1.404 . S
C1567 H1579 0.930 . S
C1568 C1564 1.524 . S
C1568 H1580 0.956 . S
C1568 H1581 0.961 . S
C1568 H1582 0.961 . S
C1569 C1566 1.539 . S
C1569 H1583 0.958 . S
C1569 H1584 0.961 . S
C1569 H1585 0.960 . S
H1570 C1554 0.931 . S
H1571 C1559 0.929 . S
H1572 C1560 0.960 . S
H1573 C1560 0.962 . S
H1574 C1560 0.960 . S
H1575 C1561 0.961 . S
H1576 C1561 0.961 . S
H1577 C1561 0.961 . S
H1578 C1562 0.931 . S
H1579 C1567 0.930 . S
H1580 C1568 0.956 . S
H1581 C1568 0.961 . S
H1582 C1568 0.961 . S
H1583 C1569 0.958 . S
H1584 C1569 0.961 . S
H1585 C1569 0.960 . S
C1586 C1587 1.391 . S
C1586 C1588 1.394 . S
C1586 H1602 0.931 . S
C1587 C1586 1.391 . S
C1587 C1591 1.376 1_556 S
C1588 C1586 1.394 . S
C1588 C1589 1.369 1_556 S
C1588 C1592 1.531 . S
C1589 C1588 1.369 1_554 S
C1589 C1590 1.410 . S
C1589 C1597 1.503 . S
C1590 C1589 1.410 . S
C1590 C1591 1.392 . S
C1590 C1593 1.511 . S
C1591 C1587 1.376 1_554 S
C1591 C1590 1.392 . S
C1591 H1603 0.929 . S
C1592 C1588 1.531 . S
C1592 H1604 0.960 . S
C1592 H1605 0.962 1_556 S
C1592 H1606 0.960 . S
C1593 C1590 1.511 . S
C1593 H1607 0.961 . S
C1593 H1608 0.961 . S
C1593 H1609 0.961 . S
C1594 C1595 1.370 . S
C1594 C1596 1.363 . S
C1594 H1610 0.931 . S
C1595 C1594 1.370 . S
C1595 C1599 1.408 . S
C1596 C1594 1.363 . S
C1596 C1597 1.370 . S
C1596 C1600 1.524 . S
C1597 C1589 1.503 . S
C1597 C1596 1.370 . S
C1597 C1598 1.403 . S
C1598 C1597 1.403 . S
C1598 C1599 1.404 . S
C1598 C1601 1.539 1_554 S
C1599 C1595 1.408 . S
C1599 C1598 1.404 . S
C1599 H1611 0.930 . S
C1600 C1596 1.524 . S
C1600 H1612 0.956 . S
C1600 H1613 0.961 . S
C1600 H1614 0.961 . S
C1601 C1598 1.539 1_556 S
C1601 H1615 0.958 . S
C1601 H1616 0.961 . S
C1601 H1617 0.960 . S
H1602 C1586 0.931 . S
H1603 C1591 0.929 . S
H1604 C1592 0.960 . S
H1605 C1592 0.962 1_554 S
H1606 C1592 0.960 . S
H1607 C1593 0.961 . S
H1608 C1593 0.961 . S
H1609 C1593 0.961 . S
H1610 C1594 0.931 . S
H1611 C1599 0.930 . S
H1612 C1600 0.956 . S
H1613 C1600 0.961 . S
H1614 C1600 0.961 . S
H1615 C1601 0.958 . S
H1616 C1601 0.961 . S
H1617 C1601 0.960 . S
C1618 C1619 1.391 . S
C1618 C1620 1.394 . S
C1618 H1634 0.931 . S
C1619 C1618 1.391 . S
C1619 C1623 1.376 . S
C1620 C1618 1.394 . S
C1620 C1621 1.369 . S
C1620 C1624 1.531 . S
C1621 C1620 1.369 . S
C1621 C1622 1.410 . S
C1621 C1629 1.503 . S
C1622 C1621 1.410 . S
C1622 C1623 1.392 . S
C1622 C1625 1.511 . S
C1623 C1619 1.376 . S
C1623 C1622 1.392 . S
C1623 H1635 0.929 . S
C1624 C1620 1.531 . S
C1624 H1636 0.960 1_554 S
C1624 H1637 0.962 . S
C1624 H1638 0.960 . S
C1625 C1622 1.511 . S
C1625 H1639 0.961 . S
C1625 H1640 0.961 . S
C1625 H1641 0.961 . S
C1626 C1627 1.370 1_554 S
C1626 C1628 1.363 . S
C1626 H1642 0.931 . S
C1627 C1626 1.370 1_556 S
C1627 C1631 1.408 . S
C1628 C1626 1.363 . S
C1628 C1629 1.370 . S
C1628 C1632 1.524 . S
C1629 C1621 1.503 . S
C1629 C1628 1.370 . S
C1629 C1630 1.403 1_554 S
C1630 C1629 1.403 1_556 S
C1630 C1631 1.404 . S
C1630 C1633 1.539 . S
C1631 C1627 1.408 . S
C1631 C1630 1.404 . S
C1631 H1643 0.930 . S
C1632 C1628 1.524 . S
C1632 H1644 0.956 . S
C1632 H1645 0.961 . S
C1632 H1646 0.961 . S
C1633 C1630 1.539 . S
C1633 H1647 0.958 . S
C1633 H1648 0.961 . S
C1633 H1649 0.960 . S
H1634 C1618 0.931 . S
H1635 C1623 0.929 . S
H1636 C1624 0.960 1_556 S
H1637 C1624 0.962 . S
H1638 C1624 0.960 . S
H1639 C1625 0.961 . S
H1640 C1625 0.961 . S
H1641 C1625 0.961 . S
H1642 C1626 0.931 . S
H1643 C1631 0.930 . S
H1644 C1632 0.956 . S
H1645 C1632 0.961 . S
H1646 C1632 0.961 . S
H1647 C1633 0.958 . S
H1648 C1633 0.961 . S
H1649 C1633 0.960 . S
C1650 C1651 1.391 . S
C1650 C1652 1.394 . S
C1650 H1666 0.931 . S
C1651 C1650 1.391 . S
C1651 C1655 1.376 . S
C1652 C1650 1.394 . S
C1652 C1653 1.369 . S
C1652 C1656 1.531 . S
C1653 C1652 1.369 . S
C1653 C1654 1.410 . S
C1653 C1661 1.503 . S
C1654 C1653 1.410 . S
C1654 C1655 1.392 . S
C1654 C1657 1.511 . S
C1655 C1651 1.376 . S
C1655 C1654 1.392 . S
C1655 H1667 0.929 . S
C1656 C1652 1.531 . S
C1656 H1668 0.960 . S
C1656 H1669 0.962 . S
C1656 H1670 0.960 . S
C1657 C1654 1.511 . S
C1657 H1671 0.961 . S
C1657 H1672 0.961 . S
C1657 H1673 0.961 . S
C1658 C1659 1.370 . S
C1658 C1660 1.363 . S
C1658 H1674 0.931 . S
C1659 C1658 1.370 . S
C1659 C1663 1.408 . S
C1660 C1658 1.363 . S
C1660 C1661 1.370 . S
C1660 C1664 1.524 . S
C1661 C1653 1.503 . S
C1661 C1660 1.370 . S
C1661 C1662 1.403 . S
C1662 C1661 1.403 . S
C1662 C1663 1.404 . S
C1662 C1665 1.539 . S
C1663 C1659 1.408 . S
C1663 C1662 1.404 . S
C1663 H1675 0.930 . S
C1664 C1660 1.524 . S
C1664 H1676 0.956 . S
C1664 H1677 0.961 . S
C1664 H1678 0.961 . S
C1665 C1662 1.539 . S
C1665 H1679 0.958 . S
C1665 H1680 0.961 . S
C1665 H1681 0.960 . S
H1666 C1650 0.931 . S
H1667 C1655 0.929 . S
H1668 C1656 0.960 . S
H1669 C1656 0.962 . S
H1670 C1656 0.960 . S
H1671 C1657 0.961 . S
H1672 C1657 0.961 . S
H1673 C1657 0.961 . S
H1674 C1658 0.931 . S
H1675 C1663 0.930 . S
H1676 C1664 0.956 . S
H1677 C1664 0.961 . S
H1678 C1664 0.961 . S
H1679 C1665 0.958 . S
H1680 C1665 0.961 . S
H1681 C1665 0.960 . S
C1682 C1683 1.391 . S
C1682 C1684 1.394 . S
C1682 H1698 0.931 . S
C1683 C1682 1.391 . S
C1683 C1687 1.376 . S
C1684 C1682 1.394 . S
C1684 C1685 1.369 . S
C1684 C1688 1.531 . S
C1685 C1684 1.369 . S
C1685 C1686 1.410 . S
C1685 C1693 1.503 . S
C1686 C1685 1.410 . S
C1686 C1687 1.392 . S
C1686 C1689 1.511 . S
C1687 C1683 1.376 . S
C1687 C1686 1.392 . S
C1687 H1699 0.929 . S
C1688 C1684 1.531 . S
C1688 H1700 0.960 . S
C1688 H1701 0.962 . S
C1688 H1702 0.960 . S
C1689 C1686 1.511 . S
C1689 H1703 0.961 . S
C1689 H1704 0.961 . S
C1689 H1705 0.961 . S
C1690 C1691 1.370 . S
C1690 C1692 1.363 . S
C1690 H1706 0.931 . S
C1691 C1690 1.370 . S
C1691 C1695 1.408 . S
C1692 C1690 1.363 . S
C1692 C1693 1.370 . S
C1692 C1696 1.524 . S
C1693 C1685 1.503 . S
C1693 C1692 1.370 . S
C1693 C1694 1.403 . S
C1694 C1693 1.403 . S
C1694 C1695 1.404 . S
C1694 C1697 1.539 . S
C1695 C1691 1.408 . S
C1695 C1694 1.404 . S
C1695 H1707 0.930 . S
C1696 C1692 1.524 . S
C1696 H1708 0.956 . S
C1696 H1709 0.961 . S
C1696 H1710 0.961 . S
C1697 C1694 1.539 . S
C1697 H1711 0.958 . S
C1697 H1712 0.961 . S
C1697 H1713 0.960 . S
H1698 C1682 0.931 . S
H1699 C1687 0.929 . S
H1700 C1688 0.960 . S
H1701 C1688 0.962 . S
H1702 C1688 0.960 . S
H1703 C1689 0.961 . S
H1704 C1689 0.961 . S
H1705 C1689 0.961 . S
H1706 C1690 0.931 . S
H1707 C1695 0.930 . S
H1708 C1696 0.956 . S
H1709 C1696 0.961 . S
H1710 C1696 0.961 . S
H1711 C1697 0.958 . S
H1712 C1697 0.961 . S
H1713 C1697 0.960 . S
C1714 C1715 1.391 . S
C1714 C1716 1.394 . S
C1714 H1730 0.931 . S
C1715 C1714 1.391 . S
C1715 C1719 1.376 . S
C1716 C1714 1.394 . S
C1716 C1717 1.369 . S
C1716 C1720 1.531 . S
C1717 C1716 1.369 . S
C1717 C1718 1.410 . S
C1717 C1725 1.503 . S
C1718 C1717 1.410 . S
C1718 C1719 1.392 . S
C1718 C1721 1.511 . S
C1719 C1715 1.376 . S
C1719 C1718 1.392 . S
C1719 H1731 0.929 . S
C1720 C1716 1.531 . S
C1720 H1732 0.960 . S
C1720 H1733 0.962 . S
C1720 H1734 0.960 . S
C1721 C1718 1.511 . S
C1721 H1735 0.961 . S
C1721 H1736 0.961 . S
C1721 H1737 0.961 . S
C1722 C1723 1.370 . S
C1722 C1724 1.363 . S
C1722 H1738 0.931 . S
C1723 C1722 1.370 . S
C1723 C1727 1.408 . S
C1724 C1722 1.363 . S
C1724 C1725 1.370 . S
C1724 C1728 1.524 . S
C1725 C1717 1.503 . S
C1725 C1724 1.370 . S
C1725 C1726 1.403 . S
C1726 C1725 1.403 . S
C1726 C1727 1.404 . S
C1726 C1729 1.539 . S
C1727 C1723 1.408 . S
C1727 C1726 1.404 . S
C1727 H1739 0.930 . S
C1728 C1724 1.524 . S
C1728 H1740 0.956 . S
C1728 H1741 0.961 . S
C1728 H1742 0.961 . S
C1729 C1726 1.539 . S
C1729 H1743 0.958 . S
C1729 H1744 0.961 . S
C1729 H1745 0.960 . S
H1730 C1714 0.931 . S
H1731 C1719 0.929 . S
H1732 C1720 0.960 . S
H1733 C1720 0.962 . S
H1734 C1720 0.960 . S
H1735 C1721 0.961 . S
H1736 C1721 0.961 . S
H1737 C1721 0.961 . S
H1738 C1722 0.931 . S
H1739 C1727 0.930 . S
H1740 C1728 0.956 . S
H1741 C1728 0.961 . S
H1742 C1728 0.961 . S
H1743 C1729 0.958 . S
H1744 C1729 0.961 . S
H1745 C1729 0.960 . S
C1746 C1747 1.391 . S
C1746 C1748 1.394 . S
C1746 H1762 0.931 . S
C1747 C1746 1.391 . S
C1747 C1751 1.376 . S
C1748 C1746 1.394 . S
C1748 C1749 1.369 . S
C1748 C1752 1.531 . S
C1749 C1748 1.369 . S
C1749 C1750 1.410 . S
C1749 C1757 1.503 . S
C1750 C1749 1.410 . S
C1750 C1751 1.392 . S
C1750 C1753 1.511 . S
C1751 C1747 1.376 . S
C1751 C1750 1.392 . S
C1751 H1763 0.929 . S
C1752 C1748 1.531 . S
C1752 H1764 0.960 . S
C1752 H1765 0.962 . S
C1752 H1766 0.960 . S
C1753 C1750 1.511 . S
C1753 H1767 0.961 . S
C1753 H1768 0.961 . S
C1753 H1769 0.961 . S
C1754 C1755 1.370 . S
C1754 C1756 1.363 . S
C1754 H1770 0.931 . S
C1755 C1754 1.370 . S
C1755 C1759 1.408 . S
C1756 C1754 1.363 . S
C1756 C1757 1.370 . S
C1756 C1760 1.524 . S
C1757 C1749 1.503 . S
C1757 C1756 1.370 . S
C1757 C1758 1.403 . S
C1758 C1757 1.403 . S
C1758 C1759 1.404 . S
C1758 C1761 1.539 . S
C1759 C1755 1.408 . S
C1759 C1758 1.404 . S
C1759 H1771 0.930 . S
C1760 C1756 1.524 . S
C1760 H1772 0.956 . S
C1760 H1773 0.961 . S
C1760 H1774 0.961 . S
C1761 C1758 1.539 . S
C1761 H1775 0.958 . S
C1761 H1776 0.961 . S
C1761 H1777 0.960 . S
H1762 C1746 0.931 . S
H1763 C1751 0.929 . S
H1764 C1752 0.960 . S
H1765 C1752 0.962 . S
H1766 C1752 0.960 . S
H1767 C1753 0.961 . S
H1768 C1753 0.961 . S
H1769 C1753 0.961 . S
H1770 C1754 0.931 . S
H1771 C1759 0.930 . S
H1772 C1760 0.956 . S
H1773 C1760 0.961 . S
H1774 C1760 0.961 . S
H1775 C1761 0.958 . S
H1776 C1761 0.961 . S
H1777 C1761 0.960 . S
C1778 C1779 1.391 . S
C1778 C1780 1.394 . S
C1778 H1794 0.931 . S
C1779 C1778 1.391 . S
C1779 C1783 1.376 . S
C1780 C1778 1.394 . S
C1780 C1781 1.369 . S
C1780 C1784 1.531 . S
C1781 C1780 1.369 . S
C1781 C1782 1.410 . S
C1781 C1789 1.503 . S
C1782 C1781 1.410 . S
C1782 C1783 1.392 . S
C1782 C1785 1.511 . S
C1783 C1779 1.376 . S
C1783 C1782 1.392 . S
C1783 H1795 0.929 . S
C1784 C1780 1.531 . S
C1784 H1796 0.960 . S
C1784 H1797 0.962 . S
C1784 H1798 0.960 . S
C1785 C1782 1.511 . S
C1785 H1799 0.961 . S
C1785 H1800 0.961 . S
C1785 H1801 0.961 . S
C1786 C1787 1.370 . S
C1786 C1788 1.363 . S
C1786 H1802 0.931 . S
C1787 C1786 1.370 . S
C1787 C1791 1.408 . S
C1788 C1786 1.363 . S
C1788 C1789 1.370 . S
C1788 C1792 1.524 . S
C1789 C1781 1.503 . S
C1789 C1788 1.370 . S
C1789 C1790 1.403 . S
C1790 C1789 1.403 . S
C1790 C1791 1.404 . S
C1790 C1793 1.539 . S
C1791 C1787 1.408 . S
C1791 C1790 1.404 . S
C1791 H1803 0.930 . S
C1792 C1788 1.524 . S
C1792 H1804 0.956 . S
C1792 H1805 0.961 . S
C1792 H1806 0.961 . S
C1793 C1790 1.539 . S
C1793 H1807 0.958 . S
C1793 H1808 0.961 . S
C1793 H1809 0.960 . S
H1794 C1778 0.931 . S
H1795 C1783 0.929 . S
H1796 C1784 0.960 . S
H1797 C1784 0.962 . S
H1798 C1784 0.960 . S
H1799 C1785 0.961 . S
H1800 C1785 0.961 . S
H1801 C1785 0.961 . S
H1802 C1786 0.931 . S
H1803 C1791 0.930 . S
H1804 C1792 0.956 . S
H1805 C1792 0.961 . S
H1806 C1792 0.961 . S
H1807 C1793 0.958 . S
H1808 C1793 0.961 . S
H1809 C1793 0.960 . S
C1810 C1811 1.391 . S
C1810 C1812 1.394 . S
C1810 H1826 0.931 . S
C1811 C1810 1.391 . S
C1811 C1815 1.376 . S
C1812 C1810 1.394 . S
C1812 C1813 1.369 . S
C1812 C1816 1.531 . S
C1813 C1812 1.369 . S
C1813 C1814 1.410 . S
C1813 C1821 1.503 . S
C1814 C1813 1.410 . S
C1814 C1815 1.392 . S
C1814 C1817 1.511 . S
C1815 C1811 1.376 . S
C1815 C1814 1.392 . S
C1815 H1827 0.929 . S
C1816 C1812 1.531 . S
C1816 H1828 0.960 . S
C1816 H1829 0.962 . S
C1816 H1830 0.960 . S
C1817 C1814 1.511 . S
C1817 H1831 0.961 . S
C1817 H1832 0.961 . S
C1817 H1833 0.961 . S
C1818 C1819 1.370 . S
C1818 C1820 1.363 . S
C1818 H1834 0.931 . S
C1819 C1818 1.370 . S
C1819 C1823 1.408 . S
C1820 C1818 1.363 . S
C1820 C1821 1.370 . S
C1820 C1824 1.524 . S
C1821 C1813 1.503 . S
C1821 C1820 1.370 . S
C1821 C1822 1.403 . S
C1822 C1821 1.403 . S
C1822 C1823 1.404 . S
C1822 C1825 1.539 . S
C1823 C1819 1.408 . S
C1823 C1822 1.404 . S
C1823 H1835 0.930 . S
C1824 C1820 1.524 . S
C1824 H1836 0.956 . S
C1824 H1837 0.961 . S
C1824 H1838 0.961 . S
C1825 C1822 1.539 . S
C1825 H1839 0.958 . S
C1825 H1840 0.961 . S
C1825 H1841 0.960 . S
H1826 C1810 0.931 . S
H1827 C1815 0.929 . S
H1828 C1816 0.960 . S
H1829 C1816 0.962 . S
H1830 C1816 0.960 . S
H1831 C1817 0.961 . S
H1832 C1817 0.961 . S
H1833 C1817 0.961 . S
H1834 C1818 0.931 . S
H1835 C1823 0.930 . S
H1836 C1824 0.956 . S
H1837 C1824 0.961 . S
H1838 C1824 0.961 . S
H1839 C1825 0.958 . S
H1840 C1825 0.961 . S
H1841 C1825 0.960 . S
C1842 C1843 1.391 . S
C1842 C1844 1.394 . S
C1842 H1858 0.931 . S
C1843 C1842 1.391 . S
C1843 C1847 1.376 . S
C1844 C1842 1.394 . S
C1844 C1845 1.369 . S
C1844 C1848 1.531 . S
C1845 C1844 1.369 . S
C1845 C1846 1.410 . S
C1845 C1853 1.503 . S
C1846 C1845 1.410 . S
C1846 C1847 1.392 . S
C1846 C1849 1.511 . S
C1847 C1843 1.376 . S
C1847 C1846 1.392 . S
C1847 H1859 0.929 . S
C1848 C1844 1.531 . S
C1848 H1860 0.960 . S
C1848 H1861 0.962 . S
C1848 H1862 0.960 . S
C1849 C1846 1.511 . S
C1849 H1863 0.961 . S
C1849 H1864 0.961 . S
C1849 H1865 0.961 . S
C1850 C1851 1.370 . S
C1850 C1852 1.363 . S
C1850 H1866 0.931 . S
C1851 C1850 1.370 . S
C1851 C1855 1.408 . S
C1852 C1850 1.363 . S
C1852 C1853 1.370 . S
C1852 C1856 1.524 . S
C1853 C1845 1.503 . S
C1853 C1852 1.370 . S
C1853 C1854 1.403 . S
C1854 C1853 1.403 . S
C1854 C1855 1.404 . S
C1854 C1857 1.539 . S
C1855 C1851 1.408 . S
C1855 C1854 1.404 . S
C1855 H1867 0.930 . S
C1856 C1852 1.524 . S
C1856 H1868 0.956 . S
C1856 H1869 0.961 . S
C1856 H1870 0.961 . S
C1857 C1854 1.539 . S
C1857 H1871 0.958 . S
C1857 H1872 0.961 . S
C1857 H1873 0.960 . S
H1858 C1842 0.931 . S
H1859 C1847 0.929 . S
H1860 C1848 0.960 . S
H1861 C1848 0.962 . S
H1862 C1848 0.960 . S
H1863 C1849 0.961 . S
H1864 C1849 0.961 . S
H1865 C1849 0.961 . S
H1866 C1850 0.931 . S
H1867 C1855 0.930 . S
H1868 C1856 0.956 . S
H1869 C1856 0.961 . S
H1870 C1856 0.961 . S
H1871 C1857 0.958 . S
H1872 C1857 0.961 . S
H1873 C1857 0.960 . S
C1874 C1875 1.391 . S
C1874 C1876 1.394 . S
C1874 H1890 0.931 . S
C1875 C1874 1.391 . S
C1875 C1879 1.376 . S
C1876 C1874 1.394 . S
C1876 C1877 1.369 . S
C1876 C1880 1.531 . S
C1877 C1876 1.369 . S
C1877 C1878 1.410 . S
C1877 C1885 1.503 . S
C1878 C1877 1.410 . S
C1878 C1879 1.392 . S
C1878 C1881 1.511 . S
C1879 C1875 1.376 . S
C1879 C1878 1.392 . S
C1879 H1891 0.929 . S
C1880 C1876 1.531 . S
C1880 H1892 0.960 . S
C1880 H1893 0.962 . S
C1880 H1894 0.960 . S
C1881 C1878 1.511 . S
C1881 H1895 0.961 . S
C1881 H1896 0.961 . S
C1881 H1897 0.961 . S
C1882 C1883 1.370 . S
C1882 C1884 1.363 . S
C1882 H1898 0.931 . S
C1883 C1882 1.370 . S
C1883 C1887 1.408 . S
C1884 C1882 1.363 . S
C1884 C1885 1.370 . S
C1884 C1888 1.524 . S
C1885 C1877 1.503 . S
C1885 C1884 1.370 . S
C1885 C1886 1.403 . S
C1886 C1885 1.403 . S
C1886 C1887 1.404 . S
C1886 C1889 1.539 . S
C1887 C1883 1.408 . S
C1887 C1886 1.404 . S
C1887 H1899 0.930 . S
C1888 C1884 1.524 . S
C1888 H1900 0.956 . S
C1888 H1901 0.961 . S
C1888 H1902 0.961 . S
C1889 C1886 1.539 . S
C1889 H1903 0.958 . S
C1889 H1904 0.961 . S
C1889 H1905 0.960 . S
H1890 C1874 0.931 . S
H1891 C1879 0.929 . S
H1892 C1880 0.960 . S
H1893 C1880 0.962 . S
H1894 C1880 0.960 . S
H1895 C1881 0.961 . S
H1896 C1881 0.961 . S
H1897 C1881 0.961 . S
H1898 C1882 0.931 . S
H1899 C1887 0.930 . S
H1900 C1888 0.956 . S
H1901 C1888 0.961 . S
H1902 C1888 0.961 . S
H1903 C1889 0.958 . S
H1904 C1889 0.961 . S
H1905 C1889 0.960 . S
C1906 C1907 1.391 . S
C1906 C1908 1.394 . S
C1906 H1922 0.931 . S
C1907 C1906 1.391 . S
C1907 C1911 1.376 . S
C1908 C1906 1.394 . S
C1908 C1909 1.369 . S
C1908 C1912 1.531 . S
C1909 C1908 1.369 . S
C1909 C1910 1.410 . S
C1909 C1917 1.503 . S
C1910 C1909 1.410 . S
C1910 C1911 1.392 . S
C1910 C1913 1.511 . S
C1911 C1907 1.376 . S
C1911 C1910 1.392 . S
C1911 H1923 0.929 . S
C1912 C1908 1.531 . S
C1912 H1924 0.960 . S
C1912 H1925 0.962 . S
C1912 H1926 0.960 . S
C1913 C1910 1.511 . S
C1913 H1927 0.961 . S
C1913 H1928 0.961 . S
C1913 H1929 0.961 . S
C1914 C1915 1.370 . S
C1914 C1916 1.363 . S
C1914 H1930 0.931 . S
C1915 C1914 1.370 . S
C1915 C1919 1.408 . S
C1916 C1914 1.363 . S
C1916 C1917 1.370 . S
C1916 C1920 1.524 . S
C1917 C1909 1.503 . S
C1917 C1916 1.370 . S
C1917 C1918 1.403 . S
C1918 C1917 1.403 . S
C1918 C1919 1.404 . S
C1918 C1921 1.539 . S
C1919 C1915 1.408 . S
C1919 C1918 1.404 . S
C1919 H1931 0.930 . S
C1920 C1916 1.524 . S
C1920 H1932 0.956 . S
C1920 H1933 0.961 . S
C1920 H1934 0.961 . S
C1921 C1918 1.539 . S
C1921 H1935 0.958 . S
C1921 H1936 0.961 . S
C1921 H1937 0.960 . S
H1922 C1906 0.931 . S
H1923 C1911 0.929 . S
H1924 C1912 0.960 . S
H1925 C1912 0.962 . S
H1926 C1912 0.960 . S
H1927 C1913 0.961 . S
H1928 C1913 0.961 . S
H1929 C1913 0.961 . S
H1930 C1914 0.931 . S
H1931 C1919 0.930 . S
H1932 C1920 0.956 . S
H1933 C1920 0.961 . S
H1934 C1920 0.961 . S
H1935 C1921 0.958 . S
H1936 C1921 0.961 . S
H1937 C1921 0.960 . S
C1938 C1939 1.391 . S
C1938 C1940 1.394 . S
C1938 H1954 0.931 . S
C1939 C1938 1.391 . S
C1939 C1943 1.376 . S
C1940 C1938 1.394 . S
C1940 C1941 1.369 . S
C1940 C1944 1.531 . S
C1941 C1940 1.369 . S
C1941 C1942 1.410 . S
C1941 C1949 1.503 . S
C1942 C1941 1.410 . S
C1942 C1943 1.392 . S
C1942 C1945 1.511 . S
C1943 C1939 1.376 . S
C1943 C1942 1.392 . S
C1943 H1955 0.929 . S
C1944 C1940 1.531 . S
C1944 H1956 0.960 . S
C1944 H1957 0.962 . S
C1944 H1958 0.960 . S
C1945 C1942 1.511 . S
C1945 H1959 0.961 . S
C1945 H1960 0.961 . S
C1945 H1961 0.961 . S
C1946 C1947 1.370 . S
C1946 C1948 1.363 . S
C1946 H1962 0.931 . S
C1947 C1946 1.370 . S
C1947 C1951 1.408 . S
C1948 C1946 1.363 . S
C1948 C1949 1.370 . S
C1948 C1952 1.524 . S
C1949 C1941 1.503 . S
C1949 C1948 1.370 . S
C1949 C1950 1.403 . S
C1950 C1949 1.403 . S
C1950 C1951 1.404 . S
C1950 C1953 1.539 . S
C1951 C1947 1.408 . S
C1951 C1950 1.404 . S
C1951 H1963 0.930 . S
C1952 C1948 1.524 . S
C1952 H1964 0.956 . S
C1952 H1965 0.961 . S
C1952 H1966 0.961 . S
C1953 C1950 1.539 . S
C1953 H1967 0.958 . S
C1953 H1968 0.961 . S
C1953 H1969 0.960 . S
H1954 C1938 0.931 . S
H1955 C1943 0.929 . S
H1956 C1944 0.960 . S
H1957 C1944 0.962 . S
H1958 C1944 0.960 . S
H1959 C1945 0.961 . S
H1960 C1945 0.961 . S
H1961 C1945 0.961 . S
H1962 C1946 0.931 . S
H1963 C1951 0.930 . S
H1964 C1952 0.956 . S
H1965 C1952 0.961 . S
H1966 C1952 0.961 . S
H1967 C1953 0.958 . S
H1968 C1953 0.961 . S
H1969 C1953 0.960 . S
C1970 C1971 1.391 . S
C1970 C1972 1.394 . S
C1970 H1986 0.931 . S
C1971 C1970 1.391 . S
C1971 C1975 1.376 . S
C1972 C1970 1.394 . S
C1972 C1973 1.369 . S
C1972 C1976 1.531 . S
C1973 C1972 1.369 . S
C1973 C1974 1.410 . S
C1973 C1981 1.503 . S
C1974 C1973 1.410 . S
C1974 C1975 1.392 . S
C1974 C1977 1.511 . S
C1975 C1971 1.376 . S
C1975 C1974 1.392 . S
C1975 H1987 0.929 . S
C1976 C1972 1.531 . S
C1976 H1988 0.960 . S
C1976 H1989 0.962 . S
C1976 H1990 0.960 . S
C1977 C1974 1.511 . S
C1977 H1991 0.961 . S
C1977 H1992 0.961 . S
C1977 H1993 0.961 . S
C1978 C1979 1.370 . S
C1978 C1980 1.363 . S
C1978 H1994 0.931 . S
C1979 C1978 1.370 . S
C1979 C1983 1.408 . S
C1980 C1978 1.363 . S
C1980 C1981 1.370 . S
C1980 C1984 1.524 . S
C1981 C1973 1.503 . S
C1981 C1980 1.370 . S
C1981 C1982 1.403 . S
C1982 C1981 1.403 . S
C1982 C1983 1.404 . S
C1982 C1985 1.539 . S
C1983 C1979 1.408 . S
C1983 C1982 1.404 . S
C1983 H1995 0.930 . S
C1984 C1980 1.524 . S
C1984 H1996 0.956 . S
C1984 H1997 0.961 . S
C1984 H1998 0.961 . S
C1985 C1982 1.539 . S
C1985 H1999 0.958 . S
C1985 H2000 0.961 . S
C1985 H2001 0.960 . S
H1986 C1970 0.931 . S
H1987 C1975 0.929 . S
H1988 C1976 0.960 . S
H1989 C1976 0.962 . S
H1990 C1976 0.960 . S
H1991 C1977 0.961 . S
H1992 C1977 0.961 . S
H1993 C1977 0.961 . S
H1994 C1978 0.931 . S
H1995 C1983 0.930 . S
H1996 C1984 0.956 . S
H1997 C1984 0.961 . S
H1998 C1984 0.961 . S
H1999 C1985 0.958 . S
H2000 C1985 0.961 . S
H2001 C1985 0.960 . S
C2002 C2003 1.391 . S
C2002 C2004 1.394 . S
C2002 H2018 0.931 . S
C2003 C2002 1.391 . S
C2003 C2007 1.376 . S
C2004 C2002 1.394 . S
C2004 C2005 1.369 . S
C2004 C2008 1.531 . S
C2005 C2004 1.369 . S
C2005 C2006 1.410 . S
C2005 C2013 1.503 . S
C2006 C2005 1.410 . S
C2006 C2007 1.392 . S
C2006 C2009 1.511 . S
C2007 C2003 1.376 . S
C2007 C2006 1.392 . S
C2007 H2019 0.929 . S
C2008 C2004 1.531 . S
C2008 H2020 0.960 . S
C2008 H2021 0.962 . S
C2008 H2022 0.960 . S
C2009 C2006 1.511 . S
C2009 H2023 0.961 . S
C2009 H2024 0.961 . S
C2009 H2025 0.961 . S
C2010 C2011 1.370 . S
C2010 C2012 1.363 . S
C2010 H2026 0.931 . S
C2011 C2010 1.370 . S
C2011 C2015 1.408 . S
C2012 C2010 1.363 . S
C2012 C2013 1.370 . S
C2012 C2016 1.524 . S
C2013 C2005 1.503 . S
C2013 C2012 1.370 . S
C2013 C2014 1.403 . S
C2014 C2013 1.403 . S
C2014 C2015 1.404 . S
C2014 C2017 1.539 . S
C2015 C2011 1.408 . S
C2015 C2014 1.404 . S
C2015 H2027 0.930 . S
C2016 C2012 1.524 . S
C2016 H2028 0.956 . S
C2016 H2029 0.961 . S
C2016 H2030 0.961 . S
C2017 C2014 1.539 . S
C2017 H2031 0.958 . S
C2017 H2032 0.961 . S
C2017 H2033 0.960 . S
H2018 C2002 0.931 . S
H2019 C2007 0.929 . S
H2020 C2008 0.960 . S
H2021 C2008 0.962 . S
H2022 C2008 0.960 . S
H2023 C2009 0.961 . S
H2024 C2009 0.961 . S
H2025 C2009 0.961 . S
H2026 C2010 0.931 . S
H2027 C2015 0.930 . S
H2028 C2016 0.956 . S
H2029 C2016 0.961 . S
H2030 C2016 0.961 . S
H2031 C2017 0.958 . S
H2032 C2017 0.961 . S
H2033 C2017 0.960 . S
C595 C7 1.059 . S
C603 C252 1.120 . S
C627 C40 1.071 . S
C635 C285 1.119 . S
C659 C73 1.102 . S
C667 C219 1.116 . S
C691 C549 1.115 . S
C699 C106 1.070 . S
C723 C139 1.080 . S
C731 C582 1.115 . S
C755 C172 1.118 . S
C763 C516 1.112 . S
C787 C205 1.111 . S
C795 C450 1.114 . S
C819 C483 1.124 . S
C827 C238 1.064 . S
C851 C417 1.122 . S
C859 C271 1.069 . S
C883 C304 1.116 . S
C891 C153 1.112 1_554 S
C915 C337 1.118 . S
C923 C186 1.112 1_554 S
C947 C370 1.072 . S
C955 C120 1.118 1_554 S
C979 C403 1.110 . S
C987 C54 1.112 1_556 S
C1011 C436 1.026 . S
C1019 C87 1.121 1_556 S
C1043 C21 1.104 1_556 S
C1051 C469 1.085 . S
C1075 C351 1.120 . S
C1083 C502 1.062 . S
C1107 C535 1.031 . S
C1115 C384 1.121 . S
C1139 C568 1.065 . S
C1147 C318 1.117 . S
C1171 N508 1.622 . S
C1179 N13 1.597 . S
C1203 N541 1.601 . S
C1211 N46 1.610 . S
C1235 N79 1.601 . S
C1243 N574 1.605 . S
C1267 N112 1.600 . S
C1275 N211 1.606 . S
C1299 N145 1.595 . S
C1307 N244 1.608 . S
C1331 N277 1.578 . S
C1339 N178 1.615 . S
C1363 N310 1.628 . S
C1371 N409 1.595 . S
C1395 N442 1.567 . S
C1403 N343 1.621 . S
C1427 N475 1.620 . S
C1435 N376 1.602 . S
C1459 N2 1.484 . S
C1467 C150 1.512 . S
C1491 C183 1.473 . S
C1499 N35 1.515 . S
C1523 N68 1.527 . S
C1531 C117 1.493 . S
C1555 C51 1.474 . S
C1563 N101 1.513 . S
C1587 N134 1.514 . S
C1595 C84 1.494 . S
C1619 C18 1.491 . S
C1627 N167 1.502 . S
C1651 N200 1.486 . S
C1659 C348 1.508 . S
C1683 C381 1.522 . S
C1691 N233 1.497 . S
C1715 C315 1.525 . S
C1723 N266 1.493 . S
C1747 N299 1.505 . S
C1755 C249 1.508 . S
C1779 C282 1.493 . S
C1787 N332 1.512 . S
C1811 N365 1.475 . S
C1819 C216 1.511 . S
C1843 C546 1.512 . S
C1851 N398 1.497 . S
C1875 C579 1.519 . S
C1883 N431 1.495 . S
C1907 C513 1.526 . S
C1915 N464 1.493 . S
C1939 C447 1.495 . S
C1947 N497 1.501 . S
C1971 C480 1.505 . S
C1979 N530 1.497 . S
C2003 N563 1.495 . S
C2011 C414 1.511 . S
