# Generated by pormake.
# Topology ukb, (4)-cn, num edge types: 1
# Building blocks:
#     Node 0, Type 0, BuildingBlock: ICAMEG_clean_sbu_1, # of connection points: 4
#     Node 1, Type 0, BuildingBlock: ICAMEG_clean_sbu_1, # of connection points: 4
#     Node 2, Type 0, BuildingBlock: ICAMEG_clean_sbu_1, # of connection points: 4
#     Node 3, Type 0, BuildingBlock: ICAMEG_clean_sbu_1, # of connection points: 4
#     Node 4, Type 0, BuildingBlock: ICAMEG_clean_sbu_1, # of connection points: 4
#     Node 5, Type 0, BuildingBlock: ICAMEG_clean_sbu_1, # of connection points: 4
#     Node 6, Type 0, BuildingBlock: ICAMEG_clean_sbu_1, # of connection points: 4
#     Node 7, Type 0, BuildingBlock: ICAMEG_clean_sbu_1, # of connection points: 4
#     Node 8, Type 0, BuildingBlock: ICAMEG_clean_sbu_1, # of connection points: 4
#     Node 9, Type 0, BuildingBlock: ICAMEG_clean_sbu_1, # of connection points: 4
#     Node 10, Type 0, BuildingBlock: ICAMEG_clean_sbu_1, # of connection points: 4
#     Node 11, Type 0, BuildingBlock: ICAMEG_clean_sbu_1, # of connection points: 4
#     Node 12, Type 0, BuildingBlock: ICAMEG_clean_sbu_1, # of connection points: 4
#     Node 13, Type 0, BuildingBlock: ICAMEG_clean_sbu_1, # of connection points: 4
#     Node 14, Type 0, BuildingBlock: ICAMEG_clean_sbu_1, # of connection points: 4
#     Node 15, Type 0, BuildingBlock: ICAMEG_clean_sbu_1, # of connection points: 4
#     Edge 16, Type (0, 0), BuildingBlock: ZUJKAS_clean_linker_0, # of connection points: 2
#     Edge 17, Type (0, 0), BuildingBlock: ZUJKAS_clean_linker_0, # of connection points: 2
#     Edge 18, Type (0, 0), BuildingBlock: ZUJKAS_clean_linker_0, # of connection points: 2
#     Edge 19, Type (0, 0), BuildingBlock: ZUJKAS_clean_linker_0, # of connection points: 2
#     Edge 20, Type (0, 0), BuildingBlock: ZUJKAS_clean_linker_0, # of connection points: 2
#     Edge 21, Type (0, 0), BuildingBlock: ZUJKAS_clean_linker_0, # of connection points: 2
#     Edge 22, Type (0, 0), BuildingBlock: ZUJKAS_clean_linker_0, # of connection points: 2
#     Edge 23, Type (0, 0), BuildingBlock: ZUJKAS_clean_linker_0, # of connection points: 2
#     Edge 24, Type (0, 0), BuildingBlock: ZUJKAS_clean_linker_0, # of connection points: 2
#     Edge 25, Type (0, 0), BuildingBlock: ZUJKAS_clean_linker_0, # of connection points: 2
#     Edge 26, Type (0, 0), BuildingBlock: ZUJKAS_clean_linker_0, # of connection points: 2
#     Edge 27, Type (0, 0), BuildingBlock: ZUJKAS_clean_linker_0, # of connection points: 2
#     Edge 28, Type (0, 0), BuildingBlock: ZUJKAS_clean_linker_0, # of connection points: 2
#     Edge 29, Type (0, 0), BuildingBlock: ZUJKAS_clean_linker_0, # of connection points: 2
#     Edge 30, Type (0, 0), BuildingBlock: ZUJKAS_clean_linker_0, # of connection points: 2
#     Edge 31, Type (0, 0), BuildingBlock: ZUJKAS_clean_linker_0, # of connection points: 2
#     Edge 32, Type (0, 0), BuildingBlock: ZUJKAS_clean_linker_0, # of connection points: 2
#     Edge 33, Type (0, 0), BuildingBlock: ZUJKAS_clean_linker_0, # of connection points: 2
#     Edge 34, Type (0, 0), BuildingBlock: ZUJKAS_clean_linker_0, # of connection points: 2
#     Edge 35, Type (0, 0), BuildingBlock: ZUJKAS_clean_linker_0, # of connection points: 2
#     Edge 36, Type (0, 0), BuildingBlock: ZUJKAS_clean_linker_0, # of connection points: 2
#     Edge 37, Type (0, 0), BuildingBlock: ZUJKAS_clean_linker_0, # of connection points: 2
#     Edge 38, Type (0, 0), BuildingBlock: ZUJKAS_clean_linker_0, # of connection points: 2
#     Edge 39, Type (0, 0), BuildingBlock: ZUJKAS_clean_linker_0, # of connection points: 2
#     Edge 40, Type (0, 0), BuildingBlock: ZUJKAS_clean_linker_0, # of connection points: 2
#     Edge 41, Type (0, 0), BuildingBlock: ZUJKAS_clean_linker_0, # of connection points: 2
#     Edge 42, Type (0, 0), BuildingBlock: ZUJKAS_clean_linker_0, # of connection points: 2
#     Edge 43, Type (0, 0), BuildingBlock: ZUJKAS_clean_linker_0, # of connection points: 2
#     Edge 44, Type (0, 0), BuildingBlock: ZUJKAS_clean_linker_0, # of connection points: 2
#     Edge 45, Type (0, 0), BuildingBlock: ZUJKAS_clean_linker_0, # of connection points: 2
#     Edge 46, Type (0, 0), BuildingBlock: ZUJKAS_clean_linker_0, # of connection points: 2
#     Edge 47, Type (0, 0), BuildingBlock: ZUJKAS_clean_linker_0, # of connection points: 2
# Relax obj value: 0.077
# Max RMSD: 0.092
# Mean RMSD: 0.092
data_MOF--net-ukb--node1-ICAMEG_clean_sbu_1--edge1-ZUJKAS_clean_linker_0
_symmetry_space_group_name_H-M    P1
_symmetry_Int_Tables_number       1
_symmetry_cell_setting            triclinic
loop_
_symmetry_equiv_pos_as_xyz
'x, y, z'
_cell_length_a     59.21374
_cell_length_b     59.207105
_cell_length_c     54.313298
_cell_angle_alpha  89.985609
_cell_angle_beta   90.010085
_cell_angle_gamma 89.998606
loop_
_atom_site_label
_atom_site_type_symbol
_atom_site_fract_x
_atom_site_fract_y
_atom_site_fract_z
_atom_type_partial_charge
Co0 Co 0.56735 0.19026 0.16271 0.0
Co1 Co 0.53362 0.19924 0.21379 0.0
O2 O 0.53817 0.18935 0.17968 0.0
C3 C 0.5375 0.21602 0.12874 0.0
O4 O 0.52905 0.22658 0.1479 0.0
C5 C 0.51633 0.15226 0.2137 0.0
O6 O 0.53387 0.14663 0.20027 0.0
O7 O 0.55997 0.18116 0.2255 0.0
O8 O 0.58326 0.17977 0.19296 0.0
H9 H 0.55791 0.22981 0.29592 0.0
H10 H 0.5293 0.16518 0.14022 0.0
O11 O 0.5524 0.20075 0.13167 0.0
H12 H 0.58901 0.10842 0.15359 0.0
H13 H 0.61963 0.17774 0.09088 0.0
H14 H 0.61322 0.20628 0.17588 0.0
H15 H 0.59529 0.14829 0.16475 0.0
H16 H 0.5832 0.17631 0.11282 0.0
O17 O 0.51342 0.17271 0.22026 0.0
H18 H 0.56337 0.21741 0.25297 0.0
H19 H 0.4936 0.20167 0.24705 0.0
H20 H 0.65003 0.20786 0.15469 0.0
H21 H 0.52238 0.12551 0.12857 0.0
H22 H 0.6534 0.19353 0.11187 0.0
H23 H 0.55234 0.09681 0.13532 0.0
O24 O 0.57229 0.22229 0.17264 0.0
H25 H 0.46155 0.21162 0.1669 0.0
H26 H 0.51832 0.24682 0.22112 0.0
H27 H 0.48629 0.26956 0.20603 0.0
H28 H 0.45761 0.25195 0.17874 0.0
H29 H 0.49398 0.18955 0.18224 0.0
H30 H 0.48742 0.21371 0.29 0.0
H31 H 0.51971 0.22799 0.3147 0.0
O32 O 0.55364 0.22594 0.20843 0.0
C33 C 0.57879 0.17603 0.21554 0.0
C34 C 0.5437 0.22368 0.28532 0.0
C35 C 0.50414 0.21462 0.28201 0.0
N36 N 0.5288 0.20899 0.24747 0.0
C37 C 0.54668 0.2167 0.26097 0.0
C38 C 0.50775 0.20778 0.25772 0.0
C39 C 0.52226 0.22264 0.29585 0.0
C40 C 0.5425 0.15282 0.14298 0.0
N41 N 0.5627 0.15906 0.15306 0.0
C42 C 0.53845 0.13037 0.13644 0.0
C43 C 0.55525 0.11427 0.14028 0.0
C44 C 0.57582 0.12077 0.15054 0.0
C45 C 0.57926 0.14337 0.15689 0.0
C46 C 0.61839 0.18401 0.10954 0.0
C47 C 0.61459 0.1999 0.1573 0.0
C48 C 0.59779 0.18329 0.12205 0.0
N49 N 0.59612 0.19108 0.14566 0.0
C50 C 0.63546 0.20089 0.14537 0.0
C51 C 0.63733 0.19286 0.12134 0.0
C52 C 0.56691 0.23348 0.19184 0.0
C53 C 0.47392 0.21947 0.17882 0.0
C54 C 0.50596 0.23906 0.20918 0.0
C55 C 0.48783 0.252 0.20074 0.0
C56 C 0.47173 0.24211 0.18545 0.0
N57 N 0.50798 0.21686 0.20262 0.0
C58 C 0.49226 0.20704 0.18764 0.0
Co59 Co 0.31427 0.56848 0.6615 0.0
Co60 Co 0.3047 0.53477 0.71249 0.0
O61 O 0.31489 0.53926 0.67847 0.0
C62 C 0.2886 0.53879 0.6273 0.0
O63 O 0.27794 0.53032 0.64638 0.0
C64 C 0.35152 0.51699 0.7129 0.0
O65 O 0.35747 0.53439 0.6994 0.0
O66 O 0.3229 0.56096 0.72435 0.0
O67 O 0.32463 0.5843 0.69186 0.0
H68 H 0.27372 0.55932 0.79433 0.0
H69 H 0.33928 0.5303 0.6392 0.0
O70 O 0.30391 0.55363 0.63035 0.0
H71 H 0.39629 0.58965 0.6531 0.0
H72 H 0.32763 0.62076 0.58981 0.0
H73 H 0.29842 0.61444 0.67456 0.0
H74 H 0.35638 0.59616 0.66394 0.0
H75 H 0.32869 0.58429 0.61175 0.0
O76 O 0.33099 0.51434 0.71924 0.0
H77 H 0.2865 0.56468 0.7515 0.0
H78 H 0.30163 0.49476 0.74571 0.0
H79 H 0.29721 0.65127 0.65338 0.0
H80 H 0.37899 0.52315 0.62787 0.0
H81 H 0.31188 0.6546 0.61069 0.0
H82 H 0.40782 0.55294 0.6349 0.0
O83 O 0.28219 0.57361 0.67111 0.0
H84 H 0.29211 0.46281 0.6655 0.0
H85 H 0.25693 0.51987 0.71935 0.0
H86 H 0.23406 0.48802 0.70405 0.0
H87 H 0.25166 0.45919 0.67695 0.0
H88 H 0.31431 0.49506 0.68105 0.0
H89 H 0.2892 0.48867 0.78855 0.0
H90 H 0.27503 0.52108 0.81313 0.0
O91 O 0.27821 0.55501 0.70689 0.0
C92 C 0.32822 0.57976 0.71446 0.0
C93 C 0.27979 0.54505 0.78379 0.0
C94 C 0.28851 0.5054 0.78055 0.0
N95 N 0.29464 0.53003 0.74607 0.0
C96 C 0.28699 0.54797 0.75951 0.0
C97 C 0.29557 0.50896 0.75633 0.0
C98 C 0.28055 0.52359 0.79433 0.0
C99 C 0.3517 0.54342 0.64208 0.0
N100 N 0.34551 0.56364 0.65212 0.0
C101 C 0.37417 0.53924 0.63573 0.0
C102 C 0.39034 0.55595 0.63971 0.0
C103 C 0.38389 0.57655 0.64994 0.0
C104 C 0.36127 0.58011 0.6561 0.0
C105 C 0.32122 0.61954 0.60842 0.0
C106 C 0.30496 0.61578 0.65603 0.0
C107 C 0.32173 0.59892 0.62092 0.0
N108 N 0.31375 0.59727 0.64446 0.0
C109 C 0.30417 0.63667 0.64411 0.0
C110 C 0.31239 0.63852 0.62015 0.0
C111 C 0.27085 0.5683 0.69022 0.0
C112 C 0.28426 0.47523 0.67734 0.0
C113 C 0.26469 0.50745 0.70749 0.0
C114 C 0.25167 0.48941 0.69894 0.0
C115 C 0.26156 0.47323 0.68375 0.0
N116 N 0.28695 0.50928 0.70115 0.0
C117 C 0.29677 0.49348 0.68628 0.0
Co118 Co 0.93686 0.31424 0.16121 0.0
Co119 Co 0.97196 0.30561 0.21117 0.0
O120 O 0.96641 0.31557 0.17731 0.0
C121 C 0.96642 0.28937 0.12626 0.0
O122 O 0.97546 0.27885 0.14514 0.0
C123 C 0.98826 0.35292 0.21162 0.0
O124 O 0.96936 0.35856 0.20057 0.0
O125 O 0.94574 0.3234 0.22377 0.0
O126 O 0.92152 0.32417 0.19201 0.0
H127 H 0.95035 0.27473 0.29406 0.0
H128 H 0.97394 0.3403 0.13814 0.0
O129 O 0.95126 0.3043 0.12965 0.0
H130 H 0.91338 0.3957 0.15353 0.0
H131 H 0.88262 0.32628 0.091 0.0
H132 H 0.89164 0.29725 0.17554 0.0
H133 H 0.90812 0.35559 0.16434 0.0
H134 H 0.91955 0.32825 0.11192 0.0
O135 O 0.99219 0.33229 0.2168 0.0
H136 H 0.94352 0.28714 0.25134 0.0
H137 H 0.01294 0.30349 0.24302 0.0
H138 H 0.85437 0.29511 0.15539 0.0
H139 H 0.97985 0.38024 0.12684 0.0
H140 H 0.84969 0.30969 0.1128 0.0
H141 H 0.94944 0.40825 0.1346 0.0
O142 O 0.93279 0.28205 0.17098 0.0
H143 H 0.04281 0.29384 0.16196 0.0
H144 H 0.98778 0.25813 0.21789 0.0
H145 H 0.01955 0.23565 0.20173 0.0
H146 H 0.04736 0.25352 0.17358 0.0
H147 H 0.01066 0.31565 0.17837 0.0
H148 H 0.02049 0.29144 0.28572 0.0
H149 H 0.98907 0.27685 0.31151 0.0
O150 O 0.95198 0.27875 0.20647 0.0
C151 C 0.92653 0.32807 0.21443 0.0
C152 C 0.96419 0.281 0.28299 0.0
C153 C 0.00355 0.29041 0.27832 0.0
N154 N 0.97784 0.29587 0.24466 0.0
C155 C 0.96044 0.28799 0.25877 0.0
C156 C 0.99917 0.29725 0.25417 0.0
C157 C 0.98592 0.28221 0.29277 0.0
C158 C 0.96056 0.35237 0.14135 0.0
N159 N 0.94068 0.34561 0.15177 0.0
C160 C 0.96403 0.37496 0.13501 0.0
C161 C 0.94698 0.39068 0.1394 0.0
C162 C 0.92674 0.38365 0.15003 0.0
C163 C 0.92388 0.36092 0.15617 0.0
C164 C 0.88444 0.31991 0.10957 0.0
C165 C 0.8897 0.30374 0.15706 0.0
C166 C 0.90531 0.32093 0.12149 0.0
N167 N 0.9077 0.313 0.14498 0.0
C168 C 0.86857 0.30244 0.14572 0.0
C169 C 0.86596 0.3106 0.12182 0.0
C170 C 0.93858 0.27099 0.19013 0.0
C171 C 0.03083 0.28588 0.17425 0.0
C172 C 0.99976 0.266 0.20557 0.0
C173 C 0.01775 0.2532 0.19654 0.0
C174 C 0.03336 0.26325 0.18076 0.0
N175 N 0.99741 0.2882 0.19912 0.0
C176 C 0.01265 0.29816 0.18368 0.0
Co177 Co 0.19274 0.93701 0.6628 0.0
Co178 Co 0.19977 0.97151 0.71337 0.0
O179 O 0.19028 0.96639 0.67923 0.0
C180 C 0.21601 0.96761 0.62757 0.0
O181 O 0.22659 0.97687 0.64627 0.0
C182 C 0.15265 0.98851 0.71269 0.0
O183 O 0.14711 0.97063 0.69975 0.0
O184 O 0.18157 0.94529 0.72506 0.0
O185 O 0.18414 0.92078 0.69365 0.0
H186 H 0.22931 0.94849 0.79639 0.0
H187 H 0.16462 0.97279 0.64014 0.0
O188 O 0.20149 0.9521 0.63121 0.0
H189 H 0.11239 0.90969 0.65656 0.0
H190 H 0.18201 0.8828 0.59233 0.0
H191 H 0.21258 0.89267 0.6761 0.0
H192 H 0.15284 0.90636 0.66675 0.0
H193 H 0.17853 0.91938 0.61372 0.0
O194 O 0.1731 0.99172 0.71909 0.0
H195 H 0.21747 0.94237 0.75335 0.0
H196 H 0.20164 0.01202 0.74598 0.0
H197 H 0.21626 0.85575 0.65547 0.0
H198 H 0.12432 0.97675 0.62942 0.0
H199 H 0.20092 0.85064 0.61327 0.0
H200 H 0.0979 0.94507 0.63771 0.0
O201 O 0.22515 0.9345 0.67197 0.0
H202 H 0.21248 0.04304 0.6656 0.0
H203 H 0.2472 0.9871 0.72123 0.0
H204 H 0.26999 0.01905 0.70604 0.0
H205 H 0.25262 0.04733 0.67805 0.0
H206 H 0.19036 0.01068 0.68106 0.0
H207 H 0.21311 0.01885 0.78901 0.0
H208 H 0.22716 0.98695 0.81448 0.0
O209 O 0.22672 0.9515 0.70886 0.0
C210 C 0.17881 0.92573 0.71573 0.0
C211 C 0.22328 0.96253 0.78545 0.0
C212 C 0.21416 1.00202 0.78132 0.0
N213 N 0.20903 0.97684 0.74713 0.0
C214 C 0.21661 0.95918 0.76106 0.0
C215 C 0.20764 0.99804 0.75699 0.0
C216 C 0.22205 0.98412 0.7956 0.0
C217 C 0.15326 0.95885 0.64356 0.0
N218 N 0.16108 0.93935 0.65396 0.0
C219 C 0.13045 0.96122 0.63755 0.0
C220 C 0.11562 0.94345 0.64225 0.0
C221 C 0.12374 0.92361 0.65285 0.0
C222 C 0.14665 0.92185 0.65864 0.0
C223 C 0.18872 0.8848 0.61074 0.0
C224 C 0.20571 0.89053 0.65781 0.0
C225 C 0.18683 0.90548 0.62293 0.0
N226 N 0.19517 0.90809 0.64622 0.0
C227 C 0.20791 0.86961 0.64619 0.0
C228 C 0.19932 0.86676 0.6225 0.0
C229 C 0.23543 0.9394 0.69189 0.0
C230 C 0.22022 0.03086 0.67784 0.0
C231 C 0.23954 0.99927 0.70897 0.0
C232 C 0.25252 0.01737 0.70049 0.0
C233 C 0.24275 0.03324 0.6848 0.0
N234 N 0.21745 0.99707 0.70208 0.0
C235 C 0.20776 0.01256 0.68672 0.0
Co236 Co 0.56599 0.31204 0.84516 0.0
Co237 Co 0.53122 0.30496 0.79482 0.0
O238 O 0.53645 0.31414 0.82902 0.0
C239 C 0.5359 0.28799 0.88027 0.0
O240 O 0.52679 0.27741 0.86149 0.0
C241 C 0.51352 0.35176 0.79621 0.0
O242 O 0.53156 0.35742 0.80883 0.0
O243 O 0.55697 0.32382 0.78317 0.0
O244 O 0.58181 0.32132 0.81429 0.0
H245 H 0.55408 0.27687 0.71117 0.0
H246 H 0.52987 0.3393 0.86841 0.0
O247 O 0.55126 0.3027 0.87675 0.0
H248 H 0.59195 0.39279 0.85218 0.0
H249 H 0.62053 0.3229 0.91532 0.0
H250 H 0.61061 0.29329 0.83116 0.0
H251 H 0.59592 0.35251 0.84151 0.0
H252 H 0.58372 0.32592 0.89431 0.0
O253 O 0.51047 0.33131 0.7897 0.0
H254 H 0.56034 0.2883 0.75431 0.0
H255 H 0.49049 0.30273 0.76257 0.0
H256 H 0.64775 0.29008 0.85139 0.0
H257 H 0.52528 0.37942 0.87962 0.0
H258 H 0.65289 0.30495 0.89379 0.0
H259 H 0.55645 0.40648 0.87142 0.0
O260 O 0.56901 0.27978 0.83554 0.0
H261 H 0.46035 0.29028 0.84303 0.0
H262 H 0.5165 0.25732 0.78644 0.0
H263 H 0.48512 0.23372 0.80159 0.0
H264 H 0.45674 0.25021 0.83007 0.0
H265 H 0.49214 0.31321 0.8276 0.0
H266 H 0.4835 0.29166 0.71945 0.0
H267 H 0.51543 0.27852 0.69348 0.0
O268 O 0.55179 0.27834 0.79875 0.0
C269 C 0.57653 0.3269 0.79236 0.0
C270 C 0.54002 0.2825 0.72232 0.0
C271 C 0.50041 0.29083 0.72696 0.0
N272 N 0.52578 0.29601 0.76098 0.0
C273 C 0.54345 0.28894 0.74678 0.0
C274 C 0.50448 0.29713 0.75134 0.0
C275 C 0.51833 0.28345 0.7124 0.0
C276 C 0.54359 0.35094 0.86504 0.0
N277 N 0.56316 0.34356 0.85442 0.0
C278 C 0.54086 0.37365 0.87132 0.0
C279 C 0.55834 0.38883 0.86668 0.0
C280 C 0.57826 0.38116 0.85586 0.0
C281 C 0.58038 0.35834 0.8498 0.0
C282 C 0.61851 0.3164 0.89683 0.0
C283 C 0.61275 0.29994 0.84954 0.0
C284 C 0.5977 0.31803 0.88485 0.0
N285 N 0.59507 0.30995 0.86145 0.0
C286 C 0.63381 0.29801 0.86094 0.0
C287 C 0.63667 0.30633 0.88473 0.0
C288 C 0.56418 0.26966 0.81551 0.0
C289 C 0.47258 0.28292 0.83058 0.0
C290 C 0.50428 0.26459 0.79891 0.0
C291 C 0.48651 0.25116 0.80737 0.0
C292 C 0.47058 0.26043 0.82333 0.0
N293 N 0.50611 0.28664 0.80609 0.0
C294 C 0.49055 0.29584 0.82172 0.0
Co295 Co 0.19008 0.56764 0.34441 0.0
Co296 Co 0.19919 0.53291 0.29424 0.0
O297 O 0.18903 0.5382 0.32808 0.0
C298 C 0.21518 0.53809 0.37919 0.0
O299 O 0.22578 0.52926 0.36026 0.0
C300 C 0.15192 0.51656 0.2934 0.0
O301 O 0.14625 0.53536 0.30462 0.0
O302 O 0.18143 0.55918 0.2817 0.0
O303 O 0.18008 0.58311 0.31369 0.0
H304 H 0.23054 0.55515 0.21176 0.0
H305 H 0.1643 0.53018 0.36712 0.0
O306 O 0.20009 0.55312 0.37588 0.0
H307 H 0.1084 0.59034 0.35199 0.0
H308 H 0.17741 0.6213 0.415 0.0
H309 H 0.20671 0.61311 0.33048 0.0
H310 H 0.14848 0.59604 0.34136 0.0
H311 H 0.17581 0.5845 0.39378 0.0
O312 O 0.17256 0.51268 0.28826 0.0
H313 H 0.21787 0.56166 0.25444 0.0
H314 H 0.20154 0.49215 0.26207 0.0
H315 H 0.20847 0.65027 0.35092 0.0
H316 H 0.1244 0.52383 0.37824 0.0
H317 H 0.19376 0.65453 0.3935 0.0
H318 H 0.09614 0.55403 0.3706 0.0
O319 O 0.22224 0.57206 0.33477 0.0
H320 H 0.21079 0.46171 0.34297 0.0
H321 H 0.24672 0.51721 0.28775 0.0
H322 H 0.26916 0.48535 0.3038 0.0
H323 H 0.25118 0.45731 0.33159 0.0
H324 H 0.18903 0.49395 0.32666 0.0
H325 H 0.21385 0.48493 0.2194 0.0
H326 H 0.22856 0.51655 0.19398 0.0
O327 O 0.22599 0.5529 0.29931 0.0
C328 C 0.17646 0.57826 0.29118 0.0
C329 C 0.22422 0.54122 0.22268 0.0
C330 C 0.21482 0.50181 0.22696 0.0
N331 N 0.20913 0.52728 0.26078 0.0
C332 C 0.21708 0.54479 0.24687 0.0
C333 C 0.20783 0.50602 0.25108 0.0
C334 C 0.22309 0.51956 0.21271 0.0
C335 C 0.15213 0.54347 0.36397 0.0
N336 N 0.15873 0.56348 0.35372 0.0
C337 C 0.12955 0.53975 0.37021 0.0
C338 C 0.11369 0.55669 0.36588 0.0
C339 C 0.12056 0.57706 0.35543 0.0
C340 C 0.14328 0.58017 0.34939 0.0
C341 C 0.18384 0.61966 0.39643 0.0
C342 C 0.20015 0.61487 0.34895 0.0
C343 C 0.18303 0.59886 0.38435 0.0
N344 N 0.19103 0.5967 0.36086 0.0
C345 C 0.20125 0.63593 0.36046 0.0
C346 C 0.19301 0.6383 0.38435 0.0
C347 C 0.23351 0.56633 0.31575 0.0
C348 C 0.2188 0.47379 0.33082 0.0
C349 C 0.2388 0.50513 0.29991 0.0
C350 C 0.25158 0.48709 0.30889 0.0
C351 C 0.24147 0.47135 0.32446 0.0
N352 N 0.21657 0.5074 0.30621 0.0
C353 C 0.20654 0.49203 0.32146 0.0
Co354 Co 0.93708 0.19057 0.84354 0.0
Co355 Co 0.972 0.19993 0.79339 0.0
O356 O 0.96658 0.18973 0.82723 0.0
C357 C 0.96632 0.21658 0.8779 0.0
O358 O 0.97517 0.22691 0.85881 0.0
C359 C 0.98831 0.15253 0.79325 0.0
O360 O 0.97054 0.14709 0.80642 0.0
O361 O 0.94537 0.18272 0.78077 0.0
O362 O 0.92188 0.17983 0.81304 0.0
H363 H 0.94996 0.23253 0.71142 0.0
H364 H 0.97491 0.16592 0.86704 0.0
O365 O 0.95138 0.20137 0.87482 0.0
H366 H 0.91591 0.10861 0.85275 0.0
H367 H 0.88364 0.1781 0.91438 0.0
H368 H 0.89125 0.20589 0.82918 0.0
H369 H 0.90954 0.14838 0.84116 0.0
H370 H 0.92048 0.1769 0.89323 0.0
O371 O 0.99162 0.17298 0.78688 0.0
H372 H 0.94346 0.21964 0.75404 0.0
H373 H 0.0126 0.20159 0.76088 0.0
H374 H 0.85405 0.20723 0.84956 0.0
H375 H 0.98193 0.12636 0.87912 0.0
H376 H 0.85008 0.19328 0.89248 0.0
H377 H 0.95232 0.09739 0.8719 0.0
O378 O 0.93197 0.2225 0.83324 0.0
H379 H 0.04327 0.20965 0.84243 0.0
H380 H 0.9892 0.24693 0.78663 0.0
H381 H 0.02156 0.26854 0.80281 0.0
H382 H 0.0489 0.24986 0.83091 0.0
H383 H 0.01052 0.18876 0.82599 0.0
H384 H 0.0198 0.21407 0.71826 0.0
H385 H 0.98836 0.22977 0.69327 0.0
O386 O 0.95265 0.22711 0.79888 0.0
C387 C 0.92657 0.17693 0.79037 0.0
C388 C 0.96381 0.22578 0.72215 0.0
C389 C 0.003 0.21539 0.72598 0.0
N390 N 0.97766 0.21003 0.75998 0.0
C391 C 0.96025 0.21852 0.74631 0.0
C392 C 0.99881 0.2083 0.75008 0.0
C393 C 0.98536 0.22421 0.71197 0.0
C394 C 0.96187 0.15344 0.86408 0.0
N395 N 0.94181 0.15947 0.85352 0.0
C396 C 0.96597 0.13105 0.87085 0.0
C397 C 0.94936 0.1148 0.86676 0.0
C398 C 0.92894 0.12108 0.856 0.0
C399 C 0.92544 0.14362 0.84942 0.0
C400 C 0.88515 0.18421 0.89567 0.0
C401 C 0.88963 0.19968 0.84782 0.0
C402 C 0.90598 0.18363 0.88362 0.0
N403 N 0.90799 0.19123 0.85996 0.0
C404 C 0.86854 0.20053 0.85928 0.0
C405 C 0.86632 0.19272 0.88336 0.0
C406 C 0.93849 0.23419 0.81482 0.0
C407 C 0.03149 0.21797 0.83019 0.0
C408 C 1.00092 0.23875 0.79897 0.0
C409 C 0.01927 0.25103 0.808 0.0
C410 C 0.03462 0.24054 0.82374 0.0
N411 N 0.99795 0.21663 0.80539 0.0
C412 C 0.01295 0.20621 0.82077 0.0
Co413 Co 0.3139 0.9361 0.3436 0.0
Co414 Co 0.30525 0.97046 0.29296 0.0
O415 O 0.31498 0.9655 0.32706 0.0
C416 C 0.28832 0.96575 0.37793 0.0
O417 O 0.27808 0.97475 0.35886 0.0
C418 C 0.3522 0.98777 0.2936 0.0
O419 O 0.35779 0.96994 0.30661 0.0
O420 O 0.32341 0.94428 0.281 0.0
O421 O 0.32436 0.92051 0.31315 0.0
H422 H 0.27514 0.94719 0.21027 0.0
H423 H 0.33912 0.97374 0.36671 0.0
O424 O 0.3034 0.95068 0.37483 0.0
H425 H 0.39561 0.91393 0.35259 0.0
H426 H 0.32604 0.88284 0.41469 0.0
H427 H 0.29762 0.8905 0.32974 0.0
H428 H 0.35572 0.90799 0.34124 0.0
H429 H 0.32771 0.91954 0.39328 0.0
O430 O 0.33178 0.99079 0.287 0.0
H431 H 0.28731 0.94119 0.25322 0.0
H432 H 0.30297 0.0109 0.26027 0.0
H433 H 0.29579 0.85343 0.35039 0.0
H434 H 0.37881 0.98032 0.37856 0.0
H435 H 0.31006 0.84944 0.39319 0.0
H436 H 0.40737 0.9503 0.37142 0.0
O437 O 0.28188 0.93147 0.33354 0.0
H438 H 0.29254 0.04198 0.34072 0.0
H439 H 0.25769 0.98578 0.28555 0.0
H440 H 0.23483 0.01761 0.3009 0.0
H441 H 0.25227 0.04602 0.32867 0.0
H442 H 0.31472 0.00975 0.3251 0.0
H443 H 0.29115 0.01762 0.21734 0.0
H444 H 0.27703 0.98564 0.19206 0.0
O445 O 0.27852 0.95034 0.29784 0.0
C446 C 0.32832 0.92528 0.29068 0.0
C447 C 0.2812 0.96128 0.22112 0.0
C448 C 0.29021 1.0008 0.22508 0.0
N449 N 0.29568 0.9757 0.25928 0.0
C450 C 0.28806 0.95799 0.24546 0.0
C451 C 0.29693 0.99688 0.24936 0.0
C452 C 0.28228 0.98285 0.21091 0.0
C453 C 0.35142 0.96052 0.36379 0.0
N454 N 0.3451 0.94048 0.3534 0.0
C455 C 0.37388 0.96437 0.37043 0.0
C456 C 0.3899 0.94754 0.36639 0.0
C457 C 0.38332 0.92713 0.3558 0.0
C458 C 0.36072 0.92389 0.34935 0.0
C459 C 0.3198 0.88436 0.39603 0.0
C460 C 0.30398 0.88886 0.34832 0.0
C461 C 0.32066 0.90511 0.38383 0.0
N462 N 0.3129 0.90712 0.36023 0.0
C463 C 0.30285 0.86784 0.35994 0.0
C464 C 0.31084 0.86562 0.38395 0.0
C465 C 0.27084 0.93701 0.31429 0.0
C466 C 0.28476 0.02974 0.32858 0.0
C467 C 0.26537 0.99801 0.2977 0.0
C468 C 0.25236 0.01604 0.30628 0.0
C469 C 0.26216 0.03198 0.32185 0.0
N470 N 0.28753 0.99595 0.30437 0.0
C471 C 0.29726 0.01151 0.31961 0.0
Co472 Co 0.43848 0.81456 0.84542 0.0
Co473 Co 0.47253 0.80565 0.79459 0.0
O474 O 0.46784 0.81531 0.82877 0.0
C475 C 0.46785 0.78849 0.87967 0.0
O476 O 0.47678 0.77818 0.86061 0.0
C477 C 0.49045 0.8524 0.79514 0.0
O478 O 0.4729 0.85819 0.80848 0.0
O479 O 0.44657 0.82422 0.78282 0.0
O480 O 0.42295 0.82537 0.81508 0.0
H481 H 0.44847 0.77616 0.71192 0.0
H482 H 0.47652 0.83916 0.86851 0.0
O483 O 0.45296 0.80375 0.87657 0.0
H484 H 0.41746 0.89654 0.85485 0.0
H485 H 0.38556 0.82717 0.91669 0.0
H486 H 0.39262 0.79894 0.83162 0.0
H487 H 0.41093 0.85678 0.84334 0.0
H488 H 0.42222 0.82843 0.89518 0.0
O489 O 0.49316 0.83193 0.78856 0.0
H490 H 0.44284 0.78828 0.75493 0.0
H491 H 0.51279 0.80288 0.76171 0.0
H492 H 0.3556 0.79753 0.85236 0.0
H493 H 0.48369 0.87871 0.88051 0.0
H494 H 0.3519 0.81171 0.89521 0.0
H495 H 0.45405 0.90771 0.87361 0.0
O496 O 0.43336 0.78262 0.83523 0.0
H497 H 0.54409 0.79186 0.84194 0.0
H498 H 0.48717 0.7579 0.78698 0.0
H499 H 0.51877 0.73458 0.80211 0.0
H500 H 0.54753 0.75157 0.82977 0.0
H501 H 0.51208 0.81451 0.82655 0.0
H502 H 0.51915 0.79111 0.7187 0.0
H503 H 0.48685 0.77755 0.69353 0.0
O504 O 0.45208 0.7792 0.79947 0.0
C505 C 0.42769 0.82938 0.79262 0.0
C506 C 0.46269 0.78198 0.72272 0.0
C507 C 0.50235 0.7904 0.72651 0.0
N508 N 0.47749 0.79612 0.76086 0.0
C509 C 0.45961 0.7888 0.7471 0.0
C510 C 0.49864 0.79708 0.75084 0.0
C511 C 0.48422 0.78278 0.71241 0.0
C512 C 0.46347 0.85166 0.86568 0.0
N513 N 0.44331 0.84566 0.85533 0.0
C514 C 0.46765 0.87403 0.87242 0.0
C515 C 0.45103 0.89031 0.8685 0.0
C516 C 0.4305 0.88405 0.85796 0.0
C517 C 0.42692 0.86152 0.85142 0.0
C518 C 0.38695 0.82097 0.898 0.0
C519 C 0.39112 0.80526 0.85022 0.0
C520 C 0.40767 0.8216 0.88575 0.0
N521 N 0.40953 0.81389 0.86212 0.0
C522 C 0.37012 0.80436 0.86189 0.0
C523 C 0.36807 0.8123 0.88594 0.0
C524 C 0.43869 0.77161 0.8159 0.0
C525 C 0.5317 0.78428 0.82985 0.0
C526 C 0.49956 0.76539 0.79909 0.0
C527 C 0.51745 0.75211 0.80754 0.0
C528 C 0.5336 0.76166 0.82304 0.0
N529 N 0.49783 0.78756 0.80583 0.0
C530 C 0.51359 0.79704 0.82101 0.0
Co531 Co 0.69117 0.43602 0.34515 0.0
Co532 Co 0.69988 0.47034 0.29452 0.0
O533 O 0.69011 0.4654 0.32859 0.0
C534 C 0.71673 0.46562 0.37949 0.0
O535 O 0.72735 0.47419 0.36043 0.0
C536 C 0.65299 0.48778 0.29507 0.0
O537 O 0.64734 0.46994 0.30803 0.0
O538 O 0.68163 0.44424 0.28257 0.0
O539 O 0.68086 0.42036 0.31464 0.0
H540 H 0.72989 0.44695 0.21184 0.0
H541 H 0.66578 0.47362 0.36809 0.0
O542 O 0.7015 0.4507 0.3764 0.0
H543 H 0.60948 0.41368 0.35375 0.0
H544 H 0.67888 0.38282 0.41626 0.0
H545 H 0.70758 0.39042 0.33143 0.0
H546 H 0.64942 0.40781 0.3426 0.0
H547 H 0.67723 0.4195 0.39478 0.0
O548 O 0.67343 0.49078 0.28855 0.0
H549 H 0.71768 0.44099 0.25478 0.0
H550 H 0.70236 0.51077 0.26185 0.0
H551 H 0.70939 0.35339 0.35214 0.0
H552 H 0.62603 0.48013 0.37973 0.0
H553 H 0.69498 0.34942 0.39487 0.0
H554 H 0.59757 0.45004 0.37249 0.0
O555 O 0.72324 0.43143 0.33524 0.0
H556 H 0.7129 0.54178 0.34233 0.0
H557 H 0.74752 0.48542 0.28717 0.0
H558 H 0.77051 0.51715 0.30256 0.0
H559 H 0.75319 0.54563 0.33032 0.0
H560 H 0.69057 0.50965 0.32667 0.0
H561 H 0.71422 0.51745 0.21892 0.0
H562 H 0.72819 0.48541 0.19365 0.0
O563 O 0.72651 0.45009 0.29941 0.0
C564 C 0.67682 0.42519 0.2922 0.0
C565 C 0.72389 0.46106 0.22269 0.0
C566 C 0.71507 0.50062 0.22666 0.0
N567 N 0.70948 0.47554 0.26085 0.0
C568 C 0.71702 0.4578 0.24703 0.0
C569 C 0.70834 0.49673 0.25093 0.0
C570 C 0.72292 0.48264 0.21249 0.0
C571 C 0.65352 0.46037 0.36512 0.0
N572 N 0.65993 0.44034 0.35478 0.0
C573 C 0.63103 0.46419 0.37165 0.0
C574 C 0.61506 0.44731 0.36754 0.0
C575 C 0.62173 0.42691 0.35701 0.0
C576 C 0.64436 0.42371 0.35067 0.0
C577 C 0.68518 0.38433 0.39763 0.0
C578 C 0.70116 0.3888 0.34997 0.0
C579 C 0.68434 0.40506 0.38539 0.0
N580 N 0.69217 0.40706 0.36182 0.0
C581 C 0.70228 0.3678 0.36163 0.0
C582 C 0.69421 0.36559 0.38561 0.0
C583 C 0.73424 0.43684 0.31592 0.0
C584 C 0.72062 0.52951 0.33019 0.0
C585 C 0.73988 0.4977 0.29931 0.0
C586 C 0.75297 0.51566 0.30791 0.0
C587 C 0.74324 0.53164 0.32348 0.0
N588 N 0.71771 0.49574 0.30596 0.0
C589 C 0.70804 0.51134 0.3212 0.0
Co590 Co 0.0676 0.68936 0.84418 0.0
Co591 Co 0.03247 0.6987 0.79414 0.0
O592 O 0.03805 0.68845 0.82794 0.0
C593 C 0.03826 0.71531 0.87854 0.0
O594 O 0.02907 0.72536 0.85946 0.0
C595 C 0.01674 0.6511 0.79384 0.0
O596 O 0.03449 0.64584 0.80712 0.0
O597 O 0.05931 0.68188 0.78139 0.0
O598 O 0.08266 0.67846 0.81371 0.0
H599 H 0.05401 0.73193 0.71232 0.0
H600 H 0.02978 0.66485 0.86788 0.0
O601 O 0.05342 0.70032 0.87545 0.0
H602 H 0.08871 0.60743 0.85384 0.0
H603 H 0.12123 0.67721 0.91493 0.0
H604 H 0.11343 0.70443 0.82954 0.0
H605 H 0.09511 0.64714 0.84201 0.0
H606 H 0.08432 0.67598 0.89393 0.0
O607 O 0.01321 0.67152 0.78751 0.0
H608 H 0.06071 0.71895 0.75487 0.0
H609 H 0.99183 0.69994 0.76165 0.0
H610 H 0.1507 0.7058 0.84977 0.0
H611 H 0.02275 0.62536 0.88019 0.0
H612 H 0.15477 0.69213 0.89279 0.0
H613 H 0.05232 0.59633 0.8731 0.0
O614 O 0.07273 0.72126 0.83369 0.0
H615 H 0.96114 0.70731 0.8433 0.0
H616 H 0.01464 0.74547 0.78757 0.0
H617 H 0.98202 0.7666 0.80389 0.0
H618 H 0.95497 0.74748 0.83195 0.0
H619 H 0.99414 0.68691 0.82674 0.0
H620 H 0.98443 0.7125 0.7191 0.0
H621 H 0.01563 0.72872 0.69417 0.0
O622 O 0.05146 0.72607 0.79976 0.0
C623 C 0.07803 0.67585 0.79099 0.0
C624 C 0.04026 0.72495 0.72302 0.0
C625 C 1.00121 0.71401 0.72682 0.0
N626 N 0.02665 0.70885 0.76078 0.0
C627 C 0.04394 0.71764 0.74714 0.0
C628 C 0.00552 0.70688 0.75088 0.0
C629 C 0.01873 0.72312 0.71284 0.0
C630 C 0.04281 0.65235 0.86497 0.0
N631 N 0.06286 0.65831 0.85435 0.0
C632 C 0.0387 0.63 0.87188 0.0
C633 C 0.05529 0.61372 0.86786 0.0
C634 C 0.0757 0.61993 0.85704 0.0
C635 C 0.07921 0.64243 0.85033 0.0
C636 C 0.11968 0.6832 0.89618 0.0
C637 C 0.11509 0.69836 0.84822 0.0
C638 C 0.09881 0.68261 0.88421 0.0
N639 N 0.09674 0.69005 0.8605 0.0
C640 C 0.13622 0.69922 0.8596 0.0
C641 C 0.13849 0.69157 0.88374 0.0
C642 C 0.06586 0.73306 0.8155 0.0
C643 C 0.9728 0.71582 0.83108 0.0
C644 C 0.00304 0.7371 0.7999 0.0
C645 C 0.98454 0.74911 0.809 0.0
C646 C 0.96936 0.73837 0.82473 0.0
N647 N 0.00632 0.71501 0.80623 0.0
C648 C 0.99147 0.70434 0.82158 0.0
Co649 Co 0.8153 0.06801 0.34465 0.0
Co650 Co 0.80648 0.03383 0.29395 0.0
O651 O 0.81631 0.03866 0.32802 0.0
C652 C 0.78993 0.03825 0.37903 0.0
O653 O 0.77937 0.02956 0.36 0.0
C654 C 0.85332 0.01616 0.29438 0.0
O655 O 0.8591 0.03391 0.30741 0.0
O656 O 0.82481 0.0599 0.28204 0.0
O657 O 0.82556 0.08372 0.31415 0.0
H658 H 0.77645 0.05752 0.21136 0.0
H659 H 0.84072 0.03034 0.36745 0.0
O660 O 0.80504 0.05328 0.3759 0.0
H661 H 0.89701 0.09031 0.35316 0.0
H662 H 0.82774 0.12106 0.41583 0.0
H663 H 0.79888 0.11364 0.33104 0.0
H664 H 0.85706 0.0962 0.34208 0.0
H665 H 0.82935 0.08443 0.39428 0.0
O666 O 0.83284 0.01331 0.28789 0.0
H667 H 0.78873 0.06333 0.2543 0.0
H668 H 0.80382 0.99348 0.26119 0.0
H669 H 0.79711 0.15063 0.35183 0.0
H670 H 0.88048 0.0238 0.37903 0.0
H671 H 0.81161 0.15451 0.39454 0.0
H672 H 0.90895 0.0539 0.3718 0.0
O673 O 0.7832 0.07264 0.33482 0.0
H674 H 0.79333 0.96231 0.3416 0.0
H675 H 0.75879 0.01887 0.2866 0.0
H676 H 0.73574 0.98717 0.30194 0.0
H677 H 0.75301 0.95859 0.32962 0.0
H678 H 0.81572 0.99441 0.326 0.0
H679 H 0.79188 0.98695 0.21826 0.0
H680 H 0.77799 0.0191 0.19307 0.0
O681 O 0.77992 0.05413 0.29891 0.0
C682 C 0.82962 0.07893 0.29171 0.0
C683 C 0.78241 0.04336 0.22217 0.0
C684 C 0.7911 0.00376 0.22603 0.0
N685 N 0.79682 0.02874 0.26028 0.0
C686 C 0.78933 0.04654 0.24651 0.0
C687 C 0.79788 0.00757 0.25031 0.0
C688 C 0.78329 0.02181 0.21191 0.0
C689 C 0.85298 0.0436 0.36449 0.0
N690 N 0.84656 0.06365 0.3542 0.0
C691 C 0.87548 0.03976 0.37098 0.0
C692 C 0.89145 0.05664 0.36689 0.0
C693 C 0.88477 0.07707 0.3564 0.0
C694 C 0.86212 0.08029 0.35011 0.0
C695 C 0.82141 0.11959 0.39721 0.0
C696 C 0.80534 0.11523 0.34958 0.0
C697 C 0.82223 0.09889 0.38493 0.0
N698 N 0.81435 0.09694 0.36137 0.0
C699 C 0.80424 0.1362 0.36128 0.0
C700 C 0.81236 0.13836 0.38525 0.0
C701 C 0.7722 0.06732 0.31547 0.0
C702 C 0.78562 0.97462 0.3295 0.0
C703 C 0.76641 0.00656 0.29871 0.0
C704 C 0.75329 0.98861 0.30729 0.0
C705 C 0.763 0.97256 0.3228 0.0
N706 N 0.7886 0.00845 0.30534 0.0
C707 C 0.79824 0.99278 0.32054 0.0
Co708 Co 0.43726 0.68938 0.16322 0.0
Co709 Co 0.47127 0.69864 0.21403 0.0
O710 O 0.46654 0.68852 0.18002 0.0
C711 C 0.46707 0.71468 0.1288 0.0
O712 O 0.47596 0.72511 0.14781 0.0
C713 C 0.48861 0.65167 0.2142 0.0
O714 O 0.47102 0.64594 0.20088 0.0
O715 O 0.445 0.68062 0.22602 0.0
O716 O 0.42148 0.67919 0.19367 0.0
H717 H 0.44739 0.72974 0.29605 0.0
H718 H 0.47508 0.66402 0.14069 0.0
O719 O 0.45201 0.69961 0.13198 0.0
H720 H 0.41531 0.60754 0.15505 0.0
H721 H 0.38449 0.67644 0.09187 0.0
H722 H 0.39153 0.70572 0.17652 0.0
H723 H 0.40921 0.64752 0.16589 0.0
H724 H 0.42105 0.67505 0.11359 0.0
O725 O 0.49152 0.67216 0.22059 0.0
H726 H 0.44171 0.71705 0.25323 0.0
H727 H 0.51146 0.7013 0.24703 0.0
H728 H 0.35461 0.70727 0.15556 0.0
H729 H 0.48181 0.62423 0.12935 0.0
H730 H 0.35092 0.69256 0.11292 0.0
H731 H 0.45181 0.59567 0.13661 0.0
O732 O 0.43249 0.7215 0.17285 0.0
H733 H 0.54314 0.71072 0.1667 0.0
H734 H 0.48657 0.74628 0.22088 0.0
H735 H 0.51853 0.76893 0.20546 0.0
H736 H 0.54712 0.75113 0.17819 0.0
H737 H 0.51077 0.68875 0.18237 0.0
H738 H 0.51785 0.71363 0.28985 0.0
H739 H 0.48569 0.72806 0.31463 0.0
O740 O 0.45121 0.72531 0.20858 0.0
C741 C 0.42609 0.67552 0.21624 0.0
C742 C 0.46155 0.72355 0.28542 0.0
C743 C 0.50109 0.71448 0.28195 0.0
N744 N 0.47626 0.70861 0.2476 0.0
C745 C 0.45845 0.7164 0.26115 0.0
C746 C 0.49736 0.70748 0.25773 0.0
C747 C 0.48304 0.72258 0.29584 0.0
C748 C 0.46187 0.65172 0.14366 0.0
N749 N 0.44176 0.6581 0.15384 0.0
C750 C 0.46581 0.62921 0.13731 0.0
C751 C 0.44898 0.61318 0.14142 0.0
C752 C 0.4285 0.61983 0.15179 0.0
C753 C 0.42517 0.64248 0.15795 0.0
C754 C 0.38587 0.68286 0.11047 0.0
C755 C 0.39003 0.69917 0.15802 0.0
C756 C 0.40654 0.68217 0.12284 0.0
N757 N 0.40838 0.69016 0.14636 0.0
C758 C 0.36909 0.70014 0.14622 0.0
C759 C 0.36704 0.69191 0.12229 0.0
C760 C 0.43794 0.73279 0.19196 0.0
C761 C 0.53082 0.71865 0.17862 0.0
C762 C 0.49888 0.73844 0.20894 0.0
C763 C 0.51698 0.75133 0.20032 0.0
C764 C 0.53303 0.74133 0.18504 0.0
N765 N 0.49685 0.7162 0.20258 0.0
C766 C 0.51251 0.70627 0.18762 0.0
Co767 Co 0.81118 0.43673 0.66403 0.0
Co768 Co 0.80388 0.47303 0.71333 0.0
O769 O 0.8138 0.46647 0.67966 0.0
C770 C 0.78779 0.46686 0.62844 0.0
O771 O 0.77752 0.4765 0.6471 0.0
C772 C 0.85182 0.48784 0.7133 0.0
O773 O 0.85686 0.46968 0.70059 0.0
O774 O 0.82042 0.44619 0.72647 0.0
O775 O 0.82004 0.42134 0.69519 0.0
H776 H 0.771 0.45383 0.796 0.0
H777 H 0.839 0.47211 0.64018 0.0
O778 O 0.8021 0.45117 0.63217 0.0
H779 H 0.89156 0.40955 0.65778 0.0
H780 H 0.8214 0.3812 0.59471 0.0
H781 H 0.79214 0.39242 0.67881 0.0
H782 H 0.8512 0.40633 0.66842 0.0
H783 H 0.82475 0.41825 0.61513 0.0
O784 O 0.83143 0.49192 0.71928 0.0
H785 H 0.78351 0.44599 0.75352 0.0
H786 H 0.8036 0.51439 0.74476 0.0
H787 H 0.78861 0.35503 0.65919 0.0
H788 H 0.8792 0.47596 0.62901 0.0
H789 H 0.80329 0.34924 0.61681 0.0
H790 H 0.90579 0.44455 0.63789 0.0
O791 O 0.77882 0.43416 0.67362 0.0
H792 H 0.79622 0.54335 0.66228 0.0
H793 H 0.75756 0.49202 0.71999 0.0
H794 H 0.73694 0.52467 0.70297 0.0
H795 H 0.75631 0.55063 0.67391 0.0
H796 H 0.8161 0.51033 0.67957 0.0
H797 H 0.79153 0.52291 0.78721 0.0
H798 H 0.775 0.49253 0.8131 0.0
O799 O 0.776 0.45444 0.7085 0.0
C800 C 0.82406 0.42662 0.7175 0.0
C801 C 0.77812 0.46722 0.78487 0.0
C802 C 0.78967 0.50599 0.77996 0.0
N803 N 0.79412 0.47974 0.74663 0.0
C804 C 0.78517 0.4629 0.76079 0.0
C805 C 0.79653 0.50105 0.75595 0.0
C806 C 0.78039 0.48894 0.79447 0.0
C807 C 0.85043 0.45829 0.64386 0.0
N808 N 0.84274 0.43899 0.65482 0.0
C809 C 0.87319 0.4606 0.63759 0.0
C810 C 0.8881 0.44298 0.64262 0.0
C811 C 0.88013 0.42335 0.6538 0.0
C812 C 0.85727 0.42165 0.65984 0.0
C813 C 0.81496 0.3835 0.61319 0.0
C814 C 0.7987 0.38999 0.66044 0.0
C815 C 0.81676 0.40446 0.62483 0.0
N816 N 0.80877 0.40746 0.64821 0.0
C817 C 0.79659 0.3688 0.64939 0.0
C818 C 0.80481 0.36557 0.62561 0.0
C819 C 0.76785 0.44098 0.69242 0.0
C820 C 0.7876 0.53217 0.67493 0.0
C821 C 0.76602 0.50312 0.70721 0.0
C822 C 0.75431 0.52165 0.69772 0.0
C823 C 0.7652 0.53623 0.68144 0.0
N824 N 0.78797 0.49923 0.70071 0.0
C825 C 0.79879 0.51348 0.68483 0.0
Co826 Co 0.06742 0.81351 0.16106 0.0
Co827 Co 0.03347 0.80444 0.21191 0.0
O828 O 0.03815 0.81445 0.17786 0.0
C829 C 0.03764 0.78812 0.12671 0.0
O830 O 0.02913 0.7774 0.14574 0.0
C831 C 0.01606 0.85137 0.21197 0.0
O832 O 0.03366 0.8571 0.19867 0.0
O833 O 0.05967 0.8226 0.22378 0.0
O834 O 0.08327 0.82368 0.19149 0.0
H835 H 0.05752 0.77381 0.29412 0.0
H836 H 0.02963 0.83897 0.13855 0.0
O837 O 0.05256 0.80335 0.12985 0.0
H838 H 0.08957 0.8953 0.15278 0.0
H839 H 0.1201 0.8263 0.08962 0.0
H840 H 0.11313 0.79708 0.17431 0.0
H841 H 0.09557 0.85531 0.16365 0.0
H842 H 0.08358 0.82779 0.11139 0.0
O843 O 0.01313 0.83088 0.21834 0.0
H844 H 0.06312 0.78633 0.25122 0.0
H845 H 0.9933 0.80174 0.24493 0.0
H846 H 0.15002 0.79543 0.1533 0.0
H847 H 0.02298 0.87877 0.12718 0.0
H848 H 0.15367 0.81011 0.11063 0.0
H849 H 0.05307 0.90725 0.13438 0.0
O850 O 0.07215 0.78138 0.17073 0.0
H851 H 0.96164 0.79189 0.16466 0.0
H852 H 0.01838 0.75677 0.219 0.0
H853 H 0.9865 0.73393 0.20371 0.0
H854 H 0.95782 0.75151 0.17636 0.0
H855 H 0.99392 0.81405 0.18021 0.0
H856 H 0.98697 0.78958 0.28782 0.0
H857 H 0.01921 0.7754 0.31268 0.0
O858 O 0.05364 0.77784 0.20662 0.0
C859 C 0.07862 0.82754 0.21401 0.0
C860 C 0.04332 0.77989 0.28345 0.0
C861 C 0.00374 0.78877 0.27992 0.0
N862 N 0.02854 0.79459 0.24554 0.0
C863 C 0.04638 0.78695 0.25913 0.0
C864 C 0.00743 0.79568 0.25567 0.0
C865 C 0.02183 0.78081 0.29386 0.0
C866 C 0.04287 0.85124 0.14149 0.0
N867 N 0.06298 0.84481 0.15165 0.0
C868 C 0.03898 0.87376 0.13513 0.0
C869 C 0.05586 0.88974 0.1392 0.0
C870 C 0.07633 0.88305 0.14955 0.0
C871 C 0.07961 0.86038 0.15573 0.0
C872 C 0.11874 0.81989 0.10822 0.0
C873 C 0.11462 0.80362 0.1558 0.0
C874 C 0.09809 0.82064 0.12062 0.0
N875 N 0.09627 0.81266 0.14415 0.0
C876 C 0.13553 0.80259 0.14397 0.0
C877 C 0.13756 0.81081 0.12002 0.0
C878 C 0.06683 0.77025 0.18999 0.0
C879 C 0.97399 0.78405 0.17661 0.0
C880 C 0.00602 0.76451 0.20704 0.0
C881 C 0.98797 0.75151 0.19849 0.0
C882 C 0.97188 0.76139 0.18316 0.0
N883 N 0.00796 0.78674 0.20056 0.0
C884 C 0.99225 0.79654 0.18554 0.0
Co885 Co 0.69145 0.06776 0.66117 0.0
Co886 Co 0.70068 0.03406 0.71222 0.0
O887 O 0.69079 0.03853 0.67809 0.0
C888 C 0.71729 0.03809 0.62709 0.0
O889 O 0.7279 0.0296 0.6462 0.0
C890 C 0.65391 0.01626 0.71204 0.0
O891 O 0.64809 0.0339 0.69882 0.0
O892 O 0.68223 0.06014 0.72389 0.0
O893 O 0.68087 0.08355 0.69144 0.0
H894 H 0.73076 0.0586 0.79447 0.0
H895 H 0.66661 0.02955 0.6387 0.0
O896 O 0.70199 0.05295 0.63009 0.0
H897 H 0.60944 0.08883 0.6522 0.0
H898 H 0.67842 0.12009 0.58944 0.0
H899 H 0.70719 0.11372 0.67438 0.0
H900 H 0.64929 0.0954 0.66329 0.0
H901 H 0.67729 0.0836 0.61134 0.0
O902 O 0.67439 0.0135 0.71855 0.0
H903 H 0.7184 0.06397 0.75149 0.0
H904 H 0.70351 0.99402 0.74543 0.0
H905 H 0.70848 0.15057 0.65324 0.0
H906 H 0.62697 0.02234 0.62712 0.0
H907 H 0.69403 0.15392 0.61046 0.0
H908 H 0.59806 0.05209 0.63394 0.0
O909 O 0.72345 0.0729 0.67105 0.0
H910 H 0.71406 0.96219 0.6653 0.0
H911 H 0.74842 0.01933 0.7197 0.0
H912 H 0.77158 0.98759 0.70467 0.0
H913 H 0.75439 0.95871 0.67729 0.0
H914 H 0.69157 0.99435 0.68059 0.0
H915 H 0.71552 0.98792 0.78841 0.0
H916 H 0.72935 0.02034 0.8132 0.0
O917 O 0.72716 0.05442 0.70696 0.0
C918 C 0.67699 0.07895 0.71397 0.0
C919 C 0.72483 0.04432 0.78384 0.0
C920 C 0.71625 0.00466 0.78045 0.0
N921 N 0.71041 0.02931 0.74592 0.0
C922 C 0.71787 0.04725 0.75947 0.0
C923 C 0.70942 0.00823 0.75614 0.0
C924 C 0.72402 0.02286 0.79434 0.0
C925 C 0.65416 0.04265 0.64148 0.0
N926 N 0.66027 0.06289 0.65156 0.0
C927 C 0.63173 0.03844 0.63499 0.0
C928 C 0.61551 0.05513 0.63886 0.0
C929 C 0.62188 0.07574 0.64913 0.0
C930 C 0.64447 0.07934 0.65543 0.0
C931 C 0.68474 0.11885 0.6081 0.0
C932 C 0.70075 0.11507 0.65581 0.0
C933 C 0.68418 0.09823 0.62056 0.0
N934 N 0.69204 0.09657 0.64416 0.0
C935 C 0.70158 0.13597 0.64391 0.0
C936 C 0.69349 0.13783 0.6199 0.0
C937 C 0.73464 0.06767 0.69031 0.0
C938 C 0.72173 0.97464 0.67726 0.0
C939 C 0.74084 0.00689 0.70771 0.0
C940 C 0.75403 0.98892 0.69931 0.0
C941 C 0.74437 0.97271 0.68397 0.0
N942 N 0.71865 0.00865 0.70107 0.0
C943 C 0.70905 0.99283 0.68605 0.0
H944 H 0.48821 0.15434 0.25329 0.0
H945 H 0.46188 0.12559 0.26784 0.0
H946 H 0.48054 0.08254 0.20703 0.0
H947 H 0.50784 0.11089 0.19312 0.0
H948 H 0.42595 0.10917 0.24895 0.0
H949 H 0.48541 0.03802 0.26122 0.0
H950 H 0.49493 0.06639 0.25508 0.0
H951 H 0.48571 0.04843 0.23024 0.0
C952 C 0.48681 0.13868 0.24309 0.0
C953 C 0.50018 0.13481 0.22213 0.0
C954 C 0.47174 0.12223 0.25144 0.0
C955 C 0.46944 0.10162 0.23885 0.0
C956 C 0.48248 0.09792 0.21758 0.0
H957 H 0.35023 0.01718 0.25511 0.0
H958 H 0.37884 0.04428 0.24202 0.0
C959 C 0.49795 0.11422 0.2095 0.0
C960 C 0.45273 0.08456 0.24757 0.0
H961 H 0.44614 0.02885 0.26244 0.0
C962 C 0.43046 0.09164 0.25206 0.0
C963 C 0.45858 0.06172 0.2521 0.0
C964 C 0.48251 0.05324 0.24967 0.0
C965 C 0.41389 0.07661 0.26063 0.0
C966 C 0.41942 0.05351 0.26383 0.0
C967 C 0.44177 0.04646 0.2597 0.0
C968 C 0.4023 0.03643 0.2714 0.0
C969 C 0.39082 0.08589 0.26677 0.0
C970 C 0.40631 0.02211 0.2916 0.0
C971 C 0.39016 0.0061 0.29875 0.0
C972 C 0.3696 0.00429 0.28597 0.0
C973 C 0.36575 0.01842 0.26559 0.0
C974 C 0.38205 0.03407 0.25818 0.0
H975 H 0.39164 0.10414 0.27143 0.0
H976 H 0.37963 0.0841 0.2505 0.0
H977 H 0.38307 0.07676 0.28251 0.0
H978 H 0.42185 0.02346 0.30202 0.0
H979 H 0.39361 0.99541 0.3145 0.0
H980 H 0.34881 0.48948 0.75294 0.0
H981 H 0.37709 0.46298 0.76817 0.0
H982 H 0.42079 0.48015 0.70737 0.0
H983 H 0.39292 0.50767 0.69279 0.0
H984 H 0.39305 0.42656 0.75014 0.0
H985 H 0.46509 0.48505 0.76171 0.0
H986 H 0.43692 0.49494 0.75518 0.0
H987 H 0.45487 0.48502 0.73065 0.0
C988 C 0.36452 0.48772 0.74289 0.0
C989 C 0.36871 0.50074 0.72173 0.0
C990 C 0.3807 0.47255 0.75162 0.0
C991 C 0.40135 0.46977 0.73924 0.0
C992 C 0.40537 0.48246 0.71778 0.0
H993 H 0.48382 0.34953 0.75802 0.0
H994 H 0.45707 0.37829 0.7445 0.0
C995 C 0.38934 0.49805 0.70931 0.0
C996 C 0.4181 0.45292 0.74838 0.0
H997 H 0.47361 0.44566 0.76371 0.0
C998 C 0.41063 0.43084 0.75327 0.0
C999 C 0.441 0.45847 0.75294 0.0
C1000 C 0.44989 0.48222 0.75011 0.0
C1001 C 0.42535 0.41418 0.76226 0.0
C1002 C 0.44852 0.41937 0.76548 0.0
C1003 C 0.45595 0.44153 0.76096 0.0
C1004 C 0.46529 0.40208 0.77343 0.0
C1005 C 0.41566 0.39136 0.76881 0.0
C1006 C 0.47968 0.40618 0.79355 0.0
C1007 C 0.49549 0.38992 0.80094 0.0
C1008 C 0.49702 0.36916 0.78851 0.0
C1009 C 0.48278 0.36519 0.76826 0.0
C1010 C 0.46734 0.38159 0.7606 0.0
H1011 H 0.39741 0.39258 0.77341 0.0
H1012 H 0.41727 0.3799 0.75275 0.0
H1013 H 0.42462 0.38369 0.7847 0.0
H1014 H 0.47857 0.4219 0.80368 0.0
H1015 H 0.50629 0.39347 0.81658 0.0
H1016 H 0.98644 0.39855 0.20284 0.0
H1017 H 0.01329 0.42745 0.21653 0.0
H1018 H 0.05409 0.37605 0.25094 0.0
H1019 H 0.0274 0.34712 0.23755 0.0
H1020 H 0.04519 0.41397 0.28134 0.0
H1021 H 0.0775 0.439 0.18918 0.0
H1022 H 0.04731 0.43951 0.19264 0.0
H1023 H 0.06211 0.41308 0.19426 0.0
C1024 C 1.00118 0.39337 0.21322 0.0
C1025 C 0.00476 0.37049 0.21905 0.0
C1026 C 0.01655 0.40991 0.22095 0.0
C1027 C 0.03578 0.40386 0.23457 0.0
C1028 C 0.03938 0.38107 0.24041 0.0
H1029 H 0.15773 0.47771 0.26695 0.0
H1030 H 0.12883 0.45105 0.25339 0.0
C1031 C 0.0241 0.36455 0.23266 0.0
C1032 C 0.05202 0.42124 0.24323 0.0
H1033 H 0.09063 0.46002 0.2233 0.0
C1034 C 0.05508 0.42411 0.26868 0.0
C1035 C 0.06504 0.43426 0.22665 0.0
C1036 C 0.06305 0.43127 0.19914 0.0
C1037 C 0.07082 0.43968 0.278 0.0
C1038 C 0.08367 0.45288 0.26142 0.0
C1039 C 0.08062 0.44999 0.23597 0.0
C1040 C 0.10103 0.46913 0.27008 0.0
C1041 C 0.07401 0.44147 0.30549 0.0
C1042 C 0.09498 0.48822 0.28392 0.0
C1043 C 0.1115 0.50356 0.29174 0.0
C1044 C 0.13437 0.50009 0.28579 0.0
C1045 C 0.14031 0.48091 0.27194 0.0
C1046 C 0.1238 0.46565 0.26409 0.0
H1047 H 0.06642 0.42691 0.31539 0.0
H1048 H 0.09223 0.44245 0.31022 0.0
H1049 H 0.06576 0.45713 0.3122 0.0
H1050 H 0.07745 0.49138 0.28846 0.0
H1051 H 0.10633 0.51818 0.30231 0.0
H1052 H 0.15471 0.01708 0.75187 0.0
H1053 H 0.12582 0.04328 0.7663 0.0
H1054 H 0.08257 0.02363 0.70602 0.0
H1055 H 0.11108 0.99641 0.69226 0.0
H1056 H 0.10906 0.07886 0.74718 0.0
H1057 H 0.03836 0.01905 0.76048 0.0
H1058 H 0.06674 0.00966 0.75424 0.0
H1059 H 0.0486 0.0186 0.72944 0.0
C1060 C 0.13898 0.01823 0.74176 0.0
C1061 C 0.13511 0.00461 0.72099 0.0
C1062 C 0.12244 0.03324 0.75004 0.0
C1063 C 0.10175 0.03524 0.73757 0.0
C1064 C 0.09803 0.02194 0.71649 0.0
H1065 H 0.017 0.15428 0.75414 0.0
H1066 H 0.04386 0.1256 0.74068 0.0
C1067 C 0.11442 0.00652 0.70848 0.0
C1068 C 0.08461 0.05191 0.74622 0.0
H1069 H 0.02899 0.05826 0.76158 0.0
C1070 C 0.09159 0.07426 0.75047 0.0
C1071 C 0.06185 0.04596 0.75099 0.0
C1072 C 0.05349 0.02196 0.74881 0.0
C1073 C 0.07654 0.09078 0.75909 0.0
C1074 C 0.0535 0.08513 0.76255 0.0
C1075 C 0.04655 0.06273 0.75863 0.0
C1076 C 0.0364 0.1022 0.77024 0.0
C1077 C 0.08574 0.11393 0.76502 0.0
C1078 C 0.02233 0.09823 0.79066 0.0
C1079 C 0.00645 0.11442 0.79802 0.0
C1080 C 0.00453 0.13498 0.78526 0.0
C1081 C 0.01835 0.13876 0.76462 0.0
C1082 C 0.03386 0.12242 0.75699 0.0
H1083 H 0.10404 0.11323 0.76949 0.0
H1084 H 0.08373 0.12505 0.74872 0.0
H1085 H 0.07673 0.12169 0.78082 0.0
H1086 H 0.02383 0.08272 0.8011 0.0
H1087 H 0.99599 0.11103 0.81396 0.0
H1088 H 0.49911 0.89387 0.81543 0.0
H1089 H 0.52643 0.92209 0.80121 0.0
H1090 H 0.54495 0.87853 0.74078 0.0
H1091 H 0.51862 0.84992 0.75563 0.0
H1092 H 0.58093 0.89519 0.75935 0.0
H1093 H 0.52123 0.96607 0.7465 0.0
H1094 H 0.5211 0.95593 0.7776 0.0
H1095 H 0.51181 0.93774 0.753 0.0
C1096 C 0.50899 0.89039 0.79908 0.0
C1097 C 0.50671 0.86971 0.78664 0.0
C1098 C 0.52447 0.90661 0.79082 0.0
C1099 C 0.53746 0.90273 0.76955 0.0
C1100 C 0.53513 0.88203 0.75717 0.0
H1101 H 0.61239 0.00811 0.69164 0.0
H1102 H 0.58437 0.98012 0.70487 0.0
C1103 C 0.52006 0.86565 0.7657 0.0
C1104 C 0.5541 0.91974 0.76056 0.0
H1105 H 0.56044 0.97527 0.74477 0.0
C1106 C 0.57636 0.91266 0.75602 0.0
C1107 C 0.54816 0.94251 0.75572 0.0
C1108 C 0.52422 0.95096 0.7582 0.0
C1109 C 0.59283 0.92762 0.74709 0.0
C1110 C 0.58721 0.95066 0.74356 0.0
C1111 C 0.56488 0.95771 0.74776 0.0
C1112 C 0.60422 0.96768 0.73551 0.0
C1113 C 0.61589 0.91833 0.74092 0.0
C1114 C 0.62458 0.9703 0.74848 0.0
C1115 C 0.64076 0.9859 0.74065 0.0
C1116 C 0.63667 0.99973 0.72008 0.0
C1117 C 0.61602 0.99765 0.70753 0.0
C1118 C 0.6 0.98169 0.7151 0.0
H1119 H 0.61509 0.9 0.73659 0.0
H1120 H 0.62349 0.92724 0.72496 0.0
H1121 H 0.62719 0.9204 0.75706 0.0
H1122 H 0.62797 0.96033 0.76478 0.0
H1123 H 0.65635 0.98736 0.75096 0.0
H1124 H 0.49717 0.61022 0.19383 0.0
H1125 H 0.52457 0.58201 0.20786 0.0
H1126 H 0.54317 0.62538 0.26843 0.0
H1127 H 0.51677 0.654 0.25374 0.0
H1128 H 0.57913 0.60895 0.24967 0.0
H1129 H 0.51982 0.53772 0.26227 0.0
H1130 H 0.51951 0.54799 0.23124 0.0
H1131 H 0.51024 0.56604 0.25597 0.0
C1132 C 0.50708 0.61366 0.21018 0.0
C1133 C 0.50481 0.6343 0.2227 0.0
C1134 C 0.5226 0.59743 0.21834 0.0
C1135 C 0.53565 0.60126 0.23958 0.0
C1136 C 0.53331 0.62192 0.25205 0.0
H1137 H 0.61155 0.49549 0.31585 0.0
H1138 H 0.58331 0.52347 0.30319 0.0
C1139 C 0.51819 0.6383 0.24363 0.0
C1140 C 0.5524 0.58427 0.24839 0.0
H1141 H 0.5591 0.52865 0.26358 0.0
C1142 C 0.57465 0.59143 0.25287 0.0
C1143 C 0.5466 0.56144 0.25304 0.0
C1144 C 0.52269 0.5529 0.25064 0.0
C1145 C 0.59124 0.57647 0.26155 0.0
C1146 C 0.58576 0.55337 0.26486 0.0
C1147 C 0.56344 0.54626 0.26074 0.0
C1148 C 0.60291 0.53636 0.27258 0.0
C1149 C 0.61429 0.58583 0.26767 0.0
C1150 C 0.6232 0.53399 0.25944 0.0
C1151 C 0.63951 0.51839 0.26696 0.0
C1152 C 0.63562 0.50431 0.28736 0.0
C1153 C 0.61503 0.50614 0.30007 0.0
C1154 C 0.59888 0.52211 0.29282 0.0
H1155 H 0.61341 0.60411 0.27224 0.0
H1156 H 0.62204 0.57679 0.28347 0.0
H1157 H 0.6255 0.584 0.25143 0.0
H1158 H 0.62644 0.54415 0.24325 0.0
H1159 H 0.65505 0.51712 0.25652 0.0
H1160 H 0.98852 0.65249 0.75432 0.0
H1161 H 0.9619 0.62365 0.74071 0.0
H1162 H 0.98154 0.58112 0.80159 0.0
H1163 H 0.00916 0.60961 0.81461 0.0
H1164 H 0.97649 0.55642 0.76206 0.0
H1165 H 0.90159 0.61168 0.76946 0.0
H1166 H 0.92202 0.62334 0.74874 0.0
H1167 H 0.9289 0.62007 0.78089 0.0
C1168 C 0.98715 0.63702 0.76486 0.0
C1169 C 1.00077 0.63339 0.78569 0.0
C1170 C 0.97178 0.62058 0.75715 0.0
C1171 C 0.96917 0.60043 0.7705 0.0
C1172 C 0.98309 0.59659 0.79107 0.0
H1173 H 0.85042 0.51619 0.75262 0.0
H1174 H 0.87971 0.54194 0.76699 0.0
C1175 C 0.99884 0.61287 0.79852 0.0
C1176 C 0.95206 0.58337 0.76284 0.0
H1177 H 0.89651 0.57722 0.74742 0.0
C1178 C 0.95895 0.56092 0.75905 0.0
C1179 C 0.92905 0.58908 0.7593 0.0
C1180 C 0.91991 0.61229 0.76508 0.0
C1181 C 0.9436 0.54416 0.75149 0.0
C1182 C 0.92085 0.55017 0.74668 0.0
C1183 C 0.91396 0.57257 0.75076 0.0
C1184 C 0.90362 0.53352 0.73824 0.0
C1185 C 0.95187 0.52013 0.74944 0.0
C1186 C 0.90716 0.52007 0.71722 0.0
C1187 C 0.89052 0.50489 0.70926 0.0
C1188 C 0.86979 0.50338 0.72174 0.0
C1189 C 0.86617 0.51705 0.74252 0.0
C1190 C 0.88294 0.5318 0.75076 0.0
H1191 H 0.96704 0.51723 0.76108 0.0
H1192 H 0.9386 0.5079 0.75499 0.0
H1193 H 0.95669 0.51665 0.73007 0.0
H1194 H 0.92262 0.52153 0.70673 0.0
H1195 H 0.89367 0.49472 0.69304 0.0
H1196 H 0.85095 0.98706 0.25567 0.0
H1197 H 0.87929 0.95985 0.24219 0.0
H1198 H 0.92274 0.97988 0.30213 0.0
H1199 H 0.89476 0.00805 0.315 0.0
H1200 H 0.9468 0.97464 0.26241 0.0
H1201 H 0.89182 0.89966 0.27091 0.0
H1202 H 0.87984 0.91996 0.25024 0.0
H1203 H 0.88348 0.927 0.2823 0.0
C1204 C 0.8665 0.98561 0.26606 0.0
C1205 C 0.87056 0.99956 0.28653 0.0
C1206 C 0.88265 0.96991 0.25843 0.0
C1207 C 0.90295 0.9673 0.27151 0.0
C1208 C 0.90715 0.98143 0.29182 0.0
H1209 H 0.98796 0.84898 0.25155 0.0
H1210 H 0.96184 0.87772 0.26653 0.0
C1211 C 0.89116 0.9975 0.29918 0.0
C1212 C 0.91991 0.95016 0.26367 0.0
H1213 H 0.92595 0.89461 0.24811 0.0
C1214 C 0.94228 0.95709 0.25949 0.0
C1215 C 0.9142 0.92713 0.26025 0.0
C1216 C 0.89109 0.91796 0.26643 0.0
C1217 C 0.95895 0.94179 0.25161 0.0
C1218 C 0.95291 0.91904 0.24684 0.0
C1219 C 0.93061 0.91207 0.25139 0.0
C1220 C 0.96944 0.90195 0.23781 0.0
C1221 C 0.98293 0.95012 0.24915 0.0
C1222 C 0.98243 0.9058 0.21653 0.0
C1223 C 0.99779 0.8895 0.2082 0.0
C1224 C 0.99996 0.86877 0.22058 0.0
C1225 C 0.98662 0.86475 0.24154 0.0
C1226 C 0.97166 0.8812 0.25013 0.0
H1227 H 0.98599 0.96519 0.26088 0.0
H1228 H 0.99527 0.93682 0.25433 0.0
H1229 H 0.98607 0.95512 0.22977 0.0
H1230 H 0.98055 0.92131 0.20618 0.0
H1231 H 0.00767 0.89296 0.19184 0.0
H1232 H 0.55773 0.26349 0.22878 0.0
H1233 H 0.57655 0.29911 0.23747 0.0
H1234 H 0.61842 0.29061 0.1732 0.0
H1235 H 0.59974 0.25458 0.16433 0.0
H1236 H 0.64279 0.30038 0.21509 0.0
H1237 H 0.57242 0.36111 0.20532 0.0
H1238 H 0.56514 0.33788 0.22499 0.0
H1239 H 0.57119 0.3328 0.19298 0.0
C1240 C 0.57069 0.26924 0.2162 0.0
C1241 C 0.57715 0.25608 0.19579 0.0
C1242 C 0.58134 0.28978 0.22113 0.0
C1243 C 0.59862 0.29774 0.20576 0.0
C1244 C 0.60496 0.28487 0.18517 0.0
H1245 H 0.66201 0.42834 0.24419 0.0
H1246 H 0.6444 0.3985 0.21932 0.0
C1247 C 0.59424 0.26429 0.18013 0.0
C1248 C 0.61128 0.31843 0.21266 0.0
H1249 H 0.60394 0.37331 0.23033 0.0
C1250 C 0.63439 0.31645 0.21796 0.0
C1251 C 0.60041 0.33949 0.2161 0.0
C1252 C 0.57597 0.34304 0.20929 0.0
C1253 C 0.64656 0.33453 0.22812 0.0
C1254 C 0.63524 0.35501 0.23336 0.0
C1255 C 0.61252 0.3575 0.22656 0.0
C1256 C 0.64614 0.37315 0.24793 0.0
C1257 C 0.6713 0.33138 0.23377 0.0
C1258 C 0.65259 0.36883 0.27231 0.0
C1259 C 0.66247 0.38574 0.28655 0.0
C1260 C 0.66613 0.40746 0.27676 0.0
C1261 C 0.65951 0.41181 0.2523 0.0
C1262 C 0.64945 0.39481 0.23806 0.0
H1263 H 0.67885 0.31781 0.22228 0.0
H1264 H 0.68087 0.34726 0.2307 0.0
H1265 H 0.67325 0.32646 0.25337 0.0
H1266 H 0.64978 0.35235 0.28043 0.0
H1267 H 0.66725 0.38169 0.30529 0.0
H1268 H 0.24966 0.60065 0.66201 0.0
H1269 H 0.21375 0.61964 0.67071 0.0
H1270 H 0.20532 0.57884 0.73582 0.0
H1271 H 0.24082 0.55968 0.7273 0.0
H1272 H 0.16517 0.58425 0.70775 0.0
H1273 H 0.20821 0.66601 0.72721 0.0
H1274 H 0.21341 0.6534 0.69763 0.0
H1275 H 0.22349 0.63972 0.725 0.0
C1276 C 0.24006 0.59554 0.67805 0.0
C1277 C 0.24829 0.5787 0.69403 0.0
C1278 C 0.21958 0.60648 0.68302 0.0
C1279 C 0.20702 0.60081 0.70406 0.0
C1280 C 0.21476 0.58348 0.71948 0.0
H1281 H 0.12054 0.66318 0.80462 0.0
H1282 H 0.14977 0.64607 0.77941 0.0
C1283 C 0.23515 0.57258 0.71459 0.0
C1284 C 0.18644 0.61357 0.71109 0.0
H1285 H 0.16929 0.66417 0.73474 0.0
C1286 C 0.16591 0.60185 0.71324 0.0
C1287 C 0.18757 0.63647 0.71841 0.0
C1288 C 0.20934 0.6497 0.71716 0.0
C1289 C 0.14669 0.61218 0.72343 0.0
C1290 C 0.14806 0.63484 0.73148 0.0
C1291 C 0.16831 0.64683 0.72838 0.0
C1292 C 0.12979 0.64544 0.7461 0.0
C1293 C 0.12545 0.59848 0.72682 0.0
C1294 C 0.10877 0.65087 0.73568 0.0
C1295 C 0.09181 0.66077 0.75013 0.0
C1296 C 0.09565 0.66534 0.77524 0.0
C1297 C 0.11683 0.65989 0.78543 0.0
C1298 C 0.13367 0.65014 0.77102 0.0
H1299 H 0.12796 0.58039 0.72209 0.0
H1300 H 0.11952 0.59965 0.74618 0.0
H1301 H 0.11193 0.60538 0.71484 0.0
H1302 H 0.10554 0.64755 0.71638 0.0
H1303 H 0.07576 0.66482 0.74165 0.0
H1304 H 0.83926 0.12238 0.30492 0.0
H1305 H 0.85674 0.15178 0.28014 0.0
H1306 H 0.86205 0.10579 0.2189 0.0
H1307 H 0.84443 0.0759 0.24369 0.0
H1308 H 0.90255 0.13108 0.22999 0.0
H1309 H 0.82743 0.18633 0.22205 0.0
H1310 H 0.83312 0.17761 0.25311 0.0
H1311 H 0.82551 0.15685 0.2304 0.0
C1312 C 0.84403 0.11838 0.28617 0.0
C1313 C 0.84034 0.09669 0.27632 0.0
C1314 C 0.85392 0.13532 0.27198 0.0
C1315 C 0.86035 0.13107 0.24759 0.0
C1316 C 0.85702 0.10943 0.23766 0.0
H1317 H 0.90569 0.24944 0.16313 0.0
H1318 H 0.88733 0.21337 0.1725 0.0
C1319 C 0.84695 0.0924 0.25185 0.0
C1320 C 0.87119 0.14926 0.23303 0.0
H1321 H 0.86337 0.20382 0.2146 0.0
C1322 C 0.89391 0.14685 0.2262 0.0
C1323 C 0.85979 0.16969 0.22778 0.0
C1324 C 0.83504 0.17276 0.23349 0.0
C1325 C 0.90592 0.16489 0.21564 0.0
C1326 C 0.89495 0.18589 0.21212 0.0
C1327 C 0.87185 0.18779 0.21752 0.0
C1328 C 0.90746 0.20659 0.20492 0.0
C1329 C 0.93035 0.16141 0.20876 0.0
C1330 C 0.92485 0.21476 0.22003 0.0
C1331 C 0.93533 0.23532 0.2148 0.0
C1332 C 0.92858 0.24831 0.19436 0.0
C1333 C 0.91141 0.23988 0.17895 0.0
C1334 C 0.90087 0.21927 0.18428 0.0
H1335 H 0.93397 0.14334 0.20491 0.0
H1336 H 0.93502 0.17158 0.19235 0.0
H1337 H 0.94122 0.16672 0.22437 0.0
H1338 H 0.92984 0.20557 0.23639 0.0
H1339 H 0.94838 0.24125 0.22718 0.0
H1340 H 0.25891 0.90925 0.66308 0.0
H1341 H 0.29481 0.89072 0.67277 0.0
H1342 H 0.29907 0.92841 0.74051 0.0
H1343 H 0.26349 0.94715 0.73102 0.0
H1344 H 0.34075 0.92501 0.71446 0.0
H1345 H 0.29834 0.84182 0.72699 0.0
H1346 H 0.29416 0.85565 0.69787 0.0
H1347 H 0.28275 0.86797 0.72539 0.0
C1348 C 0.26759 0.9138 0.67992 0.0
C1349 C 0.25815 0.9296 0.69635 0.0
C1350 C 0.28807 0.90311 0.68545 0.0
C1351 C 0.29943 0.90799 0.7075 0.0
C1352 C 0.29055 0.92439 0.7234 0.0
H1353 H 0.38475 0.84034 0.80646 0.0
H1354 H 0.35563 0.8588 0.78217 0.0
C1355 C 0.27013 0.93505 0.71794 0.0
C1356 C 0.31988 0.89526 0.71496 0.0
H1357 H 0.33709 0.84363 0.7358 0.0
C1358 C 0.34011 0.90714 0.71877 0.0
C1359 C 0.31886 0.87198 0.72075 0.0
C1360 C 0.29737 0.85854 0.71775 0.0
C1361 C 0.35917 0.89649 0.72895 0.0
C1362 C 0.35793 0.87337 0.73531 0.0
C1363 C 0.33797 0.86132 0.73072 0.0
C1364 C 0.37611 0.86205 0.74941 0.0
C1365 C 0.38009 0.91025 0.73403 0.0
C1366 C 0.39735 0.85763 0.73897 0.0
C1367 C 0.41422 0.84696 0.75287 0.0
C1368 C 0.41009 0.8406 0.77745 0.0
C1369 C 0.38868 0.84502 0.78767 0.0
C1370 C 0.37192 0.85555 0.77379 0.0
H1371 H 0.37735 0.92858 0.73078 0.0
H1372 H 0.38567 0.90779 0.75337 0.0
H1373 H 0.39396 0.90446 0.72183 0.0
H1374 H 0.40081 0.86233 0.72007 0.0
H1375 H 0.43046 0.84375 0.74439 0.0
H1376 H 0.59491 0.24641 0.84382 0.0
H1377 H 0.61403 0.21095 0.83358 0.0
H1378 H 0.57611 0.20678 0.76597 0.0
H1379 H 0.55678 0.24192 0.77602 0.0
H1380 H 0.58024 0.16492 0.79151 0.0
H1381 H 0.66276 0.20861 0.77915 0.0
H1382 H 0.64901 0.21237 0.80838 0.0
H1383 H 0.6364 0.2238 0.78103 0.0
C1384 C 0.59044 0.23784 0.82689 0.0
C1385 C 0.57439 0.24718 0.81067 0.0
C1386 C 0.60146 0.21762 0.82104 0.0
C1387 C 0.59668 0.20641 0.79887 0.0
C1388 C 0.58007 0.21519 0.78316 0.0
H1389 H 0.66609 0.12189 0.69999 0.0
H1390 H 0.64724 0.15093 0.72404 0.0
C1391 C 0.56907 0.23536 0.78894 0.0
C1392 C 0.60969 0.18622 0.79115 0.0
H1393 H 0.66159 0.16981 0.77036 0.0
C1394 C 0.5981 0.16584 0.78722 0.0
C1395 C 0.63295 0.18759 0.78538 0.0
C1396 C 0.64608 0.20927 0.78849 0.0
C1397 C 0.60903 0.14697 0.777 0.0
C1398 C 0.63215 0.14853 0.77073 0.0
C1399 C 0.64389 0.16867 0.77538 0.0
C1400 C 0.64381 0.13046 0.75679 0.0
C1401 C 0.59556 0.12587 0.77182 0.0
C1402 C 0.6483 0.10927 0.76733 0.0
C1403 C 0.65919 0.09245 0.75357 0.0
C1404 C 0.66572 0.09658 0.72904 0.0
C1405 C 0.66128 0.11796 0.71875 0.0
C1406 C 0.65053 0.13468 0.73249 0.0
H1407 H 0.57717 0.12843 0.77477 0.0
H1408 H 0.59832 0.12022 0.75256 0.0
H1409 H 0.60134 0.11212 0.78421 0.0
H1410 H 0.64345 0.10579 0.78618 0.0
H1411 H 0.6624 0.07623 0.76211 0.0
H1412 H 0.38275 0.66574 0.20281 0.0
H1413 H 0.35327 0.64831 0.22748 0.0
H1414 H 0.39891 0.6434 0.28908 0.0
H1415 H 0.4289 0.661 0.2644 0.0
H1416 H 0.37374 0.60269 0.2778 0.0
H1417 H 0.31835 0.67775 0.28532 0.0
H1418 H 0.32734 0.67212 0.25435 0.0
H1419 H 0.3479 0.67971 0.27728 0.0
C1420 C 0.38666 0.66108 0.22162 0.0
C1421 C 0.40828 0.66488 0.2316 0.0
C1422 C 0.36967 0.65121 0.23575 0.0
C1423 C 0.3738 0.6449 0.2602 0.0
C1424 C 0.39536 0.64835 0.27027 0.0
H1425 H 0.2547 0.59918 0.34314 0.0
H1426 H 0.29084 0.61762 0.33434 0.0
C1427 C 0.41245 0.6584 0.25614 0.0
C1428 C 0.35556 0.63405 0.27465 0.0
H1429 H 0.30084 0.64176 0.29249 0.0
C1430 C 0.35793 0.61131 0.28145 0.0
C1431 C 0.33507 0.64542 0.27972 0.0
C1432 C 0.33203 0.67017 0.27402 0.0
C1433 C 0.33981 0.59925 0.29178 0.0
C1434 C 0.31877 0.61018 0.29507 0.0
C1435 C 0.31689 0.63331 0.28974 0.0
C1436 C 0.29801 0.59762 0.30193 0.0
C1437 C 0.34325 0.5748 0.29861 0.0
C1438 C 0.29003 0.58029 0.28663 0.0
C1439 C 0.26942 0.56976 0.29153 0.0
C1440 C 0.2562 0.57641 0.31183 0.0
C1441 C 0.26444 0.59353 0.32742 0.0
C1442 C 0.28509 0.60412 0.32242 0.0
H1443 H 0.36128 0.57119 0.30269 0.0
H1444 H 0.33291 0.57006 0.31487 0.0
H1445 H 0.33812 0.56398 0.28289 0.0
H1446 H 0.2994 0.57537 0.27037 0.0
H1447 H 0.26365 0.55675 0.27901 0.0
H1448 H 0.81413 0.38203 0.71651 0.0
H1449 H 0.83273 0.35157 0.73883 0.0
H1450 H 0.87558 0.40012 0.77531 0.0
H1451 H 0.85611 0.43092 0.75366 0.0
H1452 H 0.87455 0.34013 0.73361 0.0
H1453 H 0.8607 0.35978 0.83221 0.0
H1454 H 0.84537 0.37381 0.8079 0.0
H1455 H 0.87362 0.38255 0.81557 0.0
C1456 C 0.82724 0.38625 0.72963 0.0
C1457 C 0.83374 0.4088 0.73332 0.0
C1458 C 0.83787 0.36882 0.74239 0.0
C1459 C 0.85553 0.37346 0.75889 0.0
C1460 C 0.86168 0.39609 0.76315 0.0
H1461 H 0.95513 0.26886 0.78703 0.0
H1462 H 0.93624 0.30399 0.77598 0.0
C1463 C 0.85064 0.41367 0.75068 0.0
C1464 C 0.86865 0.35437 0.76954 0.0
H1465 H 0.88752 0.33081 0.82324 0.0
C1466 C 0.87726 0.3381 0.75324 0.0
C1467 C 0.8721 0.35156 0.79516 0.0
C1468 C 0.86227 0.36772 0.81375 0.0
C1469 C 0.88903 0.3191 0.76172 0.0
C1470 C 0.8932 0.31666 0.78725 0.0
C1471 C 0.88457 0.33286 0.80365 0.0
C1472 C 0.90601 0.29705 0.79705 0.0
C1473 C 0.89624 0.30149 0.74319 0.0
C1474 C 0.89594 0.28211 0.81388 0.0
C1475 C 0.90698 0.26214 0.82072 0.0
C1476 C 0.92818 0.25669 0.81064 0.0
C1477 C 0.9387 0.27233 0.79487 0.0
C1478 C 0.92786 0.29241 0.78842 0.0
H1479 H 0.88612 0.30253 0.726 0.0
H1480 H 0.91419 0.30431 0.7382 0.0
H1481 H 0.89455 0.28417 0.75081 0.0
H1482 H 0.87915 0.28542 0.82093 0.0
H1483 H 0.89842 0.25051 0.83296 0.0
H1484 H 0.12205 0.83706 0.20067 0.0
H1485 H 0.15152 0.85455 0.22534 0.0
H1486 H 0.10569 0.85999 0.2867 0.0
H1487 H 0.07572 0.84235 0.26203 0.0
H1488 H 0.13095 0.90052 0.27524 0.0
H1489 H 0.18618 0.82541 0.28355 0.0
H1490 H 0.17734 0.83091 0.25249 0.0
H1491 H 0.15667 0.82346 0.27535 0.0
C1492 C 0.1181 0.84185 0.21943 0.0
C1493 C 0.09643 0.8382 0.22935 0.0
C1494 C 0.13508 0.85175 0.23356 0.0
C1495 C 0.13089 0.85823 0.25794 0.0
C1496 C 0.10928 0.85492 0.26795 0.0
H1497 H 0.24941 0.90431 0.34167 0.0
H1498 H 0.21336 0.8858 0.33259 0.0
C1499 C 0.09221 0.84484 0.25382 0.0
C1500 C 0.1491 0.86912 0.27239 0.0
H1501 H 0.2037 0.8614 0.29067 0.0
C1502 C 0.14673 0.89189 0.27905 0.0
C1503 C 0.16953 0.85774 0.27766 0.0
C1504 C 0.17257 0.83296 0.27212 0.0
C1505 C 0.1648 0.90397 0.28943 0.0
C1506 C 0.1858 0.89301 0.29294 0.0
C1507 C 0.18768 0.86986 0.28775 0.0
C1508 C 0.20653 0.90556 0.29992 0.0
C1509 C 0.16137 0.92846 0.2961 0.0
C1510 C 0.21467 0.92277 0.28455 0.0
C1511 C 0.23523 0.93333 0.28961 0.0
C1512 C 0.24822 0.92684 0.31014 0.0
C1513 C 0.23984 0.90982 0.32578 0.0
C1514 C 0.21923 0.8992 0.32062 0.0
H1515 H 0.14332 0.93214 0.29995 0.0
H1516 H 0.17158 0.93323 0.31245 0.0
H1517 H 0.16668 0.9392 0.28038 0.0
H1518 H 0.20545 0.92758 0.26814 0.0
H1519 H 0.24113 0.94625 0.27704 0.0
H1520 H 0.33997 0.62243 0.70029 0.0
H1521 H 0.35787 0.65177 0.72477 0.0
H1522 H 0.35896 0.60748 0.78776 0.0
H1523 H 0.34099 0.57762 0.76325 0.0
H1524 H 0.34174 0.67148 0.76962 0.0
H1525 H 0.42553 0.62971 0.77989 0.0
H1526 H 0.40535 0.62104 0.75683 0.0
H1527 H 0.40089 0.61376 0.78851 0.0
C1528 C 0.344 0.61874 0.71932 0.0
C1529 C 0.3391 0.59751 0.72972 0.0
C1530 C 0.3542 0.63564 0.73331 0.0
C1531 C 0.35987 0.63175 0.758 0.0
C1532 C 0.35493 0.6107 0.76863 0.0
H1533 H 0.40612 0.75011 0.84349 0.0
H1534 H 0.38682 0.71457 0.83384 0.0
C1535 C 0.34461 0.5937 0.75461 0.0
C1536 C 0.37096 0.65002 0.77222 0.0
H1537 H 0.42193 0.66655 0.7955 0.0
C1538 C 0.35916 0.67034 0.77568 0.0
C1539 C 0.39372 0.64844 0.77988 0.0
C1540 C 0.40728 0.62716 0.77604 0.0
C1541 C 0.36977 0.68943 0.78575 0.0
C1542 C 0.39272 0.68804 0.79284 0.0
C1543 C 0.40429 0.66748 0.7902 0.0
C1544 C 0.40562 0.70839 0.80035 0.0
C1545 C 0.35669 0.71126 0.78746 0.0
C1546 C 0.42306 0.71629 0.78518 0.0
C1547 C 0.43415 0.73647 0.79063 0.0
C1548 C 0.42812 0.74921 0.8115 0.0
C1549 C 0.41117 0.74081 0.82723 0.0
C1550 C 0.40004 0.72055 0.8217 0.0
H1551 H 0.34041 0.71044 0.77733 0.0
H1552 H 0.35297 0.71496 0.80706 0.0
H1553 H 0.36678 0.7255 0.77998 0.0
H1554 H 0.42764 0.70716 0.76862 0.0
H1555 H 0.44713 0.74229 0.7781 0.0
H1556 H 0.88322 0.33834 0.20136 0.0
H1557 H 0.85409 0.35601 0.22625 0.0
H1558 H 0.89986 0.35948 0.28787 0.0
H1559 H 0.92956 0.34175 0.2629 0.0
H1560 H 0.83576 0.34054 0.2719 0.0
H1561 H 0.87602 0.42535 0.27894 0.0
H1562 H 0.88468 0.40483 0.25623 0.0
H1563 H 0.89258 0.40119 0.28786 0.0
C1564 C 0.88728 0.34283 0.22018 0.0
C1565 C 0.90888 0.33868 0.23004 0.0
C1566 C 0.8705 0.3529 0.23441 0.0
C1567 C 0.87485 0.35919 0.25882 0.0
C1568 C 0.89626 0.35497 0.26895 0.0
H1569 H 0.75638 0.40525 0.34424 0.0
H1570 H 0.79222 0.38639 0.33497 0.0
C1571 C 0.91317 0.34478 0.25467 0.0
C1572 C 0.85667 0.37022 0.27323 0.0
H1573 H 0.83944 0.42147 0.29511 0.0
C1574 C 0.83665 0.35813 0.2774 0.0
C1575 C 0.8579 0.3932 0.28014 0.0
C1576 C 0.87885 0.40707 0.27551 0.0
C1577 C 0.81747 0.36863 0.28739 0.0
C1578 C 0.81848 0.3918 0.29369 0.0
C1579 C 0.83879 0.40368 0.2904 0.0
C1580 C 0.79796 0.40454 0.30096 0.0
C1581 C 0.79592 0.35519 0.28978 0.0
C1582 C 0.78971 0.42151 0.28536 0.0
C1583 C 0.76936 0.43238 0.29061 0.0
C1584 C 0.75678 0.42656 0.31168 0.0
C1585 C 0.76553 0.4101 0.32781 0.0
C1586 C 0.78597 0.39922 0.3225 0.0
H1587 H 0.79693 0.33869 0.28012 0.0
H1588 H 0.79252 0.35186 0.30954 0.0
H1589 H 0.78139 0.36482 0.28223 0.0
H1590 H 0.7987 0.42589 0.26865 0.0
H1591 H 0.76328 0.44499 0.27778 0.0
H1592 H 0.04786 0.76845 0.78993 0.0
H1593 H 0.06648 0.80356 0.7782 0.0
H1594 H 0.12597 0.78353 0.81849 0.0
H1595 H 0.10702 0.74865 0.83124 0.0
H1596 H 0.11866 0.82881 0.82218 0.0
H1597 H 0.11313 0.80237 0.72451 0.0
H1598 H 0.08595 0.80443 0.73887 0.0
H1599 H 0.10596 0.7837 0.74952 0.0
C1600 C 0.06479 0.77161 0.79661 0.0
C1601 C 0.07606 0.75558 0.81124 0.0
C1602 C 0.07547 0.79166 0.78976 0.0
C1603 C 0.09787 0.79587 0.79683 0.0
C1604 C 0.10874 0.78055 0.81263 0.0
H1605 H 0.1866 0.88073 0.7119 0.0
H1606 H 0.16816 0.85016 0.73417 0.0
C1607 C 0.09789 0.76061 0.81989 0.0
C1608 C 0.11033 0.81546 0.78644 0.0
H1609 H 0.12587 0.83961 0.73198 0.0
C1610 C 0.12033 0.83118 0.80247 0.0
C1611 C 0.11286 0.81831 0.7607 0.0
C1612 C 0.10412 0.80119 0.74241 0.0
C1613 C 0.13259 0.84979 0.79342 0.0
C1614 C 0.13438 0.85305 0.76766 0.0
C1615 C 0.1244 0.83726 0.75173 0.0
C1616 C 0.1472 0.87207 0.75646 0.0
C1617 C 0.14399 0.86537 0.81155 0.0
C1618 C 0.14193 0.89471 0.76184 0.0
C1619 C 0.15285 0.91235 0.74936 0.0
C1620 C 0.16877 0.90757 0.73088 0.0
C1621 C 0.17426 0.88495 0.72589 0.0
C1622 C 0.16373 0.86744 0.73864 0.0
H1623 H 0.14661 0.85701 0.82965 0.0
H1624 H 0.16059 0.87121 0.80452 0.0
H1625 H 0.13313 0.88038 0.8146 0.0
H1626 H 0.12886 0.89877 0.77505 0.0
H1627 H 0.14816 0.92963 0.75341 0.0
H1628 H 0.62149 0.16466 0.2012 0.0
H1629 H 0.65105 0.14695 0.22552 0.0
H1630 H 0.60694 0.14521 0.28863 0.0
H1631 H 0.57686 0.163 0.26427 0.0
H1632 H 0.67062 0.16325 0.27053 0.0
H1633 H 0.62998 0.07884 0.28027 0.0
H1634 H 0.62108 0.09898 0.25726 0.0
H1635 H 0.61372 0.10327 0.28895 0.0
C1636 C 0.61789 0.16052 0.22022 0.0
C1637 C 0.59665 0.16521 0.2307 0.0
C1638 C 0.63491 0.15043 0.23413 0.0
C1639 C 0.63115 0.14464 0.2588 0.0
C1640 C 0.61008 0.14934 0.26951 0.0
H1641 H 0.75035 0.09932 0.34349 0.0
H1642 H 0.7145 0.11819 0.33419 0.0
C1643 C 0.59295 0.15955 0.25557 0.0
C1644 C 0.64957 0.13372 0.27293 0.0
H1645 H 0.66685 0.08279 0.29566 0.0
C1646 C 0.66972 0.14577 0.27644 0.0
C1647 C 0.64832 0.11087 0.28038 0.0
C1648 C 0.62721 0.09707 0.27648 0.0
C1649 C 0.68898 0.13534 0.28635 0.0
C1650 C 0.68794 0.11231 0.29322 0.0
C1651 C 0.66753 0.10048 0.29053 0.0
C1652 C 0.70848 0.09963 0.30051 0.0
C1653 C 0.71064 0.1487 0.28812 0.0
C1654 C 0.71658 0.08246 0.2851 0.0
C1655 C 0.73694 0.07161 0.29035 0.0
C1656 C 0.74966 0.07763 0.31125 0.0
C1657 C 0.74107 0.0943 0.3272 0.0
C1658 C 0.72063 0.10518 0.32187 0.0
H1659 H 0.70956 0.16507 0.27818 0.0
H1660 H 0.71437 0.15229 0.30775 0.0
H1661 H 0.72499 0.13888 0.28047 0.0
H1662 H 0.70746 0.0779 0.26853 0.0
H1663 H 0.7429 0.05883 0.27766 0.0
H1664 H 0.40537 0.75393 0.16411 0.0
H1665 H 0.38684 0.7901 0.1726 0.0
H1666 H 0.42837 0.79871 0.23713 0.0
H1667 H 0.44705 0.76294 0.22881 0.0
H1668 H 0.36226 0.80024 0.21413 0.0
H1669 H 0.43303 0.86053 0.20473 0.0
H1670 H 0.43422 0.83214 0.19259 0.0
H1671 H 0.44003 0.83737 0.22463 0.0
C1672 C 0.41083 0.76369 0.17989 0.0
C1673 C 0.42777 0.75546 0.19573 0.0
C1674 C 0.4002 0.78436 0.18471 0.0
C1675 C 0.40648 0.7973 0.20526 0.0
C1676 C 0.42362 0.78932 0.22082 0.0
H1677 H 0.33784 0.88182 0.30391 0.0
H1678 H 0.35533 0.85241 0.2792 0.0
C1679 C 0.43419 0.7687 0.2161 0.0
C1680 C 0.39389 0.8181 0.21193 0.0
H1681 H 0.40139 0.87302 0.22939 0.0
C1682 C 0.37072 0.81627 0.21699 0.0
C1683 C 0.40485 0.83911 0.21536 0.0
C1684 C 0.42936 0.8425 0.20879 0.0
C1685 C 0.35858 0.83447 0.22693 0.0
C1686 C 0.36996 0.85491 0.23219 0.0
C1687 C 0.39275 0.85724 0.22561 0.0
C1688 C 0.35907 0.87312 0.24665 0.0
C1689 C 0.33378 0.83148 0.23237 0.0
C1690 C 0.35579 0.89476 0.2367 0.0
C1691 C 0.34571 0.91181 0.25086 0.0
C1692 C 0.33903 0.90752 0.27531 0.0
C1693 C 0.34266 0.88582 0.28517 0.0
C1694 C 0.35256 0.86887 0.27102 0.0
H1695 H 0.32624 0.81789 0.2209 0.0
H1696 H 0.33166 0.82668 0.25199 0.0
H1697 H 0.32432 0.8474 0.22912 0.0
H1698 H 0.3609 0.89839 0.21796 0.0
H1699 H 0.34324 0.92831 0.24269 0.0
H1700 H 0.74988 0.40125 0.67555 0.0
H1701 H 0.71435 0.38377 0.68806 0.0
H1702 H 0.69803 0.44277 0.73117 0.0
H1703 H 0.73407 0.45968 0.71994 0.0
H1704 H 0.69266 0.40803 0.75779 0.0
H1705 H 0.64996 0.3899 0.6696 0.0
H1706 H 0.67755 0.37748 0.67028 0.0
H1707 H 0.67458 0.40777 0.67143 0.0
C1708 C 0.73856 0.41066 0.68737 0.0
C1709 C 0.74491 0.43184 0.69685 0.0
C1710 C 0.71809 0.40071 0.69434 0.0
C1711 C 0.70325 0.41203 0.71034 0.0
C1712 C 0.70914 0.43365 0.71883 0.0
H1713 H 0.5711 0.35782 0.75517 0.0
H1714 H 0.60099 0.37918 0.73412 0.0
C1715 C 0.72978 0.44335 0.71234 0.0
C1716 C 0.6829 0.40049 0.72043 0.0
H1717 H 0.63656 0.36909 0.70493 0.0
C1718 C 0.68027 0.3998 0.74612 0.0
C1719 C 0.66645 0.38995 0.70535 0.0
C1720 C 0.66714 0.39152 0.67764 0.0
C1721 C 0.66214 0.38846 0.75715 0.0
C1722 C 0.64661 0.37656 0.74216 0.0
C1723 C 0.64871 0.37783 0.71644 0.0
C1724 C 0.62847 0.36242 0.75307 0.0
C1725 C 0.65974 0.3896 0.78481 0.0
C1726 C 0.63399 0.34537 0.76998 0.0
C1727 C 0.61704 0.33352 0.78225 0.0
C1728 C 0.59417 0.33801 0.7774 0.0
C1729 C 0.5886 0.35405 0.7593 0.0
C1730 C 0.60564 0.36625 0.74729 0.0
H1731 H 0.66793 0.405 0.79239 0.0
H1732 H 0.64173 0.38959 0.79048 0.0
H1733 H 0.66819 0.37475 0.79319 0.0
H1734 H 0.65147 0.34155 0.77412 0.0
H1735 H 0.62188 0.32097 0.79578 0.0
H1736 H 0.16555 0.62135 0.30451 0.0
H1737 H 0.14781 0.65049 0.27965 0.0
H1738 H 0.14553 0.60518 0.21758 0.0
H1739 H 0.16332 0.57548 0.24252 0.0
H1740 H 0.16357 0.66935 0.23435 0.0
H1741 H 0.07931 0.6282 0.22583 0.0
H1742 H 0.09967 0.61961 0.24874 0.0
H1743 H 0.10373 0.61197 0.2171 0.0
C1744 C 0.1613 0.61739 0.2856 0.0
C1745 C 0.16581 0.59592 0.2756 0.0
C1746 C 0.15119 0.63418 0.27138 0.0
C1747 C 0.14522 0.62996 0.24685 0.0
C1748 C 0.14979 0.60867 0.23659 0.0
H1749 H 0.09876 0.74854 0.16173 0.0
H1750 H 0.11787 0.71279 0.1709 0.0
C1751 C 0.16002 0.59176 0.25085 0.0
C1752 C 0.13414 0.64812 0.23245 0.0
H1753 H 0.08297 0.66493 0.20996 0.0
C1754 C 0.14606 0.66831 0.22859 0.0
C1755 C 0.11126 0.64668 0.2252 0.0
C1756 C 0.09758 0.62555 0.22948 0.0
C1757 C 0.13545 0.68743 0.21858 0.0
C1758 C 0.11238 0.68621 0.21194 0.0
C1759 C 0.10069 0.66574 0.21492 0.0
C1760 C 0.09949 0.70664 0.20467 0.0
C1761 C 0.14868 0.70915 0.21652 0.0
C1762 C 0.08232 0.71462 0.22015 0.0
C1763 C 0.07132 0.73492 0.21497 0.0
C1764 C 0.07721 0.74771 0.19407 0.0
C1765 C 0.09385 0.73922 0.17803 0.0
C1766 C 0.10487 0.71883 0.18328 0.0
H1767 H 0.1651 0.70824 0.22635 0.0
H1768 H 0.15214 0.71274 0.19683 0.0
H1769 H 0.13882 0.72351 0.2241 0.0
H1770 H 0.07789 0.70547 0.23675 0.0
H1771 H 0.05857 0.7408 0.22773 0.0
H1772 H 0.92969 0.16332 0.74189 0.0
H1773 H 0.89992 0.1459 0.7167 0.0
H1774 H 0.85403 0.14936 0.77817 0.0
H1775 H 0.88327 0.16653 0.80334 0.0
H1776 H 0.87476 0.10457 0.72764 0.0
H1777 H 0.81932 0.17963 0.7203 0.0
H1778 H 0.8489 0.18158 0.72825 0.0
H1779 H 0.82842 0.1739 0.75122 0.0
C1780 C 0.91323 0.16043 0.75001 0.0
C1781 C 0.90893 0.16641 0.77467 0.0
C1782 C 0.89627 0.15049 0.73559 0.0
C1783 C 0.8747 0.14668 0.74549 0.0
C1784 C 0.87044 0.15252 0.77005 0.0
H1785 H 0.76476 0.05875 0.72727 0.0
H1786 H 0.80048 0.07754 0.73561 0.0
C1787 C 0.8873 0.16226 0.78446 0.0
C1788 C 0.85657 0.13592 0.73079 0.0
H1789 H 0.80184 0.14363 0.71299 0.0
C1790 C 0.85895 0.11319 0.72397 0.0
C1791 C 0.83609 0.14729 0.72573 0.0
C1792 C 0.83304 0.17202 0.73153 0.0
C1793 C 0.84082 0.10114 0.71367 0.0
C1794 C 0.81977 0.11206 0.71042 0.0
C1795 C 0.8179 0.13519 0.71571 0.0
C1796 C 0.79898 0.09946 0.70376 0.0
C1797 C 0.84423 0.07667 0.70689 0.0
C1798 C 0.78601 0.10572 0.68322 0.0
C1799 C 0.76538 0.09501 0.67837 0.0
C1800 C 0.75723 0.07801 0.69418 0.0
C1801 C 0.77047 0.07165 0.71457 0.0
C1802 C 0.79105 0.08228 0.71931 0.0
H1803 H 0.86226 0.07304 0.70282 0.0
H1804 H 0.8391 0.06588 0.72263 0.0
H1805 H 0.83387 0.07192 0.69065 0.0
H1806 H 0.79171 0.11911 0.67113 0.0
H1807 H 0.75561 0.10044 0.66258 0.0
H1808 H 0.50251 0.24348 0.11397 0.0
H1809 H 0.49322 0.25512 0.07177 0.0
H1810 H 0.54936 0.21606 0.0444 0.0
H1811 H 0.55815 0.20383 0.08598 0.0
H1812 H 0.51634 0.27918 0.0403 0.0
H1813 H 0.50213 0.1963 0.9972 0.0
H1814 H 0.50385 0.19966 0.03017 0.0
H1815 H 0.52915 0.19636 0.012 0.0
C1816 C 0.51265 0.23715 0.09888 0.0
C1817 C 0.53097 0.2226 0.10336 0.0
C1818 C 0.50732 0.2438 0.07477 0.0
C1819 C 0.52024 0.23605 0.05475 0.0
C1820 C 0.53859 0.22164 0.05932 0.0
H1821 H 0.55791 0.29984 0.92236 0.0
H1822 H 0.54964 0.2882 0.96428 0.0
C1823 C 0.54374 0.21481 0.08325 0.0
C1824 C 0.51589 0.24421 0.02925 0.0
H1825 H 0.51434 0.22631 0.96951 0.0
C1826 C 0.51544 0.26759 0.02487 0.0
C1827 C 0.51404 0.22922 0.00902 0.0
C1828 C 0.51205 0.20401 0.0124 0.0
C1829 C 0.51489 0.2763 1.00082 0.0
C1830 C 0.51559 0.26126 0.98054 0.0
C1831 C 0.51432 0.23792 0.98495 0.0
C1832 C 0.51958 0.26923 0.9549 0.0
C1833 C 0.51382 0.30158 0.99748 0.0
C1834 C 0.50591 0.26186 0.93529 0.0
C1835 C 0.51092 0.26815 0.91099 0.0
C1836 C 0.52967 0.28196 0.90589 0.0
C1837 C 0.54316 0.28943 0.92559 0.0
C1838 C 0.53832 0.28294 0.94971 0.0
H1839 H 0.50459 0.30967 0.01296 0.0
H1840 H 0.53122 0.30854 0.9974 0.0
H1841 H 0.50537 0.30627 0.97996 0.0
H1842 H 0.49147 0.25109 0.93877 0.0
H1843 H 0.50021 0.26208 0.89624 0.0
H1844 H 0.24185 0.50279 0.3947 0.0
H1845 H 0.25332 0.494 0.43707 0.0
H1846 H 0.21548 0.55145 0.46327 0.0
H1847 H 0.20338 0.55974 0.42151 0.0
H1848 H 0.27793 0.51705 0.46783 0.0
H1849 H 0.19497 0.5057 0.51172 0.0
H1850 H 0.19819 0.50676 0.47871 0.0
H1851 H 0.19562 0.53245 0.49636 0.0
C1852 C 0.23574 0.51332 0.40957 0.0
C1853 C 0.22157 0.53187 0.40471 0.0
C1854 C 0.24229 0.50829 0.43378 0.0
C1855 C 0.23485 0.52173 0.45353 0.0
C1856 C 0.22081 0.54029 0.44858 0.0
H1857 H 0.3005 0.55994 0.58472 0.0
H1858 H 0.28822 0.55141 0.54309 0.0
C1859 C 0.21405 0.54515 0.42455 0.0
C1860 C 0.24303 0.51769 0.47909 0.0
H1861 H 0.22543 0.51764 0.53897 0.0
C1862 C 0.2664 0.51672 0.48334 0.0
C1863 C 0.22811 0.51659 0.49945 0.0
C1864 C 0.20284 0.51515 0.49627 0.0
C1865 C 0.27523 0.51636 0.50735 0.0
C1866 C 0.26033 0.5178 0.5277 0.0
C1867 C 0.23694 0.51706 0.52346 0.0
C1868 C 0.26856 0.52199 0.5532 0.0
C1869 C 0.30049 0.51468 0.51055 0.0
C1870 C 0.261 0.50881 0.57312 0.0
C1871 C 0.26766 0.51399 0.59726 0.0
C1872 C 0.28205 0.53242 0.60188 0.0
C1873 C 0.28966 0.54544 0.58187 0.0
C1874 C 0.2828 0.54044 0.55791 0.0
H1875 H 0.30825 0.505 0.4952 0.0
H1876 H 0.3079 0.53189 0.51025 0.0
H1877 H 0.30505 0.50639 0.5282 0.0
H1878 H 0.24982 0.49462 0.57002 0.0
H1879 H 0.26147 0.50366 0.61227 0.0
H1880 H 1.00203 0.26324 0.11056 0.0
H1881 H 0.01085 0.25203 0.06812 0.0
H1882 H 0.95277 0.28909 0.04223 0.0
H1883 H 0.94442 0.30092 0.08407 0.0
H1884 H 0.98801 0.22718 0.03733 0.0
H1885 H 0.9981 0.31048 0.99375 0.0
H1886 H 0.9972 0.30711 0.02676 0.0
H1887 H 0.97142 0.30938 0.0092 0.0
C1888 C 0.99136 0.26923 0.09574 0.0
C1889 C 0.97262 0.2831 0.10071 0.0
C1890 C 0.99641 0.26283 0.07149 0.0
C1891 C 0.9828 0.27014 0.05181 0.0
C1892 C 0.96405 0.28387 0.05687 0.0
H1893 H 0.94508 0.20465 0.92042 0.0
H1894 H 0.95348 0.21696 0.96207 0.0
C1895 C 0.95916 0.29048 0.08094 0.0
C1896 C 0.98689 0.26212 0.02621 0.0
H1897 H 0.98659 0.27995 0.9664 0.0
C1898 C 0.98815 0.23877 0.02186 0.0
C1899 C 0.98774 0.27713 0.00591 0.0
C1900 C 0.98882 0.30241 0.0092 0.0
C1901 C 0.98857 0.23004 0.99782 0.0
C1902 C 0.98691 0.24501 0.97754 0.0
C1903 C 0.98735 0.26838 0.98187 0.0
C1904 C 0.98277 0.23681 0.95202 0.0
C1905 C 0.99054 0.20481 0.9945 0.0
C1906 C 0.99594 0.24446 0.93214 0.0
C1907 C 0.99086 0.23775 0.90799 0.0
C1908 C 0.97253 0.22326 0.90333 0.0
C1909 C 0.9595 0.21558 0.9233 0.0
C1910 C 0.96442 0.22247 0.94727 0.0
H1911 H 1.00027 0.19709 0.00984 0.0
H1912 H 0.97341 0.19721 0.9947 0.0
H1913 H 0.99891 0.20043 0.97684 0.0
H1914 H 0.01006 0.25572 0.93529 0.0
H1915 H 1.0012 0.24399 0.89301 0.0
H1916 H 0.29842 0.94302 0.42006 0.0
H1917 H 0.28565 0.95098 0.46169 0.0
H1918 H 0.25062 0.01029 0.43572 0.0
H1919 H 0.2627 1.00183 0.39347 0.0
H1920 H 0.29235 0.98491 0.49218 0.0
H1921 H 0.20058 0.97895 0.47161 0.0
H1922 H 0.22186 0.97099 0.44955 0.0
H1923 H 0.21539 1.00031 0.45462 0.0
C1924 C 0.28803 0.95781 0.4231 0.0
C1925 C 0.28143 0.9717 0.40336 0.0
C1926 C 0.28075 0.96237 0.44701 0.0
C1927 C 0.26686 0.98104 0.4519 0.0
C1928 C 0.26084 0.99544 0.43237 0.0
H1929 H 0.2415 0.00346 0.61113 0.0
H1930 H 0.25311 0.01136 0.5686 0.0
C1931 C 0.26787 0.99068 0.40825 0.0
C1932 C 0.25859 0.98478 0.47747 0.0
H1933 H 0.21079 0.98595 0.51266 0.0
C1934 C 0.2745 0.98534 0.49667 0.0
C1935 C 0.23529 0.98524 0.48333 0.0
C1936 C 0.21725 0.98366 0.46376 0.0
C1937 C 0.26784 0.98522 0.5215 0.0
C1938 C 0.24454 0.98536 0.52737 0.0
C1939 C 0.22864 0.98593 0.50816 0.0
C1940 C 0.23624 0.9822 0.55303 0.0
C1941 C 0.28586 0.98353 0.5411 0.0
C1942 C 0.22206 0.96384 0.55833 0.0
C1943 C 0.21506 0.95959 0.58241 0.0
C1944 C 0.22221 0.9735 0.6019 0.0
C1945 C 0.23591 0.99229 0.59656 0.0
C1946 C 0.24267 0.99673 0.57228 0.0
H1947 H 0.30242 0.97835 0.53333 0.0
H1948 H 0.28808 1.00028 0.54993 0.0
H1949 H 0.28099 0.97118 0.55554 0.0
H1950 H 0.21682 0.95238 0.54387 0.0
H1951 H 0.20452 0.94497 0.58578 0.0
H1952 H 0.50361 0.76248 0.8954 0.0
H1953 H 0.51174 0.75025 0.93769 0.0
H1954 H 0.45265 0.78582 0.96332 0.0
H1955 H 0.44503 0.79873 0.92168 0.0
H1956 H 0.48642 0.79211 0.99409 0.0
H1957 H 0.47972 0.70043 0.97321 0.0
H1958 H 0.50134 0.71511 0.95648 0.0
H1959 H 0.47213 0.72185 0.95112 0.0
C1960 C 0.49244 0.76773 0.91011 0.0
C1961 C 0.47362 0.78149 0.90512 0.0
C1962 C 0.49702 0.76062 0.93425 0.0
C1963 C 0.48258 0.76676 0.9537 0.0
C1964 C 0.46407 0.78084 0.94871 0.0
H1965 H 0.44455 0.7041 0.08667 0.0
H1966 H 0.45245 0.71678 0.045 0.0
C1967 C 0.4597 0.78819 0.92479 0.0
C1968 C 0.48606 0.75839 0.97929 0.0
H1969 H 0.48633 0.71048 0.01435 0.0
C1970 C 0.4866 0.77425 0.99853 0.0
C1971 C 0.48622 0.73507 0.98509 0.0
C1972 C 0.48463 0.71709 0.96545 0.0
C1973 C 0.48613 0.76752 0.02335 0.0
C1974 C 0.48592 0.7442 0.02915 0.0
C1975 C 0.48655 0.72835 0.00991 0.0
C1976 C 0.48234 0.73586 0.05473 0.0
C1977 C 0.48443 0.78551 0.04296 0.0
C1978 C 0.49669 0.74205 0.07424 0.0
C1979 C 0.49196 0.73508 0.09839 0.0
C1980 C 0.47306 0.72141 0.10333 0.0
C1981 C 0.45927 0.71459 0.0836 0.0
C1982 C 0.46379 0.72181 0.05966 0.0
H1983 H 0.47954 0.80216 0.03517 0.0
H1984 H 0.47187 0.78075 0.05722 0.0
H1985 H 0.5011 0.78752 0.05203 0.0
H1986 H 0.51144 0.75239 0.07085 0.0
H1987 H 0.50304 0.74041 0.11315 0.0
H1988 H 0.79926 0.44427 0.58659 0.0
H1989 H 0.78784 0.45243 0.54457 0.0
H1990 H 0.75177 0.51148 0.56945 0.0
H1991 H 0.76256 0.50288 0.61208 0.0
H1992 H 0.72662 0.48863 0.53883 0.0
H1993 H 0.81028 0.49694 0.49564 0.0
H1994 H 0.80864 0.47045 0.51145 0.0
H1995 H 0.80673 0.49647 0.52864 0.0
C1996 C 0.78913 0.45918 0.5832 0.0
C1997 C 0.78189 0.47297 0.60275 0.0
C1998 C 0.78276 0.46395 0.55902 0.0
C1999 C 0.76941 0.48291 0.55363 0.0
C2000 C 0.76227 0.49687 0.57309 0.0
H2001 H 0.74443 0.50031 0.3945 0.0
H2002 H 0.75599 0.50937 0.43677 0.0
C2003 C 0.76844 0.49194 0.59744 0.0
C2004 C 0.76158 0.48687 0.52794 0.0
H2005 H 0.77968 0.48573 0.46825 0.0
C2006 C 0.73828 0.48845 0.52343 0.0
C2007 C 0.7767 0.48729 0.50772 0.0
C2008 C 0.80197 0.48797 0.51117 0.0
C2009 C 0.72966 0.48878 0.49933 0.0
C2010 C 0.7447 0.48671 0.47917 0.0
C2011 C 0.76806 0.48682 0.48364 0.0
C2012 C 0.73657 0.48251 0.45363 0.0
C2013 C 0.70449 0.4911 0.49583 0.0
C2014 C 0.72197 0.46433 0.44895 0.0
C2015 C 0.71519 0.4593 0.42498 0.0
C2016 C 0.72321 0.47203 0.40493 0.0
C2017 C 0.73792 0.4902 0.40953 0.0
C2018 C 0.74453 0.4954 0.43368 0.0
H2019 H 0.69683 0.50107 0.51102 0.0
H2020 H 0.70032 0.49939 0.47807 0.0
H2021 H 0.69664 0.47408 0.49615 0.0
H2022 H 0.7162 0.4536 0.46383 0.0
H2023 H 0.70407 0.44501 0.42215 0.0
H2024 H 0.05822 0.80095 0.08412 0.0
H2025 H 0.04974 0.78886 0.04242 0.0
H2026 H 0.99397 0.74896 0.06927 0.0
H2027 H 0.00295 0.76047 0.11158 0.0
H2028 H 0.0176 0.72528 0.03807 0.0
H2029 H 0.0027 0.80793 0.9947 0.0
H2030 H 0.0296 0.80825 0.00974 0.0
H2031 H 0.00421 0.80462 0.02769 0.0
C2032 C 0.04395 0.78983 0.08124 0.0
C2033 C 0.03121 0.78174 0.10125 0.0
C2034 C 0.03898 0.78307 0.05725 0.0
C2035 C 0.02084 0.76844 0.0525 0.0
C2036 C 0.00792 0.76045 0.07241 0.0
H2037 H 0.00235 0.74126 0.89386 0.0
H2038 H 0.9933 0.75271 0.93619 0.0
C2039 C 0.01306 0.76702 0.09658 0.0
C2040 C 0.0168 0.76023 0.02696 0.0
H2041 H 0.01561 0.77806 0.96717 0.0
C2042 C 0.0167 0.73685 0.02261 0.0
C2043 C 0.01496 0.77518 0.00668 0.0
C2044 C 0.0126 0.80037 0.01001 0.0
C2045 C 0.01651 0.72811 0.99857 0.0
C2046 C 0.01723 0.74315 0.97828 0.0
C2047 C 0.01559 0.76647 0.98263 0.0
C2048 C 0.0216 0.73518 0.95272 0.0
C2049 C 0.01581 0.70282 0.99526 0.0
C2050 C 0.04061 0.72175 0.94783 0.0
C2051 C 0.04564 0.71502 0.92384 0.0
C2052 C 0.03206 0.72196 0.90398 0.0
C2053 C 0.01312 0.73561 0.90876 0.0
C2054 C 0.00793 0.74214 0.93294 0.0
H2055 H 0.00659 0.69461 0.01067 0.0
H2056 H 0.00756 0.69801 0.97767 0.0
H2057 H 0.03331 0.6961 0.99533 0.0
H2058 H 0.05192 0.71682 0.96255 0.0
H2059 H 0.06053 0.70477 0.92085 0.0
H2060 H 0.70533 0.05915 0.58448 0.0
H2061 H 0.71746 0.05049 0.54285 0.0
H2062 H 0.75593 0.99376 0.56983 0.0
H2063 H 0.74441 0.00292 0.6121 0.0
H2064 H 0.78022 0.01669 0.53859 0.0
H2065 H 0.69726 0.00395 0.49517 0.0
H2066 H 0.69759 0.03086 0.51019 0.0
H2067 H 0.70057 0.00539 0.52817 0.0
C2068 C 0.71615 0.04464 0.58165 0.0
C2069 C 0.72382 0.03166 0.60168 0.0
C2070 C 0.72293 0.03957 0.55769 0.0
C2071 C 0.73714 0.02109 0.55299 0.0
C2072 C 0.74476 0.00797 0.57293 0.0
H2073 H 0.76333 0.00277 0.39422 0.0
H2074 H 0.752 0.99357 0.43654 0.0
C2075 C 0.73818 0.01322 0.59707 0.0
C2076 C 0.74527 0.01684 0.52746 0.0
H2077 H 0.72743 0.01623 0.46767 0.0
C2078 C 0.76864 0.01612 0.52312 0.0
C2079 C 0.73029 0.01541 0.50717 0.0
C2080 C 0.70505 0.01367 0.51048 0.0
C2081 C 0.77738 0.01574 0.49908 0.0
C2082 C 0.76238 0.01691 0.47879 0.0
C2083 C 0.73902 0.01586 0.48313 0.0
C2084 C 0.77044 0.0212 0.45324 0.0
C2085 C 0.80264 0.01436 0.49578 0.0
C2086 C 0.7844 0.03985 0.44844 0.0
C2087 C 0.79107 0.04494 0.42445 0.0
C2088 C 0.78354 0.03182 0.40449 0.0
C2089 C 0.76944 0.01319 0.40919 0.0
C2090 C 0.76297 0.00792 0.43337 0.0
H2091 H 0.81057 0.0048 0.51112 0.0
H2092 H 0.80724 0.0061 0.47812 0.0
H2093 H 0.80984 0.03166 0.496 0.0
H2094 H 0.78974 0.05089 0.46323 0.0
H2095 H 0.80169 0.05959 0.42153 0.0
loop_
_geom_bond_atom_site_label_1
_geom_bond_atom_site_label_2
_geom_bond_distance
_geom_bond_site_symmetry_2
_ccdc_geom_bond_type
Co0 O2 2.143 . S
Co0 O8 2.074 . S
Co0 O11 2.093 . S
Co0 O24 2.097 . S
Co0 N41 2.151 . S
Co0 N49 2.214 . S
Co1 O2 2.160 . S
Co1 O7 2.058 . S
Co1 O17 2.057 . S
Co1 O32 2.037 . S
Co1 N36 2.145 . S
Co1 N57 2.257 . S
O2 Co0 2.143 . S
O2 Co1 2.160 . S
C3 O4 1.278 . S
C3 O11 1.224 . S
O4 C3 1.278 . S
C5 O6 1.245 . S
C5 O17 1.232 . S
O6 C5 1.245 . S
O7 Co1 2.058 . S
O7 C33 1.269 . S
O8 Co0 2.074 . S
O8 C33 1.257 . S
H9 C34 0.930 . S
H10 C40 0.930 . S
O11 Co0 2.093 . S
O11 C3 1.224 . S
H12 C44 0.929 . S
H13 C46 0.930 . S
H14 C47 0.930 . S
H15 C45 0.929 . S
H16 C48 0.928 . S
O17 Co1 2.057 . S
O17 C5 1.232 . S
H18 C37 0.929 . S
H19 C38 0.929 . S
H20 C50 0.931 . S
H21 C42 0.929 . S
H22 C51 0.930 . S
H23 C43 0.931 . S
O24 Co0 2.097 . S
O24 C52 1.214 . S
H25 C53 0.929 . S
H26 C54 0.929 . S
H27 C55 0.930 . S
H28 C56 0.929 . S
H29 C58 0.930 . S
H30 C35 0.930 . S
H31 C39 0.930 . S
O32 Co1 2.037 . S
O32 C52 1.234 . S
C33 O7 1.269 . S
C33 O8 1.257 . S
C34 H9 0.930 . S
C34 C37 1.388 . S
C34 C39 1.418 . S
C35 H30 0.930 . S
C35 C38 1.404 . S
C35 C39 1.353 . S
N36 Co1 2.145 . S
N36 C37 1.397 . S
N36 C38 1.334 . S
C37 H18 0.929 . S
C37 C34 1.388 . S
C37 N36 1.397 . S
C38 H19 0.929 . S
C38 C35 1.404 . S
C38 N36 1.334 . S
C39 H31 0.930 . S
C39 C34 1.418 . S
C39 C35 1.353 . S
C40 H10 0.930 . S
C40 N41 1.330 . S
C40 C42 1.446 . S
N41 Co0 2.151 . S
N41 C40 1.330 . S
N41 C45 1.418 . S
C42 H21 0.929 . S
C42 C40 1.446 . S
C42 C43 1.332 . S
C43 H23 0.931 . S
C43 C42 1.332 . S
C43 C44 1.267 . S
C44 H12 0.929 . S
C44 C43 1.267 . S
C44 C45 1.251 . S
C45 H15 0.929 . S
C45 N41 1.418 . S
C45 C44 1.251 . S
C46 H13 0.930 . S
C46 C48 1.406 . S
C46 C51 1.261 . S
C47 H14 0.930 . S
C47 N49 1.325 . S
C47 C50 1.357 . S
C48 H16 0.928 . S
C48 C46 1.406 . S
C48 N49 1.261 . S
N49 Co0 2.214 . S
N49 C47 1.325 . S
N49 C48 1.261 . S
C50 H20 0.931 . S
C50 C47 1.357 . S
C50 C51 1.312 . S
C51 H22 0.930 . S
C51 C46 1.261 . S
C51 C50 1.312 . S
C52 O24 1.214 . S
C52 O32 1.234 . S
C53 H25 0.929 . S
C53 C56 1.391 . S
C53 C58 1.391 . S
C54 H26 0.929 . S
C54 C55 1.390 . S
C54 N57 1.391 . S
C55 H27 0.930 . S
C55 C54 1.390 . S
C55 C56 1.392 . S
C56 H28 0.929 . S
C56 C53 1.391 . S
C56 C55 1.392 . S
N57 Co1 2.257 . S
N57 C54 1.391 . S
N57 C58 1.388 . S
C58 H29 0.930 . S
C58 C53 1.391 . S
C58 N57 1.388 . S
Co59 O61 2.143 . S
Co59 O67 2.074 . S
Co59 O70 2.093 . S
Co59 O83 2.097 . S
Co59 N100 2.151 . S
Co59 N108 2.214 . S
Co60 O61 2.160 . S
Co60 O66 2.058 . S
Co60 O76 2.057 . S
Co60 O91 2.037 . S
Co60 N95 2.145 . S
Co60 N116 2.257 . S
O61 Co59 2.143 . S
O61 Co60 2.160 . S
C62 O63 1.278 . S
C62 O70 1.224 . S
O63 C62 1.278 . S
C64 O65 1.245 . S
C64 O76 1.232 . S
O65 C64 1.245 . S
O66 Co60 2.058 . S
O66 C92 1.269 . S
O67 Co59 2.074 . S
O67 C92 1.257 . S
H68 C93 0.930 . S
H69 C99 0.930 . S
O70 Co59 2.093 . S
O70 C62 1.224 . S
H71 C103 0.929 . S
H72 C105 0.930 . S
H73 C106 0.930 . S
H74 C104 0.929 . S
H75 C107 0.928 . S
O76 Co60 2.057 . S
O76 C64 1.232 . S
H77 C96 0.929 . S
H78 C97 0.929 . S
H79 C109 0.931 . S
H80 C101 0.929 . S
H81 C110 0.930 . S
H82 C102 0.931 . S
O83 Co59 2.097 . S
O83 C111 1.214 . S
H84 C112 0.929 . S
H85 C113 0.929 . S
H86 C114 0.930 . S
H87 C115 0.929 . S
H88 C117 0.930 . S
H89 C94 0.930 . S
H90 C98 0.930 . S
O91 Co60 2.037 . S
O91 C111 1.234 . S
C92 O66 1.269 . S
C92 O67 1.257 . S
C93 H68 0.930 . S
C93 C96 1.388 . S
C93 C98 1.418 . S
C94 H89 0.930 . S
C94 C97 1.404 . S
C94 C98 1.353 . S
N95 Co60 2.145 . S
N95 C96 1.397 . S
N95 C97 1.334 . S
C96 H77 0.929 . S
C96 C93 1.388 . S
C96 N95 1.397 . S
C97 H78 0.929 . S
C97 C94 1.404 . S
C97 N95 1.334 . S
C98 H90 0.930 . S
C98 C93 1.418 . S
C98 C94 1.353 . S
C99 H69 0.930 . S
C99 N100 1.330 . S
C99 C101 1.446 . S
N100 Co59 2.151 . S
N100 C99 1.330 . S
N100 C104 1.418 . S
C101 H80 0.929 . S
C101 C99 1.446 . S
C101 C102 1.332 . S
C102 H82 0.931 . S
C102 C101 1.332 . S
C102 C103 1.267 . S
C103 H71 0.929 . S
C103 C102 1.267 . S
C103 C104 1.251 . S
C104 H74 0.929 . S
C104 N100 1.418 . S
C104 C103 1.251 . S
C105 H72 0.930 . S
C105 C107 1.406 . S
C105 C110 1.261 . S
C106 H73 0.930 . S
C106 N108 1.325 . S
C106 C109 1.357 . S
C107 H75 0.928 . S
C107 C105 1.406 . S
C107 N108 1.261 . S
N108 Co59 2.214 . S
N108 C106 1.325 . S
N108 C107 1.261 . S
C109 H79 0.931 . S
C109 C106 1.357 . S
C109 C110 1.312 . S
C110 H81 0.930 . S
C110 C105 1.261 . S
C110 C109 1.312 . S
C111 O83 1.214 . S
C111 O91 1.234 . S
C112 H84 0.929 . S
C112 C115 1.391 . S
C112 C117 1.391 . S
C113 H85 0.929 . S
C113 C114 1.390 . S
C113 N116 1.391 . S
C114 H86 0.930 . S
C114 C113 1.390 . S
C114 C115 1.392 . S
C115 H87 0.929 . S
C115 C112 1.391 . S
C115 C114 1.392 . S
N116 Co60 2.257 . S
N116 C113 1.391 . S
N116 C117 1.388 . S
C117 H88 0.930 . S
C117 C112 1.391 . S
C117 N116 1.388 . S
Co118 O120 2.143 . S
Co118 O126 2.074 . S
Co118 O129 2.093 . S
Co118 O142 2.097 . S
Co118 N159 2.151 . S
Co118 N167 2.214 . S
Co119 O120 2.160 . S
Co119 O125 2.058 . S
Co119 O135 2.057 1_655 S
Co119 O150 2.037 . S
Co119 N154 2.145 . S
Co119 N175 2.257 1_655 S
O120 Co118 2.143 . S
O120 Co119 2.160 . S
C121 O122 1.278 . S
C121 O129 1.224 . S
O122 C121 1.278 . S
C123 O124 1.245 . S
C123 O135 1.232 . S
O124 C123 1.245 . S
O125 Co119 2.058 . S
O125 C151 1.269 . S
O126 Co118 2.074 . S
O126 C151 1.257 . S
H127 C152 0.930 . S
H128 C158 0.930 . S
O129 Co118 2.093 . S
O129 C121 1.224 . S
H130 C162 0.929 . S
H131 C164 0.930 . S
H132 C165 0.930 . S
H133 C163 0.929 . S
H134 C166 0.928 . S
O135 Co119 2.057 1_455 S
O135 C123 1.232 . S
H136 C155 0.929 . S
H137 C156 0.929 . S
H138 C168 0.931 . S
H139 C160 0.929 . S
H140 C169 0.930 . S
H141 C161 0.931 . S
O142 Co118 2.097 . S
O142 C170 1.214 . S
H143 C171 0.929 . S
H144 C172 0.929 1_655 S
H145 C173 0.930 . S
H146 C174 0.929 . S
H147 C176 0.930 . S
H148 C153 0.930 . S
H149 C157 0.930 . S
O150 Co119 2.037 . S
O150 C170 1.234 . S
C151 O125 1.269 . S
C151 O126 1.257 . S
C152 H127 0.930 . S
C152 C155 1.388 . S
C152 C157 1.418 . S
C153 H148 0.930 . S
C153 C156 1.404 . S
C153 C157 1.353 1_455 S
N154 Co119 2.145 . S
N154 C155 1.397 . S
N154 C156 1.334 1_655 S
C155 H136 0.929 . S
C155 C152 1.388 . S
C155 N154 1.397 . S
C156 H137 0.929 . S
C156 C153 1.404 . S
C156 N154 1.334 1_455 S
C157 H149 0.930 . S
C157 C152 1.418 . S
C157 C153 1.353 1_655 S
C158 H128 0.930 . S
C158 N159 1.330 . S
C158 C160 1.446 . S
N159 Co118 2.151 . S
N159 C158 1.330 . S
N159 C163 1.418 . S
C160 H139 0.929 . S
C160 C158 1.446 . S
C160 C161 1.332 . S
C161 H141 0.931 . S
C161 C160 1.332 . S
C161 C162 1.267 . S
C162 H130 0.929 . S
C162 C161 1.267 . S
C162 C163 1.251 . S
C163 H133 0.929 . S
C163 N159 1.418 . S
C163 C162 1.251 . S
C164 H131 0.930 . S
C164 C166 1.406 . S
C164 C169 1.261 . S
C165 H132 0.930 . S
C165 N167 1.325 . S
C165 C168 1.357 . S
C166 H134 0.928 . S
C166 C164 1.406 . S
C166 N167 1.261 . S
N167 Co118 2.214 . S
N167 C165 1.325 . S
N167 C166 1.261 . S
C168 H138 0.931 . S
C168 C165 1.357 . S
C168 C169 1.312 . S
C169 H140 0.930 . S
C169 C164 1.261 . S
C169 C168 1.312 . S
C170 O142 1.214 . S
C170 O150 1.234 . S
C171 H143 0.929 . S
C171 C174 1.391 . S
C171 C176 1.391 . S
C172 H144 0.929 1_455 S
C172 C173 1.390 . S
C172 N175 1.391 . S
C173 H145 0.930 . S
C173 C172 1.390 . S
C173 C174 1.392 . S
C174 H146 0.929 . S
C174 C171 1.391 . S
C174 C173 1.392 . S
N175 Co119 2.257 1_455 S
N175 C172 1.391 . S
N175 C176 1.388 . S
C176 H147 0.930 . S
C176 C171 1.391 . S
C176 N175 1.388 . S
Co177 O179 2.143 . S
Co177 O185 2.074 . S
Co177 O188 2.093 . S
Co177 O201 2.097 . S
Co177 N218 2.151 . S
Co177 N226 2.214 . S
Co178 O179 2.160 . S
Co178 O184 2.058 . S
Co178 O194 2.057 1_565 S
Co178 O209 2.037 . S
Co178 N213 2.145 . S
Co178 N234 2.257 1_565 S
O179 Co177 2.143 . S
O179 Co178 2.160 . S
C180 O181 1.278 . S
C180 O188 1.224 . S
O181 C180 1.278 . S
C182 O183 1.245 . S
C182 O194 1.232 . S
O183 C182 1.245 . S
O184 Co178 2.058 . S
O184 C210 1.269 . S
O185 Co177 2.074 . S
O185 C210 1.257 . S
H186 C211 0.930 . S
H187 C217 0.930 . S
O188 Co177 2.093 . S
O188 C180 1.224 . S
H189 C221 0.929 . S
H190 C223 0.930 . S
H191 C224 0.930 . S
H192 C222 0.929 . S
H193 C225 0.928 . S
O194 Co178 2.057 1_545 S
O194 C182 1.232 . S
H195 C214 0.929 . S
H196 C215 0.929 . S
H197 C227 0.931 . S
H198 C219 0.929 . S
H199 C228 0.930 . S
H200 C220 0.931 . S
O201 Co177 2.097 . S
O201 C229 1.214 . S
H202 C230 0.929 . S
H203 C231 0.929 1_565 S
H204 C232 0.930 . S
H205 C233 0.929 . S
H206 C235 0.930 . S
H207 C212 0.930 . S
H208 C216 0.930 . S
O209 Co178 2.037 . S
O209 C229 1.234 . S
C210 O184 1.269 . S
C210 O185 1.257 . S
C211 H186 0.930 . S
C211 C214 1.388 . S
C211 C216 1.418 . S
C212 H207 0.930 . S
C212 C215 1.404 . S
C212 C216 1.353 1_545 S
N213 Co178 2.145 . S
N213 C214 1.397 . S
N213 C215 1.334 1_565 S
C214 H195 0.929 . S
C214 C211 1.388 . S
C214 N213 1.397 . S
C215 H196 0.929 . S
C215 C212 1.404 . S
C215 N213 1.334 1_545 S
C216 H208 0.930 . S
C216 C211 1.418 . S
C216 C212 1.353 1_565 S
C217 H187 0.930 . S
C217 N218 1.330 . S
C217 C219 1.446 . S
N218 Co177 2.151 . S
N218 C217 1.330 . S
N218 C222 1.418 . S
C219 H198 0.929 . S
C219 C217 1.446 . S
C219 C220 1.332 . S
C220 H200 0.931 . S
C220 C219 1.332 . S
C220 C221 1.267 . S
C221 H189 0.929 . S
C221 C220 1.267 . S
C221 C222 1.251 . S
C222 H192 0.929 . S
C222 N218 1.418 . S
C222 C221 1.251 . S
C223 H190 0.930 . S
C223 C225 1.406 . S
C223 C228 1.261 . S
C224 H191 0.930 . S
C224 N226 1.325 . S
C224 C227 1.357 . S
C225 H193 0.928 . S
C225 C223 1.406 . S
C225 N226 1.261 . S
N226 Co177 2.214 . S
N226 C224 1.325 . S
N226 C225 1.261 . S
C227 H197 0.931 . S
C227 C224 1.357 . S
C227 C228 1.312 . S
C228 H199 0.930 . S
C228 C223 1.261 . S
C228 C227 1.312 . S
C229 O201 1.214 . S
C229 O209 1.234 . S
C230 H202 0.929 . S
C230 C233 1.391 . S
C230 C235 1.391 . S
C231 H203 0.929 1_545 S
C231 C232 1.390 . S
C231 N234 1.391 . S
C232 H204 0.930 . S
C232 C231 1.390 . S
C232 C233 1.392 . S
C233 H205 0.929 . S
C233 C230 1.391 . S
C233 C232 1.392 . S
N234 Co178 2.257 1_545 S
N234 C231 1.391 . S
N234 C235 1.388 . S
C235 H206 0.930 . S
C235 C230 1.391 . S
C235 N234 1.388 . S
Co236 O238 2.143 . S
Co236 O244 2.074 . S
Co236 O247 2.093 . S
Co236 O260 2.097 . S
Co236 N277 2.151 . S
Co236 N285 2.214 . S
Co237 O238 2.160 . S
Co237 O243 2.058 . S
Co237 O253 2.057 . S
Co237 O268 2.037 . S
Co237 N272 2.145 . S
Co237 N293 2.257 . S
O238 Co236 2.143 . S
O238 Co237 2.160 . S
C239 O240 1.278 . S
C239 O247 1.224 . S
O240 C239 1.278 . S
C241 O242 1.245 . S
C241 O253 1.232 . S
O242 C241 1.245 . S
O243 Co237 2.058 . S
O243 C269 1.269 . S
O244 Co236 2.074 . S
O244 C269 1.257 . S
H245 C270 0.930 . S
H246 C276 0.930 . S
O247 Co236 2.093 . S
O247 C239 1.224 . S
H248 C280 0.929 . S
H249 C282 0.930 . S
H250 C283 0.930 . S
H251 C281 0.929 . S
H252 C284 0.928 . S
O253 Co237 2.057 . S
O253 C241 1.232 . S
H254 C273 0.929 . S
H255 C274 0.929 . S
H256 C286 0.931 . S
H257 C278 0.929 . S
H258 C287 0.930 . S
H259 C279 0.931 . S
O260 Co236 2.097 . S
O260 C288 1.214 . S
H261 C289 0.929 . S
H262 C290 0.929 . S
H263 C291 0.930 . S
H264 C292 0.929 . S
H265 C294 0.930 . S
H266 C271 0.930 . S
H267 C275 0.930 . S
O268 Co237 2.037 . S
O268 C288 1.234 . S
C269 O243 1.269 . S
C269 O244 1.257 . S
C270 H245 0.930 . S
C270 C273 1.388 . S
C270 C275 1.418 . S
C271 H266 0.930 . S
C271 C274 1.404 . S
C271 C275 1.353 . S
N272 Co237 2.145 . S
N272 C273 1.397 . S
N272 C274 1.334 . S
C273 H254 0.929 . S
C273 C270 1.388 . S
C273 N272 1.397 . S
C274 H255 0.929 . S
C274 C271 1.404 . S
C274 N272 1.334 . S
C275 H267 0.930 . S
C275 C270 1.418 . S
C275 C271 1.353 . S
C276 H246 0.930 . S
C276 N277 1.330 . S
C276 C278 1.446 . S
N277 Co236 2.151 . S
N277 C276 1.330 . S
N277 C281 1.418 . S
C278 H257 0.929 . S
C278 C276 1.446 . S
C278 C279 1.332 . S
C279 H259 0.931 . S
C279 C278 1.332 . S
C279 C280 1.267 . S
C280 H248 0.929 . S
C280 C279 1.267 . S
C280 C281 1.251 . S
C281 H251 0.929 . S
C281 N277 1.418 . S
C281 C280 1.251 . S
C282 H249 0.930 . S
C282 C284 1.406 . S
C282 C287 1.261 . S
C283 H250 0.930 . S
C283 N285 1.325 . S
C283 C286 1.357 . S
C284 H252 0.928 . S
C284 C282 1.406 . S
C284 N285 1.261 . S
N285 Co236 2.214 . S
N285 C283 1.325 . S
N285 C284 1.261 . S
C286 H256 0.931 . S
C286 C283 1.357 . S
C286 C287 1.312 . S
C287 H258 0.930 . S
C287 C282 1.261 . S
C287 C286 1.312 . S
C288 O260 1.214 . S
C288 O268 1.234 . S
C289 H261 0.929 . S
C289 C292 1.391 . S
C289 C294 1.391 . S
C290 H262 0.929 . S
C290 C291 1.390 . S
C290 N293 1.391 . S
C291 H263 0.930 . S
C291 C290 1.390 . S
C291 C292 1.392 . S
C292 H264 0.929 . S
C292 C289 1.391 . S
C292 C291 1.392 . S
N293 Co237 2.257 . S
N293 C290 1.391 . S
N293 C294 1.388 . S
C294 H265 0.930 . S
C294 C289 1.391 . S
C294 N293 1.388 . S
Co295 O297 2.143 . S
Co295 O303 2.074 . S
Co295 O306 2.093 . S
Co295 O319 2.097 . S
Co295 N336 2.151 . S
Co295 N344 2.214 . S
Co296 O297 2.160 . S
Co296 O302 2.058 . S
Co296 O312 2.057 . S
Co296 O327 2.037 . S
Co296 N331 2.145 . S
Co296 N352 2.257 . S
O297 Co295 2.143 . S
O297 Co296 2.160 . S
C298 O299 1.278 . S
C298 O306 1.224 . S
O299 C298 1.278 . S
C300 O301 1.245 . S
C300 O312 1.232 . S
O301 C300 1.245 . S
O302 Co296 2.058 . S
O302 C328 1.269 . S
O303 Co295 2.074 . S
O303 C328 1.257 . S
H304 C329 0.930 . S
H305 C335 0.930 . S
O306 Co295 2.093 . S
O306 C298 1.224 . S
H307 C339 0.929 . S
H308 C341 0.930 . S
H309 C342 0.930 . S
H310 C340 0.929 . S
H311 C343 0.928 . S
O312 Co296 2.057 . S
O312 C300 1.232 . S
H313 C332 0.929 . S
H314 C333 0.929 . S
H315 C345 0.931 . S
H316 C337 0.929 . S
H317 C346 0.930 . S
H318 C338 0.931 . S
O319 Co295 2.097 . S
O319 C347 1.214 . S
H320 C348 0.929 . S
H321 C349 0.929 . S
H322 C350 0.930 . S
H323 C351 0.929 . S
H324 C353 0.930 . S
H325 C330 0.930 . S
H326 C334 0.930 . S
O327 Co296 2.037 . S
O327 C347 1.234 . S
C328 O302 1.269 . S
C328 O303 1.257 . S
C329 H304 0.930 . S
C329 C332 1.388 . S
C329 C334 1.418 . S
C330 H325 0.930 . S
C330 C333 1.404 . S
C330 C334 1.353 . S
N331 Co296 2.145 . S
N331 C332 1.397 . S
N331 C333 1.334 . S
C332 H313 0.929 . S
C332 C329 1.388 . S
C332 N331 1.397 . S
C333 H314 0.929 . S
C333 C330 1.404 . S
C333 N331 1.334 . S
C334 H326 0.930 . S
C334 C329 1.418 . S
C334 C330 1.353 . S
C335 H305 0.930 . S
C335 N336 1.330 . S
C335 C337 1.446 . S
N336 Co295 2.151 . S
N336 C335 1.330 . S
N336 C340 1.418 . S
C337 H316 0.929 . S
C337 C335 1.446 . S
C337 C338 1.332 . S
C338 H318 0.931 . S
C338 C337 1.332 . S
C338 C339 1.267 . S
C339 H307 0.929 . S
C339 C338 1.267 . S
C339 C340 1.251 . S
C340 H310 0.929 . S
C340 N336 1.418 . S
C340 C339 1.251 . S
C341 H308 0.930 . S
C341 C343 1.406 . S
C341 C346 1.261 . S
C342 H309 0.930 . S
C342 N344 1.325 . S
C342 C345 1.357 . S
C343 H311 0.928 . S
C343 C341 1.406 . S
C343 N344 1.261 . S
N344 Co295 2.214 . S
N344 C342 1.325 . S
N344 C343 1.261 . S
C345 H315 0.931 . S
C345 C342 1.357 . S
C345 C346 1.312 . S
C346 H317 0.930 . S
C346 C341 1.261 . S
C346 C345 1.312 . S
C347 O319 1.214 . S
C347 O327 1.234 . S
C348 H320 0.929 . S
C348 C351 1.391 . S
C348 C353 1.391 . S
C349 H321 0.929 . S
C349 C350 1.390 . S
C349 N352 1.391 . S
C350 H322 0.930 . S
C350 C349 1.390 . S
C350 C351 1.392 . S
C351 H323 0.929 . S
C351 C348 1.391 . S
C351 C350 1.392 . S
N352 Co296 2.257 . S
N352 C349 1.391 . S
N352 C353 1.388 . S
C353 H324 0.930 . S
C353 C348 1.391 . S
C353 N352 1.388 . S
Co354 O356 2.143 . S
Co354 O362 2.074 . S
Co354 O365 2.093 . S
Co354 O378 2.097 . S
Co354 N395 2.151 . S
Co354 N403 2.214 . S
Co355 O356 2.160 . S
Co355 O361 2.058 . S
Co355 O371 2.057 1_655 S
Co355 O386 2.037 . S
Co355 N390 2.145 . S
Co355 N411 2.257 1_655 S
O356 Co354 2.143 . S
O356 Co355 2.160 . S
C357 O358 1.278 . S
C357 O365 1.224 . S
O358 C357 1.278 . S
C359 O360 1.245 . S
C359 O371 1.232 . S
O360 C359 1.245 . S
O361 Co355 2.058 . S
O361 C387 1.269 . S
O362 Co354 2.074 . S
O362 C387 1.257 . S
H363 C388 0.930 . S
H364 C394 0.930 . S
O365 Co354 2.093 . S
O365 C357 1.224 . S
H366 C398 0.929 . S
H367 C400 0.930 . S
H368 C401 0.930 . S
H369 C399 0.929 . S
H370 C402 0.928 . S
O371 Co355 2.057 1_455 S
O371 C359 1.232 . S
H372 C391 0.929 . S
H373 C392 0.929 . S
H374 C404 0.931 . S
H375 C396 0.929 . S
H376 C405 0.930 . S
H377 C397 0.931 . S
O378 Co354 2.097 . S
O378 C406 1.214 . S
H379 C407 0.929 . S
H380 C408 0.929 1_655 S
H381 C409 0.930 . S
H382 C410 0.929 . S
H383 C412 0.930 . S
H384 C389 0.930 . S
H385 C393 0.930 . S
O386 Co355 2.037 . S
O386 C406 1.234 . S
C387 O361 1.269 . S
C387 O362 1.257 . S
C388 H363 0.930 . S
C388 C391 1.388 . S
C388 C393 1.418 . S
C389 H384 0.930 . S
C389 C392 1.404 . S
C389 C393 1.353 1_455 S
N390 Co355 2.145 . S
N390 C391 1.397 . S
N390 C392 1.334 1_655 S
C391 H372 0.929 . S
C391 C388 1.388 . S
C391 N390 1.397 . S
C392 H373 0.929 . S
C392 C389 1.404 . S
C392 N390 1.334 1_455 S
C393 H385 0.930 . S
C393 C388 1.418 . S
C393 C389 1.353 1_655 S
C394 H364 0.930 . S
C394 N395 1.330 . S
C394 C396 1.446 . S
N395 Co354 2.151 . S
N395 C394 1.330 . S
N395 C399 1.418 . S
C396 H375 0.929 . S
C396 C394 1.446 . S
C396 C397 1.332 . S
C397 H377 0.931 . S
C397 C396 1.332 . S
C397 C398 1.267 . S
C398 H366 0.929 . S
C398 C397 1.267 . S
C398 C399 1.251 . S
C399 H369 0.929 . S
C399 N395 1.418 . S
C399 C398 1.251 . S
C400 H367 0.930 . S
C400 C402 1.406 . S
C400 C405 1.261 . S
C401 H368 0.930 . S
C401 N403 1.325 . S
C401 C404 1.357 . S
C402 H370 0.928 . S
C402 C400 1.406 . S
C402 N403 1.261 . S
N403 Co354 2.214 . S
N403 C401 1.325 . S
N403 C402 1.261 . S
C404 H374 0.931 . S
C404 C401 1.357 . S
C404 C405 1.312 . S
C405 H376 0.930 . S
C405 C400 1.261 . S
C405 C404 1.312 . S
C406 O378 1.214 . S
C406 O386 1.234 . S
C407 H379 0.929 . S
C407 C410 1.391 . S
C407 C412 1.391 . S
C408 H380 0.929 1_455 S
C408 C409 1.390 . S
C408 N411 1.391 . S
C409 H381 0.930 . S
C409 C408 1.390 . S
C409 C410 1.392 . S
C410 H382 0.929 . S
C410 C407 1.391 . S
C410 C409 1.392 . S
N411 Co355 2.257 1_455 S
N411 C408 1.391 . S
N411 C412 1.388 . S
C412 H383 0.930 . S
C412 C407 1.391 . S
C412 N411 1.388 . S
Co413 O415 2.143 . S
Co413 O421 2.074 . S
Co413 O424 2.093 . S
Co413 O437 2.097 . S
Co413 N454 2.151 . S
Co413 N462 2.214 . S
Co414 O415 2.160 . S
Co414 O420 2.058 . S
Co414 O430 2.057 1_565 S
Co414 O445 2.037 . S
Co414 N449 2.145 . S
Co414 N470 2.257 1_565 S
O415 Co413 2.143 . S
O415 Co414 2.160 . S
C416 O417 1.278 . S
C416 O424 1.224 . S
O417 C416 1.278 . S
C418 O419 1.245 . S
C418 O430 1.232 . S
O419 C418 1.245 . S
O420 Co414 2.058 . S
O420 C446 1.269 . S
O421 Co413 2.074 . S
O421 C446 1.257 . S
H422 C447 0.930 . S
H423 C453 0.930 . S
O424 Co413 2.093 . S
O424 C416 1.224 . S
H425 C457 0.929 . S
H426 C459 0.930 . S
H427 C460 0.930 . S
H428 C458 0.929 . S
H429 C461 0.928 . S
O430 Co414 2.057 1_545 S
O430 C418 1.232 . S
H431 C450 0.929 . S
H432 C451 0.929 . S
H433 C463 0.931 . S
H434 C455 0.929 . S
H435 C464 0.930 . S
H436 C456 0.931 . S
O437 Co413 2.097 . S
O437 C465 1.214 . S
H438 C466 0.929 . S
H439 C467 0.929 1_565 S
H440 C468 0.930 . S
H441 C469 0.929 . S
H442 C471 0.930 . S
H443 C448 0.930 . S
H444 C452 0.930 . S
O445 Co414 2.037 . S
O445 C465 1.234 . S
C446 O420 1.269 . S
C446 O421 1.257 . S
C447 H422 0.930 . S
C447 C450 1.388 . S
C447 C452 1.418 . S
C448 H443 0.930 . S
C448 C451 1.404 . S
C448 C452 1.353 1_545 S
N449 Co414 2.145 . S
N449 C450 1.397 . S
N449 C451 1.334 1_565 S
C450 H431 0.929 . S
C450 C447 1.388 . S
C450 N449 1.397 . S
C451 H432 0.929 . S
C451 C448 1.404 . S
C451 N449 1.334 1_545 S
C452 H444 0.930 . S
C452 C447 1.418 . S
C452 C448 1.353 1_565 S
C453 H423 0.930 . S
C453 N454 1.330 . S
C453 C455 1.446 . S
N454 Co413 2.151 . S
N454 C453 1.330 . S
N454 C458 1.418 . S
C455 H434 0.929 . S
C455 C453 1.446 . S
C455 C456 1.332 . S
C456 H436 0.931 . S
C456 C455 1.332 . S
C456 C457 1.267 . S
C457 H425 0.929 . S
C457 C456 1.267 . S
C457 C458 1.251 . S
C458 H428 0.929 . S
C458 N454 1.418 . S
C458 C457 1.251 . S
C459 H426 0.930 . S
C459 C461 1.406 . S
C459 C464 1.261 . S
C460 H427 0.930 . S
C460 N462 1.325 . S
C460 C463 1.357 . S
C461 H429 0.928 . S
C461 C459 1.406 . S
C461 N462 1.261 . S
N462 Co413 2.214 . S
N462 C460 1.325 . S
N462 C461 1.261 . S
C463 H433 0.931 . S
C463 C460 1.357 . S
C463 C464 1.312 . S
C464 H435 0.930 . S
C464 C459 1.261 . S
C464 C463 1.312 . S
C465 O437 1.214 . S
C465 O445 1.234 . S
C466 H438 0.929 . S
C466 C469 1.391 . S
C466 C471 1.391 . S
C467 H439 0.929 1_545 S
C467 C468 1.390 . S
C467 N470 1.391 . S
C468 H440 0.930 . S
C468 C467 1.390 . S
C468 C469 1.392 . S
C469 H441 0.929 . S
C469 C466 1.391 . S
C469 C468 1.392 . S
N470 Co414 2.257 1_545 S
N470 C467 1.391 . S
N470 C471 1.388 . S
C471 H442 0.930 . S
C471 C466 1.391 . S
C471 N470 1.388 . S
Co472 O474 2.143 . S
Co472 O480 2.074 . S
Co472 O483 2.093 . S
Co472 O496 2.097 . S
Co472 N513 2.151 . S
Co472 N521 2.214 . S
Co473 O474 2.160 . S
Co473 O479 2.058 . S
Co473 O489 2.057 . S
Co473 O504 2.037 . S
Co473 N508 2.145 . S
Co473 N529 2.257 . S
O474 Co472 2.143 . S
O474 Co473 2.160 . S
C475 O476 1.278 . S
C475 O483 1.224 . S
O476 C475 1.278 . S
C477 O478 1.245 . S
C477 O489 1.232 . S
O478 C477 1.245 . S
O479 Co473 2.058 . S
O479 C505 1.269 . S
O480 Co472 2.074 . S
O480 C505 1.257 . S
H481 C506 0.930 . S
H482 C512 0.930 . S
O483 Co472 2.093 . S
O483 C475 1.224 . S
H484 C516 0.929 . S
H485 C518 0.930 . S
H486 C519 0.930 . S
H487 C517 0.929 . S
H488 C520 0.928 . S
O489 Co473 2.057 . S
O489 C477 1.232 . S
H490 C509 0.929 . S
H491 C510 0.929 . S
H492 C522 0.931 . S
H493 C514 0.929 . S
H494 C523 0.930 . S
H495 C515 0.931 . S
O496 Co472 2.097 . S
O496 C524 1.214 . S
H497 C525 0.929 . S
H498 C526 0.929 . S
H499 C527 0.930 . S
H500 C528 0.929 . S
H501 C530 0.930 . S
H502 C507 0.930 . S
H503 C511 0.930 . S
O504 Co473 2.037 . S
O504 C524 1.234 . S
C505 O479 1.269 . S
C505 O480 1.257 . S
C506 H481 0.930 . S
C506 C509 1.388 . S
C506 C511 1.418 . S
C507 H502 0.930 . S
C507 C510 1.404 . S
C507 C511 1.353 . S
N508 Co473 2.145 . S
N508 C509 1.397 . S
N508 C510 1.334 . S
C509 H490 0.929 . S
C509 C506 1.388 . S
C509 N508 1.397 . S
C510 H491 0.929 . S
C510 C507 1.404 . S
C510 N508 1.334 . S
C511 H503 0.930 . S
C511 C506 1.418 . S
C511 C507 1.353 . S
C512 H482 0.930 . S
C512 N513 1.330 . S
C512 C514 1.446 . S
N513 Co472 2.151 . S
N513 C512 1.330 . S
N513 C517 1.418 . S
C514 H493 0.929 . S
C514 C512 1.446 . S
C514 C515 1.332 . S
C515 H495 0.931 . S
C515 C514 1.332 . S
C515 C516 1.267 . S
C516 H484 0.929 . S
C516 C515 1.267 . S
C516 C517 1.251 . S
C517 H487 0.929 . S
C517 N513 1.418 . S
C517 C516 1.251 . S
C518 H485 0.930 . S
C518 C520 1.406 . S
C518 C523 1.261 . S
C519 H486 0.930 . S
C519 N521 1.325 . S
C519 C522 1.357 . S
C520 H488 0.928 . S
C520 C518 1.406 . S
C520 N521 1.261 . S
N521 Co472 2.214 . S
N521 C519 1.325 . S
N521 C520 1.261 . S
C522 H492 0.931 . S
C522 C519 1.357 . S
C522 C523 1.312 . S
C523 H494 0.930 . S
C523 C518 1.261 . S
C523 C522 1.312 . S
C524 O496 1.214 . S
C524 O504 1.234 . S
C525 H497 0.929 . S
C525 C528 1.391 . S
C525 C530 1.391 . S
C526 H498 0.929 . S
C526 C527 1.390 . S
C526 N529 1.391 . S
C527 H499 0.930 . S
C527 C526 1.390 . S
C527 C528 1.392 . S
C528 H500 0.929 . S
C528 C525 1.391 . S
C528 C527 1.392 . S
N529 Co473 2.257 . S
N529 C526 1.391 . S
N529 C530 1.388 . S
C530 H501 0.930 . S
C530 C525 1.391 . S
C530 N529 1.388 . S
Co531 O533 2.143 . S
Co531 O539 2.074 . S
Co531 O542 2.093 . S
Co531 O555 2.097 . S
Co531 N572 2.151 . S
Co531 N580 2.214 . S
Co532 O533 2.160 . S
Co532 O538 2.058 . S
Co532 O548 2.057 . S
Co532 O563 2.037 . S
Co532 N567 2.145 . S
Co532 N588 2.257 . S
O533 Co531 2.143 . S
O533 Co532 2.160 . S
C534 O535 1.278 . S
C534 O542 1.224 . S
O535 C534 1.278 . S
C536 O537 1.245 . S
C536 O548 1.232 . S
O537 C536 1.245 . S
O538 Co532 2.058 . S
O538 C564 1.269 . S
O539 Co531 2.074 . S
O539 C564 1.257 . S
H540 C565 0.930 . S
H541 C571 0.930 . S
O542 Co531 2.093 . S
O542 C534 1.224 . S
H543 C575 0.929 . S
H544 C577 0.930 . S
H545 C578 0.930 . S
H546 C576 0.929 . S
H547 C579 0.928 . S
O548 Co532 2.057 . S
O548 C536 1.232 . S
H549 C568 0.929 . S
H550 C569 0.929 . S
H551 C581 0.931 . S
H552 C573 0.929 . S
H553 C582 0.930 . S
H554 C574 0.931 . S
O555 Co531 2.097 . S
O555 C583 1.214 . S
H556 C584 0.929 . S
H557 C585 0.929 . S
H558 C586 0.930 . S
H559 C587 0.929 . S
H560 C589 0.930 . S
H561 C566 0.930 . S
H562 C570 0.930 . S
O563 Co532 2.037 . S
O563 C583 1.234 . S
C564 O538 1.269 . S
C564 O539 1.257 . S
C565 H540 0.930 . S
C565 C568 1.388 . S
C565 C570 1.418 . S
C566 H561 0.930 . S
C566 C569 1.404 . S
C566 C570 1.353 . S
N567 Co532 2.145 . S
N567 C568 1.397 . S
N567 C569 1.334 . S
C568 H549 0.929 . S
C568 C565 1.388 . S
C568 N567 1.397 . S
C569 H550 0.929 . S
C569 C566 1.404 . S
C569 N567 1.334 . S
C570 H562 0.930 . S
C570 C565 1.418 . S
C570 C566 1.353 . S
C571 H541 0.930 . S
C571 N572 1.330 . S
C571 C573 1.446 . S
N572 Co531 2.151 . S
N572 C571 1.330 . S
N572 C576 1.418 . S
C573 H552 0.929 . S
C573 C571 1.446 . S
C573 C574 1.332 . S
C574 H554 0.931 . S
C574 C573 1.332 . S
C574 C575 1.267 . S
C575 H543 0.929 . S
C575 C574 1.267 . S
C575 C576 1.251 . S
C576 H546 0.929 . S
C576 N572 1.418 . S
C576 C575 1.251 . S
C577 H544 0.930 . S
C577 C579 1.406 . S
C577 C582 1.261 . S
C578 H545 0.930 . S
C578 N580 1.325 . S
C578 C581 1.357 . S
C579 H547 0.928 . S
C579 C577 1.406 . S
C579 N580 1.261 . S
N580 Co531 2.214 . S
N580 C578 1.325 . S
N580 C579 1.261 . S
C581 H551 0.931 . S
C581 C578 1.357 . S
C581 C582 1.312 . S
C582 H553 0.930 . S
C582 C577 1.261 . S
C582 C581 1.312 . S
C583 O555 1.214 . S
C583 O563 1.234 . S
C584 H556 0.929 . S
C584 C587 1.391 . S
C584 C589 1.391 . S
C585 H557 0.929 . S
C585 C586 1.390 . S
C585 N588 1.391 . S
C586 H558 0.930 . S
C586 C585 1.390 . S
C586 C587 1.392 . S
C587 H559 0.929 . S
C587 C584 1.391 . S
C587 C586 1.392 . S
N588 Co532 2.257 . S
N588 C585 1.391 . S
N588 C589 1.388 . S
C589 H560 0.930 . S
C589 C584 1.391 . S
C589 N588 1.388 . S
Co590 O592 2.143 . S
Co590 O598 2.074 . S
Co590 O601 2.093 . S
Co590 O614 2.097 . S
Co590 N631 2.151 . S
Co590 N639 2.214 . S
Co591 O592 2.160 . S
Co591 O597 2.058 . S
Co591 O607 2.057 1_455 S
Co591 O622 2.037 . S
Co591 N626 2.145 . S
Co591 N647 2.257 1_455 S
O592 Co590 2.143 . S
O592 Co591 2.160 . S
C593 O594 1.278 . S
C593 O601 1.224 . S
O594 C593 1.278 . S
C595 O596 1.245 . S
C595 O607 1.232 . S
O596 C595 1.245 . S
O597 Co591 2.058 . S
O597 C623 1.269 . S
O598 Co590 2.074 . S
O598 C623 1.257 . S
H599 C624 0.930 . S
H600 C630 0.930 . S
O601 Co590 2.093 . S
O601 C593 1.224 . S
H602 C634 0.929 . S
H603 C636 0.930 . S
H604 C637 0.930 . S
H605 C635 0.929 . S
H606 C638 0.928 . S
O607 Co591 2.057 1_655 S
O607 C595 1.232 . S
H608 C627 0.929 . S
H609 C628 0.929 . S
H610 C640 0.931 . S
H611 C632 0.929 . S
H612 C641 0.930 . S
H613 C633 0.931 . S
O614 Co590 2.097 . S
O614 C642 1.214 . S
H615 C643 0.929 . S
H616 C644 0.929 1_455 S
H617 C645 0.930 . S
H618 C646 0.929 . S
H619 C648 0.930 . S
H620 C625 0.930 . S
H621 C629 0.930 . S
O622 Co591 2.037 . S
O622 C642 1.234 . S
C623 O597 1.269 . S
C623 O598 1.257 . S
C624 H599 0.930 . S
C624 C627 1.388 . S
C624 C629 1.418 . S
C625 H620 0.930 . S
C625 C628 1.404 . S
C625 C629 1.353 1_655 S
N626 Co591 2.145 . S
N626 C627 1.397 . S
N626 C628 1.334 1_455 S
C627 H608 0.929 . S
C627 C624 1.388 . S
C627 N626 1.397 . S
C628 H609 0.929 . S
C628 C625 1.404 . S
C628 N626 1.334 1_655 S
C629 H621 0.930 . S
C629 C624 1.418 . S
C629 C625 1.353 1_455 S
C630 H600 0.930 . S
C630 N631 1.330 . S
C630 C632 1.446 . S
N631 Co590 2.151 . S
N631 C630 1.330 . S
N631 C635 1.418 . S
C632 H611 0.929 . S
C632 C630 1.446 . S
C632 C633 1.332 . S
C633 H613 0.931 . S
C633 C632 1.332 . S
C633 C634 1.267 . S
C634 H602 0.929 . S
C634 C633 1.267 . S
C634 C635 1.251 . S
C635 H605 0.929 . S
C635 N631 1.418 . S
C635 C634 1.251 . S
C636 H603 0.930 . S
C636 C638 1.406 . S
C636 C641 1.261 . S
C637 H604 0.930 . S
C637 N639 1.325 . S
C637 C640 1.357 . S
C638 H606 0.928 . S
C638 C636 1.406 . S
C638 N639 1.261 . S
N639 Co590 2.214 . S
N639 C637 1.325 . S
N639 C638 1.261 . S
C640 H610 0.931 . S
C640 C637 1.357 . S
C640 C641 1.312 . S
C641 H612 0.930 . S
C641 C636 1.261 . S
C641 C640 1.312 . S
C642 O614 1.214 . S
C642 O622 1.234 . S
C643 H615 0.929 . S
C643 C646 1.391 . S
C643 C648 1.391 . S
C644 H616 0.929 1_655 S
C644 C645 1.390 . S
C644 N647 1.391 . S
C645 H617 0.930 . S
C645 C644 1.390 . S
C645 C646 1.392 . S
C646 H618 0.929 . S
C646 C643 1.391 . S
C646 C645 1.392 . S
N647 Co591 2.257 1_655 S
N647 C644 1.391 . S
N647 C648 1.388 . S
C648 H619 0.930 . S
C648 C643 1.391 . S
C648 N647 1.388 . S
Co649 O651 2.143 . S
Co649 O657 2.074 . S
Co649 O660 2.093 . S
Co649 O673 2.097 . S
Co649 N690 2.151 . S
Co649 N698 2.214 . S
Co650 O651 2.160 . S
Co650 O656 2.058 . S
Co650 O666 2.057 1_545 S
Co650 O681 2.037 . S
Co650 N685 2.145 . S
Co650 N706 2.257 1_545 S
O651 Co649 2.143 . S
O651 Co650 2.160 . S
C652 O653 1.278 . S
C652 O660 1.224 . S
O653 C652 1.278 . S
C654 O655 1.245 . S
C654 O666 1.232 . S
O655 C654 1.245 . S
O656 Co650 2.058 . S
O656 C682 1.269 . S
O657 Co649 2.074 . S
O657 C682 1.257 . S
H658 C683 0.930 . S
H659 C689 0.930 . S
O660 Co649 2.093 . S
O660 C652 1.224 . S
H661 C693 0.929 . S
H662 C695 0.930 . S
H663 C696 0.930 . S
H664 C694 0.929 . S
H665 C697 0.928 . S
O666 Co650 2.057 1_565 S
O666 C654 1.232 . S
H667 C686 0.929 . S
H668 C687 0.929 . S
H669 C699 0.931 . S
H670 C691 0.929 . S
H671 C700 0.930 . S
H672 C692 0.931 . S
O673 Co649 2.097 . S
O673 C701 1.214 . S
H674 C702 0.929 . S
H675 C703 0.929 1_545 S
H676 C704 0.930 . S
H677 C705 0.929 . S
H678 C707 0.930 . S
H679 C684 0.930 . S
H680 C688 0.930 . S
O681 Co650 2.037 . S
O681 C701 1.234 . S
C682 O656 1.269 . S
C682 O657 1.257 . S
C683 H658 0.930 . S
C683 C686 1.388 . S
C683 C688 1.418 . S
C684 H679 0.930 . S
C684 C687 1.404 . S
C684 C688 1.353 1_565 S
N685 Co650 2.145 . S
N685 C686 1.397 . S
N685 C687 1.334 1_545 S
C686 H667 0.929 . S
C686 C683 1.388 . S
C686 N685 1.397 . S
C687 H668 0.929 . S
C687 C684 1.404 . S
C687 N685 1.334 1_565 S
C688 H680 0.930 . S
C688 C683 1.418 . S
C688 C684 1.353 1_545 S
C689 H659 0.930 . S
C689 N690 1.330 . S
C689 C691 1.446 . S
N690 Co649 2.151 . S
N690 C689 1.330 . S
N690 C694 1.418 . S
C691 H670 0.929 . S
C691 C689 1.446 . S
C691 C692 1.332 . S
C692 H672 0.931 . S
C692 C691 1.332 . S
C692 C693 1.267 . S
C693 H661 0.929 . S
C693 C692 1.267 . S
C693 C694 1.251 . S
C694 H664 0.929 . S
C694 N690 1.418 . S
C694 C693 1.251 . S
C695 H662 0.930 . S
C695 C697 1.406 . S
C695 C700 1.261 . S
C696 H663 0.930 . S
C696 N698 1.325 . S
C696 C699 1.357 . S
C697 H665 0.928 . S
C697 C695 1.406 . S
C697 N698 1.261 . S
N698 Co649 2.214 . S
N698 C696 1.325 . S
N698 C697 1.261 . S
C699 H669 0.931 . S
C699 C696 1.357 . S
C699 C700 1.312 . S
C700 H671 0.930 . S
C700 C695 1.261 . S
C700 C699 1.312 . S
C701 O673 1.214 . S
C701 O681 1.234 . S
C702 H674 0.929 . S
C702 C705 1.391 . S
C702 C707 1.391 . S
C703 H675 0.929 1_565 S
C703 C704 1.390 . S
C703 N706 1.391 . S
C704 H676 0.930 . S
C704 C703 1.390 . S
C704 C705 1.392 . S
C705 H677 0.929 . S
C705 C702 1.391 . S
C705 C704 1.392 . S
N706 Co650 2.257 1_565 S
N706 C703 1.391 . S
N706 C707 1.388 . S
C707 H678 0.930 . S
C707 C702 1.391 . S
C707 N706 1.388 . S
Co708 O710 2.143 . S
Co708 O716 2.074 . S
Co708 O719 2.093 . S
Co708 O732 2.097 . S
Co708 N749 2.151 . S
Co708 N757 2.214 . S
Co709 O710 2.160 . S
Co709 O715 2.058 . S
Co709 O725 2.057 . S
Co709 O740 2.037 . S
Co709 N744 2.145 . S
Co709 N765 2.257 . S
O710 Co708 2.143 . S
O710 Co709 2.160 . S
C711 O712 1.278 . S
C711 O719 1.224 . S
O712 C711 1.278 . S
C713 O714 1.245 . S
C713 O725 1.232 . S
O714 C713 1.245 . S
O715 Co709 2.058 . S
O715 C741 1.269 . S
O716 Co708 2.074 . S
O716 C741 1.257 . S
H717 C742 0.930 . S
H718 C748 0.930 . S
O719 Co708 2.093 . S
O719 C711 1.224 . S
H720 C752 0.929 . S
H721 C754 0.930 . S
H722 C755 0.930 . S
H723 C753 0.929 . S
H724 C756 0.928 . S
O725 Co709 2.057 . S
O725 C713 1.232 . S
H726 C745 0.929 . S
H727 C746 0.929 . S
H728 C758 0.931 . S
H729 C750 0.929 . S
H730 C759 0.930 . S
H731 C751 0.931 . S
O732 Co708 2.097 . S
O732 C760 1.214 . S
H733 C761 0.929 . S
H734 C762 0.929 . S
H735 C763 0.930 . S
H736 C764 0.929 . S
H737 C766 0.930 . S
H738 C743 0.930 . S
H739 C747 0.930 . S
O740 Co709 2.037 . S
O740 C760 1.234 . S
C741 O715 1.269 . S
C741 O716 1.257 . S
C742 H717 0.930 . S
C742 C745 1.388 . S
C742 C747 1.418 . S
C743 H738 0.930 . S
C743 C746 1.404 . S
C743 C747 1.353 . S
N744 Co709 2.145 . S
N744 C745 1.397 . S
N744 C746 1.334 . S
C745 H726 0.929 . S
C745 C742 1.388 . S
C745 N744 1.397 . S
C746 H727 0.929 . S
C746 C743 1.404 . S
C746 N744 1.334 . S
C747 H739 0.930 . S
C747 C742 1.418 . S
C747 C743 1.353 . S
C748 H718 0.930 . S
C748 N749 1.330 . S
C748 C750 1.446 . S
N749 Co708 2.151 . S
N749 C748 1.330 . S
N749 C753 1.418 . S
C750 H729 0.929 . S
C750 C748 1.446 . S
C750 C751 1.332 . S
C751 H731 0.931 . S
C751 C750 1.332 . S
C751 C752 1.267 . S
C752 H720 0.929 . S
C752 C751 1.267 . S
C752 C753 1.251 . S
C753 H723 0.929 . S
C753 N749 1.418 . S
C753 C752 1.251 . S
C754 H721 0.930 . S
C754 C756 1.406 . S
C754 C759 1.261 . S
C755 H722 0.930 . S
C755 N757 1.325 . S
C755 C758 1.357 . S
C756 H724 0.928 . S
C756 C754 1.406 . S
C756 N757 1.261 . S
N757 Co708 2.214 . S
N757 C755 1.325 . S
N757 C756 1.261 . S
C758 H728 0.931 . S
C758 C755 1.357 . S
C758 C759 1.312 . S
C759 H730 0.930 . S
C759 C754 1.261 . S
C759 C758 1.312 . S
C760 O732 1.214 . S
C760 O740 1.234 . S
C761 H733 0.929 . S
C761 C764 1.391 . S
C761 C766 1.391 . S
C762 H734 0.929 . S
C762 C763 1.390 . S
C762 N765 1.391 . S
C763 H735 0.930 . S
C763 C762 1.390 . S
C763 C764 1.392 . S
C764 H736 0.929 . S
C764 C761 1.391 . S
C764 C763 1.392 . S
N765 Co709 2.257 . S
N765 C762 1.391 . S
N765 C766 1.388 . S
C766 H737 0.930 . S
C766 C761 1.391 . S
C766 N765 1.388 . S
Co767 O769 2.143 . S
Co767 O775 2.074 . S
Co767 O778 2.093 . S
Co767 O791 2.097 . S
Co767 N808 2.151 . S
Co767 N816 2.214 . S
Co768 O769 2.160 . S
Co768 O774 2.058 . S
Co768 O784 2.057 . S
Co768 O799 2.037 . S
Co768 N803 2.145 . S
Co768 N824 2.257 . S
O769 Co767 2.143 . S
O769 Co768 2.160 . S
C770 O771 1.278 . S
C770 O778 1.224 . S
O771 C770 1.278 . S
C772 O773 1.245 . S
C772 O784 1.232 . S
O773 C772 1.245 . S
O774 Co768 2.058 . S
O774 C800 1.269 . S
O775 Co767 2.074 . S
O775 C800 1.257 . S
H776 C801 0.930 . S
H777 C807 0.930 . S
O778 Co767 2.093 . S
O778 C770 1.224 . S
H779 C811 0.929 . S
H780 C813 0.930 . S
H781 C814 0.930 . S
H782 C812 0.929 . S
H783 C815 0.928 . S
O784 Co768 2.057 . S
O784 C772 1.232 . S
H785 C804 0.929 . S
H786 C805 0.929 . S
H787 C817 0.931 . S
H788 C809 0.929 . S
H789 C818 0.930 . S
H790 C810 0.931 . S
O791 Co767 2.097 . S
O791 C819 1.214 . S
H792 C820 0.929 . S
H793 C821 0.929 . S
H794 C822 0.930 . S
H795 C823 0.929 . S
H796 C825 0.930 . S
H797 C802 0.930 . S
H798 C806 0.930 . S
O799 Co768 2.037 . S
O799 C819 1.234 . S
C800 O774 1.269 . S
C800 O775 1.257 . S
C801 H776 0.930 . S
C801 C804 1.388 . S
C801 C806 1.418 . S
C802 H797 0.930 . S
C802 C805 1.404 . S
C802 C806 1.353 . S
N803 Co768 2.145 . S
N803 C804 1.397 . S
N803 C805 1.334 . S
C804 H785 0.929 . S
C804 C801 1.388 . S
C804 N803 1.397 . S
C805 H786 0.929 . S
C805 C802 1.404 . S
C805 N803 1.334 . S
C806 H798 0.930 . S
C806 C801 1.418 . S
C806 C802 1.353 . S
C807 H777 0.930 . S
C807 N808 1.330 . S
C807 C809 1.446 . S
N808 Co767 2.151 . S
N808 C807 1.330 . S
N808 C812 1.418 . S
C809 H788 0.929 . S
C809 C807 1.446 . S
C809 C810 1.332 . S
C810 H790 0.931 . S
C810 C809 1.332 . S
C810 C811 1.267 . S
C811 H779 0.929 . S
C811 C810 1.267 . S
C811 C812 1.251 . S
C812 H782 0.929 . S
C812 N808 1.418 . S
C812 C811 1.251 . S
C813 H780 0.930 . S
C813 C815 1.406 . S
C813 C818 1.261 . S
C814 H781 0.930 . S
C814 N816 1.325 . S
C814 C817 1.357 . S
C815 H783 0.928 . S
C815 C813 1.406 . S
C815 N816 1.261 . S
N816 Co767 2.214 . S
N816 C814 1.325 . S
N816 C815 1.261 . S
C817 H787 0.931 . S
C817 C814 1.357 . S
C817 C818 1.312 . S
C818 H789 0.930 . S
C818 C813 1.261 . S
C818 C817 1.312 . S
C819 O791 1.214 . S
C819 O799 1.234 . S
C820 H792 0.929 . S
C820 C823 1.391 . S
C820 C825 1.391 . S
C821 H793 0.929 . S
C821 C822 1.390 . S
C821 N824 1.391 . S
C822 H794 0.930 . S
C822 C821 1.390 . S
C822 C823 1.392 . S
C823 H795 0.929 . S
C823 C820 1.391 . S
C823 C822 1.392 . S
N824 Co768 2.257 . S
N824 C821 1.391 . S
N824 C825 1.388 . S
C825 H796 0.930 . S
C825 C820 1.391 . S
C825 N824 1.388 . S
Co826 O828 2.143 . S
Co826 O834 2.074 . S
Co826 O837 2.093 . S
Co826 O850 2.097 . S
Co826 N867 2.151 . S
Co826 N875 2.214 . S
Co827 O828 2.160 . S
Co827 O833 2.058 . S
Co827 O843 2.057 1_455 S
Co827 O858 2.037 . S
Co827 N862 2.145 . S
Co827 N883 2.257 1_455 S
O828 Co826 2.143 . S
O828 Co827 2.160 . S
C829 O830 1.278 . S
C829 O837 1.224 . S
O830 C829 1.278 . S
C831 O832 1.245 . S
C831 O843 1.232 . S
O832 C831 1.245 . S
O833 Co827 2.058 . S
O833 C859 1.269 . S
O834 Co826 2.074 . S
O834 C859 1.257 . S
H835 C860 0.930 . S
H836 C866 0.930 . S
O837 Co826 2.093 . S
O837 C829 1.224 . S
H838 C870 0.929 . S
H839 C872 0.930 . S
H840 C873 0.930 . S
H841 C871 0.929 . S
H842 C874 0.928 . S
O843 Co827 2.057 1_655 S
O843 C831 1.232 . S
H844 C863 0.929 . S
H845 C864 0.929 . S
H846 C876 0.931 . S
H847 C868 0.929 . S
H848 C877 0.930 . S
H849 C869 0.931 . S
O850 Co826 2.097 . S
O850 C878 1.214 . S
H851 C879 0.929 . S
H852 C880 0.929 1_455 S
H853 C881 0.930 . S
H854 C882 0.929 . S
H855 C884 0.930 . S
H856 C861 0.930 . S
H857 C865 0.930 . S
O858 Co827 2.037 . S
O858 C878 1.234 . S
C859 O833 1.269 . S
C859 O834 1.257 . S
C860 H835 0.930 . S
C860 C863 1.388 . S
C860 C865 1.418 . S
C861 H856 0.930 . S
C861 C864 1.404 . S
C861 C865 1.353 1_655 S
N862 Co827 2.145 . S
N862 C863 1.397 . S
N862 C864 1.334 1_455 S
C863 H844 0.929 . S
C863 C860 1.388 . S
C863 N862 1.397 . S
C864 H845 0.929 . S
C864 C861 1.404 . S
C864 N862 1.334 1_655 S
C865 H857 0.930 . S
C865 C860 1.418 . S
C865 C861 1.353 1_455 S
C866 H836 0.930 . S
C866 N867 1.330 . S
C866 C868 1.446 . S
N867 Co826 2.151 . S
N867 C866 1.330 . S
N867 C871 1.418 . S
C868 H847 0.929 . S
C868 C866 1.446 . S
C868 C869 1.332 . S
C869 H849 0.931 . S
C869 C868 1.332 . S
C869 C870 1.267 . S
C870 H838 0.929 . S
C870 C869 1.267 . S
C870 C871 1.251 . S
C871 H841 0.929 . S
C871 N867 1.418 . S
C871 C870 1.251 . S
C872 H839 0.930 . S
C872 C874 1.406 . S
C872 C877 1.261 . S
C873 H840 0.930 . S
C873 N875 1.325 . S
C873 C876 1.357 . S
C874 H842 0.928 . S
C874 C872 1.406 . S
C874 N875 1.261 . S
N875 Co826 2.214 . S
N875 C873 1.325 . S
N875 C874 1.261 . S
C876 H846 0.931 . S
C876 C873 1.357 . S
C876 C877 1.312 . S
C877 H848 0.930 . S
C877 C872 1.261 . S
C877 C876 1.312 . S
C878 O850 1.214 . S
C878 O858 1.234 . S
C879 H851 0.929 . S
C879 C882 1.391 . S
C879 C884 1.391 . S
C880 H852 0.929 1_655 S
C880 C881 1.390 . S
C880 N883 1.391 . S
C881 H853 0.930 . S
C881 C880 1.390 . S
C881 C882 1.392 . S
C882 H854 0.929 . S
C882 C879 1.391 . S
C882 C881 1.392 . S
N883 Co827 2.257 1_655 S
N883 C880 1.391 . S
N883 C884 1.388 . S
C884 H855 0.930 . S
C884 C879 1.391 . S
C884 N883 1.388 . S
Co885 O887 2.143 . S
Co885 O893 2.074 . S
Co885 O896 2.093 . S
Co885 O909 2.097 . S
Co885 N926 2.151 . S
Co885 N934 2.214 . S
Co886 O887 2.160 . S
Co886 O892 2.058 . S
Co886 O902 2.057 1_545 S
Co886 O917 2.037 . S
Co886 N921 2.145 . S
Co886 N942 2.257 1_545 S
O887 Co885 2.143 . S
O887 Co886 2.160 . S
C888 O889 1.278 . S
C888 O896 1.224 . S
O889 C888 1.278 . S
C890 O891 1.245 . S
C890 O902 1.232 . S
O891 C890 1.245 . S
O892 Co886 2.058 . S
O892 C918 1.269 . S
O893 Co885 2.074 . S
O893 C918 1.257 . S
H894 C919 0.930 . S
H895 C925 0.930 . S
O896 Co885 2.093 . S
O896 C888 1.224 . S
H897 C929 0.929 . S
H898 C931 0.930 . S
H899 C932 0.930 . S
H900 C930 0.929 . S
H901 C933 0.928 . S
O902 Co886 2.057 1_565 S
O902 C890 1.232 . S
H903 C922 0.929 . S
H904 C923 0.929 . S
H905 C935 0.931 . S
H906 C927 0.929 . S
H907 C936 0.930 . S
H908 C928 0.931 . S
O909 Co885 2.097 . S
O909 C937 1.214 . S
H910 C938 0.929 . S
H911 C939 0.929 1_545 S
H912 C940 0.930 . S
H913 C941 0.929 . S
H914 C943 0.930 . S
H915 C920 0.930 . S
H916 C924 0.930 . S
O917 Co886 2.037 . S
O917 C937 1.234 . S
C918 O892 1.269 . S
C918 O893 1.257 . S
C919 H894 0.930 . S
C919 C922 1.388 . S
C919 C924 1.418 . S
C920 H915 0.930 . S
C920 C923 1.404 . S
C920 C924 1.353 1_565 S
N921 Co886 2.145 . S
N921 C922 1.397 . S
N921 C923 1.334 1_545 S
C922 H903 0.929 . S
C922 C919 1.388 . S
C922 N921 1.397 . S
C923 H904 0.929 . S
C923 C920 1.404 . S
C923 N921 1.334 1_565 S
C924 H916 0.930 . S
C924 C919 1.418 . S
C924 C920 1.353 1_545 S
C925 H895 0.930 . S
C925 N926 1.330 . S
C925 C927 1.446 . S
N926 Co885 2.151 . S
N926 C925 1.330 . S
N926 C930 1.418 . S
C927 H906 0.929 . S
C927 C925 1.446 . S
C927 C928 1.332 . S
C928 H908 0.931 . S
C928 C927 1.332 . S
C928 C929 1.267 . S
C929 H897 0.929 . S
C929 C928 1.267 . S
C929 C930 1.251 . S
C930 H900 0.929 . S
C930 N926 1.418 . S
C930 C929 1.251 . S
C931 H898 0.930 . S
C931 C933 1.406 . S
C931 C936 1.261 . S
C932 H899 0.930 . S
C932 N934 1.325 . S
C932 C935 1.357 . S
C933 H901 0.928 . S
C933 C931 1.406 . S
C933 N934 1.261 . S
N934 Co885 2.214 . S
N934 C932 1.325 . S
N934 C933 1.261 . S
C935 H905 0.931 . S
C935 C932 1.357 . S
C935 C936 1.312 . S
C936 H907 0.930 . S
C936 C931 1.261 . S
C936 C935 1.312 . S
C937 O909 1.214 . S
C937 O917 1.234 . S
C938 H910 0.929 . S
C938 C941 1.391 . S
C938 C943 1.391 . S
C939 H911 0.929 1_565 S
C939 C940 1.390 . S
C939 N942 1.391 . S
C940 H912 0.930 . S
C940 C939 1.390 . S
C940 C941 1.392 . S
C941 H913 0.929 . S
C941 C938 1.391 . S
C941 C940 1.392 . S
N942 Co886 2.257 1_565 S
N942 C939 1.391 . S
N942 C943 1.388 . S
C943 H914 0.930 . S
C943 C938 1.391 . S
C943 N942 1.388 . S
H944 C952 0.929 . S
H945 C954 0.930 . S
H946 C956 0.930 . S
H947 C959 0.929 . S
H948 C962 0.930 . S
H949 C964 0.960 . S
H950 C964 0.960 . S
H951 C964 0.960 . S
C952 H944 0.929 . S
C952 C953 1.377 . S
C952 C954 1.384 . S
C953 C952 1.377 . S
C953 C959 1.390 . S
C954 H945 0.930 . S
C954 C952 1.384 . S
C954 C955 1.372 . S
C955 C954 1.372 . S
C955 C956 1.400 . S
C955 C960 1.490 . S
C956 H946 0.930 . S
C956 C955 1.400 . S
C956 C959 1.386 . S
H957 C973 0.930 . S
H958 C974 0.931 . S
C959 H947 0.929 . S
C959 C953 1.390 . S
C959 C956 1.386 . S
C960 C955 1.490 . S
C960 C962 1.395 . S
C960 C963 1.403 . S
H961 C967 0.930 . S
C962 H948 0.930 . S
C962 C960 1.395 . S
C962 C965 1.403 . S
C963 C960 1.403 . S
C963 C964 1.524 . S
C963 C967 1.400 . S
C964 H949 0.960 . S
C964 H950 0.960 . S
C964 H951 0.960 . S
C964 C963 1.524 . S
C965 C962 1.403 . S
C965 C966 1.392 . S
C965 C969 1.495 . S
C966 C965 1.392 . S
C966 C967 1.385 . S
C966 C968 1.478 . S
C967 H961 0.930 . S
C967 C963 1.400 . S
C967 C966 1.385 . S
C968 C966 1.478 . S
C968 C970 1.381 . S
C968 C974 1.383 . S
C969 C965 1.495 . S
C969 H975 0.959 . S
C969 H976 0.961 . S
C969 H977 0.960 . S
C970 C968 1.381 . S
C970 C971 1.394 . S
C970 H978 0.930 . S
C971 C970 1.394 . S
C971 C972 1.383 . S
C971 H979 0.929 . S
C972 C971 1.383 . S
C972 C973 1.377 . S
C973 H957 0.930 . S
C973 C972 1.377 . S
C973 C974 1.379 . S
C974 H958 0.931 . S
C974 C968 1.383 . S
C974 C973 1.379 . S
H975 C969 0.959 . S
H976 C969 0.961 . S
H977 C969 0.960 . S
H978 C970 0.930 . S
H979 C971 0.929 . S
H980 C988 0.929 . S
H981 C990 0.930 . S
H982 C992 0.930 . S
H983 C995 0.929 . S
H984 C998 0.930 . S
H985 C1000 0.960 . S
H986 C1000 0.960 . S
H987 C1000 0.960 . S
C988 H980 0.929 . S
C988 C989 1.377 . S
C988 C990 1.384 . S
C989 C988 1.377 . S
C989 C995 1.390 . S
C990 H981 0.930 . S
C990 C988 1.384 . S
C990 C991 1.372 . S
C991 C990 1.372 . S
C991 C992 1.400 . S
C991 C996 1.490 . S
C992 H982 0.930 . S
C992 C991 1.400 . S
C992 C995 1.386 . S
H993 C1009 0.930 . S
H994 C1010 0.931 . S
C995 H983 0.929 . S
C995 C989 1.390 . S
C995 C992 1.386 . S
C996 C991 1.490 . S
C996 C998 1.395 . S
C996 C999 1.403 . S
H997 C1003 0.930 . S
C998 H984 0.930 . S
C998 C996 1.395 . S
C998 C1001 1.403 . S
C999 C996 1.403 . S
C999 C1000 1.524 . S
C999 C1003 1.400 . S
C1000 H985 0.960 . S
C1000 H986 0.960 . S
C1000 H987 0.960 . S
C1000 C999 1.524 . S
C1001 C998 1.403 . S
C1001 C1002 1.392 . S
C1001 C1005 1.495 . S
C1002 C1001 1.392 . S
C1002 C1003 1.385 . S
C1002 C1004 1.478 . S
C1003 H997 0.930 . S
C1003 C999 1.400 . S
C1003 C1002 1.385 . S
C1004 C1002 1.478 . S
C1004 C1006 1.381 . S
C1004 C1010 1.383 . S
C1005 C1001 1.495 . S
C1005 H1011 0.959 . S
C1005 H1012 0.961 . S
C1005 H1013 0.960 . S
C1006 C1004 1.381 . S
C1006 C1007 1.394 . S
C1006 H1014 0.930 . S
C1007 C1006 1.394 . S
C1007 C1008 1.383 . S
C1007 H1015 0.929 . S
C1008 C1007 1.383 . S
C1008 C1009 1.377 . S
C1009 H993 0.930 . S
C1009 C1008 1.377 . S
C1009 C1010 1.379 . S
C1010 H994 0.931 . S
C1010 C1004 1.383 . S
C1010 C1009 1.379 . S
H1011 C1005 0.959 . S
H1012 C1005 0.961 . S
H1013 C1005 0.960 . S
H1014 C1006 0.930 . S
H1015 C1007 0.929 . S
H1016 C1024 0.929 . S
H1017 C1026 0.930 . S
H1018 C1028 0.930 . S
H1019 C1031 0.929 . S
H1020 C1034 0.930 . S
H1021 C1036 0.960 . S
H1022 C1036 0.960 . S
H1023 C1036 0.960 . S
C1024 H1016 0.929 . S
C1024 C1025 1.377 . S
C1024 C1026 1.384 . S
C1025 C1024 1.377 . S
C1025 C1031 1.390 . S
C1026 H1017 0.930 . S
C1026 C1024 1.384 . S
C1026 C1027 1.372 . S
C1027 C1026 1.372 . S
C1027 C1028 1.400 . S
C1027 C1032 1.490 . S
C1028 H1018 0.930 . S
C1028 C1027 1.400 . S
C1028 C1031 1.386 . S
H1029 C1045 0.930 . S
H1030 C1046 0.931 . S
C1031 H1019 0.929 . S
C1031 C1025 1.390 . S
C1031 C1028 1.386 . S
C1032 C1027 1.490 . S
C1032 C1034 1.395 . S
C1032 C1035 1.403 . S
H1033 C1039 0.930 . S
C1034 H1020 0.930 . S
C1034 C1032 1.395 . S
C1034 C1037 1.403 . S
C1035 C1032 1.403 . S
C1035 C1036 1.524 . S
C1035 C1039 1.400 . S
C1036 H1021 0.960 . S
C1036 H1022 0.960 . S
C1036 H1023 0.960 . S
C1036 C1035 1.524 . S
C1037 C1034 1.403 . S
C1037 C1038 1.392 . S
C1037 C1041 1.495 . S
C1038 C1037 1.392 . S
C1038 C1039 1.385 . S
C1038 C1040 1.478 . S
C1039 H1033 0.930 . S
C1039 C1035 1.400 . S
C1039 C1038 1.385 . S
C1040 C1038 1.478 . S
C1040 C1042 1.381 . S
C1040 C1046 1.383 . S
C1041 C1037 1.495 . S
C1041 H1047 0.959 . S
C1041 H1048 0.961 . S
C1041 H1049 0.960 . S
C1042 C1040 1.381 . S
C1042 C1043 1.394 . S
C1042 H1050 0.930 . S
C1043 C1042 1.394 . S
C1043 C1044 1.383 . S
C1043 H1051 0.929 . S
C1044 C1043 1.383 . S
C1044 C1045 1.377 . S
C1045 H1029 0.930 . S
C1045 C1044 1.377 . S
C1045 C1046 1.379 . S
C1046 H1030 0.931 . S
C1046 C1040 1.383 . S
C1046 C1045 1.379 . S
H1047 C1041 0.959 . S
H1048 C1041 0.961 . S
H1049 C1041 0.960 . S
H1050 C1042 0.930 . S
H1051 C1043 0.929 . S
H1052 C1060 0.929 . S
H1053 C1062 0.930 . S
H1054 C1064 0.930 . S
H1055 C1067 0.929 . S
H1056 C1070 0.930 . S
H1057 C1072 0.960 . S
H1058 C1072 0.960 . S
H1059 C1072 0.960 . S
C1060 H1052 0.929 . S
C1060 C1061 1.377 . S
C1060 C1062 1.384 . S
C1061 C1060 1.377 . S
C1061 C1067 1.390 . S
C1062 H1053 0.930 . S
C1062 C1060 1.384 . S
C1062 C1063 1.372 . S
C1063 C1062 1.372 . S
C1063 C1064 1.400 . S
C1063 C1068 1.490 . S
C1064 H1054 0.930 . S
C1064 C1063 1.400 . S
C1064 C1067 1.386 . S
H1065 C1081 0.930 . S
H1066 C1082 0.931 . S
C1067 H1055 0.929 . S
C1067 C1061 1.390 . S
C1067 C1064 1.386 . S
C1068 C1063 1.490 . S
C1068 C1070 1.395 . S
C1068 C1071 1.403 . S
H1069 C1075 0.930 . S
C1070 H1056 0.930 . S
C1070 C1068 1.395 . S
C1070 C1073 1.403 . S
C1071 C1068 1.403 . S
C1071 C1072 1.524 . S
C1071 C1075 1.400 . S
C1072 H1057 0.960 . S
C1072 H1058 0.960 . S
C1072 H1059 0.960 . S
C1072 C1071 1.524 . S
C1073 C1070 1.403 . S
C1073 C1074 1.392 . S
C1073 C1077 1.495 . S
C1074 C1073 1.392 . S
C1074 C1075 1.385 . S
C1074 C1076 1.478 . S
C1075 H1069 0.930 . S
C1075 C1071 1.400 . S
C1075 C1074 1.385 . S
C1076 C1074 1.478 . S
C1076 C1078 1.381 . S
C1076 C1082 1.383 . S
C1077 C1073 1.495 . S
C1077 H1083 0.959 . S
C1077 H1084 0.961 . S
C1077 H1085 0.960 . S
C1078 C1076 1.381 . S
C1078 C1079 1.394 . S
C1078 H1086 0.930 . S
C1079 C1078 1.394 . S
C1079 C1080 1.383 . S
C1079 H1087 0.929 . S
C1080 C1079 1.383 . S
C1080 C1081 1.377 . S
C1081 H1065 0.930 . S
C1081 C1080 1.377 . S
C1081 C1082 1.379 . S
C1082 H1066 0.931 . S
C1082 C1076 1.383 . S
C1082 C1081 1.379 . S
H1083 C1077 0.959 . S
H1084 C1077 0.961 . S
H1085 C1077 0.960 . S
H1086 C1078 0.930 . S
H1087 C1079 0.929 . S
H1088 C1096 0.929 . S
H1089 C1098 0.930 . S
H1090 C1100 0.930 . S
H1091 C1103 0.929 . S
H1092 C1106 0.930 . S
H1093 C1108 0.960 . S
H1094 C1108 0.960 . S
H1095 C1108 0.960 . S
C1096 H1088 0.929 . S
C1096 C1097 1.377 . S
C1096 C1098 1.384 . S
C1097 C1096 1.377 . S
C1097 C1103 1.390 . S
C1098 H1089 0.930 . S
C1098 C1096 1.384 . S
C1098 C1099 1.372 . S
C1099 C1098 1.372 . S
C1099 C1100 1.400 . S
C1099 C1104 1.490 . S
C1100 H1090 0.930 . S
C1100 C1099 1.400 . S
C1100 C1103 1.386 . S
H1101 C1117 0.930 . S
H1102 C1118 0.931 . S
C1103 H1091 0.929 . S
C1103 C1097 1.390 . S
C1103 C1100 1.386 . S
C1104 C1099 1.490 . S
C1104 C1106 1.395 . S
C1104 C1107 1.403 . S
H1105 C1111 0.930 . S
C1106 H1092 0.930 . S
C1106 C1104 1.395 . S
C1106 C1109 1.403 . S
C1107 C1104 1.403 . S
C1107 C1108 1.524 . S
C1107 C1111 1.400 . S
C1108 H1093 0.960 . S
C1108 H1094 0.960 . S
C1108 H1095 0.960 . S
C1108 C1107 1.524 . S
C1109 C1106 1.403 . S
C1109 C1110 1.392 . S
C1109 C1113 1.495 . S
C1110 C1109 1.392 . S
C1110 C1111 1.385 . S
C1110 C1112 1.478 . S
C1111 H1105 0.930 . S
C1111 C1107 1.400 . S
C1111 C1110 1.385 . S
C1112 C1110 1.478 . S
C1112 C1114 1.381 . S
C1112 C1118 1.383 . S
C1113 C1109 1.495 . S
C1113 H1119 0.959 . S
C1113 H1120 0.961 . S
C1113 H1121 0.960 . S
C1114 C1112 1.381 . S
C1114 C1115 1.394 . S
C1114 H1122 0.930 . S
C1115 C1114 1.394 . S
C1115 C1116 1.383 . S
C1115 H1123 0.929 . S
C1116 C1115 1.383 . S
C1116 C1117 1.377 . S
C1117 H1101 0.930 . S
C1117 C1116 1.377 . S
C1117 C1118 1.379 . S
C1118 H1102 0.931 . S
C1118 C1112 1.383 . S
C1118 C1117 1.379 . S
H1119 C1113 0.959 . S
H1120 C1113 0.961 . S
H1121 C1113 0.960 . S
H1122 C1114 0.930 . S
H1123 C1115 0.929 . S
H1124 C1132 0.929 . S
H1125 C1134 0.930 . S
H1126 C1136 0.930 . S
H1127 C1139 0.929 . S
H1128 C1142 0.930 . S
H1129 C1144 0.960 . S
H1130 C1144 0.960 . S
H1131 C1144 0.960 . S
C1132 H1124 0.929 . S
C1132 C1133 1.377 . S
C1132 C1134 1.384 . S
C1133 C1132 1.377 . S
C1133 C1139 1.390 . S
C1134 H1125 0.930 . S
C1134 C1132 1.384 . S
C1134 C1135 1.372 . S
C1135 C1134 1.372 . S
C1135 C1136 1.400 . S
C1135 C1140 1.490 . S
C1136 H1126 0.930 . S
C1136 C1135 1.400 . S
C1136 C1139 1.386 . S
H1137 C1153 0.930 . S
H1138 C1154 0.931 . S
C1139 H1127 0.929 . S
C1139 C1133 1.390 . S
C1139 C1136 1.386 . S
C1140 C1135 1.490 . S
C1140 C1142 1.395 . S
C1140 C1143 1.403 . S
H1141 C1147 0.930 . S
C1142 H1128 0.930 . S
C1142 C1140 1.395 . S
C1142 C1145 1.403 . S
C1143 C1140 1.403 . S
C1143 C1144 1.524 . S
C1143 C1147 1.400 . S
C1144 H1129 0.960 . S
C1144 H1130 0.960 . S
C1144 H1131 0.960 . S
C1144 C1143 1.524 . S
C1145 C1142 1.403 . S
C1145 C1146 1.392 . S
C1145 C1149 1.495 . S
C1146 C1145 1.392 . S
C1146 C1147 1.385 . S
C1146 C1148 1.478 . S
C1147 H1141 0.930 . S
C1147 C1143 1.400 . S
C1147 C1146 1.385 . S
C1148 C1146 1.478 . S
C1148 C1150 1.381 . S
C1148 C1154 1.383 . S
C1149 C1145 1.495 . S
C1149 H1155 0.959 . S
C1149 H1156 0.961 . S
C1149 H1157 0.960 . S
C1150 C1148 1.381 . S
C1150 C1151 1.394 . S
C1150 H1158 0.930 . S
C1151 C1150 1.394 . S
C1151 C1152 1.383 . S
C1151 H1159 0.929 . S
C1152 C1151 1.383 . S
C1152 C1153 1.377 . S
C1153 H1137 0.930 . S
C1153 C1152 1.377 . S
C1153 C1154 1.379 . S
C1154 H1138 0.931 . S
C1154 C1148 1.383 . S
C1154 C1153 1.379 . S
H1155 C1149 0.959 . S
H1156 C1149 0.961 . S
H1157 C1149 0.960 . S
H1158 C1150 0.930 . S
H1159 C1151 0.929 . S
H1160 C1168 0.929 . S
H1161 C1170 0.930 . S
H1162 C1172 0.930 . S
H1163 C1175 0.929 . S
H1164 C1178 0.930 . S
H1165 C1180 0.960 . S
H1166 C1180 0.960 . S
H1167 C1180 0.960 . S
C1168 H1160 0.929 . S
C1168 C1169 1.377 . S
C1168 C1170 1.384 . S
C1169 C1168 1.377 . S
C1169 C1175 1.390 . S
C1170 H1161 0.930 . S
C1170 C1168 1.384 . S
C1170 C1171 1.372 . S
C1171 C1170 1.372 . S
C1171 C1172 1.400 . S
C1171 C1176 1.490 . S
C1172 H1162 0.930 . S
C1172 C1171 1.400 . S
C1172 C1175 1.386 . S
H1173 C1189 0.930 . S
H1174 C1190 0.931 . S
C1175 H1163 0.929 . S
C1175 C1169 1.390 . S
C1175 C1172 1.386 . S
C1176 C1171 1.490 . S
C1176 C1178 1.395 . S
C1176 C1179 1.403 . S
H1177 C1183 0.930 . S
C1178 H1164 0.930 . S
C1178 C1176 1.395 . S
C1178 C1181 1.403 . S
C1179 C1176 1.403 . S
C1179 C1180 1.524 . S
C1179 C1183 1.400 . S
C1180 H1165 0.960 . S
C1180 H1166 0.960 . S
C1180 H1167 0.960 . S
C1180 C1179 1.524 . S
C1181 C1178 1.403 . S
C1181 C1182 1.392 . S
C1181 C1185 1.495 . S
C1182 C1181 1.392 . S
C1182 C1183 1.385 . S
C1182 C1184 1.478 . S
C1183 H1177 0.930 . S
C1183 C1179 1.400 . S
C1183 C1182 1.385 . S
C1184 C1182 1.478 . S
C1184 C1186 1.381 . S
C1184 C1190 1.383 . S
C1185 C1181 1.495 . S
C1185 H1191 0.959 . S
C1185 H1192 0.961 . S
C1185 H1193 0.960 . S
C1186 C1184 1.381 . S
C1186 C1187 1.394 . S
C1186 H1194 0.930 . S
C1187 C1186 1.394 . S
C1187 C1188 1.383 . S
C1187 H1195 0.929 . S
C1188 C1187 1.383 . S
C1188 C1189 1.377 . S
C1189 H1173 0.930 . S
C1189 C1188 1.377 . S
C1189 C1190 1.379 . S
C1190 H1174 0.931 . S
C1190 C1184 1.383 . S
C1190 C1189 1.379 . S
H1191 C1185 0.959 . S
H1192 C1185 0.961 . S
H1193 C1185 0.960 . S
H1194 C1186 0.930 . S
H1195 C1187 0.929 . S
H1196 C1204 0.929 . S
H1197 C1206 0.930 . S
H1198 C1208 0.930 . S
H1199 C1211 0.929 . S
H1200 C1214 0.930 . S
H1201 C1216 0.960 . S
H1202 C1216 0.960 . S
H1203 C1216 0.960 . S
C1204 H1196 0.929 . S
C1204 C1205 1.377 . S
C1204 C1206 1.384 . S
C1205 C1204 1.377 . S
C1205 C1211 1.390 . S
C1206 H1197 0.930 . S
C1206 C1204 1.384 . S
C1206 C1207 1.372 . S
C1207 C1206 1.372 . S
C1207 C1208 1.400 . S
C1207 C1212 1.490 . S
C1208 H1198 0.930 . S
C1208 C1207 1.400 . S
C1208 C1211 1.386 . S
H1209 C1225 0.930 . S
H1210 C1226 0.931 . S
C1211 H1199 0.929 . S
C1211 C1205 1.390 . S
C1211 C1208 1.386 . S
C1212 C1207 1.490 . S
C1212 C1214 1.395 . S
C1212 C1215 1.403 . S
H1213 C1219 0.930 . S
C1214 H1200 0.930 . S
C1214 C1212 1.395 . S
C1214 C1217 1.403 . S
C1215 C1212 1.403 . S
C1215 C1216 1.524 . S
C1215 C1219 1.400 . S
C1216 H1201 0.960 . S
C1216 H1202 0.960 . S
C1216 H1203 0.960 . S
C1216 C1215 1.524 . S
C1217 C1214 1.403 . S
C1217 C1218 1.392 . S
C1217 C1221 1.495 . S
C1218 C1217 1.392 . S
C1218 C1219 1.385 . S
C1218 C1220 1.478 . S
C1219 H1213 0.930 . S
C1219 C1215 1.400 . S
C1219 C1218 1.385 . S
C1220 C1218 1.478 . S
C1220 C1222 1.381 . S
C1220 C1226 1.383 . S
C1221 C1217 1.495 . S
C1221 H1227 0.959 . S
C1221 H1228 0.961 . S
C1221 H1229 0.960 . S
C1222 C1220 1.381 . S
C1222 C1223 1.394 . S
C1222 H1230 0.930 . S
C1223 C1222 1.394 . S
C1223 C1224 1.383 . S
C1223 H1231 0.929 . S
C1224 C1223 1.383 . S
C1224 C1225 1.377 . S
C1225 H1209 0.930 . S
C1225 C1224 1.377 . S
C1225 C1226 1.379 . S
C1226 H1210 0.931 . S
C1226 C1220 1.383 . S
C1226 C1225 1.379 . S
H1227 C1221 0.959 . S
H1228 C1221 0.961 . S
H1229 C1221 0.960 . S
H1230 C1222 0.930 . S
H1231 C1223 0.929 . S
H1232 C1240 0.929 . S
H1233 C1242 0.930 . S
H1234 C1244 0.930 . S
H1235 C1247 0.929 . S
H1236 C1250 0.930 . S
H1237 C1252 0.960 . S
H1238 C1252 0.960 . S
H1239 C1252 0.960 . S
C1240 H1232 0.929 . S
C1240 C1241 1.377 . S
C1240 C1242 1.384 . S
C1241 C1240 1.377 . S
C1241 C1247 1.390 . S
C1242 H1233 0.930 . S
C1242 C1240 1.384 . S
C1242 C1243 1.372 . S
C1243 C1242 1.372 . S
C1243 C1244 1.400 . S
C1243 C1248 1.490 . S
C1244 H1234 0.930 . S
C1244 C1243 1.400 . S
C1244 C1247 1.386 . S
H1245 C1261 0.930 . S
H1246 C1262 0.931 . S
C1247 H1235 0.929 . S
C1247 C1241 1.390 . S
C1247 C1244 1.386 . S
C1248 C1243 1.490 . S
C1248 C1250 1.395 . S
C1248 C1251 1.403 . S
H1249 C1255 0.930 . S
C1250 H1236 0.930 . S
C1250 C1248 1.395 . S
C1250 C1253 1.403 . S
C1251 C1248 1.403 . S
C1251 C1252 1.524 . S
C1251 C1255 1.400 . S
C1252 H1237 0.960 . S
C1252 H1238 0.960 . S
C1252 H1239 0.960 . S
C1252 C1251 1.524 . S
C1253 C1250 1.403 . S
C1253 C1254 1.392 . S
C1253 C1257 1.495 . S
C1254 C1253 1.392 . S
C1254 C1255 1.385 . S
C1254 C1256 1.478 . S
C1255 H1249 0.930 . S
C1255 C1251 1.400 . S
C1255 C1254 1.385 . S
C1256 C1254 1.478 . S
C1256 C1258 1.381 . S
C1256 C1262 1.383 . S
C1257 C1253 1.495 . S
C1257 H1263 0.959 . S
C1257 H1264 0.961 . S
C1257 H1265 0.960 . S
C1258 C1256 1.381 . S
C1258 C1259 1.394 . S
C1258 H1266 0.930 . S
C1259 C1258 1.394 . S
C1259 C1260 1.383 . S
C1259 H1267 0.929 . S
C1260 C1259 1.383 . S
C1260 C1261 1.377 . S
C1261 H1245 0.930 . S
C1261 C1260 1.377 . S
C1261 C1262 1.379 . S
C1262 H1246 0.931 . S
C1262 C1256 1.383 . S
C1262 C1261 1.379 . S
H1263 C1257 0.959 . S
H1264 C1257 0.961 . S
H1265 C1257 0.960 . S
H1266 C1258 0.930 . S
H1267 C1259 0.929 . S
H1268 C1276 0.929 . S
H1269 C1278 0.930 . S
H1270 C1280 0.930 . S
H1271 C1283 0.929 . S
H1272 C1286 0.930 . S
H1273 C1288 0.960 . S
H1274 C1288 0.960 . S
H1275 C1288 0.960 . S
C1276 H1268 0.929 . S
C1276 C1277 1.377 . S
C1276 C1278 1.384 . S
C1277 C1276 1.377 . S
C1277 C1283 1.390 . S
C1278 H1269 0.930 . S
C1278 C1276 1.384 . S
C1278 C1279 1.372 . S
C1279 C1278 1.372 . S
C1279 C1280 1.400 . S
C1279 C1284 1.490 . S
C1280 H1270 0.930 . S
C1280 C1279 1.400 . S
C1280 C1283 1.386 . S
H1281 C1297 0.930 . S
H1282 C1298 0.931 . S
C1283 H1271 0.929 . S
C1283 C1277 1.390 . S
C1283 C1280 1.386 . S
C1284 C1279 1.490 . S
C1284 C1286 1.395 . S
C1284 C1287 1.403 . S
H1285 C1291 0.930 . S
C1286 H1272 0.930 . S
C1286 C1284 1.395 . S
C1286 C1289 1.403 . S
C1287 C1284 1.403 . S
C1287 C1288 1.524 . S
C1287 C1291 1.400 . S
C1288 H1273 0.960 . S
C1288 H1274 0.960 . S
C1288 H1275 0.960 . S
C1288 C1287 1.524 . S
C1289 C1286 1.403 . S
C1289 C1290 1.392 . S
C1289 C1293 1.495 . S
C1290 C1289 1.392 . S
C1290 C1291 1.385 . S
C1290 C1292 1.478 . S
C1291 H1285 0.930 . S
C1291 C1287 1.400 . S
C1291 C1290 1.385 . S
C1292 C1290 1.478 . S
C1292 C1294 1.381 . S
C1292 C1298 1.383 . S
C1293 C1289 1.495 . S
C1293 H1299 0.959 . S
C1293 H1300 0.961 . S
C1293 H1301 0.960 . S
C1294 C1292 1.381 . S
C1294 C1295 1.394 . S
C1294 H1302 0.930 . S
C1295 C1294 1.394 . S
C1295 C1296 1.383 . S
C1295 H1303 0.929 . S
C1296 C1295 1.383 . S
C1296 C1297 1.377 . S
C1297 H1281 0.930 . S
C1297 C1296 1.377 . S
C1297 C1298 1.379 . S
C1298 H1282 0.931 . S
C1298 C1292 1.383 . S
C1298 C1297 1.379 . S
H1299 C1293 0.959 . S
H1300 C1293 0.961 . S
H1301 C1293 0.960 . S
H1302 C1294 0.930 . S
H1303 C1295 0.929 . S
H1304 C1312 0.929 . S
H1305 C1314 0.930 . S
H1306 C1316 0.930 . S
H1307 C1319 0.929 . S
H1308 C1322 0.930 . S
H1309 C1324 0.960 . S
H1310 C1324 0.960 . S
H1311 C1324 0.960 . S
C1312 H1304 0.929 . S
C1312 C1313 1.377 . S
C1312 C1314 1.384 . S
C1313 C1312 1.377 . S
C1313 C1319 1.390 . S
C1314 H1305 0.930 . S
C1314 C1312 1.384 . S
C1314 C1315 1.372 . S
C1315 C1314 1.372 . S
C1315 C1316 1.400 . S
C1315 C1320 1.490 . S
C1316 H1306 0.930 . S
C1316 C1315 1.400 . S
C1316 C1319 1.386 . S
H1317 C1333 0.930 . S
H1318 C1334 0.931 . S
C1319 H1307 0.929 . S
C1319 C1313 1.390 . S
C1319 C1316 1.386 . S
C1320 C1315 1.490 . S
C1320 C1322 1.395 . S
C1320 C1323 1.403 . S
H1321 C1327 0.930 . S
C1322 H1308 0.930 . S
C1322 C1320 1.395 . S
C1322 C1325 1.403 . S
C1323 C1320 1.403 . S
C1323 C1324 1.524 . S
C1323 C1327 1.400 . S
C1324 H1309 0.960 . S
C1324 H1310 0.960 . S
C1324 H1311 0.960 . S
C1324 C1323 1.524 . S
C1325 C1322 1.403 . S
C1325 C1326 1.392 . S
C1325 C1329 1.495 . S
C1326 C1325 1.392 . S
C1326 C1327 1.385 . S
C1326 C1328 1.478 . S
C1327 H1321 0.930 . S
C1327 C1323 1.400 . S
C1327 C1326 1.385 . S
C1328 C1326 1.478 . S
C1328 C1330 1.381 . S
C1328 C1334 1.383 . S
C1329 C1325 1.495 . S
C1329 H1335 0.959 . S
C1329 H1336 0.961 . S
C1329 H1337 0.960 . S
C1330 C1328 1.381 . S
C1330 C1331 1.394 . S
C1330 H1338 0.930 . S
C1331 C1330 1.394 . S
C1331 C1332 1.383 . S
C1331 H1339 0.929 . S
C1332 C1331 1.383 . S
C1332 C1333 1.377 . S
C1333 H1317 0.930 . S
C1333 C1332 1.377 . S
C1333 C1334 1.379 . S
C1334 H1318 0.931 . S
C1334 C1328 1.383 . S
C1334 C1333 1.379 . S
H1335 C1329 0.959 . S
H1336 C1329 0.961 . S
H1337 C1329 0.960 . S
H1338 C1330 0.930 . S
H1339 C1331 0.929 . S
H1340 C1348 0.929 . S
H1341 C1350 0.930 . S
H1342 C1352 0.930 . S
H1343 C1355 0.929 . S
H1344 C1358 0.930 . S
H1345 C1360 0.960 . S
H1346 C1360 0.960 . S
H1347 C1360 0.960 . S
C1348 H1340 0.929 . S
C1348 C1349 1.377 . S
C1348 C1350 1.384 . S
C1349 C1348 1.377 . S
C1349 C1355 1.390 . S
C1350 H1341 0.930 . S
C1350 C1348 1.384 . S
C1350 C1351 1.372 . S
C1351 C1350 1.372 . S
C1351 C1352 1.400 . S
C1351 C1356 1.490 . S
C1352 H1342 0.930 . S
C1352 C1351 1.400 . S
C1352 C1355 1.386 . S
H1353 C1369 0.930 . S
H1354 C1370 0.931 . S
C1355 H1343 0.929 . S
C1355 C1349 1.390 . S
C1355 C1352 1.386 . S
C1356 C1351 1.490 . S
C1356 C1358 1.395 . S
C1356 C1359 1.403 . S
H1357 C1363 0.930 . S
C1358 H1344 0.930 . S
C1358 C1356 1.395 . S
C1358 C1361 1.403 . S
C1359 C1356 1.403 . S
C1359 C1360 1.524 . S
C1359 C1363 1.400 . S
C1360 H1345 0.960 . S
C1360 H1346 0.960 . S
C1360 H1347 0.960 . S
C1360 C1359 1.524 . S
C1361 C1358 1.403 . S
C1361 C1362 1.392 . S
C1361 C1365 1.495 . S
C1362 C1361 1.392 . S
C1362 C1363 1.385 . S
C1362 C1364 1.478 . S
C1363 H1357 0.930 . S
C1363 C1359 1.400 . S
C1363 C1362 1.385 . S
C1364 C1362 1.478 . S
C1364 C1366 1.381 . S
C1364 C1370 1.383 . S
C1365 C1361 1.495 . S
C1365 H1371 0.959 . S
C1365 H1372 0.961 . S
C1365 H1373 0.960 . S
C1366 C1364 1.381 . S
C1366 C1367 1.394 . S
C1366 H1374 0.930 . S
C1367 C1366 1.394 . S
C1367 C1368 1.383 . S
C1367 H1375 0.929 . S
C1368 C1367 1.383 . S
C1368 C1369 1.377 . S
C1369 H1353 0.930 . S
C1369 C1368 1.377 . S
C1369 C1370 1.379 . S
C1370 H1354 0.931 . S
C1370 C1364 1.383 . S
C1370 C1369 1.379 . S
H1371 C1365 0.959 . S
H1372 C1365 0.961 . S
H1373 C1365 0.960 . S
H1374 C1366 0.930 . S
H1375 C1367 0.929 . S
H1376 C1384 0.929 . S
H1377 C1386 0.930 . S
H1378 C1388 0.930 . S
H1379 C1391 0.929 . S
H1380 C1394 0.930 . S
H1381 C1396 0.960 . S
H1382 C1396 0.960 . S
H1383 C1396 0.960 . S
C1384 H1376 0.929 . S
C1384 C1385 1.377 . S
C1384 C1386 1.384 . S
C1385 C1384 1.377 . S
C1385 C1391 1.390 . S
C1386 H1377 0.930 . S
C1386 C1384 1.384 . S
C1386 C1387 1.372 . S
C1387 C1386 1.372 . S
C1387 C1388 1.400 . S
C1387 C1392 1.490 . S
C1388 H1378 0.930 . S
C1388 C1387 1.400 . S
C1388 C1391 1.386 . S
H1389 C1405 0.930 . S
H1390 C1406 0.931 . S
C1391 H1379 0.929 . S
C1391 C1385 1.390 . S
C1391 C1388 1.386 . S
C1392 C1387 1.490 . S
C1392 C1394 1.395 . S
C1392 C1395 1.403 . S
H1393 C1399 0.930 . S
C1394 H1380 0.930 . S
C1394 C1392 1.395 . S
C1394 C1397 1.403 . S
C1395 C1392 1.403 . S
C1395 C1396 1.524 . S
C1395 C1399 1.400 . S
C1396 H1381 0.960 . S
C1396 H1382 0.960 . S
C1396 H1383 0.960 . S
C1396 C1395 1.524 . S
C1397 C1394 1.403 . S
C1397 C1398 1.392 . S
C1397 C1401 1.495 . S
C1398 C1397 1.392 . S
C1398 C1399 1.385 . S
C1398 C1400 1.478 . S
C1399 H1393 0.930 . S
C1399 C1395 1.400 . S
C1399 C1398 1.385 . S
C1400 C1398 1.478 . S
C1400 C1402 1.381 . S
C1400 C1406 1.383 . S
C1401 C1397 1.495 . S
C1401 H1407 0.959 . S
C1401 H1408 0.961 . S
C1401 H1409 0.960 . S
C1402 C1400 1.381 . S
C1402 C1403 1.394 . S
C1402 H1410 0.930 . S
C1403 C1402 1.394 . S
C1403 C1404 1.383 . S
C1403 H1411 0.929 . S
C1404 C1403 1.383 . S
C1404 C1405 1.377 . S
C1405 H1389 0.930 . S
C1405 C1404 1.377 . S
C1405 C1406 1.379 . S
C1406 H1390 0.931 . S
C1406 C1400 1.383 . S
C1406 C1405 1.379 . S
H1407 C1401 0.959 . S
H1408 C1401 0.961 . S
H1409 C1401 0.960 . S
H1410 C1402 0.930 . S
H1411 C1403 0.929 . S
H1412 C1420 0.929 . S
H1413 C1422 0.930 . S
H1414 C1424 0.930 . S
H1415 C1427 0.929 . S
H1416 C1430 0.930 . S
H1417 C1432 0.960 . S
H1418 C1432 0.960 . S
H1419 C1432 0.960 . S
C1420 H1412 0.929 . S
C1420 C1421 1.377 . S
C1420 C1422 1.384 . S
C1421 C1420 1.377 . S
C1421 C1427 1.390 . S
C1422 H1413 0.930 . S
C1422 C1420 1.384 . S
C1422 C1423 1.372 . S
C1423 C1422 1.372 . S
C1423 C1424 1.400 . S
C1423 C1428 1.490 . S
C1424 H1414 0.930 . S
C1424 C1423 1.400 . S
C1424 C1427 1.386 . S
H1425 C1441 0.930 . S
H1426 C1442 0.931 . S
C1427 H1415 0.929 . S
C1427 C1421 1.390 . S
C1427 C1424 1.386 . S
C1428 C1423 1.490 . S
C1428 C1430 1.395 . S
C1428 C1431 1.403 . S
H1429 C1435 0.930 . S
C1430 H1416 0.930 . S
C1430 C1428 1.395 . S
C1430 C1433 1.403 . S
C1431 C1428 1.403 . S
C1431 C1432 1.524 . S
C1431 C1435 1.400 . S
C1432 H1417 0.960 . S
C1432 H1418 0.960 . S
C1432 H1419 0.960 . S
C1432 C1431 1.524 . S
C1433 C1430 1.403 . S
C1433 C1434 1.392 . S
C1433 C1437 1.495 . S
C1434 C1433 1.392 . S
C1434 C1435 1.385 . S
C1434 C1436 1.478 . S
C1435 H1429 0.930 . S
C1435 C1431 1.400 . S
C1435 C1434 1.385 . S
C1436 C1434 1.478 . S
C1436 C1438 1.381 . S
C1436 C1442 1.383 . S
C1437 C1433 1.495 . S
C1437 H1443 0.959 . S
C1437 H1444 0.961 . S
C1437 H1445 0.960 . S
C1438 C1436 1.381 . S
C1438 C1439 1.394 . S
C1438 H1446 0.930 . S
C1439 C1438 1.394 . S
C1439 C1440 1.383 . S
C1439 H1447 0.929 . S
C1440 C1439 1.383 . S
C1440 C1441 1.377 . S
C1441 H1425 0.930 . S
C1441 C1440 1.377 . S
C1441 C1442 1.379 . S
C1442 H1426 0.931 . S
C1442 C1436 1.383 . S
C1442 C1441 1.379 . S
H1443 C1437 0.959 . S
H1444 C1437 0.961 . S
H1445 C1437 0.960 . S
H1446 C1438 0.930 . S
H1447 C1439 0.929 . S
H1448 C1456 0.929 . S
H1449 C1458 0.930 . S
H1450 C1460 0.930 . S
H1451 C1463 0.929 . S
H1452 C1466 0.930 . S
H1453 C1468 0.960 . S
H1454 C1468 0.960 . S
H1455 C1468 0.960 . S
C1456 H1448 0.929 . S
C1456 C1457 1.377 . S
C1456 C1458 1.384 . S
C1457 C1456 1.377 . S
C1457 C1463 1.390 . S
C1458 H1449 0.930 . S
C1458 C1456 1.384 . S
C1458 C1459 1.372 . S
C1459 C1458 1.372 . S
C1459 C1460 1.400 . S
C1459 C1464 1.490 . S
C1460 H1450 0.930 . S
C1460 C1459 1.400 . S
C1460 C1463 1.386 . S
H1461 C1477 0.930 . S
H1462 C1478 0.931 . S
C1463 H1451 0.929 . S
C1463 C1457 1.390 . S
C1463 C1460 1.386 . S
C1464 C1459 1.490 . S
C1464 C1466 1.395 . S
C1464 C1467 1.403 . S
H1465 C1471 0.930 . S
C1466 H1452 0.930 . S
C1466 C1464 1.395 . S
C1466 C1469 1.403 . S
C1467 C1464 1.403 . S
C1467 C1468 1.524 . S
C1467 C1471 1.400 . S
C1468 H1453 0.960 . S
C1468 H1454 0.960 . S
C1468 H1455 0.960 . S
C1468 C1467 1.524 . S
C1469 C1466 1.403 . S
C1469 C1470 1.392 . S
C1469 C1473 1.495 . S
C1470 C1469 1.392 . S
C1470 C1471 1.385 . S
C1470 C1472 1.478 . S
C1471 H1465 0.930 . S
C1471 C1467 1.400 . S
C1471 C1470 1.385 . S
C1472 C1470 1.478 . S
C1472 C1474 1.381 . S
C1472 C1478 1.383 . S
C1473 C1469 1.495 . S
C1473 H1479 0.959 . S
C1473 H1480 0.961 . S
C1473 H1481 0.960 . S
C1474 C1472 1.381 . S
C1474 C1475 1.394 . S
C1474 H1482 0.930 . S
C1475 C1474 1.394 . S
C1475 C1476 1.383 . S
C1475 H1483 0.929 . S
C1476 C1475 1.383 . S
C1476 C1477 1.377 . S
C1477 H1461 0.930 . S
C1477 C1476 1.377 . S
C1477 C1478 1.379 . S
C1478 H1462 0.931 . S
C1478 C1472 1.383 . S
C1478 C1477 1.379 . S
H1479 C1473 0.959 . S
H1480 C1473 0.961 . S
H1481 C1473 0.960 . S
H1482 C1474 0.930 . S
H1483 C1475 0.929 . S
H1484 C1492 0.929 . S
H1485 C1494 0.930 . S
H1486 C1496 0.930 . S
H1487 C1499 0.929 . S
H1488 C1502 0.930 . S
H1489 C1504 0.960 . S
H1490 C1504 0.960 . S
H1491 C1504 0.960 . S
C1492 H1484 0.929 . S
C1492 C1493 1.377 . S
C1492 C1494 1.384 . S
C1493 C1492 1.377 . S
C1493 C1499 1.390 . S
C1494 H1485 0.930 . S
C1494 C1492 1.384 . S
C1494 C1495 1.372 . S
C1495 C1494 1.372 . S
C1495 C1496 1.400 . S
C1495 C1500 1.490 . S
C1496 H1486 0.930 . S
C1496 C1495 1.400 . S
C1496 C1499 1.386 . S
H1497 C1513 0.930 . S
H1498 C1514 0.931 . S
C1499 H1487 0.929 . S
C1499 C1493 1.390 . S
C1499 C1496 1.386 . S
C1500 C1495 1.490 . S
C1500 C1502 1.395 . S
C1500 C1503 1.403 . S
H1501 C1507 0.930 . S
C1502 H1488 0.930 . S
C1502 C1500 1.395 . S
C1502 C1505 1.403 . S
C1503 C1500 1.403 . S
C1503 C1504 1.524 . S
C1503 C1507 1.400 . S
C1504 H1489 0.960 . S
C1504 H1490 0.960 . S
C1504 H1491 0.960 . S
C1504 C1503 1.524 . S
C1505 C1502 1.403 . S
C1505 C1506 1.392 . S
C1505 C1509 1.495 . S
C1506 C1505 1.392 . S
C1506 C1507 1.385 . S
C1506 C1508 1.478 . S
C1507 H1501 0.930 . S
C1507 C1503 1.400 . S
C1507 C1506 1.385 . S
C1508 C1506 1.478 . S
C1508 C1510 1.381 . S
C1508 C1514 1.383 . S
C1509 C1505 1.495 . S
C1509 H1515 0.959 . S
C1509 H1516 0.961 . S
C1509 H1517 0.960 . S
C1510 C1508 1.381 . S
C1510 C1511 1.394 . S
C1510 H1518 0.930 . S
C1511 C1510 1.394 . S
C1511 C1512 1.383 . S
C1511 H1519 0.929 . S
C1512 C1511 1.383 . S
C1512 C1513 1.377 . S
C1513 H1497 0.930 . S
C1513 C1512 1.377 . S
C1513 C1514 1.379 . S
C1514 H1498 0.931 . S
C1514 C1508 1.383 . S
C1514 C1513 1.379 . S
H1515 C1509 0.959 . S
H1516 C1509 0.961 . S
H1517 C1509 0.960 . S
H1518 C1510 0.930 . S
H1519 C1511 0.929 . S
H1520 C1528 0.929 . S
H1521 C1530 0.930 . S
H1522 C1532 0.930 . S
H1523 C1535 0.929 . S
H1524 C1538 0.930 . S
H1525 C1540 0.960 . S
H1526 C1540 0.960 . S
H1527 C1540 0.960 . S
C1528 H1520 0.929 . S
C1528 C1529 1.377 . S
C1528 C1530 1.384 . S
C1529 C1528 1.377 . S
C1529 C1535 1.390 . S
C1530 H1521 0.930 . S
C1530 C1528 1.384 . S
C1530 C1531 1.372 . S
C1531 C1530 1.372 . S
C1531 C1532 1.400 . S
C1531 C1536 1.490 . S
C1532 H1522 0.930 . S
C1532 C1531 1.400 . S
C1532 C1535 1.386 . S
H1533 C1549 0.930 . S
H1534 C1550 0.931 . S
C1535 H1523 0.929 . S
C1535 C1529 1.390 . S
C1535 C1532 1.386 . S
C1536 C1531 1.490 . S
C1536 C1538 1.395 . S
C1536 C1539 1.403 . S
H1537 C1543 0.930 . S
C1538 H1524 0.930 . S
C1538 C1536 1.395 . S
C1538 C1541 1.403 . S
C1539 C1536 1.403 . S
C1539 C1540 1.524 . S
C1539 C1543 1.400 . S
C1540 H1525 0.960 . S
C1540 H1526 0.960 . S
C1540 H1527 0.960 . S
C1540 C1539 1.524 . S
C1541 C1538 1.403 . S
C1541 C1542 1.392 . S
C1541 C1545 1.495 . S
C1542 C1541 1.392 . S
C1542 C1543 1.385 . S
C1542 C1544 1.478 . S
C1543 H1537 0.930 . S
C1543 C1539 1.400 . S
C1543 C1542 1.385 . S
C1544 C1542 1.478 . S
C1544 C1546 1.381 . S
C1544 C1550 1.383 . S
C1545 C1541 1.495 . S
C1545 H1551 0.959 . S
C1545 H1552 0.961 . S
C1545 H1553 0.960 . S
C1546 C1544 1.381 . S
C1546 C1547 1.394 . S
C1546 H1554 0.930 . S
C1547 C1546 1.394 . S
C1547 C1548 1.383 . S
C1547 H1555 0.929 . S
C1548 C1547 1.383 . S
C1548 C1549 1.377 . S
C1549 H1533 0.930 . S
C1549 C1548 1.377 . S
C1549 C1550 1.379 . S
C1550 H1534 0.931 . S
C1550 C1544 1.383 . S
C1550 C1549 1.379 . S
H1551 C1545 0.959 . S
H1552 C1545 0.961 . S
H1553 C1545 0.960 . S
H1554 C1546 0.930 . S
H1555 C1547 0.929 . S
H1556 C1564 0.929 . S
H1557 C1566 0.930 . S
H1558 C1568 0.930 . S
H1559 C1571 0.929 . S
H1560 C1574 0.930 . S
H1561 C1576 0.960 . S
H1562 C1576 0.960 . S
H1563 C1576 0.960 . S
C1564 H1556 0.929 . S
C1564 C1565 1.377 . S
C1564 C1566 1.384 . S
C1565 C1564 1.377 . S
C1565 C1571 1.390 . S
C1566 H1557 0.930 . S
C1566 C1564 1.384 . S
C1566 C1567 1.372 . S
C1567 C1566 1.372 . S
C1567 C1568 1.400 . S
C1567 C1572 1.490 . S
C1568 H1558 0.930 . S
C1568 C1567 1.400 . S
C1568 C1571 1.386 . S
H1569 C1585 0.930 . S
H1570 C1586 0.931 . S
C1571 H1559 0.929 . S
C1571 C1565 1.390 . S
C1571 C1568 1.386 . S
C1572 C1567 1.490 . S
C1572 C1574 1.395 . S
C1572 C1575 1.403 . S
H1573 C1579 0.930 . S
C1574 H1560 0.930 . S
C1574 C1572 1.395 . S
C1574 C1577 1.403 . S
C1575 C1572 1.403 . S
C1575 C1576 1.524 . S
C1575 C1579 1.400 . S
C1576 H1561 0.960 . S
C1576 H1562 0.960 . S
C1576 H1563 0.960 . S
C1576 C1575 1.524 . S
C1577 C1574 1.403 . S
C1577 C1578 1.392 . S
C1577 C1581 1.495 . S
C1578 C1577 1.392 . S
C1578 C1579 1.385 . S
C1578 C1580 1.478 . S
C1579 H1573 0.930 . S
C1579 C1575 1.400 . S
C1579 C1578 1.385 . S
C1580 C1578 1.478 . S
C1580 C1582 1.381 . S
C1580 C1586 1.383 . S
C1581 C1577 1.495 . S
C1581 H1587 0.959 . S
C1581 H1588 0.961 . S
C1581 H1589 0.960 . S
C1582 C1580 1.381 . S
C1582 C1583 1.394 . S
C1582 H1590 0.930 . S
C1583 C1582 1.394 . S
C1583 C1584 1.383 . S
C1583 H1591 0.929 . S
C1584 C1583 1.383 . S
C1584 C1585 1.377 . S
C1585 H1569 0.930 . S
C1585 C1584 1.377 . S
C1585 C1586 1.379 . S
C1586 H1570 0.931 . S
C1586 C1580 1.383 . S
C1586 C1585 1.379 . S
H1587 C1581 0.959 . S
H1588 C1581 0.961 . S
H1589 C1581 0.960 . S
H1590 C1582 0.930 . S
H1591 C1583 0.929 . S
H1592 C1600 0.929 . S
H1593 C1602 0.930 . S
H1594 C1604 0.930 . S
H1595 C1607 0.929 . S
H1596 C1610 0.930 . S
H1597 C1612 0.960 . S
H1598 C1612 0.960 . S
H1599 C1612 0.960 . S
C1600 H1592 0.929 . S
C1600 C1601 1.377 . S
C1600 C1602 1.384 . S
C1601 C1600 1.377 . S
C1601 C1607 1.390 . S
C1602 H1593 0.930 . S
C1602 C1600 1.384 . S
C1602 C1603 1.372 . S
C1603 C1602 1.372 . S
C1603 C1604 1.400 . S
C1603 C1608 1.490 . S
C1604 H1594 0.930 . S
C1604 C1603 1.400 . S
C1604 C1607 1.386 . S
H1605 C1621 0.930 . S
H1606 C1622 0.931 . S
C1607 H1595 0.929 . S
C1607 C1601 1.390 . S
C1607 C1604 1.386 . S
C1608 C1603 1.490 . S
C1608 C1610 1.395 . S
C1608 C1611 1.403 . S
H1609 C1615 0.930 . S
C1610 H1596 0.930 . S
C1610 C1608 1.395 . S
C1610 C1613 1.403 . S
C1611 C1608 1.403 . S
C1611 C1612 1.524 . S
C1611 C1615 1.400 . S
C1612 H1597 0.960 . S
C1612 H1598 0.960 . S
C1612 H1599 0.960 . S
C1612 C1611 1.524 . S
C1613 C1610 1.403 . S
C1613 C1614 1.392 . S
C1613 C1617 1.495 . S
C1614 C1613 1.392 . S
C1614 C1615 1.385 . S
C1614 C1616 1.478 . S
C1615 H1609 0.930 . S
C1615 C1611 1.400 . S
C1615 C1614 1.385 . S
C1616 C1614 1.478 . S
C1616 C1618 1.381 . S
C1616 C1622 1.383 . S
C1617 C1613 1.495 . S
C1617 H1623 0.959 . S
C1617 H1624 0.961 . S
C1617 H1625 0.960 . S
C1618 C1616 1.381 . S
C1618 C1619 1.394 . S
C1618 H1626 0.930 . S
C1619 C1618 1.394 . S
C1619 C1620 1.383 . S
C1619 H1627 0.929 . S
C1620 C1619 1.383 . S
C1620 C1621 1.377 . S
C1621 H1605 0.930 . S
C1621 C1620 1.377 . S
C1621 C1622 1.379 . S
C1622 H1606 0.931 . S
C1622 C1616 1.383 . S
C1622 C1621 1.379 . S
H1623 C1617 0.959 . S
H1624 C1617 0.961 . S
H1625 C1617 0.960 . S
H1626 C1618 0.930 . S
H1627 C1619 0.929 . S
H1628 C1636 0.929 . S
H1629 C1638 0.930 . S
H1630 C1640 0.930 . S
H1631 C1643 0.929 . S
H1632 C1646 0.930 . S
H1633 C1648 0.960 . S
H1634 C1648 0.960 . S
H1635 C1648 0.960 . S
C1636 H1628 0.929 . S
C1636 C1637 1.377 . S
C1636 C1638 1.384 . S
C1637 C1636 1.377 . S
C1637 C1643 1.390 . S
C1638 H1629 0.930 . S
C1638 C1636 1.384 . S
C1638 C1639 1.372 . S
C1639 C1638 1.372 . S
C1639 C1640 1.400 . S
C1639 C1644 1.490 . S
C1640 H1630 0.930 . S
C1640 C1639 1.400 . S
C1640 C1643 1.386 . S
H1641 C1657 0.930 . S
H1642 C1658 0.931 . S
C1643 H1631 0.929 . S
C1643 C1637 1.390 . S
C1643 C1640 1.386 . S
C1644 C1639 1.490 . S
C1644 C1646 1.395 . S
C1644 C1647 1.403 . S
H1645 C1651 0.930 . S
C1646 H1632 0.930 . S
C1646 C1644 1.395 . S
C1646 C1649 1.403 . S
C1647 C1644 1.403 . S
C1647 C1648 1.524 . S
C1647 C1651 1.400 . S
C1648 H1633 0.960 . S
C1648 H1634 0.960 . S
C1648 H1635 0.960 . S
C1648 C1647 1.524 . S
C1649 C1646 1.403 . S
C1649 C1650 1.392 . S
C1649 C1653 1.495 . S
C1650 C1649 1.392 . S
C1650 C1651 1.385 . S
C1650 C1652 1.478 . S
C1651 H1645 0.930 . S
C1651 C1647 1.400 . S
C1651 C1650 1.385 . S
C1652 C1650 1.478 . S
C1652 C1654 1.381 . S
C1652 C1658 1.383 . S
C1653 C1649 1.495 . S
C1653 H1659 0.959 . S
C1653 H1660 0.961 . S
C1653 H1661 0.960 . S
C1654 C1652 1.381 . S
C1654 C1655 1.394 . S
C1654 H1662 0.930 . S
C1655 C1654 1.394 . S
C1655 C1656 1.383 . S
C1655 H1663 0.929 . S
C1656 C1655 1.383 . S
C1656 C1657 1.377 . S
C1657 H1641 0.930 . S
C1657 C1656 1.377 . S
C1657 C1658 1.379 . S
C1658 H1642 0.931 . S
C1658 C1652 1.383 . S
C1658 C1657 1.379 . S
H1659 C1653 0.959 . S
H1660 C1653 0.961 . S
H1661 C1653 0.960 . S
H1662 C1654 0.930 . S
H1663 C1655 0.929 . S
H1664 C1672 0.929 . S
H1665 C1674 0.930 . S
H1666 C1676 0.930 . S
H1667 C1679 0.929 . S
H1668 C1682 0.930 . S
H1669 C1684 0.960 . S
H1670 C1684 0.960 . S
H1671 C1684 0.960 . S
C1672 H1664 0.929 . S
C1672 C1673 1.377 . S
C1672 C1674 1.384 . S
C1673 C1672 1.377 . S
C1673 C1679 1.390 . S
C1674 H1665 0.930 . S
C1674 C1672 1.384 . S
C1674 C1675 1.372 . S
C1675 C1674 1.372 . S
C1675 C1676 1.400 . S
C1675 C1680 1.490 . S
C1676 H1666 0.930 . S
C1676 C1675 1.400 . S
C1676 C1679 1.386 . S
H1677 C1693 0.930 . S
H1678 C1694 0.931 . S
C1679 H1667 0.929 . S
C1679 C1673 1.390 . S
C1679 C1676 1.386 . S
C1680 C1675 1.490 . S
C1680 C1682 1.395 . S
C1680 C1683 1.403 . S
H1681 C1687 0.930 . S
C1682 H1668 0.930 . S
C1682 C1680 1.395 . S
C1682 C1685 1.403 . S
C1683 C1680 1.403 . S
C1683 C1684 1.524 . S
C1683 C1687 1.400 . S
C1684 H1669 0.960 . S
C1684 H1670 0.960 . S
C1684 H1671 0.960 . S
C1684 C1683 1.524 . S
C1685 C1682 1.403 . S
C1685 C1686 1.392 . S
C1685 C1689 1.495 . S
C1686 C1685 1.392 . S
C1686 C1687 1.385 . S
C1686 C1688 1.478 . S
C1687 H1681 0.930 . S
C1687 C1683 1.400 . S
C1687 C1686 1.385 . S
C1688 C1686 1.478 . S
C1688 C1690 1.381 . S
C1688 C1694 1.383 . S
C1689 C1685 1.495 . S
C1689 H1695 0.959 . S
C1689 H1696 0.961 . S
C1689 H1697 0.960 . S
C1690 C1688 1.381 . S
C1690 C1691 1.394 . S
C1690 H1698 0.930 . S
C1691 C1690 1.394 . S
C1691 C1692 1.383 . S
C1691 H1699 0.929 . S
C1692 C1691 1.383 . S
C1692 C1693 1.377 . S
C1693 H1677 0.930 . S
C1693 C1692 1.377 . S
C1693 C1694 1.379 . S
C1694 H1678 0.931 . S
C1694 C1688 1.383 . S
C1694 C1693 1.379 . S
H1695 C1689 0.959 . S
H1696 C1689 0.961 . S
H1697 C1689 0.960 . S
H1698 C1690 0.930 . S
H1699 C1691 0.929 . S
H1700 C1708 0.929 . S
H1701 C1710 0.930 . S
H1702 C1712 0.930 . S
H1703 C1715 0.929 . S
H1704 C1718 0.930 . S
H1705 C1720 0.960 . S
H1706 C1720 0.960 . S
H1707 C1720 0.960 . S
C1708 H1700 0.929 . S
C1708 C1709 1.377 . S
C1708 C1710 1.384 . S
C1709 C1708 1.377 . S
C1709 C1715 1.390 . S
C1710 H1701 0.930 . S
C1710 C1708 1.384 . S
C1710 C1711 1.372 . S
C1711 C1710 1.372 . S
C1711 C1712 1.400 . S
C1711 C1716 1.490 . S
C1712 H1702 0.930 . S
C1712 C1711 1.400 . S
C1712 C1715 1.386 . S
H1713 C1729 0.930 . S
H1714 C1730 0.931 . S
C1715 H1703 0.929 . S
C1715 C1709 1.390 . S
C1715 C1712 1.386 . S
C1716 C1711 1.490 . S
C1716 C1718 1.395 . S
C1716 C1719 1.403 . S
H1717 C1723 0.930 . S
C1718 H1704 0.930 . S
C1718 C1716 1.395 . S
C1718 C1721 1.403 . S
C1719 C1716 1.403 . S
C1719 C1720 1.524 . S
C1719 C1723 1.400 . S
C1720 H1705 0.960 . S
C1720 H1706 0.960 . S
C1720 H1707 0.960 . S
C1720 C1719 1.524 . S
C1721 C1718 1.403 . S
C1721 C1722 1.392 . S
C1721 C1725 1.495 . S
C1722 C1721 1.392 . S
C1722 C1723 1.385 . S
C1722 C1724 1.478 . S
C1723 H1717 0.930 . S
C1723 C1719 1.400 . S
C1723 C1722 1.385 . S
C1724 C1722 1.478 . S
C1724 C1726 1.381 . S
C1724 C1730 1.383 . S
C1725 C1721 1.495 . S
C1725 H1731 0.959 . S
C1725 H1732 0.961 . S
C1725 H1733 0.960 . S
C1726 C1724 1.381 . S
C1726 C1727 1.394 . S
C1726 H1734 0.930 . S
C1727 C1726 1.394 . S
C1727 C1728 1.383 . S
C1727 H1735 0.929 . S
C1728 C1727 1.383 . S
C1728 C1729 1.377 . S
C1729 H1713 0.930 . S
C1729 C1728 1.377 . S
C1729 C1730 1.379 . S
C1730 H1714 0.931 . S
C1730 C1724 1.383 . S
C1730 C1729 1.379 . S
H1731 C1725 0.959 . S
H1732 C1725 0.961 . S
H1733 C1725 0.960 . S
H1734 C1726 0.930 . S
H1735 C1727 0.929 . S
H1736 C1744 0.929 . S
H1737 C1746 0.930 . S
H1738 C1748 0.930 . S
H1739 C1751 0.929 . S
H1740 C1754 0.930 . S
H1741 C1756 0.960 . S
H1742 C1756 0.960 . S
H1743 C1756 0.960 . S
C1744 H1736 0.929 . S
C1744 C1745 1.377 . S
C1744 C1746 1.384 . S
C1745 C1744 1.377 . S
C1745 C1751 1.390 . S
C1746 H1737 0.930 . S
C1746 C1744 1.384 . S
C1746 C1747 1.372 . S
C1747 C1746 1.372 . S
C1747 C1748 1.400 . S
C1747 C1752 1.490 . S
C1748 H1738 0.930 . S
C1748 C1747 1.400 . S
C1748 C1751 1.386 . S
H1749 C1765 0.930 . S
H1750 C1766 0.931 . S
C1751 H1739 0.929 . S
C1751 C1745 1.390 . S
C1751 C1748 1.386 . S
C1752 C1747 1.490 . S
C1752 C1754 1.395 . S
C1752 C1755 1.403 . S
H1753 C1759 0.930 . S
C1754 H1740 0.930 . S
C1754 C1752 1.395 . S
C1754 C1757 1.403 . S
C1755 C1752 1.403 . S
C1755 C1756 1.524 . S
C1755 C1759 1.400 . S
C1756 H1741 0.960 . S
C1756 H1742 0.960 . S
C1756 H1743 0.960 . S
C1756 C1755 1.524 . S
C1757 C1754 1.403 . S
C1757 C1758 1.392 . S
C1757 C1761 1.495 . S
C1758 C1757 1.392 . S
C1758 C1759 1.385 . S
C1758 C1760 1.478 . S
C1759 H1753 0.930 . S
C1759 C1755 1.400 . S
C1759 C1758 1.385 . S
C1760 C1758 1.478 . S
C1760 C1762 1.381 . S
C1760 C1766 1.383 . S
C1761 C1757 1.495 . S
C1761 H1767 0.959 . S
C1761 H1768 0.961 . S
C1761 H1769 0.960 . S
C1762 C1760 1.381 . S
C1762 C1763 1.394 . S
C1762 H1770 0.930 . S
C1763 C1762 1.394 . S
C1763 C1764 1.383 . S
C1763 H1771 0.929 . S
C1764 C1763 1.383 . S
C1764 C1765 1.377 . S
C1765 H1749 0.930 . S
C1765 C1764 1.377 . S
C1765 C1766 1.379 . S
C1766 H1750 0.931 . S
C1766 C1760 1.383 . S
C1766 C1765 1.379 . S
H1767 C1761 0.959 . S
H1768 C1761 0.961 . S
H1769 C1761 0.960 . S
H1770 C1762 0.930 . S
H1771 C1763 0.929 . S
H1772 C1780 0.929 . S
H1773 C1782 0.930 . S
H1774 C1784 0.930 . S
H1775 C1787 0.929 . S
H1776 C1790 0.930 . S
H1777 C1792 0.960 . S
H1778 C1792 0.960 . S
H1779 C1792 0.960 . S
C1780 H1772 0.929 . S
C1780 C1781 1.377 . S
C1780 C1782 1.384 . S
C1781 C1780 1.377 . S
C1781 C1787 1.390 . S
C1782 H1773 0.930 . S
C1782 C1780 1.384 . S
C1782 C1783 1.372 . S
C1783 C1782 1.372 . S
C1783 C1784 1.400 . S
C1783 C1788 1.490 . S
C1784 H1774 0.930 . S
C1784 C1783 1.400 . S
C1784 C1787 1.386 . S
H1785 C1801 0.930 . S
H1786 C1802 0.931 . S
C1787 H1775 0.929 . S
C1787 C1781 1.390 . S
C1787 C1784 1.386 . S
C1788 C1783 1.490 . S
C1788 C1790 1.395 . S
C1788 C1791 1.403 . S
H1789 C1795 0.930 . S
C1790 H1776 0.930 . S
C1790 C1788 1.395 . S
C1790 C1793 1.403 . S
C1791 C1788 1.403 . S
C1791 C1792 1.524 . S
C1791 C1795 1.400 . S
C1792 H1777 0.960 . S
C1792 H1778 0.960 . S
C1792 H1779 0.960 . S
C1792 C1791 1.524 . S
C1793 C1790 1.403 . S
C1793 C1794 1.392 . S
C1793 C1797 1.495 . S
C1794 C1793 1.392 . S
C1794 C1795 1.385 . S
C1794 C1796 1.478 . S
C1795 H1789 0.930 . S
C1795 C1791 1.400 . S
C1795 C1794 1.385 . S
C1796 C1794 1.478 . S
C1796 C1798 1.381 . S
C1796 C1802 1.383 . S
C1797 C1793 1.495 . S
C1797 H1803 0.959 . S
C1797 H1804 0.961 . S
C1797 H1805 0.960 . S
C1798 C1796 1.381 . S
C1798 C1799 1.394 . S
C1798 H1806 0.930 . S
C1799 C1798 1.394 . S
C1799 C1800 1.383 . S
C1799 H1807 0.929 . S
C1800 C1799 1.383 . S
C1800 C1801 1.377 . S
C1801 H1785 0.930 . S
C1801 C1800 1.377 . S
C1801 C1802 1.379 . S
C1802 H1786 0.931 . S
C1802 C1796 1.383 . S
C1802 C1801 1.379 . S
H1803 C1797 0.959 . S
H1804 C1797 0.961 . S
H1805 C1797 0.960 . S
H1806 C1798 0.930 . S
H1807 C1799 0.929 . S
H1808 C1816 0.929 . S
H1809 C1818 0.930 . S
H1810 C1820 0.930 . S
H1811 C1823 0.929 . S
H1812 C1826 0.930 . S
H1813 C1828 0.927 1_556 S
H1814 C1828 0.960 . S
H1815 C1828 0.960 . S
C1816 H1808 0.929 . S
C1816 C1817 1.377 . S
C1816 C1818 1.384 . S
C1817 C1816 1.377 . S
C1817 C1823 1.390 . S
C1818 H1809 0.930 . S
C1818 C1816 1.384 . S
C1818 C1819 1.372 . S
C1819 C1818 1.372 . S
C1819 C1820 1.400 . S
C1819 C1824 1.490 . S
C1820 H1810 0.930 . S
C1820 C1819 1.400 . S
C1820 C1823 1.386 . S
H1821 C1837 0.930 . S
H1822 C1838 0.931 . S
C1823 H1811 0.929 . S
C1823 C1817 1.390 . S
C1823 C1820 1.386 . S
C1824 C1819 1.490 . S
C1824 C1826 1.395 . S
C1824 C1827 1.403 . S
H1825 C1831 0.930 . S
C1826 H1812 0.930 . S
C1826 C1824 1.395 . S
C1826 C1829 1.403 1_554 S
C1827 C1824 1.403 . S
C1827 C1828 1.524 . S
C1827 C1831 1.400 1_554 S
C1828 H1813 0.927 1_554 S
C1828 H1814 0.960 . S
C1828 H1815 0.960 . S
C1828 C1827 1.524 . S
C1829 C1826 1.403 1_556 S
C1829 C1830 1.392 . S
C1829 C1833 1.495 . S
C1830 C1829 1.392 . S
C1830 C1831 1.385 . S
C1830 C1832 1.478 . S
C1831 H1825 0.930 . S
C1831 C1827 1.400 1_556 S
C1831 C1830 1.385 . S
C1832 C1830 1.478 . S
C1832 C1834 1.381 . S
C1832 C1838 1.383 . S
C1833 C1829 1.495 . S
C1833 H1839 0.930 1_556 S
C1833 H1840 0.961 . S
C1833 H1841 0.960 . S
C1834 C1832 1.381 . S
C1834 C1835 1.394 . S
C1834 H1842 0.930 . S
C1835 C1834 1.394 . S
C1835 C1836 1.383 . S
C1835 H1843 0.929 . S
C1836 C1835 1.383 . S
C1836 C1837 1.377 . S
C1837 H1821 0.930 . S
C1837 C1836 1.377 . S
C1837 C1838 1.379 . S
C1838 H1822 0.931 . S
C1838 C1832 1.383 . S
C1838 C1837 1.379 . S
H1839 C1833 0.930 1_554 S
H1840 C1833 0.961 . S
H1841 C1833 0.960 . S
H1842 C1834 0.930 . S
H1843 C1835 0.929 . S
H1844 C1852 0.929 . S
H1845 C1854 0.930 . S
H1846 C1856 0.930 . S
H1847 C1859 0.929 . S
H1848 C1862 0.930 . S
H1849 C1864 0.960 . S
H1850 C1864 0.960 . S
H1851 C1864 0.960 . S
C1852 H1844 0.929 . S
C1852 C1853 1.377 . S
C1852 C1854 1.384 . S
C1853 C1852 1.377 . S
C1853 C1859 1.390 . S
C1854 H1845 0.930 . S
C1854 C1852 1.384 . S
C1854 C1855 1.372 . S
C1855 C1854 1.372 . S
C1855 C1856 1.400 . S
C1855 C1860 1.490 . S
C1856 H1846 0.930 . S
C1856 C1855 1.400 . S
C1856 C1859 1.386 . S
H1857 C1873 0.930 . S
H1858 C1874 0.931 . S
C1859 H1847 0.929 . S
C1859 C1853 1.390 . S
C1859 C1856 1.386 . S
C1860 C1855 1.490 . S
C1860 C1862 1.395 . S
C1860 C1863 1.403 . S
H1861 C1867 0.930 . S
C1862 H1848 0.930 . S
C1862 C1860 1.395 . S
C1862 C1865 1.403 . S
C1863 C1860 1.403 . S
C1863 C1864 1.524 . S
C1863 C1867 1.400 . S
C1864 H1849 0.960 . S
C1864 H1850 0.960 . S
C1864 H1851 0.960 . S
C1864 C1863 1.524 . S
C1865 C1862 1.403 . S
C1865 C1866 1.392 . S
C1865 C1869 1.495 . S
C1866 C1865 1.392 . S
C1866 C1867 1.385 . S
C1866 C1868 1.478 . S
C1867 H1861 0.930 . S
C1867 C1863 1.400 . S
C1867 C1866 1.385 . S
C1868 C1866 1.478 . S
C1868 C1870 1.381 . S
C1868 C1874 1.383 . S
C1869 C1865 1.495 . S
C1869 H1875 0.959 . S
C1869 H1876 0.961 . S
C1869 H1877 0.960 . S
C1870 C1868 1.381 . S
C1870 C1871 1.394 . S
C1870 H1878 0.930 . S
C1871 C1870 1.394 . S
C1871 C1872 1.383 . S
C1871 H1879 0.929 . S
C1872 C1871 1.383 . S
C1872 C1873 1.377 . S
C1873 H1857 0.930 . S
C1873 C1872 1.377 . S
C1873 C1874 1.379 . S
C1874 H1858 0.931 . S
C1874 C1868 1.383 . S
C1874 C1873 1.379 . S
H1875 C1869 0.959 . S
H1876 C1869 0.961 . S
H1877 C1869 0.960 . S
H1878 C1870 0.930 . S
H1879 C1871 0.929 . S
H1880 C1888 0.932 1_455 S
H1881 C1890 0.943 . S
H1882 C1892 0.930 . S
H1883 C1895 0.929 . S
H1884 C1898 0.930 . S
H1885 C1900 0.960 . S
H1886 C1900 0.960 . S
H1887 C1900 0.960 . S
C1888 H1880 0.932 1_655 S
C1888 C1889 1.375 . S
C1888 C1890 1.384 1_655 S
C1889 C1888 1.375 . S
C1889 C1895 1.390 . S
C1890 H1881 0.943 . S
C1890 C1888 1.384 1_455 S
C1890 C1891 1.360 1_455 S
C1891 C1890 1.360 1_655 S
C1891 C1892 1.400 . S
C1891 C1896 1.490 . S
C1892 H1882 0.930 . S
C1892 C1891 1.400 . S
C1892 C1895 1.386 . S
H1893 C1909 0.930 . S
H1894 C1910 0.931 . S
C1895 H1883 0.929 . S
C1895 C1889 1.390 . S
C1895 C1892 1.386 . S
C1896 C1891 1.490 . S
C1896 C1898 1.395 1_655 S
C1896 C1899 1.403 . S
H1897 C1903 0.930 . S
C1898 H1884 0.930 . S
C1898 C1896 1.395 1_455 S
C1898 C1901 1.403 1_554 S
C1899 C1896 1.403 . S
C1899 C1900 1.524 . S
C1899 C1903 1.400 1_554 S
C1900 H1885 0.960 . S
C1900 H1886 0.960 . S
C1900 H1887 0.960 . S
C1900 C1899 1.524 . S
C1901 C1898 1.403 1_556 S
C1901 C1902 1.392 1_455 S
C1901 C1905 1.495 . S
C1902 C1901 1.392 1_655 S
C1902 C1903 1.385 . S
C1902 C1904 1.478 . S
C1903 H1897 0.930 . S
C1903 C1899 1.400 1_556 S
C1903 C1902 1.385 . S
C1904 C1902 1.478 . S
C1904 C1906 1.381 1_655 S
C1904 C1910 1.383 . S
C1905 C1901 1.495 . S
C1905 H1911 0.959 . S
C1905 H1912 0.961 . S
C1905 H1913 0.960 . S
C1906 C1904 1.381 1_455 S
C1906 C1907 1.397 . S
C1906 H1914 0.930 . S
C1907 C1906 1.397 . S
C1907 C1908 1.362 1_455 S
C1907 H1915 0.949 . S
C1908 C1907 1.362 1_655 S
C1908 C1909 1.377 . S
C1909 H1893 0.930 . S
C1909 C1908 1.377 . S
C1909 C1910 1.379 . S
C1910 H1894 0.931 . S
C1910 C1904 1.383 . S
C1910 C1909 1.379 . S
H1911 C1905 0.959 . S
H1912 C1905 0.961 . S
H1913 C1905 0.960 . S
H1914 C1906 0.930 . S
H1915 C1907 0.949 . S
H1916 C1924 0.929 . S
H1917 C1926 0.930 . S
H1918 C1928 0.930 . S
H1919 C1931 0.929 . S
H1920 C1934 0.930 . S
H1921 C1936 0.960 . S
H1922 C1936 0.960 . S
H1923 C1936 0.960 . S
C1924 H1916 0.929 . S
C1924 C1925 1.377 . S
C1924 C1926 1.384 . S
C1925 C1924 1.377 . S
C1925 C1931 1.390 1_565 S
C1926 H1917 0.930 . S
C1926 C1924 1.384 . S
C1926 C1927 1.372 . S
C1927 C1926 1.372 . S
C1927 C1928 1.400 1_565 S
C1927 C1932 1.490 . S
C1928 H1918 0.930 . S
C1928 C1927 1.400 1_545 S
C1928 C1931 1.386 . S
H1929 C1945 0.930 . S
H1930 C1946 0.958 . S
C1931 H1919 0.929 . S
C1931 C1925 1.390 1_545 S
C1931 C1928 1.386 . S
C1932 C1927 1.490 . S
C1932 C1934 1.395 . S
C1932 C1935 1.409 . S
H1933 C1939 0.930 1_545 S
C1934 H1920 0.930 . S
C1934 C1932 1.395 . S
C1934 C1937 1.403 . S
C1935 C1932 1.409 . S
C1935 C1936 1.518 1_565 S
C1935 C1939 1.400 . S
C1936 H1921 0.960 . S
C1936 H1922 0.960 . S
C1936 H1923 0.960 . S
C1936 C1935 1.518 1_545 S
C1937 C1934 1.403 . S
C1937 C1938 1.392 . S
C1937 C1941 1.495 . S
C1938 C1937 1.392 . S
C1938 C1939 1.385 . S
C1938 C1940 1.478 . S
C1939 H1933 0.930 1_565 S
C1939 C1935 1.400 . S
C1939 C1938 1.385 . S
C1940 C1938 1.478 . S
C1940 C1942 1.381 . S
C1940 C1946 1.355 1_565 S
C1941 C1937 1.495 . S
C1941 H1947 0.959 . S
C1941 H1948 0.961 . S
C1941 H1949 0.960 . S
C1942 C1940 1.381 . S
C1942 C1943 1.394 . S
C1942 H1950 0.930 . S
C1943 C1942 1.394 . S
C1943 C1944 1.383 . S
C1943 H1951 0.929 . S
C1944 C1943 1.383 . S
C1944 C1945 1.377 1_565 S
C1945 H1929 0.930 . S
C1945 C1944 1.377 1_545 S
C1945 C1946 1.382 . S
C1946 H1930 0.958 . S
C1946 C1940 1.355 1_545 S
C1946 C1945 1.382 . S
H1947 C1941 0.959 . S
H1948 C1941 0.961 . S
H1949 C1941 0.960 . S
H1950 C1942 0.930 . S
H1951 C1943 0.929 . S
H1952 C1960 0.929 . S
H1953 C1962 0.930 . S
H1954 C1964 0.930 . S
H1955 C1967 0.929 . S
H1956 C1970 0.930 . S
H1957 C1972 0.960 . S
H1958 C1972 0.960 . S
H1959 C1972 0.960 . S
C1960 H1952 0.929 . S
C1960 C1961 1.377 . S
C1960 C1962 1.384 . S
C1961 C1960 1.377 . S
C1961 C1967 1.390 . S
C1962 H1953 0.930 . S
C1962 C1960 1.384 . S
C1962 C1963 1.372 . S
C1963 C1962 1.372 . S
C1963 C1964 1.400 . S
C1963 C1968 1.490 . S
C1964 H1954 0.930 . S
C1964 C1963 1.400 . S
C1964 C1967 1.386 . S
H1965 C1981 0.930 . S
H1966 C1982 0.931 . S
C1967 H1955 0.929 . S
C1967 C1961 1.390 . S
C1967 C1964 1.386 . S
C1968 C1963 1.490 . S
C1968 C1970 1.395 . S
C1968 C1971 1.403 . S
H1969 C1975 0.930 . S
C1970 H1956 0.930 . S
C1970 C1968 1.395 . S
C1970 C1973 1.403 1_556 S
C1971 C1968 1.403 . S
C1971 C1972 1.524 . S
C1971 C1975 1.400 1_556 S
C1972 H1957 0.960 . S
C1972 H1958 0.960 . S
C1972 H1959 0.960 . S
C1972 C1971 1.524 . S
C1973 C1970 1.403 1_554 S
C1973 C1974 1.392 . S
C1973 C1977 1.495 . S
C1974 C1973 1.392 . S
C1974 C1975 1.385 . S
C1974 C1976 1.478 . S
C1975 H1969 0.930 . S
C1975 C1971 1.400 1_554 S
C1975 C1974 1.385 . S
C1976 C1974 1.478 . S
C1976 C1978 1.381 . S
C1976 C1982 1.383 . S
C1977 C1973 1.495 . S
C1977 H1983 0.959 . S
C1977 H1984 0.961 . S
C1977 H1985 0.960 . S
C1978 C1976 1.381 . S
C1978 C1979 1.394 . S
C1978 H1986 0.930 . S
C1979 C1978 1.394 . S
C1979 C1980 1.383 . S
C1979 H1987 0.929 . S
C1980 C1979 1.383 . S
C1980 C1981 1.377 . S
C1981 H1965 0.930 . S
C1981 C1980 1.377 . S
C1981 C1982 1.379 . S
C1982 H1966 0.931 . S
C1982 C1976 1.383 . S
C1982 C1981 1.379 . S
H1983 C1977 0.959 . S
H1984 C1977 0.961 . S
H1985 C1977 0.960 . S
H1986 C1978 0.930 . S
H1987 C1979 0.929 . S
H1988 C1996 0.929 . S
H1989 C1998 0.930 . S
H1990 C2000 0.930 . S
H1991 C2003 0.929 . S
H1992 C2006 0.930 . S
H1993 C2008 0.960 . S
H1994 C2008 0.960 . S
H1995 C2008 0.960 . S
C1996 H1988 0.929 . S
C1996 C1997 1.377 . S
C1996 C1998 1.384 . S
C1997 C1996 1.377 . S
C1997 C2003 1.390 . S
C1998 H1989 0.930 . S
C1998 C1996 1.384 . S
C1998 C1999 1.372 . S
C1999 C1998 1.372 . S
C1999 C2000 1.400 . S
C1999 C2004 1.490 . S
C2000 H1990 0.930 . S
C2000 C1999 1.400 . S
C2000 C2003 1.386 . S
H2001 C2017 0.930 . S
H2002 C2018 0.931 . S
C2003 H1991 0.929 . S
C2003 C1997 1.390 . S
C2003 C2000 1.386 . S
C2004 C1999 1.490 . S
C2004 C2006 1.395 . S
C2004 C2007 1.403 . S
H2005 C2011 0.930 . S
C2006 H1992 0.930 . S
C2006 C2004 1.395 . S
C2006 C2009 1.403 . S
C2007 C2004 1.403 . S
C2007 C2008 1.524 . S
C2007 C2011 1.400 . S
C2008 H1993 0.960 . S
C2008 H1994 0.960 . S
C2008 H1995 0.960 . S
C2008 C2007 1.524 . S
C2009 C2006 1.403 . S
C2009 C2010 1.392 . S
C2009 C2013 1.495 . S
C2010 C2009 1.392 . S
C2010 C2011 1.385 . S
C2010 C2012 1.478 . S
C2011 H2005 0.930 . S
C2011 C2007 1.400 . S
C2011 C2010 1.385 . S
C2012 C2010 1.478 . S
C2012 C2014 1.381 . S
C2012 C2018 1.383 . S
C2013 C2009 1.495 . S
C2013 H2019 0.959 . S
C2013 H2020 0.961 . S
C2013 H2021 0.960 . S
C2014 C2012 1.381 . S
C2014 C2015 1.394 . S
C2014 H2022 0.930 . S
C2015 C2014 1.394 . S
C2015 C2016 1.383 . S
C2015 H2023 0.929 . S
C2016 C2015 1.383 . S
C2016 C2017 1.377 . S
C2017 H2001 0.930 . S
C2017 C2016 1.377 . S
C2017 C2018 1.379 . S
C2018 H2002 0.931 . S
C2018 C2012 1.383 . S
C2018 C2017 1.379 . S
H2019 C2013 0.959 . S
H2020 C2013 0.961 . S
H2021 C2013 0.960 . S
H2022 C2014 0.930 . S
H2023 C2015 0.929 . S
H2024 C2032 0.929 . S
H2025 C2034 0.930 . S
H2026 C2036 0.930 . S
H2027 C2039 0.929 . S
H2028 C2042 0.930 . S
H2029 C2044 0.960 . S
H2030 C2044 0.960 . S
H2031 C2044 0.960 . S
C2032 H2024 0.929 . S
C2032 C2033 1.377 . S
C2032 C2034 1.384 . S
C2033 C2032 1.377 . S
C2033 C2039 1.390 1_455 S
C2034 H2025 0.930 . S
C2034 C2032 1.384 . S
C2034 C2035 1.372 . S
C2035 C2034 1.372 . S
C2035 C2036 1.400 1_455 S
C2035 C2040 1.490 . S
C2036 H2026 0.930 . S
C2036 C2035 1.400 1_655 S
C2036 C2039 1.386 . S
H2037 C2053 0.930 . S
H2038 C2054 0.949 . S
C2039 H2027 0.929 . S
C2039 C2033 1.390 1_655 S
C2039 C2036 1.386 . S
C2040 C2035 1.490 . S
C2040 C2042 1.395 . S
C2040 C2043 1.401 . S
H2041 C2047 0.930 1_655 S
C2042 H2028 0.930 . S
C2042 C2040 1.395 . S
C2042 C2045 1.403 1_554 S
C2043 C2040 1.401 . S
C2043 C2044 1.525 1_455 S
C2043 C2047 1.400 1_554 S
C2044 H2029 0.960 . S
C2044 H2030 0.960 . S
C2044 H2031 0.960 . S
C2044 C2043 1.525 1_655 S
C2045 C2042 1.403 1_556 S
C2045 C2046 1.392 . S
C2045 C2049 1.495 . S
C2046 C2045 1.392 . S
C2046 C2047 1.385 . S
C2046 C2048 1.478 . S
C2047 H2041 0.930 1_455 S
C2047 C2043 1.400 1_556 S
C2047 C2046 1.385 . S
C2048 C2046 1.478 . S
C2048 C2050 1.381 . S
C2048 C2054 1.364 1_455 S
C2049 C2045 1.495 . S
C2049 H2055 0.959 . S
C2049 H2056 0.961 . S
C2049 H2057 0.960 . S
C2050 C2048 1.381 . S
C2050 C2051 1.394 . S
C2050 H2058 0.930 . S
C2051 C2050 1.394 . S
C2051 C2052 1.383 . S
C2051 H2059 0.929 . S
C2052 C2051 1.383 . S
C2052 C2053 1.377 1_455 S
C2053 H2037 0.930 . S
C2053 C2052 1.377 1_655 S
C2053 C2054 1.381 . S
C2054 H2038 0.949 . S
C2054 C2048 1.364 1_655 S
C2054 C2053 1.381 . S
H2055 C2049 0.959 . S
H2056 C2049 0.961 . S
H2057 C2049 0.960 . S
H2058 C2050 0.930 . S
H2059 C2051 0.929 . S
H2060 C2068 0.929 . S
H2061 C2070 0.930 . S
H2062 C2072 0.930 . S
H2063 C2075 0.929 . S
H2064 C2078 0.930 . S
H2065 C2080 0.960 . S
H2066 C2080 0.960 . S
H2067 C2080 0.960 . S
C2068 H2060 0.929 . S
C2068 C2069 1.377 . S
C2068 C2070 1.384 . S
C2069 C2068 1.377 . S
C2069 C2075 1.390 1_545 S
C2070 H2061 0.930 . S
C2070 C2068 1.384 . S
C2070 C2071 1.372 . S
C2071 C2070 1.372 . S
C2071 C2072 1.400 1_545 S
C2071 C2076 1.490 . S
C2072 H2062 0.930 . S
C2072 C2071 1.400 1_565 S
C2072 C2075 1.386 . S
H2073 C2089 0.930 . S
H2074 C2090 0.931 . S
C2075 H2063 0.929 . S
C2075 C2069 1.390 1_565 S
C2075 C2072 1.386 . S
C2076 C2071 1.490 . S
C2076 C2078 1.395 . S
C2076 C2079 1.403 . S
H2077 C2083 0.930 . S
C2078 H2064 0.930 . S
C2078 C2076 1.395 . S
C2078 C2081 1.403 . S
C2079 C2076 1.403 . S
C2079 C2080 1.524 . S
C2079 C2083 1.400 . S
C2080 H2065 0.960 . S
C2080 H2066 0.960 . S
C2080 H2067 0.960 . S
C2080 C2079 1.524 . S
C2081 C2078 1.403 . S
C2081 C2082 1.392 . S
C2081 C2085 1.495 . S
C2082 C2081 1.392 . S
C2082 C2083 1.385 . S
C2082 C2084 1.478 . S
C2083 H2077 0.930 . S
C2083 C2079 1.400 . S
C2083 C2082 1.385 . S
C2084 C2082 1.478 . S
C2084 C2086 1.381 . S
C2084 C2090 1.383 1_545 S
C2085 C2081 1.495 . S
C2085 H2091 0.959 . S
C2085 H2092 0.961 1_545 S
C2085 H2093 0.960 . S
C2086 C2084 1.381 . S
C2086 C2087 1.394 . S
C2086 H2094 0.930 . S
C2087 C2086 1.394 . S
C2087 C2088 1.383 . S
C2087 H2095 0.929 . S
C2088 C2087 1.383 . S
C2088 C2089 1.377 1_545 S
C2089 H2073 0.930 . S
C2089 C2088 1.377 1_565 S
C2089 C2090 1.379 . S
C2090 H2074 0.931 . S
C2090 C2084 1.383 1_565 S
C2090 C2089 1.379 . S
H2091 C2085 0.959 . S
H2092 C2085 0.961 1_565 S
H2093 C2085 0.960 . S
H2094 C2086 0.930 . S
H2095 C2087 0.929 . S
C953 C5 1.456 . S
C972 C418 1.457 . S
C989 C64 1.454 . S
C1008 C241 1.467 . S
C1025 C123 1.457 . S
C1044 C300 1.456 . S
C1061 C182 1.454 . S
C1080 C359 1.466 . S
C1097 C477 1.458 . S
C1116 C890 1.466 . S
C1133 C713 1.455 . S
C1152 C536 1.451 . S
C1169 C595 1.455 . S
C1188 C772 1.440 . S
C1205 C654 1.455 . S
C1224 C831 1.440 . S
C1241 C52 1.610 . S
C1260 C564 1.608 . S
C1277 C111 1.608 . S
C1296 C623 1.609 . S
C1313 C682 1.607 . S
C1332 C170 1.611 . S
C1349 C229 1.609 . S
C1368 C505 1.609 . S
C1385 C288 1.608 . S
C1404 C918 1.608 . S
C1421 C741 1.606 . S
C1440 C347 1.611 . S
C1457 C800 1.608 . S
C1476 C406 1.607 . S
C1493 C859 1.607 . S
C1512 C465 1.611 . S
C1529 C92 1.606 . S
C1548 C524 1.601 . S
C1565 C151 1.606 . S
C1584 C583 1.601 . S
C1601 C642 1.611 . S
C1620 C210 1.611 . S
C1637 C33 1.606 . S
C1656 C701 1.601 . S
C1673 C760 1.609 . S
C1692 C446 1.602 . S
C1709 C819 1.609 . S
C1728 C269 1.597 . S
C1745 C328 1.606 . S
C1764 C878 1.601 . S
C1781 C387 1.609 . S
C1800 C937 1.611 . S
C1817 C3 1.669 . S
C1836 C239 1.663 . S
C1853 C298 1.669 . S
C1872 C62 1.655 . S
C1889 C121 1.666 . S
C1908 C357 1.678 . S
C1925 C416 1.665 . S
C1944 C180 1.649 . S
C1961 C475 1.669 . S
C1980 C711 1.655 . S
C1997 C770 1.663 . S
C2016 C534 1.666 . S
C2033 C829 1.666 . S
C2052 C593 1.652 . S
C2069 C888 1.663 . S
C2088 C652 1.667 . S
