# Generated by pormake.
# Topology wme, (6)-cn, num edge types: 1
# Building blocks:
#     Node 0, Type 0, BuildingBlock: BETGAK_clean_sbu_0, # of connection points: 6
#     Node 1, Type 0, BuildingBlock: BETGAK_clean_sbu_0, # of connection points: 6
#     Node 2, Type 0, BuildingBlock: BETGAK_clean_sbu_0, # of connection points: 6
#     Node 3, Type 0, BuildingBlock: BETGAK_clean_sbu_0, # of connection points: 6
#     Node 4, Type 0, BuildingBlock: BETGAK_clean_sbu_0, # of connection points: 6
#     Node 5, Type 0, BuildingBlock: BETGAK_clean_sbu_0, # of connection points: 6
#     Node 6, Type 0, BuildingBlock: BETGAK_clean_sbu_0, # of connection points: 6
#     Node 7, Type 0, BuildingBlock: BETGAK_clean_sbu_0, # of connection points: 6
#     Node 8, Type 0, BuildingBlock: BETGAK_clean_sbu_0, # of connection points: 6
#     Node 9, Type 0, BuildingBlock: BETGAK_clean_sbu_0, # of connection points: 6
#     Node 10, Type 0, BuildingBlock: BETGAK_clean_sbu_0, # of connection points: 6
#     Node 11, Type 0, BuildingBlock: BETGAK_clean_sbu_0, # of connection points: 6
#     Edge 12, Type (0, 0), BuildingBlock: MIFKUJ_clean_linker_0, # of connection points: 2
#     Edge 13, Type (0, 0), BuildingBlock: MIFKUJ_clean_linker_0, # of connection points: 2
#     Edge 14, Type (0, 0), BuildingBlock: MIFKUJ_clean_linker_0, # of connection points: 2
#     Edge 15, Type (0, 0), BuildingBlock: MIFKUJ_clean_linker_0, # of connection points: 2
#     Edge 16, Type (0, 0), BuildingBlock: MIFKUJ_clean_linker_0, # of connection points: 2
#     Edge 17, Type (0, 0), BuildingBlock: MIFKUJ_clean_linker_0, # of connection points: 2
#     Edge 18, Type (0, 0), BuildingBlock: MIFKUJ_clean_linker_0, # of connection points: 2
#     Edge 19, Type (0, 0), BuildingBlock: MIFKUJ_clean_linker_0, # of connection points: 2
#     Edge 20, Type (0, 0), BuildingBlock: MIFKUJ_clean_linker_0, # of connection points: 2
#     Edge 21, Type (0, 0), BuildingBlock: MIFKUJ_clean_linker_0, # of connection points: 2
#     Edge 22, Type (0, 0), BuildingBlock: MIFKUJ_clean_linker_0, # of connection points: 2
#     Edge 23, Type (0, 0), BuildingBlock: MIFKUJ_clean_linker_0, # of connection points: 2
#     Edge 24, Type (0, 0), BuildingBlock: MIFKUJ_clean_linker_0, # of connection points: 2
#     Edge 25, Type (0, 0), BuildingBlock: MIFKUJ_clean_linker_0, # of connection points: 2
#     Edge 26, Type (0, 0), BuildingBlock: MIFKUJ_clean_linker_0, # of connection points: 2
#     Edge 27, Type (0, 0), BuildingBlock: MIFKUJ_clean_linker_0, # of connection points: 2
#     Edge 28, Type (0, 0), BuildingBlock: MIFKUJ_clean_linker_0, # of connection points: 2
#     Edge 29, Type (0, 0), BuildingBlock: MIFKUJ_clean_linker_0, # of connection points: 2
#     Edge 30, Type (0, 0), BuildingBlock: MIFKUJ_clean_linker_0, # of connection points: 2
#     Edge 31, Type (0, 0), BuildingBlock: MIFKUJ_clean_linker_0, # of connection points: 2
#     Edge 32, Type (0, 0), BuildingBlock: MIFKUJ_clean_linker_0, # of connection points: 2
#     Edge 33, Type (0, 0), BuildingBlock: MIFKUJ_clean_linker_0, # of connection points: 2
#     Edge 34, Type (0, 0), BuildingBlock: MIFKUJ_clean_linker_0, # of connection points: 2
#     Edge 35, Type (0, 0), BuildingBlock: MIFKUJ_clean_linker_0, # of connection points: 2
#     Edge 36, Type (0, 0), BuildingBlock: MIFKUJ_clean_linker_0, # of connection points: 2
#     Edge 37, Type (0, 0), BuildingBlock: MIFKUJ_clean_linker_0, # of connection points: 2
#     Edge 38, Type (0, 0), BuildingBlock: MIFKUJ_clean_linker_0, # of connection points: 2
#     Edge 39, Type (0, 0), BuildingBlock: MIFKUJ_clean_linker_0, # of connection points: 2
#     Edge 40, Type (0, 0), BuildingBlock: MIFKUJ_clean_linker_0, # of connection points: 2
#     Edge 41, Type (0, 0), BuildingBlock: MIFKUJ_clean_linker_0, # of connection points: 2
#     Edge 42, Type (0, 0), BuildingBlock: MIFKUJ_clean_linker_0, # of connection points: 2
#     Edge 43, Type (0, 0), BuildingBlock: MIFKUJ_clean_linker_0, # of connection points: 2
#     Edge 44, Type (0, 0), BuildingBlock: MIFKUJ_clean_linker_0, # of connection points: 2
#     Edge 45, Type (0, 0), BuildingBlock: MIFKUJ_clean_linker_0, # of connection points: 2
#     Edge 46, Type (0, 0), BuildingBlock: MIFKUJ_clean_linker_0, # of connection points: 2
#     Edge 47, Type (0, 0), BuildingBlock: MIFKUJ_clean_linker_0, # of connection points: 2
# Relax obj value: 0.099
# Max RMSD: 0.194
# Mean RMSD: 0.194
data_MOF--net-wme--node1-BETGAK_clean_sbu_0--edge1-MIFKUJ_clean_linker_0
_symmetry_space_group_name_H-M    P1
_symmetry_Int_Tables_number       1
_symmetry_cell_setting            triclinic
loop_
_symmetry_equiv_pos_as_xyz
'x, y, z'
_cell_length_a     49.009107
_cell_length_b     49.062402
_cell_length_c     67.406864
_cell_angle_alpha  89.742682
_cell_angle_beta   90.205086
_cell_angle_gamma 119.97273
loop_
_atom_site_label
_atom_site_type_symbol
_atom_site_fract_x
_atom_site_fract_y
_atom_site_fract_z
_atom_type_partial_charge
La0 La 0.2203 0.36299 0.14123 0.0
La1 La 0.25831 0.33155 0.1484 0.0
C2 C 0.19343 0.39561 0.14193 0.0
C3 C 0.19672 0.42727 0.13988 0.0
C4 C 0.18036 0.43251 0.12457 0.0
C5 C 0.17819 0.45988 0.12413 0.0
C6 C 0.1922 0.48273 0.13907 0.0
C7 C 0.2098 0.47815 0.15395 0.0
C8 C 0.21195 0.45067 0.1544 0.0
C9 C 0.23429 0.34027 0.10969 0.0
C10 C 0.29564 0.40477 0.14421 0.0
C11 C 0.27937 0.29413 0.14605 0.0
C12 C 0.26515 0.25959 0.14417 0.0
C13 C 0.27432 0.24355 0.15742 0.0
C14 C 0.26098 0.21088 0.15631 0.0
C15 C 0.23823 0.19336 0.14177 0.0
C16 C 0.22907 0.20954 0.12844 0.0
C17 C 0.24235 0.2423 0.12963 0.0
C18 C 0.24726 0.3547 0.1805 0.0
C19 C 0.18264 0.29135 0.14706 0.0
O20 O 0.19597 0.38196 0.12597 0.0
O21 O 0.20555 0.38967 0.15757 0.0
O22 O 0.2072 0.33835 0.11229 0.0
O23 O 0.25183 0.35471 0.124 0.0
O24 O 0.26792 0.40342 0.14466 0.0
O25 O 0.29799 0.37897 0.14354 0.0
O26 O 0.27436 0.30411 0.16286 0.0
O27 O 0.27682 0.30938 0.13081 0.0
O28 O 0.27293 0.35393 0.1772 0.0
O29 O 0.22795 0.3409 0.1665 0.0
O30 O 0.20958 0.29178 0.14398 0.0
O31 O 0.18213 0.31763 0.14979 0.0
H32 H 0.16812 0.4148 0.1133 0.0
H33 H 0.16495 0.46283 0.11224 0.0
H34 H 0.22076 0.49512 0.16577 0.0
H35 H 0.22449 0.44727 0.16654 0.0
H36 H 0.29172 0.25631 0.1688 0.0
H37 H 0.26822 0.19933 0.1671 0.0
H38 H 0.2119 0.19698 0.11692 0.0
H39 H 0.23473 0.25402 0.1192 0.0
La40 La 0.88001 0.2144 0.6361 0.0
La41 La 0.95315 0.25229 0.64276 0.0
C42 C 0.8208 0.18895 0.63492 0.0
C43 C 0.79191 0.19105 0.63742 0.0
C44 C 0.76958 0.1796 0.62206 0.0
C45 C 0.73988 0.17644 0.62463 0.0
C46 C 0.73168 0.1847 0.64267 0.0
C47 C 0.75454 0.19756 0.65782 0.0
C48 C 0.78438 0.20052 0.65527 0.0
C49 C 0.91741 0.22665 0.60501 0.0
C50 C 0.91576 0.28917 0.64194 0.0
C51 C 1.01029 0.2739 0.6342 0.0
C52 C 0.03292 0.26314 0.63838 0.0
C53 C 1.02491 0.23762 0.65121 0.0
C54 C 0.04514 0.22539 0.65356 0.0
C55 C 0.0738 0.23846 0.6431 0.0
C56 C 0.08184 0.26434 0.63047 0.0
C57 C 0.06154 0.27648 0.6281 0.0
C58 C 0.92369 0.23569 0.67734 0.0
C59 C 0.9141 0.17645 0.64397 0.0
O60 O 0.83919 0.20372 0.61984 0.0
O61 O 0.8365 0.18882 0.6507 0.0
O62 O 0.89154 0.20018 0.60763 0.0
O63 O 0.92111 0.24449 0.61927 0.0
O64 O 0.88897 0.26179 0.64229 0.0
O65 O 0.94391 0.29148 0.64026 0.0
O66 O 1.0008 0.2837 0.64938 0.0
O67 O 0.98691 0.25517 0.62263 0.0
O68 O 0.95406 0.25211 0.67529 0.0
O69 O 0.9119 0.22942 0.66018 0.0
O70 O 0.94172 0.20264 0.64164 0.0
O71 O 0.88715 0.17632 0.64487 0.0
H72 H 0.77473 0.17198 0.60821 0.0
H73 H 0.72307 0.167 0.61255 0.0
H74 H 0.74893 0.20411 0.6719 0.0
H75 H 0.80109 0.20926 0.66742 0.0
H76 H 1.00274 0.22681 0.65915 0.0
H77 H 0.03833 0.20569 0.66355 0.0
H78 H 0.10345 0.2747 0.62196 0.0
H79 H 0.06787 0.29584 0.61788 0.0
La80 La 0.68477 0.86707 0.13664 0.0
La81 La 0.71958 0.93543 0.147 0.0
C82 C 0.64948 0.80801 0.13423 0.0
C83 C 0.61841 0.78014 0.13898 0.0
C84 C 0.59271 0.77007 0.12592 0.0
C85 C 0.5655 0.74066 0.12847 0.0
C86 C 0.56343 0.72049 0.14404 0.0
C87 C 0.58862 0.73118 0.15756 0.0
C88 C 0.61576 0.76056 0.15504 0.0
C89 C 0.70862 0.90699 0.10635 0.0
C90 C 0.64664 0.90258 0.14464 0.0
C91 C 0.75871 0.99368 0.14796 0.0
C92 C 0.79337 1.01307 0.14668 0.0
C93 C 0.80926 0.03947 0.15892 0.0
C94 C 0.84208 0.05809 0.15814 0.0
C95 C 0.85979 0.05074 0.14505 0.0
C96 C 0.84378 0.02395 0.13295 0.0
C97 C 0.8109 1.00533 0.13373 0.0
C98 C 0.69421 0.89802 0.17768 0.0
C99 C 0.75691 0.89763 0.14033 0.0
O100 O 0.65091 0.82786 0.12066 0.0
O101 O 0.66914 0.82221 0.14885 0.0
O102 O 0.70752 0.88008 0.10708 0.0
O103 O 0.69562 0.9097 0.12157 0.0
O104 O 0.6471 0.87585 0.14584 0.0
O105 O 0.67293 0.92997 0.14217 0.0
O106 O 0.74765 0.97614 0.16382 0.0
O107 O 0.74388 0.97858 0.13191 0.0
O108 O 0.69651 0.92536 0.17555 0.0
O109 O 0.70753 0.89293 0.16319 0.0
O110 O 0.75794 0.92513 0.14111 0.0
O111 O 0.73004 0.87091 0.1405 0.0
H112 H 0.5941 0.78427 0.1132 0.0
H113 H 0.54671 0.73312 0.11766 0.0
H114 H 0.58768 0.71651 0.16989 0.0
H115 H 0.63522 0.76736 0.16524 0.0
H116 H 0.79625 0.0457 0.16915 0.0
H117 H 0.85359 0.07816 0.16795 0.0
H118 H 0.85659 1.01768 0.12263 0.0
H119 H 0.79922 0.98498 0.12416 0.0
La120 La 0.83994 0.67506 0.64095 0.0
La121 La 0.8073 0.71528 0.64711 0.0
C122 C 0.86054 0.63712 0.6399 0.0
C123 C 0.85706 0.60646 0.64606 0.0
C124 C 0.84228 0.58043 0.6333 0.0
C125 C 0.84476 0.55359 0.63665 0.0
C126 C 0.86224 0.55211 0.6528 0.0
C127 C 0.87567 0.57752 0.66615 0.0
C128 C 0.87321 0.60442 0.66278 0.0
C129 C 0.82406 0.6962 0.60906 0.0
C130 C 0.76728 0.64189 0.65229 0.0
C131 C 0.78789 0.75268 0.6388 0.0
C132 C 0.80062 0.7865 0.6427 0.0
C133 C 0.78042 0.79891 0.64407 0.0
C134 C 0.79275 0.83139 0.64632 0.0
C135 C 0.82559 0.85209 0.64705 0.0
C136 C 0.84563 0.83931 0.6461 0.0
C137 C 0.83329 0.80695 0.64409 0.0
C138 C 0.82815 0.70673 0.68154 0.0
C139 C 0.88268 0.74738 0.64455 0.0
O140 O 0.84025 0.63702 0.62713 0.0
O141 O 0.86949 0.6596 0.65309 0.0
O142 O 0.8497 0.69479 0.61042 0.0
O143 O 0.80893 0.68586 0.62485 0.0
O144 O 0.79407 0.64134 0.65332 0.0
O145 O 0.76623 0.66769 0.64741 0.0
O146 O 0.77777 0.73367 0.6542 0.0
O147 O 0.80497 0.74632 0.62683 0.0
O148 O 0.81362 0.72249 0.67919 0.0
O149 O 0.8304 0.69703 0.6647 0.0
O150 O 0.85734 0.75016 0.64173 0.0
O151 O 0.8811 0.71991 0.64691 0.0
H152 H 0.83016 0.58138 0.62007 0.0
H153 H 0.83441 0.53473 0.6259 0.0
H154 H 0.88889 0.57702 0.67891 0.0
H155 H 0.8852 0.62416 0.67279 0.0
H156 H 0.75514 0.78356 0.64312 0.0
H157 H 0.77653 0.84024 0.64736 0.0
H158 H 0.87098 0.85434 0.64629 0.0
H159 H 0.84947 0.79807 0.6431 0.0
La160 La 0.18408 0.82866 0.14415 0.0
La161 La 0.11396 0.79255 0.1494 0.0
C162 C 0.24313 0.85378 0.14791 0.0
C163 C 0.27144 0.85058 0.14523 0.0
C164 C 0.29039 0.86331 0.1283 0.0
C165 C 0.32009 0.86589 0.12726 0.0
C166 C 0.33168 0.85594 0.14317 0.0
C167 C 0.3122 0.84202 0.15978 0.0
C168 C 0.2825 0.83952 0.16084 0.0
C169 C 0.14983 0.81389 0.11112 0.0
C170 C 0.14849 0.75333 0.14687 0.0
C171 C 0.05561 0.77254 0.14639 0.0
C172 C 0.03592 0.78744 0.14498 0.0
C173 C 1.00665 0.77341 0.15455 0.0
C174 C 0.98786 0.78743 0.15378 0.0
C175 C 0.998 0.8159 0.14345 0.0
C176 C 1.02759 0.83011 0.13408 0.0
C177 C 0.04627 0.81593 0.13472 0.0
C178 C 0.14614 0.80283 0.18239 0.0
C179 C 0.15159 0.86816 0.14767 0.0
O180 O 0.22924 0.85679 0.1321 0.0
O181 O 0.22294 0.83703 0.16178 0.0
O182 O 0.17631 0.83986 0.11337 0.0
O183 O 0.14489 0.79743 0.12632 0.0
O184 O 0.17527 0.78055 0.14806 0.0
O185 O 0.12086 0.75208 0.14487 0.0
O186 O 0.07009 0.776 0.16331 0.0
O187 O 0.07394 0.7765 0.13128 0.0
O188 O 0.11965 0.77757 0.17864 0.0
O189 O 0.15297 0.82228 0.16826 0.0
O190 O 0.12482 0.84177 0.14399 0.0
O191 O 0.17748 0.86747 0.1518 0.0
H192 H 0.28284 0.87249 0.11613 0.0
H193 H 0.33431 0.87632 0.11414 0.0
H194 H 0.3205 0.83441 0.17238 0.0
H195 H 0.26882 0.83017 0.17428 0.0
H196 H 0.99835 0.75158 0.16269 0.0
H197 H 0.96548 0.77607 0.16147 0.0
H198 H 0.03608 0.85194 0.12595 0.0
H199 H 0.06873 0.8272 0.12715 0.0
La200 La 0.38329 0.17857 0.63999 0.0
La201 La 0.34379 0.10576 0.64688 0.0
C202 C 0.41973 0.23729 0.63814 0.0
C203 C 0.45046 0.26583 0.6421 0.0
C204 C 0.46714 0.28498 0.62592 0.0
C205 C 0.49321 0.31484 0.62889 0.0
C206 C 0.50334 0.32637 0.64815 0.0
C207 C 0.48763 0.30663 0.66441 0.0
C208 C 0.46123 0.27667 0.66143 0.0
C209 C 0.36171 0.14102 0.60858 0.0
C210 C 0.41798 0.14004 0.65044 0.0
C211 C 0.30794 0.04921 0.6374 0.0
C212 C 0.27449 0.02553 0.64023 0.0
C213 C 0.25806 0.02461 0.65748 0.0
C214 C 0.22546 1.00408 0.65874 0.0
C215 C 0.20879 0.98476 0.6426 0.0
C216 C 0.22541 0.98555 0.62547 0.0
C217 C 0.25799 1.00554 0.62439 0.0
C218 C 0.35353 0.13504 0.68119 0.0
C219 C 0.31059 0.14831 0.64446 0.0
O220 O 0.41853 0.21761 0.62462 0.0
O221 O 0.40008 0.22316 0.65283 0.0
O222 O 0.36251 0.16776 0.60971 0.0
O223 O 0.37259 0.1368 0.62435 0.0
O224 O 0.4186 0.16742 0.65087 0.0
O225 O 0.39175 0.1129 0.64677 0.0
O226 O 0.32662 0.05777 0.65298 0.0
O227 O 0.3126 0.07321 0.62639 0.0
O228 O 0.33818 0.10468 0.67906 0.0
O229 O 0.36223 0.14715 0.66417 0.0
O230 O 0.30766 0.11991 0.643 0.0
O231 O 0.33821 0.17433 0.64565 0.0
H232 H 0.45919 0.27735 0.61088 0.0
H233 H 0.50508 0.32924 0.61605 0.0
H234 H 0.49486 0.3149 0.67944 0.0
H235 H 0.44867 0.26256 0.67421 0.0
H236 H 0.27024 0.0402 0.66977 0.0
H237 H 0.21313 1.004 0.67206 0.0
H238 H 0.21317 0.97073 0.61289 0.0
H239 H 0.27028 1.00596 0.61097 0.0
La240 La 0.68787 0.82993 0.41934 0.0
La241 La 0.72636 0.7958 0.41191 0.0
C242 C 0.65185 0.85282 0.42033 0.0
C243 C 0.62188 0.85078 0.41393 0.0
C244 C 0.59384 0.83229 0.42454 0.0
C245 C 0.56744 0.83566 0.42129 0.0
C246 C 0.56851 0.85775 0.40745 0.0
C247 C 0.59601 0.87499 0.39611 0.0
C248 C 0.62239 0.87161 0.39935 0.0
C249 C 0.7094 0.8133 0.45066 0.0
C250 C 0.65211 0.7569 0.40898 0.0
C251 C 0.76244 0.77482 0.42037 0.0
C252 C 0.79616 0.78546 0.41704 0.0
C253 C 0.80852 0.78679 0.39803 0.0
C254 C 0.84098 0.79904 0.39546 0.0
C255 C 0.86161 0.81052 0.41179 0.0
C256 C 0.84909 0.80861 0.43078 0.0
C257 C 0.81675 0.79601 0.43336 0.0
C258 C 0.7166 0.81627 0.37777 0.0
C259 C 0.76067 0.87146 0.4149 0.0
O260 O 0.65076 0.83217 0.43319 0.0
O261 O 0.67424 0.86083 0.40715 0.0
O262 O 0.70804 0.83899 0.44974 0.0
O263 O 0.69845 0.79844 0.43486 0.0
O264 O 0.65211 0.78395 0.40855 0.0
O265 O 0.67819 0.75533 0.41204 0.0
O266 O 0.74322 0.76497 0.40504 0.0
O267 O 0.7573 0.79306 0.43205 0.0
O268 O 0.73178 0.80104 0.37975 0.0
O269 O 0.70811 0.81949 0.39486 0.0
O270 O 0.76312 0.84567 0.41594 0.0
O271 O 0.73328 0.87042 0.414 0.0
H272 H 0.59272 0.81633 0.43607 0.0
H273 H 0.54679 0.82218 0.43042 0.0
H274 H 0.5975 0.89184 0.38511 0.0
H275 H 0.64371 0.88647 0.39108 0.0
H276 H 0.79329 0.77887 0.38514 0.0
H277 H 0.85005 0.80028 0.38065 0.0
H278 H 0.86432 0.8168 0.44368 0.0
H279 H 0.8078 0.79503 0.44815 0.0
La280 La 0.87493 0.6701 0.92489 0.0
La281 La 0.94622 0.71024 0.91283 0.0
C282 C 0.81711 0.63159 0.92975 0.0
C283 C 0.78887 0.60268 0.92258 0.0
C284 C 0.77836 0.57399 0.93265 0.0
C285 C 0.7485 0.54821 0.92877 0.0
C286 C 0.72837 0.55058 0.91481 0.0
C287 C 0.73952 0.57877 0.90404 0.0
C288 C 0.76936 0.60453 0.9079 0.0
C289 C 0.91733 0.69557 0.95379 0.0
C290 C 0.9127 0.63691 0.91044 0.0
C291 C 1.00419 0.74828 0.91662 0.0
C292 C 1.02504 0.78156 0.91128 0.0
C293 C 0.05763 0.79384 0.9101 0.0
C294 C 0.07785 0.8262 0.9075 0.0
C295 C 0.06583 0.84697 0.90631 0.0
C296 C 0.03296 0.83422 0.90668 0.0
C297 C 1.01281 0.80188 0.909 0.0
C298 C 0.90945 0.6953 0.88114 0.0
C299 C 0.90268 0.7418 0.91714 0.0
O300 O 0.83959 0.62892 0.93856 0.0
O301 O 0.82807 0.65706 0.91877 0.0
O302 O 0.88935 0.692 0.95453 0.0
O303 O 0.91988 0.6839 0.9379 0.0
O304 O 0.88537 0.63641 0.91076 0.0
O305 O 0.94004 0.66288 0.91398 0.0
O306 O 0.99237 0.72806 0.90197 0.0
O307 O 0.98312 0.74344 0.93017 0.0
O308 O 0.93997 0.71075 0.88045 0.0
O309 O 0.90178 0.68944 0.89905 0.0
O310 O 0.93149 0.74554 0.91753 0.0
O311 O 0.87692 0.71387 0.91766 0.0
H312 H 0.79255 0.5719 0.94427 0.0
H313 H 0.74052 0.52698 0.93748 0.0
H314 H 0.72479 0.58123 0.89298 0.0
H315 H 0.77651 0.62632 0.89998 0.0
H316 H 0.06751 0.77852 0.91172 0.0
H317 H 0.10295 0.83497 0.9068 0.0
H318 H 1.02269 0.84928 0.90606 0.0
H319 H 0.98771 0.79293 0.90977 0.0
La320 La 0.22813 0.86851 0.42204 0.0
La321 La 0.26258 0.9411 0.41337 0.0
C322 C 0.20662 0.80991 0.42473 0.0
C323 C 0.2092 0.78214 0.41881 0.0
C324 C 0.22502 0.77127 0.43111 0.0
C325 C 0.22218 0.74177 0.42793 0.0
C326 C 0.20324 0.72225 0.41245 0.0
C327 C 0.1886 0.73376 0.3996 0.0
C328 C 0.19146 0.76329 0.40277 0.0
C329 C 0.24224 0.90752 0.45256 0.0
C330 C 0.30168 0.90626 0.41267 0.0
C331 C 0.28202 0.99825 0.42037 0.0
C332 C 0.2706 1.01997 0.41506 0.0
C333 C 0.28726 0.05134 0.42133 0.0
C334 C 0.27446 0.07103 0.41868 0.0
C335 C 0.24459 0.05952 0.4099 0.0
C336 C 0.22836 0.02824 0.40317 0.0
C337 C 0.24131 1.00869 0.40565 0.0
C338 C 0.24499 0.90945 0.37969 0.0
C339 C 0.18692 0.89893 0.41301 0.0
O340 O 0.2279 0.83057 0.43678 0.0
O341 O 0.19714 0.82304 0.41147 0.0
O342 O 0.21684 0.88027 0.45154 0.0
O343 O 0.25828 0.91117 0.43735 0.0
O344 O 0.27459 0.87925 0.41172 0.0
O345 O 0.30309 0.93376 0.4157 0.0
O346 O 0.29312 0.98867 0.40593 0.0
O347 O 0.26299 0.97512 0.43203 0.0
O348 O 0.26013 0.93993 0.38091 0.0
O349 O 0.24049 0.89872 0.39713 0.0
O350 O 0.21228 0.92716 0.41526 0.0
O351 O 0.18812 0.87266 0.41322 0.0
H352 H 0.23841 0.78488 0.44382 0.0
H353 H 0.23355 0.73361 0.43826 0.0
H354 H 0.17424 0.71961 0.38735 0.0
H355 H 0.17864 0.77071 0.39313 0.0
H356 H 0.30972 0.06035 0.42882 0.0
H357 H 0.28743 0.09493 0.42417 0.0
H358 H 0.2055 1.01879 0.39614 0.0
H359 H 0.22804 0.9845 0.40072 0.0
La360 La 0.37365 0.21203 0.92172 0.0
La361 La 0.33979 0.24664 0.91166 0.0
C362 C 0.40858 0.18775 0.92403 0.0
C363 C 0.43947 0.19049 0.9193 0.0
C364 C 0.46473 0.2044 0.9328 0.0
C365 C 0.49158 0.20155 0.93019 0.0
C366 C 0.4937 0.18445 0.91413 0.0
C367 C 0.469 0.1717 0.9002 0.0
C368 C 0.44223 0.17461 0.90278 0.0
C369 C 0.34795 0.22542 0.95202 0.0
C370 C 0.41246 0.286 0.91539 0.0
C371 C 0.30071 0.26594 0.9112 0.0
C372 C 0.26617 0.25084 0.90867 0.0
C373 C 0.25354 0.26602 0.89738 0.0
C374 C 0.22092 0.25218 0.89477 0.0
C375 C 0.20029 0.22297 0.90356 0.0
C376 C 0.21298 0.20753 0.91459 0.0
C377 C 0.24561 0.22127 0.91708 0.0
C378 C 0.36573 0.23589 0.88086 0.0
C379 C 0.30179 0.17097 0.91593 0.0
O380 O 0.40734 0.20603 0.93766 0.0
O381 O 0.38904 0.18283 0.90938 0.0
O382 O 0.34899 0.19966 0.95054 0.0
O383 O 0.36215 0.24279 0.9375 0.0
O384 O 0.4118 0.25882 0.91361 0.0
O385 O 0.3862 0.28717 0.91782 0.0
O386 O 0.31646 0.26587 0.89561 0.0
O387 O 0.31089 0.25925 0.92747 0.0
O388 O 0.36337 0.26082 0.8833 0.0
O389 O 0.35203 0.21687 0.89507 0.0
O390 O 0.30087 0.19744 0.91431 0.0
O391 O 0.32851 0.1709 0.91734 0.0
H392 H 0.46323 0.21633 0.94588 0.0
H393 H 0.50998 0.21145 0.94132 0.0
H394 H 0.47001 0.15881 0.88749 0.0
H395 H 0.42309 0.16324 0.89222 0.0
H396 H 0.26895 0.28872 0.89064 0.0
H397 H 0.21177 0.26463 0.88625 0.0
H398 H 0.19763 0.1848 0.92129 0.0
H399 H 0.25466 0.20889 0.92576 0.0
La400 La 0.19107 0.36806 0.42119 0.0
La401 La 0.11763 0.3325 0.41594 0.0
C402 C 0.25025 0.40289 0.42135 0.0
C403 C 0.27794 0.43363 0.41582 0.0
C404 C 0.28951 0.45943 0.42882 0.0
C405 C 0.31894 0.48625 0.42555 0.0
C406 C 0.33766 0.4879 0.40929 0.0
C407 C 0.32543 0.46264 0.39584 0.0
C408 C 0.29602 0.43583 0.3991 0.0
C409 C 0.15528 0.34344 0.45304 0.0
C410 C 0.15464 0.40655 0.41511 0.0
C411 C 0.06132 0.2967 0.42617 0.0
C412 C 0.03836 0.26268 0.42376 0.0
C413 C 1.02487 0.24963 0.40528 0.0
C414 C 1.00462 0.21711 0.40335 0.0
C415 C 0.9975 0.19685 0.41981 0.0
C416 C 1.01078 0.21013 0.43831 0.0
C417 C 1.03073 0.24258 0.44027 0.0
C418 C 0.14544 0.34482 0.38083 0.0
C419 C 0.15694 0.29611 0.41289 0.0
O420 O 0.23186 0.40217 0.43568 0.0
O421 O 0.23453 0.38278 0.40719 0.0
O422 O 0.18121 0.34309 0.45005 0.0
O423 O 0.1508 0.35714 0.43874 0.0
O424 O 0.18131 0.40576 0.41372 0.0
O425 O 0.12673 0.38086 0.41801 0.0
O426 O 0.06931 0.31497 0.4104 0.0
O427 O 0.08565 0.30297 0.43734 0.0
O428 O 0.11514 0.33064 0.38343 0.0
O429 O 0.15807 0.35107 0.39776 0.0
O430 O 0.12949 0.2945 0.41648 0.0
O431 O 0.18377 0.32304 0.41188 0.0
H432 H 0.27652 0.45839 0.44203 0.0
H433 H 0.32765 0.50505 0.43634 0.0
H434 H 0.33893 0.46326 0.38299 0.0
H435 H 0.28804 0.41626 0.38893 0.0
H436 H 1.03014 0.26444 0.39227 0.0
H437 H 0.99443 0.20791 0.38894 0.0
H438 H 1.00635 0.19543 0.45129 0.0
H439 H 0.04072 0.25193 0.45472 0.0
La440 La 0.83713 0.17526 0.9161 0.0
La441 La 0.801 0.10203 0.90834 0.0
C442 C 0.86113 0.23426 0.91667 0.0
C443 C 0.85702 0.26207 0.9146 0.0
C444 C 0.86187 0.28085 0.93137 0.0
C445 C 0.8641 0.31026 0.92956 0.0
C446 C 0.86159 0.32171 0.9109 0.0
C447 C 0.85515 0.30229 0.8942 0.0
C448 C 0.85309 0.27279 0.89599 0.0
C449 C 0.8223 0.13695 0.94709 0.0
C450 C 0.76225 0.13785 0.90906 0.0
C451 C 0.7812 0.04525 0.91699 0.0
C452 C 0.79242 0.02248 0.91439 0.0
C453 C 0.79043 1.00789 0.8961 0.0
C454 C 0.80238 0.98733 0.89414 0.0
C455 C 0.81676 0.98128 0.91035 0.0
C456 C 0.81824 0.99549 0.92865 0.0
C457 C 0.806 1.01561 0.93068 0.0
C458 C 0.81936 0.13368 0.87452 0.0
C459 C 0.87717 0.14279 0.9091 0.0
O460 O 0.84861 0.21609 0.93221 0.0
O461 O 0.86024 0.21844 0.90079 0.0
O462 O 0.84805 0.16394 0.94586 0.0
O463 O 0.80624 0.13311 0.93174 0.0
O464 O 0.78928 0.16507 0.90937 0.0
O465 O 0.7608 0.10999 0.91027 0.0
O466 O 0.77144 0.05408 0.90131 0.0
O467 O 0.79879 0.06893 0.92866 0.0
O468 O 0.8026 0.10319 0.87573 0.0
O469 O 0.82468 0.14398 0.89201 0.0
O470 O 0.85112 0.11472 0.91011 0.0
O471 O 0.87677 0.16951 0.9092 0.0
H472 H 0.86534 0.27339 0.94585 0.0
H473 H 0.86858 0.32442 0.94275 0.0
H474 H 0.85321 0.31051 0.87961 0.0
H475 H 0.84967 0.25904 0.88274 0.0
H476 H 0.77995 1.01252 0.8833 0.0
H477 H 0.8009 0.97662 0.87986 0.0
H478 H 0.82863 0.99081 0.9415 0.0
H479 H 0.80747 0.0261 0.94505 0.0
H480 H 0.10689 0.88357 0.13534 0.0
H481 H 0.11281 0.93641 0.13402 0.0
H482 H 0.20685 0.97588 0.15776 0.0
H483 H 0.20104 0.92394 0.15943 0.0
H484 H 0.17734 1.00108 0.17557 0.0
H485 H 0.19176 0.97848 0.10776 0.0
H486 H 0.17577 0.94888 0.07636 0.0
H487 H 0.09811 0.96576 0.07112 0.0
H488 H 0.11338 0.99509 0.10268 0.0
H489 H 0.2678 0.15909 0.14791 0.0
H490 H 0.24449 0.10206 0.14867 0.0
H491 H 0.154 0.09077 0.13328 0.0
H492 H 0.17693 0.14812 0.1331 0.0
H493 H 0.17055 0.04922 0.11221 0.0
H494 H 0.16266 0.07887 0.17865 0.0
H495 H 0.18233 0.11042 0.20917 0.0
H496 H 0.25094 0.08105 0.21631 0.0
H497 H 0.232 0.04969 0.18566 0.0
C498 C 0.12868 0.90351 0.14042 0.0
C499 C 0.15346 0.89937 0.14746 0.0
C500 C 0.13212 0.93373 0.13955 0.0
C501 C 0.1604 0.96026 0.14569 0.0
C502 C 0.18478 0.95591 0.153 0.0
C503 C 0.1814 0.92601 0.15385 0.0
C504 C 0.1655 0.99286 0.14453 0.0
C505 C 0.17583 1.01153 0.16168 0.0
C506 C 0.16282 1.00647 0.12656 0.0
C507 C 0.15347 0.98863 0.1077 0.0
C508 C 0.17109 0.97562 0.10001 0.0
C509 C 0.1622 0.95895 0.08217 0.0
C510 C 0.13593 0.95542 0.07176 0.0
C511 C 0.11846 0.96852 0.0792 0.0
C512 C 0.1272 0.98514 0.09707 0.0
C513 C 0.24287 0.14463 0.14485 0.0
C514 C 0.22423 0.15842 0.14073 0.0
C515 C 0.22962 0.11195 0.14515 0.0
C516 C 0.19744 0.09214 0.14123 0.0
C517 C 0.1789 0.10563 0.13634 0.0
C518 C 0.19211 0.13846 0.13619 0.0
C519 C 0.18338 0.05744 0.14308 0.0
C520 C 0.17138 0.03849 0.12614 0.0
C521 C 0.1848 0.04353 0.1612 0.0
C522 C 0.19602 0.06208 0.17978 0.0
C523 C 0.18208 0.0793 0.18666 0.0
C524 C 0.19308 0.09713 0.20399 0.0
C525 C 0.2179 0.09778 0.21465 0.0
C526 C 0.23172 0.08053 0.20803 0.0
C527 C 0.22083 0.06269 0.19069 0.0
H528 H 0.22639 0.11161 0.22807 0.0
H529 H 0.12915 0.9426 0.05792 0.0
H530 H 0.30925 0.20309 0.64434 0.0
H531 H 0.26409 0.21053 0.64623 0.0
H532 H 0.20184 0.11005 0.64774 0.0
H533 H 0.24758 0.10213 0.64561 0.0
H534 H 0.17985 0.14055 0.62304 0.0
H535 H 0.21497 0.15048 0.68976 0.0
H536 H 0.2536 0.16889 0.7171 0.0
H537 H 0.27827 0.26446 0.70486 0.0
H538 H 0.24015 0.24669 0.67723 0.0
H539 H 0.05747 0.17613 0.64496 0.0
H540 H 0.09257 0.15417 0.64747 0.0
H541 H 0.1731 0.24794 0.64759 0.0
H542 H 0.13821 0.27004 0.64569 0.0
H543 H 0.17943 0.21161 0.67507 0.0
H544 H 0.14956 0.20152 0.60562 0.0
H545 H 0.11164 0.1832 0.57786 0.0
H546 H 0.07677 0.08727 0.59569 0.0
H547 H 0.11425 0.10508 0.62371 0.0
C548 C 0.28608 0.18236 0.6451 0.0
C549 C 0.28221 0.15192 0.64502 0.0
C550 C 0.26017 0.18675 0.64625 0.0
C551 C 0.22958 0.16092 0.64753 0.0
C552 C 0.2253 0.13036 0.64692 0.0
C553 C 0.25144 0.12587 0.64573 0.0
C554 C 0.20257 0.1666 0.64949 0.0
C555 C 0.1793 0.15548 0.63468 0.0
C556 C 0.20204 0.1864 0.66454 0.0
C557 C 0.22477 0.19722 0.68134 0.0
C558 C 0.22876 0.17544 0.69281 0.0
C559 C 0.25056 0.18576 0.70838 0.0
C560 C 0.26841 0.21782 0.7127 0.0
C561 C 0.26443 0.23962 0.7015 0.0
C562 C 0.24268 0.22943 0.6859 0.0
C563 C 0.08264 0.1921 0.64576 0.0
C564 C 0.095 0.2249 0.64506 0.0
C565 C 0.1027 0.17948 0.64701 0.0
C566 C 0.13553 0.19937 0.64752 0.0
C567 C 0.14786 0.23209 0.64717 0.0
C568 C 0.12787 0.24471 0.6459 0.0
C569 C 0.1573 0.18643 0.64826 0.0
C570 C 0.17959 0.1962 0.66363 0.0
C571 C 0.15682 0.16533 0.63378 0.0
C572 C 0.13443 0.15464 0.61688 0.0
C573 C 0.13364 0.17654 0.6037 0.0
C574 C 0.11226 0.16624 0.58791 0.0
C575 C 0.09173 0.1341 0.58505 0.0
C576 C 0.09263 0.11217 0.59794 0.0
C577 C 0.11395 0.12235 0.61377 0.0
H578 H 0.0752 0.12617 0.57282 0.0
H579 H 0.28529 0.22577 0.72475 0.0
H580 H 0.90504 0.03347 0.14068 0.0
H581 H 0.96225 0.06803 0.1385 0.0
H582 H 0.95066 0.1491 0.14497 0.0
H583 H 0.89373 0.115 0.14631 0.0
H584 H 0.99157 0.15927 0.11668 0.0
H585 H 0.97453 0.1179 0.184 0.0
H586 H 0.9562 0.07555 0.20903 0.0
H587 H 1.01643 0.04437 0.18414 0.0
H588 H 0.03487 0.08637 0.15881 0.0
H589 H 0.12521 0.28363 0.15602 0.0
H590 H 0.07407 0.23641 0.15336 0.0
H591 H 0.11821 0.18334 0.13553 0.0
H592 H 0.17038 0.23123 0.13805 0.0
H593 H 0.0649 0.15211 0.16458 0.0
H594 H 0.08807 0.20023 0.10053 0.0
H595 H 0.10716 0.2446 0.07699 0.0
H596 H 0.03513 0.26384 0.09639 0.0
H597 H 1.01593 0.21992 0.12031 0.0
C598 C 0.91467 0.05868 0.14145 0.0
C599 C 0.89469 0.0714 0.14379 0.0
C600 C 0.94744 0.0784 0.14039 0.0
C601 C 0.96089 0.11122 0.14176 0.0
C602 C 0.94094 0.12389 0.1439 0.0
C603 C 0.90831 0.10428 0.14488 0.0
C604 C 0.99563 0.13279 0.14095 0.0
C605 C 1.00753 0.15764 0.12718 0.0
C606 C 1.01681 0.13017 0.15415 0.0
C607 C 1.0058 0.10503 0.16939 0.0
C608 C 0.98369 0.10186 0.18378 0.0
C609 C 0.97332 0.07797 0.19804 0.0
C610 C 0.98511 0.05726 0.19816 0.0
C611 C 1.00731 0.06042 0.18402 0.0
C612 C 1.01774 0.08427 0.16972 0.0
C613 C 0.12436 0.26201 0.15163 0.0
C614 C 0.15203 0.26139 0.14704 0.0
C615 C 0.09495 0.23496 0.15014 0.0
C616 C 0.09229 0.20648 0.14403 0.0
C617 C 0.11981 0.20517 0.14023 0.0
C618 C 0.14954 0.23252 0.14165 0.0
C619 C 0.06035 0.17901 0.14081 0.0
C620 C 0.049 0.15318 0.15378 0.0
C621 C 0.03954 0.18069 0.1269 0.0
C622 C 0.05065 0.20683 0.11228 0.0
C623 C 0.07641 0.21403 0.09987 0.0
C624 C 0.08725 0.2391 0.08644 0.0
C625 C 0.07239 0.25705 0.0852 0.0
C626 C 0.04661 0.24991 0.09736 0.0
C627 C 0.03571 0.22489 0.11083 0.0
H628 H 0.08082 0.27646 0.07481 0.0
H629 H 0.97709 0.0388 0.20923 0.0
H630 H 0.87878 0.89593 0.6668 0.0
H631 H 0.90265 0.95306 0.66618 0.0
H632 H 0.82629 0.94446 0.62964 0.0
H633 H 0.80341 0.88753 0.62906 0.0
H634 H 0.87889 0.98954 0.61581 0.0
H635 H 0.83308 0.96063 0.68136 0.0
H636 H 0.825 0.93651 0.71458 0.0
H637 H 0.92335 0.99545 0.72767 0.0
H638 H 0.93207 1.01965 0.69442 0.0
H639 H 0.86315 0.11996 0.63561 0.0
H640 H 0.85856 0.06836 0.63642 0.0
H641 H 0.95564 0.10993 0.65461 0.0
H642 H 0.96077 0.1626 0.65354 0.0
H643 H 0.90492 0.05238 0.67759 0.0
H644 H 0.94707 0.08712 0.61261 0.0
H645 H 0.9513 0.11213 0.58009 0.0
H646 H 0.85593 0.04222 0.56643 0.0
H647 H 0.85093 1.01711 0.59902 0.0
C648 C 0.86716 0.90613 0.65845 0.0
C649 C 0.83906 0.8869 0.64796 0.0
C650 C 0.88071 0.93889 0.65831 0.0
C651 C 0.86617 0.95318 0.64802 0.0
C652 C 0.83802 0.93406 0.6377 0.0
C653 C 0.82467 0.90136 0.63762 0.0
C654 C 0.88018 0.98801 0.64776 0.0
C655 C 0.88449 1.00319 0.62935 0.0
C656 C 0.88853 1.00618 0.66536 0.0
C657 C 0.88329 0.99166 0.68533 0.0
C658 C 0.85302 0.96826 0.69127 0.0
C659 C 0.84832 0.95461 0.71011 0.0
C660 C 0.87366 0.96436 0.7232 0.0
C661 C 0.90375 0.98786 0.7175 0.0
C662 C 0.90859 1.00157 0.69867 0.0
C663 C 0.88364 0.11836 0.63986 0.0
C664 C 0.91233 0.14544 0.64462 0.0
C665 C 0.88095 0.08878 0.64023 0.0
C666 C 0.90674 0.0854 0.64552 0.0
C667 C 0.93548 0.11219 0.65048 0.0
C668 C 0.93839 0.14217 0.6498 0.0
C669 C 0.90269 0.05341 0.64575 0.0
C670 C 0.90009 0.03875 0.66409 0.0
C671 C 0.89555 0.03561 0.62812 0.0
C672 C 0.89859 0.05032 0.60833 0.0
C673 C 0.92692 0.0772 0.60273 0.0
C674 C 0.92947 0.09138 0.58427 0.0
C675 C 0.90389 0.07879 0.57121 0.0
C676 C 0.87574 0.05195 0.57656 0.0
C677 C 0.87305 0.0377 0.59502 0.0
H678 H 0.9059 0.08983 0.55693 0.0
H679 H 0.86997 0.95377 0.73778 0.0
H680 H 0.93408 0.78565 0.13844 0.0
H681 H 0.90017 0.80861 0.13597 0.0
H682 H 0.98097 0.90158 0.14186 0.0
H683 H 1.01516 0.87858 0.1452 0.0
H684 H 0.93256 0.89658 0.16335 0.0
H685 H 0.94692 0.87644 0.09688 0.0
H686 H 0.94987 0.84635 0.06858 0.0
H687 H 0.85181 0.77818 0.0754 0.0
H688 H 0.84836 0.80756 0.10395 0.0
H689 H 0.81871 0.94645 0.14024 0.0
H690 H 0.86654 0.94218 0.13816 0.0
H691 H 0.80916 0.84106 0.13584 0.0
H692 H 0.76189 0.845 0.13767 0.0
H693 H 0.85518 0.86281 0.10823 0.0
H694 H 0.84636 0.88076 0.17918 0.0
H695 H 0.84495 0.91295 0.20676 0.0
H696 H 0.9352 0.98934 0.18923 0.0
H697 H 0.93701 0.95766 0.16147 0.0
C698 C 0.94471 0.81096 0.13948 0.0
C699 C 0.97742 0.83021 0.14203 0.0
C700 C 0.92529 0.82412 0.13781 0.0
C701 C 0.93805 0.85689 0.13838 0.0
C702 C 0.97061 0.87625 0.14124 0.0
C703 C 0.99014 0.86306 0.14297 0.0
C704 C 0.917 0.87046 0.13604 0.0
C705 C 0.91607 0.88972 0.15108 0.0
C706 C 0.89563 0.86184 0.11995 0.0
C707 C 0.89743 0.84416 0.10264 0.0
C708 C 0.92602 0.85493 0.09243 0.0
C709 C 0.92778 0.838 0.07633 0.0
C710 C 0.90105 0.81036 0.07021 0.0
C711 C 0.87249 0.79961 0.08015 0.0
C712 C 0.87061 0.81642 0.09628 0.0
C713 C 0.81635 0.92335 0.13926 0.0
C714 C 0.78638 0.89609 0.13916 0.0
C715 C 0.8437 0.92094 0.13811 0.0
C716 C 0.84143 0.89125 0.13688 0.0
C717 C 0.81155 0.86422 0.13666 0.0
C718 C 0.78444 0.86656 0.13781 0.0
C719 C 0.86968 0.88746 0.13604 0.0
C720 C 0.87209 0.87017 0.12028 0.0
C721 C 0.8926 0.89825 0.1513 0.0
C722 C 0.89168 0.91698 0.16818 0.0
C723 C 0.86583 0.90447 0.18118 0.0
C724 C 0.86497 0.92261 0.19685 0.0
C725 C 0.88994 0.9532 0.19973 0.0
C726 C 0.91588 0.96567 0.18699 0.0
C727 C 0.91685 0.94762 0.1713 0.0
H728 H 0.88923 0.96723 0.21184 0.0
H729 H 0.90246 0.79728 0.05775 0.0
H730 H 0.90307 0.80404 0.62566 0.0
H731 H 0.95697 0.8495 0.62545 0.0
H732 H 0.98679 0.80049 0.66538 0.0
H733 H 0.93357 0.75496 0.66524 0.0
H734 H 1.00854 0.86796 0.67462 0.0
H735 H 1.0023 0.79748 0.62145 0.0
H736 H 0.97916 0.76746 0.59074 0.0
H737 H 0.99928 0.85252 0.56025 0.0
H738 H 1.02211 0.88298 0.59091 0.0
H739 H 0.17407 0.94173 0.67112 0.0
H740 H 0.11707 0.90599 0.67158 0.0
H741 H 0.10818 0.94647 0.61661 0.0
H742 H 0.16542 0.98112 0.6157 0.0
H743 H 0.07295 0.88797 0.61395 0.0
H744 H 0.08428 0.96046 0.66407 0.0
H745 H 0.10568 0.99291 0.6941 0.0
H746 H 0.07409 0.90957 0.72954 0.0
H747 H 0.05288 0.8766 0.69968 0.0
C748 C 0.92111 0.80314 0.6345 0.0
C749 C 0.91422 0.77589 0.64533 0.0
C750 C 0.95181 0.82905 0.63435 0.0
C751 C 0.97579 0.82826 0.6454 0.0
C752 C 0.9686 0.80156 0.6568 0.0
C753 C 0.93823 0.77551 0.6566 0.0
C754 C 1.00886 0.85438 0.64438 0.0
C755 C 1.02277 0.87239 0.66141 0.0
C756 C 1.02699 0.8607 0.62695 0.0
C757 C 1.01352 0.84242 0.60852 0.0
C758 C 1.0015 0.80973 0.60825 0.0
C759 C 0.98851 0.79264 0.59085 0.0
C760 C 0.98765 0.80806 0.57357 0.0
C761 C 0.99989 0.84061 0.57366 0.0
C762 C 1.01286 0.85779 0.59104 0.0
C763 C 0.15984 0.94308 0.65924 0.0
C764 C 0.17407 0.96414 0.64339 0.0
C765 C 0.12721 0.92279 0.65954 0.0
C766 C 0.108 0.92378 0.64431 0.0
C767 C 0.12231 0.94513 0.62856 0.0
C768 C 0.15501 0.96495 0.62804 0.0
C769 C 0.07325 0.90166 0.64438 0.0
C770 C 0.05889 0.88419 0.62715 0.0
C771 C 0.05455 0.89635 0.66155 0.0
C772 C 0.06721 0.91606 0.67959 0.0
C773 C 0.08209 0.94905 0.67825 0.0
C774 C 0.09416 0.96754 0.69525 0.0
C775 C 0.09131 0.95332 0.71371 0.0
C776 C 0.07631 0.92056 0.71523 0.0
C777 C 0.06422 0.90195 0.69827 0.0
H778 H 0.10067 0.96768 0.72686 0.0
H779 H 0.97758 0.79479 0.56011 0.0
H780 H 0.16772 0.94104 0.42306 0.0
H781 H 0.11423 0.9332 0.42023 0.0
H782 H 0.08255 0.84281 0.39306 0.0
H783 H 0.13544 0.85033 0.39586 0.0
H784 H 0.05747 0.87596 0.37483 0.0
H785 H 0.07171 0.84683 0.44146 0.0
H786 H 0.0982 0.85706 0.47399 0.0
H787 H 0.07938 0.93243 0.48427 0.0
H788 H 0.05315 0.9229 0.45165 0.0
H789 H 0.893 0.78697 0.39096 0.0
H790 H 0.94999 0.80863 0.38873 0.0
H791 H 0.96512 0.88793 0.42434 0.0
H792 H 0.90813 0.86577 0.42708 0.0
H793 H 1.00092 0.8678 0.43743 0.0
H794 H 0.98096 0.8934 0.37276 0.0
H795 H 0.95498 0.88422 0.34012 0.0
H796 H 0.98503 0.81819 0.32555 0.0
H797 H 1.01082 0.82662 0.35821 0.0
C798 C 0.14938 0.91966 0.41633 0.0
C799 C 0.15567 0.89609 0.40999 0.0
C800 C 0.11887 0.91519 0.41475 0.0
C801 C 0.09435 0.88725 0.40662 0.0
C802 C 0.10104 0.86447 0.39943 0.0
C803 C 0.13129 0.86874 0.4012 0.0
C804 C 0.06126 0.88053 0.4066 0.0
C805 C 0.045 0.87408 0.38849 0.0
C806 C 0.04527 0.87885 0.42439 0.0
C807 C 0.06082 0.88441 0.44403 0.0
C808 C 0.07345 0.86574 0.45059 0.0
C809 C 0.08837 0.87138 0.46905 0.0
C810 C 0.09056 0.89544 0.48116 0.0
C811 C 0.07773 0.91385 0.47486 0.0
C812 C 0.06282 0.90833 0.45639 0.0
C813 C 0.90854 0.8092 0.39809 0.0
C814 C 0.89616 0.82465 0.40922 0.0
C815 C 0.94114 0.82167 0.39676 0.0
C816 C 0.96203 0.85021 0.40615 0.0
C817 C 0.9496 0.8659 0.41698 0.0
C818 C 0.91703 0.85322 0.41854 0.0
C819 C 0.9967 0.86276 0.40561 0.0
C820 C 1.01332 0.8702 0.42365 0.0
C821 C 1.01304 0.86557 0.38772 0.0
C822 C 0.99761 0.86047 0.36802 0.0
C823 C 0.98183 0.87674 0.36266 0.0
C824 C 0.96717 0.8717 0.34414 0.0
C825 C 0.9683 0.85058 0.33079 0.0
C826 C 0.98416 0.83452 0.33591 0.0
C827 C 0.99883 0.83945 0.35442 0.0
H828 H 0.95693 0.84671 0.31646 0.0
H829 H 0.10212 0.89977 0.49545 0.0
H830 H 0.12255 0.88104 0.92539 0.0
H831 H 0.15637 0.93782 0.9265 0.0
H832 H 0.09116 0.94936 0.88917 0.0
H833 H 0.05807 0.89221 0.88678 0.0
H834 H 0.1484 0.99039 0.87872 0.0
H835 H 0.09469 0.96165 0.94044 0.0
H836 H 0.07431 0.93164 0.97154 0.0
H837 H 0.16878 0.96341 0.99148 0.0
H838 H 0.18974 0.99326 0.96037 0.0
H839 H 0.24268 0.15627 0.90258 0.0
H840 H 0.19548 0.10357 0.90122 0.0
H841 H 0.2477 0.06393 0.92843 0.0
H842 H 0.29441 0.11578 0.92977 0.0
H843 H 0.18771 0.04032 0.94438 0.0
H844 H 0.23903 0.06149 0.8794 0.0
H845 H 0.25848 0.09217 0.84842 0.0
H846 H 0.16558 0.07562 0.8354 0.0
H847 H 0.14569 0.04519 0.86647 0.0
C848 C 0.11557 0.89546 0.91702 0.0
C849 C 0.08736 0.88178 0.90604 0.0
C850 C 0.13475 0.92809 0.91798 0.0
C851 C 0.12592 0.94799 0.90838 0.0
C852 C 0.0983 0.93454 0.89691 0.0
C853 C 0.07925 0.90179 0.89571 0.0
C854 C 0.14578 0.98275 0.91036 0.0
C855 C 0.15642 1.00135 0.89312 0.0
C856 C 0.15626 0.99728 0.92913 0.0
C857 C 0.14378 0.97958 0.94799 0.0
C858 C 0.11112 0.96211 0.9514 0.0
C859 C 0.09946 0.94513 0.96904 0.0
C860 C 0.12023 0.94558 0.98347 0.0
C861 C 0.15271 0.96308 0.98029 0.0
C862 C 0.1645 0.98008 0.96267 0.0
C863 C 0.24391 0.1363 0.90841 0.0
C864 C 0.27235 0.14013 0.91608 0.0
C865 C 0.21701 0.10627 0.90759 0.0
C866 C 0.21819 0.07986 0.91465 0.0
C867 C 0.24624 0.08396 0.92293 0.0
C868 C 0.27302 0.11366 0.92355 0.0
C869 C 0.19107 0.04746 0.91277 0.0
C870 C 0.17902 0.02933 0.93005 0.0
C871 C 0.17906 0.0335 0.89409 0.0
C872 C 0.19096 0.0514 0.87533 0.0
C873 C 0.22281 0.06459 0.86999 0.0
C874 C 0.23391 0.0819 0.85241 0.0
C875 C 0.2133 0.08592 0.83998 0.0
C876 C 0.18153 0.07254 0.84506 0.0
C877 C 0.17033 0.05525 0.86264 0.0
H878 H 0.22194 0.09934 0.82638 0.0
H879 H 0.11116 0.9324 0.99711 0.0
H880 H 0.11187 0.23468 0.42142 0.0
H881 H 0.1175 0.18775 0.41863 0.0
H882 H 0.21135 0.24521 0.39539 0.0
H883 H 0.20583 0.29154 0.39779 0.0
H884 H 0.18116 0.19135 0.37547 0.0
H885 H 0.19761 0.22351 0.4448 0.0
H886 H 0.18113 0.23487 0.4768 0.0
H887 H 0.10272 0.14052 0.47913 0.0
H888 H 0.11856 0.12874 0.447 0.0
H889 H 0.27233 0.12103 0.39798 0.0
H890 H 0.24872 0.1547 0.39649 0.0
H891 H 0.16033 0.07763 0.41698 0.0
H892 H 0.18394 0.04385 0.41869 0.0
H893 H 0.17681 0.13292 0.43675 0.0
H894 H 0.16619 0.09859 0.36988 0.0
H895 H 0.18313 0.0876 0.33798 0.0
H896 H 0.2503 0.18582 0.33072 0.0
H897 H 0.2341 0.19735 0.36275 0.0
C898 C 0.13353 0.23717 0.41552 0.0
C899 C 0.1585 0.26694 0.41004 0.0
C900 C 0.13678 0.21038 0.41401 0.0
C901 C 0.16501 0.21301 0.40698 0.0
C902 C 0.18936 0.24253 0.40085 0.0
C903 C 0.1862 0.26911 0.40238 0.0
C904 C 0.17038 0.18572 0.40668 0.0
C905 C 0.18025 0.1786 0.38888 0.0
C906 C 0.16832 0.16841 0.42403 0.0
C907 C 0.15905 0.17536 0.44342 0.0
C908 C 0.17675 0.20526 0.45209 0.0
C909 C 0.16754 0.21176 0.47025 0.0
C910 C 0.14084 0.18846 0.47996 0.0
C911 C 0.12336 0.15856 0.47157 0.0
C912 C 0.13244 0.15196 0.4534 0.0
C913 C 0.24788 0.11126 0.40218 0.0
C914 C 0.22999 0.07975 0.40839 0.0
C915 C 0.23434 0.13045 0.4012 0.0
C916 C 0.20265 0.1186 0.40645 0.0
C917 C 0.18476 0.08722 0.41278 0.0
C918 C 0.19823 0.0679 0.4136 0.0
C919 C 0.18866 0.13938 0.40568 0.0
C920 C 0.17715 0.14522 0.42325 0.0
C921 C 0.18925 0.15558 0.38812 0.0
C922 C 0.19906 0.1488 0.36881 0.0
C923 C 0.18474 0.11782 0.36157 0.0
C924 C 0.19419 0.1115 0.34344 0.0
C925 C 0.21782 0.13599 0.33235 0.0
C926 C 0.23201 0.16687 0.33934 0.0
C927 C 0.22268 0.17332 0.35747 0.0
H928 H 0.22509 0.13104 0.31831 0.0
H929 H 0.13374 0.19354 0.49401 0.0
H930 H 0.15702 0.20236 0.93334 0.0
H931 H 0.10038 0.18163 0.93083 0.0
H932 H 0.10834 0.19159 0.86712 0.0
H933 H 0.16546 0.21332 0.86977 0.0
H934 H 0.07225 0.21125 0.87837 0.0
H935 H 0.07321 0.11734 0.89146 0.0
H936 H 0.08783 0.08162 0.90812 0.0
H937 H 0.04506 0.08801 0.96207 0.0
H938 H 1.03059 0.12417 0.94583 0.0
H939 H 0.89137 0.09695 0.89839 0.0
H940 H 0.94415 0.10359 0.89368 0.0
H941 H 0.98611 0.20034 0.91224 0.0
H942 H 0.93419 0.19421 0.91648 0.0
H943 H 0.99387 0.11858 0.91673 0.0
H944 H 0.04965 0.24737 0.88659 0.0
H945 H 0.03352 0.27889 0.86629 0.0
H946 H 0.96039 0.19471 0.83933 0.0
H947 H 0.97636 0.16271 0.85924 0.0
C948 C 0.14663 0.19964 0.91879 0.0
C949 C 0.16562 0.20914 0.90175 0.0
C950 C 0.11415 0.18769 0.91733 0.0
C951 C 0.09974 0.18436 0.89874 0.0
C952 C 0.11874 0.19377 0.88165 0.0
C953 C 0.15137 0.20617 0.88315 0.0
C954 C 0.06524 0.17284 0.89737 0.0
C955 C 0.05517 0.19084 0.88665 0.0
C956 C 0.04251 0.14556 0.90758 0.0
C957 C 0.05098 0.12365 0.91744 0.0
C958 C 0.06709 0.1113 0.90692 0.0
C959 C 0.07533 0.09095 0.91628 0.0
C960 C 0.06742 0.08259 0.93615 0.0
C961 C 0.05118 0.09451 0.94668 0.0
C962 C 0.04291 0.11491 0.93739 0.0
C963 C 0.9119 0.11957 0.9015 0.0
C964 C 0.9085 0.14515 0.90752 0.0
C965 C 0.94203 0.12335 0.89881 0.0
C966 C 0.96917 0.15271 0.90214 0.0
C967 C 0.96564 0.17772 0.90899 0.0
C968 C 0.93579 0.1741 0.91149 0.0
C969 C 1.0014 0.15786 0.89851 0.0
C970 C 1.01099 0.13869 0.90824 0.0
C971 C 1.02353 0.18342 0.88681 0.0
C972 C 1.01412 0.20262 0.87452 0.0
C973 C 1.03026 0.23558 0.87624 0.0
C974 C 1.02111 0.25354 0.86482 0.0
C975 C 0.9959 0.2388 0.85156 0.0
C976 C 0.97985 0.20608 0.84965 0.0
C977 C 0.98893 0.18803 0.86101 0.0
H978 H 0.98884 0.25274 0.84275 0.0
H979 H 0.07383 0.06683 0.94337 0.0
H980 H 0.95419 0.1554 0.44653 0.0
H981 H 0.92099 0.0985 0.44352 0.0
H982 H 0.95888 0.10208 0.38534 0.0
H983 H 0.99312 0.15903 0.38844 0.0
H984 H 0.89467 0.06617 0.38595 0.0
H985 H 0.98071 0.07241 0.42197 0.0
H986 H 1.02104 0.09047 0.44828 0.0
H987 H 0.94866 0.04869 0.49253 0.0
H988 H 0.90785 0.03077 0.46649 0.0
H989 H 0.82339 0.88724 0.41349 0.0
H990 H 0.86967 0.94053 0.41178 0.0
H991 H 0.8087 0.98029 0.41428 0.0
H992 H 0.76299 0.92803 0.41575 0.0
H993 H 0.89274 0.99178 0.43685 0.0
H994 H 0.83405 0.04197 0.38425 0.0
H995 H 0.79534 0.02338 0.35694 0.0
H996 H 0.8175 0.95129 0.34311 0.0
H997 H 0.85669 0.96973 0.37013 0.0
C998 C 0.95596 0.14418 0.43319 0.0
C999 C 0.97659 0.16204 0.41776 0.0
C1000 C 0.93682 0.11155 0.43148 0.0
C1001 C 0.93767 0.09595 0.4143 0.0
C1002 C 0.95786 0.11362 0.39875 0.0
C1003 C 0.97726 0.14626 0.40051 0.0
C1004 C 0.91661 0.06134 0.41241 0.0
C1005 C 0.8944 0.04989 0.39699 0.0
C1006 C 0.91678 0.03993 0.42652 0.0
C1007 C 0.9412 0.05042 0.44227 0.0
C1008 C 0.97337 0.06726 0.43732 0.0
C1009 C 0.99632 0.07744 0.45218 0.0
C1010 C 0.98741 0.07077 0.47207 0.0
C1011 C 0.95552 0.05384 0.47712 0.0
C1012 C 0.93247 0.04363 0.46231 0.0
C1013 C 0.81992 0.90737 0.41367 0.0
C1014 C 0.78935 0.90319 0.41455 0.0
C1015 C 0.84637 0.93779 0.41273 0.0
C1016 C 0.84261 0.96441 0.41253 0.0
C1017 C 0.81221 0.96017 0.41396 0.0
C1018 C 0.786 0.93007 0.41486 0.0
C1019 C 0.86999 0.99689 0.41087 0.0
C1020 C 0.89334 1.00798 0.42563 0.0
C1021 C 0.87121 1.01794 0.39595 0.0
C1022 C 0.84823 1.00717 0.37931 0.0
C1023 C 0.83085 0.02231 0.37529 0.0
C1024 C 0.80877 1.01175 0.35988 0.0
C1025 C 0.80392 0.98613 0.34832 0.0
C1026 C 0.82122 0.97108 0.35211 0.0
C1027 C 0.84336 0.98157 0.36748 0.0
H1028 H 0.78677 0.97796 0.33643 0.0
H1029 H 1.00522 0.07869 0.48356 0.0
H1030 H 0.84996 0.74272 0.90555 0.0
H1031 H 0.84196 0.78773 0.90304 0.0
H1032 H 0.93746 0.84923 0.92239 0.0
H1033 H 0.94584 0.8039 0.92495 0.0
H1034 H 0.89047 0.85864 0.94191 0.0
H1035 H 0.92314 0.85192 0.87633 0.0
H1036 H 0.92237 0.82398 0.84593 0.0
H1037 H 0.82594 0.79831 0.83554 0.0
H1038 H 0.82594 0.82558 0.8662 0.0
H1039 H 0.87424 0.99191 0.92293 0.0
H1040 H 0.89464 0.95549 0.92227 0.0
H1041 H 0.8094 0.88597 0.89344 0.0
H1042 H 0.78927 0.92274 0.89363 0.0
H1043 H 0.85788 0.8847 0.87807 0.0
H1044 H 0.82227 0.88488 0.94448 0.0
H1045 H 0.81992 0.90887 0.97604 0.0
H1046 H 0.91856 0.94368 0.98554 0.0
H1047 H 0.92159 0.92025 0.95388 0.0
C1048 C 0.86936 0.76575 0.90933 0.0
C1049 C 0.89858 0.76968 0.91548 0.0
C1050 C 0.86474 0.7915 0.90779 0.0
C1051 C 0.88915 0.82182 0.9124 0.0
C1052 C 0.91834 0.82598 0.91872 0.0
C1053 C 0.92313 0.80012 0.92007 0.0
C1054 C 0.8836 0.84883 0.91065 0.0
C1055 C 0.88403 0.86489 0.9279 0.0
C1056 C 0.87436 0.85628 0.89244 0.0
C1057 C 0.87449 0.84064 0.87366 0.0
C1058 C 0.90171 0.84017 0.86763 0.0
C1059 C 0.9014 0.82444 0.85034 0.0
C1060 C 0.8741 0.80932 0.83879 0.0
C1061 C 0.84708 0.81002 0.8445 0.0
C1062 C 0.84722 0.82564 0.86184 0.0
C1063 C 0.85993 0.96889 0.91637 0.0
C1064 C 0.83004 0.96003 0.90849 0.0
C1065 C 0.87158 0.94806 0.91604 0.0
C1066 C 0.85332 0.91769 0.90818 0.0
C1067 C 0.82392 0.90922 0.89964 0.0
C1068 C 0.81243 0.93023 0.89974 0.0
C1069 C 0.86431 0.89439 0.90942 0.0
C1070 C 0.8648 0.87891 0.89206 0.0
C1071 C 0.87405 0.88722 0.9276 0.0
C1072 C 0.87223 0.90112 0.94671 0.0
C1073 C 0.8435 0.89784 0.95323 0.0
C1074 C 0.84204 0.91131 0.97114 0.0
C1075 C 0.86909 0.92787 0.98276 0.0
C1076 C 0.89764 0.9309 0.97651 0.0
C1077 C 0.89924 0.91752 0.95859 0.0
H1078 H 0.86791 0.93829 0.99662 0.0
H1079 H 0.87387 0.79708 0.82542 0.0
H1080 H 0.10173 0.69233 0.139 0.0
H1081 H 0.10717 0.64525 0.13745 0.0
H1082 H 0.20541 0.70125 0.15303 0.0
H1083 H 0.20037 0.74803 0.15429 0.0
H1084 H 0.19932 0.66418 0.12342 0.0
H1085 H 0.14862 0.65079 0.18655 0.0
H1086 H 0.1072 0.64611 0.20931 0.0
H1087 H 0.03818 0.56487 0.17763 0.0
H1088 H 0.07916 0.56933 0.15451 0.0
H1089 H 0.23472 0.54427 0.14853 0.0
H1090 H 0.22553 0.58892 0.14984 0.0
H1091 H 0.12899 0.52844 0.13203 0.0
H1092 H 0.13773 0.48361 0.13124 0.0
H1093 H 0.13232 0.56649 0.16158 0.0
H1094 H 0.18406 0.5793 0.09909 0.0
H1095 H 0.226 0.5842 0.07673 0.0
H1096 H 0.29371 0.66703 0.1077 0.0
H1097 H 0.25224 0.66237 0.13044 0.0
C1098 C 0.12443 0.69454 0.14219 0.0
C1099 C 0.15059 0.72407 0.14671 0.0
C1100 C 0.12751 0.66759 0.14135 0.0
C1101 C 0.15672 0.66958 0.1452 0.0
C1102 C 0.18268 0.699 0.14988 0.0
C1103 C 0.17967 0.72582 0.15065 0.0
C1104 C 0.16079 0.64141 0.14405 0.0
C1105 C 0.18485 0.64297 0.13196 0.0
C1106 C 0.14154 0.61335 0.15478 0.0
C1107 C 0.11689 0.61061 0.16867 0.0
C1108 C 0.12456 0.63209 0.18434 0.0
C1109 C 0.10118 0.62944 0.19732 0.0
C1110 C 0.07006 0.60526 0.19488 0.0
C1111 C 0.06228 0.58362 0.17948 0.0
C1112 C 0.08558 0.58619 0.16644 0.0
C1113 C 0.21149 0.54042 0.14499 0.0
C1114 C 0.18706 0.51031 0.13962 0.0
C1115 C 0.20631 0.56605 0.1456 0.0
C1116 C 0.17662 0.56219 0.14081 0.0
C1117 C 0.15212 0.5321 0.13571 0.0
C1118 C 0.15728 0.50652 0.13506 0.0
C1119 C 0.17106 0.58946 0.14113 0.0
C1120 C 0.1467 0.58769 0.15302 0.0
C1121 C 0.19012 0.61741 0.13027 0.0
C1122 C 0.21509 0.62031 0.11658 0.0
C1123 C 0.20794 0.59842 0.10123 0.0
C1124 C 0.23162 0.60118 0.08847 0.0
C1125 C 0.26252 0.62586 0.09083 0.0
C1126 C 0.26978 0.64789 0.10592 0.0
C1127 C 0.24619 0.64522 0.11873 0.0
H1128 H 0.28082 0.62796 0.08093 0.0
H1129 H 0.05198 0.60325 0.20495 0.0
H1130 H 0.67674 0.13156 0.63319 0.0
H1131 H 0.62297 0.12156 0.6367 0.0
H1132 H 0.65828 0.21351 0.66247 0.0
H1133 H 0.71239 0.22343 0.65929 0.0
H1134 H 0.60718 0.17195 0.68169 0.0
H1135 H 0.63343 0.1975 0.61311 0.0
H1136 H 0.65198 0.193 0.57998 0.0
H1137 H 0.57684 0.09721 0.57587 0.0
H1138 H 0.55808 0.10101 0.60911 0.0
H1139 H 0.47325 0.18856 0.66442 0.0
H1140 H 0.52482 0.19266 0.66545 0.0
H1141 H 0.48449 0.0981 0.64303 0.0
H1142 H 0.43242 0.09385 0.64175 0.0
H1143 H 0.53711 0.13876 0.62272 0.0
H1144 H 0.50942 0.11501 0.69115 0.0
H1145 H 0.49138 0.12083 0.72411 0.0
H1146 H 0.56944 0.21514 0.72816 0.0
H1147 H 0.58775 0.21004 0.69508 0.0
C1148 C 0.67311 0.14975 0.63954 0.0
C1149 C 0.69892 0.17848 0.64571 0.0
C1150 C 0.64229 0.14399 0.64153 0.0
C1151 C 0.63644 0.16701 0.64947 0.0
C1152 C 0.66211 0.1954 0.65621 0.0
C1153 C 0.69304 0.20107 0.6544 0.0
C1154 C 0.6036 0.16148 0.65048 0.0
C1155 C 0.59202 0.16508 0.66873 0.0
C1156 C 0.58339 0.15176 0.63371 0.0
C1157 C 0.59455 0.14945 0.61368 0.0
C1158 C 0.621 0.17541 0.60521 0.0
C1159 C 0.63153 0.17299 0.5864 0.0
C1160 C 0.61565 0.14481 0.57585 0.0
C1161 C 0.58914 0.11901 0.58407 0.0
C1162 C 0.57854 0.12128 0.60289 0.0
C1163 C 0.47513 0.16842 0.65987 0.0
C1164 C 0.44856 0.14085 0.65295 0.0
C1165 C 0.50474 0.17079 0.66059 0.0
C1166 C 0.50863 0.14564 0.65446 0.0
C1167 C 0.48209 0.11781 0.64788 0.0
C1168 C 0.45229 0.11535 0.64725 0.0
C1169 C 0.54071 0.14927 0.65391 0.0
C1170 C 0.55221 0.14543 0.63571 0.0
C1171 C 0.56087 0.159 0.67069 0.0
C1172 C 0.54982 0.16221 0.69056 0.0
C1173 C 0.5226 0.13709 0.69899 0.0
C1174 C 0.51235 0.14025 0.71772 0.0
C1175 C 0.52924 0.16836 0.72823 0.0
C1176 C 0.55639 0.19338 0.72001 0.0
C1177 C 0.56673 0.19035 0.70128 0.0
H1178 H 0.52135 0.17074 0.74275 0.0
H1179 H 0.62383 0.14299 0.56129 0.0
H1180 H 0.56434 0.66635 0.15282 0.0
H1181 H 0.52003 0.61251 0.15399 0.0
H1182 H 0.45633 0.64611 0.13897 0.0
H1183 H 0.50056 0.70027 0.13824 0.0
H1184 H 0.43255 0.6017 0.16839 0.0
H1185 H 0.4797 0.61239 0.10411 0.0
H1186 H 0.52322 0.62456 0.08097 0.0
H1187 H 0.53719 0.55315 0.10819 0.0
H1188 H 0.494 0.54085 0.13168 0.0
H1189 H 0.29901 0.46151 0.13881 0.0
H1190 H 0.34537 0.51371 0.13963 0.0
H1191 H 0.40413 0.47284 0.15063 0.0
H1192 H 0.35753 0.41999 0.14931 0.0
H1193 H 0.43194 0.52008 0.12487 0.0
H1194 H 0.38377 0.50732 0.18818 0.0
H1195 H 0.34019 0.49438 0.2114 0.0
H1196 H 0.32876 0.56911 0.18706 0.0
H1197 H 0.37193 0.58215 0.16343 0.0
C1198 C 0.54087 0.66242 0.15004 0.0
C1199 C 0.53608 0.68776 0.14545 0.0
C1200 C 0.51556 0.63151 0.15051 0.0
C1201 C 0.48483 0.62514 0.14634 0.0
C1202 C 0.47982 0.6504 0.14217 0.0
C1203 C 0.50518 0.68135 0.14163 0.0
C1204 C 0.45799 0.59214 0.14612 0.0
C1205 C 0.43225 0.58395 0.15872 0.0
C1206 C 0.45797 0.56865 0.13395 0.0
C1207 C 0.48384 0.57593 0.11978 0.0
C1208 C 0.49222 0.59946 0.10526 0.0
C1209 C 0.51679 0.60635 0.09207 0.0
C1210 C 0.53302 0.5897 0.09315 0.0
C1211 C 0.52463 0.56606 0.10739 0.0
C1212 C 0.50009 0.5591 0.12064 0.0
C1213 C 0.32173 0.46344 0.14141 0.0
C1214 C 0.32443 0.43642 0.14414 0.0
C1215 C 0.3483 0.49346 0.14196 0.0
C1216 C 0.37827 0.49739 0.14562 0.0
C1217 C 0.38125 0.47047 0.14791 0.0
C1218 C 0.35458 0.44025 0.14717 0.0
C1219 C 0.40629 0.52966 0.147 0.0
C1220 C 0.43227 0.53775 0.13465 0.0
C1221 C 0.40663 0.55301 0.15951 0.0
C1222 C 0.38096 0.54556 0.17392 0.0
C1223 C 0.37185 0.52088 0.18769 0.0
C1224 C 0.34722 0.51354 0.20094 0.0
C1225 C 0.33169 0.5309 0.2007 0.0
C1226 C 0.34081 0.55568 0.18723 0.0
C1227 C 0.36537 0.56307 0.17391 0.0
H1228 H 0.31264 0.52519 0.21096 0.0
H1229 H 0.55204 0.59507 0.08292 0.0
H1230 H 0.91723 0.55417 0.66374 0.0
H1231 H 0.92856 0.51103 0.66433 0.0
H1232 H 0.83331 0.44648 0.64582 0.0
H1233 H 0.8214 0.48929 0.64596 0.0
H1234 H 0.85178 0.4199 0.67336 0.0
H1235 H 0.8955 0.47781 0.6127 0.0
H1236 H 0.92879 0.52508 0.59261 0.0
H1237 H 1.01135 0.53669 0.62262 0.0
H1238 H 0.97849 0.4897 0.64309 0.0
H1239 H 0.86375 0.29427 0.63508 0.0
H1240 H 0.85782 0.34028 0.63875 0.0
H1241 H 0.95541 0.39565 0.65598 0.0
H1242 H 0.96183 0.34942 0.65176 0.0
H1243 H 0.93922 0.42867 0.6318 0.0
H1244 H 0.89527 0.36795 0.69086 0.0
H1245 H 0.86157 0.31973 0.71005 0.0
H1246 H 0.77911 0.31287 0.6827 0.0
H1247 H 0.81234 0.36084 0.66315 0.0
C1248 C 0.89846 0.53071 0.66018 0.0
C1249 C 0.86838 0.52531 0.65473 0.0
C1250 C 0.90512 0.50609 0.66028 0.0
C1251 C 0.88197 0.47555 0.65477 0.0
C1252 C 0.85164 0.46986 0.65001 0.0
C1253 C 0.84492 0.49444 0.64996 0.0
C1254 C 0.88944 0.44966 0.65351 0.0
C1255 C 0.87074 0.42175 0.66414 0.0
C1256 C 0.91472 0.45227 0.64191 0.0
C1257 C 0.93451 0.48045 0.62957 0.0
C1258 C 0.92073 0.49058 0.61512 0.0
C1259 C 0.93953 0.5173 0.60365 0.0
C1260 C 0.97216 0.53393 0.60638 0.0
C1261 C 0.98607 0.52382 0.62055 0.0
C1262 C 0.96738 0.49714 0.63208 0.0
C1263 C 0.88407 0.31618 0.63965 0.0
C1264 C 0.91324 0.31803 0.64333 0.0
C1265 C 0.88056 0.34252 0.64184 0.0
C1266 C 0.90592 0.37131 0.64815 0.0
C1267 C 0.9354 0.37361 0.65126 0.0
C1268 C 0.93906 0.34719 0.64885 0.0
C1269 C 0.90128 0.39875 0.65143 0.0
C1270 C 0.92049 0.42694 0.64119 0.0
C1271 C 0.87644 0.3964 0.66339 0.0
C1272 C 0.85633 0.36791 0.67545 0.0
C1273 C 0.86996 0.35609 0.68888 0.0
C1274 C 0.85094 0.32881 0.69982 0.0
C1275 C 0.81823 0.31322 0.69757 0.0
C1276 C 0.80445 0.32497 0.68443 0.0
C1277 C 0.82337 0.35224 0.67344 0.0
H1278 H 0.80355 0.29207 0.70604 0.0
H1279 H 0.98667 0.55461 0.59748 0.0
H1280 H 0.63176 0.94852 0.13564 0.0
H1281 H 0.57915 0.94306 0.13528 0.0
H1282 H 0.5389 0.84725 0.15588 0.0
H1283 H 0.59082 0.85227 0.15592 0.0
H1284 H 0.50559 0.84942 0.12621 0.0
H1285 H 0.54773 0.90808 0.1864 0.0
H1286 H 0.58605 0.95231 0.20689 0.0
H1287 H 0.57042 1.01672 0.17202 0.0
H1288 H 0.53229 0.97288 0.15114 0.0
H1289 H 0.35291 0.81627 0.15526 0.0
H1290 H 0.40723 0.82657 0.15546 0.0
H1291 H 0.43911 0.9188 0.13066 0.0
H1292 H 0.385 0.90893 0.1308 0.0
H1293 H 0.47718 0.92065 0.16096 0.0
H1294 H 0.43319 0.86062 0.10159 0.0
H1295 H 0.39433 0.81565 0.08182 0.0
H1296 H 0.41322 0.75292 0.1161 0.0
H1297 H 0.4519 0.79747 0.13627 0.0
C1298 C 0.61171 0.92641 0.14025 0.0
C1299 C 0.61555 0.90083 0.14572 0.0
C1300 C 0.58164 0.92332 0.14008 0.0
C1301 C 0.55497 0.89472 0.1456 0.0
C1302 C 0.55899 0.86947 0.15143 0.0
C1303 C 0.58882 0.87245 0.15149 0.0
C1304 C 0.52264 0.89039 0.1448 0.0
C1305 C 0.49936 0.86484 0.13401 0.0
C1306 C 0.51454 0.91088 0.15454 0.0
C1307 C 0.53743 0.93725 0.16707 0.0
C1308 C 0.55266 0.93171 0.183 0.0
C1309 C 0.57431 0.9567 0.1947 0.0
C1310 C 0.58074 0.98732 0.19072 0.0
C1311 C 0.56546 0.993 0.17506 0.0
C1312 C 0.54381 0.96809 0.1633 0.0
C1313 C 0.37149 0.83878 0.14992 0.0
C1314 C 0.36454 0.86167 0.14288 0.0
C1315 C 0.40251 0.84458 0.14993 0.0
C1316 C 0.42724 0.87338 0.1429 0.0
C1317 C 0.42043 0.89639 0.13609 0.0
C1318 C 0.38942 0.89057 0.13599 0.0
C1319 C 0.46018 0.87944 0.14264 0.0
C1320 C 0.48352 0.90534 0.15314 0.0
C1321 C 0.46836 0.85917 0.13273 0.0
C1322 C 0.44523 0.83235 0.12056 0.0
C1323 C 0.42888 0.8372 0.10501 0.0
C1324 C 0.40692 0.81179 0.09372 0.0
C1325 C 0.40125 0.78144 0.09773 0.0
C1326 C 0.41761 0.77644 0.11302 0.0
C1327 C 0.43957 0.80177 0.12437 0.0
H1328 H 0.38423 0.76179 0.08897 0.0
H1329 H 0.5975 1.00664 0.1998 0.0
H1330 H 0.70801 0.62325 0.63785 0.0
H1331 H 0.66154 0.5705 0.63977 0.0
H1332 H 0.71349 0.53955 0.67627 0.0
H1333 H 0.76002 0.5917 0.67385 0.0
H1334 H 0.6856 0.49887 0.6488 0.0
H1335 H 0.65177 0.55041 0.69444 0.0
H1336 H 0.63994 0.59105 0.70591 0.0
H1337 H 0.571 0.56579 0.65968 0.0
H1338 H 0.58272 0.52526 0.64776 0.0
H1339 H 0.55436 0.34848 0.67321 0.0
H1340 H 0.59771 0.40296 0.67662 0.0
H1341 H 0.55377 0.43327 0.63304 0.0
H1342 H 0.51049 0.37911 0.62965 0.0
H1343 H 0.57693 0.47378 0.66528 0.0
H1344 H 0.61285 0.42336 0.61939 0.0
H1345 H 0.62483 0.38257 0.6085 0.0
H1346 H 0.69039 0.40593 0.65662 0.0
H1347 H 0.67844 0.44659 0.66798 0.0
C1348 C 0.70929 0.60532 0.64656 0.0
C1349 C 0.73773 0.61164 0.65562 0.0
C1350 C 0.68268 0.57513 0.64768 0.0
C1351 C 0.68383 0.55087 0.65823 0.0
C1352 C 0.71193 0.55765 0.66792 0.0
C1353 C 0.73855 0.58758 0.66657 0.0
C1354 C 0.65659 0.51798 0.65825 0.0
C1355 C 0.66197 0.49344 0.65276 0.0
C1356 C 0.62549 0.5107 0.66295 0.0
C1357 C 0.61834 0.535 0.6701 0.0
C1358 C 0.63426 0.55368 0.68663 0.0
C1359 C 0.62754 0.57667 0.69322 0.0
C1360 C 0.60479 0.58105 0.6835 0.0
C1361 C 0.58865 0.56239 0.66718 0.0
C1362 C 0.59529 0.53939 0.66051 0.0
C1363 C 0.55386 0.36683 0.66449 0.0
C1364 C 0.52917 0.35944 0.65102 0.0
C1365 C 0.57868 0.3979 0.66638 0.0
C1366 C 0.57911 0.42218 0.65496 0.0
C1367 C 0.55399 0.41496 0.64197 0.0
C1368 C 0.52941 0.38394 0.63993 0.0
C1369 C 0.60617 0.45495 0.65599 0.0
C1370 C 0.60069 0.47937 0.66153 0.0
C1371 C 0.63725 0.46216 0.65149 0.0
C1372 C 0.64447 0.43775 0.64467 0.0
C1373 C 0.6296 0.4196 0.62776 0.0
C1374 C 0.63643 0.39654 0.62148 0.0
C1375 C 0.65828 0.39159 0.6319 0.0
C1376 C 0.67342 0.40975 0.64859 0.0
C1377 C 0.66664 0.43281 0.65495 0.0
H1378 H 0.66355 0.37374 0.62701 0.0
H1379 H 0.59962 0.59886 0.68863 0.0
H1380 H 0.36343 0.9549 0.41064 0.0
H1381 H 0.41116 0.9504 0.40898 0.0
H1382 H 0.3538 0.84925 0.40959 0.0
H1383 H 0.30653 0.85336 0.41121 0.0
H1384 H 0.40224 0.87019 0.43612 0.0
H1385 H 0.38674 0.88723 0.36732 0.0
H1386 H 0.3806 0.91634 0.33938 0.0
H1387 H 0.47163 0.99585 0.35185 0.0
H1388 H 0.47811 0.96733 0.38006 0.0
H1389 H 0.50488 0.81569 0.40814 0.0
H1390 H 0.46184 0.82737 0.40836 0.0
H1391 H 0.52896 0.92656 0.40382 0.0
H1392 H 0.5721 0.91512 0.40368 0.0
H1393 H 0.47871 0.91147 0.38058 0.0
H1394 H 0.49585 0.89419 0.44814 0.0
H1395 H 0.50242 0.86584 0.47637 0.0
H1396 H 0.40898 0.78827 0.46704 0.0
H1397 H 0.40201 0.81596 0.43855 0.0
C1398 C 0.36103 0.93174 0.41034 0.0
C1399 C 0.33105 0.90455 0.41103 0.0
C1400 C 0.3883 0.92919 0.40935 0.0
C1401 C 0.38603 0.89945 0.40914 0.0
C1402 C 0.35617 0.87243 0.4098 0.0
C1403 C 0.32908 0.87491 0.41064 0.0
C1404 C 0.41446 0.89592 0.40856 0.0
C1405 C 0.41882 0.87901 0.42389 0.0
C1406 C 0.43659 0.90817 0.3929 0.0
C1407 C 0.43274 0.9253 0.37594 0.0
C1408 C 0.40532 0.91103 0.36422 0.0
C1409 C 0.40181 0.9274 0.34831 0.0
C1410 C 0.42567 0.95797 0.34388 0.0
C1411 C 0.45314 0.9722 0.35532 0.0
C1412 C 0.45675 0.95594 0.37127 0.0
C1413 C 0.51051 0.84 0.40719 0.0
C1414 C 0.54201 0.86444 0.40597 0.0
C1415 C 0.48587 0.84665 0.40731 0.0
C1416 C 0.49216 0.87791 0.4064 0.0
C1417 C 0.52349 0.90228 0.40453 0.0
C1418 C 0.54815 0.89565 0.40437 0.0
C1419 C 0.46612 0.88515 0.40796 0.0
C1420 C 0.46226 0.90283 0.39288 0.0
C1421 C 0.44447 0.87375 0.42392 0.0
C1422 C 0.44852 0.85704 0.44109 0.0
C1423 C 0.47679 0.87098 0.45201 0.0
C1424 C 0.48057 0.85505 0.46808 0.0
C1425 C 0.45616 0.82524 0.47347 0.0
C1426 C 0.42788 0.81134 0.46283 0.0
C1427 C 0.42399 0.82716 0.44673 0.0
H1428 H 0.45913 0.81294 0.48592 0.0
H1429 H 0.42291 0.9706 0.33155 0.0
H1430 H 0.70614 0.48695 0.91347 0.0
H1431 H 0.6512 0.44454 0.9118 0.0
H1432 H 0.62054 0.51299 0.90949 0.0
H1433 H 0.67531 0.55548 0.9116 0.0
H1434 H 0.58604 0.46648 0.93578 0.0
H1435 H 0.61824 0.4732 0.8682 0.0
H1436 H 0.65218 0.47493 0.84074 0.0
H1437 H 0.63503 0.38282 0.8566 0.0
H1438 H 0.60132 0.38071 0.88434 0.0
H1439 H 0.42583 0.34778 0.91496 0.0
H1440 H 0.47802 0.39528 0.91297 0.0
H1441 H 0.52153 0.33754 0.91209 0.0
H1442 H 0.47004 0.29046 0.91369 0.0
H1443 H 0.54795 0.3821 0.88522 0.0
H1444 H 0.51985 0.37715 0.95432 0.0
H1445 H 0.48654 0.37522 0.98224 0.0
H1446 H 0.49644 0.46364 0.96387 0.0
H1447 H 0.52949 0.46588 0.93567 0.0
C1448 C 0.6877 0.49298 0.91259 0.0
C1449 C 0.69517 0.52464 0.91256 0.0
C1450 C 0.65631 0.46871 0.9115 0.0
C1451 C 0.63171 0.47557 0.91035 0.0
C1452 C 0.63909 0.50712 0.9103 0.0
C1453 C 0.67046 0.53139 0.9113 0.0
C1454 C 0.59829 0.44978 0.90967 0.0
C1455 C 0.57756 0.4483 0.92453 0.0
C1456 C 0.5873 0.42579 0.89518 0.0
C1457 C 0.60746 0.42692 0.87846 0.0
C1458 C 0.62189 0.45341 0.86593 0.0
C1459 C 0.64106 0.45444 0.85029 0.0
C1460 C 0.64581 0.42903 0.84695 0.0
C1461 C 0.63134 0.4025 0.85921 0.0
C1462 C 0.61218 0.40136 0.87488 0.0
C1463 C 0.44654 0.34527 0.91436 0.0
C1464 C 0.44364 0.31526 0.91448 0.0
C1465 C 0.47638 0.37243 0.91327 0.0
C1466 C 0.50381 0.37003 0.91248 0.0
C1467 C 0.50081 0.34008 0.91257 0.0
C1468 C 0.4712 0.3131 0.91356 0.0
C1469 C 0.53582 0.3984 0.91157 0.0
C1470 C 0.55632 0.40042 0.89638 0.0
C1471 C 0.54661 0.42279 0.9258 0.0
C1472 C 0.52682 0.4215 0.94276 0.0
C1473 C 0.51471 0.39605 0.95614 0.0
C1474 C 0.49592 0.39492 0.97204 0.0
C1475 C 0.48929 0.41924 0.97479 0.0
C1476 C 0.50153 0.44479 0.96169 0.0
C1477 C 0.52031 0.44601 0.94576 0.0
H1478 H 0.47474 0.41833 0.98711 0.0
H1479 H 0.66066 0.42988 0.83484 0.0
H1480 H 0.24512 0.70084 0.41723 0.0
H1481 H 0.23419 0.64648 0.41608 0.0
H1482 H 0.13693 0.61468 0.40208 0.0
H1483 H 0.14744 0.66885 0.40382 0.0
H1484 H 0.14134 0.57801 0.43016 0.0
H1485 H 0.188 0.6175 0.36645 0.0
H1486 H 0.22847 0.65447 0.3432 0.0
H1487 H 0.29719 0.63618 0.37027 0.0
H1488 H 0.25722 0.59941 0.39386 0.0
H1489 H 0.10721 0.42062 0.4094 0.0
H1490 H 0.11259 0.47301 0.40694 0.0
H1491 H 0.21284 0.5157 0.41615 0.0
H1492 H 0.20782 0.46393 0.41797 0.0
H1493 H 0.20337 0.54589 0.38825 0.0
H1494 H 0.15882 0.50994 0.4534 0.0
H1495 H 0.11934 0.47368 0.47741 0.0
H1496 H 0.0479 0.48588 0.44853 0.0
H1497 H 0.08691 0.52193 0.4242 0.0
C1498 C 0.22138 0.68231 0.41393 0.0
C1499 C 0.19722 0.68936 0.41054 0.0
C1500 C 0.21521 0.65121 0.41312 0.0
C1501 C 0.18477 0.62642 0.40879 0.0
C1502 C 0.16062 0.63336 0.40538 0.0
C1503 C 0.16677 0.66445 0.40617 0.0
C1504 C 0.17804 0.59323 0.40825 0.0
C1505 C 0.15458 0.57086 0.42076 0.0
C1506 C 0.19563 0.58393 0.39628 0.0
C1507 C 0.21966 0.60589 0.38203 0.0
C1508 C 0.21179 0.62152 0.36753 0.0
C1509 C 0.23464 0.64242 0.35428 0.0
C1510 C 0.26539 0.64773 0.35529 0.0
C1511 C 0.27336 0.63207 0.36952 0.0
C1512 C 0.25061 0.61117 0.38282 0.0
C1513 C 0.13036 0.44119 0.41091 0.0
C1514 C 0.15704 0.43796 0.41385 0.0
C1515 C 0.13342 0.47118 0.40958 0.0
C1516 C 0.16314 0.4985 0.41154 0.0
C1517 C 0.18968 0.49516 0.41448 0.0
C1518 C 0.18671 0.46537 0.41556 0.0
C1519 C 0.16707 0.5307 0.41046 0.0
C1520 C 0.18998 0.55292 0.39758 0.0
C1521 C 0.14912 0.5399 0.4222 0.0
C1522 C 0.1257 0.51834 0.43686 0.0
C1523 C 0.13464 0.50471 0.45209 0.0
C1524 C 0.11236 0.48423 0.46577 0.0
C1525 C 0.08111 0.47741 0.46446 0.0
C1526 C 0.0721 0.49114 0.44951 0.0
C1527 C 0.09429 0.51161 0.43578 0.0
H1528 H 0.0639 0.46154 0.47506 0.0
H1529 H 0.28305 0.66392 0.34502 0.0
H1530 H 0.75672 0.19027 0.91255 0.0
H1531 H 0.70907 0.19388 0.91302 0.0
H1532 H 0.65271 0.09361 0.90483 0.0
H1533 H 0.70077 0.08955 0.90445 0.0
H1534 H 0.63435 0.13053 0.88048 0.0
H1535 H 0.65426 0.11926 0.94862 0.0
H1536 H 0.68676 0.13115 0.9788 0.0
H1537 H 0.70397 0.22598 0.97815 0.0
H1538 H 0.67205 0.21484 0.94772 0.0
H1539 H 0.49174 0.12952 0.90379 0.0
H1540 H 0.53525 0.11876 0.9023 0.0
H1541 H 0.60011 0.21435 0.91971 0.0
H1542 H 0.55658 0.22526 0.92128 0.0
H1543 H 0.61184 0.17512 0.94002 0.0
H1544 H 0.59532 0.18807 0.87116 0.0
H1545 H 0.56472 0.17772 0.84022 0.0
H1546 H 0.54234 0.08121 0.84169 0.0
H1547 H 0.57248 0.0909 0.8728 0.0
C1548 C 0.73432 0.16883 0.91075 0.0
C1549 C 0.73272 0.13951 0.90853 0.0
C1550 C 0.70701 0.17101 0.91109 0.0
C1551 C 0.6773 0.14402 0.90914 0.0
C1552 C 0.67543 0.11474 0.90641 0.0
C1553 C 0.70291 0.11245 0.90625 0.0
C1554 C 0.64849 0.14686 0.91036 0.0
C1555 C 0.62902 0.13969 0.89362 0.0
C1556 C 0.64202 0.15956 0.92733 0.0
C1557 C 0.66094 0.16627 0.94578 0.0
C1558 C 0.66516 0.14273 0.95482 0.0
C1559 C 0.68345 0.14931 0.97199 0.0
C1560 C 0.69745 0.17931 0.98038 0.0
C1561 C 0.69313 0.20276 0.97163 0.0
C1562 C 0.67492 0.19631 0.95442 0.0
C1563 C 0.51532 0.14844 0.90702 0.0
C1564 C 0.52061 0.17836 0.91254 0.0
C1565 C 0.54023 0.14221 0.9062 0.0
C1566 C 0.57114 0.1658 0.91068 0.0
C1567 C 0.57651 0.1957 0.91621 0.0
C1568 C 0.55157 0.20192 0.91712 0.0
C1569 C 0.59776 0.1592 0.91002 0.0
C1570 C 0.6169 0.16569 0.9269 0.0
C1571 C 0.60397 0.14601 0.89313 0.0
C1572 C 0.58586 0.14013 0.87443 0.0
C1573 C 0.58365 0.16458 0.86497 0.0
C1574 C 0.56644 0.15884 0.84739 0.0
C1575 C 0.55152 0.1288 0.83903 0.0
C1576 C 0.55386 0.10446 0.84821 0.0
C1577 C 0.57103 0.11006 0.8658 0.0
H1578 H 0.5382 0.12441 0.82541 0.0
H1579 H 0.7116 0.18436 0.99367 0.0
H1580 H 0.39061 0.48641 0.39787 0.0
H1581 H 0.4446 0.53028 0.39548 0.0
H1582 H 0.41354 0.59437 0.41402 0.0
H1583 H 0.35925 0.55073 0.41582 0.0
H1584 H 0.45467 0.61897 0.38405 0.0
H1585 H 0.45043 0.56829 0.44627 0.0
H1586 H 0.44068 0.52367 0.46792 0.0
H1587 H 0.50932 0.51161 0.4357 0.0
H1588 H 0.51918 0.55593 0.41368 0.0
H1589 H 0.59448 0.75108 0.41421 0.0
H1590 H 0.54309 0.70415 0.41215 0.0
H1591 H 0.58656 0.64908 0.39744 0.0
H1592 H 0.6389 0.69641 0.40029 0.0
H1593 H 0.54044 0.61763 0.42259 0.0
H1594 H 0.54699 0.67085 0.36145 0.0
H1595 H 0.55648 0.71573 0.34012 0.0
H1596 H 0.48359 0.72327 0.37031 0.0
H1597 H 0.47373 0.67856 0.39191 0.0
C1598 C 0.39512 0.50989 0.40116 0.0
C1599 C 0.37044 0.51495 0.40705 0.0
C1600 C 0.42614 0.53494 0.4 0.0
C1601 C 0.43331 0.56565 0.40483 0.0
C1602 C 0.40868 0.5709 0.4103 0.0
C1603 C 0.37764 0.54585 0.41147 0.0
C1604 C 0.46643 0.59232 0.40426 0.0
C1605 C 0.47336 0.61878 0.39261 0.0
C1606 C 0.49112 0.59178 0.41494 0.0
C1607 C 0.48528 0.5652 0.4282 0.0
C1608 C 0.46326 0.55596 0.44371 0.0
C1609 C 0.45775 0.53075 0.45606 0.0
C1610 C 0.4743 0.51475 0.45315 0.0
C1611 C 0.49648 0.52399 0.43791 0.0
C1612 C 0.50205 0.54916 0.4255 0.0
C1613 C 0.59334 0.72911 0.41037 0.0
C1614 C 0.62097 0.72768 0.40718 0.0
C1615 C 0.56372 0.70217 0.40909 0.0
C1616 C 0.56067 0.67304 0.40409 0.0
C1617 C 0.5882 0.67131 0.40114 0.0
C1618 C 0.61811 0.69837 0.40273 0.0
C1619 C 0.52866 0.64456 0.40257 0.0
C1620 C 0.52189 0.61773 0.41382 0.0
C1621 C 0.50406 0.64473 0.39149 0.0
C1622 C 0.50975 0.67145 0.37838 0.0
C1623 C 0.53309 0.68217 0.36361 0.0
C1624 C 0.53852 0.70757 0.35146 0.0
C1625 C 0.52074 0.7224 0.3539 0.0
C1626 C 0.49736 0.71177 0.36844 0.0
C1627 C 0.49177 0.68634 0.3806 0.0
H1628 H 0.52503 0.74209 0.3445 0.0
H1629 H 0.47001 0.49524 0.46273 0.0
H1630 H 0.8681 0.58687 0.88988 0.0
H1631 H 0.86167 0.53443 0.88733 0.0
H1632 H 0.94727 0.56514 0.92083 0.0
H1633 H 0.95436 0.61829 0.9229 0.0
H1634 H 0.94243 0.52509 0.89256 0.0
H1635 H 0.87403 0.5252 0.94308 0.0
H1636 H 0.83316 0.5348 0.95706 0.0
H1637 H 0.76599 0.47109 0.91486 0.0
H1638 H 0.8066 0.46143 0.90041 0.0
H1639 H 0.90907 0.37477 0.92776 0.0
H1640 H 0.91905 0.42867 0.92509 0.0
H1641 H 0.83832 0.39719 0.8867 0.0
H1642 H 0.82799 0.34288 0.88945 0.0
H1643 H 0.84049 0.43727 0.9166 0.0
H1644 H 0.90992 0.43594 0.86717 0.0
H1645 H 0.95151 0.4266 0.85421 0.0
H1646 H 1.01749 0.49264 0.896 0.0
H1647 H 0.97615 0.50204 0.90942 0.0
C1648 C 0.88579 0.5826 0.89652 0.0
C1649 C 0.91157 0.60662 0.90679 0.0
C1650 C 0.88199 0.55253 0.89513 0.0
C1651 C 0.9035 0.54553 0.90435 0.0
C1652 C 0.93022 0.5699 0.91371 0.0
C1653 C 0.9343 0.60026 0.91487 0.0
C1654 C 0.89718 0.5125 0.90494 0.0
C1655 C 0.92029 0.50596 0.89804 0.0
C1656 C 0.86804 0.48734 0.91176 0.0
C1657 C 0.84344 0.49279 0.92056 0.0
C1658 C 0.85059 0.51337 0.9367 0.0
C1659 C 0.82748 0.51882 0.94471 0.0
C1660 C 0.79702 0.50359 0.93683 0.0
C1661 C 0.7896 0.48287 0.92093 0.0
C1662 C 0.81265 0.47738 0.91284 0.0
C1663 C 0.8933 0.37925 0.91882 0.0
C1664 C 0.86761 0.3545 0.9089 0.0
C1665 C 0.89922 0.41014 0.91717 0.0
C1666 C 0.87959 0.41703 0.90557 0.0
C1667 C 0.85382 0.39241 0.89568 0.0
C1668 C 0.84804 0.36145 0.89719 0.0
C1669 C 0.88571 0.44989 0.9042 0.0
C1670 C 0.86256 0.45639 0.91103 0.0
C1671 C 0.9149 0.475 0.89751 0.0
C1672 C 0.93985 0.46948 0.88942 0.0
C1673 C 0.93323 0.44828 0.87371 0.0
C1674 C 0.95677 0.44301 0.86626 0.0
C1675 C 0.9871 0.45895 0.8743 0.0
C1676 C 0.99397 0.48027 0.88979 0.0
C1677 C 0.9705 0.48561 0.89731 0.0
H1678 H 1.0053 0.45484 0.86851 0.0
H1679 H 0.77915 0.50775 0.94311 0.0
H1680 H 0.11707 0.34154 0.34608 0.0
H1681 H 0.1384 0.34852 0.31276 0.0
H1682 H 0.22886 0.37103 0.33693 0.0
H1683 H 0.20738 0.36435 0.37082 0.0
H1684 H 0.23271 0.40889 0.30355 0.0
H1685 H 0.18322 0.29948 0.32028 0.0
H1686 H 0.1405 0.2489 0.333 0.0
H1687 H 0.07848 0.24794 0.28749 0.0
H1688 H 0.12071 0.29878 0.27469 0.0
H1689 H 0.28585 0.37785 0.21245 0.0
H1690 H 0.27159 0.38128 0.24659 0.0
H1691 H 0.17556 0.34773 0.22828 0.0
H1692 H 0.1897 0.34354 0.19395 0.0
H1693 H 0.17716 0.31599 0.25959 0.0
H1694 H 0.22635 0.42544 0.24279 0.0
H1695 H 0.2686 0.47646 0.2303 0.0
H1696 H 0.33104 0.47785 0.27564 0.0
H1697 H 0.28931 0.42656 0.28822 0.0
C1698 C 0.14162 0.34824 0.3444 0.0
C1699 C 0.16052 0.35217 0.36107 0.0
C1700 C 0.15376 0.35219 0.32529 0.0
C1701 C 0.18505 0.35975 0.32229 0.0
C1702 C 0.20458 0.36506 0.33891 0.0
C1703 C 0.19235 0.36124 0.35823 0.0
C1704 C 0.19626 0.36036 0.30171 0.0
C1705 C 0.22099 0.38847 0.294 0.0
C1706 C 0.18042 0.33389 0.28912 0.0
C1707 C 0.15509 0.30307 0.29661 0.0
C1708 C 0.16042 0.28858 0.31306 0.0
C1709 C 0.13629 0.25985 0.32028 0.0
C1710 C 0.10678 0.24524 0.31108 0.0
C1711 C 0.10136 0.25929 0.29461 0.0
C1712 C 0.12539 0.28805 0.28735 0.0
C1713 C 0.26174 0.37155 0.21563 0.0
C1714 C 0.23883 0.36026 0.20054 0.0
C1715 C 0.25366 0.37371 0.23519 0.0
C1716 C 0.22253 0.365 0.24008 0.0
C1717 C 0.19975 0.35459 0.22489 0.0
C1718 C 0.20784 0.35232 0.20527 0.0
C1719 C 0.21341 0.3647 0.2612 0.0
C1720 C 0.18904 0.33649 0.26907 0.0
C1721 C 0.22963 0.39109 0.27387 0.0
C1722 C 0.25476 0.42199 0.26635 0.0
C1723 C 0.24917 0.43649 0.25001 0.0
C1724 C 0.27302 0.46549 0.24292 0.0
C1725 C 0.30251 0.48037 0.25216 0.0
C1726 C 0.3082 0.46628 0.2685 0.0
C1727 C 0.28444 0.43726 0.27562 0.0
H1728 H 0.32092 0.50286 0.2467 0.0
H1729 H 0.08812 0.22301 0.31669 0.0
H1730 H 0.94798 0.26913 0.71055 0.0
H1731 H 0.92697 0.25683 0.74407 0.0
H1732 H 0.84328 0.17518 0.72232 0.0
H1733 H 0.86421 0.18814 0.68819 0.0
H1734 H 0.82982 0.20446 0.75252 0.0
H1735 H 0.9029 0.16803 0.7422 0.0
H1736 H 0.95323 0.17206 0.73245 0.0
H1737 H 1.00182 0.24282 0.77679 0.0
H1738 H 0.95184 0.2396 0.78659 0.0
H1739 H 0.78779 0.11272 0.84022 0.0
H1740 H 0.80282 0.13647 0.80742 0.0
H1741 H 0.88374 0.21723 0.83258 0.0
H1742 H 0.8685 0.19317 0.86586 0.0
H1743 H 0.89884 0.19165 0.80123 0.0
H1744 H 0.82404 0.22473 0.81314 0.0
H1745 H 0.77301 0.2188 0.82312 0.0
H1746 H 0.72672 0.15212 0.77629 0.0
H1747 H 0.77741 0.15727 0.76621 0.0
C1748 C 0.92487 0.24875 0.71281 0.0
C1749 C 0.90782 0.22939 0.6968 0.0
C1750 C 0.91294 0.24169 0.73203 0.0
C1751 C 0.88391 0.21465 0.73585 0.0
C1752 C 0.86587 0.19608 0.71974 0.0
C1753 C 0.87775 0.20345 0.70028 0.0
C1754 C 0.87373 0.20523 0.75679 0.0
C1755 C 0.84471 0.20128 0.76312 0.0
C1756 C 0.89354 0.20187 0.77081 0.0
C1757 C 0.92365 0.20381 0.76497 0.0
C1758 C 0.92435 0.18465 0.74975 0.0
C1759 C 0.95282 0.18676 0.74424 0.0
C1760 C 0.98072 0.20775 0.75395 0.0
C1761 C 0.9802 0.22662 0.76925 0.0
C1762 C 0.9518 0.22465 0.77479 0.0
C1763 C 0.80847 0.13586 0.83887 0.0
C1764 C 0.82693 0.15121 0.85558 0.0
C1765 C 0.81695 0.14948 0.82008 0.0
C1766 C 0.84424 0.17878 0.81748 0.0
C1767 C 0.86242 0.19468 0.83426 0.0
C1768 C 0.85365 0.1811 0.85325 0.0
C1769 C 0.85493 0.19089 0.79701 0.0
C1770 C 0.88405 0.19517 0.79071 0.0
C1771 C 0.8351 0.19428 0.78306 0.0
C1772 C 0.80455 0.19123 0.789 0.0
C1773 C 0.80296 0.20861 0.80506 0.0
C1774 C 0.77408 0.20542 0.81072 0.0
C1775 C 0.74663 0.18505 0.80037 0.0
C1776 C 0.748 0.16788 0.7843 0.0
C1777 C 0.77681 0.17096 0.77859 0.0
H1778 H 0.7243 0.18261 0.80478 0.0
H1779 H 1.00273 0.20934 0.74967 0.0
H1780 H 0.66208 0.90532 0.20756 0.0
H1781 H 0.65837 0.88814 0.24196 0.0
H1782 H 0.70832 0.83941 0.22706 0.0
H1783 H 0.71186 0.85647 0.19228 0.0
H1784 H 0.66079 0.80654 0.25448 0.0
H1785 H 0.74764 0.9116 0.24626 0.0
H1786 H 0.77353 0.96735 0.23614 0.0
H1787 H 0.71418 0.98269 0.27581 0.0
H1788 H 0.68758 0.92685 0.28594 0.0
H1789 H 0.73467 0.80577 0.34253 0.0
H1790 H 0.72252 0.81675 0.30959 0.0
H1791 H 0.66998 0.85701 0.33496 0.0
H1792 H 0.68216 0.84573 0.36862 0.0
H1793 H 0.71192 0.89315 0.30345 0.0
H1794 H 0.63041 0.78775 0.31501 0.0
H1795 H 0.60816 0.73252 0.32553 0.0
H1796 H 0.65982 0.71768 0.27966 0.0
H1797 H 0.68316 0.77308 0.26919 0.0
C1798 C 0.67185 0.8905 0.21153 0.0
C1799 C 0.6876 0.88252 0.19732 0.0
C1800 C 0.66979 0.8808 0.23122 0.0
C1801 C 0.68366 0.86308 0.2372 0.0
C1802 C 0.69762 0.85326 0.22278 0.0
C1803 C 0.6996 0.86294 0.20294 0.0
C1804 C 0.68529 0.85668 0.25865 0.0
C1805 C 0.67213 0.82545 0.26517 0.0
C1806 C 0.69938 0.88138 0.27271 0.0
C1807 C 0.71536 0.91496 0.26667 0.0
C1808 C 0.73991 0.92679 0.25269 0.0
C1809 C 0.75475 0.95841 0.24697 0.0
C1810 C 0.74544 0.97853 0.25528 0.0
C1811 C 0.72132 0.96707 0.26936 0.0
C1812 C 0.70636 0.93543 0.2751 0.0
C1813 C 0.72048 0.81697 0.34125 0.0
C1814 C 0.70924 0.82479 0.3582 0.0
C1815 C 0.71345 0.8231 0.32232 0.0
C1816 C 0.69492 0.83719 0.31977 0.0
C1817 C 0.68414 0.84585 0.33664 0.0
C1818 C 0.69109 0.83947 0.35581 0.0
C1819 C 0.68771 0.84301 0.29926 0.0
C1820 C 0.7 0.87418 0.29285 0.0
C1821 C 0.67305 0.81825 0.2853 0.0
C1822 C 0.6587 0.78472 0.29137 0.0
C1823 C 0.63724 0.77281 0.30724 0.0
C1824 C 0.6244 0.74144 0.31319 0.0
C1825 C 0.63252 0.72159 0.30325 0.0
C1826 C 0.65353 0.73308 0.28734 0.0
C1827 C 0.66659 0.76448 0.28139 0.0
H1828 H 0.62252 0.69731 0.30788 0.0
H1829 H 0.75697 1.00301 0.25085 0.0
H1830 H 0.84822 0.66478 0.69221 0.0
H1831 H 0.86086 0.65522 0.72618 0.0
H1832 H 0.84201 0.72651 0.74847 0.0
H1833 H 0.83003 0.73621 0.71518 0.0
H1834 H 0.89457 0.73315 0.76412 0.0
H1835 H 0.78801 0.64747 0.75188 0.0
H1836 H 0.74853 0.60067 0.73372 0.0
H1837 H 0.79925 0.5526 0.74762 0.0
H1838 H 0.8393 0.59933 0.76563 0.0
H1839 H 0.87154 0.71565 0.86581 0.0
H1840 H 0.85405 0.70948 0.83109 0.0
H1841 H 0.88758 0.64437 0.82141 0.0
H1842 H 0.9054 0.6509 0.85601 0.0
H1843 H 0.83211 0.63049 0.79841 0.0
H1844 H 0.93567 0.71511 0.81371 0.0
H1845 H 0.97527 0.76246 0.83129 0.0
H1846 H 0.93116 0.8138 0.81016 0.0
H1847 H 0.89043 0.76636 0.7932 0.0
C1848 C 0.8472 0.67852 0.70441 0.0
C1849 C 0.8382 0.70124 0.7011 0.0
C1850 C 0.85416 0.67294 0.72378 0.0
C1851 C 0.85221 0.69008 0.73992 0.0
C1852 C 0.8438 0.71306 0.73634 0.0
C1853 C 0.83687 0.71853 0.71724 0.0
C1854 C 0.85852 0.68466 0.76074 0.0
C1855 C 0.88078 0.71071 0.77161 0.0
C1856 C 0.84113 0.65521 0.77043 0.0
C1857 C 0.81682 0.627 0.75989 0.0
C1858 C 0.79085 0.62699 0.75095 0.0
C1859 C 0.76836 0.60048 0.74069 0.0
C1860 C 0.77143 0.57371 0.73946 0.0
C1861 C 0.79694 0.57337 0.74855 0.0
C1862 C 0.81953 0.59986 0.75878 0.0
C1863 C 0.87373 0.69891 0.85648 0.0
C1864 C 0.88934 0.6834 0.86349 0.0
C1865 C 0.86402 0.69558 0.83664 0.0
C1866 C 0.86985 0.67671 0.82363 0.0
C1867 C 0.88276 0.65893 0.83119 0.0
C1868 C 0.89282 0.66258 0.85094 0.0
C1869 C 0.86712 0.67937 0.80184 0.0
C1870 C 0.84593 0.65284 0.79085 0.0
C1871 C 0.88541 0.70849 0.79195 0.0
C1872 C 0.90969 0.73698 0.8024 0.0
C1873 C 0.93406 0.73632 0.81309 0.0
C1874 C 0.95672 0.7632 0.82297 0.0
C1875 C 0.9556 0.79107 0.82197 0.0
C1876 C 0.93184 0.79212 0.81108 0.0
C1877 C 0.90889 0.76521 0.80139 0.0
H1878 H 0.97323 0.81189 0.82956 0.0
H1879 H 0.75401 0.55321 0.7315 0.0
H1880 H 0.19434 0.85895 0.19641 0.0
H1881 H 0.21303 0.8712 0.23087 0.0
H1882 H 0.1471 0.77564 0.24811 0.0
H1883 H 0.12841 0.76339 0.21393 0.0
H1884 H 0.14445 0.81748 0.27299 0.0
H1885 H 0.22406 0.7998 0.24524 0.0
H1886 H 0.26436 0.80732 0.22062 0.0
H1887 H 0.31869 0.90506 0.23603 0.0
H1888 H 0.27842 0.89828 0.2605 0.0
H1889 H 0.20529 0.846 0.37242 0.0
H1890 H 0.19048 0.8207 0.33954 0.0
H1891 H 0.25259 0.90996 0.31165 0.0
H1892 H 0.26735 0.93485 0.34397 0.0
H1893 H 0.25636 0.86392 0.29317 0.0
H1894 H 0.17461 0.88387 0.3167 0.0
H1895 H 0.13426 0.87859 0.34064 0.0
H1896 H 0.08422 0.77841 0.33258 0.0
H1897 H 0.1246 0.78308 0.30883 0.0
C1898 C 0.18414 0.84055 0.20754 0.0
C1899 C 0.15987 0.81029 0.20253 0.0
C1900 C 0.1948 0.84752 0.2272 0.0
C1901 C 0.18144 0.82428 0.24208 0.0
C1902 C 0.15764 0.79394 0.23693 0.0
C1903 C 0.14708 0.78699 0.21736 0.0
C1904 C 0.19152 0.83171 0.26312 0.0
C1905 C 0.16884 0.82709 0.27747 0.0
C1906 C 0.22337 0.84458 0.26893 0.0
C1907 C 0.24807 0.84857 0.25461 0.0
C1908 C 0.24451 0.82295 0.24331 0.0
C1909 C 0.26735 0.82707 0.22938 0.0
C1910 C 0.29403 0.85666 0.22673 0.0
C1911 C 0.29799 0.88216 0.23808 0.0
C1912 C 0.27518 0.87818 0.252 0.0
C1913 C 0.21598 0.85994 0.35923 0.0
C1914 C 0.23724 0.89236 0.36069 0.0
C1915 C 0.20752 0.84557 0.34049 0.0
C1916 C 0.22032 0.86353 0.32309 0.0
C1917 C 0.24249 0.89558 0.32478 0.0
C1918 C 0.25073 0.90982 0.34331 0.0
C1919 C 0.20938 0.85016 0.30296 0.0
C1920 C 0.23188 0.85373 0.28875 0.0
C1921 C 0.17741 0.83656 0.29722 0.0
C1922 C 0.1528 0.83378 0.31118 0.0
C1923 C 0.1551 0.8607 0.32013 0.0
C1924 C 0.13223 0.85783 0.33366 0.0
C1925 C 0.10675 0.82818 0.33818 0.0
C1926 C 0.10402 0.80136 0.32911 0.0
C1927 C 0.12689 0.8041 0.31561 0.0
H1928 H 0.08909 0.826 0.34867 0.0
H1929 H 0.31165 0.85982 0.21591 0.0
H1930 H 0.39368 0.2756 0.85013 0.0
H1931 H 0.39832 0.26249 0.81592 0.0
H1932 H 0.35752 0.16474 0.83227 0.0
H1933 H 0.35276 0.17785 0.86685 0.0
H1934 H 0.40754 0.18509 0.805 0.0
H1935 H 0.31188 0.18848 0.81218 0.0
H1936 H 0.27941 0.21184 0.82152 0.0
H1937 H 0.33117 0.28836 0.78098 0.0
H1938 H 0.36432 0.2657 0.77164 0.0
H1939 H 0.34202 0.1059 0.71645 0.0
H1940 H 0.35212 0.12852 0.74941 0.0
H1941 H 0.39152 0.22148 0.72405 0.0
H1942 H 0.38132 0.19854 0.6904 0.0
H1943 H 0.34797 0.20917 0.75492 0.0
H1944 H 0.43976 0.20117 0.74494 0.0
H1945 H 0.46993 0.17549 0.73529 0.0
H1946 H 0.42403 0.10585 0.78084 0.0
H1947 H 0.39305 0.13069 0.7905 0.0
C1948 C 0.38602 0.25132 0.84653 0.0
C1949 C 0.3725 0.22766 0.86111 0.0
C1950 C 0.38864 0.24388 0.82694 0.0
C1951 C 0.37776 0.21259 0.82145 0.0
C1952 C 0.36592 0.18905 0.83619 0.0
C1953 C 0.36322 0.19652 0.85591 0.0
C1954 C 0.37724 0.2045 0.80016 0.0
C1955 C 0.39433 0.1901 0.79407 0.0
C1956 C 0.36072 0.21191 0.78579 0.0
C1957 C 0.34085 0.2256 0.7914 0.0
C1958 C 0.31655 0.21045 0.8054 0.0
C1959 C 0.29799 0.22354 0.81067 0.0
C1960 C 0.3033 0.25163 0.8019 0.0
C1961 C 0.32714 0.26665 0.7878 0.0
C1962 C 0.34582 0.25369 0.78251 0.0
C1963 C 0.35301 0.13123 0.71776 0.0
C1964 C 0.36098 0.1505 0.70081 0.0
C1965 C 0.35892 0.14413 0.73669 0.0
C1966 C 0.37299 0.1767 0.73925 0.0
C1967 C 0.38085 0.19624 0.72238 0.0
C1968 C 0.3751 0.18321 0.70321 0.0
C1969 C 0.37804 0.18946 0.75974 0.0
C1970 C 0.36166 0.20464 0.76575 0.0
C1971 C 0.39509 0.18261 0.77403 0.0
C1972 C 0.41391 0.16773 0.76838 0.0
C1973 C 0.4359 0.18024 0.75281 0.0
C1974 C 0.45318 0.16584 0.74734 0.0
C1975 C 0.44889 0.13905 0.75744 0.0
C1976 C 0.42733 0.12661 0.77303 0.0
C1977 C 0.40991 0.14086 0.77852 0.0
H1978 H 0.46228 0.12793 0.75322 0.0
H1979 H 0.28888 0.26171 0.80598 0.0
H1980 H 0.30792 0.18735 0.98108 0.0
H1981 H 0.28606 0.20274 1.00889 0.0
H1982 H 0.3366 0.29911 0.98895 0.0
H1983 H 0.35795 0.28385 0.96098 0.0
H1984 H 0.33833 0.27681 0.0356 0.0
H1985 H 0.27104 0.27869 0.97908 0.0
H1986 H 0.23542 0.25053 0.95115 0.0
H1987 H 0.17853 0.17225 0.98946 0.0
H1988 H 0.21359 0.20028 1.01767 0.0
H1989 H 0.29145 0.3645 0.09256 0.0
H1990 H 0.30824 0.34133 0.06684 0.0
H1991 H 0.21531 0.25909 0.06614 0.0
H1992 H 0.19786 0.28384 0.09084 0.0
H1993 H 0.23255 0.26671 0.03157 0.0
H1994 H 0.2864 0.26172 0.08839 0.0
H1995 H 0.31911 0.27862 0.11866 0.0
H1996 H 0.39782 0.34763 0.08507 0.0
H1997 H 0.36575 0.33097 0.05452 0.0
C1998 C 0.31433 0.2118 0.98265 0.0
C1999 C 0.33465 0.2344 0.96887 0.0
C2000 C 0.30184 0.22054 0.99852 0.0
C2001 C 0.30982 0.25208 1.00101 0.0
C2002 C 0.33023 0.27467 0.98733 0.0
C2003 C 0.34233 0.2659 0.97133 0.0
C2004 C 0.29684 0.26168 1.01778 0.0
C2005 C 0.31536 0.27496 0.03474 0.0
C2006 C 0.26626 0.25763 1.01713 0.0
C2007 C 0.2449 0.24141 1.00035 0.0
C2008 C 0.25092 0.25547 0.98149 0.0
C2009 C 0.23084 0.23954 0.96563 0.0
C2010 C 0.2049 0.20948 0.9685 0.0
C2011 C 0.19868 0.19549 0.98727 0.0
C2012 C 0.21853 0.21144 1.0032 0.0
C2013 C 0.27455 0.34158 0.08675 0.0
C2014 C 0.24334 0.32602 0.09355 0.0
C2015 C 0.2843 0.32802 0.07223 0.0
C2016 C 0.26348 0.29782 0.06478 0.0
C2017 C 0.23204 0.28232 0.07154 0.0
C2018 C 0.22198 0.29645 0.08565 0.0
C2019 C 0.27447 0.28319 0.04953 0.0
C2020 C 0.25555 0.26871 0.03277 0.0
C2021 C 0.30426 0.28488 0.05084 0.0
C2022 C 0.32359 0.29526 0.06919 0.0
C2023 C 0.31063 0.28064 0.08748 0.0
C2024 C 0.32906 0.29014 0.10468 0.0
C2025 C 0.36041 0.31433 0.10382 0.0
C2026 C 0.3735 0.32893 0.08572 0.0
C2027 C 0.35527 0.31937 0.06844 0.0
H2028 H 0.3746 0.32168 0.11717 0.0
H2029 H 0.18957 0.19694 0.95624 0.0
H2030 H 0.11576 0.36182 0.46773 0.0
H2031 H 0.07706 0.33749 0.49439 0.0
H2032 H 0.10474 0.26746 0.50249 0.0
H2033 H 0.1444 0.29244 0.47599 0.0
H2034 H 0.03322 0.24612 0.49891 0.0
H2035 H 0.12799 0.31315 0.53597 0.0
H2036 H 0.1763 0.36337 0.54312 0.0
H2037 H 0.12139 0.40857 0.5512 0.0
H2038 H 0.07278 0.3587 0.54381 0.0
H2039 H 0.93308 0.1876 0.58512 0.0
H2040 H 0.97498 0.20288 0.56037 0.0
H2041 H 0.99441 0.29892 0.56309 0.0
H2042 H 0.95443 0.28398 0.58875 0.0
H2043 H 0.04595 0.30249 0.56217 0.0
H2044 H 0.95263 0.24043 0.52257 0.0
H2045 H 0.90316 0.19308 0.51276 0.0
H2046 H 0.95225 0.14154 0.50668 0.0
H2047 H 1.00193 0.18848 0.51672 0.0
C2048 C 0.11381 0.3414 0.47531 0.0
C2049 C 0.1332 0.32912 0.4699 0.0
C2050 C 0.09162 0.32746 0.49049 0.0
C2051 C 0.08796 0.30064 0.5004 0.0
C2052 C 0.10717 0.28813 0.49499 0.0
C2053 C 0.12994 0.30252 0.48 0.0
C2054 C 0.06418 0.28629 0.51654 0.0
C2055 C 0.0361 0.25803 0.51294 0.0
C2056 C 0.06762 0.30233 0.53454 0.0
C2057 C 0.09678 0.33225 0.53918 0.0
C2058 C 0.12624 0.33386 0.53911 0.0
C2059 C 0.15367 0.36225 0.54324 0.0
C2060 C 0.15192 0.38916 0.54757 0.0
C2061 C 0.12272 0.38771 0.54783 0.0
C2062 C 0.09522 0.35938 0.5437 0.0
C2063 C 0.94623 0.21188 0.58023 0.0
C2064 C 0.94047 0.23461 0.58874 0.0
C2065 C 0.97013 0.22065 0.56599 0.0
C2066 C 0.98794 0.25214 0.55946 0.0
C2067 C 0.98145 0.27454 0.5678 0.0
C2068 C 0.95836 0.26598 0.5824 0.0
C2069 C 1.014 0.26245 0.54451 0.0
C2070 C 0.04277 0.29012 0.5483 0.0
C2071 C 1.01081 0.24613 0.52649 0.0
C2072 C 0.98089 0.21784 0.52066 0.0
C2073 C 0.95281 0.21892 0.51932 0.0
C2074 C 0.92475 0.19216 0.51369 0.0
C2075 C 0.92454 0.16429 0.50918 0.0
C2076 C 0.95242 0.16312 0.51024 0.0
C2077 C 0.98053 0.18979 0.5159 0.0
H2078 H 0.9028 0.14361 0.50481 0.0
H2079 H 0.17319 0.41111 0.55075 0.0
H2080 H 0.73919 0.90604 0.0724 0.0
H2081 H 0.7593 0.94526 0.04559 0.0
H2082 H 0.72731 1.00049 0.07718 0.0
H2083 H 0.70474 0.96008 0.10271 0.0
H2084 H 0.71612 1.00442 0.04262 0.0
H2085 H 0.80947 1.0177 0.07381 0.0
H2086 H 0.84642 1.00158 0.08676 0.0
H2087 H 0.85757 0.97434 1.02825 0.0
H2088 H 0.82029 0.98984 1.01497 0.0
H2089 H 0.85581 0.13915 0.98046 0.0
H2090 H 0.83783 0.10172 1.00832 0.0
H2091 H 0.74824 0.04602 0.97903 0.0
H2092 H 0.76509 0.08461 0.95236 0.0
H2093 H 0.82253 0.04512 1.01384 0.0
H2094 H 0.68897 1.00534 1.00919 0.0
H2095 H 0.6553 0.02781 1.0005 0.0
H2096 H 0.7311 0.12048 1.01398 0.0
H2097 H 0.76508 0.09853 1.02303 0.0
C2098 C 0.7364 0.92653 0.0735 0.0
C2099 C 0.72102 0.93032 0.08991 0.0
C2100 C 0.74823 0.9492 0.05827 0.0
C2101 C 0.74565 0.97653 0.0594 0.0
C2102 C 0.72988 0.9799 0.07577 0.0
C2103 C 0.71734 0.95691 0.09061 0.0
C2104 C 0.75849 1.00134 0.0435 0.0
C2105 C 0.73946 1.01328 0.03643 0.0
C2106 C 0.78923 1.01377 0.03553 0.0
C2107 C 0.81186 1.00466 0.04343 0.0
C2108 C 0.81966 1.0081 0.06372 0.0
C2109 C 0.84068 0.99909 0.07112 0.0
C2110 C 0.85429 0.9869 0.05835 0.0
C2111 C 0.84698 0.98376 0.03813 0.0
C2112 C 0.82592 0.99266 0.03066 0.0
C2113 C 0.83217 0.11908 0.98016 0.0
C2114 C 0.81198 0.1147 0.96413 0.0
C2115 C 0.82194 0.09752 0.99602 0.0
C2116 C 0.7914 0.07101 0.99609 0.0
C2117 C 0.77154 0.06655 0.97983 0.0
C2118 C 0.78138 0.0885 0.96437 0.0
C2119 C 0.78009 0.04803 1.01303 0.0
C2120 C 0.7993 0.03636 1.02018 0.0
C2121 C 0.75006 0.03688 1.02179 0.0
C2122 C 0.72965 0.05028 1.01662 0.0
C2123 C 0.6984 0.03049 1.0104 0.0
C2124 C 0.67928 0.04314 1.00539 0.0
C2125 C 0.69108 0.07555 1.00664 0.0
C2126 C 0.72202 0.09538 1.01296 0.0
C2127 C 0.74123 0.08285 1.01802 0.0
H2128 H 0.67623 0.08528 1.00276 0.0
H2129 H 0.87056 0.97994 0.06412 0.0
H2130 H 0.76787 0.69377 0.6049 0.0
H2131 H 0.7507 0.71563 0.57846 0.0
H2132 H 0.83806 0.7454 0.54739 0.0
H2133 H 0.85642 0.72554 0.57493 0.0
H2134 H 0.82403 0.78826 0.54236 0.0
H2135 H 0.7642 0.67749 0.53389 0.0
H2136 H 0.72984 0.62197 0.54346 0.0
H2137 H 0.65612 0.6412 0.55868 0.0
H2138 H 0.69019 0.69695 0.54943 0.0
H2139 H 0.70472 0.75612 0.45463 0.0
H2140 H 0.72682 0.73805 0.48043 0.0
H2141 H 0.76058 0.82601 0.51142 0.0
H2142 H 0.7403 0.84508 0.48457 0.0
H2143 H 0.71601 0.7239 0.51536 0.0
H2144 H 0.82259 0.84267 0.54068 0.0
H2145 H 0.86054 0.89426 0.52626 0.0
H2146 H 0.84704 0.85212 0.46871 0.0
H2147 H 0.80935 0.80025 0.48293 0.0
C2148 C 0.78359 0.70519 0.59251 0.0
C2149 C 0.81366 0.70824 0.59212 0.0
C2150 C 0.77357 0.71743 0.57723 0.0
C2151 C 0.79269 0.73173 0.56057 0.0
C2152 C 0.82274 0.73453 0.56002 0.0
C2153 C 0.83317 0.72296 0.57568 0.0
C2154 C 0.78106 0.74351 0.54386 0.0
C2155 C 0.80042 0.77411 0.53643 0.0
C2156 C 0.75052 0.72501 0.53563 0.0
C2157 C 0.72985 0.69146 0.54112 0.0
C2158 C 0.74073 0.66992 0.53939 0.0
C2159 C 0.7213 0.6384 0.54475 0.0
C2160 C 0.69085 0.62808 0.55172 0.0
C2161 C 0.67973 0.64924 0.5533 0.0
C2162 C 0.69907 0.68079 0.54798 0.0
C2163 C 0.71718 0.7718 0.46683 0.0
C2164 C 0.72136 0.8023 0.46734 0.0
C2165 C 0.72966 0.76133 0.48172 0.0
C2166 C 0.74594 0.78068 0.49792 0.0
C2167 C 0.74901 0.81081 0.49888 0.0
C2168 C 0.73709 0.82162 0.48364 0.0
C2169 C 0.7589 0.76873 0.51379 0.0
C2170 C 0.73967 0.7381 0.52119 0.0
C2171 C 0.79004 0.78666 0.52127 0.0
C2172 C 0.81288 0.81773 0.51277 0.0
C2173 C 0.8278 0.84444 0.52496 0.0
C2174 C 0.84925 0.87371 0.51684 0.0
C2175 C 0.8561 0.8765 0.49657 0.0
C2176 C 0.84162 0.84998 0.48439 0.0
C2177 C 0.82019 0.82068 0.49246 0.0
H2178 H 0.87268 0.89918 0.49031 0.0
H2179 H 0.67585 0.60367 0.55587 0.0
H2180 H 0.97376 0.69734 0.95479 0.0
H2181 H 1.01507 0.72106 0.97981 0.0
H2182 H 0.95653 0.74547 1.01449 0.0
H2183 H 0.91608 0.72399 0.98845 0.0
H2184 H 1.01256 0.79029 1.01828 0.0
H2185 H 0.96721 0.67914 1.02488 0.0
H2186 H 0.94889 0.62477 1.01396 0.0
H2187 H 0.04298 0.65089 0.99633 0.0
H2188 H 0.06179 0.70554 1.00692 0.0
H2189 H 0.09951 0.75624 0.10465 0.0
H2190 H 0.06123 0.73934 0.07793 0.0
H2191 H 0.11463 0.83053 0.05009 0.0
H2192 H 0.15205 0.84836 0.07801 0.0
H2193 H 0.06138 0.72895 0.04253 0.0
H2194 H 0.06647 0.84571 1.0201 0.0
H2195 H 0.07733 0.89592 0.03519 0.0
H2196 H 0.05216 0.8517 0.09244 0.0
H2197 H 0.04053 0.80112 0.07772 0.0
C2198 C 0.96987 0.70821 0.9676 0.0
C2199 C 0.94183 0.70918 0.9695 0.0
C2200 C 0.9934 0.72144 0.98208 0.0
C2201 C 0.98893 0.73467 0.99938 0.0
C2202 C 0.96077 0.73554 1.00134 0.0
C2203 C 0.93751 0.72303 0.98652 0.0
C2204 C 1.01331 0.74693 1.01548 0.0
C2205 C 1.0232 0.77683 1.02359 0.0
C2206 C 1.02701 0.72935 1.02281 0.0
C2207 C 1.01584 0.69648 1.01652 0.0
C2208 C 0.98395 0.67332 1.01856 0.0
C2209 C 0.97349 0.64246 1.01244 0.0
C2210 C 0.99475 0.6344 1.00441 0.0
C2211 C 1.02654 0.65718 1.00253 0.0
C2212 C 0.03712 0.68809 1.0086 0.0
C2213 C 0.10292 0.77294 0.09301 0.0
C2214 C 0.12843 0.80387 0.09369 0.0
C2215 C 0.0811 0.76309 0.07754 0.0
C2216 C 0.08452 0.78362 0.06192 0.0
C2217 C 0.11082 0.81434 0.06213 0.0
C2218 C 0.13242 0.82447 0.07798 0.0
C2219 C 0.06053 0.77225 0.04557 0.0
C2220 C 0.05083 0.74252 0.03727 0.0
C2221 C 0.04607 0.78942 0.03875 0.0
C2222 C 0.05299 0.81972 0.04781 0.0
C2223 C 0.06316 0.84669 0.03591 0.0
C2224 C 0.06941 0.87519 0.0444 0.0
C2225 C 0.06541 0.87696 0.06478 0.0
C2226 C 0.05521 0.85026 0.07669 0.0
C2227 C 0.04881 0.82168 0.06828 0.0
H2228 H 0.07009 0.89897 0.07134 0.0
H2229 H 0.9866 0.61049 0.99967 0.0
H2230 H 0.29782 0.96206 0.45592 0.0
H2231 H 0.31495 1.00129 0.48192 0.0
H2232 H 0.22922 0.94253 0.51434 0.0
H2233 H 0.21048 0.90437 0.48697 0.0
H2234 H 0.24225 0.99799 0.5206 0.0
H2235 H 0.3054 0.95039 0.52615 0.0
H2236 H 0.3402 0.93043 0.51536 0.0
H2237 H 0.4111 0.02389 0.4986 0.0
H2238 H 0.37655 0.04437 0.50906 0.0
H2239 H 0.36799 0.08967 0.60415 0.0
H2240 H 0.34474 0.04887 0.57903 0.0
H2241 H 0.30564 0.10006 0.54961 0.0
H2242 H 0.32749 0.14026 0.57577 0.0
H2243 H 0.35286 0.04535 0.54366 0.0
H2244 H 0.23956 0.05065 0.52341 0.0
H2245 H 0.20122 0.06161 0.53997 0.0
H2246 H 0.22485 0.03779 0.59638 0.0
H2247 H 0.26304 0.02642 0.58009 0.0
C2248 C 0.28231 0.95763 0.46842 0.0
C2249 C 0.25254 0.9303 0.46921 0.0
C2250 C 0.29239 0.97998 0.48353 0.0
C2251 C 0.27388 0.97481 0.50053 0.0
C2252 C 0.2441 0.94728 0.50146 0.0
C2253 C 0.23346 0.92531 0.48589 0.0
C2254 C 0.28602 0.99808 0.51722 0.0
C2255 C 0.26643 1.00826 0.52565 0.0
C2256 C 0.31729 1.011 0.52447 0.0
C2257 C 0.33827 0.99886 0.51824 0.0
C2258 C 0.32834 0.96666 0.52006 0.0
C2259 C 0.34803 0.95526 0.51401 0.0
C2260 C 0.37781 0.97587 0.50626 0.0
C2261 C 0.38801 1.00795 0.50459 0.0
C2262 C 0.3684 1.01947 0.5106 0.0
C2263 C 0.35428 0.0922 0.59239 0.0
C2264 C 0.34913 0.11793 0.59212 0.0
C2265 C 0.34106 0.06884 0.57792 0.0
C2266 C 0.32296 0.0709 0.56239 0.0
C2267 C 0.31879 0.09733 0.56164 0.0
C2268 C 0.33157 0.12052 0.57646 0.0
C2269 C 0.30926 0.0456 0.54696 0.0
C2270 C 0.32864 0.03509 0.53868 0.0
C2271 C 0.27735 0.03117 0.54075 0.0
C2272 C 0.25441 0.03804 0.55057 0.0
C2273 C 0.23652 0.04771 0.53934 0.0
C2274 C 0.21483 0.05401 0.54867 0.0
C2275 C 0.21068 0.05052 0.56922 0.0
C2276 C 0.22816 0.04063 0.58048 0.0
C2277 C 0.24986 0.03431 0.57121 0.0
H2278 H 0.19388 0.0554 0.57641 0.0
H2279 H 0.39301 0.96699 0.50157 0.0
loop_
_geom_bond_atom_site_label_1
_geom_bond_atom_site_label_2
_geom_bond_distance
_geom_bond_site_symmetry_2
_ccdc_geom_bond_type
La0 C2 2.928 . S
La0 O20 2.521 . S
La0 O21 2.628 . S
La0 O22 2.554 . S
La0 O23 2.757 . S
La0 O24 2.470 . S
La0 O29 2.482 . S
La0 O31 2.503 . S
La1 C11 2.928 . S
La1 O23 2.482 . S
La1 O25 2.503 . S
La1 O26 2.521 . S
La1 O27 2.628 . S
La1 O28 2.554 . S
La1 O29 2.757 . S
La1 O30 2.470 . S
C2 La0 2.928 . S
C2 C3 1.503 . S
C2 O20 1.261 . S
C2 O21 1.243 . S
C3 C2 1.503 . S
C3 C4 1.394 . S
C3 C8 1.373 . S
C4 C3 1.394 . S
C4 C5 1.380 . S
C4 H32 0.930 . S
C5 C4 1.380 . S
C5 C6 1.376 . S
C5 H33 0.930 . S
C6 C5 1.376 . S
C6 C7 1.370 . S
C7 C6 1.370 . S
C7 C8 1.396 . S
C7 H34 0.929 . S
C8 C3 1.373 . S
C8 C7 1.396 . S
C8 H35 0.929 . S
C9 O22 1.240 . S
C9 O23 1.289 . S
C10 O24 1.258 . S
C10 O25 1.256 . S
C11 La1 2.928 . S
C11 C12 1.503 . S
C11 O26 1.261 . S
C11 O27 1.243 . S
C12 C11 1.503 . S
C12 C13 1.394 . S
C12 C17 1.373 . S
C13 C12 1.394 . S
C13 C14 1.380 . S
C13 H36 0.930 . S
C14 C13 1.380 . S
C14 C15 1.376 . S
C14 H37 0.930 . S
C15 C14 1.376 . S
C15 C16 1.370 . S
C16 C15 1.370 . S
C16 C17 1.396 . S
C16 H38 0.929 . S
C17 C12 1.373 . S
C17 C16 1.396 . S
C17 H39 0.929 . S
C18 O28 1.240 . S
C18 O29 1.289 . S
C19 O30 1.258 . S
C19 O31 1.256 . S
O20 La0 2.521 . S
O20 C2 1.261 . S
O21 La0 2.628 . S
O21 C2 1.243 . S
O22 La0 2.554 . S
O22 C9 1.240 . S
O23 La0 2.757 . S
O23 La1 2.482 . S
O23 C9 1.289 . S
O24 La0 2.470 . S
O24 C10 1.258 . S
O25 La1 2.503 . S
O25 C10 1.256 . S
O26 La1 2.521 . S
O26 C11 1.261 . S
O27 La1 2.628 . S
O27 C11 1.243 . S
O28 La1 2.554 . S
O28 C18 1.240 . S
O29 La0 2.482 . S
O29 La1 2.757 . S
O29 C18 1.289 . S
O30 La1 2.470 . S
O30 C19 1.258 . S
O31 La0 2.503 . S
O31 C19 1.256 . S
H32 C4 0.930 . S
H33 C5 0.930 . S
H34 C7 0.929 . S
H35 C8 0.929 . S
H36 C13 0.930 . S
H37 C14 0.930 . S
H38 C16 0.929 . S
H39 C17 0.929 . S
La40 C42 2.928 . S
La40 O60 2.521 . S
La40 O61 2.628 . S
La40 O62 2.554 . S
La40 O63 2.757 . S
La40 O64 2.470 . S
La40 O69 2.482 . S
La40 O71 2.503 . S
La41 C51 2.928 . S
La41 O63 2.482 . S
La41 O65 2.503 . S
La41 O66 2.521 . S
La41 O67 2.628 . S
La41 O68 2.554 . S
La41 O69 2.757 . S
La41 O70 2.470 . S
C42 La40 2.928 . S
C42 C43 1.503 . S
C42 O60 1.261 . S
C42 O61 1.243 . S
C43 C42 1.503 . S
C43 C44 1.394 . S
C43 C48 1.373 . S
C44 C43 1.394 . S
C44 C45 1.380 . S
C44 H72 0.930 . S
C45 C44 1.380 . S
C45 C46 1.376 . S
C45 H73 0.930 . S
C46 C45 1.376 . S
C46 C47 1.370 . S
C47 C46 1.370 . S
C47 C48 1.396 . S
C47 H74 0.929 . S
C48 C43 1.373 . S
C48 C47 1.396 . S
C48 H75 0.929 . S
C49 O62 1.240 . S
C49 O63 1.289 . S
C50 O64 1.258 . S
C50 O65 1.256 . S
C51 La41 2.928 . S
C51 C52 1.503 . S
C51 O66 1.261 . S
C51 O67 1.243 . S
C52 C51 1.503 . S
C52 C53 1.394 . S
C52 C57 1.373 . S
C53 C52 1.394 . S
C53 C54 1.380 1_655 S
C53 H76 0.930 . S
C54 C53 1.380 1_455 S
C54 C55 1.376 . S
C54 H77 0.930 . S
C55 C54 1.376 . S
C55 C56 1.370 . S
C56 C55 1.370 . S
C56 C57 1.396 1_455 S
C56 H78 0.929 . S
C57 C52 1.373 . S
C57 C56 1.396 1_655 S
C57 H79 0.929 . S
C58 O68 1.240 . S
C58 O69 1.289 . S
C59 O70 1.258 . S
C59 O71 1.256 . S
O60 La40 2.521 . S
O60 C42 1.261 . S
O61 La40 2.628 . S
O61 C42 1.243 . S
O62 La40 2.554 . S
O62 C49 1.240 . S
O63 La40 2.757 . S
O63 La41 2.482 . S
O63 C49 1.289 . S
O64 La40 2.470 . S
O64 C50 1.258 . S
O65 La41 2.503 . S
O65 C50 1.256 . S
O66 La41 2.521 . S
O66 C51 1.261 . S
O67 La41 2.628 . S
O67 C51 1.243 . S
O68 La41 2.554 . S
O68 C58 1.240 . S
O69 La40 2.482 . S
O69 La41 2.757 . S
O69 C58 1.289 . S
O70 La41 2.470 . S
O70 C59 1.258 . S
O71 La40 2.503 . S
O71 C59 1.256 . S
H72 C44 0.930 . S
H73 C45 0.930 . S
H74 C47 0.929 . S
H75 C48 0.929 . S
H76 C53 0.930 . S
H77 C54 0.930 . S
H78 C56 0.929 . S
H79 C57 0.929 . S
La80 C82 2.928 . S
La80 O100 2.521 . S
La80 O101 2.628 . S
La80 O102 2.554 . S
La80 O103 2.757 . S
La80 O104 2.470 . S
La80 O109 2.482 . S
La80 O111 2.503 . S
La81 C91 2.928 . S
La81 O103 2.482 . S
La81 O105 2.503 . S
La81 O106 2.521 . S
La81 O107 2.628 . S
La81 O108 2.554 . S
La81 O109 2.757 . S
La81 O110 2.470 . S
C82 La80 2.928 . S
C82 C83 1.503 . S
C82 O100 1.261 . S
C82 O101 1.243 . S
C83 C82 1.503 . S
C83 C84 1.394 . S
C83 C88 1.373 . S
C84 C83 1.394 . S
C84 C85 1.380 . S
C84 H112 0.930 . S
C85 C84 1.380 . S
C85 C86 1.376 . S
C85 H113 0.930 . S
C86 C85 1.376 . S
C86 C87 1.370 . S
C87 C86 1.370 . S
C87 C88 1.396 . S
C87 H114 0.929 . S
C88 C83 1.373 . S
C88 C87 1.396 . S
C88 H115 0.929 . S
C89 O102 1.240 . S
C89 O103 1.289 . S
C90 O104 1.258 . S
C90 O105 1.256 . S
C91 La81 2.928 . S
C91 C92 1.503 . S
C91 O106 1.261 . S
C91 O107 1.243 . S
C92 C91 1.503 . S
C92 C93 1.394 . S
C92 C97 1.373 . S
C93 C92 1.394 . S
C93 C94 1.380 1_565 S
C93 H116 0.930 . S
C94 C93 1.380 1_545 S
C94 C95 1.376 . S
C94 H117 0.930 . S
C95 C94 1.376 . S
C95 C96 1.370 . S
C96 C95 1.370 . S
C96 C97 1.396 1_545 S
C96 H118 0.929 . S
C97 C92 1.373 . S
C97 C96 1.396 1_565 S
C97 H119 0.929 . S
C98 O108 1.240 . S
C98 O109 1.289 . S
C99 O110 1.258 . S
C99 O111 1.256 . S
O100 La80 2.521 . S
O100 C82 1.261 . S
O101 La80 2.628 . S
O101 C82 1.243 . S
O102 La80 2.554 . S
O102 C89 1.240 . S
O103 La80 2.757 . S
O103 La81 2.482 . S
O103 C89 1.289 . S
O104 La80 2.470 . S
O104 C90 1.258 . S
O105 La81 2.503 . S
O105 C90 1.256 . S
O106 La81 2.521 . S
O106 C91 1.261 . S
O107 La81 2.628 . S
O107 C91 1.243 . S
O108 La81 2.554 . S
O108 C98 1.240 . S
O109 La80 2.482 . S
O109 La81 2.757 . S
O109 C98 1.289 . S
O110 La81 2.470 . S
O110 C99 1.258 . S
O111 La80 2.503 . S
O111 C99 1.256 . S
H112 C84 0.930 . S
H113 C85 0.930 . S
H114 C87 0.929 . S
H115 C88 0.929 . S
H116 C93 0.930 . S
H117 C94 0.930 . S
H118 C96 0.929 . S
H119 C97 0.929 . S
La120 C122 2.928 . S
La120 O140 2.521 . S
La120 O141 2.628 . S
La120 O142 2.554 . S
La120 O143 2.757 . S
La120 O144 2.470 . S
La120 O149 2.482 . S
La120 O151 2.503 . S
La121 C131 2.928 . S
La121 O143 2.482 . S
La121 O145 2.503 . S
La121 O146 2.521 . S
La121 O147 2.628 . S
La121 O148 2.554 . S
La121 O149 2.757 . S
La121 O150 2.470 . S
C122 La120 2.928 . S
C122 C123 1.503 . S
C122 O140 1.261 . S
C122 O141 1.243 . S
C123 C122 1.503 . S
C123 C124 1.394 . S
C123 C128 1.373 . S
C124 C123 1.394 . S
C124 C125 1.380 . S
C124 H152 0.930 . S
C125 C124 1.380 . S
C125 C126 1.376 . S
C125 H153 0.930 . S
C126 C125 1.376 . S
C126 C127 1.370 . S
C127 C126 1.370 . S
C127 C128 1.396 . S
C127 H154 0.929 . S
C128 C123 1.373 . S
C128 C127 1.396 . S
C128 H155 0.929 . S
C129 O142 1.240 . S
C129 O143 1.289 . S
C130 O144 1.258 . S
C130 O145 1.256 . S
C131 La121 2.928 . S
C131 C132 1.503 . S
C131 O146 1.261 . S
C131 O147 1.243 . S
C132 C131 1.503 . S
C132 C133 1.394 . S
C132 C137 1.373 . S
C133 C132 1.394 . S
C133 C134 1.380 . S
C133 H156 0.930 . S
C134 C133 1.380 . S
C134 C135 1.376 . S
C134 H157 0.930 . S
C135 C134 1.376 . S
C135 C136 1.370 . S
C136 C135 1.370 . S
C136 C137 1.396 . S
C136 H158 0.929 . S
C137 C132 1.373 . S
C137 C136 1.396 . S
C137 H159 0.929 . S
C138 O148 1.240 . S
C138 O149 1.289 . S
C139 O150 1.258 . S
C139 O151 1.256 . S
O140 La120 2.521 . S
O140 C122 1.261 . S
O141 La120 2.628 . S
O141 C122 1.243 . S
O142 La120 2.554 . S
O142 C129 1.240 . S
O143 La120 2.757 . S
O143 La121 2.482 . S
O143 C129 1.289 . S
O144 La120 2.470 . S
O144 C130 1.258 . S
O145 La121 2.503 . S
O145 C130 1.256 . S
O146 La121 2.521 . S
O146 C131 1.261 . S
O147 La121 2.628 . S
O147 C131 1.243 . S
O148 La121 2.554 . S
O148 C138 1.240 . S
O149 La120 2.482 . S
O149 La121 2.757 . S
O149 C138 1.289 . S
O150 La121 2.470 . S
O150 C139 1.258 . S
O151 La120 2.503 . S
O151 C139 1.256 . S
H152 C124 0.930 . S
H153 C125 0.930 . S
H154 C127 0.929 . S
H155 C128 0.929 . S
H156 C133 0.930 . S
H157 C134 0.930 . S
H158 C136 0.929 . S
H159 C137 0.929 . S
La160 C162 2.928 . S
La160 O180 2.521 . S
La160 O181 2.628 . S
La160 O182 2.554 . S
La160 O183 2.757 . S
La160 O184 2.470 . S
La160 O189 2.482 . S
La160 O191 2.503 . S
La161 C171 2.928 . S
La161 O183 2.482 . S
La161 O185 2.503 . S
La161 O186 2.521 . S
La161 O187 2.628 . S
La161 O188 2.554 . S
La161 O189 2.757 . S
La161 O190 2.470 . S
C162 La160 2.928 . S
C162 C163 1.503 . S
C162 O180 1.261 . S
C162 O181 1.243 . S
C163 C162 1.503 . S
C163 C164 1.394 . S
C163 C168 1.373 . S
C164 C163 1.394 . S
C164 C165 1.380 . S
C164 H192 0.930 . S
C165 C164 1.380 . S
C165 C166 1.376 . S
C165 H193 0.930 . S
C166 C165 1.376 . S
C166 C167 1.370 . S
C167 C166 1.370 . S
C167 C168 1.396 . S
C167 H194 0.929 . S
C168 C163 1.373 . S
C168 C167 1.396 . S
C168 H195 0.929 . S
C169 O182 1.240 . S
C169 O183 1.289 . S
C170 O184 1.258 . S
C170 O185 1.256 . S
C171 La161 2.928 . S
C171 C172 1.503 . S
C171 O186 1.261 . S
C171 O187 1.243 . S
C172 C171 1.503 . S
C172 C173 1.394 . S
C172 C177 1.373 . S
C173 C172 1.394 . S
C173 C174 1.380 1_455 S
C173 H196 0.930 . S
C174 C173 1.380 1_655 S
C174 C175 1.376 . S
C174 H197 0.930 . S
C175 C174 1.376 . S
C175 C176 1.370 . S
C176 C175 1.370 . S
C176 C177 1.396 1_655 S
C176 H198 0.929 . S
C177 C172 1.373 . S
C177 C176 1.396 1_455 S
C177 H199 0.929 . S
C178 O188 1.240 . S
C178 O189 1.289 . S
C179 O190 1.258 . S
C179 O191 1.256 . S
O180 La160 2.521 . S
O180 C162 1.261 . S
O181 La160 2.628 . S
O181 C162 1.243 . S
O182 La160 2.554 . S
O182 C169 1.240 . S
O183 La160 2.757 . S
O183 La161 2.482 . S
O183 C169 1.289 . S
O184 La160 2.470 . S
O184 C170 1.258 . S
O185 La161 2.503 . S
O185 C170 1.256 . S
O186 La161 2.521 . S
O186 C171 1.261 . S
O187 La161 2.628 . S
O187 C171 1.243 . S
O188 La161 2.554 . S
O188 C178 1.240 . S
O189 La160 2.482 . S
O189 La161 2.757 . S
O189 C178 1.289 . S
O190 La161 2.470 . S
O190 C179 1.258 . S
O191 La160 2.503 . S
O191 C179 1.256 . S
H192 C164 0.930 . S
H193 C165 0.930 . S
H194 C167 0.929 . S
H195 C168 0.929 . S
H196 C173 0.930 . S
H197 C174 0.930 . S
H198 C176 0.929 . S
H199 C177 0.929 . S
La200 C202 2.928 . S
La200 O220 2.521 . S
La200 O221 2.628 . S
La200 O222 2.554 . S
La200 O223 2.757 . S
La200 O224 2.470 . S
La200 O229 2.482 . S
La200 O231 2.503 . S
La201 C211 2.928 . S
La201 O223 2.482 . S
La201 O225 2.503 . S
La201 O226 2.521 . S
La201 O227 2.628 . S
La201 O228 2.554 . S
La201 O229 2.757 . S
La201 O230 2.470 . S
C202 La200 2.928 . S
C202 C203 1.503 . S
C202 O220 1.261 . S
C202 O221 1.243 . S
C203 C202 1.503 . S
C203 C204 1.394 . S
C203 C208 1.373 . S
C204 C203 1.394 . S
C204 C205 1.380 . S
C204 H232 0.930 . S
C205 C204 1.380 . S
C205 C206 1.376 . S
C205 H233 0.930 . S
C206 C205 1.376 . S
C206 C207 1.370 . S
C207 C206 1.370 . S
C207 C208 1.396 . S
C207 H234 0.929 . S
C208 C203 1.373 . S
C208 C207 1.396 . S
C208 H235 0.929 . S
C209 O222 1.240 . S
C209 O223 1.289 . S
C210 O224 1.258 . S
C210 O225 1.256 . S
C211 La201 2.928 . S
C211 C212 1.503 . S
C211 O226 1.261 . S
C211 O227 1.243 . S
C212 C211 1.503 . S
C212 C213 1.394 . S
C212 C217 1.373 . S
C213 C212 1.394 . S
C213 C214 1.380 1_545 S
C213 H236 0.930 . S
C214 C213 1.380 1_565 S
C214 C215 1.376 . S
C214 H237 0.930 . S
C215 C214 1.376 . S
C215 C216 1.370 . S
C216 C215 1.370 . S
C216 C217 1.396 1_565 S
C216 H238 0.929 . S
C217 C212 1.373 . S
C217 C216 1.396 1_545 S
C217 H239 0.929 . S
C218 O228 1.240 . S
C218 O229 1.289 . S
C219 O230 1.258 . S
C219 O231 1.256 . S
O220 La200 2.521 . S
O220 C202 1.261 . S
O221 La200 2.628 . S
O221 C202 1.243 . S
O222 La200 2.554 . S
O222 C209 1.240 . S
O223 La200 2.757 . S
O223 La201 2.482 . S
O223 C209 1.289 . S
O224 La200 2.470 . S
O224 C210 1.258 . S
O225 La201 2.503 . S
O225 C210 1.256 . S
O226 La201 2.521 . S
O226 C211 1.261 . S
O227 La201 2.628 . S
O227 C211 1.243 . S
O228 La201 2.554 . S
O228 C218 1.240 . S
O229 La200 2.482 . S
O229 La201 2.757 . S
O229 C218 1.289 . S
O230 La201 2.470 . S
O230 C219 1.258 . S
O231 La200 2.503 . S
O231 C219 1.256 . S
H232 C204 0.930 . S
H233 C205 0.930 . S
H234 C207 0.929 . S
H235 C208 0.929 . S
H236 C213 0.930 . S
H237 C214 0.930 . S
H238 C216 0.929 . S
H239 C217 0.929 . S
La240 C242 2.928 . S
La240 O260 2.521 . S
La240 O261 2.628 . S
La240 O262 2.554 . S
La240 O263 2.757 . S
La240 O264 2.470 . S
La240 O269 2.482 . S
La240 O271 2.503 . S
La241 C251 2.928 . S
La241 O263 2.482 . S
La241 O265 2.503 . S
La241 O266 2.521 . S
La241 O267 2.628 . S
La241 O268 2.554 . S
La241 O269 2.757 . S
La241 O270 2.470 . S
C242 La240 2.928 . S
C242 C243 1.503 . S
C242 O260 1.261 . S
C242 O261 1.243 . S
C243 C242 1.503 . S
C243 C244 1.394 . S
C243 C248 1.373 . S
C244 C243 1.394 . S
C244 C245 1.380 . S
C244 H272 0.930 . S
C245 C244 1.380 . S
C245 C246 1.376 . S
C245 H273 0.930 . S
C246 C245 1.376 . S
C246 C247 1.370 . S
C247 C246 1.370 . S
C247 C248 1.396 . S
C247 H274 0.929 . S
C248 C243 1.373 . S
C248 C247 1.396 . S
C248 H275 0.929 . S
C249 O262 1.240 . S
C249 O263 1.289 . S
C250 O264 1.258 . S
C250 O265 1.256 . S
C251 La241 2.928 . S
C251 C252 1.503 . S
C251 O266 1.261 . S
C251 O267 1.243 . S
C252 C251 1.503 . S
C252 C253 1.394 . S
C252 C257 1.373 . S
C253 C252 1.394 . S
C253 C254 1.380 . S
C253 H276 0.930 . S
C254 C253 1.380 . S
C254 C255 1.376 . S
C254 H277 0.930 . S
C255 C254 1.376 . S
C255 C256 1.370 . S
C256 C255 1.370 . S
C256 C257 1.396 . S
C256 H278 0.929 . S
C257 C252 1.373 . S
C257 C256 1.396 . S
C257 H279 0.929 . S
C258 O268 1.240 . S
C258 O269 1.289 . S
C259 O270 1.258 . S
C259 O271 1.256 . S
O260 La240 2.521 . S
O260 C242 1.261 . S
O261 La240 2.628 . S
O261 C242 1.243 . S
O262 La240 2.554 . S
O262 C249 1.240 . S
O263 La240 2.757 . S
O263 La241 2.482 . S
O263 C249 1.289 . S
O264 La240 2.470 . S
O264 C250 1.258 . S
O265 La241 2.503 . S
O265 C250 1.256 . S
O266 La241 2.521 . S
O266 C251 1.261 . S
O267 La241 2.628 . S
O267 C251 1.243 . S
O268 La241 2.554 . S
O268 C258 1.240 . S
O269 La240 2.482 . S
O269 La241 2.757 . S
O269 C258 1.289 . S
O270 La241 2.470 . S
O270 C259 1.258 . S
O271 La240 2.503 . S
O271 C259 1.256 . S
H272 C244 0.930 . S
H273 C245 0.930 . S
H274 C247 0.929 . S
H275 C248 0.929 . S
H276 C253 0.930 . S
H277 C254 0.930 . S
H278 C256 0.929 . S
H279 C257 0.929 . S
La280 C282 2.928 . S
La280 O300 2.521 . S
La280 O301 2.628 . S
La280 O302 2.554 . S
La280 O303 2.757 . S
La280 O304 2.470 . S
La280 O309 2.482 . S
La280 O311 2.503 . S
La281 C291 2.928 . S
La281 O303 2.482 . S
La281 O305 2.503 . S
La281 O306 2.521 . S
La281 O307 2.628 . S
La281 O308 2.554 . S
La281 O309 2.757 . S
La281 O310 2.470 . S
C282 La280 2.928 . S
C282 C283 1.503 . S
C282 O300 1.261 . S
C282 O301 1.243 . S
C283 C282 1.503 . S
C283 C284 1.394 . S
C283 C288 1.373 . S
C284 C283 1.394 . S
C284 C285 1.380 . S
C284 H312 0.930 . S
C285 C284 1.380 . S
C285 C286 1.376 . S
C285 H313 0.930 . S
C286 C285 1.376 . S
C286 C287 1.370 . S
C287 C286 1.370 . S
C287 C288 1.396 . S
C287 H314 0.929 . S
C288 C283 1.373 . S
C288 C287 1.396 . S
C288 H315 0.929 . S
C289 O302 1.240 . S
C289 O303 1.289 . S
C290 O304 1.258 . S
C290 O305 1.256 . S
C291 La281 2.928 . S
C291 C292 1.503 . S
C291 O306 1.261 . S
C291 O307 1.243 . S
C292 C291 1.503 . S
C292 C293 1.394 . S
C292 C297 1.373 . S
C293 C292 1.394 . S
C293 C294 1.380 1_655 S
C293 H316 0.930 . S
C294 C293 1.380 1_455 S
C294 C295 1.376 . S
C294 H317 0.930 . S
C295 C294 1.376 . S
C295 C296 1.370 . S
C296 C295 1.370 . S
C296 C297 1.396 1_455 S
C296 H318 0.929 . S
C297 C292 1.373 . S
C297 C296 1.396 1_655 S
C297 H319 0.929 . S
C298 O308 1.240 . S
C298 O309 1.289 . S
C299 O310 1.258 . S
C299 O311 1.256 . S
O300 La280 2.521 . S
O300 C282 1.261 . S
O301 La280 2.628 . S
O301 C282 1.243 . S
O302 La280 2.554 . S
O302 C289 1.240 . S
O303 La280 2.757 . S
O303 La281 2.482 . S
O303 C289 1.289 . S
O304 La280 2.470 . S
O304 C290 1.258 . S
O305 La281 2.503 . S
O305 C290 1.256 . S
O306 La281 2.521 . S
O306 C291 1.261 . S
O307 La281 2.628 . S
O307 C291 1.243 . S
O308 La281 2.554 . S
O308 C298 1.240 . S
O309 La280 2.482 . S
O309 La281 2.757 . S
O309 C298 1.289 . S
O310 La281 2.470 . S
O310 C299 1.258 . S
O311 La280 2.503 . S
O311 C299 1.256 . S
H312 C284 0.930 . S
H313 C285 0.930 . S
H314 C287 0.929 . S
H315 C288 0.929 . S
H316 C293 0.930 . S
H317 C294 0.930 . S
H318 C296 0.929 . S
H319 C297 0.929 . S
La320 C322 2.928 . S
La320 O340 2.521 . S
La320 O341 2.628 . S
La320 O342 2.554 . S
La320 O343 2.757 . S
La320 O344 2.470 . S
La320 O349 2.482 . S
La320 O351 2.503 . S
La321 C331 2.928 . S
La321 O343 2.482 . S
La321 O345 2.503 . S
La321 O346 2.521 . S
La321 O347 2.628 . S
La321 O348 2.554 . S
La321 O349 2.757 . S
La321 O350 2.470 . S
C322 La320 2.928 . S
C322 C323 1.503 . S
C322 O340 1.261 . S
C322 O341 1.243 . S
C323 C322 1.503 . S
C323 C324 1.394 . S
C323 C328 1.373 . S
C324 C323 1.394 . S
C324 C325 1.380 . S
C324 H352 0.930 . S
C325 C324 1.380 . S
C325 C326 1.376 . S
C325 H353 0.930 . S
C326 C325 1.376 . S
C326 C327 1.370 . S
C327 C326 1.370 . S
C327 C328 1.396 . S
C327 H354 0.929 . S
C328 C323 1.373 . S
C328 C327 1.396 . S
C328 H355 0.929 . S
C329 O342 1.240 . S
C329 O343 1.289 . S
C330 O344 1.258 . S
C330 O345 1.256 . S
C331 La321 2.928 . S
C331 C332 1.503 . S
C331 O346 1.261 . S
C331 O347 1.243 . S
C332 C331 1.503 . S
C332 C333 1.394 . S
C332 C337 1.373 . S
C333 C332 1.394 . S
C333 C334 1.380 1_565 S
C333 H356 0.930 . S
C334 C333 1.380 1_545 S
C334 C335 1.376 . S
C334 H357 0.930 . S
C335 C334 1.376 . S
C335 C336 1.370 . S
C336 C335 1.370 . S
C336 C337 1.396 1_545 S
C336 H358 0.929 . S
C337 C332 1.373 . S
C337 C336 1.396 1_565 S
C337 H359 0.929 . S
C338 O348 1.240 . S
C338 O349 1.289 . S
C339 O350 1.258 . S
C339 O351 1.256 . S
O340 La320 2.521 . S
O340 C322 1.261 . S
O341 La320 2.628 . S
O341 C322 1.243 . S
O342 La320 2.554 . S
O342 C329 1.240 . S
O343 La320 2.757 . S
O343 La321 2.482 . S
O343 C329 1.289 . S
O344 La320 2.470 . S
O344 C330 1.258 . S
O345 La321 2.503 . S
O345 C330 1.256 . S
O346 La321 2.521 . S
O346 C331 1.261 . S
O347 La321 2.628 . S
O347 C331 1.243 . S
O348 La321 2.554 . S
O348 C338 1.240 . S
O349 La320 2.482 . S
O349 La321 2.757 . S
O349 C338 1.289 . S
O350 La321 2.470 . S
O350 C339 1.258 . S
O351 La320 2.503 . S
O351 C339 1.256 . S
H352 C324 0.930 . S
H353 C325 0.930 . S
H354 C327 0.929 . S
H355 C328 0.929 . S
H356 C333 0.930 . S
H357 C334 0.930 . S
H358 C336 0.929 . S
H359 C337 0.929 . S
La360 C362 2.928 . S
La360 O380 2.521 . S
La360 O381 2.628 . S
La360 O382 2.554 . S
La360 O383 2.757 . S
La360 O384 2.470 . S
La360 O389 2.482 . S
La360 O391 2.503 . S
La361 C371 2.928 . S
La361 O383 2.482 . S
La361 O385 2.503 . S
La361 O386 2.521 . S
La361 O387 2.628 . S
La361 O388 2.554 . S
La361 O389 2.757 . S
La361 O390 2.470 . S
C362 La360 2.928 . S
C362 C363 1.503 . S
C362 O380 1.261 . S
C362 O381 1.243 . S
C363 C362 1.503 . S
C363 C364 1.394 . S
C363 C368 1.373 . S
C364 C363 1.394 . S
C364 C365 1.380 . S
C364 H392 0.930 . S
C365 C364 1.380 . S
C365 C366 1.376 . S
C365 H393 0.930 . S
C366 C365 1.376 . S
C366 C367 1.370 . S
C367 C366 1.370 . S
C367 C368 1.396 . S
C367 H394 0.929 . S
C368 C363 1.373 . S
C368 C367 1.396 . S
C368 H395 0.929 . S
C369 O382 1.240 . S
C369 O383 1.289 . S
C370 O384 1.258 . S
C370 O385 1.256 . S
C371 La361 2.928 . S
C371 C372 1.503 . S
C371 O386 1.261 . S
C371 O387 1.243 . S
C372 C371 1.503 . S
C372 C373 1.394 . S
C372 C377 1.373 . S
C373 C372 1.394 . S
C373 C374 1.380 . S
C373 H396 0.930 . S
C374 C373 1.380 . S
C374 C375 1.376 . S
C374 H397 0.930 . S
C375 C374 1.376 . S
C375 C376 1.370 . S
C376 C375 1.370 . S
C376 C377 1.396 . S
C376 H398 0.929 . S
C377 C372 1.373 . S
C377 C376 1.396 . S
C377 H399 0.929 . S
C378 O388 1.240 . S
C378 O389 1.289 . S
C379 O390 1.258 . S
C379 O391 1.256 . S
O380 La360 2.521 . S
O380 C362 1.261 . S
O381 La360 2.628 . S
O381 C362 1.243 . S
O382 La360 2.554 . S
O382 C369 1.240 . S
O383 La360 2.757 . S
O383 La361 2.482 . S
O383 C369 1.289 . S
O384 La360 2.470 . S
O384 C370 1.258 . S
O385 La361 2.503 . S
O385 C370 1.256 . S
O386 La361 2.521 . S
O386 C371 1.261 . S
O387 La361 2.628 . S
O387 C371 1.243 . S
O388 La361 2.554 . S
O388 C378 1.240 . S
O389 La360 2.482 . S
O389 La361 2.757 . S
O389 C378 1.289 . S
O390 La361 2.470 . S
O390 C379 1.258 . S
O391 La360 2.503 . S
O391 C379 1.256 . S
H392 C364 0.930 . S
H393 C365 0.930 . S
H394 C367 0.929 . S
H395 C368 0.929 . S
H396 C373 0.930 . S
H397 C374 0.930 . S
H398 C376 0.929 . S
H399 C377 0.929 . S
La400 C402 2.928 . S
La400 O420 2.521 . S
La400 O421 2.628 . S
La400 O422 2.554 . S
La400 O423 2.757 . S
La400 O424 2.470 . S
La400 O429 2.482 . S
La400 O431 2.503 . S
La401 C411 2.928 . S
La401 O423 2.482 . S
La401 O425 2.503 . S
La401 O426 2.521 . S
La401 O427 2.628 . S
La401 O428 2.554 . S
La401 O429 2.757 . S
La401 O430 2.470 . S
C402 La400 2.928 . S
C402 C403 1.503 . S
C402 O420 1.261 . S
C402 O421 1.243 . S
C403 C402 1.503 . S
C403 C404 1.394 . S
C403 C408 1.373 . S
C404 C403 1.394 . S
C404 C405 1.380 . S
C404 H432 0.930 . S
C405 C404 1.380 . S
C405 C406 1.376 . S
C405 H433 0.930 . S
C406 C405 1.376 . S
C406 C407 1.370 . S
C407 C406 1.370 . S
C407 C408 1.396 . S
C407 H434 0.929 . S
C408 C403 1.373 . S
C408 C407 1.396 . S
C408 H435 0.929 . S
C409 O422 1.240 . S
C409 O423 1.289 . S
C410 O424 1.258 . S
C410 O425 1.256 . S
C411 La401 2.928 . S
C411 C412 1.503 . S
C411 O426 1.261 . S
C411 O427 1.243 . S
C412 C411 1.503 . S
C412 C413 1.394 . S
C412 C417 1.373 . S
C413 C412 1.394 . S
C413 C414 1.380 1_455 S
C413 H436 0.930 . S
C414 C413 1.380 1_655 S
C414 C415 1.376 . S
C414 H437 0.930 . S
C415 C414 1.376 . S
C415 C416 1.370 . S
C416 C415 1.370 . S
C416 C417 1.396 1_655 S
C416 H438 0.929 . S
C417 C412 1.373 . S
C417 C416 1.396 1_455 S
C417 H439 0.929 . S
C418 O428 1.240 . S
C418 O429 1.289 . S
C419 O430 1.258 . S
C419 O431 1.256 . S
O420 La400 2.521 . S
O420 C402 1.261 . S
O421 La400 2.628 . S
O421 C402 1.243 . S
O422 La400 2.554 . S
O422 C409 1.240 . S
O423 La400 2.757 . S
O423 La401 2.482 . S
O423 C409 1.289 . S
O424 La400 2.470 . S
O424 C410 1.258 . S
O425 La401 2.503 . S
O425 C410 1.256 . S
O426 La401 2.521 . S
O426 C411 1.261 . S
O427 La401 2.628 . S
O427 C411 1.243 . S
O428 La401 2.554 . S
O428 C418 1.240 . S
O429 La400 2.482 . S
O429 La401 2.757 . S
O429 C418 1.289 . S
O430 La401 2.470 . S
O430 C419 1.258 . S
O431 La400 2.503 . S
O431 C419 1.256 . S
H432 C404 0.930 . S
H433 C405 0.930 . S
H434 C407 0.929 . S
H435 C408 0.929 . S
H436 C413 0.930 . S
H437 C414 0.930 . S
H438 C416 0.929 . S
H439 C417 0.929 . S
La440 C442 2.928 . S
La440 O460 2.521 . S
La440 O461 2.628 . S
La440 O462 2.554 . S
La440 O463 2.757 . S
La440 O464 2.470 . S
La440 O469 2.482 . S
La440 O471 2.503 . S
La441 C451 2.928 . S
La441 O463 2.482 . S
La441 O465 2.503 . S
La441 O466 2.521 . S
La441 O467 2.628 . S
La441 O468 2.554 . S
La441 O469 2.757 . S
La441 O470 2.470 . S
C442 La440 2.928 . S
C442 C443 1.503 . S
C442 O460 1.261 . S
C442 O461 1.243 . S
C443 C442 1.503 . S
C443 C444 1.394 . S
C443 C448 1.373 . S
C444 C443 1.394 . S
C444 C445 1.380 . S
C444 H472 0.930 . S
C445 C444 1.380 . S
C445 C446 1.376 . S
C445 H473 0.930 . S
C446 C445 1.376 . S
C446 C447 1.370 . S
C447 C446 1.370 . S
C447 C448 1.396 . S
C447 H474 0.929 . S
C448 C443 1.373 . S
C448 C447 1.396 . S
C448 H475 0.929 . S
C449 O462 1.240 . S
C449 O463 1.289 . S
C450 O464 1.258 . S
C450 O465 1.256 . S
C451 La441 2.928 . S
C451 C452 1.503 . S
C451 O466 1.261 . S
C451 O467 1.243 . S
C452 C451 1.503 . S
C452 C453 1.394 . S
C452 C457 1.373 . S
C453 C452 1.394 . S
C453 C454 1.380 1_545 S
C453 H476 0.930 . S
C454 C453 1.380 1_565 S
C454 C455 1.376 . S
C454 H477 0.930 . S
C455 C454 1.376 . S
C455 C456 1.370 . S
C456 C455 1.370 . S
C456 C457 1.396 1_565 S
C456 H478 0.929 . S
C457 C452 1.373 . S
C457 C456 1.396 1_545 S
C457 H479 0.929 . S
C458 O468 1.240 . S
C458 O469 1.289 . S
C459 O470 1.258 . S
C459 O471 1.256 . S
O460 La440 2.521 . S
O460 C442 1.261 . S
O461 La440 2.628 . S
O461 C442 1.243 . S
O462 La440 2.554 . S
O462 C449 1.240 . S
O463 La440 2.757 . S
O463 La441 2.482 . S
O463 C449 1.289 . S
O464 La440 2.470 . S
O464 C450 1.258 . S
O465 La441 2.503 . S
O465 C450 1.256 . S
O466 La441 2.521 . S
O466 C451 1.261 . S
O467 La441 2.628 . S
O467 C451 1.243 . S
O468 La441 2.554 . S
O468 C458 1.240 . S
O469 La440 2.482 . S
O469 La441 2.757 . S
O469 C458 1.289 . S
O470 La441 2.470 . S
O470 C459 1.258 . S
O471 La440 2.503 . S
O471 C459 1.256 . S
H472 C444 0.930 . S
H473 C445 0.930 . S
H474 C447 0.929 . S
H475 C448 0.929 . S
H476 C453 0.930 . S
H477 C454 0.930 . S
H478 C456 0.929 . S
H479 C457 0.929 . S
H480 C498 0.951 . S
H481 C500 0.951 . S
H482 C502 0.950 . S
H483 C503 0.950 . S
H484 C505 0.950 . S
H485 C508 0.950 . S
H486 C509 0.950 . S
H487 C511 0.950 . S
H488 C512 0.950 . S
H489 C513 0.951 . S
H490 C515 0.951 . S
H491 C517 0.950 . S
H492 C518 0.950 . S
H493 C520 0.950 . S
H494 C523 0.950 . S
H495 C524 0.950 . S
H496 C526 0.950 . S
H497 C527 0.950 . S
C498 H480 0.951 . S
C498 C499 1.366 . S
C498 C500 1.388 . S
C499 C498 1.366 . S
C499 C503 1.385 . S
C500 H481 0.951 . S
C500 C498 1.388 . S
C500 C501 1.366 . S
C501 C500 1.366 . S
C501 C502 1.414 . S
C501 C504 1.499 . S
C502 H482 0.950 . S
C502 C501 1.414 . S
C502 C503 1.374 . S
C503 H483 0.950 . S
C503 C499 1.385 . S
C503 C502 1.374 . S
C504 C501 1.499 . S
C504 C505 1.373 . S
C504 C506 1.389 . S
C505 H484 0.950 . S
C505 C504 1.373 . S
C505 C521 1.377 1_565 S
C506 C504 1.389 . S
C506 C507 1.524 . S
C506 C520 1.377 1_565 S
C507 C506 1.524 . S
C507 C508 1.397 . S
C507 C512 1.363 . S
C508 H485 0.950 . S
C508 C507 1.397 . S
C508 C509 1.334 . S
C509 H486 0.950 . S
C509 C508 1.334 . S
C509 C510 1.287 . S
C510 C509 1.287 . S
C510 C511 1.524 . S
C510 H529 0.913 . S
C511 H487 0.950 . S
C511 C510 1.524 . S
C511 C512 1.415 . S
C512 H488 0.950 . S
C512 C507 1.363 . S
C512 C511 1.415 . S
C513 H489 0.951 . S
C513 C514 1.366 . S
C513 C515 1.388 . S
C514 C513 1.366 . S
C514 C518 1.385 . S
C515 H490 0.951 . S
C515 C513 1.388 . S
C515 C516 1.366 . S
C516 C515 1.366 . S
C516 C517 1.414 . S
C516 C519 1.499 . S
C517 H491 0.950 . S
C517 C516 1.414 . S
C517 C518 1.374 . S
C518 H492 0.950 . S
C518 C514 1.385 . S
C518 C517 1.374 . S
C519 C516 1.499 . S
C519 C520 1.373 . S
C519 C521 1.389 . S
C520 H493 0.950 . S
C520 C506 1.377 1_545 S
C520 C519 1.373 . S
C521 C505 1.377 1_545 S
C521 C519 1.389 . S
C521 C522 1.524 . S
C522 C521 1.524 . S
C522 C523 1.397 . S
C522 C527 1.363 . S
C523 H494 0.950 . S
C523 C522 1.397 . S
C523 C524 1.334 . S
C524 H495 0.950 . S
C524 C523 1.334 . S
C524 C525 1.287 . S
C525 C524 1.287 . S
C525 C526 1.524 . S
C525 H528 0.999 . S
C526 H496 0.950 . S
C526 C525 1.524 . S
C526 C527 1.415 . S
C527 H497 0.950 . S
C527 C522 1.363 . S
C527 C526 1.415 . S
H528 C525 0.999 . S
H529 C510 0.913 . S
H530 C548 0.951 . S
H531 C550 0.951 . S
H532 C552 0.950 . S
H533 C553 0.950 . S
H534 C555 0.950 . S
H535 C558 0.950 . S
H536 C559 0.950 . S
H537 C561 0.950 . S
H538 C562 0.950 . S
H539 C563 0.951 . S
H540 C565 0.951 . S
H541 C567 0.950 . S
H542 C568 0.950 . S
H543 C570 0.950 . S
H544 C573 0.950 . S
H545 C574 0.950 . S
H546 C576 0.950 . S
H547 C577 0.950 . S
C548 H530 0.951 . S
C548 C549 1.366 . S
C548 C550 1.388 . S
C549 C548 1.366 . S
C549 C553 1.385 . S
C550 H531 0.951 . S
C550 C548 1.388 . S
C550 C551 1.366 . S
C551 C550 1.366 . S
C551 C552 1.414 . S
C551 C554 1.499 . S
C552 H532 0.950 . S
C552 C551 1.414 . S
C552 C553 1.374 . S
C553 H533 0.950 . S
C553 C549 1.385 . S
C553 C552 1.374 . S
C554 C551 1.499 . S
C554 C555 1.373 . S
C554 C556 1.389 . S
C555 H534 0.950 . S
C555 C554 1.373 . S
C555 C571 1.377 . S
C556 C554 1.389 . S
C556 C557 1.524 . S
C556 C570 1.377 . S
C557 C556 1.524 . S
C557 C558 1.397 . S
C557 C562 1.363 . S
C558 H535 0.950 . S
C558 C557 1.397 . S
C558 C559 1.334 . S
C559 H536 0.950 . S
C559 C558 1.334 . S
C559 C560 1.287 . S
C560 C559 1.287 . S
C560 C561 1.524 . S
C560 H579 0.913 . S
C561 H537 0.950 . S
C561 C560 1.524 . S
C561 C562 1.415 . S
C562 H538 0.950 . S
C562 C557 1.363 . S
C562 C561 1.415 . S
C563 H539 0.951 . S
C563 C564 1.366 . S
C563 C565 1.388 . S
C564 C563 1.366 . S
C564 C568 1.385 . S
C565 H540 0.951 . S
C565 C563 1.388 . S
C565 C566 1.366 . S
C566 C565 1.366 . S
C566 C567 1.414 . S
C566 C569 1.499 . S
C567 H541 0.950 . S
C567 C566 1.414 . S
C567 C568 1.374 . S
C568 H542 0.950 . S
C568 C564 1.385 . S
C568 C567 1.374 . S
C569 C566 1.499 . S
C569 C570 1.373 . S
C569 C571 1.389 . S
C570 H543 0.950 . S
C570 C556 1.377 . S
C570 C569 1.373 . S
C571 C555 1.377 . S
C571 C569 1.389 . S
C571 C572 1.524 . S
C572 C571 1.524 . S
C572 C573 1.397 . S
C572 C577 1.363 . S
C573 H544 0.950 . S
C573 C572 1.397 . S
C573 C574 1.334 . S
C574 H545 0.950 . S
C574 C573 1.334 . S
C574 C575 1.287 . S
C575 C574 1.287 . S
C575 C576 1.524 . S
C575 H578 0.999 . S
C576 H546 0.950 . S
C576 C575 1.524 . S
C576 C577 1.415 . S
C577 H547 0.950 . S
C577 C572 1.363 . S
C577 C576 1.415 . S
H578 C575 0.999 . S
H579 C560 0.913 . S
H580 C598 0.951 . S
H581 C600 0.951 . S
H582 C602 0.950 . S
H583 C603 0.950 . S
H584 C605 0.950 . S
H585 C608 0.950 . S
H586 C609 0.950 . S
H587 C611 0.950 . S
H588 C612 0.950 . S
H589 C613 0.951 . S
H590 C615 0.951 . S
H591 C617 0.950 . S
H592 C618 0.950 . S
H593 C620 0.950 . S
H594 C623 0.950 . S
H595 C624 0.950 . S
H596 C626 0.950 . S
H597 C627 0.950 . S
C598 H580 0.951 . S
C598 C599 1.366 . S
C598 C600 1.388 . S
C599 C598 1.366 . S
C599 C603 1.385 . S
C600 H581 0.951 . S
C600 C598 1.388 . S
C600 C601 1.366 . S
C601 C600 1.366 . S
C601 C602 1.414 . S
C601 C604 1.499 . S
C602 H582 0.950 . S
C602 C601 1.414 . S
C602 C603 1.374 . S
C603 H583 0.950 . S
C603 C599 1.385 . S
C603 C602 1.374 . S
C604 C601 1.499 . S
C604 C605 1.373 . S
C604 C606 1.389 . S
C605 H584 0.950 . S
C605 C604 1.373 . S
C605 C621 1.377 . S
C606 C604 1.389 . S
C606 C607 1.524 . S
C606 C620 1.377 1_655 S
C607 C606 1.524 . S
C607 C608 1.397 . S
C607 C612 1.363 1_655 S
C608 H585 0.950 . S
C608 C607 1.397 . S
C608 C609 1.334 . S
C609 H586 0.950 . S
C609 C608 1.334 . S
C609 C610 1.287 . S
C610 C609 1.287 . S
C610 C611 1.524 1_655 S
C610 H629 0.913 . S
C611 H587 0.950 . S
C611 C610 1.524 1_455 S
C611 C612 1.415 . S
C612 H588 0.950 . S
C612 C607 1.363 1_455 S
C612 C611 1.415 . S
C613 H589 0.951 . S
C613 C614 1.366 . S
C613 C615 1.388 . S
C614 C613 1.366 . S
C614 C618 1.385 . S
C615 H590 0.951 . S
C615 C613 1.388 . S
C615 C616 1.366 . S
C616 C615 1.366 . S
C616 C617 1.414 . S
C616 C619 1.499 . S
C617 H591 0.950 . S
C617 C616 1.414 . S
C617 C618 1.374 . S
C618 H592 0.950 . S
C618 C614 1.385 . S
C618 C617 1.374 . S
C619 C616 1.499 . S
C619 C620 1.373 . S
C619 C621 1.389 1_455 S
C620 H593 0.950 . S
C620 C606 1.377 1_455 S
C620 C619 1.373 . S
C621 C605 1.377 . S
C621 C619 1.389 1_655 S
C621 C622 1.532 1_655 S
C622 C621 1.532 1_455 S
C622 C623 1.416 . S
C622 C627 1.337 1_455 S
C623 H594 0.950 . S
C623 C622 1.416 . S
C623 C624 1.334 . S
C624 H595 0.950 . S
C624 C623 1.334 . S
C624 C625 1.287 . S
C625 C624 1.287 . S
C625 C626 1.524 1_455 S
C625 H628 0.999 . S
C626 H596 0.950 . S
C626 C625 1.524 1_655 S
C626 C627 1.415 . S
C627 H597 0.950 . S
C627 C622 1.337 1_655 S
C627 C626 1.415 . S
H628 C625 0.999 . S
H629 C610 0.913 . S
H630 C648 0.951 . S
H631 C650 0.951 . S
H632 C652 0.950 . S
H633 C653 0.950 . S
H634 C655 0.950 . S
H635 C658 0.950 . S
H636 C659 0.950 . S
H637 C661 0.950 1_545 S
H638 C662 0.950 1_545 S
H639 C663 0.951 . S
H640 C665 0.951 . S
H641 C667 0.950 . S
H642 C668 0.950 . S
H643 C670 0.950 . S
H644 C673 0.950 . S
H645 C674 0.950 . S
H646 C676 0.950 . S
H647 C677 0.950 . S
C648 H630 0.951 . S
C648 C649 1.366 . S
C648 C650 1.388 . S
C649 C648 1.366 . S
C649 C653 1.385 . S
C650 H631 0.951 . S
C650 C648 1.388 . S
C650 C651 1.366 . S
C651 C650 1.366 . S
C651 C652 1.414 . S
C651 C654 1.499 . S
C652 H632 0.950 . S
C652 C651 1.414 . S
C652 C653 1.374 . S
C653 H633 0.950 . S
C653 C649 1.385 . S
C653 C652 1.374 . S
C654 C651 1.499 . S
C654 C655 1.373 . S
C654 C656 1.389 . S
C655 H634 0.950 . S
C655 C654 1.373 . S
C655 C671 1.378 1_565 S
C656 C654 1.389 . S
C656 C657 1.524 . S
C656 C670 1.377 1_565 S
C657 C656 1.524 . S
C657 C658 1.397 . S
C657 C662 1.363 . S
C658 H635 0.950 . S
C658 C657 1.397 . S
C658 C659 1.334 . S
C659 H636 0.950 . S
C659 C658 1.334 . S
C659 C660 1.287 . S
C660 C659 1.287 . S
C660 C661 1.524 . S
C660 H679 0.913 . S
C661 H637 0.950 1_565 S
C661 C660 1.524 . S
C661 C662 1.415 . S
C662 H638 0.950 1_565 S
C662 C657 1.363 . S
C662 C661 1.415 . S
C663 H639 0.951 . S
C663 C664 1.366 . S
C663 C665 1.388 . S
C664 C663 1.366 . S
C664 C668 1.385 . S
C665 H640 0.951 . S
C665 C663 1.388 . S
C665 C666 1.366 . S
C666 C665 1.366 . S
C666 C667 1.414 . S
C666 C669 1.499 . S
C667 H641 0.950 . S
C667 C666 1.414 . S
C667 C668 1.374 . S
C668 H642 0.950 . S
C668 C664 1.385 . S
C668 C667 1.374 . S
C669 C666 1.499 . S
C669 C670 1.373 . S
C669 C671 1.388 . S
C670 H643 0.950 . S
C670 C656 1.377 1_545 S
C670 C669 1.373 . S
C671 C655 1.378 1_545 S
C671 C669 1.388 . S
C671 C672 1.524 . S
C672 C671 1.524 . S
C672 C673 1.397 . S
C672 C677 1.363 1_545 S
C673 H644 0.950 . S
C673 C672 1.397 . S
C673 C674 1.334 . S
C674 H645 0.950 . S
C674 C673 1.334 . S
C674 C675 1.287 . S
C675 C674 1.287 . S
C675 C676 1.524 1_545 S
C675 H678 0.999 . S
C676 H646 0.950 . S
C676 C675 1.524 1_565 S
C676 C677 1.415 . S
C677 H647 0.950 . S
C677 C672 1.363 1_565 S
C677 C676 1.415 . S
H678 C675 0.999 . S
H679 C660 0.913 . S
H680 C698 0.951 . S
H681 C700 0.951 . S
H682 C702 0.950 . S
H683 C703 0.950 . S
H684 C705 0.950 . S
H685 C708 0.950 . S
H686 C709 0.950 . S
H687 C711 0.950 . S
H688 C712 0.950 . S
H689 C713 0.951 . S
H690 C715 0.951 . S
H691 C717 0.950 . S
H692 C718 0.950 . S
H693 C720 0.950 . S
H694 C723 0.950 . S
H695 C724 0.950 . S
H696 C726 0.950 . S
H697 C727 0.950 . S
C698 H680 0.951 . S
C698 C699 1.366 . S
C698 C700 1.388 . S
C699 C698 1.366 . S
C699 C703 1.385 . S
C700 H681 0.951 . S
C700 C698 1.388 . S
C700 C701 1.366 . S
C701 C700 1.366 . S
C701 C702 1.414 . S
C701 C704 1.499 . S
C702 H682 0.950 . S
C702 C701 1.414 . S
C702 C703 1.374 . S
C703 H683 0.950 . S
C703 C699 1.385 . S
C703 C702 1.374 . S
C704 C701 1.499 . S
C704 C705 1.373 . S
C704 C706 1.389 . S
C705 H684 0.950 . S
C705 C704 1.373 . S
C705 C721 1.377 . S
C706 C704 1.389 . S
C706 C707 1.524 . S
C706 C720 1.377 . S
C707 C706 1.524 . S
C707 C708 1.397 . S
C707 C712 1.363 . S
C708 H685 0.950 . S
C708 C707 1.397 . S
C708 C709 1.334 . S
C709 H686 0.950 . S
C709 C708 1.334 . S
C709 C710 1.287 . S
C710 C709 1.287 . S
C710 C711 1.524 . S
C710 H729 0.913 . S
C711 H687 0.950 . S
C711 C710 1.524 . S
C711 C712 1.415 . S
C712 H688 0.950 . S
C712 C707 1.363 . S
C712 C711 1.415 . S
C713 H689 0.951 . S
C713 C714 1.366 . S
C713 C715 1.388 . S
C714 C713 1.366 . S
C714 C718 1.385 . S
C715 H690 0.951 . S
C715 C713 1.388 . S
C715 C716 1.366 . S
C716 C715 1.366 . S
C716 C717 1.414 . S
C716 C719 1.499 . S
C717 H691 0.950 . S
C717 C716 1.414 . S
C717 C718 1.374 . S
C718 H692 0.950 . S
C718 C714 1.385 . S
C718 C717 1.374 . S
C719 C716 1.499 . S
C719 C720 1.373 . S
C719 C721 1.389 . S
C720 H693 0.950 . S
C720 C706 1.377 . S
C720 C719 1.373 . S
C721 C705 1.377 . S
C721 C719 1.389 . S
C721 C722 1.524 . S
C722 C721 1.524 . S
C722 C723 1.397 . S
C722 C727 1.363 . S
C723 H694 0.950 . S
C723 C722 1.397 . S
C723 C724 1.334 . S
C724 H695 0.950 . S
C724 C723 1.334 . S
C724 C725 1.287 . S
C725 C724 1.287 . S
C725 C726 1.524 . S
C725 H728 0.999 . S
C726 H696 0.950 . S
C726 C725 1.524 . S
C726 C727 1.415 . S
C727 H697 0.950 . S
C727 C722 1.363 . S
C727 C726 1.415 . S
H728 C725 0.999 . S
H729 C710 0.913 . S
H730 C748 0.951 . S
H731 C750 0.951 . S
H732 C752 0.950 . S
H733 C753 0.950 . S
H734 C755 0.950 . S
H735 C758 0.950 . S
H736 C759 0.950 . S
H737 C761 0.950 . S
H738 C762 0.950 . S
H739 C763 0.951 . S
H740 C765 0.951 . S
H741 C767 0.950 . S
H742 C768 0.950 . S
H743 C770 0.950 . S
H744 C773 0.950 . S
H745 C774 0.950 . S
H746 C776 0.950 . S
H747 C777 0.950 . S
C748 H730 0.951 . S
C748 C749 1.366 . S
C748 C750 1.388 . S
C749 C748 1.366 . S
C749 C753 1.385 . S
C750 H731 0.951 . S
C750 C748 1.388 . S
C750 C751 1.366 . S
C751 C750 1.366 . S
C751 C752 1.414 . S
C751 C754 1.499 . S
C752 H732 0.950 . S
C752 C751 1.414 . S
C752 C753 1.374 . S
C753 H733 0.950 . S
C753 C749 1.385 . S
C753 C752 1.374 . S
C754 C751 1.499 . S
C754 C755 1.373 . S
C754 C756 1.362 1_655 S
C755 H734 0.950 . S
C755 C754 1.373 . S
C755 C771 1.377 1_655 S
C756 C754 1.362 1_455 S
C756 C757 1.533 1_455 S
C756 C770 1.400 . S
C757 C756 1.533 1_655 S
C757 C758 1.397 . S
C757 C762 1.363 1_655 S
C758 H735 0.950 . S
C758 C757 1.397 . S
C758 C759 1.334 . S
C759 H736 0.950 . S
C759 C758 1.334 . S
C759 C760 1.287 . S
C760 C759 1.287 . S
C760 C761 1.524 1_655 S
C760 H779 0.913 . S
C761 H737 0.950 . S
C761 C760 1.524 1_455 S
C761 C762 1.415 . S
C762 H738 0.950 . S
C762 C757 1.363 1_455 S
C762 C761 1.415 . S
C763 H739 0.951 . S
C763 C764 1.366 . S
C763 C765 1.388 . S
C764 C763 1.366 . S
C764 C768 1.385 . S
C765 H740 0.951 . S
C765 C763 1.388 . S
C765 C766 1.366 . S
C766 C765 1.366 . S
C766 C767 1.414 . S
C766 C769 1.499 . S
C767 H741 0.950 . S
C767 C766 1.414 . S
C767 C768 1.374 . S
C768 H742 0.950 . S
C768 C764 1.385 . S
C768 C767 1.374 . S
C769 C766 1.499 . S
C769 C770 1.373 . S
C769 C771 1.389 . S
C770 H743 0.950 . S
C770 C756 1.400 . S
C770 C769 1.373 . S
C771 C755 1.377 1_455 S
C771 C769 1.389 . S
C771 C772 1.524 . S
C772 C771 1.524 . S
C772 C773 1.397 . S
C772 C777 1.363 . S
C773 H744 0.950 . S
C773 C772 1.397 . S
C773 C774 1.334 . S
C774 H745 0.950 . S
C774 C773 1.334 . S
C774 C775 1.287 . S
C775 C774 1.287 . S
C775 C776 1.524 . S
C775 H778 0.999 . S
C776 H746 0.950 . S
C776 C775 1.524 . S
C776 C777 1.415 . S
C777 H747 0.950 . S
C777 C772 1.363 . S
C777 C776 1.415 . S
H778 C775 0.999 . S
H779 C760 0.913 . S
H780 C798 0.951 . S
H781 C800 0.951 . S
H782 C802 0.950 . S
H783 C803 0.950 . S
H784 C805 0.950 . S
H785 C808 0.950 . S
H786 C809 0.950 . S
H787 C811 0.950 . S
H788 C812 0.950 . S
H789 C813 0.951 . S
H790 C815 0.951 . S
H791 C817 0.950 . S
H792 C818 0.950 . S
H793 C820 0.950 . S
H794 C823 0.950 . S
H795 C824 0.950 . S
H796 C826 0.950 . S
H797 C827 0.950 . S
C798 H780 0.951 . S
C798 C799 1.366 . S
C798 C800 1.388 . S
C799 C798 1.366 . S
C799 C803 1.385 . S
C800 H781 0.951 . S
C800 C798 1.388 . S
C800 C801 1.366 . S
C801 C800 1.366 . S
C801 C802 1.414 . S
C801 C804 1.499 . S
C802 H782 0.950 . S
C802 C801 1.414 . S
C802 C803 1.374 . S
C803 H783 0.950 . S
C803 C799 1.385 . S
C803 C802 1.374 . S
C804 C801 1.499 . S
C804 C805 1.373 . S
C804 C806 1.389 . S
C805 H784 0.950 . S
C805 C804 1.373 . S
C805 C821 1.377 1_455 S
C806 C804 1.389 . S
C806 C807 1.524 . S
C806 C820 1.377 1_455 S
C807 C806 1.524 . S
C807 C808 1.397 . S
C807 C812 1.363 . S
C808 H785 0.950 . S
C808 C807 1.397 . S
C808 C809 1.334 . S
C809 H786 0.950 . S
C809 C808 1.334 . S
C809 C810 1.287 . S
C810 C809 1.287 . S
C810 C811 1.524 . S
C810 H829 0.913 . S
C811 H787 0.950 . S
C811 C810 1.524 . S
C811 C812 1.415 . S
C812 H788 0.950 . S
C812 C807 1.363 . S
C812 C811 1.415 . S
C813 H789 0.951 . S
C813 C814 1.366 . S
C813 C815 1.388 . S
C814 C813 1.366 . S
C814 C818 1.385 . S
C815 H790 0.951 . S
C815 C813 1.388 . S
C815 C816 1.366 . S
C816 C815 1.366 . S
C816 C817 1.414 . S
C816 C819 1.499 . S
C817 H791 0.950 . S
C817 C816 1.414 . S
C817 C818 1.374 . S
C818 H792 0.950 . S
C818 C814 1.385 . S
C818 C817 1.374 . S
C819 C816 1.499 . S
C819 C820 1.373 . S
C819 C821 1.389 . S
C820 H793 0.950 . S
C820 C806 1.377 1_655 S
C820 C819 1.373 . S
C821 C805 1.377 1_655 S
C821 C819 1.389 . S
C821 C822 1.524 . S
C822 C821 1.524 . S
C822 C823 1.397 . S
C822 C827 1.363 . S
C823 H794 0.950 . S
C823 C822 1.397 . S
C823 C824 1.334 . S
C824 H795 0.950 . S
C824 C823 1.334 . S
C824 C825 1.287 . S
C825 C824 1.287 . S
C825 C826 1.524 . S
C825 H828 0.999 . S
C826 H796 0.950 . S
C826 C825 1.524 . S
C826 C827 1.415 . S
C827 H797 0.950 . S
C827 C822 1.363 . S
C827 C826 1.415 . S
H828 C825 0.999 . S
H829 C810 0.913 . S
H830 C848 0.951 . S
H831 C850 0.951 . S
H832 C852 0.950 . S
H833 C853 0.950 . S
H834 C855 0.950 . S
H835 C858 0.950 . S
H836 C859 0.950 . S
H837 C861 0.950 . S
H838 C862 0.950 . S
H839 C863 0.951 . S
H840 C865 0.951 . S
H841 C867 0.950 . S
H842 C868 0.950 . S
H843 C870 0.950 . S
H844 C873 0.950 . S
H845 C874 0.950 . S
H846 C876 0.950 . S
H847 C877 0.950 . S
C848 H830 0.951 . S
C848 C849 1.366 . S
C848 C850 1.388 . S
C849 C848 1.366 . S
C849 C853 1.385 . S
C850 H831 0.951 . S
C850 C848 1.388 . S
C850 C851 1.366 . S
C851 C850 1.366 . S
C851 C852 1.414 . S
C851 C854 1.499 . S
C852 H832 0.950 . S
C852 C851 1.414 . S
C852 C853 1.374 . S
C853 H833 0.950 . S
C853 C849 1.385 . S
C853 C852 1.374 . S
C854 C851 1.499 . S
C854 C855 1.373 . S
C854 C856 1.389 . S
C855 H834 0.950 . S
C855 C854 1.373 . S
C855 C871 1.377 1_565 S
C856 C854 1.389 . S
C856 C857 1.524 . S
C856 C870 1.376 1_565 S
C857 C856 1.524 . S
C857 C858 1.397 . S
C857 C862 1.363 . S
C858 H835 0.950 . S
C858 C857 1.397 . S
C858 C859 1.334 . S
C859 H836 0.950 . S
C859 C858 1.334 . S
C859 C860 1.287 . S
C860 C859 1.287 . S
C860 C861 1.524 . S
C860 H879 0.913 . S
C861 H837 0.950 . S
C861 C860 1.524 . S
C861 C862 1.415 . S
C862 H838 0.950 . S
C862 C857 1.363 . S
C862 C861 1.415 . S
C863 H839 0.951 . S
C863 C864 1.366 . S
C863 C865 1.388 . S
C864 C863 1.366 . S
C864 C868 1.385 . S
C865 H840 0.951 . S
C865 C863 1.388 . S
C865 C866 1.366 . S
C866 C865 1.366 . S
C866 C867 1.414 . S
C866 C869 1.499 . S
C867 H841 0.950 . S
C867 C866 1.414 . S
C867 C868 1.374 . S
C868 H842 0.950 . S
C868 C864 1.385 . S
C868 C867 1.374 . S
C869 C866 1.499 . S
C869 C870 1.374 . S
C869 C871 1.389 . S
C870 H843 0.950 . S
C870 C856 1.376 1_545 S
C870 C869 1.374 . S
C871 C855 1.377 1_545 S
C871 C869 1.389 . S
C871 C872 1.524 . S
C872 C871 1.524 . S
C872 C873 1.397 . S
C872 C877 1.363 . S
C873 H844 0.950 . S
C873 C872 1.397 . S
C873 C874 1.334 . S
C874 H845 0.950 . S
C874 C873 1.334 . S
C874 C875 1.287 . S
C875 C874 1.287 . S
C875 C876 1.524 . S
C875 H878 0.999 . S
C876 H846 0.950 . S
C876 C875 1.524 . S
C876 C877 1.415 . S
C877 H847 0.950 . S
C877 C872 1.363 . S
C877 C876 1.415 . S
H878 C875 0.999 . S
H879 C860 0.913 . S
H880 C898 0.951 . S
H881 C900 0.951 . S
H882 C902 0.950 . S
H883 C903 0.950 . S
H884 C905 0.950 . S
H885 C908 0.950 . S
H886 C909 0.950 . S
H887 C911 0.950 . S
H888 C912 0.950 . S
H889 C913 0.951 . S
H890 C915 0.951 . S
H891 C917 0.950 . S
H892 C918 0.950 . S
H893 C920 0.950 . S
H894 C923 0.950 . S
H895 C924 0.950 . S
H896 C926 0.950 . S
H897 C927 0.950 . S
C898 H880 0.951 . S
C898 C899 1.366 . S
C898 C900 1.388 . S
C899 C898 1.366 . S
C899 C903 1.385 . S
C900 H881 0.951 . S
C900 C898 1.388 . S
C900 C901 1.366 . S
C901 C900 1.366 . S
C901 C902 1.414 . S
C901 C904 1.499 . S
C902 H882 0.950 . S
C902 C901 1.414 . S
C902 C903 1.374 . S
C903 H883 0.950 . S
C903 C899 1.385 . S
C903 C902 1.374 . S
C904 C901 1.499 . S
C904 C905 1.373 . S
C904 C906 1.389 . S
C905 H884 0.950 . S
C905 C904 1.373 . S
C905 C921 1.377 . S
C906 C904 1.389 . S
C906 C907 1.524 . S
C906 C920 1.377 . S
C907 C906 1.524 . S
C907 C908 1.397 . S
C907 C912 1.363 . S
C908 H885 0.950 . S
C908 C907 1.397 . S
C908 C909 1.334 . S
C909 H886 0.950 . S
C909 C908 1.334 . S
C909 C910 1.287 . S
C910 C909 1.287 . S
C910 C911 1.524 . S
C910 H929 0.913 . S
C911 H887 0.950 . S
C911 C910 1.524 . S
C911 C912 1.415 . S
C912 H888 0.950 . S
C912 C907 1.363 . S
C912 C911 1.415 . S
C913 H889 0.951 . S
C913 C914 1.366 . S
C913 C915 1.388 . S
C914 C913 1.366 . S
C914 C918 1.385 . S
C915 H890 0.951 . S
C915 C913 1.388 . S
C915 C916 1.366 . S
C916 C915 1.366 . S
C916 C917 1.414 . S
C916 C919 1.499 . S
C917 H891 0.950 . S
C917 C916 1.414 . S
C917 C918 1.374 . S
C918 H892 0.950 . S
C918 C914 1.385 . S
C918 C917 1.374 . S
C919 C916 1.499 . S
C919 C920 1.373 . S
C919 C921 1.389 . S
C920 H893 0.950 . S
C920 C906 1.377 . S
C920 C919 1.373 . S
C921 C905 1.377 . S
C921 C919 1.389 . S
C921 C922 1.524 . S
C922 C921 1.524 . S
C922 C923 1.397 . S
C922 C927 1.363 . S
C923 H894 0.950 . S
C923 C922 1.397 . S
C923 C924 1.334 . S
C924 H895 0.950 . S
C924 C923 1.334 . S
C924 C925 1.287 . S
C925 C924 1.287 . S
C925 C926 1.524 . S
C925 H928 0.999 . S
C926 H896 0.950 . S
C926 C925 1.524 . S
C926 C927 1.415 . S
C927 H897 0.950 . S
C927 C922 1.363 . S
C927 C926 1.415 . S
H928 C925 0.999 . S
H929 C910 0.913 . S
H930 C948 0.951 . S
H931 C950 0.951 . S
H932 C952 0.950 . S
H933 C953 0.950 . S
H934 C955 0.950 . S
H935 C958 0.950 . S
H936 C959 0.950 . S
H937 C961 0.950 . S
H938 C962 0.950 . S
H939 C963 0.951 . S
H940 C965 0.951 . S
H941 C967 0.950 . S
H942 C968 0.950 . S
H943 C970 0.950 . S
H944 C973 0.950 . S
H945 C974 0.950 . S
H946 C976 0.950 . S
H947 C977 0.950 1_455 S
C948 H930 0.951 . S
C948 C949 1.366 . S
C948 C950 1.388 . S
C949 C948 1.366 . S
C949 C953 1.385 . S
C950 H931 0.951 . S
C950 C948 1.388 . S
C950 C951 1.366 . S
C951 C950 1.366 . S
C951 C952 1.414 . S
C951 C954 1.499 . S
C952 H932 0.950 . S
C952 C951 1.414 . S
C952 C953 1.374 . S
C953 H933 0.950 . S
C953 C949 1.385 . S
C953 C952 1.374 . S
C954 C951 1.499 . S
C954 C955 1.373 . S
C954 C956 1.389 . S
C955 H934 0.950 . S
C955 C954 1.373 . S
C955 C971 1.377 1_455 S
C956 C954 1.389 . S
C956 C957 1.524 . S
C956 C970 1.377 1_455 S
C957 C956 1.524 . S
C957 C958 1.397 . S
C957 C962 1.363 . S
C958 H935 0.950 . S
C958 C957 1.397 . S
C958 C959 1.334 . S
C959 H936 0.950 . S
C959 C958 1.334 . S
C959 C960 1.287 . S
C960 C959 1.287 . S
C960 C961 1.524 . S
C960 H979 0.913 . S
C961 H937 0.950 . S
C961 C960 1.524 . S
C961 C962 1.415 . S
C962 H938 0.950 . S
C962 C957 1.363 . S
C962 C961 1.415 . S
C963 H939 0.951 . S
C963 C964 1.366 . S
C963 C965 1.388 . S
C964 C963 1.366 . S
C964 C968 1.385 . S
C965 H940 0.951 . S
C965 C963 1.388 . S
C965 C966 1.366 . S
C966 C965 1.366 . S
C966 C967 1.414 . S
C966 C969 1.499 . S
C967 H941 0.950 . S
C967 C966 1.414 . S
C967 C968 1.374 . S
C968 H942 0.950 . S
C968 C964 1.385 . S
C968 C967 1.374 . S
C969 C966 1.499 . S
C969 C970 1.373 . S
C969 C971 1.389 . S
C970 H943 0.950 . S
C970 C956 1.377 1_655 S
C970 C969 1.373 . S
C971 C955 1.377 1_655 S
C971 C969 1.389 . S
C971 C972 1.524 . S
C972 C971 1.524 . S
C972 C973 1.397 . S
C972 C977 1.363 . S
C973 H944 0.950 . S
C973 C972 1.397 . S
C973 C974 1.334 . S
C974 H945 0.950 . S
C974 C973 1.334 . S
C974 C975 1.287 . S
C975 C974 1.287 . S
C975 C976 1.524 . S
C975 H978 0.999 . S
C976 H946 0.950 . S
C976 C975 1.524 . S
C976 C977 1.415 . S
C977 H947 0.950 1_655 S
C977 C972 1.363 . S
C977 C976 1.415 . S
H978 C975 0.999 . S
H979 C960 0.913 . S
H980 C998 0.951 . S
H981 C1000 0.951 . S
H982 C1002 0.950 . S
H983 C1003 0.950 . S
H984 C1005 0.950 . S
H985 C1008 0.950 . S
H986 C1009 0.950 . S
H987 C1011 0.950 . S
H988 C1012 0.950 . S
H989 C1013 0.951 . S
H990 C1015 0.951 . S
H991 C1017 0.950 . S
H992 C1018 0.950 . S
H993 C1020 0.950 . S
H994 C1023 0.950 . S
H995 C1024 0.950 . S
H996 C1026 0.950 . S
H997 C1027 0.950 1_545 S
C998 H980 0.951 . S
C998 C999 1.366 . S
C998 C1000 1.388 . S
C999 C998 1.366 . S
C999 C1003 1.385 . S
C1000 H981 0.951 . S
C1000 C998 1.388 . S
C1000 C1001 1.366 . S
C1001 C1000 1.366 . S
C1001 C1002 1.414 . S
C1001 C1004 1.499 . S
C1002 H982 0.950 . S
C1002 C1001 1.414 . S
C1002 C1003 1.374 . S
C1003 H983 0.950 . S
C1003 C999 1.385 . S
C1003 C1002 1.374 . S
C1004 C1001 1.499 . S
C1004 C1005 1.373 . S
C1004 C1006 1.389 . S
C1005 H984 0.950 . S
C1005 C1004 1.373 . S
C1005 C1021 1.377 1_545 S
C1006 C1004 1.389 . S
C1006 C1007 1.524 . S
C1006 C1020 1.377 1_545 S
C1007 C1006 1.524 . S
C1007 C1008 1.397 . S
C1007 C1012 1.363 . S
C1008 H985 0.950 . S
C1008 C1007 1.397 . S
C1008 C1009 1.334 . S
C1009 H986 0.950 . S
C1009 C1008 1.334 . S
C1009 C1010 1.287 . S
C1010 C1009 1.287 . S
C1010 C1011 1.524 . S
C1010 H1029 0.913 . S
C1011 H987 0.950 . S
C1011 C1010 1.524 . S
C1011 C1012 1.415 . S
C1012 H988 0.950 . S
C1012 C1007 1.363 . S
C1012 C1011 1.415 . S
C1013 H989 0.951 . S
C1013 C1014 1.366 . S
C1013 C1015 1.388 . S
C1014 C1013 1.366 . S
C1014 C1018 1.385 . S
C1015 H990 0.951 . S
C1015 C1013 1.388 . S
C1015 C1016 1.366 . S
C1016 C1015 1.366 . S
C1016 C1017 1.414 . S
C1016 C1019 1.499 . S
C1017 H991 0.950 . S
C1017 C1016 1.414 . S
C1017 C1018 1.374 . S
C1018 H992 0.950 . S
C1018 C1014 1.385 . S
C1018 C1017 1.374 . S
C1019 C1016 1.499 . S
C1019 C1020 1.373 . S
C1019 C1021 1.389 . S
C1020 H993 0.950 . S
C1020 C1006 1.377 1_565 S
C1020 C1019 1.373 . S
C1021 C1005 1.377 1_565 S
C1021 C1019 1.389 . S
C1021 C1022 1.524 . S
C1022 C1021 1.524 . S
C1022 C1023 1.397 . S
C1022 C1027 1.363 . S
C1023 H994 0.950 . S
C1023 C1022 1.397 . S
C1023 C1024 1.334 . S
C1024 H995 0.950 . S
C1024 C1023 1.334 . S
C1024 C1025 1.287 . S
C1025 C1024 1.287 . S
C1025 C1026 1.524 . S
C1025 H1028 0.999 . S
C1026 H996 0.950 . S
C1026 C1025 1.524 . S
C1026 C1027 1.415 . S
C1027 H997 0.950 1_565 S
C1027 C1022 1.363 . S
C1027 C1026 1.415 . S
H1028 C1025 0.999 . S
H1029 C1010 0.913 . S
H1030 C1048 0.951 . S
H1031 C1050 0.951 . S
H1032 C1052 0.950 . S
H1033 C1053 0.950 . S
H1034 C1055 0.950 . S
H1035 C1058 0.950 . S
H1036 C1059 0.950 . S
H1037 C1061 0.950 . S
H1038 C1062 0.950 . S
H1039 C1063 0.951 . S
H1040 C1065 0.951 . S
H1041 C1067 0.950 . S
H1042 C1068 0.950 . S
H1043 C1070 0.950 . S
H1044 C1073 0.950 . S
H1045 C1074 0.950 . S
H1046 C1076 0.950 . S
H1047 C1077 0.950 . S
C1048 H1030 0.951 . S
C1048 C1049 1.366 . S
C1048 C1050 1.388 . S
C1049 C1048 1.366 . S
C1049 C1053 1.385 . S
C1050 H1031 0.951 . S
C1050 C1048 1.388 . S
C1050 C1051 1.366 . S
C1051 C1050 1.366 . S
C1051 C1052 1.414 . S
C1051 C1054 1.499 . S
C1052 H1032 0.950 . S
C1052 C1051 1.414 . S
C1052 C1053 1.374 . S
C1053 H1033 0.950 . S
C1053 C1049 1.385 . S
C1053 C1052 1.374 . S
C1054 C1051 1.499 . S
C1054 C1055 1.373 . S
C1054 C1056 1.389 . S
C1055 H1034 0.950 . S
C1055 C1054 1.373 . S
C1055 C1071 1.377 . S
C1056 C1054 1.389 . S
C1056 C1057 1.524 . S
C1056 C1070 1.377 . S
C1057 C1056 1.524 . S
C1057 C1058 1.397 . S
C1057 C1062 1.363 . S
C1058 H1035 0.950 . S
C1058 C1057 1.397 . S
C1058 C1059 1.334 . S
C1059 H1036 0.950 . S
C1059 C1058 1.334 . S
C1059 C1060 1.287 . S
C1060 C1059 1.287 . S
C1060 C1061 1.524 . S
C1060 H1079 0.913 . S
C1061 H1037 0.950 . S
C1061 C1060 1.524 . S
C1061 C1062 1.415 . S
C1062 H1038 0.950 . S
C1062 C1057 1.363 . S
C1062 C1061 1.415 . S
C1063 H1039 0.951 . S
C1063 C1064 1.366 . S
C1063 C1065 1.388 . S
C1064 C1063 1.366 . S
C1064 C1068 1.385 . S
C1065 H1040 0.951 . S
C1065 C1063 1.388 . S
C1065 C1066 1.366 . S
C1066 C1065 1.366 . S
C1066 C1067 1.414 . S
C1066 C1069 1.499 . S
C1067 H1041 0.950 . S
C1067 C1066 1.414 . S
C1067 C1068 1.374 . S
C1068 H1042 0.950 . S
C1068 C1064 1.385 . S
C1068 C1067 1.374 . S
C1069 C1066 1.499 . S
C1069 C1070 1.373 . S
C1069 C1071 1.389 . S
C1070 H1043 0.950 . S
C1070 C1056 1.377 . S
C1070 C1069 1.373 . S
C1071 C1055 1.377 . S
C1071 C1069 1.389 . S
C1071 C1072 1.524 . S
C1072 C1071 1.524 . S
C1072 C1073 1.397 . S
C1072 C1077 1.363 . S
C1073 H1044 0.950 . S
C1073 C1072 1.397 . S
C1073 C1074 1.334 . S
C1074 H1045 0.950 . S
C1074 C1073 1.334 . S
C1074 C1075 1.287 . S
C1075 C1074 1.287 . S
C1075 C1076 1.524 . S
C1075 H1078 0.999 . S
C1076 H1046 0.950 . S
C1076 C1075 1.524 . S
C1076 C1077 1.415 . S
C1077 H1047 0.950 . S
C1077 C1072 1.363 . S
C1077 C1076 1.415 . S
H1078 C1075 0.999 . S
H1079 C1060 0.913 . S
H1080 C1098 0.951 . S
H1081 C1100 0.951 . S
H1082 C1102 0.950 . S
H1083 C1103 0.950 . S
H1084 C1105 0.950 . S
H1085 C1108 0.950 . S
H1086 C1109 0.950 . S
H1087 C1111 0.950 . S
H1088 C1112 0.950 . S
H1089 C1113 0.951 . S
H1090 C1115 0.951 . S
H1091 C1117 0.950 . S
H1092 C1118 0.950 . S
H1093 C1120 0.950 . S
H1094 C1123 0.950 . S
H1095 C1124 0.950 . S
H1096 C1126 0.950 . S
H1097 C1127 0.950 . S
C1098 H1080 0.951 . S
C1098 C1099 1.366 . S
C1098 C1100 1.388 . S
C1099 C1098 1.366 . S
C1099 C1103 1.385 . S
C1100 H1081 0.951 . S
C1100 C1098 1.388 . S
C1100 C1101 1.366 . S
C1101 C1100 1.366 . S
C1101 C1102 1.414 . S
C1101 C1104 1.499 . S
C1102 H1082 0.950 . S
C1102 C1101 1.414 . S
C1102 C1103 1.374 . S
C1103 H1083 0.950 . S
C1103 C1099 1.385 . S
C1103 C1102 1.374 . S
C1104 C1101 1.499 . S
C1104 C1105 1.373 . S
C1104 C1106 1.389 . S
C1105 H1084 0.950 . S
C1105 C1104 1.373 . S
C1105 C1121 1.377 . S
C1106 C1104 1.389 . S
C1106 C1107 1.524 . S
C1106 C1120 1.377 . S
C1107 C1106 1.524 . S
C1107 C1108 1.397 . S
C1107 C1112 1.363 . S
C1108 H1085 0.950 . S
C1108 C1107 1.397 . S
C1108 C1109 1.334 . S
C1109 H1086 0.950 . S
C1109 C1108 1.334 . S
C1109 C1110 1.287 . S
C1110 C1109 1.287 . S
C1110 C1111 1.524 . S
C1110 H1129 0.913 . S
C1111 H1087 0.950 . S
C1111 C1110 1.524 . S
C1111 C1112 1.415 . S
C1112 H1088 0.950 . S
C1112 C1107 1.363 . S
C1112 C1111 1.415 . S
C1113 H1089 0.951 . S
C1113 C1114 1.366 . S
C1113 C1115 1.388 . S
C1114 C1113 1.366 . S
C1114 C1118 1.385 . S
C1115 H1090 0.951 . S
C1115 C1113 1.388 . S
C1115 C1116 1.366 . S
C1116 C1115 1.366 . S
C1116 C1117 1.414 . S
C1116 C1119 1.499 . S
C1117 H1091 0.950 . S
C1117 C1116 1.414 . S
C1117 C1118 1.374 . S
C1118 H1092 0.950 . S
C1118 C1114 1.385 . S
C1118 C1117 1.374 . S
C1119 C1116 1.499 . S
C1119 C1120 1.373 . S
C1119 C1121 1.389 . S
C1120 H1093 0.950 . S
C1120 C1106 1.377 . S
C1120 C1119 1.373 . S
C1121 C1105 1.377 . S
C1121 C1119 1.389 . S
C1121 C1122 1.524 . S
C1122 C1121 1.524 . S
C1122 C1123 1.397 . S
C1122 C1127 1.363 . S
C1123 H1094 0.950 . S
C1123 C1122 1.397 . S
C1123 C1124 1.334 . S
C1124 H1095 0.950 . S
C1124 C1123 1.334 . S
C1124 C1125 1.287 . S
C1125 C1124 1.287 . S
C1125 C1126 1.524 . S
C1125 H1128 0.999 . S
C1126 H1096 0.950 . S
C1126 C1125 1.524 . S
C1126 C1127 1.415 . S
C1127 H1097 0.950 . S
C1127 C1122 1.363 . S
C1127 C1126 1.415 . S
H1128 C1125 0.999 . S
H1129 C1110 0.913 . S
H1130 C1148 0.951 . S
H1131 C1150 0.951 . S
H1132 C1152 0.950 . S
H1133 C1153 0.950 . S
H1134 C1155 0.950 . S
H1135 C1158 0.950 . S
H1136 C1159 0.950 . S
H1137 C1161 0.950 . S
H1138 C1162 0.950 . S
H1139 C1163 0.951 . S
H1140 C1165 0.951 . S
H1141 C1167 0.950 . S
H1142 C1168 0.950 . S
H1143 C1170 0.950 . S
H1144 C1173 0.950 . S
H1145 C1174 0.950 . S
H1146 C1176 0.950 . S
H1147 C1177 0.950 . S
C1148 H1130 0.951 . S
C1148 C1149 1.366 . S
C1148 C1150 1.388 . S
C1149 C1148 1.366 . S
C1149 C1153 1.385 . S
C1150 H1131 0.951 . S
C1150 C1148 1.388 . S
C1150 C1151 1.366 . S
C1151 C1150 1.366 . S
C1151 C1152 1.414 . S
C1151 C1154 1.499 . S
C1152 H1132 0.950 . S
C1152 C1151 1.414 . S
C1152 C1153 1.374 . S
C1153 H1133 0.950 . S
C1153 C1149 1.385 . S
C1153 C1152 1.374 . S
C1154 C1151 1.499 . S
C1154 C1155 1.373 . S
C1154 C1156 1.389 . S
C1155 H1134 0.950 . S
C1155 C1154 1.373 . S
C1155 C1171 1.377 . S
C1156 C1154 1.389 . S
C1156 C1157 1.524 . S
C1156 C1170 1.377 . S
C1157 C1156 1.524 . S
C1157 C1158 1.397 . S
C1157 C1162 1.363 . S
C1158 H1135 0.950 . S
C1158 C1157 1.397 . S
C1158 C1159 1.334 . S
C1159 H1136 0.950 . S
C1159 C1158 1.334 . S
C1159 C1160 1.287 . S
C1160 C1159 1.287 . S
C1160 C1161 1.524 . S
C1160 H1179 0.913 . S
C1161 H1137 0.950 . S
C1161 C1160 1.524 . S
C1161 C1162 1.415 . S
C1162 H1138 0.950 . S
C1162 C1157 1.363 . S
C1162 C1161 1.415 . S
C1163 H1139 0.951 . S
C1163 C1164 1.366 . S
C1163 C1165 1.388 . S
C1164 C1163 1.366 . S
C1164 C1168 1.385 . S
C1165 H1140 0.951 . S
C1165 C1163 1.388 . S
C1165 C1166 1.366 . S
C1166 C1165 1.366 . S
C1166 C1167 1.414 . S
C1166 C1169 1.499 . S
C1167 H1141 0.950 . S
C1167 C1166 1.414 . S
C1167 C1168 1.374 . S
C1168 H1142 0.950 . S
C1168 C1164 1.385 . S
C1168 C1167 1.374 . S
C1169 C1166 1.499 . S
C1169 C1170 1.373 . S
C1169 C1171 1.389 . S
C1170 H1143 0.950 . S
C1170 C1156 1.377 . S
C1170 C1169 1.373 . S
C1171 C1155 1.377 . S
C1171 C1169 1.389 . S
C1171 C1172 1.524 . S
C1172 C1171 1.524 . S
C1172 C1173 1.397 . S
C1172 C1177 1.363 . S
C1173 H1144 0.950 . S
C1173 C1172 1.397 . S
C1173 C1174 1.334 . S
C1174 H1145 0.950 . S
C1174 C1173 1.334 . S
C1174 C1175 1.287 . S
C1175 C1174 1.287 . S
C1175 C1176 1.524 . S
C1175 H1178 0.999 . S
C1176 H1146 0.950 . S
C1176 C1175 1.524 . S
C1176 C1177 1.415 . S
C1177 H1147 0.950 . S
C1177 C1172 1.363 . S
C1177 C1176 1.415 . S
H1178 C1175 0.999 . S
H1179 C1160 0.913 . S
H1180 C1198 0.951 . S
H1181 C1200 0.951 . S
H1182 C1202 0.950 . S
H1183 C1203 0.950 . S
H1184 C1205 0.950 . S
H1185 C1208 0.950 . S
H1186 C1209 0.950 . S
H1187 C1211 0.950 . S
H1188 C1212 0.950 . S
H1189 C1213 0.951 . S
H1190 C1215 0.951 . S
H1191 C1217 0.950 . S
H1192 C1218 0.950 . S
H1193 C1220 0.950 . S
H1194 C1223 0.950 . S
H1195 C1224 0.950 . S
H1196 C1226 0.950 . S
H1197 C1227 0.950 . S
C1198 H1180 0.951 . S
C1198 C1199 1.366 . S
C1198 C1200 1.388 . S
C1199 C1198 1.366 . S
C1199 C1203 1.385 . S
C1200 H1181 0.951 . S
C1200 C1198 1.388 . S
C1200 C1201 1.366 . S
C1201 C1200 1.366 . S
C1201 C1202 1.414 . S
C1201 C1204 1.499 . S
C1202 H1182 0.950 . S
C1202 C1201 1.414 . S
C1202 C1203 1.374 . S
C1203 H1183 0.950 . S
C1203 C1199 1.385 . S
C1203 C1202 1.374 . S
C1204 C1201 1.499 . S
C1204 C1205 1.373 . S
C1204 C1206 1.389 . S
C1205 H1184 0.950 . S
C1205 C1204 1.373 . S
C1205 C1221 1.377 . S
C1206 C1204 1.389 . S
C1206 C1207 1.524 . S
C1206 C1220 1.377 . S
C1207 C1206 1.524 . S
C1207 C1208 1.397 . S
C1207 C1212 1.363 . S
C1208 H1185 0.950 . S
C1208 C1207 1.397 . S
C1208 C1209 1.334 . S
C1209 H1186 0.950 . S
C1209 C1208 1.334 . S
C1209 C1210 1.287 . S
C1210 C1209 1.287 . S
C1210 C1211 1.524 . S
C1210 H1229 0.913 . S
C1211 H1187 0.950 . S
C1211 C1210 1.524 . S
C1211 C1212 1.415 . S
C1212 H1188 0.950 . S
C1212 C1207 1.363 . S
C1212 C1211 1.415 . S
C1213 H1189 0.951 . S
C1213 C1214 1.366 . S
C1213 C1215 1.388 . S
C1214 C1213 1.366 . S
C1214 C1218 1.385 . S
C1215 H1190 0.951 . S
C1215 C1213 1.388 . S
C1215 C1216 1.366 . S
C1216 C1215 1.366 . S
C1216 C1217 1.414 . S
C1216 C1219 1.499 . S
C1217 H1191 0.950 . S
C1217 C1216 1.414 . S
C1217 C1218 1.374 . S
C1218 H1192 0.950 . S
C1218 C1214 1.385 . S
C1218 C1217 1.374 . S
C1219 C1216 1.499 . S
C1219 C1220 1.373 . S
C1219 C1221 1.389 . S
C1220 H1193 0.950 . S
C1220 C1206 1.377 . S
C1220 C1219 1.373 . S
C1221 C1205 1.377 . S
C1221 C1219 1.389 . S
C1221 C1222 1.524 . S
C1222 C1221 1.524 . S
C1222 C1223 1.397 . S
C1222 C1227 1.363 . S
C1223 H1194 0.950 . S
C1223 C1222 1.397 . S
C1223 C1224 1.334 . S
C1224 H1195 0.950 . S
C1224 C1223 1.334 . S
C1224 C1225 1.287 . S
C1225 C1224 1.287 . S
C1225 C1226 1.524 . S
C1225 H1228 0.999 . S
C1226 H1196 0.950 . S
C1226 C1225 1.524 . S
C1226 C1227 1.415 . S
C1227 H1197 0.950 . S
C1227 C1222 1.363 . S
C1227 C1226 1.415 . S
H1228 C1225 0.999 . S
H1229 C1210 0.913 . S
H1230 C1248 0.951 . S
H1231 C1250 0.951 . S
H1232 C1252 0.950 . S
H1233 C1253 0.950 . S
H1234 C1255 0.950 . S
H1235 C1258 0.950 . S
H1236 C1259 0.950 . S
H1237 C1261 0.950 . S
H1238 C1262 0.950 . S
H1239 C1263 0.951 . S
H1240 C1265 0.951 . S
H1241 C1267 0.950 . S
H1242 C1268 0.950 . S
H1243 C1270 0.950 . S
H1244 C1273 0.950 . S
H1245 C1274 0.950 . S
H1246 C1276 0.950 . S
H1247 C1277 0.950 . S
C1248 H1230 0.951 . S
C1248 C1249 1.366 . S
C1248 C1250 1.388 . S
C1249 C1248 1.366 . S
C1249 C1253 1.385 . S
C1250 H1231 0.951 . S
C1250 C1248 1.388 . S
C1250 C1251 1.366 . S
C1251 C1250 1.366 . S
C1251 C1252 1.414 . S
C1251 C1254 1.499 . S
C1252 H1232 0.950 . S
C1252 C1251 1.414 . S
C1252 C1253 1.374 . S
C1253 H1233 0.950 . S
C1253 C1249 1.385 . S
C1253 C1252 1.374 . S
C1254 C1251 1.499 . S
C1254 C1255 1.373 . S
C1254 C1256 1.389 . S
C1255 H1234 0.950 . S
C1255 C1254 1.373 . S
C1255 C1271 1.377 . S
C1256 C1254 1.389 . S
C1256 C1257 1.524 . S
C1256 C1270 1.377 . S
C1257 C1256 1.524 . S
C1257 C1258 1.397 . S
C1257 C1262 1.363 . S
C1258 H1235 0.950 . S
C1258 C1257 1.397 . S
C1258 C1259 1.334 . S
C1259 H1236 0.950 . S
C1259 C1258 1.334 . S
C1259 C1260 1.287 . S
C1260 C1259 1.287 . S
C1260 C1261 1.524 . S
C1260 H1279 0.913 . S
C1261 H1237 0.950 . S
C1261 C1260 1.524 . S
C1261 C1262 1.415 . S
C1262 H1238 0.950 . S
C1262 C1257 1.363 . S
C1262 C1261 1.415 . S
C1263 H1239 0.951 . S
C1263 C1264 1.366 . S
C1263 C1265 1.388 . S
C1264 C1263 1.366 . S
C1264 C1268 1.385 . S
C1265 H1240 0.951 . S
C1265 C1263 1.388 . S
C1265 C1266 1.366 . S
C1266 C1265 1.366 . S
C1266 C1267 1.414 . S
C1266 C1269 1.499 . S
C1267 H1241 0.950 . S
C1267 C1266 1.414 . S
C1267 C1268 1.374 . S
C1268 H1242 0.950 . S
C1268 C1264 1.385 . S
C1268 C1267 1.374 . S
C1269 C1266 1.499 . S
C1269 C1270 1.373 . S
C1269 C1271 1.389 . S
C1270 H1243 0.950 . S
C1270 C1256 1.377 . S
C1270 C1269 1.373 . S
C1271 C1255 1.377 . S
C1271 C1269 1.389 . S
C1271 C1272 1.524 . S
C1272 C1271 1.524 . S
C1272 C1273 1.397 . S
C1272 C1277 1.363 . S
C1273 H1244 0.950 . S
C1273 C1272 1.397 . S
C1273 C1274 1.334 . S
C1274 H1245 0.950 . S
C1274 C1273 1.334 . S
C1274 C1275 1.287 . S
C1275 C1274 1.287 . S
C1275 C1276 1.524 . S
C1275 H1278 0.999 . S
C1276 H1246 0.950 . S
C1276 C1275 1.524 . S
C1276 C1277 1.415 . S
C1277 H1247 0.950 . S
C1277 C1272 1.363 . S
C1277 C1276 1.415 . S
H1278 C1275 0.999 . S
H1279 C1260 0.913 . S
H1280 C1298 0.951 . S
H1281 C1300 0.951 . S
H1282 C1302 0.950 . S
H1283 C1303 0.950 . S
H1284 C1305 0.950 . S
H1285 C1308 0.950 . S
H1286 C1309 0.950 . S
H1287 C1311 0.950 . S
H1288 C1312 0.950 . S
H1289 C1313 0.951 . S
H1290 C1315 0.951 . S
H1291 C1317 0.950 . S
H1292 C1318 0.950 . S
H1293 C1320 0.950 . S
H1294 C1323 0.950 . S
H1295 C1324 0.950 . S
H1296 C1326 0.950 . S
H1297 C1327 0.950 . S
C1298 H1280 0.951 . S
C1298 C1299 1.366 . S
C1298 C1300 1.388 . S
C1299 C1298 1.366 . S
C1299 C1303 1.385 . S
C1300 H1281 0.951 . S
C1300 C1298 1.388 . S
C1300 C1301 1.366 . S
C1301 C1300 1.366 . S
C1301 C1302 1.414 . S
C1301 C1304 1.499 . S
C1302 H1282 0.950 . S
C1302 C1301 1.414 . S
C1302 C1303 1.374 . S
C1303 H1283 0.950 . S
C1303 C1299 1.385 . S
C1303 C1302 1.374 . S
C1304 C1301 1.499 . S
C1304 C1305 1.373 . S
C1304 C1306 1.389 . S
C1305 H1284 0.950 . S
C1305 C1304 1.373 . S
C1305 C1321 1.377 . S
C1306 C1304 1.389 . S
C1306 C1307 1.524 . S
C1306 C1320 1.377 . S
C1307 C1306 1.524 . S
C1307 C1308 1.397 . S
C1307 C1312 1.363 . S
C1308 H1285 0.950 . S
C1308 C1307 1.397 . S
C1308 C1309 1.334 . S
C1309 H1286 0.950 . S
C1309 C1308 1.334 . S
C1309 C1310 1.287 . S
C1310 C1309 1.287 . S
C1310 C1311 1.524 . S
C1310 H1329 0.913 . S
C1311 H1287 0.950 . S
C1311 C1310 1.524 . S
C1311 C1312 1.415 . S
C1312 H1288 0.950 . S
C1312 C1307 1.363 . S
C1312 C1311 1.415 . S
C1313 H1289 0.951 . S
C1313 C1314 1.366 . S
C1313 C1315 1.388 . S
C1314 C1313 1.366 . S
C1314 C1318 1.385 . S
C1315 H1290 0.951 . S
C1315 C1313 1.388 . S
C1315 C1316 1.366 . S
C1316 C1315 1.366 . S
C1316 C1317 1.414 . S
C1316 C1319 1.499 . S
C1317 H1291 0.950 . S
C1317 C1316 1.414 . S
C1317 C1318 1.374 . S
C1318 H1292 0.950 . S
C1318 C1314 1.385 . S
C1318 C1317 1.374 . S
C1319 C1316 1.499 . S
C1319 C1320 1.373 . S
C1319 C1321 1.389 . S
C1320 H1293 0.950 . S
C1320 C1306 1.377 . S
C1320 C1319 1.373 . S
C1321 C1305 1.377 . S
C1321 C1319 1.389 . S
C1321 C1322 1.524 . S
C1322 C1321 1.524 . S
C1322 C1323 1.397 . S
C1322 C1327 1.363 . S
C1323 H1294 0.950 . S
C1323 C1322 1.397 . S
C1323 C1324 1.334 . S
C1324 H1295 0.950 . S
C1324 C1323 1.334 . S
C1324 C1325 1.287 . S
C1325 C1324 1.287 . S
C1325 C1326 1.524 . S
C1325 H1328 0.999 . S
C1326 H1296 0.950 . S
C1326 C1325 1.524 . S
C1326 C1327 1.415 . S
C1327 H1297 0.950 . S
C1327 C1322 1.363 . S
C1327 C1326 1.415 . S
H1328 C1325 0.999 . S
H1329 C1310 0.913 . S
H1330 C1348 0.951 . S
H1331 C1350 0.951 . S
H1332 C1352 0.950 . S
H1333 C1353 0.950 . S
H1334 C1355 0.950 . S
H1335 C1358 0.950 . S
H1336 C1359 0.950 . S
H1337 C1361 0.950 . S
H1338 C1362 0.950 . S
H1339 C1363 0.951 . S
H1340 C1365 0.951 . S
H1341 C1367 0.950 . S
H1342 C1368 0.950 . S
H1343 C1370 0.950 . S
H1344 C1373 0.950 . S
H1345 C1374 0.950 . S
H1346 C1376 0.950 . S
H1347 C1377 0.950 . S
C1348 H1330 0.951 . S
C1348 C1349 1.366 . S
C1348 C1350 1.388 . S
C1349 C1348 1.366 . S
C1349 C1353 1.385 . S
C1350 H1331 0.951 . S
C1350 C1348 1.388 . S
C1350 C1351 1.366 . S
C1351 C1350 1.366 . S
C1351 C1352 1.414 . S
C1351 C1354 1.499 . S
C1352 H1332 0.950 . S
C1352 C1351 1.414 . S
C1352 C1353 1.374 . S
C1353 H1333 0.950 . S
C1353 C1349 1.385 . S
C1353 C1352 1.374 . S
C1354 C1351 1.499 . S
C1354 C1355 1.373 . S
C1354 C1356 1.389 . S
C1355 H1334 0.950 . S
C1355 C1354 1.373 . S
C1355 C1371 1.377 . S
C1356 C1354 1.389 . S
C1356 C1357 1.524 . S
C1356 C1370 1.377 . S
C1357 C1356 1.524 . S
C1357 C1358 1.397 . S
C1357 C1362 1.363 . S
C1358 H1335 0.950 . S
C1358 C1357 1.397 . S
C1358 C1359 1.334 . S
C1359 H1336 0.950 . S
C1359 C1358 1.334 . S
C1359 C1360 1.287 . S
C1360 C1359 1.287 . S
C1360 C1361 1.524 . S
C1360 H1379 0.913 . S
C1361 H1337 0.950 . S
C1361 C1360 1.524 . S
C1361 C1362 1.415 . S
C1362 H1338 0.950 . S
C1362 C1357 1.363 . S
C1362 C1361 1.415 . S
C1363 H1339 0.951 . S
C1363 C1364 1.366 . S
C1363 C1365 1.388 . S
C1364 C1363 1.366 . S
C1364 C1368 1.385 . S
C1365 H1340 0.951 . S
C1365 C1363 1.388 . S
C1365 C1366 1.366 . S
C1366 C1365 1.366 . S
C1366 C1367 1.414 . S
C1366 C1369 1.499 . S
C1367 H1341 0.950 . S
C1367 C1366 1.414 . S
C1367 C1368 1.374 . S
C1368 H1342 0.950 . S
C1368 C1364 1.385 . S
C1368 C1367 1.374 . S
C1369 C1366 1.499 . S
C1369 C1370 1.373 . S
C1369 C1371 1.389 . S
C1370 H1343 0.950 . S
C1370 C1356 1.377 . S
C1370 C1369 1.373 . S
C1371 C1355 1.377 . S
C1371 C1369 1.389 . S
C1371 C1372 1.524 . S
C1372 C1371 1.524 . S
C1372 C1373 1.397 . S
C1372 C1377 1.363 . S
C1373 H1344 0.950 . S
C1373 C1372 1.397 . S
C1373 C1374 1.334 . S
C1374 H1345 0.950 . S
C1374 C1373 1.334 . S
C1374 C1375 1.287 . S
C1375 C1374 1.287 . S
C1375 C1376 1.524 . S
C1375 H1378 0.999 . S
C1376 H1346 0.950 . S
C1376 C1375 1.524 . S
C1376 C1377 1.415 . S
C1377 H1347 0.950 . S
C1377 C1372 1.363 . S
C1377 C1376 1.415 . S
H1378 C1375 0.999 . S
H1379 C1360 0.913 . S
H1380 C1398 0.951 . S
H1381 C1400 0.951 . S
H1382 C1402 0.950 . S
H1383 C1403 0.950 . S
H1384 C1405 0.950 . S
H1385 C1408 0.950 . S
H1386 C1409 0.950 . S
H1387 C1411 0.950 . S
H1388 C1412 0.950 . S
H1389 C1413 0.951 . S
H1390 C1415 0.951 . S
H1391 C1417 0.950 . S
H1392 C1418 0.950 . S
H1393 C1420 0.950 . S
H1394 C1423 0.950 . S
H1395 C1424 0.950 . S
H1396 C1426 0.950 . S
H1397 C1427 0.950 . S
C1398 H1380 0.951 . S
C1398 C1399 1.366 . S
C1398 C1400 1.388 . S
C1399 C1398 1.366 . S
C1399 C1403 1.385 . S
C1400 H1381 0.951 . S
C1400 C1398 1.388 . S
C1400 C1401 1.366 . S
C1401 C1400 1.366 . S
C1401 C1402 1.414 . S
C1401 C1404 1.499 . S
C1402 H1382 0.950 . S
C1402 C1401 1.414 . S
C1402 C1403 1.374 . S
C1403 H1383 0.950 . S
C1403 C1399 1.385 . S
C1403 C1402 1.374 . S
C1404 C1401 1.499 . S
C1404 C1405 1.373 . S
C1404 C1406 1.389 . S
C1405 H1384 0.950 . S
C1405 C1404 1.373 . S
C1405 C1421 1.377 . S
C1406 C1404 1.389 . S
C1406 C1407 1.524 . S
C1406 C1420 1.377 . S
C1407 C1406 1.524 . S
C1407 C1408 1.397 . S
C1407 C1412 1.363 . S
C1408 H1385 0.950 . S
C1408 C1407 1.397 . S
C1408 C1409 1.334 . S
C1409 H1386 0.950 . S
C1409 C1408 1.334 . S
C1409 C1410 1.287 . S
C1410 C1409 1.287 . S
C1410 C1411 1.524 . S
C1410 H1429 0.913 . S
C1411 H1387 0.950 . S
C1411 C1410 1.524 . S
C1411 C1412 1.415 . S
C1412 H1388 0.950 . S
C1412 C1407 1.363 . S
C1412 C1411 1.415 . S
C1413 H1389 0.951 . S
C1413 C1414 1.366 . S
C1413 C1415 1.388 . S
C1414 C1413 1.366 . S
C1414 C1418 1.385 . S
C1415 H1390 0.951 . S
C1415 C1413 1.388 . S
C1415 C1416 1.366 . S
C1416 C1415 1.366 . S
C1416 C1417 1.414 . S
C1416 C1419 1.499 . S
C1417 H1391 0.950 . S
C1417 C1416 1.414 . S
C1417 C1418 1.374 . S
C1418 H1392 0.950 . S
C1418 C1414 1.385 . S
C1418 C1417 1.374 . S
C1419 C1416 1.499 . S
C1419 C1420 1.373 . S
C1419 C1421 1.389 . S
C1420 H1393 0.950 . S
C1420 C1406 1.377 . S
C1420 C1419 1.373 . S
C1421 C1405 1.377 . S
C1421 C1419 1.389 . S
C1421 C1422 1.524 . S
C1422 C1421 1.524 . S
C1422 C1423 1.397 . S
C1422 C1427 1.363 . S
C1423 H1394 0.950 . S
C1423 C1422 1.397 . S
C1423 C1424 1.334 . S
C1424 H1395 0.950 . S
C1424 C1423 1.334 . S
C1424 C1425 1.287 . S
C1425 C1424 1.287 . S
C1425 C1426 1.524 . S
C1425 H1428 0.999 . S
C1426 H1396 0.950 . S
C1426 C1425 1.524 . S
C1426 C1427 1.415 . S
C1427 H1397 0.950 . S
C1427 C1422 1.363 . S
C1427 C1426 1.415 . S
H1428 C1425 0.999 . S
H1429 C1410 0.913 . S
H1430 C1448 0.951 . S
H1431 C1450 0.951 . S
H1432 C1452 0.950 . S
H1433 C1453 0.950 . S
H1434 C1455 0.950 . S
H1435 C1458 0.950 . S
H1436 C1459 0.950 . S
H1437 C1461 0.950 . S
H1438 C1462 0.950 . S
H1439 C1463 0.951 . S
H1440 C1465 0.951 . S
H1441 C1467 0.950 . S
H1442 C1468 0.950 . S
H1443 C1470 0.950 . S
H1444 C1473 0.950 . S
H1445 C1474 0.950 . S
H1446 C1476 0.950 . S
H1447 C1477 0.950 . S
C1448 H1430 0.951 . S
C1448 C1449 1.366 . S
C1448 C1450 1.388 . S
C1449 C1448 1.366 . S
C1449 C1453 1.385 . S
C1450 H1431 0.951 . S
C1450 C1448 1.388 . S
C1450 C1451 1.366 . S
C1451 C1450 1.366 . S
C1451 C1452 1.414 . S
C1451 C1454 1.499 . S
C1452 H1432 0.950 . S
C1452 C1451 1.414 . S
C1452 C1453 1.374 . S
C1453 H1433 0.950 . S
C1453 C1449 1.385 . S
C1453 C1452 1.374 . S
C1454 C1451 1.499 . S
C1454 C1455 1.373 . S
C1454 C1456 1.389 . S
C1455 H1434 0.950 . S
C1455 C1454 1.373 . S
C1455 C1471 1.377 . S
C1456 C1454 1.389 . S
C1456 C1457 1.524 . S
C1456 C1470 1.377 . S
C1457 C1456 1.524 . S
C1457 C1458 1.397 . S
C1457 C1462 1.363 . S
C1458 H1435 0.950 . S
C1458 C1457 1.397 . S
C1458 C1459 1.334 . S
C1459 H1436 0.950 . S
C1459 C1458 1.334 . S
C1459 C1460 1.287 . S
C1460 C1459 1.287 . S
C1460 C1461 1.524 . S
C1460 H1479 0.913 . S
C1461 H1437 0.950 . S
C1461 C1460 1.524 . S
C1461 C1462 1.415 . S
C1462 H1438 0.950 . S
C1462 C1457 1.363 . S
C1462 C1461 1.415 . S
C1463 H1439 0.951 . S
C1463 C1464 1.366 . S
C1463 C1465 1.388 . S
C1464 C1463 1.366 . S
C1464 C1468 1.385 . S
C1465 H1440 0.951 . S
C1465 C1463 1.388 . S
C1465 C1466 1.366 . S
C1466 C1465 1.366 . S
C1466 C1467 1.414 . S
C1466 C1469 1.499 . S
C1467 H1441 0.950 . S
C1467 C1466 1.414 . S
C1467 C1468 1.374 . S
C1468 H1442 0.950 . S
C1468 C1464 1.385 . S
C1468 C1467 1.374 . S
C1469 C1466 1.499 . S
C1469 C1470 1.373 . S
C1469 C1471 1.389 . S
C1470 H1443 0.950 . S
C1470 C1456 1.377 . S
C1470 C1469 1.373 . S
C1471 C1455 1.377 . S
C1471 C1469 1.389 . S
C1471 C1472 1.524 . S
C1472 C1471 1.524 . S
C1472 C1473 1.397 . S
C1472 C1477 1.363 . S
C1473 H1444 0.950 . S
C1473 C1472 1.397 . S
C1473 C1474 1.334 . S
C1474 H1445 0.950 . S
C1474 C1473 1.334 . S
C1474 C1475 1.287 . S
C1475 C1474 1.287 . S
C1475 C1476 1.524 . S
C1475 H1478 0.999 . S
C1476 H1446 0.950 . S
C1476 C1475 1.524 . S
C1476 C1477 1.415 . S
C1477 H1447 0.950 . S
C1477 C1472 1.363 . S
C1477 C1476 1.415 . S
H1478 C1475 0.999 . S
H1479 C1460 0.913 . S
H1480 C1498 0.951 . S
H1481 C1500 0.951 . S
H1482 C1502 0.950 . S
H1483 C1503 0.950 . S
H1484 C1505 0.950 . S
H1485 C1508 0.950 . S
H1486 C1509 0.950 . S
H1487 C1511 0.950 . S
H1488 C1512 0.950 . S
H1489 C1513 0.951 . S
H1490 C1515 0.951 . S
H1491 C1517 0.950 . S
H1492 C1518 0.950 . S
H1493 C1520 0.950 . S
H1494 C1523 0.950 . S
H1495 C1524 0.950 . S
H1496 C1526 0.950 . S
H1497 C1527 0.950 . S
C1498 H1480 0.951 . S
C1498 C1499 1.366 . S
C1498 C1500 1.388 . S
C1499 C1498 1.366 . S
C1499 C1503 1.385 . S
C1500 H1481 0.951 . S
C1500 C1498 1.388 . S
C1500 C1501 1.366 . S
C1501 C1500 1.366 . S
C1501 C1502 1.414 . S
C1501 C1504 1.499 . S
C1502 H1482 0.950 . S
C1502 C1501 1.414 . S
C1502 C1503 1.374 . S
C1503 H1483 0.950 . S
C1503 C1499 1.385 . S
C1503 C1502 1.374 . S
C1504 C1501 1.499 . S
C1504 C1505 1.373 . S
C1504 C1506 1.389 . S
C1505 H1484 0.950 . S
C1505 C1504 1.373 . S
C1505 C1521 1.377 . S
C1506 C1504 1.389 . S
C1506 C1507 1.524 . S
C1506 C1520 1.377 . S
C1507 C1506 1.524 . S
C1507 C1508 1.397 . S
C1507 C1512 1.363 . S
C1508 H1485 0.950 . S
C1508 C1507 1.397 . S
C1508 C1509 1.334 . S
C1509 H1486 0.950 . S
C1509 C1508 1.334 . S
C1509 C1510 1.287 . S
C1510 C1509 1.287 . S
C1510 C1511 1.524 . S
C1510 H1529 0.913 . S
C1511 H1487 0.950 . S
C1511 C1510 1.524 . S
C1511 C1512 1.415 . S
C1512 H1488 0.950 . S
C1512 C1507 1.363 . S
C1512 C1511 1.415 . S
C1513 H1489 0.951 . S
C1513 C1514 1.366 . S
C1513 C1515 1.388 . S
C1514 C1513 1.366 . S
C1514 C1518 1.385 . S
C1515 H1490 0.951 . S
C1515 C1513 1.388 . S
C1515 C1516 1.366 . S
C1516 C1515 1.366 . S
C1516 C1517 1.414 . S
C1516 C1519 1.499 . S
C1517 H1491 0.950 . S
C1517 C1516 1.414 . S
C1517 C1518 1.374 . S
C1518 H1492 0.950 . S
C1518 C1514 1.385 . S
C1518 C1517 1.374 . S
C1519 C1516 1.499 . S
C1519 C1520 1.373 . S
C1519 C1521 1.389 . S
C1520 H1493 0.950 . S
C1520 C1506 1.377 . S
C1520 C1519 1.373 . S
C1521 C1505 1.377 . S
C1521 C1519 1.389 . S
C1521 C1522 1.524 . S
C1522 C1521 1.524 . S
C1522 C1523 1.397 . S
C1522 C1527 1.363 . S
C1523 H1494 0.950 . S
C1523 C1522 1.397 . S
C1523 C1524 1.334 . S
C1524 H1495 0.950 . S
C1524 C1523 1.334 . S
C1524 C1525 1.287 . S
C1525 C1524 1.287 . S
C1525 C1526 1.524 . S
C1525 H1528 0.999 . S
C1526 H1496 0.950 . S
C1526 C1525 1.524 . S
C1526 C1527 1.415 . S
C1527 H1497 0.950 . S
C1527 C1522 1.363 . S
C1527 C1526 1.415 . S
H1528 C1525 0.999 . S
H1529 C1510 0.913 . S
H1530 C1548 0.951 . S
H1531 C1550 0.951 . S
H1532 C1552 0.950 . S
H1533 C1553 0.950 . S
H1534 C1555 0.950 . S
H1535 C1558 0.950 . S
H1536 C1559 0.950 . S
H1537 C1561 0.950 . S
H1538 C1562 0.950 . S
H1539 C1563 0.951 . S
H1540 C1565 0.951 . S
H1541 C1567 0.950 . S
H1542 C1568 0.950 . S
H1543 C1570 0.950 . S
H1544 C1573 0.950 . S
H1545 C1574 0.950 . S
H1546 C1576 0.950 . S
H1547 C1577 0.950 . S
C1548 H1530 0.951 . S
C1548 C1549 1.366 . S
C1548 C1550 1.388 . S
C1549 C1548 1.366 . S
C1549 C1553 1.385 . S
C1550 H1531 0.951 . S
C1550 C1548 1.388 . S
C1550 C1551 1.366 . S
C1551 C1550 1.366 . S
C1551 C1552 1.414 . S
C1551 C1554 1.499 . S
C1552 H1532 0.950 . S
C1552 C1551 1.414 . S
C1552 C1553 1.374 . S
C1553 H1533 0.950 . S
C1553 C1549 1.385 . S
C1553 C1552 1.374 . S
C1554 C1551 1.499 . S
C1554 C1555 1.373 . S
C1554 C1556 1.389 . S
C1555 H1534 0.950 . S
C1555 C1554 1.373 . S
C1555 C1571 1.377 . S
C1556 C1554 1.389 . S
C1556 C1557 1.524 . S
C1556 C1570 1.377 . S
C1557 C1556 1.524 . S
C1557 C1558 1.397 . S
C1557 C1562 1.363 . S
C1558 H1535 0.950 . S
C1558 C1557 1.397 . S
C1558 C1559 1.334 . S
C1559 H1536 0.950 . S
C1559 C1558 1.334 . S
C1559 C1560 1.287 . S
C1560 C1559 1.287 . S
C1560 C1561 1.524 . S
C1560 H1579 0.913 . S
C1561 H1537 0.950 . S
C1561 C1560 1.524 . S
C1561 C1562 1.415 . S
C1562 H1538 0.950 . S
C1562 C1557 1.363 . S
C1562 C1561 1.415 . S
C1563 H1539 0.951 . S
C1563 C1564 1.366 . S
C1563 C1565 1.388 . S
C1564 C1563 1.366 . S
C1564 C1568 1.385 . S
C1565 H1540 0.951 . S
C1565 C1563 1.388 . S
C1565 C1566 1.366 . S
C1566 C1565 1.366 . S
C1566 C1567 1.414 . S
C1566 C1569 1.499 . S
C1567 H1541 0.950 . S
C1567 C1566 1.414 . S
C1567 C1568 1.374 . S
C1568 H1542 0.950 . S
C1568 C1564 1.385 . S
C1568 C1567 1.374 . S
C1569 C1566 1.499 . S
C1569 C1570 1.373 . S
C1569 C1571 1.389 . S
C1570 H1543 0.950 . S
C1570 C1556 1.377 . S
C1570 C1569 1.373 . S
C1571 C1555 1.377 . S
C1571 C1569 1.389 . S
C1571 C1572 1.524 . S
C1572 C1571 1.524 . S
C1572 C1573 1.397 . S
C1572 C1577 1.363 . S
C1573 H1544 0.950 . S
C1573 C1572 1.397 . S
C1573 C1574 1.334 . S
C1574 H1545 0.950 . S
C1574 C1573 1.334 . S
C1574 C1575 1.287 . S
C1575 C1574 1.287 . S
C1575 C1576 1.524 . S
C1575 H1578 0.999 . S
C1576 H1546 0.950 . S
C1576 C1575 1.524 . S
C1576 C1577 1.415 . S
C1577 H1547 0.950 . S
C1577 C1572 1.363 . S
C1577 C1576 1.415 . S
H1578 C1575 0.999 . S
H1579 C1560 0.913 . S
H1580 C1598 0.951 . S
H1581 C1600 0.951 . S
H1582 C1602 0.950 . S
H1583 C1603 0.950 . S
H1584 C1605 0.950 . S
H1585 C1608 0.950 . S
H1586 C1609 0.950 . S
H1587 C1611 0.950 . S
H1588 C1612 0.950 . S
H1589 C1613 0.951 . S
H1590 C1615 0.951 . S
H1591 C1617 0.950 . S
H1592 C1618 0.950 . S
H1593 C1620 0.950 . S
H1594 C1623 0.950 . S
H1595 C1624 0.950 . S
H1596 C1626 0.950 . S
H1597 C1627 0.950 . S
C1598 H1580 0.951 . S
C1598 C1599 1.366 . S
C1598 C1600 1.388 . S
C1599 C1598 1.366 . S
C1599 C1603 1.385 . S
C1600 H1581 0.951 . S
C1600 C1598 1.388 . S
C1600 C1601 1.366 . S
C1601 C1600 1.366 . S
C1601 C1602 1.414 . S
C1601 C1604 1.499 . S
C1602 H1582 0.950 . S
C1602 C1601 1.414 . S
C1602 C1603 1.374 . S
C1603 H1583 0.950 . S
C1603 C1599 1.385 . S
C1603 C1602 1.374 . S
C1604 C1601 1.499 . S
C1604 C1605 1.373 . S
C1604 C1606 1.389 . S
C1605 H1584 0.950 . S
C1605 C1604 1.373 . S
C1605 C1621 1.377 . S
C1606 C1604 1.389 . S
C1606 C1607 1.524 . S
C1606 C1620 1.377 . S
C1607 C1606 1.524 . S
C1607 C1608 1.397 . S
C1607 C1612 1.363 . S
C1608 H1585 0.950 . S
C1608 C1607 1.397 . S
C1608 C1609 1.334 . S
C1609 H1586 0.950 . S
C1609 C1608 1.334 . S
C1609 C1610 1.287 . S
C1610 C1609 1.287 . S
C1610 C1611 1.524 . S
C1610 H1629 0.913 . S
C1611 H1587 0.950 . S
C1611 C1610 1.524 . S
C1611 C1612 1.415 . S
C1612 H1588 0.950 . S
C1612 C1607 1.363 . S
C1612 C1611 1.415 . S
C1613 H1589 0.951 . S
C1613 C1614 1.366 . S
C1613 C1615 1.388 . S
C1614 C1613 1.366 . S
C1614 C1618 1.385 . S
C1615 H1590 0.951 . S
C1615 C1613 1.388 . S
C1615 C1616 1.366 . S
C1616 C1615 1.366 . S
C1616 C1617 1.414 . S
C1616 C1619 1.499 . S
C1617 H1591 0.950 . S
C1617 C1616 1.414 . S
C1617 C1618 1.374 . S
C1618 H1592 0.950 . S
C1618 C1614 1.385 . S
C1618 C1617 1.374 . S
C1619 C1616 1.499 . S
C1619 C1620 1.373 . S
C1619 C1621 1.389 . S
C1620 H1593 0.950 . S
C1620 C1606 1.377 . S
C1620 C1619 1.373 . S
C1621 C1605 1.377 . S
C1621 C1619 1.389 . S
C1621 C1622 1.524 . S
C1622 C1621 1.524 . S
C1622 C1623 1.397 . S
C1622 C1627 1.363 . S
C1623 H1594 0.950 . S
C1623 C1622 1.397 . S
C1623 C1624 1.334 . S
C1624 H1595 0.950 . S
C1624 C1623 1.334 . S
C1624 C1625 1.287 . S
C1625 C1624 1.287 . S
C1625 C1626 1.524 . S
C1625 H1628 0.999 . S
C1626 H1596 0.950 . S
C1626 C1625 1.524 . S
C1626 C1627 1.415 . S
C1627 H1597 0.950 . S
C1627 C1622 1.363 . S
C1627 C1626 1.415 . S
H1628 C1625 0.999 . S
H1629 C1610 0.913 . S
H1630 C1648 0.951 . S
H1631 C1650 0.951 . S
H1632 C1652 0.950 . S
H1633 C1653 0.950 . S
H1634 C1655 0.950 . S
H1635 C1658 0.950 . S
H1636 C1659 0.950 . S
H1637 C1661 0.950 . S
H1638 C1662 0.950 . S
H1639 C1663 0.951 . S
H1640 C1665 0.951 . S
H1641 C1667 0.950 . S
H1642 C1668 0.950 . S
H1643 C1670 0.950 . S
H1644 C1673 0.950 . S
H1645 C1674 0.950 . S
H1646 C1676 0.950 . S
H1647 C1677 0.950 . S
C1648 H1630 0.951 . S
C1648 C1649 1.366 . S
C1648 C1650 1.388 . S
C1649 C1648 1.366 . S
C1649 C1653 1.385 . S
C1650 H1631 0.951 . S
C1650 C1648 1.388 . S
C1650 C1651 1.366 . S
C1651 C1650 1.366 . S
C1651 C1652 1.414 . S
C1651 C1654 1.499 . S
C1652 H1632 0.950 . S
C1652 C1651 1.414 . S
C1652 C1653 1.374 . S
C1653 H1633 0.950 . S
C1653 C1649 1.385 . S
C1653 C1652 1.374 . S
C1654 C1651 1.499 . S
C1654 C1655 1.373 . S
C1654 C1656 1.389 . S
C1655 H1634 0.950 . S
C1655 C1654 1.373 . S
C1655 C1671 1.377 . S
C1656 C1654 1.389 . S
C1656 C1657 1.524 . S
C1656 C1670 1.377 . S
C1657 C1656 1.524 . S
C1657 C1658 1.397 . S
C1657 C1662 1.363 . S
C1658 H1635 0.950 . S
C1658 C1657 1.397 . S
C1658 C1659 1.334 . S
C1659 H1636 0.950 . S
C1659 C1658 1.334 . S
C1659 C1660 1.287 . S
C1660 C1659 1.287 . S
C1660 C1661 1.524 . S
C1660 H1679 0.913 . S
C1661 H1637 0.950 . S
C1661 C1660 1.524 . S
C1661 C1662 1.415 . S
C1662 H1638 0.950 . S
C1662 C1657 1.363 . S
C1662 C1661 1.415 . S
C1663 H1639 0.951 . S
C1663 C1664 1.366 . S
C1663 C1665 1.388 . S
C1664 C1663 1.366 . S
C1664 C1668 1.385 . S
C1665 H1640 0.951 . S
C1665 C1663 1.388 . S
C1665 C1666 1.366 . S
C1666 C1665 1.366 . S
C1666 C1667 1.414 . S
C1666 C1669 1.499 . S
C1667 H1641 0.950 . S
C1667 C1666 1.414 . S
C1667 C1668 1.374 . S
C1668 H1642 0.950 . S
C1668 C1664 1.385 . S
C1668 C1667 1.374 . S
C1669 C1666 1.499 . S
C1669 C1670 1.373 . S
C1669 C1671 1.389 . S
C1670 H1643 0.950 . S
C1670 C1656 1.377 . S
C1670 C1669 1.373 . S
C1671 C1655 1.377 . S
C1671 C1669 1.389 . S
C1671 C1672 1.524 . S
C1672 C1671 1.524 . S
C1672 C1673 1.397 . S
C1672 C1677 1.363 . S
C1673 H1644 0.950 . S
C1673 C1672 1.397 . S
C1673 C1674 1.334 . S
C1674 H1645 0.950 . S
C1674 C1673 1.334 . S
C1674 C1675 1.287 . S
C1675 C1674 1.287 . S
C1675 C1676 1.524 . S
C1675 H1678 0.999 . S
C1676 H1646 0.950 . S
C1676 C1675 1.524 . S
C1676 C1677 1.415 . S
C1677 H1647 0.950 . S
C1677 C1672 1.363 . S
C1677 C1676 1.415 . S
H1678 C1675 0.999 . S
H1679 C1660 0.913 . S
H1680 C1698 0.951 . S
H1681 C1700 0.951 . S
H1682 C1702 0.950 . S
H1683 C1703 0.950 . S
H1684 C1705 0.950 . S
H1685 C1708 0.950 . S
H1686 C1709 0.950 . S
H1687 C1711 0.950 . S
H1688 C1712 0.950 . S
H1689 C1713 0.951 . S
H1690 C1715 0.951 . S
H1691 C1717 0.950 . S
H1692 C1718 0.950 . S
H1693 C1720 0.950 . S
H1694 C1723 0.950 . S
H1695 C1724 0.950 . S
H1696 C1726 0.950 . S
H1697 C1727 0.950 . S
C1698 H1680 0.951 . S
C1698 C1699 1.366 . S
C1698 C1700 1.388 . S
C1699 C1698 1.366 . S
C1699 C1703 1.385 . S
C1700 H1681 0.951 . S
C1700 C1698 1.388 . S
C1700 C1701 1.366 . S
C1701 C1700 1.366 . S
C1701 C1702 1.414 . S
C1701 C1704 1.499 . S
C1702 H1682 0.950 . S
C1702 C1701 1.414 . S
C1702 C1703 1.374 . S
C1703 H1683 0.950 . S
C1703 C1699 1.385 . S
C1703 C1702 1.374 . S
C1704 C1701 1.499 . S
C1704 C1705 1.373 . S
C1704 C1706 1.389 . S
C1705 H1684 0.950 . S
C1705 C1704 1.373 . S
C1705 C1721 1.377 . S
C1706 C1704 1.389 . S
C1706 C1707 1.524 . S
C1706 C1720 1.377 . S
C1707 C1706 1.524 . S
C1707 C1708 1.397 . S
C1707 C1712 1.363 . S
C1708 H1685 0.950 . S
C1708 C1707 1.397 . S
C1708 C1709 1.334 . S
C1709 H1686 0.950 . S
C1709 C1708 1.334 . S
C1709 C1710 1.287 . S
C1710 C1709 1.287 . S
C1710 C1711 1.524 . S
C1710 H1729 0.913 . S
C1711 H1687 0.950 . S
C1711 C1710 1.524 . S
C1711 C1712 1.415 . S
C1712 H1688 0.950 . S
C1712 C1707 1.363 . S
C1712 C1711 1.415 . S
C1713 H1689 0.951 . S
C1713 C1714 1.366 . S
C1713 C1715 1.388 . S
C1714 C1713 1.366 . S
C1714 C1718 1.385 . S
C1715 H1690 0.951 . S
C1715 C1713 1.388 . S
C1715 C1716 1.366 . S
C1716 C1715 1.366 . S
C1716 C1717 1.414 . S
C1716 C1719 1.499 . S
C1717 H1691 0.950 . S
C1717 C1716 1.414 . S
C1717 C1718 1.374 . S
C1718 H1692 0.950 . S
C1718 C1714 1.385 . S
C1718 C1717 1.374 . S
C1719 C1716 1.499 . S
C1719 C1720 1.373 . S
C1719 C1721 1.389 . S
C1720 H1693 0.950 . S
C1720 C1706 1.377 . S
C1720 C1719 1.373 . S
C1721 C1705 1.377 . S
C1721 C1719 1.389 . S
C1721 C1722 1.524 . S
C1722 C1721 1.524 . S
C1722 C1723 1.397 . S
C1722 C1727 1.363 . S
C1723 H1694 0.950 . S
C1723 C1722 1.397 . S
C1723 C1724 1.334 . S
C1724 H1695 0.950 . S
C1724 C1723 1.334 . S
C1724 C1725 1.287 . S
C1725 C1724 1.287 . S
C1725 C1726 1.524 . S
C1725 H1728 0.999 . S
C1726 H1696 0.950 . S
C1726 C1725 1.524 . S
C1726 C1727 1.415 . S
C1727 H1697 0.950 . S
C1727 C1722 1.363 . S
C1727 C1726 1.415 . S
H1728 C1725 0.999 . S
H1729 C1710 0.913 . S
H1730 C1748 0.951 . S
H1731 C1750 0.951 . S
H1732 C1752 0.950 . S
H1733 C1753 0.950 . S
H1734 C1755 0.950 . S
H1735 C1758 0.950 . S
H1736 C1759 0.950 . S
H1737 C1761 0.950 . S
H1738 C1762 0.950 . S
H1739 C1763 0.951 . S
H1740 C1765 0.951 . S
H1741 C1767 0.950 . S
H1742 C1768 0.950 . S
H1743 C1770 0.950 . S
H1744 C1773 0.950 . S
H1745 C1774 0.950 . S
H1746 C1776 0.950 . S
H1747 C1777 0.950 . S
C1748 H1730 0.951 . S
C1748 C1749 1.366 . S
C1748 C1750 1.388 . S
C1749 C1748 1.366 . S
C1749 C1753 1.385 . S
C1750 H1731 0.951 . S
C1750 C1748 1.388 . S
C1750 C1751 1.366 . S
C1751 C1750 1.366 . S
C1751 C1752 1.414 . S
C1751 C1754 1.499 . S
C1752 H1732 0.950 . S
C1752 C1751 1.414 . S
C1752 C1753 1.374 . S
C1753 H1733 0.950 . S
C1753 C1749 1.385 . S
C1753 C1752 1.374 . S
C1754 C1751 1.499 . S
C1754 C1755 1.373 . S
C1754 C1756 1.389 . S
C1755 H1734 0.950 . S
C1755 C1754 1.373 . S
C1755 C1771 1.377 . S
C1756 C1754 1.389 . S
C1756 C1757 1.524 . S
C1756 C1770 1.377 . S
C1757 C1756 1.524 . S
C1757 C1758 1.397 . S
C1757 C1762 1.363 . S
C1758 H1735 0.950 . S
C1758 C1757 1.397 . S
C1758 C1759 1.334 . S
C1759 H1736 0.950 . S
C1759 C1758 1.334 . S
C1759 C1760 1.287 . S
C1760 C1759 1.287 . S
C1760 C1761 1.524 . S
C1760 H1779 0.913 . S
C1761 H1737 0.950 . S
C1761 C1760 1.524 . S
C1761 C1762 1.415 . S
C1762 H1738 0.950 . S
C1762 C1757 1.363 . S
C1762 C1761 1.415 . S
C1763 H1739 0.951 . S
C1763 C1764 1.366 . S
C1763 C1765 1.388 . S
C1764 C1763 1.366 . S
C1764 C1768 1.385 . S
C1765 H1740 0.951 . S
C1765 C1763 1.388 . S
C1765 C1766 1.366 . S
C1766 C1765 1.366 . S
C1766 C1767 1.414 . S
C1766 C1769 1.499 . S
C1767 H1741 0.950 . S
C1767 C1766 1.414 . S
C1767 C1768 1.374 . S
C1768 H1742 0.950 . S
C1768 C1764 1.385 . S
C1768 C1767 1.374 . S
C1769 C1766 1.499 . S
C1769 C1770 1.373 . S
C1769 C1771 1.389 . S
C1770 H1743 0.950 . S
C1770 C1756 1.377 . S
C1770 C1769 1.373 . S
C1771 C1755 1.377 . S
C1771 C1769 1.389 . S
C1771 C1772 1.524 . S
C1772 C1771 1.524 . S
C1772 C1773 1.397 . S
C1772 C1777 1.363 . S
C1773 H1744 0.950 . S
C1773 C1772 1.397 . S
C1773 C1774 1.334 . S
C1774 H1745 0.950 . S
C1774 C1773 1.334 . S
C1774 C1775 1.287 . S
C1775 C1774 1.287 . S
C1775 C1776 1.524 . S
C1775 H1778 0.999 . S
C1776 H1746 0.950 . S
C1776 C1775 1.524 . S
C1776 C1777 1.415 . S
C1777 H1747 0.950 . S
C1777 C1772 1.363 . S
C1777 C1776 1.415 . S
H1778 C1775 0.999 . S
H1779 C1760 0.913 . S
H1780 C1798 0.951 . S
H1781 C1800 0.951 . S
H1782 C1802 0.950 . S
H1783 C1803 0.950 . S
H1784 C1805 0.950 . S
H1785 C1808 0.950 . S
H1786 C1809 0.950 . S
H1787 C1811 0.950 . S
H1788 C1812 0.950 . S
H1789 C1813 0.951 . S
H1790 C1815 0.951 . S
H1791 C1817 0.950 . S
H1792 C1818 0.950 . S
H1793 C1820 0.950 . S
H1794 C1823 0.950 . S
H1795 C1824 0.950 . S
H1796 C1826 0.950 . S
H1797 C1827 0.950 . S
C1798 H1780 0.951 . S
C1798 C1799 1.366 . S
C1798 C1800 1.388 . S
C1799 C1798 1.366 . S
C1799 C1803 1.385 . S
C1800 H1781 0.951 . S
C1800 C1798 1.388 . S
C1800 C1801 1.366 . S
C1801 C1800 1.366 . S
C1801 C1802 1.414 . S
C1801 C1804 1.499 . S
C1802 H1782 0.950 . S
C1802 C1801 1.414 . S
C1802 C1803 1.374 . S
C1803 H1783 0.950 . S
C1803 C1799 1.385 . S
C1803 C1802 1.374 . S
C1804 C1801 1.499 . S
C1804 C1805 1.373 . S
C1804 C1806 1.389 . S
C1805 H1784 0.950 . S
C1805 C1804 1.373 . S
C1805 C1821 1.377 . S
C1806 C1804 1.389 . S
C1806 C1807 1.524 . S
C1806 C1820 1.377 . S
C1807 C1806 1.524 . S
C1807 C1808 1.397 . S
C1807 C1812 1.363 . S
C1808 H1785 0.950 . S
C1808 C1807 1.397 . S
C1808 C1809 1.334 . S
C1809 H1786 0.950 . S
C1809 C1808 1.334 . S
C1809 C1810 1.287 . S
C1810 C1809 1.287 . S
C1810 C1811 1.524 . S
C1810 H1829 0.913 . S
C1811 H1787 0.950 . S
C1811 C1810 1.524 . S
C1811 C1812 1.415 . S
C1812 H1788 0.950 . S
C1812 C1807 1.363 . S
C1812 C1811 1.415 . S
C1813 H1789 0.951 . S
C1813 C1814 1.366 . S
C1813 C1815 1.388 . S
C1814 C1813 1.366 . S
C1814 C1818 1.385 . S
C1815 H1790 0.951 . S
C1815 C1813 1.388 . S
C1815 C1816 1.366 . S
C1816 C1815 1.366 . S
C1816 C1817 1.414 . S
C1816 C1819 1.499 . S
C1817 H1791 0.950 . S
C1817 C1816 1.414 . S
C1817 C1818 1.374 . S
C1818 H1792 0.950 . S
C1818 C1814 1.385 . S
C1818 C1817 1.374 . S
C1819 C1816 1.499 . S
C1819 C1820 1.373 . S
C1819 C1821 1.389 . S
C1820 H1793 0.950 . S
C1820 C1806 1.377 . S
C1820 C1819 1.373 . S
C1821 C1805 1.377 . S
C1821 C1819 1.389 . S
C1821 C1822 1.524 . S
C1822 C1821 1.524 . S
C1822 C1823 1.397 . S
C1822 C1827 1.363 . S
C1823 H1794 0.950 . S
C1823 C1822 1.397 . S
C1823 C1824 1.334 . S
C1824 H1795 0.950 . S
C1824 C1823 1.334 . S
C1824 C1825 1.287 . S
C1825 C1824 1.287 . S
C1825 C1826 1.524 . S
C1825 H1828 0.999 . S
C1826 H1796 0.950 . S
C1826 C1825 1.524 . S
C1826 C1827 1.415 . S
C1827 H1797 0.950 . S
C1827 C1822 1.363 . S
C1827 C1826 1.415 . S
H1828 C1825 0.999 . S
H1829 C1810 0.913 . S
H1830 C1848 0.951 . S
H1831 C1850 0.951 . S
H1832 C1852 0.950 . S
H1833 C1853 0.950 . S
H1834 C1855 0.950 . S
H1835 C1858 0.950 . S
H1836 C1859 0.950 . S
H1837 C1861 0.950 . S
H1838 C1862 0.950 . S
H1839 C1863 0.951 . S
H1840 C1865 0.951 . S
H1841 C1867 0.950 . S
H1842 C1868 0.950 . S
H1843 C1870 0.950 . S
H1844 C1873 0.950 . S
H1845 C1874 0.950 . S
H1846 C1876 0.950 . S
H1847 C1877 0.950 . S
C1848 H1830 0.951 . S
C1848 C1849 1.366 . S
C1848 C1850 1.388 . S
C1849 C1848 1.366 . S
C1849 C1853 1.385 . S
C1850 H1831 0.951 . S
C1850 C1848 1.388 . S
C1850 C1851 1.366 . S
C1851 C1850 1.366 . S
C1851 C1852 1.414 . S
C1851 C1854 1.499 . S
C1852 H1832 0.950 . S
C1852 C1851 1.414 . S
C1852 C1853 1.374 . S
C1853 H1833 0.950 . S
C1853 C1849 1.385 . S
C1853 C1852 1.374 . S
C1854 C1851 1.499 . S
C1854 C1855 1.373 . S
C1854 C1856 1.389 . S
C1855 H1834 0.950 . S
C1855 C1854 1.373 . S
C1855 C1871 1.377 . S
C1856 C1854 1.389 . S
C1856 C1857 1.524 . S
C1856 C1870 1.377 . S
C1857 C1856 1.524 . S
C1857 C1858 1.397 . S
C1857 C1862 1.363 . S
C1858 H1835 0.950 . S
C1858 C1857 1.397 . S
C1858 C1859 1.334 . S
C1859 H1836 0.950 . S
C1859 C1858 1.334 . S
C1859 C1860 1.287 . S
C1860 C1859 1.287 . S
C1860 C1861 1.524 . S
C1860 H1879 0.913 . S
C1861 H1837 0.950 . S
C1861 C1860 1.524 . S
C1861 C1862 1.415 . S
C1862 H1838 0.950 . S
C1862 C1857 1.363 . S
C1862 C1861 1.415 . S
C1863 H1839 0.951 . S
C1863 C1864 1.366 . S
C1863 C1865 1.388 . S
C1864 C1863 1.366 . S
C1864 C1868 1.385 . S
C1865 H1840 0.951 . S
C1865 C1863 1.388 . S
C1865 C1866 1.366 . S
C1866 C1865 1.366 . S
C1866 C1867 1.414 . S
C1866 C1869 1.499 . S
C1867 H1841 0.950 . S
C1867 C1866 1.414 . S
C1867 C1868 1.374 . S
C1868 H1842 0.950 . S
C1868 C1864 1.385 . S
C1868 C1867 1.374 . S
C1869 C1866 1.499 . S
C1869 C1870 1.373 . S
C1869 C1871 1.389 . S
C1870 H1843 0.950 . S
C1870 C1856 1.377 . S
C1870 C1869 1.373 . S
C1871 C1855 1.377 . S
C1871 C1869 1.389 . S
C1871 C1872 1.524 . S
C1872 C1871 1.524 . S
C1872 C1873 1.397 . S
C1872 C1877 1.363 . S
C1873 H1844 0.950 . S
C1873 C1872 1.397 . S
C1873 C1874 1.334 . S
C1874 H1845 0.950 . S
C1874 C1873 1.334 . S
C1874 C1875 1.287 . S
C1875 C1874 1.287 . S
C1875 C1876 1.524 . S
C1875 H1878 0.999 . S
C1876 H1846 0.950 . S
C1876 C1875 1.524 . S
C1876 C1877 1.415 . S
C1877 H1847 0.950 . S
C1877 C1872 1.363 . S
C1877 C1876 1.415 . S
H1878 C1875 0.999 . S
H1879 C1860 0.913 . S
H1880 C1898 0.951 . S
H1881 C1900 0.951 . S
H1882 C1902 0.950 . S
H1883 C1903 0.950 . S
H1884 C1905 0.950 . S
H1885 C1908 0.950 . S
H1886 C1909 0.950 . S
H1887 C1911 0.950 . S
H1888 C1912 0.950 . S
H1889 C1913 0.951 . S
H1890 C1915 0.951 . S
H1891 C1917 0.950 . S
H1892 C1918 0.950 . S
H1893 C1920 0.950 . S
H1894 C1923 0.950 . S
H1895 C1924 0.950 . S
H1896 C1926 0.950 . S
H1897 C1927 0.950 . S
C1898 H1880 0.951 . S
C1898 C1899 1.366 . S
C1898 C1900 1.388 . S
C1899 C1898 1.366 . S
C1899 C1903 1.385 . S
C1900 H1881 0.951 . S
C1900 C1898 1.388 . S
C1900 C1901 1.366 . S
C1901 C1900 1.366 . S
C1901 C1902 1.414 . S
C1901 C1904 1.499 . S
C1902 H1882 0.950 . S
C1902 C1901 1.414 . S
C1902 C1903 1.374 . S
C1903 H1883 0.950 . S
C1903 C1899 1.385 . S
C1903 C1902 1.374 . S
C1904 C1901 1.499 . S
C1904 C1905 1.373 . S
C1904 C1906 1.389 . S
C1905 H1884 0.950 . S
C1905 C1904 1.373 . S
C1905 C1921 1.377 . S
C1906 C1904 1.389 . S
C1906 C1907 1.524 . S
C1906 C1920 1.377 . S
C1907 C1906 1.524 . S
C1907 C1908 1.397 . S
C1907 C1912 1.363 . S
C1908 H1885 0.950 . S
C1908 C1907 1.397 . S
C1908 C1909 1.334 . S
C1909 H1886 0.950 . S
C1909 C1908 1.334 . S
C1909 C1910 1.287 . S
C1910 C1909 1.287 . S
C1910 C1911 1.524 . S
C1910 H1929 0.913 . S
C1911 H1887 0.950 . S
C1911 C1910 1.524 . S
C1911 C1912 1.415 . S
C1912 H1888 0.950 . S
C1912 C1907 1.363 . S
C1912 C1911 1.415 . S
C1913 H1889 0.951 . S
C1913 C1914 1.366 . S
C1913 C1915 1.388 . S
C1914 C1913 1.366 . S
C1914 C1918 1.385 . S
C1915 H1890 0.951 . S
C1915 C1913 1.388 . S
C1915 C1916 1.366 . S
C1916 C1915 1.366 . S
C1916 C1917 1.414 . S
C1916 C1919 1.499 . S
C1917 H1891 0.950 . S
C1917 C1916 1.414 . S
C1917 C1918 1.374 . S
C1918 H1892 0.950 . S
C1918 C1914 1.385 . S
C1918 C1917 1.374 . S
C1919 C1916 1.499 . S
C1919 C1920 1.373 . S
C1919 C1921 1.389 . S
C1920 H1893 0.950 . S
C1920 C1906 1.377 . S
C1920 C1919 1.373 . S
C1921 C1905 1.377 . S
C1921 C1919 1.389 . S
C1921 C1922 1.524 . S
C1922 C1921 1.524 . S
C1922 C1923 1.397 . S
C1922 C1927 1.363 . S
C1923 H1894 0.950 . S
C1923 C1922 1.397 . S
C1923 C1924 1.334 . S
C1924 H1895 0.950 . S
C1924 C1923 1.334 . S
C1924 C1925 1.287 . S
C1925 C1924 1.287 . S
C1925 C1926 1.524 . S
C1925 H1928 0.999 . S
C1926 H1896 0.950 . S
C1926 C1925 1.524 . S
C1926 C1927 1.415 . S
C1927 H1897 0.950 . S
C1927 C1922 1.363 . S
C1927 C1926 1.415 . S
H1928 C1925 0.999 . S
H1929 C1910 0.913 . S
H1930 C1948 0.951 . S
H1931 C1950 0.951 . S
H1932 C1952 0.950 . S
H1933 C1953 0.950 . S
H1934 C1955 0.950 . S
H1935 C1958 0.950 . S
H1936 C1959 0.950 . S
H1937 C1961 0.950 . S
H1938 C1962 0.950 . S
H1939 C1963 0.951 . S
H1940 C1965 0.951 . S
H1941 C1967 0.950 . S
H1942 C1968 0.950 . S
H1943 C1970 0.950 . S
H1944 C1973 0.950 . S
H1945 C1974 0.950 . S
H1946 C1976 0.950 . S
H1947 C1977 0.950 . S
C1948 H1930 0.951 . S
C1948 C1949 1.366 . S
C1948 C1950 1.388 . S
C1949 C1948 1.366 . S
C1949 C1953 1.385 . S
C1950 H1931 0.951 . S
C1950 C1948 1.388 . S
C1950 C1951 1.366 . S
C1951 C1950 1.366 . S
C1951 C1952 1.414 . S
C1951 C1954 1.499 . S
C1952 H1932 0.950 . S
C1952 C1951 1.414 . S
C1952 C1953 1.374 . S
C1953 H1933 0.950 . S
C1953 C1949 1.385 . S
C1953 C1952 1.374 . S
C1954 C1951 1.499 . S
C1954 C1955 1.373 . S
C1954 C1956 1.389 . S
C1955 H1934 0.950 . S
C1955 C1954 1.373 . S
C1955 C1971 1.377 . S
C1956 C1954 1.389 . S
C1956 C1957 1.524 . S
C1956 C1970 1.377 . S
C1957 C1956 1.524 . S
C1957 C1958 1.397 . S
C1957 C1962 1.363 . S
C1958 H1935 0.950 . S
C1958 C1957 1.397 . S
C1958 C1959 1.334 . S
C1959 H1936 0.950 . S
C1959 C1958 1.334 . S
C1959 C1960 1.287 . S
C1960 C1959 1.287 . S
C1960 C1961 1.524 . S
C1960 H1979 0.913 . S
C1961 H1937 0.950 . S
C1961 C1960 1.524 . S
C1961 C1962 1.415 . S
C1962 H1938 0.950 . S
C1962 C1957 1.363 . S
C1962 C1961 1.415 . S
C1963 H1939 0.951 . S
C1963 C1964 1.366 . S
C1963 C1965 1.388 . S
C1964 C1963 1.366 . S
C1964 C1968 1.385 . S
C1965 H1940 0.951 . S
C1965 C1963 1.388 . S
C1965 C1966 1.366 . S
C1966 C1965 1.366 . S
C1966 C1967 1.414 . S
C1966 C1969 1.499 . S
C1967 H1941 0.950 . S
C1967 C1966 1.414 . S
C1967 C1968 1.374 . S
C1968 H1942 0.950 . S
C1968 C1964 1.385 . S
C1968 C1967 1.374 . S
C1969 C1966 1.499 . S
C1969 C1970 1.373 . S
C1969 C1971 1.389 . S
C1970 H1943 0.950 . S
C1970 C1956 1.377 . S
C1970 C1969 1.373 . S
C1971 C1955 1.377 . S
C1971 C1969 1.389 . S
C1971 C1972 1.524 . S
C1972 C1971 1.524 . S
C1972 C1973 1.397 . S
C1972 C1977 1.363 . S
C1973 H1944 0.950 . S
C1973 C1972 1.397 . S
C1973 C1974 1.334 . S
C1974 H1945 0.950 . S
C1974 C1973 1.334 . S
C1974 C1975 1.287 . S
C1975 C1974 1.287 . S
C1975 C1976 1.524 . S
C1975 H1978 0.999 . S
C1976 H1946 0.950 . S
C1976 C1975 1.524 . S
C1976 C1977 1.415 . S
C1977 H1947 0.950 . S
C1977 C1972 1.363 . S
C1977 C1976 1.415 . S
H1978 C1975 0.999 . S
H1979 C1960 0.913 . S
H1980 C1998 0.951 . S
H1981 C2000 0.951 . S
H1982 C2002 0.950 . S
H1983 C2003 0.950 . S
H1984 C2005 0.950 . S
H1985 C2008 0.950 . S
H1986 C2009 0.950 . S
H1987 C2011 0.950 . S
H1988 C2012 0.950 1_554 S
H1989 C2013 0.951 . S
H1990 C2015 0.951 . S
H1991 C2017 0.950 . S
H1992 C2018 0.950 . S
H1993 C2020 0.950 . S
H1994 C2023 0.950 . S
H1995 C2024 0.950 . S
H1996 C2026 0.950 . S
H1997 C2027 0.950 1_556 S
C1998 H1980 0.951 . S
C1998 C1999 1.366 . S
C1998 C2000 1.388 . S
C1999 C1998 1.366 . S
C1999 C2003 1.385 . S
C2000 H1981 0.951 . S
C2000 C1998 1.388 . S
C2000 C2001 1.366 . S
C2001 C2000 1.366 . S
C2001 C2002 1.414 . S
C2001 C2004 1.499 . S
C2002 H1982 0.950 . S
C2002 C2001 1.414 . S
C2002 C2003 1.374 . S
C2003 H1983 0.950 . S
C2003 C1999 1.385 . S
C2003 C2002 1.374 . S
C2004 C2001 1.499 . S
C2004 C2005 1.373 . S
C2004 C2006 1.389 . S
C2005 H1984 0.950 . S
C2005 C2004 1.373 . S
C2005 C2021 1.377 1_556 S
C2006 C2004 1.389 . S
C2006 C2007 1.524 . S
C2006 C2020 1.377 1_556 S
C2007 C2006 1.524 . S
C2007 C2008 1.397 . S
C2007 C2012 1.363 . S
C2008 H1985 0.950 . S
C2008 C2007 1.397 . S
C2008 C2009 1.334 . S
C2009 H1986 0.950 . S
C2009 C2008 1.334 . S
C2009 C2010 1.287 . S
C2010 C2009 1.287 . S
C2010 C2011 1.524 . S
C2010 H2029 0.913 . S
C2011 H1987 0.950 . S
C2011 C2010 1.524 . S
C2011 C2012 1.415 . S
C2012 H1988 0.950 1_556 S
C2012 C2007 1.363 . S
C2012 C2011 1.415 . S
C2013 H1989 0.951 . S
C2013 C2014 1.366 . S
C2013 C2015 1.388 . S
C2014 C2013 1.366 . S
C2014 C2018 1.385 . S
C2015 H1990 0.951 . S
C2015 C2013 1.388 . S
C2015 C2016 1.366 . S
C2016 C2015 1.366 . S
C2016 C2017 1.414 . S
C2016 C2019 1.499 . S
C2017 H1991 0.950 . S
C2017 C2016 1.414 . S
C2017 C2018 1.374 . S
C2018 H1992 0.950 . S
C2018 C2014 1.385 . S
C2018 C2017 1.374 . S
C2019 C2016 1.499 . S
C2019 C2020 1.373 . S
C2019 C2021 1.389 . S
C2020 H1993 0.950 . S
C2020 C2006 1.377 1_554 S
C2020 C2019 1.373 . S
C2021 C2005 1.377 1_554 S
C2021 C2019 1.389 . S
C2021 C2022 1.524 . S
C2022 C2021 1.524 . S
C2022 C2023 1.397 . S
C2022 C2027 1.363 . S
C2023 H1994 0.950 . S
C2023 C2022 1.397 . S
C2023 C2024 1.334 . S
C2024 H1995 0.950 . S
C2024 C2023 1.334 . S
C2024 C2025 1.287 . S
C2025 C2024 1.287 . S
C2025 C2026 1.524 . S
C2025 H2028 0.999 . S
C2026 H1996 0.950 . S
C2026 C2025 1.524 . S
C2026 C2027 1.415 . S
C2027 H1997 0.950 1_554 S
C2027 C2022 1.363 . S
C2027 C2026 1.415 . S
H2028 C2025 0.999 . S
H2029 C2010 0.913 . S
H2030 C2048 0.951 . S
H2031 C2050 0.951 . S
H2032 C2052 0.950 . S
H2033 C2053 0.950 . S
H2034 C2055 0.950 . S
H2035 C2058 0.950 . S
H2036 C2059 0.950 . S
H2037 C2061 0.950 . S
H2038 C2062 0.950 1_655 S
H2039 C2063 0.951 . S
H2040 C2065 0.951 . S
H2041 C2067 0.950 . S
H2042 C2068 0.950 . S
H2043 C2070 0.950 . S
H2044 C2073 0.950 . S
H2045 C2074 0.950 . S
H2046 C2076 0.950 . S
H2047 C2077 0.950 1_455 S
C2048 H2030 0.951 . S
C2048 C2049 1.366 . S
C2048 C2050 1.388 . S
C2049 C2048 1.366 . S
C2049 C2053 1.385 . S
C2050 H2031 0.951 . S
C2050 C2048 1.388 . S
C2050 C2051 1.366 . S
C2051 C2050 1.366 . S
C2051 C2052 1.414 . S
C2051 C2054 1.499 . S
C2052 H2032 0.950 . S
C2052 C2051 1.414 . S
C2052 C2053 1.374 . S
C2053 H2033 0.950 . S
C2053 C2049 1.385 . S
C2053 C2052 1.374 . S
C2054 C2051 1.499 . S
C2054 C2055 1.373 . S
C2054 C2056 1.389 . S
C2055 H2034 0.950 . S
C2055 C2054 1.373 . S
C2055 C2071 1.377 1_455 S
C2056 C2054 1.389 . S
C2056 C2057 1.524 . S
C2056 C2070 1.377 1_455 S
C2057 C2056 1.524 . S
C2057 C2058 1.397 . S
C2057 C2062 1.363 . S
C2058 H2035 0.950 . S
C2058 C2057 1.397 . S
C2058 C2059 1.334 . S
C2059 H2036 0.950 . S
C2059 C2058 1.334 . S
C2059 C2060 1.287 . S
C2060 C2059 1.287 . S
C2060 C2061 1.524 . S
C2060 H2079 0.913 . S
C2061 H2037 0.950 . S
C2061 C2060 1.524 . S
C2061 C2062 1.415 . S
C2062 H2038 0.950 1_455 S
C2062 C2057 1.363 . S
C2062 C2061 1.415 . S
C2063 H2039 0.951 . S
C2063 C2064 1.366 . S
C2063 C2065 1.388 . S
C2064 C2063 1.366 . S
C2064 C2068 1.385 . S
C2065 H2040 0.951 . S
C2065 C2063 1.388 . S
C2065 C2066 1.366 . S
C2066 C2065 1.366 . S
C2066 C2067 1.414 . S
C2066 C2069 1.499 . S
C2067 H2041 0.950 . S
C2067 C2066 1.414 . S
C2067 C2068 1.374 . S
C2068 H2042 0.950 . S
C2068 C2064 1.385 . S
C2068 C2067 1.374 . S
C2069 C2066 1.499 . S
C2069 C2070 1.373 . S
C2069 C2071 1.389 . S
C2070 H2043 0.950 . S
C2070 C2056 1.377 1_655 S
C2070 C2069 1.373 . S
C2071 C2055 1.377 1_655 S
C2071 C2069 1.389 . S
C2071 C2072 1.524 . S
C2072 C2071 1.524 . S
C2072 C2073 1.397 . S
C2072 C2077 1.363 . S
C2073 H2044 0.950 . S
C2073 C2072 1.397 . S
C2073 C2074 1.334 . S
C2074 H2045 0.950 . S
C2074 C2073 1.334 . S
C2074 C2075 1.287 . S
C2075 C2074 1.287 . S
C2075 C2076 1.524 . S
C2075 H2078 0.999 . S
C2076 H2046 0.950 . S
C2076 C2075 1.524 . S
C2076 C2077 1.415 . S
C2077 H2047 0.950 1_655 S
C2077 C2072 1.363 . S
C2077 C2076 1.415 . S
H2078 C2075 0.999 . S
H2079 C2060 0.913 . S
H2080 C2098 0.951 . S
H2081 C2100 0.951 . S
H2082 C2102 0.950 . S
H2083 C2103 0.950 . S
H2084 C2105 0.950 . S
H2085 C2108 0.950 . S
H2086 C2109 0.950 . S
H2087 C2111 0.950 . S
H2088 C2112 0.950 . S
H2089 C2113 0.951 . S
H2090 C2115 0.951 . S
H2091 C2117 0.950 . S
H2092 C2118 0.950 . S
H2093 C2120 0.950 . S
H2094 C2123 0.950 . S
H2095 C2124 0.950 . S
H2096 C2126 0.950 . S
H2097 C2127 0.950 . S
C2098 H2080 0.951 . S
C2098 C2099 1.366 . S
C2098 C2100 1.388 . S
C2099 C2098 1.366 . S
C2099 C2103 1.385 . S
C2100 H2081 0.951 . S
C2100 C2098 1.388 . S
C2100 C2101 1.366 . S
C2101 C2100 1.366 . S
C2101 C2102 1.414 . S
C2101 C2104 1.499 . S
C2102 H2082 0.950 . S
C2102 C2101 1.414 . S
C2102 C2103 1.374 . S
C2103 H2083 0.950 . S
C2103 C2099 1.385 . S
C2103 C2102 1.374 . S
C2104 C2101 1.499 . S
C2104 C2105 1.373 1_565 S
C2104 C2106 1.389 1_554 S
C2105 H2084 0.950 . S
C2105 C2104 1.373 1_545 S
C2105 C2121 1.377 . S
C2106 C2104 1.389 1_556 S
C2106 C2107 1.524 . S
C2106 C2120 1.377 . S
C2107 C2106 1.524 . S
C2107 C2108 1.397 1_556 S
C2107 C2112 1.363 . S
C2108 H2085 0.950 . S
C2108 C2107 1.397 1_554 S
C2108 C2109 1.334 . S
C2109 H2086 0.950 . S
C2109 C2108 1.334 . S
C2109 C2110 1.287 1_554 S
C2110 C2109 1.287 1_556 S
C2110 C2111 1.524 . S
C2110 H2129 0.913 . S
C2111 H2087 0.950 . S
C2111 C2110 1.524 . S
C2111 C2112 1.415 . S
C2112 H2088 0.950 . S
C2112 C2107 1.363 . S
C2112 C2111 1.415 . S
C2113 H2089 0.951 . S
C2113 C2114 1.366 . S
C2113 C2115 1.388 . S
C2114 C2113 1.366 . S
C2114 C2118 1.385 . S
C2115 H2090 0.951 . S
C2115 C2113 1.388 . S
C2115 C2116 1.366 . S
C2116 C2115 1.366 . S
C2116 C2117 1.414 . S
C2116 C2119 1.499 . S
C2117 H2091 0.950 . S
C2117 C2116 1.414 . S
C2117 C2118 1.374 . S
C2118 H2092 0.950 . S
C2118 C2114 1.385 . S
C2118 C2117 1.374 . S
C2119 C2116 1.499 . S
C2119 C2120 1.373 1_545 S
C2119 C2121 1.389 1_556 S
C2120 H2093 0.950 . S
C2120 C2106 1.377 . S
C2120 C2119 1.373 1_565 S
C2121 C2105 1.377 . S
C2121 C2119 1.389 1_554 S
C2121 C2122 1.524 . S
C2122 C2121 1.524 . S
C2122 C2123 1.397 1_554 S
C2122 C2127 1.363 . S
C2123 H2094 0.950 . S
C2123 C2122 1.397 1_556 S
C2123 C2124 1.334 . S
C2124 H2095 0.950 . S
C2124 C2123 1.334 . S
C2124 C2125 1.287 1_556 S
C2125 C2124 1.287 1_554 S
C2125 C2126 1.524 . S
C2125 H2128 0.999 . S
C2126 H2096 0.950 . S
C2126 C2125 1.524 . S
C2126 C2127 1.415 . S
C2127 H2097 0.950 . S
C2127 C2122 1.363 . S
C2127 C2126 1.415 . S
H2128 C2125 0.999 . S
H2129 C2110 0.913 . S
H2130 C2148 0.951 . S
H2131 C2150 0.951 . S
H2132 C2152 0.950 . S
H2133 C2153 0.950 . S
H2134 C2155 0.950 . S
H2135 C2158 0.950 . S
H2136 C2159 0.950 . S
H2137 C2161 0.950 . S
H2138 C2162 0.950 . S
H2139 C2163 0.951 . S
H2140 C2165 0.951 . S
H2141 C2167 0.950 . S
H2142 C2168 0.950 . S
H2143 C2170 0.950 . S
H2144 C2173 0.950 . S
H2145 C2174 0.950 . S
H2146 C2176 0.950 . S
H2147 C2177 0.950 . S
C2148 H2130 0.951 . S
C2148 C2149 1.366 . S
C2148 C2150 1.388 . S
C2149 C2148 1.366 . S
C2149 C2153 1.385 . S
C2150 H2131 0.951 . S
C2150 C2148 1.388 . S
C2150 C2151 1.366 . S
C2151 C2150 1.366 . S
C2151 C2152 1.414 . S
C2151 C2154 1.499 . S
C2152 H2132 0.950 . S
C2152 C2151 1.414 . S
C2152 C2153 1.374 . S
C2153 H2133 0.950 . S
C2153 C2149 1.385 . S
C2153 C2152 1.374 . S
C2154 C2151 1.499 . S
C2154 C2155 1.373 . S
C2154 C2156 1.389 . S
C2155 H2134 0.950 . S
C2155 C2154 1.373 . S
C2155 C2171 1.377 . S
C2156 C2154 1.389 . S
C2156 C2157 1.524 . S
C2156 C2170 1.377 . S
C2157 C2156 1.524 . S
C2157 C2158 1.397 . S
C2157 C2162 1.363 . S
C2158 H2135 0.950 . S
C2158 C2157 1.397 . S
C2158 C2159 1.334 . S
C2159 H2136 0.950 . S
C2159 C2158 1.334 . S
C2159 C2160 1.287 . S
C2160 C2159 1.287 . S
C2160 C2161 1.524 . S
C2160 H2179 0.913 . S
C2161 H2137 0.950 . S
C2161 C2160 1.524 . S
C2161 C2162 1.415 . S
C2162 H2138 0.950 . S
C2162 C2157 1.363 . S
C2162 C2161 1.415 . S
C2163 H2139 0.951 . S
C2163 C2164 1.366 . S
C2163 C2165 1.388 . S
C2164 C2163 1.366 . S
C2164 C2168 1.385 . S
C2165 H2140 0.951 . S
C2165 C2163 1.388 . S
C2165 C2166 1.366 . S
C2166 C2165 1.366 . S
C2166 C2167 1.414 . S
C2166 C2169 1.499 . S
C2167 H2141 0.950 . S
C2167 C2166 1.414 . S
C2167 C2168 1.374 . S
C2168 H2142 0.950 . S
C2168 C2164 1.385 . S
C2168 C2167 1.374 . S
C2169 C2166 1.499 . S
C2169 C2170 1.373 . S
C2169 C2171 1.389 . S
C2170 H2143 0.950 . S
C2170 C2156 1.377 . S
C2170 C2169 1.373 . S
C2171 C2155 1.377 . S
C2171 C2169 1.389 . S
C2171 C2172 1.524 . S
C2172 C2171 1.524 . S
C2172 C2173 1.397 . S
C2172 C2177 1.363 . S
C2173 H2144 0.950 . S
C2173 C2172 1.397 . S
C2173 C2174 1.334 . S
C2174 H2145 0.950 . S
C2174 C2173 1.334 . S
C2174 C2175 1.287 . S
C2175 C2174 1.287 . S
C2175 C2176 1.524 . S
C2175 H2178 0.999 . S
C2176 H2146 0.950 . S
C2176 C2175 1.524 . S
C2176 C2177 1.415 . S
C2177 H2147 0.950 . S
C2177 C2172 1.363 . S
C2177 C2176 1.415 . S
H2178 C2175 0.999 . S
H2179 C2160 0.913 . S
H2180 C2198 0.951 . S
H2181 C2200 0.951 . S
H2182 C2202 0.950 . S
H2183 C2203 0.950 . S
H2184 C2205 0.950 . S
H2185 C2208 0.950 . S
H2186 C2209 0.950 . S
H2187 C2211 0.950 . S
H2188 C2212 0.950 . S
H2189 C2213 0.951 . S
H2190 C2215 0.951 . S
H2191 C2217 0.950 . S
H2192 C2218 0.950 . S
H2193 C2220 0.950 . S
H2194 C2223 0.950 . S
H2195 C2224 0.950 . S
H2196 C2226 0.950 . S
H2197 C2227 0.950 . S
C2198 H2180 0.951 . S
C2198 C2199 1.366 . S
C2198 C2200 1.388 . S
C2199 C2198 1.366 . S
C2199 C2203 1.385 . S
C2200 H2181 0.951 . S
C2200 C2198 1.388 . S
C2200 C2201 1.366 . S
C2201 C2200 1.366 . S
C2201 C2202 1.414 . S
C2201 C2204 1.499 . S
C2202 H2182 0.950 . S
C2202 C2201 1.414 . S
C2202 C2203 1.374 . S
C2203 H2183 0.950 . S
C2203 C2199 1.385 . S
C2203 C2202 1.374 . S
C2204 C2201 1.499 . S
C2204 C2205 1.373 1_556 S
C2204 C2206 1.389 . S
C2205 H2184 0.950 . S
C2205 C2204 1.373 1_554 S
C2205 C2221 1.377 1_655 S
C2206 C2204 1.389 . S
C2206 C2207 1.514 1_655 S
C2206 C2220 1.377 1_655 S
C2207 C2206 1.514 1_455 S
C2207 C2208 1.386 1_455 S
C2207 C2212 1.385 . S
C2208 H2185 0.950 . S
C2208 C2207 1.386 1_655 S
C2208 C2209 1.334 . S
C2209 H2186 0.950 . S
C2209 C2208 1.334 . S
C2209 C2210 1.287 . S
C2210 C2209 1.287 . S
C2210 C2211 1.524 1_655 S
C2210 H2229 0.913 . S
C2211 H2187 0.950 . S
C2211 C2210 1.524 1_455 S
C2211 C2212 1.415 . S
C2212 H2188 0.950 . S
C2212 C2207 1.385 . S
C2212 C2211 1.415 . S
C2213 H2189 0.951 . S
C2213 C2214 1.366 . S
C2213 C2215 1.388 . S
C2214 C2213 1.366 . S
C2214 C2218 1.385 . S
C2215 H2190 0.951 . S
C2215 C2213 1.388 . S
C2215 C2216 1.366 . S
C2216 C2215 1.366 . S
C2216 C2217 1.414 . S
C2216 C2219 1.499 . S
C2217 H2191 0.950 . S
C2217 C2216 1.414 . S
C2217 C2218 1.374 . S
C2218 H2192 0.950 . S
C2218 C2214 1.385 . S
C2218 C2217 1.374 . S
C2219 C2216 1.499 . S
C2219 C2220 1.373 1_554 S
C2219 C2221 1.389 . S
C2220 H2193 0.950 . S
C2220 C2206 1.377 1_455 S
C2220 C2219 1.373 1_556 S
C2221 C2205 1.377 1_455 S
C2221 C2219 1.389 . S
C2221 C2222 1.514 1_455 S
C2222 C2221 1.514 1_655 S
C2222 C2223 1.386 1_655 S
C2222 C2227 1.385 . S
C2223 H2194 0.950 . S
C2223 C2222 1.386 1_455 S
C2223 C2224 1.334 . S
C2224 H2195 0.950 . S
C2224 C2223 1.334 . S
C2224 C2225 1.287 . S
C2225 C2224 1.287 . S
C2225 C2226 1.524 1_455 S
C2225 H2228 0.999 . S
C2226 H2196 0.950 . S
C2226 C2225 1.524 1_655 S
C2226 C2227 1.415 . S
C2227 H2197 0.950 . S
C2227 C2222 1.385 . S
C2227 C2226 1.415 . S
H2228 C2225 0.999 . S
H2229 C2210 0.913 . S
H2230 C2248 0.951 . S
H2231 C2250 0.951 . S
H2232 C2252 0.950 . S
H2233 C2253 0.950 . S
H2234 C2255 0.950 . S
H2235 C2258 0.950 . S
H2236 C2259 0.950 . S
H2237 C2261 0.950 . S
H2238 C2262 0.950 . S
H2239 C2263 0.951 . S
H2240 C2265 0.951 . S
H2241 C2267 0.950 . S
H2242 C2268 0.950 . S
H2243 C2270 0.950 . S
H2244 C2273 0.950 . S
H2245 C2274 0.950 . S
H2246 C2276 0.950 . S
H2247 C2277 0.950 . S
C2248 H2230 0.951 . S
C2248 C2249 1.366 . S
C2248 C2250 1.388 . S
C2249 C2248 1.366 . S
C2249 C2253 1.385 . S
C2250 H2231 0.951 . S
C2250 C2248 1.388 . S
C2250 C2251 1.366 . S
C2251 C2250 1.366 . S
C2251 C2252 1.414 . S
C2251 C2254 1.499 . S
C2252 H2232 0.950 . S
C2252 C2251 1.414 . S
C2252 C2253 1.374 . S
C2253 H2233 0.950 . S
C2253 C2249 1.385 . S
C2253 C2252 1.374 . S
C2254 C2251 1.499 . S
C2254 C2255 1.373 . S
C2254 C2256 1.389 1_565 S
C2255 H2234 0.950 . S
C2255 C2254 1.373 . S
C2255 C2271 1.377 . S
C2256 C2254 1.389 1_545 S
C2256 C2257 1.524 . S
C2256 C2270 1.377 . S
C2257 C2256 1.524 . S
C2257 C2258 1.397 1_545 S
C2257 C2262 1.363 . S
C2258 H2235 0.950 . S
C2258 C2257 1.397 1_565 S
C2258 C2259 1.334 . S
C2259 H2236 0.950 . S
C2259 C2258 1.334 . S
C2259 C2260 1.287 1_565 S
C2260 C2259 1.287 1_545 S
C2260 C2261 1.524 . S
C2260 H2279 0.913 . S
C2261 H2237 0.950 . S
C2261 C2260 1.524 . S
C2261 C2262 1.415 . S
C2262 H2238 0.950 . S
C2262 C2257 1.363 . S
C2262 C2261 1.415 . S
C2263 H2239 0.951 . S
C2263 C2264 1.366 . S
C2263 C2265 1.388 . S
C2264 C2263 1.366 . S
C2264 C2268 1.385 . S
C2265 H2240 0.951 . S
C2265 C2263 1.388 . S
C2265 C2266 1.366 . S
C2266 C2265 1.366 . S
C2266 C2267 1.414 . S
C2266 C2269 1.499 . S
C2267 H2241 0.950 . S
C2267 C2266 1.414 . S
C2267 C2268 1.374 . S
C2268 H2242 0.950 . S
C2268 C2264 1.385 . S
C2268 C2267 1.374 . S
C2269 C2266 1.499 . S
C2269 C2270 1.373 . S
C2269 C2271 1.389 1_545 S
C2270 H2243 0.950 . S
C2270 C2256 1.377 . S
C2270 C2269 1.373 . S
C2271 C2255 1.377 . S
C2271 C2269 1.389 1_565 S
C2271 C2272 1.524 . S
C2272 C2271 1.524 . S
C2272 C2273 1.397 1_565 S
C2272 C2277 1.363 . S
C2273 H2244 0.950 . S
C2273 C2272 1.397 1_545 S
C2273 C2274 1.334 . S
C2274 H2245 0.950 . S
C2274 C2273 1.334 . S
C2274 C2275 1.287 1_545 S
C2275 C2274 1.287 1_565 S
C2275 C2276 1.524 . S
C2275 H2278 0.999 . S
C2276 H2246 0.950 . S
C2276 C2275 1.524 . S
C2276 C2277 1.415 . S
C2277 H2247 0.950 . S
C2277 C2272 1.363 . S
C2277 C2276 1.415 . S
H2278 C2275 0.999 . S
H2279 C2260 0.913 . S
C499 C179 1.178 . S
C514 C15 1.218 . S
C549 C219 1.180 . S
C564 C55 1.219 . S
C599 C95 1.218 . S
C614 C19 1.178 . S
C649 C135 1.218 . S
C664 C59 1.178 . S
C699 C175 1.219 . S
C714 C99 1.179 . S
C749 C139 1.179 . S
C764 C215 1.218 . S
C799 C339 1.178 . S
C814 C255 1.218 . S
C849 C295 1.218 . S
C864 C379 1.179 . S
C899 C419 1.179 . S
C914 C335 1.218 . S
C949 C375 1.218 . S
C964 C459 1.179 . S
C999 C415 1.218 . S
C1014 C259 1.179 . S
C1049 C299 1.179 . S
C1064 C455 1.218 . S
C1099 C170 1.731 . S
C1114 C6 1.738 . S
C1149 C46 1.738 . S
C1164 C210 1.731 . S
C1199 C86 1.738 . S
C1214 C10 1.731 . S
C1249 C126 1.738 . S
C1264 C50 1.731 . S
C1299 C90 1.730 . S
C1314 C166 1.738 . S
C1349 C130 1.731 . S
C1364 C206 1.738 . S
C1399 C330 1.731 . S
C1414 C246 1.738 . S
C1449 C286 1.738 . S
C1464 C370 1.731 . S
C1499 C326 1.738 . S
C1514 C410 1.731 . S
C1549 C450 1.731 . S
C1564 C366 1.739 . S
C1599 C406 1.738 . S
C1614 C250 1.731 . S
C1649 C290 1.731 . S
C1664 C446 1.739 . S
C1699 C418 1.644 . S
C1714 C18 1.644 . S
C1749 C58 1.644 . S
C1764 C458 1.644 . S
C1799 C98 1.644 . S
C1814 C258 1.644 . S
C1849 C138 1.644 . S
C1864 C298 1.645 . S
C1899 C178 1.643 . S
C1914 C338 1.644 . S
C1949 C378 1.645 . S
C1964 C218 1.644 . S
C1999 C369 2.162 . S
C2014 C9 2.162 . S
C2049 C409 2.162 . S
C2064 C49 2.162 . S
C2099 C89 2.162 . S
C2114 C449 2.162 . S
C2149 C129 2.162 . S
C2164 C249 2.162 . S
C2199 C289 2.162 . S
C2214 C169 2.162 . S
C2249 C329 2.162 . S
C2264 C209 2.162 . S
