# Generated by pormake.
# Topology upb, (4)-cn, num edge types: 1
# Building blocks:
#     Node 0, Type 0, BuildingBlock: CEKHIL_clean_sbu_0, # of connection points: 4
#     Node 1, Type 0, BuildingBlock: CEKHIL_clean_sbu_0, # of connection points: 4
#     Node 2, Type 0, BuildingBlock: CEKHIL_clean_sbu_0, # of connection points: 4
#     Node 3, Type 0, BuildingBlock: CEKHIL_clean_sbu_0, # of connection points: 4
#     Node 4, Type 0, BuildingBlock: CEKHIL_clean_sbu_0, # of connection points: 4
#     Node 5, Type 0, BuildingBlock: CEKHIL_clean_sbu_0, # of connection points: 4
#     Node 6, Type 0, BuildingBlock: CEKHIL_clean_sbu_0, # of connection points: 4
#     Node 7, Type 0, BuildingBlock: CEKHIL_clean_sbu_0, # of connection points: 4
#     Node 8, Type 0, BuildingBlock: CEKHIL_clean_sbu_0, # of connection points: 4
#     Node 9, Type 0, BuildingBlock: CEKHIL_clean_sbu_0, # of connection points: 4
#     Node 10, Type 0, BuildingBlock: CEKHIL_clean_sbu_0, # of connection points: 4
#     Node 11, Type 0, BuildingBlock: CEKHIL_clean_sbu_0, # of connection points: 4
#     Node 12, Type 0, BuildingBlock: CEKHIL_clean_sbu_0, # of connection points: 4
#     Node 13, Type 0, BuildingBlock: CEKHIL_clean_sbu_0, # of connection points: 4
#     Node 14, Type 0, BuildingBlock: CEKHIL_clean_sbu_0, # of connection points: 4
#     Node 15, Type 0, BuildingBlock: CEKHIL_clean_sbu_0, # of connection points: 4
#     Edge 16, Type (0, 0), BuildingBlock: EYOCIG_clean_linker_4, # of connection points: 2
#     Edge 17, Type (0, 0), BuildingBlock: EYOCIG_clean_linker_4, # of connection points: 2
#     Edge 18, Type (0, 0), BuildingBlock: EYOCIG_clean_linker_4, # of connection points: 2
#     Edge 19, Type (0, 0), BuildingBlock: EYOCIG_clean_linker_4, # of connection points: 2
#     Edge 20, Type (0, 0), BuildingBlock: EYOCIG_clean_linker_4, # of connection points: 2
#     Edge 21, Type (0, 0), BuildingBlock: EYOCIG_clean_linker_4, # of connection points: 2
#     Edge 22, Type (0, 0), BuildingBlock: EYOCIG_clean_linker_4, # of connection points: 2
#     Edge 23, Type (0, 0), BuildingBlock: EYOCIG_clean_linker_4, # of connection points: 2
#     Edge 24, Type (0, 0), BuildingBlock: EYOCIG_clean_linker_4, # of connection points: 2
#     Edge 25, Type (0, 0), BuildingBlock: EYOCIG_clean_linker_4, # of connection points: 2
#     Edge 26, Type (0, 0), BuildingBlock: EYOCIG_clean_linker_4, # of connection points: 2
#     Edge 27, Type (0, 0), BuildingBlock: EYOCIG_clean_linker_4, # of connection points: 2
#     Edge 28, Type (0, 0), BuildingBlock: EYOCIG_clean_linker_4, # of connection points: 2
#     Edge 29, Type (0, 0), BuildingBlock: EYOCIG_clean_linker_4, # of connection points: 2
#     Edge 30, Type (0, 0), BuildingBlock: EYOCIG_clean_linker_4, # of connection points: 2
#     Edge 31, Type (0, 0), BuildingBlock: EYOCIG_clean_linker_4, # of connection points: 2
#     Edge 32, Type (0, 0), BuildingBlock: EYOCIG_clean_linker_4, # of connection points: 2
#     Edge 33, Type (0, 0), BuildingBlock: EYOCIG_clean_linker_4, # of connection points: 2
#     Edge 34, Type (0, 0), BuildingBlock: EYOCIG_clean_linker_4, # of connection points: 2
#     Edge 35, Type (0, 0), BuildingBlock: EYOCIG_clean_linker_4, # of connection points: 2
#     Edge 36, Type (0, 0), BuildingBlock: EYOCIG_clean_linker_4, # of connection points: 2
#     Edge 37, Type (0, 0), BuildingBlock: EYOCIG_clean_linker_4, # of connection points: 2
#     Edge 38, Type (0, 0), BuildingBlock: EYOCIG_clean_linker_4, # of connection points: 2
#     Edge 39, Type (0, 0), BuildingBlock: EYOCIG_clean_linker_4, # of connection points: 2
#     Edge 40, Type (0, 0), BuildingBlock: EYOCIG_clean_linker_4, # of connection points: 2
#     Edge 41, Type (0, 0), BuildingBlock: EYOCIG_clean_linker_4, # of connection points: 2
#     Edge 42, Type (0, 0), BuildingBlock: EYOCIG_clean_linker_4, # of connection points: 2
#     Edge 43, Type (0, 0), BuildingBlock: EYOCIG_clean_linker_4, # of connection points: 2
#     Edge 44, Type (0, 0), BuildingBlock: EYOCIG_clean_linker_4, # of connection points: 2
#     Edge 45, Type (0, 0), BuildingBlock: EYOCIG_clean_linker_4, # of connection points: 2
#     Edge 46, Type (0, 0), BuildingBlock: EYOCIG_clean_linker_4, # of connection points: 2
#     Edge 47, Type (0, 0), BuildingBlock: EYOCIG_clean_linker_4, # of connection points: 2
# Relax obj value: 0.214
# Max RMSD: 0.063
# Mean RMSD: 0.063
data_MOF--net-upb--node1-CEKHIL_clean_sbu_0--edge1-EYOCIG_clean_linker_4
_symmetry_space_group_name_H-M    P1
_symmetry_Int_Tables_number       1
_symmetry_cell_setting            triclinic
loop_
_symmetry_equiv_pos_as_xyz
'x, y, z'
_cell_length_a     34.985766
_cell_length_b     34.984651
_cell_length_c     25.327413
_cell_angle_alpha  90.000591
_cell_angle_beta   89.992972
_cell_angle_gamma 89.999773
loop_
_atom_site_label
_atom_site_type_symbol
_atom_site_fract_x
_atom_site_fract_y
_atom_site_fract_z
_atom_type_partial_charge
Co0 Co 0.04904 0.23789 0.29118 0.0
O1 O 0.09297 0.26769 0.30849 0.0
O2 O 0.05696 0.27558 0.23675 0.0
C3 C 0.02447 0.24171 0.37254 0.0
O4 O 1.00054 0.21386 0.26166 0.0
Co5 Co 0.03326 0.16102 0.34819 0.0
O6 O 0.98277 0.16476 0.31363 0.0
C7 C 0.09442 0.16685 0.26817 0.0
C8 C 0.08557 0.28657 0.26577 0.0
C9 C 0.97682 0.18776 0.27564 0.0
O10 O 0.08256 0.19989 0.25334 0.0
O11 O 0.08075 0.1485 0.30753 0.0
O12 O 0.01828 0.26893 0.33884 0.0
O13 O 0.04638 0.21425 0.35736 0.0
Co14 Co 0.76566 0.04917 0.29163 0.0
O15 O 0.73589 0.09314 0.3089 0.0
O16 O 0.72793 0.05705 0.23724 0.0
C17 C 0.76188 0.02468 0.37304 0.0
O18 O 0.78966 1.00063 0.26216 0.0
Co19 Co 0.84256 0.03344 0.34855 0.0
O20 O 0.83879 0.98291 0.31408 0.0
C21 C 0.8367 0.09449 0.26839 0.0
C22 C 0.71698 0.0857 0.26623 0.0
C23 C 0.81576 0.97692 0.27614 0.0
O24 O 0.80365 0.08264 0.25366 0.0
O25 O 0.85509 0.08087 0.30774 0.0
O26 O 0.73464 0.01847 0.33938 0.0
O27 O 0.78935 0.04658 0.35778 0.0
Co28 Co 0.95436 0.76565 0.29156 0.0
O29 O 0.91043 0.73582 0.3088 0.0
O30 O 0.94648 0.72799 0.23708 0.0
C31 C 0.97889 0.76177 0.37293 0.0
O32 O 0.00287 0.78971 0.26209 0.0
Co33 Co 0.97011 0.84247 0.34868 0.0
O34 O 0.02061 0.8388 0.3141 0.0
C35 C 0.90899 0.8367 0.26862 0.0
C36 C 0.91786 0.71698 0.26606 0.0
C37 C 0.02657 0.81582 0.27608 0.0
O38 O 0.92085 0.80367 0.25375 0.0
O39 O 0.92264 0.85503 0.308 0.0
O40 O 0.98511 0.73458 0.33919 0.0
O41 O 0.95698 0.78924 0.35777 0.0
Co42 Co 0.23779 0.95445 0.29135 0.0
O43 O 0.26755 0.91048 0.30858 0.0
O44 O 0.27547 0.94655 0.2369 0.0
C45 C 0.24164 0.97893 0.37276 0.0
O46 O 0.2138 0.003 0.26191 0.0
Co47 Co 0.16095 0.97027 0.3484 0.0
O48 O 0.16471 0.02078 0.31388 0.0
C49 C 0.16671 0.90916 0.26832 0.0
C50 C 0.28643 0.9179 0.26587 0.0
C51 C 0.18772 0.02673 0.27589 0.0
O52 O 0.19975 0.92099 0.25348 0.0
O53 O 0.14838 0.92281 0.3077 0.0
O54 O 0.26886 0.98514 0.33906 0.0
O55 O 0.21415 0.95706 0.35754 0.0
Co56 Co 0.04885 0.76548 0.7089 0.0
O57 O 0.09278 0.73571 0.69154 0.0
O58 O 0.05674 0.72772 0.76324 0.0
C59 C 0.02432 0.76175 0.62751 0.0
O60 O 1.00034 0.78948 0.73846 0.0
Co61 Co 0.03309 0.84241 0.65207 0.0
O62 O 0.98259 0.83864 0.68659 0.0
C63 C 0.09422 0.8365 0.7321 0.0
C64 C 0.08536 0.71676 0.73419 0.0
C65 C 0.97662 0.8156 0.72453 0.0
O66 O 0.08236 0.80344 0.74685 0.0
O67 O 0.08056 0.8549 0.69278 0.0
O68 O 0.01811 0.7345 0.66116 0.0
O69 O 0.04623 0.7892 0.64276 0.0
Co70 Co 0.23757 0.0488 0.70873 0.0
O71 O 0.2673 0.09275 0.69132 0.0
O72 O 0.27528 0.0568 0.7631 0.0
C73 C 0.2414 0.0242 0.62739 0.0
O74 O 0.2136 1.00029 0.73835 0.0
Co75 Co 0.16071 0.0329 0.65184 0.0
O76 O 0.16449 0.98244 0.68647 0.0
C77 C 0.1665 0.09413 0.73173 0.0
C78 C 0.28622 0.0854 0.73402 0.0
C79 C 0.18752 0.97654 0.72445 0.0
O80 O 0.19955 0.08231 0.74656 0.0
O81 O 0.14815 0.08042 0.69241 0.0
O82 O 0.26862 0.01804 0.6611 0.0
O83 O 0.21391 0.04608 0.64257 0.0
Co84 Co 0.95423 0.23774 0.70843 0.0
O85 O 0.91029 0.26753 0.69115 0.0
O86 O 0.94634 0.27545 0.76285 0.0
C87 C 0.97876 0.24156 0.62704 0.0
O88 O 0.00274 0.21372 0.73792 0.0
Co89 Co 0.96998 0.16087 0.65144 0.0
O90 O 0.02048 0.16459 0.68598 0.0
C91 C 0.9089 0.16669 0.73156 0.0
C92 C 0.91771 0.28643 0.73385 0.0
C93 C 0.02645 0.1876 0.72395 0.0
O94 O 0.92073 0.19974 0.74633 0.0
O95 O 0.92254 0.14832 0.6922 0.0
O96 O 0.98496 0.26878 0.66074 0.0
O97 O 0.95685 0.21409 0.64225 0.0
Co98 Co 0.76553 0.95428 0.70887 0.0
O99 O 0.73573 0.91035 0.69156 0.0
O100 O 0.7278 0.9464 0.76326 0.0
C101 C 0.76177 0.97882 0.62749 0.0
O102 O 0.78956 0.00279 0.73837 0.0
Co103 Co 0.84244 0.96999 0.65193 0.0
O104 O 0.83869 0.02051 0.68642 0.0
C105 C 0.83654 0.90889 0.73201 0.0
C106 C 0.71682 0.91777 0.73425 0.0
C107 C 0.81567 0.02649 0.72439 0.0
O108 O 0.8035 0.92076 0.74678 0.0
O109 O 0.85493 0.92252 0.69266 0.0
O110 O 0.73453 0.98503 0.66116 0.0
O111 O 0.78922 0.9569 0.64271 0.0
Co112 Co 0.54885 0.73773 0.79112 0.0
O113 O 0.59282 0.76747 0.80843 0.0
O114 O 0.55677 0.77546 0.73674 0.0
C115 C 0.52433 0.74153 0.87253 0.0
O116 O 0.50032 0.71376 0.76161 0.0
Co117 Co 0.53302 0.66084 0.84804 0.0
O118 O 0.48253 0.66463 0.8135 0.0
C119 C 0.59414 0.66665 0.76795 0.0
C120 C 0.58541 0.7864 0.76575 0.0
C121 C 0.47658 0.68766 0.77555 0.0
O122 O 0.58232 0.69972 0.75319 0.0
O123 O 0.58047 0.64828 0.80729 0.0
O124 O 0.51814 0.76876 0.83885 0.0
O125 O 0.54621 0.71404 0.85729 0.0
Co126 Co 0.26548 0.549 0.79108 0.0
O127 O 0.23563 0.59293 0.80823 0.0
O128 O 0.2278 0.55679 0.7366 0.0
C129 C 0.26162 0.52457 0.87252 0.0
O130 O 0.28958 0.50048 0.76172 0.0
Co131 Co 0.34231 0.53339 0.84821 0.0
O132 O 0.33867 0.48284 0.81378 0.0
C133 C 0.33648 0.59441 0.768 0.0
C134 C 0.21677 0.58543 0.76553 0.0
C135 C 0.3157 0.47681 0.77578 0.0
O136 O 0.30347 0.58251 0.75318 0.0
O137 O 0.35482 0.58083 0.80742 0.0
O138 O 0.23444 0.51829 0.83879 0.0
O139 O 0.28908 0.54649 0.8573 0.0
Co140 Co 0.45428 0.26533 0.79097 0.0
O141 O 0.4103 0.23557 0.80818 0.0
O142 O 0.4463 0.22776 0.7364 0.0
C143 C 0.47883 0.26129 0.87231 0.0
O144 O 0.50281 0.28936 0.76154 0.0
Co145 Co 0.47015 0.34205 0.8483 0.0
O146 O 0.52063 0.33833 0.8137 0.0
C147 C 0.40901 0.33649 0.76824 0.0
C148 C 0.41767 0.21676 0.76539 0.0
C149 C 0.52656 0.31541 0.77561 0.0
O150 O 0.42081 0.30347 0.75329 0.0
O151 O 0.42269 0.35475 0.80766 0.0
O152 O 0.48499 0.23414 0.83849 0.0
O153 O 0.45696 0.28883 0.85725 0.0
Co154 Co 0.73764 0.45433 0.79086 0.0
O155 O 0.76746 0.41042 0.80818 0.0
O156 O 0.7753 0.4464 0.73639 0.0
C157 C 0.7415 0.47895 0.87219 0.0
O158 O 0.71356 0.5028 0.76133 0.0
Co159 Co 0.6608 0.47008 0.84796 0.0
O160 O 0.66449 0.52056 0.81337 0.0
C161 C 0.6666 0.4089 0.76797 0.0
C162 C 0.78632 0.41781 0.76543 0.0
C163 C 0.68746 0.52652 0.77533 0.0
O164 O 0.69963 0.42076 0.7531 0.0
O165 O 0.64826 0.42257 0.80734 0.0
O166 O 0.76869 0.48513 0.83843 0.0
O167 O 0.71404 0.457 0.85708 0.0
Co168 Co 0.54895 0.26549 0.20813 0.0
O169 O 0.59293 0.23568 0.19108 0.0
O170 O 0.55688 0.22802 0.26284 0.0
C171 C 0.52444 0.26134 0.12678 0.0
O172 O 0.50042 0.2896 0.23743 0.0
Co173 Co 0.53314 0.34213 0.15055 0.0
O174 O 0.48264 0.33851 0.18514 0.0
C175 C 0.59423 0.33668 0.23069 0.0
C176 C 0.58552 0.21695 0.23393 0.0
C177 C 0.47669 0.31564 0.22328 0.0
O178 O 0.58241 0.30368 0.24573 0.0
O179 O 0.58057 0.35488 0.19119 0.0
O180 O 0.51825 0.23424 0.16067 0.0
O181 O 0.54632 0.28888 0.14178 0.0
Co182 Co 0.73782 0.54924 0.20807 0.0
O183 O 0.7677 0.59317 0.191 0.0
O184 O 0.77547 0.55697 0.26259 0.0
C185 C 0.74168 0.52484 0.12662 0.0
O186 O 0.71368 0.50071 0.23734 0.0
Co187 Co 0.66098 0.53372 0.15087 0.0
O188 O 0.66459 0.48315 0.18524 0.0
C189 C 0.66682 0.59465 0.2312 0.0
C190 C 0.78652 0.58564 0.23372 0.0
C191 C 0.68755 0.47707 0.22324 0.0
O192 O 0.69983 0.58273 0.246 0.0
O193 O 0.64847 0.58111 0.19176 0.0
O194 O 0.76886 0.51854 0.16033 0.0
O195 O 0.71423 0.54677 0.14185 0.0
Co196 Co 0.45439 0.73788 0.20853 0.0
O197 O 0.41042 0.76764 0.19127 0.0
O198 O 0.44649 0.7756 0.26293 0.0
C199 C 0.47888 0.74167 0.12712 0.0
O200 O 0.50292 0.7139 0.238 0.0
Co201 Co 0.47016 0.66099 0.1516 0.0
O202 O 0.52067 0.66476 0.18608 0.0
C203 C 0.40906 0.66683 0.23169 0.0
C204 C 0.41784 0.78655 0.23395 0.0
C205 C 0.52664 0.6878 0.22403 0.0
O206 O 0.42091 0.69988 0.24648 0.0
O207 O 0.4227 0.64846 0.19234 0.0
O208 O 0.48508 0.76891 0.16078 0.0
O209 O 0.45699 0.71419 0.14237 0.0
Co210 Co 0.26552 0.45459 0.20843 0.0
O211 O 0.23572 0.41066 0.19113 0.0
O212 O 0.2279 0.44662 0.26294 0.0
C213 C 0.26158 0.47921 0.12711 0.0
O214 O 0.28956 0.50308 0.23796 0.0
Co215 Co 0.3423 0.47045 0.15125 0.0
O216 O 0.3386 0.52091 0.18593 0.0
C217 C 0.3366 0.40923 0.23117 0.0
C218 C 0.2169 0.41801 0.23391 0.0
C219 C 0.31564 0.52682 0.22398 0.0
O220 O 0.30359 0.42106 0.24612 0.0
O221 O 0.3549 0.42293 0.19179 0.0
O222 O 0.2344 0.48537 0.16089 0.0
O223 O 0.28908 0.4573 0.14219 0.0
C224 C 0.149 0.12546 0.22909 0.0
C225 C 0.12515 0.14877 0.24055 0.0
C226 C 0.17115 0.092 0.23202 0.0
C227 C 0.18282 0.06153 0.24698 0.0
C228 C 0.91154 0.17116 0.23185 0.0
C229 C 0.94201 0.18285 0.24675 0.0
C230 C 0.87808 0.149 0.22906 0.0
C231 C 0.85478 0.12517 0.24065 0.0
C232 C 0.83232 0.91161 0.23238 0.0
C233 C 0.82065 0.94209 0.24728 0.0
C234 C 0.85446 0.87813 0.2295 0.0
C235 C 0.87829 0.85482 0.24098 0.0
C236 C 0.09181 0.83246 0.23218 0.0
C237 C 0.06136 0.82077 0.24716 0.0
C238 C 0.12528 0.85462 0.22923 0.0
C239 C 0.1486 0.87845 0.24069 0.0
C240 C 0.14879 0.87784 0.77129 0.0
C241 C 0.12494 0.85455 0.75977 0.0
C242 C 0.17096 0.9113 0.76839 0.0
C243 C 0.18264 0.94175 0.75342 0.0
C244 C 0.12513 0.14876 0.77075 0.0
C245 C 0.14842 0.12489 0.7593 0.0
C246 C 0.09169 0.17095 0.76782 0.0
C247 C 0.06124 0.18267 0.75287 0.0
C248 C 0.8544 0.12529 0.77086 0.0
C249 C 0.87822 0.14859 0.75928 0.0
C250 C 0.83225 0.09181 0.76809 0.0
C251 C 0.82057 0.06133 0.75323 0.0
C252 C 0.87788 0.85432 0.77123 0.0
C253 C 0.85459 0.87817 0.7597 0.0
C254 C 0.91134 0.83216 0.76837 0.0
C255 C 0.94181 0.82048 0.75343 0.0
C256 C 0.64865 0.62525 0.72869 0.0
C257 C 0.62482 0.64855 0.74025 0.0
C258 C 0.67081 0.59178 0.73151 0.0
C259 C 0.68252 0.56132 0.74643 0.0
C260 C 0.41132 0.67111 0.73168 0.0
C261 C 0.44178 0.68278 0.74663 0.0
C262 C 0.37785 0.64896 0.72879 0.0
C263 C 0.35456 0.62511 0.7403 0.0
C264 C 0.33237 0.41151 0.73207 0.0
C265 C 0.32067 0.44198 0.74696 0.0
C266 C 0.35451 0.37803 0.72919 0.0
C267 C 0.37833 0.35469 0.74066 0.0
C268 C 0.62524 0.35429 0.72889 0.0
C269 C 0.64852 0.37816 0.74037 0.0
C270 C 0.5918 0.33209 0.73176 0.0
C271 C 0.56135 0.32037 0.74668 0.0
C272 C 0.67083 0.41174 0.26686 0.0
C273 C 0.68255 0.44222 0.25201 0.0
C274 C 0.64869 0.37827 0.26972 0.0
C275 C 0.62489 0.35491 0.25827 0.0
C276 C 0.59195 0.67126 0.26778 0.0
C277 C 0.56147 0.68293 0.25289 0.0
C278 C 0.62544 0.64913 0.27058 0.0
C279 C 0.64874 0.62531 0.25898 0.0
C280 C 0.35449 0.62547 0.27087 0.0
C281 C 0.37834 0.64877 0.25937 0.0
C282 C 0.33231 0.59203 0.26795 0.0
C283 C 0.32059 0.56159 0.25297 0.0
C284 C 0.37803 0.35461 0.2701 0.0
C285 C 0.35473 0.37848 0.2587 0.0
C286 C 0.41146 0.33241 0.26714 0.0
C287 C 0.44191 0.32067 0.2522 0.0
C288 C 0.12938 0.34585 0.25008 0.0
C289 C 0.1077 0.31945 0.25338 0.0
C290 C 0.15766 0.37416 0.24967 0.0
C291 C 0.18404 0.39586 0.24635 0.0
C292 C 0.65769 0.12949 0.25052 0.0
C293 C 0.68409 0.10782 0.25385 0.0
C294 C 0.62937 0.15777 0.25001 0.0
C295 C 0.60766 0.18413 0.24656 0.0
C296 C 0.84581 0.62937 0.24971 0.0
C297 C 0.81941 0.60771 0.24629 0.0
C298 C 0.8741 0.65768 0.25023 0.0
C299 C 0.89576 0.68409 0.2536 0.0
C300 C 0.34571 0.8741 0.25011 0.0
C301 C 0.31931 0.89578 0.25344 0.0
C302 C 0.37402 0.84581 0.24967 0.0
C303 C 0.39571 0.81942 0.24635 0.0
C304 C 0.15741 0.62912 0.74987 0.0
C305 C 0.18384 0.60747 0.75311 0.0
C306 C 0.12911 0.65741 0.74962 0.0
C307 C 0.10744 0.68383 0.74646 0.0
C308 C 0.37382 0.15752 0.7497 0.0
C309 C 0.39554 0.18389 0.75295 0.0
C310 C 0.34552 0.12923 0.74944 0.0
C311 C 0.31912 0.10754 0.74628 0.0
C312 C 0.87392 0.34573 0.74946 0.0
C313 C 0.8956 0.31933 0.74622 0.0
C314 C 0.84562 0.37402 0.74979 0.0
C315 C 0.81921 0.3957 0.75304 0.0
C316 C 0.65752 0.87399 0.74985 0.0
C317 C 0.68392 0.89567 0.74661 0.0
C318 C 0.62922 0.84569 0.75018 0.0
C319 C 0.60753 0.81929 0.75342 0.0
C320 C 0.00538 0.24551 0.47258 0.0
C321 C 0.01344 0.24497 0.42653 0.0
C322 C 0.99775 0.24546 0.52697 0.0
C323 C 0.98972 0.24484 0.57303 0.0
C324 C 0.75803 0.99795 0.52747 0.0
C325 C 0.75857 0.98986 0.5735 0.0
C326 C 0.75807 0.00563 0.47309 0.0
C327 C 0.75865 0.01369 0.42704 0.0
C328 C 0.00542 0.7579 0.52741 0.0
C329 C 0.01341 0.75849 0.57348 0.0
C330 C 0.99786 0.75788 0.473 0.0
C331 C 0.98986 0.75846 0.42694 0.0
C332 C 0.24541 0.00532 0.52729 0.0
C333 C 0.24476 0.01329 0.57336 0.0
C334 C 0.24548 0.99781 0.47287 0.0
C335 C 0.24493 0.98985 0.42679 0.0
C336 C 0.50541 0.74542 0.97262 0.0
C337 C 0.51341 0.74481 0.92655 0.0
C338 C 0.49783 0.74546 0.02703 0.0
C339 C 0.48983 0.74491 0.0731 0.0
C340 C 0.25766 0.50575 0.97264 0.0
C341 C 0.25829 0.5137 0.92656 0.0
C342 C 0.25763 0.49822 0.02706 0.0
C343 C 0.25822 0.49021 0.07312 0.0
C344 C 0.50542 0.25722 0.02675 0.0
C345 C 0.51344 0.25789 0.07281 0.0
C346 C 0.49784 0.25723 0.97235 0.0
C347 C 0.48982 0.25788 0.92629 0.0
C348 C 0.74542 0.49811 0.97219 0.0
C349 C 0.7448 0.49001 0.92616 0.0
C350 C 0.74546 0.50578 0.02657 0.0
C351 C 0.74491 0.51383 0.07262 0.0
loop_
_geom_bond_atom_site_label_1
_geom_bond_atom_site_label_2
_geom_bond_distance
_geom_bond_site_symmetry_2
_ccdc_geom_bond_type
Co0 O1 2.216 . S
Co0 O2 2.091 . S
Co0 O4 2.004 1_455 S
Co0 O10 2.021 . S
Co0 O12 2.137 . S
Co0 O13 2.244 . S
O1 Co0 2.216 . S
O1 C8 1.247 . S
O2 Co0 2.091 . S
O2 C8 1.261 . S
C3 O12 1.247 . S
C3 O13 1.272 . S
O4 Co0 2.004 1_655 S
O4 C9 1.259 . S
Co5 O6 2.061 1_455 S
Co5 O11 2.052 . S
Co5 O13 2.135 . S
O6 Co5 2.061 1_655 S
O6 C9 1.235 . S
C7 O10 1.238 . S
C7 O11 1.241 . S
C8 O1 1.247 . S
C8 O2 1.261 . S
C9 O4 1.259 . S
C9 O6 1.235 . S
O10 Co0 2.021 . S
O10 C7 1.238 . S
O11 Co5 2.052 . S
O11 C7 1.241 . S
O12 Co0 2.137 . S
O12 C3 1.247 . S
O13 Co0 2.244 . S
O13 C3 1.272 . S
O13 Co5 2.135 . S
Co14 O15 2.216 . S
Co14 O16 2.091 . S
Co14 O18 2.004 1_545 S
Co14 O24 2.021 . S
Co14 O26 2.137 . S
Co14 O27 2.244 . S
O15 Co14 2.216 . S
O15 C22 1.247 . S
O16 Co14 2.091 . S
O16 C22 1.261 . S
C17 O26 1.247 . S
C17 O27 1.272 . S
O18 Co14 2.004 1_565 S
O18 C23 1.259 . S
Co19 O20 2.061 1_545 S
Co19 O25 2.052 . S
Co19 O27 2.135 . S
O20 Co19 2.061 1_565 S
O20 C23 1.235 . S
C21 O24 1.238 . S
C21 O25 1.241 . S
C22 O15 1.247 . S
C22 O16 1.261 . S
C23 O18 1.259 . S
C23 O20 1.235 . S
O24 Co14 2.021 . S
O24 C21 1.238 . S
O25 Co19 2.052 . S
O25 C21 1.241 . S
O26 Co14 2.137 . S
O26 C17 1.247 . S
O27 Co14 2.244 . S
O27 C17 1.272 . S
O27 Co19 2.135 . S
Co28 O29 2.216 . S
Co28 O30 2.091 . S
Co28 O32 2.004 1_655 S
Co28 O38 2.021 . S
Co28 O40 2.137 . S
Co28 O41 2.244 . S
O29 Co28 2.216 . S
O29 C36 1.247 . S
O30 Co28 2.091 . S
O30 C36 1.261 . S
C31 O40 1.247 . S
C31 O41 1.272 . S
O32 Co28 2.004 1_455 S
O32 C37 1.259 . S
Co33 O34 2.061 1_655 S
Co33 O39 2.052 . S
Co33 O41 2.135 . S
O34 Co33 2.061 1_455 S
O34 C37 1.235 . S
C35 O38 1.238 . S
C35 O39 1.241 . S
C36 O29 1.247 . S
C36 O30 1.261 . S
C37 O32 1.259 . S
C37 O34 1.235 . S
O38 Co28 2.021 . S
O38 C35 1.238 . S
O39 Co33 2.052 . S
O39 C35 1.241 . S
O40 Co28 2.137 . S
O40 C31 1.247 . S
O41 Co28 2.244 . S
O41 C31 1.272 . S
O41 Co33 2.135 . S
Co42 O43 2.216 . S
Co42 O44 2.091 . S
Co42 O46 2.004 1_565 S
Co42 O52 2.021 . S
Co42 O54 2.137 . S
Co42 O55 2.244 . S
O43 Co42 2.216 . S
O43 C50 1.247 . S
O44 Co42 2.091 . S
O44 C50 1.261 . S
C45 O54 1.247 . S
C45 O55 1.272 . S
O46 Co42 2.004 1_545 S
O46 C51 1.259 . S
Co47 O48 2.061 1_565 S
Co47 O53 2.052 . S
Co47 O55 2.135 . S
O48 Co47 2.061 1_545 S
O48 C51 1.235 . S
C49 O52 1.238 . S
C49 O53 1.241 . S
C50 O43 1.247 . S
C50 O44 1.261 . S
C51 O46 1.259 . S
C51 O48 1.235 . S
O52 Co42 2.021 . S
O52 C49 1.238 . S
O53 Co47 2.052 . S
O53 C49 1.241 . S
O54 Co42 2.137 . S
O54 C45 1.247 . S
O55 Co42 2.244 . S
O55 C45 1.272 . S
O55 Co47 2.135 . S
Co56 O57 2.216 . S
Co56 O58 2.091 . S
Co56 O60 2.004 1_455 S
Co56 O66 2.021 . S
Co56 O68 2.137 . S
Co56 O69 2.244 . S
O57 Co56 2.216 . S
O57 C64 1.247 . S
O58 Co56 2.091 . S
O58 C64 1.261 . S
C59 O68 1.247 . S
C59 O69 1.272 . S
O60 Co56 2.004 1_655 S
O60 C65 1.259 . S
Co61 O62 2.061 1_455 S
Co61 O67 2.052 . S
Co61 O69 2.135 . S
O62 Co61 2.061 1_655 S
O62 C65 1.235 . S
C63 O66 1.238 . S
C63 O67 1.241 . S
C64 O57 1.247 . S
C64 O58 1.261 . S
C65 O60 1.259 . S
C65 O62 1.235 . S
O66 Co56 2.021 . S
O66 C63 1.238 . S
O67 Co61 2.052 . S
O67 C63 1.241 . S
O68 Co56 2.137 . S
O68 C59 1.247 . S
O69 Co56 2.244 . S
O69 C59 1.272 . S
O69 Co61 2.135 . S
Co70 O71 2.216 . S
Co70 O72 2.091 . S
Co70 O74 2.004 1_545 S
Co70 O80 2.021 . S
Co70 O82 2.137 . S
Co70 O83 2.244 . S
O71 Co70 2.216 . S
O71 C78 1.247 . S
O72 Co70 2.091 . S
O72 C78 1.261 . S
C73 O82 1.247 . S
C73 O83 1.272 . S
O74 Co70 2.004 1_565 S
O74 C79 1.259 . S
Co75 O76 2.061 1_545 S
Co75 O81 2.052 . S
Co75 O83 2.135 . S
O76 Co75 2.061 1_565 S
O76 C79 1.235 . S
C77 O80 1.238 . S
C77 O81 1.241 . S
C78 O71 1.247 . S
C78 O72 1.261 . S
C79 O74 1.259 . S
C79 O76 1.235 . S
O80 Co70 2.021 . S
O80 C77 1.238 . S
O81 Co75 2.052 . S
O81 C77 1.241 . S
O82 Co70 2.137 . S
O82 C73 1.247 . S
O83 Co70 2.244 . S
O83 C73 1.272 . S
O83 Co75 2.135 . S
Co84 O85 2.216 . S
Co84 O86 2.091 . S
Co84 O88 2.004 1_655 S
Co84 O94 2.021 . S
Co84 O96 2.137 . S
Co84 O97 2.244 . S
O85 Co84 2.216 . S
O85 C92 1.247 . S
O86 Co84 2.091 . S
O86 C92 1.261 . S
C87 O96 1.247 . S
C87 O97 1.272 . S
O88 Co84 2.004 1_455 S
O88 C93 1.259 . S
Co89 O90 2.061 1_655 S
Co89 O95 2.052 . S
Co89 O97 2.135 . S
O90 Co89 2.061 1_455 S
O90 C93 1.235 . S
C91 O94 1.238 . S
C91 O95 1.241 . S
C92 O85 1.247 . S
C92 O86 1.261 . S
C93 O88 1.259 . S
C93 O90 1.235 . S
O94 Co84 2.021 . S
O94 C91 1.238 . S
O95 Co89 2.052 . S
O95 C91 1.241 . S
O96 Co84 2.137 . S
O96 C87 1.247 . S
O97 Co84 2.244 . S
O97 C87 1.272 . S
O97 Co89 2.135 . S
Co98 O99 2.216 . S
Co98 O100 2.091 . S
Co98 O102 2.004 1_565 S
Co98 O108 2.021 . S
Co98 O110 2.137 . S
Co98 O111 2.244 . S
O99 Co98 2.216 . S
O99 C106 1.247 . S
O100 Co98 2.091 . S
O100 C106 1.261 . S
C101 O110 1.247 . S
C101 O111 1.272 . S
O102 Co98 2.004 1_545 S
O102 C107 1.259 . S
Co103 O104 2.061 1_565 S
Co103 O109 2.052 . S
Co103 O111 2.135 . S
O104 Co103 2.061 1_545 S
O104 C107 1.235 . S
C105 O108 1.238 . S
C105 O109 1.241 . S
C106 O99 1.247 . S
C106 O100 1.261 . S
C107 O102 1.259 . S
C107 O104 1.235 . S
O108 Co98 2.021 . S
O108 C105 1.238 . S
O109 Co103 2.052 . S
O109 C105 1.241 . S
O110 Co98 2.137 . S
O110 C101 1.247 . S
O111 Co98 2.244 . S
O111 C101 1.272 . S
O111 Co103 2.135 . S
Co112 O113 2.216 . S
Co112 O114 2.091 . S
Co112 O116 2.004 . S
Co112 O122 2.021 . S
Co112 O124 2.137 . S
Co112 O125 2.244 . S
O113 Co112 2.216 . S
O113 C120 1.247 . S
O114 Co112 2.091 . S
O114 C120 1.261 . S
C115 O124 1.247 . S
C115 O125 1.272 . S
O116 Co112 2.004 . S
O116 C121 1.259 . S
Co117 O118 2.061 . S
Co117 O123 2.052 . S
Co117 O125 2.135 . S
O118 Co117 2.061 . S
O118 C121 1.235 . S
C119 O122 1.238 . S
C119 O123 1.241 . S
C120 O113 1.247 . S
C120 O114 1.261 . S
C121 O116 1.259 . S
C121 O118 1.235 . S
O122 Co112 2.021 . S
O122 C119 1.238 . S
O123 Co117 2.052 . S
O123 C119 1.241 . S
O124 Co112 2.137 . S
O124 C115 1.247 . S
O125 Co112 2.244 . S
O125 C115 1.272 . S
O125 Co117 2.135 . S
Co126 O127 2.216 . S
Co126 O128 2.091 . S
Co126 O130 2.004 . S
Co126 O136 2.021 . S
Co126 O138 2.137 . S
Co126 O139 2.244 . S
O127 Co126 2.216 . S
O127 C134 1.247 . S
O128 Co126 2.091 . S
O128 C134 1.261 . S
C129 O138 1.247 . S
C129 O139 1.272 . S
O130 Co126 2.004 . S
O130 C135 1.259 . S
Co131 O132 2.061 . S
Co131 O137 2.052 . S
Co131 O139 2.135 . S
O132 Co131 2.061 . S
O132 C135 1.235 . S
C133 O136 1.238 . S
C133 O137 1.241 . S
C134 O127 1.247 . S
C134 O128 1.261 . S
C135 O130 1.259 . S
C135 O132 1.235 . S
O136 Co126 2.021 . S
O136 C133 1.238 . S
O137 Co131 2.052 . S
O137 C133 1.241 . S
O138 Co126 2.137 . S
O138 C129 1.247 . S
O139 Co126 2.244 . S
O139 C129 1.272 . S
O139 Co131 2.135 . S
Co140 O141 2.216 . S
Co140 O142 2.091 . S
Co140 O144 2.004 . S
Co140 O150 2.021 . S
Co140 O152 2.137 . S
Co140 O153 2.244 . S
O141 Co140 2.216 . S
O141 C148 1.247 . S
O142 Co140 2.091 . S
O142 C148 1.261 . S
C143 O152 1.247 . S
C143 O153 1.272 . S
O144 Co140 2.004 . S
O144 C149 1.259 . S
Co145 O146 2.061 . S
Co145 O151 2.052 . S
Co145 O153 2.135 . S
O146 Co145 2.061 . S
O146 C149 1.235 . S
C147 O150 1.238 . S
C147 O151 1.241 . S
C148 O141 1.247 . S
C148 O142 1.261 . S
C149 O144 1.259 . S
C149 O146 1.235 . S
O150 Co140 2.021 . S
O150 C147 1.238 . S
O151 Co145 2.052 . S
O151 C147 1.241 . S
O152 Co140 2.137 . S
O152 C143 1.247 . S
O153 Co140 2.244 . S
O153 C143 1.272 . S
O153 Co145 2.135 . S
Co154 O155 2.216 . S
Co154 O156 2.091 . S
Co154 O158 2.004 . S
Co154 O164 2.021 . S
Co154 O166 2.137 . S
Co154 O167 2.244 . S
O155 Co154 2.216 . S
O155 C162 1.247 . S
O156 Co154 2.091 . S
O156 C162 1.261 . S
C157 O166 1.247 . S
C157 O167 1.272 . S
O158 Co154 2.004 . S
O158 C163 1.259 . S
Co159 O160 2.061 . S
Co159 O165 2.052 . S
Co159 O167 2.135 . S
O160 Co159 2.061 . S
O160 C163 1.235 . S
C161 O164 1.238 . S
C161 O165 1.241 . S
C162 O155 1.247 . S
C162 O156 1.261 . S
C163 O158 1.259 . S
C163 O160 1.235 . S
O164 Co154 2.021 . S
O164 C161 1.238 . S
O165 Co159 2.052 . S
O165 C161 1.241 . S
O166 Co154 2.137 . S
O166 C157 1.247 . S
O167 Co154 2.244 . S
O167 C157 1.272 . S
O167 Co159 2.135 . S
Co168 O169 2.216 . S
Co168 O170 2.091 . S
Co168 O172 2.004 . S
Co168 O178 2.021 . S
Co168 O180 2.137 . S
Co168 O181 2.244 . S
O169 Co168 2.216 . S
O169 C176 1.247 . S
O170 Co168 2.091 . S
O170 C176 1.261 . S
C171 O180 1.247 . S
C171 O181 1.272 . S
O172 Co168 2.004 . S
O172 C177 1.259 . S
Co173 O174 2.061 . S
Co173 O179 2.052 . S
Co173 O181 2.135 . S
O174 Co173 2.061 . S
O174 C177 1.235 . S
C175 O178 1.238 . S
C175 O179 1.241 . S
C176 O169 1.247 . S
C176 O170 1.261 . S
C177 O172 1.259 . S
C177 O174 1.235 . S
O178 Co168 2.021 . S
O178 C175 1.238 . S
O179 Co173 2.052 . S
O179 C175 1.241 . S
O180 Co168 2.137 . S
O180 C171 1.247 . S
O181 Co168 2.244 . S
O181 C171 1.272 . S
O181 Co173 2.135 . S
Co182 O183 2.216 . S
Co182 O184 2.091 . S
Co182 O186 2.004 . S
Co182 O192 2.021 . S
Co182 O194 2.137 . S
Co182 O195 2.244 . S
O183 Co182 2.216 . S
O183 C190 1.247 . S
O184 Co182 2.091 . S
O184 C190 1.261 . S
C185 O194 1.247 . S
C185 O195 1.272 . S
O186 Co182 2.004 . S
O186 C191 1.259 . S
Co187 O188 2.061 . S
Co187 O193 2.052 . S
Co187 O195 2.135 . S
O188 Co187 2.061 . S
O188 C191 1.235 . S
C189 O192 1.238 . S
C189 O193 1.241 . S
C190 O183 1.247 . S
C190 O184 1.261 . S
C191 O186 1.259 . S
C191 O188 1.235 . S
O192 Co182 2.021 . S
O192 C189 1.238 . S
O193 Co187 2.052 . S
O193 C189 1.241 . S
O194 Co182 2.137 . S
O194 C185 1.247 . S
O195 Co182 2.244 . S
O195 C185 1.272 . S
O195 Co187 2.135 . S
Co196 O197 2.216 . S
Co196 O198 2.091 . S
Co196 O200 2.004 . S
Co196 O206 2.021 . S
Co196 O208 2.137 . S
Co196 O209 2.244 . S
O197 Co196 2.216 . S
O197 C204 1.247 . S
O198 Co196 2.091 . S
O198 C204 1.261 . S
C199 O208 1.247 . S
C199 O209 1.272 . S
O200 Co196 2.004 . S
O200 C205 1.259 . S
Co201 O202 2.061 . S
Co201 O207 2.052 . S
Co201 O209 2.135 . S
O202 Co201 2.061 . S
O202 C205 1.235 . S
C203 O206 1.238 . S
C203 O207 1.241 . S
C204 O197 1.247 . S
C204 O198 1.261 . S
C205 O200 1.259 . S
C205 O202 1.235 . S
O206 Co196 2.021 . S
O206 C203 1.238 . S
O207 Co201 2.052 . S
O207 C203 1.241 . S
O208 Co196 2.137 . S
O208 C199 1.247 . S
O209 Co196 2.244 . S
O209 C199 1.272 . S
O209 Co201 2.135 . S
Co210 O211 2.216 . S
Co210 O212 2.091 . S
Co210 O214 2.004 . S
Co210 O220 2.021 . S
Co210 O222 2.137 . S
Co210 O223 2.244 . S
O211 Co210 2.216 . S
O211 C218 1.247 . S
O212 Co210 2.091 . S
O212 C218 1.261 . S
C213 O222 1.247 . S
C213 O223 1.272 . S
O214 Co210 2.004 . S
O214 C219 1.259 . S
Co215 O216 2.061 . S
Co215 O221 2.052 . S
Co215 O223 2.135 . S
O216 Co215 2.061 . S
O216 C219 1.235 . S
C217 O220 1.238 . S
C217 O221 1.241 . S
C218 O211 1.247 . S
C218 O212 1.261 . S
C219 O214 1.259 . S
C219 O216 1.235 . S
O220 Co210 2.021 . S
O220 C217 1.238 . S
O221 Co215 2.052 . S
O221 C217 1.241 . S
O222 Co210 2.137 . S
O222 C213 1.247 . S
O223 Co210 2.244 . S
O223 C213 1.272 . S
O223 Co215 2.135 . S
C224 C225 1.170 . S
C224 C226 1.380 . S
C225 C224 1.170 . S
C226 C224 1.380 . S
C226 C227 1.170 . S
C227 C226 1.170 . S
C228 C229 1.170 . S
C228 C230 1.380 . S
C229 C228 1.170 . S
C230 C228 1.380 . S
C230 C231 1.170 . S
C231 C230 1.170 . S
C232 C233 1.170 . S
C232 C234 1.380 . S
C233 C232 1.170 . S
C234 C232 1.380 . S
C234 C235 1.170 . S
C235 C234 1.170 . S
C236 C237 1.170 . S
C236 C238 1.380 . S
C237 C236 1.170 . S
C238 C236 1.380 . S
C238 C239 1.170 . S
C239 C238 1.170 . S
C240 C241 1.170 . S
C240 C242 1.380 . S
C241 C240 1.170 . S
C242 C240 1.380 . S
C242 C243 1.170 . S
C243 C242 1.170 . S
C244 C245 1.170 . S
C244 C246 1.380 . S
C245 C244 1.170 . S
C246 C244 1.380 . S
C246 C247 1.170 . S
C247 C246 1.170 . S
C248 C249 1.170 . S
C248 C250 1.380 . S
C249 C248 1.170 . S
C250 C248 1.380 . S
C250 C251 1.170 . S
C251 C250 1.170 . S
C252 C253 1.170 . S
C252 C254 1.380 . S
C253 C252 1.170 . S
C254 C252 1.380 . S
C254 C255 1.170 . S
C255 C254 1.170 . S
C256 C257 1.170 . S
C256 C258 1.380 . S
C257 C256 1.170 . S
C258 C256 1.380 . S
C258 C259 1.170 . S
C259 C258 1.170 . S
C260 C261 1.170 . S
C260 C262 1.380 . S
C261 C260 1.170 . S
C262 C260 1.380 . S
C262 C263 1.170 . S
C263 C262 1.170 . S
C264 C265 1.170 . S
C264 C266 1.380 . S
C265 C264 1.170 . S
C266 C264 1.380 . S
C266 C267 1.170 . S
C267 C266 1.170 . S
C268 C269 1.170 . S
C268 C270 1.380 . S
C269 C268 1.170 . S
C270 C268 1.380 . S
C270 C271 1.170 . S
C271 C270 1.170 . S
C272 C273 1.170 . S
C272 C274 1.380 . S
C273 C272 1.170 . S
C274 C272 1.380 . S
C274 C275 1.170 . S
C275 C274 1.170 . S
C276 C277 1.170 . S
C276 C278 1.380 . S
C277 C276 1.170 . S
C278 C276 1.380 . S
C278 C279 1.170 . S
C279 C278 1.170 . S
C280 C281 1.170 . S
C280 C282 1.380 . S
C281 C280 1.170 . S
C282 C280 1.380 . S
C282 C283 1.170 . S
C283 C282 1.170 . S
C284 C285 1.170 . S
C284 C286 1.380 . S
C285 C284 1.170 . S
C286 C284 1.380 . S
C286 C287 1.170 . S
C287 C286 1.170 . S
C288 C289 1.170 . S
C288 C290 1.380 . S
C289 C288 1.170 . S
C290 C288 1.380 . S
C290 C291 1.170 . S
C291 C290 1.170 . S
C292 C293 1.170 . S
C292 C294 1.380 . S
C293 C292 1.170 . S
C294 C292 1.380 . S
C294 C295 1.170 . S
C295 C294 1.170 . S
C296 C297 1.170 . S
C296 C298 1.380 . S
C297 C296 1.170 . S
C298 C296 1.380 . S
C298 C299 1.170 . S
C299 C298 1.170 . S
C300 C301 1.170 . S
C300 C302 1.380 . S
C301 C300 1.170 . S
C302 C300 1.380 . S
C302 C303 1.170 . S
C303 C302 1.170 . S
C304 C305 1.170 . S
C304 C306 1.380 . S
C305 C304 1.170 . S
C306 C304 1.380 . S
C306 C307 1.170 . S
C307 C306 1.170 . S
C308 C309 1.170 . S
C308 C310 1.380 . S
C309 C308 1.170 . S
C310 C308 1.380 . S
C310 C311 1.170 . S
C311 C310 1.170 . S
C312 C313 1.170 . S
C312 C314 1.380 . S
C313 C312 1.170 . S
C314 C312 1.380 . S
C314 C315 1.170 . S
C315 C314 1.170 . S
C316 C317 1.170 . S
C316 C318 1.380 . S
C317 C316 1.170 . S
C318 C316 1.380 . S
C318 C319 1.170 . S
C319 C318 1.170 . S
C320 C321 1.170 . S
C320 C322 1.381 . S
C321 C320 1.170 . S
C322 C320 1.381 . S
C322 C323 1.170 1_455 S
C323 C322 1.170 1_655 S
C324 C325 1.170 1_545 S
C324 C326 1.380 . S
C325 C324 1.170 1_565 S
C326 C324 1.380 . S
C326 C327 1.170 . S
C327 C326 1.170 . S
C328 C329 1.170 . S
C328 C330 1.380 . S
C329 C328 1.170 . S
C330 C328 1.380 . S
C330 C331 1.170 1_455 S
C331 C330 1.170 1_655 S
C332 C333 1.170 . S
C332 C334 1.381 . S
C333 C332 1.170 . S
C334 C332 1.381 . S
C334 C335 1.169 1_545 S
C335 C334 1.169 1_565 S
C336 C337 1.170 . S
C336 C338 1.380 1_556 S
C337 C336 1.170 . S
C338 C336 1.380 1_554 S
C338 C339 1.170 . S
C339 C338 1.170 . S
C340 C341 1.170 . S
C340 C342 1.380 1_556 S
C341 C340 1.170 . S
C342 C340 1.380 1_554 S
C342 C343 1.170 . S
C343 C342 1.170 . S
C344 C345 1.170 . S
C344 C346 1.380 1_554 S
C345 C344 1.170 . S
C346 C344 1.380 1_556 S
C346 C347 1.170 . S
C347 C346 1.170 . S
C348 C349 1.170 . S
C348 C350 1.380 1_556 S
C349 C348 1.170 . S
C350 C348 1.380 1_554 S
C350 C351 1.170 . S
C351 C350 1.170 . S
C225 C7 1.471 . S
C227 C51 1.445 . S
C229 C9 1.453 . S
C231 C21 1.499 . S
C233 C23 1.418 . S
C235 C35 1.460 . S
C237 C37 1.422 . S
C239 C49 1.460 . S
C241 C63 1.500 . S
C243 C79 1.456 . S
C245 C77 1.483 . S
C247 C93 1.427 . S
C249 C91 1.483 . S
C251 C107 1.427 . S
C253 C105 1.500 . S
C255 C65 1.458 . S
C257 C119 1.474 . S
C259 C163 1.419 . S
C261 C121 1.445 . S
C263 C133 1.496 . S
C265 C135 1.435 . S
C267 C147 1.489 . S
C269 C161 1.481 . S
C271 C149 1.425 . S
C273 C191 1.414 . S
C275 C175 1.464 . S
C277 C205 1.459 . S
C279 C189 1.501 . S
C281 C203 1.490 . S
C283 C219 1.464 . S
C285 C217 1.460 . S
C287 C177 1.423 . S
C289 C8 1.341 . S
C291 C218 1.369 . S
C293 C22 1.347 . S
C295 C176 1.368 . S
C297 C190 1.347 . S
C299 C36 1.363 . S
C301 C50 1.376 . S
C303 C204 1.336 . S
C305 C134 1.349 . S
C307 C64 1.360 . S
C309 C148 1.345 . S
C311 C78 1.370 . S
C313 C92 1.337 . S
C315 C162 1.374 . S
C317 C106 1.376 . S
C319 C120 1.337 . S
C321 C3 1.633 . S
C323 C87 1.636 . S
C325 C101 1.629 . S
C327 C17 1.624 . S
C329 C59 1.627 . S
C331 C31 1.632 . S
C333 C73 1.622 . S
C335 C45 1.626 . S
C337 C115 1.630 . S
C339 C199 1.635 . S
C341 C129 1.630 . S
C343 C213 1.635 . S
C345 C171 1.635 . S
C347 C143 1.637 . S
C349 C157 1.637 . S
C351 C185 1.635 . S
