# Generated by pormake.
# Topology irl, (4)-cn, num edge types: 1
# Building blocks:
#     Node 0, Type 0, BuildingBlock: QUQFOY_clean_sbu_3, # of connection points: 4
#     Node 1, Type 0, BuildingBlock: QUQFOY_clean_sbu_3, # of connection points: 4
#     Node 2, Type 0, BuildingBlock: QUQFOY_clean_sbu_3, # of connection points: 4
#     Node 3, Type 0, BuildingBlock: QUQFOY_clean_sbu_3, # of connection points: 4
#     Node 4, Type 0, BuildingBlock: QUQFOY_clean_sbu_3, # of connection points: 4
#     Node 5, Type 0, BuildingBlock: QUQFOY_clean_sbu_3, # of connection points: 4
#     Node 6, Type 0, BuildingBlock: QUQFOY_clean_sbu_3, # of connection points: 4
#     Node 7, Type 0, BuildingBlock: QUQFOY_clean_sbu_3, # of connection points: 4
#     Edge 8, Type (0, 0), BuildingBlock: AJUNOK_clean_linker_0, # of connection points: 2
#     Edge 9, Type (0, 0), BuildingBlock: AJUNOK_clean_linker_0, # of connection points: 2
#     Edge 10, Type (0, 0), BuildingBlock: AJUNOK_clean_linker_0, # of connection points: 2
#     Edge 11, Type (0, 0), BuildingBlock: AJUNOK_clean_linker_0, # of connection points: 2
#     Edge 12, Type (0, 0), BuildingBlock: AJUNOK_clean_linker_0, # of connection points: 2
#     Edge 13, Type (0, 0), BuildingBlock: AJUNOK_clean_linker_0, # of connection points: 2
#     Edge 14, Type (0, 0), BuildingBlock: AJUNOK_clean_linker_0, # of connection points: 2
#     Edge 15, Type (0, 0), BuildingBlock: AJUNOK_clean_linker_0, # of connection points: 2
#     Edge 16, Type (0, 0), BuildingBlock: AJUNOK_clean_linker_0, # of connection points: 2
#     Edge 17, Type (0, 0), BuildingBlock: AJUNOK_clean_linker_0, # of connection points: 2
#     Edge 18, Type (0, 0), BuildingBlock: AJUNOK_clean_linker_0, # of connection points: 2
#     Edge 19, Type (0, 0), BuildingBlock: AJUNOK_clean_linker_0, # of connection points: 2
#     Edge 20, Type (0, 0), BuildingBlock: AJUNOK_clean_linker_0, # of connection points: 2
#     Edge 21, Type (0, 0), BuildingBlock: AJUNOK_clean_linker_0, # of connection points: 2
#     Edge 22, Type (0, 0), BuildingBlock: AJUNOK_clean_linker_0, # of connection points: 2
#     Edge 23, Type (0, 0), BuildingBlock: AJUNOK_clean_linker_0, # of connection points: 2
# Relax obj value: 0.061
# Max RMSD: 0.123
# Mean RMSD: 0.123
data_MOF--net-irl--node1-QUQFOY_clean_sbu_3--edge1-AJUNOK_clean_linker_0
_symmetry_space_group_name_H-M    P1
_symmetry_Int_Tables_number       1
_symmetry_cell_setting            triclinic
loop_
_symmetry_equiv_pos_as_xyz
'x, y, z'
_cell_length_a     27.895229
_cell_length_b     33.502602
_cell_length_c     21.983895
_cell_angle_alpha  90.997735
_cell_angle_beta   90.04395
_cell_angle_gamma 89.941266
loop_
_atom_site_label
_atom_site_type_symbol
_atom_site_fract_x
_atom_site_fract_y
_atom_site_fract_z
_atom_type_partial_charge
C0 C -0.02768 0.19608 0.85345 0.0
O1 O 0.93269 0.19676 0.88185 0.0
Cd2 Cd 0.92853 0.17516 -0.01331 0.0
O3 O 0.01059 0.18728 0.88134 0.0
Cd4 Cd 0.0405 0.1727 -0.01742 0.0
C5 C -0.01695 0.08348 -0.02771 0.0
O6 O -0.01424 0.2084 0.05223 0.0
O7 O 0.03638 0.16619 0.09032 0.0
O8 O 0.09187 0.22878 0.9658 0.0
C9 C 0.00386 0.19213 0.09896 0.0
O10 O 0.94514 0.10392 -0.01847 0.0
C11 C 0.13115 0.21041 -0.02698 0.0
O12 O 0.02366 0.10075 0.96758 0.0
O13 O 0.12855 0.17319 -0.01637 0.0
C14 C 0.95596 0.79486 0.83895 0.0
O15 O -0.00406 0.79263 0.86634 0.0
Cd16 Cd 0.00332 0.8149 -0.02829 0.0
O17 O 0.91899 0.80637 0.86782 0.0
Cd18 Cd 0.89413 0.8249 -0.02951 0.0
C19 C 0.95976 0.91008 0.96431 0.0
O20 O 0.94525 0.785 0.0383 0.0
O21 O 0.90032 0.83186 0.07788 0.0
O22 O 0.83496 0.77366 0.95671 0.0
C23 C 0.9285 0.80269 0.0855 0.0
O24 O -0.00438 0.88722 -0.02797 0.0
C25 C 0.79874 0.79594 0.96517 0.0
O26 O 0.91768 0.89544 0.95891 0.0
O27 O 0.80673 0.83297 -0.02555 0.0
C28 C 0.94739 0.79469 0.57552 0.0
O29 O 0.90856 0.79463 0.54534 0.0
Cd30 Cd 0.90826 0.81643 0.44024 0.0
O31 O -0.01348 0.80318 0.54946 0.0
Cd32 Cd 0.02091 0.8189 0.45145 0.0
C33 C 0.9622 0.90813 0.4577 0.0
O34 O -0.03135 0.78285 0.37965 0.0
O35 O 0.02187 0.82337 0.34328 0.0
O36 O 0.07345 0.76396 0.47214 0.0
C37 C -0.01123 0.79815 0.33355 0.0
O38 O 0.92461 0.8878 0.44634 0.0
C39 C 0.11211 0.78372 0.4701 0.0
O40 O 0.00262 0.89076 0.46445 0.0
O41 O 0.10849 0.82089 0.45964 0.0
C42 C -0.02365 0.19427 0.58931 0.0
O43 O 0.01509 0.19265 0.55907 0.0
Cd44 Cd 0.01448 0.17127 0.45278 0.0
O45 O 0.93665 0.1879 0.56269 0.0
Cd46 Cd 0.9028 0.1748 0.46224 0.0
C47 C 0.95392 0.08253 0.46312 0.0
O48 O 0.95804 0.20838 0.39267 0.0
O49 O 0.90305 0.16964 0.35382 0.0
O50 O 0.85364 0.23232 0.48401 0.0
C51 C 0.93711 0.19398 0.34565 0.0
O52 O -0.00686 0.10082 0.45361 0.0
C53 C 0.81373 0.21449 0.47919 0.0
O54 O 0.915 0.10205 0.47093 0.0
O55 O 0.81508 0.17717 0.46713 0.0
C56 C 0.4432 0.70987 0.89682 0.0
O57 O 0.40514 0.70703 0.92808 0.0
Cd58 Cd 0.40991 0.68371 0.03238 0.0
O59 O 0.4835 0.70289 0.92115 0.0
Cd60 Cd 0.5219 0.68596 0.01601 0.0
C61 C 0.46812 0.59454 0.00917 0.0
O62 O 0.4701 0.71919 0.09142 0.0
O63 O 0.52676 0.68036 0.12398 0.0
O64 O 0.57302 0.74188 -0.00549 0.0
C65 C 0.49283 0.70441 0.13604 0.0
O66 O 0.42959 0.61291 0.02324 0.0
C67 C 0.61186 0.72221 -0.00656 0.0
O68 O 0.5069 0.61389 0.00091 0.0
O69 O 0.6089 0.68488 0.00285 0.0
C70 C 0.47872 0.30539 0.88256 0.0
O71 O 0.51729 0.30615 0.91327 0.0
Cd72 Cd 0.51644 0.3296 0.01861 0.0
O73 O 0.43921 0.31375 0.90833 0.0
Cd74 Cd 0.40417 0.33031 0.00682 0.0
C75 C 0.4605 0.42027 0.00242 0.0
O76 O 0.45685 0.29636 0.07898 0.0
O77 O 0.40319 0.33752 0.11512 0.0
O78 O 0.35216 0.27409 -0.01174 0.0
C79 C 0.43622 0.31242 0.12498 0.0
O80 O 0.49851 0.40057 0.0133 0.0
C81 C 0.31339 0.29389 -0.01161 0.0
O82 O 0.42039 0.40238 -0.00443 0.0
O83 O 0.31669 0.33148 -0.00303 0.0
C84 C 0.47323 0.30511 0.61899 0.0
O85 O 0.43319 0.30504 0.59145 0.0
Cd86 Cd 0.42721 0.32916 0.48812 0.0
O87 O 0.51098 0.3148 0.5908 0.0
Cd88 Cd 0.53829 0.33242 0.48963 0.0
C89 C 0.48001 0.42105 0.50517 0.0
O90 O 0.48327 0.29752 0.41912 0.0
O91 O 0.53221 0.34156 0.38253 0.0
O92 O 0.59276 0.2773 0.49908 0.0
C93 C 0.50049 0.3151 0.37306 0.0
O94 O 0.44218 0.40062 0.49565 0.0
C95 C 0.6309 0.29756 0.49421 0.0
O96 O 0.52076 0.40383 0.5084 0.0
O97 O 0.62613 0.3351 0.48808 0.0
C98 C 0.45135 0.71092 0.63388 0.0
O99 O 0.49195 0.71355 0.60821 0.0
Cd100 Cd 0.50292 0.6891 0.50457 0.0
O101 O 0.41546 0.69881 0.6034 0.0
Cd102 Cd 0.39456 0.68017 0.49915 0.0
C103 C 0.45799 0.5945 0.51302 0.0
O104 O 0.44851 0.71801 0.43214 0.0
O105 O 0.40487 0.67025 0.39276 0.0
O106 O 0.33577 0.73243 0.50639 0.0
C107 C 0.43358 0.69901 0.38508 0.0
O108 O 0.49448 0.61685 0.50705 0.0
C109 C 0.29956 0.7102 0.49766 0.0
O110 O 0.41597 0.60961 0.51465 0.0
O111 O 0.30742 0.67293 0.49088 0.0
C112 C 0.92733 0.9799 0.96364 0.0
C113 C -0.03288 0.95411 0.96349 0.0
C114 C 0.93306 0.02144 0.9658 0.0
C115 C -0.02113 0.03921 0.96764 0.0
H116 H 0.89123 0.96801 0.96299 0.0
H117 H 0.90101 0.03973 0.9664 0.0
S118 S 0.09515 0.98519 0.96572 0.0
N119 N 0.05437 0.94955 0.96355 0.0
N120 N 0.06494 0.02756 0.96759 0.0
C121 C 0.0191 0.01385 0.96632 0.0
C122 C 0.01328 0.97141 0.9643 0.0
C123 C 0.00073 0.97574 0.46216 0.0
C124 C 0.9588 0.95248 0.46171 0.0
C125 C -0.00141 0.01755 0.46323 0.0
C126 C 0.95442 0.03809 0.46428 0.0
H127 H 0.03567 0.96163 0.46072 0.0
H128 H 0.03211 0.03384 0.46291 0.0
S129 S 0.83382 0.99131 0.46632 0.0
N130 N 0.87144 0.95326 0.46438 0.0
N131 N 0.86759 0.03172 0.46647 0.0
C132 C 0.91213 0.01524 0.46506 0.0
C133 C 0.91428 0.97256 0.46371 0.0
C134 C 0.42344 0.52954 0.00918 0.0
C135 C 0.46728 0.55014 0.00373 0.0
C136 C 0.4214 0.48771 0.0071 0.0
C137 C 0.46315 0.46457 -8e-05 0.0
H138 H 0.3902 0.54577 0.01582 0.0
H139 H 0.38688 0.47346 0.01264 0.0
S140 S 0.58674 0.5035 -0.02079 0.0
N141 N 0.55328 0.54386 -0.01237 0.0
N142 N 0.54952 0.46542 -0.01614 0.0
C143 C 0.50713 0.4847 -0.00722 0.0
C144 C 0.50918 0.52735 -0.0054 0.0
C145 C 0.43029 0.48344 0.50627 0.0
C146 C 0.47577 0.46529 0.51095 0.0
C147 C 0.42482 0.52501 0.50851 0.0
C148 C 0.46459 0.55045 0.51532 0.0
H149 H 0.39837 0.46545 0.49995 0.0
H150 H 0.3891 0.53723 0.50351 0.0
S151 S 0.59135 0.51836 0.53421 0.0
N152 N 0.5612 0.47625 0.526 0.0
N153 N 0.55105 0.55432 0.53024 0.0
C154 C 0.51023 0.53278 0.52181 0.0
C155 C 0.51579 0.49032 0.51964 0.0
C156 C 0.01913 0.19923 0.21006 0.0
C157 C -0.01338 0.20065 0.16112 0.0
C158 C 0.00305 0.20035 0.27043 0.0
C159 C 0.95387 0.20179 0.28357 0.0
H160 H 0.05719 0.1958 0.20157 0.0
H161 H 0.02902 0.19739 0.30677 0.0
S162 S 0.85455 0.20954 0.17217 0.0
N163 N 0.90346 0.20713 0.12994 0.0
N164 N 0.87299 0.20776 0.24351 0.0
C165 C 0.92118 0.20525 0.23523 0.0
C166 C 0.93764 0.20513 0.17385 0.0
C167 C 0.00631 0.78953 0.22331 0.0
C168 C -0.02747 0.79008 0.27087 0.0
C169 C -0.00831 0.78994 0.16233 0.0
C170 C 0.9429 0.79205 0.14737 0.0
H171 H 0.04433 0.79052 0.2334 0.0
H172 H 0.01871 0.79159 0.12706 0.0
S173 S 0.84039 0.79038 0.25448 0.0
N174 N 0.88828 0.78902 0.29867 0.0
N175 N 0.86074 0.79137 0.18397 0.0
C176 C 0.90878 0.79034 0.19423 0.0
C177 C 0.92363 0.78888 0.25617 0.0
C178 C -0.00771 0.78783 0.67321 0.0
C179 C 0.94799 0.78815 0.6422 0.0
C180 C -0.00539 0.78772 0.73679 0.0
C181 C 0.95272 0.78801 0.77219 0.0
H182 H 0.02576 0.78918 0.64835 0.0
H183 H 0.02955 0.7893 0.75821 0.0
S184 S 0.82775 0.78256 0.71368 0.0
N185 N 0.86127 0.78419 0.65194 0.0
N186 N 0.8655 0.78377 0.77153 0.0
C187 C 0.90818 0.78551 0.74186 0.0
C188 C 0.90583 0.78559 0.67692 0.0
C189 C 0.93156 0.19975 0.75229 0.0
C190 C -0.02601 0.20181 0.78665 0.0
C191 C 0.93279 0.19909 0.68862 0.0
C192 C -0.02351 0.2005 0.65645 0.0
H193 H 0.89714 0.19692 0.77456 0.0
H194 H 0.89904 0.19604 0.66458 0.0
S195 S 0.09743 0.21205 0.7251 0.0
N196 N 0.0608 0.20974 0.78385 0.0
N197 N 0.063 0.20828 0.66418 0.0
C198 C 0.01903 0.20508 0.69024 0.0
C199 C 0.0178 0.20578 0.75524 0.0
C200 C 0.42933 0.71029 0.21493 0.0
C201 C 0.47812 0.71139 0.19957 0.0
C202 C 0.41503 0.70837 0.27587 0.0
C203 C 0.449 0.70877 0.32322 0.0
H204 H 0.40226 0.70817 0.17964 0.0
H205 H 0.37723 0.70509 0.28595 0.0
S206 S 0.58072 0.71605 0.30687 0.0
N207 N 0.56024 0.71567 0.23632 0.0
N208 N 0.53301 0.71365 0.35114 0.0
C209 C 0.4976 0.71284 0.30866 0.0
C210 C 0.51228 0.71371 0.2466 0.0
C211 C 0.5167 0.30744 0.26232 0.0
C212 C 0.48366 0.30685 0.31066 0.0
C213 C 0.5012 0.30608 0.20167 0.0
C214 C 0.45213 0.30533 0.18767 0.0
H215 H 0.55473 0.31024 0.27148 0.0
H216 H 0.5276 0.30821 0.16573 0.0
S217 S 0.35153 0.30061 0.29747 0.0
N218 N 0.40008 0.30235 0.34053 0.0
N219 N 0.3707 0.30142 0.22641 0.0
C220 C 0.41887 0.30302 0.23549 0.0
C221 C 0.43472 0.30331 0.29715 0.0
C222 C 0.43505 0.29765 0.78373 0.0
C223 C 0.47897 0.29841 0.8156 0.0
C224 C 0.4335 0.29748 0.72009 0.0
C225 C 0.47579 0.29809 0.68547 0.0
H226 H 0.40129 0.29879 0.80801 0.0
H227 H 0.39877 0.29875 0.69812 0.0
S228 S 0.60015 0.29373 0.7462 0.0
N229 N 0.56584 0.29513 0.80734 0.0
N230 N 0.56308 0.29454 0.68768 0.0
C231 C 0.52001 0.2959 0.71655 0.0
C232 C 0.52156 0.29609 0.78155 0.0
C233 C 0.48538 0.72451 0.79971 0.0
C234 C 0.44195 0.71753 0.83053 0.0
C235 C 0.48759 0.72466 0.73615 0.0
C236 C 0.44646 0.71784 0.70055 0.0
H237 H 0.51859 0.72825 0.82475 0.0
H238 H 0.52231 0.72833 0.71496 0.0
S239 S 0.32243 0.70443 0.75882 0.0
N240 N 0.35585 0.70826 0.82064 0.0
N241 N 0.35969 0.70886 0.70104 0.0
C242 C 0.40207 0.71394 0.73076 0.0
C243 C 0.39987 0.71376 0.79573 0.0
C244 C 0.26412 0.23177 -0.01175 0.0
C245 C 0.26677 0.27338 -0.01912 0.0
C246 C 0.22033 0.21152 -0.01572 0.0
C247 C 0.17747 0.23203 -0.02765 0.0
H248 H 0.29602 0.21467 -0.00148 0.0
H249 H 0.22008 0.17964 -0.00833 0.0
S250 S 0.16561 0.34074 0.94421 0.0
N251 N 0.22325 0.33412 0.9577 0.0
N252 N 0.14089 0.2962 0.94958 0.0
C253 C 0.17983 0.27353 0.96286 0.0
C254 C 0.22446 0.29417 0.96736 0.0
C255 C 0.70022 0.71881 -0.02327 0.0
C256 C 0.65847 0.742 -0.01714 0.0
C257 C 0.74507 0.73665 0.96924 0.0
C258 C 0.75011 0.77847 0.96803 0.0
H259 H 0.69845 0.68653 -0.02167 0.0
H260 H 0.77615 0.71737 0.96576 0.0
S261 S 0.65165 0.85275 -0.02114 0.0
N262 N 0.62469 0.80914 -0.01544 0.0
N263 N 0.70925 0.8426 -0.02903 0.0
C264 C 0.70858 0.80207 -0.02734 0.0
C265 C 0.66272 0.78387 -0.02007 0.0
C266 C 0.201 0.78729 0.48241 0.0
C267 C 0.15914 0.7641 0.47888 0.0
C268 C 0.246 0.7695 0.48956 0.0
C269 C 0.25103 0.72776 0.49302 0.0
H270 H 0.19914 0.81951 0.47944 0.0
H271 H 0.27714 0.78875 0.49148 0.0
S272 S 0.15251 0.6535 0.48756 0.0
N273 N 0.12544 0.69701 0.48063 0.0
N274 N 0.2102 0.6637 0.49367 0.0
C275 C 0.20948 0.70417 0.49017 0.0
C276 C 0.16351 0.72229 0.48323 0.0
C277 C 0.68038 0.23561 0.48772 0.0
C278 C 0.6782 0.27752 0.49326 0.0
C279 C 0.7243 0.21552 0.48385 0.0
C280 C 0.76787 0.23648 0.4858 0.0
H281 H 0.64786 0.21803 0.48531 0.0
H282 H 0.72394 0.18329 0.47882 0.0
S283 S 0.782 0.34646 0.50285 0.0
N284 N 0.72348 0.33929 0.50244 0.0
N285 N 0.80619 0.30165 0.49562 0.0
C286 C 0.76631 0.27841 0.49263 0.0
C287 C 0.72146 0.29889 0.4962 0.0
loop_
_geom_bond_atom_site_label_1
_geom_bond_atom_site_label_2
_geom_bond_distance
_geom_bond_site_symmetry_2
_ccdc_geom_bond_type
C0 O1 1.306 1_455 S
C0 O3 1.160 . S
O1 C0 1.306 1_655 S
O1 Cd2 2.228 1_556 S
Cd2 O1 2.228 1_554 S
Cd2 O6 2.273 . S
Cd2 O10 2.277 . S
O3 C0 1.160 . S
O3 Cd4 2.203 1_556 S
Cd4 O3 2.203 1_554 S
Cd4 O6 2.411 1_455 S
Cd4 O7 2.333 . S
Cd4 O8 2.352 . S
Cd4 O12 2.277 . S
Cd4 O13 2.356 . S
C5 O10 1.209 1_455 S
C5 O12 1.226 . S
O6 Cd2 2.273 . S
O6 Cd4 2.411 1_655 S
O6 C9 1.320 1_655 S
O7 Cd4 2.333 . S
O7 C9 1.214 . S
O8 Cd4 2.352 . S
O8 C11 1.258 . S
C9 O6 1.320 1_455 S
C9 O7 1.214 . S
O10 Cd2 2.277 . S
O10 C5 1.209 1_655 S
C11 O8 1.258 . S
C11 O13 1.282 . S
O12 Cd4 2.277 . S
O12 C5 1.226 . S
O13 Cd4 2.356 . S
O13 C11 1.282 . S
C14 O15 1.306 1_655 S
C14 O17 1.160 . S
O15 C14 1.306 1_455 S
O15 Cd16 2.228 1_556 S
Cd16 O15 2.228 1_554 S
Cd16 O20 2.273 . S
Cd16 O24 2.277 . S
O17 C14 1.160 . S
O17 Cd18 2.203 1_556 S
Cd18 O17 2.203 1_554 S
Cd18 O20 2.411 1_655 S
Cd18 O21 2.333 . S
Cd18 O22 2.352 . S
Cd18 O26 2.277 . S
Cd18 O27 2.356 . S
C19 O24 1.209 1_655 S
C19 O26 1.226 . S
O20 Cd16 2.273 . S
O20 Cd18 2.411 1_455 S
O20 C23 1.320 1_455 S
O21 Cd18 2.333 . S
O21 C23 1.214 . S
O22 Cd18 2.352 . S
O22 C25 1.258 . S
C23 O20 1.320 1_655 S
C23 O21 1.214 . S
O24 Cd16 2.277 . S
O24 C19 1.209 1_455 S
C25 O22 1.258 . S
C25 O27 1.282 . S
O26 Cd18 2.277 . S
O26 C19 1.226 . S
O27 Cd18 2.356 . S
O27 C25 1.282 . S
C28 O29 1.306 1_455 S
C28 O31 1.160 . S
O29 C28 1.306 1_655 S
O29 Cd30 2.228 . S
Cd30 O29 2.228 . S
Cd30 O34 2.273 . S
Cd30 O38 2.277 . S
O31 C28 1.160 . S
O31 Cd32 2.203 . S
Cd32 O31 2.203 . S
Cd32 O34 2.411 1_455 S
Cd32 O35 2.333 . S
Cd32 O36 2.352 . S
Cd32 O40 2.277 . S
Cd32 O41 2.356 . S
C33 O38 1.209 1_455 S
C33 O40 1.226 . S
O34 Cd30 2.273 . S
O34 Cd32 2.411 1_655 S
O34 C37 1.320 1_655 S
O35 Cd32 2.333 . S
O35 C37 1.214 . S
O36 Cd32 2.352 . S
O36 C39 1.258 . S
C37 O34 1.320 1_455 S
C37 O35 1.214 . S
O38 Cd30 2.277 . S
O38 C33 1.209 1_655 S
C39 O36 1.258 . S
C39 O41 1.282 . S
O40 Cd32 2.277 . S
O40 C33 1.226 . S
O41 Cd32 2.356 . S
O41 C39 1.282 . S
C42 O43 1.306 1_655 S
C42 O45 1.160 . S
O43 C42 1.306 1_455 S
O43 Cd44 2.228 . S
Cd44 O43 2.228 . S
Cd44 O48 2.273 . S
Cd44 O52 2.277 . S
O45 C42 1.160 . S
O45 Cd46 2.203 . S
Cd46 O45 2.203 . S
Cd46 O48 2.411 1_655 S
Cd46 O49 2.333 . S
Cd46 O50 2.352 . S
Cd46 O54 2.277 . S
Cd46 O55 2.356 . S
C47 O52 1.209 1_655 S
C47 O54 1.226 . S
O48 Cd44 2.273 . S
O48 Cd46 2.411 1_455 S
O48 C51 1.320 1_455 S
O49 Cd46 2.333 . S
O49 C51 1.214 . S
O50 Cd46 2.352 . S
O50 C53 1.258 . S
C51 O48 1.320 1_655 S
C51 O49 1.214 . S
O52 Cd44 2.277 . S
O52 C47 1.209 1_455 S
C53 O50 1.258 . S
C53 O55 1.282 . S
O54 Cd46 2.277 . S
O54 C47 1.226 . S
O55 Cd46 2.356 . S
O55 C53 1.282 . S
C56 O57 1.306 . S
C56 O59 1.160 . S
O57 C56 1.306 . S
O57 Cd58 2.228 1_556 S
Cd58 O57 2.228 1_554 S
Cd58 O62 2.273 . S
Cd58 O66 2.277 . S
O59 C56 1.160 . S
O59 Cd60 2.203 1_556 S
Cd60 O59 2.203 1_554 S
Cd60 O62 2.411 . S
Cd60 O63 2.333 . S
Cd60 O64 2.352 . S
Cd60 O68 2.277 . S
Cd60 O69 2.356 . S
C61 O66 1.209 . S
C61 O68 1.226 . S
O62 Cd58 2.273 . S
O62 Cd60 2.411 . S
O62 C65 1.320 . S
O63 Cd60 2.333 . S
O63 C65 1.214 . S
O64 Cd60 2.352 . S
O64 C67 1.258 . S
C65 O62 1.320 . S
C65 O63 1.214 . S
O66 Cd58 2.277 . S
O66 C61 1.209 . S
C67 O64 1.258 . S
C67 O69 1.282 . S
O68 Cd60 2.277 . S
O68 C61 1.226 . S
O69 Cd60 2.356 . S
O69 C67 1.282 . S
C70 O71 1.306 . S
C70 O73 1.160 . S
O71 C70 1.306 . S
O71 Cd72 2.228 1_556 S
Cd72 O71 2.228 1_554 S
Cd72 O76 2.273 . S
Cd72 O80 2.277 . S
O73 C70 1.160 . S
O73 Cd74 2.203 1_556 S
Cd74 O73 2.203 1_554 S
Cd74 O76 2.411 . S
Cd74 O77 2.333 . S
Cd74 O78 2.352 . S
Cd74 O82 2.277 . S
Cd74 O83 2.356 . S
C75 O80 1.209 . S
C75 O82 1.226 . S
O76 Cd72 2.273 . S
O76 Cd74 2.411 . S
O76 C79 1.320 . S
O77 Cd74 2.333 . S
O77 C79 1.214 . S
O78 Cd74 2.352 . S
O78 C81 1.258 . S
C79 O76 1.320 . S
C79 O77 1.214 . S
O80 Cd72 2.277 . S
O80 C75 1.209 . S
C81 O78 1.258 . S
C81 O83 1.282 . S
O82 Cd74 2.277 . S
O82 C75 1.226 . S
O83 Cd74 2.356 . S
O83 C81 1.282 . S
C84 O85 1.306 . S
C84 O87 1.160 . S
O85 C84 1.306 . S
O85 Cd86 2.228 . S
Cd86 O85 2.228 . S
Cd86 O90 2.273 . S
Cd86 O94 2.277 . S
O87 C84 1.160 . S
O87 Cd88 2.203 . S
Cd88 O87 2.203 . S
Cd88 O90 2.411 . S
Cd88 O91 2.333 . S
Cd88 O92 2.352 . S
Cd88 O96 2.277 . S
Cd88 O97 2.356 . S
C89 O94 1.209 . S
C89 O96 1.226 . S
O90 Cd86 2.273 . S
O90 Cd88 2.411 . S
O90 C93 1.320 . S
O91 Cd88 2.333 . S
O91 C93 1.214 . S
O92 Cd88 2.352 . S
O92 C95 1.258 . S
C93 O90 1.320 . S
C93 O91 1.214 . S
O94 Cd86 2.277 . S
O94 C89 1.209 . S
C95 O92 1.258 . S
C95 O97 1.282 . S
O96 Cd88 2.277 . S
O96 C89 1.226 . S
O97 Cd88 2.356 . S
O97 C95 1.282 . S
C98 O99 1.306 . S
C98 O101 1.160 . S
O99 C98 1.306 . S
O99 Cd100 2.228 . S
Cd100 O99 2.228 . S
Cd100 O104 2.273 . S
Cd100 O108 2.277 . S
O101 C98 1.160 . S
O101 Cd102 2.203 . S
Cd102 O101 2.203 . S
Cd102 O104 2.411 . S
Cd102 O105 2.333 . S
Cd102 O106 2.352 . S
Cd102 O110 2.277 . S
Cd102 O111 2.356 . S
C103 O108 1.209 . S
C103 O110 1.226 . S
O104 Cd100 2.273 . S
O104 Cd102 2.411 . S
O104 C107 1.320 . S
O105 Cd102 2.333 . S
O105 C107 1.214 . S
O106 Cd102 2.352 . S
O106 C109 1.258 . S
C107 O104 1.320 . S
C107 O105 1.214 . S
O108 Cd100 2.277 . S
O108 C103 1.209 . S
C109 O106 1.258 . S
C109 O111 1.282 . S
O110 Cd102 2.277 . S
O110 C103 1.226 . S
O111 Cd102 2.356 . S
O111 C109 1.282 . S
C112 C113 1.369 . S
C112 C114 1.419 1_565 S
C112 H116 0.930 . S
C113 C112 1.369 . S
C113 C122 1.429 1_654 S
C114 C112 1.419 1_545 S
C114 C115 1.363 1_655 S
C114 H117 0.929 . S
C115 C114 1.363 1_455 S
C115 C121 1.428 1_554 S
H116 C112 0.930 . S
H117 C114 0.929 . S
S118 N119 1.613 . S
S118 N120 1.610 1_565 S
N119 S118 1.613 . S
N119 C122 1.350 . S
N120 S118 1.610 1_545 S
N120 C121 1.351 . S
C121 C115 1.428 1_556 S
C121 N120 1.351 . S
C121 C122 1.434 1_545 S
C122 C113 1.429 1_456 S
C122 N119 1.350 . S
C122 C121 1.434 1_565 S
C123 C124 1.369 . S
C123 C125 1.419 1_565 S
C123 H127 0.930 . S
C124 C123 1.369 . S
C124 C133 1.429 1_455 S
C125 C123 1.419 1_545 S
C125 C126 1.363 1_455 S
C125 H128 0.929 . S
C126 C125 1.363 1_655 S
C126 C132 1.428 . S
H127 C123 0.930 . S
H128 C125 0.929 . S
S129 N130 1.613 . S
S129 N131 1.610 1_565 S
N130 S129 1.613 . S
N130 C133 1.350 . S
N131 S129 1.610 1_545 S
N131 C132 1.351 . S
C132 C126 1.428 . S
C132 N131 1.351 . S
C132 C133 1.434 1_545 S
C133 C124 1.429 1_655 S
C133 N130 1.350 . S
C133 C132 1.434 1_565 S
C134 C135 1.369 . S
C134 C136 1.419 . S
C134 H138 0.930 . S
C135 C134 1.369 . S
C135 C144 1.429 1_554 S
C136 C134 1.419 . S
C136 C137 1.363 . S
C136 H139 0.929 . S
C137 C136 1.363 . S
C137 C143 1.428 1_554 S
H138 C134 0.930 . S
H139 C136 0.929 . S
S140 N141 1.613 . S
S140 N142 1.610 . S
N141 S140 1.613 . S
N141 C144 1.350 . S
N142 S140 1.610 . S
N142 C143 1.351 . S
C143 C137 1.428 1_556 S
C143 N142 1.351 . S
C143 C144 1.434 . S
C144 C135 1.429 1_556 S
C144 N141 1.350 . S
C144 C143 1.434 . S
C145 C146 1.369 . S
C145 C147 1.419 . S
C145 H149 0.930 . S
C146 C145 1.369 . S
C146 C155 1.429 . S
C147 C145 1.419 . S
C147 C148 1.363 . S
C147 H150 0.929 . S
C148 C147 1.363 . S
C148 C154 1.428 . S
H149 C145 0.930 . S
H150 C147 0.929 . S
S151 N152 1.613 . S
S151 N153 1.610 . S
N152 S151 1.613 . S
N152 C155 1.350 . S
N153 S151 1.610 . S
N153 C154 1.351 . S
C154 C148 1.428 . S
C154 N153 1.351 . S
C154 C155 1.434 . S
C155 C146 1.429 . S
C155 N152 1.350 . S
C155 C154 1.434 . S
C156 C157 1.381 . S
C156 C158 1.419 . S
C156 H160 0.930 . S
C157 C156 1.381 . S
C157 C166 1.416 1_455 S
C158 C156 1.419 . S
C158 C159 1.363 1_455 S
C158 H161 0.929 . S
C159 C158 1.363 1_655 S
C159 C165 1.428 . S
H160 C156 0.930 . S
H161 C158 0.929 . S
S162 N163 1.613 . S
S162 N164 1.610 . S
N163 S162 1.613 . S
N163 C166 1.350 . S
N164 S162 1.610 . S
N164 C165 1.351 . S
C165 C159 1.428 . S
C165 N164 1.351 . S
C165 C166 1.434 . S
C166 C157 1.416 1_655 S
C166 N163 1.350 . S
C166 C165 1.434 . S
C167 C168 1.376 . S
C167 C169 1.419 . S
C167 H171 0.930 . S
C168 C167 1.376 . S
C168 C177 1.421 1_455 S
C169 C167 1.419 . S
C169 C170 1.363 1_455 S
C169 H172 0.929 . S
C170 C169 1.363 1_655 S
C170 C176 1.428 . S
H171 C167 0.930 . S
H172 C169 0.929 . S
S173 N174 1.613 . S
S173 N175 1.610 . S
N174 S173 1.613 . S
N174 C177 1.350 . S
N175 S173 1.610 . S
N175 C176 1.351 . S
C176 C170 1.428 . S
C176 N175 1.351 . S
C176 C177 1.434 . S
C177 C168 1.421 1_655 S
C177 N174 1.350 . S
C177 C176 1.434 . S
C178 C179 1.367 1_455 S
C178 C180 1.419 . S
C178 H182 0.930 . S
C179 C178 1.367 1_655 S
C179 C188 1.431 . S
C180 C178 1.419 . S
C180 C181 1.366 . S
C180 H183 0.929 . S
C181 C180 1.366 . S
C181 C187 1.425 1_455 S
H182 C178 0.930 . S
H183 C180 0.929 . S
S184 N185 1.613 . S
S184 N186 1.610 . S
N185 S184 1.613 . S
N185 C188 1.350 . S
N186 S184 1.610 . S
N186 C187 1.351 . S
C187 C181 1.425 1_655 S
C187 N186 1.351 . S
C187 C188 1.434 . S
C188 C179 1.431 . S
C188 N185 1.350 . S
C188 C187 1.434 . S
C189 C190 1.369 . S
C189 C191 1.419 . S
C189 H193 0.930 . S
C190 C189 1.369 . S
C190 C199 1.428 1_655 S
C191 C189 1.419 . S
C191 C192 1.362 1_655 S
C191 H194 0.929 . S
C192 C191 1.362 1_455 S
C192 C198 1.430 . S
H193 C189 0.930 . S
H194 C191 0.929 . S
S195 N196 1.613 . S
S195 N197 1.610 . S
N196 S195 1.613 . S
N196 C199 1.350 . S
N197 S195 1.610 . S
N197 C198 1.351 . S
C198 C192 1.430 . S
C198 N197 1.351 . S
C198 C199 1.434 . S
C199 C190 1.428 1_455 S
C199 N196 1.350 . S
C199 C198 1.434 . S
C200 C201 1.369 . S
C200 C202 1.419 . S
C200 H204 0.930 . S
C201 C200 1.369 . S
C201 C210 1.429 . S
C202 C200 1.419 . S
C202 C203 1.363 . S
C202 H205 0.929 . S
C203 C202 1.363 . S
C203 C209 1.428 . S
H204 C200 0.930 . S
H205 C202 0.929 . S
S206 N207 1.613 . S
S206 N208 1.610 . S
N207 S206 1.613 . S
N207 C210 1.350 . S
N208 S206 1.610 . S
N208 C209 1.351 . S
C209 C203 1.428 . S
C209 N208 1.351 . S
C209 C210 1.434 . S
C210 C201 1.429 . S
C210 N207 1.350 . S
C210 C209 1.434 . S
C211 C212 1.369 . S
C211 C213 1.419 . S
C211 H215 0.930 . S
C212 C211 1.369 . S
C212 C221 1.429 . S
C213 C211 1.419 . S
C213 C214 1.363 . S
C213 H216 0.929 . S
C214 C213 1.363 . S
C214 C220 1.428 . S
H215 C211 0.930 . S
H216 C213 0.929 . S
S217 N218 1.613 . S
S217 N219 1.610 . S
N218 S217 1.613 . S
N218 C221 1.350 . S
N219 S217 1.610 . S
N219 C220 1.351 . S
C220 C214 1.428 . S
C220 N219 1.351 . S
C220 C221 1.434 . S
C221 C212 1.429 . S
C221 N218 1.350 . S
C221 C220 1.434 . S
C222 C223 1.369 . S
C222 C224 1.419 . S
C222 H226 0.930 . S
C223 C222 1.369 . S
C223 C232 1.429 . S
C224 C222 1.419 . S
C224 C225 1.363 . S
C224 H227 0.929 . S
C225 C224 1.363 . S
C225 C231 1.428 . S
H226 C222 0.930 . S
H227 C224 0.929 . S
S228 N229 1.613 . S
S228 N230 1.610 . S
N229 S228 1.613 . S
N229 C232 1.350 . S
N230 S228 1.610 . S
N230 C231 1.351 . S
C231 C225 1.428 . S
C231 N230 1.351 . S
C231 C232 1.434 . S
C232 C223 1.429 . S
C232 N229 1.350 . S
C232 C231 1.434 . S
C233 C234 1.369 . S
C233 C235 1.419 . S
C233 H237 0.930 . S
C234 C233 1.369 . S
C234 C243 1.429 . S
C235 C233 1.419 . S
C235 C236 1.363 . S
C235 H238 0.929 . S
C236 C235 1.363 . S
C236 C242 1.428 . S
H237 C233 0.930 . S
H238 C235 0.929 . S
S239 N240 1.613 . S
S239 N241 1.610 . S
N240 S239 1.613 . S
N240 C243 1.350 . S
N241 S239 1.610 . S
N241 C242 1.351 . S
C242 C236 1.428 . S
C242 N241 1.351 . S
C242 C243 1.434 . S
C243 C234 1.429 . S
C243 N240 1.350 . S
C243 C242 1.434 . S
C244 C245 1.369 . S
C244 C246 1.419 . S
C244 H248 0.930 . S
C245 C244 1.369 . S
C245 C254 1.429 1_554 S
C246 C244 1.419 . S
C246 C247 1.363 . S
C246 H249 0.929 . S
C247 C246 1.363 . S
C247 C253 1.428 1_554 S
H248 C244 0.930 . S
H249 C246 0.929 . S
S250 N251 1.613 . S
S250 N252 1.610 . S
N251 S250 1.613 . S
N251 C254 1.350 . S
N252 S250 1.610 . S
N252 C253 1.351 . S
C253 C247 1.428 1_556 S
C253 N252 1.351 . S
C253 C254 1.434 . S
C254 C245 1.429 1_556 S
C254 N251 1.350 . S
C254 C253 1.434 . S
C255 C256 1.369 1_556 S
C255 C257 1.419 . S
C255 H259 0.930 . S
C256 C255 1.369 1_554 S
C256 C265 1.429 . S
C257 C255 1.419 . S
C257 C258 1.363 1_556 S
C257 H260 0.929 . S
C258 C257 1.363 1_554 S
C258 C264 1.428 . S
H259 C255 0.930 . S
H260 C257 0.929 . S
S261 N262 1.613 . S
S261 N263 1.610 . S
N262 S261 1.613 . S
N262 C265 1.350 . S
N263 S261 1.610 . S
N263 C264 1.351 . S
C264 C258 1.428 . S
C264 N263 1.351 . S
C264 C265 1.434 . S
C265 C256 1.429 . S
C265 N262 1.350 . S
C265 C264 1.434 . S
C266 C267 1.369 . S
C266 C268 1.419 . S
C266 H270 0.930 . S
C267 C266 1.369 . S
C267 C276 1.429 . S
C268 C266 1.419 . S
C268 C269 1.363 . S
C268 H271 0.929 . S
C269 C268 1.363 . S
C269 C275 1.428 . S
H270 C266 0.930 . S
H271 C268 0.929 . S
S272 N273 1.613 . S
S272 N274 1.610 . S
N273 S272 1.613 . S
N273 C276 1.350 . S
N274 S272 1.610 . S
N274 C275 1.351 . S
C275 C269 1.428 . S
C275 N274 1.351 . S
C275 C276 1.434 . S
C276 C267 1.429 . S
C276 N273 1.350 . S
C276 C275 1.434 . S
C277 C278 1.369 . S
C277 C279 1.419 . S
C277 H281 0.930 . S
C278 C277 1.369 . S
C278 C287 1.429 . S
C279 C277 1.419 . S
C279 C280 1.363 . S
C279 H282 0.929 . S
C280 C279 1.363 . S
C280 C286 1.428 . S
H281 C277 0.930 . S
H282 C279 0.929 . S
S283 N284 1.613 . S
S283 N285 1.610 . S
N284 S283 1.613 . S
N284 C287 1.350 . S
N285 S283 1.610 . S
N285 C286 1.351 . S
C286 C280 1.428 . S
C286 N285 1.351 . S
C286 C287 1.434 . S
C287 C278 1.429 . S
C287 N284 1.350 . S
C287 C286 1.434 . S
C113 C19 1.502 . S
C115 C5 1.504 . S
C124 C33 1.502 . S
C126 C47 1.504 . S
C135 C61 1.503 . S
C137 C75 1.503 . S
C146 C89 1.504 . S
C148 C103 1.503 . S
C157 C9 1.361 . S
C159 C51 1.351 . S
C168 C37 1.359 . S
C170 C23 1.347 . S
C179 C28 1.403 1_655 S
C181 C14 1.404 1_455 S
C190 C0 1.403 1_655 S
C192 C42 1.404 1_455 S
C201 C65 1.347 . S
C203 C107 1.352 . S
C212 C93 1.356 . S
C214 C79 1.349 . S
C223 C70 1.404 . S
C225 C84 1.405 . S
C234 C56 1.405 . S
C236 C98 1.405 . S
C245 C81 1.505 . S
C247 C11 1.507 . S
C256 C67 1.507 . S
C258 C25 1.505 . S
C267 C39 1.507 . S
C269 C109 1.505 . S
C278 C95 1.504 . S
C280 C53 1.507 . S
