# Generated by pormake.
# Topology gie, (4)-cn, num edge types: 1
# Building blocks:
#     Node 0, Type 0, BuildingBlock: CEKHIL_clean_sbu_0, # of connection points: 4
#     Node 1, Type 0, BuildingBlock: CEKHIL_clean_sbu_0, # of connection points: 4
#     Node 2, Type 0, BuildingBlock: CEKHIL_clean_sbu_0, # of connection points: 4
#     Node 3, Type 0, BuildingBlock: CEKHIL_clean_sbu_0, # of connection points: 4
#     Node 4, Type 0, BuildingBlock: CEKHIL_clean_sbu_0, # of connection points: 4
#     Node 5, Type 0, BuildingBlock: CEKHIL_clean_sbu_0, # of connection points: 4
#     Node 6, Type 0, BuildingBlock: CEKHIL_clean_sbu_0, # of connection points: 4
#     Node 7, Type 0, BuildingBlock: CEKHIL_clean_sbu_0, # of connection points: 4
#     Node 8, Type 0, BuildingBlock: CEKHIL_clean_sbu_0, # of connection points: 4
#     Node 9, Type 0, BuildingBlock: CEKHIL_clean_sbu_0, # of connection points: 4
#     Node 10, Type 0, BuildingBlock: CEKHIL_clean_sbu_0, # of connection points: 4
#     Node 11, Type 0, BuildingBlock: CEKHIL_clean_sbu_0, # of connection points: 4
#     Node 12, Type 0, BuildingBlock: CEKHIL_clean_sbu_0, # of connection points: 4
#     Node 13, Type 0, BuildingBlock: CEKHIL_clean_sbu_0, # of connection points: 4
#     Node 14, Type 0, BuildingBlock: CEKHIL_clean_sbu_0, # of connection points: 4
#     Node 15, Type 0, BuildingBlock: CEKHIL_clean_sbu_0, # of connection points: 4
#     Node 16, Type 0, BuildingBlock: CEKHIL_clean_sbu_0, # of connection points: 4
#     Node 17, Type 0, BuildingBlock: CEKHIL_clean_sbu_0, # of connection points: 4
#     Node 18, Type 0, BuildingBlock: CEKHIL_clean_sbu_0, # of connection points: 4
#     Node 19, Type 0, BuildingBlock: CEKHIL_clean_sbu_0, # of connection points: 4
#     Node 20, Type 0, BuildingBlock: CEKHIL_clean_sbu_0, # of connection points: 4
#     Node 21, Type 0, BuildingBlock: CEKHIL_clean_sbu_0, # of connection points: 4
#     Node 22, Type 0, BuildingBlock: CEKHIL_clean_sbu_0, # of connection points: 4
#     Node 23, Type 0, BuildingBlock: CEKHIL_clean_sbu_0, # of connection points: 4
#     Node 24, Type 0, BuildingBlock: CEKHIL_clean_sbu_0, # of connection points: 4
#     Node 25, Type 0, BuildingBlock: CEKHIL_clean_sbu_0, # of connection points: 4
#     Node 26, Type 0, BuildingBlock: CEKHIL_clean_sbu_0, # of connection points: 4
#     Node 27, Type 0, BuildingBlock: CEKHIL_clean_sbu_0, # of connection points: 4
#     Node 28, Type 0, BuildingBlock: CEKHIL_clean_sbu_0, # of connection points: 4
#     Node 29, Type 0, BuildingBlock: CEKHIL_clean_sbu_0, # of connection points: 4
#     Node 30, Type 0, BuildingBlock: CEKHIL_clean_sbu_0, # of connection points: 4
#     Node 31, Type 0, BuildingBlock: CEKHIL_clean_sbu_0, # of connection points: 4
#     Node 32, Type 0, BuildingBlock: CEKHIL_clean_sbu_0, # of connection points: 4
#     Node 33, Type 0, BuildingBlock: CEKHIL_clean_sbu_0, # of connection points: 4
#     Node 34, Type 0, BuildingBlock: CEKHIL_clean_sbu_0, # of connection points: 4
#     Node 35, Type 0, BuildingBlock: CEKHIL_clean_sbu_0, # of connection points: 4
#     Node 36, Type 0, BuildingBlock: CEKHIL_clean_sbu_0, # of connection points: 4
#     Node 37, Type 0, BuildingBlock: CEKHIL_clean_sbu_0, # of connection points: 4
#     Node 38, Type 0, BuildingBlock: CEKHIL_clean_sbu_0, # of connection points: 4
#     Node 39, Type 0, BuildingBlock: CEKHIL_clean_sbu_0, # of connection points: 4
#     Node 40, Type 0, BuildingBlock: CEKHIL_clean_sbu_0, # of connection points: 4
#     Node 41, Type 0, BuildingBlock: CEKHIL_clean_sbu_0, # of connection points: 4
#     Node 42, Type 0, BuildingBlock: CEKHIL_clean_sbu_0, # of connection points: 4
#     Node 43, Type 0, BuildingBlock: CEKHIL_clean_sbu_0, # of connection points: 4
#     Node 44, Type 0, BuildingBlock: CEKHIL_clean_sbu_0, # of connection points: 4
#     Node 45, Type 0, BuildingBlock: CEKHIL_clean_sbu_0, # of connection points: 4
#     Node 46, Type 0, BuildingBlock: CEKHIL_clean_sbu_0, # of connection points: 4
#     Node 47, Type 0, BuildingBlock: CEKHIL_clean_sbu_0, # of connection points: 4
#     Node 48, Type 0, BuildingBlock: CEKHIL_clean_sbu_0, # of connection points: 4
#     Node 49, Type 0, BuildingBlock: CEKHIL_clean_sbu_0, # of connection points: 4
#     Node 50, Type 0, BuildingBlock: CEKHIL_clean_sbu_0, # of connection points: 4
#     Node 51, Type 0, BuildingBlock: CEKHIL_clean_sbu_0, # of connection points: 4
#     Node 52, Type 0, BuildingBlock: CEKHIL_clean_sbu_0, # of connection points: 4
#     Node 53, Type 0, BuildingBlock: CEKHIL_clean_sbu_0, # of connection points: 4
#     Node 54, Type 0, BuildingBlock: CEKHIL_clean_sbu_0, # of connection points: 4
#     Node 55, Type 0, BuildingBlock: CEKHIL_clean_sbu_0, # of connection points: 4
#     Node 56, Type 0, BuildingBlock: CEKHIL_clean_sbu_0, # of connection points: 4
#     Node 57, Type 0, BuildingBlock: CEKHIL_clean_sbu_0, # of connection points: 4
#     Node 58, Type 0, BuildingBlock: CEKHIL_clean_sbu_0, # of connection points: 4
#     Node 59, Type 0, BuildingBlock: CEKHIL_clean_sbu_0, # of connection points: 4
#     Node 60, Type 0, BuildingBlock: CEKHIL_clean_sbu_0, # of connection points: 4
#     Node 61, Type 0, BuildingBlock: CEKHIL_clean_sbu_0, # of connection points: 4
#     Node 62, Type 0, BuildingBlock: CEKHIL_clean_sbu_0, # of connection points: 4
#     Node 63, Type 0, BuildingBlock: CEKHIL_clean_sbu_0, # of connection points: 4
#     Node 64, Type 0, BuildingBlock: CEKHIL_clean_sbu_0, # of connection points: 4
#     Node 65, Type 0, BuildingBlock: CEKHIL_clean_sbu_0, # of connection points: 4
#     Node 66, Type 0, BuildingBlock: CEKHIL_clean_sbu_0, # of connection points: 4
#     Node 67, Type 0, BuildingBlock: CEKHIL_clean_sbu_0, # of connection points: 4
#     Node 68, Type 0, BuildingBlock: CEKHIL_clean_sbu_0, # of connection points: 4
#     Node 69, Type 0, BuildingBlock: CEKHIL_clean_sbu_0, # of connection points: 4
#     Node 70, Type 0, BuildingBlock: CEKHIL_clean_sbu_0, # of connection points: 4
#     Node 71, Type 0, BuildingBlock: CEKHIL_clean_sbu_0, # of connection points: 4
#     Node 72, Type 0, BuildingBlock: CEKHIL_clean_sbu_0, # of connection points: 4
#     Node 73, Type 0, BuildingBlock: CEKHIL_clean_sbu_0, # of connection points: 4
#     Node 74, Type 0, BuildingBlock: CEKHIL_clean_sbu_0, # of connection points: 4
#     Node 75, Type 0, BuildingBlock: CEKHIL_clean_sbu_0, # of connection points: 4
#     Node 76, Type 0, BuildingBlock: CEKHIL_clean_sbu_0, # of connection points: 4
#     Node 77, Type 0, BuildingBlock: CEKHIL_clean_sbu_0, # of connection points: 4
#     Node 78, Type 0, BuildingBlock: CEKHIL_clean_sbu_0, # of connection points: 4
#     Node 79, Type 0, BuildingBlock: CEKHIL_clean_sbu_0, # of connection points: 4
#     Node 80, Type 0, BuildingBlock: CEKHIL_clean_sbu_0, # of connection points: 4
#     Node 81, Type 0, BuildingBlock: CEKHIL_clean_sbu_0, # of connection points: 4
#     Node 82, Type 0, BuildingBlock: CEKHIL_clean_sbu_0, # of connection points: 4
#     Node 83, Type 0, BuildingBlock: CEKHIL_clean_sbu_0, # of connection points: 4
#     Node 84, Type 0, BuildingBlock: CEKHIL_clean_sbu_0, # of connection points: 4
#     Node 85, Type 0, BuildingBlock: CEKHIL_clean_sbu_0, # of connection points: 4
#     Node 86, Type 0, BuildingBlock: CEKHIL_clean_sbu_0, # of connection points: 4
#     Node 87, Type 0, BuildingBlock: CEKHIL_clean_sbu_0, # of connection points: 4
#     Node 88, Type 0, BuildingBlock: CEKHIL_clean_sbu_0, # of connection points: 4
#     Node 89, Type 0, BuildingBlock: CEKHIL_clean_sbu_0, # of connection points: 4
#     Node 90, Type 0, BuildingBlock: CEKHIL_clean_sbu_0, # of connection points: 4
#     Node 91, Type 0, BuildingBlock: CEKHIL_clean_sbu_0, # of connection points: 4
#     Node 92, Type 0, BuildingBlock: CEKHIL_clean_sbu_0, # of connection points: 4
#     Node 93, Type 0, BuildingBlock: CEKHIL_clean_sbu_0, # of connection points: 4
#     Node 94, Type 0, BuildingBlock: CEKHIL_clean_sbu_0, # of connection points: 4
#     Node 95, Type 0, BuildingBlock: CEKHIL_clean_sbu_0, # of connection points: 4
#     Edge 96, Type (0, 0), BuildingBlock: CIFDUS_clean_linker_0, # of connection points: 2
#     Edge 97, Type (0, 0), BuildingBlock: CIFDUS_clean_linker_0, # of connection points: 2
#     Edge 98, Type (0, 0), BuildingBlock: CIFDUS_clean_linker_0, # of connection points: 2
#     Edge 99, Type (0, 0), BuildingBlock: CIFDUS_clean_linker_0, # of connection points: 2
#     Edge 100, Type (0, 0), BuildingBlock: CIFDUS_clean_linker_0, # of connection points: 2
#     Edge 101, Type (0, 0), BuildingBlock: CIFDUS_clean_linker_0, # of connection points: 2
#     Edge 102, Type (0, 0), BuildingBlock: CIFDUS_clean_linker_0, # of connection points: 2
#     Edge 103, Type (0, 0), BuildingBlock: CIFDUS_clean_linker_0, # of connection points: 2
#     Edge 104, Type (0, 0), BuildingBlock: CIFDUS_clean_linker_0, # of connection points: 2
#     Edge 105, Type (0, 0), BuildingBlock: CIFDUS_clean_linker_0, # of connection points: 2
#     Edge 106, Type (0, 0), BuildingBlock: CIFDUS_clean_linker_0, # of connection points: 2
#     Edge 107, Type (0, 0), BuildingBlock: CIFDUS_clean_linker_0, # of connection points: 2
#     Edge 108, Type (0, 0), BuildingBlock: CIFDUS_clean_linker_0, # of connection points: 2
#     Edge 109, Type (0, 0), BuildingBlock: CIFDUS_clean_linker_0, # of connection points: 2
#     Edge 110, Type (0, 0), BuildingBlock: CIFDUS_clean_linker_0, # of connection points: 2
#     Edge 111, Type (0, 0), BuildingBlock: CIFDUS_clean_linker_0, # of connection points: 2
#     Edge 112, Type (0, 0), BuildingBlock: CIFDUS_clean_linker_0, # of connection points: 2
#     Edge 113, Type (0, 0), BuildingBlock: CIFDUS_clean_linker_0, # of connection points: 2
#     Edge 114, Type (0, 0), BuildingBlock: CIFDUS_clean_linker_0, # of connection points: 2
#     Edge 115, Type (0, 0), BuildingBlock: CIFDUS_clean_linker_0, # of connection points: 2
#     Edge 116, Type (0, 0), BuildingBlock: CIFDUS_clean_linker_0, # of connection points: 2
#     Edge 117, Type (0, 0), BuildingBlock: CIFDUS_clean_linker_0, # of connection points: 2
#     Edge 118, Type (0, 0), BuildingBlock: CIFDUS_clean_linker_0, # of connection points: 2
#     Edge 119, Type (0, 0), BuildingBlock: CIFDUS_clean_linker_0, # of connection points: 2
#     Edge 120, Type (0, 0), BuildingBlock: CIFDUS_clean_linker_0, # of connection points: 2
#     Edge 121, Type (0, 0), BuildingBlock: CIFDUS_clean_linker_0, # of connection points: 2
#     Edge 122, Type (0, 0), BuildingBlock: CIFDUS_clean_linker_0, # of connection points: 2
#     Edge 123, Type (0, 0), BuildingBlock: CIFDUS_clean_linker_0, # of connection points: 2
#     Edge 124, Type (0, 0), BuildingBlock: CIFDUS_clean_linker_0, # of connection points: 2
#     Edge 125, Type (0, 0), BuildingBlock: CIFDUS_clean_linker_0, # of connection points: 2
#     Edge 126, Type (0, 0), BuildingBlock: CIFDUS_clean_linker_0, # of connection points: 2
#     Edge 127, Type (0, 0), BuildingBlock: CIFDUS_clean_linker_0, # of connection points: 2
#     Edge 128, Type (0, 0), BuildingBlock: CIFDUS_clean_linker_0, # of connection points: 2
#     Edge 129, Type (0, 0), BuildingBlock: CIFDUS_clean_linker_0, # of connection points: 2
#     Edge 130, Type (0, 0), BuildingBlock: CIFDUS_clean_linker_0, # of connection points: 2
#     Edge 131, Type (0, 0), BuildingBlock: CIFDUS_clean_linker_0, # of connection points: 2
#     Edge 132, Type (0, 0), BuildingBlock: CIFDUS_clean_linker_0, # of connection points: 2
#     Edge 133, Type (0, 0), BuildingBlock: CIFDUS_clean_linker_0, # of connection points: 2
#     Edge 134, Type (0, 0), BuildingBlock: CIFDUS_clean_linker_0, # of connection points: 2
#     Edge 135, Type (0, 0), BuildingBlock: CIFDUS_clean_linker_0, # of connection points: 2
#     Edge 136, Type (0, 0), BuildingBlock: CIFDUS_clean_linker_0, # of connection points: 2
#     Edge 137, Type (0, 0), BuildingBlock: CIFDUS_clean_linker_0, # of connection points: 2
#     Edge 138, Type (0, 0), BuildingBlock: CIFDUS_clean_linker_0, # of connection points: 2
#     Edge 139, Type (0, 0), BuildingBlock: CIFDUS_clean_linker_0, # of connection points: 2
#     Edge 140, Type (0, 0), BuildingBlock: CIFDUS_clean_linker_0, # of connection points: 2
#     Edge 141, Type (0, 0), BuildingBlock: CIFDUS_clean_linker_0, # of connection points: 2
#     Edge 142, Type (0, 0), BuildingBlock: CIFDUS_clean_linker_0, # of connection points: 2
#     Edge 143, Type (0, 0), BuildingBlock: CIFDUS_clean_linker_0, # of connection points: 2
#     Edge 144, Type (0, 0), BuildingBlock: CIFDUS_clean_linker_0, # of connection points: 2
#     Edge 145, Type (0, 0), BuildingBlock: CIFDUS_clean_linker_0, # of connection points: 2
#     Edge 146, Type (0, 0), BuildingBlock: CIFDUS_clean_linker_0, # of connection points: 2
#     Edge 147, Type (0, 0), BuildingBlock: CIFDUS_clean_linker_0, # of connection points: 2
#     Edge 148, Type (0, 0), BuildingBlock: CIFDUS_clean_linker_0, # of connection points: 2
#     Edge 149, Type (0, 0), BuildingBlock: CIFDUS_clean_linker_0, # of connection points: 2
#     Edge 150, Type (0, 0), BuildingBlock: CIFDUS_clean_linker_0, # of connection points: 2
#     Edge 151, Type (0, 0), BuildingBlock: CIFDUS_clean_linker_0, # of connection points: 2
#     Edge 152, Type (0, 0), BuildingBlock: CIFDUS_clean_linker_0, # of connection points: 2
#     Edge 153, Type (0, 0), BuildingBlock: CIFDUS_clean_linker_0, # of connection points: 2
#     Edge 154, Type (0, 0), BuildingBlock: CIFDUS_clean_linker_0, # of connection points: 2
#     Edge 155, Type (0, 0), BuildingBlock: CIFDUS_clean_linker_0, # of connection points: 2
#     Edge 156, Type (0, 0), BuildingBlock: CIFDUS_clean_linker_0, # of connection points: 2
#     Edge 157, Type (0, 0), BuildingBlock: CIFDUS_clean_linker_0, # of connection points: 2
#     Edge 158, Type (0, 0), BuildingBlock: CIFDUS_clean_linker_0, # of connection points: 2
#     Edge 159, Type (0, 0), BuildingBlock: CIFDUS_clean_linker_0, # of connection points: 2
#     Edge 160, Type (0, 0), BuildingBlock: CIFDUS_clean_linker_0, # of connection points: 2
#     Edge 161, Type (0, 0), BuildingBlock: CIFDUS_clean_linker_0, # of connection points: 2
#     Edge 162, Type (0, 0), BuildingBlock: CIFDUS_clean_linker_0, # of connection points: 2
#     Edge 163, Type (0, 0), BuildingBlock: CIFDUS_clean_linker_0, # of connection points: 2
#     Edge 164, Type (0, 0), BuildingBlock: CIFDUS_clean_linker_0, # of connection points: 2
#     Edge 165, Type (0, 0), BuildingBlock: CIFDUS_clean_linker_0, # of connection points: 2
#     Edge 166, Type (0, 0), BuildingBlock: CIFDUS_clean_linker_0, # of connection points: 2
#     Edge 167, Type (0, 0), BuildingBlock: CIFDUS_clean_linker_0, # of connection points: 2
#     Edge 168, Type (0, 0), BuildingBlock: CIFDUS_clean_linker_0, # of connection points: 2
#     Edge 169, Type (0, 0), BuildingBlock: CIFDUS_clean_linker_0, # of connection points: 2
#     Edge 170, Type (0, 0), BuildingBlock: CIFDUS_clean_linker_0, # of connection points: 2
#     Edge 171, Type (0, 0), BuildingBlock: CIFDUS_clean_linker_0, # of connection points: 2
#     Edge 172, Type (0, 0), BuildingBlock: CIFDUS_clean_linker_0, # of connection points: 2
#     Edge 173, Type (0, 0), BuildingBlock: CIFDUS_clean_linker_0, # of connection points: 2
#     Edge 174, Type (0, 0), BuildingBlock: CIFDUS_clean_linker_0, # of connection points: 2
#     Edge 175, Type (0, 0), BuildingBlock: CIFDUS_clean_linker_0, # of connection points: 2
#     Edge 176, Type (0, 0), BuildingBlock: CIFDUS_clean_linker_0, # of connection points: 2
#     Edge 177, Type (0, 0), BuildingBlock: CIFDUS_clean_linker_0, # of connection points: 2
#     Edge 178, Type (0, 0), BuildingBlock: CIFDUS_clean_linker_0, # of connection points: 2
#     Edge 179, Type (0, 0), BuildingBlock: CIFDUS_clean_linker_0, # of connection points: 2
#     Edge 180, Type (0, 0), BuildingBlock: CIFDUS_clean_linker_0, # of connection points: 2
#     Edge 181, Type (0, 0), BuildingBlock: CIFDUS_clean_linker_0, # of connection points: 2
#     Edge 182, Type (0, 0), BuildingBlock: CIFDUS_clean_linker_0, # of connection points: 2
#     Edge 183, Type (0, 0), BuildingBlock: CIFDUS_clean_linker_0, # of connection points: 2
#     Edge 184, Type (0, 0), BuildingBlock: CIFDUS_clean_linker_0, # of connection points: 2
#     Edge 185, Type (0, 0), BuildingBlock: CIFDUS_clean_linker_0, # of connection points: 2
#     Edge 186, Type (0, 0), BuildingBlock: CIFDUS_clean_linker_0, # of connection points: 2
#     Edge 187, Type (0, 0), BuildingBlock: CIFDUS_clean_linker_0, # of connection points: 2
#     Edge 188, Type (0, 0), BuildingBlock: CIFDUS_clean_linker_0, # of connection points: 2
#     Edge 189, Type (0, 0), BuildingBlock: CIFDUS_clean_linker_0, # of connection points: 2
#     Edge 190, Type (0, 0), BuildingBlock: CIFDUS_clean_linker_0, # of connection points: 2
#     Edge 191, Type (0, 0), BuildingBlock: CIFDUS_clean_linker_0, # of connection points: 2
#     Edge 192, Type (0, 0), BuildingBlock: CIFDUS_clean_linker_0, # of connection points: 2
#     Edge 193, Type (0, 0), BuildingBlock: CIFDUS_clean_linker_0, # of connection points: 2
#     Edge 194, Type (0, 0), BuildingBlock: CIFDUS_clean_linker_0, # of connection points: 2
#     Edge 195, Type (0, 0), BuildingBlock: CIFDUS_clean_linker_0, # of connection points: 2
#     Edge 196, Type (0, 0), BuildingBlock: CIFDUS_clean_linker_0, # of connection points: 2
#     Edge 197, Type (0, 0), BuildingBlock: CIFDUS_clean_linker_0, # of connection points: 2
#     Edge 198, Type (0, 0), BuildingBlock: CIFDUS_clean_linker_0, # of connection points: 2
#     Edge 199, Type (0, 0), BuildingBlock: CIFDUS_clean_linker_0, # of connection points: 2
#     Edge 200, Type (0, 0), BuildingBlock: CIFDUS_clean_linker_0, # of connection points: 2
#     Edge 201, Type (0, 0), BuildingBlock: CIFDUS_clean_linker_0, # of connection points: 2
#     Edge 202, Type (0, 0), BuildingBlock: CIFDUS_clean_linker_0, # of connection points: 2
#     Edge 203, Type (0, 0), BuildingBlock: CIFDUS_clean_linker_0, # of connection points: 2
#     Edge 204, Type (0, 0), BuildingBlock: CIFDUS_clean_linker_0, # of connection points: 2
#     Edge 205, Type (0, 0), BuildingBlock: CIFDUS_clean_linker_0, # of connection points: 2
#     Edge 206, Type (0, 0), BuildingBlock: CIFDUS_clean_linker_0, # of connection points: 2
#     Edge 207, Type (0, 0), BuildingBlock: CIFDUS_clean_linker_0, # of connection points: 2
#     Edge 208, Type (0, 0), BuildingBlock: CIFDUS_clean_linker_0, # of connection points: 2
#     Edge 209, Type (0, 0), BuildingBlock: CIFDUS_clean_linker_0, # of connection points: 2
#     Edge 210, Type (0, 0), BuildingBlock: CIFDUS_clean_linker_0, # of connection points: 2
#     Edge 211, Type (0, 0), BuildingBlock: CIFDUS_clean_linker_0, # of connection points: 2
#     Edge 212, Type (0, 0), BuildingBlock: CIFDUS_clean_linker_0, # of connection points: 2
#     Edge 213, Type (0, 0), BuildingBlock: CIFDUS_clean_linker_0, # of connection points: 2
#     Edge 214, Type (0, 0), BuildingBlock: CIFDUS_clean_linker_0, # of connection points: 2
#     Edge 215, Type (0, 0), BuildingBlock: CIFDUS_clean_linker_0, # of connection points: 2
#     Edge 216, Type (0, 0), BuildingBlock: CIFDUS_clean_linker_0, # of connection points: 2
#     Edge 217, Type (0, 0), BuildingBlock: CIFDUS_clean_linker_0, # of connection points: 2
#     Edge 218, Type (0, 0), BuildingBlock: CIFDUS_clean_linker_0, # of connection points: 2
#     Edge 219, Type (0, 0), BuildingBlock: CIFDUS_clean_linker_0, # of connection points: 2
#     Edge 220, Type (0, 0), BuildingBlock: CIFDUS_clean_linker_0, # of connection points: 2
#     Edge 221, Type (0, 0), BuildingBlock: CIFDUS_clean_linker_0, # of connection points: 2
#     Edge 222, Type (0, 0), BuildingBlock: CIFDUS_clean_linker_0, # of connection points: 2
#     Edge 223, Type (0, 0), BuildingBlock: CIFDUS_clean_linker_0, # of connection points: 2
#     Edge 224, Type (0, 0), BuildingBlock: CIFDUS_clean_linker_0, # of connection points: 2
#     Edge 225, Type (0, 0), BuildingBlock: CIFDUS_clean_linker_0, # of connection points: 2
#     Edge 226, Type (0, 0), BuildingBlock: CIFDUS_clean_linker_0, # of connection points: 2
#     Edge 227, Type (0, 0), BuildingBlock: CIFDUS_clean_linker_0, # of connection points: 2
#     Edge 228, Type (0, 0), BuildingBlock: CIFDUS_clean_linker_0, # of connection points: 2
#     Edge 229, Type (0, 0), BuildingBlock: CIFDUS_clean_linker_0, # of connection points: 2
#     Edge 230, Type (0, 0), BuildingBlock: CIFDUS_clean_linker_0, # of connection points: 2
#     Edge 231, Type (0, 0), BuildingBlock: CIFDUS_clean_linker_0, # of connection points: 2
#     Edge 232, Type (0, 0), BuildingBlock: CIFDUS_clean_linker_0, # of connection points: 2
#     Edge 233, Type (0, 0), BuildingBlock: CIFDUS_clean_linker_0, # of connection points: 2
#     Edge 234, Type (0, 0), BuildingBlock: CIFDUS_clean_linker_0, # of connection points: 2
#     Edge 235, Type (0, 0), BuildingBlock: CIFDUS_clean_linker_0, # of connection points: 2
#     Edge 236, Type (0, 0), BuildingBlock: CIFDUS_clean_linker_0, # of connection points: 2
#     Edge 237, Type (0, 0), BuildingBlock: CIFDUS_clean_linker_0, # of connection points: 2
#     Edge 238, Type (0, 0), BuildingBlock: CIFDUS_clean_linker_0, # of connection points: 2
#     Edge 239, Type (0, 0), BuildingBlock: CIFDUS_clean_linker_0, # of connection points: 2
#     Edge 240, Type (0, 0), BuildingBlock: CIFDUS_clean_linker_0, # of connection points: 2
#     Edge 241, Type (0, 0), BuildingBlock: CIFDUS_clean_linker_0, # of connection points: 2
#     Edge 242, Type (0, 0), BuildingBlock: CIFDUS_clean_linker_0, # of connection points: 2
#     Edge 243, Type (0, 0), BuildingBlock: CIFDUS_clean_linker_0, # of connection points: 2
#     Edge 244, Type (0, 0), BuildingBlock: CIFDUS_clean_linker_0, # of connection points: 2
#     Edge 245, Type (0, 0), BuildingBlock: CIFDUS_clean_linker_0, # of connection points: 2
#     Edge 246, Type (0, 0), BuildingBlock: CIFDUS_clean_linker_0, # of connection points: 2
#     Edge 247, Type (0, 0), BuildingBlock: CIFDUS_clean_linker_0, # of connection points: 2
#     Edge 248, Type (0, 0), BuildingBlock: CIFDUS_clean_linker_0, # of connection points: 2
#     Edge 249, Type (0, 0), BuildingBlock: CIFDUS_clean_linker_0, # of connection points: 2
#     Edge 250, Type (0, 0), BuildingBlock: CIFDUS_clean_linker_0, # of connection points: 2
#     Edge 251, Type (0, 0), BuildingBlock: CIFDUS_clean_linker_0, # of connection points: 2
#     Edge 252, Type (0, 0), BuildingBlock: CIFDUS_clean_linker_0, # of connection points: 2
#     Edge 253, Type (0, 0), BuildingBlock: CIFDUS_clean_linker_0, # of connection points: 2
#     Edge 254, Type (0, 0), BuildingBlock: CIFDUS_clean_linker_0, # of connection points: 2
#     Edge 255, Type (0, 0), BuildingBlock: CIFDUS_clean_linker_0, # of connection points: 2
#     Edge 256, Type (0, 0), BuildingBlock: CIFDUS_clean_linker_0, # of connection points: 2
#     Edge 257, Type (0, 0), BuildingBlock: CIFDUS_clean_linker_0, # of connection points: 2
#     Edge 258, Type (0, 0), BuildingBlock: CIFDUS_clean_linker_0, # of connection points: 2
#     Edge 259, Type (0, 0), BuildingBlock: CIFDUS_clean_linker_0, # of connection points: 2
#     Edge 260, Type (0, 0), BuildingBlock: CIFDUS_clean_linker_0, # of connection points: 2
#     Edge 261, Type (0, 0), BuildingBlock: CIFDUS_clean_linker_0, # of connection points: 2
#     Edge 262, Type (0, 0), BuildingBlock: CIFDUS_clean_linker_0, # of connection points: 2
#     Edge 263, Type (0, 0), BuildingBlock: CIFDUS_clean_linker_0, # of connection points: 2
#     Edge 264, Type (0, 0), BuildingBlock: CIFDUS_clean_linker_0, # of connection points: 2
#     Edge 265, Type (0, 0), BuildingBlock: CIFDUS_clean_linker_0, # of connection points: 2
#     Edge 266, Type (0, 0), BuildingBlock: CIFDUS_clean_linker_0, # of connection points: 2
#     Edge 267, Type (0, 0), BuildingBlock: CIFDUS_clean_linker_0, # of connection points: 2
#     Edge 268, Type (0, 0), BuildingBlock: CIFDUS_clean_linker_0, # of connection points: 2
#     Edge 269, Type (0, 0), BuildingBlock: CIFDUS_clean_linker_0, # of connection points: 2
#     Edge 270, Type (0, 0), BuildingBlock: CIFDUS_clean_linker_0, # of connection points: 2
#     Edge 271, Type (0, 0), BuildingBlock: CIFDUS_clean_linker_0, # of connection points: 2
#     Edge 272, Type (0, 0), BuildingBlock: CIFDUS_clean_linker_0, # of connection points: 2
#     Edge 273, Type (0, 0), BuildingBlock: CIFDUS_clean_linker_0, # of connection points: 2
#     Edge 274, Type (0, 0), BuildingBlock: CIFDUS_clean_linker_0, # of connection points: 2
#     Edge 275, Type (0, 0), BuildingBlock: CIFDUS_clean_linker_0, # of connection points: 2
#     Edge 276, Type (0, 0), BuildingBlock: CIFDUS_clean_linker_0, # of connection points: 2
#     Edge 277, Type (0, 0), BuildingBlock: CIFDUS_clean_linker_0, # of connection points: 2
#     Edge 278, Type (0, 0), BuildingBlock: CIFDUS_clean_linker_0, # of connection points: 2
#     Edge 279, Type (0, 0), BuildingBlock: CIFDUS_clean_linker_0, # of connection points: 2
#     Edge 280, Type (0, 0), BuildingBlock: CIFDUS_clean_linker_0, # of connection points: 2
#     Edge 281, Type (0, 0), BuildingBlock: CIFDUS_clean_linker_0, # of connection points: 2
#     Edge 282, Type (0, 0), BuildingBlock: CIFDUS_clean_linker_0, # of connection points: 2
#     Edge 283, Type (0, 0), BuildingBlock: CIFDUS_clean_linker_0, # of connection points: 2
#     Edge 284, Type (0, 0), BuildingBlock: CIFDUS_clean_linker_0, # of connection points: 2
#     Edge 285, Type (0, 0), BuildingBlock: CIFDUS_clean_linker_0, # of connection points: 2
#     Edge 286, Type (0, 0), BuildingBlock: CIFDUS_clean_linker_0, # of connection points: 2
#     Edge 287, Type (0, 0), BuildingBlock: CIFDUS_clean_linker_0, # of connection points: 2
# Relax obj value: 0.129
# Max RMSD: 0.219
# Mean RMSD: 0.209
data_MOF--net-gie--node1-CEKHIL_clean_sbu_0--edge1-CIFDUS_clean_linker_0
_symmetry_space_group_name_H-M    P1
_symmetry_Int_Tables_number       1
_symmetry_cell_setting            triclinic
loop_
_symmetry_equiv_pos_as_xyz
'x, y, z'
_cell_length_a     74.728945
_cell_length_b     74.17065
_cell_length_c     74.080228
_cell_angle_alpha  90.007971
_cell_angle_beta   89.975179
_cell_angle_gamma 89.969891
loop_
_atom_site_label
_atom_site_type_symbol
_atom_site_fract_x
_atom_site_fract_y
_atom_site_fract_z
_atom_type_partial_charge
Co0 Co 0.99613 0.13099 0.39927 0.0
O1 O 0.98054 0.11161 0.4055 0.0
O2 O 0.99044 0.11724 0.37779 0.0
C3 C 0.016 0.1275 0.42144 0.0
O4 O 0.0129 0.14975 0.38836 0.0
Co5 Co 0.99872 0.16323 0.42575 0.0
O6 O 0.02067 0.16802 0.41136 0.0
C7 C 0.9671 0.15995 0.40272 0.0
C8 C 0.98063 0.10743 0.3885 0.0
C9 C 0.02287 0.16205 0.39537 0.0
O10 O 0.97487 0.14672 0.39482 0.0
O11 O 0.97383 0.16803 0.41641 0.0
O12 O 0.01678 0.11749 0.40706 0.0
O13 O 0.00178 0.13736 0.4231 0.0
Co14 Co 0.11992 0.75273 0.65735 0.0
O15 O 0.13952 0.73852 0.66615 0.0
O16 O 0.13218 0.74162 0.63729 0.0
C17 C 0.12534 0.7776 0.67386 0.0
O18 O 0.10115 0.76649 0.64314 0.0
Co19 Co 0.08936 0.76447 0.68306 0.0
O20 O 0.08383 0.78137 0.66301 0.0
C21 C 0.08933 0.72753 0.66846 0.0
C22 C 0.1428 0.73472 0.64935 0.0
C23 C 0.08911 0.77824 0.64696 0.0
O24 O 0.1034 0.73144 0.65928 0.0
O25 O 0.08204 0.73855 0.67958 0.0
O26 O 0.13417 0.77452 0.65908 0.0
O27 O 0.11504 0.76463 0.67927 0.0
Co28 Co 0.493 0.87034 0.89576 0.0
O29 O 0.50819 0.88965 0.90309 0.0
O30 O 0.50106 0.88352 0.87468 0.0
C31 C 0.47128 0.87528 0.91595 0.0
O32 O 0.47707 0.85157 0.88364 0.0
Co33 Co 0.48697 0.83899 0.92251 0.0
O34 O 0.46652 0.83412 0.9061 0.0
C35 C 0.52089 0.8408 0.9028 0.0
C36 C 0.50975 0.89358 0.88612 0.0
C37 C 0.46618 0.8396 0.8898 0.0
O38 O 0.51435 0.85411 0.89393 0.0
O39 O 0.51251 0.83313 0.91578 0.0
O40 O 0.47199 0.88453 0.90109 0.0
O41 O 0.48488 0.86489 0.91913 0.0
Co42 Co 0.38087 0.25194 0.15257 0.0
O43 O 0.36116 0.26717 0.15916 0.0
O44 O 0.3683 0.25981 0.13108 0.0
C45 C 0.37592 0.22983 0.17265 0.0
O46 O 0.39988 0.23605 0.14086 0.0
Co47 Co 0.41131 0.24498 0.18037 0.0
O48 O 0.41679 0.22493 0.16344 0.0
C49 C 0.41069 0.27923 0.16034 0.0
C50 C 0.35766 0.26838 0.14205 0.0
C51 C 0.41174 0.22504 0.14699 0.0
O52 O 0.39722 0.27344 0.15121 0.0
O53 O 0.41761 0.27042 0.17347 0.0
O54 O 0.36686 0.23049 0.1577 0.0
O55 O 0.38583 0.24373 0.17598 0.0
Co56 Co 0.99868 0.86652 0.09824 0.0
O57 O 0.98123 0.88477 0.09369 0.0
O58 O 0.99091 0.87701 0.12093 0.0
C59 C 0.01847 0.87518 0.07733 0.0
O60 O 0.01702 0.84842 0.10761 0.0
Co61 Co 0.00626 0.83841 0.0681 0.0
O62 O 0.02773 0.83381 0.08321 0.0
C63 C 0.97354 0.83508 0.08973 0.0
C64 C 0.98058 0.8871 0.11102 0.0
C65 C 0.02845 0.8379 0.09991 0.0
O66 O 0.97919 0.84805 0.09969 0.0
O67 O 0.98181 0.82971 0.07557 0.0
O68 O 0.01789 0.88317 0.09292 0.0
O69 O 0.0057 0.86383 0.07412 0.0
Co70 Co 0.37935 0.74886 0.34621 0.0
O71 O 0.36041 0.73293 0.3391 0.0
O72 O 0.36782 0.73892 0.36743 0.0
C73 C 0.37242 0.77173 0.32758 0.0
O74 O 0.39786 0.76495 0.35847 0.0
Co75 Co 0.40859 0.75904 0.31823 0.0
O76 O 0.41406 0.77794 0.33639 0.0
C77 C 0.41069 0.72393 0.33654 0.0
C78 C 0.35748 0.73038 0.35617 0.0
C79 C 0.40943 0.77654 0.3529 0.0
O80 O 0.39687 0.72832 0.3459 0.0
O81 O 0.41701 0.73389 0.32393 0.0
O82 O 0.36398 0.7697 0.34277 0.0
O83 O 0.38315 0.75875 0.32319 0.0
Co84 Co 0.49403 0.1313 0.60009 0.0
O85 O 0.50992 0.11246 0.59263 0.0
O86 O 0.50492 0.12045 0.62108 0.0
C87 C 0.47077 0.12338 0.5828 0.0
O88 O 0.47813 0.14967 0.61271 0.0
Co89 Co 0.48233 0.16014 0.5724 0.0
O90 O 0.46376 0.16506 0.59094 0.0
C91 C 0.51811 0.16269 0.58848 0.0
C92 C 0.51309 0.10994 0.60966 0.0
C93 C 0.46584 0.16061 0.60742 0.0
O94 O 0.51406 0.14919 0.59852 0.0
O95 O 0.50763 0.16881 0.57625 0.0
O96 O 0.47374 0.11531 0.59805 0.0
O97 O 0.4831 0.13445 0.57745 0.0
Co98 Co 0.1252 0.24259 0.8515 0.0
O99 O 0.14503 0.25694 0.84403 0.0
O100 O 0.13743 0.25206 0.87258 0.0
C101 C 0.13084 0.21927 0.83304 0.0
O102 O 0.10557 0.22811 0.86396 0.0
Co103 Co 0.09533 0.23529 0.82399 0.0
O104 O 0.0882 0.21678 0.8419 0.0
C105 C 0.0965 0.27053 0.84165 0.0
C106 C 0.14801 0.25988 0.861 0.0
C107 C 0.09301 0.21763 0.85838 0.0
O108 O 0.1096 0.26451 0.85104 0.0
O109 O 0.08902 0.26128 0.82916 0.0
O110 O 0.13897 0.2208 0.84844 0.0
O111 O 0.1209 0.23283 0.82835 0.0
Co112 Co 0.3877 -0.00024 0.12751 0.0
O113 O 0.39474 0.01983 0.11302 0.0
O114 O 0.40824 0.01182 0.13835 0.0
C115 C 0.38507 0.98041 0.10426 0.0
O116 O 0.38402 0.97925 0.14555 0.0
Co117 Co 0.35007 0.98346 0.12208 0.0
O118 O 0.36074 0.96296 0.13544 0.0
C119 C 0.35393 0.01619 0.14422 0.0
C120 C 0.40744 0.02269 0.12454 0.0
C121 C 0.37402 0.9651 0.14602 0.0
O122 O 0.37093 0.01551 0.14169 0.0
O123 O 0.34299 0.00506 0.13695 0.0
O124 O 0.40054 0.98338 0.11166 0.0
O125 O 0.37203 0.99034 0.11005 0.0
Co126 Co 0.25365 0.15678 0.37774 0.0
O127 O 0.26805 0.16366 0.35749 0.0
O128 O 0.26237 0.13546 0.36561 0.0
C129 C 0.23057 0.17545 0.37245 0.0
O130 O 0.23894 0.14456 0.39723 0.0
Co131 Co 0.24524 0.1845 0.40803 0.0
O132 O 0.22652 0.16647 0.41411 0.0
C133 C 0.28024 0.16622 0.40777 0.0
C134 C 0.26996 0.14653 0.35436 0.0
C135 C 0.22778 0.15004 0.40922 0.0
O136 O 0.27517 0.15693 0.39403 0.0
O137 O 0.27069 0.17876 0.41476 0.0
O138 O 0.232 0.16032 0.36374 0.0
O139 O 0.24418 0.17979 0.38234 0.0
Co140 Co 0.09606 0.99705 0.62221 0.0
O141 O 0.08645 0.97718 0.60917 0.0
O142 O 0.07662 0.98632 0.6359 0.0
C143 C 0.09704 0.01577 0.59854 0.0
O144 O 0.10265 0.01757 0.63921 0.0
Co145 Co 0.1335 0.01204 0.61233 0.0
O146 O 0.12464 0.03336 0.62586 0.0
C147 C 0.13073 0.979 0.63423 0.0
C148 C 0.0753 0.97513 0.62241 0.0
C149 C 0.1126 0.03167 0.63792 0.0
O150 O 0.11363 0.98066 0.63434 0.0
O151 O 0.1412 0.98971 0.62571 0.0
O152 O 0.08226 0.01377 0.60758 0.0
O153 O 0.11016 0.00539 0.60315 0.0
Co154 Co 0.24174 0.84402 0.87574 0.0
O155 O 0.22302 0.83776 0.85935 0.0
O156 O 0.23523 0.86496 0.86164 0.0
C157 C 0.25929 0.82033 0.86994 0.0
O158 O 0.26163 0.85502 0.891 0.0
Co159 Co 0.24848 0.81941 0.90863 0.0
O160 O 0.2711 0.83336 0.91001 0.0
C161 C 0.21793 0.8442 0.90938 0.0
C162 C 0.2237 0.85434 0.85386 0.0
C163 C 0.27283 0.84877 0.90263 0.0
O164 O 0.22352 0.85062 0.89434 0.0
O165 O 0.22535 0.83071 0.91716 0.0
O166 O 0.25941 0.83434 0.85947 0.0
O167 O 0.24713 0.82012 0.88244 0.0
Co168 Co 0.39348 0.99229 0.37119 0.0
O169 O 0.40008 0.97205 0.38566 0.0
O170 O 0.41539 0.98158 0.36191 0.0
C171 C 0.38756 0.01045 0.39477 0.0
O172 O 0.39079 0.01322 0.35345 0.0
Co173 Co 0.35498 0.00764 0.37327 0.0
O174 O 0.36619 0.02877 0.36137 0.0
C175 C 0.36191 0.97454 0.35225 0.0
C176 C 0.41385 0.97017 0.37519 0.0
C177 C 0.38058 0.02718 0.35227 0.0
O178 O 0.37876 0.97626 0.35522 0.0
O179 O 0.35008 0.98509 0.35901 0.0
O180 O 0.40385 0.00862 0.38891 0.0
O181 O 0.3757 0.00039 0.38709 0.0
Co182 Co 0.24543 0.15155 0.61365 0.0
O183 O 0.22717 0.15745 0.63073 0.0
O184 O 0.23517 0.12955 0.62343 0.0
C185 C 0.26604 0.17071 0.6242 0.0
O186 O 0.26427 0.14092 0.59664 0.0
Co187 Co 0.25696 0.18121 0.58662 0.0
O188 O 0.2776 0.16469 0.58328 0.0
C189 C 0.2229 0.16247 0.58093 0.0
C190 C 0.22502 0.14027 0.63289 0.0
C191 C 0.27691 0.14793 0.58708 0.0
O192 O 0.22712 0.15186 0.59393 0.0
O193 O 0.23253 0.17598 0.57629 0.0
O194 O 0.26376 0.15506 0.63169 0.0
O195 O 0.25445 0.1751 0.61196 0.0
Co196 Co 0.10771 0.00522 0.86924 0.0
O197 O 0.09764 0.02552 0.88135 0.0
O198 O 0.08808 0.01514 0.85507 0.0
C199 C 0.10851 0.98747 0.89379 0.0
O200 O 0.11482 0.98399 0.8532 0.0
Co201 Co 0.14522 0.99148 0.88061 0.0
O202 O 0.13753 0.96974 0.86709 0.0
C203 C 0.14235 0.02339 0.8571 0.0
C204 C 0.08637 0.02678 0.86813 0.0
C205 C 0.12551 0.97045 0.8549 0.0
O206 O 0.12528 0.02132 0.85658 0.0
O207 O 0.15273 0.01343 0.86658 0.0
O208 O 0.09392 0.98895 0.88438 0.0
O209 O 0.12155 0.99785 0.889 0.0
Co210 Co 0.25072 0.83461 0.11539 0.0
O211 O 0.26467 0.82321 0.13393 0.0
O212 O 0.25952 0.85263 0.13178 0.0
C213 C 0.22719 0.81591 0.11631 0.0
O214 O 0.23678 0.85122 0.09878 0.0
Co215 Co 0.24239 0.81476 0.07971 0.0
O216 O 0.22443 0.83433 0.07688 0.0
C217 C 0.27749 0.83221 0.08429 0.0
C218 C 0.26682 0.8393 0.14049 0.0
C219 C 0.22605 0.84913 0.08543 0.0
O220 O 0.27251 0.83757 0.09997 0.0
O221 O 0.2678 0.8221 0.07424 0.0
O222 O 0.22884 0.82889 0.12795 0.0
O223 O 0.24083 0.81321 0.10583 0.0
Co224 Co 0.13144 0.40678 0.00264 0.0
O225 O 0.11465 0.41623 0.98541 0.0
O226 O 0.11807 0.38723 0.99159 0.0
C227 C 0.12532 0.42611 0.02527 0.0
O228 O 0.14709 0.39231 0.02 0.0
Co229 Co 0.16305 0.43096 0.01532 0.0
O230 O 0.1644 0.41244 0.03464 0.0
C231 C 0.16504 0.41336 0.97979 0.0
C232 C 0.10982 0.3997 0.98242 0.0
C233 C 0.15799 0.39663 0.03275 0.0
O234 O 0.15032 0.40508 0.98331 0.0
O235 O 0.17182 0.42526 0.99029 0.0
O236 O 0.11518 0.41216 0.02249 0.0
O237 O 0.13733 0.42906 0.01305 0.0
Co238 Co 0.61939 0.10698 0.98937 0.0
O239 O 0.60102 0.09767 0.00475 0.0
O240 O 0.6063 0.12674 0.00057 0.0
C241 C 0.61377 0.08911 0.96556 0.0
O242 O 0.63734 0.12104 0.97396 0.0
Co243 Co 0.65041 0.08126 0.97914 0.0
O244 O 0.65476 0.10008 0.96062 0.0
C245 C 0.6505 0.09805 0.01495 0.0
C246 C 0.597 0.11422 0.0086 0.0
C247 C 0.64924 0.11625 0.96229 0.0
O248 O 0.63652 0.10687 0.01017 0.0
O249 O 0.65788 0.08614 0.00486 0.0
O250 O 0.60445 0.10365 0.96829 0.0
O251 O 0.62466 0.08471 0.97843 0.0
Co252 Co 0.14049 0.37596 0.2409 0.0
O253 O 0.14858 0.36557 0.21881 0.0
O254 O 0.16224 0.38797 0.233 0.0
C255 C 0.13509 0.34981 0.25506 0.0
O256 O 0.13592 0.38951 0.26447 0.0
Co257 Co 0.10116 0.37001 0.25246 0.0
O258 O 0.11079 0.37767 0.2762 0.0
C259 C 0.1091 0.39631 0.22401 0.0
C260 C 0.16166 0.37703 0.21924 0.0
C261 C 0.12487 0.38727 0.27764 0.0
O262 O 0.12583 0.3937 0.22688 0.0
O263 O 0.09674 0.38764 0.23225 0.0
O264 O 0.15117 0.35646 0.25459 0.0
O265 O 0.12326 0.35817 0.24544 0.0
Co266 Co 0.86564 0.90355 0.49437 0.0
O267 O 0.88451 0.91463 0.50768 0.0
O268 O 0.88269 0.88536 0.50186 0.0
C269 C 0.86494 0.92353 0.47166 0.0
O270 O 0.84815 0.88765 0.48063 0.0
Co271 Co 0.82995 0.92439 0.49027 0.0
O272 O 0.82532 0.9055 0.47189 0.0
C273 C 0.83733 0.90539 0.52421 0.0
C274 C 0.89122 0.89862 0.50952 0.0
C275 C 0.83379 0.89059 0.47156 0.0
O276 O 0.8519 0.89955 0.51719 0.0
O277 O 0.82693 0.91649 0.51612 0.0
O278 O 0.87656 0.91049 0.47174 0.0
O279 O 0.85558 0.92534 0.48626 0.0
Co280 Co 0.85966 0.12251 0.23382 0.0
O281 O 0.8553 0.13535 0.21194 0.0
O282 O 0.84074 0.1107 0.22029 0.0
C283 C 0.86002 0.14673 0.25188 0.0
O284 O 0.86054 0.10625 0.25603 0.0
Co285 Co 0.89518 0.12868 0.254 0.0
O286 O 0.88119 0.11847 0.27435 0.0
C287 C 0.89486 0.10435 0.22274 0.0
C288 C 0.843 0.12354 0.20849 0.0
C289 C 0.86815 0.10777 0.27155 0.0
O290 O 0.87798 0.10721 0.22131 0.0
O291 O 0.90464 0.11203 0.23466 0.0
O292 O 0.84498 0.13934 0.24718 0.0
O293 O 0.87423 0.14052 0.24399 0.0
Co294 Co 0.36578 0.5963 0.50601 0.0
O295 O 0.3838 0.58641 0.49049 0.0
O296 O 0.37738 0.61552 0.49267 0.0
C297 C 0.37381 0.58092 0.53096 0.0
O298 O 0.34827 0.61126 0.52099 0.0
Co299 Co 0.33655 0.57121 0.52096 0.0
O300 O 0.33266 0.59156 0.53787 0.0
C301 C 0.33342 0.58404 0.48361 0.0
C302 C 0.38704 0.60281 0.48544 0.0
C303 C 0.33743 0.60758 0.53398 0.0
O304 O 0.34754 0.59353 0.48629 0.0
O305 O 0.32703 0.57333 0.49555 0.0
O306 O 0.38199 0.59563 0.52633 0.0
O307 O 0.36226 0.57483 0.51939 0.0
Co308 Co 0.1373 0.62328 0.26184 0.0
O309 O 0.14295 0.63684 0.28312 0.0
O310 O 0.1584 0.61328 0.27348 0.0
C311 C 0.13273 0.64743 0.24402 0.0
O312 O 0.13569 0.60635 0.24015 0.0
Co313 Co 0.09983 0.62644 0.24409 0.0
O314 O 0.11226 0.61512 0.2233 0.0
C315 C 0.10455 0.6031 0.27601 0.0
C316 C 0.15645 0.62609 0.28534 0.0
C317 C 0.12634 0.60569 0.22556 0.0
O318 O 0.12138 0.60678 0.27614 0.0
O319 O 0.09349 0.61017 0.26486 0.0
O320 O 0.14885 0.64144 0.24677 0.0
O321 O 0.12023 0.63963 0.25317 0.0
Co322 Co 0.35301 0.38133 0.76064 0.0
O323 O 0.3381 0.37315 0.77989 0.0
O324 O 0.33724 0.40075 0.76825 0.0
C325 C 0.34953 0.35695 0.74308 0.0
O326 O 0.36604 0.39397 0.73997 0.0
Co327 Co 0.3877 0.35994 0.75179 0.0
O328 O 0.38647 0.3744 0.7293 0.0
C329 C 0.38732 0.3843 0.78299 0.0
C330 C 0.33109 0.38913 0.77986 0.0
C331 C 0.37759 0.38904 0.728 0.0
O332 O 0.37153 0.38949 0.77848 0.0
O333 O 0.39591 0.3719 0.77466 0.0
O334 O 0.33752 0.36965 0.74302 0.0
O335 O 0.36203 0.35857 0.75499 0.0
Co336 Co 0.99426 0.86831 0.59339 0.0
O337 O 0.00955 0.88564 0.58239 0.0
O338 O 0.00329 0.88478 0.61162 0.0
C339 C 0.97237 0.87053 0.57288 0.0
O340 O 0.9785 0.85229 0.60911 0.0
Co341 Co 0.98641 0.8331 0.57273 0.0
O342 O 0.96666 0.83147 0.59054 0.0
C343 C 0.02062 0.83678 0.59177 0.0
C344 C 0.01176 0.89249 0.59832 0.0
C345 C 0.96732 0.83954 0.60571 0.0
O346 O 0.01516 0.85209 0.5976 0.0
O347 O 0.01154 0.82712 0.58075 0.0
O348 O 0.97347 0.8819 0.58616 0.0
O349 O 0.9855 0.85922 0.57136 0.0
Co350 Co 0.87465 0.25181 0.33886 0.0
O351 O 0.85854 0.26922 0.32899 0.0
O352 O 0.85847 0.25995 0.35749 0.0
C353 C 0.87243 0.23149 0.31652 0.0
O354 O 0.88907 0.23393 0.35364 0.0
Co355 Co 0.90991 0.24287 0.31838 0.0
O356 O 0.91024 0.22222 0.33547 0.0
C357 C 0.90769 0.27604 0.34016 0.0
C358 C 0.85161 0.27021 0.34503 0.0
C359 C 0.90152 0.22247 0.35026 0.0
O360 O 0.89197 0.27139 0.34541 0.0
O361 O 0.91668 0.26715 0.32842 0.0
O362 O 0.86037 0.23218 0.32915 0.0
O363 O 0.88414 0.2443 0.3167 0.0
Co364 Co 0.50181 0.12047 0.1072 0.0
O365 O 0.48445 0.10319 0.09936 0.0
O366 O 0.49312 0.10672 0.12772 0.0
C367 C 0.52224 0.11488 0.08554 0.0
O368 O 0.5197 0.13675 0.12006 0.0
Co369 Co 0.51086 0.15283 0.08229 0.0
O370 O 0.53151 0.15511 0.099 0.0
C371 C 0.47768 0.15372 0.10364 0.0
C372 C 0.48304 0.09832 0.11612 0.0
C373 C 0.53129 0.14849 0.11488 0.0
O374 O 0.4824 0.1388 0.11105 0.0
O375 O 0.48662 0.16116 0.09089 0.0
O376 O 0.52122 0.10467 0.09976 0.0
O377 O 0.50969 0.1268 0.08393 0.0
Co378 Co 0.61836 0.74805 0.84761 0.0
O379 O 0.63432 0.73018 0.83822 0.0
O380 O 0.63164 0.73714 0.86724 0.0
C381 C 0.62524 0.76982 0.82776 0.0
O382 O 0.60326 0.76597 0.86186 0.0
Co383 Co 0.58707 0.76116 0.82321 0.0
O384 O 0.58571 0.7804 0.8418 0.0
C385 C 0.58373 0.72666 0.84252 0.0
C386 C 0.6394 0.72758 0.85473 0.0
C387 C 0.59212 0.77852 0.85764 0.0
O388 O 0.59891 0.7296 0.8501 0.0
O389 O 0.57711 0.73695 0.83034 0.0
O390 O 0.63526 0.76703 0.84178 0.0
O391 O 0.61268 0.75812 0.82511 0.0
Co392 Co 0.9939 0.12324 0.90049 0.0
O393 O 0.01068 0.10674 0.91061 0.0
O394 O 0.00405 0.10823 0.8815 0.0
C395 C 0.97208 0.1192 0.92089 0.0
O396 O 0.97668 0.13877 0.88582 0.0
Co397 Co 0.98493 0.1572 0.92299 0.0
O398 O 0.96449 0.15806 0.90587 0.0
C399 C 0.01877 0.15618 0.90321 0.0
C400 C 0.01355 0.10098 0.89435 0.0
C401 C 0.96486 0.15058 0.89038 0.0
O402 O 0.01362 0.14108 0.89657 0.0
O403 O 0.00972 0.16473 0.91514 0.0
O404 O 0.97405 0.10802 0.90753 0.0
O405 O 0.98473 0.131 0.92278 0.0
Co406 Co 0.61935 0.2441 0.6464 0.0
O407 O 0.63638 0.26264 0.65151 0.0
O408 O 0.62954 0.25294 0.62404 0.0
C409 C 0.62927 0.22441 0.66723 0.0
O410 O 0.60272 0.22489 0.6362 0.0
Co411 Co 0.59176 0.23326 0.67569 0.0
O412 O 0.58862 0.21199 0.65973 0.0
C413 C 0.58582 0.26643 0.65467 0.0
C414 C 0.63899 0.26361 0.63422 0.0
C415 C 0.59283 0.21245 0.64306 0.0
O416 O 0.59965 0.26254 0.64509 0.0
O417 O 0.58093 0.25705 0.66833 0.0
O418 O 0.6371 0.22566 0.65164 0.0
O419 O 0.61697 0.23629 0.67041 0.0
Co420 Co 0.50724 0.87214 0.39463 0.0
O421 O 0.49041 0.89009 0.4019 0.0
O422 O 0.49938 0.8859 0.37372 0.0
C423 C 0.52734 0.87752 0.41652 0.0
O424 O 0.52494 0.85497 0.38256 0.0
Co425 Co 0.51379 0.83996 0.42022 0.0
O426 O 0.53518 0.83682 0.40464 0.0
C427 C 0.48117 0.84036 0.3983 0.0
C428 C 0.48937 0.89476 0.38508 0.0
C429 C 0.53599 0.84312 0.38866 0.0
O430 O 0.48717 0.85467 0.39067 0.0
O431 O 0.48926 0.83263 0.41143 0.0
O432 O 0.52696 0.88732 0.40201 0.0
O433 O 0.51434 0.86608 0.41828 0.0
Co434 Co 0.87747 0.75179 0.15277 0.0
O435 O 0.86022 0.73344 0.15738 0.0
O436 O 0.86684 0.74418 0.1302 0.0
C437 C 0.86832 0.77058 0.17454 0.0
O438 O 0.89425 0.77109 0.14318 0.0
Co439 Co 0.90569 0.761 0.18214 0.0
O440 O 0.90901 0.78279 0.16693 0.0
C441 C 0.91027 0.72829 0.16012 0.0
C442 C 0.85733 0.73332 0.14012 0.0
C443 C 0.90444 0.78308 0.15035 0.0
O444 O 0.89673 0.73305 0.15053 0.0
O445 O 0.91543 0.73699 0.17411 0.0
O446 O 0.86014 0.77028 0.15909 0.0
O447 O 0.88044 0.75836 0.17691 0.0
Co448 Co 0.59514 0.99777 0.86579 0.0
O449 O 0.5887 0.01611 0.88273 0.0
O450 O 0.6166 0.00847 0.87599 0.0
C451 C 0.57617 0.97663 0.8759 0.0
O452 O 0.60638 0.97874 0.84935 0.0
Co453 Co 0.56606 0.9852 0.83836 0.0
O454 O 0.58345 0.96535 0.8347 0.0
C455 C 0.58322 0.02047 0.83364 0.0
C456 C 0.60568 0.01847 0.88536 0.0
C457 C 0.59986 0.96616 0.83932 0.0
O458 O 0.59473 0.0162 0.84583 0.0
O459 O 0.56976 0.01055 0.82968 0.0
O460 O 0.5914 0.97921 0.88392 0.0
O461 O 0.57208 0.98825 0.86357 0.0
Co462 Co 0.75187 0.83944 0.62149 0.0
O463 O 0.73517 0.8319 0.63972 0.0
O464 O 0.74119 0.86031 0.63256 0.0
C465 C 0.77445 0.821 0.62949 0.0
O466 O 0.76821 0.85276 0.60425 0.0
Co467 Co 0.76515 0.81373 0.59163 0.0
O468 O 0.78333 0.83279 0.58735 0.0
C469 C 0.72921 0.82979 0.58847 0.0
C470 C 0.7323 0.84898 0.64247 0.0
C471 C 0.78056 0.84881 0.59288 0.0
O472 O 0.73237 0.83894 0.60285 0.0
O473 O 0.74022 0.81817 0.58209 0.0
O474 O 0.7717 0.83606 0.63801 0.0
O475 O 0.76251 0.81668 0.61757 0.0
Co476 Co 0.89449 0.00389 0.3661 0.0
O477 O 0.90088 0.98903 0.38611 0.0
O478 O 0.87309 0.99305 0.37617 0.0
C479 C 0.91121 0.0278 0.37355 0.0
O480 O 0.88329 0.01867 0.34588 0.0
Co481 Co 0.92468 0.01295 0.33876 0.0
O482 O 0.90576 0.02818 0.32783 0.0
C483 C 0.90973 0.97663 0.33934 0.0
C484 C 0.88401 0.98518 0.38737 0.0
C485 C 0.88931 0.02771 0.33235 0.0
O486 O 0.8974 0.98258 0.34981 0.0
O487 O 0.92307 0.98623 0.33435 0.0
O488 O 0.89558 0.02543 0.38087 0.0
O489 O 0.91704 0.0146 0.36375 0.0
Co490 Co 0.74769 0.14357 0.11392 0.0
O491 O 0.76496 0.14991 0.13184 0.0
O492 O 0.75812 0.12186 0.12399 0.0
C493 C 0.72612 0.16239 0.12342 0.0
O494 O 0.73031 0.13205 0.09617 0.0
Co495 Co 0.73575 0.17226 0.08604 0.0
O496 O 0.71637 0.15455 0.08143 0.0
C497 C 0.77078 0.15483 0.08172 0.0
C498 C 0.76763 0.13275 0.13386 0.0
C499 C 0.718 0.13796 0.08558 0.0
O500 O 0.76683 0.14444 0.095 0.0
O501 O 0.76058 0.16764 0.07639 0.0
O502 O 0.72835 0.14681 0.13111 0.0
O503 O 0.73805 0.16682 0.11155 0.0
Co504 Co 0.59608 0.00464 0.63334 0.0
O505 O 0.58993 0.98624 0.61633 0.0
O506 O 0.61766 0.99305 0.6244 0.0
C507 C 0.57828 0.0262 0.62192 0.0
O508 O 0.60716 0.0236 0.65005 0.0
Co509 Co 0.56628 0.01909 0.65904 0.0
O510 O 0.58397 0.03869 0.66244 0.0
C511 C 0.58146 0.98305 0.66513 0.0
C512 C 0.60693 0.98329 0.6146 0.0
C513 C 0.60058 0.03703 0.6589 0.0
O514 O 0.59386 0.9865 0.65355 0.0
O515 O 0.56838 0.99376 0.66823 0.0
O516 O 0.59382 0.02306 0.61471 0.0
O517 O 0.57331 0.01497 0.63426 0.0
Co518 Co 0.73971 0.85762 0.37681 0.0
O519 O 0.75505 0.85025 0.35754 0.0
O520 O 0.75031 0.8787 0.36546 0.0
C521 C 0.71654 0.83961 0.36997 0.0
O522 O 0.72446 0.8699 0.39614 0.0
Co523 Co 0.73037 0.82932 0.40611 0.0
O524 O 0.71205 0.8476 0.41257 0.0
C525 C 0.76581 0.84609 0.40657 0.0
C526 C 0.75873 0.86717 0.35526 0.0
C527 C 0.71335 0.86416 0.40814 0.0
O528 O 0.76053 0.85637 0.39372 0.0
O529 O 0.75612 0.83347 0.41317 0.0
O530 O 0.71865 0.85491 0.36169 0.0
O531 O 0.72952 0.83482 0.3805 0.0
Co532 Co 0.89417 0.99036 0.13396 0.0
O533 O 0.90082 0.00443 0.11344 0.0
O534 O 0.87293 0.0007 0.12274 0.0
C535 C 0.91096 0.9662 0.12711 0.0
O536 O 0.88274 0.97581 0.15436 0.0
Co537 Co 0.92387 0.98153 0.16181 0.0
O538 O 0.90581 0.96372 0.16988 0.0
C539 C 0.90844 0.01783 0.1614 0.0
C540 C 0.88397 0.00767 0.11105 0.0
C541 C 0.88919 0.96484 0.16618 0.0
O542 O 0.89685 0.01221 0.14987 0.0
O543 O 0.92133 0.008 0.16711 0.0
O544 O 0.89537 0.96849 0.11975 0.0
O545 O 0.91677 0.97958 0.1367 0.0
Co546 Co 0.75281 0.16119 0.88767 0.0
O547 O 0.73692 0.17168 0.87031 0.0
O548 O 0.74082 0.14232 0.87414 0.0
C549 C 0.77661 0.17881 0.88154 0.0
O550 O 0.76861 0.14565 0.90396 0.0
Co551 Co 0.76597 0.18437 0.91965 0.0
O552 O 0.78414 0.16492 0.92144 0.0
C553 C 0.72953 0.1696 0.9208 0.0
C554 C 0.73286 0.15537 0.86555 0.0
C555 C 0.78139 0.14921 0.91506 0.0
O556 O 0.73298 0.16111 0.90607 0.0
O557 O 0.74063 0.18049 0.92818 0.0
O558 O 0.77305 0.16478 0.87169 0.0
O559 O 0.76461 0.18289 0.89351 0.0
Co560 Co 0.86985 0.59685 0.9937 0.0
O561 O 0.88618 0.5913 0.01272 0.0
O562 O 0.88076 0.61885 0.00239 0.0
C563 C 0.87938 0.57534 0.97473 0.0
O564 O 0.85439 0.60754 0.97384 0.0
Co565 Co 0.8413 0.56896 0.98191 0.0
O566 O 0.83992 0.5847 0.96026 0.0
C567 C 0.83558 0.58996 0.0152 0.0
C568 C 0.88967 0.60842 0.01329 0.0
C569 C 0.84493 0.60112 0.96085 0.0
O570 O 0.84975 0.59915 0.01162 0.0
O571 O 0.8304 0.57657 0.00559 0.0
O572 O 0.88786 0.59057 0.97587 0.0
O573 O 0.86655 0.57296 0.98622 0.0
Co574 Co 0.36154 0.9057 0.99135 0.0
O575 O 0.37789 0.91671 0.97472 0.0
O576 O 0.37644 0.88739 0.98062 0.0
C577 C 0.36566 0.92518 0.01424 0.0
O578 O 0.34694 0.88952 0.0078 0.0
Co579 Co 0.3278 0.9263 0.00457 0.0
O580 O 0.32736 0.90683 0.02303 0.0
C581 C 0.32796 0.90994 0.96825 0.0
C582 C 0.384 0.90056 0.97189 0.0
C583 C 0.33535 0.89188 0.02038 0.0
O584 O 0.34328 0.90279 0.97162 0.0
O585 O 0.3201 0.92084 0.9791 0.0
O586 O 0.37689 0.91207 0.01159 0.0
O587 O 0.35354 0.9272 0.00197 0.0
Co588 Co 0.85062 0.6115 0.75208 0.0
O589 O 0.84428 0.62901 0.73426 0.0
O590 O 0.87201 0.61966 0.73961 0.0
C591 C 0.83422 0.62334 0.77451 0.0
O592 O 0.86179 0.59374 0.76997 0.0
Co593 Co 0.82054 0.58674 0.76705 0.0
O594 O 0.83886 0.5819 0.78581 0.0
C595 C 0.83462 0.58027 0.73059 0.0
C596 C 0.86116 0.62987 0.73042 0.0
C597 C 0.85553 0.58457 0.78332 0.0
O598 O 0.847 0.59188 0.73373 0.0
O599 O 0.82188 0.57703 0.7417 0.0
O600 O 0.84998 0.62976 0.7709 0.0
O601 O 0.82822 0.61139 0.76334 0.0
Co602 Co 0.12523 0.10176 0.49618 0.0
O603 O 0.10914 0.09492 0.47748 0.0
O604 O 0.11172 0.12269 0.48853 0.0
C605 C 0.11923 0.0789 0.51488 0.0
O606 O 0.14058 0.11326 0.51574 0.0
Co607 Co 0.15727 0.07633 0.5043 0.0
O608 O 0.15855 0.09133 0.52648 0.0
C609 C 0.15875 0.09998 0.47256 0.0
C610 C 0.10419 0.11166 0.47716 0.0
C611 C 0.15182 0.1071 0.52736 0.0
O612 O 0.14396 0.10711 0.4777 0.0
O613 O 0.16599 0.08658 0.48067 0.0
O614 O 0.1089 0.09298 0.51447 0.0
O615 O 0.13147 0.07819 0.50254 0.0
Co616 Co 0.16157 0.89213 0.73848 0.0
O617 O 0.16943 0.87409 0.72173 0.0
O618 O 0.14101 0.88055 0.72751 0.0
C619 C 0.17945 0.88431 0.76144 0.0
O620 O 0.14875 0.9095 0.75553 0.0
Co621 Co 0.18887 0.92134 0.75092 0.0
O622 O 0.17029 0.92553 0.76961 0.0
C623 C 0.17305 0.92375 0.71472 0.0
C624 C 0.15265 0.87076 0.71884 0.0
C625 C 0.15409 0.92044 0.7679 0.0
O626 O 0.16237 0.91077 0.7188 0.0
O627 O 0.18561 0.92913 0.72517 0.0
O628 O 0.16465 0.87562 0.75851 0.0
O629 O 0.184 0.89579 0.74913 0.0
Co630 Co 0.62184 0.41008 0.49649 0.0
O631 O 0.60361 0.41972 0.51185 0.0
O632 O 0.60686 0.39072 0.5052 0.0
C633 C 0.6189 0.43022 0.47405 0.0
O634 O 0.63882 0.39537 0.48092 0.0
Co635 Co 0.65559 0.43291 0.48837 0.0
O636 O 0.65887 0.41463 0.46905 0.0
C637 C 0.65315 0.41362 0.52298 0.0
C638 C 0.5981 0.40324 0.51377 0.0
C639 C 0.65158 0.39913 0.46993 0.0
O640 O 0.63815 0.40697 0.51777 0.0
O641 O 0.66198 0.42511 0.51363 0.0
O642 O 0.60818 0.41649 0.47518 0.0
O643 O 0.62967 0.43243 0.48756 0.0
Co644 Co 0.84635 0.37879 0.74133 0.0
O645 O 0.83777 0.36207 0.75896 0.0
O646 O 0.86614 0.36449 0.75049 0.0
C647 C 0.82532 0.37368 0.72035 0.0
O648 O 0.85948 0.3944 0.72288 0.0
Co649 Co 0.82168 0.41155 0.73245 0.0
O650 O 0.83946 0.41499 0.7129 0.0
C651 C 0.8409 0.41051 0.76686 0.0
C652 C 0.85417 0.35664 0.76058 0.0
C653 C 0.85467 0.40723 0.71219 0.0
O654 O 0.85016 0.39716 0.76091 0.0
O655 O 0.8276 0.41719 0.75828 0.0
O656 O 0.83899 0.36296 0.72181 0.0
O657 O 0.82369 0.38555 0.73303 0.0
Co658 Co 0.65515 0.61901 0.2459 0.0
O659 O 0.66131 0.63677 0.26361 0.0
O660 O 0.6336 0.62835 0.25702 0.0
C661 C 0.67269 0.6294 0.22363 0.0
O662 O 0.64391 0.60172 0.22777 0.0
Co663 Co 0.68464 0.5925 0.23259 0.0
O664 O 0.66688 0.58845 0.21312 0.0
C665 C 0.66843 0.58695 0.26828 0.0
C666 C 0.64426 0.6387 0.26627 0.0
C667 C 0.65033 0.59223 0.21474 0.0
O668 O 0.65703 0.59946 0.2647 0.0
O669 O 0.68144 0.58295 0.25776 0.0
O670 O 0.65726 0.63679 0.22682 0.0
O671 O 0.67794 0.61758 0.23535 0.0
Co672 Co 0.50153 0.62808 0.90323 0.0
O673 O 0.48856 0.60598 0.9058 0.0
O674 O 0.49684 0.61813 0.87964 0.0
C675 C 0.52195 0.62293 0.92462 0.0
O676 O 0.51586 0.65004 0.89548 0.0
Co677 Co 0.50201 0.65591 0.93436 0.0
O678 O 0.52305 0.66513 0.92077 0.0
C679 C 0.47017 0.65339 0.91145 0.0
C680 C 0.48883 0.6052 0.88831 0.0
C681 C 0.52509 0.66194 0.90399 0.0
O682 O 0.47859 0.64187 0.90172 0.0
O683 O 0.47674 0.66021 0.92587 0.0
O684 O 0.52372 0.61584 0.90866 0.0
O685 O 0.50689 0.631 0.92776 0.0
Co686 Co 0.62365 0.24915 0.14822 0.0
O687 O 0.64414 0.23553 0.15577 0.0
O688 O 0.63678 0.24098 0.12728 0.0
C689 C 0.62698 0.2725 0.16732 0.0
O690 O 0.6038 0.26287 0.13541 0.0
Co691 Co 0.59232 0.25485 0.17495 0.0
O692 O 0.58476 0.27292 0.1567 0.0
C693 C 0.59581 0.21993 0.15663 0.0
C694 C 0.64759 0.23336 0.13873 0.0
C695 C 0.5904 0.27251 0.14046 0.0
O696 O 0.60898 0.22651 0.14766 0.0
O697 O 0.58777 0.22868 0.16915 0.0
O698 O 0.63612 0.27171 0.15242 0.0
O699 O 0.61782 0.25819 0.17123 0.0
Co700 Co 0.00519 0.36472 0.40221 0.0
O701 O 0.02169 0.38291 0.4099 0.0
O702 O 0.01533 0.37652 0.38135 0.0
C703 C 0.98285 0.37223 0.42102 0.0
O704 O 0.98848 0.3475 0.38919 0.0
Co705 Co 0.99326 0.33461 0.42844 0.0
O706 O 0.97402 0.33128 0.41025 0.0
C707 C 0.0285 0.33186 0.41087 0.0
C708 C 0.024 0.38643 0.39289 0.0
C709 C 0.97598 0.33664 0.39403 0.0
O710 O 0.02485 0.34625 0.40194 0.0
O711 O 0.01806 0.32537 0.42295 0.0
O712 O 0.98534 0.38099 0.40607 0.0
O713 O 0.99506 0.3605 0.42514 0.0
Co714 Co 0.88112 0.7378 0.64996 0.0
O715 O 0.86099 0.75184 0.65768 0.0
O716 O 0.86657 0.74445 0.62926 0.0
C717 C 0.87915 0.71596 0.67084 0.0
O718 O 0.90054 0.72294 0.63741 0.0
Co719 Co 0.91366 0.73503 0.67575 0.0
O720 O 0.92006 0.71496 0.65922 0.0
C721 C 0.9085 0.76825 0.65504 0.0
C722 C 0.85643 0.75287 0.64083 0.0
C723 C 0.91389 0.7136 0.64324 0.0
O724 O 0.89545 0.76046 0.64691 0.0
O725 O 0.91711 0.76085 0.66801 0.0
O726 O 0.86915 0.71555 0.6565 0.0
O727 O 0.88817 0.73068 0.67322 0.0
Co728 Co 0.49657 0.36167 0.59454 0.0
O729 O 0.47952 0.38024 0.58951 0.0
O730 O 0.48975 0.37359 0.6168 0.0
C731 C 0.51593 0.36916 0.57272 0.0
O732 O 0.51482 0.34366 0.60438 0.0
Co733 Co 0.50293 0.33204 0.56584 0.0
O734 O 0.52485 0.32795 0.58041 0.0
C735 C 0.47057 0.33044 0.58826 0.0
C736 C 0.47967 0.38371 0.60666 0.0
C737 C 0.52603 0.33277 0.59689 0.0
O738 O 0.47666 0.3438 0.5974 0.0
O739 O 0.47848 0.32419 0.57425 0.0
O740 O 0.51594 0.3776 0.58806 0.0
O741 O 0.50296 0.35782 0.57027 0.0
Co742 Co 0.88656 0.2472 0.83674 0.0
O743 O 0.86822 0.23068 0.82938 0.0
O744 O 0.87381 0.23823 0.85776 0.0
C745 C 0.88049 0.26895 0.81651 0.0
O746 O 0.90412 0.26429 0.84917 0.0
Co747 Co 0.9173 0.25641 0.81008 0.0
O748 O 0.92085 0.27674 0.82717 0.0
C749 C 0.91791 0.22165 0.82918 0.0
C750 C 0.86427 0.22898 0.84634 0.0
C751 C 0.91536 0.27616 0.84345 0.0
O752 O 0.90416 0.22674 0.83832 0.0
O753 O 0.92468 0.23107 0.8164 0.0
O754 O 0.87123 0.26763 0.83129 0.0
O755 O 0.89161 0.25591 0.8135 0.0
Co756 Co 0.99466 0.6317 0.09678 0.0
O757 O 0.01142 0.61313 0.09121 0.0
O758 O 0.00435 0.62189 0.11896 0.0
C759 C 0.97295 0.62225 0.07834 0.0
O760 O 0.97726 0.65012 0.10719 0.0
Co761 Co 0.98469 0.65882 0.06676 0.0
O762 O 0.96424 0.66339 0.08323 0.0
C763 C 0.019 0.66304 0.0854 0.0
C764 C 0.01343 0.61116 0.10847 0.0
C765 C 0.96492 0.65993 0.10007 0.0
O766 O 0.01433 0.65004 0.09583 0.0
O767 O 0.00943 0.66832 0.07208 0.0
O768 O 0.97508 0.61501 0.09413 0.0
O769 O 0.98532 0.63344 0.07328 0.0
Co770 Co 0.6202 0.74557 0.34872 0.0
O771 O 0.63824 0.76265 0.34207 0.0
O772 O 0.62987 0.75692 0.37021 0.0
C773 C 0.62984 0.72286 0.33123 0.0
O774 O 0.60223 0.72836 0.36032 0.0
Co775 Co 0.59328 0.73312 0.31948 0.0
O776 O 0.58858 0.71384 0.33744 0.0
C777 C 0.58852 0.76871 0.33609 0.0
C778 C 0.64004 0.76594 0.35916 0.0
C779 C 0.59215 0.71567 0.35416 0.0
O780 O 0.60151 0.76493 0.34679 0.0
O781 O 0.58354 0.75819 0.32334 0.0
O782 O 0.63721 0.72592 0.34679 0.0
O783 O 0.61842 0.73484 0.32581 0.0
Co784 Co 0.89389 0.51087 0.6216 0.0
O785 O 0.90039 0.53117 0.60703 0.0
O786 O 0.91534 0.52204 0.63118 0.0
C787 C 0.8887 0.49192 0.59854 0.0
O788 O 0.89146 0.49008 0.63949 0.0
Co789 Co 0.85574 0.49492 0.61969 0.0
O790 O 0.86754 0.47381 0.63107 0.0
C791 C 0.86209 0.52747 0.64155 0.0
C792 C 0.91384 0.53338 0.61785 0.0
C793 C 0.88175 0.47576 0.64036 0.0
O794 O 0.87876 0.5267 0.63738 0.0
O795 O 0.85041 0.51638 0.63549 0.0
O796 O 0.90489 0.49453 0.60437 0.0
O797 O 0.87645 0.50202 0.60563 0.0
Co798 Co 0.75301 0.65684 0.87953 0.0
O799 O 0.76777 0.66278 0.85918 0.0
O800 O 0.76093 0.63499 0.86791 0.0
C801 C 0.73062 0.67625 0.87412 0.0
O802 O 0.73801 0.6455 0.89935 0.0
Co803 Co 0.74612 0.68528 0.90947 0.0
O804 O 0.72739 0.6678 0.91694 0.0
C805 C 0.78035 0.66574 0.90901 0.0
C806 C 0.76925 0.64551 0.85666 0.0
C807 C 0.72779 0.65133 0.91203 0.0
O808 O 0.77456 0.65642 0.89561 0.0
O809 O 0.77149 0.6788 0.91597 0.0
O810 O 0.73147 0.66098 0.86556 0.0
O811 O 0.74445 0.68026 0.88384 0.0
Co812 Co 0.59977 0.49003 0.12681 0.0
O813 O 0.59101 0.47066 0.11243 0.0
O814 O 0.57939 0.47895 0.13869 0.0
C815 C 0.60234 0.50977 0.10406 0.0
O816 O 0.60521 0.50998 0.14492 0.0
Co817 Co 0.63798 0.50463 0.11991 0.0
O818 O 0.62854 0.52548 0.13372 0.0
C819 C 0.63341 0.47121 0.14074 0.0
C820 C 0.57895 0.46823 0.12476 0.0
C821 C 0.61558 0.52384 0.14479 0.0
O822 O 0.61637 0.4731 0.1396 0.0
O823 O 0.64459 0.48196 0.13328 0.0
O824 O 0.58701 0.50732 0.11197 0.0
O825 O 0.61511 0.49906 0.10895 0.0
Co826 Co 0.74937 0.35341 0.37984 0.0
O827 O 0.73426 0.34638 0.36038 0.0
O828 O 0.74252 0.37454 0.36601 0.0
C829 C 0.77013 0.33212 0.37546 0.0
O830 O 0.76546 0.36516 0.39872 0.0
Co831 Co 0.75368 0.32709 0.41173 0.0
O832 O 0.77468 0.34264 0.41683 0.0
C833 C 0.72085 0.34847 0.40912 0.0
C834 C 0.7336 0.36326 0.35597 0.0
C835 C 0.77578 0.3588 0.41109 0.0
O836 O 0.7279 0.35656 0.39559 0.0
O837 O 0.72851 0.33534 0.41727 0.0
O838 O 0.77031 0.34695 0.36617 0.0
O839 O 0.75628 0.32971 0.38575 0.0
Co840 Co 0.89179 0.48392 0.87403 0.0
O841 O 0.8998 0.46184 0.88459 0.0
O842 O 0.91289 0.47513 0.86133 0.0
C843 C 0.88802 0.49862 0.90025 0.0
O844 O 0.88723 0.50737 0.86019 0.0
Co845 Co 0.85325 0.49745 0.88243 0.0
O846 O 0.86335 0.52043 0.8733 0.0
C847 C 0.85861 0.46893 0.85521 0.0
C848 C 0.91268 0.46188 0.87289 0.0
C849 C 0.87675 0.52098 0.86265 0.0
O850 O 0.87566 0.47033 0.85712 0.0
O851 O 0.84733 0.47784 0.86472 0.0
O852 O 0.90377 0.49765 0.8929 0.0
O853 O 0.87563 0.48928 0.89252 0.0
Co854 Co 0.75179 0.6513 0.11506 0.0
O855 O 0.73586 0.65738 0.13423 0.0
O856 O 0.74128 0.62948 0.12494 0.0
C857 C 0.77458 0.6685 0.12419 0.0
O858 O 0.76825 0.64049 0.09585 0.0
Co859 Co 0.76228 0.68152 0.08828 0.0
O860 O 0.78189 0.66429 0.0829 0.0
C861 C 0.72697 0.66476 0.08496 0.0
C862 C 0.73302 0.64026 0.13607 0.0
C863 C 0.78066 0.64742 0.08594 0.0
O864 O 0.73163 0.65361 0.09735 0.0
O865 O 0.73695 0.67779 0.07975 0.0
O866 O 0.77197 0.6527 0.1312 0.0
O867 O 0.76211 0.67432 0.11349 0.0
Co868 Co 0.59729 0.50954 0.36399 0.0
O869 O 0.5893 0.52898 0.37889 0.0
O870 O 0.57678 0.52136 0.35293 0.0
C871 C 0.60005 0.48953 0.3866 0.0
O872 O 0.60193 0.48969 0.34539 0.0
Co873 Co 0.63525 0.49412 0.3695 0.0
O874 O 0.62523 0.47354 0.35571 0.0
C875 C 0.63087 0.52786 0.34912 0.0
C876 C 0.57701 0.53198 0.36695 0.0
C877 C 0.6121 0.47564 0.34496 0.0
O878 O 0.61384 0.52633 0.35089 0.0
O879 O 0.64202 0.51676 0.35611 0.0
O880 O 0.58463 0.49229 0.37899 0.0
O881 O 0.61291 0.50001 0.38144 0.0
Co882 Co 0.7458 0.34558 0.61261 0.0
O883 O 0.76128 0.33462 0.63001 0.0
O884 O 0.75892 0.3641 0.62536 0.0
C885 C 0.72122 0.32965 0.61952 0.0
O886 O 0.7308 0.36154 0.59612 0.0
Co887 Co 0.73095 0.32242 0.58144 0.0
O888 O 0.71388 0.34286 0.57937 0.0
C889 C 0.76815 0.33495 0.57958 0.0
C890 C 0.76624 0.35083 0.6342 0.0
C891 C 0.71768 0.35853 0.58529 0.0
O892 O 0.76528 0.34401 0.59406 0.0
O893 O 0.75641 0.32449 0.57258 0.0
O894 O 0.72569 0.34371 0.62893 0.0
O895 O 0.73277 0.32447 0.60751 0.0
Co896 Co 0.62275 0.89172 0.51336 0.0
O897 O 0.60373 0.89995 0.49821 0.0
O898 O 0.6101 0.8712 0.50311 0.0
C899 C 0.61712 0.91014 0.53676 0.0
O900 O 0.64135 0.87866 0.52879 0.0
Co901 Co 0.6533 0.91836 0.52175 0.0
O902 O 0.65828 0.90056 0.54111 0.0
C903 C 0.6525 0.90119 0.48625 0.0
C904 C 0.60022 0.88316 0.49494 0.0
C905 C 0.6531 0.88422 0.54022 0.0
O906 O 0.63927 0.89178 0.49201 0.0
O907 O 0.65982 0.91361 0.49571 0.0
O908 O 0.60825 0.89523 0.5347 0.0
O909 O 0.6276 0.9145 0.52349 0.0
Co910 Co 0.14009 0.58973 0.50316 0.0
O911 O 0.12089 0.58382 0.51926 0.0
O912 O 0.12793 0.61156 0.51077 0.0
C913 C 0.13428 0.569 0.48195 0.0
O914 O 0.15861 0.60065 0.4861 0.0
Co915 Co 0.17016 0.56154 0.49629 0.0
O916 O 0.17441 0.57726 0.475 0.0
C917 C 0.1701 0.58199 0.53024 0.0
C918 C 0.11756 0.60097 0.52008 0.0
C919 C 0.16953 0.59374 0.47456 0.0
O920 O 0.15701 0.5915 0.52418 0.0
O921 O 0.17668 0.56854 0.52166 0.0
O922 O 0.12535 0.58403 0.48238 0.0
O923 O 0.14464 0.56606 0.49562 0.0
Co924 Co 0.63557 0.872 0.73701 0.0
O925 O 0.64125 0.85608 0.71753 0.0
O926 O 0.65783 0.87944 0.72584 0.0
C927 C 0.62881 0.85 0.75665 0.0
O928 O 0.63406 0.89088 0.75702 0.0
Co929 Co 0.5973 0.87324 0.75228 0.0
O930 O 0.60948 0.88451 0.77322 0.0
C931 C 0.6056 0.89353 0.71912 0.0
C932 C 0.6556 0.86561 0.71523 0.0
C933 C 0.62424 0.89284 0.77117 0.0
O934 O 0.62188 0.88813 0.72025 0.0
O935 O 0.59338 0.88866 0.73024 0.0
O936 O 0.64528 0.85493 0.75412 0.0
O937 O 0.61704 0.85741 0.74618 0.0
Co938 Co 0.3676 0.40683 0.99106 0.0
O939 O 0.38441 0.41235 0.00959 0.0
O940 O 0.38171 0.38553 0.99652 0.0
C941 C 0.37259 0.43125 0.97416 0.0
O942 O 0.35171 0.39667 0.97117 0.0
Co943 Co 0.33483 0.43179 0.98678 0.0
O944 O 0.33237 0.41868 0.96355 0.0
C945 C 0.33586 0.40663 0.01716 0.0
C946 C 0.38949 0.39568 0.00853 0.0
C947 C 0.33967 0.4034 0.96073 0.0
O948 O 0.34988 0.39969 0.00999 0.0
O949 O 0.32812 0.42062 0.01071 0.0
O950 O 0.38301 0.4173 0.97293 0.0
O951 O 0.36082 0.43093 0.987 0.0
Co952 Co 0.37052 0.62198 0.73913 0.0
O953 O 0.36164 0.63768 0.72082 0.0
O954 O 0.34937 0.61149 0.72822 0.0
C955 C 0.37436 0.64356 0.76 0.0
O956 O 0.37581 0.60262 0.75788 0.0
Co957 Co 0.40905 0.62596 0.75289 0.0
O958 O 0.39955 0.61223 0.77378 0.0
C959 C 0.40275 0.60659 0.71886 0.0
C960 C 0.34902 0.62597 0.71828 0.0
C961 C 0.38616 0.60184 0.77172 0.0
O962 O 0.38593 0.60935 0.72098 0.0
O963 O 0.41459 0.61245 0.72989 0.0
O964 O 0.35882 0.63615 0.75753 0.0
O965 O 0.38681 0.63893 0.7487 0.0
Co966 Co 0.86593 0.0869 0.00034 0.0
O967 O 0.88137 0.07758 0.98193 0.0
O968 O 0.87852 0.10656 0.98872 0.0
C969 C 0.87385 0.06748 0.0222 0.0
O970 O 0.85156 0.10118 0.01886 0.0
Co971 Co 0.83513 0.06296 0.01458 0.0
O972 O 0.83544 0.08085 0.03449 0.0
C973 C 0.83044 0.08186 0.98003 0.0
C974 C 0.88611 0.09413 0.97894 0.0
C975 C 0.84167 0.09669 0.03235 0.0
O976 O 0.84589 0.08906 0.98243 0.0
O977 O 0.8238 0.07023 0.99093 0.0
O978 O 0.88356 0.08153 0.01864 0.0
O979 O 0.86083 0.06437 0.01106 0.0
Co980 Co 0.64827 0.12613 0.76157 0.0
O981 O 0.65628 0.13976 0.782 0.0
O982 O 0.67018 0.11575 0.77105 0.0
C983 C 0.64216 0.15008 0.74393 0.0
O984 O 0.64408 0.10902 0.74037 0.0
Co985 Co 0.60906 0.12968 0.74832 0.0
O986 O 0.61882 0.11777 0.72643 0.0
C987 C 0.61708 0.10683 0.77988 0.0
C988 C 0.66953 0.12852 0.7831 0.0
C989 C 0.63304 0.10829 0.72704 0.0
O990 O 0.63384 0.11007 0.77781 0.0
O991 O 0.60488 0.11397 0.77006 0.0
O992 O 0.65842 0.14392 0.74509 0.0
O993 O 0.63062 0.14267 0.75456 0.0
Co994 Co 0.86237 0.87131 0.26644 0.0
O995 O 0.85583 0.86029 0.28883 0.0
O996 O 0.84197 0.88379 0.27686 0.0
C997 C 0.86509 0.8455 0.25101 0.0
O998 O 0.86512 0.88576 0.24312 0.0
Co999 Co 0.8996 0.86366 0.24938 0.0
O1000 O 0.88764 0.87316 0.22744 0.0
C1001 C 0.89659 0.88978 0.27918 0.0
C1002 C 0.84295 0.87196 0.28981 0.0
C1003 C 0.87424 0.88375 0.2285 0.0
O1004 O 0.8795 0.88771 0.27925 0.0
O1005 O 0.90716 0.88096 0.26881 0.0
O1006 O 0.84944 0.85283 0.25319 0.0
O1007 O 0.87818 0.85306 0.25948 0.0
Co1008 Co 0.49561 0.36624 0.08628 0.0
O1009 O 0.51338 0.3822 0.07702 0.0
O1010 O 0.50386 0.38205 0.10538 0.0
C1011 C 0.47568 0.36945 0.06404 0.0
O1012 O 0.47688 0.35182 0.10009 0.0
Co1013 Co 0.48783 0.33128 0.0651 0.0
O1014 O 0.46573 0.332 0.08003 0.0
C1015 C 0.51971 0.33274 0.08794 0.0
C1016 C 0.51437 0.38892 0.09314 0.0
C1017 C 0.46499 0.34032 0.09507 0.0
O1018 O 0.51459 0.34845 0.09296 0.0
O1019 O 0.51148 0.3236 0.07585 0.0
O1020 O 0.47679 0.38128 0.07692 0.0
O1021 O 0.48832 0.35746 0.06357 0.0
Co1022 Co 0.36855 0.74122 0.85607 0.0
O1023 O 0.34899 0.75551 0.84765 0.0
O1024 O 0.35419 0.74902 0.87639 0.0
C1025 C 0.36551 0.71888 0.8358 0.0
O1026 O 0.38698 0.7263 0.86957 0.0
Co1027 Co 0.40125 0.73452 0.83105 0.0
O1028 O 0.40579 0.71492 0.84875 0.0
C1029 C 0.39814 0.76919 0.85021 0.0
C1030 C 0.34407 0.7568 0.8644 0.0
C1031 C 0.39949 0.71543 0.86474 0.0
O1032 O 0.38408 0.76327 0.85831 0.0
O1033 O 0.40635 0.76026 0.83794 0.0
O1034 O 0.35555 0.7193 0.85017 0.0
O1035 O 0.37551 0.73287 0.83323 0.0
Co1036 Co 0.01138 0.62791 0.60244 0.0
O1037 O 0.99383 0.61095 0.5944 0.0
O1038 O -0.00068 0.61731 0.62308 0.0
C1039 C 0.03374 0.61821 0.58458 0.0
O1040 O 0.02903 0.64438 0.61552 0.0
Co1041 Co 0.02563 0.65628 0.57551 0.0
O1042 O 0.0449 0.65835 0.59382 0.0
C1043 C 0.99024 0.66182 0.59186 0.0
C1044 C 0.99019 0.60812 0.61127 0.0
C1045 C 0.04246 0.65391 0.61026 0.0
O1046 O 0.99301 0.6477 0.60151 0.0
O1047 O 0.00128 0.66725 0.5798 0.0
O1048 O 0.03013 0.61009 0.59967 0.0
O1049 O 0.02252 0.63064 0.57977 0.0
Co1050 Co 0.11935 0.24586 0.34247 0.0
O1051 O 0.13444 0.22652 0.33467 0.0
O1052 O 0.13119 0.23523 0.36315 0.0
C1053 C 0.12845 0.26603 0.32185 0.0
O1054 O 0.10514 0.26565 0.35517 0.0
Co1055 Co 0.08987 0.2599 0.31649 0.0
O1056 O 0.08989 0.28053 0.33359 0.0
C1057 C 0.08391 0.2261 0.33643 0.0
C1058 C 0.13884 0.2246 0.35148 0.0
C1059 C 0.09562 0.27907 0.34973 0.0
O1060 O 0.09867 0.22875 0.34494 0.0
O1061 O 0.07848 0.23633 0.32361 0.0
O1062 O 0.13772 0.2633 0.33639 0.0
O1063 O 0.11517 0.25512 0.31928 0.0
Co1064 Co 0.4955 0.6346 0.40884 0.0
O1065 O 0.51318 0.61801 0.41747 0.0
O1066 O 0.50548 0.62113 0.38876 0.0
C1067 C 0.47428 0.62838 0.42944 0.0
O1068 O 0.47732 0.64995 0.39524 0.0
Co1069 Co 0.48405 0.66667 0.43319 0.0
O1070 O 0.4635 0.66702 0.41618 0.0
C1071 C 0.51838 0.66856 0.41391 0.0
C1072 C 0.5153 0.61306 0.40081 0.0
C1073 C 0.46452 0.66042 0.40032 0.0
O1074 O 0.51441 0.6537 0.40592 0.0
O1075 O 0.50853 0.6756 0.42619 0.0
O1076 O 0.47642 0.61806 0.41543 0.0
O1077 O 0.48635 0.64069 0.43163 0.0
Co1078 Co 0.11763 0.74449 0.14837 0.0
O1079 O 0.13413 0.76303 0.15491 0.0
O1080 O 0.1289 0.754 0.12681 0.0
C1081 C 0.12648 0.72431 0.16917 0.0
O1082 O 0.10161 0.72546 0.13686 0.0
Co1083 Co 0.08864 0.733 0.17611 0.0
O1084 O 0.08619 0.71223 0.15937 0.0
C1085 C 0.08408 0.76692 0.15604 0.0
C1086 C 0.13751 0.76457 0.13782 0.0
C1087 C 0.09131 0.71297 0.14297 0.0
O1088 O 0.09797 0.76291 0.1466 0.0
O1089 O 0.07871 0.75734 0.16938 0.0
O1090 O 0.1352 0.72597 0.1541 0.0
O1091 O 0.11402 0.73611 0.17193 0.0
Co1092 Co 0.00356 0.36323 0.90339 0.0
O1093 O 0.98613 0.37885 0.91414 0.0
O1094 O 0.99189 0.37748 0.88483 0.0
C1095 C 0.02592 0.36901 0.92309 0.0
O1096 O 0.02076 0.3489 0.88759 0.0
Co1097 Co 0.01746 0.33031 0.92505 0.0
O1098 O 0.03602 0.33014 0.90584 0.0
C1099 C 0.98228 0.32807 0.90727 0.0
C1100 C 0.98261 0.38449 0.89794 0.0
C1101 C 0.03347 0.33758 0.89055 0.0
O1102 O 0.98497 0.34381 0.90051 0.0
O1103 O 0.99313 0.32063 0.91839 0.0
O1104 O 0.02277 0.37985 0.90969 0.0
O1105 O 0.01435 0.35622 0.92524 0.0
Co1106 Co 0.36911 0.25468 0.65407 0.0
O1107 O 0.35031 0.23823 0.65968 0.0
O1108 O 0.35578 0.24914 0.63235 0.0
C1109 C 0.36432 0.27352 0.67724 0.0
O1110 O 0.38725 0.27229 0.64364 0.0
Co1111 Co 0.4007 0.25875 0.68097 0.0
O1112 O 0.40532 0.28076 0.66643 0.0
C1113 C 0.39962 0.22727 0.65684 0.0
C1114 C 0.34611 0.23883 0.64271 0.0
C1115 C 0.39947 0.2825 0.65036 0.0
O1116 O 0.38571 0.234 0.6492 0.0
O1117 O 0.40715 0.23448 0.67059 0.0
O1118 O 0.3548 0.27479 0.66262 0.0
O1119 O 0.37496 0.25978 0.67809 0.0
Co1120 Co 0.10452 0.49465 0.37247 0.0
O1121 O 0.09774 0.51197 0.39023 0.0
O1122 O 0.12582 0.5056 0.38265 0.0
C1123 C 0.08653 0.47245 0.38196 0.0
O1124 O 0.11587 0.47699 0.35468 0.0
Co1125 Co 0.07515 0.48346 0.34503 0.0
O1126 O 0.09271 0.46401 0.34006 0.0
C1127 C 0.0923 0.51874 0.3413 0.0
C1128 C 0.11466 0.51494 0.39242 0.0
C1129 C 0.10926 0.46489 0.34413 0.0
O1130 O 0.10345 0.51394 0.35356 0.0
O1131 O 0.07889 0.50904 0.33666 0.0
O1132 O 0.10186 0.47519 0.38972 0.0
O1133 O 0.08167 0.48453 0.37033 0.0
Co1134 Co 0.24797 0.34675 0.11787 0.0
O1135 O 0.23107 0.33826 0.13525 0.0
O1136 O 0.23569 0.3671 0.12866 0.0
C1137 C 0.27114 0.32963 0.1269 0.0
O1138 O 0.26454 0.36024 0.10074 0.0
Co1139 Co 0.26178 0.31993 0.08913 0.0
O1140 O 0.27951 0.33932 0.08472 0.0
C1141 C 0.22627 0.33609 0.08429 0.0
C1142 C 0.22698 0.35504 0.13791 0.0
C1143 C 0.27689 0.35561 0.08954 0.0
O1144 O 0.22915 0.3454 0.09861 0.0
O1145 O 0.23731 0.32424 0.07843 0.0
O1146 O 0.2673 0.34459 0.13513 0.0
O1147 O 0.25966 0.32441 0.11487 0.0
Co1148 Co 0.40955 0.4992 0.86538 0.0
O1149 O 0.41156 0.48872 0.88882 0.0
O1150 O 0.38595 0.49687 0.87606 0.0
C1151 C 0.43175 0.5191 0.86853 0.0
O1152 O 0.4027 0.51146 0.84186 0.0
Co1153 Co 0.44096 0.49486 0.83847 0.0
O1154 O 0.42664 0.51153 0.82332 0.0
C1155 C 0.41725 0.4642 0.84501 0.0
C1156 C 0.3943 0.49005 0.88989 0.0
C1157 C 0.41061 0.51601 0.82713 0.0
O1158 O 0.40698 0.4746 0.85424 0.0
O1159 O 0.43245 0.46925 0.83887 0.0
O1160 O 0.41593 0.5227 0.87484 0.0
O1161 O 0.43422 0.50296 0.86244 0.0
Co1162 Co 0.24589 0.64703 0.63202 0.0
O1163 O 0.26312 0.65383 0.64967 0.0
O1164 O 0.25577 0.62557 0.64324 0.0
C1165 C 0.22477 0.66679 0.6402 0.0
O1166 O 0.22816 0.63544 0.61466 0.0
Co1167 Co 0.23637 0.67475 0.60247 0.0
O1168 O 0.21572 0.65828 0.59907 0.0
C1169 C 0.27025 0.65524 0.5996 0.0
C1170 C 0.26561 0.63676 0.65247 0.0
C1171 C 0.21614 0.64182 0.60397 0.0
O1172 O 0.2653 0.64608 0.61341 0.0
O1173 O 0.26097 0.66825 0.59315 0.0
O1174 O 0.22657 0.65162 0.64878 0.0
O1175 O 0.23705 0.67044 0.62838 0.0
Co1176 Co 0.09019 0.50154 0.13321 0.0
O1177 O 0.08219 0.483 0.11712 0.0
O1178 O 0.11065 0.48879 0.12328 0.0
C1179 C 0.07301 0.52376 0.12234 0.0
O1180 O 0.10297 0.52035 0.14876 0.0
Co1181 Co 0.06234 0.51732 0.16027 0.0
O1182 O 0.08106 0.5361 0.16267 0.0
C1183 C 0.07731 0.48139 0.16682 0.0
C1184 C 0.09892 0.47934 0.11436 0.0
C1185 C 0.09736 0.5339 0.15809 0.0
O1186 O 0.08861 0.48415 0.15401 0.0
O1187 O 0.06465 0.4924 0.17061 0.0
O1188 O 0.08786 0.51948 0.11432 0.0
O1189 O 0.06798 0.51302 0.13513 0.0
Co1190 Co 0.2452 0.35445 0.87611 0.0
O1191 O 0.25983 0.34955 0.85557 0.0
O1192 O 0.25271 0.37702 0.86504 0.0
C1193 C 0.22381 0.33447 0.86907 0.0
O1194 O 0.22936 0.36413 0.89636 0.0
Co1195 Co 0.23925 0.32411 0.90427 0.0
O1196 O 0.2186 0.33967 0.91073 0.0
C1197 C 0.27295 0.34454 0.90492 0.0
C1198 C 0.2606 0.36682 0.85313 0.0
C1199 C 0.21827 0.35651 0.90728 0.0
O1200 O 0.26677 0.3547 0.89231 0.0
O1201 O 0.2645 0.33077 0.91095 0.0
O1202 O 0.22399 0.35033 0.86167 0.0
O1203 O 0.23752 0.33052 0.87899 0.0
Co1204 Co 0.40862 0.49711 0.63341 0.0
O1205 O 0.41241 0.51327 0.61359 0.0
O1206 O 0.38625 0.50883 0.62696 0.0
C1207 C 0.42329 0.47336 0.62171 0.0
O1208 O 0.39989 0.48076 0.65384 0.0
Co1209 Co 0.44179 0.48396 0.65522 0.0
O1210 O 0.42427 0.46572 0.6636 0.0
C1211 C 0.42822 0.52069 0.66106 0.0
C1212 C 0.39545 0.51686 0.61438 0.0
C1213 C 0.40737 0.46796 0.66289 0.0
O1214 O 0.41468 0.51703 0.65094 0.0
O1215 O 0.44122 0.50971 0.66352 0.0
O1216 O 0.40693 0.47678 0.61691 0.0
O1217 O 0.43086 0.48553 0.6316 0.0
Co1218 Co 0.25485 0.64286 0.37916 0.0
O1219 O 0.23665 0.65051 0.36261 0.0
O1220 O 0.24341 0.62199 0.36824 0.0
C1221 C 0.2763 0.66188 0.36955 0.0
O1222 O 0.27317 0.6302 0.39527 0.0
Co1223 Co 0.26865 0.67012 0.40776 0.0
O1224 O 0.28809 0.65203 0.41013 0.0
C1225 C 0.23429 0.65177 0.4139 0.0
C1226 C 0.23364 0.63359 0.35945 0.0
C1227 C 0.28613 0.63564 0.40538 0.0
O1228 O 0.23694 0.64261 0.39941 0.0
O1229 O 0.24484 0.66432 0.41916 0.0
O1230 O 0.27325 0.64689 0.36105 0.0
O1231 O 0.26506 0.66581 0.38225 0.0
Co1232 Co 0.3689 0.1001 0.49629 0.0
O1233 O 0.38498 0.09436 0.51551 0.0
O1234 O 0.37922 0.12207 0.50582 0.0
C1235 C 0.37914 0.07947 0.47667 0.0
O1236 O 0.35354 0.11086 0.47628 0.0
Co1237 Co 0.3411 0.07169 0.48388 0.0
O1238 O 0.33986 0.08767 0.46241 0.0
C1239 C 0.33446 0.09203 0.51733 0.0
C1240 C 0.38808 0.11153 0.51667 0.0
C1241 C 0.34453 0.10418 0.46306 0.0
O1242 O 0.34843 0.10159 0.51395 0.0
O1243 O 0.32971 0.07862 0.50753 0.0
O1244 O 0.38735 0.09475 0.47863 0.0
O1245 O 0.36629 0.07636 0.48799 0.0
Co1246 Co 0.87782 0.39087 0.5061 0.0
O1247 O 0.89615 0.39788 0.48958 0.0
O1248 O 0.89072 0.36967 0.49779 0.0
C1249 C 0.88395 0.41187 0.52706 0.0
O1250 O 0.86002 0.37901 0.52325 0.0
Co1251 Co 0.84712 0.4179 0.51392 0.0
O1252 O 0.8428 0.40131 0.53448 0.0
C1253 C 0.84649 0.39706 0.48015 0.0
C1254 C 0.90023 0.38095 0.48831 0.0
C1255 C 0.84827 0.38503 0.53446 0.0
O1256 O 0.8604 0.38846 0.48561 0.0
O1257 O 0.83961 0.41024 0.48893 0.0
O1258 O 0.89305 0.39697 0.52644 0.0
O1259 O 0.8728 0.41439 0.51393 0.0
Co1260 Co 0.34868 0.11989 0.24622 0.0
O1261 O 0.34182 0.13543 0.22687 0.0
O1262 O 0.36988 0.13043 0.23535 0.0
C1263 C 0.32911 0.1305 0.26653 0.0
O1264 O 0.36011 0.10485 0.26627 0.0
Co1265 Co 0.32042 0.09197 0.25887 0.0
O1266 O 0.33741 0.08948 0.27927 0.0
C1267 C 0.33909 0.0861 0.22463 0.0
C1268 C 0.35869 0.13868 0.22468 0.0
C1269 C 0.35362 0.09481 0.27889 0.0
O1270 O 0.34964 0.0991 0.22885 0.0
O1271 O 0.32539 0.08188 0.23411 0.0
O1272 O 0.34411 0.13879 0.26362 0.0
O1273 O 0.32545 0.11741 0.25555 0.0
Co1274 Co 0.62996 0.5994 0.00424 0.0
O1275 O 0.61511 0.58998 0.98557 0.0
O1276 O 0.61425 0.61825 0.99548 0.0
C1277 C 0.62613 0.5767 0.02377 0.0
O1278 O 0.64354 0.61333 0.02356 0.0
Co1279 Co 0.66446 0.57815 0.01355 0.0
O1280 O 0.66361 0.59388 0.03524 0.0
C1281 C 0.66398 0.60109 0.9813 0.0
C1282 C 0.60824 0.60598 0.98446 0.0
C1283 C 0.65519 0.60883 0.03553 0.0
O1284 O 0.64828 0.60635 0.98587 0.0
O1285 O 0.67258 0.58883 0.98986 0.0
O1286 O 0.61439 0.58955 0.0226 0.0
O1287 O 0.63863 0.57685 0.01164 0.0
Co1288 Co 0.65666 0.38111 0.24472 0.0
O1289 O 0.66532 0.36438 0.22704 0.0
O1290 O 0.63664 0.37012 0.23216 0.0
C1291 C 0.67389 0.37181 0.26766 0.0
O1292 O 0.64313 0.39722 0.26252 0.0
Co1293 Co 0.68345 0.40959 0.25982 0.0
O1294 O 0.66398 0.41329 0.27762 0.0
C1295 C 0.66918 0.41386 0.22318 0.0
C1296 C 0.64872 0.36116 0.2232 0.0
C1297 C 0.64793 0.40796 0.27531 0.0
O1298 O 0.65802 0.40103 0.22634 0.0
O1299 O 0.68152 0.4184 0.23427 0.0
O1300 O 0.65928 0.36321 0.26366 0.0
O1301 O 0.67866 0.3842 0.25637 0.0
Co1302 Co 0.12888 0.91019 0.00507 0.0
O1303 O 0.11195 0.92014 0.02168 0.0
O1304 O 0.11351 0.89125 0.0139 0.0
C1305 C 0.12567 0.93103 0.98343 0.0
O1306 O 0.14442 0.8953 0.98812 0.0
Co1307 Co 0.16314 0.93187 0.99598 0.0
O1308 O 0.16479 0.91409 0.97602 0.0
C1309 C 0.16162 0.91125 0.02985 0.0
C1310 C 0.10575 0.90388 0.02326 0.0
C1311 C 0.15688 0.89889 0.9767 0.0
O1312 O 0.14604 0.90561 0.02528 0.0
O1313 O 0.17053 0.92265 0.02047 0.0
O1314 O 0.11442 0.91777 0.98481 0.0
O1315 O 0.13721 0.93246 0.99641 0.0
Co1316 Co 0.33157 0.87861 0.25358 0.0
O1317 O 0.32454 0.86312 0.27303 0.0
O1318 O 0.35259 0.86789 0.26445 0.0
C1319 C 0.3118 0.86848 0.23319 0.0
O1320 O 0.34358 0.89319 0.23358 0.0
Co1321 Co 0.3042 0.90686 0.2391 0.0
O1322 O 0.32162 0.9081 0.21893 0.0
C1323 C 0.32212 0.91311 0.27385 0.0
C1324 C 0.34142 0.85963 0.27509 0.0
C1325 C 0.33775 0.90268 0.22026 0.0
O1326 O 0.33257 0.89966 0.27071 0.0
O1327 O 0.30894 0.91728 0.26363 0.0
O1328 O 0.32655 0.8597 0.23613 0.0
O1329 O 0.30858 0.88166 0.24413 0.0
Co1330 Co 0.15313 0.11574 0.74578 0.0
O1331 O 0.16049 0.13598 0.76001 0.0
O1332 O 0.13228 0.12894 0.75402 0.0
C1333 C 0.17228 0.1194 0.72268 0.0
O1334 O 0.14075 0.09627 0.73107 0.0
Co1335 Co 0.18036 0.08448 0.73996 0.0
O1336 O 0.16124 0.07501 0.72401 0.0
C1337 C 0.16268 0.08825 0.77502 0.0
C1338 C 0.14362 0.13959 0.76201 0.0
C1339 C 0.14553 0.08165 0.72308 0.0
O1340 O 0.15236 0.10031 0.76815 0.0
O1341 O 0.17596 0.08143 0.7665 0.0
O1342 O 0.15763 0.12882 0.72351 0.0
O1343 O 0.17598 0.11005 0.73693 0.0
H1344 H 0.02133 0.1743 0.3608 0.0
H1345 H 0.0566 0.16834 0.40646 0.0
H1346 H 0.07965 0.18587 0.39104 0.0
H1347 H 0.08838 0.20551 0.36632 0.0
H1348 H 0.05245 0.21395 0.32146 0.0
H1349 H 0.03114 0.19272 0.33471 0.0
C1350 C 0.03423 0.17658 0.36713 0.0
C1351 C 0.03736 0.17014 0.38468 0.0
C1352 C 0.04718 0.18727 0.35844 0.0
C1353 C 0.05396 0.1733 0.39295 0.0
C1354 C 0.06709 0.18333 0.38418 0.0
C1355 C 0.07601 0.20258 0.35924 0.0
C1356 C 0.07199 0.21149 0.34298 0.0
C1357 C 0.06364 0.19082 0.36717 0.0
C1358 C 0.05587 0.20741 0.33407 0.0
C1359 C 0.04364 0.19528 0.34165 0.0
H1360 H 0.03599 0.80351 0.58677 0.0
H1361 H 0.04269 0.85382 0.61551 0.0
H1362 H 0.06586 0.84044 0.63405 0.0
H1363 H 0.08122 0.81349 0.64503 0.0
H1364 H 0.0759 0.76338 0.61616 0.0
H1365 H 0.05537 0.77767 0.59465 0.0
C1366 C 0.04276 0.81165 0.59683 0.0
C1367 C 0.03718 0.8295 0.6 0.0
C1368 C 0.0562 0.80387 0.60759 0.0
C1369 C 0.04636 0.83992 0.61294 0.0
C1370 C 0.05965 0.8323 0.62363 0.0
C1371 C 0.0758 0.80584 0.6338 0.0
C1372 C 0.07975 0.78747 0.6322 0.0
C1373 C 0.06417 0.81413 0.62155 0.0
C1374 C 0.07294 0.77762 0.61755 0.0
C1375 C 0.06115 0.78574 0.60536 0.0
H1376 H 0.42708 0.78732 0.83656 0.0
H1377 H 0.38779 0.78915 0.87938 0.0
H1378 H 0.40453 0.81297 0.89426 0.0
H1379 H 0.43236 0.83004 0.89745 0.0
H1380 H 0.47174 0.82877 0.85498 0.0
H1381 H 0.45281 0.80816 0.83749 0.0
C1382 C 0.42199 0.79314 0.84898 0.0
C1383 C 0.40638 0.78609 0.857 0.0
C1384 C 0.43178 0.80683 0.85762 0.0
C1385 C 0.39986 0.79407 0.87295 0.0
C1386 C 0.40946 0.80769 0.88155 0.0
C1387 C 0.43661 0.8255 0.8842 0.0
C1388 C 0.45346 0.83062 0.87757 0.0
C1389 C 0.42576 0.81365 0.87437 0.0
C1390 C 0.45879 0.82495 0.86031 0.0
C1391 C 0.44803 0.81308 0.8504 0.0
H1392 H 0.46184 0.18502 0.09191 0.0
H1393 H 0.45858 0.14426 0.13351 0.0
H1394 H 0.43659 0.16215 0.14965 0.0
H1395 H 0.42086 0.19072 0.15389 0.0
H1396 H 0.42304 0.23144 0.11248 0.0
H1397 H 0.44267 0.21213 0.09424 0.0
C1398 C 0.45614 0.17993 0.10436 0.0
C1399 C 0.4622 0.16344 0.11159 0.0
C1400 C 0.44338 0.19032 0.11371 0.0
C1401 C 0.45441 0.15697 0.12764 0.0
C1402 C 0.44181 0.16721 0.13698 0.0
C1403 C 0.42545 0.19523 0.14074 0.0
C1404 C 0.42079 0.21248 0.13459 0.0
C1405 C 0.43663 0.18411 0.13043 0.0
C1406 C 0.42651 0.21815 0.11745 0.0
C1407 C 0.43781 0.20717 0.1071 0.0
H1408 H 0.02502 0.82342 0.13345 0.0
H1409 H 0.06272 0.83169 0.09015 0.0
H1410 H 0.0843 0.81199 0.10508 0.0
H1411 H 0.09093 0.78976 0.12826 0.0
H1412 H 0.05258 0.77942 0.17066 0.0
H1413 H 0.03289 0.80271 0.15838 0.0
C1414 C 0.03814 0.82122 0.12757 0.0
C1415 C 0.04233 0.8289 0.11075 0.0
C1416 C 0.05025 0.80931 0.13591 0.0
C1417 C 0.05924 0.8258 0.10307 0.0
C1418 C 0.07153 0.81451 0.11156 0.0
C1419 C 0.07836 0.79267 0.135 0.0
C1420 C 0.07317 0.78261 0.15023 0.0
C1421 C 0.06694 0.80573 0.12765 0.0
C1422 C 0.05689 0.78681 0.15882 0.0
C1423 C 0.04559 0.80012 0.15179 0.0
H1424 H 0.41998 0.81086 0.34837 0.0
H1425 H 0.42115 0.76709 0.38658 0.0
H1426 H 0.44267 0.7837 0.40526 0.0
H1427 H 0.46384 0.80923 0.40856 0.0
H1428 H 0.46163 0.85293 0.36998 0.0
H1429 H 0.43779 0.83784 0.3538 0.0
C1430 C 0.42472 0.80511 0.36097 0.0
C1431 C 0.41921 0.78777 0.36604 0.0
C1432 C 0.43708 0.81464 0.37148 0.0
C1433 C 0.42521 0.7805 0.38246 0.0
C1434 C 0.43762 0.78992 0.39305 0.0
C1435 C 0.45798 0.81556 0.39677 0.0
C1436 C 0.46489 0.83205 0.39036 0.0
C1437 C 0.4441 0.80678 0.38737 0.0
C1438 C 0.45689 0.84014 0.37516 0.0
C1439 C 0.44319 0.83153 0.36582 0.0
H1440 H 0.43068 0.21003 0.66636 0.0
H1441 H 0.38767 0.20888 0.62735 0.0
H1442 H 0.40378 0.18668 0.60959 0.0
H1443 H 0.43146 0.17043 0.60311 0.0
H1444 H 0.47456 0.1709 0.64175 0.0
H1445 H 0.45693 0.19032 0.66179 0.0
C1446 C 0.42469 0.20472 0.65414 0.0
C1447 C 0.40814 0.21148 0.64806 0.0
C1448 C 0.4341 0.19193 0.64381 0.0
C1449 C 0.4005 0.20421 0.63228 0.0
C1450 C 0.40972 0.19149 0.62204 0.0
C1451 C 0.43688 0.1746 0.61604 0.0
C1452 C 0.45433 0.16955 0.62087 0.0
C1453 C 0.42675 0.18574 0.62736 0.0
C1454 C 0.46114 0.1747 0.63777 0.0
C1455 C 0.45111 0.18588 0.64915 0.0
H1456 H 0.08142 0.18376 0.85397 0.0
H1457 H 0.08079 0.22797 0.89164 0.0
H1458 H 0.05827 0.2123 0.91001 0.0
H1459 H 0.03634 0.18732 0.91323 0.0
H1460 H 0.03836 0.14308 0.87522 0.0
H1461 H 0.06275 0.15742 0.85929 0.0
C1462 C 0.07657 0.18979 0.8664 0.0
C1463 C 0.08254 0.20698 0.87142 0.0
C1464 C 0.0637 0.18079 0.87673 0.0
C1465 C 0.07638 0.21466 0.8876 0.0
C1466 C 0.0634 0.20578 0.89799 0.0
C1467 C 0.04227 0.18073 0.90161 0.0
C1468 C 0.03518 0.16427 0.89533 0.0
C1469 C 0.05656 0.18904 0.89237 0.0
C1470 C 0.04326 0.15583 0.88035 0.0
C1471 C 0.05728 0.16401 0.87114 0.0
H1472 H 0.37155 0.04513 0.15773 0.0
H1473 H 0.321 0.01712 0.16069 0.0
H1474 H 0.31161 0.03666 0.18554 0.0
H1475 H 0.3187 0.06033 0.20786 0.0
H1476 H 0.36951 0.08796 0.20443 0.0
H1477 H 0.37777 0.06984 0.17842 0.0
C1478 C 0.35839 0.04335 0.16367 0.0
C1479 C 0.34709 0.02955 0.15743 0.0
C1480 C 0.35317 0.05445 0.17805 0.0
C1481 C 0.33 0.02764 0.16519 0.0
C1482 C 0.32466 0.03873 0.1795 0.0
C1483 C 0.33156 0.06242 0.20141 0.0
C1484 C 0.3435 0.07539 0.2083 0.0
C1485 C 0.3363 0.05194 0.1863 0.0
C1486 C 0.36003 0.07804 0.19956 0.0
C1487 C 0.36481 0.06768 0.18464 0.0
H1488 H 0.19143 0.09135 0.45804 0.0
H1489 H 0.1475 0.12904 0.4532 0.0
H1490 H 0.16469 0.1471 0.43217 0.0
H1491 H 0.19316 0.1541 0.41767 0.0
H1492 H 0.23698 0.1165 0.42114 0.0
H1493 H 0.21883 0.09643 0.44006 0.0
C1494 C 0.18552 0.10336 0.45219 0.0
C1495 C 0.16834 0.10898 0.45757 0.0
C1496 C 0.1955 0.11381 0.43998 0.0
C1497 C 0.1608 0.12447 0.4496 0.0
C1498 C 0.17062 0.13489 0.43755 0.0
C1499 C 0.19862 0.1414 0.42243 0.0
C1500 C 0.21634 0.13682 0.41836 0.0
C1501 C 0.18813 0.12999 0.4331 0.0
C1502 C 0.2233 0.12024 0.42423 0.0
C1503 C 0.21297 0.10884 0.43508 0.0
H1504 H 0.16283 0.97943 0.6514 0.0
H1505 H 0.11562 0.94696 0.6432 0.0
H1506 H 0.12579 0.92572 0.66615 0.0
H1507 H 0.14614 0.91835 0.69072 0.0
H1508 H 0.19247 0.95177 0.70051 0.0
H1509 H 0.18467 0.97053 0.67462 0.0
C1510 C 0.15499 0.96749 0.65438 0.0
C1511 C 0.13848 0.96479 0.64574 0.0
C1512 C 0.16063 0.95563 0.66801 0.0
C1513 C 0.12833 0.94937 0.64981 0.0
C1514 C 0.13411 0.93725 0.66294 0.0
C1515 C 0.1547 0.9296 0.68712 0.0
C1516 C 0.16974 0.93376 0.69775 0.0
C1517 C 0.14993 0.94057 0.67251 0.0
C1518 C 0.1807 0.94833 0.69271 0.0
C1519 C 0.17625 0.9591 0.6779 0.0
H1520 H 0.27034 0.88384 0.91237 0.0
H1521 H 0.30714 0.83919 0.90922 0.0
H1522 H 0.32908 0.85592 0.92704 0.0
H1523 H 0.33567 0.88096 0.94728 0.0
H1524 H 0.29764 0.92441 0.95318 0.0
H1525 H 0.27842 0.9106 0.93038 0.0
C1526 C 0.28339 0.87806 0.91516 0.0
C1527 C 0.28722 0.86039 0.90955 0.0
C1528 C 0.29557 0.88742 0.92616 0.0
C1529 C 0.30399 0.85281 0.91346 0.0
C1530 C 0.31646 0.86232 0.92372 0.0
C1531 C 0.32337 0.88766 0.94335 0.0
C1532 C 0.31802 0.90359 0.95214 0.0
C1533 C 0.31209 0.87931 0.93075 0.0
C1534 C 0.30201 0.91203 0.9468 0.0
C1535 C 0.29098 0.90412 0.93377 0.0
H1536 H 0.3301 0.97208 0.3346 0.0
H1537 H 0.38083 0.94499 0.34136 0.0
H1538 H 0.37244 0.9229 0.31851 0.0
H1539 H 0.3516 0.91242 0.29534 0.0
H1540 H 0.30135 0.9402 0.28768 0.0
H1541 H 0.30867 0.96079 0.31225 0.0
C1542 C 0.33924 0.96122 0.33125 0.0
C1543 C 0.35609 0.96026 0.33963 0.0
C1544 C 0.33449 0.94874 0.31785 0.0
C1545 C 0.36782 0.94614 0.33502 0.0
C1546 C 0.36304 0.93349 0.32196 0.0
C1547 C 0.34216 0.92287 0.29911 0.0
C1548 C 0.326 0.9248 0.28956 0.0
C1549 C 0.34655 0.93485 0.31306 0.0
C1550 C 0.31395 0.93846 0.29468 0.0
C1551 C 0.31811 0.95026 0.30875 0.0
H1552 H 0.27258 0.11537 0.57058 0.0
H1553 H 0.31216 0.15528 0.58452 0.0
H1554 H 0.33426 0.14009 0.56561 0.0
H1555 H 0.34115 0.11798 0.54232 0.0
H1556 H 0.30129 0.07888 0.52661 0.0
H1557 H 0.28061 0.09108 0.54907 0.0
C1558 C 0.28618 0.1204 0.56981 0.0
C1559 C 0.29078 0.13641 0.57885 0.0
C1560 C 0.29869 0.11193 0.55836 0.0
C1561 C 0.30835 0.14299 0.57759 0.0
C1562 C 0.32096 0.13437 0.56673 0.0
C1563 C 0.32802 0.11195 0.54388 0.0
C1564 C 0.32274 0.0977 0.53253 0.0
C1565 C 0.31608 0.11923 0.55656 0.0
C1566 C 0.30572 0.08995 0.53502 0.0
C1567 C 0.29384 0.09696 0.54786 0.0
H1568 H 0.126 0.05246 0.84224 0.0
H1569 H 0.17666 0.02454 0.8443 0.0
H1570 H 0.1882 0.04365 0.82012 0.0
H1571 H 0.1826 0.06572 0.79606 0.0
H1572 H 0.1318 0.09349 0.79408 0.0
H1573 H 0.12175 0.07713 0.82071 0.0
C1574 C 0.13965 0.0507 0.83756 0.0
C1575 C 0.15034 0.03691 0.84485 0.0
C1576 C 0.14614 0.06161 0.82357 0.0
C1577 C 0.16811 0.03502 0.83888 0.0
C1578 C 0.17469 0.04588 0.82497 0.0
C1579 C 0.16941 0.06837 0.80157 0.0
C1580 C 0.15787 0.08057 0.79283 0.0
C1581 C 0.16362 0.05882 0.81684 0.0
C1582 C 0.14094 0.08407 0.80039 0.0
C1583 C 0.13513 0.07467 0.81561 0.0
H1584 H 0.19039 0.85277 0.08301 0.0
H1585 H 0.24007 0.88016 0.07241 0.0
H1586 H 0.22405 0.90392 0.05599 0.0
H1587 H 0.19633 0.91433 0.04129 0.0
H1588 H 0.14656 0.88706 0.05303 0.0
H1589 H 0.16211 0.86619 0.07282 0.0
C1590 C 0.19758 0.86418 0.0774 0.0
C1591 C 0.21625 0.8648 0.07863 0.0
C1592 C 0.18829 0.87775 0.06816 0.0
C1593 C 0.22561 0.87958 0.07153 0.0
C1594 C 0.21648 0.89307 0.06211 0.0
C1595 C 0.1888 0.90411 0.0485 0.0
C1596 C 0.17037 0.90201 0.04523 0.0
C1597 C 0.19786 0.89197 0.05984 0.0
C1598 C 0.16082 0.88882 0.05495 0.0
C1599 C 0.1697 0.87678 0.06626 0.0
H1600 H 0.19849 0.35731 0.09438 0.0
H1601 H 0.21852 0.32646 0.04925 0.0
H1602 H 0.1962 0.34041 0.02953 0.0
H1603 H 0.17463 0.36525 0.02418 0.0
H1604 H 0.15725 0.39781 0.06907 0.0
H1605 H 0.1747 0.37922 0.08985 0.0
C1606 C 0.19784 0.35336 0.08028 0.0
C1607 C 0.21044 0.34111 0.07325 0.0
C1608 C 0.18547 0.3619 0.06893 0.0
C1609 C 0.2091 0.33595 0.05503 0.0
C1610 C 0.1964 0.34402 0.0437 0.0
C1611 C 0.17426 0.36782 0.03859 0.0
C1612 C 0.16469 0.38275 0.04521 0.0
C1613 C 0.18503 0.35757 0.05035 0.0
C1614 C 0.16451 0.3863 0.0638 0.0
C1615 C 0.17457 0.37576 0.07563 0.0
H1616 H 0.66858 0.14481 0.97403 0.0
H1617 H 0.65174 0.1168 0.92602 0.0
H1618 H 0.67392 0.13315 0.90814 0.0
H1619 H 0.70099 0.15147 0.90721 0.0
H1620 H 0.71963 0.17795 0.95557 0.0
H1621 H 0.69381 0.16638 0.97221 0.0
C1622 C 0.66938 0.14286 0.95954 0.0
C1623 C 0.65851 0.12981 0.95124 0.0
C1624 C 0.68276 0.15172 0.94951 0.0
C1625 C 0.6599 0.12695 0.93257 0.0
C1626 C 0.67269 0.13615 0.92241 0.0
C1627 C 0.69933 0.15495 0.92134 0.0
C1628 C 0.71247 0.1653 0.93018 0.0
C1629 C 0.68469 0.14794 0.93089 0.0
C1630 C 0.70985 0.16989 0.94842 0.0
C1631 C 0.69509 0.16322 0.95798 0.0
H1632 H 0.07902 0.4172 0.22305 0.0
H1633 H 0.12871 0.40684 0.19515 0.0
H1634 H 0.12269 0.43158 0.17442 0.0
H1635 H 0.1044 0.4571 0.1653 0.0
H1636 H 0.05526 0.4688 0.19371 0.0
H1637 H 0.05998 0.44257 0.21309 0.0
C1638 C 0.08838 0.42025 0.21228 0.0
C1639 C 0.1043 0.41027 0.21068 0.0
C1640 C 0.08504 0.43481 0.20059 0.0
C1641 C 0.11642 0.41444 0.19677 0.0
C1642 C 0.113 0.42857 0.18489 0.0
C1643 C 0.09461 0.45392 0.17565 0.0
C1644 C 0.07955 0.46502 0.17807 0.0
C1645 C 0.09752 0.43903 0.18688 0.0
C1646 C 0.06705 0.46058 0.19158 0.0
C1647 C 0.06972 0.44556 0.20267 0.0
H1648 H 0.77788 0.83737 0.44035 0.0
H1649 H 0.79291 0.86519 0.39143 0.0
H1650 H 0.81785 0.87938 0.40695 0.0
H1651 H 0.83166 0.8883 0.43558 0.0
H1652 H 0.8169 0.8611 0.48468 0.0
H1653 H 0.7958 0.84203 0.46798 0.0
C1654 C 0.78691 0.84612 0.43298 0.0
C1655 C 0.78322 0.85061 0.41492 0.0
C1656 C 0.80117 0.85452 0.44208 0.0
C1657 C 0.79517 0.86185 0.40549 0.0
C1658 C 0.80946 0.87001 0.41434 0.0
C1659 C 0.82426 0.87772 0.44243 0.0
C1660 C 0.82568 0.87595 0.46117 0.0
C1661 C 0.81203 0.86712 0.43281 0.0
C1662 C 0.81602 0.86244 0.47014 0.0
C1663 C 0.80386 0.85171 0.46063 0.0
H1664 H 0.88166 0.09256 0.19092 0.0
H1665 H 0.92524 0.08421 0.22818 0.0
H1666 H 0.93437 0.05725 0.21145 0.0
H1667 H 0.92773 0.03425 0.18828 0.0
H1668 H 0.88353 0.04288 0.15165 0.0
H1669 H 0.87695 0.07151 0.16615 0.0
C1670 C 0.89331 0.08499 0.19528 0.0
C1671 C 0.90261 0.09025 0.21092 0.0
C1672 C 0.89824 0.06939 0.18584 0.0
C1673 C 0.91784 0.08045 0.21619 0.0
C1674 C 0.92297 0.06495 0.20671 0.0
C1675 C 0.91679 0.04247 0.18332 0.0
C1676 C 0.90597 0.03617 0.16906 0.0
C1677 C 0.91293 0.05899 0.19183 0.0
C1678 C 0.89195 0.04717 0.16274 0.0
C1679 C 0.88816 0.0636 0.17101 0.0
H1680 H 0.28155 0.66219 0.5649 0.0
H1681 H 0.29657 0.63465 0.61402 0.0
H1682 H 0.32065 0.61933 0.5983 0.0
H1683 H 0.33438 0.6101 0.56988 0.0
H1684 H 0.32026 0.63717 0.5205 0.0
H1685 H 0.2992 0.65654 0.53701 0.0
C1686 C 0.29036 0.65316 0.57222 0.0
C1687 C 0.2869 0.64924 0.5905 0.0
C1688 C 0.30428 0.64417 0.56303 0.0
C1689 C 0.29859 0.63762 0.59984 0.0
C1690 C 0.31243 0.62883 0.59089 0.0
C1691 C 0.32703 0.6206 0.56286 0.0
C1692 C 0.32867 0.62221 0.54409 0.0
C1693 C 0.31491 0.63143 0.57237 0.0
C1694 C 0.31922 0.63583 0.53502 0.0
C1695 C 0.30706 0.64675 0.54444 0.0
H1696 H 0.12166 0.58963 0.30529 0.0
H1697 H 0.07293 0.5844 0.27445 0.0
H1698 H 0.06432 0.55821 0.29247 0.0
H1699 H 0.07181 0.53539 0.3155 0.0
H1700 H 0.12078 0.54116 0.34603 0.0
H1701 H 0.12801 0.56846 0.32955 0.0
C1702 C 0.10907 0.58288 0.30257 0.0
C1703 C 0.09807 0.58888 0.28842 0.0
C1704 C 0.10428 0.56777 0.31282 0.0
C1705 C 0.08168 0.58008 0.28527 0.0
C1706 C 0.07679 0.56502 0.2955 0.0
C1707 C 0.08401 0.54266 0.31861 0.0
C1708 C 0.0958 0.536 0.33185 0.0
C1709 C 0.08818 0.5585 0.30906 0.0
C1710 C 0.11147 0.54578 0.33582 0.0
C1711 C 0.11566 0.56146 0.32641 0.0
H1712 H 0.43499 0.43742 0.82721 0.0
H1713 H 0.38331 0.45122 0.8495 0.0
H1714 H 0.36984 0.42568 0.83401 0.0
H1715 H 0.37184 0.40264 0.81043 0.0
H1716 H 0.42327 0.38902 0.78768 0.0
H1717 H 0.43775 0.4111 0.80731 0.0
C1718 C 0.42084 0.43467 0.82896 0.0
C1719 C 0.41013 0.44653 0.83912 0.0
C1720 C 0.41308 0.4201 0.81979 0.0
C1721 C 0.39188 0.4425 0.84156 0.0
C1722 C 0.38411 0.42792 0.83263 0.0
C1723 C 0.38626 0.40429 0.81 0.0
C1724 C 0.39643 0.39452 0.79738 0.0
C1725 C 0.39444 0.41714 0.82111 0.0
C1726 C 0.41514 0.39647 0.79721 0.0
C1727 C 0.42341 0.40918 0.80835 0.0
H1728 H 0.93798 0.78804 0.66487 0.0
H1729 H 0.89301 0.78788 0.62816 0.0
H1730 H 0.90618 0.81252 0.61123 0.0
H1731 H 0.93268 0.83032 0.6037 0.0
H1732 H 0.97773 0.83105 0.63991 0.0
H1733 H 0.96217 0.81034 0.66039 0.0
C1734 C 0.93087 0.79364 0.65341 0.0
C1735 C 0.91479 0.78568 0.64753 0.0
C1736 C 0.93859 0.80787 0.64354 0.0
C1737 C 0.90562 0.79338 0.63281 0.0
C1738 C 0.91313 0.80753 0.62306 0.0
C1739 C 0.93882 0.82635 0.61636 0.0
C1740 C 0.9563 0.83195 0.62029 0.0
C1741 C 0.92994 0.81429 0.62782 0.0
C1742 C 0.9642 0.82691 0.63672 0.0
C1743 C 0.95539 0.81491 0.6483 0.0
H1744 H 0.94755 0.18989 0.41199 0.0
H1745 H 0.94928 0.14559 0.37408 0.0
H1746 H 0.92662 0.16003 0.35569 0.0
H1747 H 0.91036 0.18746 0.34757 0.0
H1748 H 0.90777 0.23167 0.38519 0.0
H1749 H 0.92638 0.21491 0.40663 0.0
C1750 C 0.94271 0.18322 0.39992 0.0
C1751 C 0.95061 0.16699 0.39416 0.0
C1752 C 0.92959 0.19163 0.38924 0.0
C1753 C 0.94385 0.15834 0.37866 0.0
C1754 C 0.93083 0.16656 0.36806 0.0
C1755 C 0.91348 0.19316 0.3607 0.0
C1756 C 0.90801 0.21074 0.3648 0.0
C1757 C 0.92425 0.18356 0.37279 0.0
C1758 C 0.91188 0.21806 0.38184 0.0
C1759 C 0.92265 0.20857 0.394 0.0
H1760 H 0.56602 0.15662 0.10998 0.0
H1761 H 0.52345 0.15937 0.14911 0.0
H1762 H 0.54103 0.18042 0.16743 0.0
H1763 H 0.56631 0.20182 0.1693 0.0
H1764 H 0.60887 0.19834 0.1299 0.0
H1765 H 0.59364 0.17361 0.11497 0.0
C1766 C 0.56085 0.16146 0.12279 0.0
C1767 C 0.54348 0.1567 0.12815 0.0
C1768 C 0.57091 0.17364 0.13307 0.0
C1769 C 0.53687 0.16285 0.14479 0.0
C1770 C 0.54684 0.17503 0.15515 0.0
C1771 C 0.57245 0.19541 0.15769 0.0
C1772 C 0.58847 0.20237 0.15047 0.0
C1773 C 0.56356 0.18112 0.14899 0.0
C1774 C 0.59637 0.19361 0.13559 0.0
C1775 C 0.58767 0.17942 0.12697 0.0
H1776 H 0.58507 0.81398 0.85589 0.0
H1777 H 0.58038 0.76776 0.89075 0.0
H1778 H 0.559 0.78405 0.90985 0.0
H1779 H 0.53785 0.80956 0.9132 0.0
H1780 H 0.54318 0.85562 0.87784 0.0
H1781 H 0.56818 0.84137 0.8626 0.0
C1782 C 0.57976 0.80772 0.868 0.0
C1783 C 0.58407 0.78974 0.87188 0.0
C1784 C 0.56731 0.81701 0.87864 0.0
C1785 C 0.57727 0.78168 0.8876 0.0
C1786 C 0.56488 0.79091 0.89838 0.0
C1787 C 0.54471 0.81663 0.90242 0.0
C1788 C 0.53822 0.83341 0.89637 0.0
C1789 C 0.55918 0.8083 0.89353 0.0
C1790 C 0.54752 0.8425 0.88255 0.0
C1791 C 0.56189 0.83438 0.87378 0.0
H1792 H 0.97245 0.16358 0.85712 0.0
H1793 H 0.9292 0.15431 0.89445 0.0
H1794 H 0.90953 0.17367 0.87661 0.0
H1795 H 0.90642 0.19707 0.85374 0.0
H1796 H 0.95041 0.20858 0.81772 0.0
H1797 H 0.96788 0.18437 0.83146 0.0
C1798 C 0.95853 0.16533 0.8609 0.0
C1799 C 0.95217 0.15759 0.87697 0.0
C1800 C 0.94757 0.17719 0.85104 0.0
C1801 C 0.93426 0.16016 0.88205 0.0
C1802 C 0.92309 0.17132 0.87195 0.0
C1803 C 0.91973 0.19415 0.84867 0.0
C1804 C 0.9272 0.20494 0.83498 0.0
C1805 C 0.92987 0.18057 0.85694 0.0
C1806 C 0.94436 0.20067 0.82839 0.0
C1807 C 0.95441 0.18684 0.83628 0.0
H1808 H 0.5441 0.15222 0.6117 0.0
H1809 H 0.52991 0.19525 0.57513 0.0
H1810 H 0.55451 0.21354 0.58688 0.0
H1811 H 0.57684 0.21899 0.6109 0.0
H1812 H 0.58846 0.17679 0.64916 0.0
H1813 H 0.56823 0.15638 0.63326 0.0
C1814 C 0.54647 0.1655 0.60606 0.0
C1815 C 0.5349 0.17246 0.59279 0.0
C1816 C 0.56017 0.17614 0.61331 0.0
C1817 C 0.53847 0.18959 0.58547 0.0
C1818 C 0.5525 0.2001 0.59225 0.0
C1819 C 0.5753 0.20515 0.61538 0.0
C1820 C 0.58404 0.19932 0.63114 0.0
C1821 C 0.56299 0.19377 0.60665 0.0
C1822 C 0.58179 0.1815 0.63706 0.0
C1823 C 0.57018 0.16989 0.62804 0.0
H1824 H 0.5301 0.82617 0.35684 0.0
H1825 H 0.57149 0.84095 0.39451 0.0
H1826 H 0.59262 0.82093 0.37924 0.0
H1827 H 0.59774 0.79595 0.3586 0.0
H1828 H 0.55573 0.77878 0.32249 0.0
H1829 H 0.53653 0.80316 0.33346 0.0
C1830 C 0.54393 0.82539 0.36124 0.0
C1831 C 0.54938 0.835 0.37664 0.0
C1832 C 0.55575 0.81318 0.35291 0.0
C1833 C 0.56715 0.83369 0.38259 0.0
C1834 C 0.57915 0.82217 0.37396 0.0
C1835 C 0.58447 0.79763 0.35291 0.0
C1836 C 0.57807 0.78528 0.34 0.0
C1837 C 0.57336 0.81128 0.35964 0.0
C1838 C 0.56096 0.78796 0.33256 0.0
C1839 C 0.54993 0.80187 0.33888 0.0
H1840 H 0.91642 0.77867 0.11609 0.0
H1841 H 0.91203 0.81771 0.15902 0.0
H1842 H 0.93114 0.83856 0.14233 0.0
H1843 H 0.95208 0.84386 0.11784 0.0
H1844 H 0.95894 0.8039 0.07598 0.0
H1845 H 0.93561 0.78534 0.08978 0.0
C1846 C 0.91932 0.79193 0.12153 0.0
C1847 C 0.91296 0.79669 0.13875 0.0
C1848 C 0.93092 0.80354 0.11218 0.0
C1849 C 0.91692 0.81378 0.14582 0.0
C1850 C 0.92786 0.82565 0.13632 0.0
C1851 C 0.9484 0.83119 0.11155 0.0
C1852 C 0.95753 0.82514 0.09607 0.0
C1853 C 0.93546 0.82038 0.11984 0.0
C1854 C 0.95228 0.80882 0.088 0.0
C1855 C 0.93898 0.79816 0.09592 0.0
H1856 H 0.62264 0.96647 0.81092 0.0
H1857 H 0.60081 0.9326 0.85267 0.0
H1858 H 0.61003 0.90566 0.83613 0.0
H1859 H 0.61809 0.89228 0.80703 0.0
H1860 H 0.63879 0.92592 0.76445 0.0
H1861 H 0.6367 0.95237 0.7841 0.0
C1862 C 0.62072 0.95317 0.8167 0.0
C1863 C 0.61123 0.95137 0.83297 0.0
C1864 C 0.62551 0.93774 0.80676 0.0
C1865 C 0.60833 0.93417 0.84026 0.0
C1866 C 0.6134 0.9188 0.8307 0.0
C1867 C 0.62266 0.90533 0.80227 0.0
C1868 C 0.62827 0.90727 0.78428 0.0
C1869 C 0.62107 0.92046 0.8135 0.0
C1870 C 0.63438 0.92413 0.77827 0.0
C1871 C 0.63302 0.93929 0.78945 0.0
H1872 H 0.80662 0.91178 0.54335 0.0
H1873 H 0.85452 0.87908 0.54324 0.0
H1874 H 0.84172 0.85951 0.56609 0.0
H1875 H 0.81524 0.84889 0.5825 0.0
H1876 H 0.76768 0.88179 0.58364 0.0
H1877 H 0.78209 0.90409 0.56415 0.0
C1878 C 0.81442 0.90062 0.5486 0.0
C1879 C 0.83129 0.89667 0.54114 0.0
C1880 C 0.80696 0.88925 0.56175 0.0
C1881 C 0.84134 0.88232 0.54841 0.0
C1882 C 0.83403 0.87101 0.56147 0.0
C1883 C 0.80819 0.86112 0.57872 0.0
C1884 C 0.7904 0.86361 0.58415 0.0
C1885 C 0.81656 0.87388 0.56763 0.0
C1886 C 0.78142 0.8796 0.57951 0.0
C1887 C 0.78961 0.8923 0.5683 0.0
H1888 H 0.87772 0.06103 0.33991 0.0
H1889 H 0.87527 0.01904 0.29991 0.0
H1890 H 0.86384 0.04048 0.27758 0.0
H1891 H 0.8612 0.07213 0.26805 0.0
H1892 H 0.86706 0.11443 0.3075 0.0
H1893 H 0.86996 0.09209 0.33153 0.0
C1894 C 0.8739 0.05653 0.32651 0.0
C1895 C 0.87707 0.03861 0.32146 0.0
C1896 C 0.86823 0.06911 0.31358 0.0
C1897 C 0.87263 0.03281 0.30402 0.0
C1898 C 0.86629 0.0451 0.29123 0.0
C1899 C 0.8624 0.0764 0.282 0.0
C1900 C 0.8641 0.09481 0.28605 0.0
C1901 C 0.86497 0.06346 0.29561 0.0
C1902 C 0.86587 0.10027 0.30412 0.0
C1903 C 0.86764 0.08751 0.31784 0.0
H1904 H 0.6826 0.08659 0.02901 0.0
H1905 H 0.63794 0.12213 0.03965 0.0
H1906 H 0.65429 0.13614 0.06416 0.0
H1907 H 0.68272 0.14148 0.07957 0.0
H1908 H 0.72738 0.10601 0.07 0.0
H1909 H 0.70952 0.08864 0.04835 0.0
C1910 C 0.67631 0.09714 0.03691 0.0
C1911 C 0.65923 0.10357 0.03207 0.0
C1912 C 0.68584 0.10529 0.05113 0.0
C1913 C 0.6512 0.11709 0.04272 0.0
C1914 C 0.66054 0.12518 0.0568 0.0
C1915 C 0.68836 0.12968 0.07303 0.0
C1916 C 0.7063 0.1251 0.07612 0.0
C1917 C 0.67809 0.11989 0.06063 0.0
C1918 C 0.71352 0.10972 0.0678 0.0
C1919 C 0.70337 0.0999 0.05532 0.0
H1920 H 0.62606 0.03578 0.68509 0.0
H1921 H 0.59957 0.07131 0.64765 0.0
H1922 H 0.6106 0.09756 0.6641 0.0
H1923 H 0.62236 0.10988 0.69228 0.0
H1924 H 0.64765 0.07468 0.7309 0.0
H1925 H 0.64296 0.04891 0.71078 0.0
C1926 C 0.6234 0.0493 0.68019 0.0
C1927 C 0.61213 0.05174 0.66521 0.0
C1928 C 0.62928 0.06437 0.69015 0.0
C1929 C 0.60837 0.06924 0.6591 0.0
C1930 C 0.61452 0.08422 0.66859 0.0
C1931 C 0.62728 0.09664 0.69606 0.0
C1932 C 0.63503 0.0941 0.71314 0.0
C1933 C 0.62417 0.0819 0.68464 0.0
C1934 C 0.64159 0.07696 0.71781 0.0
C1935 C 0.63876 0.06219 0.70637 0.0
H1936 H 0.67863 0.86116 0.4166 0.0
H1937 H 0.72457 0.89532 0.42422 0.0
H1938 H 0.70893 0.91162 0.4484 0.0
H1939 H 0.68375 0.91283 0.47026 0.0
H1940 H 0.63796 0.87827 0.46168 0.0
H1941 H 0.65189 0.86567 0.43496 0.0
C1942 C 0.685 0.87251 0.42325 0.0
C1943 C 0.70268 0.87701 0.41882 0.0
C1944 C 0.67606 0.88156 0.43719 0.0
C1945 C 0.71087 0.89174 0.42739 0.0
C1946 C 0.702 0.90091 0.44133 0.0
C1947 C 0.67669 0.90279 0.46236 0.0
C1948 C 0.66001 0.89621 0.46835 0.0
C1949 C 0.68483 0.89544 0.44683 0.0
C1950 C 0.65097 0.88335 0.45774 0.0
C1951 C 0.6589 0.8761 0.44236 0.0
H1952 H 0.88566 0.92975 0.15947 0.0
H1953 H 0.8683 0.97185 0.19539 0.0
H1954 H 0.8585 0.94929 0.2175 0.0
H1955 H 0.86101 0.91804 0.22881 0.0
H1956 H 0.88068 0.87644 0.19321 0.0
H1957 H 0.88307 0.89816 0.16865 0.0
C1958 C 0.87898 0.93388 0.17182 0.0
C1959 C 0.87747 0.95228 0.17584 0.0
C1960 C 0.87415 0.92089 0.18467 0.0
C1961 C 0.86924 0.95768 0.19198 0.0
C1962 C 0.8639 0.94478 0.20469 0.0
C1963 C 0.86525 0.91365 0.21551 0.0
C1964 C 0.87098 0.89575 0.2129 0.0
C1965 C 0.86717 0.92639 0.20155 0.0
C1966 C 0.87648 0.89022 0.19562 0.0
C1967 C 0.87789 0.90264 0.18157 0.0
H1968 H 0.84086 0.10488 0.95363 0.0
H1969 H 0.79488 0.07524 0.97273 0.0
H1970 H 0.77571 0.09173 0.95165 0.0
H1971 H 0.77145 0.11781 0.9311 0.0
H1972 H 0.81738 0.14885 0.91466 0.0
H1973 H 0.83716 0.12849 0.9312 0.0
C1974 C 0.82668 0.10177 0.95307 0.0
C1975 C 0.81932 0.08902 0.96502 0.0
C1976 C 0.81569 0.1117 0.9414 0.0
C1977 C 0.80094 0.08506 0.96381 0.0
C1978 C 0.78993 0.09457 0.9518 0.0
C1979 C 0.78584 0.11972 0.93078 0.0
C1980 C 0.79306 0.13468 0.92169 0.0
C1981 C 0.79706 0.10838 0.941 0.0
C1982 C 0.81164 0.13734 0.92157 0.0
C1983 C 0.8229 0.12578 0.93109 0.0
H1984 H 0.8012 0.63745 0.89924 0.0
H1985 H 0.79629 0.67913 0.93969 0.0
H1986 H 0.8187 0.66392 0.95825 0.0
H1987 H 0.83561 0.63622 0.96517 0.0
H1988 H 0.83777 0.59341 0.92579 0.0
H1989 H 0.82059 0.6117 0.90457 0.0
C1990 C 0.80521 0.64346 0.91196 0.0
C1991 C 0.79674 0.65923 0.91821 0.0
C1992 C 0.81747 0.63427 0.92289 0.0
C1993 C 0.8024 0.66689 0.93461 0.0
C1994 C 0.81515 0.65814 0.9453 0.0
C1995 C 0.83268 0.63111 0.95178 0.0
C1996 C 0.83774 0.61346 0.94707 0.0
C1997 C 0.82217 0.64142 0.93992 0.0
C1998 C 0.8338 0.6069 0.92974 0.0
C1999 C 0.82397 0.61733 0.91764 0.0
H2000 H 0.29253 0.82664 0.051 0.0
H2001 H 0.29895 0.85744 0.10012 0.0
H2002 H 0.31945 0.87775 0.08491 0.0
H2003 H 0.33109 0.88996 0.05643 0.0
H2004 H 0.32585 0.85902 0.00752 0.0
H2005 H 0.30948 0.83553 0.02388 0.0
C2006 C 0.29876 0.8375 0.05852 0.0
C2007 C 0.29369 0.84079 0.07653 0.0
C2008 C 0.31053 0.84933 0.04966 0.0
C2009 C 0.30225 0.85473 0.08614 0.0
C2010 C 0.31395 0.86648 0.07744 0.0
C2011 C 0.32671 0.87784 0.04952 0.0
C2012 C 0.32932 0.87623 0.03087 0.0
C2013 C 0.31744 0.86443 0.059 0.0
C2014 C 0.32388 0.86046 0.02194 0.0
C2015 C 0.31445 0.84711 0.03126 0.0
H2016 H 0.89041 0.52367 0.82843 0.0
H2017 H 0.86632 0.5549 0.8712 0.0
H2018 H 0.86072 0.5796 0.85033 0.0
H2019 H 0.85695 0.58946 0.81905 0.0
H2020 H 0.88007 0.55848 0.77581 0.0
H2021 H 0.89209 0.53673 0.79765 0.0
C2022 C 0.88449 0.53612 0.83328 0.0
C2023 C 0.8784 0.53728 0.85124 0.0
C2024 C 0.88091 0.55022 0.82104 0.0
C2025 C 0.8708 0.55353 0.85735 0.0
C2026 C 0.86754 0.56766 0.84542 0.0
C2027 C 0.86523 0.57831 0.81453 0.0
C2028 C 0.86766 0.57545 0.79599 0.0
C2029 C 0.87167 0.56575 0.82709 0.0
C2030 C 0.87824 0.56096 0.79011 0.0
C2031 C 0.8849 0.54843 0.80258 0.0
H2032 H 0.16682 0.13975 0.52197 0.0
H2033 H 0.15447 0.1006 0.5631 0.0
H2034 H 0.17363 0.11653 0.58456 0.0
H2035 H 0.19725 0.13838 0.58991 0.0
H2036 H 0.21226 0.1759 0.54799 0.0
H2037 H 0.18851 0.16404 0.5286 0.0
C2038 C 0.16791 0.13514 0.53583 0.0
C2039 C 0.15927 0.11917 0.54111 0.0
C2040 C 0.17968 0.14385 0.54777 0.0
C2041 C 0.16099 0.11296 0.5589 0.0
C2042 C 0.17203 0.12197 0.57108 0.0
C2043 C 0.19526 0.14416 0.57661 0.0
C2044 C 0.2068 0.15775 0.57027 0.0
C2045 C 0.18202 0.13692 0.5654 0.0
C2046 C 0.2037 0.1653 0.55314 0.0
C2047 C 0.19016 0.15848 0.54203 0.0
H2048 H 0.15146 0.91042 0.80238 0.0
H2049 H 0.12957 0.94711 0.76319 0.0
H2050 H 0.11552 0.96479 0.78737 0.0
H2051 H 0.11451 0.97264 0.81979 0.0
H2052 H 0.13783 0.93621 0.85867 0.0
H2053 H 0.14589 0.91537 0.8346 0.0
C2054 C 0.14303 0.92192 0.79919 0.0
C2055 C 0.14137 0.92751 0.78121 0.0
C2056 C 0.1355 0.93219 0.81314 0.0
C2057 C 0.13074 0.94252 0.77702 0.0
C2058 C 0.12291 0.9527 0.79085 0.0
C2059 C 0.12085 0.95989 0.82303 0.0
C2060 C 0.1259 0.95616 0.84095 0.0
C2061 C 0.1259 0.94812 0.80901 0.0
C2062 C 0.1341 0.93956 0.84494 0.0
C2063 C 0.13876 0.92763 0.83118 0.0
H2064 H 0.66016 0.40035 0.4348 0.0
H2065 H 0.66185 0.36591 0.48155 0.0
H2066 H 0.68223 0.34525 0.46586 0.0
H2067 H 0.70314 0.33989 0.44049 0.0
H2068 H 0.70035 0.37452 0.39363 0.0
H2069 H 0.67663 0.39193 0.40758 0.0
C2070 C 0.66465 0.38805 0.44132 0.0
C2071 C 0.65978 0.38465 0.45925 0.0
C2072 C 0.67635 0.37639 0.43229 0.0
C2073 C 0.66546 0.36868 0.46766 0.0
C2074 C 0.67723 0.35699 0.45876 0.0
C2075 C 0.69709 0.35099 0.43318 0.0
C2076 C 0.70397 0.35617 0.41627 0.0
C2077 C 0.68333 0.36111 0.44131 0.0
C2078 C 0.6957 0.37044 0.40686 0.0
C2079 C 0.68208 0.38046 0.41481 0.0
H2080 H 0.87491 0.43998 0.63907 0.0
H2081 H 0.89561 0.48161 0.6739 0.0
H2082 H 0.89267 0.46162 0.69997 0.0
H2083 H 0.87787 0.43498 0.71333 0.0
H2084 H 0.85635 0.39392 0.67848 0.0
H2085 H 0.86628 0.41073 0.65189 0.0
C2086 C 0.87927 0.44445 0.65231 0.0
C2087 C 0.88511 0.46232 0.65467 0.0
C2088 C 0.87725 0.433 0.66724 0.0
C2089 C 0.891 0.46793 0.67177 0.0
C2090 C 0.88917 0.45655 0.68672 0.0
C2091 C 0.87618 0.42938 0.6999 0.0
C2092 C 0.8666 0.41326 0.69771 0.0
C2093 C 0.88144 0.43942 0.68472 0.0
C2094 C 0.86401 0.40619 0.68036 0.0
C2095 C 0.86945 0.41592 0.66519 0.0
H2096 H 0.62604 0.56526 0.21722 0.0
H2097 H 0.64953 0.60347 0.1804 0.0
H2098 H 0.63729 0.58694 0.15469 0.0
H2099 H 0.62525 0.55875 0.14292 0.0
H2100 H 0.6035 0.5191 0.17938 0.0
H2101 H 0.60923 0.53916 0.205 0.0
C2102 C 0.62781 0.57025 0.20356 0.0
C2103 C 0.63851 0.58549 0.20052 0.0
C2104 C 0.62132 0.56024 0.18883 0.0
C2105 C 0.64116 0.59179 0.18288 0.0
C2106 C 0.63431 0.58227 0.16823 0.0
C2107 C 0.62138 0.55468 0.15644 0.0
C2108 C 0.61434 0.53737 0.15935 0.0
C2109 C 0.62518 0.56602 0.17104 0.0
C2110 C 0.60904 0.53236 0.17684 0.0
C2111 C 0.61246 0.54376 0.1915 0.0
H2112 H 0.58719 0.71094 0.87514 0.0
H2113 H 0.55472 0.70997 0.82697 0.0
H2114 H 0.53424 0.68855 0.84138 0.0
H2115 H 0.52444 0.67195 0.86861 0.0
H2116 H 0.55603 0.67548 0.91724 0.0
H2117 H 0.57803 0.69408 0.90165 0.0
C2118 C 0.57582 0.70585 0.86761 0.0
C2119 C 0.57252 0.71201 0.84997 0.0
C2120 C 0.56383 0.69415 0.87616 0.0
C2121 C 0.55755 0.70543 0.84057 0.0
C2122 C 0.54582 0.69324 0.84882 0.0
C2123 C 0.53624 0.67669 0.87569 0.0
C2124 C 0.5386 0.67247 0.89405 0.0
C2125 C 0.54863 0.68781 0.86676 0.0
C2126 C 0.55384 0.67875 0.90316 0.0
C2127 C 0.56645 0.68932 0.89425 0.0
H2128 H 0.53906 0.30215 0.07991 0.0
H2129 H 0.53453 0.34528 0.11893 0.0
H2130 H 0.55688 0.33107 0.1378 0.0
H2131 H 0.57587 0.30532 0.14475 0.0
H2132 H 0.582 0.26248 0.10598 0.0
H2133 H 0.56112 0.27772 0.08544 0.0
C2134 C 0.5431 0.3085 0.09244 0.0
C2135 C 0.53486 0.32465 0.09802 0.0
C2136 C 0.55623 0.3003 0.10335 0.0
C2137 C 0.54048 0.33282 0.11423 0.0
C2138 C 0.55328 0.32469 0.12514 0.0
C2139 C 0.57278 0.29945 0.1317 0.0
C2140 C 0.58022 0.28279 0.1269 0.0
C2141 C 0.56094 0.30828 0.12004 0.0
C2142 C 0.5764 0.27537 0.10989 0.0
C2143 C 0.56438 0.28401 0.09823 0.0
H2144 H 0.94119 0.32783 0.39772 0.0
H2145 H 0.98458 0.32791 0.35935 0.0
H2146 H 0.96638 0.31059 0.33803 0.0
H2147 H 0.93942 0.29249 0.33199 0.0
H2148 H 0.8959 0.29326 0.37044 0.0
H2149 H 0.91276 0.31347 0.38983 0.0
C2150 C 0.94654 0.32424 0.38458 0.0
C2151 C 0.96421 0.32882 0.38017 0.0
C2152 C 0.93603 0.31439 0.37244 0.0
C2153 C 0.97097 0.32445 0.36302 0.0
C2154 C 0.96062 0.31448 0.35088 0.0
C2155 C 0.9335 0.2973 0.34446 0.0
C2156 C 0.91655 0.29103 0.34987 0.0
C2157 C 0.9433 0.30893 0.35568 0.0
C2158 C 0.90897 0.29768 0.36595 0.0
C2159 C 0.91864 0.3092 0.37715 0.0
H2160 H 0.96207 0.65229 0.6129 0.0
H2161 H 0.98216 0.69619 0.58044 0.0
H2162 H 0.95802 0.71561 0.5914 0.0
H2163 H 0.93368 0.72122 0.6135 0.0
H2164 H 0.91545 0.67764 0.64724 0.0
H2165 H 0.93618 0.65691 0.63234 0.0
C2166 C 0.96111 0.66604 0.60801 0.0
C2167 C 0.97414 0.67282 0.59608 0.0
C2168 C 0.94747 0.67721 0.61466 0.0
C2169 C 0.97242 0.69061 0.58971 0.0
C2170 C 0.95863 0.70176 0.59603 0.0
C2171 C 0.93393 0.70705 0.6171 0.0
C2172 C 0.92303 0.7008 0.63124 0.0
C2173 C 0.94641 0.69538 0.60894 0.0
C2174 C 0.92366 0.68258 0.63623 0.0
C2175 C 0.93558 0.6708 0.62782 0.0
H2176 H 0.52414 0.3198 0.63126 0.0
H2177 H 0.56002 0.32674 0.58619 0.0
H2178 H 0.58271 0.30856 0.60135 0.0
H2179 H 0.59092 0.28797 0.62549 0.0
H2180 H 0.55449 0.27884 0.66983 0.0
H2181 H 0.53359 0.30073 0.65702 0.0
C2182 C 0.53709 0.31763 0.62501 0.0
C2183 C 0.54044 0.3245 0.60765 0.0
C2184 C 0.54988 0.30659 0.63355 0.0
C2185 C 0.55716 0.32146 0.59953 0.0
C2186 C 0.5701 0.31104 0.60815 0.0
C2187 C 0.57853 0.29087 0.63255 0.0
C2188 C 0.57425 0.28153 0.64851 0.0
C2189 C 0.56639 0.30308 0.62489 0.0
C2190 C 0.55813 0.28568 0.65745 0.0
C2191 C 0.54612 0.29818 0.6501 0.0
H2192 H 0.95942 0.33743 0.88036 0.0
H2193 H 0.97068 0.29456 0.91813 0.0
H2194 H 0.94864 0.27537 0.90314 0.0
H2195 H 0.929 0.26948 0.87685 0.0
H2196 H 0.92021 0.31177 0.83793 0.0
H2197 H 0.93823 0.33252 0.85593 0.0
C2198 C 0.95691 0.324 0.88556 0.0
C2199 C 0.96692 0.31743 0.90027 0.0
C2200 C 0.94467 0.31286 0.87655 0.0
C2201 C 0.96332 0.29997 0.90677 0.0
C2202 C 0.95073 0.28894 0.89816 0.0
C2203 C 0.93071 0.28338 0.87262 0.0
C2204 C 0.92334 0.28916 0.85615 0.0
C2205 C 0.94173 0.29505 0.88269 0.0
C2206 C 0.92583 0.30707 0.85057 0.0
C2207 C 0.93617 0.3189 0.86081 0.0
H2208 H 0.96943 0.6737 0.13382 0.0
H2209 H 0.93024 0.66587 0.0918 0.0
H2210 H 0.90887 0.68461 0.10814 0.0
H2211 H 0.9027 0.70598 0.13219 0.0
H2212 H 0.94234 0.71585 0.17344 0.0
H2213 H 0.96202 0.69336 0.15974 0.0
C2214 C 0.95607 0.67582 0.1285 0.0
C2215 C 0.9514 0.6686 0.11161 0.0
C2216 C 0.94402 0.68713 0.1377 0.0
C2217 C 0.93413 0.67149 0.10472 0.0
C2218 C 0.92193 0.68221 0.11403 0.0
C2219 C 0.91556 0.70313 0.13836 0.0
C2220 C 0.92112 0.71285 0.15366 0.0
C2221 C 0.92696 0.69058 0.13019 0.0
C2222 C 0.93774 0.70871 0.16157 0.0
C2223 C 0.94905 0.69587 0.15371 0.0
H2224 H 0.54278 0.65753 0.38907 0.0
H2225 H 0.53013 0.70214 0.42433 0.0
H2226 H 0.55408 0.71993 0.41066 0.0
H2227 H 0.57609 0.7241 0.38603 0.0
H2228 H 0.58682 0.67995 0.34973 0.0
H2229 H 0.56638 0.66064 0.36664 0.0
C2230 C 0.54533 0.67107 0.39397 0.0
C2231 C 0.53442 0.67854 0.40754 0.0
C2232 C 0.55882 0.68136 0.3858 0.0
C2233 C 0.53818 0.69605 0.4138 0.0
C2234 C 0.55187 0.70628 0.40596 0.0
C2235 C 0.57427 0.7101 0.38218 0.0
C2236 C 0.58287 0.70341 0.36669 0.0
C2237 C 0.56194 0.69926 0.39158 0.0
C2238 C 0.58026 0.68536 0.3616 0.0
C2239 C 0.56852 0.67435 0.37121 0.0
H2240 H 0.85726 0.58588 0.70251 0.0
H2241 H 0.81409 0.55138 0.7201 0.0
H2242 H 0.81741 0.53313 0.69284 0.0
H2243 H 0.83433 0.52549 0.66529 0.0
H2244 H 0.87827 0.55946 0.64878 0.0
H2245 H 0.87271 0.57951 0.67425 0.0
C2246 C 0.84849 0.57441 0.70041 0.0
C2247 C 0.8356 0.56989 0.71351 0.0
C2248 C 0.8506 0.56387 0.68486 0.0
C2249 C 0.82422 0.55513 0.71034 0.0
C2250 C 0.82611 0.54466 0.69474 0.0
C2251 C 0.84244 0.53748 0.66708 0.0
C2252 C 0.85673 0.54095 0.65521 0.0
C2253 C 0.83948 0.54872 0.68207 0.0
C2254 C 0.86726 0.55644 0.6578 0.0
C2255 C 0.86412 0.56788 0.67239 0.0
H2256 H 0.69514 0.65717 0.92609 0.0
H2257 H 0.73611 0.61658 0.92086 0.0
H2258 H 0.71954 0.59667 0.94132 0.0
H2259 H 0.69445 0.59202 0.96266 0.0
H2260 H 0.6532 0.63275 0.96645 0.0
H2261 H 0.66877 0.65123 0.94453 0.0
C2262 C 0.70033 0.64388 0.92932 0.0
C2263 C 0.71684 0.63838 0.92224 0.0
C2264 C 0.69074 0.63256 0.94091 0.0
C2265 C 0.72336 0.62106 0.92621 0.0
C2266 C 0.71396 0.60973 0.93797 0.0
C2267 C 0.68881 0.60485 0.95855 0.0
C2268 C 0.6728 0.61102 0.96642 0.0
C2269 C 0.69779 0.61551 0.94572 0.0
C2270 C 0.66554 0.62761 0.96074 0.0
C2271 C 0.67445 0.63828 0.9482 0.0
H2272 H 0.64376 0.4095 0.19735 0.0
H2273 H 0.68958 0.4422 0.21121 0.0
H2274 H 0.68388 0.46155 0.18521 0.0
H2275 H 0.66405 0.47101 0.16045 0.0
H2276 H 0.61733 0.43919 0.14797 0.0
H2277 H 0.62541 0.41753 0.17137 0.0
C2278 C 0.65264 0.42075 0.19464 0.0
C2279 C 0.66693 0.4245 0.20641 0.0
C2280 C 0.64911 0.43202 0.1799 0.0
C2281 C 0.67836 0.43906 0.20252 0.0
C2282 C 0.67512 0.45016 0.18763 0.0
C2283 C 0.65588 0.45912 0.16261 0.0
C2284 C 0.64009 0.45672 0.15259 0.0
C2285 C 0.66028 0.44702 0.17649 0.0
C2286 C 0.6295 0.44137 0.15562 0.0
C2287 C 0.63407 0.42902 0.16902 0.0
H2288 H 0.80931 0.35014 0.4206 0.0
H2289 H 0.77117 0.39368 0.42213 0.0
H2290 H 0.79074 0.4106 0.44265 0.0
H2291 H 0.81695 0.411 0.46305 0.0
H2292 H 0.85502 0.36714 0.46059 0.0
H2293 H 0.83732 0.35253 0.43738 0.0
C2294 C 0.80547 0.3635 0.42518 0.0
C2295 C 0.78882 0.37063 0.42012 0.0
C2296 C 0.81668 0.373 0.43694 0.0
C2297 C 0.78399 0.38799 0.42588 0.0
C2298 C 0.7951 0.39757 0.43771 0.0
C2299 C 0.82152 0.39839 0.45725 0.0
C2300 C 0.83714 0.39006 0.46392 0.0
C2301 C 0.81122 0.38992 0.4438 0.0
C2302 C 0.84297 0.37383 0.45599 0.0
C2303 C 0.83284 0.36538 0.44268 0.0
H2304 H 0.82109 0.4325 0.78842 0.0
H2305 H 0.87295 0.40712 0.78417 0.0
H2306 H 0.8826 0.42209 0.8118 0.0
H2307 H 0.87691 0.44359 0.83619 0.0
H2308 H 0.82493 0.4687 0.84076 0.0
H2309 H 0.81471 0.45241 0.81409 0.0
C2310 C 0.83449 0.43022 0.79355 0.0
C2311 C 0.84633 0.41888 0.78412 0.0
C2312 C 0.83994 0.43878 0.80951 0.0
C2313 C 0.86356 0.41583 0.79112 0.0
C2314 C 0.86912 0.4244 0.80691 0.0
C2315 C 0.86329 0.44542 0.83145 0.0
C2316 C 0.85178 0.45748 0.84039 0.0
C2317 C 0.8575 0.43608 0.81608 0.0
C2318 C 0.83411 0.4595 0.83416 0.0
C2319 C 0.82826 0.45026 0.81884 0.0
H2320 H 0.77504 0.61518 0.06913 0.0
H2321 H 0.81587 0.6541 0.08223 0.0
H2322 H 0.83721 0.63837 0.06293 0.0
H2323 H 0.84321 0.61592 0.03981 0.0
H2324 H 0.80218 0.57774 0.02491 0.0
H2325 H 0.7821 0.59064 0.04753 0.0
C2326 C 0.78873 0.61989 0.06803 0.0
C2327 C 0.79391 0.63578 0.07695 0.0
C2328 C 0.80082 0.61109 0.05641 0.0
C2329 C 0.81161 0.64195 0.07534 0.0
C2330 C 0.82379 0.633 0.06429 0.0
C2331 C 0.82994 0.61025 0.04157 0.0
C2332 C 0.82417 0.59604 0.03044 0.0
C2333 C 0.81837 0.61793 0.05431 0.0
C2334 C 0.80698 0.58876 0.03317 0.0
C2335 C 0.79545 0.59617 0.0461 0.0
H2336 H 0.64176 0.59025 0.29306 0.0
H2337 H 0.68895 0.55888 0.28075 0.0
H2338 H 0.6826 0.53898 0.30619 0.0
H2339 H 0.66206 0.52877 0.3301 0.0
H2340 H 0.61423 0.5595 0.3412 0.0
H2341 H 0.62258 0.58144 0.3182 0.0
C2342 C 0.65079 0.57918 0.29598 0.0
C2343 C 0.6657 0.57599 0.28481 0.0
C2344 C 0.64692 0.5676 0.31042 0.0
C2345 C 0.67728 0.56162 0.28899 0.0
C2346 C 0.67366 0.55019 0.30355 0.0
C2347 C 0.65366 0.54046 0.32772 0.0
C2348 C 0.6375 0.54243 0.33726 0.0
C2349 C 0.65829 0.55281 0.31411 0.0
C2350 C 0.62667 0.55758 0.33393 0.0
C2351 C 0.63141 0.57012 0.32075 0.0
H2352 H 0.68662 0.41992 0.53684 0.0
H2353 H 0.63835 0.38915 0.54603 0.0
H2354 H 0.6538 0.37069 0.56815 0.0
H2355 H 0.68203 0.36012 0.58111 0.0
H2356 H 0.73034 0.39064 0.57271 0.0
H2357 H 0.71383 0.4125 0.55426 0.0
C2358 C 0.67935 0.40946 0.54397 0.0
C2359 C 0.66146 0.40566 0.53934 0.0
C2360 C 0.68838 0.39868 0.55667 0.0
C2361 C 0.65222 0.3922 0.54898 0.0
C2362 C 0.66105 0.38155 0.56164 0.0
C2363 C 0.68882 0.37181 0.57556 0.0
C2364 C 0.70733 0.37373 0.57796 0.0
C2365 C 0.67929 0.38417 0.56498 0.0
C2366 C 0.71604 0.38896 0.57097 0.0
C2367 C 0.70664 0.40135 0.56033 0.0
H2368 H 0.70136 0.85047 0.59956 0.0
H2369 H 0.72006 0.81938 0.55403 0.0
H2370 H 0.69566 0.8313 0.53555 0.0
H2371 H 0.67179 0.85413 0.53119 0.0
H2372 H 0.65517 0.88668 0.57637 0.0
H2373 H 0.67575 0.87046 0.5962 0.0
C2374 C 0.70001 0.84607 0.58566 0.0
C2375 C 0.71276 0.83428 0.57814 0.0
C2376 C 0.68629 0.85332 0.57502 0.0
C2377 C 0.71055 0.82854 0.56017 0.0
C2378 C 0.69662 0.83541 0.54956 0.0
C2379 C 0.67233 0.85719 0.5455 0.0
C2380 C 0.662 0.87143 0.55244 0.0
C2381 C 0.68478 0.8483 0.55666 0.0
C2382 C 0.66299 0.87566 0.57087 0.0
C2383 C 0.67483 0.86649 0.58214 0.0
H2384 H 0.21075 0.62456 0.40812 0.0
H2385 H 0.2244 0.66586 0.44684 0.0
H2386 H 0.20332 0.65286 0.46847 0.0
H2387 H 0.18394 0.62733 0.47773 0.0
H2388 H 0.17279 0.58501 0.43945 0.0
H2389 H 0.18981 0.60091 0.41627 0.0
C2390 C 0.209 0.63095 0.42118 0.0
C2391 C 0.2194 0.64605 0.42589 0.0
C2392 C 0.19734 0.62308 0.43372 0.0
C2393 C 0.21671 0.65415 0.44286 0.0
C2394 C 0.20469 0.64667 0.45528 0.0
C2395 C 0.18497 0.62187 0.46418 0.0
C2396 C 0.17727 0.60505 0.46023 0.0
C2397 C 0.19537 0.63079 0.45108 0.0
C2398 C 0.17877 0.59791 0.44274 0.0
C2399 C 0.1885 0.60697 0.42952 0.0
H2400 H 0.57783 0.91727 0.71906 0.0
H2401 H 0.62452 0.90138 0.68861 0.0
H2402 H 0.62068 0.92725 0.66867 0.0
H2403 H 0.60555 0.95565 0.66138 0.0
H2404 H 0.55937 0.97202 0.69246 0.0
H2405 H 0.56159 0.94472 0.71058 0.0
C2406 C 0.58697 0.91927 0.70786 0.0
C2407 C 0.60148 0.90744 0.70541 0.0
C2408 C 0.58496 0.93443 0.69669 0.0
C2409 C 0.61328 0.91033 0.69089 0.0
C2410 C 0.61115 0.92517 0.6795 0.0
C2411 C 0.59592 0.95326 0.67207 0.0
C2412 C 0.58245 0.96604 0.67563 0.0
C2413 C 0.5973 0.93755 0.68256 0.0
C2414 C 0.56999 0.96254 0.68945 0.0
C2415 C 0.57121 0.94689 0.69984 0.0
H2416 H 0.3312 0.36787 0.96127 0.0
H2417 H 0.33114 0.415 0.92722 0.0
H2418 H 0.31272 0.39931 0.90498 0.0
H2419 H 0.29284 0.37434 0.89782 0.0
H2420 H 0.29036 0.3281 0.93317 0.0
H2421 H 0.31379 0.34111 0.9521 0.0
C2422 C 0.32756 0.37445 0.94872 0.0
C2423 C 0.33238 0.39253 0.94584 0.0
C2424 C 0.31628 0.36562 0.93639 0.0
C2425 C 0.32745 0.40109 0.92969 0.0
C2426 C 0.31687 0.39216 0.91704 0.0
C2427 C 0.29759 0.3669 0.90948 0.0
C2428 C 0.28953 0.35042 0.91424 0.0
C2429 C 0.31057 0.37473 0.92064 0.0
C2430 C 0.29612 0.34092 0.92929 0.0
C2431 C 0.30949 0.34839 0.94017 0.0
H2432 H 0.4051 0.54881 0.65736 0.0
H2433 H 0.45136 0.53147 0.68768 0.0
H2434 H 0.44911 0.55816 0.70678 0.0
H2435 H 0.4319 0.58455 0.71711 0.0
H2436 H 0.38501 0.601 0.68735 0.0
H2437 H 0.38983 0.57673 0.66569 0.0
C2438 C 0.41482 0.55091 0.66803 0.0
C2439 C 0.42819 0.53794 0.67122 0.0
C2440 C 0.41333 0.56617 0.67913 0.0
C2441 C 0.44081 0.54111 0.68496 0.0
C2442 C 0.43953 0.55638 0.69595 0.0
C2443 C 0.42301 0.58309 0.70563 0.0
C2444 C 0.40805 0.59446 0.70394 0.0
C2445 C 0.42556 0.56876 0.69346 0.0
C2446 C 0.39656 0.59232 0.68905 0.0
C2447 C 0.39925 0.5784 0.67669 0.0
H2448 H 0.79855 0.13426 0.09279 0.0
H2449 H 0.77978 0.16533 0.0473 0.0
H2450 H 0.80344 0.15246 0.02843 0.0
H2451 H 0.82563 0.12818 0.02366 0.0
H2452 H 0.84187 0.09529 0.06873 0.0
H2453 H 0.8233 0.11327 0.08907 0.0
C2454 C 0.79977 0.13847 0.07881 0.0
C2455 C 0.78715 0.1504 0.07135 0.0
C2456 C 0.81296 0.13059 0.06795 0.0
C2457 C 0.78921 0.15602 0.05334 0.0
C2458 C 0.80268 0.14859 0.04251 0.0
C2459 C 0.82556 0.12545 0.03805 0.0
C2460 C 0.83503 0.11054 0.04481 0.0
C2461 C 0.81412 0.13527 0.04948 0.0
C2462 C 0.83466 0.10679 0.06336 0.0
C2463 C 0.82395 0.11695 0.07493 0.0
H2464 H 0.61101 0.04401 0.8365 0.0
H2465 H 0.56154 0.03511 0.80767 0.0
H2466 H 0.56684 0.06213 0.78972 0.0
H2467 H 0.58644 0.08711 0.78081 0.0
H2468 H 0.63645 0.09521 0.80883 0.0
H2469 H 0.62985 0.06978 0.82863 0.0
C2470 C 0.6013 0.04799 0.82637 0.0
C2471 C 0.58598 0.03739 0.82337 0.0
C2472 C 0.60451 0.06343 0.81593 0.0
C2473 C 0.57354 0.04289 0.81021 0.0
C2474 C 0.57653 0.05837 0.79993 0.0
C2475 C 0.59576 0.08351 0.79144 0.0
C2476 C 0.61193 0.09301 0.7933 0.0
C2477 C 0.5921 0.0686 0.8025 0.0
C2478 C 0.62394 0.08805 0.80704 0.0
C2479 C 0.6202 0.07349 0.81835 0.0
H2480 H 0.92952 0.95979 0.31316 0.0
H2481 H 0.88489 0.9518 0.34947 0.0
H2482 H 0.87818 0.92318 0.33516 0.0
H2483 H 0.88275 0.90209 0.3104 0.0
H2484 H 0.92709 0.90947 0.27385 0.0
H2485 H 0.93632 0.93645 0.29044 0.0
C2486 C 0.91848 0.95168 0.31809 0.0
C2487 C 0.9075 0.9582 0.33208 0.0
C2488 C 0.91456 0.93515 0.30974 0.0
C2489 C 0.89338 0.94736 0.33847 0.0
C2490 C 0.8895 0.93093 0.33033 0.0
C2491 C 0.89456 0.90948 0.3062 0.0
C2492 C 0.90405 0.90402 0.2908 0.0
C2493 C 0.89965 0.92498 0.31563 0.0
C2494 C 0.91954 0.91348 0.28568 0.0
C2495 C 0.92475 0.92896 0.29507 0.0
H2496 H 0.46803 0.33312 0.13082 0.0
H2497 H 0.43022 0.33472 0.08692 0.0
H2498 H 0.4082 0.31867 0.10522 0.0
H2499 H 0.40196 0.29969 0.13125 0.0
H2500 H 0.4408 0.29539 0.17421 0.0
H2501 H 0.45993 0.31728 0.15897 0.0
C2502 C 0.45476 0.33042 0.12554 0.0
C2503 C 0.4507 0.3349 0.10758 0.0
C2504 C 0.44246 0.32045 0.13587 0.0
C2505 C 0.43359 0.33122 0.10071 0.0
C2506 C 0.42105 0.322 0.11113 0.0
C2507 C 0.41443 0.30377 0.13753 0.0
C2508 C 0.42009 0.29553 0.15365 0.0
C2509 C 0.42567 0.3158 0.12838 0.0
C2510 C 0.43619 0.30127 0.16166 0.0
C2511 C 0.4472 0.31376 0.15292 0.0
H2512 H 0.40947 0.68092 0.86082 0.0
H2513 H 0.40924 0.72479 0.89892 0.0
H2514 H 0.42962 0.70804 0.91871 0.0
H2515 H 0.45106 0.68296 0.92246 0.0
H2516 H 0.45056 0.63911 0.88403 0.0
H2517 H 0.42664 0.65364 0.86732 0.0
C2518 C 0.41361 0.6866 0.87366 0.0
C2519 C 0.40821 0.70406 0.87836 0.0
C2520 C 0.42531 0.67698 0.88481 0.0
C2521 C 0.41333 0.71131 0.89508 0.0
C2522 C 0.42506 0.7018 0.90631 0.0
C2523 C 0.44543 0.67638 0.91069 0.0
C2524 C 0.45299 0.66024 0.90424 0.0
C2525 C 0.43169 0.68491 0.90094 0.0
C2526 C 0.44533 0.65176 0.88909 0.0
C2527 C 0.43163 0.66006 0.87947 0.0
H2528 H 0.03394 0.66979 0.64219 0.0
H2529 H 0.07838 0.65653 0.60752 0.0
H2530 H 0.09803 0.67603 0.62515 0.0
H2531 H 0.10116 0.70054 0.64677 0.0
H2532 H 0.05619 0.71612 0.67991 0.0
H2533 H 0.03832 0.6918 0.66689 0.0
C2534 C 0.04806 0.67077 0.63892 0.0
C2535 C 0.05476 0.66187 0.62358 0.0
C2536 C 0.05911 0.68266 0.64866 0.0
C2537 C 0.07298 0.66337 0.61925 0.0
C2538 C 0.08418 0.67458 0.62926 0.0
C2539 C 0.08756 0.69846 0.65144 0.0
C2540 C 0.07995 0.71044 0.66402 0.0
C2541 C 0.07718 0.6849 0.64345 0.0
C2542 C 0.06238 0.70726 0.6701 0.0
C2543 C 0.05209 0.6934 0.66258 0.0
H2544 H 0.08198 0.27273 0.38306 0.0
H2545 H 0.09366 0.31516 0.34509 0.0
H2546 H 0.07608 0.33643 0.36296 0.0
H2547 H 0.0536 0.3415 0.38619 0.0
H2548 H 0.03941 0.29846 0.42275 0.0
H2549 H 0.06197 0.27903 0.40889 0.0
C2550 C 0.0811 0.28678 0.37908 0.0
C2551 C 0.08901 0.29245 0.36282 0.0
C2552 C 0.07026 0.29873 0.38899 0.0
C2553 C 0.08761 0.31057 0.35756 0.0
C2554 C 0.07749 0.32268 0.36771 0.0
C2555 C 0.05559 0.32797 0.39139 0.0
C2556 C 0.04451 0.32137 0.40527 0.0
C2557 C 0.06811 0.3167 0.38297 0.0
C2558 C 0.04756 0.30388 0.41195 0.0
C2559 C 0.06043 0.29271 0.40397 0.0
H2560 H 0.40153 0.69993 0.36256 0.0
H2561 H 0.44331 0.71194 0.3241 0.0
H2562 H 0.46303 0.69025 0.33893 0.0
H2563 H 0.47006 0.67207 0.36603 0.0
H2564 H 0.42892 0.66289 0.40578 0.0
H2565 H 0.40726 0.67908 0.38719 0.0
C2566 C 0.41483 0.69762 0.35716 0.0
C2567 C 0.42102 0.7079 0.34247 0.0
C2568 C 0.42632 0.68571 0.36616 0.0
C2569 C 0.43821 0.7044 0.33552 0.0
C2570 C 0.44956 0.69205 0.34407 0.0
C2571 C 0.45622 0.67321 0.37029 0.0
C2572 C 0.45102 0.66646 0.38722 0.0
C2573 C 0.44403 0.68325 0.35988 0.0
C2574 C 0.43315 0.66812 0.3928 0.0
C2575 C 0.42081 0.67742 0.38222 0.0
H2576 H 0.04452 0.65261 0.10908 0.0
H2577 H 0.03049 0.69608 0.07299 0.0
H2578 H 0.05448 0.71458 0.08574 0.0
H2579 H 0.07611 0.71995 0.11048 0.0
H2580 H 0.08759 0.67712 0.14807 0.0
H2581 H 0.06811 0.65672 0.13126 0.0
C2582 C 0.0468 0.66605 0.10379 0.0
C2583 C 0.03545 0.67307 0.09035 0.0
C2584 C 0.06015 0.67676 0.11155 0.0
C2585 C 0.0389 0.69038 0.08344 0.0
C2586 C 0.05258 0.701 0.09079 0.0
C2587 C 0.07472 0.70599 0.11459 0.0
C2588 C 0.0832 0.69995 0.13043 0.0
C2589 C 0.06283 0.69457 0.10532 0.0
C2590 C 0.08114 0.68197 0.1359 0.0
C2591 C 0.06994 0.67036 0.12637 0.0
H2592 H 0.06382 0.28515 0.83294 0.0
H2593 H 0.11206 0.29558 0.86334 0.0
H2594 H 0.09729 0.31993 0.87938 0.0
H2595 H 0.06923 0.33408 0.88894 0.0
H2596 H 0.02097 0.32451 0.85872 0.0
H2597 H 0.03721 0.30435 0.83823 0.0
C2598 C 0.07124 0.29308 0.84269 0.0
C2599 C 0.08883 0.28809 0.84733 0.0
C2600 C 0.0626 0.30712 0.85208 0.0
C2601 C 0.09834 0.29874 0.85982 0.0
C2602 C 0.08992 0.31271 0.86906 0.0
C2603 C 0.06247 0.32804 0.87747 0.0
C2604 C 0.04401 0.33055 0.87534 0.0
C2605 C 0.07182 0.31638 0.86595 0.0
C2606 C 0.03526 0.32278 0.86049 0.0
C2607 C 0.0445 0.3111 0.84892 0.0
H2608 H 0.45088 0.33992 0.6175 0.0
H2609 H 0.45376 0.30019 0.57495 0.0
H2610 H 0.42959 0.28312 0.58921 0.0
H2611 H 0.41036 0.27761 0.61581 0.0
H2612 H 0.40987 0.31625 0.6593 0.0
H2613 H 0.43023 0.33579 0.64248 0.0
C2614 C 0.44616 0.32763 0.61116 0.0
C2615 C 0.45437 0.32123 0.59529 0.0
C2616 C 0.43268 0.31766 0.61966 0.0
C2617 C 0.44783 0.30538 0.58724 0.0
C2618 C 0.43402 0.29558 0.59541 0.0
C2619 C 0.41439 0.29054 0.62133 0.0
C2620 C 0.40869 0.29558 0.6387 0.0
C2621 C 0.42671 0.30132 0.6119 0.0
C2622 C 0.41417 0.31216 0.64593 0.0
C2623 C 0.42584 0.32326 0.63637 0.0
H2624 H 0.10758 0.42919 0.3479 0.0
H2625 H 0.13565 0.47121 0.31961 0.0
H2626 H 0.14625 0.4493 0.29719 0.0
H2627 H 0.1418 0.41962 0.28251 0.0
H2628 H 0.1123 0.3783 0.31075 0.0
H2629 H 0.10832 0.39829 0.33648 0.0
C2630 C 0.11666 0.43333 0.33723 0.0
C2631 C 0.12089 0.45163 0.33528 0.0
C2632 C 0.12212 0.42082 0.32418 0.0
C2633 C 0.13245 0.45707 0.3214 0.0
C2634 C 0.13828 0.44459 0.30846 0.0
C2635 C 0.13501 0.41483 0.29452 0.0
C2636 C 0.12696 0.39768 0.29454 0.0
C2637 C 0.13236 0.42661 0.3092 0.0
C2638 C 0.11827 0.3916 0.31025 0.0
C2639 C 0.11597 0.40302 0.32498 0.0
H2640 H 0.30557 0.41503 0.0366 0.0
H2641 H 0.3493 0.3769 0.03381 0.0
H2642 H 0.33591 0.35912 0.05764 0.0
H2643 H 0.31049 0.35246 0.077 0.0
H2644 H 0.26644 0.38984 0.08044 0.0
H2645 H 0.28146 0.41002 0.05904 0.0
C2646 C 0.31225 0.40295 0.04133 0.0
C2647 C 0.32825 0.3972 0.03306 0.0
C2648 C 0.30445 0.39261 0.05521 0.0
C2649 C 0.33683 0.3816 0.03961 0.0
C2650 C 0.32922 0.37136 0.05332 0.0
C2651 C 0.30432 0.36518 0.0733 0.0
C2652 C 0.28734 0.36958 0.08008 0.0
C2653 C 0.31284 0.37647 0.06086 0.0
C2654 C 0.27956 0.38619 0.0754 0.0
C2655 C 0.28806 0.39764 0.06303 0.0
H2656 H 0.39537 0.54772 0.83553 0.0
H2657 H 0.4065 0.51214 0.79096 0.0
H2658 H 0.39617 0.5351 0.76959 0.0
H2659 H 0.38829 0.5667 0.76357 0.0
H2660 H 0.38176 0.60358 0.80798 0.0
H2661 H 0.38562 0.57883 0.82955 0.0
C2662 C 0.39503 0.54491 0.82116 0.0
C2663 C 0.40148 0.52836 0.8147 0.0
C2664 C 0.39003 0.55851 0.80899 0.0
C2665 C 0.40149 0.52485 0.7961 0.0
C2666 C 0.39566 0.53797 0.78393 0.0
C2667 C 0.38718 0.56911 0.77798 0.0
C2668 C 0.38453 0.58672 0.78433 0.0
C2669 C 0.39049 0.55505 0.79019 0.0
C2670 C 0.38362 0.58999 0.80295 0.0
C2671 C 0.38594 0.5759 0.81522 0.0
H2672 H 0.22249 0.60813 0.59121 0.0
H2673 H 0.18141 0.64865 0.59637 0.0
H2674 H 0.16217 0.6319 0.5757 0.0
H2675 H 0.15902 0.60849 0.55289 0.0
H2676 H 0.20095 0.56902 0.54571 0.0
H2677 H 0.21773 0.58242 0.5706 0.0
C2678 C 0.20912 0.61295 0.58819 0.0
C2679 C 0.20335 0.62958 0.59516 0.0
C2680 C 0.19843 0.60362 0.57569 0.0
C2681 C 0.18611 0.63589 0.59103 0.0
C2682 C 0.17516 0.62638 0.57916 0.0
C2683 C 0.17172 0.60262 0.55687 0.0
C2684 C 0.17885 0.58799 0.54716 0.0
C2685 C 0.1815 0.61066 0.57084 0.0
C2686 C 0.1952 0.58042 0.55278 0.0
C2687 C 0.20485 0.5881 0.567 0.0
H2688 H 0.11965 0.60678 0.18971 0.0
H2689 H 0.14015 0.57212 0.23158 0.0
H2690 H 0.13669 0.54591 0.21186 0.0
H2691 H 0.12127 0.53248 0.18549 0.0
H2692 H 0.09946 0.56735 0.14458 0.0
H2693 H 0.11032 0.59384 0.16081 0.0
C2694 C 0.12388 0.59355 0.19429 0.0
C2695 C 0.12979 0.59131 0.21216 0.0
C2696 C 0.12145 0.57854 0.18305 0.0
C2697 C 0.13549 0.57418 0.21789 0.0
C2698 C 0.13335 0.55915 0.20667 0.0
C2699 C 0.11972 0.54586 0.17978 0.0
C2700 C 0.10974 0.5481 0.16388 0.0
C2701 C 0.12542 0.56106 0.18959 0.0
C2702 C 0.10734 0.56543 0.15671 0.0
C2703 C 0.11335 0.58056 0.1661 0.0
H2704 H 0.15728 0.38579 0.95703 0.0
H2705 H 0.19636 0.42761 0.96649 0.0
H2706 H 0.21548 0.41497 0.94289 0.0
H2707 H 0.22263 0.38988 0.92205 0.0
H2708 H 0.1842 0.34714 0.91474 0.0
H2709 H 0.16324 0.3624 0.93485 0.0
C2710 C 0.16985 0.39236 0.95382 0.0
C2711 C 0.17542 0.40752 0.96373 0.0
C2712 C 0.18099 0.38475 0.94064 0.0
C2713 C 0.19176 0.41583 0.95922 0.0
C2714 C 0.20274 0.40858 0.94573 0.0
C2715 C 0.20951 0.38417 0.9246 0.0
C2716 C 0.20494 0.36742 0.91705 0.0
C2717 C 0.19773 0.39273 0.93671 0.0
C2718 C 0.18801 0.35999 0.92056 0.0
C2719 C 0.17604 0.36868 0.93206 0.0
H2720 H 0.41206 0.43234 0.66408 0.0
H2721 H 0.37863 0.47477 0.68502 0.0
H2722 H 0.36501 0.4535 0.70649 0.0
H2723 H 0.36545 0.42351 0.72147 0.0
H2724 H 0.39938 0.38162 0.69956 0.0
H2725 H 0.40985 0.40199 0.67628 0.0
C2726 C 0.40157 0.43684 0.67316 0.0
C2727 C 0.39644 0.45503 0.6732 0.0
C2728 C 0.39406 0.42468 0.68544 0.0
C2729 C 0.38271 0.46076 0.68479 0.0
C2730 C 0.37507 0.44864 0.69714 0.0
C2731 C 0.37495 0.41878 0.71147 0.0
C2732 C 0.38186 0.40111 0.7126 0.0
C2733 C 0.38106 0.43067 0.69795 0.0
C2734 C 0.39402 0.39519 0.69933 0.0
C2735 C 0.40004 0.40683 0.68592 0.0
H2736 H 0.34489 0.60214 0.45398 0.0
H2737 H 0.29914 0.5735 0.47505 0.0
H2738 H 0.28093 0.58436 0.44987 0.0
H2739 H 0.27686 0.60622 0.42493 0.0
H2740 H 0.32221 0.63673 0.40605 0.0
H2741 H 0.34179 0.62071 0.42704 0.0
C2742 C 0.331 0.598 0.45297 0.0
C2743 C 0.32333 0.5873 0.46664 0.0
C2744 C 0.3205 0.60473 0.4388 0.0
C2745 C 0.3054 0.58184 0.46484 0.0
C2746 C 0.29493 0.58813 0.45047 0.0
C2747 C 0.29115 0.60882 0.42502 0.0
C2748 C 0.29819 0.6225 0.41396 0.0
C2749 C 0.30216 0.60016 0.43778 0.0
C2750 C 0.31661 0.62614 0.4144 0.0
C2751 C 0.32774 0.61711 0.4265 0.0
H2752 H 0.33454 0.13932 0.46619 0.0
H2753 H 0.33873 0.0956 0.428 0.0
H2754 H 0.32176 0.1129 0.40584 0.0
H2755 H 0.30184 0.13801 0.39931 0.0
H2756 H 0.29529 0.18079 0.43832 0.0
H2757 H 0.31742 0.16655 0.45792 0.0
C2758 C 0.33211 0.13381 0.45284 0.0
C2759 C 0.33764 0.11615 0.44877 0.0
C2760 C 0.32176 0.14358 0.44038 0.0
C2761 C 0.33437 0.1091 0.43149 0.0
C2762 C 0.32466 0.11896 0.41883 0.0
C2763 C 0.30546 0.14447 0.41192 0.0
C2764 C 0.29657 0.16026 0.41746 0.0
C2765 C 0.31765 0.13587 0.42343 0.0
C2766 C 0.30171 0.16851 0.43377 0.0
C2767 C 0.31432 0.16032 0.44506 0.0
H2768 H 0.82913 0.35569 0.52492 0.0
H2769 H 0.84544 0.38753 0.57067 0.0
H2770 H 0.82352 0.37216 0.58974 0.0
H2771 H 0.7968 0.35359 0.59199 0.0
H2772 H 0.77812 0.32385 0.54556 0.0
H2773 H 0.80402 0.33419 0.52822 0.0
C2774 C 0.82824 0.35873 0.53922 0.0
C2775 C 0.83888 0.37253 0.54654 0.0
C2776 C 0.81495 0.35049 0.54983 0.0
C2777 C 0.83742 0.37681 0.56491 0.0
C2778 C 0.82481 0.36815 0.57573 0.0
C2779 C 0.79845 0.34912 0.57815 0.0
C2780 C 0.78529 0.33824 0.57 0.0
C2781 C 0.81299 0.35557 0.56812 0.0
C2782 C 0.78792 0.33236 0.55214 0.0
C2783 C 0.8027 0.33833 0.54218 0.0
H2784 H 0.37163 0.06248 0.35299 0.0
H2785 H 0.3962 0.02206 0.31927 0.0
H2786 H 0.3935 0.04195 0.29306 0.0
H2787 H 0.37823 0.06805 0.27894 0.0
H2788 H 0.3524 0.10744 0.31279 0.0
H2789 H 0.36182 0.09105 0.33978 0.0
C2790 C 0.37684 0.05824 0.33999 0.0
C2791 C 0.38377 0.04073 0.33797 0.0
C2792 C 0.37489 0.06957 0.32497 0.0
C2793 C 0.39074 0.03546 0.32115 0.0
C2794 C 0.38905 0.04678 0.30612 0.0
C2795 C 0.37545 0.07341 0.29228 0.0
C2796 C 0.36483 0.08894 0.29402 0.0
C2797 C 0.38034 0.06349 0.30771 0.0
C2798 C 0.36081 0.09562 0.31127 0.0
C2799 C 0.36599 0.08613 0.32666 0.0
H2800 H 0.66937 0.64143 0.02841 0.0
H2801 H 0.65626 0.60503 0.07175 0.0
H2802 H 0.67536 0.62208 0.09238 0.0
H2803 H 0.69999 0.64321 0.0962 0.0
H2804 H 0.7158 0.67767 0.05203 0.0
H2805 H 0.69125 0.66583 0.0337 0.0
C2806 C 0.67018 0.63776 0.04257 0.0
C2807 C 0.66144 0.62215 0.04871 0.0
C2808 C 0.682 0.64702 0.05404 0.0
C2809 C 0.66282 0.61713 0.06689 0.0
C2810 C 0.67387 0.62675 0.0786 0.0
C2811 C 0.69792 0.64839 0.08266 0.0
C2812 C 0.71 0.66096 0.07533 0.0
C2813 C 0.68423 0.64108 0.07204 0.0
C2814 C 0.70683 0.66783 0.05794 0.0
C2815 C 0.69284 0.661 0.04741 0.0
H2816 H 0.61901 0.43996 0.34621 0.0
H2817 H 0.60265 0.48229 0.30994 0.0
H2818 H 0.60909 0.46288 0.284 0.0
H2819 H 0.62538 0.43631 0.27201 0.0
H2820 H 0.64282 0.39483 0.30866 0.0
H2821 H 0.62969 0.41119 0.33407 0.0
C2822 C 0.61636 0.44472 0.33262 0.0
C2823 C 0.61067 0.46259 0.32994 0.0
C2824 C 0.62046 0.43364 0.31784 0.0
C2825 C 0.60705 0.46858 0.31233 0.0
C2826 C 0.61091 0.45754 0.29749 0.0
C2827 C 0.62553 0.43055 0.28547 0.0
C2828 C 0.63483 0.41438 0.28858 0.0
C2829 C 0.61845 0.44038 0.30009 0.0
C2830 C 0.63545 0.40715 0.30605 0.0
C2831 C 0.62814 0.4166 0.32057 0.0
H2832 H 0.16555 0.90183 0.94171 0.0
H2833 H 0.16426 0.86406 0.98583 0.0
H2834 H 0.18207 0.84254 0.9682 0.0
H2835 H 0.2012 0.83638 0.94156 0.0
H2836 H 0.20126 0.87454 0.8974 0.0
H2837 H 0.18063 0.89378 0.91363 0.0
C2838 C 0.16887 0.88871 0.94727 0.0
C2839 C 0.16383 0.88451 0.96498 0.0
C2840 C 0.17908 0.87655 0.93714 0.0
C2841 C 0.16799 0.86748 0.97212 0.0
C2842 C 0.17829 0.85527 0.96211 0.0
C2843 C 0.1965 0.84877 0.93539 0.0
C2844 C 0.20319 0.85412 0.91844 0.0
C2845 C 0.18444 0.85993 0.9448 0.0
C2846 C 0.19666 0.87011 0.91054 0.0
C2847 C 0.18481 0.88121 0.9198 0.0
H2848 H 0.36339 0.92842 0.22074 0.0
H2849 H 0.33773 0.88913 0.18667 0.0
H2850 H 0.35051 0.90336 0.15985 0.0
H2851 H 0.36362 0.93023 0.14619 0.0
H2852 H 0.38739 0.9711 0.17993 0.0
H2853 H 0.38129 0.95284 0.20674 0.0
C2854 C 0.36127 0.92264 0.20746 0.0
C2855 C 0.34982 0.90775 0.20551 0.0
C2856 C 0.36809 0.93137 0.19205 0.0
C2857 C 0.3467 0.90049 0.18833 0.0
C2858 C 0.35387 0.90872 0.17303 0.0
C2859 C 0.36791 0.93493 0.15937 0.0
C2860 C 0.3756 0.95214 0.16112 0.0
C2861 C 0.36379 0.92467 0.17471 0.0
C2862 C 0.38137 0.95793 0.17822 0.0
C2863 C 0.37771 0.94756 0.19359 0.0
H2864 H 0.1343 0.09313 0.69074 0.0
H2865 H 0.12985 0.04927 0.72851 0.0
H2866 H 0.11511 0.03067 0.70559 0.0
H2867 H 0.10879 0.02526 0.67355 0.0
H2868 H 0.11718 0.06788 0.63493 0.0
H2869 H 0.12468 0.08879 0.65931 0.0
C2870 C 0.12948 0.07972 0.69402 0.0
C2871 C 0.13286 0.07251 0.71116 0.0
C2872 C 0.12196 0.06886 0.68051 0.0
C2873 C 0.12713 0.05501 0.71535 0.0
C2874 C 0.11884 0.04439 0.70223 0.0
C2875 C 0.11168 0.03928 0.67058 0.0
C2876 C 0.11251 0.04508 0.65256 0.0
C2877 C 0.11692 0.0509 0.68456 0.0
C2878 C 0.11655 0.06318 0.64876 0.0
C2879 C 0.12092 0.07508 0.66267 0.0
H2880 H 0.04916 0.11576 0.41457 0.0
H2881 H 0.01766 0.14263 0.45529 0.0
H2882 H 0.0435 0.14252 0.4758 0.0
H2883 H 0.07427 0.1318 0.48294 0.0
H2884 H 0.1043 0.1036 0.44201 0.0
H2885 H 0.0799 0.10754 0.42055 0.0
C2886 C 0.0479 0.12165 0.42792 0.0
C2887 C 0.03149 0.12884 0.43361 0.0
C2888 C 0.06261 0.12139 0.43951 0.0
C2889 C 0.03018 0.13681 0.45075 0.0
C2890 C 0.04492 0.13675 0.46244 0.0
C2891 C 0.07551 0.12697 0.46918 0.0
C2892 C 0.09089 0.11744 0.46391 0.0
C2893 C 0.06111 0.12871 0.45708 0.0
C2894 C 0.09246 0.11094 0.44622 0.0
C2895 C 0.07853 0.1131 0.43401 0.0
H2896 H 0.12507 0.84722 0.72325 0.0
H2897 H 0.16933 0.86036 0.68829 0.0
H2898 H 0.16399 0.83311 0.67061 0.0
H2899 H 0.14836 0.80458 0.66649 0.0
H2900 H 0.10538 0.78984 0.70245 0.0
H2901 H 0.10859 0.81861 0.71841 0.0
C2902 C 0.13326 0.84423 0.71154 0.0
C2903 C 0.14749 0.85575 0.70695 0.0
C2904 C 0.13053 0.82814 0.70183 0.0
C2905 C 0.15829 0.85164 0.692 0.0
C2906 C 0.15529 0.83605 0.68195 0.0
C2907 C 0.13961 0.80768 0.67776 0.0
C2908 C 0.12672 0.79507 0.68335 0.0
C2909 C 0.14173 0.82402 0.68699 0.0
C2910 C 0.1155 0.79929 0.69797 0.0
C2911 C 0.1173 0.81575 0.70707 0.0
H2912 H 0.40768 0.87269 0.97212 0.0
H2913 H 0.39425 0.92195 0.94422 0.0
H2914 H 0.41995 0.91811 0.9243 0.0
H2915 H 0.4464 0.90131 0.91528 0.0
H2916 H 0.4614 0.85288 0.94374 0.0
H2917 H 0.43492 0.85585 0.96315 0.0
C2918 C 0.41036 0.88247 0.96158 0.0
C2919 C 0.39911 0.89754 0.95954 0.0
C2920 C 0.42544 0.88039 0.95043 0.0
C2921 C 0.40278 0.91027 0.94603 0.0
C2922 C 0.41745 0.90809 0.93466 0.0
C2923 C 0.44388 0.89135 0.9257 0.0
C2924 C 0.45575 0.87688 0.92809 0.0
C2925 C 0.42891 0.8933 0.93683 0.0
C2926 C 0.45243 0.86418 0.94173 0.0
C2927 C 0.43729 0.86586 0.95276 0.0
H2928 H 0.36001 0.19804 0.16529 0.0
H2929 H 0.39347 0.22446 0.20466 0.0
H2930 H 0.39351 0.19714 0.22324 0.0
H2931 H 0.38169 0.16656 0.22945 0.0
H2932 H 0.34689 0.14136 0.19054 0.0
H2933 H 0.35009 0.16717 0.17034 0.0
C2934 C 0.36737 0.19783 0.17791 0.0
C2935 C 0.3765 0.21331 0.18373 0.0
C2936 C 0.36724 0.18219 0.18849 0.0
C2937 C 0.38616 0.21275 0.19999 0.0
C2938 C 0.38624 0.19712 0.21058 0.0
C2939 C 0.37528 0.16659 0.21631 0.0
C2940 C 0.36421 0.15214 0.21131 0.0
C2941 C 0.37658 0.18184 0.2051 0.0
C2942 C 0.35557 0.15237 0.19451 0.0
C2943 C 0.35727 0.16716 0.18306 0.0
H2944 H 0.04301 0.90148 0.07942 0.0
H2945 H 0.02806 0.85501 0.04783 0.0
H2946 H 0.05446 0.85922 0.02863 0.0
H2947 H 0.08183 0.87634 0.02095 0.0
H2948 H 0.09542 0.92356 0.05212 0.0
H2949 H 0.06954 0.91872 0.07153 0.0
C2950 C 0.0455 0.89226 0.06833 0.0
C2951 C 0.0337 0.87794 0.06505 0.0
C2952 C 0.0605 0.89486 0.05736 0.0
C2953 C 0.03699 0.86618 0.05056 0.0
C2954 C 0.05209 0.86854 0.03965 0.0
C2955 C 0.07913 0.88545 0.03208 0.0
C2956 C 0.09047 0.90023 0.03519 0.0
C2957 C 0.06397 0.88282 0.04297 0.0
C2958 C 0.0868 0.91212 0.04947 0.0
C2959 C 0.07203 0.90937 0.06056 0.0
H2960 H 0.34869 0.79858 0.33307 0.0
H2961 H 0.39131 0.78184 0.29751 0.0
H2962 H 0.38685 0.8089 0.27909 0.0
H2963 H 0.36945 0.83644 0.27213 0.0
H2964 H 0.32565 0.85161 0.3069 0.0
H2965 H 0.33214 0.82621 0.3268 0.0
C2966 C 0.35709 0.80087 0.32134 0.0
C2967 C 0.37023 0.7882 0.31659 0.0
C2968 C 0.35427 0.81624 0.31074 0.0
C2969 C 0.381 0.79136 0.30137 0.0
C2970 C 0.37848 0.80685 0.29087 0.0
C2971 C 0.36159 0.83432 0.28426 0.0
C2972 C 0.34716 0.84585 0.28815 0.0
C2973 C 0.36501 0.81928 0.29531 0.0
C2974 C 0.33683 0.84286 0.30369 0.0
C2975 C 0.34048 0.82832 0.31501 0.0
H2976 H 0.40081 0.09464 0.54597 0.0
H2977 H 0.40698 0.14315 0.51453 0.0
H2978 H 0.43336 0.15147 0.53242 0.0
H2979 H 0.45585 0.14362 0.55581 0.0
H2980 H 0.44852 0.09511 0.58717 0.0
H2981 H 0.42148 0.08805 0.57039 0.0
C2982 C 0.40782 0.10714 0.54313 0.0
C2983 C 0.40212 0.11819 0.5289 0.0
C2984 C 0.42289 0.1117 0.55331 0.0
C2985 C 0.41115 0.13445 0.52549 0.0
C2986 C 0.42629 0.13912 0.53561 0.0
C2987 C 0.44829 0.13154 0.55892 0.0
C2988 C 0.45427 0.1198 0.57255 0.0
C2989 C 0.43251 0.12763 0.54932 0.0
C2990 C 0.44424 0.10433 0.57668 0.0
C2991 C 0.42875 0.10027 0.56711 0.0
H2992 H 0.16259 0.15464 0.7887 0.0
H2993 H 0.11177 0.15818 0.76146 0.0
H2994 H 0.10321 0.18375 0.78073 0.0
H2995 H 0.11058 0.20525 0.80552 0.0
H2996 H 0.16097 0.19943 0.83341 0.0
H2997 H 0.16931 0.17465 0.81368 0.0
C2998 C 0.14965 0.16104 0.78691 0.0
C2999 C 0.1379 0.15471 0.7736 0.0
C3000 C 0.14476 0.17534 0.79819 0.0
C3001 C 0.12105 0.16289 0.77165 0.0
C3002 C 0.11618 0.1775 0.78263 0.0
C3003 C 0.12336 0.19853 0.80717 0.0
C3004 C 0.13517 0.20419 0.82083 0.0
C3005 C 0.12798 0.18389 0.79595 0.0
C3006 C 0.15161 0.19528 0.82304 0.0
C3007 C 0.15644 0.18112 0.81174 0.0
H3008 H 0.45676 0.08478 0.09556 0.0
H3009 H 0.48027 0.08014 0.14849 0.0
H3010 H 0.45894 0.05609 0.15611 0.0
H3011 H 0.43361 0.03602 0.1472 0.0
H3012 H 0.41051 0.04234 0.0941 0.0
H3013 H 0.43167 0.06604 0.08715 0.0
C3014 C 0.4573 0.07852 0.10878 0.0
C3015 C 0.47015 0.08412 0.12138 0.0
C3016 C 0.44502 0.06495 0.11305 0.0
C3017 C 0.47049 0.07601 0.13853 0.0
C3018 C 0.45831 0.06226 0.14287 0.0
C3019 C 0.43326 0.04262 0.13415 0.0
C3020 C 0.42049 0.03733 0.12121 0.0
C3021 C 0.44552 0.05654 0.13017 0.0
C3022 C 0.42012 0.04609 0.10437 0.0
C3023 C 0.43226 0.05968 0.10032 0.0
H3024 H 0.20088 0.16811 0.35317 0.0
H3025 H 0.22251 0.20614 0.39143 0.0
H3026 H 0.19472 0.22363 0.39022 0.0
H3027 H 0.16504 0.22921 0.37645 0.0
H3028 H 0.14477 0.19188 0.3368 0.0
H3029 H 0.17109 0.17276 0.34068 0.0
C3030 C 0.19952 0.18018 0.36132 0.0
C3031 C 0.21377 0.18593 0.37223 0.0
C3032 C 0.18367 0.19021 0.36039 0.0
C3033 C 0.21176 0.20154 0.38278 0.0
C3034 C 0.19586 0.2115 0.38214 0.0
C3035 C 0.16627 0.21666 0.36901 0.0
C3036 C 0.15304 0.21183 0.35644 0.0
C3037 C 0.1818 0.2061 0.37079 0.0
C3038 C 0.15484 0.19578 0.34658 0.0
C3039 C 0.1699 0.18492 0.34871 0.0
H3040 H 0.0182 0.91235 0.62903 0.0
H3041 H 0.03237 0.90763 0.57263 0.0
H3042 H 0.0527 0.93284 0.57534 0.0
H3043 H 0.06683 0.95579 0.59327 0.0
H3044 H 0.05359 0.96198 0.64959 0.0
H3045 H 0.03238 0.93672 0.64734 0.0
C3046 C 0.02575 0.9169 0.61739 0.0
C3047 C 0.02378 0.90807 0.60068 0.0
C3048 C 0.03754 0.93164 0.61898 0.0
C3049 C 0.03358 0.91413 0.58567 0.0
C3050 C 0.04525 0.92858 0.58716 0.0
C3051 C 0.05935 0.95166 0.60513 0.0
C3052 C 0.06185 0.96062 0.62159 0.0
C3053 C 0.04737 0.93734 0.60371 0.0
C3054 C 0.05187 0.95524 0.63674 0.0
C3055 C 0.03981 0.94079 0.63546 0.0
H3056 H 0.31987 0.77029 0.84132 0.0
H3057 H 0.331 0.76493 0.8982 0.0
H3058 H 0.30399 0.78241 0.90532 0.0
H3059 H 0.27837 0.80117 0.89494 0.0
H3060 H 0.26925 0.80738 0.83779 0.0
H3061 H 0.29409 0.78718 0.83118 0.0
C3062 C 0.31642 0.77286 0.85531 0.0
C3063 C 0.32751 0.76654 0.8692 0.0
C3064 C 0.30112 0.78295 0.85922 0.0
C3065 C 0.3227 0.7698 0.88725 0.0
C3066 C 0.30726 0.77976 0.89132 0.0
C3067 C 0.2817 0.79778 0.88111 0.0
C3068 C 0.27213 0.8057 0.86684 0.0
C3069 C 0.2965 0.78664 0.87737 0.0
C3070 C 0.27654 0.80142 0.84894 0.0
C3071 C 0.29076 0.78996 0.84515 0.0
H3072 H 0.46306 0.90865 0.40526 0.0
H3073 H 0.48722 0.91288 0.35256 0.0
H3074 H 0.4661 0.93707 0.34463 0.0
H3075 H 0.44061 0.95715 0.35314 0.0
H3076 H 0.4168 0.95109 0.40597 0.0
H3077 H 0.43801 0.92751 0.41335 0.0
C3078 C 0.46381 0.91486 0.39202 0.0
C3079 C 0.47676 0.90909 0.37957 0.0
C3080 C 0.45166 0.92846 0.38759 0.0
C3081 C 0.47736 0.91713 0.3624 0.0
C3082 C 0.46531 0.93096 0.35789 0.0
C3083 C 0.44015 0.95065 0.36625 0.0
C3084 C 0.42714 0.95592 0.37898 0.0
C3085 C 0.45239 0.93678 0.37044 0.0
C3086 C 0.4266 0.9473 0.39587 0.0
C3087 C 0.43875 0.9338 0.40016 0.0
H3088 H 0.28096 0.19887 0.60566 0.0
H3089 H 0.28451 0.16854 0.65529 0.0
H3090 H 0.30951 0.187 0.66516 0.0
H3091 H 0.33031 0.21139 0.65991 0.0
H3092 H 0.32849 0.24158 0.61019 0.0
H3093 H 0.30291 0.22342 0.60001 0.0
C3094 C 0.2872 0.19642 0.61864 0.0
C3095 C 0.28089 0.18245 0.62977 0.0
C3096 C 0.30188 0.20695 0.62416 0.0
C3097 C 0.28917 0.17921 0.64647 0.0
C3098 C 0.30346 0.18975 0.65215 0.0
C3099 C 0.32433 0.21408 0.64684 0.0
C3100 C 0.33115 0.22786 0.63586 0.0
C3101 C 0.30991 0.20359 0.64111 0.0
C3102 C 0.32341 0.23101 0.61887 0.0
C3103 C 0.30879 0.22067 0.61309 0.0
H3104 H 0.0797 0.04918 0.89562 0.0
H3105 H 0.06053 0.03492 0.8426 0.0
H3106 H 0.03621 0.05711 0.84558 0.0
H3107 H 0.02007 0.08027 0.86404 0.0
H3108 H 0.03991 0.09242 0.91747 0.0
H3109 H 0.06427 0.07132 0.91347 0.0
C3110 C 0.07029 0.05089 0.8846 0.0
C3111 C 0.07194 0.04043 0.8689 0.0
C3112 C 0.05637 0.06329 0.88654 0.0
C3113 C 0.05955 0.04285 0.85484 0.0
C3114 C 0.04564 0.05551 0.85657 0.0
C3115 C 0.02975 0.07825 0.87474 0.0
C3116 C 0.02806 0.08785 0.89107 0.0
C3117 C 0.04384 0.06575 0.87246 0.0
C3118 C 0.04071 0.08511 0.90484 0.0
C3119 C 0.05474 0.07307 0.90257 0.0
H3120 H 0.19618 0.82382 0.13272 0.0
H3121 H 0.22061 0.78468 0.09739 0.0
H3122 H 0.19342 0.76613 0.09875 0.0
H3123 H 0.16394 0.75966 0.11296 0.0
H3124 H 0.14125 0.79849 0.14976 0.0
H3125 H 0.1664 0.81877 0.14461 0.0
C3126 C 0.19556 0.81128 0.12519 0.0
C3127 C 0.21046 0.80543 0.11524 0.0
C3128 C 0.18015 0.80069 0.1263 0.0
C3129 C 0.20933 0.78935 0.1053 0.0
C3130 C 0.19381 0.77876 0.10609 0.0
C3131 C 0.16439 0.77276 0.11944 0.0
C3132 C 0.15089 0.77768 0.13172 0.0
C3133 C 0.1793 0.78409 0.11694 0.0
C3134 C 0.1516 0.7945 0.14031 0.0
C3135 C 0.16597 0.80604 0.13743 0.0
H3136 H 0.10142 0.42196 0.05235 0.0
H3137 H 0.14656 0.45425 0.0359 0.0
H3138 H 0.14385 0.47236 0.06341 0.0
H3139 H 0.12722 0.48027 0.09123 0.0
H3140 H 0.08109 0.44877 0.10628 0.0
H3141 H 0.08581 0.42888 0.08047 0.0
C3142 C 0.11073 0.43291 0.0548 0.0
C3143 C 0.12407 0.43686 0.04204 0.0
C3144 C 0.10897 0.44334 0.07049 0.0
C3145 C 0.13607 0.45104 0.04546 0.0
C3146 C 0.13456 0.46136 0.06121 0.0
C3147 C 0.11849 0.4688 0.08901 0.0
C3148 C 0.10389 0.46589 0.10062 0.0
C3149 C 0.12091 0.45778 0.07373 0.0
C3150 C 0.09242 0.45122 0.09749 0.0
C3151 C 0.09506 0.43991 0.0827 0.0
H3152 H 0.58806 0.04795 0.89625 0.0
H3153 H 0.63673 0.0181 0.90523 0.0
H3154 H 0.64402 0.03768 0.93097 0.0
H3155 H 0.63513 0.06211 0.95221 0.0
H3156 H 0.58651 0.09186 0.94186 0.0
H3157 H 0.5806 0.07345 0.9154 0.0
C3158 C 0.60036 0.04582 0.90374 0.0
C3159 C 0.61176 0.03155 0.89903 0.0
C3160 C 0.60436 0.05701 0.91838 0.0
C3161 C 0.62777 0.02907 0.90863 0.0
C3162 C 0.63185 0.04017 0.9234 0.0
C3163 C 0.6233 0.06455 0.94409 0.0
C3164 C 0.61117 0.07818 0.94912 0.0
C3165 C 0.62002 0.05397 0.92864 0.0
C3166 C 0.59602 0.0814 0.93836 0.0
C3167 C 0.5926 0.07089 0.9232 0.0
H3168 H 0.16092 0.35677 0.18929 0.0
H3169 H 0.19224 0.39764 0.21606 0.0
H3170 H 0.21475 0.39593 0.19192 0.0
H3171 H 0.22637 0.38098 0.16411 0.0
H3172 H 0.19507 0.33886 0.13936 0.0
H3173 H 0.17149 0.34308 0.1617 0.0
C3174 C 0.17262 0.3654 0.1899 0.0
C3175 C 0.175 0.37718 0.20453 0.0
C3176 C 0.18546 0.36413 0.17626 0.0
C3177 C 0.19017 0.38837 0.20496 0.0
C3178 C 0.20301 0.38739 0.19117 0.0
C3179 C 0.21422 0.373 0.16355 0.0
C3180 C 0.21232 0.35963 0.15023 0.0
C3181 C 0.20092 0.3751 0.17687 0.0
C3182 C 0.19673 0.34915 0.14962 0.0
C3183 C 0.1833 0.35153 0.16237 0.0
H3184 H 0.88049 0.91937 0.43926 0.0
H3185 H 0.8459 0.95512 0.46913 0.0
H3186 H 0.84667 0.97688 0.44419 0.0
H3187 H 0.86014 0.98702 0.41517 0.0
H3188 H 0.89611 0.95137 0.38693 0.0
H3189 H 0.89168 0.92813 0.4098 0.0
C3190 C 0.87297 0.93185 0.44028 0.0
C3191 C 0.8634 0.9358 0.45608 0.0
C3192 C 0.87376 0.9443 0.42614 0.0
C3193 C 0.8535 0.95188 0.45711 0.0
C3194 C 0.85397 0.96432 0.44288 0.0
C3195 C 0.8666 0.97398 0.41393 0.0
C3196 C 0.87839 0.97073 0.39954 0.0
C3197 C 0.86445 0.96087 0.42751 0.0
C3198 C 0.88698 0.954 0.39801 0.0
C3199 C 0.88452 0.94078 0.41108 0.0
H3200 H 0.81538 0.10197 0.19693 0.0
H3201 H 0.8453 0.15002 0.18359 0.0
H3202 H 0.82522 0.15622 0.15868 0.0
H3203 H 0.798 0.14964 0.14216 0.0
H3204 H 0.76778 0.10163 0.15398 0.0
H3205 H 0.78923 0.09362 0.17786 0.0
C3206 C 0.81756 0.11366 0.18843 0.0
C3207 C 0.83166 0.12564 0.19232 0.0
C3208 C 0.8059 0.11722 0.17393 0.0
C3209 C 0.83446 0.14065 0.18107 0.0
C3210 C 0.82298 0.14426 0.16679 0.0
C3211 C 0.79618 0.13735 0.1499 0.0
C3212 C 0.78129 0.12637 0.14663 0.0
C3213 C 0.80847 0.1329 0.16337 0.0
C3214 C 0.7792 0.11029 0.1564 0.0
C3215 C 0.79139 0.10578 0.17007 0.0
H3216 H 0.35487 0.55566 0.55031 0.0
H3217 H 0.40514 0.58428 0.54857 0.0
H3218 H 0.41569 0.56779 0.5748 0.0
H3219 H 0.41151 0.54428 0.5973 0.0
H3220 H 0.36123 0.51612 0.60086 0.0
H3221 H 0.34968 0.53352 0.57514 0.0
C3222 C 0.36809 0.55825 0.55575 0.0
C3223 C 0.37927 0.57103 0.54738 0.0
C3224 C 0.37405 0.54887 0.57121 0.0
C3225 C 0.39627 0.57449 0.55471 0.0
C3226 C 0.40236 0.56506 0.56973 0.0
C3227 C 0.39795 0.54208 0.59256 0.0
C3228 C 0.38728 0.52889 0.60081 0.0
C3229 C 0.39147 0.55211 0.57795 0.0
C3230 C 0.36966 0.52629 0.59472 0.0
C3231 C 0.36312 0.53614 0.57994 0.0
H3232 H 0.20603 0.65379 0.34806 0.0
H3233 H 0.23011 0.60141 0.34129 0.0
H3234 H 0.2082 0.59412 0.31767 0.0
H3235 H 0.18276 0.60344 0.29803 0.0
H3236 H 0.15876 0.65577 0.30636 0.0
H3237 H 0.18007 0.66224 0.33023 0.0
C3238 C 0.20648 0.64074 0.34147 0.0
C3239 C 0.21975 0.62822 0.34627 0.0
C3240 C 0.19387 0.63667 0.3281 0.0
C3241 C 0.21999 0.61127 0.33781 0.0
C3242 C 0.20752 0.60715 0.32426 0.0
C3243 C 0.18221 0.61621 0.30513 0.0
C3244 C 0.16924 0.62913 0.3003 0.0
C3245 C 0.1945 0.61985 0.31913 0.0
C3246 C 0.16857 0.64556 0.30975 0.0
C3247 C 0.18078 0.64933 0.32342 0.0
H3248 H 0.28446 0.39468 0.84934 0.0
H3249 H 0.25532 0.35401 0.81992 0.0
H3250 H 0.2727 0.36029 0.79286 0.0
H3251 H 0.2994 0.37324 0.77934 0.0
H3252 H 0.33046 0.41241 0.80847 0.0
H3253 H 0.30912 0.4112 0.83374 0.0
C3254 C 0.28168 0.38763 0.83682 0.0
C3255 C 0.26883 0.37379 0.83654 0.0
C3256 C 0.2922 0.39093 0.82135 0.0
C3257 C 0.26533 0.36457 0.82039 0.0
C3258 C 0.27525 0.36813 0.80494 0.0
C3259 C 0.30107 0.38197 0.79099 0.0
C3260 C 0.31622 0.39296 0.79216 0.0
C3261 C 0.28919 0.38069 0.8055 0.0
C3262 C 0.31862 0.40407 0.80729 0.0
C3263 C 0.30656 0.40318 0.82179 0.0
H3264 H 0.91046 0.86753 0.51484 0.0
H3265 H 0.90765 0.92374 0.53001 0.0
H3266 H 0.93244 0.91975 0.5507 0.0
H3267 H 0.95417 0.90048 0.56529 0.0
H3268 H 0.95887 0.84459 0.55012 0.0
H3269 H 0.93408 0.84823 0.52855 0.0
C3270 C 0.91538 0.87888 0.52261 0.0
C3271 C 0.90714 0.89587 0.52095 0.0
C3272 C 0.92988 0.87655 0.53452 0.0
C3273 C 0.91371 0.9105 0.53101 0.0
C3274 C 0.92788 0.90826 0.54291 0.0
C3275 C 0.94976 0.88906 0.55729 0.0
C3276 C 0.95808 0.87226 0.55937 0.0
C3277 C 0.93589 0.89135 0.54491 0.0
C3278 C 0.95254 0.85765 0.5487 0.0
C3279 C 0.9384 0.85974 0.53644 0.0
H3280 H 0.84779 0.20536 0.31183 0.0
H3281 H 0.89914 0.22362 0.2925 0.0
H3282 H 0.90043 0.19828 0.27138 0.0
H3283 H 0.88646 0.17126 0.25787 0.0
H3284 H 0.83449 0.1542 0.27664 0.0
H3285 H 0.83401 0.17864 0.29861 0.0
C3286 C 0.85929 0.20379 0.30302 0.0
C3287 C 0.87332 0.21632 0.30369 0.0
C3288 C 0.85983 0.18937 0.29083 0.0
C3289 C 0.88811 0.21415 0.29217 0.0
C3290 C 0.88888 0.19966 0.28012 0.0
C3291 C 0.87513 0.17287 0.26688 0.0
C3292 C 0.86053 0.16102 0.26565 0.0
C3293 C 0.87477 0.18722 0.27927 0.0
C3294 C 0.84584 0.16325 0.27728 0.0
C3295 C 0.84554 0.17721 0.28984 0.0
H3296 H 0.53397 0.13909 0.06021 0.0
H3297 H 0.54322 0.08557 0.08114 0.0
H3298 H 0.56706 0.0809 0.05924 0.0
H3299 H 0.58501 0.09161 0.0341 0.0
H3300 H 0.57761 0.14546 0.01351 0.0
H3301 H 0.55339 0.15052 0.03542 0.0
C3302 C 0.54122 0.12643 0.05991 0.0
C3303 C 0.53676 0.11264 0.07219 0.0
C3304 C 0.55523 0.12391 0.04741 0.0
C3305 C 0.54639 0.09638 0.07184 0.0
C3306 C 0.56002 0.09368 0.05931 0.0
C3307 C 0.57809 0.10448 0.03435 0.0
C3308 C 0.58293 0.11808 0.02209 0.0
C3309 C 0.56449 0.1073 0.04703 0.0
C3310 C 0.57407 0.13477 0.02281 0.0
C3311 C 0.56022 0.13763 0.03529 0.0
H3312 H 0.6022 0.78381 0.80286 0.0
H3313 H 0.65431 0.7915 0.82679 0.0
H3314 H 0.65954 0.81753 0.80748 0.0
H3315 H 0.64988 0.83743 0.78321 0.0
H3316 H 0.59766 0.83073 0.75938 0.0
H3317 H 0.59175 0.80512 0.77944 0.0
C3318 C 0.61468 0.79121 0.80381 0.0
C3319 C 0.62792 0.78568 0.8161 0.0
C3320 C 0.61754 0.80635 0.79278 0.0
C3321 C 0.64393 0.79548 0.81739 0.0
C3322 C 0.64695 0.81037 0.80637 0.0
C3323 C 0.63716 0.83043 0.78246 0.0
C3324 C 0.62429 0.8358 0.76977 0.0
C3325 C 0.63391 0.81582 0.79394 0.0
C3326 C 0.60778 0.82678 0.76908 0.0
C3327 C 0.60444 0.81211 0.78047 0.0
H3328 H 0.90946 0.12246 0.97839 0.0
H3329 H 0.89404 0.07445 0.94939 0.0
H3330 H 0.91882 0.07862 0.92844 0.0
H3331 H 0.94571 0.09461 0.91944 0.0
H3332 H 0.9627 0.14185 0.94874 0.0
H3333 H 0.93648 0.13929 0.96855 0.0
C3334 C 0.91143 0.1131 0.96731 0.0
C3335 C 0.89999 0.09817 0.96541 0.0
C3336 C 0.92606 0.11532 0.95554 0.0
C3337 C 0.90275 0.086 0.95116 0.0
C3338 C 0.91691 0.08835 0.93919 0.0
C3339 C 0.94369 0.10443 0.93011 0.0
C3340 C 0.95617 0.11833 0.93271 0.0
C3341 C 0.92882 0.10274 0.94146 0.0
C3342 C 0.95331 0.13095 0.94656 0.0
C3343 C 0.93832 0.1295 0.95785 0.0
H3344 H 0.66131 0.16215 0.71529 0.0
H3345 H 0.61144 0.16983 0.7436 0.0
H3346 H 0.60309 0.19383 0.72261 0.0
H3347 H 0.61008 0.21278 0.69622 0.0
H3348 H 0.65934 0.20391 0.66713 0.0
H3349 H 0.66782 0.18029 0.68839 0.0
C3350 C 0.64863 0.1691 0.71687 0.0
C3351 C 0.63706 0.16433 0.73101 0.0
C3352 C 0.64382 0.18269 0.70461 0.0
C3353 C 0.62058 0.17329 0.7328 0.0
C3354 C 0.61581 0.18703 0.72083 0.0
C3355 C 0.62268 0.20569 0.69459 0.0
C3356 C 0.63411 0.21013 0.68021 0.0
C3357 C 0.62734 0.19188 0.7067 0.0
C3358 C 0.6503 0.20072 0.67811 0.0
C3359 C 0.65518 0.18722 0.69026 0.0
H3360 H 0.53945 0.85418 0.44264 0.0
H3361 H 0.54604 0.90805 0.42158 0.0
H3362 H 0.5688 0.91436 0.4441 0.0
H3363 H 0.58687 0.90491 0.46947 0.0
H3364 H 0.58252 0.85083 0.49032 0.0
H3365 H 0.55893 0.84418 0.46813 0.0
C3366 C 0.54587 0.86728 0.44309 0.0
C3367 C 0.54102 0.88066 0.43052 0.0
C3368 C 0.55935 0.87076 0.45596 0.0
C3369 C 0.54957 0.89751 0.43106 0.0
C3370 C 0.56258 0.90117 0.44395 0.0
C3371 C 0.58074 0.89166 0.46927 0.0
C3372 C 0.58627 0.87844 0.48162 0.0
C3373 C 0.56756 0.88792 0.45642 0.0
C3374 C 0.57842 0.86124 0.48094 0.0
C3375 C 0.56494 0.85747 0.46829 0.0
H3376 H 0.84313 0.83446 0.22426 0.0
H3377 H 0.89379 0.82304 0.24972 0.0
H3378 H 0.89897 0.79821 0.22866 0.0
H3379 H 0.88925 0.78014 0.20276 0.0
H3380 H 0.83946 0.7928 0.17613 0.0
H3381 H 0.8337 0.81677 0.19799 0.0
C3382 C 0.85524 0.82645 0.22524 0.0
C3383 C 0.86802 0.83042 0.23851 0.0
C3384 C 0.85827 0.81248 0.2129 0.0
C3385 C 0.88378 0.82017 0.23955 0.0
C3386 C 0.88673 0.80599 0.22755 0.0
C3387 C 0.87712 0.78811 0.20179 0.0
C3388 C 0.86477 0.78473 0.18794 0.0
C3389 C 0.87409 0.80208 0.21414 0.0
C3390 C 0.84917 0.79522 0.18671 0.0
C3391 C 0.84587 0.8089 0.19918 0.0
H3392 H 0.55002 0.96165 0.85506 0.0
H3393 H 0.57766 0.95604 0.90592 0.0
H3394 H 0.5597 0.92964 0.91323 0.0
H3395 H 0.5361 0.9085 0.9055 0.0
H3396 H 0.50896 0.91259 0.85431 0.0
H3397 H 0.527 0.93918 0.8466 0.0
C3398 C 0.55205 0.95464 0.86774 0.0
C3399 C 0.56503 0.96082 0.88001 0.0
C3400 C 0.54189 0.93921 0.87172 0.0
C3401 C 0.56772 0.95153 0.89629 0.0
C3402 C 0.55747 0.93644 0.90048 0.0
C3403 C 0.53411 0.91519 0.89264 0.0
C3404 C 0.52114 0.90878 0.88055 0.0
C3405 C 0.54453 0.93022 0.88833 0.0
C3406 C 0.5189 0.91736 0.86381 0.0
C3407 C 0.52914 0.93256 0.85946 0.0
H3408 H 0.84093 0.77914 0.66031 0.0
H3409 H 0.83729 0.75173 0.60912 0.0
H3410 H 0.81119 0.7702 0.60102 0.0
H3411 H 0.78926 0.79419 0.60886 0.0
H3412 H 0.79472 0.82221 0.65964 0.0
H3413 H 0.82026 0.80343 0.66754 0.0
C3414 C 0.83441 0.77713 0.64738 0.0
C3415 C 0.84089 0.76397 0.6354 0.0
C3416 C 0.81974 0.78793 0.64277 0.0
C3417 C 0.83249 0.76176 0.61859 0.0
C3418 C 0.81758 0.7723 0.61398 0.0
C3419 C 0.79606 0.79612 0.62164 0.0
C3420 C 0.79005 0.8095 0.6337 0.0
C3421 C 0.81104 0.78541 0.62601 0.0
C3422 C 0.79909 0.81202 0.65013 0.0
C3423 C 0.81369 0.80127 0.65468 0.0
H3424 H 0.94102 0.03971 0.35583 0.0
H3425 H 0.90523 0.05226 0.39987 0.0
H3426 H 0.92344 0.0782 0.40791 0.0
H3427 H 0.94997 0.09653 0.40339 0.0
H3428 H 0.98555 0.08565 0.35889 0.0
H3429 H 0.96691 0.05985 0.34991 0.0
C3430 C 0.93724 0.04819 0.36713 0.0
C3431 C 0.92193 0.04399 0.37737 0.0
C3432 C 0.9477 0.0633 0.37159 0.0
C3433 C 0.91698 0.05518 0.39182 0.0
C3434 C 0.92739 0.07 0.39646 0.0
C3435 C 0.95365 0.08851 0.3917 0.0
C3436 C 0.96918 0.09271 0.38195 0.0
C3437 C 0.94285 0.07403 0.38659 0.0
C3438 C 0.97363 0.08254 0.36661 0.0
C3439 C 0.96303 0.0678 0.36154 0.0
H3440 H 0.66318 0.20687 0.15785 0.0
H3441 H 0.66531 0.23389 0.10637 0.0
H3442 H 0.69031 0.21453 0.09707 0.0
H3443 H 0.71153 0.18978 0.10379 0.0
H3444 H 0.70746 0.16174 0.15467 0.0
H3445 H 0.68321 0.18165 0.16402 0.0
C3446 C 0.66918 0.20859 0.14463 0.0
C3447 C 0.6626 0.22187 0.13287 0.0
C3448 C 0.68315 0.1972 0.13928 0.0
C3449 C 0.67023 0.22375 0.11565 0.0
C3450 C 0.6845 0.21271 0.11035 0.0
C3451 C 0.70532 0.1881 0.11692 0.0
C3452 C 0.7113 0.17441 0.12858 0.0
C3453 C 0.69108 0.19938 0.12208 0.0
C3454 C 0.70304 0.17217 0.14546 0.0
C3455 C 0.68921 0.18357 0.15084 0.0
H3456 H 0.55286 0.04267 0.64228 0.0
H3457 H 0.58047 0.04599 0.59123 0.0
H3458 H 0.563 0.07265 0.58315 0.0
H3459 H 0.53942 0.09445 0.5903 0.0
H3460 H 0.51312 0.09249 0.64209 0.0
H3461 H 0.53085 0.06597 0.65042 0.0
C3462 C 0.55507 0.04926 0.62942 0.0
C3463 C 0.56779 0.04233 0.61728 0.0
C3464 C 0.54534 0.06483 0.62509 0.0
C3465 C 0.57069 0.05109 0.60074 0.0
C3466 C 0.56073 0.06631 0.59613 0.0
C3467 C 0.53766 0.08826 0.60345 0.0
C3468 C 0.52493 0.09523 0.61553 0.0
C3469 C 0.54798 0.07323 0.60816 0.0
C3470 C 0.52289 0.08732 0.63261 0.0
C3471 C 0.53293 0.07212 0.63732 0.0
H3472 H 0.65119 0.79501 0.34086 0.0
H3473 H 0.65851 0.76673 0.39113 0.0
H3474 H 0.68296 0.78731 0.39927 0.0
H3475 H 0.70338 0.81239 0.39099 0.0
H3476 H 0.69443 0.84116 0.34115 0.0
H3477 H 0.66947 0.82134 0.33392 0.0
C3478 C 0.65808 0.79343 0.35366 0.0
C3479 C 0.65328 0.77931 0.3653 0.0
C3480 C 0.67188 0.80533 0.35824 0.0
C3481 C 0.66203 0.77755 0.38197 0.0
C3482 C 0.67605 0.78923 0.38656 0.0
C3483 C 0.69589 0.81431 0.3786 0.0
C3484 C 0.70085 0.82807 0.36651 0.0
C3485 C 0.68129 0.803 0.37463 0.0
C3486 C 0.6909 0.83064 0.35064 0.0
C3487 C 0.67664 0.8193 0.34647 0.0
H3488 H 0.94893 0.89684 0.09755 0.0
H3489 H 0.98522 0.90792 0.14132 0.0
H3490 H 0.9665 0.93351 0.15081 0.0
H3491 H 0.94076 0.95401 0.14493 0.0
H3492 H 0.90448 0.94137 0.10136 0.0
H3493 H 0.92223 0.91508 0.09352 0.0
C3494 C 0.95265 0.90478 0.10927 0.0
C3495 C 0.96845 0.90076 0.11861 0.0
C3496 C 0.9419 0.91925 0.11456 0.0
C3497 C 0.97305 0.91085 0.13395 0.0
C3498 C 0.96242 0.92551 0.13927 0.0
C3499 C 0.93676 0.94542 0.13379 0.0
C3500 C 0.92148 0.94976 0.12358 0.0
C3501 C 0.94699 0.93008 0.12942 0.0
C3502 C 0.91624 0.93839 0.10937 0.0
C3503 C 0.92638 0.92335 0.10484 0.0
H3504 H 0.84319 0.23154 0.87652 0.0
H3505 H 0.85197 0.19985 0.82846 0.0
H3506 H 0.8262 0.18111 0.83571 0.0
H3507 H 0.80044 0.17457 0.85463 0.0
H3508 H 0.78993 0.20674 0.90195 0.0
H3509 H 0.81706 0.22446 0.8961 0.0
C3510 C 0.83952 0.2204 0.86779 0.0
C3511 C 0.84944 0.21707 0.85197 0.0
C3512 C 0.82432 0.20988 0.87182 0.0
C3513 C 0.84448 0.20273 0.84066 0.0
C3514 C 0.82975 0.19201 0.84478 0.0
C3515 C 0.80409 0.1854 0.86375 0.0
C3516 C 0.79316 0.18937 0.87867 0.0
C3517 C 0.81944 0.19562 0.86015 0.0
C3518 C 0.79809 0.20348 0.89032 0.0
C3519 C 0.8136 0.21359 0.88698 0.0
H3520 H 0.85948 0.54661 0.96423 0.0
H3521 H 0.90914 0.57438 0.95372 0.0
H3522 H 0.91653 0.55261 0.93015 0.0
H3523 H 0.90867 0.52604 0.91222 0.0
H3524 H 0.85837 0.49909 0.92158 0.0
H3525 H 0.85142 0.52018 0.94596 0.0
C3526 C 0.87194 0.54783 0.95681 0.0
C3527 C 0.88377 0.56201 0.96069 0.0
C3528 C 0.87597 0.53545 0.9431 0.0
C3529 C 0.8998 0.56357 0.95092 0.0
C3530 C 0.90405 0.55113 0.93747 0.0
C3531 C 0.89624 0.52473 0.91968 0.0
C3532 C 0.88408 0.51103 0.91523 0.0
C3533 C 0.89221 0.53706 0.93341 0.0
C3534 C 0.86793 0.50957 0.92481 0.0
C3535 C 0.86396 0.5216 0.93874 0.0
H3536 H 0.39093 0.92481 0.0404 0.0
H3537 H 0.34126 0.95033 0.02522 0.0
H3538 H 0.34218 0.96882 0.05253 0.0
H3539 H 0.35774 0.97852 0.08017 0.0
H3540 H 0.40806 0.95381 0.09445 0.0
H3541 H 0.40616 0.93408 0.06814 0.0
C3542 C 0.38027 0.93438 0.04309 0.0
C3543 C 0.36608 0.93624 0.0308 0.0
C3544 C 0.381 0.94508 0.05867 0.0
C3545 C 0.35238 0.9487 0.03445 0.0
C3546 C 0.35288 0.95926 0.05007 0.0
C3547 C 0.36818 0.96868 0.0776 0.0
C3548 C 0.38302 0.9676 0.08919 0.0
C3549 C 0.36719 0.95765 0.06221 0.0
C3550 C 0.39653 0.95492 0.08566 0.0
C3551 C 0.39547 0.94366 0.07061 0.0
H3552 H 0.79644 0.6622 0.83964 0.0
H3553 H 0.76633 0.61263 0.84039 0.0
H3554 H 0.78368 0.60131 0.8147 0.0
H3555 H 0.80711 0.60592 0.79167 0.0
H3556 H 0.83833 0.65483 0.7925 0.0
H3557 H 0.82084 0.66605 0.81797 0.0
C3558 C 0.79368 0.64892 0.83415 0.0
C3559 C 0.78007 0.63831 0.8417 0.0
C3560 C 0.80389 0.64243 0.81969 0.0
C3561 C 0.77678 0.62102 0.83473 0.0
C3562 C 0.78665 0.61458 0.82004 0.0
C3563 C 0.81004 0.61902 0.79746 0.0
C3564 C 0.82385 0.62962 0.79019 0.0
C3565 C 0.80017 0.62523 0.81234 0.0
C3566 C 0.82774 0.64645 0.79791 0.0
C3567 C 0.81774 0.65289 0.81243 0.0
H3568 H 0.09291 0.07649 0.53959 0.0
H3569 H 0.1422 0.05128 0.52266 0.0
H3570 H 0.13987 0.02969 0.54753 0.0
H3571 H 0.12378 0.01814 0.57404 0.0
H3572 H 0.07406 0.04298 0.59027 0.0
H3573 H 0.07665 0.06473 0.56565 0.0
C3574 C 0.10314 0.06626 0.54133 0.0
C3575 C 0.11771 0.06546 0.52938 0.0
C3576 C 0.10166 0.05392 0.55551 0.0
C3577 C 0.13083 0.05211 0.5317 0.0
C3578 C 0.12953 0.03982 0.54592 0.0
C3579 C 0.11356 0.02836 0.57221 0.0
C3580 C 0.09878 0.02904 0.58392 0.0
C3581 C 0.11502 0.04064 0.55792 0.0
C3582 C 0.08555 0.04222 0.58137 0.0
C3583 C 0.08701 0.05463 0.56732 0.0
H3584 H 0.2305 0.88069 0.82924 0.0
H3585 H 0.19147 0.84075 0.84482 0.0
H3586 H 0.1739 0.84726 0.8179 0.0
H3587 H 0.17074 0.86252 0.78907 0.0
H3588 H 0.21007 0.90159 0.77218 0.0
H3589 H 0.22649 0.8972 0.80048 0.0
C3590 C 0.21799 0.87368 0.82682 0.0
C3591 C 0.21226 0.86025 0.83888 0.0
C3592 C 0.20819 0.87713 0.81102 0.0
C3593 C 0.19616 0.85107 0.83561 0.0
C3594 C 0.18614 0.85475 0.82023 0.0
C3595 C 0.18288 0.87013 0.79156 0.0
C3596 C 0.1893 0.88221 0.77852 0.0
C3597 C 0.19224 0.86743 0.80767 0.0
C3598 C 0.20496 0.89208 0.782 0.0
C3599 C 0.21432 0.88961 0.79817 0.0
H3600 H 0.62655 0.48781 0.4117 0.0
H3601 H 0.57831 0.46122 0.39394 0.0
H3602 H 0.58041 0.44007 0.41908 0.0
H3603 H 0.59506 0.43003 0.44675 0.0
H3604 H 0.64248 0.45723 0.4657 0.0
H3605 H 0.6416 0.4773 0.43945 0.0
C3606 C 0.61662 0.47726 0.41327 0.0
C3607 C 0.60229 0.47605 0.40103 0.0
C3608 C 0.61768 0.46539 0.42801 0.0
C3609 C 0.58942 0.46245 0.40325 0.0
C3610 C 0.5906 0.45037 0.41762 0.0
C3611 C 0.60526 0.4403 0.44512 0.0
C3612 C 0.61878 0.44219 0.45814 0.0
C3613 C 0.60452 0.45187 0.4302 0.0
C3614 C 0.63188 0.45558 0.45587 0.0
C3615 C 0.6314 0.46703 0.44087 0.0
H3616 H 0.76911 0.37957 0.6569 0.0
H3617 H 0.79278 0.32814 0.64378 0.0
H3618 H 0.81354 0.33107 0.66898 0.0
H3619 H 0.82408 0.34744 0.69537 0.0
H3620 H 0.79965 0.39804 0.71011 0.0
H3621 H 0.77997 0.39625 0.68371 0.0
C3622 C 0.77897 0.36915 0.6595 0.0
C3623 C 0.7795 0.35369 0.64856 0.0
C3624 C 0.79056 0.37068 0.67437 0.0
C3625 C 0.79213 0.34013 0.65211 0.0
C3626 C 0.80398 0.34178 0.6665 0.0
C3627 C 0.81448 0.35811 0.6928 0.0
C3628 C 0.81327 0.37282 0.70464 0.0
C3629 C 0.80314 0.35685 0.67784 0.0
C3630 C 0.80075 0.38652 0.7012 0.0
C3631 C 0.78954 0.38553 0.68609 0.0
H3632 H 0.70653 0.65868 0.15188 0.0
H3633 H 0.73433 0.60778 0.15382 0.0
H3634 H 0.71829 0.59984 0.18167 0.0
H3635 H 0.69759 0.6085 0.20641 0.0
H3636 H 0.66936 0.65918 0.20308 0.0
H3637 H 0.68464 0.66627 0.17493 0.0
C3638 C 0.70897 0.64576 0.15831 0.0
C3639 C 0.72164 0.63387 0.15097 0.0
C3640 C 0.69984 0.64142 0.17419 0.0
C3641 C 0.72453 0.61709 0.15924 0.0
C3642 C 0.7155 0.61265 0.17522 0.0
C3643 C 0.69483 0.62107 0.19949 0.0
C3644 C 0.6825 0.63339 0.20686 0.0
C3645 C 0.70338 0.6249 0.18301 0.0
C3646 C 0.67885 0.64953 0.19769 0.0
C3647 C 0.68753 0.65358 0.18158 0.0
H3648 H 0.55324 0.60553 0.92096 0.0
H3649 H 0.52409 0.64025 0.95729 0.0
H3650 H 0.54917 0.63961 0.9786 0.0
H3651 H 0.57902 0.62781 0.9874 0.0
H3652 H 0.60673 0.59179 0.95119 0.0
H3653 H 0.58269 0.59453 0.92916 0.0
C3654 C 0.55236 0.61302 0.93352 0.0
C3655 C 0.53685 0.62283 0.93762 0.0
C3656 C 0.56663 0.61241 0.94567 0.0
C3657 C 0.5359 0.63248 0.95392 0.0
C3658 C 0.55024 0.63216 0.96606 0.0
C3659 C 0.57981 0.62083 0.97456 0.0
C3660 C 0.59451 0.60963 0.97082 0.0
C3661 C 0.56564 0.62203 0.96214 0.0
C3662 C 0.59543 0.60041 0.95431 0.0
C3663 C 0.58171 0.60194 0.94174 0.0
H3664 H 0.6479 0.30179 0.16311 0.0
H3665 H 0.60648 0.27987 0.1972 0.0
H3666 H 0.60796 0.30666 0.21654 0.0
H3667 H 0.62265 0.33554 0.22483 0.0
H3668 H 0.66551 0.35572 0.19153 0.0
H3669 H 0.66167 0.33058 0.17062 0.0
C3670 C 0.63909 0.30289 0.17471 0.0
C3671 C 0.62717 0.28883 0.17878 0.0
C3672 C 0.64025 0.3181 0.18586 0.0
C3673 C 0.61587 0.29047 0.19386 0.0
C3674 C 0.61669 0.3058 0.20489 0.0
C3675 C 0.63084 0.33454 0.21278 0.0
C3676 C 0.64426 0.34744 0.20958 0.0
C3677 C 0.62901 0.31962 0.20116 0.0
C3678 C 0.65509 0.34591 0.19418 0.0
C3679 C 0.65295 0.33153 0.18228 0.0
H3680 H 0.96844 0.35087 0.44754 0.0
H3681 H 0.96132 0.4013 0.41928 0.0
H3682 H 0.93486 0.40788 0.43716 0.0
H3683 H 0.91418 0.39992 0.46102 0.0
H3684 H 0.91977 0.34945 0.48934 0.0
H3685 H 0.94626 0.3421 0.47105 0.0
C3686 C 0.96107 0.36328 0.44538 0.0
C3687 C 0.96689 0.37565 0.43221 0.0
C3688 C 0.94559 0.36693 0.45561 0.0
C3689 C 0.95713 0.39158 0.42934 0.0
C3690 C 0.94199 0.39537 0.43955 0.0
C3691 C 0.92115 0.38726 0.46321 0.0
C3692 C 0.91517 0.37531 0.47658 0.0
C3693 C 0.93616 0.38321 0.45273 0.0
C3694 C 0.92416 0.35886 0.47907 0.0
C3695 C 0.93933 0.35472 0.4687 0.0
H3696 H 0.88408 0.65812 0.73325 0.0
H3697 H 0.85039 0.62928 0.69594 0.0
H3698 H 0.85438 0.65297 0.67338 0.0
H3699 H 0.86443 0.68322 0.66571 0.0
H3700 H 0.89668 0.71346 0.7033 0.0
H3701 H 0.89635 0.68795 0.72436 0.0
C3702 C 0.8781 0.65688 0.71997 0.0
C3703 C 0.86714 0.64202 0.71604 0.0
C3704 C 0.87988 0.67095 0.70733 0.0
C3705 C 0.85902 0.64061 0.69905 0.0
C3706 C 0.86118 0.65419 0.68625 0.0
C3707 C 0.8715 0.68423 0.67846 0.0
C3708 C 0.88032 0.70029 0.68309 0.0
C3709 C 0.87107 0.66967 0.69048 0.0
C3710 C 0.88963 0.70128 0.69953 0.0
C3711 C 0.88945 0.68669 0.71155 0.0
H3712 H 0.5365 0.39852 0.57103 0.0
H3713 H 0.5269 0.34769 0.54452 0.0
H3714 H 0.55195 0.35354 0.52382 0.0
H3715 H 0.57703 0.37314 0.51388 0.0
H3716 H 0.585 0.42443 0.54029 0.0
H3717 H 0.56011 0.41831 0.56052 0.0
C3718 C 0.53986 0.3887 0.56071 0.0
C3719 C 0.53004 0.37266 0.55933 0.0
C3720 C 0.55401 0.39223 0.54892 0.0
C3721 C 0.53433 0.36016 0.54577 0.0
C3722 C 0.54866 0.36348 0.53402 0.0
C3723 C 0.57328 0.38291 0.52409 0.0
C3724 C 0.58286 0.39916 0.52567 0.0
C3725 C 0.55869 0.37944 0.53557 0.0
C3726 C 0.5778 0.41184 0.53879 0.0
C3727 C 0.56359 0.40836 0.55039 0.0
H3728 H 0.8812 0.33182 0.75869 0.0
H3729 H 0.8365 0.34902 0.79132 0.0
H3730 H 0.84121 0.32381 0.81181 0.0
H3731 H 0.85685 0.29616 0.81967 0.0
H3732 H 0.90072 0.27747 0.78678 0.0
H3733 H 0.89752 0.30389 0.76714 0.0
C3734 C 0.87269 0.3301 0.77042 0.0
C3735 C 0.85852 0.3422 0.77351 0.0
C3736 C 0.87519 0.31523 0.78197 0.0
C3737 C 0.84742 0.33979 0.78862 0.0
C3738 C 0.85009 0.32538 0.80034 0.0
C3739 C 0.86577 0.29786 0.80824 0.0
C3740 C 0.87894 0.28486 0.80463 0.0
C3741 C 0.86372 0.31288 0.79699 0.0
C3742 C 0.89039 0.28727 0.78977 0.0
C3743 C 0.88859 0.30238 0.77857 0.0
H3744 H 0.90416 0.59117 0.04147 0.0
H3745 H 0.90777 0.64055 0.01099 0.0
H3746 H 0.93444 0.64933 0.02822 0.0
H3747 H 0.95756 0.64199 0.0512 0.0
H3748 H 0.95266 0.59254 0.08155 0.0
H3749 H 0.9258 0.58463 0.0649 0.0
C3750 C 0.9107 0.60393 0.03866 0.0
C3751 C 0.90414 0.61515 0.02495 0.0
C3752 C 0.92593 0.60874 0.04843 0.0
C3753 C 0.91259 0.63173 0.02157 0.0
C3754 C 0.9279 0.63667 0.03131 0.0
C3755 C 0.9506 0.62949 0.05405 0.0
C3756 C 0.95711 0.6178 0.06746 0.0
C3757 C 0.93487 0.62511 0.04459 0.0
C3758 C 0.9479 0.60174 0.07126 0.0
C3759 C 0.93252 0.5972 0.06178 0.0
H3760 H 0.66236 0.65451 0.29333 0.0
H3761 H 0.61144 0.65517 0.26601 0.0
H3762 H 0.60233 0.68168 0.28356 0.0
H3763 H 0.6097 0.70566 0.30569 0.0
H3764 H 0.66032 0.70355 0.33364 0.0
H3765 H 0.66878 0.67673 0.31668 0.0
C3766 C 0.6492 0.66037 0.29132 0.0
C3767 C 0.63763 0.65303 0.27835 0.0
C3768 C 0.64411 0.67548 0.30141 0.0
C3769 C 0.62055 0.66058 0.276 0.0
C3770 C 0.6154 0.67581 0.28592 0.0
C3771 C 0.62256 0.69929 0.30801 0.0
C3772 C 0.63446 0.70664 0.32073 0.0
C3773 C 0.62721 0.68356 0.29846 0.0
C3774 C 0.65097 0.69815 0.32386 0.0
C3775 C 0.65582 0.68281 0.31419 0.0
H3776 H 0.93868 0.54735 0.64124 0.0
H3777 H 0.91809 0.5523 0.587 0.0
H3778 H 0.93951 0.57609 0.58057 0.0
H3779 H 0.96437 0.59498 0.58983 0.0
H3780 H 0.98502 0.59151 0.64406 0.0
H3781 H 0.96316 0.5678 0.65111 0.0
C3782 C 0.93893 0.55366 0.62804 0.0
C3783 C 0.92689 0.54798 0.61459 0.0
C3784 C 0.95122 0.56761 0.62445 0.0
C3785 C 0.9272 0.5564 0.5976 0.0
C3786 C 0.93946 0.57002 0.59388 0.0
C3787 C 0.9641 0.58908 0.60323 0.0
C3788 C 0.97637 0.59484 0.61636 0.0
C3789 C 0.95156 0.57565 0.60714 0.0
C3790 C 0.97568 0.58726 0.63372 0.0
C3791 C 0.96325 0.57367 0.63772 0.0
H3792 H 0.66581 0.73086 0.87979 0.0
H3793 H 0.64592 0.69624 0.83755 0.0
H3794 H 0.67215 0.67686 0.84044 0.0
H3795 H 0.70151 0.67092 0.85338 0.0
H3796 H 0.72283 0.70623 0.89433 0.0
H3797 H 0.69537 0.72429 0.89348 0.0
C3798 C 0.66714 0.71887 0.8715 0.0
C3799 C 0.654 0.71485 0.85856 0.0
C3800 C 0.68262 0.70813 0.87279 0.0
C3801 C 0.65592 0.69953 0.84762 0.0
C3802 C 0.67093 0.6885 0.8492 0.0
C3803 C 0.70015 0.68254 0.86218 0.0
C3804 C 0.71419 0.6873 0.87382 0.0
C3805 C 0.68451 0.69289 0.86146 0.0
C3806 C 0.71223 0.70238 0.88514 0.0
C3807 C 0.69652 0.71266 0.8847 0.0
H3808 H 0.57424 0.44788 0.09533 0.0
H3809 H 0.55332 0.45653 0.14891 0.0
H3810 H 0.53129 0.43239 0.1441 0.0
H3811 H 0.51811 0.40877 0.12423 0.0
H3812 H 0.53977 0.40156 0.07059 0.0
H3813 H 0.56143 0.42524 0.07595 0.0
C3814 C 0.56491 0.44453 0.10604 0.0
C3815 C 0.56543 0.45393 0.12246 0.0
C3816 C 0.55241 0.43089 0.10314 0.0
C3817 C 0.55316 0.44946 0.13612 0.0
C3818 C 0.5406 0.43567 0.13337 0.0
C3819 C 0.5276 0.41242 0.11377 0.0
C3820 C 0.5273 0.40341 0.09704 0.0
C3821 C 0.54011 0.42627 0.11688 0.0
C3822 C 0.53963 0.40829 0.08357 0.0
C3823 C 0.55207 0.42183 0.0866 0.0
H3824 H 0.79359 0.33104 0.3483 0.0
H3825 H 0.77849 0.30302 0.39698 0.0
H3826 H 0.80289 0.28127 0.39217 0.0
H3827 H 0.82859 0.27045 0.37376 0.0
H3828 H 0.84194 0.29863 0.32453 0.0
H3829 H 0.81807 0.3202 0.32998 0.0
C3830 C 0.79562 0.32021 0.35794 0.0
C3831 C 0.78438 0.31864 0.37301 0.0
C3832 C 0.80935 0.30782 0.35495 0.0
C3833 C 0.78703 0.30443 0.38525 0.0
C3834 C 0.80097 0.29206 0.38251 0.0
C3835 C 0.82624 0.28135 0.36429 0.0
C3836 C 0.837 0.28298 0.34878 0.0
C3837 C 0.81223 0.29365 0.36737 0.0
C3838 C 0.83378 0.29704 0.33652 0.0
C3839 C 0.82017 0.30941 0.33963 0.0
H3840 H 0.91758 0.438 0.89962 0.0
H3841 H 0.93947 0.45437 0.8483 0.0
H3842 H 0.96288 0.43122 0.85101 0.0
H3843 H 0.97743 0.40662 0.86866 0.0
H3844 H 0.95546 0.39222 0.92063 0.0
H3845 H 0.93173 0.4143 0.91691 0.0
C3846 C 0.92738 0.4365 0.88892 0.0
C3847 C 0.92674 0.44784 0.87374 0.0
C3848 C 0.94083 0.42352 0.89073 0.0
C3849 C 0.93968 0.44579 0.86012 0.0
C3850 C 0.95305 0.43256 0.86169 0.0
C3851 C 0.96738 0.40832 0.87909 0.0
C3852 C 0.96823 0.39782 0.89491 0.0
C3853 C 0.95381 0.42139 0.87701 0.0
C3854 C 0.9552 0.40021 0.90838 0.0
C3855 C 0.94158 0.41281 0.90627 0.0
H3856 H 0.78921 0.6969 0.10572 0.0
H3857 H 0.79669 0.66253 0.15218 0.0
H3858 H 0.82375 0.67873 0.16021 0.0
H3859 H 0.84447 0.70325 0.15504 0.0
H3860 H 0.83829 0.73788 0.10874 0.0
H3861 H 0.81174 0.72074 0.09935 0.0
C3862 C 0.7968 0.69304 0.11758 0.0
C3863 C 0.7909 0.67869 0.12845 0.0
C3864 C 0.8126 0.70232 0.12206 0.0
C3865 C 0.80094 0.67358 0.14363 0.0
C3866 C 0.81643 0.68281 0.14825 0.0
C3867 C 0.8374 0.70698 0.14281 0.0
C3868 C 0.84312 0.72184 0.13268 0.0
C3869 C 0.82227 0.69725 0.13767 0.0
C3870 C 0.83406 0.7264 0.11671 0.0
C3871 C 0.81884 0.71672 0.11145 0.0
H3872 H 0.51784 0.59331 0.36955 0.0
H3873 H 0.54218 0.60091 0.42188 0.0
H3874 H 0.56334 0.57683 0.4157 0.0
H3875 H 0.57456 0.5533 0.39613 0.0
H3876 H 0.55058 0.54421 0.34395 0.0
H3877 H 0.5296 0.56916 0.34939 0.0
C3878 C 0.52786 0.58972 0.37951 0.0
C3879 C 0.5284 0.59888 0.39617 0.0
C3880 C 0.53996 0.57556 0.37596 0.0
C3881 C 0.54138 0.59404 0.409 0.0
C3882 C 0.55352 0.58026 0.40549 0.0
C3883 C 0.56478 0.55673 0.38586 0.0
C3884 C 0.56413 0.5469 0.36966 0.0
C3885 C 0.55283 0.57087 0.38912 0.0
C3886 C 0.55133 0.55156 0.35657 0.0
C3887 C 0.53936 0.56582 0.35967 0.0
H3888 H 0.65171 0.29343 0.65011 0.0
H3889 H 0.65735 0.26085 0.60225 0.0
H3890 H 0.68325 0.27893 0.59284 0.0
H3891 H 0.70566 0.30269 0.5997 0.0
H3892 H 0.69887 0.33512 0.64765 0.0
H3893 H 0.67205 0.31839 0.65553 0.0
C3894 C 0.65851 0.29037 0.63752 0.0
C3895 C 0.65283 0.27576 0.62698 0.0
C3896 C 0.67328 0.3007 0.63231 0.0
C3897 C 0.66154 0.27209 0.61058 0.0
C3898 C 0.67639 0.28234 0.60528 0.0
C3899 C 0.69823 0.3061 0.6118 0.0
C3900 C 0.70438 0.31996 0.62319 0.0
C3901 C 0.68262 0.29645 0.61626 0.0
C3902 C 0.6945 0.32444 0.6387 0.0
C3903 C 0.67915 0.31489 0.64325 0.0
H3904 H 0.63812 0.93762 0.54979 0.0
H3905 H 0.58915 0.90834 0.55967 0.0
H3906 H 0.58246 0.92763 0.58529 0.0
H3907 H 0.58941 0.9537 0.60389 0.0
H3908 H 0.63854 0.98293 0.59563 0.0
H3909 H 0.64647 0.96264 0.57062 0.0
C3910 C 0.62604 0.9355 0.55762 0.0
C3911 C 0.61405 0.92171 0.5527 0.0
C3912 C 0.62233 0.94656 0.57265 0.0
C3913 C 0.59858 0.91889 0.5631 0.0
C3914 C 0.59471 0.92992 0.57778 0.0
C3915 C 0.60195 0.95553 0.59672 0.0
C3916 C 0.6133 0.96982 0.60142 0.0
C3917 C 0.60634 0.9439 0.58252 0.0
C3918 C 0.62962 0.97194 0.59224 0.0
C3919 C 0.63406 0.96044 0.57787 0.0
H3920 H 0.11745 0.57552 0.45047 0.0
H3921 H 0.1515 0.53676 0.47703 0.0
H3922 H 0.15072 0.51746 0.45019 0.0
H3923 H 0.13813 0.51057 0.42001 0.0
H3924 H 0.1028 0.54895 0.39476 0.0
H3925 H 0.10665 0.56971 0.42004 0.0
C3926 C 0.12475 0.56287 0.4504 0.0
C3927 C 0.1343 0.55743 0.46576 0.0
C3928 C 0.12415 0.55189 0.43506 0.0
C3929 C 0.14388 0.54113 0.46539 0.0
C3930 C 0.14349 0.53013 0.45004 0.0
C3931 C 0.13173 0.5237 0.41992 0.0
C3932 C 0.12035 0.52843 0.40563 0.0
C3933 C 0.13343 0.53525 0.43488 0.0
C3934 C 0.11172 0.54522 0.40568 0.0
C3935 C 0.11379 0.55699 0.42016 0.0
H3936 H 0.6823 0.88598 0.70046 0.0
H3937 H 0.6586 0.83292 0.69944 0.0
H3938 H 0.68041 0.82307 0.67715 0.0
H3939 H 0.70614 0.82934 0.65794 0.0
H3940 H 0.72931 0.88257 0.65733 0.0
H3941 H 0.70781 0.89257 0.6802 0.0
C3942 C 0.68198 0.87228 0.69534 0.0
C3943 C 0.66891 0.86019 0.7016 0.0
C3944 C 0.69444 0.86673 0.68224 0.0
C3945 C 0.66849 0.84251 0.69478 0.0
C3946 C 0.68098 0.83683 0.68205 0.0
C3947 C 0.70652 0.84312 0.66285 0.0
C3948 C 0.71932 0.85517 0.65609 0.0
C3949 C 0.694 0.84881 0.6757 0.0
C3950 C 0.71954 0.87305 0.66238 0.0
C3951 C 0.70728 0.87876 0.67546 0.0
H3952 H 0.408 0.48686 0.9231 0.0
H3953 H 0.35989 0.47735 0.89248 0.0
H3954 H 0.34721 0.46027 0.91784 0.0
H3955 H 0.35212 0.4442 0.94682 0.0
H3956 H 0.40126 0.45269 0.97599 0.0
H3957 H 0.41123 0.47431 0.95324 0.0
C3958 C 0.3946 0.4813 0.92209 0.0
C3959 C 0.38498 0.48304 0.90594 0.0
C3960 C 0.38767 0.4713 0.93647 0.0
C3961 C 0.36754 0.47609 0.90483 0.0
C3962 C 0.36036 0.46625 0.91927 0.0
C3963 C 0.3647 0.45128 0.9484 0.0
C3964 C 0.37596 0.44712 0.96298 0.0
C3965 C 0.37059 0.46322 0.9349 0.0
C3966 C 0.39242 0.45594 0.96485 0.0
C3967 C 0.39815 0.46816 0.95182 0.0
H3968 H 0.32184 0.60364 0.70711 0.0
H3969 H 0.34421 0.65689 0.69975 0.0
H3970 H 0.32048 0.66449 0.67884 0.0
H3971 H 0.29331 0.65668 0.6632 0.0
H3972 H 0.27034 0.60366 0.66885 0.0
H3973 H 0.29445 0.59524 0.68985 0.0
C3974 C 0.32149 0.61686 0.70087 0.0
C3975 C 0.33473 0.6297 0.70508 0.0
C3976 C 0.30773 0.62121 0.68863 0.0
C3977 C 0.33421 0.64674 0.69681 0.0
C3978 C 0.32061 0.65115 0.68484 0.0
C3979 C 0.29347 0.64327 0.66906 0.0
C3980 C 0.27998 0.63088 0.66473 0.0
C3981 C 0.30729 0.63858 0.68079 0.0
C3982 C 0.2806 0.61345 0.6721 0.0
C3983 C 0.29434 0.60867 0.68409 0.0
H3984 H 0.85093 0.04653 0.04238 0.0
H3985 H 0.90596 0.06368 0.0379 0.0
H3986 H 0.91358 0.04712 0.06511 0.0
H3987 H 0.90494 0.02821 0.09018 0.0
H3988 H 0.85013 0.01116 0.09642 0.0
H3989 H 0.84198 0.02752 0.06873 0.0
C3990 C 0.86457 0.04648 0.04735 0.0
C3991 C 0.87789 0.05625 0.03812 0.0
C3992 C 0.86885 0.03716 0.0634 0.0
C3993 C 0.89547 0.05629 0.04478 0.0
C3994 C 0.89986 0.04685 0.06036 0.0
C3995 C 0.89116 0.02804 0.08555 0.0
C3996 C 0.87817 0.01843 0.09528 0.0
C3997 C 0.88668 0.03736 0.0698 0.0
C3998 C 0.86037 0.01853 0.08917 0.0
C3999 C 0.85575 0.02779 0.0733 0.0
H4000 H 0.72895 0.12551 0.84411 0.0
H4001 H 0.70718 0.17843 0.85449 0.0
H4002 H 0.6858 0.17464 0.83003 0.0
H4003 H 0.67354 0.15678 0.80552 0.0
H4004 H 0.69539 0.10428 0.7936 0.0
H4005 H 0.71659 0.10745 0.81871 0.0
C4006 C 0.71943 0.13611 0.84104 0.0
C4007 C 0.71962 0.15221 0.8511 0.0
C4008 C 0.7073 0.13399 0.82662 0.0
C4009 C 0.70736 0.16594 0.8469 0.0
C4010 C 0.69511 0.1638 0.83291 0.0
C4011 C 0.68292 0.14599 0.80837 0.0
C4012 C 0.68288 0.13031 0.79774 0.0
C4013 C 0.69504 0.14797 0.82264 0.0
C4014 C 0.69521 0.11652 0.80157 0.0
C4015 C 0.70728 0.11831 0.81596 0.0
H4016 H 0.81432 0.8943 0.29682 0.0
H4017 H 0.84118 0.84615 0.31546 0.0
H4018 H 0.81772 0.841 0.33745 0.0
H4019 H 0.78886 0.84878 0.35022 0.0
H4020 H 0.76176 0.89727 0.33361 0.0
H4021 H 0.78604 0.90378 0.31206 0.0
C4022 C 0.81508 0.88281 0.30583 0.0
C4023 C 0.82941 0.87053 0.30431 0.0
C4024 C 0.80146 0.8799 0.31869 0.0
C4025 C 0.83029 0.85578 0.3162 0.0
C4026 C 0.81684 0.85275 0.3288 0.0
C4027 C 0.78826 0.8608 0.34187 0.0
C4028 C 0.77348 0.87236 0.34314 0.0
C4029 C 0.80225 0.86449 0.32991 0.0
C4030 C 0.77303 0.88813 0.33268 0.0
C4031 C 0.78687 0.8918 0.32038 0.0
H4032 H 0.44419 0.38483 0.07091 0.0
H4033 H 0.47189 0.35366 0.03052 0.0
H4034 H 0.44629 0.35716 0.00989 0.0
H4035 H 0.41716 0.37208 0.00256 0.0
H4036 H 0.39128 0.40429 0.04348 0.0
H4037 H 0.41497 0.39723 0.06482 0.0
C4038 C 0.44465 0.37871 0.05761 0.0
C4039 C 0.45997 0.36934 0.05204 0.0
C4040 C 0.43019 0.38101 0.04595 0.0
C4041 C 0.46022 0.36109 0.03498 0.0
C4042 C 0.44563 0.36315 0.02321 0.0
C4043 C 0.41667 0.37722 0.01626 0.0
C4044 C 0.40269 0.38881 0.02148 0.0
C4045 C 0.4307 0.37349 0.02841 0.0
C4046 C 0.40208 0.39552 0.03917 0.0
C4047 C 0.4156 0.39151 0.05137 0.0
H4048 H 0.353 0.64968 0.78855 0.0
H4049 H 0.40125 0.66852 0.76278 0.0
H4050 H 0.40304 0.69357 0.78432 0.0
H4051 H 0.38971 0.71102 0.8094 0.0
H4052 H 0.34172 0.69134 0.83517 0.0
H4053 H 0.34096 0.6657 0.81461 0.0
C4054 C 0.36399 0.6592 0.78771 0.0
C4055 C 0.37687 0.65742 0.77402 0.0
C4056 C 0.36487 0.67348 0.80002 0.0
C4057 C 0.39117 0.66967 0.77322 0.0
C4058 C 0.39213 0.68402 0.78546 0.0
C4059 C 0.37913 0.70108 0.81051 0.0
C4060 C 0.36568 0.70315 0.82364 0.0
C4061 C 0.37886 0.68624 0.79872 0.0
C4062 C 0.35217 0.69008 0.82511 0.0
C4063 C 0.35172 0.67541 0.81337 0.0
H4064 H 0.10029 0.58309 0.5464 0.0
H4065 H 0.10093 0.63399 0.51831 0.0
H4066 H 0.07464 0.64395 0.53553 0.0
H4067 H 0.05101 0.63768 0.55834 0.0
H4068 H 0.05196 0.58691 0.58683 0.0
H4069 H 0.07801 0.57739 0.56961 0.0
C4070 C 0.09471 0.59639 0.54403 0.0
C4071 C 0.10244 0.60774 0.53103 0.0
C4072 C 0.0798 0.60201 0.55401 0.0
C4073 C 0.0952 0.62501 0.52828 0.0
C4074 C 0.08014 0.63067 0.53807 0.0
C4075 C 0.05693 0.62454 0.56069 0.0
C4076 C 0.0495 0.61297 0.57375 0.0
C4077 C 0.07223 0.61921 0.5509 0.0
C4078 C 0.05742 0.59607 0.57686 0.0
C4079 C 0.07233 0.59059 0.56702 0.0
H4080 H 0.10665 0.28115 0.2965 0.0
H4081 H 0.15896 0.28556 0.32078 0.0
H4082 H 0.16559 0.31178 0.30215 0.0
H4083 H 0.15653 0.33362 0.27937 0.0
H4084 H 0.10394 0.33043 0.2556 0.0
H4085 H 0.09733 0.30362 0.27373 0.0
C4086 C 0.11951 0.28782 0.29761 0.0
C4087 C 0.13232 0.28143 0.30993 0.0
C4088 C 0.12313 0.30314 0.28706 0.0
C4089 C 0.14888 0.29026 0.31139 0.0
C4090 C 0.15268 0.30526 0.30076 0.0
C4091 C 0.14361 0.32706 0.27812 0.0
C4092 C 0.13077 0.3339 0.26614 0.0
C4093 C 0.1399 0.31184 0.28863 0.0
C4094 C 0.11405 0.32536 0.26476 0.0
C4095 C 0.11028 0.31003 0.27509 0.0
H4096 H 0.44953 0.60196 0.42886 0.0
H4097 H 0.46295 0.6517 0.4558 0.0
H4098 H 0.43604 0.64915 0.47454 0.0
H4099 H 0.40918 0.63196 0.48402 0.0
H4100 H 0.39736 0.58135 0.45798 0.0
H4101 H 0.42299 0.58516 0.43794 0.0
C4102 C 0.44657 0.61228 0.4388 0.0
C4103 C 0.45822 0.62697 0.44098 0.0
C4104 C 0.43128 0.61059 0.44962 0.0
C4105 C 0.45422 0.6402 0.45395 0.0
C4106 C 0.43881 0.63878 0.46461 0.0
C4107 C 0.41214 0.62195 0.47377 0.0
C4108 C 0.40143 0.60644 0.47237 0.0
C4109 C 0.42729 0.62396 0.46265 0.0
C4110 C 0.40548 0.59338 0.45927 0.0
C4111 C 0.42014 0.59552 0.44785 0.0
H4112 H 0.10507 0.71181 0.19599 0.0
H4113 H 0.15645 0.70363 0.17071 0.0
H4114 H 0.16309 0.6792 0.19179 0.0
H4115 H 0.15431 0.6602 0.21749 0.0
H4116 H 0.10225 0.6673 0.24167 0.0
H4117 H 0.09581 0.69204 0.22091 0.0
C4118 C 0.11772 0.70469 0.19514 0.0
C4119 C 0.1303 0.70955 0.18192 0.0
C4120 C 0.12131 0.69045 0.20707 0.0
C4121 C 0.14656 0.7001 0.1808 0.0
C4122 C 0.15037 0.68615 0.19285 0.0
C4123 C 0.14157 0.66719 0.2182 0.0
C4124 C 0.12882 0.66204 0.23113 0.0
C4125 C 0.13785 0.68122 0.20605 0.0
C4126 C 0.11228 0.67104 0.23181 0.0
C4127 C 0.1086 0.68521 0.21997 0.0
H4128 H 0.08923 0.36926 0.97998 0.0
H4129 H 0.09806 0.42127 0.95544 0.0
H4130 H 0.07345 0.416 0.93454 0.0
H4131 H 0.04872 0.39728 0.92389 0.0
H4132 H 0.03851 0.34585 0.94899 0.0
H4133 H 0.06427 0.35019 0.96896 0.0
C4134 C 0.08583 0.37934 0.96995 0.0
C4135 C 0.09546 0.39563 0.96928 0.0
C4136 C 0.07133 0.37638 0.95814 0.0
C4137 C 0.09081 0.40865 0.95631 0.0
C4138 C 0.07673 0.40566 0.94434 0.0
C4139 C 0.05216 0.38697 0.93367 0.0
C4140 C 0.0417 0.37128 0.93496 0.0
C4141 C 0.06678 0.38968 0.94525 0.0
C4142 C 0.04631 0.35809 0.94777 0.0
C4143 C 0.06106 0.36056 0.95918 0.0
H4144 H 0.34138 0.30161 0.67923 0.0
H4145 H 0.38582 0.27671 0.70685 0.0
H4146 H 0.38508 0.3004 0.72979 0.0
H4147 H 0.372 0.32834 0.74171 0.0
H4148 H 0.32728 0.35292 0.71424 0.0
H4149 H 0.32792 0.32911 0.69147 0.0
C4150 C 0.3509 0.30135 0.69028 0.0
C4151 C 0.36367 0.28749 0.69135 0.0
C4152 C 0.35034 0.31493 0.70341 0.0
C4153 C 0.37586 0.28726 0.70576 0.0
C4154 C 0.37545 0.3008 0.71886 0.0
C4155 C 0.36238 0.32846 0.73075 0.0
C4156 C 0.34964 0.34236 0.72961 0.0
C4157 C 0.36278 0.31472 0.71777 0.0
C4158 C 0.33721 0.34234 0.7154 0.0
C4159 C 0.33758 0.32876 0.70237 0.0
H4160 H 0.06207 0.45527 0.3607 0.0
H4161 H 0.08742 0.45357 0.413 0.0
H4162 H 0.07067 0.42649 0.42074 0.0
H4163 H 0.04876 0.40352 0.4129 0.0
H4164 H 0.02419 0.40373 0.36024 0.0
H4165 H 0.04095 0.43098 0.3522 0.0
C4166 C 0.06383 0.44896 0.37378 0.0
C4167 C 0.07582 0.45641 0.38632 0.0
C4168 C 0.05447 0.43307 0.378 0.0
C4169 C 0.07822 0.44804 0.40314 0.0
C4170 C 0.06868 0.43256 0.40758 0.0
C4171 C 0.04712 0.40948 0.39963 0.0
C4172 C 0.03522 0.40175 0.38722 0.0
C4173 C 0.0568 0.42497 0.39513 0.0
C4174 C 0.03335 0.40946 0.37 0.0
C4175 C 0.04284 0.42508 0.36545 0.0
H4176 H 0.28933 0.30464 0.10667 0.0
H4177 H 0.28923 0.33166 0.15828 0.0
H4178 H 0.31597 0.31528 0.16729 0.0
H4179 H 0.33924 0.29328 0.16085 0.0
H4180 H 0.34098 0.26683 0.10904 0.0
H4181 H 0.3139 0.28308 0.09968 0.0
C4182 C 0.29518 0.30683 0.11988 0.0
C4183 C 0.28726 0.31924 0.13184 0.0
C4184 C 0.31089 0.29757 0.12491 0.0
C4185 C 0.29507 0.32218 0.14883 0.0
C4186 C 0.31037 0.31282 0.15402 0.0
C4187 C 0.33373 0.29106 0.14748 0.0
C4188 C 0.34201 0.2788 0.1357 0.0
C4189 C 0.31837 0.3005 0.1422 0.0
C4190 C 0.33483 0.27624 0.11835 0.0
C4191 C 0.31932 0.28547 0.11303 0.0
H4192 H 0.43039 0.55368 0.85777 0.0
H4193 H 0.4651 0.51394 0.88171 0.0
H4194 H 0.48725 0.53732 0.88858 0.0
H4195 H 0.49466 0.56961 0.89115 0.0
H4196 H 0.461 0.6091 0.86539 0.0
H4197 H 0.44048 0.58528 0.85549 0.0
C4198 C 0.44299 0.5502 0.86418 0.0
C4199 C 0.44618 0.53236 0.86953 0.0
C4200 C 0.45569 0.56362 0.86776 0.0
C4201 C 0.46252 0.52771 0.87756 0.0
C4202 C 0.47508 0.54104 0.88155 0.0
C4203 C 0.48307 0.57284 0.88295 0.0
C4204 C 0.47914 0.59088 0.87898 0.0
C4205 C 0.47154 0.55911 0.8772 0.0
C4206 C 0.4642 0.59517 0.8684 0.0
C4207 C 0.45244 0.58161 0.8629 0.0
H4208 H 0.20862 0.69123 0.618 0.0
H4209 H 0.20744 0.66942 0.67198 0.0
H4210 H 0.18215 0.68873 0.6796 0.0
H4211 H 0.1602 0.71143 0.67097 0.0
H4212 H 0.15949 0.73208 0.61657 0.0
H4213 H 0.18556 0.71349 0.60895 0.0
C4214 C 0.20283 0.69083 0.63142 0.0
C4215 C 0.20988 0.67904 0.64445 0.0
C4216 C 0.18792 0.70163 0.63558 0.0
C4217 C 0.20218 0.6784 0.66173 0.0
C4218 C 0.18774 0.68942 0.66611 0.0
C4219 C 0.16576 0.71188 0.65745 0.0
C4220 C 0.15805 0.72314 0.64438 0.0
C4221 C 0.18046 0.70101 0.65314 0.0
C4222 C 0.16522 0.72345 0.62684 0.0
C4223 C 0.18015 0.71289 0.62251 0.0
H4224 H 0.04854 0.54201 0.14276 0.0
H4225 H 0.07679 0.54338 0.09193 0.0
H4226 H 0.06182 0.5714 0.08392 0.0
H4227 H 0.04002 0.59474 0.09068 0.0
H4228 H 0.01188 0.59448 0.1415 0.0
H4229 H 0.02788 0.56699 0.15048 0.0
C4230 C 0.05137 0.54847 0.12995 0.0
C4231 C 0.06359 0.54059 0.11786 0.0
C4232 C 0.04292 0.56481 0.12554 0.0
C4233 C 0.06736 0.54917 0.10141 0.0
C4234 C 0.05885 0.56521 0.09683 0.0
C4235 C 0.03749 0.58876 0.1038 0.0
C4236 C 0.02473 0.59645 0.11536 0.0
C4237 C 0.04655 0.57305 0.10872 0.0
C4238 C 0.02173 0.58877 0.13241 0.0
C4239 C 0.03074 0.573 0.13746 0.0
H4240 H 0.21272 0.30633 0.89013 0.0
H4241 H 0.20161 0.3347 0.84049 0.0
H4242 H 0.1771 0.31416 0.83395 0.0
H4243 H 0.15921 0.28807 0.84185 0.0
H4244 H 0.16822 0.26017 0.89205 0.0
H4245 H 0.1931 0.28074 0.89907 0.0
C4246 C 0.2049 0.30793 0.87791 0.0
C4247 C 0.209 0.32187 0.86572 0.0
C4248 C 0.19049 0.29625 0.87439 0.0
C4249 C 0.19868 0.32404 0.85005 0.0
C4250 C 0.18468 0.31231 0.84628 0.0
C4251 C 0.16663 0.28647 0.85434 0.0
C4252 C 0.16216 0.27257 0.86632 0.0
C4253 C 0.18054 0.29837 0.85829 0.0
C4254 C 0.17154 0.27082 0.88263 0.0
C4255 C 0.18576 0.28251 0.88658 0.0
H4256 H 0.45085 0.45665 0.63919 0.0
H4257 H 0.41457 0.4511 0.59422 0.0
H4258 H 0.42815 0.42225 0.58633 0.0
H4259 H 0.45085 0.39919 0.59153 0.0
H4260 H 0.48636 0.40345 0.63718 0.0
H4261 H 0.47223 0.43204 0.64585 0.0
C4262 C 0.44593 0.4491 0.6277 0.0
C4263 C 0.43185 0.45604 0.61719 0.0
C4264 C 0.45352 0.43225 0.6235 0.0
C4265 C 0.42545 0.44604 0.60246 0.0
C4266 C 0.43317 0.42954 0.59796 0.0
C4267 C 0.45539 0.40629 0.60349 0.0
C4268 C 0.46968 0.39936 0.61364 0.0
C4269 C 0.44725 0.42259 0.60832 0.0
C4270 C 0.47531 0.40854 0.62921 0.0
C4271 C 0.46735 0.42494 0.63406 0.0
H4272 H 0.29269 0.6874 0.39041 0.0
H4273 H 0.29454 0.66197 0.33805 0.0
H4274 H 0.31988 0.68078 0.32947 0.0
H4275 H 0.34122 0.70461 0.33655 0.0
H4276 H 0.34095 0.72933 0.38923 0.0
H4277 H 0.31541 0.71053 0.3981 0.0
C4278 C 0.29866 0.68604 0.37714 0.0
C4279 C 0.29169 0.67342 0.36483 0.0
C4280 C 0.31352 0.6967 0.37239 0.0
C4281 C 0.29966 0.67159 0.34775 0.0
C4282 C 0.31415 0.68235 0.34283 0.0
C4283 C 0.3356 0.70588 0.34999 0.0
C4284 C 0.34284 0.71841 0.36217 0.0
C4285 C 0.32114 0.69495 0.355 0.0
C4286 C 0.33559 0.71974 0.37962 0.0
C4287 C 0.32095 0.70906 0.38466 0.0
H4288 H 0.3581 0.0534 0.46198 0.0
H4289 H 0.40986 0.07872 0.45728 0.0
H4290 H 0.41706 0.05965 0.43142 0.0
H4291 H 0.4086 0.03594 0.41003 0.0
H4292 H 0.35627 0.01166 0.41361 0.0
H4293 H 0.34923 0.03032 0.43986 0.0
C4294 C 0.37097 0.05467 0.45532 0.0
C4295 C 0.38346 0.06736 0.46153 0.0
C4296 C 0.37485 0.04397 0.44018 0.0
C4297 C 0.40002 0.06902 0.4527 0.0
C4298 C 0.40414 0.05815 0.43792 0.0
C4299 C 0.39565 0.03478 0.41654 0.0
C4300 C 0.38301 0.02243 0.40997 0.0
C4301 C 0.39164 0.04563 0.4315 0.0
C4302 C 0.36622 0.02112 0.41843 0.0
C4303 C 0.36221 0.03173 0.43347 0.0
H4304 H 0.86223 0.43977 0.53672 0.0
H4305 H 0.91221 0.41371 0.54986 0.0
H4306 H 0.91801 0.43614 0.57318 0.0
H4307 H 0.90931 0.46349 0.58939 0.0
H4308 H 0.85877 0.48899 0.57763 0.0
H4309 H 0.85269 0.46642 0.55429 0.0
C4310 C 0.87436 0.43904 0.54472 0.0
C4311 C 0.88684 0.42522 0.5415 0.0
C4312 C 0.87751 0.45186 0.55833 0.0
C4313 C 0.9024 0.42424 0.55209 0.0
C4314 C 0.90576 0.43707 0.5654 0.0
C4315 C 0.89696 0.46409 0.58171 0.0
C4316 C 0.88459 0.47793 0.58504 0.0
C4317 C 0.89347 0.45099 0.56856 0.0
C4318 C 0.86852 0.47844 0.57523 0.0
C4319 C 0.86506 0.46558 0.56188 0.0
H4320 H 0.30682 0.10951 0.28693 0.0
H4321 H 0.32601 0.16393 0.28004 0.0
H4322 H 0.30928 0.17365 0.30651 0.0
H4323 H 0.29014 0.16669 0.33206 0.0
H4324 H 0.27182 0.11221 0.34063 0.0
H4325 H 0.28748 0.10241 0.31324 0.0
C4326 C 0.30714 0.12349 0.29119 0.0
C4327 C 0.31754 0.13602 0.28159 0.0
C4328 C 0.29788 0.12892 0.30682 0.0
C4329 C 0.31809 0.15407 0.28729 0.0
C4330 C 0.30857 0.15964 0.30243 0.0
C4331 C 0.28955 0.15265 0.32797 0.0
C4332 C 0.27985 0.1402 0.33832 0.0
C4333 C 0.29862 0.14715 0.31239 0.0
C4334 C 0.27929 0.12205 0.33289 0.0
C4335 C 0.28817 0.11646 0.3172 0.0
H4336 H 0.59965 0.57311 0.04803 0.0
H4337 H 0.65022 0.55 0.03199 0.0
H4338 H 0.64771 0.5275 0.05612 0.0
H4339 H 0.63061 0.51411 0.08133 0.0
H4340 H 0.57965 0.53718 0.09626 0.0
H4341 H 0.58292 0.56015 0.07298 0.0
C4342 C 0.61018 0.56319 0.0498 0.0
C4343 C 0.62507 0.56315 0.03825 0.0
C4344 C 0.60856 0.55033 0.06349 0.0
C4345 C 0.63858 0.55021 0.04071 0.0
C4346 C 0.63716 0.5374 0.05449 0.0
C4347 C 0.62029 0.52423 0.07951 0.0
C4348 C 0.60489 0.52396 0.09043 0.0
C4349 C 0.62214 0.53728 0.06591 0.0
C4350 C 0.59158 0.53708 0.08795 0.0
C4351 C 0.59343 0.55021 0.07466 0.0
H4352 H 0.69886 0.39298 0.28423 0.0
H4353 H 0.67021 0.34267 0.28917 0.0
H4354 H 0.6857 0.33616 0.31732 0.0
H4355 H 0.70763 0.34424 0.34001 0.0
H4356 H 0.73618 0.39463 0.33633 0.0
H4357 H 0.72021 0.40185 0.30826 0.0
C4358 C 0.69607 0.3806 0.29149 0.0
C4359 C 0.68353 0.36824 0.2846 0.0
C4360 C 0.70487 0.37704 0.30786 0.0
C4361 C 0.67984 0.35236 0.2942 0.0
C4362 C 0.68866 0.34863 0.31029 0.0
C4363 C 0.71037 0.35685 0.33311 0.0
C4364 C 0.72316 0.36882 0.34007 0.0
C4365 C 0.70123 0.36081 0.31717 0.0
C4366 C 0.72636 0.38522 0.33117 0.0
C4367 C 0.71731 0.38928 0.31511 0.0
H4368 H 0.13457 0.98638 0.91934 0.0
H4369 H 0.08527 0.9609 0.90292 0.0
H4370 H 0.0865 0.9411 0.92916 0.0
H4371 H 0.10109 0.9315 0.95693 0.0
H4372 H 0.14993 0.9572 0.97427 0.0
H4373 H 0.14936 0.97658 0.94747 0.0
C4374 C 0.12417 0.97642 0.92148 0.0
C4375 C 0.10985 0.97507 0.90924 0.0
C4376 C 0.12483 0.96524 0.93676 0.0
C4377 C 0.0964 0.9622 0.91219 0.0
C4378 C 0.09708 0.95089 0.92718 0.0
C4379 C 0.11165 0.94132 0.95486 0.0
C4380 C 0.12553 0.94296 0.96753 0.0
C4381 C 0.11115 0.95239 0.93959 0.0
C4382 C 0.13907 0.95577 0.96471 0.0
C4383 C 0.13876 0.96679 0.94939 0.0
H4384 H 0.31426 0.84006 0.21057 0.0
H4385 H 0.28533 0.88969 0.21919 0.0
H4386 H 0.26927 0.88534 0.19081 0.0
H4387 H 0.26385 0.86761 0.16331 0.0
H4388 H 0.29168 0.81723 0.15557 0.0
H4389 H 0.30789 0.82172 0.18386 0.0
C4390 C 0.30438 0.84989 0.20627 0.0
C4391 C 0.30107 0.86523 0.21685 0.0
C4392 C 0.29511 0.84721 0.19007 0.0
C4393 C 0.28814 0.87778 0.21124 0.0
C4394 C 0.279 0.87533 0.19499 0.0
C4395 C 0.27353 0.85768 0.1678 0.0
C4396 C 0.27673 0.84221 0.15737 0.0
C4397 C 0.28249 0.86016 0.18424 0.0
C4398 C 0.28906 0.82927 0.16342 0.0
C4399 C 0.2983 0.83182 0.17957 0.0
H4400 H 0.16476 0.13502 0.69071 0.0
H4401 H 0.20452 0.1025 0.71756 0.0
H4402 H 0.22356 0.10366 0.69063 0.0
H4403 H 0.23007 0.11665 0.66046 0.0
H4404 H 0.19069 0.15061 0.63498 0.0
H4405 H 0.17011 0.14583 0.66014 0.0
C4406 C 0.17754 0.12808 0.69066 0.0
C4407 C 0.18336 0.11893 0.70617 0.0
C4408 C 0.18841 0.12898 0.67528 0.0
C4409 C 0.19984 0.10981 0.70581 0.0
C4410 C 0.21071 0.11044 0.69042 0.0
C4411 C 0.21678 0.12252 0.66028 0.0
C4412 C 0.21173 0.13383 0.64596 0.0
C4413 C 0.20529 0.12031 0.67519 0.0
C4414 C 0.1947 0.14177 0.64591 0.0
C4415 C 0.18301 0.13916 0.66032 0.0
loop_
_geom_bond_atom_site_label_1
_geom_bond_atom_site_label_2
_geom_bond_distance
_geom_bond_site_symmetry_2
_ccdc_geom_bond_type
Co0 O1 2.216 1_455 S
Co0 O2 2.091 1_455 S
Co0 O4 2.004 . S
Co0 O10 2.021 1_455 S
Co0 O12 2.137 . S
Co0 O13 2.244 . S
O1 Co0 2.216 1_655 S
O1 C8 1.247 . S
O2 Co0 2.091 1_655 S
O2 C8 1.261 . S
C3 O12 1.247 . S
C3 O13 1.272 . S
O4 Co0 2.004 . S
O4 C9 1.259 . S
Co5 O6 2.061 . S
Co5 O11 2.052 1_455 S
Co5 O13 2.135 . S
O6 Co5 2.061 . S
O6 C9 1.235 . S
C7 O10 1.238 . S
C7 O11 1.241 . S
C8 O1 1.247 . S
C8 O2 1.261 . S
C9 O4 1.259 . S
C9 O6 1.235 . S
O10 Co0 2.021 1_655 S
O10 C7 1.238 . S
O11 Co5 2.052 1_655 S
O11 C7 1.241 . S
O12 Co0 2.137 . S
O12 C3 1.247 . S
O13 Co0 2.244 . S
O13 C3 1.272 . S
O13 Co5 2.135 . S
Co14 O15 2.216 . S
Co14 O16 2.091 . S
Co14 O18 2.004 . S
Co14 O24 2.021 . S
Co14 O26 2.137 . S
Co14 O27 2.244 . S
O15 Co14 2.216 . S
O15 C22 1.247 . S
O16 Co14 2.091 . S
O16 C22 1.261 . S
C17 O26 1.247 . S
C17 O27 1.272 . S
O18 Co14 2.004 . S
O18 C23 1.259 . S
Co19 O20 2.061 . S
Co19 O25 2.052 . S
Co19 O27 2.135 . S
O20 Co19 2.061 . S
O20 C23 1.235 . S
C21 O24 1.238 . S
C21 O25 1.241 . S
C22 O15 1.247 . S
C22 O16 1.261 . S
C23 O18 1.259 . S
C23 O20 1.235 . S
O24 Co14 2.021 . S
O24 C21 1.238 . S
O25 Co19 2.052 . S
O25 C21 1.241 . S
O26 Co14 2.137 . S
O26 C17 1.247 . S
O27 Co14 2.244 . S
O27 C17 1.272 . S
O27 Co19 2.135 . S
Co28 O29 2.216 . S
Co28 O30 2.091 . S
Co28 O32 2.004 . S
Co28 O38 2.021 . S
Co28 O40 2.137 . S
Co28 O41 2.244 . S
O29 Co28 2.216 . S
O29 C36 1.247 . S
O30 Co28 2.091 . S
O30 C36 1.261 . S
C31 O40 1.247 . S
C31 O41 1.272 . S
O32 Co28 2.004 . S
O32 C37 1.259 . S
Co33 O34 2.061 . S
Co33 O39 2.052 . S
Co33 O41 2.135 . S
O34 Co33 2.061 . S
O34 C37 1.235 . S
C35 O38 1.238 . S
C35 O39 1.241 . S
C36 O29 1.247 . S
C36 O30 1.261 . S
C37 O32 1.259 . S
C37 O34 1.235 . S
O38 Co28 2.021 . S
O38 C35 1.238 . S
O39 Co33 2.052 . S
O39 C35 1.241 . S
O40 Co28 2.137 . S
O40 C31 1.247 . S
O41 Co28 2.244 . S
O41 C31 1.272 . S
O41 Co33 2.135 . S
Co42 O43 2.216 . S
Co42 O44 2.091 . S
Co42 O46 2.004 . S
Co42 O52 2.021 . S
Co42 O54 2.137 . S
Co42 O55 2.244 . S
O43 Co42 2.216 . S
O43 C50 1.247 . S
O44 Co42 2.091 . S
O44 C50 1.261 . S
C45 O54 1.247 . S
C45 O55 1.272 . S
O46 Co42 2.004 . S
O46 C51 1.259 . S
Co47 O48 2.061 . S
Co47 O53 2.052 . S
Co47 O55 2.135 . S
O48 Co47 2.061 . S
O48 C51 1.235 . S
C49 O52 1.238 . S
C49 O53 1.241 . S
C50 O43 1.247 . S
C50 O44 1.261 . S
C51 O46 1.259 . S
C51 O48 1.235 . S
O52 Co42 2.021 . S
O52 C49 1.238 . S
O53 Co47 2.052 . S
O53 C49 1.241 . S
O54 Co42 2.137 . S
O54 C45 1.247 . S
O55 Co42 2.244 . S
O55 C45 1.272 . S
O55 Co47 2.135 . S
Co56 O57 2.216 1_455 S
Co56 O58 2.091 1_455 S
Co56 O60 2.004 . S
Co56 O66 2.021 1_455 S
Co56 O68 2.137 . S
Co56 O69 2.244 . S
O57 Co56 2.216 1_655 S
O57 C64 1.247 . S
O58 Co56 2.091 1_655 S
O58 C64 1.261 . S
C59 O68 1.247 . S
C59 O69 1.272 . S
O60 Co56 2.004 . S
O60 C65 1.259 . S
Co61 O62 2.061 . S
Co61 O67 2.052 1_455 S
Co61 O69 2.135 . S
O62 Co61 2.061 . S
O62 C65 1.235 . S
C63 O66 1.238 . S
C63 O67 1.241 . S
C64 O57 1.247 . S
C64 O58 1.261 . S
C65 O60 1.259 . S
C65 O62 1.235 . S
O66 Co56 2.021 1_655 S
O66 C63 1.238 . S
O67 Co61 2.052 1_655 S
O67 C63 1.241 . S
O68 Co56 2.137 . S
O68 C59 1.247 . S
O69 Co56 2.244 . S
O69 C59 1.272 . S
O69 Co61 2.135 . S
Co70 O71 2.216 . S
Co70 O72 2.091 . S
Co70 O74 2.004 . S
Co70 O80 2.021 . S
Co70 O82 2.137 . S
Co70 O83 2.244 . S
O71 Co70 2.216 . S
O71 C78 1.247 . S
O72 Co70 2.091 . S
O72 C78 1.261 . S
C73 O82 1.247 . S
C73 O83 1.272 . S
O74 Co70 2.004 . S
O74 C79 1.259 . S
Co75 O76 2.061 . S
Co75 O81 2.052 . S
Co75 O83 2.135 . S
O76 Co75 2.061 . S
O76 C79 1.235 . S
C77 O80 1.238 . S
C77 O81 1.241 . S
C78 O71 1.247 . S
C78 O72 1.261 . S
C79 O74 1.259 . S
C79 O76 1.235 . S
O80 Co70 2.021 . S
O80 C77 1.238 . S
O81 Co75 2.052 . S
O81 C77 1.241 . S
O82 Co70 2.137 . S
O82 C73 1.247 . S
O83 Co70 2.244 . S
O83 C73 1.272 . S
O83 Co75 2.135 . S
Co84 O85 2.216 . S
Co84 O86 2.091 . S
Co84 O88 2.004 . S
Co84 O94 2.021 . S
Co84 O96 2.137 . S
Co84 O97 2.244 . S
O85 Co84 2.216 . S
O85 C92 1.247 . S
O86 Co84 2.091 . S
O86 C92 1.261 . S
C87 O96 1.247 . S
C87 O97 1.272 . S
O88 Co84 2.004 . S
O88 C93 1.259 . S
Co89 O90 2.061 . S
Co89 O95 2.052 . S
Co89 O97 2.135 . S
O90 Co89 2.061 . S
O90 C93 1.235 . S
C91 O94 1.238 . S
C91 O95 1.241 . S
C92 O85 1.247 . S
C92 O86 1.261 . S
C93 O88 1.259 . S
C93 O90 1.235 . S
O94 Co84 2.021 . S
O94 C91 1.238 . S
O95 Co89 2.052 . S
O95 C91 1.241 . S
O96 Co84 2.137 . S
O96 C87 1.247 . S
O97 Co84 2.244 . S
O97 C87 1.272 . S
O97 Co89 2.135 . S
Co98 O99 2.216 . S
Co98 O100 2.091 . S
Co98 O102 2.004 . S
Co98 O108 2.021 . S
Co98 O110 2.137 . S
Co98 O111 2.244 . S
O99 Co98 2.216 . S
O99 C106 1.247 . S
O100 Co98 2.091 . S
O100 C106 1.261 . S
C101 O110 1.247 . S
C101 O111 1.272 . S
O102 Co98 2.004 . S
O102 C107 1.259 . S
Co103 O104 2.061 . S
Co103 O109 2.052 . S
Co103 O111 2.135 . S
O104 Co103 2.061 . S
O104 C107 1.235 . S
C105 O108 1.238 . S
C105 O109 1.241 . S
C106 O99 1.247 . S
C106 O100 1.261 . S
C107 O102 1.259 . S
C107 O104 1.235 . S
O108 Co98 2.021 . S
O108 C105 1.238 . S
O109 Co103 2.052 . S
O109 C105 1.241 . S
O110 Co98 2.137 . S
O110 C101 1.247 . S
O111 Co98 2.244 . S
O111 C101 1.272 . S
O111 Co103 2.135 . S
Co112 O113 2.216 . S
Co112 O114 2.091 . S
Co112 O116 2.004 1_545 S
Co112 O122 2.021 . S
Co112 O124 2.137 1_545 S
Co112 O125 2.244 1_545 S
O113 Co112 2.216 . S
O113 C120 1.247 . S
O114 Co112 2.091 . S
O114 C120 1.261 . S
C115 O124 1.247 . S
C115 O125 1.272 . S
O116 Co112 2.004 1_565 S
O116 C121 1.259 . S
Co117 O118 2.061 . S
Co117 O123 2.052 1_565 S
Co117 O125 2.135 . S
O118 Co117 2.061 . S
O118 C121 1.235 . S
C119 O122 1.238 . S
C119 O123 1.241 . S
C120 O113 1.247 . S
C120 O114 1.261 . S
C121 O116 1.259 . S
C121 O118 1.235 . S
O122 Co112 2.021 . S
O122 C119 1.238 . S
O123 Co117 2.052 1_545 S
O123 C119 1.241 . S
O124 Co112 2.137 1_565 S
O124 C115 1.247 . S
O125 Co112 2.244 1_565 S
O125 C115 1.272 . S
O125 Co117 2.135 . S
Co126 O127 2.216 . S
Co126 O128 2.091 . S
Co126 O130 2.004 . S
Co126 O136 2.021 . S
Co126 O138 2.137 . S
Co126 O139 2.244 . S
O127 Co126 2.216 . S
O127 C134 1.247 . S
O128 Co126 2.091 . S
O128 C134 1.261 . S
C129 O138 1.247 . S
C129 O139 1.272 . S
O130 Co126 2.004 . S
O130 C135 1.259 . S
Co131 O132 2.061 . S
Co131 O137 2.052 . S
Co131 O139 2.135 . S
O132 Co131 2.061 . S
O132 C135 1.235 . S
C133 O136 1.238 . S
C133 O137 1.241 . S
C134 O127 1.247 . S
C134 O128 1.261 . S
C135 O130 1.259 . S
C135 O132 1.235 . S
O136 Co126 2.021 . S
O136 C133 1.238 . S
O137 Co131 2.052 . S
O137 C133 1.241 . S
O138 Co126 2.137 . S
O138 C129 1.247 . S
O139 Co126 2.244 . S
O139 C129 1.272 . S
O139 Co131 2.135 . S
Co140 O141 2.216 . S
Co140 O142 2.091 . S
Co140 O144 2.004 1_565 S
Co140 O150 2.021 . S
Co140 O152 2.137 1_565 S
Co140 O153 2.244 1_565 S
O141 Co140 2.216 . S
O141 C148 1.247 . S
O142 Co140 2.091 . S
O142 C148 1.261 . S
C143 O152 1.247 . S
C143 O153 1.272 . S
O144 Co140 2.004 1_545 S
O144 C149 1.259 . S
Co145 O146 2.061 . S
Co145 O151 2.052 1_545 S
Co145 O153 2.135 . S
O146 Co145 2.061 . S
O146 C149 1.235 . S
C147 O150 1.238 . S
C147 O151 1.241 . S
C148 O141 1.247 . S
C148 O142 1.261 . S
C149 O144 1.259 . S
C149 O146 1.235 . S
O150 Co140 2.021 . S
O150 C147 1.238 . S
O151 Co145 2.052 1_565 S
O151 C147 1.241 . S
O152 Co140 2.137 1_545 S
O152 C143 1.247 . S
O153 Co140 2.244 1_545 S
O153 C143 1.272 . S
O153 Co145 2.135 . S
Co154 O155 2.216 . S
Co154 O156 2.091 . S
Co154 O158 2.004 . S
Co154 O164 2.021 . S
Co154 O166 2.137 . S
Co154 O167 2.244 . S
O155 Co154 2.216 . S
O155 C162 1.247 . S
O156 Co154 2.091 . S
O156 C162 1.261 . S
C157 O166 1.247 . S
C157 O167 1.272 . S
O158 Co154 2.004 . S
O158 C163 1.259 . S
Co159 O160 2.061 . S
Co159 O165 2.052 . S
Co159 O167 2.135 . S
O160 Co159 2.061 . S
O160 C163 1.235 . S
C161 O164 1.238 . S
C161 O165 1.241 . S
C162 O155 1.247 . S
C162 O156 1.261 . S
C163 O158 1.259 . S
C163 O160 1.235 . S
O164 Co154 2.021 . S
O164 C161 1.238 . S
O165 Co159 2.052 . S
O165 C161 1.241 . S
O166 Co154 2.137 . S
O166 C157 1.247 . S
O167 Co154 2.244 . S
O167 C157 1.272 . S
O167 Co159 2.135 . S
Co168 O169 2.216 . S
Co168 O170 2.091 . S
Co168 O172 2.004 1_565 S
Co168 O178 2.021 . S
Co168 O180 2.137 1_565 S
Co168 O181 2.244 1_565 S
O169 Co168 2.216 . S
O169 C176 1.247 . S
O170 Co168 2.091 . S
O170 C176 1.261 . S
C171 O180 1.247 . S
C171 O181 1.272 . S
O172 Co168 2.004 1_545 S
O172 C177 1.259 . S
Co173 O174 2.061 . S
Co173 O179 2.052 1_545 S
Co173 O181 2.135 . S
O174 Co173 2.061 . S
O174 C177 1.235 . S
C175 O178 1.238 . S
C175 O179 1.241 . S
C176 O169 1.247 . S
C176 O170 1.261 . S
C177 O172 1.259 . S
C177 O174 1.235 . S
O178 Co168 2.021 . S
O178 C175 1.238 . S
O179 Co173 2.052 1_565 S
O179 C175 1.241 . S
O180 Co168 2.137 1_545 S
O180 C171 1.247 . S
O181 Co168 2.244 1_545 S
O181 C171 1.272 . S
O181 Co173 2.135 . S
Co182 O183 2.216 . S
Co182 O184 2.091 . S
Co182 O186 2.004 . S
Co182 O192 2.021 . S
Co182 O194 2.137 . S
Co182 O195 2.244 . S
O183 Co182 2.216 . S
O183 C190 1.247 . S
O184 Co182 2.091 . S
O184 C190 1.261 . S
C185 O194 1.247 . S
C185 O195 1.272 . S
O186 Co182 2.004 . S
O186 C191 1.259 . S
Co187 O188 2.061 . S
Co187 O193 2.052 . S
Co187 O195 2.135 . S
O188 Co187 2.061 . S
O188 C191 1.235 . S
C189 O192 1.238 . S
C189 O193 1.241 . S
C190 O183 1.247 . S
C190 O184 1.261 . S
C191 O186 1.259 . S
C191 O188 1.235 . S
O192 Co182 2.021 . S
O192 C189 1.238 . S
O193 Co187 2.052 . S
O193 C189 1.241 . S
O194 Co182 2.137 . S
O194 C185 1.247 . S
O195 Co182 2.244 . S
O195 C185 1.272 . S
O195 Co187 2.135 . S
Co196 O197 2.216 . S
Co196 O198 2.091 . S
Co196 O200 2.004 1_545 S
Co196 O206 2.021 . S
Co196 O208 2.137 1_545 S
Co196 O209 2.244 1_545 S
O197 Co196 2.216 . S
O197 C204 1.247 . S
O198 Co196 2.091 . S
O198 C204 1.261 . S
C199 O208 1.247 . S
C199 O209 1.272 . S
O200 Co196 2.004 1_565 S
O200 C205 1.259 . S
Co201 O202 2.061 . S
Co201 O207 2.052 1_565 S
Co201 O209 2.135 . S
O202 Co201 2.061 . S
O202 C205 1.235 . S
C203 O206 1.238 . S
C203 O207 1.241 . S
C204 O197 1.247 . S
C204 O198 1.261 . S
C205 O200 1.259 . S
C205 O202 1.235 . S
O206 Co196 2.021 . S
O206 C203 1.238 . S
O207 Co201 2.052 1_545 S
O207 C203 1.241 . S
O208 Co196 2.137 1_565 S
O208 C199 1.247 . S
O209 Co196 2.244 1_565 S
O209 C199 1.272 . S
O209 Co201 2.135 . S
Co210 O211 2.216 . S
Co210 O212 2.091 . S
Co210 O214 2.004 . S
Co210 O220 2.021 . S
Co210 O222 2.137 . S
Co210 O223 2.244 . S
O211 Co210 2.216 . S
O211 C218 1.247 . S
O212 Co210 2.091 . S
O212 C218 1.261 . S
C213 O222 1.247 . S
C213 O223 1.272 . S
O214 Co210 2.004 . S
O214 C219 1.259 . S
Co215 O216 2.061 . S
Co215 O221 2.052 . S
Co215 O223 2.135 . S
O216 Co215 2.061 . S
O216 C219 1.235 . S
C217 O220 1.238 . S
C217 O221 1.241 . S
C218 O211 1.247 . S
C218 O212 1.261 . S
C219 O214 1.259 . S
C219 O216 1.235 . S
O220 Co210 2.021 . S
O220 C217 1.238 . S
O221 Co215 2.052 . S
O221 C217 1.241 . S
O222 Co210 2.137 . S
O222 C213 1.247 . S
O223 Co210 2.244 . S
O223 C213 1.272 . S
O223 Co215 2.135 . S
Co224 O225 2.216 1_554 S
Co224 O226 2.091 1_554 S
Co224 O228 2.004 . S
Co224 O234 2.021 1_554 S
Co224 O236 2.137 . S
Co224 O237 2.244 . S
O225 Co224 2.216 1_556 S
O225 C232 1.247 . S
O226 Co224 2.091 1_556 S
O226 C232 1.261 . S
C227 O236 1.247 . S
C227 O237 1.272 . S
O228 Co224 2.004 . S
O228 C233 1.259 . S
Co229 O230 2.061 . S
Co229 O235 2.052 1_554 S
Co229 O237 2.135 . S
O230 Co229 2.061 . S
O230 C233 1.235 . S
C231 O234 1.238 . S
C231 O235 1.241 . S
C232 O225 1.247 . S
C232 O226 1.261 . S
C233 O228 1.259 . S
C233 O230 1.235 . S
O234 Co224 2.021 1_556 S
O234 C231 1.238 . S
O235 Co229 2.052 1_556 S
O235 C231 1.241 . S
O236 Co224 2.137 . S
O236 C227 1.247 . S
O237 Co224 2.244 . S
O237 C227 1.272 . S
O237 Co229 2.135 . S
Co238 O239 2.216 1_556 S
Co238 O240 2.091 1_556 S
Co238 O242 2.004 . S
Co238 O248 2.021 1_556 S
Co238 O250 2.137 . S
Co238 O251 2.244 . S
O239 Co238 2.216 1_554 S
O239 C246 1.247 . S
O240 Co238 2.091 1_554 S
O240 C246 1.261 . S
C241 O250 1.247 . S
C241 O251 1.272 . S
O242 Co238 2.004 . S
O242 C247 1.259 . S
Co243 O244 2.061 . S
Co243 O249 2.052 1_556 S
Co243 O251 2.135 . S
O244 Co243 2.061 . S
O244 C247 1.235 . S
C245 O248 1.238 . S
C245 O249 1.241 . S
C246 O239 1.247 . S
C246 O240 1.261 . S
C247 O242 1.259 . S
C247 O244 1.235 . S
O248 Co238 2.021 1_554 S
O248 C245 1.238 . S
O249 Co243 2.052 1_554 S
O249 C245 1.241 . S
O250 Co238 2.137 . S
O250 C241 1.247 . S
O251 Co238 2.244 . S
O251 C241 1.272 . S
O251 Co243 2.135 . S
Co252 O253 2.216 . S
Co252 O254 2.091 . S
Co252 O256 2.004 . S
Co252 O262 2.021 . S
Co252 O264 2.137 . S
Co252 O265 2.244 . S
O253 Co252 2.216 . S
O253 C260 1.247 . S
O254 Co252 2.091 . S
O254 C260 1.261 . S
C255 O264 1.247 . S
C255 O265 1.272 . S
O256 Co252 2.004 . S
O256 C261 1.259 . S
Co257 O258 2.061 . S
Co257 O263 2.052 . S
Co257 O265 2.135 . S
O258 Co257 2.061 . S
O258 C261 1.235 . S
C259 O262 1.238 . S
C259 O263 1.241 . S
C260 O253 1.247 . S
C260 O254 1.261 . S
C261 O256 1.259 . S
C261 O258 1.235 . S
O262 Co252 2.021 . S
O262 C259 1.238 . S
O263 Co257 2.052 . S
O263 C259 1.241 . S
O264 Co252 2.137 . S
O264 C255 1.247 . S
O265 Co252 2.244 . S
O265 C255 1.272 . S
O265 Co257 2.135 . S
Co266 O267 2.216 . S
Co266 O268 2.091 . S
Co266 O270 2.004 . S
Co266 O276 2.021 . S
Co266 O278 2.137 . S
Co266 O279 2.244 . S
O267 Co266 2.216 . S
O267 C274 1.247 . S
O268 Co266 2.091 . S
O268 C274 1.261 . S
C269 O278 1.247 . S
C269 O279 1.272 . S
O270 Co266 2.004 . S
O270 C275 1.259 . S
Co271 O272 2.061 . S
Co271 O277 2.052 . S
Co271 O279 2.135 . S
O272 Co271 2.061 . S
O272 C275 1.235 . S
C273 O276 1.238 . S
C273 O277 1.241 . S
C274 O267 1.247 . S
C274 O268 1.261 . S
C275 O270 1.259 . S
C275 O272 1.235 . S
O276 Co266 2.021 . S
O276 C273 1.238 . S
O277 Co271 2.052 . S
O277 C273 1.241 . S
O278 Co266 2.137 . S
O278 C269 1.247 . S
O279 Co266 2.244 . S
O279 C269 1.272 . S
O279 Co271 2.135 . S
Co280 O281 2.216 . S
Co280 O282 2.091 . S
Co280 O284 2.004 . S
Co280 O290 2.021 . S
Co280 O292 2.137 . S
Co280 O293 2.244 . S
O281 Co280 2.216 . S
O281 C288 1.247 . S
O282 Co280 2.091 . S
O282 C288 1.261 . S
C283 O292 1.247 . S
C283 O293 1.272 . S
O284 Co280 2.004 . S
O284 C289 1.259 . S
Co285 O286 2.061 . S
Co285 O291 2.052 . S
Co285 O293 2.135 . S
O286 Co285 2.061 . S
O286 C289 1.235 . S
C287 O290 1.238 . S
C287 O291 1.241 . S
C288 O281 1.247 . S
C288 O282 1.261 . S
C289 O284 1.259 . S
C289 O286 1.235 . S
O290 Co280 2.021 . S
O290 C287 1.238 . S
O291 Co285 2.052 . S
O291 C287 1.241 . S
O292 Co280 2.137 . S
O292 C283 1.247 . S
O293 Co280 2.244 . S
O293 C283 1.272 . S
O293 Co285 2.135 . S
Co294 O295 2.216 . S
Co294 O296 2.091 . S
Co294 O298 2.004 . S
Co294 O304 2.021 . S
Co294 O306 2.137 . S
Co294 O307 2.244 . S
O295 Co294 2.216 . S
O295 C302 1.247 . S
O296 Co294 2.091 . S
O296 C302 1.261 . S
C297 O306 1.247 . S
C297 O307 1.272 . S
O298 Co294 2.004 . S
O298 C303 1.259 . S
Co299 O300 2.061 . S
Co299 O305 2.052 . S
Co299 O307 2.135 . S
O300 Co299 2.061 . S
O300 C303 1.235 . S
C301 O304 1.238 . S
C301 O305 1.241 . S
C302 O295 1.247 . S
C302 O296 1.261 . S
C303 O298 1.259 . S
C303 O300 1.235 . S
O304 Co294 2.021 . S
O304 C301 1.238 . S
O305 Co299 2.052 . S
O305 C301 1.241 . S
O306 Co294 2.137 . S
O306 C297 1.247 . S
O307 Co294 2.244 . S
O307 C297 1.272 . S
O307 Co299 2.135 . S
Co308 O309 2.216 . S
Co308 O310 2.091 . S
Co308 O312 2.004 . S
Co308 O318 2.021 . S
Co308 O320 2.137 . S
Co308 O321 2.244 . S
O309 Co308 2.216 . S
O309 C316 1.247 . S
O310 Co308 2.091 . S
O310 C316 1.261 . S
C311 O320 1.247 . S
C311 O321 1.272 . S
O312 Co308 2.004 . S
O312 C317 1.259 . S
Co313 O314 2.061 . S
Co313 O319 2.052 . S
Co313 O321 2.135 . S
O314 Co313 2.061 . S
O314 C317 1.235 . S
C315 O318 1.238 . S
C315 O319 1.241 . S
C316 O309 1.247 . S
C316 O310 1.261 . S
C317 O312 1.259 . S
C317 O314 1.235 . S
O318 Co308 2.021 . S
O318 C315 1.238 . S
O319 Co313 2.052 . S
O319 C315 1.241 . S
O320 Co308 2.137 . S
O320 C311 1.247 . S
O321 Co308 2.244 . S
O321 C311 1.272 . S
O321 Co313 2.135 . S
Co322 O323 2.216 . S
Co322 O324 2.091 . S
Co322 O326 2.004 . S
Co322 O332 2.021 . S
Co322 O334 2.137 . S
Co322 O335 2.244 . S
O323 Co322 2.216 . S
O323 C330 1.247 . S
O324 Co322 2.091 . S
O324 C330 1.261 . S
C325 O334 1.247 . S
C325 O335 1.272 . S
O326 Co322 2.004 . S
O326 C331 1.259 . S
Co327 O328 2.061 . S
Co327 O333 2.052 . S
Co327 O335 2.135 . S
O328 Co327 2.061 . S
O328 C331 1.235 . S
C329 O332 1.238 . S
C329 O333 1.241 . S
C330 O323 1.247 . S
C330 O324 1.261 . S
C331 O326 1.259 . S
C331 O328 1.235 . S
O332 Co322 2.021 . S
O332 C329 1.238 . S
O333 Co327 2.052 . S
O333 C329 1.241 . S
O334 Co322 2.137 . S
O334 C325 1.247 . S
O335 Co322 2.244 . S
O335 C325 1.272 . S
O335 Co327 2.135 . S
Co336 O337 2.216 1_655 S
Co336 O338 2.091 1_655 S
Co336 O340 2.004 . S
Co336 O346 2.021 1_655 S
Co336 O348 2.137 . S
Co336 O349 2.244 . S
O337 Co336 2.216 1_455 S
O337 C344 1.247 . S
O338 Co336 2.091 1_455 S
O338 C344 1.261 . S
C339 O348 1.247 . S
C339 O349 1.272 . S
O340 Co336 2.004 . S
O340 C345 1.259 . S
Co341 O342 2.061 . S
Co341 O347 2.052 1_655 S
Co341 O349 2.135 . S
O342 Co341 2.061 . S
O342 C345 1.235 . S
C343 O346 1.238 . S
C343 O347 1.241 . S
C344 O337 1.247 . S
C344 O338 1.261 . S
C345 O340 1.259 . S
C345 O342 1.235 . S
O346 Co336 2.021 1_455 S
O346 C343 1.238 . S
O347 Co341 2.052 1_455 S
O347 C343 1.241 . S
O348 Co336 2.137 . S
O348 C339 1.247 . S
O349 Co336 2.244 . S
O349 C339 1.272 . S
O349 Co341 2.135 . S
Co350 O351 2.216 . S
Co350 O352 2.091 . S
Co350 O354 2.004 . S
Co350 O360 2.021 . S
Co350 O362 2.137 . S
Co350 O363 2.244 . S
O351 Co350 2.216 . S
O351 C358 1.247 . S
O352 Co350 2.091 . S
O352 C358 1.261 . S
C353 O362 1.247 . S
C353 O363 1.272 . S
O354 Co350 2.004 . S
O354 C359 1.259 . S
Co355 O356 2.061 . S
Co355 O361 2.052 . S
Co355 O363 2.135 . S
O356 Co355 2.061 . S
O356 C359 1.235 . S
C357 O360 1.238 . S
C357 O361 1.241 . S
C358 O351 1.247 . S
C358 O352 1.261 . S
C359 O354 1.259 . S
C359 O356 1.235 . S
O360 Co350 2.021 . S
O360 C357 1.238 . S
O361 Co355 2.052 . S
O361 C357 1.241 . S
O362 Co350 2.137 . S
O362 C353 1.247 . S
O363 Co350 2.244 . S
O363 C353 1.272 . S
O363 Co355 2.135 . S
Co364 O365 2.216 . S
Co364 O366 2.091 . S
Co364 O368 2.004 . S
Co364 O374 2.021 . S
Co364 O376 2.137 . S
Co364 O377 2.244 . S
O365 Co364 2.216 . S
O365 C372 1.247 . S
O366 Co364 2.091 . S
O366 C372 1.261 . S
C367 O376 1.247 . S
C367 O377 1.272 . S
O368 Co364 2.004 . S
O368 C373 1.259 . S
Co369 O370 2.061 . S
Co369 O375 2.052 . S
Co369 O377 2.135 . S
O370 Co369 2.061 . S
O370 C373 1.235 . S
C371 O374 1.238 . S
C371 O375 1.241 . S
C372 O365 1.247 . S
C372 O366 1.261 . S
C373 O368 1.259 . S
C373 O370 1.235 . S
O374 Co364 2.021 . S
O374 C371 1.238 . S
O375 Co369 2.052 . S
O375 C371 1.241 . S
O376 Co364 2.137 . S
O376 C367 1.247 . S
O377 Co364 2.244 . S
O377 C367 1.272 . S
O377 Co369 2.135 . S
Co378 O379 2.216 . S
Co378 O380 2.091 . S
Co378 O382 2.004 . S
Co378 O388 2.021 . S
Co378 O390 2.137 . S
Co378 O391 2.244 . S
O379 Co378 2.216 . S
O379 C386 1.247 . S
O380 Co378 2.091 . S
O380 C386 1.261 . S
C381 O390 1.247 . S
C381 O391 1.272 . S
O382 Co378 2.004 . S
O382 C387 1.259 . S
Co383 O384 2.061 . S
Co383 O389 2.052 . S
Co383 O391 2.135 . S
O384 Co383 2.061 . S
O384 C387 1.235 . S
C385 O388 1.238 . S
C385 O389 1.241 . S
C386 O379 1.247 . S
C386 O380 1.261 . S
C387 O382 1.259 . S
C387 O384 1.235 . S
O388 Co378 2.021 . S
O388 C385 1.238 . S
O389 Co383 2.052 . S
O389 C385 1.241 . S
O390 Co378 2.137 . S
O390 C381 1.247 . S
O391 Co378 2.244 . S
O391 C381 1.272 . S
O391 Co383 2.135 . S
Co392 O393 2.216 1_655 S
Co392 O394 2.091 1_655 S
Co392 O396 2.004 . S
Co392 O402 2.021 1_655 S
Co392 O404 2.137 . S
Co392 O405 2.244 . S
O393 Co392 2.216 1_455 S
O393 C400 1.247 . S
O394 Co392 2.091 1_455 S
O394 C400 1.261 . S
C395 O404 1.247 . S
C395 O405 1.272 . S
O396 Co392 2.004 . S
O396 C401 1.259 . S
Co397 O398 2.061 . S
Co397 O403 2.052 1_655 S
Co397 O405 2.135 . S
O398 Co397 2.061 . S
O398 C401 1.235 . S
C399 O402 1.238 . S
C399 O403 1.241 . S
C400 O393 1.247 . S
C400 O394 1.261 . S
C401 O396 1.259 . S
C401 O398 1.235 . S
O402 Co392 2.021 1_455 S
O402 C399 1.238 . S
O403 Co397 2.052 1_455 S
O403 C399 1.241 . S
O404 Co392 2.137 . S
O404 C395 1.247 . S
O405 Co392 2.244 . S
O405 C395 1.272 . S
O405 Co397 2.135 . S
Co406 O407 2.216 . S
Co406 O408 2.091 . S
Co406 O410 2.004 . S
Co406 O416 2.021 . S
Co406 O418 2.137 . S
Co406 O419 2.244 . S
O407 Co406 2.216 . S
O407 C414 1.247 . S
O408 Co406 2.091 . S
O408 C414 1.261 . S
C409 O418 1.247 . S
C409 O419 1.272 . S
O410 Co406 2.004 . S
O410 C415 1.259 . S
Co411 O412 2.061 . S
Co411 O417 2.052 . S
Co411 O419 2.135 . S
O412 Co411 2.061 . S
O412 C415 1.235 . S
C413 O416 1.238 . S
C413 O417 1.241 . S
C414 O407 1.247 . S
C414 O408 1.261 . S
C415 O410 1.259 . S
C415 O412 1.235 . S
O416 Co406 2.021 . S
O416 C413 1.238 . S
O417 Co411 2.052 . S
O417 C413 1.241 . S
O418 Co406 2.137 . S
O418 C409 1.247 . S
O419 Co406 2.244 . S
O419 C409 1.272 . S
O419 Co411 2.135 . S
Co420 O421 2.216 . S
Co420 O422 2.091 . S
Co420 O424 2.004 . S
Co420 O430 2.021 . S
Co420 O432 2.137 . S
Co420 O433 2.244 . S
O421 Co420 2.216 . S
O421 C428 1.247 . S
O422 Co420 2.091 . S
O422 C428 1.261 . S
C423 O432 1.247 . S
C423 O433 1.272 . S
O424 Co420 2.004 . S
O424 C429 1.259 . S
Co425 O426 2.061 . S
Co425 O431 2.052 . S
Co425 O433 2.135 . S
O426 Co425 2.061 . S
O426 C429 1.235 . S
C427 O430 1.238 . S
C427 O431 1.241 . S
C428 O421 1.247 . S
C428 O422 1.261 . S
C429 O424 1.259 . S
C429 O426 1.235 . S
O430 Co420 2.021 . S
O430 C427 1.238 . S
O431 Co425 2.052 . S
O431 C427 1.241 . S
O432 Co420 2.137 . S
O432 C423 1.247 . S
O433 Co420 2.244 . S
O433 C423 1.272 . S
O433 Co425 2.135 . S
Co434 O435 2.216 . S
Co434 O436 2.091 . S
Co434 O438 2.004 . S
Co434 O444 2.021 . S
Co434 O446 2.137 . S
Co434 O447 2.244 . S
O435 Co434 2.216 . S
O435 C442 1.247 . S
O436 Co434 2.091 . S
O436 C442 1.261 . S
C437 O446 1.247 . S
C437 O447 1.272 . S
O438 Co434 2.004 . S
O438 C443 1.259 . S
Co439 O440 2.061 . S
Co439 O445 2.052 . S
Co439 O447 2.135 . S
O440 Co439 2.061 . S
O440 C443 1.235 . S
C441 O444 1.238 . S
C441 O445 1.241 . S
C442 O435 1.247 . S
C442 O436 1.261 . S
C443 O438 1.259 . S
C443 O440 1.235 . S
O444 Co434 2.021 . S
O444 C441 1.238 . S
O445 Co439 2.052 . S
O445 C441 1.241 . S
O446 Co434 2.137 . S
O446 C437 1.247 . S
O447 Co434 2.244 . S
O447 C437 1.272 . S
O447 Co439 2.135 . S
Co448 O449 2.216 1_565 S
Co448 O450 2.091 1_565 S
Co448 O452 2.004 . S
Co448 O458 2.021 1_565 S
Co448 O460 2.137 . S
Co448 O461 2.244 . S
O449 Co448 2.216 1_545 S
O449 C456 1.247 . S
O450 Co448 2.091 1_545 S
O450 C456 1.261 . S
C451 O460 1.247 . S
C451 O461 1.272 . S
O452 Co448 2.004 . S
O452 C457 1.259 . S
Co453 O454 2.061 . S
Co453 O459 2.052 1_565 S
Co453 O461 2.135 . S
O454 Co453 2.061 . S
O454 C457 1.235 . S
C455 O458 1.238 . S
C455 O459 1.241 . S
C456 O449 1.247 . S
C456 O450 1.261 . S
C457 O452 1.259 . S
C457 O454 1.235 . S
O458 Co448 2.021 1_545 S
O458 C455 1.238 . S
O459 Co453 2.052 1_545 S
O459 C455 1.241 . S
O460 Co448 2.137 . S
O460 C451 1.247 . S
O461 Co448 2.244 . S
O461 C451 1.272 . S
O461 Co453 2.135 . S
Co462 O463 2.216 . S
Co462 O464 2.091 . S
Co462 O466 2.004 . S
Co462 O472 2.021 . S
Co462 O474 2.137 . S
Co462 O475 2.244 . S
O463 Co462 2.216 . S
O463 C470 1.247 . S
O464 Co462 2.091 . S
O464 C470 1.261 . S
C465 O474 1.247 . S
C465 O475 1.272 . S
O466 Co462 2.004 . S
O466 C471 1.259 . S
Co467 O468 2.061 . S
Co467 O473 2.052 . S
Co467 O475 2.135 . S
O468 Co467 2.061 . S
O468 C471 1.235 . S
C469 O472 1.238 . S
C469 O473 1.241 . S
C470 O463 1.247 . S
C470 O464 1.261 . S
C471 O466 1.259 . S
C471 O468 1.235 . S
O472 Co462 2.021 . S
O472 C469 1.238 . S
O473 Co467 2.052 . S
O473 C469 1.241 . S
O474 Co462 2.137 . S
O474 C465 1.247 . S
O475 Co462 2.244 . S
O475 C465 1.272 . S
O475 Co467 2.135 . S
Co476 O477 2.216 1_545 S
Co476 O478 2.091 1_545 S
Co476 O480 2.004 . S
Co476 O486 2.021 1_545 S
Co476 O488 2.137 . S
Co476 O489 2.244 . S
O477 Co476 2.216 1_565 S
O477 C484 1.247 . S
O478 Co476 2.091 1_565 S
O478 C484 1.261 . S
C479 O488 1.247 . S
C479 O489 1.272 . S
O480 Co476 2.004 . S
O480 C485 1.259 . S
Co481 O482 2.061 . S
Co481 O487 2.052 1_545 S
Co481 O489 2.135 . S
O482 Co481 2.061 . S
O482 C485 1.235 . S
C483 O486 1.238 . S
C483 O487 1.241 . S
C484 O477 1.247 . S
C484 O478 1.261 . S
C485 O480 1.259 . S
C485 O482 1.235 . S
O486 Co476 2.021 1_565 S
O486 C483 1.238 . S
O487 Co481 2.052 1_565 S
O487 C483 1.241 . S
O488 Co476 2.137 . S
O488 C479 1.247 . S
O489 Co476 2.244 . S
O489 C479 1.272 . S
O489 Co481 2.135 . S
Co490 O491 2.216 . S
Co490 O492 2.091 . S
Co490 O494 2.004 . S
Co490 O500 2.021 . S
Co490 O502 2.137 . S
Co490 O503 2.244 . S
O491 Co490 2.216 . S
O491 C498 1.247 . S
O492 Co490 2.091 . S
O492 C498 1.261 . S
C493 O502 1.247 . S
C493 O503 1.272 . S
O494 Co490 2.004 . S
O494 C499 1.259 . S
Co495 O496 2.061 . S
Co495 O501 2.052 . S
Co495 O503 2.135 . S
O496 Co495 2.061 . S
O496 C499 1.235 . S
C497 O500 1.238 . S
C497 O501 1.241 . S
C498 O491 1.247 . S
C498 O492 1.261 . S
C499 O494 1.259 . S
C499 O496 1.235 . S
O500 Co490 2.021 . S
O500 C497 1.238 . S
O501 Co495 2.052 . S
O501 C497 1.241 . S
O502 Co490 2.137 . S
O502 C493 1.247 . S
O503 Co490 2.244 . S
O503 C493 1.272 . S
O503 Co495 2.135 . S
Co504 O505 2.216 1_545 S
Co504 O506 2.091 1_545 S
Co504 O508 2.004 . S
Co504 O514 2.021 1_545 S
Co504 O516 2.137 . S
Co504 O517 2.244 . S
O505 Co504 2.216 1_565 S
O505 C512 1.247 . S
O506 Co504 2.091 1_565 S
O506 C512 1.261 . S
C507 O516 1.247 . S
C507 O517 1.272 . S
O508 Co504 2.004 . S
O508 C513 1.259 . S
Co509 O510 2.061 . S
Co509 O515 2.052 1_545 S
Co509 O517 2.135 . S
O510 Co509 2.061 . S
O510 C513 1.235 . S
C511 O514 1.238 . S
C511 O515 1.241 . S
C512 O505 1.247 . S
C512 O506 1.261 . S
C513 O508 1.259 . S
C513 O510 1.235 . S
O514 Co504 2.021 1_565 S
O514 C511 1.238 . S
O515 Co509 2.052 1_565 S
O515 C511 1.241 . S
O516 Co504 2.137 . S
O516 C507 1.247 . S
O517 Co504 2.244 . S
O517 C507 1.272 . S
O517 Co509 2.135 . S
Co518 O519 2.216 . S
Co518 O520 2.091 . S
Co518 O522 2.004 . S
Co518 O528 2.021 . S
Co518 O530 2.137 . S
Co518 O531 2.244 . S
O519 Co518 2.216 . S
O519 C526 1.247 . S
O520 Co518 2.091 . S
O520 C526 1.261 . S
C521 O530 1.247 . S
C521 O531 1.272 . S
O522 Co518 2.004 . S
O522 C527 1.259 . S
Co523 O524 2.061 . S
Co523 O529 2.052 . S
Co523 O531 2.135 . S
O524 Co523 2.061 . S
O524 C527 1.235 . S
C525 O528 1.238 . S
C525 O529 1.241 . S
C526 O519 1.247 . S
C526 O520 1.261 . S
C527 O522 1.259 . S
C527 O524 1.235 . S
O528 Co518 2.021 . S
O528 C525 1.238 . S
O529 Co523 2.052 . S
O529 C525 1.241 . S
O530 Co518 2.137 . S
O530 C521 1.247 . S
O531 Co518 2.244 . S
O531 C521 1.272 . S
O531 Co523 2.135 . S
Co532 O533 2.216 1_565 S
Co532 O534 2.091 1_565 S
Co532 O536 2.004 . S
Co532 O542 2.021 1_565 S
Co532 O544 2.137 . S
Co532 O545 2.244 . S
O533 Co532 2.216 1_545 S
O533 C540 1.247 . S
O534 Co532 2.091 1_545 S
O534 C540 1.261 . S
C535 O544 1.247 . S
C535 O545 1.272 . S
O536 Co532 2.004 . S
O536 C541 1.259 . S
Co537 O538 2.061 . S
Co537 O543 2.052 1_565 S
Co537 O545 2.135 . S
O538 Co537 2.061 . S
O538 C541 1.235 . S
C539 O542 1.238 . S
C539 O543 1.241 . S
C540 O533 1.247 . S
C540 O534 1.261 . S
C541 O536 1.259 . S
C541 O538 1.235 . S
O542 Co532 2.021 1_545 S
O542 C539 1.238 . S
O543 Co537 2.052 1_545 S
O543 C539 1.241 . S
O544 Co532 2.137 . S
O544 C535 1.247 . S
O545 Co532 2.244 . S
O545 C535 1.272 . S
O545 Co537 2.135 . S
Co546 O547 2.216 . S
Co546 O548 2.091 . S
Co546 O550 2.004 . S
Co546 O556 2.021 . S
Co546 O558 2.137 . S
Co546 O559 2.244 . S
O547 Co546 2.216 . S
O547 C554 1.247 . S
O548 Co546 2.091 . S
O548 C554 1.261 . S
C549 O558 1.247 . S
C549 O559 1.272 . S
O550 Co546 2.004 . S
O550 C555 1.259 . S
Co551 O552 2.061 . S
Co551 O557 2.052 . S
Co551 O559 2.135 . S
O552 Co551 2.061 . S
O552 C555 1.235 . S
C553 O556 1.238 . S
C553 O557 1.241 . S
C554 O547 1.247 . S
C554 O548 1.261 . S
C555 O550 1.259 . S
C555 O552 1.235 . S
O556 Co546 2.021 . S
O556 C553 1.238 . S
O557 Co551 2.052 . S
O557 C553 1.241 . S
O558 Co546 2.137 . S
O558 C549 1.247 . S
O559 Co546 2.244 . S
O559 C549 1.272 . S
O559 Co551 2.135 . S
Co560 O561 2.216 1_556 S
Co560 O562 2.083 1_556 S
Co560 O564 2.004 . S
Co560 O570 2.021 1_556 S
Co560 O572 2.137 . S
Co560 O573 2.244 . S
O561 Co560 2.216 1_554 S
O561 C568 1.247 . S
O562 Co560 2.083 1_554 S
O562 C568 1.284 . S
C563 O572 1.247 . S
C563 O573 1.272 . S
O564 Co560 2.004 . S
O564 C569 1.259 . S
Co565 O566 2.061 . S
Co565 O571 2.052 1_556 S
Co565 O573 2.135 . S
O566 Co565 2.061 . S
O566 C569 1.235 . S
C567 O570 1.238 . S
C567 O571 1.241 . S
C568 O561 1.247 . S
C568 O562 1.284 . S
C569 O564 1.259 . S
C569 O566 1.235 . S
O570 Co560 2.021 1_554 S
O570 C567 1.238 . S
O571 Co565 2.052 1_554 S
O571 C567 1.241 . S
O572 Co560 2.137 . S
O572 C563 1.247 . S
O573 Co560 2.244 . S
O573 C563 1.272 . S
O573 Co565 2.135 . S
Co574 O575 2.216 1_554 S
Co574 O576 2.081 1_554 S
Co574 O578 2.004 . S
Co574 O584 2.021 1_554 S
Co574 O586 2.137 . S
Co574 O587 2.244 . S
O575 Co574 2.216 1_556 S
O575 C582 1.247 . S
O576 Co574 2.081 1_556 S
O576 C582 1.291 . S
C577 O586 1.247 . S
C577 O587 1.272 . S
O578 Co574 2.004 . S
O578 C583 1.259 . S
Co579 O580 2.061 . S
Co579 O585 2.052 1_554 S
Co579 O587 2.135 . S
O580 Co579 2.061 . S
O580 C583 1.235 . S
C581 O584 1.238 . S
C581 O585 1.241 . S
C582 O575 1.247 . S
C582 O576 1.291 . S
C583 O578 1.259 . S
C583 O580 1.235 . S
O584 Co574 2.021 1_556 S
O584 C581 1.238 . S
O585 Co579 2.052 1_556 S
O585 C581 1.241 . S
O586 Co574 2.137 . S
O586 C577 1.247 . S
O587 Co574 2.244 . S
O587 C577 1.272 . S
O587 Co579 2.135 . S
Co588 O589 2.216 . S
Co588 O590 2.091 . S
Co588 O592 2.004 . S
Co588 O598 2.021 . S
Co588 O600 2.137 . S
Co588 O601 2.244 . S
O589 Co588 2.216 . S
O589 C596 1.247 . S
O590 Co588 2.091 . S
O590 C596 1.261 . S
C591 O600 1.247 . S
C591 O601 1.272 . S
O592 Co588 2.004 . S
O592 C597 1.259 . S
Co593 O594 2.061 . S
Co593 O599 2.052 . S
Co593 O601 2.135 . S
O594 Co593 2.061 . S
O594 C597 1.235 . S
C595 O598 1.238 . S
C595 O599 1.241 . S
C596 O589 1.247 . S
C596 O590 1.261 . S
C597 O592 1.259 . S
C597 O594 1.235 . S
O598 Co588 2.021 . S
O598 C595 1.238 . S
O599 Co593 2.052 . S
O599 C595 1.241 . S
O600 Co588 2.137 . S
O600 C591 1.247 . S
O601 Co588 2.244 . S
O601 C591 1.272 . S
O601 Co593 2.135 . S
Co602 O603 2.216 . S
Co602 O604 2.091 . S
Co602 O606 2.004 . S
Co602 O612 2.021 . S
Co602 O614 2.137 . S
Co602 O615 2.244 . S
O603 Co602 2.216 . S
O603 C610 1.247 . S
O604 Co602 2.091 . S
O604 C610 1.261 . S
C605 O614 1.247 . S
C605 O615 1.272 . S
O606 Co602 2.004 . S
O606 C611 1.259 . S
Co607 O608 2.061 . S
Co607 O613 2.052 . S
Co607 O615 2.135 . S
O608 Co607 2.061 . S
O608 C611 1.235 . S
C609 O612 1.238 . S
C609 O613 1.241 . S
C610 O603 1.247 . S
C610 O604 1.261 . S
C611 O606 1.259 . S
C611 O608 1.235 . S
O612 Co602 2.021 . S
O612 C609 1.238 . S
O613 Co607 2.052 . S
O613 C609 1.241 . S
O614 Co602 2.137 . S
O614 C605 1.247 . S
O615 Co602 2.244 . S
O615 C605 1.272 . S
O615 Co607 2.135 . S
Co616 O617 2.216 . S
Co616 O618 2.091 . S
Co616 O620 2.004 . S
Co616 O626 2.021 . S
Co616 O628 2.137 . S
Co616 O629 2.244 . S
O617 Co616 2.216 . S
O617 C624 1.247 . S
O618 Co616 2.091 . S
O618 C624 1.261 . S
C619 O628 1.247 . S
C619 O629 1.272 . S
O620 Co616 2.004 . S
O620 C625 1.259 . S
Co621 O622 2.061 . S
Co621 O627 2.052 . S
Co621 O629 2.135 . S
O622 Co621 2.061 . S
O622 C625 1.235 . S
C623 O626 1.238 . S
C623 O627 1.241 . S
C624 O617 1.247 . S
C624 O618 1.261 . S
C625 O620 1.259 . S
C625 O622 1.235 . S
O626 Co616 2.021 . S
O626 C623 1.238 . S
O627 Co621 2.052 . S
O627 C623 1.241 . S
O628 Co616 2.137 . S
O628 C619 1.247 . S
O629 Co616 2.244 . S
O629 C619 1.272 . S
O629 Co621 2.135 . S
Co630 O631 2.216 . S
Co630 O632 2.091 . S
Co630 O634 2.004 . S
Co630 O640 2.021 . S
Co630 O642 2.137 . S
Co630 O643 2.244 . S
O631 Co630 2.216 . S
O631 C638 1.247 . S
O632 Co630 2.091 . S
O632 C638 1.261 . S
C633 O642 1.247 . S
C633 O643 1.272 . S
O634 Co630 2.004 . S
O634 C639 1.259 . S
Co635 O636 2.061 . S
Co635 O641 2.052 . S
Co635 O643 2.135 . S
O636 Co635 2.061 . S
O636 C639 1.235 . S
C637 O640 1.238 . S
C637 O641 1.241 . S
C638 O631 1.247 . S
C638 O632 1.261 . S
C639 O634 1.259 . S
C639 O636 1.235 . S
O640 Co630 2.021 . S
O640 C637 1.238 . S
O641 Co635 2.052 . S
O641 C637 1.241 . S
O642 Co630 2.137 . S
O642 C633 1.247 . S
O643 Co630 2.244 . S
O643 C633 1.272 . S
O643 Co635 2.135 . S
Co644 O645 2.216 . S
Co644 O646 2.091 . S
Co644 O648 2.004 . S
Co644 O654 2.021 . S
Co644 O656 2.137 . S
Co644 O657 2.244 . S
O645 Co644 2.216 . S
O645 C652 1.247 . S
O646 Co644 2.091 . S
O646 C652 1.261 . S
C647 O656 1.247 . S
C647 O657 1.272 . S
O648 Co644 2.004 . S
O648 C653 1.259 . S
Co649 O650 2.061 . S
Co649 O655 2.052 . S
Co649 O657 2.135 . S
O650 Co649 2.061 . S
O650 C653 1.235 . S
C651 O654 1.238 . S
C651 O655 1.241 . S
C652 O645 1.247 . S
C652 O646 1.261 . S
C653 O648 1.259 . S
C653 O650 1.235 . S
O654 Co644 2.021 . S
O654 C651 1.238 . S
O655 Co649 2.052 . S
O655 C651 1.241 . S
O656 Co644 2.137 . S
O656 C647 1.247 . S
O657 Co644 2.244 . S
O657 C647 1.272 . S
O657 Co649 2.135 . S
Co658 O659 2.216 . S
Co658 O660 2.091 . S
Co658 O662 2.004 . S
Co658 O668 2.021 . S
Co658 O670 2.137 . S
Co658 O671 2.244 . S
O659 Co658 2.216 . S
O659 C666 1.247 . S
O660 Co658 2.091 . S
O660 C666 1.261 . S
C661 O670 1.247 . S
C661 O671 1.272 . S
O662 Co658 2.004 . S
O662 C667 1.259 . S
Co663 O664 2.061 . S
Co663 O669 2.052 . S
Co663 O671 2.135 . S
O664 Co663 2.061 . S
O664 C667 1.235 . S
C665 O668 1.238 . S
C665 O669 1.241 . S
C666 O659 1.247 . S
C666 O660 1.261 . S
C667 O662 1.259 . S
C667 O664 1.235 . S
O668 Co658 2.021 . S
O668 C665 1.238 . S
O669 Co663 2.052 . S
O669 C665 1.241 . S
O670 Co658 2.137 . S
O670 C661 1.247 . S
O671 Co658 2.244 . S
O671 C661 1.272 . S
O671 Co663 2.135 . S
Co672 O673 2.216 . S
Co672 O674 2.091 . S
Co672 O676 2.004 . S
Co672 O682 2.021 . S
Co672 O684 2.137 . S
Co672 O685 2.244 . S
O673 Co672 2.216 . S
O673 C680 1.247 . S
O674 Co672 2.091 . S
O674 C680 1.261 . S
C675 O684 1.247 . S
C675 O685 1.272 . S
O676 Co672 2.004 . S
O676 C681 1.259 . S
Co677 O678 2.061 . S
Co677 O683 2.052 . S
Co677 O685 2.135 . S
O678 Co677 2.061 . S
O678 C681 1.235 . S
C679 O682 1.238 . S
C679 O683 1.241 . S
C680 O673 1.247 . S
C680 O674 1.261 . S
C681 O676 1.259 . S
C681 O678 1.235 . S
O682 Co672 2.021 . S
O682 C679 1.238 . S
O683 Co677 2.052 . S
O683 C679 1.241 . S
O684 Co672 2.137 . S
O684 C675 1.247 . S
O685 Co672 2.244 . S
O685 C675 1.272 . S
O685 Co677 2.135 . S
Co686 O687 2.216 . S
Co686 O688 2.091 . S
Co686 O690 2.004 . S
Co686 O696 2.021 . S
Co686 O698 2.137 . S
Co686 O699 2.244 . S
O687 Co686 2.216 . S
O687 C694 1.247 . S
O688 Co686 2.091 . S
O688 C694 1.261 . S
C689 O698 1.247 . S
C689 O699 1.272 . S
O690 Co686 2.004 . S
O690 C695 1.259 . S
Co691 O692 2.061 . S
Co691 O697 2.052 . S
Co691 O699 2.135 . S
O692 Co691 2.061 . S
O692 C695 1.235 . S
C693 O696 1.238 . S
C693 O697 1.241 . S
C694 O687 1.247 . S
C694 O688 1.261 . S
C695 O690 1.259 . S
C695 O692 1.235 . S
O696 Co686 2.021 . S
O696 C693 1.238 . S
O697 Co691 2.052 . S
O697 C693 1.241 . S
O698 Co686 2.137 . S
O698 C689 1.247 . S
O699 Co686 2.244 . S
O699 C689 1.272 . S
O699 Co691 2.135 . S
Co700 O701 2.216 1_655 S
Co700 O702 2.091 1_655 S
Co700 O704 2.004 . S
Co700 O710 2.021 1_655 S
Co700 O712 2.137 . S
Co700 O713 2.244 . S
O701 Co700 2.216 1_455 S
O701 C708 1.247 . S
O702 Co700 2.091 1_455 S
O702 C708 1.261 . S
C703 O712 1.247 . S
C703 O713 1.272 . S
O704 Co700 2.004 . S
O704 C709 1.259 . S
Co705 O706 2.061 . S
Co705 O711 2.052 1_655 S
Co705 O713 2.135 . S
O706 Co705 2.061 . S
O706 C709 1.235 . S
C707 O710 1.238 . S
C707 O711 1.241 . S
C708 O701 1.247 . S
C708 O702 1.261 . S
C709 O704 1.259 . S
C709 O706 1.235 . S
O710 Co700 2.021 1_455 S
O710 C707 1.238 . S
O711 Co705 2.052 1_455 S
O711 C707 1.241 . S
O712 Co700 2.137 . S
O712 C703 1.247 . S
O713 Co700 2.244 . S
O713 C703 1.272 . S
O713 Co705 2.135 . S
Co714 O715 2.216 . S
Co714 O716 2.091 . S
Co714 O718 2.004 . S
Co714 O724 2.021 . S
Co714 O726 2.137 . S
Co714 O727 2.244 . S
O715 Co714 2.216 . S
O715 C722 1.247 . S
O716 Co714 2.091 . S
O716 C722 1.261 . S
C717 O726 1.247 . S
C717 O727 1.272 . S
O718 Co714 2.004 . S
O718 C723 1.259 . S
Co719 O720 2.061 . S
Co719 O725 2.052 . S
Co719 O727 2.135 . S
O720 Co719 2.061 . S
O720 C723 1.235 . S
C721 O724 1.238 . S
C721 O725 1.241 . S
C722 O715 1.247 . S
C722 O716 1.261 . S
C723 O718 1.259 . S
C723 O720 1.235 . S
O724 Co714 2.021 . S
O724 C721 1.238 . S
O725 Co719 2.052 . S
O725 C721 1.241 . S
O726 Co714 2.137 . S
O726 C717 1.247 . S
O727 Co714 2.244 . S
O727 C717 1.272 . S
O727 Co719 2.135 . S
Co728 O729 2.216 . S
Co728 O730 2.091 . S
Co728 O732 2.004 . S
Co728 O738 2.021 . S
Co728 O740 2.137 . S
Co728 O741 2.244 . S
O729 Co728 2.216 . S
O729 C736 1.247 . S
O730 Co728 2.091 . S
O730 C736 1.261 . S
C731 O740 1.247 . S
C731 O741 1.272 . S
O732 Co728 2.004 . S
O732 C737 1.259 . S
Co733 O734 2.061 . S
Co733 O739 2.052 . S
Co733 O741 2.135 . S
O734 Co733 2.061 . S
O734 C737 1.235 . S
C735 O738 1.238 . S
C735 O739 1.241 . S
C736 O729 1.247 . S
C736 O730 1.261 . S
C737 O732 1.259 . S
C737 O734 1.235 . S
O738 Co728 2.021 . S
O738 C735 1.238 . S
O739 Co733 2.052 . S
O739 C735 1.241 . S
O740 Co728 2.137 . S
O740 C731 1.247 . S
O741 Co728 2.244 . S
O741 C731 1.272 . S
O741 Co733 2.135 . S
Co742 O743 2.216 . S
Co742 O744 2.091 . S
Co742 O746 2.004 . S
Co742 O752 2.021 . S
Co742 O754 2.137 . S
Co742 O755 2.244 . S
O743 Co742 2.216 . S
O743 C750 1.247 . S
O744 Co742 2.091 . S
O744 C750 1.261 . S
C745 O754 1.247 . S
C745 O755 1.272 . S
O746 Co742 2.004 . S
O746 C751 1.259 . S
Co747 O748 2.061 . S
Co747 O753 2.052 . S
Co747 O755 2.135 . S
O748 Co747 2.061 . S
O748 C751 1.235 . S
C749 O752 1.238 . S
C749 O753 1.241 . S
C750 O743 1.247 . S
C750 O744 1.261 . S
C751 O746 1.259 . S
C751 O748 1.235 . S
O752 Co742 2.021 . S
O752 C749 1.238 . S
O753 Co747 2.052 . S
O753 C749 1.241 . S
O754 Co742 2.137 . S
O754 C745 1.247 . S
O755 Co742 2.244 . S
O755 C745 1.272 . S
O755 Co747 2.135 . S
Co756 O757 2.216 1_655 S
Co756 O758 2.091 1_655 S
Co756 O760 2.004 . S
Co756 O766 2.021 1_655 S
Co756 O768 2.137 . S
Co756 O769 2.244 . S
O757 Co756 2.216 1_455 S
O757 C764 1.247 . S
O758 Co756 2.091 1_455 S
O758 C764 1.261 . S
C759 O768 1.247 . S
C759 O769 1.272 . S
O760 Co756 2.004 . S
O760 C765 1.259 . S
Co761 O762 2.061 . S
Co761 O767 2.052 1_655 S
Co761 O769 2.135 . S
O762 Co761 2.061 . S
O762 C765 1.235 . S
C763 O766 1.238 . S
C763 O767 1.241 . S
C764 O757 1.247 . S
C764 O758 1.261 . S
C765 O760 1.259 . S
C765 O762 1.235 . S
O766 Co756 2.021 1_455 S
O766 C763 1.238 . S
O767 Co761 2.052 1_455 S
O767 C763 1.241 . S
O768 Co756 2.137 . S
O768 C759 1.247 . S
O769 Co756 2.244 . S
O769 C759 1.272 . S
O769 Co761 2.135 . S
Co770 O771 2.216 . S
Co770 O772 2.091 . S
Co770 O774 2.004 . S
Co770 O780 2.021 . S
Co770 O782 2.137 . S
Co770 O783 2.244 . S
O771 Co770 2.216 . S
O771 C778 1.247 . S
O772 Co770 2.091 . S
O772 C778 1.261 . S
C773 O782 1.247 . S
C773 O783 1.272 . S
O774 Co770 2.004 . S
O774 C779 1.259 . S
Co775 O776 2.061 . S
Co775 O781 2.052 . S
Co775 O783 2.135 . S
O776 Co775 2.061 . S
O776 C779 1.235 . S
C777 O780 1.238 . S
C777 O781 1.241 . S
C778 O771 1.247 . S
C778 O772 1.261 . S
C779 O774 1.259 . S
C779 O776 1.235 . S
O780 Co770 2.021 . S
O780 C777 1.238 . S
O781 Co775 2.052 . S
O781 C777 1.241 . S
O782 Co770 2.137 . S
O782 C773 1.247 . S
O783 Co770 2.244 . S
O783 C773 1.272 . S
O783 Co775 2.135 . S
Co784 O785 2.216 . S
Co784 O786 2.091 . S
Co784 O788 2.004 . S
Co784 O794 2.021 . S
Co784 O796 2.137 . S
Co784 O797 2.244 . S
O785 Co784 2.216 . S
O785 C792 1.247 . S
O786 Co784 2.091 . S
O786 C792 1.261 . S
C787 O796 1.247 . S
C787 O797 1.272 . S
O788 Co784 2.004 . S
O788 C793 1.259 . S
Co789 O790 2.061 . S
Co789 O795 2.052 . S
Co789 O797 2.135 . S
O790 Co789 2.061 . S
O790 C793 1.235 . S
C791 O794 1.238 . S
C791 O795 1.241 . S
C792 O785 1.247 . S
C792 O786 1.261 . S
C793 O788 1.259 . S
C793 O790 1.235 . S
O794 Co784 2.021 . S
O794 C791 1.238 . S
O795 Co789 2.052 . S
O795 C791 1.241 . S
O796 Co784 2.137 . S
O796 C787 1.247 . S
O797 Co784 2.244 . S
O797 C787 1.272 . S
O797 Co789 2.135 . S
Co798 O799 2.216 . S
Co798 O800 2.091 . S
Co798 O802 2.004 . S
Co798 O808 2.021 . S
Co798 O810 2.137 . S
Co798 O811 2.244 . S
O799 Co798 2.216 . S
O799 C806 1.247 . S
O800 Co798 2.091 . S
O800 C806 1.261 . S
C801 O810 1.247 . S
C801 O811 1.272 . S
O802 Co798 2.004 . S
O802 C807 1.259 . S
Co803 O804 2.061 . S
Co803 O809 2.052 . S
Co803 O811 2.135 . S
O804 Co803 2.061 . S
O804 C807 1.235 . S
C805 O808 1.238 . S
C805 O809 1.241 . S
C806 O799 1.247 . S
C806 O800 1.261 . S
C807 O802 1.259 . S
C807 O804 1.235 . S
O808 Co798 2.021 . S
O808 C805 1.238 . S
O809 Co803 2.052 . S
O809 C805 1.241 . S
O810 Co798 2.137 . S
O810 C801 1.247 . S
O811 Co798 2.244 . S
O811 C801 1.272 . S
O811 Co803 2.135 . S
Co812 O813 2.216 . S
Co812 O814 2.091 . S
Co812 O816 2.004 . S
Co812 O822 2.021 . S
Co812 O824 2.137 . S
Co812 O825 2.244 . S
O813 Co812 2.216 . S
O813 C820 1.247 . S
O814 Co812 2.091 . S
O814 C820 1.261 . S
C815 O824 1.247 . S
C815 O825 1.272 . S
O816 Co812 2.004 . S
O816 C821 1.259 . S
Co817 O818 2.061 . S
Co817 O823 2.052 . S
Co817 O825 2.135 . S
O818 Co817 2.061 . S
O818 C821 1.235 . S
C819 O822 1.238 . S
C819 O823 1.241 . S
C820 O813 1.247 . S
C820 O814 1.261 . S
C821 O816 1.259 . S
C821 O818 1.235 . S
O822 Co812 2.021 . S
O822 C819 1.238 . S
O823 Co817 2.052 . S
O823 C819 1.241 . S
O824 Co812 2.137 . S
O824 C815 1.247 . S
O825 Co812 2.244 . S
O825 C815 1.272 . S
O825 Co817 2.135 . S
Co826 O827 2.216 . S
Co826 O828 2.091 . S
Co826 O830 2.004 . S
Co826 O836 2.021 . S
Co826 O838 2.137 . S
Co826 O839 2.244 . S
O827 Co826 2.216 . S
O827 C834 1.247 . S
O828 Co826 2.091 . S
O828 C834 1.261 . S
C829 O838 1.247 . S
C829 O839 1.272 . S
O830 Co826 2.004 . S
O830 C835 1.259 . S
Co831 O832 2.061 . S
Co831 O837 2.052 . S
Co831 O839 2.135 . S
O832 Co831 2.061 . S
O832 C835 1.235 . S
C833 O836 1.238 . S
C833 O837 1.241 . S
C834 O827 1.247 . S
C834 O828 1.261 . S
C835 O830 1.259 . S
C835 O832 1.235 . S
O836 Co826 2.021 . S
O836 C833 1.238 . S
O837 Co831 2.052 . S
O837 C833 1.241 . S
O838 Co826 2.137 . S
O838 C829 1.247 . S
O839 Co826 2.244 . S
O839 C829 1.272 . S
O839 Co831 2.135 . S
Co840 O841 2.216 . S
Co840 O842 2.091 . S
Co840 O844 2.004 . S
Co840 O850 2.021 . S
Co840 O852 2.137 . S
Co840 O853 2.244 . S
O841 Co840 2.216 . S
O841 C848 1.247 . S
O842 Co840 2.091 . S
O842 C848 1.261 . S
C843 O852 1.247 . S
C843 O853 1.272 . S
O844 Co840 2.004 . S
O844 C849 1.259 . S
Co845 O846 2.061 . S
Co845 O851 2.052 . S
Co845 O853 2.135 . S
O846 Co845 2.061 . S
O846 C849 1.235 . S
C847 O850 1.238 . S
C847 O851 1.241 . S
C848 O841 1.247 . S
C848 O842 1.261 . S
C849 O844 1.259 . S
C849 O846 1.235 . S
O850 Co840 2.021 . S
O850 C847 1.238 . S
O851 Co845 2.052 . S
O851 C847 1.241 . S
O852 Co840 2.137 . S
O852 C843 1.247 . S
O853 Co840 2.244 . S
O853 C843 1.272 . S
O853 Co845 2.135 . S
Co854 O855 2.216 . S
Co854 O856 2.091 . S
Co854 O858 2.004 . S
Co854 O864 2.021 . S
Co854 O866 2.137 . S
Co854 O867 2.244 . S
O855 Co854 2.216 . S
O855 C862 1.247 . S
O856 Co854 2.091 . S
O856 C862 1.261 . S
C857 O866 1.247 . S
C857 O867 1.272 . S
O858 Co854 2.004 . S
O858 C863 1.259 . S
Co859 O860 2.061 . S
Co859 O865 2.052 . S
Co859 O867 2.135 . S
O860 Co859 2.061 . S
O860 C863 1.235 . S
C861 O864 1.238 . S
C861 O865 1.241 . S
C862 O855 1.247 . S
C862 O856 1.261 . S
C863 O858 1.259 . S
C863 O860 1.235 . S
O864 Co854 2.021 . S
O864 C861 1.238 . S
O865 Co859 2.052 . S
O865 C861 1.241 . S
O866 Co854 2.137 . S
O866 C857 1.247 . S
O867 Co854 2.244 . S
O867 C857 1.272 . S
O867 Co859 2.135 . S
Co868 O869 2.216 . S
Co868 O870 2.091 . S
Co868 O872 2.004 . S
Co868 O878 2.021 . S
Co868 O880 2.137 . S
Co868 O881 2.244 . S
O869 Co868 2.216 . S
O869 C876 1.247 . S
O870 Co868 2.091 . S
O870 C876 1.261 . S
C871 O880 1.247 . S
C871 O881 1.272 . S
O872 Co868 2.004 . S
O872 C877 1.259 . S
Co873 O874 2.061 . S
Co873 O879 2.052 . S
Co873 O881 2.135 . S
O874 Co873 2.061 . S
O874 C877 1.235 . S
C875 O878 1.238 . S
C875 O879 1.241 . S
C876 O869 1.247 . S
C876 O870 1.261 . S
C877 O872 1.259 . S
C877 O874 1.235 . S
O878 Co868 2.021 . S
O878 C875 1.238 . S
O879 Co873 2.052 . S
O879 C875 1.241 . S
O880 Co868 2.137 . S
O880 C871 1.247 . S
O881 Co868 2.244 . S
O881 C871 1.272 . S
O881 Co873 2.135 . S
Co882 O883 2.216 . S
Co882 O884 2.091 . S
Co882 O886 2.004 . S
Co882 O892 2.021 . S
Co882 O894 2.137 . S
Co882 O895 2.244 . S
O883 Co882 2.216 . S
O883 C890 1.247 . S
O884 Co882 2.091 . S
O884 C890 1.261 . S
C885 O894 1.247 . S
C885 O895 1.272 . S
O886 Co882 2.004 . S
O886 C891 1.259 . S
Co887 O888 2.061 . S
Co887 O893 2.052 . S
Co887 O895 2.135 . S
O888 Co887 2.061 . S
O888 C891 1.235 . S
C889 O892 1.238 . S
C889 O893 1.241 . S
C890 O883 1.247 . S
C890 O884 1.261 . S
C891 O886 1.259 . S
C891 O888 1.235 . S
O892 Co882 2.021 . S
O892 C889 1.238 . S
O893 Co887 2.052 . S
O893 C889 1.241 . S
O894 Co882 2.137 . S
O894 C885 1.247 . S
O895 Co882 2.244 . S
O895 C885 1.272 . S
O895 Co887 2.135 . S
Co896 O897 2.216 . S
Co896 O898 2.091 . S
Co896 O900 2.004 . S
Co896 O906 2.021 . S
Co896 O908 2.137 . S
Co896 O909 2.244 . S
O897 Co896 2.216 . S
O897 C904 1.247 . S
O898 Co896 2.091 . S
O898 C904 1.261 . S
C899 O908 1.247 . S
C899 O909 1.272 . S
O900 Co896 2.004 . S
O900 C905 1.259 . S
Co901 O902 2.061 . S
Co901 O907 2.052 . S
Co901 O909 2.135 . S
O902 Co901 2.061 . S
O902 C905 1.235 . S
C903 O906 1.238 . S
C903 O907 1.241 . S
C904 O897 1.247 . S
C904 O898 1.261 . S
C905 O900 1.259 . S
C905 O902 1.235 . S
O906 Co896 2.021 . S
O906 C903 1.238 . S
O907 Co901 2.052 . S
O907 C903 1.241 . S
O908 Co896 2.137 . S
O908 C899 1.247 . S
O909 Co896 2.244 . S
O909 C899 1.272 . S
O909 Co901 2.135 . S
Co910 O911 2.216 . S
Co910 O912 2.091 . S
Co910 O914 2.004 . S
Co910 O920 2.021 . S
Co910 O922 2.137 . S
Co910 O923 2.244 . S
O911 Co910 2.216 . S
O911 C918 1.247 . S
O912 Co910 2.091 . S
O912 C918 1.261 . S
C913 O922 1.247 . S
C913 O923 1.272 . S
O914 Co910 2.004 . S
O914 C919 1.259 . S
Co915 O916 2.061 . S
Co915 O921 2.052 . S
Co915 O923 2.135 . S
O916 Co915 2.061 . S
O916 C919 1.235 . S
C917 O920 1.238 . S
C917 O921 1.241 . S
C918 O911 1.247 . S
C918 O912 1.261 . S
C919 O914 1.259 . S
C919 O916 1.235 . S
O920 Co910 2.021 . S
O920 C917 1.238 . S
O921 Co915 2.052 . S
O921 C917 1.241 . S
O922 Co910 2.137 . S
O922 C913 1.247 . S
O923 Co910 2.244 . S
O923 C913 1.272 . S
O923 Co915 2.135 . S
Co924 O925 2.216 . S
Co924 O926 2.091 . S
Co924 O928 2.004 . S
Co924 O934 2.021 . S
Co924 O936 2.137 . S
Co924 O937 2.244 . S
O925 Co924 2.216 . S
O925 C932 1.247 . S
O926 Co924 2.091 . S
O926 C932 1.261 . S
C927 O936 1.247 . S
C927 O937 1.272 . S
O928 Co924 2.004 . S
O928 C933 1.259 . S
Co929 O930 2.061 . S
Co929 O935 2.052 . S
Co929 O937 2.135 . S
O930 Co929 2.061 . S
O930 C933 1.235 . S
C931 O934 1.238 . S
C931 O935 1.241 . S
C932 O925 1.247 . S
C932 O926 1.261 . S
C933 O928 1.259 . S
C933 O930 1.235 . S
O934 Co924 2.021 . S
O934 C931 1.238 . S
O935 Co929 2.052 . S
O935 C931 1.241 . S
O936 Co924 2.137 . S
O936 C927 1.247 . S
O937 Co924 2.244 . S
O937 C927 1.272 . S
O937 Co929 2.135 . S
Co938 O939 2.216 1_556 S
Co938 O940 2.091 1_556 S
Co938 O942 2.004 . S
Co938 O948 2.021 1_556 S
Co938 O950 2.137 . S
Co938 O951 2.244 . S
O939 Co938 2.216 1_554 S
O939 C946 1.247 . S
O940 Co938 2.091 1_554 S
O940 C946 1.261 . S
C941 O950 1.247 . S
C941 O951 1.272 . S
O942 Co938 2.004 . S
O942 C947 1.259 . S
Co943 O944 2.061 . S
Co943 O949 2.052 1_556 S
Co943 O951 2.135 . S
O944 Co943 2.061 . S
O944 C947 1.235 . S
C945 O948 1.238 . S
C945 O949 1.241 . S
C946 O939 1.247 . S
C946 O940 1.261 . S
C947 O942 1.259 . S
C947 O944 1.235 . S
O948 Co938 2.021 1_554 S
O948 C945 1.238 . S
O949 Co943 2.052 1_554 S
O949 C945 1.241 . S
O950 Co938 2.137 . S
O950 C941 1.247 . S
O951 Co938 2.244 . S
O951 C941 1.272 . S
O951 Co943 2.135 . S
Co952 O953 2.216 . S
Co952 O954 2.091 . S
Co952 O956 2.004 . S
Co952 O962 2.021 . S
Co952 O964 2.137 . S
Co952 O965 2.244 . S
O953 Co952 2.216 . S
O953 C960 1.247 . S
O954 Co952 2.091 . S
O954 C960 1.261 . S
C955 O964 1.247 . S
C955 O965 1.272 . S
O956 Co952 2.004 . S
O956 C961 1.259 . S
Co957 O958 2.061 . S
Co957 O963 2.052 . S
Co957 O965 2.135 . S
O958 Co957 2.061 . S
O958 C961 1.235 . S
C959 O962 1.238 . S
C959 O963 1.241 . S
C960 O953 1.247 . S
C960 O954 1.261 . S
C961 O956 1.259 . S
C961 O958 1.235 . S
O962 Co952 2.021 . S
O962 C959 1.238 . S
O963 Co957 2.052 . S
O963 C959 1.241 . S
O964 Co952 2.137 . S
O964 C955 1.247 . S
O965 Co952 2.244 . S
O965 C955 1.272 . S
O965 Co957 2.135 . S
Co966 O967 2.216 1_554 S
Co966 O968 2.091 1_554 S
Co966 O970 2.004 . S
Co966 O976 2.021 1_554 S
Co966 O978 2.137 . S
Co966 O979 2.244 . S
O967 Co966 2.216 1_556 S
O967 C974 1.247 . S
O968 Co966 2.091 1_556 S
O968 C974 1.261 . S
C969 O978 1.247 . S
C969 O979 1.272 . S
O970 Co966 2.004 . S
O970 C975 1.259 . S
Co971 O972 2.061 . S
Co971 O977 2.052 1_554 S
Co971 O979 2.135 . S
O972 Co971 2.061 . S
O972 C975 1.235 . S
C973 O976 1.238 . S
C973 O977 1.241 . S
C974 O967 1.247 . S
C974 O968 1.261 . S
C975 O970 1.259 . S
C975 O972 1.235 . S
O976 Co966 2.021 1_556 S
O976 C973 1.238 . S
O977 Co971 2.052 1_556 S
O977 C973 1.241 . S
O978 Co966 2.137 . S
O978 C969 1.247 . S
O979 Co966 2.244 . S
O979 C969 1.272 . S
O979 Co971 2.135 . S
Co980 O981 2.216 . S
Co980 O982 2.091 . S
Co980 O984 2.004 . S
Co980 O990 2.021 . S
Co980 O992 2.137 . S
Co980 O993 2.244 . S
O981 Co980 2.216 . S
O981 C988 1.247 . S
O982 Co980 2.091 . S
O982 C988 1.261 . S
C983 O992 1.247 . S
C983 O993 1.272 . S
O984 Co980 2.004 . S
O984 C989 1.259 . S
Co985 O986 2.061 . S
Co985 O991 2.052 . S
Co985 O993 2.135 . S
O986 Co985 2.061 . S
O986 C989 1.235 . S
C987 O990 1.238 . S
C987 O991 1.241 . S
C988 O981 1.247 . S
C988 O982 1.261 . S
C989 O984 1.259 . S
C989 O986 1.235 . S
O990 Co980 2.021 . S
O990 C987 1.238 . S
O991 Co985 2.052 . S
O991 C987 1.241 . S
O992 Co980 2.137 . S
O992 C983 1.247 . S
O993 Co980 2.244 . S
O993 C983 1.272 . S
O993 Co985 2.135 . S
Co994 O995 2.216 . S
Co994 O996 2.091 . S
Co994 O998 2.004 . S
Co994 O1004 2.021 . S
Co994 O1006 2.137 . S
Co994 O1007 2.244 . S
O995 Co994 2.216 . S
O995 C1002 1.247 . S
O996 Co994 2.091 . S
O996 C1002 1.261 . S
C997 O1006 1.247 . S
C997 O1007 1.272 . S
O998 Co994 2.004 . S
O998 C1003 1.259 . S
Co999 O1000 2.061 . S
Co999 O1005 2.052 . S
Co999 O1007 2.135 . S
O1000 Co999 2.061 . S
O1000 C1003 1.235 . S
C1001 O1004 1.238 . S
C1001 O1005 1.241 . S
C1002 O995 1.247 . S
C1002 O996 1.261 . S
C1003 O998 1.259 . S
C1003 O1000 1.235 . S
O1004 Co994 2.021 . S
O1004 C1001 1.238 . S
O1005 Co999 2.052 . S
O1005 C1001 1.241 . S
O1006 Co994 2.137 . S
O1006 C997 1.247 . S
O1007 Co994 2.244 . S
O1007 C997 1.272 . S
O1007 Co999 2.135 . S
Co1008 O1009 2.216 . S
Co1008 O1010 2.091 . S
Co1008 O1012 2.004 . S
Co1008 O1018 2.021 . S
Co1008 O1020 2.137 . S
Co1008 O1021 2.244 . S
O1009 Co1008 2.216 . S
O1009 C1016 1.247 . S
O1010 Co1008 2.091 . S
O1010 C1016 1.261 . S
C1011 O1020 1.247 . S
C1011 O1021 1.272 . S
O1012 Co1008 2.004 . S
O1012 C1017 1.259 . S
Co1013 O1014 2.061 . S
Co1013 O1019 2.052 . S
Co1013 O1021 2.135 . S
O1014 Co1013 2.061 . S
O1014 C1017 1.235 . S
C1015 O1018 1.238 . S
C1015 O1019 1.241 . S
C1016 O1009 1.247 . S
C1016 O1010 1.261 . S
C1017 O1012 1.259 . S
C1017 O1014 1.235 . S
O1018 Co1008 2.021 . S
O1018 C1015 1.238 . S
O1019 Co1013 2.052 . S
O1019 C1015 1.241 . S
O1020 Co1008 2.137 . S
O1020 C1011 1.247 . S
O1021 Co1008 2.244 . S
O1021 C1011 1.272 . S
O1021 Co1013 2.135 . S
Co1022 O1023 2.216 . S
Co1022 O1024 2.091 . S
Co1022 O1026 2.004 . S
Co1022 O1032 2.021 . S
Co1022 O1034 2.137 . S
Co1022 O1035 2.244 . S
O1023 Co1022 2.216 . S
O1023 C1030 1.247 . S
O1024 Co1022 2.091 . S
O1024 C1030 1.261 . S
C1025 O1034 1.247 . S
C1025 O1035 1.272 . S
O1026 Co1022 2.004 . S
O1026 C1031 1.259 . S
Co1027 O1028 2.061 . S
Co1027 O1033 2.052 . S
Co1027 O1035 2.135 . S
O1028 Co1027 2.061 . S
O1028 C1031 1.235 . S
C1029 O1032 1.238 . S
C1029 O1033 1.241 . S
C1030 O1023 1.247 . S
C1030 O1024 1.261 . S
C1031 O1026 1.259 . S
C1031 O1028 1.235 . S
O1032 Co1022 2.021 . S
O1032 C1029 1.238 . S
O1033 Co1027 2.052 . S
O1033 C1029 1.241 . S
O1034 Co1022 2.137 . S
O1034 C1025 1.247 . S
O1035 Co1022 2.244 . S
O1035 C1025 1.272 . S
O1035 Co1027 2.135 . S
Co1036 O1037 2.216 1_455 S
Co1036 O1038 2.091 1_455 S
Co1036 O1040 2.004 . S
Co1036 O1046 2.021 1_455 S
Co1036 O1048 2.137 . S
Co1036 O1049 2.244 . S
O1037 Co1036 2.216 1_655 S
O1037 C1044 1.247 . S
O1038 Co1036 2.091 1_655 S
O1038 C1044 1.261 . S
C1039 O1048 1.247 . S
C1039 O1049 1.272 . S
O1040 Co1036 2.004 . S
O1040 C1045 1.259 . S
Co1041 O1042 2.061 . S
Co1041 O1047 2.052 1_455 S
Co1041 O1049 2.135 . S
O1042 Co1041 2.061 . S
O1042 C1045 1.235 . S
C1043 O1046 1.238 . S
C1043 O1047 1.241 . S
C1044 O1037 1.247 . S
C1044 O1038 1.261 . S
C1045 O1040 1.259 . S
C1045 O1042 1.235 . S
O1046 Co1036 2.021 1_655 S
O1046 C1043 1.238 . S
O1047 Co1041 2.052 1_655 S
O1047 C1043 1.241 . S
O1048 Co1036 2.137 . S
O1048 C1039 1.247 . S
O1049 Co1036 2.244 . S
O1049 C1039 1.272 . S
O1049 Co1041 2.135 . S
Co1050 O1051 2.216 . S
Co1050 O1052 2.091 . S
Co1050 O1054 2.004 . S
Co1050 O1060 2.021 . S
Co1050 O1062 2.137 . S
Co1050 O1063 2.244 . S
O1051 Co1050 2.216 . S
O1051 C1058 1.247 . S
O1052 Co1050 2.091 . S
O1052 C1058 1.261 . S
C1053 O1062 1.247 . S
C1053 O1063 1.272 . S
O1054 Co1050 2.004 . S
O1054 C1059 1.259 . S
Co1055 O1056 2.061 . S
Co1055 O1061 2.052 . S
Co1055 O1063 2.135 . S
O1056 Co1055 2.061 . S
O1056 C1059 1.235 . S
C1057 O1060 1.238 . S
C1057 O1061 1.241 . S
C1058 O1051 1.247 . S
C1058 O1052 1.261 . S
C1059 O1054 1.259 . S
C1059 O1056 1.235 . S
O1060 Co1050 2.021 . S
O1060 C1057 1.238 . S
O1061 Co1055 2.052 . S
O1061 C1057 1.241 . S
O1062 Co1050 2.137 . S
O1062 C1053 1.247 . S
O1063 Co1050 2.244 . S
O1063 C1053 1.272 . S
O1063 Co1055 2.135 . S
Co1064 O1065 2.216 . S
Co1064 O1066 2.091 . S
Co1064 O1068 2.004 . S
Co1064 O1074 2.021 . S
Co1064 O1076 2.137 . S
Co1064 O1077 2.244 . S
O1065 Co1064 2.216 . S
O1065 C1072 1.247 . S
O1066 Co1064 2.091 . S
O1066 C1072 1.261 . S
C1067 O1076 1.247 . S
C1067 O1077 1.272 . S
O1068 Co1064 2.004 . S
O1068 C1073 1.259 . S
Co1069 O1070 2.061 . S
Co1069 O1075 2.052 . S
Co1069 O1077 2.135 . S
O1070 Co1069 2.061 . S
O1070 C1073 1.235 . S
C1071 O1074 1.238 . S
C1071 O1075 1.241 . S
C1072 O1065 1.247 . S
C1072 O1066 1.261 . S
C1073 O1068 1.259 . S
C1073 O1070 1.235 . S
O1074 Co1064 2.021 . S
O1074 C1071 1.238 . S
O1075 Co1069 2.052 . S
O1075 C1071 1.241 . S
O1076 Co1064 2.137 . S
O1076 C1067 1.247 . S
O1077 Co1064 2.244 . S
O1077 C1067 1.272 . S
O1077 Co1069 2.135 . S
Co1078 O1079 2.216 . S
Co1078 O1080 2.091 . S
Co1078 O1082 2.004 . S
Co1078 O1088 2.021 . S
Co1078 O1090 2.137 . S
Co1078 O1091 2.244 . S
O1079 Co1078 2.216 . S
O1079 C1086 1.247 . S
O1080 Co1078 2.091 . S
O1080 C1086 1.261 . S
C1081 O1090 1.247 . S
C1081 O1091 1.272 . S
O1082 Co1078 2.004 . S
O1082 C1087 1.259 . S
Co1083 O1084 2.061 . S
Co1083 O1089 2.052 . S
Co1083 O1091 2.135 . S
O1084 Co1083 2.061 . S
O1084 C1087 1.235 . S
C1085 O1088 1.238 . S
C1085 O1089 1.241 . S
C1086 O1079 1.247 . S
C1086 O1080 1.261 . S
C1087 O1082 1.259 . S
C1087 O1084 1.235 . S
O1088 Co1078 2.021 . S
O1088 C1085 1.238 . S
O1089 Co1083 2.052 . S
O1089 C1085 1.241 . S
O1090 Co1078 2.137 . S
O1090 C1081 1.247 . S
O1091 Co1078 2.244 . S
O1091 C1081 1.272 . S
O1091 Co1083 2.135 . S
Co1092 O1093 2.216 1_455 S
Co1092 O1094 2.091 1_455 S
Co1092 O1096 2.004 . S
Co1092 O1102 2.021 1_455 S
Co1092 O1104 2.137 . S
Co1092 O1105 2.244 . S
O1093 Co1092 2.216 1_655 S
O1093 C1100 1.247 . S
O1094 Co1092 2.091 1_655 S
O1094 C1100 1.261 . S
C1095 O1104 1.247 . S
C1095 O1105 1.272 . S
O1096 Co1092 2.004 . S
O1096 C1101 1.259 . S
Co1097 O1098 2.061 . S
Co1097 O1103 2.052 1_455 S
Co1097 O1105 2.135 . S
O1098 Co1097 2.061 . S
O1098 C1101 1.235 . S
C1099 O1102 1.238 . S
C1099 O1103 1.241 . S
C1100 O1093 1.247 . S
C1100 O1094 1.261 . S
C1101 O1096 1.259 . S
C1101 O1098 1.235 . S
O1102 Co1092 2.021 1_655 S
O1102 C1099 1.238 . S
O1103 Co1097 2.052 1_655 S
O1103 C1099 1.241 . S
O1104 Co1092 2.137 . S
O1104 C1095 1.247 . S
O1105 Co1092 2.244 . S
O1105 C1095 1.272 . S
O1105 Co1097 2.135 . S
Co1106 O1107 2.216 . S
Co1106 O1108 2.091 . S
Co1106 O1110 2.004 . S
Co1106 O1116 2.021 . S
Co1106 O1118 2.137 . S
Co1106 O1119 2.244 . S
O1107 Co1106 2.216 . S
O1107 C1114 1.247 . S
O1108 Co1106 2.091 . S
O1108 C1114 1.261 . S
C1109 O1118 1.247 . S
C1109 O1119 1.272 . S
O1110 Co1106 2.004 . S
O1110 C1115 1.259 . S
Co1111 O1112 2.061 . S
Co1111 O1117 2.052 . S
Co1111 O1119 2.135 . S
O1112 Co1111 2.061 . S
O1112 C1115 1.235 . S
C1113 O1116 1.238 . S
C1113 O1117 1.241 . S
C1114 O1107 1.247 . S
C1114 O1108 1.261 . S
C1115 O1110 1.259 . S
C1115 O1112 1.235 . S
O1116 Co1106 2.021 . S
O1116 C1113 1.238 . S
O1117 Co1111 2.052 . S
O1117 C1113 1.241 . S
O1118 Co1106 2.137 . S
O1118 C1109 1.247 . S
O1119 Co1106 2.244 . S
O1119 C1109 1.272 . S
O1119 Co1111 2.135 . S
Co1120 O1121 2.216 . S
Co1120 O1122 2.091 . S
Co1120 O1124 2.004 . S
Co1120 O1130 2.021 . S
Co1120 O1132 2.137 . S
Co1120 O1133 2.244 . S
O1121 Co1120 2.216 . S
O1121 C1128 1.247 . S
O1122 Co1120 2.091 . S
O1122 C1128 1.261 . S
C1123 O1132 1.247 . S
C1123 O1133 1.272 . S
O1124 Co1120 2.004 . S
O1124 C1129 1.259 . S
Co1125 O1126 2.061 . S
Co1125 O1131 2.052 . S
Co1125 O1133 2.135 . S
O1126 Co1125 2.061 . S
O1126 C1129 1.235 . S
C1127 O1130 1.238 . S
C1127 O1131 1.241 . S
C1128 O1121 1.247 . S
C1128 O1122 1.261 . S
C1129 O1124 1.259 . S
C1129 O1126 1.235 . S
O1130 Co1120 2.021 . S
O1130 C1127 1.238 . S
O1131 Co1125 2.052 . S
O1131 C1127 1.241 . S
O1132 Co1120 2.137 . S
O1132 C1123 1.247 . S
O1133 Co1120 2.244 . S
O1133 C1123 1.272 . S
O1133 Co1125 2.135 . S
Co1134 O1135 2.216 . S
Co1134 O1136 2.091 . S
Co1134 O1138 2.004 . S
Co1134 O1144 2.021 . S
Co1134 O1146 2.137 . S
Co1134 O1147 2.244 . S
O1135 Co1134 2.216 . S
O1135 C1142 1.247 . S
O1136 Co1134 2.091 . S
O1136 C1142 1.261 . S
C1137 O1146 1.247 . S
C1137 O1147 1.272 . S
O1138 Co1134 2.004 . S
O1138 C1143 1.259 . S
Co1139 O1140 2.061 . S
Co1139 O1145 2.052 . S
Co1139 O1147 2.135 . S
O1140 Co1139 2.061 . S
O1140 C1143 1.235 . S
C1141 O1144 1.238 . S
C1141 O1145 1.241 . S
C1142 O1135 1.247 . S
C1142 O1136 1.261 . S
C1143 O1138 1.259 . S
C1143 O1140 1.235 . S
O1144 Co1134 2.021 . S
O1144 C1141 1.238 . S
O1145 Co1139 2.052 . S
O1145 C1141 1.241 . S
O1146 Co1134 2.137 . S
O1146 C1137 1.247 . S
O1147 Co1134 2.244 . S
O1147 C1137 1.272 . S
O1147 Co1139 2.135 . S
Co1148 O1149 2.216 . S
Co1148 O1150 2.091 . S
Co1148 O1152 2.004 . S
Co1148 O1158 2.021 . S
Co1148 O1160 2.137 . S
Co1148 O1161 2.244 . S
O1149 Co1148 2.216 . S
O1149 C1156 1.247 . S
O1150 Co1148 2.091 . S
O1150 C1156 1.261 . S
C1151 O1160 1.247 . S
C1151 O1161 1.272 . S
O1152 Co1148 2.004 . S
O1152 C1157 1.259 . S
Co1153 O1154 2.061 . S
Co1153 O1159 2.052 . S
Co1153 O1161 2.135 . S
O1154 Co1153 2.061 . S
O1154 C1157 1.235 . S
C1155 O1158 1.238 . S
C1155 O1159 1.241 . S
C1156 O1149 1.247 . S
C1156 O1150 1.261 . S
C1157 O1152 1.259 . S
C1157 O1154 1.235 . S
O1158 Co1148 2.021 . S
O1158 C1155 1.238 . S
O1159 Co1153 2.052 . S
O1159 C1155 1.241 . S
O1160 Co1148 2.137 . S
O1160 C1151 1.247 . S
O1161 Co1148 2.244 . S
O1161 C1151 1.272 . S
O1161 Co1153 2.135 . S
Co1162 O1163 2.216 . S
Co1162 O1164 2.091 . S
Co1162 O1166 2.004 . S
Co1162 O1172 2.021 . S
Co1162 O1174 2.137 . S
Co1162 O1175 2.244 . S
O1163 Co1162 2.216 . S
O1163 C1170 1.247 . S
O1164 Co1162 2.091 . S
O1164 C1170 1.261 . S
C1165 O1174 1.247 . S
C1165 O1175 1.272 . S
O1166 Co1162 2.004 . S
O1166 C1171 1.259 . S
Co1167 O1168 2.061 . S
Co1167 O1173 2.052 . S
Co1167 O1175 2.135 . S
O1168 Co1167 2.061 . S
O1168 C1171 1.235 . S
C1169 O1172 1.238 . S
C1169 O1173 1.241 . S
C1170 O1163 1.247 . S
C1170 O1164 1.261 . S
C1171 O1166 1.259 . S
C1171 O1168 1.235 . S
O1172 Co1162 2.021 . S
O1172 C1169 1.238 . S
O1173 Co1167 2.052 . S
O1173 C1169 1.241 . S
O1174 Co1162 2.137 . S
O1174 C1165 1.247 . S
O1175 Co1162 2.244 . S
O1175 C1165 1.272 . S
O1175 Co1167 2.135 . S
Co1176 O1177 2.216 . S
Co1176 O1178 2.091 . S
Co1176 O1180 2.004 . S
Co1176 O1186 2.021 . S
Co1176 O1188 2.137 . S
Co1176 O1189 2.244 . S
O1177 Co1176 2.216 . S
O1177 C1184 1.247 . S
O1178 Co1176 2.091 . S
O1178 C1184 1.261 . S
C1179 O1188 1.247 . S
C1179 O1189 1.272 . S
O1180 Co1176 2.004 . S
O1180 C1185 1.259 . S
Co1181 O1182 2.061 . S
Co1181 O1187 2.052 . S
Co1181 O1189 2.135 . S
O1182 Co1181 2.061 . S
O1182 C1185 1.235 . S
C1183 O1186 1.238 . S
C1183 O1187 1.241 . S
C1184 O1177 1.247 . S
C1184 O1178 1.261 . S
C1185 O1180 1.259 . S
C1185 O1182 1.235 . S
O1186 Co1176 2.021 . S
O1186 C1183 1.238 . S
O1187 Co1181 2.052 . S
O1187 C1183 1.241 . S
O1188 Co1176 2.137 . S
O1188 C1179 1.247 . S
O1189 Co1176 2.244 . S
O1189 C1179 1.272 . S
O1189 Co1181 2.135 . S
Co1190 O1191 2.216 . S
Co1190 O1192 2.091 . S
Co1190 O1194 2.004 . S
Co1190 O1200 2.021 . S
Co1190 O1202 2.137 . S
Co1190 O1203 2.244 . S
O1191 Co1190 2.216 . S
O1191 C1198 1.247 . S
O1192 Co1190 2.091 . S
O1192 C1198 1.261 . S
C1193 O1202 1.247 . S
C1193 O1203 1.272 . S
O1194 Co1190 2.004 . S
O1194 C1199 1.259 . S
Co1195 O1196 2.061 . S
Co1195 O1201 2.052 . S
Co1195 O1203 2.135 . S
O1196 Co1195 2.061 . S
O1196 C1199 1.235 . S
C1197 O1200 1.238 . S
C1197 O1201 1.241 . S
C1198 O1191 1.247 . S
C1198 O1192 1.261 . S
C1199 O1194 1.259 . S
C1199 O1196 1.235 . S
O1200 Co1190 2.021 . S
O1200 C1197 1.238 . S
O1201 Co1195 2.052 . S
O1201 C1197 1.241 . S
O1202 Co1190 2.137 . S
O1202 C1193 1.247 . S
O1203 Co1190 2.244 . S
O1203 C1193 1.272 . S
O1203 Co1195 2.135 . S
Co1204 O1205 2.216 . S
Co1204 O1206 2.091 . S
Co1204 O1208 2.004 . S
Co1204 O1214 2.021 . S
Co1204 O1216 2.137 . S
Co1204 O1217 2.244 . S
O1205 Co1204 2.216 . S
O1205 C1212 1.247 . S
O1206 Co1204 2.091 . S
O1206 C1212 1.261 . S
C1207 O1216 1.247 . S
C1207 O1217 1.272 . S
O1208 Co1204 2.004 . S
O1208 C1213 1.259 . S
Co1209 O1210 2.061 . S
Co1209 O1215 2.052 . S
Co1209 O1217 2.135 . S
O1210 Co1209 2.061 . S
O1210 C1213 1.235 . S
C1211 O1214 1.238 . S
C1211 O1215 1.241 . S
C1212 O1205 1.247 . S
C1212 O1206 1.261 . S
C1213 O1208 1.259 . S
C1213 O1210 1.235 . S
O1214 Co1204 2.021 . S
O1214 C1211 1.238 . S
O1215 Co1209 2.052 . S
O1215 C1211 1.241 . S
O1216 Co1204 2.137 . S
O1216 C1207 1.247 . S
O1217 Co1204 2.244 . S
O1217 C1207 1.272 . S
O1217 Co1209 2.135 . S
Co1218 O1219 2.216 . S
Co1218 O1220 2.091 . S
Co1218 O1222 2.004 . S
Co1218 O1228 2.021 . S
Co1218 O1230 2.137 . S
Co1218 O1231 2.244 . S
O1219 Co1218 2.216 . S
O1219 C1226 1.247 . S
O1220 Co1218 2.091 . S
O1220 C1226 1.261 . S
C1221 O1230 1.247 . S
C1221 O1231 1.272 . S
O1222 Co1218 2.004 . S
O1222 C1227 1.259 . S
Co1223 O1224 2.061 . S
Co1223 O1229 2.052 . S
Co1223 O1231 2.135 . S
O1224 Co1223 2.061 . S
O1224 C1227 1.235 . S
C1225 O1228 1.238 . S
C1225 O1229 1.241 . S
C1226 O1219 1.247 . S
C1226 O1220 1.261 . S
C1227 O1222 1.259 . S
C1227 O1224 1.235 . S
O1228 Co1218 2.021 . S
O1228 C1225 1.238 . S
O1229 Co1223 2.052 . S
O1229 C1225 1.241 . S
O1230 Co1218 2.137 . S
O1230 C1221 1.247 . S
O1231 Co1218 2.244 . S
O1231 C1221 1.272 . S
O1231 Co1223 2.135 . S
Co1232 O1233 2.216 . S
Co1232 O1234 2.091 . S
Co1232 O1236 2.004 . S
Co1232 O1242 2.021 . S
Co1232 O1244 2.137 . S
Co1232 O1245 2.244 . S
O1233 Co1232 2.216 . S
O1233 C1240 1.247 . S
O1234 Co1232 2.091 . S
O1234 C1240 1.261 . S
C1235 O1244 1.247 . S
C1235 O1245 1.272 . S
O1236 Co1232 2.004 . S
O1236 C1241 1.259 . S
Co1237 O1238 2.061 . S
Co1237 O1243 2.052 . S
Co1237 O1245 2.135 . S
O1238 Co1237 2.061 . S
O1238 C1241 1.235 . S
C1239 O1242 1.238 . S
C1239 O1243 1.241 . S
C1240 O1233 1.247 . S
C1240 O1234 1.261 . S
C1241 O1236 1.259 . S
C1241 O1238 1.235 . S
O1242 Co1232 2.021 . S
O1242 C1239 1.238 . S
O1243 Co1237 2.052 . S
O1243 C1239 1.241 . S
O1244 Co1232 2.137 . S
O1244 C1235 1.247 . S
O1245 Co1232 2.244 . S
O1245 C1235 1.272 . S
O1245 Co1237 2.135 . S
Co1246 O1247 2.216 . S
Co1246 O1248 2.091 . S
Co1246 O1250 2.004 . S
Co1246 O1256 2.021 . S
Co1246 O1258 2.137 . S
Co1246 O1259 2.244 . S
O1247 Co1246 2.216 . S
O1247 C1254 1.247 . S
O1248 Co1246 2.091 . S
O1248 C1254 1.261 . S
C1249 O1258 1.247 . S
C1249 O1259 1.272 . S
O1250 Co1246 2.004 . S
O1250 C1255 1.259 . S
Co1251 O1252 2.061 . S
Co1251 O1257 2.052 . S
Co1251 O1259 2.135 . S
O1252 Co1251 2.061 . S
O1252 C1255 1.235 . S
C1253 O1256 1.238 . S
C1253 O1257 1.241 . S
C1254 O1247 1.247 . S
C1254 O1248 1.261 . S
C1255 O1250 1.259 . S
C1255 O1252 1.235 . S
O1256 Co1246 2.021 . S
O1256 C1253 1.238 . S
O1257 Co1251 2.052 . S
O1257 C1253 1.241 . S
O1258 Co1246 2.137 . S
O1258 C1249 1.247 . S
O1259 Co1246 2.244 . S
O1259 C1249 1.272 . S
O1259 Co1251 2.135 . S
Co1260 O1261 2.216 . S
Co1260 O1262 2.091 . S
Co1260 O1264 2.004 . S
Co1260 O1270 2.021 . S
Co1260 O1272 2.137 . S
Co1260 O1273 2.244 . S
O1261 Co1260 2.216 . S
O1261 C1268 1.247 . S
O1262 Co1260 2.091 . S
O1262 C1268 1.261 . S
C1263 O1272 1.247 . S
C1263 O1273 1.272 . S
O1264 Co1260 2.004 . S
O1264 C1269 1.259 . S
Co1265 O1266 2.061 . S
Co1265 O1271 2.052 . S
Co1265 O1273 2.135 . S
O1266 Co1265 2.061 . S
O1266 C1269 1.235 . S
C1267 O1270 1.238 . S
C1267 O1271 1.241 . S
C1268 O1261 1.247 . S
C1268 O1262 1.261 . S
C1269 O1264 1.259 . S
C1269 O1266 1.235 . S
O1270 Co1260 2.021 . S
O1270 C1267 1.238 . S
O1271 Co1265 2.052 . S
O1271 C1267 1.241 . S
O1272 Co1260 2.137 . S
O1272 C1263 1.247 . S
O1273 Co1260 2.244 . S
O1273 C1263 1.272 . S
O1273 Co1265 2.135 . S
Co1274 O1275 2.216 1_554 S
Co1274 O1276 2.080 1_554 S
Co1274 O1278 2.004 . S
Co1274 O1284 2.021 1_554 S
Co1274 O1286 2.137 . S
Co1274 O1287 2.244 . S
O1275 Co1274 2.216 1_556 S
O1275 C1282 1.247 . S
O1276 Co1274 2.080 1_556 S
O1276 C1282 1.293 . S
C1277 O1286 1.247 . S
C1277 O1287 1.272 . S
O1278 Co1274 2.004 . S
O1278 C1283 1.259 . S
Co1279 O1280 2.061 . S
Co1279 O1285 2.052 1_554 S
Co1279 O1287 2.135 . S
O1280 Co1279 2.061 . S
O1280 C1283 1.235 . S
C1281 O1284 1.238 . S
C1281 O1285 1.241 . S
C1282 O1275 1.247 . S
C1282 O1276 1.293 . S
C1283 O1278 1.259 . S
C1283 O1280 1.235 . S
O1284 Co1274 2.021 1_556 S
O1284 C1281 1.238 . S
O1285 Co1279 2.052 1_556 S
O1285 C1281 1.241 . S
O1286 Co1274 2.137 . S
O1286 C1277 1.247 . S
O1287 Co1274 2.244 . S
O1287 C1277 1.272 . S
O1287 Co1279 2.135 . S
Co1288 O1289 2.216 . S
Co1288 O1290 2.091 . S
Co1288 O1292 2.004 . S
Co1288 O1298 2.021 . S
Co1288 O1300 2.137 . S
Co1288 O1301 2.244 . S
O1289 Co1288 2.216 . S
O1289 C1296 1.247 . S
O1290 Co1288 2.091 . S
O1290 C1296 1.261 . S
C1291 O1300 1.247 . S
C1291 O1301 1.272 . S
O1292 Co1288 2.004 . S
O1292 C1297 1.259 . S
Co1293 O1294 2.061 . S
Co1293 O1299 2.052 . S
Co1293 O1301 2.135 . S
O1294 Co1293 2.061 . S
O1294 C1297 1.235 . S
C1295 O1298 1.238 . S
C1295 O1299 1.241 . S
C1296 O1289 1.247 . S
C1296 O1290 1.261 . S
C1297 O1292 1.259 . S
C1297 O1294 1.235 . S
O1298 Co1288 2.021 . S
O1298 C1295 1.238 . S
O1299 Co1293 2.052 . S
O1299 C1295 1.241 . S
O1300 Co1288 2.137 . S
O1300 C1291 1.247 . S
O1301 Co1288 2.244 . S
O1301 C1291 1.272 . S
O1301 Co1293 2.135 . S
Co1302 O1303 2.216 1_556 S
Co1302 O1304 2.083 1_556 S
Co1302 O1306 2.004 . S
Co1302 O1312 2.021 1_556 S
Co1302 O1314 2.137 . S
Co1302 O1315 2.244 . S
O1303 Co1302 2.216 1_554 S
O1303 C1310 1.247 . S
O1304 Co1302 2.083 1_554 S
O1304 C1310 1.282 . S
C1305 O1314 1.247 . S
C1305 O1315 1.272 . S
O1306 Co1302 2.004 . S
O1306 C1311 1.259 . S
Co1307 O1308 2.061 . S
Co1307 O1313 2.052 1_556 S
Co1307 O1315 2.135 . S
O1308 Co1307 2.061 . S
O1308 C1311 1.235 . S
C1309 O1312 1.238 . S
C1309 O1313 1.241 . S
C1310 O1303 1.247 . S
C1310 O1304 1.282 . S
C1311 O1306 1.259 . S
C1311 O1308 1.235 . S
O1312 Co1302 2.021 1_554 S
O1312 C1309 1.238 . S
O1313 Co1307 2.052 1_554 S
O1313 C1309 1.241 . S
O1314 Co1302 2.137 . S
O1314 C1305 1.247 . S
O1315 Co1302 2.244 . S
O1315 C1305 1.272 . S
O1315 Co1307 2.135 . S
Co1316 O1317 2.216 . S
Co1316 O1318 2.091 . S
Co1316 O1320 2.004 . S
Co1316 O1326 2.021 . S
Co1316 O1328 2.137 . S
Co1316 O1329 2.244 . S
O1317 Co1316 2.216 . S
O1317 C1324 1.247 . S
O1318 Co1316 2.091 . S
O1318 C1324 1.261 . S
C1319 O1328 1.247 . S
C1319 O1329 1.272 . S
O1320 Co1316 2.004 . S
O1320 C1325 1.259 . S
Co1321 O1322 2.061 . S
Co1321 O1327 2.052 . S
Co1321 O1329 2.135 . S
O1322 Co1321 2.061 . S
O1322 C1325 1.235 . S
C1323 O1326 1.238 . S
C1323 O1327 1.241 . S
C1324 O1317 1.247 . S
C1324 O1318 1.261 . S
C1325 O1320 1.259 . S
C1325 O1322 1.235 . S
O1326 Co1316 2.021 . S
O1326 C1323 1.238 . S
O1327 Co1321 2.052 . S
O1327 C1323 1.241 . S
O1328 Co1316 2.137 . S
O1328 C1319 1.247 . S
O1329 Co1316 2.244 . S
O1329 C1319 1.272 . S
O1329 Co1321 2.135 . S
Co1330 O1331 2.216 . S
Co1330 O1332 2.091 . S
Co1330 O1334 2.004 . S
Co1330 O1340 2.021 . S
Co1330 O1342 2.137 . S
Co1330 O1343 2.244 . S
O1331 Co1330 2.216 . S
O1331 C1338 1.247 . S
O1332 Co1330 2.091 . S
O1332 C1338 1.261 . S
C1333 O1342 1.247 . S
C1333 O1343 1.272 . S
O1334 Co1330 2.004 . S
O1334 C1339 1.259 . S
Co1335 O1336 2.061 . S
Co1335 O1341 2.052 . S
Co1335 O1343 2.135 . S
O1336 Co1335 2.061 . S
O1336 C1339 1.235 . S
C1337 O1340 1.238 . S
C1337 O1341 1.241 . S
C1338 O1331 1.247 . S
C1338 O1332 1.261 . S
C1339 O1334 1.259 . S
C1339 O1336 1.235 . S
O1340 Co1330 2.021 . S
O1340 C1337 1.238 . S
O1341 Co1335 2.052 . S
O1341 C1337 1.241 . S
O1342 Co1330 2.137 . S
O1342 C1333 1.247 . S
O1343 Co1330 2.244 . S
O1343 C1333 1.272 . S
O1343 Co1335 2.135 . S
H1344 C1350 0.930 . S
H1345 C1353 0.930 . S
H1346 C1354 0.930 . S
H1347 C1355 0.930 . S
H1348 C1358 0.930 . S
H1349 C1359 0.930 . S
C1350 H1344 0.930 . S
C1350 C1351 1.355 . S
C1350 C1352 1.415 . S
C1351 C1350 1.355 . S
C1351 C1353 1.419 . S
C1352 C1350 1.415 . S
C1352 C1357 1.425 . S
C1352 C1359 1.409 . S
C1353 H1345 0.930 . S
C1353 C1351 1.419 . S
C1353 C1354 1.362 . S
C1354 H1346 0.930 . S
C1354 C1353 1.362 . S
C1354 C1357 1.409 . S
C1355 H1347 0.930 . S
C1355 C1356 1.355 . S
C1355 C1357 1.415 . S
C1356 C1355 1.355 . S
C1356 C1358 1.419 . S
C1357 C1352 1.425 . S
C1357 C1354 1.409 . S
C1357 C1355 1.415 . S
C1358 H1348 0.930 . S
C1358 C1356 1.419 . S
C1358 C1359 1.362 . S
C1359 H1349 0.930 . S
C1359 C1352 1.409 . S
C1359 C1358 1.362 . S
H1360 C1366 0.930 . S
H1361 C1369 0.930 . S
H1362 C1370 0.930 . S
H1363 C1371 0.930 . S
H1364 C1374 0.930 . S
H1365 C1375 0.930 . S
C1366 H1360 0.930 . S
C1366 C1367 1.355 . S
C1366 C1368 1.415 . S
C1367 C1366 1.355 . S
C1367 C1369 1.419 . S
C1368 C1366 1.415 . S
C1368 C1373 1.425 . S
C1368 C1375 1.409 . S
C1369 H1361 0.930 . S
C1369 C1367 1.419 . S
C1369 C1370 1.362 . S
C1370 H1362 0.930 . S
C1370 C1369 1.362 . S
C1370 C1373 1.409 . S
C1371 H1363 0.930 . S
C1371 C1372 1.355 . S
C1371 C1373 1.415 . S
C1372 C1371 1.355 . S
C1372 C1374 1.419 . S
C1373 C1368 1.425 . S
C1373 C1370 1.409 . S
C1373 C1371 1.415 . S
C1374 H1364 0.930 . S
C1374 C1372 1.419 . S
C1374 C1375 1.362 . S
C1375 H1365 0.930 . S
C1375 C1368 1.409 . S
C1375 C1374 1.362 . S
H1376 C1382 0.930 . S
H1377 C1385 0.930 . S
H1378 C1386 0.930 . S
H1379 C1387 0.930 . S
H1380 C1390 0.930 . S
H1381 C1391 0.930 . S
C1382 H1376 0.930 . S
C1382 C1383 1.355 . S
C1382 C1384 1.415 . S
C1383 C1382 1.355 . S
C1383 C1385 1.419 . S
C1384 C1382 1.415 . S
C1384 C1389 1.425 . S
C1384 C1391 1.409 . S
C1385 H1377 0.930 . S
C1385 C1383 1.419 . S
C1385 C1386 1.362 . S
C1386 H1378 0.930 . S
C1386 C1385 1.362 . S
C1386 C1389 1.409 . S
C1387 H1379 0.930 . S
C1387 C1388 1.355 . S
C1387 C1389 1.415 . S
C1388 C1387 1.355 . S
C1388 C1390 1.419 . S
C1389 C1384 1.425 . S
C1389 C1386 1.409 . S
C1389 C1387 1.415 . S
C1390 H1380 0.930 . S
C1390 C1388 1.419 . S
C1390 C1391 1.362 . S
C1391 H1381 0.930 . S
C1391 C1384 1.409 . S
C1391 C1390 1.362 . S
H1392 C1398 0.930 . S
H1393 C1401 0.930 . S
H1394 C1402 0.930 . S
H1395 C1403 0.930 . S
H1396 C1406 0.930 . S
H1397 C1407 0.930 . S
C1398 H1392 0.930 . S
C1398 C1399 1.355 . S
C1398 C1400 1.415 . S
C1399 C1398 1.355 . S
C1399 C1401 1.419 . S
C1400 C1398 1.415 . S
C1400 C1405 1.425 . S
C1400 C1407 1.409 . S
C1401 H1393 0.930 . S
C1401 C1399 1.419 . S
C1401 C1402 1.362 . S
C1402 H1394 0.930 . S
C1402 C1401 1.362 . S
C1402 C1405 1.409 . S
C1403 H1395 0.930 . S
C1403 C1404 1.355 . S
C1403 C1405 1.415 . S
C1404 C1403 1.355 . S
C1404 C1406 1.419 . S
C1405 C1400 1.425 . S
C1405 C1402 1.409 . S
C1405 C1403 1.415 . S
C1406 H1396 0.930 . S
C1406 C1404 1.419 . S
C1406 C1407 1.362 . S
C1407 H1397 0.930 . S
C1407 C1400 1.409 . S
C1407 C1406 1.362 . S
H1408 C1414 0.930 . S
H1409 C1417 0.930 . S
H1410 C1418 0.930 . S
H1411 C1419 0.930 . S
H1412 C1422 0.930 . S
H1413 C1423 0.930 . S
C1414 H1408 0.930 . S
C1414 C1415 1.355 . S
C1414 C1416 1.415 . S
C1415 C1414 1.355 . S
C1415 C1417 1.419 . S
C1416 C1414 1.415 . S
C1416 C1421 1.425 . S
C1416 C1423 1.409 . S
C1417 H1409 0.930 . S
C1417 C1415 1.419 . S
C1417 C1418 1.362 . S
C1418 H1410 0.930 . S
C1418 C1417 1.362 . S
C1418 C1421 1.409 . S
C1419 H1411 0.930 . S
C1419 C1420 1.355 . S
C1419 C1421 1.415 . S
C1420 C1419 1.355 . S
C1420 C1422 1.419 . S
C1421 C1416 1.425 . S
C1421 C1418 1.409 . S
C1421 C1419 1.415 . S
C1422 H1412 0.930 . S
C1422 C1420 1.419 . S
C1422 C1423 1.362 . S
C1423 H1413 0.930 . S
C1423 C1416 1.409 . S
C1423 C1422 1.362 . S
H1424 C1430 0.930 . S
H1425 C1433 0.930 . S
H1426 C1434 0.930 . S
H1427 C1435 0.930 . S
H1428 C1438 0.930 . S
H1429 C1439 0.930 . S
C1430 H1424 0.930 . S
C1430 C1431 1.355 . S
C1430 C1432 1.415 . S
C1431 C1430 1.355 . S
C1431 C1433 1.419 . S
C1432 C1430 1.415 . S
C1432 C1437 1.425 . S
C1432 C1439 1.409 . S
C1433 H1425 0.930 . S
C1433 C1431 1.419 . S
C1433 C1434 1.362 . S
C1434 H1426 0.930 . S
C1434 C1433 1.362 . S
C1434 C1437 1.409 . S
C1435 H1427 0.930 . S
C1435 C1436 1.355 . S
C1435 C1437 1.415 . S
C1436 C1435 1.355 . S
C1436 C1438 1.419 . S
C1437 C1432 1.425 . S
C1437 C1434 1.409 . S
C1437 C1435 1.415 . S
C1438 H1428 0.930 . S
C1438 C1436 1.419 . S
C1438 C1439 1.362 . S
C1439 H1429 0.930 . S
C1439 C1432 1.409 . S
C1439 C1438 1.362 . S
H1440 C1446 0.930 . S
H1441 C1449 0.930 . S
H1442 C1450 0.930 . S
H1443 C1451 0.930 . S
H1444 C1454 0.930 . S
H1445 C1455 0.930 . S
C1446 H1440 0.930 . S
C1446 C1447 1.355 . S
C1446 C1448 1.415 . S
C1447 C1446 1.355 . S
C1447 C1449 1.419 . S
C1448 C1446 1.415 . S
C1448 C1453 1.425 . S
C1448 C1455 1.409 . S
C1449 H1441 0.930 . S
C1449 C1447 1.419 . S
C1449 C1450 1.362 . S
C1450 H1442 0.930 . S
C1450 C1449 1.362 . S
C1450 C1453 1.409 . S
C1451 H1443 0.930 . S
C1451 C1452 1.355 . S
C1451 C1453 1.415 . S
C1452 C1451 1.355 . S
C1452 C1454 1.419 . S
C1453 C1448 1.425 . S
C1453 C1450 1.409 . S
C1453 C1451 1.415 . S
C1454 H1444 0.930 . S
C1454 C1452 1.419 . S
C1454 C1455 1.362 . S
C1455 H1445 0.930 . S
C1455 C1448 1.409 . S
C1455 C1454 1.362 . S
H1456 C1462 0.930 . S
H1457 C1465 0.930 . S
H1458 C1466 0.930 . S
H1459 C1467 0.930 . S
H1460 C1470 0.930 . S
H1461 C1471 0.930 . S
C1462 H1456 0.930 . S
C1462 C1463 1.355 . S
C1462 C1464 1.415 . S
C1463 C1462 1.355 . S
C1463 C1465 1.419 . S
C1464 C1462 1.415 . S
C1464 C1469 1.425 . S
C1464 C1471 1.409 . S
C1465 H1457 0.930 . S
C1465 C1463 1.419 . S
C1465 C1466 1.362 . S
C1466 H1458 0.930 . S
C1466 C1465 1.362 . S
C1466 C1469 1.409 . S
C1467 H1459 0.930 . S
C1467 C1468 1.355 . S
C1467 C1469 1.415 . S
C1468 C1467 1.355 . S
C1468 C1470 1.419 . S
C1469 C1464 1.425 . S
C1469 C1466 1.409 . S
C1469 C1467 1.415 . S
C1470 H1460 0.930 . S
C1470 C1468 1.419 . S
C1470 C1471 1.362 . S
C1471 H1461 0.930 . S
C1471 C1464 1.409 . S
C1471 C1470 1.362 . S
H1472 C1478 0.930 . S
H1473 C1481 0.930 . S
H1474 C1482 0.930 . S
H1475 C1483 0.930 . S
H1476 C1486 0.930 . S
H1477 C1487 0.930 . S
C1478 H1472 0.930 . S
C1478 C1479 1.355 . S
C1478 C1480 1.415 . S
C1479 C1478 1.355 . S
C1479 C1481 1.419 . S
C1480 C1478 1.415 . S
C1480 C1485 1.425 . S
C1480 C1487 1.409 . S
C1481 H1473 0.930 . S
C1481 C1479 1.419 . S
C1481 C1482 1.362 . S
C1482 H1474 0.930 . S
C1482 C1481 1.362 . S
C1482 C1485 1.409 . S
C1483 H1475 0.930 . S
C1483 C1484 1.355 . S
C1483 C1485 1.415 . S
C1484 C1483 1.355 . S
C1484 C1486 1.419 . S
C1485 C1480 1.425 . S
C1485 C1482 1.409 . S
C1485 C1483 1.415 . S
C1486 H1476 0.930 . S
C1486 C1484 1.419 . S
C1486 C1487 1.362 . S
C1487 H1477 0.930 . S
C1487 C1480 1.409 . S
C1487 C1486 1.362 . S
H1488 C1494 0.930 . S
H1489 C1497 0.930 . S
H1490 C1498 0.930 . S
H1491 C1499 0.930 . S
H1492 C1502 0.930 . S
H1493 C1503 0.930 . S
C1494 H1488 0.930 . S
C1494 C1495 1.355 . S
C1494 C1496 1.415 . S
C1495 C1494 1.355 . S
C1495 C1497 1.419 . S
C1496 C1494 1.415 . S
C1496 C1501 1.425 . S
C1496 C1503 1.409 . S
C1497 H1489 0.930 . S
C1497 C1495 1.419 . S
C1497 C1498 1.362 . S
C1498 H1490 0.930 . S
C1498 C1497 1.362 . S
C1498 C1501 1.409 . S
C1499 H1491 0.930 . S
C1499 C1500 1.355 . S
C1499 C1501 1.415 . S
C1500 C1499 1.355 . S
C1500 C1502 1.419 . S
C1501 C1496 1.425 . S
C1501 C1498 1.409 . S
C1501 C1499 1.415 . S
C1502 H1492 0.930 . S
C1502 C1500 1.419 . S
C1502 C1503 1.362 . S
C1503 H1493 0.930 . S
C1503 C1496 1.409 . S
C1503 C1502 1.362 . S
H1504 C1510 0.930 . S
H1505 C1513 0.930 . S
H1506 C1514 0.930 . S
H1507 C1515 0.930 . S
H1508 C1518 0.930 . S
H1509 C1519 0.930 . S
C1510 H1504 0.930 . S
C1510 C1511 1.355 . S
C1510 C1512 1.415 . S
C1511 C1510 1.355 . S
C1511 C1513 1.419 . S
C1512 C1510 1.415 . S
C1512 C1517 1.425 . S
C1512 C1519 1.409 . S
C1513 H1505 0.930 . S
C1513 C1511 1.419 . S
C1513 C1514 1.362 . S
C1514 H1506 0.930 . S
C1514 C1513 1.362 . S
C1514 C1517 1.409 . S
C1515 H1507 0.930 . S
C1515 C1516 1.355 . S
C1515 C1517 1.415 . S
C1516 C1515 1.355 . S
C1516 C1518 1.419 . S
C1517 C1512 1.425 . S
C1517 C1514 1.409 . S
C1517 C1515 1.415 . S
C1518 H1508 0.930 . S
C1518 C1516 1.419 . S
C1518 C1519 1.362 . S
C1519 H1509 0.930 . S
C1519 C1512 1.409 . S
C1519 C1518 1.362 . S
H1520 C1526 0.930 . S
H1521 C1529 0.930 . S
H1522 C1530 0.930 . S
H1523 C1531 0.930 . S
H1524 C1534 0.930 . S
H1525 C1535 0.930 . S
C1526 H1520 0.930 . S
C1526 C1527 1.355 . S
C1526 C1528 1.415 . S
C1527 C1526 1.355 . S
C1527 C1529 1.419 . S
C1528 C1526 1.415 . S
C1528 C1533 1.425 . S
C1528 C1535 1.409 . S
C1529 H1521 0.930 . S
C1529 C1527 1.419 . S
C1529 C1530 1.362 . S
C1530 H1522 0.930 . S
C1530 C1529 1.362 . S
C1530 C1533 1.409 . S
C1531 H1523 0.930 . S
C1531 C1532 1.355 . S
C1531 C1533 1.415 . S
C1532 C1531 1.355 . S
C1532 C1534 1.419 . S
C1533 C1528 1.425 . S
C1533 C1530 1.409 . S
C1533 C1531 1.415 . S
C1534 H1524 0.930 . S
C1534 C1532 1.419 . S
C1534 C1535 1.362 . S
C1535 H1525 0.930 . S
C1535 C1528 1.409 . S
C1535 C1534 1.362 . S
H1536 C1542 0.930 . S
H1537 C1545 0.930 . S
H1538 C1546 0.930 . S
H1539 C1547 0.930 . S
H1540 C1550 0.930 . S
H1541 C1551 0.930 . S
C1542 H1536 0.930 . S
C1542 C1543 1.355 . S
C1542 C1544 1.415 . S
C1543 C1542 1.355 . S
C1543 C1545 1.419 . S
C1544 C1542 1.415 . S
C1544 C1549 1.425 . S
C1544 C1551 1.409 . S
C1545 H1537 0.930 . S
C1545 C1543 1.419 . S
C1545 C1546 1.362 . S
C1546 H1538 0.930 . S
C1546 C1545 1.362 . S
C1546 C1549 1.409 . S
C1547 H1539 0.930 . S
C1547 C1548 1.355 . S
C1547 C1549 1.415 . S
C1548 C1547 1.355 . S
C1548 C1550 1.419 . S
C1549 C1544 1.425 . S
C1549 C1546 1.409 . S
C1549 C1547 1.415 . S
C1550 H1540 0.930 . S
C1550 C1548 1.419 . S
C1550 C1551 1.362 . S
C1551 H1541 0.930 . S
C1551 C1544 1.409 . S
C1551 C1550 1.362 . S
H1552 C1558 0.930 . S
H1553 C1561 0.930 . S
H1554 C1562 0.930 . S
H1555 C1563 0.930 . S
H1556 C1566 0.930 . S
H1557 C1567 0.930 . S
C1558 H1552 0.930 . S
C1558 C1559 1.355 . S
C1558 C1560 1.415 . S
C1559 C1558 1.355 . S
C1559 C1561 1.419 . S
C1560 C1558 1.415 . S
C1560 C1565 1.425 . S
C1560 C1567 1.409 . S
C1561 H1553 0.930 . S
C1561 C1559 1.419 . S
C1561 C1562 1.362 . S
C1562 H1554 0.930 . S
C1562 C1561 1.362 . S
C1562 C1565 1.409 . S
C1563 H1555 0.930 . S
C1563 C1564 1.355 . S
C1563 C1565 1.415 . S
C1564 C1563 1.355 . S
C1564 C1566 1.419 . S
C1565 C1560 1.425 . S
C1565 C1562 1.409 . S
C1565 C1563 1.415 . S
C1566 H1556 0.930 . S
C1566 C1564 1.419 . S
C1566 C1567 1.362 . S
C1567 H1557 0.930 . S
C1567 C1560 1.409 . S
C1567 C1566 1.362 . S
H1568 C1574 0.930 . S
H1569 C1577 0.930 . S
H1570 C1578 0.930 . S
H1571 C1579 0.930 . S
H1572 C1582 0.930 . S
H1573 C1583 0.930 . S
C1574 H1568 0.930 . S
C1574 C1575 1.355 . S
C1574 C1576 1.415 . S
C1575 C1574 1.355 . S
C1575 C1577 1.419 . S
C1576 C1574 1.415 . S
C1576 C1581 1.425 . S
C1576 C1583 1.409 . S
C1577 H1569 0.930 . S
C1577 C1575 1.419 . S
C1577 C1578 1.362 . S
C1578 H1570 0.930 . S
C1578 C1577 1.362 . S
C1578 C1581 1.409 . S
C1579 H1571 0.930 . S
C1579 C1580 1.355 . S
C1579 C1581 1.415 . S
C1580 C1579 1.355 . S
C1580 C1582 1.419 . S
C1581 C1576 1.425 . S
C1581 C1578 1.409 . S
C1581 C1579 1.415 . S
C1582 H1572 0.930 . S
C1582 C1580 1.419 . S
C1582 C1583 1.362 . S
C1583 H1573 0.930 . S
C1583 C1576 1.409 . S
C1583 C1582 1.362 . S
H1584 C1590 0.930 . S
H1585 C1593 0.930 . S
H1586 C1594 0.930 . S
H1587 C1595 0.930 . S
H1588 C1598 0.930 . S
H1589 C1599 0.930 . S
C1590 H1584 0.930 . S
C1590 C1591 1.355 . S
C1590 C1592 1.415 . S
C1591 C1590 1.355 . S
C1591 C1593 1.419 . S
C1592 C1590 1.415 . S
C1592 C1597 1.425 . S
C1592 C1599 1.409 . S
C1593 H1585 0.930 . S
C1593 C1591 1.419 . S
C1593 C1594 1.362 . S
C1594 H1586 0.930 . S
C1594 C1593 1.362 . S
C1594 C1597 1.409 . S
C1595 H1587 0.930 . S
C1595 C1596 1.355 . S
C1595 C1597 1.415 . S
C1596 C1595 1.355 . S
C1596 C1598 1.419 . S
C1597 C1592 1.425 . S
C1597 C1594 1.409 . S
C1597 C1595 1.415 . S
C1598 H1588 0.930 . S
C1598 C1596 1.419 . S
C1598 C1599 1.362 . S
C1599 H1589 0.930 . S
C1599 C1592 1.409 . S
C1599 C1598 1.362 . S
H1600 C1606 0.930 . S
H1601 C1609 0.930 . S
H1602 C1610 0.930 . S
H1603 C1611 0.930 . S
H1604 C1614 0.930 . S
H1605 C1615 0.930 . S
C1606 H1600 0.930 . S
C1606 C1607 1.355 . S
C1606 C1608 1.415 . S
C1607 C1606 1.355 . S
C1607 C1609 1.419 . S
C1608 C1606 1.415 . S
C1608 C1613 1.425 . S
C1608 C1615 1.409 . S
C1609 H1601 0.930 . S
C1609 C1607 1.419 . S
C1609 C1610 1.362 . S
C1610 H1602 0.930 . S
C1610 C1609 1.362 . S
C1610 C1613 1.409 . S
C1611 H1603 0.930 . S
C1611 C1612 1.355 . S
C1611 C1613 1.415 . S
C1612 C1611 1.355 . S
C1612 C1614 1.419 . S
C1613 C1608 1.425 . S
C1613 C1610 1.409 . S
C1613 C1611 1.415 . S
C1614 H1604 0.930 . S
C1614 C1612 1.419 . S
C1614 C1615 1.362 . S
C1615 H1605 0.930 . S
C1615 C1608 1.409 . S
C1615 C1614 1.362 . S
H1616 C1622 0.930 . S
H1617 C1625 0.930 . S
H1618 C1626 0.930 . S
H1619 C1627 0.930 . S
H1620 C1630 0.930 . S
H1621 C1631 0.930 . S
C1622 H1616 0.930 . S
C1622 C1623 1.355 . S
C1622 C1624 1.415 . S
C1623 C1622 1.355 . S
C1623 C1625 1.419 . S
C1624 C1622 1.415 . S
C1624 C1629 1.425 . S
C1624 C1631 1.409 . S
C1625 H1617 0.930 . S
C1625 C1623 1.419 . S
C1625 C1626 1.362 . S
C1626 H1618 0.930 . S
C1626 C1625 1.362 . S
C1626 C1629 1.409 . S
C1627 H1619 0.930 . S
C1627 C1628 1.355 . S
C1627 C1629 1.415 . S
C1628 C1627 1.355 . S
C1628 C1630 1.419 . S
C1629 C1624 1.425 . S
C1629 C1626 1.409 . S
C1629 C1627 1.415 . S
C1630 H1620 0.930 . S
C1630 C1628 1.419 . S
C1630 C1631 1.362 . S
C1631 H1621 0.930 . S
C1631 C1624 1.409 . S
C1631 C1630 1.362 . S
H1632 C1638 0.930 . S
H1633 C1641 0.930 . S
H1634 C1642 0.930 . S
H1635 C1643 0.930 . S
H1636 C1646 0.930 . S
H1637 C1647 0.930 . S
C1638 H1632 0.930 . S
C1638 C1639 1.355 . S
C1638 C1640 1.415 . S
C1639 C1638 1.355 . S
C1639 C1641 1.419 . S
C1640 C1638 1.415 . S
C1640 C1645 1.425 . S
C1640 C1647 1.409 . S
C1641 H1633 0.930 . S
C1641 C1639 1.419 . S
C1641 C1642 1.362 . S
C1642 H1634 0.930 . S
C1642 C1641 1.362 . S
C1642 C1645 1.409 . S
C1643 H1635 0.930 . S
C1643 C1644 1.355 . S
C1643 C1645 1.415 . S
C1644 C1643 1.355 . S
C1644 C1646 1.419 . S
C1645 C1640 1.425 . S
C1645 C1642 1.409 . S
C1645 C1643 1.415 . S
C1646 H1636 0.930 . S
C1646 C1644 1.419 . S
C1646 C1647 1.362 . S
C1647 H1637 0.930 . S
C1647 C1640 1.409 . S
C1647 C1646 1.362 . S
H1648 C1654 0.930 . S
H1649 C1657 0.930 . S
H1650 C1658 0.930 . S
H1651 C1659 0.930 . S
H1652 C1662 0.930 . S
H1653 C1663 0.930 . S
C1654 H1648 0.930 . S
C1654 C1655 1.355 . S
C1654 C1656 1.415 . S
C1655 C1654 1.355 . S
C1655 C1657 1.419 . S
C1656 C1654 1.415 . S
C1656 C1661 1.425 . S
C1656 C1663 1.409 . S
C1657 H1649 0.930 . S
C1657 C1655 1.419 . S
C1657 C1658 1.362 . S
C1658 H1650 0.930 . S
C1658 C1657 1.362 . S
C1658 C1661 1.409 . S
C1659 H1651 0.930 . S
C1659 C1660 1.355 . S
C1659 C1661 1.415 . S
C1660 C1659 1.355 . S
C1660 C1662 1.419 . S
C1661 C1656 1.425 . S
C1661 C1658 1.409 . S
C1661 C1659 1.415 . S
C1662 H1652 0.930 . S
C1662 C1660 1.419 . S
C1662 C1663 1.362 . S
C1663 H1653 0.930 . S
C1663 C1656 1.409 . S
C1663 C1662 1.362 . S
H1664 C1670 0.930 . S
H1665 C1673 0.930 . S
H1666 C1674 0.930 . S
H1667 C1675 0.930 . S
H1668 C1678 0.930 . S
H1669 C1679 0.930 . S
C1670 H1664 0.930 . S
C1670 C1671 1.355 . S
C1670 C1672 1.415 . S
C1671 C1670 1.355 . S
C1671 C1673 1.419 . S
C1672 C1670 1.415 . S
C1672 C1677 1.425 . S
C1672 C1679 1.409 . S
C1673 H1665 0.930 . S
C1673 C1671 1.419 . S
C1673 C1674 1.362 . S
C1674 H1666 0.930 . S
C1674 C1673 1.362 . S
C1674 C1677 1.409 . S
C1675 H1667 0.930 . S
C1675 C1676 1.355 . S
C1675 C1677 1.415 . S
C1676 C1675 1.355 . S
C1676 C1678 1.419 . S
C1677 C1672 1.425 . S
C1677 C1674 1.409 . S
C1677 C1675 1.415 . S
C1678 H1668 0.930 . S
C1678 C1676 1.419 . S
C1678 C1679 1.362 . S
C1679 H1669 0.930 . S
C1679 C1672 1.409 . S
C1679 C1678 1.362 . S
H1680 C1686 0.930 . S
H1681 C1689 0.930 . S
H1682 C1690 0.930 . S
H1683 C1691 0.930 . S
H1684 C1694 0.930 . S
H1685 C1695 0.930 . S
C1686 H1680 0.930 . S
C1686 C1687 1.355 . S
C1686 C1688 1.415 . S
C1687 C1686 1.355 . S
C1687 C1689 1.419 . S
C1688 C1686 1.415 . S
C1688 C1693 1.425 . S
C1688 C1695 1.409 . S
C1689 H1681 0.930 . S
C1689 C1687 1.419 . S
C1689 C1690 1.362 . S
C1690 H1682 0.930 . S
C1690 C1689 1.362 . S
C1690 C1693 1.409 . S
C1691 H1683 0.930 . S
C1691 C1692 1.355 . S
C1691 C1693 1.415 . S
C1692 C1691 1.355 . S
C1692 C1694 1.419 . S
C1693 C1688 1.425 . S
C1693 C1690 1.409 . S
C1693 C1691 1.415 . S
C1694 H1684 0.930 . S
C1694 C1692 1.419 . S
C1694 C1695 1.362 . S
C1695 H1685 0.930 . S
C1695 C1688 1.409 . S
C1695 C1694 1.362 . S
H1696 C1702 0.930 . S
H1697 C1705 0.930 . S
H1698 C1706 0.930 . S
H1699 C1707 0.930 . S
H1700 C1710 0.930 . S
H1701 C1711 0.930 . S
C1702 H1696 0.930 . S
C1702 C1703 1.355 . S
C1702 C1704 1.415 . S
C1703 C1702 1.355 . S
C1703 C1705 1.419 . S
C1704 C1702 1.415 . S
C1704 C1709 1.425 . S
C1704 C1711 1.409 . S
C1705 H1697 0.930 . S
C1705 C1703 1.419 . S
C1705 C1706 1.362 . S
C1706 H1698 0.930 . S
C1706 C1705 1.362 . S
C1706 C1709 1.409 . S
C1707 H1699 0.930 . S
C1707 C1708 1.355 . S
C1707 C1709 1.415 . S
C1708 C1707 1.355 . S
C1708 C1710 1.419 . S
C1709 C1704 1.425 . S
C1709 C1706 1.409 . S
C1709 C1707 1.415 . S
C1710 H1700 0.930 . S
C1710 C1708 1.419 . S
C1710 C1711 1.362 . S
C1711 H1701 0.930 . S
C1711 C1704 1.409 . S
C1711 C1710 1.362 . S
H1712 C1718 0.930 . S
H1713 C1721 0.930 . S
H1714 C1722 0.930 . S
H1715 C1723 0.930 . S
H1716 C1726 0.930 . S
H1717 C1727 0.930 . S
C1718 H1712 0.930 . S
C1718 C1719 1.355 . S
C1718 C1720 1.415 . S
C1719 C1718 1.355 . S
C1719 C1721 1.419 . S
C1720 C1718 1.415 . S
C1720 C1725 1.425 . S
C1720 C1727 1.409 . S
C1721 H1713 0.930 . S
C1721 C1719 1.419 . S
C1721 C1722 1.362 . S
C1722 H1714 0.930 . S
C1722 C1721 1.362 . S
C1722 C1725 1.409 . S
C1723 H1715 0.930 . S
C1723 C1724 1.355 . S
C1723 C1725 1.415 . S
C1724 C1723 1.355 . S
C1724 C1726 1.419 . S
C1725 C1720 1.425 . S
C1725 C1722 1.409 . S
C1725 C1723 1.415 . S
C1726 H1716 0.930 . S
C1726 C1724 1.419 . S
C1726 C1727 1.362 . S
C1727 H1717 0.930 . S
C1727 C1720 1.409 . S
C1727 C1726 1.362 . S
H1728 C1734 0.930 . S
H1729 C1737 0.930 . S
H1730 C1738 0.930 . S
H1731 C1739 0.930 . S
H1732 C1742 0.930 . S
H1733 C1743 0.930 . S
C1734 H1728 0.930 . S
C1734 C1735 1.355 . S
C1734 C1736 1.415 . S
C1735 C1734 1.355 . S
C1735 C1737 1.419 . S
C1736 C1734 1.415 . S
C1736 C1741 1.425 . S
C1736 C1743 1.409 . S
C1737 H1729 0.930 . S
C1737 C1735 1.419 . S
C1737 C1738 1.362 . S
C1738 H1730 0.930 . S
C1738 C1737 1.362 . S
C1738 C1741 1.409 . S
C1739 H1731 0.930 . S
C1739 C1740 1.355 . S
C1739 C1741 1.415 . S
C1740 C1739 1.355 . S
C1740 C1742 1.419 . S
C1741 C1736 1.425 . S
C1741 C1738 1.409 . S
C1741 C1739 1.415 . S
C1742 H1732 0.930 . S
C1742 C1740 1.419 . S
C1742 C1743 1.362 . S
C1743 H1733 0.930 . S
C1743 C1736 1.409 . S
C1743 C1742 1.362 . S
H1744 C1750 0.930 . S
H1745 C1753 0.930 . S
H1746 C1754 0.930 . S
H1747 C1755 0.930 . S
H1748 C1758 0.930 . S
H1749 C1759 0.930 . S
C1750 H1744 0.930 . S
C1750 C1751 1.355 . S
C1750 C1752 1.415 . S
C1751 C1750 1.355 . S
C1751 C1753 1.419 . S
C1752 C1750 1.415 . S
C1752 C1757 1.425 . S
C1752 C1759 1.409 . S
C1753 H1745 0.930 . S
C1753 C1751 1.419 . S
C1753 C1754 1.362 . S
C1754 H1746 0.930 . S
C1754 C1753 1.362 . S
C1754 C1757 1.409 . S
C1755 H1747 0.930 . S
C1755 C1756 1.355 . S
C1755 C1757 1.415 . S
C1756 C1755 1.355 . S
C1756 C1758 1.419 . S
C1757 C1752 1.425 . S
C1757 C1754 1.409 . S
C1757 C1755 1.415 . S
C1758 H1748 0.930 . S
C1758 C1756 1.419 . S
C1758 C1759 1.362 . S
C1759 H1749 0.930 . S
C1759 C1752 1.409 . S
C1759 C1758 1.362 . S
H1760 C1766 0.930 . S
H1761 C1769 0.930 . S
H1762 C1770 0.930 . S
H1763 C1771 0.930 . S
H1764 C1774 0.930 . S
H1765 C1775 0.930 . S
C1766 H1760 0.930 . S
C1766 C1767 1.355 . S
C1766 C1768 1.415 . S
C1767 C1766 1.355 . S
C1767 C1769 1.419 . S
C1768 C1766 1.415 . S
C1768 C1773 1.425 . S
C1768 C1775 1.409 . S
C1769 H1761 0.930 . S
C1769 C1767 1.419 . S
C1769 C1770 1.362 . S
C1770 H1762 0.930 . S
C1770 C1769 1.362 . S
C1770 C1773 1.409 . S
C1771 H1763 0.930 . S
C1771 C1772 1.355 . S
C1771 C1773 1.415 . S
C1772 C1771 1.355 . S
C1772 C1774 1.419 . S
C1773 C1768 1.425 . S
C1773 C1770 1.409 . S
C1773 C1771 1.415 . S
C1774 H1764 0.930 . S
C1774 C1772 1.419 . S
C1774 C1775 1.362 . S
C1775 H1765 0.930 . S
C1775 C1768 1.409 . S
C1775 C1774 1.362 . S
H1776 C1782 0.930 . S
H1777 C1785 0.930 . S
H1778 C1786 0.930 . S
H1779 C1787 0.930 . S
H1780 C1790 0.930 . S
H1781 C1791 0.930 . S
C1782 H1776 0.930 . S
C1782 C1783 1.355 . S
C1782 C1784 1.415 . S
C1783 C1782 1.355 . S
C1783 C1785 1.419 . S
C1784 C1782 1.415 . S
C1784 C1789 1.425 . S
C1784 C1791 1.409 . S
C1785 H1777 0.930 . S
C1785 C1783 1.419 . S
C1785 C1786 1.362 . S
C1786 H1778 0.930 . S
C1786 C1785 1.362 . S
C1786 C1789 1.409 . S
C1787 H1779 0.930 . S
C1787 C1788 1.355 . S
C1787 C1789 1.415 . S
C1788 C1787 1.355 . S
C1788 C1790 1.419 . S
C1789 C1784 1.425 . S
C1789 C1786 1.409 . S
C1789 C1787 1.415 . S
C1790 H1780 0.930 . S
C1790 C1788 1.419 . S
C1790 C1791 1.362 . S
C1791 H1781 0.930 . S
C1791 C1784 1.409 . S
C1791 C1790 1.362 . S
H1792 C1798 0.930 . S
H1793 C1801 0.930 . S
H1794 C1802 0.930 . S
H1795 C1803 0.930 . S
H1796 C1806 0.930 . S
H1797 C1807 0.930 . S
C1798 H1792 0.930 . S
C1798 C1799 1.355 . S
C1798 C1800 1.415 . S
C1799 C1798 1.355 . S
C1799 C1801 1.419 . S
C1800 C1798 1.415 . S
C1800 C1805 1.425 . S
C1800 C1807 1.409 . S
C1801 H1793 0.930 . S
C1801 C1799 1.419 . S
C1801 C1802 1.362 . S
C1802 H1794 0.930 . S
C1802 C1801 1.362 . S
C1802 C1805 1.409 . S
C1803 H1795 0.930 . S
C1803 C1804 1.355 . S
C1803 C1805 1.415 . S
C1804 C1803 1.355 . S
C1804 C1806 1.419 . S
C1805 C1800 1.425 . S
C1805 C1802 1.409 . S
C1805 C1803 1.415 . S
C1806 H1796 0.930 . S
C1806 C1804 1.419 . S
C1806 C1807 1.362 . S
C1807 H1797 0.930 . S
C1807 C1800 1.409 . S
C1807 C1806 1.362 . S
H1808 C1814 0.930 . S
H1809 C1817 0.930 . S
H1810 C1818 0.930 . S
H1811 C1819 0.930 . S
H1812 C1822 0.930 . S
H1813 C1823 0.930 . S
C1814 H1808 0.930 . S
C1814 C1815 1.355 . S
C1814 C1816 1.415 . S
C1815 C1814 1.355 . S
C1815 C1817 1.419 . S
C1816 C1814 1.415 . S
C1816 C1821 1.425 . S
C1816 C1823 1.409 . S
C1817 H1809 0.930 . S
C1817 C1815 1.419 . S
C1817 C1818 1.362 . S
C1818 H1810 0.930 . S
C1818 C1817 1.362 . S
C1818 C1821 1.409 . S
C1819 H1811 0.930 . S
C1819 C1820 1.355 . S
C1819 C1821 1.415 . S
C1820 C1819 1.355 . S
C1820 C1822 1.419 . S
C1821 C1816 1.425 . S
C1821 C1818 1.409 . S
C1821 C1819 1.415 . S
C1822 H1812 0.930 . S
C1822 C1820 1.419 . S
C1822 C1823 1.362 . S
C1823 H1813 0.930 . S
C1823 C1816 1.409 . S
C1823 C1822 1.362 . S
H1824 C1830 0.930 . S
H1825 C1833 0.930 . S
H1826 C1834 0.930 . S
H1827 C1835 0.930 . S
H1828 C1838 0.930 . S
H1829 C1839 0.930 . S
C1830 H1824 0.930 . S
C1830 C1831 1.355 . S
C1830 C1832 1.415 . S
C1831 C1830 1.355 . S
C1831 C1833 1.419 . S
C1832 C1830 1.415 . S
C1832 C1837 1.425 . S
C1832 C1839 1.409 . S
C1833 H1825 0.930 . S
C1833 C1831 1.419 . S
C1833 C1834 1.362 . S
C1834 H1826 0.930 . S
C1834 C1833 1.362 . S
C1834 C1837 1.409 . S
C1835 H1827 0.930 . S
C1835 C1836 1.355 . S
C1835 C1837 1.415 . S
C1836 C1835 1.355 . S
C1836 C1838 1.419 . S
C1837 C1832 1.425 . S
C1837 C1834 1.409 . S
C1837 C1835 1.415 . S
C1838 H1828 0.930 . S
C1838 C1836 1.419 . S
C1838 C1839 1.362 . S
C1839 H1829 0.930 . S
C1839 C1832 1.409 . S
C1839 C1838 1.362 . S
H1840 C1846 0.930 . S
H1841 C1849 0.930 . S
H1842 C1850 0.930 . S
H1843 C1851 0.930 . S
H1844 C1854 0.930 . S
H1845 C1855 0.930 . S
C1846 H1840 0.930 . S
C1846 C1847 1.355 . S
C1846 C1848 1.415 . S
C1847 C1846 1.355 . S
C1847 C1849 1.419 . S
C1848 C1846 1.415 . S
C1848 C1853 1.425 . S
C1848 C1855 1.409 . S
C1849 H1841 0.930 . S
C1849 C1847 1.419 . S
C1849 C1850 1.362 . S
C1850 H1842 0.930 . S
C1850 C1849 1.362 . S
C1850 C1853 1.409 . S
C1851 H1843 0.930 . S
C1851 C1852 1.355 . S
C1851 C1853 1.415 . S
C1852 C1851 1.355 . S
C1852 C1854 1.419 . S
C1853 C1848 1.425 . S
C1853 C1850 1.409 . S
C1853 C1851 1.415 . S
C1854 H1844 0.930 . S
C1854 C1852 1.419 . S
C1854 C1855 1.362 . S
C1855 H1845 0.930 . S
C1855 C1848 1.409 . S
C1855 C1854 1.362 . S
H1856 C1862 0.930 . S
H1857 C1865 0.930 . S
H1858 C1866 0.930 . S
H1859 C1867 0.930 . S
H1860 C1870 0.930 . S
H1861 C1871 0.930 . S
C1862 H1856 0.930 . S
C1862 C1863 1.355 . S
C1862 C1864 1.415 . S
C1863 C1862 1.355 . S
C1863 C1865 1.419 . S
C1864 C1862 1.415 . S
C1864 C1869 1.425 . S
C1864 C1871 1.409 . S
C1865 H1857 0.930 . S
C1865 C1863 1.419 . S
C1865 C1866 1.362 . S
C1866 H1858 0.930 . S
C1866 C1865 1.362 . S
C1866 C1869 1.409 . S
C1867 H1859 0.930 . S
C1867 C1868 1.355 . S
C1867 C1869 1.415 . S
C1868 C1867 1.355 . S
C1868 C1870 1.419 . S
C1869 C1864 1.425 . S
C1869 C1866 1.409 . S
C1869 C1867 1.415 . S
C1870 H1860 0.930 . S
C1870 C1868 1.419 . S
C1870 C1871 1.362 . S
C1871 H1861 0.930 . S
C1871 C1864 1.409 . S
C1871 C1870 1.362 . S
H1872 C1878 0.930 . S
H1873 C1881 0.930 . S
H1874 C1882 0.930 . S
H1875 C1883 0.930 . S
H1876 C1886 0.930 . S
H1877 C1887 0.930 . S
C1878 H1872 0.930 . S
C1878 C1879 1.355 . S
C1878 C1880 1.415 . S
C1879 C1878 1.355 . S
C1879 C1881 1.419 . S
C1880 C1878 1.415 . S
C1880 C1885 1.425 . S
C1880 C1887 1.409 . S
C1881 H1873 0.930 . S
C1881 C1879 1.419 . S
C1881 C1882 1.362 . S
C1882 H1874 0.930 . S
C1882 C1881 1.362 . S
C1882 C1885 1.409 . S
C1883 H1875 0.930 . S
C1883 C1884 1.355 . S
C1883 C1885 1.415 . S
C1884 C1883 1.355 . S
C1884 C1886 1.419 . S
C1885 C1880 1.425 . S
C1885 C1882 1.409 . S
C1885 C1883 1.415 . S
C1886 H1876 0.930 . S
C1886 C1884 1.419 . S
C1886 C1887 1.362 . S
C1887 H1877 0.930 . S
C1887 C1880 1.409 . S
C1887 C1886 1.362 . S
H1888 C1894 0.930 . S
H1889 C1897 0.930 . S
H1890 C1898 0.930 . S
H1891 C1899 0.930 . S
H1892 C1902 0.930 . S
H1893 C1903 0.930 . S
C1894 H1888 0.930 . S
C1894 C1895 1.355 . S
C1894 C1896 1.415 . S
C1895 C1894 1.355 . S
C1895 C1897 1.419 . S
C1896 C1894 1.415 . S
C1896 C1901 1.425 . S
C1896 C1903 1.409 . S
C1897 H1889 0.930 . S
C1897 C1895 1.419 . S
C1897 C1898 1.362 . S
C1898 H1890 0.930 . S
C1898 C1897 1.362 . S
C1898 C1901 1.409 . S
C1899 H1891 0.930 . S
C1899 C1900 1.355 . S
C1899 C1901 1.415 . S
C1900 C1899 1.355 . S
C1900 C1902 1.419 . S
C1901 C1896 1.425 . S
C1901 C1898 1.409 . S
C1901 C1899 1.415 . S
C1902 H1892 0.930 . S
C1902 C1900 1.419 . S
C1902 C1903 1.362 . S
C1903 H1893 0.930 . S
C1903 C1896 1.409 . S
C1903 C1902 1.362 . S
H1904 C1910 0.930 . S
H1905 C1913 0.930 . S
H1906 C1914 0.930 . S
H1907 C1915 0.930 . S
H1908 C1918 0.930 . S
H1909 C1919 0.930 . S
C1910 H1904 0.930 . S
C1910 C1911 1.355 . S
C1910 C1912 1.415 . S
C1911 C1910 1.355 . S
C1911 C1913 1.419 . S
C1912 C1910 1.415 . S
C1912 C1917 1.425 . S
C1912 C1919 1.409 . S
C1913 H1905 0.930 . S
C1913 C1911 1.419 . S
C1913 C1914 1.362 . S
C1914 H1906 0.930 . S
C1914 C1913 1.362 . S
C1914 C1917 1.409 . S
C1915 H1907 0.930 . S
C1915 C1916 1.355 . S
C1915 C1917 1.415 . S
C1916 C1915 1.355 . S
C1916 C1918 1.419 . S
C1917 C1912 1.425 . S
C1917 C1914 1.409 . S
C1917 C1915 1.415 . S
C1918 H1908 0.930 . S
C1918 C1916 1.419 . S
C1918 C1919 1.362 . S
C1919 H1909 0.930 . S
C1919 C1912 1.409 . S
C1919 C1918 1.362 . S
H1920 C1926 0.930 . S
H1921 C1929 0.930 . S
H1922 C1930 0.930 . S
H1923 C1931 0.930 . S
H1924 C1934 0.930 . S
H1925 C1935 0.930 . S
C1926 H1920 0.930 . S
C1926 C1927 1.355 . S
C1926 C1928 1.415 . S
C1927 C1926 1.355 . S
C1927 C1929 1.419 . S
C1928 C1926 1.415 . S
C1928 C1933 1.425 . S
C1928 C1935 1.409 . S
C1929 H1921 0.930 . S
C1929 C1927 1.419 . S
C1929 C1930 1.362 . S
C1930 H1922 0.930 . S
C1930 C1929 1.362 . S
C1930 C1933 1.409 . S
C1931 H1923 0.930 . S
C1931 C1932 1.355 . S
C1931 C1933 1.415 . S
C1932 C1931 1.355 . S
C1932 C1934 1.419 . S
C1933 C1928 1.425 . S
C1933 C1930 1.409 . S
C1933 C1931 1.415 . S
C1934 H1924 0.930 . S
C1934 C1932 1.419 . S
C1934 C1935 1.362 . S
C1935 H1925 0.930 . S
C1935 C1928 1.409 . S
C1935 C1934 1.362 . S
H1936 C1942 0.930 . S
H1937 C1945 0.930 . S
H1938 C1946 0.930 . S
H1939 C1947 0.930 . S
H1940 C1950 0.930 . S
H1941 C1951 0.930 . S
C1942 H1936 0.930 . S
C1942 C1943 1.355 . S
C1942 C1944 1.415 . S
C1943 C1942 1.355 . S
C1943 C1945 1.419 . S
C1944 C1942 1.415 . S
C1944 C1949 1.425 . S
C1944 C1951 1.409 . S
C1945 H1937 0.930 . S
C1945 C1943 1.419 . S
C1945 C1946 1.362 . S
C1946 H1938 0.930 . S
C1946 C1945 1.362 . S
C1946 C1949 1.409 . S
C1947 H1939 0.930 . S
C1947 C1948 1.355 . S
C1947 C1949 1.415 . S
C1948 C1947 1.355 . S
C1948 C1950 1.419 . S
C1949 C1944 1.425 . S
C1949 C1946 1.409 . S
C1949 C1947 1.415 . S
C1950 H1940 0.930 . S
C1950 C1948 1.419 . S
C1950 C1951 1.362 . S
C1951 H1941 0.930 . S
C1951 C1944 1.409 . S
C1951 C1950 1.362 . S
H1952 C1958 0.930 . S
H1953 C1961 0.930 . S
H1954 C1962 0.930 . S
H1955 C1963 0.930 . S
H1956 C1966 0.930 . S
H1957 C1967 0.930 . S
C1958 H1952 0.930 . S
C1958 C1959 1.355 . S
C1958 C1960 1.415 . S
C1959 C1958 1.355 . S
C1959 C1961 1.419 . S
C1960 C1958 1.415 . S
C1960 C1965 1.425 . S
C1960 C1967 1.409 . S
C1961 H1953 0.930 . S
C1961 C1959 1.419 . S
C1961 C1962 1.362 . S
C1962 H1954 0.930 . S
C1962 C1961 1.362 . S
C1962 C1965 1.409 . S
C1963 H1955 0.930 . S
C1963 C1964 1.355 . S
C1963 C1965 1.415 . S
C1964 C1963 1.355 . S
C1964 C1966 1.419 . S
C1965 C1960 1.425 . S
C1965 C1962 1.409 . S
C1965 C1963 1.415 . S
C1966 H1956 0.930 . S
C1966 C1964 1.419 . S
C1966 C1967 1.362 . S
C1967 H1957 0.930 . S
C1967 C1960 1.409 . S
C1967 C1966 1.362 . S
H1968 C1974 0.930 . S
H1969 C1977 0.930 . S
H1970 C1978 0.930 . S
H1971 C1979 0.930 . S
H1972 C1982 0.930 . S
H1973 C1983 0.930 . S
C1974 H1968 0.930 . S
C1974 C1975 1.355 . S
C1974 C1976 1.415 . S
C1975 C1974 1.355 . S
C1975 C1977 1.419 . S
C1976 C1974 1.415 . S
C1976 C1981 1.425 . S
C1976 C1983 1.409 . S
C1977 H1969 0.930 . S
C1977 C1975 1.419 . S
C1977 C1978 1.362 . S
C1978 H1970 0.930 . S
C1978 C1977 1.362 . S
C1978 C1981 1.409 . S
C1979 H1971 0.930 . S
C1979 C1980 1.355 . S
C1979 C1981 1.415 . S
C1980 C1979 1.355 . S
C1980 C1982 1.419 . S
C1981 C1976 1.425 . S
C1981 C1978 1.409 . S
C1981 C1979 1.415 . S
C1982 H1972 0.930 . S
C1982 C1980 1.419 . S
C1982 C1983 1.362 . S
C1983 H1973 0.930 . S
C1983 C1976 1.409 . S
C1983 C1982 1.362 . S
H1984 C1990 0.930 . S
H1985 C1993 0.930 . S
H1986 C1994 0.930 . S
H1987 C1995 0.930 . S
H1988 C1998 0.930 . S
H1989 C1999 0.930 . S
C1990 H1984 0.930 . S
C1990 C1991 1.355 . S
C1990 C1992 1.415 . S
C1991 C1990 1.355 . S
C1991 C1993 1.419 . S
C1992 C1990 1.415 . S
C1992 C1997 1.425 . S
C1992 C1999 1.409 . S
C1993 H1985 0.930 . S
C1993 C1991 1.419 . S
C1993 C1994 1.362 . S
C1994 H1986 0.930 . S
C1994 C1993 1.362 . S
C1994 C1997 1.409 . S
C1995 H1987 0.930 . S
C1995 C1996 1.355 . S
C1995 C1997 1.415 . S
C1996 C1995 1.355 . S
C1996 C1998 1.419 . S
C1997 C1992 1.425 . S
C1997 C1994 1.409 . S
C1997 C1995 1.415 . S
C1998 H1988 0.930 . S
C1998 C1996 1.419 . S
C1998 C1999 1.362 . S
C1999 H1989 0.930 . S
C1999 C1992 1.409 . S
C1999 C1998 1.362 . S
H2000 C2006 0.930 . S
H2001 C2009 0.930 . S
H2002 C2010 0.930 . S
H2003 C2011 0.930 . S
H2004 C2014 0.930 . S
H2005 C2015 0.930 . S
C2006 H2000 0.930 . S
C2006 C2007 1.355 . S
C2006 C2008 1.415 . S
C2007 C2006 1.355 . S
C2007 C2009 1.419 . S
C2008 C2006 1.415 . S
C2008 C2013 1.425 . S
C2008 C2015 1.409 . S
C2009 H2001 0.930 . S
C2009 C2007 1.419 . S
C2009 C2010 1.362 . S
C2010 H2002 0.930 . S
C2010 C2009 1.362 . S
C2010 C2013 1.409 . S
C2011 H2003 0.930 . S
C2011 C2012 1.355 . S
C2011 C2013 1.415 . S
C2012 C2011 1.355 . S
C2012 C2014 1.419 . S
C2013 C2008 1.425 . S
C2013 C2010 1.409 . S
C2013 C2011 1.415 . S
C2014 H2004 0.930 . S
C2014 C2012 1.419 . S
C2014 C2015 1.362 . S
C2015 H2005 0.930 . S
C2015 C2008 1.409 . S
C2015 C2014 1.362 . S
H2016 C2022 0.930 . S
H2017 C2025 0.930 . S
H2018 C2026 0.930 . S
H2019 C2027 0.930 . S
H2020 C2030 0.930 . S
H2021 C2031 0.930 . S
C2022 H2016 0.930 . S
C2022 C2023 1.355 . S
C2022 C2024 1.415 . S
C2023 C2022 1.355 . S
C2023 C2025 1.419 . S
C2024 C2022 1.415 . S
C2024 C2029 1.425 . S
C2024 C2031 1.409 . S
C2025 H2017 0.930 . S
C2025 C2023 1.419 . S
C2025 C2026 1.362 . S
C2026 H2018 0.930 . S
C2026 C2025 1.362 . S
C2026 C2029 1.409 . S
C2027 H2019 0.930 . S
C2027 C2028 1.355 . S
C2027 C2029 1.415 . S
C2028 C2027 1.355 . S
C2028 C2030 1.419 . S
C2029 C2024 1.425 . S
C2029 C2026 1.409 . S
C2029 C2027 1.415 . S
C2030 H2020 0.930 . S
C2030 C2028 1.419 . S
C2030 C2031 1.362 . S
C2031 H2021 0.930 . S
C2031 C2024 1.409 . S
C2031 C2030 1.362 . S
H2032 C2038 0.930 . S
H2033 C2041 0.930 . S
H2034 C2042 0.930 . S
H2035 C2043 0.930 . S
H2036 C2046 0.930 . S
H2037 C2047 0.930 . S
C2038 H2032 0.930 . S
C2038 C2039 1.355 . S
C2038 C2040 1.415 . S
C2039 C2038 1.355 . S
C2039 C2041 1.419 . S
C2040 C2038 1.415 . S
C2040 C2045 1.425 . S
C2040 C2047 1.409 . S
C2041 H2033 0.930 . S
C2041 C2039 1.419 . S
C2041 C2042 1.362 . S
C2042 H2034 0.930 . S
C2042 C2041 1.362 . S
C2042 C2045 1.409 . S
C2043 H2035 0.930 . S
C2043 C2044 1.355 . S
C2043 C2045 1.415 . S
C2044 C2043 1.355 . S
C2044 C2046 1.419 . S
C2045 C2040 1.425 . S
C2045 C2042 1.409 . S
C2045 C2043 1.415 . S
C2046 H2036 0.930 . S
C2046 C2044 1.419 . S
C2046 C2047 1.362 . S
C2047 H2037 0.930 . S
C2047 C2040 1.409 . S
C2047 C2046 1.362 . S
H2048 C2054 0.930 . S
H2049 C2057 0.930 . S
H2050 C2058 0.930 . S
H2051 C2059 0.930 . S
H2052 C2062 0.930 . S
H2053 C2063 0.930 . S
C2054 H2048 0.930 . S
C2054 C2055 1.355 . S
C2054 C2056 1.415 . S
C2055 C2054 1.355 . S
C2055 C2057 1.419 . S
C2056 C2054 1.415 . S
C2056 C2061 1.425 . S
C2056 C2063 1.409 . S
C2057 H2049 0.930 . S
C2057 C2055 1.419 . S
C2057 C2058 1.362 . S
C2058 H2050 0.930 . S
C2058 C2057 1.362 . S
C2058 C2061 1.409 . S
C2059 H2051 0.930 . S
C2059 C2060 1.355 . S
C2059 C2061 1.415 . S
C2060 C2059 1.355 . S
C2060 C2062 1.419 . S
C2061 C2056 1.425 . S
C2061 C2058 1.409 . S
C2061 C2059 1.415 . S
C2062 H2052 0.930 . S
C2062 C2060 1.419 . S
C2062 C2063 1.362 . S
C2063 H2053 0.930 . S
C2063 C2056 1.409 . S
C2063 C2062 1.362 . S
H2064 C2070 0.930 . S
H2065 C2073 0.930 . S
H2066 C2074 0.930 . S
H2067 C2075 0.930 . S
H2068 C2078 0.930 . S
H2069 C2079 0.930 . S
C2070 H2064 0.930 . S
C2070 C2071 1.355 . S
C2070 C2072 1.415 . S
C2071 C2070 1.355 . S
C2071 C2073 1.419 . S
C2072 C2070 1.415 . S
C2072 C2077 1.425 . S
C2072 C2079 1.409 . S
C2073 H2065 0.930 . S
C2073 C2071 1.419 . S
C2073 C2074 1.362 . S
C2074 H2066 0.930 . S
C2074 C2073 1.362 . S
C2074 C2077 1.409 . S
C2075 H2067 0.930 . S
C2075 C2076 1.355 . S
C2075 C2077 1.415 . S
C2076 C2075 1.355 . S
C2076 C2078 1.419 . S
C2077 C2072 1.425 . S
C2077 C2074 1.409 . S
C2077 C2075 1.415 . S
C2078 H2068 0.930 . S
C2078 C2076 1.419 . S
C2078 C2079 1.362 . S
C2079 H2069 0.930 . S
C2079 C2072 1.409 . S
C2079 C2078 1.362 . S
H2080 C2086 0.930 . S
H2081 C2089 0.930 . S
H2082 C2090 0.930 . S
H2083 C2091 0.930 . S
H2084 C2094 0.930 . S
H2085 C2095 0.930 . S
C2086 H2080 0.930 . S
C2086 C2087 1.355 . S
C2086 C2088 1.415 . S
C2087 C2086 1.355 . S
C2087 C2089 1.419 . S
C2088 C2086 1.415 . S
C2088 C2093 1.425 . S
C2088 C2095 1.409 . S
C2089 H2081 0.930 . S
C2089 C2087 1.419 . S
C2089 C2090 1.362 . S
C2090 H2082 0.930 . S
C2090 C2089 1.362 . S
C2090 C2093 1.409 . S
C2091 H2083 0.930 . S
C2091 C2092 1.355 . S
C2091 C2093 1.415 . S
C2092 C2091 1.355 . S
C2092 C2094 1.419 . S
C2093 C2088 1.425 . S
C2093 C2090 1.409 . S
C2093 C2091 1.415 . S
C2094 H2084 0.930 . S
C2094 C2092 1.419 . S
C2094 C2095 1.362 . S
C2095 H2085 0.930 . S
C2095 C2088 1.409 . S
C2095 C2094 1.362 . S
H2096 C2102 0.930 . S
H2097 C2105 0.930 . S
H2098 C2106 0.930 . S
H2099 C2107 0.930 . S
H2100 C2110 0.930 . S
H2101 C2111 0.930 . S
C2102 H2096 0.930 . S
C2102 C2103 1.355 . S
C2102 C2104 1.415 . S
C2103 C2102 1.355 . S
C2103 C2105 1.419 . S
C2104 C2102 1.415 . S
C2104 C2109 1.425 . S
C2104 C2111 1.409 . S
C2105 H2097 0.930 . S
C2105 C2103 1.419 . S
C2105 C2106 1.362 . S
C2106 H2098 0.930 . S
C2106 C2105 1.362 . S
C2106 C2109 1.409 . S
C2107 H2099 0.930 . S
C2107 C2108 1.355 . S
C2107 C2109 1.415 . S
C2108 C2107 1.355 . S
C2108 C2110 1.419 . S
C2109 C2104 1.425 . S
C2109 C2106 1.409 . S
C2109 C2107 1.415 . S
C2110 H2100 0.930 . S
C2110 C2108 1.419 . S
C2110 C2111 1.362 . S
C2111 H2101 0.930 . S
C2111 C2104 1.409 . S
C2111 C2110 1.362 . S
H2112 C2118 0.930 . S
H2113 C2121 0.930 . S
H2114 C2122 0.930 . S
H2115 C2123 0.930 . S
H2116 C2126 0.930 . S
H2117 C2127 0.930 . S
C2118 H2112 0.930 . S
C2118 C2119 1.355 . S
C2118 C2120 1.415 . S
C2119 C2118 1.355 . S
C2119 C2121 1.419 . S
C2120 C2118 1.415 . S
C2120 C2125 1.425 . S
C2120 C2127 1.409 . S
C2121 H2113 0.930 . S
C2121 C2119 1.419 . S
C2121 C2122 1.362 . S
C2122 H2114 0.930 . S
C2122 C2121 1.362 . S
C2122 C2125 1.409 . S
C2123 H2115 0.930 . S
C2123 C2124 1.355 . S
C2123 C2125 1.415 . S
C2124 C2123 1.355 . S
C2124 C2126 1.419 . S
C2125 C2120 1.425 . S
C2125 C2122 1.409 . S
C2125 C2123 1.415 . S
C2126 H2116 0.930 . S
C2126 C2124 1.419 . S
C2126 C2127 1.362 . S
C2127 H2117 0.930 . S
C2127 C2120 1.409 . S
C2127 C2126 1.362 . S
H2128 C2134 0.930 . S
H2129 C2137 0.930 . S
H2130 C2138 0.930 . S
H2131 C2139 0.930 . S
H2132 C2142 0.930 . S
H2133 C2143 0.930 . S
C2134 H2128 0.930 . S
C2134 C2135 1.355 . S
C2134 C2136 1.415 . S
C2135 C2134 1.355 . S
C2135 C2137 1.419 . S
C2136 C2134 1.415 . S
C2136 C2141 1.425 . S
C2136 C2143 1.409 . S
C2137 H2129 0.930 . S
C2137 C2135 1.419 . S
C2137 C2138 1.362 . S
C2138 H2130 0.930 . S
C2138 C2137 1.362 . S
C2138 C2141 1.409 . S
C2139 H2131 0.930 . S
C2139 C2140 1.355 . S
C2139 C2141 1.415 . S
C2140 C2139 1.355 . S
C2140 C2142 1.419 . S
C2141 C2136 1.425 . S
C2141 C2138 1.409 . S
C2141 C2139 1.415 . S
C2142 H2132 0.930 . S
C2142 C2140 1.419 . S
C2142 C2143 1.362 . S
C2143 H2133 0.930 . S
C2143 C2136 1.409 . S
C2143 C2142 1.362 . S
H2144 C2150 0.930 . S
H2145 C2153 0.930 . S
H2146 C2154 0.930 . S
H2147 C2155 0.930 . S
H2148 C2158 0.930 . S
H2149 C2159 0.930 . S
C2150 H2144 0.930 . S
C2150 C2151 1.355 . S
C2150 C2152 1.415 . S
C2151 C2150 1.355 . S
C2151 C2153 1.419 . S
C2152 C2150 1.415 . S
C2152 C2157 1.425 . S
C2152 C2159 1.409 . S
C2153 H2145 0.930 . S
C2153 C2151 1.419 . S
C2153 C2154 1.362 . S
C2154 H2146 0.930 . S
C2154 C2153 1.362 . S
C2154 C2157 1.409 . S
C2155 H2147 0.930 . S
C2155 C2156 1.355 . S
C2155 C2157 1.415 . S
C2156 C2155 1.355 . S
C2156 C2158 1.419 . S
C2157 C2152 1.425 . S
C2157 C2154 1.409 . S
C2157 C2155 1.415 . S
C2158 H2148 0.930 . S
C2158 C2156 1.419 . S
C2158 C2159 1.362 . S
C2159 H2149 0.930 . S
C2159 C2152 1.409 . S
C2159 C2158 1.362 . S
H2160 C2166 0.930 . S
H2161 C2169 0.930 . S
H2162 C2170 0.930 . S
H2163 C2171 0.930 . S
H2164 C2174 0.930 . S
H2165 C2175 0.930 . S
C2166 H2160 0.930 . S
C2166 C2167 1.355 . S
C2166 C2168 1.415 . S
C2167 C2166 1.355 . S
C2167 C2169 1.419 . S
C2168 C2166 1.415 . S
C2168 C2173 1.425 . S
C2168 C2175 1.409 . S
C2169 H2161 0.930 . S
C2169 C2167 1.419 . S
C2169 C2170 1.362 . S
C2170 H2162 0.930 . S
C2170 C2169 1.362 . S
C2170 C2173 1.409 . S
C2171 H2163 0.930 . S
C2171 C2172 1.355 . S
C2171 C2173 1.415 . S
C2172 C2171 1.355 . S
C2172 C2174 1.419 . S
C2173 C2168 1.425 . S
C2173 C2170 1.409 . S
C2173 C2171 1.415 . S
C2174 H2164 0.930 . S
C2174 C2172 1.419 . S
C2174 C2175 1.362 . S
C2175 H2165 0.930 . S
C2175 C2168 1.409 . S
C2175 C2174 1.362 . S
H2176 C2182 0.930 . S
H2177 C2185 0.930 . S
H2178 C2186 0.930 . S
H2179 C2187 0.930 . S
H2180 C2190 0.930 . S
H2181 C2191 0.930 . S
C2182 H2176 0.930 . S
C2182 C2183 1.355 . S
C2182 C2184 1.415 . S
C2183 C2182 1.355 . S
C2183 C2185 1.419 . S
C2184 C2182 1.415 . S
C2184 C2189 1.425 . S
C2184 C2191 1.409 . S
C2185 H2177 0.930 . S
C2185 C2183 1.419 . S
C2185 C2186 1.362 . S
C2186 H2178 0.930 . S
C2186 C2185 1.362 . S
C2186 C2189 1.409 . S
C2187 H2179 0.930 . S
C2187 C2188 1.355 . S
C2187 C2189 1.415 . S
C2188 C2187 1.355 . S
C2188 C2190 1.419 . S
C2189 C2184 1.425 . S
C2189 C2186 1.409 . S
C2189 C2187 1.415 . S
C2190 H2180 0.930 . S
C2190 C2188 1.419 . S
C2190 C2191 1.362 . S
C2191 H2181 0.930 . S
C2191 C2184 1.409 . S
C2191 C2190 1.362 . S
H2192 C2198 0.930 . S
H2193 C2201 0.930 . S
H2194 C2202 0.930 . S
H2195 C2203 0.930 . S
H2196 C2206 0.930 . S
H2197 C2207 0.930 . S
C2198 H2192 0.930 . S
C2198 C2199 1.355 . S
C2198 C2200 1.415 . S
C2199 C2198 1.355 . S
C2199 C2201 1.419 . S
C2200 C2198 1.415 . S
C2200 C2205 1.425 . S
C2200 C2207 1.409 . S
C2201 H2193 0.930 . S
C2201 C2199 1.419 . S
C2201 C2202 1.362 . S
C2202 H2194 0.930 . S
C2202 C2201 1.362 . S
C2202 C2205 1.409 . S
C2203 H2195 0.930 . S
C2203 C2204 1.355 . S
C2203 C2205 1.415 . S
C2204 C2203 1.355 . S
C2204 C2206 1.419 . S
C2205 C2200 1.425 . S
C2205 C2202 1.409 . S
C2205 C2203 1.415 . S
C2206 H2196 0.930 . S
C2206 C2204 1.419 . S
C2206 C2207 1.362 . S
C2207 H2197 0.930 . S
C2207 C2200 1.409 . S
C2207 C2206 1.362 . S
H2208 C2214 0.930 . S
H2209 C2217 0.930 . S
H2210 C2218 0.930 . S
H2211 C2219 0.930 . S
H2212 C2222 0.930 . S
H2213 C2223 0.930 . S
C2214 H2208 0.930 . S
C2214 C2215 1.355 . S
C2214 C2216 1.415 . S
C2215 C2214 1.355 . S
C2215 C2217 1.419 . S
C2216 C2214 1.415 . S
C2216 C2221 1.425 . S
C2216 C2223 1.409 . S
C2217 H2209 0.930 . S
C2217 C2215 1.419 . S
C2217 C2218 1.362 . S
C2218 H2210 0.930 . S
C2218 C2217 1.362 . S
C2218 C2221 1.409 . S
C2219 H2211 0.930 . S
C2219 C2220 1.355 . S
C2219 C2221 1.415 . S
C2220 C2219 1.355 . S
C2220 C2222 1.419 . S
C2221 C2216 1.425 . S
C2221 C2218 1.409 . S
C2221 C2219 1.415 . S
C2222 H2212 0.930 . S
C2222 C2220 1.419 . S
C2222 C2223 1.362 . S
C2223 H2213 0.930 . S
C2223 C2216 1.409 . S
C2223 C2222 1.362 . S
H2224 C2230 0.930 . S
H2225 C2233 0.930 . S
H2226 C2234 0.930 . S
H2227 C2235 0.930 . S
H2228 C2238 0.930 . S
H2229 C2239 0.930 . S
C2230 H2224 0.930 . S
C2230 C2231 1.355 . S
C2230 C2232 1.415 . S
C2231 C2230 1.355 . S
C2231 C2233 1.419 . S
C2232 C2230 1.415 . S
C2232 C2237 1.425 . S
C2232 C2239 1.409 . S
C2233 H2225 0.930 . S
C2233 C2231 1.419 . S
C2233 C2234 1.362 . S
C2234 H2226 0.930 . S
C2234 C2233 1.362 . S
C2234 C2237 1.409 . S
C2235 H2227 0.930 . S
C2235 C2236 1.355 . S
C2235 C2237 1.415 . S
C2236 C2235 1.355 . S
C2236 C2238 1.419 . S
C2237 C2232 1.425 . S
C2237 C2234 1.409 . S
C2237 C2235 1.415 . S
C2238 H2228 0.930 . S
C2238 C2236 1.419 . S
C2238 C2239 1.362 . S
C2239 H2229 0.930 . S
C2239 C2232 1.409 . S
C2239 C2238 1.362 . S
H2240 C2246 0.930 . S
H2241 C2249 0.930 . S
H2242 C2250 0.930 . S
H2243 C2251 0.930 . S
H2244 C2254 0.930 . S
H2245 C2255 0.930 . S
C2246 H2240 0.930 . S
C2246 C2247 1.355 . S
C2246 C2248 1.415 . S
C2247 C2246 1.355 . S
C2247 C2249 1.419 . S
C2248 C2246 1.415 . S
C2248 C2253 1.425 . S
C2248 C2255 1.409 . S
C2249 H2241 0.930 . S
C2249 C2247 1.419 . S
C2249 C2250 1.362 . S
C2250 H2242 0.930 . S
C2250 C2249 1.362 . S
C2250 C2253 1.409 . S
C2251 H2243 0.930 . S
C2251 C2252 1.355 . S
C2251 C2253 1.415 . S
C2252 C2251 1.355 . S
C2252 C2254 1.419 . S
C2253 C2248 1.425 . S
C2253 C2250 1.409 . S
C2253 C2251 1.415 . S
C2254 H2244 0.930 . S
C2254 C2252 1.419 . S
C2254 C2255 1.362 . S
C2255 H2245 0.930 . S
C2255 C2248 1.409 . S
C2255 C2254 1.362 . S
H2256 C2262 0.930 . S
H2257 C2265 0.930 . S
H2258 C2266 0.930 . S
H2259 C2267 0.930 . S
H2260 C2270 0.930 . S
H2261 C2271 0.930 . S
C2262 H2256 0.930 . S
C2262 C2263 1.355 . S
C2262 C2264 1.415 . S
C2263 C2262 1.355 . S
C2263 C2265 1.419 . S
C2264 C2262 1.415 . S
C2264 C2269 1.425 . S
C2264 C2271 1.409 . S
C2265 H2257 0.930 . S
C2265 C2263 1.419 . S
C2265 C2266 1.362 . S
C2266 H2258 0.930 . S
C2266 C2265 1.362 . S
C2266 C2269 1.409 . S
C2267 H2259 0.930 . S
C2267 C2268 1.355 . S
C2267 C2269 1.415 . S
C2268 C2267 1.355 . S
C2268 C2270 1.419 . S
C2269 C2264 1.425 . S
C2269 C2266 1.409 . S
C2269 C2267 1.415 . S
C2270 H2260 0.930 . S
C2270 C2268 1.419 . S
C2270 C2271 1.362 . S
C2271 H2261 0.930 . S
C2271 C2264 1.409 . S
C2271 C2270 1.362 . S
H2272 C2278 0.930 . S
H2273 C2281 0.930 . S
H2274 C2282 0.930 . S
H2275 C2283 0.930 . S
H2276 C2286 0.930 . S
H2277 C2287 0.930 . S
C2278 H2272 0.930 . S
C2278 C2279 1.355 . S
C2278 C2280 1.415 . S
C2279 C2278 1.355 . S
C2279 C2281 1.419 . S
C2280 C2278 1.415 . S
C2280 C2285 1.425 . S
C2280 C2287 1.409 . S
C2281 H2273 0.930 . S
C2281 C2279 1.419 . S
C2281 C2282 1.362 . S
C2282 H2274 0.930 . S
C2282 C2281 1.362 . S
C2282 C2285 1.409 . S
C2283 H2275 0.930 . S
C2283 C2284 1.355 . S
C2283 C2285 1.415 . S
C2284 C2283 1.355 . S
C2284 C2286 1.419 . S
C2285 C2280 1.425 . S
C2285 C2282 1.409 . S
C2285 C2283 1.415 . S
C2286 H2276 0.930 . S
C2286 C2284 1.419 . S
C2286 C2287 1.362 . S
C2287 H2277 0.930 . S
C2287 C2280 1.409 . S
C2287 C2286 1.362 . S
H2288 C2294 0.930 . S
H2289 C2297 0.930 . S
H2290 C2298 0.930 . S
H2291 C2299 0.930 . S
H2292 C2302 0.930 . S
H2293 C2303 0.930 . S
C2294 H2288 0.930 . S
C2294 C2295 1.355 . S
C2294 C2296 1.415 . S
C2295 C2294 1.355 . S
C2295 C2297 1.419 . S
C2296 C2294 1.415 . S
C2296 C2301 1.425 . S
C2296 C2303 1.409 . S
C2297 H2289 0.930 . S
C2297 C2295 1.419 . S
C2297 C2298 1.362 . S
C2298 H2290 0.930 . S
C2298 C2297 1.362 . S
C2298 C2301 1.409 . S
C2299 H2291 0.930 . S
C2299 C2300 1.355 . S
C2299 C2301 1.415 . S
C2300 C2299 1.355 . S
C2300 C2302 1.419 . S
C2301 C2296 1.425 . S
C2301 C2298 1.409 . S
C2301 C2299 1.415 . S
C2302 H2292 0.930 . S
C2302 C2300 1.419 . S
C2302 C2303 1.362 . S
C2303 H2293 0.930 . S
C2303 C2296 1.409 . S
C2303 C2302 1.362 . S
H2304 C2310 0.930 . S
H2305 C2313 0.930 . S
H2306 C2314 0.930 . S
H2307 C2315 0.930 . S
H2308 C2318 0.930 . S
H2309 C2319 0.930 . S
C2310 H2304 0.930 . S
C2310 C2311 1.355 . S
C2310 C2312 1.415 . S
C2311 C2310 1.355 . S
C2311 C2313 1.419 . S
C2312 C2310 1.415 . S
C2312 C2317 1.425 . S
C2312 C2319 1.409 . S
C2313 H2305 0.930 . S
C2313 C2311 1.419 . S
C2313 C2314 1.362 . S
C2314 H2306 0.930 . S
C2314 C2313 1.362 . S
C2314 C2317 1.409 . S
C2315 H2307 0.930 . S
C2315 C2316 1.355 . S
C2315 C2317 1.415 . S
C2316 C2315 1.355 . S
C2316 C2318 1.419 . S
C2317 C2312 1.425 . S
C2317 C2314 1.409 . S
C2317 C2315 1.415 . S
C2318 H2308 0.930 . S
C2318 C2316 1.419 . S
C2318 C2319 1.362 . S
C2319 H2309 0.930 . S
C2319 C2312 1.409 . S
C2319 C2318 1.362 . S
H2320 C2326 0.930 . S
H2321 C2329 0.930 . S
H2322 C2330 0.930 . S
H2323 C2331 0.930 . S
H2324 C2334 0.930 . S
H2325 C2335 0.930 . S
C2326 H2320 0.930 . S
C2326 C2327 1.355 . S
C2326 C2328 1.415 . S
C2327 C2326 1.355 . S
C2327 C2329 1.419 . S
C2328 C2326 1.415 . S
C2328 C2333 1.425 . S
C2328 C2335 1.409 . S
C2329 H2321 0.930 . S
C2329 C2327 1.419 . S
C2329 C2330 1.362 . S
C2330 H2322 0.930 . S
C2330 C2329 1.362 . S
C2330 C2333 1.409 . S
C2331 H2323 0.930 . S
C2331 C2332 1.355 . S
C2331 C2333 1.415 . S
C2332 C2331 1.355 . S
C2332 C2334 1.419 . S
C2333 C2328 1.425 . S
C2333 C2330 1.409 . S
C2333 C2331 1.415 . S
C2334 H2324 0.930 . S
C2334 C2332 1.419 . S
C2334 C2335 1.362 . S
C2335 H2325 0.930 . S
C2335 C2328 1.409 . S
C2335 C2334 1.362 . S
H2336 C2342 0.930 . S
H2337 C2345 0.930 . S
H2338 C2346 0.930 . S
H2339 C2347 0.930 . S
H2340 C2350 0.930 . S
H2341 C2351 0.930 . S
C2342 H2336 0.930 . S
C2342 C2343 1.355 . S
C2342 C2344 1.415 . S
C2343 C2342 1.355 . S
C2343 C2345 1.419 . S
C2344 C2342 1.415 . S
C2344 C2349 1.425 . S
C2344 C2351 1.409 . S
C2345 H2337 0.930 . S
C2345 C2343 1.419 . S
C2345 C2346 1.362 . S
C2346 H2338 0.930 . S
C2346 C2345 1.362 . S
C2346 C2349 1.409 . S
C2347 H2339 0.930 . S
C2347 C2348 1.355 . S
C2347 C2349 1.415 . S
C2348 C2347 1.355 . S
C2348 C2350 1.419 . S
C2349 C2344 1.425 . S
C2349 C2346 1.409 . S
C2349 C2347 1.415 . S
C2350 H2340 0.930 . S
C2350 C2348 1.419 . S
C2350 C2351 1.362 . S
C2351 H2341 0.930 . S
C2351 C2344 1.409 . S
C2351 C2350 1.362 . S
H2352 C2358 0.930 . S
H2353 C2361 0.930 . S
H2354 C2362 0.930 . S
H2355 C2363 0.930 . S
H2356 C2366 0.930 . S
H2357 C2367 0.930 . S
C2358 H2352 0.930 . S
C2358 C2359 1.355 . S
C2358 C2360 1.415 . S
C2359 C2358 1.355 . S
C2359 C2361 1.419 . S
C2360 C2358 1.415 . S
C2360 C2365 1.425 . S
C2360 C2367 1.409 . S
C2361 H2353 0.930 . S
C2361 C2359 1.419 . S
C2361 C2362 1.362 . S
C2362 H2354 0.930 . S
C2362 C2361 1.362 . S
C2362 C2365 1.409 . S
C2363 H2355 0.930 . S
C2363 C2364 1.355 . S
C2363 C2365 1.415 . S
C2364 C2363 1.355 . S
C2364 C2366 1.419 . S
C2365 C2360 1.425 . S
C2365 C2362 1.409 . S
C2365 C2363 1.415 . S
C2366 H2356 0.930 . S
C2366 C2364 1.419 . S
C2366 C2367 1.362 . S
C2367 H2357 0.930 . S
C2367 C2360 1.409 . S
C2367 C2366 1.362 . S
H2368 C2374 0.930 . S
H2369 C2377 0.930 . S
H2370 C2378 0.930 . S
H2371 C2379 0.930 . S
H2372 C2382 0.930 . S
H2373 C2383 0.930 . S
C2374 H2368 0.930 . S
C2374 C2375 1.355 . S
C2374 C2376 1.415 . S
C2375 C2374 1.355 . S
C2375 C2377 1.419 . S
C2376 C2374 1.415 . S
C2376 C2381 1.425 . S
C2376 C2383 1.409 . S
C2377 H2369 0.930 . S
C2377 C2375 1.419 . S
C2377 C2378 1.362 . S
C2378 H2370 0.930 . S
C2378 C2377 1.362 . S
C2378 C2381 1.409 . S
C2379 H2371 0.930 . S
C2379 C2380 1.355 . S
C2379 C2381 1.415 . S
C2380 C2379 1.355 . S
C2380 C2382 1.419 . S
C2381 C2376 1.425 . S
C2381 C2378 1.409 . S
C2381 C2379 1.415 . S
C2382 H2372 0.930 . S
C2382 C2380 1.419 . S
C2382 C2383 1.362 . S
C2383 H2373 0.930 . S
C2383 C2376 1.409 . S
C2383 C2382 1.362 . S
H2384 C2390 0.930 . S
H2385 C2393 0.930 . S
H2386 C2394 0.930 . S
H2387 C2395 0.930 . S
H2388 C2398 0.930 . S
H2389 C2399 0.930 . S
C2390 H2384 0.930 . S
C2390 C2391 1.355 . S
C2390 C2392 1.415 . S
C2391 C2390 1.355 . S
C2391 C2393 1.419 . S
C2392 C2390 1.415 . S
C2392 C2397 1.425 . S
C2392 C2399 1.409 . S
C2393 H2385 0.930 . S
C2393 C2391 1.419 . S
C2393 C2394 1.362 . S
C2394 H2386 0.930 . S
C2394 C2393 1.362 . S
C2394 C2397 1.409 . S
C2395 H2387 0.930 . S
C2395 C2396 1.355 . S
C2395 C2397 1.415 . S
C2396 C2395 1.355 . S
C2396 C2398 1.419 . S
C2397 C2392 1.425 . S
C2397 C2394 1.409 . S
C2397 C2395 1.415 . S
C2398 H2388 0.930 . S
C2398 C2396 1.419 . S
C2398 C2399 1.362 . S
C2399 H2389 0.930 . S
C2399 C2392 1.409 . S
C2399 C2398 1.362 . S
H2400 C2406 0.930 . S
H2401 C2409 0.930 . S
H2402 C2410 0.930 . S
H2403 C2411 0.930 . S
H2404 C2414 0.930 . S
H2405 C2415 0.930 . S
C2406 H2400 0.930 . S
C2406 C2407 1.355 . S
C2406 C2408 1.415 . S
C2407 C2406 1.355 . S
C2407 C2409 1.419 . S
C2408 C2406 1.415 . S
C2408 C2413 1.425 . S
C2408 C2415 1.409 . S
C2409 H2401 0.930 . S
C2409 C2407 1.419 . S
C2409 C2410 1.362 . S
C2410 H2402 0.930 . S
C2410 C2409 1.362 . S
C2410 C2413 1.409 . S
C2411 H2403 0.930 . S
C2411 C2412 1.355 . S
C2411 C2413 1.415 . S
C2412 C2411 1.355 . S
C2412 C2414 1.419 . S
C2413 C2408 1.425 . S
C2413 C2410 1.409 . S
C2413 C2411 1.415 . S
C2414 H2404 0.930 . S
C2414 C2412 1.419 . S
C2414 C2415 1.362 . S
C2415 H2405 0.930 . S
C2415 C2408 1.409 . S
C2415 C2414 1.362 . S
H2416 C2422 0.930 . S
H2417 C2425 0.930 . S
H2418 C2426 0.930 . S
H2419 C2427 0.930 . S
H2420 C2430 0.930 . S
H2421 C2431 0.930 . S
C2422 H2416 0.930 . S
C2422 C2423 1.355 . S
C2422 C2424 1.415 . S
C2423 C2422 1.355 . S
C2423 C2425 1.419 . S
C2424 C2422 1.415 . S
C2424 C2429 1.425 . S
C2424 C2431 1.409 . S
C2425 H2417 0.930 . S
C2425 C2423 1.419 . S
C2425 C2426 1.362 . S
C2426 H2418 0.930 . S
C2426 C2425 1.362 . S
C2426 C2429 1.409 . S
C2427 H2419 0.930 . S
C2427 C2428 1.355 . S
C2427 C2429 1.415 . S
C2428 C2427 1.355 . S
C2428 C2430 1.419 . S
C2429 C2424 1.425 . S
C2429 C2426 1.409 . S
C2429 C2427 1.415 . S
C2430 H2420 0.930 . S
C2430 C2428 1.419 . S
C2430 C2431 1.362 . S
C2431 H2421 0.930 . S
C2431 C2424 1.409 . S
C2431 C2430 1.362 . S
H2432 C2438 0.930 . S
H2433 C2441 0.930 . S
H2434 C2442 0.930 . S
H2435 C2443 0.930 . S
H2436 C2446 0.930 . S
H2437 C2447 0.930 . S
C2438 H2432 0.930 . S
C2438 C2439 1.355 . S
C2438 C2440 1.415 . S
C2439 C2438 1.355 . S
C2439 C2441 1.419 . S
C2440 C2438 1.415 . S
C2440 C2445 1.425 . S
C2440 C2447 1.409 . S
C2441 H2433 0.930 . S
C2441 C2439 1.419 . S
C2441 C2442 1.362 . S
C2442 H2434 0.930 . S
C2442 C2441 1.362 . S
C2442 C2445 1.409 . S
C2443 H2435 0.930 . S
C2443 C2444 1.355 . S
C2443 C2445 1.415 . S
C2444 C2443 1.355 . S
C2444 C2446 1.419 . S
C2445 C2440 1.425 . S
C2445 C2442 1.409 . S
C2445 C2443 1.415 . S
C2446 H2436 0.930 . S
C2446 C2444 1.419 . S
C2446 C2447 1.362 . S
C2447 H2437 0.930 . S
C2447 C2440 1.409 . S
C2447 C2446 1.362 . S
H2448 C2454 0.930 . S
H2449 C2457 0.930 . S
H2450 C2458 0.930 . S
H2451 C2459 0.930 . S
H2452 C2462 0.930 . S
H2453 C2463 0.930 . S
C2454 H2448 0.930 . S
C2454 C2455 1.355 . S
C2454 C2456 1.415 . S
C2455 C2454 1.355 . S
C2455 C2457 1.419 . S
C2456 C2454 1.415 . S
C2456 C2461 1.425 . S
C2456 C2463 1.409 . S
C2457 H2449 0.930 . S
C2457 C2455 1.419 . S
C2457 C2458 1.362 . S
C2458 H2450 0.930 . S
C2458 C2457 1.362 . S
C2458 C2461 1.409 . S
C2459 H2451 0.930 . S
C2459 C2460 1.355 . S
C2459 C2461 1.415 . S
C2460 C2459 1.355 . S
C2460 C2462 1.419 . S
C2461 C2456 1.425 . S
C2461 C2458 1.409 . S
C2461 C2459 1.415 . S
C2462 H2452 0.930 . S
C2462 C2460 1.419 . S
C2462 C2463 1.362 . S
C2463 H2453 0.930 . S
C2463 C2456 1.409 . S
C2463 C2462 1.362 . S
H2464 C2470 0.930 . S
H2465 C2473 0.930 . S
H2466 C2474 0.930 . S
H2467 C2475 0.930 . S
H2468 C2478 0.930 . S
H2469 C2479 0.930 . S
C2470 H2464 0.930 . S
C2470 C2471 1.355 . S
C2470 C2472 1.415 . S
C2471 C2470 1.355 . S
C2471 C2473 1.419 . S
C2472 C2470 1.415 . S
C2472 C2477 1.425 . S
C2472 C2479 1.409 . S
C2473 H2465 0.930 . S
C2473 C2471 1.419 . S
C2473 C2474 1.362 . S
C2474 H2466 0.930 . S
C2474 C2473 1.362 . S
C2474 C2477 1.409 . S
C2475 H2467 0.930 . S
C2475 C2476 1.355 . S
C2475 C2477 1.415 . S
C2476 C2475 1.355 . S
C2476 C2478 1.419 . S
C2477 C2472 1.425 . S
C2477 C2474 1.409 . S
C2477 C2475 1.415 . S
C2478 H2468 0.930 . S
C2478 C2476 1.419 . S
C2478 C2479 1.362 . S
C2479 H2469 0.930 . S
C2479 C2472 1.409 . S
C2479 C2478 1.362 . S
H2480 C2486 0.930 . S
H2481 C2489 0.930 . S
H2482 C2490 0.930 . S
H2483 C2491 0.930 . S
H2484 C2494 0.930 . S
H2485 C2495 0.930 . S
C2486 H2480 0.930 . S
C2486 C2487 1.355 . S
C2486 C2488 1.415 . S
C2487 C2486 1.355 . S
C2487 C2489 1.419 . S
C2488 C2486 1.415 . S
C2488 C2493 1.425 . S
C2488 C2495 1.409 . S
C2489 H2481 0.930 . S
C2489 C2487 1.419 . S
C2489 C2490 1.362 . S
C2490 H2482 0.930 . S
C2490 C2489 1.362 . S
C2490 C2493 1.409 . S
C2491 H2483 0.930 . S
C2491 C2492 1.355 . S
C2491 C2493 1.415 . S
C2492 C2491 1.355 . S
C2492 C2494 1.419 . S
C2493 C2488 1.425 . S
C2493 C2490 1.409 . S
C2493 C2491 1.415 . S
C2494 H2484 0.930 . S
C2494 C2492 1.419 . S
C2494 C2495 1.362 . S
C2495 H2485 0.930 . S
C2495 C2488 1.409 . S
C2495 C2494 1.362 . S
H2496 C2502 0.930 . S
H2497 C2505 0.930 . S
H2498 C2506 0.930 . S
H2499 C2507 0.930 . S
H2500 C2510 0.930 . S
H2501 C2511 0.930 . S
C2502 H2496 0.930 . S
C2502 C2503 1.355 . S
C2502 C2504 1.415 . S
C2503 C2502 1.355 . S
C2503 C2505 1.419 . S
C2504 C2502 1.415 . S
C2504 C2509 1.425 . S
C2504 C2511 1.409 . S
C2505 H2497 0.930 . S
C2505 C2503 1.419 . S
C2505 C2506 1.362 . S
C2506 H2498 0.930 . S
C2506 C2505 1.362 . S
C2506 C2509 1.409 . S
C2507 H2499 0.930 . S
C2507 C2508 1.355 . S
C2507 C2509 1.415 . S
C2508 C2507 1.355 . S
C2508 C2510 1.419 . S
C2509 C2504 1.425 . S
C2509 C2506 1.409 . S
C2509 C2507 1.415 . S
C2510 H2500 0.930 . S
C2510 C2508 1.419 . S
C2510 C2511 1.362 . S
C2511 H2501 0.930 . S
C2511 C2504 1.409 . S
C2511 C2510 1.362 . S
H2512 C2518 0.930 . S
H2513 C2521 0.930 . S
H2514 C2522 0.930 . S
H2515 C2523 0.930 . S
H2516 C2526 0.930 . S
H2517 C2527 0.930 . S
C2518 H2512 0.930 . S
C2518 C2519 1.355 . S
C2518 C2520 1.415 . S
C2519 C2518 1.355 . S
C2519 C2521 1.419 . S
C2520 C2518 1.415 . S
C2520 C2525 1.425 . S
C2520 C2527 1.409 . S
C2521 H2513 0.930 . S
C2521 C2519 1.419 . S
C2521 C2522 1.362 . S
C2522 H2514 0.930 . S
C2522 C2521 1.362 . S
C2522 C2525 1.409 . S
C2523 H2515 0.930 . S
C2523 C2524 1.355 . S
C2523 C2525 1.415 . S
C2524 C2523 1.355 . S
C2524 C2526 1.419 . S
C2525 C2520 1.425 . S
C2525 C2522 1.409 . S
C2525 C2523 1.415 . S
C2526 H2516 0.930 . S
C2526 C2524 1.419 . S
C2526 C2527 1.362 . S
C2527 H2517 0.930 . S
C2527 C2520 1.409 . S
C2527 C2526 1.362 . S
H2528 C2534 0.930 . S
H2529 C2537 0.930 . S
H2530 C2538 0.930 . S
H2531 C2539 0.930 . S
H2532 C2542 0.930 . S
H2533 C2543 0.930 . S
C2534 H2528 0.930 . S
C2534 C2535 1.355 . S
C2534 C2536 1.415 . S
C2535 C2534 1.355 . S
C2535 C2537 1.419 . S
C2536 C2534 1.415 . S
C2536 C2541 1.425 . S
C2536 C2543 1.409 . S
C2537 H2529 0.930 . S
C2537 C2535 1.419 . S
C2537 C2538 1.362 . S
C2538 H2530 0.930 . S
C2538 C2537 1.362 . S
C2538 C2541 1.409 . S
C2539 H2531 0.930 . S
C2539 C2540 1.355 . S
C2539 C2541 1.415 . S
C2540 C2539 1.355 . S
C2540 C2542 1.419 . S
C2541 C2536 1.425 . S
C2541 C2538 1.409 . S
C2541 C2539 1.415 . S
C2542 H2532 0.930 . S
C2542 C2540 1.419 . S
C2542 C2543 1.362 . S
C2543 H2533 0.930 . S
C2543 C2536 1.409 . S
C2543 C2542 1.362 . S
H2544 C2550 0.930 . S
H2545 C2553 0.930 . S
H2546 C2554 0.930 . S
H2547 C2555 0.930 . S
H2548 C2558 0.930 . S
H2549 C2559 0.930 . S
C2550 H2544 0.930 . S
C2550 C2551 1.355 . S
C2550 C2552 1.415 . S
C2551 C2550 1.355 . S
C2551 C2553 1.419 . S
C2552 C2550 1.415 . S
C2552 C2557 1.425 . S
C2552 C2559 1.409 . S
C2553 H2545 0.930 . S
C2553 C2551 1.419 . S
C2553 C2554 1.362 . S
C2554 H2546 0.930 . S
C2554 C2553 1.362 . S
C2554 C2557 1.409 . S
C2555 H2547 0.930 . S
C2555 C2556 1.355 . S
C2555 C2557 1.415 . S
C2556 C2555 1.355 . S
C2556 C2558 1.419 . S
C2557 C2552 1.425 . S
C2557 C2554 1.409 . S
C2557 C2555 1.415 . S
C2558 H2548 0.930 . S
C2558 C2556 1.419 . S
C2558 C2559 1.362 . S
C2559 H2549 0.930 . S
C2559 C2552 1.409 . S
C2559 C2558 1.362 . S
H2560 C2566 0.930 . S
H2561 C2569 0.930 . S
H2562 C2570 0.930 . S
H2563 C2571 0.930 . S
H2564 C2574 0.930 . S
H2565 C2575 0.930 . S
C2566 H2560 0.930 . S
C2566 C2567 1.355 . S
C2566 C2568 1.415 . S
C2567 C2566 1.355 . S
C2567 C2569 1.419 . S
C2568 C2566 1.415 . S
C2568 C2573 1.425 . S
C2568 C2575 1.409 . S
C2569 H2561 0.930 . S
C2569 C2567 1.419 . S
C2569 C2570 1.362 . S
C2570 H2562 0.930 . S
C2570 C2569 1.362 . S
C2570 C2573 1.409 . S
C2571 H2563 0.930 . S
C2571 C2572 1.355 . S
C2571 C2573 1.415 . S
C2572 C2571 1.355 . S
C2572 C2574 1.419 . S
C2573 C2568 1.425 . S
C2573 C2570 1.409 . S
C2573 C2571 1.415 . S
C2574 H2564 0.930 . S
C2574 C2572 1.419 . S
C2574 C2575 1.362 . S
C2575 H2565 0.930 . S
C2575 C2568 1.409 . S
C2575 C2574 1.362 . S
H2576 C2582 0.930 . S
H2577 C2585 0.930 . S
H2578 C2586 0.930 . S
H2579 C2587 0.930 . S
H2580 C2590 0.930 . S
H2581 C2591 0.930 . S
C2582 H2576 0.930 . S
C2582 C2583 1.355 . S
C2582 C2584 1.415 . S
C2583 C2582 1.355 . S
C2583 C2585 1.419 . S
C2584 C2582 1.415 . S
C2584 C2589 1.425 . S
C2584 C2591 1.409 . S
C2585 H2577 0.930 . S
C2585 C2583 1.419 . S
C2585 C2586 1.362 . S
C2586 H2578 0.930 . S
C2586 C2585 1.362 . S
C2586 C2589 1.409 . S
C2587 H2579 0.930 . S
C2587 C2588 1.355 . S
C2587 C2589 1.415 . S
C2588 C2587 1.355 . S
C2588 C2590 1.419 . S
C2589 C2584 1.425 . S
C2589 C2586 1.409 . S
C2589 C2587 1.415 . S
C2590 H2580 0.930 . S
C2590 C2588 1.419 . S
C2590 C2591 1.362 . S
C2591 H2581 0.930 . S
C2591 C2584 1.409 . S
C2591 C2590 1.362 . S
H2592 C2598 0.930 . S
H2593 C2601 0.930 . S
H2594 C2602 0.930 . S
H2595 C2603 0.930 . S
H2596 C2606 0.930 . S
H2597 C2607 0.930 . S
C2598 H2592 0.930 . S
C2598 C2599 1.355 . S
C2598 C2600 1.415 . S
C2599 C2598 1.355 . S
C2599 C2601 1.419 . S
C2600 C2598 1.415 . S
C2600 C2605 1.425 . S
C2600 C2607 1.409 . S
C2601 H2593 0.930 . S
C2601 C2599 1.419 . S
C2601 C2602 1.362 . S
C2602 H2594 0.930 . S
C2602 C2601 1.362 . S
C2602 C2605 1.409 . S
C2603 H2595 0.930 . S
C2603 C2604 1.355 . S
C2603 C2605 1.415 . S
C2604 C2603 1.355 . S
C2604 C2606 1.419 . S
C2605 C2600 1.425 . S
C2605 C2602 1.409 . S
C2605 C2603 1.415 . S
C2606 H2596 0.930 . S
C2606 C2604 1.419 . S
C2606 C2607 1.362 . S
C2607 H2597 0.930 . S
C2607 C2600 1.409 . S
C2607 C2606 1.362 . S
H2608 C2614 0.930 . S
H2609 C2617 0.930 . S
H2610 C2618 0.930 . S
H2611 C2619 0.930 . S
H2612 C2622 0.930 . S
H2613 C2623 0.930 . S
C2614 H2608 0.930 . S
C2614 C2615 1.355 . S
C2614 C2616 1.415 . S
C2615 C2614 1.355 . S
C2615 C2617 1.419 . S
C2616 C2614 1.415 . S
C2616 C2621 1.425 . S
C2616 C2623 1.409 . S
C2617 H2609 0.930 . S
C2617 C2615 1.419 . S
C2617 C2618 1.362 . S
C2618 H2610 0.930 . S
C2618 C2617 1.362 . S
C2618 C2621 1.409 . S
C2619 H2611 0.930 . S
C2619 C2620 1.355 . S
C2619 C2621 1.415 . S
C2620 C2619 1.355 . S
C2620 C2622 1.419 . S
C2621 C2616 1.425 . S
C2621 C2618 1.409 . S
C2621 C2619 1.415 . S
C2622 H2612 0.930 . S
C2622 C2620 1.419 . S
C2622 C2623 1.362 . S
C2623 H2613 0.930 . S
C2623 C2616 1.409 . S
C2623 C2622 1.362 . S
H2624 C2630 0.930 . S
H2625 C2633 0.930 . S
H2626 C2634 0.930 . S
H2627 C2635 0.930 . S
H2628 C2638 0.930 . S
H2629 C2639 0.930 . S
C2630 H2624 0.930 . S
C2630 C2631 1.355 . S
C2630 C2632 1.415 . S
C2631 C2630 1.355 . S
C2631 C2633 1.419 . S
C2632 C2630 1.415 . S
C2632 C2637 1.425 . S
C2632 C2639 1.409 . S
C2633 H2625 0.930 . S
C2633 C2631 1.419 . S
C2633 C2634 1.362 . S
C2634 H2626 0.930 . S
C2634 C2633 1.362 . S
C2634 C2637 1.409 . S
C2635 H2627 0.930 . S
C2635 C2636 1.355 . S
C2635 C2637 1.415 . S
C2636 C2635 1.355 . S
C2636 C2638 1.419 . S
C2637 C2632 1.425 . S
C2637 C2634 1.409 . S
C2637 C2635 1.415 . S
C2638 H2628 0.930 . S
C2638 C2636 1.419 . S
C2638 C2639 1.362 . S
C2639 H2629 0.930 . S
C2639 C2632 1.409 . S
C2639 C2638 1.362 . S
H2640 C2646 0.930 . S
H2641 C2649 0.930 . S
H2642 C2650 0.930 . S
H2643 C2651 0.930 . S
H2644 C2654 0.930 . S
H2645 C2655 0.930 . S
C2646 H2640 0.930 . S
C2646 C2647 1.355 . S
C2646 C2648 1.415 . S
C2647 C2646 1.355 . S
C2647 C2649 1.419 . S
C2648 C2646 1.415 . S
C2648 C2653 1.425 . S
C2648 C2655 1.409 . S
C2649 H2641 0.930 . S
C2649 C2647 1.419 . S
C2649 C2650 1.362 . S
C2650 H2642 0.930 . S
C2650 C2649 1.362 . S
C2650 C2653 1.409 . S
C2651 H2643 0.930 . S
C2651 C2652 1.355 . S
C2651 C2653 1.415 . S
C2652 C2651 1.355 . S
C2652 C2654 1.419 . S
C2653 C2648 1.425 . S
C2653 C2650 1.409 . S
C2653 C2651 1.415 . S
C2654 H2644 0.930 . S
C2654 C2652 1.419 . S
C2654 C2655 1.362 . S
C2655 H2645 0.930 . S
C2655 C2648 1.409 . S
C2655 C2654 1.362 . S
H2656 C2662 0.930 . S
H2657 C2665 0.930 . S
H2658 C2666 0.930 . S
H2659 C2667 0.930 . S
H2660 C2670 0.930 . S
H2661 C2671 0.930 . S
C2662 H2656 0.930 . S
C2662 C2663 1.355 . S
C2662 C2664 1.415 . S
C2663 C2662 1.355 . S
C2663 C2665 1.419 . S
C2664 C2662 1.415 . S
C2664 C2669 1.425 . S
C2664 C2671 1.409 . S
C2665 H2657 0.930 . S
C2665 C2663 1.419 . S
C2665 C2666 1.362 . S
C2666 H2658 0.930 . S
C2666 C2665 1.362 . S
C2666 C2669 1.409 . S
C2667 H2659 0.930 . S
C2667 C2668 1.355 . S
C2667 C2669 1.415 . S
C2668 C2667 1.355 . S
C2668 C2670 1.419 . S
C2669 C2664 1.425 . S
C2669 C2666 1.409 . S
C2669 C2667 1.415 . S
C2670 H2660 0.930 . S
C2670 C2668 1.419 . S
C2670 C2671 1.362 . S
C2671 H2661 0.930 . S
C2671 C2664 1.409 . S
C2671 C2670 1.362 . S
H2672 C2678 0.930 . S
H2673 C2681 0.930 . S
H2674 C2682 0.930 . S
H2675 C2683 0.930 . S
H2676 C2686 0.930 . S
H2677 C2687 0.930 . S
C2678 H2672 0.930 . S
C2678 C2679 1.355 . S
C2678 C2680 1.415 . S
C2679 C2678 1.355 . S
C2679 C2681 1.419 . S
C2680 C2678 1.415 . S
C2680 C2685 1.425 . S
C2680 C2687 1.409 . S
C2681 H2673 0.930 . S
C2681 C2679 1.419 . S
C2681 C2682 1.362 . S
C2682 H2674 0.930 . S
C2682 C2681 1.362 . S
C2682 C2685 1.409 . S
C2683 H2675 0.930 . S
C2683 C2684 1.355 . S
C2683 C2685 1.415 . S
C2684 C2683 1.355 . S
C2684 C2686 1.419 . S
C2685 C2680 1.425 . S
C2685 C2682 1.409 . S
C2685 C2683 1.415 . S
C2686 H2676 0.930 . S
C2686 C2684 1.419 . S
C2686 C2687 1.362 . S
C2687 H2677 0.930 . S
C2687 C2680 1.409 . S
C2687 C2686 1.362 . S
H2688 C2694 0.930 . S
H2689 C2697 0.930 . S
H2690 C2698 0.930 . S
H2691 C2699 0.930 . S
H2692 C2702 0.930 . S
H2693 C2703 0.930 . S
C2694 H2688 0.930 . S
C2694 C2695 1.355 . S
C2694 C2696 1.415 . S
C2695 C2694 1.355 . S
C2695 C2697 1.419 . S
C2696 C2694 1.415 . S
C2696 C2701 1.425 . S
C2696 C2703 1.409 . S
C2697 H2689 0.930 . S
C2697 C2695 1.419 . S
C2697 C2698 1.362 . S
C2698 H2690 0.930 . S
C2698 C2697 1.362 . S
C2698 C2701 1.409 . S
C2699 H2691 0.930 . S
C2699 C2700 1.355 . S
C2699 C2701 1.415 . S
C2700 C2699 1.355 . S
C2700 C2702 1.419 . S
C2701 C2696 1.425 . S
C2701 C2698 1.409 . S
C2701 C2699 1.415 . S
C2702 H2692 0.930 . S
C2702 C2700 1.419 . S
C2702 C2703 1.362 . S
C2703 H2693 0.930 . S
C2703 C2696 1.409 . S
C2703 C2702 1.362 . S
H2704 C2710 0.930 . S
H2705 C2713 0.930 . S
H2706 C2714 0.930 . S
H2707 C2715 0.930 . S
H2708 C2718 0.930 . S
H2709 C2719 0.930 . S
C2710 H2704 0.930 . S
C2710 C2711 1.355 . S
C2710 C2712 1.415 . S
C2711 C2710 1.355 . S
C2711 C2713 1.419 . S
C2712 C2710 1.415 . S
C2712 C2717 1.425 . S
C2712 C2719 1.409 . S
C2713 H2705 0.930 . S
C2713 C2711 1.419 . S
C2713 C2714 1.362 . S
C2714 H2706 0.930 . S
C2714 C2713 1.362 . S
C2714 C2717 1.409 . S
C2715 H2707 0.930 . S
C2715 C2716 1.355 . S
C2715 C2717 1.415 . S
C2716 C2715 1.355 . S
C2716 C2718 1.419 . S
C2717 C2712 1.425 . S
C2717 C2714 1.409 . S
C2717 C2715 1.415 . S
C2718 H2708 0.930 . S
C2718 C2716 1.419 . S
C2718 C2719 1.362 . S
C2719 H2709 0.930 . S
C2719 C2712 1.409 . S
C2719 C2718 1.362 . S
H2720 C2726 0.930 . S
H2721 C2729 0.930 . S
H2722 C2730 0.930 . S
H2723 C2731 0.930 . S
H2724 C2734 0.930 . S
H2725 C2735 0.930 . S
C2726 H2720 0.930 . S
C2726 C2727 1.355 . S
C2726 C2728 1.415 . S
C2727 C2726 1.355 . S
C2727 C2729 1.419 . S
C2728 C2726 1.415 . S
C2728 C2733 1.425 . S
C2728 C2735 1.409 . S
C2729 H2721 0.930 . S
C2729 C2727 1.419 . S
C2729 C2730 1.362 . S
C2730 H2722 0.930 . S
C2730 C2729 1.362 . S
C2730 C2733 1.409 . S
C2731 H2723 0.930 . S
C2731 C2732 1.355 . S
C2731 C2733 1.415 . S
C2732 C2731 1.355 . S
C2732 C2734 1.419 . S
C2733 C2728 1.425 . S
C2733 C2730 1.409 . S
C2733 C2731 1.415 . S
C2734 H2724 0.930 . S
C2734 C2732 1.419 . S
C2734 C2735 1.362 . S
C2735 H2725 0.930 . S
C2735 C2728 1.409 . S
C2735 C2734 1.362 . S
H2736 C2742 0.930 . S
H2737 C2745 0.930 . S
H2738 C2746 0.930 . S
H2739 C2747 0.930 . S
H2740 C2750 0.930 . S
H2741 C2751 0.930 . S
C2742 H2736 0.930 . S
C2742 C2743 1.355 . S
C2742 C2744 1.415 . S
C2743 C2742 1.355 . S
C2743 C2745 1.419 . S
C2744 C2742 1.415 . S
C2744 C2749 1.425 . S
C2744 C2751 1.409 . S
C2745 H2737 0.930 . S
C2745 C2743 1.419 . S
C2745 C2746 1.362 . S
C2746 H2738 0.930 . S
C2746 C2745 1.362 . S
C2746 C2749 1.409 . S
C2747 H2739 0.930 . S
C2747 C2748 1.355 . S
C2747 C2749 1.415 . S
C2748 C2747 1.355 . S
C2748 C2750 1.419 . S
C2749 C2744 1.425 . S
C2749 C2746 1.409 . S
C2749 C2747 1.415 . S
C2750 H2740 0.930 . S
C2750 C2748 1.419 . S
C2750 C2751 1.362 . S
C2751 H2741 0.930 . S
C2751 C2744 1.409 . S
C2751 C2750 1.362 . S
H2752 C2758 0.930 . S
H2753 C2761 0.930 . S
H2754 C2762 0.930 . S
H2755 C2763 0.930 . S
H2756 C2766 0.930 . S
H2757 C2767 0.930 . S
C2758 H2752 0.930 . S
C2758 C2759 1.355 . S
C2758 C2760 1.415 . S
C2759 C2758 1.355 . S
C2759 C2761 1.419 . S
C2760 C2758 1.415 . S
C2760 C2765 1.425 . S
C2760 C2767 1.409 . S
C2761 H2753 0.930 . S
C2761 C2759 1.419 . S
C2761 C2762 1.362 . S
C2762 H2754 0.930 . S
C2762 C2761 1.362 . S
C2762 C2765 1.409 . S
C2763 H2755 0.930 . S
C2763 C2764 1.355 . S
C2763 C2765 1.415 . S
C2764 C2763 1.355 . S
C2764 C2766 1.419 . S
C2765 C2760 1.425 . S
C2765 C2762 1.409 . S
C2765 C2763 1.415 . S
C2766 H2756 0.930 . S
C2766 C2764 1.419 . S
C2766 C2767 1.362 . S
C2767 H2757 0.930 . S
C2767 C2760 1.409 . S
C2767 C2766 1.362 . S
H2768 C2774 0.930 . S
H2769 C2777 0.930 . S
H2770 C2778 0.930 . S
H2771 C2779 0.930 . S
H2772 C2782 0.930 . S
H2773 C2783 0.930 . S
C2774 H2768 0.930 . S
C2774 C2775 1.355 . S
C2774 C2776 1.415 . S
C2775 C2774 1.355 . S
C2775 C2777 1.419 . S
C2776 C2774 1.415 . S
C2776 C2781 1.425 . S
C2776 C2783 1.409 . S
C2777 H2769 0.930 . S
C2777 C2775 1.419 . S
C2777 C2778 1.362 . S
C2778 H2770 0.930 . S
C2778 C2777 1.362 . S
C2778 C2781 1.409 . S
C2779 H2771 0.930 . S
C2779 C2780 1.355 . S
C2779 C2781 1.415 . S
C2780 C2779 1.355 . S
C2780 C2782 1.419 . S
C2781 C2776 1.425 . S
C2781 C2778 1.409 . S
C2781 C2779 1.415 . S
C2782 H2772 0.930 . S
C2782 C2780 1.419 . S
C2782 C2783 1.362 . S
C2783 H2773 0.930 . S
C2783 C2776 1.409 . S
C2783 C2782 1.362 . S
H2784 C2790 0.930 . S
H2785 C2793 0.930 . S
H2786 C2794 0.930 . S
H2787 C2795 0.930 . S
H2788 C2798 0.930 . S
H2789 C2799 0.930 . S
C2790 H2784 0.930 . S
C2790 C2791 1.355 . S
C2790 C2792 1.415 . S
C2791 C2790 1.355 . S
C2791 C2793 1.419 . S
C2792 C2790 1.415 . S
C2792 C2797 1.425 . S
C2792 C2799 1.409 . S
C2793 H2785 0.930 . S
C2793 C2791 1.419 . S
C2793 C2794 1.362 . S
C2794 H2786 0.930 . S
C2794 C2793 1.362 . S
C2794 C2797 1.409 . S
C2795 H2787 0.930 . S
C2795 C2796 1.355 . S
C2795 C2797 1.415 . S
C2796 C2795 1.355 . S
C2796 C2798 1.419 . S
C2797 C2792 1.425 . S
C2797 C2794 1.409 . S
C2797 C2795 1.415 . S
C2798 H2788 0.930 . S
C2798 C2796 1.419 . S
C2798 C2799 1.362 . S
C2799 H2789 0.930 . S
C2799 C2792 1.409 . S
C2799 C2798 1.362 . S
H2800 C2806 0.930 . S
H2801 C2809 0.930 . S
H2802 C2810 0.930 . S
H2803 C2811 0.930 . S
H2804 C2814 0.930 . S
H2805 C2815 0.930 . S
C2806 H2800 0.930 . S
C2806 C2807 1.355 . S
C2806 C2808 1.415 . S
C2807 C2806 1.355 . S
C2807 C2809 1.419 . S
C2808 C2806 1.415 . S
C2808 C2813 1.425 . S
C2808 C2815 1.409 . S
C2809 H2801 0.930 . S
C2809 C2807 1.419 . S
C2809 C2810 1.362 . S
C2810 H2802 0.930 . S
C2810 C2809 1.362 . S
C2810 C2813 1.409 . S
C2811 H2803 0.930 . S
C2811 C2812 1.355 . S
C2811 C2813 1.415 . S
C2812 C2811 1.355 . S
C2812 C2814 1.419 . S
C2813 C2808 1.425 . S
C2813 C2810 1.409 . S
C2813 C2811 1.415 . S
C2814 H2804 0.930 . S
C2814 C2812 1.419 . S
C2814 C2815 1.362 . S
C2815 H2805 0.930 . S
C2815 C2808 1.409 . S
C2815 C2814 1.362 . S
H2816 C2822 0.930 . S
H2817 C2825 0.930 . S
H2818 C2826 0.930 . S
H2819 C2827 0.930 . S
H2820 C2830 0.930 . S
H2821 C2831 0.930 . S
C2822 H2816 0.930 . S
C2822 C2823 1.355 . S
C2822 C2824 1.415 . S
C2823 C2822 1.355 . S
C2823 C2825 1.419 . S
C2824 C2822 1.415 . S
C2824 C2829 1.425 . S
C2824 C2831 1.409 . S
C2825 H2817 0.930 . S
C2825 C2823 1.419 . S
C2825 C2826 1.362 . S
C2826 H2818 0.930 . S
C2826 C2825 1.362 . S
C2826 C2829 1.409 . S
C2827 H2819 0.930 . S
C2827 C2828 1.355 . S
C2827 C2829 1.415 . S
C2828 C2827 1.355 . S
C2828 C2830 1.419 . S
C2829 C2824 1.425 . S
C2829 C2826 1.409 . S
C2829 C2827 1.415 . S
C2830 H2820 0.930 . S
C2830 C2828 1.419 . S
C2830 C2831 1.362 . S
C2831 H2821 0.930 . S
C2831 C2824 1.409 . S
C2831 C2830 1.362 . S
H2832 C2838 0.930 . S
H2833 C2841 0.930 . S
H2834 C2842 0.930 . S
H2835 C2843 0.930 . S
H2836 C2846 0.930 . S
H2837 C2847 0.930 . S
C2838 H2832 0.930 . S
C2838 C2839 1.355 . S
C2838 C2840 1.415 . S
C2839 C2838 1.355 . S
C2839 C2841 1.419 . S
C2840 C2838 1.415 . S
C2840 C2845 1.425 . S
C2840 C2847 1.409 . S
C2841 H2833 0.930 . S
C2841 C2839 1.419 . S
C2841 C2842 1.362 . S
C2842 H2834 0.930 . S
C2842 C2841 1.362 . S
C2842 C2845 1.409 . S
C2843 H2835 0.930 . S
C2843 C2844 1.355 . S
C2843 C2845 1.415 . S
C2844 C2843 1.355 . S
C2844 C2846 1.419 . S
C2845 C2840 1.425 . S
C2845 C2842 1.409 . S
C2845 C2843 1.415 . S
C2846 H2836 0.930 . S
C2846 C2844 1.419 . S
C2846 C2847 1.362 . S
C2847 H2837 0.930 . S
C2847 C2840 1.409 . S
C2847 C2846 1.362 . S
H2848 C2854 0.930 . S
H2849 C2857 0.930 . S
H2850 C2858 0.930 . S
H2851 C2859 0.930 . S
H2852 C2862 0.930 . S
H2853 C2863 0.930 . S
C2854 H2848 0.930 . S
C2854 C2855 1.355 . S
C2854 C2856 1.415 . S
C2855 C2854 1.355 . S
C2855 C2857 1.419 . S
C2856 C2854 1.415 . S
C2856 C2861 1.425 . S
C2856 C2863 1.409 . S
C2857 H2849 0.930 . S
C2857 C2855 1.419 . S
C2857 C2858 1.362 . S
C2858 H2850 0.930 . S
C2858 C2857 1.362 . S
C2858 C2861 1.409 . S
C2859 H2851 0.930 . S
C2859 C2860 1.355 . S
C2859 C2861 1.415 . S
C2860 C2859 1.355 . S
C2860 C2862 1.419 . S
C2861 C2856 1.425 . S
C2861 C2858 1.409 . S
C2861 C2859 1.415 . S
C2862 H2852 0.930 . S
C2862 C2860 1.419 . S
C2862 C2863 1.362 . S
C2863 H2853 0.930 . S
C2863 C2856 1.409 . S
C2863 C2862 1.362 . S
H2864 C2870 0.930 . S
H2865 C2873 0.930 . S
H2866 C2874 0.930 . S
H2867 C2875 0.930 . S
H2868 C2878 0.930 . S
H2869 C2879 0.930 . S
C2870 H2864 0.930 . S
C2870 C2871 1.355 . S
C2870 C2872 1.415 . S
C2871 C2870 1.355 . S
C2871 C2873 1.419 . S
C2872 C2870 1.415 . S
C2872 C2877 1.425 . S
C2872 C2879 1.409 . S
C2873 H2865 0.930 . S
C2873 C2871 1.419 . S
C2873 C2874 1.362 . S
C2874 H2866 0.930 . S
C2874 C2873 1.362 . S
C2874 C2877 1.409 . S
C2875 H2867 0.930 . S
C2875 C2876 1.355 . S
C2875 C2877 1.415 . S
C2876 C2875 1.355 . S
C2876 C2878 1.419 . S
C2877 C2872 1.425 . S
C2877 C2874 1.409 . S
C2877 C2875 1.415 . S
C2878 H2868 0.930 . S
C2878 C2876 1.419 . S
C2878 C2879 1.362 . S
C2879 H2869 0.930 . S
C2879 C2872 1.409 . S
C2879 C2878 1.362 . S
H2880 C2886 0.930 . S
H2881 C2889 0.930 . S
H2882 C2890 0.930 . S
H2883 C2891 0.930 . S
H2884 C2894 0.930 . S
H2885 C2895 0.930 . S
C2886 H2880 0.930 . S
C2886 C2887 1.355 . S
C2886 C2888 1.415 . S
C2887 C2886 1.355 . S
C2887 C2889 1.419 . S
C2888 C2886 1.415 . S
C2888 C2893 1.425 . S
C2888 C2895 1.409 . S
C2889 H2881 0.930 . S
C2889 C2887 1.419 . S
C2889 C2890 1.362 . S
C2890 H2882 0.930 . S
C2890 C2889 1.362 . S
C2890 C2893 1.409 . S
C2891 H2883 0.930 . S
C2891 C2892 1.355 . S
C2891 C2893 1.415 . S
C2892 C2891 1.355 . S
C2892 C2894 1.419 . S
C2893 C2888 1.425 . S
C2893 C2890 1.409 . S
C2893 C2891 1.415 . S
C2894 H2884 0.930 . S
C2894 C2892 1.419 . S
C2894 C2895 1.362 . S
C2895 H2885 0.930 . S
C2895 C2888 1.409 . S
C2895 C2894 1.362 . S
H2896 C2902 0.930 . S
H2897 C2905 0.930 . S
H2898 C2906 0.930 . S
H2899 C2907 0.930 . S
H2900 C2910 0.930 . S
H2901 C2911 0.930 . S
C2902 H2896 0.930 . S
C2902 C2903 1.355 . S
C2902 C2904 1.415 . S
C2903 C2902 1.355 . S
C2903 C2905 1.419 . S
C2904 C2902 1.415 . S
C2904 C2909 1.425 . S
C2904 C2911 1.409 . S
C2905 H2897 0.930 . S
C2905 C2903 1.419 . S
C2905 C2906 1.362 . S
C2906 H2898 0.930 . S
C2906 C2905 1.362 . S
C2906 C2909 1.409 . S
C2907 H2899 0.930 . S
C2907 C2908 1.355 . S
C2907 C2909 1.415 . S
C2908 C2907 1.355 . S
C2908 C2910 1.419 . S
C2909 C2904 1.425 . S
C2909 C2906 1.409 . S
C2909 C2907 1.415 . S
C2910 H2900 0.930 . S
C2910 C2908 1.419 . S
C2910 C2911 1.362 . S
C2911 H2901 0.930 . S
C2911 C2904 1.409 . S
C2911 C2910 1.362 . S
H2912 C2918 0.930 . S
H2913 C2921 0.930 . S
H2914 C2922 0.930 . S
H2915 C2923 0.930 . S
H2916 C2926 0.930 . S
H2917 C2927 0.930 . S
C2918 H2912 0.930 . S
C2918 C2919 1.355 . S
C2918 C2920 1.415 . S
C2919 C2918 1.355 . S
C2919 C2921 1.419 . S
C2920 C2918 1.415 . S
C2920 C2925 1.425 . S
C2920 C2927 1.409 . S
C2921 H2913 0.930 . S
C2921 C2919 1.419 . S
C2921 C2922 1.362 . S
C2922 H2914 0.930 . S
C2922 C2921 1.362 . S
C2922 C2925 1.409 . S
C2923 H2915 0.930 . S
C2923 C2924 1.355 . S
C2923 C2925 1.415 . S
C2924 C2923 1.355 . S
C2924 C2926 1.419 . S
C2925 C2920 1.425 . S
C2925 C2922 1.409 . S
C2925 C2923 1.415 . S
C2926 H2916 0.930 . S
C2926 C2924 1.419 . S
C2926 C2927 1.362 . S
C2927 H2917 0.930 . S
C2927 C2920 1.409 . S
C2927 C2926 1.362 . S
H2928 C2934 0.930 . S
H2929 C2937 0.930 . S
H2930 C2938 0.930 . S
H2931 C2939 0.930 . S
H2932 C2942 0.930 . S
H2933 C2943 0.930 . S
C2934 H2928 0.930 . S
C2934 C2935 1.355 . S
C2934 C2936 1.415 . S
C2935 C2934 1.355 . S
C2935 C2937 1.419 . S
C2936 C2934 1.415 . S
C2936 C2941 1.425 . S
C2936 C2943 1.409 . S
C2937 H2929 0.930 . S
C2937 C2935 1.419 . S
C2937 C2938 1.362 . S
C2938 H2930 0.930 . S
C2938 C2937 1.362 . S
C2938 C2941 1.409 . S
C2939 H2931 0.930 . S
C2939 C2940 1.355 . S
C2939 C2941 1.415 . S
C2940 C2939 1.355 . S
C2940 C2942 1.419 . S
C2941 C2936 1.425 . S
C2941 C2938 1.409 . S
C2941 C2939 1.415 . S
C2942 H2932 0.930 . S
C2942 C2940 1.419 . S
C2942 C2943 1.362 . S
C2943 H2933 0.930 . S
C2943 C2936 1.409 . S
C2943 C2942 1.362 . S
H2944 C2950 0.930 . S
H2945 C2953 0.930 . S
H2946 C2954 0.930 . S
H2947 C2955 0.930 . S
H2948 C2958 0.930 . S
H2949 C2959 0.930 . S
C2950 H2944 0.930 . S
C2950 C2951 1.355 . S
C2950 C2952 1.415 . S
C2951 C2950 1.355 . S
C2951 C2953 1.419 . S
C2952 C2950 1.415 . S
C2952 C2957 1.425 . S
C2952 C2959 1.409 . S
C2953 H2945 0.930 . S
C2953 C2951 1.419 . S
C2953 C2954 1.362 . S
C2954 H2946 0.930 . S
C2954 C2953 1.362 . S
C2954 C2957 1.409 . S
C2955 H2947 0.930 . S
C2955 C2956 1.355 . S
C2955 C2957 1.415 . S
C2956 C2955 1.355 . S
C2956 C2958 1.419 . S
C2957 C2952 1.425 . S
C2957 C2954 1.409 . S
C2957 C2955 1.415 . S
C2958 H2948 0.930 . S
C2958 C2956 1.419 . S
C2958 C2959 1.362 . S
C2959 H2949 0.930 . S
C2959 C2952 1.409 . S
C2959 C2958 1.362 . S
H2960 C2966 0.930 . S
H2961 C2969 0.930 . S
H2962 C2970 0.930 . S
H2963 C2971 0.930 . S
H2964 C2974 0.930 . S
H2965 C2975 0.930 . S
C2966 H2960 0.930 . S
C2966 C2967 1.355 . S
C2966 C2968 1.415 . S
C2967 C2966 1.355 . S
C2967 C2969 1.419 . S
C2968 C2966 1.415 . S
C2968 C2973 1.425 . S
C2968 C2975 1.409 . S
C2969 H2961 0.930 . S
C2969 C2967 1.419 . S
C2969 C2970 1.362 . S
C2970 H2962 0.930 . S
C2970 C2969 1.362 . S
C2970 C2973 1.409 . S
C2971 H2963 0.930 . S
C2971 C2972 1.355 . S
C2971 C2973 1.415 . S
C2972 C2971 1.355 . S
C2972 C2974 1.419 . S
C2973 C2968 1.425 . S
C2973 C2970 1.409 . S
C2973 C2971 1.415 . S
C2974 H2964 0.930 . S
C2974 C2972 1.419 . S
C2974 C2975 1.362 . S
C2975 H2965 0.930 . S
C2975 C2968 1.409 . S
C2975 C2974 1.362 . S
H2976 C2982 0.930 . S
H2977 C2985 0.930 . S
H2978 C2986 0.930 . S
H2979 C2987 0.930 . S
H2980 C2990 0.930 . S
H2981 C2991 0.930 . S
C2982 H2976 0.930 . S
C2982 C2983 1.355 . S
C2982 C2984 1.415 . S
C2983 C2982 1.355 . S
C2983 C2985 1.419 . S
C2984 C2982 1.415 . S
C2984 C2989 1.425 . S
C2984 C2991 1.409 . S
C2985 H2977 0.930 . S
C2985 C2983 1.419 . S
C2985 C2986 1.362 . S
C2986 H2978 0.930 . S
C2986 C2985 1.362 . S
C2986 C2989 1.409 . S
C2987 H2979 0.930 . S
C2987 C2988 1.355 . S
C2987 C2989 1.415 . S
C2988 C2987 1.355 . S
C2988 C2990 1.419 . S
C2989 C2984 1.425 . S
C2989 C2986 1.409 . S
C2989 C2987 1.415 . S
C2990 H2980 0.930 . S
C2990 C2988 1.419 . S
C2990 C2991 1.362 . S
C2991 H2981 0.930 . S
C2991 C2984 1.409 . S
C2991 C2990 1.362 . S
H2992 C2998 0.930 . S
H2993 C3001 0.930 . S
H2994 C3002 0.930 . S
H2995 C3003 0.930 . S
H2996 C3006 0.930 . S
H2997 C3007 0.930 . S
C2998 H2992 0.930 . S
C2998 C2999 1.355 . S
C2998 C3000 1.415 . S
C2999 C2998 1.355 . S
C2999 C3001 1.419 . S
C3000 C2998 1.415 . S
C3000 C3005 1.425 . S
C3000 C3007 1.409 . S
C3001 H2993 0.930 . S
C3001 C2999 1.419 . S
C3001 C3002 1.362 . S
C3002 H2994 0.930 . S
C3002 C3001 1.362 . S
C3002 C3005 1.409 . S
C3003 H2995 0.930 . S
C3003 C3004 1.355 . S
C3003 C3005 1.415 . S
C3004 C3003 1.355 . S
C3004 C3006 1.419 . S
C3005 C3000 1.425 . S
C3005 C3002 1.409 . S
C3005 C3003 1.415 . S
C3006 H2996 0.930 . S
C3006 C3004 1.419 . S
C3006 C3007 1.362 . S
C3007 H2997 0.930 . S
C3007 C3000 1.409 . S
C3007 C3006 1.362 . S
H3008 C3014 0.930 . S
H3009 C3017 0.930 . S
H3010 C3018 0.930 . S
H3011 C3019 0.930 . S
H3012 C3022 0.930 . S
H3013 C3023 0.930 . S
C3014 H3008 0.930 . S
C3014 C3015 1.355 . S
C3014 C3016 1.415 . S
C3015 C3014 1.355 . S
C3015 C3017 1.419 . S
C3016 C3014 1.415 . S
C3016 C3021 1.425 . S
C3016 C3023 1.409 . S
C3017 H3009 0.930 . S
C3017 C3015 1.419 . S
C3017 C3018 1.362 . S
C3018 H3010 0.930 . S
C3018 C3017 1.362 . S
C3018 C3021 1.409 . S
C3019 H3011 0.930 . S
C3019 C3020 1.355 . S
C3019 C3021 1.415 . S
C3020 C3019 1.355 . S
C3020 C3022 1.419 . S
C3021 C3016 1.425 . S
C3021 C3018 1.409 . S
C3021 C3019 1.415 . S
C3022 H3012 0.930 . S
C3022 C3020 1.419 . S
C3022 C3023 1.362 . S
C3023 H3013 0.930 . S
C3023 C3016 1.409 . S
C3023 C3022 1.362 . S
H3024 C3030 0.930 . S
H3025 C3033 0.930 . S
H3026 C3034 0.930 . S
H3027 C3035 0.930 . S
H3028 C3038 0.930 . S
H3029 C3039 0.930 . S
C3030 H3024 0.930 . S
C3030 C3031 1.355 . S
C3030 C3032 1.415 . S
C3031 C3030 1.355 . S
C3031 C3033 1.419 . S
C3032 C3030 1.415 . S
C3032 C3037 1.425 . S
C3032 C3039 1.409 . S
C3033 H3025 0.930 . S
C3033 C3031 1.419 . S
C3033 C3034 1.362 . S
C3034 H3026 0.930 . S
C3034 C3033 1.362 . S
C3034 C3037 1.409 . S
C3035 H3027 0.930 . S
C3035 C3036 1.355 . S
C3035 C3037 1.415 . S
C3036 C3035 1.355 . S
C3036 C3038 1.419 . S
C3037 C3032 1.425 . S
C3037 C3034 1.409 . S
C3037 C3035 1.415 . S
C3038 H3028 0.930 . S
C3038 C3036 1.419 . S
C3038 C3039 1.362 . S
C3039 H3029 0.930 . S
C3039 C3032 1.409 . S
C3039 C3038 1.362 . S
H3040 C3046 0.930 . S
H3041 C3049 0.930 . S
H3042 C3050 0.930 . S
H3043 C3051 0.930 . S
H3044 C3054 0.930 . S
H3045 C3055 0.930 . S
C3046 H3040 0.930 . S
C3046 C3047 1.355 . S
C3046 C3048 1.415 . S
C3047 C3046 1.355 . S
C3047 C3049 1.419 . S
C3048 C3046 1.415 . S
C3048 C3053 1.425 . S
C3048 C3055 1.409 . S
C3049 H3041 0.930 . S
C3049 C3047 1.419 . S
C3049 C3050 1.362 . S
C3050 H3042 0.930 . S
C3050 C3049 1.362 . S
C3050 C3053 1.409 . S
C3051 H3043 0.930 . S
C3051 C3052 1.355 . S
C3051 C3053 1.415 . S
C3052 C3051 1.355 . S
C3052 C3054 1.419 . S
C3053 C3048 1.425 . S
C3053 C3050 1.409 . S
C3053 C3051 1.415 . S
C3054 H3044 0.930 . S
C3054 C3052 1.419 . S
C3054 C3055 1.362 . S
C3055 H3045 0.930 . S
C3055 C3048 1.409 . S
C3055 C3054 1.362 . S
H3056 C3062 0.930 . S
H3057 C3065 0.930 . S
H3058 C3066 0.930 . S
H3059 C3067 0.930 . S
H3060 C3070 0.930 . S
H3061 C3071 0.930 . S
C3062 H3056 0.930 . S
C3062 C3063 1.355 . S
C3062 C3064 1.415 . S
C3063 C3062 1.355 . S
C3063 C3065 1.419 . S
C3064 C3062 1.415 . S
C3064 C3069 1.425 . S
C3064 C3071 1.409 . S
C3065 H3057 0.930 . S
C3065 C3063 1.419 . S
C3065 C3066 1.362 . S
C3066 H3058 0.930 . S
C3066 C3065 1.362 . S
C3066 C3069 1.409 . S
C3067 H3059 0.930 . S
C3067 C3068 1.355 . S
C3067 C3069 1.415 . S
C3068 C3067 1.355 . S
C3068 C3070 1.419 . S
C3069 C3064 1.425 . S
C3069 C3066 1.409 . S
C3069 C3067 1.415 . S
C3070 H3060 0.930 . S
C3070 C3068 1.419 . S
C3070 C3071 1.362 . S
C3071 H3061 0.930 . S
C3071 C3064 1.409 . S
C3071 C3070 1.362 . S
H3072 C3078 0.930 . S
H3073 C3081 0.930 . S
H3074 C3082 0.930 . S
H3075 C3083 0.930 . S
H3076 C3086 0.930 . S
H3077 C3087 0.930 . S
C3078 H3072 0.930 . S
C3078 C3079 1.355 . S
C3078 C3080 1.415 . S
C3079 C3078 1.355 . S
C3079 C3081 1.419 . S
C3080 C3078 1.415 . S
C3080 C3085 1.425 . S
C3080 C3087 1.409 . S
C3081 H3073 0.930 . S
C3081 C3079 1.419 . S
C3081 C3082 1.362 . S
C3082 H3074 0.930 . S
C3082 C3081 1.362 . S
C3082 C3085 1.409 . S
C3083 H3075 0.930 . S
C3083 C3084 1.355 . S
C3083 C3085 1.415 . S
C3084 C3083 1.355 . S
C3084 C3086 1.419 . S
C3085 C3080 1.425 . S
C3085 C3082 1.409 . S
C3085 C3083 1.415 . S
C3086 H3076 0.930 . S
C3086 C3084 1.419 . S
C3086 C3087 1.362 . S
C3087 H3077 0.930 . S
C3087 C3080 1.409 . S
C3087 C3086 1.362 . S
H3088 C3094 0.930 . S
H3089 C3097 0.930 . S
H3090 C3098 0.930 . S
H3091 C3099 0.930 . S
H3092 C3102 0.930 . S
H3093 C3103 0.930 . S
C3094 H3088 0.930 . S
C3094 C3095 1.355 . S
C3094 C3096 1.415 . S
C3095 C3094 1.355 . S
C3095 C3097 1.419 . S
C3096 C3094 1.415 . S
C3096 C3101 1.425 . S
C3096 C3103 1.409 . S
C3097 H3089 0.930 . S
C3097 C3095 1.419 . S
C3097 C3098 1.362 . S
C3098 H3090 0.930 . S
C3098 C3097 1.362 . S
C3098 C3101 1.409 . S
C3099 H3091 0.930 . S
C3099 C3100 1.355 . S
C3099 C3101 1.415 . S
C3100 C3099 1.355 . S
C3100 C3102 1.419 . S
C3101 C3096 1.425 . S
C3101 C3098 1.409 . S
C3101 C3099 1.415 . S
C3102 H3092 0.930 . S
C3102 C3100 1.419 . S
C3102 C3103 1.362 . S
C3103 H3093 0.930 . S
C3103 C3096 1.409 . S
C3103 C3102 1.362 . S
H3104 C3110 0.930 . S
H3105 C3113 0.930 . S
H3106 C3114 0.930 . S
H3107 C3115 0.930 . S
H3108 C3118 0.930 . S
H3109 C3119 0.930 . S
C3110 H3104 0.930 . S
C3110 C3111 1.355 . S
C3110 C3112 1.415 . S
C3111 C3110 1.355 . S
C3111 C3113 1.419 . S
C3112 C3110 1.415 . S
C3112 C3117 1.425 . S
C3112 C3119 1.409 . S
C3113 H3105 0.930 . S
C3113 C3111 1.419 . S
C3113 C3114 1.362 . S
C3114 H3106 0.930 . S
C3114 C3113 1.362 . S
C3114 C3117 1.409 . S
C3115 H3107 0.930 . S
C3115 C3116 1.355 . S
C3115 C3117 1.415 . S
C3116 C3115 1.355 . S
C3116 C3118 1.419 . S
C3117 C3112 1.425 . S
C3117 C3114 1.409 . S
C3117 C3115 1.415 . S
C3118 H3108 0.930 . S
C3118 C3116 1.419 . S
C3118 C3119 1.362 . S
C3119 H3109 0.930 . S
C3119 C3112 1.409 . S
C3119 C3118 1.362 . S
H3120 C3126 0.930 . S
H3121 C3129 0.930 . S
H3122 C3130 0.930 . S
H3123 C3131 0.930 . S
H3124 C3134 0.930 . S
H3125 C3135 0.930 . S
C3126 H3120 0.930 . S
C3126 C3127 1.355 . S
C3126 C3128 1.415 . S
C3127 C3126 1.355 . S
C3127 C3129 1.419 . S
C3128 C3126 1.415 . S
C3128 C3133 1.425 . S
C3128 C3135 1.409 . S
C3129 H3121 0.930 . S
C3129 C3127 1.419 . S
C3129 C3130 1.362 . S
C3130 H3122 0.930 . S
C3130 C3129 1.362 . S
C3130 C3133 1.409 . S
C3131 H3123 0.930 . S
C3131 C3132 1.355 . S
C3131 C3133 1.415 . S
C3132 C3131 1.355 . S
C3132 C3134 1.419 . S
C3133 C3128 1.425 . S
C3133 C3130 1.409 . S
C3133 C3131 1.415 . S
C3134 H3124 0.930 . S
C3134 C3132 1.419 . S
C3134 C3135 1.362 . S
C3135 H3125 0.930 . S
C3135 C3128 1.409 . S
C3135 C3134 1.362 . S
H3136 C3142 0.930 . S
H3137 C3145 0.930 . S
H3138 C3146 0.930 . S
H3139 C3147 0.930 . S
H3140 C3150 0.930 . S
H3141 C3151 0.930 . S
C3142 H3136 0.930 . S
C3142 C3143 1.355 . S
C3142 C3144 1.415 . S
C3143 C3142 1.355 . S
C3143 C3145 1.419 . S
C3144 C3142 1.415 . S
C3144 C3149 1.425 . S
C3144 C3151 1.409 . S
C3145 H3137 0.930 . S
C3145 C3143 1.419 . S
C3145 C3146 1.362 . S
C3146 H3138 0.930 . S
C3146 C3145 1.362 . S
C3146 C3149 1.409 . S
C3147 H3139 0.930 . S
C3147 C3148 1.355 . S
C3147 C3149 1.415 . S
C3148 C3147 1.355 . S
C3148 C3150 1.419 . S
C3149 C3144 1.425 . S
C3149 C3146 1.409 . S
C3149 C3147 1.415 . S
C3150 H3140 0.930 . S
C3150 C3148 1.419 . S
C3150 C3151 1.362 . S
C3151 H3141 0.930 . S
C3151 C3144 1.409 . S
C3151 C3150 1.362 . S
H3152 C3158 0.930 . S
H3153 C3161 0.930 . S
H3154 C3162 0.930 . S
H3155 C3163 0.930 . S
H3156 C3166 0.930 . S
H3157 C3167 0.930 . S
C3158 H3152 0.930 . S
C3158 C3159 1.355 . S
C3158 C3160 1.415 . S
C3159 C3158 1.355 . S
C3159 C3161 1.419 . S
C3160 C3158 1.415 . S
C3160 C3165 1.425 . S
C3160 C3167 1.409 . S
C3161 H3153 0.930 . S
C3161 C3159 1.419 . S
C3161 C3162 1.362 . S
C3162 H3154 0.930 . S
C3162 C3161 1.362 . S
C3162 C3165 1.409 . S
C3163 H3155 0.930 . S
C3163 C3164 1.355 . S
C3163 C3165 1.415 . S
C3164 C3163 1.355 . S
C3164 C3166 1.419 . S
C3165 C3160 1.425 . S
C3165 C3162 1.409 . S
C3165 C3163 1.415 . S
C3166 H3156 0.930 . S
C3166 C3164 1.419 . S
C3166 C3167 1.362 . S
C3167 H3157 0.930 . S
C3167 C3160 1.409 . S
C3167 C3166 1.362 . S
H3168 C3174 0.930 . S
H3169 C3177 0.930 . S
H3170 C3178 0.930 . S
H3171 C3179 0.930 . S
H3172 C3182 0.930 . S
H3173 C3183 0.930 . S
C3174 H3168 0.930 . S
C3174 C3175 1.355 . S
C3174 C3176 1.415 . S
C3175 C3174 1.355 . S
C3175 C3177 1.419 . S
C3176 C3174 1.415 . S
C3176 C3181 1.425 . S
C3176 C3183 1.409 . S
C3177 H3169 0.930 . S
C3177 C3175 1.419 . S
C3177 C3178 1.362 . S
C3178 H3170 0.930 . S
C3178 C3177 1.362 . S
C3178 C3181 1.409 . S
C3179 H3171 0.930 . S
C3179 C3180 1.355 . S
C3179 C3181 1.415 . S
C3180 C3179 1.355 . S
C3180 C3182 1.419 . S
C3181 C3176 1.425 . S
C3181 C3178 1.409 . S
C3181 C3179 1.415 . S
C3182 H3172 0.930 . S
C3182 C3180 1.419 . S
C3182 C3183 1.362 . S
C3183 H3173 0.930 . S
C3183 C3176 1.409 . S
C3183 C3182 1.362 . S
H3184 C3190 0.930 . S
H3185 C3193 0.930 . S
H3186 C3194 0.930 . S
H3187 C3195 0.930 . S
H3188 C3198 0.930 . S
H3189 C3199 0.930 . S
C3190 H3184 0.930 . S
C3190 C3191 1.355 . S
C3190 C3192 1.415 . S
C3191 C3190 1.355 . S
C3191 C3193 1.419 . S
C3192 C3190 1.415 . S
C3192 C3197 1.425 . S
C3192 C3199 1.409 . S
C3193 H3185 0.930 . S
C3193 C3191 1.419 . S
C3193 C3194 1.362 . S
C3194 H3186 0.930 . S
C3194 C3193 1.362 . S
C3194 C3197 1.409 . S
C3195 H3187 0.930 . S
C3195 C3196 1.355 . S
C3195 C3197 1.415 . S
C3196 C3195 1.355 . S
C3196 C3198 1.419 . S
C3197 C3192 1.425 . S
C3197 C3194 1.409 . S
C3197 C3195 1.415 . S
C3198 H3188 0.930 . S
C3198 C3196 1.419 . S
C3198 C3199 1.362 . S
C3199 H3189 0.930 . S
C3199 C3192 1.409 . S
C3199 C3198 1.362 . S
H3200 C3206 0.930 . S
H3201 C3209 0.930 . S
H3202 C3210 0.930 . S
H3203 C3211 0.930 . S
H3204 C3214 0.930 . S
H3205 C3215 0.930 . S
C3206 H3200 0.930 . S
C3206 C3207 1.355 . S
C3206 C3208 1.415 . S
C3207 C3206 1.355 . S
C3207 C3209 1.419 . S
C3208 C3206 1.415 . S
C3208 C3213 1.425 . S
C3208 C3215 1.409 . S
C3209 H3201 0.930 . S
C3209 C3207 1.419 . S
C3209 C3210 1.362 . S
C3210 H3202 0.930 . S
C3210 C3209 1.362 . S
C3210 C3213 1.409 . S
C3211 H3203 0.930 . S
C3211 C3212 1.355 . S
C3211 C3213 1.415 . S
C3212 C3211 1.355 . S
C3212 C3214 1.419 . S
C3213 C3208 1.425 . S
C3213 C3210 1.409 . S
C3213 C3211 1.415 . S
C3214 H3204 0.930 . S
C3214 C3212 1.419 . S
C3214 C3215 1.362 . S
C3215 H3205 0.930 . S
C3215 C3208 1.409 . S
C3215 C3214 1.362 . S
H3216 C3222 0.930 . S
H3217 C3225 0.930 . S
H3218 C3226 0.930 . S
H3219 C3227 0.930 . S
H3220 C3230 0.930 . S
H3221 C3231 0.930 . S
C3222 H3216 0.930 . S
C3222 C3223 1.355 . S
C3222 C3224 1.415 . S
C3223 C3222 1.355 . S
C3223 C3225 1.419 . S
C3224 C3222 1.415 . S
C3224 C3229 1.425 . S
C3224 C3231 1.409 . S
C3225 H3217 0.930 . S
C3225 C3223 1.419 . S
C3225 C3226 1.362 . S
C3226 H3218 0.930 . S
C3226 C3225 1.362 . S
C3226 C3229 1.409 . S
C3227 H3219 0.930 . S
C3227 C3228 1.355 . S
C3227 C3229 1.415 . S
C3228 C3227 1.355 . S
C3228 C3230 1.419 . S
C3229 C3224 1.425 . S
C3229 C3226 1.409 . S
C3229 C3227 1.415 . S
C3230 H3220 0.930 . S
C3230 C3228 1.419 . S
C3230 C3231 1.362 . S
C3231 H3221 0.930 . S
C3231 C3224 1.409 . S
C3231 C3230 1.362 . S
H3232 C3238 0.930 . S
H3233 C3241 0.930 . S
H3234 C3242 0.930 . S
H3235 C3243 0.930 . S
H3236 C3246 0.930 . S
H3237 C3247 0.930 . S
C3238 H3232 0.930 . S
C3238 C3239 1.355 . S
C3238 C3240 1.415 . S
C3239 C3238 1.355 . S
C3239 C3241 1.419 . S
C3240 C3238 1.415 . S
C3240 C3245 1.425 . S
C3240 C3247 1.409 . S
C3241 H3233 0.930 . S
C3241 C3239 1.419 . S
C3241 C3242 1.362 . S
C3242 H3234 0.930 . S
C3242 C3241 1.362 . S
C3242 C3245 1.409 . S
C3243 H3235 0.930 . S
C3243 C3244 1.355 . S
C3243 C3245 1.415 . S
C3244 C3243 1.355 . S
C3244 C3246 1.419 . S
C3245 C3240 1.425 . S
C3245 C3242 1.409 . S
C3245 C3243 1.415 . S
C3246 H3236 0.930 . S
C3246 C3244 1.419 . S
C3246 C3247 1.362 . S
C3247 H3237 0.930 . S
C3247 C3240 1.409 . S
C3247 C3246 1.362 . S
H3248 C3254 0.930 . S
H3249 C3257 0.930 . S
H3250 C3258 0.930 . S
H3251 C3259 0.930 . S
H3252 C3262 0.930 . S
H3253 C3263 0.930 . S
C3254 H3248 0.930 . S
C3254 C3255 1.355 . S
C3254 C3256 1.415 . S
C3255 C3254 1.355 . S
C3255 C3257 1.419 . S
C3256 C3254 1.415 . S
C3256 C3261 1.425 . S
C3256 C3263 1.409 . S
C3257 H3249 0.930 . S
C3257 C3255 1.419 . S
C3257 C3258 1.362 . S
C3258 H3250 0.930 . S
C3258 C3257 1.362 . S
C3258 C3261 1.409 . S
C3259 H3251 0.930 . S
C3259 C3260 1.355 . S
C3259 C3261 1.415 . S
C3260 C3259 1.355 . S
C3260 C3262 1.419 . S
C3261 C3256 1.425 . S
C3261 C3258 1.409 . S
C3261 C3259 1.415 . S
C3262 H3252 0.930 . S
C3262 C3260 1.419 . S
C3262 C3263 1.362 . S
C3263 H3253 0.930 . S
C3263 C3256 1.409 . S
C3263 C3262 1.362 . S
H3264 C3270 0.930 . S
H3265 C3273 0.930 . S
H3266 C3274 0.930 . S
H3267 C3275 0.930 . S
H3268 C3278 0.930 . S
H3269 C3279 0.930 . S
C3270 H3264 0.930 . S
C3270 C3271 1.355 . S
C3270 C3272 1.415 . S
C3271 C3270 1.355 . S
C3271 C3273 1.419 . S
C3272 C3270 1.415 . S
C3272 C3277 1.425 . S
C3272 C3279 1.409 . S
C3273 H3265 0.930 . S
C3273 C3271 1.419 . S
C3273 C3274 1.362 . S
C3274 H3266 0.930 . S
C3274 C3273 1.362 . S
C3274 C3277 1.409 . S
C3275 H3267 0.930 . S
C3275 C3276 1.355 . S
C3275 C3277 1.415 . S
C3276 C3275 1.355 . S
C3276 C3278 1.419 . S
C3277 C3272 1.425 . S
C3277 C3274 1.409 . S
C3277 C3275 1.415 . S
C3278 H3268 0.930 . S
C3278 C3276 1.419 . S
C3278 C3279 1.362 . S
C3279 H3269 0.930 . S
C3279 C3272 1.409 . S
C3279 C3278 1.362 . S
H3280 C3286 0.930 . S
H3281 C3289 0.930 . S
H3282 C3290 0.930 . S
H3283 C3291 0.930 . S
H3284 C3294 0.930 . S
H3285 C3295 0.930 . S
C3286 H3280 0.930 . S
C3286 C3287 1.355 . S
C3286 C3288 1.415 . S
C3287 C3286 1.355 . S
C3287 C3289 1.419 . S
C3288 C3286 1.415 . S
C3288 C3293 1.425 . S
C3288 C3295 1.409 . S
C3289 H3281 0.930 . S
C3289 C3287 1.419 . S
C3289 C3290 1.362 . S
C3290 H3282 0.930 . S
C3290 C3289 1.362 . S
C3290 C3293 1.409 . S
C3291 H3283 0.930 . S
C3291 C3292 1.355 . S
C3291 C3293 1.415 . S
C3292 C3291 1.355 . S
C3292 C3294 1.419 . S
C3293 C3288 1.425 . S
C3293 C3290 1.409 . S
C3293 C3291 1.415 . S
C3294 H3284 0.930 . S
C3294 C3292 1.419 . S
C3294 C3295 1.362 . S
C3295 H3285 0.930 . S
C3295 C3288 1.409 . S
C3295 C3294 1.362 . S
H3296 C3302 0.930 . S
H3297 C3305 0.930 . S
H3298 C3306 0.930 . S
H3299 C3307 0.930 . S
H3300 C3310 0.930 1_556 S
H3301 C3311 0.930 . S
C3302 H3296 0.930 . S
C3302 C3303 1.355 . S
C3302 C3304 1.415 . S
C3303 C3302 1.355 . S
C3303 C3305 1.419 . S
C3304 C3302 1.415 . S
C3304 C3309 1.425 . S
C3304 C3311 1.409 . S
C3305 H3297 0.930 . S
C3305 C3303 1.419 . S
C3305 C3306 1.362 . S
C3306 H3298 0.930 . S
C3306 C3305 1.362 . S
C3306 C3309 1.409 . S
C3307 H3299 0.930 . S
C3307 C3308 1.355 . S
C3307 C3309 1.415 . S
C3308 C3307 1.355 . S
C3308 C3310 1.419 . S
C3309 C3304 1.425 . S
C3309 C3306 1.409 . S
C3309 C3307 1.415 . S
C3310 H3300 0.930 1_554 S
C3310 C3308 1.419 . S
C3310 C3311 1.362 . S
C3311 H3301 0.930 . S
C3311 C3304 1.409 . S
C3311 C3310 1.362 . S
H3312 C3318 0.930 . S
H3313 C3321 0.930 . S
H3314 C3322 0.930 . S
H3315 C3323 0.930 . S
H3316 C3326 0.930 . S
H3317 C3327 0.930 . S
C3318 H3312 0.930 . S
C3318 C3319 1.355 . S
C3318 C3320 1.415 . S
C3319 C3318 1.355 . S
C3319 C3321 1.419 . S
C3320 C3318 1.415 . S
C3320 C3325 1.425 . S
C3320 C3327 1.409 . S
C3321 H3313 0.930 . S
C3321 C3319 1.419 . S
C3321 C3322 1.362 . S
C3322 H3314 0.930 . S
C3322 C3321 1.362 . S
C3322 C3325 1.409 . S
C3323 H3315 0.930 . S
C3323 C3324 1.355 . S
C3323 C3325 1.415 . S
C3324 C3323 1.355 . S
C3324 C3326 1.419 . S
C3325 C3320 1.425 . S
C3325 C3322 1.409 . S
C3325 C3323 1.415 . S
C3326 H3316 0.930 . S
C3326 C3324 1.419 . S
C3326 C3327 1.362 . S
C3327 H3317 0.930 . S
C3327 C3320 1.409 . S
C3327 C3326 1.362 . S
H3328 C3334 0.930 . S
H3329 C3337 0.930 . S
H3330 C3338 0.930 . S
H3331 C3339 0.930 . S
H3332 C3342 0.930 . S
H3333 C3343 0.930 . S
C3334 H3328 0.930 . S
C3334 C3335 1.355 . S
C3334 C3336 1.415 . S
C3335 C3334 1.355 . S
C3335 C3337 1.419 . S
C3336 C3334 1.415 . S
C3336 C3341 1.425 . S
C3336 C3343 1.409 . S
C3337 H3329 0.930 . S
C3337 C3335 1.419 . S
C3337 C3338 1.362 . S
C3338 H3330 0.930 . S
C3338 C3337 1.362 . S
C3338 C3341 1.409 . S
C3339 H3331 0.930 . S
C3339 C3340 1.355 . S
C3339 C3341 1.415 . S
C3340 C3339 1.355 . S
C3340 C3342 1.419 . S
C3341 C3336 1.425 . S
C3341 C3338 1.409 . S
C3341 C3339 1.415 . S
C3342 H3332 0.930 . S
C3342 C3340 1.419 . S
C3342 C3343 1.362 . S
C3343 H3333 0.930 . S
C3343 C3336 1.409 . S
C3343 C3342 1.362 . S
H3344 C3350 0.930 . S
H3345 C3353 0.930 . S
H3346 C3354 0.930 . S
H3347 C3355 0.930 . S
H3348 C3358 0.930 . S
H3349 C3359 0.930 . S
C3350 H3344 0.930 . S
C3350 C3351 1.355 . S
C3350 C3352 1.415 . S
C3351 C3350 1.355 . S
C3351 C3353 1.419 . S
C3352 C3350 1.415 . S
C3352 C3357 1.425 . S
C3352 C3359 1.409 . S
C3353 H3345 0.930 . S
C3353 C3351 1.419 . S
C3353 C3354 1.362 . S
C3354 H3346 0.930 . S
C3354 C3353 1.362 . S
C3354 C3357 1.409 . S
C3355 H3347 0.930 . S
C3355 C3356 1.355 . S
C3355 C3357 1.415 . S
C3356 C3355 1.355 . S
C3356 C3358 1.419 . S
C3357 C3352 1.425 . S
C3357 C3354 1.409 . S
C3357 C3355 1.415 . S
C3358 H3348 0.930 . S
C3358 C3356 1.419 . S
C3358 C3359 1.362 . S
C3359 H3349 0.930 . S
C3359 C3352 1.409 . S
C3359 C3358 1.362 . S
H3360 C3366 0.930 . S
H3361 C3369 0.930 . S
H3362 C3370 0.930 . S
H3363 C3371 0.930 . S
H3364 C3374 0.930 . S
H3365 C3375 0.930 . S
C3366 H3360 0.930 . S
C3366 C3367 1.355 . S
C3366 C3368 1.415 . S
C3367 C3366 1.355 . S
C3367 C3369 1.419 . S
C3368 C3366 1.415 . S
C3368 C3373 1.425 . S
C3368 C3375 1.409 . S
C3369 H3361 0.930 . S
C3369 C3367 1.419 . S
C3369 C3370 1.362 . S
C3370 H3362 0.930 . S
C3370 C3369 1.362 . S
C3370 C3373 1.409 . S
C3371 H3363 0.930 . S
C3371 C3372 1.355 . S
C3371 C3373 1.415 . S
C3372 C3371 1.355 . S
C3372 C3374 1.419 . S
C3373 C3368 1.425 . S
C3373 C3370 1.409 . S
C3373 C3371 1.415 . S
C3374 H3364 0.930 . S
C3374 C3372 1.419 . S
C3374 C3375 1.362 . S
C3375 H3365 0.930 . S
C3375 C3368 1.409 . S
C3375 C3374 1.362 . S
H3376 C3382 0.930 . S
H3377 C3385 0.930 . S
H3378 C3386 0.930 . S
H3379 C3387 0.930 . S
H3380 C3390 0.930 . S
H3381 C3391 0.930 . S
C3382 H3376 0.930 . S
C3382 C3383 1.355 . S
C3382 C3384 1.415 . S
C3383 C3382 1.355 . S
C3383 C3385 1.419 . S
C3384 C3382 1.415 . S
C3384 C3389 1.425 . S
C3384 C3391 1.409 . S
C3385 H3377 0.930 . S
C3385 C3383 1.419 . S
C3385 C3386 1.362 . S
C3386 H3378 0.930 . S
C3386 C3385 1.362 . S
C3386 C3389 1.409 . S
C3387 H3379 0.930 . S
C3387 C3388 1.355 . S
C3387 C3389 1.415 . S
C3388 C3387 1.355 . S
C3388 C3390 1.419 . S
C3389 C3384 1.425 . S
C3389 C3386 1.409 . S
C3389 C3387 1.415 . S
C3390 H3380 0.930 . S
C3390 C3388 1.419 . S
C3390 C3391 1.362 . S
C3391 H3381 0.930 . S
C3391 C3384 1.409 . S
C3391 C3390 1.362 . S
H3392 C3398 0.930 . S
H3393 C3401 0.930 . S
H3394 C3402 0.930 . S
H3395 C3403 0.930 . S
H3396 C3406 0.930 . S
H3397 C3407 0.930 . S
C3398 H3392 0.930 . S
C3398 C3399 1.355 . S
C3398 C3400 1.415 . S
C3399 C3398 1.355 . S
C3399 C3401 1.419 . S
C3400 C3398 1.415 . S
C3400 C3405 1.425 . S
C3400 C3407 1.409 . S
C3401 H3393 0.930 . S
C3401 C3399 1.419 . S
C3401 C3402 1.362 . S
C3402 H3394 0.930 . S
C3402 C3401 1.362 . S
C3402 C3405 1.409 . S
C3403 H3395 0.930 . S
C3403 C3404 1.355 . S
C3403 C3405 1.415 . S
C3404 C3403 1.355 . S
C3404 C3406 1.419 . S
C3405 C3400 1.425 . S
C3405 C3402 1.409 . S
C3405 C3403 1.415 . S
C3406 H3396 0.930 . S
C3406 C3404 1.419 . S
C3406 C3407 1.362 . S
C3407 H3397 0.930 . S
C3407 C3400 1.409 . S
C3407 C3406 1.362 . S
H3408 C3414 0.930 . S
H3409 C3417 0.930 . S
H3410 C3418 0.930 . S
H3411 C3419 0.930 . S
H3412 C3422 0.930 . S
H3413 C3423 0.930 . S
C3414 H3408 0.930 . S
C3414 C3415 1.355 . S
C3414 C3416 1.415 . S
C3415 C3414 1.355 . S
C3415 C3417 1.419 . S
C3416 C3414 1.415 . S
C3416 C3421 1.425 . S
C3416 C3423 1.409 . S
C3417 H3409 0.930 . S
C3417 C3415 1.419 . S
C3417 C3418 1.362 . S
C3418 H3410 0.930 . S
C3418 C3417 1.362 . S
C3418 C3421 1.409 . S
C3419 H3411 0.930 . S
C3419 C3420 1.355 . S
C3419 C3421 1.415 . S
C3420 C3419 1.355 . S
C3420 C3422 1.419 . S
C3421 C3416 1.425 . S
C3421 C3418 1.409 . S
C3421 C3419 1.415 . S
C3422 H3412 0.930 . S
C3422 C3420 1.419 . S
C3422 C3423 1.362 . S
C3423 H3413 0.930 . S
C3423 C3416 1.409 . S
C3423 C3422 1.362 . S
H3424 C3430 0.930 . S
H3425 C3433 0.930 . S
H3426 C3434 0.930 . S
H3427 C3435 0.930 . S
H3428 C3438 0.930 1_455 S
H3429 C3439 0.930 . S
C3430 H3424 0.930 . S
C3430 C3431 1.355 . S
C3430 C3432 1.415 . S
C3431 C3430 1.355 . S
C3431 C3433 1.419 . S
C3432 C3430 1.415 . S
C3432 C3437 1.425 . S
C3432 C3439 1.409 . S
C3433 H3425 0.930 . S
C3433 C3431 1.419 . S
C3433 C3434 1.362 . S
C3434 H3426 0.930 . S
C3434 C3433 1.362 . S
C3434 C3437 1.409 . S
C3435 H3427 0.930 . S
C3435 C3436 1.355 . S
C3435 C3437 1.415 . S
C3436 C3435 1.355 . S
C3436 C3438 1.419 . S
C3437 C3432 1.425 . S
C3437 C3434 1.409 . S
C3437 C3435 1.415 . S
C3438 H3428 0.930 1_655 S
C3438 C3436 1.419 . S
C3438 C3439 1.362 . S
C3439 H3429 0.930 . S
C3439 C3432 1.409 . S
C3439 C3438 1.362 . S
H3440 C3446 0.930 . S
H3441 C3449 0.930 . S
H3442 C3450 0.930 . S
H3443 C3451 0.930 . S
H3444 C3454 0.930 . S
H3445 C3455 0.930 . S
C3446 H3440 0.930 . S
C3446 C3447 1.355 . S
C3446 C3448 1.415 . S
C3447 C3446 1.355 . S
C3447 C3449 1.419 . S
C3448 C3446 1.415 . S
C3448 C3453 1.425 . S
C3448 C3455 1.409 . S
C3449 H3441 0.930 . S
C3449 C3447 1.419 . S
C3449 C3450 1.362 . S
C3450 H3442 0.930 . S
C3450 C3449 1.362 . S
C3450 C3453 1.409 . S
C3451 H3443 0.930 . S
C3451 C3452 1.355 . S
C3451 C3453 1.415 . S
C3452 C3451 1.355 . S
C3452 C3454 1.419 . S
C3453 C3448 1.425 . S
C3453 C3450 1.409 . S
C3453 C3451 1.415 . S
C3454 H3444 0.930 . S
C3454 C3452 1.419 . S
C3454 C3455 1.362 . S
C3455 H3445 0.930 . S
C3455 C3448 1.409 . S
C3455 C3454 1.362 . S
H3456 C3462 0.930 . S
H3457 C3465 0.930 . S
H3458 C3466 0.930 . S
H3459 C3467 0.930 . S
H3460 C3470 0.930 . S
H3461 C3471 0.930 . S
C3462 H3456 0.930 . S
C3462 C3463 1.355 . S
C3462 C3464 1.415 . S
C3463 C3462 1.355 . S
C3463 C3465 1.419 . S
C3464 C3462 1.415 . S
C3464 C3469 1.425 . S
C3464 C3471 1.409 . S
C3465 H3457 0.930 . S
C3465 C3463 1.419 . S
C3465 C3466 1.362 . S
C3466 H3458 0.930 . S
C3466 C3465 1.362 . S
C3466 C3469 1.409 . S
C3467 H3459 0.930 . S
C3467 C3468 1.355 . S
C3467 C3469 1.415 . S
C3468 C3467 1.355 . S
C3468 C3470 1.419 . S
C3469 C3464 1.425 . S
C3469 C3466 1.409 . S
C3469 C3467 1.415 . S
C3470 H3460 0.930 . S
C3470 C3468 1.419 . S
C3470 C3471 1.362 . S
C3471 H3461 0.930 . S
C3471 C3464 1.409 . S
C3471 C3470 1.362 . S
H3472 C3478 0.930 . S
H3473 C3481 0.930 . S
H3474 C3482 0.930 . S
H3475 C3483 0.930 . S
H3476 C3486 0.930 . S
H3477 C3487 0.930 . S
C3478 H3472 0.930 . S
C3478 C3479 1.355 . S
C3478 C3480 1.415 . S
C3479 C3478 1.355 . S
C3479 C3481 1.419 . S
C3480 C3478 1.415 . S
C3480 C3485 1.425 . S
C3480 C3487 1.409 . S
C3481 H3473 0.930 . S
C3481 C3479 1.419 . S
C3481 C3482 1.362 . S
C3482 H3474 0.930 . S
C3482 C3481 1.362 . S
C3482 C3485 1.409 . S
C3483 H3475 0.930 . S
C3483 C3484 1.355 . S
C3483 C3485 1.415 . S
C3484 C3483 1.355 . S
C3484 C3486 1.419 . S
C3485 C3480 1.425 . S
C3485 C3482 1.409 . S
C3485 C3483 1.415 . S
C3486 H3476 0.930 . S
C3486 C3484 1.419 . S
C3486 C3487 1.362 . S
C3487 H3477 0.930 . S
C3487 C3480 1.409 . S
C3487 C3486 1.362 . S
H3488 C3494 0.930 . S
H3489 C3497 0.930 1_455 S
H3490 C3498 0.930 . S
H3491 C3499 0.930 . S
H3492 C3502 0.930 . S
H3493 C3503 0.930 . S
C3494 H3488 0.930 . S
C3494 C3495 1.355 . S
C3494 C3496 1.415 . S
C3495 C3494 1.355 . S
C3495 C3497 1.419 . S
C3496 C3494 1.415 . S
C3496 C3501 1.425 . S
C3496 C3503 1.409 . S
C3497 H3489 0.930 1_655 S
C3497 C3495 1.419 . S
C3497 C3498 1.362 . S
C3498 H3490 0.930 . S
C3498 C3497 1.362 . S
C3498 C3501 1.409 . S
C3499 H3491 0.930 . S
C3499 C3500 1.355 . S
C3499 C3501 1.415 . S
C3500 C3499 1.355 . S
C3500 C3502 1.419 . S
C3501 C3496 1.425 . S
C3501 C3498 1.409 . S
C3501 C3499 1.415 . S
C3502 H3492 0.930 . S
C3502 C3500 1.419 . S
C3502 C3503 1.362 . S
C3503 H3493 0.930 . S
C3503 C3496 1.409 . S
C3503 C3502 1.362 . S
H3504 C3510 0.930 . S
H3505 C3513 0.930 . S
H3506 C3514 0.930 . S
H3507 C3515 0.930 . S
H3508 C3518 0.930 . S
H3509 C3519 0.930 . S
C3510 H3504 0.930 . S
C3510 C3511 1.355 . S
C3510 C3512 1.415 . S
C3511 C3510 1.355 . S
C3511 C3513 1.419 . S
C3512 C3510 1.415 . S
C3512 C3517 1.425 . S
C3512 C3519 1.409 . S
C3513 H3505 0.930 . S
C3513 C3511 1.419 . S
C3513 C3514 1.362 . S
C3514 H3506 0.930 . S
C3514 C3513 1.362 . S
C3514 C3517 1.409 . S
C3515 H3507 0.930 . S
C3515 C3516 1.355 . S
C3515 C3517 1.415 . S
C3516 C3515 1.355 . S
C3516 C3518 1.419 . S
C3517 C3512 1.425 . S
C3517 C3514 1.409 . S
C3517 C3515 1.415 . S
C3518 H3508 0.930 . S
C3518 C3516 1.419 . S
C3518 C3519 1.362 . S
C3519 H3509 0.930 . S
C3519 C3512 1.409 . S
C3519 C3518 1.362 . S
H3520 C3526 0.930 . S
H3521 C3529 0.930 . S
H3522 C3530 0.930 . S
H3523 C3531 0.930 . S
H3524 C3534 0.930 . S
H3525 C3535 0.930 . S
C3526 H3520 0.930 . S
C3526 C3527 1.355 . S
C3526 C3528 1.415 . S
C3527 C3526 1.355 . S
C3527 C3529 1.419 . S
C3528 C3526 1.415 . S
C3528 C3533 1.425 . S
C3528 C3535 1.409 . S
C3529 H3521 0.930 . S
C3529 C3527 1.419 . S
C3529 C3530 1.362 . S
C3530 H3522 0.930 . S
C3530 C3529 1.362 . S
C3530 C3533 1.409 . S
C3531 H3523 0.930 . S
C3531 C3532 1.355 . S
C3531 C3533 1.415 . S
C3532 C3531 1.355 . S
C3532 C3534 1.419 . S
C3533 C3528 1.425 . S
C3533 C3530 1.409 . S
C3533 C3531 1.415 . S
C3534 H3524 0.930 . S
C3534 C3532 1.419 . S
C3534 C3535 1.362 . S
C3535 H3525 0.930 . S
C3535 C3528 1.409 . S
C3535 C3534 1.362 . S
H3536 C3542 0.930 . S
H3537 C3545 0.930 . S
H3538 C3546 0.930 . S
H3539 C3547 0.930 . S
H3540 C3550 0.930 . S
H3541 C3551 0.930 . S
C3542 H3536 0.930 . S
C3542 C3543 1.355 . S
C3542 C3544 1.415 . S
C3543 C3542 1.355 . S
C3543 C3545 1.419 . S
C3544 C3542 1.415 . S
C3544 C3549 1.425 . S
C3544 C3551 1.409 . S
C3545 H3537 0.930 . S
C3545 C3543 1.419 . S
C3545 C3546 1.362 . S
C3546 H3538 0.930 . S
C3546 C3545 1.362 . S
C3546 C3549 1.409 . S
C3547 H3539 0.930 . S
C3547 C3548 1.355 . S
C3547 C3549 1.415 . S
C3548 C3547 1.355 . S
C3548 C3550 1.419 . S
C3549 C3544 1.425 . S
C3549 C3546 1.409 . S
C3549 C3547 1.415 . S
C3550 H3540 0.930 . S
C3550 C3548 1.419 . S
C3550 C3551 1.362 . S
C3551 H3541 0.930 . S
C3551 C3544 1.409 . S
C3551 C3550 1.362 . S
H3552 C3558 0.930 . S
H3553 C3561 0.930 . S
H3554 C3562 0.930 . S
H3555 C3563 0.930 . S
H3556 C3566 0.930 . S
H3557 C3567 0.930 . S
C3558 H3552 0.930 . S
C3558 C3559 1.355 . S
C3558 C3560 1.415 . S
C3559 C3558 1.355 . S
C3559 C3561 1.419 . S
C3560 C3558 1.415 . S
C3560 C3565 1.425 . S
C3560 C3567 1.409 . S
C3561 H3553 0.930 . S
C3561 C3559 1.419 . S
C3561 C3562 1.362 . S
C3562 H3554 0.930 . S
C3562 C3561 1.362 . S
C3562 C3565 1.409 . S
C3563 H3555 0.930 . S
C3563 C3564 1.355 . S
C3563 C3565 1.415 . S
C3564 C3563 1.355 . S
C3564 C3566 1.419 . S
C3565 C3560 1.425 . S
C3565 C3562 1.409 . S
C3565 C3563 1.415 . S
C3566 H3556 0.930 . S
C3566 C3564 1.419 . S
C3566 C3567 1.362 . S
C3567 H3557 0.930 . S
C3567 C3560 1.409 . S
C3567 C3566 1.362 . S
H3568 C3574 0.930 . S
H3569 C3577 0.930 . S
H3570 C3578 0.930 . S
H3571 C3579 0.930 . S
H3572 C3582 0.930 . S
H3573 C3583 0.930 . S
C3574 H3568 0.930 . S
C3574 C3575 1.355 . S
C3574 C3576 1.415 . S
C3575 C3574 1.355 . S
C3575 C3577 1.419 . S
C3576 C3574 1.415 . S
C3576 C3581 1.425 . S
C3576 C3583 1.409 . S
C3577 H3569 0.930 . S
C3577 C3575 1.419 . S
C3577 C3578 1.362 . S
C3578 H3570 0.930 . S
C3578 C3577 1.362 . S
C3578 C3581 1.409 . S
C3579 H3571 0.930 . S
C3579 C3580 1.355 . S
C3579 C3581 1.415 . S
C3580 C3579 1.355 . S
C3580 C3582 1.419 . S
C3581 C3576 1.425 . S
C3581 C3578 1.409 . S
C3581 C3579 1.415 . S
C3582 H3572 0.930 . S
C3582 C3580 1.419 . S
C3582 C3583 1.362 . S
C3583 H3573 0.930 . S
C3583 C3576 1.409 . S
C3583 C3582 1.362 . S
H3584 C3590 0.930 . S
H3585 C3593 0.930 . S
H3586 C3594 0.930 . S
H3587 C3595 0.930 . S
H3588 C3598 0.930 . S
H3589 C3599 0.930 . S
C3590 H3584 0.930 . S
C3590 C3591 1.355 . S
C3590 C3592 1.415 . S
C3591 C3590 1.355 . S
C3591 C3593 1.419 . S
C3592 C3590 1.415 . S
C3592 C3597 1.425 . S
C3592 C3599 1.409 . S
C3593 H3585 0.930 . S
C3593 C3591 1.419 . S
C3593 C3594 1.362 . S
C3594 H3586 0.930 . S
C3594 C3593 1.362 . S
C3594 C3597 1.409 . S
C3595 H3587 0.930 . S
C3595 C3596 1.355 . S
C3595 C3597 1.415 . S
C3596 C3595 1.355 . S
C3596 C3598 1.419 . S
C3597 C3592 1.425 . S
C3597 C3594 1.409 . S
C3597 C3595 1.415 . S
C3598 H3588 0.930 . S
C3598 C3596 1.419 . S
C3598 C3599 1.362 . S
C3599 H3589 0.930 . S
C3599 C3592 1.409 . S
C3599 C3598 1.362 . S
H3600 C3606 0.930 . S
H3601 C3609 0.930 . S
H3602 C3610 0.930 . S
H3603 C3611 0.930 . S
H3604 C3614 0.930 . S
H3605 C3615 0.930 . S
C3606 H3600 0.930 . S
C3606 C3607 1.355 . S
C3606 C3608 1.415 . S
C3607 C3606 1.355 . S
C3607 C3609 1.419 . S
C3608 C3606 1.415 . S
C3608 C3613 1.425 . S
C3608 C3615 1.409 . S
C3609 H3601 0.930 . S
C3609 C3607 1.419 . S
C3609 C3610 1.362 . S
C3610 H3602 0.930 . S
C3610 C3609 1.362 . S
C3610 C3613 1.409 . S
C3611 H3603 0.930 . S
C3611 C3612 1.355 . S
C3611 C3613 1.415 . S
C3612 C3611 1.355 . S
C3612 C3614 1.419 . S
C3613 C3608 1.425 . S
C3613 C3610 1.409 . S
C3613 C3611 1.415 . S
C3614 H3604 0.930 . S
C3614 C3612 1.419 . S
C3614 C3615 1.362 . S
C3615 H3605 0.930 . S
C3615 C3608 1.409 . S
C3615 C3614 1.362 . S
H3616 C3622 0.930 . S
H3617 C3625 0.930 . S
H3618 C3626 0.930 . S
H3619 C3627 0.930 . S
H3620 C3630 0.930 . S
H3621 C3631 0.930 . S
C3622 H3616 0.930 . S
C3622 C3623 1.355 . S
C3622 C3624 1.415 . S
C3623 C3622 1.355 . S
C3623 C3625 1.419 . S
C3624 C3622 1.415 . S
C3624 C3629 1.425 . S
C3624 C3631 1.409 . S
C3625 H3617 0.930 . S
C3625 C3623 1.419 . S
C3625 C3626 1.362 . S
C3626 H3618 0.930 . S
C3626 C3625 1.362 . S
C3626 C3629 1.409 . S
C3627 H3619 0.930 . S
C3627 C3628 1.355 . S
C3627 C3629 1.415 . S
C3628 C3627 1.355 . S
C3628 C3630 1.419 . S
C3629 C3624 1.425 . S
C3629 C3626 1.409 . S
C3629 C3627 1.415 . S
C3630 H3620 0.930 . S
C3630 C3628 1.419 . S
C3630 C3631 1.362 . S
C3631 H3621 0.930 . S
C3631 C3624 1.409 . S
C3631 C3630 1.362 . S
H3632 C3638 0.930 . S
H3633 C3641 0.930 . S
H3634 C3642 0.930 . S
H3635 C3643 0.930 . S
H3636 C3646 0.930 . S
H3637 C3647 0.930 . S
C3638 H3632 0.930 . S
C3638 C3639 1.355 . S
C3638 C3640 1.415 . S
C3639 C3638 1.355 . S
C3639 C3641 1.419 . S
C3640 C3638 1.415 . S
C3640 C3645 1.425 . S
C3640 C3647 1.409 . S
C3641 H3633 0.930 . S
C3641 C3639 1.419 . S
C3641 C3642 1.362 . S
C3642 H3634 0.930 . S
C3642 C3641 1.362 . S
C3642 C3645 1.409 . S
C3643 H3635 0.930 . S
C3643 C3644 1.355 . S
C3643 C3645 1.415 . S
C3644 C3643 1.355 . S
C3644 C3646 1.419 . S
C3645 C3640 1.425 . S
C3645 C3642 1.409 . S
C3645 C3643 1.415 . S
C3646 H3636 0.930 . S
C3646 C3644 1.419 . S
C3646 C3647 1.362 . S
C3647 H3637 0.930 . S
C3647 C3640 1.409 . S
C3647 C3646 1.362 . S
H3648 C3654 0.930 . S
H3649 C3657 0.930 . S
H3650 C3658 0.930 . S
H3651 C3659 0.930 . S
H3652 C3662 0.930 . S
H3653 C3663 0.930 . S
C3654 H3648 0.930 . S
C3654 C3655 1.355 . S
C3654 C3656 1.415 . S
C3655 C3654 1.355 . S
C3655 C3657 1.419 . S
C3656 C3654 1.415 . S
C3656 C3661 1.425 . S
C3656 C3663 1.409 . S
C3657 H3649 0.930 . S
C3657 C3655 1.419 . S
C3657 C3658 1.362 . S
C3658 H3650 0.930 . S
C3658 C3657 1.362 . S
C3658 C3661 1.409 . S
C3659 H3651 0.930 . S
C3659 C3660 1.355 . S
C3659 C3661 1.415 . S
C3660 C3659 1.355 . S
C3660 C3662 1.419 . S
C3661 C3656 1.425 . S
C3661 C3658 1.409 . S
C3661 C3659 1.415 . S
C3662 H3652 0.930 . S
C3662 C3660 1.419 . S
C3662 C3663 1.362 . S
C3663 H3653 0.930 . S
C3663 C3656 1.409 . S
C3663 C3662 1.362 . S
H3664 C3670 0.930 . S
H3665 C3673 0.930 . S
H3666 C3674 0.930 . S
H3667 C3675 0.930 . S
H3668 C3678 0.930 . S
H3669 C3679 0.930 . S
C3670 H3664 0.930 . S
C3670 C3671 1.355 . S
C3670 C3672 1.415 . S
C3671 C3670 1.355 . S
C3671 C3673 1.419 . S
C3672 C3670 1.415 . S
C3672 C3677 1.425 . S
C3672 C3679 1.409 . S
C3673 H3665 0.930 . S
C3673 C3671 1.419 . S
C3673 C3674 1.362 . S
C3674 H3666 0.930 . S
C3674 C3673 1.362 . S
C3674 C3677 1.409 . S
C3675 H3667 0.930 . S
C3675 C3676 1.355 . S
C3675 C3677 1.415 . S
C3676 C3675 1.355 . S
C3676 C3678 1.419 . S
C3677 C3672 1.425 . S
C3677 C3674 1.409 . S
C3677 C3675 1.415 . S
C3678 H3668 0.930 . S
C3678 C3676 1.419 . S
C3678 C3679 1.362 . S
C3679 H3669 0.930 . S
C3679 C3672 1.409 . S
C3679 C3678 1.362 . S
H3680 C3686 0.930 . S
H3681 C3689 0.930 . S
H3682 C3690 0.930 . S
H3683 C3691 0.930 . S
H3684 C3694 0.930 . S
H3685 C3695 0.930 . S
C3686 H3680 0.930 . S
C3686 C3687 1.355 . S
C3686 C3688 1.415 . S
C3687 C3686 1.355 . S
C3687 C3689 1.419 . S
C3688 C3686 1.415 . S
C3688 C3693 1.425 . S
C3688 C3695 1.409 . S
C3689 H3681 0.930 . S
C3689 C3687 1.419 . S
C3689 C3690 1.362 . S
C3690 H3682 0.930 . S
C3690 C3689 1.362 . S
C3690 C3693 1.409 . S
C3691 H3683 0.930 . S
C3691 C3692 1.355 . S
C3691 C3693 1.415 . S
C3692 C3691 1.355 . S
C3692 C3694 1.419 . S
C3693 C3688 1.425 . S
C3693 C3690 1.409 . S
C3693 C3691 1.415 . S
C3694 H3684 0.930 . S
C3694 C3692 1.419 . S
C3694 C3695 1.362 . S
C3695 H3685 0.930 . S
C3695 C3688 1.409 . S
C3695 C3694 1.362 . S
H3696 C3702 0.930 . S
H3697 C3705 0.930 . S
H3698 C3706 0.930 . S
H3699 C3707 0.930 . S
H3700 C3710 0.930 . S
H3701 C3711 0.930 . S
C3702 H3696 0.930 . S
C3702 C3703 1.355 . S
C3702 C3704 1.415 . S
C3703 C3702 1.355 . S
C3703 C3705 1.419 . S
C3704 C3702 1.415 . S
C3704 C3709 1.425 . S
C3704 C3711 1.409 . S
C3705 H3697 0.930 . S
C3705 C3703 1.419 . S
C3705 C3706 1.362 . S
C3706 H3698 0.930 . S
C3706 C3705 1.362 . S
C3706 C3709 1.409 . S
C3707 H3699 0.930 . S
C3707 C3708 1.355 . S
C3707 C3709 1.415 . S
C3708 C3707 1.355 . S
C3708 C3710 1.419 . S
C3709 C3704 1.425 . S
C3709 C3706 1.409 . S
C3709 C3707 1.415 . S
C3710 H3700 0.930 . S
C3710 C3708 1.419 . S
C3710 C3711 1.362 . S
C3711 H3701 0.930 . S
C3711 C3704 1.409 . S
C3711 C3710 1.362 . S
H3712 C3718 0.930 . S
H3713 C3721 0.930 . S
H3714 C3722 0.930 . S
H3715 C3723 0.930 . S
H3716 C3726 0.930 . S
H3717 C3727 0.930 . S
C3718 H3712 0.930 . S
C3718 C3719 1.355 . S
C3718 C3720 1.415 . S
C3719 C3718 1.355 . S
C3719 C3721 1.419 . S
C3720 C3718 1.415 . S
C3720 C3725 1.425 . S
C3720 C3727 1.409 . S
C3721 H3713 0.930 . S
C3721 C3719 1.419 . S
C3721 C3722 1.362 . S
C3722 H3714 0.930 . S
C3722 C3721 1.362 . S
C3722 C3725 1.409 . S
C3723 H3715 0.930 . S
C3723 C3724 1.355 . S
C3723 C3725 1.415 . S
C3724 C3723 1.355 . S
C3724 C3726 1.419 . S
C3725 C3720 1.425 . S
C3725 C3722 1.409 . S
C3725 C3723 1.415 . S
C3726 H3716 0.930 . S
C3726 C3724 1.419 . S
C3726 C3727 1.362 . S
C3727 H3717 0.930 . S
C3727 C3720 1.409 . S
C3727 C3726 1.362 . S
H3728 C3734 0.930 . S
H3729 C3737 0.930 . S
H3730 C3738 0.930 . S
H3731 C3739 0.930 . S
H3732 C3742 0.930 . S
H3733 C3743 0.930 . S
C3734 H3728 0.930 . S
C3734 C3735 1.355 . S
C3734 C3736 1.415 . S
C3735 C3734 1.355 . S
C3735 C3737 1.419 . S
C3736 C3734 1.415 . S
C3736 C3741 1.425 . S
C3736 C3743 1.409 . S
C3737 H3729 0.930 . S
C3737 C3735 1.419 . S
C3737 C3738 1.362 . S
C3738 H3730 0.930 . S
C3738 C3737 1.362 . S
C3738 C3741 1.409 . S
C3739 H3731 0.930 . S
C3739 C3740 1.355 . S
C3739 C3741 1.415 . S
C3740 C3739 1.355 . S
C3740 C3742 1.419 . S
C3741 C3736 1.425 . S
C3741 C3738 1.409 . S
C3741 C3739 1.415 . S
C3742 H3732 0.930 . S
C3742 C3740 1.419 . S
C3742 C3743 1.362 . S
C3743 H3733 0.930 . S
C3743 C3736 1.409 . S
C3743 C3742 1.362 . S
H3744 C3750 0.930 . S
H3745 C3753 0.930 1_556 S
H3746 C3754 0.930 . S
H3747 C3755 0.930 . S
H3748 C3758 0.930 . S
H3749 C3759 0.930 . S
C3750 H3744 0.930 . S
C3750 C3751 1.355 . S
C3750 C3752 1.415 . S
C3751 C3750 1.355 . S
C3751 C3753 1.419 . S
C3752 C3750 1.415 . S
C3752 C3757 1.425 . S
C3752 C3759 1.409 . S
C3753 H3745 0.930 1_554 S
C3753 C3751 1.419 . S
C3753 C3754 1.362 . S
C3754 H3746 0.930 . S
C3754 C3753 1.362 . S
C3754 C3757 1.409 . S
C3755 H3747 0.930 . S
C3755 C3756 1.355 . S
C3755 C3757 1.415 . S
C3756 C3755 1.355 . S
C3756 C3758 1.419 . S
C3757 C3752 1.425 . S
C3757 C3754 1.409 . S
C3757 C3755 1.415 . S
C3758 H3748 0.930 . S
C3758 C3756 1.419 . S
C3758 C3759 1.362 . S
C3759 H3749 0.930 . S
C3759 C3752 1.409 . S
C3759 C3758 1.362 . S
H3760 C3766 0.930 . S
H3761 C3769 0.930 . S
H3762 C3770 0.930 . S
H3763 C3771 0.930 . S
H3764 C3774 0.930 . S
H3765 C3775 0.930 . S
C3766 H3760 0.930 . S
C3766 C3767 1.355 . S
C3766 C3768 1.415 . S
C3767 C3766 1.355 . S
C3767 C3769 1.419 . S
C3768 C3766 1.415 . S
C3768 C3773 1.425 . S
C3768 C3775 1.409 . S
C3769 H3761 0.930 . S
C3769 C3767 1.419 . S
C3769 C3770 1.362 . S
C3770 H3762 0.930 . S
C3770 C3769 1.362 . S
C3770 C3773 1.409 . S
C3771 H3763 0.930 . S
C3771 C3772 1.355 . S
C3771 C3773 1.415 . S
C3772 C3771 1.355 . S
C3772 C3774 1.419 . S
C3773 C3768 1.425 . S
C3773 C3770 1.409 . S
C3773 C3771 1.415 . S
C3774 H3764 0.930 . S
C3774 C3772 1.419 . S
C3774 C3775 1.362 . S
C3775 H3765 0.930 . S
C3775 C3768 1.409 . S
C3775 C3774 1.362 . S
H3776 C3782 0.930 . S
H3777 C3785 0.930 . S
H3778 C3786 0.930 . S
H3779 C3787 0.930 . S
H3780 C3790 0.930 . S
H3781 C3791 0.930 . S
C3782 H3776 0.930 . S
C3782 C3783 1.355 . S
C3782 C3784 1.415 . S
C3783 C3782 1.355 . S
C3783 C3785 1.419 . S
C3784 C3782 1.415 . S
C3784 C3789 1.425 . S
C3784 C3791 1.409 . S
C3785 H3777 0.930 . S
C3785 C3783 1.419 . S
C3785 C3786 1.362 . S
C3786 H3778 0.930 . S
C3786 C3785 1.362 . S
C3786 C3789 1.409 . S
C3787 H3779 0.930 . S
C3787 C3788 1.355 . S
C3787 C3789 1.415 . S
C3788 C3787 1.355 . S
C3788 C3790 1.419 . S
C3789 C3784 1.425 . S
C3789 C3786 1.409 . S
C3789 C3787 1.415 . S
C3790 H3780 0.930 . S
C3790 C3788 1.419 . S
C3790 C3791 1.362 . S
C3791 H3781 0.930 . S
C3791 C3784 1.409 . S
C3791 C3790 1.362 . S
H3792 C3798 0.930 . S
H3793 C3801 0.930 . S
H3794 C3802 0.930 . S
H3795 C3803 0.930 . S
H3796 C3806 0.930 . S
H3797 C3807 0.930 . S
C3798 H3792 0.930 . S
C3798 C3799 1.355 . S
C3798 C3800 1.415 . S
C3799 C3798 1.355 . S
C3799 C3801 1.419 . S
C3800 C3798 1.415 . S
C3800 C3805 1.425 . S
C3800 C3807 1.409 . S
C3801 H3793 0.930 . S
C3801 C3799 1.419 . S
C3801 C3802 1.362 . S
C3802 H3794 0.930 . S
C3802 C3801 1.362 . S
C3802 C3805 1.409 . S
C3803 H3795 0.930 . S
C3803 C3804 1.355 . S
C3803 C3805 1.415 . S
C3804 C3803 1.355 . S
C3804 C3806 1.419 . S
C3805 C3800 1.425 . S
C3805 C3802 1.409 . S
C3805 C3803 1.415 . S
C3806 H3796 0.930 . S
C3806 C3804 1.419 . S
C3806 C3807 1.362 . S
C3807 H3797 0.930 . S
C3807 C3800 1.409 . S
C3807 C3806 1.362 . S
H3808 C3814 0.930 . S
H3809 C3817 0.930 . S
H3810 C3818 0.930 . S
H3811 C3819 0.930 . S
H3812 C3822 0.930 . S
H3813 C3823 0.930 . S
C3814 H3808 0.930 . S
C3814 C3815 1.355 . S
C3814 C3816 1.415 . S
C3815 C3814 1.355 . S
C3815 C3817 1.419 . S
C3816 C3814 1.415 . S
C3816 C3821 1.425 . S
C3816 C3823 1.409 . S
C3817 H3809 0.930 . S
C3817 C3815 1.419 . S
C3817 C3818 1.362 . S
C3818 H3810 0.930 . S
C3818 C3817 1.362 . S
C3818 C3821 1.409 . S
C3819 H3811 0.930 . S
C3819 C3820 1.355 . S
C3819 C3821 1.415 . S
C3820 C3819 1.355 . S
C3820 C3822 1.419 . S
C3821 C3816 1.425 . S
C3821 C3818 1.409 . S
C3821 C3819 1.415 . S
C3822 H3812 0.930 . S
C3822 C3820 1.419 . S
C3822 C3823 1.362 . S
C3823 H3813 0.930 . S
C3823 C3816 1.409 . S
C3823 C3822 1.362 . S
H3824 C3830 0.930 . S
H3825 C3833 0.930 . S
H3826 C3834 0.930 . S
H3827 C3835 0.930 . S
H3828 C3838 0.930 . S
H3829 C3839 0.930 . S
C3830 H3824 0.930 . S
C3830 C3831 1.355 . S
C3830 C3832 1.415 . S
C3831 C3830 1.355 . S
C3831 C3833 1.419 . S
C3832 C3830 1.415 . S
C3832 C3837 1.425 . S
C3832 C3839 1.409 . S
C3833 H3825 0.930 . S
C3833 C3831 1.419 . S
C3833 C3834 1.362 . S
C3834 H3826 0.930 . S
C3834 C3833 1.362 . S
C3834 C3837 1.409 . S
C3835 H3827 0.930 . S
C3835 C3836 1.355 . S
C3835 C3837 1.415 . S
C3836 C3835 1.355 . S
C3836 C3838 1.419 . S
C3837 C3832 1.425 . S
C3837 C3834 1.409 . S
C3837 C3835 1.415 . S
C3838 H3828 0.930 . S
C3838 C3836 1.419 . S
C3838 C3839 1.362 . S
C3839 H3829 0.930 . S
C3839 C3832 1.409 . S
C3839 C3838 1.362 . S
H3840 C3846 0.930 . S
H3841 C3849 0.930 . S
H3842 C3850 0.930 . S
H3843 C3851 0.930 . S
H3844 C3854 0.930 . S
H3845 C3855 0.930 . S
C3846 H3840 0.930 . S
C3846 C3847 1.355 . S
C3846 C3848 1.415 . S
C3847 C3846 1.355 . S
C3847 C3849 1.419 . S
C3848 C3846 1.415 . S
C3848 C3853 1.425 . S
C3848 C3855 1.409 . S
C3849 H3841 0.930 . S
C3849 C3847 1.419 . S
C3849 C3850 1.362 . S
C3850 H3842 0.930 . S
C3850 C3849 1.362 . S
C3850 C3853 1.409 . S
C3851 H3843 0.930 . S
C3851 C3852 1.355 . S
C3851 C3853 1.415 . S
C3852 C3851 1.355 . S
C3852 C3854 1.419 . S
C3853 C3848 1.425 . S
C3853 C3850 1.409 . S
C3853 C3851 1.415 . S
C3854 H3844 0.930 . S
C3854 C3852 1.419 . S
C3854 C3855 1.362 . S
C3855 H3845 0.930 . S
C3855 C3848 1.409 . S
C3855 C3854 1.362 . S
H3856 C3862 0.930 . S
H3857 C3865 0.930 . S
H3858 C3866 0.930 . S
H3859 C3867 0.930 . S
H3860 C3870 0.930 . S
H3861 C3871 0.930 . S
C3862 H3856 0.930 . S
C3862 C3863 1.355 . S
C3862 C3864 1.415 . S
C3863 C3862 1.355 . S
C3863 C3865 1.419 . S
C3864 C3862 1.415 . S
C3864 C3869 1.425 . S
C3864 C3871 1.409 . S
C3865 H3857 0.930 . S
C3865 C3863 1.419 . S
C3865 C3866 1.362 . S
C3866 H3858 0.930 . S
C3866 C3865 1.362 . S
C3866 C3869 1.409 . S
C3867 H3859 0.930 . S
C3867 C3868 1.355 . S
C3867 C3869 1.415 . S
C3868 C3867 1.355 . S
C3868 C3870 1.419 . S
C3869 C3864 1.425 . S
C3869 C3866 1.409 . S
C3869 C3867 1.415 . S
C3870 H3860 0.930 . S
C3870 C3868 1.419 . S
C3870 C3871 1.362 . S
C3871 H3861 0.930 . S
C3871 C3864 1.409 . S
C3871 C3870 1.362 . S
H3872 C3878 0.930 . S
H3873 C3881 0.930 . S
H3874 C3882 0.930 . S
H3875 C3883 0.930 . S
H3876 C3886 0.930 . S
H3877 C3887 0.930 . S
C3878 H3872 0.930 . S
C3878 C3879 1.355 . S
C3878 C3880 1.415 . S
C3879 C3878 1.355 . S
C3879 C3881 1.419 . S
C3880 C3878 1.415 . S
C3880 C3885 1.425 . S
C3880 C3887 1.409 . S
C3881 H3873 0.930 . S
C3881 C3879 1.419 . S
C3881 C3882 1.362 . S
C3882 H3874 0.930 . S
C3882 C3881 1.362 . S
C3882 C3885 1.409 . S
C3883 H3875 0.930 . S
C3883 C3884 1.355 . S
C3883 C3885 1.415 . S
C3884 C3883 1.355 . S
C3884 C3886 1.419 . S
C3885 C3880 1.425 . S
C3885 C3882 1.409 . S
C3885 C3883 1.415 . S
C3886 H3876 0.930 . S
C3886 C3884 1.419 . S
C3886 C3887 1.362 . S
C3887 H3877 0.930 . S
C3887 C3880 1.409 . S
C3887 C3886 1.362 . S
H3888 C3894 0.930 . S
H3889 C3897 0.930 . S
H3890 C3898 0.930 . S
H3891 C3899 0.930 . S
H3892 C3902 0.930 . S
H3893 C3903 0.930 . S
C3894 H3888 0.930 . S
C3894 C3895 1.355 . S
C3894 C3896 1.415 . S
C3895 C3894 1.355 . S
C3895 C3897 1.419 . S
C3896 C3894 1.415 . S
C3896 C3901 1.425 . S
C3896 C3903 1.409 . S
C3897 H3889 0.930 . S
C3897 C3895 1.419 . S
C3897 C3898 1.362 . S
C3898 H3890 0.930 . S
C3898 C3897 1.362 . S
C3898 C3901 1.409 . S
C3899 H3891 0.930 . S
C3899 C3900 1.355 . S
C3899 C3901 1.415 . S
C3900 C3899 1.355 . S
C3900 C3902 1.419 . S
C3901 C3896 1.425 . S
C3901 C3898 1.409 . S
C3901 C3899 1.415 . S
C3902 H3892 0.930 . S
C3902 C3900 1.419 . S
C3902 C3903 1.362 . S
C3903 H3893 0.930 . S
C3903 C3896 1.409 . S
C3903 C3902 1.362 . S
H3904 C3910 0.930 . S
H3905 C3913 0.930 . S
H3906 C3914 0.930 . S
H3907 C3915 0.930 . S
H3908 C3918 0.930 . S
H3909 C3919 0.930 . S
C3910 H3904 0.930 . S
C3910 C3911 1.355 . S
C3910 C3912 1.415 . S
C3911 C3910 1.355 . S
C3911 C3913 1.419 . S
C3912 C3910 1.415 . S
C3912 C3917 1.425 . S
C3912 C3919 1.409 . S
C3913 H3905 0.930 . S
C3913 C3911 1.419 . S
C3913 C3914 1.362 . S
C3914 H3906 0.930 . S
C3914 C3913 1.362 . S
C3914 C3917 1.409 . S
C3915 H3907 0.930 . S
C3915 C3916 1.355 . S
C3915 C3917 1.415 . S
C3916 C3915 1.355 . S
C3916 C3918 1.419 . S
C3917 C3912 1.425 . S
C3917 C3914 1.409 . S
C3917 C3915 1.415 . S
C3918 H3908 0.930 . S
C3918 C3916 1.419 . S
C3918 C3919 1.362 . S
C3919 H3909 0.930 . S
C3919 C3912 1.409 . S
C3919 C3918 1.362 . S
H3920 C3926 0.930 . S
H3921 C3929 0.930 . S
H3922 C3930 0.930 . S
H3923 C3931 0.930 . S
H3924 C3934 0.930 . S
H3925 C3935 0.930 . S
C3926 H3920 0.930 . S
C3926 C3927 1.355 . S
C3926 C3928 1.415 . S
C3927 C3926 1.355 . S
C3927 C3929 1.419 . S
C3928 C3926 1.415 . S
C3928 C3933 1.425 . S
C3928 C3935 1.409 . S
C3929 H3921 0.930 . S
C3929 C3927 1.419 . S
C3929 C3930 1.362 . S
C3930 H3922 0.930 . S
C3930 C3929 1.362 . S
C3930 C3933 1.409 . S
C3931 H3923 0.930 . S
C3931 C3932 1.355 . S
C3931 C3933 1.415 . S
C3932 C3931 1.355 . S
C3932 C3934 1.419 . S
C3933 C3928 1.425 . S
C3933 C3930 1.409 . S
C3933 C3931 1.415 . S
C3934 H3924 0.930 . S
C3934 C3932 1.419 . S
C3934 C3935 1.362 . S
C3935 H3925 0.930 . S
C3935 C3928 1.409 . S
C3935 C3934 1.362 . S
H3936 C3942 0.930 . S
H3937 C3945 0.930 . S
H3938 C3946 0.930 . S
H3939 C3947 0.930 . S
H3940 C3950 0.930 . S
H3941 C3951 0.930 . S
C3942 H3936 0.930 . S
C3942 C3943 1.355 . S
C3942 C3944 1.415 . S
C3943 C3942 1.355 . S
C3943 C3945 1.419 . S
C3944 C3942 1.415 . S
C3944 C3949 1.425 . S
C3944 C3951 1.409 . S
C3945 H3937 0.930 . S
C3945 C3943 1.419 . S
C3945 C3946 1.362 . S
C3946 H3938 0.930 . S
C3946 C3945 1.362 . S
C3946 C3949 1.409 . S
C3947 H3939 0.930 . S
C3947 C3948 1.355 . S
C3947 C3949 1.415 . S
C3948 C3947 1.355 . S
C3948 C3950 1.419 . S
C3949 C3944 1.425 . S
C3949 C3946 1.409 . S
C3949 C3947 1.415 . S
C3950 H3940 0.930 . S
C3950 C3948 1.419 . S
C3950 C3951 1.362 . S
C3951 H3941 0.930 . S
C3951 C3944 1.409 . S
C3951 C3950 1.362 . S
H3952 C3958 0.930 . S
H3953 C3961 0.930 . S
H3954 C3962 0.930 . S
H3955 C3963 0.930 . S
H3956 C3966 0.930 . S
H3957 C3967 0.930 . S
C3958 H3952 0.930 . S
C3958 C3959 1.355 . S
C3958 C3960 1.415 . S
C3959 C3958 1.355 . S
C3959 C3961 1.419 . S
C3960 C3958 1.415 . S
C3960 C3965 1.425 . S
C3960 C3967 1.409 . S
C3961 H3953 0.930 . S
C3961 C3959 1.419 . S
C3961 C3962 1.362 . S
C3962 H3954 0.930 . S
C3962 C3961 1.362 . S
C3962 C3965 1.409 . S
C3963 H3955 0.930 . S
C3963 C3964 1.355 . S
C3963 C3965 1.415 . S
C3964 C3963 1.355 . S
C3964 C3966 1.419 . S
C3965 C3960 1.425 . S
C3965 C3962 1.409 . S
C3965 C3963 1.415 . S
C3966 H3956 0.930 . S
C3966 C3964 1.419 . S
C3966 C3967 1.362 . S
C3967 H3957 0.930 . S
C3967 C3960 1.409 . S
C3967 C3966 1.362 . S
H3968 C3974 0.930 . S
H3969 C3977 0.930 . S
H3970 C3978 0.930 . S
H3971 C3979 0.930 . S
H3972 C3982 0.930 . S
H3973 C3983 0.930 . S
C3974 H3968 0.930 . S
C3974 C3975 1.355 . S
C3974 C3976 1.415 . S
C3975 C3974 1.355 . S
C3975 C3977 1.419 . S
C3976 C3974 1.415 . S
C3976 C3981 1.425 . S
C3976 C3983 1.409 . S
C3977 H3969 0.930 . S
C3977 C3975 1.419 . S
C3977 C3978 1.362 . S
C3978 H3970 0.930 . S
C3978 C3977 1.362 . S
C3978 C3981 1.409 . S
C3979 H3971 0.930 . S
C3979 C3980 1.355 . S
C3979 C3981 1.415 . S
C3980 C3979 1.355 . S
C3980 C3982 1.419 . S
C3981 C3976 1.425 . S
C3981 C3978 1.409 . S
C3981 C3979 1.415 . S
C3982 H3972 0.930 . S
C3982 C3980 1.419 . S
C3982 C3983 1.362 . S
C3983 H3973 0.930 . S
C3983 C3976 1.409 . S
C3983 C3982 1.362 . S
H3984 C3990 0.930 . S
H3985 C3993 0.930 . S
H3986 C3994 0.930 . S
H3987 C3995 0.930 . S
H3988 C3998 0.930 . S
H3989 C3999 0.930 . S
C3990 H3984 0.930 . S
C3990 C3991 1.355 . S
C3990 C3992 1.415 . S
C3991 C3990 1.355 . S
C3991 C3993 1.419 . S
C3992 C3990 1.415 . S
C3992 C3997 1.425 . S
C3992 C3999 1.409 . S
C3993 H3985 0.930 . S
C3993 C3991 1.419 . S
C3993 C3994 1.362 . S
C3994 H3986 0.930 . S
C3994 C3993 1.362 . S
C3994 C3997 1.409 . S
C3995 H3987 0.930 . S
C3995 C3996 1.355 . S
C3995 C3997 1.415 . S
C3996 C3995 1.355 . S
C3996 C3998 1.419 . S
C3997 C3992 1.425 . S
C3997 C3994 1.409 . S
C3997 C3995 1.415 . S
C3998 H3988 0.930 . S
C3998 C3996 1.419 . S
C3998 C3999 1.362 . S
C3999 H3989 0.930 . S
C3999 C3992 1.409 . S
C3999 C3998 1.362 . S
H4000 C4006 0.930 . S
H4001 C4009 0.930 . S
H4002 C4010 0.930 . S
H4003 C4011 0.930 . S
H4004 C4014 0.930 . S
H4005 C4015 0.930 . S
C4006 H4000 0.930 . S
C4006 C4007 1.355 . S
C4006 C4008 1.415 . S
C4007 C4006 1.355 . S
C4007 C4009 1.419 . S
C4008 C4006 1.415 . S
C4008 C4013 1.425 . S
C4008 C4015 1.409 . S
C4009 H4001 0.930 . S
C4009 C4007 1.419 . S
C4009 C4010 1.362 . S
C4010 H4002 0.930 . S
C4010 C4009 1.362 . S
C4010 C4013 1.409 . S
C4011 H4003 0.930 . S
C4011 C4012 1.355 . S
C4011 C4013 1.415 . S
C4012 C4011 1.355 . S
C4012 C4014 1.419 . S
C4013 C4008 1.425 . S
C4013 C4010 1.409 . S
C4013 C4011 1.415 . S
C4014 H4004 0.930 . S
C4014 C4012 1.419 . S
C4014 C4015 1.362 . S
C4015 H4005 0.930 . S
C4015 C4008 1.409 . S
C4015 C4014 1.362 . S
H4016 C4022 0.930 . S
H4017 C4025 0.930 . S
H4018 C4026 0.930 . S
H4019 C4027 0.930 . S
H4020 C4030 0.930 . S
H4021 C4031 0.930 . S
C4022 H4016 0.930 . S
C4022 C4023 1.355 . S
C4022 C4024 1.415 . S
C4023 C4022 1.355 . S
C4023 C4025 1.419 . S
C4024 C4022 1.415 . S
C4024 C4029 1.425 . S
C4024 C4031 1.409 . S
C4025 H4017 0.930 . S
C4025 C4023 1.419 . S
C4025 C4026 1.362 . S
C4026 H4018 0.930 . S
C4026 C4025 1.362 . S
C4026 C4029 1.409 . S
C4027 H4019 0.930 . S
C4027 C4028 1.355 . S
C4027 C4029 1.415 . S
C4028 C4027 1.355 . S
C4028 C4030 1.419 . S
C4029 C4024 1.425 . S
C4029 C4026 1.409 . S
C4029 C4027 1.415 . S
C4030 H4020 0.930 . S
C4030 C4028 1.419 . S
C4030 C4031 1.362 . S
C4031 H4021 0.930 . S
C4031 C4024 1.409 . S
C4031 C4030 1.362 . S
H4032 C4038 0.930 . S
H4033 C4041 0.930 . S
H4034 C4042 0.930 . S
H4035 C4043 0.930 . S
H4036 C4046 0.930 . S
H4037 C4047 0.930 . S
C4038 H4032 0.930 . S
C4038 C4039 1.355 . S
C4038 C4040 1.415 . S
C4039 C4038 1.355 . S
C4039 C4041 1.419 . S
C4040 C4038 1.415 . S
C4040 C4045 1.425 . S
C4040 C4047 1.409 . S
C4041 H4033 0.930 . S
C4041 C4039 1.419 . S
C4041 C4042 1.362 . S
C4042 H4034 0.930 . S
C4042 C4041 1.362 . S
C4042 C4045 1.409 . S
C4043 H4035 0.930 . S
C4043 C4044 1.355 . S
C4043 C4045 1.415 . S
C4044 C4043 1.355 . S
C4044 C4046 1.419 . S
C4045 C4040 1.425 . S
C4045 C4042 1.409 . S
C4045 C4043 1.415 . S
C4046 H4036 0.930 . S
C4046 C4044 1.419 . S
C4046 C4047 1.362 . S
C4047 H4037 0.930 . S
C4047 C4040 1.409 . S
C4047 C4046 1.362 . S
H4048 C4054 0.930 . S
H4049 C4057 0.930 . S
H4050 C4058 0.930 . S
H4051 C4059 0.930 . S
H4052 C4062 0.930 . S
H4053 C4063 0.930 . S
C4054 H4048 0.930 . S
C4054 C4055 1.355 . S
C4054 C4056 1.415 . S
C4055 C4054 1.355 . S
C4055 C4057 1.419 . S
C4056 C4054 1.415 . S
C4056 C4061 1.425 . S
C4056 C4063 1.409 . S
C4057 H4049 0.930 . S
C4057 C4055 1.419 . S
C4057 C4058 1.362 . S
C4058 H4050 0.930 . S
C4058 C4057 1.362 . S
C4058 C4061 1.409 . S
C4059 H4051 0.930 . S
C4059 C4060 1.355 . S
C4059 C4061 1.415 . S
C4060 C4059 1.355 . S
C4060 C4062 1.419 . S
C4061 C4056 1.425 . S
C4061 C4058 1.409 . S
C4061 C4059 1.415 . S
C4062 H4052 0.930 . S
C4062 C4060 1.419 . S
C4062 C4063 1.362 . S
C4063 H4053 0.930 . S
C4063 C4056 1.409 . S
C4063 C4062 1.362 . S
H4064 C4070 0.930 . S
H4065 C4073 0.930 . S
H4066 C4074 0.930 . S
H4067 C4075 0.930 . S
H4068 C4078 0.930 . S
H4069 C4079 0.930 . S
C4070 H4064 0.930 . S
C4070 C4071 1.355 . S
C4070 C4072 1.415 . S
C4071 C4070 1.355 . S
C4071 C4073 1.419 . S
C4072 C4070 1.415 . S
C4072 C4077 1.425 . S
C4072 C4079 1.409 . S
C4073 H4065 0.930 . S
C4073 C4071 1.419 . S
C4073 C4074 1.362 . S
C4074 H4066 0.930 . S
C4074 C4073 1.362 . S
C4074 C4077 1.409 . S
C4075 H4067 0.930 . S
C4075 C4076 1.355 . S
C4075 C4077 1.415 . S
C4076 C4075 1.355 . S
C4076 C4078 1.419 . S
C4077 C4072 1.425 . S
C4077 C4074 1.409 . S
C4077 C4075 1.415 . S
C4078 H4068 0.930 . S
C4078 C4076 1.419 . S
C4078 C4079 1.362 . S
C4079 H4069 0.930 . S
C4079 C4072 1.409 . S
C4079 C4078 1.362 . S
H4080 C4086 0.930 . S
H4081 C4089 0.930 . S
H4082 C4090 0.930 . S
H4083 C4091 0.930 . S
H4084 C4094 0.930 . S
H4085 C4095 0.930 . S
C4086 H4080 0.930 . S
C4086 C4087 1.355 . S
C4086 C4088 1.415 . S
C4087 C4086 1.355 . S
C4087 C4089 1.419 . S
C4088 C4086 1.415 . S
C4088 C4093 1.425 . S
C4088 C4095 1.409 . S
C4089 H4081 0.930 . S
C4089 C4087 1.419 . S
C4089 C4090 1.362 . S
C4090 H4082 0.930 . S
C4090 C4089 1.362 . S
C4090 C4093 1.409 . S
C4091 H4083 0.930 . S
C4091 C4092 1.355 . S
C4091 C4093 1.415 . S
C4092 C4091 1.355 . S
C4092 C4094 1.419 . S
C4093 C4088 1.425 . S
C4093 C4090 1.409 . S
C4093 C4091 1.415 . S
C4094 H4084 0.930 . S
C4094 C4092 1.419 . S
C4094 C4095 1.362 . S
C4095 H4085 0.930 . S
C4095 C4088 1.409 . S
C4095 C4094 1.362 . S
H4096 C4102 0.930 . S
H4097 C4105 0.930 . S
H4098 C4106 0.930 . S
H4099 C4107 0.930 . S
H4100 C4110 0.930 . S
H4101 C4111 0.930 . S
C4102 H4096 0.930 . S
C4102 C4103 1.355 . S
C4102 C4104 1.415 . S
C4103 C4102 1.355 . S
C4103 C4105 1.419 . S
C4104 C4102 1.415 . S
C4104 C4109 1.425 . S
C4104 C4111 1.409 . S
C4105 H4097 0.930 . S
C4105 C4103 1.419 . S
C4105 C4106 1.362 . S
C4106 H4098 0.930 . S
C4106 C4105 1.362 . S
C4106 C4109 1.409 . S
C4107 H4099 0.930 . S
C4107 C4108 1.355 . S
C4107 C4109 1.415 . S
C4108 C4107 1.355 . S
C4108 C4110 1.419 . S
C4109 C4104 1.425 . S
C4109 C4106 1.409 . S
C4109 C4107 1.415 . S
C4110 H4100 0.930 . S
C4110 C4108 1.419 . S
C4110 C4111 1.362 . S
C4111 H4101 0.930 . S
C4111 C4104 1.409 . S
C4111 C4110 1.362 . S
H4112 C4118 0.930 . S
H4113 C4121 0.930 . S
H4114 C4122 0.930 . S
H4115 C4123 0.930 . S
H4116 C4126 0.930 . S
H4117 C4127 0.930 . S
C4118 H4112 0.930 . S
C4118 C4119 1.355 . S
C4118 C4120 1.415 . S
C4119 C4118 1.355 . S
C4119 C4121 1.419 . S
C4120 C4118 1.415 . S
C4120 C4125 1.425 . S
C4120 C4127 1.409 . S
C4121 H4113 0.930 . S
C4121 C4119 1.419 . S
C4121 C4122 1.362 . S
C4122 H4114 0.930 . S
C4122 C4121 1.362 . S
C4122 C4125 1.409 . S
C4123 H4115 0.930 . S
C4123 C4124 1.355 . S
C4123 C4125 1.415 . S
C4124 C4123 1.355 . S
C4124 C4126 1.419 . S
C4125 C4120 1.425 . S
C4125 C4122 1.409 . S
C4125 C4123 1.415 . S
C4126 H4116 0.930 . S
C4126 C4124 1.419 . S
C4126 C4127 1.362 . S
C4127 H4117 0.930 . S
C4127 C4120 1.409 . S
C4127 C4126 1.362 . S
H4128 C4134 0.930 . S
H4129 C4137 0.930 . S
H4130 C4138 0.930 . S
H4131 C4139 0.930 . S
H4132 C4142 0.930 . S
H4133 C4143 0.930 . S
C4134 H4128 0.930 . S
C4134 C4135 1.355 . S
C4134 C4136 1.415 . S
C4135 C4134 1.355 . S
C4135 C4137 1.419 . S
C4136 C4134 1.415 . S
C4136 C4141 1.425 . S
C4136 C4143 1.409 . S
C4137 H4129 0.930 . S
C4137 C4135 1.419 . S
C4137 C4138 1.362 . S
C4138 H4130 0.930 . S
C4138 C4137 1.362 . S
C4138 C4141 1.409 . S
C4139 H4131 0.930 . S
C4139 C4140 1.355 . S
C4139 C4141 1.415 . S
C4140 C4139 1.355 . S
C4140 C4142 1.419 . S
C4141 C4136 1.425 . S
C4141 C4138 1.409 . S
C4141 C4139 1.415 . S
C4142 H4132 0.930 . S
C4142 C4140 1.419 . S
C4142 C4143 1.362 . S
C4143 H4133 0.930 . S
C4143 C4136 1.409 . S
C4143 C4142 1.362 . S
H4144 C4150 0.930 . S
H4145 C4153 0.930 . S
H4146 C4154 0.930 . S
H4147 C4155 0.930 . S
H4148 C4158 0.930 . S
H4149 C4159 0.930 . S
C4150 H4144 0.930 . S
C4150 C4151 1.355 . S
C4150 C4152 1.415 . S
C4151 C4150 1.355 . S
C4151 C4153 1.419 . S
C4152 C4150 1.415 . S
C4152 C4157 1.425 . S
C4152 C4159 1.409 . S
C4153 H4145 0.930 . S
C4153 C4151 1.419 . S
C4153 C4154 1.362 . S
C4154 H4146 0.930 . S
C4154 C4153 1.362 . S
C4154 C4157 1.409 . S
C4155 H4147 0.930 . S
C4155 C4156 1.355 . S
C4155 C4157 1.415 . S
C4156 C4155 1.355 . S
C4156 C4158 1.419 . S
C4157 C4152 1.425 . S
C4157 C4154 1.409 . S
C4157 C4155 1.415 . S
C4158 H4148 0.930 . S
C4158 C4156 1.419 . S
C4158 C4159 1.362 . S
C4159 H4149 0.930 . S
C4159 C4152 1.409 . S
C4159 C4158 1.362 . S
H4160 C4166 0.930 . S
H4161 C4169 0.930 . S
H4162 C4170 0.930 . S
H4163 C4171 0.930 . S
H4164 C4174 0.930 . S
H4165 C4175 0.930 . S
C4166 H4160 0.930 . S
C4166 C4167 1.355 . S
C4166 C4168 1.415 . S
C4167 C4166 1.355 . S
C4167 C4169 1.419 . S
C4168 C4166 1.415 . S
C4168 C4173 1.425 . S
C4168 C4175 1.409 . S
C4169 H4161 0.930 . S
C4169 C4167 1.419 . S
C4169 C4170 1.362 . S
C4170 H4162 0.930 . S
C4170 C4169 1.362 . S
C4170 C4173 1.409 . S
C4171 H4163 0.930 . S
C4171 C4172 1.355 . S
C4171 C4173 1.415 . S
C4172 C4171 1.355 . S
C4172 C4174 1.419 . S
C4173 C4168 1.425 . S
C4173 C4170 1.409 . S
C4173 C4171 1.415 . S
C4174 H4164 0.930 . S
C4174 C4172 1.419 . S
C4174 C4175 1.362 . S
C4175 H4165 0.930 . S
C4175 C4168 1.409 . S
C4175 C4174 1.362 . S
H4176 C4182 0.930 . S
H4177 C4185 0.930 . S
H4178 C4186 0.930 . S
H4179 C4187 0.930 . S
H4180 C4190 0.930 . S
H4181 C4191 0.930 . S
C4182 H4176 0.930 . S
C4182 C4183 1.355 . S
C4182 C4184 1.415 . S
C4183 C4182 1.355 . S
C4183 C4185 1.419 . S
C4184 C4182 1.415 . S
C4184 C4189 1.425 . S
C4184 C4191 1.409 . S
C4185 H4177 0.930 . S
C4185 C4183 1.419 . S
C4185 C4186 1.362 . S
C4186 H4178 0.930 . S
C4186 C4185 1.362 . S
C4186 C4189 1.409 . S
C4187 H4179 0.930 . S
C4187 C4188 1.355 . S
C4187 C4189 1.415 . S
C4188 C4187 1.355 . S
C4188 C4190 1.419 . S
C4189 C4184 1.425 . S
C4189 C4186 1.409 . S
C4189 C4187 1.415 . S
C4190 H4180 0.930 . S
C4190 C4188 1.419 . S
C4190 C4191 1.362 . S
C4191 H4181 0.930 . S
C4191 C4184 1.409 . S
C4191 C4190 1.362 . S
H4192 C4198 0.930 . S
H4193 C4201 0.930 . S
H4194 C4202 0.930 . S
H4195 C4203 0.930 . S
H4196 C4206 0.930 . S
H4197 C4207 0.930 . S
C4198 H4192 0.930 . S
C4198 C4199 1.355 . S
C4198 C4200 1.415 . S
C4199 C4198 1.355 . S
C4199 C4201 1.419 . S
C4200 C4198 1.415 . S
C4200 C4205 1.425 . S
C4200 C4207 1.409 . S
C4201 H4193 0.930 . S
C4201 C4199 1.419 . S
C4201 C4202 1.362 . S
C4202 H4194 0.930 . S
C4202 C4201 1.362 . S
C4202 C4205 1.409 . S
C4203 H4195 0.930 . S
C4203 C4204 1.355 . S
C4203 C4205 1.415 . S
C4204 C4203 1.355 . S
C4204 C4206 1.419 . S
C4205 C4200 1.425 . S
C4205 C4202 1.409 . S
C4205 C4203 1.415 . S
C4206 H4196 0.930 . S
C4206 C4204 1.419 . S
C4206 C4207 1.362 . S
C4207 H4197 0.930 . S
C4207 C4200 1.409 . S
C4207 C4206 1.362 . S
H4208 C4214 0.930 . S
H4209 C4217 0.930 . S
H4210 C4218 0.930 . S
H4211 C4219 0.930 . S
H4212 C4222 0.930 . S
H4213 C4223 0.930 . S
C4214 H4208 0.930 . S
C4214 C4215 1.355 . S
C4214 C4216 1.415 . S
C4215 C4214 1.355 . S
C4215 C4217 1.419 . S
C4216 C4214 1.415 . S
C4216 C4221 1.425 . S
C4216 C4223 1.409 . S
C4217 H4209 0.930 . S
C4217 C4215 1.419 . S
C4217 C4218 1.362 . S
C4218 H4210 0.930 . S
C4218 C4217 1.362 . S
C4218 C4221 1.409 . S
C4219 H4211 0.930 . S
C4219 C4220 1.355 . S
C4219 C4221 1.415 . S
C4220 C4219 1.355 . S
C4220 C4222 1.419 . S
C4221 C4216 1.425 . S
C4221 C4218 1.409 . S
C4221 C4219 1.415 . S
C4222 H4212 0.930 . S
C4222 C4220 1.419 . S
C4222 C4223 1.362 . S
C4223 H4213 0.930 . S
C4223 C4216 1.409 . S
C4223 C4222 1.362 . S
H4224 C4230 0.930 . S
H4225 C4233 0.930 . S
H4226 C4234 0.930 . S
H4227 C4235 0.930 . S
H4228 C4238 0.930 . S
H4229 C4239 0.930 . S
C4230 H4224 0.930 . S
C4230 C4231 1.355 . S
C4230 C4232 1.415 . S
C4231 C4230 1.355 . S
C4231 C4233 1.419 . S
C4232 C4230 1.415 . S
C4232 C4237 1.425 . S
C4232 C4239 1.409 . S
C4233 H4225 0.930 . S
C4233 C4231 1.419 . S
C4233 C4234 1.362 . S
C4234 H4226 0.930 . S
C4234 C4233 1.362 . S
C4234 C4237 1.409 . S
C4235 H4227 0.930 . S
C4235 C4236 1.355 . S
C4235 C4237 1.415 . S
C4236 C4235 1.355 . S
C4236 C4238 1.419 . S
C4237 C4232 1.425 . S
C4237 C4234 1.409 . S
C4237 C4235 1.415 . S
C4238 H4228 0.930 . S
C4238 C4236 1.419 . S
C4238 C4239 1.362 . S
C4239 H4229 0.930 . S
C4239 C4232 1.409 . S
C4239 C4238 1.362 . S
H4240 C4246 0.930 . S
H4241 C4249 0.930 . S
H4242 C4250 0.930 . S
H4243 C4251 0.930 . S
H4244 C4254 0.930 . S
H4245 C4255 0.930 . S
C4246 H4240 0.930 . S
C4246 C4247 1.355 . S
C4246 C4248 1.415 . S
C4247 C4246 1.355 . S
C4247 C4249 1.419 . S
C4248 C4246 1.415 . S
C4248 C4253 1.425 . S
C4248 C4255 1.409 . S
C4249 H4241 0.930 . S
C4249 C4247 1.419 . S
C4249 C4250 1.362 . S
C4250 H4242 0.930 . S
C4250 C4249 1.362 . S
C4250 C4253 1.409 . S
C4251 H4243 0.930 . S
C4251 C4252 1.355 . S
C4251 C4253 1.415 . S
C4252 C4251 1.355 . S
C4252 C4254 1.419 . S
C4253 C4248 1.425 . S
C4253 C4250 1.409 . S
C4253 C4251 1.415 . S
C4254 H4244 0.930 . S
C4254 C4252 1.419 . S
C4254 C4255 1.362 . S
C4255 H4245 0.930 . S
C4255 C4248 1.409 . S
C4255 C4254 1.362 . S
H4256 C4262 0.930 . S
H4257 C4265 0.930 . S
H4258 C4266 0.930 . S
H4259 C4267 0.930 . S
H4260 C4270 0.930 . S
H4261 C4271 0.930 . S
C4262 H4256 0.930 . S
C4262 C4263 1.355 . S
C4262 C4264 1.415 . S
C4263 C4262 1.355 . S
C4263 C4265 1.419 . S
C4264 C4262 1.415 . S
C4264 C4269 1.425 . S
C4264 C4271 1.409 . S
C4265 H4257 0.930 . S
C4265 C4263 1.419 . S
C4265 C4266 1.362 . S
C4266 H4258 0.930 . S
C4266 C4265 1.362 . S
C4266 C4269 1.409 . S
C4267 H4259 0.930 . S
C4267 C4268 1.355 . S
C4267 C4269 1.415 . S
C4268 C4267 1.355 . S
C4268 C4270 1.419 . S
C4269 C4264 1.425 . S
C4269 C4266 1.409 . S
C4269 C4267 1.415 . S
C4270 H4260 0.930 . S
C4270 C4268 1.419 . S
C4270 C4271 1.362 . S
C4271 H4261 0.930 . S
C4271 C4264 1.409 . S
C4271 C4270 1.362 . S
H4272 C4278 0.930 . S
H4273 C4281 0.930 . S
H4274 C4282 0.930 . S
H4275 C4283 0.930 . S
H4276 C4286 0.930 . S
H4277 C4287 0.930 . S
C4278 H4272 0.930 . S
C4278 C4279 1.355 . S
C4278 C4280 1.415 . S
C4279 C4278 1.355 . S
C4279 C4281 1.419 . S
C4280 C4278 1.415 . S
C4280 C4285 1.425 . S
C4280 C4287 1.409 . S
C4281 H4273 0.930 . S
C4281 C4279 1.419 . S
C4281 C4282 1.362 . S
C4282 H4274 0.930 . S
C4282 C4281 1.362 . S
C4282 C4285 1.409 . S
C4283 H4275 0.930 . S
C4283 C4284 1.355 . S
C4283 C4285 1.415 . S
C4284 C4283 1.355 . S
C4284 C4286 1.419 . S
C4285 C4280 1.425 . S
C4285 C4282 1.409 . S
C4285 C4283 1.415 . S
C4286 H4276 0.930 . S
C4286 C4284 1.419 . S
C4286 C4287 1.362 . S
C4287 H4277 0.930 . S
C4287 C4280 1.409 . S
C4287 C4286 1.362 . S
H4288 C4294 0.930 . S
H4289 C4297 0.930 . S
H4290 C4298 0.930 . S
H4291 C4299 0.930 . S
H4292 C4302 0.930 1_565 S
H4293 C4303 0.930 . S
C4294 H4288 0.930 . S
C4294 C4295 1.355 . S
C4294 C4296 1.415 . S
C4295 C4294 1.355 . S
C4295 C4297 1.419 . S
C4296 C4294 1.415 . S
C4296 C4301 1.425 . S
C4296 C4303 1.409 . S
C4297 H4289 0.930 . S
C4297 C4295 1.419 . S
C4297 C4298 1.362 . S
C4298 H4290 0.930 . S
C4298 C4297 1.362 . S
C4298 C4301 1.409 . S
C4299 H4291 0.930 . S
C4299 C4300 1.355 . S
C4299 C4301 1.415 . S
C4300 C4299 1.355 . S
C4300 C4302 1.419 . S
C4301 C4296 1.425 . S
C4301 C4298 1.409 . S
C4301 C4299 1.415 . S
C4302 H4292 0.930 1_545 S
C4302 C4300 1.419 . S
C4302 C4303 1.362 . S
C4303 H4293 0.930 . S
C4303 C4296 1.409 . S
C4303 C4302 1.362 . S
H4304 C4310 0.930 . S
H4305 C4313 0.930 . S
H4306 C4314 0.930 . S
H4307 C4315 0.930 . S
H4308 C4318 0.930 . S
H4309 C4319 0.930 . S
C4310 H4304 0.930 . S
C4310 C4311 1.355 . S
C4310 C4312 1.415 . S
C4311 C4310 1.355 . S
C4311 C4313 1.419 . S
C4312 C4310 1.415 . S
C4312 C4317 1.425 . S
C4312 C4319 1.409 . S
C4313 H4305 0.930 . S
C4313 C4311 1.419 . S
C4313 C4314 1.362 . S
C4314 H4306 0.930 . S
C4314 C4313 1.362 . S
C4314 C4317 1.409 . S
C4315 H4307 0.930 . S
C4315 C4316 1.355 . S
C4315 C4317 1.415 . S
C4316 C4315 1.355 . S
C4316 C4318 1.419 . S
C4317 C4312 1.425 . S
C4317 C4314 1.409 . S
C4317 C4315 1.415 . S
C4318 H4308 0.930 . S
C4318 C4316 1.419 . S
C4318 C4319 1.362 . S
C4319 H4309 0.930 . S
C4319 C4312 1.409 . S
C4319 C4318 1.362 . S
H4320 C4326 0.930 . S
H4321 C4329 0.930 . S
H4322 C4330 0.930 . S
H4323 C4331 0.930 . S
H4324 C4334 0.930 . S
H4325 C4335 0.930 . S
C4326 H4320 0.930 . S
C4326 C4327 1.355 . S
C4326 C4328 1.415 . S
C4327 C4326 1.355 . S
C4327 C4329 1.419 . S
C4328 C4326 1.415 . S
C4328 C4333 1.425 . S
C4328 C4335 1.409 . S
C4329 H4321 0.930 . S
C4329 C4327 1.419 . S
C4329 C4330 1.362 . S
C4330 H4322 0.930 . S
C4330 C4329 1.362 . S
C4330 C4333 1.409 . S
C4331 H4323 0.930 . S
C4331 C4332 1.355 . S
C4331 C4333 1.415 . S
C4332 C4331 1.355 . S
C4332 C4334 1.419 . S
C4333 C4328 1.425 . S
C4333 C4330 1.409 . S
C4333 C4331 1.415 . S
C4334 H4324 0.930 . S
C4334 C4332 1.419 . S
C4334 C4335 1.362 . S
C4335 H4325 0.930 . S
C4335 C4328 1.409 . S
C4335 C4334 1.362 . S
H4336 C4342 0.930 . S
H4337 C4345 0.930 . S
H4338 C4346 0.930 . S
H4339 C4347 0.930 . S
H4340 C4350 0.930 . S
H4341 C4351 0.930 . S
C4342 H4336 0.930 . S
C4342 C4343 1.355 . S
C4342 C4344 1.415 . S
C4343 C4342 1.355 . S
C4343 C4345 1.419 . S
C4344 C4342 1.415 . S
C4344 C4349 1.425 . S
C4344 C4351 1.409 . S
C4345 H4337 0.930 . S
C4345 C4343 1.419 . S
C4345 C4346 1.362 . S
C4346 H4338 0.930 . S
C4346 C4345 1.362 . S
C4346 C4349 1.409 . S
C4347 H4339 0.930 . S
C4347 C4348 1.355 . S
C4347 C4349 1.415 . S
C4348 C4347 1.355 . S
C4348 C4350 1.419 . S
C4349 C4344 1.425 . S
C4349 C4346 1.409 . S
C4349 C4347 1.415 . S
C4350 H4340 0.930 . S
C4350 C4348 1.419 . S
C4350 C4351 1.362 . S
C4351 H4341 0.930 . S
C4351 C4344 1.409 . S
C4351 C4350 1.362 . S
H4352 C4358 0.930 . S
H4353 C4361 0.930 . S
H4354 C4362 0.930 . S
H4355 C4363 0.930 . S
H4356 C4366 0.930 . S
H4357 C4367 0.930 . S
C4358 H4352 0.930 . S
C4358 C4359 1.355 . S
C4358 C4360 1.415 . S
C4359 C4358 1.355 . S
C4359 C4361 1.419 . S
C4360 C4358 1.415 . S
C4360 C4365 1.425 . S
C4360 C4367 1.409 . S
C4361 H4353 0.930 . S
C4361 C4359 1.419 . S
C4361 C4362 1.362 . S
C4362 H4354 0.930 . S
C4362 C4361 1.362 . S
C4362 C4365 1.409 . S
C4363 H4355 0.930 . S
C4363 C4364 1.355 . S
C4363 C4365 1.415 . S
C4364 C4363 1.355 . S
C4364 C4366 1.419 . S
C4365 C4360 1.425 . S
C4365 C4362 1.409 . S
C4365 C4363 1.415 . S
C4366 H4356 0.930 . S
C4366 C4364 1.419 . S
C4366 C4367 1.362 . S
C4367 H4357 0.930 . S
C4367 C4360 1.409 . S
C4367 C4366 1.362 . S
H4368 C4374 0.930 . S
H4369 C4377 0.930 . S
H4370 C4378 0.930 . S
H4371 C4379 0.930 . S
H4372 C4382 0.930 . S
H4373 C4383 0.930 . S
C4374 H4368 0.930 . S
C4374 C4375 1.355 . S
C4374 C4376 1.415 . S
C4375 C4374 1.355 . S
C4375 C4377 1.419 . S
C4376 C4374 1.415 . S
C4376 C4381 1.425 . S
C4376 C4383 1.409 . S
C4377 H4369 0.930 . S
C4377 C4375 1.419 . S
C4377 C4378 1.362 . S
C4378 H4370 0.930 . S
C4378 C4377 1.362 . S
C4378 C4381 1.409 . S
C4379 H4371 0.930 . S
C4379 C4380 1.355 . S
C4379 C4381 1.415 . S
C4380 C4379 1.355 . S
C4380 C4382 1.419 . S
C4381 C4376 1.425 . S
C4381 C4378 1.409 . S
C4381 C4379 1.415 . S
C4382 H4372 0.930 . S
C4382 C4380 1.419 . S
C4382 C4383 1.362 . S
C4383 H4373 0.930 . S
C4383 C4376 1.409 . S
C4383 C4382 1.362 . S
H4384 C4390 0.930 . S
H4385 C4393 0.930 . S
H4386 C4394 0.930 . S
H4387 C4395 0.930 . S
H4388 C4398 0.930 . S
H4389 C4399 0.930 . S
C4390 H4384 0.930 . S
C4390 C4391 1.355 . S
C4390 C4392 1.415 . S
C4391 C4390 1.355 . S
C4391 C4393 1.419 . S
C4392 C4390 1.415 . S
C4392 C4397 1.425 . S
C4392 C4399 1.409 . S
C4393 H4385 0.930 . S
C4393 C4391 1.419 . S
C4393 C4394 1.362 . S
C4394 H4386 0.930 . S
C4394 C4393 1.362 . S
C4394 C4397 1.409 . S
C4395 H4387 0.930 . S
C4395 C4396 1.355 . S
C4395 C4397 1.415 . S
C4396 C4395 1.355 . S
C4396 C4398 1.419 . S
C4397 C4392 1.425 . S
C4397 C4394 1.409 . S
C4397 C4395 1.415 . S
C4398 H4388 0.930 . S
C4398 C4396 1.419 . S
C4398 C4399 1.362 . S
C4399 H4389 0.930 . S
C4399 C4392 1.409 . S
C4399 C4398 1.362 . S
H4400 C4406 0.930 . S
H4401 C4409 0.930 . S
H4402 C4410 0.930 . S
H4403 C4411 0.930 . S
H4404 C4414 0.930 . S
H4405 C4415 0.930 . S
C4406 H4400 0.930 . S
C4406 C4407 1.355 . S
C4406 C4408 1.415 . S
C4407 C4406 1.355 . S
C4407 C4409 1.419 . S
C4408 C4406 1.415 . S
C4408 C4413 1.425 . S
C4408 C4415 1.409 . S
C4409 H4401 0.930 . S
C4409 C4407 1.419 . S
C4409 C4410 1.362 . S
C4410 H4402 0.930 . S
C4410 C4409 1.362 . S
C4410 C4413 1.409 . S
C4411 H4403 0.930 . S
C4411 C4412 1.355 . S
C4411 C4413 1.415 . S
C4412 C4411 1.355 . S
C4412 C4414 1.419 . S
C4413 C4408 1.425 . S
C4413 C4410 1.409 . S
C4413 C4411 1.415 . S
C4414 H4404 0.930 . S
C4414 C4412 1.419 . S
C4414 C4415 1.362 . S
C4415 H4405 0.930 . S
C4415 C4408 1.409 . S
C4415 C4414 1.362 . S
C1351 C9 1.381 . S
C1356 C1057 1.306 . S
C1367 C343 1.334 . S
C1372 C23 1.331 . S
C1383 C1029 1.306 . S
C1388 C37 1.383 . S
C1399 C371 1.334 . S
C1404 C51 1.331 . S
C1415 C65 1.383 . S
C1420 C1085 1.309 . S
C1431 C79 1.351 . S
C1436 C427 1.303 . S
C1447 C1113 1.366 . S
C1452 C93 1.348 . S
C1463 C107 1.358 . S
C1468 C399 1.291 . S
C1479 C119 1.311 . S
C1484 C1267 1.320 . S
C1495 C609 1.373 . S
C1500 C135 1.354 . S
C1511 C147 1.362 . S
C1516 C623 1.298 . S
C1527 C163 1.348 . S
C1532 C581 1.368 . S
C1543 C175 1.362 . S
C1548 C1323 1.298 . S
C1559 C191 1.388 . S
C1564 C1239 1.312 . S
C1575 C203 1.310 . S
C1580 C1337 1.348 . S
C1591 C219 1.344 . S
C1596 C1309 1.377 . S
C1607 C1141 1.286 . S
C1612 C233 1.350 . S
C1623 C247 1.361 . S
C1628 C553 1.287 . S
C1639 C259 1.363 . S
C1644 C1183 1.300 . S
C1655 C525 1.351 . S
C1660 C275 1.321 . S
C1671 C287 1.346 . S
C1676 C539 1.396 . S
C1687 C1169 1.347 . S
C1692 C303 1.315 . S
C1703 C315 1.314 . S
C1708 C1127 1.301 . S
C1719 C1155 1.348 . S
C1724 C329 1.307 . S
C1735 C721 1.302 . S
C1740 C345 1.274 . S
C1751 C7 1.330 . S
C1756 C359 1.296 . S
C1767 C373 1.276 . S
C1772 C693 1.300 . S
C1783 C387 1.308 . S
C1788 C35 1.321 . S
C1799 C401 1.289 . S
C1804 C749 1.259 . S
C1815 C91 1.258 . S
C1820 C415 1.343 . S
C1831 C429 1.269 . S
C1836 C777 1.298 . S
C1847 C443 1.327 . S
C1852 C63 1.276 . S
C1863 C457 1.255 . S
C1868 C933 1.261 . S
C1879 C273 1.269 . S
C1884 C471 1.285 . S
C1895 C485 1.282 . S
C1900 C289 1.165 . S
C1911 C245 1.288 . S
C1916 C499 1.271 . S
C1927 C513 1.257 . S
C1932 C989 1.260 . S
C1943 C527 1.277 . S
C1948 C903 1.281 . S
C1959 C541 1.263 . S
C1964 C1003 1.208 . S
C1975 C973 1.216 . S
C1980 C555 1.307 . S
C1991 C805 1.257 . S
C1996 C569 1.341 . S
C2007 C217 1.327 . S
C2012 C583 1.291 . S
C2023 C849 1.236 . S
C2028 C597 1.317 . S
C2039 C611 1.320 . S
C2044 C189 1.269 . S
C2055 C625 1.296 . S
C2060 C205 1.286 . S
C2071 C639 1.341 . S
C2076 C833 1.257 . S
C2087 C793 1.264 . S
C2092 C653 1.328 . S
C2103 C667 1.339 . S
C2108 C821 1.223 . S
C2119 C385 1.349 . S
C2124 C681 1.362 . S
C2135 C1015 1.312 . S
C2140 C695 1.339 . S
C2151 C709 1.363 . S
C2156 C357 1.363 . S
C2167 C1043 1.324 . S
C2172 C723 1.319 . S
C2183 C737 1.389 . S
C2188 C413 1.313 . S
C2199 C1099 1.303 . S
C2204 C751 1.333 . S
C2215 C765 1.372 . S
C2220 C441 1.333 . S
C2231 C1071 1.347 . S
C2236 C779 1.310 . S
C2247 C595 1.355 . S
C2252 C791 1.313 . S
C2263 C807 1.391 . S
C2268 C1281 1.333 . S
C2279 C1295 1.295 . S
C2284 C819 1.359 . S
C2295 C835 1.373 . S
C2300 C1253 1.363 . S
C2311 C651 1.292 . S
C2316 C847 1.351 . S
C2327 C863 1.396 . S
C2332 C567 1.319 . S
C2343 C665 1.336 . S
C2348 C875 1.372 . S
C2359 C637 1.319 . S
C2364 C891 1.395 . S
C2375 C469 1.292 . S
C2380 C905 1.356 . S
C2391 C1225 1.349 . S
C2396 C919 1.312 . S
C2407 C931 1.402 . S
C2412 C511 1.355 . S
C2423 C947 1.310 . S
C2428 C1197 1.347 . S
C2439 C1211 1.360 . S
C2444 C959 1.346 . S
C2455 C497 1.349 . S
C2460 C975 1.319 . S
C2471 C455 1.393 . S
C2476 C987 1.386 . S
C2487 C483 1.335 . S
C2492 C1001 1.360 . S
C2503 C1017 1.287 . S
C2508 C49 1.266 . S
C2519 C1031 1.305 . S
C2524 C679 1.297 . S
C2535 C1045 1.283 . S
C2540 C21 1.271 . S
C2551 C1059 1.281 . S
C2556 C707 1.316 . S
C2567 C77 1.289 . S
C2572 C1073 1.274 . S
C2583 C763 1.248 . S
C2588 C1087 1.330 . S
C2599 C105 1.303 . S
C2604 C1101 1.275 . S
C2615 C735 1.295 . S
C2620 C1115 1.292 . S
C2631 C1129 1.309 . S
C2636 C261 1.237 . S
C2647 C945 1.227 . S
C2652 C1143 1.310 . S
C2663 C1157 1.296 . S
C2668 C961 1.294 . S
C2679 C1171 1.285 . S
C2684 C917 1.251 . S
C2695 C317 1.216 . S
C2700 C1185 1.335 . S
C2711 C231 1.279 . S
C2716 C1199 1.270 . S
C2727 C1213 1.333 . S
C2732 C331 1.195 . S
C2743 C301 1.219 . S
C2748 C1227 1.309 . S
C2759 C1241 1.292 . S
C2764 C133 1.326 . S
C2775 C1255 1.314 . S
C2780 C889 1.289 . S
C2791 C177 1.296 . S
C2796 C1269 1.306 . S
C2807 C1283 1.340 . S
C2812 C861 1.257 . S
C2823 C877 1.290 . S
C2828 C1297 1.316 . S
C2839 C1311 1.319 . S
C2844 C161 1.293 . S
C2855 C1325 1.336 . S
C2860 C121 1.207 . S
C2871 C1339 1.297 . S
C2876 C149 1.286 . S
C2887 C3 1.346 . S
C2892 C610 1.369 . S
C2903 C624 1.388 . S
C2908 C17 1.366 . S
C2919 C582 1.374 . S
C2924 C31 1.353 . S
C2935 C45 1.364 . S
C2940 C1268 1.390 . S
C2951 C59 1.357 . S
C2956 C1310 1.372 . S
C2967 C73 1.358 . S
C2972 C1324 1.390 . S
C2983 C1240 1.367 . S
C2988 C87 1.331 . S
C2999 C1338 1.366 . S
C3004 C101 1.285 . S
C3015 C372 1.319 . S
C3020 C120 1.295 . S
C3031 C129 1.352 . S
C3036 C1058 1.364 . S
C3047 C344 1.327 . S
C3052 C148 1.330 . S
C3063 C1030 1.359 . S
C3068 C157 1.318 . S
C3079 C428 1.317 . S
C3084 C176 1.282 . S
C3095 C185 1.279 . S
C3100 C1114 1.356 . S
C3111 C204 1.328 . S
C3116 C400 1.326 . S
C3127 C213 1.346 . S
C3132 C1086 1.362 . S
C3143 C227 1.296 . S
C3148 C1184 1.370 . S
C3159 C456 1.378 . S
C3164 C241 1.331 . S
C3175 C260 1.327 . S
C3180 C1142 1.326 . S
C3191 C269 1.327 . S
C3196 C484 1.390 . S
C3207 C288 1.267 . S
C3212 C498 1.298 . S
C3223 C297 1.279 . S
C3228 C1212 1.363 . S
C3239 C1226 1.319 . S
C3244 C316 1.291 . S
C3255 C1198 1.320 . S
C3260 C330 1.282 . S
C3271 C274 1.360 . S
C3276 C339 1.300 . S
C3287 C353 1.332 . S
C3292 C283 1.407 . S
C3303 C367 1.272 . S
C3308 C246 1.352 . S
C3319 C381 1.379 . S
C3324 C927 1.418 . S
C3335 C974 1.368 . S
C3340 C395 1.345 . S
C3351 C983 1.418 . S
C3356 C409 1.336 . S
C3367 C423 1.320 . S
C3372 C904 1.360 . S
C3383 C997 1.406 . S
C3388 C437 1.334 . S
C3399 C451 1.268 . S
C3404 C36 1.347 . S
C3415 C722 1.354 . S
C3420 C465 1.278 . S
C3431 C479 1.267 . S
C3436 C8 1.345 . S
C3447 C694 1.362 . S
C3452 C493 1.331 . S
C3463 C507 1.264 . S
C3468 C92 1.345 . S
C3479 C778 1.352 . S
C3484 C521 1.277 . S
C3495 C64 1.351 . S
C3500 C535 1.257 . S
C3511 C750 1.359 . S
C3516 C549 1.305 . S
C3527 C563 1.324 . S
C3532 C843 1.409 . S
C3543 C577 1.395 . S
C3548 C115 1.397 . S
C3559 C806 1.391 . S
C3564 C591 1.304 . S
C3575 C605 1.351 . S
C3580 C143 1.394 . S
C3591 C162 1.406 . S
C3596 C619 1.372 . S
C3607 C871 1.392 . S
C3612 C633 1.365 . S
C3623 C890 1.405 . S
C3628 C647 1.373 . S
C3639 C862 1.400 . S
C3644 C661 1.362 . S
C3655 C675 1.359 . S
C3660 C1282 1.370 . S
C3671 C689 1.366 . S
C3676 C1296 1.395 . S
C3687 C703 1.283 . S
C3692 C1254 1.362 . S
C3703 C596 1.394 . S
C3708 C717 1.358 . S
C3719 C731 1.301 . S
C3724 C638 1.365 . S
C3735 C652 1.391 . S
C3740 C745 1.344 . S
C3751 C568 1.361 . S
C3756 C759 1.283 . S
C3767 C666 1.380 . S
C3772 C773 1.336 . S
C3783 C792 1.330 . S
C3788 C1044 1.332 . S
C3799 C386 1.380 . S
C3804 C801 1.366 . S
C3815 C820 1.338 . S
C3820 C1016 1.334 . S
C3831 C829 1.355 . S
C3836 C358 1.380 . S
C3847 C848 1.337 . S
C3852 C1100 1.334 . S
C3863 C857 1.294 . S
C3868 C442 1.369 . S
C3879 C1072 1.330 . S
C3884 C876 1.301 . S
C3895 C414 1.369 . S
C3900 C885 1.299 . S
C3911 C899 1.297 . S
C3916 C512 1.376 . S
C3927 C913 1.330 . S
C3932 C1128 1.380 . S
C3943 C932 1.263 . S
C3948 C470 1.299 . S
C3959 C1156 1.372 . S
C3964 C941 1.337 . S
C3975 C960 1.280 . S
C3980 C1170 1.319 . S
C3991 C969 1.335 . S
C3996 C540 1.383 . S
C4007 C554 1.305 . S
C4012 C988 1.293 . S
C4023 C1002 1.262 . S
C4028 C526 1.299 . S
C4039 C1011 1.347 . S
C4044 C946 1.364 . S
C4055 C955 1.401 . S
C4060 C1025 1.368 . S
C4071 C918 1.349 . S
C4076 C1039 1.270 . S
C4087 C1053 1.362 . S
C4092 C255 1.402 . S
C4103 C1067 1.284 . S
C4108 C302 1.352 . S
C4119 C1081 1.353 . S
C4124 C311 1.403 . S
C4135 C232 1.363 . S
C4140 C1095 1.347 . S
C4151 C1109 1.376 . S
C4156 C325 1.384 . S
C4167 C1123 1.356 . S
C4172 C708 1.394 . S
C4183 C1137 1.289 . S
C4188 C50 1.352 . S
C4199 C1151 1.373 . S
C4204 C680 1.398 . S
C4215 C1165 1.269 . S
C4220 C22 1.349 . S
C4231 C1179 1.363 . S
C4236 C764 1.396 . S
C4247 C1193 1.279 . S
C4252 C106 1.350 . S
C4263 C1207 1.306 . S
C4268 C736 1.384 . S
C4279 C1221 1.312 . S
C4284 C78 1.357 . S
C4295 C1235 1.324 . S
C4300 C171 1.409 . S
C4311 C1249 1.385 . S
C4316 C787 1.408 . S
C4327 C1263 1.305 . S
C4332 C134 1.390 . S
C4343 C1277 1.382 . S
C4348 C815 1.392 . S
C4359 C1291 1.326 . S
C4364 C834 1.392 . S
C4375 C199 1.394 . S
C4380 C1305 1.357 . S
C4391 C1319 1.378 . S
C4396 C218 1.407 . S
C4407 C1333 1.372 . S
C4412 C190 1.406 . S
