# Generated by pormake.
# Topology sml, (6)-cn, num edge types: 1
# Building blocks:
#     Node 0, Type 0, BuildingBlock: MIDCAF_clean_sbu_0, # of connection points: 6
#     Node 1, Type 0, BuildingBlock: MIDCAF_clean_sbu_0, # of connection points: 6
#     Node 2, Type 0, BuildingBlock: MIDCAF_clean_sbu_0, # of connection points: 6
#     Node 3, Type 0, BuildingBlock: MIDCAF_clean_sbu_0, # of connection points: 6
#     Node 4, Type 0, BuildingBlock: MIDCAF_clean_sbu_0, # of connection points: 6
#     Node 5, Type 0, BuildingBlock: MIDCAF_clean_sbu_0, # of connection points: 6
#     Edge 6, Type (0, 0), BuildingBlock: UVAHIK_clean_linker_0, # of connection points: 2
#     Edge 7, Type (0, 0), BuildingBlock: UVAHIK_clean_linker_0, # of connection points: 2
#     Edge 8, Type (0, 0), BuildingBlock: UVAHIK_clean_linker_0, # of connection points: 2
#     Edge 9, Type (0, 0), BuildingBlock: UVAHIK_clean_linker_0, # of connection points: 2
#     Edge 10, Type (0, 0), BuildingBlock: UVAHIK_clean_linker_0, # of connection points: 2
#     Edge 11, Type (0, 0), BuildingBlock: UVAHIK_clean_linker_0, # of connection points: 2
#     Edge 12, Type (0, 0), BuildingBlock: UVAHIK_clean_linker_0, # of connection points: 2
#     Edge 13, Type (0, 0), BuildingBlock: UVAHIK_clean_linker_0, # of connection points: 2
#     Edge 14, Type (0, 0), BuildingBlock: UVAHIK_clean_linker_0, # of connection points: 2
#     Edge 15, Type (0, 0), BuildingBlock: UVAHIK_clean_linker_0, # of connection points: 2
#     Edge 16, Type (0, 0), BuildingBlock: UVAHIK_clean_linker_0, # of connection points: 2
#     Edge 17, Type (0, 0), BuildingBlock: UVAHIK_clean_linker_0, # of connection points: 2
#     Edge 18, Type (0, 0), BuildingBlock: UVAHIK_clean_linker_0, # of connection points: 2
#     Edge 19, Type (0, 0), BuildingBlock: UVAHIK_clean_linker_0, # of connection points: 2
#     Edge 20, Type (0, 0), BuildingBlock: UVAHIK_clean_linker_0, # of connection points: 2
#     Edge 21, Type (0, 0), BuildingBlock: UVAHIK_clean_linker_0, # of connection points: 2
#     Edge 22, Type (0, 0), BuildingBlock: UVAHIK_clean_linker_0, # of connection points: 2
#     Edge 23, Type (0, 0), BuildingBlock: UVAHIK_clean_linker_0, # of connection points: 2
# Relax obj value: 0.360
# Max RMSD: 0.205
# Mean RMSD: 0.205
data_MOF--net-sml--node1-MIDCAF_clean_sbu_0--edge1-UVAHIK_clean_linker_0
_symmetry_space_group_name_H-M    P1
_symmetry_Int_Tables_number       1
_symmetry_cell_setting            triclinic
loop_
_symmetry_equiv_pos_as_xyz
'x, y, z'
_cell_length_a     51.172995
_cell_length_b     51.322971
_cell_length_c     17.2215556
_cell_angle_alpha  90.154355
_cell_angle_beta   89.668962
_cell_angle_gamma 120.27519
loop_
_atom_site_label
_atom_site_type_symbol
_atom_site_fract_x
_atom_site_fract_y
_atom_site_fract_z
_atom_type_partial_charge
Zn0 Zn 0.2388 0.42593 0.88381 0.0
Zn1 Zn 0.19951 0.43605 0.135 0.0
Zn2 Zn 0.21502 0.42362 0.01028 0.0
C3 C 0.14578 0.394 0.05877 0.0
C4 C 0.22847 0.40545 0.17655 0.0
O5 O 0.24967 0.47129 0.96881 0.0
O6 O 0.27137 0.46646 0.86271 0.0
C7 C 0.17812 0.39774 0.85339 0.0
O8 O 0.16451 0.39766 0.00363 0.0
O9 O 0.1557 0.40795 0.12206 0.0
O10 O 0.22112 0.42344 0.20551 0.0
O11 O 0.22662 0.40094 0.10264 0.0
O12 O 0.20315 0.41312 0.81914 0.0
O13 O 0.17709 0.39689 0.92815 0.0
O14 O 0.237 0.39638 0.02944 0.0
O15 O 0.25012 0.39525 0.90721 0.0
C16 C 0.2481 0.38673 0.97671 0.0
O17 O 0.2333 0.47383 0.02909 0.0
O18 O 0.21255 0.47861 0.13727 0.0
C19 C 0.26948 0.48315 0.91331 0.0
C20 C 0.22926 0.49043 0.07892 0.0
Zn21 Zn 0.76256 0.18332 0.4415 0.0
Zn22 Zn 0.8115 0.23664 0.12833 0.0
Zn23 Zn 0.78616 0.20377 0.31871 0.0
C24 C 0.83992 0.20437 0.22005 0.0
C25 C 0.75335 0.19744 0.17656 0.0
O26 O 0.73524 0.1804 0.31669 0.0
O27 O 0.71883 0.15774 0.42926 0.0
C28 C 0.79879 0.24251 0.47273 0.0
O29 O 0.82144 0.19453 0.27834 0.0
O30 O 0.8376 0.21977 0.16572 0.0
O31 O 0.77204 0.22516 0.181 0.0
O32 O 0.74834 0.18297 0.23988 0.0
O33 O 0.77451 0.22091 0.49911 0.0
O34 O 0.80628 0.24138 0.40195 0.0
O35 O 0.80452 0.17396 0.34533 0.0
O36 O 0.78511 0.1624 0.46341 0.0
C37 C 0.80055 0.15977 0.40982 0.0
O38 O 0.80462 0.25285 0.32178 0.0
O39 O 0.81274 0.26924 0.19842 0.0
C40 C 0.71325 0.16513 0.3645 0.0
C41 C 0.8112 0.27362 0.27066 0.0
Zn42 Zn 0.6087 0.79572 0.76744 0.0
Zn43 Zn 0.59206 0.86488 0.58214 0.0
Zn44 Zn 0.59267 0.80065 0.65305 0.0
C45 C 0.63806 0.87246 0.67392 0.0
C46 C 0.61746 0.84071 0.4952 0.0
O47 O 0.54827 0.77344 0.7071 0.0
O48 O 0.56899 0.75366 0.78002 0.0
C49 C 0.5798 0.82632 0.79166 0.0
O50 O 0.63295 0.84628 0.65322 0.0
O51 O 0.61592 0.87671 0.68286 0.0
O52 O 0.61581 0.86423 0.48467 0.0
O53 O 0.60751 0.82694 0.55861 0.0
O54 O 0.60636 0.83185 0.80653 0.0
O55 O 0.56565 0.80825 0.73609 0.0
O56 O 0.60579 0.76661 0.64776 0.0
O57 O 0.6451 0.79686 0.71712 0.0
C58 C 0.63199 0.77399 0.67341 0.0
O59 O 0.54509 0.79045 0.64151 0.0
O60 O 0.54762 0.83146 0.58737 0.0
C61 C 0.54528 0.75172 0.75105 0.0
C62 C 0.53239 0.80427 0.61071 0.0
Zn63 Zn 0.83519 0.5996 0.13091 0.0
Zn64 Zn 0.8042 0.60952 0.90653 0.0
Zn65 Zn 0.80653 0.59503 0.02824 0.0
C66 C 0.78115 0.63464 0.99281 0.0
C67 C 0.83083 0.5767 0.89242 0.0
O68 O 0.79948 0.54844 0.02973 0.0
O69 O 0.82191 0.55631 0.14345 0.0
C70 C 0.78895 0.60814 0.18538 0.0
O71 O 0.77304 0.60937 0.02654 0.0
O72 O 0.80487 0.64623 0.95122 0.0
O73 O 0.84048 0.60448 0.88075 0.0
O74 O 0.81186 0.56398 0.94882 0.0
O75 O 0.81649 0.61737 0.19933 0.0
O76 O 0.7781 0.59587 0.11977 0.0
O77 O 0.85172 0.63581 0.00935 0.0
O78 O 0.87703 0.62587 0.09489 0.0
C79 C 0.87693 0.64203 0.04014 0.0
O80 O 0.77784 0.5513 0.96944 0.0
O81 O 0.76162 0.57212 0.88586 0.0
C82 C 0.80753 0.53856 0.08848 0.0
C83 C 0.75741 0.54862 0.92104 0.0
Zn84 Zn 0.23003 0.81304 0.49095 0.0
Zn85 Zn 0.16826 0.75668 0.30327 0.0
Zn86 Zn 0.20409 0.7893 0.37784 0.0
C87 C 0.14684 0.79046 0.33571 0.0
C88 C 0.22225 0.7978 0.22104 0.0
O89 O 0.24701 0.78912 0.35722 0.0
O90 O 0.26593 0.8078 0.47286 0.0
C91 C 0.17279 0.76007 0.52448 0.0
O92 O 0.17582 0.8075 0.33023 0.0
O93 O 0.13603 0.76279 0.35126 0.0
O94 O 0.19394 0.78715 0.21689 0.0
O95 O 0.23253 0.79149 0.28181 0.0
O96 O 0.19457 0.78342 0.55448 0.0
O97 O 0.17248 0.75535 0.45226 0.0
O98 O 0.20669 0.83301 0.36383 0.0
O99 O 0.23368 0.85262 0.46981 0.0
C100 C 0.22089 0.85533 0.41042 0.0
O101 O 0.22049 0.76057 0.32058 0.0
O102 O 0.17452 0.72105 0.31813 0.0
C103 C 0.2681 0.79718 0.40838 0.0
C104 C 0.20282 0.73189 0.31148 0.0
Zn105 Zn 0.43875 0.28895 0.80385 0.0
Zn106 Zn 0.44656 0.21527 0.51014 0.0
Zn107 Zn 0.43203 0.21997 0.64655 0.0
C108 C 0.40997 0.15676 0.58692 0.0
C109 C 0.40568 0.2292 0.48102 0.0
O110 O 0.47843 0.25437 0.68305 0.0
O111 O 0.4601 0.28337 0.70871 0.0
C112 C 0.41164 0.22353 0.83361 0.0
O113 O 0.41265 0.17228 0.6474 0.0
O114 O 0.42179 0.16991 0.52334 0.0
O115 O 0.42926 0.23404 0.44542 0.0
O116 O 0.403 0.22298 0.55405 0.0
O117 O 0.41772 0.24866 0.86466 0.0
O118 O 0.4193 0.22227 0.76362 0.0
O119 O 0.3996 0.23588 0.63043 0.0
O120 O 0.43167 0.27759 0.68713 0.0
C121 C 0.40497 0.26057 0.66251 0.0
O122 O 0.48245 0.23785 0.62443 0.0
O123 O 0.48973 0.23226 0.50023 0.0
C124 C 0.48219 0.27881 0.71358 0.0
C125 C 0.50019 0.24033 0.56745 0.0
C126 C 0.38352 0.29332 0.69167 0.0
C127 C 0.38041 0.26457 0.69413 0.0
C128 C 0.36303 0.29906 0.73104 0.0
C129 C 0.32308 0.28657 0.90363 0.0
H130 H 0.27183 0.31067 0.79821 0.0
C131 C 0.28581 0.37138 0.00699 0.0
C132 C 0.25568 0.36317 0.99179 0.0
C133 C 0.29632 0.35168 0.98732 0.0
C134 C 0.28566 0.30355 0.82859 0.0
H135 H 0.3535 0.21919 0.73876 0.0
H136 H 0.3181 0.22966 0.81137 0.0
H137 H 0.29857 0.29068 0.72289 0.0
H138 H 0.21247 0.32756 0.9503 0.0
H139 H 0.23083 0.29328 0.91609 0.0
H140 H 0.31192 0.30166 0.00914 0.0
C141 C 0.33606 0.24743 0.77723 0.0
C142 C 0.30093 0.29219 0.78548 0.0
C143 C 0.3561 0.24142 0.7356 0.0
C144 C 0.23563 0.33406 0.96402 0.0
C145 C 0.24619 0.3146 0.94364 0.0
C146 C 0.30831 0.29863 0.94672 0.0
C147 C 0.3396 0.27641 0.77561 0.0
C148 C 0.32003 0.28396 0.82249 0.0
C149 C 0.27694 0.32385 0.95148 0.0
C150 C 0.28974 0.30754 0.90934 0.0
H151 H 0.40226 0.31155 0.66055 0.0
H152 H 0.36617 0.32157 0.72915 0.0
H153 H 0.33803 0.28065 0.93309 0.0
H154 H 0.30185 0.39403 0.0262 0.0
H155 H 0.32021 0.35943 0.99327 0.0
C156 C 0.10122 0.34437 0.01486 0.0
C157 C 0.11283 0.37186 0.05514 0.0
C158 C 0.07141 0.32081 0.02922 0.0
C159 C 0.01684 0.29197 0.18834 0.0
H160 H 0.95343 0.25052 0.03685 0.0
C161 C 0.89083 0.22576 0.27588 0.0
C162 C 0.86937 0.20573 0.22273 0.0
C163 C 0.9218 0.24025 0.25814 0.0
C164 C 0.97091 0.2611 0.08026 0.0
H165 H 0.10146 0.39703 0.13658 0.0
H166 H 0.05015 0.3563 0.16127 0.0
H167 H 0.00424 0.28769 0.99333 0.0
H168 H 0.86352 0.18249 0.11377 0.0
H169 H 0.91744 0.20521 0.08623 0.0
H170 H 0.98423 0.26546 0.27509 0.0
C171 C 0.06402 0.35264 0.11991 0.0
C172 C 1.00008 0.28267 0.05508 0.0
C173 C 0.09339 0.37603 0.1052 0.0
C174 C 0.8796 0.19753 0.15635 0.0
C175 C 0.91061 0.21134 0.13958 0.0
C176 C 0.98793 0.26999 0.21347 0.0
C177 C 0.05303 0.32444 0.08438 0.0
C178 C 0.0231 0.29889 0.10904 0.0
C179 C 0.93211 0.23447 0.1875 0.0
C180 C 0.96416 0.25471 0.16012 0.0
H181 H 0.11568 0.34039 0.97611 0.0
H182 H 0.06334 0.29929 0.0006 0.0
H183 H 0.03432 0.30392 0.23123 0.0
H184 H 0.88358 0.23314 0.32646 0.0
H185 H 0.93718 0.25789 0.29694 0.0
C186 C 0.79494 0.11113 0.36525 0.0
C187 C 0.80688 0.13489 0.41934 0.0
C188 C 0.78587 0.0816 0.38929 0.0
C189 C 0.74518 0.03881 0.54614 0.0
H190 H 0.76472 0.97602 0.50916 0.0
C191 C 0.6763 0.92598 0.70078 0.0
C192 C 0.66767 0.89969 0.65755 0.0
C193 C 0.69924 0.95398 0.67402 0.0
C194 C 0.75878 0.99321 0.51954 0.0
H195 H 0.8225 0.14719 0.53759 0.0
H196 H 0.807 0.09598 0.57893 0.0
H197 H 0.79606 0.02615 0.45022 0.0
H198 H 0.6777 0.88184 0.55473 0.0
H199 H 0.71701 0.93084 0.50623 0.0
H200 H 0.70739 0.00643 0.61202 0.0
C201 C 0.80451 0.10001 0.51842 0.0
C202 C 0.77682 0.02187 0.48596 0.0
C203 C 0.81364 0.12938 0.49446 0.0
C204 C 0.68398 0.9017 0.58965 0.0
C205 C 0.70656 0.9299 0.56178 0.0
C206 C 0.72701 0.01029 0.57858 0.0
C207 C 0.78894 0.07569 0.46734 0.0
C208 C 0.77025 0.04493 0.49981 0.0
C209 C 0.71362 0.9566 0.60205 0.0
C210 C 0.73367 0.98707 0.56681 0.0
H211 H 0.78895 0.11459 0.30749 0.0
H212 H 0.77366 0.06311 0.34909 0.0
H213 H 0.73942 0.05616 0.55665 0.0
H214 H 0.66416 0.92508 0.75341 0.0
H215 H 0.70473 0.97378 0.70838 0.0
C216 C 0.67496 0.7646 0.67768 0.0
C217 C 0.64367 0.75294 0.67217 0.0
C218 C 0.68631 0.74626 0.70131 0.0
C219 C 0.66399 0.6813 0.82811 0.0
H220 H 0.74301 0.69461 0.76921 0.0
C221 C 0.72899 0.62624 0.97231 0.0
C222 C 0.76019 0.64624 0.98196 0.0
C223 C 0.71096 0.63594 0.93538 0.0
C224 C 0.72093 0.69072 0.7865 0.0
H225 H 0.59969 0.7124 0.68103 0.0
H226 H 0.61959 0.68006 0.72218 0.0
H227 H 0.71848 0.71484 0.68838 0.0
H228 H 0.79624 0.69259 0.96825 0.0
H229 H 0.76487 0.70953 0.90566 0.0
H230 H 0.66687 0.65741 0.92705 0.0
C231 C 0.63534 0.70352 0.70879 0.0
C232 C 0.70683 0.70222 0.74002 0.0
C233 C 0.62397 0.72191 0.68412 0.0
C234 C 0.7723 0.67666 0.96132 0.0
C235 C 0.75443 0.68627 0.92458 0.0
C236 C 0.67807 0.66954 0.87448 0.0
C237 C 0.66658 0.71582 0.72074 0.0
C238 C 0.67865 0.69855 0.76152 0.0
C239 C 0.72398 0.66571 0.90765 0.0
C240 C 0.70714 0.67506 0.85544 0.0
H241 H 0.6906 0.78848 0.6691 0.0
H242 H 0.71047 0.75662 0.71014 0.0
H243 H 0.64238 0.67826 0.8468 0.0
H244 H 0.7191 0.60258 0.98678 0.0
H245 H 0.68748 0.61968 0.92352 0.0
C246 C 0.12972 0.81079 0.22875 0.0
C247 C 0.12542 0.79901 0.30428 0.0
C248 C 0.10482 0.8066 0.18498 0.0
C249 C 0.02073 0.77571 0.19355 0.0
H250 H 0.02137 0.73842 -0.00195 0.0
C251 C 0.90906 0.69803 0.03719 0.0
C252 C 0.90579 0.66963 0.02237 0.0
C253 C 0.93784 0.72305 0.05133 0.0
C254 C 0.02082 0.74898 0.05208 0.0
H255 H 0.0926 0.77673 0.39617 0.0
H256 H 0.04956 0.76997 0.32141 0.0
H257 H 0.06832 0.76775 0.06923 0.0
H258 H 0.92982 0.64549 0.00408 0.0
H259 H 0.97972 0.68883 0.0265 0.0
H260 H 0.97281 0.75492 0.17926 0.0
C261 C 0.07181 0.78235 0.29505 0.0
C262 C 0.04788 0.76617 0.09266 0.0
C263 C 0.09657 0.78633 0.33835 0.0
C264 C 0.93183 0.66729 0.01413 0.0
C265 C 0.96048 0.69222 0.02735 0.0
C266 C 0.99364 0.75846 0.15302 0.0
C267 C 0.0753 0.79081 0.21632 0.0
C268 C 0.04804 0.77879 0.16548 0.0
C269 C 0.96376 0.72007 0.05013 0.0
C270 C 0.99315 0.74387 0.08324 0.0
H271 H 0.15164 0.82024 0.20063 0.0
H272 H 0.10842 0.81389 0.12496 0.0
H273 H 0.02 0.78541 0.24888 0.0
H274 H 0.88927 0.70025 0.0454 0.0
H275 H 0.93958 0.74425 0.06782 0.0
C276 C 0.3629 0.10911 0.62697 0.0
C277 C 0.39039 0.1236 0.58563 0.0
C278 C 0.34106 0.07914 0.60959 0.0
C279 C 0.33032 0.01132 0.50067 0.0
H280 H 0.24749 0.99338 0.47783 0.0
C281 C 0.24771 0.90474 0.34576 0.0
C282 C 0.22468 0.88521 0.39662 0.0
C283 C 0.26355 0.93579 0.36035 0.0
C284 C 0.27059 0.99825 0.48363 0.0
H285 H 0.41754 0.11765 0.49829 0.0
H286 H 0.38006 0.06598 0.46829 0.0
H287 H 0.28552 0.04185 0.53346 0.0
H288 H 0.1973 0.88265 0.49565 0.0
H289 H 0.22426 0.93691 0.51971 0.0
H290 H 0.31568 0.96816 0.44976 0.0
C291 C 0.37498 0.07727 0.51407 0.0
C292 C 0.29229 0.02577 0.51644 0.0
C293 C 0.39655 0.10703 0.53109 0.0
C294 C 0.21474 0.89742 0.45499 0.0
C295 C 0.23037 0.92847 0.46919 0.0
C296 C 0.30887 0.98421 0.46695 0.0
C297 C 0.34656 0.06317 0.55118 0.0
C298 C 0.32255 0.03278 0.52448 0.0
C299 C 0.25632 0.94757 0.42559 0.0
C300 C 0.27888 0.97749 0.45715 0.0
H301 H 0.35747 0.12149 0.66886 0.0
H302 H 0.3196 0.0688 0.64017 0.0
H303 H 0.35313 0.0155 0.50776 0.0
H304 H 0.25606 0.89579 0.30119 0.0
H305 H 0.28326 0.95019 0.32517 0.0
C306 C 0.15185 0.34663 0.8031 0.0
C307 C 0.15392 0.37499 0.80459 0.0
C308 C 0.15077 0.3329 0.73186 0.0
C309 C 0.19013 0.3429 0.58756 0.0
H310 H 0.14999 0.33868 0.39404 0.0
C311 C 0.24663 0.39708 0.3006 0.0
C312 C 0.23054 0.38475 0.23161 0.0
C313 C 0.2358 0.38164 0.37083 0.0
C314 C 0.16116 0.33898 0.44756 0.0
H315 H 0.14893 0.40736 0.7359 0.0
H316 H 0.14489 0.38249 0.61244 0.0
H317 H 0.12479 0.33595 0.51722 0.0
H318 H 0.19394 0.34466 0.17931 0.0
H319 H 0.17493 0.31761 0.30204 0.0
H320 H 0.22771 0.34891 0.51797 0.0
C321 C 0.14561 0.37147 0.66528 0.0
C322 C 0.14673 0.33757 0.51803 0.0
C323 C 0.14738 0.38551 0.73637 0.0
C324 C 0.20681 0.35463 0.23171 0.0
C325 C 0.19561 0.33933 0.3022 0.0
C326 C 0.2048 0.34489 0.51709 0.0
C327 C 0.15013 0.34665 0.66202 0.0
C328 C 0.16143 0.34041 0.58871 0.0
C329 C 0.20864 0.35373 0.37284 0.0
C330 C 0.19084 0.3439 0.44631 0.0
H331 H 0.15677 0.33796 0.8549 0.0
H332 H 0.1538 0.31347 0.73099 0.0
H333 H 0.20227 0.34571 0.64114 0.0
H334 H 0.2649 0.42035 0.30201 0.0
H335 H 0.24649 0.39333 0.42414 0.0
C336 C 0.74264 0.18927 0.03699 0.0
C337 C 0.75379 0.18279 0.10377 0.0
C338 C 0.75389 0.18797 0.96371 0.0
C339 C 0.82392 0.21865 0.88967 0.0
H340 H 0.78735 0.18427 0.69121 0.0
C341 C 0.81541 0.26846 0.59785 0.0
C342 C 0.82243 0.25706 0.53176 0.0
C343 C 0.82052 0.2608 0.67182 0.0
C344 C 0.79824 0.19364 0.74628 0.0
H345 H 0.78242 0.16633 0.1471 0.0
H346 H 0.80391 0.1662 0.01936 0.0
H347 H 0.76248 0.1575 0.81134 0.0
H348 H 0.84649 0.23497 0.49071 0.0
H349 H 0.85413 0.22052 0.61944 0.0
H350 H 0.85747 0.25672 0.82484 0.0
C351 C 0.7859 0.17142 0.02328 0.0
C352 C 0.78406 0.1783 0.81465 0.0
C353 C 0.77362 0.17149 0.09607 0.0
C354 C 0.84072 0.24399 0.54073 0.0
C355 C 0.84475 0.23524 0.61449 0.0
C356 C 0.83766 0.2344 0.82129 0.0
C357 C 0.77713 0.18112 0.95714 0.0
C358 C 0.79623 0.19126 0.88682 0.0
C359 C 0.83265 0.24176 0.67985 0.0
C360 C 0.82428 0.22245 0.74939 0.0
H361 H 0.72759 0.19832 0.04181 0.0
H362 H 0.74697 0.1957 0.91361 0.0
H363 H 0.83335 0.22924 0.94501 0.0
H364 H 0.80134 0.27857 0.59265 0.0
H365 H 0.81107 0.26609 0.72177 0.0
C366 C 0.60315 0.79622 0.41409 0.0
C367 C 0.62417 0.82649 0.43091 0.0
C368 C 0.59836 0.78671 0.33697 0.0
C369 C 0.58979 0.83158 0.21304 0.0
H370 H 0.56567 0.7752 0.0421 0.0
C371 C 0.57983 0.85562 0.90348 0.0
C372 C 0.56327 0.83074 0.85488 0.0
C373 C 0.57698 0.85163 0.98357 0.0
C374 C 0.57151 0.79056 0.09073 0.0
H375 H 0.6623 0.86773 0.38751 0.0
H376 H 0.65481 0.85055 0.25326 0.0
H377 H 0.59245 0.76955 0.15284 0.0
H378 H 0.52461 0.7855 0.84883 0.0
H379 H 0.52 0.77821 0.98872 0.0
H380 H 0.56971 0.85306 0.15148 0.0
C381 C 0.64127 0.83457 0.29812 0.0
C382 C 0.5873 0.78761 0.15283 0.0
C383 C 0.64537 0.84457 0.37464 0.0
C384 C 0.53839 0.80465 0.88564 0.0
C385 C 0.53591 0.80033 0.96581 0.0
C386 C 0.574 0.83444 0.15166 0.0
C387 C 0.61484 0.80761 0.27845 0.0
C388 C 0.59757 0.80893 0.21255 0.0
C389 C 0.55736 0.82282 0.01474 0.0
C390 C 0.56563 0.81463 0.08869 0.0
H391 H 0.58703 0.78168 0.45766 0.0
H392 H 0.57832 0.76544 0.32288 0.0
H393 H 0.59655 0.84758 0.26052 0.0
H394 H 0.59871 0.87622 0.8805 0.0
H395 H 0.59349 0.86963 0.02022 0.0
C396 C 0.80207 0.53284 0.80511 0.0
C397 C 0.82951 0.55912 0.82276 0.0
C398 C 0.79153 0.52742 0.72856 0.0
C399 C 0.81091 0.55934 0.52678 0.0
H400 H 0.73364 0.55634 0.54253 0.0
C401 C 0.78196 0.62233 0.31656 0.0
C402 C 0.76949 0.60219 0.25391 0.0
C403 C 0.77926 0.61112 0.39174 0.0
C404 C 0.75502 0.5569 0.5374 0.0
H405 H 0.87132 0.59463 0.77317 0.0
H406 H 0.85365 0.58502 0.64069 0.0
H407 H 0.75291 0.54164 0.65369 0.0
H408 H 0.73806 0.55584 0.22238 0.0
H409 H 0.73292 0.53636 0.35403 0.0
H410 H 0.81361 0.57625 0.41163 0.0
C411 C 0.83917 0.56942 0.68504 0.0
C412 C 0.76599 0.54816 0.60053 0.0
C413 C 0.84953 0.57484 0.76143 0.0
C414 C 0.74822 0.57182 0.26956 0.0
C415 C 0.74555 0.56054 0.34489 0.0
C416 C 0.80002 0.56818 0.46408 0.0
C417 C 0.80895 0.54754 0.66902 0.0
C418 C 0.79449 0.55008 0.59679 0.0
C419 C 0.76324 0.57988 0.4047 0.0
C420 C 0.77241 0.56772 0.46969 0.0
H421 H 0.7868 0.51912 0.85093 0.0
H422 H 0.76867 0.50936 0.71738 0.0
H423 H 0.83272 0.56084 0.52138 0.0
H424 H 0.79818 0.64593 0.306 0.0
H425 H 0.79291 0.62643 0.43746 0.0
C426 C 0.15556 0.71925 0.61591 0.0
C427 C 0.14899 0.73908 0.57657 0.0
C428 C 0.15633 0.71989 0.69686 0.0
C429 C 0.18694 0.7867 0.80429 0.0
H430 H 0.19233 0.73993 0.97274 0.0
C431 C 0.23386 0.82867 0.10531 0.0
C432 C 0.23954 0.80909 0.14918 0.0
C433 C 0.22918 0.82406 0.02573 0.0
C434 C 0.1916 0.75328 0.92511 0.0
H435 H 0.12751 0.76595 0.58655 0.0
H436 H 0.12842 0.76694 0.72759 0.0
H437 H 0.15596 0.71426 0.86909 0.0
H438 H 0.25358 0.77589 0.14396 0.0
H439 H 0.24668 0.76853 0.00443 0.0
H440 H 0.22298 0.82566 0.85912 0.0
C441 C 0.13468 0.7523 0.69748 0.0
C442 C 0.17025 0.73859 0.86703 0.0
C443 C 0.13373 0.75134 0.61659 0.0
C444 C 0.24846 0.79067 0.11123 0.0
C445 C 0.24401 0.78615 0.03141 0.0
C446 C 0.20843 0.80138 0.86208 0.0
C447 C 0.14968 0.73977 0.73687 0.0
C448 C 0.16773 0.75514 0.8061 0.0
C449 C 0.23076 0.80019 0.99008 0.0
C450 C 0.21113 0.7848 0.92284 0.0
H451 H 0.16647 0.70874 0.58552 0.0
H452 H 0.16721 0.70925 0.72614 0.0
H453 H 0.18618 0.79998 0.75646 0.0
H454 H 0.22751 0.84352 0.13393 0.0
H455 H 0.21974 0.83587 -0.0046 0.0
C456 C 0.35427 0.19111 0.44092 0.0
C457 C 0.37891 0.22063 0.43303 0.0
C458 C 0.33716 0.17564 0.37586 0.0
C459 C 0.34546 0.15162 0.21856 0.0
H460 H 0.32308 0.1835 0.04398 0.0
C461 C 0.40838 0.19178 0.94439 0.0
C462 C 0.3946 0.19599 0.87953 0.0
C463 C 0.39065 0.17387 0.00626 0.0
C464 C 0.32824 0.17327 0.09197 0.0
H465 H 0.40177 0.25882 0.35554 0.0
H466 H 0.37089 0.23259 0.2434 0.0
H467 H 0.31703 0.19723 0.17515 0.0
H468 H 0.3521 0.18151 0.82139 0.0
H469 H 0.32092 0.15095 0.9303 0.0
H470 H 0.36039 0.13086 0.13489 0.0
C471 C 0.36511 0.22102 0.29884 0.0
C472 C 0.32487 0.18134 0.16721 0.0
C473 C 0.38271 0.23618 0.36321 0.0
C474 C 0.36309 0.17874 0.8716 0.0
C475 C 0.34527 0.16118 0.93376 0.0
C476 C 0.34928 0.14391 0.14312 0.0
C477 C 0.34383 0.19 0.30328 0.0
C478 C 0.33533 0.17222 0.23067 0.0
C479 C 0.35898 0.1608 0.0043 0.0
C480 C 0.34279 0.15654 0.07905 0.0
H481 H 0.35108 0.17851 0.49398 0.0
H482 H 0.32086 0.15176 0.38057 0.0
H483 H 0.35386 0.14438 0.26659 0.0
H484 H 0.43273 0.20486 0.95111 0.0
H485 H 0.40201 0.17393 0.05922 0.0
C486 C 0.23215 0.53643 0.02361 0.0
C487 C 0.24441 0.52335 0.07175 0.0
C488 C 0.23826 0.56586 0.03818 0.0
C489 C 0.2563 0.6311 0.08407 0.0
H490 H 0.23884 0.63087 0.30381 0.0
C491 C 0.24303 0.72432 0.24888 0.0
C492 C 0.21455 0.71222 0.28515 0.0
C493 C 0.25271 0.70527 0.21814 0.0
C494 C 0.24409 0.63144 0.24257 0.0
H495 H 0.27486 0.53115 0.16691 0.0
H496 H 0.28639 0.58276 0.19082 0.0
H497 H 0.24828 0.5923 0.25159 0.0
H498 H 0.17424 0.67071 0.31939 0.0
H499 H 0.19157 0.63761 0.26829 0.0
H500 H 0.25095 0.66998 0.07572 0.0
C501 C 0.27169 0.57038 0.14288 0.0
C502 C 0.24978 0.60953 0.2126 0.0
C503 C 0.26536 0.54098 0.12881 0.0
C504 C 0.19629 0.68075 0.29181 0.0
C505 C 0.20618 0.6618 0.26261 0.0
C506 C 0.25101 0.65343 0.11452 0.0
C507 C 0.25664 0.58237 0.10119 0.0
C508 C 0.25533 0.60867 0.13278 0.0
C509 C 0.23431 0.67385 0.22489 0.0
C510 C 0.2441 0.65323 0.19373 0.0
H511 H 0.21555 0.52296 0.97973 0.0
H512 H 0.22626 0.57444 0.00513 0.0
H513 H 0.26045 0.63096 0.02237 0.0
H514 H 0.25775 0.74846 0.24374 0.0
H515 H 0.27462 0.71503 0.18992 0.0
C516 C 0.66142 0.14936 0.41177 0.0
C517 C 0.68496 0.16614 0.35858 0.0
C518 C 0.64176 0.15942 0.43439 0.0
C519 C 0.61613 0.21361 0.39455 0.0
H520 H 0.61302 0.21739 0.61941 0.0
C521 C 0.55368 0.2669 0.52689 0.0
C522 C 0.53148 0.24779 0.58014 0.0
C523 C 0.57843 0.26331 0.51104 0.0
C524 C 0.61362 0.21648 0.55663 0.0
H525 H 0.70345 0.20412 0.27898 0.0
H526 H 0.66871 0.22121 0.31724 0.0
H527 H 0.63868 0.1934 0.55829 0.0
H528 H 0.51956 0.21314 0.66681 0.0
H529 H 0.56228 0.2062 0.63825 0.0
H530 H 0.59043 0.23582 0.39231 0.0
C531 C 0.66583 0.20062 0.34262 0.0
C532 C 0.62811 0.20253 0.52157 0.0
C533 C 0.68556 0.19057 0.32 0.0
C534 C 0.53657 0.22821 0.62568 0.0
C535 C 0.56103 0.22413 0.60874 0.0
C536 C 0.60147 0.22735 0.42953 0.0
C537 C 0.64505 0.18621 0.40353 0.0
C538 C 0.62922 0.20066 0.44015 0.0
C539 C 0.58085 0.24004 0.54694 0.0
C540 C 0.59982 0.22878 0.51105 0.0
H541 H 0.6602 0.13029 0.44204 0.0
H542 H 0.62529 0.14732 0.47975 0.0
H543 H 0.61657 0.21246 0.33178 0.0
H544 H 0.55018 0.28229 0.49147 0.0
H545 H 0.59401 0.27678 0.46533 0.0
C546 C 0.29755 0.52887 0.83228 0.0
C547 C 0.29045 0.51594 0.90669 0.0
C548 C 0.32236 0.55763 0.8208 0.0
C549 C 0.37999 0.62865 0.90675 0.0
H550 H 0.43268 0.62258 0.75362 0.0
C551 C 0.48904 0.72908 0.76579 0.0
C552 C 0.51506 0.72659 0.77346 0.0
C553 C 0.46063 0.70523 0.78815 0.0
C554 C 0.41818 0.62459 0.79638 0.0
H555 H 0.30243 0.52356 0.02862 0.0
H556 H 0.34608 0.57456 0.00863 0.0
H557 H 0.38335 0.57863 0.78207 0.0
H558 H 0.53164 0.69709 0.8095 0.0
H559 H 0.48185 0.65507 0.84541 0.0
H560 H 0.41512 0.67502 0.91982 0.0
C561 C 0.33219 0.56231 0.95903 0.0
C562 C 0.38992 0.59956 0.8124 0.0
C563 C 0.30719 0.53327 0.97057 0.0
C564 C 0.51205 0.69975 0.80327 0.0
C565 C 0.48362 0.67572 0.82383 0.0
C566 C 0.40821 0.65403 0.8895 0.0
C567 C 0.34072 0.57409 0.88346 0.0
C568 C 0.37053 0.60127 0.86768 0.0
C569 C 0.45769 0.67827 0.81659 0.0
C570 C 0.42755 0.65206 0.83446 0.0
H571 H 0.28487 0.51601 0.78212 0.0
H572 H 0.32817 0.56638 0.76216 0.0
H573 H 0.36544 0.63049 0.94966 0.0
H574 H 0.49066 0.74951 0.74318 0.0
H575 H 0.44086 0.70755 0.78142 0.0
C576 C 0.7779 0.29494 0.28122 0.0
C577 C 0.80717 0.29929 0.28895 0.0
C578 C 0.77373 0.31939 0.26679 0.0
C579 C 0.80958 0.40175 0.27392 0.0
H580 H 0.76751 0.39471 0.08104 0.0
C581 C 0.82944 0.50663 0.11639 0.0
C582 C 0.80435 0.50839 0.09119 0.0
C583 C 0.82632 0.47924 0.13904 0.0
C584 C 0.77886 0.39684 0.13559 0.0
H585 H 0.85486 0.3324 0.29087 0.0
H586 H 0.8476 0.37563 0.2709 0.0
H587 H 0.76786 0.35056 0.13427 0.0
H588 H 0.75661 0.48253 0.06503 0.0
H589 H 0.75096 0.43381 0.10432 0.0
H590 H 0.8209 0.44789 0.27539 0.0
C591 C 0.82788 0.35326 0.27534 0.0
C592 C 0.77906 0.37163 0.1661 0.0
C593 C 0.83209 0.32867 0.28778 0.0
C594 C 0.77631 0.48171 0.08352 0.0
C595 C 0.7731 0.45395 0.1066 0.0
C596 C 0.80918 0.42677 0.24392 0.0
C597 C 0.79877 0.34869 0.26138 0.0
C598 C 0.79509 0.3741 0.23458 0.0
C599 C 0.79792 0.45277 0.13773 0.0
C600 C 0.79465 0.42489 0.1732 0.0
H601 H 0.75842 0.27232 0.27925 0.0
H602 H 0.75109 0.31527 0.25645 0.0
H603 H 0.82172 0.40415 0.32727 0.0
H604 H 0.85139 0.52688 0.12235 0.0
H605 H 0.84606 0.47899 0.1604 0.0
C606 C 0.28573 0.76005 0.40471 0.0
C607 C 0.29256 0.79018 0.39973 0.0
C608 C 0.30854 0.75331 0.42035 0.0
C609 C 0.36541 0.77216 0.5457 0.0
H610 H 0.42082 0.76224 0.41125 0.0
C611 C 0.48552 0.8058 0.63428 0.0
C612 C 0.49922 0.78989 0.60609 0.0
C613 C 0.45597 0.79728 0.6135 0.0
C614 C 0.40512 0.76426 0.44972 0.0
H615 H 0.32836 0.8368 0.40626 0.0
H616 H 0.36836 0.82504 0.43278 0.0
H617 H 0.37791 0.76434 0.35486 0.0
H618 H 0.49252 0.75171 0.53728 0.0
H619 H 0.44039 0.73666 0.49993 0.0
H620 H 0.39293 0.77336 0.64031 0.0
C621 C 0.3455 0.80671 0.42292 0.0
C622 C 0.38074 0.76564 0.4173 0.0
C623 C 0.32273 0.81342 0.40738 0.0
C624 C 0.48222 0.76407 0.56047 0.0
C625 C 0.4526 0.75573 0.53847 0.0
C626 C 0.38968 0.77083 0.57805 0.0
C627 C 0.33842 0.77667 0.43183 0.0
C628 C 0.36124 0.77039 0.46505 0.0
C629 C 0.43951 0.77285 0.56296 0.0
C630 C 0.41043 0.76785 0.53031 0.0
H631 H 0.26246 0.74182 0.40331 0.0
H632 H 0.30254 0.73002 0.42855 0.0
H633 H 0.35054 0.77581 0.58346 0.0
H634 H 0.49834 0.82597 0.66895 0.0
H635 H 0.44684 0.8112 0.63282 0.0
C636 C 0.71808 0.4953 0.95366 0.0
C637 C 0.73207 0.51857 0.89876 0.0
C638 C 0.69335 0.46724 0.93284 0.0
C639 C 0.63377 0.43307 0.78123 0.0
H640 H 0.61465 0.35777 0.88096 0.0
C641 C 0.51497 0.33088 0.76471 0.0
C642 C 0.51167 0.30282 0.74445 0.0
C643 C 0.54315 0.35514 0.78475 0.0
C644 C 0.61988 0.37858 0.85209 0.0
H645 H 0.73174 0.53065 0.77888 0.0
H646 H 0.68991 0.48157 0.74097 0.0
H647 H 0.66249 0.40385 0.9102 0.0
H648 H 0.53531 0.27785 0.73399 0.0
H649 H 0.585 0.32063 0.77 0.0
H650 H 0.5915 0.40794 0.72267 0.0
C651 C 0.69711 0.48496 0.80095 0.0
C652 C 0.64714 0.4051 0.86943 0.0
C653 C 0.72131 0.51311 0.82233 0.0
C654 C 0.53715 0.29924 0.74862 0.0
C655 C 0.56555 0.32368 0.76946 0.0
C656 C 0.60675 0.40671 0.76393 0.0
C657 C 0.68227 0.46175 0.8562 0.0
C658 C 0.6543 0.43285 0.83489 0.0
C659 C 0.56894 0.35214 0.78564 0.0
C660 C 0.59914 0.37926 0.80015 0.0
H661 H 0.72549 0.49923 0.01379 0.0
H662 H 0.68231 0.45029 0.97754 0.0
H663 H 0.638 0.45383 0.75399 0.0
H664 H 0.49589 0.33451 0.76273 0.0
H665 H 0.54482 0.37655 0.79849 0.0
loop_
_geom_bond_atom_site_label_1
_geom_bond_atom_site_label_2
_geom_bond_distance
_geom_bond_site_symmetry_2
_ccdc_geom_bond_type
Zn0 O6 1.920 . S
Zn0 O12 1.898 . S
Zn0 O15 1.905 . S
Zn1 O9 1.905 . S
Zn1 O10 1.898 . S
Zn1 O18 1.920 . S
Zn2 O5 2.080 1_554 S
Zn2 O8 2.114 . S
Zn2 O11 2.120 . S
Zn2 O13 2.120 1_554 S
Zn2 O14 2.114 1_554 S
Zn2 O17 2.080 . S
C3 O8 1.166 . S
C3 O9 1.182 . S
C4 O10 1.167 . S
C4 O11 1.299 . S
O5 Zn2 2.080 1_556 S
O5 C19 1.305 . S
O6 Zn0 1.920 . S
O6 C19 1.234 . S
C7 O12 1.167 . S
C7 O13 1.299 . S
O8 Zn2 2.114 . S
O8 C3 1.166 . S
O9 Zn1 1.905 . S
O9 C3 1.182 . S
O10 Zn1 1.898 . S
O10 C4 1.167 . S
O11 Zn2 2.120 . S
O11 C4 1.299 . S
O12 Zn0 1.898 . S
O12 C7 1.167 . S
O13 Zn2 2.120 1_556 S
O13 C7 1.299 . S
O14 Zn2 2.114 1_556 S
O14 C16 1.166 . S
O15 Zn0 1.905 . S
O15 C16 1.182 . S
C16 O14 1.166 . S
C16 O15 1.182 . S
O17 Zn2 2.080 . S
O17 C20 1.305 . S
O18 Zn1 1.920 . S
O18 C20 1.234 . S
C19 O5 1.305 . S
C19 O6 1.234 . S
C20 O17 1.305 . S
C20 O18 1.234 . S
Zn21 O27 1.920 . S
Zn21 O33 1.898 . S
Zn21 O36 1.905 . S
Zn22 O30 1.905 . S
Zn22 O31 1.898 . S
Zn22 O39 1.920 . S
Zn23 O26 2.080 . S
Zn23 O29 2.114 . S
Zn23 O32 2.120 . S
Zn23 O34 2.120 . S
Zn23 O35 2.114 . S
Zn23 O38 2.080 . S
C24 O29 1.166 . S
C24 O30 1.182 . S
C25 O31 1.167 . S
C25 O32 1.299 . S
O26 Zn23 2.080 . S
O26 C40 1.305 . S
O27 Zn21 1.920 . S
O27 C40 1.234 . S
C28 O33 1.167 . S
C28 O34 1.299 . S
O29 Zn23 2.114 . S
O29 C24 1.166 . S
O30 Zn22 1.905 . S
O30 C24 1.182 . S
O31 Zn22 1.898 . S
O31 C25 1.167 . S
O32 Zn23 2.120 . S
O32 C25 1.299 . S
O33 Zn21 1.898 . S
O33 C28 1.167 . S
O34 Zn23 2.120 . S
O34 C28 1.299 . S
O35 Zn23 2.114 . S
O35 C37 1.166 . S
O36 Zn21 1.905 . S
O36 C37 1.182 . S
C37 O35 1.166 . S
C37 O36 1.182 . S
O38 Zn23 2.080 . S
O38 C41 1.305 . S
O39 Zn22 1.920 . S
O39 C41 1.234 . S
C40 O26 1.305 . S
C40 O27 1.234 . S
C41 O38 1.305 . S
C41 O39 1.234 . S
Zn42 O48 1.920 . S
Zn42 O54 1.898 . S
Zn42 O57 1.905 . S
Zn43 O51 1.905 . S
Zn43 O52 1.898 . S
Zn43 O60 1.920 . S
Zn44 O47 2.080 . S
Zn44 O50 2.114 . S
Zn44 O53 2.120 . S
Zn44 O55 2.120 . S
Zn44 O56 2.114 . S
Zn44 O59 2.080 . S
C45 O50 1.166 . S
C45 O51 1.182 . S
C46 O52 1.167 . S
C46 O53 1.299 . S
O47 Zn44 2.080 . S
O47 C61 1.305 . S
O48 Zn42 1.920 . S
O48 C61 1.234 . S
C49 O54 1.167 . S
C49 O55 1.299 . S
O50 Zn44 2.114 . S
O50 C45 1.166 . S
O51 Zn43 1.905 . S
O51 C45 1.182 . S
O52 Zn43 1.898 . S
O52 C46 1.167 . S
O53 Zn44 2.120 . S
O53 C46 1.299 . S
O54 Zn42 1.898 . S
O54 C49 1.167 . S
O55 Zn44 2.120 . S
O55 C49 1.299 . S
O56 Zn44 2.114 . S
O56 C58 1.166 . S
O57 Zn42 1.905 . S
O57 C58 1.182 . S
C58 O56 1.166 . S
C58 O57 1.182 . S
O59 Zn44 2.080 . S
O59 C62 1.305 . S
O60 Zn43 1.920 . S
O60 C62 1.234 . S
C61 O47 1.305 . S
C61 O48 1.234 . S
C62 O59 1.305 . S
C62 O60 1.234 . S
Zn63 O69 1.920 . S
Zn63 O75 1.898 . S
Zn63 O78 1.905 . S
Zn64 O72 1.905 . S
Zn64 O73 1.898 . S
Zn64 O81 1.920 . S
Zn65 O68 2.080 . S
Zn65 O71 2.114 1_554 S
Zn65 O74 2.120 1_554 S
Zn65 O76 2.120 . S
Zn65 O77 2.114 . S
Zn65 O80 2.080 1_554 S
C66 O71 1.166 . S
C66 O72 1.182 . S
C67 O73 1.167 . S
C67 O74 1.299 . S
O68 Zn65 2.080 . S
O68 C82 1.305 . S
O69 Zn63 1.920 . S
O69 C82 1.234 . S
C70 O75 1.167 . S
C70 O76 1.299 . S
O71 Zn65 2.114 1_556 S
O71 C66 1.166 . S
O72 Zn64 1.905 . S
O72 C66 1.182 . S
O73 Zn64 1.898 . S
O73 C67 1.167 . S
O74 Zn65 2.120 1_556 S
O74 C67 1.299 . S
O75 Zn63 1.898 . S
O75 C70 1.167 . S
O76 Zn65 2.120 . S
O76 C70 1.299 . S
O77 Zn65 2.114 . S
O77 C79 1.166 . S
O78 Zn63 1.905 . S
O78 C79 1.182 . S
C79 O77 1.166 . S
C79 O78 1.182 . S
O80 Zn65 2.080 1_556 S
O80 C83 1.305 . S
O81 Zn64 1.920 . S
O81 C83 1.234 . S
C82 O68 1.305 . S
C82 O69 1.234 . S
C83 O80 1.305 . S
C83 O81 1.234 . S
Zn84 O90 1.920 . S
Zn84 O96 1.898 . S
Zn84 O99 1.905 . S
Zn85 O93 1.905 . S
Zn85 O94 1.898 . S
Zn85 O102 1.920 . S
Zn86 O89 2.080 . S
Zn86 O92 2.114 . S
Zn86 O95 2.120 . S
Zn86 O97 2.120 . S
Zn86 O98 2.114 . S
Zn86 O101 2.080 . S
C87 O92 1.166 . S
C87 O93 1.182 . S
C88 O94 1.167 . S
C88 O95 1.299 . S
O89 Zn86 2.080 . S
O89 C103 1.305 . S
O90 Zn84 1.920 . S
O90 C103 1.234 . S
C91 O96 1.167 . S
C91 O97 1.299 . S
O92 Zn86 2.114 . S
O92 C87 1.166 . S
O93 Zn85 1.905 . S
O93 C87 1.182 . S
O94 Zn85 1.898 . S
O94 C88 1.167 . S
O95 Zn86 2.120 . S
O95 C88 1.299 . S
O96 Zn84 1.898 . S
O96 C91 1.167 . S
O97 Zn86 2.120 . S
O97 C91 1.299 . S
O98 Zn86 2.114 . S
O98 C100 1.166 . S
O99 Zn84 1.905 . S
O99 C100 1.182 . S
C100 O98 1.166 . S
C100 O99 1.182 . S
O101 Zn86 2.080 . S
O101 C104 1.305 . S
O102 Zn85 1.920 . S
O102 C104 1.234 . S
C103 O89 1.305 . S
C103 O90 1.234 . S
C104 O101 1.305 . S
C104 O102 1.234 . S
Zn105 O111 1.920 . S
Zn105 O117 1.898 . S
Zn105 O120 1.905 . S
Zn106 O114 1.905 . S
Zn106 O115 1.898 . S
Zn106 O123 1.920 . S
Zn107 O110 2.080 . S
Zn107 O113 2.114 . S
Zn107 O116 2.120 . S
Zn107 O118 2.120 . S
Zn107 O119 2.114 . S
Zn107 O122 2.080 . S
C108 O113 1.166 . S
C108 O114 1.182 . S
C109 O115 1.167 . S
C109 O116 1.299 . S
O110 Zn107 2.080 . S
O110 C124 1.305 . S
O111 Zn105 1.920 . S
O111 C124 1.234 . S
C112 O117 1.167 . S
C112 O118 1.299 . S
O113 Zn107 2.114 . S
O113 C108 1.166 . S
O114 Zn106 1.905 . S
O114 C108 1.182 . S
O115 Zn106 1.898 . S
O115 C109 1.167 . S
O116 Zn107 2.120 . S
O116 C109 1.299 . S
O117 Zn105 1.898 . S
O117 C112 1.167 . S
O118 Zn107 2.120 . S
O118 C112 1.299 . S
O119 Zn107 2.114 . S
O119 C121 1.166 . S
O120 Zn105 1.905 . S
O120 C121 1.182 . S
C121 O119 1.166 . S
C121 O120 1.182 . S
O122 Zn107 2.080 . S
O122 C125 1.305 . S
O123 Zn106 1.920 . S
O123 C125 1.234 . S
C124 O110 1.305 . S
C124 O111 1.234 . S
C125 O122 1.305 . S
C125 O123 1.234 . S
C126 C127 1.349 . S
C126 C128 1.327 . S
C126 H151 0.950 . S
C127 C126 1.349 . S
C127 C143 1.349 . S
C128 C126 1.327 . S
C128 C147 1.429 . S
C128 H152 0.950 . S
C129 C146 1.574 . S
C129 C148 1.368 . S
C129 H153 0.949 . S
H130 C134 0.949 . S
C131 C132 1.349 1_554 S
C131 C133 1.327 1_554 S
C131 H154 0.950 . S
C132 C131 1.349 1_556 S
C132 C144 1.349 . S
C133 C131 1.327 1_556 S
C133 C149 1.429 . S
C133 H155 0.950 1_556 S
C134 H130 0.949 . S
C134 C142 1.574 . S
C134 C150 1.368 . S
H135 C143 0.950 . S
H136 C141 0.950 . S
H137 C142 0.949 . S
H138 C144 0.950 . S
H139 C145 0.950 . S
H140 C146 0.949 . S
C141 H136 0.950 . S
C141 C143 1.327 . S
C141 C147 1.429 . S
C142 C134 1.574 . S
C142 H137 0.949 . S
C142 C148 1.368 . S
C143 C127 1.349 . S
C143 H135 0.950 . S
C143 C141 1.327 . S
C144 C132 1.349 . S
C144 H138 0.950 . S
C144 C145 1.327 . S
C145 H139 0.950 . S
C145 C144 1.327 . S
C145 C149 1.429 . S
C146 C129 1.574 . S
C146 H140 0.949 . S
C146 C150 1.368 . S
C147 C128 1.429 . S
C147 C141 1.429 . S
C147 C148 1.523 . S
C148 C129 1.368 . S
C148 C142 1.368 . S
C148 C147 1.523 . S
C149 C133 1.429 . S
C149 C145 1.429 . S
C149 C150 1.523 . S
C150 C134 1.368 . S
C150 C146 1.368 . S
C150 C149 1.523 . S
H151 C126 0.950 . S
H152 C128 0.950 . S
H153 C129 0.949 . S
H154 C131 0.950 . S
H155 C133 0.950 1_554 S
C156 C157 1.349 . S
C156 C158 1.327 . S
C156 H181 0.950 1_554 S
C157 C156 1.349 . S
C157 C173 1.349 . S
C158 C156 1.327 . S
C158 C177 1.429 . S
C158 H182 0.950 . S
C159 C176 1.574 1_455 S
C159 C178 1.368 . S
C159 H183 0.949 . S
H160 C164 0.949 . S
C161 C162 1.349 . S
C161 C163 1.327 . S
C161 H184 0.950 . S
C162 C161 1.349 . S
C162 C174 1.349 . S
C163 C161 1.327 . S
C163 C179 1.429 . S
C163 H185 0.950 . S
C164 H160 0.949 . S
C164 C172 1.574 1_655 S
C164 C180 1.368 . S
H165 C173 0.950 . S
H166 C171 0.950 . S
H167 C172 0.949 . S
H168 C174 0.950 . S
H169 C175 0.950 . S
H170 C176 0.949 . S
C171 H166 0.950 . S
C171 C173 1.327 . S
C171 C177 1.429 . S
C172 C164 1.574 1_455 S
C172 H167 0.949 . S
C172 C178 1.368 . S
C173 C157 1.349 . S
C173 H165 0.950 . S
C173 C171 1.327 . S
C174 C162 1.349 . S
C174 H168 0.950 . S
C174 C175 1.327 . S
C175 H169 0.950 . S
C175 C174 1.327 . S
C175 C179 1.429 . S
C176 C159 1.574 1_655 S
C176 H170 0.949 . S
C176 C180 1.368 . S
C177 C158 1.429 . S
C177 C171 1.429 . S
C177 C178 1.523 . S
C178 C159 1.368 . S
C178 C172 1.368 . S
C178 C177 1.523 . S
C179 C163 1.429 . S
C179 C175 1.429 . S
C179 C180 1.523 . S
C180 C164 1.368 . S
C180 C176 1.368 . S
C180 C179 1.523 . S
H181 C156 0.950 1_556 S
H182 C158 0.950 . S
H183 C159 0.949 . S
H184 C161 0.950 . S
H185 C163 0.950 . S
C186 C187 1.349 . S
C186 C188 1.327 . S
C186 H211 0.950 . S
C187 C186 1.349 . S
C187 C203 1.349 . S
C188 C186 1.327 . S
C188 C207 1.429 . S
C188 H212 0.950 . S
C189 C206 1.574 1_545 S
C189 C208 1.368 . S
C189 H213 0.949 . S
H190 C194 0.949 . S
C191 C192 1.349 . S
C191 C193 1.327 . S
C191 H214 0.950 . S
C192 C191 1.349 . S
C192 C204 1.349 . S
C193 C191 1.327 . S
C193 C209 1.429 . S
C193 H215 0.950 . S
C194 H190 0.949 . S
C194 C202 1.574 1_565 S
C194 C210 1.368 . S
H195 C203 0.950 . S
H196 C201 0.950 . S
H197 C202 0.949 . S
H198 C204 0.950 . S
H199 C205 0.950 . S
H200 C206 0.949 . S
C201 H196 0.950 . S
C201 C203 1.327 . S
C201 C207 1.429 . S
C202 C194 1.574 1_545 S
C202 H197 0.949 . S
C202 C208 1.368 . S
C203 C187 1.349 . S
C203 H195 0.950 . S
C203 C201 1.327 . S
C204 C192 1.349 . S
C204 H198 0.950 . S
C204 C205 1.327 . S
C205 H199 0.950 . S
C205 C204 1.327 . S
C205 C209 1.429 . S
C206 C189 1.574 1_565 S
C206 H200 0.949 . S
C206 C210 1.368 . S
C207 C188 1.429 . S
C207 C201 1.429 . S
C207 C208 1.523 . S
C208 C189 1.368 . S
C208 C202 1.368 . S
C208 C207 1.523 . S
C209 C193 1.429 . S
C209 C205 1.429 . S
C209 C210 1.523 . S
C210 C194 1.368 . S
C210 C206 1.368 . S
C210 C209 1.523 . S
H211 C186 0.950 . S
H212 C188 0.950 . S
H213 C189 0.949 . S
H214 C191 0.950 . S
H215 C193 0.950 . S
C216 C217 1.349 . S
C216 C218 1.327 . S
C216 H241 0.950 . S
C217 C216 1.349 . S
C217 C233 1.349 . S
C218 C216 1.327 . S
C218 C237 1.429 . S
C218 H242 0.950 . S
C219 C236 1.574 . S
C219 C238 1.368 . S
C219 H243 0.949 . S
H220 C224 0.949 . S
C221 C222 1.349 . S
C221 C223 1.327 . S
C221 H244 0.950 . S
C222 C221 1.349 . S
C222 C234 1.349 . S
C223 C221 1.327 . S
C223 C239 1.429 . S
C223 H245 0.950 . S
C224 H220 0.949 . S
C224 C232 1.574 . S
C224 C240 1.368 . S
H225 C233 0.950 . S
H226 C231 0.950 . S
H227 C232 0.949 . S
H228 C234 0.950 . S
H229 C235 0.950 . S
H230 C236 0.949 . S
C231 H226 0.950 . S
C231 C233 1.327 . S
C231 C237 1.429 . S
C232 C224 1.574 . S
C232 H227 0.949 . S
C232 C238 1.368 . S
C233 C217 1.349 . S
C233 H225 0.950 . S
C233 C231 1.327 . S
C234 C222 1.349 . S
C234 H228 0.950 . S
C234 C235 1.327 . S
C235 H229 0.950 . S
C235 C234 1.327 . S
C235 C239 1.429 . S
C236 C219 1.574 . S
C236 H230 0.949 . S
C236 C240 1.368 . S
C237 C218 1.429 . S
C237 C231 1.429 . S
C237 C238 1.523 . S
C238 C219 1.368 . S
C238 C232 1.368 . S
C238 C237 1.523 . S
C239 C223 1.429 . S
C239 C235 1.429 . S
C239 C240 1.523 . S
C240 C224 1.368 . S
C240 C236 1.368 . S
C240 C239 1.523 . S
H241 C216 0.950 . S
H242 C218 0.950 . S
H243 C219 0.949 . S
H244 C221 0.950 . S
H245 C223 0.950 . S
C246 C247 1.349 . S
C246 C248 1.327 . S
C246 H271 0.950 . S
C247 C246 1.349 . S
C247 C263 1.349 . S
C248 C246 1.327 . S
C248 C267 1.429 . S
C248 H272 0.950 . S
C249 C266 1.574 1_455 S
C249 C268 1.368 . S
C249 H273 0.949 . S
H250 C254 0.949 . S
C251 C252 1.349 . S
C251 C253 1.327 . S
C251 H274 0.950 . S
C252 C251 1.349 . S
C252 C264 1.349 1_554 S
C253 C251 1.327 . S
C253 C269 1.429 . S
C253 H275 0.950 . S
C254 H250 0.949 . S
C254 C262 1.574 1_655 S
C254 C270 1.368 . S
H255 C263 0.950 . S
H256 C261 0.950 . S
H257 C262 0.949 . S
H258 C264 0.950 . S
H259 C265 0.950 1_556 S
H260 C266 0.949 . S
C261 H256 0.950 . S
C261 C263 1.327 . S
C261 C267 1.429 . S
C262 C254 1.574 1_455 S
C262 H257 0.949 . S
C262 C268 1.368 . S
C263 C247 1.349 . S
C263 H255 0.950 . S
C263 C261 1.327 . S
C264 C252 1.349 1_556 S
C264 H258 0.950 . S
C264 C265 1.327 1_556 S
C265 H259 0.950 1_554 S
C265 C264 1.327 1_554 S
C265 C269 1.429 . S
C266 C249 1.574 1_655 S
C266 H260 0.949 . S
C266 C270 1.368 . S
C267 C248 1.429 . S
C267 C261 1.429 . S
C267 C268 1.523 . S
C268 C249 1.368 . S
C268 C262 1.368 . S
C268 C267 1.523 . S
C269 C253 1.429 . S
C269 C265 1.429 . S
C269 C270 1.523 . S
C270 C254 1.368 . S
C270 C266 1.368 . S
C270 C269 1.523 . S
H271 C246 0.950 . S
H272 C248 0.950 . S
H273 C249 0.949 . S
H274 C251 0.950 . S
H275 C253 0.950 . S
C276 C277 1.349 . S
C276 C278 1.327 . S
C276 H301 0.950 . S
C277 C276 1.349 . S
C277 C293 1.349 . S
C278 C276 1.327 . S
C278 C297 1.429 . S
C278 H302 0.950 . S
C279 C296 1.574 1_545 S
C279 C298 1.368 . S
C279 H303 0.949 . S
H280 C284 0.949 . S
C281 C282 1.349 . S
C281 C283 1.327 . S
C281 H304 0.950 . S
C282 C281 1.349 . S
C282 C294 1.349 . S
C283 C281 1.327 . S
C283 C299 1.429 . S
C283 H305 0.950 . S
C284 H280 0.949 . S
C284 C292 1.574 1_565 S
C284 C300 1.368 . S
H285 C293 0.950 . S
H286 C291 0.950 . S
H287 C292 0.949 . S
H288 C294 0.950 . S
H289 C295 0.950 . S
H290 C296 0.949 . S
C291 H286 0.950 . S
C291 C293 1.327 . S
C291 C297 1.429 . S
C292 C284 1.574 1_545 S
C292 H287 0.949 . S
C292 C298 1.368 . S
C293 C277 1.349 . S
C293 H285 0.950 . S
C293 C291 1.327 . S
C294 C282 1.349 . S
C294 H288 0.950 . S
C294 C295 1.327 . S
C295 H289 0.950 . S
C295 C294 1.327 . S
C295 C299 1.429 . S
C296 C279 1.574 1_565 S
C296 H290 0.949 . S
C296 C300 1.368 . S
C297 C278 1.429 . S
C297 C291 1.429 . S
C297 C298 1.523 . S
C298 C279 1.368 . S
C298 C292 1.368 . S
C298 C297 1.523 . S
C299 C283 1.429 . S
C299 C295 1.429 . S
C299 C300 1.523 . S
C300 C284 1.368 . S
C300 C296 1.368 . S
C300 C299 1.523 . S
H301 C276 0.950 . S
H302 C278 0.950 . S
H303 C279 0.949 . S
H304 C281 0.950 . S
H305 C283 0.950 . S
C306 C307 1.349 . S
C306 C308 1.327 . S
C306 H331 0.950 . S
C307 C306 1.349 . S
C307 C323 1.349 . S
C308 C306 1.327 . S
C308 C327 1.429 . S
C308 H332 0.950 . S
C309 C326 1.574 . S
C309 C328 1.368 . S
C309 H333 0.949 . S
H310 C314 0.949 . S
C311 C312 1.349 . S
C311 C313 1.327 . S
C311 H334 0.950 . S
C312 C311 1.349 . S
C312 C324 1.349 . S
C313 C311 1.327 . S
C313 C329 1.429 . S
C313 H335 0.950 . S
C314 H310 0.949 . S
C314 C322 1.574 . S
C314 C330 1.368 . S
H315 C323 0.950 . S
H316 C321 0.950 . S
H317 C322 0.949 . S
H318 C324 0.950 . S
H319 C325 0.950 . S
H320 C326 0.949 . S
C321 H316 0.950 . S
C321 C323 1.327 . S
C321 C327 1.429 . S
C322 C314 1.574 . S
C322 H317 0.949 . S
C322 C328 1.368 . S
C323 C307 1.349 . S
C323 H315 0.950 . S
C323 C321 1.327 . S
C324 C312 1.349 . S
C324 H318 0.950 . S
C324 C325 1.327 . S
C325 H319 0.950 . S
C325 C324 1.327 . S
C325 C329 1.429 . S
C326 C309 1.574 . S
C326 H320 0.949 . S
C326 C330 1.368 . S
C327 C308 1.429 . S
C327 C321 1.429 . S
C327 C328 1.523 . S
C328 C309 1.368 . S
C328 C322 1.368 . S
C328 C327 1.523 . S
C329 C313 1.429 . S
C329 C325 1.429 . S
C329 C330 1.523 . S
C330 C314 1.368 . S
C330 C326 1.368 . S
C330 C329 1.523 . S
H331 C306 0.950 . S
H332 C308 0.950 . S
H333 C309 0.949 . S
H334 C311 0.950 . S
H335 C313 0.950 . S
C336 C337 1.349 . S
C336 C338 1.327 . S
C336 H361 0.950 . S
C337 C336 1.349 . S
C337 C353 1.349 . S
C338 C336 1.327 . S
C338 C357 1.429 . S
C338 H362 0.950 . S
C339 C356 1.574 . S
C339 C358 1.368 . S
C339 H363 0.949 . S
H340 C344 0.949 . S
C341 C342 1.349 . S
C341 C343 1.327 . S
C341 H364 0.950 . S
C342 C341 1.349 . S
C342 C354 1.349 . S
C343 C341 1.327 . S
C343 C359 1.429 . S
C343 H365 0.950 . S
C344 H340 0.949 . S
C344 C352 1.574 . S
C344 C360 1.368 . S
H345 C353 0.950 . S
H346 C351 0.950 . S
H347 C352 0.949 . S
H348 C354 0.950 . S
H349 C355 0.950 . S
H350 C356 0.949 . S
C351 H346 0.950 . S
C351 C353 1.327 . S
C351 C357 1.429 . S
C352 C344 1.574 . S
C352 H347 0.949 . S
C352 C358 1.368 . S
C353 C337 1.349 . S
C353 H345 0.950 . S
C353 C351 1.327 . S
C354 C342 1.349 . S
C354 H348 0.950 . S
C354 C355 1.327 . S
C355 H349 0.950 . S
C355 C354 1.327 . S
C355 C359 1.429 . S
C356 C339 1.574 . S
C356 H350 0.949 . S
C356 C360 1.368 . S
C357 C338 1.429 . S
C357 C351 1.429 . S
C357 C358 1.523 1_554 S
C358 C339 1.368 . S
C358 C352 1.368 . S
C358 C357 1.523 1_556 S
C359 C343 1.429 . S
C359 C355 1.429 . S
C359 C360 1.523 . S
C360 C344 1.368 . S
C360 C356 1.368 . S
C360 C359 1.523 . S
H361 C336 0.950 . S
H362 C338 0.950 . S
H363 C339 0.949 . S
H364 C341 0.950 . S
H365 C343 0.950 . S
C366 C367 1.349 . S
C366 C368 1.327 . S
C366 H391 0.950 . S
C367 C366 1.349 . S
C367 C383 1.349 . S
C368 C366 1.327 . S
C368 C387 1.429 . S
C368 H392 0.950 . S
C369 C386 1.574 . S
C369 C388 1.368 . S
C369 H393 0.949 . S
H370 C374 0.949 . S
C371 C372 1.349 . S
C371 C373 1.327 . S
C371 H394 0.950 . S
C372 C371 1.349 . S
C372 C384 1.349 . S
C373 C371 1.327 . S
C373 C389 1.429 1_556 S
C373 H395 0.950 . S
C374 H370 0.949 . S
C374 C382 1.574 . S
C374 C390 1.368 . S
H375 C383 0.950 . S
H376 C381 0.950 . S
H377 C382 0.949 . S
H378 C384 0.950 . S
H379 C385 0.950 . S
H380 C386 0.949 . S
C381 H376 0.950 . S
C381 C383 1.327 . S
C381 C387 1.429 . S
C382 C374 1.574 . S
C382 H377 0.949 . S
C382 C388 1.368 . S
C383 C367 1.349 . S
C383 H375 0.950 . S
C383 C381 1.327 . S
C384 C372 1.349 . S
C384 H378 0.950 . S
C384 C385 1.327 . S
C385 H379 0.950 . S
C385 C384 1.327 . S
C385 C389 1.429 1_556 S
C386 C369 1.574 . S
C386 H380 0.949 . S
C386 C390 1.368 . S
C387 C368 1.429 . S
C387 C381 1.429 . S
C387 C388 1.523 . S
C388 C369 1.368 . S
C388 C382 1.368 . S
C388 C387 1.523 . S
C389 C373 1.429 1_554 S
C389 C385 1.429 1_554 S
C389 C390 1.523 . S
C390 C374 1.368 . S
C390 C386 1.368 . S
C390 C389 1.523 . S
H391 C366 0.950 . S
H392 C368 0.950 . S
H393 C369 0.949 . S
H394 C371 0.950 . S
H395 C373 0.950 . S
C396 C397 1.349 . S
C396 C398 1.327 . S
C396 H421 0.950 . S
C397 C396 1.349 . S
C397 C413 1.349 . S
C398 C396 1.327 . S
C398 C417 1.429 . S
C398 H422 0.950 . S
C399 C416 1.574 . S
C399 C418 1.368 . S
C399 H423 0.949 . S
H400 C404 0.949 . S
C401 C402 1.349 . S
C401 C403 1.327 . S
C401 H424 0.950 . S
C402 C401 1.349 . S
C402 C414 1.349 . S
C403 C401 1.327 . S
C403 C419 1.429 . S
C403 H425 0.950 . S
C404 H400 0.949 . S
C404 C412 1.574 . S
C404 C420 1.368 . S
H405 C413 0.950 . S
H406 C411 0.950 . S
H407 C412 0.949 . S
H408 C414 0.950 . S
H409 C415 0.950 . S
H410 C416 0.949 . S
C411 H406 0.950 . S
C411 C413 1.327 . S
C411 C417 1.429 . S
C412 C404 1.574 . S
C412 H407 0.949 . S
C412 C418 1.368 . S
C413 C397 1.349 . S
C413 H405 0.950 . S
C413 C411 1.327 . S
C414 C402 1.349 . S
C414 H408 0.950 . S
C414 C415 1.327 . S
C415 H409 0.950 . S
C415 C414 1.327 . S
C415 C419 1.429 . S
C416 C399 1.574 . S
C416 H410 0.949 . S
C416 C420 1.368 . S
C417 C398 1.429 . S
C417 C411 1.429 . S
C417 C418 1.523 . S
C418 C399 1.368 . S
C418 C412 1.368 . S
C418 C417 1.523 . S
C419 C403 1.429 . S
C419 C415 1.429 . S
C419 C420 1.523 . S
C420 C404 1.368 . S
C420 C416 1.368 . S
C420 C419 1.523 . S
H421 C396 0.950 . S
H422 C398 0.950 . S
H423 C399 0.949 . S
H424 C401 0.950 . S
H425 C403 0.950 . S
C426 C427 1.349 . S
C426 C428 1.327 . S
C426 H451 0.950 . S
C427 C426 1.349 . S
C427 C443 1.349 . S
C428 C426 1.327 . S
C428 C447 1.429 . S
C428 H452 0.950 . S
C429 C446 1.574 . S
C429 C448 1.368 . S
C429 H453 0.949 . S
H430 C434 0.949 . S
C431 C432 1.349 . S
C431 C433 1.327 . S
C431 H454 0.950 . S
C432 C431 1.349 . S
C432 C444 1.349 . S
C433 C431 1.327 . S
C433 C449 1.429 . S
C433 H455 0.950 . S
C434 H430 0.949 . S
C434 C442 1.574 . S
C434 C450 1.368 . S
H435 C443 0.950 . S
H436 C441 0.950 . S
H437 C442 0.949 . S
H438 C444 0.950 . S
H439 C445 0.950 . S
H440 C446 0.949 . S
C441 H436 0.950 . S
C441 C443 1.327 . S
C441 C447 1.429 . S
C442 C434 1.574 . S
C442 H437 0.949 . S
C442 C448 1.368 . S
C443 C427 1.349 . S
C443 H435 0.950 . S
C443 C441 1.327 . S
C444 C432 1.349 . S
C444 H438 0.950 . S
C444 C445 1.327 . S
C445 H439 0.950 . S
C445 C444 1.327 . S
C445 C449 1.429 . S
C446 C429 1.574 . S
C446 H440 0.949 . S
C446 C450 1.368 . S
C447 C428 1.429 . S
C447 C441 1.429 . S
C447 C448 1.523 . S
C448 C429 1.368 . S
C448 C442 1.368 . S
C448 C447 1.523 . S
C449 C433 1.429 . S
C449 C445 1.429 . S
C449 C450 1.523 1_554 S
C450 C434 1.368 . S
C450 C446 1.368 . S
C450 C449 1.523 1_556 S
H451 C426 0.950 . S
H452 C428 0.950 . S
H453 C429 0.949 . S
H454 C431 0.950 . S
H455 C433 0.950 . S
C456 C457 1.349 . S
C456 C458 1.327 . S
C456 H481 0.950 . S
C457 C456 1.349 . S
C457 C473 1.349 . S
C458 C456 1.327 . S
C458 C477 1.429 . S
C458 H482 0.950 . S
C459 C476 1.574 . S
C459 C478 1.368 . S
C459 H483 0.949 . S
H460 C464 0.949 . S
C461 C462 1.349 . S
C461 C463 1.327 . S
C461 H484 0.950 . S
C462 C461 1.349 . S
C462 C474 1.349 . S
C463 C461 1.327 . S
C463 C479 1.429 1_556 S
C463 H485 0.950 . S
C464 H460 0.949 . S
C464 C472 1.574 . S
C464 C480 1.368 . S
H465 C473 0.950 . S
H466 C471 0.950 . S
H467 C472 0.949 . S
H468 C474 0.950 . S
H469 C475 0.950 . S
H470 C476 0.949 . S
C471 H466 0.950 . S
C471 C473 1.327 . S
C471 C477 1.429 . S
C472 C464 1.574 . S
C472 H467 0.949 . S
C472 C478 1.368 . S
C473 C457 1.349 . S
C473 H465 0.950 . S
C473 C471 1.327 . S
C474 C462 1.349 . S
C474 H468 0.950 . S
C474 C475 1.327 . S
C475 H469 0.950 . S
C475 C474 1.327 . S
C475 C479 1.429 1_556 S
C476 C459 1.574 . S
C476 H470 0.949 . S
C476 C480 1.368 . S
C477 C458 1.429 . S
C477 C471 1.429 . S
C477 C478 1.523 . S
C478 C459 1.368 . S
C478 C472 1.368 . S
C478 C477 1.523 . S
C479 C463 1.429 1_554 S
C479 C475 1.429 1_554 S
C479 C480 1.523 . S
C480 C464 1.368 . S
C480 C476 1.368 . S
C480 C479 1.523 . S
H481 C456 0.950 . S
H482 C458 0.950 . S
H483 C459 0.949 . S
H484 C461 0.950 . S
H485 C463 0.950 . S
C486 C487 1.349 . S
C486 C488 1.327 . S
C486 H511 0.950 . S
C487 C486 1.349 . S
C487 C503 1.349 . S
C488 C486 1.327 . S
C488 C507 1.429 . S
C488 H512 0.950 . S
C489 C506 1.574 . S
C489 C508 1.368 . S
C489 H513 0.949 . S
H490 C494 0.949 . S
C491 C492 1.349 . S
C491 C493 1.327 . S
C491 H514 0.950 . S
C492 C491 1.349 . S
C492 C504 1.349 . S
C493 C491 1.327 . S
C493 C509 1.429 . S
C493 H515 0.950 . S
C494 H490 0.949 . S
C494 C502 1.574 . S
C494 C510 1.368 . S
H495 C503 0.950 . S
H496 C501 0.950 . S
H497 C502 0.949 . S
H498 C504 0.950 . S
H499 C505 0.950 . S
H500 C506 0.949 . S
C501 H496 0.950 . S
C501 C503 1.327 . S
C501 C507 1.429 . S
C502 C494 1.574 . S
C502 H497 0.949 . S
C502 C508 1.368 . S
C503 C487 1.349 . S
C503 H495 0.950 . S
C503 C501 1.327 . S
C504 C492 1.349 . S
C504 H498 0.950 . S
C504 C505 1.327 . S
C505 H499 0.950 . S
C505 C504 1.327 . S
C505 C509 1.429 . S
C506 C489 1.574 . S
C506 H500 0.949 . S
C506 C510 1.368 . S
C507 C488 1.429 . S
C507 C501 1.429 . S
C507 C508 1.523 . S
C508 C489 1.368 . S
C508 C502 1.368 . S
C508 C507 1.523 . S
C509 C493 1.429 . S
C509 C505 1.429 . S
C509 C510 1.523 . S
C510 C494 1.368 . S
C510 C506 1.368 . S
C510 C509 1.523 . S
H511 C486 0.950 . S
H512 C488 0.950 . S
H513 C489 0.949 . S
H514 C491 0.950 . S
H515 C493 0.950 . S
C516 C517 1.349 . S
C516 C518 1.327 . S
C516 H541 0.950 . S
C517 C516 1.349 . S
C517 C533 1.349 . S
C518 C516 1.327 . S
C518 C537 1.429 . S
C518 H542 0.950 . S
C519 C536 1.574 . S
C519 C538 1.368 . S
C519 H543 0.949 . S
H520 C524 0.949 . S
C521 C522 1.349 . S
C521 C523 1.327 . S
C521 H544 0.950 . S
C522 C521 1.349 . S
C522 C534 1.349 . S
C523 C521 1.327 . S
C523 C539 1.429 . S
C523 H545 0.950 . S
C524 H520 0.949 . S
C524 C532 1.574 . S
C524 C540 1.368 . S
H525 C533 0.950 . S
H526 C531 0.950 . S
H527 C532 0.949 . S
H528 C534 0.950 . S
H529 C535 0.950 . S
H530 C536 0.949 . S
C531 H526 0.950 . S
C531 C533 1.327 . S
C531 C537 1.429 . S
C532 C524 1.574 . S
C532 H527 0.949 . S
C532 C538 1.368 . S
C533 C517 1.349 . S
C533 H525 0.950 . S
C533 C531 1.327 . S
C534 C522 1.349 . S
C534 H528 0.950 . S
C534 C535 1.327 . S
C535 H529 0.950 . S
C535 C534 1.327 . S
C535 C539 1.429 . S
C536 C519 1.574 . S
C536 H530 0.949 . S
C536 C540 1.368 . S
C537 C518 1.429 . S
C537 C531 1.429 . S
C537 C538 1.523 . S
C538 C519 1.368 . S
C538 C532 1.368 . S
C538 C537 1.523 . S
C539 C523 1.429 . S
C539 C535 1.429 . S
C539 C540 1.523 . S
C540 C524 1.368 . S
C540 C536 1.368 . S
C540 C539 1.523 . S
H541 C516 0.950 . S
H542 C518 0.950 . S
H543 C519 0.949 . S
H544 C521 0.950 . S
H545 C523 0.950 . S
C546 C547 1.349 . S
C546 C548 1.327 . S
C546 H571 0.950 . S
C547 C546 1.349 . S
C547 C563 1.349 . S
C548 C546 1.327 . S
C548 C567 1.429 . S
C548 H572 0.950 . S
C549 C566 1.574 . S
C549 C568 1.368 . S
C549 H573 0.949 . S
H550 C554 0.949 . S
C551 C552 1.349 . S
C551 C553 1.327 . S
C551 H574 0.950 . S
C552 C551 1.349 . S
C552 C564 1.349 . S
C553 C551 1.327 . S
C553 C569 1.429 . S
C553 H575 0.950 . S
C554 H550 0.949 . S
C554 C562 1.574 . S
C554 C570 1.368 . S
H555 C563 0.950 1_554 S
H556 C561 0.950 1_554 S
H557 C562 0.949 . S
H558 C564 0.950 . S
H559 C565 0.950 . S
H560 C566 0.949 . S
C561 H556 0.950 1_556 S
C561 C563 1.327 . S
C561 C567 1.429 . S
C562 C554 1.574 . S
C562 H557 0.949 . S
C562 C568 1.368 . S
C563 C547 1.349 . S
C563 H555 0.950 1_556 S
C563 C561 1.327 . S
C564 C552 1.349 . S
C564 H558 0.950 . S
C564 C565 1.327 . S
C565 H559 0.950 . S
C565 C564 1.327 . S
C565 C569 1.429 . S
C566 C549 1.574 . S
C566 H560 0.949 . S
C566 C570 1.368 . S
C567 C548 1.429 . S
C567 C561 1.429 . S
C567 C568 1.523 . S
C568 C549 1.368 . S
C568 C562 1.368 . S
C568 C567 1.523 . S
C569 C553 1.429 . S
C569 C565 1.429 . S
C569 C570 1.523 . S
C570 C554 1.368 . S
C570 C566 1.368 . S
C570 C569 1.523 . S
H571 C546 0.950 . S
H572 C548 0.950 . S
H573 C549 0.949 . S
H574 C551 0.950 . S
H575 C553 0.950 . S
C576 C577 1.349 . S
C576 C578 1.327 . S
C576 H601 0.950 . S
C577 C576 1.349 . S
C577 C593 1.349 . S
C578 C576 1.327 . S
C578 C597 1.429 . S
C578 H602 0.950 . S
C579 C596 1.574 . S
C579 C598 1.368 . S
C579 H603 0.949 . S
H580 C584 0.949 . S
C581 C582 1.349 . S
C581 C583 1.327 . S
C581 H604 0.950 . S
C582 C581 1.349 . S
C582 C594 1.349 . S
C583 C581 1.327 . S
C583 C599 1.429 . S
C583 H605 0.950 . S
C584 H580 0.949 . S
C584 C592 1.574 . S
C584 C600 1.368 . S
H585 C593 0.950 . S
H586 C591 0.950 . S
H587 C592 0.949 . S
H588 C594 0.950 1_556 S
H589 C595 0.950 . S
H590 C596 0.949 . S
C591 H586 0.950 . S
C591 C593 1.327 . S
C591 C597 1.429 . S
C592 C584 1.574 . S
C592 H587 0.949 . S
C592 C598 1.368 . S
C593 C577 1.349 . S
C593 H585 0.950 . S
C593 C591 1.327 . S
C594 C582 1.349 . S
C594 H588 0.950 1_554 S
C594 C595 1.327 . S
C595 H589 0.950 . S
C595 C594 1.327 . S
C595 C599 1.429 . S
C596 C579 1.574 . S
C596 H590 0.949 . S
C596 C600 1.368 . S
C597 C578 1.429 . S
C597 C591 1.429 . S
C597 C598 1.523 . S
C598 C579 1.368 . S
C598 C592 1.368 . S
C598 C597 1.523 . S
C599 C583 1.429 . S
C599 C595 1.429 . S
C599 C600 1.523 . S
C600 C584 1.368 . S
C600 C596 1.368 . S
C600 C599 1.523 . S
H601 C576 0.950 . S
H602 C578 0.950 . S
H603 C579 0.949 . S
H604 C581 0.950 . S
H605 C583 0.950 . S
C606 C607 1.349 . S
C606 C608 1.327 . S
C606 H631 0.950 . S
C607 C606 1.349 . S
C607 C623 1.349 . S
C608 C606 1.327 . S
C608 C627 1.429 . S
C608 H632 0.950 . S
C609 C626 1.574 . S
C609 C628 1.368 . S
C609 H633 0.949 . S
H610 C614 0.949 . S
C611 C612 1.349 . S
C611 C613 1.327 . S
C611 H634 0.950 . S
C612 C611 1.349 . S
C612 C624 1.349 . S
C613 C611 1.327 . S
C613 C629 1.429 . S
C613 H635 0.950 . S
C614 H610 0.949 . S
C614 C622 1.574 . S
C614 C630 1.368 . S
H615 C623 0.950 . S
H616 C621 0.950 . S
H617 C622 0.949 . S
H618 C624 0.950 . S
H619 C625 0.950 . S
H620 C626 0.949 . S
C621 H616 0.950 . S
C621 C623 1.327 . S
C621 C627 1.429 . S
C622 C614 1.574 . S
C622 H617 0.949 . S
C622 C628 1.368 . S
C623 C607 1.349 . S
C623 H615 0.950 . S
C623 C621 1.327 . S
C624 C612 1.349 . S
C624 H618 0.950 . S
C624 C625 1.327 . S
C625 H619 0.950 . S
C625 C624 1.327 . S
C625 C629 1.429 . S
C626 C609 1.574 . S
C626 H620 0.949 . S
C626 C630 1.368 . S
C627 C608 1.429 . S
C627 C621 1.429 . S
C627 C628 1.523 . S
C628 C609 1.368 . S
C628 C622 1.368 . S
C628 C627 1.523 . S
C629 C613 1.429 . S
C629 C625 1.429 . S
C629 C630 1.523 . S
C630 C614 1.368 . S
C630 C626 1.368 . S
C630 C629 1.523 . S
H631 C606 0.950 . S
H632 C608 0.950 . S
H633 C609 0.949 . S
H634 C611 0.950 . S
H635 C613 0.950 . S
C636 C637 1.349 . S
C636 C638 1.327 . S
C636 H661 0.950 1_556 S
C637 C636 1.349 . S
C637 C653 1.349 . S
C638 C636 1.327 . S
C638 C657 1.429 . S
C638 H662 0.950 1_556 S
C639 C656 1.574 . S
C639 C658 1.368 . S
C639 H663 0.949 . S
H640 C644 0.949 . S
C641 C642 1.349 . S
C641 C643 1.327 . S
C641 H664 0.950 . S
C642 C641 1.349 . S
C642 C654 1.349 . S
C643 C641 1.327 . S
C643 C659 1.429 . S
C643 H665 0.950 . S
C644 H640 0.949 . S
C644 C652 1.574 . S
C644 C660 1.368 . S
H645 C653 0.950 . S
H646 C651 0.950 . S
H647 C652 0.949 . S
H648 C654 0.950 . S
H649 C655 0.950 . S
H650 C656 0.949 . S
C651 H646 0.950 . S
C651 C653 1.327 . S
C651 C657 1.429 . S
C652 C644 1.574 . S
C652 H647 0.949 . S
C652 C658 1.368 . S
C653 C637 1.349 . S
C653 H645 0.950 . S
C653 C651 1.327 . S
C654 C642 1.349 . S
C654 H648 0.950 . S
C654 C655 1.327 . S
C655 H649 0.950 . S
C655 C654 1.327 . S
C655 C659 1.429 . S
C656 C639 1.574 . S
C656 H650 0.949 . S
C656 C660 1.368 . S
C657 C638 1.429 . S
C657 C651 1.429 . S
C657 C658 1.523 . S
C658 C639 1.368 . S
C658 C652 1.368 . S
C658 C657 1.523 . S
C659 C643 1.429 . S
C659 C655 1.429 . S
C659 C660 1.523 . S
C660 C644 1.368 . S
C660 C656 1.368 . S
C660 C659 1.523 . S
H661 C636 0.950 1_554 S
H662 C638 0.950 1_554 S
H663 C639 0.949 . S
H664 C641 0.950 . S
H665 C643 0.950 . S
C127 C121 1.247 . S
C132 C16 1.247 . S
C157 C3 1.247 . S
C162 C24 1.247 . S
C187 C37 1.246 . S
C192 C45 1.246 . S
C217 C58 1.247 . S
C222 C66 1.247 . S
C247 C87 1.247 . S
C252 C79 1.247 . S
C277 C108 1.246 . S
C282 C100 1.246 . S
C307 C7 0.769 . S
C312 C4 0.769 . S
C337 C25 0.769 . S
C342 C28 0.769 . S
C367 C46 0.769 . S
C372 C49 0.769 . S
C397 C67 0.769 . S
C402 C70 0.769 . S
C427 C91 0.769 . S
C432 C88 0.769 . S
C457 C109 0.769 . S
C462 C112 0.769 . S
C487 C20 1.399 . S
C492 C104 1.399 . S
C517 C40 1.400 . S
C522 C125 1.400 . S
C547 C19 1.399 . S
C552 C61 1.399 . S
C577 C41 1.399 . S
C582 C82 1.399 . S
C607 C103 1.399 . S
C612 C62 1.399 . S
C637 C83 1.399 . S
C642 C124 1.399 . S
