# Generated by pormake.
# Topology ukb, (4)-cn, num edge types: 1
# Building blocks:
#     Node 0, Type 0, BuildingBlock: TATPOV_clean_sbu_0, # of connection points: 4
#     Node 1, Type 0, BuildingBlock: TATPOV_clean_sbu_0, # of connection points: 4
#     Node 2, Type 0, BuildingBlock: TATPOV_clean_sbu_0, # of connection points: 4
#     Node 3, Type 0, BuildingBlock: TATPOV_clean_sbu_0, # of connection points: 4
#     Node 4, Type 0, BuildingBlock: TATPOV_clean_sbu_0, # of connection points: 4
#     Node 5, Type 0, BuildingBlock: TATPOV_clean_sbu_0, # of connection points: 4
#     Node 6, Type 0, BuildingBlock: TATPOV_clean_sbu_0, # of connection points: 4
#     Node 7, Type 0, BuildingBlock: TATPOV_clean_sbu_0, # of connection points: 4
#     Node 8, Type 0, BuildingBlock: TATPOV_clean_sbu_0, # of connection points: 4
#     Node 9, Type 0, BuildingBlock: TATPOV_clean_sbu_0, # of connection points: 4
#     Node 10, Type 0, BuildingBlock: TATPOV_clean_sbu_0, # of connection points: 4
#     Node 11, Type 0, BuildingBlock: TATPOV_clean_sbu_0, # of connection points: 4
#     Node 12, Type 0, BuildingBlock: TATPOV_clean_sbu_0, # of connection points: 4
#     Node 13, Type 0, BuildingBlock: TATPOV_clean_sbu_0, # of connection points: 4
#     Node 14, Type 0, BuildingBlock: TATPOV_clean_sbu_0, # of connection points: 4
#     Node 15, Type 0, BuildingBlock: TATPOV_clean_sbu_0, # of connection points: 4
#     Edge 16, Type (0, 0), BuildingBlock: MIFKUJ_clean_linker_0, # of connection points: 2
#     Edge 17, Type (0, 0), BuildingBlock: MIFKUJ_clean_linker_0, # of connection points: 2
#     Edge 18, Type (0, 0), BuildingBlock: MIFKUJ_clean_linker_0, # of connection points: 2
#     Edge 19, Type (0, 0), BuildingBlock: MIFKUJ_clean_linker_0, # of connection points: 2
#     Edge 20, Type (0, 0), BuildingBlock: MIFKUJ_clean_linker_0, # of connection points: 2
#     Edge 21, Type (0, 0), BuildingBlock: MIFKUJ_clean_linker_0, # of connection points: 2
#     Edge 22, Type (0, 0), BuildingBlock: MIFKUJ_clean_linker_0, # of connection points: 2
#     Edge 23, Type (0, 0), BuildingBlock: MIFKUJ_clean_linker_0, # of connection points: 2
#     Edge 24, Type (0, 0), BuildingBlock: MIFKUJ_clean_linker_0, # of connection points: 2
#     Edge 25, Type (0, 0), BuildingBlock: MIFKUJ_clean_linker_0, # of connection points: 2
#     Edge 26, Type (0, 0), BuildingBlock: MIFKUJ_clean_linker_0, # of connection points: 2
#     Edge 27, Type (0, 0), BuildingBlock: MIFKUJ_clean_linker_0, # of connection points: 2
#     Edge 28, Type (0, 0), BuildingBlock: MIFKUJ_clean_linker_0, # of connection points: 2
#     Edge 29, Type (0, 0), BuildingBlock: MIFKUJ_clean_linker_0, # of connection points: 2
#     Edge 30, Type (0, 0), BuildingBlock: MIFKUJ_clean_linker_0, # of connection points: 2
#     Edge 31, Type (0, 0), BuildingBlock: MIFKUJ_clean_linker_0, # of connection points: 2
#     Edge 32, Type (0, 0), BuildingBlock: MIFKUJ_clean_linker_0, # of connection points: 2
#     Edge 33, Type (0, 0), BuildingBlock: MIFKUJ_clean_linker_0, # of connection points: 2
#     Edge 34, Type (0, 0), BuildingBlock: MIFKUJ_clean_linker_0, # of connection points: 2
#     Edge 35, Type (0, 0), BuildingBlock: MIFKUJ_clean_linker_0, # of connection points: 2
#     Edge 36, Type (0, 0), BuildingBlock: MIFKUJ_clean_linker_0, # of connection points: 2
#     Edge 37, Type (0, 0), BuildingBlock: MIFKUJ_clean_linker_0, # of connection points: 2
#     Edge 38, Type (0, 0), BuildingBlock: MIFKUJ_clean_linker_0, # of connection points: 2
#     Edge 39, Type (0, 0), BuildingBlock: MIFKUJ_clean_linker_0, # of connection points: 2
#     Edge 40, Type (0, 0), BuildingBlock: MIFKUJ_clean_linker_0, # of connection points: 2
#     Edge 41, Type (0, 0), BuildingBlock: MIFKUJ_clean_linker_0, # of connection points: 2
#     Edge 42, Type (0, 0), BuildingBlock: MIFKUJ_clean_linker_0, # of connection points: 2
#     Edge 43, Type (0, 0), BuildingBlock: MIFKUJ_clean_linker_0, # of connection points: 2
#     Edge 44, Type (0, 0), BuildingBlock: MIFKUJ_clean_linker_0, # of connection points: 2
#     Edge 45, Type (0, 0), BuildingBlock: MIFKUJ_clean_linker_0, # of connection points: 2
#     Edge 46, Type (0, 0), BuildingBlock: MIFKUJ_clean_linker_0, # of connection points: 2
#     Edge 47, Type (0, 0), BuildingBlock: MIFKUJ_clean_linker_0, # of connection points: 2
# Relax obj value: 0.144
# Max RMSD: 0.148
# Mean RMSD: 0.148
data_MOF--net-ukb--node1-TATPOV_clean_sbu_0--edge1-MIFKUJ_clean_linker_0
_symmetry_space_group_name_H-M    P1
_symmetry_Int_Tables_number       1
_symmetry_cell_setting            triclinic
loop_
_symmetry_equiv_pos_as_xyz
'x, y, z'
_cell_length_a     56.405552
_cell_length_b     56.407333
_cell_length_c     49.119115
_cell_angle_alpha  89.95501
_cell_angle_beta   90.029575
_cell_angle_gamma 90.000735
loop_
_atom_site_label
_atom_site_type_symbol
_atom_site_fract_x
_atom_site_fract_y
_atom_site_fract_z
_atom_type_partial_charge
Zn0 Zn 0.56624 0.21615 0.16444 0.0
Zn1 Zn 0.52692 0.19907 0.18546 0.0
O2 O 0.5157 0.21099 0.14786 0.0
O3 O 0.54777 0.22874 0.13258 0.0
O4 O 0.49838 0.18218 0.20062 0.0
O5 O 0.58242 0.1845 0.16289 0.0
O6 O 0.55188 0.1721 0.18671 0.0
C7 C 0.52609 0.22347 0.12983 0.0
C8 C 0.55268 0.23842 0.21504 0.0
O9 O 0.53376 0.22632 0.21226 0.0
O10 O 0.56963 0.23611 0.19835 0.0
C11 C 0.47687 0.18749 0.19584 0.0
O12 O 0.472 0.20611 0.18075 0.0
C13 C 0.5723 0.16834 0.17642 0.0
Zn14 Zn 0.29335 0.57284 0.65403 0.0
Zn15 Zn 0.30975 0.5341 0.67855 0.0
O16 O 0.30145 0.52222 0.63995 0.0
O17 O 0.28738 0.55419 0.61993 0.0
O18 O 0.32626 0.50596 0.69513 0.0
O19 O 0.32395 0.59044 0.65819 0.0
O20 O 0.3358 0.55991 0.68256 0.0
C21 C 0.29258 0.53237 0.61912 0.0
C22 C 0.26619 0.5579 0.70167 0.0
O23 O 0.28018 0.54016 0.702 0.0
O24 O 0.26876 0.5742 0.68413 0.0
C25 C 0.3175 0.48532 0.69762 0.0
O26 O 0.29549 0.48148 0.69001 0.0
C27 C 0.33942 0.58065 0.67304 0.0
Zn28 Zn 0.93122 0.30348 0.12951 0.0
Zn29 Zn 0.96549 0.31921 0.16118 0.0
O30 O 0.98275 0.31077 0.12542 0.0
O31 O 0.9535 0.30114 0.09793 0.0
O32 O 0.99146 0.33452 0.18303 0.0
O33 O 0.91135 0.33233 0.13454 0.0
O34 O 0.94003 0.34596 0.16048 0.0
C35 C 0.97541 0.30438 0.10203 0.0
C36 C 0.94001 0.27383 0.17684 0.0
O37 O 0.95566 0.28936 0.18261 0.0
O38 O 0.92764 0.27594 0.15543 0.0
C39 C 0.01184 0.32537 0.18645 0.0
O40 O 0.01616 0.30416 0.1766 0.0
C41 C 0.9197 0.34856 0.14947 0.0
Zn42 Zn 0.19973 0.92445 0.644 0.0
Zn43 Zn 0.18722 0.96127 0.67462 0.0
O44 O 0.19157 0.97551 0.63618 0.0
O45 O 0.19992 0.94468 0.61049 0.0
O46 O 0.17268 0.98867 0.6947 0.0
O47 O 0.17057 0.90589 0.65336 0.0
O48 O 0.1617 0.93537 0.68082 0.0
C49 C 0.19626 0.9667 0.61292 0.0
C50 C 0.23347 0.93693 0.6874 0.0
O51 O 0.21898 0.95358 0.69299 0.0
O52 O 0.229 0.92265 0.66812 0.0
C53 C 0.18295 0.00628 0.70569 0.0
O54 O 0.20621 0.00747 0.70565 0.0
C55 C 0.15705 0.91496 0.67103 0.0
Zn56 Zn 0.56333 0.28421 0.84863 0.0
Zn57 Zn 0.52934 0.30269 0.81842 0.0
O58 O 0.514 0.29969 0.85651 0.0
O59 O 0.54444 0.29027 0.88243 0.0
O60 O 0.50388 0.31926 0.7969 0.0
O61 O 0.58684 0.30854 0.83582 0.0
O62 O 0.55736 0.32617 0.81462 0.0
C63 C 0.52279 0.29568 0.87996 0.0
C64 C 0.54655 0.25263 0.80667 0.0
O65 O 0.53473 0.27071 0.79901 0.0
O66 O 0.55907 0.25349 0.82807 0.0
C67 C 0.48251 0.31216 0.79585 0.0
O68 O 0.4766 0.29239 0.80828 0.0
C69 C 0.57909 0.32568 0.82177 0.0
Zn70 Zn 0.19414 0.57144 0.35819 0.0
Zn71 Zn 0.18361 0.53586 0.32462 0.0
O72 O 0.18856 0.51937 0.36179 0.0
O73 O 0.19466 0.54909 0.38997 0.0
O74 O 0.17061 0.50966 0.30125 0.0
O75 O 0.16448 0.58953 0.34958 0.0
O76 O 0.15717 0.5611 0.32014 0.0
C77 C 0.19242 0.52708 0.38575 0.0
C78 C 0.22871 0.56301 0.31438 0.0
O79 O 0.215 0.54611 0.30741 0.0
O80 O 0.22358 0.57592 0.33469 0.0
C81 C 0.17867 0.48865 0.29993 0.0
O82 O 0.19794 0.48311 0.31355 0.0
C83 C 0.15159 0.58084 0.33104 0.0
Zn84 Zn 0.92988 0.1905 0.85871 0.0
Zn85 Zn 0.96594 0.17675 0.82802 0.0
O86 O 0.97999 0.17875 0.86677 0.0
O87 O 0.94949 0.18775 0.89261 0.0
O88 O 0.99339 0.16374 0.80655 0.0
O89 O 0.9096 0.16359 0.84623 0.0
O90 O 0.93931 0.15211 0.82043 0.0
C91 C 0.97132 0.18302 0.89019 0.0
C92 C 0.94386 0.22515 0.818 0.0
O93 O 0.95931 0.20965 0.8115 0.0
O94 O 0.92955 0.22113 0.83736 0.0
C95 C 0.01453 0.17079 0.8105 0.0
O96 O 0.01846 0.18791 0.82805 0.0
C97 C 0.9181 0.14935 0.82892 0.0
Zn98 Zn 0.29896 0.92612 0.3474 0.0
Zn99 Zn 0.31101 0.96496 0.3199 0.0
O100 O 0.30346 0.97775 0.35827 0.0
O101 O 0.29464 0.94545 0.38127 0.0
O102 O 0.32492 0.99336 0.30114 0.0
O103 O 0.3299 0.9098 0.34013 0.0
O104 O 0.33855 0.94108 0.31536 0.0
C105 C 0.2973 0.96772 0.38042 0.0
C106 C 0.26767 0.93775 0.30168 0.0
O107 O 0.28109 0.95573 0.29853 0.0
O108 O 0.2719 0.9229 0.32047 0.0
C109 C 0.31428 0.011 0.29066 0.0
O110 O 0.29101 0.0118 0.29093 0.0
C111 C 0.34397 0.92058 0.32437 0.0
Zn112 Zn 0.43441 0.79264 0.8547 0.0
Zn113 Zn 0.4706 0.81025 0.82656 0.0
O114 O 0.48335 0.80584 0.86577 0.0
O115 O 0.45222 0.79534 0.88982 0.0
O116 O 0.49831 0.82529 0.80706 0.0
O117 O 0.41326 0.81911 0.84206 0.0
O118 O 0.44372 0.83478 0.82067 0.0
C119 C 0.47401 0.8005 0.88857 0.0
C120 C 0.45126 0.76142 0.81219 0.0
O121 O 0.46481 0.77879 0.80638 0.0
O122 O 0.43736 0.76265 0.8324 0.0
C123 C 0.51968 0.82136 0.81405 0.0
O124 O 0.52407 0.80623 0.83376 0.0
C125 C 0.42193 0.83552 0.82757 0.0
Zn126 Zn 0.72419 0.43125 0.33157 0.0
Zn127 Zn 0.69939 0.46903 0.3176 0.0
O128 O 0.71356 0.47956 0.35423 0.0
O129 O 0.73642 0.44914 0.36411 0.0
O130 O 0.67896 0.49667 0.30689 0.0
O131 O 0.6952 0.41093 0.33407 0.0
O132 O 0.67493 0.44149 0.31889 0.0
C133 C 0.72878 0.46968 0.36968 0.0
C134 C 0.73953 0.45114 0.28113 0.0
O135 O 0.72455 0.46723 0.28705 0.0
O136 O 0.7419 0.43309 0.29618 0.0
C137 C 0.68751 0.5167 0.30028 0.0
O138 O 0.71062 0.51964 0.30025 0.0
C139 C 0.67575 0.41981 0.32627 0.0
Zn140 Zn 0.06183 0.70084 0.86198 0.0
Zn141 Zn 0.02851 0.68321 0.82978 0.0
O142 O 0.0116 0.68819 0.86658 0.0
O143 O 0.04044 0.69818 0.89443 0.0
O144 O 0.00289 0.66797 0.80737 0.0
O145 O 0.08408 0.67431 0.8525 0.0
O146 O 0.0556 0.65847 0.82791 0.0
C147 C 0.01881 0.6934 0.89039 0.0
C148 C 0.04921 0.73179 0.8172 0.0
O149 O 0.0362 0.7144 0.81001 0.0
O150 O 0.06115 0.73069 0.83902 0.0
C151 C 0.98165 0.67552 0.80774 0.0
O152 O 0.97653 0.69451 0.82206 0.0
C153 C 0.07664 0.65772 0.83741 0.0
Zn154 Zn 0.79438 0.07149 0.34594 0.0
Zn155 Zn 0.81066 0.03853 0.31301 0.0
O156 O 0.80762 0.02167 0.35014 0.0
O157 O 0.80011 0.05082 0.37853 0.0
O158 O 0.82588 0.01323 0.29027 0.0
O159 O 0.81917 0.09482 0.33377 0.0
O160 O 0.83478 0.06601 0.30957 0.0
C161 C 0.80431 0.0291 0.37431 0.0
C162 C 0.76097 0.05731 0.30414 0.0
O163 O 0.77839 0.04532 0.29501 0.0
O164 O 0.76301 0.06898 0.32605 0.0
C165 C 0.81737 0.99246 0.28808 0.0
O166 O 0.79701 0.9875 0.29975 0.0
C167 C 0.83537 0.08732 0.31819 0.0
Zn168 Zn 0.43774 0.7054 0.14204 0.0
Zn169 Zn 0.4703 0.68864 0.17516 0.0
O170 O 0.48705 0.69096 0.13784 0.0
O171 O 0.45789 0.69856 0.10943 0.0
O172 O 0.49536 0.67356 0.19849 0.0
O173 O 0.41378 0.68159 0.15497 0.0
O174 O 0.4421 0.66548 0.17955 0.0
C175 C 0.47956 0.69407 0.11364 0.0
C176 C 0.45292 0.73891 0.18309 0.0
O177 O 0.46436 0.72121 0.19242 0.0
O178 O 0.44118 0.73706 0.16119 0.0
C179 C 0.51646 0.68143 0.19902 0.0
O180 O 0.52174 0.70049 0.18485 0.0
C181 C 0.42073 0.6655 0.17105 0.0
Zn182 Zn 0.80211 0.42124 0.64783 0.0
Zn183 Zn 0.81529 0.4572 0.67924 0.0
O184 O 0.81154 0.47226 0.64126 0.0
O185 O 0.8047 0.44172 0.6145 0.0
O186 O 0.82935 0.48417 0.70038 0.0
O187 O 0.82962 0.4012 0.65947 0.0
O188 O 0.84108 0.43139 0.6845 0.0
C189 C 0.80806 0.46373 0.61761 0.0
C190 C 0.76789 0.43387 0.69005 0.0
O191 O 0.78331 0.44921 0.69716 0.0
O192 O 0.77174 0.42055 0.66975 0.0
C193 C 0.81912 0.50369 0.70569 0.0
O194 O 0.79685 0.5067 0.69865 0.0
C195 C 0.8443 0.41031 0.67587 0.0
Zn196 Zn 0.06433 0.79448 0.13605 0.0
Zn197 Zn 0.03022 0.81275 0.16699 0.0
O198 O 0.0141 0.80786 0.12978 0.0
O199 O 0.04339 0.79691 0.10307 0.0
O200 O 0.00459 0.82925 0.188 0.0
O201 O 0.08664 0.82106 0.14561 0.0
O202 O 0.0577 0.83686 0.16946 0.0
C203 C 0.02177 0.8022 0.1063 0.0
C204 C 0.04988 0.76416 0.18103 0.0
O205 O 0.03666 0.78162 0.18742 0.0
O206 O 0.06265 0.7651 0.15983 0.0
C207 C 0.98354 0.82131 0.18954 0.0
O208 O 0.97849 0.80074 0.17845 0.0
C209 C 0.07891 0.83764 0.16052 0.0
Zn210 Zn 0.69786 0.06634 0.62993 0.0
Zn211 Zn 0.68648 0.02816 0.65935 0.0
O212 O 0.69178 0.01487 0.62079 0.0
O213 O 0.69915 0.04652 0.59601 0.0
O214 O 0.67337 0.99972 0.67894 0.0
O215 O 0.66798 0.08351 0.64 0.0
O216 O 0.6597 0.05265 0.66565 0.0
C217 C 0.69642 0.0243 0.59784 0.0
C218 C 0.73166 0.05443 0.6732 0.0
O219 O 0.71776 0.03711 0.67807 0.0
O220 O 0.72689 0.06898 0.65427 0.0
C221 C 0.68085 0.98992 0.7006 0.0
O222 O 0.69983 0.99828 0.71277 0.0
C223 C 0.65447 0.07328 0.65687 0.0
H224 H 0.42887 0.19211 0.18807 0.0
H225 H 0.39778 0.16414 0.20167 0.0
H226 H 0.4505 0.11911 0.23877 0.0
H227 H 0.48156 0.14672 0.22524 0.0
H228 H 0.42071 0.09448 0.20555 0.0
H229 H 0.41432 0.15311 0.27727 0.0
H230 H 0.40829 0.19341 0.29542 0.0
H231 H 0.33956 0.19637 0.25793 0.0
H232 H 0.34533 0.15618 0.23925 0.0
H233 H 0.3623 0.01574 0.29119 0.0
H234 H 0.38602 0.04763 0.27208 0.0
H235 H 0.32256 0.08257 0.24387 0.0
H236 H 0.2984 0.05067 0.26358 0.0
H237 H 0.35331 0.11386 0.26646 0.0
H238 H 0.35771 0.05367 0.19885 0.0
H239 H 0.3634 0.01328 0.18085 0.0
H240 H 0.43535 0.01331 0.20942 0.0
H241 H 0.43001 0.05358 0.22795 0.0
C242 C 0.43381 0.17634 0.19931 0.0
C243 C 0.45771 0.17163 0.20551 0.0
C244 C 0.41601 0.16041 0.2071 0.0
C245 C 0.42185 0.13956 0.22123 0.0
C246 C 0.44563 0.13504 0.22777 0.0
C247 C 0.46336 0.15092 0.22009 0.0
C248 C 0.40346 0.12193 0.22865 0.0
C249 C 0.40606 0.09867 0.21901 0.0
C250 C 0.38384 0.12764 0.24534 0.0
C251 C 0.38037 0.15177 0.25659 0.0
C252 C 0.39801 0.16244 0.27269 0.0
C253 C 0.39462 0.18524 0.28312 0.0
C254 C 0.37359 0.19748 0.27775 0.0
C255 C 0.35587 0.1869 0.26202 0.0
C256 C 0.35918 0.1641 0.25152 0.0
C257 C 0.35328 0.03013 0.28088 0.0
C258 C 0.32842 0.03055 0.27877 0.0
C259 C 0.36692 0.04834 0.26985 0.0
C260 C 0.3561 0.06727 0.25611 0.0
C261 C 0.33126 0.06803 0.25426 0.0
C262 C 0.31751 0.04978 0.26547 0.0
C263 C 0.37103 0.08622 0.24406 0.0
C264 C 0.36775 0.10972 0.25269 0.0
C265 C 0.39001 0.08079 0.22628 0.0
C266 C 0.3934 0.05662 0.21493 0.0
C267 C 0.37471 0.04502 0.20145 0.0
C268 C 0.37788 0.02214 0.19113 0.0
C269 C 0.39971 0.01072 0.19403 0.0
C270 C 0.41845 0.02218 0.20719 0.0
C271 C 0.41537 0.04504 0.21757 0.0
H272 H 0.40213 0.99301 0.18604 0.0
H273 H 0.371 0.21513 0.28585 0.0
H274 H 0.30442 0.43946 0.70892 0.0
H275 H 0.33018 0.40682 0.72359 0.0
H276 H 0.39038 0.45393 0.72278 0.0
H277 H 0.36495 0.48652 0.70825 0.0
H278 H 0.39924 0.41144 0.69662 0.0
H279 H 0.36558 0.43883 0.78173 0.0
H280 H 0.3328 0.44841 0.81305 0.0
H281 H 0.30805 0.37652 0.80864 0.0
H282 H 0.34053 0.3666 0.77698 0.0
H283 H 0.48827 0.35605 0.77336 0.0
H284 H 0.4579 0.38182 0.75422 0.0
H285 H 0.40497 0.32805 0.76869 0.0
H286 H 0.43531 0.30225 0.78861 0.0
H287 H 0.38909 0.36968 0.78478 0.0
H288 H 0.42461 0.34082 0.70356 0.0
H289 H 0.45701 0.33067 0.67197 0.0
H290 H 0.4774 0.40392 0.66772 0.0
H291 H 0.44533 0.41448 0.6996 0.0
C292 C 0.32313 0.44288 0.71198 0.0
C293 C 0.33261 0.46561 0.70744 0.0
C294 C 0.3378 0.42422 0.72038 0.0
C295 C 0.36217 0.42799 0.72429 0.0
C296 C 0.37164 0.45064 0.71979 0.0
C297 C 0.35702 0.46928 0.71161 0.0
C298 C 0.37806 0.40844 0.7329 0.0
C299 C 0.39714 0.40238 0.71597 0.0
C300 C 0.37479 0.3961 0.75769 0.0
C301 C 0.3553 0.40205 0.77674 0.0
C302 C 0.35302 0.42512 0.78724 0.0
C303 C 0.33453 0.4306 0.8051 0.0
C304 C 0.31831 0.4131 0.81276 0.0
C305 C 0.3206 0.39007 0.80264 0.0
C306 C 0.33905 0.3845 0.78476 0.0
C307 C 0.47023 0.34956 0.77228 0.0
C308 C 0.46424 0.32705 0.7825 0.0
C309 C 0.45286 0.3643 0.76118 0.0
C310 C 0.42917 0.35677 0.75965 0.0
C311 C 0.42314 0.33421 0.76959 0.0
C312 C 0.44052 0.31947 0.78089 0.0
C313 C 0.41068 0.37299 0.74877 0.0
C314 C 0.39107 0.37843 0.76523 0.0
C315 C 0.41336 0.38466 0.72341 0.0
C316 C 0.43265 0.37841 0.70414 0.0
C317 C 0.4361 0.35475 0.69605 0.0
C318 C 0.4544 0.34892 0.67806 0.0
C319 C 0.46928 0.36663 0.66788 0.0
C320 C 0.46587 0.39022 0.67563 0.0
C321 C 0.44761 0.39614 0.69363 0.0
H322 H 0.48343 0.36209 0.65396 0.0
H323 H 0.304 0.41737 0.82659 0.0
H324 H 0.00974 0.3714 0.20328 0.0
H325 H 0.042 0.39584 0.22069 0.0
H326 H 0.08971 0.33628 0.21564 0.0
H327 H 0.05739 0.31152 0.19804 0.0
H328 H 0.09414 0.36328 0.26446 0.0
H329 H 0.09377 0.37547 0.16802 0.0
H330 H 0.07561 0.38401 0.12341 0.0
H331 H 0.05357 0.45248 0.15195 0.0
H332 H 0.0713 0.44421 0.19689 0.0
H333 H 0.19078 0.44213 0.29093 0.0
H334 H 0.16652 0.41142 0.26929 0.0
H335 H 0.11109 0.46273 0.25522 0.0
H336 H 0.13536 0.49347 0.27592 0.0
H337 H 0.11531 0.43577 0.21257 0.0
H338 H 0.11047 0.42223 0.30985 0.0
H339 H 0.12673 0.41407 0.35553 0.0
H340 H 0.1569 0.34891 0.32656 0.0
H341 H 0.14105 0.35685 0.2806 0.0
C342 C 0.02701 0.36337 0.20603 0.0
C343 C 0.03102 0.33952 0.19908 0.0
C344 C 0.04546 0.37741 0.2159 0.0
C345 C 0.06828 0.36793 0.21908 0.0
C346 C 0.07222 0.34392 0.21319 0.0
C347 C 0.05375 0.32984 0.20311 0.0
C348 C 0.08798 0.38348 0.22795 0.0
C349 C 0.09914 0.3789 0.25291 0.0
C350 C 0.0942 0.40399 0.213 0.0
C351 C 0.08373 0.40914 0.18589 0.0
C352 C 0.08491 0.39228 0.16485 0.0
C353 C 0.07471 0.39709 0.1395 0.0
C354 C 0.0634 0.41876 0.13487 0.0
C355 C 0.06233 0.4357 0.15557 0.0
C356 C 0.07247 0.43097 0.18098 0.0
C357 C 0.17351 0.44689 0.283 0.0
C358 C 0.16497 0.47023 0.28528 0.0
C359 C 0.1596 0.42929 0.27076 0.0
C360 C 0.13681 0.43467 0.26098 0.0
C361 C 0.1286 0.45811 0.2626 0.0
C362 C 0.14252 0.47569 0.27453 0.0
C363 C 0.12104 0.41604 0.24958 0.0
C364 C 0.11062 0.41999 0.22401 0.0
C365 C 0.11537 0.39508 0.26412 0.0
C366 C 0.12483 0.39027 0.29174 0.0
C367 C 0.12073 0.40625 0.31318 0.0
C368 C 0.12984 0.40165 0.33913 0.0
C369 C 0.14291 0.38102 0.34392 0.0
C370 C 0.14683 0.36491 0.3228 0.0
C371 C 0.13777 0.36944 0.29681 0.0
H372 H 0.14995 0.37749 0.36402 0.0
H373 H 0.05551 0.42244 0.11522 0.0
H374 H 0.19777 0.04522 0.73476 0.0
H375 H 0.17313 0.07785 0.75193 0.0
H376 H 0.11089 0.04419 0.71866 0.0
H377 H 0.13512 0.01173 0.70163 0.0
H378 H 0.11336 0.09201 0.70629 0.0
H379 H 0.12197 0.04037 0.78483 0.0
H380 H 0.1447 0.01857 0.8197 0.0
H381 H 0.17583 0.08374 0.8473 0.0
H382 H 0.1535 0.1059 0.81232 0.0
H383 H 0.01236 0.13532 0.77277 0.0
H384 H 0.04519 0.11259 0.75383 0.0
H385 H 0.09495 0.15508 0.7993 0.0
H386 H 0.06206 0.17784 0.81868 0.0
H387 H 0.10435 0.10863 0.80491 0.0
H388 H 0.09149 0.16108 0.73084 0.0
H389 H 0.06866 0.18315 0.69632 0.0
H390 H 0.04619 0.11767 0.66003 0.0
H391 H 0.06861 0.09517 0.69457 0.0
C392 C 0.17883 0.04478 0.73118 0.0
C393 C 0.16842 0.02585 0.71687 0.0
C394 C 0.1648 0.0634 0.741 0.0
C395 C 0.1402 0.0634 0.73652 0.0
C396 C 0.12985 0.04458 0.72221 0.0
C397 C 0.14375 0.02595 0.71262 0.0
C398 C 0.12491 0.08281 0.74672 0.0
C399 C 0.11131 0.09563 0.72785 0.0
C400 C 0.12288 0.08804 0.77478 0.0
C401 C 0.13632 0.07473 0.79574 0.0
C402 C 0.13384 0.05002 0.79816 0.0
C403 C 0.14661 0.03761 0.81798 0.0
C404 C 0.16177 0.04975 0.83564 0.0
C405 C 0.16413 0.07435 0.83356 0.0
C406 C 0.15142 0.08684 0.81375 0.0
C407 C 0.03028 0.14004 0.77856 0.0
C408 C 0.03458 0.15839 0.79727 0.0
C409 C 0.04906 0.12708 0.7676 0.0
C410 C 0.07255 0.13228 0.77495 0.0
C411 C 0.07696 0.15082 0.79331 0.0
C412 C 0.05815 0.16384 0.80428 0.0
C413 C 0.09222 0.11739 0.7645 0.0
C414 C 0.10669 0.10541 0.7833 0.0
C415 C 0.09513 0.113 0.73634 0.0
C416 C 0.08163 0.12643 0.71543 0.0
C417 C 0.08154 0.15137 0.71562 0.0
C418 C 0.0687 0.16396 0.69603 0.0
C419 C 0.05596 0.15182 0.67602 0.0
C420 C 0.05607 0.12705 0.67554 0.0
C421 C 0.06888 0.11437 0.69511 0.0
H422 H 0.04602 0.1616 0.66086 0.0
H423 H 0.17163 0.04012 0.85098 0.0
H424 H 0.5183 0.84816 0.7677 0.0
H425 H 0.54998 0.8728 0.74884 0.0
H426 H 0.59671 0.8507 0.81357 0.0
H427 H 0.56518 0.8258 0.83248 0.0
H428 H 0.59481 0.9002 0.80588 0.0
H429 H 0.60747 0.83007 0.75337 0.0
H430 H 0.59613 0.79657 0.72392 0.0
H431 H 0.57328 0.84512 0.66186 0.0
H432 H 0.58416 0.87895 0.6911 0.0
H433 H 0.6912 0.96401 0.74649 0.0
H434 H 0.66784 0.93168 0.76629 0.0
H435 H 0.61672 0.93844 0.70136 0.0
H436 H 0.64006 0.97022 0.68124 0.0
H437 H 0.62504 0.8932 0.71139 0.0
H438 H 0.60727 0.96271 0.76483 0.0
H439 H 0.61672 0.99702 0.79397 0.0
H440 H 0.6472 0.95058 0.85381 0.0
H441 H 0.63819 0.91599 0.82483 0.0
C442 C 0.53537 0.84837 0.7778 0.0
C443 C 0.53923 0.83504 0.80158 0.0
C444 C 0.55347 0.86239 0.76695 0.0
C445 C 0.57569 0.86346 0.77978 0.0
C446 C 0.57968 0.85004 0.80338 0.0
C447 C 0.56168 0.83578 0.81406 0.0
C448 C 0.5943 0.87946 0.7691 0.0
C449 C 0.60182 0.89843 0.78542 0.0
C450 C 0.603 0.87736 0.74223 0.0
C451 C 0.59646 0.85706 0.72454 0.0
C452 C 0.59984 0.83362 0.73353 0.0
C453 C 0.59353 0.81456 0.71686 0.0
C454 C 0.58394 0.81871 0.69106 0.0
C455 C 0.58069 0.84193 0.68186 0.0
C456 C 0.58696 0.86105 0.69846 0.0
C457 C 0.67505 0.95851 0.73637 0.0
C458 C 0.66745 0.96979 0.71236 0.0
C459 C 0.66168 0.94009 0.74775 0.0
C460 C 0.6404 0.9328 0.73545 0.0
C461 C 0.6331 0.94371 0.71119 0.0
C462 C 0.64645 0.96199 0.69977 0.0
C463 C 0.62523 0.91426 0.74797 0.0
C464 C 0.61833 0.89481 0.732 0.0
C465 C 0.6169 0.91605 0.77509 0.0
C466 C 0.62233 0.93681 0.79252 0.0
C467 C 0.61617 0.95983 0.7841 0.0
C468 C 0.62141 0.97932 0.8006 0.0
C469 C 0.63263 0.97599 0.82569 0.0
C470 C 0.63856 0.95314 0.83435 0.0
C471 C 0.63339 0.93359 0.8179 0.0
H472 H 0.63666 0.9911 0.83844 0.0
H473 H 0.57907 0.80393 0.67817 0.0
H474 H 0.5639 0.69156 0.20167 0.0
H475 H 0.59514 0.66747 0.22242 0.0
H476 H 0.54279 0.61684 0.24925 0.0
H477 H 0.51147 0.64092 0.22898 0.0
H478 H 0.57583 0.62417 0.28798 0.0
H479 H 0.57471 0.60753 0.19153 0.0
H480 H 0.57661 0.61781 0.14277 0.0
H481 H 0.64649 0.64645 0.15388 0.0
H482 H 0.64486 0.63662 0.20282 0.0
H483 H 0.63913 0.51714 0.3018 0.0
H484 H 0.61259 0.54913 0.28809 0.0
H485 H 0.67278 0.59274 0.26742 0.0
H486 H 0.69959 0.56066 0.28098 0.0
H487 H 0.63904 0.59295 0.22761 0.0
H488 H 0.64153 0.60503 0.32367 0.0
H489 H 0.63931 0.5937 0.37209 0.0
H490 H 0.56667 0.57279 0.3617 0.0
H491 H 0.56855 0.58368 0.3131 0.0
C492 C 0.559 0.67542 0.21222 0.0
C493 C 0.53521 0.66805 0.21347 0.0
C494 C 0.5769 0.66164 0.22399 0.0
C495 C 0.57131 0.64021 0.23704 0.0
C496 C 0.5475 0.63331 0.23924 0.0
C497 C 0.52962 0.64706 0.22754 0.0
C498 C 0.59024 0.62434 0.2474 0.0
C499 C 0.58958 0.61723 0.27477 0.0
C500 C 0.60852 0.61575 0.23029 0.0
C501 C 0.60955 0.6216 0.20088 0.0
C502 C 0.5904 0.6162 0.18361 0.0
C503 C 0.59144 0.62191 0.15594 0.0
C504 C 0.61163 0.63284 0.14525 0.0
C505 C 0.63084 0.63802 0.1622 0.0
C506 C 0.62988 0.63238 0.1899 0.0
C507 C 0.64678 0.53355 0.29445 0.0
C508 C 0.6715 0.53635 0.29249 0.0
C509 C 0.63157 0.55188 0.28676 0.0
C510 C 0.64072 0.57341 0.27704 0.0
C511 C 0.66537 0.57628 0.27498 0.0
C512 C 0.68065 0.55796 0.28278 0.0
C513 C 0.6244 0.59247 0.2681 0.0
C514 C 0.62553 0.60016 0.24096 0.0
C515 C 0.6065 0.6015 0.2854 0.0
C516 C 0.60525 0.59502 0.31467 0.0
C517 C 0.62513 0.59785 0.33165 0.0
C518 C 0.62393 0.59154 0.35914 0.0
C519 C 0.60288 0.58249 0.36995 0.0
C520 C 0.58297 0.57979 0.35329 0.0
C521 C 0.58409 0.58606 0.32578 0.0
H522 H 0.60198 0.57761 0.39124 0.0
H523 H 0.6124 0.63725 0.12382 0.0
H524 H 0.98637 0.63525 0.77746 0.0
H525 H 0.95495 0.61084 0.7582 0.0
H526 H 0.90244 0.66006 0.78788 0.0
H527 H 0.9339 0.68451 0.8077 0.0
H528 H 0.89019 0.61556 0.79983 0.0
H529 H 0.91379 0.65633 0.72 0.0
H530 H 0.94121 0.67278 0.6858 0.0
H531 H 0.96488 0.60261 0.66569 0.0
H532 H 0.93785 0.58573 0.70006 0.0
H533 H 0.80307 0.54668 0.72443 0.0
H534 H 0.82712 0.58011 0.74068 0.0
H535 H 0.89068 0.53906 0.72827 0.0
H536 H 0.86701 0.50568 0.7124 0.0
H537 H 0.89214 0.58505 0.70515 0.0
H538 H 0.87147 0.54581 0.79001 0.0
H539 H 0.84351 0.53014 0.82416 0.0
H540 H 0.81298 0.59938 0.83366 0.0
H541 H 0.84057 0.61539 0.79926 0.0
C542 C 0.96818 0.64106 0.7797 0.0
C543 C 0.96265 0.66184 0.79414 0.0
C544 C 0.95021 0.62712 0.76854 0.0
C545 C 0.92634 0.63375 0.77134 0.0
C546 C 0.92074 0.65465 0.78542 0.0
C547 C 0.93875 0.66864 0.79664 0.0
C548 C 0.90737 0.61804 0.76072 0.0
C549 C 0.89029 0.60931 0.77895 0.0
C550 C 0.90758 0.60974 0.73354 0.0
C551 C 0.92388 0.61977 0.71276 0.0
C552 C 0.92496 0.6444 0.70844 0.0
C553 C 0.94042 0.65381 0.68899 0.0
C554 C 0.95481 0.63875 0.67361 0.0
C555 C 0.95373 0.61425 0.67762 0.0
C556 C 0.93831 0.60475 0.69706 0.0
C557 C 0.82216 0.54475 0.72536 0.0
C558 C 0.83312 0.52353 0.71712 0.0
C559 C 0.83584 0.56384 0.73463 0.0
C560 C 0.86065 0.56202 0.73554 0.0
C561 C 0.87156 0.54082 0.72756 0.0
C562 C 0.85796 0.52172 0.71864 0.0
C563 C 0.87556 0.58214 0.74446 0.0
C564 C 0.89183 0.59171 0.72587 0.0
C565 C 0.87444 0.59135 0.77118 0.0
C566 C 0.85785 0.58172 0.79181 0.0
C567 C 0.85863 0.55764 0.79918 0.0
C568 C 0.84289 0.54871 0.81863 0.0
C569 C 0.82642 0.56374 0.831 0.0
C570 C 0.82571 0.58775 0.82401 0.0
C571 C 0.84139 0.59676 0.80455 0.0
H572 H 0.81426 0.5568 0.84607 0.0
H573 H 0.96677 0.64607 0.65857 0.0
H574 H 0.80427 0.94652 0.27764 0.0
H575 H 0.82896 0.91488 0.25866 0.0
H576 H 0.88724 0.96397 0.25071 0.0
H577 H 0.86259 0.99568 0.26881 0.0
H578 H 0.88526 0.93703 0.20768 0.0
H579 H 0.8822 0.92377 0.30491 0.0
H580 H 0.8624 0.9166 0.34892 0.0
H581 H 0.8317 0.85255 0.31749 0.0
H582 H 0.8511 0.85951 0.27317 0.0
H583 H 0.98742 0.86679 0.20788 0.0
H584 H 0.95563 0.89297 0.2229 0.0
H585 H 0.90486 0.83657 0.21234 0.0
H586 H 0.93668 0.81007 0.19708 0.0
H587 H 0.89893 0.86367 0.26129 0.0
H588 H 0.90654 0.87573 0.16511 0.0
H589 H 0.92823 0.88322 0.1224 0.0
H590 H 0.95209 0.9503 0.15329 0.0
H591 H 0.93083 0.94305 0.19638 0.0
C592 C 0.82228 0.9506 0.27161 0.0
C593 C 0.8315 0.97359 0.27486 0.0
C594 C 0.83641 0.93247 0.26091 0.0
C595 C 0.86008 0.93695 0.25365 0.0
C596 C 0.86904 0.96006 0.25617 0.0
C597 C 0.85491 0.97819 0.26659 0.0
C598 C 0.87589 0.91768 0.24396 0.0
C599 C 0.88832 0.92107 0.21951 0.0
C600 C 0.87947 0.89653 0.25901 0.0
C601 C 0.86786 0.89231 0.28564 0.0
C602 C 0.87108 0.90826 0.30733 0.0
C603 C 0.85996 0.90422 0.33233 0.0
C604 C 0.84574 0.88418 0.33597 0.0
C605 C 0.84268 0.86809 0.31463 0.0
C606 C 0.85373 0.87207 0.28957 0.0
C607 C 0.96955 0.85981 0.20894 0.0
C608 C 0.96456 0.83637 0.20108 0.0
C609 C 0.9514 0.87484 0.21746 0.0
C610 C 0.9279 0.86676 0.21836 0.0
C611 C 0.92291 0.84312 0.21165 0.0
C612 C 0.94109 0.82805 0.20291 0.0
C613 C 0.90863 0.88343 0.2255 0.0
C614 C 0.89557 0.87951 0.24935 0.0
C615 C 0.90461 0.90422 0.21007 0.0
C616 C 0.91722 0.90876 0.18406 0.0
C617 C 0.91655 0.892 0.16288 0.0
C618 C 0.92875 0.89622 0.13859 0.0
C619 C 0.94157 0.9172 0.13515 0.0
C620 C 0.94217 0.93405 0.15599 0.0
C621 C 0.93002 0.92991 0.18034 0.0
H622 H 0.95101 0.92043 0.11633 0.0
H623 H 0.83715 0.88108 0.35535 0.0
H624 H 0.59046 0.24472 0.24788 0.0
H625 H 0.59826 0.27848 0.2777 0.0
H626 H 0.52906 0.30693 0.25943 0.0
H627 H 0.52086 0.27247 0.23007 0.0
H628 H 0.56997 0.33684 0.24667 0.0
H629 H 0.53653 0.29584 0.32157 0.0
H630 H 0.52901 0.26167 0.35166 0.0
H631 H 0.60262 0.25969 0.37384 0.0
H632 H 0.61069 0.29361 0.34357 0.0
H633 H 0.6301 0.43199 0.3119 0.0
H634 H 0.59688 0.40492 0.30335 0.0
H635 H 0.64108 0.34553 0.32566 0.0
H636 H 0.6737 0.37225 0.33519 0.0
H637 H 0.59851 0.33698 0.34219 0.0
H638 H 0.63348 0.36599 0.25732 0.0
H639 H 0.6444 0.39707 0.22423 0.0
H640 H 0.5715 0.41845 0.21831 0.0
H641 H 0.56022 0.38762 0.25161 0.0
C642 C 0.57665 0.2578 0.25093 0.0
C643 C 0.55508 0.2561 0.23684 0.0
C644 C 0.58107 0.27702 0.26799 0.0
C645 C 0.56419 0.29512 0.27081 0.0
C646 C 0.54219 0.293 0.25765 0.0
C647 C 0.5375 0.27335 0.24104 0.0
C648 C 0.57134 0.31741 0.28437 0.0
C649 C 0.57549 0.33725 0.26784 0.0
C650 C 0.57894 0.31763 0.31177 0.0
C651 C 0.57421 0.2973 0.33022 0.0
C652 C 0.55115 0.28804 0.33273 0.0
C653 C 0.54678 0.26872 0.34985 0.0
C654 C 0.56532 0.25851 0.36465 0.0
C655 C 0.58827 0.26763 0.36239 0.0
C656 C 0.59274 0.28695 0.34529 0.0
C657 C 0.63256 0.41319 0.31541 0.0
C658 C 0.65466 0.40427 0.32389 0.0
C659 C 0.61358 0.39773 0.31045 0.0
C660 C 0.61656 0.37311 0.31341 0.0
C661 C 0.63824 0.36441 0.32325 0.0
C662 C 0.65701 0.37978 0.32852 0.0
C663 C 0.59831 0.35591 0.30406 0.0
C664 C 0.59212 0.33703 0.32136 0.0
C665 C 0.5893 0.35627 0.27712 0.0
C666 C 0.59607 0.37478 0.25719 0.0
C667 C 0.61982 0.37744 0.24908 0.0
C668 C 0.62607 0.39499 0.23029 0.0
C669 C 0.60867 0.40979 0.21926 0.0
C670 C 0.58497 0.40702 0.22694 0.0
C671 C 0.57864 0.38953 0.24577 0.0
H672 H 0.61353 0.42335 0.2047 0.0
H673 H 0.5619 0.24355 0.37788 0.0
H674 H 0.24991 0.59799 0.72515 0.0
H675 H 0.21491 0.60262 0.75393 0.0
H676 H 0.20213 0.52734 0.75005 0.0
H677 H 0.23801 0.52242 0.72195 0.0
H678 H 0.16504 0.57647 0.7314 0.0
H679 H 0.20209 0.52663 0.80094 0.0
H680 H 0.23612 0.51408 0.82902 0.0
H681 H 0.2426 0.58463 0.86096 0.0
H682 H 0.20885 0.59767 0.83267 0.0
H683 H 0.06687 0.6168 0.80903 0.0
H684 H 0.09554 0.58785 0.79168 0.0
H685 H 0.15247 0.62733 0.829 0.0
H686 H 0.12409 0.65549 0.84721 0.0
H687 H 0.16289 0.58309 0.83205 0.0
H688 H 0.13409 0.63516 0.76007 0.0
H689 H 0.10341 0.65273 0.73045 0.0
H690 H 0.08434 0.58345 0.7016 0.0
H691 H 0.11478 0.56547 0.7313 0.0
C692 C 0.23991 0.58236 0.73085 0.0
C693 C 0.2466 0.55986 0.72139 0.0
C694 C 0.21998 0.58502 0.74729 0.0
C695 C 0.20611 0.56531 0.7542 0.0
C696 C 0.21288 0.54269 0.74523 0.0
C697 C 0.23329 0.53991 0.72924 0.0
C698 C 0.1836 0.5694 0.76879 0.0
C699 C 0.16413 0.57715 0.75346 0.0
C700 C 0.18287 0.57091 0.79744 0.0
C701 C 0.20315 0.56317 0.81444 0.0
C702 C 0.21097 0.53953 0.81368 0.0
C703 C 0.23015 0.53231 0.8297 0.0
C704 C 0.24156 0.54856 0.8467 0.0
C705 C 0.23377 0.57206 0.84775 0.0
C706 C 0.21461 0.57937 0.83174 0.0
C707 C 0.08547 0.61905 0.81388 0.0
C708 C 0.09321 0.63862 0.82923 0.0
C709 C 0.10185 0.60253 0.80389 0.0
C710 C 0.12625 0.6056 0.8086 0.0
C711 C 0.13378 0.62447 0.82508 0.0
C712 C 0.11747 0.64071 0.83537 0.0
C713 C 0.14435 0.59079 0.79464 0.0
C714 C 0.16315 0.58137 0.81005 0.0
C715 C 0.1447 0.58819 0.76594 0.0
C716 C 0.12643 0.59897 0.74814 0.0
C717 C 0.12323 0.62368 0.74753 0.0
C718 C 0.10591 0.63371 0.73072 0.0
C719 C 0.09187 0.61921 0.71423 0.0
C720 C 0.09518 0.59465 0.71445 0.0
C721 C 0.11245 0.58453 0.73126 0.0
H722 H 0.07848 0.627 0.70122 0.0
H723 H 0.2564 0.54294 0.8591 0.0
H724 H 0.87713 0.07676 0.2921 0.0
H725 H 0.90635 0.10479 0.27402 0.0
H726 H 0.86407 0.16312 0.30365 0.0
H727 H 0.83565 0.13539 0.32268 0.0
H728 H 0.90287 0.13414 0.23613 0.0
H729 H 0.89303 0.21186 0.31524 0.0
H730 H 0.8902 0.21646 0.36502 0.0
H731 H 0.92303 0.1485 0.37635 0.0
H732 H 0.92641 0.14361 0.32665 0.0
H733 H 0.90356 0.24249 0.17413 0.0
H734 H 0.89673 0.20773 0.20211 0.0
H735 H 0.96037 0.22252 0.24782 0.0
H736 H 0.96715 0.25812 0.21994 0.0
H737 H 0.92611 0.20937 0.28113 0.0
H738 H 0.95985 0.1765 0.20301 0.0
H739 H 0.96744 0.17043 0.15409 0.0
H740 H 0.89635 0.14492 0.14321 0.0
H741 H 0.88815 0.15124 0.19196 0.0
C742 C 0.87434 0.09557 0.29515 0.0
C743 C 0.85408 0.10384 0.30884 0.0
C744 C 0.89105 0.11158 0.2848 0.0
C745 C 0.8877 0.13615 0.28777 0.0
C746 C 0.86758 0.14432 0.30177 0.0
C747 C 0.85115 0.12838 0.31246 0.0
C748 C 0.90361 0.15345 0.27399 0.0
C749 C 0.90824 0.15042 0.24612 0.0
C750 C 0.91163 0.17434 0.28714 0.0
C751 C 0.9099 0.17734 0.31713 0.0
C752 C 0.89983 0.19797 0.32832 0.0
C753 C 0.89808 0.2006 0.35655 0.0
C754 C 0.9064 0.18277 0.37384 0.0
C755 C 0.91654 0.16227 0.36294 0.0
C756 C 0.91834 0.15955 0.33473 0.0
C757 C 0.91622 0.23843 0.19005 0.0
C758 C 0.93601 0.25303 0.19467 0.0
C759 C 0.91235 0.21839 0.20596 0.0
C760 C 0.92834 0.21215 0.22664 0.0
C761 C 0.94793 0.22689 0.23178 0.0
C762 C 0.95176 0.2472 0.21587 0.0
C763 C 0.92369 0.19058 0.24312 0.0
C764 C 0.92129 0.1928 0.27142 0.0
C765 C 0.91854 0.16857 0.23059 0.0
C766 C 0.92337 0.1644 0.20121 0.0
C767 C 0.94578 0.16971 0.19018 0.0
C768 C 0.9502 0.16622 0.16246 0.0
C769 C 0.93239 0.1573 0.14556 0.0
C770 C 0.91014 0.15181 0.15635 0.0
C771 C 0.90561 0.1553 0.18404 0.0
H772 H 0.93584 0.15463 0.12411 0.0
H773 H 0.90501 0.18484 0.39568 0.0
H774 H 0.25299 0.9668 0.72571 0.0
H775 H 0.29004 0.96094 0.75116 0.0
H776 H 0.30031 0.89382 0.71077 0.0
H777 H 0.26409 0.89976 0.68503 0.0
H778 H 0.3033 0.92942 0.78672 0.0
H779 H 0.35575 0.88088 0.69981 0.0
H780 H 0.3606 0.88439 0.6501 0.0
H781 H 0.33906 0.95733 0.65351 0.0
H782 H 0.33445 0.95441 0.7033 0.0
H783 H 0.37409 0.83873 0.83387 0.0
H784 H 0.34723 0.86706 0.81324 0.0
H785 H 0.40652 0.90422 0.77767 0.0
H786 H 0.43374 0.8751 0.79765 0.0
H787 H 0.37544 0.89867 0.74103 0.0
H788 H 0.37078 0.93028 0.82873 0.0
H789 H 0.36776 0.93135 0.87877 0.0
H790 H 0.29799 0.90117 0.87456 0.0
H791 H 0.30069 0.89956 0.82452 0.0
C792 C 0.26327 0.95088 0.72219 0.0
C793 C 0.25564 0.93382 0.70321 0.0
C794 C 0.28443 0.94757 0.73672 0.0
C795 C 0.29826 0.92718 0.73247 0.0
C796 C 0.29039 0.91004 0.71384 0.0
C797 C 0.26949 0.9134 0.69925 0.0
C798 C 0.32031 0.92277 0.74825 0.0
C799 C 0.3192 0.92297 0.77679 0.0
C800 C 0.34151 0.91542 0.73532 0.0
C801 C 0.34468 0.91738 0.70535 0.0
C802 C 0.35224 0.89773 0.69002 0.0
C803 C 0.3549 0.8996 0.6618 0.0
C804 C 0.35012 0.92105 0.64866 0.0
C805 C 0.34272 0.9407 0.66371 0.0
C806 C 0.34006 0.93894 0.69194 0.0
C807 C 0.38157 0.85309 0.822 0.0
C808 C 0.40612 0.85455 0.81734 0.0
C809 C 0.36611 0.8695 0.81038 0.0
C810 C 0.37478 0.88811 0.79421 0.0
C811 C 0.39938 0.89009 0.79016 0.0
C812 C 0.41492 0.87345 0.80161 0.0
C813 C 0.35777 0.9037 0.77948 0.0
C814 C 0.35984 0.90569 0.75109 0.0
C815 C 0.33783 0.91382 0.79263 0.0
C816 C 0.33598 0.91476 0.8228 0.0
C817 C 0.35484 0.92374 0.83846 0.0
C818 C 0.35318 0.92446 0.86684 0.0
C819 C 0.3327 0.91633 0.87984 0.0
C820 C 0.31383 0.90749 0.86446 0.0
C821 C 0.31539 0.90672 0.83607 0.0
H822 H 0.33145 0.91689 0.90181 0.0
H823 H 0.35216 0.92245 0.6268 0.0
H824 H 0.54551 0.24897 0.75123 0.0
H825 H 0.55479 0.21367 0.72431 0.0
H826 H 0.55791 0.17191 0.79796 0.0
H827 H 0.54997 0.2074 0.82485 0.0
H828 H 0.59545 0.16489 0.7718 0.0
H829 H 0.51409 0.16419 0.74553 0.0
H830 H 0.4764 0.18037 0.72817 0.0
H831 H 0.50928 0.19571 0.65133 0.0
H832 H 0.54727 0.17991 0.66834 0.0
H833 H 0.6278 0.0618 0.70158 0.0
H834 H 0.59969 0.08752 0.72538 0.0
H835 H 0.6074 0.14041 0.66257 0.0
H836 H 0.63543 0.11488 0.63862 0.0
H837 H 0.56064 0.13787 0.68441 0.0
H838 H 0.64272 0.1438 0.71453 0.0
H839 H 0.6802 0.12714 0.73198 0.0
H840 H 0.64407 0.10113 0.80291 0.0
H841 H 0.60629 0.11737 0.78564 0.0
C842 C 0.54763 0.23212 0.76153 0.0
C843 C 0.54724 0.23088 0.79007 0.0
C844 C 0.55282 0.21189 0.74614 0.0
C845 C 0.55702 0.19 0.75905 0.0
C846 C 0.55494 0.18857 0.7875 0.0
C847 C 0.55035 0.20883 0.80286 0.0
C848 C 0.56648 0.16942 0.74351 0.0
C849 C 0.58737 0.15868 0.75307 0.0
C850 C 0.55644 0.16154 0.71865 0.0
C851 C 0.5336 0.17102 0.7083 0.0
C852 C 0.51334 0.17117 0.72499 0.0
C853 C 0.49191 0.18025 0.7152 0.0
C854 C 0.49045 0.18911 0.68868 0.0
C855 C 0.51043 0.18885 0.67187 0.0
C856 C 0.53191 0.1798 0.68157 0.0
C857 C 0.62307 0.07864 0.69246 0.0
C858 C 0.63416 0.08648 0.66845 0.0
C859 C 0.60699 0.0933 0.70608 0.0
C860 C 0.60174 0.11596 0.69587 0.0
C861 C 0.61124 0.12298 0.67078 0.0
C862 C 0.62739 0.10842 0.65722 0.0
C863 C 0.58926 0.13359 0.71298 0.0
C864 C 0.56814 0.14387 0.70355 0.0
C865 C 0.59891 0.14102 0.73812 0.0
C866 C 0.62166 0.13155 0.74866 0.0
C867 C 0.64275 0.13438 0.73375 0.0
C868 C 0.66404 0.12504 0.74362 0.0
C869 C 0.6645 0.11302 0.7685 0.0
C870 C 0.64368 0.1104 0.78361 0.0
C871 C 0.62232 0.11967 0.7738 0.0
H872 H 0.68101 0.10579 0.7761 0.0
H873 H 0.47384 0.19613 0.68114 0.0
H874 H 0.37283 0.66597 0.16423 0.0
H875 H 0.34364 0.64067 0.1861 0.0
H876 H 0.39971 0.59954 0.22284 0.0
H877 H 0.42924 0.6256 0.20175 0.0
H878 H 0.33067 0.59696 0.18666 0.0
H879 H 0.38226 0.58185 0.28578 0.0
H880 H 0.41487 0.59974 0.3123 0.0
H881 H 0.39795 0.66827 0.27947 0.0
H882 H 0.36511 0.65081 0.25301 0.0
H883 H 0.25022 0.5356 0.2752 0.0
H884 H 0.28614 0.54507 0.24926 0.0
H885 H 0.29171 0.61184 0.29166 0.0
H886 H 0.25659 0.60222 0.31806 0.0
H887 H 0.33343 0.59379 0.28752 0.0
H888 H 0.2675 0.60603 0.22566 0.0
H889 H 0.23219 0.59391 0.19948 0.0
H890 H 0.27314 0.54066 0.15841 0.0
H891 H 0.30864 0.55231 0.18461 0.0
C892 C 0.37905 0.6514 0.17671 0.0
C893 C 0.40339 0.64802 0.18155 0.0
C894 C 0.36228 0.63683 0.18912 0.0
C895 C 0.36941 0.61838 0.20647 0.0
C896 C 0.39376 0.61396 0.20997 0.0
C897 C 0.41062 0.62882 0.19784 0.0
C898 C 0.35117 0.60537 0.22241 0.0
C899 C 0.33141 0.596 0.20871 0.0
C900 C 0.35196 0.60424 0.2512 0.0
C901 C 0.37148 0.61497 0.26719 0.0
C902 C 0.3855 0.60074 0.28428 0.0
C903 C 0.40401 0.6108 0.29929 0.0
C904 C 0.40854 0.63511 0.29748 0.0
C905 C 0.39449 0.64943 0.28076 0.0
C906 C 0.37594 0.63946 0.26575 0.0
C907 C 0.25919 0.55225 0.27902 0.0
C908 C 0.2505 0.56818 0.29866 0.0
C909 C 0.27969 0.55766 0.26415 0.0
C910 C 0.29157 0.57926 0.26835 0.0
C911 C 0.283 0.59499 0.28815 0.0
C912 C 0.26279 0.5895 0.30318 0.0
C913 C 0.31253 0.58619 0.25183 0.0
C914 C 0.3329 0.59422 0.26544 0.0
C915 C 0.31191 0.58685 0.22302 0.0
C916 C 0.29061 0.57982 0.20732 0.0
C917 C 0.26891 0.59162 0.21119 0.0
C918 C 0.24888 0.58486 0.19633 0.0
C919 C 0.2504 0.56647 0.17736 0.0
C920 C 0.27197 0.55485 0.17316 0.0
C921 C 0.29205 0.56153 0.188 0.0
H922 H 0.23487 0.56126 0.16587 0.0
H923 H 0.42289 0.64286 0.30909 0.0
H924 H 0.88188 0.42423 0.70782 0.0
H925 H 0.91208 0.39869 0.72854 0.0
H926 H 0.88051 0.33777 0.68962 0.0
H927 H 0.85126 0.36307 0.66814 0.0
H928 H 0.90728 0.36736 0.76412 0.0
H929 H 0.9154 0.29311 0.68016 0.0
H930 H 0.91991 0.291 0.63032 0.0
H931 H 0.94701 0.36211 0.629 0.0
H932 H 0.94303 0.36457 0.67888 0.0
H933 H 0.90729 0.25639 0.81947 0.0
H934 H 0.90275 0.29296 0.79407 0.0
H935 H 0.9713 0.28242 0.75699 0.0
H936 H 0.97562 0.24488 0.78191 0.0
H937 H 0.94239 0.29644 0.72015 0.0
H938 H 0.96229 0.32741 0.80511 0.0
H939 H 0.9628 0.332 0.85501 0.0
H940 H 0.88948 0.3524 0.85395 0.0
H941 H 0.88838 0.34758 0.80411 0.0
C942 C 0.88174 0.40545 0.70326 0.0
C943 C 0.86411 0.39569 0.68638 0.0
C944 C 0.899 0.39086 0.71513 0.0
C945 C 0.89886 0.36627 0.71042 0.0
C946 C 0.88159 0.35671 0.69301 0.0
C947 C 0.86462 0.37124 0.68091 0.0
C948 C 0.91467 0.35002 0.72597 0.0
C949 C 0.91528 0.35206 0.75444 0.0
C950 C 0.92617 0.33056 0.7134 0.0
C951 C 0.92885 0.32904 0.68335 0.0
C952 C 0.92251 0.30824 0.6693 0.0
C953 C 0.92492 0.307 0.64101 0.0
C954 C 0.93371 0.32641 0.6265 0.0
C955 C 0.94015 0.3471 0.64026 0.0
C956 C 0.93778 0.34844 0.66854 0.0
C957 C 0.92155 0.26185 0.8061 0.0
C958 C 0.94187 0.24774 0.80281 0.0
C959 C 0.91901 0.28296 0.79171 0.0
C960 C 0.93694 0.29085 0.77409 0.0
C961 C 0.95732 0.27681 0.77065 0.0
C962 C 0.95976 0.25538 0.78488 0.0
C963 C 0.93323 0.31299 0.75821 0.0
C964 C 0.93501 0.31209 0.72973 0.0
C965 C 0.92478 0.33396 0.77074 0.0
C966 C 0.92527 0.3371 0.80079 0.0
C967 C 0.94623 0.33277 0.81551 0.0
C968 C 0.94663 0.33541 0.84381 0.0
C969 C 0.92619 0.34249 0.85764 0.0
C970 C 0.90531 0.34696 0.8432 0.0
C971 C 0.90481 0.34432 0.81491 0.0
H972 H 0.92653 0.34452 0.87955 0.0
H973 H 0.93555 0.32542 0.6046 0.0
H974 H 0.06859 0.87718 0.19087 0.0
H975 H 0.09673 0.90586 0.20969 0.0
H976 H 0.15421 0.86924 0.16979 0.0
H977 H 0.12629 0.84122 0.1503 0.0
H978 H 0.12862 0.89763 0.24466 0.0
H979 H 0.20132 0.90221 0.15917 0.0
H980 H 0.20297 0.90583 0.10919 0.0
H981 H 0.13319 0.93622 0.10848 0.0
H982 H 0.13123 0.93314 0.15848 0.0
H983 H 0.2407 0.89798 0.29809 0.0
H984 H 0.20546 0.89157 0.27069 0.0
H985 H 0.21153 0.96218 0.2376 0.0
H986 H 0.24751 0.96868 0.26488 0.0
H987 H 0.19951 0.93081 0.19856 0.0
H988 H 0.1695 0.95155 0.2847 0.0
H989 H 0.16642 0.9515 0.33477 0.0
H990 H 0.14708 0.87788 0.33363 0.0
H991 H 0.1504 0.87737 0.28359 0.0
C992 C 0.08717 0.87557 0.18565 0.0
C993 C 0.0952 0.8568 0.16923 0.0
C994 C 0.10325 0.89198 0.19642 0.0
C995 C 0.12763 0.8899 0.19103 0.0
C996 C 0.13549 0.87168 0.17379 0.0
C997 C 0.11946 0.85546 0.16282 0.0
C998 C 0.14524 0.90459 0.20596 0.0
C999 C 0.14391 0.9052 0.23449 0.0
C1000 C 0.16491 0.91522 0.19277 0.0
C1001 C 0.1661 0.91734 0.16264 0.0
C1002 C 0.18639 0.90983 0.1484 0.0
C1003 C 0.18736 0.91174 0.12004 0.0
C1004 C 0.16819 0.92121 0.10567 0.0
C1005 C 0.14801 0.92883 0.11963 0.0
C1006 C 0.14694 0.92697 0.14799 0.0
C1007 C 0.23464 0.91223 0.28504 0.0
C1008 C 0.24682 0.93395 0.2839 0.0
C1009 C 0.21438 0.90855 0.26944 0.0
C1010 C 0.20553 0.92658 0.25258 0.0
C1011 C 0.21795 0.94811 0.25068 0.0
C1012 C 0.23847 0.95179 0.26626 0.0
C1013 C 0.18336 0.92239 0.23706 0.0
C1014 C 0.18387 0.9238 0.20855 0.0
C1015 C 0.16258 0.91421 0.2502 0.0
C1016 C 0.16026 0.91442 0.28034 0.0
C1017 C 0.16469 0.93531 0.29513 0.0
C1018 C 0.1629 0.93538 0.32351 0.0
C1019 C 0.15656 0.9147 0.33737 0.0
C1020 C 0.15196 0.8939 0.32286 0.0
C1021 C 0.15375 0.89372 0.29448 0.0
H1022 H 0.1552 0.91479 0.35935 0.0
H1023 H 0.16897 0.92267 0.08371 0.0
H1024 H 0.36104 0.61605 0.64474 0.0
H1025 H 0.39129 0.6434 0.66141 0.0
H1026 H 0.39405 0.60499 0.73745 0.0
H1027 H 0.36474 0.57692 0.7202 0.0
H1028 H 0.38523 0.67262 0.69903 0.0
H1029 H 0.4428 0.61571 0.77361 0.0
H1030 H 0.46124 0.5761 0.77504 0.0
H1031 H 0.46125 0.57332 0.68769 0.0
H1032 H 0.44313 0.61305 0.6857 0.0
H1033 H 0.4383 0.71687 0.82698 0.0
H1034 H 0.43033 0.68325 0.79703 0.0
H1035 H 0.45335 0.72434 0.72785 0.0
H1036 H 0.46177 0.75809 0.75789 0.0
H1037 H 0.45613 0.65643 0.75587 0.0
H1038 H 0.4078 0.71594 0.68077 0.0
H1039 H 0.3898 0.75579 0.67827 0.0
H1040 H 0.37271 0.75244 0.76337 0.0
H1041 H 0.39029 0.71247 0.76624 0.0
C1042 C 0.36862 0.61309 0.66472 0.0
C1043 C 0.36049 0.59445 0.68125 0.0
C1044 C 0.38588 0.62876 0.67427 0.0
C1045 C 0.39507 0.62637 0.70072 0.0
C1046 C 0.38774 0.60702 0.71675 0.0
C1047 C 0.37084 0.59101 0.70695 0.0
C1048 C 0.40969 0.64568 0.71276 0.0
C1049 C 0.40114 0.66902 0.71075 0.0
C1050 C 0.43028 0.64117 0.7285 0.0
C1051 C 0.44143 0.61734 0.72953 0.0
C1052 C 0.44685 0.60672 0.7547 0.0
C1053 C 0.45723 0.58422 0.75561 0.0
C1054 C 0.46236 0.57218 0.73147 0.0
C1055 C 0.45719 0.58264 0.70637 0.0
C1056 C 0.44683 0.60513 0.70534 0.0
C1057 C 0.44217 0.71858 0.80547 0.0
C1058 C 0.45038 0.74016 0.79469 0.0
C1059 C 0.43779 0.6993 0.78843 0.0
C1060 C 0.44113 0.70139 0.76027 0.0
C1061 C 0.45069 0.72243 0.74958 0.0
C1062 C 0.45546 0.74166 0.76673 0.0
C1063 C 0.43137 0.68286 0.74215 0.0
C1064 C 0.44067 0.65982 0.7433 0.0
C1065 C 0.41163 0.68758 0.7253 0.0
C1066 C 0.40064 0.71141 0.72376 0.0
C1067 C 0.40015 0.72372 0.69891 0.0
C1068 C 0.39001 0.74631 0.69743 0.0
C1069 C 0.38021 0.75668 0.72067 0.0
C1070 C 0.3804 0.74443 0.74541 0.0
C1071 C 0.39047 0.72183 0.74698 0.0
H1072 H 0.3724 0.77418 0.7195 0.0
H1073 H 0.47038 0.55476 0.73223 0.0
H1074 H 0.93216 0.38971 0.17609 0.0
H1075 H 0.90553 0.42173 0.19047 0.0
H1076 H 0.84671 0.38559 0.15251 0.0
H1077 H 0.87312 0.35452 0.13711 0.0
H1078 H 0.83971 0.43004 0.14719 0.0
H1079 H 0.86322 0.37901 0.22317 0.0
H1080 H 0.89211 0.36101 0.25478 0.0
H1081 H 0.91493 0.43027 0.27989 0.0
H1082 H 0.8863 0.44865 0.24819 0.0
H1083 H 0.74421 0.42161 0.23831 0.0
H1084 H 0.77796 0.41971 0.20712 0.0
H1085 H 0.80696 0.48313 0.24312 0.0
H1086 H 0.77254 0.48554 0.27378 0.0
H1087 H 0.83511 0.43993 0.24734 0.0
H1088 H 0.79832 0.48765 0.1801 0.0
H1089 H 0.76588 0.5015 0.15045 0.0
H1090 H 0.76418 0.43387 0.11045 0.0
H1091 H 0.79637 0.41947 0.14012 0.0
C1092 C 0.91361 0.38887 0.17044 0.0
C1093 C 0.90472 0.36941 0.15576 0.0
C1094 C 0.8984 0.40714 0.17872 0.0
C1095 C 0.87397 0.4059 0.17305 0.0
C1096 C 0.86543 0.38709 0.15715 0.0
C1097 C 0.88061 0.36916 0.14849 0.0
C1098 C 0.85664 0.42249 0.18559 0.0
C1099 C 0.83878 0.43233 0.16908 0.0
C1100 C 0.85572 0.42618 0.21411 0.0
C1101 C 0.87292 0.41517 0.23308 0.0
C1102 C 0.87453 0.39037 0.23531 0.0
C1103 C 0.89083 0.38011 0.25325 0.0
C1104 C 0.90541 0.39449 0.26925 0.0
C1105 C 0.90367 0.41916 0.26742 0.0
C1106 C 0.88743 0.42951 0.24947 0.0
C1107 C 0.75726 0.43571 0.23866 0.0
C1108 C 0.75582 0.45383 0.25808 0.0
C1109 C 0.77651 0.43464 0.2209 0.0
C1110 C 0.79487 0.45134 0.22279 0.0
C1111 C 0.79281 0.47026 0.24119 0.0
C1112 C 0.77317 0.47167 0.25854 0.0
C1113 C 0.81762 0.44622 0.20905 0.0
C1114 C 0.83651 0.4385 0.22536 0.0
C1115 C 0.81909 0.44389 0.18049 0.0
C1116 C 0.79978 0.45246 0.16242 0.0
C1117 C 0.79094 0.47567 0.16511 0.0
C1118 C 0.7726 0.48363 0.14827 0.0
C1119 C 0.76297 0.46857 0.12858 0.0
C1120 C 0.77168 0.44553 0.12568 0.0
C1121 C 0.79002 0.43747 0.14247 0.0
H1122 H 0.74877 0.47477 0.11557 0.0
H1123 H 0.91802 0.38652 0.28314 0.0
H1124 H 0.06398 0.77578 0.83224 0.0
H1125 H 0.07253 0.80951 0.80269 0.0
H1126 H 0.04889 0.76951 0.73298 0.0
H1127 H 0.04 0.73558 0.76259 0.0
H1128 H 0.09498 0.78793 0.72853 0.0
H1129 H 0.01749 0.81581 0.7509 0.0
H1130 H 0.98444 0.82606 0.78152 0.0
H1131 H 0.02765 0.87869 0.82053 0.0
H1132 H 0.06111 0.86852 0.79044 0.0
H1133 H 0.13201 0.88061 0.64482 0.0
H1134 H 0.1041 0.85251 0.66498 0.0
H1135 H 0.11078 0.88798 0.74244 0.0
H1136 H 0.13777 0.91688 0.72194 0.0
H1137 H 0.06776 0.87118 0.73799 0.0
H1138 H 0.14609 0.83933 0.72442 0.0
H1139 H 0.18166 0.82855 0.69798 0.0
H1140 H 0.13968 0.78286 0.64733 0.0
H1141 H 0.10379 0.79363 0.67328 0.0
C1142 C 0.06023 0.77427 0.81068 0.0
C1143 C 0.0515 0.75298 0.79968 0.0
C1144 C 0.06496 0.79362 0.79386 0.0
C1145 C 0.06122 0.79203 0.7657 0.0
C1146 C 0.05175 0.77109 0.75472 0.0
C1147 C 0.04667 0.75177 0.77163 0.0
C1148 C 0.06983 0.81124 0.74769 0.0
C1149 C 0.08861 0.80604 0.73003 0.0
C1150 C 0.06204 0.83495 0.75047 0.0
C1151 C 0.04188 0.84128 0.76849 0.0
C1152 C 0.02002 0.82945 0.76614 0.0
C1153 C 0.00119 0.83527 0.78338 0.0
C1154 C 0.00395 0.85299 0.80299 0.0
C1155 C 0.02554 0.86497 0.80534 0.0
C1156 C 0.04443 0.8592 0.78816 0.0
C1157 C 0.1271 0.88271 0.666 0.0
C1158 C 0.13727 0.9007 0.68194 0.0
C1159 C 0.11122 0.86659 0.67753 0.0
C1160 C 0.10588 0.86769 0.70543 0.0
C1161 C 0.11473 0.88667 0.72091 0.0
C1162 C 0.13019 0.90316 0.7092 0.0
C1163 C 0.09312 0.84789 0.71902 0.0
C1164 C 0.07374 0.85298 0.73598 0.0
C1165 C 0.10068 0.82405 0.71613 0.0
C1166 C 0.12223 0.8175 0.70056 0.0
C1167 C 0.14443 0.82711 0.70752 0.0
C1168 C 0.16464 0.82099 0.69265 0.0
C1169 C 0.16291 0.80509 0.67093 0.0
C1170 C 0.14098 0.79522 0.66411 0.0
C1171 C 0.1207 0.80132 0.6789 0.0
H1172 H 0.17858 0.80037 0.65944 0.0
H1173 H 0.98936 0.85746 0.81633 0.0
H1174 H 0.56298 0.13661 0.21716 0.0
H1175 H 0.59051 0.10728 0.23577 0.0
H1176 H 0.63978 0.12199 0.17086 0.0
H1177 H 0.61248 0.15146 0.15218 0.0
H1178 H 0.63937 0.07232 0.19058 0.0
H1179 H 0.64591 0.15424 0.22207 0.0
H1180 H 0.6291 0.19093 0.24138 0.0
H1181 H 0.60726 0.15278 0.31278 0.0
H1182 H 0.6236 0.11576 0.29363 0.0
H1183 H 0.75442 0.05767 0.24897 0.0
H1184 H 0.71767 0.06714 0.22471 0.0
H1185 H 0.67992 0.06875 0.30117 0.0
H1186 H 0.71681 0.06061 0.3254 0.0
H1187 H 0.67105 0.10653 0.27622 0.0
H1188 H 0.66999 0.02555 0.24884 0.0
H1189 H 0.6856 0.98827 0.22977 0.0
H1190 H 0.6959 0.02216 0.15238 0.0
H1191 H 0.68066 0.05976 0.17108 0.0
C1192 C 0.57931 0.13306 0.20631 0.0
C1193 C 0.58577 0.14667 0.18349 0.0
C1194 C 0.595 0.11626 0.21696 0.0
C1195 C 0.61725 0.11271 0.20482 0.0
C1196 C 0.62268 0.12448 0.18047 0.0
C1197 C 0.60711 0.14144 0.16996 0.0
C1198 C 0.63632 0.10041 0.21995 0.0
C1199 C 0.64642 0.07967 0.2093 0.0
C1200 C 0.64512 0.1099 0.24457 0.0
C1201 C 0.63571 0.13222 0.2563 0.0
C1202 C 0.63736 0.15365 0.24179 0.0
C1203 C 0.62794 0.1745 0.25271 0.0
C1204 C 0.61705 0.17417 0.27826 0.0
C1205 C 0.61565 0.153 0.29297 0.0
C1206 C 0.62499 0.13208 0.2821 0.0
C1207 C 0.73814 0.05958 0.26046 0.0
C1208 C 0.73843 0.05869 0.28902 0.0
C1209 C 0.71709 0.06486 0.24659 0.0
C1210 C 0.69589 0.06864 0.26106 0.0
C1211 C 0.69601 0.06613 0.28952 0.0
C1212 C 0.71709 0.06145 0.30336 0.0
C1213 C 0.67438 0.07801 0.24716 0.0
C1214 C 0.66389 0.09858 0.25787 0.0
C1215 C 0.66519 0.06812 0.2228 0.0
C1216 C 0.67435 0.04554 0.21144 0.0
C1217 C 0.67575 0.02511 0.22781 0.0
C1218 C 0.68451 0.00391 0.21706 0.0
C1219 C 0.69178 0.00286 0.1899 0.0
C1220 C 0.69027 0.02301 0.17342 0.0
C1221 C 0.68155 0.04426 0.18408 0.0
H1222 H 0.69855 0.98643 0.18161 0.0
H1223 H 0.60976 0.19033 0.28668 0.0
H1224 H 0.44886 0.78326 0.16212 0.0
H1225 H 0.44151 0.82001 0.18698 0.0
H1226 H 0.44577 0.78172 0.26301 0.0
H1227 H 0.4544 0.7452 0.23815 0.0
H1228 H 0.40458 0.82856 0.21366 0.0
H1229 H 0.45506 0.81745 0.31662 0.0
H1230 H 0.49356 0.80251 0.33315 0.0
H1231 H 0.52439 0.81492 0.25452 0.0
H1232 H 0.48619 0.83025 0.23761 0.0
H1233 H 0.36393 0.87996 0.34417 0.0
H1234 H 0.39316 0.85495 0.32141 0.0
H1235 H 0.40094 0.90741 0.25816 0.0
H1236 H 0.37172 0.93265 0.28081 0.0
H1237 H 0.44069 0.8584 0.29915 0.0
H1238 H 0.39335 0.87645 0.19877 0.0
H1239 H 0.35515 0.89196 0.18183 0.0
H1240 H 0.32015 0.86605 0.25355 0.0
H1241 H 0.35806 0.8501 0.27067 0.0
C1242 C 0.44877 0.78285 0.18418 0.0
C1243 C 0.452 0.76142 0.19826 0.0
C1244 C 0.44457 0.80384 0.19838 0.0
C1245 C 0.44306 0.80376 0.22693 0.0
C1246 C 0.44733 0.78247 0.24106 0.0
C1247 C 0.4521 0.76153 0.22684 0.0
C1248 C 0.43404 0.82504 0.24148 0.0
C1249 C 0.41297 0.8354 0.23193 0.0
C1250 C 0.44453 0.83379 0.26571 0.0
C1251 C 0.46767 0.82483 0.2758 0.0
C1252 C 0.47008 0.81711 0.30289 0.0
C1253 C 0.49185 0.80855 0.31232 0.0
C1254 C 0.51139 0.80771 0.29488 0.0
C1255 C 0.50922 0.8155 0.26798 0.0
C1256 C 0.4875 0.82409 0.25845 0.0
C1257 C 0.3723 0.88648 0.32579 0.0
C1258 C 0.36518 0.90808 0.31401 0.0
C1259 C 0.38915 0.87223 0.31294 0.0
C1260 C 0.39895 0.87924 0.28799 0.0
C1261 C 0.39345 0.90169 0.27738 0.0
C1262 C 0.37672 0.91606 0.29034 0.0
C1263 C 0.41154 0.86155 0.27113 0.0
C1264 C 0.43294 0.85179 0.28042 0.0
C1265 C 0.40157 0.85338 0.24647 0.0
C1266 C 0.37857 0.86238 0.23611 0.0
C1267 C 0.37747 0.87401 0.21085 0.0
C1268 C 0.35588 0.88287 0.20123 0.0
C1269 C 0.33526 0.88007 0.21666 0.0
C1270 C 0.33615 0.86829 0.24167 0.0
C1271 C 0.35768 0.85935 0.25134 0.0
H1272 H 0.31857 0.88699 0.2092 0.0
H1273 H 0.52823 0.80106 0.30221 0.0
H1274 H 0.73346 0.40105 0.68126 0.0
H1275 H 0.69764 0.39427 0.7073 0.0
H1276 H 0.7151 0.45293 0.75995 0.0
H1277 H 0.75179 0.45957 0.73408 0.0
H1278 H 0.70137 0.41709 0.78934 0.0
H1279 H 0.66758 0.45709 0.71562 0.0
H1280 H 0.66028 0.46863 0.66794 0.0
H1281 H 0.63369 0.39894 0.65059 0.0
H1282 H 0.64115 0.38683 0.69805 0.0
H1283 H 0.56851 0.36915 0.79957 0.0
H1284 H 0.59653 0.39911 0.78306 0.0
H1285 H 0.65493 0.35381 0.80597 0.0
H1286 H 0.62728 0.32456 0.82342 0.0
H1287 H 0.62511 0.39822 0.74386 0.0
H1288 H 0.70414 0.38126 0.81956 0.0
H1289 H 0.7097 0.37423 0.86868 0.0
H1290 H 0.64242 0.40673 0.8853 0.0
H1291 H 0.63658 0.41429 0.83632 0.0
C1292 C 0.72972 0.41272 0.6982 0.0
C1293 C 0.74555 0.43088 0.70555 0.0
C1294 C 0.70902 0.40893 0.71299 0.0
C1295 C 0.70336 0.42339 0.73528 0.0
C1296 C 0.71902 0.44168 0.74269 0.0
C1297 C 0.73994 0.44543 0.72789 0.0
C1298 C 0.6819 0.4179 0.75163 0.0
C1299 C 0.68457 0.41325 0.77953 0.0
C1300 C 0.65963 0.41392 0.73912 0.0
C1301 C 0.65498 0.42104 0.71046 0.0
C1302 C 0.66029 0.44417 0.70162 0.0
C1303 C 0.65612 0.45082 0.67462 0.0
C1304 C 0.64653 0.43453 0.65625 0.0
C1305 C 0.64108 0.41155 0.66485 0.0
C1306 C 0.64524 0.4048 0.69183 0.0
C1307 C 0.58735 0.36579 0.80142 0.0
C1308 C 0.59567 0.34449 0.81285 0.0
C1309 C 0.60335 0.38293 0.79199 0.0
C1310 C 0.62793 0.37899 0.79367 0.0
C1311 C 0.63615 0.35774 0.80521 0.0
C1312 C 0.62025 0.34084 0.81497 0.0
C1313 C 0.64512 0.39577 0.78115 0.0
C1314 C 0.64163 0.40262 0.75396 0.0
C1315 C 0.66632 0.40252 0.79459 0.0
C1316 C 0.66989 0.39828 0.82418 0.0
C1317 C 0.6906 0.38708 0.83368 0.0
C1318 C 0.69378 0.38296 0.86151 0.0
C1319 C 0.67641 0.39 0.88009 0.0
C1320 C 0.65584 0.40123 0.87088 0.0
C1321 C 0.65257 0.40541 0.84307 0.0
H1322 H 0.6789 0.38677 0.90163 0.0
H1323 H 0.64332 0.43971 0.63535 0.0
H1324 H 0.12681 0.61563 0.35699 0.0
H1325 H 0.09888 0.64362 0.33665 0.0
H1326 H 0.10513 0.60733 0.25962 0.0
H1327 H 0.1321 0.57868 0.28024 0.0
H1328 H 0.10931 0.67385 0.30086 0.0
H1329 H 0.06073 0.61881 0.21698 0.0
H1330 H 0.04294 0.57917 0.21152 0.0
H1331 H 0.03312 0.57403 0.298 0.0
H1332 H 0.05053 0.61378 0.30397 0.0
H1333 H 0.06561 0.72021 0.16715 0.0
H1334 H 0.07285 0.68657 0.19732 0.0
H1335 H 0.04526 0.72647 0.26514 0.0
H1336 H 0.03772 0.76031 0.23491 0.0
H1337 H 0.04495 0.65897 0.23417 0.0
H1338 H 0.08586 0.71638 0.31738 0.0
H1339 H 0.10352 0.75609 0.32345 0.0
H1340 H 0.12762 0.75543 0.24053 0.0
H1341 H 0.11039 0.71562 0.23412 0.0
C1342 C 0.12169 0.61326 0.3359 0.0
C1343 C 0.13171 0.59504 0.32016 0.0
C1344 C 0.10577 0.6293 0.32427 0.0
C1345 C 0.09978 0.62766 0.29657 0.0
C1346 C 0.10895 0.60876 0.28116 0.0
C1347 C 0.12452 0.59242 0.29294 0.0
C1348 C 0.08657 0.64725 0.28304 0.0
C1349 C 0.09478 0.67053 0.28689 0.0
C1350 C 0.06786 0.64309 0.26436 0.0
C1351 C 0.0571 0.61925 0.26092 0.0
C1352 C 0.05465 0.60929 0.23483 0.0
C1353 C 0.04466 0.58678 0.23164 0.0
C1354 C 0.03696 0.57407 0.2544 0.0
C1355 C 0.03917 0.58387 0.28039 0.0
C1356 C 0.04913 0.60638 0.28369 0.0
C1357 C 0.06074 0.72174 0.18841 0.0
C1358 C 0.05136 0.743 0.19875 0.0
C1359 C 0.06471 0.70242 0.20556 0.0
C1360 C 0.05972 0.70411 0.23344 0.0
C1361 C 0.04927 0.72488 0.24365 0.0
C1362 C 0.04499 0.74417 0.22638 0.0
C1363 C 0.06798 0.68512 0.25197 0.0
C1364 C 0.059 0.66209 0.24884 0.0
C1365 C 0.08584 0.68944 0.27152 0.0
C1366 C 0.09656 0.71321 0.2752 0.0
C1367 C 0.09497 0.72472 0.30048 0.0
C1368 C 0.10491 0.74723 0.30398 0.0
C1369 C 0.1166 0.75831 0.28236 0.0
C1370 C 0.11847 0.74687 0.25723 0.0
C1371 C 0.1086 0.72435 0.25365 0.0
H1372 H 0.12425 0.77574 0.2851 0.0
H1373 H 0.02925 0.55663 0.25189 0.0
H1374 H 0.92979 0.11277 0.79424 0.0
H1375 H 0.90229 0.08638 0.7702 0.0
H1376 H 0.84334 0.11971 0.81109 0.0
H1377 H 0.87049 0.145 0.83592 0.0
H1378 H 0.83283 0.07641 0.80495 0.0
H1379 H 0.86526 0.13736 0.74515 0.0
H1380 H 0.89751 0.15832 0.7212 0.0
H1381 H 0.91796 0.0935 0.68188 0.0
H1382 H 0.88595 0.07212 0.70584 0.0
H1383 H 0.75939 0.0938 0.67473 0.0
H1384 H 0.79447 0.10082 0.70225 0.0
H1385 H 0.789 0.0303 0.73586 0.0
H1386 H 0.75306 0.02341 0.70883 0.0
H1387 H 0.83623 0.08283 0.70434 0.0
H1388 H 0.81131 0.03122 0.801 0.0
H1389 H 0.77574 0.01677 0.82516 0.0
H1390 H 0.73464 0.07357 0.791 0.0
H1391 H 0.77001 0.08848 0.76692 0.0
C1392 C 0.91099 0.1141 0.79845 0.0
C1393 C 0.90234 0.13119 0.81676 0.0
C1394 C 0.89527 0.09908 0.78461 0.0
C1395 C 0.87064 0.10134 0.78838 0.0
C1396 C 0.8622 0.11752 0.80777 0.0
C1397 C 0.87783 0.13213 0.8219 0.0
C1398 C 0.85329 0.08877 0.7707 0.0
C1399 C 0.83376 0.07753 0.78293 0.0
C1400 C 0.85428 0.0903 0.74193 0.0
C1401 C 0.87346 0.10311 0.72752 0.0
C1402 C 0.87674 0.12757 0.73151 0.0
C1403 C 0.89495 0.13952 0.71793 0.0
C1404 C 0.90983 0.12723 0.70011 0.0
C1405 C 0.90647 0.10298 0.69576 0.0
C1406 C 0.8883 0.09094 0.70932 0.0
C1407 C 0.7656 0.07971 0.68791 0.0
C1408 C 0.75333 0.05808 0.68968 0.0
C1409 C 0.78581 0.08371 0.70356 0.0
C1410 C 0.79442 0.06614 0.72123 0.0
C1411 C 0.78254 0.04425 0.72264 0.0
C1412 C 0.76202 0.04033 0.70718 0.0
C1413 C 0.81528 0.07152 0.73866 0.0
C1414 C 0.83558 0.08115 0.72634 0.0
C1415 C 0.81453 0.06941 0.76737 0.0
C1416 C 0.79321 0.06072 0.78189 0.0
C1417 C 0.79467 0.04061 0.79869 0.0
C1418 C 0.77456 0.03235 0.81237 0.0
C1419 C 0.75293 0.04418 0.80952 0.0
C1420 C 0.75138 0.06436 0.79309 0.0
C1421 C 0.77145 0.0727 0.77941 0.0
H1422 H 0.73737 0.03774 0.8201 0.0
H1423 H 0.92392 0.13652 0.68961 0.0
H1424 H 0.48278 0.2091 0.10965 0.0
H1425 H 0.46263 0.22419 0.06865 0.0
H1426 H 0.51969 0.27394 0.05606 0.0
H1427 H 0.53975 0.25908 0.09631 0.0
H1428 H 0.47495 0.29396 0.04698 0.0
H1429 H 0.52043 0.22088 0.0244 0.0
H1430 H 0.52742 0.17784 0.02877 0.0
H1431 H 0.45533 0.16402 0.00549 0.0
H1432 H 0.4479 0.20703 0.00125 0.0
H1433 H 0.53487 0.31188 0.92965 0.0
H1434 H 0.51467 0.304 0.97244 0.0
H1435 H 0.45749 0.27001 0.929 0.0
H1436 H 0.47773 0.27839 0.88564 0.0
H1437 H 0.47864 0.24091 0.96664 0.0
H1438 H 0.44252 0.31536 0.96959 0.0
H1439 H 0.43801 0.35851 0.96368 0.0
H1440 H 0.4925 0.37078 0.02308 0.0
H1441 H 0.49765 0.32773 0.02907 0.0
C1442 C 0.49085 0.22338 0.09819 0.0
C1443 C 0.51298 0.23272 0.10601 0.0
C1444 C 0.4793 0.23201 0.0749 0.0
C1445 C 0.48963 0.25026 0.05945 0.0
C1446 C 0.51128 0.26002 0.06784 0.0
C1447 C 0.52287 0.2513 0.09072 0.0
C1448 C 0.47969 0.25813 0.03306 0.0
C1449 C 0.4753 0.28241 0.02935 0.0
C1450 C 0.47905 0.24281 0.01032 0.0
C1451 C 0.48353 0.21707 0.01287 0.0
C1452 C 0.50605 0.20863 0.02041 0.0
C1453 C 0.51009 0.18427 0.02282 0.0
C1454 C 0.4918 0.16821 0.01751 0.0
C1455 C 0.46945 0.17648 0.00968 0.0
C1456 C 0.46531 0.20084 0.00728 0.0
C1457 C 0.51761 0.30345 0.92916 0.0
C1458 C 0.50786 0.29565 0.90449 0.0
C1459 C 0.50596 0.29908 0.9536 0.0
C1460 C 0.48445 0.28656 0.95393 0.0
C1461 C 0.47394 0.27991 0.92915 0.0
C1462 C 0.48546 0.28474 0.90447 0.0
C1463 C 0.47589 0.27713 0.98031 0.0
C1464 C 0.47678 0.25248 0.98415 0.0
C1465 C 0.47339 0.29217 0.00314 0.0
C1466 C 0.47039 0.31821 -0.00015 0.0
C1467 C 0.45362 0.32724 0.98133 0.0
C1468 C 0.45095 0.3517 0.97796 0.0
C1469 C 0.46493 0.36738 0.99302 0.0
C1470 C 0.48162 0.35861 0.01149 0.0
C1471 C 0.48438 0.33416 0.01494 0.0
H1472 H 0.46285 0.38631 0.99037 0.0
H1473 H 0.49496 0.14935 0.01938 0.0
H1474 H 0.21544 0.48449 0.38386 0.0
H1475 H 0.23306 0.4637 0.42291 0.0
H1476 H 0.19846 0.51263 0.47747 0.0
H1477 H 0.18129 0.53343 0.4388 0.0
H1478 H 0.2643 0.48714 0.45369 0.0
H1479 H 0.19014 0.49076 0.53804 0.0
H1480 H 0.14834 0.47878 0.54266 0.0
H1481 H 0.15662 0.429 0.47729 0.0
H1482 H 0.19859 0.44036 0.47251 0.0
H1483 H 0.28777 0.54999 0.56814 0.0
H1484 H 0.27421 0.52936 0.52764 0.0
H1485 H 0.27109 0.46367 0.57256 0.0
H1486 H 0.28491 0.48447 0.61367 0.0
H1487 H 0.22959 0.47345 0.54512 0.0
H1488 H 0.30964 0.46587 0.52137 0.0
H1489 H 0.35155 0.47757 0.51668 0.0
H1490 H 0.33191 0.53245 0.46043 0.0
H1491 H 0.28986 0.52137 0.46506 0.0
C1492 C 0.21088 0.49014 0.40427 0.0
C1493 C 0.19722 0.51066 0.40843 0.0
C1494 C 0.22099 0.4783 0.42652 0.0
C1495 C 0.21704 0.48655 0.45313 0.0
C1496 C 0.2015 0.50566 0.45723 0.0
C1497 C 0.1918 0.51768 0.43509 0.0
C1498 C 0.23245 0.47907 0.47604 0.0
C1499 C 0.25684 0.48353 0.47362 0.0
C1500 C 0.22287 0.47348 0.50187 0.0
C1501 C 0.19762 0.46642 0.50495 0.0
C1502 C 0.18316 0.47708 0.52481 0.0
C1503 C 0.15939 0.47044 0.52741 0.0
C1504 C 0.14983 0.45314 0.51028 0.0
C1505 C 0.16403 0.44242 0.49052 0.0
C1506 C 0.18781 0.44899 0.48784 0.0
C1507 C 0.2846 0.53108 0.56938 0.0
C1508 C 0.2873 0.51886 0.5941 0.0
C1509 C 0.27702 0.51924 0.54612 0.0
C1510 C 0.2719 0.49491 0.54699 0.0
C1511 C 0.27516 0.48241 0.57144 0.0
C1512 C 0.28309 0.49428 0.59482 0.0
C1513 C 0.26077 0.4838 0.52283 0.0
C1514 C 0.23726 0.47591 0.52508 0.0
C1515 C 0.27118 0.48604 0.49677 0.0
C1516 C 0.29653 0.49268 0.49351 0.0
C1517 C 0.31423 0.48048 0.50805 0.0
C1518 C 0.33803 0.48702 0.50541 0.0
C1519 C 0.34439 0.50572 0.48825 0.0
C1520 C 0.32696 0.51792 0.47366 0.0
C1521 C 0.30314 0.51146 0.47623 0.0
H1522 H 0.36282 0.51077 0.48626 0.0
H1523 H 0.13142 0.44804 0.51232 0.0
H1524 H 0.9678 0.30625 0.04774 0.0
H1525 H 0.98949 0.28463 0.01305 0.0
H1526 H 0.04233 0.26472 0.07242 0.0
H1527 H 0.02031 0.28644 0.10759 0.0
H1528 H 0.0316 0.27957 0.98886 0.0
H1529 H 0.05192 0.20595 0.06212 0.0
H1530 H 0.04234 0.19217 0.10861 0.0
H1531 H 0.97219 0.2211 0.1012 0.0
H1532 H 0.98136 0.23484 0.05463 0.0
H1533 H 0.01951 0.19015 0.89118 0.0
H1534 H 0.04235 0.20585 0.92965 0.0
H1535 H 0.98069 0.19914 0.98112 0.0
H1536 H 0.95822 0.18308 0.94331 0.0
H1537 H 0.01908 0.1947 0.01113 0.0
H1538 H 0.99015 0.25003 0.93914 0.0
H1539 H 0.99039 0.26479 0.89178 0.0
H1540 H 0.06588 0.27424 0.89585 0.0
H1541 H 0.06602 0.25933 0.94318 0.0
C1542 C 0.98445 0.29795 0.05324 0.0
C1543 C 0.99216 0.29762 0.08039 0.0
C1544 C 0.99698 0.2857 0.03334 0.0
C1545 C 0.01735 0.27271 0.04022 0.0
C1546 C 0.02654 0.27447 0.06674 0.0
C1547 C 0.014 0.28694 0.08677 0.0
C1548 C 0.02548 0.25424 0.0209 0.0
C1549 C 0.02979 0.2609 0.99383 0.0
C1550 C 0.02311 0.22987 0.02732 0.0
C1551 C 0.01743 0.22162 0.05516 0.0
C1552 C 0.03448 0.20934 0.07047 0.0
C1553 C 0.02911 0.20154 0.0968 0.0
C1554 C 0.00669 0.20582 0.10788 0.0
C1555 C 0.98956 0.21784 0.09263 0.0
C1556 C 0.99483 0.22563 0.06629 0.0
C1557 C 0.01115 0.19119 0.91098 0.0
C1558 C 0.98691 0.18595 0.91412 0.0
C1559 C 0.02421 0.20023 0.93293 0.0
C1560 C 0.0131 0.20419 0.95812 0.0
C1561 C 0.9897 0.19635 0.9619 0.0
C1562 C 0.97675 0.18733 0.94015 0.0
C1563 C 0.02339 0.22026 0.97892 0.0
C1564 C 0.02273 0.21312 0.00628 0.0
C1565 C 0.02821 0.24432 0.9727 0.0
C1566 C 0.02814 0.25337 0.94444 0.0
C1567 C 0.00678 0.25521 0.92984 0.0
C1568 C 0.00685 0.26358 0.90304 0.0
C1569 C 0.02815 0.27038 0.89079 0.0
C1570 C 0.04941 0.2689 0.90534 0.0
C1571 C 0.04943 0.26048 0.93213 0.0
H1572 H 0.02818 0.27686 0.87004 0.0
H1573 H 0.00258 0.19979 0.12826 0.0
H1574 H 0.29269 0.95161 0.43214 0.0
H1575 H 0.27646 0.97262 0.47101 0.0
H1576 H 0.27203 0.03682 0.4235 0.0
H1577 H 0.28807 0.01558 0.38386 0.0
H1578 H 0.28915 0.01596 0.49984 0.0
H1579 H 0.22967 0.05354 0.43321 0.0
H1580 H 0.20951 0.05103 0.38862 0.0
H1581 H 0.19095 0.97851 0.40472 0.0
H1582 H 0.21116 0.98064 0.44931 0.0
H1583 H 0.21059 0.01317 0.61177 0.0
H1584 H 0.22558 0.03466 0.57179 0.0
H1585 H 0.20554 0.97586 0.52054 0.0
H1586 H 0.19065 0.95457 0.56002 0.0
H1587 H 0.20142 0.01754 0.49315 0.0
H1588 H 0.25993 0.97624 0.55228 0.0
H1589 H 0.28072 0.97108 0.59614 0.0
H1590 H 0.30236 0.04407 0.59431 0.0
H1591 H 0.28147 0.04966 0.55053 0.0
C1592 C 0.28863 0.97028 0.42994 0.0
C1593 C 0.29135 0.98184 0.40481 0.0
C1594 C 0.27949 0.98233 0.45227 0.0
C1595 C 0.27282 0.0062 0.45004 0.0
C1596 C 0.27683 0.01832 0.42551 0.0
C1597 C 0.28611 0.0062 0.40298 0.0
C1598 C 0.25917 0.01666 0.47274 0.0
C1599 C 0.27001 0.01757 0.49841 0.0
C1600 C 0.23424 0.01851 0.47088 0.0
C1601 C 0.22194 0.01723 0.44437 0.0
C1602 C 0.22129 0.03708 0.42715 0.0
C1603 C 0.20989 0.03572 0.40191 0.0
C1604 C 0.19898 0.01461 0.39383 0.0
C1605 C 0.19942 0.99484 0.41099 0.0
C1606 C 0.21083 0.99611 0.43623 0.0
C1607 C 0.20867 0.00525 0.59181 0.0
C1608 C 0.19985 0.98206 0.58897 0.0
C1609 C 0.21726 0.01752 0.56903 0.0
C1610 C 0.21692 0.00674 0.54325 0.0
C1611 C 0.20595 0.98458 0.54019 0.0
C1612 C 0.19761 0.97231 0.56282 0.0
C1613 C 0.23138 0.01582 0.52033 0.0
C1614 C 0.2206 0.01819 0.49471 0.0
C1615 C 0.25641 0.01677 0.52226 0.0
C1616 C 0.26896 0.01343 0.54842 0.0
C1617 C 0.26904 0.99119 0.56135 0.0
C1618 C 0.28083 0.98819 0.58615 0.0
C1619 C 0.29279 0.00726 0.59805 0.0
C1620 C 0.29303 0.02934 0.58511 0.0
C1621 C 0.28122 0.03244 0.56032 0.0
H1622 H 0.30192 0.0049 0.61725 0.0
H1623 H 0.19017 0.01358 0.37428 0.0
H1624 H 0.52208 0.793 0.8916 0.0
H1625 H 0.54388 0.77814 0.93135 0.0
H1626 H 0.48069 0.78517 0.9802 0.0
H1627 H 0.45914 0.80021 0.94104 0.0
H1628 H 0.51891 0.79274 0.01082 0.0
H1629 H 0.4922 0.73364 0.94224 0.0
H1630 H 0.49355 0.71644 0.89605 0.0
H1631 H 0.56891 0.70733 0.90308 0.0
H1632 H 0.56796 0.7247 0.94924 0.0
H1633 H 0.47091 0.68511 0.06041 0.0
H1634 H 0.49199 0.70256 0.0222 0.0
H1635 H 0.5466 0.7276 0.07661 0.0
H1636 H 0.52532 0.71007 0.11521 0.0
H1637 H 0.53398 0.70712 0.99545 0.0
H1638 H 0.5526 0.78564 0.06217 0.0
H1639 H 0.54327 0.80125 0.10794 0.0
H1640 H 0.47412 0.76953 0.10406 0.0
H1641 H 0.48299 0.75403 0.05817 0.0
C1642 C 0.51312 0.79213 0.91107 0.0
C1643 C 0.48878 0.79733 0.91314 0.0
C1644 C 0.52559 0.78358 0.93373 0.0
C1645 C 0.51382 0.78017 0.95863 0.0
C1646 C 0.49019 0.78762 0.96123 0.0
C1647 C 0.47779 0.79606 0.93872 0.0
C1648 C 0.52406 0.76546 0.98075 0.0
C1649 C 0.52311 0.7742 0.00746 0.0
C1650 C 0.52951 0.74123 0.97646 0.0
C1651 C 0.53006 0.73066 0.94893 0.0
C1652 C 0.50905 0.72803 0.93384 0.0
C1653 C 0.50974 0.71827 0.9077 0.0
C1654 C 0.53132 0.71086 0.89661 0.0
C1655 C 0.55223 0.71313 0.91167 0.0
C1656 C 0.55163 0.72294 0.9378 0.0
C1657 C 0.48791 0.69346 0.0641 0.0
C1658 C 0.49623 0.69672 0.09075 0.0
C1659 C 0.50007 0.70332 0.0422 0.0
C1660 C 0.52061 0.71683 0.04664 0.0
C1661 C 0.53066 0.71741 0.07281 0.0
C1662 C 0.51851 0.70734 0.09483 0.0
C1663 C 0.52748 0.7342 0.0254 0.0
C1664 C 0.53161 0.72598 -0.00112 0.0
C1665 C 0.52424 0.75881 0.0298 0.0
C1666 C 0.51856 0.76852 0.057 0.0
C1667 C 0.5354 0.7821 0.07111 0.0
C1668 C 0.53019 0.79091 0.09703 0.0
C1669 C 0.50814 0.78633 0.10893 0.0
C1670 C 0.4912 0.77305 0.09485 0.0
C1671 C 0.49629 0.76428 0.06889 0.0
H1672 H 0.50417 0.7931 0.12903 0.0
H1673 H 0.53182 0.7033 0.87637 0.0
H1674 H 0.82233 0.45413 0.5663 0.0
H1675 H 0.8121 0.47588 0.5251 0.0
H1676 H 0.77765 0.52969 0.57336 0.0
H1677 H 0.78846 0.50801 0.61507 0.0
H1678 H 0.7481 0.5082 0.53529 0.0
H1679 H 0.82022 0.54888 0.53307 0.0
H1680 H 0.86317 0.5556 0.53808 0.0
H1681 H 0.87706 0.50554 0.47426 0.0
H1682 H 0.83425 0.4982 0.46912 0.0
H1683 H 0.71193 0.51021 0.39432 0.0
H1684 H 0.72714 0.52887 0.43608 0.0
H1685 H 0.78198 0.47569 0.44091 0.0
H1686 H 0.76713 0.4572 0.39974 0.0
H1687 H 0.79881 0.52011 0.45398 0.0
H1688 H 0.72926 0.46885 0.47486 0.0
H1689 H 0.68666 0.45936 0.47123 0.0
H1690 H 0.66894 0.52878 0.50077 0.0
H1691 H 0.7115 0.5387 0.50432 0.0
C1692 C 0.81322 0.47097 0.56818 0.0
C1693 C 0.80606 0.47937 0.59373 0.0
C1694 C 0.80752 0.4835 0.54466 0.0
C1695 C 0.79425 0.50451 0.54619 0.0
C1696 C 0.78811 0.51364 0.57181 0.0
C1697 C 0.7943 0.50129 0.59554 0.0
C1698 C 0.78371 0.51398 0.52083 0.0
C1699 C 0.75908 0.51182 0.51763 0.0
C1700 C 0.79802 0.51875 0.49786 0.0
C1701 C 0.82391 0.52305 0.50066 0.0
C1702 C 0.83242 0.53921 0.52017 0.0
C1703 C 0.85676 0.54313 0.52303 0.0
C1704 C 0.87283 0.53102 0.50647 0.0
C1705 C 0.86459 0.51496 0.48702 0.0
C1706 C 0.84026 0.51096 0.48407 0.0
C1707 C 0.72736 0.5027 0.40421 0.0
C1708 C 0.73815 0.48206 0.39393 0.0
C1709 C 0.73605 0.51341 0.42796 0.0
C1710 C 0.75572 0.50368 0.44152 0.0
C1711 C 0.76692 0.48364 0.43065 0.0
C1712 C 0.75823 0.47291 0.40722 0.0
C1713 C 0.76367 0.51232 0.46847 0.0
C1714 C 0.78774 0.51793 0.47185 0.0
C1715 C 0.74891 0.51058 0.49164 0.0
C1716 C 0.72345 0.5046 0.48951 0.0
C1717 C 0.71625 0.48211 0.48041 0.0
C1718 C 0.69214 0.47665 0.47839 0.0
C1719 C 0.6751 0.49348 0.48567 0.0
C1720 C 0.68215 0.51578 0.49506 0.0
C1721 C 0.70625 0.52134 0.49708 0.0
H1722 H 0.65644 0.48923 0.48411 0.0
H1723 H 0.89167 0.53408 0.50873 0.0
H1724 H 0.97391 0.79342 0.10797 0.0
H1725 H 0.94972 0.77803 0.07035 0.0
H1726 H 0.00878 0.7876 0.01556 0.0
H1727 H 0.03264 0.80307 0.05262 0.0
H1728 H 0.96772 0.7929 0.98854 0.0
H1729 H 0.00318 0.73532 0.05539 0.0
H1730 H 0.00539 0.719 0.10201 0.0
H1731 H 0.93006 0.70783 0.1019 0.0
H1732 H 0.92747 0.72427 0.05534 0.0
H1733 H 0.02777 0.68985 0.94436 0.0
H1734 H 0.00445 0.70703 0.98086 0.0
H1735 H 0.94831 0.72325 0.92407 0.0
H1736 H 0.97195 0.70607 0.88706 0.0
H1737 H 0.96221 0.70652 0.00643 0.0
H1738 H 0.93237 0.77921 0.93813 0.0
H1739 H 0.93831 0.79518 0.89176 0.0
H1740 H 0.0118 0.77538 0.89482 0.0
H1741 H 0.00626 0.75951 0.94127 0.0
C1742 C 0.98137 0.79302 0.08766 0.0
C1743 C 0.0053 0.79895 0.08325 0.0
C1744 C 0.96755 0.7842 0.06622 0.0
C1745 C 0.97755 0.7813 0.04024 0.0
C1746 C 0.00061 0.78965 0.03539 0.0
C1747 C 0.01437 0.79832 0.05668 0.0
C1748 C 0.96664 0.76576 0.01937 0.0
C1749 C 0.96548 0.7741 0.99248 0.0
C1750 C 0.96354 0.74123 0.02442 0.0
C1751 C 0.9651 0.73116 0.05214 0.0
C1752 C 0.98712 0.72939 0.06539 0.0
C1753 C 0.98843 0.72016 0.09177 0.0
C1754 C 0.96787 0.71243 0.10493 0.0
C1755 C 0.94596 0.71387 0.0917 0.0
C1756 C 0.94455 0.72315 0.06534 0.0
C1757 C 0.01014 0.69636 0.93976 0.0
C1758 C 0.00188 0.69711 0.91284 0.0
C1759 C 0.99668 0.70602 0.96071 0.0
C1760 C 0.97477 0.71681 0.95514 0.0
C1761 C 0.96525 0.71519 0.92876 0.0
C1762 C 0.97876 0.70533 0.90767 0.0
C1763 C 0.96522 0.73354 0.97564 0.0
C1764 C 0.96238 0.72545 0.00246 0.0
C1765 C 0.96527 0.75826 0.97054 0.0
C1766 C 0.96884 0.76804 0.94292 0.0
C1767 C 0.94977 0.77834 0.92887 0.0
C1768 C 0.95307 0.78736 0.90261 0.0
C1769 C 0.9754 0.78624 0.89032 0.0
C1770 C 0.99451 0.77621 0.90433 0.0
C1771 C 0.99131 0.76723 0.93061 0.0
H1772 H 0.97791 0.79318 0.86998 0.0
H1773 H 0.96892 0.70529 0.12535 0.0
H1774 H 0.70942 0.9774 0.59634 0.0
H1775 H 0.72649 0.95643 0.5572 0.0
H1776 H 0.71227 0.01725 0.50637 0.0
H1777 H 0.69513 0.03795 0.54494 0.0
H1778 H 0.70864 0.97725 0.47718 0.0
H1779 H 0.76492 0.01272 0.54417 0.0
H1780 H 0.78251 0.01439 0.59018 0.0
H1781 H 0.79991 0.94037 0.58541 0.0
H1782 H 0.78221 0.9383 0.53944 0.0
H1783 H 0.81023 0.03855 0.42795 0.0
H1784 H 0.7945 0.01558 0.46564 0.0
H1785 H 0.77637 0.9588 0.41058 0.0
H1786 H 0.792 0.98208 0.37238 0.0
H1787 H 0.79559 0.97377 0.49199 0.0
H1788 H 0.72043 0.94342 0.42656 0.0
H1789 H 0.70321 0.94949 0.3808 0.0
H1790 H 0.72411 0.02269 0.38274 0.0
H1791 H 0.74122 0.01704 0.42859 0.0
C1792 C 0.70924 0.98593 0.57658 0.0
C1793 C 0.70136 0.00948 0.57375 0.0
C1794 C 0.71903 0.97394 0.55427 0.0
C1795 C 0.72096 0.98539 0.52896 0.0
C1796 C 0.71097 0.008 0.52567 0.0
C1797 C 0.70134 0.01994 0.54783 0.0
C1798 C 0.73659 0.97632 0.50705 0.0
C1799 C 0.7276 0.97555 0.48043 0.0
C1800 C 0.76133 0.97402 0.51121 0.0
C1801 C 0.77206 0.97529 0.53864 0.0
C1802 C 0.77244 0.99681 0.55303 0.0
C1803 C 0.78241 0.99783 0.57907 0.0
C1804 C 0.79226 0.97748 0.59074 0.0
C1805 C 0.79222 0.9561 0.57637 0.0
C1806 C 0.78222 0.95499 0.55035 0.0
C1807 C 0.80363 0.02085 0.42395 0.0
C1808 C 0.8018 0.01234 0.3972 0.0
C1809 C 0.7948 0.0076 0.44558 0.0
C1810 C 0.78382 0.98565 0.44087 0.0
C1811 C 0.78455 0.97581 0.4146 0.0
C1812 C 0.79353 0.98912 0.39282 0.0
C1813 C 0.7677 0.97635 0.46218 0.0
C1814 C 0.77656 0.97358 0.48869 0.0
C1815 C 0.74285 0.97606 0.45795 0.0
C1816 C 0.73226 0.97973 0.43073 0.0
C1817 C 0.72127 0.96079 0.41719 0.0
C1818 C 0.71154 0.96416 0.39127 0.0
C1819 C 0.71263 0.98644 0.37884 0.0
C1820 C 0.72332 0.00544 0.39236 0.0
C1821 C 0.733 0.00217 0.4183 0.0
H1822 H 0.70514 0.989 0.35876 0.0
H1823 H 0.79998 0.97829 0.6109 0.0
loop_
_geom_bond_atom_site_label_1
_geom_bond_atom_site_label_2
_geom_bond_distance
_geom_bond_site_symmetry_2
_ccdc_geom_bond_type
Zn0 O3 2.031 . S
Zn0 O5 2.049 . S
Zn0 O10 2.067 . S
Zn1 O2 1.962 . S
Zn1 O4 1.986 . S
Zn1 O6 1.996 . S
Zn1 O9 1.943 . S
O2 Zn1 1.962 . S
O2 C7 1.254 . S
O3 Zn0 2.031 . S
O3 C7 1.269 . S
O4 Zn1 1.986 . S
O4 C11 1.262 . S
O5 Zn0 2.049 . S
O5 C13 1.260 . S
O6 Zn1 1.996 . S
O6 C13 1.257 . S
C7 O2 1.254 . S
C7 O3 1.269 . S
C8 O9 1.249 . S
C8 O10 1.270 . S
O9 Zn1 1.943 . S
O9 C8 1.249 . S
O10 Zn0 2.067 . S
O10 C8 1.270 . S
C11 O4 1.262 . S
C11 O12 1.232 . S
O12 C11 1.232 . S
C13 O5 1.260 . S
C13 O6 1.257 . S
Zn14 O17 2.031 . S
Zn14 O19 2.049 . S
Zn14 O24 2.067 . S
Zn15 O16 1.962 . S
Zn15 O18 1.986 . S
Zn15 O20 1.996 . S
Zn15 O23 1.943 . S
O16 Zn15 1.962 . S
O16 C21 1.254 . S
O17 Zn14 2.031 . S
O17 C21 1.269 . S
O18 Zn15 1.986 . S
O18 C25 1.262 . S
O19 Zn14 2.049 . S
O19 C27 1.260 . S
O20 Zn15 1.996 . S
O20 C27 1.257 . S
C21 O16 1.254 . S
C21 O17 1.269 . S
C22 O23 1.249 . S
C22 O24 1.270 . S
O23 Zn15 1.943 . S
O23 C22 1.249 . S
O24 Zn14 2.067 . S
O24 C22 1.270 . S
C25 O18 1.262 . S
C25 O26 1.232 . S
O26 C25 1.232 . S
C27 O19 1.260 . S
C27 O20 1.257 . S
Zn28 O31 2.031 . S
Zn28 O33 2.049 . S
Zn28 O38 2.067 . S
Zn29 O30 1.962 . S
Zn29 O32 1.986 . S
Zn29 O34 1.996 . S
Zn29 O37 1.943 . S
O30 Zn29 1.962 . S
O30 C35 1.254 . S
O31 Zn28 2.031 . S
O31 C35 1.269 . S
O32 Zn29 1.986 . S
O32 C39 1.262 1_655 S
O33 Zn28 2.049 . S
O33 C41 1.260 . S
O34 Zn29 1.996 . S
O34 C41 1.257 . S
C35 O30 1.254 . S
C35 O31 1.269 . S
C36 O37 1.249 . S
C36 O38 1.270 . S
O37 Zn29 1.943 . S
O37 C36 1.249 . S
O38 Zn28 2.067 . S
O38 C36 1.270 . S
C39 O32 1.262 1_455 S
C39 O40 1.232 . S
O40 C39 1.232 . S
C41 O33 1.260 . S
C41 O34 1.257 . S
Zn42 O45 2.031 . S
Zn42 O47 2.049 . S
Zn42 O52 2.067 . S
Zn43 O44 1.962 . S
Zn43 O46 1.986 . S
Zn43 O48 1.996 . S
Zn43 O51 1.943 . S
O44 Zn43 1.962 . S
O44 C49 1.254 . S
O45 Zn42 2.031 . S
O45 C49 1.269 . S
O46 Zn43 1.986 . S
O46 C53 1.262 1_565 S
O47 Zn42 2.049 . S
O47 C55 1.260 . S
O48 Zn43 1.996 . S
O48 C55 1.257 . S
C49 O44 1.254 . S
C49 O45 1.269 . S
C50 O51 1.249 . S
C50 O52 1.270 . S
O51 Zn43 1.943 . S
O51 C50 1.249 . S
O52 Zn42 2.067 . S
O52 C50 1.270 . S
C53 O46 1.262 1_545 S
C53 O54 1.232 . S
O54 C53 1.232 . S
C55 O47 1.260 . S
C55 O48 1.257 . S
Zn56 O59 2.031 . S
Zn56 O61 2.049 . S
Zn56 O66 2.067 . S
Zn57 O58 1.962 . S
Zn57 O60 1.986 . S
Zn57 O62 1.996 . S
Zn57 O65 1.943 . S
O58 Zn57 1.962 . S
O58 C63 1.254 . S
O59 Zn56 2.031 . S
O59 C63 1.269 . S
O60 Zn57 1.986 . S
O60 C67 1.262 . S
O61 Zn56 2.049 . S
O61 C69 1.260 . S
O62 Zn57 1.996 . S
O62 C69 1.257 . S
C63 O58 1.254 . S
C63 O59 1.269 . S
C64 O65 1.249 . S
C64 O66 1.270 . S
O65 Zn57 1.943 . S
O65 C64 1.249 . S
O66 Zn56 2.067 . S
O66 C64 1.270 . S
C67 O60 1.262 . S
C67 O68 1.232 . S
O68 C67 1.232 . S
C69 O61 1.260 . S
C69 O62 1.257 . S
Zn70 O73 2.031 . S
Zn70 O75 2.049 . S
Zn70 O80 2.067 . S
Zn71 O72 1.962 . S
Zn71 O74 1.986 . S
Zn71 O76 1.996 . S
Zn71 O79 1.943 . S
O72 Zn71 1.962 . S
O72 C77 1.254 . S
O73 Zn70 2.031 . S
O73 C77 1.269 . S
O74 Zn71 1.986 . S
O74 C81 1.262 . S
O75 Zn70 2.049 . S
O75 C83 1.260 . S
O76 Zn71 1.996 . S
O76 C83 1.257 . S
C77 O72 1.254 . S
C77 O73 1.269 . S
C78 O79 1.249 . S
C78 O80 1.270 . S
O79 Zn71 1.943 . S
O79 C78 1.249 . S
O80 Zn70 2.067 . S
O80 C78 1.270 . S
C81 O74 1.262 . S
C81 O82 1.232 . S
O82 C81 1.232 . S
C83 O75 1.260 . S
C83 O76 1.257 . S
Zn84 O87 2.031 . S
Zn84 O89 2.049 . S
Zn84 O94 2.067 . S
Zn85 O86 1.962 . S
Zn85 O88 1.986 . S
Zn85 O90 1.996 . S
Zn85 O93 1.943 . S
O86 Zn85 1.962 . S
O86 C91 1.254 . S
O87 Zn84 2.031 . S
O87 C91 1.269 . S
O88 Zn85 1.986 . S
O88 C95 1.262 1_655 S
O89 Zn84 2.049 . S
O89 C97 1.260 . S
O90 Zn85 1.996 . S
O90 C97 1.257 . S
C91 O86 1.254 . S
C91 O87 1.269 . S
C92 O93 1.249 . S
C92 O94 1.270 . S
O93 Zn85 1.943 . S
O93 C92 1.249 . S
O94 Zn84 2.067 . S
O94 C92 1.270 . S
C95 O88 1.262 1_455 S
C95 O96 1.232 . S
O96 C95 1.232 . S
C97 O89 1.260 . S
C97 O90 1.257 . S
Zn98 O101 2.031 . S
Zn98 O103 2.049 . S
Zn98 O108 2.067 . S
Zn99 O100 1.962 . S
Zn99 O102 1.986 . S
Zn99 O104 1.996 . S
Zn99 O107 1.943 . S
O100 Zn99 1.962 . S
O100 C105 1.254 . S
O101 Zn98 2.031 . S
O101 C105 1.269 . S
O102 Zn99 1.986 . S
O102 C109 1.262 1_565 S
O103 Zn98 2.049 . S
O103 C111 1.260 . S
O104 Zn99 1.996 . S
O104 C111 1.257 . S
C105 O100 1.254 . S
C105 O101 1.269 . S
C106 O107 1.249 . S
C106 O108 1.270 . S
O107 Zn99 1.943 . S
O107 C106 1.249 . S
O108 Zn98 2.067 . S
O108 C106 1.270 . S
C109 O102 1.262 1_545 S
C109 O110 1.232 . S
O110 C109 1.232 . S
C111 O103 1.260 . S
C111 O104 1.257 . S
Zn112 O115 2.031 . S
Zn112 O117 2.049 . S
Zn112 O122 2.067 . S
Zn113 O114 1.962 . S
Zn113 O116 1.986 . S
Zn113 O118 1.996 . S
Zn113 O121 1.943 . S
O114 Zn113 1.962 . S
O114 C119 1.254 . S
O115 Zn112 2.031 . S
O115 C119 1.269 . S
O116 Zn113 1.986 . S
O116 C123 1.262 . S
O117 Zn112 2.049 . S
O117 C125 1.260 . S
O118 Zn113 1.996 . S
O118 C125 1.257 . S
C119 O114 1.254 . S
C119 O115 1.269 . S
C120 O121 1.249 . S
C120 O122 1.270 . S
O121 Zn113 1.943 . S
O121 C120 1.249 . S
O122 Zn112 2.067 . S
O122 C120 1.270 . S
C123 O116 1.262 . S
C123 O124 1.232 . S
O124 C123 1.232 . S
C125 O117 1.260 . S
C125 O118 1.257 . S
Zn126 O129 2.031 . S
Zn126 O131 2.049 . S
Zn126 O136 2.067 . S
Zn127 O128 1.962 . S
Zn127 O130 1.986 . S
Zn127 O132 1.996 . S
Zn127 O135 1.943 . S
O128 Zn127 1.962 . S
O128 C133 1.254 . S
O129 Zn126 2.031 . S
O129 C133 1.269 . S
O130 Zn127 1.986 . S
O130 C137 1.262 . S
O131 Zn126 2.049 . S
O131 C139 1.260 . S
O132 Zn127 1.996 . S
O132 C139 1.257 . S
C133 O128 1.254 . S
C133 O129 1.269 . S
C134 O135 1.249 . S
C134 O136 1.270 . S
O135 Zn127 1.943 . S
O135 C134 1.249 . S
O136 Zn126 2.067 . S
O136 C134 1.270 . S
C137 O130 1.262 . S
C137 O138 1.232 . S
O138 C137 1.232 . S
C139 O131 1.260 . S
C139 O132 1.257 . S
Zn140 O143 2.031 . S
Zn140 O145 2.049 . S
Zn140 O150 2.067 . S
Zn141 O142 1.962 . S
Zn141 O144 1.986 . S
Zn141 O146 1.996 . S
Zn141 O149 1.943 . S
O142 Zn141 1.962 . S
O142 C147 1.254 . S
O143 Zn140 2.031 . S
O143 C147 1.269 . S
O144 Zn141 1.986 . S
O144 C151 1.262 1_455 S
O145 Zn140 2.049 . S
O145 C153 1.260 . S
O146 Zn141 1.996 . S
O146 C153 1.257 . S
C147 O142 1.254 . S
C147 O143 1.269 . S
C148 O149 1.249 . S
C148 O150 1.270 . S
O149 Zn141 1.943 . S
O149 C148 1.249 . S
O150 Zn140 2.067 . S
O150 C148 1.270 . S
C151 O144 1.262 1_655 S
C151 O152 1.232 . S
O152 C151 1.232 . S
C153 O145 1.260 . S
C153 O146 1.257 . S
Zn154 O157 2.031 . S
Zn154 O159 2.049 . S
Zn154 O164 2.067 . S
Zn155 O156 1.962 . S
Zn155 O158 1.986 . S
Zn155 O160 1.996 . S
Zn155 O163 1.943 . S
O156 Zn155 1.962 . S
O156 C161 1.254 . S
O157 Zn154 2.031 . S
O157 C161 1.269 . S
O158 Zn155 1.986 . S
O158 C165 1.262 1_545 S
O159 Zn154 2.049 . S
O159 C167 1.260 . S
O160 Zn155 1.996 . S
O160 C167 1.257 . S
C161 O156 1.254 . S
C161 O157 1.269 . S
C162 O163 1.249 . S
C162 O164 1.270 . S
O163 Zn155 1.943 . S
O163 C162 1.249 . S
O164 Zn154 2.067 . S
O164 C162 1.270 . S
C165 O158 1.262 1_565 S
C165 O166 1.232 . S
O166 C165 1.232 . S
C167 O159 1.260 . S
C167 O160 1.257 . S
Zn168 O171 2.031 . S
Zn168 O173 2.049 . S
Zn168 O178 2.067 . S
Zn169 O170 1.962 . S
Zn169 O172 1.986 . S
Zn169 O174 1.996 . S
Zn169 O177 1.943 . S
O170 Zn169 1.962 . S
O170 C175 1.254 . S
O171 Zn168 2.031 . S
O171 C175 1.269 . S
O172 Zn169 1.986 . S
O172 C179 1.262 . S
O173 Zn168 2.049 . S
O173 C181 1.260 . S
O174 Zn169 1.996 . S
O174 C181 1.257 . S
C175 O170 1.254 . S
C175 O171 1.269 . S
C176 O177 1.249 . S
C176 O178 1.270 . S
O177 Zn169 1.943 . S
O177 C176 1.249 . S
O178 Zn168 2.067 . S
O178 C176 1.270 . S
C179 O172 1.262 . S
C179 O180 1.232 . S
O180 C179 1.232 . S
C181 O173 1.260 . S
C181 O174 1.257 . S
Zn182 O185 2.031 . S
Zn182 O187 2.049 . S
Zn182 O192 2.067 . S
Zn183 O184 1.962 . S
Zn183 O186 1.986 . S
Zn183 O188 1.996 . S
Zn183 O191 1.943 . S
O184 Zn183 1.962 . S
O184 C189 1.254 . S
O185 Zn182 2.031 . S
O185 C189 1.269 . S
O186 Zn183 1.986 . S
O186 C193 1.262 . S
O187 Zn182 2.049 . S
O187 C195 1.260 . S
O188 Zn183 1.996 . S
O188 C195 1.257 . S
C189 O184 1.254 . S
C189 O185 1.269 . S
C190 O191 1.249 . S
C190 O192 1.270 . S
O191 Zn183 1.943 . S
O191 C190 1.249 . S
O192 Zn182 2.067 . S
O192 C190 1.270 . S
C193 O186 1.262 . S
C193 O194 1.232 . S
O194 C193 1.232 . S
C195 O187 1.260 . S
C195 O188 1.257 . S
Zn196 O199 2.031 . S
Zn196 O201 2.049 . S
Zn196 O206 2.067 . S
Zn197 O198 1.962 . S
Zn197 O200 1.986 . S
Zn197 O202 1.996 . S
Zn197 O205 1.943 . S
O198 Zn197 1.962 . S
O198 C203 1.254 . S
O199 Zn196 2.031 . S
O199 C203 1.269 . S
O200 Zn197 1.986 . S
O200 C207 1.262 1_455 S
O201 Zn196 2.049 . S
O201 C209 1.260 . S
O202 Zn197 1.996 . S
O202 C209 1.257 . S
C203 O198 1.254 . S
C203 O199 1.269 . S
C204 O205 1.249 . S
C204 O206 1.270 . S
O205 Zn197 1.943 . S
O205 C204 1.249 . S
O206 Zn196 2.067 . S
O206 C204 1.270 . S
C207 O200 1.262 1_655 S
C207 O208 1.232 . S
O208 C207 1.232 . S
C209 O201 1.260 . S
C209 O202 1.257 . S
Zn210 O213 2.031 . S
Zn210 O215 2.049 . S
Zn210 O220 2.067 . S
Zn211 O212 1.962 . S
Zn211 O214 1.986 . S
Zn211 O216 1.996 . S
Zn211 O219 1.943 . S
O212 Zn211 1.962 . S
O212 C217 1.254 . S
O213 Zn210 2.031 . S
O213 C217 1.269 . S
O214 Zn211 1.986 . S
O214 C221 1.262 1_545 S
O215 Zn210 2.049 . S
O215 C223 1.260 . S
O216 Zn211 1.996 . S
O216 C223 1.257 . S
C217 O212 1.254 . S
C217 O213 1.269 . S
C218 O219 1.249 . S
C218 O220 1.270 . S
O219 Zn211 1.943 . S
O219 C218 1.249 . S
O220 Zn210 2.067 . S
O220 C218 1.270 . S
C221 O214 1.262 1_565 S
C221 O222 1.232 . S
O222 C221 1.232 . S
C223 O215 1.260 . S
C223 O216 1.257 . S
H224 C242 0.951 . S
H225 C244 0.951 . S
H226 C246 0.950 . S
H227 C247 0.950 . S
H228 C249 0.950 . S
H229 C252 0.950 . S
H230 C253 0.950 . S
H231 C255 0.950 . S
H232 C256 0.950 . S
H233 C257 0.951 . S
H234 C259 0.951 . S
H235 C261 0.950 . S
H236 C262 0.950 . S
H237 C264 0.950 . S
H238 C267 0.950 . S
H239 C268 0.950 1_565 S
H240 C270 0.966 . S
H241 C271 0.950 . S
C242 H224 0.951 . S
C242 C243 1.366 . S
C242 C244 1.388 . S
C243 C242 1.366 . S
C243 C247 1.385 . S
C244 H225 0.951 . S
C244 C242 1.388 . S
C244 C245 1.366 . S
C245 C244 1.366 . S
C245 C246 1.414 . S
C245 C248 1.499 . S
C246 H226 0.950 . S
C246 C245 1.414 . S
C246 C247 1.374 . S
C247 H227 0.950 . S
C247 C243 1.385 . S
C247 C246 1.374 . S
C248 C245 1.499 . S
C248 C249 1.373 . S
C248 C250 1.389 . S
C249 H228 0.950 . S
C249 C248 1.373 . S
C249 C265 1.377 . S
C250 C248 1.389 . S
C250 C251 1.524 . S
C250 C264 1.377 . S
C251 C250 1.524 . S
C251 C252 1.397 . S
C251 C256 1.363 . S
C252 H229 0.950 . S
C252 C251 1.397 . S
C252 C253 1.334 . S
C253 H230 0.950 . S
C253 C252 1.334 . S
C253 C254 1.287 . S
C254 C253 1.287 . S
C254 C255 1.524 . S
C254 H273 0.913 . S
C255 H231 0.950 . S
C255 C254 1.524 . S
C255 C256 1.415 . S
C256 H232 0.950 . S
C256 C251 1.363 . S
C256 C255 1.415 . S
C257 H233 0.951 . S
C257 C258 1.366 . S
C257 C259 1.388 . S
C258 C257 1.366 . S
C258 C262 1.385 . S
C259 H234 0.951 . S
C259 C257 1.388 . S
C259 C260 1.366 . S
C260 C259 1.366 . S
C260 C261 1.414 . S
C260 C263 1.499 . S
C261 H235 0.950 . S
C261 C260 1.414 . S
C261 C262 1.374 . S
C262 H236 0.950 . S
C262 C258 1.385 . S
C262 C261 1.374 . S
C263 C260 1.499 . S
C263 C264 1.373 . S
C263 C265 1.389 . S
C264 H237 0.950 . S
C264 C250 1.377 . S
C264 C263 1.373 . S
C265 C249 1.377 . S
C265 C263 1.389 . S
C265 C266 1.524 . S
C266 C265 1.524 . S
C266 C267 1.397 . S
C266 C271 1.363 . S
C267 H238 0.950 . S
C267 C266 1.397 . S
C267 C268 1.334 . S
C268 H239 0.950 1_545 S
C268 C267 1.334 . S
C268 C269 1.287 1_545 S
C269 C268 1.287 1_565 S
C269 C270 1.524 1_565 S
C269 H272 0.999 . S
C270 H240 0.966 . S
C270 C269 1.524 1_545 S
C270 C271 1.415 . S
C271 H241 0.950 . S
C271 C266 1.363 . S
C271 C270 1.415 . S
H272 C269 0.999 . S
H273 C254 0.913 . S
H274 C292 0.951 . S
H275 C294 0.951 . S
H276 C296 0.950 . S
H277 C297 0.950 . S
H278 C299 0.950 . S
H279 C302 0.950 . S
H280 C303 0.950 . S
H281 C305 0.950 . S
H282 C306 0.950 . S
H283 C307 0.951 . S
H284 C309 0.951 . S
H285 C311 0.950 . S
H286 C312 0.950 . S
H287 C314 0.950 . S
H288 C317 0.950 . S
H289 C318 0.950 . S
H290 C320 0.950 . S
H291 C321 0.950 . S
C292 H274 0.951 . S
C292 C293 1.366 . S
C292 C294 1.388 . S
C293 C292 1.366 . S
C293 C297 1.385 . S
C294 H275 0.951 . S
C294 C292 1.388 . S
C294 C295 1.366 . S
C295 C294 1.366 . S
C295 C296 1.414 . S
C295 C298 1.499 . S
C296 H276 0.950 . S
C296 C295 1.414 . S
C296 C297 1.374 . S
C297 H277 0.950 . S
C297 C293 1.385 . S
C297 C296 1.374 . S
C298 C295 1.499 . S
C298 C299 1.373 . S
C298 C300 1.389 . S
C299 H278 0.950 . S
C299 C298 1.373 . S
C299 C315 1.377 . S
C300 C298 1.389 . S
C300 C301 1.524 . S
C300 C314 1.377 . S
C301 C300 1.524 . S
C301 C302 1.397 . S
C301 C306 1.363 . S
C302 H279 0.950 . S
C302 C301 1.397 . S
C302 C303 1.334 . S
C303 H280 0.950 . S
C303 C302 1.334 . S
C303 C304 1.287 . S
C304 C303 1.287 . S
C304 C305 1.524 . S
C304 H323 0.913 . S
C305 H281 0.950 . S
C305 C304 1.524 . S
C305 C306 1.415 . S
C306 H282 0.950 . S
C306 C301 1.363 . S
C306 C305 1.415 . S
C307 H283 0.951 . S
C307 C308 1.366 . S
C307 C309 1.388 . S
C308 C307 1.366 . S
C308 C312 1.385 . S
C309 H284 0.951 . S
C309 C307 1.388 . S
C309 C310 1.366 . S
C310 C309 1.366 . S
C310 C311 1.414 . S
C310 C313 1.499 . S
C311 H285 0.950 . S
C311 C310 1.414 . S
C311 C312 1.374 . S
C312 H286 0.950 . S
C312 C308 1.385 . S
C312 C311 1.374 . S
C313 C310 1.499 . S
C313 C314 1.373 . S
C313 C315 1.389 . S
C314 H287 0.950 . S
C314 C300 1.377 . S
C314 C313 1.373 . S
C315 C299 1.377 . S
C315 C313 1.389 . S
C315 C316 1.524 . S
C316 C315 1.524 . S
C316 C317 1.397 . S
C316 C321 1.363 . S
C317 H288 0.950 . S
C317 C316 1.397 . S
C317 C318 1.334 . S
C318 H289 0.950 . S
C318 C317 1.334 . S
C318 C319 1.287 . S
C319 C318 1.287 . S
C319 C320 1.524 . S
C319 H322 0.999 . S
C320 H290 0.950 . S
C320 C319 1.524 . S
C320 C321 1.415 . S
C321 H291 0.950 . S
C321 C316 1.363 . S
C321 C320 1.415 . S
H322 C319 0.999 . S
H323 C304 0.913 . S
H324 C342 0.951 1_655 S
H325 C344 0.951 . S
H326 C346 0.950 . S
H327 C347 0.950 . S
H328 C349 0.950 . S
H329 C352 0.950 . S
H330 C353 0.950 . S
H331 C355 0.950 . S
H332 C356 0.950 . S
H333 C357 0.951 . S
H334 C359 0.951 . S
H335 C361 0.950 . S
H336 C362 0.950 . S
H337 C364 0.950 . S
H338 C367 0.950 . S
H339 C368 0.950 . S
H340 C370 0.950 . S
H341 C371 0.950 . S
C342 H324 0.951 1_455 S
C342 C343 1.366 . S
C342 C344 1.388 . S
C343 C342 1.366 . S
C343 C347 1.385 . S
C344 H325 0.951 . S
C344 C342 1.388 . S
C344 C345 1.366 . S
C345 C344 1.366 . S
C345 C346 1.414 . S
C345 C348 1.499 . S
C346 H326 0.950 . S
C346 C345 1.414 . S
C346 C347 1.374 . S
C347 H327 0.950 . S
C347 C343 1.385 . S
C347 C346 1.374 . S
C348 C345 1.499 . S
C348 C349 1.373 . S
C348 C350 1.389 . S
C349 H328 0.950 . S
C349 C348 1.373 . S
C349 C365 1.377 . S
C350 C348 1.389 . S
C350 C351 1.524 . S
C350 C364 1.377 . S
C351 C350 1.524 . S
C351 C352 1.397 . S
C351 C356 1.363 . S
C352 H329 0.950 . S
C352 C351 1.397 . S
C352 C353 1.334 . S
C353 H330 0.950 . S
C353 C352 1.334 . S
C353 C354 1.287 . S
C354 C353 1.287 . S
C354 C355 1.524 . S
C354 H373 0.913 . S
C355 H331 0.950 . S
C355 C354 1.524 . S
C355 C356 1.415 . S
C356 H332 0.950 . S
C356 C351 1.363 . S
C356 C355 1.415 . S
C357 H333 0.951 . S
C357 C358 1.366 . S
C357 C359 1.388 . S
C358 C357 1.366 . S
C358 C362 1.385 . S
C359 H334 0.951 . S
C359 C357 1.388 . S
C359 C360 1.366 . S
C360 C359 1.366 . S
C360 C361 1.414 . S
C360 C363 1.499 . S
C361 H335 0.950 . S
C361 C360 1.414 . S
C361 C362 1.374 . S
C362 H336 0.950 . S
C362 C358 1.385 . S
C362 C361 1.374 . S
C363 C360 1.499 . S
C363 C364 1.373 . S
C363 C365 1.389 . S
C364 H337 0.950 . S
C364 C350 1.377 . S
C364 C363 1.373 . S
C365 C349 1.377 . S
C365 C363 1.389 . S
C365 C366 1.524 . S
C366 C365 1.524 . S
C366 C367 1.397 . S
C366 C371 1.363 . S
C367 H338 0.950 . S
C367 C366 1.397 . S
C367 C368 1.334 . S
C368 H339 0.950 . S
C368 C367 1.334 . S
C368 C369 1.287 . S
C369 C368 1.287 . S
C369 C370 1.524 . S
C369 H372 0.999 . S
C370 H340 0.950 . S
C370 C369 1.524 . S
C370 C371 1.415 . S
C371 H341 0.950 . S
C371 C366 1.363 . S
C371 C370 1.415 . S
H372 C369 0.999 . S
H373 C354 0.913 . S
H374 C392 0.951 . S
H375 C394 0.951 . S
H376 C396 0.950 . S
H377 C397 0.950 . S
H378 C399 0.950 . S
H379 C402 0.950 . S
H380 C403 0.950 1_565 S
H381 C405 0.950 . S
H382 C406 0.950 . S
H383 C407 0.951 . S
H384 C409 0.951 . S
H385 C411 0.950 . S
H386 C412 0.950 . S
H387 C414 0.950 . S
H388 C417 0.950 . S
H389 C418 0.950 . S
H390 C420 0.950 . S
H391 C421 0.950 . S
C392 H374 0.951 . S
C392 C393 1.366 . S
C392 C394 1.388 . S
C393 C392 1.366 . S
C393 C397 1.385 . S
C394 H375 0.951 . S
C394 C392 1.388 . S
C394 C395 1.366 . S
C395 C394 1.366 . S
C395 C396 1.414 . S
C395 C398 1.499 . S
C396 H376 0.950 . S
C396 C395 1.414 . S
C396 C397 1.374 . S
C397 H377 0.950 . S
C397 C393 1.385 . S
C397 C396 1.374 . S
C398 C395 1.499 . S
C398 C399 1.373 . S
C398 C400 1.389 . S
C399 H378 0.950 . S
C399 C398 1.373 . S
C399 C415 1.377 . S
C400 C398 1.389 . S
C400 C401 1.524 . S
C400 C414 1.377 . S
C401 C400 1.524 . S
C401 C402 1.397 . S
C401 C406 1.363 . S
C402 H379 0.950 . S
C402 C401 1.397 . S
C402 C403 1.334 . S
C403 H380 0.950 1_545 S
C403 C402 1.334 . S
C403 C404 1.287 . S
C404 C403 1.287 . S
C404 C405 1.524 . S
C404 H423 0.913 . S
C405 H381 0.950 . S
C405 C404 1.524 . S
C405 C406 1.415 . S
C406 H382 0.950 . S
C406 C401 1.363 . S
C406 C405 1.415 . S
C407 H383 0.951 . S
C407 C408 1.366 . S
C407 C409 1.388 . S
C408 C407 1.366 . S
C408 C412 1.385 . S
C409 H384 0.951 . S
C409 C407 1.388 . S
C409 C410 1.366 . S
C410 C409 1.366 . S
C410 C411 1.414 . S
C410 C413 1.499 . S
C411 H385 0.950 . S
C411 C410 1.414 . S
C411 C412 1.374 . S
C412 H386 0.950 . S
C412 C408 1.385 . S
C412 C411 1.374 . S
C413 C410 1.499 . S
C413 C414 1.373 . S
C413 C415 1.389 . S
C414 H387 0.950 . S
C414 C400 1.377 . S
C414 C413 1.373 . S
C415 C399 1.377 . S
C415 C413 1.389 . S
C415 C416 1.524 . S
C416 C415 1.524 . S
C416 C417 1.397 . S
C416 C421 1.363 . S
C417 H388 0.950 . S
C417 C416 1.397 . S
C417 C418 1.334 . S
C418 H389 0.950 . S
C418 C417 1.334 . S
C418 C419 1.287 . S
C419 C418 1.287 . S
C419 C420 1.524 . S
C419 H422 0.999 . S
C420 H390 0.950 . S
C420 C419 1.524 . S
C420 C421 1.415 . S
C421 H391 0.950 . S
C421 C416 1.363 . S
C421 C420 1.415 . S
H422 C419 0.999 . S
H423 C404 0.913 . S
H424 C442 0.951 . S
H425 C444 0.951 . S
H426 C446 0.950 . S
H427 C447 0.950 . S
H428 C449 0.950 . S
H429 C452 0.950 . S
H430 C453 0.950 . S
H431 C455 0.950 . S
H432 C456 0.950 . S
H433 C457 0.951 . S
H434 C459 0.951 . S
H435 C461 0.950 . S
H436 C462 0.950 . S
H437 C464 0.950 . S
H438 C467 0.950 . S
H439 C468 0.950 1_545 S
H440 C470 0.950 . S
H441 C471 0.950 . S
C442 H424 0.951 . S
C442 C443 1.366 . S
C442 C444 1.388 . S
C443 C442 1.366 . S
C443 C447 1.385 . S
C444 H425 0.951 . S
C444 C442 1.388 . S
C444 C445 1.366 . S
C445 C444 1.366 . S
C445 C446 1.414 . S
C445 C448 1.499 . S
C446 H426 0.950 . S
C446 C445 1.414 . S
C446 C447 1.374 . S
C447 H427 0.950 . S
C447 C443 1.385 . S
C447 C446 1.374 . S
C448 C445 1.499 . S
C448 C449 1.373 . S
C448 C450 1.389 . S
C449 H428 0.950 . S
C449 C448 1.373 . S
C449 C465 1.377 . S
C450 C448 1.389 . S
C450 C451 1.524 . S
C450 C464 1.377 . S
C451 C450 1.524 . S
C451 C452 1.397 . S
C451 C456 1.363 . S
C452 H429 0.950 . S
C452 C451 1.397 . S
C452 C453 1.334 . S
C453 H430 0.950 . S
C453 C452 1.334 . S
C453 C454 1.287 . S
C454 C453 1.287 . S
C454 C455 1.524 . S
C454 H473 0.913 . S
C455 H431 0.950 . S
C455 C454 1.524 . S
C455 C456 1.415 . S
C456 H432 0.950 . S
C456 C451 1.363 . S
C456 C455 1.415 . S
C457 H433 0.951 . S
C457 C458 1.366 . S
C457 C459 1.388 . S
C458 C457 1.366 . S
C458 C462 1.385 . S
C459 H434 0.951 . S
C459 C457 1.388 . S
C459 C460 1.366 . S
C460 C459 1.366 . S
C460 C461 1.414 . S
C460 C463 1.499 . S
C461 H435 0.950 . S
C461 C460 1.414 . S
C461 C462 1.374 . S
C462 H436 0.950 . S
C462 C458 1.385 . S
C462 C461 1.374 . S
C463 C460 1.499 . S
C463 C464 1.373 . S
C463 C465 1.389 . S
C464 H437 0.950 . S
C464 C450 1.377 . S
C464 C463 1.373 . S
C465 C449 1.377 . S
C465 C463 1.389 . S
C465 C466 1.524 . S
C466 C465 1.524 . S
C466 C467 1.397 . S
C466 C471 1.363 . S
C467 H438 0.950 . S
C467 C466 1.397 . S
C467 C468 1.334 . S
C468 H439 0.950 1_565 S
C468 C467 1.334 . S
C468 C469 1.287 . S
C469 C468 1.287 . S
C469 C470 1.524 . S
C469 H472 0.999 1_565 S
C470 H440 0.950 . S
C470 C469 1.524 . S
C470 C471 1.415 . S
C471 H441 0.950 . S
C471 C466 1.363 . S
C471 C470 1.415 . S
H472 C469 0.999 1_545 S
H473 C454 0.913 . S
H474 C492 0.951 . S
H475 C494 0.951 . S
H476 C496 0.950 . S
H477 C497 0.950 . S
H478 C499 0.950 . S
H479 C502 0.950 . S
H480 C503 0.950 . S
H481 C505 0.950 . S
H482 C506 0.950 . S
H483 C507 0.951 . S
H484 C509 0.951 . S
H485 C511 0.950 . S
H486 C512 0.950 . S
H487 C514 0.950 . S
H488 C517 0.950 . S
H489 C518 0.950 . S
H490 C520 0.950 . S
H491 C521 0.950 . S
C492 H474 0.951 . S
C492 C493 1.366 . S
C492 C494 1.388 . S
C493 C492 1.366 . S
C493 C497 1.385 . S
C494 H475 0.951 . S
C494 C492 1.388 . S
C494 C495 1.366 . S
C495 C494 1.366 . S
C495 C496 1.414 . S
C495 C498 1.499 . S
C496 H476 0.950 . S
C496 C495 1.414 . S
C496 C497 1.374 . S
C497 H477 0.950 . S
C497 C493 1.385 . S
C497 C496 1.374 . S
C498 C495 1.499 . S
C498 C499 1.373 . S
C498 C500 1.389 . S
C499 H478 0.950 . S
C499 C498 1.373 . S
C499 C515 1.377 . S
C500 C498 1.389 . S
C500 C501 1.524 . S
C500 C514 1.377 . S
C501 C500 1.524 . S
C501 C502 1.397 . S
C501 C506 1.363 . S
C502 H479 0.950 . S
C502 C501 1.397 . S
C502 C503 1.334 . S
C503 H480 0.950 . S
C503 C502 1.334 . S
C503 C504 1.287 . S
C504 C503 1.287 . S
C504 C505 1.524 . S
C504 H523 0.913 . S
C505 H481 0.950 . S
C505 C504 1.524 . S
C505 C506 1.415 . S
C506 H482 0.950 . S
C506 C501 1.363 . S
C506 C505 1.415 . S
C507 H483 0.951 . S
C507 C508 1.366 . S
C507 C509 1.388 . S
C508 C507 1.366 . S
C508 C512 1.385 . S
C509 H484 0.951 . S
C509 C507 1.388 . S
C509 C510 1.366 . S
C510 C509 1.366 . S
C510 C511 1.414 . S
C510 C513 1.499 . S
C511 H485 0.950 . S
C511 C510 1.414 . S
C511 C512 1.374 . S
C512 H486 0.950 . S
C512 C508 1.385 . S
C512 C511 1.374 . S
C513 C510 1.499 . S
C513 C514 1.373 . S
C513 C515 1.389 . S
C514 H487 0.950 . S
C514 C500 1.377 . S
C514 C513 1.373 . S
C515 C499 1.377 . S
C515 C513 1.389 . S
C515 C516 1.524 . S
C516 C515 1.524 . S
C516 C517 1.397 . S
C516 C521 1.363 . S
C517 H488 0.950 . S
C517 C516 1.397 . S
C517 C518 1.334 . S
C518 H489 0.950 . S
C518 C517 1.334 . S
C518 C519 1.287 . S
C519 C518 1.287 . S
C519 C520 1.524 . S
C519 H522 0.999 . S
C520 H490 0.950 . S
C520 C519 1.524 . S
C520 C521 1.415 . S
C521 H491 0.950 . S
C521 C516 1.363 . S
C521 C520 1.415 . S
H522 C519 0.999 . S
H523 C504 0.913 . S
H524 C542 0.951 . S
H525 C544 0.951 . S
H526 C546 0.950 . S
H527 C547 0.950 . S
H528 C549 0.950 . S
H529 C552 0.950 . S
H530 C553 0.950 . S
H531 C555 0.950 . S
H532 C556 0.950 . S
H533 C557 0.951 . S
H534 C559 0.951 . S
H535 C561 0.950 . S
H536 C562 0.950 . S
H537 C564 0.950 . S
H538 C567 0.950 . S
H539 C568 0.950 . S
H540 C570 0.950 . S
H541 C571 0.950 . S
C542 H524 0.951 . S
C542 C543 1.366 . S
C542 C544 1.388 . S
C543 C542 1.366 . S
C543 C547 1.385 . S
C544 H525 0.951 . S
C544 C542 1.388 . S
C544 C545 1.366 . S
C545 C544 1.366 . S
C545 C546 1.414 . S
C545 C548 1.499 . S
C546 H526 0.950 . S
C546 C545 1.414 . S
C546 C547 1.374 . S
C547 H527 0.950 . S
C547 C543 1.385 . S
C547 C546 1.374 . S
C548 C545 1.499 . S
C548 C549 1.373 . S
C548 C550 1.389 . S
C549 H528 0.950 . S
C549 C548 1.373 . S
C549 C565 1.377 . S
C550 C548 1.389 . S
C550 C551 1.524 . S
C550 C564 1.377 . S
C551 C550 1.524 . S
C551 C552 1.397 . S
C551 C556 1.363 . S
C552 H529 0.950 . S
C552 C551 1.397 . S
C552 C553 1.334 . S
C553 H530 0.950 . S
C553 C552 1.334 . S
C553 C554 1.287 . S
C554 C553 1.287 . S
C554 C555 1.524 . S
C554 H573 0.913 . S
C555 H531 0.950 . S
C555 C554 1.524 . S
C555 C556 1.415 . S
C556 H532 0.950 . S
C556 C551 1.363 . S
C556 C555 1.415 . S
C557 H533 0.951 . S
C557 C558 1.366 . S
C557 C559 1.388 . S
C558 C557 1.366 . S
C558 C562 1.385 . S
C559 H534 0.951 . S
C559 C557 1.388 . S
C559 C560 1.366 . S
C560 C559 1.366 . S
C560 C561 1.414 . S
C560 C563 1.499 . S
C561 H535 0.950 . S
C561 C560 1.414 . S
C561 C562 1.374 . S
C562 H536 0.950 . S
C562 C558 1.385 . S
C562 C561 1.374 . S
C563 C560 1.499 . S
C563 C564 1.373 . S
C563 C565 1.389 . S
C564 H537 0.950 . S
C564 C550 1.377 . S
C564 C563 1.373 . S
C565 C549 1.377 . S
C565 C563 1.389 . S
C565 C566 1.524 . S
C566 C565 1.524 . S
C566 C567 1.397 . S
C566 C571 1.363 . S
C567 H538 0.950 . S
C567 C566 1.397 . S
C567 C568 1.334 . S
C568 H539 0.950 . S
C568 C567 1.334 . S
C568 C569 1.287 . S
C569 C568 1.287 . S
C569 C570 1.524 . S
C569 H572 0.999 . S
C570 H540 0.950 . S
C570 C569 1.524 . S
C570 C571 1.415 . S
C571 H541 0.950 . S
C571 C566 1.363 . S
C571 C570 1.415 . S
H572 C569 0.999 . S
H573 C554 0.913 . S
H574 C592 0.951 . S
H575 C594 0.951 . S
H576 C596 0.950 . S
H577 C597 0.950 . S
H578 C599 0.950 . S
H579 C602 0.950 . S
H580 C603 0.950 . S
H581 C605 0.950 . S
H582 C606 0.950 . S
H583 C607 0.951 1_455 S
H584 C609 0.951 . S
H585 C611 0.950 . S
H586 C612 0.950 . S
H587 C614 0.950 . S
H588 C617 0.950 . S
H589 C618 0.950 . S
H590 C620 0.950 . S
H591 C621 0.950 . S
C592 H574 0.951 . S
C592 C593 1.366 . S
C592 C594 1.388 . S
C593 C592 1.366 . S
C593 C597 1.385 . S
C594 H575 0.951 . S
C594 C592 1.388 . S
C594 C595 1.366 . S
C595 C594 1.366 . S
C595 C596 1.414 . S
C595 C598 1.499 . S
C596 H576 0.950 . S
C596 C595 1.414 . S
C596 C597 1.374 . S
C597 H577 0.950 . S
C597 C593 1.385 . S
C597 C596 1.374 . S
C598 C595 1.499 . S
C598 C599 1.373 . S
C598 C600 1.389 . S
C599 H578 0.950 . S
C599 C598 1.373 . S
C599 C615 1.377 . S
C600 C598 1.389 . S
C600 C601 1.524 . S
C600 C614 1.377 . S
C601 C600 1.524 . S
C601 C602 1.397 . S
C601 C606 1.363 . S
C602 H579 0.950 . S
C602 C601 1.397 . S
C602 C603 1.334 . S
C603 H580 0.950 . S
C603 C602 1.334 . S
C603 C604 1.287 . S
C604 C603 1.287 . S
C604 C605 1.524 . S
C604 H623 0.913 . S
C605 H581 0.950 . S
C605 C604 1.524 . S
C605 C606 1.415 . S
C606 H582 0.950 . S
C606 C601 1.363 . S
C606 C605 1.415 . S
C607 H583 0.951 1_655 S
C607 C608 1.366 . S
C607 C609 1.388 . S
C608 C607 1.366 . S
C608 C612 1.385 . S
C609 H584 0.951 . S
C609 C607 1.388 . S
C609 C610 1.366 . S
C610 C609 1.366 . S
C610 C611 1.414 . S
C610 C613 1.499 . S
C611 H585 0.950 . S
C611 C610 1.414 . S
C611 C612 1.374 . S
C612 H586 0.950 . S
C612 C608 1.385 . S
C612 C611 1.374 . S
C613 C610 1.499 . S
C613 C614 1.373 . S
C613 C615 1.389 . S
C614 H587 0.950 . S
C614 C600 1.377 . S
C614 C613 1.373 . S
C615 C599 1.377 . S
C615 C613 1.389 . S
C615 C616 1.524 . S
C616 C615 1.524 . S
C616 C617 1.397 . S
C616 C621 1.363 . S
C617 H588 0.950 . S
C617 C616 1.397 . S
C617 C618 1.334 . S
C618 H589 0.950 . S
C618 C617 1.334 . S
C618 C619 1.287 . S
C619 C618 1.287 . S
C619 C620 1.524 . S
C619 H622 0.999 . S
C620 H590 0.950 . S
C620 C619 1.524 . S
C620 C621 1.415 . S
C621 H591 0.950 . S
C621 C616 1.363 . S
C621 C620 1.415 . S
H622 C619 0.999 . S
H623 C604 0.913 . S
H624 C642 0.951 . S
H625 C644 0.951 . S
H626 C646 0.950 . S
H627 C647 0.950 . S
H628 C649 0.950 . S
H629 C652 0.950 . S
H630 C653 0.950 . S
H631 C655 0.950 . S
H632 C656 0.950 . S
H633 C657 0.951 . S
H634 C659 0.951 . S
H635 C661 0.950 . S
H636 C662 0.950 . S
H637 C664 0.950 . S
H638 C667 0.950 . S
H639 C668 0.950 . S
H640 C670 0.950 . S
H641 C671 0.950 . S
C642 H624 0.951 . S
C642 C643 1.366 . S
C642 C644 1.388 . S
C643 C642 1.366 . S
C643 C647 1.385 . S
C644 H625 0.951 . S
C644 C642 1.388 . S
C644 C645 1.366 . S
C645 C644 1.366 . S
C645 C646 1.414 . S
C645 C648 1.499 . S
C646 H626 0.950 . S
C646 C645 1.414 . S
C646 C647 1.374 . S
C647 H627 0.950 . S
C647 C643 1.385 . S
C647 C646 1.374 . S
C648 C645 1.499 . S
C648 C649 1.373 . S
C648 C650 1.389 . S
C649 H628 0.950 . S
C649 C648 1.373 . S
C649 C665 1.377 . S
C650 C648 1.389 . S
C650 C651 1.524 . S
C650 C664 1.377 . S
C651 C650 1.524 . S
C651 C652 1.397 . S
C651 C656 1.363 . S
C652 H629 0.950 . S
C652 C651 1.397 . S
C652 C653 1.334 . S
C653 H630 0.950 . S
C653 C652 1.334 . S
C653 C654 1.287 . S
C654 C653 1.287 . S
C654 C655 1.524 . S
C654 H673 0.913 . S
C655 H631 0.950 . S
C655 C654 1.524 . S
C655 C656 1.415 . S
C656 H632 0.950 . S
C656 C651 1.363 . S
C656 C655 1.415 . S
C657 H633 0.951 . S
C657 C658 1.366 . S
C657 C659 1.388 . S
C658 C657 1.366 . S
C658 C662 1.385 . S
C659 H634 0.951 . S
C659 C657 1.388 . S
C659 C660 1.366 . S
C660 C659 1.366 . S
C660 C661 1.414 . S
C660 C663 1.499 . S
C661 H635 0.950 . S
C661 C660 1.414 . S
C661 C662 1.374 . S
C662 H636 0.950 . S
C662 C658 1.385 . S
C662 C661 1.374 . S
C663 C660 1.499 . S
C663 C664 1.373 . S
C663 C665 1.389 . S
C664 H637 0.950 . S
C664 C650 1.377 . S
C664 C663 1.373 . S
C665 C649 1.377 . S
C665 C663 1.389 . S
C665 C666 1.524 . S
C666 C665 1.524 . S
C666 C667 1.397 . S
C666 C671 1.363 . S
C667 H638 0.950 . S
C667 C666 1.397 . S
C667 C668 1.334 . S
C668 H639 0.950 . S
C668 C667 1.334 . S
C668 C669 1.287 . S
C669 C668 1.287 . S
C669 C670 1.524 . S
C669 H672 0.999 . S
C670 H640 0.950 . S
C670 C669 1.524 . S
C670 C671 1.415 . S
C671 H641 0.950 . S
C671 C666 1.363 . S
C671 C670 1.415 . S
H672 C669 0.999 . S
H673 C654 0.913 . S
H674 C692 0.951 . S
H675 C694 0.951 . S
H676 C696 0.950 . S
H677 C697 0.950 . S
H678 C699 0.950 . S
H679 C702 0.950 . S
H680 C703 0.950 . S
H681 C705 0.950 . S
H682 C706 0.950 . S
H683 C707 0.951 . S
H684 C709 0.951 . S
H685 C711 0.950 . S
H686 C712 0.950 . S
H687 C714 0.950 . S
H688 C717 0.950 . S
H689 C718 0.950 . S
H690 C720 0.950 . S
H691 C721 0.950 . S
C692 H674 0.951 . S
C692 C693 1.366 . S
C692 C694 1.388 . S
C693 C692 1.366 . S
C693 C697 1.385 . S
C694 H675 0.951 . S
C694 C692 1.388 . S
C694 C695 1.366 . S
C695 C694 1.366 . S
C695 C696 1.414 . S
C695 C698 1.499 . S
C696 H676 0.950 . S
C696 C695 1.414 . S
C696 C697 1.374 . S
C697 H677 0.950 . S
C697 C693 1.385 . S
C697 C696 1.374 . S
C698 C695 1.499 . S
C698 C699 1.373 . S
C698 C700 1.389 . S
C699 H678 0.950 . S
C699 C698 1.373 . S
C699 C715 1.377 . S
C700 C698 1.389 . S
C700 C701 1.524 . S
C700 C714 1.377 . S
C701 C700 1.524 . S
C701 C702 1.397 . S
C701 C706 1.363 . S
C702 H679 0.950 . S
C702 C701 1.397 . S
C702 C703 1.334 . S
C703 H680 0.950 . S
C703 C702 1.334 . S
C703 C704 1.287 . S
C704 C703 1.287 . S
C704 C705 1.524 . S
C704 H723 0.913 . S
C705 H681 0.950 . S
C705 C704 1.524 . S
C705 C706 1.415 . S
C706 H682 0.950 . S
C706 C701 1.363 . S
C706 C705 1.415 . S
C707 H683 0.951 . S
C707 C708 1.366 . S
C707 C709 1.388 . S
C708 C707 1.366 . S
C708 C712 1.385 . S
C709 H684 0.951 . S
C709 C707 1.388 . S
C709 C710 1.366 . S
C710 C709 1.366 . S
C710 C711 1.414 . S
C710 C713 1.499 . S
C711 H685 0.950 . S
C711 C710 1.414 . S
C711 C712 1.374 . S
C712 H686 0.950 . S
C712 C708 1.385 . S
C712 C711 1.374 . S
C713 C710 1.499 . S
C713 C714 1.373 . S
C713 C715 1.389 . S
C714 H687 0.950 . S
C714 C700 1.377 . S
C714 C713 1.373 . S
C715 C699 1.377 . S
C715 C713 1.389 . S
C715 C716 1.524 . S
C716 C715 1.524 . S
C716 C717 1.397 . S
C716 C721 1.363 . S
C717 H688 0.950 . S
C717 C716 1.397 . S
C717 C718 1.334 . S
C718 H689 0.950 . S
C718 C717 1.334 . S
C718 C719 1.287 . S
C719 C718 1.287 . S
C719 C720 1.524 . S
C719 H722 0.999 . S
C720 H690 0.950 . S
C720 C719 1.524 . S
C720 C721 1.415 . S
C721 H691 0.950 . S
C721 C716 1.363 . S
C721 C720 1.415 . S
H722 C719 0.999 . S
H723 C704 0.913 . S
H724 C742 0.951 . S
H725 C744 0.951 . S
H726 C746 0.950 . S
H727 C747 0.950 . S
H728 C749 0.950 . S
H729 C752 0.950 . S
H730 C753 0.950 . S
H731 C755 0.950 . S
H732 C756 0.950 . S
H733 C757 0.951 . S
H734 C759 0.951 . S
H735 C761 0.950 . S
H736 C762 0.950 . S
H737 C764 0.950 . S
H738 C767 0.950 . S
H739 C768 0.950 . S
H740 C770 0.950 . S
H741 C771 0.950 . S
C742 H724 0.951 . S
C742 C743 1.366 . S
C742 C744 1.388 . S
C743 C742 1.366 . S
C743 C747 1.385 . S
C744 H725 0.951 . S
C744 C742 1.388 . S
C744 C745 1.366 . S
C745 C744 1.366 . S
C745 C746 1.414 . S
C745 C748 1.499 . S
C746 H726 0.950 . S
C746 C745 1.414 . S
C746 C747 1.374 . S
C747 H727 0.950 . S
C747 C743 1.385 . S
C747 C746 1.374 . S
C748 C745 1.499 . S
C748 C749 1.373 . S
C748 C750 1.389 . S
C749 H728 0.950 . S
C749 C748 1.373 . S
C749 C765 1.377 . S
C750 C748 1.389 . S
C750 C751 1.524 . S
C750 C764 1.377 . S
C751 C750 1.524 . S
C751 C752 1.397 . S
C751 C756 1.363 . S
C752 H729 0.950 . S
C752 C751 1.397 . S
C752 C753 1.334 . S
C753 H730 0.950 . S
C753 C752 1.334 . S
C753 C754 1.287 . S
C754 C753 1.287 . S
C754 C755 1.524 . S
C754 H773 0.913 . S
C755 H731 0.950 . S
C755 C754 1.524 . S
C755 C756 1.415 . S
C756 H732 0.950 . S
C756 C751 1.363 . S
C756 C755 1.415 . S
C757 H733 0.951 . S
C757 C758 1.366 . S
C757 C759 1.388 . S
C758 C757 1.366 . S
C758 C762 1.385 . S
C759 H734 0.951 . S
C759 C757 1.388 . S
C759 C760 1.366 . S
C760 C759 1.366 . S
C760 C761 1.414 . S
C760 C763 1.499 . S
C761 H735 0.950 . S
C761 C760 1.414 . S
C761 C762 1.374 . S
C762 H736 0.950 . S
C762 C758 1.385 . S
C762 C761 1.374 . S
C763 C760 1.499 . S
C763 C764 1.373 . S
C763 C765 1.389 . S
C764 H737 0.950 . S
C764 C750 1.377 . S
C764 C763 1.373 . S
C765 C749 1.377 . S
C765 C763 1.389 . S
C765 C766 1.524 . S
C766 C765 1.524 . S
C766 C767 1.397 . S
C766 C771 1.363 . S
C767 H738 0.950 . S
C767 C766 1.397 . S
C767 C768 1.334 . S
C768 H739 0.950 . S
C768 C767 1.334 . S
C768 C769 1.287 . S
C769 C768 1.287 . S
C769 C770 1.524 . S
C769 H772 0.999 . S
C770 H740 0.950 . S
C770 C769 1.524 . S
C770 C771 1.415 . S
C771 H741 0.950 . S
C771 C766 1.363 . S
C771 C770 1.415 . S
H772 C769 0.999 . S
H773 C754 0.913 . S
H774 C792 0.951 . S
H775 C794 0.951 . S
H776 C796 0.950 . S
H777 C797 0.950 . S
H778 C799 0.950 . S
H779 C802 0.950 . S
H780 C803 0.950 . S
H781 C805 0.950 . S
H782 C806 0.950 . S
H783 C807 0.951 . S
H784 C809 0.951 . S
H785 C811 0.950 . S
H786 C812 0.950 . S
H787 C814 0.950 . S
H788 C817 0.950 . S
H789 C818 0.950 . S
H790 C820 0.950 . S
H791 C821 0.950 . S
C792 H774 0.951 . S
C792 C793 1.366 . S
C792 C794 1.388 . S
C793 C792 1.366 . S
C793 C797 1.385 . S
C794 H775 0.951 . S
C794 C792 1.388 . S
C794 C795 1.366 . S
C795 C794 1.366 . S
C795 C796 1.414 . S
C795 C798 1.499 . S
C796 H776 0.950 . S
C796 C795 1.414 . S
C796 C797 1.374 . S
C797 H777 0.950 . S
C797 C793 1.385 . S
C797 C796 1.374 . S
C798 C795 1.499 . S
C798 C799 1.373 . S
C798 C800 1.389 . S
C799 H778 0.950 . S
C799 C798 1.373 . S
C799 C815 1.377 . S
C800 C798 1.389 . S
C800 C801 1.524 . S
C800 C814 1.377 . S
C801 C800 1.524 . S
C801 C802 1.397 . S
C801 C806 1.363 . S
C802 H779 0.950 . S
C802 C801 1.397 . S
C802 C803 1.334 . S
C803 H780 0.950 . S
C803 C802 1.334 . S
C803 C804 1.287 . S
C804 C803 1.287 . S
C804 C805 1.524 . S
C804 H823 0.913 . S
C805 H781 0.950 . S
C805 C804 1.524 . S
C805 C806 1.415 . S
C806 H782 0.950 . S
C806 C801 1.363 . S
C806 C805 1.415 . S
C807 H783 0.951 . S
C807 C808 1.366 . S
C807 C809 1.388 . S
C808 C807 1.366 . S
C808 C812 1.385 . S
C809 H784 0.951 . S
C809 C807 1.388 . S
C809 C810 1.366 . S
C810 C809 1.366 . S
C810 C811 1.414 . S
C810 C813 1.499 . S
C811 H785 0.950 . S
C811 C810 1.414 . S
C811 C812 1.374 . S
C812 H786 0.950 . S
C812 C808 1.385 . S
C812 C811 1.374 . S
C813 C810 1.499 . S
C813 C814 1.373 . S
C813 C815 1.389 . S
C814 H787 0.950 . S
C814 C800 1.377 . S
C814 C813 1.373 . S
C815 C799 1.377 . S
C815 C813 1.389 . S
C815 C816 1.524 . S
C816 C815 1.524 . S
C816 C817 1.397 . S
C816 C821 1.363 . S
C817 H788 0.950 . S
C817 C816 1.397 . S
C817 C818 1.334 . S
C818 H789 0.950 . S
C818 C817 1.334 . S
C818 C819 1.287 . S
C819 C818 1.287 . S
C819 C820 1.524 . S
C819 H822 0.999 . S
C820 H790 0.950 . S
C820 C819 1.524 . S
C820 C821 1.415 . S
C821 H791 0.950 . S
C821 C816 1.363 . S
C821 C820 1.415 . S
H822 C819 0.999 . S
H823 C804 0.913 . S
H824 C842 0.951 . S
H825 C844 0.951 . S
H826 C846 0.950 . S
H827 C847 0.950 . S
H828 C849 0.950 . S
H829 C852 0.950 . S
H830 C853 0.950 . S
H831 C855 0.950 . S
H832 C856 0.950 . S
H833 C857 0.951 . S
H834 C859 0.951 . S
H835 C861 0.950 . S
H836 C862 0.950 . S
H837 C864 0.950 . S
H838 C867 0.950 . S
H839 C868 0.950 . S
H840 C870 0.950 . S
H841 C871 0.950 . S
C842 H824 0.951 . S
C842 C843 1.366 . S
C842 C844 1.388 . S
C843 C842 1.366 . S
C843 C847 1.385 . S
C844 H825 0.951 . S
C844 C842 1.388 . S
C844 C845 1.366 . S
C845 C844 1.366 . S
C845 C846 1.414 . S
C845 C848 1.499 . S
C846 H826 0.950 . S
C846 C845 1.414 . S
C846 C847 1.374 . S
C847 H827 0.950 . S
C847 C843 1.385 . S
C847 C846 1.374 . S
C848 C845 1.499 . S
C848 C849 1.373 . S
C848 C850 1.389 . S
C849 H828 0.950 . S
C849 C848 1.373 . S
C849 C865 1.377 . S
C850 C848 1.389 . S
C850 C851 1.524 . S
C850 C864 1.377 . S
C851 C850 1.524 . S
C851 C852 1.397 . S
C851 C856 1.363 . S
C852 H829 0.950 . S
C852 C851 1.397 . S
C852 C853 1.334 . S
C853 H830 0.950 . S
C853 C852 1.334 . S
C853 C854 1.287 . S
C854 C853 1.287 . S
C854 C855 1.524 . S
C854 H873 0.913 . S
C855 H831 0.950 . S
C855 C854 1.524 . S
C855 C856 1.415 . S
C856 H832 0.950 . S
C856 C851 1.363 . S
C856 C855 1.415 . S
C857 H833 0.951 . S
C857 C858 1.366 . S
C857 C859 1.388 . S
C858 C857 1.366 . S
C858 C862 1.385 . S
C859 H834 0.951 . S
C859 C857 1.388 . S
C859 C860 1.366 . S
C860 C859 1.366 . S
C860 C861 1.414 . S
C860 C863 1.499 . S
C861 H835 0.950 . S
C861 C860 1.414 . S
C861 C862 1.374 . S
C862 H836 0.950 . S
C862 C858 1.385 . S
C862 C861 1.374 . S
C863 C860 1.499 . S
C863 C864 1.373 . S
C863 C865 1.389 . S
C864 H837 0.950 . S
C864 C850 1.377 . S
C864 C863 1.373 . S
C865 C849 1.377 . S
C865 C863 1.389 . S
C865 C866 1.524 . S
C866 C865 1.524 . S
C866 C867 1.397 . S
C866 C871 1.363 . S
C867 H838 0.950 . S
C867 C866 1.397 . S
C867 C868 1.334 . S
C868 H839 0.950 . S
C868 C867 1.334 . S
C868 C869 1.287 . S
C869 C868 1.287 . S
C869 C870 1.524 . S
C869 H872 0.999 . S
C870 H840 0.950 . S
C870 C869 1.524 . S
C870 C871 1.415 . S
C871 H841 0.950 . S
C871 C866 1.363 . S
C871 C870 1.415 . S
H872 C869 0.999 . S
H873 C854 0.913 . S
H874 C892 0.951 . S
H875 C894 0.951 . S
H876 C896 0.950 . S
H877 C897 0.950 . S
H878 C899 0.950 . S
H879 C902 0.950 . S
H880 C903 0.950 . S
H881 C905 0.950 . S
H882 C906 0.950 . S
H883 C907 0.951 . S
H884 C909 0.951 . S
H885 C911 0.950 . S
H886 C912 0.950 . S
H887 C914 0.950 . S
H888 C917 0.950 . S
H889 C918 0.950 . S
H890 C920 0.950 . S
H891 C921 0.950 . S
C892 H874 0.951 . S
C892 C893 1.366 . S
C892 C894 1.388 . S
C893 C892 1.366 . S
C893 C897 1.385 . S
C894 H875 0.951 . S
C894 C892 1.388 . S
C894 C895 1.366 . S
C895 C894 1.366 . S
C895 C896 1.414 . S
C895 C898 1.499 . S
C896 H876 0.950 . S
C896 C895 1.414 . S
C896 C897 1.374 . S
C897 H877 0.950 . S
C897 C893 1.385 . S
C897 C896 1.374 . S
C898 C895 1.499 . S
C898 C899 1.373 . S
C898 C900 1.389 . S
C899 H878 0.950 . S
C899 C898 1.373 . S
C899 C915 1.377 . S
C900 C898 1.389 . S
C900 C901 1.524 . S
C900 C914 1.377 . S
C901 C900 1.524 . S
C901 C902 1.397 . S
C901 C906 1.363 . S
C902 H879 0.950 . S
C902 C901 1.397 . S
C902 C903 1.334 . S
C903 H880 0.950 . S
C903 C902 1.334 . S
C903 C904 1.287 . S
C904 C903 1.287 . S
C904 C905 1.524 . S
C904 H923 0.913 . S
C905 H881 0.950 . S
C905 C904 1.524 . S
C905 C906 1.415 . S
C906 H882 0.950 . S
C906 C901 1.363 . S
C906 C905 1.415 . S
C907 H883 0.951 . S
C907 C908 1.366 . S
C907 C909 1.388 . S
C908 C907 1.366 . S
C908 C912 1.385 . S
C909 H884 0.951 . S
C909 C907 1.388 . S
C909 C910 1.366 . S
C910 C909 1.366 . S
C910 C911 1.414 . S
C910 C913 1.499 . S
C911 H885 0.950 . S
C911 C910 1.414 . S
C911 C912 1.374 . S
C912 H886 0.950 . S
C912 C908 1.385 . S
C912 C911 1.374 . S
C913 C910 1.499 . S
C913 C914 1.373 . S
C913 C915 1.389 . S
C914 H887 0.950 . S
C914 C900 1.377 . S
C914 C913 1.373 . S
C915 C899 1.377 . S
C915 C913 1.389 . S
C915 C916 1.524 . S
C916 C915 1.524 . S
C916 C917 1.397 . S
C916 C921 1.363 . S
C917 H888 0.950 . S
C917 C916 1.397 . S
C917 C918 1.334 . S
C918 H889 0.950 . S
C918 C917 1.334 . S
C918 C919 1.287 . S
C919 C918 1.287 . S
C919 C920 1.524 . S
C919 H922 0.999 . S
C920 H890 0.950 . S
C920 C919 1.524 . S
C920 C921 1.415 . S
C921 H891 0.950 . S
C921 C916 1.363 . S
C921 C920 1.415 . S
H922 C919 0.999 . S
H923 C904 0.913 . S
H924 C942 0.951 . S
H925 C944 0.951 . S
H926 C946 0.950 . S
H927 C947 0.950 . S
H928 C949 0.950 . S
H929 C952 0.950 . S
H930 C953 0.950 . S
H931 C955 0.950 . S
H932 C956 0.950 . S
H933 C957 0.951 . S
H934 C959 0.951 . S
H935 C961 0.950 . S
H936 C962 0.950 . S
H937 C964 0.950 . S
H938 C967 0.950 . S
H939 C968 0.950 . S
H940 C970 0.950 . S
H941 C971 0.950 . S
C942 H924 0.951 . S
C942 C943 1.366 . S
C942 C944 1.388 . S
C943 C942 1.366 . S
C943 C947 1.385 . S
C944 H925 0.951 . S
C944 C942 1.388 . S
C944 C945 1.366 . S
C945 C944 1.366 . S
C945 C946 1.414 . S
C945 C948 1.499 . S
C946 H926 0.950 . S
C946 C945 1.414 . S
C946 C947 1.374 . S
C947 H927 0.950 . S
C947 C943 1.385 . S
C947 C946 1.374 . S
C948 C945 1.499 . S
C948 C949 1.373 . S
C948 C950 1.389 . S
C949 H928 0.950 . S
C949 C948 1.373 . S
C949 C965 1.377 . S
C950 C948 1.389 . S
C950 C951 1.524 . S
C950 C964 1.377 . S
C951 C950 1.524 . S
C951 C952 1.397 . S
C951 C956 1.363 . S
C952 H929 0.950 . S
C952 C951 1.397 . S
C952 C953 1.334 . S
C953 H930 0.950 . S
C953 C952 1.334 . S
C953 C954 1.287 . S
C954 C953 1.287 . S
C954 C955 1.524 . S
C954 H973 0.913 . S
C955 H931 0.950 . S
C955 C954 1.524 . S
C955 C956 1.415 . S
C956 H932 0.950 . S
C956 C951 1.363 . S
C956 C955 1.415 . S
C957 H933 0.951 . S
C957 C958 1.366 . S
C957 C959 1.388 . S
C958 C957 1.366 . S
C958 C962 1.385 . S
C959 H934 0.951 . S
C959 C957 1.388 . S
C959 C960 1.366 . S
C960 C959 1.366 . S
C960 C961 1.414 . S
C960 C963 1.499 . S
C961 H935 0.950 . S
C961 C960 1.414 . S
C961 C962 1.374 . S
C962 H936 0.950 . S
C962 C958 1.385 . S
C962 C961 1.374 . S
C963 C960 1.499 . S
C963 C964 1.373 . S
C963 C965 1.389 . S
C964 H937 0.950 . S
C964 C950 1.377 . S
C964 C963 1.373 . S
C965 C949 1.377 . S
C965 C963 1.389 . S
C965 C966 1.524 . S
C966 C965 1.524 . S
C966 C967 1.397 . S
C966 C971 1.363 . S
C967 H938 0.950 . S
C967 C966 1.397 . S
C967 C968 1.334 . S
C968 H939 0.950 . S
C968 C967 1.334 . S
C968 C969 1.287 . S
C969 C968 1.287 . S
C969 C970 1.524 . S
C969 H972 0.999 . S
C970 H940 0.950 . S
C970 C969 1.524 . S
C970 C971 1.415 . S
C971 H941 0.950 . S
C971 C966 1.363 . S
C971 C970 1.415 . S
H972 C969 0.999 . S
H973 C954 0.913 . S
H974 C992 0.951 . S
H975 C994 0.951 . S
H976 C996 0.950 . S
H977 C997 0.950 . S
H978 C999 0.950 . S
H979 C1002 0.950 . S
H980 C1003 0.950 . S
H981 C1005 0.950 . S
H982 C1006 0.950 . S
H983 C1007 0.951 . S
H984 C1009 0.951 . S
H985 C1011 0.950 . S
H986 C1012 0.950 . S
H987 C1014 0.950 . S
H988 C1017 0.950 . S
H989 C1018 0.950 . S
H990 C1020 0.950 . S
H991 C1021 0.950 . S
C992 H974 0.951 . S
C992 C993 1.366 . S
C992 C994 1.388 . S
C993 C992 1.366 . S
C993 C997 1.385 . S
C994 H975 0.951 . S
C994 C992 1.388 . S
C994 C995 1.366 . S
C995 C994 1.366 . S
C995 C996 1.414 . S
C995 C998 1.499 . S
C996 H976 0.950 . S
C996 C995 1.414 . S
C996 C997 1.374 . S
C997 H977 0.950 . S
C997 C993 1.385 . S
C997 C996 1.374 . S
C998 C995 1.499 . S
C998 C999 1.373 . S
C998 C1000 1.389 . S
C999 H978 0.950 . S
C999 C998 1.373 . S
C999 C1015 1.377 . S
C1000 C998 1.389 . S
C1000 C1001 1.524 . S
C1000 C1014 1.377 . S
C1001 C1000 1.524 . S
C1001 C1002 1.397 . S
C1001 C1006 1.363 . S
C1002 H979 0.950 . S
C1002 C1001 1.397 . S
C1002 C1003 1.334 . S
C1003 H980 0.950 . S
C1003 C1002 1.334 . S
C1003 C1004 1.287 . S
C1004 C1003 1.287 . S
C1004 C1005 1.524 . S
C1004 H1023 0.913 . S
C1005 H981 0.950 . S
C1005 C1004 1.524 . S
C1005 C1006 1.415 . S
C1006 H982 0.950 . S
C1006 C1001 1.363 . S
C1006 C1005 1.415 . S
C1007 H983 0.951 . S
C1007 C1008 1.366 . S
C1007 C1009 1.388 . S
C1008 C1007 1.366 . S
C1008 C1012 1.385 . S
C1009 H984 0.951 . S
C1009 C1007 1.388 . S
C1009 C1010 1.366 . S
C1010 C1009 1.366 . S
C1010 C1011 1.414 . S
C1010 C1013 1.499 . S
C1011 H985 0.950 . S
C1011 C1010 1.414 . S
C1011 C1012 1.374 . S
C1012 H986 0.950 . S
C1012 C1008 1.385 . S
C1012 C1011 1.374 . S
C1013 C1010 1.499 . S
C1013 C1014 1.373 . S
C1013 C1015 1.389 . S
C1014 H987 0.950 . S
C1014 C1000 1.377 . S
C1014 C1013 1.373 . S
C1015 C999 1.377 . S
C1015 C1013 1.389 . S
C1015 C1016 1.524 . S
C1016 C1015 1.524 . S
C1016 C1017 1.397 . S
C1016 C1021 1.363 . S
C1017 H988 0.950 . S
C1017 C1016 1.397 . S
C1017 C1018 1.334 . S
C1018 H989 0.950 . S
C1018 C1017 1.334 . S
C1018 C1019 1.287 . S
C1019 C1018 1.287 . S
C1019 C1020 1.524 . S
C1019 H1022 0.999 . S
C1020 H990 0.950 . S
C1020 C1019 1.524 . S
C1020 C1021 1.415 . S
C1021 H991 0.950 . S
C1021 C1016 1.363 . S
C1021 C1020 1.415 . S
H1022 C1019 0.999 . S
H1023 C1004 0.913 . S
H1024 C1042 0.951 . S
H1025 C1044 0.951 . S
H1026 C1046 0.950 . S
H1027 C1047 0.950 . S
H1028 C1049 0.950 . S
H1029 C1052 0.950 . S
H1030 C1053 0.950 . S
H1031 C1055 0.950 . S
H1032 C1056 0.950 . S
H1033 C1057 0.951 . S
H1034 C1059 0.951 . S
H1035 C1061 0.950 . S
H1036 C1062 0.950 . S
H1037 C1064 0.950 . S
H1038 C1067 0.950 . S
H1039 C1068 0.950 . S
H1040 C1070 0.950 . S
H1041 C1071 0.950 . S
C1042 H1024 0.951 . S
C1042 C1043 1.366 . S
C1042 C1044 1.388 . S
C1043 C1042 1.366 . S
C1043 C1047 1.385 . S
C1044 H1025 0.951 . S
C1044 C1042 1.388 . S
C1044 C1045 1.366 . S
C1045 C1044 1.366 . S
C1045 C1046 1.414 . S
C1045 C1048 1.499 . S
C1046 H1026 0.950 . S
C1046 C1045 1.414 . S
C1046 C1047 1.374 . S
C1047 H1027 0.950 . S
C1047 C1043 1.385 . S
C1047 C1046 1.374 . S
C1048 C1045 1.499 . S
C1048 C1049 1.373 . S
C1048 C1050 1.389 . S
C1049 H1028 0.950 . S
C1049 C1048 1.373 . S
C1049 C1065 1.377 . S
C1050 C1048 1.389 . S
C1050 C1051 1.524 . S
C1050 C1064 1.377 . S
C1051 C1050 1.524 . S
C1051 C1052 1.397 . S
C1051 C1056 1.363 . S
C1052 H1029 0.950 . S
C1052 C1051 1.397 . S
C1052 C1053 1.334 . S
C1053 H1030 0.950 . S
C1053 C1052 1.334 . S
C1053 C1054 1.287 . S
C1054 C1053 1.287 . S
C1054 C1055 1.524 . S
C1054 H1073 0.913 . S
C1055 H1031 0.950 . S
C1055 C1054 1.524 . S
C1055 C1056 1.415 . S
C1056 H1032 0.950 . S
C1056 C1051 1.363 . S
C1056 C1055 1.415 . S
C1057 H1033 0.951 . S
C1057 C1058 1.366 . S
C1057 C1059 1.388 . S
C1058 C1057 1.366 . S
C1058 C1062 1.385 . S
C1059 H1034 0.951 . S
C1059 C1057 1.388 . S
C1059 C1060 1.366 . S
C1060 C1059 1.366 . S
C1060 C1061 1.414 . S
C1060 C1063 1.499 . S
C1061 H1035 0.950 . S
C1061 C1060 1.414 . S
C1061 C1062 1.374 . S
C1062 H1036 0.950 . S
C1062 C1058 1.385 . S
C1062 C1061 1.374 . S
C1063 C1060 1.499 . S
C1063 C1064 1.373 . S
C1063 C1065 1.389 . S
C1064 H1037 0.950 . S
C1064 C1050 1.377 . S
C1064 C1063 1.373 . S
C1065 C1049 1.377 . S
C1065 C1063 1.389 . S
C1065 C1066 1.524 . S
C1066 C1065 1.524 . S
C1066 C1067 1.397 . S
C1066 C1071 1.363 . S
C1067 H1038 0.950 . S
C1067 C1066 1.397 . S
C1067 C1068 1.334 . S
C1068 H1039 0.950 . S
C1068 C1067 1.334 . S
C1068 C1069 1.287 . S
C1069 C1068 1.287 . S
C1069 C1070 1.524 . S
C1069 H1072 0.999 . S
C1070 H1040 0.950 . S
C1070 C1069 1.524 . S
C1070 C1071 1.415 . S
C1071 H1041 0.950 . S
C1071 C1066 1.363 . S
C1071 C1070 1.415 . S
H1072 C1069 0.999 . S
H1073 C1054 0.913 . S
H1074 C1092 0.951 . S
H1075 C1094 0.951 . S
H1076 C1096 0.950 . S
H1077 C1097 0.950 . S
H1078 C1099 0.950 . S
H1079 C1102 0.950 . S
H1080 C1103 0.950 . S
H1081 C1105 0.950 . S
H1082 C1106 0.950 . S
H1083 C1107 0.951 . S
H1084 C1109 0.951 . S
H1085 C1111 0.950 . S
H1086 C1112 0.950 . S
H1087 C1114 0.950 . S
H1088 C1117 0.950 . S
H1089 C1118 0.950 . S
H1090 C1120 0.950 . S
H1091 C1121 0.950 . S
C1092 H1074 0.951 . S
C1092 C1093 1.366 . S
C1092 C1094 1.388 . S
C1093 C1092 1.366 . S
C1093 C1097 1.385 . S
C1094 H1075 0.951 . S
C1094 C1092 1.388 . S
C1094 C1095 1.366 . S
C1095 C1094 1.366 . S
C1095 C1096 1.414 . S
C1095 C1098 1.499 . S
C1096 H1076 0.950 . S
C1096 C1095 1.414 . S
C1096 C1097 1.374 . S
C1097 H1077 0.950 . S
C1097 C1093 1.385 . S
C1097 C1096 1.374 . S
C1098 C1095 1.499 . S
C1098 C1099 1.373 . S
C1098 C1100 1.389 . S
C1099 H1078 0.950 . S
C1099 C1098 1.373 . S
C1099 C1115 1.377 . S
C1100 C1098 1.389 . S
C1100 C1101 1.524 . S
C1100 C1114 1.377 . S
C1101 C1100 1.524 . S
C1101 C1102 1.397 . S
C1101 C1106 1.363 . S
C1102 H1079 0.950 . S
C1102 C1101 1.397 . S
C1102 C1103 1.334 . S
C1103 H1080 0.950 . S
C1103 C1102 1.334 . S
C1103 C1104 1.287 . S
C1104 C1103 1.287 . S
C1104 C1105 1.524 . S
C1104 H1123 0.913 . S
C1105 H1081 0.950 . S
C1105 C1104 1.524 . S
C1105 C1106 1.415 . S
C1106 H1082 0.950 . S
C1106 C1101 1.363 . S
C1106 C1105 1.415 . S
C1107 H1083 0.951 . S
C1107 C1108 1.366 . S
C1107 C1109 1.388 . S
C1108 C1107 1.366 . S
C1108 C1112 1.385 . S
C1109 H1084 0.951 . S
C1109 C1107 1.388 . S
C1109 C1110 1.366 . S
C1110 C1109 1.366 . S
C1110 C1111 1.414 . S
C1110 C1113 1.499 . S
C1111 H1085 0.950 . S
C1111 C1110 1.414 . S
C1111 C1112 1.374 . S
C1112 H1086 0.950 . S
C1112 C1108 1.385 . S
C1112 C1111 1.374 . S
C1113 C1110 1.499 . S
C1113 C1114 1.373 . S
C1113 C1115 1.389 . S
C1114 H1087 0.950 . S
C1114 C1100 1.377 . S
C1114 C1113 1.373 . S
C1115 C1099 1.377 . S
C1115 C1113 1.389 . S
C1115 C1116 1.524 . S
C1116 C1115 1.524 . S
C1116 C1117 1.397 . S
C1116 C1121 1.363 . S
C1117 H1088 0.950 . S
C1117 C1116 1.397 . S
C1117 C1118 1.334 . S
C1118 H1089 0.950 . S
C1118 C1117 1.334 . S
C1118 C1119 1.287 . S
C1119 C1118 1.287 . S
C1119 C1120 1.524 . S
C1119 H1122 0.999 . S
C1120 H1090 0.950 . S
C1120 C1119 1.524 . S
C1120 C1121 1.415 . S
C1121 H1091 0.950 . S
C1121 C1116 1.363 . S
C1121 C1120 1.415 . S
H1122 C1119 0.999 . S
H1123 C1104 0.913 . S
H1124 C1142 0.951 . S
H1125 C1144 0.951 . S
H1126 C1146 0.950 . S
H1127 C1147 0.950 . S
H1128 C1149 0.950 . S
H1129 C1152 0.950 . S
H1130 C1153 0.950 . S
H1131 C1155 0.950 . S
H1132 C1156 0.950 . S
H1133 C1157 0.951 . S
H1134 C1159 0.951 . S
H1135 C1161 0.950 . S
H1136 C1162 0.950 . S
H1137 C1164 0.950 . S
H1138 C1167 0.950 . S
H1139 C1168 0.950 . S
H1140 C1170 0.950 . S
H1141 C1171 0.950 . S
C1142 H1124 0.951 . S
C1142 C1143 1.366 . S
C1142 C1144 1.388 . S
C1143 C1142 1.366 . S
C1143 C1147 1.385 . S
C1144 H1125 0.951 . S
C1144 C1142 1.388 . S
C1144 C1145 1.366 . S
C1145 C1144 1.366 . S
C1145 C1146 1.414 . S
C1145 C1148 1.499 . S
C1146 H1126 0.950 . S
C1146 C1145 1.414 . S
C1146 C1147 1.374 . S
C1147 H1127 0.950 . S
C1147 C1143 1.385 . S
C1147 C1146 1.374 . S
C1148 C1145 1.499 . S
C1148 C1149 1.373 . S
C1148 C1150 1.389 . S
C1149 H1128 0.950 . S
C1149 C1148 1.373 . S
C1149 C1165 1.377 . S
C1150 C1148 1.389 . S
C1150 C1151 1.524 . S
C1150 C1164 1.377 . S
C1151 C1150 1.524 . S
C1151 C1152 1.397 . S
C1151 C1156 1.363 . S
C1152 H1129 0.950 . S
C1152 C1151 1.397 . S
C1152 C1153 1.334 . S
C1153 H1130 0.950 . S
C1153 C1152 1.334 . S
C1153 C1154 1.287 . S
C1154 C1153 1.287 . S
C1154 C1155 1.524 . S
C1154 H1173 0.913 1_455 S
C1155 H1131 0.950 . S
C1155 C1154 1.524 . S
C1155 C1156 1.415 . S
C1156 H1132 0.950 . S
C1156 C1151 1.363 . S
C1156 C1155 1.415 . S
C1157 H1133 0.951 . S
C1157 C1158 1.366 . S
C1157 C1159 1.388 . S
C1158 C1157 1.366 . S
C1158 C1162 1.385 . S
C1159 H1134 0.951 . S
C1159 C1157 1.388 . S
C1159 C1160 1.366 . S
C1160 C1159 1.366 . S
C1160 C1161 1.414 . S
C1160 C1163 1.499 . S
C1161 H1135 0.950 . S
C1161 C1160 1.414 . S
C1161 C1162 1.374 . S
C1162 H1136 0.950 . S
C1162 C1158 1.385 . S
C1162 C1161 1.374 . S
C1163 C1160 1.499 . S
C1163 C1164 1.373 . S
C1163 C1165 1.389 . S
C1164 H1137 0.950 . S
C1164 C1150 1.377 . S
C1164 C1163 1.373 . S
C1165 C1149 1.377 . S
C1165 C1163 1.389 . S
C1165 C1166 1.524 . S
C1166 C1165 1.524 . S
C1166 C1167 1.397 . S
C1166 C1171 1.363 . S
C1167 H1138 0.950 . S
C1167 C1166 1.397 . S
C1167 C1168 1.334 . S
C1168 H1139 0.950 . S
C1168 C1167 1.334 . S
C1168 C1169 1.287 . S
C1169 C1168 1.287 . S
C1169 C1170 1.524 . S
C1169 H1172 0.999 . S
C1170 H1140 0.950 . S
C1170 C1169 1.524 . S
C1170 C1171 1.415 . S
C1171 H1141 0.950 . S
C1171 C1166 1.363 . S
C1171 C1170 1.415 . S
H1172 C1169 0.999 . S
H1173 C1154 0.913 1_655 S
H1174 C1192 0.951 . S
H1175 C1194 0.951 . S
H1176 C1196 0.950 . S
H1177 C1197 0.950 . S
H1178 C1199 0.950 . S
H1179 C1202 0.950 . S
H1180 C1203 0.950 . S
H1181 C1205 0.950 . S
H1182 C1206 0.950 . S
H1183 C1207 0.951 . S
H1184 C1209 0.951 . S
H1185 C1211 0.950 . S
H1186 C1212 0.950 . S
H1187 C1214 0.950 . S
H1188 C1217 0.950 . S
H1189 C1218 0.950 . S
H1190 C1220 0.950 . S
H1191 C1221 0.950 . S
C1192 H1174 0.951 . S
C1192 C1193 1.366 . S
C1192 C1194 1.388 . S
C1193 C1192 1.366 . S
C1193 C1197 1.385 . S
C1194 H1175 0.951 . S
C1194 C1192 1.388 . S
C1194 C1195 1.366 . S
C1195 C1194 1.366 . S
C1195 C1196 1.414 . S
C1195 C1198 1.499 . S
C1196 H1176 0.950 . S
C1196 C1195 1.414 . S
C1196 C1197 1.374 . S
C1197 H1177 0.950 . S
C1197 C1193 1.385 . S
C1197 C1196 1.374 . S
C1198 C1195 1.499 . S
C1198 C1199 1.373 . S
C1198 C1200 1.389 . S
C1199 H1178 0.950 . S
C1199 C1198 1.373 . S
C1199 C1215 1.377 . S
C1200 C1198 1.389 . S
C1200 C1201 1.524 . S
C1200 C1214 1.377 . S
C1201 C1200 1.524 . S
C1201 C1202 1.397 . S
C1201 C1206 1.363 . S
C1202 H1179 0.950 . S
C1202 C1201 1.397 . S
C1202 C1203 1.334 . S
C1203 H1180 0.950 . S
C1203 C1202 1.334 . S
C1203 C1204 1.287 . S
C1204 C1203 1.287 . S
C1204 C1205 1.524 . S
C1204 H1223 0.913 . S
C1205 H1181 0.950 . S
C1205 C1204 1.524 . S
C1205 C1206 1.415 . S
C1206 H1182 0.950 . S
C1206 C1201 1.363 . S
C1206 C1205 1.415 . S
C1207 H1183 0.951 . S
C1207 C1208 1.366 . S
C1207 C1209 1.388 . S
C1208 C1207 1.366 . S
C1208 C1212 1.385 . S
C1209 H1184 0.951 . S
C1209 C1207 1.388 . S
C1209 C1210 1.366 . S
C1210 C1209 1.366 . S
C1210 C1211 1.414 . S
C1210 C1213 1.499 . S
C1211 H1185 0.950 . S
C1211 C1210 1.414 . S
C1211 C1212 1.374 . S
C1212 H1186 0.950 . S
C1212 C1208 1.385 . S
C1212 C1211 1.374 . S
C1213 C1210 1.499 . S
C1213 C1214 1.373 . S
C1213 C1215 1.389 . S
C1214 H1187 0.950 . S
C1214 C1200 1.377 . S
C1214 C1213 1.373 . S
C1215 C1199 1.377 . S
C1215 C1213 1.389 . S
C1215 C1216 1.524 . S
C1216 C1215 1.524 . S
C1216 C1217 1.397 . S
C1216 C1221 1.363 . S
C1217 H1188 0.950 . S
C1217 C1216 1.397 . S
C1217 C1218 1.334 . S
C1218 H1189 0.950 . S
C1218 C1217 1.334 . S
C1218 C1219 1.287 . S
C1219 C1218 1.287 . S
C1219 C1220 1.524 . S
C1219 H1222 0.999 1_545 S
C1220 H1190 0.950 . S
C1220 C1219 1.524 . S
C1220 C1221 1.415 . S
C1221 H1191 0.950 . S
C1221 C1216 1.363 . S
C1221 C1220 1.415 . S
H1222 C1219 0.999 1_565 S
H1223 C1204 0.913 . S
H1224 C1242 0.951 . S
H1225 C1244 0.951 . S
H1226 C1246 0.950 . S
H1227 C1247 0.950 . S
H1228 C1249 0.950 . S
H1229 C1252 0.950 . S
H1230 C1253 0.950 . S
H1231 C1255 0.950 . S
H1232 C1256 0.950 . S
H1233 C1257 0.951 . S
H1234 C1259 0.951 . S
H1235 C1261 0.950 . S
H1236 C1262 0.950 . S
H1237 C1264 0.950 . S
H1238 C1267 0.950 . S
H1239 C1268 0.950 . S
H1240 C1270 0.950 . S
H1241 C1271 0.950 . S
C1242 H1224 0.951 . S
C1242 C1243 1.366 . S
C1242 C1244 1.388 . S
C1243 C1242 1.366 . S
C1243 C1247 1.385 . S
C1244 H1225 0.951 . S
C1244 C1242 1.388 . S
C1244 C1245 1.366 . S
C1245 C1244 1.366 . S
C1245 C1246 1.414 . S
C1245 C1248 1.499 . S
C1246 H1226 0.950 . S
C1246 C1245 1.414 . S
C1246 C1247 1.374 . S
C1247 H1227 0.950 . S
C1247 C1243 1.385 . S
C1247 C1246 1.374 . S
C1248 C1245 1.499 . S
C1248 C1249 1.373 . S
C1248 C1250 1.389 . S
C1249 H1228 0.950 . S
C1249 C1248 1.373 . S
C1249 C1265 1.377 . S
C1250 C1248 1.389 . S
C1250 C1251 1.524 . S
C1250 C1264 1.377 . S
C1251 C1250 1.524 . S
C1251 C1252 1.397 . S
C1251 C1256 1.363 . S
C1252 H1229 0.950 . S
C1252 C1251 1.397 . S
C1252 C1253 1.334 . S
C1253 H1230 0.950 . S
C1253 C1252 1.334 . S
C1253 C1254 1.287 . S
C1254 C1253 1.287 . S
C1254 C1255 1.524 . S
C1254 H1273 0.913 . S
C1255 H1231 0.950 . S
C1255 C1254 1.524 . S
C1255 C1256 1.415 . S
C1256 H1232 0.950 . S
C1256 C1251 1.363 . S
C1256 C1255 1.415 . S
C1257 H1233 0.951 . S
C1257 C1258 1.366 . S
C1257 C1259 1.388 . S
C1258 C1257 1.366 . S
C1258 C1262 1.385 . S
C1259 H1234 0.951 . S
C1259 C1257 1.388 . S
C1259 C1260 1.366 . S
C1260 C1259 1.366 . S
C1260 C1261 1.414 . S
C1260 C1263 1.499 . S
C1261 H1235 0.950 . S
C1261 C1260 1.414 . S
C1261 C1262 1.374 . S
C1262 H1236 0.950 . S
C1262 C1258 1.385 . S
C1262 C1261 1.374 . S
C1263 C1260 1.499 . S
C1263 C1264 1.373 . S
C1263 C1265 1.389 . S
C1264 H1237 0.950 . S
C1264 C1250 1.377 . S
C1264 C1263 1.373 . S
C1265 C1249 1.377 . S
C1265 C1263 1.389 . S
C1265 C1266 1.524 . S
C1266 C1265 1.524 . S
C1266 C1267 1.397 . S
C1266 C1271 1.363 . S
C1267 H1238 0.950 . S
C1267 C1266 1.397 . S
C1267 C1268 1.334 . S
C1268 H1239 0.950 . S
C1268 C1267 1.334 . S
C1268 C1269 1.287 . S
C1269 C1268 1.287 . S
C1269 C1270 1.524 . S
C1269 H1272 0.999 . S
C1270 H1240 0.950 . S
C1270 C1269 1.524 . S
C1270 C1271 1.415 . S
C1271 H1241 0.950 . S
C1271 C1266 1.363 . S
C1271 C1270 1.415 . S
H1272 C1269 0.999 . S
H1273 C1254 0.913 . S
H1274 C1292 0.951 . S
H1275 C1294 0.951 . S
H1276 C1296 0.950 . S
H1277 C1297 0.950 . S
H1278 C1299 0.950 . S
H1279 C1302 0.950 . S
H1280 C1303 0.950 . S
H1281 C1305 0.950 . S
H1282 C1306 0.950 . S
H1283 C1307 0.951 . S
H1284 C1309 0.951 . S
H1285 C1311 0.950 . S
H1286 C1312 0.950 . S
H1287 C1314 0.950 . S
H1288 C1317 0.950 . S
H1289 C1318 0.950 . S
H1290 C1320 0.950 . S
H1291 C1321 0.950 . S
C1292 H1274 0.951 . S
C1292 C1293 1.366 . S
C1292 C1294 1.388 . S
C1293 C1292 1.366 . S
C1293 C1297 1.385 . S
C1294 H1275 0.951 . S
C1294 C1292 1.388 . S
C1294 C1295 1.366 . S
C1295 C1294 1.366 . S
C1295 C1296 1.414 . S
C1295 C1298 1.499 . S
C1296 H1276 0.950 . S
C1296 C1295 1.414 . S
C1296 C1297 1.374 . S
C1297 H1277 0.950 . S
C1297 C1293 1.385 . S
C1297 C1296 1.374 . S
C1298 C1295 1.499 . S
C1298 C1299 1.373 . S
C1298 C1300 1.389 . S
C1299 H1278 0.950 . S
C1299 C1298 1.373 . S
C1299 C1315 1.377 . S
C1300 C1298 1.389 . S
C1300 C1301 1.524 . S
C1300 C1314 1.377 . S
C1301 C1300 1.524 . S
C1301 C1302 1.397 . S
C1301 C1306 1.363 . S
C1302 H1279 0.950 . S
C1302 C1301 1.397 . S
C1302 C1303 1.334 . S
C1303 H1280 0.950 . S
C1303 C1302 1.334 . S
C1303 C1304 1.287 . S
C1304 C1303 1.287 . S
C1304 C1305 1.524 . S
C1304 H1323 0.913 . S
C1305 H1281 0.950 . S
C1305 C1304 1.524 . S
C1305 C1306 1.415 . S
C1306 H1282 0.950 . S
C1306 C1301 1.363 . S
C1306 C1305 1.415 . S
C1307 H1283 0.951 . S
C1307 C1308 1.366 . S
C1307 C1309 1.388 . S
C1308 C1307 1.366 . S
C1308 C1312 1.385 . S
C1309 H1284 0.951 . S
C1309 C1307 1.388 . S
C1309 C1310 1.366 . S
C1310 C1309 1.366 . S
C1310 C1311 1.414 . S
C1310 C1313 1.499 . S
C1311 H1285 0.950 . S
C1311 C1310 1.414 . S
C1311 C1312 1.374 . S
C1312 H1286 0.950 . S
C1312 C1308 1.385 . S
C1312 C1311 1.374 . S
C1313 C1310 1.499 . S
C1313 C1314 1.373 . S
C1313 C1315 1.389 . S
C1314 H1287 0.950 . S
C1314 C1300 1.377 . S
C1314 C1313 1.373 . S
C1315 C1299 1.377 . S
C1315 C1313 1.389 . S
C1315 C1316 1.524 . S
C1316 C1315 1.524 . S
C1316 C1317 1.397 . S
C1316 C1321 1.363 . S
C1317 H1288 0.950 . S
C1317 C1316 1.397 . S
C1317 C1318 1.334 . S
C1318 H1289 0.950 . S
C1318 C1317 1.334 . S
C1318 C1319 1.287 . S
C1319 C1318 1.287 . S
C1319 C1320 1.524 . S
C1319 H1322 0.999 . S
C1320 H1290 0.950 . S
C1320 C1319 1.524 . S
C1320 C1321 1.415 . S
C1321 H1291 0.950 . S
C1321 C1316 1.363 . S
C1321 C1320 1.415 . S
H1322 C1319 0.999 . S
H1323 C1304 0.913 . S
H1324 C1342 0.951 . S
H1325 C1344 0.951 . S
H1326 C1346 0.950 . S
H1327 C1347 0.950 . S
H1328 C1349 0.950 . S
H1329 C1352 0.950 . S
H1330 C1353 0.950 . S
H1331 C1355 0.950 . S
H1332 C1356 0.950 . S
H1333 C1357 0.951 . S
H1334 C1359 0.951 . S
H1335 C1361 0.950 . S
H1336 C1362 0.950 . S
H1337 C1364 0.950 . S
H1338 C1367 0.950 . S
H1339 C1368 0.950 . S
H1340 C1370 0.950 . S
H1341 C1371 0.950 . S
C1342 H1324 0.951 . S
C1342 C1343 1.366 . S
C1342 C1344 1.388 . S
C1343 C1342 1.366 . S
C1343 C1347 1.385 . S
C1344 H1325 0.951 . S
C1344 C1342 1.388 . S
C1344 C1345 1.366 . S
C1345 C1344 1.366 . S
C1345 C1346 1.414 . S
C1345 C1348 1.499 . S
C1346 H1326 0.950 . S
C1346 C1345 1.414 . S
C1346 C1347 1.374 . S
C1347 H1327 0.950 . S
C1347 C1343 1.385 . S
C1347 C1346 1.374 . S
C1348 C1345 1.499 . S
C1348 C1349 1.373 . S
C1348 C1350 1.389 . S
C1349 H1328 0.950 . S
C1349 C1348 1.373 . S
C1349 C1365 1.377 . S
C1350 C1348 1.389 . S
C1350 C1351 1.524 . S
C1350 C1364 1.377 . S
C1351 C1350 1.524 . S
C1351 C1352 1.397 . S
C1351 C1356 1.363 . S
C1352 H1329 0.950 . S
C1352 C1351 1.397 . S
C1352 C1353 1.334 . S
C1353 H1330 0.950 . S
C1353 C1352 1.334 . S
C1353 C1354 1.287 . S
C1354 C1353 1.287 . S
C1354 C1355 1.524 . S
C1354 H1373 0.913 . S
C1355 H1331 0.950 . S
C1355 C1354 1.524 . S
C1355 C1356 1.415 . S
C1356 H1332 0.950 . S
C1356 C1351 1.363 . S
C1356 C1355 1.415 . S
C1357 H1333 0.951 . S
C1357 C1358 1.366 . S
C1357 C1359 1.388 . S
C1358 C1357 1.366 . S
C1358 C1362 1.385 . S
C1359 H1334 0.951 . S
C1359 C1357 1.388 . S
C1359 C1360 1.366 . S
C1360 C1359 1.366 . S
C1360 C1361 1.414 . S
C1360 C1363 1.499 . S
C1361 H1335 0.950 . S
C1361 C1360 1.414 . S
C1361 C1362 1.374 . S
C1362 H1336 0.950 . S
C1362 C1358 1.385 . S
C1362 C1361 1.374 . S
C1363 C1360 1.499 . S
C1363 C1364 1.373 . S
C1363 C1365 1.389 . S
C1364 H1337 0.950 . S
C1364 C1350 1.377 . S
C1364 C1363 1.373 . S
C1365 C1349 1.377 . S
C1365 C1363 1.389 . S
C1365 C1366 1.524 . S
C1366 C1365 1.524 . S
C1366 C1367 1.397 . S
C1366 C1371 1.363 . S
C1367 H1338 0.950 . S
C1367 C1366 1.397 . S
C1367 C1368 1.334 . S
C1368 H1339 0.950 . S
C1368 C1367 1.334 . S
C1368 C1369 1.287 . S
C1369 C1368 1.287 . S
C1369 C1370 1.524 . S
C1369 H1372 0.999 . S
C1370 H1340 0.950 . S
C1370 C1369 1.524 . S
C1370 C1371 1.415 . S
C1371 H1341 0.950 . S
C1371 C1366 1.363 . S
C1371 C1370 1.415 . S
H1372 C1369 0.999 . S
H1373 C1354 0.913 . S
H1374 C1392 0.951 . S
H1375 C1394 0.951 . S
H1376 C1396 0.950 . S
H1377 C1397 0.950 . S
H1378 C1399 0.950 . S
H1379 C1402 0.950 . S
H1380 C1403 0.950 . S
H1381 C1405 0.950 . S
H1382 C1406 0.950 . S
H1383 C1407 0.951 . S
H1384 C1409 0.951 . S
H1385 C1411 0.950 . S
H1386 C1412 0.950 . S
H1387 C1414 0.950 . S
H1388 C1417 0.950 . S
H1389 C1418 0.950 . S
H1390 C1420 0.950 . S
H1391 C1421 0.950 . S
C1392 H1374 0.951 . S
C1392 C1393 1.366 . S
C1392 C1394 1.388 . S
C1393 C1392 1.366 . S
C1393 C1397 1.385 . S
C1394 H1375 0.951 . S
C1394 C1392 1.388 . S
C1394 C1395 1.366 . S
C1395 C1394 1.366 . S
C1395 C1396 1.414 . S
C1395 C1398 1.499 . S
C1396 H1376 0.950 . S
C1396 C1395 1.414 . S
C1396 C1397 1.374 . S
C1397 H1377 0.950 . S
C1397 C1393 1.385 . S
C1397 C1396 1.374 . S
C1398 C1395 1.499 . S
C1398 C1399 1.373 . S
C1398 C1400 1.389 . S
C1399 H1378 0.950 . S
C1399 C1398 1.373 . S
C1399 C1415 1.377 . S
C1400 C1398 1.389 . S
C1400 C1401 1.524 . S
C1400 C1414 1.377 . S
C1401 C1400 1.524 . S
C1401 C1402 1.397 . S
C1401 C1406 1.363 . S
C1402 H1379 0.950 . S
C1402 C1401 1.397 . S
C1402 C1403 1.334 . S
C1403 H1380 0.950 . S
C1403 C1402 1.334 . S
C1403 C1404 1.287 . S
C1404 C1403 1.287 . S
C1404 C1405 1.524 . S
C1404 H1423 0.913 . S
C1405 H1381 0.950 . S
C1405 C1404 1.524 . S
C1405 C1406 1.415 . S
C1406 H1382 0.950 . S
C1406 C1401 1.363 . S
C1406 C1405 1.415 . S
C1407 H1383 0.951 . S
C1407 C1408 1.366 . S
C1407 C1409 1.388 . S
C1408 C1407 1.366 . S
C1408 C1412 1.385 . S
C1409 H1384 0.951 . S
C1409 C1407 1.388 . S
C1409 C1410 1.366 . S
C1410 C1409 1.366 . S
C1410 C1411 1.414 . S
C1410 C1413 1.499 . S
C1411 H1385 0.950 . S
C1411 C1410 1.414 . S
C1411 C1412 1.374 . S
C1412 H1386 0.950 . S
C1412 C1408 1.385 . S
C1412 C1411 1.374 . S
C1413 C1410 1.499 . S
C1413 C1414 1.373 . S
C1413 C1415 1.389 . S
C1414 H1387 0.950 . S
C1414 C1400 1.377 . S
C1414 C1413 1.373 . S
C1415 C1399 1.377 . S
C1415 C1413 1.389 . S
C1415 C1416 1.524 . S
C1416 C1415 1.524 . S
C1416 C1417 1.397 . S
C1416 C1421 1.363 . S
C1417 H1388 0.950 . S
C1417 C1416 1.397 . S
C1417 C1418 1.334 . S
C1418 H1389 0.950 . S
C1418 C1417 1.334 . S
C1418 C1419 1.287 . S
C1419 C1418 1.287 . S
C1419 C1420 1.524 . S
C1419 H1422 0.999 . S
C1420 H1390 0.950 . S
C1420 C1419 1.524 . S
C1420 C1421 1.415 . S
C1421 H1391 0.950 . S
C1421 C1416 1.363 . S
C1421 C1420 1.415 . S
H1422 C1419 0.999 . S
H1423 C1404 0.913 . S
H1424 C1442 0.951 . S
H1425 C1444 0.951 . S
H1426 C1446 0.950 . S
H1427 C1447 0.950 . S
H1428 C1449 0.950 . S
H1429 C1452 0.950 . S
H1430 C1453 0.950 . S
H1431 C1455 0.950 . S
H1432 C1456 0.950 . S
H1433 C1457 0.951 . S
H1434 C1459 0.951 . S
H1435 C1461 0.950 . S
H1436 C1462 0.950 . S
H1437 C1464 0.950 . S
H1438 C1467 0.950 . S
H1439 C1468 0.950 . S
H1440 C1470 0.950 . S
H1441 C1471 0.950 . S
C1442 H1424 0.951 . S
C1442 C1443 1.366 . S
C1442 C1444 1.388 . S
C1443 C1442 1.366 . S
C1443 C1447 1.385 . S
C1444 H1425 0.951 . S
C1444 C1442 1.388 . S
C1444 C1445 1.366 . S
C1445 C1444 1.366 . S
C1445 C1446 1.414 . S
C1445 C1448 1.499 . S
C1446 H1426 0.950 . S
C1446 C1445 1.414 . S
C1446 C1447 1.374 . S
C1447 H1427 0.950 . S
C1447 C1443 1.385 . S
C1447 C1446 1.374 . S
C1448 C1445 1.499 . S
C1448 C1449 1.373 . S
C1448 C1450 1.389 . S
C1449 H1428 0.950 . S
C1449 C1448 1.373 . S
C1449 C1465 1.377 1_554 S
C1450 C1448 1.389 . S
C1450 C1451 1.524 . S
C1450 C1464 1.377 1_554 S
C1451 C1450 1.524 . S
C1451 C1452 1.397 . S
C1451 C1456 1.363 1_554 S
C1452 H1429 0.950 . S
C1452 C1451 1.397 . S
C1452 C1453 1.334 . S
C1453 H1430 0.950 . S
C1453 C1452 1.334 . S
C1453 C1454 1.287 . S
C1454 C1453 1.287 . S
C1454 C1455 1.524 1_554 S
C1454 H1473 0.913 . S
C1455 H1431 0.950 . S
C1455 C1454 1.524 1_556 S
C1455 C1456 1.415 . S
C1456 H1432 0.950 . S
C1456 C1451 1.363 1_556 S
C1456 C1455 1.415 . S
C1457 H1433 0.951 . S
C1457 C1458 1.366 . S
C1457 C1459 1.388 . S
C1458 C1457 1.366 . S
C1458 C1462 1.385 . S
C1459 H1434 0.951 . S
C1459 C1457 1.388 . S
C1459 C1460 1.366 . S
C1460 C1459 1.366 . S
C1460 C1461 1.414 . S
C1460 C1463 1.499 . S
C1461 H1435 0.950 . S
C1461 C1460 1.414 . S
C1461 C1462 1.374 . S
C1462 H1436 0.950 . S
C1462 C1458 1.385 . S
C1462 C1461 1.374 . S
C1463 C1460 1.499 . S
C1463 C1464 1.373 . S
C1463 C1465 1.389 . S
C1464 H1437 0.950 . S
C1464 C1450 1.377 1_556 S
C1464 C1463 1.373 . S
C1465 C1449 1.377 1_556 S
C1465 C1463 1.389 . S
C1465 C1466 1.524 . S
C1466 C1465 1.524 . S
C1466 C1467 1.397 . S
C1466 C1471 1.363 1_556 S
C1467 H1438 0.950 . S
C1467 C1466 1.397 . S
C1467 C1468 1.334 . S
C1468 H1439 0.950 . S
C1468 C1467 1.334 . S
C1468 C1469 1.287 . S
C1469 C1468 1.287 . S
C1469 C1470 1.524 1_556 S
C1469 H1472 0.999 . S
C1470 H1440 0.950 . S
C1470 C1469 1.524 1_554 S
C1470 C1471 1.415 . S
C1471 H1441 0.950 . S
C1471 C1466 1.363 1_554 S
C1471 C1470 1.415 . S
H1472 C1469 0.999 . S
H1473 C1454 0.913 . S
H1474 C1492 0.951 . S
H1475 C1494 0.951 . S
H1476 C1496 0.950 . S
H1477 C1497 0.950 . S
H1478 C1499 0.950 . S
H1479 C1502 0.950 . S
H1480 C1503 0.950 . S
H1481 C1505 0.950 . S
H1482 C1506 0.950 . S
H1483 C1507 0.951 . S
H1484 C1509 0.951 . S
H1485 C1511 0.950 . S
H1486 C1512 0.950 . S
H1487 C1514 0.950 . S
H1488 C1517 0.950 . S
H1489 C1518 0.950 . S
H1490 C1520 0.950 . S
H1491 C1521 0.950 . S
C1492 H1474 0.951 . S
C1492 C1493 1.366 . S
C1492 C1494 1.388 . S
C1493 C1492 1.366 . S
C1493 C1497 1.385 . S
C1494 H1475 0.951 . S
C1494 C1492 1.388 . S
C1494 C1495 1.366 . S
C1495 C1494 1.366 . S
C1495 C1496 1.414 . S
C1495 C1498 1.499 . S
C1496 H1476 0.950 . S
C1496 C1495 1.414 . S
C1496 C1497 1.374 . S
C1497 H1477 0.950 . S
C1497 C1493 1.385 . S
C1497 C1496 1.374 . S
C1498 C1495 1.499 . S
C1498 C1499 1.373 . S
C1498 C1500 1.389 . S
C1499 H1478 0.950 . S
C1499 C1498 1.373 . S
C1499 C1515 1.377 . S
C1500 C1498 1.389 . S
C1500 C1501 1.524 . S
C1500 C1514 1.377 . S
C1501 C1500 1.524 . S
C1501 C1502 1.397 . S
C1501 C1506 1.363 . S
C1502 H1479 0.950 . S
C1502 C1501 1.397 . S
C1502 C1503 1.334 . S
C1503 H1480 0.950 . S
C1503 C1502 1.334 . S
C1503 C1504 1.287 . S
C1504 C1503 1.287 . S
C1504 C1505 1.524 . S
C1504 H1523 0.913 . S
C1505 H1481 0.950 . S
C1505 C1504 1.524 . S
C1505 C1506 1.415 . S
C1506 H1482 0.950 . S
C1506 C1501 1.363 . S
C1506 C1505 1.415 . S
C1507 H1483 0.951 . S
C1507 C1508 1.366 . S
C1507 C1509 1.388 . S
C1508 C1507 1.366 . S
C1508 C1512 1.385 . S
C1509 H1484 0.951 . S
C1509 C1507 1.388 . S
C1509 C1510 1.366 . S
C1510 C1509 1.366 . S
C1510 C1511 1.414 . S
C1510 C1513 1.499 . S
C1511 H1485 0.950 . S
C1511 C1510 1.414 . S
C1511 C1512 1.374 . S
C1512 H1486 0.950 . S
C1512 C1508 1.385 . S
C1512 C1511 1.374 . S
C1513 C1510 1.499 . S
C1513 C1514 1.373 . S
C1513 C1515 1.389 . S
C1514 H1487 0.950 . S
C1514 C1500 1.377 . S
C1514 C1513 1.373 . S
C1515 C1499 1.377 . S
C1515 C1513 1.389 . S
C1515 C1516 1.524 . S
C1516 C1515 1.524 . S
C1516 C1517 1.397 . S
C1516 C1521 1.363 . S
C1517 H1488 0.950 . S
C1517 C1516 1.397 . S
C1517 C1518 1.334 . S
C1518 H1489 0.950 . S
C1518 C1517 1.334 . S
C1518 C1519 1.287 . S
C1519 C1518 1.287 . S
C1519 C1520 1.524 . S
C1519 H1522 0.999 . S
C1520 H1490 0.950 . S
C1520 C1519 1.524 . S
C1520 C1521 1.415 . S
C1521 H1491 0.950 . S
C1521 C1516 1.363 . S
C1521 C1520 1.415 . S
H1522 C1519 0.999 . S
H1523 C1504 0.913 . S
H1524 C1542 0.951 . S
H1525 C1544 0.951 . S
H1526 C1546 0.950 . S
H1527 C1547 0.950 . S
H1528 C1549 0.950 1_455 S
H1529 C1552 0.950 . S
H1530 C1553 0.950 . S
H1531 C1555 0.950 . S
H1532 C1556 0.950 . S
H1533 C1557 0.951 . S
H1534 C1559 0.951 . S
H1535 C1561 0.950 . S
H1536 C1562 0.950 . S
H1537 C1564 0.950 . S
H1538 C1567 0.950 1_655 S
H1539 C1568 0.950 . S
H1540 C1570 0.950 . S
H1541 C1571 0.950 . S
C1542 H1524 0.951 . S
C1542 C1543 1.366 . S
C1542 C1544 1.388 . S
C1543 C1542 1.366 . S
C1543 C1547 1.385 . S
C1544 H1525 0.951 . S
C1544 C1542 1.388 . S
C1544 C1545 1.366 . S
C1545 C1544 1.366 . S
C1545 C1546 1.414 . S
C1545 C1548 1.499 . S
C1546 H1526 0.950 . S
C1546 C1545 1.414 . S
C1546 C1547 1.374 . S
C1547 H1527 0.950 . S
C1547 C1543 1.385 . S
C1547 C1546 1.374 . S
C1548 C1545 1.499 . S
C1548 C1549 1.373 . S
C1548 C1550 1.389 . S
C1549 H1528 0.950 1_655 S
C1549 C1548 1.373 . S
C1549 C1565 1.377 1_554 S
C1550 C1548 1.389 . S
C1550 C1551 1.524 . S
C1550 C1564 1.377 1_554 S
C1551 C1550 1.524 . S
C1551 C1552 1.397 . S
C1551 C1556 1.363 . S
C1552 H1529 0.950 . S
C1552 C1551 1.397 . S
C1552 C1553 1.334 . S
C1553 H1530 0.950 . S
C1553 C1552 1.334 . S
C1553 C1554 1.287 . S
C1554 C1553 1.287 . S
C1554 C1555 1.524 . S
C1554 H1573 0.913 . S
C1555 H1531 0.950 . S
C1555 C1554 1.524 . S
C1555 C1556 1.415 . S
C1556 H1532 0.950 . S
C1556 C1551 1.363 . S
C1556 C1555 1.415 . S
C1557 H1533 0.951 . S
C1557 C1558 1.366 . S
C1557 C1559 1.388 . S
C1558 C1557 1.366 . S
C1558 C1562 1.385 . S
C1559 H1534 0.951 . S
C1559 C1557 1.388 . S
C1559 C1560 1.366 . S
C1560 C1559 1.366 . S
C1560 C1561 1.414 . S
C1560 C1563 1.499 . S
C1561 H1535 0.950 . S
C1561 C1560 1.414 . S
C1561 C1562 1.374 . S
C1562 H1536 0.950 . S
C1562 C1558 1.385 . S
C1562 C1561 1.374 . S
C1563 C1560 1.499 . S
C1563 C1564 1.373 . S
C1563 C1565 1.389 . S
C1564 H1537 0.950 . S
C1564 C1550 1.377 1_556 S
C1564 C1563 1.373 . S
C1565 C1549 1.377 1_556 S
C1565 C1563 1.389 . S
C1565 C1566 1.524 1_655 S
C1566 C1565 1.524 1_455 S
C1566 C1567 1.397 . S
C1566 C1571 1.363 . S
C1567 H1538 0.950 1_455 S
C1567 C1566 1.397 . S
C1567 C1568 1.334 . S
C1568 H1539 0.950 . S
C1568 C1567 1.334 . S
C1568 C1569 1.287 . S
C1569 C1568 1.287 . S
C1569 C1570 1.524 . S
C1569 H1572 0.999 . S
C1570 H1540 0.950 . S
C1570 C1569 1.524 . S
C1570 C1571 1.415 . S
C1571 H1541 0.950 . S
C1571 C1566 1.363 . S
C1571 C1570 1.415 . S
H1572 C1569 0.999 . S
H1573 C1554 0.913 . S
H1574 C1592 0.951 . S
H1575 C1594 0.951 . S
H1576 C1596 0.950 . S
H1577 C1597 0.950 . S
H1578 C1599 0.950 . S
H1579 C1602 0.967 . S
H1580 C1603 0.950 . S
H1581 C1605 0.950 . S
H1582 C1606 0.950 . S
H1583 C1607 0.951 . S
H1584 C1609 0.951 . S
H1585 C1611 0.950 . S
H1586 C1612 0.950 . S
H1587 C1614 0.950 . S
H1588 C1617 0.950 . S
H1589 C1618 0.950 . S
H1590 C1620 0.950 . S
H1591 C1621 0.950 . S
C1592 H1574 0.951 . S
C1592 C1593 1.366 . S
C1592 C1594 1.388 . S
C1593 C1592 1.366 . S
C1593 C1597 1.385 . S
C1594 H1575 0.951 . S
C1594 C1592 1.388 . S
C1594 C1595 1.366 . S
C1595 C1594 1.366 . S
C1595 C1596 1.414 . S
C1595 C1598 1.499 . S
C1596 H1576 0.950 . S
C1596 C1595 1.414 . S
C1596 C1597 1.374 . S
C1597 H1577 0.950 . S
C1597 C1593 1.385 . S
C1597 C1596 1.374 . S
C1598 C1595 1.499 . S
C1598 C1599 1.373 . S
C1598 C1600 1.389 . S
C1599 H1578 0.950 . S
C1599 C1598 1.373 . S
C1599 C1615 1.377 . S
C1600 C1598 1.389 . S
C1600 C1601 1.524 . S
C1600 C1614 1.377 . S
C1601 C1600 1.524 . S
C1601 C1602 1.367 1_565 S
C1601 C1606 1.363 . S
C1602 H1579 0.967 . S
C1602 C1601 1.367 1_545 S
C1602 C1603 1.347 . S
C1603 H1580 0.950 . S
C1603 C1602 1.347 . S
C1603 C1604 1.287 1_545 S
C1604 C1603 1.287 1_565 S
C1604 C1605 1.524 . S
C1604 H1623 0.913 1_565 S
C1605 H1581 0.950 . S
C1605 C1604 1.524 . S
C1605 C1606 1.415 . S
C1606 H1582 0.950 . S
C1606 C1601 1.363 . S
C1606 C1605 1.415 . S
C1607 H1583 0.951 . S
C1607 C1608 1.366 . S
C1607 C1609 1.388 . S
C1608 C1607 1.366 . S
C1608 C1612 1.385 . S
C1609 H1584 0.951 . S
C1609 C1607 1.388 . S
C1609 C1610 1.366 . S
C1610 C1609 1.366 . S
C1610 C1611 1.414 . S
C1610 C1613 1.499 . S
C1611 H1585 0.950 . S
C1611 C1610 1.414 . S
C1611 C1612 1.374 . S
C1612 H1586 0.950 . S
C1612 C1608 1.385 . S
C1612 C1611 1.374 . S
C1613 C1610 1.499 . S
C1613 C1614 1.373 . S
C1613 C1615 1.389 . S
C1614 H1587 0.950 . S
C1614 C1600 1.377 . S
C1614 C1613 1.373 . S
C1615 C1599 1.377 . S
C1615 C1613 1.389 . S
C1615 C1616 1.524 . S
C1616 C1615 1.524 . S
C1616 C1617 1.397 . S
C1616 C1621 1.363 . S
C1617 H1588 0.950 . S
C1617 C1616 1.397 . S
C1617 C1618 1.334 . S
C1618 H1589 0.950 . S
C1618 C1617 1.334 . S
C1618 C1619 1.287 . S
C1619 C1618 1.287 . S
C1619 C1620 1.524 . S
C1619 H1622 0.999 . S
C1620 H1590 0.950 . S
C1620 C1619 1.524 . S
C1620 C1621 1.415 . S
C1621 H1591 0.950 . S
C1621 C1616 1.363 . S
C1621 C1620 1.415 . S
H1622 C1619 0.999 . S
H1623 C1604 0.913 1_545 S
H1624 C1642 0.951 . S
H1625 C1644 0.951 . S
H1626 C1646 0.950 . S
H1627 C1647 0.950 . S
H1628 C1649 0.950 . S
H1629 C1652 0.950 . S
H1630 C1653 0.950 . S
H1631 C1655 0.950 . S
H1632 C1656 0.950 1_554 S
H1633 C1657 0.951 . S
H1634 C1659 0.951 . S
H1635 C1661 0.950 . S
H1636 C1662 0.950 . S
H1637 C1664 0.950 . S
H1638 C1667 0.950 . S
H1639 C1668 0.950 . S
H1640 C1670 0.950 . S
H1641 C1671 0.950 1_556 S
C1642 H1624 0.951 . S
C1642 C1643 1.366 . S
C1642 C1644 1.388 . S
C1643 C1642 1.366 . S
C1643 C1647 1.385 . S
C1644 H1625 0.951 . S
C1644 C1642 1.388 . S
C1644 C1645 1.366 . S
C1645 C1644 1.366 . S
C1645 C1646 1.414 . S
C1645 C1648 1.499 . S
C1646 H1626 0.950 . S
C1646 C1645 1.414 . S
C1646 C1647 1.374 . S
C1647 H1627 0.950 . S
C1647 C1643 1.385 . S
C1647 C1646 1.374 . S
C1648 C1645 1.499 . S
C1648 C1649 1.373 . S
C1648 C1650 1.389 . S
C1649 H1628 0.950 . S
C1649 C1648 1.373 . S
C1649 C1665 1.377 1_556 S
C1650 C1648 1.389 . S
C1650 C1651 1.524 . S
C1650 C1664 1.377 1_556 S
C1651 C1650 1.524 . S
C1651 C1652 1.397 . S
C1651 C1656 1.363 . S
C1652 H1629 0.950 . S
C1652 C1651 1.397 . S
C1652 C1653 1.334 . S
C1653 H1630 0.950 . S
C1653 C1652 1.334 . S
C1653 C1654 1.287 . S
C1654 C1653 1.287 . S
C1654 C1655 1.524 . S
C1654 H1673 0.913 . S
C1655 H1631 0.950 . S
C1655 C1654 1.524 . S
C1655 C1656 1.415 . S
C1656 H1632 0.950 1_556 S
C1656 C1651 1.363 . S
C1656 C1655 1.415 . S
C1657 H1633 0.951 . S
C1657 C1658 1.366 . S
C1657 C1659 1.388 . S
C1658 C1657 1.366 . S
C1658 C1662 1.385 . S
C1659 H1634 0.951 . S
C1659 C1657 1.388 . S
C1659 C1660 1.366 . S
C1660 C1659 1.366 . S
C1660 C1661 1.414 . S
C1660 C1663 1.499 . S
C1661 H1635 0.950 . S
C1661 C1660 1.414 . S
C1661 C1662 1.374 . S
C1662 H1636 0.950 . S
C1662 C1658 1.385 . S
C1662 C1661 1.374 . S
C1663 C1660 1.499 . S
C1663 C1664 1.373 . S
C1663 C1665 1.389 . S
C1664 H1637 0.950 . S
C1664 C1650 1.377 1_554 S
C1664 C1663 1.373 . S
C1665 C1649 1.377 1_554 S
C1665 C1663 1.389 . S
C1665 C1666 1.524 . S
C1666 C1665 1.524 . S
C1666 C1667 1.397 . S
C1666 C1671 1.363 . S
C1667 H1638 0.950 . S
C1667 C1666 1.397 . S
C1667 C1668 1.334 . S
C1668 H1639 0.950 . S
C1668 C1667 1.334 . S
C1668 C1669 1.287 . S
C1669 C1668 1.287 . S
C1669 C1670 1.524 . S
C1669 H1672 0.999 . S
C1670 H1640 0.950 . S
C1670 C1669 1.524 . S
C1670 C1671 1.415 . S
C1671 H1641 0.950 1_554 S
C1671 C1666 1.363 . S
C1671 C1670 1.415 . S
H1672 C1669 0.999 . S
H1673 C1654 0.913 . S
H1674 C1692 0.951 . S
H1675 C1694 0.951 . S
H1676 C1696 0.950 . S
H1677 C1697 0.950 . S
H1678 C1699 0.950 . S
H1679 C1702 0.950 . S
H1680 C1703 0.950 . S
H1681 C1705 0.950 . S
H1682 C1706 0.950 . S
H1683 C1707 0.951 . S
H1684 C1709 0.951 . S
H1685 C1711 0.950 . S
H1686 C1712 0.950 . S
H1687 C1714 0.950 . S
H1688 C1717 0.950 . S
H1689 C1718 0.950 . S
H1690 C1720 0.950 . S
H1691 C1721 0.950 . S
C1692 H1674 0.951 . S
C1692 C1693 1.366 . S
C1692 C1694 1.388 . S
C1693 C1692 1.366 . S
C1693 C1697 1.385 . S
C1694 H1675 0.951 . S
C1694 C1692 1.388 . S
C1694 C1695 1.366 . S
C1695 C1694 1.366 . S
C1695 C1696 1.414 . S
C1695 C1698 1.499 . S
C1696 H1676 0.950 . S
C1696 C1695 1.414 . S
C1696 C1697 1.374 . S
C1697 H1677 0.950 . S
C1697 C1693 1.385 . S
C1697 C1696 1.374 . S
C1698 C1695 1.499 . S
C1698 C1699 1.373 . S
C1698 C1700 1.389 . S
C1699 H1678 0.950 . S
C1699 C1698 1.373 . S
C1699 C1715 1.377 . S
C1700 C1698 1.389 . S
C1700 C1701 1.524 . S
C1700 C1714 1.377 . S
C1701 C1700 1.524 . S
C1701 C1702 1.397 . S
C1701 C1706 1.363 . S
C1702 H1679 0.950 . S
C1702 C1701 1.397 . S
C1702 C1703 1.334 . S
C1703 H1680 0.950 . S
C1703 C1702 1.334 . S
C1703 C1704 1.287 . S
C1704 C1703 1.287 . S
C1704 C1705 1.524 . S
C1704 H1723 0.913 . S
C1705 H1681 0.950 . S
C1705 C1704 1.524 . S
C1705 C1706 1.415 . S
C1706 H1682 0.950 . S
C1706 C1701 1.363 . S
C1706 C1705 1.415 . S
C1707 H1683 0.951 . S
C1707 C1708 1.366 . S
C1707 C1709 1.388 . S
C1708 C1707 1.366 . S
C1708 C1712 1.385 . S
C1709 H1684 0.951 . S
C1709 C1707 1.388 . S
C1709 C1710 1.366 . S
C1710 C1709 1.366 . S
C1710 C1711 1.414 . S
C1710 C1713 1.499 . S
C1711 H1685 0.950 . S
C1711 C1710 1.414 . S
C1711 C1712 1.374 . S
C1712 H1686 0.950 . S
C1712 C1708 1.385 . S
C1712 C1711 1.374 . S
C1713 C1710 1.499 . S
C1713 C1714 1.373 . S
C1713 C1715 1.389 . S
C1714 H1687 0.950 . S
C1714 C1700 1.377 . S
C1714 C1713 1.373 . S
C1715 C1699 1.377 . S
C1715 C1713 1.389 . S
C1715 C1716 1.524 . S
C1716 C1715 1.524 . S
C1716 C1717 1.397 . S
C1716 C1721 1.363 . S
C1717 H1688 0.950 . S
C1717 C1716 1.397 . S
C1717 C1718 1.334 . S
C1718 H1689 0.950 . S
C1718 C1717 1.334 . S
C1718 C1719 1.287 . S
C1719 C1718 1.287 . S
C1719 C1720 1.524 . S
C1719 H1722 0.999 . S
C1720 H1690 0.950 . S
C1720 C1719 1.524 . S
C1720 C1721 1.415 . S
C1721 H1691 0.950 . S
C1721 C1716 1.363 . S
C1721 C1720 1.415 . S
H1722 C1719 0.999 . S
H1723 C1704 0.913 . S
H1724 C1742 0.951 1_655 S
H1725 C1744 0.911 1_655 S
H1726 C1746 0.950 . S
H1727 C1747 0.950 . S
H1728 C1749 0.950 . S
H1729 C1752 0.950 . S
H1730 C1753 0.950 . S
H1731 C1755 0.950 . S
H1732 C1756 0.952 . S
H1733 C1757 0.951 . S
H1734 C1759 0.951 . S
H1735 C1761 0.950 1_655 S
H1736 C1762 0.950 1_655 S
H1737 C1764 0.950 . S
H1738 C1767 0.950 . S
H1739 C1768 0.950 . S
H1740 C1770 0.950 . S
H1741 C1771 0.950 . S
C1742 H1724 0.951 1_455 S
C1742 C1743 1.366 . S
C1742 C1744 1.388 . S
C1743 C1742 1.366 . S
C1743 C1747 1.385 . S
C1744 H1725 0.911 1_455 S
C1744 C1742 1.388 . S
C1744 C1745 1.366 . S
C1745 C1744 1.366 . S
C1745 C1746 1.414 . S
C1745 C1748 1.499 . S
C1746 H1726 0.950 . S
C1746 C1745 1.414 . S
C1746 C1747 1.374 . S
C1747 H1727 0.950 . S
C1747 C1743 1.385 . S
C1747 C1746 1.374 . S
C1748 C1745 1.499 . S
C1748 C1749 1.373 . S
C1748 C1750 1.389 . S
C1749 H1728 0.950 . S
C1749 C1748 1.373 . S
C1749 C1765 1.377 1_554 S
C1750 C1748 1.389 . S
C1750 C1751 1.524 . S
C1750 C1764 1.377 1_554 S
C1751 C1750 1.524 . S
C1751 C1752 1.397 . S
C1751 C1756 1.361 1_455 S
C1752 H1729 0.950 . S
C1752 C1751 1.397 . S
C1752 C1753 1.334 . S
C1753 H1730 0.950 . S
C1753 C1752 1.334 . S
C1753 C1754 1.287 . S
C1754 C1753 1.287 . S
C1754 C1755 1.524 1_455 S
C1754 H1773 0.913 . S
C1755 H1731 0.950 . S
C1755 C1754 1.524 1_655 S
C1755 C1756 1.415 . S
C1756 H1732 0.952 . S
C1756 C1751 1.361 1_655 S
C1756 C1755 1.415 . S
C1757 H1733 0.951 . S
C1757 C1758 1.366 . S
C1757 C1759 1.388 . S
C1758 C1757 1.366 . S
C1758 C1762 1.385 . S
C1759 H1734 0.951 . S
C1759 C1757 1.388 . S
C1759 C1760 1.366 . S
C1760 C1759 1.366 . S
C1760 C1761 1.414 . S
C1760 C1763 1.499 . S
C1761 H1735 0.950 1_455 S
C1761 C1760 1.414 . S
C1761 C1762 1.374 . S
C1762 H1736 0.950 1_455 S
C1762 C1758 1.385 . S
C1762 C1761 1.374 . S
C1763 C1760 1.499 . S
C1763 C1764 1.373 . S
C1763 C1765 1.389 . S
C1764 H1737 0.950 . S
C1764 C1750 1.377 1_556 S
C1764 C1763 1.373 . S
C1765 C1749 1.377 1_556 S
C1765 C1763 1.389 . S
C1765 C1766 1.524 . S
C1766 C1765 1.524 . S
C1766 C1767 1.397 . S
C1766 C1771 1.363 . S
C1767 H1738 0.950 . S
C1767 C1766 1.397 . S
C1767 C1768 1.334 . S
C1768 H1739 0.950 . S
C1768 C1767 1.334 . S
C1768 C1769 1.287 . S
C1769 C1768 1.287 . S
C1769 C1770 1.524 . S
C1769 H1772 0.999 . S
C1770 H1740 0.950 . S
C1770 C1769 1.524 . S
C1770 C1771 1.415 . S
C1771 H1741 0.950 . S
C1771 C1766 1.363 . S
C1771 C1770 1.415 . S
H1772 C1769 0.999 . S
H1773 C1754 0.913 . S
H1774 C1792 0.951 . S
H1775 C1794 0.951 . S
H1776 C1796 0.950 . S
H1777 C1797 0.950 . S
H1778 C1799 0.950 . S
H1779 C1802 0.950 . S
H1780 C1803 0.950 . S
H1781 C1805 0.950 . S
H1782 C1806 0.950 . S
H1783 C1807 0.951 . S
H1784 C1809 0.951 . S
H1785 C1811 0.950 . S
H1786 C1812 0.950 . S
H1787 C1814 0.950 . S
H1788 C1817 0.950 . S
H1789 C1818 0.950 . S
H1790 C1820 0.950 . S
H1791 C1821 0.950 . S
C1792 H1774 0.951 . S
C1792 C1793 1.366 . S
C1792 C1794 1.388 . S
C1793 C1792 1.366 . S
C1793 C1797 1.385 . S
C1794 H1775 0.951 . S
C1794 C1792 1.388 . S
C1794 C1795 1.366 . S
C1795 C1794 1.366 . S
C1795 C1796 1.414 . S
C1795 C1798 1.499 . S
C1796 H1776 0.950 . S
C1796 C1795 1.414 . S
C1796 C1797 1.374 . S
C1797 H1777 0.950 . S
C1797 C1793 1.385 . S
C1797 C1796 1.374 . S
C1798 C1795 1.499 . S
C1798 C1799 1.373 . S
C1798 C1800 1.389 . S
C1799 H1778 0.950 . S
C1799 C1798 1.373 . S
C1799 C1815 1.377 . S
C1800 C1798 1.389 . S
C1800 C1801 1.524 . S
C1800 C1814 1.377 . S
C1801 C1800 1.524 . S
C1801 C1802 1.397 . S
C1801 C1806 1.363 . S
C1802 H1779 0.950 . S
C1802 C1801 1.397 . S
C1802 C1803 1.334 . S
C1803 H1780 0.950 . S
C1803 C1802 1.334 . S
C1803 C1804 1.287 . S
C1804 C1803 1.287 . S
C1804 C1805 1.524 . S
C1804 H1823 0.913 . S
C1805 H1781 0.950 . S
C1805 C1804 1.524 . S
C1805 C1806 1.415 . S
C1806 H1782 0.950 . S
C1806 C1801 1.363 . S
C1806 C1805 1.415 . S
C1807 H1783 0.951 . S
C1807 C1808 1.366 . S
C1807 C1809 1.388 . S
C1808 C1807 1.366 . S
C1808 C1812 1.385 . S
C1809 H1784 0.951 . S
C1809 C1807 1.388 . S
C1809 C1810 1.366 . S
C1810 C1809 1.366 . S
C1810 C1811 1.414 . S
C1810 C1813 1.499 . S
C1811 H1785 0.950 . S
C1811 C1810 1.414 . S
C1811 C1812 1.374 . S
C1812 H1786 0.950 . S
C1812 C1808 1.385 . S
C1812 C1811 1.374 . S
C1813 C1810 1.499 . S
C1813 C1814 1.373 . S
C1813 C1815 1.389 . S
C1814 H1787 0.950 . S
C1814 C1800 1.377 . S
C1814 C1813 1.373 . S
C1815 C1799 1.377 . S
C1815 C1813 1.389 . S
C1815 C1816 1.524 . S
C1816 C1815 1.524 . S
C1816 C1817 1.397 1_545 S
C1816 C1821 1.363 . S
C1817 H1788 0.950 . S
C1817 C1816 1.397 1_565 S
C1817 C1818 1.334 . S
C1818 H1789 0.950 . S
C1818 C1817 1.334 . S
C1818 C1819 1.287 . S
C1819 C1818 1.287 . S
C1819 C1820 1.524 1_565 S
C1819 H1822 0.999 . S
C1820 H1790 0.950 . S
C1820 C1819 1.524 1_545 S
C1820 C1821 1.415 . S
C1821 H1791 0.950 . S
C1821 C1816 1.363 . S
C1821 C1820 1.415 . S
H1822 C1819 0.999 . S
H1823 C1804 0.913 . S
C243 C11 1.044 . S
C258 C109 1.045 . S
C293 C25 1.044 . S
C308 C67 1.044 . S
C343 C39 1.045 . S
C358 C81 1.045 . S
C393 C53 1.045 . S
C408 C95 1.044 . S
C443 C123 1.044 . S
C458 C221 1.045 . S
C493 C179 1.045 . S
C508 C137 1.045 . S
C543 C151 1.044 . S
C558 C193 1.044 . S
C593 C165 1.045 . S
C608 C207 1.045 . S
C643 C8 1.108 . S
C658 C139 1.129 . S
C693 C22 1.108 . S
C708 C153 1.130 . S
C743 C167 1.130 . S
C758 C36 1.108 . S
C793 C50 1.110 . S
C808 C125 1.129 . S
C843 C64 1.108 . S
C858 C223 1.129 . S
C893 C181 1.129 . S
C908 C78 1.109 . S
C943 C195 1.130 . S
C958 C92 1.109 . S
C993 C209 1.130 . S
C1008 C106 1.109 . S
C1043 C27 1.129 . S
C1058 C120 1.109 . S
C1093 C41 1.129 . S
C1108 C134 1.108 . S
C1143 C148 1.107 . S
C1158 C55 1.130 . S
C1193 C13 1.130 . S
C1208 C162 1.108 . S
C1243 C176 1.108 . S
C1258 C111 1.129 . S
C1293 C190 1.108 . S
C1308 C69 1.130 . S
C1343 C83 1.129 . S
C1358 C204 1.109 . S
C1393 C97 1.129 . S
C1408 C218 1.109 . S
C1443 C7 1.505 . S
C1458 C63 1.505 . S
C1493 C77 1.505 . S
C1508 C21 1.505 . S
C1543 C35 1.505 . S
C1558 C91 1.505 . S
C1593 C105 1.505 . S
C1608 C49 1.505 . S
C1643 C119 1.505 . S
C1658 C175 1.505 . S
C1693 C189 1.505 . S
C1708 C133 1.505 . S
C1743 C203 1.505 . S
C1758 C147 1.505 . S
C1793 C217 1.505 . S
C1808 C161 1.505 . S
