# Generated by pormake.
# Topology ske, (6)-cn, num edge types: 1
# Building blocks:
#     Node 0, Type 0, BuildingBlock: BETGAK_clean_sbu_0, # of connection points: 6
#     Node 1, Type 0, BuildingBlock: BETGAK_clean_sbu_0, # of connection points: 6
#     Node 2, Type 0, BuildingBlock: BETGAK_clean_sbu_0, # of connection points: 6
#     Node 3, Type 0, BuildingBlock: BETGAK_clean_sbu_0, # of connection points: 6
#     Node 4, Type 0, BuildingBlock: BETGAK_clean_sbu_0, # of connection points: 6
#     Node 5, Type 0, BuildingBlock: BETGAK_clean_sbu_0, # of connection points: 6
#     Node 6, Type 0, BuildingBlock: BETGAK_clean_sbu_0, # of connection points: 6
#     Node 7, Type 0, BuildingBlock: BETGAK_clean_sbu_0, # of connection points: 6
#     Edge 8, Type (0, 0), BuildingBlock: UVAHIK_clean_linker_0, # of connection points: 2
#     Edge 9, Type (0, 0), BuildingBlock: UVAHIK_clean_linker_0, # of connection points: 2
#     Edge 10, Type (0, 0), BuildingBlock: UVAHIK_clean_linker_0, # of connection points: 2
#     Edge 11, Type (0, 0), BuildingBlock: UVAHIK_clean_linker_0, # of connection points: 2
#     Edge 12, Type (0, 0), BuildingBlock: UVAHIK_clean_linker_0, # of connection points: 2
#     Edge 13, Type (0, 0), BuildingBlock: UVAHIK_clean_linker_0, # of connection points: 2
#     Edge 14, Type (0, 0), BuildingBlock: UVAHIK_clean_linker_0, # of connection points: 2
#     Edge 15, Type (0, 0), BuildingBlock: UVAHIK_clean_linker_0, # of connection points: 2
#     Edge 16, Type (0, 0), BuildingBlock: UVAHIK_clean_linker_0, # of connection points: 2
#     Edge 17, Type (0, 0), BuildingBlock: UVAHIK_clean_linker_0, # of connection points: 2
#     Edge 18, Type (0, 0), BuildingBlock: UVAHIK_clean_linker_0, # of connection points: 2
#     Edge 19, Type (0, 0), BuildingBlock: UVAHIK_clean_linker_0, # of connection points: 2
#     Edge 20, Type (0, 0), BuildingBlock: UVAHIK_clean_linker_0, # of connection points: 2
#     Edge 21, Type (0, 0), BuildingBlock: UVAHIK_clean_linker_0, # of connection points: 2
#     Edge 22, Type (0, 0), BuildingBlock: UVAHIK_clean_linker_0, # of connection points: 2
#     Edge 23, Type (0, 0), BuildingBlock: UVAHIK_clean_linker_0, # of connection points: 2
#     Edge 24, Type (0, 0), BuildingBlock: UVAHIK_clean_linker_0, # of connection points: 2
#     Edge 25, Type (0, 0), BuildingBlock: UVAHIK_clean_linker_0, # of connection points: 2
#     Edge 26, Type (0, 0), BuildingBlock: UVAHIK_clean_linker_0, # of connection points: 2
#     Edge 27, Type (0, 0), BuildingBlock: UVAHIK_clean_linker_0, # of connection points: 2
#     Edge 28, Type (0, 0), BuildingBlock: UVAHIK_clean_linker_0, # of connection points: 2
#     Edge 29, Type (0, 0), BuildingBlock: UVAHIK_clean_linker_0, # of connection points: 2
#     Edge 30, Type (0, 0), BuildingBlock: UVAHIK_clean_linker_0, # of connection points: 2
#     Edge 31, Type (0, 0), BuildingBlock: UVAHIK_clean_linker_0, # of connection points: 2
# Relax obj value: 0.197
# Max RMSD: 0.199
# Mean RMSD: 0.193
data_MOF--net-ske--node1-BETGAK_clean_sbu_0--edge1-UVAHIK_clean_linker_0
_symmetry_space_group_name_H-M    P1
_symmetry_Int_Tables_number       1
_symmetry_cell_setting            triclinic
loop_
_symmetry_equiv_pos_as_xyz
'x, y, z'
_cell_length_a     119.7116
_cell_length_b     38.134462
_cell_length_c     20.031091
_cell_angle_alpha  89.908312
_cell_angle_beta   89.858862
_cell_angle_gamma 84.473035
loop_
_atom_site_label
_atom_site_type_symbol
_atom_site_fract_x
_atom_site_fract_y
_atom_site_fract_z
_atom_type_partial_charge
La0 La 0.16014 0.25937 0.53359 0.0
La1 La 0.1358 0.25227 0.54167 0.0
C2 C 0.17979 0.27836 0.54268 0.0
C3 C 0.19033 0.27276 0.582 0.0
C4 C 0.19769 0.24191 0.57476 0.0
C5 C 0.20832 0.2391 0.60458 0.0
C6 C 0.21189 0.26708 0.64222 0.0
C7 C 0.20436 0.29744 0.6512 0.0
C8 C 0.19375 0.30027 0.62127 0.0
C9 C 0.15493 0.19324 0.52261 0.0
C10 C 0.14892 0.25019 0.67562 0.0
C11 C 0.11607 0.23357 0.53674 0.0
C12 C 0.10455 0.24286 0.51165 0.0
C13 C 0.09926 0.27732 0.51638 0.0
C14 C 0.08772 0.28404 0.50407 0.0
C15 C 0.08123 0.25649 0.48678 0.0
C16 C 0.08671 0.22239 0.47888 0.0
C17 C 0.09822 0.21569 0.4913 0.0
C18 C 0.14106 0.31879 0.54852 0.0
C19 C 0.14727 0.25915 0.39925 0.0
O20 O 0.17708 0.25239 0.5054 0.0
O21 O 0.17098 0.29514 0.57109 0.0
O22 O 0.16339 0.20579 0.49426 0.0
O23 O 0.1503 0.21656 0.56093 0.0
O24 O 0.15714 0.26307 0.64203 0.0
O25 O 0.14058 0.23743 0.64354 0.0
O26 O 0.11968 0.25387 0.58274 0.0
O27 O 0.12398 0.22275 0.49427 0.0
O28 O 0.13251 0.30692 0.57707 0.0
O29 O 0.14561 0.29456 0.51232 0.0
O30 O 0.13901 0.24665 0.43344 0.0
O31 O 0.15563 0.27229 0.43061 0.0
H32 H 0.19541 0.22031 0.54422 0.0
H33 H 0.21389 0.21547 0.59582 0.0
H34 H 0.20673 0.31932 0.68067 0.0
H35 H 0.18832 0.3245 0.6273 0.0
H36 H 0.10393 0.29881 0.53204 0.0
H37 H 0.08383 0.31072 0.50955 0.0
H38 H 0.08201 0.20043 0.46637 0.0
H39 H 0.10209 0.18886 0.48803 0.0
La40 La 0.87951 0.25013 0.52183 0.0
La41 La 0.90402 0.25186 0.52773 0.0
C42 C 0.85949 0.23469 0.53341 0.0
C43 C 0.84916 0.24013 0.57493 0.0
C44 C 0.84222 0.27207 0.5732 0.0
C45 C 0.83165 0.27494 0.60413 0.0
C46 C 0.82773 0.24591 0.63728 0.0
C47 C 0.83487 0.2144 0.64102 0.0
C48 C 0.84543 0.21154 0.61006 0.0
C49 C 0.88611 0.31396 0.50561 0.0
C50 C 0.89162 0.2561 0.66428 0.0
C51 C 0.92448 0.26053 0.51464 0.0
C52 C 0.93662 0.2644 0.50631 0.0
C53 C 0.94404 0.23522 0.48768 0.0
C54 C 0.95556 0.23812 0.48176 0.0
C55 C 0.96 0.27032 0.4942 0.0
C56 C 0.95255 0.29964 0.51241 0.0
C57 C 0.94099 0.2967 0.51839 0.0
C58 C 0.89686 0.18875 0.54503 0.0
C59 C 0.89197 0.24876 0.38759 0.0
O60 O 0.86246 0.26147 0.49904 0.0
O61 O 0.86817 0.21547 0.55796 0.0
O62 O 0.87755 0.30252 0.47654 0.0
O63 O 0.89022 0.2908 0.54596 0.0
O64 O 0.88247 0.24991 0.63069 0.0
O65 O 0.90108 0.26129 0.63328 0.0
O66 O 0.92028 0.23094 0.50145 0.0
O67 O 0.91704 0.28586 0.53455 0.0
O68 O 0.90491 0.20072 0.57844 0.0
O69 O 0.89326 0.21163 0.50288 0.0
O70 O 0.90009 0.26183 0.42146 0.0
O71 O 0.88369 0.23544 0.41951 0.0
H72 H 0.84475 0.29455 0.54594 0.0
H73 H 0.82637 0.29951 0.59953 0.0
H74 H 0.83224 0.19166 0.667 0.0
H75 H 0.85052 0.18648 0.61176 0.0
H76 H 0.94097 0.20987 0.47837 0.0
H77 H 0.96102 0.21481 0.46877 0.0
H78 H 0.95563 0.32496 0.52165 0.0
H79 H 0.93549 0.31968 0.53276 0.0
La80 La 0.13569 0.75224 0.49534 0.0
La81 La 0.16007 0.75957 0.5024 0.0
C82 C 0.11601 0.73313 0.50082 0.0
C83 C 0.10444 0.74234 0.52557 0.0
C84 C 0.09912 0.77675 0.52047 0.0
C85 C 0.08756 0.78338 0.53244 0.0
C86 C 0.08107 0.75577 0.54974 0.0
C87 C 0.08657 0.72171 0.55798 0.0
C88 C 0.09811 0.71511 0.54591 0.0
C89 C 0.14084 0.81883 0.48859 0.0
C90 C 0.14722 0.75885 0.63726 0.0
C91 C 0.17965 0.7791 0.49311 0.0
C92 C 0.19014 0.77441 0.45326 0.0
C93 C 0.19566 0.74088 0.44007 0.0
C94 C 0.20632 0.73749 0.41017 0.0
C95 C 0.21169 0.76751 0.39269 0.0
C96 C 0.20594 0.80096 0.40393 0.0
C97 C 0.19532 0.80432 0.43397 0.0
C98 C 0.15485 0.69341 0.51382 0.0
C99 C 0.14881 0.75046 0.36086 0.0
O100 O 0.11962 0.75323 0.45427 0.0
O101 O 0.12389 0.72276 0.54362 0.0
O102 O 0.13225 0.807 0.46079 0.0
O103 O 0.14551 0.79452 0.52422 0.0
O104 O 0.13896 0.74638 0.6034 0.0
O105 O 0.15557 0.77207 0.60563 0.0
O106 O 0.17706 0.75237 0.52897 0.0
O107 O 0.1708 0.79606 0.46565 0.0
O108 O 0.16334 0.70591 0.54174 0.0
O109 O 0.15025 0.71681 0.47561 0.0
O110 O 0.15705 0.76329 0.39407 0.0
O111 O 0.14047 0.73769 0.39327 0.0
H112 H 0.1038 0.79827 0.50479 0.0
H113 H 0.08366 0.81002 0.52671 0.0
H114 H 0.08187 0.69971 0.5705 0.0
H115 H 0.10199 0.68831 0.54945 0.0
H116 H 0.19188 0.71728 0.45435 0.0
H117 H 0.21041 0.71131 0.40137 0.0
H118 H 0.20984 0.82467 0.39193 0.0
H119 H 0.1913 0.83045 0.44418 0.0
La120 La 0.90379 0.75179 0.50798 0.0
La121 La 0.87919 0.75067 0.51417 0.0
C122 C 0.92426 0.76027 0.52075 0.0
C123 C 0.93641 0.76401 0.5289 0.0
C124 C 0.9438 0.73474 0.54747 0.0
C125 C 0.95532 0.73753 0.55334 0.0
C126 C 0.9598 0.76971 0.54092 0.0
C127 C 0.95238 0.79911 0.52274 0.0
C128 C 0.94082 0.79628 0.51681 0.0
C129 C 0.89652 0.68888 0.4918 0.0
C130 C 0.89161 0.7493 0.64834 0.0
C131 C 0.85913 0.73557 0.50324 0.0
C132 C 0.84889 0.7405 0.46141 0.0
C133 C 0.84325 0.77403 0.44959 0.0
C134 C 0.83272 0.77747 0.41847 0.0
C135 C 0.82757 0.7475 0.39849 0.0
C136 C 0.83343 0.71409 0.40828 0.0
C137 C 0.84393 0.71068 0.43948 0.0
C138 C 0.88605 0.81424 0.52939 0.0
C139 C 0.89144 0.75595 0.37155 0.0
O140 O 0.92003 0.7307 0.53403 0.0
O141 O 0.91685 0.78568 0.50089 0.0
O142 O 0.90466 0.7005 0.45832 0.0
O143 O 0.89287 0.71197 0.53344 0.0
O144 O 0.89983 0.76191 0.61418 0.0
O145 O 0.88326 0.73635 0.61679 0.0
O146 O 0.86211 0.76286 0.53578 0.0
O147 O 0.8678 0.71579 0.47985 0.0
O148 O 0.8774 0.80326 0.55876 0.0
O149 O 0.89005 0.7908 0.48934 0.0
O150 O 0.88224 0.75006 0.4053 0.0
O151 O 0.9009 0.761 0.40237 0.0
H152 H 0.9407 0.70942 0.55679 0.0
H153 H 0.96075 0.71416 0.56631 0.0
H154 H 0.95549 0.82442 0.51351 0.0
H155 H 0.93534 0.81932 0.50249 0.0
H156 H 0.84682 0.79759 0.466 0.0
H157 H 0.82854 0.80363 0.41086 0.0
H158 H 0.82971 0.69039 0.39436 0.0
H159 H 0.84802 0.68451 0.44869 0.0
La160 La 0.66172 0.76442 0.03521 0.0
La161 La 0.63718 0.76418 0.04238 0.0
C162 C 0.68185 0.77885 0.04593 0.0
C163 C 0.69202 0.77397 0.08851 0.0
C164 C 0.69758 0.74043 0.10113 0.0
C165 C 0.70805 0.73697 0.13301 0.0
C166 C 0.7132 0.76693 0.15298 0.0
C167 C 0.70741 0.80036 0.14242 0.0
C168 C 0.69697 0.8038 0.11045 0.0
C169 C 0.65474 0.70137 1.01773 0.0
C170 C 0.64968 0.75832 0.17815 0.0
C171 C 0.61652 0.758 0.0322 0.0
C172 C 0.60424 0.75617 0.02592 0.0
C173 C 0.59709 0.78726 1.0167 0.0
C174 C 0.58544 0.78642 1.01478 0.0
C175 C 0.58061 0.75444 0.0218 0.0
C176 C 0.58777 0.72316 0.02957 0.0
C177 C 0.59946 0.72404 0.03191 0.0
C178 C 0.64482 0.8267 0.05881 0.0
C179 C 0.64914 0.76655 0.90138 0.0
O180 O 0.67879 0.75133 1.0145 0.0
O181 O 0.67323 0.79927 0.06806 0.0
O182 O 0.66333 0.71261 0.98832 0.0
O183 O 0.65077 0.72424 0.05915 0.0
O184 O 0.65884 0.76439 0.14425 0.0
O185 O 0.64019 0.75366 0.14743 0.0
O186 O 0.62105 0.78712 0.01965 0.0
O187 O 0.62375 0.73147 0.04903 0.0
O188 O 0.63683 0.81508 0.09347 0.0
O189 O 0.64819 0.80364 1.01656 0.0
O190 O 0.64086 0.75438 0.93572 0.0
O191 O 0.6576 0.779 0.93273 0.0
H192 H 0.69401 0.71686 0.08477 0.0
H193 H 0.71218 0.71079 0.14119 0.0
H194 H 0.71114 0.82405 0.15632 0.0
H195 H 0.69294 0.82998 0.10065 0.0
H196 H 0.60048 0.81248 1.01192 0.0
H197 H 0.58021 0.81092 1.00767 0.0
H198 H 0.58432 0.69811 0.03551 0.0
H199 H 0.60475 0.69966 0.03925 0.0
La200 La 0.37819 0.74917 0.03472 0.0
La201 La 0.40272 0.74953 0.04128 0.0
C202 C 0.35806 0.73465 0.04591 0.0
C203 C 0.34786 0.73951 0.08841 0.0
C204 C 0.3424 0.77309 0.10199 0.0
C205 C 0.3319 0.77662 0.13373 0.0
C206 C 0.32659 0.7467 0.1526 0.0
C207 C 0.33228 0.7132 0.14111 0.0
C208 C 0.34276 0.70969 0.10929 0.0
C209 C 0.38514 0.81227 1.01699 0.0
C210 C 0.39021 0.75519 0.17733 0.0
C211 C 0.42336 0.75605 0.03034 0.0
C212 C 0.43564 0.75809 0.02377 0.0
C213 C 0.44288 0.72703 1.01704 0.0
C214 C 0.45451 0.72822 1.01361 0.0
C215 C 0.45925 0.76055 1.01643 0.0
C216 C 0.45197 0.79173 0.02263 0.0
C217 C 0.4403 0.7905 0.02638 0.0
C218 C 0.39512 0.68694 0.05801 0.0
C219 C 0.39078 0.74698 0.90056 0.0
O220 O 0.36112 0.76215 1.01415 0.0
O221 O 0.36668 0.71432 0.06824 0.0
O222 O 0.37656 0.80104 0.98778 0.0
O223 O 0.38911 0.78936 0.05834 0.0
O224 O 0.38106 0.74907 0.14366 0.0
O225 O 0.3997 0.75998 0.14638 0.0
O226 O 0.41891 0.72668 0.01925 0.0
O227 O 0.41607 0.7826 0.04625 0.0
O228 O 0.40311 0.69855 0.0924 0.0
O229 O 0.39174 0.71005 1.01582 0.0
O230 O 0.39906 0.75914 0.93455 0.0
O231 O 0.38231 0.73456 0.93227 0.0
H232 H 0.34609 0.79665 0.08647 0.0
H233 H 0.32786 0.80284 0.14266 0.0
H234 H 0.32844 0.68954 0.15414 0.0
H235 H 0.3467 0.6835 0.09876 0.0
H236 H 0.43958 0.70157 1.01552 0.0
H237 H 0.45979 0.70359 1.0102 0.0
H238 H 0.45527 0.81716 0.02418 0.0
H239 H 0.43493 0.81488 0.03154 0.0
La240 La 0.637 0.2646 0.99625 0.0
La241 La 0.66158 0.26397 1.00269 0.0
C242 C 0.61634 0.25851 1.00676 0.0
C243 C 0.60405 0.25663 1.01323 0.0
C244 C 0.59689 0.28768 0.0226 0.0
C245 C 0.58525 0.28679 0.02451 0.0
C246 C 0.58043 0.25481 1.01733 0.0
C247 C 0.5876 0.22357 1.00947 0.0
C248 C 0.5993 0.2245 1.00715 0.0
C249 C 0.64478 0.32689 0.98009 0.0
C250 C 0.649 0.2664 0.13693 0.0
C251 C 0.68182 0.27739 0.99155 0.0
C252 C 0.69199 0.27232 0.94855 0.0
C253 C 0.69903 0.24057 0.94971 0.0
C254 C 0.70948 0.23797 0.9175 0.0
C255 C 0.7132 0.26708 0.88364 0.0
C256 C 0.70596 0.2984 0.88049 0.0
C257 C 0.69551 0.301 0.91271 0.0
C258 C 0.65428 0.20121 0.01974 0.0
C259 C 0.64949 0.25895 0.86009 0.0
O260 O 0.62086 0.28768 0.01872 0.0
O261 O 0.62357 0.23192 0.99037 0.0
O262 O 0.63671 0.3157 0.94582 0.0
O263 O 0.64817 0.30357 0.0219 0.0
O264 O 0.64065 0.25467 0.10289 0.0
O265 O 0.65753 0.27847 0.10529 0.0
O266 O 0.67862 0.24988 0.02267 0.0
O267 O 0.67326 0.29838 0.97027 0.0
O268 O 0.66291 0.21194 0.04929 0.0
O269 O 0.65048 0.22443 0.97859 0.0
O270 O 0.65868 0.26463 0.89373 0.0
O271 O 0.63998 0.25443 0.89106 0.0
H272 H 0.60027 0.3129 0.02746 0.0
H273 H 0.58 0.31126 0.03171 0.0
H274 H 0.58417 0.19851 1.0034 0.0
H275 H 0.6046 0.20015 0.99969 0.0
H276 H 0.69668 0.21805 0.97756 0.0
H277 H 0.71486 0.21355 0.92171 0.0
H278 H 0.70844 0.3212 0.85404 0.0
H279 H 0.69035 0.32594 0.91143 0.0
La280 La 0.40261 0.24927 0.99641 0.0
La281 La 0.37804 0.24989 1.00351 0.0
C282 C 0.42325 0.25555 1.00696 0.0
C283 C 0.43552 0.25754 1.01329 0.0
C284 C 0.44276 0.22645 0.01951 0.0
C285 C 0.45438 0.22764 0.02294 0.0
C286 C 0.45912 0.25999 0.02061 0.0
C287 C 0.45184 0.2912 1.01488 0.0
C288 C 0.44018 0.28997 1.01113 0.0
C289 C 0.39484 0.187 0.98053 0.0
C290 C 0.39059 0.24712 0.13741 0.0
C291 C 0.35777 0.23673 0.99274 0.0
C292 C 0.34758 0.24237 0.95018 0.0
C293 C 0.34008 0.27292 0.95706 0.0
C294 C 0.32966 0.27576 0.92488 0.0
C295 C 0.32641 0.24803 0.88531 0.0
C296 C 0.33407 0.21798 0.87666 0.0
C297 C 0.3445 0.21515 0.90885 0.0
C298 C 0.38534 0.31265 0.02009 0.0
C299 C 0.39015 0.25501 0.86056 0.0
O300 O 0.41878 0.22614 1.01769 0.0
O301 O 0.41598 0.28223 0.99155 0.0
O302 O 0.40292 0.19825 0.94606 0.0
O303 O 0.39144 0.21024 0.02242 0.0
O304 O 0.39894 0.25889 0.10316 0.0
O305 O 0.38206 0.23512 0.10598 0.0
O306 O 0.36101 0.26389 0.0245 0.0
O307 O 0.36631 0.21587 0.97066 0.0
O308 O 0.37671 0.30192 0.04994 0.0
O309 O 0.38914 0.28944 0.97891 0.0
O310 O 0.38095 0.24927 0.89449 0.0
O311 O 0.39964 0.2596 0.89126 0.0
H312 H 0.43947 0.20098 0.02069 0.0
H313 H 0.45967 0.203 0.02599 0.0
H314 H 0.45515 0.31664 1.01371 0.0
H315 H 0.43481 0.31438 1.00639 0.0
H316 H 0.34207 0.29421 0.98932 0.0
H317 H 0.32395 0.29911 0.93347 0.0
H318 H 0.33194 0.19631 0.84583 0.0
H319 H 0.35001 0.19108 0.90307 0.0
C320 C 0.22966 0.29503 0.66772 0.0
C321 C 0.22357 0.26524 0.66929 0.0
C322 C 0.24074 0.29315 0.69078 0.0
C323 C 0.26549 0.22953 0.72562 0.0
H324 H 0.27577 0.30707 0.826 0.0
C325 C 0.30884 0.21977 0.85642 0.0
C326 C 0.31486 0.2497 0.85629 0.0
C327 C 0.29783 0.2216 0.83231 0.0
C328 C 0.27309 0.28535 0.79729 0.0
H329 H 0.22443 0.21017 0.69792 0.0
H330 H 0.24373 0.20689 0.73802 0.0
H331 H 0.25636 0.31032 0.78814 0.0
H332 H 0.314 0.30492 0.82877 0.0
H333 H 0.29482 0.3081 0.78661 0.0
H334 H 0.28223 0.20457 0.73473 0.0
C335 C 0.23997 0.23164 0.71799 0.0
C336 C 0.26193 0.2872 0.77561 0.0
C337 C 0.22888 0.23354 0.69501 0.0
C338 C 0.30959 0.28144 0.83058 0.0
C339 C 0.29856 0.28328 0.80646 0.0
C340 C 0.27666 0.22769 0.74726 0.0
C341 C 0.24608 0.2614 0.71598 0.0
C342 C 0.25797 0.25931 0.73949 0.0
C343 C 0.2925 0.25343 0.80738 0.0
C344 C 0.28062 0.25557 0.78345 0.0
H345 H 0.22597 0.31973 0.64712 0.0
H346 H 0.24521 0.31647 0.68743 0.0
H347 H 0.26281 0.2078 0.697 0.0
H348 H 0.31252 0.19502 0.8769 0.0
H349 H 0.29339 0.19819 0.83483 0.0
C350 C 0.72966 0.23471 0.82329 0.0
C351 C 0.72479 0.26539 0.855 0.0
C352 C 0.74071 0.23278 0.79912 0.0
C353 C 0.76741 0.27381 0.81933 0.0
H354 H 0.77536 0.22736 0.65151 0.0
C355 C 0.81119 0.27867 0.69623 0.0
C356 C 0.81606 0.24792 0.66477 0.0
C357 C 0.8001 0.28081 0.71974 0.0
C358 C 0.77333 0.24007 0.69889 0.0
H359 H 0.72786 0.31808 0.88612 0.0
H360 H 0.74695 0.31498 0.84283 0.0
H361 H 0.75599 0.23112 0.69074 0.0
H362 H 0.81292 0.19536 0.63317 0.0
H363 H 0.79376 0.19881 0.67537 0.0
H364 H 0.78475 0.28273 0.82754 0.0
C365 C 0.74228 0.29222 0.83722 0.0
C366 C 0.7622 0.24224 0.72141 0.0
C367 C 0.73125 0.29417 0.86127 0.0
C368 C 0.80954 0.21931 0.65789 0.0
C369 C 0.79847 0.22147 0.6813 0.0
C370 C 0.77855 0.27163 0.79682 0.0
C371 C 0.7472 0.26143 0.80616 0.0
C372 C 0.75908 0.25914 0.78195 0.0
C373 C 0.79356 0.25229 0.71229 0.0
C374 C 0.78167 0.25471 0.7363 0.0
H375 H 0.72494 0.21212 0.81702 0.0
H376 H 0.74423 0.20852 0.77602 0.0
H377 H 0.76538 0.2865 0.86673 0.0
H378 H 0.81596 0.30113 0.70294 0.0
H379 H 0.7966 0.30511 0.74277 0.0
C380 C 0.3067 0.77536 0.15518 0.0
C381 C 0.31496 0.7502 0.18089 0.0
C382 C 0.29564 0.7774 0.17891 0.0
C383 C 0.2756 0.72474 0.26696 0.0
H384 H 0.25827 0.81522 0.28905 0.0
C385 C 0.2316 0.73895 0.39191 0.0
C386 C 0.2234 0.76414 0.36568 0.0
C387 C 0.24272 0.73696 0.36912 0.0
C388 C 0.26293 0.78969 0.2824 0.0
H389 H 0.31803 0.70815 0.25349 0.0
H390 H 0.29877 0.7118 0.295 0.0
H391 H 0.27772 0.81287 0.25166 0.0
H392 H 0.22051 0.8063 0.29318 0.0
H393 H 0.23984 0.80273 0.25326 0.0
H394 H 0.2608 0.70156 0.29762 0.0
C395 C 0.30081 0.72956 0.25552 0.0
C396 C 0.27412 0.78834 0.26098 0.0
C397 C 0.31187 0.72751 0.23176 0.0
C398 C 0.22661 0.78693 0.3153 0.0
C399 C 0.23773 0.78492 0.29247 0.0
C400 C 0.26441 0.72609 0.28837 0.0
C401 C 0.29251 0.75436 0.22907 0.0
C402 C 0.28061 0.75584 0.25287 0.0
C403 C 0.24597 0.76008 0.31939 0.0
C404 C 0.25791 0.75858 0.29632 0.0
H405 H 0.3087 0.79288 0.11521 0.0
H406 H 0.28947 0.7965 0.15659 0.0
H407 H 0.28026 0.69921 0.26026 0.0
H408 H 0.22951 0.72135 0.43151 0.0
H409 H 0.24884 0.71782 0.39177 0.0
C410 C 0.72772 0.78579 0.23334 0.0
C411 C 0.7248 0.76356 0.1815 0.0
C412 C 0.73874 0.78387 0.25743 0.0
C413 C 0.76563 0.72597 0.26153 0.0
H414 H 0.77849 0.81286 0.3028 0.0
C415 C 0.81295 0.72865 0.31881 0.0
C416 C 0.81593 0.75081 0.37064 0.0
C417 C 0.8019 0.73052 0.29527 0.0
C418 C 0.77501 0.78829 0.29223 0.0
H419 H 0.73131 0.72187 0.11442 0.0
H420 H 0.75047 0.71849 0.15634 0.0
H421 H 0.75913 0.81495 0.26449 0.0
H422 H 0.80947 0.7923 0.43831 0.0
H423 H 0.79025 0.79561 0.39727 0.0
H424 H 0.78151 0.69932 0.28921 0.0
C425 C 0.7442 0.7371 0.17918 0.0
C426 C 0.76387 0.78948 0.27028 0.0
C427 C 0.73318 0.73901 0.15512 0.0
C428 C 0.80756 0.77523 0.39759 0.0
C429 C 0.79651 0.77709 0.37407 0.0
C430 C 0.77676 0.72478 0.28346 0.0
C431 C 0.74717 0.75968 0.23035 0.0
C432 C 0.75902 0.75834 0.25457 0.0
C433 C 0.79349 0.75459 0.32289 0.0
C434 C 0.78162 0.75592 0.29908 0.0
H435 H 0.72146 0.80467 0.25556 0.0
H436 H 0.74064 0.80124 0.29769 0.0
H437 H 0.76215 0.7014 0.25096 0.0
H438 H 0.81919 0.70988 0.29614 0.0
H439 H 0.79996 0.71321 0.255 0.0
C440 C 0.15099 0.86872 0.53449 0.0
C441 C 0.14255 0.85697 0.49386 0.0
C442 C 0.15227 0.9049 0.54035 0.0
C443 C 0.13691 0.99418 0.51337 0.0
H444 H 0.16663 0.02612 0.52159 0.0
C445 C 0.16017 0.13135 0.48406 0.0
C446 C 0.15303 0.15514 0.52193 0.0
C447 C 0.15877 0.09528 0.48341 0.0
C448 C 0.15825 0.01778 0.51902 0.0
H449 H 0.12893 0.87412 0.42682 0.0
H450 H 0.13118 0.9368 0.43638 0.0
H451 H 0.16457 0.96328 0.51406 0.0
H452 H 0.13866 0.15954 0.58822 0.0
H453 H 0.13617 0.09633 0.58725 0.0
H454 H 0.13061 0.0488 0.51695 0.0
C455 C 0.13673 0.91832 0.46478 0.0
C456 C 0.15706 0.98154 0.51547 0.0
C457 C 0.13549 0.88223 0.45885 0.0
C458 C 0.14432 0.14191 0.55864 0.0
C459 C 0.14288 0.10567 0.55776 0.0
C460 C 0.1381 0.03045 0.5172 0.0
C461 C 0.14511 0.93033 0.50584 0.0
C462 C 0.14638 0.9691 0.512 0.0
C463 C 0.15014 0.08173 0.52044 0.0
C464 C 0.1488 0.04289 0.51945 0.0
H465 H 0.15656 0.84996 0.5622 0.0
H466 H 0.15875 0.91295 0.57291 0.0
H467 H 0.12853 0.98581 0.51172 0.0
H468 H 0.16692 0.14061 0.45479 0.0
H469 H 0.16441 0.07804 0.45302 0.0
C470 C 0.88552 0.37206 0.44798 0.0
C471 C 0.88828 0.3516 0.50488 0.0
C472 C 0.8866 0.40828 0.44759 0.0
C473 C 0.89829 0.48096 0.54576 0.0
H474 H 0.87817 0.53967 0.43128 0.0
C475 C 0.89057 0.63593 0.55271 0.0
C476 C 0.89446 0.65115 0.49413 0.0
C477 C 0.88965 0.59951 0.55611 0.0
C478 C 0.88382 0.52355 0.46353 0.0
H479 H 0.89445 0.35289 0.60615 0.0
H480 H 0.8958 0.41641 0.6073 0.0
H481 H 0.87694 0.47634 0.43456 0.0
H482 H 0.9001 0.64048 0.39274 0.0
H483 H 0.89796 0.57716 0.39777 0.0
H484 H 0.90473 0.52916 0.57654 0.0
C485 C 0.89315 0.40457 0.56169 0.0
C486 C 0.88325 0.48702 0.46499 0.0
C487 C 0.89233 0.36802 0.56135 0.0
C488 C 0.89707 0.62946 0.43849 0.0
C489 C 0.89587 0.59329 0.44133 0.0
C490 C 0.89866 0.51767 0.54543 0.0
C491 C 0.89018 0.42548 0.50493 0.0
C492 C 0.89059 0.46489 0.50538 0.0
C493 C 0.89231 0.57787 0.50044 0.0
C494 C 0.89151 0.53923 0.50376 0.0
H495 H 0.88247 0.35999 0.40348 0.0
H496 H 0.8846 0.42269 0.40193 0.0
H497 H 0.90423 0.46527 0.57683 0.0
H498 H 0.88856 0.65197 0.59649 0.0
H499 H 0.88684 0.58823 0.60215 0.0
C500 C 0.8931 0.86724 0.47359 0.0
C501 C 0.88845 0.85167 0.52958 0.0
C502 C 0.89429 0.90356 0.47272 0.0
C503 C 0.89968 0.97798 0.57032 0.0
H504 H 0.87956 0.03875 0.45965 0.0
C505 C 0.89763 0.1293 0.5985 0.0
C506 C 0.89498 0.15086 0.54286 0.0
C507 C 0.8967 0.09298 0.59574 0.0
C508 C 0.88543 0.02238 0.49003 0.0
H509 H 0.88181 0.86151 0.62917 0.0
H510 H 0.88439 0.92453 0.62868 0.0
H511 H 0.87907 0.97494 0.45449 0.0
H512 H 0.88923 0.15138 0.44052 0.0
H513 H 0.88814 0.08794 0.43407 0.0
H514 H 0.90642 0.02455 0.60436 0.0
C515 C 0.88687 0.90882 0.58513 0.0
C516 C 0.88507 0.98571 0.48718 0.0
C517 C 0.8854 0.87282 0.58535 0.0
C518 C 0.89124 0.13542 0.48444 0.0
C519 C 0.89057 0.09889 0.48103 0.0
C520 C 0.90023 0.01452 0.57213 0.0
C521 C 0.89116 0.92465 0.5285 0.0
C522 C 0.89211 0.96323 0.5278 0.0
C523 C 0.89338 0.07689 0.53653 0.0
C524 C 0.893 0.03753 0.53274 0.0
H525 H 0.89546 0.85159 0.42979 0.0
H526 H 0.89765 0.91521 0.42854 0.0
H527 H 0.90522 0.96114 0.60203 0.0
H528 H 0.90045 0.14055 0.6444 0.0
H529 H 0.8986 0.07763 0.64046 0.0
C530 C 0.1441 0.64225 0.47922 0.0
C531 C 0.15297 0.65529 0.51442 0.0
C532 C 0.14266 0.60599 0.48013 0.0
C533 C 0.1381 0.53055 0.52158 0.0
H534 H 0.16459 0.46346 0.51796 0.0
C535 C 0.13588 0.38204 0.57976 0.0
C536 C 0.14274 0.35696 0.54306 0.0
C537 C 0.13708 0.41815 0.5737 0.0
C538 C 0.15707 0.48169 0.51846 0.0
H539 H 0.16717 0.64043 0.57882 0.0
H540 H 0.16468 0.57784 0.58047 0.0
H541 H 0.16658 0.52636 0.51032 0.0
H542 H 0.15636 0.3503 0.47155 0.0
H543 H 0.15846 0.41335 0.46053 0.0
H544 H 0.12858 0.48584 0.52916 0.0
C545 C 0.1589 0.59525 0.55134 0.0
C546 C 0.15823 0.51796 0.51483 0.0
C547 C 0.16028 0.63132 0.55076 0.0
C548 C 0.15095 0.36891 0.5006 0.0
C549 C 0.15217 0.40513 0.49456 0.0
C550 C 0.13695 0.49426 0.52551 0.0
C551 C 0.1501 0.58188 0.51586 0.0
C552 C 0.14877 0.54303 0.51684 0.0
C553 C 0.14521 0.43039 0.53078 0.0
C554 C 0.14642 0.4692 0.52446 0.0
H555 H 0.13831 0.66002 0.45089 0.0
H556 H 0.13582 0.59679 0.4519 0.0
H557 H 0.13062 0.54888 0.52374 0.0
H558 H 0.12951 0.37376 0.61325 0.0
H559 H 0.13169 0.43649 0.60345 0.0
C560 C 0.64882 0.64623 0.07151 0.0
C561 C 0.6523 0.66404 1.01491 0.0
C562 C 0.64796 0.60971 0.06936 0.0
C563 C 0.65691 0.53005 0.96295 0.0
H564 H 0.63683 0.48439 0.07942 0.0
C565 C 0.64436 0.38706 0.92965 0.0
C566 C 0.64672 0.36464 0.98459 0.0
C567 C 0.64542 0.42325 0.93467 0.0
C568 C 0.64251 0.49686 0.04686 0.0
H569 H 0.65696 0.65831 0.9109 0.0
H570 H 0.65471 0.5958 0.90531 0.0
H571 H 0.63716 0.54829 0.08423 0.0
H572 H 0.65202 0.36249 0.08798 0.0
H573 H 0.65348 0.42617 0.0974 0.0
H574 H 0.66177 0.47847 0.92353 0.0
C575 C 0.65322 0.60898 0.95273 0.0
C576 C 0.64278 0.53357 0.04976 0.0
C577 C 0.65437 0.64511 0.95549 0.0
C578 C 0.65022 0.37912 0.04469 0.0
C579 C 0.65098 0.41551 0.05024 0.0
C580 C 0.65642 0.49356 0.95899 0.0
C581 C 0.6503 0.59031 1.01003 0.0
C582 C 0.64997 0.55091 1.00769 0.0
C583 C 0.64857 0.43792 0.99528 0.0
C584 C 0.64924 0.47658 1.0009 0.0
H585 H 0.64726 0.66018 0.11818 0.0
H586 H 0.64581 0.59668 0.11497 0.0
H587 H 0.66285 0.5417 0.93102 0.0
H588 H 0.64163 0.37661 0.8828 0.0
H589 H 0.64351 0.43996 0.8916 0.0
C590 C 0.38545 0.86874 0.955 0.0
C591 C 0.38755 0.84964 1.01426 0.0
C592 C 0.38657 0.9049 0.95237 0.0
C593 C 0.39696 0.98013 0.04946 0.0
H594 H 0.37791 0.03546 0.92406 0.0
C595 C 0.38944 0.13458 0.0452 0.0
C596 C 0.39291 0.14924 0.985 0.0
C597 C 0.38869 0.09817 0.05067 0.0
C598 C 0.38327 0.02031 0.95929 0.0
H599 H 0.39259 0.85324 0.11741 0.0
H600 H 0.39398 0.91678 0.11446 0.0
H601 H 0.37688 0.97219 0.93129 0.0
H602 H 0.39796 0.13755 0.88297 0.0
H603 H 0.39611 0.07417 0.89165 0.0
H604 H 0.40287 0.02928 0.07916 0.0
C605 C 0.39184 0.90386 0.06885 0.0
C606 C 0.38282 0.98379 0.96309 0.0
C607 C 0.39101 0.86733 0.07085 0.0
C608 C 0.39526 0.12696 0.9299 0.0
C609 C 0.39421 0.09076 0.93485 0.0
C610 C 0.39719 0.01686 0.04672 0.0
C611 C 0.38948 0.92343 1.00968 0.0
C612 C 0.38977 0.96285 1.00753 0.0
C613 C 0.39109 0.07591 0.99554 0.0
C614 C 0.39045 0.03723 1.00106 0.0
H615 H 0.38287 0.85565 0.91041 0.0
H616 H 0.38507 0.91822 0.90506 0.0
H617 H 0.40259 0.96535 0.08369 0.0
H618 H 0.38765 0.1511 0.08861 0.0
H619 H 0.38622 0.08737 0.09791 0.0
C620 C 0.3857 0.36965 0.08023 0.0
C621 C 0.38797 0.34982 0.02186 0.0
C622 C 0.38721 0.40558 0.08185 0.0
C623 C 0.38468 0.48422 0.98522 0.0
H624 H 0.40517 0.52219 0.10919 0.0
C625 C 0.39005 0.63431 0.99335 0.0
C626 C 0.39341 0.64902 0.0534 0.0
C627 C 0.38959 0.59779 0.9875 0.0
C628 C 0.39921 0.51239 0.07509 0.0
H629 H 0.39363 0.35197 0.91931 0.0
H630 H 0.39585 0.41557 0.92138 0.0
H631 H 0.40428 0.45875 0.10277 0.0
H632 H 0.39843 0.63737 0.15526 0.0
H633 H 0.39692 0.57435 0.14704 0.0
H634 H 0.37905 0.53747 0.95993 0.0
C635 C 0.3931 0.40292 0.96615 0.0
C636 C 0.39884 0.47583 0.07093 0.0
C637 C 0.39189 0.3666 0.96508 0.0
C638 C 0.39589 0.62669 0.10818 0.0
C639 C 0.39516 0.59034 0.10296 0.0
C640 C 0.38483 0.52088 0.99046 0.0
C641 C 0.39073 0.42273 0.02456 0.0
C642 C 0.39158 0.46139 0.02599 0.0
C643 C 0.39223 0.57504 0.04211 0.0
C644 C 0.39209 0.5357 0.0357 0.0
H645 H 0.38266 0.35736 0.12467 0.0
H646 H 0.3853 0.42026 0.12741 0.0
H647 H 0.3789 0.47372 0.95071 0.0
H648 H 0.38818 0.65088 0.95003 0.0
H649 H 0.38746 0.58748 0.93939 0.0
C650 C 0.6478 0.14723 0.96497 0.0
C651 C 0.65168 0.164 0.02165 0.0
C652 C 0.64663 0.11089 0.96613 0.0
C653 C 0.64097 0.03778 0.07139 0.0
H654 H 0.66076 0.97644 0.95964 0.0
C655 C 0.64407 0.88689 0.10889 0.0
C656 C 0.64653 0.86464 0.05404 0.0
C657 C 0.64477 0.92326 0.10355 0.0
C658 C 0.65497 0.99295 0.99039 0.0
H659 H 0.65696 0.15642 0.1244 0.0
H660 H 0.65438 0.09348 0.12733 0.0
H661 H 0.66085 0.04023 0.95027 0.0
H662 H 0.6517 0.86292 0.95044 0.0
H663 H 0.65238 0.92636 0.93961 0.0
H664 H 0.6347 0.99131 0.11004 0.0
C665 C 0.65248 0.10818 0.08176 0.0
C666 C 0.65509 0.02963 0.98506 0.0
C667 C 0.65394 0.14414 0.08004 0.0
C668 C 0.64985 0.87943 0.9938 0.0
C669 C 0.65029 0.91597 0.98784 0.0
C670 C 0.64063 1.00121 0.07565 0.0
C671 C 0.649 0.09104 0.02456 0.0
C672 C 0.64819 0.05236 0.02609 0.0
C673 C 0.64766 0.93865 0.04252 0.0
C674 C 0.64776 0.97801 0.036 0.0
H675 H 0.64607 0.16189 0.91918 0.0
H676 H 0.64391 0.09824 0.92142 0.0
H677 H 0.63553 0.05478 0.10343 0.0
H678 H 0.64156 0.87614 0.15611 0.0
H679 H 0.64302 0.93919 0.14767 0.0
C680 C 0.15579 0.27264 0.28843 0.0
C681 C 0.14709 0.25914 0.3249 0.0
C682 C 0.15591 0.27166 0.21856 0.0
C683 C 0.14444 0.22592 0.07413 0.0
H684 H 0.1543 0.30426 0.97349 0.0
C685 C 0.14042 0.23568 0.78602 0.0
C686 C 0.14912 0.24937 0.74995 0.0
C687 C 0.14028 0.23632 0.85594 0.0
C688 C 0.15166 0.28193 1.00073 0.0
H689 H 0.13163 0.23424 0.31584 0.0
H690 H 0.13177 0.23287 0.19393 0.0
H691 H 0.15358 0.30709 0.09496 0.0
H692 H 0.16461 0.2741 0.75973 0.0
H693 H 0.16443 0.27487 0.88159 0.0
H694 H 0.14251 0.20078 0.97983 0.0
C695 C 0.13859 0.24384 0.21949 0.0
C696 C 0.15123 0.28357 0.07059 0.0
C697 C 0.13847 0.24486 0.28951 0.0
C698 C 0.15776 0.26336 0.78574 0.0
C699 C 0.15761 0.26404 0.85575 0.0
C700 C 0.14486 0.22429 1.00424 0.0
C701 C 0.14734 0.25713 0.183 0.0
C702 C 0.14763 0.25558 0.10834 0.0
C703 C 0.14883 0.25071 0.89186 0.0
C704 C 0.14849 0.25226 0.96651 0.0
H705 H 0.16261 0.28372 0.31382 0.0
H706 H 0.16287 0.2817 0.19244 0.0
H707 H 0.1418 0.2036 0.10139 0.0
H708 H 0.13359 0.22482 0.76028 0.0
H709 H 0.13331 0.22622 0.88179 0.0
C710 C 0.88295 0.23822 0.27719 0.0
C711 C 0.89203 0.24935 0.31331 0.0
C712 C 0.88284 0.2394 0.20733 0.0
C713 C 0.89592 0.28092 0.062 0.0
H714 H 0.88353 0.20659 0.96267 0.0
C715 C 0.9006 0.26663 0.77491 0.0
C716 C 0.89131 0.25716 0.73856 0.0
C717 C 0.90051 0.2665 0.84482 0.0
C718 C 0.8869 0.22779 0.98961 0.0
H719 H 0.90817 0.27025 0.30377 0.0
H720 H 0.90808 0.2717 0.18199 0.0
H721 H 0.88394 0.20417 0.08422 0.0
H722 H 0.87457 0.24037 0.74782 0.0
H723 H 0.87441 0.24021 0.86975 0.0
H724 H 0.89898 0.30428 0.96713 0.0
C725 C 0.90093 0.26261 0.20769 0.0
C726 C 0.88714 0.22643 0.05949 0.0
C727 C 0.90103 0.26155 0.27767 0.0
C728 C 0.88188 0.24782 0.77405 0.0
C729 C 0.88181 0.24749 0.84404 0.0
C730 C 0.89573 0.28218 0.99209 0.0
C731 C 0.89182 0.25162 0.17147 0.0
C732 C 0.89164 0.25298 0.09678 0.0
C733 C 0.89115 0.25671 0.88037 0.0
C734 C 0.89121 0.25564 0.95494 0.0
H735 H 0.87583 0.22886 0.30286 0.0
H736 H 0.87559 0.23124 0.1815 0.0
H737 H 0.89927 0.30219 0.08879 0.0
H738 H 0.90803 0.27394 0.74943 0.0
H739 H 0.90789 0.27338 0.87103 0.0
C740 C 0.15765 0.76355 0.25035 0.0
C741 C 0.14901 0.74963 0.28654 0.0
C742 C 0.1575 0.76417 0.18035 0.0
C743 C 0.14476 0.72427 0.03265 0.0
H744 H 0.15349 0.80696 0.94084 0.0
C745 C 0.13842 0.74453 0.74733 0.0
C746 C 0.14705 0.75879 0.71161 0.0
C747 C 0.13853 0.74357 0.81735 0.0
C748 C 0.15114 0.78347 0.96553 0.0
H749 H 0.13346 0.72514 0.27691 0.0
H750 H 0.13318 0.72643 0.1554 0.0
H751 H 0.15419 0.80429 0.06233 0.0
H752 H 0.16257 0.78334 0.72211 0.0
H753 H 0.16281 0.7814 0.84349 0.0
H754 H 0.14171 0.70346 0.9358 0.0
C755 C 0.14015 0.73653 0.18095 0.0
C756 C 0.15155 0.78192 0.03538 0.0
C757 C 0.14029 0.73595 0.25086 0.0
C758 C 0.15575 0.77228 0.74775 0.0
C759 C 0.15586 0.77135 0.81762 0.0
C760 C 0.14434 0.72582 0.96277 0.0
C761 C 0.14872 0.75084 0.14464 0.0
C762 C 0.14838 0.7523 0.06999 0.0
C763 C 0.14728 0.75688 0.8535 0.0
C764 C 0.14754 0.75542 0.92816 0.0
H765 H 0.1645 0.77428 0.27605 0.0
H766 H 0.16433 0.77494 0.15419 0.0
H767 H 0.1424 0.70081 0.05738 0.0
H768 H 0.13158 0.73392 0.72125 0.0
H769 H 0.13171 0.73263 0.84317 0.0
C770 C 0.88257 0.73914 0.75919 0.0
C771 C 0.89169 0.74993 0.7226 0.0
C772 C 0.88249 0.74032 0.82906 0.0
C773 C 0.90117 0.74274 0.97562 0.0
H774 H 0.87378 0.77606 0.06891 0.0
C775 C 0.90051 0.76619 0.26081 0.0
C776 C 0.89117 0.75695 0.29728 0.0
C777 C 0.90046 0.76603 0.19093 0.0
C778 C 0.88147 0.76625 0.04382 0.0
H779 H 0.90791 0.77035 0.73129 0.0
H780 H 0.90778 0.77238 0.85314 0.0
H781 H 0.87398 0.77412 0.94723 0.0
H782 H 0.8744 0.74043 0.28826 0.0
H783 H 0.87438 0.73963 0.16651 0.0
H784 H 0.90865 0.7345 0.07199 0.0
C785 C 0.90071 0.76277 0.82772 0.0
C786 C 0.88158 0.76519 0.9739 0.0
C787 C 0.90076 0.76176 0.75776 0.0
C788 C 0.88173 0.74786 0.26193 0.0
C789 C 0.8817 0.74756 0.19193 0.0
C790 C 0.90104 0.74365 0.04552 0.0
C791 C 0.89155 0.75217 0.8643 0.0
C792 C 0.89144 0.75344 0.93884 0.0
C793 C 0.8911 0.75646 0.15539 0.0
C794 C 0.8912 0.75547 0.0807 0.0
H795 H 0.87543 0.72986 0.7339 0.0
H796 H 0.87536 0.73154 0.85553 0.0
H797 H 0.90886 0.73302 0.95038 0.0
H798 H 0.90791 0.77355 0.28618 0.0
H799 H 0.90777 0.77368 0.16476 0.0
C800 C 0.64063 0.74771 0.28877 0.0
C801 C 0.64998 0.75698 0.25242 0.0
C802 C 0.64064 0.74785 0.35864 0.0
C803 C 0.65951 0.74795 0.50632 0.0
H804 H 0.63205 0.78165 0.59859 0.0
C805 C 0.65822 0.77627 0.79047 0.0
C806 C 0.64906 0.76577 0.82711 0.0
C807 C 0.65834 0.77476 0.72063 0.0
C808 C 0.63976 0.77179 0.5737 0.0
H809 H 0.66675 0.77342 0.26167 0.0
H810 H 0.66672 0.77418 0.38348 0.0
H811 H 0.63237 0.77969 0.47702 0.0
H812 H 0.63281 0.74553 0.81849 0.0
H813 H 0.63301 0.74294 0.69665 0.0
H814 H 0.66692 0.74042 0.60322 0.0
C815 C 0.65941 0.76626 0.35794 0.0
C816 C 0.63995 0.77061 0.50381 0.0
C817 C 0.65941 0.76598 0.28791 0.0
C818 C 0.63999 0.75393 0.79199 0.0
C819 C 0.64008 0.75259 0.72203 0.0
C820 C 0.65933 0.74927 0.57624 0.0
C821 C 0.64999 0.75744 0.39434 0.0
C822 C 0.64982 0.75864 0.46903 0.0
C823 C 0.64928 0.76286 0.68542 0.0
C824 C 0.64945 0.76122 0.61089 0.0
H825 H 0.63322 0.74041 0.2633 0.0
H826 H 0.63331 0.74024 0.38469 0.0
H827 H 0.66722 0.73804 0.48156 0.0
H828 H 0.66537 0.78555 0.8157 0.0
H829 H 0.6655 0.78332 0.69416 0.0
C830 C 0.39993 0.75934 0.79065 0.0
C831 C 0.39085 0.74764 0.82628 0.0
C832 C 0.39982 0.76057 0.72067 0.0
C833 C 0.38572 0.7256 0.57239 0.0
H834 H 0.39791 0.80295 0.4804 0.0
C835 C 0.38041 0.74758 0.28718 0.0
C836 C 0.38989 0.75647 0.2516 0.0
C837 C 0.38036 0.74727 0.35718 0.0
C838 C 0.39456 0.781 0.50525 0.0
H839 H 0.37449 0.72823 0.81578 0.0
H840 H 0.37422 0.73088 0.69448 0.0
H841 H 0.39829 0.80052 0.60204 0.0
H842 H 0.4067 0.77255 0.26232 0.0
H843 H 0.4066 0.77199 0.38389 0.0
H844 H 0.38193 0.70623 0.47552 0.0
C845 C 0.38154 0.73852 0.7203 0.0
C846 C 0.3948 0.77953 0.57515 0.0
C847 C 0.38167 0.73717 0.79014 0.0
C848 C 0.39924 0.76558 0.28787 0.0
C849 C 0.39917 0.76546 0.35776 0.0
C850 C 0.38544 0.72715 0.50254 0.0
C851 C 0.39061 0.75024 0.68446 0.0
C852 C 0.3904 0.75178 0.60979 0.0
C853 C 0.38977 0.75605 0.39342 0.0
C854 C 0.38987 0.75483 0.46798 0.0
H855 H 0.40714 0.76755 0.81677 0.0
H856 H 0.40702 0.76929 0.69496 0.0
H857 H 0.38242 0.70349 0.59702 0.0
H858 H 0.37305 0.74043 0.26102 0.0
H859 H 0.37293 0.7403 0.38297 0.0
C860 C 0.65813 0.27584 0.24743 0.0
C861 C 0.64892 0.26567 0.21119 0.0
C862 C 0.65823 0.27444 0.31727 0.0
C863 C 0.63961 0.27252 0.46473 0.0
H864 H 0.66697 0.23792 0.55651 0.0
C865 C 0.64038 0.24876 0.74982 0.0
C866 C 0.64977 0.25772 0.78582 0.0
C867 C 0.6404 0.24888 0.67995 0.0
C868 C 0.65929 0.24807 0.53183 0.0
H869 H 0.63256 0.24613 0.22049 0.0
H870 H 0.63275 0.24372 0.34237 0.0
H871 H 0.66667 0.24002 0.43482 0.0
H872 H 0.66661 0.27362 0.77599 0.0
H873 H 0.66659 0.27432 0.65415 0.0
H874 H 0.63224 0.28092 0.56152 0.0
C875 C 0.63986 0.25302 0.31666 0.0
C876 C 0.65912 0.24923 0.46191 0.0
C877 C 0.63978 0.25426 0.24669 0.0
C878 C 0.65925 0.26642 0.75 0.0
C879 C 0.65925 0.26667 0.67998 0.0
C880 C 0.6398 0.2715 0.53462 0.0
C881 C 0.64912 0.26297 0.35288 0.0
C882 C 0.64928 0.26148 0.42741 0.0
C883 C 0.64979 0.25813 0.64393 0.0
C884 C 0.64963 0.25922 0.56925 0.0
H885 H 0.66532 0.28479 0.2219 0.0
H886 H 0.66543 0.28275 0.34344 0.0
H887 H 0.63194 0.28262 0.43994 0.0
H888 H 0.63295 0.24169 0.77554 0.0
H889 H 0.63304 0.24149 0.65417 0.0
C890 C 0.39982 0.25914 0.24685 0.0
C891 C 0.39068 0.24775 0.21168 0.0
C892 C 0.39974 0.26036 0.3168 0.0
C893 C 0.38049 0.26419 0.4626 0.0
H894 H 0.40738 0.23273 0.56164 0.0
C895 C 0.38039 0.24741 0.75087 0.0
C896 C 0.38986 0.25618 0.78629 0.0
C897 C 0.38038 0.24707 0.68085 0.0
C898 C 0.39982 0.24209 0.5349 0.0
H899 H 0.37428 0.22861 0.22297 0.0
H900 H 0.37417 0.23061 0.34453 0.0
H901 H 0.40768 0.23086 0.44007 0.0
H902 H 0.40667 0.27225 0.77531 0.0
H903 H 0.40658 0.27229 0.65392 0.0
H904 H 0.37264 0.27562 0.55734 0.0
C905 C 0.38137 0.23892 0.31809 0.0
C906 C 0.4 0.24096 0.46501 0.0
C907 C 0.38147 0.23755 0.24825 0.0
C908 C 0.39924 0.26513 0.74989 0.0
C909 C 0.39922 0.26492 0.68002 0.0
C910 C 0.38032 0.26545 0.53251 0.0
C911 C 0.39049 0.2504 0.35336 0.0
C912 C 0.39033 0.25193 0.42789 0.0
C913 C 0.38983 0.25559 0.6444 0.0
C914 C 0.38998 0.25439 0.56972 0.0
H915 H 0.40703 0.2673 0.22039 0.0
H916 H 0.40685 0.26968 0.34224 0.0
H917 H 0.37293 0.27335 0.43567 0.0
H918 H 0.37302 0.24022 0.77716 0.0
H919 H 0.37304 0.23936 0.65535 0.0
C920 C 0.06285 0.24512 0.43301 0.0
C921 C 0.06874 0.26261 0.48151 0.0
C922 C 0.05109 0.24879 0.4316 0.0
C923 C 0.02648 0.27204 0.54072 0.0
H924 H 1.00993 0.27706 0.37433 0.0
C925 C 0.97791 0.29266 0.53591 0.0
C926 C 0.97237 0.27289 0.48933 0.0
C927 C 0.98958 0.29366 0.53312 0.0
C928 C 1.01441 0.27534 0.4213 0.0
H929 H 0.06674 0.2981 0.56616 0.0
H930 H 0.04631 0.30502 0.56287 0.0
H931 H 0.03037 0.27485 0.3723 0.0
H932 H 0.97485 0.23955 0.40185 0.0
H933 H 0.99514 0.24061 0.39794 0.0
H934 H 1.01057 0.27208 0.58977 0.0
C935 C 0.05078 0.28811 0.52629 0.0
C936 C 0.02615 0.27409 0.4201 0.0
C937 C 0.06253 0.28451 0.5276 0.0
C938 C 0.97881 0.25468 0.43916 0.0
C939 C 0.99047 0.25565 0.4364 0.0
C940 C 1.01475 0.27323 0.54192 0.0
C941 C 0.04489 0.26998 0.4788 0.0
C942 C 0.03235 0.2723 0.47981 0.0
C943 C 0.99604 0.27492 0.48365 0.0
C944 C 1.00854 0.27475 0.48223 0.0
H945 H 0.06734 0.2283 0.39633 0.0
H946 H 0.04686 0.23422 0.39458 0.0
H947 H 0.03096 0.27007 0.58768 0.0
H948 H 0.97327 0.30679 0.57561 0.0
H949 H 0.99353 0.30916 0.56987 0.0
C950 C 0.97856 0.75383 0.596 0.0
C951 C 0.97217 0.77218 0.54584 0.0
C952 C 0.99022 0.75473 0.59885 0.0
C953 C 1.01462 0.77246 0.49362 0.0
H954 H 0.03006 0.77366 0.66341 0.0
C955 C 0.0624 0.7837 0.50851 0.0
C956 C 0.06857 0.76179 0.55473 0.0
C957 C 0.05065 0.78725 0.50963 0.0
C958 C 0.0259 0.77301 0.61555 0.0
H959 H 0.97318 0.80625 0.45966 0.0
H960 H 0.99344 0.80849 0.46554 0.0
H961 H 1.00963 0.7759 0.66116 0.0
H962 H 0.06707 0.72738 0.63993 0.0
H963 H 0.04659 0.7332 0.64133 0.0
H964 H 0.03088 0.76939 0.44802 0.0
C965 C 0.98944 0.79293 0.50222 0.0
C966 C 1.01416 0.77428 0.61424 0.0
C967 C 0.97777 0.79201 0.49934 0.0
C968 C 0.06263 0.74421 0.60314 0.0
C969 C 0.05086 0.74783 0.60436 0.0
C970 C 0.02635 0.77126 0.49494 0.0
C971 C 0.99585 0.77406 0.55169 0.0
C972 C 1.00835 0.77385 0.55324 0.0
C973 C 0.04471 0.76905 0.55706 0.0
C974 C 0.03217 0.77137 0.55591 0.0
H975 H 0.97455 0.73865 0.63326 0.0
H976 H 0.99484 0.73959 0.63731 0.0
H977 H 1.01049 0.77144 0.44572 0.0
H978 H 0.06665 0.79736 0.47001 0.0
H979 H 0.04621 0.80419 0.47298 0.0
C980 C 0.56292 0.72837 0.9868 0.0
C981 C 0.56814 0.75413 0.0221 0.0
C982 C 0.55118 0.72895 0.98574 0.0
C983 C 0.52549 0.76342 0.07717 0.0
H984 H 0.51045 0.74796 0.91016 0.0
C985 C 0.47709 0.78516 0.05374 0.0
C986 C 0.47172 0.76137 1.01413 0.0
C987 C 0.48881 0.78473 0.05372 0.0
C988 C 0.51449 0.7519 0.95749 0.0
H989 H 0.56508 0.80012 0.08547 0.0
H990 H 0.54469 0.80121 0.08339 0.0
H991 H 0.53088 0.7451 0.91317 0.0
H992 H 0.47464 0.71916 0.94177 0.0
H993 H 0.49498 0.71767 0.94337 0.0
H994 H 0.50916 0.76982 0.12181 0.0
C995 C 0.54964 0.78053 0.05649 0.0
C996 C 0.52623 0.75027 0.95914 0.0
C997 C 0.56134 0.78011 0.05712 0.0
C998 C 0.47843 0.73755 0.97375 0.0
C999 C 0.49014 0.73701 0.97397 0.0
C1000 C 0.51376 0.76484 0.07563 0.0
C1001 C 0.54439 0.75509 0.02051 0.0
C1002 C 0.53189 0.7561 0.01897 0.0
C1003 C 0.49553 0.76044 1.01426 0.0
C1004 C 0.50807 0.75918 1.01574 0.0
H1005 H 0.56789 0.70811 0.95899 0.0
H1006 H 0.54743 0.70875 0.95804 0.0
H1007 H 0.52957 0.76757 0.12432 0.0
H1008 H 0.47225 0.80369 0.08597 0.0
H1009 H 0.49261 0.80357 0.08468 0.0
C1010 C 0.47698 0.28484 0.98376 0.0
C1011 C 0.47159 0.26084 0.02303 0.0
C1012 C 0.4887 0.28449 0.98397 0.0
C1013 C 0.51426 0.25154 0.08041 0.0
H1014 H 0.52954 0.26784 0.91399 0.0
C1015 C 0.56272 0.22853 0.05196 0.0
C1016 C 0.56797 0.25444 1.01691 0.0
C1017 C 0.55099 0.22902 0.0528 0.0
C1018 C 0.52541 0.26352 0.96103 0.0
H1019 H 0.47445 0.21832 0.09495 0.0
H1020 H 0.49479 0.21698 0.09369 0.0
H1021 H 0.50914 0.26989 0.91608 0.0
H1022 H 0.56495 0.30061 0.95374 0.0
H1023 H 0.54456 0.30153 0.95546 0.0
H1024 H 0.53059 0.24478 0.12505 0.0
C1025 C 0.48997 0.23642 0.06322 0.0
C1026 C 0.51368 0.26482 0.96232 0.0
C1027 C 0.47826 0.23687 0.06324 0.0
C1028 C 0.5612 0.28048 0.98191 0.0
C1029 C 0.5495 0.28081 0.98232 0.0
C1030 C 0.526 0.25004 0.079 0.0
C1031 C 0.49538 0.26007 0.02329 0.0
C1032 C 0.50792 0.25892 0.02206 0.0
C1033 C 0.54423 0.25521 1.01805 0.0
C1034 C 0.53173 0.2561 0.01933 0.0
H1035 H 0.47217 0.30348 0.95167 0.0
H1036 H 0.49252 0.30349 0.95329 0.0
H1037 H 0.51016 0.24743 0.12762 0.0
H1038 H 0.56767 0.20822 0.07974 0.0
H1039 H 0.54722 0.2087 0.0803 0.0
loop_
_geom_bond_atom_site_label_1
_geom_bond_atom_site_label_2
_geom_bond_distance
_geom_bond_site_symmetry_2
_ccdc_geom_bond_type
La0 C2 2.928 . S
La0 O20 2.521 . S
La0 O21 2.628 . S
La0 O22 2.554 . S
La0 O23 2.757 . S
La0 O24 2.470 . S
La0 O29 2.482 . S
La0 O31 2.503 . S
La1 C11 2.928 . S
La1 O23 2.482 . S
La1 O25 2.503 . S
La1 O26 2.521 . S
La1 O27 2.628 . S
La1 O28 2.554 . S
La1 O29 2.757 . S
La1 O30 2.470 . S
C2 La0 2.928 . S
C2 C3 1.503 . S
C2 O20 1.261 . S
C2 O21 1.243 . S
C3 C2 1.503 . S
C3 C4 1.394 . S
C3 C8 1.373 . S
C4 C3 1.394 . S
C4 C5 1.380 . S
C4 H32 0.930 . S
C5 C4 1.380 . S
C5 C6 1.376 . S
C5 H33 0.930 . S
C6 C5 1.376 . S
C6 C7 1.370 . S
C7 C6 1.370 . S
C7 C8 1.396 . S
C7 H34 0.929 . S
C8 C3 1.373 . S
C8 C7 1.396 . S
C8 H35 0.929 . S
C9 O22 1.240 . S
C9 O23 1.289 . S
C10 O24 1.258 . S
C10 O25 1.256 . S
C11 La1 2.928 . S
C11 C12 1.503 . S
C11 O26 1.261 . S
C11 O27 1.243 . S
C12 C11 1.503 . S
C12 C13 1.394 . S
C12 C17 1.373 . S
C13 C12 1.394 . S
C13 C14 1.380 . S
C13 H36 0.930 . S
C14 C13 1.380 . S
C14 C15 1.376 . S
C14 H37 0.930 . S
C15 C14 1.376 . S
C15 C16 1.370 . S
C16 C15 1.370 . S
C16 C17 1.396 . S
C16 H38 0.929 . S
C17 C12 1.373 . S
C17 C16 1.396 . S
C17 H39 0.929 . S
C18 O28 1.240 . S
C18 O29 1.289 . S
C19 O30 1.258 . S
C19 O31 1.256 . S
O20 La0 2.521 . S
O20 C2 1.261 . S
O21 La0 2.628 . S
O21 C2 1.243 . S
O22 La0 2.554 . S
O22 C9 1.240 . S
O23 La0 2.757 . S
O23 La1 2.482 . S
O23 C9 1.289 . S
O24 La0 2.470 . S
O24 C10 1.258 . S
O25 La1 2.503 . S
O25 C10 1.256 . S
O26 La1 2.521 . S
O26 C11 1.261 . S
O27 La1 2.628 . S
O27 C11 1.243 . S
O28 La1 2.554 . S
O28 C18 1.240 . S
O29 La0 2.482 . S
O29 La1 2.757 . S
O29 C18 1.289 . S
O30 La1 2.470 . S
O30 C19 1.258 . S
O31 La0 2.503 . S
O31 C19 1.256 . S
H32 C4 0.930 . S
H33 C5 0.930 . S
H34 C7 0.929 . S
H35 C8 0.929 . S
H36 C13 0.930 . S
H37 C14 0.930 . S
H38 C16 0.929 . S
H39 C17 0.929 . S
La40 C42 2.928 . S
La40 O60 2.521 . S
La40 O61 2.628 . S
La40 O62 2.554 . S
La40 O63 2.757 . S
La40 O64 2.470 . S
La40 O69 2.482 . S
La40 O71 2.503 . S
La41 C51 2.928 . S
La41 O63 2.482 . S
La41 O65 2.503 . S
La41 O66 2.521 . S
La41 O67 2.628 . S
La41 O68 2.554 . S
La41 O69 2.757 . S
La41 O70 2.470 . S
C42 La40 2.928 . S
C42 C43 1.503 . S
C42 O60 1.261 . S
C42 O61 1.243 . S
C43 C42 1.503 . S
C43 C44 1.394 . S
C43 C48 1.373 . S
C44 C43 1.394 . S
C44 C45 1.380 . S
C44 H72 0.930 . S
C45 C44 1.380 . S
C45 C46 1.376 . S
C45 H73 0.930 . S
C46 C45 1.376 . S
C46 C47 1.370 . S
C47 C46 1.370 . S
C47 C48 1.396 . S
C47 H74 0.929 . S
C48 C43 1.373 . S
C48 C47 1.396 . S
C48 H75 0.929 . S
C49 O62 1.240 . S
C49 O63 1.289 . S
C50 O64 1.258 . S
C50 O65 1.256 . S
C51 La41 2.928 . S
C51 C52 1.503 . S
C51 O66 1.261 . S
C51 O67 1.243 . S
C52 C51 1.503 . S
C52 C53 1.394 . S
C52 C57 1.373 . S
C53 C52 1.394 . S
C53 C54 1.380 . S
C53 H76 0.930 . S
C54 C53 1.380 . S
C54 C55 1.376 . S
C54 H77 0.930 . S
C55 C54 1.376 . S
C55 C56 1.370 . S
C56 C55 1.370 . S
C56 C57 1.396 . S
C56 H78 0.929 . S
C57 C52 1.373 . S
C57 C56 1.396 . S
C57 H79 0.929 . S
C58 O68 1.240 . S
C58 O69 1.289 . S
C59 O70 1.258 . S
C59 O71 1.256 . S
O60 La40 2.521 . S
O60 C42 1.261 . S
O61 La40 2.628 . S
O61 C42 1.243 . S
O62 La40 2.554 . S
O62 C49 1.240 . S
O63 La40 2.757 . S
O63 La41 2.482 . S
O63 C49 1.289 . S
O64 La40 2.470 . S
O64 C50 1.258 . S
O65 La41 2.503 . S
O65 C50 1.256 . S
O66 La41 2.521 . S
O66 C51 1.261 . S
O67 La41 2.628 . S
O67 C51 1.243 . S
O68 La41 2.554 . S
O68 C58 1.240 . S
O69 La40 2.482 . S
O69 La41 2.757 . S
O69 C58 1.289 . S
O70 La41 2.470 . S
O70 C59 1.258 . S
O71 La40 2.503 . S
O71 C59 1.256 . S
H72 C44 0.930 . S
H73 C45 0.930 . S
H74 C47 0.929 . S
H75 C48 0.929 . S
H76 C53 0.930 . S
H77 C54 0.930 . S
H78 C56 0.929 . S
H79 C57 0.929 . S
La80 C82 2.928 . S
La80 O100 2.521 . S
La80 O101 2.628 . S
La80 O102 2.554 . S
La80 O103 2.757 . S
La80 O104 2.470 . S
La80 O109 2.482 . S
La80 O111 2.503 . S
La81 C91 2.928 . S
La81 O103 2.482 . S
La81 O105 2.503 . S
La81 O106 2.521 . S
La81 O107 2.628 . S
La81 O108 2.554 . S
La81 O109 2.757 . S
La81 O110 2.470 . S
C82 La80 2.928 . S
C82 C83 1.503 . S
C82 O100 1.261 . S
C82 O101 1.243 . S
C83 C82 1.503 . S
C83 C84 1.394 . S
C83 C88 1.373 . S
C84 C83 1.394 . S
C84 C85 1.380 . S
C84 H112 0.930 . S
C85 C84 1.380 . S
C85 C86 1.376 . S
C85 H113 0.930 . S
C86 C85 1.376 . S
C86 C87 1.370 . S
C87 C86 1.370 . S
C87 C88 1.396 . S
C87 H114 0.929 . S
C88 C83 1.373 . S
C88 C87 1.396 . S
C88 H115 0.929 . S
C89 O102 1.240 . S
C89 O103 1.289 . S
C90 O104 1.258 . S
C90 O105 1.256 . S
C91 La81 2.928 . S
C91 C92 1.503 . S
C91 O106 1.261 . S
C91 O107 1.243 . S
C92 C91 1.503 . S
C92 C93 1.394 . S
C92 C97 1.373 . S
C93 C92 1.394 . S
C93 C94 1.380 . S
C93 H116 0.930 . S
C94 C93 1.380 . S
C94 C95 1.376 . S
C94 H117 0.930 . S
C95 C94 1.376 . S
C95 C96 1.370 . S
C96 C95 1.370 . S
C96 C97 1.396 . S
C96 H118 0.929 . S
C97 C92 1.373 . S
C97 C96 1.396 . S
C97 H119 0.929 . S
C98 O108 1.240 . S
C98 O109 1.289 . S
C99 O110 1.258 . S
C99 O111 1.256 . S
O100 La80 2.521 . S
O100 C82 1.261 . S
O101 La80 2.628 . S
O101 C82 1.243 . S
O102 La80 2.554 . S
O102 C89 1.240 . S
O103 La80 2.757 . S
O103 La81 2.482 . S
O103 C89 1.289 . S
O104 La80 2.470 . S
O104 C90 1.258 . S
O105 La81 2.503 . S
O105 C90 1.256 . S
O106 La81 2.521 . S
O106 C91 1.261 . S
O107 La81 2.628 . S
O107 C91 1.243 . S
O108 La81 2.554 . S
O108 C98 1.240 . S
O109 La80 2.482 . S
O109 La81 2.757 . S
O109 C98 1.289 . S
O110 La81 2.470 . S
O110 C99 1.258 . S
O111 La80 2.503 . S
O111 C99 1.256 . S
H112 C84 0.930 . S
H113 C85 0.930 . S
H114 C87 0.929 . S
H115 C88 0.929 . S
H116 C93 0.930 . S
H117 C94 0.930 . S
H118 C96 0.929 . S
H119 C97 0.929 . S
La120 C122 2.928 . S
La120 O140 2.521 . S
La120 O141 2.628 . S
La120 O142 2.554 . S
La120 O143 2.757 . S
La120 O144 2.470 . S
La120 O149 2.482 . S
La120 O151 2.503 . S
La121 C131 2.928 . S
La121 O143 2.482 . S
La121 O145 2.503 . S
La121 O146 2.521 . S
La121 O147 2.628 . S
La121 O148 2.554 . S
La121 O149 2.757 . S
La121 O150 2.470 . S
C122 La120 2.928 . S
C122 C123 1.503 . S
C122 O140 1.261 . S
C122 O141 1.243 . S
C123 C122 1.503 . S
C123 C124 1.394 . S
C123 C128 1.373 . S
C124 C123 1.394 . S
C124 C125 1.380 . S
C124 H152 0.930 . S
C125 C124 1.380 . S
C125 C126 1.376 . S
C125 H153 0.930 . S
C126 C125 1.376 . S
C126 C127 1.370 . S
C127 C126 1.370 . S
C127 C128 1.396 . S
C127 H154 0.929 . S
C128 C123 1.373 . S
C128 C127 1.396 . S
C128 H155 0.929 . S
C129 O142 1.240 . S
C129 O143 1.289 . S
C130 O144 1.258 . S
C130 O145 1.256 . S
C131 La121 2.928 . S
C131 C132 1.503 . S
C131 O146 1.261 . S
C131 O147 1.243 . S
C132 C131 1.503 . S
C132 C133 1.394 . S
C132 C137 1.373 . S
C133 C132 1.394 . S
C133 C134 1.380 . S
C133 H156 0.930 . S
C134 C133 1.380 . S
C134 C135 1.376 . S
C134 H157 0.930 . S
C135 C134 1.376 . S
C135 C136 1.370 . S
C136 C135 1.370 . S
C136 C137 1.396 . S
C136 H158 0.929 . S
C137 C132 1.373 . S
C137 C136 1.396 . S
C137 H159 0.929 . S
C138 O148 1.240 . S
C138 O149 1.289 . S
C139 O150 1.258 . S
C139 O151 1.256 . S
O140 La120 2.521 . S
O140 C122 1.261 . S
O141 La120 2.628 . S
O141 C122 1.243 . S
O142 La120 2.554 . S
O142 C129 1.240 . S
O143 La120 2.757 . S
O143 La121 2.482 . S
O143 C129 1.289 . S
O144 La120 2.470 . S
O144 C130 1.258 . S
O145 La121 2.503 . S
O145 C130 1.256 . S
O146 La121 2.521 . S
O146 C131 1.261 . S
O147 La121 2.628 . S
O147 C131 1.243 . S
O148 La121 2.554 . S
O148 C138 1.240 . S
O149 La120 2.482 . S
O149 La121 2.757 . S
O149 C138 1.289 . S
O150 La121 2.470 . S
O150 C139 1.258 . S
O151 La120 2.503 . S
O151 C139 1.256 . S
H152 C124 0.930 . S
H153 C125 0.930 . S
H154 C127 0.929 . S
H155 C128 0.929 . S
H156 C133 0.930 . S
H157 C134 0.930 . S
H158 C136 0.929 . S
H159 C137 0.929 . S
La160 C162 2.928 1_556 S
La160 O180 2.521 1_556 S
La160 O181 2.628 1_556 S
La160 O182 2.554 . S
La160 O183 2.757 . S
La160 O184 2.470 1_556 S
La160 O189 2.482 1_556 S
La160 O191 2.503 . S
La161 C171 2.928 1_554 S
La161 O183 2.482 1_554 S
La161 O185 2.503 . S
La161 O186 2.521 1_554 S
La161 O187 2.628 1_554 S
La161 O188 2.554 . S
La161 O189 2.757 . S
La161 O190 2.470 1_554 S
C162 La160 2.928 1_554 S
C162 C163 1.503 . S
C162 O180 1.261 . S
C162 O181 1.243 . S
C163 C162 1.503 . S
C163 C164 1.394 . S
C163 C168 1.373 . S
C164 C163 1.394 . S
C164 C165 1.380 . S
C164 H192 0.930 . S
C165 C164 1.380 . S
C165 C166 1.376 . S
C165 H193 0.930 . S
C166 C165 1.376 . S
C166 C167 1.370 . S
C167 C166 1.370 . S
C167 C168 1.396 . S
C167 H194 0.929 . S
C168 C163 1.373 . S
C168 C167 1.396 . S
C168 H195 0.929 . S
C169 O182 1.240 . S
C169 O183 1.289 . S
C170 O184 1.258 . S
C170 O185 1.256 . S
C171 La161 2.928 1_556 S
C171 C172 1.503 . S
C171 O186 1.261 . S
C171 O187 1.243 . S
C172 C171 1.503 . S
C172 C173 1.394 . S
C172 C177 1.373 . S
C173 C172 1.394 . S
C173 C174 1.380 . S
C173 H196 0.930 . S
C174 C173 1.380 . S
C174 C175 1.376 . S
C174 H197 0.930 . S
C175 C174 1.376 . S
C175 C176 1.370 . S
C176 C175 1.370 . S
C176 C177 1.396 . S
C176 H198 0.929 . S
C177 C172 1.373 . S
C177 C176 1.396 . S
C177 H199 0.929 . S
C178 O188 1.240 . S
C178 O189 1.289 . S
C179 O190 1.258 . S
C179 O191 1.256 . S
O180 La160 2.521 1_554 S
O180 C162 1.261 . S
O181 La160 2.628 1_554 S
O181 C162 1.243 . S
O182 La160 2.554 . S
O182 C169 1.240 . S
O183 La160 2.757 . S
O183 La161 2.482 1_556 S
O183 C169 1.289 . S
O184 La160 2.470 1_554 S
O184 C170 1.258 . S
O185 La161 2.503 . S
O185 C170 1.256 . S
O186 La161 2.521 1_556 S
O186 C171 1.261 . S
O187 La161 2.628 1_556 S
O187 C171 1.243 . S
O188 La161 2.554 . S
O188 C178 1.240 . S
O189 La160 2.482 1_554 S
O189 La161 2.757 . S
O189 C178 1.289 . S
O190 La161 2.470 1_556 S
O190 C179 1.258 . S
O191 La160 2.503 . S
O191 C179 1.256 . S
H192 C164 0.930 . S
H193 C165 0.930 . S
H194 C167 0.929 . S
H195 C168 0.929 . S
H196 C173 0.930 . S
H197 C174 0.930 . S
H198 C176 0.929 . S
H199 C177 0.929 . S
La200 C202 2.928 1_556 S
La200 O220 2.521 1_556 S
La200 O221 2.628 1_556 S
La200 O222 2.554 . S
La200 O223 2.757 . S
La200 O224 2.470 1_556 S
La200 O229 2.482 1_556 S
La200 O231 2.503 . S
La201 C211 2.928 1_554 S
La201 O223 2.482 1_554 S
La201 O225 2.503 . S
La201 O226 2.521 1_554 S
La201 O227 2.628 1_554 S
La201 O228 2.554 . S
La201 O229 2.757 . S
La201 O230 2.470 1_554 S
C202 La200 2.928 1_554 S
C202 C203 1.503 . S
C202 O220 1.261 . S
C202 O221 1.243 . S
C203 C202 1.503 . S
C203 C204 1.394 . S
C203 C208 1.373 . S
C204 C203 1.394 . S
C204 C205 1.380 . S
C204 H232 0.930 . S
C205 C204 1.380 . S
C205 C206 1.376 . S
C205 H233 0.930 . S
C206 C205 1.376 . S
C206 C207 1.370 . S
C207 C206 1.370 . S
C207 C208 1.396 . S
C207 H234 0.929 . S
C208 C203 1.373 . S
C208 C207 1.396 . S
C208 H235 0.929 . S
C209 O222 1.240 . S
C209 O223 1.289 . S
C210 O224 1.258 . S
C210 O225 1.256 . S
C211 La201 2.928 1_556 S
C211 C212 1.503 . S
C211 O226 1.261 . S
C211 O227 1.243 . S
C212 C211 1.503 . S
C212 C213 1.394 . S
C212 C217 1.373 . S
C213 C212 1.394 . S
C213 C214 1.380 . S
C213 H236 0.930 . S
C214 C213 1.380 . S
C214 C215 1.376 . S
C214 H237 0.930 . S
C215 C214 1.376 . S
C215 C216 1.370 . S
C216 C215 1.370 . S
C216 C217 1.396 . S
C216 H238 0.929 . S
C217 C212 1.373 . S
C217 C216 1.396 . S
C217 H239 0.929 . S
C218 O228 1.240 . S
C218 O229 1.289 . S
C219 O230 1.258 . S
C219 O231 1.256 . S
O220 La200 2.521 1_554 S
O220 C202 1.261 . S
O221 La200 2.628 1_554 S
O221 C202 1.243 . S
O222 La200 2.554 . S
O222 C209 1.240 . S
O223 La200 2.757 . S
O223 La201 2.482 1_556 S
O223 C209 1.289 . S
O224 La200 2.470 1_554 S
O224 C210 1.258 . S
O225 La201 2.503 . S
O225 C210 1.256 . S
O226 La201 2.521 1_556 S
O226 C211 1.261 . S
O227 La201 2.628 1_556 S
O227 C211 1.243 . S
O228 La201 2.554 . S
O228 C218 1.240 . S
O229 La200 2.482 1_554 S
O229 La201 2.757 . S
O229 C218 1.289 . S
O230 La201 2.470 1_556 S
O230 C219 1.258 . S
O231 La200 2.503 . S
O231 C219 1.256 . S
H232 C204 0.930 . S
H233 C205 0.930 . S
H234 C207 0.929 . S
H235 C208 0.929 . S
H236 C213 0.930 . S
H237 C214 0.930 . S
H238 C216 0.929 . S
H239 C217 0.929 . S
La240 C242 2.928 1_556 S
La240 O260 2.521 1_556 S
La240 O261 2.628 1_556 S
La240 O262 2.554 . S
La240 O263 2.757 . S
La240 O264 2.470 1_556 S
La240 O269 2.482 1_556 S
La240 O271 2.503 . S
La241 C251 2.928 1_554 S
La241 O263 2.482 1_554 S
La241 O265 2.503 . S
La241 O266 2.521 1_554 S
La241 O267 2.628 1_554 S
La241 O268 2.554 . S
La241 O269 2.757 . S
La241 O270 2.470 1_554 S
C242 La240 2.928 1_554 S
C242 C243 1.503 . S
C242 O260 1.261 . S
C242 O261 1.243 . S
C243 C242 1.503 . S
C243 C244 1.394 . S
C243 C248 1.373 . S
C244 C243 1.394 . S
C244 C245 1.380 . S
C244 H272 0.930 . S
C245 C244 1.380 . S
C245 C246 1.376 . S
C245 H273 0.930 . S
C246 C245 1.376 . S
C246 C247 1.370 . S
C247 C246 1.370 . S
C247 C248 1.396 . S
C247 H274 0.929 . S
C248 C243 1.373 . S
C248 C247 1.396 . S
C248 H275 0.929 . S
C249 O262 1.240 . S
C249 O263 1.289 . S
C250 O264 1.258 . S
C250 O265 1.256 . S
C251 La241 2.928 1_556 S
C251 C252 1.503 . S
C251 O266 1.261 . S
C251 O267 1.243 . S
C252 C251 1.503 . S
C252 C253 1.394 . S
C252 C257 1.373 . S
C253 C252 1.394 . S
C253 C254 1.380 . S
C253 H276 0.930 . S
C254 C253 1.380 . S
C254 C255 1.376 . S
C254 H277 0.930 . S
C255 C254 1.376 . S
C255 C256 1.370 . S
C256 C255 1.370 . S
C256 C257 1.396 . S
C256 H278 0.929 . S
C257 C252 1.373 . S
C257 C256 1.396 . S
C257 H279 0.929 . S
C258 O268 1.240 . S
C258 O269 1.289 . S
C259 O270 1.258 . S
C259 O271 1.256 . S
O260 La240 2.521 1_554 S
O260 C242 1.261 . S
O261 La240 2.628 1_554 S
O261 C242 1.243 . S
O262 La240 2.554 . S
O262 C249 1.240 . S
O263 La240 2.757 . S
O263 La241 2.482 1_556 S
O263 C249 1.289 . S
O264 La240 2.470 1_554 S
O264 C250 1.258 . S
O265 La241 2.503 . S
O265 C250 1.256 . S
O266 La241 2.521 1_556 S
O266 C251 1.261 . S
O267 La241 2.628 1_556 S
O267 C251 1.243 . S
O268 La241 2.554 . S
O268 C258 1.240 . S
O269 La240 2.482 1_554 S
O269 La241 2.757 . S
O269 C258 1.289 . S
O270 La241 2.470 1_556 S
O270 C259 1.258 . S
O271 La240 2.503 . S
O271 C259 1.256 . S
H272 C244 0.930 . S
H273 C245 0.930 . S
H274 C247 0.929 . S
H275 C248 0.929 . S
H276 C253 0.930 . S
H277 C254 0.930 . S
H278 C256 0.929 . S
H279 C257 0.929 . S
La280 C282 2.928 1_556 S
La280 O300 2.521 1_556 S
La280 O301 2.628 1_556 S
La280 O302 2.554 . S
La280 O303 2.757 . S
La280 O304 2.470 1_556 S
La280 O309 2.482 1_556 S
La280 O311 2.503 . S
La281 C291 2.928 1_554 S
La281 O303 2.482 1_554 S
La281 O305 2.503 . S
La281 O306 2.521 1_554 S
La281 O307 2.628 1_554 S
La281 O308 2.554 . S
La281 O309 2.757 . S
La281 O310 2.470 1_554 S
C282 La280 2.928 1_554 S
C282 C283 1.503 . S
C282 O300 1.261 . S
C282 O301 1.243 . S
C283 C282 1.503 . S
C283 C284 1.394 . S
C283 C288 1.373 . S
C284 C283 1.394 . S
C284 C285 1.380 . S
C284 H312 0.930 . S
C285 C284 1.380 . S
C285 C286 1.376 . S
C285 H313 0.930 . S
C286 C285 1.376 . S
C286 C287 1.370 . S
C287 C286 1.370 . S
C287 C288 1.396 . S
C287 H314 0.929 . S
C288 C283 1.373 . S
C288 C287 1.396 . S
C288 H315 0.929 . S
C289 O302 1.240 . S
C289 O303 1.289 . S
C290 O304 1.258 . S
C290 O305 1.256 . S
C291 La281 2.928 1_556 S
C291 C292 1.503 . S
C291 O306 1.261 . S
C291 O307 1.243 . S
C292 C291 1.503 . S
C292 C293 1.394 . S
C292 C297 1.373 . S
C293 C292 1.394 . S
C293 C294 1.380 . S
C293 H316 0.930 . S
C294 C293 1.380 . S
C294 C295 1.376 . S
C294 H317 0.930 . S
C295 C294 1.376 . S
C295 C296 1.370 . S
C296 C295 1.370 . S
C296 C297 1.396 . S
C296 H318 0.929 . S
C297 C292 1.373 . S
C297 C296 1.396 . S
C297 H319 0.929 . S
C298 O308 1.240 . S
C298 O309 1.289 . S
C299 O310 1.258 . S
C299 O311 1.256 . S
O300 La280 2.521 1_554 S
O300 C282 1.261 . S
O301 La280 2.628 1_554 S
O301 C282 1.243 . S
O302 La280 2.554 . S
O302 C289 1.240 . S
O303 La280 2.757 . S
O303 La281 2.482 1_556 S
O303 C289 1.289 . S
O304 La280 2.470 1_554 S
O304 C290 1.258 . S
O305 La281 2.503 . S
O305 C290 1.256 . S
O306 La281 2.521 1_556 S
O306 C291 1.261 . S
O307 La281 2.628 1_556 S
O307 C291 1.243 . S
O308 La281 2.554 . S
O308 C298 1.240 . S
O309 La280 2.482 1_554 S
O309 La281 2.757 . S
O309 C298 1.289 . S
O310 La281 2.470 1_556 S
O310 C299 1.258 . S
O311 La280 2.503 . S
O311 C299 1.256 . S
H312 C284 0.930 . S
H313 C285 0.930 . S
H314 C287 0.929 . S
H315 C288 0.929 . S
H316 C293 0.930 . S
H317 C294 0.930 . S
H318 C296 0.929 . S
H319 C297 0.929 . S
C320 C321 1.349 . S
C320 C322 1.327 . S
C320 H345 0.950 . S
C321 C320 1.349 . S
C321 C337 1.349 . S
C322 C320 1.327 . S
C322 C341 1.429 . S
C322 H346 0.950 . S
C323 C340 1.574 . S
C323 C342 1.368 . S
C323 H347 0.949 . S
H324 C328 0.949 . S
C325 C326 1.349 . S
C325 C327 1.327 . S
C325 H348 0.950 . S
C326 C325 1.349 . S
C326 C338 1.349 . S
C327 C325 1.327 . S
C327 C343 1.429 . S
C327 H349 0.950 . S
C328 H324 0.949 . S
C328 C336 1.574 . S
C328 C344 1.368 . S
H329 C337 0.950 . S
H330 C335 0.950 . S
H331 C336 0.949 . S
H332 C338 0.950 . S
H333 C339 0.950 . S
H334 C340 0.949 . S
C335 H330 0.950 . S
C335 C337 1.327 . S
C335 C341 1.429 . S
C336 C328 1.574 . S
C336 H331 0.949 . S
C336 C342 1.368 . S
C337 C321 1.349 . S
C337 H329 0.950 . S
C337 C335 1.327 . S
C338 C326 1.349 . S
C338 H332 0.950 . S
C338 C339 1.327 . S
C339 H333 0.950 . S
C339 C338 1.327 . S
C339 C343 1.429 . S
C340 C323 1.574 . S
C340 H334 0.949 . S
C340 C344 1.368 . S
C341 C322 1.429 . S
C341 C335 1.429 . S
C341 C342 1.523 . S
C342 C323 1.368 . S
C342 C336 1.368 . S
C342 C341 1.523 . S
C343 C327 1.429 . S
C343 C339 1.429 . S
C343 C344 1.523 . S
C344 C328 1.368 . S
C344 C340 1.368 . S
C344 C343 1.523 . S
H345 C320 0.950 . S
H346 C322 0.950 . S
H347 C323 0.949 . S
H348 C325 0.950 . S
H349 C327 0.950 . S
C350 C351 1.349 . S
C350 C352 1.327 . S
C350 H375 0.950 . S
C351 C350 1.349 . S
C351 C367 1.349 . S
C352 C350 1.327 . S
C352 C371 1.429 . S
C352 H376 0.950 . S
C353 C370 1.574 . S
C353 C372 1.368 . S
C353 H377 0.949 . S
H354 C358 0.949 . S
C355 C356 1.349 . S
C355 C357 1.327 . S
C355 H378 0.950 . S
C356 C355 1.349 . S
C356 C368 1.349 . S
C357 C355 1.327 . S
C357 C373 1.429 . S
C357 H379 0.950 . S
C358 H354 0.949 . S
C358 C366 1.574 . S
C358 C374 1.368 . S
H359 C367 0.950 . S
H360 C365 0.950 . S
H361 C366 0.949 . S
H362 C368 0.950 . S
H363 C369 0.950 . S
H364 C370 0.949 . S
C365 H360 0.950 . S
C365 C367 1.327 . S
C365 C371 1.429 . S
C366 C358 1.574 . S
C366 H361 0.949 . S
C366 C372 1.368 . S
C367 C351 1.349 . S
C367 H359 0.950 . S
C367 C365 1.327 . S
C368 C356 1.349 . S
C368 H362 0.950 . S
C368 C369 1.327 . S
C369 H363 0.950 . S
C369 C368 1.327 . S
C369 C373 1.429 . S
C370 C353 1.574 . S
C370 H364 0.949 . S
C370 C374 1.368 . S
C371 C352 1.429 . S
C371 C365 1.429 . S
C371 C372 1.523 . S
C372 C353 1.368 . S
C372 C366 1.368 . S
C372 C371 1.523 . S
C373 C357 1.429 . S
C373 C369 1.429 . S
C373 C374 1.523 . S
C374 C358 1.368 . S
C374 C370 1.368 . S
C374 C373 1.523 . S
H375 C350 0.950 . S
H376 C352 0.950 . S
H377 C353 0.949 . S
H378 C355 0.950 . S
H379 C357 0.950 . S
C380 C381 1.349 . S
C380 C382 1.327 . S
C380 H405 0.950 . S
C381 C380 1.349 . S
C381 C397 1.349 . S
C382 C380 1.327 . S
C382 C401 1.429 . S
C382 H406 0.950 . S
C383 C400 1.574 . S
C383 C402 1.368 . S
C383 H407 0.949 . S
H384 C388 0.949 . S
C385 C386 1.349 . S
C385 C387 1.327 . S
C385 H408 0.950 . S
C386 C385 1.349 . S
C386 C398 1.349 . S
C387 C385 1.327 . S
C387 C403 1.429 . S
C387 H409 0.950 . S
C388 H384 0.949 . S
C388 C396 1.574 . S
C388 C404 1.368 . S
H389 C397 0.950 . S
H390 C395 0.950 . S
H391 C396 0.949 . S
H392 C398 0.950 . S
H393 C399 0.950 . S
H394 C400 0.949 . S
C395 H390 0.950 . S
C395 C397 1.327 . S
C395 C401 1.429 . S
C396 C388 1.574 . S
C396 H391 0.949 . S
C396 C402 1.368 . S
C397 C381 1.349 . S
C397 H389 0.950 . S
C397 C395 1.327 . S
C398 C386 1.349 . S
C398 H392 0.950 . S
C398 C399 1.327 . S
C399 H393 0.950 . S
C399 C398 1.327 . S
C399 C403 1.429 . S
C400 C383 1.574 . S
C400 H394 0.949 . S
C400 C404 1.368 . S
C401 C382 1.429 . S
C401 C395 1.429 . S
C401 C402 1.523 . S
C402 C383 1.368 . S
C402 C396 1.368 . S
C402 C401 1.523 . S
C403 C387 1.429 . S
C403 C399 1.429 . S
C403 C404 1.523 . S
C404 C388 1.368 . S
C404 C400 1.368 . S
C404 C403 1.523 . S
H405 C380 0.950 . S
H406 C382 0.950 . S
H407 C383 0.949 . S
H408 C385 0.950 . S
H409 C387 0.950 . S
C410 C411 1.349 . S
C410 C412 1.327 . S
C410 H435 0.950 . S
C411 C410 1.349 . S
C411 C427 1.349 . S
C412 C410 1.327 . S
C412 C431 1.429 . S
C412 H436 0.950 . S
C413 C430 1.574 . S
C413 C432 1.368 . S
C413 H437 0.949 . S
H414 C418 0.949 . S
C415 C416 1.349 . S
C415 C417 1.327 . S
C415 H438 0.950 . S
C416 C415 1.349 . S
C416 C428 1.349 . S
C417 C415 1.327 . S
C417 C433 1.429 . S
C417 H439 0.950 . S
C418 H414 0.949 . S
C418 C426 1.574 . S
C418 C434 1.368 . S
H419 C427 0.950 . S
H420 C425 0.950 . S
H421 C426 0.949 . S
H422 C428 0.950 . S
H423 C429 0.950 . S
H424 C430 0.949 . S
C425 H420 0.950 . S
C425 C427 1.327 . S
C425 C431 1.429 . S
C426 C418 1.574 . S
C426 H421 0.949 . S
C426 C432 1.368 . S
C427 C411 1.349 . S
C427 H419 0.950 . S
C427 C425 1.327 . S
C428 C416 1.349 . S
C428 H422 0.950 . S
C428 C429 1.327 . S
C429 H423 0.950 . S
C429 C428 1.327 . S
C429 C433 1.429 . S
C430 C413 1.574 . S
C430 H424 0.949 . S
C430 C434 1.368 . S
C431 C412 1.429 . S
C431 C425 1.429 . S
C431 C432 1.523 . S
C432 C413 1.368 . S
C432 C426 1.368 . S
C432 C431 1.523 . S
C433 C417 1.429 . S
C433 C429 1.429 . S
C433 C434 1.523 . S
C434 C418 1.368 . S
C434 C430 1.368 . S
C434 C433 1.523 . S
H435 C410 0.950 . S
H436 C412 0.950 . S
H437 C413 0.949 . S
H438 C415 0.950 . S
H439 C417 0.950 . S
C440 C441 1.349 . S
C440 C442 1.327 . S
C440 H465 0.950 . S
C441 C440 1.349 . S
C441 C457 1.349 . S
C442 C440 1.327 . S
C442 C461 1.429 . S
C442 H466 0.950 . S
C443 C460 1.574 1_565 S
C443 C462 1.368 . S
C443 H467 0.949 . S
H444 C448 0.949 . S
C445 C446 1.349 . S
C445 C447 1.327 . S
C445 H468 0.950 . S
C446 C445 1.349 . S
C446 C458 1.349 . S
C447 C445 1.327 . S
C447 C463 1.429 . S
C447 H469 0.950 . S
C448 H444 0.949 . S
C448 C456 1.574 1_545 S
C448 C464 1.368 . S
H449 C457 0.950 . S
H450 C455 0.950 . S
H451 C456 0.949 . S
H452 C458 0.950 . S
H453 C459 0.950 . S
H454 C460 0.949 . S
C455 H450 0.950 . S
C455 C457 1.327 . S
C455 C461 1.429 . S
C456 C448 1.574 1_565 S
C456 H451 0.949 . S
C456 C462 1.368 . S
C457 C441 1.349 . S
C457 H449 0.950 . S
C457 C455 1.327 . S
C458 C446 1.349 . S
C458 H452 0.950 . S
C458 C459 1.327 . S
C459 H453 0.950 . S
C459 C458 1.327 . S
C459 C463 1.429 . S
C460 C443 1.574 1_545 S
C460 H454 0.949 . S
C460 C464 1.368 . S
C461 C442 1.429 . S
C461 C455 1.429 . S
C461 C462 1.523 . S
C462 C443 1.368 . S
C462 C456 1.368 . S
C462 C461 1.523 . S
C463 C447 1.429 . S
C463 C459 1.429 . S
C463 C464 1.523 . S
C464 C448 1.368 . S
C464 C460 1.368 . S
C464 C463 1.523 . S
H465 C440 0.950 . S
H466 C442 0.950 . S
H467 C443 0.949 . S
H468 C445 0.950 . S
H469 C447 0.950 . S
C470 C471 1.349 . S
C470 C472 1.327 . S
C470 H495 0.950 . S
C471 C470 1.349 . S
C471 C487 1.349 . S
C472 C470 1.327 . S
C472 C491 1.429 . S
C472 H496 0.950 . S
C473 C490 1.574 . S
C473 C492 1.368 . S
C473 H497 0.949 . S
H474 C478 0.949 . S
C475 C476 1.349 . S
C475 C477 1.327 . S
C475 H498 0.950 . S
C476 C475 1.349 . S
C476 C488 1.349 . S
C477 C475 1.327 . S
C477 C493 1.429 . S
C477 H499 0.950 . S
C478 H474 0.949 . S
C478 C486 1.574 . S
C478 C494 1.368 . S
H479 C487 0.950 . S
H480 C485 0.950 . S
H481 C486 0.949 . S
H482 C488 0.950 . S
H483 C489 0.950 . S
H484 C490 0.949 . S
C485 H480 0.950 . S
C485 C487 1.327 . S
C485 C491 1.429 . S
C486 C478 1.574 . S
C486 H481 0.949 . S
C486 C492 1.368 . S
C487 C471 1.349 . S
C487 H479 0.950 . S
C487 C485 1.327 . S
C488 C476 1.349 . S
C488 H482 0.950 . S
C488 C489 1.327 . S
C489 H483 0.950 . S
C489 C488 1.327 . S
C489 C493 1.429 . S
C490 C473 1.574 . S
C490 H484 0.949 . S
C490 C494 1.368 . S
C491 C472 1.429 . S
C491 C485 1.429 . S
C491 C492 1.523 . S
C492 C473 1.368 . S
C492 C486 1.368 . S
C492 C491 1.523 . S
C493 C477 1.429 . S
C493 C489 1.429 . S
C493 C494 1.523 . S
C494 C478 1.368 . S
C494 C490 1.368 . S
C494 C493 1.523 . S
H495 C470 0.950 . S
H496 C472 0.950 . S
H497 C473 0.949 . S
H498 C475 0.950 . S
H499 C477 0.950 . S
C500 C501 1.349 . S
C500 C502 1.327 . S
C500 H525 0.950 . S
C501 C500 1.349 . S
C501 C517 1.349 . S
C502 C500 1.327 . S
C502 C521 1.429 . S
C502 H526 0.950 . S
C503 C520 1.574 1_565 S
C503 C522 1.368 . S
C503 H527 0.949 . S
H504 C508 0.949 . S
C505 C506 1.349 . S
C505 C507 1.327 . S
C505 H528 0.950 . S
C506 C505 1.349 . S
C506 C518 1.349 . S
C507 C505 1.327 . S
C507 C523 1.429 . S
C507 H529 0.950 . S
C508 H504 0.949 . S
C508 C516 1.574 1_545 S
C508 C524 1.368 . S
H509 C517 0.950 . S
H510 C515 0.950 . S
H511 C516 0.949 . S
H512 C518 0.950 . S
H513 C519 0.950 . S
H514 C520 0.949 . S
C515 H510 0.950 . S
C515 C517 1.327 . S
C515 C521 1.429 . S
C516 C508 1.574 1_565 S
C516 H511 0.949 . S
C516 C522 1.368 . S
C517 C501 1.349 . S
C517 H509 0.950 . S
C517 C515 1.327 . S
C518 C506 1.349 . S
C518 H512 0.950 . S
C518 C519 1.327 . S
C519 H513 0.950 . S
C519 C518 1.327 . S
C519 C523 1.429 . S
C520 C503 1.574 1_545 S
C520 H514 0.949 . S
C520 C524 1.368 . S
C521 C502 1.429 . S
C521 C515 1.429 . S
C521 C522 1.523 . S
C522 C503 1.368 . S
C522 C516 1.368 . S
C522 C521 1.523 . S
C523 C507 1.429 . S
C523 C519 1.429 . S
C523 C524 1.523 . S
C524 C508 1.368 . S
C524 C520 1.368 . S
C524 C523 1.523 . S
H525 C500 0.950 . S
H526 C502 0.950 . S
H527 C503 0.949 . S
H528 C505 0.950 . S
H529 C507 0.950 . S
C530 C531 1.349 . S
C530 C532 1.327 . S
C530 H555 0.950 . S
C531 C530 1.349 . S
C531 C547 1.349 . S
C532 C530 1.327 . S
C532 C551 1.429 . S
C532 H556 0.950 . S
C533 C550 1.574 . S
C533 C552 1.368 . S
C533 H557 0.949 . S
H534 C538 0.949 . S
C535 C536 1.349 . S
C535 C537 1.327 . S
C535 H558 0.950 . S
C536 C535 1.349 . S
C536 C548 1.349 . S
C537 C535 1.327 . S
C537 C553 1.429 . S
C537 H559 0.950 . S
C538 H534 0.949 . S
C538 C546 1.574 . S
C538 C554 1.368 . S
H539 C547 0.950 . S
H540 C545 0.950 . S
H541 C546 0.949 . S
H542 C548 0.950 . S
H543 C549 0.950 . S
H544 C550 0.949 . S
C545 H540 0.950 . S
C545 C547 1.327 . S
C545 C551 1.429 . S
C546 C538 1.574 . S
C546 H541 0.949 . S
C546 C552 1.368 . S
C547 C531 1.349 . S
C547 H539 0.950 . S
C547 C545 1.327 . S
C548 C536 1.349 . S
C548 H542 0.950 . S
C548 C549 1.327 . S
C549 H543 0.950 . S
C549 C548 1.327 . S
C549 C553 1.429 . S
C550 C533 1.574 . S
C550 H544 0.949 . S
C550 C554 1.368 . S
C551 C532 1.429 . S
C551 C545 1.429 . S
C551 C552 1.523 . S
C552 C533 1.368 . S
C552 C546 1.368 . S
C552 C551 1.523 . S
C553 C537 1.429 . S
C553 C549 1.429 . S
C553 C554 1.523 . S
C554 C538 1.368 . S
C554 C550 1.368 . S
C554 C553 1.523 . S
H555 C530 0.950 . S
H556 C532 0.950 . S
H557 C533 0.949 . S
H558 C535 0.950 . S
H559 C537 0.950 . S
C560 C561 1.349 1_554 S
C560 C562 1.327 . S
C560 H585 0.950 . S
C561 C560 1.349 1_556 S
C561 C577 1.349 . S
C562 C560 1.327 . S
C562 C581 1.429 1_554 S
C562 H586 0.950 . S
C563 C580 1.574 . S
C563 C582 1.368 . S
C563 H587 0.949 . S
H564 C568 0.949 . S
C565 C566 1.349 . S
C565 C567 1.327 . S
C565 H588 0.950 . S
C566 C565 1.349 . S
C566 C578 1.349 1_556 S
C567 C565 1.327 . S
C567 C583 1.429 . S
C567 H589 0.950 . S
C568 H564 0.949 . S
C568 C576 1.574 . S
C568 C584 1.368 1_554 S
H569 C577 0.950 . S
H570 C575 0.950 . S
H571 C576 0.949 . S
H572 C578 0.950 . S
H573 C579 0.950 . S
H574 C580 0.949 . S
C575 H570 0.950 . S
C575 C577 1.327 . S
C575 C581 1.429 . S
C576 C568 1.574 . S
C576 H571 0.949 . S
C576 C582 1.368 1_554 S
C577 C561 1.349 . S
C577 H569 0.950 . S
C577 C575 1.327 . S
C578 C566 1.349 1_554 S
C578 H572 0.950 . S
C578 C579 1.327 . S
C579 H573 0.950 . S
C579 C578 1.327 . S
C579 C583 1.429 1_554 S
C580 C563 1.574 . S
C580 H574 0.949 . S
C580 C584 1.368 . S
C581 C562 1.429 1_556 S
C581 C575 1.429 . S
C581 C582 1.523 . S
C582 C563 1.368 . S
C582 C576 1.368 1_556 S
C582 C581 1.523 . S
C583 C567 1.429 . S
C583 C579 1.429 1_556 S
C583 C584 1.523 . S
C584 C568 1.368 1_556 S
C584 C580 1.368 . S
C584 C583 1.523 . S
H585 C560 0.950 . S
H586 C562 0.950 . S
H587 C563 0.949 . S
H588 C565 0.950 . S
H589 C567 0.950 . S
C590 C591 1.349 . S
C590 C592 1.327 . S
C590 H615 0.950 . S
C591 C590 1.349 . S
C591 C607 1.349 1_556 S
C592 C590 1.327 . S
C592 C611 1.429 . S
C592 H616 0.950 . S
C593 C610 1.574 1_565 S
C593 C612 1.368 1_554 S
C593 H617 0.949 . S
H594 C598 0.949 . S
C595 C596 1.349 1_554 S
C595 C597 1.327 . S
C595 H618 0.950 . S
C596 C595 1.349 1_556 S
C596 C608 1.349 . S
C597 C595 1.327 . S
C597 C613 1.429 1_554 S
C597 H619 0.950 . S
C598 H594 0.949 . S
C598 C606 1.574 1_545 S
C598 C614 1.368 . S
H599 C607 0.950 . S
H600 C605 0.950 . S
H601 C606 0.949 . S
H602 C608 0.950 . S
H603 C609 0.950 . S
H604 C610 0.949 . S
C605 H600 0.950 . S
C605 C607 1.327 . S
C605 C611 1.429 1_554 S
C606 C598 1.574 1_565 S
C606 H601 0.949 . S
C606 C612 1.368 . S
C607 C591 1.349 1_554 S
C607 H599 0.950 . S
C607 C605 1.327 . S
C608 C596 1.349 . S
C608 H602 0.950 . S
C608 C609 1.327 . S
C609 H603 0.950 . S
C609 C608 1.327 . S
C609 C613 1.429 . S
C610 C593 1.574 1_545 S
C610 H604 0.949 . S
C610 C614 1.368 1_554 S
C611 C592 1.429 . S
C611 C605 1.429 1_556 S
C611 C612 1.523 . S
C612 C593 1.368 1_556 S
C612 C606 1.368 . S
C612 C611 1.523 . S
C613 C597 1.429 1_556 S
C613 C609 1.429 . S
C613 C614 1.523 . S
C614 C598 1.368 . S
C614 C610 1.368 1_556 S
C614 C613 1.523 . S
H615 C590 0.950 . S
H616 C592 0.950 . S
H617 C593 0.949 . S
H618 C595 0.950 . S
H619 C597 0.950 . S
C620 C621 1.349 . S
C620 C622 1.327 . S
C620 H645 0.950 . S
C621 C620 1.349 . S
C621 C637 1.349 1_554 S
C622 C620 1.327 . S
C622 C641 1.429 . S
C622 H646 0.950 . S
C623 C640 1.574 . S
C623 C642 1.368 1_556 S
C623 H647 0.949 . S
H624 C628 0.949 . S
C625 C626 1.349 1_556 S
C625 C627 1.327 . S
C625 H648 0.950 . S
C626 C625 1.349 1_554 S
C626 C638 1.349 . S
C627 C625 1.327 . S
C627 C643 1.429 1_556 S
C627 H649 0.950 . S
C628 H624 0.949 . S
C628 C636 1.574 . S
C628 C644 1.368 . S
H629 C637 0.950 . S
H630 C635 0.950 . S
H631 C636 0.949 . S
H632 C638 0.950 . S
H633 C639 0.950 . S
H634 C640 0.949 . S
C635 H630 0.950 . S
C635 C637 1.327 . S
C635 C641 1.429 1_556 S
C636 C628 1.574 . S
C636 H631 0.949 . S
C636 C642 1.368 . S
C637 C621 1.349 1_556 S
C637 H629 0.950 . S
C637 C635 1.327 . S
C638 C626 1.349 . S
C638 H632 0.950 . S
C638 C639 1.327 . S
C639 H633 0.950 . S
C639 C638 1.327 . S
C639 C643 1.429 . S
C640 C623 1.574 . S
C640 H634 0.949 . S
C640 C644 1.368 1_556 S
C641 C622 1.429 . S
C641 C635 1.429 1_554 S
C641 C642 1.523 . S
C642 C623 1.368 1_554 S
C642 C636 1.368 . S
C642 C641 1.523 . S
C643 C627 1.429 1_554 S
C643 C639 1.429 . S
C643 C644 1.523 . S
C644 C628 1.368 . S
C644 C640 1.368 1_554 S
C644 C643 1.523 . S
H645 C620 0.950 . S
H646 C622 0.950 . S
H647 C623 0.949 . S
H648 C625 0.950 . S
H649 C627 0.950 . S
C650 C651 1.349 1_556 S
C650 C652 1.327 . S
C650 H675 0.950 . S
C651 C650 1.349 1_554 S
C651 C667 1.349 . S
C652 C650 1.327 . S
C652 C671 1.429 1_556 S
C652 H676 0.950 . S
C653 C670 1.574 1_545 S
C653 C672 1.368 . S
C653 H677 0.949 . S
H654 C658 0.949 . S
C655 C656 1.349 . S
C655 C657 1.327 . S
C655 H678 0.950 . S
C656 C655 1.349 . S
C656 C668 1.349 1_554 S
C657 C655 1.327 . S
C657 C673 1.429 . S
C657 H679 0.950 . S
C658 H654 0.949 . S
C658 C666 1.574 1_565 S
C658 C674 1.368 1_556 S
H659 C667 0.950 . S
H660 C665 0.950 . S
H661 C666 0.949 . S
H662 C668 0.950 . S
H663 C669 0.950 . S
H664 C670 0.949 . S
C665 H660 0.950 . S
C665 C667 1.327 . S
C665 C671 1.429 . S
C666 C658 1.574 1_545 S
C666 H661 0.949 . S
C666 C672 1.368 1_556 S
C667 C651 1.349 . S
C667 H659 0.950 . S
C667 C665 1.327 . S
C668 C656 1.349 1_556 S
C668 H662 0.950 . S
C668 C669 1.327 . S
C669 H663 0.950 . S
C669 C668 1.327 . S
C669 C673 1.429 1_556 S
C670 C653 1.574 1_565 S
C670 H664 0.949 . S
C670 C674 1.368 . S
C671 C652 1.429 1_554 S
C671 C665 1.429 . S
C671 C672 1.523 . S
C672 C653 1.368 . S
C672 C666 1.368 1_554 S
C672 C671 1.523 . S
C673 C657 1.429 . S
C673 C669 1.429 1_554 S
C673 C674 1.523 . S
C674 C658 1.368 1_554 S
C674 C670 1.368 . S
C674 C673 1.523 . S
H675 C650 0.950 . S
H676 C652 0.950 . S
H677 C653 0.949 . S
H678 C655 0.950 . S
H679 C657 0.950 . S
C680 C681 1.349 . S
C680 C682 1.327 . S
C680 H705 0.950 . S
C681 C680 1.349 . S
C681 C697 1.349 . S
C682 C680 1.327 . S
C682 C701 1.429 . S
C682 H706 0.950 . S
C683 C700 1.574 . S
C683 C702 1.368 1_556 S
C683 H707 0.941 1_556 S
H684 C688 0.949 . S
C685 C686 1.349 . S
C685 C687 1.327 . S
C685 H708 0.950 . S
C686 C685 1.349 . S
C686 C698 1.349 . S
C687 C685 1.327 . S
C687 C703 1.429 . S
C687 H709 0.950 . S
C688 H684 0.949 . S
C688 C696 1.574 . S
C688 C704 1.368 . S
H689 C697 0.950 . S
H690 C695 0.950 . S
H691 C696 0.949 1_554 S
H692 C698 0.950 . S
H693 C699 0.950 . S
H694 C700 0.949 . S
C695 H690 0.950 . S
C695 C697 1.327 . S
C695 C701 1.429 . S
C696 C688 1.574 . S
C696 H691 0.949 1_556 S
C696 C702 1.368 1_556 S
C697 C681 1.349 . S
C697 H689 0.950 . S
C697 C695 1.327 . S
C698 C686 1.349 . S
C698 H692 0.950 . S
C698 C699 1.327 . S
C699 H693 0.950 . S
C699 C698 1.327 . S
C699 C703 1.429 . S
C700 C683 1.574 . S
C700 H694 0.949 . S
C700 C704 1.368 . S
C701 C682 1.429 . S
C701 C695 1.429 . S
C701 C702 1.523 . S
C702 C683 1.368 1_554 S
C702 C696 1.368 1_554 S
C702 C701 1.523 . S
C703 C687 1.429 . S
C703 C699 1.429 . S
C703 C704 1.523 . S
C704 C688 1.368 . S
C704 C700 1.368 . S
C704 C703 1.523 . S
H705 C680 0.950 . S
H706 C682 0.950 . S
H707 C683 0.941 1_554 S
H708 C685 0.950 . S
H709 C687 0.950 . S
C710 C711 1.349 . S
C710 C712 1.327 . S
C710 H735 0.950 . S
C711 C710 1.349 . S
C711 C727 1.349 . S
C712 C710 1.327 . S
C712 C731 1.429 . S
C712 H736 0.950 . S
C713 C730 1.574 . S
C713 C732 1.368 1_556 S
C713 H737 0.949 1_556 S
H714 C718 0.949 . S
C715 C716 1.349 . S
C715 C717 1.327 . S
C715 H738 0.950 . S
C716 C715 1.349 . S
C716 C728 1.349 . S
C717 C715 1.327 . S
C717 C733 1.429 . S
C717 H739 0.950 . S
C718 H714 0.949 . S
C718 C726 1.574 . S
C718 C734 1.368 . S
H719 C727 0.950 . S
H720 C725 0.950 . S
H721 C726 0.949 1_554 S
H722 C728 0.950 . S
H723 C729 0.950 . S
H724 C730 0.949 . S
C725 H720 0.950 . S
C725 C727 1.327 . S
C725 C731 1.429 . S
C726 C718 1.574 . S
C726 H721 0.949 1_556 S
C726 C732 1.368 1_556 S
C727 C711 1.349 . S
C727 H719 0.950 . S
C727 C725 1.327 . S
C728 C716 1.349 . S
C728 H722 0.950 . S
C728 C729 1.327 . S
C729 H723 0.950 . S
C729 C728 1.327 . S
C729 C733 1.429 . S
C730 C713 1.574 . S
C730 H724 0.949 . S
C730 C734 1.368 . S
C731 C712 1.429 . S
C731 C725 1.429 . S
C731 C732 1.523 . S
C732 C713 1.368 1_554 S
C732 C726 1.368 1_554 S
C732 C731 1.523 . S
C733 C717 1.429 . S
C733 C729 1.429 . S
C733 C734 1.523 . S
C734 C718 1.368 . S
C734 C730 1.368 . S
C734 C733 1.523 . S
H735 C710 0.950 . S
H736 C712 0.950 . S
H737 C713 0.949 1_554 S
H738 C715 0.950 . S
H739 C717 0.950 . S
C740 C741 1.349 . S
C740 C742 1.327 . S
C740 H765 0.950 . S
C741 C740 1.349 . S
C741 C757 1.349 . S
C742 C740 1.327 . S
C742 C761 1.429 . S
C742 H766 0.950 . S
C743 C760 1.574 . S
C743 C762 1.368 . S
C743 H767 0.949 . S
H744 C748 0.949 1_556 S
C745 C746 1.349 . S
C745 C747 1.327 . S
C745 H768 0.950 . S
C746 C745 1.349 . S
C746 C758 1.349 . S
C747 C745 1.327 . S
C747 C763 1.429 . S
C747 H769 0.950 . S
C748 H744 0.949 1_554 S
C748 C756 1.574 . S
C748 C764 1.368 1_554 S
H749 C757 0.950 . S
H750 C755 0.950 . S
H751 C756 0.949 . S
H752 C758 0.950 . S
H753 C759 0.950 . S
H754 C760 0.949 1_556 S
C755 H750 0.950 . S
C755 C757 1.327 . S
C755 C761 1.429 . S
C756 C748 1.574 . S
C756 H751 0.949 . S
C756 C762 1.368 . S
C757 C741 1.349 . S
C757 H749 0.950 . S
C757 C755 1.327 . S
C758 C746 1.349 . S
C758 H752 0.950 . S
C758 C759 1.327 . S
C759 H753 0.950 . S
C759 C758 1.327 . S
C759 C763 1.429 . S
C760 C743 1.574 . S
C760 H754 0.949 1_554 S
C760 C764 1.368 1_554 S
C761 C742 1.429 . S
C761 C755 1.429 . S
C761 C762 1.523 . S
C762 C743 1.368 . S
C762 C756 1.368 . S
C762 C761 1.523 . S
C763 C747 1.429 . S
C763 C759 1.429 . S
C763 C764 1.523 . S
C764 C748 1.368 1_556 S
C764 C760 1.368 1_556 S
C764 C763 1.523 . S
H765 C740 0.950 . S
H766 C742 0.950 . S
H767 C743 0.949 . S
H768 C745 0.950 . S
H769 C747 0.950 . S
C770 C771 1.349 . S
C770 C772 1.327 . S
C770 H795 0.950 . S
C771 C770 1.349 . S
C771 C787 1.349 . S
C772 C770 1.327 . S
C772 C791 1.429 . S
C772 H796 0.950 . S
C773 C790 1.574 . S
C773 C792 1.368 1_554 S
C773 H797 0.949 1_554 S
H774 C778 0.949 . S
C775 C776 1.349 . S
C775 C777 1.327 . S
C775 H798 0.950 . S
C776 C775 1.349 . S
C776 C788 1.349 . S
C777 C775 1.327 . S
C777 C793 1.429 . S
C777 H799 0.950 . S
C778 H774 0.949 . S
C778 C786 1.574 . S
C778 C794 1.368 . S
H779 C787 0.950 . S
H780 C785 0.950 . S
H781 C786 0.949 1_556 S
H782 C788 0.950 . S
H783 C789 0.950 . S
H784 C790 0.949 . S
C785 H780 0.950 . S
C785 C787 1.327 . S
C785 C791 1.429 . S
C786 C778 1.574 . S
C786 H781 0.949 1_554 S
C786 C792 1.368 1_554 S
C787 C771 1.349 . S
C787 H779 0.950 . S
C787 C785 1.327 . S
C788 C776 1.349 . S
C788 H782 0.950 . S
C788 C789 1.327 . S
C789 H783 0.950 . S
C789 C788 1.327 . S
C789 C793 1.429 . S
C790 C773 1.574 . S
C790 H784 0.949 . S
C790 C794 1.368 . S
C791 C772 1.429 . S
C791 C785 1.429 . S
C791 C792 1.523 . S
C792 C773 1.368 1_556 S
C792 C786 1.368 1_556 S
C792 C791 1.523 . S
C793 C777 1.429 . S
C793 C789 1.429 . S
C793 C794 1.523 . S
C794 C778 1.368 . S
C794 C790 1.368 . S
C794 C793 1.523 . S
H795 C770 0.950 . S
H796 C772 0.950 . S
H797 C773 0.949 1_556 S
H798 C775 0.950 . S
H799 C777 0.950 . S
C800 C801 1.349 . S
C800 C802 1.327 . S
C800 H825 0.950 . S
C801 C800 1.349 . S
C801 C817 1.349 . S
C802 C800 1.327 . S
C802 C821 1.429 . S
C802 H826 0.950 . S
C803 C820 1.574 . S
C803 C822 1.368 . S
C803 H827 0.949 . S
H804 C808 0.949 . S
C805 C806 1.349 . S
C805 C807 1.327 . S
C805 H828 0.950 . S
C806 C805 1.349 . S
C806 C818 1.349 . S
C807 C805 1.327 . S
C807 C823 1.429 . S
C807 H829 0.950 . S
C808 H804 0.949 . S
C808 C816 1.574 . S
C808 C824 1.368 . S
H809 C817 0.950 . S
H810 C815 0.950 . S
H811 C816 0.949 . S
H812 C818 0.950 . S
H813 C819 0.950 . S
H814 C820 0.949 . S
C815 H810 0.950 . S
C815 C817 1.327 . S
C815 C821 1.429 . S
C816 C808 1.574 . S
C816 H811 0.949 . S
C816 C822 1.368 . S
C817 C801 1.349 . S
C817 H809 0.950 . S
C817 C815 1.327 . S
C818 C806 1.349 . S
C818 H812 0.950 . S
C818 C819 1.327 . S
C819 H813 0.950 . S
C819 C818 1.327 . S
C819 C823 1.429 . S
C820 C803 1.574 . S
C820 H814 0.949 . S
C820 C824 1.368 . S
C821 C802 1.429 . S
C821 C815 1.429 . S
C821 C822 1.523 . S
C822 C803 1.368 . S
C822 C816 1.368 . S
C822 C821 1.523 . S
C823 C807 1.429 . S
C823 C819 1.429 . S
C823 C824 1.523 . S
C824 C808 1.368 . S
C824 C820 1.368 . S
C824 C823 1.523 . S
H825 C800 0.950 . S
H826 C802 0.950 . S
H827 C803 0.949 . S
H828 C805 0.950 . S
H829 C807 0.950 . S
C830 C831 1.349 . S
C830 C832 1.327 . S
C830 H855 0.950 . S
C831 C830 1.349 . S
C831 C847 1.349 . S
C832 C830 1.327 . S
C832 C851 1.429 . S
C832 H856 0.950 . S
C833 C850 1.574 . S
C833 C852 1.368 . S
C833 H857 0.949 . S
H834 C838 0.949 . S
C835 C836 1.349 . S
C835 C837 1.327 . S
C835 H858 0.950 . S
C836 C835 1.349 . S
C836 C848 1.349 . S
C837 C835 1.327 . S
C837 C853 1.429 . S
C837 H859 0.950 . S
C838 H834 0.949 . S
C838 C846 1.574 . S
C838 C854 1.368 . S
H839 C847 0.950 . S
H840 C845 0.950 . S
H841 C846 0.949 . S
H842 C848 0.950 . S
H843 C849 0.950 . S
H844 C850 0.949 . S
C845 H840 0.950 . S
C845 C847 1.327 . S
C845 C851 1.429 . S
C846 C838 1.574 . S
C846 H841 0.949 . S
C846 C852 1.368 . S
C847 C831 1.349 . S
C847 H839 0.950 . S
C847 C845 1.327 . S
C848 C836 1.349 . S
C848 H842 0.950 . S
C848 C849 1.327 . S
C849 H843 0.950 . S
C849 C848 1.327 . S
C849 C853 1.429 . S
C850 C833 1.574 . S
C850 H844 0.949 . S
C850 C854 1.368 . S
C851 C832 1.429 . S
C851 C845 1.429 . S
C851 C852 1.523 . S
C852 C833 1.368 . S
C852 C846 1.368 . S
C852 C851 1.523 . S
C853 C837 1.429 . S
C853 C849 1.429 . S
C853 C854 1.523 . S
C854 C838 1.368 . S
C854 C850 1.368 . S
C854 C853 1.523 . S
H855 C830 0.950 . S
H856 C832 0.950 . S
H857 C833 0.949 . S
H858 C835 0.950 . S
H859 C837 0.950 . S
C860 C861 1.349 . S
C860 C862 1.327 . S
C860 H885 0.950 . S
C861 C860 1.349 . S
C861 C877 1.349 . S
C862 C860 1.327 . S
C862 C881 1.429 . S
C862 H886 0.950 . S
C863 C880 1.574 . S
C863 C882 1.368 . S
C863 H887 0.949 . S
H864 C868 0.949 . S
C865 C866 1.349 . S
C865 C867 1.327 . S
C865 H888 0.950 . S
C866 C865 1.349 . S
C866 C878 1.349 . S
C867 C865 1.327 . S
C867 C883 1.429 . S
C867 H889 0.950 . S
C868 H864 0.949 . S
C868 C876 1.574 . S
C868 C884 1.368 . S
H869 C877 0.950 . S
H870 C875 0.950 . S
H871 C876 0.949 . S
H872 C878 0.950 . S
H873 C879 0.950 . S
H874 C880 0.949 . S
C875 H870 0.950 . S
C875 C877 1.327 . S
C875 C881 1.429 . S
C876 C868 1.574 . S
C876 H871 0.949 . S
C876 C882 1.368 . S
C877 C861 1.349 . S
C877 H869 0.950 . S
C877 C875 1.327 . S
C878 C866 1.349 . S
C878 H872 0.950 . S
C878 C879 1.327 . S
C879 H873 0.950 . S
C879 C878 1.327 . S
C879 C883 1.429 . S
C880 C863 1.574 . S
C880 H874 0.949 . S
C880 C884 1.368 . S
C881 C862 1.429 . S
C881 C875 1.429 . S
C881 C882 1.523 . S
C882 C863 1.368 . S
C882 C876 1.368 . S
C882 C881 1.523 . S
C883 C867 1.429 . S
C883 C879 1.429 . S
C883 C884 1.523 . S
C884 C868 1.368 . S
C884 C880 1.368 . S
C884 C883 1.523 . S
H885 C860 0.950 . S
H886 C862 0.950 . S
H887 C863 0.949 . S
H888 C865 0.950 . S
H889 C867 0.950 . S
C890 C891 1.349 . S
C890 C892 1.327 . S
C890 H915 0.950 . S
C891 C890 1.349 . S
C891 C907 1.349 . S
C892 C890 1.327 . S
C892 C911 1.429 . S
C892 H916 0.950 . S
C893 C910 1.574 . S
C893 C912 1.368 . S
C893 H917 0.949 . S
H894 C898 0.949 . S
C895 C896 1.349 . S
C895 C897 1.327 . S
C895 H918 0.950 . S
C896 C895 1.349 . S
C896 C908 1.349 . S
C897 C895 1.327 . S
C897 C913 1.429 . S
C897 H919 0.950 . S
C898 H894 0.949 . S
C898 C906 1.574 . S
C898 C914 1.368 . S
H899 C907 0.950 . S
H900 C905 0.950 . S
H901 C906 0.949 . S
H902 C908 0.950 . S
H903 C909 0.950 . S
H904 C910 0.949 . S
C905 H900 0.950 . S
C905 C907 1.327 . S
C905 C911 1.429 . S
C906 C898 1.574 . S
C906 H901 0.949 . S
C906 C912 1.368 . S
C907 C891 1.349 . S
C907 H899 0.950 . S
C907 C905 1.327 . S
C908 C896 1.349 . S
C908 H902 0.950 . S
C908 C909 1.327 . S
C909 H903 0.950 . S
C909 C908 1.327 . S
C909 C913 1.429 . S
C910 C893 1.574 . S
C910 H904 0.949 . S
C910 C914 1.368 . S
C911 C892 1.429 . S
C911 C905 1.429 . S
C911 C912 1.523 . S
C912 C893 1.368 . S
C912 C906 1.368 . S
C912 C911 1.523 . S
C913 C897 1.429 . S
C913 C909 1.429 . S
C913 C914 1.523 . S
C914 C898 1.368 . S
C914 C910 1.368 . S
C914 C913 1.523 . S
H915 C890 0.950 . S
H916 C892 0.950 . S
H917 C893 0.949 . S
H918 C895 0.950 . S
H919 C897 0.950 . S
C920 C921 1.349 . S
C920 C922 1.327 . S
C920 H945 0.950 . S
C921 C920 1.349 . S
C921 C937 1.349 . S
C922 C920 1.327 . S
C922 C941 1.429 . S
C922 H946 0.950 . S
C923 C940 1.574 1_455 S
C923 C942 1.368 . S
C923 H947 0.949 . S
H924 C928 0.949 . S
C925 C926 1.349 . S
C925 C927 1.327 . S
C925 H948 0.950 . S
C926 C925 1.349 . S
C926 C938 1.349 . S
C927 C925 1.327 . S
C927 C943 1.429 . S
C927 H949 0.950 . S
C928 H924 0.949 . S
C928 C936 1.574 1_655 S
C928 C944 1.368 . S
H929 C937 0.950 . S
H930 C935 0.950 . S
H931 C936 0.949 . S
H932 C938 0.950 . S
H933 C939 0.950 . S
H934 C940 0.949 . S
C935 H930 0.950 . S
C935 C937 1.327 . S
C935 C941 1.429 . S
C936 C928 1.574 1_455 S
C936 H931 0.949 . S
C936 C942 1.368 . S
C937 C921 1.349 . S
C937 H929 0.950 . S
C937 C935 1.327 . S
C938 C926 1.349 . S
C938 H932 0.950 . S
C938 C939 1.327 . S
C939 H933 0.950 . S
C939 C938 1.327 . S
C939 C943 1.429 . S
C940 C923 1.574 1_655 S
C940 H934 0.949 . S
C940 C944 1.368 . S
C941 C922 1.429 . S
C941 C935 1.429 . S
C941 C942 1.523 . S
C942 C923 1.368 . S
C942 C936 1.368 . S
C942 C941 1.523 . S
C943 C927 1.429 . S
C943 C939 1.429 . S
C943 C944 1.523 . S
C944 C928 1.368 . S
C944 C940 1.368 . S
C944 C943 1.523 . S
H945 C920 0.950 . S
H946 C922 0.950 . S
H947 C923 0.949 . S
H948 C925 0.950 . S
H949 C927 0.950 . S
C950 C951 1.349 . S
C950 C952 1.327 . S
C950 H975 0.950 . S
C951 C950 1.349 . S
C951 C967 1.349 . S
C952 C950 1.327 . S
C952 C971 1.429 . S
C952 H976 0.950 . S
C953 C970 1.574 1_655 S
C953 C972 1.368 . S
C953 H977 0.949 . S
H954 C958 0.949 . S
C955 C956 1.349 . S
C955 C957 1.327 . S
C955 H978 0.950 . S
C956 C955 1.349 . S
C956 C968 1.349 . S
C957 C955 1.327 . S
C957 C973 1.429 . S
C957 H979 0.950 . S
C958 H954 0.949 . S
C958 C966 1.574 1_455 S
C958 C974 1.368 . S
H959 C967 0.950 . S
H960 C965 0.950 . S
H961 C966 0.949 . S
H962 C968 0.950 . S
H963 C969 0.950 . S
H964 C970 0.949 . S
C965 H960 0.950 . S
C965 C967 1.327 . S
C965 C971 1.429 . S
C966 C958 1.574 1_655 S
C966 H961 0.949 . S
C966 C972 1.368 . S
C967 C951 1.349 . S
C967 H959 0.950 . S
C967 C965 1.327 . S
C968 C956 1.349 . S
C968 H962 0.950 . S
C968 C969 1.327 . S
C969 H963 0.950 . S
C969 C968 1.327 . S
C969 C973 1.429 . S
C970 C953 1.574 1_455 S
C970 H964 0.949 . S
C970 C974 1.368 . S
C971 C952 1.429 . S
C971 C965 1.429 . S
C971 C972 1.523 . S
C972 C953 1.368 . S
C972 C966 1.368 . S
C972 C971 1.523 . S
C973 C957 1.429 . S
C973 C969 1.429 . S
C973 C974 1.523 . S
C974 C958 1.368 . S
C974 C970 1.368 . S
C974 C973 1.523 . S
H975 C950 0.950 . S
H976 C952 0.950 . S
H977 C953 0.949 . S
H978 C955 0.950 . S
H979 C957 0.950 . S
C980 C981 1.349 . S
C980 C982 1.327 . S
C980 H1005 0.950 . S
C981 C980 1.349 . S
C981 C997 1.349 . S
C982 C980 1.327 . S
C982 C1001 1.429 . S
C982 H1006 0.950 . S
C983 C1000 1.574 . S
C983 C1002 1.368 . S
C983 H1007 0.949 . S
H984 C988 0.949 . S
C985 C986 1.349 . S
C985 C987 1.327 . S
C985 H1008 0.950 . S
C986 C985 1.349 . S
C986 C998 1.349 . S
C987 C985 1.327 . S
C987 C1003 1.429 . S
C987 H1009 0.950 . S
C988 H984 0.949 . S
C988 C996 1.574 . S
C988 C1004 1.368 . S
H989 C997 0.950 . S
H990 C995 0.950 . S
H991 C996 0.949 . S
H992 C998 0.950 . S
H993 C999 0.950 . S
H994 C1000 0.949 . S
C995 H990 0.950 . S
C995 C997 1.327 . S
C995 C1001 1.429 . S
C996 C988 1.574 . S
C996 H991 0.949 . S
C996 C1002 1.368 . S
C997 C981 1.349 . S
C997 H989 0.950 . S
C997 C995 1.327 . S
C998 C986 1.349 . S
C998 H992 0.950 . S
C998 C999 1.327 . S
C999 H993 0.950 . S
C999 C998 1.327 . S
C999 C1003 1.429 . S
C1000 C983 1.574 . S
C1000 H994 0.949 . S
C1000 C1004 1.368 . S
C1001 C982 1.429 . S
C1001 C995 1.429 . S
C1001 C1002 1.523 . S
C1002 C983 1.368 . S
C1002 C996 1.368 . S
C1002 C1001 1.523 . S
C1003 C987 1.429 . S
C1003 C999 1.429 . S
C1003 C1004 1.523 . S
C1004 C988 1.368 . S
C1004 C1000 1.368 . S
C1004 C1003 1.523 . S
H1005 C980 0.950 . S
H1006 C982 0.950 . S
H1007 C983 0.949 . S
H1008 C985 0.950 . S
H1009 C987 0.950 . S
C1010 C1011 1.349 . S
C1010 C1012 1.327 . S
C1010 H1035 0.950 . S
C1011 C1010 1.349 . S
C1011 C1027 1.349 . S
C1012 C1010 1.327 . S
C1012 C1031 1.429 . S
C1012 H1036 0.950 . S
C1013 C1030 1.574 . S
C1013 C1032 1.368 . S
C1013 H1037 0.949 . S
H1014 C1018 0.949 . S
C1015 C1016 1.349 . S
C1015 C1017 1.327 . S
C1015 H1038 0.950 . S
C1016 C1015 1.349 . S
C1016 C1028 1.349 . S
C1017 C1015 1.327 . S
C1017 C1033 1.429 . S
C1017 H1039 0.950 . S
C1018 H1014 0.949 . S
C1018 C1026 1.574 . S
C1018 C1034 1.368 . S
H1019 C1027 0.950 . S
H1020 C1025 0.950 . S
H1021 C1026 0.949 . S
H1022 C1028 0.950 . S
H1023 C1029 0.950 . S
H1024 C1030 0.949 . S
C1025 H1020 0.950 . S
C1025 C1027 1.327 . S
C1025 C1031 1.429 . S
C1026 C1018 1.574 . S
C1026 H1021 0.949 . S
C1026 C1032 1.368 . S
C1027 C1011 1.349 . S
C1027 H1019 0.950 . S
C1027 C1025 1.327 . S
C1028 C1016 1.349 . S
C1028 H1022 0.950 . S
C1028 C1029 1.327 . S
C1029 H1023 0.950 . S
C1029 C1028 1.327 . S
C1029 C1033 1.429 . S
C1030 C1013 1.574 . S
C1030 H1024 0.949 . S
C1030 C1034 1.368 . S
C1031 C1012 1.429 . S
C1031 C1025 1.429 . S
C1031 C1032 1.523 . S
C1032 C1013 1.368 . S
C1032 C1026 1.368 . S
C1032 C1031 1.523 . S
C1033 C1017 1.429 . S
C1033 C1029 1.429 . S
C1033 C1034 1.523 . S
C1034 C1018 1.368 . S
C1034 C1030 1.368 . S
C1034 C1033 1.523 . S
H1035 C1010 0.950 . S
H1036 C1012 0.950 . S
H1037 C1013 0.949 . S
H1038 C1015 0.950 . S
H1039 C1017 0.950 . S
C321 C6 1.700 . S
C326 C295 1.699 . S
C351 C255 1.700 . S
C356 C46 1.699 . S
C381 C206 1.699 . S
C386 C95 1.699 . S
C411 C166 1.699 . S
C416 C135 1.699 . S
C441 C89 1.527 . S
C446 C9 1.539 . S
C471 C49 1.539 . S
C476 C129 1.527 . S
C501 C138 1.539 . S
C506 C58 1.527 . S
C531 C98 1.539 . S
C536 C18 1.527 . S
C561 C169 1.441 . S
C566 C249 1.441 . S
C591 C209 1.441 . S
C596 C289 1.441 . S
C621 C298 1.442 . S
C626 C218 1.442 . S
C651 C258 1.442 . S
C656 C178 1.442 . S
C681 C19 2.047 . S
C686 C10 2.047 . S
C711 C59 2.047 . S
C716 C50 2.047 . S
C741 C99 2.047 . S
C746 C90 2.047 . S
C771 C130 2.047 . S
C776 C139 2.047 . S
C801 C170 2.046 . S
C806 C179 2.046 . S
C831 C219 2.046 . S
C836 C210 2.046 . S
C861 C250 2.046 . S
C866 C259 2.046 . S
C891 C290 2.046 . S
C896 C299 2.046 . S
C921 C15 2.363 . S
C926 C55 2.363 . S
C951 C126 2.363 . S
C956 C86 2.363 . S
C981 C175 2.364 . S
C986 C215 2.364 . S
C1011 C286 2.364 . S
C1016 C246 2.364 . S
