# Generated by pormake.
# Topology ukt, (4)-cn, num edge types: 1
# Building blocks:
#     Node 0, Type 0, BuildingBlock: CEKHIL_clean_sbu_0, # of connection points: 4
#     Node 1, Type 0, BuildingBlock: CEKHIL_clean_sbu_0, # of connection points: 4
#     Node 2, Type 0, BuildingBlock: CEKHIL_clean_sbu_0, # of connection points: 4
#     Node 3, Type 0, BuildingBlock: CEKHIL_clean_sbu_0, # of connection points: 4
#     Node 4, Type 0, BuildingBlock: CEKHIL_clean_sbu_0, # of connection points: 4
#     Node 5, Type 0, BuildingBlock: CEKHIL_clean_sbu_0, # of connection points: 4
#     Node 6, Type 0, BuildingBlock: CEKHIL_clean_sbu_0, # of connection points: 4
#     Node 7, Type 0, BuildingBlock: CEKHIL_clean_sbu_0, # of connection points: 4
#     Node 8, Type 0, BuildingBlock: CEKHIL_clean_sbu_0, # of connection points: 4
#     Node 9, Type 0, BuildingBlock: CEKHIL_clean_sbu_0, # of connection points: 4
#     Node 10, Type 0, BuildingBlock: CEKHIL_clean_sbu_0, # of connection points: 4
#     Node 11, Type 0, BuildingBlock: CEKHIL_clean_sbu_0, # of connection points: 4
#     Node 12, Type 0, BuildingBlock: CEKHIL_clean_sbu_0, # of connection points: 4
#     Node 13, Type 0, BuildingBlock: CEKHIL_clean_sbu_0, # of connection points: 4
#     Node 14, Type 0, BuildingBlock: CEKHIL_clean_sbu_0, # of connection points: 4
#     Node 15, Type 0, BuildingBlock: CEKHIL_clean_sbu_0, # of connection points: 4
#     Edge 16, Type (0, 0), BuildingBlock: EYOCIG_clean_linker_4, # of connection points: 2
#     Edge 17, Type (0, 0), BuildingBlock: EYOCIG_clean_linker_4, # of connection points: 2
#     Edge 18, Type (0, 0), BuildingBlock: EYOCIG_clean_linker_4, # of connection points: 2
#     Edge 19, Type (0, 0), BuildingBlock: EYOCIG_clean_linker_4, # of connection points: 2
#     Edge 20, Type (0, 0), BuildingBlock: EYOCIG_clean_linker_4, # of connection points: 2
#     Edge 21, Type (0, 0), BuildingBlock: EYOCIG_clean_linker_4, # of connection points: 2
#     Edge 22, Type (0, 0), BuildingBlock: EYOCIG_clean_linker_4, # of connection points: 2
#     Edge 23, Type (0, 0), BuildingBlock: EYOCIG_clean_linker_4, # of connection points: 2
#     Edge 24, Type (0, 0), BuildingBlock: EYOCIG_clean_linker_4, # of connection points: 2
#     Edge 25, Type (0, 0), BuildingBlock: EYOCIG_clean_linker_4, # of connection points: 2
#     Edge 26, Type (0, 0), BuildingBlock: EYOCIG_clean_linker_4, # of connection points: 2
#     Edge 27, Type (0, 0), BuildingBlock: EYOCIG_clean_linker_4, # of connection points: 2
#     Edge 28, Type (0, 0), BuildingBlock: EYOCIG_clean_linker_4, # of connection points: 2
#     Edge 29, Type (0, 0), BuildingBlock: EYOCIG_clean_linker_4, # of connection points: 2
#     Edge 30, Type (0, 0), BuildingBlock: EYOCIG_clean_linker_4, # of connection points: 2
#     Edge 31, Type (0, 0), BuildingBlock: EYOCIG_clean_linker_4, # of connection points: 2
#     Edge 32, Type (0, 0), BuildingBlock: EYOCIG_clean_linker_4, # of connection points: 2
#     Edge 33, Type (0, 0), BuildingBlock: EYOCIG_clean_linker_4, # of connection points: 2
#     Edge 34, Type (0, 0), BuildingBlock: EYOCIG_clean_linker_4, # of connection points: 2
#     Edge 35, Type (0, 0), BuildingBlock: EYOCIG_clean_linker_4, # of connection points: 2
#     Edge 36, Type (0, 0), BuildingBlock: EYOCIG_clean_linker_4, # of connection points: 2
#     Edge 37, Type (0, 0), BuildingBlock: EYOCIG_clean_linker_4, # of connection points: 2
#     Edge 38, Type (0, 0), BuildingBlock: EYOCIG_clean_linker_4, # of connection points: 2
#     Edge 39, Type (0, 0), BuildingBlock: EYOCIG_clean_linker_4, # of connection points: 2
#     Edge 40, Type (0, 0), BuildingBlock: EYOCIG_clean_linker_4, # of connection points: 2
#     Edge 41, Type (0, 0), BuildingBlock: EYOCIG_clean_linker_4, # of connection points: 2
#     Edge 42, Type (0, 0), BuildingBlock: EYOCIG_clean_linker_4, # of connection points: 2
#     Edge 43, Type (0, 0), BuildingBlock: EYOCIG_clean_linker_4, # of connection points: 2
#     Edge 44, Type (0, 0), BuildingBlock: EYOCIG_clean_linker_4, # of connection points: 2
#     Edge 45, Type (0, 0), BuildingBlock: EYOCIG_clean_linker_4, # of connection points: 2
#     Edge 46, Type (0, 0), BuildingBlock: EYOCIG_clean_linker_4, # of connection points: 2
#     Edge 47, Type (0, 0), BuildingBlock: EYOCIG_clean_linker_4, # of connection points: 2
# Relax obj value: 0.281
# Max RMSD: 0.165
# Mean RMSD: 0.165
data_MOF--net-ukt--node1-CEKHIL_clean_sbu_0--edge1-EYOCIG_clean_linker_4
_symmetry_space_group_name_H-M    P1
_symmetry_Int_Tables_number       1
_symmetry_cell_setting            triclinic
loop_
_symmetry_equiv_pos_as_xyz
'x, y, z'
_cell_length_a     33.324177
_cell_length_b     33.316877
_cell_length_c     25.985016
_cell_angle_alpha  89.985848
_cell_angle_beta   89.987237
_cell_angle_gamma 89.987573
loop_
_atom_site_label
_atom_site_type_symbol
_atom_site_fract_x
_atom_site_fract_y
_atom_site_fract_z
_atom_type_partial_charge
Co0 Co 0.52524 0.14939 0.10107 0.0
O1 O 0.51406 0.09462 0.12078 0.0
O2 O 0.49764 0.122 0.04585 0.0
C3 C 0.50833 0.1813 0.17486 0.0
O4 O 0.53174 0.20401 0.06688 0.0
Co5 Co 0.59424 0.19535 0.15713 0.0
O6 O 0.57674 0.2402 0.11232 0.0
C7 C 0.61222 0.12701 0.09051 0.0
C8 C 0.50046 0.09001 0.07428 0.0
C9 C 0.55146 0.23641 0.07593 0.0
O10 O 0.57716 0.13003 0.07083 0.0
O11 O 0.62423 0.14792 0.12872 0.0
O12 O 0.48049 0.17108 0.14221 0.0
O13 O 0.54359 0.16748 0.16511 0.0
Co14 Co 0.34579 0.5253 0.10167 0.0
O15 O 0.40046 0.5138 0.12149 0.0
O16 O 0.37325 0.498 0.04626 0.0
C17 C 0.31362 0.50797 0.17513 0.0
O18 O 0.29131 0.5322 0.06731 0.0
Co19 Co 0.29983 0.59405 0.15826 0.0
O20 O 0.25506 0.57696 0.11309 0.0
C21 C 0.36842 0.61233 0.09219 0.0
C22 C 0.40516 0.50052 0.07485 0.0
C23 C 0.25892 0.55192 0.07643 0.0
O24 O 0.3654 0.5774 0.07213 0.0
O25 O 0.34741 0.62414 0.13042 0.0
O26 O 0.32386 0.48032 0.1422 0.0
O27 O 0.32756 0.54326 0.16584 0.0
Co28 Co 0.96946 0.34554 0.10117 0.0
O29 O 0.98089 0.40019 0.12119 0.0
O30 O 0.99671 0.37314 0.04583 0.0
C31 C 0.98683 0.31323 0.17448 0.0
O32 O 0.96264 0.29114 0.06658 0.0
Co33 Co 0.90081 0.29934 0.15759 0.0
O34 O 0.91793 0.25471 0.11218 0.0
C35 C 0.88246 0.36819 0.09198 0.0
C36 C 0.99416 0.40499 0.07455 0.0
C37 C 0.94297 0.2587 0.07554 0.0
O38 O 0.91734 0.36518 0.07177 0.0
O39 O 0.8707 0.34706 0.13014 0.0
O40 O 0.01446 0.32356 0.14156 0.0
O41 O 0.95153 0.32715 0.16526 0.0
Co42 Co 0.14882 0.96918 0.10148 0.0
O43 O 0.09409 0.98036 0.12135 0.0
O44 O 0.12125 0.99649 0.04617 0.0
C45 C 0.18088 0.98645 0.175 0.0
O46 O 0.20333 0.96264 0.06707 0.0
Co47 Co 0.19516 0.90052 0.15781 0.0
O48 O 0.23981 0.91792 0.11261 0.0
C49 C 0.12655 0.88212 0.0919 0.0
C50 C 0.08935 0.99376 0.07476 0.0
C51 C 0.23581 0.94305 0.07606 0.0
O52 O 0.12949 0.91706 0.0718 0.0
O53 O 0.14761 0.87035 0.1301 0.0
O54 O 0.17052 0.01415 0.14218 0.0
O55 O 0.16712 0.95112 0.16556 0.0
Co56 Co 0.52551 0.34564 0.44326 0.0
O57 O 0.51456 0.40038 0.42311 0.0
O58 O 0.4981 0.37342 0.4983 0.0
C59 C 0.50841 0.31341 0.36979 0.0
O60 O 0.53171 0.29122 0.478 0.0
Co61 Co 0.59414 0.29876 0.38764 0.0
O62 O 0.57642 0.25434 0.43302 0.0
C63 C 0.61255 0.3677 0.45301 0.0
C64 C 0.501 0.40526 0.4696 0.0
C65 C 0.55116 0.25861 0.46936 0.0
O66 O 0.5776 0.3649 0.47309 0.0
O67 O 0.62432 0.34643 0.415 0.0
O68 O 0.48063 0.32395 0.4024 0.0
O69 O 0.54374 0.32706 0.37938 0.0
Co70 Co 0.14908 0.52472 0.4433 0.0
O71 O 0.09445 0.51297 0.42357 0.0
O72 O 0.12181 0.49731 0.49878 0.0
C73 C 0.18129 0.5075 0.36983 0.0
O74 O 0.20353 0.53184 0.47761 0.0
Co75 Co 0.1948 0.59358 0.38658 0.0
O76 O 0.23965 0.57661 0.4317 0.0
C77 C 0.12635 0.61179 0.45295 0.0
C78 C 0.08987 0.49967 0.47023 0.0
C79 C 0.23586 0.55161 0.46842 0.0
O80 O 0.12926 0.57677 0.47281 0.0
O81 O 0.14736 0.62368 0.41476 0.0
O82 O 0.1712 0.47982 0.4028 0.0
O83 O 0.1672 0.54273 0.37909 0.0
Co84 Co 0.96976 0.14947 0.44336 0.0
O85 O 0.98061 0.09469 0.4234 0.0
O86 O 0.99714 0.12174 0.49848 0.0
C87 C 0.98694 0.18145 0.36971 0.0
O88 O 0.9636 0.20397 0.47789 0.0
Co89 Co 0.90121 0.19627 0.38746 0.0
O90 O 0.91881 0.24072 0.43283 0.0
C91 C 0.88255 0.12789 0.45378 0.0
C92 C 0.99415 0.08986 0.4699 0.0
C93 C 0.94404 0.23652 0.4692 0.0
O94 O 0.91766 0.13039 0.47341 0.0
O95 O 0.87074 0.14908 0.41571 0.0
O96 O 0.01469 0.17097 0.40237 0.0
O97 O 0.95158 0.1679 0.37939 0.0
Co98 Co 0.34534 0.96952 0.44322 0.0
O99 O 0.4 0.98041 0.42277 0.0
O100 O 0.37327 0.99704 0.49802 0.0
C101 C 0.31297 0.9865 0.36981 0.0
O102 O 0.29099 0.96338 0.47816 0.0
Co103 Co 0.29851 0.9007 0.388 0.0
O104 O 0.25413 0.91857 0.43333 0.0
C105 C 0.36755 0.8825 0.45328 0.0
C106 C 0.40502 0.99406 0.46919 0.0
C107 C 0.25838 0.94389 0.46959 0.0
O108 O 0.3647 0.91749 0.47322 0.0
O109 O 0.34625 0.87061 0.41537 0.0
O110 O 0.32356 0.01433 0.40229 0.0
O111 O 0.32665 0.95117 0.37947 0.0
Co112 Co 0.46981 0.84545 0.94334 0.0
O113 O 0.48042 0.90025 0.92316 0.0
O114 O 0.49715 0.8734 0.9983 0.0
C115 C 0.48703 0.81338 0.86979 0.0
O116 O 0.46395 0.79096 0.97803 0.0
Co117 Co 0.40138 0.79828 0.88778 0.0
O118 O 0.41954 0.75386 0.93288 0.0
C119 C 0.38253 0.8668 0.95375 0.0
C120 C 0.49403 0.90522 0.9696 0.0
C121 C 0.44473 0.75822 0.96925 0.0
O122 O 0.41766 0.86442 0.9734 0.0
O123 O 0.37078 0.84546 0.91579 0.0
O124 O 0.51477 0.82404 0.90235 0.0
O125 O 0.45162 0.82683 0.87948 0.0
Co126 Co 0.64961 0.47041 0.9437 0.0
O127 O 0.59482 0.48107 0.92363 0.0
O128 O 0.62174 0.49778 0.99872 0.0
C129 C 0.6816 0.48759 0.87007 0.0
O130 O 0.7041 0.46448 0.97828 0.0
Co131 Co 0.69663 0.40189 0.88805 0.0
O132 O 0.74106 0.4199 0.93316 0.0
C133 C 0.62814 0.38316 0.95414 0.0
C134 C 0.58991 0.49467 0.97009 0.0
C135 C 0.73677 0.44514 0.96951 0.0
O136 O 0.63063 0.41827 0.97381 0.0
O137 O 0.6494 0.37138 0.91612 0.0
O138 O 0.671 0.51535 0.90265 0.0
O139 O 0.66814 0.45219 0.8798 0.0
Co140 Co 0.02457 0.64934 0.94323 0.0
O141 O 0.01384 0.59455 0.92322 0.0
O142 O 0.99718 0.62157 0.9983 0.0
C143 C 0.00739 0.68134 0.8696 0.0
O144 O 0.03054 0.70383 0.97778 0.0
Co145 Co 0.09304 0.69635 0.88748 0.0
O146 O 0.07504 0.74081 0.93257 0.0
C147 C 0.1119 0.62801 0.95382 0.0
C148 C 0.00023 0.5897 0.9697 0.0
C149 C 0.04984 0.73651 0.96898 0.0
O150 O 0.07671 0.63031 0.97331 0.0
O151 O 0.1237 0.64932 0.91584 0.0
O152 O 0.97964 0.67079 0.90222 0.0
O153 O 0.04277 0.66784 0.87929 0.0
Co154 Co 0.84534 0.02467 0.94261 0.0
O155 O 0.90013 0.01358 0.92291 0.0
O156 O 0.87288 0.99748 0.99805 0.0
C157 C 0.8134 0.00719 0.86909 0.0
O158 O 0.79077 0.03108 0.97685 0.0
Co159 Co 0.79881 0.09306 0.88601 0.0
O160 O 0.75407 0.07531 0.93083 0.0
C161 C 0.86698 0.112 0.95249 0.0
C162 C 0.90482 0.00021 0.96952 0.0
C163 C 0.75815 0.05034 0.96754 0.0
O164 O 0.8645 0.0769 0.97226 0.0
O165 O 0.84584 0.12369 0.91432 0.0
O166 O 0.82381 0.97958 0.90199 0.0
O167 O 0.82707 0.04257 0.87844 0.0
Co168 Co 0.46987 0.6496 0.60106 0.0
O169 O 0.48046 0.59476 0.62108 0.0
O170 O 0.49725 0.62176 0.54603 0.0
C171 C 0.48706 0.68153 0.67472 0.0
O172 O 0.46406 0.70413 0.56649 0.0
Co173 Co 0.40146 0.69679 0.65673 0.0
O174 O 0.41956 0.7412 0.61159 0.0
C175 C 0.38258 0.6284 0.59057 0.0
C176 C 0.49413 0.58989 0.57463 0.0
C177 C 0.4448 0.73685 0.57524 0.0
O178 O 0.41772 0.63073 0.57095 0.0
O179 O 0.37083 0.6497 0.62857 0.0
O180 O 0.51482 0.6709 0.64214 0.0
O181 O 0.45165 0.66813 0.66497 0.0
Co182 Co 0.84537 0.46957 0.60141 0.0
O183 O 0.90014 0.48011 0.62165 0.0
O184 O 0.87345 0.49666 0.54635 0.0
C185 C 0.81323 0.48709 0.67479 0.0
O186 O 0.79097 0.46374 0.56661 0.0
Co187 Co 0.79799 0.40138 0.65721 0.0
O188 O 0.75377 0.41934 0.61168 0.0
C189 C 0.86674 0.3823 0.5918 0.0
C190 C 0.9052 0.49355 0.57513 0.0
C191 C 0.75824 0.4445 0.57526 0.0
O192 O 0.86426 0.41727 0.57173 0.0
O193 O 0.84537 0.37072 0.62982 0.0
O194 O 0.824 0.51472 0.6421 0.0
O195 O 0.82661 0.45162 0.66532 0.0
Co196 Co 0.0249 0.84555 0.60121 0.0
O197 O 0.01377 0.90027 0.62123 0.0
O198 O -0.00238 0.87326 0.54599 0.0
C199 C 0.00757 0.81337 0.67464 0.0
O200 O 0.03133 0.79108 0.56666 0.0
Co201 Co 0.09344 0.79895 0.65733 0.0
O202 O 0.07581 0.75434 0.61223 0.0
C203 C 0.112 0.8677 0.59163 0.0
C204 C 0.00036 0.90511 0.57467 0.0
C205 C 0.05073 0.75848 0.57567 0.0
O206 O 0.07706 0.86491 0.57156 0.0
O207 O 0.12373 0.84649 0.62973 0.0
O208 O 0.9799 0.82383 0.64185 0.0
O209 O 0.04292 0.8271 0.66523 0.0
Co210 Co 0.649 0.02511 0.6014 0.0
O211 O 0.59421 0.01371 0.62083 0.0
O212 O 0.62167 -0.00184 0.54563 0.0
C213 C 0.68088 0.00735 0.67486 0.0
O214 O 0.70359 0.03194 0.56736 0.0
Co215 Co 0.69515 0.09336 0.65873 0.0
O216 O 0.73998 0.07622 0.61365 0.0
C217 C 0.62683 0.1123 0.5925 0.0
C218 C 0.58966 0.00062 0.57407 0.0
C219 C 0.73607 0.0514 0.57677 0.0
O220 O 0.62969 0.07744 0.5722 0.0
O221 O 0.64782 0.12383 0.63089 0.0
O222 O 0.67065 0.97987 0.6417 0.0
O223 O 0.66708 0.04272 0.66577 0.0
C224 C 0.55688 0.29907 1.01669 0.0
C225 C 0.54986 0.26862 0.03974 0.0
C226 C 0.5771 0.33144 0.99371 0.0
C227 C 0.60018 0.35563 0.97633 0.0
C228 C 0.16391 0.57745 0.99381 0.0
C229 C 0.13957 0.60029 0.97626 0.0
C230 C 0.19637 0.55748 1.01695 0.0
C231 C 0.22677 0.55054 0.04014 0.0
C232 C 0.91758 0.16396 0.99242 0.0
C233 C 0.8947 0.13968 0.97486 0.0
C234 C 0.93753 0.19635 1.01572 0.0
C235 C 0.94442 0.22668 0.03908 0.0
C236 C 0.33067 0.91768 0.99334 0.0
C237 C 0.35492 0.89468 0.97594 0.0
C238 C 0.29827 0.93776 1.01645 0.0
C239 C 0.26789 0.94465 0.03968 0.0
C240 C 0.5559 0.19642 0.52952 0.0
C241 C 0.54926 0.22672 0.50598 0.0
C242 C 0.57588 0.1641 0.55295 0.0
C243 C 0.59896 0.13995 0.5704 0.0
C244 C 0.33071 0.57758 0.55095 0.0
C245 C 0.35496 0.60056 0.56836 0.0
C246 C 0.29835 0.55744 0.5279 0.0
C247 C 0.26799 0.55036 0.50473 0.0
C248 C 0.91808 0.33064 0.55272 0.0
C249 C 0.89481 0.35468 0.57002 0.0
C250 C 0.93852 0.29855 0.52944 0.0
C251 C 0.94561 0.26834 0.50593 0.0
C252 C 0.16365 0.919 0.55246 0.0
C253 C 0.1395 0.8958 0.56965 0.0
C254 C 0.19605 0.93913 0.52943 0.0
C255 C 0.22643 0.94588 0.50611 0.0
C256 C 0.43996 0.69596 0.02924 0.0
C257 C 0.44669 0.72631 1.00585 0.0
C258 C 0.41978 0.66371 0.05256 0.0
C259 C 0.39653 0.63971 0.07 0.0
C260 C 0.79898 0.44014 0.0295 0.0
C261 C 0.76867 0.447 1.00611 0.0
C262 C 0.83115 0.4198 0.05274 0.0
C263 C 0.85509 0.39643 0.07004 0.0
C264 C 0.05483 0.79866 0.02908 0.0
C265 C 0.04801 0.76838 1.00561 0.0
C266 C 0.07511 0.8308 0.05243 0.0
C267 C 0.09841 0.85474 0.06985 0.0
C268 C 0.66341 0.07574 0.05037 0.0
C269 C 0.63946 0.09893 0.068 0.0
C270 C 0.69565 0.05555 0.02708 0.0
C271 C 0.72606 0.04873 1.00388 0.0
C272 C 0.43981 0.79908 0.5153 0.0
C273 C 0.44672 0.76874 0.53862 0.0
C274 C 0.41936 0.83127 0.49225 0.0
C275 C 0.39591 0.8552 0.4751 0.0
C276 C 0.69617 0.43961 0.51507 0.0
C277 C 0.72645 0.44642 0.53853 0.0
C278 C 0.66395 0.4193 0.49196 0.0
C279 C 0.63995 0.39595 0.47482 0.0
C280 C 0.07542 0.66346 0.49288 0.0
C281 C 0.09843 0.63926 0.47539 0.0
C282 C 0.05555 0.69594 0.5161 0.0
C283 C 0.04892 0.72638 0.53934 0.0
C284 C 0.79854 0.05702 0.51716 0.0
C285 C 0.76818 0.05011 0.54043 0.0
C286 C 0.83085 0.07708 0.49383 0.0
C287 C 0.855 0.10007 0.4762 0.0
C288 C 0.4976 0.97824 1.01047 0.0
C289 C 0.49602 0.94487 0.99203 0.0
C290 C 0.49666 0.01718 0.03289 0.0
C291 C 0.49832 0.05049 0.05147 0.0
C292 C 0.47803 0.49694 0.03357 0.0
C293 C 0.44471 0.49852 0.05214 0.0
C294 C 0.51695 0.49802 1.01114 0.0
C295 C 0.5503 0.49655 0.99265 0.0
C296 C 0.99671 0.5168 1.01088 0.0
C297 C -0.00173 0.55012 0.99231 0.0
C298 C -0.00226 0.4779 0.03339 0.0
C299 C 0.99615 0.44459 0.05197 0.0
C300 C 0.0165 0.99743 0.03348 0.0
C301 C 0.04979 0.9958 0.0521 0.0
C302 C 0.97763 0.9965 1.01092 0.0
C303 C 0.94434 -0.00186 0.99226 0.0
C304 C 0.49793 0.51701 0.53343 0.0
C305 C 0.49623 0.5503 0.55207 0.0
C306 C 0.49714 0.47815 0.51078 0.0
C307 C 0.49887 0.44486 0.49213 0.0
C308 C 0.01709 0.49576 0.51168 0.0
C309 C 0.05036 0.49749 0.49302 0.0
C310 C 0.9782 0.49677 0.53421 0.0
C311 C 0.94486 0.49533 0.55272 0.0
C312 C 0.99668 0.97804 0.53358 0.0
C313 C -0.00169 0.94471 0.55211 0.0
C314 C -0.00233 0.01696 0.5111 0.0
C315 C 0.99612 0.05028 0.49253 0.0
C316 C 0.51694 0.9969 0.53245 0.0
C317 C 0.55019 -0.00146 0.55119 0.0
C318 C 0.47804 -0.0022 0.50993 0.0
C319 C 0.44469 0.99613 0.4915 0.0
C320 C 0.49952 0.26122 0.29323 0.0
C321 C 0.50176 0.28485 0.32865 0.0
C322 C 0.49957 0.23332 0.25166 0.0
C323 C 0.50184 0.20977 0.21615 0.0
C324 C 0.23355 0.49874 0.29329 0.0
C325 C 0.20991 0.50094 0.32872 0.0
C326 C 0.26147 0.49887 0.25173 0.0
C327 C 0.28508 0.50126 0.21628 0.0
C328 C 0.99595 0.26111 0.2511 0.0
C329 C 0.99359 0.2847 0.21563 0.0
C330 C 0.99598 0.2333 0.29278 0.0
C331 C 0.99368 0.20982 0.32837 0.0
C332 C 0.26081 0.99543 0.29324 0.0
C333 C 0.28443 0.99314 0.32865 0.0
C334 C 0.23293 0.99545 0.25166 0.0
C335 C 0.20936 0.99315 0.21618 0.0
C336 C 0.49615 0.76131 0.79314 0.0
C337 C 0.49381 0.7849 0.8286 0.0
C338 C 0.49615 0.73346 0.75152 0.0
C339 C 0.49383 0.70993 0.71599 0.0
C340 C 0.76129 0.49654 0.75151 0.0
C341 C 0.78482 0.49409 0.716 0.0
C342 C 0.73349 0.49664 0.7932 0.0
C343 C 0.70999 0.49435 0.82876 0.0
C344 C -0.00157 0.76123 0.75124 0.0
C345 C 0.0008 0.78484 0.71579 0.0
C346 C -0.00163 0.73336 0.79284 0.0
C347 C 0.00066 0.7098 0.82835 0.0
C348 C 0.73311 -0.00195 0.75128 0.0
C349 C 0.70947 0.00045 0.71589 0.0
C350 C 0.7611 -0.00197 0.79273 0.0
C351 C 0.78478 0.00039 0.82808 0.0
loop_
_geom_bond_atom_site_label_1
_geom_bond_atom_site_label_2
_geom_bond_distance
_geom_bond_site_symmetry_2
_ccdc_geom_bond_type
Co0 O1 2.216 . S
Co0 O2 2.091 . S
Co0 O4 2.004 . S
Co0 O10 2.021 . S
Co0 O12 2.137 . S
Co0 O13 2.244 . S
O1 Co0 2.216 . S
O1 C8 1.247 . S
O2 Co0 2.091 . S
O2 C8 1.261 . S
C3 O12 1.247 . S
C3 O13 1.272 . S
O4 Co0 2.004 . S
O4 C9 1.259 . S
Co5 O6 2.061 . S
Co5 O11 2.052 . S
Co5 O13 2.135 . S
O6 Co5 2.061 . S
O6 C9 1.235 . S
C7 O10 1.238 . S
C7 O11 1.241 . S
C8 O1 1.247 . S
C8 O2 1.261 . S
C9 O4 1.259 . S
C9 O6 1.235 . S
O10 Co0 2.021 . S
O10 C7 1.238 . S
O11 Co5 2.052 . S
O11 C7 1.241 . S
O12 Co0 2.137 . S
O12 C3 1.247 . S
O13 Co0 2.244 . S
O13 C3 1.272 . S
O13 Co5 2.135 . S
Co14 O15 2.216 . S
Co14 O16 2.091 . S
Co14 O18 2.004 . S
Co14 O24 2.021 . S
Co14 O26 2.137 . S
Co14 O27 2.244 . S
O15 Co14 2.216 . S
O15 C22 1.247 . S
O16 Co14 2.091 . S
O16 C22 1.261 . S
C17 O26 1.247 . S
C17 O27 1.272 . S
O18 Co14 2.004 . S
O18 C23 1.259 . S
Co19 O20 2.061 . S
Co19 O25 2.052 . S
Co19 O27 2.135 . S
O20 Co19 2.061 . S
O20 C23 1.235 . S
C21 O24 1.238 . S
C21 O25 1.241 . S
C22 O15 1.247 . S
C22 O16 1.261 . S
C23 O18 1.259 . S
C23 O20 1.235 . S
O24 Co14 2.021 . S
O24 C21 1.238 . S
O25 Co19 2.052 . S
O25 C21 1.241 . S
O26 Co14 2.137 . S
O26 C17 1.247 . S
O27 Co14 2.244 . S
O27 C17 1.272 . S
O27 Co19 2.135 . S
Co28 O29 2.216 . S
Co28 O30 2.091 1_655 S
Co28 O32 2.004 . S
Co28 O38 2.021 . S
Co28 O40 2.137 1_655 S
Co28 O41 2.244 . S
O29 Co28 2.216 . S
O29 C36 1.247 1_655 S
O30 Co28 2.091 1_455 S
O30 C36 1.261 . S
C31 O40 1.247 1_655 S
C31 O41 1.272 . S
O32 Co28 2.004 . S
O32 C37 1.259 . S
Co33 O34 2.061 . S
Co33 O39 2.052 . S
Co33 O41 2.135 . S
O34 Co33 2.061 . S
O34 C37 1.235 . S
C35 O38 1.238 . S
C35 O39 1.241 . S
C36 O29 1.247 1_455 S
C36 O30 1.261 . S
C37 O32 1.259 . S
C37 O34 1.235 . S
O38 Co28 2.021 . S
O38 C35 1.238 . S
O39 Co33 2.052 . S
O39 C35 1.241 . S
O40 Co28 2.137 1_455 S
O40 C31 1.247 1_455 S
O41 Co28 2.244 . S
O41 C31 1.272 . S
O41 Co33 2.135 . S
Co42 O43 2.216 . S
Co42 O44 2.091 1_565 S
Co42 O46 2.004 . S
Co42 O52 2.021 . S
Co42 O54 2.137 1_565 S
Co42 O55 2.244 . S
O43 Co42 2.216 . S
O43 C50 1.247 1_565 S
O44 Co42 2.091 1_545 S
O44 C50 1.261 . S
C45 O54 1.247 1_565 S
C45 O55 1.272 . S
O46 Co42 2.004 . S
O46 C51 1.259 . S
Co47 O48 2.061 . S
Co47 O53 2.052 . S
Co47 O55 2.135 . S
O48 Co47 2.061 . S
O48 C51 1.235 . S
C49 O52 1.238 . S
C49 O53 1.241 . S
C50 O43 1.247 1_545 S
C50 O44 1.261 . S
C51 O46 1.259 . S
C51 O48 1.235 . S
O52 Co42 2.021 . S
O52 C49 1.238 . S
O53 Co47 2.052 . S
O53 C49 1.241 . S
O54 Co42 2.137 1_545 S
O54 C45 1.247 1_545 S
O55 Co42 2.244 . S
O55 C45 1.272 . S
O55 Co47 2.135 . S
Co56 O57 2.216 . S
Co56 O58 2.091 . S
Co56 O60 2.004 . S
Co56 O66 2.021 . S
Co56 O68 2.137 . S
Co56 O69 2.244 . S
O57 Co56 2.216 . S
O57 C64 1.247 . S
O58 Co56 2.091 . S
O58 C64 1.261 . S
C59 O68 1.247 . S
C59 O69 1.272 . S
O60 Co56 2.004 . S
O60 C65 1.259 . S
Co61 O62 2.061 . S
Co61 O67 2.052 . S
Co61 O69 2.135 . S
O62 Co61 2.061 . S
O62 C65 1.235 . S
C63 O66 1.238 . S
C63 O67 1.241 . S
C64 O57 1.247 . S
C64 O58 1.261 . S
C65 O60 1.259 . S
C65 O62 1.235 . S
O66 Co56 2.021 . S
O66 C63 1.238 . S
O67 Co61 2.052 . S
O67 C63 1.241 . S
O68 Co56 2.137 . S
O68 C59 1.247 . S
O69 Co56 2.244 . S
O69 C59 1.272 . S
O69 Co61 2.135 . S
Co70 O71 2.216 . S
Co70 O72 2.091 . S
Co70 O74 2.004 . S
Co70 O80 2.021 . S
Co70 O82 2.137 . S
Co70 O83 2.244 . S
O71 Co70 2.216 . S
O71 C78 1.247 . S
O72 Co70 2.091 . S
O72 C78 1.261 . S
C73 O82 1.247 . S
C73 O83 1.272 . S
O74 Co70 2.004 . S
O74 C79 1.259 . S
Co75 O76 2.061 . S
Co75 O81 2.052 . S
Co75 O83 2.135 . S
O76 Co75 2.061 . S
O76 C79 1.235 . S
C77 O80 1.238 . S
C77 O81 1.241 . S
C78 O71 1.247 . S
C78 O72 1.261 . S
C79 O74 1.259 . S
C79 O76 1.235 . S
O80 Co70 2.021 . S
O80 C77 1.238 . S
O81 Co75 2.052 . S
O81 C77 1.241 . S
O82 Co70 2.137 . S
O82 C73 1.247 . S
O83 Co70 2.244 . S
O83 C73 1.272 . S
O83 Co75 2.135 . S
Co84 O85 2.216 . S
Co84 O86 2.091 1_655 S
Co84 O88 2.004 . S
Co84 O94 2.021 . S
Co84 O96 2.137 1_655 S
Co84 O97 2.244 . S
O85 Co84 2.216 . S
O85 C92 1.247 1_655 S
O86 Co84 2.091 1_455 S
O86 C92 1.261 . S
C87 O96 1.247 1_655 S
C87 O97 1.272 . S
O88 Co84 2.004 . S
O88 C93 1.259 . S
Co89 O90 2.061 . S
Co89 O95 2.052 . S
Co89 O97 2.135 . S
O90 Co89 2.061 . S
O90 C93 1.235 . S
C91 O94 1.238 . S
C91 O95 1.241 . S
C92 O85 1.247 1_455 S
C92 O86 1.261 . S
C93 O88 1.259 . S
C93 O90 1.235 . S
O94 Co84 2.021 . S
O94 C91 1.238 . S
O95 Co89 2.052 . S
O95 C91 1.241 . S
O96 Co84 2.137 1_455 S
O96 C87 1.247 1_455 S
O97 Co84 2.244 . S
O97 C87 1.272 . S
O97 Co89 2.135 . S
Co98 O99 2.216 . S
Co98 O100 2.091 1_565 S
Co98 O102 2.004 . S
Co98 O108 2.021 . S
Co98 O110 2.137 1_565 S
Co98 O111 2.244 . S
O99 Co98 2.216 . S
O99 C106 1.247 1_565 S
O100 Co98 2.091 1_545 S
O100 C106 1.261 . S
C101 O110 1.247 1_565 S
C101 O111 1.272 . S
O102 Co98 2.004 . S
O102 C107 1.259 . S
Co103 O104 2.061 . S
Co103 O109 2.052 . S
Co103 O111 2.135 . S
O104 Co103 2.061 . S
O104 C107 1.235 . S
C105 O108 1.238 . S
C105 O109 1.241 . S
C106 O99 1.247 1_545 S
C106 O100 1.261 . S
C107 O102 1.259 . S
C107 O104 1.235 . S
O108 Co98 2.021 . S
O108 C105 1.238 . S
O109 Co103 2.052 . S
O109 C105 1.241 . S
O110 Co98 2.137 1_545 S
O110 C101 1.247 1_545 S
O111 Co98 2.244 . S
O111 C101 1.272 . S
O111 Co103 2.135 . S
Co112 O113 2.216 . S
Co112 O114 2.091 . S
Co112 O116 2.004 . S
Co112 O122 2.021 . S
Co112 O124 2.137 . S
Co112 O125 2.244 . S
O113 Co112 2.216 . S
O113 C120 1.247 . S
O114 Co112 2.091 . S
O114 C120 1.261 . S
C115 O124 1.247 . S
C115 O125 1.272 . S
O116 Co112 2.004 . S
O116 C121 1.259 . S
Co117 O118 2.061 . S
Co117 O123 2.052 . S
Co117 O125 2.135 . S
O118 Co117 2.061 . S
O118 C121 1.235 . S
C119 O122 1.238 . S
C119 O123 1.241 . S
C120 O113 1.247 . S
C120 O114 1.261 . S
C121 O116 1.259 . S
C121 O118 1.235 . S
O122 Co112 2.021 . S
O122 C119 1.238 . S
O123 Co117 2.052 . S
O123 C119 1.241 . S
O124 Co112 2.137 . S
O124 C115 1.247 . S
O125 Co112 2.244 . S
O125 C115 1.272 . S
O125 Co117 2.135 . S
Co126 O127 2.216 . S
Co126 O128 2.091 . S
Co126 O130 2.004 . S
Co126 O136 2.021 . S
Co126 O138 2.137 . S
Co126 O139 2.244 . S
O127 Co126 2.216 . S
O127 C134 1.247 . S
O128 Co126 2.091 . S
O128 C134 1.261 . S
C129 O138 1.247 . S
C129 O139 1.272 . S
O130 Co126 2.004 . S
O130 C135 1.259 . S
Co131 O132 2.061 . S
Co131 O137 2.052 . S
Co131 O139 2.135 . S
O132 Co131 2.061 . S
O132 C135 1.235 . S
C133 O136 1.238 . S
C133 O137 1.241 . S
C134 O127 1.247 . S
C134 O128 1.261 . S
C135 O130 1.259 . S
C135 O132 1.235 . S
O136 Co126 2.021 . S
O136 C133 1.238 . S
O137 Co131 2.052 . S
O137 C133 1.241 . S
O138 Co126 2.137 . S
O138 C129 1.247 . S
O139 Co126 2.244 . S
O139 C129 1.272 . S
O139 Co131 2.135 . S
Co140 O141 2.216 . S
Co140 O142 2.091 1_455 S
Co140 O144 2.004 . S
Co140 O150 2.021 . S
Co140 O152 2.137 1_455 S
Co140 O153 2.244 . S
O141 Co140 2.216 . S
O141 C148 1.247 1_455 S
O142 Co140 2.091 1_655 S
O142 C148 1.261 . S
C143 O152 1.247 1_455 S
C143 O153 1.272 . S
O144 Co140 2.004 . S
O144 C149 1.259 . S
Co145 O146 2.061 . S
Co145 O151 2.052 . S
Co145 O153 2.135 . S
O146 Co145 2.061 . S
O146 C149 1.235 . S
C147 O150 1.238 . S
C147 O151 1.241 . S
C148 O141 1.247 1_655 S
C148 O142 1.261 . S
C149 O144 1.259 . S
C149 O146 1.235 . S
O150 Co140 2.021 . S
O150 C147 1.238 . S
O151 Co145 2.052 . S
O151 C147 1.241 . S
O152 Co140 2.137 1_655 S
O152 C143 1.247 1_655 S
O153 Co140 2.244 . S
O153 C143 1.272 . S
O153 Co145 2.135 . S
Co154 O155 2.216 . S
Co154 O156 2.091 1_545 S
Co154 O158 2.004 . S
Co154 O164 2.021 . S
Co154 O166 2.137 1_545 S
Co154 O167 2.244 . S
O155 Co154 2.216 . S
O155 C162 1.247 1_545 S
O156 Co154 2.091 1_565 S
O156 C162 1.261 . S
C157 O166 1.247 1_545 S
C157 O167 1.272 . S
O158 Co154 2.004 . S
O158 C163 1.259 . S
Co159 O160 2.061 . S
Co159 O165 2.052 . S
Co159 O167 2.135 . S
O160 Co159 2.061 . S
O160 C163 1.235 . S
C161 O164 1.238 . S
C161 O165 1.241 . S
C162 O155 1.247 1_565 S
C162 O156 1.261 . S
C163 O158 1.259 . S
C163 O160 1.235 . S
O164 Co154 2.021 . S
O164 C161 1.238 . S
O165 Co159 2.052 . S
O165 C161 1.241 . S
O166 Co154 2.137 1_565 S
O166 C157 1.247 1_565 S
O167 Co154 2.244 . S
O167 C157 1.272 . S
O167 Co159 2.135 . S
Co168 O169 2.216 . S
Co168 O170 2.091 . S
Co168 O172 2.004 . S
Co168 O178 2.021 . S
Co168 O180 2.137 . S
Co168 O181 2.244 . S
O169 Co168 2.216 . S
O169 C176 1.247 . S
O170 Co168 2.091 . S
O170 C176 1.261 . S
C171 O180 1.247 . S
C171 O181 1.272 . S
O172 Co168 2.004 . S
O172 C177 1.259 . S
Co173 O174 2.061 . S
Co173 O179 2.052 . S
Co173 O181 2.135 . S
O174 Co173 2.061 . S
O174 C177 1.235 . S
C175 O178 1.238 . S
C175 O179 1.241 . S
C176 O169 1.247 . S
C176 O170 1.261 . S
C177 O172 1.259 . S
C177 O174 1.235 . S
O178 Co168 2.021 . S
O178 C175 1.238 . S
O179 Co173 2.052 . S
O179 C175 1.241 . S
O180 Co168 2.137 . S
O180 C171 1.247 . S
O181 Co168 2.244 . S
O181 C171 1.272 . S
O181 Co173 2.135 . S
Co182 O183 2.216 . S
Co182 O184 2.091 . S
Co182 O186 2.004 . S
Co182 O192 2.021 . S
Co182 O194 2.137 . S
Co182 O195 2.244 . S
O183 Co182 2.216 . S
O183 C190 1.247 . S
O184 Co182 2.091 . S
O184 C190 1.261 . S
C185 O194 1.247 . S
C185 O195 1.272 . S
O186 Co182 2.004 . S
O186 C191 1.259 . S
Co187 O188 2.061 . S
Co187 O193 2.052 . S
Co187 O195 2.135 . S
O188 Co187 2.061 . S
O188 C191 1.235 . S
C189 O192 1.238 . S
C189 O193 1.241 . S
C190 O183 1.247 . S
C190 O184 1.261 . S
C191 O186 1.259 . S
C191 O188 1.235 . S
O192 Co182 2.021 . S
O192 C189 1.238 . S
O193 Co187 2.052 . S
O193 C189 1.241 . S
O194 Co182 2.137 . S
O194 C185 1.247 . S
O195 Co182 2.244 . S
O195 C185 1.272 . S
O195 Co187 2.135 . S
Co196 O197 2.216 . S
Co196 O198 2.091 1_455 S
Co196 O200 2.004 . S
Co196 O206 2.021 . S
Co196 O208 2.137 1_455 S
Co196 O209 2.244 . S
O197 Co196 2.216 . S
O197 C204 1.247 1_455 S
O198 Co196 2.091 1_655 S
O198 C204 1.261 . S
C199 O208 1.247 1_455 S
C199 O209 1.272 . S
O200 Co196 2.004 . S
O200 C205 1.259 . S
Co201 O202 2.061 . S
Co201 O207 2.052 . S
Co201 O209 2.135 . S
O202 Co201 2.061 . S
O202 C205 1.235 . S
C203 O206 1.238 . S
C203 O207 1.241 . S
C204 O197 1.247 1_655 S
C204 O198 1.261 . S
C205 O200 1.259 . S
C205 O202 1.235 . S
O206 Co196 2.021 . S
O206 C203 1.238 . S
O207 Co201 2.052 . S
O207 C203 1.241 . S
O208 Co196 2.137 1_655 S
O208 C199 1.247 1_655 S
O209 Co196 2.244 . S
O209 C199 1.272 . S
O209 Co201 2.135 . S
Co210 O211 2.216 . S
Co210 O212 2.091 1_545 S
Co210 O214 2.004 . S
Co210 O220 2.021 . S
Co210 O222 2.137 1_545 S
Co210 O223 2.244 . S
O211 Co210 2.216 . S
O211 C218 1.247 1_545 S
O212 Co210 2.091 1_565 S
O212 C218 1.261 . S
C213 O222 1.247 1_545 S
C213 O223 1.272 . S
O214 Co210 2.004 . S
O214 C219 1.259 . S
Co215 O216 2.061 . S
Co215 O221 2.052 . S
Co215 O223 2.135 . S
O216 Co215 2.061 . S
O216 C219 1.235 . S
C217 O220 1.238 . S
C217 O221 1.241 . S
C218 O211 1.247 1_565 S
C218 O212 1.261 . S
C219 O214 1.259 . S
C219 O216 1.235 . S
O220 Co210 2.021 . S
O220 C217 1.238 . S
O221 Co215 2.052 . S
O221 C217 1.241 . S
O222 Co210 2.137 1_565 S
O222 C213 1.247 1_565 S
O223 Co210 2.244 . S
O223 C213 1.272 . S
O223 Co215 2.135 . S
C224 C225 1.170 1_556 S
C224 C226 1.380 . S
C225 C224 1.170 1_554 S
C226 C224 1.380 . S
C226 C227 1.170 . S
C227 C226 1.170 . S
C228 C229 1.170 . S
C228 C230 1.380 . S
C229 C228 1.170 . S
C230 C228 1.380 . S
C230 C231 1.170 1_556 S
C231 C230 1.170 1_554 S
C232 C233 1.170 . S
C232 C234 1.380 . S
C233 C232 1.170 . S
C234 C232 1.380 . S
C234 C235 1.170 1_556 S
C235 C234 1.170 1_554 S
C236 C237 1.170 . S
C236 C238 1.380 . S
C237 C236 1.170 . S
C238 C236 1.380 . S
C238 C239 1.170 1_556 S
C239 C238 1.170 1_554 S
C240 C241 1.170 . S
C240 C242 1.380 . S
C241 C240 1.170 . S
C242 C240 1.380 . S
C242 C243 1.170 . S
C243 C242 1.170 . S
C244 C245 1.170 . S
C244 C246 1.380 . S
C245 C244 1.170 . S
C246 C244 1.380 . S
C246 C247 1.170 . S
C247 C246 1.170 . S
C248 C249 1.170 . S
C248 C250 1.380 . S
C249 C248 1.170 . S
C250 C248 1.380 . S
C250 C251 1.170 . S
C251 C250 1.170 . S
C252 C253 1.170 . S
C252 C254 1.380 . S
C253 C252 1.170 . S
C254 C252 1.380 . S
C254 C255 1.170 . S
C255 C254 1.170 . S
C256 C257 1.168 1_554 S
C256 C258 1.380 . S
C257 C256 1.168 1_556 S
C258 C256 1.380 . S
C258 C259 1.170 . S
C259 C258 1.170 . S
C260 C261 1.170 . S
C260 C262 1.380 . S
C261 C260 1.170 . S
C262 C260 1.380 . S
C262 C263 1.170 . S
C263 C262 1.170 . S
C264 C265 1.173 . S
C264 C266 1.380 . S
C265 C264 1.173 . S
C266 C264 1.380 . S
C266 C267 1.170 . S
C267 C266 1.170 . S
C268 C269 1.170 . S
C268 C270 1.380 . S
C269 C268 1.170 . S
C270 C268 1.380 . S
C270 C271 1.170 1_554 S
C271 C270 1.170 1_556 S
C272 C273 1.170 . S
C272 C274 1.380 . S
C273 C272 1.170 . S
C274 C272 1.380 . S
C274 C275 1.170 . S
C275 C274 1.170 . S
C276 C277 1.170 . S
C276 C278 1.380 . S
C277 C276 1.170 . S
C278 C276 1.380 . S
C278 C279 1.170 . S
C279 C278 1.170 . S
C280 C281 1.170 . S
C280 C282 1.380 . S
C281 C280 1.170 . S
C282 C280 1.380 . S
C282 C283 1.170 . S
C283 C282 1.170 . S
C284 C285 1.170 . S
C284 C286 1.380 . S
C285 C284 1.170 . S
C286 C284 1.380 . S
C286 C287 1.170 . S
C287 C286 1.170 . S
C288 C289 1.170 . S
C288 C290 1.380 1_566 S
C289 C288 1.170 . S
C290 C288 1.380 1_544 S
C290 C291 1.170 . S
C291 C290 1.170 . S
C292 C293 1.170 . S
C292 C294 1.380 1_554 S
C293 C292 1.170 . S
C294 C292 1.380 1_556 S
C294 C295 1.170 . S
C295 C294 1.170 . S
C296 C297 1.170 . S
C296 C298 1.376 1_656 S
C297 C296 1.170 . S
C298 C296 1.376 1_454 S
C298 C299 1.176 . S
C299 C298 1.176 . S
C300 C301 1.175 . S
C300 C302 1.376 1_444 S
C301 C300 1.175 . S
C302 C300 1.376 1_666 S
C302 C303 1.170 . S
C303 C302 1.170 . S
C304 C305 1.170 . S
C304 C306 1.380 . S
C305 C304 1.170 . S
C306 C304 1.380 . S
C306 C307 1.170 . S
C307 C306 1.170 . S
C308 C309 1.170 . S
C308 C310 1.380 1_455 S
C309 C308 1.170 . S
C310 C308 1.380 1_655 S
C310 C311 1.170 . S
C311 C310 1.170 . S
C312 C313 1.170 . S
C312 C314 1.380 1_665 S
C313 C312 1.170 . S
C314 C312 1.380 1_445 S
C314 C315 1.170 . S
C315 C314 1.170 . S
C316 C317 1.170 . S
C316 C318 1.380 1_565 S
C317 C316 1.170 . S
C318 C316 1.380 1_545 S
C318 C319 1.170 . S
C319 C318 1.170 . S
C320 C321 1.170 . S
C320 C322 1.380 . S
C321 C320 1.170 . S
C322 C320 1.380 . S
C322 C323 1.170 . S
C323 C322 1.170 . S
C324 C325 1.170 . S
C324 C326 1.380 . S
C325 C324 1.170 . S
C326 C324 1.380 . S
C326 C327 1.170 . S
C327 C326 1.170 . S
C328 C329 1.170 . S
C328 C330 1.380 . S
C329 C328 1.170 . S
C330 C328 1.380 . S
C330 C331 1.170 . S
C331 C330 1.170 . S
C332 C333 1.170 . S
C332 C334 1.380 . S
C333 C332 1.170 . S
C334 C332 1.380 . S
C334 C335 1.170 . S
C335 C334 1.170 . S
C336 C337 1.170 . S
C336 C338 1.380 . S
C337 C336 1.170 . S
C338 C336 1.380 . S
C338 C339 1.170 . S
C339 C338 1.170 . S
C340 C341 1.170 . S
C340 C342 1.380 . S
C341 C340 1.170 . S
C342 C340 1.380 . S
C342 C343 1.170 . S
C343 C342 1.170 . S
C344 C345 1.170 . S
C344 C346 1.380 . S
C345 C344 1.170 . S
C346 C344 1.380 . S
C346 C347 1.170 . S
C347 C346 1.170 . S
C348 C349 1.170 . S
C348 C350 1.380 . S
C349 C348 1.170 . S
C350 C348 1.380 . S
C350 C351 1.170 . S
C351 C350 1.170 . S
C225 C9 0.934 . S
C227 C133 1.046 . S
C229 C147 1.047 . S
C231 C23 0.933 . S
C233 C161 1.034 . S
C235 C37 0.950 . S
C237 C119 1.037 . S
C239 C51 0.944 . S
C241 C65 1.015 . S
C243 C217 1.017 . S
C245 C175 1.034 . S
C247 C79 0.949 . S
C249 C189 1.016 . S
C251 C93 1.005 . S
C253 C203 1.026 . S
C255 C107 1.016 . S
C257 C121 1.027 . S
C259 C21 1.048 . S
C261 C135 1.018 1_554 S
C263 C35 1.041 . S
C265 C149 1.005 1_554 S
C267 C49 1.033 . S
C269 C7 1.051 . S
C271 C163 0.962 . S
C273 C177 1.017 . S
C275 C105 1.038 . S
C277 C191 1.014 . S
C279 C63 1.034 . S
C281 C77 1.054 . S
C283 C205 1.002 . S
C285 C219 0.942 . S
C287 C91 1.042 . S
C289 C120 1.867 . S
C291 C8 1.832 . S
C293 C22 1.846 . S
C295 C134 1.871 . S
C297 C148 1.875 . S
C299 C36 1.835 . S
C301 C50 1.833 . S
C303 C162 1.874 . S
C305 C176 1.862 . S
C307 C64 1.834 . S
C309 C78 1.857 . S
C311 C190 1.837 . S
C313 C204 1.862 . S
C315 C92 1.835 . S
C317 C218 1.854 . S
C319 C106 1.865 . S
C321 C59 1.686 . S
C323 C3 1.681 . S
C325 C73 1.694 . S
C327 C17 1.703 . S
C329 C31 1.682 . S
C331 C87 1.701 . S
C333 C101 1.680 . S
C335 C45 1.692 . S
C337 C115 1.680 . S
C339 C171 1.702 . S
C341 C185 1.703 . S
C343 C129 1.682 . S
C345 C199 1.687 . S
C347 C143 1.699 . S
C349 C213 1.704 . S
C351 C157 1.681 . S
