# Generated by pormake.
# Topology umg, (4)-cn, num edge types: 1
# Building blocks:
#     Node 0, Type 0, BuildingBlock: KOZSID_clean_sbu_0, # of connection points: 4
#     Node 1, Type 0, BuildingBlock: KOZSID_clean_sbu_0, # of connection points: 4
#     Node 2, Type 0, BuildingBlock: KOZSID_clean_sbu_0, # of connection points: 4
#     Node 3, Type 0, BuildingBlock: KOZSID_clean_sbu_0, # of connection points: 4
#     Node 4, Type 0, BuildingBlock: KOZSID_clean_sbu_0, # of connection points: 4
#     Node 5, Type 0, BuildingBlock: KOZSID_clean_sbu_0, # of connection points: 4
#     Node 6, Type 0, BuildingBlock: KOZSID_clean_sbu_0, # of connection points: 4
#     Node 7, Type 0, BuildingBlock: KOZSID_clean_sbu_0, # of connection points: 4
#     Node 8, Type 0, BuildingBlock: KOZSID_clean_sbu_0, # of connection points: 4
#     Node 9, Type 0, BuildingBlock: KOZSID_clean_sbu_0, # of connection points: 4
#     Node 10, Type 0, BuildingBlock: KOZSID_clean_sbu_0, # of connection points: 4
#     Node 11, Type 0, BuildingBlock: KOZSID_clean_sbu_0, # of connection points: 4
#     Edge 12, Type (0, 0), BuildingBlock: AJUNOK_clean_linker_0, # of connection points: 2
#     Edge 13, Type (0, 0), BuildingBlock: AJUNOK_clean_linker_0, # of connection points: 2
#     Edge 14, Type (0, 0), BuildingBlock: AJUNOK_clean_linker_0, # of connection points: 2
#     Edge 15, Type (0, 0), BuildingBlock: AJUNOK_clean_linker_0, # of connection points: 2
#     Edge 16, Type (0, 0), BuildingBlock: AJUNOK_clean_linker_0, # of connection points: 2
#     Edge 17, Type (0, 0), BuildingBlock: AJUNOK_clean_linker_0, # of connection points: 2
#     Edge 18, Type (0, 0), BuildingBlock: AJUNOK_clean_linker_0, # of connection points: 2
#     Edge 19, Type (0, 0), BuildingBlock: AJUNOK_clean_linker_0, # of connection points: 2
#     Edge 20, Type (0, 0), BuildingBlock: AJUNOK_clean_linker_0, # of connection points: 2
#     Edge 21, Type (0, 0), BuildingBlock: AJUNOK_clean_linker_0, # of connection points: 2
#     Edge 22, Type (0, 0), BuildingBlock: AJUNOK_clean_linker_0, # of connection points: 2
#     Edge 23, Type (0, 0), BuildingBlock: AJUNOK_clean_linker_0, # of connection points: 2
#     Edge 24, Type (0, 0), BuildingBlock: AJUNOK_clean_linker_0, # of connection points: 2
#     Edge 25, Type (0, 0), BuildingBlock: AJUNOK_clean_linker_0, # of connection points: 2
#     Edge 26, Type (0, 0), BuildingBlock: AJUNOK_clean_linker_0, # of connection points: 2
#     Edge 27, Type (0, 0), BuildingBlock: AJUNOK_clean_linker_0, # of connection points: 2
#     Edge 28, Type (0, 0), BuildingBlock: AJUNOK_clean_linker_0, # of connection points: 2
#     Edge 29, Type (0, 0), BuildingBlock: AJUNOK_clean_linker_0, # of connection points: 2
#     Edge 30, Type (0, 0), BuildingBlock: AJUNOK_clean_linker_0, # of connection points: 2
#     Edge 31, Type (0, 0), BuildingBlock: AJUNOK_clean_linker_0, # of connection points: 2
#     Edge 32, Type (0, 0), BuildingBlock: AJUNOK_clean_linker_0, # of connection points: 2
#     Edge 33, Type (0, 0), BuildingBlock: AJUNOK_clean_linker_0, # of connection points: 2
#     Edge 34, Type (0, 0), BuildingBlock: AJUNOK_clean_linker_0, # of connection points: 2
#     Edge 35, Type (0, 0), BuildingBlock: AJUNOK_clean_linker_0, # of connection points: 2
# Relax obj value: 0.044
# Max RMSD: 0.161
# Mean RMSD: 0.161
data_MOF--net-umg--node1-KOZSID_clean_sbu_0--edge1-AJUNOK_clean_linker_0
_symmetry_space_group_name_H-M    P1
_symmetry_Int_Tables_number       1
_symmetry_cell_setting            triclinic
loop_
_symmetry_equiv_pos_as_xyz
'x, y, z'
_cell_length_a     31.008802
_cell_length_b     31.061949
_cell_length_c     70.92371
_cell_angle_alpha  89.948973
_cell_angle_beta   90.007792
_cell_angle_gamma 120.00359
loop_
_atom_site_label
_atom_site_type_symbol
_atom_site_fract_x
_atom_site_fract_y
_atom_site_fract_z
_atom_type_partial_charge
C0 C 0.27782 0.54722 0.13469 0.0
C1 C 0.26828 0.51555 0.14988 0.0
C2 C 0.26364 0.47224 0.14274 0.0
C3 C 0.27069 0.47971 0.12361 0.0
N4 N 0.2792 0.52488 0.11831 0.0
Co5 Co 0.29222 0.55059 0.09203 0.0
N6 N 0.26568 0.48335 0.0808 0.0
C7 C 0.25929 0.4429 0.09017 0.0
C8 C 0.24207 0.40182 0.07874 0.0
C9 C 0.23793 0.41767 0.06106 0.0
C10 C 0.25286 0.46768 0.06266 0.0
N11 N 0.30516 0.57743 0.06591 0.0
C12 C 0.28854 0.55398 0.04914 0.0
C13 C 0.30967 0.58723 0.03427 0.0
C14 C 0.34035 0.63285 0.04194 0.0
C15 C 0.33657 0.62503 0.06101 0.0
N16 N 0.31962 0.61829 0.10302 0.0
C17 C 0.34802 0.66156 0.09388 0.0
C18 C 0.35776 0.70253 0.10432 0.0
C19 C 0.33447 0.68417 0.12117 0.0
C20 C 0.3127 0.63272 0.12027 0.0
N21 N 0.35954 0.55614 0.09287 0.0
C22 C 0.44345 0.54123 0.09547 0.0
C23 C 0.41806 0.53551 0.07838 0.0
C24 C 0.37655 0.54244 0.07744 0.0
C25 C 0.42777 0.55867 0.11091 0.0
C26 C 0.38641 0.56628 0.10929 0.0
N27 N 0.224 0.54182 0.09133 0.0
C28 C 0.16517 0.57046 0.08552 0.0
C29 C 0.1244 0.5243 0.09115 0.0
C30 C 0.13537 0.48727 0.09639 0.0
C31 C 0.18462 0.49686 0.09667 0.0
C32 C 0.2144 0.57837 0.08563 0.0
H33 H 0.19048 0.46718 0.10123 0.0
H34 H 0.24464 0.61405 0.0812 0.0
H35 H 0.35707 0.53449 0.0642 0.0
H36 H 0.375 0.5784 0.12161 0.0
C37 C 0.26321 0.44372 0.10996 0.0
C38 C 0.28949 0.59948 0.13651 0.0
C39 C 0.2577 0.50001 0.04659 0.0
C40 C 0.35626 0.66224 0.07459 0.0
H41 H 0.26551 0.52318 0.16458 0.0
H42 H 0.25487 0.43887 0.15054 0.0
H43 H 0.2324 0.36448 0.08283 0.0
H44 H 0.22582 0.39522 0.04841 0.0
H45 H 0.30479 0.57916 0.01941 0.0
H46 H 0.36205 0.66766 0.03449 0.0
H47 H 0.37711 0.74102 0.09985 0.0
H48 H 0.3338 0.70644 0.13275 0.0
H49 H 0.42954 0.52489 0.06563 0.0
H50 H 0.44613 0.5648 0.12442 0.0
H51 H 0.1593 0.60059 0.08123 0.0
H52 H 0.10598 0.45031 0.10009 0.0
C53 C 0.74361 0.2546 0.4695 0.0
C54 C 0.75438 0.22599 0.48153 0.0
C55 C 0.7936 0.22341 0.47372 0.0
C56 C 0.80357 0.2485 0.45689 0.0
N57 N 0.77251 0.26618 0.45363 0.0
Co58 Co 0.76165 0.28858 0.42868 0.0
N59 N 0.79798 0.26118 0.41463 0.0
C60 C 0.83015 0.24917 0.42239 0.0
C61 C 0.85164 0.2332 0.40925 0.0
C62 C 0.83215 0.23595 0.39218 0.0
C63 C 0.79955 0.25326 0.39584 0.0
N64 N 0.74822 0.30984 0.40399 0.0
C65 C 0.75124 0.29547 0.38622 0.0
C66 C 0.73847 0.32042 0.37306 0.0
C67 C 0.72859 0.35236 0.38293 0.0
C68 C 0.73539 0.34495 0.4015 0.0
N69 N 0.72732 0.3181 0.44255 0.0
C70 C 0.72186 0.35592 0.4362 0.0
C71 C 0.70449 0.37505 0.44968 0.0
C72 C 0.69851 0.34742 0.46552 0.0
C73 C 0.71152 0.31199 0.46068 0.0
N74 N 0.82592 0.35278 0.43085 0.0
C75 C 0.9227 0.43903 0.43365 0.0
C76 C 0.89206 0.41784 0.44963 0.0
C77 C 0.84402 0.37541 0.44792 0.0
C78 C 0.90261 0.41596 0.41626 0.0
C79 C 0.8551 0.37334 0.41519 0.0
N80 N 0.6991 0.22349 0.42646 0.0
C81 C 0.60981 0.17166 0.42216 0.0
C82 C 0.6124 0.12774 0.42433 0.0
C83 C 0.65959 0.13364 0.4275 0.0
C84 C 0.70164 0.18096 0.42865 0.0
C85 C 0.65352 0.21903 0.42315 0.0
H86 H 0.73637 0.18256 0.43146 0.0
H87 H 0.65047 0.25197 0.42141 0.0
H88 H 0.82201 0.36026 0.46054 0.0
H89 H 0.84266 0.35654 0.40154 0.0
C90 C 0.83133 0.24425 0.44205 0.0
C91 C 0.70857 0.2734 0.47363 0.0
C92 C 0.77299 0.26446 0.38113 0.0
C93 C 0.72621 0.36708 0.41697 0.0
H94 H 0.73474 0.20664 0.49413 0.0
H95 H 0.80963 0.20169 0.47889 0.0
H96 H 0.87689 0.21929 0.41183 0.0
H97 H 0.84087 0.22635 0.37859 0.0
H98 H 0.73819 0.31735 0.35786 0.0
H99 H 0.71752 0.37773 0.37724 0.0
H100 H 0.69579 0.40453 0.44806 0.0
H101 H 0.68578 0.35274 0.47906 0.0
H102 H 0.90536 0.43279 0.46355 0.0
H103 H 0.92358 0.4305 0.40334 0.0
H104 H 0.57433 0.16973 0.42006 0.0
H105 H 0.66444 0.10162 0.42903 0.0
C106 C 0.49904 0.72507 0.80051 0.0
C107 C 0.53428 0.72766 0.81328 0.0
C108 C 0.57875 0.7482 0.80396 0.0
C109 C 0.56854 0.75629 0.78595 0.0
N110 N 0.52047 0.7432 0.78323 0.0
Co111 Co 0.48938 0.73794 0.75779 0.0
N112 N 0.55501 0.77089 0.74434 0.0
C113 C 0.59899 0.7814 0.7519 0.0
C114 C 0.63805 0.80386 0.73948 0.0
C115 C 0.61745 0.8075 0.7229 0.0
C116 C 0.56682 0.78687 0.72616 0.0
N117 N 0.45736 0.73098 0.7326 0.0
C118 C 0.47754 0.74975 0.71543 0.0
C119 C 0.44096 0.73455 0.70165 0.0
C120 C 0.39644 0.70561 0.71037 0.0
C121 C 0.40811 0.70451 0.72892 0.0
N122 N 0.42354 0.70587 0.77106 0.0
C123 C 0.37851 0.68817 0.76295 0.0
C124 C 0.34118 0.6786 0.77552 0.0
C125 C 0.3636 0.68932 0.79279 0.0
C126 C 0.41304 0.70277 0.78976 0.0
N127 N 0.49531 0.80506 0.76113 0.0
C128 C 0.50756 0.90317 0.76262 0.0
C129 C 0.46144 0.8607 0.75832 0.0
C130 C 0.45643 0.81293 0.75731 0.0
C131 C 0.54673 0.89418 0.76696 0.0
C132 C 0.53978 0.84554 0.76635 0.0
N133 N 0.48584 0.67208 0.75428 0.0
C134 C 0.48195 0.59873 0.76834 0.0
C135 C 0.50384 0.59072 0.75244 0.0
C136 C 0.51307 0.62225 0.73692 0.0
C137 C 0.5039 0.66238 0.73811 0.0
C138 C 0.47223 0.63848 0.76878 0.0
H139 H 0.51323 0.68648 0.72607 0.0
H140 H 0.45488 0.64233 0.7812 0.0
H141 H 0.42081 0.78266 0.75319 0.0
H142 H 0.57118 0.8412 0.76978 0.0
C143 C 0.60238 0.77287 0.771 0.0
C144 C 0.44485 0.70055 0.80465 0.0
C145 C 0.5309 0.77985 0.71127 0.0
C146 C 0.37352 0.686 0.74347 0.0
H147 H 0.52876 0.71379 0.82753 0.0
H148 H 0.6139 0.75412 0.80943 0.0
H149 H 0.67695 0.81657 0.7422 0.0
H150 H 0.63722 0.82284 0.70981 0.0
H151 H 0.44575 0.7436 0.68681 0.0
H152 H 0.35978 0.689 0.70407 0.0
H153 H 0.30237 0.66558 0.77249 0.0
H154 H 0.34485 0.68382 0.80619 0.0
H155 H 0.42869 0.86372 0.75578 0.0
H156 H 0.58327 0.92471 0.77048 0.0
H157 H 0.4725 0.57445 0.78048 0.0
H158 H 0.52895 0.61704 0.72412 0.0
C159 C 0.79047 0.49704 0.13652 0.0
C160 C 0.81896 0.53631 0.14859 0.0
C161 C 0.82385 0.57856 0.14029 0.0
C162 C 0.79997 0.56368 0.12321 0.0
N163 N 0.7808 0.51467 0.12028 0.0
Co164 Co 0.75804 0.48086 0.09544 0.0
N165 N 0.7876 0.5441 0.08097 0.0
C166 C 0.80115 0.58889 0.08844 0.0
C167 C 0.81825 0.62589 0.07507 0.0
C168 C 0.81454 0.60269 0.05814 0.0
C169 C 0.79554 0.5527 0.06213 0.0
N170 N 0.73642 0.44533 0.07093 0.0
C171 C 0.75135 0.46178 0.05308 0.0
C172 C 0.7258 0.42373 0.04012 0.0
C173 C 0.69291 0.38269 0.05018 0.0
C174 C 0.70037 0.39766 0.06865 0.0
N175 N 0.72617 0.41749 0.10973 0.0
C176 C 0.68763 0.37454 0.10347 0.0
C177 C 0.66726 0.33848 0.1171 0.0
C178 C 0.6948 0.36002 0.13296 0.0
C179 C 0.73135 0.40792 0.12798 0.0
N180 N 0.69482 0.48367 0.09703 0.0
C181 C 0.61107 0.49871 0.09856 0.0
C182 C 0.63357 0.49865 0.08142 0.0
C183 C 0.67507 0.49169 0.08096 0.0
C184 C 0.6314 0.49042 0.11501 0.0
C185 C 0.67258 0.48237 0.11394 0.0
N186 N 0.82245 0.48115 0.09368 0.0
C187 C 0.87254 0.44141 0.09021 0.0
C188 C 0.91713 0.48759 0.0914 0.0
C189 C 0.91284 0.52985 0.09385 0.0
C190 C 0.86593 0.52584 0.09521 0.0
C191 C 0.82562 0.43905 0.09114 0.0
H192 H 0.86551 0.55965 0.09768 0.0
H193 H 0.79203 0.40335 0.08988 0.0
H194 H 0.69177 0.49414 0.06743 0.0
H195 H 0.68687 0.47589 0.12687 0.0
C196 C 0.80589 0.59558 0.10809 0.0
C197 C 0.77011 0.44311 0.14095 0.0
C198 C 0.78313 0.51415 0.04766 0.0
C199 C 0.67708 0.36726 0.08423 0.0
H200 H 0.83659 0.53553 0.1616 0.0
H201 H 0.84604 0.61627 0.1454 0.0
H202 H 0.83339 0.66529 0.07739 0.0
H203 H 0.82464 0.62044 0.04445 0.0
H204 H 0.72901 0.42588 0.02492 0.0
H205 H 0.66679 0.34631 0.04467 0.0
H206 H 0.63709 0.30059 0.11556 0.0
H207 H 0.68872 0.34222 0.14659 0.0
H208 H 0.61989 0.50526 0.06831 0.0
H209 H 0.61533 0.48974 0.12864 0.0
H210 H 0.87391 0.40752 0.08839 0.0
H211 H 0.94588 0.56615 0.09513 0.0
C212 C 0.30791 0.79861 0.46884 0.0
C213 C 0.29773 0.82755 0.48091 0.0
C214 C 0.25873 0.8307 0.47317 0.0
C215 C 0.24827 0.80555 0.45636 0.0
N216 N 0.27881 0.78729 0.45306 0.0
Co217 Co 0.28878 0.76428 0.42812 0.0
N218 N 0.2531 0.79245 0.41409 0.0
C219 C 0.22154 0.8052 0.42188 0.0
C220 C 0.20092 0.82223 0.40877 0.0
C221 C 0.22038 0.81943 0.39169 0.0
C222 C 0.25203 0.80094 0.39532 0.0
N223 N 0.30121 0.7423 0.40347 0.0
C224 C 0.29811 0.7566 0.38568 0.0
C225 C 0.30831 0.7297 0.37254 0.0
C226 C 0.3172 0.69707 0.38244 0.0
C227 C 0.31211 0.70581 0.40102 0.0
N228 N 0.32247 0.73402 0.44194 0.0
C229 C 0.3267 0.69542 0.43567 0.0
C230 C 0.34397 0.67609 0.44913 0.0
C231 C 0.35114 0.70437 0.46487 0.0
C232 C 0.33884 0.74032 0.45999 0.0
N233 N 0.22403 0.70065 0.43051 0.0
C234 C 0.12783 0.61437 0.43357 0.0
C235 C 0.14707 0.63736 0.41613 0.0
C236 C 0.1944 0.68022 0.41494 0.0
C237 C 0.15855 0.63537 0.44947 0.0
C238 C 0.20641 0.67796 0.44763 0.0
N239 N 0.35188 0.82881 0.42572 0.0
C240 C 0.44132 0.87944 0.42151 0.0
C241 C 0.43911 0.92354 0.42318 0.0
C242 C 0.3925 0.91877 0.42631 0.0
C243 C 0.35004 0.8718 0.42768 0.0
C244 C 0.39719 0.83244 0.42259 0.0
H245 H 0.31565 0.87084 0.43058 0.0
H246 H 0.39966 0.79914 0.42099 0.0
H247 H 0.20639 0.69728 0.40128 0.0
H248 H 0.22891 0.69286 0.46014 0.0
C249 C 0.22065 0.81023 0.44155 0.0
C250 C 0.34265 0.77935 0.47286 0.0
C251 C 0.27846 0.78949 0.38061 0.0
C252 C 0.32108 0.68349 0.41651 0.0
H253 H 0.31764 0.84676 0.49347 0.0
H254 H 0.24318 0.85281 0.47837 0.0
H255 H 0.17644 0.83704 0.41137 0.0
H256 H 0.21234 0.82989 0.37814 0.0
H257 H 0.30727 0.7318 0.35738 0.0
H258 H 0.32632 0.67029 0.37675 0.0
H259 H 0.35174 0.64597 0.44756 0.0
H260 H 0.36406 0.69906 0.47837 0.0
H261 H 0.12503 0.62303 0.40343 0.0
H262 H 0.14587 0.61879 0.46325 0.0
H263 H 0.47671 0.88127 0.41919 0.0
H264 H 0.38884 0.95145 0.42809 0.0
C265 C 0.5441 0.29068 0.80175 0.0
C266 C 0.50593 0.27645 0.8148 0.0
C267 C 0.46355 0.23848 0.80677 0.0
C268 C 0.47719 0.23205 0.78904 0.0
N269 N 0.52555 0.26392 0.78546 0.0
Co270 Co 0.55757 0.27577 0.76021 0.0
N271 N 0.49318 0.24152 0.74654 0.0
C272 C 0.44914 0.2095 0.75444 0.0
C273 C 0.41103 0.18925 0.74151 0.0
C274 C 0.43272 0.20936 0.72441 0.0
C275 C 0.48299 0.241 0.72785 0.0
N276 N 0.5913 0.29033 0.73532 0.0
C277 C 0.57335 0.28883 0.71774 0.0
C278 C 0.61055 0.30197 0.70431 0.0
C279 C 0.65256 0.31041 0.71378 0.0
C280 C 0.63899 0.30246 0.73241 0.0
N281 N 0.62197 0.30787 0.77373 0.0
C282 C 0.66435 0.31184 0.767 0.0
C283 C 0.70073 0.32594 0.78045 0.0
C284 C 0.6799 0.33132 0.79667 0.0
C285 C 0.6323 0.32169 0.79202 0.0
N286 N 0.55603 0.21032 0.76131 0.0
C287 C 0.54184 0.11156 0.7622 0.0
C288 C 0.54224 0.13524 0.74522 0.0
C289 C 0.54817 0.18324 0.74511 0.0
C290 C 0.55149 0.14037 0.77873 0.0
C291 C 0.55883 0.18933 0.77798 0.0
N292 N 0.5562 0.33924 0.7589 0.0
C293 C 0.59337 0.42796 0.75298 0.0
C294 C 0.54707 0.42565 0.75539 0.0
C295 C 0.50629 0.37946 0.76006 0.0
C296 C 0.51163 0.33748 0.76189 0.0
C297 C 0.59705 0.38427 0.75461 0.0
H298 H 0.47887 0.30328 0.76562 0.0
H299 H 0.63266 0.38675 0.75224 0.0
H300 H 0.54528 0.19774 0.73169 0.0
H301 H 0.56567 0.2097 0.79101 0.0
C302 C 0.44416 0.20622 0.77419 0.0
C303 C 0.59817 0.32657 0.80518 0.0
C304 C 0.52034 0.26755 0.71299 0.0
C305 C 0.67054 0.30914 0.7476 0.0
H306 H 0.50713 0.29247 0.8284 0.0
H307 H 0.42636 0.22057 0.81265 0.0
H308 H 0.3719 0.16415 0.74424 0.0
H309 H 0.41383 0.20153 0.71095 0.0
H310 H 0.60721 0.3032 0.68917 0.0
H311 H 0.68862 0.32103 0.70778 0.0
H312 H 0.73836 0.33297 0.77859 0.0
H313 H 0.69808 0.34215 0.81026 0.0
H314 H 0.53794 0.11701 0.7318 0.0
H315 H 0.55231 0.12492 0.79232 0.0
H316 H 0.62618 0.46293 0.74946 0.0
H317 H 0.47003 0.3757 0.76241 0.0
C318 C 0.51265 0.79422 0.54157 0.0
C319 C 0.55082 0.81821 0.52852 0.0
C320 C 0.5929 0.82125 0.53636 0.0
C321 C 0.57906 0.80022 0.55395 0.0
N322 N 0.53088 0.78441 0.5576 0.0
Co323 Co 0.49862 0.76298 0.58272 0.0
N324 N 0.56283 0.79173 0.59644 0.0
C325 C 0.60679 0.80349 0.58852 0.0
C326 C 0.64481 0.82086 0.60148 0.0
C327 C 0.62311 0.81923 0.61859 0.0
C328 C 0.57289 0.80098 0.61515 0.0
N329 N 0.46467 0.74235 0.60749 0.0
C330 C 0.48247 0.75757 0.62515 0.0
C331 C 0.44547 0.73152 0.63848 0.0
C332 C 0.40373 0.69831 0.62882 0.0
C333 C 0.41724 0.70593 0.61019 0.0
N334 N 0.43437 0.73205 0.5692 0.0
C335 C 0.39199 0.69302 0.57558 0.0
C336 C 0.35571 0.67215 0.56202 0.0
C337 C 0.37671 0.69999 0.54612 0.0
C338 C 0.4243 0.73731 0.55108 0.0
N339 N 0.49943 0.69907 0.5809 0.0
C340 C 0.51011 0.61315 0.57853 0.0
C341 C 0.51377 0.63675 0.59579 0.0
C342 C 0.50893 0.67942 0.59665 0.0
C343 C 0.4999 0.63325 0.56246 0.0
C344 C 0.49422 0.67562 0.56396 0.0
N345 N 0.5007 0.82793 0.58454 0.0
C346 C 0.46367 0.87999 0.58922 0.0
C347 C 0.51011 0.92391 0.58656 0.0
C348 C 0.55104 0.91778 0.58286 0.0
C349 C 0.54557 0.8704 0.58175 0.0
C350 C 0.45984 0.83251 0.58827 0.0
H351 H 0.57845 0.86866 0.57853 0.0
H352 H 0.42396 0.7996 0.59042 0.0
H353 H 0.51406 0.69703 0.61017 0.0
H354 H 0.48634 0.68981 0.55131 0.0
C355 C 0.6119 0.80609 0.56875 0.0
C356 C 0.45877 0.77746 0.53842 0.0
C357 C 0.53532 0.79005 0.62998 0.0
C358 C 0.38577 0.68216 0.59486 0.0
H359 H 0.54986 0.83389 0.51508 0.0
H360 H 0.63009 0.84026 0.53046 0.0
H361 H 0.68393 0.83478 0.59876 0.0
H362 H 0.64198 0.83001 0.63206 0.0
H363 H 0.44884 0.73445 0.65364 0.0
H364 H 0.36791 0.67176 0.63471 0.0
H365 H 0.31808 0.64144 0.56362 0.0
H366 H 0.35868 0.69411 0.53254 0.0
H367 H 0.52179 0.62312 0.60862 0.0
H368 H 0.49602 0.61618 0.54879 0.0
H369 H 0.43029 0.88198 0.5917 0.0
H370 H 0.58786 0.94967 0.58092 0.0
C371 C 0.74433 0.49163 0.87745 0.0
C372 C 0.75416 0.53105 0.86558 0.0
C373 C 0.79252 0.5731 0.87355 0.0
C374 C 0.80286 0.55802 0.89031 0.0
N375 N 0.77285 0.50905 0.8934 0.0
Co376 Co 0.76252 0.47546 0.9183 0.0
N377 N 0.79827 0.539 0.9325 0.0
C378 C 0.82967 0.58347 0.92479 0.0
C379 C 0.85116 0.62074 0.93798 0.0
C380 C 0.83255 0.5981 0.95506 0.0
C381 C 0.80043 0.54816 0.95134 0.0
N382 N 0.74941 0.44046 0.94293 0.0
C383 C 0.75272 0.45755 0.96079 0.0
C384 C 0.74008 0.41964 0.97384 0.0
C385 C 0.73002 0.37799 0.96382 0.0
C386 C 0.73658 0.39249 0.94529 0.0
N387 N 0.72898 0.41185 0.9042 0.0
C388 C 0.72371 0.36861 0.91051 0.0
C389 C 0.70703 0.33235 0.89697 0.0
C390 C 0.70126 0.35406 0.88111 0.0
C391 C 0.71366 0.40228 0.88599 0.0
N392 N 0.82755 0.47647 0.91606 0.0
C393 C 0.92478 0.48699 0.91343 0.0
C394 C 0.90374 0.48852 0.93082 0.0
C395 C 0.8562 0.48384 0.9318 0.0
C396 C 0.89484 0.47939 0.89733 0.0
C397 C 0.8466 0.47358 0.89896 0.0
N398 N 0.69916 0.47693 0.92065 0.0
C399 C 0.60945 0.43785 0.92466 0.0
C400 C 0.61152 0.4842 0.92355 0.0
C401 C 0.65827 0.52625 0.92089 0.0
C402 C 0.70089 0.52184 0.91924 0.0
C403 C 0.65371 0.43509 0.92341 0.0
H404 H 0.73533 0.55548 0.91667 0.0
H405 H 0.65119 0.39922 0.92462 0.0
H406 H 0.84329 0.48721 0.94549 0.0
H407 H 0.8252 0.46784 0.88625 0.0
C408 C 0.83028 0.5899 0.90518 0.0
C409 C 0.71061 0.43779 0.87298 0.0
C410 C 0.77488 0.51021 0.96606 0.0
C411 C 0.72773 0.36157 0.92974 0.0
H412 H 0.73446 0.53049 0.85296 0.0
H413 H 0.80779 0.61086 0.86851 0.0
H414 H 0.87588 0.65999 0.93544 0.0
H415 H 0.84152 0.61619 0.96868 0.0
H416 H 0.74013 0.42223 0.98905 0.0
H417 H 0.71916 0.34152 0.96941 0.0
H418 H 0.6987 0.29429 0.89856 0.0
H419 H 0.6891 0.33616 0.86753 0.0
H420 H 0.92392 0.49356 0.94384 0.0
H421 H 0.90875 0.47928 0.88337 0.0
H422 H 0.57406 0.40415 0.9267 0.0
H423 H 0.66188 0.5627 0.91972 0.0
C424 C 0.2654 0.7268 0.21079 0.0
C425 C 0.24087 0.73647 0.1965 0.0
C426 C 0.21363 0.75476 0.20494 0.0
C427 C 0.22328 0.75574 0.22386 0.0
N428 N 0.25579 0.74027 0.22795 0.0
Co429 Co 0.27738 0.7343 0.254 0.0
N430 N 0.24578 0.77016 0.26593 0.0
C431 C 0.21299 0.78028 0.25747 0.0
C432 C 0.19577 0.80367 0.26913 0.0
C433 C 0.2187 0.80817 0.28612 0.0
C434 C 0.24872 0.78722 0.28388 0.0
N435 N 0.29937 0.72815 0.2799 0.0
C436 C 0.29979 0.75069 0.29637 0.0
C437 C 0.31974 0.73608 0.31091 0.0
C438 C 0.33154 0.7029 0.30349 0.0
C439 C 0.31848 0.69924 0.2849 0.0
N440 N 0.3083 0.69718 0.24238 0.0
C441 C 0.32544 0.67129 0.252 0.0
C442 C 0.34011 0.64504 0.24088 0.0
C443 C 0.33114 0.65391 0.22295 0.0
C444 C 0.31194 0.6859 0.2241 0.0
N445 N 0.34052 0.79963 0.2506 0.0
C446 C 0.4276 0.89663 0.24778 0.0
C447 C 0.43036 0.85442 0.25354 0.0
C448 C 0.38678 0.80673 0.25491 0.0
C449 C 0.37961 0.88812 0.24363 0.0
C450 C 0.33758 0.84018 0.24475 0.0
N451 N 0.21298 0.67051 0.2573 0.0
C452 C 0.14194 0.59932 0.24296 0.0
C453 C 0.1124 0.59133 0.259 0.0
C454 C 0.13564 0.62194 0.27468 0.0
C455 C 0.18553 0.66111 0.27353 0.0
C456 C 0.19176 0.63822 0.24249 0.0
H457 H 0.20108 0.68487 0.28563 0.0
H458 H 0.21222 0.64279 0.22975 0.0
H459 H 0.39063 0.77579 0.25963 0.0
H460 H 0.30232 0.83662 0.24117 0.0
C461 C 0.20381 0.77226 0.23811 0.0
C462 C 0.2926 0.69962 0.20762 0.0
C463 C 0.27702 0.78164 0.29943 0.0
C464 C 0.32846 0.67315 0.27148 0.0
H465 H 0.24121 0.72938 0.18158 0.0
H466 H 0.18931 0.7656 0.19809 0.0
H467 H 0.17034 0.81679 0.2656 0.0
H468 H 0.21361 0.82456 0.29879 0.0
H469 H 0.3247 0.74755 0.32548 0.0
H470 H 0.34857 0.68443 0.31071 0.0
H471 H 0.35466 0.62141 0.24531 0.0
H472 H 0.33629 0.63667 0.21059 0.0
H473 H 0.46601 0.858 0.25699 0.0
H474 H 0.37367 0.91856 0.23997 0.0
H475 H 0.12652 0.57577 0.23068 0.0
H476 H 0.11486 0.61689 0.28756 0.0
C477 C 0.53962 0.25731 0.54305 0.0
C478 C 0.5012 0.23264 0.53016 0.0
C479 C 0.45912 0.22942 0.53807 0.0
C480 C 0.47324 0.25101 0.55555 0.0
N481 N 0.52159 0.26734 0.55907 0.0
Co482 Co 0.5543 0.28956 0.58408 0.0
N483 N 0.49029 0.26122 0.59798 0.0
C484 C 0.44619 0.24917 0.59012 0.0
C485 C 0.40845 0.23266 0.60318 0.0
C486 C 0.43048 0.2352 0.62031 0.0
C487 C 0.48056 0.25296 0.61675 0.0
N488 N 0.58867 0.31078 0.60878 0.0
C489 C 0.57115 0.29604 0.62652 0.0
C490 C 0.60861 0.32155 0.63972 0.0
C491 C 0.65034 0.35423 0.62991 0.0
C492 C 0.63637 0.3467 0.61132 0.0
N493 N 0.61834 0.32026 0.57038 0.0
C494 C 0.66091 0.35925 0.57662 0.0
C495 C 0.69692 0.38005 0.56296 0.0
C496 C 0.67558 0.35219 0.54712 0.0
C497 C 0.62809 0.31488 0.55222 0.0
N498 N 0.55342 0.35339 0.58198 0.0
C499 C 0.54202 0.43913 0.57917 0.0
C500 C 0.53892 0.41588 0.59655 0.0
C501 C 0.54426 0.37352 0.59763 0.0
C502 C 0.55193 0.41829 0.56321 0.0
C503 C 0.55799 0.37618 0.56493 0.0
N504 N 0.55236 0.22468 0.58614 0.0
C505 C 0.59025 0.17311 0.58997 0.0
C506 C 0.54359 0.12928 0.58823 0.0
C507 C 0.5021 0.13472 0.5852 0.0
C508 C 0.50726 0.18199 0.58401 0.0
C509 C 0.59376 0.22044 0.58913 0.0
H510 H 0.47407 0.18343 0.58111 0.0
H511 H 0.62978 0.25348 0.59077 0.0
H512 H 0.53985 0.35659 0.61126 0.0
H513 H 0.56525 0.3614 0.55232 0.0
C514 C 0.44067 0.24564 0.57038 0.0
C515 C 0.59352 0.27449 0.53969 0.0
C516 C 0.5183 0.26449 0.63154 0.0
C517 C 0.66759 0.37013 0.59588 0.0
H518 H 0.50205 0.21668 0.51678 0.0
H519 H 0.42182 0.21002 0.5323 0.0
H520 H 0.36931 0.21881 0.60055 0.0
H521 H 0.41193 0.22534 0.63386 0.0
H522 H 0.60562 0.31854 0.65491 0.0
H523 H 0.68647 0.38034 0.63566 0.0
H524 H 0.73461 0.41071 0.56445 0.0
H525 H 0.69337 0.358 0.53349 0.0
H526 H 0.53211 0.4301 0.60946 0.0
H527 H 0.55361 0.43327 0.54929 0.0
H528 H 0.62359 0.17082 0.59219 0.0
H529 H 0.46554 0.10233 0.58335 0.0
C530 C 0.31404 0.5319 0.87686 0.0
C531 C 0.31699 0.49848 0.86465 0.0
C532 C 0.29801 0.45422 0.87395 0.0
C533 C 0.286 0.46297 0.89154 0.0
N534 N 0.29542 0.50996 0.89403 0.0
Co535 Co 0.29863 0.54032 0.91942 0.0
N536 N 0.26643 0.47459 0.93277 0.0
C537 C 0.2584 0.43141 0.92531 0.0
C538 C 0.2368 0.39219 0.93767 0.0
C539 C 0.23118 0.41186 0.95414 0.0
C540 C 0.24991 0.46214 0.95088 0.0
N541 N 0.30344 0.57142 0.94462 0.0
C542 C 0.2829 0.55072 0.96154 0.0
C543 C 0.29486 0.58702 0.97518 0.0
C544 C 0.32434 0.63175 0.96674 0.0
C545 C 0.32858 0.62055 0.94843 0.0
N546 N 0.33008 0.60625 0.90627 0.0
C547 C 0.3476 0.65097 0.91455 0.0
C548 C 0.35799 0.68873 0.90214 0.0
C549 C 0.34784 0.66699 0.8848 0.0
C550 C 0.33371 0.61734 0.88758 0.0
N551 N 0.23103 0.53277 0.91556 0.0
C552 C 0.13204 0.51791 0.91284 0.0
C553 C 0.17312 0.56398 0.91814 0.0
C554 C 0.22152 0.57045 0.91953 0.0
C555 C 0.14264 0.47969 0.90882 0.0
C556 C 0.19176 0.48802 0.90995 0.0
N557 N 0.36511 0.54561 0.92338 0.0
C558 C 0.43907 0.55064 0.90942 0.0
C559 C 0.44639 0.5275 0.92511 0.0
C560 C 0.41468 0.51787 0.94062 0.0
C561 C 0.37458 0.52716 0.93948 0.0
C562 C 0.39929 0.56033 0.90903 0.0
H563 H 0.35013 0.51734 0.95146 0.0
H564 H 0.39559 0.57822 0.89671 0.0
H565 H 0.25094 0.60609 0.9241 0.0
H566 H 0.1975 0.45744 0.90665 0.0
C567 C 0.26948 0.42903 0.90644 0.0
C568 C 0.33433 0.58541 0.87236 0.0
C569 C 0.25496 0.49728 0.96576 0.0
C570 C 0.34811 0.65531 0.93401 0.0
H571 H 0.33424 0.50558 0.85093 0.0
H572 H 0.29612 0.42046 0.86887 0.0
H573 H 0.22625 0.35385 0.93503 0.0
H574 H 0.21603 0.39178 0.96718 0.0
H575 H 0.2829 0.58197 0.98966 0.0
H576 H 0.33888 0.6682 0.973 0.0
H577 H 0.37058 0.7273 0.90534 0.0
H578 H 0.35296 0.68618 0.87152 0.0
H579 H 0.16816 0.59532 0.92129 0.0
H580 H 0.11311 0.4427 0.90532 0.0
H581 H 0.46373 0.56081 0.89737 0.0
H582 H 0.41949 0.50127 0.9533 0.0
C583 C 0.78269 0.28984 0.21117 0.0
C584 C 0.80906 0.27749 0.19856 0.0
C585 C 0.81367 0.23971 0.20669 0.0
C586 C 0.7911 0.23142 0.22403 0.0
N587 N 0.77277 0.26187 0.22723 0.0
Co588 Co 0.74832 0.27097 0.25198 0.0
N589 N 0.77869 0.23803 0.26632 0.0
C590 C 0.79301 0.20744 0.25877 0.0
C591 C 0.81087 0.18815 0.27211 0.0
C592 C 0.80685 0.20741 0.28906 0.0
C593 C 0.78689 0.23764 0.28513 0.0
N594 N 0.72486 0.28286 0.27639 0.0
C595 C 0.73972 0.28145 0.29424 0.0
C596 C 0.7126 0.29202 0.30717 0.0
C597 C 0.67882 0.2988 0.29704 0.0
C598 C 0.68734 0.29245 0.27855 0.0
N599 N 0.7159 0.30177 0.23776 0.0
C600 C 0.67573 0.30376 0.24365 0.0
C601 C 0.6555 0.31919 0.22984 0.0
C602 C 0.68502 0.32761 0.21431 0.0
C603 C 0.72259 0.31811 0.21972 0.0
N604 N 0.68604 0.20429 0.24987 0.0
C605 C 0.60245 0.10487 0.24743 0.0
C606 C 0.6244 0.12693 0.26478 0.0
C607 C 0.66575 0.17552 0.26567 0.0
C608 C 0.62403 0.1349 0.23126 0.0
C609 C 0.66474 0.18417 0.2328 0.0
N610 N 0.81158 0.33571 0.25427 0.0
C611 C 0.85956 0.42522 0.2588 0.0
C612 C 0.90481 0.42493 0.25748 0.0
C613 C 0.90195 0.37922 0.25436 0.0
C614 C 0.85571 0.33582 0.25255 0.0
C615 C 0.81333 0.38013 0.25737 0.0
H616 H 0.85623 0.3022 0.24963 0.0
H617 H 0.77913 0.38114 0.25874 0.0
H618 H 0.68173 0.18921 0.27936 0.0
H619 H 0.67967 0.20555 0.22004 0.0
C620 C 0.79741 0.20541 0.23907 0.0
C621 C 0.76424 0.3254 0.20753 0.0
C622 C 0.77352 0.26308 0.29958 0.0
C623 C 0.66383 0.29905 0.26285 0.0
H624 H 0.82529 0.29466 0.18524 0.0
H625 H 0.83461 0.22318 0.2012 0.0
H626 H 0.82665 0.16443 0.26976 0.0
H627 H 0.81728 0.20003 0.30274 0.0
H628 H 0.7155 0.29285 0.32239 0.0
H629 H 0.65151 0.30753 0.30252 0.0
H630 H 0.62428 0.32546 0.23109 0.0
H631 H 0.6801 0.34035 0.20071 0.0
H632 H 0.60989 0.1068 0.27785 0.0
H633 H 0.61082 0.12043 0.2173 0.0
H634 H 0.85987 0.45981 0.26113 0.0
H635 H 0.93561 0.37705 0.25297 0.0
C636 C 0.27875 0.47303 0.99634 0.0
C637 C 0.24482 0.48171 0.98613 0.0
C638 C 0.27885 0.47271 0.01625 0.0
C639 C 0.24516 0.48127 0.02668 0.0
H640 H 0.30789 0.47042 0.98892 0.0
H641 H 0.30832 0.47028 0.0235 0.0
S642 S 0.14624 0.50143 0.00669 0.0
N643 N 0.17413 0.49477 0.98798 0.0
N644 N 0.17483 0.49497 0.02523 0.0
C645 C 0.20883 0.48625 0.01661 0.0
C646 C 0.20851 0.48624 0.99639 0.0
C647 C 0.74344 0.21817 0.3504 0.0
C648 C 0.7805 0.25855 0.36061 0.0
C649 C 0.74384 0.21776 0.33052 0.0
C650 C 0.781 0.25801 0.32017 0.0
H651 H 0.71245 0.18809 0.3578 0.0
H652 H 0.71308 0.18735 0.32316 0.0
S653 S 0.88745 0.3714 0.34025 0.0
N654 N 0.8567 0.33841 0.35891 0.0
N655 N 0.85677 0.33808 0.32165 0.0
C656 C 0.81944 0.29737 0.33024 0.0
C657 C 0.81937 0.29753 0.35043 0.0
C658 C 0.54023 0.8276 0.68132 0.0
C659 C 0.54634 0.79133 0.69096 0.0
C660 C 0.54129 0.83008 0.66146 0.0
C661 C 0.54888 0.79665 0.65051 0.0
H662 H 0.53105 0.85188 0.68915 0.0
H663 H 0.53285 0.85615 0.65458 0.0
S664 S 0.56868 0.69612 0.6689 0.0
N665 N 0.56205 0.72257 0.68803 0.0
N666 N 0.56444 0.72748 0.65085 0.0
C667 C 0.55784 0.76213 0.66003 0.0
C668 C 0.55652 0.75945 0.68021 0.0
C669 C 0.75085 0.52945 0.01727 0.0
C670 C 0.78888 0.52641 0.02702 0.0
C671 C 0.74837 0.52779 0.9974 0.0
C672 C 0.78406 0.5235 0.98659 0.0
H673 H 0.72102 0.52975 0.02511 0.0
H674 H 0.71687 0.5271 0.9905 0.0
S675 S 0.89232 0.51694 1.00521 0.0
N676 N 0.86385 0.52085 0.02429 0.0
N677 N 0.85985 0.51881 0.98707 0.0
C678 C 0.82369 0.52324 0.99614 0.0
C679 C 0.82591 0.5244 0.01632 0.0
C680 C 0.313 0.82974 0.32949 0.0
C681 C 0.27124 0.7935 0.31952 0.0
C682 C 0.31362 0.83114 0.34938 0.0
C683 C 0.27236 0.7967 0.36004 0.0
H684 H 0.34678 0.85457 0.3219 0.0
H685 H 0.34776 0.85719 0.35649 0.0
S686 S 0.15318 0.69623 0.34078 0.0
N687 N 0.18692 0.72392 0.32188 0.0
N688 N 0.18789 0.72697 0.35909 0.0
C689 C 0.22936 0.76242 0.35021 0.0
C690 C 0.22882 0.76079 0.33001 0.0
C691 C 0.50491 0.22079 0.68245 0.0
C692 C 0.50619 0.26051 0.69253 0.0
C693 C 0.50458 0.22003 0.66257 0.0
C694 C 0.50486 0.25862 0.65207 0.0
H695 H 0.50771 0.19193 0.68999 0.0
H696 H 0.50718 0.19067 0.65537 0.0
S697 S 0.50507 0.36929 0.67171 0.0
N698 N 0.50544 0.33802 0.69052 0.0
N699 N 0.50377 0.33616 0.65327 0.0
C700 C 0.50306 0.29688 0.66201 0.0
C701 C 0.50399 0.29793 0.68221 0.0
C702 C 0.24663 0.63967 0.18067 0.0
C703 C 0.29182 0.67635 0.18877 0.0
C704 C 0.2459 0.61367 0.16417 0.0
C705 C 0.29031 0.62229 0.15542 0.0
H706 H 0.21158 0.63067 0.18724 0.0
H707 H 0.21035 0.587 0.15812 0.0
S708 S 0.41834 0.71188 0.17161 0.0
N709 N 0.38197 0.71953 0.18661 0.0
N710 N 0.38067 0.6679 0.15689 0.0
C711 C 0.33559 0.65751 0.1638 0.0
C712 C 0.33631 0.6854 0.18001 0.0
C713 C 0.6275 0.25626 0.48892 0.0
C714 C 0.67531 0.26146 0.49105 0.0
C715 C 0.60018 0.25893 0.50438 0.0
C716 C 0.61592 0.26061 0.52315 0.0
H717 H 0.61312 0.25513 0.47489 0.0
H718 H 0.56881 0.26363 0.50118 0.0
S719 S 0.73493 0.26837 0.53737 0.0
N720 N 0.73772 0.27131 0.51414 0.0
N721 N 0.67949 0.25964 0.54294 0.0
C722 C 0.66058 0.25917 0.52558 0.0
C723 C 0.6917 0.26337 0.50977 0.0
C724 C 0.43692 0.68327 0.84017 0.0
C725 C 0.42039 0.66674 0.82169 0.0
C726 C 0.41161 0.65428 0.85607 0.0
C727 C 0.36473 0.61019 0.85461 0.0
H728 H 0.46885 0.7197 0.84256 0.0
H729 H 0.42776 0.66836 0.8698 0.0
S730 S 0.30462 0.54922 0.80947 0.0
N731 N 0.35793 0.59777 0.80302 0.0
N732 N 0.30271 0.55221 0.83267 0.0
C733 C 0.34735 0.59339 0.83622 0.0
C734 C 0.37663 0.61955 0.81997 0.0
C735 C 0.78532 0.37843 0.1567 0.0
C736 C 0.78066 0.42134 0.15859 0.0
C737 C 0.78144 0.34814 0.17225 0.0
C738 C 0.77844 0.3618 0.19096 0.0
H739 H 0.78717 0.36532 0.14273 0.0
H740 H 0.77698 0.31217 0.16916 0.0
S741 S 0.7704 0.47308 0.20461 0.0
N742 N 0.76992 0.47385 0.18135 0.0
N743 N 0.77757 0.42566 0.21049 0.0
C744 C 0.7796 0.40773 0.19322 0.0
C745 C 0.7774 0.43541 0.17724 0.0
C746 C 0.45137 0.79294 0.50314 0.0
C747 C 0.43615 0.79148 0.52198 0.0
C748 C 0.42383 0.79582 0.4878 0.0
C749 C 0.37629 0.79114 0.49013 0.0
H750 H 0.48243 0.78787 0.4998 0.0
H751 H 0.43777 0.79669 0.47372 0.0
S752 S 0.31794 0.78477 0.53668 0.0
N753 N 0.3733 0.79296 0.54204 0.0
N754 N 0.31464 0.78189 0.51347 0.0
C755 C 0.3604 0.7894 0.50892 0.0
C756 C 0.39175 0.7933 0.5246 0.0
C757 C 0.63104 0.37359 0.85677 0.0
C758 C 0.67861 0.41675 0.85521 0.0
C759 C 0.60459 0.34494 0.84092 0.0
C760 C 0.62085 0.36086 0.8223 0.0
H761 H 0.61598 0.35909 0.87061 0.0
H762 H 0.57329 0.30852 0.84365 0.0
S763 S 0.74028 0.47356 0.80957 0.0
N764 N 0.74197 0.47135 0.83278 0.0
N765 N 0.68528 0.4272 0.80339 0.0
C766 C 0.66562 0.40711 0.82049 0.0
C767 C 0.69588 0.43273 0.83666 0.0
C768 C 1.00321 0.52299 0.07688 0.0
C769 C 0.96833 0.49309 0.09076 0.0
C770 C 0.05304 0.53288 0.07709 0.0
C771 C 0.07093 0.51408 0.09138 0.0
H772 H 0.99186 0.5391 0.06575 0.0
H773 H 0.07764 0.55528 0.06583 0.0
S774 S 0.99574 0.43831 0.13229 0.0
N775 N 0.95594 0.44704 0.11972 0.0
N776 N 0.0491 0.46689 0.12075 0.0
C777 C 0.03635 0.48495 0.1056 0.0
C778 C 0.98545 0.47423 0.10514 0.0
C779 C 0.56392 0.03826 0.43596 0.0
C780 C 0.56733 0.07584 0.42366 0.0
C781 C 0.52368 0.98894 0.43524 0.0
C782 C 0.48439 0.97468 0.42235 0.0
H783 H 0.59237 0.04708 0.44651 0.0
H784 H 0.52264 0.96207 0.44525 0.0
S785 S 0.47542 0.05653 0.38626 0.0
N786 N 0.52798 0.09338 0.39741 0.0
N787 N 0.45205 1.00163 0.39655 0.0
C788 C 0.48721 1.01146 0.4099 0.0
C789 C 0.52848 0.0616 0.41046 0.0
C790 C 0.56387 0.51162 0.76521 0.0
C791 C 0.53978 0.47004 0.75318 0.0
C792 C 0.55227 0.55037 0.76485 0.0
C793 C 0.51684 0.54988 0.75217 0.0
H794 H 0.59065 0.5134 0.77543 0.0
H795 H 0.57106 0.58096 0.77465 0.0
S796 S 0.44434 0.45057 0.71732 0.0
N797 N 0.4791 0.4315 0.72805 0.0
N798 N 0.45867 0.50443 0.72705 0.0
C799 C 0.49356 0.50923 0.73976 0.0
C800 C 0.50462 0.46942 0.74036 0.0
C801 C 0.56107 0.06306 0.57573 0.0
C802 C 0.53696 0.07776 0.58887 0.0
C803 C 0.55128 1.01351 0.57488 0.0
C804 C 0.51735 0.97604 0.5873 0.0
H805 H 0.58673 0.08979 0.56563 0.0
H806 H 0.57025 1.00446 0.56413 0.0
S807 S 0.44682 0.99636 0.62527 0.0
N808 N 0.47852 0.05122 0.61496 0.0
N809 N 0.46153 0.95912 0.61388 0.0
C810 C 0.49357 0.9907 0.60072 0.0
C811 C 0.5031 0.04108 0.6014 0.0
C812 C 0.52351 0.53112 0.93929 0.0
C813 C 0.48653 0.51343 0.92517 0.0
C814 C 0.5628 0.52036 0.93895 0.0
C815 C 0.56621 0.49017 0.92482 0.0
H816 H 0.52293 0.55474 0.95039 0.0
H817 H 0.59121 0.53633 0.94976 0.0
S818 S 0.47773 0.43243 0.88512 0.0
N819 N 0.45549 0.46302 0.89688 0.0
N820 N 0.52813 0.44192 0.8966 0.0
C821 C 0.52867 0.47104 0.91097 0.0
C822 C 0.4893 0.48287 0.91106 0.0
C823 C 0.03876 0.51515 0.27362 0.0
C824 C 0.05801 0.55142 0.25924 0.0
C825 C 0.98887 0.47553 0.27331 0.0
C826 C 0.95538 0.47104 0.25891 0.0
H827 H 0.06296 0.51637 0.28488 0.0
H828 H 0.97657 0.44758 0.28429 0.0
S829 S 0.98568 0.55738 0.21852 0.0
N830 N 0.03838 0.58074 0.23048 0.0
N831 N 0.94503 0.50734 0.23021 0.0
C832 C 0.9736 0.50791 0.24483 0.0
C833 C 0.02462 0.54768 0.24492 0.0
C834 C 0.56784 0.54674 0.10908 0.0
C835 C 0.56685 0.50722 0.09886 0.0
C836 C 0.52815 0.5572 0.10814 0.0
C837 C 0.48509 0.52848 0.09702 0.0
H838 H 0.60025 0.57074 0.11749 0.0
H839 H 0.53192 0.58893 0.11587 0.0
S840 S 0.46103 0.41624 0.06966 0.0
N841 N 0.5173 0.43698 0.07845 0.0
N842 N 0.44274 0.45481 0.07722 0.0
C843 C 0.48302 0.48748 0.08742 0.0
C844 C 0.52364 0.4774 0.08819 0.0
C845 C 1.01333 0.48665 0.42273 0.0
C846 C 0.97542 0.48361 0.43475 0.0
C847 C 0.06203 0.52827 0.42266 0.0
C848 C 0.07615 0.56908 0.43482 0.0
H849 H 1.0055 0.4564 0.4132 0.0
H850 H 0.08906 0.52841 0.41295 0.0
S851 S 0.9922 0.5821 0.46873 0.0
N852 N 0.95636 0.52738 0.45885 0.0
N853 N 0.04778 0.60413 0.45908 0.0
C854 C 0.03921 0.56655 0.44712 0.0
C855 C 0.9892 0.52439 0.44702 0.0
C856 C 0.5561 0.04216 0.77522 0.0
C857 C 0.53147 0.05777 0.76249 0.0
C858 C 0.54811 0.99292 0.77524 0.0
C859 C 0.51502 0.95596 0.7625 0.0
H860 H 0.58261 0.06847 0.78519 0.0
H861 H 0.56807 0.98381 0.78554 0.0
S862 S 0.4397 0.97614 0.72634 0.0
N863 N 0.46993 0.02999 0.73733 0.0
N864 N 0.45803 0.94012 0.73641 0.0
C865 C 0.49007 0.97109 0.7497 0.0
C866 C 0.49751 0.02093 0.74991 0.0
C867 C 0.49095 0.52766 0.58991 0.0
C868 C 0.51722 0.56828 0.57758 0.0
C869 C 0.49854 0.48637 0.59 0.0
C870 C 0.53355 0.4835 0.57801 0.0
H871 H 0.46392 0.52764 0.59958 0.0
H872 H 0.47634 0.45621 0.59963 0.0
S873 S 0.61469 0.5819 0.54378 0.0
N874 N 0.58065 0.60348 0.55328 0.0
N875 N 0.59634 0.52748 0.55386 0.0
C876 C 0.56029 0.52421 0.56564 0.0
C877 C 0.55189 0.56598 0.56535 0.0
C878 C 0.06366 0.53395 0.92523 0.0
C879 C 0.07904 0.50983 0.91221 0.0
C880 C 1.01481 0.5268 0.9253 0.0
C881 C 0.9776 0.49461 0.91246 0.0
H882 H 0.08943 0.55835 0.93581 0.0
H883 H 1.00644 0.54728 0.93559 0.0
S884 S 0.99752 0.42257 0.87494 0.0
N885 N 0.0523 0.4536 0.88535 0.0
N886 N 0.96064 0.43786 0.88626 0.0
C887 C 0.99238 0.47024 0.89928 0.0
C888 C 0.04256 0.47817 0.89902 0.0
C889 C 0.51258 0.96555 0.25986 0.0
C890 C 0.47336 0.94904 0.24663 0.0
C891 C 0.5537 1.01486 0.25979 0.0
C892 C 0.55836 0.05127 0.24656 0.0
H893 H 0.5112 0.94043 0.27074 0.0
H894 H 0.58227 0.02429 0.27033 0.0
S895 S 0.46759 0.02743 0.20798 0.0
N896 N 0.44456 0.97337 0.21884 0.0
N897 N 0.51879 0.06563 0.21956 0.0
C898 C 0.51972 0.03501 0.23304 0.0
C899 C 0.47827 0.98449 0.2329 0.0
loop_
_geom_bond_atom_site_label_1
_geom_bond_atom_site_label_2
_geom_bond_distance
_geom_bond_site_symmetry_2
_ccdc_geom_bond_type
C0 C1 1.443 . S
C0 N4 1.376 . S
C0 C38 1.389 . S
C1 C0 1.443 . S
C1 C2 1.340 . S
C1 H41 0.951 . S
C2 C1 1.340 . S
C2 C3 1.439 . S
C2 H42 0.950 . S
C3 C2 1.439 . S
C3 N4 1.374 . S
C3 C37 1.395 . S
N4 C0 1.376 . S
N4 C3 1.374 . S
N4 Co5 2.008 . S
Co5 N4 2.008 . S
Co5 N6 1.995 . S
Co5 N11 2.008 . S
Co5 N16 1.995 . S
Co5 N21 2.282 . S
Co5 N27 2.282 . S
N6 Co5 1.995 . S
N6 C7 1.376 . S
N6 C10 1.383 . S
C7 N6 1.376 . S
C7 C8 1.446 . S
C7 C37 1.391 . S
C8 C7 1.446 . S
C8 C9 1.339 . S
C8 H43 0.949 . S
C9 C8 1.339 . S
C9 C10 1.439 . S
C9 H44 0.950 . S
C10 N6 1.383 . S
C10 C9 1.439 . S
C10 C39 1.392 . S
N11 Co5 2.008 . S
N11 C12 1.376 . S
N11 C15 1.374 . S
C12 N11 1.376 . S
C12 C13 1.443 . S
C12 C39 1.389 . S
C13 C12 1.443 . S
C13 C14 1.340 . S
C13 H45 0.951 . S
C14 C13 1.340 . S
C14 C15 1.439 . S
C14 H46 0.950 . S
C15 N11 1.374 . S
C15 C14 1.439 . S
C15 C40 1.395 . S
N16 Co5 1.995 . S
N16 C17 1.376 . S
N16 C20 1.383 . S
C17 N16 1.376 . S
C17 C18 1.446 . S
C17 C40 1.391 . S
C18 C17 1.446 . S
C18 C19 1.339 . S
C18 H47 0.949 . S
C19 C18 1.339 . S
C19 C20 1.439 . S
C19 H48 0.950 . S
C20 N16 1.383 . S
C20 C19 1.439 . S
C20 C38 1.392 . S
N21 Co5 2.282 . S
N21 C24 1.332 . S
N21 C26 1.332 . S
C22 C23 1.386 . S
C22 C25 1.388 . S
C23 C22 1.386 . S
C23 C24 1.382 . S
C23 H49 0.950 . S
C24 N21 1.332 . S
C24 C23 1.382 . S
C24 H35 0.952 . S
C25 C22 1.388 . S
C25 C26 1.382 . S
C25 H50 0.950 . S
C26 N21 1.332 . S
C26 C25 1.382 . S
C26 H36 0.948 . S
N27 Co5 2.282 . S
N27 C31 1.332 . S
N27 C32 1.332 . S
C28 C29 1.388 . S
C28 C32 1.382 . S
C28 H51 0.950 . S
C29 C28 1.388 . S
C29 C30 1.386 . S
C30 C29 1.386 . S
C30 C31 1.382 . S
C30 H52 0.950 . S
C31 N27 1.332 . S
C31 C30 1.382 . S
C31 H33 0.952 . S
C32 N27 1.332 . S
C32 C28 1.382 . S
C32 H34 0.948 . S
H33 C31 0.952 . S
H34 C32 0.948 . S
H35 C24 0.952 . S
H36 C26 0.948 . S
C37 C3 1.395 . S
C37 C7 1.391 . S
C38 C0 1.389 . S
C38 C20 1.392 . S
C39 C10 1.392 . S
C39 C12 1.389 . S
C40 C15 1.395 . S
C40 C17 1.391 . S
H41 C1 0.951 . S
H42 C2 0.950 . S
H43 C8 0.949 . S
H44 C9 0.950 . S
H45 C13 0.951 . S
H46 C14 0.950 . S
H47 C18 0.949 . S
H48 C19 0.950 . S
H49 C23 0.950 . S
H50 C25 0.950 . S
H51 C28 0.950 . S
H52 C30 0.950 . S
C53 C54 1.443 . S
C53 N57 1.376 . S
C53 C91 1.389 . S
C54 C53 1.443 . S
C54 C55 1.340 . S
C54 H94 0.951 . S
C55 C54 1.340 . S
C55 C56 1.439 . S
C55 H95 0.950 . S
C56 C55 1.439 . S
C56 N57 1.374 . S
C56 C90 1.395 . S
N57 C53 1.376 . S
N57 C56 1.374 . S
N57 Co58 2.008 . S
Co58 N57 2.008 . S
Co58 N59 1.995 . S
Co58 N64 2.008 . S
Co58 N69 1.995 . S
Co58 N74 2.282 . S
Co58 N80 2.282 . S
N59 Co58 1.995 . S
N59 C60 1.376 . S
N59 C63 1.383 . S
C60 N59 1.376 . S
C60 C61 1.446 . S
C60 C90 1.391 . S
C61 C60 1.446 . S
C61 C62 1.339 . S
C61 H96 0.949 . S
C62 C61 1.339 . S
C62 C63 1.439 . S
C62 H97 0.950 . S
C63 N59 1.383 . S
C63 C62 1.439 . S
C63 C92 1.392 . S
N64 Co58 2.008 . S
N64 C65 1.376 . S
N64 C68 1.374 . S
C65 N64 1.376 . S
C65 C66 1.443 . S
C65 C92 1.389 . S
C66 C65 1.443 . S
C66 C67 1.340 . S
C66 H98 0.951 . S
C67 C66 1.340 . S
C67 C68 1.439 . S
C67 H99 0.950 . S
C68 N64 1.374 . S
C68 C67 1.439 . S
C68 C93 1.395 . S
N69 Co58 1.995 . S
N69 C70 1.376 . S
N69 C73 1.383 . S
C70 N69 1.376 . S
C70 C71 1.446 . S
C70 C93 1.391 . S
C71 C70 1.446 . S
C71 C72 1.339 . S
C71 H100 0.949 . S
C72 C71 1.339 . S
C72 C73 1.439 . S
C72 H101 0.950 . S
C73 N69 1.383 . S
C73 C72 1.439 . S
C73 C91 1.392 . S
N74 Co58 2.282 . S
N74 C77 1.332 . S
N74 C79 1.332 . S
C75 C76 1.386 . S
C75 C78 1.388 . S
C76 C75 1.386 . S
C76 C77 1.382 . S
C76 H102 0.950 . S
C77 N74 1.332 . S
C77 C76 1.382 . S
C77 H88 0.952 . S
C78 C75 1.388 . S
C78 C79 1.382 . S
C78 H103 0.950 . S
C79 N74 1.332 . S
C79 C78 1.382 . S
C79 H89 0.948 . S
N80 Co58 2.282 . S
N80 C84 1.332 . S
N80 C85 1.332 . S
C81 C82 1.388 . S
C81 C85 1.382 . S
C81 H104 0.950 . S
C82 C81 1.388 . S
C82 C83 1.386 . S
C83 C82 1.386 . S
C83 C84 1.382 . S
C83 H105 0.950 . S
C84 N80 1.332 . S
C84 C83 1.382 . S
C84 H86 0.952 . S
C85 N80 1.332 . S
C85 C81 1.382 . S
C85 H87 0.948 . S
H86 C84 0.952 . S
H87 C85 0.948 . S
H88 C77 0.952 . S
H89 C79 0.948 . S
C90 C56 1.395 . S
C90 C60 1.391 . S
C91 C53 1.389 . S
C91 C73 1.392 . S
C92 C63 1.392 . S
C92 C65 1.389 . S
C93 C68 1.395 . S
C93 C70 1.391 . S
H94 C54 0.951 . S
H95 C55 0.950 . S
H96 C61 0.949 . S
H97 C62 0.950 . S
H98 C66 0.951 . S
H99 C67 0.950 . S
H100 C71 0.949 . S
H101 C72 0.950 . S
H102 C76 0.950 . S
H103 C78 0.950 . S
H104 C81 0.950 . S
H105 C83 0.950 . S
C106 C107 1.443 . S
C106 N110 1.376 . S
C106 C144 1.389 . S
C107 C106 1.443 . S
C107 C108 1.340 . S
C107 H147 0.951 . S
C108 C107 1.340 . S
C108 C109 1.439 . S
C108 H148 0.950 . S
C109 C108 1.439 . S
C109 N110 1.374 . S
C109 C143 1.395 . S
N110 C106 1.376 . S
N110 C109 1.374 . S
N110 Co111 2.008 . S
Co111 N110 2.008 . S
Co111 N112 1.995 . S
Co111 N117 2.008 . S
Co111 N122 1.995 . S
Co111 N127 2.282 . S
Co111 N133 2.282 . S
N112 Co111 1.995 . S
N112 C113 1.376 . S
N112 C116 1.383 . S
C113 N112 1.376 . S
C113 C114 1.446 . S
C113 C143 1.391 . S
C114 C113 1.446 . S
C114 C115 1.339 . S
C114 H149 0.949 . S
C115 C114 1.339 . S
C115 C116 1.439 . S
C115 H150 0.950 . S
C116 N112 1.383 . S
C116 C115 1.439 . S
C116 C145 1.392 . S
N117 Co111 2.008 . S
N117 C118 1.376 . S
N117 C121 1.374 . S
C118 N117 1.376 . S
C118 C119 1.443 . S
C118 C145 1.389 . S
C119 C118 1.443 . S
C119 C120 1.340 . S
C119 H151 0.951 . S
C120 C119 1.340 . S
C120 C121 1.439 . S
C120 H152 0.950 . S
C121 N117 1.374 . S
C121 C120 1.439 . S
C121 C146 1.395 . S
N122 Co111 1.995 . S
N122 C123 1.376 . S
N122 C126 1.383 . S
C123 N122 1.376 . S
C123 C124 1.446 . S
C123 C146 1.391 . S
C124 C123 1.446 . S
C124 C125 1.339 . S
C124 H153 0.949 . S
C125 C124 1.339 . S
C125 C126 1.439 . S
C125 H154 0.950 . S
C126 N122 1.383 . S
C126 C125 1.439 . S
C126 C144 1.392 . S
N127 Co111 2.282 . S
N127 C130 1.332 . S
N127 C132 1.332 . S
C128 C129 1.386 . S
C128 C131 1.388 . S
C129 C128 1.386 . S
C129 C130 1.382 . S
C129 H155 0.950 . S
C130 N127 1.332 . S
C130 C129 1.382 . S
C130 H141 0.952 . S
C131 C128 1.388 . S
C131 C132 1.382 . S
C131 H156 0.950 . S
C132 N127 1.332 . S
C132 C131 1.382 . S
C132 H142 0.948 . S
N133 Co111 2.282 . S
N133 C137 1.332 . S
N133 C138 1.332 . S
C134 C135 1.388 . S
C134 C138 1.382 . S
C134 H157 0.950 . S
C135 C134 1.388 . S
C135 C136 1.386 . S
C136 C135 1.386 . S
C136 C137 1.382 . S
C136 H158 0.950 . S
C137 N133 1.332 . S
C137 C136 1.382 . S
C137 H139 0.952 . S
C138 N133 1.332 . S
C138 C134 1.382 . S
C138 H140 0.948 . S
H139 C137 0.952 . S
H140 C138 0.948 . S
H141 C130 0.952 . S
H142 C132 0.948 . S
C143 C109 1.395 . S
C143 C113 1.391 . S
C144 C106 1.389 . S
C144 C126 1.392 . S
C145 C116 1.392 . S
C145 C118 1.389 . S
C146 C121 1.395 . S
C146 C123 1.391 . S
H147 C107 0.951 . S
H148 C108 0.950 . S
H149 C114 0.949 . S
H150 C115 0.950 . S
H151 C119 0.951 . S
H152 C120 0.950 . S
H153 C124 0.949 . S
H154 C125 0.950 . S
H155 C129 0.950 . S
H156 C131 0.950 . S
H157 C134 0.950 . S
H158 C136 0.950 . S
C159 C160 1.443 . S
C159 N163 1.376 . S
C159 C197 1.389 . S
C160 C159 1.443 . S
C160 C161 1.340 . S
C160 H200 0.951 . S
C161 C160 1.340 . S
C161 C162 1.439 . S
C161 H201 0.950 . S
C162 C161 1.439 . S
C162 N163 1.374 . S
C162 C196 1.395 . S
N163 C159 1.376 . S
N163 C162 1.374 . S
N163 Co164 2.008 . S
Co164 N163 2.008 . S
Co164 N165 1.995 . S
Co164 N170 2.008 . S
Co164 N175 1.995 . S
Co164 N180 2.282 . S
Co164 N186 2.282 . S
N165 Co164 1.995 . S
N165 C166 1.376 . S
N165 C169 1.383 . S
C166 N165 1.376 . S
C166 C167 1.446 . S
C166 C196 1.391 . S
C167 C166 1.446 . S
C167 C168 1.339 . S
C167 H202 0.949 . S
C168 C167 1.339 . S
C168 C169 1.439 . S
C168 H203 0.950 . S
C169 N165 1.383 . S
C169 C168 1.439 . S
C169 C198 1.392 . S
N170 Co164 2.008 . S
N170 C171 1.376 . S
N170 C174 1.374 . S
C171 N170 1.376 . S
C171 C172 1.443 . S
C171 C198 1.389 . S
C172 C171 1.443 . S
C172 C173 1.340 . S
C172 H204 0.951 . S
C173 C172 1.340 . S
C173 C174 1.439 . S
C173 H205 0.950 . S
C174 N170 1.374 . S
C174 C173 1.439 . S
C174 C199 1.395 . S
N175 Co164 1.995 . S
N175 C176 1.376 . S
N175 C179 1.383 . S
C176 N175 1.376 . S
C176 C177 1.446 . S
C176 C199 1.391 . S
C177 C176 1.446 . S
C177 C178 1.339 . S
C177 H206 0.949 . S
C178 C177 1.339 . S
C178 C179 1.439 . S
C178 H207 0.950 . S
C179 N175 1.383 . S
C179 C178 1.439 . S
C179 C197 1.392 . S
N180 Co164 2.282 . S
N180 C183 1.332 . S
N180 C185 1.332 . S
C181 C182 1.386 . S
C181 C184 1.388 . S
C182 C181 1.386 . S
C182 C183 1.382 . S
C182 H208 0.950 . S
C183 N180 1.332 . S
C183 C182 1.382 . S
C183 H194 0.952 . S
C184 C181 1.388 . S
C184 C185 1.382 . S
C184 H209 0.950 . S
C185 N180 1.332 . S
C185 C184 1.382 . S
C185 H195 0.948 . S
N186 Co164 2.282 . S
N186 C190 1.332 . S
N186 C191 1.332 . S
C187 C188 1.388 . S
C187 C191 1.382 . S
C187 H210 0.950 . S
C188 C187 1.388 . S
C188 C189 1.386 . S
C189 C188 1.386 . S
C189 C190 1.382 . S
C189 H211 0.950 . S
C190 N186 1.332 . S
C190 C189 1.382 . S
C190 H192 0.952 . S
C191 N186 1.332 . S
C191 C187 1.382 . S
C191 H193 0.948 . S
H192 C190 0.952 . S
H193 C191 0.948 . S
H194 C183 0.952 . S
H195 C185 0.948 . S
C196 C162 1.395 . S
C196 C166 1.391 . S
C197 C159 1.389 . S
C197 C179 1.392 . S
C198 C169 1.392 . S
C198 C171 1.389 . S
C199 C174 1.395 . S
C199 C176 1.391 . S
H200 C160 0.951 . S
H201 C161 0.950 . S
H202 C167 0.949 . S
H203 C168 0.950 . S
H204 C172 0.951 . S
H205 C173 0.950 . S
H206 C177 0.949 . S
H207 C178 0.950 . S
H208 C182 0.950 . S
H209 C184 0.950 . S
H210 C187 0.950 . S
H211 C189 0.950 . S
C212 C213 1.443 . S
C212 N216 1.376 . S
C212 C250 1.389 . S
C213 C212 1.443 . S
C213 C214 1.340 . S
C213 H253 0.951 . S
C214 C213 1.340 . S
C214 C215 1.439 . S
C214 H254 0.950 . S
C215 C214 1.439 . S
C215 N216 1.374 . S
C215 C249 1.395 . S
N216 C212 1.376 . S
N216 C215 1.374 . S
N216 Co217 2.008 . S
Co217 N216 2.008 . S
Co217 N218 1.995 . S
Co217 N223 2.008 . S
Co217 N228 1.995 . S
Co217 N233 2.282 . S
Co217 N239 2.282 . S
N218 Co217 1.995 . S
N218 C219 1.376 . S
N218 C222 1.383 . S
C219 N218 1.376 . S
C219 C220 1.446 . S
C219 C249 1.391 . S
C220 C219 1.446 . S
C220 C221 1.339 . S
C220 H255 0.949 . S
C221 C220 1.339 . S
C221 C222 1.439 . S
C221 H256 0.950 . S
C222 N218 1.383 . S
C222 C221 1.439 . S
C222 C251 1.392 . S
N223 Co217 2.008 . S
N223 C224 1.376 . S
N223 C227 1.374 . S
C224 N223 1.376 . S
C224 C225 1.443 . S
C224 C251 1.389 . S
C225 C224 1.443 . S
C225 C226 1.340 . S
C225 H257 0.951 . S
C226 C225 1.340 . S
C226 C227 1.439 . S
C226 H258 0.950 . S
C227 N223 1.374 . S
C227 C226 1.439 . S
C227 C252 1.395 . S
N228 Co217 1.995 . S
N228 C229 1.376 . S
N228 C232 1.383 . S
C229 N228 1.376 . S
C229 C230 1.446 . S
C229 C252 1.391 . S
C230 C229 1.446 . S
C230 C231 1.339 . S
C230 H259 0.949 . S
C231 C230 1.339 . S
C231 C232 1.439 . S
C231 H260 0.950 . S
C232 N228 1.383 . S
C232 C231 1.439 . S
C232 C250 1.392 . S
N233 Co217 2.282 . S
N233 C236 1.332 . S
N233 C238 1.332 . S
C234 C235 1.386 . S
C234 C237 1.388 . S
C235 C234 1.386 . S
C235 C236 1.382 . S
C235 H261 0.950 . S
C236 N233 1.332 . S
C236 C235 1.382 . S
C236 H247 0.952 . S
C237 C234 1.388 . S
C237 C238 1.382 . S
C237 H262 0.950 . S
C238 N233 1.332 . S
C238 C237 1.382 . S
C238 H248 0.948 . S
N239 Co217 2.282 . S
N239 C243 1.332 . S
N239 C244 1.332 . S
C240 C241 1.388 . S
C240 C244 1.382 . S
C240 H263 0.950 . S
C241 C240 1.388 . S
C241 C242 1.386 . S
C242 C241 1.386 . S
C242 C243 1.382 . S
C242 H264 0.950 . S
C243 N239 1.332 . S
C243 C242 1.382 . S
C243 H245 0.952 . S
C244 N239 1.332 . S
C244 C240 1.382 . S
C244 H246 0.948 . S
H245 C243 0.952 . S
H246 C244 0.948 . S
H247 C236 0.952 . S
H248 C238 0.948 . S
C249 C215 1.395 . S
C249 C219 1.391 . S
C250 C212 1.389 . S
C250 C232 1.392 . S
C251 C222 1.392 . S
C251 C224 1.389 . S
C252 C227 1.395 . S
C252 C229 1.391 . S
H253 C213 0.951 . S
H254 C214 0.950 . S
H255 C220 0.949 . S
H256 C221 0.950 . S
H257 C225 0.951 . S
H258 C226 0.950 . S
H259 C230 0.949 . S
H260 C231 0.950 . S
H261 C235 0.950 . S
H262 C237 0.950 . S
H263 C240 0.950 . S
H264 C242 0.950 . S
C265 C266 1.443 . S
C265 N269 1.376 . S
C265 C303 1.389 . S
C266 C265 1.443 . S
C266 C267 1.340 . S
C266 H306 0.951 . S
C267 C266 1.340 . S
C267 C268 1.439 . S
C267 H307 0.950 . S
C268 C267 1.439 . S
C268 N269 1.374 . S
C268 C302 1.395 . S
N269 C265 1.376 . S
N269 C268 1.374 . S
N269 Co270 2.008 . S
Co270 N269 2.008 . S
Co270 N271 1.995 . S
Co270 N276 2.008 . S
Co270 N281 1.995 . S
Co270 N286 2.282 . S
Co270 N292 2.282 . S
N271 Co270 1.995 . S
N271 C272 1.376 . S
N271 C275 1.383 . S
C272 N271 1.376 . S
C272 C273 1.446 . S
C272 C302 1.391 . S
C273 C272 1.446 . S
C273 C274 1.339 . S
C273 H308 0.949 . S
C274 C273 1.339 . S
C274 C275 1.439 . S
C274 H309 0.950 . S
C275 N271 1.383 . S
C275 C274 1.439 . S
C275 C304 1.392 . S
N276 Co270 2.008 . S
N276 C277 1.376 . S
N276 C280 1.374 . S
C277 N276 1.376 . S
C277 C278 1.443 . S
C277 C304 1.389 . S
C278 C277 1.443 . S
C278 C279 1.340 . S
C278 H310 0.951 . S
C279 C278 1.340 . S
C279 C280 1.439 . S
C279 H311 0.950 . S
C280 N276 1.374 . S
C280 C279 1.439 . S
C280 C305 1.395 . S
N281 Co270 1.995 . S
N281 C282 1.376 . S
N281 C285 1.383 . S
C282 N281 1.376 . S
C282 C283 1.446 . S
C282 C305 1.391 . S
C283 C282 1.446 . S
C283 C284 1.339 . S
C283 H312 0.949 . S
C284 C283 1.339 . S
C284 C285 1.439 . S
C284 H313 0.950 . S
C285 N281 1.383 . S
C285 C284 1.439 . S
C285 C303 1.392 . S
N286 Co270 2.282 . S
N286 C289 1.332 . S
N286 C291 1.332 . S
C287 C288 1.386 . S
C287 C290 1.388 . S
C288 C287 1.386 . S
C288 C289 1.382 . S
C288 H314 0.950 . S
C289 N286 1.332 . S
C289 C288 1.382 . S
C289 H300 0.952 . S
C290 C287 1.388 . S
C290 C291 1.382 . S
C290 H315 0.950 . S
C291 N286 1.332 . S
C291 C290 1.382 . S
C291 H301 0.948 . S
N292 Co270 2.282 . S
N292 C296 1.332 . S
N292 C297 1.332 . S
C293 C294 1.388 . S
C293 C297 1.382 . S
C293 H316 0.950 . S
C294 C293 1.388 . S
C294 C295 1.386 . S
C295 C294 1.386 . S
C295 C296 1.382 . S
C295 H317 0.950 . S
C296 N292 1.332 . S
C296 C295 1.382 . S
C296 H298 0.952 . S
C297 N292 1.332 . S
C297 C293 1.382 . S
C297 H299 0.948 . S
H298 C296 0.952 . S
H299 C297 0.948 . S
H300 C289 0.952 . S
H301 C291 0.948 . S
C302 C268 1.395 . S
C302 C272 1.391 . S
C303 C265 1.389 . S
C303 C285 1.392 . S
C304 C275 1.392 . S
C304 C277 1.389 . S
C305 C280 1.395 . S
C305 C282 1.391 . S
H306 C266 0.951 . S
H307 C267 0.950 . S
H308 C273 0.949 . S
H309 C274 0.950 . S
H310 C278 0.951 . S
H311 C279 0.950 . S
H312 C283 0.949 . S
H313 C284 0.950 . S
H314 C288 0.950 . S
H315 C290 0.950 . S
H316 C293 0.950 . S
H317 C295 0.950 . S
C318 C319 1.443 . S
C318 N322 1.376 . S
C318 C356 1.389 . S
C319 C318 1.443 . S
C319 C320 1.340 . S
C319 H359 0.951 . S
C320 C319 1.340 . S
C320 C321 1.439 . S
C320 H360 0.950 . S
C321 C320 1.439 . S
C321 N322 1.374 . S
C321 C355 1.395 . S
N322 C318 1.376 . S
N322 C321 1.374 . S
N322 Co323 2.008 . S
Co323 N322 2.008 . S
Co323 N324 1.995 . S
Co323 N329 2.008 . S
Co323 N334 1.995 . S
Co323 N339 2.282 . S
Co323 N345 2.282 . S
N324 Co323 1.995 . S
N324 C325 1.376 . S
N324 C328 1.383 . S
C325 N324 1.376 . S
C325 C326 1.446 . S
C325 C355 1.391 . S
C326 C325 1.446 . S
C326 C327 1.339 . S
C326 H361 0.949 . S
C327 C326 1.339 . S
C327 C328 1.439 . S
C327 H362 0.950 . S
C328 N324 1.383 . S
C328 C327 1.439 . S
C328 C357 1.392 . S
N329 Co323 2.008 . S
N329 C330 1.376 . S
N329 C333 1.374 . S
C330 N329 1.376 . S
C330 C331 1.443 . S
C330 C357 1.389 . S
C331 C330 1.443 . S
C331 C332 1.340 . S
C331 H363 0.951 . S
C332 C331 1.340 . S
C332 C333 1.439 . S
C332 H364 0.950 . S
C333 N329 1.374 . S
C333 C332 1.439 . S
C333 C358 1.395 . S
N334 Co323 1.995 . S
N334 C335 1.376 . S
N334 C338 1.383 . S
C335 N334 1.376 . S
C335 C336 1.446 . S
C335 C358 1.391 . S
C336 C335 1.446 . S
C336 C337 1.339 . S
C336 H365 0.949 . S
C337 C336 1.339 . S
C337 C338 1.439 . S
C337 H366 0.950 . S
C338 N334 1.383 . S
C338 C337 1.439 . S
C338 C356 1.392 . S
N339 Co323 2.282 . S
N339 C342 1.332 . S
N339 C344 1.332 . S
C340 C341 1.386 . S
C340 C343 1.388 . S
C341 C340 1.386 . S
C341 C342 1.382 . S
C341 H367 0.950 . S
C342 N339 1.332 . S
C342 C341 1.382 . S
C342 H353 0.952 . S
C343 C340 1.388 . S
C343 C344 1.382 . S
C343 H368 0.950 . S
C344 N339 1.332 . S
C344 C343 1.382 . S
C344 H354 0.948 . S
N345 Co323 2.282 . S
N345 C349 1.332 . S
N345 C350 1.332 . S
C346 C347 1.388 . S
C346 C350 1.382 . S
C346 H369 0.950 . S
C347 C346 1.388 . S
C347 C348 1.386 . S
C348 C347 1.386 . S
C348 C349 1.382 . S
C348 H370 0.950 . S
C349 N345 1.332 . S
C349 C348 1.382 . S
C349 H351 0.952 . S
C350 N345 1.332 . S
C350 C346 1.382 . S
C350 H352 0.948 . S
H351 C349 0.952 . S
H352 C350 0.948 . S
H353 C342 0.952 . S
H354 C344 0.948 . S
C355 C321 1.395 . S
C355 C325 1.391 . S
C356 C318 1.389 . S
C356 C338 1.392 . S
C357 C328 1.392 . S
C357 C330 1.389 . S
C358 C333 1.395 . S
C358 C335 1.391 . S
H359 C319 0.951 . S
H360 C320 0.950 . S
H361 C326 0.949 . S
H362 C327 0.950 . S
H363 C331 0.951 . S
H364 C332 0.950 . S
H365 C336 0.949 . S
H366 C337 0.950 . S
H367 C341 0.950 . S
H368 C343 0.950 . S
H369 C346 0.950 . S
H370 C348 0.950 . S
C371 C372 1.443 . S
C371 N375 1.376 . S
C371 C409 1.389 . S
C372 C371 1.443 . S
C372 C373 1.340 . S
C372 H412 0.951 . S
C373 C372 1.340 . S
C373 C374 1.439 . S
C373 H413 0.950 . S
C374 C373 1.439 . S
C374 N375 1.374 . S
C374 C408 1.395 . S
N375 C371 1.376 . S
N375 C374 1.374 . S
N375 Co376 2.008 . S
Co376 N375 2.008 . S
Co376 N377 1.995 . S
Co376 N382 2.008 . S
Co376 N387 1.995 . S
Co376 N392 2.282 . S
Co376 N398 2.282 . S
N377 Co376 1.995 . S
N377 C378 1.376 . S
N377 C381 1.383 . S
C378 N377 1.376 . S
C378 C379 1.446 . S
C378 C408 1.391 . S
C379 C378 1.446 . S
C379 C380 1.339 . S
C379 H414 0.949 . S
C380 C379 1.339 . S
C380 C381 1.439 . S
C380 H415 0.950 . S
C381 N377 1.383 . S
C381 C380 1.439 . S
C381 C410 1.392 . S
N382 Co376 2.008 . S
N382 C383 1.376 . S
N382 C386 1.374 . S
C383 N382 1.376 . S
C383 C384 1.443 . S
C383 C410 1.389 . S
C384 C383 1.443 . S
C384 C385 1.340 . S
C384 H416 0.951 . S
C385 C384 1.340 . S
C385 C386 1.439 . S
C385 H417 0.950 . S
C386 N382 1.374 . S
C386 C385 1.439 . S
C386 C411 1.395 . S
N387 Co376 1.995 . S
N387 C388 1.376 . S
N387 C391 1.383 . S
C388 N387 1.376 . S
C388 C389 1.446 . S
C388 C411 1.391 . S
C389 C388 1.446 . S
C389 C390 1.339 . S
C389 H418 0.949 . S
C390 C389 1.339 . S
C390 C391 1.439 . S
C390 H419 0.950 . S
C391 N387 1.383 . S
C391 C390 1.439 . S
C391 C409 1.392 . S
N392 Co376 2.282 . S
N392 C395 1.332 . S
N392 C397 1.332 . S
C393 C394 1.386 . S
C393 C396 1.388 . S
C394 C393 1.386 . S
C394 C395 1.382 . S
C394 H420 0.950 . S
C395 N392 1.332 . S
C395 C394 1.382 . S
C395 H406 0.952 . S
C396 C393 1.388 . S
C396 C397 1.382 . S
C396 H421 0.950 . S
C397 N392 1.332 . S
C397 C396 1.382 . S
C397 H407 0.948 . S
N398 Co376 2.282 . S
N398 C402 1.332 . S
N398 C403 1.332 . S
C399 C400 1.388 . S
C399 C403 1.382 . S
C399 H422 0.950 . S
C400 C399 1.388 . S
C400 C401 1.386 . S
C401 C400 1.386 . S
C401 C402 1.382 . S
C401 H423 0.950 . S
C402 N398 1.332 . S
C402 C401 1.382 . S
C402 H404 0.952 . S
C403 N398 1.332 . S
C403 C399 1.382 . S
C403 H405 0.948 . S
H404 C402 0.952 . S
H405 C403 0.948 . S
H406 C395 0.952 . S
H407 C397 0.948 . S
C408 C374 1.395 . S
C408 C378 1.391 . S
C409 C371 1.389 . S
C409 C391 1.392 . S
C410 C381 1.392 . S
C410 C383 1.389 . S
C411 C386 1.395 . S
C411 C388 1.391 . S
H412 C372 0.951 . S
H413 C373 0.950 . S
H414 C379 0.949 . S
H415 C380 0.950 . S
H416 C384 0.951 . S
H417 C385 0.950 . S
H418 C389 0.949 . S
H419 C390 0.950 . S
H420 C394 0.950 . S
H421 C396 0.950 . S
H422 C399 0.950 . S
H423 C401 0.950 . S
C424 C425 1.443 . S
C424 N428 1.376 . S
C424 C462 1.389 . S
C425 C424 1.443 . S
C425 C426 1.340 . S
C425 H465 0.951 . S
C426 C425 1.340 . S
C426 C427 1.439 . S
C426 H466 0.950 . S
C427 C426 1.439 . S
C427 N428 1.374 . S
C427 C461 1.395 . S
N428 C424 1.376 . S
N428 C427 1.374 . S
N428 Co429 2.008 . S
Co429 N428 2.008 . S
Co429 N430 1.995 . S
Co429 N435 2.008 . S
Co429 N440 1.995 . S
Co429 N445 2.282 . S
Co429 N451 2.282 . S
N430 Co429 1.995 . S
N430 C431 1.376 . S
N430 C434 1.383 . S
C431 N430 1.376 . S
C431 C432 1.446 . S
C431 C461 1.391 . S
C432 C431 1.446 . S
C432 C433 1.339 . S
C432 H467 0.949 . S
C433 C432 1.339 . S
C433 C434 1.439 . S
C433 H468 0.950 . S
C434 N430 1.383 . S
C434 C433 1.439 . S
C434 C463 1.392 . S
N435 Co429 2.008 . S
N435 C436 1.376 . S
N435 C439 1.374 . S
C436 N435 1.376 . S
C436 C437 1.443 . S
C436 C463 1.389 . S
C437 C436 1.443 . S
C437 C438 1.340 . S
C437 H469 0.951 . S
C438 C437 1.340 . S
C438 C439 1.439 . S
C438 H470 0.950 . S
C439 N435 1.374 . S
C439 C438 1.439 . S
C439 C464 1.395 . S
N440 Co429 1.995 . S
N440 C441 1.376 . S
N440 C444 1.383 . S
C441 N440 1.376 . S
C441 C442 1.446 . S
C441 C464 1.391 . S
C442 C441 1.446 . S
C442 C443 1.339 . S
C442 H471 0.949 . S
C443 C442 1.339 . S
C443 C444 1.439 . S
C443 H472 0.950 . S
C444 N440 1.383 . S
C444 C443 1.439 . S
C444 C462 1.392 . S
N445 Co429 2.282 . S
N445 C448 1.332 . S
N445 C450 1.332 . S
C446 C447 1.386 . S
C446 C449 1.388 . S
C447 C446 1.386 . S
C447 C448 1.382 . S
C447 H473 0.950 . S
C448 N445 1.332 . S
C448 C447 1.382 . S
C448 H459 0.952 . S
C449 C446 1.388 . S
C449 C450 1.382 . S
C449 H474 0.950 . S
C450 N445 1.332 . S
C450 C449 1.382 . S
C450 H460 0.948 . S
N451 Co429 2.282 . S
N451 C455 1.332 . S
N451 C456 1.332 . S
C452 C453 1.388 . S
C452 C456 1.382 . S
C452 H475 0.950 . S
C453 C452 1.388 . S
C453 C454 1.386 . S
C454 C453 1.386 . S
C454 C455 1.382 . S
C454 H476 0.950 . S
C455 N451 1.332 . S
C455 C454 1.382 . S
C455 H457 0.952 . S
C456 N451 1.332 . S
C456 C452 1.382 . S
C456 H458 0.948 . S
H457 C455 0.952 . S
H458 C456 0.948 . S
H459 C448 0.952 . S
H460 C450 0.948 . S
C461 C427 1.395 . S
C461 C431 1.391 . S
C462 C424 1.389 . S
C462 C444 1.392 . S
C463 C434 1.392 . S
C463 C436 1.389 . S
C464 C439 1.395 . S
C464 C441 1.391 . S
H465 C425 0.951 . S
H466 C426 0.950 . S
H467 C432 0.949 . S
H468 C433 0.950 . S
H469 C437 0.951 . S
H470 C438 0.950 . S
H471 C442 0.949 . S
H472 C443 0.950 . S
H473 C447 0.950 . S
H474 C449 0.950 . S
H475 C452 0.950 . S
H476 C454 0.950 . S
C477 C478 1.443 . S
C477 N481 1.376 . S
C477 C515 1.389 . S
C478 C477 1.443 . S
C478 C479 1.340 . S
C478 H518 0.951 . S
C479 C478 1.340 . S
C479 C480 1.439 . S
C479 H519 0.950 . S
C480 C479 1.439 . S
C480 N481 1.374 . S
C480 C514 1.395 . S
N481 C477 1.376 . S
N481 C480 1.374 . S
N481 Co482 2.008 . S
Co482 N481 2.008 . S
Co482 N483 1.995 . S
Co482 N488 2.008 . S
Co482 N493 1.995 . S
Co482 N498 2.282 . S
Co482 N504 2.282 . S
N483 Co482 1.995 . S
N483 C484 1.376 . S
N483 C487 1.383 . S
C484 N483 1.376 . S
C484 C485 1.446 . S
C484 C514 1.391 . S
C485 C484 1.446 . S
C485 C486 1.339 . S
C485 H520 0.949 . S
C486 C485 1.339 . S
C486 C487 1.439 . S
C486 H521 0.950 . S
C487 N483 1.383 . S
C487 C486 1.439 . S
C487 C516 1.392 . S
N488 Co482 2.008 . S
N488 C489 1.376 . S
N488 C492 1.374 . S
C489 N488 1.376 . S
C489 C490 1.443 . S
C489 C516 1.389 . S
C490 C489 1.443 . S
C490 C491 1.340 . S
C490 H522 0.951 . S
C491 C490 1.340 . S
C491 C492 1.439 . S
C491 H523 0.950 . S
C492 N488 1.374 . S
C492 C491 1.439 . S
C492 C517 1.395 . S
N493 Co482 1.995 . S
N493 C494 1.376 . S
N493 C497 1.383 . S
C494 N493 1.376 . S
C494 C495 1.446 . S
C494 C517 1.391 . S
C495 C494 1.446 . S
C495 C496 1.339 . S
C495 H524 0.949 . S
C496 C495 1.339 . S
C496 C497 1.439 . S
C496 H525 0.950 . S
C497 N493 1.383 . S
C497 C496 1.439 . S
C497 C515 1.392 . S
N498 Co482 2.282 . S
N498 C501 1.332 . S
N498 C503 1.332 . S
C499 C500 1.386 . S
C499 C502 1.388 . S
C500 C499 1.386 . S
C500 C501 1.382 . S
C500 H526 0.950 . S
C501 N498 1.332 . S
C501 C500 1.382 . S
C501 H512 0.952 . S
C502 C499 1.388 . S
C502 C503 1.382 . S
C502 H527 0.950 . S
C503 N498 1.332 . S
C503 C502 1.382 . S
C503 H513 0.948 . S
N504 Co482 2.282 . S
N504 C508 1.332 . S
N504 C509 1.332 . S
C505 C506 1.388 . S
C505 C509 1.382 . S
C505 H528 0.950 . S
C506 C505 1.388 . S
C506 C507 1.386 . S
C507 C506 1.386 . S
C507 C508 1.382 . S
C507 H529 0.950 . S
C508 N504 1.332 . S
C508 C507 1.382 . S
C508 H510 0.952 . S
C509 N504 1.332 . S
C509 C505 1.382 . S
C509 H511 0.948 . S
H510 C508 0.952 . S
H511 C509 0.948 . S
H512 C501 0.952 . S
H513 C503 0.948 . S
C514 C480 1.395 . S
C514 C484 1.391 . S
C515 C477 1.389 . S
C515 C497 1.392 . S
C516 C487 1.392 . S
C516 C489 1.389 . S
C517 C492 1.395 . S
C517 C494 1.391 . S
H518 C478 0.951 . S
H519 C479 0.950 . S
H520 C485 0.949 . S
H521 C486 0.950 . S
H522 C490 0.951 . S
H523 C491 0.950 . S
H524 C495 0.949 . S
H525 C496 0.950 . S
H526 C500 0.950 . S
H527 C502 0.950 . S
H528 C505 0.950 . S
H529 C507 0.950 . S
C530 C531 1.443 . S
C530 N534 1.376 . S
C530 C568 1.389 . S
C531 C530 1.443 . S
C531 C532 1.340 . S
C531 H571 0.951 . S
C532 C531 1.340 . S
C532 C533 1.439 . S
C532 H572 0.950 . S
C533 C532 1.439 . S
C533 N534 1.374 . S
C533 C567 1.395 . S
N534 C530 1.376 . S
N534 C533 1.374 . S
N534 Co535 2.008 . S
Co535 N534 2.008 . S
Co535 N536 1.995 . S
Co535 N541 2.008 . S
Co535 N546 1.995 . S
Co535 N551 2.282 . S
Co535 N557 2.282 . S
N536 Co535 1.995 . S
N536 C537 1.376 . S
N536 C540 1.383 . S
C537 N536 1.376 . S
C537 C538 1.446 . S
C537 C567 1.391 . S
C538 C537 1.446 . S
C538 C539 1.339 . S
C538 H573 0.949 . S
C539 C538 1.339 . S
C539 C540 1.439 . S
C539 H574 0.950 . S
C540 N536 1.383 . S
C540 C539 1.439 . S
C540 C569 1.392 . S
N541 Co535 2.008 . S
N541 C542 1.376 . S
N541 C545 1.374 . S
C542 N541 1.376 . S
C542 C543 1.443 . S
C542 C569 1.389 . S
C543 C542 1.443 . S
C543 C544 1.340 . S
C543 H575 0.951 . S
C544 C543 1.340 . S
C544 C545 1.439 . S
C544 H576 0.950 . S
C545 N541 1.374 . S
C545 C544 1.439 . S
C545 C570 1.395 . S
N546 Co535 1.995 . S
N546 C547 1.376 . S
N546 C550 1.383 . S
C547 N546 1.376 . S
C547 C548 1.446 . S
C547 C570 1.391 . S
C548 C547 1.446 . S
C548 C549 1.339 . S
C548 H577 0.949 . S
C549 C548 1.339 . S
C549 C550 1.439 . S
C549 H578 0.950 . S
C550 N546 1.383 . S
C550 C549 1.439 . S
C550 C568 1.392 . S
N551 Co535 2.282 . S
N551 C554 1.332 . S
N551 C556 1.332 . S
C552 C553 1.386 . S
C552 C555 1.388 . S
C553 C552 1.386 . S
C553 C554 1.382 . S
C553 H579 0.950 . S
C554 N551 1.332 . S
C554 C553 1.382 . S
C554 H565 0.952 . S
C555 C552 1.388 . S
C555 C556 1.382 . S
C555 H580 0.950 . S
C556 N551 1.332 . S
C556 C555 1.382 . S
C556 H566 0.948 . S
N557 Co535 2.282 . S
N557 C561 1.332 . S
N557 C562 1.332 . S
C558 C559 1.388 . S
C558 C562 1.382 . S
C558 H581 0.950 . S
C559 C558 1.388 . S
C559 C560 1.386 . S
C560 C559 1.386 . S
C560 C561 1.382 . S
C560 H582 0.950 . S
C561 N557 1.332 . S
C561 C560 1.382 . S
C561 H563 0.952 . S
C562 N557 1.332 . S
C562 C558 1.382 . S
C562 H564 0.948 . S
H563 C561 0.952 . S
H564 C562 0.948 . S
H565 C554 0.952 . S
H566 C556 0.948 . S
C567 C533 1.395 . S
C567 C537 1.391 . S
C568 C530 1.389 . S
C568 C550 1.392 . S
C569 C540 1.392 . S
C569 C542 1.389 . S
C570 C545 1.395 . S
C570 C547 1.391 . S
H571 C531 0.951 . S
H572 C532 0.950 . S
H573 C538 0.949 . S
H574 C539 0.950 . S
H575 C543 0.951 . S
H576 C544 0.950 . S
H577 C548 0.949 . S
H578 C549 0.950 . S
H579 C553 0.950 . S
H580 C555 0.950 . S
H581 C558 0.950 . S
H582 C560 0.950 . S
C583 C584 1.443 . S
C583 N587 1.376 . S
C583 C621 1.389 . S
C584 C583 1.443 . S
C584 C585 1.340 . S
C584 H624 0.951 . S
C585 C584 1.340 . S
C585 C586 1.439 . S
C585 H625 0.950 . S
C586 C585 1.439 . S
C586 N587 1.374 . S
C586 C620 1.395 . S
N587 C583 1.376 . S
N587 C586 1.374 . S
N587 Co588 2.008 . S
Co588 N587 2.008 . S
Co588 N589 1.995 . S
Co588 N594 2.008 . S
Co588 N599 1.995 . S
Co588 N604 2.282 . S
Co588 N610 2.282 . S
N589 Co588 1.995 . S
N589 C590 1.376 . S
N589 C593 1.383 . S
C590 N589 1.376 . S
C590 C591 1.446 . S
C590 C620 1.391 . S
C591 C590 1.446 . S
C591 C592 1.339 . S
C591 H626 0.949 . S
C592 C591 1.339 . S
C592 C593 1.439 . S
C592 H627 0.950 . S
C593 N589 1.383 . S
C593 C592 1.439 . S
C593 C622 1.392 . S
N594 Co588 2.008 . S
N594 C595 1.376 . S
N594 C598 1.374 . S
C595 N594 1.376 . S
C595 C596 1.443 . S
C595 C622 1.389 . S
C596 C595 1.443 . S
C596 C597 1.340 . S
C596 H628 0.951 . S
C597 C596 1.340 . S
C597 C598 1.439 . S
C597 H629 0.950 . S
C598 N594 1.374 . S
C598 C597 1.439 . S
C598 C623 1.395 . S
N599 Co588 1.995 . S
N599 C600 1.376 . S
N599 C603 1.383 . S
C600 N599 1.376 . S
C600 C601 1.446 . S
C600 C623 1.391 . S
C601 C600 1.446 . S
C601 C602 1.339 . S
C601 H630 0.949 . S
C602 C601 1.339 . S
C602 C603 1.439 . S
C602 H631 0.950 . S
C603 N599 1.383 . S
C603 C602 1.439 . S
C603 C621 1.392 . S
N604 Co588 2.282 . S
N604 C607 1.332 . S
N604 C609 1.332 . S
C605 C606 1.386 . S
C605 C608 1.388 . S
C606 C605 1.386 . S
C606 C607 1.382 . S
C606 H632 0.950 . S
C607 N604 1.332 . S
C607 C606 1.382 . S
C607 H618 0.952 . S
C608 C605 1.388 . S
C608 C609 1.382 . S
C608 H633 0.950 . S
C609 N604 1.332 . S
C609 C608 1.382 . S
C609 H619 0.948 . S
N610 Co588 2.282 . S
N610 C614 1.332 . S
N610 C615 1.332 . S
C611 C612 1.388 . S
C611 C615 1.382 . S
C611 H634 0.950 . S
C612 C611 1.388 . S
C612 C613 1.386 . S
C613 C612 1.386 . S
C613 C614 1.382 . S
C613 H635 0.950 . S
C614 N610 1.332 . S
C614 C613 1.382 . S
C614 H616 0.952 . S
C615 N610 1.332 . S
C615 C611 1.382 . S
C615 H617 0.948 . S
H616 C614 0.952 . S
H617 C615 0.948 . S
H618 C607 0.952 . S
H619 C609 0.948 . S
C620 C586 1.395 . S
C620 C590 1.391 . S
C621 C583 1.389 . S
C621 C603 1.392 . S
C622 C593 1.392 . S
C622 C595 1.389 . S
C623 C598 1.395 . S
C623 C600 1.391 . S
H624 C584 0.951 . S
H625 C585 0.950 . S
H626 C591 0.949 . S
H627 C592 0.950 . S
H628 C596 0.951 . S
H629 C597 0.950 . S
H630 C601 0.949 . S
H631 C602 0.950 . S
H632 C606 0.950 . S
H633 C608 0.950 . S
H634 C611 0.950 . S
H635 C613 0.950 . S
C636 C637 1.369 . S
C636 C638 1.419 1_556 S
C636 H640 0.930 . S
C637 C636 1.369 . S
C637 C646 1.429 . S
C638 C636 1.419 1_554 S
C638 C639 1.363 . S
C638 H641 0.929 . S
C639 C638 1.363 . S
C639 C645 1.428 . S
H640 C636 0.930 . S
H641 C638 0.929 . S
S642 N643 1.613 1_554 S
S642 N644 1.610 . S
N643 S642 1.613 1_556 S
N643 C646 1.350 . S
N644 S642 1.610 . S
N644 C645 1.351 . S
C645 C639 1.428 . S
C645 N644 1.351 . S
C645 C646 1.434 1_554 S
C646 C637 1.429 . S
C646 N643 1.350 . S
C646 C645 1.434 1_556 S
C647 C648 1.369 . S
C647 C649 1.419 . S
C647 H651 0.930 . S
C648 C647 1.369 . S
C648 C657 1.429 . S
C649 C647 1.419 . S
C649 C650 1.363 . S
C649 H652 0.929 . S
C650 C649 1.363 . S
C650 C656 1.428 . S
H651 C647 0.930 . S
H652 C649 0.929 . S
S653 N654 1.613 . S
S653 N655 1.610 . S
N654 S653 1.613 . S
N654 C657 1.350 . S
N655 S653 1.610 . S
N655 C656 1.351 . S
C656 C650 1.428 . S
C656 N655 1.351 . S
C656 C657 1.434 . S
C657 C648 1.429 . S
C657 N654 1.350 . S
C657 C656 1.434 . S
C658 C659 1.369 . S
C658 C660 1.419 . S
C658 H662 0.930 . S
C659 C658 1.369 . S
C659 C668 1.429 . S
C660 C658 1.419 . S
C660 C661 1.363 . S
C660 H663 0.929 . S
C661 C660 1.363 . S
C661 C667 1.428 . S
H662 C658 0.930 . S
H663 C660 0.929 . S
S664 N665 1.613 . S
S664 N666 1.610 . S
N665 S664 1.613 . S
N665 C668 1.350 . S
N666 S664 1.610 . S
N666 C667 1.351 . S
C667 C661 1.428 . S
C667 N666 1.351 . S
C667 C668 1.434 . S
C668 C659 1.429 . S
C668 N665 1.350 . S
C668 C667 1.434 . S
C669 C670 1.369 . S
C669 C671 1.419 1_554 S
C669 H673 0.930 . S
C670 C669 1.369 . S
C670 C679 1.429 . S
C671 C669 1.419 1_556 S
C671 C672 1.363 . S
C671 H674 0.929 . S
C672 C671 1.363 . S
C672 C678 1.428 . S
H673 C669 0.930 . S
H674 C671 0.929 . S
S675 N676 1.613 . S
S675 N677 1.610 1_554 S
N676 S675 1.613 . S
N676 C679 1.350 . S
N677 S675 1.610 1_556 S
N677 C678 1.351 . S
C678 C672 1.428 . S
C678 N677 1.351 . S
C678 C679 1.434 1_556 S
C679 C670 1.429 . S
C679 N676 1.350 . S
C679 C678 1.434 1_554 S
C680 C681 1.369 . S
C680 C682 1.419 . S
C680 H684 0.930 . S
C681 C680 1.369 . S
C681 C690 1.429 . S
C682 C680 1.419 . S
C682 C683 1.363 . S
C682 H685 0.929 . S
C683 C682 1.363 . S
C683 C689 1.428 . S
H684 C680 0.930 . S
H685 C682 0.929 . S
S686 N687 1.613 . S
S686 N688 1.610 . S
N687 S686 1.613 . S
N687 C690 1.350 . S
N688 S686 1.610 . S
N688 C689 1.351 . S
C689 C683 1.428 . S
C689 N688 1.351 . S
C689 C690 1.434 . S
C690 C681 1.429 . S
C690 N687 1.350 . S
C690 C689 1.434 . S
C691 C692 1.369 . S
C691 C693 1.419 . S
C691 H695 0.930 . S
C692 C691 1.369 . S
C692 C701 1.429 . S
C693 C691 1.419 . S
C693 C694 1.363 . S
C693 H696 0.929 . S
C694 C693 1.363 . S
C694 C700 1.428 . S
H695 C691 0.930 . S
H696 C693 0.929 . S
S697 N698 1.613 . S
S697 N699 1.610 . S
N698 S697 1.613 . S
N698 C701 1.350 . S
N699 S697 1.610 . S
N699 C700 1.351 . S
C700 C694 1.428 . S
C700 N699 1.351 . S
C700 C701 1.434 . S
C701 C692 1.429 . S
C701 N698 1.350 . S
C701 C700 1.434 . S
C702 C703 1.369 . S
C702 C704 1.419 . S
C702 H706 0.930 . S
C703 C702 1.369 . S
C703 C712 1.429 . S
C704 C702 1.419 . S
C704 C705 1.363 . S
C704 H707 0.929 . S
C705 C704 1.363 . S
C705 C711 1.428 . S
H706 C702 0.930 . S
H707 C704 0.929 . S
S708 N709 1.613 . S
S708 N710 1.610 . S
N709 S708 1.613 . S
N709 C712 1.350 . S
N710 S708 1.610 . S
N710 C711 1.351 . S
C711 C705 1.428 . S
C711 N710 1.351 . S
C711 C712 1.434 . S
C712 C703 1.429 . S
C712 N709 1.350 . S
C712 C711 1.434 . S
C713 C714 1.369 . S
C713 C715 1.419 . S
C713 H717 0.930 . S
C714 C713 1.369 . S
C714 C723 1.429 . S
C715 C713 1.419 . S
C715 C716 1.363 . S
C715 H718 0.929 . S
C716 C715 1.363 . S
C716 C722 1.428 . S
H717 C713 0.930 . S
H718 C715 0.929 . S
S719 N720 1.613 . S
S719 N721 1.610 . S
N720 S719 1.613 . S
N720 C723 1.350 . S
N721 S719 1.610 . S
N721 C722 1.351 . S
C722 C716 1.428 . S
C722 N721 1.351 . S
C722 C723 1.434 . S
C723 C714 1.429 . S
C723 N720 1.350 . S
C723 C722 1.434 . S
C724 C725 1.369 . S
C724 C726 1.419 . S
C724 H728 0.930 . S
C725 C724 1.369 . S
C725 C734 1.429 . S
C726 C724 1.419 . S
C726 C727 1.363 . S
C726 H729 0.929 . S
C727 C726 1.363 . S
C727 C733 1.428 . S
H728 C724 0.930 . S
H729 C726 0.929 . S
S730 N731 1.613 . S
S730 N732 1.610 . S
N731 S730 1.613 . S
N731 C734 1.350 . S
N732 S730 1.610 . S
N732 C733 1.351 . S
C733 C727 1.428 . S
C733 N732 1.351 . S
C733 C734 1.434 . S
C734 C725 1.429 . S
C734 N731 1.350 . S
C734 C733 1.434 . S
C735 C736 1.369 . S
C735 C737 1.419 . S
C735 H739 0.930 . S
C736 C735 1.369 . S
C736 C745 1.429 . S
C737 C735 1.419 . S
C737 C738 1.363 . S
C737 H740 0.929 . S
C738 C737 1.363 . S
C738 C744 1.428 . S
H739 C735 0.930 . S
H740 C737 0.929 . S
S741 N742 1.613 . S
S741 N743 1.610 . S
N742 S741 1.613 . S
N742 C745 1.350 . S
N743 S741 1.610 . S
N743 C744 1.351 . S
C744 C738 1.428 . S
C744 N743 1.351 . S
C744 C745 1.434 . S
C745 C736 1.429 . S
C745 N742 1.350 . S
C745 C744 1.434 . S
C746 C747 1.369 . S
C746 C748 1.419 . S
C746 H750 0.930 . S
C747 C746 1.369 . S
C747 C756 1.429 . S
C748 C746 1.419 . S
C748 C749 1.363 . S
C748 H751 0.929 . S
C749 C748 1.363 . S
C749 C755 1.428 . S
H750 C746 0.930 . S
H751 C748 0.929 . S
S752 N753 1.613 . S
S752 N754 1.610 . S
N753 S752 1.613 . S
N753 C756 1.350 . S
N754 S752 1.610 . S
N754 C755 1.351 . S
C755 C749 1.428 . S
C755 N754 1.351 . S
C755 C756 1.434 . S
C756 C747 1.429 . S
C756 N753 1.350 . S
C756 C755 1.434 . S
C757 C758 1.369 . S
C757 C759 1.419 . S
C757 H761 0.930 . S
C758 C757 1.369 . S
C758 C767 1.429 . S
C759 C757 1.419 . S
C759 C760 1.363 . S
C759 H762 0.929 . S
C760 C759 1.363 . S
C760 C766 1.428 . S
H761 C757 0.930 . S
H762 C759 0.929 . S
S763 N764 1.613 . S
S763 N765 1.610 . S
N764 S763 1.613 . S
N764 C767 1.350 . S
N765 S763 1.610 . S
N765 C766 1.351 . S
C766 C760 1.428 . S
C766 N765 1.351 . S
C766 C767 1.434 . S
C767 C758 1.429 . S
C767 N764 1.350 . S
C767 C766 1.434 . S
C768 C769 1.369 . S
C768 C770 1.419 1_655 S
C768 H772 0.930 . S
C769 C768 1.369 . S
C769 C778 1.429 . S
C770 C768 1.419 1_455 S
C770 C771 1.363 . S
C770 H773 0.929 . S
C771 C770 1.363 . S
C771 C777 1.428 . S
H772 C768 0.930 . S
H773 C770 0.929 . S
S774 N775 1.613 . S
S774 N776 1.610 1_655 S
N775 S774 1.613 . S
N775 C778 1.350 . S
N776 S774 1.610 1_455 S
N776 C777 1.351 . S
C777 C771 1.428 . S
C777 N776 1.351 . S
C777 C778 1.434 1_455 S
C778 C769 1.429 . S
C778 N775 1.350 . S
C778 C777 1.434 1_655 S
C779 C780 1.369 . S
C779 C781 1.419 1_545 S
C779 H783 0.930 . S
C780 C779 1.369 . S
C780 C789 1.429 . S
C781 C779 1.419 1_565 S
C781 C782 1.363 . S
C781 H784 0.929 . S
C782 C781 1.363 . S
C782 C788 1.428 . S
H783 C779 0.930 . S
H784 C781 0.929 . S
S785 N786 1.613 . S
S785 N787 1.610 1_545 S
N786 S785 1.613 . S
N786 C789 1.350 . S
N787 S785 1.610 1_565 S
N787 C788 1.351 . S
C788 C782 1.428 . S
C788 N787 1.351 . S
C788 C789 1.434 1_565 S
C789 C780 1.429 . S
C789 N786 1.350 . S
C789 C788 1.434 1_545 S
C790 C791 1.369 . S
C790 C792 1.419 . S
C790 H794 0.930 . S
C791 C790 1.369 . S
C791 C800 1.429 . S
C792 C790 1.419 . S
C792 C793 1.363 . S
C792 H795 0.929 . S
C793 C792 1.363 . S
C793 C799 1.428 . S
H794 C790 0.930 . S
H795 C792 0.929 . S
S796 N797 1.613 . S
S796 N798 1.610 . S
N797 S796 1.613 . S
N797 C800 1.350 . S
N798 S796 1.610 . S
N798 C799 1.351 . S
C799 C793 1.428 . S
C799 N798 1.351 . S
C799 C800 1.434 . S
C800 C791 1.429 . S
C800 N797 1.350 . S
C800 C799 1.434 . S
C801 C802 1.369 . S
C801 C803 1.419 1_545 S
C801 H805 0.930 . S
C802 C801 1.369 . S
C802 C811 1.429 . S
C803 C801 1.419 1_565 S
C803 C804 1.363 . S
C803 H806 0.929 . S
C804 C803 1.363 . S
C804 C810 1.428 . S
H805 C801 0.930 . S
H806 C803 0.929 . S
S807 N808 1.613 1_565 S
S807 N809 1.610 . S
N808 S807 1.613 1_545 S
N808 C811 1.350 . S
N809 S807 1.610 . S
N809 C810 1.351 . S
C810 C804 1.428 . S
C810 N809 1.351 . S
C810 C811 1.434 1_565 S
C811 C802 1.429 . S
C811 N808 1.350 . S
C811 C810 1.434 1_545 S
C812 C813 1.369 . S
C812 C814 1.419 . S
C812 H816 0.930 . S
C813 C812 1.369 . S
C813 C822 1.429 . S
C814 C812 1.419 . S
C814 C815 1.363 . S
C814 H817 0.929 . S
C815 C814 1.363 . S
C815 C821 1.428 . S
H816 C812 0.930 . S
H817 C814 0.929 . S
S818 N819 1.613 . S
S818 N820 1.610 . S
N819 S818 1.613 . S
N819 C822 1.350 . S
N820 S818 1.610 . S
N820 C821 1.351 . S
C821 C815 1.428 . S
C821 N820 1.351 . S
C821 C822 1.434 . S
C822 C813 1.429 . S
C822 N819 1.350 . S
C822 C821 1.434 . S
C823 C824 1.369 . S
C823 C825 1.419 1_455 S
C823 H827 0.930 . S
C824 C823 1.369 . S
C824 C833 1.429 . S
C825 C823 1.419 1_655 S
C825 C826 1.363 . S
C825 H828 0.929 . S
C826 C825 1.363 . S
C826 C832 1.428 . S
H827 C823 0.930 . S
H828 C825 0.929 . S
S829 N830 1.613 . S
S829 N831 1.610 1_455 S
N830 S829 1.613 . S
N830 C833 1.350 . S
N831 S829 1.610 1_655 S
N831 C832 1.351 . S
C832 C826 1.428 . S
C832 N831 1.351 . S
C832 C833 1.434 1_655 S
C833 C824 1.429 . S
C833 N830 1.350 . S
C833 C832 1.434 1_455 S
C834 C835 1.369 . S
C834 C836 1.419 . S
C834 H838 0.930 . S
C835 C834 1.369 . S
C835 C844 1.429 . S
C836 C834 1.419 . S
C836 C837 1.363 . S
C836 H839 0.929 . S
C837 C836 1.363 . S
C837 C843 1.428 . S
H838 C834 0.930 . S
H839 C836 0.929 . S
S840 N841 1.613 . S
S840 N842 1.610 . S
N841 S840 1.613 . S
N841 C844 1.350 . S
N842 S840 1.610 . S
N842 C843 1.351 . S
C843 C837 1.428 . S
C843 N842 1.351 . S
C843 C844 1.434 . S
C844 C835 1.429 . S
C844 N841 1.350 . S
C844 C843 1.434 . S
C845 C846 1.369 . S
C845 C847 1.419 1_655 S
C845 H849 0.930 . S
C846 C845 1.369 . S
C846 C855 1.429 . S
C847 C845 1.419 1_455 S
C847 C848 1.363 . S
C847 H850 0.929 . S
C848 C847 1.363 . S
C848 C854 1.428 . S
H849 C845 0.930 . S
H850 C847 0.929 . S
S851 N852 1.613 . S
S851 N853 1.610 1_655 S
N852 S851 1.613 . S
N852 C855 1.350 . S
N853 S851 1.610 1_455 S
N853 C854 1.351 . S
C854 C848 1.428 . S
C854 N853 1.351 . S
C854 C855 1.434 1_455 S
C855 C846 1.429 . S
C855 N852 1.350 . S
C855 C854 1.434 1_655 S
C856 C857 1.369 . S
C856 C858 1.419 1_545 S
C856 H860 0.930 . S
C857 C856 1.369 . S
C857 C866 1.429 . S
C858 C856 1.419 1_565 S
C858 C859 1.363 . S
C858 H861 0.929 . S
C859 C858 1.363 . S
C859 C865 1.428 . S
H860 C856 0.930 . S
H861 C858 0.929 . S
S862 N863 1.613 1_565 S
S862 N864 1.610 . S
N863 S862 1.613 1_545 S
N863 C866 1.350 . S
N864 S862 1.610 . S
N864 C865 1.351 . S
C865 C859 1.428 . S
C865 N864 1.351 . S
C865 C866 1.434 1_565 S
C866 C857 1.429 . S
C866 N863 1.350 . S
C866 C865 1.434 1_545 S
C867 C868 1.369 . S
C867 C869 1.419 . S
C867 H871 0.930 . S
C868 C867 1.369 . S
C868 C877 1.429 . S
C869 C867 1.419 . S
C869 C870 1.363 . S
C869 H872 0.929 . S
C870 C869 1.363 . S
C870 C876 1.428 . S
H871 C867 0.930 . S
H872 C869 0.929 . S
S873 N874 1.613 . S
S873 N875 1.610 . S
N874 S873 1.613 . S
N874 C877 1.350 . S
N875 S873 1.610 . S
N875 C876 1.351 . S
C876 C870 1.428 . S
C876 N875 1.351 . S
C876 C877 1.434 . S
C877 C868 1.429 . S
C877 N874 1.350 . S
C877 C876 1.434 . S
C878 C879 1.369 . S
C878 C880 1.419 1_455 S
C878 H882 0.930 . S
C879 C878 1.369 . S
C879 C888 1.429 . S
C880 C878 1.419 1_655 S
C880 C881 1.363 . S
C880 H883 0.929 . S
C881 C880 1.363 . S
C881 C887 1.428 . S
H882 C878 0.930 . S
H883 C880 0.929 . S
S884 N885 1.613 1_655 S
S884 N886 1.610 . S
N885 S884 1.613 1_455 S
N885 C888 1.350 . S
N886 S884 1.610 . S
N886 C887 1.351 . S
C887 C881 1.428 . S
C887 N886 1.351 . S
C887 C888 1.434 1_655 S
C888 C879 1.429 . S
C888 N885 1.350 . S
C888 C887 1.434 1_455 S
C889 C890 1.369 . S
C889 C891 1.419 1_565 S
C889 H893 0.930 . S
C890 C889 1.369 . S
C890 C899 1.429 . S
C891 C889 1.419 1_545 S
C891 C892 1.363 . S
C891 H894 0.929 . S
C892 C891 1.363 . S
C892 C898 1.428 . S
H893 C889 0.930 . S
H894 C891 0.929 . S
S895 N896 1.613 1_545 S
S895 N897 1.610 . S
N896 S895 1.613 1_565 S
N896 C899 1.350 . S
N897 S895 1.610 . S
N897 C898 1.351 . S
C898 C892 1.428 . S
C898 N897 1.351 . S
C898 C899 1.434 1_545 S
C899 C890 1.429 . S
C899 N896 1.350 . S
C899 C898 1.434 1_565 S
C637 C569 1.854 . S
C639 C39 1.852 . S
C648 C92 1.857 . S
C650 C622 1.854 . S
C659 C145 1.850 . S
C661 C357 1.855 . S
C670 C198 1.854 . S
C672 C410 1.857 . S
C681 C463 1.852 . S
C683 C251 1.857 . S
C692 C304 1.850 . S
C694 C516 1.855 . S
C703 C462 1.934 . S
C705 C38 1.934 . S
C714 C91 1.938 . S
C716 C515 1.932 . S
C725 C144 1.930 . S
C727 C568 1.937 . S
C736 C197 1.937 . S
C738 C621 1.933 . S
C747 C356 1.931 . S
C749 C250 1.936 . S
C758 C409 1.938 . S
C760 C303 1.932 . S
C769 C188 1.146 . S
C771 C29 1.142 . S
C780 C82 1.144 . S
C782 C241 1.141 . S
C791 C294 1.141 . S
C793 C135 1.144 . S
C802 C506 1.141 . S
C804 C347 1.143 . S
C813 C559 1.141 . S
C815 C400 1.144 . S
C824 C453 1.145 . S
C826 C612 1.143 . S
C835 C181 1.895 . S
C837 C22 1.894 . S
C846 C75 1.895 . S
C848 C234 1.894 . S
C857 C287 1.894 . S
C859 C128 1.895 . S
C868 C340 1.893 . S
C870 C499 1.894 . S
C879 C552 1.893 . S
C881 C393 1.894 . S
C890 C446 1.893 . S
C892 C605 1.894 . S
