# Generated by pormake.
# Topology gme, (4)-cn, num edge types: 1
# Building blocks:
#     Node 0, Type 0, BuildingBlock: QUQFOY_clean_sbu_3, # of connection points: 4
#     Node 1, Type 0, BuildingBlock: QUQFOY_clean_sbu_3, # of connection points: 4
#     Node 2, Type 0, BuildingBlock: QUQFOY_clean_sbu_3, # of connection points: 4
#     Node 3, Type 0, BuildingBlock: QUQFOY_clean_sbu_3, # of connection points: 4
#     Node 4, Type 0, BuildingBlock: QUQFOY_clean_sbu_3, # of connection points: 4
#     Node 5, Type 0, BuildingBlock: QUQFOY_clean_sbu_3, # of connection points: 4
#     Node 6, Type 0, BuildingBlock: QUQFOY_clean_sbu_3, # of connection points: 4
#     Node 7, Type 0, BuildingBlock: QUQFOY_clean_sbu_3, # of connection points: 4
#     Node 8, Type 0, BuildingBlock: QUQFOY_clean_sbu_3, # of connection points: 4
#     Node 9, Type 0, BuildingBlock: QUQFOY_clean_sbu_3, # of connection points: 4
#     Node 10, Type 0, BuildingBlock: QUQFOY_clean_sbu_3, # of connection points: 4
#     Node 11, Type 0, BuildingBlock: QUQFOY_clean_sbu_3, # of connection points: 4
#     Node 12, Type 0, BuildingBlock: QUQFOY_clean_sbu_3, # of connection points: 4
#     Node 13, Type 0, BuildingBlock: QUQFOY_clean_sbu_3, # of connection points: 4
#     Node 14, Type 0, BuildingBlock: QUQFOY_clean_sbu_3, # of connection points: 4
#     Node 15, Type 0, BuildingBlock: QUQFOY_clean_sbu_3, # of connection points: 4
#     Node 16, Type 0, BuildingBlock: QUQFOY_clean_sbu_3, # of connection points: 4
#     Node 17, Type 0, BuildingBlock: QUQFOY_clean_sbu_3, # of connection points: 4
#     Node 18, Type 0, BuildingBlock: QUQFOY_clean_sbu_3, # of connection points: 4
#     Node 19, Type 0, BuildingBlock: QUQFOY_clean_sbu_3, # of connection points: 4
#     Node 20, Type 0, BuildingBlock: QUQFOY_clean_sbu_3, # of connection points: 4
#     Node 21, Type 0, BuildingBlock: QUQFOY_clean_sbu_3, # of connection points: 4
#     Node 22, Type 0, BuildingBlock: QUQFOY_clean_sbu_3, # of connection points: 4
#     Node 23, Type 0, BuildingBlock: QUQFOY_clean_sbu_3, # of connection points: 4
#     Edge 24, Type (0, 0), BuildingBlock: OJICUG_clean_linker_0, # of connection points: 2
#     Edge 25, Type (0, 0), BuildingBlock: OJICUG_clean_linker_0, # of connection points: 2
#     Edge 26, Type (0, 0), BuildingBlock: OJICUG_clean_linker_0, # of connection points: 2
#     Edge 27, Type (0, 0), BuildingBlock: OJICUG_clean_linker_0, # of connection points: 2
#     Edge 28, Type (0, 0), BuildingBlock: OJICUG_clean_linker_0, # of connection points: 2
#     Edge 29, Type (0, 0), BuildingBlock: OJICUG_clean_linker_0, # of connection points: 2
#     Edge 30, Type (0, 0), BuildingBlock: OJICUG_clean_linker_0, # of connection points: 2
#     Edge 31, Type (0, 0), BuildingBlock: OJICUG_clean_linker_0, # of connection points: 2
#     Edge 32, Type (0, 0), BuildingBlock: OJICUG_clean_linker_0, # of connection points: 2
#     Edge 33, Type (0, 0), BuildingBlock: OJICUG_clean_linker_0, # of connection points: 2
#     Edge 34, Type (0, 0), BuildingBlock: OJICUG_clean_linker_0, # of connection points: 2
#     Edge 35, Type (0, 0), BuildingBlock: OJICUG_clean_linker_0, # of connection points: 2
#     Edge 36, Type (0, 0), BuildingBlock: OJICUG_clean_linker_0, # of connection points: 2
#     Edge 37, Type (0, 0), BuildingBlock: OJICUG_clean_linker_0, # of connection points: 2
#     Edge 38, Type (0, 0), BuildingBlock: OJICUG_clean_linker_0, # of connection points: 2
#     Edge 39, Type (0, 0), BuildingBlock: OJICUG_clean_linker_0, # of connection points: 2
#     Edge 40, Type (0, 0), BuildingBlock: OJICUG_clean_linker_0, # of connection points: 2
#     Edge 41, Type (0, 0), BuildingBlock: OJICUG_clean_linker_0, # of connection points: 2
#     Edge 42, Type (0, 0), BuildingBlock: OJICUG_clean_linker_0, # of connection points: 2
#     Edge 43, Type (0, 0), BuildingBlock: OJICUG_clean_linker_0, # of connection points: 2
#     Edge 44, Type (0, 0), BuildingBlock: OJICUG_clean_linker_0, # of connection points: 2
#     Edge 45, Type (0, 0), BuildingBlock: OJICUG_clean_linker_0, # of connection points: 2
#     Edge 46, Type (0, 0), BuildingBlock: OJICUG_clean_linker_0, # of connection points: 2
#     Edge 47, Type (0, 0), BuildingBlock: OJICUG_clean_linker_0, # of connection points: 2
#     Edge 48, Type (0, 0), BuildingBlock: OJICUG_clean_linker_0, # of connection points: 2
#     Edge 49, Type (0, 0), BuildingBlock: OJICUG_clean_linker_0, # of connection points: 2
#     Edge 50, Type (0, 0), BuildingBlock: OJICUG_clean_linker_0, # of connection points: 2
#     Edge 51, Type (0, 0), BuildingBlock: OJICUG_clean_linker_0, # of connection points: 2
#     Edge 52, Type (0, 0), BuildingBlock: OJICUG_clean_linker_0, # of connection points: 2
#     Edge 53, Type (0, 0), BuildingBlock: OJICUG_clean_linker_0, # of connection points: 2
#     Edge 54, Type (0, 0), BuildingBlock: OJICUG_clean_linker_0, # of connection points: 2
#     Edge 55, Type (0, 0), BuildingBlock: OJICUG_clean_linker_0, # of connection points: 2
#     Edge 56, Type (0, 0), BuildingBlock: OJICUG_clean_linker_0, # of connection points: 2
#     Edge 57, Type (0, 0), BuildingBlock: OJICUG_clean_linker_0, # of connection points: 2
#     Edge 58, Type (0, 0), BuildingBlock: OJICUG_clean_linker_0, # of connection points: 2
#     Edge 59, Type (0, 0), BuildingBlock: OJICUG_clean_linker_0, # of connection points: 2
#     Edge 60, Type (0, 0), BuildingBlock: OJICUG_clean_linker_0, # of connection points: 2
#     Edge 61, Type (0, 0), BuildingBlock: OJICUG_clean_linker_0, # of connection points: 2
#     Edge 62, Type (0, 0), BuildingBlock: OJICUG_clean_linker_0, # of connection points: 2
#     Edge 63, Type (0, 0), BuildingBlock: OJICUG_clean_linker_0, # of connection points: 2
#     Edge 64, Type (0, 0), BuildingBlock: OJICUG_clean_linker_0, # of connection points: 2
#     Edge 65, Type (0, 0), BuildingBlock: OJICUG_clean_linker_0, # of connection points: 2
#     Edge 66, Type (0, 0), BuildingBlock: OJICUG_clean_linker_0, # of connection points: 2
#     Edge 67, Type (0, 0), BuildingBlock: OJICUG_clean_linker_0, # of connection points: 2
#     Edge 68, Type (0, 0), BuildingBlock: OJICUG_clean_linker_0, # of connection points: 2
#     Edge 69, Type (0, 0), BuildingBlock: OJICUG_clean_linker_0, # of connection points: 2
#     Edge 70, Type (0, 0), BuildingBlock: OJICUG_clean_linker_0, # of connection points: 2
#     Edge 71, Type (0, 0), BuildingBlock: OJICUG_clean_linker_0, # of connection points: 2
# Relax obj value: 0.072
# Max RMSD: 0.096
# Mean RMSD: 0.096
data_MOF--net-gme--node1-QUQFOY_clean_sbu_3--edge1-OJICUG_clean_linker_0
_symmetry_space_group_name_H-M    P1
_symmetry_Int_Tables_number       1
_symmetry_cell_setting            triclinic
loop_
_symmetry_equiv_pos_as_xyz
'x, y, z'
_cell_length_a     43.184921
_cell_length_b     42.683974
_cell_length_c     43.813204
_cell_angle_alpha  90.012845
_cell_angle_beta   90.004975
_cell_angle_gamma 120.37356
loop_
_atom_site_label
_atom_site_type_symbol
_atom_site_fract_x
_atom_site_fract_y
_atom_site_fract_z
_atom_type_partial_charge
C0 C 0.39291 0.12772 0.11775 0.0
O1 O 0.42075 0.12911 0.12881 0.0
Cd2 Cd 0.43443 0.08188 0.12929 0.0
O3 O 0.36856 0.09873 0.10504 0.0
Cd4 Cd 0.35967 0.03669 0.09499 0.0
C5 C 0.36029 0.01969 0.17008 0.0
O6 O 0.42096 0.05689 0.07986 0.0
O7 O 0.39007 0.00025 0.09075 0.0
O8 O 0.33878 0.04246 0.04487 0.0
C9 C 0.41912 0.02642 0.08046 0.0
O10 O 0.39416 0.03902 0.16684 0.0
C11 C 0.31343 0.0098 0.04275 0.0
O12 O 0.33902 0.01628 0.1484 0.0
O13 O 0.30746 -0.01011 0.06616 0.0
C14 C 0.24504 0.41096 0.6158 0.0
O15 O 0.27203 0.43909 0.62666 0.0
Cd16 Cd 0.33216 0.45185 0.62787 0.0
O17 O 0.24865 0.38578 0.60365 0.0
Cd18 Cd 0.30057 0.37578 0.59431 0.0
C19 C 0.31722 0.37691 0.66966 0.0
O20 O 0.34333 0.43739 0.5788 0.0
O21 O 0.36735 0.40575 0.59076 0.0
O22 O 0.27417 0.35465 0.54402 0.0
C23 C 0.37134 0.4351 0.57988 0.0
O24 O 0.33271 0.41116 0.6661 0.0
C25 C 0.28078 0.32896 0.54205 0.0
O26 O 0.29917 0.35522 0.64803 0.0
O27 O 0.29401 0.32277 0.56567 0.0
C28 C 0.81549 0.26286 0.11733 0.0
O29 O 0.81481 0.29007 0.12822 0.0
Cd30 Cd 0.86217 0.35127 0.12835 0.0
O31 O 0.84386 0.26675 0.10466 0.0
Cd32 Cd 0.9058 0.31968 0.09452 0.0
C33 C 0.92258 0.33796 0.16966 0.0
O34 O 0.88654 0.36154 0.07888 0.0
O35 O 0.94241 0.38735 0.09005 0.0
O36 O 0.90015 0.29228 0.04451 0.0
C37 C 0.91673 0.3904 0.07947 0.0
O38 O 0.90405 0.35328 0.16615 0.0
C39 C 0.93237 0.29939 0.04261 0.0
O40 O 0.92558 0.31946 0.14815 0.0
O41 O 0.95191 0.31346 0.0661 0.0
C42 C 0.53197 0.83155 0.61771 0.0
O43 O 0.5041 0.83009 0.62876 0.0
Cd44 Cd 0.49025 0.87721 0.6292 0.0
O45 O 0.55627 0.86055 0.605 0.0
Cd46 Cd 0.56501 0.9225 0.59488 0.0
C47 C 0.56438 0.93954 0.66997 0.0
O48 O 0.50368 0.9022 0.57979 0.0
O49 O 0.53455 0.95886 0.59063 0.0
O50 O 0.58586 0.91673 0.54474 0.0
C51 C 0.50548 0.93266 0.5804 0.0
O52 O 0.53051 0.92015 0.66674 0.0
C53 C 0.61122 0.94939 0.54263 0.0
O54 O 0.58566 0.94299 0.64829 0.0
O55 O 0.6172 0.9693 0.56606 0.0
C56 C 0.68033 0.54954 0.1163 0.0
O57 O 0.65339 0.52143 0.12723 0.0
Cd58 Cd 0.59318 0.50846 0.12821 0.0
O59 O 0.67663 0.57456 0.10397 0.0
Cd60 Cd 0.62461 0.58433 0.0944 0.0
C61 C 0.6078 0.5835 0.16967 0.0
O62 O 0.58203 0.52259 0.07901 0.0
O63 O 0.55783 0.55414 0.09069 0.0
O64 O 0.65108 0.60535 0.04413 0.0
C65 C 0.55395 0.52479 0.07996 0.0
O66 O 0.59237 0.54923 0.16622 0.0
C67 C 0.64443 0.63101 0.04208 0.0
O68 O 0.62587 0.6051 0.14802 0.0
O69 O 0.63112 0.63721 0.06564 0.0
C70 C 0.10883 0.69682 0.61767 0.0
O71 O 0.10944 0.6696 0.6286 0.0
Cd72 Cd 0.06203 0.60842 0.62857 0.0
O73 O 0.08051 0.69296 0.60491 0.0
Cd74 Cd 0.01857 0.6401 0.59466 0.0
C75 C 0.00152 0.6217 0.66972 0.0
O76 O 0.03791 0.59829 0.579 0.0
O77 O -0.01799 0.57241 0.59005 0.0
O78 O 0.02439 0.66764 0.54471 0.0
C79 C 0.00773 0.56942 0.5795 0.0
O80 O 0.02002 0.60635 0.66626 0.0
C81 C -0.00783 0.66051 0.54273 0.0
O82 O -0.00136 0.64028 0.64822 0.0
O83 O -0.02746 0.64634 0.56615 0.0
C84 C 0.81438 0.54969 0.34938 0.0
O85 O 0.8132 0.52156 0.33846 0.0
Cd86 Cd 0.86042 0.50856 0.33749 0.0
O87 O 0.8431 0.57473 0.3617 0.0
Cd88 Cd 0.90488 0.58449 0.37127 0.0
C89 C 0.9208 0.58354 0.29599 0.0
O90 O 0.88575 0.52277 0.38667 0.0
O91 O 0.94148 0.55429 0.37497 0.0
O92 O 0.89947 0.60558 0.42153 0.0
C93 C 0.91601 0.52495 0.38571 0.0
O94 O 0.90196 0.54928 0.29945 0.0
C95 C 0.93177 0.63123 0.42357 0.0
O96 O 0.92434 0.60517 0.31763 0.0
O97 O 0.95127 0.6374 0.40001 0.0
C98 C 0.24448 0.83153 0.84811 0.0
O99 O 0.27088 0.83007 0.83703 0.0
Cd100 Cd 0.33184 0.87714 0.83667 0.0
O101 O 0.24919 0.86051 0.86089 0.0
Cd102 Cd 0.30242 0.92241 0.87111 0.0
C103 C 0.32015 0.93962 0.79605 0.0
O104 O 0.3434 0.90201 0.88614 0.0
O105 O 0.36923 0.9587 0.8754 0.0
O106 O 0.27582 0.91661 0.92126 0.0
C107 C 0.37207 0.93246 0.88559 0.0
O108 O 0.33461 0.9202 0.79923 0.0
C109 C 0.28314 0.94928 0.92341 0.0
O110 O 0.30231 0.94303 0.81774 0.0
O111 O 0.29706 0.9692 0.9 0.0
C112 C 0.39262 0.2631 0.34838 0.0
O113 O 0.42049 0.29029 0.33748 0.0
Cd114 Cd 0.43431 0.35149 0.33731 0.0
O115 O 0.36815 0.26702 0.36103 0.0
Cd116 Cd 0.35909 0.31994 0.37113 0.0
C117 C 0.36058 0.33814 0.29599 0.0
O118 O 0.42021 0.3618 0.38677 0.0
O119 O 0.39014 0.38762 0.37563 0.0
O120 O 0.33735 0.29253 0.42112 0.0
C121 C 0.41888 0.39067 0.38619 0.0
O122 O 0.39442 0.35345 0.29949 0.0
C123 C 0.31223 0.29964 0.42302 0.0
O124 O 0.33909 0.31967 0.3175 0.0
O125 O 0.30677 0.31374 0.39954 0.0
C126 C 0.11098 0.41089 0.85001 0.0
O127 O 0.11216 0.43906 0.8392 0.0
Cd128 Cd 0.06483 0.45189 0.83797 0.0
O129 O 0.08219 0.38571 0.8621 0.0
Cd130 Cd 0.02027 0.37573 0.87142 0.0
C131 C 0.00486 0.37701 0.79606 0.0
O132 O 0.0391 0.43734 0.88698 0.0
O133 O -0.01653 0.40572 0.87497 0.0
O134 O 0.0255 0.35456 0.9217 0.0
C135 C 0.0088 0.43506 0.88586 0.0
O136 O 0.02364 0.41125 0.79967 0.0
C137 C -0.00679 0.32887 0.92362 0.0
O138 O 0.00117 0.35527 0.81766 0.0
O139 O -0.02618 0.3227 0.89998 0.0
C140 C 0.68001 0.1278 0.34824 0.0
O141 O 0.65356 0.12918 0.33718 0.0
Cd142 Cd 0.59267 0.08197 0.33675 0.0
O143 O 0.6754 0.09884 0.36098 0.0
Cd144 Cd 0.62226 0.03683 0.37108 0.0
C145 C 0.60458 0.01971 0.296 0.0
O146 O 0.58119 0.05708 0.3862 0.0
O147 O 0.55543 0.00043 0.37532 0.0
O148 O 0.64889 0.04261 0.42122 0.0
C149 C 0.55255 0.02661 0.38561 0.0
O150 O 0.59003 0.03904 0.29923 0.0
C151 C 0.64157 0.00994 0.42334 0.0
O152 O 0.62246 0.01633 0.31768 0.0
O153 O 0.62766 -0.00996 0.39991 0.0
C154 C 0.53278 0.69642 0.84809 0.0
O155 O 0.50496 0.66919 0.83715 0.0
Cd156 Cd 0.49125 0.60803 0.83712 0.0
O157 O 0.55726 0.69256 0.86082 0.0
Cd158 Cd 0.56639 0.63971 0.87101 0.0
C159 C 0.56503 0.62138 0.79592 0.0
O160 O 0.50529 0.59791 0.88667 0.0
O161 O 0.53531 0.57202 0.87558 0.0
O162 O 0.58815 0.6673 0.92094 0.0
C163 C 0.50661 0.56904 0.88617 0.0
O164 O 0.53118 0.606 0.79939 0.0
C165 C 0.61324 0.66016 0.92292 0.0
O166 O 0.58648 0.63994 0.81743 0.0
O167 O 0.61868 0.64596 0.8995 0.0
C168 C 0.53193 0.83138 0.84807 0.0
O169 O 0.50407 0.82993 0.83701 0.0
Cd170 Cd 0.49021 0.87704 0.83664 0.0
O171 O 0.55621 0.86036 0.86084 0.0
Cd172 Cd 0.56492 0.92229 0.87104 0.0
C173 C 0.56434 0.93944 0.79597 0.0
O174 O 0.50357 0.90194 0.8861 0.0
O175 O 0.53442 0.95862 0.87534 0.0
O176 O 0.58576 0.91649 0.92117 0.0
C177 C 0.50536 0.9324 0.88555 0.0
O178 O 0.53047 0.92004 0.79917 0.0
C179 C 0.61111 0.94916 0.92331 0.0
O180 O 0.5856 0.94286 0.81766 0.0
O181 O 0.61709 0.96908 0.8999 0.0
C182 C 0.68041 0.54971 0.34937 0.0
O183 O 0.65347 0.52159 0.33844 0.0
Cd184 Cd 0.59325 0.50861 0.33746 0.0
O185 O 0.67671 0.57475 0.36168 0.0
Cd186 Cd 0.6247 0.58452 0.37125 0.0
C187 C 0.60784 0.5836 0.29597 0.0
O188 O 0.58212 0.5228 0.38665 0.0
O189 O 0.55792 0.55434 0.37494 0.0
O190 O 0.65119 0.60559 0.42151 0.0
C191 C 0.55405 0.52499 0.38569 0.0
O192 O 0.59243 0.54934 0.29943 0.0
C193 C 0.64453 0.63123 0.42356 0.0
O194 O 0.62593 0.60523 0.31762 0.0
O195 O 0.63121 0.63742 0.4 0.0
C196 C 0.1087 0.6966 0.84811 0.0
O197 O 0.10931 0.66938 0.83716 0.0
Cd198 Cd 0.06188 0.60822 0.83712 0.0
O199 O 0.08038 0.69274 0.86085 0.0
Cd200 Cd 0.01842 0.63988 0.87103 0.0
C201 C 0.00143 0.62157 0.79594 0.0
O202 O 0.03774 0.59807 0.88668 0.0
O203 O -0.01815 0.57219 0.87558 0.0
O204 O 0.02424 0.66744 0.92098 0.0
C205 C 0.00756 0.5692 0.88616 0.0
O206 O 0.01991 0.60619 0.7994 0.0
C207 C -0.00799 0.66029 0.92296 0.0
O208 O -0.00145 0.64013 0.81746 0.0
O209 O -0.02762 0.64611 0.89953 0.0
C210 C 0.39305 0.1279 0.34831 0.0
O211 O 0.42088 0.12927 0.33725 0.0
Cd212 Cd 0.43454 0.08203 0.33684 0.0
O213 O 0.3687 0.09895 0.36103 0.0
Cd214 Cd 0.3598 0.03692 0.37116 0.0
C215 C 0.36036 0.01979 0.29609 0.0
O216 O 0.4211 0.05713 0.38628 0.0
O217 O 0.3902 0.00047 0.37542 0.0
O218 O 0.33898 0.04276 0.42129 0.0
C219 C 0.41926 0.02665 0.38569 0.0
O220 O 0.39423 0.03911 0.29932 0.0
C221 C 0.3136 0.01011 0.42341 0.0
O222 O 0.33911 0.01642 0.31776 0.0
O223 O 0.3076 -0.00982 0.4 0.0
C224 C 0.24496 0.41083 0.85001 0.0
O225 O 0.27195 0.43898 0.83918 0.0
Cd226 Cd 0.33209 0.45176 0.83796 0.0
O227 O 0.24857 0.38564 0.86211 0.0
Cd228 Cd 0.30049 0.37562 0.87144 0.0
C229 C 0.31716 0.37684 0.79609 0.0
O230 O 0.34326 0.43723 0.88699 0.0
O231 O 0.36726 0.40558 0.87499 0.0
O232 O 0.2741 0.35449 0.92172 0.0
C233 C 0.37127 0.43493 0.88588 0.0
O234 O 0.33263 0.41109 0.79969 0.0
C235 C 0.2807 0.32879 0.92366 0.0
O236 O 0.29911 0.35512 0.81769 0.0
O237 O 0.29391 0.3226 0.90003 0.0
C238 C 0.81559 0.26298 0.34833 0.0
O239 O 0.81489 0.29016 0.33742 0.0
Cd240 Cd 0.86224 0.35137 0.33725 0.0
O241 O 0.84398 0.26691 0.361 0.0
Cd242 Cd 0.90593 0.31985 0.37109 0.0
C243 C 0.92263 0.33802 0.29594 0.0
O244 O 0.88665 0.36172 0.38671 0.0
O245 O 0.94252 0.38753 0.37556 0.0
O246 O 0.9003 0.29248 0.42109 0.0
C247 C 0.91684 0.39058 0.38613 0.0
O248 O 0.90409 0.35334 0.29944 0.0
C249 C 0.93253 0.29961 0.423 0.0
O250 O 0.92565 0.31956 0.31746 0.0
O251 O 0.95206 0.31368 0.39951 0.0
C252 C 0.11108 0.41104 0.61577 0.0
O253 O 0.11224 0.43919 0.62662 0.0
Cd254 Cd 0.06491 0.45202 0.62783 0.0
O255 O 0.08229 0.38588 0.60363 0.0
Cd256 Cd 0.02039 0.37592 0.59427 0.0
C257 C 0.0049 0.3771 0.66962 0.0
O258 O 0.03926 0.43755 0.57877 0.0
O259 O -0.01639 0.40593 0.59071 0.0
O260 O 0.02564 0.35478 0.54398 0.0
C261 C 0.00896 0.43527 0.57985 0.0
O262 O 0.02368 0.41135 0.66606 0.0
C263 C -0.00665 0.32909 0.54202 0.0
O264 O 0.00124 0.35539 0.648 0.0
O265 O -0.02605 0.32291 0.56565 0.0
C266 C 0.67993 0.12767 0.11764 0.0
O267 O 0.65349 0.12907 0.12872 0.0
Cd268 Cd 0.5926 0.08186 0.12921 0.0
O269 O 0.67529 0.09868 0.10494 0.0
Cd270 Cd 0.62215 0.03664 0.09489 0.0
C271 C 0.60456 0.01965 0.16999 0.0
O272 O 0.58105 0.05686 0.07979 0.0
O273 O 0.55532 0.00022 0.09068 0.0
O274 O 0.64875 0.04239 0.04476 0.0
C275 C 0.55242 0.02639 0.0804 0.0
O276 O 0.59002 0.03899 0.16675 0.0
C277 C 0.64144 0.00972 0.04264 0.0
O278 O 0.6224 0.01622 0.14831 0.0
O279 O 0.62753 -0.01017 0.06606 0.0
C280 C 0.53282 0.69658 0.61757 0.0
O281 O 0.50498 0.66935 0.62847 0.0
Cd282 Cd 0.49127 0.60818 0.62847 0.0
O283 O 0.5573 0.69273 0.60485 0.0
Cd284 Cd 0.56645 0.6399 0.59461 0.0
C285 C 0.56505 0.62149 0.66968 0.0
O286 O 0.50535 0.59808 0.57893 0.0
O287 O 0.53539 0.57221 0.59 0.0
O288 O 0.58819 0.66748 0.54469 0.0
C289 C 0.50667 0.56921 0.57943 0.0
O290 O 0.5312 0.60614 0.66619 0.0
C291 C 0.6133 0.66037 0.54272 0.0
O292 O 0.58651 0.64007 0.64819 0.0
O293 O 0.61875 0.64618 0.56614 0.0
C294 C 0.8143 0.54954 0.1163 0.0
O295 O 0.81314 0.52143 0.12723 0.0
Cd296 Cd 0.86038 0.50844 0.1282 0.0
O297 O 0.84302 0.57457 0.10398 0.0
Cd298 Cd 0.9048 0.58433 0.09441 0.0
C299 C 0.92077 0.58346 0.16968 0.0
O300 O 0.88565 0.5226 0.079 0.0
O301 O 0.94139 0.55413 0.0907 0.0
O302 O 0.89936 0.60539 0.04415 0.0
C303 C 0.91591 0.52478 0.07995 0.0
O304 O 0.90194 0.5492 0.16623 0.0
C305 C 0.93165 0.63104 0.04211 0.0
O306 O 0.92429 0.60507 0.14804 0.0
O307 O 0.95116 0.63722 0.06567 0.0
C308 C 0.2446 0.83177 0.61785 0.0
O309 O 0.27099 0.83029 0.62892 0.0
Cd310 Cd 0.33195 0.87737 0.62934 0.0
O311 O 0.24931 0.86076 0.60511 0.0
Cd312 Cd 0.30255 0.92268 0.59499 0.0
C313 C 0.32023 0.93976 0.67007 0.0
O314 O 0.34353 0.90229 0.5799 0.0
O315 O 0.36937 0.95896 0.59074 0.0
O316 O 0.27593 0.91692 0.54485 0.0
C317 C 0.3722 0.93274 0.58049 0.0
O318 O 0.3347 0.92036 0.66686 0.0
C319 C 0.28329 0.94961 0.54272 0.0
O320 O 0.3024 0.94321 0.64839 0.0
O321 O 0.29723 0.96951 0.56614 0.0
C322 C 0.39252 0.26293 0.11742 0.0
O323 O 0.42041 0.29014 0.12829 0.0
Cd324 Cd 0.43425 0.35135 0.1284 0.0
O325 O 0.36804 0.26683 0.10474 0.0
Cd326 Cd 0.35901 0.31975 0.09457 0.0
C327 C 0.36055 0.33808 0.1697 0.0
O328 O 0.42012 0.36159 0.07892 0.0
O329 O 0.39007 0.38742 0.09006 0.0
O330 O 0.33724 0.29231 0.04458 0.0
C331 C 0.41879 0.39045 0.07949 0.0
O332 O 0.39439 0.35338 0.16619 0.0
C333 C 0.31213 0.29942 0.04268 0.0
O334 O 0.33904 0.31956 0.1482 0.0
O335 O 0.30668 0.31352 0.06616 0.0
C336 C 0.36497 -0.00932 0.249 0.0
C337 C 0.34722 0.00535 0.26521 0.0
H338 H 0.38197 -0.01726 0.20532 0.0
C339 C 0.32542 0.01543 0.24913 0.0
H340 H 0.38199 -0.01722 0.26088 0.0
C341 C 0.3254 0.01541 0.21703 0.0
C342 C 0.34719 0.0053 0.20097 0.0
H343 H 0.31187 0.02729 0.26112 0.0
H344 H 0.31185 0.02725 0.20504 0.0
C345 C 0.36495 -0.00935 0.21718 0.0
C346 C 0.35044 0.38185 0.71698 0.0
C347 C 0.31801 0.36393 0.70073 0.0
H348 H 0.37547 0.39893 0.76068 0.0
C349 C 0.28595 0.34203 0.71679 0.0
H350 H 0.37549 0.39896 0.70512 0.0
C351 C 0.28593 0.34201 0.74891 0.0
C352 C 0.31798 0.36389 0.76501 0.0
H353 H 0.26055 0.32836 0.70478 0.0
H354 H 0.26052 0.32833 0.76089 0.0
C355 C 0.35042 0.38183 0.7488 0.0
C356 C 0.92638 0.30685 0.21675 0.0
C357 C 0.93654 0.33914 0.20066 0.0
H358 H 0.91461 0.28117 0.26084 0.0
C359 C 0.95114 0.37194 0.21689 0.0
H360 H 0.91459 0.28115 0.20475 0.0
C361 C 0.95116 0.37195 0.24871 0.0
C362 C 0.93657 0.33917 0.26494 0.0
H363 H 0.95912 0.39718 0.20502 0.0
H364 H 0.95914 0.3972 0.26057 0.0
C365 C 0.92639 0.30686 0.24885 0.0
C366 C 0.59931 0.94391 0.71692 0.0
C367 C 0.57748 0.95396 0.70086 0.0
H368 H 0.61289 0.93206 0.761 0.0
C369 C 0.55968 0.96856 0.71709 0.0
H370 H 0.6129 0.9321 0.70492 0.0
C371 C 0.55967 0.96853 0.74891 0.0
C372 C 0.57747 0.95391 0.76511 0.0
H373 H 0.54263 0.97643 0.70522 0.0
H374 H 0.54262 0.97638 0.76078 0.0
C375 C 0.59931 0.94388 0.74902 0.0
C376 C 0.57457 0.57879 0.24873 0.0
C377 C 0.60701 0.59667 0.26495 0.0
H378 H 0.54949 0.56166 0.20505 0.0
C379 C 0.63907 0.61853 0.24886 0.0
H380 H 0.54952 0.56171 0.26061 0.0
C381 C 0.63905 0.6185 0.21675 0.0
C382 C 0.60698 0.59661 0.20068 0.0
H383 H 0.66449 0.63216 0.26086 0.0
H384 H 0.66446 0.63212 0.20475 0.0
C385 C 0.57455 0.57876 0.21691 0.0
C386 C -0.02718 0.58771 0.71688 0.0
C387 C -0.0125 0.62052 0.70069 0.0
H388 H -0.03523 0.5624 0.76054 0.0
C389 C -0.00231 0.65281 0.71681 0.0
H390 H -0.03519 0.56247 0.70499 0.0
C391 C -0.00233 0.65278 0.74891 0.0
C392 C -0.01255 0.62045 0.76496 0.0
H393 H 0.00954 0.67852 0.70484 0.0
H394 H 0.0095 0.67846 0.76093 0.0
C395 C -0.02721 0.58767 0.7487 0.0
C396 C 0.94924 0.57869 0.21693 0.0
C397 C 0.93468 0.59657 0.2007 0.0
H398 H 0.95722 0.56161 0.26062 0.0
C399 C 0.92451 0.61846 0.21678 0.0
H400 H 0.9572 0.56159 0.20506 0.0
C401 C 0.92452 0.61848 0.24889 0.0
C402 C 0.9347 0.5966 0.26497 0.0
H403 H 0.91273 0.6321 0.20477 0.0
H404 H 0.91274 0.63213 0.26088 0.0
C405 C 0.94926 0.57871 0.24875 0.0
C406 C 0.35391 0.96875 0.74901 0.0
C407 C 0.3215 0.95412 0.7652 0.0
H408 H 0.37885 0.97665 0.70534 0.0
C409 C 0.28964 0.94411 0.74911 0.0
H410 H 0.3788 0.97659 0.76089 0.0
C411 C 0.28966 0.94415 0.71701 0.0
C412 C 0.32154 0.9542 0.70096 0.0
H413 H 0.26424 0.93228 0.76108 0.0
H414 H 0.26427 0.93235 0.705 0.0
C415 C 0.35393 0.96879 0.71719 0.0
C416 C 0.36598 0.37207 0.24875 0.0
C417 C 0.34779 0.3393 0.26498 0.0
H418 H 0.38325 0.3973 0.20507 0.0
C419 C 0.32565 0.30699 0.2489 0.0
H420 H 0.38325 0.39732 0.26062 0.0
C421 C 0.32565 0.30698 0.21679 0.0
C422 C 0.34778 0.33927 0.20071 0.0
H423 H 0.31174 0.28131 0.26089 0.0
H424 H 0.31173 0.28128 0.2048 0.0
C425 C 0.36598 0.37206 0.21693 0.0
C426 C -0.02334 0.38209 0.71693 0.0
C427 C -0.00887 0.36413 0.70069 0.0
H428 H -0.03129 0.39919 0.76063 0.0
C429 C 0.00126 0.3422 0.71676 0.0
H430 H -0.03127 0.39922 0.70507 0.0
C431 C 0.00125 0.34218 0.74888 0.0
C432 C -0.0089 0.36409 0.76498 0.0
H433 H 0.01297 0.3285 0.70475 0.0
H434 H 0.01296 0.32847 0.76087 0.0
C435 C -0.02336 0.38207 0.74875 0.0
C436 C 0.57087 -0.00938 0.2489 0.0
C437 C 0.60328 0.00528 0.26512 0.0
H438 H 0.54595 -0.0173 0.20522 0.0
C439 C 0.63517 0.01536 0.24905 0.0
H440 H 0.54597 -0.01728 0.26078 0.0
C441 C 0.63516 0.01535 0.21695 0.0
C442 C 0.60327 0.00525 0.20087 0.0
H443 H 0.66056 0.02721 0.26104 0.0
H444 H 0.66055 0.02719 0.20496 0.0
C445 C 0.57087 -0.0094 0.21709 0.0
C446 C 0.59997 0.65259 0.71677 0.0
C447 C 0.57787 0.6203 0.70066 0.0
H448 H 0.61385 0.67825 0.76089 0.0
C449 C 0.55973 0.58749 0.71686 0.0
H450 H 0.61385 0.6783 0.7048 0.0
C451 C 0.55973 0.58747 0.74868 0.0
C452 C 0.57787 0.62024 0.76493 0.0
H453 H 0.54249 0.56225 0.70497 0.0
H454 H 0.54248 0.5622 0.76053 0.0
C455 C 0.59998 0.65256 0.74888 0.0
C456 C 0.36397 0.16406 0.10233 0.0
C457 C 0.38994 0.16079 0.11919 0.0
H458 H 0.34423 0.19909 0.08846 0.0
C459 C 0.41475 0.19041 0.13682 0.0
H460 H 0.34442 0.14166 0.08859 0.0
C461 C 0.41464 0.22293 0.13675 0.0
C462 C 0.38972 0.2269 0.11904 0.0
H463 H 0.43487 0.18881 0.15041 0.0
H464 H 0.43467 0.24523 0.15029 0.0
C465 C 0.36385 0.19691 0.10226 0.0
C466 C 0.17389 0.43484 0.63343 0.0
C467 C 0.1441 0.40858 0.61695 0.0
H468 H 0.22844 0.45591 0.64615 0.0
C469 C 0.14702 0.38146 0.60117 0.0
H470 H 0.17262 0.45594 0.64613 0.0
C471 C 0.17954 0.38144 0.60118 0.0
C472 C 0.20958 0.40854 0.61697 0.0
H473 H 0.12451 0.36079 0.58831 0.0
H474 H 0.18136 0.36075 0.58833 0.0
C475 C 0.20607 0.43482 0.63344 0.0
C476 C 0.75339 0.22286 0.13666 0.0
C477 C 0.78228 0.22684 0.11895 0.0
H478 H 0.69907 0.18876 0.15031 0.0
C479 C 0.77814 0.19684 0.10216 0.0
H480 H 0.75566 0.24516 0.15021 0.0
C481 C 0.74519 0.164 0.10223 0.0
C482 C 0.71595 0.16073 0.11908 0.0
H483 H 0.79995 0.19903 0.08835 0.0
H484 H 0.74235 0.1416 0.08847 0.0
C485 C 0.72077 0.19035 0.13672 0.0
C486 C 0.5613 0.76255 0.60235 0.0
C487 C 0.53553 0.73256 0.61918 0.0
H488 H 0.58055 0.81772 0.58858 0.0
C489 C 0.51058 0.7365 0.63688 0.0
H490 H 0.58094 0.76039 0.58854 0.0
C491 C 0.51035 0.76895 0.6369 0.0
C492 C 0.53506 0.79856 0.61921 0.0
H493 H 0.49061 0.7142 0.65046 0.0
H494 H 0.49022 0.77052 0.65048 0.0
C495 C 0.56107 0.79534 0.60237 0.0
C496 C 0.74575 0.57895 0.10149 0.0
C497 C 0.71584 0.55208 0.11756 0.0
H498 H 0.80066 0.59939 0.08839 0.0
C499 C 0.71951 0.52612 0.13436 0.0
H500 H 0.7438 0.59939 0.08839 0.0
C501 C 0.75171 0.52612 0.13436 0.0
C502 C 0.78134 0.55209 0.11756 0.0
H503 H 0.69726 0.50524 0.14731 0.0
H504 H 0.7531 0.50524 0.14731 0.0
C505 C 0.77828 0.57895 0.10149 0.0
C506 C 0.20359 0.76921 0.6371 0.0
C507 C 0.20851 0.79879 0.61935 0.0
H508 H 0.16857 0.71449 0.6507 0.0
C509 C 0.17932 0.79556 0.60244 0.0
H510 H 0.22526 0.7708 0.65074 0.0
C511 C 0.14631 0.76278 0.60241 0.0
C512 C 0.14208 0.73281 0.6193 0.0
H513 H 0.18224 0.81792 0.58861 0.0
H514 H 0.12455 0.7606 0.58855 0.0
C515 C 0.17092 0.73677 0.63708 0.0
C516 C 0.75178 0.52626 0.33132 0.0
C517 C 0.78141 0.55224 0.34812 0.0
H518 H 0.69732 0.50538 0.31837 0.0
C519 C 0.77836 0.57912 0.36418 0.0
H520 H 0.75316 0.50538 0.31837 0.0
C521 C 0.74584 0.57912 0.36418 0.0
C522 C 0.71592 0.55225 0.34811 0.0
H523 H 0.80075 0.59957 0.37729 0.0
H524 H 0.7439 0.59958 0.37728 0.0
C525 C 0.71958 0.52627 0.33131 0.0
C526 C 0.17081 0.73655 0.82877 0.0
C527 C 0.14195 0.73258 0.84653 0.0
H528 H 0.22517 0.77058 0.81517 0.0
C529 C 0.14618 0.76254 0.86344 0.0
H530 H 0.16847 0.71428 0.81513 0.0
C531 C 0.17919 0.79532 0.86346 0.0
C532 C 0.2084 0.79856 0.84657 0.0
H533 H 0.12441 0.76036 0.87729 0.0
H534 H 0.18211 0.81767 0.87731 0.0
C535 C 0.20349 0.76899 0.82879 0.0
C536 C 0.3641 0.16428 0.36362 0.0
C537 C 0.39008 0.16097 0.34681 0.0
H538 H 0.34434 0.19933 0.3774 0.0
C539 C 0.41488 0.19055 0.32916 0.0
H540 H 0.34455 0.14191 0.37738 0.0
C541 C 0.41476 0.22306 0.32916 0.0
C542 C 0.38983 0.22708 0.34682 0.0
H543 H 0.435 0.18893 0.3156 0.0
H544 H 0.43479 0.24534 0.3156 0.0
C545 C 0.36397 0.19712 0.36362 0.0
C546 C 0.17945 0.38128 0.86457 0.0
C547 C 0.2095 0.40841 0.84883 0.0
H548 H 0.12441 0.3606 0.87739 0.0
C549 C 0.206 0.43472 0.83241 0.0
H550 H 0.18126 0.36058 0.87739 0.0
C551 C 0.17381 0.43473 0.83241 0.0
C552 C 0.14401 0.40844 0.84883 0.0
H553 H 0.22837 0.45583 0.81973 0.0
H554 H 0.17256 0.45585 0.81973 0.0
C555 C 0.14692 0.3813 0.86457 0.0
C556 C 0.74531 0.16417 0.36359 0.0
C557 C 0.71604 0.16086 0.34675 0.0
H558 H 0.8001 0.19923 0.3774 0.0
C559 C 0.72083 0.19043 0.32906 0.0
H560 H 0.74249 0.14181 0.37738 0.0
C561 C 0.75345 0.22293 0.32907 0.0
C562 C 0.78238 0.22696 0.34677 0.0
H563 H 0.6991 0.1888 0.31548 0.0
H564 H 0.7557 0.2452 0.31549 0.0
C565 C 0.77827 0.19701 0.3636 0.0
C566 C 0.51058 0.73636 0.82879 0.0
C567 C 0.5355 0.7324 0.84651 0.0
H568 H 0.49023 0.77039 0.8152 0.0
C569 C 0.56125 0.76237 0.86339 0.0
H570 H 0.49062 0.71408 0.81517 0.0
C571 C 0.56102 0.79515 0.8634 0.0
C572 C 0.53503 0.79839 0.84654 0.0
H573 H 0.58087 0.7602 0.87721 0.0
H574 H 0.58048 0.81752 0.87723 0.0
C575 C 0.51034 0.76881 0.82881 0.0
C576 C 0.29869 0.00234 0.95755 0.0
C577 C 0.28157 0.96457 0.95339 0.0
H578 H 0.32174 0.0464 -0.01062 0.0
C579 C 0.26857 0.9419 0.9792 0.0
H580 H 0.30883 0.02057 0.93817 0.0
C581 C 0.27595 0.95672 0.00862 0.0
C582 C 0.29654 -0.00551 0.01278 0.0
H583 H 0.25496 0.91265 0.97678 0.0
H584 H 0.26791 0.93849 0.02799 0.0
C585 C 0.30614 0.01716 -0.01303 0.0
C586 C 0.27468 0.31469 0.45677 0.0
C587 C 0.29504 0.2977 0.45283 0.0
H588 H 0.25358 0.33742 0.48835 0.0
C589 C 0.30408 0.28452 0.47876 0.0
H590 H 0.26708 0.32497 0.4373 0.0
C591 C 0.29629 0.29161 0.5081 0.0
C592 C 0.27941 0.31212 0.51207 0.0
H593 H 0.31949 0.27101 0.47653 0.0
H594 H 0.30602 0.28348 0.52759 0.0
C595 C 0.26698 0.32187 0.4861 0.0
C596 C 0.94033 0.29149 0.95752 0.0
C597 C -0.02228 0.31199 0.95357 0.0
H598 H 0.89652 0.27085 -0.01095 0.0
C599 C -0.00012 0.32169 0.97956 0.0
H600 H 0.92249 0.28339 0.93801 0.0
C601 C -0.01502 0.31447 0.00888 0.0
C602 C 0.94764 0.29748 0.01279 0.0
H603 H 0.02882 0.33723 0.97733 0.0
H604 H 0.00285 0.32471 0.02836 0.0
C605 C 0.92544 0.28435 -0.01316 0.0
C606 C 0.65613 0.01729 0.47913 0.0
C607 C 0.64312 -0.00537 0.45331 0.0
H608 H 0.65679 0.0207 0.52793 0.0
C609 C 0.62597 0.95686 0.45745 0.0
H610 H 0.66977 0.04654 0.47674 0.0
C611 C 0.61849 0.94203 0.48685 0.0
C612 C 0.62811 0.9647 0.51268 0.0
H613 H 0.61581 0.93863 0.43806 0.0
H614 H 0.60287 0.91279 0.48925 0.0
C615 C 0.64874 0.00247 0.50854 0.0
C616 C 0.65834 0.63799 -0.01384 0.0
C617 C 0.64588 0.64781 0.01207 0.0
H618 H 0.65834 0.63481 0.93737 0.0
C619 C 0.62905 0.66835 0.00801 0.0
H620 H 0.67171 0.62243 -0.01151 0.0
C621 C 0.62133 0.67541 0.97864 0.0
C622 C 0.6304 0.66216 0.95276 0.0
H623 H 0.6193 0.67653 0.02746 0.0
H624 H 0.60596 0.68895 0.97634 0.0
C625 C 0.65072 0.64515 0.95679 0.0
C626 C 0.93967 0.64548 0.50885 0.0
C627 C -0.023 0.66248 0.51288 0.0
H628 H 0.89595 0.62275 0.47717 0.0
C629 C -0.0007 0.67568 0.487 0.0
H630 H 0.92174 0.63518 0.52828 0.0
C631 C -0.01549 0.66859 0.45763 0.0
C632 C 0.94714 0.64807 0.45357 0.0
H633 H 0.02821 0.6892 0.4893 0.0
H634 H 0.00242 0.67673 0.43818 0.0
C635 C 0.92488 0.6383 0.47949 0.0
C636 C 0.61834 0.9418 0.9791 0.0
C637 C 0.62799 0.96446 0.95328 0.0
H638 H 0.61564 0.9384 0.02789 0.0
C639 C 0.64863 0.00223 0.95744 0.0
H640 H 0.60271 0.91255 0.97669 0.0
C641 C 0.65602 0.01706 -0.01315 0.0
C642 C 0.64299 -0.00561 0.01267 0.0
H643 H 0.6567 0.02046 0.93806 0.0
H644 H 0.66968 0.0463 -0.01074 0.0
C645 C 0.62581 0.95662 0.00851 0.0
C646 C 0.62911 0.66855 0.45763 0.0
C647 C 0.64597 0.64804 0.45357 0.0
H648 H 0.60598 0.68912 0.4893 0.0
C649 C 0.65845 0.63825 0.47949 0.0
H650 H 0.61935 0.67672 0.43818 0.0
C651 C 0.65081 0.6454 0.50886 0.0
C652 C 0.63046 0.66238 0.51288 0.0
H653 H 0.67185 0.62271 0.47716 0.0
H654 H 0.65845 0.63508 0.52828 0.0
C655 C 0.62138 0.67561 0.487 0.0
C656 C 0.92474 0.63807 -0.01381 0.0
C657 C 0.94701 0.64786 0.01211 0.0
H658 H 0.92157 0.63493 0.9374 0.0
C659 C -0.01563 0.6684 0.00806 0.0
H660 H 0.89581 0.62251 -0.01149 0.0
C661 C -0.00085 0.67549 0.97869 0.0
C662 C -0.02315 0.66226 0.95281 0.0
H663 H 0.00229 0.67656 0.02752 0.0
H664 H 0.02806 0.68903 0.9764 0.0
C665 C 0.93952 0.64525 0.95683 0.0
C666 C 0.26868 0.94225 0.48694 0.0
C667 C 0.28174 0.96492 0.51276 0.0
H668 H 0.26798 0.93882 0.43814 0.0
C669 C 0.29892 0.00269 0.50861 0.0
H670 H 0.25502 0.913 0.48934 0.0
C671 C 0.30639 0.0175 0.4792 0.0
C672 C 0.29672 -0.00518 0.45338 0.0
H673 H 0.30911 0.02092 0.528 0.0
H674 H 0.32203 0.04675 0.4768 0.0
C675 C 0.27606 0.95706 0.45753 0.0
C676 C 0.27458 0.31447 0.00893 0.0
C677 C 0.29494 0.29748 0.01286 0.0
H678 H 0.25348 0.33721 0.97736 0.0
C679 C 0.30399 0.28432 -0.01308 0.0
H680 H 0.26697 0.32474 0.02841 0.0
C681 C 0.29621 0.29142 0.95759 0.0
C682 C 0.27932 0.31193 0.95363 0.0
H683 H 0.3194 0.27081 -0.01086 0.0
H684 H 0.30595 0.28331 0.93809 0.0
C685 C 0.26689 0.32167 0.9796 0.0
C686 C 0.94049 0.2917 0.50809 0.0
C687 C -0.02212 0.31222 0.51205 0.0
H688 H 0.89668 0.27104 0.47653 0.0
C689 C 4e-05 0.32195 0.48608 0.0
H690 H 0.92265 0.28359 0.52759 0.0
C691 C -0.01485 0.31472 0.45675 0.0
C692 C 0.9478 0.29771 0.45282 0.0
H693 H 0.02898 0.3375 0.48833 0.0
H694 H 0.00302 0.32499 0.43728 0.0
C695 C 0.9256 0.28456 0.47876 0.0
C696 C 0.45268 -0.00732 0.08528 0.0
C697 C 0.45186 0.02397 0.0766 0.0
H698 H 0.4853 0.96872 0.09318 0.0
C699 C 0.48364 0.05444 0.06632 0.0
H700 H 0.42858 0.96873 0.0932 0.0
C701 C 0.51591 0.05443 0.0663 0.0
C702 C 0.51723 0.02396 0.07657 0.0
H703 H 0.48386 0.07885 0.05919 0.0
H704 H 0.54009 0.07884 0.05917 0.0
C705 C 0.48514 -0.00733 0.08526 0.0
C706 C 0.47157 0.50122 0.58511 0.0
C707 C 0.47353 0.53361 0.57551 0.0
H708 H 0.4375 0.44427 0.59394 0.0
C709 C 0.44239 0.53231 0.5644 0.0
H710 H 0.49517 0.50138 0.5937 0.0
C711 C 0.40959 0.49984 0.56454 0.0
C712 C 0.4071 0.46784 0.57581 0.0
H713 H 0.44306 0.55671 0.55653 0.0
H714 H 0.38592 0.50013 0.55678 0.0
C715 C 0.43858 0.46856 0.58526 0.0
C716 C 0.88937 0.4274 0.06462 0.0
C717 C 0.91922 0.42603 0.07558 0.0
H718 H 0.86517 0.4597 0.05712 0.0
C719 C 0.94976 0.45841 0.08506 0.0
H720 H 0.86555 0.40301 0.05686 0.0
C721 C 0.94954 0.49114 0.08521 0.0
C722 C 0.91877 0.49193 0.07589 0.0
H723 H -0.02678 0.4582 0.09353 0.0
H724 H -0.02716 0.51542 0.09377 0.0
C725 C 0.88914 0.45993 0.06477 0.0
C726 C 0.40861 0.90456 0.56648 0.0
C727 C 0.40735 0.93511 0.57664 0.0
H728 H 0.44062 0.88008 0.55941 0.0
C729 C 0.43949 0.96644 0.5852 0.0
H730 H 0.3844 0.88011 0.55945 0.0
C731 C 0.47194 0.96642 0.58518 0.0
C732 C 0.47271 0.93507 0.57659 0.0
H733 H 0.43937 -0.00955 0.59303 0.0
H734 H 0.49608 -0.00959 0.59299 0.0
C735 C 0.44088 0.90455 0.56645 0.0
C736 C 0.48671 0.49118 0.08521 0.0
C737 C 0.51825 0.49195 0.0759 0.0
H738 H 0.4301 0.45827 0.09352 0.0
C739 C 0.51588 0.45994 0.06479 0.0
H740 H 0.48769 0.51547 0.09376 0.0
C741 C 0.48313 0.42742 0.06464 0.0
C742 C 0.45192 0.42607 0.0756 0.0
H743 H 0.53961 0.45969 0.05714 0.0
H744 H 0.48255 0.40302 0.0569 0.0
C745 C 0.45376 0.45846 0.08506 0.0
C746 C -0.02481 0.46875 0.58524 0.0
C747 C 0.00596 0.46804 0.57581 0.0
H748 H 0.9514 0.50157 0.59368 0.0
C749 C 0.03547 0.50005 0.5646 0.0
H750 H 0.95197 0.44445 0.59388 0.0
C751 C 0.03514 0.53253 0.56447 0.0
C752 C 0.00529 0.53382 0.57556 0.0
H753 H 0.05944 0.50034 0.55685 0.0
H754 H 0.05888 0.55694 0.55665 0.0
C755 C -0.02514 0.50142 0.58511 0.0
C756 C 0.94964 0.49131 0.38043 0.0
C757 C 0.91888 0.4921 0.38975 0.0
H758 H -0.02668 0.45838 0.37209 0.0
C759 C 0.88925 0.46011 0.40086 0.0
H760 H -0.02706 0.5156 0.37188 0.0
C761 C 0.88948 0.42757 0.40099 0.0
C762 C 0.91933 0.42621 0.39003 0.0
H763 H 0.86528 0.45987 0.40852 0.0
H764 H 0.86567 0.40318 0.40874 0.0
C765 C 0.94986 0.45858 0.38057 0.0
C766 C 0.44077 0.90425 0.89949 0.0
C767 C 0.47259 0.9348 0.88939 0.0
H768 H 0.38428 0.8798 0.9065 0.0
C769 C 0.47181 0.96616 0.88088 0.0
H770 H 0.44051 0.87977 0.90648 0.0
C771 C 0.43936 0.96617 0.88089 0.0
C772 C 0.40723 0.93483 0.88941 0.0
H773 H 0.49595 -0.00983 0.8731 0.0
H774 H 0.43923 -0.00981 0.87312 0.0
C775 C 0.4085 0.90427 0.8995 0.0
C776 C 0.45385 0.45866 0.38059 0.0
C777 C 0.45201 0.42629 0.39007 0.0
H778 H 0.48778 0.51567 0.37186 0.0
C779 C 0.48323 0.42765 0.40104 0.0
H780 H 0.43019 0.45847 0.37212 0.0
C781 C 0.51598 0.46017 0.40088 0.0
C782 C 0.51835 0.49216 0.38975 0.0
H783 H 0.48265 0.40326 0.4088 0.0
H784 H 0.53971 0.45993 0.40853 0.0
C785 C 0.4868 0.49138 0.38044 0.0
C786 C 0.03528 0.49983 0.90114 0.0
C787 C 0.00579 0.46782 0.8899 0.0
H788 H 0.05868 0.55672 0.9091 0.0
C789 C -0.02497 0.46853 0.88042 0.0
H790 H 0.05924 0.50013 0.90893 0.0
C791 C -0.0253 0.5012 0.88053 0.0
C792 C 0.00512 0.53361 0.89012 0.0
H793 H 0.95182 0.44423 0.87175 0.0
H794 H 0.95126 0.50135 0.87192 0.0
C795 C 0.03496 0.53231 0.90125 0.0
C796 C 0.48527 -0.00711 0.38081 0.0
C797 C 0.51738 0.02419 0.38948 0.0
H798 H 0.42869 0.96894 0.37293 0.0
C799 C 0.51608 0.05467 0.39975 0.0
H800 H 0.48541 0.96893 0.3729 0.0
C801 C 0.4838 0.05468 0.39977 0.0
C802 C 0.45201 0.0242 0.38952 0.0
H803 H 0.54027 0.07909 0.40687 0.0
H804 H 0.48404 0.07911 0.4069 0.0
C805 C 0.45281 -0.0071 0.38084 0.0
C806 C 0.44236 0.53217 0.90127 0.0
C807 C 0.47347 0.53345 0.89013 0.0
H808 H 0.3859 0.5 0.90896 0.0
C809 C 0.4715 0.50104 0.88053 0.0
H810 H 0.44305 0.55658 0.90913 0.0
C811 C 0.4385 0.46837 0.88042 0.0
C812 C 0.40704 0.46768 0.88991 0.0
H813 H 0.49507 0.50118 0.87192 0.0
H814 H 0.4374 0.44407 0.87175 0.0
C815 C 0.40956 0.49969 0.90117 0.0
loop_
_geom_bond_atom_site_label_1
_geom_bond_atom_site_label_2
_geom_bond_distance
_geom_bond_site_symmetry_2
_ccdc_geom_bond_type
C0 O1 1.306 . S
C0 O3 1.160 . S
O1 C0 1.306 . S
O1 Cd2 2.228 . S
Cd2 O1 2.228 . S
Cd2 O6 2.273 . S
Cd2 O10 2.277 . S
O3 C0 1.160 . S
O3 Cd4 2.203 . S
Cd4 O3 2.203 . S
Cd4 O6 2.411 . S
Cd4 O7 2.333 . S
Cd4 O8 2.352 . S
Cd4 O12 2.277 . S
Cd4 O13 2.356 1_545 S
C5 O10 1.209 . S
C5 O12 1.226 . S
O6 Cd2 2.273 . S
O6 Cd4 2.411 . S
O6 C9 1.320 . S
O7 Cd4 2.333 . S
O7 C9 1.214 . S
O8 Cd4 2.352 . S
O8 C11 1.258 . S
C9 O6 1.320 . S
C9 O7 1.214 . S
O10 Cd2 2.277 . S
O10 C5 1.209 . S
C11 O8 1.258 . S
C11 O13 1.282 1_545 S
O12 Cd4 2.277 . S
O12 C5 1.226 . S
O13 Cd4 2.356 1_565 S
O13 C11 1.282 1_565 S
C14 O15 1.306 . S
C14 O17 1.160 . S
O15 C14 1.306 . S
O15 Cd16 2.228 . S
Cd16 O15 2.228 . S
Cd16 O20 2.273 . S
Cd16 O24 2.277 . S
O17 C14 1.160 . S
O17 Cd18 2.203 . S
Cd18 O17 2.203 . S
Cd18 O20 2.411 . S
Cd18 O21 2.333 . S
Cd18 O22 2.352 . S
Cd18 O26 2.277 . S
Cd18 O27 2.356 . S
C19 O24 1.209 . S
C19 O26 1.226 . S
O20 Cd16 2.273 . S
O20 Cd18 2.411 . S
O20 C23 1.320 . S
O21 Cd18 2.333 . S
O21 C23 1.214 . S
O22 Cd18 2.352 . S
O22 C25 1.258 . S
C23 O20 1.320 . S
C23 O21 1.214 . S
O24 Cd16 2.277 . S
O24 C19 1.209 . S
C25 O22 1.258 . S
C25 O27 1.282 . S
O26 Cd18 2.277 . S
O26 C19 1.226 . S
O27 Cd18 2.356 . S
O27 C25 1.282 . S
C28 O29 1.306 . S
C28 O31 1.160 . S
O29 C28 1.306 . S
O29 Cd30 2.228 . S
Cd30 O29 2.228 . S
Cd30 O34 2.273 . S
Cd30 O38 2.277 . S
O31 C28 1.160 . S
O31 Cd32 2.203 . S
Cd32 O31 2.203 . S
Cd32 O34 2.411 . S
Cd32 O35 2.333 . S
Cd32 O36 2.352 . S
Cd32 O40 2.277 . S
Cd32 O41 2.356 1_655 S
C33 O38 1.209 . S
C33 O40 1.226 . S
O34 Cd30 2.273 . S
O34 Cd32 2.411 . S
O34 C37 1.320 . S
O35 Cd32 2.333 . S
O35 C37 1.214 . S
O36 Cd32 2.352 . S
O36 C39 1.258 . S
C37 O34 1.320 . S
C37 O35 1.214 . S
O38 Cd30 2.277 . S
O38 C33 1.209 . S
C39 O36 1.258 . S
C39 O41 1.282 1_655 S
O40 Cd32 2.277 . S
O40 C33 1.226 . S
O41 Cd32 2.356 1_455 S
O41 C39 1.282 1_455 S
C42 O43 1.306 . S
C42 O45 1.160 . S
O43 C42 1.306 . S
O43 Cd44 2.228 . S
Cd44 O43 2.228 . S
Cd44 O48 2.273 . S
Cd44 O52 2.277 . S
O45 C42 1.160 . S
O45 Cd46 2.203 . S
Cd46 O45 2.203 . S
Cd46 O48 2.411 . S
Cd46 O49 2.333 . S
Cd46 O50 2.352 . S
Cd46 O54 2.277 . S
Cd46 O55 2.356 1_565 S
C47 O52 1.209 . S
C47 O54 1.226 . S
O48 Cd44 2.273 . S
O48 Cd46 2.411 . S
O48 C51 1.320 . S
O49 Cd46 2.333 . S
O49 C51 1.214 . S
O50 Cd46 2.352 . S
O50 C53 1.258 . S
C51 O48 1.320 . S
C51 O49 1.214 . S
O52 Cd44 2.277 . S
O52 C47 1.209 . S
C53 O50 1.258 . S
C53 O55 1.282 1_565 S
O54 Cd46 2.277 . S
O54 C47 1.226 . S
O55 Cd46 2.356 1_545 S
O55 C53 1.282 1_545 S
C56 O57 1.306 . S
C56 O59 1.160 . S
O57 C56 1.306 . S
O57 Cd58 2.228 . S
Cd58 O57 2.228 . S
Cd58 O62 2.273 . S
Cd58 O66 2.277 . S
O59 C56 1.160 . S
O59 Cd60 2.203 . S
Cd60 O59 2.203 . S
Cd60 O62 2.411 . S
Cd60 O63 2.333 . S
Cd60 O64 2.352 . S
Cd60 O68 2.277 . S
Cd60 O69 2.356 . S
C61 O66 1.209 . S
C61 O68 1.226 . S
O62 Cd58 2.273 . S
O62 Cd60 2.411 . S
O62 C65 1.320 . S
O63 Cd60 2.333 . S
O63 C65 1.214 . S
O64 Cd60 2.352 . S
O64 C67 1.258 . S
C65 O62 1.320 . S
C65 O63 1.214 . S
O66 Cd58 2.277 . S
O66 C61 1.209 . S
C67 O64 1.258 . S
C67 O69 1.282 . S
O68 Cd60 2.277 . S
O68 C61 1.226 . S
O69 Cd60 2.356 . S
O69 C67 1.282 . S
C70 O71 1.306 . S
C70 O73 1.160 . S
O71 C70 1.306 . S
O71 Cd72 2.228 . S
Cd72 O71 2.228 . S
Cd72 O76 2.273 . S
Cd72 O80 2.277 . S
O73 C70 1.160 . S
O73 Cd74 2.203 . S
Cd74 O73 2.203 . S
Cd74 O76 2.411 . S
Cd74 O77 2.333 . S
Cd74 O78 2.352 . S
Cd74 O82 2.277 . S
Cd74 O83 2.356 1_455 S
C75 O80 1.209 . S
C75 O82 1.226 . S
O76 Cd72 2.273 . S
O76 Cd74 2.411 . S
O76 C79 1.320 . S
O77 Cd74 2.333 . S
O77 C79 1.214 . S
O78 Cd74 2.352 . S
O78 C81 1.258 . S
C79 O76 1.320 . S
C79 O77 1.214 . S
O80 Cd72 2.277 . S
O80 C75 1.209 . S
C81 O78 1.258 . S
C81 O83 1.282 1_455 S
O82 Cd74 2.277 . S
O82 C75 1.226 . S
O83 Cd74 2.356 1_655 S
O83 C81 1.282 1_655 S
C84 O85 1.306 . S
C84 O87 1.160 . S
O85 C84 1.306 . S
O85 Cd86 2.228 . S
Cd86 O85 2.228 . S
Cd86 O90 2.273 . S
Cd86 O94 2.277 . S
O87 C84 1.160 . S
O87 Cd88 2.203 . S
Cd88 O87 2.203 . S
Cd88 O90 2.411 . S
Cd88 O91 2.333 . S
Cd88 O92 2.352 . S
Cd88 O96 2.277 . S
Cd88 O97 2.356 1_655 S
C89 O94 1.209 . S
C89 O96 1.226 . S
O90 Cd86 2.273 . S
O90 Cd88 2.411 . S
O90 C93 1.320 . S
O91 Cd88 2.333 . S
O91 C93 1.214 . S
O92 Cd88 2.352 . S
O92 C95 1.258 . S
C93 O90 1.320 . S
C93 O91 1.214 . S
O94 Cd86 2.277 . S
O94 C89 1.209 . S
C95 O92 1.258 . S
C95 O97 1.282 1_655 S
O96 Cd88 2.277 . S
O96 C89 1.226 . S
O97 Cd88 2.356 1_455 S
O97 C95 1.282 1_455 S
C98 O99 1.306 . S
C98 O101 1.160 . S
O99 C98 1.306 . S
O99 Cd100 2.228 . S
Cd100 O99 2.228 . S
Cd100 O104 2.273 . S
Cd100 O108 2.277 . S
O101 C98 1.160 . S
O101 Cd102 2.203 . S
Cd102 O101 2.203 . S
Cd102 O104 2.411 . S
Cd102 O105 2.333 . S
Cd102 O106 2.352 . S
Cd102 O110 2.277 . S
Cd102 O111 2.356 1_565 S
C103 O108 1.209 . S
C103 O110 1.226 . S
O104 Cd100 2.273 . S
O104 Cd102 2.411 . S
O104 C107 1.320 . S
O105 Cd102 2.333 . S
O105 C107 1.214 . S
O106 Cd102 2.352 . S
O106 C109 1.258 . S
C107 O104 1.320 . S
C107 O105 1.214 . S
O108 Cd100 2.277 . S
O108 C103 1.209 . S
C109 O106 1.258 . S
C109 O111 1.282 1_565 S
O110 Cd102 2.277 . S
O110 C103 1.226 . S
O111 Cd102 2.356 1_545 S
O111 C109 1.282 1_545 S
C112 O113 1.306 . S
C112 O115 1.160 . S
O113 C112 1.306 . S
O113 Cd114 2.228 . S
Cd114 O113 2.228 . S
Cd114 O118 2.273 . S
Cd114 O122 2.277 . S
O115 C112 1.160 . S
O115 Cd116 2.203 . S
Cd116 O115 2.203 . S
Cd116 O118 2.411 . S
Cd116 O119 2.333 . S
Cd116 O120 2.352 . S
Cd116 O124 2.277 . S
Cd116 O125 2.356 . S
C117 O122 1.209 . S
C117 O124 1.226 . S
O118 Cd114 2.273 . S
O118 Cd116 2.411 . S
O118 C121 1.320 . S
O119 Cd116 2.333 . S
O119 C121 1.214 . S
O120 Cd116 2.352 . S
O120 C123 1.258 . S
C121 O118 1.320 . S
C121 O119 1.214 . S
O122 Cd114 2.277 . S
O122 C117 1.209 . S
C123 O120 1.258 . S
C123 O125 1.282 . S
O124 Cd116 2.277 . S
O124 C117 1.226 . S
O125 Cd116 2.356 . S
O125 C123 1.282 . S
C126 O127 1.306 . S
C126 O129 1.160 . S
O127 C126 1.306 . S
O127 Cd128 2.228 . S
Cd128 O127 2.228 . S
Cd128 O132 2.273 . S
Cd128 O136 2.277 . S
O129 C126 1.160 . S
O129 Cd130 2.203 . S
Cd130 O129 2.203 . S
Cd130 O132 2.411 . S
Cd130 O133 2.333 . S
Cd130 O134 2.352 . S
Cd130 O138 2.277 . S
Cd130 O139 2.356 1_455 S
C131 O136 1.209 . S
C131 O138 1.226 . S
O132 Cd128 2.273 . S
O132 Cd130 2.411 . S
O132 C135 1.320 . S
O133 Cd130 2.333 . S
O133 C135 1.214 . S
O134 Cd130 2.352 . S
O134 C137 1.258 . S
C135 O132 1.320 . S
C135 O133 1.214 . S
O136 Cd128 2.277 . S
O136 C131 1.209 . S
C137 O134 1.258 . S
C137 O139 1.282 1_455 S
O138 Cd130 2.277 . S
O138 C131 1.226 . S
O139 Cd130 2.356 1_655 S
O139 C137 1.282 1_655 S
C140 O141 1.306 . S
C140 O143 1.160 . S
O141 C140 1.306 . S
O141 Cd142 2.228 . S
Cd142 O141 2.228 . S
Cd142 O146 2.273 . S
Cd142 O150 2.277 . S
O143 C140 1.160 . S
O143 Cd144 2.203 . S
Cd144 O143 2.203 . S
Cd144 O146 2.411 . S
Cd144 O147 2.333 . S
Cd144 O148 2.352 . S
Cd144 O152 2.277 . S
Cd144 O153 2.356 1_545 S
C145 O150 1.209 . S
C145 O152 1.226 . S
O146 Cd142 2.273 . S
O146 Cd144 2.411 . S
O146 C149 1.320 . S
O147 Cd144 2.333 . S
O147 C149 1.214 . S
O148 Cd144 2.352 . S
O148 C151 1.258 . S
C149 O146 1.320 . S
C149 O147 1.214 . S
O150 Cd142 2.277 . S
O150 C145 1.209 . S
C151 O148 1.258 . S
C151 O153 1.282 1_545 S
O152 Cd144 2.277 . S
O152 C145 1.226 . S
O153 Cd144 2.356 1_565 S
O153 C151 1.282 1_565 S
C154 O155 1.306 . S
C154 O157 1.160 . S
O155 C154 1.306 . S
O155 Cd156 2.228 . S
Cd156 O155 2.228 . S
Cd156 O160 2.273 . S
Cd156 O164 2.277 . S
O157 C154 1.160 . S
O157 Cd158 2.203 . S
Cd158 O157 2.203 . S
Cd158 O160 2.411 . S
Cd158 O161 2.333 . S
Cd158 O162 2.352 . S
Cd158 O166 2.277 . S
Cd158 O167 2.356 . S
C159 O164 1.209 . S
C159 O166 1.226 . S
O160 Cd156 2.273 . S
O160 Cd158 2.411 . S
O160 C163 1.320 . S
O161 Cd158 2.333 . S
O161 C163 1.214 . S
O162 Cd158 2.352 . S
O162 C165 1.258 . S
C163 O160 1.320 . S
C163 O161 1.214 . S
O164 Cd156 2.277 . S
O164 C159 1.209 . S
C165 O162 1.258 . S
C165 O167 1.282 . S
O166 Cd158 2.277 . S
O166 C159 1.226 . S
O167 Cd158 2.356 . S
O167 C165 1.282 . S
C168 O169 1.306 . S
C168 O171 1.160 . S
O169 C168 1.306 . S
O169 Cd170 2.228 . S
Cd170 O169 2.228 . S
Cd170 O174 2.273 . S
Cd170 O178 2.277 . S
O171 C168 1.160 . S
O171 Cd172 2.203 . S
Cd172 O171 2.203 . S
Cd172 O174 2.411 . S
Cd172 O175 2.333 . S
Cd172 O176 2.352 . S
Cd172 O180 2.277 . S
Cd172 O181 2.356 1_565 S
C173 O178 1.209 . S
C173 O180 1.226 . S
O174 Cd170 2.273 . S
O174 Cd172 2.411 . S
O174 C177 1.320 . S
O175 Cd172 2.333 . S
O175 C177 1.214 . S
O176 Cd172 2.352 . S
O176 C179 1.258 . S
C177 O174 1.320 . S
C177 O175 1.214 . S
O178 Cd170 2.277 . S
O178 C173 1.209 . S
C179 O176 1.258 . S
C179 O181 1.282 1_565 S
O180 Cd172 2.277 . S
O180 C173 1.226 . S
O181 Cd172 2.356 1_545 S
O181 C179 1.282 1_545 S
C182 O183 1.306 . S
C182 O185 1.160 . S
O183 C182 1.306 . S
O183 Cd184 2.228 . S
Cd184 O183 2.228 . S
Cd184 O188 2.273 . S
Cd184 O192 2.277 . S
O185 C182 1.160 . S
O185 Cd186 2.203 . S
Cd186 O185 2.203 . S
Cd186 O188 2.411 . S
Cd186 O189 2.333 . S
Cd186 O190 2.352 . S
Cd186 O194 2.277 . S
Cd186 O195 2.356 . S
C187 O192 1.209 . S
C187 O194 1.226 . S
O188 Cd184 2.273 . S
O188 Cd186 2.411 . S
O188 C191 1.320 . S
O189 Cd186 2.333 . S
O189 C191 1.214 . S
O190 Cd186 2.352 . S
O190 C193 1.258 . S
C191 O188 1.320 . S
C191 O189 1.214 . S
O192 Cd184 2.277 . S
O192 C187 1.209 . S
C193 O190 1.258 . S
C193 O195 1.282 . S
O194 Cd186 2.277 . S
O194 C187 1.226 . S
O195 Cd186 2.356 . S
O195 C193 1.282 . S
C196 O197 1.306 . S
C196 O199 1.160 . S
O197 C196 1.306 . S
O197 Cd198 2.228 . S
Cd198 O197 2.228 . S
Cd198 O202 2.273 . S
Cd198 O206 2.277 . S
O199 C196 1.160 . S
O199 Cd200 2.203 . S
Cd200 O199 2.203 . S
Cd200 O202 2.411 . S
Cd200 O203 2.333 . S
Cd200 O204 2.352 . S
Cd200 O208 2.277 . S
Cd200 O209 2.356 1_455 S
C201 O206 1.209 . S
C201 O208 1.226 . S
O202 Cd198 2.273 . S
O202 Cd200 2.411 . S
O202 C205 1.320 . S
O203 Cd200 2.333 . S
O203 C205 1.214 . S
O204 Cd200 2.352 . S
O204 C207 1.258 . S
C205 O202 1.320 . S
C205 O203 1.214 . S
O206 Cd198 2.277 . S
O206 C201 1.209 . S
C207 O204 1.258 . S
C207 O209 1.282 1_455 S
O208 Cd200 2.277 . S
O208 C201 1.226 . S
O209 Cd200 2.356 1_655 S
O209 C207 1.282 1_655 S
C210 O211 1.306 . S
C210 O213 1.160 . S
O211 C210 1.306 . S
O211 Cd212 2.228 . S
Cd212 O211 2.228 . S
Cd212 O216 2.273 . S
Cd212 O220 2.277 . S
O213 C210 1.160 . S
O213 Cd214 2.203 . S
Cd214 O213 2.203 . S
Cd214 O216 2.411 . S
Cd214 O217 2.333 . S
Cd214 O218 2.352 . S
Cd214 O222 2.277 . S
Cd214 O223 2.356 1_545 S
C215 O220 1.209 . S
C215 O222 1.226 . S
O216 Cd212 2.273 . S
O216 Cd214 2.411 . S
O216 C219 1.320 . S
O217 Cd214 2.333 . S
O217 C219 1.214 . S
O218 Cd214 2.352 . S
O218 C221 1.258 . S
C219 O216 1.320 . S
C219 O217 1.214 . S
O220 Cd212 2.277 . S
O220 C215 1.209 . S
C221 O218 1.258 . S
C221 O223 1.282 1_545 S
O222 Cd214 2.277 . S
O222 C215 1.226 . S
O223 Cd214 2.356 1_565 S
O223 C221 1.282 1_565 S
C224 O225 1.306 . S
C224 O227 1.160 . S
O225 C224 1.306 . S
O225 Cd226 2.228 . S
Cd226 O225 2.228 . S
Cd226 O230 2.273 . S
Cd226 O234 2.277 . S
O227 C224 1.160 . S
O227 Cd228 2.203 . S
Cd228 O227 2.203 . S
Cd228 O230 2.411 . S
Cd228 O231 2.333 . S
Cd228 O232 2.352 . S
Cd228 O236 2.277 . S
Cd228 O237 2.356 . S
C229 O234 1.209 . S
C229 O236 1.226 . S
O230 Cd226 2.273 . S
O230 Cd228 2.411 . S
O230 C233 1.320 . S
O231 Cd228 2.333 . S
O231 C233 1.214 . S
O232 Cd228 2.352 . S
O232 C235 1.258 . S
C233 O230 1.320 . S
C233 O231 1.214 . S
O234 Cd226 2.277 . S
O234 C229 1.209 . S
C235 O232 1.258 . S
C235 O237 1.282 . S
O236 Cd228 2.277 . S
O236 C229 1.226 . S
O237 Cd228 2.356 . S
O237 C235 1.282 . S
C238 O239 1.306 . S
C238 O241 1.160 . S
O239 C238 1.306 . S
O239 Cd240 2.228 . S
Cd240 O239 2.228 . S
Cd240 O244 2.273 . S
Cd240 O248 2.277 . S
O241 C238 1.160 . S
O241 Cd242 2.203 . S
Cd242 O241 2.203 . S
Cd242 O244 2.411 . S
Cd242 O245 2.333 . S
Cd242 O246 2.352 . S
Cd242 O250 2.277 . S
Cd242 O251 2.356 1_655 S
C243 O248 1.209 . S
C243 O250 1.226 . S
O244 Cd240 2.273 . S
O244 Cd242 2.411 . S
O244 C247 1.320 . S
O245 Cd242 2.333 . S
O245 C247 1.214 . S
O246 Cd242 2.352 . S
O246 C249 1.258 . S
C247 O244 1.320 . S
C247 O245 1.214 . S
O248 Cd240 2.277 . S
O248 C243 1.209 . S
C249 O246 1.258 . S
C249 O251 1.282 1_655 S
O250 Cd242 2.277 . S
O250 C243 1.226 . S
O251 Cd242 2.356 1_455 S
O251 C249 1.282 1_455 S
C252 O253 1.306 . S
C252 O255 1.160 . S
O253 C252 1.306 . S
O253 Cd254 2.228 . S
Cd254 O253 2.228 . S
Cd254 O258 2.273 . S
Cd254 O262 2.277 . S
O255 C252 1.160 . S
O255 Cd256 2.203 . S
Cd256 O255 2.203 . S
Cd256 O258 2.411 . S
Cd256 O259 2.333 . S
Cd256 O260 2.352 . S
Cd256 O264 2.277 . S
Cd256 O265 2.356 1_455 S
C257 O262 1.209 . S
C257 O264 1.226 . S
O258 Cd254 2.273 . S
O258 Cd256 2.411 . S
O258 C261 1.320 . S
O259 Cd256 2.333 . S
O259 C261 1.214 . S
O260 Cd256 2.352 . S
O260 C263 1.258 . S
C261 O258 1.320 . S
C261 O259 1.214 . S
O262 Cd254 2.277 . S
O262 C257 1.209 . S
C263 O260 1.258 . S
C263 O265 1.282 1_455 S
O264 Cd256 2.277 . S
O264 C257 1.226 . S
O265 Cd256 2.356 1_655 S
O265 C263 1.282 1_655 S
C266 O267 1.306 . S
C266 O269 1.160 . S
O267 C266 1.306 . S
O267 Cd268 2.228 . S
Cd268 O267 2.228 . S
Cd268 O272 2.273 . S
Cd268 O276 2.277 . S
O269 C266 1.160 . S
O269 Cd270 2.203 . S
Cd270 O269 2.203 . S
Cd270 O272 2.411 . S
Cd270 O273 2.333 . S
Cd270 O274 2.352 . S
Cd270 O278 2.277 . S
Cd270 O279 2.356 1_545 S
C271 O276 1.209 . S
C271 O278 1.226 . S
O272 Cd268 2.273 . S
O272 Cd270 2.411 . S
O272 C275 1.320 . S
O273 Cd270 2.333 . S
O273 C275 1.214 . S
O274 Cd270 2.352 . S
O274 C277 1.258 . S
C275 O272 1.320 . S
C275 O273 1.214 . S
O276 Cd268 2.277 . S
O276 C271 1.209 . S
C277 O274 1.258 . S
C277 O279 1.282 1_545 S
O278 Cd270 2.277 . S
O278 C271 1.226 . S
O279 Cd270 2.356 1_565 S
O279 C277 1.282 1_565 S
C280 O281 1.306 . S
C280 O283 1.160 . S
O281 C280 1.306 . S
O281 Cd282 2.228 . S
Cd282 O281 2.228 . S
Cd282 O286 2.273 . S
Cd282 O290 2.277 . S
O283 C280 1.160 . S
O283 Cd284 2.203 . S
Cd284 O283 2.203 . S
Cd284 O286 2.411 . S
Cd284 O287 2.333 . S
Cd284 O288 2.352 . S
Cd284 O292 2.277 . S
Cd284 O293 2.356 . S
C285 O290 1.209 . S
C285 O292 1.226 . S
O286 Cd282 2.273 . S
O286 Cd284 2.411 . S
O286 C289 1.320 . S
O287 Cd284 2.333 . S
O287 C289 1.214 . S
O288 Cd284 2.352 . S
O288 C291 1.258 . S
C289 O286 1.320 . S
C289 O287 1.214 . S
O290 Cd282 2.277 . S
O290 C285 1.209 . S
C291 O288 1.258 . S
C291 O293 1.282 . S
O292 Cd284 2.277 . S
O292 C285 1.226 . S
O293 Cd284 2.356 . S
O293 C291 1.282 . S
C294 O295 1.306 . S
C294 O297 1.160 . S
O295 C294 1.306 . S
O295 Cd296 2.228 . S
Cd296 O295 2.228 . S
Cd296 O300 2.273 . S
Cd296 O304 2.277 . S
O297 C294 1.160 . S
O297 Cd298 2.203 . S
Cd298 O297 2.203 . S
Cd298 O300 2.411 . S
Cd298 O301 2.333 . S
Cd298 O302 2.352 . S
Cd298 O306 2.277 . S
Cd298 O307 2.356 1_655 S
C299 O304 1.209 . S
C299 O306 1.226 . S
O300 Cd296 2.273 . S
O300 Cd298 2.411 . S
O300 C303 1.320 . S
O301 Cd298 2.333 . S
O301 C303 1.214 . S
O302 Cd298 2.352 . S
O302 C305 1.258 . S
C303 O300 1.320 . S
C303 O301 1.214 . S
O304 Cd296 2.277 . S
O304 C299 1.209 . S
C305 O302 1.258 . S
C305 O307 1.282 1_655 S
O306 Cd298 2.277 . S
O306 C299 1.226 . S
O307 Cd298 2.356 1_455 S
O307 C305 1.282 1_455 S
C308 O309 1.306 . S
C308 O311 1.160 . S
O309 C308 1.306 . S
O309 Cd310 2.228 . S
Cd310 O309 2.228 . S
Cd310 O314 2.273 . S
Cd310 O318 2.277 . S
O311 C308 1.160 . S
O311 Cd312 2.203 . S
Cd312 O311 2.203 . S
Cd312 O314 2.411 . S
Cd312 O315 2.333 . S
Cd312 O316 2.352 . S
Cd312 O320 2.277 . S
Cd312 O321 2.356 1_565 S
C313 O318 1.209 . S
C313 O320 1.226 . S
O314 Cd310 2.273 . S
O314 Cd312 2.411 . S
O314 C317 1.320 . S
O315 Cd312 2.333 . S
O315 C317 1.214 . S
O316 Cd312 2.352 . S
O316 C319 1.258 . S
C317 O314 1.320 . S
C317 O315 1.214 . S
O318 Cd310 2.277 . S
O318 C313 1.209 . S
C319 O316 1.258 . S
C319 O321 1.282 1_565 S
O320 Cd312 2.277 . S
O320 C313 1.226 . S
O321 Cd312 2.356 1_545 S
O321 C319 1.282 1_545 S
C322 O323 1.306 . S
C322 O325 1.160 . S
O323 C322 1.306 . S
O323 Cd324 2.228 . S
Cd324 O323 2.228 . S
Cd324 O328 2.273 . S
Cd324 O332 2.277 . S
O325 C322 1.160 . S
O325 Cd326 2.203 . S
Cd326 O325 2.203 . S
Cd326 O328 2.411 . S
Cd326 O329 2.333 . S
Cd326 O330 2.352 . S
Cd326 O334 2.277 . S
Cd326 O335 2.356 . S
C327 O332 1.209 . S
C327 O334 1.226 . S
O328 Cd324 2.273 . S
O328 Cd326 2.411 . S
O328 C331 1.320 . S
O329 Cd326 2.333 . S
O329 C331 1.214 . S
O330 Cd326 2.352 . S
O330 C333 1.258 . S
C331 O328 1.320 . S
C331 O329 1.214 . S
O332 Cd324 2.277 . S
O332 C327 1.209 . S
C333 O330 1.258 . S
C333 O335 1.282 . S
O334 Cd326 2.277 . S
O334 C327 1.226 . S
O335 Cd326 2.356 . S
O335 C333 1.282 . S
C336 C337 1.387 . S
C336 H340 0.950 1_545 S
C336 C345 1.390 . S
C337 C336 1.387 . S
C337 C339 1.387 . S
H338 C345 0.950 1_565 S
C339 C337 1.387 . S
C339 C341 1.390 . S
C339 H343 0.950 . S
H340 C336 0.950 1_565 S
C341 C339 1.390 . S
C341 C342 1.387 . S
C341 H344 0.950 . S
C342 C341 1.387 . S
C342 C345 1.387 . S
H343 C339 0.950 . S
H344 C341 0.950 . S
C345 C336 1.390 . S
C345 H338 0.950 1_545 S
C345 C342 1.387 . S
C346 C347 1.387 . S
C346 H350 0.950 . S
C346 C355 1.390 . S
C347 C346 1.387 . S
C347 C349 1.387 . S
H348 C355 0.950 . S
C349 C347 1.387 . S
C349 C351 1.390 . S
C349 H353 0.950 . S
H350 C346 0.950 . S
C351 C349 1.390 . S
C351 C352 1.387 . S
C351 H354 0.950 . S
C352 C351 1.387 . S
C352 C355 1.387 . S
H353 C349 0.950 . S
H354 C351 0.950 . S
C355 C346 1.390 . S
C355 H348 0.950 . S
C355 C352 1.387 . S
C356 C357 1.387 . S
C356 H360 0.950 . S
C356 C365 1.390 . S
C357 C356 1.387 . S
C357 C359 1.387 . S
H358 C365 0.950 . S
C359 C357 1.387 . S
C359 C361 1.390 . S
C359 H363 0.950 . S
H360 C356 0.950 . S
C361 C359 1.390 . S
C361 C362 1.387 . S
C361 H364 0.950 . S
C362 C361 1.387 . S
C362 C365 1.387 . S
H363 C359 0.950 . S
H364 C361 0.950 . S
C365 C356 1.390 . S
C365 H358 0.950 . S
C365 C362 1.387 . S
C366 C367 1.387 . S
C366 H370 0.950 . S
C366 C375 1.390 . S
C367 C366 1.387 . S
C367 C369 1.387 . S
H368 C375 0.950 . S
C369 C367 1.387 . S
C369 C371 1.390 . S
C369 H373 0.950 1_565 S
H370 C366 0.950 . S
C371 C369 1.390 . S
C371 C372 1.387 . S
C371 H374 0.950 1_565 S
C372 C371 1.387 . S
C372 C375 1.387 . S
H373 C369 0.950 1_545 S
H374 C371 0.950 1_545 S
C375 C366 1.390 . S
C375 H368 0.950 . S
C375 C372 1.387 . S
C376 C377 1.387 . S
C376 H380 0.950 . S
C376 C385 1.390 . S
C377 C376 1.387 . S
C377 C379 1.387 . S
H378 C385 0.950 . S
C379 C377 1.387 . S
C379 C381 1.390 . S
C379 H383 0.950 . S
H380 C376 0.950 . S
C381 C379 1.390 . S
C381 C382 1.387 . S
C381 H384 0.950 . S
C382 C381 1.387 . S
C382 C385 1.387 . S
H383 C379 0.950 . S
H384 C381 0.950 . S
C385 C376 1.390 . S
C385 H378 0.950 . S
C385 C382 1.387 . S
C386 C387 1.387 . S
C386 H390 0.950 . S
C386 C395 1.390 . S
C387 C386 1.387 . S
C387 C389 1.387 . S
H388 C395 0.950 . S
C389 C387 1.387 . S
C389 C391 1.390 . S
C389 H393 0.950 . S
H390 C386 0.950 . S
C391 C389 1.390 . S
C391 C392 1.387 . S
C391 H394 0.950 . S
C392 C391 1.387 . S
C392 C395 1.387 . S
H393 C389 0.950 . S
H394 C391 0.950 . S
C395 C386 1.390 . S
C395 H388 0.950 . S
C395 C392 1.387 . S
C396 C397 1.387 . S
C396 H400 0.950 . S
C396 C405 1.390 . S
C397 C396 1.387 . S
C397 C399 1.387 . S
H398 C405 0.950 . S
C399 C397 1.387 . S
C399 C401 1.390 . S
C399 H403 0.950 . S
H400 C396 0.950 . S
C401 C399 1.390 . S
C401 C402 1.387 . S
C401 H404 0.950 . S
C402 C401 1.387 . S
C402 C405 1.387 . S
H403 C399 0.950 . S
H404 C401 0.950 . S
C405 C396 1.390 . S
C405 H398 0.950 . S
C405 C402 1.387 . S
C406 C407 1.387 . S
C406 H410 0.950 1_565 S
C406 C415 1.390 . S
C407 C406 1.387 . S
C407 C409 1.387 . S
H408 C415 0.950 1_545 S
C409 C407 1.387 . S
C409 C411 1.390 . S
C409 H413 0.950 . S
H410 C406 0.950 1_545 S
C411 C409 1.390 . S
C411 C412 1.387 . S
C411 H414 0.950 . S
C412 C411 1.387 . S
C412 C415 1.387 . S
H413 C409 0.950 . S
H414 C411 0.950 . S
C415 C406 1.390 . S
C415 H408 0.950 1_565 S
C415 C412 1.387 . S
C416 C417 1.387 . S
C416 H420 0.950 . S
C416 C425 1.390 . S
C417 C416 1.387 . S
C417 C419 1.387 . S
H418 C425 0.950 . S
C419 C417 1.387 . S
C419 C421 1.390 . S
C419 H423 0.950 . S
H420 C416 0.950 . S
C421 C419 1.390 . S
C421 C422 1.387 . S
C421 H424 0.950 . S
C422 C421 1.387 . S
C422 C425 1.387 . S
H423 C419 0.950 . S
H424 C421 0.950 . S
C425 C416 1.390 . S
C425 H418 0.950 . S
C425 C422 1.387 . S
C426 C427 1.387 . S
C426 H430 0.950 . S
C426 C435 1.390 . S
C427 C426 1.387 . S
C427 C429 1.387 . S
H428 C435 0.950 . S
C429 C427 1.387 . S
C429 C431 1.390 . S
C429 H433 0.950 . S
H430 C426 0.950 . S
C431 C429 1.390 . S
C431 C432 1.387 . S
C431 H434 0.950 . S
C432 C431 1.387 . S
C432 C435 1.387 . S
H433 C429 0.950 . S
H434 C431 0.950 . S
C435 C426 1.390 . S
C435 H428 0.950 . S
C435 C432 1.387 . S
C436 C437 1.387 . S
C436 H440 0.950 1_545 S
C436 C445 1.390 . S
C437 C436 1.387 . S
C437 C439 1.387 . S
H438 C445 0.950 1_565 S
C439 C437 1.387 . S
C439 C441 1.390 . S
C439 H443 0.950 . S
H440 C436 0.950 1_565 S
C441 C439 1.390 . S
C441 C442 1.387 . S
C441 H444 0.950 . S
C442 C441 1.387 . S
C442 C445 1.387 . S
H443 C439 0.950 . S
H444 C441 0.950 . S
C445 C436 1.390 . S
C445 H438 0.950 1_545 S
C445 C442 1.387 . S
C446 C447 1.387 . S
C446 H450 0.950 . S
C446 C455 1.390 . S
C447 C446 1.387 . S
C447 C449 1.387 . S
H448 C455 0.950 . S
C449 C447 1.387 . S
C449 C451 1.390 . S
C449 H453 0.950 . S
H450 C446 0.950 . S
C451 C449 1.390 . S
C451 C452 1.387 . S
C451 H454 0.950 . S
C452 C451 1.387 . S
C452 C455 1.387 . S
H453 C449 0.950 . S
H454 C451 0.950 . S
C455 C446 1.390 . S
C455 H448 0.950 . S
C455 C452 1.387 . S
C456 C457 1.387 . S
C456 H460 0.950 . S
C456 C465 1.390 . S
C457 C456 1.387 . S
C457 C459 1.387 . S
H458 C465 0.950 . S
C459 C457 1.387 . S
C459 C461 1.390 . S
C459 H463 0.950 . S
H460 C456 0.950 . S
C461 C459 1.390 . S
C461 C462 1.387 . S
C461 H464 0.950 . S
C462 C461 1.387 . S
C462 C465 1.387 . S
H463 C459 0.950 . S
H464 C461 0.950 . S
C465 C456 1.390 . S
C465 H458 0.950 . S
C465 C462 1.387 . S
C466 C467 1.387 . S
C466 H470 0.950 . S
C466 C475 1.390 . S
C467 C466 1.387 . S
C467 C469 1.387 . S
H468 C475 0.950 . S
C469 C467 1.387 . S
C469 C471 1.390 . S
C469 H473 0.950 . S
H470 C466 0.950 . S
C471 C469 1.390 . S
C471 C472 1.387 . S
C471 H474 0.950 . S
C472 C471 1.387 . S
C472 C475 1.387 . S
H473 C469 0.950 . S
H474 C471 0.950 . S
C475 C466 1.390 . S
C475 H468 0.950 . S
C475 C472 1.387 . S
C476 C477 1.387 . S
C476 H480 0.950 . S
C476 C485 1.390 . S
C477 C476 1.387 . S
C477 C479 1.387 . S
H478 C485 0.950 . S
C479 C477 1.387 . S
C479 C481 1.390 . S
C479 H483 0.950 . S
H480 C476 0.950 . S
C481 C479 1.390 . S
C481 C482 1.387 . S
C481 H484 0.950 . S
C482 C481 1.387 . S
C482 C485 1.387 . S
H483 C479 0.950 . S
H484 C481 0.950 . S
C485 C476 1.390 . S
C485 H478 0.950 . S
C485 C482 1.387 . S
C486 C487 1.387 . S
C486 H490 0.950 . S
C486 C495 1.390 . S
C487 C486 1.387 . S
C487 C489 1.387 . S
H488 C495 0.950 . S
C489 C487 1.387 . S
C489 C491 1.390 . S
C489 H493 0.950 . S
H490 C486 0.950 . S
C491 C489 1.390 . S
C491 C492 1.387 . S
C491 H494 0.950 . S
C492 C491 1.387 . S
C492 C495 1.387 . S
H493 C489 0.950 . S
H494 C491 0.950 . S
C495 C486 1.390 . S
C495 H488 0.950 . S
C495 C492 1.387 . S
C496 C497 1.387 . S
C496 H500 0.950 . S
C496 C505 1.390 . S
C497 C496 1.387 . S
C497 C499 1.387 . S
H498 C505 0.950 . S
C499 C497 1.387 . S
C499 C501 1.390 . S
C499 H503 0.950 . S
H500 C496 0.950 . S
C501 C499 1.390 . S
C501 C502 1.387 . S
C501 H504 0.950 . S
C502 C501 1.387 . S
C502 C505 1.387 . S
H503 C499 0.950 . S
H504 C501 0.950 . S
C505 C496 1.390 . S
C505 H498 0.950 . S
C505 C502 1.387 . S
C506 C507 1.387 . S
C506 H510 0.950 . S
C506 C515 1.390 . S
C507 C506 1.387 . S
C507 C509 1.387 . S
H508 C515 0.950 . S
C509 C507 1.387 . S
C509 C511 1.390 . S
C509 H513 0.950 . S
H510 C506 0.950 . S
C511 C509 1.390 . S
C511 C512 1.387 . S
C511 H514 0.950 . S
C512 C511 1.387 . S
C512 C515 1.387 . S
H513 C509 0.950 . S
H514 C511 0.950 . S
C515 C506 1.390 . S
C515 H508 0.950 . S
C515 C512 1.387 . S
C516 C517 1.387 . S
C516 H520 0.950 . S
C516 C525 1.390 . S
C517 C516 1.387 . S
C517 C519 1.387 . S
H518 C525 0.950 . S
C519 C517 1.387 . S
C519 C521 1.390 . S
C519 H523 0.950 . S
H520 C516 0.950 . S
C521 C519 1.390 . S
C521 C522 1.387 . S
C521 H524 0.950 . S
C522 C521 1.387 . S
C522 C525 1.387 . S
H523 C519 0.950 . S
H524 C521 0.950 . S
C525 C516 1.390 . S
C525 H518 0.950 . S
C525 C522 1.387 . S
C526 C527 1.387 . S
C526 H530 0.950 . S
C526 C535 1.390 . S
C527 C526 1.387 . S
C527 C529 1.387 . S
H528 C535 0.950 . S
C529 C527 1.387 . S
C529 C531 1.390 . S
C529 H533 0.950 . S
H530 C526 0.950 . S
C531 C529 1.390 . S
C531 C532 1.387 . S
C531 H534 0.950 . S
C532 C531 1.387 . S
C532 C535 1.387 . S
H533 C529 0.950 . S
H534 C531 0.950 . S
C535 C526 1.390 . S
C535 H528 0.950 . S
C535 C532 1.387 . S
C536 C537 1.387 . S
C536 H540 0.950 . S
C536 C545 1.390 . S
C537 C536 1.387 . S
C537 C539 1.387 . S
H538 C545 0.950 . S
C539 C537 1.387 . S
C539 C541 1.390 . S
C539 H543 0.950 . S
H540 C536 0.950 . S
C541 C539 1.390 . S
C541 C542 1.387 . S
C541 H544 0.950 . S
C542 C541 1.387 . S
C542 C545 1.387 . S
H543 C539 0.950 . S
H544 C541 0.950 . S
C545 C536 1.390 . S
C545 H538 0.950 . S
C545 C542 1.387 . S
C546 C547 1.387 . S
C546 H550 0.950 . S
C546 C555 1.390 . S
C547 C546 1.387 . S
C547 C549 1.387 . S
H548 C555 0.950 . S
C549 C547 1.387 . S
C549 C551 1.390 . S
C549 H553 0.950 . S
H550 C546 0.950 . S
C551 C549 1.390 . S
C551 C552 1.387 . S
C551 H554 0.950 . S
C552 C551 1.387 . S
C552 C555 1.387 . S
H553 C549 0.950 . S
H554 C551 0.950 . S
C555 C546 1.390 . S
C555 H548 0.950 . S
C555 C552 1.387 . S
C556 C557 1.387 . S
C556 H560 0.950 . S
C556 C565 1.390 . S
C557 C556 1.387 . S
C557 C559 1.387 . S
H558 C565 0.950 . S
C559 C557 1.387 . S
C559 C561 1.390 . S
C559 H563 0.950 . S
H560 C556 0.950 . S
C561 C559 1.390 . S
C561 C562 1.387 . S
C561 H564 0.950 . S
C562 C561 1.387 . S
C562 C565 1.387 . S
H563 C559 0.950 . S
H564 C561 0.950 . S
C565 C556 1.390 . S
C565 H558 0.950 . S
C565 C562 1.387 . S
C566 C567 1.387 . S
C566 H570 0.950 . S
C566 C575 1.390 . S
C567 C566 1.387 . S
C567 C569 1.387 . S
H568 C575 0.950 . S
C569 C567 1.387 . S
C569 C571 1.390 . S
C569 H573 0.950 . S
H570 C566 0.950 . S
C571 C569 1.390 . S
C571 C572 1.387 . S
C571 H574 0.950 . S
C572 C571 1.387 . S
C572 C575 1.387 . S
H573 C569 0.950 . S
H574 C571 0.950 . S
C575 C566 1.390 . S
C575 H568 0.950 . S
C575 C572 1.387 . S
C576 C577 1.387 . S
C576 H580 0.950 . S
C576 C585 1.390 1_566 S
C577 C576 1.387 . S
C577 C579 1.387 . S
H578 C585 0.950 . S
C579 C577 1.387 . S
C579 C581 1.390 1_566 S
C579 H583 0.950 . S
H580 C576 0.950 . S
C581 C579 1.390 1_544 S
C581 C582 1.387 . S
C581 H584 0.950 . S
C582 C581 1.387 . S
C582 C585 1.387 . S
H583 C579 0.950 . S
H584 C581 0.950 . S
C585 C576 1.390 1_544 S
C585 H578 0.950 . S
C585 C582 1.387 . S
C586 C587 1.387 . S
C586 H590 0.950 . S
C586 C595 1.390 . S
C587 C586 1.387 . S
C587 C589 1.387 . S
H588 C595 0.950 . S
C589 C587 1.387 . S
C589 C591 1.390 . S
C589 H593 0.950 . S
H590 C586 0.950 . S
C591 C589 1.390 . S
C591 C592 1.387 . S
C591 H594 0.950 . S
C592 C591 1.387 . S
C592 C595 1.387 . S
H593 C589 0.950 . S
H594 C591 0.950 . S
C595 C586 1.390 . S
C595 H588 0.950 . S
C595 C592 1.387 . S
C596 C597 1.387 1_655 S
C596 H600 0.950 . S
C596 C605 1.390 1_556 S
C597 C596 1.387 1_455 S
C597 C599 1.387 . S
H598 C605 0.950 . S
C599 C597 1.387 . S
C599 C601 1.390 1_556 S
C599 H603 0.950 . S
H600 C596 0.950 . S
C601 C599 1.390 1_554 S
C601 C602 1.387 1_455 S
C601 H604 0.950 . S
C602 C601 1.387 1_655 S
C602 C605 1.387 . S
H603 C599 0.950 . S
H604 C601 0.950 . S
C605 C596 1.390 1_554 S
C605 H598 0.950 . S
C605 C602 1.387 . S
C606 C607 1.387 . S
C606 H610 0.950 . S
C606 C615 1.390 1_545 S
C607 C606 1.387 . S
C607 C609 1.387 . S
H608 C615 0.950 . S
C609 C607 1.387 . S
C609 C611 1.390 1_545 S
C609 H613 0.950 . S
H610 C606 0.950 . S
C611 C609 1.390 1_565 S
C611 C612 1.387 . S
C611 H614 0.950 . S
C612 C611 1.387 . S
C612 C615 1.387 . S
H613 C609 0.950 . S
H614 C611 0.950 . S
C615 C606 1.390 1_565 S
C615 H608 0.950 . S
C615 C612 1.387 . S
C616 C617 1.387 . S
C616 H620 0.950 . S
C616 C625 1.390 1_554 S
C617 C616 1.387 . S
C617 C619 1.387 . S
H618 C625 0.950 . S
C619 C617 1.387 . S
C619 C621 1.390 1_554 S
C619 H623 0.950 . S
H620 C616 0.950 . S
C621 C619 1.390 1_556 S
C621 C622 1.387 . S
C621 H624 0.950 . S
C622 C621 1.387 . S
C622 C625 1.387 . S
H623 C619 0.950 . S
H624 C621 0.950 . S
C625 C616 1.390 1_556 S
C625 H618 0.950 . S
C625 C622 1.387 . S
C626 C627 1.387 1_655 S
C626 H630 0.950 . S
C626 C635 1.390 . S
C627 C626 1.387 1_455 S
C627 C629 1.387 . S
H628 C635 0.950 . S
C629 C627 1.387 . S
C629 C631 1.390 . S
C629 H633 0.950 . S
H630 C626 0.950 . S
C631 C629 1.390 . S
C631 C632 1.387 1_455 S
C631 H634 0.950 . S
C632 C631 1.387 1_655 S
C632 C635 1.387 . S
H633 C629 0.950 . S
H634 C631 0.950 . S
C635 C626 1.390 . S
C635 H628 0.950 . S
C635 C632 1.387 . S
C636 C637 1.387 . S
C636 H640 0.950 . S
C636 C645 1.390 1_566 S
C637 C636 1.387 . S
C637 C639 1.387 . S
H638 C645 0.950 . S
C639 C637 1.387 . S
C639 C641 1.390 1_566 S
C639 H643 0.950 . S
H640 C636 0.950 . S
C641 C639 1.390 1_544 S
C641 C642 1.387 . S
C641 H644 0.950 . S
C642 C641 1.387 . S
C642 C645 1.387 . S
H643 C639 0.950 . S
H644 C641 0.950 . S
C645 C636 1.390 1_544 S
C645 H638 0.950 . S
C645 C642 1.387 . S
C646 C647 1.387 . S
C646 H650 0.950 . S
C646 C655 1.390 . S
C647 C646 1.387 . S
C647 C649 1.387 . S
H648 C655 0.950 . S
C649 C647 1.387 . S
C649 C651 1.390 . S
C649 H653 0.950 . S
H650 C646 0.950 . S
C651 C649 1.390 . S
C651 C652 1.387 . S
C651 H654 0.950 . S
C652 C651 1.387 . S
C652 C655 1.387 . S
H653 C649 0.950 . S
H654 C651 0.950 . S
C655 C646 1.390 . S
C655 H648 0.950 . S
C655 C652 1.387 . S
C656 C657 1.387 . S
C656 H660 0.950 . S
C656 C665 1.390 1_554 S
C657 C656 1.387 . S
C657 C659 1.387 1_655 S
H658 C665 0.950 . S
C659 C657 1.387 1_455 S
C659 C661 1.390 1_554 S
C659 H663 0.950 . S
H660 C656 0.950 . S
C661 C659 1.390 1_556 S
C661 C662 1.387 . S
C661 H664 0.950 . S
C662 C661 1.387 . S
C662 C665 1.387 1_455 S
H663 C659 0.950 . S
H664 C661 0.950 . S
C665 C656 1.390 1_556 S
C665 H658 0.950 . S
C665 C662 1.387 1_655 S
C666 C667 1.387 . S
C666 H670 0.950 . S
C666 C675 1.390 1_565 S
C667 C666 1.387 . S
C667 C669 1.387 . S
H668 C675 0.950 . S
C669 C667 1.387 . S
C669 C671 1.390 1_565 S
C669 H673 0.950 . S
H670 C666 0.950 . S
C671 C669 1.390 1_545 S
C671 C672 1.387 . S
C671 H674 0.950 . S
C672 C671 1.387 . S
C672 C675 1.387 . S
H673 C669 0.950 . S
H674 C671 0.950 . S
C675 C666 1.390 1_545 S
C675 H668 0.950 . S
C675 C672 1.387 . S
C676 C677 1.387 . S
C676 H680 0.950 . S
C676 C685 1.390 1_554 S
C677 C676 1.387 . S
C677 C679 1.387 . S
H678 C685 0.950 . S
C679 C677 1.387 . S
C679 C681 1.390 1_554 S
C679 H683 0.950 . S
H680 C676 0.950 . S
C681 C679 1.390 1_556 S
C681 C682 1.387 . S
C681 H684 0.950 . S
C682 C681 1.387 . S
C682 C685 1.387 . S
H683 C679 0.950 . S
H684 C681 0.950 . S
C685 C676 1.390 1_556 S
C685 H678 0.950 . S
C685 C682 1.387 . S
C686 C687 1.387 1_655 S
C686 H690 0.950 . S
C686 C695 1.390 . S
C687 C686 1.387 1_455 S
C687 C689 1.387 . S
H688 C695 0.950 . S
C689 C687 1.387 . S
C689 C691 1.390 . S
C689 H693 0.950 . S
H690 C686 0.950 . S
C691 C689 1.390 . S
C691 C692 1.387 1_455 S
C691 H694 0.950 . S
C692 C691 1.387 1_655 S
C692 C695 1.387 . S
H693 C689 0.950 . S
H694 C691 0.950 . S
C695 C686 1.390 . S
C695 H688 0.950 . S
C695 C692 1.387 . S
C696 C697 1.387 . S
C696 H700 0.950 . S
C696 C705 1.390 . S
C697 C696 1.387 . S
C697 C699 1.387 . S
H698 C705 0.950 . S
C699 C697 1.387 . S
C699 C701 1.390 . S
C699 H703 0.950 . S
H700 C696 0.950 . S
C701 C699 1.390 . S
C701 C702 1.387 . S
C701 H704 0.950 . S
C702 C701 1.387 . S
C702 C705 1.387 . S
H703 C699 0.950 . S
H704 C701 0.950 . S
C705 C696 1.390 . S
C705 H698 0.950 . S
C705 C702 1.387 . S
C706 C707 1.387 . S
C706 H710 0.950 . S
C706 C715 1.390 . S
C707 C706 1.387 . S
C707 C709 1.387 . S
H708 C715 0.950 . S
C709 C707 1.387 . S
C709 C711 1.390 . S
C709 H713 0.950 . S
H710 C706 0.950 . S
C711 C709 1.390 . S
C711 C712 1.387 . S
C711 H714 0.950 . S
C712 C711 1.387 . S
C712 C715 1.387 . S
H713 C709 0.950 . S
H714 C711 0.950 . S
C715 C706 1.390 . S
C715 H708 0.950 . S
C715 C712 1.387 . S
C716 C717 1.387 . S
C716 H720 0.950 . S
C716 C725 1.390 . S
C717 C716 1.387 . S
C717 C719 1.387 . S
H718 C725 0.950 . S
C719 C717 1.387 . S
C719 C721 1.390 . S
C719 H723 0.950 . S
H720 C716 0.950 . S
C721 C719 1.390 . S
C721 C722 1.387 . S
C721 H724 0.950 . S
C722 C721 1.387 . S
C722 C725 1.387 . S
H723 C719 0.950 . S
H724 C721 0.950 . S
C725 C716 1.390 . S
C725 H718 0.950 . S
C725 C722 1.387 . S
C726 C727 1.387 . S
C726 H730 0.950 . S
C726 C735 1.390 . S
C727 C726 1.387 . S
C727 C729 1.387 . S
H728 C735 0.950 . S
C729 C727 1.387 . S
C729 C731 1.390 . S
C729 H733 0.958 . S
H730 C726 0.950 . S
C731 C729 1.390 . S
C731 C732 1.387 . S
C731 H734 0.951 . S
C732 C731 1.387 . S
C732 C735 1.387 . S
H733 C729 0.958 . S
H734 C731 0.951 . S
C735 C726 1.390 . S
C735 H728 0.950 . S
C735 C732 1.387 . S
C736 C737 1.387 . S
C736 H740 0.950 . S
C736 C745 1.390 . S
C737 C736 1.387 . S
C737 C739 1.387 . S
H738 C745 0.950 . S
C739 C737 1.387 . S
C739 C741 1.390 . S
C739 H743 0.950 . S
H740 C736 0.950 . S
C741 C739 1.390 . S
C741 C742 1.387 . S
C741 H744 0.950 . S
C742 C741 1.387 . S
C742 C745 1.387 . S
H743 C739 0.950 . S
H744 C741 0.950 . S
C745 C736 1.390 . S
C745 H738 0.950 . S
C745 C742 1.387 . S
C746 C747 1.387 . S
C746 H750 0.950 . S
C746 C755 1.390 . S
C747 C746 1.387 . S
C747 C749 1.387 . S
H748 C755 0.950 . S
C749 C747 1.387 . S
C749 C751 1.390 . S
C749 H753 0.950 . S
H750 C746 0.950 . S
C751 C749 1.390 . S
C751 C752 1.387 . S
C751 H754 0.950 . S
C752 C751 1.387 . S
C752 C755 1.387 . S
H753 C749 0.950 . S
H754 C751 0.950 . S
C755 C746 1.390 . S
C755 H748 0.950 . S
C755 C752 1.387 . S
C756 C757 1.387 . S
C756 H760 0.950 . S
C756 C765 1.390 . S
C757 C756 1.387 . S
C757 C759 1.387 . S
H758 C765 0.950 . S
C759 C757 1.387 . S
C759 C761 1.390 . S
C759 H763 0.950 . S
H760 C756 0.950 . S
C761 C759 1.390 . S
C761 C762 1.387 . S
C761 H764 0.950 . S
C762 C761 1.387 . S
C762 C765 1.387 . S
H763 C759 0.950 . S
H764 C761 0.950 . S
C765 C756 1.390 . S
C765 H758 0.950 . S
C765 C762 1.387 . S
C766 C767 1.387 . S
C766 H770 0.950 . S
C766 C775 1.390 . S
C767 C766 1.387 . S
C767 C769 1.387 . S
H768 C775 0.950 . S
C769 C767 1.387 . S
C769 C771 1.390 . S
C769 H773 0.944 1_565 S
H770 C766 0.950 . S
C771 C769 1.390 . S
C771 C772 1.387 . S
C771 H774 0.942 1_565 S
C772 C771 1.387 . S
C772 C775 1.387 . S
H773 C769 0.944 1_545 S
H774 C771 0.942 1_545 S
C775 C766 1.390 . S
C775 H768 0.950 . S
C775 C772 1.387 . S
C776 C777 1.387 . S
C776 H780 0.950 . S
C776 C785 1.390 . S
C777 C776 1.387 . S
C777 C779 1.387 . S
H778 C785 0.950 . S
C779 C777 1.387 . S
C779 C781 1.390 . S
C779 H783 0.950 . S
H780 C776 0.950 . S
C781 C779 1.390 . S
C781 C782 1.387 . S
C781 H784 0.950 . S
C782 C781 1.387 . S
C782 C785 1.387 . S
H783 C779 0.950 . S
H784 C781 0.950 . S
C785 C776 1.390 . S
C785 H778 0.950 . S
C785 C782 1.387 . S
C786 C787 1.387 . S
C786 H790 0.950 . S
C786 C795 1.390 . S
C787 C786 1.387 . S
C787 C789 1.387 . S
H788 C795 0.950 . S
C789 C787 1.387 . S
C789 C791 1.390 . S
C789 H793 0.950 . S
H790 C786 0.950 . S
C791 C789 1.390 . S
C791 C792 1.387 . S
C791 H794 0.950 . S
C792 C791 1.387 . S
C792 C795 1.387 . S
H793 C789 0.950 . S
H794 C791 0.950 . S
C795 C786 1.390 . S
C795 H788 0.950 . S
C795 C792 1.387 . S
C796 C797 1.387 . S
C796 H800 0.950 1_545 S
C796 C805 1.390 . S
C797 C796 1.387 . S
C797 C799 1.387 . S
H798 C805 0.950 1_565 S
C799 C797 1.387 . S
C799 C801 1.390 . S
C799 H803 0.950 . S
H800 C796 0.950 1_565 S
C801 C799 1.390 . S
C801 C802 1.387 . S
C801 H804 0.950 . S
C802 C801 1.387 . S
C802 C805 1.387 . S
H803 C799 0.950 . S
H804 C801 0.950 . S
C805 C796 1.390 . S
C805 H798 0.950 1_545 S
C805 C802 1.387 . S
C806 C807 1.387 . S
C806 H810 0.950 . S
C806 C815 1.390 . S
C807 C806 1.387 . S
C807 C809 1.387 . S
H808 C815 0.950 . S
C809 C807 1.387 . S
C809 C811 1.390 . S
C809 H813 0.950 . S
H810 C806 0.950 . S
C811 C809 1.390 . S
C811 C812 1.387 . S
C811 H814 0.950 . S
C812 C811 1.387 . S
C812 C815 1.387 . S
H813 C809 0.950 . S
H814 C811 0.950 . S
C815 C806 1.390 . S
C815 H808 0.950 . S
C815 C812 1.387 . S
C337 C215 1.354 . S
C342 C5 1.356 . S
C347 C19 1.355 . S
C352 C229 1.354 . S
C357 C33 1.354 . S
C362 C243 1.356 . S
C367 C47 1.354 . S
C372 C173 1.356 . S
C377 C187 1.355 . S
C382 C61 1.355 . S
C387 C75 1.356 . S
C392 C201 1.354 . S
C397 C299 1.354 . S
C402 C89 1.356 . S
C407 C103 1.356 . S
C412 C313 1.354 . S
C417 C117 1.356 . S
C422 C327 1.354 . S
C427 C257 1.355 . S
C432 C131 1.355 . S
C437 C145 1.356 . S
C442 C271 1.355 . S
C447 C285 1.356 . S
C452 C159 1.354 . S
C457 C0 1.544 . S
C462 C322 1.545 . S
C467 C252 1.545 . S
C472 C14 1.544 . S
C477 C28 1.545 . S
C482 C266 1.544 . S
C487 C280 1.545 . S
C492 C42 1.544 . S
C497 C56 1.544 . S
C502 C294 1.544 . S
C507 C308 1.544 . S
C512 C70 1.545 . S
C517 C84 1.545 . S
C522 C182 1.544 . S
C527 C196 1.544 . S
C532 C98 1.545 . S
C537 C210 1.545 . S
C542 C112 1.544 . S
C547 C224 1.544 . S
C552 C126 1.545 . S
C557 C140 1.544 . S
C562 C238 1.545 . S
C567 C154 1.545 . S
C572 C168 1.544 . S
C577 C109 1.411 . S
C582 C11 1.411 . S
C587 C123 1.409 . S
C592 C25 1.410 . S
C597 C137 1.410 . S
C602 C39 1.411 . S
C607 C151 1.411 . S
C612 C53 1.411 . S
C617 C67 1.409 . S
C622 C165 1.409 . S
C627 C81 1.409 . S
C632 C95 1.410 . S
C637 C179 1.411 . S
C642 C277 1.411 . S
C647 C193 1.410 . S
C652 C291 1.409 . S
C657 C305 1.411 . S
C662 C207 1.411 . S
C667 C319 1.409 . S
C672 C221 1.409 . S
C677 C333 1.411 . S
C682 C235 1.410 . S
C687 C263 1.410 . S
C692 C249 1.409 . S
C697 C9 1.577 . S
C702 C275 1.576 . S
C707 C289 1.576 . S
C712 C23 1.577 . S
C717 C37 1.576 . S
C722 C303 1.577 . S
C727 C317 1.577 . S
C732 C51 1.576 . S
C737 C65 1.577 . S
C742 C331 1.576 . S
C747 C261 1.576 . S
C752 C79 1.577 . S
C757 C93 1.577 . S
C762 C247 1.576 . S
C767 C177 1.577 . S
C772 C107 1.576 . S
C777 C121 1.577 . S
C782 C191 1.576 . S
C787 C135 1.576 . S
C792 C205 1.577 . S
C797 C149 1.577 . S
C802 C219 1.576 . S
C807 C163 1.576 . S
C812 C233 1.577 . S
