# Generated by pormake.
# Topology vcq, (7)-cn, num edge types: 1
# Building blocks:
#     Node 0, Type 0, BuildingBlock: HICVOG_clean_sbu_0, # of connection points: 7
#     Node 1, Type 0, BuildingBlock: HICVOG_clean_sbu_0, # of connection points: 7
#     Node 2, Type 0, BuildingBlock: HICVOG_clean_sbu_0, # of connection points: 7
#     Node 3, Type 0, BuildingBlock: HICVOG_clean_sbu_0, # of connection points: 7
#     Node 4, Type 0, BuildingBlock: HICVOG_clean_sbu_0, # of connection points: 7
#     Node 5, Type 0, BuildingBlock: HICVOG_clean_sbu_0, # of connection points: 7
#     Node 6, Type 0, BuildingBlock: HICVOG_clean_sbu_0, # of connection points: 7
#     Node 7, Type 0, BuildingBlock: HICVOG_clean_sbu_0, # of connection points: 7
#     Node 8, Type 0, BuildingBlock: HICVOG_clean_sbu_0, # of connection points: 7
#     Node 9, Type 0, BuildingBlock: HICVOG_clean_sbu_0, # of connection points: 7
#     Node 10, Type 0, BuildingBlock: HICVOG_clean_sbu_0, # of connection points: 7
#     Node 11, Type 0, BuildingBlock: HICVOG_clean_sbu_0, # of connection points: 7
#     Node 12, Type 0, BuildingBlock: HICVOG_clean_sbu_0, # of connection points: 7
#     Node 13, Type 0, BuildingBlock: HICVOG_clean_sbu_0, # of connection points: 7
#     Node 14, Type 0, BuildingBlock: HICVOG_clean_sbu_0, # of connection points: 7
#     Node 15, Type 0, BuildingBlock: HICVOG_clean_sbu_0, # of connection points: 7
#     Edge 16, Type (0, 0), BuildingBlock: AJUNOK_clean_linker_0, # of connection points: 2
#     Edge 17, Type (0, 0), BuildingBlock: AJUNOK_clean_linker_0, # of connection points: 2
#     Edge 18, Type (0, 0), BuildingBlock: AJUNOK_clean_linker_0, # of connection points: 2
#     Edge 19, Type (0, 0), BuildingBlock: AJUNOK_clean_linker_0, # of connection points: 2
#     Edge 20, Type (0, 0), BuildingBlock: AJUNOK_clean_linker_0, # of connection points: 2
#     Edge 21, Type (0, 0), BuildingBlock: AJUNOK_clean_linker_0, # of connection points: 2
#     Edge 22, Type (0, 0), BuildingBlock: AJUNOK_clean_linker_0, # of connection points: 2
#     Edge 23, Type (0, 0), BuildingBlock: AJUNOK_clean_linker_0, # of connection points: 2
#     Edge 24, Type (0, 0), BuildingBlock: AJUNOK_clean_linker_0, # of connection points: 2
#     Edge 25, Type (0, 0), BuildingBlock: AJUNOK_clean_linker_0, # of connection points: 2
#     Edge 26, Type (0, 0), BuildingBlock: AJUNOK_clean_linker_0, # of connection points: 2
#     Edge 27, Type (0, 0), BuildingBlock: AJUNOK_clean_linker_0, # of connection points: 2
#     Edge 28, Type (0, 0), BuildingBlock: AJUNOK_clean_linker_0, # of connection points: 2
#     Edge 29, Type (0, 0), BuildingBlock: AJUNOK_clean_linker_0, # of connection points: 2
#     Edge 30, Type (0, 0), BuildingBlock: AJUNOK_clean_linker_0, # of connection points: 2
#     Edge 31, Type (0, 0), BuildingBlock: AJUNOK_clean_linker_0, # of connection points: 2
#     Edge 32, Type (0, 0), BuildingBlock: AJUNOK_clean_linker_0, # of connection points: 2
#     Edge 33, Type (0, 0), BuildingBlock: AJUNOK_clean_linker_0, # of connection points: 2
#     Edge 34, Type (0, 0), BuildingBlock: AJUNOK_clean_linker_0, # of connection points: 2
#     Edge 35, Type (0, 0), BuildingBlock: AJUNOK_clean_linker_0, # of connection points: 2
#     Edge 36, Type (0, 0), BuildingBlock: AJUNOK_clean_linker_0, # of connection points: 2
#     Edge 37, Type (0, 0), BuildingBlock: AJUNOK_clean_linker_0, # of connection points: 2
#     Edge 38, Type (0, 0), BuildingBlock: AJUNOK_clean_linker_0, # of connection points: 2
#     Edge 39, Type (0, 0), BuildingBlock: AJUNOK_clean_linker_0, # of connection points: 2
#     Edge 40, Type (0, 0), BuildingBlock: AJUNOK_clean_linker_0, # of connection points: 2
#     Edge 41, Type (0, 0), BuildingBlock: AJUNOK_clean_linker_0, # of connection points: 2
#     Edge 42, Type (0, 0), BuildingBlock: AJUNOK_clean_linker_0, # of connection points: 2
#     Edge 43, Type (0, 0), BuildingBlock: AJUNOK_clean_linker_0, # of connection points: 2
#     Edge 44, Type (0, 0), BuildingBlock: AJUNOK_clean_linker_0, # of connection points: 2
#     Edge 45, Type (0, 0), BuildingBlock: AJUNOK_clean_linker_0, # of connection points: 2
#     Edge 46, Type (0, 0), BuildingBlock: AJUNOK_clean_linker_0, # of connection points: 2
#     Edge 47, Type (0, 0), BuildingBlock: AJUNOK_clean_linker_0, # of connection points: 2
#     Edge 48, Type (0, 0), BuildingBlock: AJUNOK_clean_linker_0, # of connection points: 2
#     Edge 49, Type (0, 0), BuildingBlock: AJUNOK_clean_linker_0, # of connection points: 2
#     Edge 50, Type (0, 0), BuildingBlock: AJUNOK_clean_linker_0, # of connection points: 2
#     Edge 51, Type (0, 0), BuildingBlock: AJUNOK_clean_linker_0, # of connection points: 2
#     Edge 52, Type (0, 0), BuildingBlock: AJUNOK_clean_linker_0, # of connection points: 2
#     Edge 53, Type (0, 0), BuildingBlock: AJUNOK_clean_linker_0, # of connection points: 2
#     Edge 54, Type (0, 0), BuildingBlock: AJUNOK_clean_linker_0, # of connection points: 2
#     Edge 55, Type (0, 0), BuildingBlock: AJUNOK_clean_linker_0, # of connection points: 2
#     Edge 56, Type (0, 0), BuildingBlock: AJUNOK_clean_linker_0, # of connection points: 2
#     Edge 57, Type (0, 0), BuildingBlock: AJUNOK_clean_linker_0, # of connection points: 2
#     Edge 58, Type (0, 0), BuildingBlock: AJUNOK_clean_linker_0, # of connection points: 2
#     Edge 59, Type (0, 0), BuildingBlock: AJUNOK_clean_linker_0, # of connection points: 2
#     Edge 60, Type (0, 0), BuildingBlock: AJUNOK_clean_linker_0, # of connection points: 2
#     Edge 61, Type (0, 0), BuildingBlock: AJUNOK_clean_linker_0, # of connection points: 2
#     Edge 62, Type (0, 0), BuildingBlock: AJUNOK_clean_linker_0, # of connection points: 2
#     Edge 63, Type (0, 0), BuildingBlock: AJUNOK_clean_linker_0, # of connection points: 2
#     Edge 64, Type (0, 0), BuildingBlock: AJUNOK_clean_linker_0, # of connection points: 2
#     Edge 65, Type (0, 0), BuildingBlock: AJUNOK_clean_linker_0, # of connection points: 2
#     Edge 66, Type (0, 0), BuildingBlock: AJUNOK_clean_linker_0, # of connection points: 2
#     Edge 67, Type (0, 0), BuildingBlock: AJUNOK_clean_linker_0, # of connection points: 2
#     Edge 68, Type (0, 0), BuildingBlock: AJUNOK_clean_linker_0, # of connection points: 2
#     Edge 69, Type (0, 0), BuildingBlock: AJUNOK_clean_linker_0, # of connection points: 2
#     Edge 70, Type (0, 0), BuildingBlock: AJUNOK_clean_linker_0, # of connection points: 2
#     Edge 71, Type (0, 0), BuildingBlock: AJUNOK_clean_linker_0, # of connection points: 2
# Relax obj value: 0.296
# Max RMSD: 0.270
# Mean RMSD: 0.270
data_MOF--net-vcq--node1-HICVOG_clean_sbu_0--edge1-AJUNOK_clean_linker_0
_symmetry_space_group_name_H-M    P1
_symmetry_Int_Tables_number       1
_symmetry_cell_setting            triclinic
loop_
_symmetry_equiv_pos_as_xyz
'x, y, z'
_cell_length_a     64.927965
_cell_length_b     25.859893
_cell_length_c     19.734936
_cell_angle_alpha  89.997582
_cell_angle_beta   90.220441
_cell_angle_gamma 90.010588
loop_
_atom_site_label
_atom_site_type_symbol
_atom_site_fract_x
_atom_site_fract_y
_atom_site_fract_z
_atom_type_partial_charge
Zn0 Zn 0.15825 0.39498 0.34653 0.0
C1 C 0.13248 0.32234 0.50769 0.0
N2 N 0.13689 0.36655 0.53985 0.0
C3 C 0.14288 0.3979 0.48943 0.0
N4 N 0.14216 0.37401 0.42821 0.0
N5 N 0.13506 0.32659 0.44 0.0
C6 C 0.13822 0.19346 0.35998 0.0
O7 O 0.1528 0.22726 0.34709 0.0
O8 O 0.15524 0.47252 0.32473 0.0
Zn9 Zn 0.11893 0.28762 0.37492 0.0
N10 N 0.18718 0.37862 0.36756 0.0
C11 C 0.21033 0.33445 0.44149 0.0
C12 C 0.1904 0.34784 0.42254 0.0
C13 C 0.20337 0.39563 0.32955 0.0
N14 N 0.22636 0.35075 0.4034 0.0
C15 C 0.22367 0.38055 0.3472 0.0
O16 O 0.12813 0.29864 0.28034 0.0
C17 C 0.13925 0.32229 0.23794 0.0
O18 O 0.1517 0.35758 0.25671 0.0
H19 H 0.17764 0.33372 0.45201 0.0
H20 H 0.20038 0.42047 0.28658 0.0
C21 C 0.07277 0.29124 0.38605 0.0
C22 C 0.05417 0.31764 0.3721 0.0
C23 C 0.07324 0.39016 0.33361 0.0
C24 C 0.09151 0.36423 0.34726 0.0
N25 N 0.09105 0.31531 0.37242 0.0
N26 N 0.05509 0.36631 0.3461 0.0
H27 H 0.07268 0.25217 0.40572 0.0
C28 C 0.14305 0.48736 0.27765 0.0
O29 O 0.13146 0.45265 0.24739 0.0
O30 O 0.1212 0.20983 0.38378 0.0
H31 H 0.10611 0.38249 0.33631 0.0
H32 H 0.21303 0.31049 0.48558 0.0
H33 H 0.07345 0.42889 0.31289 0.0
Zn34 Zn 0.36512 0.6301 0.83608 0.0
C35 C 0.37877 0.69217 1.01093 0.0
N36 N 0.37031 0.64863 0.03548 0.0
C37 C 0.36968 0.61748 0.98107 0.0
N38 N 0.37747 0.64115 0.92547 0.0
N39 N 0.38394 0.68746 0.94493 0.0
C40 C 0.38502 0.82019 0.86414 0.0
O41 O 0.37286 0.78554 0.8363 0.0
O42 O 0.36605 0.5539 0.80971 0.0
Zn43 Zn 0.40517 0.72681 0.89677 0.0
N44 N 0.33659 0.65506 0.84419 0.0
C45 C 0.31599 0.72088 0.8943 0.0
C46 C 0.33512 0.69917 0.88136 0.0
C47 C 0.31934 0.63226 0.81758 0.0
N48 N 0.2989 0.69835 0.86826 0.0
C49 C 0.29977 0.65463 0.82997 0.0
O50 O 0.4057 0.71586 0.79522 0.0
C51 C 0.39441 0.69882 0.74722 0.0
O52 O 0.37869 0.67067 0.75905 0.0
H53 H 0.34874 0.71759 0.90108 0.0
H54 H 0.32082 0.59741 0.78767 0.0
C55 C 0.45057 0.72929 0.91333 0.0
C56 C 0.46917 0.71434 0.94544 0.0
C57 C 0.4502 0.65962 0.01883 0.0
C58 C 0.43205 0.67322 0.98582 0.0
N59 N 0.43231 0.70896 0.93527 0.0
N60 N 0.46824 0.68021 0.9978 0.0
H61 H 0.45063 0.75626 0.87139 0.0
C62 C 0.38001 0.53791 0.76953 0.0
O63 O 0.39375 0.57099 0.74719 0.0
O64 O 0.39999 0.80443 0.9007 0.0
H65 H 0.41787 0.65488 1.00048 0.0
H66 H 0.31472 0.75577 0.92425 0.0
H67 H 0.45002 0.63193 0.05991 0.0
Zn68 Zn 0.15764 0.62352 0.68492 0.0
C69 C 0.13219 0.68954 0.51803 0.0
N70 N 0.13769 0.64419 0.49023 0.0
C71 C 0.14345 0.61622 0.54437 0.0
N72 N 0.14154 0.64282 0.60285 0.0
N73 N 0.13404 0.68894 0.58634 0.0
C74 C 0.13566 0.82691 0.66237 0.0
O75 O 0.15098 0.79553 0.67673 0.0
O76 O 0.15374 0.5468 0.70749 0.0
Zn77 Zn 0.11768 0.72938 0.64883 0.0
N78 N 0.18681 0.63571 0.66191 0.0
C79 C 0.21043 0.66892 0.58057 0.0
C80 C 0.19038 0.65964 0.60162 0.0
C81 C 0.20287 0.62222 0.70335 0.0
N82 N 0.22631 0.65593 0.62176 0.0
C83 C 0.22333 0.63339 0.68326 0.0
O84 O 0.12803 0.72037 0.74224 0.0
C85 C 0.13911 0.69966 0.78759 0.0
O86 O 0.15156 0.66339 0.77285 0.0
H87 H 0.17783 0.67182 0.56959 0.0
H88 H 0.19968 0.60318 0.75095 0.0
C89 C 0.07148 0.72437 0.64264 0.0
C90 C 0.05309 0.69754 0.65796 0.0
C91 C 0.07279 0.62458 0.69189 0.0
C92 C 0.09084 0.65108 0.67729 0.0
N93 N 0.08998 0.70039 0.65361 0.0
N94 N 0.05444 0.64838 0.68216 0.0
H95 H 0.07108 0.76379 0.62426 0.0
C96 C 0.14135 0.53211 0.75372 0.0
O97 O 0.13019 0.56711 0.78486 0.0
O98 O 0.11906 0.80747 0.63871 0.0
H99 H 0.1056 0.63292 0.68636 0.0
H100 H 0.21336 0.68728 0.5323 0.0
H101 H 0.07333 0.58549 0.71133 0.0
Zn102 Zn 0.36511 0.39437 0.19738 0.0
C103 C 0.38719 0.32452 0.03128 0.0
N104 N 0.38059 0.36685 0.99886 0.0
C105 C 0.37627 0.39974 0.04951 0.0
N106 N 0.37994 0.37798 0.11143 0.0
N107 N 0.38754 0.33107 0.09903 0.0
C108 C 0.38679 0.19723 0.1813 0.0
O109 O 0.37248 0.23091 0.19741 0.0
O110 O 0.36721 0.47047 0.22331 0.0
Zn111 Zn 0.40559 0.292 0.15945 0.0
N112 N 0.3363 0.37337 0.18139 0.0
C113 C 0.31471 0.31894 0.11443 0.0
C114 C 0.33415 0.33634 0.13292 0.0
C115 C 0.3194 0.39277 0.21396 0.0
N116 N 0.29799 0.33823 0.14631 0.0
C117 C 0.29953 0.37465 0.19585 0.0
O118 O 0.39918 0.30213 0.25659 0.0
C119 C 0.38826 0.32401 0.30114 0.0
O120 O 0.37456 0.35694 0.2845 0.0
H121 H 0.34744 0.32012 0.10849 0.0
H122 H 0.32142 0.42189 0.25278 0.0
C123 C 0.45147 0.29267 0.14214 0.0
C124 C 0.47042 0.3193 0.14826 0.0
C125 C 0.45226 0.39672 0.17279 0.0
C126 C 0.43366 0.37051 0.16692 0.0
N127 N 0.4335 0.31916 0.15229 0.0
N128 N 0.4701 0.37059 0.16363 0.0
H129 H 0.45105 0.25163 0.1315 0.0
C130 C 0.3827 0.48586 0.25772 0.0
O131 O 0.39775 0.45316 0.26982 0.0
O132 O 0.40303 0.21371 0.1522 0.0
H133 H 0.41933 0.39062 0.17581 0.0
H134 H 0.31291 0.28979 0.07553 0.0
H135 H 0.45254 0.43748 0.18511 0.0
Zn136 Zn 0.86422 0.63065 0.69498 0.0
C137 C 0.8781 0.69794 0.523 0.0
N138 N 0.86976 0.65568 0.49486 0.0
C139 C 0.86864 0.62215 0.54667 0.0
N140 N 0.87615 0.64341 0.60487 0.0
N141 N 0.88287 0.6904 0.58895 0.0
C142 C 0.88568 0.82321 0.67497 0.0
O143 O 0.87318 0.78974 0.7034 0.0
O144 O 0.86661 0.55534 0.72447 0.0
Zn145 Zn 0.90441 0.72769 0.639 0.0
N146 N 0.83534 0.65313 0.68785 0.0
C147 C 0.81338 0.71634 0.63774 0.0
C148 C 0.83291 0.6963 0.6493 0.0
C149 C 0.81872 0.62982 0.71736 0.0
N150 N 0.79692 0.69358 0.66718 0.0
C151 C 0.7988 0.65113 0.70753 0.0
O152 O 0.90494 0.71536 0.74004 0.0
C153 C 0.8931 0.69925 0.78677 0.0
O154 O 0.87721 0.67205 0.77319 0.0
H155 H 0.84608 0.71533 0.62755 0.0
H156 H 0.82102 0.59533 0.7474 0.0
C157 C 0.94988 0.72827 0.62113 0.0
C158 C 0.96824 0.71105 0.58981 0.0
C159 C 0.94852 0.65488 0.5201 0.0
C160 C 0.93063 0.67047 0.55264 0.0
N161 N 0.93137 0.708 0.60091 0.0
N162 N 0.9668 0.67529 0.53948 0.0
H163 H 0.95032 0.75691 0.6611 0.0
C164 C 0.88275 0.54101 0.75629 0.0
O165 O 0.89777 0.57447 0.76441 0.0
O166 O 0.89996 0.80602 0.63679 0.0
H167 H 0.91624 0.6525 0.539 0.0
H168 H 0.81132 0.75032 0.60644 0.0
H169 H 0.94794 0.62587 0.48064 0.0
Zn170 Zn 0.61825 0.28908 0.11967 0.0
C171 C 0.65073 0.40221 0.03503 0.0
N172 N 0.64952 0.37303 0.97889 0.0
C173 C 0.64255 0.32746 1.00238 0.0
N174 N 0.63877 0.32928 0.06983 0.0
N175 N 0.64479 0.37563 0.09056 0.0
C176 C 0.64583 0.48195 0.25566 0.0
O177 O 0.63608 0.44786 0.293 0.0
O178 O 0.62486 0.21206 0.11895 0.0
Zn179 Zn 0.6573 0.38924 0.17922 0.0
N180 N 0.59062 0.30399 0.08139 0.0
C181 C 0.57216 0.34953 0.99537 0.0
C182 C 0.59043 0.33818 0.02897 0.0
C183 C 0.57253 0.28379 0.10517 0.0
N184 N 0.55434 0.32881 0.01793 0.0
C185 C 0.55376 0.29672 0.07247 0.0
O186 O 0.64461 0.34852 0.25695 0.0
C187 C 0.62902 0.32003 0.26886 0.0
O188 O 0.61784 0.30241 0.22092 0.0
H189 H 0.60429 0.35737 1.01342 0.0
H190 H 0.57269 0.25861 0.14898 0.0
C191 C 0.7025 0.39038 0.20223 0.0
C192 C 0.72266 0.37199 0.18958 0.0
C193 C 0.70889 0.31014 0.11292 0.0
C194 C 0.6891 0.32735 0.12685 0.0
N195 N 0.68615 0.36761 0.17014 0.0
N196 N 0.7251 0.33263 0.14457 0.0
H197 H 0.69984 0.42225 0.23661 0.0
C198 C 0.63974 0.19888 0.15769 0.0
O199 O 0.65127 0.23547 0.18412 0.0
O200 O 0.65587 0.46622 0.20415 0.0
H201 H 0.67618 0.3086 0.10288 0.0
H202 H 0.57204 0.37585 0.95275 0.0
H203 H 0.71136 0.27859 0.07786 0.0
Zn204 Zn 0.86473 0.39477 0.33246 0.0
C205 C 0.88052 0.32818 0.50312 0.0
N206 N 0.87187 0.37044 0.53058 0.0
C207 C 0.87077 0.40335 0.47802 0.0
N208 N 0.87812 0.38168 0.42031 0.0
N209 N 0.88498 0.33497 0.43672 0.0
C210 C 0.88711 0.20445 0.3479 0.0
O211 O 0.874 0.23911 0.32522 0.0
O212 O 0.86634 0.47087 0.30647 0.0
Zn213 Zn 0.90579 0.29844 0.38308 0.0
N214 N 0.83597 0.37273 0.34475 0.0
C215 C 0.81439 0.31482 0.40606 0.0
C216 C 0.83384 0.33252 0.38867 0.0
C217 C 0.81906 0.39448 0.31462 0.0
N218 N 0.79763 0.33664 0.37691 0.0
C219 C 0.79921 0.3758 0.33119 0.0
O220 O 0.90435 0.31099 0.28187 0.0
C221 C 0.89222 0.32792 0.23613 0.0
O222 O 0.87647 0.35498 0.25123 0.0
H223 H 0.84716 0.31401 0.41035 0.0
H224 H 0.821 0.42567 0.27864 0.0
C225 C 0.95126 0.29653 0.404 0.0
C226 C 0.96962 0.3169 0.43211 0.0
C227 C 0.95055 0.38627 0.47928 0.0
C228 C 0.93261 0.36686 0.45036 0.0
N229 N 0.93302 0.32154 0.41524 0.0
N230 N 0.96854 0.36103 0.46942 0.0
H231 H 0.95151 0.26163 0.37376 0.0
C232 C 0.88105 0.48606 0.26875 0.0
O233 O 0.89515 0.4525 0.25045 0.0
O234 O 0.90209 0.21989 0.38483 0.0
H235 H 0.91835 0.38745 0.45748 0.0
H236 H 0.81261 0.28336 0.44169 0.0
H237 H 0.95025 0.42156 0.50869 0.0
Zn238 Zn 0.61729 0.73324 0.86198 0.0
C239 C 0.63799 0.61977 0.97811 0.0
N240 N 0.63124 0.65106 0.02754 0.0
C241 C 0.62762 0.69564 0.99551 0.0
N242 N 0.63185 0.69217 0.92871 0.0
N243 N 0.63901 0.6446 0.91726 0.0
C244 C 0.64052 0.53309 0.76212 0.0
O245 O 0.62958 0.56837 0.7304 0.0
O246 O 0.61909 0.81166 0.87134 0.0
Zn247 Zn 0.65636 0.62391 0.83692 0.0
N248 N 0.58934 0.70653 0.85259 0.0
C249 C 0.57103 0.63634 0.80279 0.0
C250 C 0.58947 0.66044 0.8195 0.0
C251 C 0.57122 0.72925 0.87142 0.0
N252 N 0.55304 0.65884 0.82076 0.0
C253 C 0.55241 0.7045 0.85501 0.0
O254 O 0.65214 0.66401 0.74654 0.0
C255 C 0.64034 0.70095 0.72853 0.0
O256 O 0.6288 0.72284 0.7712 0.0
H257 H 0.60394 0.64291 0.80528 0.0
H258 H 0.57145 0.76605 0.8975 0.0
C259 C 0.70205 0.62195 0.82719 0.0
C260 C 0.72215 0.63135 0.85272 0.0
C261 C 0.70749 0.66639 0.95279 0.0
C262 C 0.68785 0.6579 0.9271 0.0
N263 N 0.6853 0.63522 0.86534 0.0
N264 N 0.72404 0.65326 0.91512 0.0
H265 H 0.69973 0.60443 0.77797 0.0
C266 C 0.63578 0.83107 0.84871 0.0
O267 O 0.65115 0.79965 0.83537 0.0
O268 O 0.65229 0.54728 0.81069 0.0
H269 H 0.67478 0.66954 0.95682 0.0
H270 H 0.57099 0.59992 0.77581 0.0
H271 H 0.7096 0.684 1.00206 0.0
Zn272 Zn 0.65965 0.89065 0.31624 0.0
C273 C 0.64748 0.82527 0.49024 0.0
N274 N 0.65581 0.86887 0.5154 0.0
C275 C 0.65588 0.90077 0.46166 0.0
N276 N 0.64791 0.8776 0.40586 0.0
N277 N 0.64184 0.83076 0.42445 0.0
C278 C 0.63979 0.69996 0.33355 0.0
O279 O 0.6506 0.73556 0.30241 0.0
O280 O 0.65918 0.96763 0.29123 0.0
Zn281 Zn 0.62038 0.79218 0.37546 0.0
N282 N 0.68793 0.86443 0.32306 0.0
C283 C 0.70815 0.79571 0.36844 0.0
C284 C 0.68912 0.81814 0.35555 0.0
C285 C 0.70536 0.88875 0.30092 0.0
N286 N 0.72542 0.81975 0.34681 0.0
C287 C 0.72479 0.86565 0.3131 0.0
O288 O 0.61876 0.80616 0.27398 0.0
C289 C 0.62967 0.82447 0.22604 0.0
O290 O 0.64554 0.85205 0.23826 0.0
H291 H 0.67534 0.79867 0.37184 0.0
H292 H 0.7041 0.9254 0.27477 0.0
C293 C 0.57503 0.78776 0.39929 0.0
C294 C 0.55699 0.80324 0.43388 0.0
C295 C 0.57688 0.86167 0.49964 0.0
C296 C 0.59444 0.8476 0.46416 0.0
N297 N 0.59355 0.80957 0.41658 0.0
N298 N 0.55866 0.83941 0.48361 0.0
H299 H 0.57432 0.7593 0.35914 0.0
C300 C 0.64554 0.98419 0.24985 0.0
O301 O 0.63177 0.95157 0.22634 0.0
O302 O 0.62616 0.71444 0.376 0.0
H303 H 0.60871 0.86715 0.47505 0.0
H304 H 0.7092 0.75915 0.39487 0.0
H305 H 0.57763 0.89099 0.53867 0.0
Zn306 Zn 0.86542 0.12724 0.84296 0.0
C307 C 0.89095 0.19868 1.00564 0.0
N308 N 0.8862 0.15484 0.03788 0.0
C309 C 0.88052 0.12298 0.98745 0.0
N310 N 0.8816 0.14657 0.92588 0.0
N311 N 0.88877 0.19399 0.93782 0.0
C312 C 0.88762 0.33042 0.86317 0.0
O313 O 0.87223 0.29924 0.84875 0.0
O314 O 0.8691 0.05068 0.8164 0.0
Zn315 Zn 0.90529 0.23277 0.87379 0.0
N316 N 0.8364 0.14291 0.86472 0.0
C317 C 0.81393 0.18624 0.9412 0.0
C318 C 0.83365 0.17314 0.92044 0.0
C319 C 0.81983 0.12624 0.82764 0.0
N320 N 0.79755 0.16991 0.90446 0.0
C321 C 0.79966 0.1403 0.8479 0.0
O322 O 0.89587 0.2244 0.77901 0.0
C323 C 0.88432 0.20186 0.73654 0.0
O324 O 0.87174 0.16685 0.75489 0.0
H325 H 0.84664 0.18734 0.94896 0.0
H326 H 0.82238 0.10256 0.78329 0.0
C327 C 0.95131 0.22684 0.88208 0.0
C328 C 0.96961 0.19934 0.86823 0.0
C329 C 0.94979 0.12622 0.83576 0.0
C330 C 0.9318 0.15336 0.84898 0.0
N331 N 0.93278 0.20303 0.87124 0.0
N332 N 0.96819 0.14981 0.84543 0.0
H333 H 0.95179 0.26658 0.89919 0.0
C334 C 0.88228 0.03775 0.77162 0.0
O335 O 0.8943 0.07375 0.74652 0.0
O336 O 0.90436 0.31059 0.88502 0.0
H337 H 0.917 0.13542 0.83992 0.0
H338 H 0.81165 0.20996 0.98569 0.0
H339 H 0.94917 0.08683 0.81741 0.0
Zn340 Zn 0.65988 0.12864 0.67068 0.0
C341 C 0.63868 0.19411 0.50009 0.0
N342 N 0.64615 0.15176 0.46998 0.0
C343 C 0.6509 0.12052 0.52202 0.0
N344 N 0.64653 0.14328 0.58257 0.0
N345 N 0.63824 0.18912 0.56829 0.0
C346 C 0.63722 0.31936 0.66137 0.0
O347 O 0.65089 0.28505 0.68103 0.0
O348 O 0.65618 0.05358 0.70173 0.0
Zn349 Zn 0.61817 0.22481 0.62564 0.0
N350 N 0.68913 0.14634 0.65873 0.0
C351 C 0.71296 0.19561 0.59377 0.0
C352 C 0.69291 0.18038 0.60769 0.0
C353 C 0.70489 0.12777 0.69793 0.0
N354 N 0.72855 0.17761 0.63285 0.0
C355 C 0.72531 0.14445 0.68532 0.0
O356 O 0.61997 0.2095 0.72568 0.0
C357 C 0.63396 0.19754 0.76822 0.0
O358 O 0.64998 0.1726 0.75047 0.0
H359 H 0.68044 0.19592 0.57775 0.0
H360 H 0.70148 0.10033 0.73766 0.0
C361 C 0.57268 0.22856 0.6105 0.0
C362 C 0.55384 0.20904 0.58507 0.0
C363 C 0.57194 0.14127 0.53048 0.0
C364 C 0.59036 0.15958 0.55725 0.0
N365 N 0.59064 0.20371 0.59479 0.0
N366 N 0.5542 0.16623 0.54505 0.0
H367 H 0.57304 0.26245 0.64265 0.0
C368 C 0.64081 0.04102 0.73829 0.0
O369 O 0.62682 0.07625 0.75137 0.0
O370 O 0.62183 0.30363 0.62657 0.0
H371 H 0.60438 0.13856 0.54754 0.0
H372 H 0.7161 0.22226 0.55284 0.0
H373 H 0.57168 0.10687 0.49929 0.0
Zn374 Zn 0.8675 0.89829 0.18274 0.0
C375 C 0.89251 0.82996 0.01813 0.0
N376 N 0.88705 0.87497 0.98909 0.0
C377 C 0.88183 0.90409 0.04264 0.0
N378 N 0.88385 0.87842 0.10187 0.0
N379 N 0.891 0.83179 0.08648 0.0
C380 C 0.88722 0.69708 0.16512 0.0
O381 O 0.87259 0.73102 0.17658 0.0
O382 O 0.87122 0.97504 0.20542 0.0
Zn383 Zn 0.90683 0.79106 0.15042 0.0
N384 N 0.83848 0.88609 0.15775 0.0
C385 C 0.81512 0.85305 0.0749 0.0
C386 C 0.83509 0.8619 0.09743 0.0
C387 C 0.8223 0.90013 0.19788 0.0
N388 N 0.79911 0.86671 0.11473 0.0
C389 C 0.80192 0.88947 0.17623 0.0
O390 O 0.89677 0.80132 0.24413 0.0
C391 C 0.88562 0.8231 0.28819 0.0
O392 O 0.87325 0.85913 0.27155 0.0
H393 H 0.84772 0.84908 0.06655 0.0
H394 H 0.82532 0.91918 0.24569 0.0
C395 C 0.95304 0.79376 0.1441 0.0
C396 C 0.97163 0.81979 0.15957 0.0
C397 C 0.95249 0.89332 0.19436 0.0
C398 C 0.93425 0.86761 0.17957 0.0
N399 N 0.93474 0.8184 0.15542 0.0
N400 N 0.97066 0.86887 0.18425 0.0
H401 H 0.95315 0.75446 0.12527 0.0
C402 C 0.88345 0.98985 0.25233 0.0
O403 O 0.89466 0.955 0.28385 0.0
O404 O 0.90431 0.71316 0.14134 0.0
H405 H 0.91963 0.88632 0.18881 0.0
H406 H 0.81233 0.83446 0.02662 0.0
H407 H 0.95225 0.93232 0.21416 0.0
Zn408 Zn 0.36617 0.12475 0.69658 0.0
C409 C 0.38764 0.19662 0.53178 0.0
N410 N 0.38175 0.1535 0.49967 0.0
C411 C 0.37801 0.12045 0.55066 0.0
N412 N 0.38148 0.14258 0.61223 0.0
N413 N 0.38818 0.19023 0.59955 0.0
C414 C 0.38585 0.3237 0.6776 0.0
O415 O 0.37177 0.28944 0.69393 0.0
O416 O 0.36811 0.04808 0.72115 0.0
Zn417 Zn 0.40552 0.22999 0.66016 0.0
N418 N 0.33737 0.14334 0.67687 0.0
C419 C 0.31547 0.19334 0.60516 0.0
C420 C 0.33501 0.17916 0.62691 0.0
C421 C 0.32054 0.12233 0.70796 0.0
N422 N 0.29881 0.17244 0.63564 0.0
C423 C 0.30057 0.13741 0.68679 0.0
O424 O 0.39848 0.21969 0.75659 0.0
C425 C 0.38786 0.19699 0.80122 0.0
O426 O 0.37471 0.16256 0.7848 0.0
H427 H 0.3482 0.19679 0.60361 0.0
H428 H 0.32269 0.09433 0.74812 0.0
C429 C 0.45138 0.22893 0.6436 0.0
C430 C 0.47024 0.20257 0.65237 0.0
C431 C 0.45205 0.12646 0.68262 0.0
C432 C 0.4335 0.15246 0.67452 0.0
N433 N 0.43341 0.20303 0.65571 0.0
N434 N 0.46991 0.15207 0.67163 0.0
H435 H 0.45103 0.26933 0.62934 0.0
C436 C 0.38224 0.03216 0.76106 0.0
O437 O 0.39656 0.06487 0.78061 0.0
O438 O 0.40253 0.30774 0.65085 0.0
H439 H 0.41914 0.13286 0.68492 0.0
H440 H 0.31352 0.22138 0.56495 0.0
H441 H 0.45229 0.08634 0.69812 0.0
Zn442 Zn 0.15969 0.88908 0.19751 0.0
C443 C 0.14574 0.82656 0.02276 0.0
N444 N 0.15411 0.86995 0.9975 0.0
C445 C 0.15505 0.90128 0.05168 0.0
N446 N 0.14752 0.87784 0.10791 0.0
N447 N 0.14094 0.83145 0.08905 0.0
C448 C 0.1398 0.70059 0.1763 0.0
O449 O 0.15193 0.73653 0.20127 0.0
O450 O 0.15837 0.96485 0.22482 0.0
Zn451 Zn 0.11973 0.79242 0.13781 0.0
N452 N 0.18838 0.86574 0.19006 0.0
C453 C 0.21047 0.80383 0.13834 0.0
C454 C 0.19091 0.82367 0.14958 0.0
C455 C 0.20491 0.88815 0.22157 0.0
N456 N 0.22684 0.82571 0.16982 0.0
C457 C 0.22483 0.86705 0.21197 0.0
O458 O 0.11865 0.80508 0.23914 0.0
C459 C 0.13042 0.82074 0.28671 0.0
O460 O 0.14641 0.84776 0.27438 0.0
H461 H 0.1778 0.80541 0.12601 0.0
H462 H 0.20253 0.92178 0.25314 0.0
C463 C 0.07438 0.78893 0.1192 0.0
C464 C 0.05582 0.80455 0.08737 0.0
C465 C 0.07492 0.85975 0.01502 0.0
C466 C 0.09299 0.846 0.04832 0.0
N467 N 0.09267 0.80963 0.09812 0.0
N468 N 0.05685 0.83901 0.03542 0.0
H469 H 0.07428 0.76133 0.16042 0.0
C470 C 0.14415 0.98039 0.26422 0.0
O471 O 0.13026 0.94709 0.28491 0.0
O472 O 0.12515 0.71459 0.13711 0.0
H473 H 0.10715 0.86477 0.03448 0.0
H474 H 0.21261 0.77072 0.10559 0.0
H475 H 0.07516 0.88782 0.97438 0.0
Zn476 Zn 0.36661 0.89379 0.35059 0.0
C477 C 0.39312 0.82962 0.51632 0.0
N478 N 0.38702 0.87426 0.54474 0.0
C479 C 0.38116 0.90244 0.49089 0.0
N480 N 0.38345 0.87646 0.43193 0.0
N481 N 0.3914 0.8307 0.44801 0.0
C482 C 0.38799 0.69397 0.37272 0.0
O483 O 0.37311 0.72722 0.36099 0.0
O484 O 0.3698 0.97009 0.32645 0.0
Zn485 Zn 0.40726 0.78944 0.38484 0.0
N486 N 0.33777 0.87999 0.37621 0.0
C487 C 0.31554 0.84287 0.45889 0.0
C488 C 0.3352 0.8534 0.43514 0.0
C489 C 0.32105 0.89493 0.33859 0.0
N490 N 0.29901 0.85772 0.4218 0.0
C491 C 0.30096 0.88331 0.36191 0.0
O492 O 0.3967 0.79858 0.29188 0.0
C493 C 0.38531 0.81868 0.24691 0.0
O494 O 0.37252 0.85403 0.26225 0.0
H495 H 0.34826 0.83992 0.46387 0.0
H496 H 0.32339 0.91532 0.29137 0.0
C497 C 0.45344 0.79198 0.38856 0.0
C498 C 0.472 0.81798 0.37298 0.0
C499 C 0.45278 0.89202 0.34006 0.0
C500 C 0.43457 0.86646 0.35545 0.0
N501 N 0.43512 0.81703 0.37877 0.0
N502 N 0.47096 0.86725 0.34895 0.0
H503 H 0.45356 0.7524 0.40639 0.0
C504 C 0.38272 0.98444 0.2817 0.0
O505 O 0.39465 0.94946 0.25378 0.0
O506 O 0.40518 0.71137 0.39454 0.0
H507 H 0.41993 0.88543 0.34725 0.0
H508 H 0.31341 0.82219 0.506 0.0
H509 H 0.45248 0.93118 0.3208 0.0
Zn510 Zn 0.11832 0.22351 0.88431 0.0
C511 C 0.15271 0.1202 0.98513 0.0
N512 N 0.15106 0.15444 0.03599 0.0
C513 C 0.14304 0.19626 1.0057 0.0
N514 N 0.13919 0.18786 0.93916 0.0
N515 N 0.14603 0.14058 0.92529 0.0
C516 C 0.13995 0.0361 0.77469 0.0
O517 O 0.12533 0.07027 0.76421 0.0
O518 O 0.12197 0.30214 0.88516 0.0
Zn519 Zn 0.15865 0.1255 0.83646 0.0
N520 N 0.09116 0.20031 0.91593 0.0
C521 C 0.07349 0.13652 0.98075 0.0
C522 C 0.09154 0.15588 0.95298 0.0
C523 C 0.07288 0.22428 0.90158 0.0
N524 N 0.05543 0.16068 0.96757 0.0
C525 C 0.05441 0.20369 0.92805 0.0
O526 O 0.14723 0.16571 0.75458 0.0
C527 C 0.13164 0.19313 0.73854 0.0
O528 O 0.11951 0.21047 0.7836 0.0
H529 H 0.10585 0.13601 0.96253 0.0
H530 H 0.07269 0.2584 0.86981 0.0
C531 C 0.20394 0.12337 0.81449 0.0
C532 C 0.22412 0.14141 0.82805 0.0
C533 C 0.21046 0.20268 0.90534 0.0
C534 C 0.19065 0.18587 0.89046 0.0
N535 N 0.18764 0.14598 0.84657 0.0
N536 N 0.22662 0.18029 0.8738 0.0
H537 H 0.20121 0.09177 0.77969 0.0
C538 C 0.13694 0.31738 0.8484 0.0
O539 O 0.15001 0.28259 0.82618 0.0
O540 O 0.1558 0.0498 0.80859 0.0
H541 H 0.17777 0.20474 0.91414 0.0
H542 H 0.07377 0.10204 1.01178 0.0
H543 H 0.21298 0.23387 0.94095 0.0
C544 C 0.15685 0.27187 0.06734 0.0
C545 C 0.13945 0.24399 0.04495 0.0
C546 C 0.15632 0.30187 0.12686 0.0
C547 C 0.13838 0.30428 0.16645 0.0
H548 H 0.17152 0.26649 0.04226 0.0
H549 H 0.17049 0.3192 0.14504 0.0
S550 S 0.08783 0.24518 0.12409 0.0
N551 N 0.10332 0.22578 0.06308 0.0
N552 N 0.10199 0.28261 0.17348 0.0
C553 C 0.12038 0.28082 0.1408 0.0
C554 C 0.12099 0.25045 0.08044 0.0
C555 C 0.41295 0.7907 0.61052 0.0
C556 C 0.39823 0.78442 0.5589 0.0
C557 C 0.41287 0.75916 0.66835 0.0
C558 C 0.39771 0.72068 0.67779 0.0
H559 H 0.42358 0.82299 0.60877 0.0
H560 H 0.42381 0.76803 0.70826 0.0
S561 S 0.35743 0.68446 0.55214 0.0
N562 N 0.36953 0.73368 0.51685 0.0
N563 N 0.36925 0.67391 0.62511 0.0
C564 C 0.38411 0.71091 0.62326 0.0
C565 C 0.38437 0.74297 0.564 0.0
C566 C 0.12542 0.79404 0.92652 0.0
C567 C 0.13992 0.78377 0.97749 0.0
C568 C 0.12432 0.76373 0.86816 0.0
C569 C 0.13826 0.72279 0.85673 0.0
H570 H 0.1159 0.82832 0.92889 0.0
H571 H 0.11329 0.77513 0.82965 0.0
S572 S 0.17815 0.67752 0.97826 0.0
N573 N 0.16742 0.72757 0.01639 0.0
N574 N 0.16589 0.67073 0.90523 0.0
C575 C 0.15202 0.7099 0.90949 0.0
C576 C 0.1528 0.74053 0.97002 0.0
C577 C 0.40823 0.24434 0.44828 0.0
C578 C 0.39164 0.24441 0.4935 0.0
C579 C 0.40779 0.27441 0.38922 0.0
C580 C 0.39052 0.3051 0.37227 0.0
H581 H 0.42076 0.21715 0.45527 0.0
H582 H 0.42045 0.2703 0.35403 0.0
S583 S 0.34447 0.32438 0.48015 0.0
N584 N 0.35871 0.2824 0.52258 0.0
N585 N 0.35763 0.33881 0.41117 0.0
C586 C 0.37477 0.30955 0.42077 0.0
C587 C 0.37538 0.27911 0.48144 0.0
C588 C 0.91191 0.75788 0.86747 0.0
C589 C 0.89621 0.72094 0.85654 0.0
C590 C 0.9122 0.7892 0.92552 0.0
C591 C 0.89717 0.78422 0.97601 0.0
H592 H 0.9232 0.76576 0.82855 0.0
H593 H 0.92331 0.82043 0.92824 0.0
S594 S 0.85485 0.6882 0.97897 0.0
N595 N 0.86678 0.6769 0.90668 0.0
N596 N 0.86757 0.73598 0.01565 0.0
C597 C 0.8827 0.74413 0.96955 0.0
C598 C 0.88219 0.71238 0.90993 0.0
C599 C 0.64153 0.28221 0.45092 0.0
C600 C 0.63008 0.23652 0.45872 0.0
C601 C 0.63972 0.31236 0.39169 0.0
C602 C 0.62632 0.29787 0.33836 0.0
H603 H 0.65348 0.29177 0.48732 0.0
H604 H 0.65009 0.34483 0.38554 0.0
S605 S 0.59051 0.18564 0.34038 0.0
N606 N 0.60345 0.1812 0.4122 0.0
N607 N 0.59906 0.2386 0.30334 0.0
C608 C 0.6131 0.25542 0.34967 0.0
C609 C 0.61528 0.2245 0.40916 0.0
C610 C 0.91138 0.27355 0.15174 0.0
C611 C 0.89494 0.30768 0.16549 0.0
C612 C 0.91165 0.24301 0.09297 0.0
C613 C 0.89575 0.24589 0.0447 0.0
H614 H 0.92337 0.26707 0.18909 0.0
H615 H 0.92339 0.21344 0.08842 0.0
S616 S 0.85116 0.33505 0.04903 0.0
N617 N 0.86382 0.34752 0.11996 0.0
N618 N 0.86452 0.2898 1.00977 0.0
C619 C 0.88049 0.28368 0.05371 0.0
C620 C 0.88004 0.31468 0.11399 0.0
C621 C 0.6265 0.78996 0.58308 0.0
C622 C 0.64222 0.78205 0.53583 0.0
C623 C 0.62526 0.76041 0.64214 0.0
C624 C 0.64022 0.72271 0.65838 0.0
H625 H 0.616 0.82211 0.57762 0.0
H626 H 0.61312 0.76996 0.67751 0.0
S627 S 0.68393 0.6847 0.54848 0.0
N628 N 0.67232 0.73152 0.506 0.0
N629 N 0.67046 0.67633 0.61857 0.0
C630 C 0.65541 0.71214 0.60951 0.0
C631 C 0.65638 0.74197 0.54819 0.0
C632 C 0.60914 0.77072 0.14394 0.0
C633 C 0.62572 0.80489 0.15562 0.0
C634 C 0.6081 0.74019 0.08522 0.0
C635 C 0.62338 0.74296 0.03512 0.0
H636 H 0.5977 0.76416 0.18284 0.0
H637 H 0.5963 0.71062 0.08211 0.0
S638 S 0.66784 0.83263 0.03378 0.0
N639 N 0.6561 0.84513 0.10607 0.0
N640 N 0.65406 0.78712 0.99635 0.0
C641 C 0.63867 0.78097 0.0421 0.0
C642 C 0.63987 0.8121 0.10218 0.0
C643 C 0.86683 0.2242 0.62652 0.0
C644 C 0.88496 0.22062 0.66542 0.0
C645 C 0.86623 0.25442 0.56723 0.0
C646 C 0.88377 0.28122 0.54429 0.0
H647 H 0.85262 0.2075 0.64501 0.0
H648 H 0.8515 0.26052 0.54247 0.0
S649 S 0.93582 0.27687 0.62148 0.0
N650 N 0.92159 0.24025 0.67134 0.0
N651 N 0.92017 0.29732 0.56107 0.0
C652 C 0.90237 0.27373 0.5791 0.0
C653 C 0.90303 0.24322 0.63935 0.0
C654 C 0.62118 0.26777 0.8439 0.0
C655 C 0.63315 0.22268 0.83624 0.0
C656 C 0.62307 0.29921 0.9012 0.0
C657 C 0.63635 0.28614 0.95484 0.0
H658 H 0.61137 0.28135 0.8031 0.0
H659 H 0.615 0.33588 0.90135 0.0
S660 S 0.66954 0.16994 0.96439 0.0
N661 N 0.65783 0.16477 0.89017 0.0
N662 N 0.66075 0.22365 0.99923 0.0
C663 C 0.64732 0.23949 0.95057 0.0
C664 C 0.64583 0.20778 0.89108 0.0
C665 C 0.90096 0.76291 0.37324 0.0
C666 C 0.88629 0.80155 0.35829 0.0
C667 C 0.89973 0.73322 0.43219 0.0
C668 C 0.88424 0.74182 0.48014 0.0
H669 H 0.91272 0.75263 0.33685 0.0
H670 H 0.90988 0.70025 0.43683 0.0
S671 S 0.84382 0.8426 0.47159 0.0
N672 N 0.85695 0.85029 0.40071 0.0
N673 N 0.85506 0.79457 0.51272 0.0
C674 C 0.87061 0.78319 0.46937 0.0
C675 C 0.87159 0.81321 0.40837 0.0
C676 C 0.40788 0.27674 0.94817 0.0
C677 C 0.39132 0.27658 0.99348 0.0
C678 C 0.4074 0.24666 0.88913 0.0
C679 C 0.39013 0.21588 0.87233 0.0
H680 H 0.42038 0.30404 0.95501 0.0
H681 H 0.42003 0.25082 0.85383 0.0
S682 S 0.34424 0.19613 0.98064 0.0
N683 N 0.35847 0.23822 0.02296 0.0
N684 N 0.35734 0.18185 0.91149 0.0
C685 C 0.37445 0.21125 0.92096 0.0
C686 C 0.3751 0.24168 0.98163 0.0
C687 C 0.1125 0.72749 0.4228 0.0
C688 C 0.12705 0.7344 0.47479 0.0
C689 C 0.11244 0.75909 0.36503 0.0
C690 C 0.12732 0.79828 0.35593 0.0
H691 H 0.10207 0.69478 0.42433 0.0
H692 H 0.10162 0.74977 0.32494 0.0
S693 S 0.16721 0.836 0.48221 0.0
N694 N 0.15535 0.78633 0.51736 0.0
N695 N 0.15544 0.84605 0.40901 0.0
C696 C 0.14083 0.80845 0.41061 0.0
C697 C 0.14067 0.77639 0.4699 0.0
C698 C 0.39888 0.72403 0.10804 0.0
C699 C 0.3845 0.73466 0.05682 0.0
C700 C 0.39996 0.75424 0.1665 0.0
C701 C 0.38614 0.79547 0.17777 0.0
H702 H 0.40833 0.68963 0.10569 0.0
H703 H 0.41089 0.74256 0.20516 0.0
S704 S 0.34664 0.84173 0.05545 0.0
N705 N 0.35726 0.79145 0.01748 0.0
N706 N 0.35878 0.84817 0.12877 0.0
C707 C 0.37249 0.80865 0.12478 0.0
C708 C 0.37173 0.7781 0.06416 0.0
C709 C 0.11196 0.27677 0.59398 0.0
C710 C 0.12808 0.27497 0.54685 0.0
C711 C 0.1123 0.2462 0.65272 0.0
C712 C 0.12905 0.2132 0.6677 0.0
H713 H 0.09991 0.30548 0.58851 0.0
H714 H 0.10006 0.25178 0.68916 0.0
S715 S 0.17366 0.18902 0.5546 0.0
N716 N 0.15994 0.23321 0.51422 0.0
N717 N 0.16084 0.17569 0.62463 0.0
C718 C 0.14426 0.2073 0.61736 0.0
C719 C 0.14372 0.23823 0.557 0.0
C720 C 0.01854 0.29612 0.33497 0.0
C721 C 0.03346 0.29662 0.38699 0.0
C722 C 0.99737 0.29545 0.34971 0.0
C723 C 0.99044 0.2964 0.4171 0.0
H724 H 0.02324 0.30074 0.28269 0.0
H725 H 0.98648 0.29981 0.30836 0.0
S726 S 0.02324 0.29114 0.57119 0.0
N727 N 0.03983 0.29189 0.50796 0.0
N728 N 1.00012 0.29179 0.53595 0.0
C729 C 1.00521 0.29209 0.46923 0.0
C730 C 0.02673 0.29191 0.45413 0.0
C731 C 0.51525 0.72001 0.82959 0.0
C732 C 0.53182 0.72389 0.87575 0.0
C733 C 0.4947 0.72291 0.85127 0.0
C734 C 0.48994 0.72901 0.92024 0.0
H735 H 0.51819 0.71112 0.77684 0.0
H736 H 0.48257 0.71558 0.81467 0.0
S737 S 0.52752 0.74837 0.06021 0.0
N738 N 0.54198 0.74006 0.9924 0.0
N739 N 0.50342 0.74519 0.03335 0.0
C740 C 0.50634 0.73743 0.96595 0.0
C741 C 0.52727 0.73503 0.94371 0.0
C742 C 1.00468 0.7344 0.56371 0.0
C743 C 0.9893 0.72568 0.61275 0.0
C744 C 0.02575 0.73148 0.58026 0.0
C745 C 0.03216 0.7189 0.64628 0.0
H746 H 1.0004 0.7397 0.51105 0.0
H747 H 0.03696 0.73425 0.53988 0.0
S748 S 0.99832 0.69911 0.79505 0.0
N749 N 0.98218 0.70964 0.73166 0.0
N750 N 0.02166 0.70346 0.76247 0.0
C751 C 0.01702 0.71452 0.69684 0.0
C752 C 0.9956 0.71818 0.68022 0.0
C753 C 0.50691 0.30488 0.18306 0.0
C754 C 0.49085 0.29522 0.13647 0.0
C755 C 0.52768 0.29841 0.16498 0.0
C756 C 0.53311 0.28303 0.09912 0.0
H757 H 0.50345 0.3214 0.23217 0.0
H758 H 0.53948 0.31069 0.20045 0.0
S759 S 0.49692 0.24616 0.96139 0.0
N760 N 0.48179 0.26354 0.02453 0.0
N761 N 0.52075 0.25233 0.98994 0.0
C762 C 0.51716 0.26873 0.05424 0.0
C763 C 0.49603 0.27458 0.07304 0.0
C764 C 0.50781 0.80192 0.33293 0.0
C765 C 0.49283 0.79566 0.38384 0.0
C766 C 0.52895 0.79739 0.34739 0.0
C767 C 0.53586 0.78738 0.41367 0.0
H768 H 0.50321 0.81432 0.28265 0.0
H769 H 0.53989 0.80702 0.30805 0.0
S770 S 0.50295 0.76065 0.56291 0.0
N771 N 0.48639 0.77271 0.50113 0.0
N772 N 0.52607 0.7651 0.52871 0.0
C773 C 0.52101 0.77636 0.46348 0.0
C774 C 0.49948 0.78024 0.4485 0.0
C775 C 0.99759 0.22833 0.94618 0.0
C776 C 0.99052 0.22049 0.87962 0.0
C777 C 0.0188 0.22897 0.96092 0.0
C778 C 0.0336 0.22271 0.90949 0.0
H779 H 0.98676 0.22868 0.98781 0.0
H780 H 0.02362 0.23005 0.01353 0.0
S781 S 0.02282 0.20798 0.72608 0.0
N782 N 0.99981 0.21169 0.76121 0.0
N783 N 0.0396 0.21397 0.7887 0.0
C784 C 0.02668 0.22019 0.84209 0.0
C785 C 1.00513 0.21873 0.82724 0.0
C786 C 0.49691 0.23282 0.57167 0.0
C787 C 0.49061 0.2259 0.63903 0.0
C788 C 0.51793 0.23391 0.555 0.0
C789 C 0.53331 0.22881 0.60518 0.0
H790 H 0.48565 0.23179 0.53103 0.0
H791 H 0.52216 0.23405 0.50193 0.0
S792 S 0.52456 0.21802 0.79006 0.0
N793 N 0.50117 0.22009 0.75684 0.0
N794 N 0.54064 0.22309 0.72573 0.0
C795 C 0.52714 0.2277 0.6733 0.0
C796 C 0.50576 0.22589 0.69014 0.0
C797 C 0.99828 0.78427 0.08126 0.0
C798 C 0.99238 0.79778 0.14732 0.0
C799 C 0.01921 0.78088 0.06372 0.0
C800 C 0.03495 0.79012 0.11175 0.0
H801 H 0.98679 0.78121 0.04151 0.0
H802 H 0.02311 0.7749 1.01095 0.0
S803 S 0.02726 0.81872 0.29402 0.0
N804 N 1.0037 0.81423 0.2627 0.0
N805 N 0.04294 0.80738 0.23001 0.0
C806 C 0.02914 0.79839 0.17941 0.0
C807 C 1.00786 0.80243 0.19705 0.0
C808 C 0.28012 0.39645 0.30238 0.0
C809 C 0.28026 0.38999 0.23165 0.0
C810 C 0.26152 0.39759 0.33853 0.0
C811 C 0.24227 0.39243 0.30568 0.0
H812 H 0.29442 0.39678 0.33078 0.0
H813 H 0.2623 0.39966 0.39332 0.0
S814 S 0.2342 0.38165 0.11979 0.0
N815 N 0.25944 0.38477 0.12911 0.0
N816 N 0.22465 0.38517 0.19703 0.0
C817 C 0.24216 0.38997 0.23444 0.0
C818 C 0.26111 0.38911 0.19758 0.0
C819 C 0.26089 0.61396 0.69604 0.0
C820 C 0.24186 0.62536 0.72705 0.0
C821 C 0.27966 0.61884 0.73121 0.0
C822 C 0.28018 0.63558 0.79897 0.0
H823 H 0.26141 0.60405 0.64273 0.0
H824 H 0.29383 0.61329 0.7034 0.0
S825 S 0.23472 0.66355 0.90678 0.0
N826 N 0.22479 0.64946 0.83191 0.0
N827 N 0.25988 0.65731 0.89834 0.0
C828 C 0.2612 0.64287 0.83225 0.0
C829 C 0.24209 0.63803 0.79637 0.0
C830 C 0.74186 0.63283 0.74287 0.0
C831 C 0.74139 0.62268 0.81286 0.0
C832 C 0.76064 0.63749 0.70824 0.0
C833 C 0.77977 0.63215 0.74183 0.0
H834 H 0.72778 0.64106 0.71539 0.0
H835 H 0.76017 0.64837 0.65523 0.0
S836 S 0.7869 0.59828 0.92319 0.0
N837 N 0.76169 0.60107 0.91287 0.0
N838 N 0.79684 0.61139 0.84829 0.0
C839 C 0.77948 0.61798 0.81062 0.0
C840 C 0.76034 0.61299 0.84589 0.0
C841 C 0.76017 0.39308 0.19096 0.0
C842 C 0.74135 0.39029 0.22626 0.0
C843 C 0.77915 0.39453 0.22535 0.0
C844 C 0.78 0.3927 0.29647 0.0
H845 H 0.7603 0.39037 0.13617 0.0
H846 H 0.79318 0.3922 0.19595 0.0
S847 S 0.73527 0.3933 0.41301 0.0
N848 N 0.72484 0.39195 0.33658 0.0
N849 N 0.76042 0.39498 0.40113 0.0
C850 C 0.76129 0.39493 0.33232 0.0
C851 C 0.74197 0.39371 0.2973 0.0
C852 C 0.76455 0.91079 0.18631 0.0
C853 C 0.78329 0.89793 0.21863 0.0
C854 C 0.74554 0.90526 0.21929 0.0
C855 C 0.74452 0.88632 0.28595 0.0
H856 H 0.76445 0.92207 0.13343 0.0
H857 H 0.73158 0.91177 0.19034 0.0
S858 S 0.78908 0.85447 0.39692 0.0
N859 N 0.79958 0.87067 0.32391 0.0
N860 N 0.764 0.86134 0.38624 0.0
C861 C 0.76321 0.87787 0.32088 0.0
C862 C 0.78257 0.88346 0.28727 0.0
C863 C 0.7631 0.12806 0.6976 0.0
C864 C 0.7435 0.13038 0.72811 0.0
C865 C 0.78129 0.1271 0.73631 0.0
C866 C 0.7807 0.12833 0.80754 0.0
H867 H 0.76449 0.12983 0.64295 0.0
H868 H 0.79584 0.12908 0.70982 0.0
S869 S 0.73337 0.12756 0.91315 0.0
N870 N 0.7247 0.12951 0.8345 0.0
N871 N 0.75871 0.12563 0.90717 0.0
C872 C 0.76116 0.12641 0.83878 0.0
C873 C 0.74262 0.12783 0.79925 0.0
C874 C 0.28061 0.12036 0.79305 0.0
C875 C 0.28136 0.12133 0.72189 0.0
C876 C 0.26169 0.12148 0.8272 0.0
C877 C 0.2428 0.12332 0.79169 0.0
H878 H 0.29463 0.12346 0.8227 0.0
H879 H 0.2619 0.12472 0.88195 0.0
S880 S 0.23642 0.11735 0.60499 0.0
N881 N 0.26159 0.11656 0.61712 0.0
N882 N 0.22613 0.11969 0.68128 0.0
C883 C 0.24332 0.11905 0.72074 0.0
C884 C 0.26259 0.11788 0.68592 0.0
C885 C 0.28158 0.88561 0.25116 0.0
C886 C 0.28183 0.89327 0.3217 0.0
C887 C 0.26291 0.88157 0.21532 0.0
C888 C 0.2437 0.8852 0.24827 0.0
H889 H 0.29578 0.87874 0.224 0.0
H890 H 0.26354 0.87255 0.16176 0.0
S891 S 0.236 0.91229 0.43114 0.0
N892 N 0.26125 0.9106 0.42193 0.0
N893 N 0.22629 0.90166 0.35499 0.0
C894 C 0.24376 0.89695 0.31785 0.0
C895 C 0.26279 0.90121 0.35436 0.0
C896 C 0.12765 0.47767 0.53473 0.0
C897 C 0.1443 0.45398 0.50148 0.0
C898 C 0.1283 0.52973 0.55333 0.0
C899 C 0.14568 0.55998 0.53968 0.0
H900 H 0.11384 0.45578 0.54588 0.0
H901 H 0.11478 0.54699 0.5761 0.0
S902 S 0.19454 0.51504 0.46357 0.0
N903 N 0.17957 0.46334 0.46301 0.0
N904 N 0.18063 0.56223 0.49654 0.0
C905 C 0.16278 0.53663 0.50896 0.0
C906 C 0.16215 0.48323 0.49023 0.0
C907 C 0.38368 0.52907 0.96277 0.0
C908 C 0.36831 0.56068 0.99039 0.0
C909 C 0.38606 0.47768 0.98397 0.0
C910 C 0.37321 0.45546 0.03365 0.0
H911 H 0.39467 0.54481 0.92709 0.0
H912 H 0.39843 0.45526 0.96183 0.0
S913 S 0.32834 0.51947 0.11293 0.0
N914 N 0.33879 0.56506 0.06546 0.0
N915 N 0.3427 0.46736 0.10238 0.0
C916 C 0.35705 0.48573 0.05887 0.0
C917 C 0.35476 0.53856 0.03794 0.0
C918 C 0.88103 0.54735 0.47909 0.0
C919 C 0.86811 0.56592 0.53107 0.0
C920 C 0.88075 0.49536 0.45876 0.0
C921 C 0.86748 0.45957 0.48938 0.0
H922 H 0.89177 0.57324 0.45439 0.0
H923 H 0.89174 0.48271 0.42106 0.0
S924 S 0.8288 0.48932 0.62199 0.0
N925 N 0.84022 0.54537 0.60776 0.0
N926 N 0.84013 0.44695 0.57167 0.0
C927 C 0.85402 0.47785 0.54007 0.0
C928 C 0.8542 0.53114 0.56038 0.0
C929 C 0.65865 0.53714 0.96456 0.0
C930 C 0.64212 0.56444 0.99304 0.0
C931 C 0.66239 0.48516 0.98206 0.0
C932 C 0.64998 0.45917 0.02958 0.0
H933 H 0.66881 0.5558 0.92902 0.0
H934 H 0.67485 0.46479 0.95736 0.0
S935 S 0.60488 0.51352 0.11945 0.0
N936 N 0.61337 0.56143 0.07198 0.0
N937 N 0.62054 0.46468 0.10465 0.0
C938 C 0.63382 0.48654 0.05984 0.0
C939 C 0.62988 0.5389 0.04165 0.0
C940 C 0.64294 0.98976 0.43958 0.0
C941 C 0.65743 0.95755 0.47122 0.0
C942 C 0.64106 0.04183 0.45791 0.0
C943 C 0.65356 0.06428 0.50871 0.0
H944 H 0.63225 0.97415 0.40258 0.0
H945 H 0.62933 0.06461 0.43253 0.0
S946 S 0.69558 0.99781 0.6015 0.0
N947 N 0.6854 0.95219 0.5532 0.0
N948 N 0.68237 0.05102 0.58528 0.0
C949 C 0.66866 0.03306 0.53899 0.0
C950 C 0.67046 0.97953 0.52081 0.0
C951 C 0.89372 0.99304 0.06239 0.0
C952 C 0.87862 0.96 0.0362 0.0
C953 C 0.89402 0.04534 0.04488 0.0
C954 C 0.87915 0.0668 1.00085 0.0
H955 H 0.90599 0.97787 0.09409 0.0
H956 H 0.90634 0.06907 0.06521 0.0
S957 S 0.83414 0.99753 0.92905 0.0
N958 N 0.84736 0.9522 0.96915 0.0
N959 N 0.84709 0.05193 0.94015 0.0
C960 C 0.86321 0.03466 0.97759 0.0
C961 C 0.86318 0.98081 0.99427 0.0
C962 C 0.39255 0.04422 0.49292 0.0
C963 C 0.37732 0.06442 0.53621 0.0
C964 C 0.39257 0.9922 0.47363 0.0
C965 C 0.37738 0.95827 0.49706 0.0
H966 H 0.40485 0.0688 0.47453 0.0
H967 H 0.40514 0.9779 0.44289 0.0
S968 S 0.33196 0.99322 0.60041 0.0
N969 N 0.34493 0.04795 0.59321 0.0
N970 N 0.34557 0.94884 0.56018 0.0
C971 C 0.36155 0.97809 0.53797 0.0
C972 C 0.36134 0.03158 0.5567 0.0
C973 C 0.14364 0.99196 0.07368 0.0
C974 C 0.15751 0.95797 0.04236 0.0
C975 C 0.14231 0.04397 0.05375 0.0
C976 C 0.15466 0.06424 1.00133 0.0
H977 H 0.13296 0.97777 0.11138 0.0
H978 H 0.13112 0.0684 0.07879 0.0
S979 S 0.19533 0.99302 0.90937 0.0
N980 N 0.18496 0.94915 0.95969 0.0
N981 N 0.18282 0.04745 0.9242 0.0
C982 C 0.16922 0.03137 0.97174 0.0
C983 C 0.17054 0.97816 0.99176 0.0
C984 C 0.12846 0.09963 0.36501 0.0
C985 C 0.14053 0.13915 0.33673 0.0
C986 C 0.12984 0.04854 0.34136 0.0
C987 C 0.14323 0.03491 0.28811 0.0
H988 H 0.11789 0.10819 0.40582 0.0
H989 H 0.12028 0.0195 0.36523 0.0
S990 S 0.17702 0.12495 0.19309 0.0
N991 N 0.16566 0.16169 0.25019 0.0
N992 N 0.16818 0.06595 0.20599 0.0
C993 C 0.15525 0.07423 0.25892 0.0
C994 C 0.15391 0.12621 0.28315 0.0
C995 C 0.39968 0.95936 0.8232 0.0
C996 C 0.38223 0.97836 0.78843 0.0
C997 C 0.40019 0.90901 0.84999 0.0
C998 C 0.38327 0.87536 0.84309 0.0
H999 H 0.41325 0.98333 0.82912 0.0
H1000 H 0.41419 0.89596 0.87459 0.0
S1001 S 0.33308 0.90749 0.76239 0.0
N1002 N 0.34703 0.96036 0.75316 0.0
N1003 N 0.34803 0.86587 0.80255 0.0
C1004 C 0.3655 0.89431 0.81019 0.0
C1005 C 0.36497 0.94563 0.78307 0.0
C1006 C 0.15464 0.94783 0.75308 0.0
C1007 C 0.13849 0.98345 0.74406 0.0
C1008 C 0.15381 0.89824 0.72439 0.0
C1009 C 0.13676 0.88174 0.68547 0.0
H1010 H 0.16806 0.95811 0.78289 0.0
H1011 H 0.16657 0.87231 0.73419 0.0
S1012 S 0.09068 0.96064 0.64385 0.0
N1013 N 0.10508 0.99907 0.69111 0.0
N1014 N 0.10358 0.90586 0.63767 0.0
C1015 C 0.12064 0.91719 0.67494 0.0
C1016 C 0.12148 0.96789 0.70411 0.0
C1017 C 0.39689 0.10333 0.17696 0.0
C1018 C 0.38529 0.14312 0.20671 0.0
C1019 C 0.39603 0.05242 0.20185 0.0
C1020 C 0.38367 0.03918 0.25796 0.0
H1021 H 0.40663 0.11147 0.13379 0.0
H1022 H 0.4051 0.02318 0.17644 0.0
S1023 S 0.35161 0.13014 0.35791 0.0
N1024 N 0.36184 0.16632 0.29792 0.0
N1025 N 0.36035 0.07112 0.34456 0.0
C1026 C 0.37229 0.07889 0.28902 0.0
C1027 C 0.37306 0.13063 0.26344 0.0
C1028 C 0.87082 0.8941 0.74683 0.0
C1029 C 0.88462 0.87881 0.69549 0.0
C1030 C 0.87026 0.94513 0.77121 0.0
C1031 C 0.88345 0.9835 0.74541 0.0
H1032 H 0.86044 0.86626 0.76942 0.0
H1033 H 0.8594 0.95439 0.81084 0.0
S1034 S 0.92223 0.96432 0.60926 0.0
N1035 N 0.91161 0.9068 0.61886 0.0
N1036 N 0.91063 1.00249 0.66423 0.0
C1037 C 0.89723 0.96892 0.69351 0.0
C1038 C 0.89779 0.9168 0.66868 0.0
C1039 C 0.63142 0.10428 0.14776 0.0
C1040 C 0.64248 0.14414 0.17987 0.0
C1041 C 0.63267 0.05295 0.17062 0.0
C1042 C 0.64506 0.03905 0.22662 0.0
H1043 H 0.62153 0.11275 0.10484 0.0
H1044 H 0.62376 0.02392 0.14396 0.0
S1045 S 0.67688 0.12876 0.32987 0.0
N1046 N 0.66616 0.16604 0.27174 0.0
N1047 N 0.66853 0.0697 0.314 0.0
C1048 C 0.65635 0.07839 0.25901 0.0
C1049 C 0.65506 0.13079 0.23584 0.0
C1050 C 0.89622 0.05907 0.33178 0.0
C1051 C 0.88433 0.04505 0.27459 0.0
C1052 C 0.89695 0.11035 0.35549 0.0
C1053 C 0.88572 0.14991 0.32338 0.0
H1054 H 0.90503 0.03014 0.35899 0.0
H1055 H 0.90634 0.11893 0.39958 0.0
S1056 S 0.85302 0.13467 0.16927 0.0
N1057 N 0.86164 0.07584 0.18497 0.0
N1058 N 0.86292 0.17174 0.22917 0.0
C1059 C 0.87392 0.13659 0.26561 0.0
C1060 C 0.87326 0.08442 0.24132 0.0
C1061 C 0.65404 0.90223 0.78694 0.0
C1062 C 0.63704 0.88602 0.8259 0.0
C1063 C 0.65505 0.952 0.75879 0.0
C1064 C 0.63916 0.98819 0.7685 0.0
H1065 H 0.66663 0.87593 0.77667 0.0
H1066 H 0.66843 0.962 0.72893 0.0
S1067 S 0.59153 0.96624 0.86879 0.0
N1068 N 0.60414 0.91096 0.87421 0.0
N1069 N 0.60601 1.00453 0.82192 0.0
C1070 C 0.6222 0.97291 0.80845 0.0
C1071 C 0.62115 0.92197 0.83697 0.0
C1072 C 0.63358 0.60522 0.35386 0.0
C1073 C 0.64209 0.64462 0.3137 0.0
C1074 C 0.63499 0.55302 0.33469 0.0
C1075 C 0.64489 0.53783 0.27432 0.0
H1076 H 0.62574 0.6147 0.40061 0.0
H1077 H 0.62817 0.52435 0.36775 0.0
S1078 S 0.66908 0.62612 0.14935 0.0
N1079 N 0.6604 0.66481 0.20931 0.0
N1080 N 0.66302 0.56702 0.17374 0.0
C1081 C 0.65342 0.57687 0.23345 0.0
C1082 C 0.65203 0.63007 0.25301 0.0
C1083 C 0.86772 0.45346 0.78005 0.0
C1084 C 0.88429 0.48819 0.78628 0.0
C1085 C 0.86873 0.40346 0.80739 0.0
C1086 C 0.88638 0.38569 0.84215 0.0
H1087 H 0.85382 0.46473 0.75342 0.0
H1088 H 0.85561 0.37821 0.79976 0.0
S1089 S 0.93372 0.46209 0.87592 0.0
N1090 N 0.91873 0.50175 0.83258 0.0
N1091 N 0.92057 0.4078 0.8836 0.0
C1092 C 0.90291 0.42035 0.85026 0.0
C1093 C 0.90189 0.47145 0.82241 0.0
C1094 C 0.62578 0.41269 0.65999 0.0
C1095 C 0.63857 0.37377 0.68684 0.0
C1096 C 0.62645 0.46367 0.68499 0.0
C1097 C 0.63982 0.47809 0.73838 0.0
H1098 H 0.61518 0.40383 0.61911 0.0
H1099 H 0.61634 0.49203 0.66197 0.0
S1100 S 0.67601 0.39036 0.82847 0.0
N1101 N 0.6647 0.35311 0.77158 0.0
N1102 N 0.66594 0.4484 0.81789 0.0
C1103 C 0.65255 0.43938 0.76615 0.0
C1104 C 0.65194 0.38752 0.74058 0.0
C1105 C 0.89577 0.55269 0.19011 0.0
C1106 C 0.88214 0.54014 0.2432 0.0
C1107 C 0.89718 0.60323 0.16445 0.0
C1108 C 0.88492 0.64327 0.19049 0.0
H1109 H 0.90545 0.52319 0.16782 0.0
H1110 H 0.90792 0.61093 0.1238 0.0
S1111 S 0.84788 0.632 0.33309 0.0
N1112 N 0.85685 0.57281 0.32295 0.0
N1113 N 0.85942 0.66752 0.27505 0.0
C1114 C 0.87135 0.63143 0.24403 0.0
C1115 C 0.86998 0.58001 0.27028 0.0
C1116 C 0.39345 0.46928 0.69141 0.0
C1117 C 0.38083 0.48311 0.74659 0.0
C1118 C 0.39481 0.41791 0.66874 0.0
C1119 C 0.38352 0.37826 0.70001 0.0
H1120 H 0.4024 0.49838 0.66524 0.0
H1121 H 0.40479 0.40924 0.62634 0.0
S1122 S 0.34933 0.39302 0.84963 0.0
N1123 N 0.35751 0.45221 0.83376 0.0
N1124 N 0.35999 0.35595 0.79141 0.0
C1125 C 0.37091 0.39143 0.75555 0.0
C1126 C 0.36959 0.44372 0.77875 0.0
C1127 C 0.13013 0.60629 0.17055 0.0
C1128 C 0.14147 0.64625 0.20145 0.0
C1129 C 0.1307 0.55545 0.19585 0.0
C1130 C 0.14257 0.54218 0.25342 0.0
H1131 H 0.12067 0.61427 0.12643 0.0
H1132 H 0.12173 0.52629 0.16967 0.0
S1133 S 0.17448 0.63298 0.35495 0.0
N1134 N 0.16458 0.66918 0.29424 0.0
N1135 N 0.16561 0.57406 0.34126 0.0
C1136 C 0.1539 0.58187 0.28502 0.0
C1137 C 0.15337 0.63365 0.2592 0.0
C1138 C 0.40309 0.60665 0.34639 0.0
C1139 C 0.38584 0.63956 0.3486 0.0
C1140 C 0.4019 0.55731 0.31678 0.0
C1141 C 0.38345 0.53872 0.2878 0.0
H1142 H 0.41779 0.61943 0.36637 0.0
H1143 H 0.41571 0.53382 0.31596 0.0
S1144 S 0.33339 0.60805 0.28412 0.0
N1145 N 0.34934 0.64866 0.32181 0.0
N1146 N 0.34724 0.55637 0.2663 0.0
C1147 C 0.36596 0.57073 0.29092 0.0
C1148 C 0.36712 0.62088 0.32134 0.0
C1149 C 0.12747 0.41171 0.85621 0.0
C1150 C 0.13845 0.37191 0.82392 0.0
C1151 C 0.1284 0.46303 0.83276 0.0
C1152 C 0.14024 0.47686 0.77566 0.0
H1153 H 0.11817 0.40329 0.9003 0.0
H1154 H 0.11981 0.49216 0.86014 0.0
S1155 S 0.17077 0.38656 0.66968 0.0
N1156 N 0.16086 0.34963 0.72948 0.0
N1157 N 0.16249 0.44561 0.6857 0.0
C1158 C 0.15101 0.43725 0.74212 0.0
C1159 C 0.15015 0.38502 0.76615 0.0
loop_
_geom_bond_atom_site_label_1
_geom_bond_atom_site_label_2
_geom_bond_distance
_geom_bond_site_symmetry_2
_ccdc_geom_bond_type
Zn0 N4 2.020 . S
Zn0 O8 2.019 . S
Zn0 N10 2.119 . S
Zn0 O18 1.975 . S
C1 N2 1.334 . S
C1 N5 1.336 . S
N2 C1 1.334 . S
N2 C3 1.334 . S
C3 N2 1.334 . S
C3 N4 1.336 . S
N4 Zn0 2.020 . S
N4 C3 1.336 . S
N4 N5 1.354 . S
N5 C1 1.336 . S
N5 N4 1.354 . S
N5 Zn9 2.020 . S
C6 O7 1.244 . S
C6 O30 1.257 . S
O7 C6 1.244 . S
O8 Zn0 2.019 . S
O8 C28 1.257 . S
Zn9 N5 2.020 . S
Zn9 O16 1.975 . S
Zn9 N25 2.119 . S
Zn9 O30 2.019 . S
N10 Zn0 2.119 . S
N10 C12 1.334 . S
N10 C13 1.328 . S
C11 C12 1.391 . S
C11 N14 1.329 . S
C11 H32 0.930 . S
C12 N10 1.334 . S
C12 C11 1.391 . S
C12 H19 0.930 . S
C13 N10 1.328 . S
C13 C15 1.392 . S
C13 H20 0.930 . S
N14 C11 1.329 . S
N14 C15 1.331 . S
C15 C13 1.392 . S
C15 N14 1.331 . S
O16 Zn9 1.975 . S
O16 C17 1.252 . S
C17 O16 1.252 . S
C17 O18 1.252 . S
O18 Zn0 1.975 . S
O18 C17 1.252 . S
H19 C12 0.930 . S
H20 C13 0.930 . S
C21 C22 1.392 . S
C21 N25 1.328 . S
C21 H27 0.930 . S
C22 C21 1.392 . S
C22 N26 1.331 . S
C23 C24 1.391 . S
C23 N26 1.329 . S
C23 H33 0.930 . S
C24 C23 1.391 . S
C24 N25 1.334 . S
C24 H31 0.930 . S
N25 Zn9 2.119 . S
N25 C21 1.328 . S
N25 C24 1.334 . S
N26 C22 1.331 . S
N26 C23 1.329 . S
H27 C21 0.930 . S
C28 O8 1.257 . S
C28 O29 1.244 . S
O29 C28 1.244 . S
O30 C6 1.257 . S
O30 Zn9 2.019 . S
H31 C24 0.930 . S
H32 C11 0.930 . S
H33 C23 0.930 . S
Zn34 N38 2.020 . S
Zn34 O42 2.019 . S
Zn34 N44 2.119 . S
Zn34 O52 1.975 . S
C35 N36 1.334 . S
C35 N39 1.336 . S
N36 C35 1.334 . S
N36 C37 1.334 . S
C37 N36 1.334 . S
C37 N38 1.336 . S
N38 Zn34 2.020 . S
N38 C37 1.336 . S
N38 N39 1.354 . S
N39 C35 1.336 . S
N39 N38 1.354 . S
N39 Zn43 2.020 . S
C40 O41 1.244 . S
C40 O64 1.257 . S
O41 C40 1.244 . S
O42 Zn34 2.019 . S
O42 C62 1.257 . S
Zn43 N39 2.020 . S
Zn43 O50 1.975 . S
Zn43 N59 2.119 . S
Zn43 O64 2.019 . S
N44 Zn34 2.119 . S
N44 C46 1.334 . S
N44 C47 1.328 . S
C45 C46 1.391 . S
C45 N48 1.329 . S
C45 H66 0.930 . S
C46 N44 1.334 . S
C46 C45 1.391 . S
C46 H53 0.930 . S
C47 N44 1.328 . S
C47 C49 1.392 . S
C47 H54 0.930 . S
N48 C45 1.329 . S
N48 C49 1.331 . S
C49 C47 1.392 . S
C49 N48 1.331 . S
O50 Zn43 1.975 . S
O50 C51 1.252 . S
C51 O50 1.252 . S
C51 O52 1.252 . S
O52 Zn34 1.975 . S
O52 C51 1.252 . S
H53 C46 0.930 . S
H54 C47 0.930 . S
C55 C56 1.392 . S
C55 N59 1.328 . S
C55 H61 0.930 . S
C56 C55 1.392 . S
C56 N60 1.331 . S
C57 C58 1.391 . S
C57 N60 1.329 . S
C57 H67 0.930 . S
C58 C57 1.391 . S
C58 N59 1.334 . S
C58 H65 0.930 . S
N59 Zn43 2.119 . S
N59 C55 1.328 . S
N59 C58 1.334 . S
N60 C56 1.331 . S
N60 C57 1.329 . S
H61 C55 0.930 . S
C62 O42 1.257 . S
C62 O63 1.244 . S
O63 C62 1.244 . S
O64 C40 1.257 . S
O64 Zn43 2.019 . S
H65 C58 0.930 . S
H66 C45 0.930 . S
H67 C57 0.930 . S
Zn68 N72 2.020 . S
Zn68 O76 2.019 . S
Zn68 N78 2.119 . S
Zn68 O86 1.975 . S
C69 N70 1.334 . S
C69 N73 1.336 . S
N70 C69 1.334 . S
N70 C71 1.334 . S
C71 N70 1.334 . S
C71 N72 1.336 . S
N72 Zn68 2.020 . S
N72 C71 1.336 . S
N72 N73 1.354 . S
N73 C69 1.336 . S
N73 N72 1.354 . S
N73 Zn77 2.020 . S
C74 O75 1.244 . S
C74 O98 1.257 . S
O75 C74 1.244 . S
O76 Zn68 2.019 . S
O76 C96 1.257 . S
Zn77 N73 2.020 . S
Zn77 O84 1.975 . S
Zn77 N93 2.119 . S
Zn77 O98 2.019 . S
N78 Zn68 2.119 . S
N78 C80 1.334 . S
N78 C81 1.328 . S
C79 C80 1.391 . S
C79 N82 1.329 . S
C79 H100 0.930 . S
C80 N78 1.334 . S
C80 C79 1.391 . S
C80 H87 0.930 . S
C81 N78 1.328 . S
C81 C83 1.392 . S
C81 H88 0.930 . S
N82 C79 1.329 . S
N82 C83 1.331 . S
C83 C81 1.392 . S
C83 N82 1.331 . S
O84 Zn77 1.975 . S
O84 C85 1.252 . S
C85 O84 1.252 . S
C85 O86 1.252 . S
O86 Zn68 1.975 . S
O86 C85 1.252 . S
H87 C80 0.930 . S
H88 C81 0.930 . S
C89 C90 1.392 . S
C89 N93 1.328 . S
C89 H95 0.930 . S
C90 C89 1.392 . S
C90 N94 1.331 . S
C91 C92 1.391 . S
C91 N94 1.329 . S
C91 H101 0.930 . S
C92 C91 1.391 . S
C92 N93 1.334 . S
C92 H99 0.930 . S
N93 Zn77 2.119 . S
N93 C89 1.328 . S
N93 C92 1.334 . S
N94 C90 1.331 . S
N94 C91 1.329 . S
H95 C89 0.930 . S
C96 O76 1.257 . S
C96 O97 1.244 . S
O97 C96 1.244 . S
O98 C74 1.257 . S
O98 Zn77 2.019 . S
H99 C92 0.930 . S
H100 C79 0.930 . S
H101 C91 0.930 . S
Zn102 N106 2.020 . S
Zn102 O110 2.019 . S
Zn102 N112 2.119 . S
Zn102 O120 1.975 . S
C103 N104 1.334 . S
C103 N107 1.336 . S
N104 C103 1.334 . S
N104 C105 1.334 . S
C105 N104 1.334 . S
C105 N106 1.336 . S
N106 Zn102 2.020 . S
N106 C105 1.336 . S
N106 N107 1.354 . S
N107 C103 1.336 . S
N107 N106 1.354 . S
N107 Zn111 2.020 . S
C108 O109 1.244 . S
C108 O132 1.257 . S
O109 C108 1.244 . S
O110 Zn102 2.019 . S
O110 C130 1.257 . S
Zn111 N107 2.020 . S
Zn111 O118 1.975 . S
Zn111 N127 2.119 . S
Zn111 O132 2.019 . S
N112 Zn102 2.119 . S
N112 C114 1.334 . S
N112 C115 1.328 . S
C113 C114 1.391 . S
C113 N116 1.329 . S
C113 H134 0.930 . S
C114 N112 1.334 . S
C114 C113 1.391 . S
C114 H121 0.930 . S
C115 N112 1.328 . S
C115 C117 1.392 . S
C115 H122 0.930 . S
N116 C113 1.329 . S
N116 C117 1.331 . S
C117 C115 1.392 . S
C117 N116 1.331 . S
O118 Zn111 1.975 . S
O118 C119 1.252 . S
C119 O118 1.252 . S
C119 O120 1.252 . S
O120 Zn102 1.975 . S
O120 C119 1.252 . S
H121 C114 0.930 . S
H122 C115 0.930 . S
C123 C124 1.392 . S
C123 N127 1.328 . S
C123 H129 0.930 . S
C124 C123 1.392 . S
C124 N128 1.331 . S
C125 C126 1.391 . S
C125 N128 1.329 . S
C125 H135 0.930 . S
C126 C125 1.391 . S
C126 N127 1.334 . S
C126 H133 0.930 . S
N127 Zn111 2.119 . S
N127 C123 1.328 . S
N127 C126 1.334 . S
N128 C124 1.331 . S
N128 C125 1.329 . S
H129 C123 0.930 . S
C130 O110 1.257 . S
C130 O131 1.244 . S
O131 C130 1.244 . S
O132 C108 1.257 . S
O132 Zn111 2.019 . S
H133 C126 0.930 . S
H134 C113 0.930 . S
H135 C125 0.930 . S
Zn136 N140 2.020 . S
Zn136 O144 2.019 . S
Zn136 N146 2.119 . S
Zn136 O154 1.975 . S
C137 N138 1.334 . S
C137 N141 1.336 . S
N138 C137 1.334 . S
N138 C139 1.334 . S
C139 N138 1.334 . S
C139 N140 1.336 . S
N140 Zn136 2.020 . S
N140 C139 1.336 . S
N140 N141 1.354 . S
N141 C137 1.336 . S
N141 N140 1.354 . S
N141 Zn145 2.020 . S
C142 O143 1.244 . S
C142 O166 1.257 . S
O143 C142 1.244 . S
O144 Zn136 2.019 . S
O144 C164 1.257 . S
Zn145 N141 2.020 . S
Zn145 O152 1.975 . S
Zn145 N161 2.119 . S
Zn145 O166 2.019 . S
N146 Zn136 2.119 . S
N146 C148 1.334 . S
N146 C149 1.328 . S
C147 C148 1.391 . S
C147 N150 1.329 . S
C147 H168 0.930 . S
C148 N146 1.334 . S
C148 C147 1.391 . S
C148 H155 0.930 . S
C149 N146 1.328 . S
C149 C151 1.392 . S
C149 H156 0.930 . S
N150 C147 1.329 . S
N150 C151 1.331 . S
C151 C149 1.392 . S
C151 N150 1.331 . S
O152 Zn145 1.975 . S
O152 C153 1.252 . S
C153 O152 1.252 . S
C153 O154 1.252 . S
O154 Zn136 1.975 . S
O154 C153 1.252 . S
H155 C148 0.930 . S
H156 C149 0.930 . S
C157 C158 1.392 . S
C157 N161 1.328 . S
C157 H163 0.930 . S
C158 C157 1.392 . S
C158 N162 1.331 . S
C159 C160 1.391 . S
C159 N162 1.329 . S
C159 H169 0.930 . S
C160 C159 1.391 . S
C160 N161 1.334 . S
C160 H167 0.930 . S
N161 Zn145 2.119 . S
N161 C157 1.328 . S
N161 C160 1.334 . S
N162 C158 1.331 . S
N162 C159 1.329 . S
H163 C157 0.930 . S
C164 O144 1.257 . S
C164 O165 1.244 . S
O165 C164 1.244 . S
O166 C142 1.257 . S
O166 Zn145 2.019 . S
H167 C160 0.930 . S
H168 C147 0.930 . S
H169 C159 0.930 . S
Zn170 N174 2.020 . S
Zn170 O178 2.019 . S
Zn170 N180 2.119 . S
Zn170 O188 1.975 . S
C171 N172 1.334 . S
C171 N175 1.336 . S
N172 C171 1.334 . S
N172 C173 1.334 . S
C173 N172 1.334 . S
C173 N174 1.336 . S
N174 Zn170 2.020 . S
N174 C173 1.336 . S
N174 N175 1.354 . S
N175 C171 1.336 . S
N175 N174 1.354 . S
N175 Zn179 2.020 . S
C176 O177 1.244 . S
C176 O200 1.257 . S
O177 C176 1.244 . S
O178 Zn170 2.019 . S
O178 C198 1.257 . S
Zn179 N175 2.020 . S
Zn179 O186 1.975 . S
Zn179 N195 2.119 . S
Zn179 O200 2.019 . S
N180 Zn170 2.119 . S
N180 C182 1.334 . S
N180 C183 1.328 . S
C181 C182 1.391 . S
C181 N184 1.329 . S
C181 H202 0.930 . S
C182 N180 1.334 . S
C182 C181 1.391 . S
C182 H189 0.930 . S
C183 N180 1.328 . S
C183 C185 1.392 . S
C183 H190 0.930 . S
N184 C181 1.329 . S
N184 C185 1.331 . S
C185 C183 1.392 . S
C185 N184 1.331 . S
O186 Zn179 1.975 . S
O186 C187 1.252 . S
C187 O186 1.252 . S
C187 O188 1.252 . S
O188 Zn170 1.975 . S
O188 C187 1.252 . S
H189 C182 0.930 . S
H190 C183 0.930 . S
C191 C192 1.392 . S
C191 N195 1.328 . S
C191 H197 0.930 . S
C192 C191 1.392 . S
C192 N196 1.331 . S
C193 C194 1.391 . S
C193 N196 1.329 . S
C193 H203 0.930 . S
C194 C193 1.391 . S
C194 N195 1.334 . S
C194 H201 0.930 . S
N195 Zn179 2.119 . S
N195 C191 1.328 . S
N195 C194 1.334 . S
N196 C192 1.331 . S
N196 C193 1.329 . S
H197 C191 0.930 . S
C198 O178 1.257 . S
C198 O199 1.244 . S
O199 C198 1.244 . S
O200 C176 1.257 . S
O200 Zn179 2.019 . S
H201 C194 0.930 . S
H202 C181 0.930 . S
H203 C193 0.930 . S
Zn204 N208 2.020 . S
Zn204 O212 2.019 . S
Zn204 N214 2.119 . S
Zn204 O222 1.975 . S
C205 N206 1.334 . S
C205 N209 1.336 . S
N206 C205 1.334 . S
N206 C207 1.334 . S
C207 N206 1.334 . S
C207 N208 1.336 . S
N208 Zn204 2.020 . S
N208 C207 1.336 . S
N208 N209 1.354 . S
N209 C205 1.336 . S
N209 N208 1.354 . S
N209 Zn213 2.020 . S
C210 O211 1.244 . S
C210 O234 1.257 . S
O211 C210 1.244 . S
O212 Zn204 2.019 . S
O212 C232 1.257 . S
Zn213 N209 2.020 . S
Zn213 O220 1.975 . S
Zn213 N229 2.119 . S
Zn213 O234 2.019 . S
N214 Zn204 2.119 . S
N214 C216 1.334 . S
N214 C217 1.328 . S
C215 C216 1.391 . S
C215 N218 1.329 . S
C215 H236 0.930 . S
C216 N214 1.334 . S
C216 C215 1.391 . S
C216 H223 0.930 . S
C217 N214 1.328 . S
C217 C219 1.392 . S
C217 H224 0.930 . S
N218 C215 1.329 . S
N218 C219 1.331 . S
C219 C217 1.392 . S
C219 N218 1.331 . S
O220 Zn213 1.975 . S
O220 C221 1.252 . S
C221 O220 1.252 . S
C221 O222 1.252 . S
O222 Zn204 1.975 . S
O222 C221 1.252 . S
H223 C216 0.930 . S
H224 C217 0.930 . S
C225 C226 1.392 . S
C225 N229 1.328 . S
C225 H231 0.930 . S
C226 C225 1.392 . S
C226 N230 1.331 . S
C227 C228 1.391 . S
C227 N230 1.329 . S
C227 H237 0.930 . S
C228 C227 1.391 . S
C228 N229 1.334 . S
C228 H235 0.930 . S
N229 Zn213 2.119 . S
N229 C225 1.328 . S
N229 C228 1.334 . S
N230 C226 1.331 . S
N230 C227 1.329 . S
H231 C225 0.930 . S
C232 O212 1.257 . S
C232 O233 1.244 . S
O233 C232 1.244 . S
O234 C210 1.257 . S
O234 Zn213 2.019 . S
H235 C228 0.930 . S
H236 C215 0.930 . S
H237 C227 0.930 . S
Zn238 N242 2.020 . S
Zn238 O246 2.019 . S
Zn238 N248 2.119 . S
Zn238 O256 1.975 . S
C239 N240 1.334 . S
C239 N243 1.336 . S
N240 C239 1.334 . S
N240 C241 1.334 . S
C241 N240 1.334 . S
C241 N242 1.336 . S
N242 Zn238 2.020 . S
N242 C241 1.336 . S
N242 N243 1.354 . S
N243 C239 1.336 . S
N243 N242 1.354 . S
N243 Zn247 2.020 . S
C244 O245 1.244 . S
C244 O268 1.257 . S
O245 C244 1.244 . S
O246 Zn238 2.019 . S
O246 C266 1.257 . S
Zn247 N243 2.020 . S
Zn247 O254 1.975 . S
Zn247 N263 2.119 . S
Zn247 O268 2.019 . S
N248 Zn238 2.119 . S
N248 C250 1.334 . S
N248 C251 1.328 . S
C249 C250 1.391 . S
C249 N252 1.329 . S
C249 H270 0.930 . S
C250 N248 1.334 . S
C250 C249 1.391 . S
C250 H257 0.930 . S
C251 N248 1.328 . S
C251 C253 1.392 . S
C251 H258 0.930 . S
N252 C249 1.329 . S
N252 C253 1.331 . S
C253 C251 1.392 . S
C253 N252 1.331 . S
O254 Zn247 1.975 . S
O254 C255 1.252 . S
C255 O254 1.252 . S
C255 O256 1.252 . S
O256 Zn238 1.975 . S
O256 C255 1.252 . S
H257 C250 0.930 . S
H258 C251 0.930 . S
C259 C260 1.392 . S
C259 N263 1.328 . S
C259 H265 0.930 . S
C260 C259 1.392 . S
C260 N264 1.331 . S
C261 C262 1.391 . S
C261 N264 1.329 . S
C261 H271 0.930 . S
C262 C261 1.391 . S
C262 N263 1.334 . S
C262 H269 0.930 . S
N263 Zn247 2.119 . S
N263 C259 1.328 . S
N263 C262 1.334 . S
N264 C260 1.331 . S
N264 C261 1.329 . S
H265 C259 0.930 . S
C266 O246 1.257 . S
C266 O267 1.244 . S
O267 C266 1.244 . S
O268 C244 1.257 . S
O268 Zn247 2.019 . S
H269 C262 0.930 . S
H270 C249 0.930 . S
H271 C261 0.930 . S
Zn272 N276 2.020 . S
Zn272 O280 2.019 . S
Zn272 N282 2.119 . S
Zn272 O290 1.975 . S
C273 N274 1.334 . S
C273 N277 1.336 . S
N274 C273 1.334 . S
N274 C275 1.334 . S
C275 N274 1.334 . S
C275 N276 1.336 . S
N276 Zn272 2.020 . S
N276 C275 1.336 . S
N276 N277 1.354 . S
N277 C273 1.336 . S
N277 N276 1.354 . S
N277 Zn281 2.020 . S
C278 O279 1.244 . S
C278 O302 1.257 . S
O279 C278 1.244 . S
O280 Zn272 2.019 . S
O280 C300 1.257 . S
Zn281 N277 2.020 . S
Zn281 O288 1.975 . S
Zn281 N297 2.119 . S
Zn281 O302 2.019 . S
N282 Zn272 2.119 . S
N282 C284 1.334 . S
N282 C285 1.328 . S
C283 C284 1.391 . S
C283 N286 1.329 . S
C283 H304 0.930 . S
C284 N282 1.334 . S
C284 C283 1.391 . S
C284 H291 0.930 . S
C285 N282 1.328 . S
C285 C287 1.392 . S
C285 H292 0.930 . S
N286 C283 1.329 . S
N286 C287 1.331 . S
C287 C285 1.392 . S
C287 N286 1.331 . S
O288 Zn281 1.975 . S
O288 C289 1.252 . S
C289 O288 1.252 . S
C289 O290 1.252 . S
O290 Zn272 1.975 . S
O290 C289 1.252 . S
H291 C284 0.930 . S
H292 C285 0.930 . S
C293 C294 1.392 . S
C293 N297 1.328 . S
C293 H299 0.930 . S
C294 C293 1.392 . S
C294 N298 1.331 . S
C295 C296 1.391 . S
C295 N298 1.329 . S
C295 H305 0.930 . S
C296 C295 1.391 . S
C296 N297 1.334 . S
C296 H303 0.930 . S
N297 Zn281 2.119 . S
N297 C293 1.328 . S
N297 C296 1.334 . S
N298 C294 1.331 . S
N298 C295 1.329 . S
H299 C293 0.930 . S
C300 O280 1.257 . S
C300 O301 1.244 . S
O301 C300 1.244 . S
O302 C278 1.257 . S
O302 Zn281 2.019 . S
H303 C296 0.930 . S
H304 C283 0.930 . S
H305 C295 0.930 . S
Zn306 N310 2.020 . S
Zn306 O314 2.019 . S
Zn306 N316 2.119 . S
Zn306 O324 1.975 . S
C307 N308 1.334 . S
C307 N311 1.336 . S
N308 C307 1.334 . S
N308 C309 1.334 . S
C309 N308 1.334 . S
C309 N310 1.336 . S
N310 Zn306 2.020 . S
N310 C309 1.336 . S
N310 N311 1.354 . S
N311 C307 1.336 . S
N311 N310 1.354 . S
N311 Zn315 2.020 . S
C312 O313 1.244 . S
C312 O336 1.257 . S
O313 C312 1.244 . S
O314 Zn306 2.019 . S
O314 C334 1.257 . S
Zn315 N311 2.020 . S
Zn315 O322 1.975 . S
Zn315 N331 2.119 . S
Zn315 O336 2.019 . S
N316 Zn306 2.119 . S
N316 C318 1.334 . S
N316 C319 1.328 . S
C317 C318 1.391 . S
C317 N320 1.329 . S
C317 H338 0.930 . S
C318 N316 1.334 . S
C318 C317 1.391 . S
C318 H325 0.930 . S
C319 N316 1.328 . S
C319 C321 1.392 . S
C319 H326 0.930 . S
N320 C317 1.329 . S
N320 C321 1.331 . S
C321 C319 1.392 . S
C321 N320 1.331 . S
O322 Zn315 1.975 . S
O322 C323 1.252 . S
C323 O322 1.252 . S
C323 O324 1.252 . S
O324 Zn306 1.975 . S
O324 C323 1.252 . S
H325 C318 0.930 . S
H326 C319 0.930 . S
C327 C328 1.392 . S
C327 N331 1.328 . S
C327 H333 0.930 . S
C328 C327 1.392 . S
C328 N332 1.331 . S
C329 C330 1.391 . S
C329 N332 1.329 . S
C329 H339 0.930 . S
C330 C329 1.391 . S
C330 N331 1.334 . S
C330 H337 0.930 . S
N331 Zn315 2.119 . S
N331 C327 1.328 . S
N331 C330 1.334 . S
N332 C328 1.331 . S
N332 C329 1.329 . S
H333 C327 0.930 . S
C334 O314 1.257 . S
C334 O335 1.244 . S
O335 C334 1.244 . S
O336 C312 1.257 . S
O336 Zn315 2.019 . S
H337 C330 0.930 . S
H338 C317 0.930 . S
H339 C329 0.930 . S
Zn340 N344 2.020 . S
Zn340 O348 2.019 . S
Zn340 N350 2.119 . S
Zn340 O358 1.975 . S
C341 N342 1.334 . S
C341 N345 1.336 . S
N342 C341 1.334 . S
N342 C343 1.334 . S
C343 N342 1.334 . S
C343 N344 1.336 . S
N344 Zn340 2.020 . S
N344 C343 1.336 . S
N344 N345 1.354 . S
N345 C341 1.336 . S
N345 N344 1.354 . S
N345 Zn349 2.020 . S
C346 O347 1.244 . S
C346 O370 1.257 . S
O347 C346 1.244 . S
O348 Zn340 2.019 . S
O348 C368 1.257 . S
Zn349 N345 2.020 . S
Zn349 O356 1.975 . S
Zn349 N365 2.119 . S
Zn349 O370 2.019 . S
N350 Zn340 2.119 . S
N350 C352 1.334 . S
N350 C353 1.328 . S
C351 C352 1.391 . S
C351 N354 1.329 . S
C351 H372 0.930 . S
C352 N350 1.334 . S
C352 C351 1.391 . S
C352 H359 0.930 . S
C353 N350 1.328 . S
C353 C355 1.392 . S
C353 H360 0.930 . S
N354 C351 1.329 . S
N354 C355 1.331 . S
C355 C353 1.392 . S
C355 N354 1.331 . S
O356 Zn349 1.975 . S
O356 C357 1.252 . S
C357 O356 1.252 . S
C357 O358 1.252 . S
O358 Zn340 1.975 . S
O358 C357 1.252 . S
H359 C352 0.930 . S
H360 C353 0.930 . S
C361 C362 1.392 . S
C361 N365 1.328 . S
C361 H367 0.930 . S
C362 C361 1.392 . S
C362 N366 1.331 . S
C363 C364 1.391 . S
C363 N366 1.329 . S
C363 H373 0.930 . S
C364 C363 1.391 . S
C364 N365 1.334 . S
C364 H371 0.930 . S
N365 Zn349 2.119 . S
N365 C361 1.328 . S
N365 C364 1.334 . S
N366 C362 1.331 . S
N366 C363 1.329 . S
H367 C361 0.930 . S
C368 O348 1.257 . S
C368 O369 1.244 . S
O369 C368 1.244 . S
O370 C346 1.257 . S
O370 Zn349 2.019 . S
H371 C364 0.930 . S
H372 C351 0.930 . S
H373 C363 0.930 . S
Zn374 N378 2.020 . S
Zn374 O382 2.019 . S
Zn374 N384 2.119 . S
Zn374 O392 1.975 . S
C375 N376 1.334 . S
C375 N379 1.336 . S
N376 C375 1.334 . S
N376 C377 1.334 . S
C377 N376 1.334 . S
C377 N378 1.336 . S
N378 Zn374 2.020 . S
N378 C377 1.336 . S
N378 N379 1.354 . S
N379 C375 1.336 . S
N379 N378 1.354 . S
N379 Zn383 2.020 . S
C380 O381 1.244 . S
C380 O404 1.257 . S
O381 C380 1.244 . S
O382 Zn374 2.019 . S
O382 C402 1.257 . S
Zn383 N379 2.020 . S
Zn383 O390 1.975 . S
Zn383 N399 2.119 . S
Zn383 O404 2.019 . S
N384 Zn374 2.119 . S
N384 C386 1.334 . S
N384 C387 1.328 . S
C385 C386 1.391 . S
C385 N388 1.329 . S
C385 H406 0.930 . S
C386 N384 1.334 . S
C386 C385 1.391 . S
C386 H393 0.930 . S
C387 N384 1.328 . S
C387 C389 1.392 . S
C387 H394 0.930 . S
N388 C385 1.329 . S
N388 C389 1.331 . S
C389 C387 1.392 . S
C389 N388 1.331 . S
O390 Zn383 1.975 . S
O390 C391 1.252 . S
C391 O390 1.252 . S
C391 O392 1.252 . S
O392 Zn374 1.975 . S
O392 C391 1.252 . S
H393 C386 0.930 . S
H394 C387 0.930 . S
C395 C396 1.392 . S
C395 N399 1.328 . S
C395 H401 0.930 . S
C396 C395 1.392 . S
C396 N400 1.331 . S
C397 C398 1.391 . S
C397 N400 1.329 . S
C397 H407 0.930 . S
C398 C397 1.391 . S
C398 N399 1.334 . S
C398 H405 0.930 . S
N399 Zn383 2.119 . S
N399 C395 1.328 . S
N399 C398 1.334 . S
N400 C396 1.331 . S
N400 C397 1.329 . S
H401 C395 0.930 . S
C402 O382 1.257 . S
C402 O403 1.244 . S
O403 C402 1.244 . S
O404 C380 1.257 . S
O404 Zn383 2.019 . S
H405 C398 0.930 . S
H406 C385 0.930 . S
H407 C397 0.930 . S
Zn408 N412 2.020 . S
Zn408 O416 2.019 . S
Zn408 N418 2.119 . S
Zn408 O426 1.975 . S
C409 N410 1.334 . S
C409 N413 1.336 . S
N410 C409 1.334 . S
N410 C411 1.334 . S
C411 N410 1.334 . S
C411 N412 1.336 . S
N412 Zn408 2.020 . S
N412 C411 1.336 . S
N412 N413 1.354 . S
N413 C409 1.336 . S
N413 N412 1.354 . S
N413 Zn417 2.020 . S
C414 O415 1.244 . S
C414 O438 1.257 . S
O415 C414 1.244 . S
O416 Zn408 2.019 . S
O416 C436 1.257 . S
Zn417 N413 2.020 . S
Zn417 O424 1.975 . S
Zn417 N433 2.119 . S
Zn417 O438 2.019 . S
N418 Zn408 2.119 . S
N418 C420 1.334 . S
N418 C421 1.328 . S
C419 C420 1.391 . S
C419 N422 1.329 . S
C419 H440 0.930 . S
C420 N418 1.334 . S
C420 C419 1.391 . S
C420 H427 0.930 . S
C421 N418 1.328 . S
C421 C423 1.392 . S
C421 H428 0.930 . S
N422 C419 1.329 . S
N422 C423 1.331 . S
C423 C421 1.392 . S
C423 N422 1.331 . S
O424 Zn417 1.975 . S
O424 C425 1.252 . S
C425 O424 1.252 . S
C425 O426 1.252 . S
O426 Zn408 1.975 . S
O426 C425 1.252 . S
H427 C420 0.930 . S
H428 C421 0.930 . S
C429 C430 1.392 . S
C429 N433 1.328 . S
C429 H435 0.930 . S
C430 C429 1.392 . S
C430 N434 1.331 . S
C431 C432 1.391 . S
C431 N434 1.329 . S
C431 H441 0.930 . S
C432 C431 1.391 . S
C432 N433 1.334 . S
C432 H439 0.930 . S
N433 Zn417 2.119 . S
N433 C429 1.328 . S
N433 C432 1.334 . S
N434 C430 1.331 . S
N434 C431 1.329 . S
H435 C429 0.930 . S
C436 O416 1.257 . S
C436 O437 1.244 . S
O437 C436 1.244 . S
O438 C414 1.257 . S
O438 Zn417 2.019 . S
H439 C432 0.930 . S
H440 C419 0.930 . S
H441 C431 0.930 . S
Zn442 N446 2.020 . S
Zn442 O450 2.019 . S
Zn442 N452 2.119 . S
Zn442 O460 1.975 . S
C443 N444 1.334 . S
C443 N447 1.336 . S
N444 C443 1.334 . S
N444 C445 1.334 . S
C445 N444 1.334 . S
C445 N446 1.336 . S
N446 Zn442 2.020 . S
N446 C445 1.336 . S
N446 N447 1.354 . S
N447 C443 1.336 . S
N447 N446 1.354 . S
N447 Zn451 2.020 . S
C448 O449 1.244 . S
C448 O472 1.257 . S
O449 C448 1.244 . S
O450 Zn442 2.019 . S
O450 C470 1.257 . S
Zn451 N447 2.020 . S
Zn451 O458 1.975 . S
Zn451 N467 2.119 . S
Zn451 O472 2.019 . S
N452 Zn442 2.119 . S
N452 C454 1.334 . S
N452 C455 1.328 . S
C453 C454 1.391 . S
C453 N456 1.329 . S
C453 H474 0.930 . S
C454 N452 1.334 . S
C454 C453 1.391 . S
C454 H461 0.930 . S
C455 N452 1.328 . S
C455 C457 1.392 . S
C455 H462 0.930 . S
N456 C453 1.329 . S
N456 C457 1.331 . S
C457 C455 1.392 . S
C457 N456 1.331 . S
O458 Zn451 1.975 . S
O458 C459 1.252 . S
C459 O458 1.252 . S
C459 O460 1.252 . S
O460 Zn442 1.975 . S
O460 C459 1.252 . S
H461 C454 0.930 . S
H462 C455 0.930 . S
C463 C464 1.392 . S
C463 N467 1.328 . S
C463 H469 0.930 . S
C464 C463 1.392 . S
C464 N468 1.331 . S
C465 C466 1.391 . S
C465 N468 1.329 . S
C465 H475 0.930 . S
C466 C465 1.391 . S
C466 N467 1.334 . S
C466 H473 0.930 . S
N467 Zn451 2.119 . S
N467 C463 1.328 . S
N467 C466 1.334 . S
N468 C464 1.331 . S
N468 C465 1.329 . S
H469 C463 0.930 . S
C470 O450 1.257 . S
C470 O471 1.244 . S
O471 C470 1.244 . S
O472 C448 1.257 . S
O472 Zn451 2.019 . S
H473 C466 0.930 . S
H474 C453 0.930 . S
H475 C465 0.930 . S
Zn476 N480 2.020 . S
Zn476 O484 2.019 . S
Zn476 N486 2.119 . S
Zn476 O494 1.975 . S
C477 N478 1.334 . S
C477 N481 1.336 . S
N478 C477 1.334 . S
N478 C479 1.334 . S
C479 N478 1.334 . S
C479 N480 1.336 . S
N480 Zn476 2.020 . S
N480 C479 1.336 . S
N480 N481 1.354 . S
N481 C477 1.336 . S
N481 N480 1.354 . S
N481 Zn485 2.020 . S
C482 O483 1.244 . S
C482 O506 1.257 . S
O483 C482 1.244 . S
O484 Zn476 2.019 . S
O484 C504 1.257 . S
Zn485 N481 2.020 . S
Zn485 O492 1.975 . S
Zn485 N501 2.119 . S
Zn485 O506 2.019 . S
N486 Zn476 2.119 . S
N486 C488 1.334 . S
N486 C489 1.328 . S
C487 C488 1.391 . S
C487 N490 1.329 . S
C487 H508 0.930 . S
C488 N486 1.334 . S
C488 C487 1.391 . S
C488 H495 0.930 . S
C489 N486 1.328 . S
C489 C491 1.392 . S
C489 H496 0.930 . S
N490 C487 1.329 . S
N490 C491 1.331 . S
C491 C489 1.392 . S
C491 N490 1.331 . S
O492 Zn485 1.975 . S
O492 C493 1.252 . S
C493 O492 1.252 . S
C493 O494 1.252 . S
O494 Zn476 1.975 . S
O494 C493 1.252 . S
H495 C488 0.930 . S
H496 C489 0.930 . S
C497 C498 1.392 . S
C497 N501 1.328 . S
C497 H503 0.930 . S
C498 C497 1.392 . S
C498 N502 1.331 . S
C499 C500 1.391 . S
C499 N502 1.329 . S
C499 H509 0.930 . S
C500 C499 1.391 . S
C500 N501 1.334 . S
C500 H507 0.930 . S
N501 Zn485 2.119 . S
N501 C497 1.328 . S
N501 C500 1.334 . S
N502 C498 1.331 . S
N502 C499 1.329 . S
H503 C497 0.930 . S
C504 O484 1.257 . S
C504 O505 1.244 . S
O505 C504 1.244 . S
O506 C482 1.257 . S
O506 Zn485 2.019 . S
H507 C500 0.930 . S
H508 C487 0.930 . S
H509 C499 0.930 . S
Zn510 N514 2.020 . S
Zn510 O518 2.019 . S
Zn510 N520 2.119 . S
Zn510 O528 1.975 . S
C511 N512 1.334 . S
C511 N515 1.336 . S
N512 C511 1.334 . S
N512 C513 1.334 . S
C513 N512 1.334 . S
C513 N514 1.336 . S
N514 Zn510 2.020 . S
N514 C513 1.336 . S
N514 N515 1.354 . S
N515 C511 1.336 . S
N515 N514 1.354 . S
N515 Zn519 2.020 . S
C516 O517 1.244 . S
C516 O540 1.257 . S
O517 C516 1.244 . S
O518 Zn510 2.019 . S
O518 C538 1.257 . S
Zn519 N515 2.020 . S
Zn519 O526 1.975 . S
Zn519 N535 2.119 . S
Zn519 O540 2.019 . S
N520 Zn510 2.119 . S
N520 C522 1.334 . S
N520 C523 1.328 . S
C521 C522 1.391 . S
C521 N524 1.329 . S
C521 H542 0.930 . S
C522 N520 1.334 . S
C522 C521 1.391 . S
C522 H529 0.930 . S
C523 N520 1.328 . S
C523 C525 1.392 . S
C523 H530 0.930 . S
N524 C521 1.329 . S
N524 C525 1.331 . S
C525 C523 1.392 . S
C525 N524 1.331 . S
O526 Zn519 1.975 . S
O526 C527 1.252 . S
C527 O526 1.252 . S
C527 O528 1.252 . S
O528 Zn510 1.975 . S
O528 C527 1.252 . S
H529 C522 0.930 . S
H530 C523 0.930 . S
C531 C532 1.392 . S
C531 N535 1.328 . S
C531 H537 0.930 . S
C532 C531 1.392 . S
C532 N536 1.331 . S
C533 C534 1.391 . S
C533 N536 1.329 . S
C533 H543 0.930 . S
C534 C533 1.391 . S
C534 N535 1.334 . S
C534 H541 0.930 . S
N535 Zn519 2.119 . S
N535 C531 1.328 . S
N535 C534 1.334 . S
N536 C532 1.331 . S
N536 C533 1.329 . S
H537 C531 0.930 . S
C538 O518 1.257 . S
C538 O539 1.244 . S
O539 C538 1.244 . S
O540 C516 1.257 . S
O540 Zn519 2.019 . S
H541 C534 0.930 . S
H542 C521 0.930 . S
H543 C533 0.930 . S
C544 C545 1.369 . S
C544 C546 1.419 . S
C544 H548 0.930 . S
C545 C544 1.369 . S
C545 C554 1.429 . S
C546 C544 1.419 . S
C546 C547 1.363 . S
C546 H549 0.929 . S
C547 C546 1.363 . S
C547 C553 1.428 . S
H548 C544 0.930 . S
H549 C546 0.929 . S
S550 N551 1.613 . S
S550 N552 1.610 . S
N551 S550 1.613 . S
N551 C554 1.350 . S
N552 S550 1.610 . S
N552 C553 1.351 . S
C553 C547 1.428 . S
C553 N552 1.351 . S
C553 C554 1.434 . S
C554 C545 1.429 . S
C554 N551 1.350 . S
C554 C553 1.434 . S
C555 C556 1.369 . S
C555 C557 1.419 . S
C555 H559 0.930 . S
C556 C555 1.369 . S
C556 C565 1.429 . S
C557 C555 1.419 . S
C557 C558 1.363 . S
C557 H560 0.929 . S
C558 C557 1.363 . S
C558 C564 1.428 . S
H559 C555 0.930 . S
H560 C557 0.929 . S
S561 N562 1.613 . S
S561 N563 1.610 . S
N562 S561 1.613 . S
N562 C565 1.350 . S
N563 S561 1.610 . S
N563 C564 1.351 . S
C564 C558 1.428 . S
C564 N563 1.351 . S
C564 C565 1.434 . S
C565 C556 1.429 . S
C565 N562 1.350 . S
C565 C564 1.434 . S
C566 C567 1.369 . S
C566 C568 1.419 . S
C566 H570 0.930 . S
C567 C566 1.369 . S
C567 C576 1.429 . S
C568 C566 1.419 . S
C568 C569 1.363 . S
C568 H571 0.929 . S
C569 C568 1.363 . S
C569 C575 1.428 . S
H570 C566 0.930 . S
H571 C568 0.929 . S
S572 N573 1.613 . S
S572 N574 1.610 . S
N573 S572 1.613 . S
N573 C576 1.350 . S
N574 S572 1.610 . S
N574 C575 1.351 . S
C575 C569 1.428 . S
C575 N574 1.351 . S
C575 C576 1.434 . S
C576 C567 1.429 . S
C576 N573 1.350 . S
C576 C575 1.434 . S
C577 C578 1.369 . S
C577 C579 1.419 . S
C577 H581 0.930 . S
C578 C577 1.369 . S
C578 C587 1.429 . S
C579 C577 1.419 . S
C579 C580 1.363 . S
C579 H582 0.929 . S
C580 C579 1.363 . S
C580 C586 1.428 . S
H581 C577 0.930 . S
H582 C579 0.929 . S
S583 N584 1.613 . S
S583 N585 1.610 . S
N584 S583 1.613 . S
N584 C587 1.350 . S
N585 S583 1.610 . S
N585 C586 1.351 . S
C586 C580 1.428 . S
C586 N585 1.351 . S
C586 C587 1.434 . S
C587 C578 1.429 . S
C587 N584 1.350 . S
C587 C586 1.434 . S
C588 C589 1.369 . S
C588 C590 1.419 . S
C588 H592 0.930 . S
C589 C588 1.369 . S
C589 C598 1.429 . S
C590 C588 1.419 . S
C590 C591 1.363 . S
C590 H593 0.929 . S
C591 C590 1.363 . S
C591 C597 1.428 . S
H592 C588 0.930 . S
H593 C590 0.929 . S
S594 N595 1.613 1_554 S
S594 N596 1.610 . S
N595 S594 1.613 1_556 S
N595 C598 1.350 . S
N596 S594 1.610 . S
N596 C597 1.351 1_554 S
C597 C591 1.428 . S
C597 N596 1.351 1_556 S
C597 C598 1.434 . S
C598 C589 1.429 . S
C598 N595 1.350 . S
C598 C597 1.434 . S
C599 C600 1.369 . S
C599 C601 1.419 . S
C599 H603 0.930 . S
C600 C599 1.369 . S
C600 C609 1.429 . S
C601 C599 1.419 . S
C601 C602 1.363 . S
C601 H604 0.929 . S
C602 C601 1.363 . S
C602 C608 1.428 . S
H603 C599 0.930 . S
H604 C601 0.929 . S
S605 N606 1.613 . S
S605 N607 1.610 . S
N606 S605 1.613 . S
N606 C609 1.350 . S
N607 S605 1.610 . S
N607 C608 1.351 . S
C608 C602 1.428 . S
C608 N607 1.351 . S
C608 C609 1.434 . S
C609 C600 1.429 . S
C609 N606 1.350 . S
C609 C608 1.434 . S
C610 C611 1.369 . S
C610 C612 1.419 . S
C610 H614 0.930 . S
C611 C610 1.369 . S
C611 C620 1.429 . S
C612 C610 1.419 . S
C612 C613 1.363 . S
C612 H615 0.929 . S
C613 C612 1.363 . S
C613 C619 1.428 . S
H614 C610 0.930 . S
H615 C612 0.929 . S
S616 N617 1.613 1_556 S
S616 N618 1.610 . S
N617 S616 1.613 1_554 S
N617 C620 1.350 . S
N618 S616 1.610 . S
N618 C619 1.351 1_556 S
C619 C613 1.428 . S
C619 N618 1.351 1_554 S
C619 C620 1.434 . S
C620 C611 1.429 . S
C620 N617 1.350 . S
C620 C619 1.434 . S
C621 C622 1.369 . S
C621 C623 1.419 . S
C621 H625 0.930 . S
C622 C621 1.369 . S
C622 C631 1.429 . S
C623 C621 1.419 . S
C623 C624 1.363 . S
C623 H626 0.929 . S
C624 C623 1.363 . S
C624 C630 1.428 . S
H625 C621 0.930 . S
H626 C623 0.929 . S
S627 N628 1.613 . S
S627 N629 1.610 . S
N628 S627 1.613 . S
N628 C631 1.350 . S
N629 S627 1.610 . S
N629 C630 1.351 . S
C630 C624 1.428 . S
C630 N629 1.351 . S
C630 C631 1.434 . S
C631 C622 1.429 . S
C631 N628 1.350 . S
C631 C630 1.434 . S
C632 C633 1.369 . S
C632 C634 1.419 . S
C632 H636 0.930 . S
C633 C632 1.369 . S
C633 C642 1.429 . S
C634 C632 1.419 . S
C634 C635 1.363 . S
C634 H637 0.929 . S
C635 C634 1.363 . S
C635 C641 1.428 1_554 S
H636 C632 0.930 . S
H637 C634 0.929 . S
S638 N639 1.613 1_556 S
S638 N640 1.610 . S
N639 S638 1.613 1_554 S
N639 C642 1.350 . S
N640 S638 1.610 . S
N640 C641 1.352 . S
C641 C635 1.428 1_556 S
C641 N640 1.352 . S
C641 C642 1.433 1_556 S
C642 C633 1.429 . S
C642 N639 1.350 . S
C642 C641 1.433 1_554 S
C643 C644 1.369 . S
C643 C645 1.419 . S
C643 H647 0.930 . S
C644 C643 1.369 . S
C644 C653 1.429 . S
C645 C643 1.419 . S
C645 C646 1.363 . S
C645 H648 0.929 . S
C646 C645 1.363 . S
C646 C652 1.428 . S
H647 C643 0.930 . S
H648 C645 0.929 . S
S649 N650 1.613 . S
S649 N651 1.610 . S
N650 S649 1.613 . S
N650 C653 1.350 . S
N651 S649 1.610 . S
N651 C652 1.351 . S
C652 C646 1.428 . S
C652 N651 1.351 . S
C652 C653 1.434 . S
C653 C644 1.429 . S
C653 N650 1.350 . S
C653 C652 1.434 . S
C654 C655 1.369 . S
C654 C656 1.419 . S
C654 H658 0.930 . S
C655 C654 1.369 . S
C655 C664 1.429 . S
C656 C654 1.419 . S
C656 C657 1.363 . S
C656 H659 0.929 1_556 S
C657 C656 1.363 . S
C657 C663 1.428 . S
H658 C654 0.930 . S
H659 C656 0.929 1_554 S
S660 N661 1.613 . S
S660 N662 1.610 . S
N661 S660 1.613 . S
N661 C664 1.350 . S
N662 S660 1.610 . S
N662 C663 1.351 . S
C663 C657 1.428 . S
C663 N662 1.351 . S
C663 C664 1.434 . S
C664 C655 1.429 . S
C664 N661 1.350 . S
C664 C663 1.434 . S
C665 C666 1.369 . S
C665 C667 1.419 . S
C665 H669 0.930 . S
C666 C665 1.369 . S
C666 C675 1.429 . S
C667 C665 1.419 . S
C667 C668 1.363 . S
C667 H670 0.929 . S
C668 C667 1.363 . S
C668 C674 1.428 . S
H669 C665 0.930 . S
H670 C667 0.929 . S
S671 N672 1.613 . S
S671 N673 1.610 . S
N672 S671 1.613 . S
N672 C675 1.350 . S
N673 S671 1.610 . S
N673 C674 1.351 . S
C674 C668 1.428 . S
C674 N673 1.351 . S
C674 C675 1.434 . S
C675 C666 1.429 . S
C675 N672 1.350 . S
C675 C674 1.434 . S
C676 C677 1.369 . S
C676 C678 1.419 . S
C676 H680 0.930 . S
C677 C676 1.369 . S
C677 C686 1.429 . S
C678 C676 1.419 . S
C678 C679 1.363 . S
C678 H681 0.929 . S
C679 C678 1.363 . S
C679 C685 1.428 . S
H680 C676 0.930 . S
H681 C678 0.929 . S
S682 N683 1.613 . S
S682 N684 1.610 1_554 S
N683 S682 1.613 . S
N683 C686 1.348 1_554 S
N684 S682 1.610 1_556 S
N684 C685 1.351 . S
C685 C679 1.428 . S
C685 N684 1.351 . S
C685 C686 1.435 . S
C686 C677 1.429 . S
C686 N683 1.348 1_556 S
C686 C685 1.435 . S
C687 C688 1.369 . S
C687 C689 1.419 . S
C687 H691 0.930 . S
C688 C687 1.369 . S
C688 C697 1.429 . S
C689 C687 1.419 . S
C689 C690 1.363 . S
C689 H692 0.929 . S
C690 C689 1.363 . S
C690 C696 1.428 . S
H691 C687 0.930 . S
H692 C689 0.929 . S
S693 N694 1.613 . S
S693 N695 1.610 . S
N694 S693 1.613 . S
N694 C697 1.350 . S
N695 S693 1.610 . S
N695 C696 1.351 . S
C696 C690 1.428 . S
C696 N695 1.351 . S
C696 C697 1.434 . S
C697 C688 1.429 . S
C697 N694 1.350 . S
C697 C696 1.434 . S
C698 C699 1.369 . S
C698 C700 1.419 . S
C698 H702 0.930 . S
C699 C698 1.369 . S
C699 C708 1.429 . S
C700 C698 1.419 . S
C700 C701 1.363 . S
C700 H703 0.929 . S
C701 C700 1.363 . S
C701 C707 1.428 . S
H702 C698 0.930 . S
H703 C700 0.929 . S
S704 N705 1.613 . S
S704 N706 1.610 1_556 S
N705 S704 1.613 . S
N705 C708 1.350 1_556 S
N706 S704 1.610 1_554 S
N706 C707 1.351 . S
C707 C701 1.428 . S
C707 N706 1.351 . S
C707 C708 1.434 . S
C708 C699 1.429 . S
C708 N705 1.350 1_554 S
C708 C707 1.434 . S
C709 C710 1.369 . S
C709 C711 1.419 . S
C709 H713 0.930 . S
C710 C709 1.369 . S
C710 C719 1.429 . S
C711 C709 1.419 . S
C711 C712 1.363 . S
C711 H714 0.929 . S
C712 C711 1.363 . S
C712 C718 1.428 . S
H713 C709 0.930 . S
H714 C711 0.929 . S
S715 N716 1.613 . S
S715 N717 1.610 . S
N716 S715 1.613 . S
N716 C719 1.350 . S
N717 S715 1.610 . S
N717 C718 1.351 . S
C718 C712 1.428 . S
C718 N717 1.351 . S
C718 C719 1.434 . S
C719 C710 1.429 . S
C719 N716 1.350 . S
C719 C718 1.434 . S
C720 C721 1.369 . S
C720 C722 1.419 1_455 S
C720 H724 0.930 . S
C721 C720 1.369 . S
C721 C730 1.429 . S
C722 C720 1.419 1_655 S
C722 C723 1.363 . S
C722 H725 0.929 . S
C723 C722 1.363 . S
C723 C729 1.428 . S
H724 C720 0.930 . S
H725 C722 0.929 . S
S726 N727 1.618 1_655 S
S726 N728 1.606 . S
N727 S726 1.618 1_455 S
N727 C730 1.350 . S
N728 S726 1.606 . S
N728 C729 1.351 . S
C729 C723 1.428 . S
C729 N728 1.351 . S
C729 C730 1.434 1_655 S
C730 C721 1.429 . S
C730 N727 1.350 . S
C730 C729 1.434 1_455 S
C731 C732 1.369 . S
C731 C733 1.419 . S
C731 H735 0.930 . S
C732 C731 1.369 . S
C732 C741 1.429 . S
C733 C731 1.419 . S
C733 C734 1.363 . S
C733 H736 0.929 . S
C734 C733 1.363 . S
C734 C740 1.428 . S
H735 C731 0.930 . S
H736 C733 0.929 . S
S737 N738 1.613 . S
S737 N739 1.610 . S
N738 S737 1.613 . S
N738 C741 1.350 . S
N739 S737 1.610 . S
N739 C740 1.351 . S
C740 C734 1.428 . S
C740 N739 1.351 . S
C740 C741 1.434 . S
C741 C732 1.429 . S
C741 N738 1.350 . S
C741 C740 1.434 . S
C742 C743 1.369 . S
C742 C744 1.419 1_655 S
C742 H746 0.930 . S
C743 C742 1.369 . S
C743 C752 1.429 . S
C744 C742 1.419 1_455 S
C744 C745 1.363 . S
C744 H747 0.929 . S
C745 C744 1.363 . S
C745 C751 1.428 . S
H746 C742 0.930 . S
H747 C744 0.929 . S
S748 N749 1.618 1_455 S
S748 N750 1.606 . S
N749 S748 1.618 1_655 S
N749 C752 1.350 . S
N750 S748 1.606 . S
N750 C751 1.351 . S
C751 C745 1.428 . S
C751 N750 1.351 . S
C751 C752 1.434 1_455 S
C752 C743 1.429 . S
C752 N749 1.350 . S
C752 C751 1.434 1_655 S
C753 C754 1.369 . S
C753 C755 1.419 . S
C753 H757 0.930 . S
C754 C753 1.369 . S
C754 C763 1.429 . S
C755 C753 1.419 . S
C755 C756 1.363 . S
C755 H758 0.929 . S
C756 C755 1.363 . S
C756 C762 1.428 . S
H757 C753 0.930 . S
H758 C755 0.929 . S
S759 N760 1.613 . S
S759 N761 1.610 . S
N760 S759 1.613 . S
N760 C763 1.350 . S
N761 S759 1.610 . S
N761 C762 1.351 . S
C762 C756 1.428 . S
C762 N761 1.351 . S
C762 C763 1.434 . S
C763 C754 1.429 . S
C763 N760 1.350 . S
C763 C762 1.434 . S
C764 C765 1.369 . S
C764 C766 1.419 . S
C764 H768 0.930 . S
C765 C764 1.369 . S
C765 C774 1.429 . S
C766 C764 1.419 . S
C766 C767 1.363 . S
C766 H769 0.929 . S
C767 C766 1.363 . S
C767 C773 1.428 . S
H768 C764 0.930 . S
H769 C766 0.929 . S
S770 N771 1.613 . S
S770 N772 1.610 . S
N771 S770 1.613 . S
N771 C774 1.350 . S
N772 S770 1.610 . S
N772 C773 1.351 . S
C773 C767 1.428 . S
C773 N772 1.351 . S
C773 C774 1.434 . S
C774 C765 1.429 . S
C774 N771 1.350 . S
C774 C773 1.434 . S
C775 C776 1.369 . S
C775 C777 1.419 1_655 S
C775 H779 0.930 . S
C776 C775 1.369 . S
C776 C785 1.429 . S
C777 C775 1.419 1_455 S
C777 C778 1.363 . S
C777 H780 0.929 . S
C778 C777 1.363 . S
C778 C784 1.428 . S
H779 C775 0.930 . S
H780 C777 0.929 . S
S781 N782 1.618 1_455 S
S781 N783 1.606 . S
N782 S781 1.618 1_655 S
N782 C785 1.350 . S
N783 S781 1.606 . S
N783 C784 1.351 . S
C784 C778 1.428 . S
C784 N783 1.351 . S
C784 C785 1.434 1_455 S
C785 C776 1.429 . S
C785 N782 1.350 . S
C785 C784 1.434 1_655 S
C786 C787 1.369 . S
C786 C788 1.419 . S
C786 H790 0.930 . S
C787 C786 1.369 . S
C787 C796 1.429 . S
C788 C786 1.419 . S
C788 C789 1.363 . S
C788 H791 0.929 . S
C789 C788 1.363 . S
C789 C795 1.428 . S
H790 C786 0.930 . S
H791 C788 0.929 . S
S792 N793 1.613 . S
S792 N794 1.610 . S
N793 S792 1.613 . S
N793 C796 1.350 . S
N794 S792 1.610 . S
N794 C795 1.351 . S
C795 C789 1.428 . S
C795 N794 1.351 . S
C795 C796 1.434 . S
C796 C787 1.429 . S
C796 N793 1.350 . S
C796 C795 1.434 . S
C797 C798 1.369 . S
C797 C799 1.419 1_655 S
C797 H801 0.930 . S
C798 C797 1.369 . S
C798 C807 1.429 . S
C799 C797 1.419 1_455 S
C799 C800 1.363 . S
C799 H802 0.929 . S
C800 C799 1.363 . S
C800 C806 1.428 . S
H801 C797 0.930 . S
H802 C799 0.929 . S
S803 N804 1.618 1_455 S
S803 N805 1.606 . S
N804 S803 1.618 1_655 S
N804 C807 1.350 . S
N805 S803 1.606 . S
N805 C806 1.351 . S
C806 C800 1.428 . S
C806 N805 1.351 . S
C806 C807 1.434 1_455 S
C807 C798 1.429 . S
C807 N804 1.350 . S
C807 C806 1.434 1_655 S
C808 C809 1.369 . S
C808 C810 1.419 . S
C808 H812 0.930 . S
C809 C808 1.369 . S
C809 C818 1.429 . S
C810 C808 1.419 . S
C810 C811 1.363 . S
C810 H813 0.929 . S
C811 C810 1.363 . S
C811 C817 1.428 . S
H812 C808 0.930 . S
H813 C810 0.929 . S
S814 N815 1.613 . S
S814 N816 1.610 . S
N815 S814 1.613 . S
N815 C818 1.350 . S
N816 S814 1.610 . S
N816 C817 1.351 . S
C817 C811 1.428 . S
C817 N816 1.351 . S
C817 C818 1.434 . S
C818 C809 1.429 . S
C818 N815 1.350 . S
C818 C817 1.434 . S
C819 C820 1.369 . S
C819 C821 1.419 . S
C819 H823 0.930 . S
C820 C819 1.369 . S
C820 C829 1.429 . S
C821 C819 1.419 . S
C821 C822 1.363 . S
C821 H824 0.929 . S
C822 C821 1.363 . S
C822 C828 1.428 . S
H823 C819 0.930 . S
H824 C821 0.929 . S
S825 N826 1.613 . S
S825 N827 1.610 . S
N826 S825 1.613 . S
N826 C829 1.350 . S
N827 S825 1.610 . S
N827 C828 1.351 . S
C828 C822 1.428 . S
C828 N827 1.351 . S
C828 C829 1.434 . S
C829 C820 1.429 . S
C829 N826 1.350 . S
C829 C828 1.434 . S
C830 C831 1.369 . S
C830 C832 1.419 . S
C830 H834 0.930 . S
C831 C830 1.369 . S
C831 C840 1.429 . S
C832 C830 1.419 . S
C832 C833 1.363 . S
C832 H835 0.929 . S
C833 C832 1.363 . S
C833 C839 1.428 . S
H834 C830 0.930 . S
H835 C832 0.929 . S
S836 N837 1.613 . S
S836 N838 1.610 . S
N837 S836 1.613 . S
N837 C840 1.350 . S
N838 S836 1.610 . S
N838 C839 1.351 . S
C839 C833 1.428 . S
C839 N838 1.351 . S
C839 C840 1.434 . S
C840 C831 1.429 . S
C840 N837 1.350 . S
C840 C839 1.434 . S
C841 C842 1.369 . S
C841 C843 1.419 . S
C841 H845 0.930 . S
C842 C841 1.369 . S
C842 C851 1.429 . S
C843 C841 1.419 . S
C843 C844 1.363 . S
C843 H846 0.929 . S
C844 C843 1.363 . S
C844 C850 1.428 . S
H845 C841 0.930 . S
H846 C843 0.929 . S
S847 N848 1.613 . S
S847 N849 1.610 . S
N848 S847 1.613 . S
N848 C851 1.350 . S
N849 S847 1.610 . S
N849 C850 1.351 . S
C850 C844 1.428 . S
C850 N849 1.351 . S
C850 C851 1.434 . S
C851 C842 1.429 . S
C851 N848 1.350 . S
C851 C850 1.434 . S
C852 C853 1.369 . S
C852 C854 1.419 . S
C852 H856 0.930 . S
C853 C852 1.369 . S
C853 C862 1.429 . S
C854 C852 1.419 . S
C854 C855 1.363 . S
C854 H857 0.929 . S
C855 C854 1.363 . S
C855 C861 1.428 . S
H856 C852 0.930 . S
H857 C854 0.929 . S
S858 N859 1.613 . S
S858 N860 1.610 . S
N859 S858 1.613 . S
N859 C862 1.350 . S
N860 S858 1.610 . S
N860 C861 1.351 . S
C861 C855 1.428 . S
C861 N860 1.351 . S
C861 C862 1.434 . S
C862 C853 1.429 . S
C862 N859 1.350 . S
C862 C861 1.434 . S
C863 C864 1.369 . S
C863 C865 1.419 . S
C863 H867 0.930 . S
C864 C863 1.369 . S
C864 C873 1.429 . S
C865 C863 1.419 . S
C865 C866 1.363 . S
C865 H868 0.929 . S
C866 C865 1.363 . S
C866 C872 1.428 . S
H867 C863 0.930 . S
H868 C865 0.929 . S
S869 N870 1.613 . S
S869 N871 1.610 . S
N870 S869 1.613 . S
N870 C873 1.350 . S
N871 S869 1.610 . S
N871 C872 1.351 . S
C872 C866 1.428 . S
C872 N871 1.351 . S
C872 C873 1.434 . S
C873 C864 1.429 . S
C873 N870 1.350 . S
C873 C872 1.434 . S
C874 C875 1.369 . S
C874 C876 1.419 . S
C874 H878 0.930 . S
C875 C874 1.369 . S
C875 C884 1.429 . S
C876 C874 1.419 . S
C876 C877 1.363 . S
C876 H879 0.929 . S
C877 C876 1.363 . S
C877 C883 1.428 . S
H878 C874 0.930 . S
H879 C876 0.929 . S
S880 N881 1.613 . S
S880 N882 1.610 . S
N881 S880 1.613 . S
N881 C884 1.350 . S
N882 S880 1.610 . S
N882 C883 1.351 . S
C883 C877 1.428 . S
C883 N882 1.351 . S
C883 C884 1.434 . S
C884 C875 1.429 . S
C884 N881 1.350 . S
C884 C883 1.434 . S
C885 C886 1.369 . S
C885 C887 1.419 . S
C885 H889 0.930 . S
C886 C885 1.369 . S
C886 C895 1.429 . S
C887 C885 1.419 . S
C887 C888 1.363 . S
C887 H890 0.929 . S
C888 C887 1.363 . S
C888 C894 1.428 . S
H889 C885 0.930 . S
H890 C887 0.929 . S
S891 N892 1.613 . S
S891 N893 1.610 . S
N892 S891 1.613 . S
N892 C895 1.350 . S
N893 S891 1.610 . S
N893 C894 1.351 . S
C894 C888 1.428 . S
C894 N893 1.351 . S
C894 C895 1.434 . S
C895 C886 1.429 . S
C895 N892 1.350 . S
C895 C894 1.434 . S
C896 C897 1.369 . S
C896 C898 1.419 . S
C896 H900 0.930 . S
C897 C896 1.369 . S
C897 C906 1.429 . S
C898 C896 1.419 . S
C898 C899 1.363 . S
C898 H901 0.929 . S
C899 C898 1.363 . S
C899 C905 1.428 . S
H900 C896 0.930 . S
H901 C898 0.929 . S
S902 N903 1.613 . S
S902 N904 1.610 . S
N903 S902 1.613 . S
N903 C906 1.350 . S
N904 S902 1.610 . S
N904 C905 1.351 . S
C905 C899 1.428 . S
C905 N904 1.351 . S
C905 C906 1.434 . S
C906 C897 1.429 . S
C906 N903 1.350 . S
C906 C905 1.434 . S
C907 C908 1.369 . S
C907 C909 1.419 . S
C907 H911 0.930 . S
C908 C907 1.369 . S
C908 C917 1.429 1_556 S
C909 C907 1.419 . S
C909 C910 1.363 1_556 S
C909 H912 0.929 . S
C910 C909 1.363 1_554 S
C910 C916 1.428 . S
H911 C907 0.930 . S
H912 C909 0.929 . S
S913 N914 1.613 . S
S913 N915 1.610 . S
N914 S913 1.613 . S
N914 C917 1.350 . S
N915 S913 1.610 . S
N915 C916 1.351 . S
C916 C910 1.428 . S
C916 N915 1.351 . S
C916 C917 1.434 . S
C917 C908 1.429 1_554 S
C917 N914 1.350 . S
C917 C916 1.434 . S
C918 C919 1.369 . S
C918 C920 1.419 . S
C918 H922 0.930 . S
C919 C918 1.369 . S
C919 C928 1.429 . S
C920 C918 1.419 . S
C920 C921 1.363 . S
C920 H923 0.929 . S
C921 C920 1.363 . S
C921 C927 1.428 . S
H922 C918 0.930 . S
H923 C920 0.929 . S
S924 N925 1.613 . S
S924 N926 1.610 . S
N925 S924 1.613 . S
N925 C928 1.350 . S
N926 S924 1.610 . S
N926 C927 1.351 . S
C927 C921 1.428 . S
C927 N926 1.351 . S
C927 C928 1.434 . S
C928 C919 1.429 . S
C928 N925 1.350 . S
C928 C927 1.434 . S
C929 C930 1.369 . S
C929 C931 1.419 . S
C929 H933 0.930 . S
C930 C929 1.369 . S
C930 C939 1.429 1_556 S
C931 C929 1.419 . S
C931 C932 1.363 1_556 S
C931 H934 0.929 . S
C932 C931 1.363 1_554 S
C932 C938 1.428 . S
H933 C929 0.930 . S
H934 C931 0.929 . S
S935 N936 1.613 . S
S935 N937 1.610 . S
N936 S935 1.613 . S
N936 C939 1.350 . S
N937 S935 1.610 . S
N937 C938 1.351 . S
C938 C932 1.428 . S
C938 N937 1.351 . S
C938 C939 1.434 . S
C939 C930 1.429 1_554 S
C939 N936 1.350 . S
C939 C938 1.434 . S
C940 C941 1.369 . S
C940 C942 1.419 1_565 S
C940 H944 0.930 . S
C941 C940 1.369 . S
C941 C950 1.429 . S
C942 C940 1.419 1_545 S
C942 C943 1.363 . S
C942 H945 0.929 . S
C943 C942 1.363 . S
C943 C949 1.428 . S
H944 C940 0.930 . S
H945 C942 0.929 . S
S946 N947 1.613 . S
S946 N948 1.597 1_565 S
N947 S946 1.613 . S
N947 C950 1.350 . S
N948 S946 1.597 1_545 S
N948 C949 1.352 . S
C949 C943 1.428 . S
C949 N948 1.352 . S
C949 C950 1.434 1_545 S
C950 C941 1.429 . S
C950 N947 1.350 . S
C950 C949 1.434 1_565 S
C951 C952 1.369 . S
C951 C953 1.419 1_565 S
C951 H955 0.930 . S
C952 C951 1.369 . S
C952 C961 1.429 1_554 S
C953 C951 1.419 1_545 S
C953 C954 1.363 1_554 S
C953 H956 0.929 . S
C954 C953 1.363 1_556 S
C954 C960 1.428 . S
H955 C951 0.930 . S
H956 C953 0.929 . S
S957 N958 1.613 . S
S957 N959 1.597 1_565 S
N958 S957 1.613 . S
N958 C961 1.350 . S
N959 S957 1.597 1_545 S
N959 C960 1.352 . S
C960 C954 1.428 . S
C960 N959 1.352 . S
C960 C961 1.434 1_545 S
C961 C952 1.429 1_556 S
C961 N958 1.350 . S
C961 C960 1.434 1_565 S
C962 C963 1.369 . S
C962 C964 1.419 1_545 S
C962 H966 0.930 . S
C963 C962 1.369 . S
C963 C972 1.429 . S
C964 C962 1.419 1_565 S
C964 C965 1.363 . S
C964 H967 0.929 . S
C965 C964 1.363 . S
C965 C971 1.428 . S
H966 C962 0.930 . S
H967 C964 0.929 . S
S968 N969 1.613 1_565 S
S968 N970 1.610 . S
N969 S968 1.613 1_545 S
N969 C972 1.350 . S
N970 S968 1.610 . S
N970 C971 1.351 . S
C971 C965 1.428 . S
C971 N970 1.351 . S
C971 C972 1.434 1_565 S
C972 C963 1.429 . S
C972 N969 1.350 . S
C972 C971 1.434 1_545 S
C973 C974 1.369 . S
C973 C975 1.419 1_565 S
C973 H977 0.930 . S
C974 C973 1.369 . S
C974 C983 1.429 1_554 S
C975 C973 1.419 1_545 S
C975 C976 1.363 1_554 S
C975 H978 0.929 . S
C976 C975 1.363 1_556 S
C976 C982 1.428 . S
H977 C973 0.930 . S
H978 C975 0.929 . S
S979 N980 1.613 . S
S979 N981 1.596 1_565 S
N980 S979 1.613 . S
N980 C983 1.350 . S
N981 S979 1.596 1_545 S
N981 C982 1.352 . S
C982 C976 1.428 . S
C982 N981 1.352 . S
C982 C983 1.434 1_545 S
C983 C974 1.429 1_556 S
C983 N980 1.350 . S
C983 C982 1.434 1_565 S
C984 C985 1.369 . S
C984 C986 1.419 . S
C984 H988 0.930 . S
C985 C984 1.369 . S
C985 C994 1.429 . S
C986 C984 1.419 . S
C986 C987 1.363 . S
C986 H989 0.929 . S
C987 C986 1.363 . S
C987 C993 1.428 . S
H988 C984 0.930 . S
H989 C986 0.929 . S
S990 N991 1.613 . S
S990 N992 1.610 . S
N991 S990 1.613 . S
N991 C994 1.350 . S
N992 S990 1.610 . S
N992 C993 1.351 . S
C993 C987 1.428 . S
C993 N992 1.351 . S
C993 C994 1.434 . S
C994 C985 1.429 . S
C994 N991 1.350 . S
C994 C993 1.434 . S
C995 C996 1.369 . S
C995 C997 1.419 . S
C995 H999 0.930 . S
C996 C995 1.369 . S
C996 C1005 1.429 . S
C997 C995 1.419 . S
C997 C998 1.363 . S
C997 H1000 0.929 . S
C998 C997 1.363 . S
C998 C1004 1.428 . S
H999 C995 0.930 . S
H1000 C997 0.929 . S
S1001 N1002 1.613 . S
S1001 N1003 1.610 . S
N1002 S1001 1.613 . S
N1002 C1005 1.350 . S
N1003 S1001 1.610 . S
N1003 C1004 1.351 . S
C1004 C998 1.428 . S
C1004 N1003 1.351 . S
C1004 C1005 1.434 . S
C1005 C996 1.429 . S
C1005 N1002 1.350 . S
C1005 C1004 1.434 . S
C1006 C1007 1.369 . S
C1006 C1008 1.419 . S
C1006 H1010 0.930 . S
C1007 C1006 1.369 . S
C1007 C1016 1.429 . S
C1008 C1006 1.419 . S
C1008 C1009 1.363 . S
C1008 H1011 0.929 . S
C1009 C1008 1.363 . S
C1009 C1015 1.428 . S
H1010 C1006 0.930 . S
H1011 C1008 0.929 . S
S1012 N1013 1.613 . S
S1012 N1014 1.610 . S
N1013 S1012 1.613 . S
N1013 C1016 1.350 . S
N1014 S1012 1.610 . S
N1014 C1015 1.351 . S
C1015 C1009 1.428 . S
C1015 N1014 1.351 . S
C1015 C1016 1.434 . S
C1016 C1007 1.429 . S
C1016 N1013 1.350 . S
C1016 C1015 1.434 . S
C1017 C1018 1.369 . S
C1017 C1019 1.419 . S
C1017 H1021 0.930 . S
C1018 C1017 1.369 . S
C1018 C1027 1.429 . S
C1019 C1017 1.419 . S
C1019 C1020 1.363 . S
C1019 H1022 0.929 . S
C1020 C1019 1.363 . S
C1020 C1026 1.428 . S
H1021 C1017 0.930 . S
H1022 C1019 0.929 . S
S1023 N1024 1.613 . S
S1023 N1025 1.610 . S
N1024 S1023 1.613 . S
N1024 C1027 1.350 . S
N1025 S1023 1.610 . S
N1025 C1026 1.351 . S
C1026 C1020 1.428 . S
C1026 N1025 1.351 . S
C1026 C1027 1.434 . S
C1027 C1018 1.429 . S
C1027 N1024 1.350 . S
C1027 C1026 1.434 . S
C1028 C1029 1.369 . S
C1028 C1030 1.419 . S
C1028 H1032 0.930 . S
C1029 C1028 1.369 . S
C1029 C1038 1.429 . S
C1030 C1028 1.419 . S
C1030 C1031 1.363 . S
C1030 H1033 0.929 . S
C1031 C1030 1.363 . S
C1031 C1037 1.428 . S
H1032 C1028 0.930 . S
H1033 C1030 0.929 . S
S1034 N1035 1.613 . S
S1034 N1036 1.610 . S
N1035 S1034 1.613 . S
N1035 C1038 1.350 . S
N1036 S1034 1.610 . S
N1036 C1037 1.351 . S
C1037 C1031 1.428 . S
C1037 N1036 1.351 . S
C1037 C1038 1.434 . S
C1038 C1029 1.429 . S
C1038 N1035 1.350 . S
C1038 C1037 1.434 . S
C1039 C1040 1.369 . S
C1039 C1041 1.419 . S
C1039 H1043 0.930 . S
C1040 C1039 1.369 . S
C1040 C1049 1.429 . S
C1041 C1039 1.419 . S
C1041 C1042 1.363 . S
C1041 H1044 0.929 . S
C1042 C1041 1.363 . S
C1042 C1048 1.428 . S
H1043 C1039 0.930 . S
H1044 C1041 0.929 . S
S1045 N1046 1.613 . S
S1045 N1047 1.610 . S
N1046 S1045 1.613 . S
N1046 C1049 1.350 . S
N1047 S1045 1.610 . S
N1047 C1048 1.351 . S
C1048 C1042 1.428 . S
C1048 N1047 1.351 . S
C1048 C1049 1.434 . S
C1049 C1040 1.429 . S
C1049 N1046 1.350 . S
C1049 C1048 1.434 . S
C1050 C1051 1.369 . S
C1050 C1052 1.419 . S
C1050 H1054 0.930 . S
C1051 C1050 1.369 . S
C1051 C1060 1.429 . S
C1052 C1050 1.419 . S
C1052 C1053 1.363 . S
C1052 H1055 0.929 . S
C1053 C1052 1.363 . S
C1053 C1059 1.428 . S
H1054 C1050 0.930 . S
H1055 C1052 0.929 . S
S1056 N1057 1.613 . S
S1056 N1058 1.610 . S
N1057 S1056 1.613 . S
N1057 C1060 1.350 . S
N1058 S1056 1.610 . S
N1058 C1059 1.351 . S
C1059 C1053 1.428 . S
C1059 N1058 1.351 . S
C1059 C1060 1.434 . S
C1060 C1051 1.429 . S
C1060 N1057 1.350 . S
C1060 C1059 1.434 . S
C1061 C1062 1.369 . S
C1061 C1063 1.419 . S
C1061 H1065 0.930 . S
C1062 C1061 1.369 . S
C1062 C1071 1.429 . S
C1063 C1061 1.419 . S
C1063 C1064 1.363 . S
C1063 H1066 0.929 . S
C1064 C1063 1.363 . S
C1064 C1070 1.428 . S
H1065 C1061 0.930 . S
H1066 C1063 0.929 . S
S1067 N1068 1.613 . S
S1067 N1069 1.610 . S
N1068 S1067 1.613 . S
N1068 C1071 1.350 . S
N1069 S1067 1.610 . S
N1069 C1070 1.351 . S
C1070 C1064 1.428 . S
C1070 N1069 1.351 . S
C1070 C1071 1.434 . S
C1071 C1062 1.429 . S
C1071 N1068 1.350 . S
C1071 C1070 1.434 . S
C1072 C1073 1.369 . S
C1072 C1074 1.419 . S
C1072 H1076 0.930 . S
C1073 C1072 1.369 . S
C1073 C1082 1.429 . S
C1074 C1072 1.419 . S
C1074 C1075 1.363 . S
C1074 H1077 0.929 . S
C1075 C1074 1.363 . S
C1075 C1081 1.428 . S
H1076 C1072 0.930 . S
H1077 C1074 0.929 . S
S1078 N1079 1.613 . S
S1078 N1080 1.610 . S
N1079 S1078 1.613 . S
N1079 C1082 1.350 . S
N1080 S1078 1.610 . S
N1080 C1081 1.351 . S
C1081 C1075 1.428 . S
C1081 N1080 1.351 . S
C1081 C1082 1.434 . S
C1082 C1073 1.429 . S
C1082 N1079 1.350 . S
C1082 C1081 1.434 . S
C1083 C1084 1.369 . S
C1083 C1085 1.419 . S
C1083 H1087 0.930 . S
C1084 C1083 1.369 . S
C1084 C1093 1.429 . S
C1085 C1083 1.419 . S
C1085 C1086 1.363 . S
C1085 H1088 0.929 . S
C1086 C1085 1.363 . S
C1086 C1092 1.428 . S
H1087 C1083 0.930 . S
H1088 C1085 0.929 . S
S1089 N1090 1.613 . S
S1089 N1091 1.610 . S
N1090 S1089 1.613 . S
N1090 C1093 1.350 . S
N1091 S1089 1.610 . S
N1091 C1092 1.351 . S
C1092 C1086 1.428 . S
C1092 N1091 1.351 . S
C1092 C1093 1.434 . S
C1093 C1084 1.429 . S
C1093 N1090 1.350 . S
C1093 C1092 1.434 . S
C1094 C1095 1.369 . S
C1094 C1096 1.419 . S
C1094 H1098 0.930 . S
C1095 C1094 1.369 . S
C1095 C1104 1.429 . S
C1096 C1094 1.419 . S
C1096 C1097 1.363 . S
C1096 H1099 0.929 . S
C1097 C1096 1.363 . S
C1097 C1103 1.428 . S
H1098 C1094 0.930 . S
H1099 C1096 0.929 . S
S1100 N1101 1.613 . S
S1100 N1102 1.610 . S
N1101 S1100 1.613 . S
N1101 C1104 1.350 . S
N1102 S1100 1.610 . S
N1102 C1103 1.351 . S
C1103 C1097 1.428 . S
C1103 N1102 1.351 . S
C1103 C1104 1.434 . S
C1104 C1095 1.429 . S
C1104 N1101 1.350 . S
C1104 C1103 1.434 . S
C1105 C1106 1.369 . S
C1105 C1107 1.419 . S
C1105 H1109 0.930 . S
C1106 C1105 1.369 . S
C1106 C1115 1.429 . S
C1107 C1105 1.419 . S
C1107 C1108 1.363 . S
C1107 H1110 0.929 . S
C1108 C1107 1.363 . S
C1108 C1114 1.428 . S
H1109 C1105 0.930 . S
H1110 C1107 0.929 . S
S1111 N1112 1.613 . S
S1111 N1113 1.610 . S
N1112 S1111 1.613 . S
N1112 C1115 1.350 . S
N1113 S1111 1.610 . S
N1113 C1114 1.351 . S
C1114 C1108 1.428 . S
C1114 N1113 1.351 . S
C1114 C1115 1.434 . S
C1115 C1106 1.429 . S
C1115 N1112 1.350 . S
C1115 C1114 1.434 . S
C1116 C1117 1.369 . S
C1116 C1118 1.419 . S
C1116 H1120 0.930 . S
C1117 C1116 1.369 . S
C1117 C1126 1.429 . S
C1118 C1116 1.419 . S
C1118 C1119 1.363 . S
C1118 H1121 0.929 . S
C1119 C1118 1.363 . S
C1119 C1125 1.428 . S
H1120 C1116 0.930 . S
H1121 C1118 0.929 . S
S1122 N1123 1.613 . S
S1122 N1124 1.610 . S
N1123 S1122 1.613 . S
N1123 C1126 1.350 . S
N1124 S1122 1.610 . S
N1124 C1125 1.351 . S
C1125 C1119 1.428 . S
C1125 N1124 1.351 . S
C1125 C1126 1.434 . S
C1126 C1117 1.429 . S
C1126 N1123 1.350 . S
C1126 C1125 1.434 . S
C1127 C1128 1.369 . S
C1127 C1129 1.419 . S
C1127 H1131 0.930 . S
C1128 C1127 1.369 . S
C1128 C1137 1.429 . S
C1129 C1127 1.419 . S
C1129 C1130 1.363 . S
C1129 H1132 0.929 . S
C1130 C1129 1.363 . S
C1130 C1136 1.428 . S
H1131 C1127 0.930 . S
H1132 C1129 0.929 . S
S1133 N1134 1.613 . S
S1133 N1135 1.610 . S
N1134 S1133 1.613 . S
N1134 C1137 1.350 . S
N1135 S1133 1.610 . S
N1135 C1136 1.351 . S
C1136 C1130 1.428 . S
C1136 N1135 1.351 . S
C1136 C1137 1.434 . S
C1137 C1128 1.429 . S
C1137 N1134 1.350 . S
C1137 C1136 1.434 . S
C1138 C1139 1.369 . S
C1138 C1140 1.419 . S
C1138 H1142 0.930 . S
C1139 C1138 1.369 . S
C1139 C1148 1.429 . S
C1140 C1138 1.419 . S
C1140 C1141 1.363 . S
C1140 H1143 0.929 . S
C1141 C1140 1.363 . S
C1141 C1147 1.428 . S
H1142 C1138 0.930 . S
H1143 C1140 0.929 . S
S1144 N1145 1.613 . S
S1144 N1146 1.610 . S
N1145 S1144 1.613 . S
N1145 C1148 1.350 . S
N1146 S1144 1.610 . S
N1146 C1147 1.351 . S
C1147 C1141 1.428 . S
C1147 N1146 1.351 . S
C1147 C1148 1.434 . S
C1148 C1139 1.429 . S
C1148 N1145 1.350 . S
C1148 C1147 1.434 . S
C1149 C1150 1.369 . S
C1149 C1151 1.419 . S
C1149 H1153 0.930 . S
C1150 C1149 1.369 . S
C1150 C1159 1.429 . S
C1151 C1149 1.419 . S
C1151 C1152 1.363 . S
C1151 H1154 0.929 . S
C1152 C1151 1.363 . S
C1152 C1158 1.428 . S
H1153 C1149 0.930 . S
H1154 C1151 0.929 . S
S1155 N1156 1.613 . S
S1155 N1157 1.610 . S
N1156 S1155 1.613 . S
N1156 C1159 1.350 . S
N1157 S1155 1.610 . S
N1157 C1158 1.351 . S
C1158 C1152 1.428 . S
C1158 N1157 1.351 . S
C1158 C1159 1.434 . S
C1159 C1150 1.429 . S
C1159 N1156 1.350 . S
C1159 C1158 1.434 . S
C545 C513 1.601 1_554 S
C547 C17 1.678 . S
C556 C477 1.592 . S
C558 C51 1.679 . S
C567 C443 1.590 1_556 S
C569 C85 1.677 . S
C578 C409 1.591 . S
C580 C119 1.676 . S
C589 C153 1.680 . S
C591 C375 1.593 1_556 S
C600 C341 1.591 . S
C602 C187 1.676 . S
C611 C221 1.680 . S
C613 C307 1.594 1_554 S
C622 C273 1.590 . S
C624 C255 1.676 . S
C633 C289 1.681 . S
C635 C241 1.599 1_554 S
C644 C323 1.676 . S
C646 C205 1.599 . S
C655 C357 1.678 . S
C657 C173 1.591 1_556 S
C666 C391 1.676 . S
C668 C137 1.591 . S
C677 C103 1.599 1_556 S
C679 C425 1.680 . S
C688 C69 1.593 . S
C690 C459 1.679 . S
C699 C35 1.595 1_554 S
C701 C493 1.680 . S
C710 C1 1.594 . S
C712 C527 1.680 . S
C721 C22 1.660 . S
C723 C226 1.661 . S
C732 C253 1.669 . S
C734 C56 1.668 . S
C743 C158 1.663 . S
C745 C90 1.663 . S
C754 C124 1.666 . S
C756 C185 1.665 . S
C765 C498 1.659 . S
C767 C294 1.660 . S
C776 C328 1.659 . S
C778 C525 1.660 . S
C787 C430 1.669 . S
C789 C362 1.668 . S
C798 C396 1.659 . S
C800 C464 1.660 . S
C809 C117 1.613 . S
C811 C15 1.614 . S
C820 C83 1.605 . S
C822 C49 1.606 . S
C831 C260 1.605 . S
C833 C151 1.607 . S
C842 C192 1.616 . S
C844 C219 1.614 . S
C853 C389 1.607 . S
C855 C287 1.607 . S
C864 C355 1.611 . S
C866 C321 1.609 . S
C875 C423 1.609 . S
C877 C532 1.611 . S
C886 C491 1.605 . S
C888 C457 1.607 . S
C897 C3 1.968 . S
C899 C71 1.968 . S
C908 C37 1.962 . S
C910 C105 1.966 . S
C919 C139 1.967 . S
C921 C207 1.964 . S
C930 C239 1.962 . S
C932 C171 1.965 . S
C941 C275 1.963 . S
C943 C343 1.966 . S
C952 C377 1.963 . S
C954 C309 1.966 . S
C963 C411 1.968 . S
C965 C479 1.966 . S
C974 C445 1.965 . S
C976 C511 1.967 . S
C985 C6 1.213 . S
C987 C470 1.253 1_545 S
C996 C436 1.249 1_565 S
C998 C40 1.222 . S
C1007 C516 1.249 1_565 S
C1009 C74 1.218 . S
C1018 C108 1.213 . S
C1020 C504 1.253 1_545 S
C1029 C142 1.221 . S
C1031 C334 1.248 1_565 S
C1040 C198 1.220 . S
C1042 C300 1.252 1_545 S
C1051 C402 1.251 1_545 S
C1053 C210 1.215 . S
C1062 C266 1.213 . S
C1064 C368 1.252 1_565 S
C1073 C278 1.215 . S
C1075 C176 1.251 . S
C1084 C164 1.247 . S
C1086 C312 1.223 . S
C1095 C346 1.215 . S
C1097 C244 1.251 . S
C1106 C232 1.249 . S
C1108 C380 1.222 . S
C1117 C62 1.252 . S
C1119 C414 1.219 . S
C1128 C448 1.214 . S
C1130 C28 1.253 . S
C1139 C482 1.223 . S
C1141 C130 1.250 . S
C1150 C538 1.213 . S
C1152 C96 1.253 . S
