# Generated by pormake.
# Topology vby, (6)-cn, num edge types: 1
# Building blocks:
#     Node 0, Type 0, BuildingBlock: GEDQOX_clean_sbu_0, # of connection points: 6
#     Node 1, Type 0, BuildingBlock: GEDQOX_clean_sbu_0, # of connection points: 6
#     Node 2, Type 0, BuildingBlock: GEDQOX_clean_sbu_0, # of connection points: 6
#     Node 3, Type 0, BuildingBlock: GEDQOX_clean_sbu_0, # of connection points: 6
#     Node 4, Type 0, BuildingBlock: GEDQOX_clean_sbu_0, # of connection points: 6
#     Node 5, Type 0, BuildingBlock: GEDQOX_clean_sbu_0, # of connection points: 6
#     Node 6, Type 0, BuildingBlock: GEDQOX_clean_sbu_0, # of connection points: 6
#     Node 7, Type 0, BuildingBlock: GEDQOX_clean_sbu_0, # of connection points: 6
#     Edge 8, Type (0, 0), BuildingBlock: EYOCIG_clean_linker_4, # of connection points: 2
#     Edge 9, Type (0, 0), BuildingBlock: EYOCIG_clean_linker_4, # of connection points: 2
#     Edge 10, Type (0, 0), BuildingBlock: EYOCIG_clean_linker_4, # of connection points: 2
#     Edge 11, Type (0, 0), BuildingBlock: EYOCIG_clean_linker_4, # of connection points: 2
#     Edge 12, Type (0, 0), BuildingBlock: EYOCIG_clean_linker_4, # of connection points: 2
#     Edge 13, Type (0, 0), BuildingBlock: EYOCIG_clean_linker_4, # of connection points: 2
#     Edge 14, Type (0, 0), BuildingBlock: EYOCIG_clean_linker_4, # of connection points: 2
#     Edge 15, Type (0, 0), BuildingBlock: EYOCIG_clean_linker_4, # of connection points: 2
#     Edge 16, Type (0, 0), BuildingBlock: EYOCIG_clean_linker_4, # of connection points: 2
#     Edge 17, Type (0, 0), BuildingBlock: EYOCIG_clean_linker_4, # of connection points: 2
#     Edge 18, Type (0, 0), BuildingBlock: EYOCIG_clean_linker_4, # of connection points: 2
#     Edge 19, Type (0, 0), BuildingBlock: EYOCIG_clean_linker_4, # of connection points: 2
#     Edge 20, Type (0, 0), BuildingBlock: EYOCIG_clean_linker_4, # of connection points: 2
#     Edge 21, Type (0, 0), BuildingBlock: EYOCIG_clean_linker_4, # of connection points: 2
#     Edge 22, Type (0, 0), BuildingBlock: EYOCIG_clean_linker_4, # of connection points: 2
#     Edge 23, Type (0, 0), BuildingBlock: EYOCIG_clean_linker_4, # of connection points: 2
#     Edge 24, Type (0, 0), BuildingBlock: EYOCIG_clean_linker_4, # of connection points: 2
#     Edge 25, Type (0, 0), BuildingBlock: EYOCIG_clean_linker_4, # of connection points: 2
#     Edge 26, Type (0, 0), BuildingBlock: EYOCIG_clean_linker_4, # of connection points: 2
#     Edge 27, Type (0, 0), BuildingBlock: EYOCIG_clean_linker_4, # of connection points: 2
#     Edge 28, Type (0, 0), BuildingBlock: EYOCIG_clean_linker_4, # of connection points: 2
#     Edge 29, Type (0, 0), BuildingBlock: EYOCIG_clean_linker_4, # of connection points: 2
#     Edge 30, Type (0, 0), BuildingBlock: EYOCIG_clean_linker_4, # of connection points: 2
#     Edge 31, Type (0, 0), BuildingBlock: EYOCIG_clean_linker_4, # of connection points: 2
# Relax obj value: 0.132
# Max RMSD: 0.222
# Mean RMSD: 0.218
data_MOF--net-vby--node1-GEDQOX_clean_sbu_0--edge1-EYOCIG_clean_linker_4
_symmetry_space_group_name_H-M    P1
_symmetry_Int_Tables_number       1
_symmetry_cell_setting            triclinic
loop_
_symmetry_equiv_pos_as_xyz
'x, y, z'
_cell_length_a     22.444497
_cell_length_b     41.930728
_cell_length_c     22.531997
_cell_angle_alpha  93.128731
_cell_angle_beta   92.838376
_cell_angle_gamma 90.003868
loop_
_atom_site_label
_atom_site_type_symbol
_atom_site_fract_x
_atom_site_fract_y
_atom_site_fract_z
_atom_type_partial_charge
Nd0 Nd 0.1532 0.37196 0.03099 0.0
Nd1 Nd 0.04144 0.3424 1.01579 0.0
C2 C 0.26618 0.38435 0.01763 0.0
C3 C 0.32545 0.36931 0.02315 0.0
C4 C 0.34936 0.35286 0.97359 0.0
C5 C 0.41018 0.34588 0.97368 0.0
C6 C 0.4473 0.35515 0.0233 0.0
C7 C 0.42283 0.3686 0.07474 0.0
C8 C 0.36212 0.37562 0.07476 0.0
C9 C 0.10079 0.36388 0.13792 0.0
C10 C 0.15872 0.29538 0.0191 0.0
C11 C 0.92742 0.32915 0.0283 0.0
C12 C 0.86686 0.34293 0.02044 0.0
C13 C 0.84031 0.35913 0.06875 0.0
C14 C 0.77918 0.36561 0.06618 0.0
C15 C 0.74404 0.35603 1.01534 0.0
C16 C 0.77084 0.34246 0.96526 0.0
C17 C 0.83193 0.33593 0.96773 0.0
C18 C 0.07951 0.35207 0.90582 0.0
C19 C 0.05748 0.42348 0.02055 0.0
O20 O 0.22985 0.37308 0.97428 0.0
O21 O 0.23932 0.39268 0.06647 0.0
O22 O 0.12812 0.38977 0.12558 0.0
O23 O 0.10317 0.34292 0.09574 0.0
O24 O 0.18769 0.32208 0.02076 0.0
O25 O 0.09944 0.29515 0.02066 0.0
O26 O 0.96277 0.34161 0.0712 0.0
O27 O 0.95569 0.32044 0.98081 0.0
O28 O 0.05793 0.32523 0.92101 0.0
O29 O 0.08591 0.37205 0.95027 0.0
O30 O 1.02158 0.39836 0.02399 0.0
O31 O 0.11464 0.41978 0.01681 0.0
H32 H 0.32213 0.34735 0.93329 0.0
H33 H 0.42869 0.3352 0.93377 0.0
H34 H 0.45124 0.37561 0.11356 0.0
H35 H 0.3449 0.38798 0.11372 0.0
H36 H 0.86591 0.36501 0.1099 0.0
H37 H 0.75888 0.37631 0.10512 0.0
H38 H 0.744 0.33512 0.92554 0.0
H39 H 0.85093 0.32362 0.92964 0.0
Nd40 Nd 0.9045 0.63054 0.01948 0.0
Nd41 Nd 1.01847 0.65928 0.01723 0.0
C42 C 0.79016 0.61905 0.998 0.0
C43 C 0.73096 0.63292 1.0081 0.0
C44 C 0.69943 0.64767 0.96152 0.0
C45 C 0.63866 0.65411 0.96518 0.0
C46 C 0.60912 0.64594 1.01545 0.0
C47 C 0.64129 0.63391 0.06402 0.0
C48 C 0.702 0.62746 0.06048 0.0
C49 C 0.96355 0.63588 0.12917 0.0
C50 C 0.90019 0.70633 0.02643 0.0
C51 C 0.13027 0.67208 0.05329 0.0
C52 C 0.19106 0.66046 0.04048 0.0
C53 C 0.22475 0.64514 0.08489 0.0
C54 C 0.28509 0.63835 0.07812 0.0
C55 C 0.31245 0.64676 0.02676 0.0
C56 C 0.27829 0.65968 0.98028 0.0
C57 C 0.21784 0.66649 0.98697 0.0
C58 C 0.99633 0.64655 0.90026 0.0
C59 C 1.00018 0.57925 1.00519 0.0
O60 O 0.82321 0.63335 0.96123 0.0
O61 O 0.82073 0.60788 0.04336 0.0
O62 O 0.93544 0.61024 0.10876 0.0
O63 O 0.9594 0.65776 0.09283 0.0
O64 O 0.87272 0.68034 0.03746 0.0
O65 O 0.95838 0.70608 0.01669 0.0
O66 O 0.09622 0.6524 0.07936 0.0
O67 O 0.1009 0.68852 1.01362 0.0
O68 O 0.04085 0.66304 0.92299 0.0
O69 O 0.95926 0.63806 0.93783 0.0
O70 O 0.03615 0.60378 0.02035 0.0
O71 O 0.94375 0.58359 0.99284 0.0
H72 H 0.72071 0.65233 0.92074 0.0
H73 H 0.61419 0.66366 0.92747 0.0
H74 H 0.61882 0.62776 0.10332 0.0
H75 H 0.72515 0.61639 0.09729 0.0
H76 H 0.20513 0.63982 0.12621 0.0
H77 H 0.31096 0.62813 0.11425 0.0
H78 H 0.29903 0.666 0.94009 0.0
H79 H 0.19299 0.67773 0.95142 0.0
Nd80 Nd 0.04097 0.65975 0.51853 0.0
Nd81 Nd 0.15304 0.63061 0.52823 0.0
C82 C 0.92728 0.67339 0.53449 0.0
C83 C 0.86678 0.65907 0.52696 0.0
C84 C 0.84111 0.64455 0.57455 0.0
C85 C 0.78002 0.63768 0.57224 0.0
C86 C 0.74417 0.64523 0.5224 0.0
C87 C 0.77014 0.65712 0.47298 0.0
C88 C 0.83108 0.66399 0.47516 0.0
C89 C 0.07976 0.65031 0.40691 0.0
C90 C 0.05714 0.57892 0.51399 0.0
C91 C 0.26554 0.61852 0.51087 0.0
C92 C 0.32506 0.6333 0.52007 0.0
C93 C 0.35077 0.64824 0.47302 0.0
C94 C 0.41179 0.65484 0.47554 0.0
C95 C 0.44731 0.64673 0.52516 0.0
C96 C 0.42109 0.63484 0.57447 0.0
C97 C 0.36014 0.6282 0.57206 0.0
C98 C 0.09947 0.63794 0.63519 0.0
C99 C 0.15907 0.70694 0.53099 0.0
O100 O 0.96363 0.66317 0.5763 0.0
O101 O 0.95444 0.67974 0.48663 0.0
O102 O 0.05647 0.67668 0.4272 0.0
O103 O 0.08602 0.63011 0.44704 0.0
O104 O 1.02139 0.60407 0.52079 0.0
O105 O 0.11409 0.58247 0.50871 0.0
O106 O 0.2292 0.63054 0.47064 0.0
O107 O 0.23886 0.60946 0.55766 0.0
O108 O 0.12775 0.61235 0.61821 0.0
O109 O 0.10237 0.65926 0.59799 0.0
O110 O 0.18792 0.68056 0.53716 0.0
O111 O 0.09967 0.70705 0.52539 0.0
H112 H 0.86735 0.64028 0.61497 0.0
H113 H 0.76031 0.62829 0.61066 0.0
H114 H 0.74275 0.66289 0.43406 0.0
H115 H 0.84936 0.67499 0.43765 0.0
H116 H 0.32474 0.65275 0.43257 0.0
H117 H 0.4317 0.66431 0.4373 0.0
H118 H 0.44828 0.62875 0.6133 0.0
H119 H 0.34152 0.61704 0.60924 0.0
Nd120 Nd 0.90598 0.37098 0.50359 0.0
Nd121 Nd 1.01652 0.34224 0.51366 0.0
C122 C 0.79379 0.38216 0.52469 0.0
C123 C 0.73369 0.36794 0.51571 0.0
C124 C 0.70782 0.35327 0.56298 0.0
C125 C 0.64665 0.34699 0.56078 0.0
C126 C 0.61102 0.3552 0.51128 0.0
C127 C 0.63729 0.36697 0.46186 0.0
C128 C 0.6984 0.37327 0.46395 0.0
C129 C 0.95725 0.36266 0.39491 0.0
C130 C 0.89806 0.29519 0.50253 0.0
C131 C 0.1303 0.32853 0.49781 0.0
C132 C 0.19091 0.34272 0.50656 0.0
C133 C 0.21739 0.35746 0.45967 0.0
C134 C 0.27853 0.36429 0.46295 0.0
C135 C 0.3137 0.3565 0.51309 0.0
C136 C 0.28692 0.3444 0.5619 0.0
C137 C 0.2259 0.33756 0.55873 0.0
C138 C 0.98067 0.35318 0.62582 0.0
C139 C 1.00051 0.42316 0.51821 0.0
O140 O 0.83094 0.36872 0.56243 0.0
O141 O 0.81939 0.39274 0.47842 0.0
O142 O 0.92957 0.38845 0.41222 0.0
O143 O 0.95558 0.34172 0.43311 0.0
O144 O 0.87018 0.32131 0.4915 0.0
O145 O 0.9572 0.29517 0.51128 0.0
O146 O 0.09433 0.33947 0.45643 0.0
O147 O 0.10265 0.32142 0.54492 0.0
O148 O 1.00217 0.32626 0.60598 0.0
O149 O 0.97353 0.37274 0.58472 0.0
O150 O 0.03645 0.39801 0.51251 0.0
O151 O 0.9434 0.41952 0.52177 0.0
H152 H 0.73397 0.34865 0.6033 0.0
H153 H 0.62677 0.33762 0.59913 0.0
H154 H 0.61005 0.37314 0.42312 0.0
H155 H 0.71707 0.38426 0.42662 0.0
H156 H 0.19174 0.36192 0.419 0.0
H157 H 0.2988 0.37385 0.425 0.0
H158 H 0.31373 0.33846 0.60108 0.0
H159 H 0.20701 0.32641 0.59578 0.0
Nd160 Nd 0.65367 0.87199 0.03296 0.0
Nd161 Nd 0.54164 0.8423 0.01745 0.0
C162 C 0.76645 0.88358 0.01742 0.0
C163 C 0.82609 0.86895 0.02353 0.0
C164 C 0.85036 0.85266 0.97405 0.0
C165 C 0.91127 0.84607 0.97412 0.0
C166 C 0.94827 0.85545 0.02371 0.0
C167 C 0.92366 0.86894 0.07509 0.0
C168 C 0.86272 0.87559 0.07512 0.0
C169 C 0.60081 0.86438 0.13896 0.0
C170 C 0.65954 0.79552 0.02261 0.0
C171 C 0.42868 0.82991 0.03527 0.0
C172 C 0.3681 0.8429 0.02456 0.0
C173 C 0.33965 0.85917 0.07151 0.0
C174 C 0.27815 0.86417 0.06752 0.0
C175 C 0.24475 0.85315 0.01649 0.0
C176 C 0.27349 0.84001 0.96723 0.0
C177 C 0.33502 0.83497 0.97111 0.0
C178 C 0.57688 0.85309 0.90734 0.0
C179 C 0.55765 0.92342 0.02064 0.0
O180 O 0.72975 0.87113 0.97535 0.0
O181 O 0.7401 0.89324 0.06591 0.0
O182 O 0.62824 0.8903 0.12678 0.0
O183 O 0.60341 0.84321 0.09718 0.0
O184 O 0.68835 0.82215 0.03176 0.0
O185 O 0.60016 0.79514 0.01728 0.0
O186 O 0.46413 0.84557 0.07427 0.0
O187 O 0.45643 0.8176 0.98983 0.0
O188 O 0.55239 0.82668 0.92106 0.0
O189 O 0.58588 0.87225 0.95259 0.0
O190 O 0.52152 0.89822 0.02165 0.0
O191 O 0.61516 0.91994 0.0201 0.0
H192 H 0.82324 0.84692 0.93379 0.0
H193 H 0.92989 0.8353 0.93434 0.0
H194 H 0.95197 0.87595 0.11399 0.0
H195 H 0.84521 0.88779 0.1141 0.0
H196 H 0.3641 0.86608 0.11287 0.0
H197 H 0.25636 0.87496 0.10548 0.0
H198 H 0.24801 0.83203 0.92703 0.0
H199 H 0.35582 0.823 0.93371 0.0
Nd200 Nd 0.40485 0.1303 0.01938 0.0
Nd201 Nd 0.5178 0.15862 1.01587 0.0
C202 C 0.29033 0.11965 0.99733 0.0
C203 C 0.23106 0.1333 1.00787 0.0
C204 C 0.19922 0.14798 0.96143 0.0
C205 C 0.13839 0.15418 0.96522 0.0
C206 C 0.10908 0.14584 1.01552 0.0
C207 C 0.14152 0.13386 0.06397 0.0
C208 C 0.20231 0.12764 0.06029 0.0
C209 C 0.46444 0.1352 0.12862 0.0
C210 C 0.39965 0.20557 0.02672 0.0
C211 C 0.62965 0.17161 0.05181 0.0
C212 C 0.69066 0.16017 0.03936 0.0
C213 C 0.72427 0.14494 0.08396 0.0
C214 C 0.78471 0.13828 0.0775 0.0
C215 C 0.81227 0.14671 0.02627 0.0
C216 C 0.77826 0.15961 0.97967 0.0
C217 C 0.71771 0.1663 0.98605 0.0
C218 C 0.49571 0.14591 0.89917 0.0
C219 C 0.49957 0.07867 1.0038 0.0
O220 O 0.32358 0.13464 0.96167 0.0
O221 O 0.32066 0.10759 0.04197 0.0
O222 O 0.43619 0.10961 0.1081 0.0
O223 O 0.46017 0.15725 0.09261 0.0
O224 O 0.374 0.17985 0.04194 0.0
O225 O 0.4569 0.20512 1.01332 0.0
O226 O 0.59571 0.15192 0.07795 0.0
O227 O 0.6002 0.18788 1.01194 0.0
O228 O 0.53984 0.16274 0.92185 0.0
O229 O 0.45878 0.13699 0.93659 0.0
O230 O 0.53594 0.10317 0.01761 0.0
O231 O 0.44282 0.08299 0.99354 0.0
H232 H 0.22034 0.15277 0.92061 0.0
H233 H 0.11372 0.1637 0.9276 0.0
H234 H 0.11922 0.12758 0.10329 0.0
H235 H 0.22571 0.1166 0.09699 0.0
H236 H 0.70448 0.13958 0.12517 0.0
H237 H 0.81046 0.12809 0.11375 0.0
H238 H 0.79915 0.16597 0.93959 0.0
H239 H 0.69296 0.1775 0.95039 0.0
Nd240 Nd 0.54107 0.1592 0.51815 0.0
Nd241 Nd 0.65333 0.12993 0.52741 0.0
C242 C 0.42749 0.17273 0.53492 0.0
C243 C 0.36689 0.15856 0.52696 0.0
C244 C 0.34096 0.14393 0.5743 0.0
C245 C 0.27986 0.13709 0.57167 0.0
C246 C 0.24425 0.14478 0.52178 0.0
C247 C 0.27044 0.15682 0.47261 0.0
C248 C 0.33141 0.16366 0.47511 0.0
C249 C 0.57972 0.14977 0.40643 0.0
C250 C 0.55717 0.0783 0.51278 0.0
C251 C 0.76593 0.11766 0.51094 0.0
C252 C 0.82528 0.13268 0.51986 0.0
C253 C 0.85072 0.14759 0.47262 0.0
C254 C 0.91171 0.15429 0.47492 0.0
C255 C 0.94741 0.14631 0.52452 0.0
C256 C 0.92141 0.13454 0.57403 0.0
C257 C 0.86051 0.12779 0.57183 0.0
C258 C 0.59989 0.13735 0.63448 0.0
C259 C 0.65918 0.20638 0.52949 0.0
O260 O 0.46384 0.16186 0.57607 0.0
O261 O 0.45458 0.17974 0.48739 0.0
O262 O 0.55607 0.17606 0.42665 0.0
O263 O 0.58606 0.12958 0.44654 0.0
O264 O 0.52152 0.10347 0.52002 0.0
O265 O 0.61409 0.08186 0.50723 0.0
O266 O 0.72967 0.12907 0.46999 0.0
O267 O 0.7391 0.10915 0.55803 0.0
O268 O 0.62792 0.1117 0.61739 0.0
O269 O 0.60288 0.15865 0.59727 0.0
O270 O 0.68817 0.1799 0.53369 0.0
O271 O 0.59971 0.20655 0.52585 0.0
H272 H 0.36703 0.13955 0.61477 0.0
H273 H 0.25997 0.12761 0.60991 0.0
H274 H 0.24323 0.16271 0.43366 0.0
H275 H 0.34989 0.17475 0.43779 0.0
H276 H 0.82456 0.15197 0.4322 0.0
H277 H 0.93145 0.16369 0.43654 0.0
H278 H 0.94875 0.12857 0.61284 0.0
H279 H 0.84208 0.11668 0.60916 0.0
Nd280 Nd 0.40425 0.87028 0.50122 0.0
Nd281 Nd 0.51704 0.84257 0.51389 0.0
C282 C 0.29119 0.8816 0.51889 0.0
C283 C 0.2312 0.86723 0.51175 0.0
C284 C 0.20679 0.85272 0.56001 0.0
C285 C 0.14575 0.84639 0.55957 0.0
C286 C 0.10882 0.8544 0.51087 0.0
C287 C 0.13354 0.8661 0.46057 0.0
C288 C 0.19454 0.87249 0.46093 0.0
C289 C 0.45879 0.86307 0.39533 0.0
C290 C 0.39875 0.79513 0.50283 0.0
C291 C 0.62773 0.82886 0.4862 0.0
C292 C 0.68913 0.84136 0.49969 0.0
C293 C 0.71828 0.85681 0.45536 0.0
C294 C 0.77922 0.86364 0.46209 0.0
C295 C 0.81178 0.85516 0.5133 0.0
C296 C 0.78235 0.84235 0.55995 0.0
C297 C 0.72124 0.83546 0.55329 0.0
C298 C 0.49964 0.85805 0.62788 0.0
C299 C 0.49993 0.92248 0.52013 0.0
O300 O 0.32805 0.86958 0.5585 0.0
O301 O 0.31717 0.89041 0.47153 0.0
O302 O 0.43142 0.88902 0.41242 0.0
O303 O 0.45639 0.84187 0.43305 0.0
O304 O 0.37198 0.82014 0.48366 0.0
O305 O 0.45679 0.79619 0.51847 0.0
O306 O 0.59195 0.84658 0.45458 0.0
O307 O 0.60059 0.8146 0.52755 0.0
O308 O 0.5407 0.83909 0.60967 0.0
O309 O 0.46254 0.86751 0.58761 0.0
O310 O 0.53621 0.89787 0.51152 0.0
O311 O 0.4431 0.91828 0.52476 0.0
H312 H 0.23395 0.84826 0.59977 0.0
H313 H 0.12703 0.83713 0.5986 0.0
H314 H 0.10523 0.87215 0.42249 0.0
H315 H 0.2121 0.88347 0.42303 0.0
H316 H 0.69469 0.86199 0.4139 0.0
H317 H 0.80145 0.87377 0.42583 0.0
H318 H 0.8072 0.83596 0.60004 0.0
H319 H 0.70005 0.82406 0.58874 0.0
C320 C 0.56421 0.35485 0.01796 0.0
C321 C 0.51078 0.35471 0.01921 0.0
C322 C 0.62668 0.35642 0.01704 0.0
C323 C 0.68022 0.3564 0.01692 0.0
C324 C 0.42955 0.64505 0.02088 0.0
C325 C 0.37627 0.64563 0.02442 0.0
C326 C 0.49188 0.64628 0.01737 0.0
C327 C 0.54526 0.64644 1.01504 0.0
C328 C 0.62689 0.64456 0.52372 0.0
C329 C 0.68043 0.6446 0.52439 0.0
C330 C 0.56441 0.64633 0.52316 0.0
C331 C 0.51092 0.64676 0.52291 0.0
C332 C 0.49378 0.3556 0.51349 0.0
C333 C 0.54732 0.35518 0.51361 0.0
C334 C 0.4312 0.35726 0.51292 0.0
C335 C 0.37759 0.35714 0.51194 0.0
C336 C 0.06502 0.85272 0.01779 0.0
C337 C 1.01172 0.85385 0.02 0.0
C338 C 0.12745 0.8527 0.01627 0.0
C339 C 0.18094 0.85292 0.01643 0.0
C340 C 0.99181 0.14606 0.01748 0.0
C341 C 0.0452 0.14625 1.01526 0.0
C342 C 0.92944 0.14489 0.02078 0.0
C343 C 0.87612 0.14553 0.02412 0.0
C344 C 0.12695 0.14406 0.52271 0.0
C345 C 0.18049 0.14414 0.5235 0.0
C346 C 0.06448 0.14584 0.52216 0.0
C347 C 1.011 0.14631 0.52202 0.0
C348 C 0.92939 0.85601 0.51631 0.0
C349 C 0.87578 0.85567 0.5147 0.0
C350 C 0.99191 0.85453 0.51614 0.0
C351 C 0.04535 0.85422 0.51494 0.0
C352 C 1.02574 0.51803 1.01216 0.0
C353 C 1.01937 0.54664 1.01021 0.0
C354 C 1.02902 0.48432 1.01569 0.0
C355 C 0.03566 0.45575 0.01838 0.0
C356 C 1.02772 0.4842 0.5182 0.0
C357 C 1.02166 0.45553 0.51787 0.0
C358 C 0.03011 0.51797 0.51697 0.0
C359 C 0.03618 0.5466 0.51616 0.0
C360 C 0.52894 0.98393 1.01279 0.0
C361 C 0.5357 0.95548 0.01644 0.0
C362 C 0.52558 0.01755 1.00911 0.0
C363 C 0.51909 0.04613 1.00772 0.0
C364 C 0.52958 0.01737 0.51601 0.0
C365 C 0.53615 0.04597 0.51508 0.0
C366 C 0.52641 0.98364 0.51799 0.0
C367 C 0.51999 0.95501 0.51846 0.0
C368 C 0.24697 0.25473 1.01576 0.0
C369 C 0.19809 0.26773 0.01687 0.0
C370 C 0.30829 0.24413 0.01639 0.0
C371 C 0.35771 0.23168 0.01836 0.0
C372 C 0.74854 0.75566 0.01636 0.0
C373 C 0.69926 0.76818 0.01732 0.0
C374 C 0.81009 0.74552 0.01755 0.0
C375 C 0.85949 0.7331 0.01971 0.0
C376 C 0.24753 0.74675 0.52243 0.0
C377 C 0.1987 0.73404 0.52559 0.0
C378 C 0.30846 0.75721 0.51823 0.0
C379 C 0.35745 0.76962 0.51441 0.0
C380 C 0.80848 0.25655 0.51569 0.0
C381 C 0.85751 0.26887 0.51132 0.0
C382 C 0.74753 0.24625 0.52084 0.0
C383 C 0.69869 0.2336 0.52448 0.0
C384 C 0.04409 0.35854 0.23861 0.0
C385 C 0.0695 0.36021 0.19231 0.0
C386 C 1.01409 0.35815 0.29325 0.0
C387 C 0.98873 0.35928 0.3399 0.0
C388 C 1.02315 0.63879 0.2343 0.0
C389 C 0.99652 0.63846 0.1861 0.0
C390 C 0.05018 0.63897 0.29281 0.0
C391 C 0.06622 0.64102 0.34505 0.0
C392 C 1.00654 0.63813 0.78577 0.0
C393 C 0.99274 0.63913 0.83709 0.0
C394 C 0.03466 0.63933 0.73078 0.0
C395 C 0.06347 0.63993 0.68676 0.0
C396 C 1.01694 0.36632 0.73784 0.0
C397 C 0.99808 0.36348 0.68646 0.0
C398 C 0.04311 0.36568 0.7966 0.0
C399 C 0.06164 0.36212 0.84725 0.0
C400 C 0.54451 0.859 0.23931 0.0
C401 C 0.56977 0.86073 0.19315 0.0
C402 C 0.51501 0.85851 0.29389 0.0
C403 C 0.48994 0.85959 0.34049 0.0
C404 C 0.52391 0.13805 0.23375 0.0
C405 C 0.4973 0.13768 0.18556 0.0
C406 C 0.5508 0.13832 0.29228 0.0
C407 C 0.56657 0.14044 0.34456 0.0
C408 C 0.50656 0.13732 0.78477 0.0
C409 C 0.49259 0.13833 0.83604 0.0
C410 C 0.53478 0.13862 0.72986 0.0
C411 C 0.56372 0.13931 0.68593 0.0
C412 C 0.51585 0.87164 0.74173 0.0
C413 C 0.50084 0.86856 0.68956 0.0
C414 C 0.54061 0.86988 0.80045 0.0
C415 C 0.55929 0.86476 0.85021 0.0
loop_
_geom_bond_atom_site_label_1
_geom_bond_atom_site_label_2
_geom_bond_distance
_geom_bond_site_symmetry_2
_ccdc_geom_bond_type
Nd0 C2 2.836 . S
Nd0 O20 2.500 1_554 S
Nd0 O21 2.492 . S
Nd0 O22 2.487 . S
Nd0 O23 2.682 . S
Nd0 O24 2.410 . S
Nd0 O29 2.414 1_554 S
Nd0 O31 2.424 . S
Nd1 C11 2.836 . S
Nd1 O23 2.414 1_656 S
Nd1 O25 2.424 1_655 S
Nd1 O26 2.500 1_556 S
Nd1 O27 2.492 . S
Nd1 O28 2.487 1_655 S
Nd1 O29 2.682 1_655 S
Nd1 O30 2.410 . S
C2 Nd0 2.836 . S
C2 C3 1.498 . S
C2 O20 1.258 1_554 S
C2 O21 1.239 . S
C3 C2 1.498 . S
C3 C4 1.366 1_554 S
C3 C8 1.407 . S
C4 C3 1.366 1_556 S
C4 C5 1.392 . S
C4 H32 0.930 . S
C5 C4 1.392 . S
C5 C6 1.401 . S
C5 H33 0.929 . S
C6 C5 1.401 . S
C6 C7 1.350 1_556 S
C7 C6 1.350 1_554 S
C7 C8 1.384 . S
C7 H34 0.930 . S
C8 C3 1.407 . S
C8 C7 1.384 . S
C8 H35 0.929 . S
C9 O22 1.241 . S
C9 O23 1.273 . S
C10 O24 1.251 1_556 S
C10 O25 1.268 . S
C11 Nd1 2.836 . S
C11 C12 1.498 . S
C11 O26 1.258 1_556 S
C11 O27 1.239 . S
C12 C11 1.498 . S
C12 C13 1.366 1_556 S
C12 C17 1.407 . S
C13 C12 1.366 1_554 S
C13 C14 1.392 . S
C13 H36 0.930 . S
C14 C13 1.392 . S
C14 C15 1.398 . S
C14 H37 0.929 . S
C15 C14 1.398 . S
C15 C16 1.352 1_554 S
C16 C15 1.352 1_556 S
C16 C17 1.384 . S
C16 H38 0.930 . S
C17 C12 1.407 . S
C17 C16 1.384 . S
C17 H39 0.929 . S
C18 O28 1.241 . S
C18 O29 1.273 . S
C19 O30 1.245 1_454 S
C19 O31 1.283 . S
O20 Nd0 2.500 1_556 S
O20 C2 1.258 1_556 S
O21 Nd0 2.492 . S
O21 C2 1.239 . S
O22 Nd0 2.487 . S
O22 C9 1.241 . S
O23 Nd0 2.682 . S
O23 Nd1 2.414 1_454 S
O23 C9 1.273 . S
O24 Nd0 2.410 . S
O24 C10 1.251 1_554 S
O25 Nd1 2.424 1_455 S
O25 C10 1.268 . S
O26 Nd1 2.500 1_554 S
O26 C11 1.258 1_554 S
O27 Nd1 2.492 . S
O27 C11 1.239 . S
O28 Nd1 2.487 1_455 S
O28 C18 1.241 . S
O29 Nd0 2.414 1_556 S
O29 Nd1 2.682 1_455 S
O29 C18 1.273 . S
O30 Nd1 2.410 . S
O30 C19 1.245 1_656 S
O31 Nd0 2.424 . S
O31 C19 1.283 . S
H32 C4 0.930 . S
H33 C5 0.929 . S
H34 C7 0.930 . S
H35 C8 0.929 . S
H36 C13 0.930 . S
H37 C14 0.929 . S
H38 C16 0.930 . S
H39 C17 0.929 . S
Nd40 C42 2.836 1_554 S
Nd40 O60 2.500 1_554 S
Nd40 O61 2.492 . S
Nd40 O62 2.487 . S
Nd40 O63 2.682 . S
Nd40 O64 2.410 . S
Nd40 O69 2.414 1_554 S
Nd40 O71 2.424 . S
Nd41 C51 2.836 1_556 S
Nd41 O63 2.414 1_456 S
Nd41 O65 2.424 1_455 S
Nd41 O66 2.500 1_556 S
Nd41 O67 2.492 . S
Nd41 O68 2.487 1_455 S
Nd41 O69 2.682 1_455 S
Nd41 O70 2.410 . S
C42 Nd40 2.836 1_556 S
C42 C43 1.498 . S
C42 O60 1.258 . S
C42 O61 1.239 1_556 S
C43 C42 1.498 . S
C43 C44 1.366 . S
C43 C48 1.407 1_556 S
C44 C43 1.366 . S
C44 C45 1.392 . S
C44 H72 0.930 . S
C45 C44 1.392 . S
C45 C46 1.398 . S
C45 H73 0.929 . S
C46 C45 1.398 . S
C46 C47 1.352 1_556 S
C47 C46 1.352 1_554 S
C47 C48 1.384 . S
C47 H74 0.930 . S
C48 C43 1.407 1_554 S
C48 C47 1.384 . S
C48 H75 0.929 . S
C49 O62 1.241 . S
C49 O63 1.273 . S
C50 O64 1.251 . S
C50 O65 1.265 1_554 S
C51 Nd41 2.836 1_554 S
C51 C52 1.498 . S
C51 O66 1.258 . S
C51 O67 1.239 1_554 S
C52 C51 1.498 . S
C52 C53 1.366 . S
C52 C57 1.407 1_554 S
C53 C52 1.366 . S
C53 C54 1.392 . S
C53 H76 0.930 . S
C54 C53 1.392 . S
C54 C55 1.398 . S
C54 H77 0.929 . S
C55 C54 1.398 . S
C55 C56 1.352 1_554 S
C56 C55 1.352 1_556 S
C56 C57 1.384 . S
C56 H78 0.930 . S
C57 C52 1.407 1_556 S
C57 C56 1.384 . S
C57 H79 0.929 . S
C58 O68 1.241 . S
C58 O69 1.273 . S
C59 O70 1.238 1_654 S
C59 O71 1.290 . S
O60 Nd40 2.500 1_556 S
O60 C42 1.258 . S
O61 Nd40 2.492 . S
O61 C42 1.239 1_554 S
O62 Nd40 2.487 . S
O62 C49 1.241 . S
O63 Nd40 2.682 . S
O63 Nd41 2.414 1_654 S
O63 C49 1.273 . S
O64 Nd40 2.410 . S
O64 C50 1.251 . S
O65 Nd41 2.424 1_655 S
O65 C50 1.265 1_556 S
O66 Nd41 2.500 1_554 S
O66 C51 1.258 . S
O67 Nd41 2.492 . S
O67 C51 1.239 1_556 S
O68 Nd41 2.487 1_655 S
O68 C58 1.241 . S
O69 Nd40 2.414 1_556 S
O69 Nd41 2.682 1_655 S
O69 C58 1.273 . S
O70 Nd41 2.410 . S
O70 C59 1.238 1_456 S
O71 Nd40 2.424 . S
O71 C59 1.290 . S
H72 C44 0.930 . S
H73 C45 0.929 . S
H74 C47 0.930 . S
H75 C48 0.929 . S
H76 C53 0.930 . S
H77 C54 0.929 . S
H78 C56 0.930 . S
H79 C57 0.929 . S
Nd80 C82 2.836 . S
Nd80 O100 2.500 . S
Nd80 O101 2.492 . S
Nd80 O102 2.485 1_655 S
Nd80 O103 2.682 1_655 S
Nd80 O104 2.410 . S
Nd80 O109 2.414 1_655 S
Nd80 O111 2.424 1_655 S
Nd81 C91 2.836 . S
Nd81 O103 2.414 . S
Nd81 O105 2.424 . S
Nd81 O106 2.500 . S
Nd81 O107 2.492 . S
Nd81 O108 2.487 . S
Nd81 O109 2.682 . S
Nd81 O110 2.410 . S
C82 Nd80 2.836 . S
C82 C83 1.498 . S
C82 O100 1.258 . S
C82 O101 1.239 . S
C83 C82 1.498 . S
C83 C84 1.366 . S
C83 C88 1.407 . S
C84 C83 1.366 . S
C84 C85 1.392 . S
C84 H112 0.930 . S
C85 C84 1.392 . S
C85 C86 1.398 . S
C85 H113 0.929 . S
C86 C85 1.398 . S
C86 C87 1.352 . S
C87 C86 1.352 . S
C87 C88 1.384 . S
C87 H114 0.930 . S
C88 C83 1.407 . S
C88 C87 1.384 . S
C88 H115 0.929 . S
C89 O102 1.254 . S
C89 O103 1.273 . S
C90 O104 1.244 1_455 S
C90 O105 1.284 . S
C91 Nd81 2.836 . S
C91 C92 1.498 . S
C91 O106 1.258 . S
C91 O107 1.239 . S
C92 C91 1.498 . S
C92 C93 1.366 . S
C92 C97 1.407 . S
C93 C92 1.366 . S
C93 C94 1.392 . S
C93 H116 0.930 . S
C94 C93 1.392 . S
C94 C95 1.398 . S
C94 H117 0.929 . S
C95 C94 1.398 . S
C95 C96 1.352 . S
C96 C95 1.352 . S
C96 C97 1.384 . S
C96 H118 0.930 . S
C97 C92 1.407 . S
C97 C96 1.384 . S
C97 H119 0.929 . S
C98 O108 1.241 . S
C98 O109 1.273 . S
C99 O110 1.251 . S
C99 O111 1.268 . S
O100 Nd80 2.500 . S
O100 C82 1.258 . S
O101 Nd80 2.492 . S
O101 C82 1.239 . S
O102 Nd80 2.485 1_455 S
O102 C89 1.254 . S
O103 Nd80 2.682 1_455 S
O103 Nd81 2.414 . S
O103 C89 1.273 . S
O104 Nd80 2.410 . S
O104 C90 1.244 1_655 S
O105 Nd81 2.424 . S
O105 C90 1.284 . S
O106 Nd81 2.500 . S
O106 C91 1.258 . S
O107 Nd81 2.492 . S
O107 C91 1.239 . S
O108 Nd81 2.487 . S
O108 C98 1.241 . S
O109 Nd80 2.414 1_455 S
O109 Nd81 2.682 . S
O109 C98 1.273 . S
O110 Nd81 2.410 . S
O110 C99 1.251 . S
O111 Nd80 2.424 1_455 S
O111 C99 1.268 . S
H112 C84 0.930 . S
H113 C85 0.929 . S
H114 C87 0.930 . S
H115 C88 0.929 . S
H116 C93 0.930 . S
H117 C94 0.929 . S
H118 C96 0.930 . S
H119 C97 0.929 . S
Nd120 C122 2.836 . S
Nd120 O140 2.500 . S
Nd120 O141 2.492 . S
Nd120 O142 2.487 . S
Nd120 O143 2.682 . S
Nd120 O144 2.410 . S
Nd120 O149 2.414 . S
Nd120 O151 2.424 . S
Nd121 C131 2.836 . S
Nd121 O143 2.414 1_455 S
Nd121 O145 2.424 1_455 S
Nd121 O146 2.500 . S
Nd121 O147 2.492 . S
Nd121 O148 2.485 1_455 S
Nd121 O149 2.682 1_455 S
Nd121 O150 2.410 . S
C122 Nd120 2.836 . S
C122 C123 1.498 . S
C122 O140 1.258 . S
C122 O141 1.239 . S
C123 C122 1.498 . S
C123 C124 1.366 . S
C123 C128 1.407 . S
C124 C123 1.366 . S
C124 C125 1.392 . S
C124 H152 0.930 . S
C125 C124 1.392 . S
C125 C126 1.398 . S
C125 H153 0.929 . S
C126 C125 1.398 . S
C126 C127 1.352 . S
C127 C126 1.352 . S
C127 C128 1.384 . S
C127 H154 0.930 . S
C128 C123 1.407 . S
C128 C127 1.384 . S
C128 H155 0.929 . S
C129 O142 1.241 . S
C129 O143 1.273 . S
C130 O144 1.251 . S
C130 O145 1.268 . S
C131 Nd121 2.836 . S
C131 C132 1.498 . S
C131 O146 1.258 . S
C131 O147 1.239 . S
C132 C131 1.498 . S
C132 C133 1.366 . S
C132 C137 1.407 . S
C133 C132 1.366 . S
C133 C134 1.392 . S
C133 H156 0.930 . S
C134 C133 1.392 . S
C134 C135 1.398 . S
C134 H157 0.929 . S
C135 C134 1.398 . S
C135 C136 1.352 . S
C136 C135 1.352 . S
C136 C137 1.384 . S
C136 H158 0.930 . S
C137 C132 1.407 . S
C137 C136 1.384 . S
C137 H159 0.929 . S
C138 O148 1.254 . S
C138 O149 1.273 . S
C139 O150 1.244 1_655 S
C139 O151 1.284 . S
O140 Nd120 2.500 . S
O140 C122 1.258 . S
O141 Nd120 2.492 . S
O141 C122 1.239 . S
O142 Nd120 2.487 . S
O142 C129 1.241 . S
O143 Nd120 2.682 . S
O143 Nd121 2.414 1_655 S
O143 C129 1.273 . S
O144 Nd120 2.410 . S
O144 C130 1.251 . S
O145 Nd121 2.424 1_655 S
O145 C130 1.268 . S
O146 Nd121 2.500 . S
O146 C131 1.258 . S
O147 Nd121 2.492 . S
O147 C131 1.239 . S
O148 Nd121 2.485 1_655 S
O148 C138 1.254 . S
O149 Nd120 2.414 . S
O149 Nd121 2.682 1_655 S
O149 C138 1.273 . S
O150 Nd121 2.410 . S
O150 C139 1.244 1_455 S
O151 Nd120 2.424 . S
O151 C139 1.284 . S
H152 C124 0.930 . S
H153 C125 0.929 . S
H154 C127 0.930 . S
H155 C128 0.929 . S
H156 C133 0.930 . S
H157 C134 0.929 . S
H158 C136 0.930 . S
H159 C137 0.929 . S
Nd160 C162 2.836 . S
Nd160 O180 2.500 1_554 S
Nd160 O181 2.492 . S
Nd160 O182 2.487 . S
Nd160 O183 2.682 . S
Nd160 O184 2.410 . S
Nd160 O189 2.414 1_554 S
Nd160 O191 2.424 . S
Nd161 C171 2.836 . S
Nd161 O183 2.414 1_556 S
Nd161 O185 2.424 . S
Nd161 O186 2.500 1_556 S
Nd161 O187 2.492 . S
Nd161 O188 2.487 . S
Nd161 O189 2.682 . S
Nd161 O190 2.410 . S
C162 Nd160 2.836 . S
C162 C163 1.498 . S
C162 O180 1.258 1_554 S
C162 O181 1.239 . S
C163 C162 1.498 . S
C163 C164 1.366 1_554 S
C163 C168 1.407 . S
C164 C163 1.366 1_556 S
C164 C165 1.392 . S
C164 H192 0.930 . S
C165 C164 1.392 . S
C165 C166 1.401 . S
C165 H193 0.929 . S
C166 C165 1.401 . S
C166 C167 1.350 1_556 S
C167 C166 1.350 1_554 S
C167 C168 1.384 . S
C167 H194 0.930 . S
C168 C163 1.407 . S
C168 C167 1.384 . S
C168 H195 0.929 . S
C169 O182 1.241 . S
C169 O183 1.273 . S
C170 O184 1.251 1_556 S
C170 O185 1.268 . S
C171 Nd161 2.836 . S
C171 C172 1.498 . S
C171 O186 1.258 1_556 S
C171 O187 1.239 . S
C172 C171 1.498 . S
C172 C173 1.366 1_556 S
C172 C177 1.407 . S
C173 C172 1.366 1_554 S
C173 C174 1.392 . S
C173 H196 0.930 . S
C174 C173 1.392 . S
C174 C175 1.398 . S
C174 H197 0.929 . S
C175 C174 1.398 . S
C175 C176 1.352 1_554 S
C176 C175 1.352 1_556 S
C176 C177 1.384 . S
C176 H198 0.930 . S
C177 C172 1.407 . S
C177 C176 1.384 . S
C177 H199 0.929 . S
C178 O188 1.241 . S
C178 O189 1.273 . S
C179 O190 1.251 1_554 S
C179 O191 1.268 . S
O180 Nd160 2.500 1_556 S
O180 C162 1.258 1_556 S
O181 Nd160 2.492 . S
O181 C162 1.239 . S
O182 Nd160 2.487 . S
O182 C169 1.241 . S
O183 Nd160 2.682 . S
O183 Nd161 2.414 1_554 S
O183 C169 1.273 . S
O184 Nd160 2.410 . S
O184 C170 1.251 1_554 S
O185 Nd161 2.424 . S
O185 C170 1.268 . S
O186 Nd161 2.500 1_554 S
O186 C171 1.258 1_554 S
O187 Nd161 2.492 . S
O187 C171 1.239 . S
O188 Nd161 2.487 . S
O188 C178 1.241 . S
O189 Nd160 2.414 1_556 S
O189 Nd161 2.682 . S
O189 C178 1.273 . S
O190 Nd161 2.410 . S
O190 C179 1.251 1_556 S
O191 Nd160 2.424 . S
O191 C179 1.268 . S
H192 C164 0.930 . S
H193 C165 0.929 . S
H194 C167 0.930 . S
H195 C168 0.929 . S
H196 C173 0.930 . S
H197 C174 0.929 . S
H198 C176 0.930 . S
H199 C177 0.929 . S
Nd200 C202 2.836 1_554 S
Nd200 O220 2.500 1_554 S
Nd200 O221 2.492 . S
Nd200 O222 2.487 . S
Nd200 O223 2.682 . S
Nd200 O224 2.410 . S
Nd200 O229 2.414 1_554 S
Nd200 O231 2.424 . S
Nd201 C211 2.836 1_556 S
Nd201 O223 2.414 1_556 S
Nd201 O225 2.424 . S
Nd201 O226 2.500 1_556 S
Nd201 O227 2.492 . S
Nd201 O228 2.487 . S
Nd201 O229 2.682 . S
Nd201 O230 2.410 . S
C202 Nd200 2.836 1_556 S
C202 C203 1.498 . S
C202 O220 1.258 . S
C202 O221 1.239 1_556 S
C203 C202 1.498 . S
C203 C204 1.366 . S
C203 C208 1.407 1_556 S
C204 C203 1.366 . S
C204 C205 1.392 . S
C204 H232 0.930 . S
C205 C204 1.392 . S
C205 C206 1.398 . S
C205 H233 0.929 . S
C206 C205 1.398 . S
C206 C207 1.352 1_556 S
C207 C206 1.352 1_554 S
C207 C208 1.384 . S
C207 H234 0.930 . S
C208 C203 1.407 1_554 S
C208 C207 1.384 . S
C208 H235 0.929 . S
C209 O222 1.241 . S
C209 O223 1.273 . S
C210 O224 1.251 . S
C210 O225 1.265 1_554 S
C211 Nd201 2.836 1_554 S
C211 C212 1.498 . S
C211 O226 1.258 . S
C211 O227 1.239 1_554 S
C212 C211 1.498 . S
C212 C213 1.366 . S
C212 C217 1.407 1_554 S
C213 C212 1.366 . S
C213 C214 1.392 . S
C213 H236 0.930 . S
C214 C213 1.392 . S
C214 C215 1.398 . S
C214 H237 0.929 . S
C215 C214 1.398 . S
C215 C216 1.352 1_554 S
C216 C215 1.352 1_556 S
C216 C217 1.384 . S
C216 H238 0.930 . S
C217 C212 1.407 1_556 S
C217 C216 1.384 . S
C217 H239 0.929 . S
C218 O228 1.241 . S
C218 O229 1.273 . S
C219 O230 1.247 1_554 S
C219 O231 1.270 . S
O220 Nd200 2.500 1_556 S
O220 C202 1.258 . S
O221 Nd200 2.492 . S
O221 C202 1.239 1_554 S
O222 Nd200 2.487 . S
O222 C209 1.241 . S
O223 Nd200 2.682 . S
O223 Nd201 2.414 1_554 S
O223 C209 1.273 . S
O224 Nd200 2.410 . S
O224 C210 1.251 . S
O225 Nd201 2.424 . S
O225 C210 1.265 1_556 S
O226 Nd201 2.500 1_554 S
O226 C211 1.258 . S
O227 Nd201 2.492 . S
O227 C211 1.239 1_556 S
O228 Nd201 2.487 . S
O228 C218 1.241 . S
O229 Nd200 2.414 1_556 S
O229 Nd201 2.682 . S
O229 C218 1.273 . S
O230 Nd201 2.410 . S
O230 C219 1.247 1_556 S
O231 Nd200 2.424 . S
O231 C219 1.270 . S
H232 C204 0.930 . S
H233 C205 0.929 . S
H234 C207 0.930 . S
H235 C208 0.929 . S
H236 C213 0.930 . S
H237 C214 0.929 . S
H238 C216 0.930 . S
H239 C217 0.929 . S
Nd240 C242 2.836 . S
Nd240 O260 2.500 . S
Nd240 O261 2.492 . S
Nd240 O262 2.487 . S
Nd240 O263 2.682 . S
Nd240 O264 2.410 . S
Nd240 O269 2.414 . S
Nd240 O271 2.424 . S
Nd241 C251 2.836 . S
Nd241 O263 2.414 . S
Nd241 O265 2.424 . S
Nd241 O266 2.500 . S
Nd241 O267 2.492 . S
Nd241 O268 2.487 . S
Nd241 O269 2.682 . S
Nd241 O270 2.410 . S
C242 Nd240 2.836 . S
C242 C243 1.498 . S
C242 O260 1.258 . S
C242 O261 1.239 . S
C243 C242 1.498 . S
C243 C244 1.366 . S
C243 C248 1.407 . S
C244 C243 1.366 . S
C244 C245 1.392 . S
C244 H272 0.930 . S
C245 C244 1.392 . S
C245 C246 1.398 . S
C245 H273 0.929 . S
C246 C245 1.398 . S
C246 C247 1.352 . S
C247 C246 1.352 . S
C247 C248 1.384 . S
C247 H274 0.930 . S
C248 C243 1.407 . S
C248 C247 1.384 . S
C248 H275 0.929 . S
C249 O262 1.241 . S
C249 O263 1.273 . S
C250 O264 1.251 . S
C250 O265 1.268 . S
C251 Nd241 2.836 . S
C251 C252 1.498 . S
C251 O266 1.258 . S
C251 O267 1.239 . S
C252 C251 1.498 . S
C252 C253 1.366 . S
C252 C257 1.407 . S
C253 C252 1.366 . S
C253 C254 1.392 . S
C253 H276 0.930 . S
C254 C253 1.392 . S
C254 C255 1.398 . S
C254 H277 0.929 . S
C255 C254 1.398 . S
C255 C256 1.352 . S
C256 C255 1.352 . S
C256 C257 1.384 . S
C256 H278 0.930 . S
C257 C252 1.407 . S
C257 C256 1.384 . S
C257 H279 0.929 . S
C258 O268 1.241 . S
C258 O269 1.273 . S
C259 O270 1.251 . S
C259 O271 1.268 . S
O260 Nd240 2.500 . S
O260 C242 1.258 . S
O261 Nd240 2.492 . S
O261 C242 1.239 . S
O262 Nd240 2.487 . S
O262 C249 1.241 . S
O263 Nd240 2.682 . S
O263 Nd241 2.414 . S
O263 C249 1.273 . S
O264 Nd240 2.410 . S
O264 C250 1.251 . S
O265 Nd241 2.424 . S
O265 C250 1.268 . S
O266 Nd241 2.500 . S
O266 C251 1.258 . S
O267 Nd241 2.492 . S
O267 C251 1.239 . S
O268 Nd241 2.487 . S
O268 C258 1.241 . S
O269 Nd240 2.414 . S
O269 Nd241 2.682 . S
O269 C258 1.273 . S
O270 Nd241 2.410 . S
O270 C259 1.251 . S
O271 Nd240 2.424 . S
O271 C259 1.268 . S
H272 C244 0.930 . S
H273 C245 0.929 . S
H274 C247 0.930 . S
H275 C248 0.929 . S
H276 C253 0.930 . S
H277 C254 0.929 . S
H278 C256 0.930 . S
H279 C257 0.929 . S
Nd280 C282 2.836 . S
Nd280 O300 2.500 . S
Nd280 O301 2.492 . S
Nd280 O302 2.487 . S
Nd280 O303 2.682 . S
Nd280 O304 2.410 . S
Nd280 O309 2.414 . S
Nd280 O311 2.424 . S
Nd281 C291 2.836 . S
Nd281 O303 2.414 . S
Nd281 O305 2.424 . S
Nd281 O306 2.500 . S
Nd281 O307 2.492 . S
Nd281 O308 2.487 . S
Nd281 O309 2.682 . S
Nd281 O310 2.410 . S
C282 Nd280 2.836 . S
C282 C283 1.498 . S
C282 O300 1.258 . S
C282 O301 1.239 . S
C283 C282 1.498 . S
C283 C284 1.366 . S
C283 C288 1.407 . S
C284 C283 1.366 . S
C284 C285 1.392 . S
C284 H312 0.930 . S
C285 C284 1.392 . S
C285 C286 1.398 . S
C285 H313 0.929 . S
C286 C285 1.398 . S
C286 C287 1.352 . S
C287 C286 1.352 . S
C287 C288 1.384 . S
C287 H314 0.930 . S
C288 C283 1.407 . S
C288 C287 1.384 . S
C288 H315 0.929 . S
C289 O302 1.241 . S
C289 O303 1.273 . S
C290 O304 1.251 . S
C290 O305 1.268 . S
C291 Nd281 2.836 . S
C291 C292 1.498 . S
C291 O306 1.258 . S
C291 O307 1.239 . S
C292 C291 1.498 . S
C292 C293 1.366 . S
C292 C297 1.407 . S
C293 C292 1.366 . S
C293 C294 1.392 . S
C293 H316 0.930 . S
C294 C293 1.392 . S
C294 C295 1.398 . S
C294 H317 0.929 . S
C295 C294 1.398 . S
C295 C296 1.352 . S
C296 C295 1.352 . S
C296 C297 1.384 . S
C296 H318 0.930 . S
C297 C292 1.407 . S
C297 C296 1.384 . S
C297 H319 0.929 . S
C298 O308 1.241 . S
C298 O309 1.273 . S
C299 O310 1.251 . S
C299 O311 1.268 . S
O300 Nd280 2.500 . S
O300 C282 1.258 . S
O301 Nd280 2.492 . S
O301 C282 1.239 . S
O302 Nd280 2.487 . S
O302 C289 1.241 . S
O303 Nd280 2.682 . S
O303 Nd281 2.414 . S
O303 C289 1.273 . S
O304 Nd280 2.410 . S
O304 C290 1.251 . S
O305 Nd281 2.424 . S
O305 C290 1.268 . S
O306 Nd281 2.500 . S
O306 C291 1.258 . S
O307 Nd281 2.492 . S
O307 C291 1.239 . S
O308 Nd281 2.487 . S
O308 C298 1.241 . S
O309 Nd280 2.414 . S
O309 Nd281 2.682 . S
O309 C298 1.273 . S
O310 Nd281 2.410 . S
O310 C299 1.251 . S
O311 Nd280 2.424 . S
O311 C299 1.268 . S
H312 C284 0.930 . S
H313 C285 0.929 . S
H314 C287 0.930 . S
H315 C288 0.929 . S
H316 C293 0.930 . S
H317 C294 0.929 . S
H318 C296 0.930 . S
H319 C297 0.929 . S
C320 C321 1.170 . S
C320 C322 1.380 . S
C321 C320 1.170 . S
C322 C320 1.380 . S
C322 C323 1.170 . S
C323 C322 1.170 . S
C324 C325 1.170 . S
C324 C326 1.380 . S
C325 C324 1.170 . S
C326 C324 1.380 . S
C326 C327 1.170 1_554 S
C327 C326 1.170 1_556 S
C328 C329 1.170 . S
C328 C330 1.380 . S
C329 C328 1.170 . S
C330 C328 1.380 . S
C330 C331 1.170 . S
C331 C330 1.170 . S
C332 C333 1.170 . S
C332 C334 1.380 . S
C333 C332 1.170 . S
C334 C332 1.380 . S
C334 C335 1.170 . S
C335 C334 1.170 . S
C336 C337 1.170 1_455 S
C336 C338 1.380 . S
C337 C336 1.170 1_655 S
C338 C336 1.380 . S
C338 C339 1.170 . S
C339 C338 1.170 . S
C340 C341 1.168 1_654 S
C340 C342 1.382 . S
C341 C340 1.168 1_456 S
C342 C340 1.382 . S
C342 C343 1.170 . S
C343 C342 1.170 . S
C344 C345 1.170 . S
C344 C346 1.380 . S
C345 C344 1.170 . S
C346 C344 1.380 . S
C346 C347 1.170 1_455 S
C347 C346 1.170 1_655 S
C348 C349 1.170 . S
C348 C350 1.380 . S
C349 C348 1.170 . S
C350 C348 1.380 . S
C350 C351 1.170 1_655 S
C351 C350 1.170 1_455 S
C352 C353 1.170 . S
C352 C354 1.378 1_455 S
C353 C352 1.170 . S
C354 C352 1.378 1_655 S
C354 C355 1.172 . S
C355 C354 1.172 . S
C356 C357 1.170 . S
C356 C358 1.380 1_455 S
C357 C356 1.170 . S
C358 C356 1.380 1_655 S
C358 C359 1.170 . S
C359 C358 1.170 . S
C360 C361 1.170 . S
C360 C362 1.380 1_565 S
C361 C360 1.170 . S
C362 C360 1.380 1_545 S
C362 C363 1.170 . S
C363 C362 1.170 . S
C364 C365 1.170 . S
C364 C366 1.380 1_545 S
C365 C364 1.170 . S
C366 C364 1.380 1_565 S
C366 C367 1.170 . S
C367 C366 1.170 . S
C368 C369 1.170 . S
C368 C370 1.380 . S
C369 C368 1.170 . S
C370 C368 1.380 . S
C370 C371 1.170 . S
C371 C370 1.170 . S
C372 C373 1.170 . S
C372 C374 1.381 . S
C373 C372 1.170 . S
C374 C372 1.381 . S
C374 C375 1.170 . S
C375 C374 1.170 . S
C376 C377 1.170 . S
C376 C378 1.380 . S
C377 C376 1.170 . S
C378 C376 1.380 . S
C378 C379 1.170 . S
C379 C378 1.170 . S
C380 C381 1.170 . S
C380 C382 1.380 . S
C381 C380 1.170 . S
C382 C380 1.380 . S
C382 C383 1.170 . S
C383 C382 1.170 . S
C384 C385 1.170 . S
C384 C386 1.380 1_455 S
C385 C384 1.170 . S
C386 C384 1.380 1_655 S
C386 C387 1.170 . S
C387 C386 1.170 . S
C388 C389 1.170 . S
C388 C390 1.380 1_655 S
C389 C388 1.170 . S
C390 C388 1.380 1_455 S
C390 C391 1.170 . S
C391 C390 1.170 . S
C392 C393 1.170 . S
C392 C394 1.380 1_655 S
C393 C392 1.170 . S
C394 C392 1.380 1_455 S
C394 C395 1.170 . S
C395 C394 1.170 . S
C396 C397 1.170 . S
C396 C398 1.380 1_655 S
C397 C396 1.170 . S
C398 C396 1.380 1_455 S
C398 C399 1.170 . S
C399 C398 1.170 . S
C400 C401 1.170 . S
C400 C402 1.380 . S
C401 C400 1.170 . S
C402 C400 1.380 . S
C402 C403 1.170 . S
C403 C402 1.170 . S
C404 C405 1.170 . S
C404 C406 1.380 . S
C405 C404 1.170 . S
C406 C404 1.380 . S
C406 C407 1.170 . S
C407 C406 1.170 . S
C408 C409 1.170 . S
C408 C410 1.380 . S
C409 C408 1.170 . S
C410 C408 1.380 . S
C410 C411 1.170 . S
C411 C410 1.170 . S
C412 C413 1.170 . S
C412 C414 1.380 . S
C413 C412 1.170 . S
C414 C412 1.380 . S
C414 C415 1.170 . S
C415 C414 1.170 . S
C321 C6 1.435 1_554 S
C323 C15 1.418 . S
C325 C55 1.518 . S
C327 C46 1.487 . S
C329 C86 1.433 . S
C331 C95 1.424 . S
C333 C126 1.426 . S
C335 C135 1.448 . S
C337 C166 1.427 1_554 S
C339 C175 1.427 . S
C341 C206 1.484 . S
C343 C215 1.519 . S
C345 C246 1.448 . S
C347 C255 1.417 . S
C349 C295 1.428 . S
C351 C286 1.447 . S
C353 C59 1.889 1_455 S
C355 C19 1.845 1_655 S
C357 C139 1.849 1_455 S
C359 C90 1.883 1_655 S
C361 C179 1.842 . S
C363 C219 1.895 . S
C365 C250 1.870 . S
C367 C299 1.848 . S
C369 C10 1.857 . S
C371 C210 1.853 1_556 S
C373 C170 1.836 . S
C375 C50 1.860 1_556 S
C377 C99 1.840 . S
C379 C290 1.857 . S
C381 C130 1.843 . S
C383 C259 1.852 . S
C385 C9 1.818 . S
C387 C129 1.807 . S
C389 C49 1.725 . S
C391 C89 1.501 . S
C393 C58 1.659 . S
C395 C98 1.917 . S
C397 C138 1.564 . S
C399 C18 1.620 . S
C401 C169 1.820 . S
C403 C289 1.815 . S
C405 C209 1.723 . S
C407 C249 1.536 . S
C409 C218 1.688 . S
C411 C258 1.908 . S
C413 C298 1.600 . S
C415 C178 1.616 . S
