# Generated by pormake.
# Topology ull, (4)-cn, num edge types: 1
# Building blocks:
#     Node 0, Type 0, BuildingBlock: QUQFOY_clean_sbu_1, # of connection points: 4
#     Node 1, Type 0, BuildingBlock: QUQFOY_clean_sbu_1, # of connection points: 4
#     Node 2, Type 0, BuildingBlock: QUQFOY_clean_sbu_1, # of connection points: 4
#     Node 3, Type 0, BuildingBlock: QUQFOY_clean_sbu_1, # of connection points: 4
#     Node 4, Type 0, BuildingBlock: QUQFOY_clean_sbu_1, # of connection points: 4
#     Node 5, Type 0, BuildingBlock: QUQFOY_clean_sbu_1, # of connection points: 4
#     Node 6, Type 0, BuildingBlock: QUQFOY_clean_sbu_1, # of connection points: 4
#     Node 7, Type 0, BuildingBlock: QUQFOY_clean_sbu_1, # of connection points: 4
#     Node 8, Type 0, BuildingBlock: QUQFOY_clean_sbu_1, # of connection points: 4
#     Node 9, Type 0, BuildingBlock: QUQFOY_clean_sbu_1, # of connection points: 4
#     Node 10, Type 0, BuildingBlock: QUQFOY_clean_sbu_1, # of connection points: 4
#     Node 11, Type 0, BuildingBlock: QUQFOY_clean_sbu_1, # of connection points: 4
#     Node 12, Type 0, BuildingBlock: QUQFOY_clean_sbu_1, # of connection points: 4
#     Node 13, Type 0, BuildingBlock: QUQFOY_clean_sbu_1, # of connection points: 4
#     Node 14, Type 0, BuildingBlock: QUQFOY_clean_sbu_1, # of connection points: 4
#     Node 15, Type 0, BuildingBlock: QUQFOY_clean_sbu_1, # of connection points: 4
#     Node 16, Type 0, BuildingBlock: QUQFOY_clean_sbu_1, # of connection points: 4
#     Node 17, Type 0, BuildingBlock: QUQFOY_clean_sbu_1, # of connection points: 4
#     Node 18, Type 0, BuildingBlock: QUQFOY_clean_sbu_1, # of connection points: 4
#     Node 19, Type 0, BuildingBlock: QUQFOY_clean_sbu_1, # of connection points: 4
#     Node 20, Type 0, BuildingBlock: QUQFOY_clean_sbu_1, # of connection points: 4
#     Node 21, Type 0, BuildingBlock: QUQFOY_clean_sbu_1, # of connection points: 4
#     Node 22, Type 0, BuildingBlock: QUQFOY_clean_sbu_1, # of connection points: 4
#     Node 23, Type 0, BuildingBlock: QUQFOY_clean_sbu_1, # of connection points: 4
#     Node 24, Type 0, BuildingBlock: QUQFOY_clean_sbu_1, # of connection points: 4
#     Node 25, Type 0, BuildingBlock: QUQFOY_clean_sbu_1, # of connection points: 4
#     Node 26, Type 0, BuildingBlock: QUQFOY_clean_sbu_1, # of connection points: 4
#     Node 27, Type 0, BuildingBlock: QUQFOY_clean_sbu_1, # of connection points: 4
#     Node 28, Type 0, BuildingBlock: QUQFOY_clean_sbu_1, # of connection points: 4
#     Node 29, Type 0, BuildingBlock: QUQFOY_clean_sbu_1, # of connection points: 4
#     Node 30, Type 0, BuildingBlock: QUQFOY_clean_sbu_1, # of connection points: 4
#     Node 31, Type 0, BuildingBlock: QUQFOY_clean_sbu_1, # of connection points: 4
#     Node 32, Type 0, BuildingBlock: QUQFOY_clean_sbu_1, # of connection points: 4
#     Node 33, Type 0, BuildingBlock: QUQFOY_clean_sbu_1, # of connection points: 4
#     Node 34, Type 0, BuildingBlock: QUQFOY_clean_sbu_1, # of connection points: 4
#     Node 35, Type 0, BuildingBlock: QUQFOY_clean_sbu_1, # of connection points: 4
#     Node 36, Type 0, BuildingBlock: QUQFOY_clean_sbu_1, # of connection points: 4
#     Node 37, Type 0, BuildingBlock: QUQFOY_clean_sbu_1, # of connection points: 4
#     Node 38, Type 0, BuildingBlock: QUQFOY_clean_sbu_1, # of connection points: 4
#     Node 39, Type 0, BuildingBlock: QUQFOY_clean_sbu_1, # of connection points: 4
#     Node 40, Type 0, BuildingBlock: QUQFOY_clean_sbu_1, # of connection points: 4
#     Node 41, Type 0, BuildingBlock: QUQFOY_clean_sbu_1, # of connection points: 4
#     Node 42, Type 0, BuildingBlock: QUQFOY_clean_sbu_1, # of connection points: 4
#     Node 43, Type 0, BuildingBlock: QUQFOY_clean_sbu_1, # of connection points: 4
#     Node 44, Type 0, BuildingBlock: QUQFOY_clean_sbu_1, # of connection points: 4
#     Node 45, Type 0, BuildingBlock: QUQFOY_clean_sbu_1, # of connection points: 4
#     Node 46, Type 0, BuildingBlock: QUQFOY_clean_sbu_1, # of connection points: 4
#     Node 47, Type 0, BuildingBlock: QUQFOY_clean_sbu_1, # of connection points: 4
#     Edge 48, Type (0, 0), BuildingBlock: AJUNOK_clean_linker_0, # of connection points: 2
#     Edge 49, Type (0, 0), BuildingBlock: AJUNOK_clean_linker_0, # of connection points: 2
#     Edge 50, Type (0, 0), BuildingBlock: AJUNOK_clean_linker_0, # of connection points: 2
#     Edge 51, Type (0, 0), BuildingBlock: AJUNOK_clean_linker_0, # of connection points: 2
#     Edge 52, Type (0, 0), BuildingBlock: AJUNOK_clean_linker_0, # of connection points: 2
#     Edge 53, Type (0, 0), BuildingBlock: AJUNOK_clean_linker_0, # of connection points: 2
#     Edge 54, Type (0, 0), BuildingBlock: AJUNOK_clean_linker_0, # of connection points: 2
#     Edge 55, Type (0, 0), BuildingBlock: AJUNOK_clean_linker_0, # of connection points: 2
#     Edge 56, Type (0, 0), BuildingBlock: AJUNOK_clean_linker_0, # of connection points: 2
#     Edge 57, Type (0, 0), BuildingBlock: AJUNOK_clean_linker_0, # of connection points: 2
#     Edge 58, Type (0, 0), BuildingBlock: AJUNOK_clean_linker_0, # of connection points: 2
#     Edge 59, Type (0, 0), BuildingBlock: AJUNOK_clean_linker_0, # of connection points: 2
#     Edge 60, Type (0, 0), BuildingBlock: AJUNOK_clean_linker_0, # of connection points: 2
#     Edge 61, Type (0, 0), BuildingBlock: AJUNOK_clean_linker_0, # of connection points: 2
#     Edge 62, Type (0, 0), BuildingBlock: AJUNOK_clean_linker_0, # of connection points: 2
#     Edge 63, Type (0, 0), BuildingBlock: AJUNOK_clean_linker_0, # of connection points: 2
#     Edge 64, Type (0, 0), BuildingBlock: AJUNOK_clean_linker_0, # of connection points: 2
#     Edge 65, Type (0, 0), BuildingBlock: AJUNOK_clean_linker_0, # of connection points: 2
#     Edge 66, Type (0, 0), BuildingBlock: AJUNOK_clean_linker_0, # of connection points: 2
#     Edge 67, Type (0, 0), BuildingBlock: AJUNOK_clean_linker_0, # of connection points: 2
#     Edge 68, Type (0, 0), BuildingBlock: AJUNOK_clean_linker_0, # of connection points: 2
#     Edge 69, Type (0, 0), BuildingBlock: AJUNOK_clean_linker_0, # of connection points: 2
#     Edge 70, Type (0, 0), BuildingBlock: AJUNOK_clean_linker_0, # of connection points: 2
#     Edge 71, Type (0, 0), BuildingBlock: AJUNOK_clean_linker_0, # of connection points: 2
#     Edge 72, Type (0, 0), BuildingBlock: AJUNOK_clean_linker_0, # of connection points: 2
#     Edge 73, Type (0, 0), BuildingBlock: AJUNOK_clean_linker_0, # of connection points: 2
#     Edge 74, Type (0, 0), BuildingBlock: AJUNOK_clean_linker_0, # of connection points: 2
#     Edge 75, Type (0, 0), BuildingBlock: AJUNOK_clean_linker_0, # of connection points: 2
#     Edge 76, Type (0, 0), BuildingBlock: AJUNOK_clean_linker_0, # of connection points: 2
#     Edge 77, Type (0, 0), BuildingBlock: AJUNOK_clean_linker_0, # of connection points: 2
#     Edge 78, Type (0, 0), BuildingBlock: AJUNOK_clean_linker_0, # of connection points: 2
#     Edge 79, Type (0, 0), BuildingBlock: AJUNOK_clean_linker_0, # of connection points: 2
#     Edge 80, Type (0, 0), BuildingBlock: AJUNOK_clean_linker_0, # of connection points: 2
#     Edge 81, Type (0, 0), BuildingBlock: AJUNOK_clean_linker_0, # of connection points: 2
#     Edge 82, Type (0, 0), BuildingBlock: AJUNOK_clean_linker_0, # of connection points: 2
#     Edge 83, Type (0, 0), BuildingBlock: AJUNOK_clean_linker_0, # of connection points: 2
#     Edge 84, Type (0, 0), BuildingBlock: AJUNOK_clean_linker_0, # of connection points: 2
#     Edge 85, Type (0, 0), BuildingBlock: AJUNOK_clean_linker_0, # of connection points: 2
#     Edge 86, Type (0, 0), BuildingBlock: AJUNOK_clean_linker_0, # of connection points: 2
#     Edge 87, Type (0, 0), BuildingBlock: AJUNOK_clean_linker_0, # of connection points: 2
#     Edge 88, Type (0, 0), BuildingBlock: AJUNOK_clean_linker_0, # of connection points: 2
#     Edge 89, Type (0, 0), BuildingBlock: AJUNOK_clean_linker_0, # of connection points: 2
#     Edge 90, Type (0, 0), BuildingBlock: AJUNOK_clean_linker_0, # of connection points: 2
#     Edge 91, Type (0, 0), BuildingBlock: AJUNOK_clean_linker_0, # of connection points: 2
#     Edge 92, Type (0, 0), BuildingBlock: AJUNOK_clean_linker_0, # of connection points: 2
#     Edge 93, Type (0, 0), BuildingBlock: AJUNOK_clean_linker_0, # of connection points: 2
#     Edge 94, Type (0, 0), BuildingBlock: AJUNOK_clean_linker_0, # of connection points: 2
#     Edge 95, Type (0, 0), BuildingBlock: AJUNOK_clean_linker_0, # of connection points: 2
#     Edge 96, Type (0, 0), BuildingBlock: AJUNOK_clean_linker_0, # of connection points: 2
#     Edge 97, Type (0, 0), BuildingBlock: AJUNOK_clean_linker_0, # of connection points: 2
#     Edge 98, Type (0, 0), BuildingBlock: AJUNOK_clean_linker_0, # of connection points: 2
#     Edge 99, Type (0, 0), BuildingBlock: AJUNOK_clean_linker_0, # of connection points: 2
#     Edge 100, Type (0, 0), BuildingBlock: AJUNOK_clean_linker_0, # of connection points: 2
#     Edge 101, Type (0, 0), BuildingBlock: AJUNOK_clean_linker_0, # of connection points: 2
#     Edge 102, Type (0, 0), BuildingBlock: AJUNOK_clean_linker_0, # of connection points: 2
#     Edge 103, Type (0, 0), BuildingBlock: AJUNOK_clean_linker_0, # of connection points: 2
#     Edge 104, Type (0, 0), BuildingBlock: AJUNOK_clean_linker_0, # of connection points: 2
#     Edge 105, Type (0, 0), BuildingBlock: AJUNOK_clean_linker_0, # of connection points: 2
#     Edge 106, Type (0, 0), BuildingBlock: AJUNOK_clean_linker_0, # of connection points: 2
#     Edge 107, Type (0, 0), BuildingBlock: AJUNOK_clean_linker_0, # of connection points: 2
#     Edge 108, Type (0, 0), BuildingBlock: AJUNOK_clean_linker_0, # of connection points: 2
#     Edge 109, Type (0, 0), BuildingBlock: AJUNOK_clean_linker_0, # of connection points: 2
#     Edge 110, Type (0, 0), BuildingBlock: AJUNOK_clean_linker_0, # of connection points: 2
#     Edge 111, Type (0, 0), BuildingBlock: AJUNOK_clean_linker_0, # of connection points: 2
#     Edge 112, Type (0, 0), BuildingBlock: AJUNOK_clean_linker_0, # of connection points: 2
#     Edge 113, Type (0, 0), BuildingBlock: AJUNOK_clean_linker_0, # of connection points: 2
#     Edge 114, Type (0, 0), BuildingBlock: AJUNOK_clean_linker_0, # of connection points: 2
#     Edge 115, Type (0, 0), BuildingBlock: AJUNOK_clean_linker_0, # of connection points: 2
#     Edge 116, Type (0, 0), BuildingBlock: AJUNOK_clean_linker_0, # of connection points: 2
#     Edge 117, Type (0, 0), BuildingBlock: AJUNOK_clean_linker_0, # of connection points: 2
#     Edge 118, Type (0, 0), BuildingBlock: AJUNOK_clean_linker_0, # of connection points: 2
#     Edge 119, Type (0, 0), BuildingBlock: AJUNOK_clean_linker_0, # of connection points: 2
#     Edge 120, Type (0, 0), BuildingBlock: AJUNOK_clean_linker_0, # of connection points: 2
#     Edge 121, Type (0, 0), BuildingBlock: AJUNOK_clean_linker_0, # of connection points: 2
#     Edge 122, Type (0, 0), BuildingBlock: AJUNOK_clean_linker_0, # of connection points: 2
#     Edge 123, Type (0, 0), BuildingBlock: AJUNOK_clean_linker_0, # of connection points: 2
#     Edge 124, Type (0, 0), BuildingBlock: AJUNOK_clean_linker_0, # of connection points: 2
#     Edge 125, Type (0, 0), BuildingBlock: AJUNOK_clean_linker_0, # of connection points: 2
#     Edge 126, Type (0, 0), BuildingBlock: AJUNOK_clean_linker_0, # of connection points: 2
#     Edge 127, Type (0, 0), BuildingBlock: AJUNOK_clean_linker_0, # of connection points: 2
#     Edge 128, Type (0, 0), BuildingBlock: AJUNOK_clean_linker_0, # of connection points: 2
#     Edge 129, Type (0, 0), BuildingBlock: AJUNOK_clean_linker_0, # of connection points: 2
#     Edge 130, Type (0, 0), BuildingBlock: AJUNOK_clean_linker_0, # of connection points: 2
#     Edge 131, Type (0, 0), BuildingBlock: AJUNOK_clean_linker_0, # of connection points: 2
#     Edge 132, Type (0, 0), BuildingBlock: AJUNOK_clean_linker_0, # of connection points: 2
#     Edge 133, Type (0, 0), BuildingBlock: AJUNOK_clean_linker_0, # of connection points: 2
#     Edge 134, Type (0, 0), BuildingBlock: AJUNOK_clean_linker_0, # of connection points: 2
#     Edge 135, Type (0, 0), BuildingBlock: AJUNOK_clean_linker_0, # of connection points: 2
#     Edge 136, Type (0, 0), BuildingBlock: AJUNOK_clean_linker_0, # of connection points: 2
#     Edge 137, Type (0, 0), BuildingBlock: AJUNOK_clean_linker_0, # of connection points: 2
#     Edge 138, Type (0, 0), BuildingBlock: AJUNOK_clean_linker_0, # of connection points: 2
#     Edge 139, Type (0, 0), BuildingBlock: AJUNOK_clean_linker_0, # of connection points: 2
#     Edge 140, Type (0, 0), BuildingBlock: AJUNOK_clean_linker_0, # of connection points: 2
#     Edge 141, Type (0, 0), BuildingBlock: AJUNOK_clean_linker_0, # of connection points: 2
#     Edge 142, Type (0, 0), BuildingBlock: AJUNOK_clean_linker_0, # of connection points: 2
#     Edge 143, Type (0, 0), BuildingBlock: AJUNOK_clean_linker_0, # of connection points: 2
# Relax obj value: 0.011
# Max RMSD: 0.066
# Mean RMSD: 0.066
data_MOF--net-ull--node1-QUQFOY_clean_sbu_1--edge1-AJUNOK_clean_linker_0
_symmetry_space_group_name_H-M    P1
_symmetry_Int_Tables_number       1
_symmetry_cell_setting            triclinic
loop_
_symmetry_equiv_pos_as_xyz
'x, y, z'
_cell_length_a     46.173622
_cell_length_b     46.168144
_cell_length_c     46.181466
_cell_angle_alpha  89.97921
_cell_angle_beta   90.031921
_cell_angle_gamma 89.997653
loop_
_atom_site_label
_atom_site_type_symbol
_atom_site_fract_x
_atom_site_fract_y
_atom_site_fract_z
_atom_type_partial_charge
O0 O 1.00277 0.35514 0.24711 0.0
Cd1 Cd 1.00585 0.39243 0.22256 0.0
Cd2 Cd 0.03836 0.35913 0.18793 0.0
O3 O 0.0402 0.33445 0.22575 0.0
O4 O 1.00816 0.42752 0.24818 0.0
O5 O 0.04534 0.41006 0.22326 0.0
C6 C 0.03546 0.42836 0.24202 0.0
C7 C 0.07883 0.36217 0.1566 0.0
C8 C 0.02145 0.33492 0.24599 0.0
C9 C 0.97813 0.37732 0.1675 0.0
O10 O 0.99934 0.35981 0.16574 0.0
O11 O 0.9775 0.396 0.18775 0.0
O12 O 0.0642 0.33866 0.15983 0.0
O13 O 0.07136 0.38403 0.17233 0.0
O14 O 0.68886 1.00919 0.24671 0.0
Cd15 Cd 0.6528 1.00961 0.2202 0.0
Cd16 Cd 0.68799 0.04025 0.18469 0.0
O17 O 0.71462 0.04031 0.22095 0.0
O18 O 0.61701 1.01113 0.24488 0.0
O19 O 0.63349 0.04817 0.2191 0.0
C20 C 0.61533 0.0382 0.23792 0.0
C21 C 0.68225 0.08166 0.1552 0.0
C22 C 0.71147 0.0246 0.24341 0.0
C23 C 0.66886 0.98027 0.16521 0.0
O24 O 0.68577 1.00179 0.16216 0.0
O25 O 0.6511 0.97963 0.18631 0.0
O26 O 0.70611 0.0672 0.15596 0.0
O27 O 0.6618 0.07347 0.17238 0.0
O28 O 0.03164 0.68527 0.24799 0.0
Cd29 Cd 0.03237 0.64916 0.22156 0.0
Cd30 Cd 1.00202 0.68533 0.1864 0.0
O31 O 1.00213 0.71264 0.22215 0.0
O32 O 0.03472 0.61571 0.24905 0.0
O33 O 0.9967 0.62425 0.22091 0.0
C34 C 1.00861 0.60927 0.24135 0.0
C35 C 0.96078 0.68009 0.1566 0.0
C36 C 1.01718 0.70849 0.24487 0.0
C37 C 0.06242 0.66589 0.16736 0.0
O38 O 0.04062 0.68242 0.16418 0.0
O39 O 0.06334 0.64816 0.18852 0.0
O40 O 0.97573 0.70365 0.15727 0.0
O41 O 0.96839 0.65962 0.17408 0.0
O42 O 0.35628 0.03449 0.2481 0.0
Cd43 Cd 0.3923 0.03436 0.22143 0.0
Cd44 Cd 0.35739 1.00296 0.18645 0.0
O45 O 0.33092 1.00277 0.22266 0.0
O46 O 0.42844 0.0322 0.24571 0.0
O47 O 0.41146 0.99574 0.2195 0.0
C48 C 0.42992 1.00524 0.23829 0.0
C49 C 0.36254 0.96166 0.1568 0.0
C50 C 0.33382 1.01882 0.2449 0.0
C51 C 0.37475 0.06353 0.16698 0.0
O52 O 0.35854 0.04149 0.16407 0.0
O53 O 0.39313 0.06456 0.18757 0.0
O54 O 0.33875 0.97618 0.15794 0.0
O55 O 0.38331 0.96977 0.17362 0.0
O56 O 1.01041 0.68695 0.793 0.0
Cd57 Cd 1.00922 0.65121 0.81994 0.0
Cd58 Cd 0.03923 0.68745 0.85527 0.0
O59 O 0.03956 0.71432 0.81921 0.0
O60 O 1.00778 0.6172 0.79313 0.0
O61 O 0.04515 0.62687 0.82184 0.0
C62 C 0.03376 0.61124 0.80159 0.0
C63 C 0.08047 0.68362 0.88529 0.0
C64 C 0.02498 0.71008 0.79621 0.0
C65 C 0.9788 0.66797 0.874 0.0
O66 O 1.00055 0.68454 0.87738 0.0
O67 O 0.97803 0.65039 0.85273 0.0
O68 O 0.06508 0.70684 0.88399 0.0
O69 O 0.07311 0.66249 0.86853 0.0
O70 O 0.35514 1.01082 0.79575 0.0
Cd71 Cd 0.3911 1.01094 0.82228 0.0
Cd72 Cd 0.35468 0.04039 0.85739 0.0
O73 O 0.32741 0.0399 0.8216 0.0
O74 O 0.4248 1.01011 0.79508 0.0
O75 O 0.41471 0.04742 0.82362 0.0
C76 C 0.43032 0.03629 0.80322 0.0
C77 C 0.35854 0.08199 0.88693 0.0
C78 C 0.33173 0.02492 0.79888 0.0
C79 C 0.37513 0.9803 0.87631 0.0
O80 O 0.35827 1.00183 0.87966 0.0
O81 O 0.39275 0.97979 0.85508 0.0
O82 O 0.33545 0.06637 0.88611 0.0
O83 O 0.37951 0.07463 0.86997 0.0
O84 O 0.03378 0.35734 0.79254 0.0
Cd85 Cd 0.03308 0.3929 0.81969 0.0
Cd86 Cd 1.00319 0.35659 0.85437 0.0
O87 O 1.00274 0.33081 0.81752 0.0
O88 O 0.03235 0.42861 0.79487 0.0
O89 O 0.99474 0.41306 0.82026 0.0
C90 C 1.00526 0.43101 0.80149 0.0
C91 C 0.96249 0.35998 0.88521 0.0
C92 C 1.01835 0.33467 0.79512 0.0
C93 C 0.06318 0.37562 0.87393 0.0
O94 O 0.04194 0.35828 0.87644 0.0
O95 O 0.06335 0.39424 0.85353 0.0
O96 O 0.97751 0.33661 0.88285 0.0
O97 O 0.96962 0.38142 0.86874 0.0
O98 O 0.68601 0.03614 0.79319 0.0
Cd99 Cd 0.64976 0.03412 0.81941 0.0
Cd100 Cd 0.6853 1.00422 0.85448 0.0
O101 O 0.71231 1.00514 0.81854 0.0
O102 O 0.61404 0.03291 0.79456 0.0
O103 O 0.63081 0.99514 0.81905 0.0
C104 C 0.61238 1.00566 0.80077 0.0
C105 C 0.68005 0.96288 0.88411 0.0
C106 C 0.70904 0.02135 0.79644 0.0
C107 C 0.6653 0.0636 0.87445 0.0
O108 O 0.68269 0.04244 0.87717 0.0
O109 O 0.64723 0.06391 0.85358 0.0
O110 O 0.70377 0.97755 0.88321 0.0
O111 O 0.65952 0.97071 0.86683 0.0
O112 O 0.24714 1.00918 0.35586 0.0
Cd113 Cd 0.22034 1.01047 0.39165 0.0
Cd114 Cd 0.18482 0.0394 0.35547 0.0
O115 O 0.2213 0.03947 0.32923 0.0
O116 O 0.24504 1.01129 0.42738 0.0
O117 O 0.22029 0.04916 0.41117 0.0
C118 C 0.23868 0.03848 0.42939 0.0
C119 C 0.15433 0.08032 0.35933 0.0
C120 C 0.24386 0.02401 0.33287 0.0
C121 C 0.1661 0.97962 0.37562 0.0
O122 O 0.16298 1.0006 0.35807 0.0
O123 O 0.18683 0.97994 0.39385 0.0
O124 O 0.15597 0.06518 0.33597 0.0
O125 O 0.1712 0.07305 0.38042 0.0
O126 O 0.03727 0.24638 0.35523 0.0
Cd127 Cd 0.03662 0.22174 0.3925 0.0
Cd128 Cd 1.00211 0.18844 0.36015 0.0
O129 O 0.99937 0.22575 0.33474 0.0
O130 O 0.03838 0.2494 0.42584 0.0
O131 O 1.00026 0.22174 0.41614 0.0
C132 C 1.012 0.24197 0.43153 0.0
C133 C 0.96151 0.15783 0.36637 0.0
C134 C 1.01852 0.2456 0.33511 0.0
C135 C 0.06364 0.16756 0.37487 0.0
O136 O 0.04109 0.16593 0.35908 0.0
O137 O 0.06574 0.18754 0.39375 0.0
O138 O 0.9749 0.15999 0.34201 0.0
O139 O 0.97029 0.17421 0.38724 0.0
O140 O 0.79565 0.03583 0.35636 0.0
Cd141 Cd 0.82143 0.03452 0.39295 0.0
Cd142 Cd 0.8578 1.00488 0.35785 0.0
O143 O 0.82202 1.00524 0.33064 0.0
O144 O 0.79589 0.03221 0.42805 0.0
O145 O 0.82202 0.99546 0.41146 0.0
C146 C 0.80273 1.00509 0.42933 0.0
C147 C 0.88827 0.9638 0.36067 0.0
C148 C 0.79948 1.02087 0.33354 0.0
C149 C 0.87637 0.0647 0.37863 0.0
O150 O 0.87985 0.04353 0.36139 0.0
O151 O 0.85502 0.06481 0.3961 0.0
O152 O 0.88683 0.97979 0.33788 0.0
O153 O 0.87125 0.97032 0.38185 0.0
O154 O 1.00949 0.7954 0.35598 0.0
Cd155 Cd 1.00817 0.82222 0.39171 0.0
Cd156 Cd 0.04014 0.85649 0.35639 0.0
O157 O 0.04066 0.82028 0.3296 0.0
O158 O 1.00521 0.79518 0.42543 0.0
O159 O 0.04348 0.82304 0.41703 0.0
C160 C 0.0313 0.80278 0.43204 0.0
C161 C 0.08122 0.8864 0.36237 0.0
C162 C 0.02496 0.79792 0.33338 0.0
C163 C 0.97916 0.87626 0.37335 0.0
O164 O 1.00162 0.87902 0.35768 0.0
O165 O 0.97749 0.8555 0.39148 0.0
O166 O 0.06703 0.88524 0.33837 0.0
O167 O 0.07301 0.86928 0.3829 0.0
O168 O 0.24588 0.03168 0.68688 0.0
Cd169 Cd 0.21941 0.03283 0.65085 0.0
Cd170 Cd 0.18386 1.0042 0.68704 0.0
O171 O 0.21966 1.00248 0.71418 0.0
O172 O 0.24684 0.03351 0.61725 0.0
O173 O 0.21743 0.99674 0.62668 0.0
C174 C 0.23822 1.00755 0.61136 0.0
C175 C 0.15305 0.96408 0.67999 0.0
C176 C 0.24264 1.01712 0.71001 0.0
C177 C 0.16705 0.0653 0.66846 0.0
O178 O 0.16333 0.04376 0.6852 0.0
O179 O 0.18743 0.06501 0.64984 0.0
O180 O 0.15381 0.97814 0.70409 0.0
O181 O 0.17091 0.972 0.66 0.0
O182 O 1.00733 0.24838 0.68313 0.0
Cd183 Cd 1.00925 0.22154 0.64746 0.0
Cd184 Cd 0.03959 0.18688 0.68372 0.0
O185 O 0.03874 0.22374 0.70961 0.0
O186 O 1.01114 0.24614 0.61167 0.0
O187 O 0.04835 0.2213 0.62925 0.0
C188 C 0.03843 0.23993 0.61083 0.0
C189 C 0.0815 0.15759 0.68058 0.0
C190 C 0.02269 0.24587 0.70587 0.0
C191 C 0.98026 0.16639 0.66345 0.0
O192 O 1.00137 0.16392 0.68097 0.0
O193 O 0.97984 0.18718 0.64529 0.0
O194 O 0.06613 0.15912 0.70379 0.0
O195 O 0.07377 0.17373 0.65911 0.0
O196 O 0.79457 1.01279 0.68533 0.0
Cd197 Cd 0.82055 1.00982 0.64897 0.0
Cd198 Cd 0.85714 0.04019 0.68371 0.0
O199 O 0.82176 0.04238 0.71126 0.0
O200 O 0.79245 1.00675 0.61607 0.0
O201 O 0.82167 0.04434 0.62246 0.0
C202 C 0.80061 0.03237 0.60839 0.0
C203 C 0.88816 0.08029 0.67705 0.0
C204 C 0.79857 0.02784 0.70802 0.0
C205 C 0.87359 0.97833 0.66692 0.0
O206 O 0.8778 1.00064 0.68248 0.0
O207 O 0.85257 0.97767 0.649 0.0
O208 O 0.88726 0.06602 0.70101 0.0
O209 O 0.87039 0.07256 0.65689 0.0
O210 O 0.03434 0.7964 0.68396 0.0
Cd211 Cd 0.03224 0.82322 0.64825 0.0
Cd212 Cd 1.00161 0.85749 0.68452 0.0
O213 O 1.00278 0.82069 0.71053 0.0
O214 O 0.031 0.79861 0.61243 0.0
O215 O 0.99332 0.82303 0.62952 0.0
C216 C 1.00367 0.80456 0.6112 0.0
C217 C 0.95955 0.88658 0.68095 0.0
C218 C 1.01908 0.79874 0.70677 0.0
C219 C 0.06093 0.87836 0.6646 0.0
O220 O 0.03971 0.88065 0.682 0.0
O221 O 0.06151 0.8577 0.64632 0.0
O222 O 0.97478 0.88519 0.70428 0.0
O223 O 0.96746 0.87033 0.65963 0.0
O224 O 0.35495 0.24799 1.01175 0.0
Cd225 Cd 0.39073 0.22115 1.00958 0.0
Cd226 Cd 0.35506 0.18557 0.03983 0.0
O227 O 0.32803 0.22146 0.04103 0.0
O228 O 0.42465 0.24809 1.00748 0.0
O229 O 0.41619 0.21902 0.04476 0.0
C230 C 0.43144 0.23948 0.03321 0.0
C231 C 0.35988 0.15502 0.08066 0.0
C232 C 0.33199 0.24456 0.02652 0.0
C233 C 0.37247 0.16809 0.97846 0.0
O234 O 0.35663 0.16428 1.00064 0.0
O235 O 0.39058 0.18893 0.97774 0.0
O236 O 0.33635 0.15643 0.06575 0.0
O237 O 0.38082 0.1719 0.07301 0.0
O238 O 0.35373 0.79649 0.03231 0.0
Cd239 Cd 0.3906 0.8218 0.03383 0.0
Cd240 Cd 0.356 0.85866 1.00381 0.0
O241 O 0.32737 0.82405 1.00345 0.0
O242 O 0.42338 0.79357 0.03615 0.0
O243 O 0.41598 0.8226 0.99858 0.0
C244 C 0.43039 0.80164 1.01031 0.0
C245 C 0.36188 0.88865 0.96284 0.0
C246 C 0.33056 0.80095 1.01813 0.0
C247 C 0.3754 0.87594 0.06467 0.0
O248 O 0.35939 0.88029 0.04268 0.0
O249 O 0.3922 0.85405 0.06545 0.0
O250 O 0.33846 0.8886 0.97798 0.0
O251 O 0.38189 0.87054 0.97018 0.0
O252 O 0.24421 0.35563 0.03479 0.0
Cd253 Cd 0.21711 0.3911 0.0327 0.0
Cd254 Cd 0.18323 0.35446 1.0028 0.0
O255 O 0.22026 0.32871 1.00326 0.0
O256 O 0.24162 0.42702 0.03278 0.0
O257 O 0.21819 0.41078 0.99413 0.0
C258 C 0.23618 0.42903 1.0054 0.0
C259 C 0.15409 0.36073 0.96113 0.0
C260 C 0.24217 0.33277 1.01956 0.0
C261 C 0.16296 0.37343 0.06243 0.0
O262 O 0.1607 0.35592 0.04131 0.0
O263 O 0.18285 0.39257 0.06236 0.0
O264 O 0.15502 0.33654 0.97506 0.0
O265 O 0.1709 0.38122 0.97002 0.0
O266 O 0.68767 0.24724 0.03059 0.0
Cd267 Cd 0.65133 0.22117 0.03213 0.0
Cd268 Cd 0.68601 0.18491 1.00207 0.0
O269 O 0.71413 0.22001 1.00153 0.0
O270 O 0.61734 0.24812 0.03296 0.0
O271 O 0.6271 0.21886 0.99619 0.0
C272 C 0.61135 0.23928 1.0071 0.0
C273 C 0.67951 0.15501 0.96109 0.0
C274 C 0.71078 0.24309 1.01623 0.0
C275 C 0.66753 0.16724 0.06303 0.0
O276 O 0.68346 0.16313 0.04096 0.0
O277 O 0.65038 0.18886 0.06382 0.0
O278 O 0.70329 0.15526 0.9757 0.0
O279 O 0.6595 0.17288 0.96893 0.0
O280 O 0.7958 0.68907 0.03043 0.0
Cd281 Cd 0.82128 0.65233 0.03254 0.0
Cd282 Cd 0.85848 0.68698 1.00279 0.0
O283 O 0.82363 0.71535 1.00179 0.0
O284 O 0.7929 0.61968 0.03475 0.0
O285 O 0.82222 0.62681 0.99737 0.0
C286 C 0.80105 0.6126 1.00897 0.0
C287 C 0.8884 0.681 0.96178 0.0
C288 C 0.80028 0.7121 1.01604 0.0
C289 C 0.87533 0.66758 0.06387 0.0
O290 O 0.87986 0.68361 0.04192 0.0
O291 O 0.85338 0.65084 0.06445 0.0
O292 O 0.88845 0.70443 0.97692 0.0
O293 O 0.87037 0.66097 0.96926 0.0
O294 O 0.68795 0.79724 1.0064 0.0
Cd295 Cd 0.65151 0.82325 1.00742 0.0
Cd296 Cd 0.68705 0.85925 0.03704 0.0
O297 O 0.71427 0.82347 0.03664 0.0
O298 O 0.61606 0.79803 1.00927 0.0
O299 O 0.63232 0.82418 0.04611 0.0
C300 C 0.61433 0.80509 0.0363 0.0
C301 C 0.68185 0.88896 0.07834 0.0
C302 C 0.71101 0.80095 0.02105 0.0
C303 C 0.66683 0.87793 0.97715 0.0
O304 O 0.68396 0.88135 0.99843 0.0
O305 O 0.64911 0.85677 0.97701 0.0
O306 O 0.70538 0.88843 0.06336 0.0
O307 O 0.66144 0.87147 0.0707 0.0
O308 O 0.24467 0.68982 1.01048 0.0
Cd309 Cd 0.21872 0.65344 1.00917 0.0
Cd310 Cd 0.18278 0.68816 0.03917 0.0
O311 O 0.21797 0.71608 0.04018 0.0
O312 O 0.24613 0.61986 1.00857 0.0
O313 O 0.21665 0.62945 0.04525 0.0
C314 C 0.2374 0.61404 0.0345 0.0
C315 C 0.15295 0.68122 0.0801 0.0
C316 C 0.24083 0.71278 0.02515 0.0
C317 C 0.16548 0.67021 0.97792 0.0
O318 O 0.16144 0.68616 0.99999 0.0
O319 O 0.18655 0.65238 0.97736 0.0
O320 O 0.15309 0.70513 0.0657 0.0
O321 O 0.17078 0.66128 0.07198 0.0
O322 O 0.79637 0.35478 1.00879 0.0
Cd323 Cd 0.82271 0.39098 1.00733 0.0
Cd324 Cd 0.85798 0.35635 0.03886 0.0
O325 O 0.82262 0.32861 0.03906 0.0
O326 O 0.79601 0.42522 1.00599 0.0
O327 O 0.82461 0.41532 0.04326 0.0
C328 C 0.80444 0.43117 0.03201 0.0
C329 C 0.88752 0.36267 0.0801 0.0
C330 C 0.79998 0.33188 0.02366 0.0
C331 C 0.87691 0.37354 0.97779 0.0
O332 O 0.88038 0.35824 1.00041 0.0
O333 O 0.85563 0.39108 0.97615 0.0
O334 O 0.88712 0.33879 0.06568 0.0
O335 O 0.86994 0.38283 0.07194 0.0
O336 O 0.50525 0.8553 0.74608 0.0
Cd337 Cd 0.50765 0.89053 0.7186 0.0
Cd338 Cd 0.53976 0.85433 0.68628 0.0
O339 O 0.53827 0.82899 0.72349 0.0
O340 O 0.50833 0.9271 0.74222 0.0
O341 O 0.54662 0.90939 0.71936 0.0
C342 C 0.53576 0.92839 0.7368 0.0
C343 C 0.58169 0.85943 0.65755 0.0
C344 C 0.52109 0.83279 0.74474 0.0
C345 C 0.48086 0.87246 0.663 0.0
O346 O 0.50243 0.85544 0.66209 0.0
O347 O 0.47927 0.89133 0.6831 0.0
O348 O 0.56772 0.83532 0.65919 0.0
O349 O 0.5729 0.88043 0.67375 0.0
O350 O 0.18795 0.51136 0.74856 0.0
Cd351 Cd 0.15211 0.50984 0.72188 0.0
Cd352 Cd 0.18624 0.5421 0.68714 0.0
O353 O 0.21347 0.54265 0.72289 0.0
O354 O 0.11768 0.50801 0.74811 0.0
O355 O 0.12801 0.54586 0.72045 0.0
C356 C 0.11211 0.53435 0.74042 0.0
C357 C 0.17985 0.5835 0.65784 0.0
C358 C 0.2104 0.52696 0.74534 0.0
C359 C 0.17006 0.48097 0.66759 0.0
O360 O 0.18525 0.50371 0.66443 0.0
O361 O 0.15233 0.47907 0.68866 0.0
O362 O 0.20388 0.56935 0.65853 0.0
O363 O 0.1595 0.57496 0.67497 0.0
O364 O 0.53534 0.18571 0.74544 0.0
Cd365 Cd 0.5349 0.14939 0.71943 0.0
Cd366 Cd 0.506 0.18559 0.68391 0.0
O367 O 0.5055 0.21281 0.71973 0.0
O368 O 0.53522 0.11623 0.74725 0.0
O369 O 0.49796 0.12648 0.71867 0.0
C370 C 0.50879 0.11125 0.73954 0.0
C371 C 0.46589 0.18206 0.65231 0.0
C372 C 0.52076 0.20884 0.74235 0.0
C373 C 0.56636 0.16492 0.66606 0.0
O374 O 0.54519 0.18223 0.66275 0.0
O375 O 0.56625 0.14683 0.6869 0.0
O376 O 0.48148 0.2051 0.65414 0.0
O377 O 0.47203 0.16111 0.66979 0.0
O378 O 0.85442 0.5356 0.74426 0.0
Cd379 Cd 0.88964 0.53302 0.71692 0.0
Cd380 Cd 0.85352 0.50107 0.68452 0.0
O381 O 0.82814 0.50253 0.72169 0.0
O382 O 0.92619 0.53323 0.74054 0.0
O383 O 0.90873 0.49421 0.71858 0.0
C384 C 0.92763 0.50569 0.73574 0.0
C385 C 0.85947 0.45881 0.65638 0.0
C386 C 0.83192 0.51976 0.74291 0.0
C387 C 0.8713 0.56012 0.66158 0.0
O388 O 0.8543 0.53853 0.66038 0.0
O389 O 0.89035 0.5614 0.68153 0.0
O390 O 0.83518 0.47253 0.6575 0.0
O391 O 0.8802 0.46815 0.67263 0.0
O392 O 0.50741 0.18766 0.29342 0.0
Cd393 Cd 0.50886 0.15149 0.3197 0.0
Cd394 Cd 0.53866 0.18716 0.35531 0.0
O395 O 0.538 0.21402 0.3192 0.0
O396 O 0.5109 0.11586 0.29489 0.0
O397 O 0.54778 0.13286 0.32063 0.0
C398 C 0.53801 0.11458 0.3018 0.0
C399 C 0.57986 0.18348 0.38561 0.0
C400 C 0.52217 0.21067 0.29684 0.0
C401 C 0.47883 0.167 0.37421 0.0
O402 O 0.50006 0.18424 0.37742 0.0
O403 O 0.47868 0.14907 0.35325 0.0
O404 O 0.56444 0.20668 0.38416 0.0
O405 O 0.57276 0.16245 0.36864 0.0
O406 O 0.85608 0.50684 0.29316 0.0
Cd407 Cd 0.89155 0.50611 0.32049 0.0
Cd408 Cd 0.85615 0.53817 0.35412 0.0
O409 O 0.82951 0.538 0.31785 0.0
O410 O 0.9266 0.50524 0.29489 0.0
O411 O 0.91499 0.54256 0.32274 0.0
C412 C 0.93168 0.53147 0.3032 0.0
C413 C 0.86202 0.57985 0.38312 0.0
C414 C 0.83334 0.52218 0.2956 0.0
C415 C 0.87315 0.4776 0.37488 0.0
O416 O 0.85746 0.50009 0.37736 0.0
O417 O 0.89124 0.4757 0.35412 0.0
O418 O 0.83802 0.56565 0.38221 0.0
O419 O 0.8826 0.57125 0.36629 0.0
O420 O 0.53829 0.85447 0.29541 0.0
Cd421 Cd 0.53545 0.89101 0.32095 0.0
Cd422 Cd 0.49997 0.85812 0.35298 0.0
O423 O 0.49895 0.83483 0.3142 0.0
O424 O 0.53421 0.92706 0.29652 0.0
O425 O 0.49623 0.90893 0.31973 0.0
C426 C 0.50672 0.92773 0.30182 0.0
C427 C 0.458 0.86238 0.38223 0.0
C428 C 0.5187 0.83511 0.29491 0.0
C429 C 0.5601 0.87279 0.37654 0.0
O430 O 0.53798 0.85637 0.37692 0.0
O431 O 0.56235 0.89218 0.35705 0.0
O432 O 0.47158 0.83823 0.37906 0.0
O433 O 0.4675 0.88428 0.36769 0.0
O434 O 0.18499 0.53807 0.29619 0.0
Cd435 Cd 0.14934 0.53543 0.32317 0.0
Cd436 Cd 0.18653 0.50641 0.35758 0.0
O437 O 0.2125 0.50761 0.32087 0.0
O438 O 0.11327 0.53279 0.29892 0.0
O439 O 0.1315 0.49601 0.32386 0.0
C440 C 0.11263 0.50558 0.3055 0.0
C441 C 0.18397 0.46513 0.38775 0.0
C442 C 0.20827 0.52353 0.29873 0.0
C443 C 0.16522 0.56539 0.37775 0.0
O444 O 0.18325 0.54472 0.38013 0.0
O445 O 0.14673 0.5652 0.35725 0.0
O446 O 0.20697 0.48079 0.38588 0.0
O447 O 0.16253 0.47199 0.37116 0.0
O448 O 0.74744 0.51285 0.85572 0.0
Cd449 Cd 0.72067 0.51102 0.8915 0.0
Cd450 Cd 0.68482 0.54061 0.85571 0.0
O451 O 0.72039 0.5412 0.82827 0.0
O452 O 0.74739 0.50978 0.92564 0.0
O453 O 0.71827 0.54674 0.91604 0.0
C454 C 0.73861 0.53563 0.93176 0.0
C455 C 0.65545 0.58196 0.86194 0.0
C456 C 0.7437 0.52711 0.83247 0.0
C457 C 0.66693 0.47985 0.87474 0.0
O458 O 0.66295 0.50174 0.85848 0.0
O459 O 0.68841 0.47926 0.89208 0.0
O460 O 0.65557 0.5673 0.8382 0.0
O461 O 0.67305 0.57384 0.88209 0.0
O462 O 0.53029 0.74844 0.85752 0.0
Cd463 Cd 0.5328 0.72187 0.89347 0.0
Cd464 Cd 0.50304 0.68558 0.85812 0.0
O465 O 0.5012 0.72135 0.83091 0.0
O466 O 0.53394 0.74886 0.92732 0.0
O467 O 0.49732 0.71909 0.9183 0.0
C468 C 0.50828 0.73975 0.93371 0.0
C469 C 0.46347 0.65343 0.86241 0.0
C470 C 0.51537 0.74469 0.83469 0.0
C471 C 0.56443 0.66874 0.87649 0.0
O472 O 0.54249 0.66479 0.86032 0.0
O473 O 0.56495 0.68999 0.89409 0.0
O474 O 0.4785 0.6556 0.83904 0.0
O475 O 0.46985 0.67087 0.8833 0.0
O476 O 0.29602 0.5351 0.85733 0.0
Cd477 Cd 0.32242 0.53329 0.89337 0.0
Cd478 Cd 0.35631 0.50079 0.85859 0.0
O479 O 0.32005 0.50228 0.83204 0.0
O480 O 0.29771 0.53269 0.92908 0.0
O481 O 0.3218 0.49451 0.91263 0.0
C482 C 0.3035 0.50535 0.93086 0.0
C483 C 0.38632 0.45934 0.86071 0.0
C484 C 0.29858 0.51937 0.83486 0.0
C485 C 0.3779 0.56062 0.87665 0.0
O486 O 0.37989 0.53847 0.86049 0.0
O487 O 0.35716 0.56246 0.89476 0.0
O488 O 0.38402 0.47497 0.83776 0.0
O489 O 0.37012 0.46621 0.88241 0.0
O490 O 0.51241 0.29487 0.85394 0.0
Cd491 Cd 0.51063 0.32127 0.88993 0.0
Cd492 Cd 0.54108 0.35674 0.85442 0.0
O493 O 0.54224 0.32095 0.82719 0.0
O494 O 0.50817 0.29363 0.92318 0.0
O495 O 0.54587 0.32241 0.91538 0.0
C496 C 0.53409 0.30162 0.92999 0.0
C497 C 0.58176 0.38708 0.86059 0.0
C498 C 0.52737 0.29807 0.83108 0.0
C499 C 0.47977 0.37452 0.87228 0.0
O500 O 0.50197 0.37819 0.85642 0.0
O501 O 0.47895 0.35357 0.89025 0.0
O502 O 0.56729 0.38631 0.83674 0.0
O503 O 0.57395 0.36948 0.88087 0.0
O504 O 0.74738 0.53075 0.18377 0.0
Cd505 Cd 0.72095 0.53262 0.14769 0.0
Cd506 Cd 0.68473 0.50378 0.18414 0.0
O507 O 0.72073 0.50192 0.21104 0.0
O508 O 0.74898 0.53475 0.11471 0.0
O509 O 0.71986 0.49729 0.12224 0.0
C510 C 0.74094 0.50885 0.10789 0.0
C511 C 0.65271 0.464 0.1801 0.0
C512 C 0.74394 0.51617 0.20685 0.0
C513 C 0.66865 0.56529 0.16543 0.0
O514 O 0.66463 0.54364 0.18198 0.0
O515 O 0.68917 0.565 0.14696 0.0
O516 O 0.65474 0.47925 0.20334 0.0
O517 O 0.66999 0.4705 0.1591 0.0
O518 O 0.50473 0.74585 0.18512 0.0
Cd519 Cd 0.5085 0.72039 0.14864 0.0
Cd520 Cd 0.54281 0.68861 0.18258 0.0
O521 O 0.54347 0.72726 0.20615 0.0
O522 O 0.5101 0.74504 0.11277 0.0
O523 O 0.54796 0.72188 0.13125 0.0
C524 C 0.53762 0.73987 0.11243 0.0
C525 C 0.58449 0.65889 0.17859 0.0
C526 C 0.52349 0.74632 0.2053 0.0
C527 C 0.48285 0.6654 0.16677 0.0
O528 O 0.50454 0.6651 0.18377 0.0
O529 O 0.48134 0.6845 0.14693 0.0
O530 O 0.57072 0.66208 0.20262 0.0
O531 O 0.57542 0.67374 0.15672 0.0
O532 O 0.2944 0.51508 0.18737 0.0
Cd533 Cd 0.32057 0.51327 0.15119 0.0
Cd534 Cd 0.35756 0.541 0.18778 0.0
O535 O 0.32165 0.5432 0.21481 0.0
O536 O 0.29242 0.51162 0.11838 0.0
O537 O 0.32183 0.54881 0.12614 0.0
C538 C 0.30061 0.53752 0.11176 0.0
C539 C 0.39003 0.58026 0.18309 0.0
C540 C 0.29814 0.52945 0.21053 0.0
C541 C 0.37302 0.47998 0.16731 0.0
O542 O 0.37728 0.50109 0.18448 0.0
O543 O 0.352 0.48076 0.14942 0.0
O544 O 0.38821 0.56517 0.20648 0.0
O545 O 0.37225 0.57394 0.16243 0.0
O546 O 0.53085 0.29636 0.18553 0.0
Cd547 Cd 0.53248 0.3225 0.14923 0.0
Cd548 Cd 0.49972 0.35759 0.18316 0.0
O549 O 0.49958 0.32218 0.21084 0.0
O550 O 0.53512 0.2951 0.11577 0.0
O551 O 0.49703 0.3232 0.12408 0.0
C552 C 0.509 0.3027 0.10922 0.0
C553 C 0.4582 0.38704 0.17823 0.0
C554 C 0.51534 0.29976 0.20799 0.0
C555 C 0.56083 0.37739 0.16636 0.0
O556 O 0.53796 0.38056 0.18133 0.0
O557 O 0.56312 0.35592 0.14915 0.0
O558 O 0.47316 0.38618 0.20175 0.0
O559 O 0.46602 0.37 0.1575 0.0
O560 O 0.85557 0.74625 0.50479 0.0
Cd561 Cd 0.89161 0.71977 0.50577 0.0
Cd562 Cd 0.85559 0.68415 0.53511 0.0
O563 O 0.82943 0.72076 0.53578 0.0
O564 O 0.92705 0.74485 0.50765 0.0
O565 O 0.91057 0.7189 0.54458 0.0
C566 C 0.92853 0.73801 0.53475 0.0
C567 C 0.8587 0.65248 0.57525 0.0
C568 C 0.83293 0.74326 0.5202 0.0
C569 C 0.8756 0.66584 0.47501 0.0
O570 O 0.85807 0.66286 0.49602 0.0
O571 O 0.894 0.68639 0.47527 0.0
O572 O 0.83552 0.65492 0.55992 0.0
O573 O 0.88004 0.66935 0.56879 0.0
O574 O 0.85754 0.29318 0.53079 0.0
Cd575 Cd 0.89297 0.32049 0.53262 0.0
Cd576 Cd 0.85627 0.35596 0.50335 0.0
O577 O 0.82962 0.31977 0.50249 0.0
O578 O 0.9273 0.29406 0.53406 0.0
O579 O 0.91789 0.32332 0.49713 0.0
C580 C 0.93364 0.30305 0.50834 0.0
C581 C 0.8599 0.38696 0.46274 0.0
C582 C 0.8342 0.29652 0.51658 0.0
C583 C 0.87506 0.37336 0.56438 0.0
O584 O 0.85866 0.37716 0.54257 0.0
O585 O 0.89303 0.3524 0.5647 0.0
O586 O 0.83674 0.38519 0.47814 0.0
O587 O 0.88106 0.37 0.46962 0.0
O588 O 0.74565 0.85417 0.53225 0.0
Cd589 Cd 0.71856 0.88975 0.53171 0.0
Cd590 Cd 0.68299 0.85264 0.50351 0.0
O591 O 0.71999 0.82708 0.50222 0.0
O592 O 0.74332 0.92546 0.53073 0.0
O593 O 0.71767 0.90963 0.49331 0.0
C594 C 0.73657 0.92753 0.50365 0.0
C595 C 0.65129 0.85688 0.46355 0.0
C596 C 0.74279 0.83128 0.51719 0.0
C597 C 0.66547 0.87266 0.56368 0.0
O598 O 0.66235 0.8548 0.54297 0.0
O599 O 0.68562 0.89149 0.56271 0.0
O600 O 0.65352 0.83329 0.47829 0.0
O601 O 0.6683 0.87794 0.47056 0.0
O602 O 0.18412 0.74959 0.53338 0.0
Cd603 Cd 0.14815 0.72299 0.53491 0.0
Cd604 Cd 0.18371 0.68722 0.5052 0.0
O605 O 0.21108 0.72289 0.50431 0.0
O606 O 0.11391 0.74962 0.5357 0.0
O607 O 0.12397 0.72045 0.49894 0.0
C608 C 0.10804 0.74074 0.50983 0.0
C609 C 0.17777 0.65702 0.46439 0.0
C610 C 0.2072 0.746 0.51882 0.0
C611 C 0.16497 0.66946 0.56608 0.0
O612 O 0.18127 0.66566 0.54422 0.0
O613 O 0.14738 0.69073 0.56664 0.0
O614 O 0.20152 0.65771 0.47904 0.0
O615 O 0.15746 0.67461 0.47212 0.0
O616 O 0.29666 0.18829 0.53469 0.0
Cd617 Cd 0.323 0.15215 0.53363 0.0
Cd618 Cd 0.35704 0.18618 0.50079 0.0
O619 O 0.32095 0.21297 0.50158 0.0
O620 O 0.2983 0.11634 0.53317 0.0
O621 O 0.32248 0.13265 0.49502 0.0
C622 C 0.3042 0.11442 0.50587 0.0
C623 C 0.38606 0.18067 0.45914 0.0
C624 C 0.29935 0.21046 0.51854 0.0
C625 C 0.37884 0.16898 0.56062 0.0
O626 O 0.38085 0.18498 0.53835 0.0
O627 O 0.35795 0.15104 0.56267 0.0
O628 O 0.38493 0.20466 0.47333 0.0
O629 O 0.36929 0.15999 0.46759 0.0
O630 O 0.189 0.29742 0.50794 0.0
Cd631 Cd 0.15323 0.32424 0.50825 0.0
Cd632 Cd 0.18802 0.35876 0.5403 0.0
O633 O 0.21409 0.32212 0.54044 0.0
O634 O 0.11732 0.29979 0.50913 0.0
O635 O 0.13357 0.32508 0.54664 0.0
C636 C 0.11548 0.30636 0.53628 0.0
C637 C 0.18442 0.38914 0.58137 0.0
C638 C 0.2112 0.30013 0.52404 0.0
C639 C 0.17097 0.37883 0.47972 0.0
O640 O 0.18708 0.38138 0.50188 0.0
O641 O 0.15257 0.35831 0.4784 0.0
O642 O 0.20788 0.3869 0.56651 0.0
O643 O 0.16301 0.37281 0.57387 0.0
O644 O 0.74805 0.18455 0.50713 0.0
Cd645 Cd 0.72073 0.14915 0.50571 0.0
Cd646 Cd 0.68682 0.1843 0.53787 0.0
O647 O 0.72311 0.21089 0.53826 0.0
O648 O 0.74659 0.11429 0.50428 0.0
O649 O 0.71842 0.12494 0.54165 0.0
C650 C 0.73819 0.10865 0.53037 0.0
C651 C 0.65772 0.17819 0.57946 0.0
C652 C 0.7455 0.20714 0.52264 0.0
C653 C 0.66671 0.16823 0.47684 0.0
O654 O 0.66395 0.18359 0.49952 0.0
O655 O 0.68741 0.15005 0.47497 0.0
O656 O 0.65866 0.20227 0.56538 0.0
O657 O 0.67446 0.1576 0.57071 0.0
O658 O 0.29466 0.85675 0.50895 0.0
Cd659 Cd 0.32127 0.89269 0.50812 0.0
Cd660 Cd 0.35692 0.8559 0.53624 0.0
O661 O 0.32066 0.82939 0.53829 0.0
O662 O 0.29357 0.92598 0.50726 0.0
O663 O 0.3226 0.91671 0.5444 0.0
C664 C 0.30159 0.93165 0.53345 0.0
C665 C 0.38936 0.85991 0.57561 0.0
C666 C 0.29768 0.8337 0.52368 0.0
C667 C 0.37316 0.87515 0.47507 0.0
O668 O 0.3768 0.85798 0.49629 0.0
O669 O 0.35309 0.8941 0.47584 0.0
O670 O 0.38703 0.83658 0.56052 0.0
O671 O 0.37203 0.88095 0.56932 0.0
C672 C 0.06489 0.49462 0.28157 0.0
C673 C 0.09264 0.48546 0.29035 0.0
C674 C 0.04633 0.47605 0.26604 0.0
C675 C 0.05532 0.4481 0.25779 0.0
H676 H 0.05738 0.51619 0.28696 0.0
H677 H 0.02499 0.48378 0.26008 0.0
S678 S 0.12601 0.41395 0.27501 0.0
N679 N 0.12802 0.44646 0.28975 0.0
N680 N 0.09372 0.41216 0.25974 0.0
C681 C 0.08309 0.43886 0.26619 0.0
C682 C 0.10159 0.45737 0.28268 0.0
C683 C 0.56775 0.04841 0.26245 0.0
C684 C 0.59526 0.05793 0.25335 0.0
C685 C 0.54915 0.06678 0.27814 0.0
C686 C 0.55795 0.09483 0.28627 0.0
H687 H 0.56044 0.02676 0.25712 0.0
H688 H 0.52792 0.05887 0.28427 0.0
S689 S 0.62803 0.12979 0.26831 0.0
N690 N 0.63023 0.0973 0.25357 0.0
N691 N 0.59591 0.13121 0.28394 0.0
C692 C 0.58553 0.10438 0.27763 0.0
C693 C 0.60401 0.0861 0.26094 0.0
C694 C 0.97701 0.56519 0.2434 0.0
C695 C 0.99164 0.58766 0.25776 0.0
C696 C 0.95893 0.54602 0.25867 0.0
C697 C 0.95403 0.54936 0.28861 0.0
H698 H 0.97935 0.5626 0.2202 0.0
H699 H 0.94767 0.52929 0.24667 0.0
S700 S 0.98724 0.60505 0.33601 0.0
N701 N 1.0007 0.61183 0.30357 0.0
N702 N 0.96566 0.57679 0.33199 0.0
C703 C 0.96875 0.57166 0.30318 0.0
C704 C 0.98783 0.59056 0.28781 0.0
C705 C 0.49548 0.9762 0.27946 0.0
C706 C 0.48723 0.94752 0.28571 0.0
C707 C 0.47698 0.99485 0.26391 0.0
C708 C 0.45014 0.98509 0.25313 0.0
H709 H 0.51609 0.98443 0.28708 0.0
H710 H 0.4838 1.017 0.26018 0.0
S711 S 0.41938 0.91135 0.26237 0.0
N712 N 0.45078 0.9101 0.27942 0.0
N713 N 0.41668 0.94457 0.24941 0.0
C714 C 0.4421 0.9562 0.25864 0.0
C715 C 0.46047 0.93758 0.27513 0.0
C716 C 0.07735 0.576 0.7419 0.0
C717 C 0.0898 0.5518 0.75566 0.0
C718 C 0.05816 0.59436 0.7567 0.0
C719 C 0.05133 0.58962 0.78598 0.0
H720 H 0.08272 0.58101 0.71963 0.0
H721 H 0.04943 0.61304 0.74546 0.0
S722 S 0.07681 0.52892 0.8317 0.0
N723 N 0.0926 0.52344 0.80008 0.0
N724 N 0.05736 0.55872 0.82797 0.0
C725 C 0.06315 0.5654 0.79992 0.0
C726 C 0.08217 0.54627 0.78472 0.0
C727 C 0.45223 0.05408 0.75712 0.0
C728 C 0.45199 0.05398 0.78762 0.0
C729 C 0.47081 0.07252 0.74157 0.0
C730 C 0.49053 0.09068 0.756 0.0
H731 H 0.43727 0.0405 0.74519 0.0
H732 H 0.46978 0.07253 0.71814 0.0
S733 S 0.49885 0.09801 0.83559 0.0
N734 N 0.4729 0.07369 0.83162 0.0
N735 N 0.50884 0.10726 0.80251 0.0
C736 C 0.49096 0.09025 0.78648 0.0
C737 C 0.4714 0.07219 0.80227 0.0
C738 C 0.93786 0.46241 0.76623 0.0
C739 C 0.94818 0.48724 0.75197 0.0
C740 C 0.95632 0.44512 0.7831 0.0
C741 C 0.98602 0.45155 0.78578 0.0
H742 H 0.91519 0.45652 0.7647 0.0
H743 H 0.94731 0.42613 0.79353 0.0
S744 S 0.02376 0.51382 0.75172 0.0
N745 N 0.9897 0.51759 0.74151 0.0
N746 N 0.02489 0.48445 0.77215 0.0
C747 C 0.99665 0.47626 0.77134 0.0
C748 C 0.9776 0.49429 0.75476 0.0
C749 C 0.60103 0.95863 0.77667 0.0
C750 C 0.5919 0.9864 0.78525 0.0
C751 C 0.58301 0.9405 0.7602 0.0
C752 C 0.55483 0.94909 0.75235 0.0
H753 H 0.62254 0.95104 0.7822 0.0
H754 H 0.59104 0.91931 0.7541 0.0
S755 S 0.52035 1.01934 0.77008 0.0
N756 N 0.55296 0.02171 0.78458 0.0
N757 N 0.51852 0.98707 0.75478 0.0
C758 C 0.54526 0.97662 0.76116 0.0
C759 C 0.56395 0.99543 0.77726 0.0
C760 C 0.26373 0.08499 0.44066 0.0
C761 C 0.2544 0.05751 0.4499 0.0
C762 C 0.28065 0.10274 0.45863 0.0
C763 C 0.28819 0.09405 0.48686 0.0
H764 H 0.25849 0.0926 0.41909 0.0
H765 H 0.28735 0.12372 0.45053 0.0
S766 S 0.26851 0.02443 0.52158 0.0
N767 N 0.25404 0.02232 0.48895 0.0
N768 N 0.28464 0.0563 0.52334 0.0
C769 C 0.27861 0.06681 0.49654 0.0
C770 C 0.26207 0.04836 0.47789 0.0
C771 C 0.95815 0.25786 0.49157 0.0
C772 C 0.95624 0.28831 0.49103 0.0
C773 C 0.97668 0.24291 0.47263 0.0
C774 C 0.99474 0.25793 0.45329 0.0
H775 H 0.94422 0.24543 0.50577 0.0
H776 H 0.97664 0.21944 0.47288 0.0
S777 S 0.99911 0.33767 0.44451 0.0
N778 N 0.97438 0.33291 0.46991 0.0
N779 N 1.01031 0.30492 0.43541 0.0
C780 C 0.99395 0.28838 0.45342 0.0
C781 C 0.97439 0.30356 0.472 0.0
C782 C 0.76089 0.97534 0.494 0.0
C783 C 0.75248 0.94766 0.48435 0.0
C784 C 0.7772 0.99396 0.47616 0.0
C785 C 0.78666 0.98502 0.44859 0.0
H786 H 0.75456 0.98277 0.51533 0.0
H787 H 0.78273 1.01531 0.48414 0.0
S788 S 0.7711 0.91433 0.41367 0.0
N789 N 0.7549 0.91229 0.44547 0.0
N790 N 0.7864 0.94663 0.41259 0.0
C791 C 0.77875 0.95724 0.43896 0.0
C792 C 0.76144 0.93872 0.45667 0.0
C793 C 0.06368 0.80093 0.47554 0.0
C794 C 0.04804 0.7864 0.45387 0.0
C795 C 0.08178 0.78564 0.49468 0.0
C796 C 0.0857 0.75548 0.49208 0.0
H797 H 0.06216 0.82426 0.47748 0.0
H798 H 0.09385 0.79776 0.51075 0.0
S799 S 0.04962 0.70754 0.43869 0.0
N800 N 0.03696 0.74019 0.43129 0.0
N801 N 0.07204 0.7117 0.46627 0.0
C802 C 0.06994 0.74073 0.47062 0.0
C803 C 0.05084 0.75615 0.45177 0.0
C804 C 0.28418 0.99025 0.58862 0.0
C805 C 0.25369 0.98969 0.58968 0.0
C806 C 0.29967 0.9716 0.57019 0.0
C807 C 0.28517 0.95252 0.55143 0.0
H808 H 0.2962 1.00452 0.60285 0.0
H809 H 0.32313 0.97213 0.57062 0.0
S810 S 0.20557 0.94297 0.5456 0.0
N811 N 0.20964 0.96823 0.57061 0.0
N812 N 0.2386 0.93425 0.53497 0.0
C813 C 0.25468 0.95225 0.55182 0.0
C814 C 0.23897 0.97054 0.57122 0.0
C815 C 0.0496 0.26477 0.56363 0.0
C816 C 0.05833 0.25613 0.59154 0.0
C817 C 0.06808 0.28117 0.54574 0.0
C818 C 0.09541 0.29044 0.55564 0.0
H819 H 0.02851 0.25853 0.55543 0.0
H820 H 0.06084 0.28685 0.52416 0.0
S821 S 0.12796 0.2743 0.62735 0.0
N822 N 0.09604 0.25821 0.62821 0.0
N823 N 0.13014 0.2898 0.59521 0.0
C824 C 0.10409 0.28234 0.58368 0.0
C825 C 0.08572 0.26497 0.60147 0.0
C826 C 0.79861 0.06469 0.56478 0.0
C827 C 0.78415 0.0489 0.5864 0.0
C828 C 0.78325 0.08263 0.54554 0.0
C829 C 0.75304 0.08626 0.54798 0.0
H830 H 0.82197 0.06343 0.56297 0.0
H831 H 0.79532 0.09486 0.52956 0.0
S832 S 0.70516 0.04967 0.601 0.0
N833 N 0.73788 0.03733 0.60862 0.0
N834 N 0.70927 0.07215 0.57347 0.0
C835 C 0.73834 0.07033 0.56931 0.0
C836 C 0.75384 0.05137 0.58826 0.0
C837 C 0.97557 0.76341 0.54536 0.0
C838 C 0.94808 0.754 0.5546 0.0
C839 C 0.9936 0.77981 0.56371 0.0
C840 C 0.98423 0.78835 0.59143 0.0
H841 H 0.98332 0.75781 0.52394 0.0
H842 H 1.01484 0.78615 0.55601 0.0
S843 S 0.91384 0.7699 0.62552 0.0
N844 N 0.91244 0.75445 0.59331 0.0
N845 N 0.94568 0.78608 0.62718 0.0
C846 C 0.95664 0.7794 0.60069 0.0
C847 C 0.93873 0.76202 0.58244 0.0
C848 C 0.4736 0.30078 0.0681 0.0
C849 C 0.49206 0.28628 0.08749 0.0
C850 C 0.45525 0.28529 0.04937 0.0
C851 C 0.45393 0.25482 0.05018 0.0
H852 H 0.47308 0.32423 0.06767 0.0
H853 H 0.44098 0.29733 0.03515 0.0
S854 S 0.49797 0.20668 0.09695 0.0
N855 N 0.50859 0.23971 0.10571 0.0
N856 N 0.47303 0.21076 0.0716 0.0
C857 C 0.47249 0.24009 0.06924 0.0
C858 C 0.49184 0.2558 0.08761 0.0
C859 C 0.47214 0.80034 0.97573 0.0
C860 C 0.4524 0.78551 0.99352 0.0
C861 C 0.49135 0.78518 0.95765 0.0
C862 C 0.49073 0.75472 0.95595 0.0
H863 H 0.47249 0.8238 0.97554 0.0
H864 H 0.50585 0.79747 0.94389 0.0
S865 S 0.44321 0.70582 0.99825 0.0
N866 N 0.43403 0.73867 1.00904 0.0
N867 N 0.46911 0.71033 0.974 0.0
C868 C 0.47132 0.73967 0.97385 0.0
C869 C 0.45243 0.75505 0.99293 0.0
C870 C 0.27962 0.45817 0.9421 0.0
C871 C 0.28725 0.48631 0.95101 0.0
C872 C 0.26227 0.44028 0.95948 0.0
C873 C 0.25253 0.44948 0.98683 0.0
H874 H 0.28656 0.45011 0.9212 0.0
H875 H 0.25696 0.41879 0.95168 0.0
S876 S 0.26668 0.52092 1.02044 0.0
N877 N 0.28337 0.52266 0.98885 0.0
N878 N 0.25191 0.48839 0.02215 0.0
C879 C 0.2603 0.47736 0.99622 0.0
C880 C 0.27731 0.49595 0.97814 0.0
C881 C 0.58501 0.28425 0.99223 0.0
C882 C 0.58901 0.25411 0.98942 0.0
C883 C 0.56678 0.2996 0.97326 0.0
C884 C 0.55111 0.28517 0.95155 0.0
H885 H 0.59707 0.29629 1.00836 0.0
H886 H 0.56517 0.32291 0.97539 0.0
S887 S 0.55299 0.20643 0.93576 0.0
N888 N 0.57546 0.21047 0.96332 0.0
N889 N 0.54018 0.23908 0.92865 0.0
C890 C 0.55404 0.25495 0.94921 0.0
C891 C 0.57326 0.23946 0.96789 0.0
C892 C 0.7838 0.55095 0.95735 0.0
C893 C 0.75353 0.55314 0.95412 0.0
C894 C 0.79915 0.56992 0.97556 0.0
C895 C 0.78462 0.591 0.99198 0.0
H896 H 0.79591 0.53534 0.94468 0.0
H897 H 0.82253 0.56829 0.97657 0.0
S898 S 0.70549 0.60488 0.99229 0.0
N899 N 0.70964 0.57789 0.96919 0.0
N900 N 0.73826 0.61254 1.00446 0.0
C901 C 0.75428 0.59266 0.98983 0.0
C902 C 0.73878 0.57399 0.97062 0.0
C903 C 0.54892 0.76318 0.06446 0.0
C904 C 0.55724 0.7562 0.09295 0.0
C905 C 0.56738 0.77915 0.04615 0.0
C906 C 0.59426 0.78963 0.0561 0.0
H907 H 0.52824 0.75586 0.05612 0.0
H908 H 0.56047 0.78349 0.02415 0.0
S909 S 0.62543 0.77825 0.12934 0.0
N910 N 0.59397 0.7613 0.13031 0.0
N911 N 0.62798 0.79211 0.09648 0.0
C912 C 0.60245 0.78329 0.08475 0.0
C913 C 0.58412 0.76637 0.10302 0.0
C914 C 0.28318 0.59052 0.05126 0.0
C915 C 0.25274 0.59235 0.05246 0.0
C916 C 0.29867 0.57249 0.0703 0.0
C917 C 0.28417 0.55489 0.09044 0.0
H918 H 0.2952 0.60395 0.03624 0.0
H919 H 0.3221 0.57236 0.0693 0.0
S920 S 0.20472 0.55118 0.10186 0.0
N921 N 0.20876 0.57507 0.07553 0.0
N922 N 0.2377 0.54015 0.1103 0.0
C923 C 0.25372 0.5559 0.09129 0.0
C924 C 0.23804 0.57492 0.07257 0.0
C925 C 0.74371 0.47627 0.06452 0.0
C926 C 0.75772 0.49162 0.08674 0.0
C927 C 0.75936 0.45797 0.04586 0.0
C928 C 0.78937 0.45357 0.04946 0.0
H929 H 0.7205 0.47821 0.06173 0.0
H930 H 0.74761 0.44619 0.02931 0.0
S931 S 0.83597 0.48863 0.10471 0.0
N932 N 0.8033 0.50179 0.11099 0.0
N933 N 0.83241 0.46641 0.0769 0.0
C934 C 0.80359 0.46899 0.07152 0.0
C935 C 0.78783 0.48826 0.0899 0.0
C936 C 0.99388 0.28001 0.30098 0.0
C937 C 1.01954 0.26774 0.31188 0.0
C938 C 0.9947 0.30197 0.27989 0.0
C939 C 0.02117 0.31178 0.26829 0.0
H940 H 0.97307 0.27306 0.30929 0.0
H941 H 0.97444 0.3111 0.27237 0.0
S942 S 0.09437 0.28581 0.2888 0.0
N943 N 0.07212 0.26675 0.3093 0.0
N944 N 0.07358 0.30716 0.26899 0.0
C945 C 0.04691 0.29922 0.27858 0.0
C946 C 0.04612 0.27744 0.30055 0.0
C947 C 0.74786 0.02254 0.31715 0.0
C948 C 0.77751 0.02179 0.31019 0.0
C949 C 0.72662 0.02317 0.29539 0.0
C950 C 0.7343 0.02402 0.26592 0.0
H951 H 0.74101 0.02217 0.33959 0.0
H952 H 0.70402 0.02338 0.30169 0.0
S953 S 0.80893 0.0231 0.23631 0.0
N954 N 0.81346 0.02188 0.27178 0.0
N955 N 0.77358 0.02422 0.23093 0.0
C956 C 0.76386 0.02373 0.25869 0.0
C957 C 0.78546 0.02227 0.28081 0.0
C958 C 1.02036 0.76051 0.26015 0.0
C959 C 1.01868 0.73101 0.26767 0.0
C960 C 0.0233 0.78204 0.28149 0.0
C961 C 0.02382 0.77486 0.3111 0.0
H962 H 1.01993 0.76695 0.2376 0.0
H963 H 0.02455 0.80449 0.27478 0.0
S964 S 1.01968 0.70083 0.34215 0.0
N965 N 1.01794 0.69576 0.30678 0.0
N966 N 0.02235 0.7362 0.34682 0.0
C967 C 0.02185 0.74547 0.31888 0.0
C968 C 1.01959 0.72355 0.29719 0.0
C969 C 0.29588 0.02223 0.31779 0.0
C970 C 0.26639 0.02293 0.31011 0.0
C971 C 0.31762 0.0212 0.29655 0.0
C972 C 0.31059 1.01984 0.26694 0.0
H973 H 0.30221 0.02292 0.34037 0.0
H974 H 0.34007 1.02104 0.30337 0.0
S975 S 0.23664 1.0205 0.23554 0.0
N976 N 0.23132 0.0223 0.27086 0.0
N977 N 0.2721 1.01921 0.23102 0.0
C978 C 0.28119 1.02013 0.259 0.0
C979 C 0.25911 0.022 0.28057 0.0
C980 C 0.02254 0.76193 0.78037 0.0
C981 C 0.0243 0.73238 0.77316 0.0
C982 C 1.02029 0.78328 0.75877 0.0
C983 C 1.02063 0.77587 0.72921 0.0
H984 H 0.02225 0.76856 0.80287 0.0
H985 H 1.01872 0.80577 0.76525 0.0
S986 S 0.02567 0.7016 0.69898 0.0
N987 N 0.02629 0.69682 0.73442 0.0
N988 N 0.02321 0.73693 0.6939 0.0
C989 C 0.02288 0.74643 0.72175 0.0
C990 C 0.0244 0.72469 0.7437 0.0
C991 C 0.25825 1.01936 0.76197 0.0
C992 C 0.26557 1.01815 0.73242 0.0
C993 C 0.27972 0.02228 0.78338 0.0
C994 C 0.30928 0.02326 0.776 0.0
H995 H 0.23575 1.01871 0.76856 0.0
H996 H 0.27317 0.02328 0.80588 0.0
S997 S 0.33979 1.02025 0.70175 0.0
N998 N 0.30442 1.01815 0.69692 0.0
N999 N 0.34471 0.0226 0.7371 0.0
C1000 C 0.31686 0.02164 0.74656 0.0
C1001 C 0.29502 1.01937 0.72479 0.0
C1002 C 0.02154 0.2614 0.7578 0.0
C1003 C 0.02165 0.26881 0.72824 0.0
C1004 C 1.01978 0.28282 0.77934 0.0
C1005 C 1.01901 0.31241 0.77207 0.0
H1006 H 0.02233 0.23887 0.76432 0.0
H1007 H 1.01959 0.2762 0.80185 0.0
S1008 S 1.0193 0.34316 0.69787 0.0
N1009 N 1.02065 0.30776 0.69284 0.0
N1010 N 1.01854 0.348 0.7333 0.0
C1011 C 1.01946 0.32009 0.74262 0.0
C1012 C 1.02044 0.29829 0.72071 0.0
C1013 C 0.74669 0.02704 0.72354 0.0
C1014 C 0.77624 0.02748 0.73103 0.0
C1015 C 0.72509 0.02548 0.74486 0.0
C1016 C 0.73226 0.02332 0.7744 0.0
H1017 H 0.74021 0.02809 0.70101 0.0
H1018 H 0.7026 0.02538 0.73813 0.0
S1019 S 0.80641 0.02334 0.80535 0.0
N1020 N 0.81153 0.026 0.77005 0.0
N1021 N 0.77098 0.02195 0.81005 0.0
C1022 C 0.76172 0.02357 0.78217 0.0
C1023 C 0.78369 0.02598 0.76051 0.0
C1024 C 0.25833 0.28095 1.02101 0.0
C1025 C 0.26533 0.31062 0.0213 0.0
C1026 C 0.27995 0.25966 0.02365 0.0
C1027 C 0.30937 0.2673 0.0258 0.0
H1028 H 0.23595 0.27414 1.01918 0.0
H1029 H 0.27364 0.23706 0.02332 0.0
S1030 S 0.33911 0.34191 0.02724 0.0
N1031 N 0.30375 0.34649 0.02428 0.0
N1032 N 0.34437 0.30653 0.02807 0.0
C1033 C 0.31665 0.29686 0.02586 0.0
C1034 C 0.29464 0.3185 0.02394 0.0
C1035 C 0.29259 0.7282 0.02256 0.0
C1036 C 0.26313 0.73579 0.02407 0.0
C1037 C 0.31422 0.74945 1.02071 0.0
C1038 C 0.30715 0.77906 1.01937 0.0
H1039 H 0.29902 0.70563 0.02314 0.0
H1040 H 0.33665 0.74261 1.01997 0.0
S1041 S 0.23319 0.8103 0.02195 0.0
N1042 N 0.22797 0.77497 0.02414 0.0
N1043 N 0.26859 0.81491 1.01963 0.0
C1044 C 0.27776 0.78695 1.02048 0.0
C1045 C 0.25575 0.76532 0.02315 0.0
C1046 C 0.74827 0.31617 1.02034 0.0
C1047 C 0.77776 0.30877 0.0223 0.0
C1048 C 0.72677 0.29477 1.01842 0.0
C1049 C 0.73402 0.26518 1.01742 0.0
H1050 H 0.74171 0.3387 1.02067 0.0
H1051 H 0.7043 0.30146 1.01738 0.0
S1052 S 0.80813 0.23439 0.02115 0.0
N1053 N 0.81312 0.26977 0.02311 0.0
N1054 N 0.77278 0.22957 1.01844 0.0
C1055 C 0.76345 0.25748 1.01893 0.0
C1056 C 0.7853 0.27926 0.02169 0.0
C1057 C 0.74851 0.72788 1.01679 0.0
C1058 C 0.77808 0.73526 1.01641 0.0
C1059 C 0.72697 0.7493 1.01794 0.0
C1060 C 0.73421 0.77884 1.01969 0.0
H1061 H 0.74195 0.70537 1.01593 0.0
H1062 H 0.70447 0.74263 1.01797 0.0
S1063 S 0.80846 0.80954 1.0197 0.0
N1064 N 0.81349 0.77418 1.01758 0.0
N1065 N 0.77303 0.81439 1.02082 0.0
C1066 C 0.7637 0.78651 1.01955 0.0
C1067 C 0.78562 0.76473 1.01759 0.0
C1068 C 0.51827 0.75972 0.78267 0.0
C1069 C 0.5155 0.76737 0.81202 0.0
C1070 C 0.52053 0.78103 0.76104 0.0
C1071 C 0.51921 0.81069 0.76794 0.0
H1072 H 0.51945 0.73712 0.77646 0.0
H1073 H 0.52298 0.77422 0.73873 0.0
S1074 S 0.5111 0.84197 0.84148 0.0
N1075 N 0.51137 0.80659 0.84684 0.0
N1076 N 0.51441 0.84656 0.80616 0.0
C1077 C 0.5158 0.81857 0.79715 0.0
C1078 C 0.51429 0.79693 0.8192 0.0
C1079 C 0.24704 0.52354 0.81884 0.0
C1080 C 0.27656 0.52139 0.81169 0.0
C1081 C 0.22574 0.52532 0.79721 0.0
C1082 C 0.23331 0.52604 0.76771 0.0
H1083 H 0.24031 0.5233 0.84132 0.0
H1084 H 0.2032 0.52639 0.80362 0.0
S1085 S 0.30764 0.52193 0.73766 0.0
N1086 N 0.31229 0.5202 0.77309 0.0
N1087 N 0.27234 0.52474 0.73248 0.0
C1088 C 0.26278 0.52449 0.7603 0.0
C1089 C 0.28439 0.52182 0.78228 0.0
C1090 C 0.52524 0.28242 0.77915 0.0
C1091 C 0.52663 0.27513 0.80871 0.0
C1092 C 0.52261 0.26089 0.75778 0.0
C1093 C 0.52212 0.23133 0.76519 0.0
H1094 H 0.52553 0.30494 0.77254 0.0
H1095 H 0.52145 0.26742 0.73527 0.0
S1096 S 0.52585 0.20089 0.8395 0.0
N1097 N 0.52737 0.23631 0.84427 0.0
N1098 N 0.52349 0.19591 0.80416 0.0
C1099 C 0.52395 0.22378 0.79465 0.0
C1100 C 0.52591 0.24567 0.81639 0.0
C1101 C 0.78013 0.52043 0.75905 0.0
C1102 C 0.80978 0.52182 0.76601 0.0
C1103 C 0.7588 0.5231 0.78057 0.0
C1104 C 0.7664 0.52637 0.80989 0.0
H1105 H 0.77337 0.51767 0.73675 0.0
H1106 H 0.73621 0.5219 0.77431 0.0
S1107 S 0.84094 0.53106 0.83949 0.0
N1108 N 0.84559 0.52712 0.80425 0.0
N1109 N 0.80556 0.53097 0.84476 0.0
C1110 C 0.79595 0.52759 0.81714 0.0
C1111 C 0.81762 0.52565 0.79518 0.0
C1112 C 0.51939 0.22649 0.24513 0.0
C1113 C 0.52052 0.23379 0.27468 0.0
C1114 C 0.51779 0.248 0.2237 0.0
C1115 C 0.51627 0.27752 0.23107 0.0
H1116 H 0.52024 0.204 0.23851 0.0
H1117 H 0.51744 0.24144 0.20117 0.0
S1118 S 0.51768 0.30797 0.30536 0.0
N1119 N 0.51996 0.27259 0.31023 0.0
N1120 N 0.51579 0.31294 0.26998 0.0
C1121 C 0.51687 0.28509 0.26055 0.0
C1122 C 0.51933 0.26324 0.28234 0.0
C1123 C 0.78131 0.52168 0.28001 0.0
C1124 C 0.81089 0.52084 0.27266 0.0
C1125 C 0.75971 0.51922 0.25868 0.0
C1126 C 0.76693 0.51669 0.2292 0.0
H1127 H 0.77481 0.52376 0.30245 0.0
H1128 H 0.7372 0.51997 0.26526 0.0
S1129 S 0.84111 0.5137 0.19855 0.0
N1130 N 0.84621 0.51691 0.23382 0.0
N1131 N 0.80567 0.51343 0.19376 0.0
C1132 C 0.79639 0.51607 0.22156 0.0
C1133 C 0.81835 0.51782 0.24329 0.0
C1134 C 0.54719 0.78041 0.24031 0.0
C1135 C 0.52177 0.76892 0.22807 0.0
C1136 C 0.54598 0.80212 0.26159 0.0
C1137 C 0.5193 0.81255 0.27205 0.0
H1138 H 0.5682 0.77289 0.23307 0.0
H1139 H 0.56613 0.81048 0.27025 0.0
S1140 S 0.44645 0.78919 0.24754 0.0
N1141 N 0.4691 0.76963 0.22797 0.0
N1142 N 0.46687 0.80966 0.2686 0.0
C1143 C 0.49373 0.80099 0.26026 0.0
C1144 C 0.49495 0.77941 0.2381 0.0
C1145 C 0.28211 0.52683 0.26229 0.0
C1146 C 0.27505 0.52935 0.23277 0.0
C1147 C 0.26037 0.52454 0.28347 0.0
C1148 C 0.23083 0.52554 0.27595 0.0
H1149 H 0.30457 0.52584 0.269 0.0
H1150 H 0.26676 0.52228 0.30594 0.0
S1151 S 0.20104 0.53303 0.20167 0.0
N1152 N 0.23651 0.53304 0.1971 0.0
N1153 N 0.19574 0.52982 0.2369 0.0
C1154 C 0.22354 0.52871 0.24655 0.0
C1155 C 0.24562 0.53032 0.22496 0.0
C1156 C 0.78083 0.75832 0.51966 0.0
C1157 C 0.81033 0.766 0.51963 0.0
C1158 C 0.75907 0.77954 0.51818 0.0
C1159 C 0.76604 0.8092 0.51753 0.0
H1160 H 0.77453 0.73572 0.52033 0.0
H1161 H 0.73662 0.77271 0.5181 0.0
S1162 S 0.83997 0.84064 0.51758 0.0
N1163 N 0.84535 0.80528 0.51869 0.0
N1164 N 0.80449 0.84515 0.51705 0.0
C1165 C 0.79543 0.81715 0.51785 0.0
C1166 C 0.81756 0.79555 0.51858 0.0
C1167 C 0.76104 0.25914 0.52199 0.0
C1168 C 0.76843 0.22957 0.5216 0.0
C1169 C 0.78238 0.28071 0.51952 0.0
C1170 C 0.81191 0.27347 0.51743 0.0
H1171 H 0.73857 0.26566 0.52365 0.0
H1172 H 0.77576 0.30322 0.51984 0.0
S1173 S 0.84262 0.19923 0.51592 0.0
N1174 N 0.80732 0.19419 0.51872 0.0
N1175 N 0.84742 0.23468 0.51521 0.0
C1176 C 0.81958 0.244 0.51736 0.0
C1177 C 0.79784 0.22207 0.51913 0.0
C1178 C 0.28125 0.78196 0.52215 0.0
C1179 C 0.27439 0.81164 0.52312 0.0
C1180 C 0.25942 0.76085 0.52 0.0
C1181 C 0.22994 0.76865 0.51959 0.0
H1182 H 0.30367 0.77504 0.52247 0.0
H1183 H 0.26564 0.73824 0.5192 0.0
S1184 S 0.20059 0.84343 0.52224 0.0
N1185 N 0.23607 0.84774 0.52347 0.0
N1186 N 0.1951 0.80812 0.52049 0.0
C1187 C 0.22283 0.79824 0.52094 0.0
C1188 C 0.24503 0.81971 0.52241 0.0
C1189 C 0.22641 0.24819 0.52218 0.0
C1190 C 0.23402 0.27768 0.52318 0.0
C1191 C 0.24771 0.22651 0.52106 0.0
C1192 C 0.2773 0.23364 0.51986 0.0
H1193 H 0.20382 0.24182 0.52264 0.0
H1194 H 0.24097 0.20404 0.52063 0.0
S1195 S 0.30851 0.30761 0.52143 0.0
N1196 N 0.27316 0.31285 0.52315 0.0
N1197 N 0.31314 0.27217 0.51978 0.0
C1198 C 0.28517 0.26303 0.52051 0.0
C1199 C 0.26354 0.28504 0.52252 0.0
C1200 C 0.11601 0.3909 0.12845 0.0
C1201 C 0.10204 0.36432 0.13415 0.0
C1202 C 0.13615 0.39375 0.10567 0.0
C1203 C 0.14284 0.3702 0.08749 0.0
H1204 H 0.11097 0.40985 0.14132 0.0
H1205 H 0.14597 0.41471 0.10184 0.0
S1206 S 0.11451 0.29518 0.09482 0.0
N1207 N 0.09816 0.31347 0.12076 0.0
N1208 N 0.13545 0.31885 0.0782 0.0
C1209 C 0.12971 0.34331 0.09356 0.0
C1210 C 0.1095 0.34036 0.1168 0.0
C1211 C 0.69932 0.10935 0.11205 0.0
C1212 C 0.67818 0.10531 0.1336 0.0
C1213 C 0.69553 0.12951 0.08976 0.0
C1214 C 0.67054 0.14692 0.08795 0.0
H1215 H 0.71885 0.09636 0.11191 0.0
H1216 H 0.71251 0.13131 0.07368 0.0
S1217 S 0.6091 0.14612 0.13975 0.0
N1218 N 0.63154 0.12123 0.15231 0.0
N1219 N 0.62462 0.15953 0.11043 0.0
C1220 C 0.6495 0.14383 0.1098 0.0
C1221 C 0.65324 0.12294 0.13254 0.0
C1222 C 0.93335 0.69801 0.11359 0.0
C1223 C 0.93717 0.67649 0.13482 0.0
C1224 C 0.91321 0.6948 0.09119 0.0
C1225 C 0.89558 0.67 0.08893 0.0
H1226 H 0.94647 0.71746 0.11379 0.0
H1227 H 0.91159 0.71207 0.07538 0.0
S1228 S 0.89583 0.60761 0.13965 0.0
N1229 N 0.92087 0.62962 0.15267 0.0
N1230 N 0.88259 0.62378 0.1106 0.0
C1231 C 0.89847 0.64855 0.11044 0.0
C1232 C 0.91935 0.65171 0.13329 0.0
C1233 C 0.34819 0.91415 0.09142 0.0
C1234 C 0.37287 0.89631 0.08957 0.0
C1235 C 0.34484 0.93435 0.11371 0.0
C1236 C 0.36614 0.93801 0.13518 0.0
H1237 H 0.33111 0.91264 0.07539 0.0
H1238 H 0.32554 0.94768 0.11362 0.0
S1239 S 0.43449 0.89599 0.1412 0.0
N1240 N 0.41864 0.88288 0.11192 0.0
N1241 N 0.41255 0.92128 0.1538 0.0
C1242 C 0.39076 0.91996 0.13407 0.0
C1243 C 0.39406 0.89902 0.11134 0.0
C1244 C 0.11781 0.65396 0.91222 0.0
C1245 C 0.10445 0.68093 0.9068 0.0
C1246 C 0.13832 0.65059 0.93461 0.0
C1247 C 0.14594 0.674 0.95258 0.0
H1248 H 0.11182 0.6351 0.89962 0.0
H1249 H 0.14746 0.62934 0.93852 0.0
S1250 S 0.12029 0.7499 0.94518 0.0
N1251 N 0.10274 0.73203 0.91971 0.0
N1252 N 0.1407 0.72561 0.96161 0.0
C1253 C 0.13373 0.70128 0.94653 0.0
C1254 C 0.11317 0.70477 0.92371 0.0
C1255 C 0.38825 0.11984 0.91307 0.0
C1256 C 0.36131 0.10624 0.90811 0.0
C1257 C 0.39173 0.14063 0.93518 0.0
C1258 C 0.36847 0.14835 0.9533 0.0
H1259 H 0.40701 0.11381 0.90036 0.0
H1260 H 0.41298 0.14992 0.93876 0.0
S1261 S 0.29267 0.12212 0.94701 0.0
N1262 N 0.31038 0.10438 0.92158 0.0
N1263 N 0.317 0.14288 0.96292 0.0
C1264 C 0.34121 0.1359 0.94767 0.0
C1265 C 0.3376 0.11503 0.92516 0.0
C1266 C 0.90164 0.3912 0.93213 0.0
C1267 C 0.89754 0.36955 0.95324 0.0
C1268 C 0.92223 0.38782 0.90982 0.0
C1269 C 0.93922 0.36251 0.90752 0.0
H1270 H 0.88938 0.41116 0.93323 0.0
H1271 H 0.92509 0.40536 0.89451 0.0
S1272 S 0.93518 0.29835 0.95605 0.0
N1273 N 0.91119 0.3212 0.96934 0.0
N1274 N 0.94934 0.31487 0.92774 0.0
C1275 C 0.93458 0.34037 0.92799 0.0
C1276 C 0.91393 0.34389 0.95072 0.0
C1277 C 0.69436 0.91548 0.94968 0.0
C1278 C 0.66926 0.8983 0.95219 0.0
C1279 C 0.6978 0.93541 0.92713 0.0
C1280 C 0.67623 0.93945 0.906 0.0
H1281 H 0.71172 0.91363 0.96536 0.0
H1282 H 0.71747 0.94818 0.92672 0.0
S1283 S 0.60658 0.89936 0.90183 0.0
N1284 N 0.62267 0.88603 0.93089 0.0
N1285 N 0.62896 0.92391 0.88854 0.0
C1286 C 0.65113 0.92212 0.90781 0.0
C1287 C 0.64771 0.90147 0.93082 0.0
C1288 C 0.12988 0.11966 0.38838 0.0
C1289 C 0.13249 0.10398 0.3623 0.0
C1290 C 0.10797 0.14056 0.39223 0.0
C1291 C 0.08759 0.14637 0.37029 0.0
H1292 H 0.14459 0.11549 0.40617 0.0
H1293 H 0.10663 0.15175 0.4128 0.0
S1294 S 0.08612 0.11296 0.29706 0.0
N1295 N 0.11357 0.09713 0.31356 0.0
N1296 N 0.0726 0.13591 0.32085 0.0
C1297 C 0.09043 0.13137 0.34386 0.0
C1298 C 0.1128 0.11035 0.33986 0.0
C1299 C 0.93406 0.1149 0.34834 0.0
C1300 C 0.93831 0.13567 0.37022 0.0
C1301 C 0.91404 0.0924 0.3515 0.0
C1302 C 0.89692 0.08957 0.37659 0.0
H1303 H 0.94672 0.1156 0.32861 0.0
H1304 H 0.91202 0.07703 0.33389 0.0
S1305 S 0.89861 0.13883 0.4401 0.0
N1306 N 0.92313 0.15236 0.41784 0.0
N1307 N 0.88502 0.11012 0.42359 0.0
C1308 C 0.90035 0.11053 0.3985 0.0
C1309 C 0.92114 0.13348 0.39539 0.0
C1310 C 0.91227 0.92295 0.38816 0.0
C1311 C 0.91006 0.94 0.36289 0.0
C1312 C 0.93417 0.90189 0.39131 0.0
C1313 C 0.95494 0.89731 0.36945 0.0
H1314 H 0.89725 0.92616 0.40587 0.0
H1315 H 0.93526 0.88966 0.41129 0.0
S1316 S 0.95757 0.93468 0.29812 0.0
N1317 N 0.92981 0.94952 0.31495 0.0
N1318 N 0.97067 0.91046 0.32087 0.0
C1319 C 0.95244 0.91369 0.34378 0.0
C1320 C 0.93012 0.93485 0.3405 0.0
C1321 C 0.12906 0.95165 0.34789 0.0
C1322 C 0.1458 0.95457 0.37323 0.0
C1323 C 0.10911 0.9291 0.34449 0.0
C1324 C 0.1046 0.90836 0.36634 0.0
H1325 H 0.13124 0.96701 0.33029 0.0
H1326 H 0.0967 0.92839 0.32459 0.0
S1327 S 0.14349 0.9053 0.43674 0.0
N1328 N 0.15719 0.93403 0.42039 0.0
N1329 N 0.11928 0.89169 0.41417 0.0
C1330 C 0.12151 0.91056 0.39171 0.0
C1331 C 0.14218 0.93358 0.39509 0.0
C1332 C 0.0871 0.91665 0.69243 0.0
C1333 C 0.08534 0.89938 0.66734 0.0
C1334 C 0.10938 0.93679 0.69637 0.0
C1335 C 0.131 0.94096 0.67533 0.0
H1336 H 0.07111 0.91464 0.70946 0.0
H1337 H 0.10929 0.94952 0.71607 0.0
S1338 S 0.13694 0.90111 0.6057 0.0
N1339 N 0.10769 0.88747 0.62115 0.0
N1340 N 0.14953 0.92573 0.6284 0.0
C1341 C 0.12981 0.92373 0.65013 0.0
C1342 C 0.10707 0.90287 0.6462 0.0
C1343 C 0.13956 0.10814 0.64818 0.0
C1344 C 0.14767 0.09084 0.67194 0.0
C1345 C 0.11889 0.13044 0.65124 0.0
C1346 C 0.1058 0.1364 0.67822 0.0
H1347 H 0.14839 0.10374 0.62691 0.0
H1348 H 0.1125 0.14246 0.63213 0.0
S1349 S 0.12296 0.1 0.74794 0.0
N1350 N 0.14322 0.08314 0.72384 0.0
N1351 N 0.10492 0.12482 0.72963 0.0
C1352 C 0.11505 0.12023 0.70237 0.0
C1353 C 0.1358 0.09753 0.69922 0.0
C1354 C 0.95404 0.12758 0.69054 0.0
C1355 C 0.95584 0.14532 0.66576 0.0
C1356 C 0.9318 0.10731 0.69401 0.0
C1357 C 0.91025 0.10348 0.67281 0.0
H1358 H 0.96999 0.1293 0.70766 0.0
H1359 H 0.93186 0.09422 0.71349 0.0
S1360 S 0.9044 0.14465 0.60393 0.0
N1361 N 0.93358 0.15805 0.61973 0.0
N1362 N 0.89181 0.11956 0.62612 0.0
C1363 C 0.91147 0.12118 0.64794 0.0
C1364 C 0.93418 0.14216 0.64448 0.0
C1365 C 0.9215 0.91261 0.65134 0.0
C1366 C 0.93523 0.90774 0.67824 0.0
C1367 C 0.90072 0.93474 0.64782 0.0
C1368 C 0.89316 0.95301 0.671 0.0
H1369 H 0.92742 0.89979 0.63261 0.0
H1370 H 0.89136 0.93824 0.62659 0.0
S1371 S 0.9198 0.94713 0.7467 0.0
N1372 N 0.93739 0.92153 0.72907 0.0
N1373 N 0.89892 0.96293 0.72239 0.0
C1374 C 0.90572 0.94749 0.69825 0.0
C1375 C 0.92657 0.92494 0.70189 0.0
C1376 C 0.39373 0.10665 0.13895 0.0
C1377 C 0.37065 0.08832 0.14672 0.0
C1378 C 0.39002 0.12873 0.11813 0.0
C1379 C 0.36301 0.13348 0.10458 0.0
H1380 H 0.41499 0.10337 0.14831 0.0
H1381 H 0.40863 0.14171 0.11217 0.0
S1382 S 0.2948 0.09369 0.1203 0.0
N1383 N 0.31928 0.07808 0.14111 0.0
N1384 N 0.31226 0.11932 0.10258 0.0
C1385 C 0.33951 0.11608 0.11328 0.0
C1386 C 0.34334 0.0936 0.13417 0.0
C1387 C 0.34806 0.95402 0.91501 0.0
C1388 C 0.37269 0.95565 0.89708 0.0
C1389 C 0.34467 0.9319 0.93541 0.0
C1390 C 0.36581 0.91029 0.93919 0.0
H1391 H 0.33103 0.97008 0.91342 0.0
H1392 H 0.32535 0.93217 0.9487 0.0
S1393 S 0.43413 0.90376 0.89723 0.0
N1394 N 0.41838 0.933 0.88388 0.0
N1395 N 0.41215 0.89142 0.92262 0.0
C1396 C 0.39044 0.91122 0.92114 0.0
C1397 C 0.39381 0.93382 0.90002 0.0
C1398 C 0.0902 0.34706 0.91115 0.0
C1399 C 0.0878 0.37268 0.89472 0.0
C1400 C 0.11216 0.34328 0.93171 0.0
C1401 C 0.1328 0.36501 0.93716 0.0
H1402 H 0.07484 0.32956 0.90826 0.0
H1403 H 0.11248 0.32321 0.94386 0.0
S1404 S 0.13713 0.436 0.89944 0.0
N1405 N 0.10877 0.41994 0.88466 0.0
N1406 N 0.14999 0.41301 0.92367 0.0
C1407 C 0.13115 0.39063 0.92055 0.0
C1408 C 0.10874 0.3944 0.89927 0.0
C1409 C 0.69659 0.11218 0.93296 0.0
C1410 C 0.67521 0.1334 0.93747 0.0
C1411 C 0.69295 0.09011 0.91257 0.0
C1412 C 0.66782 0.08813 0.89536 0.0
H1413 H 0.71632 0.11219 0.94567 0.0
H1414 H 0.71023 0.07438 0.91039 0.0
S1415 S 0.60547 0.13887 0.89764 0.0
N1416 N 0.62801 0.15149 0.92241 0.0
N1417 N 0.62133 0.10999 0.88366 0.0
C1418 C 0.6464 0.10955 0.89905 0.0
C1419 C 0.65003 0.13211 0.92017 0.0
C1420 C 0.95285 0.69517 0.91283 0.0
C1421 C 0.95435 0.67048 0.89497 0.0
C1422 C 0.93108 0.69845 0.93361 0.0
C1423 C 0.90972 0.67714 0.93784 0.0
H1424 H 0.96875 0.7123 0.9109 0.0
H1425 H 0.93142 0.71783 0.94683 0.0
S1426 S 0.90304 0.60858 0.89626 0.0
N1427 N 0.93188 0.62453 0.88234 0.0
N1428 N 0.89096 0.63057 0.92176 0.0
C1429 C 0.91052 0.65246 0.91985 0.0
C1430 C 0.93275 0.64919 0.89836 0.0
C1431 C 0.69592 0.9542 0.1263 0.0
C1432 C 0.67131 0.95577 0.14428 0.0
C1433 C 0.69929 0.93212 0.10585 0.0
C1434 C 0.67812 0.91053 0.10207 0.0
H1435 H 0.71294 0.97027 0.12792 0.0
H1436 H 0.71856 0.9324 0.09248 0.0
S1437 S 0.60987 0.90389 0.14412 0.0
N1438 N 0.62564 0.9331 0.15749 0.0
N1439 N 0.63181 0.89162 0.11868 0.0
C1440 C 0.65353 0.91142 0.12015 0.0
C1441 C 0.65019 0.93395 0.14131 0.0
C1442 C 0.08845 0.69404 0.1293 0.0
C1443 C 0.08688 0.66886 0.14647 0.0
C1444 C 0.11027 0.69791 0.10868 0.0
C1445 C 0.13161 0.67671 0.10391 0.0
H1446 H 0.07256 0.71114 0.13167 0.0
H1447 H 0.10997 0.71765 0.096 0.0
S1448 S 0.13814 0.60697 0.14357 0.0
N1449 N 0.10928 0.62255 0.15787 0.0
N1450 N 0.15029 0.62966 0.11871 0.0
C1451 C 0.13075 0.65151 0.12119 0.0
C1452 C 0.10847 0.64765 0.14255 0.0
C1453 C 0.95233 0.34948 0.12894 0.0
C1454 C 0.95394 0.37455 0.14624 0.0
C1455 C 0.93038 0.34573 0.10838 0.0
C1456 C 0.909 0.36696 0.10382 0.0
H1457 H 0.96822 0.33237 0.1312 0.0
H1458 H 0.9306 0.32607 0.09559 0.0
S1459 S 0.90265 0.4365 0.14377 0.0
N1460 N 0.93158 0.42084 0.15788 0.0
N1461 N 0.8904 0.41393 0.11886 0.0
C1462 C 0.90997 0.39208 0.12116 0.0
C1463 C 0.93236 0.39582 0.14243 0.0
C1464 C 0.63024 0.84414 0.59312 0.0
C1465 C 0.64578 0.87009 0.58913 0.0
C1466 C 0.61058 0.84073 0.6159 0.0
C1467 C 0.60522 0.86318 0.63578 0.0
H1468 H 0.63307 0.82614 0.57835 0.0
H1469 H 0.59897 0.8204 0.61741 0.0
S1470 S 0.64111 0.93521 0.63601 0.0
N1471 N 0.65533 0.91839 0.60783 0.0
N1472 N 0.61799 0.91214 0.65062 0.0
C1473 C 0.6211 0.88909 0.63261 0.0
C1474 C 0.64145 0.8925 0.60936 0.0
C1475 C 0.1971 0.61202 0.61534 0.0
C1476 C 0.17562 0.60727 0.6364 0.0
C1477 C 0.19333 0.6323 0.59317 0.0
C1478 C 0.16798 0.64914 0.591 0.0
H1479 H 0.21694 0.59949 0.61547 0.0
H1480 H 0.21059 0.63463 0.57746 0.0
S1481 S 0.10552 0.64645 0.64149 0.0
N1482 N 0.12825 0.62194 0.65429 0.0
N1483 N 0.12134 0.66049 0.61263 0.0
C1484 C 0.14657 0.64537 0.61238 0.0
C1485 C 0.15032 0.62435 0.635 0.0
C1486 C 0.40282 0.15243 0.6072 0.0
C1487 C 0.40067 0.17255 0.58431 0.0
C1488 C 0.42367 0.1557 0.62931 0.0
C1489 C 0.44296 0.17938 0.62964 0.0
H1490 H 0.38855 0.13386 0.60789 0.0
H1491 H 0.42472 0.13944 0.64622 0.0
S1492 S 0.44599 0.23864 0.57518 0.0
N1493 N 0.41964 0.21739 0.56386 0.0
N1494 N 0.45822 0.22345 0.60508 0.0
C1495 C 0.44074 0.19982 0.60709 0.0
C1496 C 0.4198 0.19641 0.58457 0.0
C1497 C 0.84591 0.40934 0.59223 0.0
C1498 C 0.87175 0.39333 0.58953 0.0
C1499 C 0.84194 0.42945 0.61452 0.0
C1500 C 0.8637 0.43486 0.63514 0.0
H1501 H 0.82846 0.40651 0.5768 0.0
H1502 H 0.82176 0.44141 0.61502 0.0
S1503 S 0.93504 0.39778 0.6389 0.0
N1504 N 0.9191 0.38332 0.61031 0.0
N1505 N 0.91182 0.42156 0.65215 0.0
C1506 C 0.88945 0.41851 0.63328 0.0
C1507 C 0.89341 0.39765 0.61056 0.0
C1508 C 0.61979 0.15478 0.40978 0.0
C1509 C 0.60358 0.1806 0.40744 0.0
C1510 C 0.64066 0.15099 0.43178 0.0
C1511 C 0.64588 0.17274 0.45252 0.0
H1512 H 0.61603 0.13713 0.39481 0.0
H1513 H 0.65222 0.13061 0.43297 0.0
S1514 S 0.611 0.24532 0.45476 0.0
N1515 N 0.59567 0.22892 0.42699 0.0
N1516 N 0.63436 0.22179 0.46805 0.0
C1517 C 0.63039 0.19894 0.44988 0.0
C1518 C 0.60943 0.20287 0.42746 0.0
C1519 C 0.84388 0.60905 0.42476 0.0
C1520 C 0.86599 0.6037 0.40452 0.0
C1521 C 0.84735 0.6293 0.44699 0.0
C1522 C 0.87303 0.64549 0.45007 0.0
H1523 H 0.82375 0.59704 0.42393 0.0
H1524 H 0.82958 0.63211 0.46204 0.0
S1525 S 0.93722 0.64106 0.4019 0.0
N1526 N 0.91435 0.61711 0.38834 0.0
N1527 N 0.92072 0.65559 0.43012 0.0
C1528 C 0.89511 0.64112 0.42948 0.0
C1529 C 0.89164 0.62015 0.40678 0.0
C1530 C 0.40151 0.8957 0.43293 0.0
C1531 C 0.39223 0.87172 0.4493 0.0
C1532 C 0.42205 0.89248 0.41054 0.0
C1533 C 0.43378 0.86512 0.4035 0.0
H1534 H 0.39376 0.9172 0.43819 0.0
H1535 H 0.42939 0.9117 0.39928 0.0
S1536 S 0.41317 0.79498 0.43723 0.0
N1537 N 0.39412 0.81941 0.45501 0.0
N1538 N 0.43209 0.8133 0.4131 0.0
C1539 C 0.42331 0.84084 0.41872 0.0
C1540 C 0.40273 0.84416 0.44155 0.0
C1541 C 0.15601 0.42521 0.41265 0.0
C1542 C 0.1817 0.4415 0.40971 0.0
C1543 C 0.15273 0.40453 0.43488 0.0
C1544 C 0.17489 0.39958 0.45526 0.0
H1545 H 0.13805 0.42877 0.39798 0.0
H1546 H 0.13244 0.39288 0.43652 0.0
S1547 S 0.24736 0.43476 0.45586 0.0
N1548 N 0.23035 0.44978 0.42827 0.0
N1549 N 0.22419 0.41143 0.46978 0.0
C1550 C 0.20098 0.41514 0.45201 0.0
C1551 C 0.20439 0.43592 0.42934 0.0
C1552 C 0.61348 0.61115 0.84439 0.0
C1553 C 0.63427 0.60599 0.86606 0.0
C1554 C 0.59155 0.63171 0.84804 0.0
C1555 C 0.58935 0.64842 0.87346 0.0
H1556 H 0.61364 0.59875 0.82448 0.0
H1557 H 0.57601 0.63433 0.83065 0.0
S1558 S 0.63917 0.64465 0.93645 0.0
N1559 N 0.65189 0.62015 0.9137 0.0
N1560 N 0.61067 0.65919 0.9204 0.0
C1561 C 0.61049 0.64427 0.89506 0.0
C1562 C 0.63288 0.62298 0.89142 0.0
C1563 C 0.4223 0.62961 0.88964 0.0
C1564 C 0.44093 0.63044 0.86545 0.0
C1565 C 0.40182 0.60721 0.89319 0.0
C1566 C 0.39942 0.58453 0.87289 0.0
H1567 H 0.42357 0.64633 0.90602 0.0
H1568 H 0.38801 0.60751 0.91214 0.0
S1569 S 0.44297 0.57675 0.80548 0.0
N1570 N 0.45526 0.60661 0.8207 0.0
N1571 N 0.41737 0.56486 0.82731 0.0
C1572 C 0.41789 0.58529 0.84853 0.0
C1573 C 0.43843 0.60811 0.84483 0.0
C1574 C 0.41192 0.41942 0.88813 0.0
C1575 C 0.40848 0.43586 0.86259 0.0
C1576 C 0.43451 0.39906 0.89104 0.0
C1577 C 0.45475 0.39464 0.86867 0.0
H1578 H 0.39741 0.42267 0.90625 0.0
H1579 H 0.43659 0.38733 0.91125 0.0
S1580 S 0.45409 0.43035 0.79647 0.0
N1581 N 0.42643 0.44478 0.81382 0.0
N1582 N 0.46859 0.40706 0.81934 0.0
C1583 C 0.45097 0.4103 0.84272 0.0
C1584 C 0.42795 0.43073 0.83967 0.0
C1585 C 0.60906 0.43047 0.84342 0.0
C1586 C 0.60514 0.409 0.86469 0.0
C1587 C 0.62914 0.45287 0.84702 0.0
C1588 C 0.64659 0.45489 0.87197 0.0
H1589 H 0.5961 0.43043 0.82386 0.0
H1590 H 0.63087 0.46884 0.82991 0.0
S1591 S 0.64591 0.40356 0.93385 0.0
N1592 N 0.62108 0.39073 0.91151 0.0
N1593 N 0.65922 0.4328 0.91809 0.0
C1594 C 0.64354 0.43319 0.8932 0.0
C1595 C 0.62273 0.41034 0.88964 0.0
C1596 C 0.60677 0.4021 0.14929 0.0
C1597 C 0.58493 0.39864 0.1703 0.0
C1598 C 0.62886 0.42295 0.15266 0.0
C1599 C 0.6302 0.4409 0.17736 0.0
H1600 H 0.60652 0.38901 0.12983 0.0
H1601 H 0.64486 0.42515 0.13566 0.0
S1602 S 0.57922 0.43927 0.23964 0.0
N1603 N 0.56692 0.41426 0.21734 0.0
N1604 N 0.60807 0.4529 0.22365 0.0
C1605 C 0.60886 0.43709 0.19882 0.0
C1606 C 0.58636 0.41615 0.1953 0.0
C1607 C 0.64121 0.60831 0.14539 0.0
C1608 C 0.64955 0.59103 0.16909 0.0
C1609 C 0.62087 0.63088 0.1487 0.0
C1610 C 0.6084 0.63724 0.17589 0.0
H1611 H 0.6496 0.60367 0.12399 0.0
H1612 H 0.6143 0.64289 0.12965 0.0
S1613 S 0.62627 0.60081 0.24545 0.0
N1614 N 0.64588 0.58359 0.22107 0.0
N1615 N 0.60827 0.62583 0.22737 0.0
C1616 C 0.61787 0.62103 0.19995 0.0
C1617 C 0.63824 0.598 0.19653 0.0
C1618 C 0.43803 0.63897 0.14961 0.0
C1619 C 0.45892 0.64408 0.17128 0.0
C1620 C 0.41557 0.6187 0.15368 0.0
C1621 C 0.41288 0.60292 0.1797 0.0
H1622 H 0.43924 0.65041 0.12916 0.0
H1623 H 0.40038 0.61521 0.13616 0.0
S1624 S 0.46087 0.60954 0.24405 0.0
N1625 N 0.47458 0.63239 0.22027 0.0
N1626 N 0.43263 0.59479 0.22791 0.0
C1627 C 0.43327 0.60834 0.20176 0.0
C1628 C 0.45618 0.62873 0.19756 0.0
C1629 C 0.42951 0.42852 0.19752 0.0
C1630 C 0.43434 0.40856 0.17501 0.0
C1631 C 0.40936 0.45094 0.19474 0.0
C1632 C 0.39276 0.45452 0.1694 0.0
H1633 H 0.4419 0.42735 0.21741 0.0
H1634 H 0.40704 0.46581 0.21273 0.0
S1635 S 0.39552 0.40714 0.10454 0.0
N1636 N 0.41981 0.39308 0.12675 0.0
N1637 N 0.38154 0.43526 0.12169 0.0
C1638 C 0.39648 0.43416 0.147 0.0
C1639 C 0.41735 0.41125 0.14975 0.0
C1640 C 0.88913 0.60554 0.6365 0.0
C1641 C 0.86774 0.58405 0.64003 0.0
C1642 C 0.88596 0.62786 0.61589 0.0
C1643 C 0.86111 0.6298 0.59819 0.0
H1644 H 0.90868 0.60493 0.64947 0.0
H1645 H 0.90322 0.64357 0.61368 0.0
S1646 S 0.79806 0.57974 0.59969 0.0
N1647 N 0.82033 0.56686 0.62446 0.0
N1648 N 0.8144 0.6085 0.58626 0.0
C1649 C 0.83935 0.60876 0.60194 0.0
C1650 C 0.84264 0.586 0.62266 0.0
C1651 C 0.89099 0.43272 0.40092 0.0
C1652 C 0.86923 0.45359 0.3962 0.0
C1653 C 0.88772 0.41091 0.42207 0.0
C1654 C 0.86243 0.4089 0.43909 0.0
H1655 H 0.91096 0.4336 0.38866 0.0
H1656 H 0.90533 0.39575 0.42532 0.0
S1657 S 0.798 0.45694 0.43368 0.0
N1658 N 0.8208 0.46976 0.40938 0.0
N1659 N 0.81467 0.4291 0.44861 0.0
C1660 C 0.84019 0.42914 0.4339 0.0
C1661 C 0.84359 0.45136 0.41264 0.0
C1662 C 0.60517 0.88941 0.40285 0.0
C1663 C 0.58359 0.8683 0.39837 0.0
C1664 C 0.6272 0.88547 0.4236 0.0
C1665 C 0.62878 0.86007 0.44052 0.0
H1666 H 0.60487 0.90938 0.39049 0.0
H1667 H 0.64299 0.90255 0.4265 0.0
S1668 S 0.57837 0.79742 0.43636 0.0
N1669 N 0.56588 0.82056 0.41218 0.0
N1670 N 0.60707 0.81313 0.45069 0.0
C1671 C 0.60765 0.83857 0.43585 0.0
C1672 C 0.58514 0.84267 0.41496 0.0
C1673 C 0.19571 0.6146 0.43618 0.0
C1674 C 0.17387 0.63531 0.44081 0.0
C1675 C 0.19249 0.59247 0.41577 0.0
C1676 C 0.16733 0.58994 0.39868 0.0
H1677 H 0.2155 0.61506 0.44879 0.0
H1678 H 0.21011 0.57715 0.41348 0.0
S1679 S 0.10381 0.63919 0.40137 0.0
N1680 N 0.12618 0.65231 0.42603 0.0
N1681 N 0.12026 0.61072 0.38728 0.0
C1682 C 0.14543 0.61084 0.40252 0.0
C1683 C 0.14864 0.63346 0.42364 0.0
C1684 C 0.45107 0.195 0.41112 0.0
C1685 C 0.4539 0.16956 0.39454 0.0
C1686 C 0.42855 0.19855 0.43103 0.0
C1687 C 0.40779 0.17674 0.43563 0.0
H1688 H 0.46649 0.21254 0.40883 0.0
H1689 H 0.4279 0.21849 0.44337 0.0
S1690 S 0.40452 0.10617 0.39713 0.0
N1691 N 0.43327 0.1224 0.38335 0.0
N1692 N 0.39097 0.1289 0.42121 0.0
C1693 C 0.40989 0.1513 0.41885 0.0
C1694 C 0.43286 0.14778 0.39822 0.0
C1695 C 0.15265 0.43558 0.64225 0.0
C1696 C 0.17431 0.45656 0.64684 0.0
C1697 C 0.15621 0.41344 0.62152 0.0
C1698 C 0.18174 0.41118 0.60488 0.0
H1699 H 0.13251 0.43667 0.65422 0.0
H1700 H 0.13865 0.39824 0.61826 0.0
S1701 S 0.24607 0.45932 0.61039 0.0
N1702 N 0.22292 0.47254 0.63413 0.0
N1703 N 0.22964 0.43122 0.59571 0.0
C1704 C 0.20392 0.43149 0.61005 0.0
C1705 C 0.2002 0.45406 0.63085 0.0
C1706 C 0.61646 0.19651 0.60911 0.0
C1707 C 0.63646 0.17425 0.60345 0.0
C1708 C 0.59441 0.19315 0.62956 0.0
C1709 C 0.59128 0.16742 0.64567 0.0
H1710 H 0.61733 0.2167 0.59718 0.0
H1711 H 0.57953 0.21103 0.63259 0.0
S1712 S 0.63884 0.10282 0.64047 0.0
N1713 N 0.65237 0.12568 0.61649 0.0
N1714 N 0.61092 0.11951 0.65536 0.0
C1715 C 0.61164 0.14519 0.64102 0.0
C1716 C 0.63415 0.14854 0.61983 0.0
C1717 C 0.43443 0.88919 0.63884 0.0
C1718 C 0.45744 0.8692 0.64079 0.0
C1719 C 0.41238 0.88609 0.61791 0.0
C1720 C 0.41225 0.86268 0.59829 0.0
H1721 H 0.43349 0.90751 0.65347 0.0
H1722 H 0.3953 0.90213 0.61715 0.0
S1723 S 0.46747 0.80424 0.59404 0.0
N1724 N 0.4785 0.82505 0.62086 0.0
N1725 N 0.43737 0.81929 0.58213 0.0
C1726 C 0.43504 0.8425 0.60012 0.0
C1727 C 0.45751 0.84573 0.62115 0.0
loop_
_geom_bond_atom_site_label_1
_geom_bond_atom_site_label_2
_geom_bond_distance
_geom_bond_site_symmetry_2
_ccdc_geom_bond_type
O0 Cd1 2.223 . S
O0 C8 1.315 . S
Cd1 O0 2.223 . S
Cd1 O4 2.297 . S
Cd1 O5 2.439 . S
Cd1 O11 2.240 . S
Cd2 O3 2.240 . S
Cd2 O10 2.223 . S
Cd2 O12 2.297 . S
Cd2 O13 2.439 . S
O3 Cd2 2.240 . S
O3 C8 1.279 . S
O4 Cd1 2.297 . S
O4 C6 1.247 . S
O5 Cd1 2.439 . S
O5 C6 1.208 . S
C6 O4 1.247 . S
C6 O5 1.208 . S
C7 O12 1.247 . S
C7 O13 1.208 . S
C8 O0 1.315 . S
C8 O3 1.279 . S
C9 O10 1.315 . S
C9 O11 1.279 . S
O10 Cd2 2.223 . S
O10 C9 1.315 . S
O11 Cd1 2.240 . S
O11 C9 1.279 . S
O12 Cd2 2.297 . S
O12 C7 1.247 . S
O13 Cd2 2.439 . S
O13 C7 1.208 . S
O14 Cd15 2.223 . S
O14 C22 1.315 . S
Cd15 O14 2.223 . S
Cd15 O18 2.297 . S
Cd15 O19 2.439 . S
Cd15 O25 2.240 . S
Cd16 O17 2.240 . S
Cd16 O24 2.223 . S
Cd16 O26 2.297 . S
Cd16 O27 2.439 . S
O17 Cd16 2.240 . S
O17 C22 1.279 . S
O18 Cd15 2.297 . S
O18 C20 1.247 . S
O19 Cd15 2.439 . S
O19 C20 1.208 . S
C20 O18 1.247 . S
C20 O19 1.208 . S
C21 O26 1.247 . S
C21 O27 1.208 . S
C22 O14 1.315 . S
C22 O17 1.279 . S
C23 O24 1.315 . S
C23 O25 1.279 . S
O24 Cd16 2.223 . S
O24 C23 1.315 . S
O25 Cd15 2.240 . S
O25 C23 1.279 . S
O26 Cd16 2.297 . S
O26 C21 1.247 . S
O27 Cd16 2.439 . S
O27 C21 1.208 . S
O28 Cd29 2.223 . S
O28 C36 1.315 . S
Cd29 O28 2.223 . S
Cd29 O32 2.297 . S
Cd29 O33 2.439 . S
Cd29 O39 2.240 . S
Cd30 O31 2.240 . S
Cd30 O38 2.223 . S
Cd30 O40 2.297 . S
Cd30 O41 2.439 . S
O31 Cd30 2.240 . S
O31 C36 1.279 . S
O32 Cd29 2.297 . S
O32 C34 1.247 . S
O33 Cd29 2.439 . S
O33 C34 1.208 . S
C34 O32 1.247 . S
C34 O33 1.208 . S
C35 O40 1.247 . S
C35 O41 1.208 . S
C36 O28 1.315 . S
C36 O31 1.279 . S
C37 O38 1.315 . S
C37 O39 1.279 . S
O38 Cd30 2.223 . S
O38 C37 1.315 . S
O39 Cd29 2.240 . S
O39 C37 1.279 . S
O40 Cd30 2.297 . S
O40 C35 1.247 . S
O41 Cd30 2.439 . S
O41 C35 1.208 . S
O42 Cd43 2.223 . S
O42 C50 1.315 . S
Cd43 O42 2.223 . S
Cd43 O46 2.297 . S
Cd43 O47 2.439 . S
Cd43 O53 2.240 . S
Cd44 O45 2.240 . S
Cd44 O52 2.223 . S
Cd44 O54 2.297 . S
Cd44 O55 2.439 . S
O45 Cd44 2.240 . S
O45 C50 1.279 . S
O46 Cd43 2.297 . S
O46 C48 1.247 . S
O47 Cd43 2.439 . S
O47 C48 1.208 . S
C48 O46 1.247 . S
C48 O47 1.208 . S
C49 O54 1.247 . S
C49 O55 1.208 . S
C50 O42 1.315 . S
C50 O45 1.279 . S
C51 O52 1.315 . S
C51 O53 1.279 . S
O52 Cd44 2.223 . S
O52 C51 1.315 . S
O53 Cd43 2.240 . S
O53 C51 1.279 . S
O54 Cd44 2.297 . S
O54 C49 1.247 . S
O55 Cd44 2.439 . S
O55 C49 1.208 . S
O56 Cd57 2.223 . S
O56 C64 1.315 . S
Cd57 O56 2.223 . S
Cd57 O60 2.297 . S
Cd57 O61 2.439 . S
Cd57 O67 2.240 . S
Cd58 O59 2.240 . S
Cd58 O66 2.223 . S
Cd58 O68 2.297 . S
Cd58 O69 2.439 . S
O59 Cd58 2.240 . S
O59 C64 1.279 . S
O60 Cd57 2.297 . S
O60 C62 1.247 . S
O61 Cd57 2.439 . S
O61 C62 1.208 . S
C62 O60 1.247 . S
C62 O61 1.208 . S
C63 O68 1.247 . S
C63 O69 1.208 . S
C64 O56 1.315 . S
C64 O59 1.279 . S
C65 O66 1.315 . S
C65 O67 1.279 . S
O66 Cd58 2.223 . S
O66 C65 1.315 . S
O67 Cd57 2.240 . S
O67 C65 1.279 . S
O68 Cd58 2.297 . S
O68 C63 1.247 . S
O69 Cd58 2.439 . S
O69 C63 1.208 . S
O70 Cd71 2.223 . S
O70 C78 1.315 . S
Cd71 O70 2.223 . S
Cd71 O74 2.297 . S
Cd71 O75 2.439 . S
Cd71 O81 2.240 . S
Cd72 O73 2.240 . S
Cd72 O80 2.223 . S
Cd72 O82 2.297 . S
Cd72 O83 2.439 . S
O73 Cd72 2.240 . S
O73 C78 1.279 . S
O74 Cd71 2.297 . S
O74 C76 1.247 . S
O75 Cd71 2.439 . S
O75 C76 1.208 . S
C76 O74 1.247 . S
C76 O75 1.208 . S
C77 O82 1.247 . S
C77 O83 1.208 . S
C78 O70 1.315 . S
C78 O73 1.279 . S
C79 O80 1.315 . S
C79 O81 1.279 . S
O80 Cd72 2.223 . S
O80 C79 1.315 . S
O81 Cd71 2.240 . S
O81 C79 1.279 . S
O82 Cd72 2.297 . S
O82 C77 1.247 . S
O83 Cd72 2.439 . S
O83 C77 1.208 . S
O84 Cd85 2.223 . S
O84 C92 1.315 . S
Cd85 O84 2.223 . S
Cd85 O88 2.297 . S
Cd85 O89 2.439 . S
Cd85 O95 2.240 . S
Cd86 O87 2.240 . S
Cd86 O94 2.223 . S
Cd86 O96 2.297 . S
Cd86 O97 2.439 . S
O87 Cd86 2.240 . S
O87 C92 1.279 . S
O88 Cd85 2.297 . S
O88 C90 1.247 . S
O89 Cd85 2.439 . S
O89 C90 1.208 . S
C90 O88 1.247 . S
C90 O89 1.208 . S
C91 O96 1.247 . S
C91 O97 1.208 . S
C92 O84 1.315 . S
C92 O87 1.279 . S
C93 O94 1.315 . S
C93 O95 1.279 . S
O94 Cd86 2.223 . S
O94 C93 1.315 . S
O95 Cd85 2.240 . S
O95 C93 1.279 . S
O96 Cd86 2.297 . S
O96 C91 1.247 . S
O97 Cd86 2.439 . S
O97 C91 1.208 . S
O98 Cd99 2.223 . S
O98 C106 1.315 . S
Cd99 O98 2.223 . S
Cd99 O102 2.297 . S
Cd99 O103 2.439 . S
Cd99 O109 2.240 . S
Cd100 O101 2.240 . S
Cd100 O108 2.223 . S
Cd100 O110 2.297 . S
Cd100 O111 2.439 . S
O101 Cd100 2.240 . S
O101 C106 1.279 . S
O102 Cd99 2.297 . S
O102 C104 1.247 . S
O103 Cd99 2.439 . S
O103 C104 1.208 . S
C104 O102 1.247 . S
C104 O103 1.208 . S
C105 O110 1.247 . S
C105 O111 1.208 . S
C106 O98 1.315 . S
C106 O101 1.279 . S
C107 O108 1.315 . S
C107 O109 1.279 . S
O108 Cd100 2.223 . S
O108 C107 1.315 . S
O109 Cd99 2.240 . S
O109 C107 1.279 . S
O110 Cd100 2.297 . S
O110 C105 1.247 . S
O111 Cd100 2.439 . S
O111 C105 1.208 . S
O112 Cd113 2.223 . S
O112 C120 1.315 . S
Cd113 O112 2.223 . S
Cd113 O116 2.297 . S
Cd113 O117 2.439 . S
Cd113 O123 2.240 . S
Cd114 O115 2.240 . S
Cd114 O122 2.223 . S
Cd114 O124 2.297 . S
Cd114 O125 2.439 . S
O115 Cd114 2.240 . S
O115 C120 1.279 . S
O116 Cd113 2.297 . S
O116 C118 1.247 . S
O117 Cd113 2.439 . S
O117 C118 1.208 . S
C118 O116 1.247 . S
C118 O117 1.208 . S
C119 O124 1.247 . S
C119 O125 1.208 . S
C120 O112 1.315 . S
C120 O115 1.279 . S
C121 O122 1.315 . S
C121 O123 1.279 . S
O122 Cd114 2.223 . S
O122 C121 1.315 . S
O123 Cd113 2.240 . S
O123 C121 1.279 . S
O124 Cd114 2.297 . S
O124 C119 1.247 . S
O125 Cd114 2.439 . S
O125 C119 1.208 . S
O126 Cd127 2.223 . S
O126 C134 1.315 . S
Cd127 O126 2.223 . S
Cd127 O130 2.297 . S
Cd127 O131 2.439 . S
Cd127 O137 2.240 . S
Cd128 O129 2.240 . S
Cd128 O136 2.223 . S
Cd128 O138 2.297 . S
Cd128 O139 2.439 . S
O129 Cd128 2.240 . S
O129 C134 1.279 . S
O130 Cd127 2.297 . S
O130 C132 1.247 . S
O131 Cd127 2.439 . S
O131 C132 1.208 . S
C132 O130 1.247 . S
C132 O131 1.208 . S
C133 O138 1.247 . S
C133 O139 1.208 . S
C134 O126 1.315 . S
C134 O129 1.279 . S
C135 O136 1.315 . S
C135 O137 1.279 . S
O136 Cd128 2.223 . S
O136 C135 1.315 . S
O137 Cd127 2.240 . S
O137 C135 1.279 . S
O138 Cd128 2.297 . S
O138 C133 1.247 . S
O139 Cd128 2.439 . S
O139 C133 1.208 . S
O140 Cd141 2.223 . S
O140 C148 1.315 . S
Cd141 O140 2.223 . S
Cd141 O144 2.297 . S
Cd141 O145 2.439 . S
Cd141 O151 2.240 . S
Cd142 O143 2.240 . S
Cd142 O150 2.223 . S
Cd142 O152 2.297 . S
Cd142 O153 2.439 . S
O143 Cd142 2.240 . S
O143 C148 1.279 . S
O144 Cd141 2.297 . S
O144 C146 1.247 . S
O145 Cd141 2.439 . S
O145 C146 1.208 . S
C146 O144 1.247 . S
C146 O145 1.208 . S
C147 O152 1.247 . S
C147 O153 1.208 . S
C148 O140 1.315 . S
C148 O143 1.279 . S
C149 O150 1.315 . S
C149 O151 1.279 . S
O150 Cd142 2.223 . S
O150 C149 1.315 . S
O151 Cd141 2.240 . S
O151 C149 1.279 . S
O152 Cd142 2.297 . S
O152 C147 1.247 . S
O153 Cd142 2.439 . S
O153 C147 1.208 . S
O154 Cd155 2.223 . S
O154 C162 1.315 . S
Cd155 O154 2.223 . S
Cd155 O158 2.297 . S
Cd155 O159 2.439 . S
Cd155 O165 2.240 . S
Cd156 O157 2.240 . S
Cd156 O164 2.223 . S
Cd156 O166 2.297 . S
Cd156 O167 2.439 . S
O157 Cd156 2.240 . S
O157 C162 1.279 . S
O158 Cd155 2.297 . S
O158 C160 1.247 . S
O159 Cd155 2.439 . S
O159 C160 1.208 . S
C160 O158 1.247 . S
C160 O159 1.208 . S
C161 O166 1.247 . S
C161 O167 1.208 . S
C162 O154 1.315 . S
C162 O157 1.279 . S
C163 O164 1.315 . S
C163 O165 1.279 . S
O164 Cd156 2.223 . S
O164 C163 1.315 . S
O165 Cd155 2.240 . S
O165 C163 1.279 . S
O166 Cd156 2.297 . S
O166 C161 1.247 . S
O167 Cd156 2.439 . S
O167 C161 1.208 . S
O168 Cd169 2.223 . S
O168 C176 1.315 . S
Cd169 O168 2.223 . S
Cd169 O172 2.297 . S
Cd169 O173 2.439 . S
Cd169 O179 2.240 . S
Cd170 O171 2.240 . S
Cd170 O178 2.223 . S
Cd170 O180 2.297 . S
Cd170 O181 2.439 . S
O171 Cd170 2.240 . S
O171 C176 1.279 . S
O172 Cd169 2.297 . S
O172 C174 1.247 . S
O173 Cd169 2.439 . S
O173 C174 1.208 . S
C174 O172 1.247 . S
C174 O173 1.208 . S
C175 O180 1.247 . S
C175 O181 1.208 . S
C176 O168 1.315 . S
C176 O171 1.279 . S
C177 O178 1.315 . S
C177 O179 1.279 . S
O178 Cd170 2.223 . S
O178 C177 1.315 . S
O179 Cd169 2.240 . S
O179 C177 1.279 . S
O180 Cd170 2.297 . S
O180 C175 1.247 . S
O181 Cd170 2.439 . S
O181 C175 1.208 . S
O182 Cd183 2.223 . S
O182 C190 1.315 . S
Cd183 O182 2.223 . S
Cd183 O186 2.297 . S
Cd183 O187 2.439 . S
Cd183 O193 2.240 . S
Cd184 O185 2.240 . S
Cd184 O192 2.223 . S
Cd184 O194 2.297 . S
Cd184 O195 2.439 . S
O185 Cd184 2.240 . S
O185 C190 1.279 . S
O186 Cd183 2.297 . S
O186 C188 1.247 . S
O187 Cd183 2.439 . S
O187 C188 1.208 . S
C188 O186 1.247 . S
C188 O187 1.208 . S
C189 O194 1.247 . S
C189 O195 1.208 . S
C190 O182 1.315 . S
C190 O185 1.279 . S
C191 O192 1.315 . S
C191 O193 1.279 . S
O192 Cd184 2.223 . S
O192 C191 1.315 . S
O193 Cd183 2.240 . S
O193 C191 1.279 . S
O194 Cd184 2.297 . S
O194 C189 1.247 . S
O195 Cd184 2.439 . S
O195 C189 1.208 . S
O196 Cd197 2.223 . S
O196 C204 1.315 . S
Cd197 O196 2.223 . S
Cd197 O200 2.297 . S
Cd197 O201 2.439 . S
Cd197 O207 2.240 . S
Cd198 O199 2.240 . S
Cd198 O206 2.223 . S
Cd198 O208 2.297 . S
Cd198 O209 2.439 . S
O199 Cd198 2.240 . S
O199 C204 1.279 . S
O200 Cd197 2.297 . S
O200 C202 1.247 . S
O201 Cd197 2.439 . S
O201 C202 1.208 . S
C202 O200 1.247 . S
C202 O201 1.208 . S
C203 O208 1.247 . S
C203 O209 1.208 . S
C204 O196 1.315 . S
C204 O199 1.279 . S
C205 O206 1.315 . S
C205 O207 1.279 . S
O206 Cd198 2.223 . S
O206 C205 1.315 . S
O207 Cd197 2.240 . S
O207 C205 1.279 . S
O208 Cd198 2.297 . S
O208 C203 1.247 . S
O209 Cd198 2.439 . S
O209 C203 1.208 . S
O210 Cd211 2.223 . S
O210 C218 1.315 . S
Cd211 O210 2.223 . S
Cd211 O214 2.297 . S
Cd211 O215 2.439 . S
Cd211 O221 2.240 . S
Cd212 O213 2.240 . S
Cd212 O220 2.223 . S
Cd212 O222 2.297 . S
Cd212 O223 2.439 . S
O213 Cd212 2.240 . S
O213 C218 1.279 . S
O214 Cd211 2.297 . S
O214 C216 1.247 . S
O215 Cd211 2.439 . S
O215 C216 1.208 . S
C216 O214 1.247 . S
C216 O215 1.208 . S
C217 O222 1.247 . S
C217 O223 1.208 . S
C218 O210 1.315 . S
C218 O213 1.279 . S
C219 O220 1.315 . S
C219 O221 1.279 . S
O220 Cd212 2.223 . S
O220 C219 1.315 . S
O221 Cd211 2.240 . S
O221 C219 1.279 . S
O222 Cd212 2.297 . S
O222 C217 1.247 . S
O223 Cd212 2.439 . S
O223 C217 1.208 . S
O224 Cd225 2.223 . S
O224 C232 1.315 . S
Cd225 O224 2.223 . S
Cd225 O228 2.297 . S
Cd225 O229 2.439 . S
Cd225 O235 2.240 . S
Cd226 O227 2.240 . S
Cd226 O234 2.223 . S
Cd226 O236 2.297 . S
Cd226 O237 2.439 . S
O227 Cd226 2.240 . S
O227 C232 1.279 . S
O228 Cd225 2.297 . S
O228 C230 1.247 . S
O229 Cd225 2.439 . S
O229 C230 1.208 . S
C230 O228 1.247 . S
C230 O229 1.208 . S
C231 O236 1.247 . S
C231 O237 1.208 . S
C232 O224 1.315 . S
C232 O227 1.279 . S
C233 O234 1.315 . S
C233 O235 1.279 . S
O234 Cd226 2.223 . S
O234 C233 1.315 . S
O235 Cd225 2.240 . S
O235 C233 1.279 . S
O236 Cd226 2.297 . S
O236 C231 1.247 . S
O237 Cd226 2.439 . S
O237 C231 1.208 . S
O238 Cd239 2.223 . S
O238 C246 1.315 . S
Cd239 O238 2.223 . S
Cd239 O242 2.297 . S
Cd239 O243 2.439 . S
Cd239 O249 2.240 . S
Cd240 O241 2.240 . S
Cd240 O248 2.223 . S
Cd240 O250 2.297 . S
Cd240 O251 2.439 . S
O241 Cd240 2.240 . S
O241 C246 1.279 . S
O242 Cd239 2.297 . S
O242 C244 1.247 . S
O243 Cd239 2.439 . S
O243 C244 1.208 . S
C244 O242 1.247 . S
C244 O243 1.208 . S
C245 O250 1.247 . S
C245 O251 1.208 . S
C246 O238 1.315 . S
C246 O241 1.279 . S
C247 O248 1.315 . S
C247 O249 1.279 . S
O248 Cd240 2.223 . S
O248 C247 1.315 . S
O249 Cd239 2.240 . S
O249 C247 1.279 . S
O250 Cd240 2.297 . S
O250 C245 1.247 . S
O251 Cd240 2.439 . S
O251 C245 1.208 . S
O252 Cd253 2.223 . S
O252 C260 1.315 . S
Cd253 O252 2.223 . S
Cd253 O256 2.297 . S
Cd253 O257 2.439 . S
Cd253 O263 2.240 . S
Cd254 O255 2.240 . S
Cd254 O262 2.223 . S
Cd254 O264 2.297 . S
Cd254 O265 2.439 . S
O255 Cd254 2.240 . S
O255 C260 1.279 . S
O256 Cd253 2.297 . S
O256 C258 1.247 . S
O257 Cd253 2.439 . S
O257 C258 1.208 . S
C258 O256 1.247 . S
C258 O257 1.208 . S
C259 O264 1.247 . S
C259 O265 1.208 . S
C260 O252 1.315 . S
C260 O255 1.279 . S
C261 O262 1.315 . S
C261 O263 1.279 . S
O262 Cd254 2.223 . S
O262 C261 1.315 . S
O263 Cd253 2.240 . S
O263 C261 1.279 . S
O264 Cd254 2.297 . S
O264 C259 1.247 . S
O265 Cd254 2.439 . S
O265 C259 1.208 . S
O266 Cd267 2.223 . S
O266 C274 1.315 . S
Cd267 O266 2.223 . S
Cd267 O270 2.297 . S
Cd267 O271 2.439 . S
Cd267 O277 2.240 . S
Cd268 O269 2.240 . S
Cd268 O276 2.223 . S
Cd268 O278 2.297 . S
Cd268 O279 2.439 . S
O269 Cd268 2.240 . S
O269 C274 1.279 . S
O270 Cd267 2.297 . S
O270 C272 1.247 . S
O271 Cd267 2.439 . S
O271 C272 1.208 . S
C272 O270 1.247 . S
C272 O271 1.208 . S
C273 O278 1.247 . S
C273 O279 1.208 . S
C274 O266 1.315 . S
C274 O269 1.279 . S
C275 O276 1.315 . S
C275 O277 1.279 . S
O276 Cd268 2.223 . S
O276 C275 1.315 . S
O277 Cd267 2.240 . S
O277 C275 1.279 . S
O278 Cd268 2.297 . S
O278 C273 1.247 . S
O279 Cd268 2.439 . S
O279 C273 1.208 . S
O280 Cd281 2.223 . S
O280 C288 1.315 . S
Cd281 O280 2.223 . S
Cd281 O284 2.297 . S
Cd281 O285 2.439 . S
Cd281 O291 2.240 . S
Cd282 O283 2.240 . S
Cd282 O290 2.223 . S
Cd282 O292 2.297 . S
Cd282 O293 2.439 . S
O283 Cd282 2.240 . S
O283 C288 1.279 . S
O284 Cd281 2.297 . S
O284 C286 1.247 . S
O285 Cd281 2.439 . S
O285 C286 1.208 . S
C286 O284 1.247 . S
C286 O285 1.208 . S
C287 O292 1.247 . S
C287 O293 1.208 . S
C288 O280 1.315 . S
C288 O283 1.279 . S
C289 O290 1.315 . S
C289 O291 1.279 . S
O290 Cd282 2.223 . S
O290 C289 1.315 . S
O291 Cd281 2.240 . S
O291 C289 1.279 . S
O292 Cd282 2.297 . S
O292 C287 1.247 . S
O293 Cd282 2.439 . S
O293 C287 1.208 . S
O294 Cd295 2.223 . S
O294 C302 1.315 . S
Cd295 O294 2.223 . S
Cd295 O298 2.297 . S
Cd295 O299 2.439 . S
Cd295 O305 2.240 . S
Cd296 O297 2.240 . S
Cd296 O304 2.223 . S
Cd296 O306 2.297 . S
Cd296 O307 2.439 . S
O297 Cd296 2.240 . S
O297 C302 1.279 . S
O298 Cd295 2.297 . S
O298 C300 1.247 . S
O299 Cd295 2.439 . S
O299 C300 1.208 . S
C300 O298 1.247 . S
C300 O299 1.208 . S
C301 O306 1.247 . S
C301 O307 1.208 . S
C302 O294 1.315 . S
C302 O297 1.279 . S
C303 O304 1.315 . S
C303 O305 1.279 . S
O304 Cd296 2.223 . S
O304 C303 1.315 . S
O305 Cd295 2.240 . S
O305 C303 1.279 . S
O306 Cd296 2.297 . S
O306 C301 1.247 . S
O307 Cd296 2.439 . S
O307 C301 1.208 . S
O308 Cd309 2.223 . S
O308 C316 1.315 . S
Cd309 O308 2.223 . S
Cd309 O312 2.297 . S
Cd309 O313 2.439 . S
Cd309 O319 2.240 . S
Cd310 O311 2.240 . S
Cd310 O318 2.223 . S
Cd310 O320 2.297 . S
Cd310 O321 2.439 . S
O311 Cd310 2.240 . S
O311 C316 1.279 . S
O312 Cd309 2.297 . S
O312 C314 1.247 . S
O313 Cd309 2.439 . S
O313 C314 1.208 . S
C314 O312 1.247 . S
C314 O313 1.208 . S
C315 O320 1.247 . S
C315 O321 1.208 . S
C316 O308 1.315 . S
C316 O311 1.279 . S
C317 O318 1.315 . S
C317 O319 1.279 . S
O318 Cd310 2.223 . S
O318 C317 1.315 . S
O319 Cd309 2.240 . S
O319 C317 1.279 . S
O320 Cd310 2.297 . S
O320 C315 1.247 . S
O321 Cd310 2.439 . S
O321 C315 1.208 . S
O322 Cd323 2.223 . S
O322 C330 1.315 . S
Cd323 O322 2.223 . S
Cd323 O326 2.297 . S
Cd323 O327 2.439 . S
Cd323 O333 2.240 . S
Cd324 O325 2.240 . S
Cd324 O332 2.223 . S
Cd324 O334 2.297 . S
Cd324 O335 2.439 . S
O325 Cd324 2.240 . S
O325 C330 1.279 . S
O326 Cd323 2.297 . S
O326 C328 1.247 . S
O327 Cd323 2.439 . S
O327 C328 1.208 . S
C328 O326 1.247 . S
C328 O327 1.208 . S
C329 O334 1.247 . S
C329 O335 1.208 . S
C330 O322 1.315 . S
C330 O325 1.279 . S
C331 O332 1.315 . S
C331 O333 1.279 . S
O332 Cd324 2.223 . S
O332 C331 1.315 . S
O333 Cd323 2.240 . S
O333 C331 1.279 . S
O334 Cd324 2.297 . S
O334 C329 1.247 . S
O335 Cd324 2.439 . S
O335 C329 1.208 . S
O336 Cd337 2.223 . S
O336 C344 1.315 . S
Cd337 O336 2.223 . S
Cd337 O340 2.297 . S
Cd337 O341 2.439 . S
Cd337 O347 2.240 . S
Cd338 O339 2.240 . S
Cd338 O346 2.223 . S
Cd338 O348 2.297 . S
Cd338 O349 2.439 . S
O339 Cd338 2.240 . S
O339 C344 1.279 . S
O340 Cd337 2.297 . S
O340 C342 1.247 . S
O341 Cd337 2.439 . S
O341 C342 1.208 . S
C342 O340 1.247 . S
C342 O341 1.208 . S
C343 O348 1.247 . S
C343 O349 1.208 . S
C344 O336 1.315 . S
C344 O339 1.279 . S
C345 O346 1.315 . S
C345 O347 1.279 . S
O346 Cd338 2.223 . S
O346 C345 1.315 . S
O347 Cd337 2.240 . S
O347 C345 1.279 . S
O348 Cd338 2.297 . S
O348 C343 1.247 . S
O349 Cd338 2.439 . S
O349 C343 1.208 . S
O350 Cd351 2.223 . S
O350 C358 1.315 . S
Cd351 O350 2.223 . S
Cd351 O354 2.297 . S
Cd351 O355 2.439 . S
Cd351 O361 2.240 . S
Cd352 O353 2.240 . S
Cd352 O360 2.223 . S
Cd352 O362 2.297 . S
Cd352 O363 2.439 . S
O353 Cd352 2.240 . S
O353 C358 1.279 . S
O354 Cd351 2.297 . S
O354 C356 1.247 . S
O355 Cd351 2.439 . S
O355 C356 1.208 . S
C356 O354 1.247 . S
C356 O355 1.208 . S
C357 O362 1.247 . S
C357 O363 1.208 . S
C358 O350 1.315 . S
C358 O353 1.279 . S
C359 O360 1.315 . S
C359 O361 1.279 . S
O360 Cd352 2.223 . S
O360 C359 1.315 . S
O361 Cd351 2.240 . S
O361 C359 1.279 . S
O362 Cd352 2.297 . S
O362 C357 1.247 . S
O363 Cd352 2.439 . S
O363 C357 1.208 . S
O364 Cd365 2.223 . S
O364 C372 1.315 . S
Cd365 O364 2.223 . S
Cd365 O368 2.297 . S
Cd365 O369 2.439 . S
Cd365 O375 2.240 . S
Cd366 O367 2.240 . S
Cd366 O374 2.223 . S
Cd366 O376 2.297 . S
Cd366 O377 2.439 . S
O367 Cd366 2.240 . S
O367 C372 1.279 . S
O368 Cd365 2.297 . S
O368 C370 1.247 . S
O369 Cd365 2.439 . S
O369 C370 1.208 . S
C370 O368 1.247 . S
C370 O369 1.208 . S
C371 O376 1.247 . S
C371 O377 1.208 . S
C372 O364 1.315 . S
C372 O367 1.279 . S
C373 O374 1.315 . S
C373 O375 1.279 . S
O374 Cd366 2.223 . S
O374 C373 1.315 . S
O375 Cd365 2.240 . S
O375 C373 1.279 . S
O376 Cd366 2.297 . S
O376 C371 1.247 . S
O377 Cd366 2.439 . S
O377 C371 1.208 . S
O378 Cd379 2.223 . S
O378 C386 1.315 . S
Cd379 O378 2.223 . S
Cd379 O382 2.297 . S
Cd379 O383 2.439 . S
Cd379 O389 2.240 . S
Cd380 O381 2.240 . S
Cd380 O388 2.223 . S
Cd380 O390 2.297 . S
Cd380 O391 2.439 . S
O381 Cd380 2.240 . S
O381 C386 1.279 . S
O382 Cd379 2.297 . S
O382 C384 1.247 . S
O383 Cd379 2.439 . S
O383 C384 1.208 . S
C384 O382 1.247 . S
C384 O383 1.208 . S
C385 O390 1.247 . S
C385 O391 1.208 . S
C386 O378 1.315 . S
C386 O381 1.279 . S
C387 O388 1.315 . S
C387 O389 1.279 . S
O388 Cd380 2.223 . S
O388 C387 1.315 . S
O389 Cd379 2.240 . S
O389 C387 1.279 . S
O390 Cd380 2.297 . S
O390 C385 1.247 . S
O391 Cd380 2.439 . S
O391 C385 1.208 . S
O392 Cd393 2.223 . S
O392 C400 1.315 . S
Cd393 O392 2.223 . S
Cd393 O396 2.297 . S
Cd393 O397 2.439 . S
Cd393 O403 2.240 . S
Cd394 O395 2.240 . S
Cd394 O402 2.223 . S
Cd394 O404 2.297 . S
Cd394 O405 2.439 . S
O395 Cd394 2.240 . S
O395 C400 1.279 . S
O396 Cd393 2.297 . S
O396 C398 1.247 . S
O397 Cd393 2.439 . S
O397 C398 1.208 . S
C398 O396 1.247 . S
C398 O397 1.208 . S
C399 O404 1.247 . S
C399 O405 1.208 . S
C400 O392 1.315 . S
C400 O395 1.279 . S
C401 O402 1.315 . S
C401 O403 1.279 . S
O402 Cd394 2.223 . S
O402 C401 1.315 . S
O403 Cd393 2.240 . S
O403 C401 1.279 . S
O404 Cd394 2.297 . S
O404 C399 1.247 . S
O405 Cd394 2.439 . S
O405 C399 1.208 . S
O406 Cd407 2.223 . S
O406 C414 1.315 . S
Cd407 O406 2.223 . S
Cd407 O410 2.297 . S
Cd407 O411 2.439 . S
Cd407 O417 2.240 . S
Cd408 O409 2.240 . S
Cd408 O416 2.223 . S
Cd408 O418 2.297 . S
Cd408 O419 2.439 . S
O409 Cd408 2.240 . S
O409 C414 1.279 . S
O410 Cd407 2.297 . S
O410 C412 1.247 . S
O411 Cd407 2.439 . S
O411 C412 1.208 . S
C412 O410 1.247 . S
C412 O411 1.208 . S
C413 O418 1.247 . S
C413 O419 1.208 . S
C414 O406 1.315 . S
C414 O409 1.279 . S
C415 O416 1.315 . S
C415 O417 1.279 . S
O416 Cd408 2.223 . S
O416 C415 1.315 . S
O417 Cd407 2.240 . S
O417 C415 1.279 . S
O418 Cd408 2.297 . S
O418 C413 1.247 . S
O419 Cd408 2.439 . S
O419 C413 1.208 . S
O420 Cd421 2.223 . S
O420 C428 1.315 . S
Cd421 O420 2.223 . S
Cd421 O424 2.297 . S
Cd421 O425 2.439 . S
Cd421 O431 2.240 . S
Cd422 O423 2.240 . S
Cd422 O430 2.223 . S
Cd422 O432 2.297 . S
Cd422 O433 2.439 . S
O423 Cd422 2.240 . S
O423 C428 1.279 . S
O424 Cd421 2.297 . S
O424 C426 1.247 . S
O425 Cd421 2.439 . S
O425 C426 1.208 . S
C426 O424 1.247 . S
C426 O425 1.208 . S
C427 O432 1.247 . S
C427 O433 1.208 . S
C428 O420 1.315 . S
C428 O423 1.279 . S
C429 O430 1.315 . S
C429 O431 1.279 . S
O430 Cd422 2.223 . S
O430 C429 1.315 . S
O431 Cd421 2.240 . S
O431 C429 1.279 . S
O432 Cd422 2.297 . S
O432 C427 1.247 . S
O433 Cd422 2.439 . S
O433 C427 1.208 . S
O434 Cd435 2.223 . S
O434 C442 1.315 . S
Cd435 O434 2.223 . S
Cd435 O438 2.297 . S
Cd435 O439 2.439 . S
Cd435 O445 2.240 . S
Cd436 O437 2.240 . S
Cd436 O444 2.223 . S
Cd436 O446 2.297 . S
Cd436 O447 2.439 . S
O437 Cd436 2.240 . S
O437 C442 1.279 . S
O438 Cd435 2.297 . S
O438 C440 1.247 . S
O439 Cd435 2.439 . S
O439 C440 1.208 . S
C440 O438 1.247 . S
C440 O439 1.208 . S
C441 O446 1.247 . S
C441 O447 1.208 . S
C442 O434 1.315 . S
C442 O437 1.279 . S
C443 O444 1.315 . S
C443 O445 1.279 . S
O444 Cd436 2.223 . S
O444 C443 1.315 . S
O445 Cd435 2.240 . S
O445 C443 1.279 . S
O446 Cd436 2.297 . S
O446 C441 1.247 . S
O447 Cd436 2.439 . S
O447 C441 1.208 . S
O448 Cd449 2.223 . S
O448 C456 1.315 . S
Cd449 O448 2.223 . S
Cd449 O452 2.297 . S
Cd449 O453 2.439 . S
Cd449 O459 2.240 . S
Cd450 O451 2.240 . S
Cd450 O458 2.223 . S
Cd450 O460 2.297 . S
Cd450 O461 2.439 . S
O451 Cd450 2.240 . S
O451 C456 1.279 . S
O452 Cd449 2.297 . S
O452 C454 1.247 . S
O453 Cd449 2.439 . S
O453 C454 1.208 . S
C454 O452 1.247 . S
C454 O453 1.208 . S
C455 O460 1.247 . S
C455 O461 1.208 . S
C456 O448 1.315 . S
C456 O451 1.279 . S
C457 O458 1.315 . S
C457 O459 1.279 . S
O458 Cd450 2.223 . S
O458 C457 1.315 . S
O459 Cd449 2.240 . S
O459 C457 1.279 . S
O460 Cd450 2.297 . S
O460 C455 1.247 . S
O461 Cd450 2.439 . S
O461 C455 1.208 . S
O462 Cd463 2.223 . S
O462 C470 1.315 . S
Cd463 O462 2.223 . S
Cd463 O466 2.297 . S
Cd463 O467 2.439 . S
Cd463 O473 2.240 . S
Cd464 O465 2.240 . S
Cd464 O472 2.223 . S
Cd464 O474 2.297 . S
Cd464 O475 2.439 . S
O465 Cd464 2.240 . S
O465 C470 1.279 . S
O466 Cd463 2.297 . S
O466 C468 1.247 . S
O467 Cd463 2.439 . S
O467 C468 1.208 . S
C468 O466 1.247 . S
C468 O467 1.208 . S
C469 O474 1.247 . S
C469 O475 1.208 . S
C470 O462 1.315 . S
C470 O465 1.279 . S
C471 O472 1.315 . S
C471 O473 1.279 . S
O472 Cd464 2.223 . S
O472 C471 1.315 . S
O473 Cd463 2.240 . S
O473 C471 1.279 . S
O474 Cd464 2.297 . S
O474 C469 1.247 . S
O475 Cd464 2.439 . S
O475 C469 1.208 . S
O476 Cd477 2.223 . S
O476 C484 1.315 . S
Cd477 O476 2.223 . S
Cd477 O480 2.297 . S
Cd477 O481 2.439 . S
Cd477 O487 2.240 . S
Cd478 O479 2.240 . S
Cd478 O486 2.223 . S
Cd478 O488 2.297 . S
Cd478 O489 2.439 . S
O479 Cd478 2.240 . S
O479 C484 1.279 . S
O480 Cd477 2.297 . S
O480 C482 1.247 . S
O481 Cd477 2.439 . S
O481 C482 1.208 . S
C482 O480 1.247 . S
C482 O481 1.208 . S
C483 O488 1.247 . S
C483 O489 1.208 . S
C484 O476 1.315 . S
C484 O479 1.279 . S
C485 O486 1.315 . S
C485 O487 1.279 . S
O486 Cd478 2.223 . S
O486 C485 1.315 . S
O487 Cd477 2.240 . S
O487 C485 1.279 . S
O488 Cd478 2.297 . S
O488 C483 1.247 . S
O489 Cd478 2.439 . S
O489 C483 1.208 . S
O490 Cd491 2.223 . S
O490 C498 1.315 . S
Cd491 O490 2.223 . S
Cd491 O494 2.297 . S
Cd491 O495 2.439 . S
Cd491 O501 2.240 . S
Cd492 O493 2.240 . S
Cd492 O500 2.223 . S
Cd492 O502 2.297 . S
Cd492 O503 2.439 . S
O493 Cd492 2.240 . S
O493 C498 1.279 . S
O494 Cd491 2.297 . S
O494 C496 1.247 . S
O495 Cd491 2.439 . S
O495 C496 1.208 . S
C496 O494 1.247 . S
C496 O495 1.208 . S
C497 O502 1.247 . S
C497 O503 1.208 . S
C498 O490 1.315 . S
C498 O493 1.279 . S
C499 O500 1.315 . S
C499 O501 1.279 . S
O500 Cd492 2.223 . S
O500 C499 1.315 . S
O501 Cd491 2.240 . S
O501 C499 1.279 . S
O502 Cd492 2.297 . S
O502 C497 1.247 . S
O503 Cd492 2.439 . S
O503 C497 1.208 . S
O504 Cd505 2.223 . S
O504 C512 1.315 . S
Cd505 O504 2.223 . S
Cd505 O508 2.297 . S
Cd505 O509 2.439 . S
Cd505 O515 2.240 . S
Cd506 O507 2.240 . S
Cd506 O514 2.223 . S
Cd506 O516 2.297 . S
Cd506 O517 2.439 . S
O507 Cd506 2.240 . S
O507 C512 1.279 . S
O508 Cd505 2.297 . S
O508 C510 1.247 . S
O509 Cd505 2.439 . S
O509 C510 1.208 . S
C510 O508 1.247 . S
C510 O509 1.208 . S
C511 O516 1.247 . S
C511 O517 1.208 . S
C512 O504 1.315 . S
C512 O507 1.279 . S
C513 O514 1.315 . S
C513 O515 1.279 . S
O514 Cd506 2.223 . S
O514 C513 1.315 . S
O515 Cd505 2.240 . S
O515 C513 1.279 . S
O516 Cd506 2.297 . S
O516 C511 1.247 . S
O517 Cd506 2.439 . S
O517 C511 1.208 . S
O518 Cd519 2.223 . S
O518 C526 1.315 . S
Cd519 O518 2.223 . S
Cd519 O522 2.297 . S
Cd519 O523 2.439 . S
Cd519 O529 2.240 . S
Cd520 O521 2.240 . S
Cd520 O528 2.223 . S
Cd520 O530 2.297 . S
Cd520 O531 2.439 . S
O521 Cd520 2.240 . S
O521 C526 1.279 . S
O522 Cd519 2.297 . S
O522 C524 1.247 . S
O523 Cd519 2.439 . S
O523 C524 1.208 . S
C524 O522 1.247 . S
C524 O523 1.208 . S
C525 O530 1.247 . S
C525 O531 1.208 . S
C526 O518 1.315 . S
C526 O521 1.279 . S
C527 O528 1.315 . S
C527 O529 1.279 . S
O528 Cd520 2.223 . S
O528 C527 1.315 . S
O529 Cd519 2.240 . S
O529 C527 1.279 . S
O530 Cd520 2.297 . S
O530 C525 1.247 . S
O531 Cd520 2.439 . S
O531 C525 1.208 . S
O532 Cd533 2.223 . S
O532 C540 1.315 . S
Cd533 O532 2.223 . S
Cd533 O536 2.297 . S
Cd533 O537 2.439 . S
Cd533 O543 2.240 . S
Cd534 O535 2.240 . S
Cd534 O542 2.223 . S
Cd534 O544 2.297 . S
Cd534 O545 2.439 . S
O535 Cd534 2.240 . S
O535 C540 1.279 . S
O536 Cd533 2.297 . S
O536 C538 1.247 . S
O537 Cd533 2.439 . S
O537 C538 1.208 . S
C538 O536 1.247 . S
C538 O537 1.208 . S
C539 O544 1.247 . S
C539 O545 1.208 . S
C540 O532 1.315 . S
C540 O535 1.279 . S
C541 O542 1.315 . S
C541 O543 1.279 . S
O542 Cd534 2.223 . S
O542 C541 1.315 . S
O543 Cd533 2.240 . S
O543 C541 1.279 . S
O544 Cd534 2.297 . S
O544 C539 1.247 . S
O545 Cd534 2.439 . S
O545 C539 1.208 . S
O546 Cd547 2.223 . S
O546 C554 1.315 . S
Cd547 O546 2.223 . S
Cd547 O550 2.297 . S
Cd547 O551 2.439 . S
Cd547 O557 2.240 . S
Cd548 O549 2.240 . S
Cd548 O556 2.223 . S
Cd548 O558 2.297 . S
Cd548 O559 2.439 . S
O549 Cd548 2.240 . S
O549 C554 1.279 . S
O550 Cd547 2.297 . S
O550 C552 1.247 . S
O551 Cd547 2.439 . S
O551 C552 1.208 . S
C552 O550 1.247 . S
C552 O551 1.208 . S
C553 O558 1.247 . S
C553 O559 1.208 . S
C554 O546 1.315 . S
C554 O549 1.279 . S
C555 O556 1.315 . S
C555 O557 1.279 . S
O556 Cd548 2.223 . S
O556 C555 1.315 . S
O557 Cd547 2.240 . S
O557 C555 1.279 . S
O558 Cd548 2.297 . S
O558 C553 1.247 . S
O559 Cd548 2.439 . S
O559 C553 1.208 . S
O560 Cd561 2.223 . S
O560 C568 1.315 . S
Cd561 O560 2.223 . S
Cd561 O564 2.297 . S
Cd561 O565 2.439 . S
Cd561 O571 2.240 . S
Cd562 O563 2.240 . S
Cd562 O570 2.223 . S
Cd562 O572 2.297 . S
Cd562 O573 2.439 . S
O563 Cd562 2.240 . S
O563 C568 1.279 . S
O564 Cd561 2.297 . S
O564 C566 1.247 . S
O565 Cd561 2.439 . S
O565 C566 1.208 . S
C566 O564 1.247 . S
C566 O565 1.208 . S
C567 O572 1.247 . S
C567 O573 1.208 . S
C568 O560 1.315 . S
C568 O563 1.279 . S
C569 O570 1.315 . S
C569 O571 1.279 . S
O570 Cd562 2.223 . S
O570 C569 1.315 . S
O571 Cd561 2.240 . S
O571 C569 1.279 . S
O572 Cd562 2.297 . S
O572 C567 1.247 . S
O573 Cd562 2.439 . S
O573 C567 1.208 . S
O574 Cd575 2.223 . S
O574 C582 1.315 . S
Cd575 O574 2.223 . S
Cd575 O578 2.297 . S
Cd575 O579 2.439 . S
Cd575 O585 2.240 . S
Cd576 O577 2.240 . S
Cd576 O584 2.223 . S
Cd576 O586 2.297 . S
Cd576 O587 2.439 . S
O577 Cd576 2.240 . S
O577 C582 1.279 . S
O578 Cd575 2.297 . S
O578 C580 1.247 . S
O579 Cd575 2.439 . S
O579 C580 1.208 . S
C580 O578 1.247 . S
C580 O579 1.208 . S
C581 O586 1.247 . S
C581 O587 1.208 . S
C582 O574 1.315 . S
C582 O577 1.279 . S
C583 O584 1.315 . S
C583 O585 1.279 . S
O584 Cd576 2.223 . S
O584 C583 1.315 . S
O585 Cd575 2.240 . S
O585 C583 1.279 . S
O586 Cd576 2.297 . S
O586 C581 1.247 . S
O587 Cd576 2.439 . S
O587 C581 1.208 . S
O588 Cd589 2.223 . S
O588 C596 1.315 . S
Cd589 O588 2.223 . S
Cd589 O592 2.297 . S
Cd589 O593 2.439 . S
Cd589 O599 2.240 . S
Cd590 O591 2.240 . S
Cd590 O598 2.223 . S
Cd590 O600 2.297 . S
Cd590 O601 2.439 . S
O591 Cd590 2.240 . S
O591 C596 1.279 . S
O592 Cd589 2.297 . S
O592 C594 1.247 . S
O593 Cd589 2.439 . S
O593 C594 1.208 . S
C594 O592 1.247 . S
C594 O593 1.208 . S
C595 O600 1.247 . S
C595 O601 1.208 . S
C596 O588 1.315 . S
C596 O591 1.279 . S
C597 O598 1.315 . S
C597 O599 1.279 . S
O598 Cd590 2.223 . S
O598 C597 1.315 . S
O599 Cd589 2.240 . S
O599 C597 1.279 . S
O600 Cd590 2.297 . S
O600 C595 1.247 . S
O601 Cd590 2.439 . S
O601 C595 1.208 . S
O602 Cd603 2.223 . S
O602 C610 1.315 . S
Cd603 O602 2.223 . S
Cd603 O606 2.297 . S
Cd603 O607 2.439 . S
Cd603 O613 2.240 . S
Cd604 O605 2.240 . S
Cd604 O612 2.223 . S
Cd604 O614 2.297 . S
Cd604 O615 2.439 . S
O605 Cd604 2.240 . S
O605 C610 1.279 . S
O606 Cd603 2.297 . S
O606 C608 1.247 . S
O607 Cd603 2.439 . S
O607 C608 1.208 . S
C608 O606 1.247 . S
C608 O607 1.208 . S
C609 O614 1.247 . S
C609 O615 1.208 . S
C610 O602 1.315 . S
C610 O605 1.279 . S
C611 O612 1.315 . S
C611 O613 1.279 . S
O612 Cd604 2.223 . S
O612 C611 1.315 . S
O613 Cd603 2.240 . S
O613 C611 1.279 . S
O614 Cd604 2.297 . S
O614 C609 1.247 . S
O615 Cd604 2.439 . S
O615 C609 1.208 . S
O616 Cd617 2.223 . S
O616 C624 1.315 . S
Cd617 O616 2.223 . S
Cd617 O620 2.297 . S
Cd617 O621 2.439 . S
Cd617 O627 2.240 . S
Cd618 O619 2.240 . S
Cd618 O626 2.223 . S
Cd618 O628 2.297 . S
Cd618 O629 2.439 . S
O619 Cd618 2.240 . S
O619 C624 1.279 . S
O620 Cd617 2.297 . S
O620 C622 1.247 . S
O621 Cd617 2.439 . S
O621 C622 1.208 . S
C622 O620 1.247 . S
C622 O621 1.208 . S
C623 O628 1.247 . S
C623 O629 1.208 . S
C624 O616 1.315 . S
C624 O619 1.279 . S
C625 O626 1.315 . S
C625 O627 1.279 . S
O626 Cd618 2.223 . S
O626 C625 1.315 . S
O627 Cd617 2.240 . S
O627 C625 1.279 . S
O628 Cd618 2.297 . S
O628 C623 1.247 . S
O629 Cd618 2.439 . S
O629 C623 1.208 . S
O630 Cd631 2.223 . S
O630 C638 1.315 . S
Cd631 O630 2.223 . S
Cd631 O634 2.297 . S
Cd631 O635 2.439 . S
Cd631 O641 2.240 . S
Cd632 O633 2.240 . S
Cd632 O640 2.223 . S
Cd632 O642 2.297 . S
Cd632 O643 2.439 . S
O633 Cd632 2.240 . S
O633 C638 1.279 . S
O634 Cd631 2.297 . S
O634 C636 1.247 . S
O635 Cd631 2.439 . S
O635 C636 1.208 . S
C636 O634 1.247 . S
C636 O635 1.208 . S
C637 O642 1.247 . S
C637 O643 1.208 . S
C638 O630 1.315 . S
C638 O633 1.279 . S
C639 O640 1.315 . S
C639 O641 1.279 . S
O640 Cd632 2.223 . S
O640 C639 1.315 . S
O641 Cd631 2.240 . S
O641 C639 1.279 . S
O642 Cd632 2.297 . S
O642 C637 1.247 . S
O643 Cd632 2.439 . S
O643 C637 1.208 . S
O644 Cd645 2.223 . S
O644 C652 1.315 . S
Cd645 O644 2.223 . S
Cd645 O648 2.297 . S
Cd645 O649 2.439 . S
Cd645 O655 2.240 . S
Cd646 O647 2.240 . S
Cd646 O654 2.223 . S
Cd646 O656 2.297 . S
Cd646 O657 2.439 . S
O647 Cd646 2.240 . S
O647 C652 1.279 . S
O648 Cd645 2.297 . S
O648 C650 1.247 . S
O649 Cd645 2.439 . S
O649 C650 1.208 . S
C650 O648 1.247 . S
C650 O649 1.208 . S
C651 O656 1.247 . S
C651 O657 1.208 . S
C652 O644 1.315 . S
C652 O647 1.279 . S
C653 O654 1.315 . S
C653 O655 1.279 . S
O654 Cd646 2.223 . S
O654 C653 1.315 . S
O655 Cd645 2.240 . S
O655 C653 1.279 . S
O656 Cd646 2.297 . S
O656 C651 1.247 . S
O657 Cd646 2.439 . S
O657 C651 1.208 . S
O658 Cd659 2.223 . S
O658 C666 1.315 . S
Cd659 O658 2.223 . S
Cd659 O662 2.297 . S
Cd659 O663 2.439 . S
Cd659 O669 2.240 . S
Cd660 O661 2.240 . S
Cd660 O668 2.223 . S
Cd660 O670 2.297 . S
Cd660 O671 2.439 . S
O661 Cd660 2.240 . S
O661 C666 1.279 . S
O662 Cd659 2.297 . S
O662 C664 1.247 . S
O663 Cd659 2.439 . S
O663 C664 1.208 . S
C664 O662 1.247 . S
C664 O663 1.208 . S
C665 O670 1.247 . S
C665 O671 1.208 . S
C666 O658 1.315 . S
C666 O661 1.279 . S
C667 O668 1.315 . S
C667 O669 1.279 . S
O668 Cd660 2.223 . S
O668 C667 1.315 . S
O669 Cd659 2.240 . S
O669 C667 1.279 . S
O670 Cd660 2.297 . S
O670 C665 1.247 . S
O671 Cd660 2.439 . S
O671 C665 1.208 . S
C672 C673 1.369 . S
C672 C674 1.419 . S
C672 H676 0.930 . S
C673 C672 1.369 . S
C673 C682 1.429 . S
C674 C672 1.419 . S
C674 C675 1.363 . S
C674 H677 0.929 . S
C675 C674 1.363 . S
C675 C681 1.428 . S
H676 C672 0.930 . S
H677 C674 0.929 . S
S678 N679 1.613 . S
S678 N680 1.610 . S
N679 S678 1.613 . S
N679 C682 1.350 . S
N680 S678 1.610 . S
N680 C681 1.351 . S
C681 C675 1.428 . S
C681 N680 1.351 . S
C681 C682 1.434 . S
C682 C673 1.429 . S
C682 N679 1.350 . S
C682 C681 1.434 . S
C683 C684 1.369 . S
C683 C685 1.419 . S
C683 H687 0.930 . S
C684 C683 1.369 . S
C684 C693 1.429 . S
C685 C683 1.419 . S
C685 C686 1.363 . S
C685 H688 0.929 . S
C686 C685 1.363 . S
C686 C692 1.428 . S
H687 C683 0.930 . S
H688 C685 0.929 . S
S689 N690 1.613 . S
S689 N691 1.610 . S
N690 S689 1.613 . S
N690 C693 1.350 . S
N691 S689 1.610 . S
N691 C692 1.351 . S
C692 C686 1.428 . S
C692 N691 1.351 . S
C692 C693 1.434 . S
C693 C684 1.429 . S
C693 N690 1.350 . S
C693 C692 1.434 . S
C694 C695 1.369 . S
C694 C696 1.419 . S
C694 H698 0.930 . S
C695 C694 1.369 . S
C695 C704 1.429 . S
C696 C694 1.419 . S
C696 C697 1.363 . S
C696 H699 0.929 . S
C697 C696 1.363 . S
C697 C703 1.428 . S
H698 C694 0.930 . S
H699 C696 0.929 . S
S700 N701 1.613 . S
S700 N702 1.610 . S
N701 S700 1.613 . S
N701 C704 1.350 . S
N702 S700 1.610 . S
N702 C703 1.351 . S
C703 C697 1.428 . S
C703 N702 1.351 . S
C703 C704 1.434 . S
C704 C695 1.429 . S
C704 N701 1.350 . S
C704 C703 1.434 . S
C705 C706 1.369 . S
C705 C707 1.419 . S
C705 H709 0.930 . S
C706 C705 1.369 . S
C706 C715 1.429 . S
C707 C705 1.419 . S
C707 C708 1.363 . S
C707 H710 0.929 . S
C708 C707 1.363 . S
C708 C714 1.428 . S
H709 C705 0.930 . S
H710 C707 0.929 . S
S711 N712 1.613 . S
S711 N713 1.610 . S
N712 S711 1.613 . S
N712 C715 1.350 . S
N713 S711 1.610 . S
N713 C714 1.351 . S
C714 C708 1.428 . S
C714 N713 1.351 . S
C714 C715 1.434 . S
C715 C706 1.429 . S
C715 N712 1.350 . S
C715 C714 1.434 . S
C716 C717 1.369 . S
C716 C718 1.419 . S
C716 H720 0.930 . S
C717 C716 1.369 . S
C717 C726 1.429 . S
C718 C716 1.419 . S
C718 C719 1.363 . S
C718 H721 0.929 . S
C719 C718 1.363 . S
C719 C725 1.428 . S
H720 C716 0.930 . S
H721 C718 0.929 . S
S722 N723 1.613 . S
S722 N724 1.610 . S
N723 S722 1.613 . S
N723 C726 1.350 . S
N724 S722 1.610 . S
N724 C725 1.351 . S
C725 C719 1.428 . S
C725 N724 1.351 . S
C725 C726 1.434 . S
C726 C717 1.429 . S
C726 N723 1.350 . S
C726 C725 1.434 . S
C727 C728 1.369 . S
C727 C729 1.419 . S
C727 H731 0.930 . S
C728 C727 1.369 . S
C728 C737 1.429 . S
C729 C727 1.419 . S
C729 C730 1.363 . S
C729 H732 0.929 . S
C730 C729 1.363 . S
C730 C736 1.428 . S
H731 C727 0.930 . S
H732 C729 0.929 . S
S733 N734 1.613 . S
S733 N735 1.610 . S
N734 S733 1.613 . S
N734 C737 1.350 . S
N735 S733 1.610 . S
N735 C736 1.351 . S
C736 C730 1.428 . S
C736 N735 1.351 . S
C736 C737 1.434 . S
C737 C728 1.429 . S
C737 N734 1.350 . S
C737 C736 1.434 . S
C738 C739 1.369 . S
C738 C740 1.419 . S
C738 H742 0.930 . S
C739 C738 1.369 . S
C739 C748 1.429 . S
C740 C738 1.419 . S
C740 C741 1.363 . S
C740 H743 0.929 . S
C741 C740 1.363 . S
C741 C747 1.428 . S
H742 C738 0.930 . S
H743 C740 0.929 . S
S744 N745 1.613 . S
S744 N746 1.610 . S
N745 S744 1.613 . S
N745 C748 1.350 . S
N746 S744 1.610 . S
N746 C747 1.351 . S
C747 C741 1.428 . S
C747 N746 1.351 . S
C747 C748 1.434 . S
C748 C739 1.429 . S
C748 N745 1.350 . S
C748 C747 1.434 . S
C749 C750 1.369 . S
C749 C751 1.419 . S
C749 H753 0.930 . S
C750 C749 1.369 . S
C750 C759 1.429 . S
C751 C749 1.419 . S
C751 C752 1.363 . S
C751 H754 0.929 . S
C752 C751 1.363 . S
C752 C758 1.428 . S
H753 C749 0.930 . S
H754 C751 0.929 . S
S755 N756 1.613 . S
S755 N757 1.610 . S
N756 S755 1.613 . S
N756 C759 1.350 . S
N757 S755 1.610 . S
N757 C758 1.351 . S
C758 C752 1.428 . S
C758 N757 1.351 . S
C758 C759 1.434 . S
C759 C750 1.429 . S
C759 N756 1.350 . S
C759 C758 1.434 . S
C760 C761 1.369 . S
C760 C762 1.419 . S
C760 H764 0.930 . S
C761 C760 1.369 . S
C761 C770 1.429 . S
C762 C760 1.419 . S
C762 C763 1.363 . S
C762 H765 0.929 . S
C763 C762 1.363 . S
C763 C769 1.428 . S
H764 C760 0.930 . S
H765 C762 0.929 . S
S766 N767 1.613 . S
S766 N768 1.610 . S
N767 S766 1.613 . S
N767 C770 1.350 . S
N768 S766 1.610 . S
N768 C769 1.351 . S
C769 C763 1.428 . S
C769 N768 1.351 . S
C769 C770 1.434 . S
C770 C761 1.429 . S
C770 N767 1.350 . S
C770 C769 1.434 . S
C771 C772 1.369 . S
C771 C773 1.419 . S
C771 H775 0.930 . S
C772 C771 1.369 . S
C772 C781 1.429 . S
C773 C771 1.419 . S
C773 C774 1.363 . S
C773 H776 0.929 . S
C774 C773 1.363 . S
C774 C780 1.428 . S
H775 C771 0.930 . S
H776 C773 0.929 . S
S777 N778 1.613 . S
S777 N779 1.610 . S
N778 S777 1.613 . S
N778 C781 1.350 . S
N779 S777 1.610 . S
N779 C780 1.351 . S
C780 C774 1.428 . S
C780 N779 1.351 . S
C780 C781 1.434 . S
C781 C772 1.429 . S
C781 N778 1.350 . S
C781 C780 1.434 . S
C782 C783 1.369 . S
C782 C784 1.419 . S
C782 H786 0.930 . S
C783 C782 1.369 . S
C783 C792 1.429 . S
C784 C782 1.419 . S
C784 C785 1.363 . S
C784 H787 0.929 . S
C785 C784 1.363 . S
C785 C791 1.428 . S
H786 C782 0.930 . S
H787 C784 0.929 . S
S788 N789 1.613 . S
S788 N790 1.610 . S
N789 S788 1.613 . S
N789 C792 1.350 . S
N790 S788 1.610 . S
N790 C791 1.351 . S
C791 C785 1.428 . S
C791 N790 1.351 . S
C791 C792 1.434 . S
C792 C783 1.429 . S
C792 N789 1.350 . S
C792 C791 1.434 . S
C793 C794 1.369 . S
C793 C795 1.419 . S
C793 H797 0.930 . S
C794 C793 1.369 . S
C794 C803 1.429 . S
C795 C793 1.419 . S
C795 C796 1.363 . S
C795 H798 0.929 . S
C796 C795 1.363 . S
C796 C802 1.428 . S
H797 C793 0.930 . S
H798 C795 0.929 . S
S799 N800 1.613 . S
S799 N801 1.610 . S
N800 S799 1.613 . S
N800 C803 1.350 . S
N801 S799 1.610 . S
N801 C802 1.351 . S
C802 C796 1.428 . S
C802 N801 1.351 . S
C802 C803 1.434 . S
C803 C794 1.429 . S
C803 N800 1.350 . S
C803 C802 1.434 . S
C804 C805 1.369 . S
C804 C806 1.419 . S
C804 H808 0.930 . S
C805 C804 1.369 . S
C805 C814 1.429 . S
C806 C804 1.419 . S
C806 C807 1.363 . S
C806 H809 0.929 . S
C807 C806 1.363 . S
C807 C813 1.428 . S
H808 C804 0.930 . S
H809 C806 0.929 . S
S810 N811 1.613 . S
S810 N812 1.610 . S
N811 S810 1.613 . S
N811 C814 1.350 . S
N812 S810 1.610 . S
N812 C813 1.351 . S
C813 C807 1.428 . S
C813 N812 1.351 . S
C813 C814 1.434 . S
C814 C805 1.429 . S
C814 N811 1.350 . S
C814 C813 1.434 . S
C815 C816 1.369 . S
C815 C817 1.419 . S
C815 H819 0.930 . S
C816 C815 1.369 . S
C816 C825 1.429 . S
C817 C815 1.419 . S
C817 C818 1.363 . S
C817 H820 0.929 . S
C818 C817 1.363 . S
C818 C824 1.428 . S
H819 C815 0.930 . S
H820 C817 0.929 . S
S821 N822 1.613 . S
S821 N823 1.610 . S
N822 S821 1.613 . S
N822 C825 1.350 . S
N823 S821 1.610 . S
N823 C824 1.351 . S
C824 C818 1.428 . S
C824 N823 1.351 . S
C824 C825 1.434 . S
C825 C816 1.429 . S
C825 N822 1.350 . S
C825 C824 1.434 . S
C826 C827 1.369 . S
C826 C828 1.419 . S
C826 H830 0.930 . S
C827 C826 1.369 . S
C827 C836 1.429 . S
C828 C826 1.419 . S
C828 C829 1.363 . S
C828 H831 0.929 . S
C829 C828 1.363 . S
C829 C835 1.428 . S
H830 C826 0.930 . S
H831 C828 0.929 . S
S832 N833 1.613 . S
S832 N834 1.610 . S
N833 S832 1.613 . S
N833 C836 1.350 . S
N834 S832 1.610 . S
N834 C835 1.351 . S
C835 C829 1.428 . S
C835 N834 1.351 . S
C835 C836 1.434 . S
C836 C827 1.429 . S
C836 N833 1.350 . S
C836 C835 1.434 . S
C837 C838 1.369 . S
C837 C839 1.419 . S
C837 H841 0.930 . S
C838 C837 1.369 . S
C838 C847 1.429 . S
C839 C837 1.419 . S
C839 C840 1.363 . S
C839 H842 0.929 . S
C840 C839 1.363 . S
C840 C846 1.428 . S
H841 C837 0.930 . S
H842 C839 0.929 . S
S843 N844 1.613 . S
S843 N845 1.610 . S
N844 S843 1.613 . S
N844 C847 1.350 . S
N845 S843 1.610 . S
N845 C846 1.351 . S
C846 C840 1.428 . S
C846 N845 1.351 . S
C846 C847 1.434 . S
C847 C838 1.429 . S
C847 N844 1.350 . S
C847 C846 1.434 . S
C848 C849 1.369 . S
C848 C850 1.419 . S
C848 H852 0.930 . S
C849 C848 1.369 . S
C849 C858 1.429 . S
C850 C848 1.419 . S
C850 C851 1.363 . S
C850 H853 0.929 . S
C851 C850 1.363 . S
C851 C857 1.428 . S
H852 C848 0.930 . S
H853 C850 0.929 . S
S854 N855 1.613 . S
S854 N856 1.610 . S
N855 S854 1.613 . S
N855 C858 1.350 . S
N856 S854 1.610 . S
N856 C857 1.351 . S
C857 C851 1.428 . S
C857 N856 1.351 . S
C857 C858 1.434 . S
C858 C849 1.429 . S
C858 N855 1.350 . S
C858 C857 1.434 . S
C859 C860 1.369 . S
C859 C861 1.419 . S
C859 H863 0.930 . S
C860 C859 1.369 . S
C860 C869 1.429 . S
C861 C859 1.419 . S
C861 C862 1.363 . S
C861 H864 0.929 . S
C862 C861 1.363 . S
C862 C868 1.428 . S
H863 C859 0.930 . S
H864 C861 0.929 . S
S865 N866 1.613 . S
S865 N867 1.610 . S
N866 S865 1.613 . S
N866 C869 1.350 . S
N867 S865 1.610 . S
N867 C868 1.351 . S
C868 C862 1.428 . S
C868 N867 1.351 . S
C868 C869 1.434 . S
C869 C860 1.429 . S
C869 N866 1.350 . S
C869 C868 1.434 . S
C870 C871 1.369 . S
C870 C872 1.419 . S
C870 H874 0.930 . S
C871 C870 1.369 . S
C871 C880 1.429 . S
C872 C870 1.419 . S
C872 C873 1.363 . S
C872 H875 0.929 . S
C873 C872 1.363 . S
C873 C879 1.428 . S
H874 C870 0.930 . S
H875 C872 0.929 . S
S876 N877 1.613 . S
S876 N878 1.610 . S
N877 S876 1.613 . S
N877 C880 1.350 . S
N878 S876 1.610 . S
N878 C879 1.351 . S
C879 C873 1.428 . S
C879 N878 1.351 . S
C879 C880 1.434 . S
C880 C871 1.429 . S
C880 N877 1.350 . S
C880 C879 1.434 . S
C881 C882 1.369 . S
C881 C883 1.419 . S
C881 H885 0.930 . S
C882 C881 1.369 . S
C882 C891 1.429 . S
C883 C881 1.419 . S
C883 C884 1.363 . S
C883 H886 0.929 . S
C884 C883 1.363 . S
C884 C890 1.428 . S
H885 C881 0.930 . S
H886 C883 0.929 . S
S887 N888 1.613 . S
S887 N889 1.610 . S
N888 S887 1.613 . S
N888 C891 1.350 . S
N889 S887 1.610 . S
N889 C890 1.351 . S
C890 C884 1.428 . S
C890 N889 1.351 . S
C890 C891 1.434 . S
C891 C882 1.429 . S
C891 N888 1.350 . S
C891 C890 1.434 . S
C892 C893 1.369 . S
C892 C894 1.419 . S
C892 H896 0.930 . S
C893 C892 1.369 . S
C893 C902 1.429 . S
C894 C892 1.419 . S
C894 C895 1.363 . S
C894 H897 0.929 . S
C895 C894 1.363 . S
C895 C901 1.428 . S
H896 C892 0.930 . S
H897 C894 0.929 . S
S898 N899 1.613 . S
S898 N900 1.610 . S
N899 S898 1.613 . S
N899 C902 1.350 . S
N900 S898 1.610 . S
N900 C901 1.351 . S
C901 C895 1.428 . S
C901 N900 1.351 . S
C901 C902 1.434 . S
C902 C893 1.429 . S
C902 N899 1.350 . S
C902 C901 1.434 . S
C903 C904 1.369 . S
C903 C905 1.419 . S
C903 H907 0.930 . S
C904 C903 1.369 . S
C904 C913 1.429 . S
C905 C903 1.419 . S
C905 C906 1.363 . S
C905 H908 0.929 . S
C906 C905 1.363 . S
C906 C912 1.428 . S
H907 C903 0.930 . S
H908 C905 0.929 . S
S909 N910 1.613 . S
S909 N911 1.610 . S
N910 S909 1.613 . S
N910 C913 1.350 . S
N911 S909 1.610 . S
N911 C912 1.351 . S
C912 C906 1.428 . S
C912 N911 1.351 . S
C912 C913 1.434 . S
C913 C904 1.429 . S
C913 N910 1.350 . S
C913 C912 1.434 . S
C914 C915 1.369 . S
C914 C916 1.419 . S
C914 H918 0.930 . S
C915 C914 1.369 . S
C915 C924 1.429 . S
C916 C914 1.419 . S
C916 C917 1.363 . S
C916 H919 0.929 . S
C917 C916 1.363 . S
C917 C923 1.428 . S
H918 C914 0.930 . S
H919 C916 0.929 . S
S920 N921 1.613 . S
S920 N922 1.610 . S
N921 S920 1.613 . S
N921 C924 1.350 . S
N922 S920 1.610 . S
N922 C923 1.351 . S
C923 C917 1.428 . S
C923 N922 1.351 . S
C923 C924 1.434 . S
C924 C915 1.429 . S
C924 N921 1.350 . S
C924 C923 1.434 . S
C925 C926 1.369 . S
C925 C927 1.419 . S
C925 H929 0.930 . S
C926 C925 1.369 . S
C926 C935 1.429 . S
C927 C925 1.419 . S
C927 C928 1.363 . S
C927 H930 0.929 . S
C928 C927 1.363 . S
C928 C934 1.428 . S
H929 C925 0.930 . S
H930 C927 0.929 . S
S931 N932 1.613 . S
S931 N933 1.610 . S
N932 S931 1.613 . S
N932 C935 1.350 . S
N933 S931 1.610 . S
N933 C934 1.351 . S
C934 C928 1.428 . S
C934 N933 1.351 . S
C934 C935 1.434 . S
C935 C926 1.429 . S
C935 N932 1.350 . S
C935 C934 1.434 . S
C936 C937 1.369 . S
C936 C938 1.419 . S
C936 H940 0.930 . S
C937 C936 1.369 . S
C937 C946 1.429 1_655 S
C938 C936 1.419 . S
C938 C939 1.363 1_655 S
C938 H941 0.929 . S
C939 C938 1.363 1_455 S
C939 C945 1.428 . S
H940 C936 0.930 . S
H941 C938 0.929 . S
S942 N943 1.613 . S
S942 N944 1.610 . S
N943 S942 1.613 . S
N943 C946 1.350 . S
N944 S942 1.610 . S
N944 C945 1.351 . S
C945 C939 1.428 . S
C945 N944 1.351 . S
C945 C946 1.434 . S
C946 C937 1.429 1_455 S
C946 N943 1.350 . S
C946 C945 1.434 . S
C947 C948 1.369 . S
C947 C949 1.419 . S
C947 H951 0.930 . S
C948 C947 1.369 . S
C948 C957 1.429 1_565 S
C949 C947 1.419 . S
C949 C950 1.363 1_565 S
C949 H952 0.929 . S
C950 C949 1.363 1_545 S
C950 C956 1.428 . S
H951 C947 0.930 . S
H952 C949 0.929 . S
S953 N954 1.613 . S
S953 N955 1.610 . S
N954 S953 1.613 . S
N954 C957 1.350 . S
N955 S953 1.610 . S
N955 C956 1.351 . S
C956 C950 1.428 . S
C956 N955 1.351 . S
C956 C957 1.434 . S
C957 C948 1.429 1_545 S
C957 N954 1.350 . S
C957 C956 1.434 . S
C958 C959 1.369 1_455 S
C958 C960 1.419 . S
C958 H962 0.930 . S
C959 C958 1.369 1_655 S
C959 C968 1.429 . S
C960 C958 1.419 . S
C960 C961 1.363 . S
C960 H963 0.929 . S
C961 C960 1.363 . S
C961 C967 1.428 1_455 S
H962 C958 0.930 . S
H963 C960 0.929 . S
S964 N965 1.613 . S
S964 N966 1.610 . S
N965 S964 1.613 . S
N965 C968 1.350 . S
N966 S964 1.610 . S
N966 C967 1.351 . S
C967 C961 1.428 1_655 S
C967 N966 1.351 . S
C967 C968 1.434 . S
C968 C959 1.429 . S
C968 N965 1.350 . S
C968 C967 1.434 . S
C969 C970 1.369 . S
C969 C971 1.419 1_545 S
C969 H973 0.930 . S
C970 C969 1.369 . S
C970 C979 1.429 . S
C971 C969 1.419 1_565 S
C971 C972 1.363 . S
C971 H974 0.929 . S
C972 C971 1.363 . S
C972 C978 1.428 . S
H973 C969 0.930 . S
H974 C971 0.929 . S
S975 N976 1.613 1_565 S
S975 N977 1.610 . S
N976 S975 1.613 1_545 S
N976 C979 1.350 . S
N977 S975 1.610 . S
N977 C978 1.351 . S
C978 C972 1.428 . S
C978 N977 1.351 . S
C978 C979 1.434 1_565 S
C979 C970 1.429 . S
C979 N976 1.350 . S
C979 C978 1.434 1_545 S
C980 C981 1.369 . S
C980 C982 1.436 . S
C980 H984 0.930 . S
C981 C980 1.369 . S
C981 C990 1.409 1_455 S
C982 C980 1.436 . S
C982 C983 1.344 1_455 S
C982 H985 0.932 . S
C983 C982 1.344 1_655 S
C983 C989 1.428 . S
H984 C980 0.930 . S
H985 C982 0.932 . S
S986 N987 1.613 . S
S986 N988 1.610 . S
N987 S986 1.613 . S
N987 C990 1.353 . S
N988 S986 1.610 . S
N988 C989 1.351 . S
C989 C983 1.428 . S
C989 N988 1.351 . S
C989 C990 1.453 . S
C990 C981 1.409 1_655 S
C990 N987 1.353 . S
C990 C989 1.453 . S
C991 C992 1.369 . S
C991 C993 1.419 . S
C991 H995 0.930 . S
C992 C991 1.369 . S
C992 C1001 1.429 1_565 S
C993 C991 1.419 . S
C993 C994 1.363 1_565 S
C993 H996 0.929 . S
C994 C993 1.363 1_545 S
C994 C1000 1.428 . S
H995 C991 0.930 . S
H996 C993 0.929 . S
S997 N998 1.613 . S
S997 N999 1.610 . S
N998 S997 1.613 . S
N998 C1001 1.350 . S
N999 S997 1.610 . S
N999 C1000 1.351 . S
C1000 C994 1.428 . S
C1000 N999 1.351 . S
C1000 C1001 1.434 . S
C1001 C992 1.429 1_545 S
C1001 N998 1.350 . S
C1001 C1000 1.434 . S
C1002 C1003 1.369 . S
C1002 C1004 1.419 . S
C1002 H1006 0.930 . S
C1003 C1002 1.369 . S
C1003 C1012 1.429 1_455 S
C1004 C1002 1.419 . S
C1004 C1005 1.363 1_455 S
C1004 H1007 0.929 . S
C1005 C1004 1.363 1_655 S
C1005 C1011 1.428 . S
H1006 C1002 0.930 . S
H1007 C1004 0.929 . S
S1008 N1009 1.613 . S
S1008 N1010 1.610 . S
N1009 S1008 1.613 . S
N1009 C1012 1.350 . S
N1010 S1008 1.610 . S
N1010 C1011 1.351 . S
C1011 C1005 1.428 . S
C1011 N1010 1.351 . S
C1011 C1012 1.434 . S
C1012 C1003 1.429 1_655 S
C1012 N1009 1.350 . S
C1012 C1011 1.434 . S
C1013 C1014 1.369 1_565 S
C1013 C1015 1.419 . S
C1013 H1017 0.930 . S
C1014 C1013 1.369 1_545 S
C1014 C1023 1.429 . S
C1015 C1013 1.419 . S
C1015 C1016 1.363 . S
C1015 H1018 0.929 . S
C1016 C1015 1.363 . S
C1016 C1022 1.428 1_565 S
H1017 C1013 0.930 . S
H1018 C1015 0.929 . S
S1019 N1020 1.613 . S
S1019 N1021 1.610 . S
N1020 S1019 1.613 . S
N1020 C1023 1.350 . S
N1021 S1019 1.610 . S
N1021 C1022 1.351 . S
C1022 C1016 1.428 1_545 S
C1022 N1021 1.351 . S
C1022 C1023 1.434 . S
C1023 C1014 1.429 . S
C1023 N1020 1.350 . S
C1023 C1022 1.434 . S
C1024 C1025 1.369 1_554 S
C1024 C1026 1.419 . S
C1024 H1028 0.930 . S
C1025 C1024 1.369 1_556 S
C1025 C1034 1.429 . S
C1026 C1024 1.419 . S
C1026 C1027 1.363 . S
C1026 H1029 0.929 . S
C1027 C1026 1.363 . S
C1027 C1033 1.428 1_554 S
H1028 C1024 0.930 . S
H1029 C1026 0.929 . S
S1030 N1031 1.613 . S
S1030 N1032 1.610 . S
N1031 S1030 1.613 . S
N1031 C1034 1.350 . S
N1032 S1030 1.610 . S
N1032 C1033 1.351 . S
C1033 C1027 1.428 1_556 S
C1033 N1032 1.351 . S
C1033 C1034 1.434 . S
C1034 C1025 1.429 . S
C1034 N1031 1.350 . S
C1034 C1033 1.434 . S
C1035 C1036 1.369 . S
C1035 C1037 1.419 1_554 S
C1035 H1039 0.930 . S
C1036 C1035 1.369 . S
C1036 C1045 1.429 . S
C1037 C1035 1.419 1_556 S
C1037 C1038 1.363 . S
C1037 H1040 0.929 . S
C1038 C1037 1.363 . S
C1038 C1044 1.428 . S
H1039 C1035 0.930 . S
H1040 C1037 0.929 . S
S1041 N1042 1.613 . S
S1041 N1043 1.610 1_554 S
N1042 S1041 1.613 . S
N1042 C1045 1.350 . S
N1043 S1041 1.610 1_556 S
N1043 C1044 1.351 . S
C1044 C1038 1.428 . S
C1044 N1043 1.351 . S
C1044 C1045 1.434 1_556 S
C1045 C1036 1.429 . S
C1045 N1042 1.350 . S
C1045 C1044 1.434 1_554 S
C1046 C1047 1.369 . S
C1046 C1048 1.419 . S
C1046 H1050 0.930 . S
C1047 C1046 1.369 . S
C1047 C1056 1.429 1_554 S
C1048 C1046 1.419 . S
C1048 C1049 1.363 1_554 S
C1048 H1051 0.929 . S
C1049 C1048 1.363 1_556 S
C1049 C1055 1.428 . S
H1050 C1046 0.930 . S
H1051 C1048 0.929 . S
S1052 N1053 1.613 . S
S1052 N1054 1.610 . S
N1053 S1052 1.613 . S
N1053 C1056 1.350 . S
N1054 S1052 1.610 . S
N1054 C1055 1.351 . S
C1055 C1049 1.428 . S
C1055 N1054 1.351 . S
C1055 C1056 1.434 . S
C1056 C1047 1.429 1_556 S
C1056 N1053 1.350 . S
C1056 C1055 1.434 . S
C1057 C1058 1.369 . S
C1057 C1059 1.419 . S
C1057 H1061 0.930 . S
C1058 C1057 1.369 . S
C1058 C1067 1.429 1_556 S
C1059 C1057 1.419 . S
C1059 C1060 1.363 1_556 S
C1059 H1062 0.929 . S
C1060 C1059 1.363 1_554 S
C1060 C1066 1.428 . S
H1061 C1057 0.930 . S
H1062 C1059 0.929 . S
S1063 N1064 1.613 . S
S1063 N1065 1.610 . S
N1064 S1063 1.613 . S
N1064 C1067 1.350 . S
N1065 S1063 1.610 . S
N1065 C1066 1.351 . S
C1066 C1060 1.428 . S
C1066 N1065 1.351 . S
C1066 C1067 1.434 . S
C1067 C1058 1.429 1_554 S
C1067 N1064 1.350 . S
C1067 C1066 1.434 . S
C1068 C1069 1.369 . S
C1068 C1070 1.419 . S
C1068 H1072 0.930 . S
C1069 C1068 1.369 . S
C1069 C1078 1.429 . S
C1070 C1068 1.419 . S
C1070 C1071 1.363 . S
C1070 H1073 0.929 . S
C1071 C1070 1.363 . S
C1071 C1077 1.428 . S
H1072 C1068 0.930 . S
H1073 C1070 0.929 . S
S1074 N1075 1.613 . S
S1074 N1076 1.610 . S
N1075 S1074 1.613 . S
N1075 C1078 1.350 . S
N1076 S1074 1.610 . S
N1076 C1077 1.351 . S
C1077 C1071 1.428 . S
C1077 N1076 1.351 . S
C1077 C1078 1.434 . S
C1078 C1069 1.429 . S
C1078 N1075 1.350 . S
C1078 C1077 1.434 . S
C1079 C1080 1.369 . S
C1079 C1081 1.419 . S
C1079 H1083 0.930 . S
C1080 C1079 1.369 . S
C1080 C1089 1.429 . S
C1081 C1079 1.419 . S
C1081 C1082 1.363 . S
C1081 H1084 0.929 . S
C1082 C1081 1.363 . S
C1082 C1088 1.428 . S
H1083 C1079 0.930 . S
H1084 C1081 0.929 . S
S1085 N1086 1.613 . S
S1085 N1087 1.610 . S
N1086 S1085 1.613 . S
N1086 C1089 1.350 . S
N1087 S1085 1.610 . S
N1087 C1088 1.351 . S
C1088 C1082 1.428 . S
C1088 N1087 1.351 . S
C1088 C1089 1.434 . S
C1089 C1080 1.429 . S
C1089 N1086 1.350 . S
C1089 C1088 1.434 . S
C1090 C1091 1.369 . S
C1090 C1092 1.419 . S
C1090 H1094 0.930 . S
C1091 C1090 1.369 . S
C1091 C1100 1.429 . S
C1092 C1090 1.419 . S
C1092 C1093 1.363 . S
C1092 H1095 0.929 . S
C1093 C1092 1.363 . S
C1093 C1099 1.428 . S
H1094 C1090 0.930 . S
H1095 C1092 0.929 . S
S1096 N1097 1.613 . S
S1096 N1098 1.610 . S
N1097 S1096 1.613 . S
N1097 C1100 1.350 . S
N1098 S1096 1.610 . S
N1098 C1099 1.351 . S
C1099 C1093 1.428 . S
C1099 N1098 1.351 . S
C1099 C1100 1.434 . S
C1100 C1091 1.429 . S
C1100 N1097 1.350 . S
C1100 C1099 1.434 . S
C1101 C1102 1.369 . S
C1101 C1103 1.419 . S
C1101 H1105 0.930 . S
C1102 C1101 1.369 . S
C1102 C1111 1.429 . S
C1103 C1101 1.419 . S
C1103 C1104 1.363 . S
C1103 H1106 0.929 . S
C1104 C1103 1.363 . S
C1104 C1110 1.428 . S
H1105 C1101 0.930 . S
H1106 C1103 0.929 . S
S1107 N1108 1.613 . S
S1107 N1109 1.610 . S
N1108 S1107 1.613 . S
N1108 C1111 1.350 . S
N1109 S1107 1.610 . S
N1109 C1110 1.351 . S
C1110 C1104 1.428 . S
C1110 N1109 1.351 . S
C1110 C1111 1.434 . S
C1111 C1102 1.429 . S
C1111 N1108 1.350 . S
C1111 C1110 1.434 . S
C1112 C1113 1.369 . S
C1112 C1114 1.419 . S
C1112 H1116 0.930 . S
C1113 C1112 1.369 . S
C1113 C1122 1.429 . S
C1114 C1112 1.419 . S
C1114 C1115 1.363 . S
C1114 H1117 0.929 . S
C1115 C1114 1.363 . S
C1115 C1121 1.428 . S
H1116 C1112 0.930 . S
H1117 C1114 0.929 . S
S1118 N1119 1.613 . S
S1118 N1120 1.610 . S
N1119 S1118 1.613 . S
N1119 C1122 1.350 . S
N1120 S1118 1.610 . S
N1120 C1121 1.351 . S
C1121 C1115 1.428 . S
C1121 N1120 1.351 . S
C1121 C1122 1.434 . S
C1122 C1113 1.429 . S
C1122 N1119 1.350 . S
C1122 C1121 1.434 . S
C1123 C1124 1.369 . S
C1123 C1125 1.419 . S
C1123 H1127 0.930 . S
C1124 C1123 1.369 . S
C1124 C1133 1.429 . S
C1125 C1123 1.419 . S
C1125 C1126 1.363 . S
C1125 H1128 0.929 . S
C1126 C1125 1.363 . S
C1126 C1132 1.428 . S
H1127 C1123 0.930 . S
H1128 C1125 0.929 . S
S1129 N1130 1.613 . S
S1129 N1131 1.610 . S
N1130 S1129 1.613 . S
N1130 C1133 1.350 . S
N1131 S1129 1.610 . S
N1131 C1132 1.351 . S
C1132 C1126 1.428 . S
C1132 N1131 1.351 . S
C1132 C1133 1.434 . S
C1133 C1124 1.429 . S
C1133 N1130 1.350 . S
C1133 C1132 1.434 . S
C1134 C1135 1.369 . S
C1134 C1136 1.419 . S
C1134 H1138 0.930 . S
C1135 C1134 1.369 . S
C1135 C1144 1.429 . S
C1136 C1134 1.419 . S
C1136 C1137 1.363 . S
C1136 H1139 0.929 . S
C1137 C1136 1.363 . S
C1137 C1143 1.428 . S
H1138 C1134 0.930 . S
H1139 C1136 0.929 . S
S1140 N1141 1.613 . S
S1140 N1142 1.610 . S
N1141 S1140 1.613 . S
N1141 C1144 1.350 . S
N1142 S1140 1.610 . S
N1142 C1143 1.351 . S
C1143 C1137 1.428 . S
C1143 N1142 1.351 . S
C1143 C1144 1.434 . S
C1144 C1135 1.429 . S
C1144 N1141 1.350 . S
C1144 C1143 1.434 . S
C1145 C1146 1.369 . S
C1145 C1147 1.419 . S
C1145 H1149 0.930 . S
C1146 C1145 1.369 . S
C1146 C1155 1.429 . S
C1147 C1145 1.419 . S
C1147 C1148 1.363 . S
C1147 H1150 0.929 . S
C1148 C1147 1.363 . S
C1148 C1154 1.428 . S
H1149 C1145 0.930 . S
H1150 C1147 0.929 . S
S1151 N1152 1.613 . S
S1151 N1153 1.610 . S
N1152 S1151 1.613 . S
N1152 C1155 1.350 . S
N1153 S1151 1.610 . S
N1153 C1154 1.351 . S
C1154 C1148 1.428 . S
C1154 N1153 1.351 . S
C1154 C1155 1.434 . S
C1155 C1146 1.429 . S
C1155 N1152 1.350 . S
C1155 C1154 1.434 . S
C1156 C1157 1.369 . S
C1156 C1158 1.419 . S
C1156 H1160 0.930 . S
C1157 C1156 1.369 . S
C1157 C1166 1.429 . S
C1158 C1156 1.419 . S
C1158 C1159 1.363 . S
C1158 H1161 0.929 . S
C1159 C1158 1.363 . S
C1159 C1165 1.428 . S
H1160 C1156 0.930 . S
H1161 C1158 0.929 . S
S1162 N1163 1.613 . S
S1162 N1164 1.610 . S
N1163 S1162 1.613 . S
N1163 C1166 1.350 . S
N1164 S1162 1.610 . S
N1164 C1165 1.351 . S
C1165 C1159 1.428 . S
C1165 N1164 1.351 . S
C1165 C1166 1.434 . S
C1166 C1157 1.429 . S
C1166 N1163 1.350 . S
C1166 C1165 1.434 . S
C1167 C1168 1.369 . S
C1167 C1169 1.419 . S
C1167 H1171 0.930 . S
C1168 C1167 1.369 . S
C1168 C1177 1.429 . S
C1169 C1167 1.419 . S
C1169 C1170 1.363 . S
C1169 H1172 0.929 . S
C1170 C1169 1.363 . S
C1170 C1176 1.428 . S
H1171 C1167 0.930 . S
H1172 C1169 0.929 . S
S1173 N1174 1.613 . S
S1173 N1175 1.610 . S
N1174 S1173 1.613 . S
N1174 C1177 1.350 . S
N1175 S1173 1.610 . S
N1175 C1176 1.351 . S
C1176 C1170 1.428 . S
C1176 N1175 1.351 . S
C1176 C1177 1.434 . S
C1177 C1168 1.429 . S
C1177 N1174 1.350 . S
C1177 C1176 1.434 . S
C1178 C1179 1.369 . S
C1178 C1180 1.419 . S
C1178 H1182 0.930 . S
C1179 C1178 1.369 . S
C1179 C1188 1.429 . S
C1180 C1178 1.419 . S
C1180 C1181 1.363 . S
C1180 H1183 0.929 . S
C1181 C1180 1.363 . S
C1181 C1187 1.428 . S
H1182 C1178 0.930 . S
H1183 C1180 0.929 . S
S1184 N1185 1.613 . S
S1184 N1186 1.610 . S
N1185 S1184 1.613 . S
N1185 C1188 1.350 . S
N1186 S1184 1.610 . S
N1186 C1187 1.351 . S
C1187 C1181 1.428 . S
C1187 N1186 1.351 . S
C1187 C1188 1.434 . S
C1188 C1179 1.429 . S
C1188 N1185 1.350 . S
C1188 C1187 1.434 . S
C1189 C1190 1.369 . S
C1189 C1191 1.419 . S
C1189 H1193 0.930 . S
C1190 C1189 1.369 . S
C1190 C1199 1.429 . S
C1191 C1189 1.419 . S
C1191 C1192 1.363 . S
C1191 H1194 0.929 . S
C1192 C1191 1.363 . S
C1192 C1198 1.428 . S
H1193 C1189 0.930 . S
H1194 C1191 0.929 . S
S1195 N1196 1.613 . S
S1195 N1197 1.610 . S
N1196 S1195 1.613 . S
N1196 C1199 1.350 . S
N1197 S1195 1.610 . S
N1197 C1198 1.351 . S
C1198 C1192 1.428 . S
C1198 N1197 1.351 . S
C1198 C1199 1.434 . S
C1199 C1190 1.429 . S
C1199 N1196 1.350 . S
C1199 C1198 1.434 . S
C1200 C1201 1.369 . S
C1200 C1202 1.419 . S
C1200 H1204 0.930 . S
C1201 C1200 1.369 . S
C1201 C1210 1.429 . S
C1202 C1200 1.419 . S
C1202 C1203 1.363 . S
C1202 H1205 0.929 . S
C1203 C1202 1.363 . S
C1203 C1209 1.428 . S
H1204 C1200 0.930 . S
H1205 C1202 0.929 . S
S1206 N1207 1.613 . S
S1206 N1208 1.610 . S
N1207 S1206 1.613 . S
N1207 C1210 1.350 . S
N1208 S1206 1.610 . S
N1208 C1209 1.351 . S
C1209 C1203 1.428 . S
C1209 N1208 1.351 . S
C1209 C1210 1.434 . S
C1210 C1201 1.429 . S
C1210 N1207 1.350 . S
C1210 C1209 1.434 . S
C1211 C1212 1.369 . S
C1211 C1213 1.419 . S
C1211 H1215 0.930 . S
C1212 C1211 1.369 . S
C1212 C1221 1.429 . S
C1213 C1211 1.419 . S
C1213 C1214 1.363 . S
C1213 H1216 0.929 . S
C1214 C1213 1.363 . S
C1214 C1220 1.428 . S
H1215 C1211 0.930 . S
H1216 C1213 0.929 . S
S1217 N1218 1.613 . S
S1217 N1219 1.610 . S
N1218 S1217 1.613 . S
N1218 C1221 1.350 . S
N1219 S1217 1.610 . S
N1219 C1220 1.351 . S
C1220 C1214 1.428 . S
C1220 N1219 1.351 . S
C1220 C1221 1.434 . S
C1221 C1212 1.429 . S
C1221 N1218 1.350 . S
C1221 C1220 1.434 . S
C1222 C1223 1.369 . S
C1222 C1224 1.419 . S
C1222 H1226 0.930 . S
C1223 C1222 1.369 . S
C1223 C1232 1.429 . S
C1224 C1222 1.419 . S
C1224 C1225 1.363 . S
C1224 H1227 0.929 . S
C1225 C1224 1.363 . S
C1225 C1231 1.428 . S
H1226 C1222 0.930 . S
H1227 C1224 0.929 . S
S1228 N1229 1.613 . S
S1228 N1230 1.610 . S
N1229 S1228 1.613 . S
N1229 C1232 1.350 . S
N1230 S1228 1.610 . S
N1230 C1231 1.351 . S
C1231 C1225 1.428 . S
C1231 N1230 1.351 . S
C1231 C1232 1.434 . S
C1232 C1223 1.429 . S
C1232 N1229 1.350 . S
C1232 C1231 1.434 . S
C1233 C1234 1.369 . S
C1233 C1235 1.419 . S
C1233 H1237 0.930 . S
C1234 C1233 1.369 . S
C1234 C1243 1.429 . S
C1235 C1233 1.419 . S
C1235 C1236 1.363 . S
C1235 H1238 0.929 . S
C1236 C1235 1.363 . S
C1236 C1242 1.428 . S
H1237 C1233 0.930 . S
H1238 C1235 0.929 . S
S1239 N1240 1.613 . S
S1239 N1241 1.610 . S
N1240 S1239 1.613 . S
N1240 C1243 1.350 . S
N1241 S1239 1.610 . S
N1241 C1242 1.351 . S
C1242 C1236 1.428 . S
C1242 N1241 1.351 . S
C1242 C1243 1.434 . S
C1243 C1234 1.429 . S
C1243 N1240 1.350 . S
C1243 C1242 1.434 . S
C1244 C1245 1.369 . S
C1244 C1246 1.419 . S
C1244 H1248 0.930 . S
C1245 C1244 1.369 . S
C1245 C1254 1.429 . S
C1246 C1244 1.419 . S
C1246 C1247 1.363 . S
C1246 H1249 0.929 . S
C1247 C1246 1.363 . S
C1247 C1253 1.428 . S
H1248 C1244 0.930 . S
H1249 C1246 0.929 . S
S1250 N1251 1.613 . S
S1250 N1252 1.610 . S
N1251 S1250 1.613 . S
N1251 C1254 1.350 . S
N1252 S1250 1.610 . S
N1252 C1253 1.351 . S
C1253 C1247 1.428 . S
C1253 N1252 1.351 . S
C1253 C1254 1.434 . S
C1254 C1245 1.429 . S
C1254 N1251 1.350 . S
C1254 C1253 1.434 . S
C1255 C1256 1.369 . S
C1255 C1257 1.419 . S
C1255 H1259 0.930 . S
C1256 C1255 1.369 . S
C1256 C1265 1.429 . S
C1257 C1255 1.419 . S
C1257 C1258 1.363 . S
C1257 H1260 0.929 . S
C1258 C1257 1.363 . S
C1258 C1264 1.428 . S
H1259 C1255 0.930 . S
H1260 C1257 0.929 . S
S1261 N1262 1.613 . S
S1261 N1263 1.610 . S
N1262 S1261 1.613 . S
N1262 C1265 1.350 . S
N1263 S1261 1.610 . S
N1263 C1264 1.351 . S
C1264 C1258 1.428 . S
C1264 N1263 1.351 . S
C1264 C1265 1.434 . S
C1265 C1256 1.429 . S
C1265 N1262 1.350 . S
C1265 C1264 1.434 . S
C1266 C1267 1.369 . S
C1266 C1268 1.419 . S
C1266 H1270 0.930 . S
C1267 C1266 1.369 . S
C1267 C1276 1.429 . S
C1268 C1266 1.419 . S
C1268 C1269 1.363 . S
C1268 H1271 0.929 . S
C1269 C1268 1.363 . S
C1269 C1275 1.428 . S
H1270 C1266 0.930 . S
H1271 C1268 0.929 . S
S1272 N1273 1.613 . S
S1272 N1274 1.610 . S
N1273 S1272 1.613 . S
N1273 C1276 1.350 . S
N1274 S1272 1.610 . S
N1274 C1275 1.351 . S
C1275 C1269 1.428 . S
C1275 N1274 1.351 . S
C1275 C1276 1.434 . S
C1276 C1267 1.429 . S
C1276 N1273 1.350 . S
C1276 C1275 1.434 . S
C1277 C1278 1.369 . S
C1277 C1279 1.419 . S
C1277 H1281 0.930 . S
C1278 C1277 1.369 . S
C1278 C1287 1.429 . S
C1279 C1277 1.419 . S
C1279 C1280 1.363 . S
C1279 H1282 0.929 . S
C1280 C1279 1.363 . S
C1280 C1286 1.428 . S
H1281 C1277 0.930 . S
H1282 C1279 0.929 . S
S1283 N1284 1.613 . S
S1283 N1285 1.610 . S
N1284 S1283 1.613 . S
N1284 C1287 1.350 . S
N1285 S1283 1.610 . S
N1285 C1286 1.351 . S
C1286 C1280 1.428 . S
C1286 N1285 1.351 . S
C1286 C1287 1.434 . S
C1287 C1278 1.429 . S
C1287 N1284 1.350 . S
C1287 C1286 1.434 . S
C1288 C1289 1.369 . S
C1288 C1290 1.419 . S
C1288 H1292 0.930 . S
C1289 C1288 1.369 . S
C1289 C1298 1.429 . S
C1290 C1288 1.419 . S
C1290 C1291 1.363 . S
C1290 H1293 0.929 . S
C1291 C1290 1.363 . S
C1291 C1297 1.428 . S
H1292 C1288 0.930 . S
H1293 C1290 0.929 . S
S1294 N1295 1.613 . S
S1294 N1296 1.610 . S
N1295 S1294 1.613 . S
N1295 C1298 1.350 . S
N1296 S1294 1.610 . S
N1296 C1297 1.351 . S
C1297 C1291 1.428 . S
C1297 N1296 1.351 . S
C1297 C1298 1.434 . S
C1298 C1289 1.429 . S
C1298 N1295 1.350 . S
C1298 C1297 1.434 . S
C1299 C1300 1.369 . S
C1299 C1301 1.419 . S
C1299 H1303 0.930 . S
C1300 C1299 1.369 . S
C1300 C1309 1.429 . S
C1301 C1299 1.419 . S
C1301 C1302 1.363 . S
C1301 H1304 0.929 . S
C1302 C1301 1.363 . S
C1302 C1308 1.428 . S
H1303 C1299 0.930 . S
H1304 C1301 0.929 . S
S1305 N1306 1.613 . S
S1305 N1307 1.610 . S
N1306 S1305 1.613 . S
N1306 C1309 1.350 . S
N1307 S1305 1.610 . S
N1307 C1308 1.351 . S
C1308 C1302 1.428 . S
C1308 N1307 1.351 . S
C1308 C1309 1.434 . S
C1309 C1300 1.429 . S
C1309 N1306 1.350 . S
C1309 C1308 1.434 . S
C1310 C1311 1.369 . S
C1310 C1312 1.419 . S
C1310 H1314 0.930 . S
C1311 C1310 1.369 . S
C1311 C1320 1.429 . S
C1312 C1310 1.419 . S
C1312 C1313 1.363 . S
C1312 H1315 0.929 . S
C1313 C1312 1.363 . S
C1313 C1319 1.428 . S
H1314 C1310 0.930 . S
H1315 C1312 0.929 . S
S1316 N1317 1.613 . S
S1316 N1318 1.610 . S
N1317 S1316 1.613 . S
N1317 C1320 1.350 . S
N1318 S1316 1.610 . S
N1318 C1319 1.351 . S
C1319 C1313 1.428 . S
C1319 N1318 1.351 . S
C1319 C1320 1.434 . S
C1320 C1311 1.429 . S
C1320 N1317 1.350 . S
C1320 C1319 1.434 . S
C1321 C1322 1.369 . S
C1321 C1323 1.419 . S
C1321 H1325 0.930 . S
C1322 C1321 1.369 . S
C1322 C1331 1.429 . S
C1323 C1321 1.419 . S
C1323 C1324 1.363 . S
C1323 H1326 0.929 . S
C1324 C1323 1.363 . S
C1324 C1330 1.428 . S
H1325 C1321 0.930 . S
H1326 C1323 0.929 . S
S1327 N1328 1.613 . S
S1327 N1329 1.610 . S
N1328 S1327 1.613 . S
N1328 C1331 1.350 . S
N1329 S1327 1.610 . S
N1329 C1330 1.351 . S
C1330 C1324 1.428 . S
C1330 N1329 1.351 . S
C1330 C1331 1.434 . S
C1331 C1322 1.429 . S
C1331 N1328 1.350 . S
C1331 C1330 1.434 . S
C1332 C1333 1.369 . S
C1332 C1334 1.419 . S
C1332 H1336 0.930 . S
C1333 C1332 1.369 . S
C1333 C1342 1.429 . S
C1334 C1332 1.419 . S
C1334 C1335 1.363 . S
C1334 H1337 0.929 . S
C1335 C1334 1.363 . S
C1335 C1341 1.428 . S
H1336 C1332 0.930 . S
H1337 C1334 0.929 . S
S1338 N1339 1.613 . S
S1338 N1340 1.610 . S
N1339 S1338 1.613 . S
N1339 C1342 1.350 . S
N1340 S1338 1.610 . S
N1340 C1341 1.351 . S
C1341 C1335 1.428 . S
C1341 N1340 1.351 . S
C1341 C1342 1.434 . S
C1342 C1333 1.429 . S
C1342 N1339 1.350 . S
C1342 C1341 1.434 . S
C1343 C1344 1.369 . S
C1343 C1345 1.419 . S
C1343 H1347 0.930 . S
C1344 C1343 1.369 . S
C1344 C1353 1.429 . S
C1345 C1343 1.419 . S
C1345 C1346 1.363 . S
C1345 H1348 0.929 . S
C1346 C1345 1.363 . S
C1346 C1352 1.428 . S
H1347 C1343 0.930 . S
H1348 C1345 0.929 . S
S1349 N1350 1.613 . S
S1349 N1351 1.610 . S
N1350 S1349 1.613 . S
N1350 C1353 1.350 . S
N1351 S1349 1.610 . S
N1351 C1352 1.351 . S
C1352 C1346 1.428 . S
C1352 N1351 1.351 . S
C1352 C1353 1.434 . S
C1353 C1344 1.429 . S
C1353 N1350 1.350 . S
C1353 C1352 1.434 . S
C1354 C1355 1.369 . S
C1354 C1356 1.419 . S
C1354 H1358 0.930 . S
C1355 C1354 1.369 . S
C1355 C1364 1.429 . S
C1356 C1354 1.419 . S
C1356 C1357 1.363 . S
C1356 H1359 0.929 . S
C1357 C1356 1.363 . S
C1357 C1363 1.428 . S
H1358 C1354 0.930 . S
H1359 C1356 0.929 . S
S1360 N1361 1.613 . S
S1360 N1362 1.610 . S
N1361 S1360 1.613 . S
N1361 C1364 1.350 . S
N1362 S1360 1.610 . S
N1362 C1363 1.351 . S
C1363 C1357 1.428 . S
C1363 N1362 1.351 . S
C1363 C1364 1.434 . S
C1364 C1355 1.429 . S
C1364 N1361 1.350 . S
C1364 C1363 1.434 . S
C1365 C1366 1.369 . S
C1365 C1367 1.419 . S
C1365 H1369 0.930 . S
C1366 C1365 1.369 . S
C1366 C1375 1.429 . S
C1367 C1365 1.419 . S
C1367 C1368 1.363 . S
C1367 H1370 0.929 . S
C1368 C1367 1.363 . S
C1368 C1374 1.428 . S
H1369 C1365 0.930 . S
H1370 C1367 0.929 . S
S1371 N1372 1.613 . S
S1371 N1373 1.610 . S
N1372 S1371 1.613 . S
N1372 C1375 1.350 . S
N1373 S1371 1.610 . S
N1373 C1374 1.351 . S
C1374 C1368 1.428 . S
C1374 N1373 1.351 . S
C1374 C1375 1.434 . S
C1375 C1366 1.429 . S
C1375 N1372 1.350 . S
C1375 C1374 1.434 . S
C1376 C1377 1.369 . S
C1376 C1378 1.419 . S
C1376 H1380 0.930 . S
C1377 C1376 1.369 . S
C1377 C1386 1.429 . S
C1378 C1376 1.419 . S
C1378 C1379 1.363 . S
C1378 H1381 0.929 . S
C1379 C1378 1.363 . S
C1379 C1385 1.428 . S
H1380 C1376 0.930 . S
H1381 C1378 0.929 . S
S1382 N1383 1.613 . S
S1382 N1384 1.610 . S
N1383 S1382 1.613 . S
N1383 C1386 1.350 . S
N1384 S1382 1.610 . S
N1384 C1385 1.351 . S
C1385 C1379 1.428 . S
C1385 N1384 1.351 . S
C1385 C1386 1.434 . S
C1386 C1377 1.429 . S
C1386 N1383 1.350 . S
C1386 C1385 1.434 . S
C1387 C1388 1.369 . S
C1387 C1389 1.419 . S
C1387 H1391 0.930 . S
C1388 C1387 1.369 . S
C1388 C1397 1.429 . S
C1389 C1387 1.419 . S
C1389 C1390 1.363 . S
C1389 H1392 0.929 . S
C1390 C1389 1.363 . S
C1390 C1396 1.428 . S
H1391 C1387 0.930 . S
H1392 C1389 0.929 . S
S1393 N1394 1.613 . S
S1393 N1395 1.610 . S
N1394 S1393 1.613 . S
N1394 C1397 1.350 . S
N1395 S1393 1.610 . S
N1395 C1396 1.351 . S
C1396 C1390 1.428 . S
C1396 N1395 1.351 . S
C1396 C1397 1.434 . S
C1397 C1388 1.429 . S
C1397 N1394 1.350 . S
C1397 C1396 1.434 . S
C1398 C1399 1.369 . S
C1398 C1400 1.419 . S
C1398 H1402 0.930 . S
C1399 C1398 1.369 . S
C1399 C1408 1.429 . S
C1400 C1398 1.419 . S
C1400 C1401 1.363 . S
C1400 H1403 0.929 . S
C1401 C1400 1.363 . S
C1401 C1407 1.428 . S
H1402 C1398 0.930 . S
H1403 C1400 0.929 . S
S1404 N1405 1.613 . S
S1404 N1406 1.610 . S
N1405 S1404 1.613 . S
N1405 C1408 1.350 . S
N1406 S1404 1.610 . S
N1406 C1407 1.351 . S
C1407 C1401 1.428 . S
C1407 N1406 1.351 . S
C1407 C1408 1.434 . S
C1408 C1399 1.429 . S
C1408 N1405 1.350 . S
C1408 C1407 1.434 . S
C1409 C1410 1.369 . S
C1409 C1411 1.419 . S
C1409 H1413 0.930 . S
C1410 C1409 1.369 . S
C1410 C1419 1.429 . S
C1411 C1409 1.419 . S
C1411 C1412 1.363 . S
C1411 H1414 0.929 . S
C1412 C1411 1.363 . S
C1412 C1418 1.428 . S
H1413 C1409 0.930 . S
H1414 C1411 0.929 . S
S1415 N1416 1.613 . S
S1415 N1417 1.610 . S
N1416 S1415 1.613 . S
N1416 C1419 1.350 . S
N1417 S1415 1.610 . S
N1417 C1418 1.351 . S
C1418 C1412 1.428 . S
C1418 N1417 1.351 . S
C1418 C1419 1.434 . S
C1419 C1410 1.429 . S
C1419 N1416 1.350 . S
C1419 C1418 1.434 . S
C1420 C1421 1.369 . S
C1420 C1422 1.419 . S
C1420 H1424 0.930 . S
C1421 C1420 1.369 . S
C1421 C1430 1.429 . S
C1422 C1420 1.419 . S
C1422 C1423 1.363 . S
C1422 H1425 0.929 . S
C1423 C1422 1.363 . S
C1423 C1429 1.428 . S
H1424 C1420 0.930 . S
H1425 C1422 0.929 . S
S1426 N1427 1.613 . S
S1426 N1428 1.610 . S
N1427 S1426 1.613 . S
N1427 C1430 1.350 . S
N1428 S1426 1.610 . S
N1428 C1429 1.351 . S
C1429 C1423 1.428 . S
C1429 N1428 1.351 . S
C1429 C1430 1.434 . S
C1430 C1421 1.429 . S
C1430 N1427 1.350 . S
C1430 C1429 1.434 . S
C1431 C1432 1.369 . S
C1431 C1433 1.419 . S
C1431 H1435 0.930 . S
C1432 C1431 1.369 . S
C1432 C1441 1.429 . S
C1433 C1431 1.419 . S
C1433 C1434 1.363 . S
C1433 H1436 0.929 . S
C1434 C1433 1.363 . S
C1434 C1440 1.428 . S
H1435 C1431 0.930 . S
H1436 C1433 0.929 . S
S1437 N1438 1.613 . S
S1437 N1439 1.610 . S
N1438 S1437 1.613 . S
N1438 C1441 1.350 . S
N1439 S1437 1.610 . S
N1439 C1440 1.351 . S
C1440 C1434 1.428 . S
C1440 N1439 1.351 . S
C1440 C1441 1.434 . S
C1441 C1432 1.429 . S
C1441 N1438 1.350 . S
C1441 C1440 1.434 . S
C1442 C1443 1.369 . S
C1442 C1444 1.419 . S
C1442 H1446 0.930 . S
C1443 C1442 1.369 . S
C1443 C1452 1.429 . S
C1444 C1442 1.419 . S
C1444 C1445 1.363 . S
C1444 H1447 0.929 . S
C1445 C1444 1.363 . S
C1445 C1451 1.428 . S
H1446 C1442 0.930 . S
H1447 C1444 0.929 . S
S1448 N1449 1.613 . S
S1448 N1450 1.610 . S
N1449 S1448 1.613 . S
N1449 C1452 1.350 . S
N1450 S1448 1.610 . S
N1450 C1451 1.351 . S
C1451 C1445 1.428 . S
C1451 N1450 1.351 . S
C1451 C1452 1.434 . S
C1452 C1443 1.429 . S
C1452 N1449 1.350 . S
C1452 C1451 1.434 . S
C1453 C1454 1.369 . S
C1453 C1455 1.419 . S
C1453 H1457 0.930 . S
C1454 C1453 1.369 . S
C1454 C1463 1.429 . S
C1455 C1453 1.419 . S
C1455 C1456 1.363 . S
C1455 H1458 0.929 . S
C1456 C1455 1.363 . S
C1456 C1462 1.428 . S
H1457 C1453 0.930 . S
H1458 C1455 0.929 . S
S1459 N1460 1.613 . S
S1459 N1461 1.610 . S
N1460 S1459 1.613 . S
N1460 C1463 1.350 . S
N1461 S1459 1.610 . S
N1461 C1462 1.351 . S
C1462 C1456 1.428 . S
C1462 N1461 1.351 . S
C1462 C1463 1.434 . S
C1463 C1454 1.429 . S
C1463 N1460 1.350 . S
C1463 C1462 1.434 . S
C1464 C1465 1.369 . S
C1464 C1466 1.419 . S
C1464 H1468 0.930 . S
C1465 C1464 1.369 . S
C1465 C1474 1.429 . S
C1466 C1464 1.419 . S
C1466 C1467 1.363 . S
C1466 H1469 0.929 . S
C1467 C1466 1.363 . S
C1467 C1473 1.428 . S
H1468 C1464 0.930 . S
H1469 C1466 0.929 . S
S1470 N1471 1.613 . S
S1470 N1472 1.610 . S
N1471 S1470 1.613 . S
N1471 C1474 1.350 . S
N1472 S1470 1.610 . S
N1472 C1473 1.351 . S
C1473 C1467 1.428 . S
C1473 N1472 1.351 . S
C1473 C1474 1.434 . S
C1474 C1465 1.429 . S
C1474 N1471 1.350 . S
C1474 C1473 1.434 . S
C1475 C1476 1.369 . S
C1475 C1477 1.419 . S
C1475 H1479 0.930 . S
C1476 C1475 1.369 . S
C1476 C1485 1.429 . S
C1477 C1475 1.419 . S
C1477 C1478 1.363 . S
C1477 H1480 0.929 . S
C1478 C1477 1.363 . S
C1478 C1484 1.428 . S
H1479 C1475 0.930 . S
H1480 C1477 0.929 . S
S1481 N1482 1.613 . S
S1481 N1483 1.610 . S
N1482 S1481 1.613 . S
N1482 C1485 1.350 . S
N1483 S1481 1.610 . S
N1483 C1484 1.351 . S
C1484 C1478 1.428 . S
C1484 N1483 1.351 . S
C1484 C1485 1.434 . S
C1485 C1476 1.429 . S
C1485 N1482 1.350 . S
C1485 C1484 1.434 . S
C1486 C1487 1.369 . S
C1486 C1488 1.419 . S
C1486 H1490 0.930 . S
C1487 C1486 1.369 . S
C1487 C1496 1.429 . S
C1488 C1486 1.419 . S
C1488 C1489 1.363 . S
C1488 H1491 0.929 . S
C1489 C1488 1.363 . S
C1489 C1495 1.428 . S
H1490 C1486 0.930 . S
H1491 C1488 0.929 . S
S1492 N1493 1.613 . S
S1492 N1494 1.610 . S
N1493 S1492 1.613 . S
N1493 C1496 1.350 . S
N1494 S1492 1.610 . S
N1494 C1495 1.351 . S
C1495 C1489 1.428 . S
C1495 N1494 1.351 . S
C1495 C1496 1.434 . S
C1496 C1487 1.429 . S
C1496 N1493 1.350 . S
C1496 C1495 1.434 . S
C1497 C1498 1.369 . S
C1497 C1499 1.419 . S
C1497 H1501 0.930 . S
C1498 C1497 1.369 . S
C1498 C1507 1.429 . S
C1499 C1497 1.419 . S
C1499 C1500 1.363 . S
C1499 H1502 0.929 . S
C1500 C1499 1.363 . S
C1500 C1506 1.428 . S
H1501 C1497 0.930 . S
H1502 C1499 0.929 . S
S1503 N1504 1.613 . S
S1503 N1505 1.610 . S
N1504 S1503 1.613 . S
N1504 C1507 1.350 . S
N1505 S1503 1.610 . S
N1505 C1506 1.351 . S
C1506 C1500 1.428 . S
C1506 N1505 1.351 . S
C1506 C1507 1.434 . S
C1507 C1498 1.429 . S
C1507 N1504 1.350 . S
C1507 C1506 1.434 . S
C1508 C1509 1.369 . S
C1508 C1510 1.419 . S
C1508 H1512 0.930 . S
C1509 C1508 1.369 . S
C1509 C1518 1.429 . S
C1510 C1508 1.419 . S
C1510 C1511 1.363 . S
C1510 H1513 0.929 . S
C1511 C1510 1.363 . S
C1511 C1517 1.428 . S
H1512 C1508 0.930 . S
H1513 C1510 0.929 . S
S1514 N1515 1.613 . S
S1514 N1516 1.610 . S
N1515 S1514 1.613 . S
N1515 C1518 1.350 . S
N1516 S1514 1.610 . S
N1516 C1517 1.351 . S
C1517 C1511 1.428 . S
C1517 N1516 1.351 . S
C1517 C1518 1.434 . S
C1518 C1509 1.429 . S
C1518 N1515 1.350 . S
C1518 C1517 1.434 . S
C1519 C1520 1.369 . S
C1519 C1521 1.419 . S
C1519 H1523 0.930 . S
C1520 C1519 1.369 . S
C1520 C1529 1.429 . S
C1521 C1519 1.419 . S
C1521 C1522 1.363 . S
C1521 H1524 0.929 . S
C1522 C1521 1.363 . S
C1522 C1528 1.428 . S
H1523 C1519 0.930 . S
H1524 C1521 0.929 . S
S1525 N1526 1.613 . S
S1525 N1527 1.610 . S
N1526 S1525 1.613 . S
N1526 C1529 1.350 . S
N1527 S1525 1.610 . S
N1527 C1528 1.351 . S
C1528 C1522 1.428 . S
C1528 N1527 1.351 . S
C1528 C1529 1.434 . S
C1529 C1520 1.429 . S
C1529 N1526 1.350 . S
C1529 C1528 1.434 . S
C1530 C1531 1.369 . S
C1530 C1532 1.419 . S
C1530 H1534 0.930 . S
C1531 C1530 1.369 . S
C1531 C1540 1.429 . S
C1532 C1530 1.419 . S
C1532 C1533 1.363 . S
C1532 H1535 0.929 . S
C1533 C1532 1.363 . S
C1533 C1539 1.428 . S
H1534 C1530 0.930 . S
H1535 C1532 0.929 . S
S1536 N1537 1.613 . S
S1536 N1538 1.610 . S
N1537 S1536 1.613 . S
N1537 C1540 1.350 . S
N1538 S1536 1.610 . S
N1538 C1539 1.351 . S
C1539 C1533 1.428 . S
C1539 N1538 1.351 . S
C1539 C1540 1.434 . S
C1540 C1531 1.429 . S
C1540 N1537 1.350 . S
C1540 C1539 1.434 . S
C1541 C1542 1.369 . S
C1541 C1543 1.419 . S
C1541 H1545 0.930 . S
C1542 C1541 1.369 . S
C1542 C1551 1.429 . S
C1543 C1541 1.419 . S
C1543 C1544 1.363 . S
C1543 H1546 0.929 . S
C1544 C1543 1.363 . S
C1544 C1550 1.428 . S
H1545 C1541 0.930 . S
H1546 C1543 0.929 . S
S1547 N1548 1.613 . S
S1547 N1549 1.610 . S
N1548 S1547 1.613 . S
N1548 C1551 1.350 . S
N1549 S1547 1.610 . S
N1549 C1550 1.351 . S
C1550 C1544 1.428 . S
C1550 N1549 1.351 . S
C1550 C1551 1.434 . S
C1551 C1542 1.429 . S
C1551 N1548 1.350 . S
C1551 C1550 1.434 . S
C1552 C1553 1.369 . S
C1552 C1554 1.419 . S
C1552 H1556 0.930 . S
C1553 C1552 1.369 . S
C1553 C1562 1.429 . S
C1554 C1552 1.419 . S
C1554 C1555 1.363 . S
C1554 H1557 0.929 . S
C1555 C1554 1.363 . S
C1555 C1561 1.428 . S
H1556 C1552 0.930 . S
H1557 C1554 0.929 . S
S1558 N1559 1.613 . S
S1558 N1560 1.610 . S
N1559 S1558 1.613 . S
N1559 C1562 1.350 . S
N1560 S1558 1.610 . S
N1560 C1561 1.351 . S
C1561 C1555 1.428 . S
C1561 N1560 1.351 . S
C1561 C1562 1.434 . S
C1562 C1553 1.429 . S
C1562 N1559 1.350 . S
C1562 C1561 1.434 . S
C1563 C1564 1.369 . S
C1563 C1565 1.419 . S
C1563 H1567 0.930 . S
C1564 C1563 1.369 . S
C1564 C1573 1.429 . S
C1565 C1563 1.419 . S
C1565 C1566 1.363 . S
C1565 H1568 0.929 . S
C1566 C1565 1.363 . S
C1566 C1572 1.428 . S
H1567 C1563 0.930 . S
H1568 C1565 0.929 . S
S1569 N1570 1.613 . S
S1569 N1571 1.610 . S
N1570 S1569 1.613 . S
N1570 C1573 1.350 . S
N1571 S1569 1.610 . S
N1571 C1572 1.351 . S
C1572 C1566 1.428 . S
C1572 N1571 1.351 . S
C1572 C1573 1.434 . S
C1573 C1564 1.429 . S
C1573 N1570 1.350 . S
C1573 C1572 1.434 . S
C1574 C1575 1.369 . S
C1574 C1576 1.419 . S
C1574 H1578 0.930 . S
C1575 C1574 1.369 . S
C1575 C1584 1.429 . S
C1576 C1574 1.419 . S
C1576 C1577 1.363 . S
C1576 H1579 0.929 . S
C1577 C1576 1.363 . S
C1577 C1583 1.428 . S
H1578 C1574 0.930 . S
H1579 C1576 0.929 . S
S1580 N1581 1.613 . S
S1580 N1582 1.610 . S
N1581 S1580 1.613 . S
N1581 C1584 1.350 . S
N1582 S1580 1.610 . S
N1582 C1583 1.351 . S
C1583 C1577 1.428 . S
C1583 N1582 1.351 . S
C1583 C1584 1.434 . S
C1584 C1575 1.429 . S
C1584 N1581 1.350 . S
C1584 C1583 1.434 . S
C1585 C1586 1.369 . S
C1585 C1587 1.419 . S
C1585 H1589 0.930 . S
C1586 C1585 1.369 . S
C1586 C1595 1.429 . S
C1587 C1585 1.419 . S
C1587 C1588 1.363 . S
C1587 H1590 0.929 . S
C1588 C1587 1.363 . S
C1588 C1594 1.428 . S
H1589 C1585 0.930 . S
H1590 C1587 0.929 . S
S1591 N1592 1.613 . S
S1591 N1593 1.610 . S
N1592 S1591 1.613 . S
N1592 C1595 1.350 . S
N1593 S1591 1.610 . S
N1593 C1594 1.351 . S
C1594 C1588 1.428 . S
C1594 N1593 1.351 . S
C1594 C1595 1.434 . S
C1595 C1586 1.429 . S
C1595 N1592 1.350 . S
C1595 C1594 1.434 . S
C1596 C1597 1.369 . S
C1596 C1598 1.419 . S
C1596 H1600 0.930 . S
C1597 C1596 1.369 . S
C1597 C1606 1.429 . S
C1598 C1596 1.419 . S
C1598 C1599 1.363 . S
C1598 H1601 0.929 . S
C1599 C1598 1.363 . S
C1599 C1605 1.428 . S
H1600 C1596 0.930 . S
H1601 C1598 0.929 . S
S1602 N1603 1.613 . S
S1602 N1604 1.610 . S
N1603 S1602 1.613 . S
N1603 C1606 1.350 . S
N1604 S1602 1.610 . S
N1604 C1605 1.351 . S
C1605 C1599 1.428 . S
C1605 N1604 1.351 . S
C1605 C1606 1.434 . S
C1606 C1597 1.429 . S
C1606 N1603 1.350 . S
C1606 C1605 1.434 . S
C1607 C1608 1.369 . S
C1607 C1609 1.419 . S
C1607 H1611 0.930 . S
C1608 C1607 1.369 . S
C1608 C1617 1.429 . S
C1609 C1607 1.419 . S
C1609 C1610 1.363 . S
C1609 H1612 0.929 . S
C1610 C1609 1.363 . S
C1610 C1616 1.428 . S
H1611 C1607 0.930 . S
H1612 C1609 0.929 . S
S1613 N1614 1.613 . S
S1613 N1615 1.610 . S
N1614 S1613 1.613 . S
N1614 C1617 1.350 . S
N1615 S1613 1.610 . S
N1615 C1616 1.351 . S
C1616 C1610 1.428 . S
C1616 N1615 1.351 . S
C1616 C1617 1.434 . S
C1617 C1608 1.429 . S
C1617 N1614 1.350 . S
C1617 C1616 1.434 . S
C1618 C1619 1.369 . S
C1618 C1620 1.419 . S
C1618 H1622 0.930 . S
C1619 C1618 1.369 . S
C1619 C1628 1.429 . S
C1620 C1618 1.419 . S
C1620 C1621 1.363 . S
C1620 H1623 0.929 . S
C1621 C1620 1.363 . S
C1621 C1627 1.428 . S
H1622 C1618 0.930 . S
H1623 C1620 0.929 . S
S1624 N1625 1.613 . S
S1624 N1626 1.610 . S
N1625 S1624 1.613 . S
N1625 C1628 1.350 . S
N1626 S1624 1.610 . S
N1626 C1627 1.351 . S
C1627 C1621 1.428 . S
C1627 N1626 1.351 . S
C1627 C1628 1.434 . S
C1628 C1619 1.429 . S
C1628 N1625 1.350 . S
C1628 C1627 1.434 . S
C1629 C1630 1.369 . S
C1629 C1631 1.419 . S
C1629 H1633 0.930 . S
C1630 C1629 1.369 . S
C1630 C1639 1.429 . S
C1631 C1629 1.419 . S
C1631 C1632 1.363 . S
C1631 H1634 0.929 . S
C1632 C1631 1.363 . S
C1632 C1638 1.428 . S
H1633 C1629 0.930 . S
H1634 C1631 0.929 . S
S1635 N1636 1.613 . S
S1635 N1637 1.610 . S
N1636 S1635 1.613 . S
N1636 C1639 1.350 . S
N1637 S1635 1.610 . S
N1637 C1638 1.351 . S
C1638 C1632 1.428 . S
C1638 N1637 1.351 . S
C1638 C1639 1.434 . S
C1639 C1630 1.429 . S
C1639 N1636 1.350 . S
C1639 C1638 1.434 . S
C1640 C1641 1.369 . S
C1640 C1642 1.419 . S
C1640 H1644 0.930 . S
C1641 C1640 1.369 . S
C1641 C1650 1.429 . S
C1642 C1640 1.419 . S
C1642 C1643 1.363 . S
C1642 H1645 0.929 . S
C1643 C1642 1.363 . S
C1643 C1649 1.428 . S
H1644 C1640 0.930 . S
H1645 C1642 0.929 . S
S1646 N1647 1.613 . S
S1646 N1648 1.610 . S
N1647 S1646 1.613 . S
N1647 C1650 1.350 . S
N1648 S1646 1.610 . S
N1648 C1649 1.351 . S
C1649 C1643 1.428 . S
C1649 N1648 1.351 . S
C1649 C1650 1.434 . S
C1650 C1641 1.429 . S
C1650 N1647 1.350 . S
C1650 C1649 1.434 . S
C1651 C1652 1.369 . S
C1651 C1653 1.419 . S
C1651 H1655 0.930 . S
C1652 C1651 1.369 . S
C1652 C1661 1.429 . S
C1653 C1651 1.419 . S
C1653 C1654 1.363 . S
C1653 H1656 0.929 . S
C1654 C1653 1.363 . S
C1654 C1660 1.428 . S
H1655 C1651 0.930 . S
H1656 C1653 0.929 . S
S1657 N1658 1.613 . S
S1657 N1659 1.610 . S
N1658 S1657 1.613 . S
N1658 C1661 1.350 . S
N1659 S1657 1.610 . S
N1659 C1660 1.351 . S
C1660 C1654 1.428 . S
C1660 N1659 1.351 . S
C1660 C1661 1.434 . S
C1661 C1652 1.429 . S
C1661 N1658 1.350 . S
C1661 C1660 1.434 . S
C1662 C1663 1.369 . S
C1662 C1664 1.419 . S
C1662 H1666 0.930 . S
C1663 C1662 1.369 . S
C1663 C1672 1.429 . S
C1664 C1662 1.419 . S
C1664 C1665 1.363 . S
C1664 H1667 0.929 . S
C1665 C1664 1.363 . S
C1665 C1671 1.428 . S
H1666 C1662 0.930 . S
H1667 C1664 0.929 . S
S1668 N1669 1.613 . S
S1668 N1670 1.610 . S
N1669 S1668 1.613 . S
N1669 C1672 1.350 . S
N1670 S1668 1.610 . S
N1670 C1671 1.351 . S
C1671 C1665 1.428 . S
C1671 N1670 1.351 . S
C1671 C1672 1.434 . S
C1672 C1663 1.429 . S
C1672 N1669 1.350 . S
C1672 C1671 1.434 . S
C1673 C1674 1.369 . S
C1673 C1675 1.419 . S
C1673 H1677 0.930 . S
C1674 C1673 1.369 . S
C1674 C1683 1.429 . S
C1675 C1673 1.419 . S
C1675 C1676 1.363 . S
C1675 H1678 0.929 . S
C1676 C1675 1.363 . S
C1676 C1682 1.428 . S
H1677 C1673 0.930 . S
H1678 C1675 0.929 . S
S1679 N1680 1.613 . S
S1679 N1681 1.610 . S
N1680 S1679 1.613 . S
N1680 C1683 1.350 . S
N1681 S1679 1.610 . S
N1681 C1682 1.351 . S
C1682 C1676 1.428 . S
C1682 N1681 1.351 . S
C1682 C1683 1.434 . S
C1683 C1674 1.429 . S
C1683 N1680 1.350 . S
C1683 C1682 1.434 . S
C1684 C1685 1.369 . S
C1684 C1686 1.419 . S
C1684 H1688 0.930 . S
C1685 C1684 1.369 . S
C1685 C1694 1.429 . S
C1686 C1684 1.419 . S
C1686 C1687 1.363 . S
C1686 H1689 0.929 . S
C1687 C1686 1.363 . S
C1687 C1693 1.428 . S
H1688 C1684 0.930 . S
H1689 C1686 0.929 . S
S1690 N1691 1.613 . S
S1690 N1692 1.610 . S
N1691 S1690 1.613 . S
N1691 C1694 1.350 . S
N1692 S1690 1.610 . S
N1692 C1693 1.351 . S
C1693 C1687 1.428 . S
C1693 N1692 1.351 . S
C1693 C1694 1.434 . S
C1694 C1685 1.429 . S
C1694 N1691 1.350 . S
C1694 C1693 1.434 . S
C1695 C1696 1.369 . S
C1695 C1697 1.419 . S
C1695 H1699 0.930 . S
C1696 C1695 1.369 . S
C1696 C1705 1.429 . S
C1697 C1695 1.419 . S
C1697 C1698 1.363 . S
C1697 H1700 0.929 . S
C1698 C1697 1.363 . S
C1698 C1704 1.428 . S
H1699 C1695 0.930 . S
H1700 C1697 0.929 . S
S1701 N1702 1.613 . S
S1701 N1703 1.610 . S
N1702 S1701 1.613 . S
N1702 C1705 1.350 . S
N1703 S1701 1.610 . S
N1703 C1704 1.351 . S
C1704 C1698 1.428 . S
C1704 N1703 1.351 . S
C1704 C1705 1.434 . S
C1705 C1696 1.429 . S
C1705 N1702 1.350 . S
C1705 C1704 1.434 . S
C1706 C1707 1.369 . S
C1706 C1708 1.419 . S
C1706 H1710 0.930 . S
C1707 C1706 1.369 . S
C1707 C1716 1.429 . S
C1708 C1706 1.419 . S
C1708 C1709 1.363 . S
C1708 H1711 0.929 . S
C1709 C1708 1.363 . S
C1709 C1715 1.428 . S
H1710 C1706 0.930 . S
H1711 C1708 0.929 . S
S1712 N1713 1.613 . S
S1712 N1714 1.610 . S
N1713 S1712 1.613 . S
N1713 C1716 1.350 . S
N1714 S1712 1.610 . S
N1714 C1715 1.351 . S
C1715 C1709 1.428 . S
C1715 N1714 1.351 . S
C1715 C1716 1.434 . S
C1716 C1707 1.429 . S
C1716 N1713 1.350 . S
C1716 C1715 1.434 . S
C1717 C1718 1.369 . S
C1717 C1719 1.419 . S
C1717 H1721 0.930 . S
C1718 C1717 1.369 . S
C1718 C1727 1.429 . S
C1719 C1717 1.419 . S
C1719 C1720 1.363 . S
C1719 H1722 0.929 . S
C1720 C1719 1.363 . S
C1720 C1726 1.428 . S
H1721 C1717 0.930 . S
H1722 C1719 0.929 . S
S1723 N1724 1.613 . S
S1723 N1725 1.610 . S
N1724 S1723 1.613 . S
N1724 C1727 1.350 . S
N1725 S1723 1.610 . S
N1725 C1726 1.351 . S
C1726 C1720 1.428 . S
C1726 N1725 1.351 . S
C1726 C1727 1.434 . S
C1727 C1718 1.429 . S
C1727 N1724 1.350 . S
C1727 C1726 1.434 . S
C673 C440 1.467 . S
C675 C6 1.466 . S
C684 C20 1.467 . S
C686 C398 1.466 . S
C695 C34 1.464 . S
C697 C412 1.464 . S
C706 C426 1.465 . S
C708 C48 1.466 . S
C717 C356 1.462 . S
C719 C62 1.462 . S
C728 C76 1.466 . S
C730 C370 1.465 . S
C739 C384 1.462 . S
C741 C90 1.462 . S
C750 C104 1.462 . S
C752 C342 1.462 . S
C761 C118 1.462 . S
C763 C622 1.462 . S
C772 C580 1.466 . S
C774 C132 1.465 . S
C783 C594 1.467 . S
C785 C146 1.466 . S
C794 C160 1.462 . S
C796 C608 1.463 . S
C805 C174 1.465 . S
C807 C664 1.464 . S
C816 C188 1.467 . S
C818 C636 1.466 . S
C827 C202 1.462 . S
C829 C650 1.463 . S
C838 C566 1.467 . S
C840 C216 1.466 . S
C849 C552 1.462 . S
C851 C230 1.463 . S
C860 C244 1.463 . S
C862 C468 1.464 . S
C871 C482 1.463 . S
C873 C258 1.463 . S
C882 C272 1.466 . S
C884 C496 1.465 . S
C893 C454 1.465 . S
C895 C286 1.464 . S
C904 C524 1.467 . S
C906 C300 1.466 . S
C915 C314 1.465 . S
C917 C538 1.464 . S
C926 C510 1.462 . S
C928 C328 1.463 . S
C937 C134 1.592 . S
C939 C8 1.595 . S
C948 C148 1.594 . S
C950 C22 1.597 . S
C959 C36 1.597 . S
C961 C162 1.594 . S
C970 C120 1.597 . S
C972 C50 1.598 . S
C981 C64 1.593 . S
C983 C218 1.594 . S
C992 C176 1.593 . S
C994 C78 1.594 . S
C1003 C190 1.592 . S
C1005 C92 1.595 . S
C1014 C204 1.599 . S
C1016 C106 1.597 . S
C1025 C260 1.596 . S
C1027 C232 1.594 . S
C1036 C316 1.598 . S
C1038 C246 1.598 . S
C1047 C330 1.595 . S
C1049 C274 1.598 . S
C1058 C288 1.594 . S
C1060 C302 1.597 . S
C1069 C470 1.596 . S
C1071 C344 1.594 . S
C1080 C484 1.597 . S
C1082 C358 1.598 . S
C1091 C498 1.594 . S
C1093 C372 1.593 . S
C1102 C386 1.592 . S
C1104 C456 1.595 . S
C1113 C400 1.599 . S
C1115 C554 1.597 . S
C1124 C414 1.594 . S
C1126 C512 1.593 . S
C1135 C526 1.594 . S
C1137 C428 1.597 . S
C1146 C540 1.594 . S
C1148 C442 1.593 . S
C1157 C568 1.594 . S
C1159 C596 1.593 . S
C1168 C652 1.593 . S
C1170 C582 1.594 . S
C1179 C666 1.592 . S
C1181 C610 1.594 . S
C1190 C638 1.599 . S
C1192 C624 1.597 . S
C1201 C7 1.394 . S
C1203 C261 1.374 1_554 S
C1212 C21 1.399 . S
C1214 C275 1.379 1_554 S
C1223 C35 1.399 . S
C1225 C289 1.380 1_554 S
C1234 C247 1.380 1_554 S
C1236 C49 1.399 . S
C1245 C63 1.396 . S
C1247 C317 1.376 1_556 S
C1256 C77 1.398 . S
C1258 C233 1.378 1_556 S
C1267 C331 1.377 1_556 S
C1269 C91 1.397 . S
C1278 C303 1.380 1_556 S
C1280 C105 1.399 . S
C1289 C119 1.394 . S
C1291 C135 1.373 1_455 S
C1300 C133 1.397 . S
C1302 C149 1.376 1_545 S
C1311 C147 1.395 . S
C1313 C163 1.374 1_655 S
C1322 C121 1.381 1_565 S
C1324 C161 1.399 . S
C1333 C219 1.380 1_455 S
C1335 C175 1.398 . S
C1344 C177 1.373 1_545 S
C1346 C189 1.395 . S
C1355 C191 1.379 1_655 S
C1357 C203 1.398 . S
C1366 C217 1.394 . S
C1368 C205 1.373 1_565 S
C1377 C51 1.372 1_545 S
C1379 C231 1.394 . S
C1388 C79 1.379 1_565 S
C1390 C245 1.398 . S
C1399 C93 1.380 1_455 S
C1401 C259 1.399 . S
C1410 C273 1.398 . S
C1412 C107 1.378 1_545 S
C1421 C65 1.381 1_655 S
C1423 C287 1.399 . S
C1432 C23 1.380 1_565 S
C1434 C301 1.398 . S
C1443 C37 1.379 1_455 S
C1445 C315 1.398 . S
C1454 C9 1.380 1_655 S
C1456 C329 1.399 . S
C1465 C597 1.381 . S
C1467 C343 1.399 . S
C1476 C357 1.399 . S
C1478 C611 1.379 . S
C1487 C625 1.378 . S
C1489 C371 1.398 . S
C1498 C583 1.379 . S
C1500 C385 1.398 . S
C1509 C399 1.394 . S
C1511 C653 1.373 . S
C1520 C413 1.399 . S
C1522 C569 1.380 . S
C1531 C667 1.376 . S
C1533 C427 1.396 . S
C1542 C441 1.395 . S
C1544 C639 1.374 . S
C1553 C455 1.398 . S
C1555 C471 1.379 . S
C1564 C469 1.394 . S
C1566 C485 1.374 . S
C1575 C483 1.395 . S
C1577 C499 1.375 . S
C1586 C497 1.398 . S
C1588 C457 1.378 . S
C1597 C555 1.373 . S
C1599 C511 1.395 . S
C1608 C513 1.375 . S
C1610 C525 1.396 . S
C1619 C527 1.374 . S
C1621 C539 1.395 . S
C1630 C553 1.399 . S
C1632 C541 1.380 . S
C1641 C387 1.374 . S
C1643 C567 1.396 . S
C1652 C415 1.373 . S
C1654 C581 1.395 . S
C1663 C429 1.374 . S
C1665 C595 1.395 . S
C1674 C609 1.399 . S
C1676 C443 1.378 . S
C1685 C401 1.380 . S
C1687 C623 1.398 . S
C1696 C359 1.374 . S
C1698 C637 1.396 . S
C1707 C651 1.398 . S
C1709 C373 1.378 . S
C1718 C345 1.374 . S
C1720 C665 1.396 . S
