# Generated by pormake.
# Topology sxg, (6)-cn, num edge types: 1
# Building blocks:
#     Node 0, Type 0, BuildingBlock: PAMTOO_clean_sbu_0, # of connection points: 6
#     Node 1, Type 0, BuildingBlock: PAMTOO_clean_sbu_0, # of connection points: 6
#     Node 2, Type 0, BuildingBlock: PAMTOO_clean_sbu_0, # of connection points: 6
#     Node 3, Type 0, BuildingBlock: PAMTOO_clean_sbu_0, # of connection points: 6
#     Node 4, Type 0, BuildingBlock: PAMTOO_clean_sbu_0, # of connection points: 6
#     Node 5, Type 0, BuildingBlock: PAMTOO_clean_sbu_0, # of connection points: 6
#     Node 6, Type 0, BuildingBlock: PAMTOO_clean_sbu_0, # of connection points: 6
#     Node 7, Type 0, BuildingBlock: PAMTOO_clean_sbu_0, # of connection points: 6
#     Node 8, Type 0, BuildingBlock: PAMTOO_clean_sbu_0, # of connection points: 6
#     Node 9, Type 0, BuildingBlock: PAMTOO_clean_sbu_0, # of connection points: 6
#     Node 10, Type 0, BuildingBlock: PAMTOO_clean_sbu_0, # of connection points: 6
#     Node 11, Type 0, BuildingBlock: PAMTOO_clean_sbu_0, # of connection points: 6
#     Node 12, Type 0, BuildingBlock: PAMTOO_clean_sbu_0, # of connection points: 6
#     Node 13, Type 0, BuildingBlock: PAMTOO_clean_sbu_0, # of connection points: 6
#     Node 14, Type 0, BuildingBlock: PAMTOO_clean_sbu_0, # of connection points: 6
#     Node 15, Type 0, BuildingBlock: PAMTOO_clean_sbu_0, # of connection points: 6
#     Node 16, Type 0, BuildingBlock: PAMTOO_clean_sbu_0, # of connection points: 6
#     Node 17, Type 0, BuildingBlock: PAMTOO_clean_sbu_0, # of connection points: 6
#     Node 18, Type 0, BuildingBlock: PAMTOO_clean_sbu_0, # of connection points: 6
#     Node 19, Type 0, BuildingBlock: PAMTOO_clean_sbu_0, # of connection points: 6
#     Node 20, Type 0, BuildingBlock: PAMTOO_clean_sbu_0, # of connection points: 6
#     Node 21, Type 0, BuildingBlock: PAMTOO_clean_sbu_0, # of connection points: 6
#     Node 22, Type 0, BuildingBlock: PAMTOO_clean_sbu_0, # of connection points: 6
#     Node 23, Type 0, BuildingBlock: PAMTOO_clean_sbu_0, # of connection points: 6
#     Edge 24, Type (0, 0), BuildingBlock: XIVTED_clean_linker_0, # of connection points: 2
#     Edge 25, Type (0, 0), BuildingBlock: XIVTED_clean_linker_0, # of connection points: 2
#     Edge 26, Type (0, 0), BuildingBlock: XIVTED_clean_linker_0, # of connection points: 2
#     Edge 27, Type (0, 0), BuildingBlock: XIVTED_clean_linker_0, # of connection points: 2
#     Edge 28, Type (0, 0), BuildingBlock: XIVTED_clean_linker_0, # of connection points: 2
#     Edge 29, Type (0, 0), BuildingBlock: XIVTED_clean_linker_0, # of connection points: 2
#     Edge 30, Type (0, 0), BuildingBlock: XIVTED_clean_linker_0, # of connection points: 2
#     Edge 31, Type (0, 0), BuildingBlock: XIVTED_clean_linker_0, # of connection points: 2
#     Edge 32, Type (0, 0), BuildingBlock: XIVTED_clean_linker_0, # of connection points: 2
#     Edge 33, Type (0, 0), BuildingBlock: XIVTED_clean_linker_0, # of connection points: 2
#     Edge 34, Type (0, 0), BuildingBlock: XIVTED_clean_linker_0, # of connection points: 2
#     Edge 35, Type (0, 0), BuildingBlock: XIVTED_clean_linker_0, # of connection points: 2
#     Edge 36, Type (0, 0), BuildingBlock: XIVTED_clean_linker_0, # of connection points: 2
#     Edge 37, Type (0, 0), BuildingBlock: XIVTED_clean_linker_0, # of connection points: 2
#     Edge 38, Type (0, 0), BuildingBlock: XIVTED_clean_linker_0, # of connection points: 2
#     Edge 39, Type (0, 0), BuildingBlock: XIVTED_clean_linker_0, # of connection points: 2
#     Edge 40, Type (0, 0), BuildingBlock: XIVTED_clean_linker_0, # of connection points: 2
#     Edge 41, Type (0, 0), BuildingBlock: XIVTED_clean_linker_0, # of connection points: 2
#     Edge 42, Type (0, 0), BuildingBlock: XIVTED_clean_linker_0, # of connection points: 2
#     Edge 43, Type (0, 0), BuildingBlock: XIVTED_clean_linker_0, # of connection points: 2
#     Edge 44, Type (0, 0), BuildingBlock: XIVTED_clean_linker_0, # of connection points: 2
#     Edge 45, Type (0, 0), BuildingBlock: XIVTED_clean_linker_0, # of connection points: 2
#     Edge 46, Type (0, 0), BuildingBlock: XIVTED_clean_linker_0, # of connection points: 2
#     Edge 47, Type (0, 0), BuildingBlock: XIVTED_clean_linker_0, # of connection points: 2
#     Edge 48, Type (0, 0), BuildingBlock: XIVTED_clean_linker_0, # of connection points: 2
#     Edge 49, Type (0, 0), BuildingBlock: XIVTED_clean_linker_0, # of connection points: 2
#     Edge 50, Type (0, 0), BuildingBlock: XIVTED_clean_linker_0, # of connection points: 2
#     Edge 51, Type (0, 0), BuildingBlock: XIVTED_clean_linker_0, # of connection points: 2
#     Edge 52, Type (0, 0), BuildingBlock: XIVTED_clean_linker_0, # of connection points: 2
#     Edge 53, Type (0, 0), BuildingBlock: XIVTED_clean_linker_0, # of connection points: 2
#     Edge 54, Type (0, 0), BuildingBlock: XIVTED_clean_linker_0, # of connection points: 2
#     Edge 55, Type (0, 0), BuildingBlock: XIVTED_clean_linker_0, # of connection points: 2
#     Edge 56, Type (0, 0), BuildingBlock: XIVTED_clean_linker_0, # of connection points: 2
#     Edge 57, Type (0, 0), BuildingBlock: XIVTED_clean_linker_0, # of connection points: 2
#     Edge 58, Type (0, 0), BuildingBlock: XIVTED_clean_linker_0, # of connection points: 2
#     Edge 59, Type (0, 0), BuildingBlock: XIVTED_clean_linker_0, # of connection points: 2
#     Edge 60, Type (0, 0), BuildingBlock: XIVTED_clean_linker_0, # of connection points: 2
#     Edge 61, Type (0, 0), BuildingBlock: XIVTED_clean_linker_0, # of connection points: 2
#     Edge 62, Type (0, 0), BuildingBlock: XIVTED_clean_linker_0, # of connection points: 2
#     Edge 63, Type (0, 0), BuildingBlock: XIVTED_clean_linker_0, # of connection points: 2
#     Edge 64, Type (0, 0), BuildingBlock: XIVTED_clean_linker_0, # of connection points: 2
#     Edge 65, Type (0, 0), BuildingBlock: XIVTED_clean_linker_0, # of connection points: 2
#     Edge 66, Type (0, 0), BuildingBlock: XIVTED_clean_linker_0, # of connection points: 2
#     Edge 67, Type (0, 0), BuildingBlock: XIVTED_clean_linker_0, # of connection points: 2
#     Edge 68, Type (0, 0), BuildingBlock: XIVTED_clean_linker_0, # of connection points: 2
#     Edge 69, Type (0, 0), BuildingBlock: XIVTED_clean_linker_0, # of connection points: 2
#     Edge 70, Type (0, 0), BuildingBlock: XIVTED_clean_linker_0, # of connection points: 2
#     Edge 71, Type (0, 0), BuildingBlock: XIVTED_clean_linker_0, # of connection points: 2
#     Edge 72, Type (0, 0), BuildingBlock: XIVTED_clean_linker_0, # of connection points: 2
#     Edge 73, Type (0, 0), BuildingBlock: XIVTED_clean_linker_0, # of connection points: 2
#     Edge 74, Type (0, 0), BuildingBlock: XIVTED_clean_linker_0, # of connection points: 2
#     Edge 75, Type (0, 0), BuildingBlock: XIVTED_clean_linker_0, # of connection points: 2
#     Edge 76, Type (0, 0), BuildingBlock: XIVTED_clean_linker_0, # of connection points: 2
#     Edge 77, Type (0, 0), BuildingBlock: XIVTED_clean_linker_0, # of connection points: 2
#     Edge 78, Type (0, 0), BuildingBlock: XIVTED_clean_linker_0, # of connection points: 2
#     Edge 79, Type (0, 0), BuildingBlock: XIVTED_clean_linker_0, # of connection points: 2
#     Edge 80, Type (0, 0), BuildingBlock: XIVTED_clean_linker_0, # of connection points: 2
#     Edge 81, Type (0, 0), BuildingBlock: XIVTED_clean_linker_0, # of connection points: 2
#     Edge 82, Type (0, 0), BuildingBlock: XIVTED_clean_linker_0, # of connection points: 2
#     Edge 83, Type (0, 0), BuildingBlock: XIVTED_clean_linker_0, # of connection points: 2
#     Edge 84, Type (0, 0), BuildingBlock: XIVTED_clean_linker_0, # of connection points: 2
#     Edge 85, Type (0, 0), BuildingBlock: XIVTED_clean_linker_0, # of connection points: 2
#     Edge 86, Type (0, 0), BuildingBlock: XIVTED_clean_linker_0, # of connection points: 2
#     Edge 87, Type (0, 0), BuildingBlock: XIVTED_clean_linker_0, # of connection points: 2
#     Edge 88, Type (0, 0), BuildingBlock: XIVTED_clean_linker_0, # of connection points: 2
#     Edge 89, Type (0, 0), BuildingBlock: XIVTED_clean_linker_0, # of connection points: 2
#     Edge 90, Type (0, 0), BuildingBlock: XIVTED_clean_linker_0, # of connection points: 2
#     Edge 91, Type (0, 0), BuildingBlock: XIVTED_clean_linker_0, # of connection points: 2
#     Edge 92, Type (0, 0), BuildingBlock: XIVTED_clean_linker_0, # of connection points: 2
#     Edge 93, Type (0, 0), BuildingBlock: XIVTED_clean_linker_0, # of connection points: 2
#     Edge 94, Type (0, 0), BuildingBlock: XIVTED_clean_linker_0, # of connection points: 2
#     Edge 95, Type (0, 0), BuildingBlock: XIVTED_clean_linker_0, # of connection points: 2
# Relax obj value: 0.206
# Max RMSD: 0.259
# Mean RMSD: 0.240
data_MOF--net-sxg--node1-PAMTOO_clean_sbu_0--edge1-XIVTED_clean_linker_0
_symmetry_space_group_name_H-M    P1
_symmetry_Int_Tables_number       1
_symmetry_cell_setting            triclinic
loop_
_symmetry_equiv_pos_as_xyz
'x, y, z'
_cell_length_a     49.155748
_cell_length_b     55.571082
_cell_length_c     52.124356
_cell_angle_alpha  90.092032
_cell_angle_beta   83.205279
_cell_angle_gamma 90.381651
loop_
_atom_site_label
_atom_site_type_symbol
_atom_site_fract_x
_atom_site_fract_y
_atom_site_fract_z
_atom_type_partial_charge
Dy0 Dy 0.12613 0.2915 0.27091 0.0
Dy1 Dy 0.10787 0.33737 0.23697 0.0
C2 C 0.14609 0.34592 0.27861 0.0
O3 O 0.08352 0.30079 0.28766 0.0
O4 O 0.08336 0.34051 0.27601 0.0
O5 O 0.15557 0.27409 0.2927 0.0
O6 O 0.11534 0.2583 0.29114 0.0
O7 O 0.07814 0.30748 0.23513 0.0
O8 O 0.10841 0.27685 0.23571 0.0
O9 O 0.14224 0.32025 0.21089 0.0
O10 O 0.16095 0.29526 0.23947 0.0
O11 O 0.09406 0.35118 0.20211 0.0
O12 O 0.09834 0.37516 0.23432 0.0
C13 C 0.07305 0.32243 0.29027 0.0
O14 O 0.13506 0.32676 0.29079 0.0
O15 O 0.14537 0.34793 0.25374 0.0
C16 C 0.15072 0.23146 0.30113 0.0
C17 C 0.1696 0.18483 0.31273 0.0
C18 C 0.18625 0.20535 0.31459 0.0
C19 C 0.17689 0.22833 0.30896 0.0
C20 C 0.13437 0.21091 0.29857 0.0
C21 C 0.14369 0.18796 0.30424 0.0
C22 C 0.13914 0.25606 0.29959 0.0
C23 C 0.08579 0.28572 0.22832 0.0
C24 C 0.16183 0.30581 0.21679 0.0
C25 C 0.05968 0.3802 0.21241 0.0
C26 C 1.00479 0.39559 0.21534 0.0
C27 C 1.01089 0.37109 0.21786 0.0
C28 C 0.03803 0.36349 0.21656 0.0
C29 C 0.05375 0.40466 0.20985 0.0
C30 C 0.02651 0.41232 0.21136 0.0
C31 C 0.0882 0.37224 0.21248 0.0
H32 H 0.20646 0.20372 0.32068 0.0
H33 H 0.18986 0.24378 0.31153 0.0
H34 H 0.1139 0.21257 0.29309 0.0
H35 H 0.13003 0.17276 0.3029 0.0
H36 H 0.99464 0.35782 0.22132 0.0
H37 H 0.04207 0.34456 0.21909 0.0
H38 H 0.07016 0.41784 0.20693 0.0
H39 H 0.02243 0.43129 0.20918 0.0
Dy40 Dy 0.48794 0.73938 0.7846 0.0
Dy41 Dy 0.50749 0.68352 0.76912 0.0
C42 C 0.4551 0.69282 0.81081 0.0
O43 O 0.52816 0.7334 0.79951 0.0
O44 O 0.5253 0.69287 0.8057 0.0
O45 O 0.48288 0.76716 0.81386 0.0
O46 O 0.47603 0.77517 0.77447 0.0
O47 O 0.53783 0.70835 0.74722 0.0
O48 O 0.50984 0.74057 0.74419 0.0
O49 O 0.47376 0.69182 0.74436 0.0
O50 O 0.45319 0.72454 0.76596 0.0
O51 O 0.52579 0.65798 0.74088 0.0
O52 O 0.51285 0.64654 0.78012 0.0
C53 C 0.5343 0.7141 0.81202 0.0
O54 O 0.46131 0.71584 0.81261 0.0
O55 O 0.46782 0.67842 0.79346 0.0
C56 C 0.44968 0.79702 0.80822 0.0
C57 C 0.40493 0.82666 0.827 0.0
C58 C 0.42574 0.82151 0.84249 0.0
C59 C 0.44787 0.80696 0.83316 0.0
C60 C 0.42873 0.80183 0.79281 0.0
C61 C 0.40666 0.81648 0.80209 0.0
C62 C 0.47422 0.78295 0.79826 0.0
C63 C 0.53097 0.72753 0.73485 0.0
C64 C 0.45333 0.70727 0.74869 0.0
C65 C 0.55102 0.62666 0.75833 0.0
C66 C 0.59885 0.59905 0.7606 0.0
C67 C 0.60048 0.62233 0.7498 0.0
C68 C 0.57682 0.63603 0.74876 0.0
C69 C 0.54931 0.6035 0.7691 0.0
C70 C 0.57293 0.58986 0.77029 0.0
C71 C 0.52563 0.6406 0.75773 0.0
H72 H 0.42497 0.8287 0.86187 0.0
H73 H 0.46379 0.80367 0.84541 0.0
H74 H 0.42955 0.79462 0.77342 0.0
H75 H 0.3913 0.82032 0.78941 0.0
H76 H 0.62 0.6299 0.74178 0.0
H77 H 0.57874 0.6539 0.74042 0.0
H78 H 0.52962 0.59597 0.77674 0.0
H79 H 0.57085 0.57221 0.77909 0.0
Dy80 Dy 0.5392 0.23771 0.77451 0.0
Dy81 Dy 0.51672 0.18363 0.79204 0.0
C82 C 0.57133 0.18953 0.75251 0.0
O83 O 0.49848 0.23173 0.76032 0.0
O84 O 0.50095 0.19141 0.75413 0.0
O85 O 0.54518 0.26382 0.7436 0.0
O86 O 0.55105 0.27411 0.78277 0.0
O87 O 0.48735 0.21016 0.81154 0.0
O88 O 0.51769 0.24065 0.815 0.0
O89 O 0.55014 0.19201 0.81735 0.0
O90 O 0.57249 0.22414 0.79567 0.0
O91 O 0.49508 0.16038 0.821 0.0
O92 O 0.51053 0.14623 0.78341 0.0
C93 C 0.49225 0.21252 0.74759 0.0
O94 O 0.56633 0.21251 0.74869 0.0
O95 O 0.5571 0.17667 0.77044 0.0
C96 C 0.57618 0.29582 0.74839 0.0
C97 C 0.61935 0.32729 0.7298 0.0
C98 C 0.59397 0.32827 0.71992 0.0
C99 C 0.57263 0.31273 0.72917 0.0
C100 C 0.60164 0.2943 0.75795 0.0
C101 C 0.62304 0.30993 0.74874 0.0
C102 C 0.55261 0.28081 0.75865 0.0
C103 C 0.49552 0.22872 0.8242 0.0
C104 C 0.57106 0.20728 0.81346 0.0
C105 C 0.46959 0.12966 0.80337 0.0
C106 C 0.42111 0.1042 0.79691 0.0
C107 C 0.42507 0.12784 0.78752 0.0
C108 C 0.44919 0.14046 0.79068 0.0
C109 C 0.46558 0.1063 0.81309 0.0
C110 C 0.44155 0.09368 0.80994 0.0
C111 C 0.49571 0.14201 0.80534 0.0
H112 H 0.59055 0.34109 0.70502 0.0
H113 H 0.55315 0.3141 0.72149 0.0
H114 H 0.60485 0.28133 0.77278 0.0
H115 H 0.64222 0.30882 0.75696 0.0
H116 H 0.40981 0.13639 0.7773 0.0
H117 H 0.45211 0.1585 0.7829 0.0
H118 H 0.48116 0.09772 0.82291 0.0
H119 H 0.43892 0.0757 0.81787 0.0
Dy120 Dy 0.90218 0.7921 0.28858 0.0
Dy121 Dy 0.92294 0.83515 0.32506 0.0
C122 C 0.88542 0.84759 0.2828 0.0
O123 O 0.94192 0.80454 0.26764 0.0
O124 O 0.94953 0.84075 0.28731 0.0
O125 O 0.87242 0.77467 0.26703 0.0
O126 O 0.91292 0.75945 0.26749 0.0
O127 O 0.95265 0.80526 0.32161 0.0
O128 O 0.92049 0.77616 0.32273 0.0
O129 O 0.88793 0.81646 0.3495 0.0
O130 O 0.86636 0.79709 0.3184 0.0
O131 O 0.93649 0.84403 0.36178 0.0
O132 O 0.93373 0.87192 0.3331 0.0
C133 C 0.95514 0.8251 0.26847 0.0
O134 O 0.89373 0.82786 0.27016 0.0
O135 O 0.88764 0.84966 0.3075 0.0
C136 C 0.87732 0.73215 0.25879 0.0
C137 C 0.85688 0.68547 0.24941 0.0
C138 C 0.83911 0.70529 0.25288 0.0
C139 C 0.84923 0.72836 0.25739 0.0
C140 C 0.89497 0.71224 0.25592 0.0
C141 C 0.88488 0.68921 0.25136 0.0
C142 C 0.88882 0.75691 0.25963 0.0
C143 C 0.94438 0.78373 0.32862 0.0
C144 C 0.8666 0.80482 0.34219 0.0
C145 C 0.97135 0.87312 0.35685 0.0
C146 C 0.02624 0.88637 0.36024 0.0
C147 C 0.02 0.86662 0.34502 0.0
C148 C 0.99282 0.86011 0.34329 0.0
C149 C 0.97733 0.89275 0.37213 0.0
C150 C 1.00458 0.89935 0.37382 0.0
C151 C 0.94289 0.86611 0.35477 0.0
H152 H 0.81748 0.70316 0.25121 0.0
H153 H 0.83513 0.74333 0.25898 0.0
H154 H 0.91679 0.71452 0.25647 0.0
H155 H 0.8991 0.67435 0.24916 0.0
H156 H 0.03612 0.85602 0.33461 0.0
H157 H 0.98853 0.84487 0.33139 0.0
H158 H 0.96095 0.90302 0.38262 0.0
H159 H 1.00867 0.91485 0.38543 0.0
Dy160 Dy 0.2603 0.978 0.32531 0.0
Dy161 Dy 0.26209 0.97812 0.38793 0.0
C162 C 0.30212 1.01123 0.3514 0.0
O163 O 0.29437 0.9534 0.33159 0.0
O164 O 0.27966 0.94272 0.37349 0.0
O165 O 0.27821 0.98348 0.28581 0.0
O166 O 0.23644 0.97036 0.29422 0.0
O167 O 0.22147 0.96357 0.38029 0.0
O168 O 0.23567 0.94656 0.34143 0.0
O169 O 0.24707 0.01513 0.37878 0.0
O170 O 0.22835 1.0037 0.34238 0.0
O171 O 0.24089 0.97693 0.42681 0.0
O172 O 0.28511 0.97724 0.42076 0.0
C173 C 0.29511 0.93907 0.35146 0.0
O174 O 0.28488 1.01059 0.33398 0.0
O175 O 0.30083 0.99513 0.36985 0.0
C176 C 0.24593 0.99649 0.25915 0.0
C177 C 0.2315 0.03271 0.22581 0.0
C178 C 0.22195 0.03352 0.25231 0.0
C179 C 0.22925 0.0156 0.26887 0.0
C180 C 0.25452 0.995 0.23268 0.0
C181 C 0.24742 0.01298 0.21611 0.0
C182 C 0.25523 0.97855 0.27661 0.0
C183 C 0.2176 0.94836 0.36188 0.0
C184 C 0.2314 0.01965 0.36048 0.0
C185 C 0.26363 0.9508 0.4524 0.0
C186 C 0.25797 0.90614 0.47834 0.0
C187 C 0.2742 0.9082 0.45437 0.0
C188 C 0.27692 0.93024 0.44152 0.0
C189 C 0.24831 0.9491 0.4768 0.0
C190 C 0.24556 0.92695 0.48974 0.0
C191 C 0.26338 0.97309 0.43707 0.0
H192 H 0.20951 0.04833 0.26036 0.0
H193 H 0.22242 0.01696 0.28935 0.0
H194 H 0.26744 0.98035 0.22493 0.0
H195 H 0.25564 1.012 0.19593 0.0
H196 H 0.28434 0.89262 0.44522 0.0
H197 H 0.28875 0.931 0.42267 0.0
H198 H 0.23768 0.96468 0.48542 0.0
H199 H 0.23272 0.92592 0.50807 0.0
Dy200 Dy 0.2043 0.97237 0.84405 0.0
Dy201 Dy 0.23514 0.99871 0.89156 0.0
C202 C 0.18981 0.95731 0.90402 0.0
O203 O 0.18069 1.00583 0.85595 0.0
O204 O 0.21516 0.02772 0.87099 0.0
O205 O 0.16876 0.95577 0.82944 0.0
O206 O 0.20631 0.96213 0.80402 0.0
O207 O 0.26424 1.00148 0.85585 0.0
O208 O 0.2336 1.00048 0.82577 0.0
O209 O 0.25281 0.96147 0.88858 0.0
O210 O 0.2412 0.95029 0.84831 0.0
O211 O 0.27034 1.01129 0.90932 0.0
O212 O 0.2294 0.01858 0.92753 0.0
C213 C 0.19185 0.02663 0.86108 0.0
O214 O 0.19272 0.94989 0.87981 0.0
O215 O 0.19863 0.97862 0.91036 0.0
C216 C 0.17682 0.93132 0.79094 0.0
C217 C 0.16909 0.89387 0.75508 0.0
C218 C 0.14767 0.90972 0.76368 0.0
C219 C 0.15152 0.92817 0.78133 0.0
C220 C 0.19803 0.91509 0.7831 0.0
C221 C 0.19419 0.89658 0.76545 0.0
C222 C 0.18149 0.95335 0.80612 0.0
C223 C 0.25794 1.00546 0.83255 0.0
C224 C 0.25513 0.94717 0.86815 0.0
C225 C 0.26344 0.0477 0.9335 0.0
C226 C 0.27663 0.09582 0.94601 0.0
C227 C 0.27774 0.08837 0.92003 0.0
C228 C 0.27107 0.06457 0.91383 0.0
C229 C 0.26265 0.05499 0.95932 0.0
C230 C 0.26914 0.0787 0.96552 0.0
C231 C 0.2555 0.02265 0.92784 0.0
H232 H 0.12791 0.90803 0.7566 0.0
H233 H 0.13488 0.94052 0.78688 0.0
H234 H 0.21787 0.91715 0.78997 0.0
H235 H 0.21129 0.88494 0.75922 0.0
H236 H 0.28322 0.10106 0.9045 0.0
H237 H 0.27164 0.0594 0.89372 0.0
H238 H 0.25685 0.04231 0.97482 0.0
H239 H 0.26849 0.08357 0.98571 0.0
Dy240 Dy 0.81872 0.46951 0.71622 0.0
Dy241 Dy 0.79324 0.50279 0.67068 0.0
C242 C 0.83348 0.45763 0.65448 0.0
O243 O 0.83741 0.50637 0.71739 0.0
O244 O 0.83148 0.52239 0.67778 0.0
O245 O 0.85141 0.4511 0.73308 0.0
O246 O 0.81169 0.45603 0.75531 0.0
O247 O 0.78416 0.52062 0.70868 0.0
O248 O 0.77808 0.48605 0.73168 0.0
O249 O 0.76352 0.47229 0.68178 0.0
O250 O 0.79058 0.44438 0.69939 0.0
O251 O 0.75732 0.5205 0.65961 0.0
O252 O 0.79583 0.52217 0.63456 0.0
C253 C 0.84194 0.5234 0.69983 0.0
O254 O 0.83995 0.45507 0.6783 0.0
O255 O 0.81522 0.47321 0.64847 0.0
C256 C 0.84003 0.42563 0.77089 0.0
C257 C 0.85149 0.38845 0.80558 0.0
C258 C 0.86542 0.38962 0.78034 0.0
C259 C 0.85992 0.40811 0.76326 0.0
C260 C 0.8256 0.42396 0.7958 0.0
C261 C 0.83121 0.4057 0.81286 0.0
C262 C 0.83633 0.44749 0.75513 0.0
C263 C 0.77214 0.50878 0.72845 0.0
C264 C 0.76802 0.45027 0.68979 0.0
C265 C 0.76599 0.55598 0.63456 0.0
C266 C 0.75595 0.60475 0.62307 0.0
C267 C 0.78257 0.59701 0.62625 0.0
C268 C 0.78754 0.57291 0.63202 0.0
C269 C 0.73936 0.56378 0.63192 0.0
C270 C 0.73436 0.58786 0.62633 0.0
C271 C 0.77072 0.53007 0.63898 0.0
H272 H 0.88128 0.37675 0.77407 0.0
H273 H 0.87173 0.40903 0.74438 0.0
H274 H 0.81042 0.43732 0.80247 0.0
H275 H 0.81974 0.40522 0.83191 0.0
H276 H 0.79962 0.60958 0.62415 0.0
H277 H 0.80828 0.5675 0.63415 0.0
H278 H 0.72241 0.55108 0.63372 0.0
H279 H 0.71368 0.59306 0.6237 0.0
Dy280 Dy 0.7542 0.47421 0.23625 0.0
Dy281 Dy 0.77634 0.47417 0.1746 0.0
C282 C 0.72352 0.50392 0.19483 0.0
O283 O 0.75032 0.43692 0.2215 0.0
O284 O 0.74119 0.44803 0.1817 0.0
O285 O 0.72284 0.46107 0.26535 0.0
O286 O 0.75666 0.4825 0.27641 0.0
O287 O 0.80015 0.44703 0.19388 0.0
O288 O 0.79882 0.46522 0.23322 0.0
O289 O 0.79637 0.50677 0.19073 0.0
O290 O 0.7673 0.51198 0.22834 0.0
O291 O 0.80995 0.47257 0.14393 0.0
O292 O 0.76804 0.47177 0.13491 0.0
C293 C 0.73839 0.43264 0.20086 0.0
O294 O 0.72098 0.49158 0.21653 0.0
O295 O 0.74532 0.50285 0.17784 0.0
C296 C 0.71218 0.49011 0.29711 0.0
C297 C 0.67012 0.52084 0.31858 0.0
C298 C 0.66957 0.4962 0.3249 0.0
C299 C 0.69047 0.48098 0.31424 0.0
C300 C 0.71276 0.51463 0.29069 0.0
C301 C 0.69208 0.52986 0.30146 0.0
C302 C 0.73222 0.47365 0.28355 0.0
C303 C 0.81107 0.45117 0.21521 0.0
C304 C 0.78678 0.5199 0.21094 0.0
C305 C 0.79889 0.44595 0.11105 0.0
C306 C 0.80194 0.40118 0.0852 0.0
C307 C 0.81471 0.40461 0.10772 0.0
C308 C 0.81305 0.42668 0.1206 0.0
C309 C 0.78698 0.44291 0.08808 0.0
C310 C 0.78846 0.42073 0.07526 0.0
C311 C 0.79368 0.46811 0.12638 0.0
H312 H 0.65284 0.48862 0.33781 0.0
H313 H 0.68938 0.46198 0.31893 0.0
H314 H 0.72903 0.52202 0.27707 0.0
H315 H 0.69354 0.54879 0.29656 0.0
H316 H 0.82579 0.39014 0.11562 0.0
H317 H 0.82225 0.4284 0.13841 0.0
H318 H 0.77569 0.45746 0.08055 0.0
H319 H 0.77822 0.41869 0.0581 0.0
Dy320 Dy 0.36967 0.29387 0.03917 0.0
Dy321 Dy 0.37623 0.24033 0.06147 0.0
C322 C 0.33579 0.24914 1.0219 0.0
O323 O 0.33239 0.28965 0.06774 0.0
O324 O 0.34626 0.2583 0.09159 0.0
O325 O 0.34578 0.32149 1.02368 0.0
O326 O 0.38765 0.32906 0.03085 0.0
O327 O 0.41187 0.26152 0.07175 0.0
O328 O 0.38824 0.29638 0.0769 0.0
O329 O 0.39807 0.23953 1.0209 0.0
O330 O 0.40689 0.27978 1.01529 0.0
O331 O 0.38425 0.21601 0.09188 0.0
O332 O 0.37525 0.20202 0.05491 0.0
C333 C 0.32916 0.27594 0.08838 0.0
O334 O 0.35174 0.26702 1.01266 0.0
O335 O 0.33637 0.24246 0.04578 0.0
C336 C 0.37024 0.35117 0.99769 0.0
C337 C 0.37226 0.38027 0.95324 0.0
C338 C 0.36926 0.35511 0.9514 0.0
C339 C 0.36828 0.34065 0.97348 0.0
C340 C 0.37464 0.376 0.99939 0.0
C341 C 0.37566 0.39043 0.9774 0.0
C342 C 0.36588 0.33711 1.02168 0.0
C343 C 0.40793 0.2824 0.08318 0.0
C344 C 0.41047 0.25742 1.0076 0.0
C345 C 0.3545 0.18293 0.09191 0.0
C346 C 0.30963 0.15587 0.11468 0.0
C347 C 0.30758 0.18092 0.1124 0.0
C348 C 0.32979 0.19432 0.10096 0.0
C349 C 0.35663 0.15795 0.09392 0.0
C350 C 0.3343 0.14447 0.10523 0.0
C351 C 0.37724 0.19719 0.07908 0.0
H352 H 0.36689 0.34669 0.93304 0.0
H353 H 0.36511 0.32143 0.97179 0.0
H354 H 0.3762 0.3844 1.01794 0.0
H355 H 0.37758 0.40972 0.97967 0.0
H356 H 0.28877 0.19011 0.11937 0.0
H357 H 0.32765 0.21359 0.09908 0.0
H358 H 0.37548 0.14892 0.08675 0.0
H359 H 0.33653 0.12519 0.1071 0.0
Dy360 Dy 0.85784 0.20605 0.95496 0.0
Dy361 Dy 0.9056 0.235 0.98476 0.0
C362 C 0.92146 0.20125 0.93491 0.0
O363 O 0.86199 0.18494 0.99095 0.0
O364 O 0.90223 0.19905 1.00429 0.0
O365 O 0.84109 0.19054 0.92198 0.0
O366 O 0.81779 0.18917 0.95993 0.0
O367 O 0.86497 0.23696 1.00834 0.0
O368 O 0.83986 0.23918 0.97466 0.0
O369 O 0.89255 0.26199 0.95596 0.0
O370 O 0.87039 0.23718 0.92919 0.0
O371 O 0.91726 0.26371 1.00979 0.0
O372 O 0.94744 0.23825 0.99279 0.0
C373 C 0.88152 0.1838 1.00615 0.0
O374 O 0.89785 0.18965 0.93852 0.0
O375 O 0.92603 0.22108 0.94748 0.0
C376 C 0.79201 0.1894 0.92409 0.0
C377 C 0.74236 0.19472 0.90188 0.0
C378 C 0.76701 0.20498 0.89003 0.0
C379 C 0.79156 0.20234 0.90099 0.0
C380 C 0.76742 0.1794 0.93605 0.0
C381 C 0.74291 0.18207 0.92517 0.0
C382 C 0.81783 0.18473 0.93535 0.0
C383 C 0.84381 0.24526 0.99826 0.0
C384 C 0.88144 0.25802 0.93436 0.0
C385 C 0.95428 0.25412 0.0341 0.0
C386 C 0.98108 0.25328 0.07952 0.0
C387 C 0.96532 0.27322 0.07378 0.0
C388 C 0.9522 0.27366 0.05132 0.0
C389 C 0.9696 0.23395 0.04005 0.0
C390 C 0.98286 0.23358 0.06243 0.0
C391 C 0.94233 0.25584 1.00923 0.0
H392 H 0.76752 0.2146 0.87194 0.0
H393 H 0.81018 0.21015 0.89117 0.0
H394 H 0.76719 0.16923 0.9538 0.0
H395 H 0.72437 0.17425 0.93512 0.0
H396 H 0.96375 0.28886 0.08629 0.0
H397 H 0.94086 0.28955 0.04714 0.0
H398 H 0.97174 0.21855 1.02723 0.0
H399 H 0.99453 0.21781 0.06636 0.0
Dy400 Dy 0.65922 0.7929 0.5184 0.0
Dy401 Dy 0.65048 0.73905 0.49721 0.0
C402 C 0.69202 0.74817 0.53815 0.0
O403 O 0.69637 0.78575 0.49064 0.0
O404 O 0.67905 0.75686 0.46552 0.0
O405 O 0.68489 0.82124 0.53058 0.0
O406 O 0.64163 0.82767 0.52891 0.0
O407 O 0.61782 0.76143 0.48338 0.0
O408 O 0.64153 0.79665 0.48032 0.0
O409 O 0.63439 0.73863 0.53951 0.0
O410 O 0.62258 0.77812 0.54329 0.0
O411 O 0.62281 0.70878 0.4973 0.0
O412 O 0.66353 0.70683 0.47624 0.0
C413 C 0.69807 0.77294 0.46932 0.0
O414 O 0.67881 0.76812 0.54532 0.0
O415 O 0.68829 0.73723 0.51656 0.0
C416 C 0.6631 0.84917 0.56024 0.0
C417 C 0.66474 0.87607 0.60596 0.0
C418 C 0.66947 0.8511 0.60575 0.0
C419 C 0.66856 0.83773 0.58306 0.0
C420 C 0.65752 0.87383 0.56059 0.0
C421 C 0.65831 0.88716 0.5832 0.0
C422 C 0.66459 0.83618 0.53554 0.0
C423 C 0.62242 0.78256 0.4727 0.0
C424 C 0.62102 0.75609 0.55241 0.0
C425 C 0.62783 0.68435 0.45988 0.0
C426 C 0.6087 0.65458 0.42195 0.0
C427 C 0.59312 0.65747 0.44613 0.0
C428 C 0.60269 0.67211 0.46496 0.0
C429 C 0.64242 0.68291 0.43509 0.0
C430 C 0.63292 0.66818 0.41631 0.0
C431 C 0.63963 0.6964 0.48127 0.0
H432 H 0.67425 0.842 0.623 0.0
H433 H 0.67275 0.81861 0.58318 0.0
H434 H 0.65332 0.88295 0.54313 0.0
H435 H 0.65501 0.90639 0.5825 0.0
H436 H 0.57423 0.64747 0.45096 0.0
H437 H 0.591 0.67299 0.48391 0.0
H438 H 0.66184 0.69218 0.43054 0.0
H439 H 0.64565 0.66617 0.39801 0.0
Dy440 Dy 0.17215 0.71143 0.60045 0.0
Dy441 Dy 0.12543 0.74114 0.57061 0.0
C442 C 0.10835 0.70804 0.62035 0.0
O443 O 0.16819 0.69101 0.56404 0.0
O444 O 0.12807 0.70506 0.55096 0.0
O445 O 0.18709 0.69489 0.63365 0.0
O446 O 0.21142 0.69367 0.59621 0.0
O447 O 0.16623 0.74459 0.54743 0.0
O448 O 0.19196 0.7442 0.58101 0.0
O449 O 0.13847 0.76785 0.60001 0.0
O450 O 0.16209 0.74333 0.62561 0.0
O451 O 0.11372 0.76961 0.54574 0.0
O452 O 0.08332 0.74431 0.56329 0.0
C453 C 0.14853 0.68977 0.54904 0.0
O454 O 0.13127 0.69574 0.61635 0.0
O455 O 0.10503 0.7283 0.60833 0.0
C456 C 0.2354 0.69117 0.63291 0.0
C457 C 0.28469 0.6954 0.65577 0.0
C458 C 0.2689 0.7159 0.65182 0.0
C459 C 0.24448 0.7138 0.64045 0.0
C460 C 0.25102 0.67077 0.63678 0.0
C461 C 0.27535 0.67282 0.64808 0.0
C462 C 0.21007 0.68813 0.62062 0.0
C463 C 0.18795 0.75155 0.55782 0.0
C464 C 0.15078 0.76405 0.62096 0.0
C465 C 0.07506 0.76084 0.52334 0.0
C466 C 0.04705 0.7568 0.47898 0.0
C467 C 0.07345 0.74704 0.47913 0.0
C468 C 0.08728 0.74893 0.50117 0.0
C469 C 0.04889 0.77068 0.52317 0.0
C470 C 0.03504 0.76869 0.50131 0.0
C471 C 0.08825 0.76229 0.54735 0.0
H472 H 0.27556 0.73361 0.65723 0.0
H473 H 0.23276 0.7298 0.63747 0.0
H474 H 0.24433 0.65314 0.63108 0.0
H475 H 0.28661 0.6566 0.65116 0.0
H476 H 0.08325 0.7376 0.46237 0.0
H477 H 0.10734 0.74093 0.50099 0.0
H478 H 0.03903 0.77985 0.54012 0.0
H479 H 0.01499 0.77677 0.50182 0.0
Dy480 Dy 0.92634 0.692 0.82179 0.0
Dy481 Dy 0.90375 0.73575 0.78728 0.0
C482 C 0.94529 0.74438 0.82827 0.0
O483 O 0.89141 0.70848 0.84786 0.0
O484 O 0.86918 0.72935 0.81834 0.0
O485 O 0.94232 0.68094 0.85669 0.0
O486 O 0.9371 0.65478 0.82661 0.0
O487 O 0.89646 0.69996 0.76806 0.0
O488 O 0.88985 0.6783 0.80524 0.0
O489 O 0.94487 0.72636 0.76698 0.0
O490 O 0.95153 0.68862 0.78314 0.0
O491 O 0.87324 0.75102 0.76508 0.0
O492 O 0.91162 0.76991 0.76818 0.0
C493 C 0.86994 0.72033 0.84157 0.0
O494 O 0.9545 0.72333 0.82057 0.0
O495 O 0.92148 0.75153 0.82196 0.0
C496 C 0.97688 0.65187 0.84721 0.0
C497 C 0.03197 0.63698 0.8426 0.0
C498 C 0.02552 0.66138 0.83999 0.0
C499 C 0.99824 0.66874 0.8421 0.0
C500 C 0.9832 0.62753 0.84998 0.0
C501 C 1.01053 0.62011 0.84764 0.0
C502 C 0.94816 0.65937 0.84767 0.0
C503 C 0.88781 0.68023 0.78055 0.0
C504 C 0.95783 0.7057 0.76599 0.0
C505 C 0.87487 0.79338 0.7554 0.0
C506 C 0.85561 0.83962 0.74347 0.0
C507 C 0.86803 0.83577 0.76619 0.0
C508 C 0.87767 0.81291 0.77204 0.0
C509 C 0.86158 0.79693 0.73335 0.0
C510 C 0.85211 0.81971 0.72741 0.0
C511 C 0.88831 0.76997 0.7585 0.0
H512 H 0.04157 0.67474 0.83577 0.0
H513 H 0.99387 0.68759 0.83937 0.0
H514 H 0.96699 0.61423 0.85363 0.0
H515 H 0.01491 0.60121 0.84994 0.0
H516 H 0.87068 0.85049 0.77931 0.0
H517 H 0.88791 0.81067 0.78916 0.0
H518 H 0.85949 0.7822 0.72006 0.0
H519 H 0.84309 0.82184 0.70959 0.0
Dy520 Dy 0.52309 0.34195 0.28383 0.0
Dy521 Dy 0.54414 0.28547 0.28131 0.0
C522 C 0.4958 0.30221 0.32464 0.0
O523 O 0.56201 0.34103 0.30271 0.0
O524 O 0.55768 0.30207 0.31673 0.0
O525 O 0.51016 0.37428 0.30514 0.0
O526 O 0.51253 0.37362 0.26343 0.0
O527 O 0.57967 0.30609 0.26109 0.0
O528 O 0.5577 0.34098 0.25192 0.0
O529 O 0.52673 0.29388 0.24452 0.0
O530 O 0.49487 0.32101 0.26113 0.0
O531 O 0.53771 0.24846 0.26998 0.0
O532 O 0.57232 0.25806 0.29015 0.0
C533 C 0.5691 0.32344 0.31744 0.0
O534 O 0.50199 0.32491 0.31971 0.0
O535 O 0.50555 0.2848 0.30909 0.0
C536 C 0.47923 0.39898 0.28569 0.0
C537 C 0.43031 0.42568 0.2868 0.0
C538 C 0.43214 0.40233 0.27617 0.0
C539 C 0.45634 0.38909 0.27566 0.0
C540 C 0.4775 0.42214 0.2964 0.0
C541 C 0.45331 0.43536 0.29699 0.0
C542 C 0.50532 0.38586 0.28445 0.0
C543 C 0.57927 0.32694 0.24922 0.0
C544 C 0.50399 0.30575 0.24287 0.0
C545 C 0.57797 0.22493 0.2619 0.0
C546 C 0.61624 0.19369 0.23461 0.0
C547 C 0.61682 0.21855 0.22924 0.0
C548 C 0.59785 0.23405 0.24278 0.0
C549 C 0.57665 0.20013 0.26663 0.0
C550 C 0.59556 0.18464 0.25314 0.0
C551 C 0.56004 0.24103 0.27863 0.0
H552 H 0.41497 0.39437 0.26792 0.0
H553 H 0.45725 0.37123 0.26724 0.0
H554 H 0.49494 0.43007 0.30426 0.0
H555 H 0.45255 0.45305 0.30578 0.0
H556 H 0.63223 0.2261 0.21487 0.0
H557 H 0.59917 0.25319 0.23887 0.0
H558 H 0.56154 0.19281 0.28144 0.0
H559 H 0.59466 0.16571 0.25807 0.0
Dy560 Dy 0.50625 0.84285 0.27283 0.0
Dy561 Dy 0.48505 0.78638 0.27578 0.0
C562 C 0.5324 0.80324 0.23153 0.0
O563 O 0.46738 0.84177 0.25388 0.0
O564 O 0.47041 0.80244 0.24069 0.0
O565 O 0.52101 0.8747 0.25139 0.0
O566 O 0.51533 0.87517 0.29317 0.0
O567 O 0.44916 0.80696 0.29481 0.0
O568 O 0.4714 0.84176 0.30463 0.0
O569 O 0.5024 0.79569 0.3125 0.0
O570 O 0.53471 0.82241 0.29537 0.0
O571 O 0.49085 0.74997 0.28921 0.0
O572 O 0.45796 0.75796 0.26641 0.0
C573 C 0.45952 0.82391 0.23975 0.0
O574 O 0.52612 0.82588 0.23642 0.0
O575 O 0.52331 0.78588 0.24755 0.0
C576 C 0.55057 0.89982 0.27244 0.0
C577 C 0.59987 0.92603 0.2737 0.0
C578 C 0.59641 0.90316 0.28531 0.0
C579 C 0.57202 0.89015 0.28463 0.0
C580 C 0.55389 0.92254 0.26085 0.0
C581 C 0.57829 0.93551 0.26142 0.0
C582 C 0.52437 0.88685 0.2722 0.0
C583 C 0.44951 0.82787 0.30662 0.0
C584 C 0.52548 0.8074 0.31386 0.0
C585 C 0.45007 0.72626 0.29697 0.0
C586 C 0.41363 0.6932 0.32472 0.0
C587 C 0.40385 0.71463 0.31482 0.0
C588 C 0.42184 0.73099 0.3012 0.0
C589 C 0.46002 0.70527 0.30743 0.0
C590 C 0.44205 0.68896 0.32124 0.0
C591 C 0.46897 0.74186 0.28004 0.0
H592 H 0.61243 0.89538 0.29516 0.0
H593 H 0.56986 0.87263 0.29375 0.0
H594 H 0.53758 0.93027 0.25132 0.0
H595 H 0.58037 0.95282 0.25184 0.0
H596 H 0.38213 0.71843 0.3167 0.0
H597 H 0.41346 0.74699 0.29336 0.0
H598 H 0.48169 0.70119 0.30441 0.0
H599 H 0.45043 0.67289 0.32891 0.0
Dy600 Dy 0.10306 0.19131 0.73277 0.0
Dy601 Dy 0.12477 0.23484 0.76841 0.0
C602 C 0.0843 0.24309 0.72678 0.0
O603 O 0.13923 0.20832 0.70844 0.0
O604 O 0.16064 0.22867 0.73906 0.0
O605 O 0.08904 0.18241 0.69623 0.0
O606 O 0.09144 0.15469 0.72513 0.0
O607 O 0.13286 0.19931 0.78752 0.0
O608 O 0.13734 0.17591 0.75112 0.0
O609 O 0.08434 0.22348 0.78894 0.0
O610 O 0.07674 0.18661 0.77069 0.0
O611 O 0.15451 0.25195 0.79043 0.0
O612 O 0.1148 0.26827 0.78816 0.0
C613 C 0.16057 0.22002 0.71562 0.0
O614 O 0.07479 0.22226 0.73509 0.0
O615 O 0.10818 0.25023 0.73308 0.0
C616 C 0.05328 0.15328 0.70121 0.0
C617 C 0.99755 0.14128 0.69976 0.0
C618 C 1.0094 0.16093 0.68554 0.0
C619 C 0.03696 0.16688 0.68626 0.0
C620 C 0.04161 0.13318 0.71479 0.0
C621 C 1.01401 0.12732 0.71418 0.0
C622 C 0.08191 0.16058 0.70364 0.0
C623 C 0.14002 0.17889 0.77563 0.0
C624 C 0.07112 0.20284 0.78892 0.0
C625 C 0.15056 0.29435 0.79877 0.0
C626 C 0.16817 0.34197 0.80778 0.0
C627 C 0.17465 0.32289 0.82364 0.0
C628 C 0.16594 0.29939 0.81917 0.0
C629 C 0.14471 0.31317 0.78234 0.0
C630 C 0.15351 0.33674 0.78676 0.0
C631 C 0.1384 0.27005 0.79717 0.0
H632 H 0.99719 0.17207 0.67434 0.0
H633 H 0.04529 0.18242 0.67545 0.0
H634 H 0.05369 0.12217 0.72624 0.0
H635 H 1.00557 0.1118 0.72495 0.0
H636 H 0.18631 0.32612 0.8397 0.0
H637 H 0.17057 0.2852 0.83219 0.0
H638 H 0.13269 0.3098 0.76656 0.0
H639 H 0.14802 0.35098 0.77422 0.0
Dy640 Dy 0.76558 0.04762 0.6714 0.0
Dy641 Dy 0.76804 0.04224 0.73333 0.0
C642 C 0.80758 0.07773 0.70045 0.0
O643 O 0.78215 1.01042 0.67676 0.0
O644 O 0.80201 0.02063 0.71263 0.0
O645 O 0.78589 0.04893 0.63226 0.0
O646 O 0.74228 0.05508 0.63974 0.0
O647 O 0.74535 1.00957 0.72175 0.0
O648 O 0.72863 0.02633 0.68677 0.0
O649 O 0.7312 0.06445 0.72948 0.0
O650 O 0.74669 0.08088 0.69029 0.0
O651 O 0.75125 0.0321 0.77203 0.0
O652 O 0.79214 0.04727 0.76486 0.0
C653 C 0.79883 1.00538 0.69399 0.0
O654 O 0.80476 0.06414 0.68038 0.0
O655 O 0.78994 0.07637 0.72129 0.0
C656 C 0.76776 0.08081 0.61052 0.0
C657 C 0.77738 0.12648 0.5877 0.0
C658 C 0.77331 0.12399 0.6147 0.0
C659 C 0.76875 0.10142 0.62595 0.0
C660 C 0.77103 0.0831 0.58357 0.0
C661 C 0.77579 0.10584 0.57219 0.0
C662 C 0.76419 0.0572 0.62314 0.0
C663 C 0.72822 1.00926 0.7042 0.0
C664 C 0.7297 0.08092 0.71171 0.0
C665 C 0.78541 0.01547 0.79407 0.0
C666 C 0.80184 0.97368 0.81807 0.0
C667 C 0.80676 0.97617 0.79111 0.0
C668 C 0.79846 0.99686 0.77921 0.0
C669 C 0.78176 0.0137 0.82098 0.0
C670 C 0.78992 0.99293 0.83294 0.0
C671 C 0.77444 0.03601 0.78124 0.0
H672 H 0.77393 0.13951 0.62722 0.0
H673 H 0.76639 0.10003 0.64679 0.0
H674 H 0.77041 0.06735 0.57138 0.0
H675 H 0.77909 0.10716 0.55132 0.0
H676 H 0.81602 0.96175 0.77915 0.0
H677 H 0.8014 0.99802 0.75835 0.0
H678 H 0.77169 0.02793 0.83266 0.0
H679 H 0.78534 0.99143 0.85372 0.0
Dy680 Dy 0.79183 0.02313 0.17063 0.0
Dy681 Dy 0.81767 0.05792 0.21525 0.0
C682 C 0.77157 0.01742 0.22911 0.0
O683 O 0.7616 0.05279 0.18213 0.0
O684 O 0.78923 0.08186 0.19749 0.0
O685 O 0.75626 1.0047 0.15914 0.0
O686 O 0.79512 1.00336 0.13466 0.0
O687 O 0.83957 0.07083 0.17688 0.0
O688 O 0.81297 0.05314 0.14815 0.0
O689 O 0.83506 0.02093 0.21824 0.0
O690 O 0.83008 1.00435 0.17862 0.0
O691 O 0.85176 0.07442 0.23245 0.0
O692 O 0.81034 0.07593 0.25202 0.0
C693 C 0.76616 0.07517 0.18913 0.0
O694 O 0.78215 1.00564 0.2087 0.0
O695 O 0.77811 0.04011 0.2325 0.0
C696 C 0.76514 0.96924 0.13392 0.0
C697 C 0.7546 0.92072 0.12091 0.0
C698 C 0.73293 0.93683 0.12752 0.0
C699 C 0.73816 0.96078 0.13384 0.0
C700 C 0.78686 0.95304 0.12801 0.0
C701 C 0.78164 0.92907 0.12153 0.0
C702 C 0.76998 0.99519 0.13869 0.0
C703 C 0.83222 0.06831 0.15336 0.0
C704 C 0.83982 1.00362 0.20104 0.0
C705 C 0.84218 0.10484 0.26597 0.0
C706 C 0.85439 0.14315 0.29949 0.0
C707 C 0.87549 0.13005 0.28516 0.0
C708 C 0.86946 0.11112 0.26875 0.0
C709 C 0.82111 0.11844 0.27958 0.0
C710 C 0.82711 0.13725 0.29604 0.0
C711 C 0.83593 0.08191 0.25277 0.0
H712 H 0.71189 0.93118 0.12692 0.0
H713 H 0.72103 0.9729 0.13813 0.0
H714 H 0.80791 0.95892 0.12796 0.0
H715 H 0.79881 0.91711 0.11683 0.0
H716 H 0.89676 0.13415 0.28686 0.0
H717 H 0.8862 0.10082 0.25892 0.0
H718 H 0.79982 0.11393 0.2784 0.0
H719 H 0.81015 0.14648 0.3069 0.0
Dy720 Dy 0.23589 0.52304 0.39182 0.0
Dy721 Dy 0.21482 0.55896 0.34638 0.0
C722 C 0.25939 0.5169 0.33372 0.0
O723 O 0.26895 0.55065 0.38075 0.0
O724 O 0.24221 0.58106 0.36814 0.0
O725 O 0.26882 0.50397 0.40655 0.0
O726 O 0.22801 0.50299 0.42761 0.0
O727 O 0.18961 0.57005 0.38374 0.0
O728 O 0.21604 0.55419 0.41324 0.0
O729 O 0.19748 0.5222 0.34016 0.0
O730 O 0.19785 0.5056 0.38046 0.0
O731 O 0.18294 0.57394 0.32517 0.0
O732 O 0.22614 0.58387 0.31514 0.0
C733 C 0.26531 0.57345 0.37534 0.0
O734 O 0.2483 0.50542 0.35424 0.0
O735 O 0.25332 0.53953 0.32948 0.0
C736 C 0.25604 0.46874 0.431 0.0
C737 C 0.2646 0.41981 0.44266 0.0
C738 C 0.26876 0.42805 0.41694 0.0
C739 C 0.26442 0.45229 0.41114 0.0
C740 C 0.25156 0.46051 0.45654 0.0
C741 C 0.25575 0.43636 0.46233 0.0
C742 C 0.25294 0.49468 0.4259 0.0
C743 C 0.19652 0.56855 0.40745 0.0
C744 C 0.19064 0.50485 0.35695 0.0
C745 C 0.19393 0.60286 0.28926 0.0
C746 C 0.18105 0.63575 0.25065 0.0
C747 C 0.20822 0.63285 0.25611 0.0
C748 C 0.21455 0.61667 0.27508 0.0
C749 C 0.1668 0.60528 0.28352 0.0
C750 C 0.16045 0.62147 0.26438 0.0
C751 C 0.20092 0.58662 0.31027 0.0
H752 H 0.27532 0.41578 0.40131 0.0
H753 H 0.26792 0.4582 0.39122 0.0
H754 H 0.24524 0.4729 0.47216 0.0
H755 H 0.25278 0.43082 0.48238 0.0
H756 H 0.22474 0.64316 0.2457 0.0
H757 H 0.23568 0.61523 0.27883 0.0
H758 H 0.15042 0.59491 0.29406 0.0
H759 H 0.13929 0.62329 0.26086 0.0
Dy760 Dy 0.25409 0.54997 0.88292 0.0
Dy761 Dy 0.27893 0.55071 0.82238 0.0
C762 C 0.22344 0.5772 0.84138 0.0
O763 O 0.23071 0.52002 0.86547 0.0
O764 O 0.25737 0.51543 0.8261 0.0
O765 O 0.22076 0.55549 0.91329 0.0
O766 O 0.26189 0.54949 0.92281 0.0
O767 O 0.30753 0.52864 0.8437 0.0
O768 O 0.2773 0.51613 0.87806 0.0
O769 O 0.28397 0.5871 0.839 0.0
O770 O 0.29273 0.57223 0.87723 0.0
O771 O 0.31385 0.56255 0.79643 0.0
O772 O 0.27957 0.54494 0.78133 0.0
C773 C 0.23739 0.50827 0.8435 0.0
O774 O 0.23273 0.57903 0.86387 0.0
O775 O 0.236 0.56389 0.82287 0.0
C776 C 0.23636 0.57985 0.94532 0.0
C777 C 0.23324 0.62478 0.97071 0.0
C778 C 0.24701 0.62257 0.94561 0.0
C779 C 0.24844 0.60039 0.93304 0.0
C780 C 0.22308 0.58171 0.97054 0.0
C781 C 0.22156 0.60404 0.9832 0.0
C782 C 0.23729 0.55697 0.93109 0.0
C783 C 0.30007 0.51347 0.86264 0.0
C784 C 0.29615 0.58923 0.85977 0.0
C785 C 0.32433 0.53525 0.76283 0.0
C786 C 0.36436 0.50302 0.74053 0.0
C787 C 0.36724 0.52792 0.73595 0.0
C788 C 0.34734 0.5439 0.74702 0.0
C789 C 0.32144 0.51048 0.76756 0.0
C790 C 0.34113 0.49452 0.75637 0.0
C791 C 0.305 0.55221 0.77652 0.0
H792 H 0.2566 0.63805 0.93558 0.0
H793 H 0.25877 0.59931 0.91353 0.0
H794 H 0.21358 0.56603 0.98026 0.0
H795 H 0.21058 0.60519 1.00243 0.0
H796 H 0.38499 0.53509 0.72405 0.0
H797 H 0.35016 0.56303 0.74363 0.0
H798 H 0.30406 0.50345 0.78012 0.0
H799 H 0.33789 0.47546 0.75989 0.0
Dy800 Dy 0.65353 0.77956 0.99554 0.0
Dy801 Dy 0.66132 0.72693 1.01998 0.0
C802 C 0.62264 0.7363 0.97613 0.0
O803 O 0.63214 0.78256 0.03601 0.0
O804 O 0.62541 0.74238 0.045 0.0
O805 O 0.63982 0.80092 0.96511 0.0
O806 O 0.65768 0.81828 0.99653 0.0
O807 O 0.67957 0.75446 0.04518 0.0
O808 O 0.69328 0.77951 1.01177 0.0
O809 O 0.6989 0.73131 0.99165 0.0
O810 O 0.68331 0.76058 0.96616 0.0
O811 O 0.68536 0.69996 0.03654 0.0
O812 O 0.64363 0.69192 0.02924 0.0
C813 C 0.62118 0.76516 0.05106 0.0
O814 O 0.61804 0.75689 0.98792 0.0
O815 O 0.64268 0.72282 0.98246 0.0
C816 C 0.67209 0.83184 0.95468 0.0
C817 C 0.71738 0.85193 0.92385 0.0
C818 C 0.71018 0.82773 0.92076 0.0
C819 C 0.68776 0.81778 0.93604 0.0
C820 C 0.67892 0.8561 0.95755 0.0
C821 C 0.70136 0.86611 0.94221 0.0
C822 C 0.65106 0.82046 0.97314 0.0
C823 C 0.69468 0.77268 0.03554 0.0
C824 C 0.70139 0.74404 0.97027 0.0
C825 C 0.66042 0.67092 0.06396 0.0
C826 C 0.65501 0.63869 0.1062 0.0
C827 C 0.67841 0.65343 0.10123 0.0
C828 C 0.68113 0.66931 0.0803 0.0
C829 C 0.6364 0.65714 0.06974 0.0
C830 C 0.63368 0.64127 0.09068 0.0
C831 C 0.66514 0.68444 0.03935 0.0
H832 H 0.72218 0.81633 0.90689 0.0
H833 H 0.68308 0.79892 0.93364 0.0
H834 H 0.66727 0.86715 0.97201 0.0
H835 H 0.7061 0.88498 0.94465 0.0
H836 H 0.69541 0.65168 0.11254 0.0
H837 H 0.70002 0.67948 0.07627 0.0
H838 H 0.62013 0.65784 0.05745 0.0
H839 H 0.61527 0.63036 0.09415 0.0
Dy840 Dy 0.12106 0.78995 0.07388 0.0
Dy841 Dy 0.16973 0.81907 0.10254 0.0
C842 C 0.18281 0.77981 0.05867 0.0
O843 O 0.1349 0.76274 0.10212 0.0
O844 O 0.15887 0.78728 0.12766 0.0
O845 O 0.10803 0.76092 0.05021 0.0
O846 O 0.07892 0.78772 0.06621 0.0
O847 O 0.12979 0.83524 0.11971 0.0
O848 O 0.10152 0.80367 0.11159 0.0
O849 O 0.16494 0.84046 0.06699 0.0
O850 O 0.12504 0.82559 0.05347 0.0
O851 O 0.18586 0.8352 0.13563 0.0
O852 O 0.20992 0.83547 0.09799 0.0
C853 C 0.14761 0.76644 0.12286 0.0
O854 O 0.16101 0.78767 0.04929 0.0
O855 O 0.18776 0.78628 0.08191 0.0
C856 C 0.07066 0.77018 1.0266 0.0
C857 C 0.04453 0.77333 0.98106 0.0
C858 C 0.07079 0.78345 0.98205 0.0
C859 C 0.08368 0.78199 1.00466 0.0
C860 C 0.04461 0.76004 1.02566 0.0
C861 C 0.03168 0.76159 1.0032 0.0
C862 C 0.08305 0.76908 0.05106 0.0
C863 C 0.10626 0.82359 0.12388 0.0
C864 C 0.14547 0.84117 0.05172 0.0
C865 C 0.23461 0.83631 0.13488 0.0
C866 C 0.28453 0.83354 0.15712 0.0
C867 C 0.26148 0.84499 0.17027 0.0
C868 C 0.2369 0.8464 0.15925 0.0
C869 C 0.25735 0.82432 0.12194 0.0
C870 C 0.28199 0.82294 0.13293 0.0
C871 C 0.20938 0.84056 0.1225 0.0
H872 H 0.08121 0.79281 0.96548 0.0
H873 H 0.10368 0.7902 1.00507 0.0
H874 H 0.03415 0.75094 0.04242 0.0
H875 H 1.01172 0.75324 1.00309 0.0
H876 H 0.26241 0.85298 0.18911 0.0
H877 H 0.21978 0.85587 0.1696 0.0
H878 H 0.25637 0.81647 0.10303 0.0
H879 H 0.2993 0.81419 0.12206 0.0
Dy880 Dy 0.37654 0.28299 0.56077 0.0
Dy881 Dy 0.36686 0.22952 0.53812 0.0
C882 C 0.40372 0.23843 0.58426 0.0
O883 O 0.39224 0.28414 0.51853 0.0
O884 O 0.40335 0.24456 0.51331 0.0
O885 O 0.40474 0.31282 0.56113 0.0
O886 O 0.36418 0.31497 0.58252 0.0
O887 O 0.34716 0.25532 0.51235 0.0
O888 O 0.33841 0.28561 0.54202 0.0
O889 O 0.33033 0.2366 0.56668 0.0
O890 O 0.34832 0.26477 0.59223 0.0
O891 O 0.34 0.202 0.52605 0.0
O892 O 0.38341 0.19493 0.52545 0.0
C893 C 0.40517 0.26686 0.50498 0.0
O894 O 0.40868 0.25968 0.57396 0.0
O895 O 0.38501 0.22438 0.57581 0.0
C896 C 0.40034 0.33695 0.59876 0.0
C897 C 0.41981 0.36653 0.63665 0.0
C898 C 0.43486 0.36423 0.61213 0.0
C899 C 0.42512 0.34968 0.59333 0.0
C900 C 0.38638 0.33775 0.62385 0.0
C901 C 0.39605 0.3524 0.64263 0.0
C902 C 0.38819 0.32519 0.57742 0.0
C903 C 0.33419 0.27517 0.5203 0.0
C904 C 0.32912 0.24896 0.58827 0.0
C905 C 0.35983 0.17527 0.4936 0.0
C906 C 0.35827 0.14833 0.44766 0.0
C907 C 0.33397 0.15676 0.46164 0.0
C908 C 0.33474 0.16996 0.48436 0.0
C909 C 0.38423 0.16747 0.47926 0.0
C910 C 0.38345 0.15417 0.45652 0.0
C911 C 0.35998 0.18718 0.51904 0.0
H912 H 0.4534 0.37466 0.60705 0.0
H913 H 0.43632 0.34929 0.57414 0.0
H914 H 0.36726 0.32807 0.62866 0.0
H915 H 0.38377 0.35394 0.66122 0.0
H916 H 0.31419 0.15222 0.4557 0.0
H917 H 0.31556 0.17541 0.49511 0.0
H918 H 0.40391 0.17114 0.48588 0.0
H919 H 0.40254 0.14806 0.44612 0.0
Dy920 Dy 0.91204 0.29587 0.47996 0.0
Dy921 Dy 0.85629 0.31948 0.45897 0.0
C922 C 0.85138 0.27717 0.50256 0.0
O923 O 0.90374 0.27334 0.44505 0.0
O924 O 0.85836 0.28267 0.44217 0.0
O925 O 0.93736 0.26738 0.49267 0.0
O926 O 0.95302 0.30383 0.48864 0.0
O927 O 0.8908 0.32224 0.42698 0.0
O928 O 0.92441 0.32624 0.45296 0.0
O929 O 0.87319 0.34592 0.48586 0.0
O930 O 0.89299 0.31975 0.51164 0.0
O931 O 0.83818 0.33787 0.42863 0.0
O932 O 0.81491 0.33307 0.46621 0.0
C933 C 0.88018 0.26941 0.43556 0.0
O934 O 0.87797 0.27708 0.50354 0.0
O935 O 0.83919 0.29113 0.48705 0.0
C936 C 0.96922 0.28043 0.52168 0.0
C937 C 0.9943 0.27725 0.56806 0.0
C938 C 0.97248 0.26178 0.56358 0.0
C939 C 0.9601 0.26334 0.5407 0.0
C940 C 0.99099 0.29584 0.52611 0.0
C941 C 1.00327 0.29436 0.54897 0.0
C942 C 0.95715 0.28217 0.49685 0.0
C943 C 0.91609 0.32784 0.43012 0.0
C944 C 0.8817 0.34063 0.50817 0.0
C945 C 0.78946 0.33642 0.42976 0.0
C946 C 0.74013 0.33386 0.40639 0.0
C947 C 0.76416 0.34376 0.39302 0.0
C948 C 0.78842 0.34509 0.40458 0.0
C949 C 0.76565 0.32606 0.44302 0.0
C950 C 0.74132 0.32474 0.43144 0.0
C951 C 0.81457 0.34059 0.44255 0.0
H952 H 0.96521 0.24811 0.57756 0.0
H953 H 0.94353 0.25104 0.53789 0.0
H954 H 0.99861 0.30912 0.51179 0.0
H955 H 0.01969 0.30683 0.55173 0.0
H956 H 0.76424 0.35061 0.37357 0.0
H957 H 0.80632 0.3534 0.39394 0.0
H958 H 0.76557 0.31947 0.46256 0.0
H959 H 0.72321 0.31722 0.44248 0.0
H960 H 0.14068 0.35525 0.33143 0.0
H961 H 0.17804 0.49464 0.30833 0.0
H962 H 0.16971 0.38688 0.25757 0.0
H963 H 0.17869 0.46222 0.38348 0.0
H964 H 0.16745 0.45549 0.2909 0.0
H965 H 0.14921 0.39407 0.35227 0.0
C966 C 0.14915 0.37014 0.31964 0.0
C967 C 0.15439 0.36768 0.29264 0.0
C968 C 0.16973 0.4569 0.31126 0.0
C969 C 0.16344 0.41218 0.31624 0.0
C970 C 0.17556 0.47939 0.32133 0.0
C971 C 0.17943 0.4819 0.34746 0.0
C972 C 0.16753 0.43653 0.32734 0.0
C973 C 0.17591 0.46124 0.36321 0.0
C974 C 0.15383 0.39232 0.33153 0.0
C975 C 0.16514 0.38776 0.27838 0.0
N976 N 0.17027 0.43941 0.3529 0.0
N977 N 0.16903 0.40904 0.29027 0.0
H978 H 0.3416 0.58892 0.88559 0.0
H979 H 0.40333 0.71106 0.82018 0.0
H980 H 0.29842 0.63293 0.83584 0.0
H981 H 0.45269 0.65055 0.83688 0.0
H982 H 0.36215 0.68887 0.83882 0.0
H983 H 0.37974 0.61797 0.88061 0.0
C984 C 0.33987 0.60496 0.87412 0.0
C985 C 0.317 0.60841 0.86084 0.0
C986 C 0.3821 0.68075 0.83894 0.0
C987 C 0.3603 0.64167 0.85526 0.0
C988 C 0.40554 0.69346 0.82856 0.0
C989 C 0.4313 0.68255 0.82709 0.0
C990 C 0.38466 0.65722 0.84823 0.0
C991 C 0.43311 0.65951 0.83769 0.0
C992 C 0.36166 0.62143 0.87119 0.0
C993 C 0.31586 0.62946 0.84614 0.0
N994 N 0.4101 0.64756 0.84773 0.0
N995 N 0.33728 0.64524 0.84362 0.0
H996 H 0.62342 0.20682 0.73534 0.0
H997 H 0.68182 0.07715 0.74322 0.0
H998 H 0.57256 0.14311 0.73778 0.0
H999 H 0.72669 0.12543 0.68857 0.0
H1000 H 0.64393 0.10544 0.74808 0.0
H1001 H 0.6639 0.18145 0.72207 0.0
C1002 C 0.62066 0.18771 0.73231 0.0
C1003 C 0.59469 0.17697 0.7379 0.0
C1004 C 0.66209 0.10987 0.73503 0.0
C1005 C 0.64046 0.14815 0.72372 0.0
C1006 C 0.68382 0.09381 0.73238 0.0
C1007 C 0.70745 0.09889 0.71542 0.0
C1008 C 0.66402 0.13149 0.72105 0.0
C1009 C 0.70874 0.1208 0.70176 0.0
C1010 C 0.64371 0.17328 0.72496 0.0
C1011 C 0.59226 0.15209 0.73403 0.0
N1012 N 0.68733 0.13648 0.70501 0.0
N1013 N 0.61483 0.13852 0.72769 0.0
H1014 H 0.86748 0.89014 0.30435 0.0
H1015 H 0.84547 0.95995 0.17529 0.0
H1016 H 0.88479 0.85533 0.23015 0.0
H1017 H 0.85971 0.99444 0.24684 0.0
H1018 H 0.85666 0.92101 0.19368 0.0
H1019 H 0.85925 0.92749 0.28273 0.0
C1020 C 0.86936 0.89021 0.28344 0.0
C1021 C 0.87701 0.86937 0.26912 0.0
C1022 C 0.85764 0.9372 0.20514 0.0
C1023 C 0.86763 0.91275 0.244 0.0
C1024 C 0.85143 0.95949 0.19463 0.0
C1025 C 0.85149 0.98066 0.20953 0.0
C1026 C 0.86359 0.93604 0.23082 0.0
C1027 C 0.85919 0.97875 0.23456 0.0
C1028 C 0.86481 0.91174 0.27107 0.0
C1029 C 0.8789 0.87087 0.24201 0.0
N1030 N 0.86457 0.95692 0.24443 0.0
N1031 N 0.87425 0.89221 0.23028 0.0
H1032 H 0.32494 0.15087 0.4089 0.0
H1033 H 0.35031 0.01399 0.37208 0.0
H1034 H 0.38813 0.10748 0.43611 0.0
H1035 H 0.291 0.05782 0.33951 0.0
H1036 H 0.37044 0.05022 0.38866 0.0
H1037 H 0.3176 0.11952 0.3774 0.0
C1038 C 0.33752 0.13489 0.40803 0.0
C1039 C 0.35689 0.13166 0.42549 0.0
C1040 C 0.3534 0.05206 0.37741 0.0
C1041 C 0.34862 0.0957 0.38943 0.0
C1042 C 0.342 0.03136 0.36783 0.0
C1043 C 0.31884 0.03293 0.35462 0.0
C1044 C 0.34117 0.07447 0.37427 0.0
C1045 C 0.3089 0.05584 0.34958 0.0
C1046 C 0.33341 0.11705 0.38994 0.0
C1047 C 0.37298 0.11082 0.42309 0.0
N1048 N 0.31974 0.07571 0.35993 0.0
N1049 N 0.36819 0.0935 0.40572 0.0
H1050 H 0.16729 0.91153 0.90112 0.0
H1051 H 0.17239 0.88443 0.05072 0.0
H1052 H 0.18717 0.96511 0.95612 0.0
H1053 H 0.12494 0.8398 1.0046 0.0
H1054 H 0.18003 0.91302 1.01504 0.0
H1055 H 0.15334 0.8839 0.93727 0.0
C1056 C 0.16848 0.91762 0.9207 0.0
C1057 C 0.1785 0.9408 0.9254 0.0
C1058 C 0.16774 0.89709 1.01271 0.0
C1059 C 0.16299 0.90906 0.96685 0.0
C1060 C 0.16339 0.8807 0.03314 0.0
C1061 C 0.14791 0.85965 0.03079 0.0
C1062 C 0.15705 0.89234 0.98936 0.0
C1063 C 0.1368 0.85588 1.0074 0.0
C1064 C 0.16051 0.90181 0.94134 0.0
C1065 C 0.17962 0.94753 0.95131 0.0
N1066 N 0.14184 0.8719 0.9875 0.0
N1067 N 0.17228 0.93174 0.97087 0.0
H1068 H 0.89278 0.33502 0.55852 0.0
H1069 H 0.83499 0.46523 0.60266 0.0
H1070 H 0.86197 0.38678 0.50769 0.0
H1071 H 0.85907 0.41331 0.65701 0.0
H1072 H 0.84903 0.4376 0.56752 0.0
H1073 H 0.8844 0.36387 0.59425 0.0
C1074 C 0.88442 0.35247 0.55476 0.0
C1075 C 0.87804 0.35836 0.5299 0.0
C1076 C 0.85145 0.43217 0.58705 0.0
C1077 C 0.8684 0.39157 0.57093 0.0
C1078 C 0.84344 0.44803 0.60728 0.0
C1079 C 0.84562 0.44165 0.63306 0.0
C1080 C 0.86175 0.40943 0.59231 0.0
C1081 C 0.85704 0.4191 0.63752 0.0
C1082 C 0.8796 0.36894 0.57525 0.0
C1083 C 0.8672 0.38129 0.5264 0.0
N1084 N 0.86447 0.40374 0.61739 0.0
N1085 N 0.86272 0.39692 0.54659 0.0
H1086 H 0.70608 0.54409 0.22181 0.0
H1087 H 0.63718 0.59246 0.1008 0.0
H1088 H 0.69442 0.50249 0.15413 0.0
H1089 H 0.67245 0.63907 0.15458 0.0
H1090 H 0.64417 0.55817 0.12826 0.0
H1091 H 0.68034 0.57732 0.20507 0.0
C1092 C 0.69715 0.54168 0.20393 0.0
C1093 C 0.70211 0.52069 0.18926 0.0
C1094 C 0.64995 0.57596 0.13429 0.0
C1095 C 0.67326 0.55831 0.16998 0.0
C1096 C 0.64577 0.59563 0.11872 0.0
C1097 C 0.65458 0.61871 0.12519 0.0
C1098 C 0.66312 0.57928 0.15651 0.0
C1099 C 0.66588 0.62153 0.14857 0.0
C1100 C 0.68277 0.56065 0.19428 0.0
C1101 C 0.69083 0.51846 0.16596 0.0
N1102 N 0.67017 0.60199 0.16323 0.0
N1103 N 0.67709 0.53712 0.15692 0.0
H1104 H 0.3986 0.31891 0.11924 0.0
H1105 H 0.51569 0.27381 0.20309 0.0
H1106 H 0.45184 0.25874 0.09877 0.0
H1107 H 0.45953 0.3307 0.22864 0.0
H1108 H 0.49331 0.2695 0.16403 0.0
H1109 H 0.42167 0.32528 0.15809 0.0
C1110 C 0.4153 0.3072 0.12271 0.0
C1111 C 0.42322 0.28824 0.10557 0.0
C1112 C 0.48578 0.28293 0.17813 0.0
C1113 C 0.44961 0.29532 0.15024 0.0
C1114 C 0.49858 0.2854 0.20057 0.0
C1115 C 0.48953 0.30262 0.21939 0.0
C1116 C 0.46365 0.29781 0.17414 0.0
C1117 C 0.4672 0.31709 0.2148 0.0
C1118 C 0.42837 0.31076 0.14501 0.0
C1119 C 0.4449 0.27357 0.11131 0.0
N1120 N 0.45508 0.31439 0.19267 0.0
N1121 N 0.4572 0.27739 0.13305 0.0
H1122 H 0.91764 0.17897 0.88783 0.0
H1123 H 0.06935 0.22073 0.83735 0.0
H1124 H 0.97589 0.20693 0.93617 0.0
H1125 H 0.02457 0.17404 0.79088 0.0
H1126 H 0.03403 0.21511 0.87345 0.0
H1127 H 0.95513 0.1751 0.8521 0.0
C1128 C 0.93836 0.18369 0.89112 0.0
C1129 C 0.94364 0.19354 0.91489 0.0
C1130 C 0.03182 0.20589 0.85549 0.0
C1131 C 0.98623 0.18958 0.87427 0.0
C1132 C 0.05199 0.20924 0.83474 0.0
C1133 C 0.04983 0.19801 0.81096 0.0
C1134 C 1.0088 0.19147 0.85259 0.0
C1135 C 0.02699 0.18305 0.80891 0.0
C1136 C 0.95968 0.18163 0.87071 0.0
C1137 C 0.97078 0.19958 0.91807 0.0
N1138 N 1.0071 0.18044 0.82939 0.0
N1139 N 0.99087 0.19776 0.898 0.0
H1140 H 0.51338 0.77584 0.3539 0.0
H1141 H 0.633 0.81924 0.43669 0.0
H1142 H 0.57089 0.83206 0.32755 0.0
H1143 H 0.57764 0.75993 0.45714 0.0
H1144 H 0.60982 0.82617 0.39796 0.0
H1145 H 0.53614 0.77141 0.39263 0.0
C1146 C 0.53085 0.78728 0.35618 0.0
C1147 C 0.54015 0.80434 0.33722 0.0
C1148 C 0.60271 0.81173 0.41104 0.0
C1149 C 0.56656 0.79938 0.38214 0.0
C1150 C 0.61583 0.80786 0.43327 0.0
C1151 C 0.60734 0.78896 0.45036 0.0
C1152 C 0.58083 0.79667 0.40588 0.0
C1153 C 0.58508 0.77469 0.44465 0.0
C1154 C 0.5439 0.78474 0.37844 0.0
C1155 C 0.563 0.81859 0.34152 0.0
N1156 N 0.57275 0.77881 0.42305 0.0
N1157 N 0.57537 0.81582 0.36349 0.0
H1158 H 0.05448 0.71559 0.61841 0.0
H1159 H 1.00198 0.6747 0.76311 0.0
H1160 H 0.11 0.68406 0.66685 0.0
H1161 H 0.96359 0.72786 0.71929 0.0
H1162 H 0.03854 0.67039 0.7266 0.0
H1163 H 0.01731 0.71117 0.6532 0.0
C1164 C 0.05878 0.7074 0.63634 0.0
C1165 C 0.08548 0.70047 0.63983 0.0
C1166 C 0.02199 0.68288 0.72508 0.0
C1167 C 0.04279 0.69568 0.68019 0.0
C1168 C 1.00113 0.68531 0.74581 0.0
C1169 C 0.97978 0.7018 0.74431 0.0
C1170 C 0.02105 0.69667 0.70261 0.0
C1171 C 0.97972 0.71512 0.72149 0.0
C1172 C 0.03752 0.70498 0.65628 0.0
C1173 C 0.0897 0.68965 0.66339 0.0
N1174 N 0.9999 0.71221 0.70165 0.0
N1175 N 0.06859 0.68786 0.68291 0.0
H1176 H 0.87067 0.63733 0.80199 0.0
H1177 H 0.84631 0.56699 0.67394 0.0
H1178 H 0.88709 0.67246 0.72787 0.0
H1179 H 0.86455 0.53289 0.74425 0.0
H1180 H 0.85795 0.60618 0.6919 0.0
H1181 H 0.86283 0.5998 0.78029 0.0
C1182 C 0.87244 0.63729 0.78108 0.0
C1183 C 0.87973 0.65826 0.7668 0.0
C1184 C 0.85975 0.59002 0.70314 0.0
C1185 C 0.87078 0.61469 0.7416 0.0
C1186 C 0.85328 0.5676 0.69288 0.0
C1187 C 0.85424 0.54647 0.70764 0.0
C1188 C 0.86684 0.59132 0.72843 0.0
C1189 C 0.86325 0.54854 0.73214 0.0
C1190 C 0.86813 0.61566 0.76866 0.0
C1191 C 0.8815 0.65679 0.73969 0.0
N1192 N 0.86881 0.5705 0.74181 0.0
N1193 N 0.87703 0.63534 0.72792 0.0
H1194 H 0.63218 0.31441 0.25446 0.0
H1195 H 0.69639 0.42647 0.17111 0.0
H1196 H 0.58476 0.36253 0.21271 0.0
H1197 H 0.73482 0.39301 0.2321 0.0
H1198 H 0.65946 0.39641 0.17746 0.0
H1199 H 0.67383 0.33633 0.23743 0.0
C1200 C 0.63058 0.3292 0.24123 0.0
C1201 C 0.6049 0.33679 0.23519 0.0
C1202 C 0.67621 0.39547 0.18917 0.0
C1203 C 0.65244 0.36199 0.21577 0.0
C1204 C 0.69737 0.41253 0.18547 0.0
C1205 C 0.71856 0.41241 0.2013 0.0
C1206 C 0.67643 0.37803 0.20865 0.0
C1207 C 0.71872 0.39395 0.21966 0.0
C1208 C 0.65434 0.34181 0.23168 0.0
C1209 C 0.60409 0.35622 0.21809 0.0
N1210 N 0.69788 0.37761 0.22295 0.0
N1211 N 0.62746 0.36825 0.20914 0.0
H1212 H 0.39836 0.82105 0.29248 0.0
H1213 H 0.32547 0.92048 0.38752 0.0
H1214 H 0.44181 0.85948 0.34715 0.0
H1215 H 0.30845 0.91132 0.30882 0.0
H1216 H 0.36077 0.88915 0.38043 0.0
H1217 H 0.35745 0.84491 0.30644 0.0
C1218 C 0.39905 0.83397 0.30798 0.0
C1219 C 0.42349 0.83831 0.31871 0.0
C1220 C 0.34898 0.89383 0.3649 0.0
C1221 C 0.37687 0.86557 0.33468 0.0
C1222 C 0.32879 0.91154 0.36896 0.0
C1223 C 0.31416 0.91851 0.34868 0.0
C1224 C 0.35398 0.88266 0.34063 0.0
C1225 C 0.31945 0.90658 0.32488 0.0
C1226 C 0.3758 0.84772 0.31573 0.0
C1227 C 0.42337 0.85563 0.33838 0.0
N1228 N 0.33889 0.8892 0.32151 0.0
N1229 N 0.40043 0.86869 0.34571 0.0
H1230 H 0.1542 0.03226 0.82668 0.0
H1231 H 0.15698 0.17649 0.82453 0.0
H1232 H 0.20374 0.07306 0.8745 0.0
H1233 H 0.13986 0.13207 0.76026 0.0
H1234 H 0.1674 0.13973 0.84796 0.0
H1235 H 0.14061 0.06988 0.80765 0.0
C1236 C 0.16187 0.04912 0.83353 0.0
C1237 C 0.18025 0.04941 0.85217 0.0
C1238 C 0.1614 0.13819 0.82869 0.0
C1239 C 0.16483 0.09267 0.83029 0.0
C1240 C 0.1555 0.15913 0.81532 0.0
C1241 C 0.14779 0.15748 0.79025 0.0
C1242 C 0.1589 0.1155 0.81713 0.0
C1243 C 0.14602 0.13441 0.77937 0.0
C1244 C 0.15427 0.07061 0.82249 0.0
C1245 C 0.18963 0.07193 0.86009 0.0
N1246 N 0.15134 0.11446 0.79288 0.0
N1247 N 0.18187 0.09265 0.84909 0.0
H1248 H 0.73695 0.96317 0.72013 0.0
H1249 H 0.70511 0.87251 0.63782 0.0
H1250 H 0.68341 1.00528 0.67828 0.0
H1251 H 0.63386 0.91414 0.62604 0.0
H1252 H 0.71622 0.9016 0.66997 0.0
H1253 H 0.71709 0.92646 0.70405 0.0
C1254 C 0.72063 0.96468 0.70798 0.0
C1255 C 0.71218 0.98731 0.7001 0.0
C1256 C 0.69765 0.90409 0.66108 0.0
C1257 C 0.69003 0.94545 0.68086 0.0
C1258 C 0.69131 0.8874 0.64257 0.0
C1259 C 0.66871 0.89104 0.62892 0.0
C1260 C 0.68126 0.92462 0.66596 0.0
C1261 C 0.65183 0.91089 0.63566 0.0
C1262 C 0.70959 0.94369 0.69843 0.0
C1263 C 0.69089 0.9882 0.68444 0.0
N1264 N 0.65871 0.92711 0.65335 0.0
N1265 N 0.6808 0.9676 0.67511 0.0
H1266 H 0.90606 0.18309 0.05126 0.0
H1267 H 0.82786 0.06213 0.10213 0.0
H1268 H 0.85011 0.14283 1.00955 0.0
H1269 H 0.86431 0.10991 0.15402 0.0
H1270 H 0.84276 0.08891 0.06651 0.0
H1271 H 0.89742 0.1543 0.08723 0.0
C1272 C 0.89225 0.16807 0.04948 0.0
C1273 C 0.87878 0.16546 1.02723 0.0
C1274 C 0.84766 0.09362 0.08562 0.0
C1275 C 0.86887 0.13245 0.06837 0.0
C1276 C 0.83916 0.07823 0.10614 0.0
C1277 C 0.8445 0.08376 0.13143 0.0
C1278 C 0.86181 0.11495 0.09 0.0
C1279 C 0.85964 0.10486 0.13496 0.0
C1280 C 0.88721 0.15174 0.07012 0.0
C1281 C 0.86092 0.14573 1.02623 0.0
N1282 N 0.86763 0.11978 0.11451 0.0
N1283 N 0.85656 0.1301 0.04638 0.0
H1284 H 0.12515 0.68827 0.50313 0.0
H1285 H 0.19914 0.56402 0.45913 0.0
H1286 H 0.17739 0.64794 0.54803 0.0
H1287 H 0.16545 0.61006 0.4044 0.0
H1288 H 0.18414 0.5922 0.4934 0.0
H1289 H 0.13309 0.65791 0.46849 0.0
C1290 C 0.13798 0.67294 0.50588 0.0
C1291 C 0.15068 0.67076 0.5286 0.0
C1292 C 0.17984 0.59622 0.47397 0.0
C1293 C 0.15975 0.63597 0.48908 0.0
C1294 C 0.18839 0.58001 0.45424 0.0
C1295 C 0.18387 0.58464 0.42858 0.0
C1296 C 0.16654 0.61751 0.46836 0.0
C1297 C 0.16945 0.60568 0.42382 0.0
C1298 C 0.14262 0.6557 0.48603 0.0
C1299 C 0.16727 0.65057 0.53091 0.0
N1300 N 0.16147 0.62144 0.44348 0.0
N1301 N 0.17126 0.63411 0.51153 0.0
H1302 H 0.33526 0.37521 0.91829 0.0
H1303 H 0.35521 0.51025 0.86668 0.0
H1304 H 0.40009 0.42207 0.93794 0.0
H1305 H 0.28124 0.46802 0.86773 0.0
H1306 H 0.37866 0.47465 0.88158 0.0
H1307 H 0.32293 0.40529 0.88786 0.0
C1308 C 0.34739 0.39155 0.91577 0.0
C1309 C 0.36848 0.39624 0.93107 0.0
C1310 C 0.35746 0.47312 0.878 0.0
C1311 C 0.35395 0.43111 0.89659 0.0
C1312 C 0.3442 0.49332 0.86941 0.0
C1313 C 0.3163 0.49193 0.86635 0.0
C1314 C 0.34264 0.45155 0.88311 0.0
C1315 C 0.30273 0.46977 0.87022 0.0
C1316 C 0.34015 0.40885 0.89852 0.0
C1317 C 0.38325 0.41794 0.927 0.0
N1318 N 0.31597 0.45051 0.87856 0.0
N1319 N 0.37545 0.43475 0.91043 0.0
H1320 H 0.54682 0.75572 0.83642 0.0
H1321 H 0.62501 0.69504 0.94599 0.0
H1322 H 0.55605 0.67871 0.84075 0.0
H1323 H 0.58889 0.76568 0.95236 0.0
H1324 H 0.60455 0.68878 0.90553 0.0
H1325 H 0.56791 0.76002 0.87626 0.0
C1326 C 0.55353 0.73967 0.84555 0.0
C1327 C 0.54956 0.71679 0.83504 0.0
C1328 C 0.60103 0.70557 0.91594 0.0
C1329 C 0.57382 0.72167 0.88116 0.0
C1330 C 0.61264 0.70914 0.93907 0.0
C1331 C 0.60866 0.7309 0.9528 0.0
C1332 C 0.58571 0.72404 0.9062 0.0
C1333 C 0.59252 0.74855 0.94268 0.0
C1334 C 0.56543 0.74216 0.8685 0.0
C1335 C 0.55863 0.69672 0.84807 0.0
N1336 N 0.58191 0.74481 0.92004 0.0
N1337 N 0.57036 0.69961 0.87039 0.0
H1338 H 0.9548 0.81139 0.21882 0.0
H1339 H 0.11023 0.84583 0.17101 0.0
H1340 H 1.00391 0.85067 0.26818 0.0
H1341 H 0.05179 0.81885 0.12235 0.0
H1342 H 0.0725 0.85089 0.20635 0.0
H1343 H 0.99063 0.81644 0.18305 0.0
C1344 C 0.97321 0.8212 0.2221 0.0
C1345 C 0.97645 0.83043 0.24659 0.0
C1346 C 0.06797 0.84427 0.18776 0.0
C1347 C 0.01818 0.83617 0.20538 0.0
C1348 C 0.08944 0.84154 0.16757 0.0
C1349 C 0.08415 0.83167 0.14381 0.0
C1350 C 0.0412 0.83708 0.18397 0.0
C1351 C 0.0569 0.82621 0.14044 0.0
C1352 C 0.99373 0.82418 0.20156 0.0
C1353 C 1.00063 0.84327 0.24956 0.0
N1354 N 0.03665 0.82877 0.16026 0.0
N1355 N 0.02083 0.84548 0.22925 0.0
H1356 H 0.4791 0.25429 0.72447 0.0
H1357 H 0.4013 0.19581 0.61258 0.0
H1358 H 0.47108 0.17724 0.71764 0.0
H1359 H 0.43703 0.26706 0.60972 0.0
H1360 H 0.42181 0.18828 0.65283 0.0
H1361 H 0.45772 0.25915 0.68501 0.0
C1362 C 0.47264 0.23832 0.71483 0.0
C1363 C 0.47705 0.21529 0.72455 0.0
C1364 C 0.42521 0.20547 0.6432 0.0
C1365 C 0.45238 0.22082 0.67876 0.0
C1366 C 0.41356 0.20977 0.6202 0.0
C1367 C 0.41742 0.2321 0.60751 0.0
C1368 C 0.44041 0.22376 0.65382 0.0
C1369 C 0.43342 0.24953 0.61852 0.0
C1370 C 0.46053 0.24113 0.69209 0.0
C1371 C 0.46819 0.19535 0.7109 0.0
N1372 N 0.44404 0.24505 0.64095 0.0
N1373 N 0.45626 0.19856 0.68873 0.0
H1374 H 0.91441 0.31115 0.38108 0.0
H1375 H 0.05957 0.36221 0.32028 0.0
H1376 H 0.96503 0.35233 0.42751 0.0
H1377 H 0.03104 0.29103 0.30337 0.0
H1378 H 0.01959 0.36668 0.35327 0.0
H1379 H 0.95163 0.31207 0.34536 0.0
C1380 C 0.9331 0.32087 0.38357 0.0
C1381 C 0.93666 0.33167 0.40732 0.0
C1382 C 0.02211 0.3502 0.34215 0.0
C1383 C 0.97914 0.33285 0.36651 0.0
C1384 C 0.04477 0.34766 0.32335 0.0
C1385 C 0.04863 0.32615 0.30928 0.0
C1386 C 1.00288 0.33138 0.34623 0.0
C1387 C 0.02894 0.3078 0.314 0.0
C1388 C 0.95437 0.3212 0.36327 0.0
C1389 C 0.9615 0.34373 0.40954 0.0
N1390 N 1.00682 0.31089 0.33194 0.0
N1391 N 0.98183 0.34403 0.38937 0.0
H1392 H 0.24402 0.06256 0.38351 0.0
H1393 H 0.16046 0.14096 0.29047 0.0
H1394 H 0.19274 0.03255 0.32965 0.0
H1395 H 0.19956 0.17263 0.35246 0.0
H1396 H 0.17365 0.10124 0.30418 0.0
H1397 H 0.22886 0.10302 0.37276 0.0
C1398 C 0.22925 0.06439 0.36979 0.0
C1399 C 0.2197 0.04402 0.35748 0.0
C1400 C 0.17933 0.11685 0.31486 0.0
C1401 C 0.2027 0.09031 0.34468 0.0
C1402 C 0.1717 0.13964 0.30706 0.0
C1403 C 0.17871 0.1604 0.32032 0.0
C1404 C 0.19429 0.11453 0.3361 0.0
C1405 C 0.19391 0.1573 0.34137 0.0
C1406 C 0.22077 0.08753 0.3635 0.0
C1407 C 0.20086 0.04763 0.33956 0.0
N1408 N 0.20116 0.13486 0.34859 0.0
N1409 N 0.19319 0.07021 0.33363 0.0
H1410 H 0.25411 0.90639 0.83923 0.0
H1411 H 0.40643 0.86755 0.85685 0.0
H1412 H 0.30185 0.94255 0.8922 0.0
H1413 H 0.35074 0.82336 0.81876 0.0
H1414 H 0.36882 0.89503 0.87044 0.0
H1415 H 0.2894 0.87576 0.83194 0.0
C1416 C 0.27196 0.90779 0.84952 0.0
C1417 C 0.27508 0.92716 0.86628 0.0
C1418 C 0.36481 0.87922 0.85927 0.0
C1419 C 0.31592 0.89213 0.85771 0.0
C1420 C 0.38627 0.86341 0.85157 0.0
C1421 C 0.38192 0.84305 0.83646 0.0
C1422 C 0.33877 0.87482 0.85167 0.0
C1423 C 0.35534 0.839 0.82991 0.0
C1424 C 0.29212 0.89023 0.84535 0.0
C1425 C 0.29858 0.92789 0.87918 0.0
N1426 N 0.3349 0.85478 0.8374 0.0
N1427 N 0.31828 0.91078 0.87439 0.0
H1428 H 0.71325 0.45669 0.68577 0.0
H1429 H 0.67471 0.3191 0.72013 0.0
H1430 H 0.77267 0.40178 0.69627 0.0
H1431 H 0.6147 0.37536 0.71904 0.0
H1432 H 0.71086 0.34845 0.70694 0.0
H1433 H 0.67684 0.42625 0.69268 0.0
C1434 C 0.7187 0.4382 0.68916 0.0
C1435 C 0.74605 0.43183 0.69064 0.0
C1436 C 0.68976 0.35436 0.70948 0.0
C1437 C 0.70451 0.39698 0.69877 0.0
C1438 C 0.66911 0.33762 0.71717 0.0
C1439 C 0.64157 0.34473 0.72084 0.0
C1440 C 0.68292 0.37845 0.7054 0.0
C1441 C 0.63558 0.36894 0.71619 0.0
C1442 C 0.69789 0.42086 0.69326 0.0
C1443 C 0.75186 0.4076 0.69522 0.0
N1444 N 0.65607 0.38492 0.70883 0.0
N1445 N 0.73129 0.39113 0.69924 0.0
H1446 H 0.83269 0.54244 0.18552 0.0
H1447 H 0.80896 0.66342 0.26965 0.0
H1448 H 0.76509 0.5539 0.24502 0.0
H1449 H 0.88071 0.65196 0.21493 0.0
H1450 H 0.79183 0.62379 0.25898 0.0
H1451 H 0.84995 0.58297 0.19408 0.0
C1452 C 0.82143 0.55344 0.20026 0.0
C1453 C 0.79748 0.5446 0.21464 0.0
C1454 C 0.81135 0.62989 0.24928 0.0
C1455 C 0.81706 0.59092 0.22452 0.0
C1456 C 0.82108 0.65263 0.25529 0.0
C1457 C 0.84636 0.66113 0.24324 0.0
C1458 C 0.82689 0.61538 0.23096 0.0
C1459 C 0.86129 0.64607 0.22501 0.0
C1460 C 0.83132 0.57654 0.2052 0.0
C1461 C 0.78376 0.55973 0.23353 0.0
N1462 N 0.85134 0.62398 0.21941 0.0
N1463 N 0.79373 0.582 0.23789 0.0
H1464 H 0.22225 0.03291 0.17478 0.0
H1465 H 0.27879 0.16673 0.16022 0.0
H1466 H 0.23398 0.08049 0.2382 0.0
H1467 H 0.28856 0.113 0.10004 0.0
H1468 H 0.24662 0.14004 0.18594 0.0
H1469 H 0.23033 0.0669 0.14507 0.0
C1470 C 0.22596 0.05057 0.18253 0.0
C1471 C 0.22836 0.05368 0.20891 0.0
C1472 C 0.25538 0.1343 0.16688 0.0
C1473 C 0.23736 0.09251 0.17514 0.0
C1474 C 0.27366 0.14953 0.15218 0.0
C1475 C 0.28678 0.14175 0.12826 0.0
C1476 C 0.25028 0.11119 0.15758 0.0
C1477 C 0.27941 0.11934 0.11872 0.0
C1478 C 0.23045 0.06994 0.16558 0.0
C1479 C 0.23222 0.07711 0.21802 0.0
N1480 N 0.26193 0.10465 0.13359 0.0
N1481 N 0.23718 0.09554 0.20107 0.0
H1482 H 0.14086 0.89701 0.71234 0.0
H1483 H 0.17712 0.76253 0.66431 0.0
H1484 H 0.18915 0.84755 0.75157 0.0
H1485 H 0.12966 0.81052 0.62235 0.0
H1486 H 0.18101 0.79378 0.69621 0.0
H1487 H 0.13568 0.8661 0.67966 0.0
C1488 C 0.15023 0.87964 0.71428 0.0
C1489 C 0.16548 0.87504 0.73499 0.0
C1490 C 0.16971 0.7976 0.68009 0.0
C1491 C 0.15982 0.83948 0.69716 0.0
C1492 C 0.1674 0.77965 0.6617 0.0
C1493 C 0.15293 0.78369 0.64037 0.0
C1494 C 0.15748 0.82007 0.67749 0.0
C1495 C 0.141 0.80646 0.63837 0.0
C1496 C 0.14739 0.86202 0.69542 0.0
C1497 C 0.1775 0.85221 0.73595 0.0
N1498 N 0.14352 0.82376 0.65667 0.0
N1499 N 0.17439 0.83541 0.71743 0.0
H1500 H 0.85631 0.39392 0.85739 0.0
H1501 H 0.87429 0.25336 0.88342 0.0
H1502 H 0.86218 0.34018 0.79724 0.0
H1503 H 0.88521 0.30746 0.94083 0.0
H1504 H 0.86893 0.28501 0.85215 0.0
H1505 H 0.86565 0.36291 0.88847 0.0
C1506 C 0.85948 0.37559 0.85068 0.0
C1507 C 0.85823 0.36973 0.82454 0.0
C1508 C 0.87265 0.29006 0.87151 0.0
C1509 C 0.86912 0.33397 0.86026 0.0
C1510 C 0.87568 0.27194 0.8895 0.0
C1511 C 0.88018 0.27765 0.91497 0.0
C1512 C 0.87375 0.31431 0.87889 0.0
C1513 C 0.8819 0.30214 0.92145 0.0
C1514 C 0.86501 0.3579 0.86846 0.0
C1515 C 0.86305 0.34567 0.81705 0.0
N1516 N 0.87846 0.31954 0.90362 0.0
N1517 N 0.86805 0.32874 0.83479 0.0
H1518 H 0.64694 0.55959 0.29679 0.0
H1519 H 0.59115 0.60908 0.43545 0.0
H1520 H 0.64482 0.52017 0.36836 0.0
H1521 H 0.61316 0.65422 0.36876 0.0
H1522 H 0.59395 0.57396 0.40745 0.0
H1523 H 0.61943 0.59115 0.31973 0.0
C1524 C 0.64043 0.5574 0.31724 0.0
C1525 C 0.64894 0.53751 0.33083 0.0
C1526 C 0.59755 0.5916 0.39885 0.0
C1527 C 0.61703 0.57329 0.35695 0.0
C1528 C 0.5957 0.61177 0.41481 0.0
C1529 C 0.60264 0.63463 0.40451 0.0
C1530 C 0.60666 0.59427 0.37248 0.0
C1531 C 0.60848 0.63683 0.37759 0.0
C1532 C 0.62454 0.57533 0.33023 0.0
C1533 C 0.63899 0.53521 0.35707 0.0
N1534 N 0.61096 0.61682 0.36252 0.0
N1535 N 0.62395 0.55309 0.36936 0.0
H1536 H 0.31399 0.25186 0.13423 0.0
H1537 H 0.17497 0.3267 0.1689 0.0
H1538 H 0.28858 0.30943 0.0871 0.0
H1539 H 0.20444 0.27463 0.22026 0.0
H1540 H 0.21556 0.31941 0.13795 0.0
H1541 H 0.27331 0.25884 0.16529 0.0
C1542 C 0.29997 0.266 0.1304 0.0
C1543 C 0.30491 0.28009 0.10794 0.0
C1544 C 0.21314 0.30957 0.156 0.0
C1545 C 0.25803 0.2881 0.14346 0.0
C1546 C 0.18988 0.3137 0.1737 0.0
C1547 C 0.18613 0.30133 0.19736 0.0
C1548 C 0.23288 0.29284 0.16182 0.0
C1549 C 0.20634 0.28469 0.20237 0.0
C1550 C 0.27668 0.26997 0.14816 0.0
C1551 C 0.28581 0.2981 0.10409 0.0
N1552 N 0.22873 0.28095 0.18481 0.0
N1553 N 0.26331 0.30153 0.12157 0.0
H1554 H 0.72378 0.23362 0.87651 0.0
H1555 H 0.58357 0.17055 0.84587 0.0
H1556 H 0.70111 0.16104 0.89994 0.0
H1557 H 0.61283 0.23955 0.81579 0.0
H1558 H 0.62454 0.1675 0.86853 0.0
H1559 H 0.68155 0.23673 0.85648 0.0
C1560 C 0.71004 0.21826 0.87737 0.0
C1561 C 0.71626 0.197 0.88993 0.0
C1562 C 0.62187 0.18331 0.85701 0.0
C1563 C 0.66731 0.20057 0.86717 0.0
C1564 C 0.59843 0.18511 0.84415 0.0
C1565 C 0.59469 0.20528 0.82876 0.0
C1566 C 0.64162 0.20189 0.8546 0.0
C1567 C 0.61477 0.22355 0.82723 0.0
C1568 C 0.68575 0.22011 0.86602 0.0
C1569 C 0.69716 0.17791 0.89078 0.0
N1570 N 0.63725 0.22139 0.8399 0.0
N1571 N 0.67364 0.18014 0.87955 0.0
H1572 H 0.70982 0.75313 0.42036 0.0
H1573 H 0.85611 0.8202 0.39272 0.0
H1574 H 0.74248 0.8019 0.47373 0.0
H1575 H 0.82069 0.77815 0.33523 0.0
H1576 H 0.81527 0.81208 0.4232 0.0
H1577 H 0.75078 0.76051 0.38937 0.0
C1578 C 0.7255 0.76536 0.42561 0.0
C1579 C 0.72249 0.77691 0.44978 0.0
C1580 C 0.81642 0.80462 0.40391 0.0
C1581 C 0.76958 0.78537 0.4144 0.0
C1582 C 0.83982 0.80924 0.38646 0.0
C1583 C 0.842 0.79993 0.36124 0.0
C1584 C 0.79491 0.79046 0.39625 0.0
C1585 C 0.82004 0.78582 0.35439 0.0
C1586 C 0.74891 0.76959 0.40789 0.0
C1587 C 0.74365 0.79258 0.45539 0.0
N1588 N 0.79753 0.78152 0.37173 0.0
N1589 N 0.76615 0.79627 0.43796 0.0
H1590 H 0.40633 0.73359 0.75622 0.0
H1591 H 0.33305 0.67063 0.64406 0.0
H1592 H 0.44422 0.67659 0.70847 0.0
H1593 H 0.29536 0.72448 0.6962 0.0
H1594 H 0.3743 0.67299 0.66609 0.0
H1595 H 0.36634 0.73091 0.7332 0.0
C1596 C 0.40636 0.72046 0.74083 0.0
C1597 C 0.42893 0.70529 0.73433 0.0
C1598 C 0.35702 0.6843 0.67267 0.0
C1599 C 0.38256 0.70216 0.70764 0.0
C1600 C 0.33335 0.68291 0.66018 0.0
C1601 C 0.31049 0.69734 0.66827 0.0
C1602 C 0.35797 0.70026 0.69346 0.0
C1603 C 0.31245 0.71321 0.68899 0.0
C1604 C 0.38334 0.71895 0.72766 0.0
C1605 C 0.42739 0.68865 0.7142 0.0
N1606 N 0.33565 0.71418 0.70083 0.0
N1607 N 0.40462 0.68754 0.70156 0.0
H1608 H 0.77997 0.96252 0.676 0.0
H1609 H 0.8816 0.88285 0.75041 0.0
H1610 H 0.84262 0.99225 0.7183 0.0
H1611 H 0.81151 0.85314 0.71843 0.0
H1612 H 0.86941 0.9227 0.73613 0.0
H1613 H 0.79396 0.92192 0.68734 0.0
C1614 C 0.79708 0.96052 0.68713 0.0
C1615 C 0.81019 0.98085 0.69613 0.0
C1616 C 0.85668 0.90746 0.73222 0.0
C1617 C 0.82603 0.93446 0.70956 0.0
C1618 C 0.86348 0.88463 0.74063 0.0
C1619 C 0.8476 0.86435 0.73576 0.0
C1620 C 0.83386 0.91027 0.71862 0.0
C1621 C 0.82469 0.86803 0.72237 0.0
C1622 C 0.80485 0.93734 0.69387 0.0
C1623 C 0.83192 0.97712 0.71091 0.0
N1624 N 0.81856 0.89045 0.71427 0.0
N1625 N 0.83905 0.95448 0.71722 0.0
H1626 H 0.71146 0.06758 0.18483 0.0
H1627 H 0.67127 0.2032 0.22436 0.0
H1628 H 0.76996 0.12382 0.19593 0.0
H1629 H 0.61146 0.14701 0.21763 0.0
H1630 H 0.70751 0.17532 0.20858 0.0
H1631 H 0.67459 0.09721 0.19159 0.0
C1632 C 0.71662 0.08618 0.18834 0.0
C1633 C 0.74387 0.09314 0.19004 0.0
C1634 C 0.68645 0.16909 0.21035 0.0
C1635 C 0.70175 0.1271 0.19794 0.0
C1636 C 0.66566 0.18511 0.21918 0.0
C1637 C 0.63818 0.17748 0.2225 0.0
C1638 C 0.67986 0.14514 0.20481 0.0
C1639 C 0.63236 0.15361 0.21581 0.0
C1640 C 0.69554 0.10307 0.19231 0.0
C1641 C 0.74927 0.11752 0.1947 0.0
N1642 N 0.65301 0.13827 0.20746 0.0
N1643 N 0.72844 0.13353 0.19864 0.0
H1644 H 0.4169 0.64378 0.32158 0.0
H1645 H 0.26257 0.62225 0.38026 0.0
H1646 H 0.36539 0.70056 0.35637 0.0
H1647 H 0.32046 0.5642 0.36756 0.0
H1648 H 0.30024 0.65115 0.37235 0.0
H1649 H 0.38261 0.61429 0.33901 0.0
C1650 C 0.39864 0.65011 0.33321 0.0
C1651 C 0.39407 0.67486 0.33726 0.0
C1652 C 0.30481 0.6321 0.37163 0.0
C1653 C 0.35433 0.64101 0.35682 0.0
C1654 C 0.28329 0.61558 0.37613 0.0
C1655 C 0.28839 0.59078 0.37447 0.0
C1656 C 0.33164 0.62382 0.36492 0.0
C1657 C 0.31565 0.58317 0.36914 0.0
C1658 C 0.37897 0.63319 0.34305 0.0
C1659 C 0.36965 0.68179 0.35217 0.0
N1660 N 0.33623 0.59963 0.36416 0.0
N1661 N 0.35063 0.66501 0.36114 0.0
H1662 H 0.16671 0.36426 0.85512 0.0
H1663 H 0.23638 0.48604 0.79701 0.0
H1664 H 0.18796 0.37742 0.77362 0.0
H1665 H 0.20752 0.47747 0.87795 0.0
H1666 H 0.21791 0.44651 0.78845 0.0
H1667 H 0.18109 0.40536 0.86417 0.0
C1668 C 0.1745 0.37574 0.8391 0.0
C1669 C 0.17626 0.36721 0.81352 0.0
C1670 C 0.2154 0.45325 0.80809 0.0
C1671 C 0.19255 0.41452 0.82383 0.0
C1672 C 0.22598 0.4759 0.81304 0.0
C1673 C 0.22361 0.48516 0.83831 0.0
C1674 C 0.20246 0.4394 0.82854 0.0
C1675 C 0.20974 0.47113 0.85818 0.0
C1676 C 0.18251 0.39929 0.84431 0.0
C1677 C 0.18602 0.38316 0.79361 0.0
N1678 N 0.19989 0.44886 0.8529 0.0
N1679 N 0.1939 0.40591 0.79919 0.0
H1680 H 0.73222 0.84507 0.87207 0.0
H1681 H 0.8204 0.96392 0.86466 0.0
H1682 H 0.75628 0.88305 0.93817 0.0
H1683 H 0.78942 0.92935 0.79968 0.0
H1684 H 0.8111 0.92703 0.88969 0.0
H1685 H 0.76632 0.86794 0.84418 0.0
C1686 C 0.74507 0.85788 0.8808 0.0
C1687 C 0.74087 0.86272 0.90739 0.0
C1688 C 0.807 0.92734 0.86974 0.0
C1689 C 0.7796 0.88921 0.87554 0.0
C1690 C 0.81225 0.9484 0.85547 0.0
C1691 C 0.80475 0.94999 0.83039 0.0
C1692 C 0.7939 0.90794 0.85886 0.0
C1693 C 0.79514 0.92912 0.8191 0.0
C1694 C 0.76452 0.87098 0.86484 0.0
C1695 C 0.7582 0.87941 0.91763 0.0
N1696 N 0.78933 0.90913 0.83365 0.0
N1697 N 0.77647 0.8924 0.90163 0.0
H1698 H 0.89624 0.14487 0.33092 0.0
H1699 H 0.83702 0.26145 0.40806 0.0
H1700 H 0.82661 0.18537 0.31214 0.0
H1701 H 0.91731 0.23389 0.41684 0.0
H1702 H 0.83231 0.23159 0.37492 0.0
H1703 H 0.90409 0.17536 0.36338 0.0
C1704 C 0.88271 0.16021 0.33332 0.0
C1705 C 0.86053 0.16225 0.3186 0.0
C1706 C 0.85103 0.23197 0.38399 0.0
C1707 C 0.86925 0.19713 0.35639 0.0
C1708 C 0.85377 0.24907 0.40316 0.0
C1709 C 0.87767 0.25037 0.41555 0.0
C1710 C 0.8722 0.2156 0.37692 0.0
C1711 C 0.89851 0.23367 0.40793 0.0
C1712 C 0.88717 0.17756 0.35206 0.0
C1713 C 0.8436 0.1825 0.32318 0.0
N1714 N 0.89526 0.21693 0.3892 0.0
N1715 N 0.84822 0.19892 0.34162 0.0
H1716 H 0.17556 0.7681 0.16504 0.0
H1717 H 0.14476 0.63274 0.21376 0.0
H1718 H 0.12749 0.71924 0.1239 0.0
H1719 H 0.20204 0.68138 0.24377 0.0
H1720 H 0.13527 0.66381 0.18239 0.0
H1721 H 0.18238 0.73646 0.19534 0.0
C1722 C 0.16627 0.75071 0.16229 0.0
C1723 C 0.15085 0.74655 0.14161 0.0
C1724 C 0.14994 0.66759 0.19583 0.0
C1725 C 0.15883 0.70959 0.17696 0.0
C1726 C 0.15528 0.64992 0.21386 0.0
C1727 C 0.17443 0.65428 0.23145 0.0
C1728 C 0.16361 0.68992 0.19554 0.0
C1729 C 0.1875 0.67689 0.23043 0.0
C1730 C 0.1703 0.73249 0.17976 0.0
C1731 C 0.13953 0.72338 0.13945 0.0
N1732 N 0.18183 0.69371 0.21294 0.0
N1733 N 0.14372 0.70577 0.15691 0.0
H1734 H 0.39137 0.50506 0.69142 0.0
H1735 H 0.41725 0.36611 0.68971 0.0
H1736 H 0.38332 0.46138 0.76039 0.0
H1737 H 0.43536 0.41253 0.62348 0.0
H1738 H 0.41476 0.40155 0.71772 0.0
H1739 H 0.41751 0.47311 0.66837 0.0
C1740 C 0.39558 0.48898 0.70192 0.0
C1741 C 0.38444 0.48568 0.72773 0.0
C1742 C 0.41996 0.40393 0.6971 0.0
C1743 C 0.41381 0.44863 0.70116 0.0
C1744 C 0.42131 0.38369 0.68112 0.0
C1745 C 0.42585 0.38639 0.65418 0.0
C1746 C 0.4228 0.42697 0.68598 0.0
C1747 C 0.43162 0.40953 0.64411 0.0
C1748 C 0.41045 0.47062 0.68867 0.0
C1749 C 0.39063 0.46435 0.74023 0.0
N1750 N 0.42933 0.42895 0.65997 0.0
N1751 N 0.4044 0.44643 0.72668 0.0
H1752 H 0.86018 0.70185 0.89101 0.0
H1753 H 0.71296 0.76447 0.92203 0.0
H1754 H 0.82357 0.74644 0.83683 0.0
H1755 H 0.74584 0.71498 0.97397 0.0
H1756 H 0.75389 0.75888 0.89114 0.0
H1757 H 0.81925 0.70731 0.92218 0.0
C1758 C 0.84363 0.71282 0.88563 0.0
C1759 C 0.84548 0.72365 0.86113 0.0
C1760 C 0.75215 0.74919 0.90927 0.0
C1761 C 0.79839 0.73 0.89687 0.0
C1762 C 0.72872 0.75241 0.927 0.0
C1763 C 0.72579 0.74023 0.95078 0.0
C1764 C 0.77301 0.7337 0.91527 0.0
C1765 C 0.74704 0.72475 0.95592 0.0
C1766 C 0.8202 0.71589 0.90346 0.0
C1767 C 0.82321 0.73765 0.85538 0.0
N1768 N 0.76968 0.72198 0.93841 0.0
N1769 N 0.80073 0.74041 0.87305 0.0
H1770 H 0.30781 0.86919 0.18439 0.0
H1771 H 0.44058 0.7921 0.20572 0.0
H1772 H 0.32245 0.79705 0.1554 0.0
H1773 H 0.42404 0.86214 0.23973 0.0
H1774 H 0.399 0.79504 0.18467 0.0
H1775 H 0.35122 0.86799 0.20287 0.0
C1776 C 0.32001 0.85302 0.18201 0.0
C1777 C 0.31119 0.83313 0.16835 0.0
C1778 C 0.4045 0.80986 0.19659 0.0
C1779 C 0.36142 0.83185 0.18921 0.0
C1780 C 0.42837 0.80824 0.2086 0.0
C1781 C 0.43594 0.82691 0.2246 0.0
C1782 C 0.38784 0.83028 0.20058 0.0
C1783 C 0.41916 0.84735 0.2275 0.0
C1784 C 0.34496 0.85244 0.19243 0.0
C1785 C 0.32837 0.81293 0.16548 0.0
N1786 N 0.39585 0.84843 0.21573 0.0
N1787 N 0.35253 0.81281 0.17584 0.0
H1788 H 0.31789 0.26895 0.63707 0.0
H1789 H 0.17113 0.20322 0.66567 0.0
H1790 H 0.28473 0.21986 0.5843 0.0
H1791 H 0.20682 0.24626 0.72224 0.0
H1792 H 0.21218 0.21032 0.63517 0.0
H1793 H 0.27703 0.26201 0.66822 0.0
C1794 C 0.30212 0.25672 0.63201 0.0
C1795 C 0.30491 0.245 0.60795 0.0
C1796 C 0.21105 0.2182 0.65428 0.0
C1797 C 0.25797 0.23704 0.64349 0.0
C1798 C 0.18754 0.21416 0.67173 0.0
C1799 C 0.18537 0.22409 0.69667 0.0
C1800 C 0.23265 0.23239 0.66167 0.0
C1801 C 0.20747 0.23814 0.70329 0.0
C1802 C 0.27878 0.25275 0.64981 0.0
C1803 C 0.28368 0.22934 0.60255 0.0
N1804 N 0.23007 0.24188 0.68595 0.0
N1805 N 0.26123 0.22589 0.62007 0.0
H1806 H 0.58574 0.29236 0.35308 0.0
H1807 H 0.7198 0.36851 0.37619 0.0
H1808 H 0.60546 0.36146 0.31772 0.0
H1809 H 0.70036 0.29843 0.40925 0.0
H1810 H 0.67729 0.36723 0.35616 0.0
H1811 H 0.62622 0.29562 0.37575 0.0
C1812 C 0.59844 0.30836 0.35021 0.0
C1813 C 0.59209 0.32666 0.33335 0.0
C1814 C 0.68229 0.35215 0.36784 0.0
C1815 C 0.63895 0.33039 0.35928 0.0
C1816 C 0.70672 0.35277 0.37916 0.0
C1817 C 0.71393 0.33347 0.39439 0.0
C1818 C 0.66476 0.33209 0.37169 0.0
C1819 C 0.69568 0.31385 0.39793 0.0
C1820 C 0.62167 0.31017 0.36318 0.0
C1821 C 0.60943 0.34694 0.33056 0.0
N1822 N 0.67208 0.31364 0.38663 0.0
N1823 N 0.63212 0.34819 0.34325 0.0
H1824 H 0.03086 0.28707 0.22858 0.0
H1825 H 0.03326 0.23718 0.08423 0.0
H1826 H 0.10344 0.25728 0.1861 0.0
H1827 H 0.96309 0.26958 0.12832 0.0
H1828 H 0.05803 0.23964 0.12235 0.0
H1829 H 1.00453 0.27529 0.19382 0.0
C1830 C 0.04114 0.27751 0.2121 0.0
C1831 C 0.06939 0.27312 0.21026 0.0
C1832 C 0.03715 0.24604 0.12372 0.0
C1833 C 0.03938 0.26014 0.16972 0.0
C1834 C 0.02291 0.24456 0.10198 0.0
C1835 C 0.99602 0.25336 0.10292 0.0
C1836 C 0.02442 0.2563 0.14668 0.0
C1837 C 0.98389 0.26295 0.12644 0.0
C1838 C 0.02611 0.27094 0.19211 0.0
C1839 C 0.08165 0.26078 0.18841 0.0
N1840 N 0.99816 0.26422 0.14723 0.0
N1841 N 0.06665 0.25503 0.16877 0.0
H1842 H 0.62193 0.71511 0.58178 0.0
H1843 H 0.52511 0.76702 0.70407 0.0
H1844 H 0.58828 0.78669 0.58408 0.0
H1845 H 0.56999 0.70066 0.70554 0.0
H1846 H 0.54659 0.77407 0.65983 0.0
H1847 H 0.60111 0.70877 0.62627 0.0
C1848 C 0.60995 0.72945 0.5915 0.0
C1849 C 0.60681 0.75146 0.57893 0.0
C1850 C 0.55187 0.75804 0.66988 0.0
C1851 C 0.58292 0.74431 0.63031 0.0
C1852 C 0.53964 0.75401 0.69524 0.0
C1853 C 0.54573 0.73322 0.70878 0.0
C1854 C 0.5702 0.74107 0.65769 0.0
C1855 C 0.56469 0.71701 0.69607 0.0
C1856 C 0.59818 0.72585 0.61705 0.0
C1857 C 0.59125 0.7694 0.59283 0.0
N1858 N 0.57606 0.7212 0.67132 0.0
N1859 N 0.57989 0.76542 0.61765 0.0
H1860 H 0.44427 0.28829 0.9772 0.0
H1861 H 0.45491 0.20273 0.8526 0.0
H1862 H 0.41046 0.2164 0.978 0.0
H1863 H 0.50489 0.26646 0.85657 0.0
H1864 H 0.4356 0.20929 0.89741 0.0
H1865 H 0.46463 0.28198 0.93252 0.0
C1866 C 0.44135 0.27107 0.96812 0.0
C1867 C 0.42568 0.25281 0.98158 0.0
C1868 C 0.45072 0.2219 0.88848 0.0
C1869 C 0.44857 0.24566 0.93001 0.0
C1870 C 0.46165 0.21829 0.86274 0.0
C1871 C 0.4816 0.2341 0.85059 0.0
C1872 C 0.45954 0.2416 0.90235 0.0
C1873 C 0.48956 0.25381 0.86501 0.0
C1874 C 0.45294 0.26752 0.94253 0.0
C1875 C 0.42255 0.23094 0.96861 0.0
N1876 N 0.47852 0.257 0.89005 0.0
N1877 N 0.43367 0.22806 0.94357 0.0
H1878 H 0.99226 0.74754 0.47664 0.0
H1879 H 0.99945 0.78267 0.3279 0.0
H1880 H 0.06767 0.76236 0.42789 0.0
H1881 H 0.92497 0.75822 0.3724 0.0
H1882 H 0.02512 0.77151 0.3633 0.0
H1883 H 0.96762 0.74837 0.43849 0.0
C1884 C 1.00369 0.7509 0.45792 0.0
C1885 C 0.03214 0.75514 0.45561 0.0
C1886 C 1.00326 0.7681 0.36527 0.0
C1887 C 1.00392 0.75595 0.41167 0.0
C1888 C 0.9886 0.77433 0.34495 0.0
C1889 C 0.96005 0.77124 0.34715 0.0
C1890 C 0.98929 0.75912 0.38836 0.0
C1891 C 0.947 0.76061 0.36978 0.0
C1892 C 0.98959 0.75119 0.43609 0.0
C1893 C 0.04582 0.7589 0.43071 0.0
N1894 N 0.96166 0.7553 0.38971 0.0
N1895 N 0.03158 0.75947 0.40984 0.0
H1896 H 0.19833 0.9214 0.32371 0.0
H1897 H 0.04983 0.90202 0.40254 0.0
H1898 H 0.17642 0.946 0.40201 0.0
H1899 H 0.06882 0.88694 0.32112 0.0
H1900 H 0.0974 0.91444 0.40403 0.0
H1901 H 0.15246 0.90412 0.32406 0.0
C1902 C 0.18401 0.92293 0.34109 0.0
C1903 C 0.19118 0.93533 0.3628 0.0
C1904 C 0.09116 0.90833 0.38587 0.0
C1905 C 0.13856 0.91576 0.36324 0.0
C1906 C 0.06395 0.90139 0.38495 0.0
C1907 C 0.05522 0.8935 0.36164 0.0
C1908 C 0.10985 0.90738 0.36332 0.0
C1909 C 0.07463 0.89262 0.33959 0.0
C1910 C 0.15776 0.91316 0.34122 0.0
C1911 C 0.17173 0.93675 0.38476 0.0
N1912 N 0.10098 0.89953 0.34096 0.0
N1913 N 0.14627 0.92721 0.38436 0.0
H1914 H 0.36802 0.12043 0.80189 0.0
H1915 H 0.30708 0.98868 0.81204 0.0
H1916 H 0.41632 0.05668 0.78415 0.0
H1917 H 0.25625 0.05168 0.81596 0.0
H1918 H 0.34645 0.01328 0.79501 0.0
H1919 H 0.32635 0.09626 0.80107 0.0
C1920 C 0.36989 0.10143 0.79741 0.0
C1921 C 0.39572 0.09048 0.79358 0.0
C1922 C 0.32661 0.02174 0.79888 0.0
C1923 C 0.34811 0.06267 0.79285 0.0
C1924 C 0.30413 1.00762 0.80836 0.0
C1925 C 0.27855 0.01824 0.81501 0.0
C1926 C 0.32359 0.04678 0.7969 0.0
C1927 C 0.2757 0.04289 0.81059 0.0
C1928 C 0.34607 0.08763 0.79698 0.0
C1929 C 0.39685 0.06577 0.78794 0.0
N1930 N 0.29813 0.05649 0.80228 0.0
N1931 N 0.37342 0.05268 0.78807 0.0
H1932 H 0.76704 0.55539 0.74319 0.0
H1933 H 0.60507 0.55018 0.75329 0.0
H1934 H 0.72204 0.4885 0.74448 0.0
H1935 H 0.65023 0.61414 0.76988 0.0
H1936 H 0.64703 0.52681 0.75272 0.0
H1937 H 0.72438 0.57666 0.75642 0.0
C1938 C 0.74817 0.54512 0.74697 0.0
C1939 C 0.74799 0.52019 0.74285 0.0
C1940 C 0.64769 0.54591 0.75675 0.0
C1941 C 0.69887 0.54449 0.75708 0.0
C1942 C 0.62368 0.55932 0.75714 0.0
C1943 C 0.62402 0.58431 0.76142 0.0
C1944 C 0.67237 0.55755 0.76042 0.0
C1945 C 0.64897 0.59507 0.76591 0.0
C1946 C 0.72378 0.55727 0.75437 0.0
C1947 C 0.72303 0.50772 0.74775 0.0
N1948 N 0.67212 0.58169 0.76507 0.0
N1949 N 0.69933 0.52007 0.75415 0.0
H1950 H 0.98052 0.4343 0.24148 0.0
H1951 H 0.8368 0.41468 0.18712 0.0
H1952 H 0.96311 0.37479 0.19258 0.0
H1953 H 0.84755 0.46443 0.24887 0.0
H1954 H 0.88339 0.40047 0.18844 0.0
H1955 H 0.93252 0.44671 0.24356 0.0
C1956 C 0.96662 0.42391 0.23111 0.0
C1957 C 0.97583 0.4035 0.2168 0.0
C1958 C 0.87555 0.41436 0.20186 0.0
C1959 C 0.92095 0.41749 0.21921 0.0
C1960 C 0.8489 0.4225 0.20113 0.0
C1961 C 0.83825 0.44082 0.21789 0.0
C1962 C 0.89193 0.42478 0.21926 0.0
C1963 C 0.8549 0.45021 0.23566 0.0
C1964 C 0.93921 0.43088 0.23248 0.0
C1965 C 0.95686 0.39051 0.20403 0.0
N1966 N 0.88103 0.44224 0.23572 0.0
N1967 N 0.9304 0.39779 0.20543 0.0
H1968 H 0.28739 0.22606 0.03408 0.0
H1969 H 0.31761 0.12622 0.92375 0.0
H1970 H 0.35416 0.23268 0.973 0.0
H1971 H 0.24988 0.12366 0.98441 0.0
H1972 H 0.32898 0.16684 0.93807 0.0
H1973 H 0.27055 0.19098 1.01251 0.0
C1974 C 0.29808 0.22048 1.01568 0.0
C1975 C 0.32205 0.23245 1.00522 0.0
C1976 C 0.31151 0.15744 0.94809 0.0
C1977 C 0.30346 0.19146 0.9807 0.0
C1978 C 0.30494 0.13424 0.93988 0.0
C1979 C 0.28292 0.12124 0.95307 0.0
C1980 C 0.2959 0.16781 0.96961 0.0
C1981 C 0.26738 0.13264 0.97394 0.0
C1982 C 0.28861 0.20025 1.00345 0.0
C1983 C 0.33534 0.2242 0.98151 0.0
N1984 N 0.27425 0.15507 0.98158 0.0
N1985 N 0.32611 0.20397 0.97023 0.0
H1986 H 0.81889 0.28258 0.97626 0.0
H1987 H 0.79699 0.35692 0.10849 0.0
H1988 H 0.83602 0.2547 0.04983 0.0
H1989 H 0.80711 0.39044 0.03323 0.0
H1990 H 0.80072 0.31754 0.08772 0.0
H1991 H 0.80313 0.32017 0.99768 0.0
C1992 C 0.81863 0.28413 0.99701 0.0
C1993 C 0.82889 0.26561 1.01133 0.0
C1994 C 0.80196 0.33352 0.07577 0.0
C1995 C 0.8112 0.30843 0.03577 0.0
C1996 C 0.80007 0.35605 0.08759 0.0
C1997 C 0.80228 0.37712 0.07262 0.0
C1998 C 0.80589 0.33194 0.04873 0.0
C1999 C 0.80529 0.37474 0.04559 0.0
C2000 C 0.80991 0.30564 1.00915 0.0
C2001 C 0.82844 0.26863 0.03809 0.0
N2002 N 0.8072 0.35255 0.0345 0.0
N2003 N 0.81992 0.28971 0.04942 0.0
H2004 H 0.67734 0.73869 0.58948 0.0
H2005 H 0.78713 0.63237 0.58705 0.0
H2006 H 0.74032 0.72516 0.52644 0.0
H2007 H 0.71288 0.63449 0.64019 0.0
H2008 H 0.77611 0.67187 0.57071 0.0
H2009 H 0.69629 0.70649 0.61429 0.0
C2010 C 0.69578 0.72958 0.58129 0.0
C2011 C 0.70743 0.73463 0.55598 0.0
C2012 C 0.76235 0.66382 0.58614 0.0
C2013 C 0.7288 0.69757 0.58386 0.0
C2014 C 0.76872 0.64129 0.59561 0.0
C2015 C 0.7508 0.6299 0.61491 0.0
C2016 C 0.7379 0.67524 0.59603 0.0
C2017 C 0.72707 0.64236 0.625 0.0
C2018 C 0.70635 0.71099 0.59528 0.0
C2019 C 0.73084 0.72185 0.54596 0.0
N2020 N 0.72123 0.66425 0.61535 0.0
N2021 N 0.74061 0.70383 0.55981 0.0
H2022 H 0.19423 0.76323 0.50672 0.0
H2023 H 0.25602 0.89324 0.52957 0.0
H2024 H 0.21918 0.78504 0.57995 0.0
H2025 H 0.24664 0.86419 0.45426 0.0
H2026 H 0.24387 0.85368 0.54858 0.0
H2027 H 0.21537 0.7996 0.48702 0.0
C2028 C 0.20457 0.77552 0.51857 0.0
C2029 C 0.20488 0.77115 0.54501 0.0
C2030 C 0.24479 0.85594 0.52786 0.0
C2031 C 0.22867 0.81318 0.5227 0.0
C2032 C 0.25154 0.87854 0.51704 0.0
C2033 C 0.25235 0.88206 0.49028 0.0
C2034 C 0.23847 0.83682 0.51185 0.0
C2035 C 0.24661 0.86229 0.47493 0.0
C2036 C 0.2166 0.79633 0.50732 0.0
C2037 C 0.21859 0.78768 0.55945 0.0
N2038 N 0.23972 0.84064 0.48594 0.0
N2039 N 0.2296 0.80817 0.54818 0.0
H2040 H 0.92411 0.77051 0.87099 0.0
H2041 H 0.06745 0.76766 0.93069 0.0
H2042 H 1.00007 0.74528 0.83038 0.0
H2043 H 0.99003 0.78136 0.97636 0.0
H2044 H 0.04401 0.76654 0.8919 0.0
H2045 H 0.94886 0.78204 0.9076 0.0
C2046 C 0.94609 0.76809 0.86946 0.0
C2047 C 0.96007 0.75695 0.84762 0.0
C2048 C 0.03214 0.76997 0.91038 0.0
C2049 C 0.98839 0.76963 0.88946 0.0
C2050 C 0.04558 0.77075 0.93258 0.0
C2051 C 0.03074 0.7744 0.95698 0.0
C2052 C 1.00356 0.77294 0.91241 0.0
C2053 C 1.00229 0.77804 0.95807 0.0
C2054 C 0.96017 0.77439 0.89046 0.0
C2055 C 0.98848 0.75379 0.84686 0.0
N2056 N 0.98964 0.77709 0.93619 0.0
N2057 N 1.00161 0.75991 0.86747 0.0
H2058 H 0.48515 0.25748 0.34667 0.0
H2059 H 0.41172 0.31062 0.4806 0.0
H2060 H 0.47027 0.33306 0.36091 0.0
H2061 H 0.43003 0.23529 0.46873 0.0
H2062 H 0.43199 0.31882 0.43639 0.0
H2063 H 0.46318 0.24861 0.39035 0.0
C2064 C 0.47699 0.27221 0.35879 0.0
C2065 C 0.47965 0.29609 0.34991 0.0
C2066 C 0.43169 0.30049 0.44344 0.0
C2067 C 0.45468 0.28603 0.40028 0.0
C2068 C 0.42018 0.29579 0.46881 0.0
C2069 C 0.41923 0.27221 0.47862 0.0
C2070 C 0.44235 0.28152 0.42751 0.0
C2071 C 0.4304 0.25377 0.46216 0.0
C2072 C 0.46459 0.26712 0.38385 0.0
C2073 C 0.4688 0.31437 0.36675 0.0
N2074 N 0.44142 0.25881 0.43748 0.0
N2075 N 0.45693 0.30897 0.39102 0.0
H2076 H 0.6112 0.80987 0.07298 0.0
H2077 H 0.54415 0.75837 0.2104 0.0
H2078 H 0.59795 0.73421 0.08881 0.0
H2079 H 0.55499 0.83407 0.1935 0.0
H2080 H 0.56493 0.7491 0.16647 0.0
H2081 H 0.59085 0.81901 0.11702 0.0
C2082 C 0.60377 0.79515 0.08556 0.0
C2083 C 0.60628 0.7712 0.07693 0.0
C2084 C 0.56289 0.76774 0.17242 0.0
C2085 C 0.58318 0.7816 0.12784 0.0
C2086 C 0.55116 0.77307 0.19763 0.0
C2087 C 0.54775 0.79708 0.20588 0.0
C2088 C 0.57136 0.78652 0.15516 0.0
C2089 C 0.55712 0.81528 0.18818 0.0
C2090 C 0.59226 0.8004 0.11084 0.0
C2091 C 0.59642 0.75296 0.0944 0.0
N2092 N 0.56836 0.80964 0.16377 0.0
N2093 N 0.58543 0.75852 0.11893 0.0
H2094 H 0.04899 0.28336 0.57437 0.0
H2095 H 0.02999 0.24244 0.7222 0.0
H2096 H 0.97057 0.26714 0.61753 0.0
H2097 H 0.107 0.26873 0.68404 0.0
H2098 H 1.00781 0.25351 0.68454 0.0
H2099 H 0.07048 0.27977 0.61417 0.0
C2100 C 0.03616 0.27927 0.59219 0.0
C2101 C 1.00778 0.27548 0.59235 0.0
C2102 C 0.02947 0.25725 0.68442 0.0
C2103 C 0.03256 0.27104 0.63819 0.0
C2104 C 0.04215 0.25105 0.70604 0.0
C2105 C 0.07039 0.25476 0.70634 0.0
C2106 C 0.04514 0.26696 0.66256 0.0
C2107 C 0.08513 0.26581 0.68475 0.0
C2108 C 0.04855 0.27714 0.61495 0.0
C2109 C 0.99252 0.26981 0.61615 0.0
N2110 N 0.07241 0.27123 0.66357 0.0
N2111 N 1.00508 0.26768 0.63795 0.0
H2112 H 0.82915 0.09691 0.74216 0.0
H2113 H 0.96793 0.14008 0.65843 0.0
H2114 H 0.8437 0.09127 0.65906 0.0
H2115 H 0.96014 0.1292 0.74094 0.0
H2116 H 0.91968 0.1289 0.65862 0.0
H2117 H 0.87425 0.11581 0.74219 0.0
C2118 C 0.84163 0.1 0.72389 0.0
C2119 C 0.83279 0.0923 0.70058 0.0
C2120 C 0.92851 0.12905 0.67669 0.0
C2121 C 0.88439 0.11374 0.70051 0.0
C2122 C 0.956 0.13552 0.67661 0.0
C2123 C 0.96811 0.13536 0.69967 0.0
C2124 C 0.91296 0.12253 0.70002 0.0
C2125 C 0.95173 0.12916 0.72266 0.0
C2126 C 0.86743 0.11064 0.72394 0.0
C2127 C 0.84984 0.09669 0.6775 0.0
N2128 N 0.92501 0.12294 0.72225 0.0
N2129 N 0.87489 0.107 0.67806 0.0
H2130 H 0.72447 0.03751 0.25352 0.0
H2131 H 0.65219 0.90822 0.26798 0.0
H2132 H 0.76641 0.96993 0.24023 0.0
H2133 H 0.6077 0.97489 0.27904 0.0
H2134 H 0.69503 0.93082 0.26477 0.0
H2135 H 0.68269 0.01536 0.27033 0.0
C2136 C 0.7251 0.01808 0.2549 0.0
C2137 C 0.74879 1.00549 0.24534 0.0
C2138 C 0.67592 0.94055 0.26812 0.0
C2139 C 0.7012 0.98008 0.26395 0.0
C2140 C 0.65136 0.9276 0.2701 0.0
C2141 C 0.62616 0.93961 0.27357 0.0
C2142 C 0.67546 0.96582 0.26942 0.0
C2143 C 0.62659 0.96485 0.27581 0.0
C2144 C 0.7012 1.00542 0.26421 0.0
C2145 C 0.74845 0.9803 0.24721 0.0
N2146 N 0.65082 0.97712 0.27348 0.0
N2147 N 0.725 0.96845 0.25601 0.0
H2148 H 0.42391 0.47437 0.2795 0.0
H2149 H 0.26268 0.46925 0.32305 0.0
H2150 H 0.37738 0.40902 0.29675 0.0
H2151 H 0.3075 0.53585 0.30944 0.0
H2152 H 0.30359 0.44706 0.30638 0.0
H2153 H 0.38117 0.49716 0.28461 0.0
C2154 C 0.40475 0.46477 0.28431 0.0
C2155 C 0.40439 0.43968 0.28793 0.0
C2156 C 0.3045 0.46653 0.3066 0.0
C2157 C 0.35527 0.46572 0.29343 0.0
C2158 C 0.28106 0.47922 0.31597 0.0
C2159 C 0.28177 0.5044 0.3177 0.0
C2160 C 0.32908 0.47904 0.29922 0.0
C2161 C 0.30608 0.51644 0.30826 0.0
C2162 C 0.38032 0.47781 0.28702 0.0
C2163 C 0.37881 0.42825 0.29356 0.0
N2164 N 0.32896 0.50361 0.2998 0.0
N2165 N 0.3554 0.44135 0.29631 0.0
H2166 H 0.19953 0.6146 0.86927 0.0
H2167 H 0.0554 0.59841 0.81573 0.0
H2168 H 0.18769 0.56665 0.80626 0.0
H2169 H 0.07459 0.65803 0.86372 0.0
H2170 H 0.10337 0.58579 0.81249 0.0
H2171 H 0.15372 0.63061 0.86751 0.0
C2172 C 0.18738 0.60762 0.85484 0.0
C2173 C 0.1974 0.5892 0.83793 0.0
C2174 C 0.0971 0.60172 0.82358 0.0
C2175 C 0.14467 0.6072 0.83611 0.0
C2176 C 0.06971 0.6088 0.82562 0.0
C2177 C 0.061 0.62924 0.8401 0.0
C2178 C 0.11583 0.615 0.83639 0.0
C2179 C 0.08046 0.64225 0.85222 0.0
C2180 C 0.16121 0.61678 0.85386 0.0
C2181 C 0.18079 0.58091 0.8196 0.0
N2182 N 0.10689 0.63481 0.85025 0.0
N2183 N 0.15507 0.58977 0.81938 0.0
H2184 H 0.74073 0.79893 1.02131 0.0
H2185 H 0.71376 0.88916 0.14035 0.0
H2186 H 0.68027 0.78481 0.08648 0.0
H2187 H 0.78236 0.89541 0.08088 0.0
H2188 H 0.70264 0.84985 0.12275 0.0
H2189 H 0.75838 0.8325 0.0448 0.0
C2190 C 0.73158 0.80259 0.04087 0.0
C2191 C 0.70909 0.789 0.05201 0.0
C2192 C 0.72031 0.8597 0.11375 0.0
C2193 C 0.72866 0.82804 0.07885 0.0
C2194 C 0.72658 0.88224 0.12368 0.0
C2195 C 0.74897 0.89578 0.11201 0.0
C2196 C 0.73636 0.85065 0.09179 0.0
C2197 C 0.76505 0.88564 0.09068 0.0
C2198 C 0.74157 0.82187 0.05425 0.0
C2199 C 0.69787 0.79465 0.07731 0.0
N2200 N 0.75828 0.86389 0.08115 0.0
N2201 N 0.70748 0.814 0.08974 0.0
H2202 H 0.22203 0.66739 0.94821 0.0
H2203 H 0.21245 0.74429 0.07889 0.0
H2204 H 0.23704 0.63717 1.02143 0.0
H2205 H 0.18649 0.76935 1.0074 0.0
H2206 H 0.22899 0.70714 0.05695 0.0
H2207 H 0.2159 0.70672 0.96855 0.0
C2208 C 0.22434 0.66906 0.96855 0.0
C2209 C 0.23008 0.64888 0.98312 0.0
C2210 C 0.22003 0.72094 0.04602 0.0
C2211 C 0.22264 0.69405 1.00672 0.0
C2212 C 0.21084 0.74223 0.05845 0.0
C2213 C 0.19794 0.75983 0.04495 0.0
C2214 C 0.2164 0.7174 1.01993 0.0
C2215 C 0.19611 0.75615 1.01858 0.0
C2216 C 0.22068 0.69155 0.9802 0.0
C2217 C 0.23231 0.65216 1.00953 0.0
N2218 N 0.20503 0.7353 1.00701 0.0
N2219 N 0.22851 0.67431 1.02052 0.0
H2220 H 0.34748 0.28627 0.46914 0.0
H2221 H 0.23502 0.39065 0.47831 0.0
H2222 H 0.28558 0.29706 0.53377 0.0
H2223 H 0.30717 0.39079 0.42241 0.0
H2224 H 0.2476 0.351 0.49293 0.0
H2225 H 0.32692 0.31866 0.4458 0.0
C2226 C 0.32895 0.29483 0.47798 0.0
C2227 C 0.31805 0.28897 0.50331 0.0
C2228 C 0.26057 0.35958 0.47729 0.0
C2229 C 0.29486 0.32619 0.47713 0.0
C2230 C 0.25347 0.38231 0.469 0.0
C2231 C 0.2703 0.39436 0.44938 0.0
C2232 C 0.28475 0.34862 0.46596 0.0
C2233 C 0.29356 0.38225 0.4376 0.0
C2234 C 0.31746 0.31351 0.46484 0.0
C2235 C 0.2945 0.30103 0.51422 0.0
N2236 N 0.30027 0.36019 0.44627 0.0
N2237 N 0.28384 0.31915 0.50117 0.0
H2238 H 0.86173 0.25946 0.54885 0.0
H2239 H 0.75962 0.1476 0.54483 0.0
H2240 H 0.80498 0.25315 0.49205 0.0
H2241 H 0.81241 0.15978 0.60419 0.0
H2242 H 0.77349 0.187 0.52619 0.0
H2243 H 0.84051 0.2245 0.57123 0.0
C2244 C 0.84448 0.25086 0.54131 0.0
C2245 C 0.83518 0.25907 0.51851 0.0
C2246 C 0.78179 0.18108 0.54344 0.0
C2247 C 0.81108 0.21859 0.54372 0.0
C2248 C 0.77407 0.15854 0.55395 0.0
C2249 C 0.78482 0.15038 0.57614 0.0
C2250 C 0.80054 0.19541 0.55512 0.0
C2251 C 0.80324 0.16541 0.58732 0.0
C2252 C 0.83239 0.23084 0.55406 0.0
C2253 C 0.81266 0.24739 0.50966 0.0
N2254 N 0.81056 0.18707 0.57664 0.0
N2255 N 0.8016 0.22744 0.52209 0.0
loop_
_geom_bond_atom_site_label_1
_geom_bond_atom_site_label_2
_geom_bond_distance
_geom_bond_site_symmetry_2
_ccdc_geom_bond_type
Dy0 O3 2.307 . S
Dy0 O5 2.395 . S
Dy0 O6 2.379 . S
Dy0 O8 2.339 . S
Dy0 O10 2.298 . S
Dy0 O14 2.275 . S
Dy0 C22 2.738 . S
Dy1 O4 2.298 . S
Dy1 O7 2.275 . S
Dy1 O9 2.307 . S
Dy1 O11 2.403 . S
Dy1 O12 2.379 . S
Dy1 O15 2.339 . S
Dy1 C31 2.767 . S
C2 O14 1.254 . S
C2 O15 1.257 . S
O3 Dy0 2.307 . S
O3 C13 1.266 . S
O4 Dy1 2.298 . S
O4 C13 1.236 . S
O5 Dy0 2.395 . S
O5 C22 1.255 . S
O6 Dy0 2.379 . S
O6 C22 1.249 . S
O7 Dy1 2.275 . S
O7 C23 1.254 . S
O8 Dy0 2.339 . S
O8 C23 1.257 . S
O9 Dy1 2.307 . S
O9 C24 1.266 . S
O10 Dy0 2.298 . S
O10 C24 1.236 . S
O11 Dy1 2.403 . S
O11 C31 1.254 . S
O12 Dy1 2.379 . S
O12 C31 1.279 . S
C13 O3 1.266 . S
C13 O4 1.236 . S
O14 Dy0 2.275 . S
O14 C2 1.254 . S
O15 Dy1 2.339 . S
O15 C2 1.257 . S
C16 C19 1.344 . S
C16 C20 1.328 . S
C16 C22 1.516 . S
C17 C18 1.304 . S
C17 C21 1.323 . S
C18 C17 1.304 . S
C18 C19 1.371 . S
C18 H32 0.930 . S
C19 C16 1.344 . S
C19 C18 1.371 . S
C19 H33 0.931 . S
C20 C16 1.328 . S
C20 C21 1.433 . S
C20 H34 0.931 . S
C21 C17 1.323 . S
C21 C20 1.433 . S
C21 H35 0.933 . S
C22 Dy0 2.738 . S
C22 O5 1.255 . S
C22 O6 1.249 . S
C22 C16 1.516 . S
C23 O7 1.254 . S
C23 O8 1.257 . S
C24 O9 1.266 . S
C24 O10 1.236 . S
C25 C28 1.344 . S
C25 C29 1.328 . S
C25 C31 1.487 1_655 S
C26 C27 1.304 . S
C26 C30 1.323 . S
C27 C26 1.304 . S
C27 C28 1.371 . S
C27 H36 0.930 . S
C28 C25 1.344 . S
C28 C27 1.371 . S
C28 H37 0.931 . S
C29 C25 1.328 . S
C29 C30 1.433 . S
C29 H38 0.931 . S
C30 C26 1.323 . S
C30 C29 1.433 . S
C30 H39 0.933 . S
C31 Dy1 2.767 . S
C31 O11 1.254 . S
C31 O12 1.279 . S
C31 C25 1.487 1_455 S
H32 C18 0.930 . S
H33 C19 0.931 . S
H34 C20 0.931 . S
H35 C21 0.933 . S
H36 C27 0.930 . S
H37 C28 0.931 . S
H38 C29 0.931 . S
H39 C30 0.933 . S
Dy40 O43 2.307 . S
Dy40 O45 2.395 . S
Dy40 O46 2.379 . S
Dy40 O48 2.339 . S
Dy40 O50 2.298 . S
Dy40 O54 2.275 . S
Dy40 C62 2.738 . S
Dy41 O44 2.298 . S
Dy41 O47 2.275 . S
Dy41 O49 2.307 . S
Dy41 O51 2.395 . S
Dy41 O52 2.379 . S
Dy41 O55 2.339 . S
Dy41 C71 2.738 . S
C42 O54 1.254 . S
C42 O55 1.257 . S
O43 Dy40 2.307 . S
O43 C53 1.266 . S
O44 Dy41 2.298 . S
O44 C53 1.236 . S
O45 Dy40 2.395 . S
O45 C62 1.255 . S
O46 Dy40 2.379 . S
O46 C62 1.249 . S
O47 Dy41 2.275 . S
O47 C63 1.254 . S
O48 Dy40 2.339 . S
O48 C63 1.257 . S
O49 Dy41 2.307 . S
O49 C64 1.266 . S
O50 Dy40 2.298 . S
O50 C64 1.236 . S
O51 Dy41 2.395 . S
O51 C71 1.255 . S
O52 Dy41 2.379 . S
O52 C71 1.249 . S
C53 O43 1.266 . S
C53 O44 1.236 . S
O54 Dy40 2.275 . S
O54 C42 1.254 . S
O55 Dy41 2.339 . S
O55 C42 1.257 . S
C56 C59 1.344 . S
C56 C60 1.328 . S
C56 C62 1.516 . S
C57 C58 1.304 . S
C57 C61 1.323 . S
C58 C57 1.304 . S
C58 C59 1.371 . S
C58 H72 0.930 . S
C59 C56 1.344 . S
C59 C58 1.371 . S
C59 H73 0.931 . S
C60 C56 1.328 . S
C60 C61 1.433 . S
C60 H74 0.931 . S
C61 C57 1.323 . S
C61 C60 1.433 . S
C61 H75 0.933 . S
C62 Dy40 2.738 . S
C62 O45 1.255 . S
C62 O46 1.249 . S
C62 C56 1.516 . S
C63 O47 1.254 . S
C63 O48 1.257 . S
C64 O49 1.266 . S
C64 O50 1.236 . S
C65 C68 1.344 . S
C65 C69 1.328 . S
C65 C71 1.516 . S
C66 C67 1.304 . S
C66 C70 1.323 . S
C67 C66 1.304 . S
C67 C68 1.371 . S
C67 H76 0.930 . S
C68 C65 1.344 . S
C68 C67 1.371 . S
C68 H77 0.931 . S
C69 C65 1.328 . S
C69 C70 1.433 . S
C69 H78 0.931 . S
C70 C66 1.323 . S
C70 C69 1.433 . S
C70 H79 0.933 . S
C71 Dy41 2.738 . S
C71 O51 1.255 . S
C71 O52 1.249 . S
C71 C65 1.516 . S
H72 C58 0.930 . S
H73 C59 0.931 . S
H74 C60 0.931 . S
H75 C61 0.933 . S
H76 C67 0.930 . S
H77 C68 0.931 . S
H78 C69 0.931 . S
H79 C70 0.933 . S
Dy80 O83 2.307 . S
Dy80 O85 2.395 . S
Dy80 O86 2.379 . S
Dy80 O88 2.339 . S
Dy80 O90 2.298 . S
Dy80 O94 2.275 . S
Dy80 C102 2.738 . S
Dy81 O84 2.298 . S
Dy81 O87 2.275 . S
Dy81 O89 2.307 . S
Dy81 O91 2.395 . S
Dy81 O92 2.379 . S
Dy81 O95 2.339 . S
Dy81 C111 2.738 . S
C82 O94 1.254 . S
C82 O95 1.257 . S
O83 Dy80 2.307 . S
O83 C93 1.266 . S
O84 Dy81 2.298 . S
O84 C93 1.236 . S
O85 Dy80 2.395 . S
O85 C102 1.255 . S
O86 Dy80 2.379 . S
O86 C102 1.249 . S
O87 Dy81 2.275 . S
O87 C103 1.254 . S
O88 Dy80 2.339 . S
O88 C103 1.257 . S
O89 Dy81 2.307 . S
O89 C104 1.266 . S
O90 Dy80 2.298 . S
O90 C104 1.236 . S
O91 Dy81 2.395 . S
O91 C111 1.255 . S
O92 Dy81 2.379 . S
O92 C111 1.249 . S
C93 O83 1.266 . S
C93 O84 1.236 . S
O94 Dy80 2.275 . S
O94 C82 1.254 . S
O95 Dy81 2.339 . S
O95 C82 1.257 . S
C96 C99 1.344 . S
C96 C100 1.328 . S
C96 C102 1.516 . S
C97 C98 1.304 . S
C97 C101 1.323 . S
C98 C97 1.304 . S
C98 C99 1.371 . S
C98 H112 0.930 . S
C99 C96 1.344 . S
C99 C98 1.371 . S
C99 H113 0.931 . S
C100 C96 1.328 . S
C100 C101 1.433 . S
C100 H114 0.931 . S
C101 C97 1.323 . S
C101 C100 1.433 . S
C101 H115 0.933 . S
C102 Dy80 2.738 . S
C102 O85 1.255 . S
C102 O86 1.249 . S
C102 C96 1.516 . S
C103 O87 1.254 . S
C103 O88 1.257 . S
C104 O89 1.266 . S
C104 O90 1.236 . S
C105 C108 1.344 . S
C105 C109 1.328 . S
C105 C111 1.516 . S
C106 C107 1.304 . S
C106 C110 1.323 . S
C107 C106 1.304 . S
C107 C108 1.371 . S
C107 H116 0.930 . S
C108 C105 1.344 . S
C108 C107 1.371 . S
C108 H117 0.931 . S
C109 C105 1.328 . S
C109 C110 1.433 . S
C109 H118 0.931 . S
C110 C106 1.323 . S
C110 C109 1.433 . S
C110 H119 0.933 . S
C111 Dy81 2.738 . S
C111 O91 1.255 . S
C111 O92 1.249 . S
C111 C105 1.516 . S
H112 C98 0.930 . S
H113 C99 0.931 . S
H114 C100 0.931 . S
H115 C101 0.933 . S
H116 C107 0.930 . S
H117 C108 0.931 . S
H118 C109 0.931 . S
H119 C110 0.933 . S
Dy120 O123 2.307 . S
Dy120 O125 2.395 . S
Dy120 O126 2.379 . S
Dy120 O128 2.339 . S
Dy120 O130 2.298 . S
Dy120 O134 2.275 . S
Dy120 C142 2.738 . S
Dy121 O124 2.298 . S
Dy121 O127 2.275 . S
Dy121 O129 2.307 . S
Dy121 O131 2.420 . S
Dy121 O132 2.379 . S
Dy121 O135 2.339 . S
Dy121 C151 2.738 . S
C122 O134 1.254 . S
C122 O135 1.257 . S
O123 Dy120 2.307 . S
O123 C133 1.266 . S
O124 Dy121 2.298 . S
O124 C133 1.236 . S
O125 Dy120 2.395 . S
O125 C142 1.255 . S
O126 Dy120 2.379 . S
O126 C142 1.249 . S
O127 Dy121 2.275 . S
O127 C143 1.254 . S
O128 Dy120 2.339 . S
O128 C143 1.257 . S
O129 Dy121 2.307 . S
O129 C144 1.266 . S
O130 Dy120 2.298 . S
O130 C144 1.236 . S
O131 Dy121 2.420 . S
O131 C151 1.259 . S
O132 Dy121 2.379 . S
O132 C151 1.249 . S
C133 O123 1.266 . S
C133 O124 1.236 . S
O134 Dy120 2.275 . S
O134 C122 1.254 . S
O135 Dy121 2.339 . S
O135 C122 1.257 . S
C136 C139 1.344 . S
C136 C140 1.328 . S
C136 C142 1.516 . S
C137 C138 1.304 . S
C137 C141 1.323 . S
C138 C137 1.304 . S
C138 C139 1.371 . S
C138 H152 0.930 . S
C139 C136 1.344 . S
C139 C138 1.371 . S
C139 H153 0.931 . S
C140 C136 1.328 . S
C140 C141 1.433 . S
C140 H154 0.931 . S
C141 C137 1.323 . S
C141 C140 1.433 . S
C141 H155 0.933 . S
C142 Dy120 2.738 . S
C142 O125 1.255 . S
C142 O126 1.249 . S
C142 C136 1.516 . S
C143 O127 1.254 . S
C143 O128 1.257 . S
C144 O129 1.266 . S
C144 O130 1.236 . S
C145 C148 1.344 . S
C145 C149 1.328 . S
C145 C151 1.516 1_455 S
C146 C147 1.304 . S
C146 C150 1.323 . S
C147 C146 1.304 . S
C147 C148 1.371 . S
C147 H156 0.930 . S
C148 C145 1.344 . S
C148 C147 1.371 . S
C148 H157 0.931 . S
C149 C145 1.328 . S
C149 C150 1.433 . S
C149 H158 0.931 . S
C150 C146 1.323 . S
C150 C149 1.433 . S
C150 H159 0.933 . S
C151 Dy121 2.738 . S
C151 O131 1.259 . S
C151 O132 1.249 . S
C151 C145 1.516 1_655 S
H152 C138 0.930 . S
H153 C139 0.931 . S
H154 C140 0.931 . S
H155 C141 0.933 . S
H156 C147 0.930 . S
H157 C148 0.931 . S
H158 C149 0.931 . S
H159 C150 0.933 . S
Dy160 O163 2.307 1_545 S
Dy160 O165 2.395 . S
Dy160 O166 2.379 . S
Dy160 O168 2.339 1_545 S
Dy160 O170 2.298 . S
Dy160 O174 2.275 . S
Dy160 C182 2.738 . S
Dy161 O164 2.298 . S
Dy161 O167 2.275 . S
Dy161 O169 2.307 1_565 S
Dy161 O171 2.395 . S
Dy161 O172 2.379 . S
Dy161 O175 2.339 1_565 S
Dy161 C191 2.738 . S
C162 O174 1.254 . S
C162 O175 1.257 . S
O163 Dy160 2.307 1_565 S
O163 C173 1.266 . S
O164 Dy161 2.298 . S
O164 C173 1.236 . S
O165 Dy160 2.395 . S
O165 C182 1.255 . S
O166 Dy160 2.379 . S
O166 C182 1.249 . S
O167 Dy161 2.275 . S
O167 C183 1.254 . S
O168 Dy160 2.339 1_565 S
O168 C183 1.257 . S
O169 Dy161 2.307 1_545 S
O169 C184 1.266 . S
O170 Dy160 2.298 . S
O170 C184 1.236 . S
O171 Dy161 2.395 . S
O171 C191 1.255 . S
O172 Dy161 2.379 . S
O172 C191 1.249 . S
C173 O163 1.266 . S
C173 O164 1.236 . S
O174 Dy160 2.275 . S
O174 C162 1.254 . S
O175 Dy161 2.339 1_545 S
O175 C162 1.257 . S
C176 C179 1.344 . S
C176 C180 1.328 . S
C176 C182 1.516 . S
C177 C178 1.304 . S
C177 C181 1.323 . S
C178 C177 1.304 . S
C178 C179 1.371 . S
C178 H192 0.930 . S
C179 C176 1.344 . S
C179 C178 1.371 . S
C179 H193 0.931 . S
C180 C176 1.328 . S
C180 C181 1.433 . S
C180 H194 0.931 . S
C181 C177 1.323 . S
C181 C180 1.433 . S
C181 H195 0.933 . S
C182 Dy160 2.738 . S
C182 O165 1.255 . S
C182 O166 1.249 . S
C182 C176 1.516 . S
C183 O167 1.254 . S
C183 O168 1.257 . S
C184 O169 1.266 . S
C184 O170 1.236 . S
C185 C188 1.344 . S
C185 C189 1.328 . S
C185 C191 1.516 . S
C186 C187 1.304 . S
C186 C190 1.323 . S
C187 C186 1.304 . S
C187 C188 1.371 . S
C187 H196 0.930 . S
C188 C185 1.344 . S
C188 C187 1.371 . S
C188 H197 0.931 . S
C189 C185 1.328 . S
C189 C190 1.433 . S
C189 H198 0.931 . S
C190 C186 1.323 . S
C190 C189 1.433 . S
C190 H199 0.933 . S
C191 Dy161 2.738 . S
C191 O171 1.255 . S
C191 O172 1.249 . S
C191 C185 1.516 . S
H192 C178 0.930 . S
H193 C179 0.931 . S
H194 C180 0.931 . S
H195 C181 0.933 . S
H196 C187 0.930 . S
H197 C188 0.931 . S
H198 C189 0.931 . S
H199 C190 0.933 . S
Dy200 O203 2.307 1_565 S
Dy200 O205 2.395 . S
Dy200 O206 2.379 . S
Dy200 O208 2.339 1_565 S
Dy200 O210 2.298 . S
Dy200 O214 2.275 . S
Dy200 C222 2.738 . S
Dy201 O204 2.298 . S
Dy201 O207 2.275 . S
Dy201 O209 2.307 1_545 S
Dy201 O211 2.395 . S
Dy201 O212 2.379 . S
Dy201 O215 2.339 1_545 S
Dy201 C231 2.738 . S
C202 O214 1.254 . S
C202 O215 1.257 . S
O203 Dy200 2.307 1_545 S
O203 C213 1.266 . S
O204 Dy201 2.298 . S
O204 C213 1.236 . S
O205 Dy200 2.395 . S
O205 C222 1.255 . S
O206 Dy200 2.379 . S
O206 C222 1.249 . S
O207 Dy201 2.275 . S
O207 C223 1.254 . S
O208 Dy200 2.339 1_545 S
O208 C223 1.257 . S
O209 Dy201 2.307 1_565 S
O209 C224 1.266 . S
O210 Dy200 2.298 . S
O210 C224 1.236 . S
O211 Dy201 2.395 . S
O211 C231 1.255 . S
O212 Dy201 2.379 . S
O212 C231 1.249 . S
C213 O203 1.266 . S
C213 O204 1.236 . S
O214 Dy200 2.275 . S
O214 C202 1.254 . S
O215 Dy201 2.339 1_565 S
O215 C202 1.257 . S
C216 C219 1.344 . S
C216 C220 1.328 . S
C216 C222 1.516 . S
C217 C218 1.304 . S
C217 C221 1.323 . S
C218 C217 1.304 . S
C218 C219 1.371 . S
C218 H232 0.930 . S
C219 C216 1.344 . S
C219 C218 1.371 . S
C219 H233 0.931 . S
C220 C216 1.328 . S
C220 C221 1.433 . S
C220 H234 0.931 . S
C221 C217 1.323 . S
C221 C220 1.433 . S
C221 H235 0.933 . S
C222 Dy200 2.738 . S
C222 O205 1.255 . S
C222 O206 1.249 . S
C222 C216 1.516 . S
C223 O207 1.254 . S
C223 O208 1.257 . S
C224 O209 1.266 . S
C224 O210 1.236 . S
C225 C228 1.344 . S
C225 C229 1.328 . S
C225 C231 1.516 . S
C226 C227 1.304 . S
C226 C230 1.323 . S
C227 C226 1.304 . S
C227 C228 1.371 . S
C227 H236 0.930 . S
C228 C225 1.344 . S
C228 C227 1.371 . S
C228 H237 0.931 . S
C229 C225 1.328 . S
C229 C230 1.433 . S
C229 H238 0.931 . S
C230 C226 1.323 . S
C230 C229 1.433 . S
C230 H239 0.933 . S
C231 Dy201 2.738 . S
C231 O211 1.255 . S
C231 O212 1.249 . S
C231 C225 1.516 . S
H232 C218 0.930 . S
H233 C219 0.931 . S
H234 C220 0.931 . S
H235 C221 0.933 . S
H236 C227 0.930 . S
H237 C228 0.931 . S
H238 C229 0.931 . S
H239 C230 0.933 . S
Dy240 O243 2.307 . S
Dy240 O245 2.395 . S
Dy240 O246 2.379 . S
Dy240 O248 2.339 . S
Dy240 O250 2.298 . S
Dy240 O254 2.275 . S
Dy240 C262 2.738 . S
Dy241 O244 2.298 . S
Dy241 O247 2.275 . S
Dy241 O249 2.307 . S
Dy241 O251 2.395 . S
Dy241 O252 2.379 . S
Dy241 O255 2.339 . S
Dy241 C271 2.738 . S
C242 O254 1.254 . S
C242 O255 1.257 . S
O243 Dy240 2.307 . S
O243 C253 1.266 . S
O244 Dy241 2.298 . S
O244 C253 1.236 . S
O245 Dy240 2.395 . S
O245 C262 1.255 . S
O246 Dy240 2.379 . S
O246 C262 1.249 . S
O247 Dy241 2.275 . S
O247 C263 1.254 . S
O248 Dy240 2.339 . S
O248 C263 1.257 . S
O249 Dy241 2.307 . S
O249 C264 1.266 . S
O250 Dy240 2.298 . S
O250 C264 1.236 . S
O251 Dy241 2.395 . S
O251 C271 1.255 . S
O252 Dy241 2.379 . S
O252 C271 1.249 . S
C253 O243 1.266 . S
C253 O244 1.236 . S
O254 Dy240 2.275 . S
O254 C242 1.254 . S
O255 Dy241 2.339 . S
O255 C242 1.257 . S
C256 C259 1.344 . S
C256 C260 1.328 . S
C256 C262 1.516 . S
C257 C258 1.304 . S
C257 C261 1.323 . S
C258 C257 1.304 . S
C258 C259 1.371 . S
C258 H272 0.930 . S
C259 C256 1.344 . S
C259 C258 1.371 . S
C259 H273 0.931 . S
C260 C256 1.328 . S
C260 C261 1.433 . S
C260 H274 0.931 . S
C261 C257 1.323 . S
C261 C260 1.433 . S
C261 H275 0.933 . S
C262 Dy240 2.738 . S
C262 O245 1.255 . S
C262 O246 1.249 . S
C262 C256 1.516 . S
C263 O247 1.254 . S
C263 O248 1.257 . S
C264 O249 1.266 . S
C264 O250 1.236 . S
C265 C268 1.344 . S
C265 C269 1.328 . S
C265 C271 1.516 . S
C266 C267 1.304 . S
C266 C270 1.323 . S
C267 C266 1.304 . S
C267 C268 1.371 . S
C267 H276 0.930 . S
C268 C265 1.344 . S
C268 C267 1.371 . S
C268 H277 0.931 . S
C269 C265 1.328 . S
C269 C270 1.433 . S
C269 H278 0.931 . S
C270 C266 1.323 . S
C270 C269 1.433 . S
C270 H279 0.933 . S
C271 Dy241 2.738 . S
C271 O251 1.255 . S
C271 O252 1.249 . S
C271 C265 1.516 . S
H272 C258 0.930 . S
H273 C259 0.931 . S
H274 C260 0.931 . S
H275 C261 0.933 . S
H276 C267 0.930 . S
H277 C268 0.931 . S
H278 C269 0.931 . S
H279 C270 0.933 . S
Dy280 O283 2.307 . S
Dy280 O285 2.395 . S
Dy280 O286 2.379 . S
Dy280 O288 2.339 . S
Dy280 O290 2.298 . S
Dy280 O294 2.275 . S
Dy280 C302 2.738 . S
Dy281 O284 2.298 . S
Dy281 O287 2.275 . S
Dy281 O289 2.307 . S
Dy281 O291 2.395 . S
Dy281 O292 2.379 . S
Dy281 O295 2.339 . S
Dy281 C311 2.738 . S
C282 O294 1.254 . S
C282 O295 1.257 . S
O283 Dy280 2.307 . S
O283 C293 1.266 . S
O284 Dy281 2.298 . S
O284 C293 1.236 . S
O285 Dy280 2.395 . S
O285 C302 1.255 . S
O286 Dy280 2.379 . S
O286 C302 1.249 . S
O287 Dy281 2.275 . S
O287 C303 1.254 . S
O288 Dy280 2.339 . S
O288 C303 1.257 . S
O289 Dy281 2.307 . S
O289 C304 1.266 . S
O290 Dy280 2.298 . S
O290 C304 1.236 . S
O291 Dy281 2.395 . S
O291 C311 1.255 . S
O292 Dy281 2.379 . S
O292 C311 1.249 . S
C293 O283 1.266 . S
C293 O284 1.236 . S
O294 Dy280 2.275 . S
O294 C282 1.254 . S
O295 Dy281 2.339 . S
O295 C282 1.257 . S
C296 C299 1.344 . S
C296 C300 1.328 . S
C296 C302 1.516 . S
C297 C298 1.304 . S
C297 C301 1.323 . S
C298 C297 1.304 . S
C298 C299 1.371 . S
C298 H312 0.930 . S
C299 C296 1.344 . S
C299 C298 1.371 . S
C299 H313 0.931 . S
C300 C296 1.328 . S
C300 C301 1.433 . S
C300 H314 0.931 . S
C301 C297 1.323 . S
C301 C300 1.433 . S
C301 H315 0.933 . S
C302 Dy280 2.738 . S
C302 O285 1.255 . S
C302 O286 1.249 . S
C302 C296 1.516 . S
C303 O287 1.254 . S
C303 O288 1.257 . S
C304 O289 1.266 . S
C304 O290 1.236 . S
C305 C308 1.344 . S
C305 C309 1.328 . S
C305 C311 1.516 . S
C306 C307 1.304 . S
C306 C310 1.323 . S
C307 C306 1.304 . S
C307 C308 1.371 . S
C307 H316 0.930 . S
C308 C305 1.344 . S
C308 C307 1.371 . S
C308 H317 0.931 . S
C309 C305 1.328 . S
C309 C310 1.433 . S
C309 H318 0.931 . S
C310 C306 1.323 . S
C310 C309 1.433 . S
C310 H319 0.933 . S
C311 Dy281 2.738 . S
C311 O291 1.255 . S
C311 O292 1.249 . S
C311 C305 1.516 . S
H312 C298 0.930 . S
H313 C299 0.931 . S
H314 C300 0.931 . S
H315 C301 0.933 . S
H316 C307 0.930 . S
H317 C308 0.931 . S
H318 C309 0.931 . S
H319 C310 0.933 . S
Dy320 O323 2.307 . S
Dy320 O325 2.395 1_554 S
Dy320 O326 2.379 1_554 S
Dy320 O328 2.339 . S
Dy320 O330 2.298 1_554 S
Dy320 O334 2.275 1_554 S
Dy320 C342 2.738 1_554 S
Dy321 O324 2.298 . S
Dy321 O327 2.275 . S
Dy321 O329 2.307 1_554 S
Dy321 O331 2.395 . S
Dy321 O332 2.379 . S
Dy321 O335 2.343 1_554 S
Dy321 C351 2.738 . S
C322 O334 1.254 . S
C322 O335 1.254 . S
O323 Dy320 2.307 . S
O323 C333 1.266 . S
O324 Dy321 2.298 . S
O324 C333 1.236 . S
O325 Dy320 2.395 1_556 S
O325 C342 1.255 . S
O326 Dy320 2.379 1_556 S
O326 C342 1.249 . S
O327 Dy321 2.275 . S
O327 C343 1.254 . S
O328 Dy320 2.339 . S
O328 C343 1.257 . S
O329 Dy321 2.307 1_556 S
O329 C344 1.266 . S
O330 Dy320 2.298 1_556 S
O330 C344 1.236 . S
O331 Dy321 2.395 . S
O331 C351 1.255 . S
O332 Dy321 2.379 . S
O332 C351 1.249 . S
C333 O323 1.266 . S
C333 O324 1.236 . S
O334 Dy320 2.275 1_556 S
O334 C322 1.254 . S
O335 Dy321 2.343 1_556 S
O335 C322 1.254 . S
C336 C339 1.344 . S
C336 C340 1.328 . S
C336 C342 1.516 . S
C337 C338 1.304 . S
C337 C341 1.323 . S
C338 C337 1.304 . S
C338 C339 1.371 . S
C338 H352 0.930 . S
C339 C336 1.344 . S
C339 C338 1.371 . S
C339 H353 0.931 . S
C340 C336 1.328 . S
C340 C341 1.433 . S
C340 H354 0.931 . S
C341 C337 1.323 . S
C341 C340 1.433 . S
C341 H355 0.933 . S
C342 Dy320 2.738 1_556 S
C342 O325 1.255 . S
C342 O326 1.249 . S
C342 C336 1.516 . S
C343 O327 1.254 . S
C343 O328 1.257 . S
C344 O329 1.266 . S
C344 O330 1.236 . S
C345 C348 1.344 . S
C345 C349 1.328 . S
C345 C351 1.516 . S
C346 C347 1.304 . S
C346 C350 1.323 . S
C347 C346 1.304 . S
C347 C348 1.371 . S
C347 H356 0.930 . S
C348 C345 1.344 . S
C348 C347 1.371 . S
C348 H357 0.931 . S
C349 C345 1.328 . S
C349 C350 1.433 . S
C349 H358 0.931 . S
C350 C346 1.323 . S
C350 C349 1.433 . S
C350 H359 0.933 . S
C351 Dy321 2.738 . S
C351 O331 1.255 . S
C351 O332 1.249 . S
C351 C345 1.516 . S
H352 C338 0.930 . S
H353 C339 0.931 . S
H354 C340 0.931 . S
H355 C341 0.933 . S
H356 C347 0.930 . S
H357 C348 0.931 . S
H358 C349 0.931 . S
H359 C350 0.933 . S
Dy360 O363 2.307 . S
Dy360 O365 2.395 . S
Dy360 O366 2.379 . S
Dy360 O368 2.339 . S
Dy360 O370 2.298 . S
Dy360 O374 2.275 . S
Dy360 C382 2.738 . S
Dy361 O364 2.298 . S
Dy361 O367 2.275 . S
Dy361 O369 2.307 . S
Dy361 O371 2.395 . S
Dy361 O372 2.379 . S
Dy361 O375 2.339 . S
Dy361 C391 2.738 . S
C362 O374 1.254 . S
C362 O375 1.257 . S
O363 Dy360 2.307 . S
O363 C373 1.266 . S
O364 Dy361 2.298 . S
O364 C373 1.236 . S
O365 Dy360 2.395 . S
O365 C382 1.255 . S
O366 Dy360 2.379 . S
O366 C382 1.249 . S
O367 Dy361 2.275 . S
O367 C383 1.254 . S
O368 Dy360 2.339 . S
O368 C383 1.257 . S
O369 Dy361 2.307 . S
O369 C384 1.266 . S
O370 Dy360 2.298 . S
O370 C384 1.236 . S
O371 Dy361 2.395 . S
O371 C391 1.255 . S
O372 Dy361 2.379 . S
O372 C391 1.249 . S
C373 O363 1.266 . S
C373 O364 1.236 . S
O374 Dy360 2.275 . S
O374 C362 1.254 . S
O375 Dy361 2.339 . S
O375 C362 1.257 . S
C376 C379 1.344 . S
C376 C380 1.328 . S
C376 C382 1.516 . S
C377 C378 1.304 . S
C377 C381 1.323 . S
C378 C377 1.304 . S
C378 C379 1.371 . S
C378 H392 0.930 . S
C379 C376 1.344 . S
C379 C378 1.371 . S
C379 H393 0.931 . S
C380 C376 1.328 . S
C380 C381 1.433 . S
C380 H394 0.931 . S
C381 C377 1.323 . S
C381 C380 1.433 . S
C381 H395 0.933 . S
C382 Dy360 2.738 . S
C382 O365 1.255 . S
C382 O366 1.249 . S
C382 C376 1.516 . S
C383 O367 1.254 . S
C383 O368 1.257 . S
C384 O369 1.266 . S
C384 O370 1.236 . S
C385 C388 1.344 . S
C385 C389 1.328 . S
C385 C391 1.516 1_554 S
C386 C387 1.304 . S
C386 C390 1.323 . S
C387 C386 1.304 . S
C387 C388 1.371 . S
C387 H396 0.930 . S
C388 C385 1.344 . S
C388 C387 1.371 . S
C388 H397 0.931 . S
C389 C385 1.328 . S
C389 C390 1.433 . S
C389 H398 0.931 1_554 S
C390 C386 1.323 . S
C390 C389 1.433 . S
C390 H399 0.933 . S
C391 Dy361 2.738 . S
C391 O371 1.255 . S
C391 O372 1.249 . S
C391 C385 1.516 1_556 S
H392 C378 0.930 . S
H393 C379 0.931 . S
H394 C380 0.931 . S
H395 C381 0.933 . S
H396 C387 0.930 . S
H397 C388 0.931 . S
H398 C389 0.931 1_556 S
H399 C390 0.933 . S
Dy400 O403 2.307 . S
Dy400 O405 2.395 . S
Dy400 O406 2.379 . S
Dy400 O408 2.339 . S
Dy400 O410 2.298 . S
Dy400 O414 2.275 . S
Dy400 C422 2.738 . S
Dy401 O404 2.298 . S
Dy401 O407 2.275 . S
Dy401 O409 2.307 . S
Dy401 O411 2.395 . S
Dy401 O412 2.379 . S
Dy401 O415 2.339 . S
Dy401 C431 2.738 . S
C402 O414 1.254 . S
C402 O415 1.257 . S
O403 Dy400 2.307 . S
O403 C413 1.266 . S
O404 Dy401 2.298 . S
O404 C413 1.236 . S
O405 Dy400 2.395 . S
O405 C422 1.255 . S
O406 Dy400 2.379 . S
O406 C422 1.249 . S
O407 Dy401 2.275 . S
O407 C423 1.254 . S
O408 Dy400 2.339 . S
O408 C423 1.257 . S
O409 Dy401 2.307 . S
O409 C424 1.266 . S
O410 Dy400 2.298 . S
O410 C424 1.236 . S
O411 Dy401 2.395 . S
O411 C431 1.255 . S
O412 Dy401 2.379 . S
O412 C431 1.249 . S
C413 O403 1.266 . S
C413 O404 1.236 . S
O414 Dy400 2.275 . S
O414 C402 1.254 . S
O415 Dy401 2.339 . S
O415 C402 1.257 . S
C416 C419 1.344 . S
C416 C420 1.328 . S
C416 C422 1.516 . S
C417 C418 1.304 . S
C417 C421 1.323 . S
C418 C417 1.304 . S
C418 C419 1.371 . S
C418 H432 0.930 . S
C419 C416 1.344 . S
C419 C418 1.371 . S
C419 H433 0.931 . S
C420 C416 1.328 . S
C420 C421 1.433 . S
C420 H434 0.931 . S
C421 C417 1.323 . S
C421 C420 1.433 . S
C421 H435 0.933 . S
C422 Dy400 2.738 . S
C422 O405 1.255 . S
C422 O406 1.249 . S
C422 C416 1.516 . S
C423 O407 1.254 . S
C423 O408 1.257 . S
C424 O409 1.266 . S
C424 O410 1.236 . S
C425 C428 1.344 . S
C425 C429 1.328 . S
C425 C431 1.516 . S
C426 C427 1.304 . S
C426 C430 1.323 . S
C427 C426 1.304 . S
C427 C428 1.371 . S
C427 H436 0.930 . S
C428 C425 1.344 . S
C428 C427 1.371 . S
C428 H437 0.931 . S
C429 C425 1.328 . S
C429 C430 1.433 . S
C429 H438 0.931 . S
C430 C426 1.323 . S
C430 C429 1.433 . S
C430 H439 0.933 . S
C431 Dy401 2.738 . S
C431 O411 1.255 . S
C431 O412 1.249 . S
C431 C425 1.516 . S
H432 C418 0.930 . S
H433 C419 0.931 . S
H434 C420 0.931 . S
H435 C421 0.933 . S
H436 C427 0.930 . S
H437 C428 0.931 . S
H438 C429 0.931 . S
H439 C430 0.933 . S
Dy440 O443 2.307 . S
Dy440 O445 2.395 . S
Dy440 O446 2.379 . S
Dy440 O448 2.339 . S
Dy440 O450 2.298 . S
Dy440 O454 2.275 . S
Dy440 C462 2.738 . S
Dy441 O444 2.298 . S
Dy441 O447 2.275 . S
Dy441 O449 2.307 . S
Dy441 O451 2.395 . S
Dy441 O452 2.379 . S
Dy441 O455 2.339 . S
Dy441 C471 2.738 . S
C442 O454 1.254 . S
C442 O455 1.257 . S
O443 Dy440 2.307 . S
O443 C453 1.266 . S
O444 Dy441 2.298 . S
O444 C453 1.236 . S
O445 Dy440 2.395 . S
O445 C462 1.255 . S
O446 Dy440 2.379 . S
O446 C462 1.249 . S
O447 Dy441 2.275 . S
O447 C463 1.254 . S
O448 Dy440 2.339 . S
O448 C463 1.257 . S
O449 Dy441 2.307 . S
O449 C464 1.266 . S
O450 Dy440 2.298 . S
O450 C464 1.236 . S
O451 Dy441 2.395 . S
O451 C471 1.255 . S
O452 Dy441 2.379 . S
O452 C471 1.249 . S
C453 O443 1.266 . S
C453 O444 1.236 . S
O454 Dy440 2.275 . S
O454 C442 1.254 . S
O455 Dy441 2.339 . S
O455 C442 1.257 . S
C456 C459 1.344 . S
C456 C460 1.328 . S
C456 C462 1.516 . S
C457 C458 1.304 . S
C457 C461 1.323 . S
C458 C457 1.304 . S
C458 C459 1.371 . S
C458 H472 0.930 . S
C459 C456 1.344 . S
C459 C458 1.371 . S
C459 H473 0.931 . S
C460 C456 1.328 . S
C460 C461 1.433 . S
C460 H474 0.931 . S
C461 C457 1.323 . S
C461 C460 1.433 . S
C461 H475 0.933 . S
C462 Dy440 2.738 . S
C462 O445 1.255 . S
C462 O446 1.249 . S
C462 C456 1.516 . S
C463 O447 1.254 . S
C463 O448 1.257 . S
C464 O449 1.266 . S
C464 O450 1.236 . S
C465 C468 1.344 . S
C465 C469 1.328 . S
C465 C471 1.516 . S
C466 C467 1.304 . S
C466 C470 1.323 . S
C467 C466 1.304 . S
C467 C468 1.371 . S
C467 H476 0.930 . S
C468 C465 1.344 . S
C468 C467 1.371 . S
C468 H477 0.931 . S
C469 C465 1.328 . S
C469 C470 1.433 . S
C469 H478 0.931 . S
C470 C466 1.323 . S
C470 C469 1.433 . S
C470 H479 0.933 . S
C471 Dy441 2.738 . S
C471 O451 1.255 . S
C471 O452 1.249 . S
C471 C465 1.516 . S
H472 C458 0.930 . S
H473 C459 0.931 . S
H474 C460 0.931 . S
H475 C461 0.933 . S
H476 C467 0.930 . S
H477 C468 0.931 . S
H478 C469 0.931 . S
H479 C470 0.933 . S
Dy480 O483 2.307 . S
Dy480 O485 2.403 . S
Dy480 O486 2.379 . S
Dy480 O488 2.339 . S
Dy480 O490 2.298 . S
Dy480 O494 2.275 . S
Dy480 C502 2.767 . S
Dy481 O484 2.298 . S
Dy481 O487 2.275 . S
Dy481 O489 2.307 . S
Dy481 O491 2.395 . S
Dy481 O492 2.379 . S
Dy481 O495 2.339 . S
Dy481 C511 2.738 . S
C482 O494 1.254 . S
C482 O495 1.257 . S
O483 Dy480 2.307 . S
O483 C493 1.266 . S
O484 Dy481 2.298 . S
O484 C493 1.236 . S
O485 Dy480 2.403 . S
O485 C502 1.254 . S
O486 Dy480 2.379 . S
O486 C502 1.279 . S
O487 Dy481 2.275 . S
O487 C503 1.254 . S
O488 Dy480 2.339 . S
O488 C503 1.257 . S
O489 Dy481 2.307 . S
O489 C504 1.266 . S
O490 Dy480 2.298 . S
O490 C504 1.236 . S
O491 Dy481 2.395 . S
O491 C511 1.255 . S
O492 Dy481 2.379 . S
O492 C511 1.249 . S
C493 O483 1.266 . S
C493 O484 1.236 . S
O494 Dy480 2.275 . S
O494 C482 1.254 . S
O495 Dy481 2.339 . S
O495 C482 1.257 . S
C496 C499 1.344 . S
C496 C500 1.328 . S
C496 C502 1.487 1_455 S
C497 C498 1.304 . S
C497 C501 1.323 . S
C498 C497 1.304 . S
C498 C499 1.371 . S
C498 H512 0.930 . S
C499 C496 1.344 . S
C499 C498 1.371 . S
C499 H513 0.931 . S
C500 C496 1.328 . S
C500 C501 1.433 . S
C500 H514 0.931 . S
C501 C497 1.323 . S
C501 C500 1.433 . S
C501 H515 0.933 . S
C502 Dy480 2.767 . S
C502 O485 1.254 . S
C502 O486 1.279 . S
C502 C496 1.487 1_655 S
C503 O487 1.254 . S
C503 O488 1.257 . S
C504 O489 1.266 . S
C504 O490 1.236 . S
C505 C508 1.344 . S
C505 C509 1.328 . S
C505 C511 1.516 . S
C506 C507 1.304 . S
C506 C510 1.323 . S
C507 C506 1.304 . S
C507 C508 1.371 . S
C507 H516 0.930 . S
C508 C505 1.344 . S
C508 C507 1.371 . S
C508 H517 0.931 . S
C509 C505 1.328 . S
C509 C510 1.433 . S
C509 H518 0.931 . S
C510 C506 1.323 . S
C510 C509 1.433 . S
C510 H519 0.933 . S
C511 Dy481 2.738 . S
C511 O491 1.255 . S
C511 O492 1.249 . S
C511 C505 1.516 . S
H512 C498 0.930 . S
H513 C499 0.931 . S
H514 C500 0.931 . S
H515 C501 0.933 . S
H516 C507 0.930 . S
H517 C508 0.931 . S
H518 C509 0.931 . S
H519 C510 0.933 . S
Dy520 O523 2.307 . S
Dy520 O525 2.395 . S
Dy520 O526 2.379 . S
Dy520 O528 2.339 . S
Dy520 O530 2.298 . S
Dy520 O534 2.275 . S
Dy520 C542 2.738 . S
Dy521 O524 2.298 . S
Dy521 O527 2.275 . S
Dy521 O529 2.307 . S
Dy521 O531 2.395 . S
Dy521 O532 2.379 . S
Dy521 O535 2.339 . S
Dy521 C551 2.738 . S
C522 O534 1.254 . S
C522 O535 1.257 . S
O523 Dy520 2.307 . S
O523 C533 1.266 . S
O524 Dy521 2.298 . S
O524 C533 1.236 . S
O525 Dy520 2.395 . S
O525 C542 1.255 . S
O526 Dy520 2.379 . S
O526 C542 1.249 . S
O527 Dy521 2.275 . S
O527 C543 1.254 . S
O528 Dy520 2.339 . S
O528 C543 1.257 . S
O529 Dy521 2.307 . S
O529 C544 1.266 . S
O530 Dy520 2.298 . S
O530 C544 1.236 . S
O531 Dy521 2.395 . S
O531 C551 1.255 . S
O532 Dy521 2.379 . S
O532 C551 1.249 . S
C533 O523 1.266 . S
C533 O524 1.236 . S
O534 Dy520 2.275 . S
O534 C522 1.254 . S
O535 Dy521 2.339 . S
O535 C522 1.257 . S
C536 C539 1.344 . S
C536 C540 1.328 . S
C536 C542 1.516 . S
C537 C538 1.304 . S
C537 C541 1.323 . S
C538 C537 1.304 . S
C538 C539 1.371 . S
C538 H552 0.930 . S
C539 C536 1.344 . S
C539 C538 1.371 . S
C539 H553 0.931 . S
C540 C536 1.328 . S
C540 C541 1.433 . S
C540 H554 0.931 . S
C541 C537 1.323 . S
C541 C540 1.433 . S
C541 H555 0.933 . S
C542 Dy520 2.738 . S
C542 O525 1.255 . S
C542 O526 1.249 . S
C542 C536 1.516 . S
C543 O527 1.254 . S
C543 O528 1.257 . S
C544 O529 1.266 . S
C544 O530 1.236 . S
C545 C548 1.344 . S
C545 C549 1.328 . S
C545 C551 1.516 . S
C546 C547 1.304 . S
C546 C550 1.323 . S
C547 C546 1.304 . S
C547 C548 1.371 . S
C547 H556 0.930 . S
C548 C545 1.344 . S
C548 C547 1.371 . S
C548 H557 0.931 . S
C549 C545 1.328 . S
C549 C550 1.433 . S
C549 H558 0.931 . S
C550 C546 1.323 . S
C550 C549 1.433 . S
C550 H559 0.933 . S
C551 Dy521 2.738 . S
C551 O531 1.255 . S
C551 O532 1.249 . S
C551 C545 1.516 . S
H552 C538 0.930 . S
H553 C539 0.931 . S
H554 C540 0.931 . S
H555 C541 0.933 . S
H556 C547 0.930 . S
H557 C548 0.931 . S
H558 C549 0.931 . S
H559 C550 0.933 . S
Dy560 O563 2.307 . S
Dy560 O565 2.395 . S
Dy560 O566 2.379 . S
Dy560 O568 2.339 . S
Dy560 O570 2.298 . S
Dy560 O574 2.275 . S
Dy560 C582 2.738 . S
Dy561 O564 2.298 . S
Dy561 O567 2.275 . S
Dy561 O569 2.307 . S
Dy561 O571 2.395 . S
Dy561 O572 2.379 . S
Dy561 O575 2.339 . S
Dy561 C591 2.738 . S
C562 O574 1.254 . S
C562 O575 1.257 . S
O563 Dy560 2.307 . S
O563 C573 1.266 . S
O564 Dy561 2.298 . S
O564 C573 1.236 . S
O565 Dy560 2.395 . S
O565 C582 1.255 . S
O566 Dy560 2.379 . S
O566 C582 1.249 . S
O567 Dy561 2.275 . S
O567 C583 1.254 . S
O568 Dy560 2.339 . S
O568 C583 1.257 . S
O569 Dy561 2.307 . S
O569 C584 1.266 . S
O570 Dy560 2.298 . S
O570 C584 1.236 . S
O571 Dy561 2.395 . S
O571 C591 1.255 . S
O572 Dy561 2.379 . S
O572 C591 1.249 . S
C573 O563 1.266 . S
C573 O564 1.236 . S
O574 Dy560 2.275 . S
O574 C562 1.254 . S
O575 Dy561 2.339 . S
O575 C562 1.257 . S
C576 C579 1.344 . S
C576 C580 1.328 . S
C576 C582 1.516 . S
C577 C578 1.304 . S
C577 C581 1.323 . S
C578 C577 1.304 . S
C578 C579 1.371 . S
C578 H592 0.930 . S
C579 C576 1.344 . S
C579 C578 1.371 . S
C579 H593 0.931 . S
C580 C576 1.328 . S
C580 C581 1.433 . S
C580 H594 0.931 . S
C581 C577 1.323 . S
C581 C580 1.433 . S
C581 H595 0.933 . S
C582 Dy560 2.738 . S
C582 O565 1.255 . S
C582 O566 1.249 . S
C582 C576 1.516 . S
C583 O567 1.254 . S
C583 O568 1.257 . S
C584 O569 1.266 . S
C584 O570 1.236 . S
C585 C588 1.344 . S
C585 C589 1.328 . S
C585 C591 1.516 . S
C586 C587 1.304 . S
C586 C590 1.323 . S
C587 C586 1.304 . S
C587 C588 1.371 . S
C587 H596 0.930 . S
C588 C585 1.344 . S
C588 C587 1.371 . S
C588 H597 0.931 . S
C589 C585 1.328 . S
C589 C590 1.433 . S
C589 H598 0.931 . S
C590 C586 1.323 . S
C590 C589 1.433 . S
C590 H599 0.933 . S
C591 Dy561 2.738 . S
C591 O571 1.255 . S
C591 O572 1.249 . S
C591 C585 1.516 . S
H592 C578 0.930 . S
H593 C579 0.931 . S
H594 C580 0.931 . S
H595 C581 0.933 . S
H596 C587 0.930 . S
H597 C588 0.931 . S
H598 C589 0.931 . S
H599 C590 0.933 . S
Dy600 O603 2.307 . S
Dy600 O605 2.420 . S
Dy600 O606 2.379 . S
Dy600 O608 2.339 . S
Dy600 O610 2.298 . S
Dy600 O614 2.275 . S
Dy600 C622 2.738 . S
Dy601 O604 2.298 . S
Dy601 O607 2.275 . S
Dy601 O609 2.307 . S
Dy601 O611 2.395 . S
Dy601 O612 2.379 . S
Dy601 O615 2.339 . S
Dy601 C631 2.738 . S
C602 O614 1.254 . S
C602 O615 1.257 . S
O603 Dy600 2.307 . S
O603 C613 1.266 . S
O604 Dy601 2.298 . S
O604 C613 1.236 . S
O605 Dy600 2.420 . S
O605 C622 1.259 . S
O606 Dy600 2.379 . S
O606 C622 1.249 . S
O607 Dy601 2.275 . S
O607 C623 1.254 . S
O608 Dy600 2.339 . S
O608 C623 1.257 . S
O609 Dy601 2.307 . S
O609 C624 1.266 . S
O610 Dy600 2.298 . S
O610 C624 1.236 . S
O611 Dy601 2.395 . S
O611 C631 1.255 . S
O612 Dy601 2.379 . S
O612 C631 1.249 . S
C613 O603 1.266 . S
C613 O604 1.236 . S
O614 Dy600 2.275 . S
O614 C602 1.254 . S
O615 Dy601 2.339 . S
O615 C602 1.257 . S
C616 C619 1.344 . S
C616 C620 1.328 . S
C616 C622 1.516 1_655 S
C617 C618 1.304 . S
C617 C621 1.323 . S
C618 C617 1.304 . S
C618 C619 1.371 . S
C618 H632 0.930 . S
C619 C616 1.344 . S
C619 C618 1.371 . S
C619 H633 0.931 . S
C620 C616 1.328 . S
C620 C621 1.433 . S
C620 H634 0.931 . S
C621 C617 1.323 . S
C621 C620 1.433 . S
C621 H635 0.933 . S
C622 Dy600 2.738 . S
C622 O605 1.259 . S
C622 O606 1.249 . S
C622 C616 1.516 1_455 S
C623 O607 1.254 . S
C623 O608 1.257 . S
C624 O609 1.266 . S
C624 O610 1.236 . S
C625 C628 1.344 . S
C625 C629 1.328 . S
C625 C631 1.516 . S
C626 C627 1.304 . S
C626 C630 1.323 . S
C627 C626 1.304 . S
C627 C628 1.371 . S
C627 H636 0.930 . S
C628 C625 1.344 . S
C628 C627 1.371 . S
C628 H637 0.931 . S
C629 C625 1.328 . S
C629 C630 1.433 . S
C629 H638 0.931 . S
C630 C626 1.323 . S
C630 C629 1.433 . S
C630 H639 0.933 . S
C631 Dy601 2.738 . S
C631 O611 1.255 . S
C631 O612 1.249 . S
C631 C625 1.516 . S
H632 C618 0.930 . S
H633 C619 0.931 . S
H634 C620 0.931 . S
H635 C621 0.933 . S
H636 C627 0.930 . S
H637 C628 0.931 . S
H638 C629 0.931 . S
H639 C630 0.933 . S
Dy640 O643 2.307 1_545 S
Dy640 O645 2.395 . S
Dy640 O646 2.379 . S
Dy640 O648 2.339 1_545 S
Dy640 O650 2.298 . S
Dy640 O654 2.275 . S
Dy640 C662 2.738 . S
Dy641 O644 2.298 . S
Dy641 O647 2.275 . S
Dy641 O649 2.307 1_565 S
Dy641 O651 2.395 . S
Dy641 O652 2.379 . S
Dy641 O655 2.339 1_565 S
Dy641 C671 2.738 . S
C642 O654 1.254 . S
C642 O655 1.257 . S
O643 Dy640 2.307 1_565 S
O643 C653 1.266 . S
O644 Dy641 2.298 . S
O644 C653 1.236 . S
O645 Dy640 2.395 . S
O645 C662 1.255 . S
O646 Dy640 2.379 . S
O646 C662 1.249 . S
O647 Dy641 2.275 . S
O647 C663 1.254 . S
O648 Dy640 2.339 1_565 S
O648 C663 1.257 . S
O649 Dy641 2.307 1_545 S
O649 C664 1.266 . S
O650 Dy640 2.298 . S
O650 C664 1.236 . S
O651 Dy641 2.395 . S
O651 C671 1.255 . S
O652 Dy641 2.379 . S
O652 C671 1.249 . S
C653 O643 1.266 . S
C653 O644 1.236 . S
O654 Dy640 2.275 . S
O654 C642 1.254 . S
O655 Dy641 2.339 1_545 S
O655 C642 1.257 . S
C656 C659 1.344 . S
C656 C660 1.328 . S
C656 C662 1.516 . S
C657 C658 1.304 . S
C657 C661 1.323 . S
C658 C657 1.304 . S
C658 C659 1.371 . S
C658 H672 0.930 . S
C659 C656 1.344 . S
C659 C658 1.371 . S
C659 H673 0.931 . S
C660 C656 1.328 . S
C660 C661 1.433 . S
C660 H674 0.931 . S
C661 C657 1.323 . S
C661 C660 1.433 . S
C661 H675 0.933 . S
C662 Dy640 2.738 . S
C662 O645 1.255 . S
C662 O646 1.249 . S
C662 C656 1.516 . S
C663 O647 1.254 . S
C663 O648 1.257 . S
C664 O649 1.266 . S
C664 O650 1.236 . S
C665 C668 1.344 . S
C665 C669 1.328 . S
C665 C671 1.516 . S
C666 C667 1.304 . S
C666 C670 1.323 . S
C667 C666 1.304 . S
C667 C668 1.371 . S
C667 H676 0.930 . S
C668 C665 1.344 . S
C668 C667 1.371 . S
C668 H677 0.931 . S
C669 C665 1.328 . S
C669 C670 1.433 . S
C669 H678 0.931 . S
C670 C666 1.323 . S
C670 C669 1.433 . S
C670 H679 0.933 . S
C671 Dy641 2.738 . S
C671 O651 1.255 . S
C671 O652 1.249 . S
C671 C665 1.516 . S
H672 C658 0.930 . S
H673 C659 0.931 . S
H674 C660 0.931 . S
H675 C661 0.933 . S
H676 C667 0.930 . S
H677 C668 0.931 . S
H678 C669 0.931 . S
H679 C670 0.933 . S
Dy680 O683 2.307 1_565 S
Dy680 O685 2.395 . S
Dy680 O686 2.379 . S
Dy680 O688 2.339 1_565 S
Dy680 O690 2.298 . S
Dy680 O694 2.275 . S
Dy680 C702 2.738 . S
Dy681 O684 2.298 . S
Dy681 O687 2.275 . S
Dy681 O689 2.307 1_545 S
Dy681 O691 2.395 . S
Dy681 O692 2.379 . S
Dy681 O695 2.339 1_545 S
Dy681 C711 2.738 . S
C682 O694 1.254 . S
C682 O695 1.257 . S
O683 Dy680 2.307 1_545 S
O683 C693 1.266 . S
O684 Dy681 2.298 . S
O684 C693 1.236 . S
O685 Dy680 2.395 . S
O685 C702 1.255 . S
O686 Dy680 2.379 . S
O686 C702 1.249 . S
O687 Dy681 2.275 . S
O687 C703 1.254 . S
O688 Dy680 2.339 1_545 S
O688 C703 1.257 . S
O689 Dy681 2.307 1_565 S
O689 C704 1.266 . S
O690 Dy680 2.298 . S
O690 C704 1.236 . S
O691 Dy681 2.395 . S
O691 C711 1.255 . S
O692 Dy681 2.379 . S
O692 C711 1.249 . S
C693 O683 1.266 . S
C693 O684 1.236 . S
O694 Dy680 2.275 . S
O694 C682 1.254 . S
O695 Dy681 2.339 1_565 S
O695 C682 1.257 . S
C696 C699 1.344 . S
C696 C700 1.328 . S
C696 C702 1.516 . S
C697 C698 1.304 . S
C697 C701 1.323 . S
C698 C697 1.304 . S
C698 C699 1.371 . S
C698 H712 0.930 . S
C699 C696 1.344 . S
C699 C698 1.371 . S
C699 H713 0.931 . S
C700 C696 1.328 . S
C700 C701 1.433 . S
C700 H714 0.931 . S
C701 C697 1.323 . S
C701 C700 1.433 . S
C701 H715 0.933 . S
C702 Dy680 2.738 . S
C702 O685 1.255 . S
C702 O686 1.249 . S
C702 C696 1.516 . S
C703 O687 1.254 . S
C703 O688 1.257 . S
C704 O689 1.266 . S
C704 O690 1.236 . S
C705 C708 1.344 . S
C705 C709 1.328 . S
C705 C711 1.516 . S
C706 C707 1.304 . S
C706 C710 1.323 . S
C707 C706 1.304 . S
C707 C708 1.371 . S
C707 H716 0.930 . S
C708 C705 1.344 . S
C708 C707 1.371 . S
C708 H717 0.931 . S
C709 C705 1.328 . S
C709 C710 1.433 . S
C709 H718 0.931 . S
C710 C706 1.323 . S
C710 C709 1.433 . S
C710 H719 0.933 . S
C711 Dy681 2.738 . S
C711 O691 1.255 . S
C711 O692 1.249 . S
C711 C705 1.516 . S
H712 C698 0.930 . S
H713 C699 0.931 . S
H714 C700 0.931 . S
H715 C701 0.933 . S
H716 C707 0.930 . S
H717 C708 0.931 . S
H718 C709 0.931 . S
H719 C710 0.933 . S
Dy720 O723 2.307 . S
Dy720 O725 2.395 . S
Dy720 O726 2.379 . S
Dy720 O728 2.339 . S
Dy720 O730 2.298 . S
Dy720 O734 2.275 . S
Dy720 C742 2.738 . S
Dy721 O724 2.298 . S
Dy721 O727 2.275 . S
Dy721 O729 2.307 . S
Dy721 O731 2.395 . S
Dy721 O732 2.379 . S
Dy721 O735 2.339 . S
Dy721 C751 2.738 . S
C722 O734 1.254 . S
C722 O735 1.257 . S
O723 Dy720 2.307 . S
O723 C733 1.266 . S
O724 Dy721 2.298 . S
O724 C733 1.236 . S
O725 Dy720 2.395 . S
O725 C742 1.255 . S
O726 Dy720 2.379 . S
O726 C742 1.249 . S
O727 Dy721 2.275 . S
O727 C743 1.254 . S
O728 Dy720 2.339 . S
O728 C743 1.257 . S
O729 Dy721 2.307 . S
O729 C744 1.266 . S
O730 Dy720 2.298 . S
O730 C744 1.236 . S
O731 Dy721 2.395 . S
O731 C751 1.255 . S
O732 Dy721 2.379 . S
O732 C751 1.249 . S
C733 O723 1.266 . S
C733 O724 1.236 . S
O734 Dy720 2.275 . S
O734 C722 1.254 . S
O735 Dy721 2.339 . S
O735 C722 1.257 . S
C736 C739 1.344 . S
C736 C740 1.328 . S
C736 C742 1.516 . S
C737 C738 1.304 . S
C737 C741 1.323 . S
C738 C737 1.304 . S
C738 C739 1.371 . S
C738 H752 0.930 . S
C739 C736 1.344 . S
C739 C738 1.371 . S
C739 H753 0.931 . S
C740 C736 1.328 . S
C740 C741 1.433 . S
C740 H754 0.931 . S
C741 C737 1.323 . S
C741 C740 1.433 . S
C741 H755 0.933 . S
C742 Dy720 2.738 . S
C742 O725 1.255 . S
C742 O726 1.249 . S
C742 C736 1.516 . S
C743 O727 1.254 . S
C743 O728 1.257 . S
C744 O729 1.266 . S
C744 O730 1.236 . S
C745 C748 1.344 . S
C745 C749 1.328 . S
C745 C751 1.516 . S
C746 C747 1.304 . S
C746 C750 1.323 . S
C747 C746 1.304 . S
C747 C748 1.371 . S
C747 H756 0.930 . S
C748 C745 1.344 . S
C748 C747 1.371 . S
C748 H757 0.931 . S
C749 C745 1.328 . S
C749 C750 1.433 . S
C749 H758 0.931 . S
C750 C746 1.323 . S
C750 C749 1.433 . S
C750 H759 0.933 . S
C751 Dy721 2.738 . S
C751 O731 1.255 . S
C751 O732 1.249 . S
C751 C745 1.516 . S
H752 C738 0.930 . S
H753 C739 0.931 . S
H754 C740 0.931 . S
H755 C741 0.933 . S
H756 C747 0.930 . S
H757 C748 0.931 . S
H758 C749 0.931 . S
H759 C750 0.933 . S
Dy760 O763 2.307 . S
Dy760 O765 2.395 . S
Dy760 O766 2.379 . S
Dy760 O768 2.339 . S
Dy760 O770 2.298 . S
Dy760 O774 2.275 . S
Dy760 C782 2.738 . S
Dy761 O764 2.298 . S
Dy761 O767 2.275 . S
Dy761 O769 2.307 . S
Dy761 O771 2.395 . S
Dy761 O772 2.379 . S
Dy761 O775 2.339 . S
Dy761 C791 2.738 . S
C762 O774 1.254 . S
C762 O775 1.257 . S
O763 Dy760 2.307 . S
O763 C773 1.266 . S
O764 Dy761 2.298 . S
O764 C773 1.236 . S
O765 Dy760 2.395 . S
O765 C782 1.255 . S
O766 Dy760 2.379 . S
O766 C782 1.249 . S
O767 Dy761 2.275 . S
O767 C783 1.254 . S
O768 Dy760 2.339 . S
O768 C783 1.257 . S
O769 Dy761 2.307 . S
O769 C784 1.266 . S
O770 Dy760 2.298 . S
O770 C784 1.236 . S
O771 Dy761 2.395 . S
O771 C791 1.255 . S
O772 Dy761 2.379 . S
O772 C791 1.249 . S
C773 O763 1.266 . S
C773 O764 1.236 . S
O774 Dy760 2.275 . S
O774 C762 1.254 . S
O775 Dy761 2.339 . S
O775 C762 1.257 . S
C776 C779 1.344 . S
C776 C780 1.328 . S
C776 C782 1.516 . S
C777 C778 1.304 . S
C777 C781 1.323 . S
C778 C777 1.304 . S
C778 C779 1.371 . S
C778 H792 0.930 . S
C779 C776 1.344 . S
C779 C778 1.371 . S
C779 H793 0.931 . S
C780 C776 1.328 . S
C780 C781 1.433 . S
C780 H794 0.931 . S
C781 C777 1.323 . S
C781 C780 1.433 . S
C781 H795 0.933 . S
C782 Dy760 2.738 . S
C782 O765 1.255 . S
C782 O766 1.249 . S
C782 C776 1.516 . S
C783 O767 1.254 . S
C783 O768 1.257 . S
C784 O769 1.266 . S
C784 O770 1.236 . S
C785 C788 1.344 . S
C785 C789 1.328 . S
C785 C791 1.516 . S
C786 C787 1.304 . S
C786 C790 1.323 . S
C787 C786 1.304 . S
C787 C788 1.371 . S
C787 H796 0.930 . S
C788 C785 1.344 . S
C788 C787 1.371 . S
C788 H797 0.931 . S
C789 C785 1.328 . S
C789 C790 1.433 . S
C789 H798 0.931 . S
C790 C786 1.323 . S
C790 C789 1.433 . S
C790 H799 0.933 . S
C791 Dy761 2.738 . S
C791 O771 1.255 . S
C791 O772 1.249 . S
C791 C785 1.516 . S
H792 C778 0.930 . S
H793 C779 0.931 . S
H794 C780 0.931 . S
H795 C781 0.933 . S
H796 C787 0.930 . S
H797 C788 0.931 . S
H798 C789 0.931 . S
H799 C790 0.933 . S
Dy800 O803 2.307 1_556 S
Dy800 O805 2.395 . S
Dy800 O806 2.379 . S
Dy800 O808 2.343 1_556 S
Dy800 O810 2.298 . S
Dy800 O814 2.275 . S
Dy800 C822 2.738 . S
Dy801 O804 2.298 1_556 S
Dy801 O807 2.275 1_556 S
Dy801 O809 2.307 . S
Dy801 O811 2.395 1_556 S
Dy801 O812 2.379 1_556 S
Dy801 O815 2.339 . S
Dy801 C831 2.738 1_556 S
C802 O814 1.254 . S
C802 O815 1.257 . S
O803 Dy800 2.307 1_554 S
O803 C813 1.266 . S
O804 Dy801 2.298 1_554 S
O804 C813 1.236 . S
O805 Dy800 2.395 . S
O805 C822 1.255 . S
O806 Dy800 2.379 . S
O806 C822 1.249 . S
O807 Dy801 2.275 1_554 S
O807 C823 1.254 . S
O808 Dy800 2.343 1_554 S
O808 C823 1.254 . S
O809 Dy801 2.307 . S
O809 C824 1.266 . S
O810 Dy800 2.298 . S
O810 C824 1.236 . S
O811 Dy801 2.395 1_554 S
O811 C831 1.255 . S
O812 Dy801 2.379 1_554 S
O812 C831 1.249 . S
C813 O803 1.266 . S
C813 O804 1.236 . S
O814 Dy800 2.275 . S
O814 C802 1.254 . S
O815 Dy801 2.339 . S
O815 C802 1.257 . S
C816 C819 1.344 . S
C816 C820 1.328 . S
C816 C822 1.516 . S
C817 C818 1.304 . S
C817 C821 1.323 . S
C818 C817 1.304 . S
C818 C819 1.371 . S
C818 H832 0.930 . S
C819 C816 1.344 . S
C819 C818 1.371 . S
C819 H833 0.931 . S
C820 C816 1.328 . S
C820 C821 1.433 . S
C820 H834 0.931 . S
C821 C817 1.323 . S
C821 C820 1.433 . S
C821 H835 0.933 . S
C822 Dy800 2.738 . S
C822 O805 1.255 . S
C822 O806 1.249 . S
C822 C816 1.516 . S
C823 O807 1.254 . S
C823 O808 1.254 . S
C824 O809 1.266 . S
C824 O810 1.236 . S
C825 C828 1.344 . S
C825 C829 1.328 . S
C825 C831 1.516 . S
C826 C827 1.304 . S
C826 C830 1.323 . S
C827 C826 1.304 . S
C827 C828 1.371 . S
C827 H836 0.930 . S
C828 C825 1.344 . S
C828 C827 1.371 . S
C828 H837 0.931 . S
C829 C825 1.328 . S
C829 C830 1.433 . S
C829 H838 0.931 . S
C830 C826 1.323 . S
C830 C829 1.433 . S
C830 H839 0.933 . S
C831 Dy801 2.738 1_554 S
C831 O811 1.255 . S
C831 O812 1.249 . S
C831 C825 1.516 . S
H832 C818 0.930 . S
H833 C819 0.931 . S
H834 C820 0.931 . S
H835 C821 0.933 . S
H836 C827 0.930 . S
H837 C828 0.931 . S
H838 C829 0.931 . S
H839 C830 0.933 . S
Dy840 O843 2.307 . S
Dy840 O845 2.395 . S
Dy840 O846 2.379 . S
Dy840 O848 2.339 . S
Dy840 O850 2.298 . S
Dy840 O854 2.275 . S
Dy840 C862 2.738 . S
Dy841 O844 2.298 . S
Dy841 O847 2.275 . S
Dy841 O849 2.307 . S
Dy841 O851 2.395 . S
Dy841 O852 2.379 . S
Dy841 O855 2.339 . S
Dy841 C871 2.738 . S
C842 O854 1.254 . S
C842 O855 1.257 . S
O843 Dy840 2.307 . S
O843 C853 1.266 . S
O844 Dy841 2.298 . S
O844 C853 1.236 . S
O845 Dy840 2.395 . S
O845 C862 1.255 . S
O846 Dy840 2.379 . S
O846 C862 1.249 . S
O847 Dy841 2.275 . S
O847 C863 1.254 . S
O848 Dy840 2.339 . S
O848 C863 1.257 . S
O849 Dy841 2.307 . S
O849 C864 1.266 . S
O850 Dy840 2.298 . S
O850 C864 1.236 . S
O851 Dy841 2.395 . S
O851 C871 1.255 . S
O852 Dy841 2.379 . S
O852 C871 1.249 . S
C853 O843 1.266 . S
C853 O844 1.236 . S
O854 Dy840 2.275 . S
O854 C842 1.254 . S
O855 Dy841 2.339 . S
O855 C842 1.257 . S
C856 C859 1.344 . S
C856 C860 1.328 . S
C856 C862 1.516 1_556 S
C857 C858 1.304 . S
C857 C861 1.323 . S
C858 C857 1.304 . S
C858 C859 1.371 . S
C858 H872 0.930 . S
C859 C856 1.344 . S
C859 C858 1.371 . S
C859 H873 0.931 . S
C860 C856 1.328 . S
C860 C861 1.433 . S
C860 H874 0.931 1_556 S
C861 C857 1.323 . S
C861 C860 1.433 . S
C861 H875 0.933 . S
C862 Dy840 2.738 . S
C862 O845 1.255 . S
C862 O846 1.249 . S
C862 C856 1.516 1_554 S
C863 O847 1.254 . S
C863 O848 1.257 . S
C864 O849 1.266 . S
C864 O850 1.236 . S
C865 C868 1.344 . S
C865 C869 1.328 . S
C865 C871 1.516 . S
C866 C867 1.304 . S
C866 C870 1.323 . S
C867 C866 1.304 . S
C867 C868 1.371 . S
C867 H876 0.930 . S
C868 C865 1.344 . S
C868 C867 1.371 . S
C868 H877 0.931 . S
C869 C865 1.328 . S
C869 C870 1.433 . S
C869 H878 0.931 . S
C870 C866 1.323 . S
C870 C869 1.433 . S
C870 H879 0.933 . S
C871 Dy841 2.738 . S
C871 O851 1.255 . S
C871 O852 1.249 . S
C871 C865 1.516 . S
H872 C858 0.930 . S
H873 C859 0.931 . S
H874 C860 0.931 1_554 S
H875 C861 0.933 . S
H876 C867 0.930 . S
H877 C868 0.931 . S
H878 C869 0.931 . S
H879 C870 0.933 . S
Dy880 O883 2.307 . S
Dy880 O885 2.395 . S
Dy880 O886 2.379 . S
Dy880 O888 2.339 . S
Dy880 O890 2.298 . S
Dy880 O894 2.275 . S
Dy880 C902 2.738 . S
Dy881 O884 2.298 . S
Dy881 O887 2.275 . S
Dy881 O889 2.307 . S
Dy881 O891 2.395 . S
Dy881 O892 2.379 . S
Dy881 O895 2.339 . S
Dy881 C911 2.738 . S
C882 O894 1.254 . S
C882 O895 1.257 . S
O883 Dy880 2.307 . S
O883 C893 1.266 . S
O884 Dy881 2.298 . S
O884 C893 1.236 . S
O885 Dy880 2.395 . S
O885 C902 1.255 . S
O886 Dy880 2.379 . S
O886 C902 1.249 . S
O887 Dy881 2.275 . S
O887 C903 1.254 . S
O888 Dy880 2.339 . S
O888 C903 1.257 . S
O889 Dy881 2.307 . S
O889 C904 1.266 . S
O890 Dy880 2.298 . S
O890 C904 1.236 . S
O891 Dy881 2.395 . S
O891 C911 1.255 . S
O892 Dy881 2.379 . S
O892 C911 1.249 . S
C893 O883 1.266 . S
C893 O884 1.236 . S
O894 Dy880 2.275 . S
O894 C882 1.254 . S
O895 Dy881 2.339 . S
O895 C882 1.257 . S
C896 C899 1.344 . S
C896 C900 1.328 . S
C896 C902 1.516 . S
C897 C898 1.304 . S
C897 C901 1.323 . S
C898 C897 1.304 . S
C898 C899 1.371 . S
C898 H912 0.930 . S
C899 C896 1.344 . S
C899 C898 1.371 . S
C899 H913 0.931 . S
C900 C896 1.328 . S
C900 C901 1.433 . S
C900 H914 0.931 . S
C901 C897 1.323 . S
C901 C900 1.433 . S
C901 H915 0.933 . S
C902 Dy880 2.738 . S
C902 O885 1.255 . S
C902 O886 1.249 . S
C902 C896 1.516 . S
C903 O887 1.254 . S
C903 O888 1.257 . S
C904 O889 1.266 . S
C904 O890 1.236 . S
C905 C908 1.344 . S
C905 C909 1.328 . S
C905 C911 1.516 . S
C906 C907 1.304 . S
C906 C910 1.323 . S
C907 C906 1.304 . S
C907 C908 1.371 . S
C907 H916 0.930 . S
C908 C905 1.344 . S
C908 C907 1.371 . S
C908 H917 0.931 . S
C909 C905 1.328 . S
C909 C910 1.433 . S
C909 H918 0.931 . S
C910 C906 1.323 . S
C910 C909 1.433 . S
C910 H919 0.933 . S
C911 Dy881 2.738 . S
C911 O891 1.255 . S
C911 O892 1.249 . S
C911 C905 1.516 . S
H912 C898 0.930 . S
H913 C899 0.931 . S
H914 C900 0.931 . S
H915 C901 0.933 . S
H916 C907 0.930 . S
H917 C908 0.931 . S
H918 C909 0.931 . S
H919 C910 0.933 . S
Dy920 O923 2.307 . S
Dy920 O925 2.395 . S
Dy920 O926 2.379 . S
Dy920 O928 2.339 . S
Dy920 O930 2.298 . S
Dy920 O934 2.275 . S
Dy920 C942 2.738 . S
Dy921 O924 2.298 . S
Dy921 O927 2.275 . S
Dy921 O929 2.307 . S
Dy921 O931 2.395 . S
Dy921 O932 2.379 . S
Dy921 O935 2.339 . S
Dy921 C951 2.738 . S
C922 O934 1.254 . S
C922 O935 1.257 . S
O923 Dy920 2.307 . S
O923 C933 1.266 . S
O924 Dy921 2.298 . S
O924 C933 1.236 . S
O925 Dy920 2.395 . S
O925 C942 1.255 . S
O926 Dy920 2.379 . S
O926 C942 1.249 . S
O927 Dy921 2.275 . S
O927 C943 1.254 . S
O928 Dy920 2.339 . S
O928 C943 1.257 . S
O929 Dy921 2.307 . S
O929 C944 1.266 . S
O930 Dy920 2.298 . S
O930 C944 1.236 . S
O931 Dy921 2.395 . S
O931 C951 1.255 . S
O932 Dy921 2.379 . S
O932 C951 1.249 . S
C933 O923 1.266 . S
C933 O924 1.236 . S
O934 Dy920 2.275 . S
O934 C922 1.254 . S
O935 Dy921 2.339 . S
O935 C922 1.257 . S
C936 C939 1.344 . S
C936 C940 1.328 . S
C936 C942 1.516 . S
C937 C938 1.304 . S
C937 C941 1.323 . S
C938 C937 1.304 . S
C938 C939 1.371 . S
C938 H952 0.930 . S
C939 C936 1.344 . S
C939 C938 1.371 . S
C939 H953 0.931 . S
C940 C936 1.328 . S
C940 C941 1.433 . S
C940 H954 0.931 . S
C941 C937 1.323 . S
C941 C940 1.433 . S
C941 H955 0.933 . S
C942 Dy920 2.738 . S
C942 O925 1.255 . S
C942 O926 1.249 . S
C942 C936 1.516 . S
C943 O927 1.254 . S
C943 O928 1.257 . S
C944 O929 1.266 . S
C944 O930 1.236 . S
C945 C948 1.344 . S
C945 C949 1.328 . S
C945 C951 1.516 . S
C946 C947 1.304 . S
C946 C950 1.323 . S
C947 C946 1.304 . S
C947 C948 1.371 . S
C947 H956 0.930 . S
C948 C945 1.344 . S
C948 C947 1.371 . S
C948 H957 0.931 . S
C949 C945 1.328 . S
C949 C950 1.433 . S
C949 H958 0.931 . S
C950 C946 1.323 . S
C950 C949 1.433 . S
C950 H959 0.933 . S
C951 Dy921 2.738 . S
C951 O931 1.255 . S
C951 O932 1.249 . S
C951 C945 1.516 . S
H952 C938 0.930 . S
H953 C939 0.931 . S
H954 C940 0.931 . S
H955 C941 0.933 . S
H956 C947 0.930 . S
H957 C948 0.931 . S
H958 C949 0.931 . S
H959 C950 0.933 . S
H960 C966 0.930 . S
H961 C970 0.930 . S
H962 C975 0.929 . S
H963 C973 0.929 . S
H964 C968 0.929 . S
H965 C974 0.929 . S
C966 H960 0.930 . S
C966 C967 1.367 . S
C966 C974 1.378 . S
C967 C966 1.367 . S
C967 C975 1.433 . S
C968 H964 0.929 . S
C968 C970 1.378 . S
C968 C972 1.350 . S
C969 C972 1.463 . S
C969 C974 1.350 . S
C969 N977 1.427 . S
C970 H961 0.930 . S
C970 C968 1.378 . S
C970 C971 1.367 . S
C971 C970 1.367 . S
C971 C973 1.433 . S
C972 C968 1.350 . S
C972 C969 1.463 . S
C972 N976 1.427 . S
C973 H963 0.929 . S
C973 C971 1.433 . S
C973 N976 1.384 . S
C974 H965 0.929 . S
C974 C966 1.378 . S
C974 C969 1.350 . S
C975 H962 0.929 . S
C975 C967 1.433 . S
C975 N977 1.384 . S
N976 C972 1.427 . S
N976 C973 1.384 . S
N977 C969 1.427 . S
N977 C975 1.384 . S
H978 C984 0.930 . S
H979 C988 0.930 . S
H980 C993 0.929 . S
H981 C991 0.929 . S
H982 C986 0.929 . S
H983 C992 0.929 . S
C984 H978 0.930 . S
C984 C985 1.367 . S
C984 C992 1.378 . S
C985 C984 1.367 . S
C985 C993 1.433 . S
C986 H982 0.929 . S
C986 C988 1.378 . S
C986 C990 1.350 . S
C987 C990 1.463 . S
C987 C992 1.350 . S
C987 N995 1.427 . S
C988 H979 0.930 . S
C988 C986 1.378 . S
C988 C989 1.367 . S
C989 C988 1.367 . S
C989 C991 1.433 . S
C990 C986 1.350 . S
C990 C987 1.463 . S
C990 N994 1.427 . S
C991 H981 0.929 . S
C991 C989 1.433 . S
C991 N994 1.384 . S
C992 H983 0.929 . S
C992 C984 1.378 . S
C992 C987 1.350 . S
C993 H980 0.929 . S
C993 C985 1.433 . S
C993 N995 1.384 . S
N994 C990 1.427 . S
N994 C991 1.384 . S
N995 C987 1.427 . S
N995 C993 1.384 . S
H996 C1002 0.930 . S
H997 C1006 0.930 . S
H998 C1011 0.929 . S
H999 C1009 0.929 . S
H1000 C1004 0.929 . S
H1001 C1010 0.929 . S
C1002 H996 0.930 . S
C1002 C1003 1.367 . S
C1002 C1010 1.378 . S
C1003 C1002 1.367 . S
C1003 C1011 1.433 . S
C1004 H1000 0.929 . S
C1004 C1006 1.378 . S
C1004 C1008 1.350 . S
C1005 C1008 1.463 . S
C1005 C1010 1.350 . S
C1005 N1013 1.427 . S
C1006 H997 0.930 . S
C1006 C1004 1.378 . S
C1006 C1007 1.367 . S
C1007 C1006 1.367 . S
C1007 C1009 1.433 . S
C1008 C1004 1.350 . S
C1008 C1005 1.463 . S
C1008 N1012 1.427 . S
C1009 H999 0.929 . S
C1009 C1007 1.433 . S
C1009 N1012 1.384 . S
C1010 H1001 0.929 . S
C1010 C1002 1.378 . S
C1010 C1005 1.350 . S
C1011 H998 0.929 . S
C1011 C1003 1.433 . S
C1011 N1013 1.384 . S
N1012 C1008 1.427 . S
N1012 C1009 1.384 . S
N1013 C1005 1.427 . S
N1013 C1011 1.384 . S
H1014 C1020 0.930 . S
H1015 C1024 0.930 . S
H1016 C1029 0.929 . S
H1017 C1027 0.929 . S
H1018 C1022 0.929 . S
H1019 C1028 0.929 . S
C1020 H1014 0.930 . S
C1020 C1021 1.367 . S
C1020 C1028 1.378 . S
C1021 C1020 1.367 . S
C1021 C1029 1.433 . S
C1022 H1018 0.929 . S
C1022 C1024 1.378 . S
C1022 C1026 1.350 . S
C1023 C1026 1.463 . S
C1023 C1028 1.350 . S
C1023 N1031 1.427 . S
C1024 H1015 0.930 . S
C1024 C1022 1.378 . S
C1024 C1025 1.367 . S
C1025 C1024 1.367 . S
C1025 C1027 1.433 . S
C1026 C1022 1.350 . S
C1026 C1023 1.463 . S
C1026 N1030 1.427 . S
C1027 H1017 0.929 . S
C1027 C1025 1.433 . S
C1027 N1030 1.384 . S
C1028 H1019 0.929 . S
C1028 C1020 1.378 . S
C1028 C1023 1.350 . S
C1029 H1016 0.929 . S
C1029 C1021 1.433 . S
C1029 N1031 1.384 . S
N1030 C1026 1.427 . S
N1030 C1027 1.384 . S
N1031 C1023 1.427 . S
N1031 C1029 1.384 . S
H1032 C1038 0.930 . S
H1033 C1042 0.930 . S
H1034 C1047 0.929 . S
H1035 C1045 0.929 . S
H1036 C1040 0.929 . S
H1037 C1046 0.929 . S
C1038 H1032 0.930 . S
C1038 C1039 1.367 . S
C1038 C1046 1.378 . S
C1039 C1038 1.367 . S
C1039 C1047 1.433 . S
C1040 H1036 0.929 . S
C1040 C1042 1.378 . S
C1040 C1044 1.350 . S
C1041 C1044 1.463 . S
C1041 C1046 1.350 . S
C1041 N1049 1.427 . S
C1042 H1033 0.930 . S
C1042 C1040 1.378 . S
C1042 C1043 1.367 . S
C1043 C1042 1.367 . S
C1043 C1045 1.433 . S
C1044 C1040 1.350 . S
C1044 C1041 1.463 . S
C1044 N1048 1.427 . S
C1045 H1035 0.929 . S
C1045 C1043 1.433 . S
C1045 N1048 1.384 . S
C1046 H1037 0.929 . S
C1046 C1038 1.378 . S
C1046 C1041 1.350 . S
C1047 H1034 0.929 . S
C1047 C1039 1.433 . S
C1047 N1049 1.384 . S
N1048 C1044 1.427 . S
N1048 C1045 1.384 . S
N1049 C1041 1.427 . S
N1049 C1047 1.384 . S
H1050 C1056 0.930 . S
H1051 C1060 0.930 . S
H1052 C1065 0.929 . S
H1053 C1063 0.929 . S
H1054 C1058 0.929 . S
H1055 C1064 0.929 . S
C1056 H1050 0.930 . S
C1056 C1057 1.367 . S
C1056 C1064 1.378 . S
C1057 C1056 1.367 . S
C1057 C1065 1.433 . S
C1058 H1054 0.929 . S
C1058 C1060 1.378 . S
C1058 C1062 1.350 . S
C1059 C1062 1.463 . S
C1059 C1064 1.350 . S
C1059 N1067 1.427 . S
C1060 H1051 0.930 . S
C1060 C1058 1.378 . S
C1060 C1061 1.367 . S
C1061 C1060 1.367 . S
C1061 C1063 1.433 . S
C1062 C1058 1.350 . S
C1062 C1059 1.463 . S
C1062 N1066 1.427 . S
C1063 H1053 0.929 . S
C1063 C1061 1.433 . S
C1063 N1066 1.384 . S
C1064 H1055 0.929 . S
C1064 C1056 1.378 . S
C1064 C1059 1.350 . S
C1065 H1052 0.929 . S
C1065 C1057 1.433 . S
C1065 N1067 1.384 . S
N1066 C1062 1.427 . S
N1066 C1063 1.384 . S
N1067 C1059 1.427 . S
N1067 C1065 1.384 . S
H1068 C1074 0.930 . S
H1069 C1078 0.930 . S
H1070 C1083 0.929 . S
H1071 C1081 0.929 . S
H1072 C1076 0.929 . S
H1073 C1082 0.929 . S
C1074 H1068 0.930 . S
C1074 C1075 1.367 . S
C1074 C1082 1.378 . S
C1075 C1074 1.367 . S
C1075 C1083 1.433 . S
C1076 H1072 0.929 . S
C1076 C1078 1.378 . S
C1076 C1080 1.350 . S
C1077 C1080 1.463 . S
C1077 C1082 1.350 . S
C1077 N1085 1.427 . S
C1078 H1069 0.930 . S
C1078 C1076 1.378 . S
C1078 C1079 1.367 . S
C1079 C1078 1.367 . S
C1079 C1081 1.433 . S
C1080 C1076 1.350 . S
C1080 C1077 1.463 . S
C1080 N1084 1.427 . S
C1081 H1071 0.929 . S
C1081 C1079 1.433 . S
C1081 N1084 1.384 . S
C1082 H1073 0.929 . S
C1082 C1074 1.378 . S
C1082 C1077 1.350 . S
C1083 H1070 0.929 . S
C1083 C1075 1.433 . S
C1083 N1085 1.384 . S
N1084 C1080 1.427 . S
N1084 C1081 1.384 . S
N1085 C1077 1.427 . S
N1085 C1083 1.384 . S
H1086 C1092 0.930 . S
H1087 C1096 0.930 . S
H1088 C1101 0.929 . S
H1089 C1099 0.929 . S
H1090 C1094 0.929 . S
H1091 C1100 0.929 . S
C1092 H1086 0.930 . S
C1092 C1093 1.367 . S
C1092 C1100 1.378 . S
C1093 C1092 1.367 . S
C1093 C1101 1.433 . S
C1094 H1090 0.929 . S
C1094 C1096 1.378 . S
C1094 C1098 1.350 . S
C1095 C1098 1.463 . S
C1095 C1100 1.350 . S
C1095 N1103 1.427 . S
C1096 H1087 0.930 . S
C1096 C1094 1.378 . S
C1096 C1097 1.367 . S
C1097 C1096 1.367 . S
C1097 C1099 1.433 . S
C1098 C1094 1.350 . S
C1098 C1095 1.463 . S
C1098 N1102 1.427 . S
C1099 H1089 0.929 . S
C1099 C1097 1.433 . S
C1099 N1102 1.384 . S
C1100 H1091 0.929 . S
C1100 C1092 1.378 . S
C1100 C1095 1.350 . S
C1101 H1088 0.929 . S
C1101 C1093 1.433 . S
C1101 N1103 1.384 . S
N1102 C1098 1.427 . S
N1102 C1099 1.384 . S
N1103 C1095 1.427 . S
N1103 C1101 1.384 . S
H1104 C1110 0.930 . S
H1105 C1114 0.930 . S
H1106 C1119 0.929 . S
H1107 C1117 0.929 . S
H1108 C1112 0.929 . S
H1109 C1118 0.929 . S
C1110 H1104 0.930 . S
C1110 C1111 1.367 . S
C1110 C1118 1.378 . S
C1111 C1110 1.367 . S
C1111 C1119 1.433 . S
C1112 H1108 0.929 . S
C1112 C1114 1.378 . S
C1112 C1116 1.350 . S
C1113 C1116 1.463 . S
C1113 C1118 1.350 . S
C1113 N1121 1.427 . S
C1114 H1105 0.930 . S
C1114 C1112 1.378 . S
C1114 C1115 1.367 . S
C1115 C1114 1.367 . S
C1115 C1117 1.433 . S
C1116 C1112 1.350 . S
C1116 C1113 1.463 . S
C1116 N1120 1.427 . S
C1117 H1107 0.929 . S
C1117 C1115 1.433 . S
C1117 N1120 1.384 . S
C1118 H1109 0.929 . S
C1118 C1110 1.378 . S
C1118 C1113 1.350 . S
C1119 H1106 0.929 . S
C1119 C1111 1.433 . S
C1119 N1121 1.384 . S
N1120 C1116 1.427 . S
N1120 C1117 1.384 . S
N1121 C1113 1.427 . S
N1121 C1119 1.384 . S
H1122 C1128 0.930 . S
H1123 C1132 0.930 . S
H1124 C1137 0.929 . S
H1125 C1135 0.929 . S
H1126 C1130 0.929 . S
H1127 C1136 0.929 . S
C1128 H1122 0.930 . S
C1128 C1129 1.367 . S
C1128 C1136 1.378 . S
C1129 C1128 1.367 . S
C1129 C1137 1.433 . S
C1130 H1126 0.929 . S
C1130 C1132 1.378 . S
C1130 C1134 1.350 . S
C1131 C1134 1.463 . S
C1131 C1136 1.350 . S
C1131 N1139 1.427 . S
C1132 H1123 0.930 . S
C1132 C1130 1.378 . S
C1132 C1133 1.367 . S
C1133 C1132 1.367 . S
C1133 C1135 1.433 . S
C1134 C1130 1.350 . S
C1134 C1131 1.463 . S
C1134 N1138 1.427 . S
C1135 H1125 0.929 . S
C1135 C1133 1.433 . S
C1135 N1138 1.384 . S
C1136 H1127 0.929 . S
C1136 C1128 1.378 . S
C1136 C1131 1.350 . S
C1137 H1124 0.929 . S
C1137 C1129 1.433 . S
C1137 N1139 1.384 . S
N1138 C1134 1.427 . S
N1138 C1135 1.384 . S
N1139 C1131 1.427 . S
N1139 C1137 1.384 . S
H1140 C1146 0.930 . S
H1141 C1150 0.930 . S
H1142 C1155 0.929 . S
H1143 C1153 0.929 . S
H1144 C1148 0.929 . S
H1145 C1154 0.929 . S
C1146 H1140 0.930 . S
C1146 C1147 1.367 . S
C1146 C1154 1.378 . S
C1147 C1146 1.367 . S
C1147 C1155 1.433 . S
C1148 H1144 0.929 . S
C1148 C1150 1.378 . S
C1148 C1152 1.350 . S
C1149 C1152 1.463 . S
C1149 C1154 1.350 . S
C1149 N1157 1.427 . S
C1150 H1141 0.930 . S
C1150 C1148 1.378 . S
C1150 C1151 1.367 . S
C1151 C1150 1.367 . S
C1151 C1153 1.433 . S
C1152 C1148 1.350 . S
C1152 C1149 1.463 . S
C1152 N1156 1.427 . S
C1153 H1143 0.929 . S
C1153 C1151 1.433 . S
C1153 N1156 1.384 . S
C1154 H1145 0.929 . S
C1154 C1146 1.378 . S
C1154 C1149 1.350 . S
C1155 H1142 0.929 . S
C1155 C1147 1.433 . S
C1155 N1157 1.384 . S
N1156 C1152 1.427 . S
N1156 C1153 1.384 . S
N1157 C1149 1.427 . S
N1157 C1155 1.384 . S
H1158 C1164 0.930 . S
H1159 C1168 0.930 . S
H1160 C1173 0.929 . S
H1161 C1171 0.929 . S
H1162 C1166 0.929 . S
H1163 C1172 0.929 . S
C1164 H1158 0.930 . S
C1164 C1165 1.367 . S
C1164 C1172 1.378 . S
C1165 C1164 1.367 . S
C1165 C1173 1.433 . S
C1166 H1162 0.929 . S
C1166 C1168 1.378 . S
C1166 C1170 1.350 . S
C1167 C1170 1.463 . S
C1167 C1172 1.350 . S
C1167 N1175 1.427 . S
C1168 H1159 0.930 . S
C1168 C1166 1.378 . S
C1168 C1169 1.367 . S
C1169 C1168 1.367 . S
C1169 C1171 1.433 . S
C1170 C1166 1.350 . S
C1170 C1167 1.463 . S
C1170 N1174 1.427 . S
C1171 H1161 0.929 . S
C1171 C1169 1.433 . S
C1171 N1174 1.384 . S
C1172 H1163 0.929 . S
C1172 C1164 1.378 . S
C1172 C1167 1.350 . S
C1173 H1160 0.929 . S
C1173 C1165 1.433 . S
C1173 N1175 1.384 . S
N1174 C1170 1.427 . S
N1174 C1171 1.384 . S
N1175 C1167 1.427 . S
N1175 C1173 1.384 . S
H1176 C1182 0.930 . S
H1177 C1186 0.930 . S
H1178 C1191 0.929 . S
H1179 C1189 0.929 . S
H1180 C1184 0.929 . S
H1181 C1190 0.929 . S
C1182 H1176 0.930 . S
C1182 C1183 1.367 . S
C1182 C1190 1.378 . S
C1183 C1182 1.367 . S
C1183 C1191 1.433 . S
C1184 H1180 0.929 . S
C1184 C1186 1.378 . S
C1184 C1188 1.350 . S
C1185 C1188 1.463 . S
C1185 C1190 1.350 . S
C1185 N1193 1.427 . S
C1186 H1177 0.930 . S
C1186 C1184 1.378 . S
C1186 C1187 1.367 . S
C1187 C1186 1.367 . S
C1187 C1189 1.433 . S
C1188 C1184 1.350 . S
C1188 C1185 1.463 . S
C1188 N1192 1.427 . S
C1189 H1179 0.929 . S
C1189 C1187 1.433 . S
C1189 N1192 1.384 . S
C1190 H1181 0.929 . S
C1190 C1182 1.378 . S
C1190 C1185 1.350 . S
C1191 H1178 0.929 . S
C1191 C1183 1.433 . S
C1191 N1193 1.384 . S
N1192 C1188 1.427 . S
N1192 C1189 1.384 . S
N1193 C1185 1.427 . S
N1193 C1191 1.384 . S
H1194 C1200 0.930 . S
H1195 C1204 0.930 . S
H1196 C1209 0.929 . S
H1197 C1207 0.929 . S
H1198 C1202 0.929 . S
H1199 C1208 0.929 . S
C1200 H1194 0.930 . S
C1200 C1201 1.367 . S
C1200 C1208 1.378 . S
C1201 C1200 1.367 . S
C1201 C1209 1.433 . S
C1202 H1198 0.929 . S
C1202 C1204 1.378 . S
C1202 C1206 1.350 . S
C1203 C1206 1.463 . S
C1203 C1208 1.350 . S
C1203 N1211 1.427 . S
C1204 H1195 0.930 . S
C1204 C1202 1.378 . S
C1204 C1205 1.367 . S
C1205 C1204 1.367 . S
C1205 C1207 1.433 . S
C1206 C1202 1.350 . S
C1206 C1203 1.463 . S
C1206 N1210 1.427 . S
C1207 H1197 0.929 . S
C1207 C1205 1.433 . S
C1207 N1210 1.384 . S
C1208 H1199 0.929 . S
C1208 C1200 1.378 . S
C1208 C1203 1.350 . S
C1209 H1196 0.929 . S
C1209 C1201 1.433 . S
C1209 N1211 1.384 . S
N1210 C1206 1.427 . S
N1210 C1207 1.384 . S
N1211 C1203 1.427 . S
N1211 C1209 1.384 . S
H1212 C1218 0.930 . S
H1213 C1222 0.930 . S
H1214 C1227 0.929 . S
H1215 C1225 0.929 . S
H1216 C1220 0.929 . S
H1217 C1226 0.929 . S
C1218 H1212 0.930 . S
C1218 C1219 1.367 . S
C1218 C1226 1.378 . S
C1219 C1218 1.367 . S
C1219 C1227 1.433 . S
C1220 H1216 0.929 . S
C1220 C1222 1.378 . S
C1220 C1224 1.350 . S
C1221 C1224 1.463 . S
C1221 C1226 1.350 . S
C1221 N1229 1.427 . S
C1222 H1213 0.930 . S
C1222 C1220 1.378 . S
C1222 C1223 1.367 . S
C1223 C1222 1.367 . S
C1223 C1225 1.433 . S
C1224 C1220 1.350 . S
C1224 C1221 1.463 . S
C1224 N1228 1.427 . S
C1225 H1215 0.929 . S
C1225 C1223 1.433 . S
C1225 N1228 1.384 . S
C1226 H1217 0.929 . S
C1226 C1218 1.378 . S
C1226 C1221 1.350 . S
C1227 H1214 0.929 . S
C1227 C1219 1.433 . S
C1227 N1229 1.384 . S
N1228 C1224 1.427 . S
N1228 C1225 1.384 . S
N1229 C1221 1.427 . S
N1229 C1227 1.384 . S
H1230 C1236 0.930 . S
H1231 C1240 0.930 . S
H1232 C1245 0.929 . S
H1233 C1243 0.929 . S
H1234 C1238 0.929 . S
H1235 C1244 0.929 . S
C1236 H1230 0.930 . S
C1236 C1237 1.367 . S
C1236 C1244 1.378 . S
C1237 C1236 1.367 . S
C1237 C1245 1.433 . S
C1238 H1234 0.929 . S
C1238 C1240 1.378 . S
C1238 C1242 1.350 . S
C1239 C1242 1.463 . S
C1239 C1244 1.350 . S
C1239 N1247 1.427 . S
C1240 H1231 0.930 . S
C1240 C1238 1.378 . S
C1240 C1241 1.367 . S
C1241 C1240 1.367 . S
C1241 C1243 1.433 . S
C1242 C1238 1.350 . S
C1242 C1239 1.463 . S
C1242 N1246 1.427 . S
C1243 H1233 0.929 . S
C1243 C1241 1.433 . S
C1243 N1246 1.384 . S
C1244 H1235 0.929 . S
C1244 C1236 1.378 . S
C1244 C1239 1.350 . S
C1245 H1232 0.929 . S
C1245 C1237 1.433 . S
C1245 N1247 1.384 . S
N1246 C1242 1.427 . S
N1246 C1243 1.384 . S
N1247 C1239 1.427 . S
N1247 C1245 1.384 . S
H1248 C1254 0.930 . S
H1249 C1258 0.930 . S
H1250 C1263 0.929 . S
H1251 C1261 0.929 . S
H1252 C1256 0.929 . S
H1253 C1262 0.929 . S
C1254 H1248 0.930 . S
C1254 C1255 1.367 . S
C1254 C1262 1.378 . S
C1255 C1254 1.367 . S
C1255 C1263 1.433 . S
C1256 H1252 0.929 . S
C1256 C1258 1.378 . S
C1256 C1260 1.350 . S
C1257 C1260 1.463 . S
C1257 C1262 1.350 . S
C1257 N1265 1.427 . S
C1258 H1249 0.930 . S
C1258 C1256 1.378 . S
C1258 C1259 1.367 . S
C1259 C1258 1.367 . S
C1259 C1261 1.433 . S
C1260 C1256 1.350 . S
C1260 C1257 1.463 . S
C1260 N1264 1.427 . S
C1261 H1251 0.929 . S
C1261 C1259 1.433 . S
C1261 N1264 1.384 . S
C1262 H1253 0.929 . S
C1262 C1254 1.378 . S
C1262 C1257 1.350 . S
C1263 H1250 0.929 . S
C1263 C1255 1.433 . S
C1263 N1265 1.384 . S
N1264 C1260 1.427 . S
N1264 C1261 1.384 . S
N1265 C1257 1.427 . S
N1265 C1263 1.384 . S
H1266 C1272 0.930 . S
H1267 C1276 0.930 . S
H1268 C1281 0.929 . S
H1269 C1279 0.929 . S
H1270 C1274 0.929 . S
H1271 C1280 0.929 . S
C1272 H1266 0.930 . S
C1272 C1273 1.367 . S
C1272 C1280 1.378 . S
C1273 C1272 1.367 . S
C1273 C1281 1.433 . S
C1274 H1270 0.929 . S
C1274 C1276 1.378 . S
C1274 C1278 1.350 . S
C1275 C1278 1.463 . S
C1275 C1280 1.350 . S
C1275 N1283 1.427 . S
C1276 H1267 0.930 . S
C1276 C1274 1.378 . S
C1276 C1277 1.367 . S
C1277 C1276 1.367 . S
C1277 C1279 1.433 . S
C1278 C1274 1.350 . S
C1278 C1275 1.463 . S
C1278 N1282 1.427 . S
C1279 H1269 0.929 . S
C1279 C1277 1.433 . S
C1279 N1282 1.384 . S
C1280 H1271 0.929 . S
C1280 C1272 1.378 . S
C1280 C1275 1.350 . S
C1281 H1268 0.929 . S
C1281 C1273 1.433 . S
C1281 N1283 1.384 . S
N1282 C1278 1.427 . S
N1282 C1279 1.384 . S
N1283 C1275 1.427 . S
N1283 C1281 1.384 . S
H1284 C1290 0.930 . S
H1285 C1294 0.930 . S
H1286 C1299 0.929 . S
H1287 C1297 0.929 . S
H1288 C1292 0.929 . S
H1289 C1298 0.929 . S
C1290 H1284 0.930 . S
C1290 C1291 1.367 . S
C1290 C1298 1.378 . S
C1291 C1290 1.367 . S
C1291 C1299 1.433 . S
C1292 H1288 0.929 . S
C1292 C1294 1.378 . S
C1292 C1296 1.350 . S
C1293 C1296 1.463 . S
C1293 C1298 1.350 . S
C1293 N1301 1.427 . S
C1294 H1285 0.930 . S
C1294 C1292 1.378 . S
C1294 C1295 1.367 . S
C1295 C1294 1.367 . S
C1295 C1297 1.433 . S
C1296 C1292 1.350 . S
C1296 C1293 1.463 . S
C1296 N1300 1.427 . S
C1297 H1287 0.929 . S
C1297 C1295 1.433 . S
C1297 N1300 1.384 . S
C1298 H1289 0.929 . S
C1298 C1290 1.378 . S
C1298 C1293 1.350 . S
C1299 H1286 0.929 . S
C1299 C1291 1.433 . S
C1299 N1301 1.384 . S
N1300 C1296 1.427 . S
N1300 C1297 1.384 . S
N1301 C1293 1.427 . S
N1301 C1299 1.384 . S
H1302 C1308 0.930 . S
H1303 C1312 0.930 . S
H1304 C1317 0.929 . S
H1305 C1315 0.929 . S
H1306 C1310 0.929 . S
H1307 C1316 0.929 . S
C1308 H1302 0.930 . S
C1308 C1309 1.367 . S
C1308 C1316 1.378 . S
C1309 C1308 1.367 . S
C1309 C1317 1.433 . S
C1310 H1306 0.929 . S
C1310 C1312 1.378 . S
C1310 C1314 1.350 . S
C1311 C1314 1.463 . S
C1311 C1316 1.350 . S
C1311 N1319 1.427 . S
C1312 H1303 0.930 . S
C1312 C1310 1.378 . S
C1312 C1313 1.367 . S
C1313 C1312 1.367 . S
C1313 C1315 1.433 . S
C1314 C1310 1.350 . S
C1314 C1311 1.463 . S
C1314 N1318 1.427 . S
C1315 H1305 0.929 . S
C1315 C1313 1.433 . S
C1315 N1318 1.384 . S
C1316 H1307 0.929 . S
C1316 C1308 1.378 . S
C1316 C1311 1.350 . S
C1317 H1304 0.929 . S
C1317 C1309 1.433 . S
C1317 N1319 1.384 . S
N1318 C1314 1.427 . S
N1318 C1315 1.384 . S
N1319 C1311 1.427 . S
N1319 C1317 1.384 . S
H1320 C1326 0.930 . S
H1321 C1330 0.930 . S
H1322 C1335 0.929 . S
H1323 C1333 0.929 . S
H1324 C1328 0.929 . S
H1325 C1334 0.929 . S
C1326 H1320 0.930 . S
C1326 C1327 1.367 . S
C1326 C1334 1.378 . S
C1327 C1326 1.367 . S
C1327 C1335 1.433 . S
C1328 H1324 0.929 . S
C1328 C1330 1.378 . S
C1328 C1332 1.350 . S
C1329 C1332 1.463 . S
C1329 C1334 1.350 . S
C1329 N1337 1.427 . S
C1330 H1321 0.930 . S
C1330 C1328 1.378 . S
C1330 C1331 1.367 . S
C1331 C1330 1.367 . S
C1331 C1333 1.433 . S
C1332 C1328 1.350 . S
C1332 C1329 1.463 . S
C1332 N1336 1.427 . S
C1333 H1323 0.929 . S
C1333 C1331 1.433 . S
C1333 N1336 1.384 . S
C1334 H1325 0.929 . S
C1334 C1326 1.378 . S
C1334 C1329 1.350 . S
C1335 H1322 0.929 . S
C1335 C1327 1.433 . S
C1335 N1337 1.384 . S
N1336 C1332 1.427 . S
N1336 C1333 1.384 . S
N1337 C1329 1.427 . S
N1337 C1335 1.384 . S
H1338 C1344 0.930 1_655 S
H1339 C1348 0.930 . S
H1340 C1353 0.929 . S
H1341 C1351 0.929 . S
H1342 C1346 0.929 . S
H1343 C1352 0.929 . S
C1344 H1338 0.930 1_455 S
C1344 C1345 1.367 . S
C1344 C1352 1.378 . S
C1345 C1344 1.367 . S
C1345 C1353 1.433 . S
C1346 H1342 0.929 . S
C1346 C1348 1.378 . S
C1346 C1350 1.350 . S
C1347 C1350 1.463 . S
C1347 C1352 1.350 . S
C1347 N1355 1.427 . S
C1348 H1339 0.930 . S
C1348 C1346 1.378 . S
C1348 C1349 1.367 . S
C1349 C1348 1.367 . S
C1349 C1351 1.433 . S
C1350 C1346 1.350 . S
C1350 C1347 1.463 . S
C1350 N1354 1.427 . S
C1351 H1341 0.929 . S
C1351 C1349 1.433 . S
C1351 N1354 1.384 . S
C1352 H1343 0.929 . S
C1352 C1344 1.378 . S
C1352 C1347 1.350 . S
C1353 H1340 0.929 . S
C1353 C1345 1.433 . S
C1353 N1355 1.384 . S
N1354 C1350 1.427 . S
N1354 C1351 1.384 . S
N1355 C1347 1.427 . S
N1355 C1353 1.384 . S
H1356 C1362 0.930 . S
H1357 C1366 0.930 . S
H1358 C1371 0.929 . S
H1359 C1369 0.929 . S
H1360 C1364 0.929 . S
H1361 C1370 0.929 . S
C1362 H1356 0.930 . S
C1362 C1363 1.367 . S
C1362 C1370 1.378 . S
C1363 C1362 1.367 . S
C1363 C1371 1.433 . S
C1364 H1360 0.929 . S
C1364 C1366 1.378 . S
C1364 C1368 1.350 . S
C1365 C1368 1.463 . S
C1365 C1370 1.350 . S
C1365 N1373 1.427 . S
C1366 H1357 0.930 . S
C1366 C1364 1.378 . S
C1366 C1367 1.367 . S
C1367 C1366 1.367 . S
C1367 C1369 1.433 . S
C1368 C1364 1.350 . S
C1368 C1365 1.463 . S
C1368 N1372 1.427 . S
C1369 H1359 0.929 . S
C1369 C1367 1.433 . S
C1369 N1372 1.384 . S
C1370 H1361 0.929 . S
C1370 C1362 1.378 . S
C1370 C1365 1.350 . S
C1371 H1358 0.929 . S
C1371 C1363 1.433 . S
C1371 N1373 1.384 . S
N1372 C1368 1.427 . S
N1372 C1369 1.384 . S
N1373 C1365 1.427 . S
N1373 C1371 1.384 . S
H1374 C1380 0.930 . S
H1375 C1384 0.930 . S
H1376 C1389 0.929 . S
H1377 C1387 0.929 . S
H1378 C1382 0.929 . S
H1379 C1388 0.929 . S
C1380 H1374 0.930 . S
C1380 C1381 1.367 . S
C1380 C1388 1.378 . S
C1381 C1380 1.367 . S
C1381 C1389 1.433 . S
C1382 H1378 0.929 . S
C1382 C1384 1.378 . S
C1382 C1386 1.350 . S
C1383 C1386 1.463 . S
C1383 C1388 1.350 . S
C1383 N1391 1.427 . S
C1384 H1375 0.930 . S
C1384 C1382 1.378 . S
C1384 C1385 1.367 . S
C1385 C1384 1.367 . S
C1385 C1387 1.433 . S
C1386 C1382 1.350 . S
C1386 C1383 1.463 . S
C1386 N1390 1.427 . S
C1387 H1377 0.929 . S
C1387 C1385 1.433 . S
C1387 N1390 1.384 . S
C1388 H1379 0.929 . S
C1388 C1380 1.378 . S
C1388 C1383 1.350 . S
C1389 H1376 0.929 . S
C1389 C1381 1.433 . S
C1389 N1391 1.384 . S
N1390 C1386 1.427 . S
N1390 C1387 1.384 . S
N1391 C1383 1.427 . S
N1391 C1389 1.384 . S
H1392 C1398 0.930 . S
H1393 C1402 0.930 . S
H1394 C1407 0.929 . S
H1395 C1405 0.929 . S
H1396 C1400 0.929 . S
H1397 C1406 0.929 . S
C1398 H1392 0.930 . S
C1398 C1399 1.367 . S
C1398 C1406 1.378 . S
C1399 C1398 1.367 . S
C1399 C1407 1.433 . S
C1400 H1396 0.929 . S
C1400 C1402 1.378 . S
C1400 C1404 1.350 . S
C1401 C1404 1.463 . S
C1401 C1406 1.350 . S
C1401 N1409 1.427 . S
C1402 H1393 0.930 . S
C1402 C1400 1.378 . S
C1402 C1403 1.367 . S
C1403 C1402 1.367 . S
C1403 C1405 1.433 . S
C1404 C1400 1.350 . S
C1404 C1401 1.463 . S
C1404 N1408 1.427 . S
C1405 H1395 0.929 . S
C1405 C1403 1.433 . S
C1405 N1408 1.384 . S
C1406 H1397 0.929 . S
C1406 C1398 1.378 . S
C1406 C1401 1.350 . S
C1407 H1394 0.929 . S
C1407 C1399 1.433 . S
C1407 N1409 1.384 . S
N1408 C1404 1.427 . S
N1408 C1405 1.384 . S
N1409 C1401 1.427 . S
N1409 C1407 1.384 . S
H1410 C1416 0.930 . S
H1411 C1420 0.930 . S
H1412 C1425 0.929 . S
H1413 C1423 0.929 . S
H1414 C1418 0.929 . S
H1415 C1424 0.929 . S
C1416 H1410 0.930 . S
C1416 C1417 1.367 . S
C1416 C1424 1.378 . S
C1417 C1416 1.367 . S
C1417 C1425 1.433 . S
C1418 H1414 0.929 . S
C1418 C1420 1.378 . S
C1418 C1422 1.350 . S
C1419 C1422 1.463 . S
C1419 C1424 1.350 . S
C1419 N1427 1.427 . S
C1420 H1411 0.930 . S
C1420 C1418 1.378 . S
C1420 C1421 1.367 . S
C1421 C1420 1.367 . S
C1421 C1423 1.433 . S
C1422 C1418 1.350 . S
C1422 C1419 1.463 . S
C1422 N1426 1.427 . S
C1423 H1413 0.929 . S
C1423 C1421 1.433 . S
C1423 N1426 1.384 . S
C1424 H1415 0.929 . S
C1424 C1416 1.378 . S
C1424 C1419 1.350 . S
C1425 H1412 0.929 . S
C1425 C1417 1.433 . S
C1425 N1427 1.384 . S
N1426 C1422 1.427 . S
N1426 C1423 1.384 . S
N1427 C1419 1.427 . S
N1427 C1425 1.384 . S
H1428 C1434 0.930 . S
H1429 C1438 0.930 . S
H1430 C1443 0.929 . S
H1431 C1441 0.929 . S
H1432 C1436 0.929 . S
H1433 C1442 0.929 . S
C1434 H1428 0.930 . S
C1434 C1435 1.367 . S
C1434 C1442 1.378 . S
C1435 C1434 1.367 . S
C1435 C1443 1.433 . S
C1436 H1432 0.929 . S
C1436 C1438 1.378 . S
C1436 C1440 1.350 . S
C1437 C1440 1.463 . S
C1437 C1442 1.350 . S
C1437 N1445 1.427 . S
C1438 H1429 0.930 . S
C1438 C1436 1.378 . S
C1438 C1439 1.367 . S
C1439 C1438 1.367 . S
C1439 C1441 1.433 . S
C1440 C1436 1.350 . S
C1440 C1437 1.463 . S
C1440 N1444 1.427 . S
C1441 H1431 0.929 . S
C1441 C1439 1.433 . S
C1441 N1444 1.384 . S
C1442 H1433 0.929 . S
C1442 C1434 1.378 . S
C1442 C1437 1.350 . S
C1443 H1430 0.929 . S
C1443 C1435 1.433 . S
C1443 N1445 1.384 . S
N1444 C1440 1.427 . S
N1444 C1441 1.384 . S
N1445 C1437 1.427 . S
N1445 C1443 1.384 . S
H1446 C1452 0.930 . S
H1447 C1456 0.930 . S
H1448 C1461 0.929 . S
H1449 C1459 0.929 . S
H1450 C1454 0.929 . S
H1451 C1460 0.929 . S
C1452 H1446 0.930 . S
C1452 C1453 1.367 . S
C1452 C1460 1.378 . S
C1453 C1452 1.367 . S
C1453 C1461 1.433 . S
C1454 H1450 0.929 . S
C1454 C1456 1.378 . S
C1454 C1458 1.350 . S
C1455 C1458 1.463 . S
C1455 C1460 1.350 . S
C1455 N1463 1.427 . S
C1456 H1447 0.930 . S
C1456 C1454 1.378 . S
C1456 C1457 1.367 . S
C1457 C1456 1.367 . S
C1457 C1459 1.433 . S
C1458 C1454 1.350 . S
C1458 C1455 1.463 . S
C1458 N1462 1.427 . S
C1459 H1449 0.929 . S
C1459 C1457 1.433 . S
C1459 N1462 1.384 . S
C1460 H1451 0.929 . S
C1460 C1452 1.378 . S
C1460 C1455 1.350 . S
C1461 H1448 0.929 . S
C1461 C1453 1.433 . S
C1461 N1463 1.384 . S
N1462 C1458 1.427 . S
N1462 C1459 1.384 . S
N1463 C1455 1.427 . S
N1463 C1461 1.384 . S
H1464 C1470 0.930 . S
H1465 C1474 0.930 . S
H1466 C1479 0.929 . S
H1467 C1477 0.929 . S
H1468 C1472 0.929 . S
H1469 C1478 0.929 . S
C1470 H1464 0.930 . S
C1470 C1471 1.367 . S
C1470 C1478 1.378 . S
C1471 C1470 1.367 . S
C1471 C1479 1.433 . S
C1472 H1468 0.929 . S
C1472 C1474 1.378 . S
C1472 C1476 1.350 . S
C1473 C1476 1.463 . S
C1473 C1478 1.350 . S
C1473 N1481 1.427 . S
C1474 H1465 0.930 . S
C1474 C1472 1.378 . S
C1474 C1475 1.367 . S
C1475 C1474 1.367 . S
C1475 C1477 1.433 . S
C1476 C1472 1.350 . S
C1476 C1473 1.463 . S
C1476 N1480 1.427 . S
C1477 H1467 0.929 . S
C1477 C1475 1.433 . S
C1477 N1480 1.384 . S
C1478 H1469 0.929 . S
C1478 C1470 1.378 . S
C1478 C1473 1.350 . S
C1479 H1466 0.929 . S
C1479 C1471 1.433 . S
C1479 N1481 1.384 . S
N1480 C1476 1.427 . S
N1480 C1477 1.384 . S
N1481 C1473 1.427 . S
N1481 C1479 1.384 . S
H1482 C1488 0.930 . S
H1483 C1492 0.930 . S
H1484 C1497 0.929 . S
H1485 C1495 0.929 . S
H1486 C1490 0.929 . S
H1487 C1496 0.929 . S
C1488 H1482 0.930 . S
C1488 C1489 1.367 . S
C1488 C1496 1.378 . S
C1489 C1488 1.367 . S
C1489 C1497 1.433 . S
C1490 H1486 0.929 . S
C1490 C1492 1.378 . S
C1490 C1494 1.350 . S
C1491 C1494 1.463 . S
C1491 C1496 1.350 . S
C1491 N1499 1.427 . S
C1492 H1483 0.930 . S
C1492 C1490 1.378 . S
C1492 C1493 1.367 . S
C1493 C1492 1.367 . S
C1493 C1495 1.433 . S
C1494 C1490 1.350 . S
C1494 C1491 1.463 . S
C1494 N1498 1.427 . S
C1495 H1485 0.929 . S
C1495 C1493 1.433 . S
C1495 N1498 1.384 . S
C1496 H1487 0.929 . S
C1496 C1488 1.378 . S
C1496 C1491 1.350 . S
C1497 H1484 0.929 . S
C1497 C1489 1.433 . S
C1497 N1499 1.384 . S
N1498 C1494 1.427 . S
N1498 C1495 1.384 . S
N1499 C1491 1.427 . S
N1499 C1497 1.384 . S
H1500 C1506 0.930 . S
H1501 C1510 0.930 . S
H1502 C1515 0.929 . S
H1503 C1513 0.929 . S
H1504 C1508 0.929 . S
H1505 C1514 0.929 . S
C1506 H1500 0.930 . S
C1506 C1507 1.367 . S
C1506 C1514 1.378 . S
C1507 C1506 1.367 . S
C1507 C1515 1.433 . S
C1508 H1504 0.929 . S
C1508 C1510 1.378 . S
C1508 C1512 1.350 . S
C1509 C1512 1.463 . S
C1509 C1514 1.350 . S
C1509 N1517 1.427 . S
C1510 H1501 0.930 . S
C1510 C1508 1.378 . S
C1510 C1511 1.367 . S
C1511 C1510 1.367 . S
C1511 C1513 1.433 . S
C1512 C1508 1.350 . S
C1512 C1509 1.463 . S
C1512 N1516 1.427 . S
C1513 H1503 0.929 . S
C1513 C1511 1.433 . S
C1513 N1516 1.384 . S
C1514 H1505 0.929 . S
C1514 C1506 1.378 . S
C1514 C1509 1.350 . S
C1515 H1502 0.929 . S
C1515 C1507 1.433 . S
C1515 N1517 1.384 . S
N1516 C1512 1.427 . S
N1516 C1513 1.384 . S
N1517 C1509 1.427 . S
N1517 C1515 1.384 . S
H1518 C1524 0.930 . S
H1519 C1528 0.930 . S
H1520 C1533 0.929 . S
H1521 C1531 0.929 . S
H1522 C1526 0.929 . S
H1523 C1532 0.929 . S
C1524 H1518 0.930 . S
C1524 C1525 1.367 . S
C1524 C1532 1.378 . S
C1525 C1524 1.367 . S
C1525 C1533 1.433 . S
C1526 H1522 0.929 . S
C1526 C1528 1.378 . S
C1526 C1530 1.350 . S
C1527 C1530 1.463 . S
C1527 C1532 1.350 . S
C1527 N1535 1.427 . S
C1528 H1519 0.930 . S
C1528 C1526 1.378 . S
C1528 C1529 1.367 . S
C1529 C1528 1.367 . S
C1529 C1531 1.433 . S
C1530 C1526 1.350 . S
C1530 C1527 1.463 . S
C1530 N1534 1.427 . S
C1531 H1521 0.929 . S
C1531 C1529 1.433 . S
C1531 N1534 1.384 . S
C1532 H1523 0.929 . S
C1532 C1524 1.378 . S
C1532 C1527 1.350 . S
C1533 H1520 0.929 . S
C1533 C1525 1.433 . S
C1533 N1535 1.384 . S
N1534 C1530 1.427 . S
N1534 C1531 1.384 . S
N1535 C1527 1.427 . S
N1535 C1533 1.384 . S
H1536 C1542 0.930 . S
H1537 C1546 0.930 . S
H1538 C1551 0.929 . S
H1539 C1549 0.929 . S
H1540 C1544 0.929 . S
H1541 C1550 0.929 . S
C1542 H1536 0.930 . S
C1542 C1543 1.367 . S
C1542 C1550 1.378 . S
C1543 C1542 1.367 . S
C1543 C1551 1.433 . S
C1544 H1540 0.929 . S
C1544 C1546 1.378 . S
C1544 C1548 1.350 . S
C1545 C1548 1.463 . S
C1545 C1550 1.350 . S
C1545 N1553 1.427 . S
C1546 H1537 0.930 . S
C1546 C1544 1.378 . S
C1546 C1547 1.367 . S
C1547 C1546 1.367 . S
C1547 C1549 1.433 . S
C1548 C1544 1.350 . S
C1548 C1545 1.463 . S
C1548 N1552 1.427 . S
C1549 H1539 0.929 . S
C1549 C1547 1.433 . S
C1549 N1552 1.384 . S
C1550 H1541 0.929 . S
C1550 C1542 1.378 . S
C1550 C1545 1.350 . S
C1551 H1538 0.929 . S
C1551 C1543 1.433 . S
C1551 N1553 1.384 . S
N1552 C1548 1.427 . S
N1552 C1549 1.384 . S
N1553 C1545 1.427 . S
N1553 C1551 1.384 . S
H1554 C1560 0.930 . S
H1555 C1564 0.930 . S
H1556 C1569 0.929 . S
H1557 C1567 0.929 . S
H1558 C1562 0.929 . S
H1559 C1568 0.929 . S
C1560 H1554 0.930 . S
C1560 C1561 1.367 . S
C1560 C1568 1.378 . S
C1561 C1560 1.367 . S
C1561 C1569 1.433 . S
C1562 H1558 0.929 . S
C1562 C1564 1.378 . S
C1562 C1566 1.350 . S
C1563 C1566 1.463 . S
C1563 C1568 1.350 . S
C1563 N1571 1.427 . S
C1564 H1555 0.930 . S
C1564 C1562 1.378 . S
C1564 C1565 1.367 . S
C1565 C1564 1.367 . S
C1565 C1567 1.433 . S
C1566 C1562 1.350 . S
C1566 C1563 1.463 . S
C1566 N1570 1.427 . S
C1567 H1557 0.929 . S
C1567 C1565 1.433 . S
C1567 N1570 1.384 . S
C1568 H1559 0.929 . S
C1568 C1560 1.378 . S
C1568 C1563 1.350 . S
C1569 H1556 0.929 . S
C1569 C1561 1.433 . S
C1569 N1571 1.384 . S
N1570 C1566 1.427 . S
N1570 C1567 1.384 . S
N1571 C1563 1.427 . S
N1571 C1569 1.384 . S
H1572 C1578 0.930 . S
H1573 C1582 0.930 . S
H1574 C1587 0.929 . S
H1575 C1585 0.929 . S
H1576 C1580 0.929 . S
H1577 C1586 0.929 . S
C1578 H1572 0.930 . S
C1578 C1579 1.367 . S
C1578 C1586 1.378 . S
C1579 C1578 1.367 . S
C1579 C1587 1.433 . S
C1580 H1576 0.929 . S
C1580 C1582 1.378 . S
C1580 C1584 1.350 . S
C1581 C1584 1.463 . S
C1581 C1586 1.350 . S
C1581 N1589 1.427 . S
C1582 H1573 0.930 . S
C1582 C1580 1.378 . S
C1582 C1583 1.367 . S
C1583 C1582 1.367 . S
C1583 C1585 1.433 . S
C1584 C1580 1.350 . S
C1584 C1581 1.463 . S
C1584 N1588 1.427 . S
C1585 H1575 0.929 . S
C1585 C1583 1.433 . S
C1585 N1588 1.384 . S
C1586 H1577 0.929 . S
C1586 C1578 1.378 . S
C1586 C1581 1.350 . S
C1587 H1574 0.929 . S
C1587 C1579 1.433 . S
C1587 N1589 1.384 . S
N1588 C1584 1.427 . S
N1588 C1585 1.384 . S
N1589 C1581 1.427 . S
N1589 C1587 1.384 . S
H1590 C1596 0.930 . S
H1591 C1600 0.930 . S
H1592 C1605 0.929 . S
H1593 C1603 0.929 . S
H1594 C1598 0.929 . S
H1595 C1604 0.929 . S
C1596 H1590 0.930 . S
C1596 C1597 1.367 . S
C1596 C1604 1.378 . S
C1597 C1596 1.367 . S
C1597 C1605 1.433 . S
C1598 H1594 0.929 . S
C1598 C1600 1.378 . S
C1598 C1602 1.350 . S
C1599 C1602 1.463 . S
C1599 C1604 1.350 . S
C1599 N1607 1.427 . S
C1600 H1591 0.930 . S
C1600 C1598 1.378 . S
C1600 C1601 1.367 . S
C1601 C1600 1.367 . S
C1601 C1603 1.433 . S
C1602 C1598 1.350 . S
C1602 C1599 1.463 . S
C1602 N1606 1.427 . S
C1603 H1593 0.929 . S
C1603 C1601 1.433 . S
C1603 N1606 1.384 . S
C1604 H1595 0.929 . S
C1604 C1596 1.378 . S
C1604 C1599 1.350 . S
C1605 H1592 0.929 . S
C1605 C1597 1.433 . S
C1605 N1607 1.384 . S
N1606 C1602 1.427 . S
N1606 C1603 1.384 . S
N1607 C1599 1.427 . S
N1607 C1605 1.384 . S
H1608 C1614 0.930 . S
H1609 C1618 0.930 . S
H1610 C1623 0.929 . S
H1611 C1621 0.929 . S
H1612 C1616 0.929 . S
H1613 C1622 0.929 . S
C1614 H1608 0.930 . S
C1614 C1615 1.367 . S
C1614 C1622 1.378 . S
C1615 C1614 1.367 . S
C1615 C1623 1.433 . S
C1616 H1612 0.929 . S
C1616 C1618 1.378 . S
C1616 C1620 1.350 . S
C1617 C1620 1.463 . S
C1617 C1622 1.350 . S
C1617 N1625 1.427 . S
C1618 H1609 0.930 . S
C1618 C1616 1.378 . S
C1618 C1619 1.367 . S
C1619 C1618 1.367 . S
C1619 C1621 1.433 . S
C1620 C1616 1.350 . S
C1620 C1617 1.463 . S
C1620 N1624 1.427 . S
C1621 H1611 0.929 . S
C1621 C1619 1.433 . S
C1621 N1624 1.384 . S
C1622 H1613 0.929 . S
C1622 C1614 1.378 . S
C1622 C1617 1.350 . S
C1623 H1610 0.929 . S
C1623 C1615 1.433 . S
C1623 N1625 1.384 . S
N1624 C1620 1.427 . S
N1624 C1621 1.384 . S
N1625 C1617 1.427 . S
N1625 C1623 1.384 . S
H1626 C1632 0.930 . S
H1627 C1636 0.930 . S
H1628 C1641 0.929 . S
H1629 C1639 0.929 . S
H1630 C1634 0.929 . S
H1631 C1640 0.929 . S
C1632 H1626 0.930 . S
C1632 C1633 1.367 . S
C1632 C1640 1.378 . S
C1633 C1632 1.367 . S
C1633 C1641 1.433 . S
C1634 H1630 0.929 . S
C1634 C1636 1.378 . S
C1634 C1638 1.350 . S
C1635 C1638 1.463 . S
C1635 C1640 1.350 . S
C1635 N1643 1.427 . S
C1636 H1627 0.930 . S
C1636 C1634 1.378 . S
C1636 C1637 1.367 . S
C1637 C1636 1.367 . S
C1637 C1639 1.433 . S
C1638 C1634 1.350 . S
C1638 C1635 1.463 . S
C1638 N1642 1.427 . S
C1639 H1629 0.929 . S
C1639 C1637 1.433 . S
C1639 N1642 1.384 . S
C1640 H1631 0.929 . S
C1640 C1632 1.378 . S
C1640 C1635 1.350 . S
C1641 H1628 0.929 . S
C1641 C1633 1.433 . S
C1641 N1643 1.384 . S
N1642 C1638 1.427 . S
N1642 C1639 1.384 . S
N1643 C1635 1.427 . S
N1643 C1641 1.384 . S
H1644 C1650 0.930 . S
H1645 C1654 0.930 . S
H1646 C1659 0.929 . S
H1647 C1657 0.929 . S
H1648 C1652 0.929 . S
H1649 C1658 0.929 . S
C1650 H1644 0.930 . S
C1650 C1651 1.367 . S
C1650 C1658 1.378 . S
C1651 C1650 1.367 . S
C1651 C1659 1.433 . S
C1652 H1648 0.929 . S
C1652 C1654 1.378 . S
C1652 C1656 1.350 . S
C1653 C1656 1.463 . S
C1653 C1658 1.350 . S
C1653 N1661 1.427 . S
C1654 H1645 0.930 . S
C1654 C1652 1.378 . S
C1654 C1655 1.367 . S
C1655 C1654 1.367 . S
C1655 C1657 1.433 . S
C1656 C1652 1.350 . S
C1656 C1653 1.463 . S
C1656 N1660 1.427 . S
C1657 H1647 0.929 . S
C1657 C1655 1.433 . S
C1657 N1660 1.384 . S
C1658 H1649 0.929 . S
C1658 C1650 1.378 . S
C1658 C1653 1.350 . S
C1659 H1646 0.929 . S
C1659 C1651 1.433 . S
C1659 N1661 1.384 . S
N1660 C1656 1.427 . S
N1660 C1657 1.384 . S
N1661 C1653 1.427 . S
N1661 C1659 1.384 . S
H1662 C1668 0.930 . S
H1663 C1672 0.930 . S
H1664 C1677 0.929 . S
H1665 C1675 0.929 . S
H1666 C1670 0.929 . S
H1667 C1676 0.929 . S
C1668 H1662 0.930 . S
C1668 C1669 1.367 . S
C1668 C1676 1.378 . S
C1669 C1668 1.367 . S
C1669 C1677 1.433 . S
C1670 H1666 0.929 . S
C1670 C1672 1.378 . S
C1670 C1674 1.350 . S
C1671 C1674 1.463 . S
C1671 C1676 1.350 . S
C1671 N1679 1.427 . S
C1672 H1663 0.930 . S
C1672 C1670 1.378 . S
C1672 C1673 1.367 . S
C1673 C1672 1.367 . S
C1673 C1675 1.433 . S
C1674 C1670 1.350 . S
C1674 C1671 1.463 . S
C1674 N1678 1.427 . S
C1675 H1665 0.929 . S
C1675 C1673 1.433 . S
C1675 N1678 1.384 . S
C1676 H1667 0.929 . S
C1676 C1668 1.378 . S
C1676 C1671 1.350 . S
C1677 H1664 0.929 . S
C1677 C1669 1.433 . S
C1677 N1679 1.384 . S
N1678 C1674 1.427 . S
N1678 C1675 1.384 . S
N1679 C1671 1.427 . S
N1679 C1677 1.384 . S
H1680 C1686 0.930 . S
H1681 C1690 0.930 . S
H1682 C1695 0.929 . S
H1683 C1693 0.929 . S
H1684 C1688 0.929 . S
H1685 C1694 0.929 . S
C1686 H1680 0.930 . S
C1686 C1687 1.367 . S
C1686 C1694 1.378 . S
C1687 C1686 1.367 . S
C1687 C1695 1.433 . S
C1688 H1684 0.929 . S
C1688 C1690 1.378 . S
C1688 C1692 1.350 . S
C1689 C1692 1.463 . S
C1689 C1694 1.350 . S
C1689 N1697 1.427 . S
C1690 H1681 0.930 . S
C1690 C1688 1.378 . S
C1690 C1691 1.367 . S
C1691 C1690 1.367 . S
C1691 C1693 1.433 . S
C1692 C1688 1.350 . S
C1692 C1689 1.463 . S
C1692 N1696 1.427 . S
C1693 H1683 0.929 . S
C1693 C1691 1.433 . S
C1693 N1696 1.384 . S
C1694 H1685 0.929 . S
C1694 C1686 1.378 . S
C1694 C1689 1.350 . S
C1695 H1682 0.929 . S
C1695 C1687 1.433 . S
C1695 N1697 1.384 . S
N1696 C1692 1.427 . S
N1696 C1693 1.384 . S
N1697 C1689 1.427 . S
N1697 C1695 1.384 . S
H1698 C1704 0.930 . S
H1699 C1708 0.930 . S
H1700 C1713 0.929 . S
H1701 C1711 0.929 . S
H1702 C1706 0.929 . S
H1703 C1712 0.929 . S
C1704 H1698 0.930 . S
C1704 C1705 1.367 . S
C1704 C1712 1.378 . S
C1705 C1704 1.367 . S
C1705 C1713 1.433 . S
C1706 H1702 0.929 . S
C1706 C1708 1.378 . S
C1706 C1710 1.350 . S
C1707 C1710 1.463 . S
C1707 C1712 1.350 . S
C1707 N1715 1.427 . S
C1708 H1699 0.930 . S
C1708 C1706 1.378 . S
C1708 C1709 1.367 . S
C1709 C1708 1.367 . S
C1709 C1711 1.433 . S
C1710 C1706 1.350 . S
C1710 C1707 1.463 . S
C1710 N1714 1.427 . S
C1711 H1701 0.929 . S
C1711 C1709 1.433 . S
C1711 N1714 1.384 . S
C1712 H1703 0.929 . S
C1712 C1704 1.378 . S
C1712 C1707 1.350 . S
C1713 H1700 0.929 . S
C1713 C1705 1.433 . S
C1713 N1715 1.384 . S
N1714 C1710 1.427 . S
N1714 C1711 1.384 . S
N1715 C1707 1.427 . S
N1715 C1713 1.384 . S
H1716 C1722 0.930 . S
H1717 C1726 0.930 . S
H1718 C1731 0.929 . S
H1719 C1729 0.929 . S
H1720 C1724 0.929 . S
H1721 C1730 0.929 . S
C1722 H1716 0.930 . S
C1722 C1723 1.367 . S
C1722 C1730 1.378 . S
C1723 C1722 1.367 . S
C1723 C1731 1.433 . S
C1724 H1720 0.929 . S
C1724 C1726 1.378 . S
C1724 C1728 1.350 . S
C1725 C1728 1.463 . S
C1725 C1730 1.350 . S
C1725 N1733 1.427 . S
C1726 H1717 0.930 . S
C1726 C1724 1.378 . S
C1726 C1727 1.367 . S
C1727 C1726 1.367 . S
C1727 C1729 1.433 . S
C1728 C1724 1.350 . S
C1728 C1725 1.463 . S
C1728 N1732 1.427 . S
C1729 H1719 0.929 . S
C1729 C1727 1.433 . S
C1729 N1732 1.384 . S
C1730 H1721 0.929 . S
C1730 C1722 1.378 . S
C1730 C1725 1.350 . S
C1731 H1718 0.929 . S
C1731 C1723 1.433 . S
C1731 N1733 1.384 . S
N1732 C1728 1.427 . S
N1732 C1729 1.384 . S
N1733 C1725 1.427 . S
N1733 C1731 1.384 . S
H1734 C1740 0.930 . S
H1735 C1744 0.930 . S
H1736 C1749 0.929 . S
H1737 C1747 0.929 . S
H1738 C1742 0.929 . S
H1739 C1748 0.929 . S
C1740 H1734 0.930 . S
C1740 C1741 1.367 . S
C1740 C1748 1.378 . S
C1741 C1740 1.367 . S
C1741 C1749 1.433 . S
C1742 H1738 0.929 . S
C1742 C1744 1.378 . S
C1742 C1746 1.350 . S
C1743 C1746 1.463 . S
C1743 C1748 1.350 . S
C1743 N1751 1.427 . S
C1744 H1735 0.930 . S
C1744 C1742 1.378 . S
C1744 C1745 1.367 . S
C1745 C1744 1.367 . S
C1745 C1747 1.433 . S
C1746 C1742 1.350 . S
C1746 C1743 1.463 . S
C1746 N1750 1.427 . S
C1747 H1737 0.929 . S
C1747 C1745 1.433 . S
C1747 N1750 1.384 . S
C1748 H1739 0.929 . S
C1748 C1740 1.378 . S
C1748 C1743 1.350 . S
C1749 H1736 0.929 . S
C1749 C1741 1.433 . S
C1749 N1751 1.384 . S
N1750 C1746 1.427 . S
N1750 C1747 1.384 . S
N1751 C1743 1.427 . S
N1751 C1749 1.384 . S
H1752 C1758 0.930 . S
H1753 C1762 0.930 . S
H1754 C1767 0.929 . S
H1755 C1765 0.929 . S
H1756 C1760 0.929 . S
H1757 C1766 0.929 . S
C1758 H1752 0.930 . S
C1758 C1759 1.367 . S
C1758 C1766 1.378 . S
C1759 C1758 1.367 . S
C1759 C1767 1.433 . S
C1760 H1756 0.929 . S
C1760 C1762 1.378 . S
C1760 C1764 1.350 . S
C1761 C1764 1.463 . S
C1761 C1766 1.350 . S
C1761 N1769 1.427 . S
C1762 H1753 0.930 . S
C1762 C1760 1.378 . S
C1762 C1763 1.367 . S
C1763 C1762 1.367 . S
C1763 C1765 1.433 . S
C1764 C1760 1.350 . S
C1764 C1761 1.463 . S
C1764 N1768 1.427 . S
C1765 H1755 0.929 . S
C1765 C1763 1.433 . S
C1765 N1768 1.384 . S
C1766 H1757 0.929 . S
C1766 C1758 1.378 . S
C1766 C1761 1.350 . S
C1767 H1754 0.929 . S
C1767 C1759 1.433 . S
C1767 N1769 1.384 . S
N1768 C1764 1.427 . S
N1768 C1765 1.384 . S
N1769 C1761 1.427 . S
N1769 C1767 1.384 . S
H1770 C1776 0.930 . S
H1771 C1780 0.930 . S
H1772 C1785 0.929 . S
H1773 C1783 0.929 . S
H1774 C1778 0.929 . S
H1775 C1784 0.929 . S
C1776 H1770 0.930 . S
C1776 C1777 1.367 . S
C1776 C1784 1.378 . S
C1777 C1776 1.367 . S
C1777 C1785 1.433 . S
C1778 H1774 0.929 . S
C1778 C1780 1.378 . S
C1778 C1782 1.350 . S
C1779 C1782 1.463 . S
C1779 C1784 1.350 . S
C1779 N1787 1.427 . S
C1780 H1771 0.930 . S
C1780 C1778 1.378 . S
C1780 C1781 1.367 . S
C1781 C1780 1.367 . S
C1781 C1783 1.433 . S
C1782 C1778 1.350 . S
C1782 C1779 1.463 . S
C1782 N1786 1.427 . S
C1783 H1773 0.929 . S
C1783 C1781 1.433 . S
C1783 N1786 1.384 . S
C1784 H1775 0.929 . S
C1784 C1776 1.378 . S
C1784 C1779 1.350 . S
C1785 H1772 0.929 . S
C1785 C1777 1.433 . S
C1785 N1787 1.384 . S
N1786 C1782 1.427 . S
N1786 C1783 1.384 . S
N1787 C1779 1.427 . S
N1787 C1785 1.384 . S
H1788 C1794 0.930 . S
H1789 C1798 0.930 . S
H1790 C1803 0.929 . S
H1791 C1801 0.929 . S
H1792 C1796 0.929 . S
H1793 C1802 0.929 . S
C1794 H1788 0.930 . S
C1794 C1795 1.367 . S
C1794 C1802 1.378 . S
C1795 C1794 1.367 . S
C1795 C1803 1.433 . S
C1796 H1792 0.929 . S
C1796 C1798 1.378 . S
C1796 C1800 1.350 . S
C1797 C1800 1.463 . S
C1797 C1802 1.350 . S
C1797 N1805 1.427 . S
C1798 H1789 0.930 . S
C1798 C1796 1.378 . S
C1798 C1799 1.367 . S
C1799 C1798 1.367 . S
C1799 C1801 1.433 . S
C1800 C1796 1.350 . S
C1800 C1797 1.463 . S
C1800 N1804 1.427 . S
C1801 H1791 0.929 . S
C1801 C1799 1.433 . S
C1801 N1804 1.384 . S
C1802 H1793 0.929 . S
C1802 C1794 1.378 . S
C1802 C1797 1.350 . S
C1803 H1790 0.929 . S
C1803 C1795 1.433 . S
C1803 N1805 1.384 . S
N1804 C1800 1.427 . S
N1804 C1801 1.384 . S
N1805 C1797 1.427 . S
N1805 C1803 1.384 . S
H1806 C1812 0.930 . S
H1807 C1816 0.930 . S
H1808 C1821 0.929 . S
H1809 C1819 0.929 . S
H1810 C1814 0.929 . S
H1811 C1820 0.929 . S
C1812 H1806 0.930 . S
C1812 C1813 1.367 . S
C1812 C1820 1.378 . S
C1813 C1812 1.367 . S
C1813 C1821 1.433 . S
C1814 H1810 0.929 . S
C1814 C1816 1.378 . S
C1814 C1818 1.350 . S
C1815 C1818 1.463 . S
C1815 C1820 1.350 . S
C1815 N1823 1.427 . S
C1816 H1807 0.930 . S
C1816 C1814 1.378 . S
C1816 C1817 1.367 . S
C1817 C1816 1.367 . S
C1817 C1819 1.433 . S
C1818 C1814 1.350 . S
C1818 C1815 1.463 . S
C1818 N1822 1.427 . S
C1819 H1809 0.929 . S
C1819 C1817 1.433 . S
C1819 N1822 1.384 . S
C1820 H1811 0.929 . S
C1820 C1812 1.378 . S
C1820 C1815 1.350 . S
C1821 H1808 0.929 . S
C1821 C1813 1.433 . S
C1821 N1823 1.384 . S
N1822 C1818 1.427 . S
N1822 C1819 1.384 . S
N1823 C1815 1.427 . S
N1823 C1821 1.384 . S
H1824 C1830 0.930 . S
H1825 C1834 0.930 . S
H1826 C1839 0.929 . S
H1827 C1837 0.929 . S
H1828 C1832 0.929 1_455 S
H1829 C1838 0.929 . S
C1830 H1824 0.930 . S
C1830 C1831 1.367 1_655 S
C1830 C1838 1.378 . S
C1831 C1830 1.367 1_455 S
C1831 C1839 1.433 . S
C1832 H1828 0.929 1_655 S
C1832 C1834 1.378 . S
C1832 C1836 1.350 . S
C1833 C1836 1.463 . S
C1833 C1838 1.350 . S
C1833 N1841 1.427 1_655 S
C1834 H1825 0.930 . S
C1834 C1832 1.378 . S
C1834 C1835 1.367 . S
C1835 C1834 1.367 . S
C1835 C1837 1.433 . S
C1836 C1832 1.350 . S
C1836 C1833 1.463 . S
C1836 N1840 1.427 . S
C1837 H1827 0.929 . S
C1837 C1835 1.433 . S
C1837 N1840 1.384 . S
C1838 H1829 0.929 . S
C1838 C1830 1.378 . S
C1838 C1833 1.350 . S
C1839 H1826 0.929 . S
C1839 C1831 1.433 . S
C1839 N1841 1.384 . S
N1840 C1836 1.427 . S
N1840 C1837 1.384 . S
N1841 C1833 1.427 1_455 S
N1841 C1839 1.384 . S
H1842 C1848 0.930 . S
H1843 C1852 0.930 . S
H1844 C1857 0.929 . S
H1845 C1855 0.929 . S
H1846 C1850 0.929 . S
H1847 C1856 0.929 . S
C1848 H1842 0.930 . S
C1848 C1849 1.367 . S
C1848 C1856 1.378 . S
C1849 C1848 1.367 . S
C1849 C1857 1.433 . S
C1850 H1846 0.929 . S
C1850 C1852 1.378 . S
C1850 C1854 1.350 . S
C1851 C1854 1.463 . S
C1851 C1856 1.350 . S
C1851 N1859 1.427 . S
C1852 H1843 0.930 . S
C1852 C1850 1.378 . S
C1852 C1853 1.367 . S
C1853 C1852 1.367 . S
C1853 C1855 1.433 . S
C1854 C1850 1.350 . S
C1854 C1851 1.463 . S
C1854 N1858 1.427 . S
C1855 H1845 0.929 . S
C1855 C1853 1.433 . S
C1855 N1858 1.384 . S
C1856 H1847 0.929 . S
C1856 C1848 1.378 . S
C1856 C1851 1.350 . S
C1857 H1844 0.929 . S
C1857 C1849 1.433 . S
C1857 N1859 1.384 . S
N1858 C1854 1.427 . S
N1858 C1855 1.384 . S
N1859 C1851 1.427 . S
N1859 C1857 1.384 . S
H1860 C1866 0.930 . S
H1861 C1870 0.930 . S
H1862 C1875 0.929 . S
H1863 C1873 0.929 . S
H1864 C1868 0.929 . S
H1865 C1874 0.929 . S
C1866 H1860 0.930 . S
C1866 C1867 1.367 . S
C1866 C1874 1.378 . S
C1867 C1866 1.367 . S
C1867 C1875 1.433 . S
C1868 H1864 0.929 . S
C1868 C1870 1.378 . S
C1868 C1872 1.350 . S
C1869 C1872 1.463 . S
C1869 C1874 1.350 . S
C1869 N1877 1.427 . S
C1870 H1861 0.930 . S
C1870 C1868 1.378 . S
C1870 C1871 1.367 . S
C1871 C1870 1.367 . S
C1871 C1873 1.433 . S
C1872 C1868 1.350 . S
C1872 C1869 1.463 . S
C1872 N1876 1.427 . S
C1873 H1863 0.929 . S
C1873 C1871 1.433 . S
C1873 N1876 1.384 . S
C1874 H1865 0.929 . S
C1874 C1866 1.378 . S
C1874 C1869 1.350 . S
C1875 H1862 0.929 . S
C1875 C1867 1.433 . S
C1875 N1877 1.384 . S
N1876 C1872 1.427 . S
N1876 C1873 1.384 . S
N1877 C1869 1.427 . S
N1877 C1875 1.384 . S
H1878 C1884 0.930 . S
H1879 C1888 0.931 . S
H1880 C1893 0.929 . S
H1881 C1891 0.929 . S
H1882 C1886 0.929 . S
H1883 C1892 0.929 . S
C1884 H1878 0.930 . S
C1884 C1885 1.367 . S
C1884 C1892 1.378 . S
C1885 C1884 1.367 . S
C1885 C1893 1.433 . S
C1886 H1882 0.929 . S
C1886 C1888 1.390 . S
C1886 C1890 1.350 . S
C1887 C1890 1.463 . S
C1887 C1892 1.350 . S
C1887 N1895 1.427 . S
C1888 H1879 0.931 . S
C1888 C1886 1.390 . S
C1888 C1889 1.357 1_455 S
C1889 C1888 1.357 1_655 S
C1889 C1891 1.433 . S
C1890 C1886 1.350 . S
C1890 C1887 1.463 . S
C1890 N1894 1.418 1_455 S
C1891 H1881 0.929 . S
C1891 C1889 1.433 . S
C1891 N1894 1.394 . S
C1892 H1883 0.929 . S
C1892 C1884 1.378 . S
C1892 C1887 1.350 . S
C1893 H1880 0.929 . S
C1893 C1885 1.433 . S
C1893 N1895 1.384 . S
N1894 C1890 1.418 1_655 S
N1894 C1891 1.394 . S
N1895 C1887 1.427 . S
N1895 C1893 1.384 . S
H1896 C1902 0.930 . S
H1897 C1906 0.930 . S
H1898 C1911 0.929 . S
H1899 C1909 0.929 . S
H1900 C1904 0.929 . S
H1901 C1910 0.929 . S
C1902 H1896 0.930 . S
C1902 C1903 1.367 . S
C1902 C1910 1.378 . S
C1903 C1902 1.367 . S
C1903 C1911 1.433 . S
C1904 H1900 0.929 . S
C1904 C1906 1.378 . S
C1904 C1908 1.350 . S
C1905 C1908 1.463 . S
C1905 C1910 1.350 . S
C1905 N1913 1.427 . S
C1906 H1897 0.930 . S
C1906 C1904 1.378 . S
C1906 C1907 1.367 . S
C1907 C1906 1.367 . S
C1907 C1909 1.433 . S
C1908 C1904 1.350 . S
C1908 C1905 1.463 . S
C1908 N1912 1.427 . S
C1909 H1899 0.929 . S
C1909 C1907 1.433 . S
C1909 N1912 1.384 . S
C1910 H1901 0.929 . S
C1910 C1902 1.378 . S
C1910 C1905 1.350 . S
C1911 H1898 0.929 . S
C1911 C1903 1.433 . S
C1911 N1913 1.384 . S
N1912 C1908 1.427 . S
N1912 C1909 1.384 . S
N1913 C1905 1.427 . S
N1913 C1911 1.384 . S
H1914 C1920 0.930 . S
H1915 C1924 0.930 . S
H1916 C1929 0.929 . S
H1917 C1927 0.929 . S
H1918 C1922 0.929 . S
H1919 C1928 0.929 . S
C1920 H1914 0.930 . S
C1920 C1921 1.367 . S
C1920 C1928 1.378 . S
C1921 C1920 1.367 . S
C1921 C1929 1.433 . S
C1922 H1918 0.929 . S
C1922 C1924 1.378 . S
C1922 C1926 1.350 . S
C1923 C1926 1.463 . S
C1923 C1928 1.350 . S
C1923 N1931 1.427 . S
C1924 H1915 0.930 . S
C1924 C1922 1.378 . S
C1924 C1925 1.367 . S
C1925 C1924 1.367 . S
C1925 C1927 1.433 . S
C1926 C1922 1.350 . S
C1926 C1923 1.463 . S
C1926 N1930 1.427 . S
C1927 H1917 0.929 . S
C1927 C1925 1.433 . S
C1927 N1930 1.384 . S
C1928 H1919 0.929 . S
C1928 C1920 1.378 . S
C1928 C1923 1.350 . S
C1929 H1916 0.929 . S
C1929 C1921 1.433 . S
C1929 N1931 1.384 . S
N1930 C1926 1.427 . S
N1930 C1927 1.384 . S
N1931 C1923 1.427 . S
N1931 C1929 1.384 . S
H1932 C1938 0.930 . S
H1933 C1942 0.930 . S
H1934 C1947 0.929 . S
H1935 C1945 0.929 . S
H1936 C1940 0.929 . S
H1937 C1946 0.929 . S
C1938 H1932 0.930 . S
C1938 C1939 1.367 . S
C1938 C1946 1.378 . S
C1939 C1938 1.367 . S
C1939 C1947 1.433 . S
C1940 H1936 0.929 . S
C1940 C1942 1.378 . S
C1940 C1944 1.350 . S
C1941 C1944 1.463 . S
C1941 C1946 1.350 . S
C1941 N1949 1.427 . S
C1942 H1933 0.930 . S
C1942 C1940 1.378 . S
C1942 C1943 1.367 . S
C1943 C1942 1.367 . S
C1943 C1945 1.433 . S
C1944 C1940 1.350 . S
C1944 C1941 1.463 . S
C1944 N1948 1.427 . S
C1945 H1935 0.929 . S
C1945 C1943 1.433 . S
C1945 N1948 1.384 . S
C1946 H1937 0.929 . S
C1946 C1938 1.378 . S
C1946 C1941 1.350 . S
C1947 H1934 0.929 . S
C1947 C1939 1.433 . S
C1947 N1949 1.384 . S
N1948 C1944 1.427 . S
N1948 C1945 1.384 . S
N1949 C1941 1.427 . S
N1949 C1947 1.384 . S
H1950 C1956 0.930 . S
H1951 C1960 0.930 . S
H1952 C1965 0.929 . S
H1953 C1963 0.929 . S
H1954 C1958 0.929 . S
H1955 C1964 0.929 . S
C1956 H1950 0.930 . S
C1956 C1957 1.367 . S
C1956 C1964 1.378 . S
C1957 C1956 1.367 . S
C1957 C1965 1.433 . S
C1958 H1954 0.929 . S
C1958 C1960 1.378 . S
C1958 C1962 1.350 . S
C1959 C1962 1.463 . S
C1959 C1964 1.350 . S
C1959 N1967 1.427 . S
C1960 H1951 0.930 . S
C1960 C1958 1.378 . S
C1960 C1961 1.367 . S
C1961 C1960 1.367 . S
C1961 C1963 1.433 . S
C1962 C1958 1.350 . S
C1962 C1959 1.463 . S
C1962 N1966 1.427 . S
C1963 H1953 0.929 . S
C1963 C1961 1.433 . S
C1963 N1966 1.384 . S
C1964 H1955 0.929 . S
C1964 C1956 1.378 . S
C1964 C1959 1.350 . S
C1965 H1952 0.929 . S
C1965 C1957 1.433 . S
C1965 N1967 1.384 . S
N1966 C1962 1.427 . S
N1966 C1963 1.384 . S
N1967 C1959 1.427 . S
N1967 C1965 1.384 . S
H1968 C1974 0.930 . S
H1969 C1978 0.930 . S
H1970 C1983 0.929 . S
H1971 C1981 0.929 . S
H1972 C1976 0.929 . S
H1973 C1982 0.929 . S
C1974 H1968 0.930 . S
C1974 C1975 1.367 . S
C1974 C1982 1.378 . S
C1975 C1974 1.367 . S
C1975 C1983 1.433 . S
C1976 H1972 0.929 . S
C1976 C1978 1.378 . S
C1976 C1980 1.350 . S
C1977 C1980 1.463 . S
C1977 C1982 1.350 . S
C1977 N1985 1.427 . S
C1978 H1969 0.930 . S
C1978 C1976 1.378 . S
C1978 C1979 1.367 . S
C1979 C1978 1.367 . S
C1979 C1981 1.433 . S
C1980 C1976 1.350 . S
C1980 C1977 1.463 . S
C1980 N1984 1.427 . S
C1981 H1971 0.929 . S
C1981 C1979 1.433 . S
C1981 N1984 1.384 . S
C1982 H1973 0.929 . S
C1982 C1974 1.378 . S
C1982 C1977 1.350 . S
C1983 H1970 0.929 . S
C1983 C1975 1.433 . S
C1983 N1985 1.384 . S
N1984 C1980 1.427 . S
N1984 C1981 1.384 . S
N1985 C1977 1.427 . S
N1985 C1983 1.384 . S
H1986 C1992 0.930 . S
H1987 C1996 0.930 . S
H1988 C2001 0.929 . S
H1989 C1999 0.929 . S
H1990 C1994 0.929 . S
H1991 C2000 0.929 . S
C1992 H1986 0.930 . S
C1992 C1993 1.367 . S
C1992 C2000 1.378 . S
C1993 C1992 1.367 . S
C1993 C2001 1.433 1_556 S
C1994 H1990 0.929 . S
C1994 C1996 1.378 . S
C1994 C1998 1.350 . S
C1995 C1998 1.463 . S
C1995 C2000 1.350 1_554 S
C1995 N2003 1.427 . S
C1996 H1987 0.930 . S
C1996 C1994 1.378 . S
C1996 C1997 1.367 . S
C1997 C1996 1.367 . S
C1997 C1999 1.433 . S
C1998 C1994 1.350 . S
C1998 C1995 1.463 . S
C1998 N2002 1.427 . S
C1999 H1989 0.929 . S
C1999 C1997 1.433 . S
C1999 N2002 1.384 . S
C2000 H1991 0.929 . S
C2000 C1992 1.378 . S
C2000 C1995 1.350 1_556 S
C2001 H1988 0.929 . S
C2001 C1993 1.433 1_554 S
C2001 N2003 1.384 . S
N2002 C1998 1.427 . S
N2002 C1999 1.384 . S
N2003 C1995 1.427 . S
N2003 C2001 1.384 . S
H2004 C2010 0.930 . S
H2005 C2014 0.930 . S
H2006 C2019 0.929 . S
H2007 C2017 0.929 . S
H2008 C2012 0.929 . S
H2009 C2018 0.929 . S
C2010 H2004 0.930 . S
C2010 C2011 1.367 . S
C2010 C2018 1.378 . S
C2011 C2010 1.367 . S
C2011 C2019 1.433 . S
C2012 H2008 0.929 . S
C2012 C2014 1.378 . S
C2012 C2016 1.350 . S
C2013 C2016 1.463 . S
C2013 C2018 1.350 . S
C2013 N2021 1.427 . S
C2014 H2005 0.930 . S
C2014 C2012 1.378 . S
C2014 C2015 1.367 . S
C2015 C2014 1.367 . S
C2015 C2017 1.433 . S
C2016 C2012 1.350 . S
C2016 C2013 1.463 . S
C2016 N2020 1.427 . S
C2017 H2007 0.929 . S
C2017 C2015 1.433 . S
C2017 N2020 1.384 . S
C2018 H2009 0.929 . S
C2018 C2010 1.378 . S
C2018 C2013 1.350 . S
C2019 H2006 0.929 . S
C2019 C2011 1.433 . S
C2019 N2021 1.384 . S
N2020 C2016 1.427 . S
N2020 C2017 1.384 . S
N2021 C2013 1.427 . S
N2021 C2019 1.384 . S
H2022 C2028 0.930 . S
H2023 C2032 0.930 . S
H2024 C2037 0.929 . S
H2025 C2035 0.929 . S
H2026 C2030 0.929 . S
H2027 C2036 0.929 . S
C2028 H2022 0.930 . S
C2028 C2029 1.367 . S
C2028 C2036 1.378 . S
C2029 C2028 1.367 . S
C2029 C2037 1.433 . S
C2030 H2026 0.929 . S
C2030 C2032 1.378 . S
C2030 C2034 1.350 . S
C2031 C2034 1.463 . S
C2031 C2036 1.350 . S
C2031 N2039 1.427 . S
C2032 H2023 0.930 . S
C2032 C2030 1.378 . S
C2032 C2033 1.367 . S
C2033 C2032 1.367 . S
C2033 C2035 1.433 . S
C2034 C2030 1.350 . S
C2034 C2031 1.463 . S
C2034 N2038 1.427 . S
C2035 H2025 0.929 . S
C2035 C2033 1.433 . S
C2035 N2038 1.384 . S
C2036 H2027 0.929 . S
C2036 C2028 1.378 . S
C2036 C2031 1.350 . S
C2037 H2024 0.929 . S
C2037 C2029 1.433 . S
C2037 N2039 1.384 . S
N2038 C2034 1.427 . S
N2038 C2035 1.384 . S
N2039 C2031 1.427 . S
N2039 C2037 1.384 . S
H2040 C2046 0.930 . S
H2041 C2050 0.930 . S
H2042 C2055 0.929 . S
H2043 C2053 0.929 . S
H2044 C2048 0.929 . S
H2045 C2054 0.929 . S
C2046 H2040 0.930 . S
C2046 C2047 1.367 . S
C2046 C2054 1.378 . S
C2047 C2046 1.367 . S
C2047 C2055 1.433 1_655 S
C2048 H2044 0.929 . S
C2048 C2050 1.378 . S
C2048 C2052 1.350 . S
C2049 C2052 1.463 . S
C2049 C2054 1.350 1_455 S
C2049 N2057 1.427 . S
C2050 H2041 0.930 . S
C2050 C2048 1.378 . S
C2050 C2051 1.367 . S
C2051 C2050 1.367 . S
C2051 C2053 1.433 . S
C2052 C2048 1.350 . S
C2052 C2049 1.463 . S
C2052 N2056 1.427 . S
C2053 H2043 0.929 . S
C2053 C2051 1.433 . S
C2053 N2056 1.384 . S
C2054 H2045 0.929 . S
C2054 C2046 1.378 . S
C2054 C2049 1.350 1_655 S
C2055 H2042 0.929 . S
C2055 C2047 1.433 1_455 S
C2055 N2057 1.384 . S
N2056 C2052 1.427 . S
N2056 C2053 1.384 . S
N2057 C2049 1.427 . S
N2057 C2055 1.384 . S
H2058 C2064 0.930 . S
H2059 C2068 0.930 . S
H2060 C2073 0.929 . S
H2061 C2071 0.929 . S
H2062 C2066 0.929 . S
H2063 C2072 0.929 . S
C2064 H2058 0.930 . S
C2064 C2065 1.367 . S
C2064 C2072 1.378 . S
C2065 C2064 1.367 . S
C2065 C2073 1.433 . S
C2066 H2062 0.929 . S
C2066 C2068 1.378 . S
C2066 C2070 1.350 . S
C2067 C2070 1.463 . S
C2067 C2072 1.350 . S
C2067 N2075 1.427 . S
C2068 H2059 0.930 . S
C2068 C2066 1.378 . S
C2068 C2069 1.367 . S
C2069 C2068 1.367 . S
C2069 C2071 1.433 . S
C2070 C2066 1.350 . S
C2070 C2067 1.463 . S
C2070 N2074 1.427 . S
C2071 H2061 0.929 . S
C2071 C2069 1.433 . S
C2071 N2074 1.384 . S
C2072 H2063 0.929 . S
C2072 C2064 1.378 . S
C2072 C2067 1.350 . S
C2073 H2060 0.929 . S
C2073 C2065 1.433 . S
C2073 N2075 1.384 . S
N2074 C2070 1.427 . S
N2074 C2071 1.384 . S
N2075 C2067 1.427 . S
N2075 C2073 1.384 . S
H2076 C2082 0.930 . S
H2077 C2086 0.930 . S
H2078 C2091 0.929 . S
H2079 C2089 0.929 . S
H2080 C2084 0.929 . S
H2081 C2090 0.929 . S
C2082 H2076 0.930 . S
C2082 C2083 1.367 . S
C2082 C2090 1.378 . S
C2083 C2082 1.367 . S
C2083 C2091 1.433 . S
C2084 H2080 0.929 . S
C2084 C2086 1.378 . S
C2084 C2088 1.350 . S
C2085 C2088 1.463 . S
C2085 C2090 1.350 . S
C2085 N2093 1.427 . S
C2086 H2077 0.930 . S
C2086 C2084 1.378 . S
C2086 C2087 1.367 . S
C2087 C2086 1.367 . S
C2087 C2089 1.433 . S
C2088 C2084 1.350 . S
C2088 C2085 1.463 . S
C2088 N2092 1.427 . S
C2089 H2079 0.929 . S
C2089 C2087 1.433 . S
C2089 N2092 1.384 . S
C2090 H2081 0.929 . S
C2090 C2082 1.378 . S
C2090 C2085 1.350 . S
C2091 H2078 0.929 . S
C2091 C2083 1.433 . S
C2091 N2093 1.384 . S
N2092 C2088 1.427 . S
N2092 C2089 1.384 . S
N2093 C2085 1.427 . S
N2093 C2091 1.384 . S
H2094 C2100 0.930 . S
H2095 C2104 0.930 . S
H2096 C2109 0.929 . S
H2097 C2107 0.929 . S
H2098 C2102 0.929 . S
H2099 C2108 0.929 1_455 S
C2100 H2094 0.930 . S
C2100 C2101 1.367 . S
C2100 C2108 1.378 . S
C2101 C2100 1.367 . S
C2101 C2109 1.433 . S
C2102 H2098 0.929 . S
C2102 C2104 1.378 . S
C2102 C2106 1.350 . S
C2103 C2106 1.463 . S
C2103 C2108 1.350 . S
C2103 N2111 1.427 . S
C2104 H2095 0.930 . S
C2104 C2102 1.378 . S
C2104 C2105 1.367 1_655 S
C2105 C2104 1.367 1_455 S
C2105 C2107 1.433 . S
C2106 C2102 1.350 . S
C2106 C2103 1.463 . S
C2106 N2110 1.427 1_655 S
C2107 H2097 0.929 . S
C2107 C2105 1.433 . S
C2107 N2110 1.384 . S
C2108 H2099 0.929 1_655 S
C2108 C2100 1.378 . S
C2108 C2103 1.350 . S
C2109 H2096 0.929 . S
C2109 C2101 1.433 . S
C2109 N2111 1.384 . S
N2110 C2106 1.427 1_455 S
N2110 C2107 1.384 . S
N2111 C2103 1.427 . S
N2111 C2109 1.384 . S
H2112 C2118 0.930 . S
H2113 C2122 0.930 . S
H2114 C2127 0.929 . S
H2115 C2125 0.929 . S
H2116 C2120 0.929 . S
H2117 C2126 0.929 . S
C2118 H2112 0.930 . S
C2118 C2119 1.367 . S
C2118 C2126 1.378 . S
C2119 C2118 1.367 . S
C2119 C2127 1.433 . S
C2120 H2116 0.929 . S
C2120 C2122 1.378 . S
C2120 C2124 1.350 . S
C2121 C2124 1.463 . S
C2121 C2126 1.350 . S
C2121 N2129 1.427 . S
C2122 H2113 0.930 . S
C2122 C2120 1.378 . S
C2122 C2123 1.367 . S
C2123 C2122 1.367 . S
C2123 C2125 1.433 . S
C2124 C2120 1.350 . S
C2124 C2121 1.463 . S
C2124 N2128 1.427 . S
C2125 H2115 0.929 . S
C2125 C2123 1.433 . S
C2125 N2128 1.384 . S
C2126 H2117 0.929 . S
C2126 C2118 1.378 . S
C2126 C2121 1.350 . S
C2127 H2114 0.929 . S
C2127 C2119 1.433 . S
C2127 N2129 1.384 . S
N2128 C2124 1.427 . S
N2128 C2125 1.384 . S
N2129 C2121 1.427 . S
N2129 C2127 1.384 . S
H2130 C2136 0.930 . S
H2131 C2140 0.930 . S
H2132 C2145 0.929 . S
H2133 C2143 0.929 . S
H2134 C2138 0.929 . S
H2135 C2144 0.929 . S
C2136 H2130 0.930 . S
C2136 C2137 1.367 . S
C2136 C2144 1.378 . S
C2137 C2136 1.367 . S
C2137 C2145 1.433 . S
C2138 H2134 0.929 . S
C2138 C2140 1.378 . S
C2138 C2142 1.350 . S
C2139 C2142 1.463 . S
C2139 C2144 1.350 . S
C2139 N2147 1.427 . S
C2140 H2131 0.930 . S
C2140 C2138 1.378 . S
C2140 C2141 1.367 . S
C2141 C2140 1.367 . S
C2141 C2143 1.433 . S
C2142 C2138 1.350 . S
C2142 C2139 1.463 . S
C2142 N2146 1.427 . S
C2143 H2133 0.929 . S
C2143 C2141 1.433 . S
C2143 N2146 1.384 . S
C2144 H2135 0.929 . S
C2144 C2136 1.378 . S
C2144 C2139 1.350 . S
C2145 H2132 0.929 . S
C2145 C2137 1.433 . S
C2145 N2147 1.384 . S
N2146 C2142 1.427 . S
N2146 C2143 1.384 . S
N2147 C2139 1.427 . S
N2147 C2145 1.384 . S
H2148 C2154 0.930 . S
H2149 C2158 0.930 . S
H2150 C2163 0.929 . S
H2151 C2161 0.929 . S
H2152 C2156 0.929 . S
H2153 C2162 0.929 . S
C2154 H2148 0.930 . S
C2154 C2155 1.367 . S
C2154 C2162 1.378 . S
C2155 C2154 1.367 . S
C2155 C2163 1.433 . S
C2156 H2152 0.929 . S
C2156 C2158 1.378 . S
C2156 C2160 1.350 . S
C2157 C2160 1.463 . S
C2157 C2162 1.350 . S
C2157 N2165 1.427 . S
C2158 H2149 0.930 . S
C2158 C2156 1.378 . S
C2158 C2159 1.367 . S
C2159 C2158 1.367 . S
C2159 C2161 1.433 . S
C2160 C2156 1.350 . S
C2160 C2157 1.463 . S
C2160 N2164 1.427 . S
C2161 H2151 0.929 . S
C2161 C2159 1.433 . S
C2161 N2164 1.384 . S
C2162 H2153 0.929 . S
C2162 C2154 1.378 . S
C2162 C2157 1.350 . S
C2163 H2150 0.929 . S
C2163 C2155 1.433 . S
C2163 N2165 1.384 . S
N2164 C2160 1.427 . S
N2164 C2161 1.384 . S
N2165 C2157 1.427 . S
N2165 C2163 1.384 . S
H2166 C2172 0.930 . S
H2167 C2176 0.930 . S
H2168 C2181 0.929 . S
H2169 C2179 0.929 . S
H2170 C2174 0.929 . S
H2171 C2180 0.929 . S
C2172 H2166 0.930 . S
C2172 C2173 1.367 . S
C2172 C2180 1.378 . S
C2173 C2172 1.367 . S
C2173 C2181 1.433 . S
C2174 H2170 0.929 . S
C2174 C2176 1.378 . S
C2174 C2178 1.350 . S
C2175 C2178 1.463 . S
C2175 C2180 1.350 . S
C2175 N2183 1.427 . S
C2176 H2167 0.930 . S
C2176 C2174 1.378 . S
C2176 C2177 1.367 . S
C2177 C2176 1.367 . S
C2177 C2179 1.433 . S
C2178 C2174 1.350 . S
C2178 C2175 1.463 . S
C2178 N2182 1.427 . S
C2179 H2169 0.929 . S
C2179 C2177 1.433 . S
C2179 N2182 1.384 . S
C2180 H2171 0.929 . S
C2180 C2172 1.378 . S
C2180 C2175 1.350 . S
C2181 H2168 0.929 . S
C2181 C2173 1.433 . S
C2181 N2183 1.384 . S
N2182 C2178 1.427 . S
N2182 C2179 1.384 . S
N2183 C2175 1.427 . S
N2183 C2181 1.384 . S
H2184 C2190 0.930 . S
H2185 C2194 0.930 . S
H2186 C2199 0.929 . S
H2187 C2197 0.929 . S
H2188 C2192 0.929 . S
H2189 C2198 0.929 . S
C2190 H2184 0.930 . S
C2190 C2191 1.367 . S
C2190 C2198 1.378 . S
C2191 C2190 1.367 . S
C2191 C2199 1.433 . S
C2192 H2188 0.929 . S
C2192 C2194 1.378 . S
C2192 C2196 1.350 . S
C2193 C2196 1.463 . S
C2193 C2198 1.350 . S
C2193 N2201 1.427 . S
C2194 H2185 0.930 . S
C2194 C2192 1.378 . S
C2194 C2195 1.367 . S
C2195 C2194 1.367 . S
C2195 C2197 1.433 . S
C2196 C2192 1.350 . S
C2196 C2193 1.463 . S
C2196 N2200 1.427 . S
C2197 H2187 0.929 . S
C2197 C2195 1.433 . S
C2197 N2200 1.384 . S
C2198 H2189 0.929 . S
C2198 C2190 1.378 . S
C2198 C2193 1.350 . S
C2199 H2186 0.929 . S
C2199 C2191 1.433 . S
C2199 N2201 1.384 . S
N2200 C2196 1.427 . S
N2200 C2197 1.384 . S
N2201 C2193 1.427 . S
N2201 C2199 1.384 . S
H2202 C2208 0.930 . S
H2203 C2212 0.930 . S
H2204 C2217 0.929 . S
H2205 C2215 0.929 . S
H2206 C2210 0.929 . S
H2207 C2216 0.929 . S
C2208 H2202 0.930 . S
C2208 C2209 1.367 . S
C2208 C2216 1.378 . S
C2209 C2208 1.367 . S
C2209 C2217 1.433 . S
C2210 H2206 0.929 . S
C2210 C2212 1.378 . S
C2210 C2214 1.350 1_554 S
C2211 C2214 1.463 . S
C2211 C2216 1.350 . S
C2211 N2219 1.427 . S
C2212 H2203 0.930 . S
C2212 C2210 1.378 . S
C2212 C2213 1.367 . S
C2213 C2212 1.367 . S
C2213 C2215 1.433 1_554 S
C2214 C2210 1.350 1_556 S
C2214 C2211 1.463 . S
C2214 N2218 1.427 . S
C2215 H2205 0.929 . S
C2215 C2213 1.433 1_556 S
C2215 N2218 1.384 . S
C2216 H2207 0.929 . S
C2216 C2208 1.378 . S
C2216 C2211 1.350 . S
C2217 H2204 0.929 . S
C2217 C2209 1.433 . S
C2217 N2219 1.384 . S
N2218 C2214 1.427 . S
N2218 C2215 1.384 . S
N2219 C2211 1.427 . S
N2219 C2217 1.384 . S
H2220 C2226 0.930 . S
H2221 C2230 0.930 . S
H2222 C2235 0.929 . S
H2223 C2233 0.929 . S
H2224 C2228 0.929 . S
H2225 C2234 0.929 . S
C2226 H2220 0.930 . S
C2226 C2227 1.367 . S
C2226 C2234 1.378 . S
C2227 C2226 1.367 . S
C2227 C2235 1.433 . S
C2228 H2224 0.929 . S
C2228 C2230 1.378 . S
C2228 C2232 1.350 . S
C2229 C2232 1.463 . S
C2229 C2234 1.350 . S
C2229 N2237 1.427 . S
C2230 H2221 0.930 . S
C2230 C2228 1.378 . S
C2230 C2231 1.367 . S
C2231 C2230 1.367 . S
C2231 C2233 1.433 . S
C2232 C2228 1.350 . S
C2232 C2229 1.463 . S
C2232 N2236 1.427 . S
C2233 H2223 0.929 . S
C2233 C2231 1.433 . S
C2233 N2236 1.384 . S
C2234 H2225 0.929 . S
C2234 C2226 1.378 . S
C2234 C2229 1.350 . S
C2235 H2222 0.929 . S
C2235 C2227 1.433 . S
C2235 N2237 1.384 . S
N2236 C2232 1.427 . S
N2236 C2233 1.384 . S
N2237 C2229 1.427 . S
N2237 C2235 1.384 . S
H2238 C2244 0.930 . S
H2239 C2248 0.930 . S
H2240 C2253 0.929 . S
H2241 C2251 0.929 . S
H2242 C2246 0.929 . S
H2243 C2252 0.929 . S
C2244 H2238 0.930 . S
C2244 C2245 1.367 . S
C2244 C2252 1.378 . S
C2245 C2244 1.367 . S
C2245 C2253 1.433 . S
C2246 H2242 0.929 . S
C2246 C2248 1.378 . S
C2246 C2250 1.350 . S
C2247 C2250 1.463 . S
C2247 C2252 1.350 . S
C2247 N2255 1.427 . S
C2248 H2239 0.930 . S
C2248 C2246 1.378 . S
C2248 C2249 1.367 . S
C2249 C2248 1.367 . S
C2249 C2251 1.433 . S
C2250 C2246 1.350 . S
C2250 C2247 1.463 . S
C2250 N2254 1.427 . S
C2251 H2241 0.929 . S
C2251 C2249 1.433 . S
C2251 N2254 1.384 . S
C2252 H2243 0.929 . S
C2252 C2244 1.378 . S
C2252 C2247 1.350 . S
C2253 H2240 0.929 . S
C2253 C2245 1.433 . S
C2253 N2255 1.384 . S
N2254 C2250 1.427 . S
N2254 C2251 1.384 . S
N2255 C2247 1.427 . S
N2255 C2253 1.384 . S
C967 C2 2.023 . S
C971 C744 2.175 . S
C985 C784 1.346 . S
C989 C42 1.249 . S
C1003 C82 1.923 . S
C1007 C664 2.074 . S
C1021 C122 2.061 . S
C1025 C704 2.243 . S
C1039 C906 0.292 . S
C1043 C162 0.341 . S
C1057 C202 2.641 . S
C1061 C864 2.836 1_556 S
C1075 C944 2.885 . S
C1079 C242 2.682 . S
C1093 C282 0.823 . S
C1097 C826 0.816 . S
C1111 C343 2.383 . S
C1115 C544 2.358 . S
C1129 C362 1.511 . S
C1133 C624 1.652 1_655 S
C1147 C584 2.409 . S
C1151 C423 2.436 . S
C1165 C442 1.624 . S
C1169 C504 1.789 1_455 S
C1183 C503 2.016 . S
C1187 C253 2.180 . S
C1201 C543 1.249 . S
C1205 C293 1.346 . S
C1219 C583 1.914 . S
C1223 C173 2.075 . S
C1237 C213 2.243 . S
C1241 C623 2.074 . S
C1255 C663 0.387 . S
C1259 C417 0.247 . S
C1273 C373 2.836 1_554 S
C1277 C703 2.636 . S
C1291 C453 2.885 . S
C1295 C743 2.684 . S
C1309 C337 0.822 . S
C1313 C783 0.822 . S
C1327 C53 2.356 . S
C1331 C802 2.383 . S
C1345 C133 1.647 1_455 S
C1349 C863 1.503 . S
C1363 C93 2.410 . S
C1367 C882 2.436 . S
C1381 C943 1.630 . S
C1385 C13 1.786 1_655 S
C1399 C184 1.610 . S
C1403 C17 1.601 . S
C1417 C224 1.474 . S
C1421 C57 1.482 . S
C1435 C264 1.333 . S
C1439 C97 1.329 . S
C1453 C304 2.145 . S
C1457 C137 2.146 . S
C1471 C177 0.542 . S
C1475 C346 0.561 . S
C1489 C217 1.755 . S
C1493 C464 1.743 . S
C1507 C257 1.838 . S
C1511 C384 1.829 . S
C1525 C297 0.414 . S
C1529 C426 0.355 . S
C1543 C333 2.653 . S
C1547 C24 2.664 . S
C1561 C377 1.496 . S
C1565 C104 1.504 . S
C1579 C413 2.621 . S
C1583 C144 2.626 . S
C1597 C64 1.509 . S
C1601 C457 1.505 . S
C1615 C653 1.613 . S
C1619 C506 1.607 . S
C1633 C693 1.478 . S
C1637 C546 1.483 . S
C1651 C586 1.327 . S
C1655 C733 1.332 . S
C1669 C626 2.139 . S
C1673 C773 2.138 . S
C1687 C817 0.559 . S
C1691 C666 0.546 . S
C1705 C706 1.755 . S
C1709 C933 1.743 . S
C1723 C853 1.829 . S
C1727 C746 1.838 . S
C1741 C786 0.389 . S
C1745 C897 0.328 . S
C1759 C493 2.664 . S
C1763 C824 2.653 . S
C1777 C866 1.498 . S
C1781 C573 1.503 . S
C1795 C904 2.620 . S
C1799 C613 2.628 . S
C1813 C533 1.510 . S
C1817 C946 1.507 . S
C1831 C23 1.893 . S
C1835 C386 1.888 . S
C1849 C424 3.128 . S
C1853 C63 3.060 . S
C1867 C344 3.151 . S
C1871 C103 3.091 . S
C1885 C466 1.836 . S
C1889 C143 1.836 . S
C1903 C183 1.792 . S
C1907 C146 1.800 . S
C1921 C106 1.065 . S
C1925 C223 1.062 . S
C1939 C263 1.393 . S
C1943 C66 1.392 . S
C1957 C26 1.415 . S
C1961 C303 1.401 . S
C1975 C322 1.552 . S
C1979 C226 1.699 . S
C1993 C383 1.072 . S
C1997 C306 1.086 . S
C2011 C402 1.454 . S
C2015 C266 1.592 . S
C2029 C463 1.505 . S
C2033 C186 1.527 . S
C2047 C482 1.885 . S
C2051 C857 1.880 . S
C2065 C522 3.054 . S
C2069 C893 3.126 . S
C2083 C813 3.148 . S
C2087 C562 3.087 . S
C2101 C937 1.839 . S
C2105 C602 1.840 . S
C2119 C642 1.787 . S
C2123 C617 1.795 . S
C2137 C682 1.061 . S
C2141 C577 1.064 . S
C2155 C537 1.392 . S
C2159 C722 1.390 . S
C2173 C762 1.393 . S
C2177 C497 1.408 . S
C2191 C823 1.542 . S
C2195 C697 1.701 . S
C2209 C777 1.084 . S
C2213 C842 1.070 . S
C2227 C903 1.473 . S
C2231 C737 1.601 . S
C2245 C922 1.507 . S
C2249 C657 1.529 . S
