# Generated by pormake.
# Topology wme, (6)-cn, num edge types: 1
# Building blocks:
#     Node 0, Type 0, BuildingBlock: HISSIN_clean_sbu_0, # of connection points: 6
#     Node 1, Type 0, BuildingBlock: HISSIN_clean_sbu_0, # of connection points: 6
#     Node 2, Type 0, BuildingBlock: HISSIN_clean_sbu_0, # of connection points: 6
#     Node 3, Type 0, BuildingBlock: HISSIN_clean_sbu_0, # of connection points: 6
#     Node 4, Type 0, BuildingBlock: HISSIN_clean_sbu_0, # of connection points: 6
#     Node 5, Type 0, BuildingBlock: HISSIN_clean_sbu_0, # of connection points: 6
#     Node 6, Type 0, BuildingBlock: HISSIN_clean_sbu_0, # of connection points: 6
#     Node 7, Type 0, BuildingBlock: HISSIN_clean_sbu_0, # of connection points: 6
#     Node 8, Type 0, BuildingBlock: HISSIN_clean_sbu_0, # of connection points: 6
#     Node 9, Type 0, BuildingBlock: HISSIN_clean_sbu_0, # of connection points: 6
#     Node 10, Type 0, BuildingBlock: HISSIN_clean_sbu_0, # of connection points: 6
#     Node 11, Type 0, BuildingBlock: HISSIN_clean_sbu_0, # of connection points: 6
#     Edge 12, Type (0, 0), BuildingBlock: MIFKUJ_clean_linker_0, # of connection points: 2
#     Edge 13, Type (0, 0), BuildingBlock: MIFKUJ_clean_linker_0, # of connection points: 2
#     Edge 14, Type (0, 0), BuildingBlock: MIFKUJ_clean_linker_0, # of connection points: 2
#     Edge 15, Type (0, 0), BuildingBlock: MIFKUJ_clean_linker_0, # of connection points: 2
#     Edge 16, Type (0, 0), BuildingBlock: MIFKUJ_clean_linker_0, # of connection points: 2
#     Edge 17, Type (0, 0), BuildingBlock: MIFKUJ_clean_linker_0, # of connection points: 2
#     Edge 18, Type (0, 0), BuildingBlock: MIFKUJ_clean_linker_0, # of connection points: 2
#     Edge 19, Type (0, 0), BuildingBlock: MIFKUJ_clean_linker_0, # of connection points: 2
#     Edge 20, Type (0, 0), BuildingBlock: MIFKUJ_clean_linker_0, # of connection points: 2
#     Edge 21, Type (0, 0), BuildingBlock: MIFKUJ_clean_linker_0, # of connection points: 2
#     Edge 22, Type (0, 0), BuildingBlock: MIFKUJ_clean_linker_0, # of connection points: 2
#     Edge 23, Type (0, 0), BuildingBlock: MIFKUJ_clean_linker_0, # of connection points: 2
#     Edge 24, Type (0, 0), BuildingBlock: MIFKUJ_clean_linker_0, # of connection points: 2
#     Edge 25, Type (0, 0), BuildingBlock: MIFKUJ_clean_linker_0, # of connection points: 2
#     Edge 26, Type (0, 0), BuildingBlock: MIFKUJ_clean_linker_0, # of connection points: 2
#     Edge 27, Type (0, 0), BuildingBlock: MIFKUJ_clean_linker_0, # of connection points: 2
#     Edge 28, Type (0, 0), BuildingBlock: MIFKUJ_clean_linker_0, # of connection points: 2
#     Edge 29, Type (0, 0), BuildingBlock: MIFKUJ_clean_linker_0, # of connection points: 2
#     Edge 30, Type (0, 0), BuildingBlock: MIFKUJ_clean_linker_0, # of connection points: 2
#     Edge 31, Type (0, 0), BuildingBlock: MIFKUJ_clean_linker_0, # of connection points: 2
#     Edge 32, Type (0, 0), BuildingBlock: MIFKUJ_clean_linker_0, # of connection points: 2
#     Edge 33, Type (0, 0), BuildingBlock: MIFKUJ_clean_linker_0, # of connection points: 2
#     Edge 34, Type (0, 0), BuildingBlock: MIFKUJ_clean_linker_0, # of connection points: 2
#     Edge 35, Type (0, 0), BuildingBlock: MIFKUJ_clean_linker_0, # of connection points: 2
#     Edge 36, Type (0, 0), BuildingBlock: MIFKUJ_clean_linker_0, # of connection points: 2
#     Edge 37, Type (0, 0), BuildingBlock: MIFKUJ_clean_linker_0, # of connection points: 2
#     Edge 38, Type (0, 0), BuildingBlock: MIFKUJ_clean_linker_0, # of connection points: 2
#     Edge 39, Type (0, 0), BuildingBlock: MIFKUJ_clean_linker_0, # of connection points: 2
#     Edge 40, Type (0, 0), BuildingBlock: MIFKUJ_clean_linker_0, # of connection points: 2
#     Edge 41, Type (0, 0), BuildingBlock: MIFKUJ_clean_linker_0, # of connection points: 2
#     Edge 42, Type (0, 0), BuildingBlock: MIFKUJ_clean_linker_0, # of connection points: 2
#     Edge 43, Type (0, 0), BuildingBlock: MIFKUJ_clean_linker_0, # of connection points: 2
#     Edge 44, Type (0, 0), BuildingBlock: MIFKUJ_clean_linker_0, # of connection points: 2
#     Edge 45, Type (0, 0), BuildingBlock: MIFKUJ_clean_linker_0, # of connection points: 2
#     Edge 46, Type (0, 0), BuildingBlock: MIFKUJ_clean_linker_0, # of connection points: 2
#     Edge 47, Type (0, 0), BuildingBlock: MIFKUJ_clean_linker_0, # of connection points: 2
# Relax obj value: 0.081
# Max RMSD: 0.176
# Mean RMSD: 0.176
data_MOF--net-wme--node1-HISSIN_clean_sbu_0--edge1-MIFKUJ_clean_linker_0
_symmetry_space_group_name_H-M    P1
_symmetry_Int_Tables_number       1
_symmetry_cell_setting            triclinic
loop_
_symmetry_equiv_pos_as_xyz
'x, y, z'
_cell_length_a     49.49529
_cell_length_b     49.466382
_cell_length_c     70.349675
_cell_angle_alpha  90.083582
_cell_angle_beta   89.970325
_cell_angle_gamma 119.91225
loop_
_atom_site_label
_atom_site_type_symbol
_atom_site_fract_x
_atom_site_fract_y
_atom_site_fract_z
_atom_type_partial_charge
Eu0 Eu 0.20565 0.36576 0.11184 0.0
Eu1 Eu 0.24185 0.32637 0.1229 0.0
C2 C 0.2194 0.35653 0.15578 0.0
C3 C 0.1781 0.42668 0.10565 0.0
C4 C 0.16194 0.42915 0.12143 0.0
C5 C 0.18924 0.47842 0.09554 0.0
C6 C 0.15924 0.45578 0.12412 0.0
C7 C 0.19189 0.45176 0.09283 0.0
C8 C 0.1725 0.48065 0.11109 0.0
C9 C 0.17825 0.39721 0.10157 0.0
O10 O 0.19152 0.29002 0.11639 0.0
O11 O 0.16774 0.31904 0.12155 0.0
C12 C 0.16637 0.29203 0.11963 0.0
O13 O 0.20767 0.33835 0.08631 0.0
O14 O 0.26161 0.30488 0.14127 0.0
O15 O 0.26169 0.29962 0.11073 0.0
O16 O 0.25584 0.34873 0.09426 0.0
C17 C 0.23442 0.34103 0.08135 0.0
O18 O 0.25653 0.40231 0.11385 0.0
O19 O 0.27976 0.37643 0.12759 0.0
O20 O 0.22475 0.33396 0.15085 0.0
O21 O 0.2024 0.39907 0.09279 0.0
O22 O 0.1676 0.37571 0.11467 0.0
O23 O 0.21557 0.3742 0.14331 0.0
C24 C 0.25803 0.25826 0.12907 0.0
C25 C 0.2796 0.24867 0.12478 0.0
C26 C 0.21847 0.20402 0.13424 0.0
C27 C 0.27069 0.21706 0.12493 0.0
C28 C 0.22737 0.23575 0.13383 0.0
C29 C 0.23998 0.19417 0.12964 0.0
C30 C 0.26757 0.29151 0.12714 0.0
C31 C 0.28069 0.40216 0.12161 0.0
H32 H 0.15066 0.41018 0.13149 0.0
H33 H 0.20015 0.49722 0.08534 0.0
H34 H 0.14581 0.45637 0.13611 0.0
H35 H 0.20425 0.45053 0.08044 0.0
H36 H 0.30332 0.26565 0.12095 0.0
H37 H 0.19475 0.18727 0.13818 0.0
H38 H 0.28783 0.2106 0.1209 0.0
H39 H 0.21027 0.24269 0.13705 0.0
Eu40 Eu 0.85027 0.19731 0.60717 0.0
Eu41 Eu 0.92197 0.22769 0.62377 0.0
C42 C 0.86571 0.21235 0.65201 0.0
C43 C 0.76271 0.17061 0.59917 0.0
C44 C 0.74569 0.15404 0.61529 0.0
C45 C 0.71978 0.17889 0.59035 0.0
C46 C 0.7159 0.14968 0.61877 0.0
C47 C 0.74946 0.18308 0.58681 0.0
C48 C 0.70248 0.16188 0.60627 0.0
C49 C 0.79316 0.17337 0.59429 0.0
O50 O 0.89879 0.1756 0.62898 0.0
O51 O 0.86242 0.15926 0.60517 0.0
C52 C 0.8785 0.15351 0.61773 0.0
O53 O 0.88411 0.21765 0.58225 0.0
O54 O 0.95543 0.23323 0.6457 0.0
O55 O 0.97196 0.2579 0.61896 0.0
O56 O 0.92138 0.20886 0.59477 0.0
C57 C 0.90897 0.21473 0.58012 0.0
O58 O 0.86308 0.24514 0.61736 0.0
O59 O 0.91598 0.26815 0.61358 0.0
O60 O 0.89471 0.23245 0.64765 0.0
O61 O 0.81583 0.20083 0.58938 0.0
O62 O 0.80287 0.15815 0.60477 0.0
O63 O 0.84616 0.19254 0.63937 0.0
C64 C 1.00321 0.24021 0.63365 0.0
C65 C 0.0346 0.26271 0.63094 0.0
C66 C 1.01755 0.19976 0.63369 0.0
C67 C 0.05733 0.25386 0.62961 0.0
C68 C 0.99479 0.2086 0.63487 0.0
C69 C 0.0491 0.2223 0.63105 0.0
C70 C 0.97959 0.25003 0.63492 0.0
C71 C 0.8905 0.27017 0.61534 0.0
H72 H 0.75517 0.14407 0.62512 0.0
H73 H 0.71004 0.1883 0.58031 0.0
H74 H 0.70338 0.1368 0.6313 0.0
H75 H 0.76189 0.19565 0.57418 0.0
H76 H 0.04154 0.28718 0.62989 0.0
H77 H 1.01042 0.17524 0.6346 0.0
H78 H 0.08145 0.2718 0.62773 0.0
H79 H 0.97063 0.19074 0.63672 0.0
Eu80 Eu 0.66989 0.85111 0.1118 0.0
Eu81 Eu 0.71205 0.92252 0.12942 0.0
C82 C 0.68069 0.86284 0.15647 0.0
C83 C 0.60914 0.76451 0.10094 0.0
C84 C 0.5866 0.76133 0.11427 0.0
C85 C 0.57873 0.70896 0.09423 0.0
C86 C 0.56025 0.73201 0.11756 0.0
C87 C 0.6049 0.73818 0.09092 0.0
C88 C 0.55613 0.70538 0.10769 0.0
C89 C 0.63785 0.79457 0.09771 0.0
O90 O 0.74599 0.90992 0.11606 0.0
O91 O 0.71657 0.85711 0.11952 0.0
C92 C 0.74367 0.88234 0.11714 0.0
O93 O 0.69592 0.8846 0.08748 0.0
O94 O 0.73767 0.95566 0.15235 0.0
O95 O 0.73881 0.9724 0.12386 0.0
O96 O 0.69309 0.92465 0.10102 0.0
C97 C 0.69778 0.91199 0.08601 0.0
O98 O 0.63597 0.86824 0.11595 0.0
O99 O 0.66227 0.91083 0.1359 0.0
O100 O 0.70657 0.88864 0.15241 0.0
O101 O 0.6349 0.81804 0.09196 0.0
O102 O 0.65973 0.80287 0.11043 0.0
O103 O 0.65956 0.84739 0.14336 0.0
C104 C 0.78481 0.99943 0.14186 0.0
C105 C 0.80431 0.99261 0.1308 0.0
C106 C 0.83039 0.04701 0.15269 0.0
C107 C 0.83655 0.01316 0.13039 0.0
C108 C 0.79815 0.02649 0.15303 0.0
C109 C 0.85001 0.04098 0.14106 0.0
C110 C 0.75057 0.97953 0.14091 0.0
C111 C 0.63652 0.88966 0.12734 0.0
H112 H 0.58958 0.78139 0.12224 0.0
H113 H 0.57612 0.68915 0.08614 0.0
H114 H 0.54344 0.73007 0.12812 0.0
H115 H 0.62204 0.74017 0.08059 0.0
H116 H 0.79449 0.97184 0.12203 0.0
H117 H 0.8399 0.06783 0.16141 0.0
H118 H 0.85073 1.00777 0.12114 0.0
H119 H 0.78354 0.03211 0.16173 0.0
Eu120 Eu 0.83159 0.66028 0.60927 0.0
Eu121 Eu 0.79767 0.69933 0.62598 0.0
C122 C 0.8169 0.65974 0.6545 0.0
C123 C 0.85884 0.60102 0.59659 0.0
C124 C 0.84757 0.58243 0.61295 0.0
C125 C 0.8765 0.5664 0.58444 0.0
C126 C 0.851 0.5561 0.6151 0.0
C127 C 0.87302 0.59262 0.58231 0.0
C128 C 0.86588 0.54797 0.60095 0.0
C129 C 0.85783 0.63018 0.59454 0.0
O130 O 0.84741 0.73542 0.61829 0.0
O131 O 0.87054 0.70534 0.62029 0.0
C132 C 0.8724 0.73266 0.61981 0.0
O133 O 0.83038 0.69165 0.58595 0.0
O134 O 0.79294 0.72912 0.64703 0.0
O135 O 0.76687 0.71846 0.62082 0.0
O136 O 0.78427 0.68638 0.59556 0.0
C137 C 0.80503 0.69295 0.5823 0.0
O138 O 0.77989 0.62613 0.60945 0.0
O139 O 0.75998 0.64894 0.62952 0.0
O140 O 0.80966 0.68172 0.65215 0.0
O141 O 0.83222 0.62814 0.58798 0.0
O142 O 0.86971 0.6502 0.60842 0.0
O143 O 0.82345 0.64648 0.64033 0.0
C144 C 0.78571 0.7688 0.63368 0.0
C145 C 0.81692 0.79045 0.62948 0.0
C146 C 0.77373 0.81085 0.63334 0.0
C147 C 0.82657 0.82213 0.62746 0.0
C148 C 0.76417 0.77919 0.63549 0.0
C149 C 0.8051 0.83276 0.62941 0.0
C150 C 0.77549 0.73546 0.63617 0.0
C151 C 0.75708 0.62479 0.61982 0.0
H152 H 0.83665 0.58862 0.62419 0.0
H153 H 0.88755 0.56058 0.57311 0.0
H154 H 0.84274 0.5426 0.62805 0.0
H155 H 0.88186 0.60666 0.56958 0.0
H156 H 0.83385 0.78284 0.62781 0.0
H157 H 0.75664 0.81824 0.63509 0.0
H158 H 0.85077 0.83825 0.62413 0.0
H159 H 0.73996 0.76282 0.63867 0.0
Eu160 Eu 0.18422 0.82009 0.11044 0.0
Eu161 Eu 0.11593 0.8019 0.12992 0.0
C162 C 0.17586 0.82096 0.15569 0.0
C163 C 0.27051 0.84066 0.10231 0.0
C164 C 0.28454 0.85791 0.11888 0.0
C165 C 0.3173 0.83779 0.09593 0.0
C166 C 0.3149 0.86505 0.12392 0.0
C167 C 0.28721 0.83085 0.09089 0.0
C168 C 0.33151 0.85474 0.11258 0.0
C169 C 0.23821 0.8313 0.09678 0.0
O170 O 0.13508 0.84981 0.11732 0.0
O171 O 0.18698 0.86534 0.11954 0.0
C172 C 0.16439 0.87197 0.11818 0.0
O173 O 0.15478 0.81753 0.08492 0.0
O174 O 0.08935 0.81198 0.15061 0.0
O175 O 0.06562 0.77096 0.1328 0.0
O176 O 0.10581 0.79524 0.09875 0.0
C177 C 0.1242 0.80504 0.08385 0.0
O178 O 0.15006 0.76928 0.10581 0.0
O179 O 0.12419 0.76094 0.13377 0.0
O180 O 0.15194 0.82487 0.15265 0.0
O181 O 0.2166 0.80407 0.1027 0.0
O182 O 0.22939 0.85214 0.09748 0.0
O183 O 0.18821 0.81262 0.14194 0.0
C184 C 0.03875 0.79782 0.14053 0.0
C185 C 0.04286 0.8177 0.12522 0.0
C186 C 0.9902 0.79626 0.1484 0.0
C187 C 0.02079 0.82689 0.12157 0.0
C188 C 1.0123 0.78712 0.15205 0.0
C189 C 0.9942 0.81635 0.13314 0.0
C190 C 0.06251 0.78916 0.14498 0.0
C191 C 0.13446 0.75071 0.11985 0.0
H192 H 0.27194 0.86551 0.12799 0.0
H193 H 0.32952 0.82994 0.08668 0.0
H194 H 0.3251 0.87801 0.13688 0.0
H195 H 0.27683 0.81751 0.07806 0.0
H196 H 0.06323 0.82624 0.11618 0.0
H197 H 0.97026 0.78801 0.15776 0.0
H198 H 0.02444 0.84205 0.10958 0.0
H199 H 1.00888 0.77195 0.164 0.0
Eu200 Eu 0.3675 0.175 0.61285 0.0
Eu201 Eu 0.32598 0.10456 0.63134 0.0
C202 C 0.36536 0.16248 0.65822 0.0
C203 C 0.42904 0.26141 0.60276 0.0
C204 C 0.43902 0.27176 0.62141 0.0
C205 C 0.47225 0.30975 0.59072 0.0
C206 C 0.46536 0.30109 0.62468 0.0
C207 C 0.44594 0.28057 0.58749 0.0
C208 C 0.48229 0.32049 0.60935 0.0
C209 C 0.4007 0.23128 0.59876 0.0
O210 O 0.29842 0.12958 0.63488 0.0
O211 O 0.31734 0.16178 0.60911 0.0
C212 C 0.29592 0.14772 0.62219 0.0
O213 O 0.35509 0.13964 0.58887 0.0
O214 O 0.29503 0.07338 0.65338 0.0
O215 O 0.30675 0.05426 0.62907 0.0
O216 O 0.30923 0.10237 0.6016 0.0
C217 C 0.32789 0.11403 0.58703 0.0
O218 O 0.40243 0.16286 0.62398 0.0
O219 O 0.37272 0.10945 0.62286 0.0
O220 O 0.35788 0.13353 0.65475 0.0
O221 O 0.40461 0.20794 0.59405 0.0
O222 O 0.37693 0.22285 0.61008 0.0
O223 O 0.3647 0.18071 0.64479 0.0
C224 C 0.25493 0.02506 0.6412 0.0
C225 C 0.24349 1.00915 0.62386 0.0
C226 C 0.20205 0.99743 0.65388 0.0
C227 C 0.21175 0.9876 0.62159 0.0
C228 C 0.23384 0.01882 0.6562 0.0
C229 C 0.19063 0.9815 0.63657 0.0
C230 C 0.2885 0.04821 0.64379 0.0
C231 C 0.40012 0.13528 0.62332 0.0
H232 H 0.42638 0.25729 0.63343 0.0
H233 H 0.48438 0.32418 0.57859 0.0
H234 H 0.47261 0.30848 0.63919 0.0
H235 H 0.43856 0.2731 0.573 0.0
H236 H 0.259 0.01337 0.61196 0.0
H237 H 0.18649 0.99295 0.66578 0.0
H238 H 0.20367 0.97594 0.60802 0.0
H239 H 0.24195 0.03054 0.66976 0.0
Eu240 Eu 0.66988 0.83326 0.40142 0.0
Eu241 Eu 0.70967 0.7991 0.38887 0.0
C242 C 0.68091 0.82446 0.35757 0.0
C243 C 0.60951 0.86071 0.40841 0.0
C244 C 0.59902 0.8601 0.38976 0.0
C245 C 0.56615 0.8658 0.42039 0.0
C246 C 0.57254 0.8628 0.38646 0.0
C247 C 0.59268 0.86329 0.42366 0.0
C248 C 0.55594 0.86595 0.40174 0.0
C249 C 0.63882 0.86066 0.4123 0.0
O250 O 0.74535 0.84779 0.39877 0.0
O251 O 0.71698 0.87171 0.39253 0.0
C252 C 0.74376 0.87319 0.39573 0.0
O253 O 0.69664 0.83015 0.4269 0.0
O254 O 0.73316 0.78401 0.36856 0.0
O255 O 0.73483 0.77616 0.39867 0.0
O256 O 0.68854 0.78306 0.41769 0.0
C257 C 0.69511 0.8036 0.4311 0.0
O258 O 0.63419 0.78211 0.39988 0.0
O259 O 0.65981 0.76184 0.38267 0.0
O260 O 0.70575 0.82328 0.36286 0.0
O261 O 0.63675 0.83626 0.42081 0.0
O262 O 0.65992 0.87127 0.39896 0.0
O263 O 0.66017 0.82248 0.37004 0.0
C264 C 0.77956 0.78801 0.38089 0.0
C265 C 0.80024 0.81589 0.39024 0.0
C266 C 0.82347 0.7822 0.37113 0.0
C267 C 0.83228 0.82664 0.39026 0.0
C268 C 0.79141 0.77142 0.3712 0.0
C269 C 0.84431 0.80976 0.38086 0.0
C270 C 0.74565 0.77547 0.3819 0.0
C271 C 0.63422 0.75928 0.39024 0.0
H272 H 0.6115 0.85799 0.37772 0.0
H273 H 0.55414 0.86852 0.43247 0.0
H274 H 0.56506 0.86242 0.37195 0.0
H275 H 0.60045 0.86399 0.43815 0.0
H276 H 0.79154 0.82904 0.39785 0.0
H277 H 0.83192 0.76889 0.36346 0.0
H278 H 0.84749 0.84772 0.39807 0.0
H279 H 0.77582 0.7499 0.36386 0.0
Eu280 Eu 0.85572 0.65706 0.89884 0.0
Eu281 Eu 0.92872 0.69939 0.88321 0.0
C282 C 0.87098 0.6634 0.85352 0.0
C283 C 0.76906 0.59571 0.90822 0.0
C284 C 0.75489 0.59067 0.89024 0.0
C285 C 0.72402 0.54788 0.91944 0.0
C286 C 0.72538 0.5647 0.88699 0.0
C287 C 0.75342 0.57395 0.92271 0.0
C288 C 0.70947 0.54308 0.90159 0.0
C289 C 0.79909 0.62422 0.91251 0.0
O290 O 0.91336 0.73313 0.89365 0.0
O291 O 0.86083 0.70247 0.88933 0.0
C292 C 0.88554 0.72997 0.89154 0.0
O293 O 0.88807 0.68403 0.9235 0.0
O294 O 0.9638 0.72913 0.86233 0.0
O295 O 0.97827 0.723 0.89016 0.0
O296 O 0.92828 0.67974 0.91181 0.0
C297 C 0.91463 0.6846 0.92618 0.0
O298 O 0.87176 0.62235 0.89366 0.0
O299 O 0.91896 0.65011 0.87784 0.0
O300 O 0.89959 0.68603 0.85675 0.0
O301 O 0.82232 0.62065 0.91795 0.0
O302 O 0.80798 0.64788 0.90107 0.0
O303 O 0.85125 0.64737 0.86721 0.0
C304 C 1.00786 0.77232 0.87591 0.0
C305 C 0.99899 0.79074 0.88646 0.0
C306 C 0.05776 0.81848 0.86936 0.0
C307 C 1.01946 0.82282 0.88856 0.0
C308 C 0.03726 0.78643 0.86727 0.0
C309 C 0.04926 0.83708 0.88016 0.0
C310 C 0.98693 0.73836 0.87422 0.0
C311 C 0.89556 0.62378 0.88436 0.0
H312 H 0.76641 0.60698 0.87873 0.0
H313 H 0.71234 0.5319 0.93106 0.0
H314 H 0.71504 0.56149 0.87301 0.0
H315 H 0.76374 0.5774 0.93672 0.0
H316 H 0.9764 0.78024 0.8933 0.0
H317 H 0.08029 0.82871 0.86245 0.0
H318 H 1.01223 0.83628 0.89714 0.0
H319 H 0.04446 0.7726 0.85902 0.0
Eu320 Eu 0.20506 0.84867 0.39929 0.0
Eu321 Eu 0.23587 0.92101 0.3835 0.0
C322 C 0.21256 0.86349 0.35475 0.0
C323 C 0.17802 0.7615 0.40835 0.0
C324 C 0.19899 0.75942 0.39583 0.0
C325 C 0.15213 0.70547 0.41322 0.0
C326 C 0.19651 0.73041 0.39203 0.0
C327 C 0.15471 0.73439 0.41704 0.0
C328 C 0.17287 0.70303 0.40059 0.0
C329 C 0.17903 0.79129 0.41205 0.0
O330 O 0.18806 0.90785 0.39491 0.0
O331 O 0.16544 0.85538 0.39011 0.0
C332 C 0.16311 0.88034 0.39271 0.0
O333 O 0.2105 0.88045 0.42422 0.0
O334 O 0.2444 0.95571 0.3615 0.0
O335 O 0.26078 0.97065 0.39012 0.0
O336 O 0.25463 0.92119 0.41241 0.0
C337 C 0.23653 0.90696 0.42685 0.0
O338 O 0.25656 0.86658 0.3979 0.0
O339 O 0.27398 0.90913 0.37794 0.0
O340 O 0.21192 0.88908 0.3588 0.0
O341 O 0.20487 0.81421 0.41884 0.0
O342 O 0.16675 0.80058 0.39905 0.0
O343 O 0.21572 0.84676 0.36816 0.0
C344 C 0.24353 1.00013 0.3733 0.0
C345 C 0.21469 0.99121 0.38191 0.0
C346 C 0.24967 0.05109 0.36671 0.0
C347 C 0.20349 1.01217 0.38306 0.0
C348 C 0.26078 0.03007 0.36555 0.0
C349 C 0.22106 0.04255 0.3757 0.0
C350 C 0.25655 0.97907 0.37338 0.0
C351 C 0.27834 0.88838 0.3872 0.0
H352 H 0.21702 0.78012 0.38887 0.0
H353 H 0.13399 0.685 0.42028 0.0
H354 H 0.21269 0.72932 0.38212 0.0
H355 H 0.13829 0.73556 0.42673 0.0
H356 H 0.20119 0.96827 0.38812 0.0
H357 H 0.26357 0.07411 0.36062 0.0
H358 H 0.18155 1.00488 0.39022 0.0
H359 H 0.2831 0.03739 0.35886 0.0
Eu360 Eu 0.36934 0.19492 0.90297 0.0
Eu361 Eu 0.32922 0.22976 0.89076 0.0
C362 C 0.35777 0.20473 0.85904 0.0
C363 C 0.4303 0.16774 0.91001 0.0
C364 C 0.44428 0.17408 0.89195 0.0
C365 C 0.4701 0.15665 0.92155 0.0
C366 C 0.47082 0.17136 0.88868 0.0
C367 C 0.44362 0.15931 0.92478 0.0
C368 C 0.48395 0.16234 0.90342 0.0
C369 C 0.40082 0.16772 0.91357 0.0
O370 O 0.29338 0.18053 0.89971 0.0
O371 O 0.32194 0.15617 0.89501 0.0
C372 C 0.29515 0.15504 0.89746 0.0
O373 O 0.34307 0.19874 0.92857 0.0
O374 O 0.30772 0.24774 0.87096 0.0
O375 O 0.30195 0.25005 0.90131 0.0
O376 O 0.35144 0.24589 0.91927 0.0
C377 C 0.3449 0.2255 0.93272 0.0
O378 O 0.40485 0.24603 0.90152 0.0
O379 O 0.37935 0.26701 0.88489 0.0
O380 O 0.33346 0.20687 0.86432 0.0
O381 O 0.40243 0.19177 0.92234 0.0
O382 O 0.38028 0.15759 0.89991 0.0
O383 O 0.37777 0.20482 0.87144 0.0
C384 C 0.25983 0.24228 0.88198 0.0
C385 C 0.23748 0.21297 0.889 0.0
C386 C 0.21812 0.25191 0.87259 0.0
C387 C 0.20568 0.20342 0.88812 0.0
C388 C 0.24989 0.26144 0.87354 0.0
C389 C 0.19554 0.22301 0.88021 0.0
C390 C 0.29347 0.25389 0.88445 0.0
C391 C 0.40493 0.26918 0.89225 0.0
H392 H 0.43445 0.18068 0.88031 0.0
H393 H 0.47919 0.14923 0.93319 0.0
H394 H 0.48103 0.1763 0.87461 0.0
H395 H 0.4331 0.15409 0.93878 0.0
H396 H 0.24466 0.19784 0.89566 0.0
H397 H 0.21131 0.26734 0.86597 0.0
H398 H 0.18919 0.18116 0.89429 0.0
H399 H 0.26677 0.2841 0.86797 0.0
Eu400 Eu 0.18828 0.3666 0.40102 0.0
Eu401 Eu 0.11368 0.32699 0.38829 0.0
C402 C 0.1681 0.35557 0.35643 0.0
C403 C 0.27607 0.42583 0.40921 0.0
C404 C 0.27787 0.45079 0.39871 0.0
C405 C 0.33253 0.45398 0.41228 0.0
C406 C 0.30691 0.47728 0.39508 0.0
C407 C 0.30358 0.42765 0.41594 0.0
C408 C 0.33465 0.47916 0.40179 0.0
C409 C 0.24606 0.39744 0.41316 0.0
O410 O 0.12694 0.29101 0.39714 0.0
O411 O 0.17986 0.31933 0.39292 0.0
C412 C 0.15408 0.29261 0.3949 0.0
O413 O 0.15721 0.34149 0.42644 0.0
O414 O 0.07358 0.30227 0.36935 0.0
O415 O 0.06644 0.30282 0.39968 0.0
O416 O 0.12053 0.35177 0.41595 0.0
C417 C 0.13294 0.34468 0.42997 0.0
O418 O 0.17449 0.4032 0.39635 0.0
O419 O 0.12622 0.3766 0.38162 0.0
O420 O 0.13969 0.33378 0.361 0.0
O421 O 0.22357 0.40102 0.4201 0.0
O422 O 0.23613 0.37544 0.40039 0.0
O423 O 0.18919 0.37322 0.36914 0.0
C424 C 0.03164 0.25708 0.38343 0.0
C425 C 1.00108 0.24602 0.38976 0.0
C426 C 0.02045 0.20348 0.38006 0.0
C427 C 0.98035 0.21399 0.39133 0.0
C428 C 0.04127 0.23561 0.37866 0.0
C429 C 0.98966 0.1922 0.38645 0.0
C430 C 0.05362 0.29096 0.38334 0.0
C431 C 0.15076 0.40265 0.38747 0.0
H432 H 0.25688 0.44973 0.39328 0.0
H433 H 0.35326 0.45476 0.41792 0.0
H434 H 0.30769 0.49609 0.3868 0.0
H435 H 0.30267 0.40863 0.42408 0.0
H436 H 0.99339 0.26222 0.39387 0.0
H437 H 0.02845 0.18752 0.37601 0.0
H438 H 0.95718 0.20638 0.39674 0.0
H439 H 0.06494 0.24368 0.37397 0.0
Eu440 Eu 0.82504 0.17055 0.89547 0.0
Eu441 Eu 0.8007 0.10047 0.87572 0.0
C442 C 0.81537 0.16009 0.84963 0.0
C443 C 0.85216 0.258 0.90368 0.0
C444 C 0.84051 0.26423 0.88704 0.0
C445 C 0.8797 0.31355 0.91098 0.0
C446 C 0.84782 0.29477 0.88266 0.0
C447 C 0.87221 0.28298 0.91542 0.0
C448 C 0.8671 0.31978 0.89474 0.0
C449 C 0.84157 0.22564 0.90988 0.0
O450 O 0.85034 0.11918 0.88557 0.0
O451 O 0.86754 0.17136 0.88323 0.0
C452 C 0.87316 0.1481 0.884 0.0
O453 O 0.82439 0.14006 0.91996 0.0
O454 O 0.8082 0.07243 0.85474 0.0
O455 O 0.76901 0.05006 0.87405 0.0
O456 O 0.79282 0.09138 0.90683 0.0
C457 C 0.80752 0.10938 0.92136 0.0
O458 O 0.77371 0.13976 0.90075 0.0
O459 O 0.7602 0.10977 0.87397 0.0
O460 O 0.81403 0.13303 0.85108 0.0
O461 O 0.81304 0.20482 0.90553 0.0
O462 O 0.86077 0.21495 0.90791 0.0
O463 O 0.81643 0.17679 0.86451 0.0
C464 C 0.79497 0.0219 0.86542 0.0
C465 C 0.78269 1.00157 0.88104 0.0
C466 C 0.82545 0.99725 0.85703 0.0
C467 C 0.79172 0.97933 0.88459 0.0
C468 C 0.81626 0.01928 0.8534 0.0
C469 C 0.81332 0.97701 0.87267 0.0
C470 C 0.78617 0.04601 0.8615 0.0
C471 C 0.75313 0.12331 0.88768 0.0
H472 H 0.82509 0.24539 0.87768 0.0
H473 H 0.89437 0.33215 0.92069 0.0
H474 H 0.83806 0.29877 0.86991 0.0
H475 H 0.88134 0.27873 0.92837 0.0
H476 H 0.76622 1.00289 0.89059 0.0
H477 H 0.84174 0.99575 0.8474 0.0
H478 H 0.78209 0.96418 0.89681 0.0
H479 H 0.82591 0.03437 0.84115 0.0
H480 H 0.12434 0.89452 0.11309 0.0
H481 H 0.1361 0.94864 0.11495 0.0
H482 H 0.23269 0.97853 0.12597 0.0
H483 H 0.22116 0.92438 0.12422 0.0
H484 H 0.20934 1.00512 0.15058 0.0
H485 H 0.21011 0.98997 0.08279 0.0
H486 H 0.18772 0.96297 0.05246 0.0
H487 H 0.11096 0.97959 0.05905 0.0
H488 H 0.13269 1.00634 0.08956 0.0
H489 H 0.27508 0.16731 0.13952 0.0
H490 H 0.26109 0.11283 0.13711 0.0
H491 H 0.16901 0.0889 0.11797 0.0
H492 H 0.18359 0.14388 0.11897 0.0
H493 H 0.1879 0.05816 0.09779 0.0
H494 H 0.18516 0.07307 0.16461 0.0
H495 H 0.20447 0.09821 0.19579 0.0
H496 H 0.28058 0.08003 0.1924 0.0
H497 H 0.26197 0.05514 0.16106 0.0
C498 C 0.14816 0.91257 0.11581 0.0
C499 C 0.17183 0.90502 0.11846 0.0
C500 C 0.15484 0.94356 0.11681 0.0
C501 C 0.18532 0.96771 0.12047 0.0
C502 C 0.209 0.96029 0.12311 0.0
C503 C 0.20238 0.9293 0.12203 0.0
C504 C 0.19241 1.00064 0.12193 0.0
C505 C 0.20507 0.0169 0.13895 0.0
C506 C 0.18575 0.01561 0.10702 0.0
C507 C 0.17289 0.99991 0.08854 0.0
C508 C 0.18835 0.98769 0.07783 0.0
C509 C 0.17579 0.97246 0.0606 0.0
C510 C 0.14789 0.96949 0.05385 0.0
C511 C 0.13255 0.98187 0.0643 0.0
C512 C 0.145 0.9971 0.08155 0.0
C513 C 0.25192 0.15064 0.13457 0.0
C514 C 0.23057 0.16032 0.12938 0.0
C515 C 0.24377 0.11925 0.13349 0.0
C516 C 0.21377 0.09645 0.12766 0.0
C517 C 0.19228 0.10592 0.12259 0.0
C518 C 0.20057 0.13745 0.1234 0.0
C519 C 0.20518 0.06294 0.12645 0.0
C520 C 0.19217 0.04649 0.10948 0.0
C521 C 0.21109 0.0476 0.14153 0.0
C522 C 0.22232 0.06249 0.1604 0.0
C523 C 0.20614 0.07463 0.17045 0.0
C524 C 0.21694 0.08881 0.18816 0.0
C525 C 0.24377 0.09078 0.19605 0.0
C526 C 0.25982 0.07851 0.18626 0.0
C527 C 0.24914 0.06434 0.16853 0.0
H528 H 0.2521 0.10177 0.20976 0.0
H529 H 0.13819 0.95766 0.04052 0.0
H530 H 0.28319 0.18318 0.59802 0.0
H531 H 0.2402 0.19389 0.59971 0.0
H532 H 0.20478 0.13585 0.64952 0.0
H533 H 0.24763 0.12459 0.64781 0.0
H534 H 0.15806 0.12591 0.62513 0.0
H535 H 0.24531 0.21464 0.65374 0.0
H536 H 0.29932 0.25849 0.65535 0.0
H537 H 0.28325 0.29984 0.60616 0.0
H538 H 0.22925 0.25599 0.60409 0.0
H539 H 0.05554 0.18075 0.65356 0.0
H540 H 0.09618 0.16641 0.65207 0.0
H541 H 0.13803 0.22825 0.60435 0.0
H542 H 0.09768 0.24298 0.60597 0.0
H543 H 0.18141 0.23568 0.62853 0.0
H544 H 0.0946 0.14705 0.59946 0.0
H545 H 0.04075 0.103 0.59733 0.0
H546 H 0.05585 0.06135 0.64672 0.0
H547 H 0.10969 0.10538 0.6493 0.0
C548 C 0.26626 0.17256 0.60933 0.0
C549 C 0.26903 0.15317 0.62286 0.0
C550 C 0.24171 0.17882 0.61031 0.0
C551 C 0.21951 0.16607 0.62491 0.0
C552 C 0.22171 0.14604 0.63817 0.0
C553 C 0.24628 0.13971 0.63719 0.0
C554 C 0.19431 0.17403 0.62644 0.0
C555 C 0.16313 0.14988 0.62614 0.0
C556 C 0.20092 0.20535 0.62735 0.0
C557 C 0.23331 0.23188 0.62866 0.0
C558 C 0.25336 0.23297 0.64318 0.0
C559 C 0.28396 0.25785 0.64419 0.0
C560 C 0.29473 0.2819 0.63084 0.0
C561 C 0.27488 0.28118 0.61648 0.0
C562 C 0.24427 0.25633 0.61539 0.0
C563 C 0.07324 0.19106 0.64264 0.0
C564 C 0.07337 0.21298 0.62987 0.0
C565 C 0.09646 0.18282 0.64178 0.0
C566 C 0.12003 0.19595 0.62794 0.0
C567 C 0.12015 0.21782 0.61517 0.0
C568 C 0.0971 0.22626 0.61613 0.0
C569 C 0.14503 0.18757 0.62704 0.0
C570 C 0.17624 0.21168 0.62752 0.0
C571 C 0.13842 0.15621 0.62623 0.0
C572 C 0.10608 0.12968 0.62468 0.0
C573 C 0.08636 0.12862 0.60995 0.0
C574 C 0.05585 0.10363 0.60865 0.0
C575 C 0.04486 0.07944 0.62191 0.0
C576 C 0.06439 0.08013 0.63647 0.0
C577 C 0.0949 0.10508 0.63785 0.0
H578 H 0.02123 0.06011 0.62088 0.0
H579 H 0.31844 0.30114 0.63165 0.0
H580 H 0.87748 0.10468 0.14027 0.0
H581 H 0.93233 0.14305 0.13609 0.0
H582 H 0.95469 0.06935 0.13248 0.0
H583 H 0.89969 0.03059 0.13757 0.0
H584 H 0.99828 0.11728 0.15278 0.0
H585 H 0.9507 0.10632 0.09226 0.0
H586 H 0.91173 0.1038 0.06942 0.0
H587 H 0.93664 0.19803 0.08316 0.0
H588 H 0.97547 0.20098 0.10629 0.0
H589 H 0.1516 0.23028 0.11796 0.0
H590 H 0.09958 0.18381 0.12048 0.0
H591 H 0.05896 0.24271 0.1273 0.0
H592 H 0.11019 0.28878 0.12461 0.0
H593 H 0.02618 0.19703 0.10244 0.0
H594 H 0.07046 0.20524 0.1653 0.0
H595 H 0.10992 0.20728 0.18756 0.0
H596 H 0.09193 0.11745 0.16823 0.0
H597 H 0.05261 0.11502 0.14565 0.0
C598 C 0.894 0.09649 0.13894 0.0
C599 C 0.88394 0.06439 0.13925 0.0
C600 C 0.92544 0.11854 0.13628 0.0
C601 C 0.94769 0.10916 0.13358 0.0
C602 C 0.93797 0.07721 0.13437 0.0
C603 C 0.90643 0.05505 0.13713 0.0
C604 C 0.98088 0.13289 0.12969 0.0
C605 C 1.00443 0.13439 0.14155 0.0
C606 C 0.98908 0.15538 0.1151 0.0
C607 C 0.96586 0.15378 0.10111 0.0
C608 C 0.94773 0.12644 0.09051 0.0
C609 C 0.92568 0.12494 0.0775 0.0
C610 C 0.92167 0.15072 0.07487 0.0
C611 C 0.93976 0.17807 0.08522 0.0
C612 C 0.96182 0.17969 0.09826 0.0
C613 C 0.13156 0.23329 0.11997 0.0
C614 C 0.13521 0.26337 0.12106 0.0
C615 C 0.10184 0.2067 0.12148 0.0
C616 C 0.07528 0.20972 0.12417 0.0
C617 C 0.07898 0.2397 0.12517 0.0
C618 C 0.10847 0.26612 0.12368 0.0
C619 C 0.0434 0.18204 0.12589 0.0
C620 C 0.02007 0.17972 0.11353 0.0
C621 C 0.03552 0.15877 0.13993 0.0
C622 C 0.05886 0.1601 0.15365 0.0
C623 C 0.07507 0.18601 0.16571 0.0
C624 C 0.09738 0.18723 0.1784 0.0
C625 C 0.10349 0.16256 0.17928 0.0
C626 C 0.08721 0.13656 0.16751 0.0
C627 C 0.0649 0.13524 0.15478 0.0
H628 H 0.12079 0.16357 0.1891 0.0
H629 H 0.90459 0.14951 0.06479 0.0
H630 H 0.85829 0.88287 0.64336 0.0
H631 H 0.87438 0.93821 0.64079 0.0
H632 H 0.79111 0.91451 0.60883 0.0
H633 H 0.77529 0.85919 0.61089 0.0
H634 H 0.84173 0.9642 0.59347 0.0
H635 H 0.7966 0.93281 0.65604 0.0
H636 H 0.79137 0.91037 0.68803 0.0
H637 H 0.88596 0.97936 0.70084 0.0
H638 H 0.89188 1.00196 0.66881 0.0
H639 H 0.83197 0.1007 0.60138 0.0
H640 H 0.82337 0.04784 0.60316 0.0
H641 H 0.90531 0.08018 0.6382 0.0
H642 H 0.91366 0.13336 0.6369 0.0
H643 H 0.85997 0.02742 0.65186 0.0
H644 H 0.90474 0.06114 0.59036 0.0
H645 H 0.91081 0.08387 0.5584 0.0
H646 H 0.8189 1.01113 0.54331 0.0
H647 H 0.81207 0.98821 0.57529 0.0
C648 C 0.84355 0.88944 0.63561 0.0
C649 C 0.81536 0.86653 0.62746 0.0
C650 C 0.85266 0.92109 0.63429 0.0
C651 C 0.83376 0.93055 0.62484 0.0
C652 C 0.80601 0.9078 0.61628 0.0
C653 C 0.79685 0.87615 0.61762 0.0
C654 C 0.84259 0.96405 0.62406 0.0
C655 C 0.84542 0.97795 0.60624 0.0
C656 C 0.84839 0.98232 0.64069 0.0
C657 C 0.84478 0.96886 0.65997 0.0
C658 C 0.81635 0.94304 0.66563 0.0
C659 C 0.81325 0.93032 0.68377 0.0
C660 C 0.83834 0.94337 0.69644 0.0
C661 C 0.86656 0.96924 0.691 0.0
C662 C 0.8698 0.98203 0.67286 0.0
C663 C 0.8483 0.09671 0.60943 0.0
C664 C 0.87363 0.12139 0.61892 0.0
C665 C 0.84341 0.06638 0.61035 0.0
C666 C 0.864 0.05998 0.62051 0.0
C667 C 0.88916 0.0845 0.63019 0.0
C668 C 0.89393 0.11492 0.62942 0.0
C669 C 0.85872 0.02756 0.62125 0.0
C670 C 0.85656 0.01382 0.63906 0.0
C671 C 0.85373 1.00948 0.60459 0.0
C672 C 0.85781 0.02309 0.58529 0.0
C673 C 0.88573 0.05011 0.58027 0.0
C674 C 0.88932 0.06301 0.56214 0.0
C675 C 0.86524 0.04899 0.54885 0.0
C676 C 0.83753 0.02198 0.55364 0.0
C677 C 0.8338 1.009 0.57175 0.0
H678 H 0.86806 0.05902 0.53482 0.0
H679 H 0.8359 0.93349 0.71048 0.0
H680 H 0.93059 0.78076 0.1351 0.0
H681 H 0.89209 0.79699 0.12964 0.0
H682 H 0.96565 0.8902 0.11675 0.0
H683 H 1.00452 0.87433 0.12282 0.0
H684 H 0.92245 0.89194 0.13912 0.0
H685 H 0.92152 0.842 0.08122 0.0
H686 H 0.91937 0.8007 0.06054 0.0
H687 H 0.82778 0.73644 0.08137 0.0
H688 H 0.82954 0.77724 0.1024 0.0
H689 H 0.80439 0.92769 0.10975 0.0
H690 H 0.85055 0.92147 0.10906 0.0
H691 H 0.79298 0.8238 0.12233 0.0
H692 H 0.74703 0.82957 0.12257 0.0
H693 H 0.83339 0.831 0.09562 0.0
H694 H 0.83888 0.88099 0.15664 0.0
H695 H 0.84106 0.92368 0.176 0.0
H696 H 0.92488 0.98969 0.14733 0.0
H697 H 0.92304 0.94738 0.1277 0.0
C698 C 0.93867 0.80479 0.13125 0.0
C699 C 0.97071 0.82621 0.12939 0.0
C700 C 0.91658 0.81398 0.12794 0.0
C701 C 0.92591 0.84475 0.12253 0.0
C702 C 0.95786 0.86631 0.12082 0.0
C703 C 0.98004 0.85711 0.12413 0.0
C704 C 0.90211 0.85418 0.11888 0.0
C705 C 0.90326 0.87894 0.12936 0.0
C706 C 0.87701 0.83729 0.10617 0.0
C707 C 0.87577 0.81265 0.0935 0.0
C708 C 0.901 0.819 0.0815 0.0
C709 C 0.89985 0.79569 0.0697 0.0
C710 C 0.87348 0.76595 0.06967 0.0
C711 C 0.8482 0.75949 0.08142 0.0
C712 C 0.84925 0.78271 0.09327 0.0
C713 C 0.80159 0.90489 0.11246 0.0
C714 C 0.77196 0.87917 0.11627 0.0
C715 C 0.82803 0.90138 0.11212 0.0
C716 C 0.82534 0.87219 0.11583 0.0
C717 C 0.79572 0.84653 0.11937 0.0
C718 C 0.7694 0.84994 0.11957 0.0
C719 C 0.85308 0.86792 0.11638 0.0
C720 C 0.85276 0.8442 0.10523 0.0
C721 C 0.87899 0.88591 0.12836 0.0
C722 C 0.88068 0.9111 0.14062 0.0
C723 C 0.85774 0.90463 0.15446 0.0
C724 C 0.85891 0.92874 0.16547 0.0
C725 C 0.88305 0.95939 0.16286 0.0
C726 C 0.90619 0.96595 0.14933 0.0
C727 C 0.90513 0.94191 0.13828 0.0
H728 H 0.88386 0.97805 0.17135 0.0
H729 H 0.87263 0.74793 0.06052 0.0
H730 H 0.88844 0.79263 0.63004 0.0
H731 H 0.94115 0.83763 0.63321 0.0
H732 H 0.97989 0.78107 0.6142 0.0
H733 H 0.92772 0.73614 0.61167 0.0
H734 H 1.01056 0.81234 0.64342 0.0
H735 H 0.9761 0.83869 0.58569 0.0
H736 H 0.94059 0.84892 0.56637 0.0
H737 H 0.95648 0.92456 0.60339 0.0
H738 H 0.99182 0.91454 0.62307 0.0
H739 H 0.16491 0.92388 0.61996 0.0
H740 H 0.10971 0.88475 0.61711 0.0
H741 H 0.08473 0.94667 0.64526 0.0
H742 H 0.14007 0.98622 0.64797 0.0
H743 H 0.04628 0.91564 0.61375 0.0
H744 H 0.08331 0.89041 0.67024 0.0
H745 H 0.1189 0.87971 0.68912 0.0
H746 H 0.09799 0.80106 0.65352 0.0
H747 H 0.06261 0.81157 0.63425 0.0
C748 C 0.90822 0.78992 0.62641 0.0
C749 C 0.90386 0.76076 0.62068 0.0
C750 C 0.93837 0.81569 0.62818 0.0
C751 C 0.96466 0.8129 0.62385 0.0
C752 C 0.96013 0.78389 0.61777 0.0
C753 C 0.93019 0.75816 0.61629 0.0
C754 C 0.99703 0.8396 0.62615 0.0
C755 C 1.01835 0.83478 0.63672 0.0
C756 C 1.00718 0.8693 0.61794 0.0
C757 C 0.98635 0.87566 0.60596 0.0
C758 C 0.97188 0.85739 0.58977 0.0
C759 C 0.9518 0.86316 0.57875 0.0
C760 C 0.94621 0.88731 0.58368 0.0
C761 C 0.9608 0.90583 0.5996 0.0
C762 C 0.98088 0.90014 0.61068 0.0
C763 C 0.1477 0.92936 0.62535 0.0
C764 C 0.15693 0.95814 0.63427 0.0
C765 C 0.11614 0.90689 0.62381 0.0
C766 C 0.09309 0.91268 0.63112 0.0
C767 C 0.10212 0.94169 0.63956 0.0
C768 C 0.13375 0.96414 0.64123 0.0
C769 C 0.05973 0.88789 0.63053 0.0
C770 C 0.03831 0.89316 0.62044 0.0
C771 C 0.04943 0.85846 0.63905 0.0
C772 C 0.07052 0.85194 0.65071 0.0
C773 C 0.08648 0.87097 0.66635 0.0
C774 C 0.10659 0.86492 0.67714 0.0
C775 C 0.11076 0.83977 0.6725 0.0
C776 C 0.09476 0.82056 0.65709 0.0
C777 C 0.07466 0.82653 0.64624 0.0
H778 H 0.12633 0.83512 0.68087 0.0
H779 H 0.93062 0.89172 0.57515 0.0
H780 H 0.14705 0.92636 0.39227 0.0
H781 H 0.09449 0.91935 0.38978 0.0
H782 H 0.0554 0.81949 0.39028 0.0
H783 H 0.10741 0.82622 0.39241 0.0
H784 H 0.03021 0.83565 0.3627 0.0
H785 H 0.05229 0.86063 0.42943 0.0
H786 H 0.08251 0.8933 0.45659 0.0
H787 H 0.06956 0.96797 0.43644 0.0
H788 H 0.03957 0.93584 0.40901 0.0
H789 H 0.87176 0.77378 0.38474 0.0
H790 H 0.92722 0.7908 0.38594 0.0
H791 H 0.94959 0.8866 0.38071 0.0
H792 H 0.89395 0.86973 0.37912 0.0
H793 H 0.98504 0.87884 0.40834 0.0
H794 H 0.95883 0.85165 0.34311 0.0
H795 H 0.92822 0.81849 0.31622 0.0
H796 H 0.94906 0.7477 0.33361 0.0
H797 H 0.97944 0.78026 0.36078 0.0
C798 C 0.12725 0.90295 0.39196 0.0
C799 C 0.13155 0.87689 0.39244 0.0
C800 C 0.09719 0.89896 0.39058 0.0
C801 C 0.07093 0.86885 0.38986 0.0
C802 C 0.07525 0.84294 0.39068 0.0
C803 C 0.10512 0.84688 0.39195 0.0
C804 C 0.03882 0.86384 0.38778 0.0
C805 C 0.0203 0.84491 0.37279 0.0
C806 C 0.02612 0.87672 0.40055 0.0
C807 C 0.044 0.89598 0.41707 0.0
C808 C 0.0561 0.88411 0.43072 0.0
C809 C 0.07314 0.90251 0.44617 0.0
C810 C 0.07804 0.93273 0.44821 0.0
C811 C 0.0658 0.94458 0.43482 0.0
C812 C 0.04876 0.92628 0.41933 0.0
C813 C 0.88839 0.79846 0.38357 0.0
C814 C 0.87827 0.82033 0.38165 0.0
C815 C 0.92014 0.80817 0.38437 0.0
C816 C 0.94258 0.83996 0.38322 0.0
C817 C 0.93268 0.86196 0.38163 0.0
C818 C 0.90084 0.85224 0.38076 0.0
C819 C 0.9763 0.84992 0.3836 0.0
C820 C 0.9951 0.86984 0.39817 0.0
C821 C 0.98933 0.83791 0.37046 0.0
C822 C 0.97122 0.81831 0.35407 0.0
C823 C 0.9567 0.82892 0.34128 0.0
C824 C 0.93942 0.81024 0.32598 0.0
C825 C 0.93665 0.78098 0.32323 0.0
C826 C 0.95122 0.77037 0.33576 0.0
C827 C 0.9685 0.78894 0.35111 0.0
H828 H 0.92326 0.76656 0.31137 0.0
H829 H 0.09125 0.94694 0.46018 0.0
H830 H 0.11209 0.86525 0.88665 0.0
H831 H 0.14894 0.92056 0.89138 0.0
H832 H 0.07439 0.94128 0.88567 0.0
H833 H 0.03735 0.88583 0.88027 0.0
H834 H 0.12534 0.98302 0.86635 0.0
H835 H 0.10453 0.9425 0.92936 0.0
H836 H 0.09833 0.90645 0.95537 0.0
H837 H 0.19433 0.93115 0.94975 0.0
H838 H 0.20103 0.96709 0.92357 0.0
H839 H 0.23355 0.14057 0.89659 0.0
H840 H 0.18711 0.0883 0.89581 0.0
H841 H 0.24586 0.04694 0.89798 0.0
H842 H 0.29191 0.09848 0.89885 0.0
H843 H 0.19665 0.01767 0.92187 0.0
H844 H 0.21474 0.05308 0.85628 0.0
H845 H 0.22091 0.08944 0.83049 0.0
H846 H 0.12924 0.0747 0.84167 0.0
H847 H 0.12269 0.03852 0.86772 0.0
C848 C 0.10348 0.88153 0.88619 0.0
C849 C 0.07168 0.87098 0.88306 0.0
C850 C 0.12458 0.91319 0.88913 0.0
C851 C 0.11442 0.93511 0.88918 0.0
C852 C 0.08277 0.9248 0.88582 0.0
C853 C 0.06159 0.89305 0.88288 0.0
C854 C 0.1371 0.96875 0.89254 0.0
C855 C 0.14051 0.99069 0.87869 0.0
C856 C 0.15709 0.97884 0.90856 0.0
C857 C 0.15322 0.95735 0.9244 0.0
C858 C 0.12427 0.9401 0.93358 0.0
C859 C 0.12067 0.91971 0.94837 0.0
C860 C 0.1459 0.91647 0.95417 0.0
C861 C 0.1748 0.93369 0.94524 0.0
C862 C 0.17853 0.95411 0.93044 0.0
C863 C 0.23652 0.12032 0.897 0.0
C864 C 0.26653 0.12382 0.89769 0.0
C865 C 0.20997 0.09047 0.89649 0.0
C866 C 0.213 0.06366 0.89673 0.0
C867 C 0.24288 0.06721 0.89782 0.0
C868 C 0.26927 0.09683 0.89822 0.0
C869 C 0.18546 0.0317 0.89544 0.0
C870 C 0.18112 1.01006 0.9097 0.0
C871 C 0.16457 0.02196 0.87986 0.0
C872 C 0.16836 0.04339 0.86407 0.0
C873 C 0.19599 0.05776 0.85332 0.0
C874 C 0.19954 0.07831 0.83864 0.0
C875 C 0.17552 0.08444 0.83447 0.0
C876 C 0.14785 0.06996 0.84493 0.0
C877 C 0.14419 0.04943 0.85965 0.0
H878 H 0.17833 0.10037 0.8231 0.0
H879 H 0.14307 0.90064 0.96559 0.0
H880 H 0.10701 0.2319 0.38945 0.0
H881 H 0.1126 0.18557 0.38566 0.0
H882 H 0.21159 0.24202 0.39534 0.0
H883 H 0.20635 0.28809 0.39863 0.0
H884 H 0.20115 0.20671 0.36526 0.0
H885 H 0.15902 0.19022 0.42942 0.0
H886 H 0.11912 0.18379 0.45284 0.0
H887 H 0.05006 0.10358 0.4225 0.0
H888 H 0.08951 0.10975 0.39877 0.0
H889 H 0.25584 0.10424 0.3851 0.0
H890 H 0.23873 0.14254 0.38801 0.0
H891 H 0.14455 0.0717 0.37462 0.0
H892 H 0.1616 0.03303 0.37163 0.0
H893 H 0.14574 0.10976 0.40335 0.0
H894 H 0.18825 0.12302 0.34099 0.0
H895 H 0.22713 0.12977 0.31675 0.0
H896 H 0.2941 0.21624 0.3426 0.0
H897 H 0.25577 0.20979 0.36718 0.0
C898 C 0.12989 0.23432 0.39092 0.0
C899 C 0.15625 0.26376 0.39422 0.0
C900 C 0.13306 0.20781 0.38879 0.0
C901 C 0.16256 0.21025 0.39022 0.0
C902 C 0.18864 0.23951 0.39401 0.0
C903 C 0.18556 0.26589 0.39594 0.0
C904 C 0.16703 0.18291 0.3872 0.0
C905 C 0.18921 0.18565 0.37373 0.0
C906 C 0.15059 0.15486 0.39768 0.0
C907 C 0.12713 0.15061 0.41224 0.0
C908 C 0.1353 0.17128 0.42771 0.0
C909 C 0.11277 0.16768 0.44104 0.0
C910 C 0.08206 0.14335 0.43913 0.0
C911 C 0.07385 0.12244 0.42395 0.0
C912 C 0.09629 0.12595 0.41057 0.0
C913 C 0.23152 0.09678 0.3826 0.0
C914 C 0.2102 0.06561 0.37787 0.0
C915 C 0.22173 0.11871 0.38435 0.0
C916 C 0.19042 0.11014 0.38125 0.0
C917 C 0.16883 0.07887 0.37705 0.0
C918 C 0.17862 0.05681 0.37534 0.0
C919 C 0.18077 0.13422 0.38195 0.0
C920 C 0.15751 0.13077 0.39482 0.0
C921 C 0.19611 0.16168 0.37086 0.0
C922 C 0.21919 0.1658 0.35601 0.0
C923 C 0.21134 0.14337 0.34158 0.0
C924 C 0.23327 0.14716 0.32777 0.0
C925 C 0.26308 0.17339 0.32815 0.0
C926 C 0.271 0.19593 0.34233 0.0
C927 C 0.24917 0.19224 0.35619 0.0
H928 H 0.28003 0.17627 0.31745 0.0
H929 H 0.06463 0.14066 0.44942 0.0
H930 H 0.14404 0.16447 0.87567 0.0
H931 H 0.08913 0.14989 0.87702 0.0
H932 H 0.11536 0.24624 0.88582 0.0
H933 H 0.17016 0.26074 0.8857 0.0
H934 H 0.06946 0.21183 0.90829 0.0
H935 H 0.08867 0.2068 0.84152 0.0
H936 H 0.10552 0.18919 0.81341 0.0
H937 H 0.03692 0.09416 0.82548 0.0
H938 H 0.01992 0.11118 0.85381 0.0
H939 H 0.92682 0.20499 0.88482 0.0
H940 H 0.98063 0.21558 0.88447 0.0
H941 H 0.94785 0.11691 0.88173 0.0
H942 H 0.89389 0.10604 0.882 0.0
H943 H 0.99582 0.14978 0.85688 0.0
H944 H 0.97531 0.15513 0.92285 0.0
H945 H 0.95828 0.17273 0.95087 0.0
H946 H 0.02933 0.26736 0.94015 0.0
H947 H 0.04652 0.25038 0.91188 0.0
C948 C 0.13821 0.18258 0.87809 0.0
C949 C 0.1618 0.21389 0.88044 0.0
C950 C 0.10668 0.17422 0.87862 0.0
C951 C 0.09792 0.197 0.88121 0.0
C952 C 0.12138 0.22819 0.88371 0.0
C953 C 0.15286 0.23652 0.88338 0.0
C954 C 0.06442 0.18851 0.88153 0.0
C955 C 0.05352 0.19861 0.8969 0.0
C956 C 0.04319 0.17047 0.86698 0.0
C957 C 0.05324 0.16024 0.84988 0.0
C958 C 0.07732 0.18213 0.83824 0.0
C959 C 0.08688 0.17226 0.82226 0.0
C960 C 0.07236 0.14057 0.81769 0.0
C961 C 0.04818 0.11869 0.82905 0.0
C962 C 0.03855 0.12844 0.84506 0.0
C963 C 0.93098 0.18549 0.88412 0.0
C964 C 0.90593 0.15464 0.88351 0.0
C965 C 0.96181 0.1916 0.884 0.0
C966 C 0.96833 0.16703 0.88327 0.0
C967 C 0.94341 0.13624 0.88234 0.0
C968 C 0.91255 0.13008 0.88256 0.0
C969 C 1.00115 0.17354 0.88347 0.0
C970 C 1.01183 0.16299 0.86825 0.0
C971 C 0.02222 0.19122 0.89812 0.0
C972 C 1.01201 0.20151 0.91514 0.0
C973 C 0.98714 0.17973 0.92637 0.0
C974 C 0.97749 0.18958 0.94232 0.0
C975 C 0.99266 0.22115 0.94726 0.0
C976 C 1.01758 0.24292 0.93629 0.0
C977 C 0.0273 0.23319 0.92031 0.0
H978 H 0.98516 0.22874 0.95961 0.0
H979 H 0.0798 0.13297 0.80531 0.0
H980 H 1.00137 0.14545 0.39746 0.0
H981 H 0.96398 0.08959 0.40042 0.0
H982 H 0.88973 0.10562 0.38286 0.0
H983 H 0.92686 0.16103 0.37905 0.0
H984 H 0.87663 0.06918 0.41628 0.0
H985 H 0.91617 0.075 0.35242 0.0
H986 H 0.9575 0.08768 0.32872 0.0
H987 H 0.98313 0.02688 0.35701 0.0
H988 H 0.94219 0.01418 0.38106 0.0
H989 H 0.74746 0.92935 0.38992 0.0
H990 H 0.79333 0.98092 0.39052 0.0
H991 H 0.85116 0.94062 0.40267 0.0
H992 H 0.80487 0.88818 0.40188 0.0
H993 H 0.87801 0.98737 0.37606 0.0
H994 H 0.83529 0.97648 0.43773 0.0
H995 H 0.79459 0.96348 0.46192 0.0
H996 H 0.77652 0.03353 0.43936 0.0
H997 H 0.8168 0.04665 0.41483 0.0
C998 C 0.97719 0.13709 0.39392 0.0
C999 C 0.96724 0.15798 0.38806 0.0
C1000 C 0.95582 0.10513 0.39574 0.0
C1001 C 0.92407 0.09347 0.3919 0.0
C1002 C 0.91409 0.11416 0.38604 0.0
C1003 C 0.93541 0.14594 0.38399 0.0
C1004 C 0.90088 0.05982 0.39415 0.0
C1005 C 0.87683 0.0513 0.40743 0.0
C1006 C 0.90184 0.03636 0.38312 0.0
C1007 C 0.9264 0.04397 0.36867 0.0
C1008 C 0.93082 0.06458 0.3537 0.0
C1009 C 0.95413 0.07171 0.34017 0.0
C1010 C 0.973 0.05818 0.34139 0.0
C1011 C 0.96854 0.0374 0.35611 0.0
C1012 C 0.94528 0.03022 0.36968 0.0
C1013 C 0.76983 0.9312 0.39276 0.0
C1014 C 0.77233 0.90446 0.39599 0.0
C1015 C 0.79612 0.96087 0.39316 0.0
C1016 C 0.82567 0.96477 0.39697 0.0
C1017 C 0.82854 0.93818 0.39983 0.0
C1018 C 0.80206 0.90825 0.39942 0.0
C1019 C 0.85317 0.99683 0.39781 0.0
C1020 C 0.87805 1.00511 0.38516 0.0
C1021 C 0.85319 0.02012 0.40958 0.0
C1022 C 0.82897 1.01241 0.42435 0.0
C1023 C 0.82249 0.98897 0.43783 0.0
C1024 C 0.79951 0.9816 0.45162 0.0
C1025 C 0.78294 0.99764 0.45216 0.0
C1026 C 0.78937 0.02112 0.43892 0.0
C1027 C 0.81231 0.02857 0.42508 0.0
H1028 H 0.76516 0.9919 0.46285 0.0
H1029 H 0.99103 0.06372 0.3309 0.0
H1030 H 0.83106 0.7305 0.89508 0.0
H1031 H 0.82262 0.77478 0.893 0.0
H1032 H 0.92133 0.8367 0.88556 0.0
H1033 H 0.93017 0.79213 0.88803 0.0
H1034 H 0.89592 0.86272 0.90848 0.0
H1035 H 0.87293 0.81406 0.84742 0.0
H1036 H 0.84863 0.77046 0.82461 0.0
H1037 H 0.75774 0.75201 0.8418 0.0
H1038 H 0.78148 0.79522 0.86494 0.0
H1039 H 0.87209 0.98469 0.8712 0.0
H1040 H 0.88729 0.94496 0.8756 0.0
H1041 H 0.79147 0.87604 0.88666 0.0
H1042 H 0.77607 0.91556 0.88207 0.0
H1043 H 0.81909 0.85596 0.86065 0.0
H1044 H 0.8429 0.90434 0.92241 0.0
H1045 H 0.86782 0.94847 0.94483 0.0
H1046 H 0.95822 0.96853 0.92542 0.0
H1047 H 0.93382 0.92478 0.90267 0.0
C1048 C 0.85111 0.75349 0.89306 0.0
C1049 C 0.8813 0.75766 0.89149 0.0
C1050 C 0.84619 0.77885 0.89183 0.0
C1051 C 0.87122 0.80903 0.8887 0.0
C1052 C 0.90161 0.81358 0.88785 0.0
C1053 C 0.90663 0.78809 0.88924 0.0
C1054 C 0.86513 0.83534 0.8858 0.0
C1055 C 0.87952 0.86149 0.89781 0.0
C1056 C 0.84339 0.83361 0.87205 0.0
C1057 C 0.829 0.80775 0.85803 0.0
C1058 C 0.84775 0.80058 0.84643 0.0
C1059 C 0.83408 0.77595 0.83343 0.0
C1060 C 0.80166 0.75844 0.83178 0.0
C1061 C 0.78285 0.76558 0.8431 0.0
C1062 C 0.7964 0.79016 0.85615 0.0
C1063 C 0.85426 0.96106 0.87457 0.0
C1064 C 0.82285 0.95327 0.87625 0.0
C1065 C 0.86302 0.93844 0.87722 0.0
C1066 C 0.84055 0.90755 0.88156 0.0
C1067 C 0.80922 0.89975 0.88336 0.0
C1068 C 0.80048 0.9224 0.88086 0.0
C1069 C 0.84943 0.88305 0.88353 0.0
C1070 C 0.83561 0.85726 0.87126 0.0
C1071 C 0.87181 0.88529 0.89694 0.0
C1072 C 0.88652 0.91149 0.91068 0.0
C1073 C 0.86809 0.91833 0.9228 0.0
C1074 C 0.88212 0.94324 0.9356 0.0
C1075 C 0.91458 0.96134 0.93651 0.0
C1076 C 0.93307 0.95451 0.92467 0.0
C1077 C 0.91916 0.92965 0.91184 0.0
H1078 H 0.92539 0.98062 0.94643 0.0
H1079 H 0.79112 0.73937 0.82171 0.0
H1080 H 0.12872 0.71497 0.15112 0.0
H1081 H 0.13172 0.66682 0.15174 0.0
H1082 H 0.13732 0.66812 0.09056 0.0
H1083 H 0.13476 0.71619 0.08985 0.0
H1084 H 0.0979 0.60815 0.10548 0.0
H1085 H 0.20171 0.6956 0.11449 0.0
H1086 H 0.24128 0.74337 0.13058 0.0
H1087 H 0.22578 0.69246 0.18264 0.0
H1088 H 0.18573 0.64445 0.1669 0.0
H1089 H 0.16176 0.51286 0.08314 0.0
H1090 H 0.15269 0.55674 0.08668 0.0
H1091 H 0.16195 0.55409 0.14749 0.0
H1092 H 0.17236 0.51087 0.14401 0.0
H1093 H 0.19086 0.61296 0.13559 0.0
H1094 H 0.08985 0.52443 0.12624 0.0
H1095 H 0.0495 0.47672 0.11049 0.0
H1096 H 0.05836 0.52894 0.05988 0.0
H1097 H 0.09909 0.57692 0.07524 0.0
C1098 C 0.13 0.70463 0.13781 0.0
C1099 C 0.13155 0.71939 0.12044 0.0
C1100 C 0.13192 0.67726 0.13818 0.0
C1101 C 0.13499 0.664 0.12119 0.0
C1102 C 0.13497 0.6779 0.10383 0.0
C1103 C 0.13357 0.70542 0.10347 0.0
C1104 C 0.13989 0.63663 0.12134 0.0
C1105 C 0.1183 0.60922 0.11197 0.0
C1106 C 0.16616 0.6378 0.13016 0.0
C1107 C 0.19047 0.66653 0.13958 0.0
C1108 C 0.20655 0.69465 0.12941 0.0
C1109 C 0.2291 0.72176 0.13845 0.0
C1110 C 0.23597 0.72098 0.15764 0.0
C1111 C 0.22039 0.69304 0.16779 0.0
C1112 C 0.19777 0.66587 0.15881 0.0
C1113 C 0.16234 0.52181 0.09728 0.0
C1114 C 0.16777 0.50812 0.11329 0.0
C1115 C 0.15673 0.54674 0.0993 0.0
C1116 C 0.15605 0.55849 0.11739 0.0
C1117 C 0.16212 0.54537 0.13339 0.0
C1118 C 0.16782 0.52044 0.13137 0.0
C1119 C 0.14899 0.58439 0.11952 0.0
C1120 C 0.17023 0.61162 0.12929 0.0
C1121 C 0.12228 0.583 0.11113 0.0
C1122 C 0.09772 0.55422 0.10185 0.0
C1123 C 0.08336 0.52571 0.11171 0.0
C1124 C 0.06039 0.49862 0.10286 0.0
C1125 C 0.05142 0.49979 0.08419 0.0
C1126 C 0.06535 0.52807 0.07434 0.0
C1127 C 0.08836 0.55522 0.08312 0.0
H1128 H 0.03363 0.47879 0.07736 0.0
H1129 H 0.25342 0.74199 0.16462 0.0
H1130 H 0.68179 0.20367 0.60253 0.0
H1131 H 0.62896 0.19457 0.60733 0.0
H1132 H 0.59763 0.09899 0.62249 0.0
H1133 H 0.65043 0.1078 0.61739 0.0
H1134 H 0.55697 0.10413 0.59782 0.0
H1135 H 0.60786 0.14999 0.65665 0.0
H1136 H 0.64961 0.18911 0.67704 0.0
H1137 H 0.63253 0.2603 0.65531 0.0
H1138 H 0.59098 0.22169 0.63456 0.0
H1139 H 0.4085 0.08431 0.6274 0.0
H1140 H 0.45806 0.08412 0.62672 0.0
H1141 H 0.50751 0.18343 0.6169 0.0
H1142 H 0.45881 0.18394 0.61807 0.0
H1143 H 0.53751 0.17073 0.64206 0.0
H1144 H 0.49129 0.12725 0.58093 0.0
H1145 H 0.45048 0.08932 0.55951 0.0
H1146 H 0.45932 0.01503 0.58461 0.0
H1147 H 0.49992 0.0525 0.60635 0.0
C1148 C 0.66365 0.18066 0.6068 0.0
C1149 C 0.6704 0.1565 0.60962 0.0
C1150 C 0.63349 0.17554 0.60967 0.0
C1151 C 0.60934 0.14615 0.61544 0.0
C1152 C 0.61589 0.12187 0.6181 0.0
C1153 C 0.64614 0.12703 0.61533 0.0
C1154 C 0.57735 0.14096 0.61861 0.0
C1155 C 0.55257 0.11832 0.60773 0.0
C1156 C 0.57165 0.15973 0.63135 0.0
C1157 C 0.59645 0.18297 0.64394 0.0
C1158 C 0.61315 0.17403 0.65612 0.0
C1159 C 0.63676 0.1961 0.66776 0.0
C1160 C 0.64376 0.22718 0.66745 0.0
C1161 C 0.6271 0.23622 0.65553 0.0
C1162 C 0.60349 0.21424 0.64384 0.0
C1163 C 0.42997 0.10606 0.62512 0.0
C1164 C 0.42957 0.13412 0.62286 0.0
C1165 C 0.4583 0.10592 0.62466 0.0
C1166 C 0.48666 0.13377 0.62164 0.0
C1167 C 0.48612 0.16166 0.61937 0.0
C1168 C 0.45806 0.16186 0.62001 0.0
C1169 C 0.51716 0.1345 0.62085 0.0
C1170 C 0.54174 0.15627 0.63227 0.0
C1171 C 0.52267 0.1151 0.6085 0.0
C1172 C 0.49835 0.0926 0.59541 0.0
C1173 C 0.48435 0.10279 0.58197 0.0
C1174 C 0.46129 0.08139 0.56976 0.0
C1175 C 0.45224 0.04977 0.57074 0.0
C1176 C 0.4663 0.03951 0.5839 0.0
C1177 C 0.48934 0.06082 0.59616 0.0
H1178 H 0.43439 0.03324 0.56127 0.0
H1179 H 0.66205 0.24424 0.67647 0.0
H1180 H 0.5549 0.64956 0.11082 0.0
H1181 H 0.5097 0.59769 0.11531 0.0
H1182 H 0.44975 0.6377 0.11745 0.0
H1183 H 0.495 0.6898 0.113 0.0
H1184 H 0.43266 0.59348 0.14381 0.0
H1185 H 0.45558 0.60106 0.07716 0.0
H1186 H 0.48829 0.6104 0.04876 0.0
H1187 H 0.50433 0.53599 0.06518 0.0
H1188 H 0.47205 0.52649 0.09384 0.0
H1189 H 0.28771 0.46042 0.1206 0.0
H1190 H 0.33599 0.51055 0.12091 0.0
H1191 H 0.38912 0.4634 0.12565 0.0
H1192 H 0.34058 0.41277 0.12548 0.0
H1193 H 0.41114 0.50968 0.09721 0.0
H1194 H 0.38448 0.50029 0.16311 0.0
H1195 H 0.35009 0.49081 0.19066 0.0
H1196 H 0.33936 0.56869 0.1747 0.0
H1197 H 0.37334 0.57837 0.14687 0.0
C1198 C 0.53208 0.64736 0.11214 0.0
C1199 C 0.5286 0.6739 0.11134 0.0
C1200 C 0.50622 0.61762 0.11473 0.0
C1201 C 0.47615 0.61361 0.11642 0.0
C1202 C 0.47267 0.64013 0.11616 0.0
C1203 C 0.49859 0.66994 0.11365 0.0
C1204 C 0.44834 0.58176 0.11816 0.0
C1205 C 0.42782 0.57529 0.1335 0.0
C1206 C 0.44227 0.55765 0.10498 0.0
C1207 C 0.46169 0.5633 0.08776 0.0
C1208 C 0.4663 0.58686 0.0748 0.0
C1209 C 0.48472 0.59216 0.05864 0.0
C1210 C 0.49846 0.57386 0.0552 0.0
C1211 C 0.49373 0.55018 0.06789 0.0
C1212 C 0.47535 0.54482 0.08408 0.0
C1213 C 0.30961 0.4606 0.12183 0.0
C1214 C 0.31023 0.4325 0.123 0.0
C1215 C 0.33723 0.48935 0.12208 0.0
C1216 C 0.3662 0.49078 0.1234 0.0
C1217 C 0.36701 0.46284 0.12466 0.0
C1218 C 0.33926 0.43394 0.12466 0.0
C1219 C 0.39547 0.52155 0.12277 0.0
C1220 C 0.41619 0.52782 0.10761 0.0
C1221 C 0.40158 0.54552 0.13602 0.0
C1222 C 0.38126 0.53989 0.1528 0.0
C1223 C 0.37459 0.51525 0.16538 0.0
C1224 C 0.35521 0.50986 0.18106 0.0
C1225 C 0.34249 0.52909 0.1844 0.0
C1226 C 0.34921 0.5538 0.17208 0.0
C1227 C 0.36856 0.55926 0.15636 0.0
H1228 H 0.32749 0.52489 0.19655 0.0
H1229 H 0.5127 0.57799 0.04267 0.0
H1230 H 0.91777 0.54412 0.5919 0.0
H1231 H 0.92562 0.49937 0.59523 0.0
H1232 H 0.83351 0.44545 0.61912 0.0
H1233 H 0.82547 0.4902 0.61581 0.0
H1234 H 0.87412 0.43579 0.63864 0.0
H1235 H 0.84943 0.43576 0.57262 0.0
H1236 H 0.85522 0.45801 0.54054 0.0
H1237 H 0.94854 0.47355 0.53717 0.0
H1238 H 0.94345 0.45176 0.56937 0.0
H1239 H 0.84439 0.28244 0.62498 0.0
H1240 H 0.84507 0.33188 0.62361 0.0
H1241 H 0.94013 0.37754 0.60375 0.0
H1242 H 0.93963 0.32759 0.60498 0.0
H1243 H 0.90297 0.39394 0.58289 0.0
H1244 H 0.92533 0.38958 0.64847 0.0
H1245 H 0.91771 0.36538 0.68009 0.0
H1246 H 0.82708 0.35658 0.68396 0.0
H1247 H 0.83395 0.3803 0.65223 0.0
C1248 C 0.89903 0.52267 0.59772 0.0
C1249 C 0.87085 0.52075 0.60343 0.0
C1250 C 0.9036 0.49708 0.59965 0.0
C1251 C 0.88002 0.46881 0.6072 0.0
C1252 C 0.85209 0.46698 0.61326 0.0
C1253 C 0.84753 0.49263 0.61139 0.0
C1254 C 0.88438 0.44112 0.60868 0.0
C1255 C 0.88014 0.42649 0.6264 0.0
C1256 C 0.89307 0.42936 0.59284 0.0
C1257 C 0.89618 0.44246 0.57349 0.0
C1258 C 0.87128 0.44416 0.5651 0.0
C1259 C 0.87442 0.45665 0.54689 0.0
C1260 C 0.90226 0.46728 0.53685 0.0
C1261 C 0.927 0.46536 0.54498 0.0
C1262 C 0.924 0.45293 0.56321 0.0
C1263 C 0.86558 0.30292 0.62037 0.0
C1264 C 0.89201 0.30096 0.61511 0.0
C1265 C 0.86595 0.3313 0.61969 0.0
C1266 C 0.89273 0.35856 0.61378 0.0
C1267 C 0.91922 0.35682 0.60844 0.0
C1268 C 0.91895 0.3283 0.60923 0.0
C1269 C 0.89238 0.38847 0.61279 0.0
C1270 C 0.89731 0.40348 0.59517 0.0
C1271 C 0.88416 0.40048 0.62869 0.0
C1272 C 0.88008 0.38653 0.6479 0.0
C1273 C 0.90368 0.3823 0.65601 0.0
C1274 C 0.89951 0.36869 0.67396 0.0
C1275 C 0.87191 0.35939 0.68401 0.0
C1276 C 0.84845 0.36378 0.67615 0.0
C1277 C 0.85249 0.37735 0.65819 0.0
H1278 H 0.86871 0.34884 0.6979 0.0
H1279 H 0.90464 0.47692 0.52274 0.0
H1280 H 0.6262 0.9368 0.1402 0.0
H1281 H 0.57608 0.93614 0.14081 0.0
H1282 H 0.5292 0.84089 0.12103 0.0
H1283 H 0.57845 0.84142 0.12024 0.0
H1284 H 0.51368 0.8753 0.0998 0.0
H1285 H 0.52262 0.86063 0.16696 0.0
H1286 H 0.54763 0.87489 0.19851 0.0
H1287 H 0.54344 0.95952 0.19775 0.0
H1288 H 0.51879 0.94596 0.16606 0.0
H1289 H 0.3542 0.81451 0.11106 0.0
H1290 H 0.40746 0.82575 0.11658 0.0
H1291 H 0.43468 0.92038 0.13189 0.0
H1292 H 0.38104 0.90925 0.1263 0.0
H1293 H 0.46331 0.89503 0.15491 0.0
H1294 H 0.45067 0.90714 0.08854 0.0
H1295 H 0.42466 0.89168 0.05733 0.0
H1296 H 0.43607 0.81114 0.05672 0.0
H1297 H 0.46173 0.82586 0.08808 0.0
C1298 C 0.60511 0.91565 0.13622 0.0
C1299 C 0.60649 0.88933 0.12994 0.0
C1300 C 0.57647 0.91527 0.13658 0.0
C1301 C 0.54879 0.88849 0.13083 0.0
C1302 C 0.55017 0.86195 0.12532 0.0
C1303 C 0.57851 0.86234 0.12488 0.0
C1304 C 0.51841 0.88792 0.12943 0.0
C1305 C 0.50267 0.87945 0.11192 0.0
C1306 C 0.50432 0.89429 0.14503 0.0
C1307 C 0.51921 0.90247 0.16404 0.0
C1308 C 0.52731 0.88243 0.17344 0.0
C1309 C 0.54136 0.89035 0.19136 0.0
C1310 C 0.54719 0.91813 0.20011 0.0
C1311 C 0.53895 0.93803 0.19095 0.0
C1312 C 0.52493 0.93024 0.17301 0.0
C1313 C 0.37144 0.83775 0.11561 0.0
C1314 C 0.3634 0.86112 0.11791 0.0
C1315 C 0.40191 0.84411 0.11884 0.0
C1316 C 0.42527 0.87408 0.12434 0.0
C1317 C 0.41709 0.89712 0.1276 0.0
C1318 C 0.38642 0.89071 0.1244 0.0
C1319 C 0.45834 0.88136 0.12547 0.0
C1320 C 0.47457 0.89124 0.14279 0.0
C1321 C 0.47303 0.87622 0.10971 0.0
C1322 C 0.45795 0.86751 0.09073 0.0
C1323 C 0.44747 0.88603 0.08181 0.0
C1324 C 0.4328 0.87741 0.06408 0.0
C1325 C 0.42867 0.85042 0.05506 0.0
C1326 C 0.43927 0.83204 0.06373 0.0
C1327 C 0.45391 0.84052 0.08147 0.0
H1328 H 0.41729 0.84378 0.04135 0.0
H1329 H 0.55799 0.92419 0.214 0.0
H1330 H 0.70581 0.60738 0.64286 0.0
H1331 H 0.65695 0.55709 0.64308 0.0
H1332 H 0.69182 0.52408 0.59777 0.0
H1333 H 0.74022 0.5738 0.59738 0.0
H1334 H 0.63243 0.51046 0.59104 0.0
H1335 H 0.69112 0.50166 0.64327 0.0
H1336 H 0.71961 0.51787 0.67369 0.0
H1337 H 0.63775 0.50741 0.70159 0.0
H1338 H 0.60889 0.49156 0.67125 0.0
H1339 H 0.53761 0.34792 0.58995 0.0
H1340 H 0.58173 0.40063 0.5937 0.0
H1341 H 0.5345 0.41733 0.63984 0.0
H1342 H 0.49004 0.36442 0.63613 0.0
H1343 H 0.59608 0.44172 0.6477 0.0
H1344 H 0.53609 0.44678 0.59625 0.0
H1345 H 0.50734 0.431 0.56592 0.0
H1346 H 0.59096 0.44952 0.5366 0.0
H1347 H 0.62013 0.46496 0.56682 0.0
C1348 C 0.70302 0.58943 0.63292 0.0
C1349 C 0.72706 0.59474 0.62013 0.0
C1350 C 0.67513 0.56064 0.63312 0.0
C1351 C 0.67075 0.53671 0.62049 0.0
C1352 C 0.69458 0.54215 0.60762 0.0
C1353 C 0.72238 0.57068 0.60749 0.0
C1354 C 0.64151 0.50587 0.62043 0.0
C1355 C 0.62462 0.49536 0.6034 0.0
C1356 C 0.63071 0.48649 0.6367 0.0
C1357 C 0.64797 0.49579 0.65495 0.0
C1358 C 0.67927 0.50307 0.65586 0.0
C1359 C 0.69547 0.51215 0.67309 0.0
C1360 C 0.68053 0.51377 0.68955 0.0
C1361 C 0.64931 0.5062 0.68882 0.0
C1362 C 0.63302 0.49716 0.67162 0.0
C1363 C 0.53648 0.36279 0.60086 0.0
C1364 C 0.51006 0.35197 0.61259 0.0
C1365 C 0.56179 0.39296 0.60301 0.0
C1366 C 0.56127 0.41322 0.61683 0.0
C1367 C 0.53544 0.40219 0.62904 0.0
C1368 C 0.51006 0.37189 0.62692 0.0
C1369 C 0.58747 0.44603 0.61814 0.0
C1370 C 0.6037 0.45693 0.63539 0.0
C1371 C 0.59765 0.46591 0.60208 0.0
C1372 C 0.58024 0.45679 0.58384 0.0
C1373 C 0.5483 0.44727 0.58336 0.0
C1374 C 0.53194 0.43842 0.56618 0.0
C1375 C 0.5473 0.4392 0.54935 0.0
C1376 C 0.57908 0.4489 0.54965 0.0
C1377 C 0.59555 0.45774 0.5668 0.0
H1378 H 0.53459 0.43234 0.53606 0.0
H1379 H 0.69311 0.5208 0.70288 0.0
H1380 H 0.2955 0.85193 0.40681 0.0
H1381 H 0.34548 0.854 0.40689 0.0
H1382 H 0.3812 0.92894 0.36613 0.0
H1383 H 0.33057 0.92716 0.36591 0.0
H1384 H 0.39662 0.88099 0.3583 0.0
H1385 H 0.40423 0.948 0.40934 0.0
H1386 H 0.38627 0.96323 0.43798 0.0
H1387 H 0.38321 0.88694 0.46884 0.0
H1388 H 0.40068 0.87091 0.44028 0.0
H1389 H 0.54954 0.90276 0.37506 0.0
H1390 H 0.50527 0.91121 0.37048 0.0
H1391 H 0.4562 0.8472 0.41617 0.0
H1392 H 0.50039 0.83882 0.42088 0.0
H1393 H 0.45177 0.89799 0.41986 0.0
H1394 H 0.43801 0.8275 0.36844 0.0
H1395 H 0.45372 0.81012 0.33973 0.0
H1396 H 0.46705 0.8914 0.30971 0.0
H1397 H 0.4518 0.90947 0.33834 0.0
C1398 C 0.31379 0.86893 0.39776 0.0
C1399 C 0.30893 0.88955 0.38641 0.0
C1400 C 0.34248 0.87008 0.3979 0.0
C1401 C 0.36717 0.89185 0.38671 0.0
C1402 C 0.36241 0.91204 0.37494 0.0
C1403 C 0.33353 0.91104 0.37487 0.0
C1404 C 0.39781 0.89323 0.38777 0.0
C1405 C 0.40914 0.8854 0.37164 0.0
C1406 C 0.41371 0.89836 0.40529 0.0
C1407 C 0.4036 0.90814 0.42261 0.0
C1408 C 0.39954 0.93433 0.42219 0.0
C1409 C 0.38947 0.94313 0.43841 0.0
C1410 C 0.38357 0.92604 0.4552 0.0
C1411 C 0.3878 0.90015 0.45581 0.0
C1412 C 0.39783 0.89123 0.43962 0.0
C1413 C 0.52916 0.8902 0.38398 0.0
C1414 C 0.52851 0.8701 0.39834 0.0
C1415 C 0.50387 0.89509 0.38136 0.0
C1416 C 0.47725 0.87971 0.3929 0.0
C1417 C 0.47651 0.85948 0.40715 0.0
C1418 C 0.50181 0.85472 0.40984 0.0
C1419 C 0.4503 0.88495 0.39048 0.0
C1420 C 0.43963 0.89405 0.40641 0.0
C1421 C 0.43498 0.88086 0.3728 0.0
C1422 C 0.44413 0.87001 0.35559 0.0
C1423 C 0.44455 0.84179 0.35576 0.0
C1424 C 0.45332 0.83179 0.3395 0.0
C1425 C 0.46148 0.84969 0.32292 0.0
C1426 C 0.46079 0.87759 0.32256 0.0
C1427 C 0.45207 0.88771 0.3388 0.0
H1428 H 0.46825 0.84191 0.31034 0.0
H1429 H 0.37577 0.93289 0.46774 0.0
H1430 H 0.68642 0.48266 0.91323 0.0
H1431 H 0.63391 0.43839 0.90864 0.0
H1432 H 0.60785 0.49734 0.87797 0.0
H1433 H 0.6603 0.54197 0.88282 0.0
H1434 H 0.56294 0.46003 0.90369 0.0
H1435 H 0.62085 0.4464 0.85396 0.0
H1436 H 0.66432 0.44234 0.83988 0.0
H1437 H 0.64123 0.36229 0.87453 0.0
H1438 H 0.59788 0.36614 0.88902 0.0
H1439 H 0.41733 0.32543 0.87642 0.0
H1440 H 0.46792 0.37386 0.8748 0.0
H1441 H 0.51149 0.32819 0.90313 0.0
H1442 H 0.46177 0.28013 0.90453 0.0
H1443 H 0.5466 0.36161 0.87455 0.0
H1444 H 0.49274 0.37835 0.92659 0.0
H1445 H 0.44977 0.3824 0.94146 0.0
H1446 H 0.46548 0.4563 0.9031 0.0
H1447 H 0.50832 0.45238 0.88782 0.0
C1448 C 0.66951 0.48628 0.90558 0.0
C1449 C 0.67765 0.51589 0.89836 0.0
C1450 C 0.63953 0.46087 0.90283 0.0
C1451 C 0.61696 0.46442 0.89279 0.0
C1452 C 0.62488 0.49399 0.8857 0.0
C1453 C 0.65496 0.51941 0.88835 0.0
C1454 C 0.58508 0.43724 0.88992 0.0
C1455 C 0.55928 0.43868 0.897 0.0
C1456 C 0.58028 0.40921 0.88143 0.0
C1457 C 0.60625 0.40672 0.87268 0.0
C1458 C 0.62518 0.42807 0.85868 0.0
C1459 C 0.64978 0.42578 0.85061 0.0
C1460 C 0.65558 0.40211 0.85633 0.0
C1461 C 0.63673 0.38063 0.87011 0.0
C1462 C 0.61211 0.38283 0.87824 0.0
C1463 C 0.43772 0.32571 0.88224 0.0
C1464 C 0.43529 0.29878 0.89066 0.0
C1465 C 0.46662 0.35346 0.88138 0.0
C1466 C 0.49358 0.35481 0.88898 0.0
C1467 C 0.49116 0.32783 0.89712 0.0
C1468 C 0.4625 0.30027 0.89798 0.0
C1469 C 0.52448 0.38408 0.88874 0.0
C1470 C 0.55015 0.38306 0.88103 0.0
C1471 C 0.52914 0.4124 0.89673 0.0
C1472 C 0.50346 0.41481 0.90591 0.0
C1473 C 0.48686 0.39528 0.92122 0.0
C1474 C 0.46256 0.39759 0.92974 0.0
C1475 C 0.45483 0.41952 0.92318 0.0
C1476 C 0.47145 0.43927 0.90813 0.0
C1477 C 0.49574 0.43702 0.89954 0.0
H1478 H 0.43602 0.42128 0.9298 0.0
H1479 H 0.67463 0.40038 0.85007 0.0
H1480 H 0.21909 0.68797 0.39761 0.0
H1481 H 0.21327 0.63647 0.39217 0.0
H1482 H 0.11348 0.59628 0.38876 0.0
H1483 H 0.11915 0.64766 0.39427 0.0
H1484 H 0.12698 0.56144 0.41052 0.0
H1485 H 0.15846 0.60641 0.34882 0.0
H1486 H 0.19125 0.64606 0.32518 0.0
H1487 H 0.26926 0.63531 0.34069 0.0
H1488 H 0.23706 0.5959 0.36463 0.0
H1489 H 0.10201 0.41288 0.38003 0.0
H1490 H 0.10362 0.46325 0.37899 0.0
H1491 H 0.20293 0.51094 0.38836 0.0
H1492 H 0.20159 0.46101 0.3894 0.0
H1493 H 0.18635 0.54051 0.3615 0.0
H1494 H 0.15517 0.49832 0.42474 0.0
H1495 H 0.12197 0.45833 0.44811 0.0
H1496 H 0.04243 0.46371 0.42896 0.0
H1497 H 0.0751 0.50343 0.40525 0.0
C1498 C 0.19594 0.66824 0.39546 0.0
C1499 C 0.1696 0.67197 0.39642 0.0
C1500 C 0.19262 0.63877 0.39234 0.0
C1501 C 0.16292 0.61243 0.38987 0.0
C1502 C 0.13663 0.61616 0.39067 0.0
C1503 C 0.13991 0.64557 0.39387 0.0
C1504 C 0.1592 0.58085 0.38713 0.0
C1505 C 0.13955 0.55678 0.39956 0.0
C1506 C 0.17595 0.57474 0.37305 0.0
C1507 C 0.1954 0.59839 0.35864 0.0
C1508 C 0.18267 0.61267 0.3473 0.0
C1509 C 0.20114 0.63508 0.33382 0.0
C1510 C 0.23234 0.64325 0.33146 0.0
C1511 C 0.2451 0.62898 0.34254 0.0
C1512 C 0.22674 0.60659 0.35606 0.0
C1513 C 0.12423 0.43411 0.38163 0.0
C1514 C 0.15161 0.43286 0.38496 0.0
C1515 C 0.1251 0.46287 0.38111 0.0
C1516 C 0.15337 0.49086 0.38379 0.0
C1517 C 0.18086 0.48968 0.38629 0.0
C1518 C 0.17999 0.46104 0.38697 0.0
C1519 C 0.15435 0.52137 0.38495 0.0
C1520 C 0.17353 0.5452 0.37228 0.0
C1521 C 0.1371 0.52726 0.39875 0.0
C1522 C 0.11749 0.50356 0.41308 0.0
C1523 C 0.13054 0.49078 0.42541 0.0
C1524 C 0.11184 0.4682 0.43873 0.0
C1525 C 0.08009 0.45841 0.43998 0.0
C1526 C 0.06701 0.47127 0.42794 0.0
C1527 C 0.08561 0.49382 0.41457 0.0
H1528 H 0.06565 0.44093 0.45031 0.0
H1529 H 0.2466 0.6606 0.32102 0.0
H1530 H 0.7069 0.1015 0.86034 0.0
H1531 H 0.65855 0.10402 0.86102 0.0
H1532 H 0.68207 0.14507 0.91698 0.0
H1533 H 0.72968 0.1422 0.91655 0.0
H1534 H 0.6221 0.10338 0.91549 0.0
H1535 H 0.69473 0.1893 0.8764 0.0
H1536 H 0.73045 0.21318 0.84928 0.0
H1537 H 0.65533 0.16035 0.81038 0.0
H1538 H 0.61923 0.13583 0.83731 0.0
H1539 H 0.5342 0.17847 0.92674 0.0
H1540 H 0.57715 0.1682 0.9221 0.0
H1541 H 0.53942 0.12645 0.86761 0.0
H1542 H 0.49609 0.13644 0.87221 0.0
H1543 H 0.60274 0.16315 0.86605 0.0
H1544 H 0.52917 0.08064 0.90573 0.0
H1545 H 0.49404 0.05769 0.9332 0.0
H1546 H 0.57161 0.10483 0.97133 0.0
H1547 H 0.60716 0.12844 0.94409 0.0
C1548 C 0.70153 0.11067 0.87287 0.0
C1549 C 0.7223 0.12172 0.88835 0.0
C1550 C 0.67399 0.11233 0.87319 0.0
C1551 C 0.66676 0.12511 0.88897 0.0
C1552 C 0.68701 0.13514 0.90463 0.0
C1553 C 0.71439 0.13354 0.90432 0.0
C1554 C 0.63866 0.12891 0.88929 0.0
C1555 C 0.61802 0.11662 0.90472 0.0
C1556 C 0.63278 0.14556 0.87505 0.0
C1557 C 0.65437 0.16047 0.85886 0.0
C1558 C 0.68588 0.18261 0.86206 0.0
C1559 C 0.70619 0.19628 0.84673 0.0
C1560 C 0.69519 0.18821 0.82812 0.0
C1561 C 0.66383 0.16653 0.82481 0.0
C1562 C 0.64343 0.15274 0.8401 0.0
C1563 C 0.53487 0.16696 0.91379 0.0
C1564 C 0.51139 0.15803 0.89994 0.0
C1565 C 0.55954 0.16114 0.91114 0.0
C1566 C 0.56132 0.14605 0.89464 0.0
C1567 C 0.53855 0.13804 0.88048 0.0
C1568 C 0.51382 0.14389 0.88311 0.0
C1569 C 0.58661 0.13817 0.89246 0.0
C1570 C 0.60665 0.14963 0.8767 0.0
C1571 C 0.59207 0.12085 0.90644 0.0
C1572 C 0.57079 0.1065 0.92286 0.0
C1573 C 0.53871 0.08628 0.91998 0.0
C1574 C 0.51872 0.07313 0.93551 0.0
C1575 C 0.53058 0.07985 0.954 0.0
C1576 C 0.56246 0.09967 0.957 0.0
C1577 C 0.58254 0.11291 0.94152 0.0
H1578 H 0.51506 0.06965 0.96601 0.0
H1579 H 0.71094 0.19882 0.81626 0.0
H1580 H 0.35048 0.54081 0.40323 0.0
H1581 H 0.40185 0.58669 0.39838 0.0
H1582 H 0.44064 0.52715 0.38725 0.0
H1583 H 0.38934 0.48117 0.3921 0.0
H1584 H 0.47772 0.57266 0.41044 0.0
H1585 H 0.42841 0.5672 0.35122 0.0
H1586 H 0.38713 0.56334 0.32987 0.0
H1587 H 0.39929 0.64976 0.35182 0.0
H1588 H 0.44035 0.65392 0.37351 0.0
H1589 H 0.62412 0.70113 0.37997 0.0
H1590 H 0.57407 0.65206 0.37905 0.0
H1591 H 0.52636 0.70136 0.39549 0.0
H1592 H 0.57588 0.75016 0.39643 0.0
H1593 H 0.49532 0.65901 0.36713 0.0
H1594 H 0.5421 0.6617 0.42793 0.0
H1595 H 0.58378 0.66543 0.44887 0.0
H1596 H 0.57669 0.58348 0.42296 0.0
H1597 H 0.53526 0.57955 0.40166 0.0
C1598 C 0.36984 0.53745 0.3995 0.0
C1599 C 0.36569 0.50723 0.39806 0.0
C1600 C 0.39927 0.56374 0.39674 0.0
C1601 C 0.4252 0.56048 0.39226 0.0
C1602 C 0.42109 0.53035 0.39074 0.0
C1603 C 0.39171 0.50405 0.39356 0.0
C1604 C 0.45669 0.58848 0.38968 0.0
C1605 C 0.48164 0.59126 0.4007 0.0
C1606 C 0.4619 0.61307 0.37718 0.0
C1607 C 0.43728 0.61072 0.36411 0.0
C1608 C 0.42212 0.58526 0.3516 0.0
C1609 C 0.39879 0.58304 0.33942 0.0
C1610 C 0.39054 0.60625 0.33952 0.0
C1611 C 0.40568 0.63178 0.35177 0.0
C1612 C 0.42901 0.63409 0.364 0.0
C1613 C 0.60294 0.70154 0.38324 0.0
C1614 C 0.6041 0.72959 0.38841 0.0
C1615 C 0.57436 0.67346 0.38278 0.0
C1616 C 0.54645 0.67298 0.38735 0.0
C1617 C 0.54753 0.7011 0.39191 0.0
C1618 C 0.57598 0.72901 0.39254 0.0
C1619 C 0.51609 0.64324 0.38804 0.0
C1620 C 0.49139 0.64019 0.37669 0.0
C1621 C 0.51114 0.61835 0.40015 0.0
C1622 C 0.53585 0.62055 0.41305 0.0
C1623 C 0.54961 0.64463 0.42659 0.0
C1624 C 0.57315 0.64676 0.43854 0.0
C1625 C 0.58295 0.62477 0.4372 0.0
C1626 C 0.56913 0.60054 0.42395 0.0
C1627 C 0.54561 0.59834 0.41194 0.0
H1628 H 0.60119 0.62646 0.44646 0.0
H1629 H 0.37247 0.60449 0.33008 0.0
H1630 H 0.94553 0.61384 0.88245 0.0
H1631 H 0.94372 0.5633 0.88219 0.0
H1632 H 0.84324 0.51605 0.87962 0.0
H1633 H 0.84499 0.5661 0.88067 0.0
H1634 H 0.85813 0.48967 0.90502 0.0
H1635 H 0.89216 0.52051 0.84085 0.0
H1636 H 0.92602 0.5551 0.81542 0.0
H1637 H 1.00405 0.55104 0.8388 0.0
H1638 H 0.97072 0.51672 0.86452 0.0
H1639 H 0.82468 0.33664 0.88339 0.0
H1640 H 0.83266 0.38922 0.87937 0.0
H1641 H 0.9296 0.4284 0.89414 0.0
H1642 H 0.92188 0.37569 0.89799 0.0
H1643 H 0.91932 0.45938 0.86314 0.0
H1644 H 0.88185 0.42609 0.92702 0.0
H1645 H 0.84556 0.39012 0.95111 0.0
H1646 H 0.77047 0.39759 0.92603 0.0
H1647 H 0.80624 0.43326 0.90162 0.0
C1648 C 0.92314 0.59263 0.88155 0.0
C1649 C 0.89542 0.59395 0.88169 0.0
C1650 C 0.92208 0.5637 0.88137 0.0
C1651 C 0.8933 0.53561 0.88085 0.0
C1652 C 0.86575 0.53718 0.88022 0.0
C1653 C 0.86678 0.5659 0.88075 0.0
C1654 C 0.89137 0.5045 0.88206 0.0
C1655 C 0.87126 0.48305 0.89563 0.0
C1656 C 0.90896 0.4958 0.8702 0.0
C1657 C 0.92902 0.51631 0.85472 0.0
C1658 C 0.9166 0.52718 0.84065 0.0
C1659 C 0.93568 0.5467 0.82617 0.0
C1660 C 0.96719 0.55533 0.82553 0.0
C1661 C 0.97965 0.54437 0.83933 0.0
C1662 C 0.96067 0.52486 0.85385 0.0
C1663 C 0.84784 0.35638 0.88548 0.0
C1664 C 0.87262 0.35188 0.89106 0.0
C1665 C 0.85232 0.38647 0.8833 0.0
C1666 C 0.88168 0.41279 0.8866 0.0
C1667 C 0.90674 0.40845 0.89154 0.0
C1668 C 0.90223 0.37831 0.89387 0.0
C1669 C 0.88569 0.44469 0.88579 0.0
C1670 C 0.90626 0.46622 0.87244 0.0
C1671 C 0.86815 0.45339 0.89763 0.0
C1672 C 0.84667 0.43213 0.91239 0.0
C1673 C 0.85756 0.41988 0.92656 0.0
C1674 C 0.83709 0.39957 0.94028 0.0
C1675 C 0.80572 0.39152 0.94007 0.0
C1676 C 0.79477 0.40382 0.92616 0.0
C1677 C 0.81514 0.4241 0.91239 0.0
H1678 H 0.78991 0.37579 0.95071 0.0
H1679 H 0.98193 0.57045 0.81431 0.0
H1680 H 0.22462 0.3743 0.3395 0.0
H1681 H 0.23584 0.37857 0.30534 0.0
H1682 H 0.14062 0.35373 0.29335 0.0
H1683 H 0.12905 0.34766 0.32726 0.0
H1684 H 0.15407 0.32366 0.27074 0.0
H1685 H 0.20741 0.4313 0.28845 0.0
H1686 H 0.24382 0.47814 0.30662 0.0
H1687 H 0.32073 0.4677 0.28793 0.0
H1688 H 0.2847 0.42053 0.26984 0.0
H1689 H 0.18459 0.37836 0.17323 0.0
H1690 H 0.17864 0.38289 0.2076 0.0
H1691 H 0.2447 0.3522 0.2188 0.0
H1692 H 0.24998 0.34659 0.18461 0.0
H1693 H 0.24666 0.41224 0.24081 0.0
H1694 H 0.18762 0.29949 0.22576 0.0
H1695 H 0.1492 0.25578 0.20618 0.0
H1696 H 0.08 0.28127 0.21908 0.0
H1697 H 0.11828 0.32549 0.2385 0.0
C1698 C 0.20622 0.36996 0.32952 0.0
C1699 C 0.17596 0.3605 0.33599 0.0
C1700 C 0.21266 0.37259 0.30999 0.0
C1701 C 0.18918 0.36682 0.29663 0.0
C1702 C 0.15914 0.35812 0.30325 0.0
C1703 C 0.15255 0.35472 0.32267 0.0
C1704 C 0.19524 0.36838 0.27577 0.0
C1705 C 0.17418 0.34333 0.26432 0.0
C1706 C 0.22156 0.39379 0.26712 0.0
C1707 C 0.24331 0.4222 0.27794 0.0
C1708 C 0.23206 0.43886 0.28832 0.0
C1709 C 0.25263 0.46549 0.2986 0.0
C1710 C 0.28456 0.47584 0.29848 0.0
C1711 C 0.29598 0.45963 0.28804 0.0
C1712 C 0.2755 0.43296 0.27776 0.0
C1713 C 0.19805 0.3729 0.18303 0.0
C1714 C 0.21756 0.3619 0.17629 0.0
C1715 C 0.19467 0.37553 0.2026 0.0
C1716 C 0.21131 0.36794 0.21563 0.0
C1717 C 0.23179 0.35826 0.20891 0.0
C1718 C 0.2346 0.35489 0.18941 0.0
C1719 C 0.20556 0.36771 0.23626 0.0
C1720 C 0.22662 0.39285 0.2475 0.0
C1721 C 0.17898 0.3428 0.24472 0.0
C1722 C 0.15587 0.31595 0.23336 0.0
C1723 C 0.1643 0.29593 0.22426 0.0
C1724 C 0.14253 0.27103 0.21323 0.0
C1725 C 0.11218 0.2658 0.21133 0.0
C1726 C 0.10352 0.28539 0.22053 0.0
C1727 C 0.12524 0.31035 0.23156 0.0
H1728 H 0.09535 0.24654 0.20277 0.0
H1729 H 0.30045 0.49646 0.30644 0.0
H1730 H 0.81658 0.16466 0.67093 0.0
H1731 H 0.80425 0.1626 0.7048 0.0
H1732 H 0.87939 0.2573 0.7117 0.0
H1733 H 0.8924 0.25907 0.67813 0.0
H1734 H 0.88361 0.22407 0.73802 0.0
H1735 H 0.80015 0.23626 0.71476 0.0
H1736 H 0.75491 0.22537 0.69478 0.0
H1737 H 0.70353 0.13311 0.71813 0.0
H1738 H 0.74864 0.14327 0.73806 0.0
H1739 H 0.84432 0.22046 0.83632 0.0
H1740 H 0.849 0.23683 0.80285 0.0
H1741 H 0.79044 0.14092 0.7859 0.0
H1742 H 0.78608 0.12455 0.81895 0.0
H1743 H 0.77797 0.18267 0.76553 0.0
H1744 H 0.86556 0.16982 0.78475 0.0
H1745 H 0.91102 0.18156 0.80479 0.0
H1746 H 0.9546 0.27804 0.78877 0.0
H1747 H 0.90914 0.26689 0.76884 0.0
C1748 C 0.83016 0.18516 0.67963 0.0
C1749 C 0.85559 0.21192 0.67188 0.0
C1750 C 0.82302 0.18404 0.69899 0.0
C1751 C 0.84077 0.2099 0.71087 0.0
C1752 C 0.86543 0.237 0.70293 0.0
C1753 C 0.87282 0.23797 0.68369 0.0
C1754 C 0.83523 0.20795 0.73178 0.0
C1755 C 0.86057 0.2157 0.74398 0.0
C1756 C 0.80517 0.19668 0.73971 0.0
C1757 C 0.7779 0.19047 0.72781 0.0
C1758 C 0.77929 0.21357 0.71554 0.0
C1759 C 0.75365 0.20754 0.70423 0.0
C1760 C 0.72638 0.17855 0.70516 0.0
C1761 C 0.72468 0.15555 0.71742 0.0
C1762 C 0.75027 0.16145 0.72874 0.0
C1763 C 0.83205 0.20304 0.82545 0.0
C1764 C 0.81519 0.17123 0.83017 0.0
C1765 C 0.83475 0.21237 0.80637 0.0
C1766 C 0.82018 0.19002 0.7919 0.0
C1767 C 0.80181 0.15853 0.79681 0.0
C1768 C 0.79955 0.14921 0.81571 0.0
C1769 C 0.82624 0.19852 0.77149 0.0
C1770 C 0.80103 0.19177 0.75945 0.0
C1771 C 0.85643 0.21097 0.76367 0.0
C1772 C 0.88382 0.21761 0.77552 0.0
C1773 C 0.88473 0.19357 0.78563 0.0
C1774 C 0.9105 0.20011 0.79695 0.0
C1775 C 0.93564 0.23055 0.79811 0.0
C1776 C 0.93508 0.25449 0.7879 0.0
C1777 C 0.90933 0.24808 0.7766 0.0
H1778 H 0.95558 0.23557 0.80687 0.0
H1779 H 0.70656 0.17392 0.69639 0.0
H1780 H 0.62501 0.82732 0.17496 0.0
H1781 H 0.61745 0.81452 0.20905 0.0
H1782 H 0.71708 0.86129 0.21688 0.0
H1783 H 0.72477 0.87448 0.18316 0.0
H1784 H 0.68382 0.8026 0.23569 0.0
H1785 H 0.68163 0.89942 0.22749 0.0
H1786 H 0.66047 0.93064 0.21341 0.0
H1787 H 0.57017 0.86746 0.2364 0.0
H1788 H 0.59076 0.83562 0.25045 0.0
H1789 H 0.72465 0.84389 0.32965 0.0
H1790 H 0.71714 0.84484 0.29554 0.0
H1791 H 0.61921 0.81138 0.30434 0.0
H1792 H 0.62682 0.81122 0.33886 0.0
H1793 H 0.64115 0.85414 0.27674 0.0
H1794 H 0.64433 0.76153 0.28914 0.0
H1795 H 0.6642 0.72891 0.30278 0.0
H1796 H 0.74938 0.78035 0.27138 0.0
H1797 H 0.73023 0.8136 0.25776 0.0
C1798 C 0.64523 0.83447 0.18394 0.0
C1799 C 0.67548 0.85199 0.17643 0.0
C1800 C 0.64089 0.82728 0.20339 0.0
C1801 C 0.66673 0.83711 0.21548 0.0
C1802 C 0.69684 0.85348 0.2078 0.0
C1803 C 0.70119 0.86109 0.18853 0.0
C1804 C 0.66296 0.83171 0.23629 0.0
C1805 C 0.67453 0.81385 0.2447 0.0
C1806 C 0.64987 0.84556 0.24795 0.0
C1807 C 0.63763 0.86497 0.23983 0.0
C1808 C 0.65721 0.89207 0.22944 0.0
C1809 C 0.64534 0.9099 0.22149 0.0
C1810 C 0.61398 0.90099 0.22397 0.0
C1811 C 0.59445 0.8743 0.23448 0.0
C1812 C 0.60621 0.85637 0.24245 0.0
C1813 C 0.70149 0.83683 0.3244 0.0
C1814 C 0.67626 0.82716 0.33698 0.0
C1815 C 0.69719 0.83725 0.30484 0.0
C1816 C 0.66744 0.82738 0.29728 0.0
C1817 C 0.64233 0.81883 0.30982 0.0
C1818 C 0.64671 0.81876 0.32953 0.0
C1819 C 0.663 0.82578 0.27628 0.0
C1820 C 0.64987 0.84228 0.2678 0.0
C1821 C 0.67433 0.81033 0.2645 0.0
C1822 C 0.68589 0.79018 0.27251 0.0
C1823 C 0.66738 0.76601 0.28522 0.0
C1824 C 0.67851 0.7474 0.29295 0.0
C1825 C 0.70805 0.75258 0.28797 0.0
C1826 C 0.7265 0.77636 0.27523 0.0
C1827 C 0.7155 0.79507 0.26748 0.0
H1828 H 0.71663 0.73815 0.29398 0.0
H1829 H 0.60485 0.91481 0.21778 0.0
H1830 H 0.77367 0.64705 0.68171 0.0
H1831 H 0.77758 0.63873 0.71557 0.0
H1832 H 0.86659 0.64478 0.70596 0.0
H1833 H 0.86166 0.65122 0.67172 0.0
H1834 H 0.83901 0.60582 0.73335 0.0
H1835 H 0.85907 0.70899 0.7208 0.0
H1836 H 0.84898 0.74956 0.7081 0.0
H1837 H 0.76711 0.71525 0.74291 0.0
H1838 H 0.77646 0.67415 0.75561 0.0
H1839 H 0.90819 0.67211 0.82308 0.0
H1840 H 0.89348 0.66282 0.78958 0.0
H1841 H 0.79749 0.62922 0.80466 0.0
H1842 H 0.812 0.63791 0.83851 0.0
H1843 H 0.82535 0.67877 0.77542 0.0
H1844 H 0.81233 0.57789 0.79019 0.0
H1845 H 0.8295 0.54287 0.80354 0.0
H1846 H 0.90694 0.57992 0.76491 0.0
H1847 H 0.89052 0.61554 0.75152 0.0
C1848 C 0.79376 0.64597 0.68681 0.0
C1849 C 0.8175 0.65002 0.67422 0.0
C1850 C 0.79611 0.64145 0.70618 0.0
C1851 C 0.82287 0.64215 0.7135 0.0
C1852 C 0.84582 0.64438 0.70073 0.0
C1853 C 0.84303 0.64805 0.68119 0.0
C1854 C 0.82769 0.64262 0.73445 0.0
C1855 C 0.83619 0.62192 0.74249 0.0
C1856 C 0.82392 0.66351 0.74654 0.0
C1857 C 0.81827 0.68827 0.73899 0.0
C1858 C 0.83879 0.70995 0.72564 0.0
C1859 C 0.83322 0.73306 0.71845 0.0
C1860 C 0.80737 0.73492 0.72465 0.0
C1861 C 0.78709 0.71373 0.73809 0.0
C1862 C 0.79251 0.69053 0.74529 0.0
C1863 C 0.88388 0.66253 0.81932 0.0
C1864 C 0.86124 0.65586 0.83342 0.0
C1865 C 0.87552 0.6571 0.80017 0.0
C1866 C 0.84442 0.64524 0.79468 0.0
C1867 C 0.82162 0.63828 0.80868 0.0
C1868 C 0.8299 0.64316 0.82796 0.0
C1869 C 0.83636 0.64191 0.77419 0.0
C1870 C 0.82759 0.66234 0.76625 0.0
C1871 C 0.84076 0.62144 0.7622 0.0
C1872 C 0.8503 0.59955 0.76994 0.0
C1873 C 0.83313 0.57872 0.78462 0.0
C1874 C 0.84272 0.55874 0.79219 0.0
C1875 C 0.86933 0.55921 0.78511 0.0
C1876 C 0.88634 0.57959 0.77039 0.0
C1877 C 0.87687 0.59965 0.76279 0.0
H1878 H 0.87674 0.54376 0.791 0.0
H1879 H 0.8031 0.75283 0.71907 0.0
H1880 H 0.1695 0.85556 0.18328 0.0
H1881 H 0.18467 0.86005 0.21648 0.0
H1882 H 0.22439 0.80105 0.20641 0.0
H1883 H 0.2091 0.79638 0.17268 0.0
H1884 H 0.18416 0.78401 0.23897 0.0
H1885 H 0.27336 0.87396 0.21482 0.0
H1886 H 0.3018 0.92178 0.19567 0.0
H1887 H 0.25876 0.96466 0.22716 0.0
H1888 H 0.22967 0.91694 0.24631 0.0
H1889 H 0.22702 0.82148 0.33859 0.0
H1890 H 0.22882 0.81141 0.30452 0.0
H1891 H 0.19643 0.87562 0.29125 0.0
H1892 H 0.19508 0.88608 0.32488 0.0
H1893 H 0.24522 0.88744 0.26994 0.0
H1894 H 0.14876 0.79489 0.28888 0.0
H1895 H 0.1178 0.74682 0.30747 0.0
H1896 H 0.17313 0.70908 0.28559 0.0
H1897 H 0.20466 0.75713 0.26704 0.0
C1898 C 0.18169 0.84368 0.188 0.0
C1899 C 0.18809 0.82558 0.17534 0.0
C1900 C 0.19045 0.84638 0.20701 0.0
C1901 C 0.20582 0.83105 0.2139 0.0
C1902 C 0.21262 0.81314 0.20133 0.0
C1903 C 0.20408 0.81067 0.18209 0.0
C1904 C 0.21347 0.83339 0.23445 0.0
C1905 C 0.19821 0.80651 0.24576 0.0
C1906 C 0.23146 0.86278 0.24329 0.0
C1907 C 0.24926 0.89178 0.23198 0.0
C1908 C 0.26982 0.89352 0.2176 0.0
C1909 C 0.28608 0.92062 0.20675 0.0
C1910 C 0.28208 0.94623 0.21019 0.0
C1911 C 0.26186 0.94481 0.22452 0.0
C1912 C 0.24553 0.91776 0.23541 0.0
C1913 C 0.21999 0.83317 0.32838 0.0
C1914 C 0.21103 0.85468 0.33446 0.0
C1915 C 0.22106 0.82742 0.30892 0.0
C1916 C 0.21288 0.84286 0.29529 0.0
C1917 C 0.20319 0.86367 0.30145 0.0
C1918 C 0.20231 0.86954 0.32075 0.0
C1919 C 0.21472 0.83825 0.27453 0.0
C1920 C 0.23187 0.8648 0.26318 0.0
C1921 C 0.19833 0.8086 0.26571 0.0
C1922 C 0.1793 0.77972 0.27678 0.0
C1923 C 0.15447 0.77643 0.28816 0.0
C1924 C 0.13679 0.74918 0.29866 0.0
C1925 C 0.14357 0.72495 0.29776 0.0
C1926 C 0.16796 0.72789 0.2863 0.0
C1927 C 0.18573 0.75511 0.27579 0.0
H1928 H 0.12986 0.70388 0.30591 0.0
H1929 H 0.29466 0.96719 0.20176 0.0
H1930 H 0.33492 0.22394 0.83027 0.0
H1931 H 0.34132 0.22047 0.79625 0.0
H1932 H 0.39754 0.17776 0.80676 0.0
H1933 H 0.39219 0.18237 0.84117 0.0
H1934 H 0.42105 0.21638 0.77801 0.0
H1935 H 0.31976 0.13388 0.79325 0.0
H1936 H 0.26725 0.10879 0.80742 0.0
H1937 H 0.24341 0.16527 0.7728 0.0
H1938 H 0.29598 0.19099 0.75856 0.0
H1939 H 0.3896 0.14249 0.68587 0.0
H1940 H 0.39385 0.15468 0.71983 0.0
H1941 H 0.35915 0.2179 0.70982 0.0
H1942 H 0.35539 0.20624 0.67564 0.0
H1943 H 0.32573 0.16862 0.73802 0.0
H1944 H 0.43008 0.24902 0.72199 0.0
H1945 H 0.48213 0.26906 0.70774 0.0
H1946 H 0.49902 0.20916 0.74389 0.0
H1947 H 0.44684 0.1884 0.75816 0.0
C1948 C 0.34865 0.21376 0.8254 0.0
C1949 C 0.3627 0.20301 0.83842 0.0
C1950 C 0.35223 0.21172 0.80589 0.0
C1951 C 0.36926 0.19814 0.79887 0.0
C1952 C 0.38411 0.18816 0.81183 0.0
C1953 C 0.38098 0.1907 0.83147 0.0
C1954 C 0.3709 0.19404 0.77802 0.0
C1955 C 0.40017 0.20558 0.76932 0.0
C1956 C 0.34368 0.18013 0.76657 0.0
C1957 C 0.31192 0.16457 0.77497 0.0
C1958 C 0.30339 0.1411 0.78874 0.0
C1959 C 0.2736 0.12675 0.79678 0.0
C1960 C 0.25202 0.13549 0.79106 0.0
C1961 C 0.26016 0.15854 0.77723 0.0
C1962 C 0.28995 0.17299 0.76916 0.0
C1963 C 0.38341 0.15943 0.69085 0.0
C1964 C 0.37209 0.17339 0.67814 0.0
C1965 C 0.38592 0.1664 0.71024 0.0
C1966 C 0.37679 0.18714 0.7173 0.0
C1967 C 0.36636 0.20186 0.70459 0.0
C1968 C 0.36439 0.19533 0.6851 0.0
C1969 C 0.37581 0.1914 0.73809 0.0
C1970 C 0.34657 0.17959 0.74676 0.0
C1971 C 0.40295 0.20431 0.74949 0.0
C1972 C 0.43442 0.21695 0.74102 0.0
C1973 C 0.44477 0.23992 0.72679 0.0
C1974 C 0.47433 0.25145 0.71873 0.0
C1975 C 0.49384 0.24034 0.72487 0.0
C1976 C 0.48387 0.21773 0.73913 0.0
C1977 C 0.45432 0.2061 0.74722 0.0
H1978 H 0.51672 0.24929 0.71862 0.0
H1979 H 0.22897 0.12436 0.79731 0.0
H1980 H 0.2949 0.18525 0.95454 0.0
H1981 H 0.27169 0.19986 0.98079 0.0
H1982 H 0.34762 0.29471 0.97762 0.0
H1983 H 0.3704 0.28037 0.95142 0.0
H1984 H 0.33113 0.27416 0.01473 0.0
H1985 H 0.28138 0.27496 0.95538 0.0
H1986 H 0.25064 0.25156 0.92628 0.0
H1987 H 0.17393 0.18478 0.95993 0.0
H1988 H 0.20436 0.20758 0.98923 0.0
H1989 H 0.28513 0.36933 0.0588 0.0
H1990 H 0.29979 0.34535 0.03345 0.0
H1991 H 0.21103 0.26077 0.03884 0.0
H1992 H 0.19573 0.28552 0.06372 0.0
H1993 H 0.22964 0.26852 1.00269 0.0
H1994 H 0.27709 0.27016 0.06217 0.0
H1995 H 0.30716 0.29378 0.0914 0.0
H1996 H 0.38771 0.35417 0.05819 0.0
H1997 H 0.35804 0.33124 0.02869 0.0
C1998 C 0.30702 0.20895 0.95988 0.0
C1999 C 0.33456 0.23166 0.9511 0.0
C2000 C 0.29358 0.21736 0.97469 0.0
C2001 C 0.30776 0.24848 0.98102 0.0
C2002 C 0.33624 0.27061 0.97298 0.0
C2003 C 0.34931 0.26237 0.95806 0.0
C2004 C 0.29265 0.25884 0.99533 0.0
C2005 C 0.30898 0.27299 0.01207 0.0
C2006 C 0.26336 0.25663 0.99211 0.0
C2007 C 0.24528 0.24272 0.97448 0.0
C2008 C 0.25808 0.25507 0.95656 0.0
C2009 C 0.24069 0.24196 0.94003 0.0
C2010 C 0.21039 0.21663 0.94126 0.0
C2011 C 0.19742 0.20436 0.95901 0.0
C2012 C 0.21472 0.21737 0.97557 0.0
C2013 C 0.26835 0.346 0.0541 0.0
C2014 C 0.23926 0.32933 0.06309 0.0
C2015 C 0.27688 0.33212 0.03979 0.0
C2016 C 0.25697 0.30084 0.03463 0.0
C2017 C 0.22693 0.28482 0.04266 0.0
C2018 C 0.21809 0.29903 0.05677 0.0
C2019 C 0.26853 0.28458 0.02192 0.0
C2020 C 0.25156 0.26929 0.00551 0.0
C2021 C 0.29722 0.28553 0.02549 0.0
C2022 C 0.31526 0.2991 0.04321 0.0
C2023 C 0.30117 0.28858 0.06109 0.0
C2024 C 0.31815 0.30184 0.07771 0.0
C2025 C 0.34929 0.32548 0.07667 0.0
C2026 C 0.36357 0.33586 0.05898 0.0
C2027 C 0.3467 0.32272 0.04229 0.0
H2028 H 0.36235 0.33571 0.08958 0.0
H2029 H 0.19686 0.20659 0.9285 0.0
H2030 H 0.13013 0.30176 0.45596 0.0
H2031 H 0.09211 0.27814 0.48193 0.0
H2032 H 0.05656 0.34009 0.46971 0.0
H2033 H 0.09438 0.36375 0.4441 0.0
H2034 H 0.05794 0.33255 0.50713 0.0
H2035 H 0.02182 0.26674 0.4518 0.0
H2036 H 0.02561 0.23517 0.4259 0.0
H2037 H 0.03152 0.17392 0.46673 0.0
H2038 H 0.02841 0.20553 0.49293 0.0
H2039 H 0.91045 0.25287 0.5513 0.0
H2040 H 0.94782 0.273 0.52487 0.0
H2041 H 0.98469 0.21403 0.54188 0.0
H2042 H 0.94763 0.19395 0.56819 0.0
H2043 H 0.9829 0.21902 0.50234 0.0
H2044 H 1.01917 0.2858 0.55758 0.0
H2045 H 1.01428 0.31729 0.58312 0.0
H2046 H 1.00692 0.37676 0.54153 0.0
H2047 H 1.01125 0.34526 0.51572 0.0
C2048 C 0.11475 0.31084 0.45919 0.0
C2049 C 0.11514 0.33451 0.44797 0.0
C2050 C 0.09281 0.29713 0.47388 0.0
C2051 C 0.07106 0.30697 0.47755 0.0
C2052 C 0.07292 0.33197 0.46712 0.0
C2053 C 0.09459 0.34547 0.45246 0.0
C2054 C 0.04522 0.29041 0.49145 0.0
C2055 C 0.04142 0.30777 0.50596 0.0
C2056 C 0.02374 0.25799 0.49007 0.0
C2057 C 0.02521 0.23871 0.47434 0.0
C2058 C 0.02415 0.24667 0.45527 0.0
C2059 C 0.02612 0.22874 0.44053 0.0
C2060 C 0.02879 0.20256 0.44465 0.0
C2061 C 0.02946 0.19423 0.46355 0.0
C2062 C 0.0276 0.21215 0.47836 0.0
C2063 C 0.92592 0.24357 0.54906 0.0
C2064 C 0.92625 0.22201 0.5619 0.0
C2065 C 0.9474 0.25522 0.53404 0.0
C2066 C 0.96937 0.24533 0.53157 0.0
C2067 C 0.96807 0.22206 0.54352 0.0
C2068 C 0.9469 0.21068 0.55859 0.0
C2069 C 0.99559 0.26125 0.51786 0.0
C2070 C 0.99948 0.24377 0.50346 0.0
C2071 C 1.01711 0.29361 0.51924 0.0
C2072 C 1.01522 0.313 0.53473 0.0
C2073 C 1.01632 0.30548 0.55388 0.0
C2074 C 1.01366 0.32333 0.56841 0.0
C2075 C 1.01021 0.34896 0.56395 0.0
C2076 C 1.00954 0.35687 0.54496 0.0
C2077 C 1.01211 0.33903 0.53038 0.0
H2078 H 1.00811 0.36274 0.57521 0.0
H2079 H 0.03029 0.18871 0.43321 0.0
H2080 H 0.70585 0.96996 0.08058 0.0
H2081 H 0.72699 1.00356 0.05311 0.0
H2082 H 0.735 0.93151 0.02344 0.0
H2083 H 0.7145 0.89757 0.05152 0.0
H2084 H 0.78615 0.98639 0.01814 0.0
H2085 H 0.67749 0.94973 0.01211 0.0
H2086 H 0.62495 0.93749 0.02236 0.0
H2087 H 0.65874 0.03438 0.03403 0.0
H2088 H 0.71161 0.04716 0.0241 0.0
H2089 H 0.80167 0.05261 0.92639 0.0
H2090 H 0.78693 0.02122 0.95519 0.0
H2091 H 0.78887 0.09707 0.98666 0.0
H2092 H 0.80382 0.12896 0.95753 0.0
H2093 H 0.73354 0.04068 0.99104 0.0
H2094 H 0.84302 0.07625 0.99542 0.0
H2095 H 0.8941 0.08645 0.98346 0.0
H2096 H 0.85654 0.98871 0.97263 0.0
H2097 H 0.8051 0.97795 0.98431 0.0
C2098 C 0.71179 0.96091 0.06822 0.0
C2099 C 0.70824 0.93083 0.06829 0.0
C2100 C 0.72383 0.98028 0.05241 0.0
C2101 C 0.7322 0.97003 0.03601 0.0
C2102 C 0.7286 0.93994 0.0359 0.0
C2103 C 0.71669 0.92047 0.0519 0.0
C2104 C 0.74531 0.9913 0.01933 0.0
C2105 C 0.77439 0.99788 0.01203 0.0
C2106 C 0.73039 1.00692 0.01157 0.0
C2107 C 0.69859 0.99936 0.01752 0.0
C2108 C 0.67378 0.9684 0.017 0.0
C2109 C 0.64392 0.96137 0.02273 0.0
C2110 C 0.63853 0.98513 0.02889 0.0
C2111 C 0.66296 0.01599 0.02928 0.0
C2112 C 0.69288 0.02315 0.02358 0.0
C2113 C 0.79952 0.0629 0.93951 0.0
C2114 C 0.80383 0.09325 0.93971 0.0
C2115 C 0.79121 0.04491 0.956 0.0
C2116 C 0.78688 0.05675 0.97313 0.0
C2117 C 0.79218 0.0875 0.97359 0.0
C2118 C 0.80093 0.10577 0.95701 0.0
C2119 C 0.77441 0.03592 0.98998 0.0
C2120 C 0.74534 0.02931 0.99724 0.0
C2121 C 0.78913 0.01996 0.99748 0.0
C2122 C 0.82013 0.02633 0.99062 0.0
C2123 C 0.84559 0.05695 0.99037 0.0
C2124 C 0.87462 0.06283 0.98367 0.0
C2125 C 0.87854 0.03825 0.97726 0.0
C2126 C 0.85346 1.00773 0.9776 0.0
C2127 C 0.82437 1.00172 0.98429 0.0
H2128 H 0.90103 0.04286 0.97206 0.0
H2129 H 0.61539 0.97964 0.03332 0.0
H2130 H 0.84661 0.7439 0.56168 0.0
H2131 H 0.83394 0.76798 0.535 0.0
H2132 H 0.73903 0.69194 0.53567 0.0
H2133 H 0.75134 0.66848 0.56244 0.0
H2134 H 0.76686 0.71155 0.4981 0.0
H2135 H 0.75468 0.75438 0.55851 0.0
H2136 H 0.77491 0.78345 0.58854 0.0
H2137 H 0.84201 0.86373 0.55749 0.0
H2138 H 0.82253 0.83496 0.5273 0.0
H2139 H 0.66921 0.75004 0.45118 0.0
H2140 H 0.69316 0.73621 0.47687 0.0
H2141 H 0.77192 0.82977 0.4767 0.0
H2142 H 0.74704 0.84407 0.45139 0.0
H2143 H 0.76203 0.80751 0.51192 0.0
H2144 H 0.77573 0.77116 0.45251 0.0
H2145 H 0.76064 0.74565 0.42113 0.0
H2146 H 0.69888 0.65812 0.44785 0.0
H2147 H 0.71351 0.68316 0.47941 0.0
C2148 C 0.82331 0.73201 0.55574 0.0
C2149 C 0.79998 0.70423 0.56396 0.0
C2150 C 0.81603 0.74589 0.54067 0.0
C2151 C 0.78547 0.73182 0.53346 0.0
C2152 C 0.76272 0.70318 0.541 0.0
C2153 C 0.76979 0.68975 0.55624 0.0
C2154 C 0.77622 0.74725 0.51878 0.0
C2155 C 0.76573 0.73249 0.50112 0.0
C2156 C 0.77587 0.77524 0.52246 0.0
C2157 C 0.7874 0.7924 0.54066 0.0
C2158 C 0.77395 0.77812 0.5581 0.0
C2159 C 0.78524 0.79456 0.57515 0.0
C2160 C 0.80977 0.82539 0.57491 0.0
C2161 C 0.82304 0.83984 0.55764 0.0
C2162 C 0.81189 0.82348 0.54057 0.0
C2163 C 0.69119 0.76791 0.45703 0.0
C2164 C 0.70624 0.79811 0.44938 0.0
C2165 C 0.70508 0.75991 0.47156 0.0
C2166 C 0.73488 0.78163 0.47833 0.0
C2167 C 0.74906 0.8125 0.47162 0.0
C2168 C 0.73476 0.82073 0.45726 0.0
C2169 C 0.75161 0.77117 0.49143 0.0
C2170 C 0.76354 0.78684 0.50874 0.0
C2171 C 0.75415 0.74446 0.48725 0.0
C2172 C 0.74559 0.72909 0.46833 0.0
C2173 C 0.75884 0.7465 0.45169 0.0
C2174 C 0.75037 0.73212 0.43387 0.0
C2175 C 0.72873 0.70031 0.43249 0.0
C2176 C 0.71564 0.68277 0.44894 0.0
C2177 C 0.72408 0.69702 0.46681 0.0
H2178 H 0.72215 0.68923 0.41868 0.0
H2179 H 0.81847 0.83816 0.58806 0.0
H2180 H 0.95896 0.6718 0.93823 0.0
H2181 H 0.99409 0.69422 0.96516 0.0
H2182 H 0.94626 0.74318 0.98215 0.0
H2183 H 0.9108 0.72077 0.95479 0.0
H2184 H 1.00979 0.78171 0.98161 0.0
H2185 H 0.93898 0.68284 0.00844 0.0
H2186 H 0.9068 0.62554 0.00983 0.0
H2187 H 0.98894 0.61741 1.00492 0.0
H2188 H 0.0216 0.67467 1.00323 0.0
H2189 H 0.07931 0.81876 0.07493 0.0
H2190 H 0.04542 0.80156 0.04693 0.0
H2191 H 0.09777 0.76102 0.02362 0.0
H2192 H 0.13244 0.77906 0.05154 0.0
H2193 H 0.03147 0.71915 0.02776 0.0
H2194 H 0.1022 0.81863 1.00134 0.0
H2195 H 0.13392 0.87593 1.00013 0.0
H2196 H 0.05122 0.8831 1.00476 0.0
H2197 H 1.019 0.82579 0.00642 0.0
C2198 C 0.9555 0.68694 0.94784 0.0
C2199 C 0.93201 0.69444 0.94439 0.0
C2200 C 0.97564 0.69973 0.96329 0.0
C2201 C 0.97282 0.72032 0.97577 0.0
C2202 C 0.94886 0.72731 0.97271 0.0
C2203 C 0.92842 0.71427 0.9572 0.0
C2204 C 0.99596 0.73536 0.9914 0.0
C2205 C 1.01413 0.76805 0.99193 0.0
C2206 C 1.00228 0.71755 1.00454 0.0
C2207 C 0.98272 0.68307 0.00554 0.0
C2208 C 0.95017 0.66883 0.0075 0.0
C2209 C 0.93184 0.63636 0.00837 0.0
C2210 C 0.94581 0.61784 0.00741 0.0
C2211 C 0.97815 0.63178 0.00563 0.0
C2212 C 0.99659 0.66425 1.00474 0.0
C2213 C 0.08416 0.807 0.06354 0.0
C2214 C 0.10859 0.80042 0.06527 0.0
C2215 C 0.06476 0.79716 0.04758 0.0
C2216 C 0.06902 0.77997 0.03321 0.0
C2217 C 0.09417 0.77435 0.03455 0.0
C2218 C 0.11409 0.78486 0.05038 0.0
C2219 C 0.04539 0.76542 0.01787 0.0
C2220 C 0.02706 0.7328 0.01745 0.0
C2221 C 0.03885 0.78333 1.00495 0.0
C2222 C 0.05819 0.81786 1.00424 0.0
C2223 C 0.09078 0.8324 1.00236 0.0
C2224 C 0.10886 0.8649 1.00154 0.0
C2225 C 0.09461 0.88316 1.0024 0.0
C2226 C 0.06224 0.86893 1.00411 0.0
C2227 C 0.04405 0.83643 1.00501 0.0
H2228 H 0.10864 0.90832 1.00168 0.0
H2229 H 0.93158 0.5927 0.0081 0.0
H2230 H 0.29438 0.95049 0.43824 0.0
H2231 H 0.30887 0.9837 0.46623 0.0
H2232 H 0.21354 0.93425 0.48568 0.0
H2233 H 0.19864 0.90083 0.45721 0.0
H2234 H 0.23732 0.99698 0.48633 0.0
H2235 H 0.2704 0.92709 0.50902 0.0
H2236 H 0.29738 0.8966 0.50749 0.0
H2237 H 0.38534 0.98097 0.5015 0.0
H2238 H 0.35886 1.01199 0.50278 0.0
H2239 H 0.26967 0.06859 0.57706 0.0
H2240 H 0.25444 0.0334 0.54997 0.0
H2241 H 0.34899 0.08209 0.52918 0.0
H2242 H 0.36465 0.11756 0.55664 0.0
H2243 H 0.3251 0.019 0.52961 0.0
H2244 H 0.29234 0.08879 0.50637 0.0
H2245 H 0.26566 0.1196 0.50734 0.0
H2246 H 0.17742 0.03568 0.51383 0.0
H2247 H 0.20363 1.00437 0.51317 0.0
C2248 C 0.27648 0.94627 0.44859 0.0
C2249 C 0.2453 0.92305 0.44549 0.0
C2250 C 0.28489 0.96525 0.46467 0.0
C2251 C 0.26238 0.96144 0.47815 0.0
C2252 C 0.23132 0.93758 0.47546 0.0
C2253 C 0.22286 0.91834 0.4593 0.0
C2254 C 0.27125 0.98389 0.49423 0.0
C2255 C 0.2561 1.00135 0.49604 0.0
C2256 C 0.29652 0.99041 0.50647 0.0
C2257 C 0.31259 0.97186 0.50586 0.0
C2258 C 0.29547 0.93915 0.50725 0.0
C2259 C 0.31068 0.92177 0.50646 0.0
C2260 C 0.34305 0.93684 0.50438 0.0
C2261 C 0.36028 0.96933 0.50312 0.0
C2262 C 0.34518 0.98683 0.50391 0.0
C2263 C 0.28725 0.0722 0.56662 0.0
C2264 C 0.31844 0.09596 0.56903 0.0
C2265 C 0.27843 0.05204 0.55107 0.0
C2266 C 0.30049 0.05513 0.53746 0.0
C2267 C 0.33155 0.07929 0.53951 0.0
C2268 C 0.34043 0.0997 0.55511 0.0
C2269 C 0.29115 0.03207 0.5217 0.0
C2270 C 0.30624 0.01453 0.51994 0.0
C2271 C 0.26586 0.0255 0.50947 0.0
C2272 C 0.25 0.04426 0.5099 0.0
C2273 C 0.26728 0.07692 0.50817 0.0
C2274 C 0.25223 0.09447 0.50863 0.0
C2275 C 0.21988 0.07961 0.5107 0.0
C2276 C 0.20249 0.04716 0.51226 0.0
C2277 C 0.21743 0.0295 0.51182 0.0
H2278 H 0.20827 0.09324 0.51104 0.0
H2279 H 0.35477 0.92333 0.50376 0.0
loop_
_geom_bond_atom_site_label_1
_geom_bond_atom_site_label_2
_geom_bond_distance
_geom_bond_site_symmetry_2
_ccdc_geom_bond_type
Eu0 C9 2.828 . S
Eu0 O11 2.392 . S
Eu0 O13 2.418 . S
Eu0 O18 2.373 . S
Eu0 O21 2.488 . S
Eu0 O22 2.471 . S
Eu0 O23 2.349 . S
Eu1 O10 2.373 . S
Eu1 O14 2.488 . S
Eu1 O15 2.471 . S
Eu1 O16 2.349 . S
Eu1 O19 2.392 . S
Eu1 O20 2.418 . S
Eu1 C30 2.828 . S
C2 O20 1.244 . S
C2 O23 1.265 . S
C3 C4 1.379 . S
C3 C7 1.373 . S
C3 C9 1.505 . S
C4 C3 1.379 . S
C4 C6 1.369 . S
C4 H32 0.930 . S
C5 C7 1.383 . S
C5 C8 1.382 . S
C5 H33 0.930 . S
C6 C4 1.369 . S
C6 C8 1.392 . S
C6 H34 0.930 . S
C7 C3 1.373 . S
C7 C5 1.383 . S
C7 H35 0.931 . S
C8 C5 1.382 . S
C8 C6 1.392 . S
C9 Eu0 2.828 . S
C9 C3 1.505 . S
C9 O21 1.249 . S
C9 O22 1.244 . S
O10 Eu1 2.373 . S
O10 C12 1.258 . S
O11 Eu0 2.392 . S
O11 C12 1.242 . S
C12 O10 1.258 . S
C12 O11 1.242 . S
O13 Eu0 2.418 . S
O13 C17 1.244 . S
O14 Eu1 2.488 . S
O14 C30 1.249 . S
O15 Eu1 2.471 . S
O15 C30 1.244 . S
O16 Eu1 2.349 . S
O16 C17 1.265 . S
C17 O13 1.244 . S
C17 O16 1.265 . S
O18 Eu0 2.373 . S
O18 C31 1.258 . S
O19 Eu1 2.392 . S
O19 C31 1.242 . S
O20 Eu1 2.418 . S
O20 C2 1.244 . S
O21 Eu0 2.488 . S
O21 C9 1.249 . S
O22 Eu0 2.471 . S
O22 C9 1.244 . S
O23 Eu0 2.349 . S
O23 C2 1.265 . S
C24 C25 1.379 . S
C24 C28 1.373 . S
C24 C30 1.505 . S
C25 C24 1.379 . S
C25 C27 1.369 . S
C25 H36 0.930 . S
C26 C28 1.383 . S
C26 C29 1.382 . S
C26 H37 0.930 . S
C27 C25 1.369 . S
C27 C29 1.392 . S
C27 H38 0.930 . S
C28 C24 1.373 . S
C28 C26 1.383 . S
C28 H39 0.931 . S
C29 C26 1.382 . S
C29 C27 1.392 . S
C30 Eu1 2.828 . S
C30 O14 1.249 . S
C30 O15 1.244 . S
C30 C24 1.505 . S
C31 O18 1.258 . S
C31 O19 1.242 . S
H32 C4 0.930 . S
H33 C5 0.930 . S
H34 C6 0.930 . S
H35 C7 0.931 . S
H36 C25 0.930 . S
H37 C26 0.930 . S
H38 C27 0.930 . S
H39 C28 0.931 . S
Eu40 C49 2.828 . S
Eu40 O51 2.392 . S
Eu40 O53 2.418 . S
Eu40 O58 2.373 . S
Eu40 O61 2.488 . S
Eu40 O62 2.471 . S
Eu40 O63 2.349 . S
Eu41 O50 2.373 . S
Eu41 O54 2.488 . S
Eu41 O55 2.471 . S
Eu41 O56 2.349 . S
Eu41 O59 2.392 . S
Eu41 O60 2.418 . S
Eu41 C70 2.828 . S
C42 O60 1.244 . S
C42 O63 1.265 . S
C43 C44 1.379 . S
C43 C47 1.373 . S
C43 C49 1.505 . S
C44 C43 1.379 . S
C44 C46 1.369 . S
C44 H72 0.930 . S
C45 C47 1.383 . S
C45 C48 1.382 . S
C45 H73 0.930 . S
C46 C44 1.369 . S
C46 C48 1.392 . S
C46 H74 0.930 . S
C47 C43 1.373 . S
C47 C45 1.383 . S
C47 H75 0.931 . S
C48 C45 1.382 . S
C48 C46 1.392 . S
C49 Eu40 2.828 . S
C49 C43 1.505 . S
C49 O61 1.249 . S
C49 O62 1.244 . S
O50 Eu41 2.373 . S
O50 C52 1.258 . S
O51 Eu40 2.392 . S
O51 C52 1.242 . S
C52 O50 1.258 . S
C52 O51 1.242 . S
O53 Eu40 2.418 . S
O53 C57 1.244 . S
O54 Eu41 2.488 . S
O54 C70 1.249 . S
O55 Eu41 2.471 . S
O55 C70 1.244 . S
O56 Eu41 2.349 . S
O56 C57 1.265 . S
C57 O53 1.244 . S
C57 O56 1.265 . S
O58 Eu40 2.373 . S
O58 C71 1.258 . S
O59 Eu41 2.392 . S
O59 C71 1.242 . S
O60 Eu41 2.418 . S
O60 C42 1.244 . S
O61 Eu40 2.488 . S
O61 C49 1.249 . S
O62 Eu40 2.471 . S
O62 C49 1.244 . S
O63 Eu40 2.349 . S
O63 C42 1.265 . S
C64 C65 1.379 . S
C64 C68 1.373 . S
C64 C70 1.505 . S
C65 C64 1.379 . S
C65 C67 1.369 1_655 S
C65 H76 0.930 . S
C66 C68 1.383 1_455 S
C66 C69 1.382 . S
C66 H77 0.930 . S
C67 C65 1.369 1_455 S
C67 C69 1.392 . S
C67 H78 0.930 . S
C68 C64 1.373 . S
C68 C66 1.383 1_655 S
C68 H79 0.931 . S
C69 C66 1.382 . S
C69 C67 1.392 . S
C70 Eu41 2.828 . S
C70 O54 1.249 . S
C70 O55 1.244 . S
C70 C64 1.505 . S
C71 O58 1.258 . S
C71 O59 1.242 . S
H72 C44 0.930 . S
H73 C45 0.930 . S
H74 C46 0.930 . S
H75 C47 0.931 . S
H76 C65 0.930 . S
H77 C66 0.930 . S
H78 C67 0.930 . S
H79 C68 0.931 . S
Eu80 C89 2.828 . S
Eu80 O91 2.392 . S
Eu80 O93 2.418 . S
Eu80 O98 2.373 . S
Eu80 O101 2.488 . S
Eu80 O102 2.471 . S
Eu80 O103 2.349 . S
Eu81 O90 2.373 . S
Eu81 O94 2.488 . S
Eu81 O95 2.471 . S
Eu81 O96 2.349 . S
Eu81 O99 2.392 . S
Eu81 O100 2.418 . S
Eu81 C110 2.828 . S
C82 O100 1.244 . S
C82 O103 1.265 . S
C83 C84 1.379 . S
C83 C87 1.373 . S
C83 C89 1.505 . S
C84 C83 1.379 . S
C84 C86 1.369 . S
C84 H112 0.930 . S
C85 C87 1.383 . S
C85 C88 1.382 . S
C85 H113 0.930 . S
C86 C84 1.369 . S
C86 C88 1.392 . S
C86 H114 0.930 . S
C87 C83 1.373 . S
C87 C85 1.383 . S
C87 H115 0.931 . S
C88 C85 1.382 . S
C88 C86 1.392 . S
C89 Eu80 2.828 . S
C89 C83 1.505 . S
C89 O101 1.249 . S
C89 O102 1.244 . S
O90 Eu81 2.373 . S
O90 C92 1.258 . S
O91 Eu80 2.392 . S
O91 C92 1.242 . S
C92 O90 1.258 . S
C92 O91 1.242 . S
O93 Eu80 2.418 . S
O93 C97 1.244 . S
O94 Eu81 2.488 . S
O94 C110 1.249 . S
O95 Eu81 2.471 . S
O95 C110 1.244 . S
O96 Eu81 2.349 . S
O96 C97 1.265 . S
C97 O93 1.244 . S
C97 O96 1.265 . S
O98 Eu80 2.373 . S
O98 C111 1.258 . S
O99 Eu81 2.392 . S
O99 C111 1.242 . S
O100 Eu81 2.418 . S
O100 C82 1.244 . S
O101 Eu80 2.488 . S
O101 C89 1.249 . S
O102 Eu80 2.471 . S
O102 C89 1.244 . S
O103 Eu80 2.349 . S
O103 C82 1.265 . S
C104 C105 1.379 . S
C104 C108 1.373 . S
C104 C110 1.505 . S
C105 C104 1.379 . S
C105 C107 1.369 1_565 S
C105 H116 0.930 . S
C106 C108 1.383 1_545 S
C106 C109 1.382 . S
C106 H117 0.930 . S
C107 C105 1.369 1_545 S
C107 C109 1.392 . S
C107 H118 0.930 . S
C108 C104 1.373 . S
C108 C106 1.383 1_565 S
C108 H119 0.931 . S
C109 C106 1.382 . S
C109 C107 1.392 . S
C110 Eu81 2.828 . S
C110 O94 1.249 . S
C110 O95 1.244 . S
C110 C104 1.505 . S
C111 O98 1.258 . S
C111 O99 1.242 . S
H112 C84 0.930 . S
H113 C85 0.930 . S
H114 C86 0.930 . S
H115 C87 0.931 . S
H116 C105 0.930 . S
H117 C106 0.930 . S
H118 C107 0.930 . S
H119 C108 0.931 . S
Eu120 C129 2.828 . S
Eu120 O131 2.392 . S
Eu120 O133 2.418 . S
Eu120 O138 2.373 . S
Eu120 O141 2.488 . S
Eu120 O142 2.471 . S
Eu120 O143 2.349 . S
Eu121 O130 2.373 . S
Eu121 O134 2.488 . S
Eu121 O135 2.471 . S
Eu121 O136 2.349 . S
Eu121 O139 2.392 . S
Eu121 O140 2.418 . S
Eu121 C150 2.828 . S
C122 O140 1.244 . S
C122 O143 1.265 . S
C123 C124 1.379 . S
C123 C127 1.373 . S
C123 C129 1.505 . S
C124 C123 1.379 . S
C124 C126 1.369 . S
C124 H152 0.930 . S
C125 C127 1.383 . S
C125 C128 1.382 . S
C125 H153 0.930 . S
C126 C124 1.369 . S
C126 C128 1.392 . S
C126 H154 0.930 . S
C127 C123 1.373 . S
C127 C125 1.383 . S
C127 H155 0.931 . S
C128 C125 1.382 . S
C128 C126 1.392 . S
C129 Eu120 2.828 . S
C129 C123 1.505 . S
C129 O141 1.249 . S
C129 O142 1.244 . S
O130 Eu121 2.373 . S
O130 C132 1.258 . S
O131 Eu120 2.392 . S
O131 C132 1.242 . S
C132 O130 1.258 . S
C132 O131 1.242 . S
O133 Eu120 2.418 . S
O133 C137 1.244 . S
O134 Eu121 2.488 . S
O134 C150 1.249 . S
O135 Eu121 2.471 . S
O135 C150 1.244 . S
O136 Eu121 2.349 . S
O136 C137 1.265 . S
C137 O133 1.244 . S
C137 O136 1.265 . S
O138 Eu120 2.373 . S
O138 C151 1.258 . S
O139 Eu121 2.392 . S
O139 C151 1.242 . S
O140 Eu121 2.418 . S
O140 C122 1.244 . S
O141 Eu120 2.488 . S
O141 C129 1.249 . S
O142 Eu120 2.471 . S
O142 C129 1.244 . S
O143 Eu120 2.349 . S
O143 C122 1.265 . S
C144 C145 1.379 . S
C144 C148 1.373 . S
C144 C150 1.505 . S
C145 C144 1.379 . S
C145 C147 1.369 . S
C145 H156 0.930 . S
C146 C148 1.383 . S
C146 C149 1.382 . S
C146 H157 0.930 . S
C147 C145 1.369 . S
C147 C149 1.392 . S
C147 H158 0.930 . S
C148 C144 1.373 . S
C148 C146 1.383 . S
C148 H159 0.931 . S
C149 C146 1.382 . S
C149 C147 1.392 . S
C150 Eu121 2.828 . S
C150 O134 1.249 . S
C150 O135 1.244 . S
C150 C144 1.505 . S
C151 O138 1.258 . S
C151 O139 1.242 . S
H152 C124 0.930 . S
H153 C125 0.930 . S
H154 C126 0.930 . S
H155 C127 0.931 . S
H156 C145 0.930 . S
H157 C146 0.930 . S
H158 C147 0.930 . S
H159 C148 0.931 . S
Eu160 C169 2.828 . S
Eu160 O171 2.392 . S
Eu160 O173 2.418 . S
Eu160 O178 2.373 . S
Eu160 O181 2.488 . S
Eu160 O182 2.471 . S
Eu160 O183 2.349 . S
Eu161 O170 2.373 . S
Eu161 O174 2.488 . S
Eu161 O175 2.471 . S
Eu161 O176 2.349 . S
Eu161 O179 2.392 . S
Eu161 O180 2.418 . S
Eu161 C190 2.828 . S
C162 O180 1.244 . S
C162 O183 1.265 . S
C163 C164 1.379 . S
C163 C167 1.373 . S
C163 C169 1.505 . S
C164 C163 1.379 . S
C164 C166 1.369 . S
C164 H192 0.930 . S
C165 C167 1.383 . S
C165 C168 1.382 . S
C165 H193 0.930 . S
C166 C164 1.369 . S
C166 C168 1.392 . S
C166 H194 0.930 . S
C167 C163 1.373 . S
C167 C165 1.383 . S
C167 H195 0.931 . S
C168 C165 1.382 . S
C168 C166 1.392 . S
C169 Eu160 2.828 . S
C169 C163 1.505 . S
C169 O181 1.249 . S
C169 O182 1.244 . S
O170 Eu161 2.373 . S
O170 C172 1.258 . S
O171 Eu160 2.392 . S
O171 C172 1.242 . S
C172 O170 1.258 . S
C172 O171 1.242 . S
O173 Eu160 2.418 . S
O173 C177 1.244 . S
O174 Eu161 2.488 . S
O174 C190 1.249 . S
O175 Eu161 2.471 . S
O175 C190 1.244 . S
O176 Eu161 2.349 . S
O176 C177 1.265 . S
C177 O173 1.244 . S
C177 O176 1.265 . S
O178 Eu160 2.373 . S
O178 C191 1.258 . S
O179 Eu161 2.392 . S
O179 C191 1.242 . S
O180 Eu161 2.418 . S
O180 C162 1.244 . S
O181 Eu160 2.488 . S
O181 C169 1.249 . S
O182 Eu160 2.471 . S
O182 C169 1.244 . S
O183 Eu160 2.349 . S
O183 C162 1.265 . S
C184 C185 1.379 . S
C184 C188 1.373 . S
C184 C190 1.505 . S
C185 C184 1.379 . S
C185 C187 1.369 1_455 S
C185 H196 0.930 . S
C186 C188 1.383 1_655 S
C186 C189 1.382 . S
C186 H197 0.930 . S
C187 C185 1.369 1_655 S
C187 C189 1.392 . S
C187 H198 0.930 . S
C188 C184 1.373 . S
C188 C186 1.383 1_455 S
C188 H199 0.931 . S
C189 C186 1.382 . S
C189 C187 1.392 . S
C190 Eu161 2.828 . S
C190 O174 1.249 . S
C190 O175 1.244 . S
C190 C184 1.505 . S
C191 O178 1.258 . S
C191 O179 1.242 . S
H192 C164 0.930 . S
H193 C165 0.930 . S
H194 C166 0.930 . S
H195 C167 0.931 . S
H196 C185 0.930 . S
H197 C186 0.930 . S
H198 C187 0.930 . S
H199 C188 0.931 . S
Eu200 C209 2.828 . S
Eu200 O211 2.392 . S
Eu200 O213 2.418 . S
Eu200 O218 2.373 . S
Eu200 O221 2.488 . S
Eu200 O222 2.471 . S
Eu200 O223 2.349 . S
Eu201 O210 2.373 . S
Eu201 O214 2.488 . S
Eu201 O215 2.471 . S
Eu201 O216 2.349 . S
Eu201 O219 2.392 . S
Eu201 O220 2.418 . S
Eu201 C230 2.828 . S
C202 O220 1.244 . S
C202 O223 1.265 . S
C203 C204 1.379 . S
C203 C207 1.373 . S
C203 C209 1.505 . S
C204 C203 1.379 . S
C204 C206 1.369 . S
C204 H232 0.930 . S
C205 C207 1.383 . S
C205 C208 1.382 . S
C205 H233 0.930 . S
C206 C204 1.369 . S
C206 C208 1.392 . S
C206 H234 0.930 . S
C207 C203 1.373 . S
C207 C205 1.383 . S
C207 H235 0.931 . S
C208 C205 1.382 . S
C208 C206 1.392 . S
C209 Eu200 2.828 . S
C209 C203 1.505 . S
C209 O221 1.249 . S
C209 O222 1.244 . S
O210 Eu201 2.373 . S
O210 C212 1.258 . S
O211 Eu200 2.392 . S
O211 C212 1.242 . S
C212 O210 1.258 . S
C212 O211 1.242 . S
O213 Eu200 2.418 . S
O213 C217 1.244 . S
O214 Eu201 2.488 . S
O214 C230 1.249 . S
O215 Eu201 2.471 . S
O215 C230 1.244 . S
O216 Eu201 2.349 . S
O216 C217 1.265 . S
C217 O213 1.244 . S
C217 O216 1.265 . S
O218 Eu200 2.373 . S
O218 C231 1.258 . S
O219 Eu201 2.392 . S
O219 C231 1.242 . S
O220 Eu201 2.418 . S
O220 C202 1.244 . S
O221 Eu200 2.488 . S
O221 C209 1.249 . S
O222 Eu200 2.471 . S
O222 C209 1.244 . S
O223 Eu200 2.349 . S
O223 C202 1.265 . S
C224 C225 1.379 . S
C224 C228 1.373 . S
C224 C230 1.505 . S
C225 C224 1.379 . S
C225 C227 1.369 1_545 S
C225 H236 0.930 . S
C226 C228 1.383 1_565 S
C226 C229 1.382 . S
C226 H237 0.930 . S
C227 C225 1.369 1_565 S
C227 C229 1.392 . S
C227 H238 0.930 . S
C228 C224 1.373 . S
C228 C226 1.383 1_545 S
C228 H239 0.931 . S
C229 C226 1.382 . S
C229 C227 1.392 . S
C230 Eu201 2.828 . S
C230 O214 1.249 . S
C230 O215 1.244 . S
C230 C224 1.505 . S
C231 O218 1.258 . S
C231 O219 1.242 . S
H232 C204 0.930 . S
H233 C205 0.930 . S
H234 C206 0.930 . S
H235 C207 0.931 . S
H236 C225 0.930 . S
H237 C226 0.930 . S
H238 C227 0.930 . S
H239 C228 0.931 . S
Eu240 C249 2.828 . S
Eu240 O251 2.392 . S
Eu240 O253 2.418 . S
Eu240 O258 2.373 . S
Eu240 O261 2.488 . S
Eu240 O262 2.471 . S
Eu240 O263 2.349 . S
Eu241 O250 2.373 . S
Eu241 O254 2.488 . S
Eu241 O255 2.471 . S
Eu241 O256 2.349 . S
Eu241 O259 2.392 . S
Eu241 O260 2.418 . S
Eu241 C270 2.828 . S
C242 O260 1.244 . S
C242 O263 1.265 . S
C243 C244 1.379 . S
C243 C247 1.373 . S
C243 C249 1.505 . S
C244 C243 1.379 . S
C244 C246 1.369 . S
C244 H272 0.930 . S
C245 C247 1.383 . S
C245 C248 1.382 . S
C245 H273 0.930 . S
C246 C244 1.369 . S
C246 C248 1.392 . S
C246 H274 0.930 . S
C247 C243 1.373 . S
C247 C245 1.383 . S
C247 H275 0.931 . S
C248 C245 1.382 . S
C248 C246 1.392 . S
C249 Eu240 2.828 . S
C249 C243 1.505 . S
C249 O261 1.249 . S
C249 O262 1.244 . S
O250 Eu241 2.373 . S
O250 C252 1.258 . S
O251 Eu240 2.392 . S
O251 C252 1.242 . S
C252 O250 1.258 . S
C252 O251 1.242 . S
O253 Eu240 2.418 . S
O253 C257 1.244 . S
O254 Eu241 2.488 . S
O254 C270 1.249 . S
O255 Eu241 2.471 . S
O255 C270 1.244 . S
O256 Eu241 2.349 . S
O256 C257 1.265 . S
C257 O253 1.244 . S
C257 O256 1.265 . S
O258 Eu240 2.373 . S
O258 C271 1.258 . S
O259 Eu241 2.392 . S
O259 C271 1.242 . S
O260 Eu241 2.418 . S
O260 C242 1.244 . S
O261 Eu240 2.488 . S
O261 C249 1.249 . S
O262 Eu240 2.471 . S
O262 C249 1.244 . S
O263 Eu240 2.349 . S
O263 C242 1.265 . S
C264 C265 1.379 . S
C264 C268 1.373 . S
C264 C270 1.505 . S
C265 C264 1.379 . S
C265 C267 1.369 . S
C265 H276 0.930 . S
C266 C268 1.383 . S
C266 C269 1.382 . S
C266 H277 0.930 . S
C267 C265 1.369 . S
C267 C269 1.392 . S
C267 H278 0.930 . S
C268 C264 1.373 . S
C268 C266 1.383 . S
C268 H279 0.931 . S
C269 C266 1.382 . S
C269 C267 1.392 . S
C270 Eu241 2.828 . S
C270 O254 1.249 . S
C270 O255 1.244 . S
C270 C264 1.505 . S
C271 O258 1.258 . S
C271 O259 1.242 . S
H272 C244 0.930 . S
H273 C245 0.930 . S
H274 C246 0.930 . S
H275 C247 0.931 . S
H276 C265 0.930 . S
H277 C266 0.930 . S
H278 C267 0.930 . S
H279 C268 0.931 . S
Eu280 C289 2.828 . S
Eu280 O291 2.392 . S
Eu280 O293 2.418 . S
Eu280 O298 2.373 . S
Eu280 O301 2.488 . S
Eu280 O302 2.471 . S
Eu280 O303 2.349 . S
Eu281 O290 2.373 . S
Eu281 O294 2.488 . S
Eu281 O295 2.471 . S
Eu281 O296 2.349 . S
Eu281 O299 2.392 . S
Eu281 O300 2.418 . S
Eu281 C310 2.828 . S
C282 O300 1.244 . S
C282 O303 1.265 . S
C283 C284 1.379 . S
C283 C287 1.373 . S
C283 C289 1.505 . S
C284 C283 1.379 . S
C284 C286 1.369 . S
C284 H312 0.930 . S
C285 C287 1.383 . S
C285 C288 1.382 . S
C285 H313 0.930 . S
C286 C284 1.369 . S
C286 C288 1.392 . S
C286 H314 0.930 . S
C287 C283 1.373 . S
C287 C285 1.383 . S
C287 H315 0.931 . S
C288 C285 1.382 . S
C288 C286 1.392 . S
C289 Eu280 2.828 . S
C289 C283 1.505 . S
C289 O301 1.249 . S
C289 O302 1.244 . S
O290 Eu281 2.373 . S
O290 C292 1.258 . S
O291 Eu280 2.392 . S
O291 C292 1.242 . S
C292 O290 1.258 . S
C292 O291 1.242 . S
O293 Eu280 2.418 . S
O293 C297 1.244 . S
O294 Eu281 2.488 . S
O294 C310 1.249 . S
O295 Eu281 2.471 . S
O295 C310 1.244 . S
O296 Eu281 2.349 . S
O296 C297 1.265 . S
C297 O293 1.244 . S
C297 O296 1.265 . S
O298 Eu280 2.373 . S
O298 C311 1.258 . S
O299 Eu281 2.392 . S
O299 C311 1.242 . S
O300 Eu281 2.418 . S
O300 C282 1.244 . S
O301 Eu280 2.488 . S
O301 C289 1.249 . S
O302 Eu280 2.471 . S
O302 C289 1.244 . S
O303 Eu280 2.349 . S
O303 C282 1.265 . S
C304 C305 1.379 . S
C304 C308 1.373 . S
C304 C310 1.505 . S
C305 C304 1.379 . S
C305 C307 1.369 1_655 S
C305 H316 0.930 . S
C306 C308 1.383 1_455 S
C306 C309 1.382 . S
C306 H317 0.930 . S
C307 C305 1.369 1_455 S
C307 C309 1.392 . S
C307 H318 0.930 . S
C308 C304 1.373 . S
C308 C306 1.383 1_655 S
C308 H319 0.931 . S
C309 C306 1.382 . S
C309 C307 1.392 . S
C310 Eu281 2.828 . S
C310 O294 1.249 . S
C310 O295 1.244 . S
C310 C304 1.505 . S
C311 O298 1.258 . S
C311 O299 1.242 . S
H312 C284 0.930 . S
H313 C285 0.930 . S
H314 C286 0.930 . S
H315 C287 0.931 . S
H316 C305 0.930 . S
H317 C306 0.930 . S
H318 C307 0.930 . S
H319 C308 0.931 . S
Eu320 C329 2.828 . S
Eu320 O331 2.392 . S
Eu320 O333 2.418 . S
Eu320 O338 2.373 . S
Eu320 O341 2.488 . S
Eu320 O342 2.471 . S
Eu320 O343 2.349 . S
Eu321 O330 2.373 . S
Eu321 O334 2.488 . S
Eu321 O335 2.471 . S
Eu321 O336 2.349 . S
Eu321 O339 2.392 . S
Eu321 O340 2.418 . S
Eu321 C350 2.828 . S
C322 O340 1.244 . S
C322 O343 1.265 . S
C323 C324 1.379 . S
C323 C327 1.373 . S
C323 C329 1.505 . S
C324 C323 1.379 . S
C324 C326 1.369 . S
C324 H352 0.930 . S
C325 C327 1.383 . S
C325 C328 1.382 . S
C325 H353 0.930 . S
C326 C324 1.369 . S
C326 C328 1.392 . S
C326 H354 0.930 . S
C327 C323 1.373 . S
C327 C325 1.383 . S
C327 H355 0.931 . S
C328 C325 1.382 . S
C328 C326 1.392 . S
C329 Eu320 2.828 . S
C329 C323 1.505 . S
C329 O341 1.249 . S
C329 O342 1.244 . S
O330 Eu321 2.373 . S
O330 C332 1.258 . S
O331 Eu320 2.392 . S
O331 C332 1.242 . S
C332 O330 1.258 . S
C332 O331 1.242 . S
O333 Eu320 2.418 . S
O333 C337 1.244 . S
O334 Eu321 2.488 . S
O334 C350 1.249 . S
O335 Eu321 2.471 . S
O335 C350 1.244 . S
O336 Eu321 2.349 . S
O336 C337 1.265 . S
C337 O333 1.244 . S
C337 O336 1.265 . S
O338 Eu320 2.373 . S
O338 C351 1.258 . S
O339 Eu321 2.392 . S
O339 C351 1.242 . S
O340 Eu321 2.418 . S
O340 C322 1.244 . S
O341 Eu320 2.488 . S
O341 C329 1.249 . S
O342 Eu320 2.471 . S
O342 C329 1.244 . S
O343 Eu320 2.349 . S
O343 C322 1.265 . S
C344 C345 1.379 . S
C344 C348 1.373 . S
C344 C350 1.505 . S
C345 C344 1.379 . S
C345 C347 1.369 1_565 S
C345 H356 0.930 . S
C346 C348 1.383 1_545 S
C346 C349 1.382 . S
C346 H357 0.930 . S
C347 C345 1.369 1_545 S
C347 C349 1.392 . S
C347 H358 0.930 . S
C348 C344 1.373 . S
C348 C346 1.383 1_565 S
C348 H359 0.931 . S
C349 C346 1.382 . S
C349 C347 1.392 . S
C350 Eu321 2.828 . S
C350 O334 1.249 . S
C350 O335 1.244 . S
C350 C344 1.505 . S
C351 O338 1.258 . S
C351 O339 1.242 . S
H352 C324 0.930 . S
H353 C325 0.930 . S
H354 C326 0.930 . S
H355 C327 0.931 . S
H356 C345 0.930 . S
H357 C346 0.930 . S
H358 C347 0.930 . S
H359 C348 0.931 . S
Eu360 C369 2.828 . S
Eu360 O371 2.392 . S
Eu360 O373 2.418 . S
Eu360 O378 2.373 . S
Eu360 O381 2.488 . S
Eu360 O382 2.471 . S
Eu360 O383 2.349 . S
Eu361 O370 2.373 . S
Eu361 O374 2.488 . S
Eu361 O375 2.471 . S
Eu361 O376 2.349 . S
Eu361 O379 2.392 . S
Eu361 O380 2.418 . S
Eu361 C390 2.828 . S
C362 O380 1.244 . S
C362 O383 1.265 . S
C363 C364 1.379 . S
C363 C367 1.373 . S
C363 C369 1.505 . S
C364 C363 1.379 . S
C364 C366 1.369 . S
C364 H392 0.930 . S
C365 C367 1.383 . S
C365 C368 1.382 . S
C365 H393 0.930 . S
C366 C364 1.369 . S
C366 C368 1.392 . S
C366 H394 0.930 . S
C367 C363 1.373 . S
C367 C365 1.383 . S
C367 H395 0.931 . S
C368 C365 1.382 . S
C368 C366 1.392 . S
C369 Eu360 2.828 . S
C369 C363 1.505 . S
C369 O381 1.249 . S
C369 O382 1.244 . S
O370 Eu361 2.373 . S
O370 C372 1.258 . S
O371 Eu360 2.392 . S
O371 C372 1.242 . S
C372 O370 1.258 . S
C372 O371 1.242 . S
O373 Eu360 2.418 . S
O373 C377 1.244 . S
O374 Eu361 2.488 . S
O374 C390 1.249 . S
O375 Eu361 2.471 . S
O375 C390 1.244 . S
O376 Eu361 2.349 . S
O376 C377 1.265 . S
C377 O373 1.244 . S
C377 O376 1.265 . S
O378 Eu360 2.373 . S
O378 C391 1.258 . S
O379 Eu361 2.392 . S
O379 C391 1.242 . S
O380 Eu361 2.418 . S
O380 C362 1.244 . S
O381 Eu360 2.488 . S
O381 C369 1.249 . S
O382 Eu360 2.471 . S
O382 C369 1.244 . S
O383 Eu360 2.349 . S
O383 C362 1.265 . S
C384 C385 1.379 . S
C384 C388 1.373 . S
C384 C390 1.505 . S
C385 C384 1.379 . S
C385 C387 1.369 . S
C385 H396 0.930 . S
C386 C388 1.383 . S
C386 C389 1.382 . S
C386 H397 0.930 . S
C387 C385 1.369 . S
C387 C389 1.392 . S
C387 H398 0.930 . S
C388 C384 1.373 . S
C388 C386 1.383 . S
C388 H399 0.931 . S
C389 C386 1.382 . S
C389 C387 1.392 . S
C390 Eu361 2.828 . S
C390 O374 1.249 . S
C390 O375 1.244 . S
C390 C384 1.505 . S
C391 O378 1.258 . S
C391 O379 1.242 . S
H392 C364 0.930 . S
H393 C365 0.930 . S
H394 C366 0.930 . S
H395 C367 0.931 . S
H396 C385 0.930 . S
H397 C386 0.930 . S
H398 C387 0.930 . S
H399 C388 0.931 . S
Eu400 C409 2.828 . S
Eu400 O411 2.392 . S
Eu400 O413 2.418 . S
Eu400 O418 2.373 . S
Eu400 O421 2.488 . S
Eu400 O422 2.471 . S
Eu400 O423 2.349 . S
Eu401 O410 2.373 . S
Eu401 O414 2.488 . S
Eu401 O415 2.471 . S
Eu401 O416 2.349 . S
Eu401 O419 2.392 . S
Eu401 O420 2.418 . S
Eu401 C430 2.828 . S
C402 O420 1.244 . S
C402 O423 1.265 . S
C403 C404 1.379 . S
C403 C407 1.373 . S
C403 C409 1.505 . S
C404 C403 1.379 . S
C404 C406 1.369 . S
C404 H432 0.930 . S
C405 C407 1.383 . S
C405 C408 1.382 . S
C405 H433 0.930 . S
C406 C404 1.369 . S
C406 C408 1.392 . S
C406 H434 0.930 . S
C407 C403 1.373 . S
C407 C405 1.383 . S
C407 H435 0.931 . S
C408 C405 1.382 . S
C408 C406 1.392 . S
C409 Eu400 2.828 . S
C409 C403 1.505 . S
C409 O421 1.249 . S
C409 O422 1.244 . S
O410 Eu401 2.373 . S
O410 C412 1.258 . S
O411 Eu400 2.392 . S
O411 C412 1.242 . S
C412 O410 1.258 . S
C412 O411 1.242 . S
O413 Eu400 2.418 . S
O413 C417 1.244 . S
O414 Eu401 2.488 . S
O414 C430 1.249 . S
O415 Eu401 2.471 . S
O415 C430 1.244 . S
O416 Eu401 2.349 . S
O416 C417 1.265 . S
C417 O413 1.244 . S
C417 O416 1.265 . S
O418 Eu400 2.373 . S
O418 C431 1.258 . S
O419 Eu401 2.392 . S
O419 C431 1.242 . S
O420 Eu401 2.418 . S
O420 C402 1.244 . S
O421 Eu400 2.488 . S
O421 C409 1.249 . S
O422 Eu400 2.471 . S
O422 C409 1.244 . S
O423 Eu400 2.349 . S
O423 C402 1.265 . S
C424 C425 1.379 . S
C424 C428 1.373 . S
C424 C430 1.505 . S
C425 C424 1.379 . S
C425 C427 1.369 1_455 S
C425 H436 0.930 . S
C426 C428 1.383 1_655 S
C426 C429 1.382 . S
C426 H437 0.930 . S
C427 C425 1.369 1_655 S
C427 C429 1.392 . S
C427 H438 0.930 . S
C428 C424 1.373 . S
C428 C426 1.383 1_455 S
C428 H439 0.931 . S
C429 C426 1.382 . S
C429 C427 1.392 . S
C430 Eu401 2.828 . S
C430 O414 1.249 . S
C430 O415 1.244 . S
C430 C424 1.505 . S
C431 O418 1.258 . S
C431 O419 1.242 . S
H432 C404 0.930 . S
H433 C405 0.930 . S
H434 C406 0.930 . S
H435 C407 0.931 . S
H436 C425 0.930 . S
H437 C426 0.930 . S
H438 C427 0.930 . S
H439 C428 0.931 . S
Eu440 C449 2.828 . S
Eu440 O451 2.392 . S
Eu440 O453 2.418 . S
Eu440 O458 2.373 . S
Eu440 O461 2.488 . S
Eu440 O462 2.471 . S
Eu440 O463 2.349 . S
Eu441 O450 2.373 . S
Eu441 O454 2.488 . S
Eu441 O455 2.471 . S
Eu441 O456 2.349 . S
Eu441 O459 2.392 . S
Eu441 O460 2.418 . S
Eu441 C470 2.828 . S
C442 O460 1.244 . S
C442 O463 1.265 . S
C443 C444 1.379 . S
C443 C447 1.373 . S
C443 C449 1.505 . S
C444 C443 1.379 . S
C444 C446 1.369 . S
C444 H472 0.930 . S
C445 C447 1.383 . S
C445 C448 1.382 . S
C445 H473 0.930 . S
C446 C444 1.369 . S
C446 C448 1.392 . S
C446 H474 0.930 . S
C447 C443 1.373 . S
C447 C445 1.383 . S
C447 H475 0.931 . S
C448 C445 1.382 . S
C448 C446 1.392 . S
C449 Eu440 2.828 . S
C449 C443 1.505 . S
C449 O461 1.249 . S
C449 O462 1.244 . S
O450 Eu441 2.373 . S
O450 C452 1.258 . S
O451 Eu440 2.392 . S
O451 C452 1.242 . S
C452 O450 1.258 . S
C452 O451 1.242 . S
O453 Eu440 2.418 . S
O453 C457 1.244 . S
O454 Eu441 2.488 . S
O454 C470 1.249 . S
O455 Eu441 2.471 . S
O455 C470 1.244 . S
O456 Eu441 2.349 . S
O456 C457 1.265 . S
C457 O453 1.244 . S
C457 O456 1.265 . S
O458 Eu440 2.373 . S
O458 C471 1.258 . S
O459 Eu441 2.392 . S
O459 C471 1.242 . S
O460 Eu441 2.418 . S
O460 C442 1.244 . S
O461 Eu440 2.488 . S
O461 C449 1.249 . S
O462 Eu440 2.471 . S
O462 C449 1.244 . S
O463 Eu440 2.349 . S
O463 C442 1.265 . S
C464 C465 1.379 . S
C464 C468 1.373 . S
C464 C470 1.505 . S
C465 C464 1.379 . S
C465 C467 1.369 1_545 S
C465 H476 0.930 . S
C466 C468 1.383 1_565 S
C466 C469 1.382 . S
C466 H477 0.930 . S
C467 C465 1.369 1_565 S
C467 C469 1.392 . S
C467 H478 0.930 . S
C468 C464 1.373 . S
C468 C466 1.383 1_545 S
C468 H479 0.931 . S
C469 C466 1.382 . S
C469 C467 1.392 . S
C470 Eu441 2.828 . S
C470 O454 1.249 . S
C470 O455 1.244 . S
C470 C464 1.505 . S
C471 O458 1.258 . S
C471 O459 1.242 . S
H472 C444 0.930 . S
H473 C445 0.930 . S
H474 C446 0.930 . S
H475 C447 0.931 . S
H476 C465 0.930 . S
H477 C466 0.930 . S
H478 C467 0.930 . S
H479 C468 0.931 . S
H480 C498 0.951 . S
H481 C500 0.951 . S
H482 C502 0.950 . S
H483 C503 0.950 . S
H484 C505 0.969 . S
H485 C508 0.950 . S
H486 C509 0.950 . S
H487 C511 0.950 . S
H488 C512 0.950 . S
H489 C513 0.951 . S
H490 C515 0.951 . S
H491 C517 0.950 . S
H492 C518 0.950 . S
H493 C520 0.950 . S
H494 C523 0.950 . S
H495 C524 0.950 . S
H496 C526 0.950 . S
H497 C527 0.950 . S
C498 H480 0.951 . S
C498 C499 1.366 . S
C498 C500 1.388 . S
C499 C498 1.366 . S
C499 C503 1.385 . S
C500 H481 0.951 . S
C500 C498 1.388 . S
C500 C501 1.366 . S
C501 C500 1.366 . S
C501 C502 1.414 . S
C501 C504 1.499 . S
C502 H482 0.950 . S
C502 C501 1.414 . S
C502 C503 1.374 . S
C503 H483 0.950 . S
C503 C499 1.385 . S
C503 C502 1.374 . S
C504 C501 1.499 . S
C504 C505 1.383 . S
C504 C506 1.389 . S
C505 H484 0.969 . S
C505 C504 1.383 . S
C505 C521 1.348 1_565 S
C506 C504 1.389 . S
C506 C507 1.524 . S
C506 C520 1.377 1_565 S
C507 C506 1.524 . S
C507 C508 1.397 . S
C507 C512 1.363 . S
C508 H485 0.950 . S
C508 C507 1.397 . S
C508 C509 1.334 . S
C509 H486 0.950 . S
C509 C508 1.334 . S
C509 C510 1.287 . S
C510 C509 1.287 . S
C510 C511 1.524 . S
C510 H529 0.913 . S
C511 H487 0.950 . S
C511 C510 1.524 . S
C511 C512 1.415 . S
C512 H488 0.950 . S
C512 C507 1.363 . S
C512 C511 1.415 . S
C513 H489 0.951 . S
C513 C514 1.366 . S
C513 C515 1.388 . S
C514 C513 1.366 . S
C514 C518 1.385 . S
C515 H490 0.951 . S
C515 C513 1.388 . S
C515 C516 1.366 . S
C516 C515 1.366 . S
C516 C517 1.414 . S
C516 C519 1.499 . S
C517 H491 0.950 . S
C517 C516 1.414 . S
C517 C518 1.374 . S
C518 H492 0.950 . S
C518 C514 1.385 . S
C518 C517 1.374 . S
C519 C516 1.499 . S
C519 C520 1.373 . S
C519 C521 1.389 . S
C520 H493 0.950 . S
C520 C506 1.377 1_545 S
C520 C519 1.373 . S
C521 C505 1.348 1_545 S
C521 C519 1.389 . S
C521 C522 1.524 . S
C522 C521 1.524 . S
C522 C523 1.397 . S
C522 C527 1.363 . S
C523 H494 0.950 . S
C523 C522 1.397 . S
C523 C524 1.334 . S
C524 H495 0.950 . S
C524 C523 1.334 . S
C524 C525 1.287 . S
C525 C524 1.287 . S
C525 C526 1.524 . S
C525 H528 0.999 . S
C526 H496 0.950 . S
C526 C525 1.524 . S
C526 C527 1.415 . S
C527 H497 0.950 . S
C527 C522 1.363 . S
C527 C526 1.415 . S
H528 C525 0.999 . S
H529 C510 0.913 . S
H530 C548 0.951 . S
H531 C550 0.951 . S
H532 C552 0.950 . S
H533 C553 0.950 . S
H534 C555 0.950 . S
H535 C558 0.950 . S
H536 C559 0.950 . S
H537 C561 0.950 . S
H538 C562 0.950 . S
H539 C563 0.951 . S
H540 C565 0.951 . S
H541 C567 0.950 . S
H542 C568 0.950 . S
H543 C570 0.950 . S
H544 C573 0.950 . S
H545 C574 0.950 . S
H546 C576 0.950 . S
H547 C577 0.950 . S
C548 H530 0.951 . S
C548 C549 1.366 . S
C548 C550 1.388 . S
C549 C548 1.366 . S
C549 C553 1.385 . S
C550 H531 0.951 . S
C550 C548 1.388 . S
C550 C551 1.366 . S
C551 C550 1.366 . S
C551 C552 1.414 . S
C551 C554 1.499 . S
C552 H532 0.950 . S
C552 C551 1.414 . S
C552 C553 1.374 . S
C553 H533 0.950 . S
C553 C549 1.385 . S
C553 C552 1.374 . S
C554 C551 1.499 . S
C554 C555 1.373 . S
C554 C556 1.389 . S
C555 H534 0.950 . S
C555 C554 1.373 . S
C555 C571 1.377 . S
C556 C554 1.389 . S
C556 C557 1.524 . S
C556 C570 1.377 . S
C557 C556 1.524 . S
C557 C558 1.397 . S
C557 C562 1.363 . S
C558 H535 0.950 . S
C558 C557 1.397 . S
C558 C559 1.334 . S
C559 H536 0.950 . S
C559 C558 1.334 . S
C559 C560 1.287 . S
C560 C559 1.287 . S
C560 C561 1.524 . S
C560 H579 0.913 . S
C561 H537 0.950 . S
C561 C560 1.524 . S
C561 C562 1.415 . S
C562 H538 0.950 . S
C562 C557 1.363 . S
C562 C561 1.415 . S
C563 H539 0.951 . S
C563 C564 1.366 . S
C563 C565 1.388 . S
C564 C563 1.366 . S
C564 C568 1.385 . S
C565 H540 0.951 . S
C565 C563 1.388 . S
C565 C566 1.366 . S
C566 C565 1.366 . S
C566 C567 1.414 . S
C566 C569 1.499 . S
C567 H541 0.950 . S
C567 C566 1.414 . S
C567 C568 1.374 . S
C568 H542 0.950 . S
C568 C564 1.385 . S
C568 C567 1.374 . S
C569 C566 1.499 . S
C569 C570 1.373 . S
C569 C571 1.389 . S
C570 H543 0.950 . S
C570 C556 1.377 . S
C570 C569 1.373 . S
C571 C555 1.377 . S
C571 C569 1.389 . S
C571 C572 1.524 . S
C572 C571 1.524 . S
C572 C573 1.397 . S
C572 C577 1.363 . S
C573 H544 0.950 . S
C573 C572 1.397 . S
C573 C574 1.334 . S
C574 H545 0.950 . S
C574 C573 1.334 . S
C574 C575 1.287 . S
C575 C574 1.287 . S
C575 C576 1.524 . S
C575 H578 0.999 . S
C576 H546 0.950 . S
C576 C575 1.524 . S
C576 C577 1.415 . S
C577 H547 0.950 . S
C577 C572 1.363 . S
C577 C576 1.415 . S
H578 C575 0.999 . S
H579 C560 0.913 . S
H580 C598 0.951 . S
H581 C600 0.951 . S
H582 C602 0.950 . S
H583 C603 0.950 . S
H584 C605 0.950 . S
H585 C608 0.950 . S
H586 C609 0.950 . S
H587 C611 0.950 . S
H588 C612 0.950 . S
H589 C613 0.951 . S
H590 C615 0.951 . S
H591 C617 0.950 . S
H592 C618 0.950 . S
H593 C620 0.950 1_455 S
H594 C623 0.950 . S
H595 C624 0.950 . S
H596 C626 0.950 . S
H597 C627 0.950 . S
C598 H580 0.951 . S
C598 C599 1.366 . S
C598 C600 1.388 . S
C599 C598 1.366 . S
C599 C603 1.385 . S
C600 H581 0.951 . S
C600 C598 1.388 . S
C600 C601 1.366 . S
C601 C600 1.366 . S
C601 C602 1.414 . S
C601 C604 1.499 . S
C602 H582 0.950 . S
C602 C601 1.414 . S
C602 C603 1.374 . S
C603 H583 0.950 . S
C603 C599 1.385 . S
C603 C602 1.374 . S
C604 C601 1.499 . S
C604 C605 1.373 . S
C604 C606 1.389 . S
C605 H584 0.950 . S
C605 C604 1.373 . S
C605 C621 1.377 1_655 S
C606 C604 1.389 . S
C606 C607 1.524 . S
C606 C620 1.377 . S
C607 C606 1.524 . S
C607 C608 1.397 . S
C607 C612 1.363 . S
C608 H585 0.950 . S
C608 C607 1.397 . S
C608 C609 1.334 . S
C609 H586 0.950 . S
C609 C608 1.334 . S
C609 C610 1.287 . S
C610 C609 1.287 . S
C610 C611 1.524 . S
C610 H629 0.913 . S
C611 H587 0.950 . S
C611 C610 1.524 . S
C611 C612 1.415 . S
C612 H588 0.950 . S
C612 C607 1.363 . S
C612 C611 1.415 . S
C613 H589 0.951 . S
C613 C614 1.366 . S
C613 C615 1.388 . S
C614 C613 1.366 . S
C614 C618 1.385 . S
C615 H590 0.951 . S
C615 C613 1.388 . S
C615 C616 1.366 . S
C616 C615 1.366 . S
C616 C617 1.414 . S
C616 C619 1.499 . S
C617 H591 0.950 . S
C617 C616 1.414 . S
C617 C618 1.374 . S
C618 H592 0.950 . S
C618 C614 1.385 . S
C618 C617 1.374 . S
C619 C616 1.499 . S
C619 C620 1.373 1_455 S
C619 C621 1.389 . S
C620 H593 0.950 1_655 S
C620 C606 1.377 . S
C620 C619 1.373 1_655 S
C621 C605 1.377 1_455 S
C621 C619 1.389 . S
C621 C622 1.524 . S
C622 C621 1.524 . S
C622 C623 1.397 . S
C622 C627 1.363 . S
C623 H594 0.950 . S
C623 C622 1.397 . S
C623 C624 1.334 . S
C624 H595 0.950 . S
C624 C623 1.334 . S
C624 C625 1.287 . S
C625 C624 1.287 . S
C625 C626 1.524 . S
C625 H628 0.999 . S
C626 H596 0.950 . S
C626 C625 1.524 . S
C626 C627 1.415 . S
C627 H597 0.950 . S
C627 C622 1.363 . S
C627 C626 1.415 . S
H628 C625 0.999 . S
H629 C610 0.913 . S
H630 C648 0.951 . S
H631 C650 0.951 . S
H632 C652 0.950 . S
H633 C653 0.950 . S
H634 C655 0.950 . S
H635 C658 0.950 . S
H636 C659 0.950 . S
H637 C661 0.950 1_545 S
H638 C662 0.970 . S
H639 C663 0.951 . S
H640 C665 0.951 . S
H641 C667 0.950 . S
H642 C668 0.950 . S
H643 C670 0.950 . S
H644 C673 0.950 . S
H645 C674 0.950 . S
H646 C676 0.950 . S
H647 C677 0.950 . S
C648 H630 0.951 . S
C648 C649 1.366 . S
C648 C650 1.388 . S
C649 C648 1.366 . S
C649 C653 1.385 . S
C650 H631 0.951 . S
C650 C648 1.388 . S
C650 C651 1.366 . S
C651 C650 1.366 . S
C651 C652 1.414 . S
C651 C654 1.499 . S
C652 H632 0.950 . S
C652 C651 1.414 . S
C652 C653 1.374 . S
C653 H633 0.950 . S
C653 C649 1.385 . S
C653 C652 1.374 . S
C654 C651 1.499 . S
C654 C655 1.373 . S
C654 C656 1.389 . S
C655 H634 0.950 . S
C655 C654 1.373 . S
C655 C671 1.377 . S
C656 C654 1.389 . S
C656 C657 1.524 . S
C656 C670 1.377 1_565 S
C657 C656 1.524 . S
C657 C658 1.397 . S
C657 C662 1.360 1_565 S
C658 H635 0.950 . S
C658 C657 1.397 . S
C658 C659 1.334 . S
C659 H636 0.950 . S
C659 C658 1.334 . S
C659 C660 1.287 . S
C660 C659 1.287 . S
C660 C661 1.524 . S
C660 H679 0.913 . S
C661 H637 0.950 1_565 S
C661 C660 1.524 . S
C661 C662 1.400 1_565 S
C662 H638 0.970 . S
C662 C657 1.360 1_545 S
C662 C661 1.400 1_545 S
C663 H639 0.951 . S
C663 C664 1.366 . S
C663 C665 1.388 . S
C664 C663 1.366 . S
C664 C668 1.385 . S
C665 H640 0.951 . S
C665 C663 1.388 . S
C665 C666 1.366 . S
C666 C665 1.366 . S
C666 C667 1.414 . S
C666 C669 1.499 . S
C667 H641 0.950 . S
C667 C666 1.414 . S
C667 C668 1.374 . S
C668 H642 0.950 . S
C668 C664 1.385 . S
C668 C667 1.374 . S
C669 C666 1.499 . S
C669 C670 1.373 . S
C669 C671 1.389 1_545 S
C670 H643 0.950 . S
C670 C656 1.377 1_545 S
C670 C669 1.373 . S
C671 C655 1.377 . S
C671 C669 1.389 1_565 S
C671 C672 1.524 1_565 S
C672 C671 1.524 1_545 S
C672 C673 1.397 . S
C672 C677 1.363 1_545 S
C673 H644 0.950 . S
C673 C672 1.397 . S
C673 C674 1.334 . S
C674 H645 0.950 . S
C674 C673 1.334 . S
C674 C675 1.287 . S
C675 C674 1.287 . S
C675 C676 1.524 1_545 S
C675 H678 0.999 . S
C676 H646 0.950 . S
C676 C675 1.524 1_565 S
C676 C677 1.415 . S
C677 H647 0.950 . S
C677 C672 1.363 1_565 S
C677 C676 1.415 . S
H678 C675 0.999 . S
H679 C660 0.913 . S
H680 C698 0.951 . S
H681 C700 0.951 . S
H682 C702 0.950 . S
H683 C703 0.950 . S
H684 C705 0.950 . S
H685 C708 0.950 . S
H686 C709 0.950 . S
H687 C711 0.950 . S
H688 C712 0.950 . S
H689 C713 0.951 . S
H690 C715 0.951 . S
H691 C717 0.950 . S
H692 C718 0.950 . S
H693 C720 0.950 . S
H694 C723 0.950 . S
H695 C724 0.950 . S
H696 C726 0.950 . S
H697 C727 0.950 . S
C698 H680 0.951 . S
C698 C699 1.366 . S
C698 C700 1.388 . S
C699 C698 1.366 . S
C699 C703 1.385 . S
C700 H681 0.951 . S
C700 C698 1.388 . S
C700 C701 1.366 . S
C701 C700 1.366 . S
C701 C702 1.414 . S
C701 C704 1.499 . S
C702 H682 0.950 . S
C702 C701 1.414 . S
C702 C703 1.374 . S
C703 H683 0.950 . S
C703 C699 1.385 . S
C703 C702 1.374 . S
C704 C701 1.499 . S
C704 C705 1.373 . S
C704 C706 1.389 . S
C705 H684 0.950 . S
C705 C704 1.373 . S
C705 C721 1.377 . S
C706 C704 1.389 . S
C706 C707 1.524 . S
C706 C720 1.377 . S
C707 C706 1.524 . S
C707 C708 1.397 . S
C707 C712 1.363 . S
C708 H685 0.950 . S
C708 C707 1.397 . S
C708 C709 1.334 . S
C709 H686 0.950 . S
C709 C708 1.334 . S
C709 C710 1.287 . S
C710 C709 1.287 . S
C710 C711 1.524 . S
C710 H729 0.913 . S
C711 H687 0.950 . S
C711 C710 1.524 . S
C711 C712 1.415 . S
C712 H688 0.950 . S
C712 C707 1.363 . S
C712 C711 1.415 . S
C713 H689 0.951 . S
C713 C714 1.366 . S
C713 C715 1.388 . S
C714 C713 1.366 . S
C714 C718 1.385 . S
C715 H690 0.951 . S
C715 C713 1.388 . S
C715 C716 1.366 . S
C716 C715 1.366 . S
C716 C717 1.414 . S
C716 C719 1.499 . S
C717 H691 0.950 . S
C717 C716 1.414 . S
C717 C718 1.374 . S
C718 H692 0.950 . S
C718 C714 1.385 . S
C718 C717 1.374 . S
C719 C716 1.499 . S
C719 C720 1.373 . S
C719 C721 1.389 . S
C720 H693 0.950 . S
C720 C706 1.377 . S
C720 C719 1.373 . S
C721 C705 1.377 . S
C721 C719 1.389 . S
C721 C722 1.524 . S
C722 C721 1.524 . S
C722 C723 1.397 . S
C722 C727 1.363 . S
C723 H694 0.950 . S
C723 C722 1.397 . S
C723 C724 1.334 . S
C724 H695 0.950 . S
C724 C723 1.334 . S
C724 C725 1.287 . S
C725 C724 1.287 . S
C725 C726 1.524 . S
C725 H728 0.999 . S
C726 H696 0.950 . S
C726 C725 1.524 . S
C726 C727 1.415 . S
C727 H697 0.950 . S
C727 C722 1.363 . S
C727 C726 1.415 . S
H728 C725 0.999 . S
H729 C710 0.913 . S
H730 C748 0.951 . S
H731 C750 0.951 . S
H732 C752 0.950 . S
H733 C753 0.950 . S
H734 C755 0.951 1_655 S
H735 C758 0.950 . S
H736 C759 0.950 . S
H737 C761 0.950 . S
H738 C762 0.950 . S
H739 C763 0.951 . S
H740 C765 0.951 . S
H741 C767 0.950 . S
H742 C768 0.950 . S
H743 C770 0.950 . S
H744 C773 0.950 . S
H745 C774 0.950 . S
H746 C776 0.950 . S
H747 C777 0.950 . S
C748 H730 0.951 . S
C748 C749 1.366 . S
C748 C750 1.388 . S
C749 C748 1.366 . S
C749 C753 1.385 . S
C750 H731 0.951 . S
C750 C748 1.388 . S
C750 C751 1.366 . S
C751 C750 1.366 . S
C751 C752 1.414 . S
C751 C754 1.499 . S
C752 H732 0.950 . S
C752 C751 1.414 . S
C752 C753 1.374 . S
C753 H733 0.950 . S
C753 C749 1.385 . S
C753 C752 1.374 . S
C754 C751 1.499 . S
C754 C755 1.371 1_655 S
C754 C756 1.389 . S
C755 H734 0.951 1_455 S
C755 C754 1.371 1_455 S
C755 C771 1.378 . S
C756 C754 1.389 . S
C756 C757 1.524 . S
C756 C770 1.377 1_655 S
C757 C756 1.524 . S
C757 C758 1.397 . S
C757 C762 1.363 . S
C758 H735 0.950 . S
C758 C757 1.397 . S
C758 C759 1.334 . S
C759 H736 0.950 . S
C759 C758 1.334 . S
C759 C760 1.287 . S
C760 C759 1.287 . S
C760 C761 1.524 . S
C760 H779 0.913 . S
C761 H737 0.950 . S
C761 C760 1.524 . S
C761 C762 1.415 . S
C762 H738 0.950 . S
C762 C757 1.363 . S
C762 C761 1.415 . S
C763 H739 0.951 . S
C763 C764 1.366 . S
C763 C765 1.388 . S
C764 C763 1.366 . S
C764 C768 1.385 . S
C765 H740 0.951 . S
C765 C763 1.388 . S
C765 C766 1.366 . S
C766 C765 1.366 . S
C766 C767 1.414 . S
C766 C769 1.499 . S
C767 H741 0.950 . S
C767 C766 1.414 . S
C767 C768 1.374 . S
C768 H742 0.950 . S
C768 C764 1.385 . S
C768 C767 1.374 . S
C769 C766 1.499 . S
C769 C770 1.373 . S
C769 C771 1.389 . S
C770 H743 0.950 . S
C770 C756 1.377 1_455 S
C770 C769 1.373 . S
C771 C755 1.378 . S
C771 C769 1.389 . S
C771 C772 1.524 . S
C772 C771 1.524 . S
C772 C773 1.397 . S
C772 C777 1.363 . S
C773 H744 0.950 . S
C773 C772 1.397 . S
C773 C774 1.334 . S
C774 H745 0.950 . S
C774 C773 1.334 . S
C774 C775 1.287 . S
C775 C774 1.287 . S
C775 C776 1.524 . S
C775 H778 0.999 . S
C776 H746 0.950 . S
C776 C775 1.524 . S
C776 C777 1.415 . S
C777 H747 0.950 . S
C777 C772 1.363 . S
C777 C776 1.415 . S
H778 C775 0.999 . S
H779 C760 0.913 . S
H780 C798 0.951 . S
H781 C800 0.951 . S
H782 C802 0.950 . S
H783 C803 0.950 . S
H784 C805 0.950 . S
H785 C808 0.950 . S
H786 C809 0.950 . S
H787 C811 0.950 . S
H788 C812 0.950 . S
H789 C813 0.951 . S
H790 C815 0.951 . S
H791 C817 0.950 . S
H792 C818 0.950 . S
H793 C820 0.950 . S
H794 C823 0.950 . S
H795 C824 0.950 . S
H796 C826 0.950 . S
H797 C827 0.950 . S
C798 H780 0.951 . S
C798 C799 1.366 . S
C798 C800 1.388 . S
C799 C798 1.366 . S
C799 C803 1.385 . S
C800 H781 0.951 . S
C800 C798 1.388 . S
C800 C801 1.366 . S
C801 C800 1.366 . S
C801 C802 1.414 . S
C801 C804 1.499 . S
C802 H782 0.950 . S
C802 C801 1.414 . S
C802 C803 1.374 . S
C803 H783 0.950 . S
C803 C799 1.385 . S
C803 C802 1.374 . S
C804 C801 1.499 . S
C804 C805 1.373 . S
C804 C806 1.389 . S
C805 H784 0.950 . S
C805 C804 1.373 . S
C805 C821 1.377 1_455 S
C806 C804 1.389 . S
C806 C807 1.524 . S
C806 C820 1.377 1_455 S
C807 C806 1.524 . S
C807 C808 1.397 . S
C807 C812 1.363 . S
C808 H785 0.950 . S
C808 C807 1.397 . S
C808 C809 1.334 . S
C809 H786 0.950 . S
C809 C808 1.334 . S
C809 C810 1.287 . S
C810 C809 1.287 . S
C810 C811 1.524 . S
C810 H829 0.913 . S
C811 H787 0.950 . S
C811 C810 1.524 . S
C811 C812 1.415 . S
C812 H788 0.950 . S
C812 C807 1.363 . S
C812 C811 1.415 . S
C813 H789 0.951 . S
C813 C814 1.366 . S
C813 C815 1.388 . S
C814 C813 1.366 . S
C814 C818 1.385 . S
C815 H790 0.951 . S
C815 C813 1.388 . S
C815 C816 1.366 . S
C816 C815 1.366 . S
C816 C817 1.414 . S
C816 C819 1.499 . S
C817 H791 0.950 . S
C817 C816 1.414 . S
C817 C818 1.374 . S
C818 H792 0.950 . S
C818 C814 1.385 . S
C818 C817 1.374 . S
C819 C816 1.499 . S
C819 C820 1.373 . S
C819 C821 1.389 . S
C820 H793 0.950 . S
C820 C806 1.377 1_655 S
C820 C819 1.373 . S
C821 C805 1.377 1_655 S
C821 C819 1.389 . S
C821 C822 1.524 . S
C822 C821 1.524 . S
C822 C823 1.397 . S
C822 C827 1.363 . S
C823 H794 0.950 . S
C823 C822 1.397 . S
C823 C824 1.334 . S
C824 H795 0.950 . S
C824 C823 1.334 . S
C824 C825 1.287 . S
C825 C824 1.287 . S
C825 C826 1.524 . S
C825 H828 0.999 . S
C826 H796 0.950 . S
C826 C825 1.524 . S
C826 C827 1.415 . S
C827 H797 0.950 . S
C827 C822 1.363 . S
C827 C826 1.415 . S
H828 C825 0.999 . S
H829 C810 0.913 . S
H830 C848 0.951 . S
H831 C850 0.951 . S
H832 C852 0.950 . S
H833 C853 0.950 . S
H834 C855 0.950 . S
H835 C858 0.950 . S
H836 C859 0.950 . S
H837 C861 0.950 . S
H838 C862 0.950 . S
H839 C863 0.951 . S
H840 C865 0.951 . S
H841 C867 0.950 . S
H842 C868 0.950 . S
H843 C870 0.950 1_545 S
H844 C873 0.950 . S
H845 C874 0.950 . S
H846 C876 0.950 . S
H847 C877 0.950 . S
C848 H830 0.951 . S
C848 C849 1.366 . S
C848 C850 1.388 . S
C849 C848 1.366 . S
C849 C853 1.385 . S
C850 H831 0.951 . S
C850 C848 1.388 . S
C850 C851 1.366 . S
C851 C850 1.366 . S
C851 C852 1.414 . S
C851 C854 1.499 . S
C852 H832 0.950 . S
C852 C851 1.414 . S
C852 C853 1.374 . S
C853 H833 0.950 . S
C853 C849 1.385 . S
C853 C852 1.374 . S
C854 C851 1.499 . S
C854 C855 1.373 . S
C854 C856 1.389 . S
C855 H834 0.950 . S
C855 C854 1.373 . S
C855 C871 1.377 1_565 S
C856 C854 1.389 . S
C856 C857 1.524 . S
C856 C870 1.377 . S
C857 C856 1.524 . S
C857 C858 1.397 . S
C857 C862 1.363 . S
C858 H835 0.950 . S
C858 C857 1.397 . S
C858 C859 1.334 . S
C859 H836 0.950 . S
C859 C858 1.334 . S
C859 C860 1.287 . S
C860 C859 1.287 . S
C860 C861 1.524 . S
C860 H879 0.913 . S
C861 H837 0.950 . S
C861 C860 1.524 . S
C861 C862 1.415 . S
C862 H838 0.950 . S
C862 C857 1.363 . S
C862 C861 1.415 . S
C863 H839 0.951 . S
C863 C864 1.366 . S
C863 C865 1.388 . S
C864 C863 1.366 . S
C864 C868 1.385 . S
C865 H840 0.951 . S
C865 C863 1.388 . S
C865 C866 1.366 . S
C866 C865 1.366 . S
C866 C867 1.414 . S
C866 C869 1.499 . S
C867 H841 0.950 . S
C867 C866 1.414 . S
C867 C868 1.374 . S
C868 H842 0.950 . S
C868 C864 1.385 . S
C868 C867 1.374 . S
C869 C866 1.499 . S
C869 C870 1.373 1_545 S
C869 C871 1.389 . S
C870 H843 0.950 1_565 S
C870 C856 1.377 . S
C870 C869 1.373 1_565 S
C871 C855 1.377 1_545 S
C871 C869 1.389 . S
C871 C872 1.524 . S
C872 C871 1.524 . S
C872 C873 1.397 . S
C872 C877 1.363 . S
C873 H844 0.950 . S
C873 C872 1.397 . S
C873 C874 1.334 . S
C874 H845 0.950 . S
C874 C873 1.334 . S
C874 C875 1.287 . S
C875 C874 1.287 . S
C875 C876 1.524 . S
C875 H878 0.999 . S
C876 H846 0.950 . S
C876 C875 1.524 . S
C876 C877 1.415 . S
C877 H847 0.950 . S
C877 C872 1.363 . S
C877 C876 1.415 . S
H878 C875 0.999 . S
H879 C860 0.913 . S
H880 C898 0.951 . S
H881 C900 0.951 . S
H882 C902 0.950 . S
H883 C903 0.950 . S
H884 C905 0.950 . S
H885 C908 0.950 . S
H886 C909 0.950 . S
H887 C911 0.950 . S
H888 C912 0.950 . S
H889 C913 0.951 . S
H890 C915 0.951 . S
H891 C917 0.950 . S
H892 C918 0.950 . S
H893 C920 0.950 . S
H894 C923 0.950 . S
H895 C924 0.950 . S
H896 C926 0.950 . S
H897 C927 0.950 . S
C898 H880 0.951 . S
C898 C899 1.366 . S
C898 C900 1.388 . S
C899 C898 1.366 . S
C899 C903 1.385 . S
C900 H881 0.951 . S
C900 C898 1.388 . S
C900 C901 1.366 . S
C901 C900 1.366 . S
C901 C902 1.414 . S
C901 C904 1.499 . S
C902 H882 0.950 . S
C902 C901 1.414 . S
C902 C903 1.374 . S
C903 H883 0.950 . S
C903 C899 1.385 . S
C903 C902 1.374 . S
C904 C901 1.499 . S
C904 C905 1.373 . S
C904 C906 1.389 . S
C905 H884 0.950 . S
C905 C904 1.373 . S
C905 C921 1.377 . S
C906 C904 1.389 . S
C906 C907 1.524 . S
C906 C920 1.377 . S
C907 C906 1.524 . S
C907 C908 1.397 . S
C907 C912 1.363 . S
C908 H885 0.950 . S
C908 C907 1.397 . S
C908 C909 1.334 . S
C909 H886 0.950 . S
C909 C908 1.334 . S
C909 C910 1.287 . S
C910 C909 1.287 . S
C910 C911 1.524 . S
C910 H929 0.913 . S
C911 H887 0.950 . S
C911 C910 1.524 . S
C911 C912 1.415 . S
C912 H888 0.950 . S
C912 C907 1.363 . S
C912 C911 1.415 . S
C913 H889 0.951 . S
C913 C914 1.366 . S
C913 C915 1.388 . S
C914 C913 1.366 . S
C914 C918 1.385 . S
C915 H890 0.951 . S
C915 C913 1.388 . S
C915 C916 1.366 . S
C916 C915 1.366 . S
C916 C917 1.414 . S
C916 C919 1.499 . S
C917 H891 0.950 . S
C917 C916 1.414 . S
C917 C918 1.374 . S
C918 H892 0.950 . S
C918 C914 1.385 . S
C918 C917 1.374 . S
C919 C916 1.499 . S
C919 C920 1.373 . S
C919 C921 1.389 . S
C920 H893 0.950 . S
C920 C906 1.377 . S
C920 C919 1.373 . S
C921 C905 1.377 . S
C921 C919 1.389 . S
C921 C922 1.524 . S
C922 C921 1.524 . S
C922 C923 1.397 . S
C922 C927 1.363 . S
C923 H894 0.950 . S
C923 C922 1.397 . S
C923 C924 1.334 . S
C924 H895 0.950 . S
C924 C923 1.334 . S
C924 C925 1.287 . S
C925 C924 1.287 . S
C925 C926 1.524 . S
C925 H928 0.999 . S
C926 H896 0.950 . S
C926 C925 1.524 . S
C926 C927 1.415 . S
C927 H897 0.950 . S
C927 C922 1.363 . S
C927 C926 1.415 . S
H928 C925 0.999 . S
H929 C910 0.913 . S
H930 C948 0.951 . S
H931 C950 0.951 . S
H932 C952 0.950 . S
H933 C953 0.950 . S
H934 C955 0.950 . S
H935 C958 0.950 . S
H936 C959 0.950 . S
H937 C961 0.950 . S
H938 C962 0.950 . S
H939 C963 0.951 . S
H940 C965 0.951 . S
H941 C967 0.950 . S
H942 C968 0.950 . S
H943 C970 0.950 . S
H944 C973 0.950 . S
H945 C974 0.950 . S
H946 C976 0.950 . S
H947 C977 0.950 . S
C948 H930 0.951 . S
C948 C949 1.366 . S
C948 C950 1.388 . S
C949 C948 1.366 . S
C949 C953 1.385 . S
C950 H931 0.951 . S
C950 C948 1.388 . S
C950 C951 1.366 . S
C951 C950 1.366 . S
C951 C952 1.414 . S
C951 C954 1.499 . S
C952 H932 0.950 . S
C952 C951 1.414 . S
C952 C953 1.374 . S
C953 H933 0.950 . S
C953 C949 1.385 . S
C953 C952 1.374 . S
C954 C951 1.499 . S
C954 C955 1.373 . S
C954 C956 1.389 . S
C955 H934 0.950 . S
C955 C954 1.373 . S
C955 C971 1.377 . S
C956 C954 1.389 . S
C956 C957 1.524 . S
C956 C970 1.377 1_455 S
C957 C956 1.524 . S
C957 C958 1.397 . S
C957 C962 1.363 1_455 S
C958 H935 0.950 . S
C958 C957 1.397 . S
C958 C959 1.334 . S
C959 H936 0.950 . S
C959 C958 1.334 . S
C959 C960 1.287 . S
C960 C959 1.287 . S
C960 C961 1.524 1_455 S
C960 H979 0.913 . S
C961 H937 0.950 . S
C961 C960 1.524 1_655 S
C961 C962 1.415 . S
C962 H938 0.950 . S
C962 C957 1.363 1_655 S
C962 C961 1.415 . S
C963 H939 0.951 . S
C963 C964 1.366 . S
C963 C965 1.388 . S
C964 C963 1.366 . S
C964 C968 1.385 . S
C965 H940 0.951 . S
C965 C963 1.388 . S
C965 C966 1.366 . S
C966 C965 1.366 . S
C966 C967 1.414 . S
C966 C969 1.499 . S
C967 H941 0.950 . S
C967 C966 1.414 . S
C967 C968 1.374 . S
C968 H942 0.950 . S
C968 C964 1.385 . S
C968 C967 1.374 . S
C969 C966 1.499 . S
C969 C970 1.373 . S
C969 C971 1.389 1_655 S
C970 H943 0.950 . S
C970 C956 1.377 1_655 S
C970 C969 1.373 . S
C971 C955 1.377 . S
C971 C969 1.389 1_455 S
C971 C972 1.524 . S
C972 C971 1.524 . S
C972 C973 1.397 1_455 S
C972 C977 1.363 . S
C973 H944 0.950 . S
C973 C972 1.397 1_655 S
C973 C974 1.334 . S
C974 H945 0.950 . S
C974 C973 1.334 . S
C974 C975 1.287 . S
C975 C974 1.287 . S
C975 C976 1.524 1_655 S
C975 H978 0.999 . S
C976 H946 0.950 . S
C976 C975 1.524 1_455 S
C976 C977 1.415 . S
C977 H947 0.950 . S
C977 C972 1.363 . S
C977 C976 1.415 . S
H978 C975 0.999 . S
H979 C960 0.913 . S
H980 C998 0.951 . S
H981 C1000 0.951 . S
H982 C1002 0.950 . S
H983 C1003 0.950 . S
H984 C1005 0.950 . S
H985 C1008 0.950 . S
H986 C1009 0.950 . S
H987 C1011 0.950 . S
H988 C1012 0.950 1_565 S
H989 C1013 0.951 . S
H990 C1015 0.951 . S
H991 C1017 0.950 . S
H992 C1018 0.950 . S
H993 C1020 0.950 . S
H994 C1023 0.950 . S
H995 C1024 0.950 . S
H996 C1026 0.950 1_545 S
H997 C1027 0.950 . S
C998 H980 0.951 . S
C998 C999 1.366 . S
C998 C1000 1.388 . S
C999 C998 1.366 . S
C999 C1003 1.385 . S
C1000 H981 0.951 . S
C1000 C998 1.388 . S
C1000 C1001 1.366 . S
C1001 C1000 1.366 . S
C1001 C1002 1.414 . S
C1001 C1004 1.499 . S
C1002 H982 0.950 . S
C1002 C1001 1.414 . S
C1002 C1003 1.374 . S
C1003 H983 0.950 . S
C1003 C999 1.385 . S
C1003 C1002 1.374 . S
C1004 C1001 1.499 . S
C1004 C1005 1.373 . S
C1004 C1006 1.389 . S
C1005 H984 0.950 . S
C1005 C1004 1.373 . S
C1005 C1021 1.377 1_545 S
C1006 C1004 1.389 . S
C1006 C1007 1.524 . S
C1006 C1020 1.377 1_545 S
C1007 C1006 1.524 . S
C1007 C1008 1.397 . S
C1007 C1012 1.363 . S
C1008 H985 0.950 . S
C1008 C1007 1.397 . S
C1008 C1009 1.334 . S
C1009 H986 0.950 . S
C1009 C1008 1.334 . S
C1009 C1010 1.287 . S
C1010 C1009 1.287 . S
C1010 C1011 1.524 . S
C1010 H1029 0.913 . S
C1011 H987 0.950 . S
C1011 C1010 1.524 . S
C1011 C1012 1.415 . S
C1012 H988 0.950 1_545 S
C1012 C1007 1.363 . S
C1012 C1011 1.415 . S
C1013 H989 0.951 . S
C1013 C1014 1.366 . S
C1013 C1015 1.388 . S
C1014 C1013 1.366 . S
C1014 C1018 1.385 . S
C1015 H990 0.951 . S
C1015 C1013 1.388 . S
C1015 C1016 1.366 . S
C1016 C1015 1.366 . S
C1016 C1017 1.414 . S
C1016 C1019 1.499 . S
C1017 H991 0.950 . S
C1017 C1016 1.414 . S
C1017 C1018 1.374 . S
C1018 H992 0.950 . S
C1018 C1014 1.385 . S
C1018 C1017 1.374 . S
C1019 C1016 1.499 . S
C1019 C1020 1.373 . S
C1019 C1021 1.389 . S
C1020 H993 0.950 . S
C1020 C1006 1.377 1_565 S
C1020 C1019 1.373 . S
C1021 C1005 1.377 1_565 S
C1021 C1019 1.389 . S
C1021 C1022 1.524 . S
C1022 C1021 1.524 . S
C1022 C1023 1.397 . S
C1022 C1027 1.363 1_565 S
C1023 H994 0.950 . S
C1023 C1022 1.397 . S
C1023 C1024 1.334 . S
C1024 H995 0.950 . S
C1024 C1023 1.334 . S
C1024 C1025 1.287 . S
C1025 C1024 1.287 . S
C1025 C1026 1.524 . S
C1025 H1028 0.999 . S
C1026 H996 0.950 1_565 S
C1026 C1025 1.524 . S
C1026 C1027 1.415 1_565 S
C1027 H997 0.950 . S
C1027 C1022 1.363 1_545 S
C1027 C1026 1.415 1_545 S
H1028 C1025 0.999 . S
H1029 C1010 0.913 . S
H1030 C1048 0.951 . S
H1031 C1050 0.951 . S
H1032 C1052 0.950 . S
H1033 C1053 0.950 . S
H1034 C1055 0.950 . S
H1035 C1058 0.950 . S
H1036 C1059 0.950 . S
H1037 C1061 0.950 . S
H1038 C1062 0.950 . S
H1039 C1063 0.951 . S
H1040 C1065 0.951 . S
H1041 C1067 0.950 . S
H1042 C1068 0.950 . S
H1043 C1070 0.950 . S
H1044 C1073 0.950 . S
H1045 C1074 0.950 . S
H1046 C1076 0.950 . S
H1047 C1077 0.950 . S
C1048 H1030 0.951 . S
C1048 C1049 1.366 . S
C1048 C1050 1.388 . S
C1049 C1048 1.366 . S
C1049 C1053 1.385 . S
C1050 H1031 0.951 . S
C1050 C1048 1.388 . S
C1050 C1051 1.366 . S
C1051 C1050 1.366 . S
C1051 C1052 1.414 . S
C1051 C1054 1.499 . S
C1052 H1032 0.950 . S
C1052 C1051 1.414 . S
C1052 C1053 1.374 . S
C1053 H1033 0.950 . S
C1053 C1049 1.385 . S
C1053 C1052 1.374 . S
C1054 C1051 1.499 . S
C1054 C1055 1.373 . S
C1054 C1056 1.389 . S
C1055 H1034 0.950 . S
C1055 C1054 1.373 . S
C1055 C1071 1.377 . S
C1056 C1054 1.389 . S
C1056 C1057 1.524 . S
C1056 C1070 1.377 . S
C1057 C1056 1.524 . S
C1057 C1058 1.397 . S
C1057 C1062 1.363 . S
C1058 H1035 0.950 . S
C1058 C1057 1.397 . S
C1058 C1059 1.334 . S
C1059 H1036 0.950 . S
C1059 C1058 1.334 . S
C1059 C1060 1.287 . S
C1060 C1059 1.287 . S
C1060 C1061 1.524 . S
C1060 H1079 0.913 . S
C1061 H1037 0.950 . S
C1061 C1060 1.524 . S
C1061 C1062 1.415 . S
C1062 H1038 0.950 . S
C1062 C1057 1.363 . S
C1062 C1061 1.415 . S
C1063 H1039 0.951 . S
C1063 C1064 1.366 . S
C1063 C1065 1.388 . S
C1064 C1063 1.366 . S
C1064 C1068 1.385 . S
C1065 H1040 0.951 . S
C1065 C1063 1.388 . S
C1065 C1066 1.366 . S
C1066 C1065 1.366 . S
C1066 C1067 1.414 . S
C1066 C1069 1.499 . S
C1067 H1041 0.950 . S
C1067 C1066 1.414 . S
C1067 C1068 1.374 . S
C1068 H1042 0.950 . S
C1068 C1064 1.385 . S
C1068 C1067 1.374 . S
C1069 C1066 1.499 . S
C1069 C1070 1.373 . S
C1069 C1071 1.389 . S
C1070 H1043 0.950 . S
C1070 C1056 1.377 . S
C1070 C1069 1.373 . S
C1071 C1055 1.377 . S
C1071 C1069 1.389 . S
C1071 C1072 1.524 . S
C1072 C1071 1.524 . S
C1072 C1073 1.397 . S
C1072 C1077 1.363 . S
C1073 H1044 0.950 . S
C1073 C1072 1.397 . S
C1073 C1074 1.334 . S
C1074 H1045 0.950 . S
C1074 C1073 1.334 . S
C1074 C1075 1.287 . S
C1075 C1074 1.287 . S
C1075 C1076 1.524 . S
C1075 H1078 0.999 . S
C1076 H1046 0.950 . S
C1076 C1075 1.524 . S
C1076 C1077 1.415 . S
C1077 H1047 0.950 . S
C1077 C1072 1.363 . S
C1077 C1076 1.415 . S
H1078 C1075 0.999 . S
H1079 C1060 0.913 . S
H1080 C1098 0.951 . S
H1081 C1100 0.951 . S
H1082 C1102 0.950 . S
H1083 C1103 0.950 . S
H1084 C1105 0.950 . S
H1085 C1108 0.950 . S
H1086 C1109 0.950 . S
H1087 C1111 0.950 . S
H1088 C1112 0.950 . S
H1089 C1113 0.951 . S
H1090 C1115 0.951 . S
H1091 C1117 0.950 . S
H1092 C1118 0.950 . S
H1093 C1120 0.950 . S
H1094 C1123 0.950 . S
H1095 C1124 0.950 . S
H1096 C1126 0.950 . S
H1097 C1127 0.950 . S
C1098 H1080 0.951 . S
C1098 C1099 1.366 . S
C1098 C1100 1.388 . S
C1099 C1098 1.366 . S
C1099 C1103 1.385 . S
C1100 H1081 0.951 . S
C1100 C1098 1.388 . S
C1100 C1101 1.366 . S
C1101 C1100 1.366 . S
C1101 C1102 1.414 . S
C1101 C1104 1.499 . S
C1102 H1082 0.950 . S
C1102 C1101 1.414 . S
C1102 C1103 1.374 . S
C1103 H1083 0.950 . S
C1103 C1099 1.385 . S
C1103 C1102 1.374 . S
C1104 C1101 1.499 . S
C1104 C1105 1.373 . S
C1104 C1106 1.389 . S
C1105 H1084 0.950 . S
C1105 C1104 1.373 . S
C1105 C1121 1.377 . S
C1106 C1104 1.389 . S
C1106 C1107 1.524 . S
C1106 C1120 1.377 . S
C1107 C1106 1.524 . S
C1107 C1108 1.397 . S
C1107 C1112 1.363 . S
C1108 H1085 0.950 . S
C1108 C1107 1.397 . S
C1108 C1109 1.334 . S
C1109 H1086 0.950 . S
C1109 C1108 1.334 . S
C1109 C1110 1.287 . S
C1110 C1109 1.287 . S
C1110 C1111 1.524 . S
C1110 H1129 0.913 . S
C1111 H1087 0.950 . S
C1111 C1110 1.524 . S
C1111 C1112 1.415 . S
C1112 H1088 0.950 . S
C1112 C1107 1.363 . S
C1112 C1111 1.415 . S
C1113 H1089 0.951 . S
C1113 C1114 1.366 . S
C1113 C1115 1.388 . S
C1114 C1113 1.366 . S
C1114 C1118 1.385 . S
C1115 H1090 0.951 . S
C1115 C1113 1.388 . S
C1115 C1116 1.366 . S
C1116 C1115 1.366 . S
C1116 C1117 1.414 . S
C1116 C1119 1.499 . S
C1117 H1091 0.950 . S
C1117 C1116 1.414 . S
C1117 C1118 1.374 . S
C1118 H1092 0.950 . S
C1118 C1114 1.385 . S
C1118 C1117 1.374 . S
C1119 C1116 1.499 . S
C1119 C1120 1.373 . S
C1119 C1121 1.389 . S
C1120 H1093 0.950 . S
C1120 C1106 1.377 . S
C1120 C1119 1.373 . S
C1121 C1105 1.377 . S
C1121 C1119 1.389 . S
C1121 C1122 1.524 . S
C1122 C1121 1.524 . S
C1122 C1123 1.397 . S
C1122 C1127 1.363 . S
C1123 H1094 0.950 . S
C1123 C1122 1.397 . S
C1123 C1124 1.334 . S
C1124 H1095 0.950 . S
C1124 C1123 1.334 . S
C1124 C1125 1.287 . S
C1125 C1124 1.287 . S
C1125 C1126 1.524 . S
C1125 H1128 0.999 . S
C1126 H1096 0.950 . S
C1126 C1125 1.524 . S
C1126 C1127 1.415 . S
C1127 H1097 0.950 . S
C1127 C1122 1.363 . S
C1127 C1126 1.415 . S
H1128 C1125 0.999 . S
H1129 C1110 0.913 . S
H1130 C1148 0.951 . S
H1131 C1150 0.951 . S
H1132 C1152 0.950 . S
H1133 C1153 0.950 . S
H1134 C1155 0.950 . S
H1135 C1158 0.950 . S
H1136 C1159 0.950 . S
H1137 C1161 0.950 . S
H1138 C1162 0.950 . S
H1139 C1163 0.951 . S
H1140 C1165 0.951 . S
H1141 C1167 0.950 . S
H1142 C1168 0.950 . S
H1143 C1170 0.950 . S
H1144 C1173 0.950 . S
H1145 C1174 0.950 . S
H1146 C1176 0.950 . S
H1147 C1177 0.950 . S
C1148 H1130 0.951 . S
C1148 C1149 1.366 . S
C1148 C1150 1.388 . S
C1149 C1148 1.366 . S
C1149 C1153 1.385 . S
C1150 H1131 0.951 . S
C1150 C1148 1.388 . S
C1150 C1151 1.366 . S
C1151 C1150 1.366 . S
C1151 C1152 1.414 . S
C1151 C1154 1.499 . S
C1152 H1132 0.950 . S
C1152 C1151 1.414 . S
C1152 C1153 1.374 . S
C1153 H1133 0.950 . S
C1153 C1149 1.385 . S
C1153 C1152 1.374 . S
C1154 C1151 1.499 . S
C1154 C1155 1.373 . S
C1154 C1156 1.389 . S
C1155 H1134 0.950 . S
C1155 C1154 1.373 . S
C1155 C1171 1.377 . S
C1156 C1154 1.389 . S
C1156 C1157 1.524 . S
C1156 C1170 1.377 . S
C1157 C1156 1.524 . S
C1157 C1158 1.397 . S
C1157 C1162 1.363 . S
C1158 H1135 0.950 . S
C1158 C1157 1.397 . S
C1158 C1159 1.334 . S
C1159 H1136 0.950 . S
C1159 C1158 1.334 . S
C1159 C1160 1.287 . S
C1160 C1159 1.287 . S
C1160 C1161 1.524 . S
C1160 H1179 0.913 . S
C1161 H1137 0.950 . S
C1161 C1160 1.524 . S
C1161 C1162 1.415 . S
C1162 H1138 0.950 . S
C1162 C1157 1.363 . S
C1162 C1161 1.415 . S
C1163 H1139 0.951 . S
C1163 C1164 1.366 . S
C1163 C1165 1.388 . S
C1164 C1163 1.366 . S
C1164 C1168 1.385 . S
C1165 H1140 0.951 . S
C1165 C1163 1.388 . S
C1165 C1166 1.366 . S
C1166 C1165 1.366 . S
C1166 C1167 1.414 . S
C1166 C1169 1.499 . S
C1167 H1141 0.950 . S
C1167 C1166 1.414 . S
C1167 C1168 1.374 . S
C1168 H1142 0.950 . S
C1168 C1164 1.385 . S
C1168 C1167 1.374 . S
C1169 C1166 1.499 . S
C1169 C1170 1.373 . S
C1169 C1171 1.389 . S
C1170 H1143 0.950 . S
C1170 C1156 1.377 . S
C1170 C1169 1.373 . S
C1171 C1155 1.377 . S
C1171 C1169 1.389 . S
C1171 C1172 1.524 . S
C1172 C1171 1.524 . S
C1172 C1173 1.397 . S
C1172 C1177 1.363 . S
C1173 H1144 0.950 . S
C1173 C1172 1.397 . S
C1173 C1174 1.334 . S
C1174 H1145 0.950 . S
C1174 C1173 1.334 . S
C1174 C1175 1.287 . S
C1175 C1174 1.287 . S
C1175 C1176 1.524 . S
C1175 H1178 0.999 . S
C1176 H1146 0.950 . S
C1176 C1175 1.524 . S
C1176 C1177 1.415 . S
C1177 H1147 0.950 . S
C1177 C1172 1.363 . S
C1177 C1176 1.415 . S
H1178 C1175 0.999 . S
H1179 C1160 0.913 . S
H1180 C1198 0.951 . S
H1181 C1200 0.951 . S
H1182 C1202 0.950 . S
H1183 C1203 0.950 . S
H1184 C1205 0.950 . S
H1185 C1208 0.950 . S
H1186 C1209 0.950 . S
H1187 C1211 0.950 . S
H1188 C1212 0.950 . S
H1189 C1213 0.951 . S
H1190 C1215 0.951 . S
H1191 C1217 0.950 . S
H1192 C1218 0.950 . S
H1193 C1220 0.950 . S
H1194 C1223 0.950 . S
H1195 C1224 0.950 . S
H1196 C1226 0.950 . S
H1197 C1227 0.950 . S
C1198 H1180 0.951 . S
C1198 C1199 1.366 . S
C1198 C1200 1.388 . S
C1199 C1198 1.366 . S
C1199 C1203 1.385 . S
C1200 H1181 0.951 . S
C1200 C1198 1.388 . S
C1200 C1201 1.366 . S
C1201 C1200 1.366 . S
C1201 C1202 1.414 . S
C1201 C1204 1.499 . S
C1202 H1182 0.950 . S
C1202 C1201 1.414 . S
C1202 C1203 1.374 . S
C1203 H1183 0.950 . S
C1203 C1199 1.385 . S
C1203 C1202 1.374 . S
C1204 C1201 1.499 . S
C1204 C1205 1.373 . S
C1204 C1206 1.389 . S
C1205 H1184 0.950 . S
C1205 C1204 1.373 . S
C1205 C1221 1.377 . S
C1206 C1204 1.389 . S
C1206 C1207 1.524 . S
C1206 C1220 1.377 . S
C1207 C1206 1.524 . S
C1207 C1208 1.397 . S
C1207 C1212 1.363 . S
C1208 H1185 0.950 . S
C1208 C1207 1.397 . S
C1208 C1209 1.334 . S
C1209 H1186 0.950 . S
C1209 C1208 1.334 . S
C1209 C1210 1.287 . S
C1210 C1209 1.287 . S
C1210 C1211 1.524 . S
C1210 H1229 0.913 . S
C1211 H1187 0.950 . S
C1211 C1210 1.524 . S
C1211 C1212 1.415 . S
C1212 H1188 0.950 . S
C1212 C1207 1.363 . S
C1212 C1211 1.415 . S
C1213 H1189 0.951 . S
C1213 C1214 1.366 . S
C1213 C1215 1.388 . S
C1214 C1213 1.366 . S
C1214 C1218 1.385 . S
C1215 H1190 0.951 . S
C1215 C1213 1.388 . S
C1215 C1216 1.366 . S
C1216 C1215 1.366 . S
C1216 C1217 1.414 . S
C1216 C1219 1.499 . S
C1217 H1191 0.950 . S
C1217 C1216 1.414 . S
C1217 C1218 1.374 . S
C1218 H1192 0.950 . S
C1218 C1214 1.385 . S
C1218 C1217 1.374 . S
C1219 C1216 1.499 . S
C1219 C1220 1.373 . S
C1219 C1221 1.389 . S
C1220 H1193 0.950 . S
C1220 C1206 1.377 . S
C1220 C1219 1.373 . S
C1221 C1205 1.377 . S
C1221 C1219 1.389 . S
C1221 C1222 1.524 . S
C1222 C1221 1.524 . S
C1222 C1223 1.397 . S
C1222 C1227 1.363 . S
C1223 H1194 0.950 . S
C1223 C1222 1.397 . S
C1223 C1224 1.334 . S
C1224 H1195 0.950 . S
C1224 C1223 1.334 . S
C1224 C1225 1.287 . S
C1225 C1224 1.287 . S
C1225 C1226 1.524 . S
C1225 H1228 0.999 . S
C1226 H1196 0.950 . S
C1226 C1225 1.524 . S
C1226 C1227 1.415 . S
C1227 H1197 0.950 . S
C1227 C1222 1.363 . S
C1227 C1226 1.415 . S
H1228 C1225 0.999 . S
H1229 C1210 0.913 . S
H1230 C1248 0.951 . S
H1231 C1250 0.951 . S
H1232 C1252 0.950 . S
H1233 C1253 0.950 . S
H1234 C1255 0.950 . S
H1235 C1258 0.950 . S
H1236 C1259 0.950 . S
H1237 C1261 0.950 . S
H1238 C1262 0.950 . S
H1239 C1263 0.951 . S
H1240 C1265 0.951 . S
H1241 C1267 0.950 . S
H1242 C1268 0.950 . S
H1243 C1270 0.950 . S
H1244 C1273 0.950 . S
H1245 C1274 0.950 . S
H1246 C1276 0.950 . S
H1247 C1277 0.950 . S
C1248 H1230 0.951 . S
C1248 C1249 1.366 . S
C1248 C1250 1.388 . S
C1249 C1248 1.366 . S
C1249 C1253 1.385 . S
C1250 H1231 0.951 . S
C1250 C1248 1.388 . S
C1250 C1251 1.366 . S
C1251 C1250 1.366 . S
C1251 C1252 1.414 . S
C1251 C1254 1.499 . S
C1252 H1232 0.950 . S
C1252 C1251 1.414 . S
C1252 C1253 1.374 . S
C1253 H1233 0.950 . S
C1253 C1249 1.385 . S
C1253 C1252 1.374 . S
C1254 C1251 1.499 . S
C1254 C1255 1.373 . S
C1254 C1256 1.389 . S
C1255 H1234 0.950 . S
C1255 C1254 1.373 . S
C1255 C1271 1.377 . S
C1256 C1254 1.389 . S
C1256 C1257 1.524 . S
C1256 C1270 1.377 . S
C1257 C1256 1.524 . S
C1257 C1258 1.397 . S
C1257 C1262 1.363 . S
C1258 H1235 0.950 . S
C1258 C1257 1.397 . S
C1258 C1259 1.334 . S
C1259 H1236 0.950 . S
C1259 C1258 1.334 . S
C1259 C1260 1.287 . S
C1260 C1259 1.287 . S
C1260 C1261 1.524 . S
C1260 H1279 0.913 . S
C1261 H1237 0.950 . S
C1261 C1260 1.524 . S
C1261 C1262 1.415 . S
C1262 H1238 0.950 . S
C1262 C1257 1.363 . S
C1262 C1261 1.415 . S
C1263 H1239 0.951 . S
C1263 C1264 1.366 . S
C1263 C1265 1.388 . S
C1264 C1263 1.366 . S
C1264 C1268 1.385 . S
C1265 H1240 0.951 . S
C1265 C1263 1.388 . S
C1265 C1266 1.366 . S
C1266 C1265 1.366 . S
C1266 C1267 1.414 . S
C1266 C1269 1.499 . S
C1267 H1241 0.950 . S
C1267 C1266 1.414 . S
C1267 C1268 1.374 . S
C1268 H1242 0.950 . S
C1268 C1264 1.385 . S
C1268 C1267 1.374 . S
C1269 C1266 1.499 . S
C1269 C1270 1.373 . S
C1269 C1271 1.389 . S
C1270 H1243 0.950 . S
C1270 C1256 1.377 . S
C1270 C1269 1.373 . S
C1271 C1255 1.377 . S
C1271 C1269 1.389 . S
C1271 C1272 1.524 . S
C1272 C1271 1.524 . S
C1272 C1273 1.397 . S
C1272 C1277 1.363 . S
C1273 H1244 0.950 . S
C1273 C1272 1.397 . S
C1273 C1274 1.334 . S
C1274 H1245 0.950 . S
C1274 C1273 1.334 . S
C1274 C1275 1.287 . S
C1275 C1274 1.287 . S
C1275 C1276 1.524 . S
C1275 H1278 0.999 . S
C1276 H1246 0.950 . S
C1276 C1275 1.524 . S
C1276 C1277 1.415 . S
C1277 H1247 0.950 . S
C1277 C1272 1.363 . S
C1277 C1276 1.415 . S
H1278 C1275 0.999 . S
H1279 C1260 0.913 . S
H1280 C1298 0.951 . S
H1281 C1300 0.951 . S
H1282 C1302 0.950 . S
H1283 C1303 0.950 . S
H1284 C1305 0.950 . S
H1285 C1308 0.950 . S
H1286 C1309 0.950 . S
H1287 C1311 0.950 . S
H1288 C1312 0.950 . S
H1289 C1313 0.951 . S
H1290 C1315 0.951 . S
H1291 C1317 0.950 . S
H1292 C1318 0.950 . S
H1293 C1320 0.950 . S
H1294 C1323 0.950 . S
H1295 C1324 0.950 . S
H1296 C1326 0.950 . S
H1297 C1327 0.950 . S
C1298 H1280 0.951 . S
C1298 C1299 1.366 . S
C1298 C1300 1.388 . S
C1299 C1298 1.366 . S
C1299 C1303 1.385 . S
C1300 H1281 0.951 . S
C1300 C1298 1.388 . S
C1300 C1301 1.366 . S
C1301 C1300 1.366 . S
C1301 C1302 1.414 . S
C1301 C1304 1.499 . S
C1302 H1282 0.950 . S
C1302 C1301 1.414 . S
C1302 C1303 1.374 . S
C1303 H1283 0.950 . S
C1303 C1299 1.385 . S
C1303 C1302 1.374 . S
C1304 C1301 1.499 . S
C1304 C1305 1.373 . S
C1304 C1306 1.389 . S
C1305 H1284 0.950 . S
C1305 C1304 1.373 . S
C1305 C1321 1.377 . S
C1306 C1304 1.389 . S
C1306 C1307 1.524 . S
C1306 C1320 1.377 . S
C1307 C1306 1.524 . S
C1307 C1308 1.397 . S
C1307 C1312 1.363 . S
C1308 H1285 0.950 . S
C1308 C1307 1.397 . S
C1308 C1309 1.334 . S
C1309 H1286 0.950 . S
C1309 C1308 1.334 . S
C1309 C1310 1.287 . S
C1310 C1309 1.287 . S
C1310 C1311 1.524 . S
C1310 H1329 0.913 . S
C1311 H1287 0.950 . S
C1311 C1310 1.524 . S
C1311 C1312 1.415 . S
C1312 H1288 0.950 . S
C1312 C1307 1.363 . S
C1312 C1311 1.415 . S
C1313 H1289 0.951 . S
C1313 C1314 1.366 . S
C1313 C1315 1.388 . S
C1314 C1313 1.366 . S
C1314 C1318 1.385 . S
C1315 H1290 0.951 . S
C1315 C1313 1.388 . S
C1315 C1316 1.366 . S
C1316 C1315 1.366 . S
C1316 C1317 1.414 . S
C1316 C1319 1.499 . S
C1317 H1291 0.950 . S
C1317 C1316 1.414 . S
C1317 C1318 1.374 . S
C1318 H1292 0.950 . S
C1318 C1314 1.385 . S
C1318 C1317 1.374 . S
C1319 C1316 1.499 . S
C1319 C1320 1.373 . S
C1319 C1321 1.389 . S
C1320 H1293 0.950 . S
C1320 C1306 1.377 . S
C1320 C1319 1.373 . S
C1321 C1305 1.377 . S
C1321 C1319 1.389 . S
C1321 C1322 1.524 . S
C1322 C1321 1.524 . S
C1322 C1323 1.397 . S
C1322 C1327 1.363 . S
C1323 H1294 0.950 . S
C1323 C1322 1.397 . S
C1323 C1324 1.334 . S
C1324 H1295 0.950 . S
C1324 C1323 1.334 . S
C1324 C1325 1.287 . S
C1325 C1324 1.287 . S
C1325 C1326 1.524 . S
C1325 H1328 0.999 . S
C1326 H1296 0.950 . S
C1326 C1325 1.524 . S
C1326 C1327 1.415 . S
C1327 H1297 0.950 . S
C1327 C1322 1.363 . S
C1327 C1326 1.415 . S
H1328 C1325 0.999 . S
H1329 C1310 0.913 . S
H1330 C1348 0.951 . S
H1331 C1350 0.951 . S
H1332 C1352 0.950 . S
H1333 C1353 0.950 . S
H1334 C1355 0.950 . S
H1335 C1358 0.950 . S
H1336 C1359 0.950 . S
H1337 C1361 0.950 . S
H1338 C1362 0.950 . S
H1339 C1363 0.951 . S
H1340 C1365 0.951 . S
H1341 C1367 0.950 . S
H1342 C1368 0.950 . S
H1343 C1370 0.950 . S
H1344 C1373 0.950 . S
H1345 C1374 0.950 . S
H1346 C1376 0.950 . S
H1347 C1377 0.950 . S
C1348 H1330 0.951 . S
C1348 C1349 1.366 . S
C1348 C1350 1.388 . S
C1349 C1348 1.366 . S
C1349 C1353 1.385 . S
C1350 H1331 0.951 . S
C1350 C1348 1.388 . S
C1350 C1351 1.366 . S
C1351 C1350 1.366 . S
C1351 C1352 1.414 . S
C1351 C1354 1.499 . S
C1352 H1332 0.950 . S
C1352 C1351 1.414 . S
C1352 C1353 1.374 . S
C1353 H1333 0.950 . S
C1353 C1349 1.385 . S
C1353 C1352 1.374 . S
C1354 C1351 1.499 . S
C1354 C1355 1.373 . S
C1354 C1356 1.389 . S
C1355 H1334 0.950 . S
C1355 C1354 1.373 . S
C1355 C1371 1.377 . S
C1356 C1354 1.389 . S
C1356 C1357 1.524 . S
C1356 C1370 1.377 . S
C1357 C1356 1.524 . S
C1357 C1358 1.397 . S
C1357 C1362 1.363 . S
C1358 H1335 0.950 . S
C1358 C1357 1.397 . S
C1358 C1359 1.334 . S
C1359 H1336 0.950 . S
C1359 C1358 1.334 . S
C1359 C1360 1.287 . S
C1360 C1359 1.287 . S
C1360 C1361 1.524 . S
C1360 H1379 0.913 . S
C1361 H1337 0.950 . S
C1361 C1360 1.524 . S
C1361 C1362 1.415 . S
C1362 H1338 0.950 . S
C1362 C1357 1.363 . S
C1362 C1361 1.415 . S
C1363 H1339 0.951 . S
C1363 C1364 1.366 . S
C1363 C1365 1.388 . S
C1364 C1363 1.366 . S
C1364 C1368 1.385 . S
C1365 H1340 0.951 . S
C1365 C1363 1.388 . S
C1365 C1366 1.366 . S
C1366 C1365 1.366 . S
C1366 C1367 1.414 . S
C1366 C1369 1.499 . S
C1367 H1341 0.950 . S
C1367 C1366 1.414 . S
C1367 C1368 1.374 . S
C1368 H1342 0.950 . S
C1368 C1364 1.385 . S
C1368 C1367 1.374 . S
C1369 C1366 1.499 . S
C1369 C1370 1.373 . S
C1369 C1371 1.389 . S
C1370 H1343 0.950 . S
C1370 C1356 1.377 . S
C1370 C1369 1.373 . S
C1371 C1355 1.377 . S
C1371 C1369 1.389 . S
C1371 C1372 1.524 . S
C1372 C1371 1.524 . S
C1372 C1373 1.397 . S
C1372 C1377 1.363 . S
C1373 H1344 0.950 . S
C1373 C1372 1.397 . S
C1373 C1374 1.334 . S
C1374 H1345 0.950 . S
C1374 C1373 1.334 . S
C1374 C1375 1.287 . S
C1375 C1374 1.287 . S
C1375 C1376 1.524 . S
C1375 H1378 0.999 . S
C1376 H1346 0.950 . S
C1376 C1375 1.524 . S
C1376 C1377 1.415 . S
C1377 H1347 0.950 . S
C1377 C1372 1.363 . S
C1377 C1376 1.415 . S
H1378 C1375 0.999 . S
H1379 C1360 0.913 . S
H1380 C1398 0.951 . S
H1381 C1400 0.951 . S
H1382 C1402 0.950 . S
H1383 C1403 0.950 . S
H1384 C1405 0.950 . S
H1385 C1408 0.950 . S
H1386 C1409 0.950 . S
H1387 C1411 0.950 . S
H1388 C1412 0.950 . S
H1389 C1413 0.951 . S
H1390 C1415 0.951 . S
H1391 C1417 0.950 . S
H1392 C1418 0.950 . S
H1393 C1420 0.950 . S
H1394 C1423 0.950 . S
H1395 C1424 0.950 . S
H1396 C1426 0.950 . S
H1397 C1427 0.950 . S
C1398 H1380 0.951 . S
C1398 C1399 1.366 . S
C1398 C1400 1.388 . S
C1399 C1398 1.366 . S
C1399 C1403 1.385 . S
C1400 H1381 0.951 . S
C1400 C1398 1.388 . S
C1400 C1401 1.366 . S
C1401 C1400 1.366 . S
C1401 C1402 1.414 . S
C1401 C1404 1.499 . S
C1402 H1382 0.950 . S
C1402 C1401 1.414 . S
C1402 C1403 1.374 . S
C1403 H1383 0.950 . S
C1403 C1399 1.385 . S
C1403 C1402 1.374 . S
C1404 C1401 1.499 . S
C1404 C1405 1.373 . S
C1404 C1406 1.389 . S
C1405 H1384 0.950 . S
C1405 C1404 1.373 . S
C1405 C1421 1.377 . S
C1406 C1404 1.389 . S
C1406 C1407 1.524 . S
C1406 C1420 1.377 . S
C1407 C1406 1.524 . S
C1407 C1408 1.397 . S
C1407 C1412 1.363 . S
C1408 H1385 0.950 . S
C1408 C1407 1.397 . S
C1408 C1409 1.334 . S
C1409 H1386 0.950 . S
C1409 C1408 1.334 . S
C1409 C1410 1.287 . S
C1410 C1409 1.287 . S
C1410 C1411 1.524 . S
C1410 H1429 0.913 . S
C1411 H1387 0.950 . S
C1411 C1410 1.524 . S
C1411 C1412 1.415 . S
C1412 H1388 0.950 . S
C1412 C1407 1.363 . S
C1412 C1411 1.415 . S
C1413 H1389 0.951 . S
C1413 C1414 1.366 . S
C1413 C1415 1.388 . S
C1414 C1413 1.366 . S
C1414 C1418 1.385 . S
C1415 H1390 0.951 . S
C1415 C1413 1.388 . S
C1415 C1416 1.366 . S
C1416 C1415 1.366 . S
C1416 C1417 1.414 . S
C1416 C1419 1.499 . S
C1417 H1391 0.950 . S
C1417 C1416 1.414 . S
C1417 C1418 1.374 . S
C1418 H1392 0.950 . S
C1418 C1414 1.385 . S
C1418 C1417 1.374 . S
C1419 C1416 1.499 . S
C1419 C1420 1.373 . S
C1419 C1421 1.389 . S
C1420 H1393 0.950 . S
C1420 C1406 1.377 . S
C1420 C1419 1.373 . S
C1421 C1405 1.377 . S
C1421 C1419 1.389 . S
C1421 C1422 1.524 . S
C1422 C1421 1.524 . S
C1422 C1423 1.397 . S
C1422 C1427 1.363 . S
C1423 H1394 0.950 . S
C1423 C1422 1.397 . S
C1423 C1424 1.334 . S
C1424 H1395 0.950 . S
C1424 C1423 1.334 . S
C1424 C1425 1.287 . S
C1425 C1424 1.287 . S
C1425 C1426 1.524 . S
C1425 H1428 0.999 . S
C1426 H1396 0.950 . S
C1426 C1425 1.524 . S
C1426 C1427 1.415 . S
C1427 H1397 0.950 . S
C1427 C1422 1.363 . S
C1427 C1426 1.415 . S
H1428 C1425 0.999 . S
H1429 C1410 0.913 . S
H1430 C1448 0.951 . S
H1431 C1450 0.951 . S
H1432 C1452 0.950 . S
H1433 C1453 0.950 . S
H1434 C1455 0.950 . S
H1435 C1458 0.950 . S
H1436 C1459 0.950 . S
H1437 C1461 0.950 . S
H1438 C1462 0.950 . S
H1439 C1463 0.951 . S
H1440 C1465 0.951 . S
H1441 C1467 0.950 . S
H1442 C1468 0.950 . S
H1443 C1470 0.950 . S
H1444 C1473 0.950 . S
H1445 C1474 0.950 . S
H1446 C1476 0.950 . S
H1447 C1477 0.950 . S
C1448 H1430 0.951 . S
C1448 C1449 1.366 . S
C1448 C1450 1.388 . S
C1449 C1448 1.366 . S
C1449 C1453 1.385 . S
C1450 H1431 0.951 . S
C1450 C1448 1.388 . S
C1450 C1451 1.366 . S
C1451 C1450 1.366 . S
C1451 C1452 1.414 . S
C1451 C1454 1.499 . S
C1452 H1432 0.950 . S
C1452 C1451 1.414 . S
C1452 C1453 1.374 . S
C1453 H1433 0.950 . S
C1453 C1449 1.385 . S
C1453 C1452 1.374 . S
C1454 C1451 1.499 . S
C1454 C1455 1.373 . S
C1454 C1456 1.389 . S
C1455 H1434 0.950 . S
C1455 C1454 1.373 . S
C1455 C1471 1.377 . S
C1456 C1454 1.389 . S
C1456 C1457 1.524 . S
C1456 C1470 1.377 . S
C1457 C1456 1.524 . S
C1457 C1458 1.397 . S
C1457 C1462 1.363 . S
C1458 H1435 0.950 . S
C1458 C1457 1.397 . S
C1458 C1459 1.334 . S
C1459 H1436 0.950 . S
C1459 C1458 1.334 . S
C1459 C1460 1.287 . S
C1460 C1459 1.287 . S
C1460 C1461 1.524 . S
C1460 H1479 0.913 . S
C1461 H1437 0.950 . S
C1461 C1460 1.524 . S
C1461 C1462 1.415 . S
C1462 H1438 0.950 . S
C1462 C1457 1.363 . S
C1462 C1461 1.415 . S
C1463 H1439 0.951 . S
C1463 C1464 1.366 . S
C1463 C1465 1.388 . S
C1464 C1463 1.366 . S
C1464 C1468 1.385 . S
C1465 H1440 0.951 . S
C1465 C1463 1.388 . S
C1465 C1466 1.366 . S
C1466 C1465 1.366 . S
C1466 C1467 1.414 . S
C1466 C1469 1.499 . S
C1467 H1441 0.950 . S
C1467 C1466 1.414 . S
C1467 C1468 1.374 . S
C1468 H1442 0.950 . S
C1468 C1464 1.385 . S
C1468 C1467 1.374 . S
C1469 C1466 1.499 . S
C1469 C1470 1.373 . S
C1469 C1471 1.389 . S
C1470 H1443 0.950 . S
C1470 C1456 1.377 . S
C1470 C1469 1.373 . S
C1471 C1455 1.377 . S
C1471 C1469 1.389 . S
C1471 C1472 1.524 . S
C1472 C1471 1.524 . S
C1472 C1473 1.397 . S
C1472 C1477 1.363 . S
C1473 H1444 0.950 . S
C1473 C1472 1.397 . S
C1473 C1474 1.334 . S
C1474 H1445 0.950 . S
C1474 C1473 1.334 . S
C1474 C1475 1.287 . S
C1475 C1474 1.287 . S
C1475 C1476 1.524 . S
C1475 H1478 0.999 . S
C1476 H1446 0.950 . S
C1476 C1475 1.524 . S
C1476 C1477 1.415 . S
C1477 H1447 0.950 . S
C1477 C1472 1.363 . S
C1477 C1476 1.415 . S
H1478 C1475 0.999 . S
H1479 C1460 0.913 . S
H1480 C1498 0.951 . S
H1481 C1500 0.951 . S
H1482 C1502 0.950 . S
H1483 C1503 0.950 . S
H1484 C1505 0.950 . S
H1485 C1508 0.950 . S
H1486 C1509 0.950 . S
H1487 C1511 0.950 . S
H1488 C1512 0.950 . S
H1489 C1513 0.951 . S
H1490 C1515 0.951 . S
H1491 C1517 0.950 . S
H1492 C1518 0.950 . S
H1493 C1520 0.950 . S
H1494 C1523 0.950 . S
H1495 C1524 0.950 . S
H1496 C1526 0.950 . S
H1497 C1527 0.950 . S
C1498 H1480 0.951 . S
C1498 C1499 1.366 . S
C1498 C1500 1.388 . S
C1499 C1498 1.366 . S
C1499 C1503 1.385 . S
C1500 H1481 0.951 . S
C1500 C1498 1.388 . S
C1500 C1501 1.366 . S
C1501 C1500 1.366 . S
C1501 C1502 1.414 . S
C1501 C1504 1.499 . S
C1502 H1482 0.950 . S
C1502 C1501 1.414 . S
C1502 C1503 1.374 . S
C1503 H1483 0.950 . S
C1503 C1499 1.385 . S
C1503 C1502 1.374 . S
C1504 C1501 1.499 . S
C1504 C1505 1.373 . S
C1504 C1506 1.389 . S
C1505 H1484 0.950 . S
C1505 C1504 1.373 . S
C1505 C1521 1.377 . S
C1506 C1504 1.389 . S
C1506 C1507 1.524 . S
C1506 C1520 1.377 . S
C1507 C1506 1.524 . S
C1507 C1508 1.397 . S
C1507 C1512 1.363 . S
C1508 H1485 0.950 . S
C1508 C1507 1.397 . S
C1508 C1509 1.334 . S
C1509 H1486 0.950 . S
C1509 C1508 1.334 . S
C1509 C1510 1.287 . S
C1510 C1509 1.287 . S
C1510 C1511 1.524 . S
C1510 H1529 0.913 . S
C1511 H1487 0.950 . S
C1511 C1510 1.524 . S
C1511 C1512 1.415 . S
C1512 H1488 0.950 . S
C1512 C1507 1.363 . S
C1512 C1511 1.415 . S
C1513 H1489 0.951 . S
C1513 C1514 1.366 . S
C1513 C1515 1.388 . S
C1514 C1513 1.366 . S
C1514 C1518 1.385 . S
C1515 H1490 0.951 . S
C1515 C1513 1.388 . S
C1515 C1516 1.366 . S
C1516 C1515 1.366 . S
C1516 C1517 1.414 . S
C1516 C1519 1.499 . S
C1517 H1491 0.950 . S
C1517 C1516 1.414 . S
C1517 C1518 1.374 . S
C1518 H1492 0.950 . S
C1518 C1514 1.385 . S
C1518 C1517 1.374 . S
C1519 C1516 1.499 . S
C1519 C1520 1.373 . S
C1519 C1521 1.389 . S
C1520 H1493 0.950 . S
C1520 C1506 1.377 . S
C1520 C1519 1.373 . S
C1521 C1505 1.377 . S
C1521 C1519 1.389 . S
C1521 C1522 1.524 . S
C1522 C1521 1.524 . S
C1522 C1523 1.397 . S
C1522 C1527 1.363 . S
C1523 H1494 0.950 . S
C1523 C1522 1.397 . S
C1523 C1524 1.334 . S
C1524 H1495 0.950 . S
C1524 C1523 1.334 . S
C1524 C1525 1.287 . S
C1525 C1524 1.287 . S
C1525 C1526 1.524 . S
C1525 H1528 0.999 . S
C1526 H1496 0.950 . S
C1526 C1525 1.524 . S
C1526 C1527 1.415 . S
C1527 H1497 0.950 . S
C1527 C1522 1.363 . S
C1527 C1526 1.415 . S
H1528 C1525 0.999 . S
H1529 C1510 0.913 . S
H1530 C1548 0.951 . S
H1531 C1550 0.951 . S
H1532 C1552 0.950 . S
H1533 C1553 0.950 . S
H1534 C1555 0.950 . S
H1535 C1558 0.950 . S
H1536 C1559 0.950 . S
H1537 C1561 0.950 . S
H1538 C1562 0.950 . S
H1539 C1563 0.951 . S
H1540 C1565 0.951 . S
H1541 C1567 0.950 . S
H1542 C1568 0.950 . S
H1543 C1570 0.950 . S
H1544 C1573 0.950 . S
H1545 C1574 0.950 . S
H1546 C1576 0.950 . S
H1547 C1577 0.950 . S
C1548 H1530 0.951 . S
C1548 C1549 1.366 . S
C1548 C1550 1.388 . S
C1549 C1548 1.366 . S
C1549 C1553 1.385 . S
C1550 H1531 0.951 . S
C1550 C1548 1.388 . S
C1550 C1551 1.366 . S
C1551 C1550 1.366 . S
C1551 C1552 1.414 . S
C1551 C1554 1.499 . S
C1552 H1532 0.950 . S
C1552 C1551 1.414 . S
C1552 C1553 1.374 . S
C1553 H1533 0.950 . S
C1553 C1549 1.385 . S
C1553 C1552 1.374 . S
C1554 C1551 1.499 . S
C1554 C1555 1.373 . S
C1554 C1556 1.389 . S
C1555 H1534 0.950 . S
C1555 C1554 1.373 . S
C1555 C1571 1.377 . S
C1556 C1554 1.389 . S
C1556 C1557 1.524 . S
C1556 C1570 1.377 . S
C1557 C1556 1.524 . S
C1557 C1558 1.397 . S
C1557 C1562 1.363 . S
C1558 H1535 0.950 . S
C1558 C1557 1.397 . S
C1558 C1559 1.334 . S
C1559 H1536 0.950 . S
C1559 C1558 1.334 . S
C1559 C1560 1.287 . S
C1560 C1559 1.287 . S
C1560 C1561 1.524 . S
C1560 H1579 0.913 . S
C1561 H1537 0.950 . S
C1561 C1560 1.524 . S
C1561 C1562 1.415 . S
C1562 H1538 0.950 . S
C1562 C1557 1.363 . S
C1562 C1561 1.415 . S
C1563 H1539 0.951 . S
C1563 C1564 1.366 . S
C1563 C1565 1.388 . S
C1564 C1563 1.366 . S
C1564 C1568 1.385 . S
C1565 H1540 0.951 . S
C1565 C1563 1.388 . S
C1565 C1566 1.366 . S
C1566 C1565 1.366 . S
C1566 C1567 1.414 . S
C1566 C1569 1.499 . S
C1567 H1541 0.950 . S
C1567 C1566 1.414 . S
C1567 C1568 1.374 . S
C1568 H1542 0.950 . S
C1568 C1564 1.385 . S
C1568 C1567 1.374 . S
C1569 C1566 1.499 . S
C1569 C1570 1.373 . S
C1569 C1571 1.389 . S
C1570 H1543 0.950 . S
C1570 C1556 1.377 . S
C1570 C1569 1.373 . S
C1571 C1555 1.377 . S
C1571 C1569 1.389 . S
C1571 C1572 1.524 . S
C1572 C1571 1.524 . S
C1572 C1573 1.397 . S
C1572 C1577 1.363 . S
C1573 H1544 0.950 . S
C1573 C1572 1.397 . S
C1573 C1574 1.334 . S
C1574 H1545 0.950 . S
C1574 C1573 1.334 . S
C1574 C1575 1.287 . S
C1575 C1574 1.287 . S
C1575 C1576 1.524 . S
C1575 H1578 0.999 . S
C1576 H1546 0.950 . S
C1576 C1575 1.524 . S
C1576 C1577 1.415 . S
C1577 H1547 0.950 . S
C1577 C1572 1.363 . S
C1577 C1576 1.415 . S
H1578 C1575 0.999 . S
H1579 C1560 0.913 . S
H1580 C1598 0.951 . S
H1581 C1600 0.951 . S
H1582 C1602 0.950 . S
H1583 C1603 0.950 . S
H1584 C1605 0.950 . S
H1585 C1608 0.950 . S
H1586 C1609 0.950 . S
H1587 C1611 0.950 . S
H1588 C1612 0.950 . S
H1589 C1613 0.951 . S
H1590 C1615 0.951 . S
H1591 C1617 0.950 . S
H1592 C1618 0.950 . S
H1593 C1620 0.950 . S
H1594 C1623 0.950 . S
H1595 C1624 0.950 . S
H1596 C1626 0.950 . S
H1597 C1627 0.950 . S
C1598 H1580 0.951 . S
C1598 C1599 1.366 . S
C1598 C1600 1.388 . S
C1599 C1598 1.366 . S
C1599 C1603 1.385 . S
C1600 H1581 0.951 . S
C1600 C1598 1.388 . S
C1600 C1601 1.366 . S
C1601 C1600 1.366 . S
C1601 C1602 1.414 . S
C1601 C1604 1.499 . S
C1602 H1582 0.950 . S
C1602 C1601 1.414 . S
C1602 C1603 1.374 . S
C1603 H1583 0.950 . S
C1603 C1599 1.385 . S
C1603 C1602 1.374 . S
C1604 C1601 1.499 . S
C1604 C1605 1.373 . S
C1604 C1606 1.389 . S
C1605 H1584 0.950 . S
C1605 C1604 1.373 . S
C1605 C1621 1.377 . S
C1606 C1604 1.389 . S
C1606 C1607 1.524 . S
C1606 C1620 1.377 . S
C1607 C1606 1.524 . S
C1607 C1608 1.397 . S
C1607 C1612 1.363 . S
C1608 H1585 0.950 . S
C1608 C1607 1.397 . S
C1608 C1609 1.334 . S
C1609 H1586 0.950 . S
C1609 C1608 1.334 . S
C1609 C1610 1.287 . S
C1610 C1609 1.287 . S
C1610 C1611 1.524 . S
C1610 H1629 0.913 . S
C1611 H1587 0.950 . S
C1611 C1610 1.524 . S
C1611 C1612 1.415 . S
C1612 H1588 0.950 . S
C1612 C1607 1.363 . S
C1612 C1611 1.415 . S
C1613 H1589 0.951 . S
C1613 C1614 1.366 . S
C1613 C1615 1.388 . S
C1614 C1613 1.366 . S
C1614 C1618 1.385 . S
C1615 H1590 0.951 . S
C1615 C1613 1.388 . S
C1615 C1616 1.366 . S
C1616 C1615 1.366 . S
C1616 C1617 1.414 . S
C1616 C1619 1.499 . S
C1617 H1591 0.950 . S
C1617 C1616 1.414 . S
C1617 C1618 1.374 . S
C1618 H1592 0.950 . S
C1618 C1614 1.385 . S
C1618 C1617 1.374 . S
C1619 C1616 1.499 . S
C1619 C1620 1.373 . S
C1619 C1621 1.389 . S
C1620 H1593 0.950 . S
C1620 C1606 1.377 . S
C1620 C1619 1.373 . S
C1621 C1605 1.377 . S
C1621 C1619 1.389 . S
C1621 C1622 1.524 . S
C1622 C1621 1.524 . S
C1622 C1623 1.397 . S
C1622 C1627 1.363 . S
C1623 H1594 0.950 . S
C1623 C1622 1.397 . S
C1623 C1624 1.334 . S
C1624 H1595 0.950 . S
C1624 C1623 1.334 . S
C1624 C1625 1.287 . S
C1625 C1624 1.287 . S
C1625 C1626 1.524 . S
C1625 H1628 0.999 . S
C1626 H1596 0.950 . S
C1626 C1625 1.524 . S
C1626 C1627 1.415 . S
C1627 H1597 0.950 . S
C1627 C1622 1.363 . S
C1627 C1626 1.415 . S
H1628 C1625 0.999 . S
H1629 C1610 0.913 . S
H1630 C1648 0.951 . S
H1631 C1650 0.951 . S
H1632 C1652 0.950 . S
H1633 C1653 0.950 . S
H1634 C1655 0.950 . S
H1635 C1658 0.950 . S
H1636 C1659 0.950 . S
H1637 C1661 0.950 . S
H1638 C1662 0.950 . S
H1639 C1663 0.951 . S
H1640 C1665 0.951 . S
H1641 C1667 0.950 . S
H1642 C1668 0.950 . S
H1643 C1670 0.950 . S
H1644 C1673 0.950 . S
H1645 C1674 0.950 . S
H1646 C1676 0.950 . S
H1647 C1677 0.950 . S
C1648 H1630 0.951 . S
C1648 C1649 1.366 . S
C1648 C1650 1.388 . S
C1649 C1648 1.366 . S
C1649 C1653 1.385 . S
C1650 H1631 0.951 . S
C1650 C1648 1.388 . S
C1650 C1651 1.366 . S
C1651 C1650 1.366 . S
C1651 C1652 1.414 . S
C1651 C1654 1.499 . S
C1652 H1632 0.950 . S
C1652 C1651 1.414 . S
C1652 C1653 1.374 . S
C1653 H1633 0.950 . S
C1653 C1649 1.385 . S
C1653 C1652 1.374 . S
C1654 C1651 1.499 . S
C1654 C1655 1.373 . S
C1654 C1656 1.389 . S
C1655 H1634 0.950 . S
C1655 C1654 1.373 . S
C1655 C1671 1.377 . S
C1656 C1654 1.389 . S
C1656 C1657 1.524 . S
C1656 C1670 1.377 . S
C1657 C1656 1.524 . S
C1657 C1658 1.397 . S
C1657 C1662 1.363 . S
C1658 H1635 0.950 . S
C1658 C1657 1.397 . S
C1658 C1659 1.334 . S
C1659 H1636 0.950 . S
C1659 C1658 1.334 . S
C1659 C1660 1.287 . S
C1660 C1659 1.287 . S
C1660 C1661 1.524 . S
C1660 H1679 0.913 . S
C1661 H1637 0.950 . S
C1661 C1660 1.524 . S
C1661 C1662 1.415 . S
C1662 H1638 0.950 . S
C1662 C1657 1.363 . S
C1662 C1661 1.415 . S
C1663 H1639 0.951 . S
C1663 C1664 1.366 . S
C1663 C1665 1.388 . S
C1664 C1663 1.366 . S
C1664 C1668 1.385 . S
C1665 H1640 0.951 . S
C1665 C1663 1.388 . S
C1665 C1666 1.366 . S
C1666 C1665 1.366 . S
C1666 C1667 1.414 . S
C1666 C1669 1.499 . S
C1667 H1641 0.950 . S
C1667 C1666 1.414 . S
C1667 C1668 1.374 . S
C1668 H1642 0.950 . S
C1668 C1664 1.385 . S
C1668 C1667 1.374 . S
C1669 C1666 1.499 . S
C1669 C1670 1.373 . S
C1669 C1671 1.389 . S
C1670 H1643 0.950 . S
C1670 C1656 1.377 . S
C1670 C1669 1.373 . S
C1671 C1655 1.377 . S
C1671 C1669 1.389 . S
C1671 C1672 1.524 . S
C1672 C1671 1.524 . S
C1672 C1673 1.397 . S
C1672 C1677 1.363 . S
C1673 H1644 0.950 . S
C1673 C1672 1.397 . S
C1673 C1674 1.334 . S
C1674 H1645 0.950 . S
C1674 C1673 1.334 . S
C1674 C1675 1.287 . S
C1675 C1674 1.287 . S
C1675 C1676 1.524 . S
C1675 H1678 0.999 . S
C1676 H1646 0.950 . S
C1676 C1675 1.524 . S
C1676 C1677 1.415 . S
C1677 H1647 0.950 . S
C1677 C1672 1.363 . S
C1677 C1676 1.415 . S
H1678 C1675 0.999 . S
H1679 C1660 0.913 . S
H1680 C1698 0.951 . S
H1681 C1700 0.951 . S
H1682 C1702 0.950 . S
H1683 C1703 0.950 . S
H1684 C1705 0.950 . S
H1685 C1708 0.950 . S
H1686 C1709 0.950 . S
H1687 C1711 0.950 . S
H1688 C1712 0.950 . S
H1689 C1713 0.951 . S
H1690 C1715 0.951 . S
H1691 C1717 0.950 . S
H1692 C1718 0.950 . S
H1693 C1720 0.950 . S
H1694 C1723 0.950 . S
H1695 C1724 0.950 . S
H1696 C1726 0.950 . S
H1697 C1727 0.950 . S
C1698 H1680 0.951 . S
C1698 C1699 1.366 . S
C1698 C1700 1.388 . S
C1699 C1698 1.366 . S
C1699 C1703 1.385 . S
C1700 H1681 0.951 . S
C1700 C1698 1.388 . S
C1700 C1701 1.366 . S
C1701 C1700 1.366 . S
C1701 C1702 1.414 . S
C1701 C1704 1.499 . S
C1702 H1682 0.950 . S
C1702 C1701 1.414 . S
C1702 C1703 1.374 . S
C1703 H1683 0.950 . S
C1703 C1699 1.385 . S
C1703 C1702 1.374 . S
C1704 C1701 1.499 . S
C1704 C1705 1.373 . S
C1704 C1706 1.389 . S
C1705 H1684 0.950 . S
C1705 C1704 1.373 . S
C1705 C1721 1.377 . S
C1706 C1704 1.389 . S
C1706 C1707 1.524 . S
C1706 C1720 1.377 . S
C1707 C1706 1.524 . S
C1707 C1708 1.397 . S
C1707 C1712 1.363 . S
C1708 H1685 0.950 . S
C1708 C1707 1.397 . S
C1708 C1709 1.334 . S
C1709 H1686 0.950 . S
C1709 C1708 1.334 . S
C1709 C1710 1.287 . S
C1710 C1709 1.287 . S
C1710 C1711 1.524 . S
C1710 H1729 0.913 . S
C1711 H1687 0.950 . S
C1711 C1710 1.524 . S
C1711 C1712 1.415 . S
C1712 H1688 0.950 . S
C1712 C1707 1.363 . S
C1712 C1711 1.415 . S
C1713 H1689 0.951 . S
C1713 C1714 1.366 . S
C1713 C1715 1.388 . S
C1714 C1713 1.366 . S
C1714 C1718 1.385 . S
C1715 H1690 0.951 . S
C1715 C1713 1.388 . S
C1715 C1716 1.366 . S
C1716 C1715 1.366 . S
C1716 C1717 1.414 . S
C1716 C1719 1.499 . S
C1717 H1691 0.950 . S
C1717 C1716 1.414 . S
C1717 C1718 1.374 . S
C1718 H1692 0.950 . S
C1718 C1714 1.385 . S
C1718 C1717 1.374 . S
C1719 C1716 1.499 . S
C1719 C1720 1.373 . S
C1719 C1721 1.389 . S
C1720 H1693 0.950 . S
C1720 C1706 1.377 . S
C1720 C1719 1.373 . S
C1721 C1705 1.377 . S
C1721 C1719 1.389 . S
C1721 C1722 1.524 . S
C1722 C1721 1.524 . S
C1722 C1723 1.397 . S
C1722 C1727 1.363 . S
C1723 H1694 0.950 . S
C1723 C1722 1.397 . S
C1723 C1724 1.334 . S
C1724 H1695 0.950 . S
C1724 C1723 1.334 . S
C1724 C1725 1.287 . S
C1725 C1724 1.287 . S
C1725 C1726 1.524 . S
C1725 H1728 0.999 . S
C1726 H1696 0.950 . S
C1726 C1725 1.524 . S
C1726 C1727 1.415 . S
C1727 H1697 0.950 . S
C1727 C1722 1.363 . S
C1727 C1726 1.415 . S
H1728 C1725 0.999 . S
H1729 C1710 0.913 . S
H1730 C1748 0.951 . S
H1731 C1750 0.951 . S
H1732 C1752 0.950 . S
H1733 C1753 0.950 . S
H1734 C1755 0.950 . S
H1735 C1758 0.950 . S
H1736 C1759 0.950 . S
H1737 C1761 0.950 . S
H1738 C1762 0.950 . S
H1739 C1763 0.951 . S
H1740 C1765 0.951 . S
H1741 C1767 0.950 . S
H1742 C1768 0.950 . S
H1743 C1770 0.950 . S
H1744 C1773 0.950 . S
H1745 C1774 0.950 . S
H1746 C1776 0.950 . S
H1747 C1777 0.950 . S
C1748 H1730 0.951 . S
C1748 C1749 1.366 . S
C1748 C1750 1.388 . S
C1749 C1748 1.366 . S
C1749 C1753 1.385 . S
C1750 H1731 0.951 . S
C1750 C1748 1.388 . S
C1750 C1751 1.366 . S
C1751 C1750 1.366 . S
C1751 C1752 1.414 . S
C1751 C1754 1.499 . S
C1752 H1732 0.950 . S
C1752 C1751 1.414 . S
C1752 C1753 1.374 . S
C1753 H1733 0.950 . S
C1753 C1749 1.385 . S
C1753 C1752 1.374 . S
C1754 C1751 1.499 . S
C1754 C1755 1.373 . S
C1754 C1756 1.389 . S
C1755 H1734 0.950 . S
C1755 C1754 1.373 . S
C1755 C1771 1.377 . S
C1756 C1754 1.389 . S
C1756 C1757 1.524 . S
C1756 C1770 1.377 . S
C1757 C1756 1.524 . S
C1757 C1758 1.397 . S
C1757 C1762 1.363 . S
C1758 H1735 0.950 . S
C1758 C1757 1.397 . S
C1758 C1759 1.334 . S
C1759 H1736 0.950 . S
C1759 C1758 1.334 . S
C1759 C1760 1.287 . S
C1760 C1759 1.287 . S
C1760 C1761 1.524 . S
C1760 H1779 0.913 . S
C1761 H1737 0.950 . S
C1761 C1760 1.524 . S
C1761 C1762 1.415 . S
C1762 H1738 0.950 . S
C1762 C1757 1.363 . S
C1762 C1761 1.415 . S
C1763 H1739 0.951 . S
C1763 C1764 1.366 . S
C1763 C1765 1.388 . S
C1764 C1763 1.366 . S
C1764 C1768 1.385 . S
C1765 H1740 0.951 . S
C1765 C1763 1.388 . S
C1765 C1766 1.366 . S
C1766 C1765 1.366 . S
C1766 C1767 1.414 . S
C1766 C1769 1.499 . S
C1767 H1741 0.950 . S
C1767 C1766 1.414 . S
C1767 C1768 1.374 . S
C1768 H1742 0.950 . S
C1768 C1764 1.385 . S
C1768 C1767 1.374 . S
C1769 C1766 1.499 . S
C1769 C1770 1.373 . S
C1769 C1771 1.389 . S
C1770 H1743 0.950 . S
C1770 C1756 1.377 . S
C1770 C1769 1.373 . S
C1771 C1755 1.377 . S
C1771 C1769 1.389 . S
C1771 C1772 1.524 . S
C1772 C1771 1.524 . S
C1772 C1773 1.397 . S
C1772 C1777 1.363 . S
C1773 H1744 0.950 . S
C1773 C1772 1.397 . S
C1773 C1774 1.334 . S
C1774 H1745 0.950 . S
C1774 C1773 1.334 . S
C1774 C1775 1.287 . S
C1775 C1774 1.287 . S
C1775 C1776 1.524 . S
C1775 H1778 0.999 . S
C1776 H1746 0.950 . S
C1776 C1775 1.524 . S
C1776 C1777 1.415 . S
C1777 H1747 0.950 . S
C1777 C1772 1.363 . S
C1777 C1776 1.415 . S
H1778 C1775 0.999 . S
H1779 C1760 0.913 . S
H1780 C1798 0.951 . S
H1781 C1800 0.951 . S
H1782 C1802 0.950 . S
H1783 C1803 0.950 . S
H1784 C1805 0.950 . S
H1785 C1808 0.950 . S
H1786 C1809 0.950 . S
H1787 C1811 0.950 . S
H1788 C1812 0.950 . S
H1789 C1813 0.951 . S
H1790 C1815 0.951 . S
H1791 C1817 0.950 . S
H1792 C1818 0.950 . S
H1793 C1820 0.950 . S
H1794 C1823 0.950 . S
H1795 C1824 0.950 . S
H1796 C1826 0.950 . S
H1797 C1827 0.950 . S
C1798 H1780 0.951 . S
C1798 C1799 1.366 . S
C1798 C1800 1.388 . S
C1799 C1798 1.366 . S
C1799 C1803 1.385 . S
C1800 H1781 0.951 . S
C1800 C1798 1.388 . S
C1800 C1801 1.366 . S
C1801 C1800 1.366 . S
C1801 C1802 1.414 . S
C1801 C1804 1.499 . S
C1802 H1782 0.950 . S
C1802 C1801 1.414 . S
C1802 C1803 1.374 . S
C1803 H1783 0.950 . S
C1803 C1799 1.385 . S
C1803 C1802 1.374 . S
C1804 C1801 1.499 . S
C1804 C1805 1.373 . S
C1804 C1806 1.389 . S
C1805 H1784 0.950 . S
C1805 C1804 1.373 . S
C1805 C1821 1.377 . S
C1806 C1804 1.389 . S
C1806 C1807 1.524 . S
C1806 C1820 1.377 . S
C1807 C1806 1.524 . S
C1807 C1808 1.397 . S
C1807 C1812 1.363 . S
C1808 H1785 0.950 . S
C1808 C1807 1.397 . S
C1808 C1809 1.334 . S
C1809 H1786 0.950 . S
C1809 C1808 1.334 . S
C1809 C1810 1.287 . S
C1810 C1809 1.287 . S
C1810 C1811 1.524 . S
C1810 H1829 0.913 . S
C1811 H1787 0.950 . S
C1811 C1810 1.524 . S
C1811 C1812 1.415 . S
C1812 H1788 0.950 . S
C1812 C1807 1.363 . S
C1812 C1811 1.415 . S
C1813 H1789 0.951 . S
C1813 C1814 1.366 . S
C1813 C1815 1.388 . S
C1814 C1813 1.366 . S
C1814 C1818 1.385 . S
C1815 H1790 0.951 . S
C1815 C1813 1.388 . S
C1815 C1816 1.366 . S
C1816 C1815 1.366 . S
C1816 C1817 1.414 . S
C1816 C1819 1.499 . S
C1817 H1791 0.950 . S
C1817 C1816 1.414 . S
C1817 C1818 1.374 . S
C1818 H1792 0.950 . S
C1818 C1814 1.385 . S
C1818 C1817 1.374 . S
C1819 C1816 1.499 . S
C1819 C1820 1.373 . S
C1819 C1821 1.389 . S
C1820 H1793 0.950 . S
C1820 C1806 1.377 . S
C1820 C1819 1.373 . S
C1821 C1805 1.377 . S
C1821 C1819 1.389 . S
C1821 C1822 1.524 . S
C1822 C1821 1.524 . S
C1822 C1823 1.397 . S
C1822 C1827 1.363 . S
C1823 H1794 0.950 . S
C1823 C1822 1.397 . S
C1823 C1824 1.334 . S
C1824 H1795 0.950 . S
C1824 C1823 1.334 . S
C1824 C1825 1.287 . S
C1825 C1824 1.287 . S
C1825 C1826 1.524 . S
C1825 H1828 0.999 . S
C1826 H1796 0.950 . S
C1826 C1825 1.524 . S
C1826 C1827 1.415 . S
C1827 H1797 0.950 . S
C1827 C1822 1.363 . S
C1827 C1826 1.415 . S
H1828 C1825 0.999 . S
H1829 C1810 0.913 . S
H1830 C1848 0.951 . S
H1831 C1850 0.951 . S
H1832 C1852 0.950 . S
H1833 C1853 0.950 . S
H1834 C1855 0.950 . S
H1835 C1858 0.950 . S
H1836 C1859 0.950 . S
H1837 C1861 0.950 . S
H1838 C1862 0.950 . S
H1839 C1863 0.951 . S
H1840 C1865 0.951 . S
H1841 C1867 0.950 . S
H1842 C1868 0.950 . S
H1843 C1870 0.950 . S
H1844 C1873 0.950 . S
H1845 C1874 0.950 . S
H1846 C1876 0.950 . S
H1847 C1877 0.950 . S
C1848 H1830 0.951 . S
C1848 C1849 1.366 . S
C1848 C1850 1.388 . S
C1849 C1848 1.366 . S
C1849 C1853 1.385 . S
C1850 H1831 0.951 . S
C1850 C1848 1.388 . S
C1850 C1851 1.366 . S
C1851 C1850 1.366 . S
C1851 C1852 1.414 . S
C1851 C1854 1.499 . S
C1852 H1832 0.950 . S
C1852 C1851 1.414 . S
C1852 C1853 1.374 . S
C1853 H1833 0.950 . S
C1853 C1849 1.385 . S
C1853 C1852 1.374 . S
C1854 C1851 1.499 . S
C1854 C1855 1.373 . S
C1854 C1856 1.389 . S
C1855 H1834 0.950 . S
C1855 C1854 1.373 . S
C1855 C1871 1.377 . S
C1856 C1854 1.389 . S
C1856 C1857 1.524 . S
C1856 C1870 1.377 . S
C1857 C1856 1.524 . S
C1857 C1858 1.397 . S
C1857 C1862 1.363 . S
C1858 H1835 0.950 . S
C1858 C1857 1.397 . S
C1858 C1859 1.334 . S
C1859 H1836 0.950 . S
C1859 C1858 1.334 . S
C1859 C1860 1.287 . S
C1860 C1859 1.287 . S
C1860 C1861 1.524 . S
C1860 H1879 0.913 . S
C1861 H1837 0.950 . S
C1861 C1860 1.524 . S
C1861 C1862 1.415 . S
C1862 H1838 0.950 . S
C1862 C1857 1.363 . S
C1862 C1861 1.415 . S
C1863 H1839 0.951 . S
C1863 C1864 1.366 . S
C1863 C1865 1.388 . S
C1864 C1863 1.366 . S
C1864 C1868 1.385 . S
C1865 H1840 0.951 . S
C1865 C1863 1.388 . S
C1865 C1866 1.366 . S
C1866 C1865 1.366 . S
C1866 C1867 1.414 . S
C1866 C1869 1.499 . S
C1867 H1841 0.950 . S
C1867 C1866 1.414 . S
C1867 C1868 1.374 . S
C1868 H1842 0.950 . S
C1868 C1864 1.385 . S
C1868 C1867 1.374 . S
C1869 C1866 1.499 . S
C1869 C1870 1.373 . S
C1869 C1871 1.389 . S
C1870 H1843 0.950 . S
C1870 C1856 1.377 . S
C1870 C1869 1.373 . S
C1871 C1855 1.377 . S
C1871 C1869 1.389 . S
C1871 C1872 1.524 . S
C1872 C1871 1.524 . S
C1872 C1873 1.397 . S
C1872 C1877 1.363 . S
C1873 H1844 0.950 . S
C1873 C1872 1.397 . S
C1873 C1874 1.334 . S
C1874 H1845 0.950 . S
C1874 C1873 1.334 . S
C1874 C1875 1.287 . S
C1875 C1874 1.287 . S
C1875 C1876 1.524 . S
C1875 H1878 0.999 . S
C1876 H1846 0.950 . S
C1876 C1875 1.524 . S
C1876 C1877 1.415 . S
C1877 H1847 0.950 . S
C1877 C1872 1.363 . S
C1877 C1876 1.415 . S
H1878 C1875 0.999 . S
H1879 C1860 0.913 . S
H1880 C1898 0.951 . S
H1881 C1900 0.951 . S
H1882 C1902 0.950 . S
H1883 C1903 0.950 . S
H1884 C1905 0.950 . S
H1885 C1908 0.950 . S
H1886 C1909 0.950 . S
H1887 C1911 0.950 . S
H1888 C1912 0.950 . S
H1889 C1913 0.951 . S
H1890 C1915 0.951 . S
H1891 C1917 0.950 . S
H1892 C1918 0.950 . S
H1893 C1920 0.950 . S
H1894 C1923 0.950 . S
H1895 C1924 0.950 . S
H1896 C1926 0.950 . S
H1897 C1927 0.950 . S
C1898 H1880 0.951 . S
C1898 C1899 1.366 . S
C1898 C1900 1.388 . S
C1899 C1898 1.366 . S
C1899 C1903 1.385 . S
C1900 H1881 0.951 . S
C1900 C1898 1.388 . S
C1900 C1901 1.366 . S
C1901 C1900 1.366 . S
C1901 C1902 1.414 . S
C1901 C1904 1.499 . S
C1902 H1882 0.950 . S
C1902 C1901 1.414 . S
C1902 C1903 1.374 . S
C1903 H1883 0.950 . S
C1903 C1899 1.385 . S
C1903 C1902 1.374 . S
C1904 C1901 1.499 . S
C1904 C1905 1.373 . S
C1904 C1906 1.389 . S
C1905 H1884 0.950 . S
C1905 C1904 1.373 . S
C1905 C1921 1.377 . S
C1906 C1904 1.389 . S
C1906 C1907 1.524 . S
C1906 C1920 1.377 . S
C1907 C1906 1.524 . S
C1907 C1908 1.397 . S
C1907 C1912 1.363 . S
C1908 H1885 0.950 . S
C1908 C1907 1.397 . S
C1908 C1909 1.334 . S
C1909 H1886 0.950 . S
C1909 C1908 1.334 . S
C1909 C1910 1.287 . S
C1910 C1909 1.287 . S
C1910 C1911 1.524 . S
C1910 H1929 0.913 . S
C1911 H1887 0.950 . S
C1911 C1910 1.524 . S
C1911 C1912 1.415 . S
C1912 H1888 0.950 . S
C1912 C1907 1.363 . S
C1912 C1911 1.415 . S
C1913 H1889 0.951 . S
C1913 C1914 1.366 . S
C1913 C1915 1.388 . S
C1914 C1913 1.366 . S
C1914 C1918 1.385 . S
C1915 H1890 0.951 . S
C1915 C1913 1.388 . S
C1915 C1916 1.366 . S
C1916 C1915 1.366 . S
C1916 C1917 1.414 . S
C1916 C1919 1.499 . S
C1917 H1891 0.950 . S
C1917 C1916 1.414 . S
C1917 C1918 1.374 . S
C1918 H1892 0.950 . S
C1918 C1914 1.385 . S
C1918 C1917 1.374 . S
C1919 C1916 1.499 . S
C1919 C1920 1.373 . S
C1919 C1921 1.389 . S
C1920 H1893 0.950 . S
C1920 C1906 1.377 . S
C1920 C1919 1.373 . S
C1921 C1905 1.377 . S
C1921 C1919 1.389 . S
C1921 C1922 1.524 . S
C1922 C1921 1.524 . S
C1922 C1923 1.397 . S
C1922 C1927 1.363 . S
C1923 H1894 0.950 . S
C1923 C1922 1.397 . S
C1923 C1924 1.334 . S
C1924 H1895 0.950 . S
C1924 C1923 1.334 . S
C1924 C1925 1.287 . S
C1925 C1924 1.287 . S
C1925 C1926 1.524 . S
C1925 H1928 0.999 . S
C1926 H1896 0.950 . S
C1926 C1925 1.524 . S
C1926 C1927 1.415 . S
C1927 H1897 0.950 . S
C1927 C1922 1.363 . S
C1927 C1926 1.415 . S
H1928 C1925 0.999 . S
H1929 C1910 0.913 . S
H1930 C1948 0.951 . S
H1931 C1950 0.951 . S
H1932 C1952 0.950 . S
H1933 C1953 0.950 . S
H1934 C1955 0.950 . S
H1935 C1958 0.950 . S
H1936 C1959 0.950 . S
H1937 C1961 0.950 . S
H1938 C1962 0.950 . S
H1939 C1963 0.951 . S
H1940 C1965 0.951 . S
H1941 C1967 0.950 . S
H1942 C1968 0.950 . S
H1943 C1970 0.950 . S
H1944 C1973 0.950 . S
H1945 C1974 0.950 . S
H1946 C1976 0.950 . S
H1947 C1977 0.950 . S
C1948 H1930 0.951 . S
C1948 C1949 1.366 . S
C1948 C1950 1.388 . S
C1949 C1948 1.366 . S
C1949 C1953 1.385 . S
C1950 H1931 0.951 . S
C1950 C1948 1.388 . S
C1950 C1951 1.366 . S
C1951 C1950 1.366 . S
C1951 C1952 1.414 . S
C1951 C1954 1.499 . S
C1952 H1932 0.950 . S
C1952 C1951 1.414 . S
C1952 C1953 1.374 . S
C1953 H1933 0.950 . S
C1953 C1949 1.385 . S
C1953 C1952 1.374 . S
C1954 C1951 1.499 . S
C1954 C1955 1.373 . S
C1954 C1956 1.389 . S
C1955 H1934 0.950 . S
C1955 C1954 1.373 . S
C1955 C1971 1.377 . S
C1956 C1954 1.389 . S
C1956 C1957 1.524 . S
C1956 C1970 1.377 . S
C1957 C1956 1.524 . S
C1957 C1958 1.397 . S
C1957 C1962 1.363 . S
C1958 H1935 0.950 . S
C1958 C1957 1.397 . S
C1958 C1959 1.334 . S
C1959 H1936 0.950 . S
C1959 C1958 1.334 . S
C1959 C1960 1.287 . S
C1960 C1959 1.287 . S
C1960 C1961 1.524 . S
C1960 H1979 0.913 . S
C1961 H1937 0.950 . S
C1961 C1960 1.524 . S
C1961 C1962 1.415 . S
C1962 H1938 0.950 . S
C1962 C1957 1.363 . S
C1962 C1961 1.415 . S
C1963 H1939 0.951 . S
C1963 C1964 1.366 . S
C1963 C1965 1.388 . S
C1964 C1963 1.366 . S
C1964 C1968 1.385 . S
C1965 H1940 0.951 . S
C1965 C1963 1.388 . S
C1965 C1966 1.366 . S
C1966 C1965 1.366 . S
C1966 C1967 1.414 . S
C1966 C1969 1.499 . S
C1967 H1941 0.950 . S
C1967 C1966 1.414 . S
C1967 C1968 1.374 . S
C1968 H1942 0.950 . S
C1968 C1964 1.385 . S
C1968 C1967 1.374 . S
C1969 C1966 1.499 . S
C1969 C1970 1.373 . S
C1969 C1971 1.389 . S
C1970 H1943 0.950 . S
C1970 C1956 1.377 . S
C1970 C1969 1.373 . S
C1971 C1955 1.377 . S
C1971 C1969 1.389 . S
C1971 C1972 1.524 . S
C1972 C1971 1.524 . S
C1972 C1973 1.397 . S
C1972 C1977 1.363 . S
C1973 H1944 0.950 . S
C1973 C1972 1.397 . S
C1973 C1974 1.334 . S
C1974 H1945 0.950 . S
C1974 C1973 1.334 . S
C1974 C1975 1.287 . S
C1975 C1974 1.287 . S
C1975 C1976 1.524 . S
C1975 H1978 0.999 . S
C1976 H1946 0.950 . S
C1976 C1975 1.524 . S
C1976 C1977 1.415 . S
C1977 H1947 0.950 . S
C1977 C1972 1.363 . S
C1977 C1976 1.415 . S
H1978 C1975 0.999 . S
H1979 C1960 0.913 . S
H1980 C1998 0.951 . S
H1981 C2000 0.951 . S
H1982 C2002 0.950 . S
H1983 C2003 0.950 . S
H1984 C2005 0.950 . S
H1985 C2008 0.950 . S
H1986 C2009 0.950 . S
H1987 C2011 0.950 . S
H1988 C2012 0.950 . S
H1989 C2013 0.951 . S
H1990 C2015 0.951 . S
H1991 C2017 0.950 . S
H1992 C2018 0.950 . S
H1993 C2020 0.950 . S
H1994 C2023 0.950 . S
H1995 C2024 0.950 . S
H1996 C2026 0.950 . S
H1997 C2027 0.950 . S
C1998 H1980 0.951 . S
C1998 C1999 1.366 . S
C1998 C2000 1.388 . S
C1999 C1998 1.366 . S
C1999 C2003 1.385 . S
C2000 H1981 0.951 . S
C2000 C1998 1.388 . S
C2000 C2001 1.366 . S
C2001 C2000 1.366 . S
C2001 C2002 1.414 . S
C2001 C2004 1.499 . S
C2002 H1982 0.950 . S
C2002 C2001 1.414 . S
C2002 C2003 1.374 . S
C2003 H1983 0.950 . S
C2003 C1999 1.385 . S
C2003 C2002 1.374 . S
C2004 C2001 1.499 . S
C2004 C2005 1.373 . S
C2004 C2006 1.389 . S
C2005 H1984 0.950 . S
C2005 C2004 1.373 . S
C2005 C2021 1.377 1_556 S
C2006 C2004 1.389 . S
C2006 C2007 1.524 . S
C2006 C2020 1.377 1_556 S
C2007 C2006 1.524 . S
C2007 C2008 1.397 . S
C2007 C2012 1.363 . S
C2008 H1985 0.950 . S
C2008 C2007 1.397 . S
C2008 C2009 1.334 . S
C2009 H1986 0.950 . S
C2009 C2008 1.334 . S
C2009 C2010 1.287 . S
C2010 C2009 1.287 . S
C2010 C2011 1.524 . S
C2010 H2029 0.913 . S
C2011 H1987 0.950 . S
C2011 C2010 1.524 . S
C2011 C2012 1.415 . S
C2012 H1988 0.950 . S
C2012 C2007 1.363 . S
C2012 C2011 1.415 . S
C2013 H1989 0.951 . S
C2013 C2014 1.366 . S
C2013 C2015 1.388 . S
C2014 C2013 1.366 . S
C2014 C2018 1.385 . S
C2015 H1990 0.951 . S
C2015 C2013 1.388 . S
C2015 C2016 1.366 . S
C2016 C2015 1.366 . S
C2016 C2017 1.414 . S
C2016 C2019 1.499 . S
C2017 H1991 0.950 . S
C2017 C2016 1.414 . S
C2017 C2018 1.374 . S
C2018 H1992 0.950 . S
C2018 C2014 1.385 . S
C2018 C2017 1.374 . S
C2019 C2016 1.499 . S
C2019 C2020 1.373 . S
C2019 C2021 1.389 . S
C2020 H1993 0.950 . S
C2020 C2006 1.377 1_554 S
C2020 C2019 1.373 . S
C2021 C2005 1.377 1_554 S
C2021 C2019 1.389 . S
C2021 C2022 1.524 . S
C2022 C2021 1.524 . S
C2022 C2023 1.397 . S
C2022 C2027 1.363 . S
C2023 H1994 0.950 . S
C2023 C2022 1.397 . S
C2023 C2024 1.334 . S
C2024 H1995 0.950 . S
C2024 C2023 1.334 . S
C2024 C2025 1.287 . S
C2025 C2024 1.287 . S
C2025 C2026 1.524 . S
C2025 H2028 0.999 . S
C2026 H1996 0.950 . S
C2026 C2025 1.524 . S
C2026 C2027 1.415 . S
C2027 H1997 0.950 . S
C2027 C2022 1.363 . S
C2027 C2026 1.415 . S
H2028 C2025 0.999 . S
H2029 C2010 0.913 . S
H2030 C2048 0.951 . S
H2031 C2050 0.951 . S
H2032 C2052 0.950 . S
H2033 C2053 0.950 . S
H2034 C2055 0.950 . S
H2035 C2058 0.950 . S
H2036 C2059 0.950 . S
H2037 C2061 0.950 . S
H2038 C2062 0.950 . S
H2039 C2063 0.951 . S
H2040 C2065 0.951 . S
H2041 C2067 0.950 . S
H2042 C2068 0.950 . S
H2043 C2070 0.950 . S
H2044 C2073 0.950 . S
H2045 C2074 0.950 . S
H2046 C2076 0.950 . S
H2047 C2077 0.950 . S
C2048 H2030 0.951 . S
C2048 C2049 1.366 . S
C2048 C2050 1.388 . S
C2049 C2048 1.366 . S
C2049 C2053 1.385 . S
C2050 H2031 0.951 . S
C2050 C2048 1.388 . S
C2050 C2051 1.366 . S
C2051 C2050 1.366 . S
C2051 C2052 1.414 . S
C2051 C2054 1.499 . S
C2052 H2032 0.950 . S
C2052 C2051 1.414 . S
C2052 C2053 1.374 . S
C2053 H2033 0.950 . S
C2053 C2049 1.385 . S
C2053 C2052 1.374 . S
C2054 C2051 1.499 . S
C2054 C2055 1.373 . S
C2054 C2056 1.389 . S
C2055 H2034 0.950 . S
C2055 C2054 1.373 . S
C2055 C2071 1.377 1_455 S
C2056 C2054 1.389 . S
C2056 C2057 1.524 . S
C2056 C2070 1.377 1_455 S
C2057 C2056 1.524 . S
C2057 C2058 1.397 . S
C2057 C2062 1.363 . S
C2058 H2035 0.950 . S
C2058 C2057 1.397 . S
C2058 C2059 1.334 . S
C2059 H2036 0.950 . S
C2059 C2058 1.334 . S
C2059 C2060 1.287 . S
C2060 C2059 1.287 . S
C2060 C2061 1.524 . S
C2060 H2079 0.913 . S
C2061 H2037 0.950 . S
C2061 C2060 1.524 . S
C2061 C2062 1.415 . S
C2062 H2038 0.950 . S
C2062 C2057 1.363 . S
C2062 C2061 1.415 . S
C2063 H2039 0.951 . S
C2063 C2064 1.366 . S
C2063 C2065 1.388 . S
C2064 C2063 1.366 . S
C2064 C2068 1.385 . S
C2065 H2040 0.951 . S
C2065 C2063 1.388 . S
C2065 C2066 1.366 . S
C2066 C2065 1.366 . S
C2066 C2067 1.414 . S
C2066 C2069 1.499 . S
C2067 H2041 0.950 . S
C2067 C2066 1.414 . S
C2067 C2068 1.374 . S
C2068 H2042 0.950 . S
C2068 C2064 1.385 . S
C2068 C2067 1.374 . S
C2069 C2066 1.499 . S
C2069 C2070 1.373 . S
C2069 C2071 1.389 . S
C2070 H2043 0.950 . S
C2070 C2056 1.377 1_655 S
C2070 C2069 1.373 . S
C2071 C2055 1.377 1_655 S
C2071 C2069 1.389 . S
C2071 C2072 1.524 . S
C2072 C2071 1.524 . S
C2072 C2073 1.397 . S
C2072 C2077 1.363 . S
C2073 H2044 0.950 . S
C2073 C2072 1.397 . S
C2073 C2074 1.334 . S
C2074 H2045 0.950 . S
C2074 C2073 1.334 . S
C2074 C2075 1.287 . S
C2075 C2074 1.287 . S
C2075 C2076 1.524 . S
C2075 H2078 0.999 . S
C2076 H2046 0.950 . S
C2076 C2075 1.524 . S
C2076 C2077 1.415 . S
C2077 H2047 0.950 . S
C2077 C2072 1.363 . S
C2077 C2076 1.415 . S
H2078 C2075 0.999 . S
H2079 C2060 0.913 . S
H2080 C2098 0.951 . S
H2081 C2100 0.951 . S
H2082 C2102 0.950 . S
H2083 C2103 0.950 . S
H2084 C2105 0.950 . S
H2085 C2108 0.950 . S
H2086 C2109 0.950 . S
H2087 C2111 0.950 1_545 S
H2088 C2112 0.950 . S
H2089 C2113 0.951 . S
H2090 C2115 0.951 . S
H2091 C2117 0.950 . S
H2092 C2118 0.950 . S
H2093 C2120 0.950 . S
H2094 C2123 0.950 . S
H2095 C2124 0.950 . S
H2096 C2126 0.950 1_565 S
H2097 C2127 0.950 . S
C2098 H2080 0.951 . S
C2098 C2099 1.366 . S
C2098 C2100 1.388 . S
C2099 C2098 1.366 . S
C2099 C2103 1.385 . S
C2100 H2081 0.951 . S
C2100 C2098 1.388 . S
C2100 C2101 1.366 . S
C2101 C2100 1.366 . S
C2101 C2102 1.414 . S
C2101 C2104 1.499 . S
C2102 H2082 0.950 . S
C2102 C2101 1.414 . S
C2102 C2103 1.374 . S
C2103 H2083 0.950 . S
C2103 C2099 1.385 . S
C2103 C2102 1.374 . S
C2104 C2101 1.499 . S
C2104 C2105 1.373 . S
C2104 C2106 1.389 . S
C2105 H2084 0.950 . S
C2105 C2104 1.373 . S
C2105 C2121 1.377 1_564 S
C2106 C2104 1.389 . S
C2106 C2107 1.524 . S
C2106 C2120 1.377 1_564 S
C2107 C2106 1.524 . S
C2107 C2108 1.397 . S
C2107 C2112 1.363 1_565 S
C2108 H2085 0.950 . S
C2108 C2107 1.397 . S
C2108 C2109 1.334 . S
C2109 H2086 0.950 . S
C2109 C2108 1.334 . S
C2109 C2110 1.287 . S
C2110 C2109 1.287 . S
C2110 C2111 1.524 . S
C2110 H2129 0.913 . S
C2111 H2087 0.950 1_565 S
C2111 C2110 1.524 . S
C2111 C2112 1.415 1_565 S
C2112 H2088 0.950 . S
C2112 C2107 1.363 1_545 S
C2112 C2111 1.415 1_545 S
C2113 H2089 0.951 . S
C2113 C2114 1.366 . S
C2113 C2115 1.388 . S
C2114 C2113 1.366 . S
C2114 C2118 1.385 . S
C2115 H2090 0.951 . S
C2115 C2113 1.388 . S
C2115 C2116 1.366 . S
C2116 C2115 1.366 . S
C2116 C2117 1.414 . S
C2116 C2119 1.499 . S
C2117 H2091 0.950 . S
C2117 C2116 1.414 . S
C2117 C2118 1.374 . S
C2118 H2092 0.950 . S
C2118 C2114 1.385 . S
C2118 C2117 1.374 . S
C2119 C2116 1.499 . S
C2119 C2120 1.373 . S
C2119 C2121 1.389 . S
C2120 H2093 0.950 . S
C2120 C2106 1.377 1_546 S
C2120 C2119 1.373 . S
C2121 C2105 1.377 1_546 S
C2121 C2119 1.389 . S
C2121 C2122 1.524 . S
C2122 C2121 1.524 . S
C2122 C2123 1.397 . S
C2122 C2127 1.363 1_545 S
C2123 H2094 0.950 . S
C2123 C2122 1.397 . S
C2123 C2124 1.334 . S
C2124 H2095 0.950 . S
C2124 C2123 1.334 . S
C2124 C2125 1.287 . S
C2125 C2124 1.287 . S
C2125 C2126 1.524 . S
C2125 H2128 0.999 . S
C2126 H2096 0.950 1_545 S
C2126 C2125 1.524 . S
C2126 C2127 1.415 1_545 S
C2127 H2097 0.950 . S
C2127 C2122 1.363 1_565 S
C2127 C2126 1.415 1_565 S
H2128 C2125 0.999 . S
H2129 C2110 0.913 . S
H2130 C2148 0.951 . S
H2131 C2150 0.951 . S
H2132 C2152 0.950 . S
H2133 C2153 0.950 . S
H2134 C2155 0.950 . S
H2135 C2158 0.950 . S
H2136 C2159 0.950 . S
H2137 C2161 0.950 . S
H2138 C2162 0.950 . S
H2139 C2163 0.951 . S
H2140 C2165 0.951 . S
H2141 C2167 0.950 . S
H2142 C2168 0.950 . S
H2143 C2170 0.950 . S
H2144 C2173 0.950 . S
H2145 C2174 0.950 . S
H2146 C2176 0.950 . S
H2147 C2177 0.950 . S
C2148 H2130 0.951 . S
C2148 C2149 1.366 . S
C2148 C2150 1.388 . S
C2149 C2148 1.366 . S
C2149 C2153 1.385 . S
C2150 H2131 0.951 . S
C2150 C2148 1.388 . S
C2150 C2151 1.366 . S
C2151 C2150 1.366 . S
C2151 C2152 1.414 . S
C2151 C2154 1.499 . S
C2152 H2132 0.950 . S
C2152 C2151 1.414 . S
C2152 C2153 1.374 . S
C2153 H2133 0.950 . S
C2153 C2149 1.385 . S
C2153 C2152 1.374 . S
C2154 C2151 1.499 . S
C2154 C2155 1.373 . S
C2154 C2156 1.389 . S
C2155 H2134 0.950 . S
C2155 C2154 1.373 . S
C2155 C2171 1.377 . S
C2156 C2154 1.389 . S
C2156 C2157 1.524 . S
C2156 C2170 1.377 . S
C2157 C2156 1.524 . S
C2157 C2158 1.397 . S
C2157 C2162 1.363 . S
C2158 H2135 0.950 . S
C2158 C2157 1.397 . S
C2158 C2159 1.334 . S
C2159 H2136 0.950 . S
C2159 C2158 1.334 . S
C2159 C2160 1.287 . S
C2160 C2159 1.287 . S
C2160 C2161 1.524 . S
C2160 H2179 0.913 . S
C2161 H2137 0.950 . S
C2161 C2160 1.524 . S
C2161 C2162 1.415 . S
C2162 H2138 0.950 . S
C2162 C2157 1.363 . S
C2162 C2161 1.415 . S
C2163 H2139 0.951 . S
C2163 C2164 1.366 . S
C2163 C2165 1.388 . S
C2164 C2163 1.366 . S
C2164 C2168 1.385 . S
C2165 H2140 0.951 . S
C2165 C2163 1.388 . S
C2165 C2166 1.366 . S
C2166 C2165 1.366 . S
C2166 C2167 1.414 . S
C2166 C2169 1.499 . S
C2167 H2141 0.950 . S
C2167 C2166 1.414 . S
C2167 C2168 1.374 . S
C2168 H2142 0.950 . S
C2168 C2164 1.385 . S
C2168 C2167 1.374 . S
C2169 C2166 1.499 . S
C2169 C2170 1.373 . S
C2169 C2171 1.389 . S
C2170 H2143 0.950 . S
C2170 C2156 1.377 . S
C2170 C2169 1.373 . S
C2171 C2155 1.377 . S
C2171 C2169 1.389 . S
C2171 C2172 1.524 . S
C2172 C2171 1.524 . S
C2172 C2173 1.397 . S
C2172 C2177 1.363 . S
C2173 H2144 0.950 . S
C2173 C2172 1.397 . S
C2173 C2174 1.334 . S
C2174 H2145 0.950 . S
C2174 C2173 1.334 . S
C2174 C2175 1.287 . S
C2175 C2174 1.287 . S
C2175 C2176 1.524 . S
C2175 H2178 0.999 . S
C2176 H2146 0.950 . S
C2176 C2175 1.524 . S
C2176 C2177 1.415 . S
C2177 H2147 0.950 . S
C2177 C2172 1.363 . S
C2177 C2176 1.415 . S
H2178 C2175 0.999 . S
H2179 C2160 0.913 . S
H2180 C2198 0.951 . S
H2181 C2200 0.951 . S
H2182 C2202 0.950 . S
H2183 C2203 0.950 . S
H2184 C2205 0.950 . S
H2185 C2208 0.950 . S
H2186 C2209 0.950 . S
H2187 C2211 0.950 . S
H2188 C2212 0.953 . S
H2189 C2213 0.951 . S
H2190 C2215 0.951 . S
H2191 C2217 0.950 . S
H2192 C2218 0.950 . S
H2193 C2220 0.950 . S
H2194 C2223 0.950 . S
H2195 C2224 0.950 . S
H2196 C2226 0.950 . S
H2197 C2227 0.953 . S
C2198 H2180 0.951 . S
C2198 C2199 1.366 . S
C2198 C2200 1.388 . S
C2199 C2198 1.366 . S
C2199 C2203 1.385 . S
C2200 H2181 0.951 . S
C2200 C2198 1.388 . S
C2200 C2201 1.366 . S
C2201 C2200 1.366 . S
C2201 C2202 1.414 . S
C2201 C2204 1.499 . S
C2202 H2182 0.950 . S
C2202 C2201 1.414 . S
C2202 C2203 1.374 . S
C2203 H2183 0.950 . S
C2203 C2199 1.385 . S
C2203 C2202 1.374 . S
C2204 C2201 1.499 . S
C2204 C2205 1.373 . S
C2204 C2206 1.394 . S
C2205 H2184 0.950 . S
C2205 C2204 1.373 . S
C2205 C2221 1.372 1_656 S
C2206 C2204 1.394 . S
C2206 C2207 1.524 1_556 S
C2206 C2220 1.372 1_656 S
C2207 C2206 1.524 1_554 S
C2207 C2208 1.397 . S
C2207 C2212 1.363 . S
C2208 H2185 0.950 . S
C2208 C2207 1.397 . S
C2208 C2209 1.334 . S
C2209 H2186 0.950 . S
C2209 C2208 1.334 . S
C2209 C2210 1.287 . S
C2210 C2209 1.287 . S
C2210 C2211 1.524 . S
C2210 H2229 0.913 . S
C2211 H2187 0.950 . S
C2211 C2210 1.524 . S
C2211 C2212 1.415 . S
C2212 H2188 0.953 . S
C2212 C2207 1.363 . S
C2212 C2211 1.415 . S
C2213 H2189 0.951 . S
C2213 C2214 1.366 . S
C2213 C2215 1.388 . S
C2214 C2213 1.366 . S
C2214 C2218 1.385 . S
C2215 H2190 0.951 . S
C2215 C2213 1.388 . S
C2215 C2216 1.366 . S
C2216 C2215 1.366 . S
C2216 C2217 1.414 . S
C2216 C2219 1.499 . S
C2217 H2191 0.950 . S
C2217 C2216 1.414 . S
C2217 C2218 1.374 . S
C2218 H2192 0.950 . S
C2218 C2214 1.385 . S
C2218 C2217 1.374 . S
C2219 C2216 1.499 . S
C2219 C2220 1.373 . S
C2219 C2221 1.394 . S
C2220 H2193 0.950 . S
C2220 C2206 1.372 1_454 S
C2220 C2219 1.373 . S
C2221 C2205 1.372 1_454 S
C2221 C2219 1.394 . S
C2221 C2222 1.524 1_554 S
C2222 C2221 1.524 1_556 S
C2222 C2223 1.397 . S
C2222 C2227 1.363 . S
C2223 H2194 0.950 . S
C2223 C2222 1.397 . S
C2223 C2224 1.334 . S
C2224 H2195 0.950 . S
C2224 C2223 1.334 . S
C2224 C2225 1.287 . S
C2225 C2224 1.287 . S
C2225 C2226 1.524 . S
C2225 H2228 0.999 . S
C2226 H2196 0.950 . S
C2226 C2225 1.524 . S
C2226 C2227 1.415 . S
C2227 H2197 0.953 . S
C2227 C2222 1.363 . S
C2227 C2226 1.415 . S
H2228 C2225 0.999 . S
H2229 C2210 0.913 . S
H2230 C2248 0.951 . S
H2231 C2250 0.951 . S
H2232 C2252 0.950 . S
H2233 C2253 0.950 . S
H2234 C2255 0.950 . S
H2235 C2258 0.950 . S
H2236 C2259 0.950 . S
H2237 C2261 0.950 . S
H2238 C2262 0.950 . S
H2239 C2263 0.951 . S
H2240 C2265 0.951 . S
H2241 C2267 0.950 . S
H2242 C2268 0.950 . S
H2243 C2270 0.950 . S
H2244 C2273 0.950 . S
H2245 C2274 0.950 . S
H2246 C2276 0.950 . S
H2247 C2277 0.950 . S
C2248 H2230 0.951 . S
C2248 C2249 1.366 . S
C2248 C2250 1.388 . S
C2249 C2248 1.366 . S
C2249 C2253 1.385 . S
C2250 H2231 0.951 . S
C2250 C2248 1.388 . S
C2250 C2251 1.366 . S
C2251 C2250 1.366 . S
C2251 C2252 1.414 . S
C2251 C2254 1.499 . S
C2252 H2232 0.950 . S
C2252 C2251 1.414 . S
C2252 C2253 1.374 . S
C2253 H2233 0.950 . S
C2253 C2249 1.385 . S
C2253 C2252 1.374 . S
C2254 C2251 1.499 . S
C2254 C2255 1.373 1_565 S
C2254 C2256 1.389 . S
C2255 H2234 0.950 . S
C2255 C2254 1.373 1_545 S
C2255 C2271 1.377 . S
C2256 C2254 1.389 . S
C2256 C2257 1.524 . S
C2256 C2270 1.377 . S
C2257 C2256 1.524 . S
C2257 C2258 1.397 . S
C2257 C2262 1.363 . S
C2258 H2235 0.950 . S
C2258 C2257 1.397 . S
C2258 C2259 1.334 . S
C2259 H2236 0.950 . S
C2259 C2258 1.334 . S
C2259 C2260 1.287 . S
C2260 C2259 1.287 . S
C2260 C2261 1.524 . S
C2260 H2279 0.913 . S
C2261 H2237 0.950 . S
C2261 C2260 1.524 . S
C2261 C2262 1.415 . S
C2262 H2238 0.950 . S
C2262 C2257 1.363 . S
C2262 C2261 1.415 . S
C2263 H2239 0.951 . S
C2263 C2264 1.366 . S
C2263 C2265 1.388 . S
C2264 C2263 1.366 . S
C2264 C2268 1.385 . S
C2265 H2240 0.951 . S
C2265 C2263 1.388 . S
C2265 C2266 1.366 . S
C2266 C2265 1.366 . S
C2266 C2267 1.414 . S
C2266 C2269 1.499 . S
C2267 H2241 0.950 . S
C2267 C2266 1.414 . S
C2267 C2268 1.374 . S
C2268 H2242 0.950 . S
C2268 C2264 1.385 . S
C2268 C2267 1.374 . S
C2269 C2266 1.499 . S
C2269 C2270 1.373 1_545 S
C2269 C2271 1.389 . S
C2270 H2243 0.950 . S
C2270 C2256 1.377 . S
C2270 C2269 1.373 1_565 S
C2271 C2255 1.377 . S
C2271 C2269 1.389 . S
C2271 C2272 1.524 . S
C2272 C2271 1.524 . S
C2272 C2273 1.397 . S
C2272 C2277 1.363 . S
C2273 H2244 0.950 . S
C2273 C2272 1.397 . S
C2273 C2274 1.334 . S
C2274 H2245 0.950 . S
C2274 C2273 1.334 . S
C2274 C2275 1.287 . S
C2275 C2274 1.287 . S
C2275 C2276 1.524 . S
C2275 H2278 0.999 . S
C2276 H2246 0.950 . S
C2276 C2275 1.524 . S
C2276 C2277 1.415 . S
C2277 H2247 0.950 . S
C2277 C2272 1.363 . S
C2277 C2276 1.415 . S
H2278 C2275 0.999 . S
H2279 C2260 0.913 . S
C499 C172 1.226 . S
C514 C29 1.235 . S
C549 C212 1.227 . S
C564 C69 1.234 . S
C599 C109 1.235 . S
C614 C12 1.226 . S
C649 C149 1.234 . S
C664 C52 1.226 . S
C699 C189 1.235 . S
C714 C92 1.226 . S
C749 C132 1.226 . S
C764 C229 1.235 . S
C799 C332 1.226 . S
C814 C269 1.234 . S
C849 C309 1.235 . S
C864 C372 1.226 . S
C899 C412 1.226 . S
C914 C349 1.234 . S
C949 C389 1.234 . S
C964 C452 1.227 . S
C999 C429 1.235 . S
C1014 C252 1.226 . S
C1049 C292 1.227 . S
C1064 C469 1.234 . S
C1099 C191 1.721 . S
C1114 C8 1.687 . S
C1149 C48 1.686 . S
C1164 C231 1.720 . S
C1199 C88 1.686 . S
C1214 C31 1.721 . S
C1249 C128 1.686 . S
C1264 C71 1.720 . S
C1299 C111 1.720 . S
C1314 C168 1.686 . S
C1349 C151 1.721 . S
C1364 C208 1.687 . S
C1399 C351 1.720 . S
C1414 C248 1.686 . S
C1449 C288 1.686 . S
C1464 C391 1.721 . S
C1499 C328 1.686 . S
C1514 C431 1.721 . S
C1549 C471 1.721 . S
C1564 C368 1.687 . S
C1599 C408 1.687 . S
C1614 C271 1.721 . S
C1649 C311 1.720 . S
C1664 C448 1.686 . S
C1699 C402 1.667 . S
C1714 C2 1.668 . S
C1749 C42 1.667 . S
C1764 C442 1.667 . S
C1799 C82 1.668 . S
C1814 C242 1.668 . S
C1849 C122 1.668 . S
C1864 C282 1.667 . S
C1899 C162 1.667 . S
C1914 C322 1.667 . S
C1949 C362 1.667 . S
C1964 C202 1.667 . S
C1999 C377 2.075 . S
C2014 C17 2.075 . S
C2049 C417 2.075 . S
C2064 C57 2.075 . S
C2099 C97 2.075 . S
C2114 C457 2.075 . S
C2149 C137 2.075 . S
C2164 C257 2.075 . S
C2199 C297 2.075 . S
C2214 C177 2.075 . S
C2249 C337 2.075 . S
C2264 C217 2.075 . S
