# Generated by pormake.
# Topology gis, (4)-cn, num edge types: 1
# Building blocks:
#     Node 0, Type 0, BuildingBlock: UXUYUI_clean_sbu_0, # of connection points: 4
#     Node 1, Type 0, BuildingBlock: UXUYUI_clean_sbu_0, # of connection points: 4
#     Node 2, Type 0, BuildingBlock: UXUYUI_clean_sbu_0, # of connection points: 4
#     Node 3, Type 0, BuildingBlock: UXUYUI_clean_sbu_0, # of connection points: 4
#     Node 4, Type 0, BuildingBlock: UXUYUI_clean_sbu_0, # of connection points: 4
#     Node 5, Type 0, BuildingBlock: UXUYUI_clean_sbu_0, # of connection points: 4
#     Node 6, Type 0, BuildingBlock: UXUYUI_clean_sbu_0, # of connection points: 4
#     Node 7, Type 0, BuildingBlock: UXUYUI_clean_sbu_0, # of connection points: 4
#     Node 8, Type 0, BuildingBlock: UXUYUI_clean_sbu_0, # of connection points: 4
#     Node 9, Type 0, BuildingBlock: UXUYUI_clean_sbu_0, # of connection points: 4
#     Node 10, Type 0, BuildingBlock: UXUYUI_clean_sbu_0, # of connection points: 4
#     Node 11, Type 0, BuildingBlock: UXUYUI_clean_sbu_0, # of connection points: 4
#     Node 12, Type 0, BuildingBlock: UXUYUI_clean_sbu_0, # of connection points: 4
#     Node 13, Type 0, BuildingBlock: UXUYUI_clean_sbu_0, # of connection points: 4
#     Node 14, Type 0, BuildingBlock: UXUYUI_clean_sbu_0, # of connection points: 4
#     Node 15, Type 0, BuildingBlock: UXUYUI_clean_sbu_0, # of connection points: 4
#     Edge 16, Type (0, 0), BuildingBlock: TEMPAE_clean_linker_10, # of connection points: 2
#     Edge 17, Type (0, 0), BuildingBlock: TEMPAE_clean_linker_10, # of connection points: 2
#     Edge 18, Type (0, 0), BuildingBlock: TEMPAE_clean_linker_10, # of connection points: 2
#     Edge 19, Type (0, 0), BuildingBlock: TEMPAE_clean_linker_10, # of connection points: 2
#     Edge 20, Type (0, 0), BuildingBlock: TEMPAE_clean_linker_10, # of connection points: 2
#     Edge 21, Type (0, 0), BuildingBlock: TEMPAE_clean_linker_10, # of connection points: 2
#     Edge 22, Type (0, 0), BuildingBlock: TEMPAE_clean_linker_10, # of connection points: 2
#     Edge 23, Type (0, 0), BuildingBlock: TEMPAE_clean_linker_10, # of connection points: 2
#     Edge 24, Type (0, 0), BuildingBlock: TEMPAE_clean_linker_10, # of connection points: 2
#     Edge 25, Type (0, 0), BuildingBlock: TEMPAE_clean_linker_10, # of connection points: 2
#     Edge 26, Type (0, 0), BuildingBlock: TEMPAE_clean_linker_10, # of connection points: 2
#     Edge 27, Type (0, 0), BuildingBlock: TEMPAE_clean_linker_10, # of connection points: 2
#     Edge 28, Type (0, 0), BuildingBlock: TEMPAE_clean_linker_10, # of connection points: 2
#     Edge 29, Type (0, 0), BuildingBlock: TEMPAE_clean_linker_10, # of connection points: 2
#     Edge 30, Type (0, 0), BuildingBlock: TEMPAE_clean_linker_10, # of connection points: 2
#     Edge 31, Type (0, 0), BuildingBlock: TEMPAE_clean_linker_10, # of connection points: 2
#     Edge 32, Type (0, 0), BuildingBlock: TEMPAE_clean_linker_10, # of connection points: 2
#     Edge 33, Type (0, 0), BuildingBlock: TEMPAE_clean_linker_10, # of connection points: 2
#     Edge 34, Type (0, 0), BuildingBlock: TEMPAE_clean_linker_10, # of connection points: 2
#     Edge 35, Type (0, 0), BuildingBlock: TEMPAE_clean_linker_10, # of connection points: 2
#     Edge 36, Type (0, 0), BuildingBlock: TEMPAE_clean_linker_10, # of connection points: 2
#     Edge 37, Type (0, 0), BuildingBlock: TEMPAE_clean_linker_10, # of connection points: 2
#     Edge 38, Type (0, 0), BuildingBlock: TEMPAE_clean_linker_10, # of connection points: 2
#     Edge 39, Type (0, 0), BuildingBlock: TEMPAE_clean_linker_10, # of connection points: 2
#     Edge 40, Type (0, 0), BuildingBlock: TEMPAE_clean_linker_10, # of connection points: 2
#     Edge 41, Type (0, 0), BuildingBlock: TEMPAE_clean_linker_10, # of connection points: 2
#     Edge 42, Type (0, 0), BuildingBlock: TEMPAE_clean_linker_10, # of connection points: 2
#     Edge 43, Type (0, 0), BuildingBlock: TEMPAE_clean_linker_10, # of connection points: 2
#     Edge 44, Type (0, 0), BuildingBlock: TEMPAE_clean_linker_10, # of connection points: 2
#     Edge 45, Type (0, 0), BuildingBlock: TEMPAE_clean_linker_10, # of connection points: 2
#     Edge 46, Type (0, 0), BuildingBlock: TEMPAE_clean_linker_10, # of connection points: 2
#     Edge 47, Type (0, 0), BuildingBlock: TEMPAE_clean_linker_10, # of connection points: 2
# Relax obj value: 0.245
# Max RMSD: 0.177
# Mean RMSD: 0.176
data_MOF--net-gis--node1-UXUYUI_clean_sbu_0--edge1-TEMPAE_clean_linker_10
_symmetry_space_group_name_H-M    P1
_symmetry_Int_Tables_number       1
_symmetry_cell_setting            triclinic
loop_
_symmetry_equiv_pos_as_xyz
'x, y, z'
_cell_length_a     67.709275
_cell_length_b     67.731195
_cell_length_c     72.210511
_cell_angle_alpha  89.976204
_cell_angle_beta   89.99469
_cell_angle_gamma 90.033563
loop_
_atom_site_label
_atom_site_type_symbol
_atom_site_fract_x
_atom_site_fract_y
_atom_site_fract_z
_atom_type_partial_charge
Li0 Li 0.16678 0.60494 0.11545 0.0
Li1 Li 0.17298 0.57595 0.13484 0.0
Li2 Li 0.17103 0.57296 0.10027 0.0
Li3 Li 0.14124 0.5779 0.11903 0.0
C4 C 0.207 0.59832 0.11157 0.0
N5 N 0.24032 0.62026 0.10343 0.0
C6 C 0.22075 0.60261 0.12544 0.0
C7 C 0.21037 0.60491 0.09351 0.0
C8 C 0.23745 0.6138 0.12107 0.0
C9 C 0.22725 0.61605 0.08968 0.0
C10 C 0.14937 0.60026 0.1562 0.0
C11 C 0.13654 0.59114 0.18616 0.0
N12 N 0.14413 0.60804 0.19344 0.0
C13 C 0.15679 0.61768 0.16391 0.0
C14 C 0.13894 0.587 0.16735 0.0
C15 C 0.15409 0.62129 0.18279 0.0
C16 C 0.15781 0.64291 0.10238 0.0
N17 N 0.1705 0.63258 0.11325 0.0
C18 C 0.18747 0.66216 0.12169 0.0
C19 C 0.18507 0.64175 0.12293 0.0
C20 C 0.17459 0.67325 0.11053 0.0
C21 C 0.15963 0.66335 0.10075 0.0
H22 H 0.14604 0.63532 0.0952 0.0
H23 H 0.19459 0.63327 0.13191 0.0
C24 C 0.18916 0.54787 0.15982 0.0
N25 N 0.18626 0.56741 0.15639 0.0
C26 C 0.19934 0.5419 0.1757 0.0
C27 C 0.20333 0.57627 0.18403 0.0
C28 C 0.19335 0.58154 0.16794 0.0
C29 C 0.2064 0.55624 0.18806 0.0
H30 H 0.18375 0.53696 0.15016 0.0
H31 H 0.19152 0.59694 0.1645 0.0
C32 C 0.14509 0.59521 0.07824 0.0
N33 N 0.13614 0.6005 0.04123 0.0
C34 C 0.12794 0.58692 0.07077 0.0
C35 C 0.1575 0.60649 0.06695 0.0
C36 C 0.12373 0.58967 0.05201 0.0
C37 C 0.15277 0.60892 0.04825 0.0
C38 C 0.1498 0.53812 0.12252 0.0
C39 C 0.14721 0.5247 0.10801 0.0
C40 C 0.14205 0.5338 0.13999 0.0
C41 C 0.13652 0.50737 0.11114 0.0
C42 C 0.13145 0.51631 0.14257 0.0
N43 N 0.1289 0.50358 0.12821 0.0
C44 C 0.20088 0.55685 0.07726 0.0
C45 C 0.16801 0.55309 0.0665 0.0
C46 C 0.20816 0.54682 0.0618 0.0
N47 N 0.18113 0.55989 0.0792 0.0
C48 C 0.1746 0.5432 0.05081 0.0
C49 C 0.1949 0.53999 0.04831 0.0
H50 H 0.21095 0.56202 0.08782 0.0
H51 H 0.15237 0.55494 0.06877 0.0
C52 C 0.10276 0.58574 0.13095 0.0
N53 N 0.11371 0.5729 0.12081 0.0
C54 C 0.08233 0.58345 0.13219 0.0
C55 C 0.08479 0.5547 0.1125 0.0
C56 C 0.10518 0.55764 0.11156 0.0
C57 C 0.07306 0.56778 0.12284 0.0
H58 H 0.10986 0.59803 0.1378 0.0
H59 H 0.1141 0.54799 0.10312 0.0
O60 O 0.1905 0.58748 0.11564 0.0
O61 O 0.15201 0.59642 0.13776 0.0
O62 O 0.14945 0.59261 0.09659 0.0
O63 O 0.16013 0.55522 0.11967 0.0
H64 H 0.2185 0.59745 0.13945 0.0
H65 H 0.20017 0.60131 0.08253 0.0
H66 H 0.24814 0.61735 0.13169 0.0
H67 H 0.23 0.62129 0.07577 0.0
H68 H 0.12859 0.58095 0.19497 0.0
H69 H 0.1647 0.62821 0.15545 0.0
H70 H 0.13265 0.57373 0.16152 0.0
H71 H 0.15991 0.63462 0.18897 0.0
H72 H 0.19923 0.66918 0.12944 0.0
H73 H 0.14911 0.67136 0.09232 0.0
H74 H 0.2016 0.52632 0.17833 0.0
H75 H 0.20901 0.58775 0.19301 0.0
H76 H 0.11806 0.57832 0.07934 0.0
H77 H 0.17052 0.61348 0.07258 0.0
H78 H 0.11058 0.58321 0.04603 0.0
H79 H 0.16228 0.61756 0.03935 0.0
H80 H 0.15329 0.52768 0.09446 0.0
H81 H 0.1443 0.54376 0.15147 0.0
H82 H 0.13429 0.49693 0.1 0.0
H83 H 0.1253 0.51283 0.15601 0.0
H84 H 0.2239 0.54446 0.06038 0.0
H85 H 0.16387 0.53763 0.04098 0.0
H86 H 0.07386 0.59417 0.13996 0.0
H87 H 0.0783 0.54239 0.10512 0.0
Li88 Li 0.64472 0.91551 0.36732 0.0
Li89 Li 0.67342 0.92234 0.38808 0.0
Li90 Li 0.67788 0.9237 0.35474 0.0
Li91 Li 0.67305 0.89325 0.37015 0.0
C92 C 0.66463 0.95872 0.36424 0.0
N93 N 0.67549 0.99516 0.35036 0.0
C94 C 0.67945 0.96969 0.37295 0.0
C95 C 0.65533 0.96627 0.34847 0.0
C96 C 0.68471 0.98809 0.36573 0.0
C97 C 0.66104 0.98472 0.34167 0.0
C98 C 0.64843 0.8999 0.40734 0.0
C99 C 0.65557 0.89127 0.43904 0.0
N100 N 0.63816 0.89952 0.44436 0.0
C101 C 0.63054 0.90816 0.41309 0.0
C102 C 0.66099 0.89124 0.42038 0.0
C103 C 0.62564 0.90786 0.43188 0.0
C104 C 0.60655 0.90031 0.36577 0.0
N105 N 0.61711 0.91731 0.36451 0.0
C106 C 0.58764 0.93614 0.36036 0.0
C107 C 0.60816 0.93505 0.36195 0.0
C108 C 0.5763 0.91879 0.36155 0.0
C109 C 0.58603 0.9007 0.36429 0.0
H110 H 0.61409 0.8865 0.36826 0.0
H111 H 0.61693 0.94837 0.36132 0.0
C112 C 0.6993 0.93424 0.41683 0.0
N113 N 0.68032 0.93443 0.41067 0.0
C114 C 0.70427 0.94391 0.43326 0.0
C115 C 0.67005 0.95356 0.43662 0.0
C116 C 0.66583 0.94405 0.42001 0.0
C117 C 0.68948 0.95358 0.44336 0.0
H118 H 0.7106 0.92686 0.40886 0.0
H119 H 0.65103 0.94449 0.41442 0.0
C120 C 0.662 0.88683 0.33558 0.0
N121 N 0.6672 0.85405 0.31336 0.0
C122 C 0.67855 0.88543 0.32408 0.0
C123 C 0.64805 0.87162 0.33571 0.0
C124 C 0.6809 0.86874 0.31294 0.0
C125 C 0.65098 0.85514 0.32442 0.0
C126 C 0.71158 0.89997 0.37379 0.0
C127 C 0.72398 0.89863 0.35837 0.0
C128 C 0.71587 0.88904 0.3897 0.0
C129 C 0.74041 0.88618 0.35908 0.0
C130 C 0.73241 0.87672 0.38984 0.0
N131 N 0.74423 0.87555 0.37466 0.0
C132 C 0.70846 0.94619 0.33907 0.0
C133 C 0.68224 0.93831 0.31856 0.0
C134 C 0.71907 0.955 0.32472 0.0
N135 N 0.69072 0.93759 0.33559 0.0
C136 C 0.69228 0.94703 0.30383 0.0
C137 C 0.71118 0.95501 0.30674 0.0
H138 H 0.71465 0.94558 0.35287 0.0
H139 H 0.668 0.93148 0.31633 0.0
C140 C 0.66638 0.85444 0.38138 0.0
N141 N 0.67855 0.86545 0.37054 0.0
C142 C 0.6683 0.83397 0.38199 0.0
C143 C 0.69531 0.83637 0.36025 0.0
C144 C 0.6928 0.85683 0.36 0.0
C145 C 0.6829 0.82465 0.37131 0.0
H146 H 0.65483 0.8615 0.38927 0.0
H147 H 0.70201 0.86573 0.35112 0.0
O148 O 0.65967 0.94042 0.37078 0.0
O149 O 0.65363 0.90026 0.38904 0.0
O150 O 0.65959 0.90292 0.3468 0.0
O151 O 0.69551 0.9122 0.37342 0.0
H152 H 0.68695 0.96398 0.38504 0.0
H153 H 0.64409 0.95782 0.34136 0.0
H154 H 0.69619 0.99672 0.37229 0.0
H155 H 0.65407 0.9907 0.32941 0.0
H156 H 0.66519 0.88472 0.4493 0.0
H157 H 0.62065 0.91494 0.4032 0.0
H158 H 0.6748 0.88464 0.41612 0.0
H159 H 0.6119 0.91432 0.43655 0.0
H160 H 0.58073 0.95037 0.35819 0.0
H161 H 0.57784 0.88704 0.36569 0.0
H162 H 0.71944 0.94382 0.43804 0.0
H163 H 0.65836 0.96125 0.44389 0.0
H164 H 0.68963 0.89693 0.32397 0.0
H165 H 0.63521 0.87244 0.34458 0.0
H166 H 0.69369 0.8674 0.30405 0.0
H167 H 0.64036 0.84319 0.32447 0.0
H168 H 0.72085 0.90689 0.3459 0.0
H169 H 0.70648 0.88999 0.40178 0.0
H170 H 0.75008 0.8849 0.34721 0.0
H171 H 0.73585 0.86809 0.40203 0.0
H172 H 0.73355 0.96112 0.32751 0.0
H173 H 0.6858 0.94652 0.29012 0.0
H174 H 0.65807 0.82552 0.39037 0.0
H175 H 0.70679 0.82982 0.35181 0.0
Li176 Li 0.32987 0.42811 0.60597 0.0
Li177 Li 0.35968 0.42193 0.62431 0.0
Li178 Li 0.33357 0.39551 0.62074 0.0
Li179 Li 0.32851 0.42446 0.64039 0.0
C180 C 0.35469 0.40306 0.58381 0.0
N181 N 0.36304 0.39291 0.54758 0.0
C182 C 0.37166 0.41036 0.57516 0.0
C183 C 0.34219 0.39027 0.57415 0.0
C184 C 0.37556 0.40516 0.5568 0.0
C185 C 0.34661 0.3854 0.55581 0.0
C186 C 0.35347 0.46139 0.62753 0.0
C187 C 0.37562 0.48115 0.64598 0.0
N188 N 0.37774 0.49391 0.63157 0.0
C189 C 0.35571 0.4748 0.61296 0.0
C190 C 0.36335 0.46467 0.64423 0.0
C191 C 0.3681 0.49112 0.61526 0.0
C192 C 0.30076 0.44705 0.58386 0.0
N193 N 0.32013 0.44189 0.58512 0.0
C194 C 0.32722 0.4575 0.5563 0.0
C195 C 0.33334 0.44705 0.57185 0.0
C196 C 0.30732 0.46303 0.55451 0.0
C197 C 0.29396 0.45761 0.5685 0.0
H198 H 0.29065 0.44316 0.59487 0.0
H199 H 0.34874 0.4434 0.57352 0.0
C200 C 0.3981 0.41372 0.63628 0.0
N201 N 0.38736 0.42606 0.62539 0.0
C202 C 0.41864 0.4152 0.63673 0.0
C203 C 0.41667 0.44235 0.61504 0.0
C204 C 0.39618 0.44015 0.6148 0.0
C205 C 0.42813 0.42961 0.62596 0.0
H206 H 0.39073 0.40245 0.64433 0.0
H207 H 0.38736 0.44935 0.60582 0.0
C208 C 0.29317 0.40492 0.61551 0.0
N209 N 0.25846 0.38749 0.60374 0.0
C210 C 0.27785 0.40144 0.62808 0.0
C211 C 0.29072 0.39979 0.59692 0.0
C212 C 0.26045 0.39253 0.62187 0.0
C213 C 0.27309 0.39094 0.59124 0.0
C214 C 0.34934 0.39865 0.66137 0.0
C215 C 0.33995 0.38154 0.66771 0.0
C216 C 0.35929 0.41079 0.67392 0.0
C217 C 0.34031 0.37711 0.6866 0.0
C218 C 0.3593 0.40586 0.69271 0.0
N219 N 0.34986 0.38928 0.69861 0.0
C220 C 0.34466 0.35734 0.61075 0.0
C221 C 0.31288 0.35904 0.62443 0.0
C222 C 0.34316 0.33688 0.60916 0.0
N223 N 0.32961 0.36795 0.61821 0.0
C224 C 0.31072 0.3386 0.62307 0.0
C225 C 0.32604 0.32723 0.61543 0.0
H226 H 0.35796 0.36479 0.60627 0.0
H227 H 0.30138 0.3677 0.63081 0.0
C228 C 0.31565 0.45216 0.6674 0.0
N229 N 0.31564 0.43287 0.66219 0.0
C230 C 0.30567 0.45802 0.68342 0.0
C231 C 0.29599 0.42402 0.6883 0.0
C232 C 0.30589 0.4189 0.67212 0.0
C233 C 0.29581 0.44378 0.6941 0.0
H234 H 0.32323 0.46302 0.65903 0.0
H235 H 0.30563 0.4038 0.66733 0.0
O236 O 0.35072 0.40797 0.60183 0.0
O237 O 0.34151 0.44525 0.62548 0.0
O238 O 0.31034 0.41353 0.62142 0.0
O239 O 0.34899 0.40332 0.64294 0.0
H240 H 0.38163 0.42008 0.58248 0.0
H241 H 0.32936 0.38395 0.58077 0.0
H242 H 0.38855 0.41085 0.54989 0.0
H243 H 0.33702 0.37556 0.54816 0.0
H244 H 0.38345 0.4838 0.6588 0.0
H245 H 0.34802 0.47262 0.6 0.0
H246 H 0.36157 0.45459 0.65571 0.0
H247 H 0.37005 0.50157 0.60407 0.0
H248 H 0.33801 0.4612 0.54577 0.0
H249 H 0.27856 0.46183 0.56777 0.0
H250 H 0.42704 0.40514 0.64533 0.0
H251 H 0.42354 0.45343 0.60634 0.0
H252 H 0.2794 0.40548 0.64249 0.0
H253 H 0.30217 0.40286 0.58692 0.0
H254 H 0.24852 0.38965 0.63147 0.0
H255 H 0.27102 0.38688 0.57689 0.0
H256 H 0.33231 0.3719 0.65817 0.0
H257 H 0.36695 0.42386 0.66921 0.0
H258 H 0.33296 0.36401 0.69172 0.0
H259 H 0.36684 0.4152 0.70259 0.0
H260 H 0.3555 0.32866 0.60354 0.0
H261 H 0.29725 0.33179 0.62802 0.0
H262 H 0.30572 0.47342 0.68746 0.0
H263 H 0.28818 0.41271 0.69598 0.0
Li264 Li 0.83008 0.10588 0.87189 0.0
Li265 Li 0.82503 0.07513 0.85455 0.0
Li266 Li 0.8274 0.07497 0.88815 0.0
Li267 Li 0.85625 0.08107 0.86874 0.0
C268 C 0.79089 0.09939 0.87223 0.0
N269 N 0.75858 0.12421 0.8707 0.0
C270 C 0.77991 0.10097 0.85591 0.0
C271 C 0.78536 0.1103 0.88781 0.0
C272 C 0.76362 0.11362 0.85541 0.0
C273 C 0.76901 0.12282 0.88674 0.0
C274 C 0.85955 0.10307 0.83936 0.0
C275 C 0.88656 0.0964 0.81851 0.0
N276 N 0.89356 0.11497 0.8214 0.0
C277 C 0.86695 0.12212 0.84206 0.0
C278 C 0.86935 0.09012 0.82742 0.0
C279 C 0.88418 0.12785 0.83287 0.0
C280 C 0.83609 0.14409 0.88536 0.0
N281 N 0.82532 0.13349 0.87297 0.0
C282 C 0.80988 0.16286 0.86169 0.0
C283 C 0.81257 0.14243 0.86106 0.0
C284 C 0.82096 0.17411 0.87425 0.0
C285 C 0.83421 0.16457 0.88617 0.0
H286 H 0.84647 0.13669 0.89434 0.0
H287 H 0.80473 0.13376 0.85089 0.0
C288 C 0.79692 0.05084 0.8368 0.0
N289 N 0.81179 0.06399 0.83405 0.0
C290 C 0.7864 0.04335 0.82175 0.0
C291 C 0.8066 0.0633 0.80142 0.0
C292 C 0.81687 0.0702 0.81682 0.0
C293 C 0.79099 0.04982 0.80376 0.0
H294 H 0.793 0.04645 0.85073 0.0
H295 H 0.82849 0.08097 0.8151 0.0
C296 C 0.85159 0.09575 0.90954 0.0
N297 N 0.85831 0.09451 0.94725 0.0
C298 C 0.86843 0.0864 0.91648 0.0
C299 C 0.83827 0.10464 0.92174 0.0
C300 C 0.87154 0.0859 0.9356 0.0
C301 C 0.8419 0.10379 0.94076 0.0
C302 C 0.83579 0.03888 0.86327 0.0
C303 C 0.82267 0.02643 0.87261 0.0
C304 C 0.84367 0.033 0.84624 0.0
C305 C 0.81755 0.00832 0.86468 0.0
C306 C 0.83814 0.0148 0.83876 0.0
N307 N 0.8253 0.00294 0.84806 0.0
C308 C 0.79971 0.06393 0.91589 0.0
C309 C 0.8323 0.05159 0.91934 0.0
C310 C 0.79373 0.05422 0.93203 0.0
N311 N 0.81874 0.06251 0.91003 0.0
C312 C 0.82708 0.04197 0.93563 0.0
C313 C 0.8076 0.04325 0.94213 0.0
H314 H 0.78916 0.07242 0.90798 0.0
H315 H 0.84716 0.0503 0.91399 0.0
C316 C 0.89568 0.09332 0.87135 0.0
N317 N 0.88395 0.07769 0.86711 0.0
C318 C 0.91617 0.0915 0.87052 0.0
C319 C 0.91209 0.05746 0.86113 0.0
C320 C 0.89166 0.05996 0.86214 0.0
C321 C 0.92462 0.07336 0.86538 0.0
H322 H 0.88907 0.10717 0.8755 0.0
H323 H 0.88197 0.04774 0.85903 0.0
O324 O 0.8069 0.08712 0.87299 0.0
O325 O 0.84298 0.09701 0.8486 0.0
O326 O 0.8481 0.09611 0.89089 0.0
O327 O 0.84086 0.05674 0.87072 0.0
H328 H 0.78397 0.09265 0.84372 0.0
H329 H 0.79368 0.10921 0.90056 0.0
H330 H 0.75503 0.11506 0.84285 0.0
H331 H 0.76463 0.13144 0.89866 0.0
H332 H 0.89438 0.08649 0.80935 0.0
H333 H 0.85958 0.13232 0.85128 0.0
H334 H 0.86387 0.07529 0.82526 0.0
H335 H 0.89013 0.14251 0.83489 0.0
H336 H 0.79976 0.16988 0.85212 0.0
H337 H 0.84305 0.17289 0.89594 0.0
H338 H 0.77457 0.0329 0.82422 0.0
H339 H 0.81035 0.06914 0.78791 0.0
H340 H 0.87885 0.07939 0.90723 0.0
H341 H 0.82522 0.112 0.91657 0.0
H342 H 0.88444 0.0786 0.94119 0.0
H343 H 0.83165 0.1105 0.95038 0.0
H344 H 0.81639 0.03073 0.88577 0.0
H345 H 0.8537 0.04253 0.83874 0.0
H346 H 0.80735 -0.00143 0.87172 0.0
H347 H 0.844 0.01014 0.82553 0.0
H348 H 0.77855 0.05536 0.93663 0.0
H349 H 0.83806 0.03329 0.9429 0.0
H350 H 0.92529 0.10403 0.87421 0.0
H351 H 0.918 0.04328 0.85698 0.0
Li352 Li 0.14236 0.41869 0.87012 0.0
Li353 Li 0.17247 0.42205 0.88728 0.0
Li354 Li 0.17287 0.42354 0.85416 0.0
Li355 Li 0.16675 0.39283 0.86942 0.0
C356 C 0.15185 0.4576 0.8615 0.0
N357 N 0.13582 0.48868 0.84177 0.0
C358 C 0.15538 0.47705 0.86705 0.0
C359 C 0.14011 0.45397 0.84594 0.0
C360 C 0.14717 0.49256 0.85689 0.0
C361 C 0.13216 0.46987 0.83615 0.0
C362 C 0.14028 0.40612 0.90639 0.0
C363 C 0.12065 0.39505 0.93226 0.0
N364 N 0.1178 0.41414 0.93742 0.0
C365 C 0.13715 0.42564 0.91195 0.0
C366 C 0.13197 0.39069 0.91661 0.0
C367 C 0.12575 0.42939 0.92768 0.0
C368 C 0.10352 0.40902 0.86165 0.0
N369 N 0.1147 0.42313 0.86994 0.0
C370 C 0.08593 0.44178 0.87767 0.0
C371 C 0.10641 0.43936 0.87782 0.0
C372 C 0.074 0.42743 0.86918 0.0
C373 C 0.08303 0.41092 0.86104 0.0
H374 H 0.11056 0.39622 0.85562 0.0
H375 H 0.11568 0.45041 0.88426 0.0
C376 C 0.19207 0.45103 0.90732 0.0
N377 N 0.18428 0.43263 0.9088 0.0
C378 C 0.19947 0.46059 0.92294 0.0
C379 C 0.19156 0.43162 0.94111 0.0
C380 C 0.18424 0.42266 0.92514 0.0
C381 C 0.19886 0.45102 0.9402 0.0
H382 H 0.19193 0.45851 0.89409 0.0
H383 H 0.17799 0.408 0.92591 0.0
C384 C 0.1568 0.39382 0.83247 0.0
N385 N 0.1664 0.37334 0.80063 0.0
C386 C 0.17645 0.38877 0.82883 0.0
C387 C 0.14206 0.38846 0.81991 0.0
C388 C 0.18099 0.37841 0.81266 0.0
C389 C 0.1472 0.37811 0.80389 0.0
C390 C 0.2055 0.39946 0.88075 0.0
C391 C 0.22545 0.40158 0.8762 0.0
C392 C 0.20013 0.3877 0.89586 0.0
C393 C 0.23971 0.39195 0.88687 0.0
C394 C 0.21482 0.3783 0.90618 0.0
N395 N 0.23414 0.38061 0.90152 0.0
C396 C 0.20473 0.44049 0.8357 0.0
C397 C 0.17596 0.43762 0.81719 0.0
C398 C 0.2156 0.44718 0.82055 0.0
N399 N 0.18545 0.43546 0.83364 0.0
C400 C 0.1862 0.44443 0.8017 0.0
C401 C 0.20644 0.4488 0.80315 0.0
H402 H 0.21184 0.4386 0.849 0.0
H403 H 0.16062 0.43342 0.8159 0.0
C404 C 0.15274 0.35455 0.87243 0.0
N405 N 0.16934 0.36498 0.86841 0.0
C406 C 0.15317 0.33397 0.87252 0.0
C407 C 0.1878 0.33527 0.86433 0.0
C408 C 0.18662 0.35584 0.8641 0.0
C409 C 0.17092 0.32415 0.86862 0.0
H410 H 0.13921 0.36229 0.87569 0.0
H411 H 0.19952 0.36447 0.8606 0.0
O412 O 0.15981 0.44233 0.87142 0.0
O413 O 0.15139 0.40196 0.89105 0.0
O414 O 0.15188 0.40404 0.84816 0.0
O415 O 0.19145 0.4089 0.87038 0.0
H416 H 0.16438 0.48012 0.8791 0.0
H417 H 0.1371 0.43905 0.84146 0.0
H418 H 0.1498 0.50768 0.86102 0.0
H419 H 0.12306 0.46726 0.82408 0.0
H420 H 0.11413 0.38324 0.9403 0.0
H421 H 0.14348 0.43779 0.90426 0.0
H422 H 0.13427 0.37549 0.91249 0.0
H423 H 0.12323 0.44442 0.93214 0.0
H424 H 0.0795 0.45478 0.88398 0.0
H425 H 0.07432 0.3994 0.85459 0.0
H426 H 0.20471 0.47564 0.92166 0.0
H427 H 0.191 0.42367 0.95411 0.0
H428 H 0.18811 0.39284 0.83829 0.0
H429 H 0.12679 0.39231 0.8225 0.0
H430 H 0.19613 0.37443 0.80967 0.0
H431 H 0.13593 0.37387 0.79404 0.0
H432 H 0.22989 0.41057 0.86452 0.0
H433 H 0.18479 0.3857 0.89953 0.0
H434 H 0.2552 0.39347 0.8835 0.0
H435 H 0.21085 0.36916 0.91789 0.0
H436 H 0.23121 0.45011 0.82228 0.0
H437 H 0.17849 0.4457 0.78861 0.0
H438 H 0.13989 0.32583 0.87596 0.0
H439 H 0.20167 0.32811 0.86107 0.0
Li440 Li 0.82421 0.92204 0.10472 0.0
Li441 Li 0.85316 0.91674 0.12428 0.0
Li442 Li 0.82681 0.89043 0.12068 0.0
Li443 Li 0.82077 0.92027 0.13915 0.0
C444 C 0.84889 0.8989 0.08358 0.0
N445 N 0.85627 0.89366 0.04627 0.0
C446 C 0.86551 0.90752 0.07542 0.0
C447 C 0.83625 0.88727 0.07285 0.0
C448 C 0.86892 0.9048 0.05651 0.0
C449 C 0.84018 0.88489 0.05399 0.0
C450 C 0.8451 0.95655 0.12931 0.0
C451 C 0.86097 0.9759 0.15307 0.0
N452 N 0.86527 0.99003 0.1403 0.0
C453 C 0.8495 0.97135 0.11646 0.0
C454 C 0.85073 0.95891 0.14779 0.0
C455 C 0.85978 0.98813 0.12227 0.0
C456 C 0.79633 0.93685 0.07869 0.0
N457 N 0.81579 0.93517 0.08309 0.0
C458 C 0.82511 0.9537 0.05644 0.0
C459 C 0.83008 0.94358 0.07253 0.0
C460 C 0.80519 0.95553 0.0514 0.0
C461 C 0.79064 0.94713 0.06277 0.0
H462 H 0.78524 0.93046 0.08762 0.0
H463 H 0.84534 0.94268 0.07679 0.0
C464 C 0.89155 0.90865 0.13694 0.0
N465 N 0.88069 0.92122 0.1264 0.0
C466 C 0.91198 0.91097 0.13823 0.0
C467 C 0.90967 0.93907 0.11767 0.0
C468 C 0.88929 0.93617 0.11677 0.0
C469 C 0.92131 0.9263 0.12845 0.0
H470 H 0.88438 0.89658 0.14408 0.0
H471 H 0.88038 0.9456 0.10807 0.0
C472 C 0.78662 0.89832 0.1167 0.0
N473 N 0.75223 0.87724 0.11083 0.0
C474 C 0.77281 0.89622 0.13096 0.0
C475 C 0.7828 0.88995 0.09938 0.0
C476 C 0.75555 0.88544 0.12774 0.0
C477 C 0.76537 0.87927 0.09671 0.0
C478 C 0.84368 0.89439 0.16139 0.0
C479 C 0.83525 0.87711 0.16844 0.0
C480 C 0.85529 0.90624 0.1729 0.0
C481 C 0.83817 0.87223 0.18704 0.0
C482 C 0.85788 0.90085 0.19142 0.0
N483 N 0.84931 0.88411 0.19805 0.0
C484 C 0.8372 0.85205 0.11073 0.0
C485 C 0.80675 0.85386 0.12686 0.0
C486 C 0.83581 0.83153 0.10983 0.0
N487 N 0.82278 0.86274 0.11914 0.0
C488 C 0.80462 0.83338 0.12604 0.0
C489 C 0.81937 0.822 0.11758 0.0
H490 H 0.84993 0.85948 0.10497 0.0
H491 H 0.79586 0.86256 0.13408 0.0
C492 C 0.80249 0.94973 0.16109 0.0
N493 N 0.80685 0.93017 0.15984 0.0
C494 C 0.79157 0.95685 0.17608 0.0
C495 C 0.78977 0.92352 0.18801 0.0
C496 C 0.80058 0.91709 0.1728 0.0
C497 C 0.78498 0.94362 0.18973 0.0
H498 H 0.80724 0.95974 0.15031 0.0
H499 H 0.8036 0.90156 0.17114 0.0
O500 O 0.84522 0.90156 0.10204 0.0
O501 O 0.83515 0.93997 0.12383 0.0
O502 O 0.80366 0.9087 0.11967 0.0
O503 O 0.84102 0.89932 0.14318 0.0
H504 H 0.87556 0.91639 0.08356 0.0
H505 H 0.82364 0.88006 0.07904 0.0
H506 H 0.88162 0.91155 0.04998 0.0
H507 H 0.83046 0.87601 0.0455 0.0
H508 H 0.86544 0.97788 0.16733 0.0
H509 H 0.84511 0.96985 0.10212 0.0
H510 H 0.84705 0.94782 0.15798 0.0
H511 H 0.86339 -0.00035 0.11245 0.0
H512 H 0.8367 0.96044 0.04824 0.0
H513 H 0.77512 0.94844 0.05935 0.0
H514 H 0.92042 0.90053 0.14637 0.0
H515 H 0.91625 0.9511 0.10995 0.0
H516 H 0.77542 0.90275 0.14439 0.0
H517 H 0.79312 0.89176 0.0881 0.0
H518 H 0.74479 0.8836 0.13868 0.0
H519 H 0.76227 0.87265 0.08339 0.0
H520 H 0.82639 0.86765 0.1597 0.0
H521 H 0.86241 0.91934 0.16758 0.0
H522 H 0.83159 0.85898 0.19271 0.0
H523 H 0.86678 0.90993 0.20049 0.0
H524 H 0.84748 0.82319 0.10319 0.0
H525 H 0.7919 0.82647 0.13244 0.0
H526 H 0.78797 0.9724 0.17677 0.0
H527 H 0.78518 0.91283 0.1983 0.0
Li528 Li 0.32695 0.60401 0.3744 0.0
Li529 Li 0.32167 0.57533 0.35456 0.0
Li530 Li 0.32107 0.57254 0.38803 0.0
Li531 Li 0.35209 0.57816 0.37154 0.0
C532 C 0.28525 0.58212 0.37903 0.0
N533 N 0.25023 0.56883 0.39425 0.0
C534 C 0.27448 0.56719 0.37026 0.0
C535 C 0.27818 0.59033 0.3955 0.0
C536 C 0.25681 0.56069 0.37818 0.0
C537 C 0.26046 0.58339 0.40299 0.0
C538 C 0.34212 0.60036 0.33393 0.0
C539 C 0.35028 0.59189 0.30241 0.0
N540 N 0.3405 0.60822 0.29641 0.0
C541 C 0.33224 0.61712 0.32747 0.0
C542 C 0.35132 0.5877 0.32133 0.0
C543 C 0.33156 0.62082 0.30844 0.0
C544 C 0.33939 0.64327 0.37241 0.0
N545 N 0.32349 0.6317 0.37613 0.0
C546 C 0.30352 0.66004 0.38209 0.0
C547 C 0.30573 0.63959 0.38079 0.0
C548 C 0.31974 0.6724 0.37843 0.0
C549 C 0.33785 0.66376 0.3735 0.0
H550 H 0.35327 0.63653 0.36853 0.0
H551 H 0.29329 0.63003 0.3835 0.0
C552 C 0.31193 0.54841 0.32557 0.0
N553 N 0.30971 0.56703 0.3323 0.0
C554 C 0.30266 0.54295 0.30906 0.0
C555 C 0.28908 0.57592 0.30692 0.0
C556 C 0.29831 0.58061 0.32354 0.0
C557 C 0.29126 0.55691 0.2995 0.0
H558 H 0.32076 0.5378 0.33307 0.0
H559 H 0.29639 0.59511 0.32955 0.0
C560 C 0.34876 0.60722 0.40402 0.0
N561 N 0.36112 0.64106 0.42199 0.0
C562 C 0.36825 0.61374 0.40218 0.0
C563 C 0.33559 0.61786 0.4151 0.0
C564 C 0.37421 0.63089 0.41137 0.0
C565 C 0.34211 0.63496 0.42403 0.0
C566 C 0.34668 0.53926 0.37 0.0
C567 C 0.34896 0.52799 0.38608 0.0
C568 C 0.35773 0.53464 0.35424 0.0
C569 C 0.36237 0.51232 0.38615 0.0
C570 C 0.37102 0.51889 0.35487 0.0
N571 N 0.37305 0.50815 0.37068 0.0
C572 C 0.30014 0.5413 0.40461 0.0
C573 C 0.31066 0.56636 0.42534 0.0
C574 C 0.29254 0.53021 0.41926 0.0
N575 N 0.30926 0.55883 0.40797 0.0
C576 C 0.30309 0.55588 0.44035 0.0
C577 C 0.29426 0.53739 0.43742 0.0
H578 H 0.2993 0.53571 0.3906 0.0
H579 H 0.31813 0.58023 0.42759 0.0
C580 C 0.39054 0.58364 0.35818 0.0
N581 N 0.37977 0.57357 0.37097 0.0
C582 C 0.41103 0.58171 0.35769 0.0
C583 C 0.40899 0.55882 0.38334 0.0
C584 C 0.38855 0.56152 0.3836 0.0
C585 C 0.42037 0.56914 0.37035 0.0
H586 H 0.38326 0.59351 0.34862 0.0
H587 H 0.37972 0.55426 0.39404 0.0
O588 O 0.30282 0.58837 0.37173 0.0
O589 O 0.34263 0.59628 0.35248 0.0
O590 O 0.34252 0.5907 0.39481 0.0
O591 O 0.33371 0.55474 0.36969 0.0
H592 H 0.27979 0.56056 0.35759 0.0
H593 H 0.28647 0.60168 0.40263 0.0
H594 H 0.24836 0.5491 0.37158 0.0
H595 H 0.25489 0.5895 0.41581 0.0
H596 H 0.35723 0.58215 0.29249 0.0
H597 H 0.32494 0.62703 0.33701 0.0
H598 H 0.35906 0.5747 0.3261 0.0
H599 H 0.32387 0.63366 0.30324 0.0
H600 H 0.28934 0.66609 0.38605 0.0
H601 H 0.35064 0.67272 0.37023 0.0
H602 H 0.3045 0.52811 0.30374 0.0
H603 H 0.28004 0.58692 0.30009 0.0
H604 H 0.37866 0.60575 0.39366 0.0
H605 H 0.32037 0.61322 0.41647 0.0
H606 H 0.38924 0.63614 0.41001 0.0
H607 H 0.33202 0.64343 0.4325 0.0
H608 H 0.34066 0.53143 0.39846 0.0
H609 H 0.35618 0.54322 0.3417 0.0
H610 H 0.36436 0.50353 0.39852 0.0
H611 H 0.37974 0.51521 0.34281 0.0
H612 H 0.28585 0.51598 0.4165 0.0
H613 H 0.30503 0.56172 0.4542 0.0
H614 H 0.41951 0.59 0.34762 0.0
H615 H 0.4159 0.54925 0.39347 0.0
Li616 Li 0.66623 0.10616 0.62138 0.0
Li617 Li 0.67083 0.07644 0.64021 0.0
Li618 Li 0.66858 0.07437 0.60667 0.0
Li619 Li 0.63973 0.08182 0.62558 0.0
C620 C 0.70529 0.09929 0.62124 0.0
N621 N 0.73776 0.12401 0.62124 0.0
C622 C 0.7164 0.10182 0.63739 0.0
C623 C 0.71079 0.10919 0.60506 0.0
C624 C 0.73275 0.11441 0.6371 0.0
C625 C 0.72721 0.12168 0.60535 0.0
C626 C 0.63657 0.10548 0.65387 0.0
C627 C 0.60939 0.10025 0.6749 0.0
N628 N 0.60281 0.11883 0.6713 0.0
C629 C 0.62961 0.12456 0.65045 0.0
C630 C 0.62647 0.09325 0.66626 0.0
C631 C 0.61249 0.13102 0.65939 0.0
C632 C 0.66155 0.14396 0.60615 0.0
N633 N 0.67152 0.13357 0.61926 0.0
C634 C 0.68711 0.16297 0.63028 0.0
C635 C 0.68395 0.14263 0.63138 0.0
C636 C 0.67683 0.17401 0.617 0.0
C637 C 0.66391 0.16437 0.60484 0.0
H638 H 0.65139 0.13646 0.597 0.0
H639 H 0.69112 0.13415 0.64211 0.0
C640 C 0.69893 0.05346 0.65953 0.0
N641 N 0.68394 0.06667 0.66138 0.0
C642 C 0.70965 0.04744 0.67504 0.0
C643 C 0.68934 0.06886 0.69392 0.0
C644 C 0.67888 0.07426 0.67811 0.0
C645 C 0.70508 0.0555 0.6924 0.0
H646 H 0.70291 0.04806 0.64595 0.0
H647 H 0.66712 0.08497 0.6791 0.0
C648 C 0.64461 0.09427 0.58419 0.0
N649 N 0.63772 0.09103 0.54661 0.0
C650 C 0.62761 0.08478 0.57776 0.0
C651 C 0.658 0.1023 0.57153 0.0
C652 C 0.62441 0.08326 0.5587 0.0
C653 C 0.65429 0.10044 0.55258 0.0
C654 C 0.6599 0.0399 0.63339 0.0
C655 C 0.67325 0.02703 0.62492 0.0
C656 C 0.65175 0.03498 0.65057 0.0
C657 C 0.67835 0.00946 0.63387 0.0
C658 C 0.65725 0.0173 0.65909 0.0
N659 N 0.67033 0.00501 0.65063 0.0
C660 C 0.69605 0.0614 0.57945 0.0
C661 C 0.6632 0.0495 0.57667 0.0
C662 C 0.70171 0.05092 0.56365 0.0
N663 N 0.67703 0.0606 0.58545 0.0
C664 C 0.66809 0.03917 0.56069 0.0
C665 C 0.68752 0.03987 0.55402 0.0
H666 H 0.70679 0.07006 0.58695 0.0
H667 H 0.64835 0.04872 0.58213 0.0
C668 C 0.60044 0.09436 0.6225 0.0
N669 N 0.61199 0.07873 0.6271 0.0
C670 C 0.57993 0.09264 0.62297 0.0
C671 C 0.58361 0.05867 0.63273 0.0
C672 C 0.60407 0.06108 0.63211 0.0
C673 C 0.57126 0.07457 0.62805 0.0
H674 H 0.60721 0.10815 0.61839 0.0
H675 H 0.61364 0.04881 0.63541 0.0
O676 O 0.68918 0.08711 0.62126 0.0
O677 O 0.65305 0.09872 0.64495 0.0
O678 O 0.64818 0.09561 0.60279 0.0
O679 O 0.65488 0.05727 0.62495 0.0
H680 H 0.71236 0.09429 0.65005 0.0
H681 H 0.70239 0.10735 0.59244 0.0
H682 H 0.74143 0.11658 0.64951 0.0
H683 H 0.73157 0.12952 0.59296 0.0
H684 H 0.60134 0.09089 0.68441 0.0
H685 H 0.63722 0.13421 0.64089 0.0
H686 H 0.63162 0.07841 0.66899 0.0
H687 H 0.60687 0.14572 0.65682 0.0
H688 H 0.69694 0.17009 0.64005 0.0
H689 H 0.65566 0.17256 0.59454 0.0
H690 H 0.7219 0.03732 0.67338 0.0
H691 H 0.68546 0.07536 0.70713 0.0
H692 H 0.61711 0.07844 0.58737 0.0
H693 H 0.67118 0.10976 0.57629 0.0
H694 H 0.61139 0.07584 0.55352 0.0
H695 H 0.6646 0.10646 0.54261 0.0
H696 H 0.67974 0.03061 0.61165 0.0
H697 H 0.64149 0.04484 0.65738 0.0
H698 H 0.68872 -0.00061 0.62751 0.0
H699 H 0.65117 0.01337 0.67245 0.0
H700 H 0.71686 0.05162 0.55887 0.0
H701 H 0.65689 0.03047 0.55373 0.0
H702 H 0.57097 0.10534 0.61946 0.0
H703 H 0.57754 0.04443 0.63648 0.0
Li704 Li 0.82499 0.41962 0.85773 0.0
Li705 Li 0.82555 0.4223 0.8904 0.0
Li706 Li 0.85713 0.4166 0.87197 0.0
Li707 Li 0.83081 0.39034 0.87602 0.0
C708 C 0.83661 0.4573 0.86336 0.0
N709 N 0.83102 0.49257 0.84487 0.0
C710 C 0.81782 0.46575 0.86244 0.0
C711 C 0.85259 0.46682 0.85496 0.0
C712 C 0.81528 0.48357 0.85299 0.0
C713 C 0.84946 0.48465 0.84567 0.0
C714 C 0.78946 0.40796 0.88467 0.0
C715 C 0.76799 0.39717 0.90933 0.0
N716 N 0.7544 0.41084 0.90406 0.0
C717 C 0.77521 0.42178 0.87939 0.0
C718 C 0.78577 0.39544 0.89965 0.0
C719 C 0.7576 0.42306 0.88941 0.0
C720 C 0.7945 0.41867 0.83208 0.0
N721 N 0.81203 0.42772 0.8355 0.0
C722 C 0.81017 0.44509 0.80671 0.0
C723 C 0.82012 0.44054 0.8231 0.0
C724 C 0.79208 0.43589 0.80291 0.0
C725 C 0.78422 0.42254 0.81579 0.0
H726 H 0.78869 0.40806 0.84185 0.0
H727 H 0.83448 0.44689 0.82568 0.0
C728 C 0.82584 0.43183 0.92801 0.0
N729 N 0.81603 0.43537 0.91194 0.0
C730 C 0.82081 0.44199 0.9441 0.0
C731 C 0.79544 0.45917 0.92693 0.0
C732 C 0.80103 0.44869 0.91113 0.0
C733 C 0.80563 0.45608 0.9436 0.0
H734 H 0.83798 0.42152 0.92826 0.0
H735 H 0.79371 0.45163 0.89817 0.0
C736 C 0.84421 0.39624 0.83495 0.0
N737 N 0.8405 0.39242 0.79705 0.0
C738 C 0.83023 0.3833 0.82753 0.0
C739 C 0.85643 0.40711 0.82315 0.0
C740 C 0.82854 0.38162 0.80831 0.0
C741 C 0.85431 0.40499 0.80401 0.0
C742 C 0.85431 0.38946 0.90719 0.0
C743 C 0.8742 0.38395 0.90693 0.0
C744 C 0.84142 0.38051 0.91978 0.0
C745 C 0.8808 0.36932 0.91909 0.0
C746 C 0.84859 0.36593 0.93169 0.0
N747 N 0.86796 0.36067 0.93109 0.0
C748 C 0.89301 0.43644 0.87937 0.0
C749 C 0.8956 0.40729 0.86133 0.0
C750 C 0.91349 0.43887 0.8791 0.0
N751 N 0.88459 0.42082 0.87059 0.0
C752 C 0.91611 0.40905 0.86083 0.0
C753 C 0.9253 0.42492 0.8699 0.0
H754 H 0.88381 0.44684 0.88677 0.0
H755 H 0.88844 0.39494 0.85461 0.0
C756 C 0.8085 0.35531 0.87383 0.0
N757 N 0.82678 0.36265 0.87751 0.0
C758 C 0.80522 0.33494 0.874 0.0
C759 C 0.8396 0.33015 0.88189 0.0
C760 C 0.84231 0.35054 0.88114 0.0
C761 C 0.8209 0.3222 0.8782 0.0
H762 H 0.79654 0.36526 0.87048 0.0
H763 H 0.85687 0.35665 0.88318 0.0
O764 O 0.83944 0.43991 0.8726 0.0
O765 O 0.80682 0.40654 0.87507 0.0
O766 O 0.84565 0.39856 0.8537 0.0
O767 O 0.84757 0.4037 0.89532 0.0
H768 H 0.80526 0.45844 0.86861 0.0
H769 H 0.86723 0.46046 0.85549 0.0
H770 H 0.80079 0.4902 0.85204 0.0
H771 H 0.86167 0.49216 0.83905 0.0
H772 H 0.76498 0.38762 0.921 0.0
H773 H 0.7778 0.43161 0.86782 0.0
H774 H 0.79649 0.38445 0.90373 0.0
H775 H 0.74651 0.43379 0.88556 0.0
H776 H 0.8168 0.45519 0.79688 0.0
H777 H 0.7703 0.41512 0.81325 0.0
H778 H 0.82896 0.43912 0.95672 0.0
H779 H 0.78384 0.47012 0.92594 0.0
H780 H 0.82061 0.37485 0.83651 0.0
H781 H 0.86724 0.41729 0.82872 0.0
H782 H 0.81767 0.37179 0.80234 0.0
H783 H 0.86356 0.41341 0.79469 0.0
H784 H 0.88443 0.39081 0.89739 0.0
H785 H 0.82607 0.38481 0.92036 0.0
H786 H 0.89613 0.36484 0.91897 0.0
H787 H 0.83875 0.35882 0.94144 0.0
H788 H 0.92006 0.4512 0.8864 0.0
H789 H 0.9247 0.39809 0.85345 0.0
H790 H 0.79065 0.32921 0.87091 0.0
H791 H 0.85209 0.32064 0.88481 0.0
Li792 Li 0.33199 0.10986 0.62119 0.0
Li793 Li 0.35484 0.08217 0.62487 0.0
Li794 Li 0.32661 0.07875 0.60496 0.0
Li795 Li 0.32359 0.08045 0.6386 0.0
C796 C 0.34711 0.10737 0.58571 0.0
N797 N 0.34355 0.12775 0.55273 0.0
C798 C 0.36373 0.11072 0.57467 0.0
C799 C 0.32867 0.11435 0.57997 0.0
C800 C 0.36163 0.12106 0.55805 0.0
C801 C 0.32718 0.12463 0.56326 0.0
C802 C 0.3415 0.10473 0.66228 0.0
C803 C 0.34259 0.09614 0.69471 0.0
N804 N 0.33429 0.11383 0.69899 0.0
C805 C 0.33318 0.12292 0.66704 0.0
C806 C 0.34645 0.09131 0.67625 0.0
C807 C 0.32959 0.12721 0.68566 0.0
C808 C 0.31238 0.14664 0.62261 0.0
N809 N 0.32987 0.13756 0.61915 0.0
C810 C 0.34545 0.16844 0.61289 0.0
C811 C 0.34625 0.14793 0.61435 0.0
C812 C 0.32764 0.17835 0.6166 0.0
C813 C 0.31093 0.16716 0.62145 0.0
H814 H 0.29967 0.13795 0.62659 0.0
H815 H 0.35995 0.14024 0.61168 0.0
C816 C 0.39207 0.07002 0.61181 0.0
N817 N 0.38206 0.07625 0.62703 0.0
C818 C 0.41245 0.06705 0.61268 0.0
C819 C 0.41166 0.07663 0.64494 0.0
C820 C 0.39133 0.07941 0.64344 0.0
C821 C 0.42254 0.07069 0.62934 0.0
H822 H 0.38426 0.06781 0.59891 0.0
H823 H 0.383 0.08449 0.65527 0.0
C824 C 0.28851 0.08706 0.61907 0.0
N825 N 0.25062 0.07187 0.61843 0.0
C826 C 0.28535 0.06683 0.62171 0.0
C827 C 0.27238 0.09953 0.61612 0.0
C828 C 0.26608 0.05946 0.62135 0.0
C829 C 0.25335 0.09157 0.61581 0.0
C830 C 0.34936 0.04446 0.6258 0.0
C831 C 0.3552 0.0332 0.61054 0.0
C832 C 0.35742 0.04044 0.64321 0.0
C833 C 0.36932 0.01837 0.61289 0.0
C834 C 0.37152 0.02551 0.645 0.0
N835 N 0.37715 0.01489 0.62992 0.0
C836 C 0.3336 0.0617 0.57105 0.0
C837 C 0.29929 0.0656 0.57639 0.0
C838 C 0.32993 0.05238 0.55422 0.0
N839 N 0.31839 0.06767 0.58196 0.0
C840 C 0.29492 0.05611 0.55973 0.0
C841 C 0.31037 0.04917 0.54858 0.0
H842 H 0.34866 0.06387 0.57564 0.0
H843 H 0.28737 0.07112 0.58478 0.0
C844 C 0.2972 0.08561 0.66765 0.0
N845 N 0.30833 0.07175 0.659 0.0
C846 C 0.28549 0.08047 0.68272 0.0
C847 C 0.29594 0.04656 0.67903 0.0
C848 C 0.30781 0.05247 0.66421 0.0
C849 C 0.28464 0.06068 0.6886 0.0
H850 H 0.29752 0.10073 0.66285 0.0
H851 H 0.31638 0.04166 0.65671 0.0
O852 O 0.34902 0.09719 0.60198 0.0
O853 O 0.34494 0.10018 0.64407 0.0
O854 O 0.30717 0.09478 0.6199 0.0
O855 O 0.33589 0.05937 0.62371 0.0
H856 H 0.37809 0.10536 0.57892 0.0
H857 H 0.31562 0.11186 0.58828 0.0
H858 H 0.37436 0.12377 0.54936 0.0
H859 H 0.31301 0.13012 0.55865 0.0
H860 H 0.34618 0.0858 0.70562 0.0
H861 H 0.32944 0.1336 0.65651 0.0
H862 H 0.353 0.07723 0.67291 0.0
H863 H 0.32304 0.14119 0.68951 0.0
H864 H 0.35862 0.17644 0.60884 0.0
H865 H 0.29699 0.17419 0.62469 0.0
H866 H 0.42031 0.06269 0.60028 0.0
H867 H 0.41884 0.07939 0.65809 0.0
H868 H 0.2976 0.05689 0.62389 0.0
H869 H 0.27454 0.11521 0.61407 0.0
H870 H 0.26343 0.04385 0.62336 0.0
H871 H 0.24074 0.10107 0.61353 0.0
H872 H 0.34891 0.03582 0.59703 0.0
H873 H 0.35298 0.04887 0.65519 0.0
H874 H 0.37404 0.00962 0.60117 0.0
H875 H 0.37799 0.02238 0.65838 0.0
H876 H 0.34225 0.04714 0.54602 0.0
H877 H 0.27965 0.05413 0.55565 0.0
H878 H 0.27742 0.09201 0.68979 0.0
H879 H 0.29549 0.03109 0.68281 0.0
Li880 Li 0.66196 0.60811 0.37151 0.0
Li881 Li 0.63646 0.58233 0.36842 0.0
Li882 Li 0.66714 0.57624 0.38738 0.0
Li883 Li 0.66804 0.57694 0.35391 0.0
C884 C 0.64024 0.60732 0.4059 0.0
N885 N 0.62918 0.63046 0.43568 0.0
C886 C 0.62094 0.6145 0.40722 0.0
C887 C 0.65381 0.61163 0.41993 0.0
C888 C 0.61566 0.62626 0.42232 0.0
C889 C 0.64796 0.62342 0.43482 0.0
C890 C 0.63416 0.60464 0.33716 0.0
C891 C 0.60874 0.59769 0.31467 0.0
N892 N 0.60375 0.61714 0.31448 0.0
C893 C 0.62887 0.62459 0.33663 0.0
C894 C 0.62412 0.5911 0.32598 0.0
C895 C 0.61343 0.6306 0.32511 0.0
C896 C 0.68303 0.64296 0.36379 0.0
N897 N 0.66645 0.63582 0.37204 0.0
C898 C 0.65593 0.66844 0.3797 0.0
C899 C 0.65292 0.64809 0.3798 0.0
C900 C 0.67289 0.67632 0.37125 0.0
C901 C 0.6866 0.66327 0.36327 0.0
H902 H 0.69339 0.63287 0.35744 0.0
H903 H 0.63959 0.64216 0.38575 0.0
C904 C 0.6018 0.55934 0.37066 0.0
N905 N 0.60876 0.57785 0.3674 0.0
C906 C 0.58149 0.55566 0.37046 0.0
C907 C 0.57599 0.5901 0.36331 0.0
C908 C 0.59633 0.59319 0.36402 0.0
C909 C 0.5684 0.57117 0.36663 0.0
H910 H 0.61201 0.54747 0.3736 0.0
H911 H 0.60217 0.60788 0.36209 0.0
C912 C 0.70303 0.59538 0.38064 0.0
N913 N 0.73753 0.6044 0.39928 0.0
C914 C 0.72061 0.58568 0.37617 0.0
C915 C 0.70309 0.60989 0.39438 0.0
C916 C 0.73787 0.59037 0.38581 0.0
C917 C 0.72065 0.61419 0.4037 0.0
C918 C 0.65631 0.54076 0.36109 0.0
C919 C 0.67114 0.528 0.36721 0.0
C920 C 0.64484 0.53559 0.34575 0.0
C921 C 0.67449 0.51038 0.35766 0.0
C922 C 0.64865 0.51785 0.33657 0.0
N923 N 0.66328 0.50572 0.34265 0.0
C924 C 0.66391 0.56232 0.42347 0.0
C925 C 0.69467 0.55481 0.40947 0.0
C926 C 0.66922 0.55202 0.43939 0.0
N927 N 0.6766 0.56356 0.40897 0.0
C928 C 0.70054 0.54415 0.4251 0.0
C929 C 0.68761 0.54246 0.44024 0.0
H930 H 0.64946 0.56901 0.42252 0.0
H931 H 0.70422 0.55548 0.39752 0.0
C932 C 0.6753 0.57217 0.31585 0.0
N933 N 0.68124 0.56645 0.33299 0.0
C934 C 0.68592 0.56636 0.30026 0.0
C935 C 0.70834 0.54846 0.32019 0.0
C936 C 0.69721 0.55457 0.33542 0.0
C937 C 0.70296 0.55476 0.30236 0.0
H938 H 0.66271 0.58178 0.31431 0.0
H939 H 0.70166 0.55035 0.34924 0.0
O940 O 0.6456 0.59573 0.3912 0.0
O941 O 0.64918 0.59848 0.34845 0.0
O942 O 0.68598 0.59092 0.37133 0.0
O943 O 0.65303 0.55823 0.37006 0.0
H944 H 0.61017 0.61117 0.39664 0.0
H945 H 0.6686 0.60569 0.41952 0.0
H946 H 0.60082 0.63203 0.42342 0.0
H947 H 0.65833 0.62688 0.44575 0.0
H948 H 0.60077 0.58735 0.30605 0.0
H949 H 0.63657 0.63531 0.34504 0.0
H950 H 0.62807 0.57565 0.32613 0.0
H951 H 0.60913 0.64597 0.32463 0.0
H952 H 0.64504 0.6779 0.38617 0.0
H953 H 0.69972 0.66869 0.35636 0.0
H954 H 0.57607 0.54088 0.37316 0.0
H955 H 0.56626 0.60248 0.36065 0.0
H956 H 0.72093 0.57457 0.36543 0.0
H957 H 0.6898 0.61793 0.3977 0.0
H958 H 0.75155 0.58287 0.38257 0.0
H959 H 0.72087 0.62537 0.41439 0.0
H960 H 0.6801 0.53173 0.3791 0.0
H961 H 0.63315 0.54518 0.34098 0.0
H962 H 0.68601 0.50042 0.36217 0.0
H963 H 0.63996 0.51371 0.32461 0.0
H964 H 0.65888 0.55132 0.45082 0.0
H965 H 0.7147 0.53674 0.42503 0.0
H966 H 0.68115 0.57135 0.28672 0.0
H967 H 0.72149 0.53969 0.32245 0.0
Li968 Li 0.16879 0.92367 0.10937 0.0
Li969 Li 0.16998 0.91634 0.141 0.0
Li970 Li 0.1636 0.88967 0.12053 0.0
Li971 Li 0.13821 0.91593 0.12689 0.0
C972 C 0.20144 0.8986 0.10934 0.0
N973 N 0.22838 0.88416 0.08398 0.0
C974 C 0.22162 0.89868 0.11344 0.0
C975 C 0.19497 0.89111 0.09235 0.0
C976 C 0.235 0.89133 0.10044 0.0
C977 C 0.20881 0.88389 0.07972 0.0
C978 C 0.16613 0.95618 0.1321 0.0
C979 C 0.1665 0.99128 0.13771 0.0
N980 N 0.18657 0.99115 0.13677 0.0
C981 C 0.18676 0.95639 0.1312 0.0
C982 C 0.15591 0.97375 0.13538 0.0
C983 C 0.19682 0.97422 0.13359 0.0
C984 C 0.1635 0.95102 0.08161 0.0
N985 N 0.17777 0.94 0.08983 0.0
C986 C 0.20244 0.95375 0.06999 0.0
C987 C 0.19703 0.94137 0.08459 0.0
C988 C 0.18793 0.9651 0.06113 0.0
C989 C 0.16828 0.96379 0.06717 0.0
H990 H 0.14836 0.94977 0.08628 0.0
H991 H 0.20824 0.93303 0.09173 0.0
C992 C 0.20067 0.91353 0.16642 0.0
N993 N 0.18327 0.92282 0.16316 0.0
C994 C 0.21129 0.91758 0.18247 0.0
C995 C 0.18584 0.94074 0.19151 0.0
C996 C 0.17574 0.93628 0.17519 0.0
C997 C 0.20384 0.93127 0.19532 0.0
H998 H 0.20624 0.9029 0.15655 0.0
H999 H 0.16181 0.94341 0.17217 0.0
C1000 C 0.13633 0.90038 0.08788 0.0
N1001 N 0.11342 0.89066 0.05755 0.0
C1002 C 0.11774 0.89178 0.09036 0.0
C1003 C 0.14326 0.90405 0.06997 0.0
C1004 C 0.10639 0.88697 0.07485 0.0
C1005 C 0.13146 0.89902 0.05482 0.0
C1006 C 0.15045 0.89241 0.16218 0.0
C1007 C 0.1638 0.87853 0.16911 0.0
C1008 C 0.13892 0.90347 0.17442 0.0
C1009 C 0.16554 0.87607 0.18825 0.0
C1010 C 0.14107 0.90056 0.19347 0.0
N1011 N 0.15425 0.88705 0.19993 0.0
C1012 C 0.18293 0.85311 0.12293 0.0
C1013 C 0.153 0.85231 0.10593 0.0
C1014 C 0.18532 0.83278 0.12071 0.0
N1015 N 0.16689 0.86236 0.11569 0.0
C1016 C 0.15481 0.832 0.10332 0.0
C1017 C 0.17101 0.82192 0.11097 0.0
H1018 H 0.19367 0.86148 0.13077 0.0
H1019 H 0.14034 0.85996 0.10044 0.0
C1020 C 0.10243 0.93607 0.11994 0.0
N1021 N 0.11081 0.92037 0.12862 0.0
C1022 C 0.08194 0.93852 0.12024 0.0
C1023 C 0.0793 0.90872 0.13857 0.0
C1024 C 0.09978 0.90688 0.13794 0.0
C1025 C 0.07011 0.92458 0.12947 0.0
H1026 H 0.11164 0.94645 0.1125 0.0
H1027 H 0.1069 0.89445 0.14457 0.0
O1028 O 0.18827 0.90577 0.12206 0.0
O1029 O 0.15586 0.93895 0.12977 0.0
O1030 O 0.14756 0.9055 0.1029 0.0
O1031 O 0.14894 0.89542 0.14351 0.0
H1032 H 0.22688 0.90443 0.12653 0.0
H1033 H 0.17948 0.89079 0.08893 0.0
H1034 H 0.25065 0.89134 0.10342 0.0
H1035 H 0.204 0.87806 0.06652 0.0
H1036 H 0.15878 0.00499 0.14025 0.0
H1037 H 0.19496 0.94298 0.12868 0.0
H1038 H 0.13993 0.97382 0.1361 0.0
H1039 H 0.21277 0.9746 0.13292 0.0
H1040 H 0.21777 0.9546 0.06577 0.0
H1041 H 0.15669 0.97224 0.06054 0.0
H1042 H 0.22526 0.91018 0.18472 0.0
H1043 H 0.17951 0.95123 0.20113 0.0
H1044 H 0.11223 0.88863 0.1041 0.0
H1045 H 0.15761 0.91067 0.06776 0.0
H1046 H 0.092 0.88026 0.07657 0.0
H1047 H 0.13664 0.90177 0.04088 0.0
H1048 H 0.17289 0.86992 0.15981 0.0
H1049 H 0.12864 0.9144 0.16926 0.0
H1050 H 0.17592 0.86548 0.19382 0.0
H1051 H 0.13234 0.9091 0.20311 0.0
H1052 H 0.1979 0.82558 0.12704 0.0
H1053 H 0.14356 0.82423 0.09554 0.0
H1054 H 0.0754 0.95084 0.11291 0.0
H1055 H 0.07074 0.89778 0.14602 0.0
Li1056 Li 0.82961 0.60566 0.12216 0.0
Li1057 Li 0.85577 0.58058 0.12402 0.0
Li1058 Li 0.82379 0.57434 0.10716 0.0
Li1059 Li 0.82465 0.57452 0.14076 0.0
C1060 C 0.85002 0.60864 0.08976 0.0
N1061 N 0.86003 0.63935 0.06635 0.0
C1062 C 0.86964 0.61495 0.08847 0.0
C1063 C 0.83556 0.61774 0.07891 0.0
C1064 C 0.87438 0.63055 0.07661 0.0
C1065 C 0.84089 0.63331 0.06723 0.0
C1066 C 0.85635 0.60068 0.15878 0.0
C1067 C 0.87469 0.59075 0.18586 0.0
N1068 N 0.88137 0.60958 0.18786 0.0
C1069 C 0.86317 0.61998 0.16125 0.0
C1070 C 0.86197 0.58599 0.17131 0.0
C1071 C 0.87589 0.62416 0.17597 0.0
C1072 C 0.80681 0.64075 0.12358 0.0
N1073 N 0.8253 0.63332 0.12124 0.0
C1074 C 0.83851 0.66566 0.11686 0.0
C1075 C 0.84108 0.64532 0.11827 0.0
C1076 C 0.8196 0.67373 0.11904 0.0
C1077 C 0.80362 0.66111 0.12265 0.0
H1078 H 0.79457 0.63087 0.12618 0.0
H1079 H 0.8557 0.63908 0.11703 0.0
C1080 C 0.89138 0.5599 0.1172 0.0
N1081 N 0.88357 0.57689 0.12402 0.0
C1082 C 0.91184 0.55723 0.11681 0.0
C1083 C 0.91574 0.58965 0.1303 0.0
C1084 C 0.89528 0.59173 0.13032 0.0
C1085 C 0.92432 0.57226 0.12341 0.0
H1086 H 0.88172 0.5485 0.11192 0.0
H1087 H 0.88877 0.60535 0.13505 0.0
C1088 C 0.78744 0.58606 0.11684 0.0
N1089 N 0.7505 0.58037 0.10146 0.0
C1090 C 0.77446 0.57224 0.12451 0.0
C1091 C 0.78151 0.5972 0.10153 0.0
C1092 C 0.75588 0.56953 0.11649 0.0
C1093 C 0.76282 0.59404 0.0939 0.0
C1094 C 0.84235 0.5383 0.1314 0.0
C1095 C 0.83134 0.52194 0.12568 0.0
C1096 C 0.85715 0.53589 0.14469 0.0
C1097 C 0.835 0.50353 0.13369 0.0
C1098 C 0.86039 0.51724 0.15237 0.0
N1099 N 0.84931 0.50158 0.14678 0.0
C1100 C 0.81964 0.56627 0.06932 0.0
C1101 C 0.79839 0.54755 0.08863 0.0
C1102 C 0.8129 0.55625 0.05371 0.0
N1103 N 0.81246 0.56167 0.08634 0.0
C1104 C 0.79118 0.53716 0.07338 0.0
C1105 C 0.79868 0.54127 0.05565 0.0
H1106 H 0.83112 0.57724 0.06792 0.0
H1107 H 0.79316 0.54397 0.10237 0.0
C1108 C 0.81286 0.57582 0.17775 0.0
N1109 N 0.81317 0.564 0.16257 0.0
C1110 C 0.80343 0.5696 0.19387 0.0
C1111 C 0.79462 0.53917 0.17842 0.0
C1112 C 0.80436 0.54595 0.16261 0.0
C1113 C 0.79394 0.55115 0.19427 0.0
H1114 H 0.81945 0.59034 0.17717 0.0
H1115 H 0.80423 0.53713 0.15017 0.0
O1116 O 0.84507 0.59352 0.10146 0.0
O1117 O 0.84391 0.59635 0.14439 0.0
O1118 O 0.80576 0.58881 0.12441 0.0
O1119 O 0.83895 0.55644 0.12366 0.0
H1120 H 0.88107 0.60795 0.09659 0.0
H1121 H 0.82039 0.61288 0.07952 0.0
H1122 H 0.88948 0.63566 0.07557 0.0
H1123 H 0.82982 0.64057 0.05886 0.0
H1124 H 0.87919 0.57951 0.19563 0.0
H1125 H 0.85879 0.6316 0.15185 0.0
H1126 H 0.85635 0.57114 0.17 0.0
H1127 H 0.8814 0.63901 0.17795 0.0
H1128 H 0.85121 0.67504 0.11439 0.0
H1129 H 0.78885 0.66692 0.12449 0.0
H1130 H 0.9178 0.54372 0.11108 0.0
H1131 H 0.92474 0.60157 0.13567 0.0
H1132 H 0.77872 0.56362 0.13645 0.0
H1133 H 0.79121 0.60819 0.09562 0.0
H1134 H 0.74574 0.55878 0.12221 0.0
H1135 H 0.75808 0.60249 0.08198 0.0
H1136 H 0.82 0.52345 0.11524 0.0
H1137 H 0.86623 0.54821 0.14887 0.0
H1138 H 0.82648 0.49078 0.12949 0.0
H1139 H 0.87177 0.51519 0.1627 0.0
H1140 H 0.81944 0.55959 0.04038 0.0
H1141 H 0.78019 0.52575 0.07548 0.0
H1142 H 0.80282 0.57951 0.20563 0.0
H1143 H 0.78736 0.52492 0.17815 0.0
Li1144 Li 0.14075 0.07962 0.87167 0.0
Li1145 Li 0.16361 0.10733 0.87549 0.0
Li1146 Li 0.17277 0.07787 0.85805 0.0
Li1147 Li 0.16968 0.07686 0.89161 0.0
C1148 C 0.15386 0.10074 0.83411 0.0
N1149 N 0.16032 0.10736 0.79684 0.0
C1150 C 0.16211 0.11857 0.82816 0.0
C1151 C 0.14874 0.08635 0.8211 0.0
C1152 C 0.16528 0.12163 0.80925 0.0
C1153 C 0.15218 0.08995 0.80232 0.0
C1154 C 0.13941 0.1099 0.90428 0.0
C1155 C 0.14365 0.13652 0.9261 0.0
N1156 N 0.12464 0.14216 0.92314 0.0
C1157 C 0.11988 0.1159 0.90151 0.0
C1158 C 0.15137 0.12021 0.91674 0.0
C1159 C 0.11269 0.13226 0.91117 0.0
C1160 C 0.10414 0.06626 0.88486 0.0
N1161 N 0.11366 0.07313 0.86959 0.0
C1162 C 0.08354 0.07374 0.85245 0.0
C1163 C 0.10389 0.07673 0.85352 0.0
C1164 C 0.07319 0.06714 0.86814 0.0
C1165 C 0.08379 0.06308 0.88442 0.0
H1166 H 0.1123 0.06378 0.89752 0.0
H1167 H 0.11179 0.08251 0.84171 0.0
C1168 C 0.18397 0.14357 0.87796 0.0
N1169 N 0.16582 0.13517 0.8763 0.0
C1170 C 0.18595 0.16408 0.87785 0.0
C1171 C 0.1505 0.16684 0.87455 0.0
C1172 C 0.14925 0.1463 0.87435 0.0
C1173 C 0.16904 0.1759 0.87621 0.0
H1174 H 0.19693 0.13434 0.87911 0.0
H1175 H 0.13511 0.13919 0.87244 0.0
C1176 C 0.14741 0.04184 0.87377 0.0
N1177 N 0.12047 0.01124 0.87529 0.0
C1178 C 0.1428 0.03303 0.89073 0.0
C1179 C 0.13844 0.035 0.85756 0.0
C1180 C 0.12912 0.01758 0.89121 0.0
C1181 C 0.12481 0.01955 0.85862 0.0
C1182 C 0.20608 0.08978 0.8853 0.0
C1183 C 0.21988 0.07652 0.87806 0.0
C1184 C 0.21026 0.09982 0.90174 0.0
C1185 C 0.23759 0.07337 0.88754 0.0
C1186 C 0.22812 0.09624 0.91082 0.0
N1187 N 0.2413 0.08319 0.9036 0.0
C1188 C 0.19915 0.08332 0.82935 0.0
C1189 C 0.1882 0.05018 0.83206 0.0
C1190 C 0.21056 0.07854 0.814 0.0
N1191 N 0.18804 0.06928 0.8378 0.0
C1192 C 0.19976 0.04462 0.8169 0.0
C1193 C 0.21108 0.05895 0.80758 0.0
H1194 H 0.19892 0.09832 0.83447 0.0
H1195 H 0.17943 0.03929 0.83929 0.0
C1196 C 0.16917 0.06933 0.92956 0.0
N1197 N 0.179 0.06511 0.91365 0.0
C1198 C 0.1738 0.05938 0.94586 0.0
C1199 C 0.19907 0.04135 0.92925 0.0
C1200 C 0.19371 0.05144 0.91316 0.0
C1201 C 0.18876 0.04511 0.94569 0.0
H1202 H 0.15718 0.07984 0.92944 0.0
H1203 H 0.20077 0.04788 0.90017 0.0
O1204 O 0.15093 0.09735 0.85258 0.0
O1205 O 0.1468 0.09405 0.89482 0.0
O1206 O 0.16045 0.05724 0.87305 0.0
O1207 O 0.1886 0.09296 0.8763 0.0
H1208 H 0.16618 0.12988 0.83802 0.0
H1209 H 0.14244 0.07242 0.82547 0.0
H1210 H 0.17174 0.13532 0.80446 0.0
H1211 H 0.14845 0.07887 0.79211 0.0
H1212 H 0.15278 0.1447 0.9357 0.0
H1213 H 0.11043 0.10816 0.89186 0.0
H1214 H 0.1665 0.11574 0.91906 0.0
H1215 H 0.09764 0.13713 0.90909 0.0
H1216 H 0.07588 0.07734 0.83972 0.0
H1217 H 0.07639 0.05784 0.89678 0.0
H1218 H 0.20048 0.17065 0.87909 0.0
H1219 H 0.1372 0.17555 0.87296 0.0
H1220 H 0.14957 0.03816 0.90342 0.0
H1221 H 0.14182 0.04171 0.84433 0.0
H1222 H 0.12534 0.01068 0.90425 0.0
H1223 H 0.11765 0.0142 0.84621 0.0
H1224 H 0.21689 0.06859 0.86537 0.0
H1225 H 0.19977 0.11018 0.90748 0.0
H1226 H 0.24837 0.06308 0.88216 0.0
H1227 H 0.2315 0.10382 0.92361 0.0
H1228 H 0.21862 0.09022 0.8071 0.0
H1229 H 0.1999 0.02931 0.81263 0.0
H1230 H 0.16544 0.06235 0.95834 0.0
H1231 H 0.21043 0.03011 0.9287 0.0
Li1232 Li 0.67597 0.42211 0.60255 0.0
Li1233 Li 0.67651 0.42071 0.63595 0.0
Li1234 Li 0.66997 0.39027 0.61667 0.0
Li1235 Li 0.64454 0.4161 0.62012 0.0
C1236 C 0.71188 0.4084 0.60936 0.0
N1237 N 0.74719 0.4125 0.59056 0.0
C1238 C 0.72567 0.42253 0.61501 0.0
C1239 C 0.71618 0.39615 0.59433 0.0
C1240 C 0.7434 0.42443 0.60528 0.0
C1241 C 0.73407 0.39851 0.58495 0.0
C1242 C 0.65867 0.45697 0.62983 0.0
C1243 C 0.64092 0.47516 0.65323 0.0
N1244 N 0.65191 0.49144 0.64932 0.0
C1245 C 0.66961 0.47397 0.62588 0.0
C1246 C 0.64406 0.45763 0.64348 0.0
C1247 C 0.66605 0.49121 0.63595 0.0
C1248 C 0.68113 0.43028 0.56461 0.0
N1249 N 0.68704 0.43541 0.58192 0.0
C1250 C 0.70652 0.4619 0.56989 0.0
C1251 C 0.69973 0.45067 0.5848 0.0
C1252 C 0.70021 0.45726 0.5519 0.0
C1253 C 0.68767 0.44097 0.5493 0.0
H1254 H 0.67076 0.41834 0.56272 0.0
H1255 H 0.70416 0.45444 0.59873 0.0
C1256 C 0.68841 0.41868 0.67296 0.0
N1257 N 0.68924 0.43013 0.65754 0.0
C1258 C 0.69844 0.42429 0.68895 0.0
C1259 C 0.71054 0.45314 0.67276 0.0
C1260 C 0.69997 0.44711 0.65713 0.0
C1261 C 0.70982 0.4416 0.68888 0.0
H1262 H 0.68041 0.40489 0.67271 0.0
H1263 H 0.70084 0.45564 0.64452 0.0
C1264 C 0.64754 0.3894 0.5849 0.0
N1265 N 0.63425 0.36059 0.56083 0.0
C1266 C 0.62745 0.38466 0.58413 0.0
C1267 C 0.66082 0.37965 0.57324 0.0
C1268 C 0.62104 0.37002 0.57191 0.0
C1269 C 0.65383 0.36507 0.56122 0.0
C1270 C 0.64476 0.39341 0.65382 0.0
C1271 C 0.63829 0.37382 0.65476 0.0
C1272 C 0.63913 0.40672 0.66763 0.0
C1273 C 0.62595 0.368 0.66928 0.0
C1274 C 0.62679 0.40033 0.68194 0.0
N1275 N 0.62048 0.38128 0.68244 0.0
C1276 C 0.69194 0.35501 0.61956 0.0
C1277 C 0.65854 0.35053 0.61063 0.0
C1278 C 0.69513 0.33463 0.61914 0.0
N1279 N 0.67389 0.36251 0.61526 0.0
C1280 C 0.66118 0.33016 0.60964 0.0
C1281 C 0.67963 0.32205 0.61399 0.0
H1282 H 0.7038 0.36485 0.62352 0.0
H1283 H 0.64412 0.35673 0.60803 0.0
C1284 C 0.60941 0.43777 0.61409 0.0
N1285 N 0.61682 0.42069 0.62114 0.0
C1286 C 0.58911 0.44145 0.61468 0.0
C1287 C 0.58452 0.40985 0.62967 0.0
C1288 C 0.6048 0.40668 0.62854 0.0
C1289 C 0.57647 0.42743 0.62272 0.0
H1290 H 0.61929 0.44853 0.60801 0.0
H1291 H 0.61086 0.39287 0.63329 0.0
O1292 O 0.69431 0.40651 0.61855 0.0
O1293 O 0.662 0.43992 0.62012 0.0
O1294 O 0.65408 0.40362 0.59688 0.0
O1295 O 0.65679 0.39934 0.63961 0.0
H1296 H 0.72265 0.43203 0.62669 0.0
H1297 H 0.70584 0.38492 0.58998 0.0
H1298 H 0.75414 0.4354 0.60942 0.0
H1299 H 0.73754 0.38919 0.57323 0.0
H1300 H 0.62968 0.47583 0.66387 0.0
H1301 H 0.6808 0.47385 0.61521 0.0
H1302 H 0.63509 0.44484 0.64641 0.0
H1303 H 0.67451 0.50442 0.63311 0.0
H1304 H 0.7162 0.47434 0.57242 0.0
H1305 H 0.68215 0.43716 0.53568 0.0
H1306 H 0.69795 0.41478 0.701 0.0
H1307 H 0.71935 0.46648 0.67219 0.0
H1308 H 0.61693 0.39216 0.5929 0.0
H1309 H 0.67636 0.38323 0.57351 0.0
H1310 H 0.60555 0.36614 0.57124 0.0
H1311 H 0.66397 0.35733 0.55222 0.0
H1312 H 0.64263 0.36325 0.64434 0.0
H1313 H 0.64447 0.42175 0.66751 0.0
H1314 H 0.62073 0.35293 0.67009 0.0
H1315 H 0.62231 0.41051 0.69269 0.0
H1316 H 0.70952 0.32877 0.62271 0.0
H1317 H 0.6488 0.3208 0.60598 0.0
H1318 H 0.58336 0.45514 0.6091 0.0
H1319 H 0.57515 0.3985 0.63556 0.0
Li1320 Li 0.32739 0.9181 0.35615 0.0
Li1321 Li 0.33117 0.91998 0.38944 0.0
Li1322 Li 0.35892 0.91139 0.3696 0.0
Li1323 Li 0.33169 0.88843 0.37472 0.0
C1324 C 0.34007 0.95395 0.36219 0.0
N1325 N 0.33006 0.98884 0.34473 0.0
C1326 C 0.32703 0.96714 0.37066 0.0
C1327 C 0.34811 0.95855 0.34489 0.0
C1328 C 0.32215 0.9847 0.3616 0.0
C1329 C 0.34283 0.97624 0.33626 0.0
C1330 C 0.29392 0.89511 0.37551 0.0
C1331 C 0.27249 0.87217 0.39131 0.0
N1332 N 0.26326 0.86819 0.375 0.0
C1333 C 0.2842 0.89084 0.35892 0.0
C1334 C 0.28799 0.88578 0.39186 0.0
C1335 C 0.26873 0.87717 0.35895 0.0
C1336 C 0.31797 0.92256 0.31846 0.0
N1337 N 0.31345 0.92871 0.33584 0.0
C1338 C 0.28632 0.94771 0.32454 0.0
C1339 C 0.29809 0.94113 0.33914 0.0
C1340 C 0.29028 0.94117 0.30646 0.0
C1341 C 0.30655 0.92867 0.30349 0.0
H1342 H 0.32997 0.91232 0.31633 0.0
H1343 H 0.29467 0.94545 0.35319 0.0
C1344 C 0.33837 0.94584 0.41842 0.0
N1345 N 0.32402 0.93461 0.41058 0.0
C1346 C 0.3342 0.95728 0.43392 0.0
C1347 C 0.30028 0.94608 0.43252 0.0
C1348 C 0.30521 0.93456 0.41716 0.0
C1349 C 0.31496 0.95748 0.4411 0.0
H1350 H 0.35305 0.94595 0.41252 0.0
H1351 H 0.29403 0.92575 0.41038 0.0
C1352 C 0.35978 0.88804 0.34083 0.0
N1353 N 0.3919 0.87365 0.3215 0.0
C1354 C 0.36626 0.8687 0.34375 0.0
C1355 C 0.36958 0.90003 0.32802 0.0
C1356 C 0.38253 0.8617 0.33384 0.0
C1357 C 0.38582 0.8925 0.31841 0.0
C1358 C 0.35551 0.90047 0.41114 0.0
C1359 C 0.37363 0.9088 0.41619 0.0
C1360 C 0.34205 0.89494 0.42488 0.0
C1361 C 0.37792 0.91157 0.43494 0.0
C1362 C 0.34687 0.89801 0.44347 0.0
N1363 N 0.36456 0.90618 0.44807 0.0
C1364 C 0.39522 0.93066 0.36203 0.0
C1365 C 0.39763 0.89686 0.37031 0.0
C1366 C 0.41572 0.93204 0.36046 0.0
N1367 N 0.38667 0.91324 0.36684 0.0
C1368 C 0.41814 0.89754 0.36881 0.0
C1369 C 0.42746 0.91535 0.36393 0.0
H1370 H 0.38614 0.94353 0.35967 0.0
H1371 H 0.39039 0.88329 0.37435 0.0
C1372 C 0.31749 0.85225 0.36128 0.0
N1373 N 0.32505 0.86131 0.3765 0.0
C1374 C 0.31377 0.832 0.36149 0.0
C1375 C 0.3253 0.83088 0.39317 0.0
C1376 C 0.32887 0.85115 0.39232 0.0
C1377 C 0.31793 0.82102 0.37752 0.0
H1378 H 0.31479 0.86073 0.34883 0.0
H1379 H 0.33518 0.85867 0.4041 0.0
O1380 O 0.3448 0.93653 0.3707 0.0
O1381 O 0.30938 0.90811 0.37571 0.0
O1382 O 0.34409 0.8953 0.35064 0.0
O1383 O 0.35091 0.89792 0.39285 0.0
H1384 H 0.32059 0.9638 0.384 0.0
H1385 H 0.35812 0.94845 0.33808 0.0
H1386 H 0.31201 0.99501 0.36796 0.0
H1387 H 0.34884 0.97993 0.32282 0.0
H1388 H 0.26782 0.86475 0.40383 0.0
H1389 H 0.28867 0.89781 0.34611 0.0
H1390 H 0.29544 0.88884 0.4048 0.0
H1391 H 0.26113 0.87365 0.34619 0.0
H1392 H 0.27398 0.95739 0.32743 0.0
H1393 H 0.30987 0.92288 0.28986 0.0
H1394 H 0.3458 0.96619 0.44001 0.0
H1395 H 0.28527 0.94598 0.43771 0.0
H1396 H 0.35899 0.85926 0.35372 0.0
H1397 H 0.36487 0.91509 0.3257 0.0
H1398 H 0.38777 0.84679 0.33601 0.0
H1399 H 0.39362 0.90165 0.30855 0.0
H1400 H 0.38419 0.91326 0.40576 0.0
H1401 H 0.32789 0.88867 0.42123 0.0
H1402 H 0.39184 0.91807 0.43904 0.0
H1403 H 0.33653 0.89395 0.45424 0.0
H1404 H 0.42231 0.94613 0.35696 0.0
H1405 H 0.42659 0.88426 0.37141 0.0
H1406 H 0.30795 0.82496 0.34918 0.0
H1407 H 0.32899 0.8229 0.4057 0.0
C1408 C 0.19067 0.79094 0.10617 0.0
C1409 C 0.17245 0.80011 0.10957 0.0
C1410 C 0.19225 0.77029 0.10558 0.0
C1411 C 0.1752 0.75858 0.10843 0.0
C1412 C 0.15673 0.76775 0.1116 0.0
C1413 C 0.1556 0.78839 0.11218 0.0
C1414 C 0.21218 0.76099 0.10214 0.0
C1415 C 0.13822 0.75575 0.11473 0.0
C1416 C 0.17343 0.70512 0.0929 0.0
C1417 C 0.17615 0.69509 0.10971 0.0
C1418 C 0.17361 0.72582 0.09217 0.0
C1419 C 0.17664 0.73671 0.10864 0.0
C1420 C 0.17995 0.72669 0.12556 0.0
C1421 C 0.17962 0.706 0.12589 0.0
C1422 C 0.17005 0.73602 0.07387 0.0
C1423 C 0.18325 0.73783 0.14341 0.0
H1424 H 0.20371 0.79993 0.10394 0.0
H1425 H 0.14153 0.79536 0.11511 0.0
H1426 H 0.21648 0.75183 0.11422 0.0
H1427 H 0.21143 0.75105 0.08995 0.0
H1428 H 0.22389 0.77218 0.09968 0.0
H1429 H 0.12491 0.76516 0.11641 0.0
H1430 H 0.13576 0.74558 0.10291 0.0
H1431 H 0.13992 0.74652 0.12733 0.0
H1432 H 0.17103 0.69676 0.0803 0.0
H1433 H 0.18148 0.69837 0.13898 0.0
H1434 H 0.18213 0.74664 0.07094 0.0
H1435 H 0.15611 0.74458 0.07455 0.0
H1436 H 0.16901 0.72541 0.06218 0.0
H1437 H 0.19548 0.74859 0.14175 0.0
H1438 H 0.18681 0.72784 0.15515 0.0
H1439 H 0.16978 0.74634 0.14698 0.0
C1440 C 0.45857 0.92723 0.34867 0.0
C1441 C 0.44933 0.91655 0.3629 0.0
C1442 C 0.47924 0.92846 0.34762 0.0
C1443 C 0.49089 0.9187 0.36107 0.0
C1444 C 0.48166 0.90793 0.37547 0.0
C1445 C 0.461 0.90705 0.37624 0.0
C1446 C 0.4886 0.94011 0.3321 0.0
C1447 C 0.4936 0.89732 0.39007 0.0
C1448 C 0.54402 0.90506 0.35055 0.0
C1449 C 0.55442 0.91952 0.36045 0.0
C1450 C 0.52331 0.90488 0.35028 0.0
C1451 C 0.51278 0.91957 0.3601 0.0
C1452 C 0.52317 0.93452 0.36971 0.0
C1453 C 0.54389 0.9343 0.3698 0.0
C1454 C 0.51272 0.88871 0.33985 0.0
C1455 C 0.51242 0.95044 0.38031 0.0
H1456 H 0.44965 0.93443 0.3382 0.0
H1457 H 0.45396 0.89907 0.38746 0.0
H1458 H 0.49826 0.95182 0.33788 0.0
H1459 H 0.49807 0.9303 0.3236 0.0
H1460 H 0.47744 0.94711 0.32293 0.0
H1461 H 0.48414 0.88953 0.4003 0.0
H1462 H 0.50351 0.88636 0.38343 0.0
H1463 H 0.50311 0.908 0.39757 0.0
H1464 H 0.55209 0.89379 0.34306 0.0
H1465 H 0.55183 0.94539 0.37765 0.0
H1466 H 0.5022 0.89521 0.32977 0.0
H1467 H 0.50398 0.87961 0.34966 0.0
H1468 H 0.52308 0.8789 0.33228 0.0
H1469 H 0.50164 0.958 0.37117 0.0
H1470 H 0.52266 0.96165 0.38614 0.0
H1471 H 0.50395 0.94371 0.39186 0.0
C1472 C 0.33164 0.29497 0.59925 0.0
C1473 C 0.32458 0.30537 0.61469 0.0
C1474 C 0.33143 0.27427 0.59885 0.0
C1475 C 0.32388 0.26373 0.61423 0.0
C1476 C 0.31624 0.27412 0.62964 0.0
C1477 C 0.31674 0.29481 0.62971 0.0
C1478 C 0.33971 0.26367 0.58218 0.0
C1479 C 0.30801 0.26337 0.64627 0.0
C1480 C 0.3101 0.20975 0.60825 0.0
C1481 C 0.32666 0.20024 0.61578 0.0
C1482 C 0.30897 0.23043 0.60763 0.0
C1483 C 0.32483 0.24183 0.61459 0.0
C1484 C 0.34163 0.23234 0.6221 0.0
C1485 C 0.3423 0.21167 0.62267 0.0
C1486 C 0.29079 0.24008 0.59957 0.0
C1487 C 0.35886 0.24401 0.62963 0.0
H1488 H 0.33743 0.30304 0.58747 0.0
H1489 H 0.3115 0.30272 0.64179 0.0
H1490 H 0.35272 0.25477 0.58635 0.0
H1491 H 0.32858 0.25331 0.57647 0.0
H1492 H 0.34429 0.27404 0.57105 0.0
H1493 H 0.30158 0.27362 0.65665 0.0
H1494 H 0.29642 0.25277 0.64188 0.0
H1495 H 0.3199 0.25471 0.65304 0.0
H1496 H 0.29807 0.20102 0.60268 0.0
H1497 H 0.355 0.20445 0.6288 0.0
H1498 H 0.29498 0.24962 0.58771 0.0
H1499 H 0.28377 0.24972 0.6101 0.0
H1500 H 0.27973 0.2291 0.59476 0.0
H1501 H 0.36482 0.25392 0.61874 0.0
H1502 H 0.37099 0.23436 0.63467 0.0
H1503 H 0.35387 0.25349 0.64125 0.0
C1504 C 0.04145 0.0579 0.85249 0.0
C1505 C 0.05133 0.06583 0.86786 0.0
C1506 C 0.02074 0.05787 0.85159 0.0
C1507 C 0.00972 0.06601 0.86639 0.0
C1508 C 0.0196 0.07364 0.8821 0.0
C1509 C 0.04029 0.07346 0.88264 0.0
C1510 C 0.01068 0.04948 0.83468 0.0
C1511 C 0.00834 0.08252 0.89812 0.0
C1512 C 0.95831 0.08598 0.8574 0.0
C1513 C 0.94639 0.071 0.86482 0.0
C1514 C 0.97895 0.08436 0.85751 0.0
C1515 C 0.98787 0.06732 0.86518 0.0
C1516 C 0.97593 0.05196 0.87234 0.0
C1517 C 0.95531 0.054 0.8721 0.0
C1518 C 0.99122 0.10103 0.8497 0.0
C1519 C 0.98494 0.03359 0.88064 0.0
H1520 H 0.04993 0.05181 0.84112 0.0
H1521 H 0.04784 0.07988 0.89443 0.0
H1522 H -0.00014 0.03799 0.83881 0.0
H1523 H 0.00234 0.0613 0.82747 0.0
H1524 H 0.02135 0.04289 0.82476 0.0
H1525 H 0.01822 0.08703 0.90966 0.0
H1526 H 3e-05 0.09568 0.89333 0.0
H1527 H 0.99739 0.07177 0.90352 0.0
H1528 H 0.95148 0.09901 0.85149 0.0
H1529 H 0.94619 0.04247 0.87804 0.0
H1530 H 0.00123 0.09538 0.83876 0.0
H1531 H 0.00063 0.10742 0.86077 0.0
H1532 H 0.98198 0.113 0.84374 0.0
H1533 H 0.99523 0.02664 0.87063 0.0
H1534 H 0.97359 0.02255 0.8847 0.0
H1535 H 0.99368 0.03756 0.89309 0.0
C1536 C 0.15798 0.29105 0.85958 0.0
C1537 C 0.17181 0.30237 0.86932 0.0
C1538 C 0.15829 0.27039 0.86052 0.0
C1539 C 0.17254 0.2609 0.87178 0.0
C1540 C 0.18659 0.27229 0.88162 0.0
C1541 C 0.18617 0.29294 0.88012 0.0
C1542 C 0.1433 0.25871 0.84956 0.0
C1543 C 0.20177 0.2627 0.89401 0.0
C1544 C 0.15939 0.2092 0.88774 0.0
C1545 C 0.1707 0.19762 0.87569 0.0
C1546 C 0.16028 0.22987 0.88695 0.0
C1547 C 0.17244 0.23907 0.87352 0.0
C1548 C 0.18399 0.22739 0.8614 0.0
C1549 C 0.18312 0.20675 0.86276 0.0
C1550 C 0.14806 0.24184 0.90036 0.0
C1551 C 0.19684 0.23668 0.84669 0.0
H1552 H 0.14699 0.29841 0.85111 0.0
H1553 H 0.19675 0.30176 0.88779 0.0
H1554 H 0.15093 0.24794 0.84046 0.0
H1555 H 0.13373 0.25016 0.85912 0.0
H1556 H 0.13378 0.26831 0.84086 0.0
H1557 H 0.21177 0.27367 0.90057 0.0
H1558 H 0.19424 0.25418 0.90508 0.0
H1559 H 0.21083 0.25211 0.88595 0.0
H1560 H 0.1499 0.20205 0.89782 0.0
H1561 H 0.19172 0.19771 0.85336 0.0
H1562 H 0.13693 0.25062 0.89266 0.0
H1563 H 0.15763 0.25243 0.90792 0.0
H1564 H 0.14025 0.23242 0.91061 0.0
H1565 H 0.18754 0.24539 0.83702 0.0
H1566 H 0.20517 0.22551 0.83858 0.0
H1567 H 0.20752 0.24704 0.85311 0.0
C1568 C 0.95355 0.9257 0.14549 0.0
C1569 C 0.94314 0.92838 0.12889 0.0
C1570 C 0.97426 0.92633 0.14585 0.0
C1571 C 0.98478 0.92976 0.12922 0.0
C1572 C 0.97435 0.93306 0.11252 0.0
C1573 C 0.95365 0.9323 0.11255 0.0
C1574 C 0.98488 0.92278 0.16394 0.0
C1575 C 0.98508 0.93676 0.09451 0.0
C1576 C 0.0389 0.94433 0.13215 0.0
C1577 C 0.04826 0.92613 0.1292 0.0
C1578 C 0.01821 0.94578 0.13216 0.0
C1579 C 0.00669 0.92865 0.12908 0.0
C1580 C 0.01607 0.91029 0.12593 0.0
C1581 C 0.03673 0.90926 0.12603 0.0
C1582 C 0.00869 0.9656 0.13559 0.0
C1583 C 0.00428 0.89171 0.12249 0.0
H1584 H 0.9455 0.92297 0.15821 0.0
H1585 H 0.94573 0.93415 0.09962 0.0
H1586 H 0.99369 0.909 0.16299 0.0
H1587 H 0.99533 0.93502 0.16679 0.0
H1588 H 0.97452 0.92142 0.1758 0.0
H1589 H 0.9748 0.94039 0.08301 0.0
H1590 H 0.99575 0.94907 0.09613 0.0
H1591 H 0.99365 0.92344 0.0906 0.0
H1592 H 0.04776 0.95737 0.13476 0.0
H1593 H 0.0439 0.89523 0.12342 0.0
H1594 H -0.00076 0.96484 0.14812 0.0
H1595 H -0.00103 0.96954 0.12379 0.0
H1596 H 0.01975 0.97754 0.13751 0.0
H1597 H 0.99448 0.88868 0.13448 0.0
H1598 H 0.01386 0.87862 0.1202 0.0
H1599 H 0.99468 0.89368 0.11018 0.0
C1600 C 0.30103 0.70367 0.37225 0.0
C1601 C 0.3178 0.69421 0.37943 0.0
C1602 C 0.29949 0.72433 0.37232 0.0
C1603 C 0.31513 0.73577 0.37965 0.0
C1604 C 0.3319 0.7263 0.38727 0.0
C1605 C 0.33299 0.70564 0.38713 0.0
C1606 C 0.28135 0.73392 0.36413 0.0
C1607 C 0.34888 0.73802 0.39523 0.0
C1608 C 0.32294 0.78813 0.36264 0.0
C1609 C 0.31581 0.79924 0.37759 0.0
C1610 C 0.3224 0.76745 0.36298 0.0
C1611 C 0.31446 0.75765 0.37862 0.0
C1612 C 0.30675 0.76878 0.39355 0.0
C1613 C 0.30758 0.78947 0.39288 0.0
C1614 C 0.33088 0.75608 0.34684 0.0
C1615 C 0.29801 0.75882 0.41037 0.0
H1616 H 0.28932 0.69494 0.36611 0.0
H1617 H 0.34582 0.69841 0.393 0.0
H1618 H 0.27477 0.74438 0.37421 0.0
H1619 H 0.28554 0.74257 0.35169 0.0
H1620 H 0.26996 0.72293 0.3601 0.0
H1621 H 0.36058 0.72839 0.40113 0.0
H1622 H 0.35556 0.74737 0.38427 0.0
H1623 H 0.34348 0.74805 0.40626 0.0
H1624 H 0.32956 0.7956 0.3509 0.0
H1625 H 0.30188 0.79804 0.40437 0.0
H1626 H 0.31977 0.74555 0.34136 0.0
H1627 H 0.34377 0.74729 0.35154 0.0
H1628 H 0.3357 0.76592 0.33539 0.0
H1629 H 0.28625 0.74834 0.40613 0.0
H1630 H 0.29166 0.76959 0.42032 0.0
H1631 H 0.30957 0.75013 0.41758 0.0
C1632 C 0.54005 0.0622 0.64272 0.0
C1633 C 0.54946 0.07233 0.62825 0.0
C1634 C 0.5194 0.0605 0.6433 0.0
C1635 C 0.50793 0.06919 0.62908 0.0
C1636 C 0.51736 0.07912 0.61427 0.0
C1637 C 0.53801 0.08053 0.61401 0.0
C1638 C 0.50984 0.0498 0.65931 0.0
C1639 C 0.50562 0.08855 0.59884 0.0
C1640 C 0.45454 0.05399 0.62154 0.0
C1641 C 0.4444 0.06952 0.63015 0.0
C1642 C 0.47527 0.05341 0.62145 0.0
C1643 C 0.48603 0.06878 0.63009 0.0
C1644 C 0.47587 0.08429 0.63909 0.0
C1645 C 0.45518 0.08448 0.639 0.0
C1646 C 0.48564 0.03657 0.61182 0.0
C1647 C 0.48684 0.101 0.64839 0.0
H1648 H 0.54881 0.05598 0.65385 0.0
H1649 H 0.54521 0.08806 0.60261 0.0
H1650 H 0.50079 0.06029 0.66749 0.0
H1651 H 0.49975 0.03815 0.65409 0.0
H1652 H 0.52088 0.04288 0.66866 0.0
H1653 H 0.51523 0.09519 0.58803 0.0
H1654 H 0.49588 0.07743 0.59222 0.0
H1655 H 0.49596 0.10029 0.60457 0.0
H1656 H 0.44626 0.0423 0.61485 0.0
H1657 H 0.44743 0.09668 0.64543 0.0
H1658 H 0.49609 0.02928 0.62148 0.0
H1659 H 0.49443 0.04232 0.60003 0.0
H1660 H 0.47513 0.02532 0.6065 0.0
H1661 H 0.49739 0.09506 0.65874 0.0
H1662 H 0.47673 0.11148 0.65545 0.0
H1663 H 0.49557 0.10926 0.63794 0.0
C1664 C 0.80136 0.20499 0.87835 0.0
C1665 C 0.8194 0.19581 0.87444 0.0
C1666 C 0.8 0.22566 0.87923 0.0
C1667 C 0.81699 0.23726 0.87564 0.0
C1668 C 0.83513 0.22797 0.87125 0.0
C1669 C 0.83616 0.20731 0.87093 0.0
C1670 C 0.78055 0.23506 0.88436 0.0
C1671 C 0.85346 0.23983 0.86693 0.0
C1672 C 0.81196 0.29109 0.86184 0.0
C1673 C 0.8181 0.30061 0.87805 0.0
C1674 C 0.81109 0.27042 0.86095 0.0
C1675 C 0.81606 0.25914 0.8768 0.0
C1676 C 0.82143 0.26879 0.89345 0.0
C1677 C 0.82265 0.28945 0.8938 0.0
C1678 C 0.80572 0.26065 0.84285 0.0
C1679 C 0.82639 0.25729 0.91075 0.0
H1680 H 0.78847 0.19597 0.88114 0.0
H1681 H 0.85004 0.20009 0.86777 0.0
H1682 H 0.78234 0.24389 0.8972 0.0
H1683 H 0.77574 0.24534 0.87329 0.0
H1684 H 0.76872 0.22394 0.88664 0.0
H1685 H 0.86611 0.23032 0.86289 0.0
H1686 H 0.85042 0.25035 0.8555 0.0
H1687 H 0.85782 0.24865 0.87921 0.0
H1688 H 0.80861 0.29982 0.84965 0.0
H1689 H 0.82731 0.29694 0.90634 0.0
H1690 H 0.79343 0.25004 0.84492 0.0
H1691 H 0.81855 0.25213 0.83761 0.0
H1692 H 0.80129 0.27152 0.8321 0.0
H1693 H 0.8145 0.24652 0.91388 0.0
H1694 H 0.82848 0.26704 0.92296 0.0
H1695 H 0.84018 0.24877 0.90855 0.0
C1696 C 0.69483 0.70617 0.3733 0.0
C1697 C 0.67599 0.69803 0.37052 0.0
C1698 C 0.69775 0.7267 0.37303 0.0
C1699 C 0.68142 0.73935 0.37008 0.0
C1700 C 0.66244 0.73122 0.36706 0.0
C1701 C 0.65998 0.71068 0.3672 0.0
C1702 C 0.71823 0.73486 0.37617 0.0
C1703 C 0.64464 0.74424 0.3639 0.0
C1704 C 0.68191 0.79204 0.38767 0.0
C1705 C 0.68449 0.80277 0.37122 0.0
C1706 C 0.68149 0.77135 0.38758 0.0
C1707 C 0.68393 0.76113 0.37065 0.0
C1708 C 0.6874 0.77181 0.35412 0.0
C1709 C 0.68755 0.79253 0.35458 0.0
C1710 C 0.67771 0.76047 0.40549 0.0
C1711 C 0.69022 0.7614 0.33582 0.0
H1712 H 0.70725 0.69652 0.37604 0.0
H1713 H 0.64546 0.70452 0.36465 0.0
H1714 H 0.72242 0.7448 0.36459 0.0
H1715 H 0.71847 0.74381 0.38903 0.0
H1716 H 0.72951 0.72303 0.37737 0.0
H1717 H 0.63092 0.73557 0.36161 0.0
H1718 H 0.64238 0.75401 0.37604 0.0
H1719 H 0.64711 0.75388 0.3517 0.0
H1720 H 0.67991 0.79985 0.40064 0.0
H1721 H 0.68935 0.80069 0.34178 0.0
H1722 H 0.68938 0.74926 0.40788 0.0
H1723 H 0.66342 0.7525 0.40461 0.0
H1724 H 0.67722 0.77055 0.41761 0.0
H1725 H 0.7017 0.74979 0.33711 0.0
H1726 H 0.69458 0.77173 0.32459 0.0
H1727 H 0.67627 0.75398 0.33175 0.0
C1728 C 0.8237 0.7057 0.10243 0.0
C1729 C 0.81682 0.69531 0.11791 0.0
C1730 C 0.82258 0.72635 0.10172 0.0
C1731 C 0.81481 0.7368 0.11706 0.0
C1732 C 0.80741 0.7263 0.13255 0.0
C1733 C 0.80834 0.70561 0.13271 0.0
C1734 C 0.83023 0.737 0.08481 0.0
C1735 C 0.79933 0.73695 0.14928 0.0
C1736 C 0.83396 0.78889 0.12376 0.0
C1737 C 0.81802 0.80022 0.11747 0.0
C1738 C 0.83296 0.76823 0.12395 0.0
C1739 C 0.8157 0.7587 0.11739 0.0
C1740 C 0.79956 0.77008 0.11095 0.0
C1741 C 0.80085 0.79077 0.11124 0.0
C1742 C 0.85035 0.7566 0.1312 0.0
C1743 C 0.78109 0.76041 0.10356 0.0
H1744 H 0.83011 0.69763 0.09094 0.0
H1745 H 0.80316 0.69749 0.14472 0.0
H1746 H 0.819 0.74756 0.07961 0.0
H1747 H 0.84356 0.74568 0.08851 0.0
H1748 H 0.83416 0.72666 0.07345 0.0
H1749 H 0.79318 0.72661 0.15975 0.0
H1750 H 0.81127 0.74572 0.15586 0.0
H1751 H 0.78758 0.74744 0.14508 0.0
H1752 H 0.84714 0.79624 0.12879 0.0
H1753 H 0.78857 0.79958 0.10629 0.0
H1754 H 0.85639 0.74706 0.12008 0.0
H1755 H 0.84553 0.74677 0.14264 0.0
H1756 H 0.86238 0.7663 0.13637 0.0
H1757 H 0.78484 0.75087 0.09158 0.0
H1758 H 0.76986 0.77138 0.09909 0.0
H1759 H 0.77445 0.75077 0.11431 0.0
C1760 C 0.68793 0.29053 0.62998 0.0
C1761 C 0.68228 0.30043 0.61382 0.0
C1762 C 0.68842 0.26983 0.63057 0.0
C1763 C 0.68355 0.25892 0.61448 0.0
C1764 C 0.67872 0.26895 0.59788 0.0
C1765 C 0.67789 0.28963 0.59782 0.0
C1766 C 0.69323 0.25966 0.64863 0.0
C1767 C 0.67387 0.25783 0.58033 0.0
C1768 C 0.69705 0.2045 0.61281 0.0
C1769 C 0.67876 0.19567 0.61645 0.0
C1770 C 0.69886 0.22513 0.61197 0.0
C1771 C 0.68207 0.23706 0.61534 0.0
C1772 C 0.66364 0.22812 0.61936 0.0
C1773 C 0.66217 0.20749 0.61963 0.0
C1774 C 0.71861 0.23415 0.60722 0.0
C1775 C 0.64549 0.24033 0.62343 0.0
H1776 H 0.69115 0.29898 0.64237 0.0
H1777 H 0.67362 0.2974 0.58531 0.0
H1778 H 0.6801 0.25137 0.65355 0.0
H1779 H 0.70529 0.2488 0.64661 0.0
H1780 H 0.69774 0.27026 0.65958 0.0
H1781 H 0.67232 0.26782 0.56821 0.0
H1782 H 0.68555 0.24681 0.5773 0.0
H1783 H 0.65981 0.24964 0.58215 0.0
H1784 H 0.70982 0.19522 0.6103 0.0
H1785 H 0.64809 0.20053 0.62259 0.0
H1786 H 0.72354 0.24404 0.61855 0.0
H1787 H 0.71722 0.24333 0.59455 0.0
H1788 H 0.73017 0.2228 0.60484 0.0
H1789 H 0.6485 0.25058 0.63508 0.0
H1790 H 0.63251 0.23106 0.62705 0.0
H1791 H 0.64167 0.24947 0.6112 0.0
C1792 C 0.04207 0.4343 0.88539 0.0
C1793 C 0.0522 0.42935 0.86911 0.0
C1794 C 0.02135 0.43482 0.88581 0.0
C1795 C 0.01058 0.43041 0.86952 0.0
C1796 C 0.02076 0.42602 0.8529 0.0
C1797 C 0.04146 0.42547 0.85292 0.0
C1798 C 0.011 0.43942 0.90381 0.0
C1799 C 0.00979 0.42144 0.83521 0.0
C1800 C 0.95869 0.4099 0.87393 0.0
C1801 C 0.94712 0.42657 0.87013 0.0
C1802 C 0.97936 0.41104 0.87401 0.0
C1803 C 0.98868 0.42928 0.87007 0.0
C1804 C 0.97709 0.44621 0.86634 0.0
C1805 C 0.9564 0.44467 0.8665 0.0
C1806 C 0.99122 0.3927 0.87822 0.0
C1807 C 0.98653 0.46586 0.86195 0.0
H1808 H 0.05034 0.43714 0.89797 0.0
H1809 H 0.04928 0.42189 0.84026 0.0
H1810 H 0.00033 0.45166 0.90183 0.0
H1811 H 0.00246 0.42633 0.90845 0.0
H1812 H 0.02151 0.4436 0.91496 0.0
H1813 H 0.0199 0.4195 0.82324 0.0
H1814 H 0.00107 0.40769 0.83698 0.0
H1815 H -0.00078 0.43346 0.83197 0.0
H1816 H 0.95155 0.39595 0.87702 0.0
H1817 H 0.94748 0.45754 0.86343 0.0
H1818 H 0.00113 0.39542 0.89019 0.0
H1819 H 0.0007 0.38893 0.86621 0.0
H1820 H 0.98169 0.37979 0.88144 0.0
H1821 H 0.99646 0.47038 0.87341 0.0
H1822 H 0.97543 0.47768 0.85969 0.0
H1823 H 0.99575 0.46452 0.8493 0.0
C1824 C 0.53545 0.57398 0.35149 0.0
C1825 C 0.54683 0.56793 0.36665 0.0
C1826 C 0.51481 0.57243 0.35186 0.0
C1827 C 0.50538 0.56508 0.36795 0.0
C1828 C 0.51687 0.55851 0.38314 0.0
C1829 C 0.53753 0.55985 0.38222 0.0
C1830 C 0.50308 0.5792 0.33524 0.0
C1831 C 0.50733 0.55092 0.40065 0.0
C1832 C 0.45337 0.5839 0.37585 0.0
C1833 C 0.44204 0.56762 0.37048 0.0
C1834 C 0.47404 0.58304 0.37557 0.0
C1835 C 0.4835 0.56561 0.36934 0.0
C1836 C 0.47204 0.54908 0.36396 0.0
C1837 C 0.45135 0.55021 0.36479 0.0
C1838 C 0.48574 0.60085 0.38176 0.0
C1839 C 0.48161 0.53042 0.35691 0.0
H1840 H 0.54274 0.58009 0.3394 0.0
H1841 H 0.5464 0.55532 0.39399 0.0
H1842 H 0.49245 0.56758 0.33099 0.0
H1843 H 0.49439 0.59252 0.3389 0.0
H1844 H 0.5127 0.58284 0.32325 0.0
H1845 H 0.51835 0.5453 0.41074 0.0
H1846 H 0.4988 0.56299 0.40729 0.0
H1847 H 0.49675 0.53891 0.3974 0.0
H1848 H 0.446 0.59729 0.3803 0.0
H1849 H 0.44241 0.53771 0.36057 0.0
H1850 H 0.49442 0.60678 0.36997 0.0
H1851 H 0.49639 0.59656 0.39272 0.0
H1852 H 0.47613 0.61281 0.38718 0.0
H1853 H 0.49022 0.53371 0.3442 0.0
H1854 H 0.47061 0.51875 0.35365 0.0
H1855 H 0.49212 0.52458 0.36733 0.0
C1856 C 0.54441 0.43568 0.60746 0.0
C1857 C 0.5549 0.43069 0.62351 0.0
C1858 C 0.52372 0.43691 0.60768 0.0
C1859 C 0.5134 0.43334 0.62441 0.0
C1860 C 0.52403 0.42913 0.64083 0.0
C1861 C 0.54467 0.42769 0.64014 0.0
C1862 C 0.51288 0.44117 0.58985 0.0
C1863 C 0.51357 0.42556 0.659 0.0
C1864 C 0.45962 0.44883 0.6281 0.0
C1865 C 0.44993 0.43075 0.6255 0.0
C1866 C 0.48032 0.44994 0.62781 0.0
C1867 C 0.49148 0.43262 0.62452 0.0
C1868 C 0.48171 0.41439 0.62162 0.0
C1869 C 0.46105 0.41366 0.62229 0.0
C1870 C 0.49025 0.46956 0.63127 0.0
C1871 C 0.49309 0.39566 0.61779 0.0
H1872 H 0.55235 0.43785 0.59458 0.0
H1873 H 0.55284 0.42402 0.65258 0.0
H1874 H 0.50395 0.4281 0.58585 0.0
H1875 H 0.5025 0.45367 0.59177 0.0
H1876 H 0.5231 0.44478 0.5783 0.0
H1877 H 0.52405 0.42413 0.67076 0.0
H1878 H 0.50321 0.43784 0.66199 0.0
H1879 H 0.5047 0.41182 0.6581 0.0
H1880 H 0.45098 0.46202 0.63067 0.0
H1881 H 0.45352 0.39973 0.62004 0.0
H1882 H 0.49979 0.47351 0.61934 0.0
H1883 H 0.49994 0.46848 0.64362 0.0
H1884 H 0.47944 0.48165 0.63352 0.0
H1885 H 0.50274 0.39771 0.60552 0.0
H1886 H 0.48322 0.38283 0.61525 0.0
H1887 H 0.50281 0.39215 0.62971 0.0
C1888 C 0.04064 0.56963 0.13955 0.0
C1889 C 0.05121 0.56573 0.12324 0.0
C1890 C 0.01994 0.56935 0.13975 0.0
C1891 C 0.00954 0.56486 0.12328 0.0
C1892 C 0.02008 0.56014 0.10695 0.0
C1893 C 0.04079 0.56074 0.1071 0.0
C1894 C 0.00919 0.57451 0.15742 0.0
C1895 C 0.00949 0.55513 0.08916 0.0
C1896 C 0.95509 0.55197 0.12735 0.0
C1897 C 0.94615 0.57005 0.12289 0.0
C1898 C 0.97572 0.54994 0.1273 0.0
C1899 C 0.98767 0.56643 0.12283 0.0
C1900 C 0.97874 0.58464 0.11816 0.0
C1901 C 0.95811 0.58619 0.11813 0.0
C1902 C 0.98475 0.53024 0.1322 0.0
C1903 C 0.99099 0.60258 0.11336 0.0
H1904 H 0.04858 0.57314 0.15216 0.0
H1905 H 0.04879 0.55793 0.09437 0.0
H1906 H 0.00064 0.58832 0.1554 0.0
H1907 H 0.9985 0.56272 0.16104 0.0
H1908 H 0.01944 0.57664 0.16927 0.0
H1909 H 0.01981 0.55015 0.07815 0.0
H1910 H 0.9984 0.54335 0.09162 0.0
H1911 H 0.00141 0.5683 0.08406 0.0
H1912 H 0.94596 0.53948 0.13122 0.0
H1913 H 0.95134 0.60009 0.11429 0.0
H1914 H 0.99392 0.53173 0.14485 0.0
H1915 H 0.99466 0.52525 0.12089 0.0
H1916 H 0.9734 0.51869 0.13466 0.0
H1917 H 0.00084 0.60637 0.12512 0.0
H1918 H 0.98175 0.61566 0.11006 0.0
H1919 H 0.00056 0.59935 0.10127 0.0
C1920 C 0.21457 0.51255 0.0343 0.0
C1921 C 0.20178 0.52864 0.03206 0.0
C1922 C 0.21832 0.49962 0.01953 0.0
C1923 C 0.20898 0.50294 0.00227 0.0
C1924 C 0.19732 0.52005 -0.0004 0.0
C1925 C 0.19387 0.5327 0.01455 0.0
C1926 C 0.23103 0.48166 0.02281 0.0
C1927 C 0.18725 0.52422 0.98135 0.0
C1928 C 0.21972 0.47518 0.95788 0.0
C1929 C 0.20369 0.46205 0.95733 0.0
C1930 C 0.2225 0.48783 0.97305 0.0
C1931 C 0.20884 0.48735 0.98787 0.0
C1932 C 0.19337 0.47328 0.98788 0.0
C1933 C 0.19098 0.46082 0.9726 0.0
C1934 C 0.23933 0.50244 0.97272 0.0
C1935 C 0.17848 0.47229 0.00345 0.0
H1936 H 0.22069 0.50939 0.04785 0.0
H1937 H 0.18428 0.54537 0.01276 0.0
H1938 H 0.22145 0.46845 0.02424 0.0
H1939 H 0.24104 0.47906 0.0109 0.0
H1940 H 0.24002 0.48311 0.03561 0.0
H1941 H 0.18045 0.53914 0.98099 0.0
H1942 H 0.19792 0.52302 0.96976 0.0
H1943 H 0.17547 0.5131 0.97896 0.0
H1944 H 0.22975 0.47597 0.9462 0.0
H1945 H 0.17843 0.45089 0.97219 0.0
H1946 H 0.2468 0.50304 0.98638 0.0
H1947 H 0.23348 0.51741 0.96977 0.0
H1948 H 0.25043 0.49872 0.96193 0.0
H1949 H 0.1861 0.47143 0.01702 0.0
H1950 H 0.16845 0.45938 0.00213 0.0
H1951 H 0.16939 0.48592 0.00347 0.0
C1952 C 0.71551 0.9714 0.27589 0.0
C1953 C 0.72353 0.96063 0.29068 0.0
C1954 C 0.72579 0.97321 0.2591 0.0
C1955 C 0.74428 0.96372 0.25708 0.0
C1956 C 0.75311 0.95424 0.27246 0.0
C1957 C 0.74263 0.95288 0.28911 0.0
C1958 C 0.71618 0.98393 0.24316 0.0
C1959 C 0.77277 0.94385 0.27085 0.0
C1960 C 0.7572 0.93888 0.21196 0.0
C1961 C 0.77301 0.95045 0.20568 0.0
C1962 C 0.74716 0.94362 0.22827 0.0
C1963 C 0.75281 0.96059 0.2384 0.0
C1964 C 0.76782 0.97313 0.23149 0.0
C1965 C 0.77788 0.96782 0.21523 0.0
C1966 C 0.73119 0.92983 0.23515 0.0
C1967 C 0.77391 0.99157 0.24172 0.0
H1968 H 0.70084 0.97765 0.27719 0.0
H1969 H 0.74883 0.94442 0.30046 0.0
H1970 H 0.7272 0.99285 0.23543 0.0
H1971 H 0.70985 0.97301 0.23337 0.0
H1972 H 0.70409 0.99378 0.24793 0.0
H1973 H 0.77862 0.93924 0.28456 0.0
H1974 H 0.77105 0.93049 0.2621 0.0
H1975 H 0.78381 0.95353 0.26406 0.0
H1976 H 0.75298 0.92575 0.20433 0.0
H1977 H 0.79008 0.97685 0.21043 0.0
H1978 H 0.71735 0.93812 0.23773 0.0
H1979 H 0.73581 0.92311 0.24848 0.0
H1980 H 0.72799 0.91776 0.22517 0.0
H1981 H 0.76076 -0.00016 0.2466 0.0
H1982 H 0.78305 0.00148 0.23293 0.0
H1983 H 0.78268 0.98746 0.2541 0.0
C1984 C 0.31292 0.4898 0.5314 0.0
C1985 C 0.30085 0.47462 0.53819 0.0
C1986 C 0.30823 0.49969 0.51498 0.0
C1987 C 0.29084 0.49451 0.50525 0.0
C1988 C 0.27799 0.47997 0.51253 0.0
C1989 C 0.28322 0.47007 0.52891 0.0
C1990 C 0.32234 0.51516 0.5077 0.0
C1991 C 0.25917 0.47433 0.50267 0.0
C1992 C 0.27932 0.53274 0.4688 0.0
C1993 C 0.28923 0.5248 0.45347 0.0
C1994 C 0.27804 0.52218 0.48547 0.0
C1995 C 0.2872 0.50346 0.48682 0.0
C1996 C 0.29583 0.49476 0.47094 0.0
C1997 C 0.29665 0.50553 0.4544 0.0
C1998 C 0.26826 0.53171 0.50198 0.0
C1999 C 0.30586 0.47487 0.47183 0.0
H2000 H 0.32629 0.49373 0.53878 0.0
H2001 H 0.27384 0.45833 0.53409 0.0
H2002 H 0.32833 0.51042 0.49411 0.0
H2003 H 0.31447 0.52932 0.5055 0.0
H2004 H 0.33492 0.51783 0.51726 0.0
H2005 H 0.24945 0.46498 0.51144 0.0
H2006 H 0.25087 0.48772 0.49842 0.0
H2007 H 0.2628 0.466 0.48989 0.0
H2008 H 0.27334 0.54756 0.46799 0.0
H2009 H 0.30443 0.49941 0.4426 0.0
H2010 H 0.27977 0.53734 0.51156 0.0
H2011 H 0.25923 0.52081 0.50972 0.0
H2012 H 0.2587 0.54428 0.49784 0.0
H2013 H 0.3197 0.47618 0.47997 0.0
H2014 H 0.30961 0.46914 0.45785 0.0
H2015 H 0.29631 0.46394 0.47895 0.0
C2016 C 0.72202 0.03194 0.7139 0.0
C2017 C 0.71766 0.05137 0.70862 0.0
C2018 C 0.73393 0.02815 0.72942 0.0
C2019 C 0.74185 0.0442 0.73955 0.0
C2020 C 0.7377 0.06383 0.73403 0.0
C2021 C 0.72554 0.06715 0.7187 0.0
C2022 C 0.73782 0.00707 0.73513 0.0
C2023 C 0.74612 0.08136 0.74429 0.0
C2024 C 0.75791 0.0433 0.78951 0.0
C2025 C 0.77853 0.04417 0.78769 0.0
C2026 C 0.74572 0.04147 0.77393 0.0
C2027 C 0.75436 0.04085 0.7561 0.0
C2028 C 0.77515 0.04019 0.75425 0.0
C2029 C 0.78699 0.04169 0.7701 0.0
C2030 C 0.72359 0.04186 0.77648 0.0
C2031 C 0.78492 0.03958 0.73546 0.0
H2032 H 0.71584 0.01977 0.70605 0.0
H2033 H 0.72238 0.08216 0.7144 0.0
H2034 H 0.75394 0.00423 0.73558 0.0
H2035 H 0.73201 0.00451 0.7493 0.0
H2036 H 0.73086 0.99627 0.72557 0.0
H2037 H 0.7419 0.09564 0.73783 0.0
H2038 H 0.74084 0.08131 0.75883 0.0
H2039 H 0.76248 0.08041 0.74466 0.0
H2040 H 0.75116 0.04531 0.80299 0.0
H2041 H 0.80292 0.04181 0.76862 0.0
H2042 H 0.71636 0.03078 0.76743 0.0
H2043 H 0.71785 0.0566 0.77249 0.0
H2044 H 0.71927 0.03893 0.79107 0.0
H2045 H 0.77781 0.02838 0.72646 0.0
H2046 H 0.80094 0.03623 0.73646 0.0
H2047 H 0.78316 0.05414 0.72859 0.0
C2048 C 0.8172 0.47675 0.96995 0.0
C2049 C 0.80147 0.46841 0.96006 0.0
C2050 C 0.81381 0.48863 0.98546 0.0
C2051 C 0.79417 0.49225 0.99127 0.0
C2052 C 0.77818 0.48395 0.98133 0.0
C2053 C 0.78202 0.47215 0.96575 0.0
C2054 C 0.83128 0.49735 0.9956 0.0
C2055 C 0.75708 0.48743 0.98724 0.0
C2056 C 0.79276 0.50821 0.04132 0.0
C2057 C 0.79338 0.52882 0.03951 0.0
C2058 C 0.79138 0.49602 0.02569 0.0
C2059 C 0.79074 0.50468 0.00786 0.0
C2060 C 0.78981 0.52546 0.00604 0.0
C2061 C 0.7911 0.5373 0.02191 0.0
C2062 C 0.79225 0.47391 0.0282 0.0
C2063 C 0.789 0.53525 0.98727 0.0
H2064 H 0.83223 0.4742 0.96537 0.0
H2065 H 0.76985 0.46563 0.95815 0.0
H2066 H 0.83017 0.51369 0.99575 0.0
H2067 H 0.83131 0.49228 0.01021 0.0
H2068 H 0.8456 0.49319 0.98917 0.0
H2069 H 0.74631 0.48015 0.97785 0.0
H2070 H 0.7548 0.48174 0.00149 0.0
H2071 H 0.75392 0.5035 0.98755 0.0
H2072 H 0.79463 0.50152 0.05484 0.0
H2073 H 0.79117 0.55323 0.02048 0.0
H2074 H 0.80706 0.46849 0.02402 0.0
H2075 H 0.78121 0.46647 0.01926 0.0
H2076 H 0.78961 0.46949 0.04281 0.0
H2077 H 0.80355 0.5337 0.98033 0.0
H2078 H 0.78545 0.55122 0.98829 0.0
H2079 H 0.77784 0.528 0.97831 0.0
C2080 C 0.21599 0.0403 0.7778 0.0
C2081 C 0.223 0.05388 0.79095 0.0
C2082 C 0.22605 0.03732 0.76104 0.0
C2083 C 0.24312 0.04864 0.75715 0.0
C2084 C 0.25083 0.06156 0.77074 0.0
C2085 C 0.24089 0.06371 0.78759 0.0
C2086 C 0.21786 0.02282 0.74716 0.0
C2087 C 0.2689 0.07408 0.76706 0.0
C2088 C 0.27898 0.04091 0.71762 0.0
C2089 C 0.2724 0.05516 0.7049 0.0
C2090 C 0.26864 0.0374 0.73414 0.0
C2091 C 0.25176 0.04886 0.73828 0.0
C2092 C 0.24444 0.06245 0.72507 0.0
C2093 C 0.25463 0.06513 0.70841 0.0
C2094 C 0.27641 0.0222 0.74758 0.0
C2095 C 0.22657 0.07513 0.72903 0.0
H2096 H 0.2022 0.03259 0.7802 0.0
H2097 H 0.24683 0.07367 0.79792 0.0
H2098 H 0.21009 0.03094 0.73599 0.0
H2099 H 0.22992 0.01418 0.74063 0.0
H2100 H 0.20719 0.01243 0.75364 0.0
H2101 H 0.27335 0.08289 0.77934 0.0
H2102 H 0.28151 0.06464 0.7629 0.0
H2103 H 0.26588 0.08437 0.75543 0.0
H2104 H 0.29266 0.03307 0.71511 0.0
H2105 H 0.24899 0.07561 0.69839 0.0
H2106 H 0.26412 0.0135 0.75365 0.0
H2107 H 0.28416 0.02972 0.75912 0.0
H2108 H 0.28698 0.01191 0.74085 0.0
H2109 H 0.21379 0.06578 0.73296 0.0
H2110 H 0.22229 0.08435 0.71695 0.0
H2111 H 0.22975 0.08504 0.7409 0.0
C2112 C 0.71189 0.52996 0.46386 0.0
C2113 C 0.69271 0.53 0.45647 0.0
C2114 C 0.71657 0.51833 0.47937 0.0
C2115 C 0.70168 0.50666 0.4877 0.0
C2116 C 0.68239 0.50647 0.48015 0.0
C2117 C 0.6782 0.51802 0.46458 0.0
C2118 C 0.73733 0.5187 0.48697 0.0
C2119 C 0.66606 0.49422 0.48864 0.0
C2120 C 0.70985 0.46259 0.51883 0.0
C2121 C 0.70472 0.47046 0.53611 0.0
C2122 C 0.71057 0.47461 0.50303 0.0
C2123 C 0.70579 0.49488 0.5046 0.0
C2124 C 0.70201 0.50316 0.52224 0.0
C2125 C 0.70158 0.49083 0.53782 0.0
C2126 C 0.71502 0.46532 0.48449 0.0
C2127 C 0.69674 0.52468 0.52448 0.0
H2128 H 0.72315 0.53926 0.45771 0.0
H2129 H 0.66349 0.51757 0.45868 0.0
H2130 H 0.73725 0.52492 0.50118 0.0
H2131 H 0.74324 0.50346 0.48797 0.0
H2132 H 0.74747 0.52766 0.47827 0.0
H2133 H 0.65185 0.49579 0.48108 0.0
H2134 H 0.67028 0.4784 0.48867 0.0
H2135 H 0.66371 0.49869 0.50325 0.0
H2136 H 0.71254 0.44687 0.51755 0.0
H2137 H 0.69747 0.49695 0.55115 0.0
H2138 H 0.72532 0.4747 0.47641 0.0
H2139 H 0.70115 0.46401 0.47639 0.0
H2140 H 0.72154 0.45036 0.48599 0.0
H2141 H 0.70712 0.53417 0.51661 0.0
H2142 H 0.69687 0.52935 0.53923 0.0
H2143 H 0.68172 0.52729 0.51881 0.0
C2144 C 0.28386 0.94903 0.27313 0.0
C2145 C 0.27655 0.94563 0.29102 0.0
C2146 C 0.27114 0.94962 0.25785 0.0
C2147 C 0.25062 0.94693 0.26058 0.0
C2148 C 0.24298 0.94515 0.27874 0.0
C2149 C 0.25607 0.9444 0.29376 0.0
C2150 C 0.27983 0.95162 0.23867 0.0
C2151 C 0.22115 0.94253 0.28222 0.0
C2152 C 0.21686 0.95479 0.21924 0.0
C2153 C 0.21486 0.93541 0.21262 0.0
C2154 C 0.22811 0.95883 0.23512 0.0
C2155 C 0.23765 0.94312 0.24443 0.0
C2156 C 0.23533 0.92351 0.23803 0.0
C2157 C 0.22387 0.9199 0.22228 0.0
C2158 C 0.23011 0.97988 0.24173 0.0
C2159 C 0.24525 0.90633 0.24761 0.0
H2160 H 0.29965 0.95042 0.27099 0.0
H2161 H 0.25027 0.94165 0.30751 0.0
H2162 H 0.2786 0.93728 0.23132 0.0
H2163 H 0.27154 0.96271 0.23048 0.0
H2164 H 0.29564 0.95597 0.23905 0.0
H2165 H 0.21732 0.94461 0.29705 0.0
H2166 H 0.21244 0.95309 0.27379 0.0
H2167 H 0.21665 0.92741 0.27805 0.0
H2168 H 0.21003 0.96686 0.21174 0.0
H2169 H 0.22201 0.90485 0.21747 0.0
H2170 H 0.24568 0.98476 0.24032 0.0
H2171 H 0.2262 0.98093 0.25662 0.0
H2172 H 0.22057 0.99018 0.23377 0.0
H2173 H 0.26151 0.90842 0.24749 0.0
H2174 H 0.24178 0.89197 0.24093 0.0
H2175 H 0.24053 0.90563 0.26231 0.0
C2176 C 0.70736 0.0142 0.53771 0.0
C2177 C 0.69272 0.02878 0.53719 0.0
C2178 C 0.71029 0.00159 0.52253 0.0
C2179 C 0.69842 0.00391 0.50654 0.0
C2180 C 0.68451 0.01948 0.50559 0.0
C2181 C 0.68172 0.03164 0.52102 0.0
C2182 C 0.72517 0.98509 0.52406 0.0
C2183 C 0.67179 0.02264 0.48866 0.0
C2184 C 0.70862 0.97921 0.46048 0.0
C2185 C 0.69414 0.96442 0.46051 0.0
C2186 C 0.71104 0.99163 0.47586 0.0
C2187 C 0.6988 0.98896 0.49156 0.0
C2188 C 0.68511 0.97315 0.49206 0.0
C2189 C 0.68284 0.96116 0.47644 0.0
C2190 C 0.7257 0.00839 0.47481 0.0
C2191 C 0.67202 0.96962 0.50867 0.0
H2192 H 0.71578 0.01201 0.55032 0.0
H2193 H 0.67052 0.04308 0.52066 0.0
H2194 H 0.71728 0.9708 0.52544 0.0
H2195 H 0.73436 0.98423 0.51137 0.0
H2196 H 0.73502 0.98694 0.53624 0.0
H2197 H 0.66319 0.03658 0.48944 0.0
H2198 H 0.68105 0.023 0.47598 0.0
H2199 H 0.66128 0.01016 0.48719 0.0
H2200 H 0.71728 0.98174 0.44807 0.0
H2201 H 0.67181 0.94954 0.47645 0.0
H2202 H 0.73447 0.00935 0.48775 0.0
H2203 H 0.71763 0.02255 0.47324 0.0
H2204 H 0.73596 0.00674 0.4629 0.0
H2205 H 0.68092 0.96947 0.52157 0.0
H2206 H 0.66379 0.95547 0.50765 0.0
H2207 H 0.66116 0.98182 0.50989 0.0
C2208 C 0.27063 0.46449 0.7103 0.0
C2209 C 0.2847 0.44933 0.71091 0.0
C2210 C 0.25798 0.46786 0.72537 0.0
C2211 C 0.25962 0.45585 0.74135 0.0
C2212 C 0.27469 0.44141 0.74243 0.0
C2213 C 0.28699 0.43827 0.72715 0.0
C2214 C 0.24209 0.48338 0.72373 0.0
C2215 C 0.27708 0.42846 0.75932 0.0
C2216 C 0.23406 0.46658 0.78694 0.0
C2217 C 0.2184 0.453 0.78638 0.0
C2218 C 0.24712 0.46851 0.77195 0.0
C2219 C 0.24435 0.45662 0.75605 0.0
C2220 C 0.22792 0.44376 0.75498 0.0
C2221 C 0.21521 0.44204 0.77018 0.0
C2222 C 0.26443 0.48246 0.77352 0.0
C2223 C 0.2244 0.43089 0.73821 0.0
H2224 H 0.26882 0.47299 0.69769 0.0
H2225 H 0.29809 0.42674 0.72767 0.0
H2226 H 0.22754 0.47608 0.722 0.0
H2227 H 0.24133 0.49244 0.7365 0.0
H2228 H 0.24458 0.49331 0.71169 0.0
H2229 H 0.29068 0.41932 0.75867 0.0
H2230 H 0.27761 0.4376 0.77206 0.0
H2231 H 0.26416 0.41845 0.76056 0.0
H2232 H 0.23643 0.47533 0.79931 0.0
H2233 H 0.20334 0.43131 0.76968 0.0
H2234 H 0.26589 0.4915 0.76078 0.0
H2235 H 0.27825 0.47382 0.77503 0.0
H2236 H 0.26304 0.49248 0.78563 0.0
H2237 H 0.22493 0.43987 0.72537 0.0
H2238 H 0.20994 0.42317 0.73882 0.0
H2239 H 0.23625 0.41963 0.73722 0.0
C2240 C 0.81347 0.03461 0.97509 0.0
C2241 C 0.80196 0.03256 0.95912 0.0
C2242 C 0.81033 0.02246 0.99048 0.0
C2243 C 0.79545 0.00779 0.98973 0.0
C2244 C 0.78296 0.00648 0.97406 0.0
C2245 C 0.78633 0.01899 0.95889 0.0
C2246 C 0.82379 0.02452 0.00705 0.0
C2247 C 0.76695 0.99103 0.9728 0.0
C2248 C 0.80995 0.96335 0.01807 0.0
C2249 C 0.79991 0.9669 0.03468 0.0
C2250 C 0.80753 0.97587 0.00284 0.0
C2251 C 0.79486 0.99242 0.00435 0.0
C2252 C 0.78368 0.99534 0.02068 0.0
C2253 C 0.78631 0.98245 0.03571 0.0
C2254 C 0.81952 0.9721 0.98556 0.0
C2255 C 0.77001 0.01278 0.02276 0.0
H2256 H 0.82539 0.04532 0.97528 0.0
H2257 H 0.77748 0.01741 0.94646 0.0
H2258 H 0.81502 0.02513 0.02001 0.0
H2259 H 0.83359 0.01143 0.00796 0.0
H2260 H 0.83316 0.03796 0.00623 0.0
H2261 H 0.75662 0.99397 0.96117 0.0
H2262 H 0.77379 0.97633 0.97059 0.0
H2263 H 0.75841 0.99027 0.98589 0.0
H2264 H 0.82025 0.95113 0.01724 0.0
H2265 H 0.77859 0.98521 0.04861 0.0
H2266 H 0.83095 0.98375 0.98406 0.0
H2267 H 0.80996 0.97274 0.9731 0.0
H2268 H 0.82703 0.95752 0.98591 0.0
H2269 H 0.77889 0.02642 0.02456 0.0
H2270 H 0.7601 0.01119 0.03493 0.0
H2271 H 0.76086 0.01474 0.01015 0.0
C2272 C 0.234 0.53814 0.20352 0.0
C2273 C 0.21762 0.55069 0.2048 0.0
C2274 C 0.24659 0.53538 0.21875 0.0
C2275 C 0.24252 0.54536 0.23554 0.0
C2276 C 0.2252 0.55691 0.23722 0.0
C2277 C 0.21299 0.55949 0.22179 0.0
C2278 C 0.26489 0.52291 0.21647 0.0
C2279 C 0.2202 0.5676 0.25497 0.0
C2280 C 0.26843 0.53554 0.28114 0.0
C2281 C 0.28113 0.55185 0.28204 0.0
C2282 C 0.25645 0.53246 0.26553 0.0
C2283 C 0.25741 0.54596 0.25059 0.0
C2284 C 0.27123 0.56165 0.25098 0.0
C2285 C 0.28287 0.56445 0.26677 0.0
C2286 C 0.2419 0.51557 0.26558 0.0
C2287 C 0.2729 0.57622 0.23521 0.0
H2288 H 0.2376 0.53138 0.19034 0.0
H2289 H 0.20013 0.56897 0.22281 0.0
H2290 H 0.27802 0.53267 0.21557 0.0
H2291 H 0.267 0.51311 0.22862 0.0
H2292 H 0.26428 0.51372 0.20375 0.0
H2293 H 0.20521 0.57423 0.2546 0.0
H2294 H 0.22107 0.55737 0.26694 0.0
H2295 H 0.2311 0.57958 0.25737 0.0
H2296 H 0.26709 0.52583 0.29302 0.0
H2297 H 0.29292 0.5769 0.26744 0.0
H2298 H 0.24203 0.50778 0.25207 0.0
H2299 H 0.22677 0.52143 0.2677 0.0
H2300 H 0.2451 0.50476 0.27675 0.0
H2301 H 0.27441 0.56833 0.22183 0.0
H2302 H 0.2857 0.58633 0.23689 0.0
H2303 H 0.25925 0.58525 0.23447 0.0
C2304 C 0.29345 0.02138 0.53241 0.0
C2305 C 0.30633 0.03757 0.53169 0.0
C2306 C 0.29182 0.00838 0.51738 0.0
C2307 C 0.30326 0.01182 0.5013 0.0
C2308 C 0.31526 0.02889 0.50006 0.0
C2309 C 0.31674 0.04152 0.51535 0.0
C2310 C 0.27892 0.9903 0.51921 0.0
C2311 C 0.32746 0.0332 0.48302 0.0
C2312 C 0.3225 0.96908 0.47297 0.0
C2313 C 0.31039 0.96995 0.45729 0.0
C2314 C 0.31973 0.98213 0.48775 0.0
C2315 C 0.30461 0.99652 0.48668 0.0
C2316 C 0.29185 0.99699 0.47117 0.0
C2317 C 0.29484 0.98357 0.45663 0.0
C2318 C 0.33346 0.98098 0.50421 0.0
C2319 C 0.27566 0.0122 0.46954 0.0
H2320 H 0.28548 0.01826 0.54511 0.0
H2321 H 0.3265 0.0542 0.51473 0.0
H2322 H 0.26976 0.98825 0.50662 0.0
H2323 H 0.28838 0.97702 0.52065 0.0
H2324 H 0.26903 0.99116 0.53146 0.0
H2325 H 0.33424 0.04814 0.48347 0.0
H2326 H 0.33946 0.02212 0.48182 0.0
H2327 H 0.31824 0.03204 0.47037 0.0
H2328 H 0.33438 0.95836 0.47351 0.0
H2329 H 0.28557 0.98427 0.44441 0.0
H2330 H 0.32484 0.98004 0.51724 0.0
H2331 H 0.34257 0.99458 0.50494 0.0
H2332 H 0.34351 0.96804 0.50345 0.0
H2333 H 0.2666 0.01251 0.48234 0.0
H2334 H 0.26582 0.00934 0.45752 0.0
H2335 H 0.28232 0.02707 0.46788 0.0
C2336 C 0.76258 0.53858 0.20818 0.0
C2337 C 0.78193 0.54551 0.21058 0.0
C2338 C 0.74978 0.53663 0.22334 0.0
C2339 C 0.75655 0.54175 0.24125 0.0
C2340 C 0.77653 0.54723 0.24391 0.0
C2341 C 0.78899 0.54907 0.22851 0.0
C2342 C 0.7286 0.53067 0.21995 0.0
C2343 C 0.78436 0.55263 0.26282 0.0
C2344 C 0.72013 0.56602 0.27372 0.0
C2345 C 0.71595 0.55078 0.28626 0.0
C2346 C 0.73307 0.56308 0.25889 0.0
C2347 C 0.74217 0.54444 0.25654 0.0
C2348 C 0.73789 0.52888 0.26899 0.0
C2349 C 0.72482 0.53225 0.28378 0.0
C2350 C 0.73731 0.58011 0.24593 0.0
C2351 C 0.74728 0.50881 0.26683 0.0
H2352 H 0.75702 0.53591 0.19433 0.0
H2353 H 0.80406 0.55409 0.23042 0.0
H2354 H 0.72361 0.51985 0.23049 0.0
H2355 H 0.71897 0.54386 0.22112 0.0
H2356 H 0.72652 0.52415 0.20597 0.0
H2357 H 0.80072 0.55382 0.26296 0.0
H2358 H 0.7781 0.56707 0.2671 0.0
H2359 H 0.77977 0.54154 0.27328 0.0
H2360 H 0.71364 0.58048 0.27577 0.0
H2361 H 0.72153 0.5204 0.29339 0.0
H2362 H 0.73389 0.57582 0.23146 0.0
H2363 H 0.75324 0.58393 0.2465 0.0
H2364 H 0.72861 0.5935 0.24943 0.0
H2365 H 0.74429 0.50289 0.25278 0.0
H2366 H 0.7418 0.49806 0.27726 0.0
H2367 H 0.76355 0.5101 0.26826 0.0
C2368 C 0.18633 0.99737 0.04468 0.0
C2369 C 0.19297 0.97782 0.04522 0.0
C2370 C 0.18872 0.00886 0.0287 0.0
C2371 C 0.19766 0.0004 0.01286 0.0
C2372 C 0.20539 0.981 0.0137 0.0
C2373 C 0.20304 0.96994 0.02998 0.0
C2374 C 0.1806 0.02961 0.02843 0.0
C2375 C 0.21484 0.97144 -0.00296 0.0
C2376 C 0.17712 0.01985 0.96779 0.0
C2377 C 0.192 0.03283 0.96217 0.0
C2378 C 0.17918 0.00867 0.98395 0.0
C2379 C 0.19642 0.01086 0.99487 0.0
C2380 C 0.2117 0.02372 0.98901 0.0
C2381 C 0.20936 0.0345 0.97254 0.0
C2382 C 0.16269 0.99486 0.98955 0.0
C2383 C 0.23014 0.02658 0.00045 0.0
H2384 H 0.17878 0.0035 0.0566 0.0
H2385 H 0.2081 0.95476 0.03042 0.0
H2386 H 0.19158 0.03999 0.02247 0.0
H2387 H 0.16726 0.03013 0.01951 0.0
H2388 H 0.17647 0.03483 0.04249 0.0
H2389 H 0.22243 0.95742 0.00067 0.0
H2390 H 0.20331 0.96817 0.98655 0.0
H2391 H 0.22568 0.98156 0.99051 0.0
H2392 H 0.16378 0.01859 0.95956 0.0
H2393 H 0.22079 0.04466 0.96804 0.0
H2394 H 0.15597 0.0 0.00271 0.0
H2395 H 0.16859 0.97981 0.99202 0.0
H2396 H 0.1509 0.99395 0.97888 0.0
H2397 H 0.22623 0.03358 0.01384 0.0
H2398 H 0.2412 0.03601 0.99331 0.0
H2399 H 0.237 0.01211 0.00366 0.0
C2400 C 0.74242 0.44946 0.70313 0.0
C2401 C 0.72206 0.44649 0.70518 0.0
C2402 C 0.75478 0.45057 0.71869 0.0
C2403 C 0.74647 0.44886 0.7366 0.0
C2404 C 0.72573 0.44736 0.73871 0.0
C2405 C 0.71377 0.44603 0.72294 0.0
C2406 C 0.77683 0.45205 0.71588 0.0
C2407 C 0.71628 0.44583 0.7576 0.0
C2408 C 0.77551 0.42354 0.77448 0.0
C2409 C 0.78161 0.43955 0.78532 0.0
C2410 C 0.76459 0.42649 0.75828 0.0
C2411 C 0.75944 0.44594 0.75293 0.0
C2412 C 0.76593 0.46222 0.76361 0.0
C2413 C 0.77711 0.45882 0.77968 0.0
C2414 C 0.7582 0.40875 0.7471 0.0
C2415 C 0.76053 0.48311 0.7584 0.0
H2416 H 0.74883 0.44968 0.68937 0.0
H2417 H 0.69798 0.44394 0.72447 0.0
H2418 H 0.78331 0.46322 0.72532 0.0
H2419 H 0.78376 0.43764 0.71922 0.0
H2420 H 0.7807 0.456 0.70139 0.0
H2421 H 0.69996 0.44738 0.75694 0.0
H2422 H 0.71981 0.43126 0.7638 0.0
H2423 H 0.72225 0.45733 0.767 0.0
H2424 H 0.77926 0.40866 0.77877 0.0
H2425 H 0.7818 0.47117 0.78816 0.0
H2426 H 0.76296 0.41042 0.73248 0.0
H2427 H 0.74186 0.40762 0.74714 0.0
H2428 H 0.76438 0.39474 0.75262 0.0
H2429 H 0.76466 0.48612 0.7438 0.0
H2430 H 0.76787 0.49418 0.76744 0.0
H2431 H 0.74431 0.48507 0.75951 0.0
loop_
_geom_bond_atom_site_label_1
_geom_bond_atom_site_label_2
_geom_bond_distance
_geom_bond_site_symmetry_2
_ccdc_geom_bond_type
Li0 N17 1.990 . S
Li0 O60 1.956 . S
Li0 O61 1.970 . S
Li0 O62 1.961 . S
Li1 N25 1.990 . S
Li1 O60 1.970 . S
Li1 O61 1.956 . S
Li1 O63 1.961 . S
Li2 N47 1.990 . S
Li2 O60 1.961 . S
Li2 O62 1.956 . S
Li2 O63 1.970 . S
Li3 N53 1.990 . S
Li3 O61 1.961 . S
Li3 O62 1.970 . S
Li3 O63 1.956 . S
C4 C6 1.348 . S
C4 C7 1.356 . S
C4 O60 1.325 . S
N5 C8 1.314 . S
N5 C9 1.279 . S
C6 C4 1.348 . S
C6 C8 1.353 . S
C6 H64 0.929 . S
C7 C4 1.356 . S
C7 C9 1.358 . S
C7 H65 0.930 . S
C8 N5 1.314 . S
C8 C6 1.353 . S
C8 H66 0.930 . S
C9 N5 1.279 . S
C9 C7 1.358 . S
C9 H67 0.930 . S
C10 C13 1.348 . S
C10 C14 1.356 . S
C10 O61 1.325 . S
C11 N12 1.279 . S
C11 C14 1.358 . S
C11 H68 0.930 . S
N12 C11 1.279 . S
N12 C15 1.314 . S
C13 C10 1.348 . S
C13 C15 1.353 . S
C13 H69 0.929 . S
C14 C10 1.356 . S
C14 C11 1.358 . S
C14 H70 0.930 . S
C15 N12 1.314 . S
C15 C13 1.353 . S
C15 H71 0.930 . S
C16 N17 1.314 . S
C16 C21 1.353 . S
C16 H22 0.930 . S
N17 Li0 1.990 . S
N17 C16 1.314 . S
N17 C19 1.279 . S
C18 C19 1.358 . S
C18 C20 1.356 . S
C18 H72 0.930 . S
C19 N17 1.279 . S
C19 C18 1.358 . S
C19 H23 0.930 . S
C20 C18 1.356 . S
C20 C21 1.348 . S
C21 C16 1.353 . S
C21 C20 1.348 . S
C21 H73 0.929 . S
H22 C16 0.930 . S
H23 C19 0.930 . S
C24 N25 1.314 . S
C24 C26 1.353 . S
C24 H30 0.930 . S
N25 Li1 1.990 . S
N25 C24 1.314 . S
N25 C28 1.279 . S
C26 C24 1.353 . S
C26 C29 1.348 . S
C26 H74 0.929 . S
C27 C28 1.358 . S
C27 C29 1.356 . S
C27 H75 0.930 . S
C28 N25 1.279 . S
C28 C27 1.358 . S
C28 H31 0.930 . S
C29 C26 1.348 . S
C29 C27 1.356 . S
H30 C24 0.930 . S
H31 C28 0.930 . S
C32 C34 1.348 . S
C32 C35 1.356 . S
C32 O62 1.325 . S
N33 C36 1.314 . S
N33 C37 1.279 . S
C34 C32 1.348 . S
C34 C36 1.353 . S
C34 H76 0.929 . S
C35 C32 1.356 . S
C35 C37 1.358 . S
C35 H77 0.930 . S
C36 N33 1.314 . S
C36 C34 1.353 . S
C36 H78 0.930 . S
C37 N33 1.279 . S
C37 C35 1.358 . S
C37 H79 0.930 . S
C38 C39 1.348 . S
C38 C40 1.356 . S
C38 O63 1.325 . S
C39 C38 1.348 . S
C39 C41 1.353 . S
C39 H80 0.929 . S
C40 C38 1.356 . S
C40 C42 1.358 . S
C40 H81 0.930 . S
C41 C39 1.353 . S
C41 N43 1.314 . S
C41 H82 0.930 . S
C42 C40 1.358 . S
C42 N43 1.279 . S
C42 H83 0.930 . S
N43 C41 1.314 . S
N43 C42 1.279 . S
C44 C46 1.353 . S
C44 N47 1.314 . S
C44 H50 0.930 . S
C45 N47 1.279 . S
C45 C48 1.358 . S
C45 H51 0.930 . S
C46 C44 1.353 . S
C46 C49 1.348 . S
C46 H84 0.929 . S
N47 Li2 1.990 . S
N47 C44 1.314 . S
N47 C45 1.279 . S
C48 C45 1.358 . S
C48 C49 1.356 . S
C48 H85 0.930 . S
C49 C46 1.348 . S
C49 C48 1.356 . S
H50 C44 0.930 . S
H51 C45 0.930 . S
C52 N53 1.314 . S
C52 C54 1.353 . S
C52 H58 0.930 . S
N53 Li3 1.990 . S
N53 C52 1.314 . S
N53 C56 1.279 . S
C54 C52 1.353 . S
C54 C57 1.348 . S
C54 H86 0.929 . S
C55 C56 1.358 . S
C55 C57 1.356 . S
C55 H87 0.930 . S
C56 N53 1.279 . S
C56 C55 1.358 . S
C56 H59 0.930 . S
C57 C54 1.348 . S
C57 C55 1.356 . S
H58 C52 0.930 . S
H59 C56 0.930 . S
O60 Li0 1.956 . S
O60 Li1 1.970 . S
O60 Li2 1.961 . S
O60 C4 1.325 . S
O61 Li0 1.970 . S
O61 Li1 1.956 . S
O61 Li3 1.961 . S
O61 C10 1.325 . S
O62 Li0 1.961 . S
O62 Li2 1.956 . S
O62 Li3 1.970 . S
O62 C32 1.325 . S
O63 Li1 1.961 . S
O63 Li2 1.970 . S
O63 Li3 1.956 . S
O63 C38 1.325 . S
H64 C6 0.929 . S
H65 C7 0.930 . S
H66 C8 0.930 . S
H67 C9 0.930 . S
H68 C11 0.930 . S
H69 C13 0.929 . S
H70 C14 0.930 . S
H71 C15 0.930 . S
H72 C18 0.930 . S
H73 C21 0.929 . S
H74 C26 0.929 . S
H75 C27 0.930 . S
H76 C34 0.929 . S
H77 C35 0.930 . S
H78 C36 0.930 . S
H79 C37 0.930 . S
H80 C39 0.929 . S
H81 C40 0.930 . S
H82 C41 0.930 . S
H83 C42 0.930 . S
H84 C46 0.929 . S
H85 C48 0.930 . S
H86 C54 0.929 . S
H87 C55 0.930 . S
Li88 N105 1.990 . S
Li88 O148 1.956 . S
Li88 O149 1.970 . S
Li88 O150 1.961 . S
Li89 N113 1.990 . S
Li89 O148 1.970 . S
Li89 O149 1.956 . S
Li89 O151 1.961 . S
Li90 N135 1.990 . S
Li90 O148 1.961 . S
Li90 O150 1.956 . S
Li90 O151 1.970 . S
Li91 N141 1.990 . S
Li91 O149 1.961 . S
Li91 O150 1.970 . S
Li91 O151 1.956 . S
C92 C94 1.348 . S
C92 C95 1.356 . S
C92 O148 1.325 . S
N93 C96 1.296 1_545 S
N93 C97 1.243 1_545 S
C94 C92 1.348 . S
C94 C96 1.353 . S
C94 H152 0.929 . S
C95 C92 1.356 . S
C95 C97 1.358 . S
C95 H153 0.930 . S
C96 N93 1.296 1_565 S
C96 C94 1.353 . S
C96 H154 0.930 1_565 S
C97 N93 1.243 1_565 S
C97 C95 1.358 . S
C97 H155 0.930 . S
C98 C101 1.348 . S
C98 C102 1.356 . S
C98 O149 1.325 . S
C99 N100 1.279 . S
C99 C102 1.358 . S
C99 H156 0.930 . S
N100 C99 1.279 . S
N100 C103 1.314 . S
C101 C98 1.348 . S
C101 C103 1.353 . S
C101 H157 0.929 . S
C102 C98 1.356 . S
C102 C99 1.358 . S
C102 H158 0.930 . S
C103 N100 1.314 . S
C103 C101 1.353 . S
C103 H159 0.930 . S
C104 N105 1.314 . S
C104 C109 1.353 . S
C104 H110 0.930 . S
N105 Li88 1.990 . S
N105 C104 1.314 . S
N105 C107 1.279 . S
C106 C107 1.358 . S
C106 C108 1.356 . S
C106 H160 0.930 . S
C107 N105 1.279 . S
C107 C106 1.358 . S
C107 H111 0.930 . S
C108 C106 1.356 . S
C108 C109 1.348 . S
C109 C104 1.353 . S
C109 C108 1.348 . S
C109 H161 0.929 . S
H110 C104 0.930 . S
H111 C107 0.930 . S
C112 N113 1.314 . S
C112 C114 1.353 . S
C112 H118 0.930 . S
N113 Li89 1.990 . S
N113 C112 1.314 . S
N113 C116 1.279 . S
C114 C112 1.353 . S
C114 C117 1.348 . S
C114 H162 0.929 . S
C115 C116 1.358 . S
C115 C117 1.356 . S
C115 H163 0.930 . S
C116 N113 1.279 . S
C116 C115 1.358 . S
C116 H119 0.930 . S
C117 C114 1.348 . S
C117 C115 1.356 . S
H118 C112 0.930 . S
H119 C116 0.930 . S
C120 C122 1.348 . S
C120 C123 1.356 . S
C120 O150 1.325 . S
N121 C124 1.314 . S
N121 C125 1.279 . S
C122 C120 1.348 . S
C122 C124 1.353 . S
C122 H164 0.929 . S
C123 C120 1.356 . S
C123 C125 1.358 . S
C123 H165 0.930 . S
C124 N121 1.314 . S
C124 C122 1.353 . S
C124 H166 0.930 . S
C125 N121 1.279 . S
C125 C123 1.358 . S
C125 H167 0.930 . S
C126 C127 1.348 . S
C126 C128 1.356 . S
C126 O151 1.325 . S
C127 C126 1.348 . S
C127 C129 1.353 . S
C127 H168 0.929 . S
C128 C126 1.356 . S
C128 C130 1.358 . S
C128 H169 0.930 . S
C129 C127 1.353 . S
C129 N131 1.314 . S
C129 H170 0.930 . S
C130 C128 1.358 . S
C130 N131 1.279 . S
C130 H171 0.930 . S
N131 C129 1.314 . S
N131 C130 1.279 . S
C132 C134 1.353 . S
C132 N135 1.314 . S
C132 H138 0.930 . S
C133 N135 1.279 . S
C133 C136 1.358 . S
C133 H139 0.930 . S
C134 C132 1.353 . S
C134 C137 1.348 . S
C134 H172 0.929 . S
N135 Li90 1.990 . S
N135 C132 1.314 . S
N135 C133 1.279 . S
C136 C133 1.358 . S
C136 C137 1.356 . S
C136 H173 0.930 . S
C137 C134 1.348 . S
C137 C136 1.356 . S
H138 C132 0.930 . S
H139 C133 0.930 . S
C140 N141 1.314 . S
C140 C142 1.353 . S
C140 H146 0.930 . S
N141 Li91 1.990 . S
N141 C140 1.314 . S
N141 C144 1.279 . S
C142 C140 1.353 . S
C142 C145 1.348 . S
C142 H174 0.929 . S
C143 C144 1.358 . S
C143 C145 1.356 . S
C143 H175 0.930 . S
C144 N141 1.279 . S
C144 C143 1.358 . S
C144 H147 0.930 . S
C145 C142 1.348 . S
C145 C143 1.356 . S
H146 C140 0.930 . S
H147 C144 0.930 . S
O148 Li88 1.956 . S
O148 Li89 1.970 . S
O148 Li90 1.961 . S
O148 C92 1.325 . S
O149 Li88 1.970 . S
O149 Li89 1.956 . S
O149 Li91 1.961 . S
O149 C98 1.325 . S
O150 Li88 1.961 . S
O150 Li90 1.956 . S
O150 Li91 1.970 . S
O150 C120 1.325 . S
O151 Li89 1.961 . S
O151 Li90 1.970 . S
O151 Li91 1.956 . S
O151 C126 1.325 . S
H152 C94 0.929 . S
H153 C95 0.930 . S
H154 C96 0.930 1_545 S
H155 C97 0.930 . S
H156 C99 0.930 . S
H157 C101 0.929 . S
H158 C102 0.930 . S
H159 C103 0.930 . S
H160 C106 0.930 . S
H161 C109 0.929 . S
H162 C114 0.929 . S
H163 C115 0.930 . S
H164 C122 0.929 . S
H165 C123 0.930 . S
H166 C124 0.930 . S
H167 C125 0.930 . S
H168 C127 0.929 . S
H169 C128 0.930 . S
H170 C129 0.930 . S
H171 C130 0.930 . S
H172 C134 0.929 . S
H173 C136 0.930 . S
H174 C142 0.929 . S
H175 C143 0.930 . S
Li176 N193 1.990 . S
Li176 O236 1.956 . S
Li176 O237 1.970 . S
Li176 O238 1.961 . S
Li177 N201 1.990 . S
Li177 O236 1.970 . S
Li177 O237 1.956 . S
Li177 O239 1.961 . S
Li178 N223 1.990 . S
Li178 O236 1.961 . S
Li178 O238 1.956 . S
Li178 O239 1.970 . S
Li179 N229 1.990 . S
Li179 O237 1.961 . S
Li179 O238 1.970 . S
Li179 O239 1.956 . S
C180 C182 1.348 . S
C180 C183 1.356 . S
C180 O236 1.325 . S
N181 C184 1.314 . S
N181 C185 1.279 . S
C182 C180 1.348 . S
C182 C184 1.353 . S
C182 H240 0.929 . S
C183 C180 1.356 . S
C183 C185 1.358 . S
C183 H241 0.930 . S
C184 N181 1.314 . S
C184 C182 1.353 . S
C184 H242 0.930 . S
C185 N181 1.279 . S
C185 C183 1.358 . S
C185 H243 0.930 . S
C186 C189 1.348 . S
C186 C190 1.356 . S
C186 O237 1.325 . S
C187 N188 1.279 . S
C187 C190 1.358 . S
C187 H244 0.930 . S
N188 C187 1.279 . S
N188 C191 1.314 . S
C189 C186 1.348 . S
C189 C191 1.353 . S
C189 H245 0.929 . S
C190 C186 1.356 . S
C190 C187 1.358 . S
C190 H246 0.930 . S
C191 N188 1.314 . S
C191 C189 1.353 . S
C191 H247 0.930 . S
C192 N193 1.314 . S
C192 C197 1.353 . S
C192 H198 0.930 . S
N193 Li176 1.990 . S
N193 C192 1.314 . S
N193 C195 1.279 . S
C194 C195 1.358 . S
C194 C196 1.356 . S
C194 H248 0.930 . S
C195 N193 1.279 . S
C195 C194 1.358 . S
C195 H199 0.930 . S
C196 C194 1.356 . S
C196 C197 1.348 . S
C197 C192 1.353 . S
C197 C196 1.348 . S
C197 H249 0.929 . S
H198 C192 0.930 . S
H199 C195 0.930 . S
C200 N201 1.314 . S
C200 C202 1.353 . S
C200 H206 0.930 . S
N201 Li177 1.990 . S
N201 C200 1.314 . S
N201 C204 1.279 . S
C202 C200 1.353 . S
C202 C205 1.348 . S
C202 H250 0.929 . S
C203 C204 1.358 . S
C203 C205 1.356 . S
C203 H251 0.930 . S
C204 N201 1.279 . S
C204 C203 1.358 . S
C204 H207 0.930 . S
C205 C202 1.348 . S
C205 C203 1.356 . S
H206 C200 0.930 . S
H207 C204 0.930 . S
C208 C210 1.348 . S
C208 C211 1.356 . S
C208 O238 1.325 . S
N209 C212 1.314 . S
N209 C213 1.279 . S
C210 C208 1.348 . S
C210 C212 1.353 . S
C210 H252 0.929 . S
C211 C208 1.356 . S
C211 C213 1.358 . S
C211 H253 0.930 . S
C212 N209 1.314 . S
C212 C210 1.353 . S
C212 H254 0.930 . S
C213 N209 1.279 . S
C213 C211 1.358 . S
C213 H255 0.930 . S
C214 C215 1.348 . S
C214 C216 1.356 . S
C214 O239 1.325 . S
C215 C214 1.348 . S
C215 C217 1.353 . S
C215 H256 0.929 . S
C216 C214 1.356 . S
C216 C218 1.358 . S
C216 H257 0.930 . S
C217 C215 1.353 . S
C217 N219 1.314 . S
C217 H258 0.930 . S
C218 C216 1.358 . S
C218 N219 1.279 . S
C218 H259 0.930 . S
N219 C217 1.314 . S
N219 C218 1.279 . S
C220 C222 1.353 . S
C220 N223 1.314 . S
C220 H226 0.930 . S
C221 N223 1.279 . S
C221 C224 1.358 . S
C221 H227 0.930 . S
C222 C220 1.353 . S
C222 C225 1.348 . S
C222 H260 0.929 . S
N223 Li178 1.990 . S
N223 C220 1.314 . S
N223 C221 1.279 . S
C224 C221 1.358 . S
C224 C225 1.356 . S
C224 H261 0.930 . S
C225 C222 1.348 . S
C225 C224 1.356 . S
H226 C220 0.930 . S
H227 C221 0.930 . S
C228 N229 1.314 . S
C228 C230 1.353 . S
C228 H234 0.930 . S
N229 Li179 1.990 . S
N229 C228 1.314 . S
N229 C232 1.279 . S
C230 C228 1.353 . S
C230 C233 1.348 . S
C230 H262 0.929 . S
C231 C232 1.358 . S
C231 C233 1.356 . S
C231 H263 0.930 . S
C232 N229 1.279 . S
C232 C231 1.358 . S
C232 H235 0.930 . S
C233 C230 1.348 . S
C233 C231 1.356 . S
H234 C228 0.930 . S
H235 C232 0.930 . S
O236 Li176 1.956 . S
O236 Li177 1.970 . S
O236 Li178 1.961 . S
O236 C180 1.325 . S
O237 Li176 1.970 . S
O237 Li177 1.956 . S
O237 Li179 1.961 . S
O237 C186 1.325 . S
O238 Li176 1.961 . S
O238 Li178 1.956 . S
O238 Li179 1.970 . S
O238 C208 1.325 . S
O239 Li177 1.961 . S
O239 Li178 1.970 . S
O239 Li179 1.956 . S
O239 C214 1.325 . S
H240 C182 0.929 . S
H241 C183 0.930 . S
H242 C184 0.930 . S
H243 C185 0.930 . S
H244 C187 0.930 . S
H245 C189 0.929 . S
H246 C190 0.930 . S
H247 C191 0.930 . S
H248 C194 0.930 . S
H249 C197 0.929 . S
H250 C202 0.929 . S
H251 C203 0.930 . S
H252 C210 0.929 . S
H253 C211 0.930 . S
H254 C212 0.930 . S
H255 C213 0.930 . S
H256 C215 0.929 . S
H257 C216 0.930 . S
H258 C217 0.930 . S
H259 C218 0.930 . S
H260 C222 0.929 . S
H261 C224 0.930 . S
H262 C230 0.929 . S
H263 C231 0.930 . S
Li264 N281 1.990 . S
Li264 O324 1.956 . S
Li264 O325 1.970 . S
Li264 O326 1.961 . S
Li265 N289 1.990 . S
Li265 O324 1.970 . S
Li265 O325 1.956 . S
Li265 O327 1.961 . S
Li266 N311 1.990 . S
Li266 O324 1.961 . S
Li266 O326 1.956 . S
Li266 O327 1.970 . S
Li267 N317 1.990 . S
Li267 O325 1.961 . S
Li267 O326 1.970 . S
Li267 O327 1.956 . S
C268 C270 1.348 . S
C268 C271 1.356 . S
C268 O324 1.325 . S
N269 C272 1.314 . S
N269 C273 1.279 . S
C270 C268 1.348 . S
C270 C272 1.353 . S
C270 H328 0.929 . S
C271 C268 1.356 . S
C271 C273 1.358 . S
C271 H329 0.930 . S
C272 N269 1.314 . S
C272 C270 1.353 . S
C272 H330 0.930 . S
C273 N269 1.279 . S
C273 C271 1.358 . S
C273 H331 0.930 . S
C274 C277 1.348 . S
C274 C278 1.356 . S
C274 O325 1.325 . S
C275 N276 1.279 . S
C275 C278 1.358 . S
C275 H332 0.930 . S
N276 C275 1.279 . S
N276 C279 1.314 . S
C277 C274 1.348 . S
C277 C279 1.353 . S
C277 H333 0.929 . S
C278 C274 1.356 . S
C278 C275 1.358 . S
C278 H334 0.930 . S
C279 N276 1.314 . S
C279 C277 1.353 . S
C279 H335 0.930 . S
C280 N281 1.314 . S
C280 C285 1.353 . S
C280 H286 0.930 . S
N281 Li264 1.990 . S
N281 C280 1.314 . S
N281 C283 1.279 . S
C282 C283 1.358 . S
C282 C284 1.356 . S
C282 H336 0.930 . S
C283 N281 1.279 . S
C283 C282 1.358 . S
C283 H287 0.930 . S
C284 C282 1.356 . S
C284 C285 1.348 . S
C285 C280 1.353 . S
C285 C284 1.348 . S
C285 H337 0.929 . S
H286 C280 0.930 . S
H287 C283 0.930 . S
C288 N289 1.314 . S
C288 C290 1.353 . S
C288 H294 0.930 . S
N289 Li265 1.990 . S
N289 C288 1.314 . S
N289 C292 1.279 . S
C290 C288 1.353 . S
C290 C293 1.348 . S
C290 H338 0.929 . S
C291 C292 1.358 . S
C291 C293 1.356 . S
C291 H339 0.930 . S
C292 N289 1.279 . S
C292 C291 1.358 . S
C292 H295 0.930 . S
C293 C290 1.348 . S
C293 C291 1.356 . S
H294 C288 0.930 . S
H295 C292 0.930 . S
C296 C298 1.348 . S
C296 C299 1.356 . S
C296 O326 1.325 . S
N297 C300 1.314 . S
N297 C301 1.279 . S
C298 C296 1.348 . S
C298 C300 1.353 . S
C298 H340 0.929 . S
C299 C296 1.356 . S
C299 C301 1.358 . S
C299 H341 0.930 . S
C300 N297 1.314 . S
C300 C298 1.353 . S
C300 H342 0.930 . S
C301 N297 1.279 . S
C301 C299 1.358 . S
C301 H343 0.930 . S
C302 C303 1.348 . S
C302 C304 1.356 . S
C302 O327 1.325 . S
C303 C302 1.348 . S
C303 C305 1.353 . S
C303 H344 0.929 . S
C304 C302 1.356 . S
C304 C306 1.358 . S
C304 H345 0.930 . S
C305 C303 1.353 . S
C305 N307 1.296 1_545 S
C305 H346 0.930 1_545 S
C306 C304 1.358 . S
C306 N307 1.243 1_545 S
C306 H347 0.930 . S
N307 C305 1.296 1_565 S
N307 C306 1.243 1_565 S
C308 C310 1.353 . S
C308 N311 1.314 . S
C308 H314 0.930 . S
C309 N311 1.279 . S
C309 C312 1.358 . S
C309 H315 0.930 . S
C310 C308 1.353 . S
C310 C313 1.348 . S
C310 H348 0.929 . S
N311 Li266 1.990 . S
N311 C308 1.314 . S
N311 C309 1.279 . S
C312 C309 1.358 . S
C312 C313 1.356 . S
C312 H349 0.930 . S
C313 C310 1.348 . S
C313 C312 1.356 . S
H314 C308 0.930 . S
H315 C309 0.930 . S
C316 N317 1.314 . S
C316 C318 1.353 . S
C316 H322 0.930 . S
N317 Li267 1.990 . S
N317 C316 1.314 . S
N317 C320 1.279 . S
C318 C316 1.353 . S
C318 C321 1.348 . S
C318 H350 0.929 . S
C319 C320 1.358 . S
C319 C321 1.356 . S
C319 H351 0.930 . S
C320 N317 1.279 . S
C320 C319 1.358 . S
C320 H323 0.930 . S
C321 C318 1.348 . S
C321 C319 1.356 . S
H322 C316 0.930 . S
H323 C320 0.930 . S
O324 Li264 1.956 . S
O324 Li265 1.970 . S
O324 Li266 1.961 . S
O324 C268 1.325 . S
O325 Li264 1.970 . S
O325 Li265 1.956 . S
O325 Li267 1.961 . S
O325 C274 1.325 . S
O326 Li264 1.961 . S
O326 Li266 1.956 . S
O326 Li267 1.970 . S
O326 C296 1.325 . S
O327 Li265 1.961 . S
O327 Li266 1.970 . S
O327 Li267 1.956 . S
O327 C302 1.325 . S
H328 C270 0.929 . S
H329 C271 0.930 . S
H330 C272 0.930 . S
H331 C273 0.930 . S
H332 C275 0.930 . S
H333 C277 0.929 . S
H334 C278 0.930 . S
H335 C279 0.930 . S
H336 C282 0.930 . S
H337 C285 0.929 . S
H338 C290 0.929 . S
H339 C291 0.930 . S
H340 C298 0.929 . S
H341 C299 0.930 . S
H342 C300 0.930 . S
H343 C301 0.930 . S
H344 C303 0.929 . S
H345 C304 0.930 . S
H346 C305 0.930 1_565 S
H347 C306 0.930 . S
H348 C310 0.929 . S
H349 C312 0.930 . S
H350 C318 0.929 . S
H351 C319 0.930 . S
Li352 N369 1.990 . S
Li352 O412 1.956 . S
Li352 O413 1.970 . S
Li352 O414 1.961 . S
Li353 N377 1.990 . S
Li353 O412 1.970 . S
Li353 O413 1.956 . S
Li353 O415 1.961 . S
Li354 N399 1.990 . S
Li354 O412 1.961 . S
Li354 O414 1.956 . S
Li354 O415 1.970 . S
Li355 N405 1.990 . S
Li355 O413 1.961 . S
Li355 O414 1.970 . S
Li355 O415 1.956 . S
C356 C358 1.348 . S
C356 C359 1.356 . S
C356 O412 1.325 . S
N357 C360 1.314 . S
N357 C361 1.279 . S
C358 C356 1.348 . S
C358 C360 1.353 . S
C358 H416 0.929 . S
C359 C356 1.356 . S
C359 C361 1.358 . S
C359 H417 0.930 . S
C360 N357 1.314 . S
C360 C358 1.353 . S
C360 H418 0.930 . S
C361 N357 1.279 . S
C361 C359 1.358 . S
C361 H419 0.930 . S
C362 C365 1.348 . S
C362 C366 1.356 . S
C362 O413 1.325 . S
C363 N364 1.279 . S
C363 C366 1.358 . S
C363 H420 0.930 . S
N364 C363 1.279 . S
N364 C367 1.314 . S
C365 C362 1.348 . S
C365 C367 1.353 . S
C365 H421 0.929 . S
C366 C362 1.356 . S
C366 C363 1.358 . S
C366 H422 0.930 . S
C367 N364 1.314 . S
C367 C365 1.353 . S
C367 H423 0.930 . S
C368 N369 1.314 . S
C368 C373 1.353 . S
C368 H374 0.930 . S
N369 Li352 1.990 . S
N369 C368 1.314 . S
N369 C371 1.279 . S
C370 C371 1.358 . S
C370 C372 1.356 . S
C370 H424 0.930 . S
C371 N369 1.279 . S
C371 C370 1.358 . S
C371 H375 0.930 . S
C372 C370 1.356 . S
C372 C373 1.348 . S
C373 C368 1.353 . S
C373 C372 1.348 . S
C373 H425 0.929 . S
H374 C368 0.930 . S
H375 C371 0.930 . S
C376 N377 1.314 . S
C376 C378 1.353 . S
C376 H382 0.930 . S
N377 Li353 1.990 . S
N377 C376 1.314 . S
N377 C380 1.279 . S
C378 C376 1.353 . S
C378 C381 1.348 . S
C378 H426 0.929 . S
C379 C380 1.358 . S
C379 C381 1.356 . S
C379 H427 0.930 . S
C380 N377 1.279 . S
C380 C379 1.358 . S
C380 H383 0.930 . S
C381 C378 1.348 . S
C381 C379 1.356 . S
H382 C376 0.930 . S
H383 C380 0.930 . S
C384 C386 1.348 . S
C384 C387 1.356 . S
C384 O414 1.325 . S
N385 C388 1.314 . S
N385 C389 1.279 . S
C386 C384 1.348 . S
C386 C388 1.353 . S
C386 H428 0.929 . S
C387 C384 1.356 . S
C387 C389 1.358 . S
C387 H429 0.930 . S
C388 N385 1.314 . S
C388 C386 1.353 . S
C388 H430 0.930 . S
C389 N385 1.279 . S
C389 C387 1.358 . S
C389 H431 0.930 . S
C390 C391 1.348 . S
C390 C392 1.356 . S
C390 O415 1.325 . S
C391 C390 1.348 . S
C391 C393 1.353 . S
C391 H432 0.929 . S
C392 C390 1.356 . S
C392 C394 1.358 . S
C392 H433 0.930 . S
C393 C391 1.353 . S
C393 N395 1.314 . S
C393 H434 0.930 . S
C394 C392 1.358 . S
C394 N395 1.279 . S
C394 H435 0.930 . S
N395 C393 1.314 . S
N395 C394 1.279 . S
C396 C398 1.353 . S
C396 N399 1.314 . S
C396 H402 0.930 . S
C397 N399 1.279 . S
C397 C400 1.358 . S
C397 H403 0.930 . S
C398 C396 1.353 . S
C398 C401 1.348 . S
C398 H436 0.929 . S
N399 Li354 1.990 . S
N399 C396 1.314 . S
N399 C397 1.279 . S
C400 C397 1.358 . S
C400 C401 1.356 . S
C400 H437 0.930 . S
C401 C398 1.348 . S
C401 C400 1.356 . S
H402 C396 0.930 . S
H403 C397 0.930 . S
C404 N405 1.314 . S
C404 C406 1.353 . S
C404 H410 0.930 . S
N405 Li355 1.990 . S
N405 C404 1.314 . S
N405 C408 1.279 . S
C406 C404 1.353 . S
C406 C409 1.348 . S
C406 H438 0.929 . S
C407 C408 1.358 . S
C407 C409 1.356 . S
C407 H439 0.930 . S
C408 N405 1.279 . S
C408 C407 1.358 . S
C408 H411 0.930 . S
C409 C406 1.348 . S
C409 C407 1.356 . S
H410 C404 0.930 . S
H411 C408 0.930 . S
O412 Li352 1.956 . S
O412 Li353 1.970 . S
O412 Li354 1.961 . S
O412 C356 1.325 . S
O413 Li352 1.970 . S
O413 Li353 1.956 . S
O413 Li355 1.961 . S
O413 C362 1.325 . S
O414 Li352 1.961 . S
O414 Li354 1.956 . S
O414 Li355 1.970 . S
O414 C384 1.325 . S
O415 Li353 1.961 . S
O415 Li354 1.970 . S
O415 Li355 1.956 . S
O415 C390 1.325 . S
H416 C358 0.929 . S
H417 C359 0.930 . S
H418 C360 0.930 . S
H419 C361 0.930 . S
H420 C363 0.930 . S
H421 C365 0.929 . S
H422 C366 0.930 . S
H423 C367 0.930 . S
H424 C370 0.930 . S
H425 C373 0.929 . S
H426 C378 0.929 . S
H427 C379 0.930 . S
H428 C386 0.929 . S
H429 C387 0.930 . S
H430 C388 0.930 . S
H431 C389 0.930 . S
H432 C391 0.929 . S
H433 C392 0.930 . S
H434 C393 0.930 . S
H435 C394 0.930 . S
H436 C398 0.929 . S
H437 C400 0.930 . S
H438 C406 0.929 . S
H439 C407 0.930 . S
Li440 N457 1.990 . S
Li440 O500 1.956 . S
Li440 O501 1.970 . S
Li440 O502 1.961 . S
Li441 N465 1.990 . S
Li441 O500 1.970 . S
Li441 O501 1.956 . S
Li441 O503 1.961 . S
Li442 N487 1.990 . S
Li442 O500 1.961 . S
Li442 O502 1.956 . S
Li442 O503 1.970 . S
Li443 N493 1.990 . S
Li443 O501 1.961 . S
Li443 O502 1.970 . S
Li443 O503 1.956 . S
C444 C446 1.348 . S
C444 C447 1.356 . S
C444 O500 1.325 . S
N445 C448 1.314 . S
N445 C449 1.279 . S
C446 C444 1.348 . S
C446 C448 1.353 . S
C446 H504 0.929 . S
C447 C444 1.356 . S
C447 C449 1.358 . S
C447 H505 0.930 . S
C448 N445 1.314 . S
C448 C446 1.353 . S
C448 H506 0.930 . S
C449 N445 1.279 . S
C449 C447 1.358 . S
C449 H507 0.930 . S
C450 C453 1.348 . S
C450 C454 1.356 . S
C450 O501 1.325 . S
C451 N452 1.243 1_565 S
C451 C454 1.358 . S
C451 H508 0.930 . S
N452 C451 1.243 1_545 S
N452 C455 1.296 1_545 S
C453 C450 1.348 . S
C453 C455 1.353 . S
C453 H509 0.929 . S
C454 C450 1.356 . S
C454 C451 1.358 . S
C454 H510 0.930 . S
C455 N452 1.296 1_565 S
C455 C453 1.353 . S
C455 H511 0.930 1_565 S
C456 N457 1.314 . S
C456 C461 1.353 . S
C456 H462 0.930 . S
N457 Li440 1.990 . S
N457 C456 1.314 . S
N457 C459 1.279 . S
C458 C459 1.358 . S
C458 C460 1.356 . S
C458 H512 0.930 . S
C459 N457 1.279 . S
C459 C458 1.358 . S
C459 H463 0.930 . S
C460 C458 1.356 . S
C460 C461 1.348 . S
C461 C456 1.353 . S
C461 C460 1.348 . S
C461 H513 0.929 . S
H462 C456 0.930 . S
H463 C459 0.930 . S
C464 N465 1.314 . S
C464 C466 1.353 . S
C464 H470 0.930 . S
N465 Li441 1.990 . S
N465 C464 1.314 . S
N465 C468 1.279 . S
C466 C464 1.353 . S
C466 C469 1.348 . S
C466 H514 0.929 . S
C467 C468 1.358 . S
C467 C469 1.356 . S
C467 H515 0.930 . S
C468 N465 1.279 . S
C468 C467 1.358 . S
C468 H471 0.930 . S
C469 C466 1.348 . S
C469 C467 1.356 . S
H470 C464 0.930 . S
H471 C468 0.930 . S
C472 C474 1.348 . S
C472 C475 1.356 . S
C472 O502 1.325 . S
N473 C476 1.314 . S
N473 C477 1.279 . S
C474 C472 1.348 . S
C474 C476 1.353 . S
C474 H516 0.929 . S
C475 C472 1.356 . S
C475 C477 1.358 . S
C475 H517 0.930 . S
C476 N473 1.314 . S
C476 C474 1.353 . S
C476 H518 0.930 . S
C477 N473 1.279 . S
C477 C475 1.358 . S
C477 H519 0.930 . S
C478 C479 1.348 . S
C478 C480 1.356 . S
C478 O503 1.325 . S
C479 C478 1.348 . S
C479 C481 1.353 . S
C479 H520 0.929 . S
C480 C478 1.356 . S
C480 C482 1.358 . S
C480 H521 0.930 . S
C481 C479 1.353 . S
C481 N483 1.314 . S
C481 H522 0.930 . S
C482 C480 1.358 . S
C482 N483 1.279 . S
C482 H523 0.930 . S
N483 C481 1.314 . S
N483 C482 1.279 . S
C484 C486 1.353 . S
C484 N487 1.314 . S
C484 H490 0.930 . S
C485 N487 1.279 . S
C485 C488 1.358 . S
C485 H491 0.930 . S
C486 C484 1.353 . S
C486 C489 1.348 . S
C486 H524 0.929 . S
N487 Li442 1.990 . S
N487 C484 1.314 . S
N487 C485 1.279 . S
C488 C485 1.358 . S
C488 C489 1.356 . S
C488 H525 0.930 . S
C489 C486 1.348 . S
C489 C488 1.356 . S
H490 C484 0.930 . S
H491 C485 0.930 . S
C492 N493 1.314 . S
C492 C494 1.353 . S
C492 H498 0.930 . S
N493 Li443 1.990 . S
N493 C492 1.314 . S
N493 C496 1.279 . S
C494 C492 1.353 . S
C494 C497 1.348 . S
C494 H526 0.929 . S
C495 C496 1.358 . S
C495 C497 1.356 . S
C495 H527 0.930 . S
C496 N493 1.279 . S
C496 C495 1.358 . S
C496 H499 0.930 . S
C497 C494 1.348 . S
C497 C495 1.356 . S
H498 C492 0.930 . S
H499 C496 0.930 . S
O500 Li440 1.956 . S
O500 Li441 1.970 . S
O500 Li442 1.961 . S
O500 C444 1.325 . S
O501 Li440 1.970 . S
O501 Li441 1.956 . S
O501 Li443 1.961 . S
O501 C450 1.325 . S
O502 Li440 1.961 . S
O502 Li442 1.956 . S
O502 Li443 1.970 . S
O502 C472 1.325 . S
O503 Li441 1.961 . S
O503 Li442 1.970 . S
O503 Li443 1.956 . S
O503 C478 1.325 . S
H504 C446 0.929 . S
H505 C447 0.930 . S
H506 C448 0.930 . S
H507 C449 0.930 . S
H508 C451 0.930 . S
H509 C453 0.929 . S
H510 C454 0.930 . S
H511 C455 0.930 1_545 S
H512 C458 0.930 . S
H513 C461 0.929 . S
H514 C466 0.929 . S
H515 C467 0.930 . S
H516 C474 0.929 . S
H517 C475 0.930 . S
H518 C476 0.930 . S
H519 C477 0.930 . S
H520 C479 0.929 . S
H521 C480 0.930 . S
H522 C481 0.930 . S
H523 C482 0.930 . S
H524 C486 0.929 . S
H525 C488 0.930 . S
H526 C494 0.929 . S
H527 C495 0.930 . S
Li528 N545 1.990 . S
Li528 O588 1.956 . S
Li528 O589 1.970 . S
Li528 O590 1.961 . S
Li529 N553 1.990 . S
Li529 O588 1.970 . S
Li529 O589 1.956 . S
Li529 O591 1.961 . S
Li530 N575 1.990 . S
Li530 O588 1.961 . S
Li530 O590 1.956 . S
Li530 O591 1.970 . S
Li531 N581 1.990 . S
Li531 O589 1.961 . S
Li531 O590 1.970 . S
Li531 O591 1.956 . S
C532 C534 1.348 . S
C532 C535 1.356 . S
C532 O588 1.325 . S
N533 C536 1.314 . S
N533 C537 1.279 . S
C534 C532 1.348 . S
C534 C536 1.353 . S
C534 H592 0.929 . S
C535 C532 1.356 . S
C535 C537 1.358 . S
C535 H593 0.930 . S
C536 N533 1.314 . S
C536 C534 1.353 . S
C536 H594 0.930 . S
C537 N533 1.279 . S
C537 C535 1.358 . S
C537 H595 0.930 . S
C538 C541 1.348 . S
C538 C542 1.356 . S
C538 O589 1.325 . S
C539 N540 1.279 . S
C539 C542 1.358 . S
C539 H596 0.930 . S
N540 C539 1.279 . S
N540 C543 1.314 . S
C541 C538 1.348 . S
C541 C543 1.353 . S
C541 H597 0.929 . S
C542 C538 1.356 . S
C542 C539 1.358 . S
C542 H598 0.930 . S
C543 N540 1.314 . S
C543 C541 1.353 . S
C543 H599 0.930 . S
C544 N545 1.314 . S
C544 C549 1.353 . S
C544 H550 0.930 . S
N545 Li528 1.990 . S
N545 C544 1.314 . S
N545 C547 1.279 . S
C546 C547 1.358 . S
C546 C548 1.356 . S
C546 H600 0.930 . S
C547 N545 1.279 . S
C547 C546 1.358 . S
C547 H551 0.930 . S
C548 C546 1.356 . S
C548 C549 1.348 . S
C549 C544 1.353 . S
C549 C548 1.348 . S
C549 H601 0.929 . S
H550 C544 0.930 . S
H551 C547 0.930 . S
C552 N553 1.314 . S
C552 C554 1.353 . S
C552 H558 0.930 . S
N553 Li529 1.990 . S
N553 C552 1.314 . S
N553 C556 1.279 . S
C554 C552 1.353 . S
C554 C557 1.348 . S
C554 H602 0.929 . S
C555 C556 1.358 . S
C555 C557 1.356 . S
C555 H603 0.930 . S
C556 N553 1.279 . S
C556 C555 1.358 . S
C556 H559 0.930 . S
C557 C554 1.348 . S
C557 C555 1.356 . S
H558 C552 0.930 . S
H559 C556 0.930 . S
C560 C562 1.348 . S
C560 C563 1.356 . S
C560 O590 1.325 . S
N561 C564 1.314 . S
N561 C565 1.279 . S
C562 C560 1.348 . S
C562 C564 1.353 . S
C562 H604 0.929 . S
C563 C560 1.356 . S
C563 C565 1.358 . S
C563 H605 0.930 . S
C564 N561 1.314 . S
C564 C562 1.353 . S
C564 H606 0.930 . S
C565 N561 1.279 . S
C565 C563 1.358 . S
C565 H607 0.930 . S
C566 C567 1.348 . S
C566 C568 1.356 . S
C566 O591 1.325 . S
C567 C566 1.348 . S
C567 C569 1.353 . S
C567 H608 0.929 . S
C568 C566 1.356 . S
C568 C570 1.358 . S
C568 H609 0.930 . S
C569 C567 1.353 . S
C569 N571 1.314 . S
C569 H610 0.930 . S
C570 C568 1.358 . S
C570 N571 1.279 . S
C570 H611 0.930 . S
N571 C569 1.314 . S
N571 C570 1.279 . S
C572 C574 1.353 . S
C572 N575 1.314 . S
C572 H578 0.930 . S
C573 N575 1.279 . S
C573 C576 1.358 . S
C573 H579 0.930 . S
C574 C572 1.353 . S
C574 C577 1.348 . S
C574 H612 0.929 . S
N575 Li530 1.990 . S
N575 C572 1.314 . S
N575 C573 1.279 . S
C576 C573 1.358 . S
C576 C577 1.356 . S
C576 H613 0.930 . S
C577 C574 1.348 . S
C577 C576 1.356 . S
H578 C572 0.930 . S
H579 C573 0.930 . S
C580 N581 1.314 . S
C580 C582 1.353 . S
C580 H586 0.930 . S
N581 Li531 1.990 . S
N581 C580 1.314 . S
N581 C584 1.279 . S
C582 C580 1.353 . S
C582 C585 1.348 . S
C582 H614 0.929 . S
C583 C584 1.358 . S
C583 C585 1.356 . S
C583 H615 0.930 . S
C584 N581 1.279 . S
C584 C583 1.358 . S
C584 H587 0.930 . S
C585 C582 1.348 . S
C585 C583 1.356 . S
H586 C580 0.930 . S
H587 C584 0.930 . S
O588 Li528 1.956 . S
O588 Li529 1.970 . S
O588 Li530 1.961 . S
O588 C532 1.325 . S
O589 Li528 1.970 . S
O589 Li529 1.956 . S
O589 Li531 1.961 . S
O589 C538 1.325 . S
O590 Li528 1.961 . S
O590 Li530 1.956 . S
O590 Li531 1.970 . S
O590 C560 1.325 . S
O591 Li529 1.961 . S
O591 Li530 1.970 . S
O591 Li531 1.956 . S
O591 C566 1.325 . S
H592 C534 0.929 . S
H593 C535 0.930 . S
H594 C536 0.930 . S
H595 C537 0.930 . S
H596 C539 0.930 . S
H597 C541 0.929 . S
H598 C542 0.930 . S
H599 C543 0.930 . S
H600 C546 0.930 . S
H601 C549 0.929 . S
H602 C554 0.929 . S
H603 C555 0.930 . S
H604 C562 0.929 . S
H605 C563 0.930 . S
H606 C564 0.930 . S
H607 C565 0.930 . S
H608 C567 0.929 . S
H609 C568 0.930 . S
H610 C569 0.930 . S
H611 C570 0.930 . S
H612 C574 0.929 . S
H613 C576 0.930 . S
H614 C582 0.929 . S
H615 C583 0.930 . S
Li616 N633 1.990 . S
Li616 O676 1.956 . S
Li616 O677 1.970 . S
Li616 O678 1.961 . S
Li617 N641 1.990 . S
Li617 O676 1.970 . S
Li617 O677 1.956 . S
Li617 O679 1.961 . S
Li618 N663 1.990 . S
Li618 O676 1.961 . S
Li618 O678 1.956 . S
Li618 O679 1.970 . S
Li619 N669 1.990 . S
Li619 O677 1.961 . S
Li619 O678 1.970 . S
Li619 O679 1.956 . S
C620 C622 1.348 . S
C620 C623 1.356 . S
C620 O676 1.325 . S
N621 C624 1.314 . S
N621 C625 1.279 . S
C622 C620 1.348 . S
C622 C624 1.353 . S
C622 H680 0.929 . S
C623 C620 1.356 . S
C623 C625 1.358 . S
C623 H681 0.930 . S
C624 N621 1.314 . S
C624 C622 1.353 . S
C624 H682 0.930 . S
C625 N621 1.279 . S
C625 C623 1.358 . S
C625 H683 0.930 . S
C626 C629 1.348 . S
C626 C630 1.356 . S
C626 O677 1.325 . S
C627 N628 1.279 . S
C627 C630 1.358 . S
C627 H684 0.930 . S
N628 C627 1.279 . S
N628 C631 1.314 . S
C629 C626 1.348 . S
C629 C631 1.353 . S
C629 H685 0.929 . S
C630 C626 1.356 . S
C630 C627 1.358 . S
C630 H686 0.930 . S
C631 N628 1.314 . S
C631 C629 1.353 . S
C631 H687 0.930 . S
C632 N633 1.314 . S
C632 C637 1.353 . S
C632 H638 0.930 . S
N633 Li616 1.990 . S
N633 C632 1.314 . S
N633 C635 1.279 . S
C634 C635 1.358 . S
C634 C636 1.356 . S
C634 H688 0.930 . S
C635 N633 1.279 . S
C635 C634 1.358 . S
C635 H639 0.930 . S
C636 C634 1.356 . S
C636 C637 1.348 . S
C637 C632 1.353 . S
C637 C636 1.348 . S
C637 H689 0.929 . S
H638 C632 0.930 . S
H639 C635 0.930 . S
C640 N641 1.314 . S
C640 C642 1.353 . S
C640 H646 0.930 . S
N641 Li617 1.990 . S
N641 C640 1.314 . S
N641 C644 1.279 . S
C642 C640 1.353 . S
C642 C645 1.348 . S
C642 H690 0.929 . S
C643 C644 1.358 . S
C643 C645 1.356 . S
C643 H691 0.930 . S
C644 N641 1.279 . S
C644 C643 1.358 . S
C644 H647 0.930 . S
C645 C642 1.348 . S
C645 C643 1.356 . S
H646 C640 0.930 . S
H647 C644 0.930 . S
C648 C650 1.348 . S
C648 C651 1.356 . S
C648 O678 1.325 . S
N649 C652 1.314 . S
N649 C653 1.279 . S
C650 C648 1.348 . S
C650 C652 1.353 . S
C650 H692 0.929 . S
C651 C648 1.356 . S
C651 C653 1.358 . S
C651 H693 0.930 . S
C652 N649 1.314 . S
C652 C650 1.353 . S
C652 H694 0.930 . S
C653 N649 1.279 . S
C653 C651 1.358 . S
C653 H695 0.930 . S
C654 C655 1.348 . S
C654 C656 1.356 . S
C654 O679 1.325 . S
C655 C654 1.348 . S
C655 C657 1.353 . S
C655 H696 0.929 . S
C656 C654 1.356 . S
C656 C658 1.358 . S
C656 H697 0.930 . S
C657 C655 1.353 . S
C657 N659 1.296 1_545 S
C657 H698 0.930 1_545 S
C658 C656 1.358 . S
C658 N659 1.243 1_545 S
C658 H699 0.930 . S
N659 C657 1.296 1_565 S
N659 C658 1.243 1_565 S
C660 C662 1.353 . S
C660 N663 1.314 . S
C660 H666 0.930 . S
C661 N663 1.279 . S
C661 C664 1.358 . S
C661 H667 0.930 . S
C662 C660 1.353 . S
C662 C665 1.348 . S
C662 H700 0.929 . S
N663 Li618 1.990 . S
N663 C660 1.314 . S
N663 C661 1.279 . S
C664 C661 1.358 . S
C664 C665 1.356 . S
C664 H701 0.930 . S
C665 C662 1.348 . S
C665 C664 1.356 . S
H666 C660 0.930 . S
H667 C661 0.930 . S
C668 N669 1.314 . S
C668 C670 1.353 . S
C668 H674 0.930 . S
N669 Li619 1.990 . S
N669 C668 1.314 . S
N669 C672 1.279 . S
C670 C668 1.353 . S
C670 C673 1.348 . S
C670 H702 0.929 . S
C671 C672 1.358 . S
C671 C673 1.356 . S
C671 H703 0.930 . S
C672 N669 1.279 . S
C672 C671 1.358 . S
C672 H675 0.930 . S
C673 C670 1.348 . S
C673 C671 1.356 . S
H674 C668 0.930 . S
H675 C672 0.930 . S
O676 Li616 1.956 . S
O676 Li617 1.970 . S
O676 Li618 1.961 . S
O676 C620 1.325 . S
O677 Li616 1.970 . S
O677 Li617 1.956 . S
O677 Li619 1.961 . S
O677 C626 1.325 . S
O678 Li616 1.961 . S
O678 Li618 1.956 . S
O678 Li619 1.970 . S
O678 C648 1.325 . S
O679 Li617 1.961 . S
O679 Li618 1.970 . S
O679 Li619 1.956 . S
O679 C654 1.325 . S
H680 C622 0.929 . S
H681 C623 0.930 . S
H682 C624 0.930 . S
H683 C625 0.930 . S
H684 C627 0.930 . S
H685 C629 0.929 . S
H686 C630 0.930 . S
H687 C631 0.930 . S
H688 C634 0.930 . S
H689 C637 0.929 . S
H690 C642 0.929 . S
H691 C643 0.930 . S
H692 C650 0.929 . S
H693 C651 0.930 . S
H694 C652 0.930 . S
H695 C653 0.930 . S
H696 C655 0.929 . S
H697 C656 0.930 . S
H698 C657 0.930 1_565 S
H699 C658 0.930 . S
H700 C662 0.929 . S
H701 C664 0.930 . S
H702 C670 0.929 . S
H703 C671 0.930 . S
Li704 N721 1.990 . S
Li704 O764 1.956 . S
Li704 O765 1.970 . S
Li704 O766 1.961 . S
Li705 N729 1.990 . S
Li705 O764 1.970 . S
Li705 O765 1.956 . S
Li705 O767 1.961 . S
Li706 N751 1.990 . S
Li706 O764 1.961 . S
Li706 O766 1.956 . S
Li706 O767 1.970 . S
Li707 N757 1.990 . S
Li707 O765 1.961 . S
Li707 O766 1.970 . S
Li707 O767 1.956 . S
C708 C710 1.348 . S
C708 C711 1.356 . S
C708 O764 1.325 . S
N709 C712 1.314 . S
N709 C713 1.279 . S
C710 C708 1.348 . S
C710 C712 1.353 . S
C710 H768 0.929 . S
C711 C708 1.356 . S
C711 C713 1.358 . S
C711 H769 0.930 . S
C712 N709 1.314 . S
C712 C710 1.353 . S
C712 H770 0.930 . S
C713 N709 1.279 . S
C713 C711 1.358 . S
C713 H771 0.930 . S
C714 C717 1.348 . S
C714 C718 1.356 . S
C714 O765 1.325 . S
C715 N716 1.279 . S
C715 C718 1.358 . S
C715 H772 0.930 . S
N716 C715 1.279 . S
N716 C719 1.314 . S
C717 C714 1.348 . S
C717 C719 1.353 . S
C717 H773 0.929 . S
C718 C714 1.356 . S
C718 C715 1.358 . S
C718 H774 0.930 . S
C719 N716 1.314 . S
C719 C717 1.353 . S
C719 H775 0.930 . S
C720 N721 1.314 . S
C720 C725 1.353 . S
C720 H726 0.930 . S
N721 Li704 1.990 . S
N721 C720 1.314 . S
N721 C723 1.279 . S
C722 C723 1.358 . S
C722 C724 1.356 . S
C722 H776 0.930 . S
C723 N721 1.279 . S
C723 C722 1.358 . S
C723 H727 0.930 . S
C724 C722 1.356 . S
C724 C725 1.348 . S
C725 C720 1.353 . S
C725 C724 1.348 . S
C725 H777 0.929 . S
H726 C720 0.930 . S
H727 C723 0.930 . S
C728 N729 1.314 . S
C728 C730 1.353 . S
C728 H734 0.930 . S
N729 Li705 1.990 . S
N729 C728 1.314 . S
N729 C732 1.279 . S
C730 C728 1.353 . S
C730 C733 1.348 . S
C730 H778 0.929 . S
C731 C732 1.358 . S
C731 C733 1.356 . S
C731 H779 0.930 . S
C732 N729 1.279 . S
C732 C731 1.358 . S
C732 H735 0.930 . S
C733 C730 1.348 . S
C733 C731 1.356 . S
H734 C728 0.930 . S
H735 C732 0.930 . S
C736 C738 1.348 . S
C736 C739 1.356 . S
C736 O766 1.325 . S
N737 C740 1.314 . S
N737 C741 1.279 . S
C738 C736 1.348 . S
C738 C740 1.353 . S
C738 H780 0.929 . S
C739 C736 1.356 . S
C739 C741 1.358 . S
C739 H781 0.930 . S
C740 N737 1.314 . S
C740 C738 1.353 . S
C740 H782 0.930 . S
C741 N737 1.279 . S
C741 C739 1.358 . S
C741 H783 0.930 . S
C742 C743 1.348 . S
C742 C744 1.356 . S
C742 O767 1.325 . S
C743 C742 1.348 . S
C743 C745 1.353 . S
C743 H784 0.929 . S
C744 C742 1.356 . S
C744 C746 1.358 . S
C744 H785 0.930 . S
C745 C743 1.353 . S
C745 N747 1.314 . S
C745 H786 0.930 . S
C746 C744 1.358 . S
C746 N747 1.279 . S
C746 H787 0.930 . S
N747 C745 1.314 . S
N747 C746 1.279 . S
C748 C750 1.353 . S
C748 N751 1.314 . S
C748 H754 0.930 . S
C749 N751 1.279 . S
C749 C752 1.358 . S
C749 H755 0.930 . S
C750 C748 1.353 . S
C750 C753 1.348 . S
C750 H788 0.929 . S
N751 Li706 1.990 . S
N751 C748 1.314 . S
N751 C749 1.279 . S
C752 C749 1.358 . S
C752 C753 1.356 . S
C752 H789 0.930 . S
C753 C750 1.348 . S
C753 C752 1.356 . S
H754 C748 0.930 . S
H755 C749 0.930 . S
C756 N757 1.314 . S
C756 C758 1.353 . S
C756 H762 0.930 . S
N757 Li707 1.990 . S
N757 C756 1.314 . S
N757 C760 1.279 . S
C758 C756 1.353 . S
C758 C761 1.348 . S
C758 H790 0.929 . S
C759 C760 1.358 . S
C759 C761 1.356 . S
C759 H791 0.930 . S
C760 N757 1.279 . S
C760 C759 1.358 . S
C760 H763 0.930 . S
C761 C758 1.348 . S
C761 C759 1.356 . S
H762 C756 0.930 . S
H763 C760 0.930 . S
O764 Li704 1.956 . S
O764 Li705 1.970 . S
O764 Li706 1.961 . S
O764 C708 1.325 . S
O765 Li704 1.970 . S
O765 Li705 1.956 . S
O765 Li707 1.961 . S
O765 C714 1.325 . S
O766 Li704 1.961 . S
O766 Li706 1.956 . S
O766 Li707 1.970 . S
O766 C736 1.325 . S
O767 Li705 1.961 . S
O767 Li706 1.970 . S
O767 Li707 1.956 . S
O767 C742 1.325 . S
H768 C710 0.929 . S
H769 C711 0.930 . S
H770 C712 0.930 . S
H771 C713 0.930 . S
H772 C715 0.930 . S
H773 C717 0.929 . S
H774 C718 0.930 . S
H775 C719 0.930 . S
H776 C722 0.930 . S
H777 C725 0.929 . S
H778 C730 0.929 . S
H779 C731 0.930 . S
H780 C738 0.929 . S
H781 C739 0.930 . S
H782 C740 0.930 . S
H783 C741 0.930 . S
H784 C743 0.929 . S
H785 C744 0.930 . S
H786 C745 0.930 . S
H787 C746 0.930 . S
H788 C750 0.929 . S
H789 C752 0.930 . S
H790 C758 0.929 . S
H791 C759 0.930 . S
Li792 N809 1.990 . S
Li792 O852 1.956 . S
Li792 O853 1.970 . S
Li792 O854 1.961 . S
Li793 N817 1.990 . S
Li793 O852 1.970 . S
Li793 O853 1.956 . S
Li793 O855 1.961 . S
Li794 N839 1.990 . S
Li794 O852 1.961 . S
Li794 O854 1.956 . S
Li794 O855 1.970 . S
Li795 N845 1.990 . S
Li795 O853 1.961 . S
Li795 O854 1.970 . S
Li795 O855 1.956 . S
C796 C798 1.348 . S
C796 C799 1.356 . S
C796 O852 1.325 . S
N797 C800 1.314 . S
N797 C801 1.279 . S
C798 C796 1.348 . S
C798 C800 1.353 . S
C798 H856 0.929 . S
C799 C796 1.356 . S
C799 C801 1.358 . S
C799 H857 0.930 . S
C800 N797 1.314 . S
C800 C798 1.353 . S
C800 H858 0.930 . S
C801 N797 1.279 . S
C801 C799 1.358 . S
C801 H859 0.930 . S
C802 C805 1.348 . S
C802 C806 1.356 . S
C802 O853 1.325 . S
C803 N804 1.279 . S
C803 C806 1.358 . S
C803 H860 0.930 . S
N804 C803 1.279 . S
N804 C807 1.314 . S
C805 C802 1.348 . S
C805 C807 1.353 . S
C805 H861 0.929 . S
C806 C802 1.356 . S
C806 C803 1.358 . S
C806 H862 0.930 . S
C807 N804 1.314 . S
C807 C805 1.353 . S
C807 H863 0.930 . S
C808 N809 1.314 . S
C808 C813 1.353 . S
C808 H814 0.930 . S
N809 Li792 1.990 . S
N809 C808 1.314 . S
N809 C811 1.279 . S
C810 C811 1.358 . S
C810 C812 1.356 . S
C810 H864 0.930 . S
C811 N809 1.279 . S
C811 C810 1.358 . S
C811 H815 0.930 . S
C812 C810 1.356 . S
C812 C813 1.348 . S
C813 C808 1.353 . S
C813 C812 1.348 . S
C813 H865 0.929 . S
H814 C808 0.930 . S
H815 C811 0.930 . S
C816 N817 1.314 . S
C816 C818 1.353 . S
C816 H822 0.930 . S
N817 Li793 1.990 . S
N817 C816 1.314 . S
N817 C820 1.279 . S
C818 C816 1.353 . S
C818 C821 1.348 . S
C818 H866 0.929 . S
C819 C820 1.358 . S
C819 C821 1.356 . S
C819 H867 0.930 . S
C820 N817 1.279 . S
C820 C819 1.358 . S
C820 H823 0.930 . S
C821 C818 1.348 . S
C821 C819 1.356 . S
H822 C816 0.930 . S
H823 C820 0.930 . S
C824 C826 1.348 . S
C824 C827 1.356 . S
C824 O854 1.325 . S
N825 C828 1.314 . S
N825 C829 1.279 . S
C826 C824 1.348 . S
C826 C828 1.353 . S
C826 H868 0.929 . S
C827 C824 1.356 . S
C827 C829 1.358 . S
C827 H869 0.930 . S
C828 N825 1.314 . S
C828 C826 1.353 . S
C828 H870 0.930 . S
C829 N825 1.279 . S
C829 C827 1.358 . S
C829 H871 0.930 . S
C830 C831 1.348 . S
C830 C832 1.356 . S
C830 O855 1.325 . S
C831 C830 1.348 . S
C831 C833 1.353 . S
C831 H872 0.929 . S
C832 C830 1.356 . S
C832 C834 1.358 . S
C832 H873 0.930 . S
C833 C831 1.353 . S
C833 N835 1.297 1_545 S
C833 H874 0.930 1_545 S
C834 C832 1.358 . S
C834 N835 1.239 1_545 S
C834 H875 0.930 . S
N835 C833 1.297 1_565 S
N835 C834 1.239 1_565 S
C836 C838 1.353 . S
C836 N839 1.314 . S
C836 H842 0.930 . S
C837 N839 1.279 . S
C837 C840 1.358 . S
C837 H843 0.930 . S
C838 C836 1.353 . S
C838 C841 1.348 . S
C838 H876 0.929 . S
N839 Li794 1.990 . S
N839 C836 1.314 . S
N839 C837 1.279 . S
C840 C837 1.358 . S
C840 C841 1.356 . S
C840 H877 0.930 . S
C841 C838 1.348 . S
C841 C840 1.356 . S
H842 C836 0.930 . S
H843 C837 0.930 . S
C844 N845 1.314 . S
C844 C846 1.353 . S
C844 H850 0.930 . S
N845 Li795 1.990 . S
N845 C844 1.314 . S
N845 C848 1.279 . S
C846 C844 1.353 . S
C846 C849 1.348 . S
C846 H878 0.929 . S
C847 C848 1.358 . S
C847 C849 1.356 . S
C847 H879 0.930 . S
C848 N845 1.279 . S
C848 C847 1.358 . S
C848 H851 0.930 . S
C849 C846 1.348 . S
C849 C847 1.356 . S
H850 C844 0.930 . S
H851 C848 0.930 . S
O852 Li792 1.956 . S
O852 Li793 1.970 . S
O852 Li794 1.961 . S
O852 C796 1.325 . S
O853 Li792 1.970 . S
O853 Li793 1.956 . S
O853 Li795 1.961 . S
O853 C802 1.325 . S
O854 Li792 1.961 . S
O854 Li794 1.956 . S
O854 Li795 1.970 . S
O854 C824 1.325 . S
O855 Li793 1.961 . S
O855 Li794 1.970 . S
O855 Li795 1.956 . S
O855 C830 1.325 . S
H856 C798 0.929 . S
H857 C799 0.930 . S
H858 C800 0.930 . S
H859 C801 0.930 . S
H860 C803 0.930 . S
H861 C805 0.929 . S
H862 C806 0.930 . S
H863 C807 0.930 . S
H864 C810 0.930 . S
H865 C813 0.929 . S
H866 C818 0.929 . S
H867 C819 0.930 . S
H868 C826 0.929 . S
H869 C827 0.930 . S
H870 C828 0.930 . S
H871 C829 0.930 . S
H872 C831 0.929 . S
H873 C832 0.930 . S
H874 C833 0.930 1_565 S
H875 C834 0.930 . S
H876 C838 0.929 . S
H877 C840 0.930 . S
H878 C846 0.929 . S
H879 C847 0.930 . S
Li880 N897 1.990 . S
Li880 O940 1.956 . S
Li880 O941 1.970 . S
Li880 O942 1.961 . S
Li881 N905 1.990 . S
Li881 O940 1.970 . S
Li881 O941 1.956 . S
Li881 O943 1.961 . S
Li882 N927 1.990 . S
Li882 O940 1.961 . S
Li882 O942 1.956 . S
Li882 O943 1.970 . S
Li883 N933 1.990 . S
Li883 O941 1.961 . S
Li883 O942 1.970 . S
Li883 O943 1.956 . S
C884 C886 1.348 . S
C884 C887 1.356 . S
C884 O940 1.325 . S
N885 C888 1.314 . S
N885 C889 1.279 . S
C886 C884 1.348 . S
C886 C888 1.353 . S
C886 H944 0.929 . S
C887 C884 1.356 . S
C887 C889 1.358 . S
C887 H945 0.930 . S
C888 N885 1.314 . S
C888 C886 1.353 . S
C888 H946 0.930 . S
C889 N885 1.279 . S
C889 C887 1.358 . S
C889 H947 0.930 . S
C890 C893 1.348 . S
C890 C894 1.356 . S
C890 O941 1.325 . S
C891 N892 1.279 . S
C891 C894 1.358 . S
C891 H948 0.930 . S
N892 C891 1.279 . S
N892 C895 1.314 . S
C893 C890 1.348 . S
C893 C895 1.353 . S
C893 H949 0.929 . S
C894 C890 1.356 . S
C894 C891 1.358 . S
C894 H950 0.930 . S
C895 N892 1.314 . S
C895 C893 1.353 . S
C895 H951 0.930 . S
C896 N897 1.314 . S
C896 C901 1.353 . S
C896 H902 0.930 . S
N897 Li880 1.990 . S
N897 C896 1.314 . S
N897 C899 1.279 . S
C898 C899 1.358 . S
C898 C900 1.356 . S
C898 H952 0.930 . S
C899 N897 1.279 . S
C899 C898 1.358 . S
C899 H903 0.930 . S
C900 C898 1.356 . S
C900 C901 1.348 . S
C901 C896 1.353 . S
C901 C900 1.348 . S
C901 H953 0.929 . S
H902 C896 0.930 . S
H903 C899 0.930 . S
C904 N905 1.314 . S
C904 C906 1.353 . S
C904 H910 0.930 . S
N905 Li881 1.990 . S
N905 C904 1.314 . S
N905 C908 1.279 . S
C906 C904 1.353 . S
C906 C909 1.348 . S
C906 H954 0.929 . S
C907 C908 1.358 . S
C907 C909 1.356 . S
C907 H955 0.930 . S
C908 N905 1.279 . S
C908 C907 1.358 . S
C908 H911 0.930 . S
C909 C906 1.348 . S
C909 C907 1.356 . S
H910 C904 0.930 . S
H911 C908 0.930 . S
C912 C914 1.348 . S
C912 C915 1.356 . S
C912 O942 1.325 . S
N913 C916 1.314 . S
N913 C917 1.279 . S
C914 C912 1.348 . S
C914 C916 1.353 . S
C914 H956 0.929 . S
C915 C912 1.356 . S
C915 C917 1.358 . S
C915 H957 0.930 . S
C916 N913 1.314 . S
C916 C914 1.353 . S
C916 H958 0.930 . S
C917 N913 1.279 . S
C917 C915 1.358 . S
C917 H959 0.930 . S
C918 C919 1.348 . S
C918 C920 1.356 . S
C918 O943 1.325 . S
C919 C918 1.348 . S
C919 C921 1.353 . S
C919 H960 0.929 . S
C920 C918 1.356 . S
C920 C922 1.358 . S
C920 H961 0.930 . S
C921 C919 1.353 . S
C921 N923 1.314 . S
C921 H962 0.930 . S
C922 C920 1.358 . S
C922 N923 1.279 . S
C922 H963 0.930 . S
N923 C921 1.314 . S
N923 C922 1.279 . S
C924 C926 1.353 . S
C924 N927 1.314 . S
C924 H930 0.930 . S
C925 N927 1.279 . S
C925 C928 1.358 . S
C925 H931 0.930 . S
C926 C924 1.353 . S
C926 C929 1.348 . S
C926 H964 0.929 . S
N927 Li882 1.990 . S
N927 C924 1.314 . S
N927 C925 1.279 . S
C928 C925 1.358 . S
C928 C929 1.356 . S
C928 H965 0.930 . S
C929 C926 1.348 . S
C929 C928 1.356 . S
H930 C924 0.930 . S
H931 C925 0.930 . S
C932 N933 1.314 . S
C932 C934 1.353 . S
C932 H938 0.930 . S
N933 Li883 1.990 . S
N933 C932 1.314 . S
N933 C936 1.279 . S
C934 C932 1.353 . S
C934 C937 1.348 . S
C934 H966 0.929 . S
C935 C936 1.358 . S
C935 C937 1.356 . S
C935 H967 0.930 . S
C936 N933 1.279 . S
C936 C935 1.358 . S
C936 H939 0.930 . S
C937 C934 1.348 . S
C937 C935 1.356 . S
H938 C932 0.930 . S
H939 C936 0.930 . S
O940 Li880 1.956 . S
O940 Li881 1.970 . S
O940 Li882 1.961 . S
O940 C884 1.325 . S
O941 Li880 1.970 . S
O941 Li881 1.956 . S
O941 Li883 1.961 . S
O941 C890 1.325 . S
O942 Li880 1.961 . S
O942 Li882 1.956 . S
O942 Li883 1.970 . S
O942 C912 1.325 . S
O943 Li881 1.961 . S
O943 Li882 1.970 . S
O943 Li883 1.956 . S
O943 C918 1.325 . S
H944 C886 0.929 . S
H945 C887 0.930 . S
H946 C888 0.930 . S
H947 C889 0.930 . S
H948 C891 0.930 . S
H949 C893 0.929 . S
H950 C894 0.930 . S
H951 C895 0.930 . S
H952 C898 0.930 . S
H953 C901 0.929 . S
H954 C906 0.929 . S
H955 C907 0.930 . S
H956 C914 0.929 . S
H957 C915 0.930 . S
H958 C916 0.930 . S
H959 C917 0.930 . S
H960 C919 0.929 . S
H961 C920 0.930 . S
H962 C921 0.930 . S
H963 C922 0.930 . S
H964 C926 0.929 . S
H965 C928 0.930 . S
H966 C934 0.929 . S
H967 C935 0.930 . S
Li968 N985 1.990 . S
Li968 O1028 1.956 . S
Li968 O1029 1.970 . S
Li968 O1030 1.961 . S
Li969 N993 1.990 . S
Li969 O1028 1.970 . S
Li969 O1029 1.956 . S
Li969 O1031 1.961 . S
Li970 N1015 1.990 . S
Li970 O1028 1.961 . S
Li970 O1030 1.956 . S
Li970 O1031 1.970 . S
Li971 N1021 1.990 . S
Li971 O1029 1.961 . S
Li971 O1030 1.970 . S
Li971 O1031 1.956 . S
C972 C974 1.348 . S
C972 C975 1.356 . S
C972 O1028 1.325 . S
N973 C976 1.314 . S
N973 C977 1.279 . S
C974 C972 1.348 . S
C974 C976 1.353 . S
C974 H1032 0.929 . S
C975 C972 1.356 . S
C975 C977 1.358 . S
C975 H1033 0.930 . S
C976 N973 1.314 . S
C976 C974 1.353 . S
C976 H1034 0.930 . S
C977 N973 1.279 . S
C977 C975 1.358 . S
C977 H1035 0.930 . S
C978 C981 1.348 . S
C978 C982 1.356 . S
C978 O1029 1.325 . S
C979 N980 1.240 1_565 S
C979 C982 1.358 . S
C979 H1036 0.930 . S
N980 C979 1.240 1_545 S
N980 C983 1.297 1_545 S
C981 C978 1.348 . S
C981 C983 1.353 . S
C981 H1037 0.929 . S
C982 C978 1.356 . S
C982 C979 1.358 . S
C982 H1038 0.930 . S
C983 N980 1.297 1_565 S
C983 C981 1.353 . S
C983 H1039 0.930 1_565 S
C984 N985 1.314 . S
C984 C989 1.353 . S
C984 H990 0.930 . S
N985 Li968 1.990 . S
N985 C984 1.314 . S
N985 C987 1.279 . S
C986 C987 1.358 . S
C986 C988 1.356 . S
C986 H1040 0.930 . S
C987 N985 1.279 . S
C987 C986 1.358 . S
C987 H991 0.930 . S
C988 C986 1.356 . S
C988 C989 1.348 . S
C989 C984 1.353 . S
C989 C988 1.348 . S
C989 H1041 0.929 . S
H990 C984 0.930 . S
H991 C987 0.930 . S
C992 N993 1.314 . S
C992 C994 1.353 . S
C992 H998 0.930 . S
N993 Li969 1.990 . S
N993 C992 1.314 . S
N993 C996 1.279 . S
C994 C992 1.353 . S
C994 C997 1.348 . S
C994 H1042 0.929 . S
C995 C996 1.358 . S
C995 C997 1.356 . S
C995 H1043 0.930 . S
C996 N993 1.279 . S
C996 C995 1.358 . S
C996 H999 0.930 . S
C997 C994 1.348 . S
C997 C995 1.356 . S
H998 C992 0.930 . S
H999 C996 0.930 . S
C1000 C1002 1.348 . S
C1000 C1003 1.356 . S
C1000 O1030 1.325 . S
N1001 C1004 1.314 . S
N1001 C1005 1.279 . S
C1002 C1000 1.348 . S
C1002 C1004 1.353 . S
C1002 H1044 0.929 . S
C1003 C1000 1.356 . S
C1003 C1005 1.358 . S
C1003 H1045 0.930 . S
C1004 N1001 1.314 . S
C1004 C1002 1.353 . S
C1004 H1046 0.930 . S
C1005 N1001 1.279 . S
C1005 C1003 1.358 . S
C1005 H1047 0.930 . S
C1006 C1007 1.348 . S
C1006 C1008 1.356 . S
C1006 O1031 1.325 . S
C1007 C1006 1.348 . S
C1007 C1009 1.353 . S
C1007 H1048 0.929 . S
C1008 C1006 1.356 . S
C1008 C1010 1.358 . S
C1008 H1049 0.930 . S
C1009 C1007 1.353 . S
C1009 N1011 1.314 . S
C1009 H1050 0.930 . S
C1010 C1008 1.358 . S
C1010 N1011 1.279 . S
C1010 H1051 0.930 . S
N1011 C1009 1.314 . S
N1011 C1010 1.279 . S
C1012 C1014 1.353 . S
C1012 N1015 1.314 . S
C1012 H1018 0.930 . S
C1013 N1015 1.279 . S
C1013 C1016 1.358 . S
C1013 H1019 0.930 . S
C1014 C1012 1.353 . S
C1014 C1017 1.348 . S
C1014 H1052 0.929 . S
N1015 Li970 1.990 . S
N1015 C1012 1.314 . S
N1015 C1013 1.279 . S
C1016 C1013 1.358 . S
C1016 C1017 1.356 . S
C1016 H1053 0.930 . S
C1017 C1014 1.348 . S
C1017 C1016 1.356 . S
H1018 C1012 0.930 . S
H1019 C1013 0.930 . S
C1020 N1021 1.314 . S
C1020 C1022 1.353 . S
C1020 H1026 0.930 . S
N1021 Li971 1.990 . S
N1021 C1020 1.314 . S
N1021 C1024 1.279 . S
C1022 C1020 1.353 . S
C1022 C1025 1.348 . S
C1022 H1054 0.929 . S
C1023 C1024 1.358 . S
C1023 C1025 1.356 . S
C1023 H1055 0.930 . S
C1024 N1021 1.279 . S
C1024 C1023 1.358 . S
C1024 H1027 0.930 . S
C1025 C1022 1.348 . S
C1025 C1023 1.356 . S
H1026 C1020 0.930 . S
H1027 C1024 0.930 . S
O1028 Li968 1.956 . S
O1028 Li969 1.970 . S
O1028 Li970 1.961 . S
O1028 C972 1.325 . S
O1029 Li968 1.970 . S
O1029 Li969 1.956 . S
O1029 Li971 1.961 . S
O1029 C978 1.325 . S
O1030 Li968 1.961 . S
O1030 Li970 1.956 . S
O1030 Li971 1.970 . S
O1030 C1000 1.325 . S
O1031 Li969 1.961 . S
O1031 Li970 1.970 . S
O1031 Li971 1.956 . S
O1031 C1006 1.325 . S
H1032 C974 0.929 . S
H1033 C975 0.930 . S
H1034 C976 0.930 . S
H1035 C977 0.930 . S
H1036 C979 0.930 . S
H1037 C981 0.929 . S
H1038 C982 0.930 . S
H1039 C983 0.930 1_545 S
H1040 C986 0.930 . S
H1041 C989 0.929 . S
H1042 C994 0.929 . S
H1043 C995 0.930 . S
H1044 C1002 0.929 . S
H1045 C1003 0.930 . S
H1046 C1004 0.930 . S
H1047 C1005 0.930 . S
H1048 C1007 0.929 . S
H1049 C1008 0.930 . S
H1050 C1009 0.930 . S
H1051 C1010 0.930 . S
H1052 C1014 0.929 . S
H1053 C1016 0.930 . S
H1054 C1022 0.929 . S
H1055 C1023 0.930 . S
Li1056 N1073 1.990 . S
Li1056 O1116 1.956 . S
Li1056 O1117 1.970 . S
Li1056 O1118 1.961 . S
Li1057 N1081 1.990 . S
Li1057 O1116 1.970 . S
Li1057 O1117 1.956 . S
Li1057 O1119 1.961 . S
Li1058 N1103 1.990 . S
Li1058 O1116 1.961 . S
Li1058 O1118 1.956 . S
Li1058 O1119 1.970 . S
Li1059 N1109 1.990 . S
Li1059 O1117 1.961 . S
Li1059 O1118 1.970 . S
Li1059 O1119 1.956 . S
C1060 C1062 1.348 . S
C1060 C1063 1.356 . S
C1060 O1116 1.325 . S
N1061 C1064 1.314 . S
N1061 C1065 1.279 . S
C1062 C1060 1.348 . S
C1062 C1064 1.353 . S
C1062 H1120 0.929 . S
C1063 C1060 1.356 . S
C1063 C1065 1.358 . S
C1063 H1121 0.930 . S
C1064 N1061 1.314 . S
C1064 C1062 1.353 . S
C1064 H1122 0.930 . S
C1065 N1061 1.279 . S
C1065 C1063 1.358 . S
C1065 H1123 0.930 . S
C1066 C1069 1.348 . S
C1066 C1070 1.356 . S
C1066 O1117 1.325 . S
C1067 N1068 1.279 . S
C1067 C1070 1.358 . S
C1067 H1124 0.930 . S
N1068 C1067 1.279 . S
N1068 C1071 1.314 . S
C1069 C1066 1.348 . S
C1069 C1071 1.353 . S
C1069 H1125 0.929 . S
C1070 C1066 1.356 . S
C1070 C1067 1.358 . S
C1070 H1126 0.930 . S
C1071 N1068 1.314 . S
C1071 C1069 1.353 . S
C1071 H1127 0.930 . S
C1072 N1073 1.314 . S
C1072 C1077 1.353 . S
C1072 H1078 0.930 . S
N1073 Li1056 1.990 . S
N1073 C1072 1.314 . S
N1073 C1075 1.279 . S
C1074 C1075 1.358 . S
C1074 C1076 1.356 . S
C1074 H1128 0.930 . S
C1075 N1073 1.279 . S
C1075 C1074 1.358 . S
C1075 H1079 0.930 . S
C1076 C1074 1.356 . S
C1076 C1077 1.348 . S
C1077 C1072 1.353 . S
C1077 C1076 1.348 . S
C1077 H1129 0.929 . S
H1078 C1072 0.930 . S
H1079 C1075 0.930 . S
C1080 N1081 1.314 . S
C1080 C1082 1.353 . S
C1080 H1086 0.930 . S
N1081 Li1057 1.990 . S
N1081 C1080 1.314 . S
N1081 C1084 1.279 . S
C1082 C1080 1.353 . S
C1082 C1085 1.348 . S
C1082 H1130 0.929 . S
C1083 C1084 1.358 . S
C1083 C1085 1.356 . S
C1083 H1131 0.930 . S
C1084 N1081 1.279 . S
C1084 C1083 1.358 . S
C1084 H1087 0.930 . S
C1085 C1082 1.348 . S
C1085 C1083 1.356 . S
H1086 C1080 0.930 . S
H1087 C1084 0.930 . S
C1088 C1090 1.348 . S
C1088 C1091 1.356 . S
C1088 O1118 1.325 . S
N1089 C1092 1.314 . S
N1089 C1093 1.279 . S
C1090 C1088 1.348 . S
C1090 C1092 1.353 . S
C1090 H1132 0.929 . S
C1091 C1088 1.356 . S
C1091 C1093 1.358 . S
C1091 H1133 0.930 . S
C1092 N1089 1.314 . S
C1092 C1090 1.353 . S
C1092 H1134 0.930 . S
C1093 N1089 1.279 . S
C1093 C1091 1.358 . S
C1093 H1135 0.930 . S
C1094 C1095 1.348 . S
C1094 C1096 1.356 . S
C1094 O1119 1.325 . S
C1095 C1094 1.348 . S
C1095 C1097 1.353 . S
C1095 H1136 0.929 . S
C1096 C1094 1.356 . S
C1096 C1098 1.358 . S
C1096 H1137 0.930 . S
C1097 C1095 1.353 . S
C1097 N1099 1.314 . S
C1097 H1138 0.930 . S
C1098 C1096 1.358 . S
C1098 N1099 1.279 . S
C1098 H1139 0.930 . S
N1099 C1097 1.314 . S
N1099 C1098 1.279 . S
C1100 C1102 1.353 . S
C1100 N1103 1.314 . S
C1100 H1106 0.930 . S
C1101 N1103 1.279 . S
C1101 C1104 1.358 . S
C1101 H1107 0.930 . S
C1102 C1100 1.353 . S
C1102 C1105 1.348 . S
C1102 H1140 0.929 . S
N1103 Li1058 1.990 . S
N1103 C1100 1.314 . S
N1103 C1101 1.279 . S
C1104 C1101 1.358 . S
C1104 C1105 1.356 . S
C1104 H1141 0.930 . S
C1105 C1102 1.348 . S
C1105 C1104 1.356 . S
H1106 C1100 0.930 . S
H1107 C1101 0.930 . S
C1108 N1109 1.314 . S
C1108 C1110 1.353 . S
C1108 H1114 0.930 . S
N1109 Li1059 1.990 . S
N1109 C1108 1.314 . S
N1109 C1112 1.279 . S
C1110 C1108 1.353 . S
C1110 C1113 1.348 . S
C1110 H1142 0.929 . S
C1111 C1112 1.358 . S
C1111 C1113 1.356 . S
C1111 H1143 0.930 . S
C1112 N1109 1.279 . S
C1112 C1111 1.358 . S
C1112 H1115 0.930 . S
C1113 C1110 1.348 . S
C1113 C1111 1.356 . S
H1114 C1108 0.930 . S
H1115 C1112 0.930 . S
O1116 Li1056 1.956 . S
O1116 Li1057 1.970 . S
O1116 Li1058 1.961 . S
O1116 C1060 1.325 . S
O1117 Li1056 1.970 . S
O1117 Li1057 1.956 . S
O1117 Li1059 1.961 . S
O1117 C1066 1.325 . S
O1118 Li1056 1.961 . S
O1118 Li1058 1.956 . S
O1118 Li1059 1.970 . S
O1118 C1088 1.325 . S
O1119 Li1057 1.961 . S
O1119 Li1058 1.970 . S
O1119 Li1059 1.956 . S
O1119 C1094 1.325 . S
H1120 C1062 0.929 . S
H1121 C1063 0.930 . S
H1122 C1064 0.930 . S
H1123 C1065 0.930 . S
H1124 C1067 0.930 . S
H1125 C1069 0.929 . S
H1126 C1070 0.930 . S
H1127 C1071 0.930 . S
H1128 C1074 0.930 . S
H1129 C1077 0.929 . S
H1130 C1082 0.929 . S
H1131 C1083 0.930 . S
H1132 C1090 0.929 . S
H1133 C1091 0.930 . S
H1134 C1092 0.930 . S
H1135 C1093 0.930 . S
H1136 C1095 0.929 . S
H1137 C1096 0.930 . S
H1138 C1097 0.930 . S
H1139 C1098 0.930 . S
H1140 C1102 0.929 . S
H1141 C1104 0.930 . S
H1142 C1110 0.929 . S
H1143 C1111 0.930 . S
Li1144 N1161 1.990 . S
Li1144 O1204 1.956 . S
Li1144 O1205 1.970 . S
Li1144 O1206 1.961 . S
Li1145 N1169 1.990 . S
Li1145 O1204 1.970 . S
Li1145 O1205 1.956 . S
Li1145 O1207 1.961 . S
Li1146 N1191 1.990 . S
Li1146 O1204 1.961 . S
Li1146 O1206 1.956 . S
Li1146 O1207 1.970 . S
Li1147 N1197 1.990 . S
Li1147 O1205 1.961 . S
Li1147 O1206 1.970 . S
Li1147 O1207 1.956 . S
C1148 C1150 1.348 . S
C1148 C1151 1.356 . S
C1148 O1204 1.325 . S
N1149 C1152 1.314 . S
N1149 C1153 1.279 . S
C1150 C1148 1.348 . S
C1150 C1152 1.353 . S
C1150 H1208 0.929 . S
C1151 C1148 1.356 . S
C1151 C1153 1.358 . S
C1151 H1209 0.930 . S
C1152 N1149 1.314 . S
C1152 C1150 1.353 . S
C1152 H1210 0.930 . S
C1153 N1149 1.279 . S
C1153 C1151 1.358 . S
C1153 H1211 0.930 . S
C1154 C1157 1.348 . S
C1154 C1158 1.356 . S
C1154 O1205 1.325 . S
C1155 N1156 1.279 . S
C1155 C1158 1.358 . S
C1155 H1212 0.930 . S
N1156 C1155 1.279 . S
N1156 C1159 1.314 . S
C1157 C1154 1.348 . S
C1157 C1159 1.353 . S
C1157 H1213 0.929 . S
C1158 C1154 1.356 . S
C1158 C1155 1.358 . S
C1158 H1214 0.930 . S
C1159 N1156 1.314 . S
C1159 C1157 1.353 . S
C1159 H1215 0.930 . S
C1160 N1161 1.314 . S
C1160 C1165 1.353 . S
C1160 H1166 0.930 . S
N1161 Li1144 1.990 . S
N1161 C1160 1.314 . S
N1161 C1163 1.279 . S
C1162 C1163 1.358 . S
C1162 C1164 1.356 . S
C1162 H1216 0.930 . S
C1163 N1161 1.279 . S
C1163 C1162 1.358 . S
C1163 H1167 0.930 . S
C1164 C1162 1.356 . S
C1164 C1165 1.348 . S
C1165 C1160 1.353 . S
C1165 C1164 1.348 . S
C1165 H1217 0.929 . S
H1166 C1160 0.930 . S
H1167 C1163 0.930 . S
C1168 N1169 1.314 . S
C1168 C1170 1.353 . S
C1168 H1174 0.930 . S
N1169 Li1145 1.990 . S
N1169 C1168 1.314 . S
N1169 C1172 1.279 . S
C1170 C1168 1.353 . S
C1170 C1173 1.348 . S
C1170 H1218 0.929 . S
C1171 C1172 1.358 . S
C1171 C1173 1.356 . S
C1171 H1219 0.930 . S
C1172 N1169 1.279 . S
C1172 C1171 1.358 . S
C1172 H1175 0.930 . S
C1173 C1170 1.348 . S
C1173 C1171 1.356 . S
H1174 C1168 0.930 . S
H1175 C1172 0.930 . S
C1176 C1178 1.348 . S
C1176 C1179 1.356 . S
C1176 O1206 1.325 . S
N1177 C1180 1.297 1_565 S
N1177 C1181 1.239 1_565 S
C1178 C1176 1.348 . S
C1178 C1180 1.353 . S
C1178 H1220 0.929 . S
C1179 C1176 1.356 . S
C1179 C1181 1.358 . S
C1179 H1221 0.930 . S
C1180 N1177 1.297 1_545 S
C1180 C1178 1.353 . S
C1180 H1222 0.930 1_545 S
C1181 N1177 1.239 1_545 S
C1181 C1179 1.358 . S
C1181 H1223 0.930 . S
C1182 C1183 1.348 . S
C1182 C1184 1.356 . S
C1182 O1207 1.325 . S
C1183 C1182 1.348 . S
C1183 C1185 1.353 . S
C1183 H1224 0.929 . S
C1184 C1182 1.356 . S
C1184 C1186 1.358 . S
C1184 H1225 0.930 . S
C1185 C1183 1.353 . S
C1185 N1187 1.314 . S
C1185 H1226 0.930 . S
C1186 C1184 1.358 . S
C1186 N1187 1.279 . S
C1186 H1227 0.930 . S
N1187 C1185 1.314 . S
N1187 C1186 1.279 . S
C1188 C1190 1.353 . S
C1188 N1191 1.314 . S
C1188 H1194 0.930 . S
C1189 N1191 1.279 . S
C1189 C1192 1.358 . S
C1189 H1195 0.930 . S
C1190 C1188 1.353 . S
C1190 C1193 1.348 . S
C1190 H1228 0.929 . S
N1191 Li1146 1.990 . S
N1191 C1188 1.314 . S
N1191 C1189 1.279 . S
C1192 C1189 1.358 . S
C1192 C1193 1.356 . S
C1192 H1229 0.930 . S
C1193 C1190 1.348 . S
C1193 C1192 1.356 . S
H1194 C1188 0.930 . S
H1195 C1189 0.930 . S
C1196 N1197 1.314 . S
C1196 C1198 1.353 . S
C1196 H1202 0.930 . S
N1197 Li1147 1.990 . S
N1197 C1196 1.314 . S
N1197 C1200 1.279 . S
C1198 C1196 1.353 . S
C1198 C1201 1.348 . S
C1198 H1230 0.929 . S
C1199 C1200 1.358 . S
C1199 C1201 1.356 . S
C1199 H1231 0.930 . S
C1200 N1197 1.279 . S
C1200 C1199 1.358 . S
C1200 H1203 0.930 . S
C1201 C1198 1.348 . S
C1201 C1199 1.356 . S
H1202 C1196 0.930 . S
H1203 C1200 0.930 . S
O1204 Li1144 1.956 . S
O1204 Li1145 1.970 . S
O1204 Li1146 1.961 . S
O1204 C1148 1.325 . S
O1205 Li1144 1.970 . S
O1205 Li1145 1.956 . S
O1205 Li1147 1.961 . S
O1205 C1154 1.325 . S
O1206 Li1144 1.961 . S
O1206 Li1146 1.956 . S
O1206 Li1147 1.970 . S
O1206 C1176 1.325 . S
O1207 Li1145 1.961 . S
O1207 Li1146 1.970 . S
O1207 Li1147 1.956 . S
O1207 C1182 1.325 . S
H1208 C1150 0.929 . S
H1209 C1151 0.930 . S
H1210 C1152 0.930 . S
H1211 C1153 0.930 . S
H1212 C1155 0.930 . S
H1213 C1157 0.929 . S
H1214 C1158 0.930 . S
H1215 C1159 0.930 . S
H1216 C1162 0.930 . S
H1217 C1165 0.929 . S
H1218 C1170 0.929 . S
H1219 C1171 0.930 . S
H1220 C1178 0.929 . S
H1221 C1179 0.930 . S
H1222 C1180 0.930 1_565 S
H1223 C1181 0.930 . S
H1224 C1183 0.929 . S
H1225 C1184 0.930 . S
H1226 C1185 0.930 . S
H1227 C1186 0.930 . S
H1228 C1190 0.929 . S
H1229 C1192 0.930 . S
H1230 C1198 0.929 . S
H1231 C1199 0.930 . S
Li1232 N1249 1.990 . S
Li1232 O1292 1.956 . S
Li1232 O1293 1.970 . S
Li1232 O1294 1.961 . S
Li1233 N1257 1.990 . S
Li1233 O1292 1.970 . S
Li1233 O1293 1.956 . S
Li1233 O1295 1.961 . S
Li1234 N1279 1.990 . S
Li1234 O1292 1.961 . S
Li1234 O1294 1.956 . S
Li1234 O1295 1.970 . S
Li1235 N1285 1.990 . S
Li1235 O1293 1.961 . S
Li1235 O1294 1.970 . S
Li1235 O1295 1.956 . S
C1236 C1238 1.348 . S
C1236 C1239 1.356 . S
C1236 O1292 1.325 . S
N1237 C1240 1.314 . S
N1237 C1241 1.279 . S
C1238 C1236 1.348 . S
C1238 C1240 1.353 . S
C1238 H1296 0.929 . S
C1239 C1236 1.356 . S
C1239 C1241 1.358 . S
C1239 H1297 0.930 . S
C1240 N1237 1.314 . S
C1240 C1238 1.353 . S
C1240 H1298 0.930 . S
C1241 N1237 1.279 . S
C1241 C1239 1.358 . S
C1241 H1299 0.930 . S
C1242 C1245 1.348 . S
C1242 C1246 1.356 . S
C1242 O1293 1.325 . S
C1243 N1244 1.279 . S
C1243 C1246 1.358 . S
C1243 H1300 0.930 . S
N1244 C1243 1.279 . S
N1244 C1247 1.314 . S
C1245 C1242 1.348 . S
C1245 C1247 1.353 . S
C1245 H1301 0.929 . S
C1246 C1242 1.356 . S
C1246 C1243 1.358 . S
C1246 H1302 0.930 . S
C1247 N1244 1.314 . S
C1247 C1245 1.353 . S
C1247 H1303 0.930 . S
C1248 N1249 1.314 . S
C1248 C1253 1.353 . S
C1248 H1254 0.930 . S
N1249 Li1232 1.990 . S
N1249 C1248 1.314 . S
N1249 C1251 1.279 . S
C1250 C1251 1.358 . S
C1250 C1252 1.356 . S
C1250 H1304 0.930 . S
C1251 N1249 1.279 . S
C1251 C1250 1.358 . S
C1251 H1255 0.930 . S
C1252 C1250 1.356 . S
C1252 C1253 1.348 . S
C1253 C1248 1.353 . S
C1253 C1252 1.348 . S
C1253 H1305 0.929 . S
H1254 C1248 0.930 . S
H1255 C1251 0.930 . S
C1256 N1257 1.314 . S
C1256 C1258 1.353 . S
C1256 H1262 0.930 . S
N1257 Li1233 1.990 . S
N1257 C1256 1.314 . S
N1257 C1260 1.279 . S
C1258 C1256 1.353 . S
C1258 C1261 1.348 . S
C1258 H1306 0.929 . S
C1259 C1260 1.358 . S
C1259 C1261 1.356 . S
C1259 H1307 0.930 . S
C1260 N1257 1.279 . S
C1260 C1259 1.358 . S
C1260 H1263 0.930 . S
C1261 C1258 1.348 . S
C1261 C1259 1.356 . S
H1262 C1256 0.930 . S
H1263 C1260 0.930 . S
C1264 C1266 1.348 . S
C1264 C1267 1.356 . S
C1264 O1294 1.325 . S
N1265 C1268 1.314 . S
N1265 C1269 1.279 . S
C1266 C1264 1.348 . S
C1266 C1268 1.353 . S
C1266 H1308 0.929 . S
C1267 C1264 1.356 . S
C1267 C1269 1.358 . S
C1267 H1309 0.930 . S
C1268 N1265 1.314 . S
C1268 C1266 1.353 . S
C1268 H1310 0.930 . S
C1269 N1265 1.279 . S
C1269 C1267 1.358 . S
C1269 H1311 0.930 . S
C1270 C1271 1.348 . S
C1270 C1272 1.356 . S
C1270 O1295 1.325 . S
C1271 C1270 1.348 . S
C1271 C1273 1.353 . S
C1271 H1312 0.929 . S
C1272 C1270 1.356 . S
C1272 C1274 1.358 . S
C1272 H1313 0.930 . S
C1273 C1271 1.353 . S
C1273 N1275 1.314 . S
C1273 H1314 0.930 . S
C1274 C1272 1.358 . S
C1274 N1275 1.279 . S
C1274 H1315 0.930 . S
N1275 C1273 1.314 . S
N1275 C1274 1.279 . S
C1276 C1278 1.353 . S
C1276 N1279 1.314 . S
C1276 H1282 0.930 . S
C1277 N1279 1.279 . S
C1277 C1280 1.358 . S
C1277 H1283 0.930 . S
C1278 C1276 1.353 . S
C1278 C1281 1.348 . S
C1278 H1316 0.929 . S
N1279 Li1234 1.990 . S
N1279 C1276 1.314 . S
N1279 C1277 1.279 . S
C1280 C1277 1.358 . S
C1280 C1281 1.356 . S
C1280 H1317 0.930 . S
C1281 C1278 1.348 . S
C1281 C1280 1.356 . S
H1282 C1276 0.930 . S
H1283 C1277 0.930 . S
C1284 N1285 1.314 . S
C1284 C1286 1.353 . S
C1284 H1290 0.930 . S
N1285 Li1235 1.990 . S
N1285 C1284 1.314 . S
N1285 C1288 1.279 . S
C1286 C1284 1.353 . S
C1286 C1289 1.348 . S
C1286 H1318 0.929 . S
C1287 C1288 1.358 . S
C1287 C1289 1.356 . S
C1287 H1319 0.930 . S
C1288 N1285 1.279 . S
C1288 C1287 1.358 . S
C1288 H1291 0.930 . S
C1289 C1286 1.348 . S
C1289 C1287 1.356 . S
H1290 C1284 0.930 . S
H1291 C1288 0.930 . S
O1292 Li1232 1.956 . S
O1292 Li1233 1.970 . S
O1292 Li1234 1.961 . S
O1292 C1236 1.325 . S
O1293 Li1232 1.970 . S
O1293 Li1233 1.956 . S
O1293 Li1235 1.961 . S
O1293 C1242 1.325 . S
O1294 Li1232 1.961 . S
O1294 Li1234 1.956 . S
O1294 Li1235 1.970 . S
O1294 C1264 1.325 . S
O1295 Li1233 1.961 . S
O1295 Li1234 1.970 . S
O1295 Li1235 1.956 . S
O1295 C1270 1.325 . S
H1296 C1238 0.929 . S
H1297 C1239 0.930 . S
H1298 C1240 0.930 . S
H1299 C1241 0.930 . S
H1300 C1243 0.930 . S
H1301 C1245 0.929 . S
H1302 C1246 0.930 . S
H1303 C1247 0.930 . S
H1304 C1250 0.930 . S
H1305 C1253 0.929 . S
H1306 C1258 0.929 . S
H1307 C1259 0.930 . S
H1308 C1266 0.929 . S
H1309 C1267 0.930 . S
H1310 C1268 0.930 . S
H1311 C1269 0.930 . S
H1312 C1271 0.929 . S
H1313 C1272 0.930 . S
H1314 C1273 0.930 . S
H1315 C1274 0.930 . S
H1316 C1278 0.929 . S
H1317 C1280 0.930 . S
H1318 C1286 0.929 . S
H1319 C1287 0.930 . S
Li1320 N1337 1.990 . S
Li1320 O1380 1.956 . S
Li1320 O1381 1.970 . S
Li1320 O1382 1.961 . S
Li1321 N1345 1.990 . S
Li1321 O1380 1.970 . S
Li1321 O1381 1.956 . S
Li1321 O1383 1.961 . S
Li1322 N1367 1.990 . S
Li1322 O1380 1.961 . S
Li1322 O1382 1.956 . S
Li1322 O1383 1.970 . S
Li1323 N1373 1.990 . S
Li1323 O1381 1.961 . S
Li1323 O1382 1.970 . S
Li1323 O1383 1.956 . S
C1324 C1326 1.348 . S
C1324 C1327 1.356 . S
C1324 O1380 1.325 . S
N1325 C1328 1.297 1_545 S
N1325 C1329 1.239 1_545 S
C1326 C1324 1.348 . S
C1326 C1328 1.353 . S
C1326 H1384 0.929 . S
C1327 C1324 1.356 . S
C1327 C1329 1.358 . S
C1327 H1385 0.930 . S
C1328 N1325 1.297 1_565 S
C1328 C1326 1.353 . S
C1328 H1386 0.930 1_565 S
C1329 N1325 1.239 1_565 S
C1329 C1327 1.358 . S
C1329 H1387 0.930 . S
C1330 C1333 1.348 . S
C1330 C1334 1.356 . S
C1330 O1381 1.325 . S
C1331 N1332 1.279 . S
C1331 C1334 1.358 . S
C1331 H1388 0.930 . S
N1332 C1331 1.279 . S
N1332 C1335 1.314 . S
C1333 C1330 1.348 . S
C1333 C1335 1.353 . S
C1333 H1389 0.929 . S
C1334 C1330 1.356 . S
C1334 C1331 1.358 . S
C1334 H1390 0.930 . S
C1335 N1332 1.314 . S
C1335 C1333 1.353 . S
C1335 H1391 0.930 . S
C1336 N1337 1.314 . S
C1336 C1341 1.353 . S
C1336 H1342 0.930 . S
N1337 Li1320 1.990 . S
N1337 C1336 1.314 . S
N1337 C1339 1.279 . S
C1338 C1339 1.358 . S
C1338 C1340 1.356 . S
C1338 H1392 0.930 . S
C1339 N1337 1.279 . S
C1339 C1338 1.358 . S
C1339 H1343 0.930 . S
C1340 C1338 1.356 . S
C1340 C1341 1.348 . S
C1341 C1336 1.353 . S
C1341 C1340 1.348 . S
C1341 H1393 0.929 . S
H1342 C1336 0.930 . S
H1343 C1339 0.930 . S
C1344 N1345 1.314 . S
C1344 C1346 1.353 . S
C1344 H1350 0.930 . S
N1345 Li1321 1.990 . S
N1345 C1344 1.314 . S
N1345 C1348 1.279 . S
C1346 C1344 1.353 . S
C1346 C1349 1.348 . S
C1346 H1394 0.929 . S
C1347 C1348 1.358 . S
C1347 C1349 1.356 . S
C1347 H1395 0.930 . S
C1348 N1345 1.279 . S
C1348 C1347 1.358 . S
C1348 H1351 0.930 . S
C1349 C1346 1.348 . S
C1349 C1347 1.356 . S
H1350 C1344 0.930 . S
H1351 C1348 0.930 . S
C1352 C1354 1.348 . S
C1352 C1355 1.356 . S
C1352 O1382 1.325 . S
N1353 C1356 1.314 . S
N1353 C1357 1.279 . S
C1354 C1352 1.348 . S
C1354 C1356 1.353 . S
C1354 H1396 0.929 . S
C1355 C1352 1.356 . S
C1355 C1357 1.358 . S
C1355 H1397 0.930 . S
C1356 N1353 1.314 . S
C1356 C1354 1.353 . S
C1356 H1398 0.930 . S
C1357 N1353 1.279 . S
C1357 C1355 1.358 . S
C1357 H1399 0.930 . S
C1358 C1359 1.348 . S
C1358 C1360 1.356 . S
C1358 O1383 1.325 . S
C1359 C1358 1.348 . S
C1359 C1361 1.353 . S
C1359 H1400 0.929 . S
C1360 C1358 1.356 . S
C1360 C1362 1.358 . S
C1360 H1401 0.930 . S
C1361 C1359 1.353 . S
C1361 N1363 1.314 . S
C1361 H1402 0.930 . S
C1362 C1360 1.358 . S
C1362 N1363 1.279 . S
C1362 H1403 0.930 . S
N1363 C1361 1.314 . S
N1363 C1362 1.279 . S
C1364 C1366 1.353 . S
C1364 N1367 1.314 . S
C1364 H1370 0.930 . S
C1365 N1367 1.279 . S
C1365 C1368 1.358 . S
C1365 H1371 0.930 . S
C1366 C1364 1.353 . S
C1366 C1369 1.348 . S
C1366 H1404 0.929 . S
N1367 Li1322 1.990 . S
N1367 C1364 1.314 . S
N1367 C1365 1.279 . S
C1368 C1365 1.358 . S
C1368 C1369 1.356 . S
C1368 H1405 0.930 . S
C1369 C1366 1.348 . S
C1369 C1368 1.356 . S
H1370 C1364 0.930 . S
H1371 C1365 0.930 . S
C1372 N1373 1.314 . S
C1372 C1374 1.353 . S
C1372 H1378 0.930 . S
N1373 Li1323 1.990 . S
N1373 C1372 1.314 . S
N1373 C1376 1.279 . S
C1374 C1372 1.353 . S
C1374 C1377 1.348 . S
C1374 H1406 0.929 . S
C1375 C1376 1.358 . S
C1375 C1377 1.356 . S
C1375 H1407 0.930 . S
C1376 N1373 1.279 . S
C1376 C1375 1.358 . S
C1376 H1379 0.930 . S
C1377 C1374 1.348 . S
C1377 C1375 1.356 . S
H1378 C1372 0.930 . S
H1379 C1376 0.930 . S
O1380 Li1320 1.956 . S
O1380 Li1321 1.970 . S
O1380 Li1322 1.961 . S
O1380 C1324 1.325 . S
O1381 Li1320 1.970 . S
O1381 Li1321 1.956 . S
O1381 Li1323 1.961 . S
O1381 C1330 1.325 . S
O1382 Li1320 1.961 . S
O1382 Li1322 1.956 . S
O1382 Li1323 1.970 . S
O1382 C1352 1.325 . S
O1383 Li1321 1.961 . S
O1383 Li1322 1.970 . S
O1383 Li1323 1.956 . S
O1383 C1358 1.325 . S
H1384 C1326 0.929 . S
H1385 C1327 0.930 . S
H1386 C1328 0.930 1_545 S
H1387 C1329 0.930 . S
H1388 C1331 0.930 . S
H1389 C1333 0.929 . S
H1390 C1334 0.930 . S
H1391 C1335 0.930 . S
H1392 C1338 0.930 . S
H1393 C1341 0.929 . S
H1394 C1346 0.929 . S
H1395 C1347 0.930 . S
H1396 C1354 0.929 . S
H1397 C1355 0.930 . S
H1398 C1356 0.930 . S
H1399 C1357 0.930 . S
H1400 C1359 0.929 . S
H1401 C1360 0.930 . S
H1402 C1361 0.930 . S
H1403 C1362 0.930 . S
H1404 C1366 0.929 . S
H1405 C1368 0.930 . S
H1406 C1374 0.929 . S
H1407 C1375 0.930 . S
C1408 C1409 1.391 . S
C1408 C1410 1.394 . S
C1408 H1424 0.931 . S
C1409 C1408 1.391 . S
C1409 C1413 1.376 . S
C1410 C1408 1.394 . S
C1410 C1411 1.369 . S
C1410 C1414 1.531 . S
C1411 C1410 1.369 . S
C1411 C1412 1.410 . S
C1411 C1419 1.503 . S
C1412 C1411 1.410 . S
C1412 C1413 1.392 . S
C1412 C1415 1.511 . S
C1413 C1409 1.376 . S
C1413 C1412 1.392 . S
C1413 H1425 0.929 . S
C1414 C1410 1.531 . S
C1414 H1426 0.960 . S
C1414 H1427 0.962 . S
C1414 H1428 0.960 . S
C1415 C1412 1.511 . S
C1415 H1429 0.961 . S
C1415 H1430 0.961 . S
C1415 H1431 0.961 . S
C1416 C1417 1.370 . S
C1416 C1418 1.363 . S
C1416 H1432 0.931 . S
C1417 C1416 1.370 . S
C1417 C1421 1.408 . S
C1418 C1416 1.363 . S
C1418 C1419 1.370 . S
C1418 C1422 1.524 . S
C1419 C1411 1.503 . S
C1419 C1418 1.370 . S
C1419 C1420 1.403 . S
C1420 C1419 1.403 . S
C1420 C1421 1.404 . S
C1420 C1423 1.539 . S
C1421 C1417 1.408 . S
C1421 C1420 1.404 . S
C1421 H1433 0.930 . S
C1422 C1418 1.524 . S
C1422 H1434 0.956 . S
C1422 H1435 0.961 . S
C1422 H1436 0.961 . S
C1423 C1420 1.539 . S
C1423 H1437 0.958 . S
C1423 H1438 0.961 . S
C1423 H1439 0.960 . S
H1424 C1408 0.931 . S
H1425 C1413 0.929 . S
H1426 C1414 0.960 . S
H1427 C1414 0.962 . S
H1428 C1414 0.960 . S
H1429 C1415 0.961 . S
H1430 C1415 0.961 . S
H1431 C1415 0.961 . S
H1432 C1416 0.931 . S
H1433 C1421 0.930 . S
H1434 C1422 0.956 . S
H1435 C1422 0.961 . S
H1436 C1422 0.961 . S
H1437 C1423 0.958 . S
H1438 C1423 0.961 . S
H1439 C1423 0.960 . S
C1440 C1441 1.391 . S
C1440 C1442 1.394 . S
C1440 H1456 0.931 . S
C1441 C1440 1.391 . S
C1441 C1445 1.376 . S
C1442 C1440 1.394 . S
C1442 C1443 1.369 . S
C1442 C1446 1.531 . S
C1443 C1442 1.369 . S
C1443 C1444 1.410 . S
C1443 C1451 1.503 . S
C1444 C1443 1.410 . S
C1444 C1445 1.392 . S
C1444 C1447 1.511 . S
C1445 C1441 1.376 . S
C1445 C1444 1.392 . S
C1445 H1457 0.929 . S
C1446 C1442 1.531 . S
C1446 H1458 0.960 . S
C1446 H1459 0.962 . S
C1446 H1460 0.960 . S
C1447 C1444 1.511 . S
C1447 H1461 0.961 . S
C1447 H1462 0.961 . S
C1447 H1463 0.961 . S
C1448 C1449 1.370 . S
C1448 C1450 1.363 . S
C1448 H1464 0.931 . S
C1449 C1448 1.370 . S
C1449 C1453 1.408 . S
C1450 C1448 1.363 . S
C1450 C1451 1.370 . S
C1450 C1454 1.524 . S
C1451 C1443 1.503 . S
C1451 C1450 1.370 . S
C1451 C1452 1.403 . S
C1452 C1451 1.403 . S
C1452 C1453 1.404 . S
C1452 C1455 1.539 . S
C1453 C1449 1.408 . S
C1453 C1452 1.404 . S
C1453 H1465 0.930 . S
C1454 C1450 1.524 . S
C1454 H1466 0.956 . S
C1454 H1467 0.961 . S
C1454 H1468 0.961 . S
C1455 C1452 1.539 . S
C1455 H1469 0.958 . S
C1455 H1470 0.961 . S
C1455 H1471 0.960 . S
H1456 C1440 0.931 . S
H1457 C1445 0.929 . S
H1458 C1446 0.960 . S
H1459 C1446 0.962 . S
H1460 C1446 0.960 . S
H1461 C1447 0.961 . S
H1462 C1447 0.961 . S
H1463 C1447 0.961 . S
H1464 C1448 0.931 . S
H1465 C1453 0.930 . S
H1466 C1454 0.956 . S
H1467 C1454 0.961 . S
H1468 C1454 0.961 . S
H1469 C1455 0.958 . S
H1470 C1455 0.961 . S
H1471 C1455 0.960 . S
C1472 C1473 1.391 . S
C1472 C1474 1.394 . S
C1472 H1488 0.931 . S
C1473 C1472 1.391 . S
C1473 C1477 1.376 . S
C1474 C1472 1.394 . S
C1474 C1475 1.369 . S
C1474 C1478 1.531 . S
C1475 C1474 1.369 . S
C1475 C1476 1.410 . S
C1475 C1483 1.503 . S
C1476 C1475 1.410 . S
C1476 C1477 1.392 . S
C1476 C1479 1.511 . S
C1477 C1473 1.376 . S
C1477 C1476 1.392 . S
C1477 H1489 0.929 . S
C1478 C1474 1.531 . S
C1478 H1490 0.960 . S
C1478 H1491 0.962 . S
C1478 H1492 0.960 . S
C1479 C1476 1.511 . S
C1479 H1493 0.961 . S
C1479 H1494 0.961 . S
C1479 H1495 0.961 . S
C1480 C1481 1.370 . S
C1480 C1482 1.363 . S
C1480 H1496 0.931 . S
C1481 C1480 1.370 . S
C1481 C1485 1.408 . S
C1482 C1480 1.363 . S
C1482 C1483 1.370 . S
C1482 C1486 1.524 . S
C1483 C1475 1.503 . S
C1483 C1482 1.370 . S
C1483 C1484 1.403 . S
C1484 C1483 1.403 . S
C1484 C1485 1.404 . S
C1484 C1487 1.539 . S
C1485 C1481 1.408 . S
C1485 C1484 1.404 . S
C1485 H1497 0.930 . S
C1486 C1482 1.524 . S
C1486 H1498 0.956 . S
C1486 H1499 0.961 . S
C1486 H1500 0.961 . S
C1487 C1484 1.539 . S
C1487 H1501 0.958 . S
C1487 H1502 0.961 . S
C1487 H1503 0.960 . S
H1488 C1472 0.931 . S
H1489 C1477 0.929 . S
H1490 C1478 0.960 . S
H1491 C1478 0.962 . S
H1492 C1478 0.960 . S
H1493 C1479 0.961 . S
H1494 C1479 0.961 . S
H1495 C1479 0.961 . S
H1496 C1480 0.931 . S
H1497 C1485 0.930 . S
H1498 C1486 0.956 . S
H1499 C1486 0.961 . S
H1500 C1486 0.961 . S
H1501 C1487 0.958 . S
H1502 C1487 0.961 . S
H1503 C1487 0.960 . S
C1504 C1505 1.391 . S
C1504 C1506 1.394 . S
C1504 H1520 0.931 . S
C1505 C1504 1.391 . S
C1505 C1509 1.376 . S
C1506 C1504 1.394 . S
C1506 C1507 1.369 . S
C1506 C1510 1.531 . S
C1507 C1506 1.369 . S
C1507 C1508 1.410 . S
C1507 C1515 1.503 1_455 S
C1508 C1507 1.410 . S
C1508 C1509 1.392 . S
C1508 C1511 1.511 . S
C1509 C1505 1.376 . S
C1509 C1508 1.392 . S
C1509 H1521 0.929 . S
C1510 C1506 1.531 . S
C1510 H1522 0.960 1_455 S
C1510 H1523 0.962 . S
C1510 H1524 0.960 . S
C1511 C1508 1.511 . S
C1511 H1525 0.961 . S
C1511 H1526 0.961 1_455 S
C1511 H1527 0.961 . S
C1512 C1513 1.370 . S
C1512 C1514 1.363 . S
C1512 H1528 0.931 . S
C1513 C1512 1.370 . S
C1513 C1517 1.408 . S
C1514 C1512 1.363 . S
C1514 C1515 1.370 . S
C1514 C1518 1.524 . S
C1515 C1507 1.503 1_655 S
C1515 C1514 1.370 . S
C1515 C1516 1.403 . S
C1516 C1515 1.403 . S
C1516 C1517 1.404 . S
C1516 C1519 1.539 . S
C1517 C1513 1.408 . S
C1517 C1516 1.404 . S
C1517 H1529 0.930 . S
C1518 C1514 1.524 . S
C1518 H1530 0.986 . S
C1518 H1531 0.961 1_655 S
C1518 H1532 0.961 . S
C1519 C1516 1.539 . S
C1519 H1533 0.958 . S
C1519 H1534 0.961 . S
C1519 H1535 0.975 . S
H1520 C1504 0.931 . S
H1521 C1509 0.929 . S
H1522 C1510 0.960 1_655 S
H1523 C1510 0.962 . S
H1524 C1510 0.960 . S
H1525 C1511 0.961 . S
H1526 C1511 0.961 1_655 S
H1527 C1511 0.961 . S
H1528 C1512 0.931 . S
H1529 C1517 0.930 . S
H1530 C1518 0.986 . S
H1531 C1518 0.961 1_455 S
H1532 C1518 0.961 . S
H1533 C1519 0.958 . S
H1534 C1519 0.961 . S
H1535 C1519 0.975 . S
C1536 C1537 1.391 . S
C1536 C1538 1.394 . S
C1536 H1552 0.931 . S
C1537 C1536 1.391 . S
C1537 C1541 1.376 . S
C1538 C1536 1.394 . S
C1538 C1539 1.369 . S
C1538 C1542 1.531 . S
C1539 C1538 1.369 . S
C1539 C1540 1.410 . S
C1539 C1547 1.503 . S
C1540 C1539 1.410 . S
C1540 C1541 1.392 . S
C1540 C1543 1.511 . S
C1541 C1537 1.376 . S
C1541 C1540 1.392 . S
C1541 H1553 0.929 . S
C1542 C1538 1.531 . S
C1542 H1554 0.960 . S
C1542 H1555 0.962 . S
C1542 H1556 0.960 . S
C1543 C1540 1.511 . S
C1543 H1557 0.961 . S
C1543 H1558 0.961 . S
C1543 H1559 0.961 . S
C1544 C1545 1.370 . S
C1544 C1546 1.363 . S
C1544 H1560 0.931 . S
C1545 C1544 1.370 . S
C1545 C1549 1.408 . S
C1546 C1544 1.363 . S
C1546 C1547 1.370 . S
C1546 C1550 1.524 . S
C1547 C1539 1.503 . S
C1547 C1546 1.370 . S
C1547 C1548 1.403 . S
C1548 C1547 1.403 . S
C1548 C1549 1.404 . S
C1548 C1551 1.539 . S
C1549 C1545 1.408 . S
C1549 C1548 1.404 . S
C1549 H1561 0.930 . S
C1550 C1546 1.524 . S
C1550 H1562 0.956 . S
C1550 H1563 0.961 . S
C1550 H1564 0.961 . S
C1551 C1548 1.539 . S
C1551 H1565 0.958 . S
C1551 H1566 0.961 . S
C1551 H1567 0.960 . S
H1552 C1536 0.931 . S
H1553 C1541 0.929 . S
H1554 C1542 0.960 . S
H1555 C1542 0.962 . S
H1556 C1542 0.960 . S
H1557 C1543 0.961 . S
H1558 C1543 0.961 . S
H1559 C1543 0.961 . S
H1560 C1544 0.931 . S
H1561 C1549 0.930 . S
H1562 C1550 0.956 . S
H1563 C1550 0.961 . S
H1564 C1550 0.961 . S
H1565 C1551 0.958 . S
H1566 C1551 0.961 . S
H1567 C1551 0.960 . S
C1568 C1569 1.391 . S
C1568 C1570 1.394 . S
C1568 H1584 0.931 . S
C1569 C1568 1.391 . S
C1569 C1573 1.376 . S
C1570 C1568 1.394 . S
C1570 C1571 1.369 . S
C1570 C1574 1.531 . S
C1571 C1570 1.369 . S
C1571 C1572 1.410 . S
C1571 C1579 1.503 1_655 S
C1572 C1571 1.410 . S
C1572 C1573 1.392 . S
C1572 C1575 1.511 . S
C1573 C1569 1.376 . S
C1573 C1572 1.392 . S
C1573 H1585 0.929 . S
C1574 C1570 1.531 . S
C1574 H1586 0.960 1_655 S
C1574 H1587 0.962 . S
C1574 H1588 0.960 . S
C1575 C1572 1.511 . S
C1575 H1589 0.961 . S
C1575 H1590 0.961 1_655 S
C1575 H1591 0.961 . S
C1576 C1577 1.370 . S
C1576 C1578 1.363 . S
C1576 H1592 0.931 . S
C1577 C1576 1.370 . S
C1577 C1581 1.408 . S
C1578 C1576 1.363 . S
C1578 C1579 1.370 . S
C1578 C1582 1.524 . S
C1579 C1571 1.503 1_455 S
C1579 C1578 1.370 . S
C1579 C1580 1.403 . S
C1580 C1579 1.403 . S
C1580 C1581 1.404 . S
C1580 C1583 1.539 . S
C1581 C1577 1.408 . S
C1581 C1580 1.404 . S
C1581 H1593 0.930 . S
C1582 C1578 1.524 . S
C1582 H1594 0.981 . S
C1582 H1595 0.961 1_455 S
C1582 H1596 0.961 . S
C1583 C1580 1.539 . S
C1583 H1597 0.958 . S
C1583 H1598 0.961 . S
C1583 H1599 0.963 . S
H1584 C1568 0.931 . S
H1585 C1573 0.929 . S
H1586 C1574 0.960 1_455 S
H1587 C1574 0.962 . S
H1588 C1574 0.960 . S
H1589 C1575 0.961 . S
H1590 C1575 0.961 1_455 S
H1591 C1575 0.961 . S
H1592 C1576 0.931 . S
H1593 C1581 0.930 . S
H1594 C1582 0.981 . S
H1595 C1582 0.961 1_655 S
H1596 C1582 0.961 . S
H1597 C1583 0.958 . S
H1598 C1583 0.961 . S
H1599 C1583 0.963 . S
C1600 C1601 1.391 . S
C1600 C1602 1.394 . S
C1600 H1616 0.931 . S
C1601 C1600 1.391 . S
C1601 C1605 1.376 . S
C1602 C1600 1.394 . S
C1602 C1603 1.369 . S
C1602 C1606 1.531 . S
C1603 C1602 1.369 . S
C1603 C1604 1.410 . S
C1603 C1611 1.503 . S
C1604 C1603 1.410 . S
C1604 C1605 1.392 . S
C1604 C1607 1.511 . S
C1605 C1601 1.376 . S
C1605 C1604 1.392 . S
C1605 H1617 0.929 . S
C1606 C1602 1.531 . S
C1606 H1618 0.960 . S
C1606 H1619 0.962 . S
C1606 H1620 0.960 . S
C1607 C1604 1.511 . S
C1607 H1621 0.961 . S
C1607 H1622 0.961 . S
C1607 H1623 0.961 . S
C1608 C1609 1.370 . S
C1608 C1610 1.363 . S
C1608 H1624 0.931 . S
C1609 C1608 1.370 . S
C1609 C1613 1.408 . S
C1610 C1608 1.363 . S
C1610 C1611 1.370 . S
C1610 C1614 1.524 . S
C1611 C1603 1.503 . S
C1611 C1610 1.370 . S
C1611 C1612 1.403 . S
C1612 C1611 1.403 . S
C1612 C1613 1.404 . S
C1612 C1615 1.539 . S
C1613 C1609 1.408 . S
C1613 C1612 1.404 . S
C1613 H1625 0.930 . S
C1614 C1610 1.524 . S
C1614 H1626 0.956 . S
C1614 H1627 0.961 . S
C1614 H1628 0.961 . S
C1615 C1612 1.539 . S
C1615 H1629 0.958 . S
C1615 H1630 0.961 . S
C1615 H1631 0.960 . S
H1616 C1600 0.931 . S
H1617 C1605 0.929 . S
H1618 C1606 0.960 . S
H1619 C1606 0.962 . S
H1620 C1606 0.960 . S
H1621 C1607 0.961 . S
H1622 C1607 0.961 . S
H1623 C1607 0.961 . S
H1624 C1608 0.931 . S
H1625 C1613 0.930 . S
H1626 C1614 0.956 . S
H1627 C1614 0.961 . S
H1628 C1614 0.961 . S
H1629 C1615 0.958 . S
H1630 C1615 0.961 . S
H1631 C1615 0.960 . S
C1632 C1633 1.391 . S
C1632 C1634 1.394 . S
C1632 H1648 0.931 . S
C1633 C1632 1.391 . S
C1633 C1637 1.376 . S
C1634 C1632 1.394 . S
C1634 C1635 1.369 . S
C1634 C1638 1.531 . S
C1635 C1634 1.369 . S
C1635 C1636 1.410 . S
C1635 C1643 1.503 . S
C1636 C1635 1.410 . S
C1636 C1637 1.392 . S
C1636 C1639 1.511 . S
C1637 C1633 1.376 . S
C1637 C1636 1.392 . S
C1637 H1649 0.929 . S
C1638 C1634 1.531 . S
C1638 H1650 0.960 . S
C1638 H1651 0.962 . S
C1638 H1652 0.960 . S
C1639 C1636 1.511 . S
C1639 H1653 0.961 . S
C1639 H1654 0.961 . S
C1639 H1655 0.961 . S
C1640 C1641 1.370 . S
C1640 C1642 1.363 . S
C1640 H1656 0.931 . S
C1641 C1640 1.370 . S
C1641 C1645 1.408 . S
C1642 C1640 1.363 . S
C1642 C1643 1.370 . S
C1642 C1646 1.524 . S
C1643 C1635 1.503 . S
C1643 C1642 1.370 . S
C1643 C1644 1.403 . S
C1644 C1643 1.403 . S
C1644 C1645 1.404 . S
C1644 C1647 1.539 . S
C1645 C1641 1.408 . S
C1645 C1644 1.404 . S
C1645 H1657 0.930 . S
C1646 C1642 1.524 . S
C1646 H1658 0.956 . S
C1646 H1659 0.961 . S
C1646 H1660 0.961 . S
C1647 C1644 1.539 . S
C1647 H1661 0.958 . S
C1647 H1662 0.961 . S
C1647 H1663 0.960 . S
H1648 C1632 0.931 . S
H1649 C1637 0.929 . S
H1650 C1638 0.960 . S
H1651 C1638 0.962 . S
H1652 C1638 0.960 . S
H1653 C1639 0.961 . S
H1654 C1639 0.961 . S
H1655 C1639 0.961 . S
H1656 C1640 0.931 . S
H1657 C1645 0.930 . S
H1658 C1646 0.956 . S
H1659 C1646 0.961 . S
H1660 C1646 0.961 . S
H1661 C1647 0.958 . S
H1662 C1647 0.961 . S
H1663 C1647 0.960 . S
C1664 C1665 1.391 . S
C1664 C1666 1.394 . S
C1664 H1680 0.931 . S
C1665 C1664 1.391 . S
C1665 C1669 1.376 . S
C1666 C1664 1.394 . S
C1666 C1667 1.369 . S
C1666 C1670 1.531 . S
C1667 C1666 1.369 . S
C1667 C1668 1.410 . S
C1667 C1675 1.503 . S
C1668 C1667 1.410 . S
C1668 C1669 1.392 . S
C1668 C1671 1.511 . S
C1669 C1665 1.376 . S
C1669 C1668 1.392 . S
C1669 H1681 0.929 . S
C1670 C1666 1.531 . S
C1670 H1682 0.960 . S
C1670 H1683 0.962 . S
C1670 H1684 0.960 . S
C1671 C1668 1.511 . S
C1671 H1685 0.961 . S
C1671 H1686 0.961 . S
C1671 H1687 0.961 . S
C1672 C1673 1.370 . S
C1672 C1674 1.363 . S
C1672 H1688 0.931 . S
C1673 C1672 1.370 . S
C1673 C1677 1.408 . S
C1674 C1672 1.363 . S
C1674 C1675 1.370 . S
C1674 C1678 1.524 . S
C1675 C1667 1.503 . S
C1675 C1674 1.370 . S
C1675 C1676 1.403 . S
C1676 C1675 1.403 . S
C1676 C1677 1.404 . S
C1676 C1679 1.539 . S
C1677 C1673 1.408 . S
C1677 C1676 1.404 . S
C1677 H1689 0.930 . S
C1678 C1674 1.524 . S
C1678 H1690 0.956 . S
C1678 H1691 0.961 . S
C1678 H1692 0.961 . S
C1679 C1676 1.539 . S
C1679 H1693 0.958 . S
C1679 H1694 0.961 . S
C1679 H1695 0.960 . S
H1680 C1664 0.931 . S
H1681 C1669 0.929 . S
H1682 C1670 0.960 . S
H1683 C1670 0.962 . S
H1684 C1670 0.960 . S
H1685 C1671 0.961 . S
H1686 C1671 0.961 . S
H1687 C1671 0.961 . S
H1688 C1672 0.931 . S
H1689 C1677 0.930 . S
H1690 C1678 0.956 . S
H1691 C1678 0.961 . S
H1692 C1678 0.961 . S
H1693 C1679 0.958 . S
H1694 C1679 0.961 . S
H1695 C1679 0.960 . S
C1696 C1697 1.391 . S
C1696 C1698 1.394 . S
C1696 H1712 0.931 . S
C1697 C1696 1.391 . S
C1697 C1701 1.376 . S
C1698 C1696 1.394 . S
C1698 C1699 1.369 . S
C1698 C1702 1.531 . S
C1699 C1698 1.369 . S
C1699 C1700 1.410 . S
C1699 C1707 1.503 . S
C1700 C1699 1.410 . S
C1700 C1701 1.392 . S
C1700 C1703 1.511 . S
C1701 C1697 1.376 . S
C1701 C1700 1.392 . S
C1701 H1713 0.929 . S
C1702 C1698 1.531 . S
C1702 H1714 0.960 . S
C1702 H1715 0.962 . S
C1702 H1716 0.960 . S
C1703 C1700 1.511 . S
C1703 H1717 0.961 . S
C1703 H1718 0.961 . S
C1703 H1719 0.961 . S
C1704 C1705 1.370 . S
C1704 C1706 1.363 . S
C1704 H1720 0.931 . S
C1705 C1704 1.370 . S
C1705 C1709 1.408 . S
C1706 C1704 1.363 . S
C1706 C1707 1.370 . S
C1706 C1710 1.524 . S
C1707 C1699 1.503 . S
C1707 C1706 1.370 . S
C1707 C1708 1.403 . S
C1708 C1707 1.403 . S
C1708 C1709 1.404 . S
C1708 C1711 1.539 . S
C1709 C1705 1.408 . S
C1709 C1708 1.404 . S
C1709 H1721 0.930 . S
C1710 C1706 1.524 . S
C1710 H1722 0.956 . S
C1710 H1723 0.961 . S
C1710 H1724 0.961 . S
C1711 C1708 1.539 . S
C1711 H1725 0.958 . S
C1711 H1726 0.961 . S
C1711 H1727 0.960 . S
H1712 C1696 0.931 . S
H1713 C1701 0.929 . S
H1714 C1702 0.960 . S
H1715 C1702 0.962 . S
H1716 C1702 0.960 . S
H1717 C1703 0.961 . S
H1718 C1703 0.961 . S
H1719 C1703 0.961 . S
H1720 C1704 0.931 . S
H1721 C1709 0.930 . S
H1722 C1710 0.956 . S
H1723 C1710 0.961 . S
H1724 C1710 0.961 . S
H1725 C1711 0.958 . S
H1726 C1711 0.961 . S
H1727 C1711 0.960 . S
C1728 C1729 1.391 . S
C1728 C1730 1.394 . S
C1728 H1744 0.931 . S
C1729 C1728 1.391 . S
C1729 C1733 1.376 . S
C1730 C1728 1.394 . S
C1730 C1731 1.369 . S
C1730 C1734 1.531 . S
C1731 C1730 1.369 . S
C1731 C1732 1.410 . S
C1731 C1739 1.503 . S
C1732 C1731 1.410 . S
C1732 C1733 1.392 . S
C1732 C1735 1.511 . S
C1733 C1729 1.376 . S
C1733 C1732 1.392 . S
C1733 H1745 0.929 . S
C1734 C1730 1.531 . S
C1734 H1746 0.960 . S
C1734 H1747 0.962 . S
C1734 H1748 0.960 . S
C1735 C1732 1.511 . S
C1735 H1749 0.961 . S
C1735 H1750 0.961 . S
C1735 H1751 0.961 . S
C1736 C1737 1.370 . S
C1736 C1738 1.363 . S
C1736 H1752 0.931 . S
C1737 C1736 1.370 . S
C1737 C1741 1.408 . S
C1738 C1736 1.363 . S
C1738 C1739 1.370 . S
C1738 C1742 1.524 . S
C1739 C1731 1.503 . S
C1739 C1738 1.370 . S
C1739 C1740 1.403 . S
C1740 C1739 1.403 . S
C1740 C1741 1.404 . S
C1740 C1743 1.539 . S
C1741 C1737 1.408 . S
C1741 C1740 1.404 . S
C1741 H1753 0.930 . S
C1742 C1738 1.524 . S
C1742 H1754 0.956 . S
C1742 H1755 0.961 . S
C1742 H1756 0.961 . S
C1743 C1740 1.539 . S
C1743 H1757 0.958 . S
C1743 H1758 0.961 . S
C1743 H1759 0.960 . S
H1744 C1728 0.931 . S
H1745 C1733 0.929 . S
H1746 C1734 0.960 . S
H1747 C1734 0.962 . S
H1748 C1734 0.960 . S
H1749 C1735 0.961 . S
H1750 C1735 0.961 . S
H1751 C1735 0.961 . S
H1752 C1736 0.931 . S
H1753 C1741 0.930 . S
H1754 C1742 0.956 . S
H1755 C1742 0.961 . S
H1756 C1742 0.961 . S
H1757 C1743 0.958 . S
H1758 C1743 0.961 . S
H1759 C1743 0.960 . S
C1760 C1761 1.391 . S
C1760 C1762 1.394 . S
C1760 H1776 0.931 . S
C1761 C1760 1.391 . S
C1761 C1765 1.376 . S
C1762 C1760 1.394 . S
C1762 C1763 1.369 . S
C1762 C1766 1.531 . S
C1763 C1762 1.369 . S
C1763 C1764 1.410 . S
C1763 C1771 1.503 . S
C1764 C1763 1.410 . S
C1764 C1765 1.392 . S
C1764 C1767 1.511 . S
C1765 C1761 1.376 . S
C1765 C1764 1.392 . S
C1765 H1777 0.929 . S
C1766 C1762 1.531 . S
C1766 H1778 0.960 . S
C1766 H1779 0.962 . S
C1766 H1780 0.960 . S
C1767 C1764 1.511 . S
C1767 H1781 0.961 . S
C1767 H1782 0.961 . S
C1767 H1783 0.961 . S
C1768 C1769 1.370 . S
C1768 C1770 1.363 . S
C1768 H1784 0.931 . S
C1769 C1768 1.370 . S
C1769 C1773 1.408 . S
C1770 C1768 1.363 . S
C1770 C1771 1.370 . S
C1770 C1774 1.524 . S
C1771 C1763 1.503 . S
C1771 C1770 1.370 . S
C1771 C1772 1.403 . S
C1772 C1771 1.403 . S
C1772 C1773 1.404 . S
C1772 C1775 1.539 . S
C1773 C1769 1.408 . S
C1773 C1772 1.404 . S
C1773 H1785 0.930 . S
C1774 C1770 1.524 . S
C1774 H1786 0.956 . S
C1774 H1787 0.961 . S
C1774 H1788 0.961 . S
C1775 C1772 1.539 . S
C1775 H1789 0.958 . S
C1775 H1790 0.961 . S
C1775 H1791 0.960 . S
H1776 C1760 0.931 . S
H1777 C1765 0.929 . S
H1778 C1766 0.960 . S
H1779 C1766 0.962 . S
H1780 C1766 0.960 . S
H1781 C1767 0.961 . S
H1782 C1767 0.961 . S
H1783 C1767 0.961 . S
H1784 C1768 0.931 . S
H1785 C1773 0.930 . S
H1786 C1774 0.956 . S
H1787 C1774 0.961 . S
H1788 C1774 0.961 . S
H1789 C1775 0.958 . S
H1790 C1775 0.961 . S
H1791 C1775 0.960 . S
C1792 C1793 1.391 . S
C1792 C1794 1.394 . S
C1792 H1808 0.931 . S
C1793 C1792 1.391 . S
C1793 C1797 1.376 . S
C1794 C1792 1.394 . S
C1794 C1795 1.369 . S
C1794 C1798 1.531 . S
C1795 C1794 1.369 . S
C1795 C1796 1.410 . S
C1795 C1803 1.503 1_455 S
C1796 C1795 1.410 . S
C1796 C1797 1.392 . S
C1796 C1799 1.511 . S
C1797 C1793 1.376 . S
C1797 C1796 1.392 . S
C1797 H1809 0.929 . S
C1798 C1794 1.531 . S
C1798 H1810 0.960 1_455 S
C1798 H1811 0.962 . S
C1798 H1812 0.960 . S
C1799 C1796 1.511 . S
C1799 H1813 0.961 . S
C1799 H1814 0.961 1_455 S
C1799 H1815 0.961 . S
C1800 C1801 1.370 . S
C1800 C1802 1.363 . S
C1800 H1816 0.931 . S
C1801 C1800 1.370 . S
C1801 C1805 1.408 . S
C1802 C1800 1.363 . S
C1802 C1803 1.370 . S
C1802 C1806 1.524 . S
C1803 C1795 1.503 1_655 S
C1803 C1802 1.370 . S
C1803 C1804 1.403 . S
C1804 C1803 1.403 . S
C1804 C1805 1.404 . S
C1804 C1807 1.539 . S
C1805 C1801 1.408 . S
C1805 C1804 1.404 . S
C1805 H1817 0.930 . S
C1806 C1802 1.524 . S
C1806 H1818 0.980 . S
C1806 H1819 0.961 1_655 S
C1806 H1820 0.961 . S
C1807 C1804 1.539 . S
C1807 H1821 0.958 . S
C1807 H1822 0.961 . S
C1807 H1823 0.965 . S
H1808 C1792 0.931 . S
H1809 C1797 0.929 . S
H1810 C1798 0.960 1_655 S
H1811 C1798 0.962 . S
H1812 C1798 0.960 . S
H1813 C1799 0.961 . S
H1814 C1799 0.961 1_655 S
H1815 C1799 0.961 . S
H1816 C1800 0.931 . S
H1817 C1805 0.930 . S
H1818 C1806 0.980 . S
H1819 C1806 0.961 1_455 S
H1820 C1806 0.961 . S
H1821 C1807 0.958 . S
H1822 C1807 0.961 . S
H1823 C1807 0.965 . S
C1824 C1825 1.391 . S
C1824 C1826 1.394 . S
C1824 H1840 0.931 . S
C1825 C1824 1.391 . S
C1825 C1829 1.376 . S
C1826 C1824 1.394 . S
C1826 C1827 1.369 . S
C1826 C1830 1.531 . S
C1827 C1826 1.369 . S
C1827 C1828 1.410 . S
C1827 C1835 1.503 . S
C1828 C1827 1.410 . S
C1828 C1829 1.392 . S
C1828 C1831 1.511 . S
C1829 C1825 1.376 . S
C1829 C1828 1.392 . S
C1829 H1841 0.929 . S
C1830 C1826 1.531 . S
C1830 H1842 0.960 . S
C1830 H1843 0.962 . S
C1830 H1844 0.960 . S
C1831 C1828 1.511 . S
C1831 H1845 0.961 . S
C1831 H1846 0.961 . S
C1831 H1847 0.961 . S
C1832 C1833 1.370 . S
C1832 C1834 1.363 . S
C1832 H1848 0.931 . S
C1833 C1832 1.370 . S
C1833 C1837 1.408 . S
C1834 C1832 1.363 . S
C1834 C1835 1.370 . S
C1834 C1838 1.524 . S
C1835 C1827 1.503 . S
C1835 C1834 1.370 . S
C1835 C1836 1.403 . S
C1836 C1835 1.403 . S
C1836 C1837 1.404 . S
C1836 C1839 1.539 . S
C1837 C1833 1.408 . S
C1837 C1836 1.404 . S
C1837 H1849 0.930 . S
C1838 C1834 1.524 . S
C1838 H1850 0.956 . S
C1838 H1851 0.961 . S
C1838 H1852 0.961 . S
C1839 C1836 1.539 . S
C1839 H1853 0.958 . S
C1839 H1854 0.961 . S
C1839 H1855 0.960 . S
H1840 C1824 0.931 . S
H1841 C1829 0.929 . S
H1842 C1830 0.960 . S
H1843 C1830 0.962 . S
H1844 C1830 0.960 . S
H1845 C1831 0.961 . S
H1846 C1831 0.961 . S
H1847 C1831 0.961 . S
H1848 C1832 0.931 . S
H1849 C1837 0.930 . S
H1850 C1838 0.956 . S
H1851 C1838 0.961 . S
H1852 C1838 0.961 . S
H1853 C1839 0.958 . S
H1854 C1839 0.961 . S
H1855 C1839 0.960 . S
C1856 C1857 1.391 . S
C1856 C1858 1.394 . S
C1856 H1872 0.931 . S
C1857 C1856 1.391 . S
C1857 C1861 1.376 . S
C1858 C1856 1.394 . S
C1858 C1859 1.369 . S
C1858 C1862 1.531 . S
C1859 C1858 1.369 . S
C1859 C1860 1.410 . S
C1859 C1867 1.503 . S
C1860 C1859 1.410 . S
C1860 C1861 1.392 . S
C1860 C1863 1.511 . S
C1861 C1857 1.376 . S
C1861 C1860 1.392 . S
C1861 H1873 0.929 . S
C1862 C1858 1.531 . S
C1862 H1874 0.960 . S
C1862 H1875 0.962 . S
C1862 H1876 0.960 . S
C1863 C1860 1.511 . S
C1863 H1877 0.961 . S
C1863 H1878 0.961 . S
C1863 H1879 0.961 . S
C1864 C1865 1.370 . S
C1864 C1866 1.363 . S
C1864 H1880 0.931 . S
C1865 C1864 1.370 . S
C1865 C1869 1.408 . S
C1866 C1864 1.363 . S
C1866 C1867 1.370 . S
C1866 C1870 1.524 . S
C1867 C1859 1.503 . S
C1867 C1866 1.370 . S
C1867 C1868 1.403 . S
C1868 C1867 1.403 . S
C1868 C1869 1.404 . S
C1868 C1871 1.539 . S
C1869 C1865 1.408 . S
C1869 C1868 1.404 . S
C1869 H1881 0.930 . S
C1870 C1866 1.524 . S
C1870 H1882 0.956 . S
C1870 H1883 0.961 . S
C1870 H1884 0.961 . S
C1871 C1868 1.539 . S
C1871 H1885 0.958 . S
C1871 H1886 0.961 . S
C1871 H1887 0.960 . S
H1872 C1856 0.931 . S
H1873 C1861 0.929 . S
H1874 C1862 0.960 . S
H1875 C1862 0.962 . S
H1876 C1862 0.960 . S
H1877 C1863 0.961 . S
H1878 C1863 0.961 . S
H1879 C1863 0.961 . S
H1880 C1864 0.931 . S
H1881 C1869 0.930 . S
H1882 C1870 0.956 . S
H1883 C1870 0.961 . S
H1884 C1870 0.961 . S
H1885 C1871 0.958 . S
H1886 C1871 0.961 . S
H1887 C1871 0.960 . S
C1888 C1889 1.391 . S
C1888 C1890 1.394 . S
C1888 H1904 0.931 . S
C1889 C1888 1.391 . S
C1889 C1893 1.376 . S
C1890 C1888 1.394 . S
C1890 C1891 1.369 . S
C1890 C1894 1.531 . S
C1891 C1890 1.369 . S
C1891 C1892 1.410 . S
C1891 C1899 1.503 1_455 S
C1892 C1891 1.410 . S
C1892 C1893 1.392 . S
C1892 C1895 1.511 . S
C1893 C1889 1.376 . S
C1893 C1892 1.392 . S
C1893 H1905 0.929 . S
C1894 C1890 1.531 . S
C1894 H1906 0.960 1_455 S
C1894 H1907 0.962 . S
C1894 H1908 0.960 . S
C1895 C1892 1.511 . S
C1895 H1909 0.961 . S
C1895 H1910 0.961 1_455 S
C1895 H1911 0.961 . S
C1896 C1897 1.370 . S
C1896 C1898 1.363 . S
C1896 H1912 0.931 . S
C1897 C1896 1.370 . S
C1897 C1901 1.408 . S
C1898 C1896 1.363 . S
C1898 C1899 1.370 . S
C1898 C1902 1.524 . S
C1899 C1891 1.503 1_655 S
C1899 C1898 1.370 . S
C1899 C1900 1.403 . S
C1900 C1899 1.403 . S
C1900 C1901 1.404 . S
C1900 C1903 1.539 . S
C1901 C1897 1.408 . S
C1901 C1900 1.404 . S
C1901 H1913 0.930 . S
C1902 C1898 1.524 . S
C1902 H1914 0.981 . S
C1902 H1915 0.961 1_655 S
C1902 H1916 0.961 . S
C1903 C1900 1.539 . S
C1903 H1917 0.958 . S
C1903 H1918 0.961 . S
C1903 H1919 0.964 . S
H1904 C1888 0.931 . S
H1905 C1893 0.929 . S
H1906 C1894 0.960 1_655 S
H1907 C1894 0.962 . S
H1908 C1894 0.960 . S
H1909 C1895 0.961 . S
H1910 C1895 0.961 1_655 S
H1911 C1895 0.961 . S
H1912 C1896 0.931 . S
H1913 C1901 0.930 . S
H1914 C1902 0.981 . S
H1915 C1902 0.961 1_455 S
H1916 C1902 0.961 . S
H1917 C1903 0.958 . S
H1918 C1903 0.961 . S
H1919 C1903 0.964 . S
C1920 C1921 1.391 . S
C1920 C1922 1.394 . S
C1920 H1936 0.931 . S
C1921 C1920 1.391 . S
C1921 C1925 1.376 . S
C1922 C1920 1.394 . S
C1922 C1923 1.369 . S
C1922 C1926 1.531 . S
C1923 C1922 1.369 . S
C1923 C1924 1.410 . S
C1923 C1931 1.503 1_554 S
C1924 C1923 1.410 . S
C1924 C1925 1.392 . S
C1924 C1927 1.511 1_554 S
C1925 C1921 1.376 . S
C1925 C1924 1.392 . S
C1925 H1937 0.929 . S
C1926 C1922 1.531 . S
C1926 H1938 0.960 . S
C1926 H1939 0.962 . S
C1926 H1940 0.960 . S
C1927 C1924 1.511 1_556 S
C1927 H1941 0.961 . S
C1927 H1942 0.961 . S
C1927 H1943 0.961 . S
C1928 C1929 1.370 . S
C1928 C1930 1.363 . S
C1928 H1944 0.931 . S
C1929 C1928 1.370 . S
C1929 C1933 1.408 . S
C1930 C1928 1.363 . S
C1930 C1931 1.370 . S
C1930 C1934 1.524 . S
C1931 C1923 1.503 1_556 S
C1931 C1930 1.370 . S
C1931 C1932 1.403 . S
C1932 C1931 1.403 . S
C1932 C1933 1.404 . S
C1932 C1935 1.539 . S
C1933 C1929 1.408 . S
C1933 C1932 1.404 . S
C1933 H1945 0.930 . S
C1934 C1930 1.524 . S
C1934 H1946 0.956 1_556 S
C1934 H1947 0.961 . S
C1934 H1948 0.961 . S
C1935 C1932 1.539 . S
C1935 H1949 0.929 1_556 S
C1935 H1950 0.961 . S
C1935 H1951 0.946 1_556 S
H1936 C1920 0.931 . S
H1937 C1925 0.929 . S
H1938 C1926 0.960 . S
H1939 C1926 0.962 . S
H1940 C1926 0.960 . S
H1941 C1927 0.961 . S
H1942 C1927 0.961 . S
H1943 C1927 0.961 . S
H1944 C1928 0.931 . S
H1945 C1933 0.930 . S
H1946 C1934 0.956 1_554 S
H1947 C1934 0.961 . S
H1948 C1934 0.961 . S
H1949 C1935 0.929 1_554 S
H1950 C1935 0.961 . S
H1951 C1935 0.946 1_554 S
C1952 C1953 1.391 . S
C1952 C1954 1.394 . S
C1952 H1968 0.931 . S
C1953 C1952 1.391 . S
C1953 C1957 1.376 . S
C1954 C1952 1.394 . S
C1954 C1955 1.369 . S
C1954 C1958 1.531 . S
C1955 C1954 1.369 . S
C1955 C1956 1.410 . S
C1955 C1963 1.503 . S
C1956 C1955 1.410 . S
C1956 C1957 1.392 . S
C1956 C1959 1.511 . S
C1957 C1953 1.376 . S
C1957 C1956 1.392 . S
C1957 H1969 0.929 . S
C1958 C1954 1.531 . S
C1958 H1970 0.960 . S
C1958 H1971 0.962 . S
C1958 H1972 0.960 . S
C1959 C1956 1.511 . S
C1959 H1973 0.961 . S
C1959 H1974 0.961 . S
C1959 H1975 0.961 . S
C1960 C1961 1.370 . S
C1960 C1962 1.363 . S
C1960 H1976 0.931 . S
C1961 C1960 1.370 . S
C1961 C1965 1.408 . S
C1962 C1960 1.363 . S
C1962 C1963 1.370 . S
C1962 C1966 1.524 . S
C1963 C1955 1.503 . S
C1963 C1962 1.370 . S
C1963 C1964 1.403 . S
C1964 C1963 1.403 . S
C1964 C1965 1.404 . S
C1964 C1967 1.539 . S
C1965 C1961 1.408 . S
C1965 C1964 1.404 . S
C1965 H1977 0.930 . S
C1966 C1962 1.524 . S
C1966 H1978 0.956 . S
C1966 H1979 0.961 . S
C1966 H1980 0.961 . S
C1967 C1964 1.539 . S
C1967 H1981 0.958 . S
C1967 H1982 0.961 . S
C1967 H1983 0.960 . S
H1968 C1952 0.931 . S
H1969 C1957 0.929 . S
H1970 C1958 0.960 . S
H1971 C1958 0.962 . S
H1972 C1958 0.960 . S
H1973 C1959 0.961 . S
H1974 C1959 0.961 . S
H1975 C1959 0.961 . S
H1976 C1960 0.931 . S
H1977 C1965 0.930 . S
H1978 C1966 0.956 . S
H1979 C1966 0.961 . S
H1980 C1966 0.961 . S
H1981 C1967 0.958 . S
H1982 C1967 0.961 . S
H1983 C1967 0.960 . S
C1984 C1985 1.391 . S
C1984 C1986 1.394 . S
C1984 H2000 0.931 . S
C1985 C1984 1.391 . S
C1985 C1989 1.376 . S
C1986 C1984 1.394 . S
C1986 C1987 1.369 . S
C1986 C1990 1.531 . S
C1987 C1986 1.369 . S
C1987 C1988 1.410 . S
C1987 C1995 1.503 . S
C1988 C1987 1.410 . S
C1988 C1989 1.392 . S
C1988 C1991 1.511 . S
C1989 C1985 1.376 . S
C1989 C1988 1.392 . S
C1989 H2001 0.929 . S
C1990 C1986 1.531 . S
C1990 H2002 0.960 . S
C1990 H2003 0.962 . S
C1990 H2004 0.960 . S
C1991 C1988 1.511 . S
C1991 H2005 0.961 . S
C1991 H2006 0.961 . S
C1991 H2007 0.961 . S
C1992 C1993 1.370 . S
C1992 C1994 1.363 . S
C1992 H2008 0.931 . S
C1993 C1992 1.370 . S
C1993 C1997 1.408 . S
C1994 C1992 1.363 . S
C1994 C1995 1.370 . S
C1994 C1998 1.524 . S
C1995 C1987 1.503 . S
C1995 C1994 1.370 . S
C1995 C1996 1.403 . S
C1996 C1995 1.403 . S
C1996 C1997 1.404 . S
C1996 C1999 1.539 . S
C1997 C1993 1.408 . S
C1997 C1996 1.404 . S
C1997 H2009 0.930 . S
C1998 C1994 1.524 . S
C1998 H2010 0.956 . S
C1998 H2011 0.961 . S
C1998 H2012 0.961 . S
C1999 C1996 1.539 . S
C1999 H2013 0.958 . S
C1999 H2014 0.961 . S
C1999 H2015 0.960 . S
H2000 C1984 0.931 . S
H2001 C1989 0.929 . S
H2002 C1990 0.960 . S
H2003 C1990 0.962 . S
H2004 C1990 0.960 . S
H2005 C1991 0.961 . S
H2006 C1991 0.961 . S
H2007 C1991 0.961 . S
H2008 C1992 0.931 . S
H2009 C1997 0.930 . S
H2010 C1998 0.956 . S
H2011 C1998 0.961 . S
H2012 C1998 0.961 . S
H2013 C1999 0.958 . S
H2014 C1999 0.961 . S
H2015 C1999 0.960 . S
C2016 C2017 1.391 . S
C2016 C2018 1.394 . S
C2016 H2032 0.931 . S
C2017 C2016 1.391 . S
C2017 C2021 1.376 . S
C2018 C2016 1.394 . S
C2018 C2019 1.369 . S
C2018 C2022 1.531 . S
C2019 C2018 1.369 . S
C2019 C2020 1.410 . S
C2019 C2027 1.503 . S
C2020 C2019 1.410 . S
C2020 C2021 1.392 . S
C2020 C2023 1.511 . S
C2021 C2017 1.376 . S
C2021 C2020 1.392 . S
C2021 H2033 0.929 . S
C2022 C2018 1.531 . S
C2022 H2034 0.960 . S
C2022 H2035 0.962 . S
C2022 H2036 0.960 . S
C2023 C2020 1.511 . S
C2023 H2037 0.961 . S
C2023 H2038 0.961 . S
C2023 H2039 0.961 . S
C2024 C2025 1.370 . S
C2024 C2026 1.363 . S
C2024 H2040 0.931 . S
C2025 C2024 1.370 . S
C2025 C2029 1.408 . S
C2026 C2024 1.363 . S
C2026 C2027 1.370 . S
C2026 C2030 1.524 . S
C2027 C2019 1.503 . S
C2027 C2026 1.370 . S
C2027 C2028 1.403 . S
C2028 C2027 1.403 . S
C2028 C2029 1.404 . S
C2028 C2031 1.539 . S
C2029 C2025 1.408 . S
C2029 C2028 1.404 . S
C2029 H2041 0.930 . S
C2030 C2026 1.524 . S
C2030 H2042 0.956 . S
C2030 H2043 0.961 . S
C2030 H2044 0.961 . S
C2031 C2028 1.539 . S
C2031 H2045 0.958 . S
C2031 H2046 0.961 . S
C2031 H2047 0.960 . S
H2032 C2016 0.931 . S
H2033 C2021 0.929 . S
H2034 C2022 0.960 . S
H2035 C2022 0.962 . S
H2036 C2022 0.960 . S
H2037 C2023 0.961 . S
H2038 C2023 0.961 . S
H2039 C2023 0.961 . S
H2040 C2024 0.931 . S
H2041 C2029 0.930 . S
H2042 C2030 0.956 . S
H2043 C2030 0.961 . S
H2044 C2030 0.961 . S
H2045 C2031 0.958 . S
H2046 C2031 0.961 . S
H2047 C2031 0.960 . S
C2048 C2049 1.391 . S
C2048 C2050 1.394 . S
C2048 H2064 0.931 . S
C2049 C2048 1.391 . S
C2049 C2053 1.376 . S
C2050 C2048 1.394 . S
C2050 C2051 1.369 . S
C2050 C2054 1.531 . S
C2051 C2050 1.369 . S
C2051 C2052 1.410 . S
C2051 C2059 1.503 1_556 S
C2052 C2051 1.410 . S
C2052 C2053 1.392 . S
C2052 C2055 1.511 . S
C2053 C2049 1.376 . S
C2053 C2052 1.392 . S
C2053 H2065 0.929 . S
C2054 C2050 1.531 . S
C2054 H2066 0.960 . S
C2054 H2067 0.962 . S
C2054 H2068 0.960 . S
C2055 C2052 1.511 . S
C2055 H2069 0.961 . S
C2055 H2070 0.961 1_556 S
C2055 H2071 0.961 . S
C2056 C2057 1.370 . S
C2056 C2058 1.363 . S
C2056 H2072 0.931 . S
C2057 C2056 1.370 . S
C2057 C2061 1.408 . S
C2058 C2056 1.363 . S
C2058 C2059 1.370 . S
C2058 C2062 1.524 . S
C2059 C2051 1.503 1_554 S
C2059 C2058 1.370 . S
C2059 C2060 1.403 . S
C2060 C2059 1.403 . S
C2060 C2061 1.404 . S
C2060 C2063 1.539 1_554 S
C2061 C2057 1.408 . S
C2061 C2060 1.404 . S
C2061 H2073 0.930 . S
C2062 C2058 1.524 . S
C2062 H2074 0.956 . S
C2062 H2075 0.961 . S
C2062 H2076 0.961 . S
C2063 C2060 1.539 1_556 S
C2063 H2077 0.958 . S
C2063 H2078 0.961 . S
C2063 H2079 0.960 . S
H2064 C2048 0.931 . S
H2065 C2053 0.929 . S
H2066 C2054 0.960 . S
H2067 C2054 0.962 . S
H2068 C2054 0.960 . S
H2069 C2055 0.961 . S
H2070 C2055 0.961 1_554 S
H2071 C2055 0.961 . S
H2072 C2056 0.931 . S
H2073 C2061 0.930 . S
H2074 C2062 0.956 . S
H2075 C2062 0.961 . S
H2076 C2062 0.961 . S
H2077 C2063 0.958 . S
H2078 C2063 0.961 . S
H2079 C2063 0.960 . S
C2080 C2081 1.391 . S
C2080 C2082 1.394 . S
C2080 H2096 0.931 . S
C2081 C2080 1.391 . S
C2081 C2085 1.376 . S
C2082 C2080 1.394 . S
C2082 C2083 1.369 . S
C2082 C2086 1.531 . S
C2083 C2082 1.369 . S
C2083 C2084 1.410 . S
C2083 C2091 1.503 . S
C2084 C2083 1.410 . S
C2084 C2085 1.392 . S
C2084 C2087 1.511 . S
C2085 C2081 1.376 . S
C2085 C2084 1.392 . S
C2085 H2097 0.929 . S
C2086 C2082 1.531 . S
C2086 H2098 0.960 . S
C2086 H2099 0.962 . S
C2086 H2100 0.960 . S
C2087 C2084 1.511 . S
C2087 H2101 0.961 . S
C2087 H2102 0.961 . S
C2087 H2103 0.961 . S
C2088 C2089 1.370 . S
C2088 C2090 1.363 . S
C2088 H2104 0.931 . S
C2089 C2088 1.370 . S
C2089 C2093 1.408 . S
C2090 C2088 1.363 . S
C2090 C2091 1.370 . S
C2090 C2094 1.524 . S
C2091 C2083 1.503 . S
C2091 C2090 1.370 . S
C2091 C2092 1.403 . S
C2092 C2091 1.403 . S
C2092 C2093 1.404 . S
C2092 C2095 1.539 . S
C2093 C2089 1.408 . S
C2093 C2092 1.404 . S
C2093 H2105 0.930 . S
C2094 C2090 1.524 . S
C2094 H2106 0.956 . S
C2094 H2107 0.961 . S
C2094 H2108 0.961 . S
C2095 C2092 1.539 . S
C2095 H2109 0.958 . S
C2095 H2110 0.961 . S
C2095 H2111 0.960 . S
H2096 C2080 0.931 . S
H2097 C2085 0.929 . S
H2098 C2086 0.960 . S
H2099 C2086 0.962 . S
H2100 C2086 0.960 . S
H2101 C2087 0.961 . S
H2102 C2087 0.961 . S
H2103 C2087 0.961 . S
H2104 C2088 0.931 . S
H2105 C2093 0.930 . S
H2106 C2094 0.956 . S
H2107 C2094 0.961 . S
H2108 C2094 0.961 . S
H2109 C2095 0.958 . S
H2110 C2095 0.961 . S
H2111 C2095 0.960 . S
C2112 C2113 1.391 . S
C2112 C2114 1.394 . S
C2112 H2128 0.931 . S
C2113 C2112 1.391 . S
C2113 C2117 1.376 . S
C2114 C2112 1.394 . S
C2114 C2115 1.369 . S
C2114 C2118 1.531 . S
C2115 C2114 1.369 . S
C2115 C2116 1.410 . S
C2115 C2123 1.503 . S
C2116 C2115 1.410 . S
C2116 C2117 1.392 . S
C2116 C2119 1.511 . S
C2117 C2113 1.376 . S
C2117 C2116 1.392 . S
C2117 H2129 0.929 . S
C2118 C2114 1.531 . S
C2118 H2130 0.960 . S
C2118 H2131 0.962 . S
C2118 H2132 0.960 . S
C2119 C2116 1.511 . S
C2119 H2133 0.961 . S
C2119 H2134 0.961 . S
C2119 H2135 0.961 . S
C2120 C2121 1.370 . S
C2120 C2122 1.363 . S
C2120 H2136 0.931 . S
C2121 C2120 1.370 . S
C2121 C2125 1.408 . S
C2122 C2120 1.363 . S
C2122 C2123 1.370 . S
C2122 C2126 1.524 . S
C2123 C2115 1.503 . S
C2123 C2122 1.370 . S
C2123 C2124 1.403 . S
C2124 C2123 1.403 . S
C2124 C2125 1.404 . S
C2124 C2127 1.539 . S
C2125 C2121 1.408 . S
C2125 C2124 1.404 . S
C2125 H2137 0.930 . S
C2126 C2122 1.524 . S
C2126 H2138 0.956 . S
C2126 H2139 0.961 . S
C2126 H2140 0.961 . S
C2127 C2124 1.539 . S
C2127 H2141 0.958 . S
C2127 H2142 0.961 . S
C2127 H2143 0.960 . S
H2128 C2112 0.931 . S
H2129 C2117 0.929 . S
H2130 C2118 0.960 . S
H2131 C2118 0.962 . S
H2132 C2118 0.960 . S
H2133 C2119 0.961 . S
H2134 C2119 0.961 . S
H2135 C2119 0.961 . S
H2136 C2120 0.931 . S
H2137 C2125 0.930 . S
H2138 C2126 0.956 . S
H2139 C2126 0.961 . S
H2140 C2126 0.961 . S
H2141 C2127 0.958 . S
H2142 C2127 0.961 . S
H2143 C2127 0.960 . S
C2144 C2145 1.391 . S
C2144 C2146 1.394 . S
C2144 H2160 0.931 . S
C2145 C2144 1.391 . S
C2145 C2149 1.376 . S
C2146 C2144 1.394 . S
C2146 C2147 1.369 . S
C2146 C2150 1.531 . S
C2147 C2146 1.369 . S
C2147 C2148 1.410 . S
C2147 C2155 1.503 . S
C2148 C2147 1.410 . S
C2148 C2149 1.392 . S
C2148 C2151 1.511 . S
C2149 C2145 1.376 . S
C2149 C2148 1.392 . S
C2149 H2161 0.929 . S
C2150 C2146 1.531 . S
C2150 H2162 0.960 . S
C2150 H2163 0.962 . S
C2150 H2164 0.960 . S
C2151 C2148 1.511 . S
C2151 H2165 0.961 . S
C2151 H2166 0.961 . S
C2151 H2167 0.961 . S
C2152 C2153 1.370 . S
C2152 C2154 1.363 . S
C2152 H2168 0.931 . S
C2153 C2152 1.370 . S
C2153 C2157 1.408 . S
C2154 C2152 1.363 . S
C2154 C2155 1.370 . S
C2154 C2158 1.524 . S
C2155 C2147 1.503 . S
C2155 C2154 1.370 . S
C2155 C2156 1.403 . S
C2156 C2155 1.403 . S
C2156 C2157 1.404 . S
C2156 C2159 1.539 . S
C2157 C2153 1.408 . S
C2157 C2156 1.404 . S
C2157 H2169 0.930 . S
C2158 C2154 1.524 . S
C2158 H2170 0.956 . S
C2158 H2171 0.961 . S
C2158 H2172 0.961 . S
C2159 C2156 1.539 . S
C2159 H2173 0.958 . S
C2159 H2174 0.961 . S
C2159 H2175 0.960 . S
H2160 C2144 0.931 . S
H2161 C2149 0.929 . S
H2162 C2150 0.960 . S
H2163 C2150 0.962 . S
H2164 C2150 0.960 . S
H2165 C2151 0.961 . S
H2166 C2151 0.961 . S
H2167 C2151 0.961 . S
H2168 C2152 0.931 . S
H2169 C2157 0.930 . S
H2170 C2158 0.956 . S
H2171 C2158 0.961 . S
H2172 C2158 0.961 . S
H2173 C2159 0.958 . S
H2174 C2159 0.961 . S
H2175 C2159 0.960 . S
C2176 C2177 1.391 . S
C2176 C2178 1.394 1_545 S
C2176 H2192 0.946 . S
C2177 C2176 1.391 . S
C2177 C2181 1.376 . S
C2178 C2176 1.394 1_565 S
C2178 C2179 1.369 1_565 S
C2178 C2182 1.531 . S
C2179 C2178 1.369 1_545 S
C2179 C2180 1.410 . S
C2179 C2187 1.503 1_545 S
C2180 C2179 1.410 . S
C2180 C2181 1.392 . S
C2180 C2183 1.511 . S
C2181 C2177 1.376 . S
C2181 C2180 1.392 . S
C2181 H2193 0.929 . S
C2182 C2178 1.531 . S
C2182 H2194 0.960 . S
C2182 H2195 0.962 . S
C2182 H2196 0.960 . S
C2183 C2180 1.511 . S
C2183 H2197 0.961 . S
C2183 H2198 0.961 . S
C2183 H2199 0.961 . S
C2184 C2185 1.370 . S
C2184 C2186 1.363 . S
C2184 H2200 0.931 . S
C2185 C2184 1.370 . S
C2185 C2189 1.408 . S
C2186 C2184 1.363 . S
C2186 C2187 1.370 . S
C2186 C2190 1.524 1_565 S
C2187 C2179 1.503 1_565 S
C2187 C2186 1.370 . S
C2187 C2188 1.403 . S
C2188 C2187 1.403 . S
C2188 C2189 1.404 . S
C2188 C2191 1.539 . S
C2189 C2185 1.408 . S
C2189 C2188 1.404 . S
C2189 H2201 0.930 . S
C2190 C2186 1.524 1_545 S
C2190 H2202 0.956 . S
C2190 H2203 0.961 . S
C2190 H2204 0.961 . S
C2191 C2188 1.539 . S
C2191 H2205 0.958 . S
C2191 H2206 0.961 . S
C2191 H2207 0.960 . S
H2192 C2176 0.946 . S
H2193 C2181 0.929 . S
H2194 C2182 0.960 . S
H2195 C2182 0.962 . S
H2196 C2182 0.960 . S
H2197 C2183 0.961 . S
H2198 C2183 0.961 . S
H2199 C2183 0.961 . S
H2200 C2184 0.931 . S
H2201 C2189 0.930 . S
H2202 C2190 0.956 . S
H2203 C2190 0.961 . S
H2204 C2190 0.961 . S
H2205 C2191 0.958 . S
H2206 C2191 0.961 . S
H2207 C2191 0.960 . S
C2208 C2209 1.391 . S
C2208 C2210 1.394 . S
C2208 H2224 0.931 . S
C2209 C2208 1.391 . S
C2209 C2213 1.376 . S
C2210 C2208 1.394 . S
C2210 C2211 1.369 . S
C2210 C2214 1.531 . S
C2211 C2210 1.369 . S
C2211 C2212 1.410 . S
C2211 C2219 1.503 . S
C2212 C2211 1.410 . S
C2212 C2213 1.392 . S
C2212 C2215 1.511 . S
C2213 C2209 1.376 . S
C2213 C2212 1.392 . S
C2213 H2225 0.929 . S
C2214 C2210 1.531 . S
C2214 H2226 0.960 . S
C2214 H2227 0.962 . S
C2214 H2228 0.960 . S
C2215 C2212 1.511 . S
C2215 H2229 0.961 . S
C2215 H2230 0.961 . S
C2215 H2231 0.961 . S
C2216 C2217 1.370 . S
C2216 C2218 1.363 . S
C2216 H2232 0.931 . S
C2217 C2216 1.370 . S
C2217 C2221 1.408 . S
C2218 C2216 1.363 . S
C2218 C2219 1.370 . S
C2218 C2222 1.524 . S
C2219 C2211 1.503 . S
C2219 C2218 1.370 . S
C2219 C2220 1.403 . S
C2220 C2219 1.403 . S
C2220 C2221 1.404 . S
C2220 C2223 1.539 . S
C2221 C2217 1.408 . S
C2221 C2220 1.404 . S
C2221 H2233 0.930 . S
C2222 C2218 1.524 . S
C2222 H2234 0.956 . S
C2222 H2235 0.961 . S
C2222 H2236 0.961 . S
C2223 C2220 1.539 . S
C2223 H2237 0.958 . S
C2223 H2238 0.961 . S
C2223 H2239 0.960 . S
H2224 C2208 0.931 . S
H2225 C2213 0.929 . S
H2226 C2214 0.960 . S
H2227 C2214 0.962 . S
H2228 C2214 0.960 . S
H2229 C2215 0.961 . S
H2230 C2215 0.961 . S
H2231 C2215 0.961 . S
H2232 C2216 0.931 . S
H2233 C2221 0.930 . S
H2234 C2222 0.956 . S
H2235 C2222 0.961 . S
H2236 C2222 0.961 . S
H2237 C2223 0.958 . S
H2238 C2223 0.961 . S
H2239 C2223 0.960 . S
C2240 C2241 1.391 . S
C2240 C2242 1.394 . S
C2240 H2256 0.931 . S
C2241 C2240 1.391 . S
C2241 C2245 1.376 . S
C2242 C2240 1.394 . S
C2242 C2243 1.369 . S
C2242 C2246 1.531 1_556 S
C2243 C2242 1.369 . S
C2243 C2244 1.424 . S
C2243 C2251 1.503 1_546 S
C2244 C2243 1.424 . S
C2244 C2245 1.410 . S
C2244 C2247 1.481 1_545 S
C2245 C2241 1.376 . S
C2245 C2244 1.410 . S
C2245 H2257 0.929 . S
C2246 C2242 1.531 1_554 S
C2246 H2258 0.960 . S
C2246 H2259 0.962 . S
C2246 H2260 0.960 . S
C2247 C2244 1.481 1_565 S
C2247 H2261 0.961 . S
C2247 H2262 0.961 . S
C2247 H2263 0.961 . S
C2248 C2249 1.370 . S
C2248 C2250 1.363 . S
C2248 H2264 0.931 . S
C2249 C2248 1.370 . S
C2249 C2253 1.408 . S
C2250 C2248 1.363 . S
C2250 C2251 1.370 . S
C2250 C2254 1.524 1_554 S
C2251 C2243 1.503 1_564 S
C2251 C2250 1.370 . S
C2251 C2252 1.403 1_565 S
C2252 C2251 1.403 1_545 S
C2252 C2253 1.404 1_545 S
C2252 C2255 1.539 . S
C2253 C2249 1.408 . S
C2253 C2252 1.404 1_565 S
C2253 H2265 0.930 . S
C2254 C2250 1.524 1_556 S
C2254 H2266 0.956 . S
C2254 H2267 0.961 . S
C2254 H2268 0.960 1_556 S
C2255 C2252 1.539 . S
C2255 H2269 0.958 . S
C2255 H2270 0.961 . S
C2255 H2271 0.960 . S
H2256 C2240 0.931 . S
H2257 C2245 0.929 . S
H2258 C2246 0.960 . S
H2259 C2246 0.962 . S
H2260 C2246 0.960 . S
H2261 C2247 0.961 . S
H2262 C2247 0.961 . S
H2263 C2247 0.961 . S
H2264 C2248 0.931 . S
H2265 C2253 0.930 . S
H2266 C2254 0.956 . S
H2267 C2254 0.961 . S
H2268 C2254 0.960 1_554 S
H2269 C2255 0.958 . S
H2270 C2255 0.961 . S
H2271 C2255 0.960 . S
C2272 C2273 1.391 . S
C2272 C2274 1.394 . S
C2272 H2288 0.931 . S
C2273 C2272 1.391 . S
C2273 C2277 1.376 . S
C2274 C2272 1.394 . S
C2274 C2275 1.369 . S
C2274 C2278 1.531 . S
C2275 C2274 1.369 . S
C2275 C2276 1.410 . S
C2275 C2283 1.503 . S
C2276 C2275 1.410 . S
C2276 C2277 1.392 . S
C2276 C2279 1.511 . S
C2277 C2273 1.376 . S
C2277 C2276 1.392 . S
C2277 H2289 0.929 . S
C2278 C2274 1.531 . S
C2278 H2290 0.960 . S
C2278 H2291 0.962 . S
C2278 H2292 0.960 . S
C2279 C2276 1.511 . S
C2279 H2293 0.961 . S
C2279 H2294 0.961 . S
C2279 H2295 0.961 . S
C2280 C2281 1.370 . S
C2280 C2282 1.363 . S
C2280 H2296 0.931 . S
C2281 C2280 1.370 . S
C2281 C2285 1.408 . S
C2282 C2280 1.363 . S
C2282 C2283 1.370 . S
C2282 C2286 1.524 . S
C2283 C2275 1.503 . S
C2283 C2282 1.370 . S
C2283 C2284 1.403 . S
C2284 C2283 1.403 . S
C2284 C2285 1.404 . S
C2284 C2287 1.539 . S
C2285 C2281 1.408 . S
C2285 C2284 1.404 . S
C2285 H2297 0.930 . S
C2286 C2282 1.524 . S
C2286 H2298 0.956 . S
C2286 H2299 0.961 . S
C2286 H2300 0.961 . S
C2287 C2284 1.539 . S
C2287 H2301 0.958 . S
C2287 H2302 0.961 . S
C2287 H2303 0.960 . S
H2288 C2272 0.931 . S
H2289 C2277 0.929 . S
H2290 C2278 0.960 . S
H2291 C2278 0.962 . S
H2292 C2278 0.960 . S
H2293 C2279 0.961 . S
H2294 C2279 0.961 . S
H2295 C2279 0.961 . S
H2296 C2280 0.931 . S
H2297 C2285 0.930 . S
H2298 C2286 0.956 . S
H2299 C2286 0.961 . S
H2300 C2286 0.961 . S
H2301 C2287 0.958 . S
H2302 C2287 0.961 . S
H2303 C2287 0.960 . S
C2304 C2305 1.391 . S
C2304 C2306 1.394 . S
C2304 H2320 0.931 . S
C2305 C2304 1.391 . S
C2305 C2309 1.376 . S
C2306 C2304 1.394 . S
C2306 C2307 1.369 . S
C2306 C2310 1.531 1_545 S
C2307 C2306 1.369 . S
C2307 C2308 1.410 . S
C2307 C2315 1.503 1_545 S
C2308 C2307 1.410 . S
C2308 C2309 1.392 . S
C2308 C2311 1.511 . S
C2309 C2305 1.376 . S
C2309 C2308 1.392 . S
C2309 H2321 0.929 . S
C2310 C2306 1.531 1_565 S
C2310 H2322 0.960 . S
C2310 H2323 0.962 . S
C2310 H2324 0.956 1_565 S
C2311 C2308 1.511 . S
C2311 H2325 0.961 . S
C2311 H2326 0.961 . S
C2311 H2327 0.961 . S
C2312 C2313 1.370 . S
C2312 C2314 1.363 . S
C2312 H2328 0.931 . S
C2313 C2312 1.370 . S
C2313 C2317 1.408 . S
C2314 C2312 1.363 . S
C2314 C2315 1.370 . S
C2314 C2318 1.524 . S
C2315 C2307 1.503 1_565 S
C2315 C2314 1.370 . S
C2315 C2316 1.403 1_565 S
C2316 C2315 1.403 1_545 S
C2316 C2317 1.404 1_545 S
C2316 C2319 1.539 . S
C2317 C2313 1.408 . S
C2317 C2316 1.404 1_565 S
C2317 H2329 0.933 . S
C2318 C2314 1.524 . S
C2318 H2330 0.956 . S
C2318 H2331 0.961 . S
C2318 H2332 0.961 . S
C2319 C2316 1.539 . S
C2319 H2333 0.958 . S
C2319 H2334 0.961 . S
C2319 H2335 0.960 . S
H2320 C2304 0.931 . S
H2321 C2309 0.929 . S
H2322 C2310 0.960 . S
H2323 C2310 0.962 . S
H2324 C2310 0.956 1_545 S
H2325 C2311 0.961 . S
H2326 C2311 0.961 . S
H2327 C2311 0.961 . S
H2328 C2312 0.931 . S
H2329 C2317 0.933 . S
H2330 C2318 0.956 . S
H2331 C2318 0.961 . S
H2332 C2318 0.961 . S
H2333 C2319 0.958 . S
H2334 C2319 0.961 . S
H2335 C2319 0.960 . S
C2336 C2337 1.391 . S
C2336 C2338 1.394 . S
C2336 H2352 0.931 . S
C2337 C2336 1.391 . S
C2337 C2341 1.376 . S
C2338 C2336 1.394 . S
C2338 C2339 1.369 . S
C2338 C2342 1.531 . S
C2339 C2338 1.369 . S
C2339 C2340 1.410 . S
C2339 C2347 1.503 . S
C2340 C2339 1.410 . S
C2340 C2341 1.392 . S
C2340 C2343 1.511 . S
C2341 C2337 1.376 . S
C2341 C2340 1.392 . S
C2341 H2353 0.929 . S
C2342 C2338 1.531 . S
C2342 H2354 0.960 . S
C2342 H2355 0.962 . S
C2342 H2356 0.960 . S
C2343 C2340 1.511 . S
C2343 H2357 0.961 . S
C2343 H2358 0.961 . S
C2343 H2359 0.961 . S
C2344 C2345 1.370 . S
C2344 C2346 1.363 . S
C2344 H2360 0.931 . S
C2345 C2344 1.370 . S
C2345 C2349 1.408 . S
C2346 C2344 1.363 . S
C2346 C2347 1.370 . S
C2346 C2350 1.524 . S
C2347 C2339 1.503 . S
C2347 C2346 1.370 . S
C2347 C2348 1.403 . S
C2348 C2347 1.403 . S
C2348 C2349 1.404 . S
C2348 C2351 1.539 . S
C2349 C2345 1.408 . S
C2349 C2348 1.404 . S
C2349 H2361 0.930 . S
C2350 C2346 1.524 . S
C2350 H2362 0.956 . S
C2350 H2363 0.961 . S
C2350 H2364 0.961 . S
C2351 C2348 1.539 . S
C2351 H2365 0.958 . S
C2351 H2366 0.961 . S
C2351 H2367 0.960 . S
H2352 C2336 0.931 . S
H2353 C2341 0.929 . S
H2354 C2342 0.960 . S
H2355 C2342 0.962 . S
H2356 C2342 0.960 . S
H2357 C2343 0.961 . S
H2358 C2343 0.961 . S
H2359 C2343 0.961 . S
H2360 C2344 0.931 . S
H2361 C2349 0.930 . S
H2362 C2350 0.956 . S
H2363 C2350 0.961 . S
H2364 C2350 0.961 . S
H2365 C2351 0.958 . S
H2366 C2351 0.961 . S
H2367 C2351 0.960 . S
C2368 C2369 1.391 . S
C2368 C2370 1.411 . S
C2368 H2384 0.931 . S
C2369 C2368 1.391 . S
C2369 C2373 1.376 . S
C2370 C2368 1.411 . S
C2370 C2371 1.371 . S
C2370 C2374 1.511 1_565 S
C2371 C2370 1.371 . S
C2371 C2372 1.410 . S
C2371 C2379 1.503 1_564 S
C2372 C2371 1.410 . S
C2372 C2373 1.392 . S
C2372 C2375 1.511 . S
C2373 C2369 1.376 . S
C2373 C2372 1.392 . S
C2373 H2385 0.929 . S
C2374 C2370 1.511 1_545 S
C2374 H2386 0.960 . S
C2374 H2387 0.962 . S
C2374 H2388 0.960 . S
C2375 C2372 1.511 . S
C2375 H2389 0.961 . S
C2375 H2390 0.961 1_554 S
C2375 H2391 0.961 . S
C2376 C2377 1.370 . S
C2376 C2378 1.363 1_545 S
C2376 H2392 0.941 . S
C2377 C2376 1.370 . S
C2377 C2381 1.408 . S
C2378 C2376 1.363 1_565 S
C2378 C2379 1.370 1_565 S
C2378 C2382 1.524 . S
C2379 C2371 1.503 1_546 S
C2379 C2378 1.370 1_545 S
C2379 C2380 1.403 . S
C2380 C2379 1.403 . S
C2380 C2381 1.404 . S
C2380 C2383 1.539 1_556 S
C2381 C2377 1.408 . S
C2381 C2380 1.404 . S
C2381 H2393 0.930 . S
C2382 C2378 1.524 . S
C2382 H2394 0.956 . S
C2382 H2395 0.961 . S
C2382 H2396 0.961 . S
C2383 C2380 1.539 1_554 S
C2383 H2397 0.958 . S
C2383 H2398 0.961 . S
C2383 H2399 0.960 . S
H2384 C2368 0.931 . S
H2385 C2373 0.929 . S
H2386 C2374 0.960 . S
H2387 C2374 0.962 . S
H2388 C2374 0.960 . S
H2389 C2375 0.961 . S
H2390 C2375 0.961 1_556 S
H2391 C2375 0.961 . S
H2392 C2376 0.941 . S
H2393 C2381 0.930 . S
H2394 C2382 0.956 . S
H2395 C2382 0.961 . S
H2396 C2382 0.961 . S
H2397 C2383 0.958 . S
H2398 C2383 0.961 . S
H2399 C2383 0.960 . S
C2400 C2401 1.391 . S
C2400 C2402 1.394 . S
C2400 H2416 0.931 . S
C2401 C2400 1.391 . S
C2401 C2405 1.376 . S
C2402 C2400 1.394 . S
C2402 C2403 1.369 . S
C2402 C2406 1.531 . S
C2403 C2402 1.369 . S
C2403 C2404 1.410 . S
C2403 C2411 1.503 . S
C2404 C2403 1.410 . S
C2404 C2405 1.392 . S
C2404 C2407 1.511 . S
C2405 C2401 1.376 . S
C2405 C2404 1.392 . S
C2405 H2417 0.929 . S
C2406 C2402 1.531 . S
C2406 H2418 0.960 . S
C2406 H2419 0.962 . S
C2406 H2420 0.960 . S
C2407 C2404 1.511 . S
C2407 H2421 0.961 . S
C2407 H2422 0.961 . S
C2407 H2423 0.961 . S
C2408 C2409 1.370 . S
C2408 C2410 1.363 . S
C2408 H2424 0.931 . S
C2409 C2408 1.370 . S
C2409 C2413 1.408 . S
C2410 C2408 1.363 . S
C2410 C2411 1.370 . S
C2410 C2414 1.524 . S
C2411 C2403 1.503 . S
C2411 C2410 1.370 . S
C2411 C2412 1.403 . S
C2412 C2411 1.403 . S
C2412 C2413 1.404 . S
C2412 C2415 1.539 . S
C2413 C2409 1.408 . S
C2413 C2412 1.404 . S
C2413 H2425 0.930 . S
C2414 C2410 1.524 . S
C2414 H2426 0.956 . S
C2414 H2427 0.961 . S
C2414 H2428 0.961 . S
C2415 C2412 1.539 . S
C2415 H2429 0.958 . S
C2415 H2430 0.961 . S
C2415 H2431 0.960 . S
H2416 C2400 0.931 . S
H2417 C2405 0.929 . S
H2418 C2406 0.960 . S
H2419 C2406 0.962 . S
H2420 C2406 0.960 . S
H2421 C2407 0.961 . S
H2422 C2407 0.961 . S
H2423 C2407 0.961 . S
H2424 C2408 0.931 . S
H2425 C2413 0.930 . S
H2426 C2414 0.956 . S
H2427 C2414 0.961 . S
H2428 C2414 0.961 . S
H2429 C2415 0.958 . S
H2430 C2415 0.961 . S
H2431 C2415 0.960 . S
C1409 C1017 1.466 . S
C1417 C20 1.474 . S
C1441 C1369 1.467 . S
C1449 C108 1.474 . S
C1473 C225 1.463 . S
C1481 C812 1.472 . S
C1505 C1164 1.480 . S
C1513 C321 1.479 . S
C1537 C409 1.467 . S
C1545 C1173 1.475 . S
C1569 C469 1.462 . S
C1577 C1025 1.472 . S
C1601 C548 1.484 . S
C1609 C1377 1.480 . S
C1633 C673 1.471 . S
C1641 C821 1.474 . S
C1665 C284 1.480 . S
C1673 C761 1.478 . S
C1697 C900 1.466 . S
C1705 C145 1.474 . S
C1729 C1076 1.485 . S
C1737 C489 1.483 . S
C1761 C1281 1.461 . S
C1769 C636 1.473 . S
C1793 C372 1.485 . S
C1801 C753 1.482 . S
C1825 C909 1.485 . S
C1833 C585 1.483 . S
C1857 C1289 1.461 . S
C1865 C205 1.474 . S
C1889 C57 1.464 . S
C1897 C1085 1.472 . S
C1921 C49 0.923 . S
C1929 C381 0.937 . S
C1953 C137 0.976 . S
C1961 C497 0.956 . S
C1985 C196 0.934 . S
C1993 C577 0.954 . S
C2017 C645 0.952 . S
C2025 C293 0.940 . S
C2049 C733 0.966 . S
C2057 C1105 0.952 . S
C2081 C1193 0.923 . S
C2089 C849 0.941 . S
C2113 C929 0.938 . S
C2121 C1252 0.953 . S
C2145 C1340 0.928 . S
C2153 C997 0.940 . S
C2177 C665 0.931 . S
C2185 C117 0.936 . S
C2209 C233 0.923 . S
C2217 C401 0.937 . S
C2241 C313 0.960 . S
C2249 C460 0.960 . S
C2273 C29 0.932 . S
C2281 C557 0.936 . S
C2305 C841 0.951 . S
C2313 C1349 0.958 . S
C2337 C1113 0.975 . S
C2345 C937 0.961 . S
C2369 C988 0.970 . S
C2377 C1201 0.954 . S
C2401 C1261 0.970 . S
C2409 C724 0.962 . S
