# Generated by pormake.
# Topology fnz, (5)-cn, num edge types: 1
# Building blocks:
#     Node 0, Type 0, BuildingBlock: XOMCOT_clean_sbu_1, # of connection points: 5
#     Node 1, Type 0, BuildingBlock: XOMCOT_clean_sbu_1, # of connection points: 5
#     Node 2, Type 0, BuildingBlock: XOMCOT_clean_sbu_1, # of connection points: 5
#     Node 3, Type 0, BuildingBlock: XOMCOT_clean_sbu_1, # of connection points: 5
#     Node 4, Type 0, BuildingBlock: XOMCOT_clean_sbu_1, # of connection points: 5
#     Node 5, Type 0, BuildingBlock: XOMCOT_clean_sbu_1, # of connection points: 5
#     Node 6, Type 0, BuildingBlock: XOMCOT_clean_sbu_1, # of connection points: 5
#     Node 7, Type 0, BuildingBlock: XOMCOT_clean_sbu_1, # of connection points: 5
#     Node 8, Type 0, BuildingBlock: XOMCOT_clean_sbu_1, # of connection points: 5
#     Node 9, Type 0, BuildingBlock: XOMCOT_clean_sbu_1, # of connection points: 5
#     Node 10, Type 0, BuildingBlock: XOMCOT_clean_sbu_1, # of connection points: 5
#     Node 11, Type 0, BuildingBlock: XOMCOT_clean_sbu_1, # of connection points: 5
#     Edge 12, Type (0, 0), BuildingBlock: EZIPEK_clean_linker_0, # of connection points: 2
#     Edge 13, Type (0, 0), BuildingBlock: EZIPEK_clean_linker_0, # of connection points: 2
#     Edge 14, Type (0, 0), BuildingBlock: EZIPEK_clean_linker_0, # of connection points: 2
#     Edge 15, Type (0, 0), BuildingBlock: EZIPEK_clean_linker_0, # of connection points: 2
#     Edge 16, Type (0, 0), BuildingBlock: EZIPEK_clean_linker_0, # of connection points: 2
#     Edge 17, Type (0, 0), BuildingBlock: EZIPEK_clean_linker_0, # of connection points: 2
#     Edge 18, Type (0, 0), BuildingBlock: EZIPEK_clean_linker_0, # of connection points: 2
#     Edge 19, Type (0, 0), BuildingBlock: EZIPEK_clean_linker_0, # of connection points: 2
#     Edge 20, Type (0, 0), BuildingBlock: EZIPEK_clean_linker_0, # of connection points: 2
#     Edge 21, Type (0, 0), BuildingBlock: EZIPEK_clean_linker_0, # of connection points: 2
#     Edge 22, Type (0, 0), BuildingBlock: EZIPEK_clean_linker_0, # of connection points: 2
#     Edge 23, Type (0, 0), BuildingBlock: EZIPEK_clean_linker_0, # of connection points: 2
#     Edge 24, Type (0, 0), BuildingBlock: EZIPEK_clean_linker_0, # of connection points: 2
#     Edge 25, Type (0, 0), BuildingBlock: EZIPEK_clean_linker_0, # of connection points: 2
#     Edge 26, Type (0, 0), BuildingBlock: EZIPEK_clean_linker_0, # of connection points: 2
#     Edge 27, Type (0, 0), BuildingBlock: EZIPEK_clean_linker_0, # of connection points: 2
#     Edge 28, Type (0, 0), BuildingBlock: EZIPEK_clean_linker_0, # of connection points: 2
#     Edge 29, Type (0, 0), BuildingBlock: EZIPEK_clean_linker_0, # of connection points: 2
#     Edge 30, Type (0, 0), BuildingBlock: EZIPEK_clean_linker_0, # of connection points: 2
#     Edge 31, Type (0, 0), BuildingBlock: EZIPEK_clean_linker_0, # of connection points: 2
#     Edge 32, Type (0, 0), BuildingBlock: EZIPEK_clean_linker_0, # of connection points: 2
#     Edge 33, Type (0, 0), BuildingBlock: EZIPEK_clean_linker_0, # of connection points: 2
#     Edge 34, Type (0, 0), BuildingBlock: EZIPEK_clean_linker_0, # of connection points: 2
#     Edge 35, Type (0, 0), BuildingBlock: EZIPEK_clean_linker_0, # of connection points: 2
#     Edge 36, Type (0, 0), BuildingBlock: EZIPEK_clean_linker_0, # of connection points: 2
#     Edge 37, Type (0, 0), BuildingBlock: EZIPEK_clean_linker_0, # of connection points: 2
#     Edge 38, Type (0, 0), BuildingBlock: EZIPEK_clean_linker_0, # of connection points: 2
#     Edge 39, Type (0, 0), BuildingBlock: EZIPEK_clean_linker_0, # of connection points: 2
#     Edge 40, Type (0, 0), BuildingBlock: EZIPEK_clean_linker_0, # of connection points: 2
#     Edge 41, Type (0, 0), BuildingBlock: EZIPEK_clean_linker_0, # of connection points: 2
# Relax obj value: 0.396
# Max RMSD: 0.284
# Mean RMSD: 0.284
data_MOF--net-fnz--node1-XOMCOT_clean_sbu_1--edge1-EZIPEK_clean_linker_0
_symmetry_space_group_name_H-M    P1
_symmetry_Int_Tables_number       1
_symmetry_cell_setting            triclinic
loop_
_symmetry_equiv_pos_as_xyz
'x, y, z'
_cell_length_a     35.533266
_cell_length_b     35.646698
_cell_length_c     19.646815
_cell_angle_alpha  89.433068
_cell_angle_beta   90.271615
_cell_angle_gamma 120.06477
loop_
_atom_site_label
_atom_site_type_symbol
_atom_site_fract_x
_atom_site_fract_y
_atom_site_fract_z
_atom_type_partial_charge
C0 C 0.52824 0.15359 0.99998 0.0
C1 C 0.54217 0.12399 0.99125 0.0
N2 N 0.50741 0.08365 0.99565 0.0
N3 N 0.48473 0.1322 1.00877 0.0
C4 C 0.47316 0.08983 1.00358 0.0
H5 H 0.54887 0.18836 1.00384 0.0
Co6 Co 0.44955 0.15517 0.03893 0.0
C7 C 0.51384 0.20196 0.16915 0.0
O8 O 0.54879 0.19852 0.17533 0.0
N9 N 0.41574 0.17742 0.0729 0.0
C10 C 0.38121 0.19257 0.15277 0.0
C11 C 0.40285 0.17101 0.13892 0.0
C12 C 0.40151 0.20344 0.04754 0.0
N13 N 0.38055 0.21291 0.09558 0.0
O14 O 0.48153 0.20615 0.97654 0.0
H15 H 0.4102 0.15301 0.17603 0.0
H16 H 0.4077 0.2165 0.99631 0.0
O17 O 0.48843 0.18369 0.1182 0.0
C18 C 0.46532 0.19605 0.91599 0.0
O19 O 0.43248 0.15661 0.90721 0.0
N20 N 0.41409 0.10321 0.087 0.0
C21 C 0.35623 0.01536 0.10936 0.0
C22 C 0.39601 0.03656 0.14493 0.0
C23 C 0.42453 0.08129 0.13389 0.0
C24 C 0.37456 0.08337 0.05567 0.0
C25 C 0.34493 0.03992 0.06719 0.0
H26 H 0.45655 0.09685 0.15656 0.0
H27 H 0.3672 0.10077 1.01739 0.0
H28 H 0.44032 0.06353 1.00935 0.0
H29 H 0.5756 0.13151 0.98672 0.0
H30 H 0.36891 0.19515 0.20179 0.0
H31 H 0.40594 0.01831 0.17735 0.0
H32 H 0.31468 0.0247 0.03887 0.0
C33 C 0.36712 0.51458 0.99218 0.0
C34 C 0.411 0.52841 0.99022 0.0
N35 N 0.41888 0.50436 1.03475 0.0
N36 N 0.34666 0.48102 0.03666 0.0
C37 C 0.38012 0.47743 0.06381 0.0
H38 H 0.35118 0.52619 0.95823 0.0
Co39 Co 0.28577 0.43673 1.03329 0.0
C40 C 0.24714 0.43129 0.17147 0.0
O41 O 0.23333 0.38966 0.16914 0.0
N42 N 0.22626 0.39262 1.0281 0.0
C43 C 0.16375 0.33223 0.04977 0.0
C44 C 0.20769 0.34968 0.04216 0.0
C45 C 0.19206 0.3993 1.02257 0.0
N46 N 0.1539 0.36355 0.038 0.0
O47 O 0.27248 0.47473 0.97809 0.0
H48 H 0.22461 0.33221 0.05252 0.0
H49 H 0.19516 0.43034 1.01108 0.0
O50 O 0.27139 0.45592 0.12235 0.0
C51 C 0.27173 0.46426 0.91552 0.0
O52 O 0.28022 0.43318 0.90255 0.0
N53 N 0.29972 0.39787 0.07464 0.0
C54 C 0.32495 0.33693 0.09735 0.0
C55 C 0.3183 0.35756 0.15255 0.0
C56 C 0.30747 0.38964 0.1399 0.0
C57 C 0.3067 0.37817 1.02108 0.0
C58 C 0.31941 0.34773 1.0312 0.0
H59 H 0.30783 0.40911 0.18185 0.0
H60 H 0.30232 0.38636 0.96977 0.0
H61 H 0.37667 0.45277 0.09919 0.0
H62 H 0.43458 0.5519 0.95503 0.0
H63 H 0.14077 0.29922 0.0649 0.0
H64 H 0.32349 0.35038 0.20428 0.0
H65 H 0.32479 0.33259 0.98761 0.0
C66 C 0.86088 0.36776 0.91937 0.0
C67 C 0.89175 0.41083 0.91847 0.0
N68 N 0.90684 0.42327 0.98205 0.0
N69 N 0.85634 0.3515 0.98309 0.0
C70 C 0.8835 0.38684 1.02082 0.0
H71 H 0.84714 0.34899 0.8741 0.0
Co72 Co 0.84044 0.29207 0.99694 0.0
C73 C 0.80213 0.26383 0.13917 0.0
O74 O 0.82108 0.2404 0.14401 0.0
N75 N 0.82653 0.23402 1.00702 0.0
C76 C 0.8302 0.1735 1.01052 0.0
C77 C 0.85308 0.21745 0.99839 0.0
C78 C 0.78747 0.19925 1.02249 0.0
N79 N 0.78906 0.16231 1.02599 0.0
O80 O 0.78806 0.27208 0.94094 0.0
H81 H 0.88695 0.23588 0.98423 0.0
H82 H 0.7585 0.20099 1.03196 0.0
O83 O 0.80794 0.28747 0.08544 0.0
C84 C 0.79766 0.26472 0.88133 0.0
O85 O 0.83791 0.27408 0.87021 0.0
N86 N 0.89423 0.31075 0.03895 0.0
C87 C 0.97982 0.33135 0.06117 0.0
C88 C 0.95083 0.32018 0.11607 0.0
C89 C 0.90839 0.31189 0.10412 0.0
C90 C 0.92247 0.32232 0.98576 0.0
C91 C 0.9654 0.3335 0.99577 0.0
H92 H 0.88766 0.30612 0.14712 0.0
H93 H 0.9111 0.32178 0.93451 0.0
H94 H 0.88974 0.38471 0.0743 0.0
H95 H 0.90482 0.4307 0.87311 0.0
H96 H 0.84279 0.15145 1.00897 0.0
H97 H 0.96077 0.31772 0.16733 0.0
H98 H 0.98678 0.34194 0.95213 0.0
C99 C 0.50498 0.86518 0.95565 0.0
C100 C 0.49483 0.89727 0.94974 0.0
N101 N 0.50897 0.9224 1.00513 0.0
N102 N 0.52901 0.87046 1.01231 0.0
C103 C 0.5275 0.90391 0.04374 0.0
H104 H 0.49633 0.84087 0.91742 0.0
Co105 Co 0.56924 0.84685 1.02123 0.0
C106 C 0.51691 0.80592 0.15854 0.0
O107 O 0.49383 0.82533 0.16111 0.0
N108 N 0.6075 0.82393 1.02997 0.0
C109 C 0.65215 0.80457 0.07869 0.0
C110 C 0.63232 0.82886 0.08534 0.0
C111 C 0.61344 0.79649 0.98998 0.0
N112 N 0.6402 0.78419 1.01867 0.0
O113 O 0.53372 0.79937 0.95849 0.0
H114 H 0.63576 0.84873 0.12851 0.0
H115 H 0.59736 0.78398 0.94199 0.0
O116 O 0.54269 0.81359 0.10803 0.0
C117 C 0.55086 0.81836 0.90123 0.0
O118 O 0.57683 0.86065 0.90228 0.0
N119 N 0.61022 0.89701 0.06624 0.0
C120 C 0.67239 0.98341 0.08284 0.0
C121 C 0.63972 0.9618 0.13224 0.0
C122 C 0.60938 0.91747 0.12408 0.0
C123 C 0.64468 0.91677 1.02269 0.0
C124 C 0.67725 0.95921 1.032 0.0
H125 H 0.58278 0.90142 0.15965 0.0
H126 H 0.6457 0.90026 0.97753 0.0
H127 H 0.53961 0.91501 0.094 0.0
H128 H 0.47904 0.90233 0.90621 0.0
H129 H 0.6735 0.80175 0.11529 0.0
H130 H 0.6358 0.97957 0.17336 0.0
H131 H 0.70279 0.9746 0.99422 0.0
C132 C 0.62172 0.46907 1.03203 0.0
C133 C 0.57965 0.45915 1.01854 0.0
N134 N 0.57097 0.48612 0.05413 0.0
N135 N 0.64122 0.50458 0.07143 0.0
C136 C 0.60831 0.51169 0.08835 0.0
H137 H 0.63786 0.45328 1.00986 0.0
Co138 Co 0.70214 0.54368 0.08398 0.0
C139 C 0.69334 0.4952 0.20252 0.0
O140 O 0.66703 0.50963 0.21853 0.0
N141 N 0.76213 0.58287 0.09828 0.0
C142 C 0.82641 0.643 0.11112 0.0
C143 C 0.78326 0.62679 0.09684 0.0
C144 C 0.79355 0.57348 0.11532 0.0
N145 N 0.83282 0.60951 0.12318 0.0
O146 O 0.71722 0.52297 0.99695 0.0
H147 H 0.76884 0.64665 0.08692 0.0
H148 H 0.78801 0.54093 0.12193 0.0
O149 O 0.70747 0.50073 0.14106 0.0
C150 C 0.70214 0.51593 0.93545 0.0
O151 O 0.66838 0.52033 0.92097 0.0
N152 N 0.69739 0.5882 0.03744 0.0
C153 C 0.68795 0.65793 0.99487 0.0
C154 C 0.67741 0.64184 0.06134 0.0
C155 C 0.68291 0.60741 0.08171 0.0
C156 C 0.7122 0.6066 0.9745 0.0
C157 C 0.70647 0.64077 0.95133 0.0
H158 H 0.67655 0.59645 0.13409 0.0
H159 H 0.7301 0.59669 0.94263 0.0
H160 H 0.61194 0.53684 0.12237 0.0
H161 H 0.55785 0.43515 0.98266 0.0
H162 H 0.85122 0.67689 0.11359 0.0
H163 H 0.66484 0.65575 0.09724 0.0
H164 H 0.71717 0.65424 0.90078 0.0
C165 C 0.13874 0.63112 1.02378 0.0
C166 C 0.10828 0.58795 1.01364 0.0
N167 N 0.06843 0.58384 1.01207 0.0
N168 N 0.11824 0.65422 1.02813 0.0
C169 C 0.07557 0.62441 1.01995 0.0
H170 H 0.17355 0.64476 1.02771 0.0
Co171 Co 0.14198 0.7145 0.03946 0.0
C172 C 0.18569 0.73692 0.17385 0.0
O173 O 0.16313 0.75622 0.18524 0.0
N174 N 0.16568 0.77562 0.04893 0.0
C175 C 0.17728 0.84227 0.06871 0.0
C176 C 0.1464 0.8 0.05598 0.0
C177 C 0.20862 0.80477 0.05548 0.0
N178 N 0.21626 0.845 0.06897 0.0
O179 O 0.18701 0.72534 0.97324 0.0
H180 H 0.11215 0.78877 0.05401 0.0
H181 H 0.2338 0.79655 0.05152 0.0
O182 O 0.18003 0.71621 0.11783 0.0
C183 C 0.17419 0.72615 0.91254 0.0
O184 O 0.13488 0.72037 0.90461 0.0
N185 N 0.09455 0.70208 0.09632 0.0
C186 C 0.00928 0.66403 0.14304 0.0
C187 C 0.04007 0.6583 0.17941 0.0
C188 C 0.08274 0.67729 0.15452 0.0
C189 C 0.06451 0.70753 0.06104 0.0
C190 C 0.02215 0.68985 0.08435 0.0
H191 H 0.10473 0.6686 0.17828 0.0
H192 H 0.07245 0.72228 1.01091 0.0
H193 H 0.0497 0.63191 1.01969 0.0
H194 H 0.11478 0.56148 1.00912 0.0
H195 H 0.17159 0.86891 0.07808 0.0
H196 H 0.03049 0.63706 0.22355 0.0
H197 H -0.00134 0.69345 0.05377 0.0
C198 C 0.85753 0.48932 0.66642 0.0
C199 C 0.8918 0.48271 0.67921 0.0
N200 N 0.91441 0.48986 0.62126 0.0
N201 N 0.85894 0.50235 0.60118 0.0
C202 C 0.89332 0.50075 0.57442 0.0
H203 H 0.83393 0.48578 0.70379 0.0
Co204 Co 0.82671 0.52801 0.56585 0.0
C205 C 0.78747 0.4677 0.42851 0.0
O206 O 0.79384 0.43563 0.41232 0.0
N207 N 0.79413 0.5515 0.53154 0.0
C208 C 0.73468 0.54925 0.49141 0.0
C209 C 0.75262 0.52508 0.51185 0.0
C210 C 0.80036 0.592 0.52481 0.0
N211 N 0.76445 0.5912 0.4999 0.0
O212 O 0.77869 0.4926 0.63023 0.0
H213 H 0.73571 0.49008 0.515 0.0
H214 H 0.82911 0.62092 0.54217 0.0
O215 O 0.80521 0.48771 0.48482 0.0
C216 C 0.7825 0.51934 0.67762 0.0
O217 O 0.81011 0.56069 0.66728 0.0
N218 N 0.87671 0.56854 0.5187 0.0
C219 C 0.96093 0.63572 0.49046 0.0
C220 C 0.93639 0.6051 0.44034 0.0
C221 C 0.89541 0.5698 0.4573 0.0
C222 C 0.89967 0.59879 0.56659 0.0
C223 C 0.94202 0.63128 0.55468 0.0
H224 H 0.8793 0.54355 0.42159 0.0
H225 H 0.8857 0.59611 0.61631 0.0
H226 H 0.90451 0.50975 0.52264 0.0
H227 H 0.90015 0.47433 0.72791 0.0
H228 H 0.70104 0.53699 0.4772 0.0
H229 H 0.94928 0.60745 0.38966 0.0
H230 H 0.95979 0.65326 0.59571 0.0
C231 C 0.34089 0.88548 0.63308 0.0
C232 C 0.38322 0.91853 0.62904 0.0
N233 N 0.39755 0.92171 0.56472 0.0
N234 N 0.32731 0.86696 0.57167 0.0
C235 C 0.36312 0.88909 0.53115 0.0
H236 H 0.3197 0.87958 0.67601 0.0
Co237 Co 0.26721 0.84227 0.55028 0.0
C238 C 0.2559 0.81532 0.40475 0.0
O239 O 0.23289 0.83438 0.39519 0.0
N240 N 0.20668 0.82028 0.52884 0.0
C241 C 0.14682 0.81926 0.49044 0.0
C242 C 0.18928 0.84488 0.50806 0.0
C243 C 0.17258 0.77914 0.52465 0.0
N244 N 0.13589 0.77798 0.50203 0.0
O245 O 0.25343 0.78882 0.59967 0.0
H246 H 0.20593 0.87961 0.50265 0.0
H247 H 0.17463 0.7506 0.53652 0.0
O248 O 0.27419 0.81814 0.46261 0.0
C249 C 0.24047 0.79098 0.6596 0.0
O250 O 0.23528 0.824 0.67372 0.0
N251 N 0.28091 0.89559 0.51625 0.0
C252 C 0.30567 0.98201 0.51222 0.0
C253 C 0.30964 0.96199 0.45371 0.0
C254 C 0.29724 0.91803 0.45695 0.0
C255 C 0.27631 0.91507 0.57244 0.0
C256 C 0.28803 0.95813 0.57139 0.0
H257 H 0.30335 0.90329 0.41398 0.0
H258 H 0.26376 0.89678 0.61902 0.0
H259 H 0.36263 0.88364 0.47701 0.0
H260 H 0.40128 0.94084 0.66952 0.0
H261 H 0.12513 0.83011 0.47167 0.0
H262 H 0.32405 0.98056 0.40763 0.0
H263 H 0.28494 0.97311 0.61717 0.0
C264 C 0.52635 0.37571 0.55092 0.0
C265 C 0.53967 0.41892 0.5616 0.0
N266 N 0.50409 0.42305 0.56825 0.0
N267 N 0.48258 0.35254 0.55169 0.0
C268 C 0.47029 0.38212 0.56487 0.0
H269 H 0.54717 0.36238 0.54054 0.0
Co270 Co 0.44467 0.29347 0.53226 0.0
C271 C 0.47415 0.29002 0.38447 0.0
O272 O 0.44446 0.29725 0.35799 0.0
N273 N 0.40687 0.23478 0.51178 0.0
C274 C 0.36473 0.17649 0.44995 0.0
C275 C 0.38517 0.22044 0.4521 0.0
C276 C 0.39742 0.19816 0.54631 0.0
N277 N 0.37263 0.16261 0.50889 0.0
O278 O 0.47774 0.27723 0.59773 0.0
H279 H 0.38308 0.24024 0.41235 0.0
H280 H 0.40882 0.19723 0.59699 0.0
O281 O 0.48055 0.29329 0.44979 0.0
C282 C 0.46449 0.27508 0.65956 0.0
O283 O 0.43305 0.28374 0.66915 0.0
N284 N 0.4084 0.30914 0.4822 0.0
C285 C 0.35066 0.3398 0.46102 0.0
C286 C 0.39118 0.35974 0.42795 0.0
C287 C 0.41981 0.34372 0.43911 0.0
C288 C 0.36852 0.28935 0.51287 0.0
C289 C 0.33889 0.30315 0.50125 0.0
H290 H 0.45267 0.36205 0.41969 0.0
H291 H 0.36066 0.26462 0.55131 0.0
H292 H 0.43678 0.37404 0.5684 0.0
H293 H 0.57286 0.4456 0.56028 0.0
H294 H 0.34515 0.15601 0.40863 0.0
H295 H 0.4018 0.38912 0.3983 0.0
H296 H 0.30836 0.28768 0.52888 0.0
C297 C 0.1457 0.51058 0.58647 0.0
C298 C 0.11754 0.52549 0.60117 0.0
N299 N 0.07662 0.49291 0.59114 0.0
N300 N 0.12272 0.46838 0.56873 0.0
C301 C 0.08072 0.459 0.57162 0.0
H302 H 0.18069 0.52911 0.59123 0.0
Co303 Co 0.14395 0.42926 0.55811 0.0
C304 C 0.18618 0.47881 0.41701 0.0
O305 O 0.18036 0.51228 0.41068 0.0
N306 N 0.16561 0.39104 0.54812 0.0
C307 C 0.17661 0.33476 0.54602 0.0
C308 C 0.14825 0.34859 0.56454 0.0
C309 C 0.20494 0.40232 0.52119 0.0
N310 N 0.21193 0.36863 0.51844 0.0
O311 O 0.19545 0.46733 0.61015 0.0
H312 H 0.11752 0.3287 0.58967 0.0
H313 H 0.2285 0.43486 0.5049 0.0
O314 O 0.17148 0.45479 0.4701 0.0
C315 C 0.18746 0.45647 0.67302 0.0
O316 O 0.14849 0.42464 0.68913 0.0
N317 N 0.0915 0.38972 0.51571 0.0
C318 C 0.00417 0.33481 0.48473 0.0
C319 C 0.03186 0.3659 0.43709 0.0
C320 C 0.07574 0.39355 0.45388 0.0
C321 C 0.06467 0.35941 0.56188 0.0
C322 C 0.02117 0.33127 0.54711 0.0
H323 H 0.09599 0.41949 0.41911 0.0
H324 H 0.07646 0.35924 0.61264 0.0
H325 H 0.05294 0.42744 0.56271 0.0
H326 H 0.12637 0.55758 0.61866 0.0
H327 H 0.17238 0.30279 0.55421 0.0
H328 H 0.01924 0.37005 0.38906 0.0
H329 H 0.00033 0.30838 0.58564 0.0
C330 C 0.61019 0.14884 0.53129 0.0
C331 C 0.56585 0.11988 0.53605 0.0
N332 N 0.55896 0.07977 0.52456 0.0
N333 N 0.6314 0.12707 0.51782 0.0
C334 C 0.59863 0.08512 0.51267 0.0
H335 H 0.62601 0.18329 0.54059 0.0
Co336 Co 0.69324 0.14779 0.5196 0.0
C337 C 0.72761 0.19037 0.38219 0.0
O338 O 0.75089 0.17114 0.38073 0.0
N339 N 0.75385 0.16706 0.52263 0.0
C340 C 0.81804 0.17018 0.5306 0.0
C341 C 0.7739 0.14403 0.53684 0.0
C342 C 0.78717 0.20759 0.50979 0.0
N343 N 0.82628 0.20999 0.51261 0.0
O344 O 0.70455 0.1956 0.58017 0.0
H345 H 0.75821 0.1103 0.55117 0.0
H346 H 0.78288 0.23468 0.49733 0.0
O347 O 0.70215 0.18368 0.43324 0.0
C348 C 0.69152 0.18298 0.64148 0.0
O349 O 0.66235 0.14202 0.65174 0.0
N350 N 0.68291 0.09842 0.47371 0.0
C351 C 0.66186 0.01407 0.44693 0.0
C352 C 0.66625 0.0422 0.3931 0.0
C353 C 0.67568 0.08448 0.4079 0.0
C354 C 0.67781 0.07082 0.52585 0.0
C355 C 0.66682 0.02853 0.51378 0.0
H356 H 0.67644 0.10512 0.36704 0.0
H357 H 0.68137 0.08189 0.57781 0.0
H358 H 0.60279 0.05777 0.50302 0.0
H359 H 0.54087 0.12749 0.54915 0.0
H360 H 0.8423 0.16053 0.53711 0.0
H361 H 0.66208 0.03147 0.34081 0.0
H362 H 0.66309 0.00742 0.55645 0.0
C363 C 0.51916 0.64565 0.62619 0.0
C364 C 0.50626 0.60267 0.63505 0.0
N365 N 0.5052 0.58534 0.57413 0.0
N366 N 0.52713 0.65683 0.55966 0.0
C367 C 0.51657 0.6186 0.52892 0.0
H368 H 0.52645 0.66774 0.66767 0.0
Co369 Co 0.56595 0.71567 0.53028 0.0
C370 C 0.51152 0.69473 0.38958 0.0
O371 O 0.48731 0.65244 0.38457 0.0
N372 N 0.60496 0.77321 0.49945 0.0
C373 C 0.65745 0.82881 0.44111 0.0
C374 C 0.64246 0.78744 0.46371 0.0
C375 C 0.59802 0.80724 0.49665 0.0
N376 N 0.62976 0.84133 0.46241 0.0
O377 O 0.53175 0.73613 0.58131 0.0
H378 H 0.65798 0.76908 0.45112 0.0
H379 H 0.57004 0.80714 0.51827 0.0
O380 O 0.53612 0.71071 0.44191 0.0
C381 C 0.55214 0.74823 0.63846 0.0
O382 O 0.58655 0.74417 0.64654 0.0
N383 N 0.60299 0.69793 0.49593 0.0
C384 C 0.66774 0.67662 0.4853 0.0
C385 C 0.6368 0.66561 0.43282 0.0
C386 C 0.60446 0.67726 0.43876 0.0
C387 C 0.63395 0.70975 0.54518 0.0
C388 C 0.66778 0.70165 0.53906 0.0
H389 H 0.57971 0.66773 0.40005 0.0
H390 H 0.63322 0.72682 0.58931 0.0
H391 H 0.52144 0.61604 0.47531 0.0
H392 H 0.50144 0.5862 0.68359 0.0
H393 H 0.68676 0.84858 0.41193 0.0
H394 H 0.63627 0.64638 0.39012 0.0
H395 H 0.69167 0.71149 0.57949 0.0
C396 C 0.47541 0.00518 0.96824 0.0
C397 C 0.5069 0.04262 1.00273 0.0
C398 C 0.54071 0.00088 0.04344 0.0
C399 C 0.50647 0.96203 1.01413 0.0
N400 N 0.43211 0.92716 0.9751 0.0
N401 N 0.55865 0.06923 0.09516 0.0
C402 C 0.47086 0.9642 0.98493 0.0
C403 C 0.53623 0.03843 0.04728 0.0
N404 N 0.45106 0.00861 0.91739 0.0
N405 N 0.57862 0.00373 0.06413 0.0
H406 H 0.55339 0.09504 0.10371 0.0
H407 H 0.57789 0.06577 0.13213 0.0
H408 H 0.58582 0.9794 0.05653 0.0
H409 H 0.60518 0.03261 0.08078 0.0
H410 H 0.43003 0.98227 0.88752 0.0
H411 H 0.45556 0.0384 0.90043 0.0
H412 H 0.40469 0.92726 0.95637 0.0
H413 H 0.42627 0.89715 0.99357 0.0
C414 C 0.5362 0.53257 0.04898 0.0
C415 C 0.53241 0.49077 0.04915 0.0
C416 C 0.45463 0.45977 1.02468 0.0
C417 C 0.45743 0.50016 0.03821 0.0
N418 N 0.5009 0.57395 0.07484 0.0
N419 N 0.48404 0.41321 0.05162 0.0
C420 C 0.49825 0.53622 0.05454 0.0
C421 C 0.49037 0.45384 0.04121 0.0
N422 N 0.57534 0.56866 0.0369 0.0
N423 N 0.41874 0.42778 0.9932 0.0
H424 H 0.50754 0.40772 0.07391 0.0
H425 H 0.45405 0.38521 0.04546 0.0
H426 H 0.39398 0.43268 0.97474 0.0
H427 H 0.41638 0.39883 0.9775 0.0
H428 H 0.57969 0.59978 0.03641 0.0
H429 H 0.60145 0.56673 1.01717 0.0
H430 H 0.52958 0.60017 0.09293 0.0
H431 H 0.47352 0.57732 0.07978 0.0
C432 C 0.01694 0.50894 0.0523 0.0
C433 C 0.02649 0.54425 1.00831 0.0
C434 C 0.95173 0.50319 0.96495 0.0
C435 C 0.94546 0.46479 0.99814 0.0
N436 N 0.98074 0.43159 0.05988 0.0
N437 N 0.00423 0.57109 0.91215 0.0
C438 C 0.98016 0.46769 0.03882 0.0
C439 C 0.99415 0.54042 0.96167 0.0
N440 N 0.04233 0.51466 0.10794 0.0
N441 N 0.91698 0.5045 0.93789 0.0
H442 H 0.03563 0.59713 0.90516 0.0
H443 H 0.98258 0.56781 0.87354 0.0
H444 H 0.88516 0.47899 0.94409 0.0
H445 H 0.91934 0.53263 0.91712 0.0
H446 H 0.03451 0.49027 0.14423 0.0
H447 H 0.06786 0.54497 0.12192 0.0
H448 H 0.00807 0.43329 0.08251 0.0
H449 H 0.9574 0.40065 0.04604 0.0
C450 C 0.0022 0.46001 0.6405 0.0
C451 C 0.0363 0.4931 0.60109 0.0
C452 C 0.99223 0.52781 0.58609 0.0
C453 C 0.95551 0.49081 0.61413 0.0
N454 N 0.92442 0.41817 0.65948 0.0
N455 N 0.05947 0.55388 0.52428 0.0
C456 C 0.96018 0.45582 0.63901 0.0
C457 C 0.03014 0.52578 0.57046 0.0
N458 N 0.01038 0.43381 0.68157 0.0
N459 N 0.99211 0.5658 0.57841 0.0
H460 H 0.0859 0.55148 0.50726 0.0
H461 H 0.05461 0.57634 0.49735 0.0
H462 H 0.96644 0.56958 0.59505 0.0
H463 H 0.01975 0.59476 0.56443 0.0
H464 H 0.98764 0.41143 0.71561 0.0
H465 H 0.04148 0.43812 0.6876 0.0
H466 H 0.92566 0.39076 0.67486 0.0
H467 H 0.89288 0.41268 0.65384 0.0
C468 C 0.5143 0.00798 0.58097 0.0
C469 C 0.51867 0.03851 0.53026 0.0
C470 C 0.44447 0.98747 0.49019 0.0
C471 C 0.44001 0.95673 0.54151 0.0
N472 N 0.47622 0.93292 0.61903 0.0
N473 N 0.49239 0.05374 0.42714 0.0
C474 C 0.47698 0.96564 0.58127 0.0
C475 C 0.48499 0.02712 0.48206 0.0
N476 N 0.54486 0.02022 0.63113 0.0
N477 N 0.40996 0.97982 0.45039 0.0
H478 H 0.52164 0.08269 0.4201 0.0
H479 H 0.47133 0.04568 0.38586 0.0
H480 H 0.38153 0.9503 0.4497 0.0
H481 H 0.40893 0.00329 0.41975 0.0
H482 H 0.54153 0.00081 0.67324 0.0
H483 H 0.57153 0.0515 0.6342 0.0
H484 H 0.50324 0.93586 0.64483 0.0
H485 H 0.4497 0.9014 0.6181 0.0
C486 C 0.4742 0.46908 0.6107 0.0
C487 C 0.50187 0.46278 0.56599 0.0
C488 C 0.53228 0.53779 0.52611 0.0
C489 C 0.50149 0.54292 0.56502 0.0
N490 N 0.43456 0.50722 0.62861 0.0
N491 N 0.54454 0.48725 0.46283 0.0
C492 C 0.46958 0.50642 0.60221 0.0
C493 C 0.52688 0.49586 0.51781 0.0
N494 N 0.45408 0.44087 0.66339 0.0
N495 N 0.56879 0.57287 0.50169 0.0
H496 H 0.53794 0.45604 0.45133 0.0
H497 H 0.5607 0.51001 0.42423 0.0
H498 H 0.57725 0.6041 0.51538 0.0
H499 H 0.59353 0.57048 0.47737 0.0
H500 H 0.43625 0.44598 0.70042 0.0
H501 H 0.45922 0.41511 0.67425 0.0
H502 H 0.40892 0.48057 0.65275 0.0
H503 H 0.42908 0.53299 0.61952 0.0
C504 C 0.29975 0.94372 0.1612 0.0
C505 C 0.32815 0.96714 0.10664 0.0
C506 C 0.28608 0.90609 1.02961 0.0
C507 C 0.25713 0.88332 0.08342 0.0
N508 N 0.24104 0.87456 0.20285 0.0
N509 N 0.3555 0.96674 0.99496 0.0
C510 C 0.26575 0.90028 0.15025 0.0
C511 C 0.32372 0.94668 0.04292 0.0
N512 N 0.30371 0.96375 0.2219 0.0
N513 N 0.27609 0.88993 0.96513 0.0
H514 H 0.38409 0.99557 1.00483 0.0
H515 H 0.35542 0.95335 0.94816 0.0
H516 H 0.24861 0.86027 0.95406 0.0
H517 H 0.29315 0.90687 0.92187 0.0
H518 H 0.28126 0.95016 0.26135 0.0
H519 H 0.32869 0.99517 0.23177 0.0
H520 H 0.24747 0.88316 0.25384 0.0
H521 H 0.21611 0.84274 0.19542 0.0
C522 C 0.3961 0.28672 0.11704 0.0
C523 C 0.36722 0.24457 0.09303 0.0
C524 C 0.30836 0.26083 0.08454 0.0
C525 C 0.33777 0.30374 0.10613 0.0
N526 N 0.40689 0.35593 0.15468 0.0
N527 N 0.29801 0.19095 0.04971 0.0
C528 C 0.38087 0.31625 0.12614 0.0
C529 C 0.32381 0.23142 0.07572 0.0
N530 N 0.43867 0.29877 0.12804 0.0
N531 N 0.26545 0.24819 0.07505 0.0
H532 H 0.30904 0.16902 0.04355 0.0
H533 H 0.26686 0.17974 1.03065 0.0
H534 H 0.25299 0.26872 0.08397 0.0
H535 H 0.2414 0.21682 0.06327 0.0
H536 H 0.46296 0.3303 0.1384 0.0
H537 H 0.45054 0.27756 0.12166 0.0
H538 H 0.43624 0.36467 0.1788 0.0
H539 H 0.39861 0.38007 0.15705 0.0
C540 C 0.03288 0.30875 1.02951 0.0
C541 C 0.02402 0.33693 0.06757 0.0
C542 C 0.10226 0.38548 0.08582 0.0
C543 C 0.1109 0.35815 0.04371 0.0
N544 N 0.08471 0.30216 0.95941 0.0
N545 N 0.04888 0.39659 0.14525 0.0
C546 C 0.07616 0.32198 1.0114 0.0
C547 C 0.05831 0.37393 0.09928 0.0
N548 N -0.00038 0.26869 1.01196 0.0
N549 N 0.13558 0.42318 0.1111 0.0
H550 H 0.01735 0.38902 0.157 0.0
H551 H 0.07175 0.42054 0.17672 0.0
H552 H 0.16798 0.43147 0.11016 0.0
H553 H 0.13155 0.44776 0.13151 0.0
H554 H 0.00454 0.24508 0.9897 0.0
H555 H 0.96748 0.25745 1.02662 0.0
H556 H 0.06056 0.27813 0.92945 0.0
H557 H 0.11606 0.3135 0.94074 0.0
C558 C 0.71875 0.09608 1.00426 0.0
C559 C 0.75515 0.11988 0.04681 0.0
C560 C 0.73172 0.05655 0.12215 0.0
C561 C 0.69747 0.0315 0.07606 0.0
N562 N 0.65928 0.02645 0.97069 0.0
N563 N 0.79052 0.12779 0.15431 0.0
C564 C 0.69075 0.05121 1.01705 0.0
C565 C 0.75982 0.10151 0.10835 0.0
N566 N 0.71062 0.11655 0.95192 0.0
N567 N 0.73922 0.03673 0.17625 0.0
H568 H 0.81094 0.16087 0.14545 0.0
H569 H 0.79351 0.11808 0.20316 0.0
H570 H 0.7193 0.00397 0.18805 0.0
H571 H 0.76644 0.05184 0.20751 0.0
H572 H 0.68176 0.10282 0.92432 0.0
H573 H 0.73114 0.1489 0.93926 0.0
H574 H 0.65708 0.03714 0.92217 0.0
H575 H 0.63633 0.99395 0.97838 0.0
C576 C 0.62239 0.7115 0.97591 0.0
C577 C 0.65352 0.7549 0.99272 0.0
C578 C 0.71161 0.73701 0.98822 0.0
C579 C 0.68011 0.69352 0.974 0.0
N580 N 0.6105 0.64458 0.92557 0.0
N581 N 0.72829 0.81185 0.99071 0.0
C582 C 0.63718 0.68272 0.95745 0.0
C583 C 0.69848 0.76862 0.99059 0.0
N584 N 0.57896 0.69645 0.98356 0.0
N585 N 0.7534 0.74756 1.00248 0.0
H586 H 0.71902 0.8354 0.99007 0.0
H587 H 0.76154 0.82413 0.98435 0.0
H588 H 0.7641 0.72524 0.99842 0.0
H589 H 0.77668 0.77771 1.02096 0.0
H590 H 0.5555 0.66387 0.97815 0.0
H591 H 0.56653 0.7153 1.00207 0.0
H592 H 0.57969 0.63641 0.90762 0.0
H593 H 0.6212 0.62325 0.9118 0.0
C594 C 0.89755 0.63958 0.19745 0.0
C595 C 0.87386 0.61314 0.14153 0.0
C596 C 0.93586 0.60425 0.11383 0.0
C597 C 0.96212 0.63863 0.15807 0.0
N598 N 0.96859 0.68764 0.24637 0.0
N599 N 0.87207 0.57263 0.04244 0.0
C600 C 0.94298 0.65533 0.20235 0.0
C601 C 0.89297 0.59506 0.09953 0.0
N602 N 0.87637 0.64965 0.24523 0.0
N603 N 0.95256 0.5813 0.08419 0.0
H604 H 0.8415 0.56692 1.0278 0.0
H605 H 0.88679 0.56305 1.00616 0.0
H606 H 0.9841 0.5877 0.09419 0.0
H607 H 0.93351 0.55314 0.05677 0.0
H608 H 0.89077 0.66579 0.2902 0.0
H609 H 0.84306 0.63816 0.2425 0.0
H610 H 0.95757 0.70479 0.27465 0.0
H611 H 0.00162 0.69831 0.25254 0.0
C612 C 0.05751 0.74403 0.52517 0.0
C613 C 0.09239 0.74166 0.49544 0.0
C614 C 0.0408 0.66941 0.45265 0.0
C615 C 0.00567 0.67353 0.47895 0.0
N616 N 0.98236 0.7239 0.51165 0.0
N617 N 0.11491 0.70892 0.41048 0.0
C618 C 0.01469 0.71406 0.50542 0.0
C619 C 0.08343 0.70639 0.45271 0.0
N620 N 0.06498 0.77369 0.57442 0.0
N621 N 0.0346 0.63052 0.43074 0.0
H622 H 0.14554 0.73662 0.40736 0.0
H623 H 0.1087 0.68598 0.37315 0.0
H624 H 0.00524 0.60161 0.43521 0.0
H625 H 0.06006 0.62632 0.41425 0.0
H626 H 0.03984 0.77434 0.60059 0.0
H627 H 0.09585 0.79387 0.59458 0.0
H628 H 0.98834 0.75436 0.52691 0.0
H629 H 0.95085 0.7033 0.49401 0.0
C630 C 0.31089 0.0899 0.52239 0.0
C631 C 0.35633 0.11802 0.52538 0.0
C632 C 0.36761 0.05615 0.53209 0.0
C633 C 0.32319 0.02884 0.51539 0.0
N634 N 0.25189 0.01872 0.49288 0.0
N635 N 0.42899 0.12886 0.5289 0.0
C636 C 0.29444 0.04535 0.51044 0.0
C637 C 0.3851 0.10149 0.53001 0.0
N638 N 0.28388 0.10637 0.53115 0.0
N639 N 0.39261 0.03877 0.55204 0.0
H640 H 0.44311 0.16238 0.52914 0.0
H641 H 0.45133 0.11826 0.52343 0.0
H642 H 0.38046 0.00546 0.55599 0.0
H643 H 0.42409 0.05726 0.57094 0.0
H644 H 0.2502 0.08728 0.53488 0.0
H645 H 0.29584 0.13912 0.54145 0.0
H646 H 0.23046 0.02989 0.48215 0.0
H647 H 0.23874 0.98564 0.48411 0.0
C648 C 0.25703 0.36084 0.43178 0.0
C649 C 0.25149 0.36981 0.49944 0.0
C650 C 0.32138 0.37723 0.53046 0.0
C651 C 0.32308 0.36023 0.46621 0.0
N652 N 0.29411 0.33723 0.3537 0.0
N653 N 0.27643 0.38537 0.61489 0.0
C654 C 0.29175 0.35322 0.41541 0.0
C655 C 0.28344 0.37824 0.54921 0.0
N656 N 0.22806 0.3596 0.38504 0.0
N657 N 0.35615 0.392 0.5734 0.0
H658 H 0.24903 0.38687 0.62948 0.0
H659 H 0.29613 0.38711 0.65553 0.0
H660 H 0.38491 0.3932 0.55908 0.0
H661 H 0.35814 0.40681 0.61968 0.0
H662 H 0.22993 0.35574 0.33287 0.0
H663 H 0.22993 0.35574 0.33287 0.0
H664 H 0.27 0.32689 0.31668 0.0
H665 H 0.32006 0.33285 0.34052 0.0
C666 C 0.92933 0.31856 0.51348 0.0
C667 C 0.95643 0.30843 0.47455 0.0
C668 C 0.89267 0.23994 0.44223 0.0
C669 C 0.86821 0.24581 0.49365 0.0
N670 N 0.8644 0.29004 0.58238 0.0
N671 N 0.96438 0.25944 0.40041 0.0
C672 C 0.88646 0.28535 0.52952 0.0
C673 C 0.93816 0.26933 0.4375 0.0
N674 N 0.94478 0.35993 0.53529 0.0
N675 N 0.87207 0.20658 0.39758 0.0
H676 H -0.00238 0.28093 0.39442 0.0
H677 H 0.95359 0.22919 0.3787 0.0
H678 H 0.83847 0.18574 0.39866 0.0
H679 H 0.88739 0.20246 0.35559 0.0
H680 H 0.92466 0.37013 0.55647 0.0
H681 H 0.97622 0.38489 0.5243 0.0
H682 H 0.87823 0.31671 0.61457 0.0
H683 H 0.83374 0.26566 0.59795 0.0
C684 C 0.68759 0.9619 0.46213 0.0
C685 C 0.65512 0.97016 0.43651 0.0
C686 C 0.60651 0.89235 0.42054 0.0
C687 C 0.63667 0.88442 0.45603 0.0
N688 N 0.70084 0.9115 0.52571 0.0
N689 N 0.5813 0.94312 0.3983 0.0
C690 C 0.67594 0.91921 0.48089 0.0
C691 C 0.61389 0.93538 0.41695 0.0
N692 N 0.72939 0.99511 0.46946 0.0
N693 N 0.5715 0.85907 0.38926 0.0
H694 H 0.58561 0.97422 0.39463 0.0
H695 H 0.5493 0.91852 0.39088 0.0
H696 H 0.56532 0.82726 0.39131 0.0
H697 H 0.55083 0.86362 0.3568 0.0
H698 H 0.75499 0.9902 0.48315 0.0
H699 H 0.73904 0.02693 0.45495 0.0
H700 H 0.72794 0.93618 0.55011 0.0
H701 H 0.69144 0.88058 0.54458 0.0
C702 C 0.73048 0.66931 0.44166 0.0
C703 C 0.69711 0.65839 0.49053 0.0
C704 C 0.72544 0.62035 0.55898 0.0
C705 C 0.75247 0.62383 0.50443 0.0
N706 N 0.78379 0.65259 0.39552 0.0
N707 N 0.65955 0.61823 0.59284 0.0
C708 C 0.75629 0.64915 0.44644 0.0
C709 C 0.69395 0.63286 0.54895 0.0
N710 N 0.73813 0.69955 0.39224 0.0
N711 N 0.72908 0.60341 0.61964 0.0
H712 H 0.6347 0.62541 0.58773 0.0
H713 H 0.65336 0.59548 0.63119 0.0
H714 H 0.75183 0.59345 0.62732 0.0
H715 H 0.71299 0.60349 0.66378 0.0
H716 H 0.7643 0.71143 0.35871 0.0
H717 H 0.72019 0.71534 0.38808 0.0
H718 H 0.78493 0.66638 0.34805 0.0
H719 H 0.80465 0.64006 0.40096 0.0
C720 C 0.48762 0.22916 0.34601 0.0
C721 C 0.49406 0.27164 0.3359 0.0
C722 C 0.5161 0.26955 0.21631 0.0
C723 C 0.50415 0.22525 0.22453 0.0
N724 N 0.47476 0.16159 0.2959 0.0
N725 N 0.51803 0.33385 0.26242 0.0
C726 C 0.48918 0.20492 0.28921 0.0
C727 C 0.50952 0.29221 0.27112 0.0
N728 N 0.48121 0.21206 0.41018 0.0
N729 N 0.53467 0.29022 0.15632 0.0
H730 H 0.5177 0.35248 0.30284 0.0
H731 H 0.52505 0.35008 0.21588 0.0
H732 H 0.53831 0.27424 0.11485 0.0
H733 H 0.54818 0.32333 0.1479 0.0
H734 H 0.48197 0.1839 0.42175 0.0
H735 H 0.48039 0.22831 0.45324 0.0
H736 H 0.45829 0.14325 0.3386 0.0
H737 H 0.47583 0.14297 0.25618 0.0
C738 C 0.19147 0.41744 0.26238 0.0
C739 C 0.23249 0.44676 0.23206 0.0
C740 C 0.24389 0.49818 0.32455 0.0
C741 C 0.20508 0.46644 0.358 0.0
N742 N 0.15226 0.3894 0.36654 0.0
N743 N 0.30213 0.51206 0.24586 0.0
C744 C 0.18216 0.42421 0.32968 0.0
C745 C 0.2599 0.48657 0.26596 0.0
N746 N 0.16009 0.38305 0.22694 0.0
N747 N 0.26652 0.5392 0.34988 0.0
H748 H 0.31606 0.50416 0.20611 0.0
H749 H 0.32477 0.53895 0.27306 0.0
H750 H 0.25947 0.54775 0.39672 0.0
H751 H 0.29133 0.56507 0.32303 0.0
H752 H 0.12827 0.36425 0.24466 0.0
H753 H 0.16344 0.37624 0.17684 0.0
H754 H 0.13842 0.35763 0.34922 0.0
H755 H 0.14584 0.39051 0.41738 0.0
C756 C 0.73014 0.22332 0.19806 0.0
C757 C 0.77298 0.25943 0.19734 0.0
C758 C 0.77007 0.26207 0.32227 0.0
C759 C 0.73311 0.2199 0.32317 0.0
N760 N 0.67288 0.16337 0.26304 0.0
N761 N 0.83199 0.31705 0.25807 0.0
C762 C 0.71112 0.20182 0.26118 0.0
C763 C 0.79201 0.28051 0.25941 0.0
N764 N 0.7082 0.2097 0.138 0.0
N765 N 0.78365 0.28427 0.38177 0.0
H766 H 0.84703 0.33225 0.21236 0.0
H767 H 0.85038 0.33143 0.30146 0.0
H768 H 0.7653 0.27213 0.42615 0.0
H769 H 0.80924 0.31604 0.38531 0.0
H770 H 0.67615 0.18465 0.1339 0.0
H771 H 0.72133 0.2269 0.09278 0.0
H772 H 0.65717 0.14533 0.22011 0.0
H773 H 0.65705 0.14962 0.30893 0.0
C774 C 0.47516 0.74129 0.23994 0.0
C775 C 0.51529 0.77727 0.21781 0.0
C776 C 0.553 0.75626 0.30308 0.0
C777 C 0.51274 0.7236 0.33091 0.0
N778 N 0.43463 0.69136 0.33203 0.0
N779 N 0.59074 0.82542 0.24501 0.0
C780 C 0.47354 0.71784 0.30089 0.0
C781 C 0.55374 0.78647 0.254 0.0
N782 N 0.43859 0.72845 0.20167 0.0
N783 N 0.5908 0.75754 0.32061 0.0
H784 H 0.59177 0.84953 0.21362 0.0
H785 H 0.61842 0.83557 0.275 0.0
H786 H 0.59175 0.73472 0.35284 0.0
H787 H 0.62042 0.7782 0.29696 0.0
H788 H 0.40947 0.69983 0.211 0.0
H789 H 0.43849 0.74419 0.1567 0.0
H790 H 0.40553 0.68916 0.31651 0.0
H791 H 0.43203 0.67506 0.37767 0.0
C792 C 0.72171 0.44156 0.35025 0.0
C793 C 0.75986 0.47742 0.37842 0.0
C794 C 0.75091 0.52478 0.29389 0.0
C795 C 0.71745 0.48822 0.26006 0.0
N796 N 0.67227 0.41093 0.25381 0.0
N797 N 0.81097 0.55405 0.37158 0.0
C798 C 0.70327 0.44633 0.28766 0.0
C799 C 0.77428 0.51919 0.34865 0.0
N800 N 0.70172 0.40317 0.38542 0.0
N801 N 0.75943 0.56544 0.27579 0.0
H802 H 0.82336 0.55312 0.41826 0.0
H803 H 0.82801 0.58334 0.34513 0.0
H804 H 0.74436 0.57178 0.23528 0.0
H805 H 0.77887 0.59276 0.30462 0.0
H806 H 0.67186 0.3769 0.37154 0.0
H807 H 0.71263 0.3993 0.43296 0.0
H808 H 0.6635 0.3792 0.26691 0.0
H809 H 0.65778 0.41355 0.20905 0.0
C810 C 0.20456 0.7205 0.2887 0.0
C811 C 0.21899 0.74323 0.22616 0.0
C812 C 0.27514 0.80686 0.28567 0.0
C813 C 0.25546 0.78721 0.34859 0.0
N814 N 0.213 0.72136 0.41227 0.0
N815 N 0.2801 0.79712 0.16418 0.0
C816 C 0.22441 0.74226 0.3508 0.0
C817 C 0.25864 0.78293 0.22449 0.0
N818 N 0.17085 0.67883 0.28785 0.0
N819 N 0.3082 0.84889 0.2846 0.0
H820 H 0.26958 0.77709 0.12165 0.0
H821 H 0.31014 0.82527 0.15864 0.0
H822 H 0.32208 0.86584 0.32937 0.0
H823 H 0.32094 0.8669 0.24006 0.0
H824 H 0.15623 0.66017 0.33109 0.0
H825 H 0.15817 0.66277 0.24199 0.0
H826 H 0.19129 0.68838 0.41838 0.0
H827 H 0.22771 0.73712 0.45746 0.0
C828 C 0.50601 0.74733 0.73903 0.0
C829 C 0.54294 0.76989 0.69585 0.0
C830 C 0.5842 0.81548 0.79139 0.0
C831 C 0.54667 0.79664 0.83389 0.0
N832 N 0.46892 0.74901 0.84207 0.0
N833 N 0.61161 0.83486 0.67713 0.0
C834 C 0.50651 0.76374 0.80606 0.0
C835 C 0.57973 0.80741 0.72088 0.0
N836 N 0.47122 0.70968 0.71715 0.0
N837 N 0.62498 0.83946 0.81843 0.0
H838 H 0.60929 0.82983 0.6249 0.0
H839 H 0.63757 0.86468 0.69207 0.0
H840 H 0.63112 0.84433 0.87038 0.0
H841 H 0.6532 0.85009 0.78974 0.0
H842 H 0.44538 0.68918 0.74869 0.0
H843 H 0.4695 0.69821 0.66792 0.0
H844 H 0.43835 0.72824 0.82164 0.0
H845 H 0.46807 0.76011 0.89056 0.0
C846 C 0.71674 0.48127 0.75806 0.0
C847 C 0.76228 0.50718 0.74779 0.0
C848 C 0.7701 0.53469 0.86539 0.0
C849 C 0.72462 0.50814 0.8765 0.0
N850 N 0.65738 0.44655 0.83927 0.0
N851 N 0.83311 0.5472 0.80105 0.0
C852 C 0.6989 0.47827 0.82463 0.0
C853 C 0.78904 0.52975 0.80475 0.0
N854 N 0.69002 0.46156 0.7039 0.0
N855 N 0.79527 0.56743 0.9092 0.0
H856 H 0.84909 0.54609 0.75757 0.0
H857 H 0.85339 0.55916 0.84342 0.0
H858 H 0.78384 0.57391 0.95351 0.0
H859 H 0.82722 0.59111 0.89826 0.0
H860 H 0.65628 0.44676 0.70673 0.0
H861 H 0.70165 0.46259 0.65495 0.0
H862 H 0.63824 0.42162 0.80584 0.0
H863 H 0.64387 0.44249 0.88768 0.0
C864 C 0.19447 0.72189 0.72522 0.0
C865 C 0.2345 0.76078 0.71718 0.0
C866 C 0.24362 0.76759 0.84134 0.0
C867 C 0.20064 0.73201 0.84966 0.0
N868 N 0.14363 0.66554 0.80231 0.0
N869 N 0.30468 0.80769 0.76421 0.0
C870 C 0.17893 0.70581 0.79222 0.0
C871 C 0.26163 0.77908 0.77453 0.0
N872 N 0.17072 0.70157 0.66887 0.0
N873 N 0.26626 0.7921 0.89577 0.0
H874 H 0.31791 0.81405 0.71529 0.0
H875 H 0.32749 0.82056 0.80327 0.0
H876 H 0.25564 0.78376 0.94568 0.0
H877 H 0.29506 0.82167 0.89114 0.0
H878 H 0.13874 0.67605 0.67042 0.0
H879 H 0.18373 0.71109 0.62011 0.0
H880 H 0.12785 0.6435 0.76336 0.0
H881 H 0.13288 0.65272 0.85103 0.0
C882 C 0.48286 0.2656 0.8492 0.0
C883 C 0.48175 0.22523 0.85311 0.0
C884 C 0.48412 0.22419 0.7265 0.0
C885 C 0.48145 0.26269 0.72253 0.0
N886 N 0.49545 0.3278 0.77969 0.0
N887 N 0.49711 0.17495 0.79652 0.0
C888 C 0.48641 0.28582 0.78401 0.0
C889 C 0.48752 0.20752 0.79183 0.0
N890 N 0.47835 0.28377 0.90717 0.0
N891 N 0.48151 0.20228 0.6685 0.0
H892 H 0.50104 0.1632 0.84335 0.0
H893 H 0.50563 0.16283 0.75499 0.0
H894 H 0.48306 0.21502 0.62008 0.0
H895 H 0.4766 0.17093 0.66832 0.0
H896 H 0.47281 0.30982 0.90716 0.0
H897 H 0.47843 0.27164 0.95556 0.0
H898 H 0.50325 0.34805 0.82158 0.0
H899 H 0.49986 0.34376 0.73301 0.0
C900 C 0.28291 0.4872 0.79335 0.0
C901 C 0.2612 0.48405 0.85558 0.0
C902 C 0.20414 0.48787 0.79011 0.0
C903 C 0.21934 0.47802 0.72975 0.0
N904 N 0.27682 0.47358 0.67204 0.0
N905 N 0.20615 0.49212 0.91363 0.0
C906 C 0.26045 0.48048 0.73029 0.0
C907 C 0.22376 0.4886 0.85419 0.0
N908 N 0.32511 0.49637 0.79526 0.0
N909 N 0.17114 0.49695 0.78537 0.0
H910 H 0.22279 0.49892 0.95967 0.0
H911 H 0.17541 0.48879 0.91729 0.0
H912 H 0.15745 0.49783 0.73865 0.0
H913 H 0.16019 0.5075 0.82592 0.0
H914 H 0.34437 0.50275 0.75213 0.0
H915 H 0.3421 0.50208 0.841 0.0
H916 H 0.30388 0.46957 0.67106 0.0
H917 H 0.2625 0.47019 0.62453 0.0
C918 C 0.74227 0.26035 0.79351 0.0
C919 C 0.7654 0.24193 0.82547 0.0
C920 C 0.74474 0.18995 0.73154 0.0
C921 C 0.71955 0.20652 0.70132 0.0
N922 N 0.68943 0.25356 0.70763 0.0
N923 N 0.78189 0.184 0.83079 0.0
C924 C 0.71693 0.24067 0.73352 0.0
C925 C 0.76463 0.20529 0.79595 0.0
N926 N 0.74605 0.29768 0.81862 0.0
N927 N 0.75052 0.15982 0.69786 0.0
H928 H 0.79665 0.19377 0.87818 0.0
H929 H 0.77767 0.15408 0.81652 0.0
H930 H 0.73445 0.14538 0.65295 0.0
H931 H 0.77367 0.15136 0.71156 0.0
H932 H 0.73431 0.31562 0.79364 0.0
H933 H 0.76325 0.31217 0.86295 0.0
H934 H 0.68211 0.27482 0.73233 0.0
H935 H 0.67179 0.24077 0.66289 0.0
loop_
_geom_bond_atom_site_label_1
_geom_bond_atom_site_label_2
_geom_bond_distance
_geom_bond_site_symmetry_2
_ccdc_geom_bond_type
C0 C1 1.351 . S
C0 N3 1.368 . S
C0 H5 0.931 . S
C1 C0 1.351 . S
C1 N2 1.373 1_556 S
C1 H29 0.930 . S
N2 C1 1.373 1_554 S
N2 C4 1.340 . S
N3 C0 1.368 . S
N3 C4 1.321 1_556 S
N3 Co6 2.135 . S
C4 N2 1.340 . S
C4 N3 1.321 1_554 S
C4 H28 0.930 . S
H5 C0 0.931 . S
Co6 N3 2.135 . S
Co6 N9 2.121 1_556 S
Co6 O14 2.055 . S
Co6 O17 2.039 1_556 S
Co6 N20 2.140 1_556 S
C7 O8 1.227 . S
C7 O17 1.265 . S
O8 C7 1.227 . S
N9 Co6 2.121 1_554 S
N9 C11 1.375 . S
N9 C12 1.313 1_554 S
C10 C11 1.338 . S
C10 N13 1.377 1_554 S
C10 H30 0.930 . S
C11 N9 1.375 . S
C11 C10 1.338 . S
C11 H15 0.931 . S
C12 N9 1.313 1_556 S
C12 N13 1.344 . S
C12 H16 0.930 . S
N13 C10 1.377 1_556 S
N13 C12 1.344 . S
O14 Co6 2.055 . S
O14 C18 1.253 . S
H15 C11 0.931 . S
H16 C12 0.930 . S
O17 Co6 2.039 1_554 S
O17 C7 1.265 . S
C18 O14 1.253 . S
C18 O19 1.227 . S
O19 C18 1.227 . S
N20 Co6 2.140 1_554 S
N20 C23 1.346 . S
N20 C24 1.345 1_554 S
C21 C22 1.387 . S
C21 C25 1.391 1_554 S
C22 C21 1.387 . S
C22 C23 1.369 . S
C22 H31 0.929 1_545 S
C23 N20 1.346 . S
C23 C22 1.369 . S
C23 H26 0.928 . S
C24 N20 1.345 1_556 S
C24 C25 1.371 . S
C24 H27 0.931 . S
C25 C21 1.391 1_556 S
C25 C24 1.371 . S
C25 H32 0.930 . S
H26 C23 0.928 . S
H27 C24 0.931 . S
H28 C4 0.930 . S
H29 C1 0.930 . S
H30 C10 0.930 . S
H31 C22 0.929 1_565 S
H32 C25 0.930 . S
C33 C34 1.351 . S
C33 N36 1.368 . S
C33 H38 0.931 . S
C34 C33 1.351 . S
C34 N35 1.373 1_556 S
C34 H62 0.930 . S
N35 C34 1.373 1_554 S
N35 C37 1.340 . S
N36 C33 1.368 . S
N36 C37 1.321 1_556 S
N36 Co39 2.135 . S
C37 N35 1.340 . S
C37 N36 1.321 1_554 S
C37 H61 0.930 . S
H38 C33 0.931 . S
Co39 N36 2.135 . S
Co39 N42 2.121 1_556 S
Co39 O47 2.055 . S
Co39 O50 2.039 1_556 S
Co39 N53 2.140 1_556 S
C40 O41 1.227 . S
C40 O50 1.265 . S
O41 C40 1.227 . S
N42 Co39 2.121 1_554 S
N42 C44 1.375 . S
N42 C45 1.313 1_554 S
C43 C44 1.338 . S
C43 N46 1.377 1_554 S
C43 H63 0.930 . S
C44 N42 1.375 . S
C44 C43 1.338 . S
C44 H48 0.931 . S
C45 N42 1.313 1_556 S
C45 N46 1.344 . S
C45 H49 0.930 . S
N46 C43 1.377 1_556 S
N46 C45 1.344 . S
O47 Co39 2.055 . S
O47 C51 1.253 . S
H48 C44 0.931 . S
H49 C45 0.930 . S
O50 Co39 2.039 1_554 S
O50 C40 1.265 . S
C51 O47 1.253 . S
C51 O52 1.227 . S
O52 C51 1.227 . S
N53 Co39 2.140 1_554 S
N53 C56 1.346 . S
N53 C57 1.345 1_554 S
C54 C55 1.387 . S
C54 C58 1.391 1_554 S
C55 C54 1.387 . S
C55 C56 1.369 . S
C55 H64 0.929 . S
C56 N53 1.346 . S
C56 C55 1.369 . S
C56 H59 0.928 . S
C57 N53 1.345 1_556 S
C57 C58 1.371 . S
C57 H60 0.931 . S
C58 C54 1.391 1_556 S
C58 C57 1.371 . S
C58 H65 0.930 . S
H59 C56 0.928 . S
H60 C57 0.931 . S
H61 C37 0.930 . S
H62 C34 0.930 . S
H63 C43 0.930 . S
H64 C55 0.929 . S
H65 C58 0.930 . S
C66 C67 1.351 . S
C66 N69 1.368 . S
C66 H71 0.931 . S
C67 C66 1.351 . S
C67 N68 1.373 1_556 S
C67 H95 0.930 . S
N68 C67 1.373 1_554 S
N68 C70 1.340 . S
N69 C66 1.368 . S
N69 C70 1.321 1_556 S
N69 Co72 2.135 . S
C70 N68 1.340 . S
C70 N69 1.321 1_554 S
C70 H94 0.930 . S
H71 C66 0.931 . S
Co72 N69 2.135 . S
Co72 N75 2.121 1_556 S
Co72 O80 2.055 . S
Co72 O83 2.039 1_556 S
Co72 N86 2.140 1_556 S
C73 O74 1.227 . S
C73 O83 1.265 . S
O74 C73 1.227 . S
N75 Co72 2.121 1_554 S
N75 C77 1.375 . S
N75 C78 1.313 1_554 S
C76 C77 1.338 . S
C76 N79 1.377 1_554 S
C76 H96 0.930 . S
C77 N75 1.375 . S
C77 C76 1.338 . S
C77 H81 0.931 . S
C78 N75 1.313 1_556 S
C78 N79 1.344 . S
C78 H82 0.930 . S
N79 C76 1.377 1_556 S
N79 C78 1.344 . S
O80 Co72 2.055 . S
O80 C84 1.253 . S
H81 C77 0.931 . S
H82 C78 0.930 . S
O83 Co72 2.039 1_554 S
O83 C73 1.265 . S
C84 O80 1.253 . S
C84 O85 1.227 . S
O85 C84 1.227 . S
N86 Co72 2.140 1_554 S
N86 C89 1.346 . S
N86 C90 1.345 1_554 S
C87 C88 1.387 . S
C87 C91 1.391 1_554 S
C88 C87 1.387 . S
C88 C89 1.369 . S
C88 H97 0.929 1_655 S
C89 N86 1.346 . S
C89 C88 1.369 . S
C89 H92 0.928 . S
C90 N86 1.345 1_556 S
C90 C91 1.371 . S
C90 H93 0.931 . S
C91 C87 1.391 1_556 S
C91 C90 1.371 . S
C91 H98 0.930 . S
H92 C89 0.928 . S
H93 C90 0.931 . S
H94 C70 0.930 . S
H95 C67 0.930 . S
H96 C76 0.930 . S
H97 C88 0.929 1_455 S
H98 C91 0.930 . S
C99 C100 1.351 . S
C99 N102 1.368 . S
C99 H104 0.931 . S
C100 C99 1.351 . S
C100 N101 1.373 1_556 S
C100 H128 0.930 . S
N101 C100 1.373 1_554 S
N101 C103 1.340 . S
N102 C99 1.368 . S
N102 C103 1.321 1_556 S
N102 Co105 2.135 . S
C103 N101 1.340 . S
C103 N102 1.321 1_554 S
C103 H127 0.930 . S
H104 C99 0.931 . S
Co105 N102 2.135 . S
Co105 N108 2.121 1_556 S
Co105 O113 2.055 . S
Co105 O116 2.039 1_556 S
Co105 N119 2.140 1_556 S
C106 O107 1.227 . S
C106 O116 1.265 . S
O107 C106 1.227 . S
N108 Co105 2.121 1_554 S
N108 C110 1.375 . S
N108 C111 1.313 1_554 S
C109 C110 1.338 . S
C109 N112 1.377 1_554 S
C109 H129 0.930 . S
C110 N108 1.375 . S
C110 C109 1.338 . S
C110 H114 0.931 . S
C111 N108 1.313 1_556 S
C111 N112 1.344 . S
C111 H115 0.930 . S
N112 C109 1.377 1_556 S
N112 C111 1.344 . S
O113 Co105 2.055 . S
O113 C117 1.253 . S
H114 C110 0.931 . S
H115 C111 0.930 . S
O116 Co105 2.039 1_554 S
O116 C106 1.265 . S
C117 O113 1.253 . S
C117 O118 1.227 . S
O118 C117 1.227 . S
N119 Co105 2.140 1_554 S
N119 C122 1.346 . S
N119 C123 1.345 1_554 S
C120 C121 1.387 . S
C120 C124 1.391 1_554 S
C121 C120 1.387 . S
C121 C122 1.369 . S
C121 H130 0.929 1_565 S
C122 N119 1.346 . S
C122 C121 1.369 . S
C122 H125 0.928 . S
C123 N119 1.345 1_556 S
C123 C124 1.371 . S
C123 H126 0.931 . S
C124 C120 1.391 1_556 S
C124 C123 1.371 . S
C124 H131 0.930 . S
H125 C122 0.928 . S
H126 C123 0.931 . S
H127 C103 0.930 . S
H128 C100 0.930 . S
H129 C109 0.930 . S
H130 C121 0.929 1_545 S
H131 C124 0.930 . S
C132 C133 1.351 . S
C132 N135 1.368 . S
C132 H137 0.931 . S
C133 C132 1.351 . S
C133 N134 1.373 1_556 S
C133 H161 0.930 . S
N134 C133 1.373 1_554 S
N134 C136 1.340 . S
N135 C132 1.368 . S
N135 C136 1.321 1_556 S
N135 Co138 2.135 . S
C136 N134 1.340 . S
C136 N135 1.321 1_554 S
C136 H160 0.930 . S
H137 C132 0.931 . S
Co138 N135 2.135 . S
Co138 N141 2.121 1_556 S
Co138 O146 2.055 . S
Co138 O149 2.039 1_556 S
Co138 N152 2.140 1_556 S
C139 O140 1.227 . S
C139 O149 1.265 . S
O140 C139 1.227 . S
N141 Co138 2.121 1_554 S
N141 C143 1.375 . S
N141 C144 1.313 1_554 S
C142 C143 1.338 . S
C142 N145 1.377 1_554 S
C142 H162 0.930 . S
C143 N141 1.375 . S
C143 C142 1.338 . S
C143 H147 0.931 . S
C144 N141 1.313 1_556 S
C144 N145 1.344 . S
C144 H148 0.930 . S
N145 C142 1.377 1_556 S
N145 C144 1.344 . S
O146 Co138 2.055 . S
O146 C150 1.253 . S
H147 C143 0.931 . S
H148 C144 0.930 . S
O149 Co138 2.039 1_554 S
O149 C139 1.265 . S
C150 O146 1.253 . S
C150 O151 1.227 . S
O151 C150 1.227 . S
N152 Co138 2.140 1_554 S
N152 C155 1.346 . S
N152 C156 1.345 1_554 S
C153 C154 1.387 . S
C153 C157 1.391 1_554 S
C154 C153 1.387 . S
C154 C155 1.369 . S
C154 H163 0.929 . S
C155 N152 1.346 . S
C155 C154 1.369 . S
C155 H158 0.928 . S
C156 N152 1.345 1_556 S
C156 C157 1.371 . S
C156 H159 0.931 . S
C157 C153 1.391 1_556 S
C157 C156 1.371 . S
C157 H164 0.930 . S
H158 C155 0.928 . S
H159 C156 0.931 . S
H160 C136 0.930 . S
H161 C133 0.930 . S
H162 C142 0.930 . S
H163 C154 0.929 . S
H164 C157 0.930 . S
C165 C166 1.351 . S
C165 N168 1.368 . S
C165 H170 0.931 . S
C166 C165 1.351 . S
C166 N167 1.373 1_556 S
C166 H194 0.930 . S
N167 C166 1.373 1_554 S
N167 C169 1.340 . S
N168 C165 1.368 . S
N168 C169 1.321 1_556 S
N168 Co171 2.135 . S
C169 N167 1.340 . S
C169 N168 1.321 1_554 S
C169 H193 0.930 . S
H170 C165 0.931 . S
Co171 N168 2.135 . S
Co171 N174 2.121 1_556 S
Co171 O179 2.055 . S
Co171 O182 2.039 1_556 S
Co171 N185 2.140 1_556 S
C172 O173 1.227 . S
C172 O182 1.265 . S
O173 C172 1.227 . S
N174 Co171 2.121 1_554 S
N174 C176 1.375 . S
N174 C177 1.313 1_554 S
C175 C176 1.338 . S
C175 N178 1.377 1_554 S
C175 H195 0.930 . S
C176 N174 1.375 . S
C176 C175 1.338 . S
C176 H180 0.931 . S
C177 N174 1.313 1_556 S
C177 N178 1.344 . S
C177 H181 0.930 . S
N178 C175 1.377 1_556 S
N178 C177 1.344 . S
O179 Co171 2.055 . S
O179 C183 1.253 . S
H180 C176 0.931 . S
H181 C177 0.930 . S
O182 Co171 2.039 1_554 S
O182 C172 1.265 . S
C183 O179 1.253 . S
C183 O184 1.227 . S
O184 C183 1.227 . S
N185 Co171 2.140 1_554 S
N185 C188 1.346 . S
N185 C189 1.345 1_554 S
C186 C187 1.387 . S
C186 C190 1.391 1_554 S
C187 C186 1.387 . S
C187 C188 1.369 . S
C187 H196 0.929 1_455 S
C188 N185 1.346 . S
C188 C187 1.369 . S
C188 H191 0.928 . S
C189 N185 1.345 1_556 S
C189 C190 1.371 . S
C189 H192 0.931 . S
C190 C186 1.391 1_556 S
C190 C189 1.371 . S
C190 H197 0.930 . S
H191 C188 0.928 . S
H192 C189 0.931 . S
H193 C169 0.930 . S
H194 C166 0.930 . S
H195 C175 0.930 . S
H196 C187 0.929 1_655 S
H197 C190 0.930 . S
C198 C199 1.351 . S
C198 N201 1.368 . S
C198 H203 0.931 . S
C199 C198 1.351 . S
C199 N200 1.373 . S
C199 H227 0.930 . S
N200 C199 1.373 . S
N200 C202 1.340 . S
N201 C198 1.368 . S
N201 C202 1.321 . S
N201 Co204 2.135 . S
C202 N200 1.340 . S
C202 N201 1.321 . S
C202 H226 0.930 . S
H203 C198 0.931 . S
Co204 N201 2.135 . S
Co204 N207 2.121 . S
Co204 O212 2.055 . S
Co204 O215 2.039 . S
Co204 N218 2.140 . S
C205 O206 1.227 . S
C205 O215 1.265 . S
O206 C205 1.227 . S
N207 Co204 2.121 . S
N207 C209 1.375 . S
N207 C210 1.313 . S
C208 C209 1.338 . S
C208 N211 1.377 . S
C208 H228 0.930 . S
C209 N207 1.375 . S
C209 C208 1.338 . S
C209 H213 0.931 . S
C210 N207 1.313 . S
C210 N211 1.344 . S
C210 H214 0.930 . S
N211 C208 1.377 . S
N211 C210 1.344 . S
O212 Co204 2.055 . S
O212 C216 1.253 . S
H213 C209 0.931 . S
H214 C210 0.930 . S
O215 Co204 2.039 . S
O215 C205 1.265 . S
C216 O212 1.253 . S
C216 O217 1.227 . S
O217 C216 1.227 . S
N218 Co204 2.140 . S
N218 C221 1.346 . S
N218 C222 1.345 . S
C219 C220 1.387 . S
C219 C223 1.391 . S
C220 C219 1.387 . S
C220 C221 1.369 . S
C220 H229 0.929 1_655 S
C221 N218 1.346 . S
C221 C220 1.369 . S
C221 H224 0.928 . S
C222 N218 1.345 . S
C222 C223 1.371 . S
C222 H225 0.931 . S
C223 C219 1.391 . S
C223 C222 1.371 . S
C223 H230 0.930 . S
H224 C221 0.928 . S
H225 C222 0.931 . S
H226 C202 0.930 . S
H227 C199 0.930 . S
H228 C208 0.930 . S
H229 C220 0.929 1_455 S
H230 C223 0.930 . S
C231 C232 1.351 . S
C231 N234 1.368 . S
C231 H236 0.931 . S
C232 C231 1.351 . S
C232 N233 1.373 . S
C232 H260 0.930 . S
N233 C232 1.373 . S
N233 C235 1.340 . S
N234 C231 1.368 . S
N234 C235 1.321 . S
N234 Co237 2.135 . S
C235 N233 1.340 . S
C235 N234 1.321 . S
C235 H259 0.930 . S
H236 C231 0.931 . S
Co237 N234 2.135 . S
Co237 N240 2.121 . S
Co237 O245 2.055 . S
Co237 O248 2.039 . S
Co237 N251 2.140 . S
C238 O239 1.227 . S
C238 O248 1.265 . S
O239 C238 1.227 . S
N240 Co237 2.121 . S
N240 C242 1.375 . S
N240 C243 1.313 . S
C241 C242 1.338 . S
C241 N244 1.377 . S
C241 H261 0.930 . S
C242 N240 1.375 . S
C242 C241 1.338 . S
C242 H246 0.931 . S
C243 N240 1.313 . S
C243 N244 1.344 . S
C243 H247 0.930 . S
N244 C241 1.377 . S
N244 C243 1.344 . S
O245 Co237 2.055 . S
O245 C249 1.253 . S
H246 C242 0.931 . S
H247 C243 0.930 . S
O248 Co237 2.039 . S
O248 C238 1.265 . S
C249 O245 1.253 . S
C249 O250 1.227 . S
O250 C249 1.227 . S
N251 Co237 2.140 . S
N251 C254 1.346 . S
N251 C255 1.345 . S
C252 C253 1.387 . S
C252 C256 1.391 . S
C253 C252 1.387 . S
C253 C254 1.369 . S
C253 H262 0.929 1_565 S
C254 N251 1.346 . S
C254 C253 1.369 . S
C254 H257 0.928 . S
C255 N251 1.345 . S
C255 C256 1.371 . S
C255 H258 0.931 . S
C256 C252 1.391 . S
C256 C255 1.371 . S
C256 H263 0.930 . S
H257 C254 0.928 . S
H258 C255 0.931 . S
H259 C235 0.930 . S
H260 C232 0.930 . S
H261 C241 0.930 . S
H262 C253 0.929 1_545 S
H263 C256 0.930 . S
C264 C265 1.351 . S
C264 N267 1.368 . S
C264 H269 0.931 . S
C265 C264 1.351 . S
C265 N266 1.373 . S
C265 H293 0.930 . S
N266 C265 1.373 . S
N266 C268 1.340 . S
N267 C264 1.368 . S
N267 C268 1.321 . S
N267 Co270 2.135 . S
C268 N266 1.340 . S
C268 N267 1.321 . S
C268 H292 0.930 . S
H269 C264 0.931 . S
Co270 N267 2.135 . S
Co270 N273 2.121 . S
Co270 O278 2.055 . S
Co270 O281 2.039 . S
Co270 N284 2.140 . S
C271 O272 1.227 . S
C271 O281 1.265 . S
O272 C271 1.227 . S
N273 Co270 2.121 . S
N273 C275 1.375 . S
N273 C276 1.313 . S
C274 C275 1.338 . S
C274 N277 1.377 . S
C274 H294 0.930 . S
C275 N273 1.375 . S
C275 C274 1.338 . S
C275 H279 0.931 . S
C276 N273 1.313 . S
C276 N277 1.344 . S
C276 H280 0.930 . S
N277 C274 1.377 . S
N277 C276 1.344 . S
O278 Co270 2.055 . S
O278 C282 1.253 . S
H279 C275 0.931 . S
H280 C276 0.930 . S
O281 Co270 2.039 . S
O281 C271 1.265 . S
C282 O278 1.253 . S
C282 O283 1.227 . S
O283 C282 1.227 . S
N284 Co270 2.140 . S
N284 C287 1.346 . S
N284 C288 1.345 . S
C285 C286 1.387 . S
C285 C289 1.391 . S
C286 C285 1.387 . S
C286 C287 1.369 . S
C286 H295 0.929 . S
C287 N284 1.346 . S
C287 C286 1.369 . S
C287 H290 0.928 . S
C288 N284 1.345 . S
C288 C289 1.371 . S
C288 H291 0.931 . S
C289 C285 1.391 . S
C289 C288 1.371 . S
C289 H296 0.930 . S
H290 C287 0.928 . S
H291 C288 0.931 . S
H292 C268 0.930 . S
H293 C265 0.930 . S
H294 C274 0.930 . S
H295 C286 0.929 . S
H296 C289 0.930 . S
C297 C298 1.351 . S
C297 N300 1.368 . S
C297 H302 0.931 . S
C298 C297 1.351 . S
C298 N299 1.373 . S
C298 H326 0.930 . S
N299 C298 1.373 . S
N299 C301 1.340 . S
N300 C297 1.368 . S
N300 C301 1.321 . S
N300 Co303 2.135 . S
C301 N299 1.340 . S
C301 N300 1.321 . S
C301 H325 0.930 . S
H302 C297 0.931 . S
Co303 N300 2.135 . S
Co303 N306 2.121 . S
Co303 O311 2.055 . S
Co303 O314 2.039 . S
Co303 N317 2.140 . S
C304 O305 1.227 . S
C304 O314 1.265 . S
O305 C304 1.227 . S
N306 Co303 2.121 . S
N306 C308 1.375 . S
N306 C309 1.313 . S
C307 C308 1.338 . S
C307 N310 1.377 . S
C307 H327 0.930 . S
C308 N306 1.375 . S
C308 C307 1.338 . S
C308 H312 0.931 . S
C309 N306 1.313 . S
C309 N310 1.344 . S
C309 H313 0.930 . S
N310 C307 1.377 . S
N310 C309 1.344 . S
O311 Co303 2.055 . S
O311 C315 1.253 . S
H312 C308 0.931 . S
H313 C309 0.930 . S
O314 Co303 2.039 . S
O314 C304 1.265 . S
C315 O311 1.253 . S
C315 O316 1.227 . S
O316 C315 1.227 . S
N317 Co303 2.140 . S
N317 C320 1.346 . S
N317 C321 1.345 . S
C318 C319 1.387 . S
C318 C322 1.391 . S
C319 C318 1.387 . S
C319 C320 1.369 . S
C319 H328 0.929 1_455 S
C320 N317 1.346 . S
C320 C319 1.369 . S
C320 H323 0.928 . S
C321 N317 1.345 . S
C321 C322 1.371 . S
C321 H324 0.931 . S
C322 C318 1.391 . S
C322 C321 1.371 . S
C322 H329 0.930 . S
H323 C320 0.928 . S
H324 C321 0.931 . S
H325 C301 0.930 . S
H326 C298 0.930 . S
H327 C307 0.930 . S
H328 C319 0.929 1_655 S
H329 C322 0.930 . S
C330 C331 1.351 . S
C330 N333 1.368 . S
C330 H335 0.931 . S
C331 C330 1.351 . S
C331 N332 1.373 . S
C331 H359 0.930 . S
N332 C331 1.373 . S
N332 C334 1.340 . S
N333 C330 1.368 . S
N333 C334 1.321 . S
N333 Co336 2.135 . S
C334 N332 1.340 . S
C334 N333 1.321 . S
C334 H358 0.930 . S
H335 C330 0.931 . S
Co336 N333 2.135 . S
Co336 N339 2.121 . S
Co336 O344 2.055 . S
Co336 O347 2.039 . S
Co336 N350 2.140 . S
C337 O338 1.227 . S
C337 O347 1.265 . S
O338 C337 1.227 . S
N339 Co336 2.121 . S
N339 C341 1.375 . S
N339 C342 1.313 . S
C340 C341 1.338 . S
C340 N343 1.377 . S
C340 H360 0.930 . S
C341 N339 1.375 . S
C341 C340 1.338 . S
C341 H345 0.931 . S
C342 N339 1.313 . S
C342 N343 1.344 . S
C342 H346 0.930 . S
N343 C340 1.377 . S
N343 C342 1.344 . S
O344 Co336 2.055 . S
O344 C348 1.253 . S
H345 C341 0.931 . S
H346 C342 0.930 . S
O347 Co336 2.039 . S
O347 C337 1.265 . S
C348 O344 1.253 . S
C348 O349 1.227 . S
O349 C348 1.227 . S
N350 Co336 2.140 . S
N350 C353 1.346 . S
N350 C354 1.345 . S
C351 C352 1.387 . S
C351 C355 1.391 . S
C352 C351 1.387 . S
C352 C353 1.369 . S
C352 H361 0.929 1_545 S
C353 N350 1.346 . S
C353 C352 1.369 . S
C353 H356 0.928 . S
C354 N350 1.345 . S
C354 C355 1.371 . S
C354 H357 0.931 . S
C355 C351 1.391 . S
C355 C354 1.371 . S
C355 H362 0.930 . S
H356 C353 0.928 . S
H357 C354 0.931 . S
H358 C334 0.930 . S
H359 C331 0.930 . S
H360 C340 0.930 . S
H361 C352 0.929 1_565 S
H362 C355 0.930 . S
C363 C364 1.351 . S
C363 N366 1.368 . S
C363 H368 0.931 . S
C364 C363 1.351 . S
C364 N365 1.373 . S
C364 H392 0.930 . S
N365 C364 1.373 . S
N365 C367 1.340 . S
N366 C363 1.368 . S
N366 C367 1.321 . S
N366 Co369 2.135 . S
C367 N365 1.340 . S
C367 N366 1.321 . S
C367 H391 0.930 . S
H368 C363 0.931 . S
Co369 N366 2.135 . S
Co369 N372 2.121 . S
Co369 O377 2.055 . S
Co369 O380 2.039 . S
Co369 N383 2.140 . S
C370 O371 1.227 . S
C370 O380 1.265 . S
O371 C370 1.227 . S
N372 Co369 2.121 . S
N372 C374 1.375 . S
N372 C375 1.313 . S
C373 C374 1.338 . S
C373 N376 1.377 . S
C373 H393 0.930 . S
C374 N372 1.375 . S
C374 C373 1.338 . S
C374 H378 0.931 . S
C375 N372 1.313 . S
C375 N376 1.344 . S
C375 H379 0.930 . S
N376 C373 1.377 . S
N376 C375 1.344 . S
O377 Co369 2.055 . S
O377 C381 1.253 . S
H378 C374 0.931 . S
H379 C375 0.930 . S
O380 Co369 2.039 . S
O380 C370 1.265 . S
C381 O377 1.253 . S
C381 O382 1.227 . S
O382 C381 1.227 . S
N383 Co369 2.140 . S
N383 C386 1.346 . S
N383 C387 1.345 . S
C384 C385 1.387 . S
C384 C388 1.391 . S
C385 C384 1.387 . S
C385 C386 1.369 . S
C385 H394 0.929 . S
C386 N383 1.346 . S
C386 C385 1.369 . S
C386 H389 0.928 . S
C387 N383 1.345 . S
C387 C388 1.371 . S
C387 H390 0.931 . S
C388 C384 1.391 . S
C388 C387 1.371 . S
C388 H395 0.930 . S
H389 C386 0.928 . S
H390 C387 0.931 . S
H391 C367 0.930 . S
H392 C364 0.930 . S
H393 C373 0.930 . S
H394 C385 0.929 . S
H395 C388 0.930 . S
C396 C397 1.363 1_556 S
C396 C402 1.379 1_545 S
C396 N404 1.356 . S
C397 C396 1.363 1_554 S
C397 C403 1.363 . S
C398 C399 1.363 . S
C398 C403 1.379 1_565 S
C398 N405 1.356 . S
C399 C398 1.363 . S
C399 C402 1.363 1_554 S
N400 C402 1.356 . S
N400 H412 0.984 . S
N400 H413 0.985 . S
N401 C403 1.356 . S
N401 H406 0.984 . S
N401 H407 0.985 . S
C402 C396 1.379 1_565 S
C402 C399 1.363 1_556 S
C402 N400 1.356 . S
C403 C397 1.363 . S
C403 C398 1.379 1_545 S
C403 N401 1.356 . S
N404 C396 1.356 . S
N404 H410 0.984 . S
N404 H411 0.984 . S
N405 C398 1.356 . S
N405 H408 0.984 . S
N405 H409 0.985 . S
H406 N401 0.984 . S
H407 N401 0.985 . S
H408 N405 0.984 . S
H409 N405 0.985 . S
H410 N404 0.984 . S
H411 N404 0.984 . S
H412 N400 0.984 . S
H413 N400 0.985 . S
C414 C415 1.363 1_556 S
C414 C420 1.379 . S
C414 N422 1.356 . S
C415 C414 1.363 1_554 S
C415 C421 1.363 . S
C416 C417 1.363 . S
C416 C421 1.379 . S
C416 N423 1.356 . S
C417 C416 1.363 . S
C417 C420 1.363 1_554 S
N418 C420 1.356 . S
N418 H430 0.984 . S
N418 H431 0.985 . S
N419 C421 1.356 . S
N419 H424 0.984 . S
N419 H425 0.985 . S
C420 C414 1.379 . S
C420 C417 1.363 1_556 S
C420 N418 1.356 . S
C421 C415 1.363 . S
C421 C416 1.379 . S
C421 N419 1.356 . S
N422 C414 1.356 . S
N422 H428 0.984 . S
N422 H429 0.984 . S
N423 C416 1.356 . S
N423 H426 0.984 . S
N423 H427 0.985 . S
H424 N419 0.984 . S
H425 N419 0.985 . S
H426 N423 0.984 . S
H427 N423 0.985 . S
H428 N422 0.984 . S
H429 N422 0.984 . S
H430 N418 0.984 . S
H431 N418 0.985 . S
C432 C433 1.363 . S
C432 C438 1.379 1_455 S
C432 N440 1.356 . S
C433 C432 1.363 . S
C433 C439 1.363 1_554 S
C434 C435 1.363 1_556 S
C434 C439 1.379 1_655 S
C434 N441 1.356 . S
C435 C434 1.363 1_554 S
C435 C438 1.363 . S
N436 C438 1.356 . S
N436 H448 0.984 . S
N436 H449 0.985 . S
N437 C439 1.356 . S
N437 H442 0.984 . S
N437 H443 0.985 . S
C438 C432 1.379 1_655 S
C438 C435 1.363 . S
C438 N436 1.356 . S
C439 C433 1.363 1_556 S
C439 C434 1.379 1_455 S
C439 N437 1.356 . S
N440 C432 1.356 . S
N440 H446 0.984 . S
N440 H447 0.984 . S
N441 C434 1.356 . S
N441 H444 0.984 . S
N441 H445 0.985 . S
H442 N437 0.984 . S
H443 N437 0.985 . S
H444 N441 0.984 . S
H445 N441 0.985 . S
H446 N440 0.984 . S
H447 N440 0.984 . S
H448 N436 0.984 . S
H449 N436 0.985 . S
C450 C451 1.363 . S
C450 C456 1.379 1_455 S
C450 N458 1.356 . S
C451 C450 1.363 . S
C451 C457 1.363 . S
C452 C453 1.363 . S
C452 C457 1.379 1_655 S
C452 N459 1.356 . S
C453 C452 1.363 . S
C453 C456 1.363 . S
N454 C456 1.356 . S
N454 H466 0.984 . S
N454 H467 0.985 . S
N455 C457 1.356 . S
N455 H460 0.984 . S
N455 H461 0.985 . S
C456 C450 1.379 1_655 S
C456 C453 1.363 . S
C456 N454 1.356 . S
C457 C451 1.363 . S
C457 C452 1.379 1_455 S
C457 N455 1.356 . S
N458 C450 1.356 . S
N458 H464 0.984 . S
N458 H465 0.984 . S
N459 C452 1.356 . S
N459 H462 0.984 . S
N459 H463 0.985 . S
H460 N455 0.984 . S
H461 N455 0.985 . S
H462 N459 0.984 . S
H463 N459 0.985 . S
H464 N458 0.984 . S
H465 N458 0.984 . S
H466 N454 0.984 . S
H467 N454 0.985 . S
C468 C469 1.363 . S
C468 C474 1.379 1_545 S
C468 N476 1.356 . S
C469 C468 1.363 . S
C469 C475 1.363 . S
C470 C471 1.363 . S
C470 C475 1.379 1_565 S
C470 N477 1.356 . S
C471 C470 1.363 . S
C471 C474 1.363 . S
N472 C474 1.356 . S
N472 H484 0.984 . S
N472 H485 0.985 . S
N473 C475 1.356 . S
N473 H478 0.984 . S
N473 H479 0.985 . S
C474 C468 1.379 1_565 S
C474 C471 1.363 . S
C474 N472 1.356 . S
C475 C469 1.363 . S
C475 C470 1.379 1_545 S
C475 N473 1.356 . S
N476 C468 1.356 . S
N476 H482 0.984 . S
N476 H483 0.984 . S
N477 C470 1.356 . S
N477 H480 0.984 . S
N477 H481 0.985 . S
H478 N473 0.984 . S
H479 N473 0.985 . S
H480 N477 0.984 . S
H481 N477 0.985 . S
H482 N476 0.984 . S
H483 N476 0.984 . S
H484 N472 0.984 . S
H485 N472 0.985 . S
C486 C487 1.363 . S
C486 C492 1.379 . S
C486 N494 1.356 . S
C487 C486 1.363 . S
C487 C493 1.363 . S
C488 C489 1.363 . S
C488 C493 1.379 . S
C488 N495 1.356 . S
C489 C488 1.363 . S
C489 C492 1.363 . S
N490 C492 1.356 . S
N490 H502 0.984 . S
N490 H503 0.985 . S
N491 C493 1.356 . S
N491 H496 0.984 . S
N491 H497 0.985 . S
C492 C486 1.379 . S
C492 C489 1.363 . S
C492 N490 1.356 . S
C493 C487 1.363 . S
C493 C488 1.379 . S
C493 N491 1.356 . S
N494 C486 1.356 . S
N494 H500 0.984 . S
N494 H501 0.984 . S
N495 C488 1.356 . S
N495 H498 0.984 . S
N495 H499 0.985 . S
H496 N491 0.984 . S
H497 N491 0.985 . S
H498 N495 0.984 . S
H499 N495 0.985 . S
H500 N494 0.984 . S
H501 N494 0.984 . S
H502 N490 0.984 . S
H503 N490 0.985 . S
C504 C505 1.363 . S
C504 C510 1.379 . S
C504 N512 1.356 . S
C505 C504 1.363 . S
C505 C511 1.363 1_554 S
C506 C507 1.363 . S
C506 C511 1.379 . S
C506 N513 1.356 . S
C507 C506 1.363 . S
C507 C510 1.363 1_556 S
N508 C510 1.356 . S
N508 H520 0.984 . S
N508 H521 0.985 . S
N509 C511 1.356 1_545 S
N509 H514 0.984 . S
N509 H515 0.985 . S
C510 C504 1.379 . S
C510 C507 1.363 1_554 S
C510 N508 1.356 . S
C511 C505 1.363 1_556 S
C511 C506 1.379 . S
C511 N509 1.356 1_565 S
N512 C504 1.356 . S
N512 H518 0.984 . S
N512 H519 0.984 1_565 S
N513 C506 1.356 . S
N513 H516 0.984 . S
N513 H517 0.985 . S
H514 N509 0.984 . S
H515 N509 0.985 . S
H516 N513 0.984 . S
H517 N513 0.985 . S
H518 N512 0.984 . S
H519 N512 0.984 1_545 S
H520 N508 0.984 . S
H521 N508 0.985 . S
C522 C523 1.363 1_554 S
C522 C528 1.379 . S
C522 N530 1.356 . S
C523 C522 1.363 1_556 S
C523 C529 1.363 . S
C524 C525 1.363 1_556 S
C524 C529 1.379 . S
C524 N531 1.356 . S
C525 C524 1.363 1_554 S
C525 C528 1.363 . S
N526 C528 1.356 . S
N526 H538 0.984 . S
N526 H539 0.985 . S
N527 C529 1.356 . S
N527 H532 0.984 . S
N527 H533 0.985 . S
C528 C522 1.379 . S
C528 C525 1.363 . S
C528 N526 1.356 . S
C529 C523 1.363 . S
C529 C524 1.379 . S
C529 N527 1.356 . S
N530 C522 1.356 . S
N530 H536 0.984 . S
N530 H537 0.984 . S
N531 C524 1.356 . S
N531 H534 0.984 . S
N531 H535 0.985 . S
H532 N527 0.984 . S
H533 N527 0.985 . S
H534 N531 0.984 . S
H535 N531 0.985 . S
H536 N530 0.984 . S
H537 N530 0.984 . S
H538 N526 0.984 . S
H539 N526 0.985 . S
C540 C541 1.363 1_556 S
C540 C546 1.379 . S
C540 N548 1.356 1_455 S
C541 C540 1.363 1_554 S
C541 C547 1.363 . S
C542 C543 1.363 1_554 S
C542 C547 1.379 . S
C542 N549 1.356 . S
C543 C542 1.363 1_556 S
C543 C546 1.363 . S
N544 C546 1.356 . S
N544 H556 0.984 . S
N544 H557 0.985 . S
N545 C547 1.356 . S
N545 H550 0.984 1_455 S
N545 H551 0.985 . S
C546 C540 1.379 . S
C546 C543 1.363 . S
C546 N544 1.356 . S
C547 C541 1.363 . S
C547 C542 1.379 . S
C547 N545 1.356 . S
N548 C540 1.356 1_655 S
N548 H554 0.984 . S
N548 H555 0.984 . S
N549 C542 1.356 . S
N549 H552 0.984 . S
N549 H553 0.985 . S
H550 N545 0.984 1_655 S
H551 N545 0.985 . S
H552 N549 0.984 . S
H553 N549 0.985 . S
H554 N548 0.984 . S
H555 N548 0.984 . S
H556 N544 0.984 . S
H557 N544 0.985 . S
C558 C559 1.363 . S
C558 C564 1.379 . S
C558 N566 1.356 . S
C559 C558 1.363 . S
C559 C565 1.363 1_556 S
C560 C561 1.363 . S
C560 C565 1.379 . S
C560 N567 1.356 . S
C561 C560 1.363 . S
C561 C564 1.363 1_554 S
N562 C564 1.356 . S
N562 H574 0.984 . S
N562 H575 0.985 1_545 S
N563 C565 1.356 . S
N563 H568 0.984 . S
N563 H569 0.985 . S
C564 C558 1.379 . S
C564 C561 1.363 1_556 S
C564 N562 1.356 . S
C565 C559 1.363 1_554 S
C565 C560 1.379 . S
C565 N563 1.356 . S
N566 C558 1.356 . S
N566 H572 0.984 . S
N566 H573 0.984 . S
N567 C560 1.356 . S
N567 H570 0.984 1_545 S
N567 H571 0.985 . S
H568 N563 0.984 . S
H569 N563 0.985 . S
H570 N567 0.984 1_565 S
H571 N567 0.985 . S
H572 N566 0.984 . S
H573 N566 0.984 . S
H574 N562 0.984 . S
H575 N562 0.985 1_565 S
C576 C577 1.363 1_554 S
C576 C582 1.379 . S
C576 N584 1.356 . S
C577 C576 1.363 1_556 S
C577 C583 1.363 . S
C578 C579 1.363 1_556 S
C578 C583 1.379 . S
C578 N585 1.356 . S
C579 C578 1.363 1_554 S
C579 C582 1.363 . S
N580 C582 1.356 . S
N580 H592 0.984 . S
N580 H593 0.985 . S
N581 C583 1.356 . S
N581 H586 0.984 . S
N581 H587 0.985 . S
C582 C576 1.379 . S
C582 C579 1.363 . S
C582 N580 1.356 . S
C583 C577 1.363 . S
C583 C578 1.379 . S
C583 N581 1.356 . S
N584 C576 1.356 . S
N584 H590 0.984 . S
N584 H591 0.984 . S
N585 C578 1.356 . S
N585 H588 0.984 . S
N585 H589 0.985 . S
H586 N581 0.984 . S
H587 N581 0.985 . S
H588 N585 0.984 . S
H589 N585 0.985 . S
H590 N584 0.984 . S
H591 N584 0.984 . S
H592 N580 0.984 . S
H593 N580 0.985 . S
C594 C595 1.363 1_554 S
C594 C600 1.379 . S
C594 N602 1.356 . S
C595 C594 1.363 1_556 S
C595 C601 1.363 . S
C596 C597 1.363 1_556 S
C596 C601 1.379 . S
C596 N603 1.356 1_655 S
C597 C596 1.363 1_554 S
C597 C600 1.363 . S
N598 C600 1.356 . S
N598 H610 0.984 . S
N598 H611 0.985 1_655 S
N599 C601 1.356 . S
N599 H604 0.984 . S
N599 H605 0.985 . S
C600 C594 1.379 . S
C600 C597 1.363 . S
C600 N598 1.356 . S
C601 C595 1.363 . S
C601 C596 1.379 . S
C601 N599 1.356 . S
N602 C594 1.356 . S
N602 H608 0.984 . S
N602 H609 0.984 . S
N603 C596 1.356 1_455 S
N603 H606 0.984 . S
N603 H607 0.985 . S
H604 N599 0.984 . S
H605 N599 0.985 . S
H606 N603 0.984 . S
H607 N603 0.985 . S
H608 N602 0.984 . S
H609 N602 0.984 . S
H610 N598 0.984 . S
H611 N598 0.985 1_455 S
C612 C613 1.363 . S
C612 C618 1.379 . S
C612 N620 1.356 . S
C613 C612 1.363 . S
C613 C619 1.363 . S
C614 C615 1.363 . S
C614 C619 1.379 . S
C614 N621 1.356 . S
C615 C614 1.363 . S
C615 C618 1.363 . S
N616 C618 1.356 1_655 S
N616 H628 0.984 . S
N616 H629 0.985 . S
N617 C619 1.356 . S
N617 H622 0.984 . S
N617 H623 0.985 . S
C618 C612 1.379 . S
C618 C615 1.363 . S
C618 N616 1.356 1_455 S
C619 C613 1.363 . S
C619 C614 1.379 . S
C619 N617 1.356 . S
N620 C612 1.356 . S
N620 H626 0.984 . S
N620 H627 0.984 . S
N621 C614 1.356 . S
N621 H624 0.984 1_455 S
N621 H625 0.985 . S
H622 N617 0.984 . S
H623 N617 0.985 . S
H624 N621 0.984 1_655 S
H625 N621 0.985 . S
H626 N620 0.984 . S
H627 N620 0.984 . S
H628 N616 0.984 . S
H629 N616 0.985 . S
C630 C631 1.363 . S
C630 C636 1.379 . S
C630 N638 1.356 . S
C631 C630 1.363 . S
C631 C637 1.363 . S
C632 C633 1.363 . S
C632 C637 1.379 . S
C632 N639 1.356 . S
C633 C632 1.363 . S
C633 C636 1.363 . S
N634 C636 1.356 . S
N634 H646 0.984 . S
N634 H647 0.985 1_545 S
N635 C637 1.356 . S
N635 H640 0.984 . S
N635 H641 0.985 . S
C636 C630 1.379 . S
C636 C633 1.363 . S
C636 N634 1.356 . S
C637 C631 1.363 . S
C637 C632 1.379 . S
C637 N635 1.356 . S
N638 C630 1.356 . S
N638 H644 0.984 . S
N638 H645 0.984 . S
N639 C632 1.356 . S
N639 H642 0.984 1_545 S
N639 H643 0.985 . S
H640 N635 0.984 . S
H641 N635 0.985 . S
H642 N639 0.984 1_565 S
H643 N639 0.985 . S
H644 N638 0.984 . S
H645 N638 0.984 . S
H646 N634 0.984 . S
H647 N634 0.985 1_565 S
C648 C649 1.363 . S
C648 C654 1.379 . S
C648 N656 1.356 . S
C649 C648 1.363 . S
C649 C655 1.363 . S
C650 C651 1.363 . S
C650 C655 1.379 . S
C650 N657 1.356 . S
C651 C650 1.363 . S
C651 C654 1.363 . S
N652 C654 1.356 . S
N652 H664 0.984 . S
N652 H665 0.985 . S
N653 C655 1.356 . S
N653 H658 0.984 . S
N653 H659 0.985 . S
C654 C648 1.379 . S
C654 C651 1.363 . S
C654 N652 1.356 . S
C655 C649 1.363 . S
C655 C650 1.379 . S
C655 N653 1.356 . S
N656 C648 1.356 . S
N656 H662 0.984 . S
N656 H663 0.984 . S
N657 C650 1.356 . S
N657 H660 0.984 . S
N657 H661 0.985 . S
H658 N653 0.984 . S
H659 N653 0.985 . S
H660 N657 0.984 . S
H661 N657 0.985 . S
H662 N656 0.984 . S
H663 N656 0.984 . S
H664 N652 0.984 . S
H665 N652 0.985 . S
C666 C667 1.363 . S
C666 C672 1.379 . S
C666 N674 1.356 1_655 S
C667 C666 1.363 . S
C667 C673 1.363 . S
C668 C669 1.363 . S
C668 C673 1.379 . S
C668 N675 1.356 . S
C669 C668 1.363 . S
C669 C672 1.363 . S
N670 C672 1.356 . S
N670 H682 0.984 . S
N670 H683 0.985 . S
N671 C673 1.356 . S
N671 H676 0.984 1_655 S
N671 H677 0.985 . S
C672 C666 1.379 . S
C672 C669 1.363 . S
C672 N670 1.356 . S
C673 C667 1.363 . S
C673 C668 1.379 . S
C673 N671 1.356 . S
N674 C666 1.356 1_455 S
N674 H680 0.984 . S
N674 H681 0.984 . S
N675 C668 1.356 . S
N675 H678 0.984 . S
N675 H679 0.985 . S
H676 N671 0.984 1_455 S
H677 N671 0.985 . S
H678 N675 0.984 . S
H679 N675 0.985 . S
H680 N674 0.984 . S
H681 N674 0.984 . S
H682 N670 0.984 . S
H683 N670 0.985 . S
C684 C685 1.363 . S
C684 C690 1.379 . S
C684 N692 1.356 1_565 S
C685 C684 1.363 . S
C685 C691 1.363 . S
C686 C687 1.363 . S
C686 C691 1.379 . S
C686 N693 1.356 . S
C687 C686 1.363 . S
C687 C690 1.363 . S
N688 C690 1.356 . S
N688 H700 0.984 . S
N688 H701 0.985 . S
N689 C691 1.356 . S
N689 H694 0.984 1_565 S
N689 H695 0.985 . S
C690 C684 1.379 . S
C690 C687 1.363 . S
C690 N688 1.356 . S
C691 C685 1.363 . S
C691 C686 1.379 . S
C691 N689 1.356 . S
N692 C684 1.356 1_545 S
N692 H698 0.984 . S
N692 H699 0.984 . S
N693 C686 1.356 . S
N693 H696 0.984 . S
N693 H697 0.985 . S
H694 N689 0.984 1_545 S
H695 N689 0.985 . S
H696 N693 0.984 . S
H697 N693 0.985 . S
H698 N692 0.984 . S
H699 N692 0.984 . S
H700 N688 0.984 . S
H701 N688 0.985 . S
C702 C703 1.363 . S
C702 C708 1.379 . S
C702 N710 1.356 . S
C703 C702 1.363 . S
C703 C709 1.363 . S
C704 C705 1.363 . S
C704 C709 1.379 . S
C704 N711 1.356 . S
C705 C704 1.363 . S
C705 C708 1.363 . S
N706 C708 1.356 . S
N706 H718 0.984 . S
N706 H719 0.985 . S
N707 C709 1.356 . S
N707 H712 0.984 . S
N707 H713 0.985 . S
C708 C702 1.379 . S
C708 C705 1.363 . S
C708 N706 1.356 . S
C709 C703 1.363 . S
C709 C704 1.379 . S
C709 N707 1.356 . S
N710 C702 1.356 . S
N710 H716 0.984 . S
N710 H717 0.984 . S
N711 C704 1.356 . S
N711 H714 0.984 . S
N711 H715 0.985 . S
H712 N707 0.984 . S
H713 N707 0.985 . S
H714 N711 0.984 . S
H715 N711 0.985 . S
H716 N710 0.984 . S
H717 N710 0.984 . S
H718 N706 0.984 . S
H719 N706 0.985 . S
C720 C721 1.363 . S
C720 C726 1.379 . S
C720 N728 1.356 . S
C721 C720 1.363 . S
C721 C727 1.363 . S
C722 C723 1.363 . S
C722 C727 1.379 . S
C722 N729 1.356 . S
C723 C722 1.363 . S
C723 C726 1.363 . S
N724 C726 1.356 . S
N724 H736 0.984 . S
N724 H737 0.985 . S
N725 C727 1.356 . S
N725 H730 0.984 . S
N725 H731 0.985 . S
C726 C720 1.379 . S
C726 C723 1.363 . S
C726 N724 1.356 . S
C727 C721 1.363 . S
C727 C722 1.379 . S
C727 N725 1.356 . S
N728 C720 1.356 . S
N728 H734 0.984 . S
N728 H735 0.984 . S
N729 C722 1.356 . S
N729 H732 0.984 . S
N729 H733 0.985 . S
H730 N725 0.984 . S
H731 N725 0.985 . S
H732 N729 0.984 . S
H733 N729 0.985 . S
H734 N728 0.984 . S
H735 N728 0.984 . S
H736 N724 0.984 . S
H737 N724 0.985 . S
C738 C739 1.363 . S
C738 C744 1.379 . S
C738 N746 1.356 . S
C739 C738 1.363 . S
C739 C745 1.363 . S
C740 C741 1.363 . S
C740 C745 1.379 . S
C740 N747 1.356 . S
C741 C740 1.363 . S
C741 C744 1.363 . S
N742 C744 1.356 . S
N742 H754 0.984 . S
N742 H755 0.985 . S
N743 C745 1.356 . S
N743 H748 0.984 . S
N743 H749 0.985 . S
C744 C738 1.379 . S
C744 C741 1.363 . S
C744 N742 1.356 . S
C745 C739 1.363 . S
C745 C740 1.379 . S
C745 N743 1.356 . S
N746 C738 1.356 . S
N746 H752 0.984 . S
N746 H753 0.984 . S
N747 C740 1.356 . S
N747 H750 0.984 . S
N747 H751 0.985 . S
H748 N743 0.984 . S
H749 N743 0.985 . S
H750 N747 0.984 . S
H751 N747 0.985 . S
H752 N746 0.984 . S
H753 N746 0.984 . S
H754 N742 0.984 . S
H755 N742 0.985 . S
C756 C757 1.363 . S
C756 C762 1.379 . S
C756 N764 1.356 . S
C757 C756 1.363 . S
C757 C763 1.363 . S
C758 C759 1.363 . S
C758 C763 1.379 . S
C758 N765 1.356 . S
C759 C758 1.363 . S
C759 C762 1.363 . S
N760 C762 1.356 . S
N760 H772 0.984 . S
N760 H773 0.985 . S
N761 C763 1.356 . S
N761 H766 0.984 . S
N761 H767 0.985 . S
C762 C756 1.379 . S
C762 C759 1.363 . S
C762 N760 1.356 . S
C763 C757 1.363 . S
C763 C758 1.379 . S
C763 N761 1.356 . S
N764 C756 1.356 . S
N764 H770 0.984 . S
N764 H771 0.984 . S
N765 C758 1.356 . S
N765 H768 0.984 . S
N765 H769 0.985 . S
H766 N761 0.984 . S
H767 N761 0.985 . S
H768 N765 0.984 . S
H769 N765 0.985 . S
H770 N764 0.984 . S
H771 N764 0.984 . S
H772 N760 0.984 . S
H773 N760 0.985 . S
C774 C775 1.363 . S
C774 C780 1.379 . S
C774 N782 1.356 . S
C775 C774 1.363 . S
C775 C781 1.363 . S
C776 C777 1.363 . S
C776 C781 1.379 . S
C776 N783 1.356 . S
C777 C776 1.363 . S
C777 C780 1.363 . S
N778 C780 1.356 . S
N778 H790 0.984 . S
N778 H791 0.985 . S
N779 C781 1.356 . S
N779 H784 0.984 . S
N779 H785 0.985 . S
C780 C774 1.379 . S
C780 C777 1.363 . S
C780 N778 1.356 . S
C781 C775 1.363 . S
C781 C776 1.379 . S
C781 N779 1.356 . S
N782 C774 1.356 . S
N782 H788 0.984 . S
N782 H789 0.984 . S
N783 C776 1.356 . S
N783 H786 0.984 . S
N783 H787 0.985 . S
H784 N779 0.984 . S
H785 N779 0.985 . S
H786 N783 0.984 . S
H787 N783 0.985 . S
H788 N782 0.984 . S
H789 N782 0.984 . S
H790 N778 0.984 . S
H791 N778 0.985 . S
C792 C793 1.363 . S
C792 C798 1.379 . S
C792 N800 1.356 . S
C793 C792 1.363 . S
C793 C799 1.363 . S
C794 C795 1.363 . S
C794 C799 1.379 . S
C794 N801 1.356 . S
C795 C794 1.363 . S
C795 C798 1.363 . S
N796 C798 1.356 . S
N796 H808 0.984 . S
N796 H809 0.985 . S
N797 C799 1.356 . S
N797 H802 0.984 . S
N797 H803 0.985 . S
C798 C792 1.379 . S
C798 C795 1.363 . S
C798 N796 1.356 . S
C799 C793 1.363 . S
C799 C794 1.379 . S
C799 N797 1.356 . S
N800 C792 1.356 . S
N800 H806 0.984 . S
N800 H807 0.984 . S
N801 C794 1.356 . S
N801 H804 0.984 . S
N801 H805 0.985 . S
H802 N797 0.984 . S
H803 N797 0.985 . S
H804 N801 0.984 . S
H805 N801 0.985 . S
H806 N800 0.984 . S
H807 N800 0.984 . S
H808 N796 0.984 . S
H809 N796 0.985 . S
C810 C811 1.363 . S
C810 C816 1.379 . S
C810 N818 1.356 . S
C811 C810 1.363 . S
C811 C817 1.363 . S
C812 C813 1.363 . S
C812 C817 1.379 . S
C812 N819 1.356 . S
C813 C812 1.363 . S
C813 C816 1.363 . S
N814 C816 1.356 . S
N814 H826 0.984 . S
N814 H827 0.985 . S
N815 C817 1.356 . S
N815 H820 0.984 . S
N815 H821 0.985 . S
C816 C810 1.379 . S
C816 C813 1.363 . S
C816 N814 1.356 . S
C817 C811 1.363 . S
C817 C812 1.379 . S
C817 N815 1.356 . S
N818 C810 1.356 . S
N818 H824 0.984 . S
N818 H825 0.984 . S
N819 C812 1.356 . S
N819 H822 0.984 . S
N819 H823 0.985 . S
H820 N815 0.984 . S
H821 N815 0.985 . S
H822 N819 0.984 . S
H823 N819 0.985 . S
H824 N818 0.984 . S
H825 N818 0.984 . S
H826 N814 0.984 . S
H827 N814 0.985 . S
C828 C829 1.363 . S
C828 C834 1.379 . S
C828 N836 1.356 . S
C829 C828 1.363 . S
C829 C835 1.363 . S
C830 C831 1.363 . S
C830 C835 1.379 . S
C830 N837 1.356 . S
C831 C830 1.363 . S
C831 C834 1.363 . S
N832 C834 1.356 . S
N832 H844 0.984 . S
N832 H845 0.985 . S
N833 C835 1.356 . S
N833 H838 0.984 . S
N833 H839 0.985 . S
C834 C828 1.379 . S
C834 C831 1.363 . S
C834 N832 1.356 . S
C835 C829 1.363 . S
C835 C830 1.379 . S
C835 N833 1.356 . S
N836 C828 1.356 . S
N836 H842 0.984 . S
N836 H843 0.984 . S
N837 C830 1.356 . S
N837 H840 0.984 . S
N837 H841 0.985 . S
H838 N833 0.984 . S
H839 N833 0.985 . S
H840 N837 0.984 . S
H841 N837 0.985 . S
H842 N836 0.984 . S
H843 N836 0.984 . S
H844 N832 0.984 . S
H845 N832 0.985 . S
C846 C847 1.363 . S
C846 C852 1.379 . S
C846 N854 1.356 . S
C847 C846 1.363 . S
C847 C853 1.363 . S
C848 C849 1.363 . S
C848 C853 1.379 . S
C848 N855 1.356 . S
C849 C848 1.363 . S
C849 C852 1.363 . S
N850 C852 1.356 . S
N850 H862 0.984 . S
N850 H863 0.985 . S
N851 C853 1.356 . S
N851 H856 0.984 . S
N851 H857 0.985 . S
C852 C846 1.379 . S
C852 C849 1.363 . S
C852 N850 1.356 . S
C853 C847 1.363 . S
C853 C848 1.379 . S
C853 N851 1.356 . S
N854 C846 1.356 . S
N854 H860 0.984 . S
N854 H861 0.984 . S
N855 C848 1.356 . S
N855 H858 0.984 . S
N855 H859 0.985 . S
H856 N851 0.984 . S
H857 N851 0.985 . S
H858 N855 0.984 . S
H859 N855 0.985 . S
H860 N854 0.984 . S
H861 N854 0.984 . S
H862 N850 0.984 . S
H863 N850 0.985 . S
C864 C865 1.363 . S
C864 C870 1.379 . S
C864 N872 1.356 . S
C865 C864 1.363 . S
C865 C871 1.363 . S
C866 C867 1.363 . S
C866 C871 1.379 . S
C866 N873 1.356 . S
C867 C866 1.363 . S
C867 C870 1.363 . S
N868 C870 1.356 . S
N868 H880 0.984 . S
N868 H881 0.985 . S
N869 C871 1.356 . S
N869 H874 0.984 . S
N869 H875 0.985 . S
C870 C864 1.379 . S
C870 C867 1.363 . S
C870 N868 1.356 . S
C871 C865 1.363 . S
C871 C866 1.379 . S
C871 N869 1.356 . S
N872 C864 1.356 . S
N872 H878 0.984 . S
N872 H879 0.984 . S
N873 C866 1.356 . S
N873 H876 0.984 . S
N873 H877 0.985 . S
H874 N869 0.984 . S
H875 N869 0.985 . S
H876 N873 0.984 . S
H877 N873 0.985 . S
H878 N872 0.984 . S
H879 N872 0.984 . S
H880 N868 0.984 . S
H881 N868 0.985 . S
C882 C883 1.363 . S
C882 C888 1.379 . S
C882 N890 1.356 . S
C883 C882 1.363 . S
C883 C889 1.363 . S
C884 C885 1.363 . S
C884 C889 1.379 . S
C884 N891 1.356 . S
C885 C884 1.363 . S
C885 C888 1.363 . S
N886 C888 1.356 . S
N886 H898 0.984 . S
N886 H899 0.985 . S
N887 C889 1.356 . S
N887 H892 0.984 . S
N887 H893 0.985 . S
C888 C882 1.379 . S
C888 C885 1.363 . S
C888 N886 1.356 . S
C889 C883 1.363 . S
C889 C884 1.379 . S
C889 N887 1.356 . S
N890 C882 1.356 . S
N890 H896 0.984 . S
N890 H897 0.984 . S
N891 C884 1.356 . S
N891 H894 0.984 . S
N891 H895 0.985 . S
H892 N887 0.984 . S
H893 N887 0.985 . S
H894 N891 0.984 . S
H895 N891 0.985 . S
H896 N890 0.984 . S
H897 N890 0.984 . S
H898 N886 0.984 . S
H899 N886 0.985 . S
C900 C901 1.363 . S
C900 C906 1.379 . S
C900 N908 1.356 . S
C901 C900 1.363 . S
C901 C907 1.363 . S
C902 C903 1.363 . S
C902 C907 1.379 . S
C902 N909 1.356 . S
C903 C902 1.363 . S
C903 C906 1.363 . S
N904 C906 1.356 . S
N904 H916 0.984 . S
N904 H917 0.985 . S
N905 C907 1.356 . S
N905 H910 0.984 . S
N905 H911 0.985 . S
C906 C900 1.379 . S
C906 C903 1.363 . S
C906 N904 1.356 . S
C907 C901 1.363 . S
C907 C902 1.379 . S
C907 N905 1.356 . S
N908 C900 1.356 . S
N908 H914 0.984 . S
N908 H915 0.984 . S
N909 C902 1.356 . S
N909 H912 0.984 . S
N909 H913 0.985 . S
H910 N905 0.984 . S
H911 N905 0.985 . S
H912 N909 0.984 . S
H913 N909 0.985 . S
H914 N908 0.984 . S
H915 N908 0.984 . S
H916 N904 0.984 . S
H917 N904 0.985 . S
C918 C919 1.363 . S
C918 C924 1.379 . S
C918 N926 1.356 . S
C919 C918 1.363 . S
C919 C925 1.363 . S
C920 C921 1.363 . S
C920 C925 1.379 . S
C920 N927 1.356 . S
C921 C920 1.363 . S
C921 C924 1.363 . S
N922 C924 1.356 . S
N922 H934 0.984 . S
N922 H935 0.985 . S
N923 C925 1.356 . S
N923 H928 0.984 . S
N923 H929 0.985 . S
C924 C918 1.379 . S
C924 C921 1.363 . S
C924 N922 1.356 . S
C925 C919 1.363 . S
C925 C920 1.379 . S
C925 N923 1.356 . S
N926 C918 1.356 . S
N926 H932 0.984 . S
N926 H933 0.984 . S
N927 C920 1.356 . S
N927 H930 0.984 . S
N927 H931 0.985 . S
H928 N923 0.984 . S
H929 N923 0.985 . S
H930 N927 0.984 . S
H931 N927 0.985 . S
H932 N926 0.984 . S
H933 N926 0.984 . S
H934 N922 0.984 . S
H935 N922 0.985 . S
C397 N2 2.078 . S
C399 N101 2.078 . S
C415 N134 2.078 . S
C417 N35 2.078 . S
C433 N167 2.078 . S
C435 N68 2.078 . S
C451 N299 2.078 . S
C453 N200 2.078 . S
C469 N332 2.078 . S
C471 N233 2.078 . S
C487 N266 2.078 . S
C489 N365 2.078 . S
C505 C21 0.667 1_565 S
C507 N178 0.689 . S
C523 N13 0.689 . S
C525 C54 0.667 . S
C541 C87 0.667 1_455 S
C543 N46 0.689 . S
C559 N79 0.689 . S
C561 C120 0.667 1_545 S
C577 N112 0.689 . S
C579 C153 0.667 . S
C595 N145 0.689 . S
C597 C186 0.667 1_655 S
C613 N244 0.689 . S
C615 C219 0.667 1_455 S
C631 N277 0.689 . S
C633 C252 0.667 1_545 S
C649 N310 0.689 . S
C651 C285 0.667 . S
C667 C318 0.667 1_655 S
C669 N343 0.689 . S
C685 C351 0.667 1_565 S
C687 N376 0.689 . S
C703 C384 0.667 . S
C705 N211 0.689 . S
C721 C271 1.774 . S
C723 C7 1.774 . S
C739 C40 1.775 . S
C741 C304 1.775 . S
C757 C73 1.775 . S
C759 C337 1.775 . S
C775 C106 1.775 . S
C777 C370 1.775 . S
C793 C205 1.775 . S
C795 C139 1.775 . S
C811 C172 1.775 . S
C813 C238 1.775 . S
C829 C381 1.574 . S
C831 C117 1.574 . S
C847 C216 1.574 . S
C849 C150 1.574 . S
C865 C249 1.574 . S
C867 C183 1.574 . S
C883 C18 1.574 . S
C885 C282 1.574 . S
C901 C51 1.575 . S
C903 C315 1.574 . S
C919 C84 1.574 . S
C921 C348 1.574 . S
