# Generated by pormake.
# Topology wjd, (6)-cn, num edge types: 1
# Building blocks:
#     Node 0, Type 0, BuildingBlock: NUHQIS_clean_sbu_0, # of connection points: 6
#     Node 1, Type 0, BuildingBlock: NUHQIS_clean_sbu_0, # of connection points: 6
#     Node 2, Type 0, BuildingBlock: NUHQIS_clean_sbu_0, # of connection points: 6
#     Node 3, Type 0, BuildingBlock: NUHQIS_clean_sbu_0, # of connection points: 6
#     Node 4, Type 0, BuildingBlock: NUHQIS_clean_sbu_0, # of connection points: 6
#     Node 5, Type 0, BuildingBlock: NUHQIS_clean_sbu_0, # of connection points: 6
#     Node 6, Type 0, BuildingBlock: NUHQIS_clean_sbu_0, # of connection points: 6
#     Node 7, Type 0, BuildingBlock: NUHQIS_clean_sbu_0, # of connection points: 6
#     Node 8, Type 0, BuildingBlock: NUHQIS_clean_sbu_0, # of connection points: 6
#     Node 9, Type 0, BuildingBlock: NUHQIS_clean_sbu_0, # of connection points: 6
#     Node 10, Type 0, BuildingBlock: NUHQIS_clean_sbu_0, # of connection points: 6
#     Node 11, Type 0, BuildingBlock: NUHQIS_clean_sbu_0, # of connection points: 6
#     Edge 12, Type (0, 0), BuildingBlock: XIVTED_clean_linker_0, # of connection points: 2
#     Edge 13, Type (0, 0), BuildingBlock: XIVTED_clean_linker_0, # of connection points: 2
#     Edge 14, Type (0, 0), BuildingBlock: XIVTED_clean_linker_0, # of connection points: 2
#     Edge 15, Type (0, 0), BuildingBlock: XIVTED_clean_linker_0, # of connection points: 2
#     Edge 16, Type (0, 0), BuildingBlock: XIVTED_clean_linker_0, # of connection points: 2
#     Edge 17, Type (0, 0), BuildingBlock: XIVTED_clean_linker_0, # of connection points: 2
#     Edge 18, Type (0, 0), BuildingBlock: XIVTED_clean_linker_0, # of connection points: 2
#     Edge 19, Type (0, 0), BuildingBlock: XIVTED_clean_linker_0, # of connection points: 2
#     Edge 20, Type (0, 0), BuildingBlock: XIVTED_clean_linker_0, # of connection points: 2
#     Edge 21, Type (0, 0), BuildingBlock: XIVTED_clean_linker_0, # of connection points: 2
#     Edge 22, Type (0, 0), BuildingBlock: XIVTED_clean_linker_0, # of connection points: 2
#     Edge 23, Type (0, 0), BuildingBlock: XIVTED_clean_linker_0, # of connection points: 2
#     Edge 24, Type (0, 0), BuildingBlock: XIVTED_clean_linker_0, # of connection points: 2
#     Edge 25, Type (0, 0), BuildingBlock: XIVTED_clean_linker_0, # of connection points: 2
#     Edge 26, Type (0, 0), BuildingBlock: XIVTED_clean_linker_0, # of connection points: 2
#     Edge 27, Type (0, 0), BuildingBlock: XIVTED_clean_linker_0, # of connection points: 2
#     Edge 28, Type (0, 0), BuildingBlock: XIVTED_clean_linker_0, # of connection points: 2
#     Edge 29, Type (0, 0), BuildingBlock: XIVTED_clean_linker_0, # of connection points: 2
#     Edge 30, Type (0, 0), BuildingBlock: XIVTED_clean_linker_0, # of connection points: 2
#     Edge 31, Type (0, 0), BuildingBlock: XIVTED_clean_linker_0, # of connection points: 2
#     Edge 32, Type (0, 0), BuildingBlock: XIVTED_clean_linker_0, # of connection points: 2
#     Edge 33, Type (0, 0), BuildingBlock: XIVTED_clean_linker_0, # of connection points: 2
#     Edge 34, Type (0, 0), BuildingBlock: XIVTED_clean_linker_0, # of connection points: 2
#     Edge 35, Type (0, 0), BuildingBlock: XIVTED_clean_linker_0, # of connection points: 2
#     Edge 36, Type (0, 0), BuildingBlock: XIVTED_clean_linker_0, # of connection points: 2
#     Edge 37, Type (0, 0), BuildingBlock: XIVTED_clean_linker_0, # of connection points: 2
#     Edge 38, Type (0, 0), BuildingBlock: XIVTED_clean_linker_0, # of connection points: 2
#     Edge 39, Type (0, 0), BuildingBlock: XIVTED_clean_linker_0, # of connection points: 2
#     Edge 40, Type (0, 0), BuildingBlock: XIVTED_clean_linker_0, # of connection points: 2
#     Edge 41, Type (0, 0), BuildingBlock: XIVTED_clean_linker_0, # of connection points: 2
#     Edge 42, Type (0, 0), BuildingBlock: XIVTED_clean_linker_0, # of connection points: 2
#     Edge 43, Type (0, 0), BuildingBlock: XIVTED_clean_linker_0, # of connection points: 2
#     Edge 44, Type (0, 0), BuildingBlock: XIVTED_clean_linker_0, # of connection points: 2
#     Edge 45, Type (0, 0), BuildingBlock: XIVTED_clean_linker_0, # of connection points: 2
#     Edge 46, Type (0, 0), BuildingBlock: XIVTED_clean_linker_0, # of connection points: 2
#     Edge 47, Type (0, 0), BuildingBlock: XIVTED_clean_linker_0, # of connection points: 2
# Relax obj value: 0.092
# Max RMSD: 0.206
# Mean RMSD: 0.206
data_MOF--net-wjd--node1-NUHQIS_clean_sbu_0--edge1-XIVTED_clean_linker_0
_symmetry_space_group_name_H-M    P1
_symmetry_Int_Tables_number       1
_symmetry_cell_setting            triclinic
loop_
_symmetry_equiv_pos_as_xyz
'x, y, z'
_cell_length_a     40.539394
_cell_length_b     40.624312
_cell_length_c     54.116641
_cell_angle_alpha  89.710435
_cell_angle_beta   90.395254
_cell_angle_gamma 119.80783
loop_
_atom_site_label
_atom_site_type_symbol
_atom_site_fract_x
_atom_site_fract_y
_atom_site_fract_z
_atom_type_partial_charge
Tb0 Tb 0.37786 0.18464 0.11398 0.0
Eu1 Eu 0.32591 0.09832 0.13654 0.0
C2 C 0.32737 0.11316 0.08055 0.0
C3 C 0.2941 0.15581 0.12928 0.0
C4 C 0.45082 0.28826 0.10432 0.0
C5 C 0.51213 0.32522 0.12495 0.0
C6 C 0.48033 0.29002 0.11904 0.0
C7 C 0.4534 0.32222 0.09598 0.0
C8 C 0.48503 0.35734 0.10192 0.0
C9 C 0.51503 0.35943 0.11637 0.0
C10 C 0.41712 0.2517 0.09731 0.0
O11 O 0.37848 0.19041 0.15462 0.0
O12 O 0.36592 0.13086 0.16699 0.0
O13 O 0.38283 0.1046 0.12426 0.0
O14 O 0.41898 0.16947 0.12732 0.0
C15 C 0.3784 0.16682 0.1716 0.0
O16 O 0.28608 0.05822 0.16358 0.0
O17 O 0.30156 0.03738 0.13139 0.0
O18 O 0.30429 0.10112 0.09924 0.0
O19 O 0.36161 0.143 0.08337 0.0
O20 O 0.31905 0.17176 0.11151 0.0
O21 O 0.29619 0.13175 0.14464 0.0
C22 C 0.4163 0.136 0.12556 0.0
O23 O 0.42261 0.22367 0.09148 0.0
O24 O 0.38708 0.24028 0.11101 0.0
C25 C 0.23714 1.00231 0.14474 0.0
C26 C 0.15868 0.95239 0.13542 0.0
C27 C 0.1725 0.96221 0.15977 0.0
C28 C 0.2113 0.98676 0.16436 0.0
C29 C 0.22329 0.99289 0.12038 0.0
C30 C 0.1846 0.96815 0.1158 0.0
C31 C 0.27808 0.02875 0.14989 0.0
H32 H 0.53437 0.32562 0.13636 0.0
H33 H 0.47886 0.26422 0.12589 0.0
H34 H 0.43097 0.32157 0.08462 0.0
H35 H 0.48634 0.38285 0.09467 0.0
H36 H 0.15344 0.9503 0.17532 0.0
H37 H 0.22116 0.99358 0.18329 0.0
H38 H 0.24228 1.00464 0.10477 0.0
H39 H 0.17492 0.9616 0.09682 0.0
Tb40 Tb 0.80847 0.71084 0.38341 0.0
Eu41 Eu 0.84462 0.65979 0.40671 0.0
C42 C 0.84445 0.67586 0.34878 0.0
C43 C 0.75811 0.62034 0.38535 0.0
C44 C 0.80242 0.79683 0.36842 0.0
C45 C 0.8009 0.85266 0.35352 0.0
C46 C 0.78684 0.8134 0.35292 0.0
C47 C 0.83317 0.82022 0.38391 0.0
C48 C 0.84696 0.8593 0.38469 0.0
C49 C 0.83053 0.87589 0.36985 0.0
C50 C 0.78469 0.75515 0.36995 0.0
O51 O 0.78335 0.68655 0.4186 0.0
O52 O 0.83545 0.69252 0.43776 0.0
O53 O 0.89376 0.71642 0.39728 0.0
O54 O 0.86446 0.75224 0.39871 0.0
C55 C 0.80428 0.69492 0.43846 0.0
O56 O 0.84207 0.61623 0.43195 0.0
O57 O 0.89178 0.6484 0.40913 0.0
O58 O 0.83824 0.64942 0.36522 0.0
O59 O 0.84311 0.70645 0.35472 0.0
O60 O 0.76405 0.65224 0.37461 0.0
O61 O 0.78297 0.61866 0.40027 0.0
C62 C 0.89546 0.74935 0.39883 0.0
O63 O 0.79653 0.73872 0.35455 0.0
O64 O 0.78148 0.74169 0.39223 0.0
C65 C 0.87729 0.58582 0.41956 0.0
C66 C 0.8853 0.5211 0.41151 0.0
C67 C 0.84928 0.51725 0.4159 0.0
C68 C 0.8453 0.54922 0.41986 0.0
C69 C 0.91317 0.58971 0.41514 0.0
C70 C 0.91714 0.55786 0.41109 0.0
C71 C 0.87453 0.62027 0.4246 0.0
H72 H 0.78753 0.86461 0.34197 0.0
H73 H 0.76305 0.79586 0.3409 0.0
H74 H 0.84576 0.80813 0.39602 0.0
H75 H 0.87014 0.87649 0.39721 0.0
H76 H 0.82412 0.48946 0.41673 0.0
H77 H 0.81725 0.54518 0.42334 0.0
H78 H 0.93834 0.61757 0.41489 0.0
H79 H 0.94523 0.56215 0.4074 0.0
Tb80 Tb 0.85281 0.20132 0.11184 0.0
Eu81 Eu 0.93817 0.23803 0.13706 0.0
C82 C 0.92753 0.22657 0.08037 0.0
C83 C 0.88473 0.14858 0.12736 0.0
C84 C 0.74862 0.16868 0.09927 0.0
C85 C 0.68059 0.1273 0.10628 0.0
C86 C 0.71689 0.13223 0.10207 0.0
C87 C 0.74317 0.2002 0.10084 0.0
C88 C 0.70682 0.19528 0.10497 0.0
C89 C 0.67488 0.15872 0.10769 0.0
C90 C 0.78636 0.17272 0.09348 0.0
O91 O 0.84467 0.19258 0.15221 0.0
O92 O 0.90161 0.24174 0.16615 0.0
O93 O 0.92989 0.28717 0.12404 0.0
O94 O 0.86473 0.25614 0.12556 0.0
C95 C 0.86611 0.21589 0.1699 0.0
O96 O 0.97675 0.2401 0.16627 0.0
O97 O 0.99913 0.27714 0.13438 0.0
O98 O 0.94057 0.21719 0.09959 0.0
O99 O 0.89604 0.22855 0.08225 0.0
O100 O 0.86852 0.15748 0.10945 0.0
O101 O 0.90779 0.17436 0.14322 0.0
C102 C 0.89755 0.2877 0.12438 0.0
O103 O 0.81431 0.20634 0.08791 0.0
O104 O 0.79783 0.15424 0.10757 0.0
C105 C 0.03627 0.25208 0.15109 0.0
C106 C 0.09164 0.22949 0.14606 0.0
C107 C 0.08824 0.24535 0.16831 0.0
C108 C 0.06087 0.2566 0.17076 0.0
C109 C 0.03927 0.23589 0.12894 0.0
C110 C 0.06677 0.22489 0.12641 0.0
C111 C 1.00716 0.26356 0.15403 0.0
H112 H 0.65705 0.09875 0.10862 0.0
H113 H 0.72012 0.10737 0.10082 0.0
H114 H 0.76688 0.22871 0.0986 0.0
H115 H 0.70371 0.22023 0.10554 0.0
H116 H 0.10712 0.2496 0.18372 0.0
H117 H 0.05894 0.26887 0.18804 0.0
H118 H 1.02029 0.23165 0.11358 0.0
H119 H 0.06822 0.21229 0.10915 0.0
Tb120 Tb 0.33349 0.10182 0.38996 0.0
Eu121 Eu 0.38696 0.18898 0.411 0.0
C122 C 0.38053 0.16779 0.35298 0.0
C123 C 0.42297 0.13758 0.39785 0.0
C124 C 0.24697 1.00776 0.38019 0.0
C125 C 0.19379 0.94316 0.3797 0.0
C126 C 0.23246 0.96892 0.37622 0.0
C127 C 0.2221 0.0206 0.38756 0.0
C128 C 0.18326 0.99481 0.39095 0.0
C129 C 0.16865 0.95567 0.38725 0.0
C130 C 0.28802 0.03432 0.37678 0.0
O131 O 0.31548 0.10406 0.42707 0.0
O132 O 0.3731 0.14675 0.44283 0.0
O133 O 0.32622 0.17491 0.41505 0.0
O134 O 0.3016 0.13165 0.38363 0.0
C135 C 0.33935 0.11649 0.4456 0.0
O136 O 0.43602 0.23156 0.43186 0.0
O137 O 0.39734 0.24696 0.41454 0.0
O138 O 0.38246 0.19275 0.36924 0.0
O139 O 0.36967 0.13256 0.35917 0.0
O140 O 0.38894 0.10718 0.40051 0.0
O141 O 0.42712 0.1716 0.39581 0.0
C142 C 0.29966 0.15622 0.39847 0.0
O143 O 0.29695 0.06399 0.36301 0.0
O144 O 0.30909 0.04322 0.39666 0.0
C145 C 0.46157 0.29552 0.41833 0.0
C146 C 0.52319 0.36642 0.4032 0.0
C147 C 0.49904 0.36423 0.4225 0.0
C148 C 0.46865 0.32921 0.42995 0.0
C149 C 0.48518 0.2974 0.39887 0.0
C150 C 0.51572 0.33247 0.39142 0.0
C151 C 0.4292 0.25903 0.42663 0.0
H152 H 0.18353 0.91336 0.3763 0.0
H153 H 0.25111 0.95844 0.37047 0.0
H154 H 0.23277 0.05052 0.39083 0.0
H155 H 0.16486 1.00542 0.39696 0.0
H156 H 0.5041 0.38953 0.43227 0.0
H157 H 0.45073 0.32841 0.44497 0.0
H158 H 0.48002 0.27177 0.38947 0.0
H159 H 0.53335 0.33299 0.37631 0.0
Tb160 Tb 0.8358 0.66046 0.10954 0.0
Eu161 Eu 0.79669 0.70928 0.13164 0.0
C162 C 0.79364 0.6909 0.07635 0.0
C163 C 0.88554 0.74932 0.11652 0.0
C164 C 0.86681 0.58806 0.09627 0.0
C165 C 0.89249 0.54731 0.08488 0.0
C166 C 0.88884 0.57939 0.08061 0.0
C167 C 0.84806 0.56385 0.11625 0.0
C168 C 0.85162 0.5316 0.12054 0.0
C169 C 0.87417 0.52301 0.105 0.0
C170 C 0.86591 0.62364 0.09214 0.0
O171 O 0.83051 0.65052 0.14973 0.0
O172 O 0.83334 0.7061 0.16154 0.0
O173 O 0.75315 0.64766 0.14006 0.0
O174 O 0.77641 0.61813 0.11468 0.0
C175 C 0.83677 0.67635 0.16661 0.0
O176 O 0.77923 0.73564 0.16016 0.0
O177 O 0.76986 0.74232 0.12145 0.0
O178 O 0.7715 0.68274 0.09537 0.0
O179 O 0.82644 0.6919 0.07917 0.0
O180 O 0.88358 0.71613 0.11713 0.0
O181 O 0.855 0.75288 0.11741 0.0
C182 C 0.74988 0.61707 0.12915 0.0
O183 O 0.83445 0.62099 0.08371 0.0
O184 O 0.88092 0.64905 0.10949 0.0
C185 C 0.78257 0.79352 0.14721 0.0
C186 C 0.80749 0.87214 0.14595 0.0
C187 C 0.76855 0.84517 0.14776 0.0
C188 C 0.75628 0.80632 0.14836 0.0
C189 C 0.82155 0.82022 0.14623 0.0
C190 C 0.83393 0.85922 0.14574 0.0
C191 C 0.76855 0.7526 0.14402 0.0
H192 H 0.90951 0.54142 0.07226 0.0
H193 H 0.90365 0.59775 0.06512 0.0
H194 H 0.83114 0.57018 0.1287 0.0
H195 H 0.83735 0.51384 0.13634 0.0
H196 H 0.74744 0.85408 0.14832 0.0
H197 H 0.72606 0.78619 0.14893 0.0
H198 H 0.84229 0.81088 0.145 0.0
H199 H 0.86407 0.87914 0.14416 0.0
Tb200 Tb 0.94373 0.23464 0.38324 0.0
Eu201 Eu 0.85894 0.19718 0.40916 0.0
C202 C 0.87256 0.2126 0.35026 0.0
C203 C 0.90498 0.28445 0.39483 0.0
C204 C 0.03902 0.2479 0.36949 0.0
C205 C 0.1054 0.2641 0.37065 0.0
C206 C 0.0777 0.27476 0.3673 0.0
C207 C 0.02836 0.21007 0.37503 0.0
C208 C 0.05604 0.19931 0.3782 0.0
C209 C 0.09495 0.22625 0.37618 0.0
C210 C 1.01026 0.25992 0.3668 0.0
O211 O 0.948 0.21524 0.4197 0.0
O212 O 0.90487 0.22614 0.43906 0.0
O213 O 0.87714 0.15333 0.41124 0.0
O214 O 0.915 0.17324 0.37697 0.0
C215 C 0.93692 0.22517 0.43949 0.0
O216 O 0.81854 0.2008 0.43402 0.0
O217 O 0.80152 0.1488 0.4139 0.0
O218 O 0.85048 0.18885 0.36744 0.0
O219 O 0.90805 0.23829 0.35475 0.0
O220 O 0.93668 0.28266 0.39538 0.0
O221 O 0.8715 0.2537 0.39458 0.0
C222 C 0.89407 0.14656 0.393 0.0
O223 O 0.97949 0.23717 0.35449 0.0
O224 O 1.00248 0.27232 0.38686 0.0
C225 C 0.75261 0.16324 0.42292 0.0
C226 C 0.67894 0.15387 0.41467 0.0
C227 C 0.71164 0.19023 0.41452 0.0
C228 C 0.74797 0.19486 0.41855 0.0
C229 C 0.72014 0.12699 0.423 0.0
C230 C 0.68385 0.12232 0.41889 0.0
C231 C 0.79053 0.16724 0.42821 0.0
H232 H 0.13504 0.28549 0.36871 0.0
H233 H 0.08652 0.3041 0.36313 0.0
H234 H 0.99864 0.18891 0.3771 0.0
H235 H 0.04701 0.17005 0.38274 0.0
H236 H 0.70922 0.21535 0.41173 0.0
H237 H 0.77234 0.22324 0.41843 0.0
H238 H 0.72284 0.10211 0.42635 0.0
H239 H 0.65967 0.09384 0.41879 0.0
Tb240 Tb 0.1139 0.32094 0.63299 0.0
Eu241 Eu 0.20241 0.37232 0.61212 0.0
C242 C 0.18248 0.35598 0.66946 0.0
C243 C 0.152 0.41073 0.62732 0.0
C244 C 1.01942 0.23653 0.64813 0.0
C245 C 0.95688 0.18467 0.65918 0.0
C246 C 0.98396 0.2234 0.65931 0.0
C247 C 0.02799 0.21011 0.63765 0.0
C248 C 1.00089 0.17136 0.63743 0.0
C249 C 0.96458 0.15816 0.64769 0.0
C250 C 0.04504 0.27777 0.64482 0.0
O251 O 0.11421 0.34421 0.59704 0.0
O252 O 0.16243 0.33961 0.57988 0.0
O253 O 0.19433 0.31496 0.62025 0.0
O254 O 0.12908 0.27888 0.6199 0.0
C255 C 0.12902 0.33753 0.57776 0.0
O256 O 0.2447 0.41421 0.58667 0.0
O257 O 0.26188 0.3871 0.61446 0.0
O258 O 0.20261 0.38297 0.6534 0.0
O259 O 0.15176 0.32484 0.66265 0.0
O260 O 0.12812 0.38027 0.64017 0.0
O261 O 0.17859 0.41138 0.61324 0.0
C262 C 0.16308 0.28201 0.61949 0.0
O263 O 0.07232 0.29556 0.66093 0.0
O264 O 0.05695 0.28824 0.62233 0.0
C265 C 0.30966 0.44776 0.60039 0.0
C266 C 0.3833 0.51191 0.60691 0.0
C267 C 0.3719 0.49295 0.58403 0.0
C268 C 0.33562 0.46143 0.58084 0.0
C269 C 0.32055 0.46652 0.62328 0.0
C270 C 0.35699 0.49829 0.6265 0.0
C271 C 0.27299 0.41221 0.59678 0.0
H272 H 0.92961 0.1756 0.66772 0.0
H273 H 0.97669 0.24328 0.66744 0.0
H274 H 0.05508 0.2196 0.62872 0.0
H275 H 1.00788 0.15203 0.62823 0.0
H276 H 0.39134 0.50187 0.5686 0.0
H277 H 0.3281 0.44713 0.56313 0.0
H278 H 0.30108 0.45637 0.63872 0.0
H279 H 0.36444 0.51225 0.6443 0.0
Tb280 Tb 0.22086 0.84984 0.91031 0.0
Eu281 Eu 0.2427 0.93125 0.88262 0.0
C282 C 0.24955 0.92582 0.94151 0.0
C283 C 0.15889 0.87218 0.89915 0.0
C284 C 0.19041 0.74638 0.91986 0.0
C285 C 0.15906 0.67863 0.92915 0.0
C286 C 0.16928 0.71585 0.93593 0.0
C287 C 0.20006 0.73882 0.89648 0.0
C288 C 0.19009 0.70167 0.88976 0.0
C289 C 0.17001 0.67109 0.90616 0.0
C290 C 0.20493 0.78589 0.92859 0.0
O291 O 0.22874 0.84193 0.87108 0.0
O292 O 0.21628 0.88635 0.85369 0.0
O293 O 0.29247 0.92035 0.87699 0.0
O294 O 0.28171 0.88768 0.9133 0.0
C295 C 0.21949 0.85597 0.852 0.0
O296 O 0.2263 0.96188 0.85647 0.0
O297 O 0.27852 0.99255 0.87735 0.0
O298 O 0.26313 0.946 0.92139 0.0
O299 O 0.2267 0.8885 0.941 0.0
O300 O 0.16821 0.8457 0.89666 0.0
O301 O 0.18544 0.90794 0.90102 0.0
C302 C 0.30417 0.90608 0.89477 0.0
O303 O 0.23838 0.8111 0.92066 0.0
O304 O 0.18154 0.79919 0.92855 0.0
C305 C 0.24276 0.02393 0.86921 0.0
C306 C 0.21955 0.07765 0.88043 0.0
C307 C 0.21065 0.05904 0.85745 0.0
C308 C 0.22223 0.03264 0.8519 0.0
C309 C 0.25151 0.04228 0.89228 0.0
C310 C 0.24018 0.06891 0.89777 0.0
C311 C 0.25385 0.99513 0.86302 0.0
H312 H 0.14392 0.65599 0.94236 0.0
H313 H 0.16166 0.72091 0.9541 0.0
H314 H 0.21621 0.76176 0.88364 0.0
H315 H 0.19853 0.69695 0.87177 0.0
H316 H 0.19526 0.06535 0.84353 0.0
H317 H 0.21507 0.01893 0.834 0.0
H318 H 0.26696 0.03599 0.90616 0.0
H319 H 0.24719 0.08234 0.91575 0.0
Tb320 Tb 0.7279 0.80137 0.63882 0.0
Eu321 Eu 0.67152 0.82592 0.60822 0.0
C322 C 0.67257 0.82042 0.66743 0.0
C323 C 0.64586 0.7413 0.6207 0.0
C324 C 0.81277 0.79426 0.65678 0.0
C325 C 0.87157 0.79889 0.67205 0.0
C326 C 0.83353 0.78901 0.6757 0.0
C327 C 0.83058 0.8095 0.6341 0.0
C328 C 0.86853 0.81912 0.63035 0.0
C329 C 0.88962 0.81412 0.64933 0.0
C330 C 0.77323 0.78534 0.66124 0.0
O331 O 0.73657 0.79279 0.60057 0.0
O332 O 0.7079 0.82063 0.5781 0.0
O333 O 0.72039 0.87872 0.62456 0.0
O334 O 0.76415 0.85879 0.62472 0.0
C335 C 0.72918 0.80431 0.5796 0.0
O336 O 0.61421 0.80976 0.5959 0.0
O337 O 0.65996 0.86667 0.58851 0.0
O338 O 0.65075 0.81286 0.6478 0.0
O339 O 0.70682 0.82491 0.66627 0.0
O340 O 0.66901 0.75295 0.64 0.0
O341 O 0.65166 0.76448 0.60228 0.0
C342 C 0.75583 0.8862 0.62558 0.0
O343 O 0.76901 0.81423 0.66661 0.0
O344 O 0.74763 0.76293 0.64535 0.0
C345 C 0.59759 0.85797 0.59441 0.0
C346 C 0.54129 0.87788 0.60565 0.0
C347 C 0.55615 0.88264 0.58161 0.0
C348 C 0.58387 0.87271 0.57607 0.0
C349 C 0.58395 0.85446 0.61864 0.0
C350 C 0.55614 0.86427 0.62419 0.0
C351 C 0.62331 0.84335 0.58751 0.0
H352 H 0.88675 0.79427 0.68697 0.0
H353 H 0.82039 0.77749 0.69339 0.0
H354 H 0.81524 0.81435 0.6194 0.0
H355 H 0.88159 0.83122 0.61275 0.0
H356 H 0.54528 0.89261 0.56677 0.0
H357 H 0.59375 0.87546 0.55722 0.0
H358 H 0.5941 0.8432 0.63315 0.0
H359 H 0.54594 0.86075 0.64299 0.0
Tb360 Tb 0.18912 0.37262 0.90887 0.0
Eu361 Eu 0.10064 0.32028 0.88837 0.0
C362 C 0.11791 0.34419 0.94279 0.0
C363 C 0.15342 0.2842 0.90277 0.0
C364 C 0.29356 0.44581 0.9177 0.0
C365 C 0.34153 0.51215 0.9243 0.0
C366 C 0.30564 0.48088 0.92931 0.0
C367 C 0.31838 0.44289 0.9009 0.0
C368 C 0.35427 0.47411 0.89591 0.0
C369 C 0.36652 0.50916 0.90765 0.0
C370 C 0.25692 0.41174 0.92474 0.0
O371 O 0.19197 0.38079 0.86857 0.0
O372 O 0.13921 0.32443 0.85767 0.0
O373 O 0.1143 0.38083 0.88 0.0
O374 O 0.17178 0.41433 0.90099 0.0
C375 C 0.17185 0.35435 0.85211 0.0
O376 O 0.0553 0.29294 0.86065 0.0
O377 O 0.04224 0.28299 0.89971 0.0
O378 O 0.10241 0.34972 0.92331 0.0
O379 O 0.15003 0.34376 0.94024 0.0
O380 O 0.18339 0.31796 0.90048 0.0
O381 O 0.1189 0.27951 0.90368 0.0
C382 C 0.14313 0.41287 0.88842 0.0
O383 O 0.22894 0.41659 0.93188 0.0
O384 O 0.24479 0.38193 0.91074 0.0
C385 C 1.00482 0.23238 0.8731 0.0
C386 C 0.95526 0.15288 0.87097 0.0
C387 C 0.99482 0.16805 0.87365 0.0
C388 C 1.01934 0.20744 0.87471 0.0
C389 C 0.96563 0.21749 0.87001 0.0
C390 C 0.94112 0.17825 0.86894 0.0
C391 C 0.02937 0.27348 0.8772 0.0
H392 H 0.35007 0.53843 0.93402 0.0
H393 H 0.28762 0.484 0.94268 0.0
H394 H 0.31036 0.41626 0.89178 0.0
H395 H 0.3724 0.47074 0.88278 0.0
H396 H 1.00683 0.14953 0.87502 0.0
H397 H 0.04954 0.21844 0.8773 0.0
H398 H 0.95379 0.23622 0.86911 0.0
H399 H 0.91089 0.16781 0.86733 0.0
Tb400 Tb 0.25119 0.93245 0.63776 0.0
Eu401 Eu 0.21659 0.84724 0.61369 0.0
C402 C 0.23176 0.8638 0.67238 0.0
C403 C 0.30406 0.89618 0.62799 0.0
C404 C 0.25774 0.02527 0.649 0.0
C405 C 0.2678 0.0895 0.64895 0.0
C406 C 0.28136 0.06422 0.65303 0.0
C407 C 0.22012 1.01187 0.64099 0.0
C408 C 0.20645 0.03715 0.63702 0.0
C409 C 0.23023 0.07638 0.64074 0.0
C410 C 0.27286 0.99911 0.65257 0.0
O411 O 0.23147 0.9336 0.60073 0.0
O412 O 0.24555 0.89152 0.58317 0.0
O413 O 0.1708 0.86298 0.61043 0.0
O414 O 0.18958 0.9023 0.64392 0.0
C415 C 0.24264 0.92232 0.58161 0.0
O416 O 0.22162 0.80588 0.59052 0.0
O417 O 0.16866 0.78986 0.6092 0.0
O418 O 0.20856 0.84058 0.65535 0.0
O419 O 0.25647 0.8994 0.66748 0.0
O420 O 0.30101 0.92716 0.62681 0.0
O421 O 0.2739 0.86226 0.62869 0.0
C422 C 0.16307 0.88004 0.6281 0.0
O423 O 0.25195 0.96869 0.66561 0.0
O424 O 0.286 0.99136 0.63284 0.0
C425 C 0.18226 0.74058 0.60084 0.0
C426 C 0.17079 0.66676 0.6098 0.0
C427 C 0.15872 0.67557 0.58751 0.0
C428 C 0.16445 0.71198 0.58311 0.0
C429 C 0.1939 0.73208 0.62335 0.0
C430 C 0.18815 0.69543 0.62782 0.0
C431 C 0.18733 0.77852 0.59542 0.0
H432 H 0.28679 0.11941 0.65235 0.0
H433 H 0.31043 0.07515 0.65921 0.0
H434 H 0.20144 0.9819 0.63758 0.0
H435 H 0.17754 0.02607 0.63047 0.0
H436 H 0.1446 0.65419 0.57338 0.0
H437 H 0.15487 0.71781 0.56574 0.0
H438 H 0.20755 0.75376 0.63737 0.0
H439 H 0.19803 0.68979 0.64511 0.0
Tb440 Tb 0.66941 0.83019 0.90358 0.0
Eu441 Eu 0.71784 0.7892 0.88268 0.0
C442 C 0.70823 0.797 0.93911 0.0
C443 C 0.75399 0.87863 0.88799 0.0
C444 C 0.60164 0.86786 0.9163 0.0
C445 C 0.56246 0.8945 0.92947 0.0
C446 C 0.59339 0.88871 0.93325 0.0
C447 C 0.57844 0.85308 0.89522 0.0
C448 C 0.54726 0.85888 0.89138 0.0
C449 C 0.53863 0.87947 0.9086 0.0
C450 C 0.63509 0.86305 0.92105 0.0
O451 O 0.65088 0.81865 0.86497 0.0
O452 O 0.69259 0.80057 0.84898 0.0
O453 O 0.65619 0.74197 0.88009 0.0
O454 O 0.62761 0.7702 0.90187 0.0
C455 C 0.66569 0.80948 0.84641 0.0
O456 O 0.75826 0.78934 0.8561 0.0
O457 O 0.7413 0.7513 0.8874 0.0
O458 O 0.70376 0.77278 0.92197 0.0
O459 O 0.70474 0.827 0.93407 0.0
O460 O 0.71968 0.87344 0.88517 0.0
O461 O 0.75908 0.85009 0.89386 0.0
C462 C 0.62621 0.74092 0.89048 0.0
O463 O 0.62878 0.8297 0.92803 0.0
O464 O 0.66272 0.87831 0.90522 0.0
C465 C 0.80472 0.77702 0.87348 0.0
C466 C 0.88231 0.79926 0.8815 0.0
C467 C 0.8591 0.7684 0.866 0.0
C468 C 0.82079 0.75745 0.86206 0.0
C469 C 0.82756 0.80777 0.889 0.0
C470 C 0.86594 0.8188 0.89295 0.0
C471 C 0.76443 0.7655 0.86875 0.0
H472 H 0.55745 0.91116 0.94292 0.0
H473 H 0.61108 0.90072 0.94951 0.0
H474 H 0.58436 0.83702 0.8818 0.0
H475 H 0.52954 0.84664 0.87518 0.0
H476 H 0.87067 0.75299 0.85654 0.0
H477 H 0.80373 0.73377 0.84992 0.0
H478 H 0.8157 0.82328 0.89803 0.0
H479 H 0.88265 0.84238 0.90522 0.0
H480 H 0.13748 0.24051 0.10617 0.0
H481 H 0.24095 0.13445 0.16621 0.0
H482 H 0.11312 0.19232 0.17952 0.0
H483 H 0.27653 0.19845 0.0982 0.0
H484 H 0.19124 0.15161 0.17033 0.0
H485 H 0.18564 0.22148 0.10183 0.0
C486 C 0.14209 0.22572 0.12133 0.0
C487 C 0.12112 0.21802 0.14325 0.0
C488 C 0.20993 0.16186 0.1545 0.0
C489 C 0.17658 0.19625 0.13844 0.0
C490 C 0.23828 0.15199 0.15209 0.0
C491 C 0.26309 0.16503 0.13183 0.0
C492 C 0.20612 0.18477 0.13644 0.0
C493 C 0.25821 0.18776 0.11416 0.0
C494 C 0.16979 0.21505 0.11889 0.0
C495 C 0.12883 0.19923 0.16239 0.0
N496 N 0.23034 0.19683 0.11687 0.0
N497 N 0.15581 0.18892 0.15952 0.0
H498 H 0.13864 0.8864 0.40987 0.0
H499 H 0.91931 0.82431 0.38629 0.0
H500 H 0.10501 0.96099 0.37501 0.0
H501 H 0.95993 0.75164 0.41517 0.0
H502 H 0.98557 0.87724 0.38546 0.0
H503 H 0.07202 0.83917 0.41516 0.0
C504 C 0.11722 0.89284 0.40321 0.0
C505 C 0.12765 0.92765 0.39165 0.0
C506 C 0.97977 0.84971 0.39213 0.0
C507 C 0.0505 0.87331 0.39789 0.0
C508 C 0.94198 0.81959 0.39274 0.0
C509 C 0.93402 0.78335 0.40059 0.0
C510 C 1.00958 0.84347 0.39964 0.0
C511 C 0.96457 0.77886 0.40865 0.0
C512 C 0.079 0.86584 0.40637 0.0
C513 C 0.09835 0.93459 0.38404 0.0
N514 N 1.00072 0.80833 0.40787 0.0
N515 N 0.06112 0.90757 0.38712 0.0
H516 H 0.91588 0.11848 0.15963 0.0
H517 H 0.77516 0.90416 0.1171 0.0
H518 H 0.83326 0.08694 0.10077 0.0
H519 H 0.86855 0.93408 0.16766 0.0
H520 H 0.79513 0.9712 0.11236 0.0
H521 H 0.89853 0.05162 0.16404 0.0
C522 C 0.89423 0.09762 0.14757 0.0
C523 C 0.87603 0.10852 0.1298 0.0
C524 C 0.81135 0.96323 0.12451 0.0
C525 C 0.85585 0.03184 0.13489 0.0
C526 C 0.79976 0.92482 0.12738 0.0
C527 C 0.81999 0.91328 0.14297 0.0
C528 C 0.8434 0.99068 0.13741 0.0
C529 C 0.85217 0.94162 0.15536 0.0
C530 C 0.88435 0.05942 0.15011 0.0
C531 C 0.84818 0.08009 0.11472 0.0
N532 N 0.86276 0.97895 0.15242 0.0
N533 N 0.83889 0.04322 0.11769 0.0
H534 H 0.23506 0.11914 0.36975 0.0
H535 H 0.16202 0.2646 0.40194 0.0
H536 H 0.29161 0.21194 0.42118 0.0
H537 H 0.09548 0.16252 0.35961 0.0
H538 H 0.21075 0.2466 0.40787 0.0
H539 H 0.18443 0.13503 0.36475 0.0
C540 C 0.23684 0.14278 0.38004 0.0
C541 C 0.26779 0.16426 0.39588 0.0
C542 C 0.18548 0.22805 0.39731 0.0
C543 C 0.20993 0.18272 0.39012 0.0
C544 C 0.15771 0.23846 0.39378 0.0
C545 C 0.12459 0.21515 0.38016 0.0
C546 C 0.1804 0.19412 0.38703 0.0
C547 C 0.12038 0.18124 0.37039 0.0
C548 C 0.20786 0.1518 0.37719 0.0
C549 C 0.26838 0.1945 0.40878 0.0
N550 N 0.14801 0.17185 0.37391 0.0
N551 N 0.24008 0.20289 0.40552 0.0
H552 H 0.12836 0.89408 0.10204 0.0
H553 H 0.90991 0.82107 0.13521 0.0
H554 H 0.09541 0.94793 0.15753 0.0
H555 H 0.94943 0.7544 0.09694 0.0
H556 H 0.97619 0.87325 0.13834 0.0
H557 H 0.06142 0.84811 0.09484 0.0
C558 C 0.10704 0.89649 0.11257 0.0
C559 C 0.11768 0.92495 0.13048 0.0
C560 C 0.97018 0.84727 0.12908 0.0
C561 C 0.04055 0.872 0.12237 0.0
C562 C 0.93238 0.81764 0.12712 0.0
C563 C 0.92413 0.78326 0.1159 0.0
C564 C 0.99974 0.84258 0.11943 0.0
C565 C 0.95443 0.78025 0.10593 0.0
C566 C 0.06875 0.87005 0.10854 0.0
C567 C 0.08859 0.92622 0.14375 0.0
N568 N 0.99072 0.80938 0.10795 0.0
N569 N 0.05138 0.90015 0.13944 0.0
H570 H 0.84575 0.929 0.33341 0.0
H571 H 0.86685 0.08933 0.42714 0.0
H572 H 0.84252 0.91575 0.41264 0.0
H573 H 0.90683 0.11488 0.35197 0.0
H574 H 0.85359 0.0243 0.42139 0.0
H575 H 0.86382 0.9959 0.33891 0.0
C576 C 0.84889 0.94018 0.35193 0.0
C577 C 0.84274 0.9168 0.37259 0.0
C578 C 0.86546 0.04416 0.40617 0.0
C579 C 0.8631 0.99305 0.37901 0.0
C580 C 0.87296 0.08131 0.40942 0.0
C581 C 0.88793 0.10764 0.38999 0.0
C582 C 0.87241 0.03291 0.3832 0.0
C583 C 0.89539 0.09557 0.36748 0.0
C584 C 0.85938 0.97836 0.35506 0.0
C585 C 0.8474 0.93282 0.39619 0.0
N586 N 0.88724 0.05898 0.36462 0.0
N587 N 0.85701 0.9698 0.39875 0.0
H588 H 0.16048 0.06969 0.6514 0.0
H589 H 0.22287 0.27822 0.60072 0.0
H590 H 0.26858 0.14563 0.61794 0.0
H591 H 0.11498 0.20871 0.63636 0.0
H592 H 0.23633 0.22647 0.60382 0.0
H593 H 0.14014 0.11664 0.64353 0.0
C594 C 0.17985 0.09607 0.64227 0.0
C595 C 0.21652 0.10379 0.63556 0.0
C596 C 0.20954 0.22218 0.61088 0.0
C597 C 0.19335 0.15762 0.62651 0.0
C598 C 0.20176 0.25184 0.60908 0.0
C599 C 0.16784 0.24802 0.61849 0.0
C600 C 0.18345 0.1881 0.62242 0.0
C601 C 0.14146 0.21289 0.62883 0.0
C602 C 0.16823 0.12289 0.63786 0.0
C603 C 0.24038 0.13858 0.62391 0.0
N604 N 0.14999 0.18435 0.63077 0.0
N605 N 0.22844 0.16404 0.61984 0.0
H606 H 0.0966 0.80083 0.89708 0.0
H607 H 0.94408 0.87154 0.88568 0.0
H608 H 0.12756 0.91895 0.89904 0.0
H609 H 0.91455 0.75378 0.88657 0.0
H610 H 1.01097 0.8897 0.8914 0.0
H611 H 0.02982 0.78348 0.8939 0.0
C612 C 0.08942 0.8232 0.89693 0.0
C613 C 0.11798 0.86149 0.89831 0.0
C614 C 0.98984 0.85988 0.89038 0.0
C615 C 0.04098 0.84163 0.89454 0.0
C616 C 0.9515 0.84943 0.88725 0.0
C617 C 0.92332 0.81097 0.88553 0.0
C618 C 1.00034 0.83174 0.89184 0.0
C619 C 0.93508 0.78377 0.88736 0.0
C620 C 0.05114 0.81321 0.8951 0.0
C621 C 0.10665 0.88908 0.89805 0.0
N622 N 0.97251 0.79466 0.89037 0.0
N623 N 0.06912 0.87863 0.89612 0.0
H624 H 0.74962 0.95038 0.62592 0.0
H625 H 0.9715 0.09385 0.65039 0.0
H626 H 0.83275 0.91376 0.63175 0.0
H627 H 0.8882 0.12919 0.63891 0.0
H628 H 0.92145 0.02782 0.64461 0.0
H629 H 0.80018 1.01583 0.63164 0.0
C630 C 0.77852 0.95603 0.62833 0.0
C631 C 0.7868 0.92631 0.6283 0.0
C632 C 0.91414 0.05005 0.64341 0.0
C633 C 0.84519 1.00172 0.63501 0.0
C634 C 0.94278 0.08786 0.64663 0.0
C635 C 0.93426 0.11744 0.64523 0.0
C636 C 0.87657 0.04154 0.63874 0.0
C637 C 0.89625 0.10757 0.64062 0.0
C638 C 0.80746 0.99355 0.63163 0.0
C639 C 0.82494 0.93565 0.63156 0.0
N640 N 0.86898 0.07064 0.63754 0.0
N641 N 0.85265 0.97247 0.63483 0.0
H642 H 0.10221 0.2087 0.89279 0.0
H643 H 0.26128 0.14614 0.90387 0.0
H644 H 0.21947 0.2842 0.91255 0.0
H645 H 0.15179 0.07549 0.86981 0.0
H646 H 0.24311 0.19408 0.91187 0.0
H647 H 0.11651 0.15673 0.88899 0.0
C648 C 0.13078 0.2143 0.8966 0.0
C649 C 0.15968 0.25103 0.90284 0.0
C650 C 0.22295 0.16806 0.90271 0.0
C651 C 0.17626 0.19174 0.89854 0.0
C652 C 0.23325 0.1405 0.89826 0.0
C653 C 0.20812 0.10662 0.88607 0.0
C654 C 0.18707 0.16187 0.89508 0.0
C655 C 0.17232 0.10133 0.87896 0.0
C656 C 0.13899 0.18467 0.8943 0.0
C657 C 0.19626 0.25652 0.90749 0.0
N658 N 0.16288 0.12859 0.88356 0.0
N659 N 0.20344 0.22737 0.90521 0.0
H660 H 0.1336 0.9038 0.66513 0.0
H661 H 0.92229 0.80255 0.60833 0.0
H662 H 0.10184 0.83936 0.59739 0.0
H663 H 0.94986 0.85044 0.6816 0.0
H664 H 0.98892 0.82019 0.6026 0.0
H665 H 0.0676 0.88895 0.67004 0.0
C666 C 0.11285 0.88667 0.65122 0.0
C667 C 0.12344 0.87273 0.63085 0.0
C668 C 0.98042 0.82686 0.61994 0.0
C669 C 0.04759 0.85561 0.63638 0.0
C670 C 0.94236 0.81697 0.62318 0.0
C671 C 0.93027 0.82491 0.64552 0.0
C672 C 1.00689 0.84515 0.63909 0.0
C673 C 0.95766 0.84327 0.66419 0.0
C674 C 0.07509 0.8781 0.65409 0.0
C675 C 0.09513 0.85066 0.61345 0.0
N676 N 0.99458 0.85281 0.66054 0.0
N677 N 0.05863 0.84283 0.61661 0.0
H678 H 0.89054 0.11248 0.84312 0.0
H679 H 0.82908 0.90886 0.90287 0.0
H680 H 0.95867 0.09726 0.89874 0.0
H681 H 0.75326 0.93701 0.86372 0.0
H682 H 0.88081 0.97481 0.89717 0.0
H683 H 0.84405 0.04514 0.84587 0.0
C684 C 0.89579 0.09505 0.85597 0.0
C685 C 0.92849 0.11097 0.87097 0.0
C686 C 0.85282 0.96634 0.88979 0.0
C687 C 0.87516 0.03311 0.87399 0.0
C688 C 0.82336 0.92874 0.89297 0.0
C689 C 0.78667 0.91741 0.88394 0.0
C690 C 0.84556 0.9925 0.87717 0.0
C691 C 0.7809 0.94441 0.87124 0.0
C692 C 0.86921 0.05644 0.85745 0.0
C693 C 0.93403 0.08639 0.88673 0.0
N694 N 0.8099 0.98046 0.86825 0.0
N695 N 0.90755 0.04876 0.88793 0.0
H696 H 0.37314 0.22107 0.32531 0.0
H697 H 0.41891 0.14606 0.20102 0.0
H698 H 0.41055 0.13872 0.32112 0.0
H699 H 0.36595 0.21545 0.20033 0.0
H700 H 0.42897 0.15569 0.24537 0.0
H701 H 0.38189 0.23069 0.28027 0.0
C702 C 0.38385 0.2056 0.315 0.0
C703 C 0.39067 0.17869 0.32685 0.0
C704 C 0.41553 0.16929 0.23562 0.0
C705 C 0.40083 0.18958 0.27569 0.0
C706 C 0.40992 0.16388 0.21025 0.0
C707 C 0.39122 0.17965 0.19712 0.0
C708 C 0.40169 0.19006 0.24821 0.0
C709 C 0.38048 0.20282 0.20988 0.0
C710 C 0.38867 0.21096 0.28934 0.0
C711 C 0.40437 0.1593 0.31269 0.0
N712 N 0.38523 0.2068 0.2349 0.0
N713 N 0.40877 0.16497 0.28795 0.0
H714 H 0.89189 0.73229 0.31832 0.0
H715 H 0.81291 0.61081 0.19414 0.0
H716 H 0.81494 0.61157 0.31963 0.0
H717 H 0.88151 0.73262 0.19814 0.0
H718 H 0.82133 0.60734 0.23913 0.0
H719 H 0.89725 0.72963 0.27377 0.0
C720 C 0.87647 0.70503 0.30918 0.0
C721 C 0.8527 0.67217 0.32265 0.0
C722 C 0.83498 0.63472 0.23003 0.0
C723 C 0.85789 0.6689 0.27119 0.0
C724 C 0.83037 0.63668 0.20437 0.0
C725 C 0.84625 0.67209 0.19248 0.0
C726 C 0.85591 0.66841 0.24364 0.0
C727 C 0.86837 0.70475 0.20659 0.0
C728 C 0.87943 0.7035 0.28366 0.0
C729 C 0.83364 0.63755 0.30988 0.0
N730 N 0.87231 0.7021 0.2313 0.0
N731 N 0.83612 0.63687 0.28473 0.0
H732 H 0.82177 0.1511 0.197 0.0
H733 H 0.88649 0.27226 0.32118 0.0
H734 H 0.87984 0.27315 0.20094 0.0
H735 H 0.82713 0.15003 0.32162 0.0
H736 H 0.87317 0.27145 0.27721 0.0
H737 H 0.81248 0.14818 0.24211 0.0
C738 C 0.8315 0.17717 0.20726 0.0
C739 C 0.85186 0.21244 0.19536 0.0
C740 C 0.86253 0.24464 0.28682 0.0
C741 C 0.84183 0.20943 0.24667 0.0
C742 C 0.87012 0.24516 0.31198 0.0
C743 C 0.85815 0.2112 0.32493 0.0
C744 C 0.84355 0.20986 0.2742 0.0
C745 C 0.83678 0.17684 0.31221 0.0
C746 C 0.82649 0.17553 0.23299 0.0
C747 C 0.86434 0.24539 0.20946 0.0
N748 N 0.83075 0.17701 0.28736 0.0
N749 N 0.85945 0.24308 0.2343 0.0
H750 H 0.21921 0.42103 0.69792 0.0
H751 H 0.16118 0.29714 0.8219 0.0
H752 H 0.16844 0.29933 0.70158 0.0
H753 H 0.21104 0.41879 0.82332 0.0
H754 H 0.17304 0.30008 0.77781 0.0
H755 H 0.22551 0.4236 0.74338 0.0
C756 C 0.21015 0.39501 0.70821 0.0
C757 C 0.19289 0.35987 0.69601 0.0
C758 C 0.18181 0.32634 0.78762 0.0
C759 C 0.19982 0.36253 0.74771 0.0
C760 C 0.17503 0.32462 0.81289 0.0
C761 C 0.1848 0.35772 0.82623 0.0
C762 C 0.19792 0.36139 0.77525 0.0
C763 C 0.20308 0.39261 0.81365 0.0
C764 C 0.21354 0.39646 0.73412 0.0
C765 C 0.18142 0.32701 0.71021 0.0
N766 N 0.20853 0.39352 0.7887 0.0
N767 N 0.18486 0.32916 0.73517 0.0
H768 H 0.16003 0.83227 0.82033 0.0
H769 H 0.28964 0.88559 0.70555 0.0
H770 H 0.27287 0.84783 0.82663 0.0
H771 H 0.16845 0.81296 0.69792 0.0
H772 H 0.2844 0.87121 0.7498 0.0
H773 H 0.1612 0.8229 0.77572 0.0
C774 C 0.18458 0.83251 0.81233 0.0
C775 C 0.21626 0.84044 0.82704 0.0
C776 C 0.25904 0.85782 0.73839 0.0
C777 C 0.21852 0.83146 0.77605 0.0
C778 C 0.26198 0.86617 0.71318 0.0
C779 C 0.22937 0.85063 0.69815 0.0
C780 C 0.22308 0.83464 0.7488 0.0
C781 C 0.19426 0.82548 0.7089 0.0
C782 C 0.18531 0.82729 0.78691 0.0
C783 C 0.24772 0.84123 0.81586 0.0
N784 N 0.19189 0.8189 0.73371 0.0
N785 N 0.24844 0.83771 0.79088 0.0
H786 H 0.69992 0.88013 0.69886 0.0
H787 H 0.63735 0.75089 0.81418 0.0
H788 H 0.61522 0.76207 0.69251 0.0
H789 H 0.66581 0.86771 0.82082 0.0
H790 H 0.62749 0.75381 0.76968 0.0
H791 H 0.68681 0.87734 0.74325 0.0
C792 C 0.67772 0.85394 0.70678 0.0
C793 C 0.65825 0.82139 0.69215 0.0
C794 C 0.63497 0.77856 0.78092 0.0
C795 C 0.6443 0.81749 0.74287 0.0
C796 C 0.64061 0.77689 0.80626 0.0
C797 C 0.65219 0.80906 0.82103 0.0
C798 C 0.64231 0.81306 0.77016 0.0
C799 C 0.65652 0.84224 0.80997 0.0
C800 C 0.67031 0.85231 0.73206 0.0
C801 C 0.63035 0.78787 0.70322 0.0
N802 N 0.65241 0.84369 0.78504 0.0
N803 N 0.62477 0.78652 0.72808 0.0
H804 H 0.32062 0.98107 0.95283 0.0
H805 H 0.25608 0.05708 0.06839 0.0
H806 H 0.2071 0.9225 0.98231 0.0
H807 H 0.37208 0.11002 0.04308 0.0
H808 H 0.23768 1.00865 0.03671 0.0
H809 H 0.34018 0.02742 0.98614 0.0
C810 C 0.29994 0.97755 0.9667 0.0
C811 C 0.26218 0.94771 0.96487 0.0
C812 C 0.26713 0.03088 0.03792 0.0
C813 C 0.28425 1.00162 1.00287 0.0
C814 C 0.27775 0.05887 0.05595 0.0
C815 C 0.31585 0.08792 0.0585 0.0
C816 C 0.29467 0.03167 0.02204 0.0
C817 C 0.34239 0.08849 0.04174 0.0
C818 C 0.3111 1.00425 0.98562 0.0
C819 C 0.23657 0.94471 0.98321 0.0
N820 N 0.33132 0.06071 0.0243 0.0
N821 N 0.24798 0.9716 1.00131 0.0
H822 H 0.74057 0.7009 0.44328 0.0
H823 H 0.79382 0.8 0.57587 0.0
H824 H 0.84398 0.72655 0.48208 0.0
H825 H 0.69851 0.78691 0.53241 0.0
H826 H 0.81334 0.77464 0.54176 0.0
H827 H 0.72489 0.73165 0.47587 0.0
C828 C 0.76002 0.71278 0.45875 0.0
C829 C 0.79378 0.7109 0.45983 0.0
C830 C 0.78839 0.77762 0.5395 0.0
C831 C 0.7757 0.74678 0.49754 0.0
C832 C 0.7772 0.79225 0.55898 0.0
C833 C 0.74431 0.79555 0.55709 0.0
C834 C 0.76638 0.76564 0.51785 0.0
C835 C 0.72415 0.78516 0.53467 0.0
C836 C 0.75101 0.73061 0.47736 0.0
C837 C 0.8176 0.72703 0.48047 0.0
N838 N 0.73526 0.77028 0.51604 0.0
N839 N 0.80809 0.74424 0.49849 0.0
H840 H 0.06278 0.36005 0.95588 0.0
H841 H 0.98481 0.21272 0.06866 0.0
H842 H 0.11715 0.29761 0.98078 0.0
H843 H 0.92942 0.27354 0.04237 0.0
H844 H 0.03304 0.24315 0.03683 0.0
H845 H 1.01541 0.33038 0.98828 0.0
C846 C 0.06513 0.34045 0.96843 0.0
C847 C 0.09418 0.33138 0.96553 0.0
C848 C 1.01027 0.24972 0.03783 0.0
C849 C 0.03906 0.29652 1.00271 0.0
C850 C 0.98244 0.23217 0.05598 0.0
C851 C 0.95275 0.24047 0.0583 0.0
C852 C 1.00882 0.27611 0.02171 0.0
C853 C 0.95145 0.26595 0.04123 0.0
C854 C 0.03778 0.32329 0.98688 0.0
C855 C 0.09558 0.30576 0.98242 0.0
N856 N 0.97918 0.283 0.02379 0.0
N857 N 0.06825 0.28902 1.00015 0.0
H858 H 0.38281 0.09723 0.47522 0.0
H859 H 0.21002 0.96148 0.5631 0.0
H860 H 0.26945 0.07966 0.46638 0.0
H861 H 0.30385 0.94194 0.55097 0.0
H862 H 0.23509 1.01078 0.53132 0.0
H863 H 0.359 0.0477 0.50757 0.0
C864 C 0.3532 0.0837 0.48055 0.0
C865 C 0.32813 0.09287 0.46833 0.0
C866 C 0.25007 0.99551 0.53536 0.0
C867 C 0.30069 0.03602 0.50484 0.0
C868 C 0.23563 0.96717 0.55341 0.0
C869 C 0.25454 0.94715 0.55943 0.0
C870 C 0.28434 1.0048 0.52352 0.0
C871 C 0.28799 0.95618 0.54653 0.0
C872 C 0.33952 0.05506 0.49868 0.0
C873 C 0.28981 0.0737 0.47545 0.0
N874 N 0.3021 0.98467 0.52935 0.0
N875 N 0.27735 0.0464 0.49322 0.0
H876 H 0.72259 0.66657 0.05909 0.0
H877 H 0.78045 0.83148 0.95796 0.0
H878 H 0.8395 0.74843 0.04371 0.0
H879 H 0.66578 0.7439 0.97303 0.0
H880 H 0.80341 0.80555 0.99086 0.0
H881 H 0.70226 0.69629 0.02802 0.0
C882 C 0.74409 0.69052 0.0488 0.0
C883 C 0.78285 0.70477 0.05392 0.0
C884 C 0.77316 0.79252 0.98736 0.0
C885 C 0.75956 0.74002 0.0184 0.0
C886 C 0.76001 0.80778 0.96894 0.0
C887 C 0.72102 0.79055 0.96338 0.0
C888 C 0.7471 0.75951 1.00008 0.0
C889 C 0.69592 0.75873 0.97725 0.0
C890 C 0.73242 0.70776 0.03115 0.0
C891 C 0.80936 0.73612 0.0401 0.0
N892 N 0.70934 0.74423 0.99481 0.0
N893 N 0.79723 0.75289 0.02308 0.0
H894 H 0.07336 0.35306 0.56513 0.0
H895 H 0.99808 0.21534 0.44777 0.0
H896 H 0.12878 0.29283 0.53887 0.0
H897 H 0.93798 0.26731 0.47984 0.0
H898 H 0.04682 0.2443 0.4798 0.0
H899 H 0.02623 0.32479 0.53234 0.0
C900 C 0.07596 0.33417 0.55223 0.0
C901 C 0.10524 0.32531 0.55489 0.0
C902 C 1.02291 0.24922 0.47998 0.0
C903 C 0.05037 0.29212 0.51711 0.0
C904 C 0.99482 0.23254 0.46171 0.0
C905 C 0.96358 0.23876 0.46103 0.0
C906 C 1.02018 0.27269 0.49779 0.0
C907 C 0.96124 0.26142 0.47965 0.0
C908 C 0.04873 0.31782 0.53353 0.0
C909 C 0.10698 0.30075 0.53746 0.0
N910 N 0.98923 0.2777 0.49713 0.0
N911 N 0.07976 0.2848 0.51941 0.0
H912 H 0.65492 0.20337 0.13478 0.0
H913 H 0.42996 0.07942 0.10869 0.0
H914 H 0.60533 0.10181 0.09032 0.0
H915 H 0.48599 0.19104 0.14128 0.0
H916 H 0.49226 0.08288 0.10534 0.0
H917 H 0.59181 0.19549 0.14046 0.0
C918 C 0.63089 0.17948 0.12606 0.0
C919 C 0.63592 0.15344 0.11186 0.0
C920 C 0.49075 0.10648 0.11333 0.0
C921 C 0.5627 0.1438 0.11873 0.0
C922 C 0.45517 0.10441 0.11537 0.0
C923 C 0.4526 0.13503 0.12516 0.0
C924 C 0.52391 0.13923 0.12137 0.0
C925 C 0.48639 0.1668 0.13339 0.0
C926 C 0.59464 0.17484 0.12947 0.0
C927 C 0.60311 0.1225 0.10163 0.0
N928 N 0.52037 0.16804 0.13129 0.0
N929 N 0.56804 0.11861 0.10521 0.0
H930 H 0.6847 0.60768 0.37961 0.0
H931 H 0.59493 0.38159 0.39053 0.0
H932 H 0.74967 0.55 0.38315 0.0
H933 H 0.52831 0.43678 0.3998 0.0
H934 H 0.65033 0.443 0.38138 0.0
H935 H 0.62576 0.54547 0.38051 0.0
C936 C 0.68656 0.58199 0.38004 0.0
C937 C 0.72213 0.58403 0.38144 0.0
C938 C 0.62357 0.44175 0.38529 0.0
C939 C 0.65514 0.51304 0.38266 0.0
C940 C 0.59173 0.40651 0.39036 0.0
C941 C 0.55671 0.40375 0.3961 0.0
C942 C 0.62069 0.47485 0.38588 0.0
C943 C 0.55478 0.43745 0.39589 0.0
C944 C 0.65298 0.54654 0.38078 0.0
C945 C 0.72289 0.54983 0.38226 0.0
N946 N 0.58628 0.47154 0.39098 0.0
N947 N 0.69008 0.51597 0.38296 0.0
H948 H 0.95655 0.36066 0.11519 0.0
H949 H 0.8201 0.45181 0.12063 0.0
H950 H 0.83653 0.29786 0.13127 0.0
H951 H 0.93819 0.51608 0.09981 0.0
H952 H 0.82731 0.39618 0.12699 0.0
H953 H 0.95215 0.41881 0.11169 0.0
C954 C 0.9294 0.35906 0.11814 0.0
C955 C 0.8969 0.32411 0.12345 0.0
C956 C 0.85173 0.42244 0.12106 0.0
C957 C 0.89161 0.39055 0.11943 0.0
C958 C 0.84767 0.45441 0.11757 0.0
C959 C 0.87851 0.48891 0.10957 0.0
C960 C 0.88695 0.42468 0.11661 0.0
C961 C 0.91339 0.49005 0.1056 0.0
C962 C 0.92686 0.39226 0.11607 0.0
C963 C 0.86243 0.32392 0.12702 0.0
N964 N 0.91665 0.45852 0.10913 0.0
N965 N 0.86074 0.3564 0.12491 0.0
H966 H 0.43569 0.08175 0.41778 0.0
H967 H 0.65803 0.19449 0.38365 0.0
H968 H 0.4914 0.18792 0.37809 0.0
H969 H 0.61043 0.10179 0.43589 0.0
H970 H 0.5952 0.1876 0.37801 0.0
H971 H 0.49715 0.08322 0.42077 0.0
C972 C 0.46062 0.10504 0.40942 0.0
C973 C 0.45831 0.13483 0.39778 0.0
C974 C 0.59842 0.16867 0.39069 0.0
C975 C 0.52865 0.13678 0.40117 0.0
C976 C 0.63452 0.17278 0.39408 0.0
C977 C 0.64004 0.14897 0.41048 0.0
C978 C 0.56711 0.1404 0.40366 0.0
C979 C 0.60781 0.12068 0.42288 0.0
C980 C 0.49575 0.10602 0.41128 0.0
C981 C 0.49172 0.16446 0.38744 0.0
N982 N 0.57288 0.11727 0.41928 0.0
N983 N 0.52527 0.16467 0.38941 0.0
H984 H 0.58987 0.37703 0.11737 0.0
H985 H 0.67679 0.60046 0.14148 0.0
H986 H 0.51951 0.42803 0.12725 0.0
H987 H 0.7428 0.54748 0.12265 0.0
H988 H 0.61902 0.53742 0.14098 0.0
H989 H 0.64617 0.4389 0.12392 0.0
C990 C 0.58613 0.4011 0.12119 0.0
C991 C 0.54963 0.39702 0.12165 0.0
C992 C 0.64625 0.5397 0.13714 0.0
C993 C 0.61459 0.46873 0.12892 0.0
C994 C 0.67925 0.57564 0.13757 0.0
C995 C 0.71476 0.57943 0.13191 0.0
C996 C 0.64887 0.50733 0.13123 0.0
C997 C 0.7161 0.54619 0.12685 0.0
C998 C 0.61843 0.43664 0.12477 0.0
C999 C 0.54697 0.42973 0.12633 0.0
N1000 N 0.68383 0.51181 0.12657 0.0
N1001 N 0.57892 0.46411 0.12972 0.0
H1002 H 0.83731 0.4553 0.3866 0.0
H1003 H 0.96341 0.35528 0.40867 0.0
H1004 H 0.94349 0.50893 0.42697 0.0
H1005 H 0.84799 0.29792 0.38124 0.0
H1006 H 0.96047 0.41426 0.4115 0.0
H1007 H 0.84421 0.39953 0.38093 0.0
C1008 C 0.862 0.45538 0.39442 0.0
C1009 C 0.88968 0.48703 0.40746 0.0
C1010 C 0.9359 0.38873 0.40477 0.0
C1011 C 0.89814 0.42301 0.4006 0.0
C1012 C 0.93766 0.35514 0.40303 0.0
C1013 C 0.90584 0.32148 0.39488 0.0
C1014 C 0.90224 0.38867 0.39806 0.0
C1015 C 0.87314 0.32298 0.38788 0.0
C1016 C 0.86607 0.42351 0.39101 0.0
C1017 C 0.92155 0.4855 0.41657 0.0
N1018 N 0.87221 0.35584 0.38967 0.0
N1019 N 0.92485 0.45407 0.41302 0.0
H1020 H 0.18179 0.62365 0.57589 0.0
H1021 H 0.13053 0.44457 0.66399 0.0
H1022 H 0.1501 0.62174 0.65205 0.0
H1023 H 0.16593 0.4564 0.58795 0.0
H1024 H 0.13334 0.50681 0.66087 0.0
H1025 H 0.17287 0.56043 0.58083 0.0
C1026 C 0.17263 0.60982 0.59368 0.0
C1027 C 0.16634 0.62818 0.61347 0.0
C1028 C 0.14024 0.49549 0.6449 0.0
C1029 C 0.15644 0.55491 0.61951 0.0
C1030 C 0.13837 0.45992 0.64664 0.0
C1031 C 0.14837 0.44541 0.62628 0.0
C1032 C 0.15185 0.51623 0.62261 0.0
C1033 C 0.15852 0.46658 0.60427 0.0
C1034 C 0.16769 0.57355 0.59657 0.0
C1035 C 0.15545 0.60883 0.63628 0.0
N1036 N 0.16008 0.50064 0.6031 0.0
N1037 N 0.15076 0.57322 0.63868 0.0
H1038 H 0.3513 0.91334 0.85536 0.0
H1039 H 0.49035 0.87786 0.94442 0.0
H1040 H 0.34396 0.90479 0.93481 0.0
H1041 H 0.50862 0.89279 0.86574 0.0
H1042 H 0.43692 0.88875 0.9401 0.0
H1043 H 0.40964 0.90834 0.85754 0.0
C1044 C 0.36225 0.91113 0.87322 0.0
C1045 C 0.34252 0.90936 0.89492 0.0
C1046 C 0.45254 0.88983 0.92368 0.0
C1047 C 0.40869 0.90301 0.89754 0.0
C1048 C 0.4834 0.88375 0.92618 0.0
C1049 C 0.50465 0.88477 0.90549 0.0
C1050 C 0.44214 0.8969 0.90025 0.0
C1051 C 0.49312 0.89151 0.88225 0.0
C1052 C 0.39534 0.90793 0.87446 0.0
C1053 C 0.35784 0.90596 0.91754 0.0
N1054 N 0.46274 0.89737 0.88025 0.0
N1055 N 0.3896 0.90274 0.9182 0.0
H1056 H 0.60721 0.69128 0.65917 0.0
H1057 H 0.42475 0.56801 0.57318 0.0
H1058 H 0.6021 0.7062 0.5805 0.0
H1059 H 0.43161 0.5333 0.64767 0.0
H1060 H 0.48931 0.62058 0.57715 0.0
H1061 H 0.54342 0.63436 0.65686 0.0
C1062 C 0.59306 0.68235 0.64141 0.0
C1063 C 0.61013 0.7038 0.62003 0.0
C1064 C 0.47689 0.60148 0.59268 0.0
C1065 C 0.53703 0.63931 0.61734 0.0
C1066 C 0.43984 0.57117 0.59038 0.0
C1067 C 0.42246 0.54556 0.60998 0.0
C1068 C 0.49722 0.60692 0.61486 0.0
C1069 C 0.44355 0.55228 0.63206 0.0
C1070 C 0.55655 0.65003 0.64013 0.0
C1071 C 0.59018 0.69097 0.59756 0.0
N1072 N 0.47977 0.58223 0.6339 0.0
N1073 N 0.55488 0.65998 0.59688 0.0
H1074 H 0.1055 0.60186 0.91484 0.0
H1075 H 0.20479 0.48151 0.87918 0.0
H1076 H 0.21781 0.65088 0.88362 0.0
H1077 H 0.08405 0.42836 0.89125 0.0
H1078 H 0.20922 0.5436 0.88048 0.0
H1079 H 0.09623 0.53833 0.90677 0.0
C1080 C 0.12817 0.59935 0.90622 0.0
C1081 C 0.16256 0.63202 0.89996 0.0
C1082 C 0.1816 0.51848 0.88254 0.0
C1083 C 0.15207 0.55915 0.89068 0.0
C1084 C 0.17903 0.48293 0.88174 0.0
C1085 C 0.14396 0.44964 0.88502 0.0
C1086 C 0.14898 0.52117 0.8872 0.0
C1087 C 0.11158 0.45327 0.88837 0.0
C1088 C 0.12273 0.56302 0.90147 0.0
C1089 C 0.19068 0.62676 0.88857 0.0
N1090 N 0.11493 0.48842 0.88974 0.0
N1091 N 0.18494 0.59123 0.88454 0.0
H1092 H 0.32105 0.84425 0.64686 0.0
H1093 H 0.52887 0.93499 0.58795 0.0
H1094 H 0.37291 0.95185 0.60882 0.0
H1095 H 0.4793 0.83644 0.63535 0.0
H1096 H 0.47354 0.94298 0.5953 0.0
H1097 H 0.37999 0.84265 0.64321 0.0
C1098 C 0.345 0.86779 0.63784 0.0
C1099 C 0.34181 0.89818 0.62804 0.0
C1100 C 0.47497 0.91981 0.60423 0.0
C1101 C 0.41002 0.89629 0.6235 0.0
C1102 C 0.50649 0.91506 0.59994 0.0
C1103 C 0.50901 0.88491 0.61101 0.0
C1104 C 0.44541 0.89406 0.61955 0.0
C1105 C 0.47915 0.86038 0.62661 0.0
C1106 C 0.37881 0.86684 0.63577 0.0
C1107 C 0.37408 0.92793 0.61674 0.0
N1108 N 0.44872 0.86536 0.63024 0.0
N1109 N 0.40672 0.92605 0.61453 0.0
H1110 H 0.55734 0.73637 0.89428 0.0
H1111 H 0.4344 0.50979 0.90087 0.0
H1112 H 0.60792 0.66559 0.88493 0.0
H1113 H 0.38742 0.58454 0.90334 0.0
H1114 H 0.49758 0.56494 0.89404 0.0
H1115 H 0.49506 0.68012 0.89656 0.0
C1116 C 0.5554 0.70889 0.89266 0.0
C1117 C 0.58821 0.70587 0.88964 0.0
C1118 C 0.4734 0.5692 0.89598 0.0
C1119 C 0.516 0.64052 0.89237 0.0
C1120 C 0.43719 0.53768 0.89978 0.0
C1121 C 0.40525 0.54232 0.90283 0.0
C1122 C 0.47788 0.60577 0.89523 0.0
C1123 C 0.41103 0.57937 0.90156 0.0
C1124 C 0.51959 0.67662 0.89392 0.0
C1125 C 0.58349 0.66932 0.88728 0.0
N1126 N 0.44645 0.60946 0.89794 0.0
N1127 N 0.54807 0.63802 0.88892 0.0
loop_
_geom_bond_atom_site_label_1
_geom_bond_atom_site_label_2
_geom_bond_distance
_geom_bond_site_symmetry_2
_ccdc_geom_bond_type
Tb0 C10 2.825 . S
Tb0 O11 2.347 . S
Tb0 O14 2.366 . S
Tb0 O19 2.418 . S
Tb0 O20 2.384 . S
Tb0 O23 2.479 . S
Tb0 O24 2.471 . S
Eu1 O12 2.418 . S
Eu1 O13 2.384 . S
Eu1 O16 2.479 . S
Eu1 O17 2.471 . S
Eu1 O18 2.347 . S
Eu1 O21 2.366 . S
Eu1 C31 2.825 . S
C2 O18 1.259 . S
C2 O19 1.265 . S
C3 O20 1.255 . S
C3 O21 1.265 . S
C4 C6 1.380 . S
C4 C7 1.374 . S
C4 C10 1.507 . S
C5 C6 1.384 . S
C5 C9 1.387 . S
C5 H32 0.930 . S
C6 C4 1.380 . S
C6 C5 1.384 . S
C6 H33 0.931 . S
C7 C4 1.374 . S
C7 C8 1.390 . S
C7 H34 0.930 . S
C8 C7 1.390 . S
C8 C9 1.391 . S
C8 H35 0.930 . S
C9 C5 1.387 . S
C9 C8 1.391 . S
C10 Tb0 2.825 . S
C10 C4 1.507 . S
C10 O23 1.238 . S
C10 O24 1.247 . S
O11 Tb0 2.347 . S
O11 C15 1.259 . S
O12 Eu1 2.418 . S
O12 C15 1.265 . S
O13 Eu1 2.384 . S
O13 C22 1.255 . S
O14 Tb0 2.366 . S
O14 C22 1.265 . S
C15 O11 1.259 . S
C15 O12 1.265 . S
O16 Eu1 2.479 . S
O16 C31 1.238 . S
O17 Eu1 2.471 . S
O17 C31 1.247 . S
O18 Eu1 2.347 . S
O18 C2 1.259 . S
O19 Tb0 2.418 . S
O19 C2 1.265 . S
O20 Tb0 2.384 . S
O20 C3 1.255 . S
O21 Eu1 2.366 . S
O21 C3 1.265 . S
C22 O13 1.255 . S
C22 O14 1.265 . S
O23 Tb0 2.479 . S
O23 C10 1.238 . S
O24 Tb0 2.471 . S
O24 C10 1.247 . S
C25 C28 1.380 . S
C25 C29 1.374 . S
C25 C31 1.507 1_565 S
C26 C27 1.387 . S
C26 C30 1.391 . S
C27 C26 1.387 . S
C27 C28 1.384 . S
C27 H36 0.930 . S
C28 C25 1.380 . S
C28 C27 1.384 . S
C28 H37 0.931 . S
C29 C25 1.374 . S
C29 C30 1.390 . S
C29 H38 0.926 1_565 S
C30 C26 1.391 . S
C30 C29 1.390 . S
C30 H39 0.930 . S
C31 Eu1 2.825 . S
C31 O16 1.238 . S
C31 O17 1.247 . S
C31 C25 1.507 1_545 S
H32 C5 0.930 . S
H33 C6 0.931 . S
H34 C7 0.930 . S
H35 C8 0.930 . S
H36 C27 0.930 . S
H37 C28 0.931 . S
H38 C29 0.926 1_545 S
H39 C30 0.930 . S
Tb40 C50 2.825 . S
Tb40 O51 2.347 . S
Tb40 O54 2.366 . S
Tb40 O59 2.418 . S
Tb40 O60 2.384 . S
Tb40 O63 2.479 . S
Tb40 O64 2.471 . S
Eu41 O52 2.418 . S
Eu41 O53 2.384 . S
Eu41 O56 2.479 . S
Eu41 O57 2.471 . S
Eu41 O58 2.347 . S
Eu41 O61 2.366 . S
Eu41 C71 2.825 . S
C42 O58 1.259 . S
C42 O59 1.265 . S
C43 O60 1.255 . S
C43 O61 1.265 . S
C44 C46 1.380 . S
C44 C47 1.374 . S
C44 C50 1.507 . S
C45 C46 1.384 . S
C45 C49 1.387 . S
C45 H72 0.930 . S
C46 C44 1.380 . S
C46 C45 1.384 . S
C46 H73 0.931 . S
C47 C44 1.374 . S
C47 C48 1.390 . S
C47 H74 0.930 . S
C48 C47 1.390 . S
C48 C49 1.391 . S
C48 H75 0.930 . S
C49 C45 1.387 . S
C49 C48 1.391 . S
C50 Tb40 2.825 . S
C50 C44 1.507 . S
C50 O63 1.238 . S
C50 O64 1.247 . S
O51 Tb40 2.347 . S
O51 C55 1.259 . S
O52 Eu41 2.418 . S
O52 C55 1.265 . S
O53 Eu41 2.384 . S
O53 C62 1.255 . S
O54 Tb40 2.366 . S
O54 C62 1.265 . S
C55 O51 1.259 . S
C55 O52 1.265 . S
O56 Eu41 2.479 . S
O56 C71 1.238 . S
O57 Eu41 2.471 . S
O57 C71 1.247 . S
O58 Eu41 2.347 . S
O58 C42 1.259 . S
O59 Tb40 2.418 . S
O59 C42 1.265 . S
O60 Tb40 2.384 . S
O60 C43 1.255 . S
O61 Eu41 2.366 . S
O61 C43 1.265 . S
C62 O53 1.255 . S
C62 O54 1.265 . S
O63 Tb40 2.479 . S
O63 C50 1.238 . S
O64 Tb40 2.471 . S
O64 C50 1.247 . S
C65 C68 1.380 . S
C65 C69 1.374 . S
C65 C71 1.507 . S
C66 C67 1.387 . S
C66 C70 1.391 . S
C67 C66 1.387 . S
C67 C68 1.384 . S
C67 H76 0.930 . S
C68 C65 1.380 . S
C68 C67 1.384 . S
C68 H77 0.931 . S
C69 C65 1.374 . S
C69 C70 1.390 . S
C69 H78 0.930 . S
C70 C66 1.391 . S
C70 C69 1.390 . S
C70 H79 0.930 . S
C71 Eu41 2.825 . S
C71 O56 1.238 . S
C71 O57 1.247 . S
C71 C65 1.507 . S
H72 C45 0.930 . S
H73 C46 0.931 . S
H74 C47 0.930 . S
H75 C48 0.930 . S
H76 C67 0.930 . S
H77 C68 0.931 . S
H78 C69 0.930 . S
H79 C70 0.930 . S
Tb80 C90 2.825 . S
Tb80 O91 2.347 . S
Tb80 O94 2.366 . S
Tb80 O99 2.418 . S
Tb80 O100 2.384 . S
Tb80 O103 2.479 . S
Tb80 O104 2.471 . S
Eu81 O92 2.418 . S
Eu81 O93 2.384 . S
Eu81 O96 2.479 . S
Eu81 O97 2.471 . S
Eu81 O98 2.347 . S
Eu81 O101 2.366 . S
Eu81 C111 2.825 . S
C82 O98 1.259 . S
C82 O99 1.265 . S
C83 O100 1.255 . S
C83 O101 1.265 . S
C84 C86 1.380 . S
C84 C87 1.374 . S
C84 C90 1.507 . S
C85 C86 1.384 . S
C85 C89 1.387 . S
C85 H112 0.930 . S
C86 C84 1.380 . S
C86 C85 1.384 . S
C86 H113 0.931 . S
C87 C84 1.374 . S
C87 C88 1.390 . S
C87 H114 0.930 . S
C88 C87 1.390 . S
C88 C89 1.391 . S
C88 H115 0.930 . S
C89 C85 1.387 . S
C89 C88 1.391 . S
C90 Tb80 2.825 . S
C90 C84 1.507 . S
C90 O103 1.238 . S
C90 O104 1.247 . S
O91 Tb80 2.347 . S
O91 C95 1.259 . S
O92 Eu81 2.418 . S
O92 C95 1.265 . S
O93 Eu81 2.384 . S
O93 C102 1.255 . S
O94 Tb80 2.366 . S
O94 C102 1.265 . S
C95 O91 1.259 . S
C95 O92 1.265 . S
O96 Eu81 2.479 . S
O96 C111 1.238 . S
O97 Eu81 2.471 . S
O97 C111 1.247 . S
O98 Eu81 2.347 . S
O98 C82 1.259 . S
O99 Tb80 2.418 . S
O99 C82 1.265 . S
O100 Tb80 2.384 . S
O100 C83 1.255 . S
O101 Eu81 2.366 . S
O101 C83 1.265 . S
C102 O93 1.255 . S
C102 O94 1.265 . S
O103 Tb80 2.479 . S
O103 C90 1.238 . S
O104 Tb80 2.471 . S
O104 C90 1.247 . S
C105 C108 1.380 . S
C105 C109 1.374 . S
C105 C111 1.507 1_455 S
C106 C107 1.387 . S
C106 C110 1.391 . S
C107 C106 1.387 . S
C107 C108 1.384 . S
C107 H116 0.930 . S
C108 C105 1.380 . S
C108 C107 1.384 . S
C108 H117 0.931 . S
C109 C105 1.374 . S
C109 C110 1.390 . S
C109 H118 0.923 1_455 S
C110 C106 1.391 . S
C110 C109 1.390 . S
C110 H119 0.930 . S
C111 Eu81 2.825 . S
C111 O96 1.238 . S
C111 O97 1.247 . S
C111 C105 1.507 1_655 S
H112 C85 0.930 . S
H113 C86 0.931 . S
H114 C87 0.930 . S
H115 C88 0.930 . S
H116 C107 0.930 . S
H117 C108 0.931 . S
H118 C109 0.923 1_655 S
H119 C110 0.930 . S
Tb120 C130 2.825 . S
Tb120 O131 2.347 . S
Tb120 O134 2.366 . S
Tb120 O139 2.418 . S
Tb120 O140 2.384 . S
Tb120 O143 2.479 . S
Tb120 O144 2.471 . S
Eu121 O132 2.418 . S
Eu121 O133 2.384 . S
Eu121 O136 2.479 . S
Eu121 O137 2.471 . S
Eu121 O138 2.347 . S
Eu121 O141 2.366 . S
Eu121 C151 2.825 . S
C122 O138 1.259 . S
C122 O139 1.265 . S
C123 O140 1.255 . S
C123 O141 1.265 . S
C124 C126 1.380 . S
C124 C127 1.374 . S
C124 C130 1.507 1_565 S
C125 C126 1.384 . S
C125 C129 1.387 . S
C125 H152 0.930 . S
C126 C124 1.380 . S
C126 C125 1.384 . S
C126 H153 0.931 . S
C127 C124 1.374 . S
C127 C128 1.390 . S
C127 H154 0.926 1_565 S
C128 C127 1.390 . S
C128 C129 1.391 . S
C128 H155 0.930 . S
C129 C125 1.387 . S
C129 C128 1.391 . S
C130 Tb120 2.825 . S
C130 C124 1.507 1_545 S
C130 O143 1.238 . S
C130 O144 1.247 . S
O131 Tb120 2.347 . S
O131 C135 1.259 . S
O132 Eu121 2.418 . S
O132 C135 1.265 . S
O133 Eu121 2.384 . S
O133 C142 1.255 . S
O134 Tb120 2.366 . S
O134 C142 1.265 . S
C135 O131 1.259 . S
C135 O132 1.265 . S
O136 Eu121 2.479 . S
O136 C151 1.238 . S
O137 Eu121 2.471 . S
O137 C151 1.247 . S
O138 Eu121 2.347 . S
O138 C122 1.259 . S
O139 Tb120 2.418 . S
O139 C122 1.265 . S
O140 Tb120 2.384 . S
O140 C123 1.255 . S
O141 Eu121 2.366 . S
O141 C123 1.265 . S
C142 O133 1.255 . S
C142 O134 1.265 . S
O143 Tb120 2.479 . S
O143 C130 1.238 . S
O144 Tb120 2.471 . S
O144 C130 1.247 . S
C145 C148 1.380 . S
C145 C149 1.374 . S
C145 C151 1.507 . S
C146 C147 1.387 . S
C146 C150 1.391 . S
C147 C146 1.387 . S
C147 C148 1.384 . S
C147 H156 0.930 . S
C148 C145 1.380 . S
C148 C147 1.384 . S
C148 H157 0.931 . S
C149 C145 1.374 . S
C149 C150 1.390 . S
C149 H158 0.930 . S
C150 C146 1.391 . S
C150 C149 1.390 . S
C150 H159 0.930 . S
C151 Eu121 2.825 . S
C151 O136 1.238 . S
C151 O137 1.247 . S
C151 C145 1.507 . S
H152 C125 0.930 . S
H153 C126 0.931 . S
H154 C127 0.926 1_545 S
H155 C128 0.930 . S
H156 C147 0.930 . S
H157 C148 0.931 . S
H158 C149 0.930 . S
H159 C150 0.930 . S
Tb160 C170 2.825 . S
Tb160 O171 2.347 . S
Tb160 O174 2.366 . S
Tb160 O179 2.418 . S
Tb160 O180 2.384 . S
Tb160 O183 2.479 . S
Tb160 O184 2.471 . S
Eu161 O172 2.418 . S
Eu161 O173 2.384 . S
Eu161 O176 2.479 . S
Eu161 O177 2.471 . S
Eu161 O178 2.347 . S
Eu161 O181 2.366 . S
Eu161 C191 2.825 . S
C162 O178 1.259 . S
C162 O179 1.265 . S
C163 O180 1.255 . S
C163 O181 1.265 . S
C164 C166 1.380 . S
C164 C167 1.374 . S
C164 C170 1.507 . S
C165 C166 1.384 . S
C165 C169 1.387 . S
C165 H192 0.930 . S
C166 C164 1.380 . S
C166 C165 1.384 . S
C166 H193 0.931 . S
C167 C164 1.374 . S
C167 C168 1.390 . S
C167 H194 0.930 . S
C168 C167 1.390 . S
C168 C169 1.391 . S
C168 H195 0.930 . S
C169 C165 1.387 . S
C169 C168 1.391 . S
C170 Tb160 2.825 . S
C170 C164 1.507 . S
C170 O183 1.238 . S
C170 O184 1.247 . S
O171 Tb160 2.347 . S
O171 C175 1.259 . S
O172 Eu161 2.418 . S
O172 C175 1.265 . S
O173 Eu161 2.384 . S
O173 C182 1.255 . S
O174 Tb160 2.366 . S
O174 C182 1.265 . S
C175 O171 1.259 . S
C175 O172 1.265 . S
O176 Eu161 2.479 . S
O176 C191 1.238 . S
O177 Eu161 2.471 . S
O177 C191 1.247 . S
O178 Eu161 2.347 . S
O178 C162 1.259 . S
O179 Tb160 2.418 . S
O179 C162 1.265 . S
O180 Tb160 2.384 . S
O180 C163 1.255 . S
O181 Eu161 2.366 . S
O181 C163 1.265 . S
C182 O173 1.255 . S
C182 O174 1.265 . S
O183 Tb160 2.479 . S
O183 C170 1.238 . S
O184 Tb160 2.471 . S
O184 C170 1.247 . S
C185 C188 1.380 . S
C185 C189 1.374 . S
C185 C191 1.507 . S
C186 C187 1.387 . S
C186 C190 1.391 . S
C187 C186 1.387 . S
C187 C188 1.384 . S
C187 H196 0.930 . S
C188 C185 1.380 . S
C188 C187 1.384 . S
C188 H197 0.931 . S
C189 C185 1.374 . S
C189 C190 1.390 . S
C189 H198 0.930 . S
C190 C186 1.391 . S
C190 C189 1.390 . S
C190 H199 0.930 . S
C191 Eu161 2.825 . S
C191 O176 1.238 . S
C191 O177 1.247 . S
C191 C185 1.507 . S
H192 C165 0.930 . S
H193 C166 0.931 . S
H194 C167 0.930 . S
H195 C168 0.930 . S
H196 C187 0.930 . S
H197 C188 0.931 . S
H198 C189 0.930 . S
H199 C190 0.930 . S
Tb200 C210 2.825 . S
Tb200 O211 2.347 . S
Tb200 O214 2.366 . S
Tb200 O219 2.418 . S
Tb200 O220 2.384 . S
Tb200 O223 2.479 . S
Tb200 O224 2.471 . S
Eu201 O212 2.418 . S
Eu201 O213 2.384 . S
Eu201 O216 2.479 . S
Eu201 O217 2.471 . S
Eu201 O218 2.347 . S
Eu201 O221 2.366 . S
Eu201 C231 2.825 . S
C202 O218 1.259 . S
C202 O219 1.265 . S
C203 O220 1.255 . S
C203 O221 1.265 . S
C204 C206 1.380 . S
C204 C207 1.374 . S
C204 C210 1.507 1_455 S
C205 C206 1.384 . S
C205 C209 1.387 . S
C205 H232 0.930 . S
C206 C204 1.380 . S
C206 C205 1.384 . S
C206 H233 0.931 . S
C207 C204 1.374 . S
C207 C208 1.390 . S
C207 H234 0.923 1_455 S
C208 C207 1.390 . S
C208 C209 1.391 . S
C208 H235 0.930 . S
C209 C205 1.387 . S
C209 C208 1.391 . S
C210 Tb200 2.825 . S
C210 C204 1.507 1_655 S
C210 O223 1.238 . S
C210 O224 1.247 . S
O211 Tb200 2.347 . S
O211 C215 1.259 . S
O212 Eu201 2.418 . S
O212 C215 1.265 . S
O213 Eu201 2.384 . S
O213 C222 1.255 . S
O214 Tb200 2.366 . S
O214 C222 1.265 . S
C215 O211 1.259 . S
C215 O212 1.265 . S
O216 Eu201 2.479 . S
O216 C231 1.238 . S
O217 Eu201 2.471 . S
O217 C231 1.247 . S
O218 Eu201 2.347 . S
O218 C202 1.259 . S
O219 Tb200 2.418 . S
O219 C202 1.265 . S
O220 Tb200 2.384 . S
O220 C203 1.255 . S
O221 Eu201 2.366 . S
O221 C203 1.265 . S
C222 O213 1.255 . S
C222 O214 1.265 . S
O223 Tb200 2.479 . S
O223 C210 1.238 . S
O224 Tb200 2.471 . S
O224 C210 1.247 . S
C225 C228 1.380 . S
C225 C229 1.374 . S
C225 C231 1.507 . S
C226 C227 1.387 . S
C226 C230 1.391 . S
C227 C226 1.387 . S
C227 C228 1.384 . S
C227 H236 0.930 . S
C228 C225 1.380 . S
C228 C227 1.384 . S
C228 H237 0.931 . S
C229 C225 1.374 . S
C229 C230 1.390 . S
C229 H238 0.930 . S
C230 C226 1.391 . S
C230 C229 1.390 . S
C230 H239 0.930 . S
C231 Eu201 2.825 . S
C231 O216 1.238 . S
C231 O217 1.247 . S
C231 C225 1.507 . S
H232 C205 0.930 . S
H233 C206 0.931 . S
H234 C207 0.923 1_655 S
H235 C208 0.930 . S
H236 C227 0.930 . S
H237 C228 0.931 . S
H238 C229 0.930 . S
H239 C230 0.930 . S
Tb240 C250 2.825 . S
Tb240 O251 2.347 . S
Tb240 O254 2.366 . S
Tb240 O259 2.418 . S
Tb240 O260 2.384 . S
Tb240 O263 2.479 . S
Tb240 O264 2.471 . S
Eu241 O252 2.418 . S
Eu241 O253 2.384 . S
Eu241 O256 2.479 . S
Eu241 O257 2.471 . S
Eu241 O258 2.347 . S
Eu241 O261 2.366 . S
Eu241 C271 2.825 . S
C242 O258 1.259 . S
C242 O259 1.265 . S
C243 O260 1.255 . S
C243 O261 1.265 . S
C244 C246 1.380 . S
C244 C247 1.374 . S
C244 C250 1.507 1_655 S
C245 C246 1.384 . S
C245 C249 1.387 . S
C245 H272 0.930 . S
C246 C244 1.380 . S
C246 C245 1.384 . S
C246 H273 0.931 . S
C247 C244 1.374 . S
C247 C248 1.390 . S
C247 H274 0.926 1_655 S
C248 C247 1.390 . S
C248 C249 1.391 . S
C248 H275 0.930 . S
C249 C245 1.387 . S
C249 C248 1.391 . S
C250 Tb240 2.825 . S
C250 C244 1.507 1_455 S
C250 O263 1.238 . S
C250 O264 1.247 . S
O251 Tb240 2.347 . S
O251 C255 1.259 . S
O252 Eu241 2.418 . S
O252 C255 1.265 . S
O253 Eu241 2.384 . S
O253 C262 1.255 . S
O254 Tb240 2.366 . S
O254 C262 1.265 . S
C255 O251 1.259 . S
C255 O252 1.265 . S
O256 Eu241 2.479 . S
O256 C271 1.238 . S
O257 Eu241 2.471 . S
O257 C271 1.247 . S
O258 Eu241 2.347 . S
O258 C242 1.259 . S
O259 Tb240 2.418 . S
O259 C242 1.265 . S
O260 Tb240 2.384 . S
O260 C243 1.255 . S
O261 Eu241 2.366 . S
O261 C243 1.265 . S
C262 O253 1.255 . S
C262 O254 1.265 . S
O263 Tb240 2.479 . S
O263 C250 1.238 . S
O264 Tb240 2.471 . S
O264 C250 1.247 . S
C265 C268 1.380 . S
C265 C269 1.374 . S
C265 C271 1.507 . S
C266 C267 1.387 . S
C266 C270 1.391 . S
C267 C266 1.387 . S
C267 C268 1.384 . S
C267 H276 0.930 . S
C268 C265 1.380 . S
C268 C267 1.384 . S
C268 H277 0.931 . S
C269 C265 1.374 . S
C269 C270 1.390 . S
C269 H278 0.930 . S
C270 C266 1.391 . S
C270 C269 1.390 . S
C270 H279 0.930 . S
C271 Eu241 2.825 . S
C271 O256 1.238 . S
C271 O257 1.247 . S
C271 C265 1.507 . S
H272 C245 0.930 . S
H273 C246 0.931 . S
H274 C247 0.926 1_455 S
H275 C248 0.930 . S
H276 C267 0.930 . S
H277 C268 0.931 . S
H278 C269 0.930 . S
H279 C270 0.930 . S
Tb280 C290 2.825 . S
Tb280 O291 2.347 . S
Tb280 O294 2.366 . S
Tb280 O299 2.418 . S
Tb280 O300 2.384 . S
Tb280 O303 2.479 . S
Tb280 O304 2.471 . S
Eu281 O292 2.418 . S
Eu281 O293 2.384 . S
Eu281 O296 2.479 . S
Eu281 O297 2.471 . S
Eu281 O298 2.347 . S
Eu281 O301 2.366 . S
Eu281 C311 2.825 . S
C282 O298 1.259 . S
C282 O299 1.265 . S
C283 O300 1.255 . S
C283 O301 1.265 . S
C284 C286 1.380 . S
C284 C287 1.374 . S
C284 C290 1.507 . S
C285 C286 1.384 . S
C285 C289 1.387 . S
C285 H312 0.930 . S
C286 C284 1.380 . S
C286 C285 1.384 . S
C286 H313 0.931 . S
C287 C284 1.374 . S
C287 C288 1.390 . S
C287 H314 0.930 . S
C288 C287 1.390 . S
C288 C289 1.391 . S
C288 H315 0.930 . S
C289 C285 1.387 . S
C289 C288 1.391 . S
C290 Tb280 2.825 . S
C290 C284 1.507 . S
C290 O303 1.238 . S
C290 O304 1.247 . S
O291 Tb280 2.347 . S
O291 C295 1.259 . S
O292 Eu281 2.418 . S
O292 C295 1.265 . S
O293 Eu281 2.384 . S
O293 C302 1.255 . S
O294 Tb280 2.366 . S
O294 C302 1.265 . S
C295 O291 1.259 . S
C295 O292 1.265 . S
O296 Eu281 2.479 . S
O296 C311 1.238 . S
O297 Eu281 2.471 . S
O297 C311 1.247 . S
O298 Eu281 2.347 . S
O298 C282 1.259 . S
O299 Tb280 2.418 . S
O299 C282 1.265 . S
O300 Tb280 2.384 . S
O300 C283 1.255 . S
O301 Eu281 2.366 . S
O301 C283 1.265 . S
C302 O293 1.255 . S
C302 O294 1.265 . S
O303 Tb280 2.479 . S
O303 C290 1.238 . S
O304 Tb280 2.471 . S
O304 C290 1.247 . S
C305 C308 1.380 . S
C305 C309 1.374 . S
C305 C311 1.507 1_545 S
C306 C307 1.387 . S
C306 C310 1.391 . S
C307 C306 1.387 . S
C307 C308 1.384 . S
C307 H316 0.930 . S
C308 C305 1.380 . S
C308 C307 1.384 . S
C308 H317 0.931 . S
C309 C305 1.374 . S
C309 C310 1.390 . S
C309 H318 0.923 1_545 S
C310 C306 1.391 . S
C310 C309 1.390 . S
C310 H319 0.930 . S
C311 Eu281 2.825 . S
C311 O296 1.238 . S
C311 O297 1.247 . S
C311 C305 1.507 1_565 S
H312 C285 0.930 . S
H313 C286 0.931 . S
H314 C287 0.930 . S
H315 C288 0.930 . S
H316 C307 0.930 . S
H317 C308 0.931 . S
H318 C309 0.923 1_565 S
H319 C310 0.930 . S
Tb320 C330 2.825 . S
Tb320 O331 2.347 . S
Tb320 O334 2.366 . S
Tb320 O339 2.418 . S
Tb320 O340 2.384 . S
Tb320 O343 2.479 . S
Tb320 O344 2.471 . S
Eu321 O332 2.418 . S
Eu321 O333 2.384 . S
Eu321 O336 2.479 . S
Eu321 O337 2.471 . S
Eu321 O338 2.347 . S
Eu321 O341 2.366 . S
Eu321 C351 2.825 . S
C322 O338 1.259 . S
C322 O339 1.265 . S
C323 O340 1.255 . S
C323 O341 1.265 . S
C324 C326 1.380 . S
C324 C327 1.374 . S
C324 C330 1.507 . S
C325 C326 1.384 . S
C325 C329 1.387 . S
C325 H352 0.930 . S
C326 C324 1.380 . S
C326 C325 1.384 . S
C326 H353 0.931 . S
C327 C324 1.374 . S
C327 C328 1.390 . S
C327 H354 0.930 . S
C328 C327 1.390 . S
C328 C329 1.391 . S
C328 H355 0.930 . S
C329 C325 1.387 . S
C329 C328 1.391 . S
C330 Tb320 2.825 . S
C330 C324 1.507 . S
C330 O343 1.238 . S
C330 O344 1.247 . S
O331 Tb320 2.347 . S
O331 C335 1.259 . S
O332 Eu321 2.418 . S
O332 C335 1.265 . S
O333 Eu321 2.384 . S
O333 C342 1.255 . S
O334 Tb320 2.366 . S
O334 C342 1.265 . S
C335 O331 1.259 . S
C335 O332 1.265 . S
O336 Eu321 2.479 . S
O336 C351 1.238 . S
O337 Eu321 2.471 . S
O337 C351 1.247 . S
O338 Eu321 2.347 . S
O338 C322 1.259 . S
O339 Tb320 2.418 . S
O339 C322 1.265 . S
O340 Tb320 2.384 . S
O340 C323 1.255 . S
O341 Eu321 2.366 . S
O341 C323 1.265 . S
C342 O333 1.255 . S
C342 O334 1.265 . S
O343 Tb320 2.479 . S
O343 C330 1.238 . S
O344 Tb320 2.471 . S
O344 C330 1.247 . S
C345 C348 1.380 . S
C345 C349 1.374 . S
C345 C351 1.507 . S
C346 C347 1.387 . S
C346 C350 1.391 . S
C347 C346 1.387 . S
C347 C348 1.384 . S
C347 H356 0.930 . S
C348 C345 1.380 . S
C348 C347 1.384 . S
C348 H357 0.931 . S
C349 C345 1.374 . S
C349 C350 1.390 . S
C349 H358 0.930 . S
C350 C346 1.391 . S
C350 C349 1.390 . S
C350 H359 0.930 . S
C351 Eu321 2.825 . S
C351 O336 1.238 . S
C351 O337 1.247 . S
C351 C345 1.507 . S
H352 C325 0.930 . S
H353 C326 0.931 . S
H354 C327 0.930 . S
H355 C328 0.930 . S
H356 C347 0.930 . S
H357 C348 0.931 . S
H358 C349 0.930 . S
H359 C350 0.930 . S
Tb360 C370 2.825 . S
Tb360 O371 2.347 . S
Tb360 O374 2.366 . S
Tb360 O379 2.418 . S
Tb360 O380 2.384 . S
Tb360 O383 2.479 . S
Tb360 O384 2.471 . S
Eu361 O372 2.418 . S
Eu361 O373 2.384 . S
Eu361 O376 2.479 . S
Eu361 O377 2.471 . S
Eu361 O378 2.347 . S
Eu361 O381 2.366 . S
Eu361 C391 2.825 . S
C362 O378 1.259 . S
C362 O379 1.265 . S
C363 O380 1.255 . S
C363 O381 1.265 . S
C364 C366 1.380 . S
C364 C367 1.374 . S
C364 C370 1.507 . S
C365 C366 1.384 . S
C365 C369 1.387 . S
C365 H392 0.930 . S
C366 C364 1.380 . S
C366 C365 1.384 . S
C366 H393 0.931 . S
C367 C364 1.374 . S
C367 C368 1.390 . S
C367 H394 0.930 . S
C368 C367 1.390 . S
C368 C369 1.391 . S
C368 H395 0.930 . S
C369 C365 1.387 . S
C369 C368 1.391 . S
C370 Tb360 2.825 . S
C370 C364 1.507 . S
C370 O383 1.238 . S
C370 O384 1.247 . S
O371 Tb360 2.347 . S
O371 C375 1.259 . S
O372 Eu361 2.418 . S
O372 C375 1.265 . S
O373 Eu361 2.384 . S
O373 C382 1.255 . S
O374 Tb360 2.366 . S
O374 C382 1.265 . S
C375 O371 1.259 . S
C375 O372 1.265 . S
O376 Eu361 2.479 . S
O376 C391 1.238 . S
O377 Eu361 2.471 . S
O377 C391 1.247 . S
O378 Eu361 2.347 . S
O378 C362 1.259 . S
O379 Tb360 2.418 . S
O379 C362 1.265 . S
O380 Tb360 2.384 . S
O380 C363 1.255 . S
O381 Eu361 2.366 . S
O381 C363 1.265 . S
C382 O373 1.255 . S
C382 O374 1.265 . S
O383 Tb360 2.479 . S
O383 C370 1.238 . S
O384 Tb360 2.471 . S
O384 C370 1.247 . S
C385 C388 1.380 . S
C385 C389 1.374 . S
C385 C391 1.507 1_655 S
C386 C387 1.387 . S
C386 C390 1.391 . S
C387 C386 1.387 . S
C387 C388 1.384 . S
C387 H396 0.930 . S
C388 C385 1.380 . S
C388 C387 1.384 . S
C388 H397 0.931 . S
C389 C385 1.374 . S
C389 C390 1.390 . S
C389 H398 0.926 1_655 S
C390 C386 1.391 . S
C390 C389 1.390 . S
C390 H399 0.930 . S
C391 Eu361 2.825 . S
C391 O376 1.238 . S
C391 O377 1.247 . S
C391 C385 1.507 1_455 S
H392 C365 0.930 . S
H393 C366 0.931 . S
H394 C367 0.930 . S
H395 C368 0.930 . S
H396 C387 0.930 . S
H397 C388 0.931 . S
H398 C389 0.926 1_455 S
H399 C390 0.930 . S
Tb400 C410 2.825 . S
Tb400 O411 2.347 . S
Tb400 O414 2.366 . S
Tb400 O419 2.418 . S
Tb400 O420 2.384 . S
Tb400 O423 2.479 . S
Tb400 O424 2.471 . S
Eu401 O412 2.418 . S
Eu401 O413 2.384 . S
Eu401 O416 2.479 . S
Eu401 O417 2.471 . S
Eu401 O418 2.347 . S
Eu401 O421 2.366 . S
Eu401 C431 2.825 . S
C402 O418 1.259 . S
C402 O419 1.265 . S
C403 O420 1.255 . S
C403 O421 1.265 . S
C404 C406 1.380 . S
C404 C407 1.374 . S
C404 C410 1.507 1_545 S
C405 C406 1.384 . S
C405 C409 1.387 . S
C405 H432 0.930 . S
C406 C404 1.380 . S
C406 C405 1.384 . S
C406 H433 0.931 . S
C407 C404 1.374 . S
C407 C408 1.390 . S
C407 H434 0.923 1_545 S
C408 C407 1.390 . S
C408 C409 1.391 . S
C408 H435 0.930 . S
C409 C405 1.387 . S
C409 C408 1.391 . S
C410 Tb400 2.825 . S
C410 C404 1.507 1_565 S
C410 O423 1.238 . S
C410 O424 1.247 . S
O411 Tb400 2.347 . S
O411 C415 1.259 . S
O412 Eu401 2.418 . S
O412 C415 1.265 . S
O413 Eu401 2.384 . S
O413 C422 1.255 . S
O414 Tb400 2.366 . S
O414 C422 1.265 . S
C415 O411 1.259 . S
C415 O412 1.265 . S
O416 Eu401 2.479 . S
O416 C431 1.238 . S
O417 Eu401 2.471 . S
O417 C431 1.247 . S
O418 Eu401 2.347 . S
O418 C402 1.259 . S
O419 Tb400 2.418 . S
O419 C402 1.265 . S
O420 Tb400 2.384 . S
O420 C403 1.255 . S
O421 Eu401 2.366 . S
O421 C403 1.265 . S
C422 O413 1.255 . S
C422 O414 1.265 . S
O423 Tb400 2.479 . S
O423 C410 1.238 . S
O424 Tb400 2.471 . S
O424 C410 1.247 . S
C425 C428 1.380 . S
C425 C429 1.374 . S
C425 C431 1.507 . S
C426 C427 1.387 . S
C426 C430 1.391 . S
C427 C426 1.387 . S
C427 C428 1.384 . S
C427 H436 0.930 . S
C428 C425 1.380 . S
C428 C427 1.384 . S
C428 H437 0.931 . S
C429 C425 1.374 . S
C429 C430 1.390 . S
C429 H438 0.930 . S
C430 C426 1.391 . S
C430 C429 1.390 . S
C430 H439 0.930 . S
C431 Eu401 2.825 . S
C431 O416 1.238 . S
C431 O417 1.247 . S
C431 C425 1.507 . S
H432 C405 0.930 . S
H433 C406 0.931 . S
H434 C407 0.923 1_565 S
H435 C408 0.930 . S
H436 C427 0.930 . S
H437 C428 0.931 . S
H438 C429 0.930 . S
H439 C430 0.930 . S
Tb440 C450 2.825 . S
Tb440 O451 2.347 . S
Tb440 O454 2.366 . S
Tb440 O459 2.418 . S
Tb440 O460 2.384 . S
Tb440 O463 2.479 . S
Tb440 O464 2.471 . S
Eu441 O452 2.418 . S
Eu441 O453 2.384 . S
Eu441 O456 2.479 . S
Eu441 O457 2.471 . S
Eu441 O458 2.347 . S
Eu441 O461 2.366 . S
Eu441 C471 2.825 . S
C442 O458 1.259 . S
C442 O459 1.265 . S
C443 O460 1.255 . S
C443 O461 1.265 . S
C444 C446 1.380 . S
C444 C447 1.374 . S
C444 C450 1.507 . S
C445 C446 1.384 . S
C445 C449 1.387 . S
C445 H472 0.930 . S
C446 C444 1.380 . S
C446 C445 1.384 . S
C446 H473 0.931 . S
C447 C444 1.374 . S
C447 C448 1.390 . S
C447 H474 0.930 . S
C448 C447 1.390 . S
C448 C449 1.391 . S
C448 H475 0.930 . S
C449 C445 1.387 . S
C449 C448 1.391 . S
C450 Tb440 2.825 . S
C450 C444 1.507 . S
C450 O463 1.238 . S
C450 O464 1.247 . S
O451 Tb440 2.347 . S
O451 C455 1.259 . S
O452 Eu441 2.418 . S
O452 C455 1.265 . S
O453 Eu441 2.384 . S
O453 C462 1.255 . S
O454 Tb440 2.366 . S
O454 C462 1.265 . S
C455 O451 1.259 . S
C455 O452 1.265 . S
O456 Eu441 2.479 . S
O456 C471 1.238 . S
O457 Eu441 2.471 . S
O457 C471 1.247 . S
O458 Eu441 2.347 . S
O458 C442 1.259 . S
O459 Tb440 2.418 . S
O459 C442 1.265 . S
O460 Tb440 2.384 . S
O460 C443 1.255 . S
O461 Eu441 2.366 . S
O461 C443 1.265 . S
C462 O453 1.255 . S
C462 O454 1.265 . S
O463 Tb440 2.479 . S
O463 C450 1.238 . S
O464 Tb440 2.471 . S
O464 C450 1.247 . S
C465 C468 1.380 . S
C465 C469 1.374 . S
C465 C471 1.507 . S
C466 C467 1.387 . S
C466 C470 1.391 . S
C467 C466 1.387 . S
C467 C468 1.384 . S
C467 H476 0.930 . S
C468 C465 1.380 . S
C468 C467 1.384 . S
C468 H477 0.931 . S
C469 C465 1.374 . S
C469 C470 1.390 . S
C469 H478 0.930 . S
C470 C466 1.391 . S
C470 C469 1.390 . S
C470 H479 0.930 . S
C471 Eu441 2.825 . S
C471 O456 1.238 . S
C471 O457 1.247 . S
C471 C465 1.507 . S
H472 C445 0.930 . S
H473 C446 0.931 . S
H474 C447 0.930 . S
H475 C448 0.930 . S
H476 C467 0.930 . S
H477 C468 0.931 . S
H478 C469 0.930 . S
H479 C470 0.930 . S
H480 C486 0.930 . S
H481 C490 0.930 . S
H482 C495 0.929 . S
H483 C493 0.929 . S
H484 C488 0.929 . S
H485 C494 0.929 . S
C486 H480 0.930 . S
C486 C487 1.367 . S
C486 C494 1.378 . S
C487 C486 1.367 . S
C487 C495 1.433 . S
C488 H484 0.929 . S
C488 C490 1.378 . S
C488 C492 1.350 . S
C489 C492 1.463 . S
C489 C494 1.350 . S
C489 N497 1.427 . S
C490 H481 0.930 . S
C490 C488 1.378 . S
C490 C491 1.367 . S
C491 C490 1.367 . S
C491 C493 1.433 . S
C492 C488 1.350 . S
C492 C489 1.463 . S
C492 N496 1.427 . S
C493 H483 0.929 . S
C493 C491 1.433 . S
C493 N496 1.384 . S
C494 H485 0.929 . S
C494 C486 1.378 . S
C494 C489 1.350 . S
C495 H482 0.929 . S
C495 C487 1.433 . S
C495 N497 1.384 . S
N496 C492 1.427 . S
N496 C493 1.384 . S
N497 C489 1.427 . S
N497 C495 1.384 . S
H498 C504 0.930 . S
H499 C508 0.930 . S
H500 C513 0.929 . S
H501 C511 0.929 . S
H502 C506 0.929 . S
H503 C512 0.929 . S
C504 H498 0.930 . S
C504 C505 1.367 . S
C504 C512 1.378 . S
C505 C504 1.367 . S
C505 C513 1.433 . S
C506 H502 0.929 . S
C506 C508 1.378 . S
C506 C510 1.350 . S
C507 C510 1.463 1_455 S
C507 C512 1.350 . S
C507 N515 1.427 . S
C508 H499 0.930 . S
C508 C506 1.378 . S
C508 C509 1.367 . S
C509 C508 1.367 . S
C509 C511 1.433 . S
C510 C506 1.350 . S
C510 C507 1.463 1_655 S
C510 N514 1.427 . S
C511 H501 0.929 . S
C511 C509 1.433 . S
C511 N514 1.384 . S
C512 H503 0.929 . S
C512 C504 1.378 . S
C512 C507 1.350 . S
C513 H500 0.929 . S
C513 C505 1.433 . S
C513 N515 1.384 . S
N514 C510 1.427 . S
N514 C511 1.384 . S
N515 C507 1.427 . S
N515 C513 1.384 . S
H516 C522 0.930 . S
H517 C526 0.930 . S
H518 C531 0.929 . S
H519 C529 0.929 . S
H520 C524 0.929 . S
H521 C530 0.929 . S
C522 H516 0.930 . S
C522 C523 1.367 . S
C522 C530 1.378 . S
C523 C522 1.367 . S
C523 C531 1.433 . S
C524 H520 0.929 . S
C524 C526 1.378 . S
C524 C528 1.350 . S
C525 C528 1.463 1_545 S
C525 C530 1.350 . S
C525 N533 1.427 . S
C526 H517 0.930 . S
C526 C524 1.378 . S
C526 C527 1.367 . S
C527 C526 1.367 . S
C527 C529 1.433 . S
C528 C524 1.350 . S
C528 C525 1.463 1_565 S
C528 N532 1.427 . S
C529 H519 0.929 . S
C529 C527 1.433 . S
C529 N532 1.384 . S
C530 H521 0.929 . S
C530 C522 1.378 . S
C530 C525 1.350 . S
C531 H518 0.929 . S
C531 C523 1.433 . S
C531 N533 1.384 . S
N532 C528 1.427 . S
N532 C529 1.384 . S
N533 C525 1.427 . S
N533 C531 1.384 . S
H534 C540 0.930 . S
H535 C544 0.930 . S
H536 C549 0.929 . S
H537 C547 0.929 . S
H538 C542 0.929 . S
H539 C548 0.929 . S
C540 H534 0.930 . S
C540 C541 1.367 . S
C540 C548 1.378 . S
C541 C540 1.367 . S
C541 C549 1.433 . S
C542 H538 0.929 . S
C542 C544 1.378 . S
C542 C546 1.350 . S
C543 C546 1.463 . S
C543 C548 1.350 . S
C543 N551 1.427 . S
C544 H535 0.930 . S
C544 C542 1.378 . S
C544 C545 1.367 . S
C545 C544 1.367 . S
C545 C547 1.433 . S
C546 C542 1.350 . S
C546 C543 1.463 . S
C546 N550 1.427 . S
C547 H537 0.929 . S
C547 C545 1.433 . S
C547 N550 1.384 . S
C548 H539 0.929 . S
C548 C540 1.378 . S
C548 C543 1.350 . S
C549 H536 0.929 . S
C549 C541 1.433 . S
C549 N551 1.384 . S
N550 C546 1.427 . S
N550 C547 1.384 . S
N551 C543 1.427 . S
N551 C549 1.384 . S
H552 C558 0.930 . S
H553 C562 0.930 . S
H554 C567 0.929 . S
H555 C565 0.929 . S
H556 C560 0.929 . S
H557 C566 0.929 . S
C558 H552 0.930 . S
C558 C559 1.367 . S
C558 C566 1.378 . S
C559 C558 1.367 . S
C559 C567 1.433 . S
C560 H556 0.929 . S
C560 C562 1.378 . S
C560 C564 1.350 . S
C561 C564 1.463 1_455 S
C561 C566 1.350 . S
C561 N569 1.427 . S
C562 H553 0.930 . S
C562 C560 1.378 . S
C562 C563 1.367 . S
C563 C562 1.367 . S
C563 C565 1.433 . S
C564 C560 1.350 . S
C564 C561 1.463 1_655 S
C564 N568 1.427 . S
C565 H555 0.929 . S
C565 C563 1.433 . S
C565 N568 1.384 . S
C566 H557 0.929 . S
C566 C558 1.378 . S
C566 C561 1.350 . S
C567 H554 0.929 . S
C567 C559 1.433 . S
C567 N569 1.384 . S
N568 C564 1.427 . S
N568 C565 1.384 . S
N569 C561 1.427 . S
N569 C567 1.384 . S
H570 C576 0.930 . S
H571 C580 0.930 . S
H572 C585 0.929 . S
H573 C583 0.929 . S
H574 C578 0.929 . S
H575 C584 0.929 . S
C576 H570 0.930 . S
C576 C577 1.367 . S
C576 C584 1.378 . S
C577 C576 1.367 . S
C577 C585 1.433 . S
C578 H574 0.929 . S
C578 C580 1.378 . S
C578 C582 1.350 . S
C579 C582 1.463 1_565 S
C579 C584 1.350 . S
C579 N587 1.427 . S
C580 H571 0.930 . S
C580 C578 1.378 . S
C580 C581 1.367 . S
C581 C580 1.367 . S
C581 C583 1.433 . S
C582 C578 1.350 . S
C582 C579 1.463 1_545 S
C582 N586 1.427 . S
C583 H573 0.929 . S
C583 C581 1.433 . S
C583 N586 1.384 . S
C584 H575 0.929 . S
C584 C576 1.378 . S
C584 C579 1.350 . S
C585 H572 0.929 . S
C585 C577 1.433 . S
C585 N587 1.384 . S
N586 C582 1.427 . S
N586 C583 1.384 . S
N587 C579 1.427 . S
N587 C585 1.384 . S
H588 C594 0.930 . S
H589 C598 0.930 . S
H590 C603 0.929 . S
H591 C601 0.929 . S
H592 C596 0.929 . S
H593 C602 0.929 . S
C594 H588 0.930 . S
C594 C595 1.367 . S
C594 C602 1.378 . S
C595 C594 1.367 . S
C595 C603 1.433 . S
C596 H592 0.929 . S
C596 C598 1.378 . S
C596 C600 1.350 . S
C597 C600 1.463 . S
C597 C602 1.350 . S
C597 N605 1.427 . S
C598 H589 0.930 . S
C598 C596 1.378 . S
C598 C599 1.367 . S
C599 C598 1.367 . S
C599 C601 1.433 . S
C600 C596 1.350 . S
C600 C597 1.463 . S
C600 N604 1.427 . S
C601 H591 0.929 . S
C601 C599 1.433 . S
C601 N604 1.384 . S
C602 H593 0.929 . S
C602 C594 1.378 . S
C602 C597 1.350 . S
C603 H590 0.929 . S
C603 C595 1.433 . S
C603 N605 1.384 . S
N604 C600 1.427 . S
N604 C601 1.384 . S
N605 C597 1.427 . S
N605 C603 1.384 . S
H606 C612 0.930 . S
H607 C616 0.930 . S
H608 C621 0.929 . S
H609 C619 0.929 . S
H610 C614 0.929 . S
H611 C620 0.929 . S
C612 H606 0.930 . S
C612 C613 1.367 . S
C612 C620 1.378 . S
C613 C612 1.367 . S
C613 C621 1.433 . S
C614 H610 0.929 . S
C614 C616 1.378 . S
C614 C618 1.350 . S
C615 C618 1.463 1_455 S
C615 C620 1.350 . S
C615 N623 1.427 . S
C616 H607 0.930 . S
C616 C614 1.378 . S
C616 C617 1.367 . S
C617 C616 1.367 . S
C617 C619 1.433 . S
C618 C614 1.350 . S
C618 C615 1.463 1_655 S
C618 N622 1.427 . S
C619 H609 0.929 . S
C619 C617 1.433 . S
C619 N622 1.384 . S
C620 H611 0.929 . S
C620 C612 1.378 . S
C620 C615 1.350 . S
C621 H608 0.929 . S
C621 C613 1.433 . S
C621 N623 1.384 . S
N622 C618 1.427 . S
N622 C619 1.384 . S
N623 C615 1.427 . S
N623 C621 1.384 . S
H624 C630 0.930 . S
H625 C634 0.930 . S
H626 C639 0.929 . S
H627 C637 0.929 . S
H628 C632 0.929 . S
H629 C638 0.929 . S
C630 H624 0.930 . S
C630 C631 1.367 . S
C630 C638 1.378 . S
C631 C630 1.367 . S
C631 C639 1.433 . S
C632 H628 0.929 . S
C632 C634 1.378 . S
C632 C636 1.350 . S
C633 C636 1.463 1_565 S
C633 C638 1.350 . S
C633 N641 1.427 . S
C634 H625 0.930 . S
C634 C632 1.378 . S
C634 C635 1.367 . S
C635 C634 1.367 . S
C635 C637 1.433 . S
C636 C632 1.350 . S
C636 C633 1.463 1_545 S
C636 N640 1.427 . S
C637 H627 0.929 . S
C637 C635 1.433 . S
C637 N640 1.384 . S
C638 H629 0.929 . S
C638 C630 1.378 . S
C638 C633 1.350 . S
C639 H626 0.929 . S
C639 C631 1.433 . S
C639 N641 1.384 . S
N640 C636 1.427 . S
N640 C637 1.384 . S
N641 C633 1.427 . S
N641 C639 1.384 . S
H642 C648 0.930 . S
H643 C652 0.930 . S
H644 C657 0.929 . S
H645 C655 0.929 . S
H646 C650 0.929 . S
H647 C656 0.929 . S
C648 H642 0.930 . S
C648 C649 1.367 . S
C648 C656 1.378 . S
C649 C648 1.367 . S
C649 C657 1.433 . S
C650 H646 0.929 . S
C650 C652 1.378 . S
C650 C654 1.350 . S
C651 C654 1.463 . S
C651 C656 1.350 . S
C651 N659 1.427 . S
C652 H643 0.930 . S
C652 C650 1.378 . S
C652 C653 1.367 . S
C653 C652 1.367 . S
C653 C655 1.433 . S
C654 C650 1.350 . S
C654 C651 1.463 . S
C654 N658 1.427 . S
C655 H645 0.929 . S
C655 C653 1.433 . S
C655 N658 1.384 . S
C656 H647 0.929 . S
C656 C648 1.378 . S
C656 C651 1.350 . S
C657 H644 0.929 . S
C657 C649 1.433 . S
C657 N659 1.384 . S
N658 C654 1.427 . S
N658 C655 1.384 . S
N659 C651 1.427 . S
N659 C657 1.384 . S
H660 C666 0.930 . S
H661 C670 0.930 . S
H662 C675 0.929 . S
H663 C673 0.929 . S
H664 C668 0.929 . S
H665 C674 0.929 . S
C666 H660 0.930 . S
C666 C667 1.367 . S
C666 C674 1.378 . S
C667 C666 1.367 . S
C667 C675 1.433 . S
C668 H664 0.929 . S
C668 C670 1.378 . S
C668 C672 1.350 . S
C669 C672 1.463 1_455 S
C669 C674 1.350 . S
C669 N677 1.427 . S
C670 H661 0.930 . S
C670 C668 1.378 . S
C670 C671 1.367 . S
C671 C670 1.367 . S
C671 C673 1.433 . S
C672 C668 1.350 . S
C672 C669 1.463 1_655 S
C672 N676 1.427 . S
C673 H663 0.929 . S
C673 C671 1.433 . S
C673 N676 1.384 . S
C674 H665 0.929 . S
C674 C666 1.378 . S
C674 C669 1.350 . S
C675 H662 0.929 . S
C675 C667 1.433 . S
C675 N677 1.384 . S
N676 C672 1.427 . S
N676 C673 1.384 . S
N677 C669 1.427 . S
N677 C675 1.384 . S
H678 C684 0.930 . S
H679 C688 0.930 . S
H680 C693 0.929 . S
H681 C691 0.929 . S
H682 C686 0.929 . S
H683 C692 0.929 . S
C684 H678 0.930 . S
C684 C685 1.367 . S
C684 C692 1.378 . S
C685 C684 1.367 . S
C685 C693 1.433 . S
C686 H682 0.929 . S
C686 C688 1.378 . S
C686 C690 1.350 . S
C687 C690 1.463 1_545 S
C687 C692 1.350 . S
C687 N695 1.427 . S
C688 H679 0.930 . S
C688 C686 1.378 . S
C688 C689 1.367 . S
C689 C688 1.367 . S
C689 C691 1.433 . S
C690 C686 1.350 . S
C690 C687 1.463 1_565 S
C690 N694 1.427 . S
C691 H681 0.929 . S
C691 C689 1.433 . S
C691 N694 1.384 . S
C692 H683 0.929 . S
C692 C684 1.378 . S
C692 C687 1.350 . S
C693 H680 0.929 . S
C693 C685 1.433 . S
C693 N695 1.384 . S
N694 C690 1.427 . S
N694 C691 1.384 . S
N695 C687 1.427 . S
N695 C693 1.384 . S
H696 C702 0.930 . S
H697 C706 0.930 . S
H698 C711 0.929 . S
H699 C709 0.929 . S
H700 C704 0.929 . S
H701 C710 0.929 . S
C702 H696 0.930 . S
C702 C703 1.367 . S
C702 C710 1.378 . S
C703 C702 1.367 . S
C703 C711 1.433 . S
C704 H700 0.929 . S
C704 C706 1.378 . S
C704 C708 1.350 . S
C705 C708 1.463 . S
C705 C710 1.350 . S
C705 N713 1.427 . S
C706 H697 0.930 . S
C706 C704 1.378 . S
C706 C707 1.367 . S
C707 C706 1.367 . S
C707 C709 1.433 . S
C708 C704 1.350 . S
C708 C705 1.463 . S
C708 N712 1.427 . S
C709 H699 0.929 . S
C709 C707 1.433 . S
C709 N712 1.384 . S
C710 H701 0.929 . S
C710 C702 1.378 . S
C710 C705 1.350 . S
C711 H698 0.929 . S
C711 C703 1.433 . S
C711 N713 1.384 . S
N712 C708 1.427 . S
N712 C709 1.384 . S
N713 C705 1.427 . S
N713 C711 1.384 . S
H714 C720 0.930 . S
H715 C724 0.930 . S
H716 C729 0.929 . S
H717 C727 0.929 . S
H718 C722 0.929 . S
H719 C728 0.929 . S
C720 H714 0.930 . S
C720 C721 1.367 . S
C720 C728 1.378 . S
C721 C720 1.367 . S
C721 C729 1.433 . S
C722 H718 0.929 . S
C722 C724 1.378 . S
C722 C726 1.350 . S
C723 C726 1.463 . S
C723 C728 1.350 . S
C723 N731 1.427 . S
C724 H715 0.930 . S
C724 C722 1.378 . S
C724 C725 1.367 . S
C725 C724 1.367 . S
C725 C727 1.433 . S
C726 C722 1.350 . S
C726 C723 1.463 . S
C726 N730 1.427 . S
C727 H717 0.929 . S
C727 C725 1.433 . S
C727 N730 1.384 . S
C728 H719 0.929 . S
C728 C720 1.378 . S
C728 C723 1.350 . S
C729 H716 0.929 . S
C729 C721 1.433 . S
C729 N731 1.384 . S
N730 C726 1.427 . S
N730 C727 1.384 . S
N731 C723 1.427 . S
N731 C729 1.384 . S
H732 C738 0.930 . S
H733 C742 0.930 . S
H734 C747 0.929 . S
H735 C745 0.929 . S
H736 C740 0.929 . S
H737 C746 0.929 . S
C738 H732 0.930 . S
C738 C739 1.367 . S
C738 C746 1.378 . S
C739 C738 1.367 . S
C739 C747 1.433 . S
C740 H736 0.929 . S
C740 C742 1.378 . S
C740 C744 1.350 . S
C741 C744 1.463 . S
C741 C746 1.350 . S
C741 N749 1.427 . S
C742 H733 0.930 . S
C742 C740 1.378 . S
C742 C743 1.367 . S
C743 C742 1.367 . S
C743 C745 1.433 . S
C744 C740 1.350 . S
C744 C741 1.463 . S
C744 N748 1.427 . S
C745 H735 0.929 . S
C745 C743 1.433 . S
C745 N748 1.384 . S
C746 H737 0.929 . S
C746 C738 1.378 . S
C746 C741 1.350 . S
C747 H734 0.929 . S
C747 C739 1.433 . S
C747 N749 1.384 . S
N748 C744 1.427 . S
N748 C745 1.384 . S
N749 C741 1.427 . S
N749 C747 1.384 . S
H750 C756 0.930 . S
H751 C760 0.930 . S
H752 C765 0.929 . S
H753 C763 0.929 . S
H754 C758 0.929 . S
H755 C764 0.929 . S
C756 H750 0.930 . S
C756 C757 1.367 . S
C756 C764 1.378 . S
C757 C756 1.367 . S
C757 C765 1.433 . S
C758 H754 0.929 . S
C758 C760 1.378 . S
C758 C762 1.350 . S
C759 C762 1.463 . S
C759 C764 1.350 . S
C759 N767 1.427 . S
C760 H751 0.930 . S
C760 C758 1.378 . S
C760 C761 1.367 . S
C761 C760 1.367 . S
C761 C763 1.433 . S
C762 C758 1.350 . S
C762 C759 1.463 . S
C762 N766 1.427 . S
C763 H753 0.929 . S
C763 C761 1.433 . S
C763 N766 1.384 . S
C764 H755 0.929 . S
C764 C756 1.378 . S
C764 C759 1.350 . S
C765 H752 0.929 . S
C765 C757 1.433 . S
C765 N767 1.384 . S
N766 C762 1.427 . S
N766 C763 1.384 . S
N767 C759 1.427 . S
N767 C765 1.384 . S
H768 C774 0.930 . S
H769 C778 0.930 . S
H770 C783 0.929 . S
H771 C781 0.929 . S
H772 C776 0.929 . S
H773 C782 0.929 . S
C774 H768 0.930 . S
C774 C775 1.367 . S
C774 C782 1.378 . S
C775 C774 1.367 . S
C775 C783 1.433 . S
C776 H772 0.929 . S
C776 C778 1.378 . S
C776 C780 1.350 . S
C777 C780 1.463 . S
C777 C782 1.350 . S
C777 N785 1.427 . S
C778 H769 0.930 . S
C778 C776 1.378 . S
C778 C779 1.367 . S
C779 C778 1.367 . S
C779 C781 1.433 . S
C780 C776 1.350 . S
C780 C777 1.463 . S
C780 N784 1.427 . S
C781 H771 0.929 . S
C781 C779 1.433 . S
C781 N784 1.384 . S
C782 H773 0.929 . S
C782 C774 1.378 . S
C782 C777 1.350 . S
C783 H770 0.929 . S
C783 C775 1.433 . S
C783 N785 1.384 . S
N784 C780 1.427 . S
N784 C781 1.384 . S
N785 C777 1.427 . S
N785 C783 1.384 . S
H786 C792 0.930 . S
H787 C796 0.930 . S
H788 C801 0.929 . S
H789 C799 0.929 . S
H790 C794 0.929 . S
H791 C800 0.929 . S
C792 H786 0.930 . S
C792 C793 1.367 . S
C792 C800 1.378 . S
C793 C792 1.367 . S
C793 C801 1.433 . S
C794 H790 0.929 . S
C794 C796 1.378 . S
C794 C798 1.350 . S
C795 C798 1.463 . S
C795 C800 1.350 . S
C795 N803 1.427 . S
C796 H787 0.930 . S
C796 C794 1.378 . S
C796 C797 1.367 . S
C797 C796 1.367 . S
C797 C799 1.433 . S
C798 C794 1.350 . S
C798 C795 1.463 . S
C798 N802 1.427 . S
C799 H789 0.929 . S
C799 C797 1.433 . S
C799 N802 1.384 . S
C800 H791 0.929 . S
C800 C792 1.378 . S
C800 C795 1.350 . S
C801 H788 0.929 . S
C801 C793 1.433 . S
C801 N803 1.384 . S
N802 C798 1.427 . S
N802 C799 1.384 . S
N803 C795 1.427 . S
N803 C801 1.384 . S
H804 C810 0.930 . S
H805 C814 0.930 . S
H806 C819 0.929 . S
H807 C817 0.929 . S
H808 C812 0.929 . S
H809 C818 0.929 . S
C810 H804 0.930 . S
C810 C811 1.367 . S
C810 C818 1.378 1_556 S
C811 C810 1.367 . S
C811 C819 1.433 . S
C812 H808 0.929 . S
C812 C814 1.378 1_556 S
C812 C816 1.350 1_556 S
C813 C816 1.463 1_566 S
C813 C818 1.350 1_556 S
C813 N821 1.427 . S
C814 H805 0.930 . S
C814 C812 1.378 1_554 S
C814 C815 1.367 . S
C815 C814 1.367 . S
C815 C817 1.433 . S
C816 C812 1.350 1_554 S
C816 C813 1.463 1_544 S
C816 N820 1.427 . S
C817 H807 0.929 . S
C817 C815 1.433 . S
C817 N820 1.384 . S
C818 H809 0.929 . S
C818 C810 1.378 1_554 S
C818 C813 1.350 1_554 S
C819 H806 0.929 . S
C819 C811 1.433 . S
C819 N821 1.384 . S
N820 C816 1.427 . S
N820 C817 1.384 . S
N821 C813 1.427 . S
N821 C819 1.384 . S
H822 C828 0.930 . S
H823 C832 0.930 . S
H824 C837 0.929 . S
H825 C835 0.929 . S
H826 C830 0.929 . S
H827 C836 0.929 . S
C828 H822 0.930 . S
C828 C829 1.367 . S
C828 C836 1.378 . S
C829 C828 1.367 . S
C829 C837 1.433 . S
C830 H826 0.929 . S
C830 C832 1.378 . S
C830 C834 1.350 . S
C831 C834 1.463 . S
C831 C836 1.350 . S
C831 N839 1.427 . S
C832 H823 0.930 . S
C832 C830 1.378 . S
C832 C833 1.367 . S
C833 C832 1.367 . S
C833 C835 1.433 . S
C834 C830 1.350 . S
C834 C831 1.463 . S
C834 N838 1.427 . S
C835 H825 0.929 . S
C835 C833 1.433 . S
C835 N838 1.384 . S
C836 H827 0.929 . S
C836 C828 1.378 . S
C836 C831 1.350 . S
C837 H824 0.929 . S
C837 C829 1.433 . S
C837 N839 1.384 . S
N838 C834 1.427 . S
N838 C835 1.384 . S
N839 C831 1.427 . S
N839 C837 1.384 . S
H840 C846 0.930 . S
H841 C850 0.930 . S
H842 C855 0.929 . S
H843 C853 0.929 . S
H844 C848 0.929 . S
H845 C854 0.929 . S
C846 H840 0.930 . S
C846 C847 1.367 . S
C846 C854 1.377 1_556 S
C847 C846 1.367 . S
C847 C855 1.433 . S
C848 H844 0.929 . S
C848 C850 1.377 1_556 S
C848 C852 1.350 1_556 S
C849 C852 1.463 1_456 S
C849 C854 1.350 1_556 S
C849 N857 1.427 . S
C850 H841 0.930 . S
C850 C848 1.377 1_554 S
C850 C851 1.367 . S
C851 C850 1.367 . S
C851 C853 1.433 . S
C852 C848 1.350 1_554 S
C852 C849 1.463 1_654 S
C852 N856 1.427 . S
C853 H843 0.929 . S
C853 C851 1.433 . S
C853 N856 1.384 . S
C854 H845 0.929 . S
C854 C846 1.377 1_554 S
C854 C849 1.350 1_554 S
C855 H842 0.929 . S
C855 C847 1.433 . S
C855 N857 1.384 . S
N856 C852 1.427 . S
N856 C853 1.384 . S
N857 C849 1.427 . S
N857 C855 1.384 . S
H858 C864 0.930 . S
H859 C868 0.930 . S
H860 C873 0.929 . S
H861 C871 0.929 . S
H862 C866 0.929 . S
H863 C872 0.929 . S
C864 H858 0.930 . S
C864 C865 1.367 . S
C864 C872 1.378 . S
C865 C864 1.367 . S
C865 C873 1.433 . S
C866 H862 0.929 . S
C866 C868 1.378 . S
C866 C870 1.350 . S
C867 C870 1.463 1_545 S
C867 C872 1.350 . S
C867 N875 1.427 . S
C868 H859 0.930 . S
C868 C866 1.378 . S
C868 C869 1.367 . S
C869 C868 1.367 . S
C869 C871 1.433 . S
C870 C866 1.350 . S
C870 C867 1.463 1_565 S
C870 N874 1.427 . S
C871 H861 0.929 . S
C871 C869 1.433 . S
C871 N874 1.384 . S
C872 H863 0.929 . S
C872 C864 1.378 . S
C872 C867 1.350 . S
C873 H860 0.929 . S
C873 C865 1.433 . S
C873 N875 1.384 . S
N874 C870 1.427 . S
N874 C871 1.384 . S
N875 C867 1.427 . S
N875 C873 1.384 . S
H876 C882 0.930 . S
H877 C886 0.930 . S
H878 C891 0.929 . S
H879 C889 0.929 . S
H880 C884 0.929 . S
H881 C890 0.929 . S
C882 H876 0.930 . S
C882 C883 1.367 . S
C882 C890 1.378 . S
C883 C882 1.367 . S
C883 C891 1.433 . S
C884 H880 0.929 . S
C884 C886 1.378 . S
C884 C888 1.350 . S
C885 C888 1.463 1_554 S
C885 C890 1.350 . S
C885 N893 1.427 . S
C886 H877 0.930 . S
C886 C884 1.378 . S
C886 C887 1.367 . S
C887 C886 1.367 . S
C887 C889 1.433 . S
C888 C884 1.350 . S
C888 C885 1.463 1_556 S
C888 N892 1.427 . S
C889 H879 0.929 . S
C889 C887 1.433 . S
C889 N892 1.384 . S
C890 H881 0.929 . S
C890 C882 1.378 . S
C890 C885 1.350 . S
C891 H878 0.929 . S
C891 C883 1.433 . S
C891 N893 1.384 . S
N892 C888 1.427 . S
N892 C889 1.384 . S
N893 C885 1.427 . S
N893 C891 1.384 . S
H894 C900 0.930 . S
H895 C904 0.930 . S
H896 C909 0.929 . S
H897 C907 0.929 . S
H898 C902 0.929 . S
H899 C908 0.929 . S
C900 H894 0.930 . S
C900 C901 1.367 . S
C900 C908 1.378 . S
C901 C900 1.367 . S
C901 C909 1.433 . S
C902 H898 0.929 . S
C902 C904 1.378 . S
C902 C906 1.350 . S
C903 C906 1.463 1_455 S
C903 C908 1.350 . S
C903 N911 1.427 . S
C904 H895 0.930 . S
C904 C902 1.378 . S
C904 C905 1.367 . S
C905 C904 1.367 . S
C905 C907 1.433 . S
C906 C902 1.350 . S
C906 C903 1.463 1_655 S
C906 N910 1.427 . S
C907 H897 0.929 . S
C907 C905 1.433 . S
C907 N910 1.384 . S
C908 H899 0.929 . S
C908 C900 1.378 . S
C908 C903 1.350 . S
C909 H896 0.929 . S
C909 C901 1.433 . S
C909 N911 1.384 . S
N910 C906 1.427 . S
N910 C907 1.384 . S
N911 C903 1.427 . S
N911 C909 1.384 . S
H912 C918 0.930 . S
H913 C922 0.930 . S
H914 C927 0.929 . S
H915 C925 0.929 . S
H916 C920 0.929 . S
H917 C926 0.929 . S
C918 H912 0.930 . S
C918 C919 1.367 . S
C918 C926 1.378 . S
C919 C918 1.367 . S
C919 C927 1.433 . S
C920 H916 0.929 . S
C920 C922 1.378 . S
C920 C924 1.350 . S
C921 C924 1.463 . S
C921 C926 1.350 . S
C921 N929 1.427 . S
C922 H913 0.930 . S
C922 C920 1.378 . S
C922 C923 1.367 . S
C923 C922 1.367 . S
C923 C925 1.433 . S
C924 C920 1.350 . S
C924 C921 1.463 . S
C924 N928 1.427 . S
C925 H915 0.929 . S
C925 C923 1.433 . S
C925 N928 1.384 . S
C926 H917 0.929 . S
C926 C918 1.378 . S
C926 C921 1.350 . S
C927 H914 0.929 . S
C927 C919 1.433 . S
C927 N929 1.384 . S
N928 C924 1.427 . S
N928 C925 1.384 . S
N929 C921 1.427 . S
N929 C927 1.384 . S
H930 C936 0.930 . S
H931 C940 0.930 . S
H932 C945 0.929 . S
H933 C943 0.929 . S
H934 C938 0.929 . S
H935 C944 0.929 . S
C936 H930 0.930 . S
C936 C937 1.367 . S
C936 C944 1.378 . S
C937 C936 1.367 . S
C937 C945 1.433 . S
C938 H934 0.929 . S
C938 C940 1.378 . S
C938 C942 1.350 . S
C939 C942 1.463 . S
C939 C944 1.350 . S
C939 N947 1.427 . S
C940 H931 0.930 . S
C940 C938 1.378 . S
C940 C941 1.367 . S
C941 C940 1.367 . S
C941 C943 1.433 . S
C942 C938 1.350 . S
C942 C939 1.463 . S
C942 N946 1.427 . S
C943 H933 0.929 . S
C943 C941 1.433 . S
C943 N946 1.384 . S
C944 H935 0.929 . S
C944 C936 1.378 . S
C944 C939 1.350 . S
C945 H932 0.929 . S
C945 C937 1.433 . S
C945 N947 1.384 . S
N946 C942 1.427 . S
N946 C943 1.384 . S
N947 C939 1.427 . S
N947 C945 1.384 . S
H948 C954 0.930 . S
H949 C958 0.930 . S
H950 C963 0.929 . S
H951 C961 0.929 . S
H952 C956 0.929 . S
H953 C962 0.929 . S
C954 H948 0.930 . S
C954 C955 1.367 . S
C954 C962 1.378 . S
C955 C954 1.367 . S
C955 C963 1.433 . S
C956 H952 0.929 . S
C956 C958 1.378 . S
C956 C960 1.350 . S
C957 C960 1.463 . S
C957 C962 1.350 . S
C957 N965 1.427 . S
C958 H949 0.930 . S
C958 C956 1.378 . S
C958 C959 1.367 . S
C959 C958 1.367 . S
C959 C961 1.433 . S
C960 C956 1.350 . S
C960 C957 1.463 . S
C960 N964 1.427 . S
C961 H951 0.929 . S
C961 C959 1.433 . S
C961 N964 1.384 . S
C962 H953 0.929 . S
C962 C954 1.378 . S
C962 C957 1.350 . S
C963 H950 0.929 . S
C963 C955 1.433 . S
C963 N965 1.384 . S
N964 C960 1.427 . S
N964 C961 1.384 . S
N965 C957 1.427 . S
N965 C963 1.384 . S
H966 C972 0.930 . S
H967 C976 0.930 . S
H968 C981 0.929 . S
H969 C979 0.929 . S
H970 C974 0.929 . S
H971 C980 0.929 . S
C972 H966 0.930 . S
C972 C973 1.367 . S
C972 C980 1.378 . S
C973 C972 1.367 . S
C973 C981 1.433 . S
C974 H970 0.929 . S
C974 C976 1.378 . S
C974 C978 1.350 . S
C975 C978 1.463 . S
C975 C980 1.350 . S
C975 N983 1.427 . S
C976 H967 0.930 . S
C976 C974 1.378 . S
C976 C977 1.367 . S
C977 C976 1.367 . S
C977 C979 1.433 . S
C978 C974 1.350 . S
C978 C975 1.463 . S
C978 N982 1.427 . S
C979 H969 0.929 . S
C979 C977 1.433 . S
C979 N982 1.384 . S
C980 H971 0.929 . S
C980 C972 1.378 . S
C980 C975 1.350 . S
C981 H968 0.929 . S
C981 C973 1.433 . S
C981 N983 1.384 . S
N982 C978 1.427 . S
N982 C979 1.384 . S
N983 C975 1.427 . S
N983 C981 1.384 . S
H984 C990 0.930 . S
H985 C994 0.930 . S
H986 C999 0.929 . S
H987 C997 0.929 . S
H988 C992 0.929 . S
H989 C998 0.929 . S
C990 H984 0.930 . S
C990 C991 1.367 . S
C990 C998 1.378 . S
C991 C990 1.367 . S
C991 C999 1.433 . S
C992 H988 0.929 . S
C992 C994 1.378 . S
C992 C996 1.350 . S
C993 C996 1.463 . S
C993 C998 1.350 . S
C993 N1001 1.427 . S
C994 H985 0.930 . S
C994 C992 1.378 . S
C994 C995 1.367 . S
C995 C994 1.367 . S
C995 C997 1.433 . S
C996 C992 1.350 . S
C996 C993 1.463 . S
C996 N1000 1.427 . S
C997 H987 0.929 . S
C997 C995 1.433 . S
C997 N1000 1.384 . S
C998 H989 0.929 . S
C998 C990 1.378 . S
C998 C993 1.350 . S
C999 H986 0.929 . S
C999 C991 1.433 . S
C999 N1001 1.384 . S
N1000 C996 1.427 . S
N1000 C997 1.384 . S
N1001 C993 1.427 . S
N1001 C999 1.384 . S
H1002 C1008 0.930 . S
H1003 C1012 0.930 . S
H1004 C1017 0.929 . S
H1005 C1015 0.929 . S
H1006 C1010 0.929 . S
H1007 C1016 0.929 . S
C1008 H1002 0.930 . S
C1008 C1009 1.367 . S
C1008 C1016 1.378 . S
C1009 C1008 1.367 . S
C1009 C1017 1.433 . S
C1010 H1006 0.929 . S
C1010 C1012 1.378 . S
C1010 C1014 1.350 . S
C1011 C1014 1.463 . S
C1011 C1016 1.350 . S
C1011 N1019 1.427 . S
C1012 H1003 0.930 . S
C1012 C1010 1.378 . S
C1012 C1013 1.367 . S
C1013 C1012 1.367 . S
C1013 C1015 1.433 . S
C1014 C1010 1.350 . S
C1014 C1011 1.463 . S
C1014 N1018 1.427 . S
C1015 H1005 0.929 . S
C1015 C1013 1.433 . S
C1015 N1018 1.384 . S
C1016 H1007 0.929 . S
C1016 C1008 1.378 . S
C1016 C1011 1.350 . S
C1017 H1004 0.929 . S
C1017 C1009 1.433 . S
C1017 N1019 1.384 . S
N1018 C1014 1.427 . S
N1018 C1015 1.384 . S
N1019 C1011 1.427 . S
N1019 C1017 1.384 . S
H1020 C1026 0.930 . S
H1021 C1030 0.930 . S
H1022 C1035 0.929 . S
H1023 C1033 0.929 . S
H1024 C1028 0.929 . S
H1025 C1034 0.929 . S
C1026 H1020 0.930 . S
C1026 C1027 1.367 . S
C1026 C1034 1.378 . S
C1027 C1026 1.367 . S
C1027 C1035 1.433 . S
C1028 H1024 0.929 . S
C1028 C1030 1.378 . S
C1028 C1032 1.350 . S
C1029 C1032 1.463 . S
C1029 C1034 1.350 . S
C1029 N1037 1.427 . S
C1030 H1021 0.930 . S
C1030 C1028 1.378 . S
C1030 C1031 1.367 . S
C1031 C1030 1.367 . S
C1031 C1033 1.433 . S
C1032 C1028 1.350 . S
C1032 C1029 1.463 . S
C1032 N1036 1.427 . S
C1033 H1023 0.929 . S
C1033 C1031 1.433 . S
C1033 N1036 1.384 . S
C1034 H1025 0.929 . S
C1034 C1026 1.378 . S
C1034 C1029 1.350 . S
C1035 H1022 0.929 . S
C1035 C1027 1.433 . S
C1035 N1037 1.384 . S
N1036 C1032 1.427 . S
N1036 C1033 1.384 . S
N1037 C1029 1.427 . S
N1037 C1035 1.384 . S
H1038 C1044 0.930 . S
H1039 C1048 0.930 . S
H1040 C1053 0.929 . S
H1041 C1051 0.929 . S
H1042 C1046 0.929 . S
H1043 C1052 0.929 . S
C1044 H1038 0.930 . S
C1044 C1045 1.367 . S
C1044 C1052 1.378 . S
C1045 C1044 1.367 . S
C1045 C1053 1.433 . S
C1046 H1042 0.929 . S
C1046 C1048 1.378 . S
C1046 C1050 1.350 . S
C1047 C1050 1.463 . S
C1047 C1052 1.350 . S
C1047 N1055 1.427 . S
C1048 H1039 0.930 . S
C1048 C1046 1.378 . S
C1048 C1049 1.367 . S
C1049 C1048 1.367 . S
C1049 C1051 1.433 . S
C1050 C1046 1.350 . S
C1050 C1047 1.463 . S
C1050 N1054 1.427 . S
C1051 H1041 0.929 . S
C1051 C1049 1.433 . S
C1051 N1054 1.384 . S
C1052 H1043 0.929 . S
C1052 C1044 1.378 . S
C1052 C1047 1.350 . S
C1053 H1040 0.929 . S
C1053 C1045 1.433 . S
C1053 N1055 1.384 . S
N1054 C1050 1.427 . S
N1054 C1051 1.384 . S
N1055 C1047 1.427 . S
N1055 C1053 1.384 . S
H1056 C1062 0.930 . S
H1057 C1066 0.930 . S
H1058 C1071 0.929 . S
H1059 C1069 0.929 . S
H1060 C1064 0.929 . S
H1061 C1070 0.929 . S
C1062 H1056 0.930 . S
C1062 C1063 1.367 . S
C1062 C1070 1.378 . S
C1063 C1062 1.367 . S
C1063 C1071 1.433 . S
C1064 H1060 0.929 . S
C1064 C1066 1.378 . S
C1064 C1068 1.350 . S
C1065 C1068 1.463 . S
C1065 C1070 1.350 . S
C1065 N1073 1.427 . S
C1066 H1057 0.930 . S
C1066 C1064 1.378 . S
C1066 C1067 1.367 . S
C1067 C1066 1.367 . S
C1067 C1069 1.433 . S
C1068 C1064 1.350 . S
C1068 C1065 1.463 . S
C1068 N1072 1.427 . S
C1069 H1059 0.929 . S
C1069 C1067 1.433 . S
C1069 N1072 1.384 . S
C1070 H1061 0.929 . S
C1070 C1062 1.378 . S
C1070 C1065 1.350 . S
C1071 H1058 0.929 . S
C1071 C1063 1.433 . S
C1071 N1073 1.384 . S
N1072 C1068 1.427 . S
N1072 C1069 1.384 . S
N1073 C1065 1.427 . S
N1073 C1071 1.384 . S
H1074 C1080 0.930 . S
H1075 C1084 0.930 . S
H1076 C1089 0.929 . S
H1077 C1087 0.929 . S
H1078 C1082 0.929 . S
H1079 C1088 0.929 . S
C1080 H1074 0.930 . S
C1080 C1081 1.367 . S
C1080 C1088 1.378 . S
C1081 C1080 1.367 . S
C1081 C1089 1.433 . S
C1082 H1078 0.929 . S
C1082 C1084 1.378 . S
C1082 C1086 1.350 . S
C1083 C1086 1.463 . S
C1083 C1088 1.350 . S
C1083 N1091 1.427 . S
C1084 H1075 0.930 . S
C1084 C1082 1.378 . S
C1084 C1085 1.367 . S
C1085 C1084 1.367 . S
C1085 C1087 1.433 . S
C1086 C1082 1.350 . S
C1086 C1083 1.463 . S
C1086 N1090 1.427 . S
C1087 H1077 0.929 . S
C1087 C1085 1.433 . S
C1087 N1090 1.384 . S
C1088 H1079 0.929 . S
C1088 C1080 1.378 . S
C1088 C1083 1.350 . S
C1089 H1076 0.929 . S
C1089 C1081 1.433 . S
C1089 N1091 1.384 . S
N1090 C1086 1.427 . S
N1090 C1087 1.384 . S
N1091 C1083 1.427 . S
N1091 C1089 1.384 . S
H1092 C1098 0.930 . S
H1093 C1102 0.930 . S
H1094 C1107 0.929 . S
H1095 C1105 0.929 . S
H1096 C1100 0.929 . S
H1097 C1106 0.929 . S
C1098 H1092 0.930 . S
C1098 C1099 1.367 . S
C1098 C1106 1.378 . S
C1099 C1098 1.367 . S
C1099 C1107 1.433 . S
C1100 H1096 0.929 . S
C1100 C1102 1.378 . S
C1100 C1104 1.350 . S
C1101 C1104 1.463 . S
C1101 C1106 1.350 . S
C1101 N1109 1.427 . S
C1102 H1093 0.930 . S
C1102 C1100 1.378 . S
C1102 C1103 1.367 . S
C1103 C1102 1.367 . S
C1103 C1105 1.433 . S
C1104 C1100 1.350 . S
C1104 C1101 1.463 . S
C1104 N1108 1.427 . S
C1105 H1095 0.929 . S
C1105 C1103 1.433 . S
C1105 N1108 1.384 . S
C1106 H1097 0.929 . S
C1106 C1098 1.378 . S
C1106 C1101 1.350 . S
C1107 H1094 0.929 . S
C1107 C1099 1.433 . S
C1107 N1109 1.384 . S
N1108 C1104 1.427 . S
N1108 C1105 1.384 . S
N1109 C1101 1.427 . S
N1109 C1107 1.384 . S
H1110 C1116 0.930 . S
H1111 C1120 0.930 . S
H1112 C1125 0.929 . S
H1113 C1123 0.929 . S
H1114 C1118 0.929 . S
H1115 C1124 0.929 . S
C1116 H1110 0.930 . S
C1116 C1117 1.367 . S
C1116 C1124 1.378 . S
C1117 C1116 1.367 . S
C1117 C1125 1.433 . S
C1118 H1114 0.929 . S
C1118 C1120 1.378 . S
C1118 C1122 1.350 . S
C1119 C1122 1.463 . S
C1119 C1124 1.350 . S
C1119 N1127 1.427 . S
C1120 H1111 0.930 . S
C1120 C1118 1.378 . S
C1120 C1121 1.367 . S
C1121 C1120 1.367 . S
C1121 C1123 1.433 . S
C1122 C1118 1.350 . S
C1122 C1119 1.463 . S
C1122 N1126 1.427 . S
C1123 H1113 0.929 . S
C1123 C1121 1.433 . S
C1123 N1126 1.384 . S
C1124 H1115 0.929 . S
C1124 C1116 1.378 . S
C1124 C1119 1.350 . S
C1125 H1112 0.929 . S
C1125 C1117 1.433 . S
C1125 N1127 1.384 . S
N1126 C1122 1.427 . S
N1126 C1123 1.384 . S
N1127 C1119 1.427 . S
N1127 C1125 1.384 . S
C487 C106 1.277 . S
C491 C3 1.271 . S
C505 C129 1.279 . S
C509 C62 1.270 . S
C523 C83 1.271 . S
C527 C186 1.279 . S
C541 C142 1.271 . S
C545 C209 1.279 . S
C559 C26 1.277 . S
C563 C163 1.267 . S
C577 C49 1.279 . S
C581 C222 1.265 . S
C595 C409 1.278 . S
C599 C262 1.263 . S
C613 C283 1.263 . S
C617 C466 1.278 . S
C631 C342 1.263 . S
C635 C249 1.277 . S
C649 C363 1.270 . S
C653 C306 1.277 . S
C667 C422 1.267 . S
C671 C329 1.277 . S
C685 C386 1.277 . S
C689 C443 1.267 . S
C703 C122 1.766 . S
C707 C15 1.753 . S
C721 C42 1.762 . S
C725 C175 1.757 . S
C739 C95 1.757 . S
C743 C202 1.762 . S
C757 C242 1.757 . S
C761 C375 1.762 . S
C775 C295 1.764 . S
C779 C402 1.755 . S
C793 C322 1.767 . S
C797 C455 1.752 . S
C811 C282 2.320 . S
C815 C2 2.320 . S
C829 C55 2.318 . S
C833 C335 2.318 . S
C847 C362 2.320 . S
C851 C82 2.320 . S
C865 C135 2.320 . S
C869 C415 2.319 . S
C883 C162 2.317 . S
C887 C442 2.317 . S
C901 C255 2.320 . S
C905 C215 2.320 . S
C919 C89 1.687 . S
C923 C22 1.727 . S
C937 C43 1.728 . S
C941 C146 1.690 . S
C955 C102 1.729 . S
C959 C169 1.691 . S
C973 C123 1.730 . S
C977 C226 1.692 . S
C991 C9 1.684 . S
C995 C182 1.727 . S
C1009 C66 1.689 . S
C1013 C203 1.729 . S
C1027 C426 1.690 . S
C1031 C243 1.730 . S
C1045 C302 1.730 . S
C1049 C449 1.691 . S
C1063 C323 1.728 . S
C1067 C266 1.686 . S
C1081 C289 1.682 . S
C1085 C382 1.726 . S
C1099 C403 1.726 . S
C1103 C346 1.681 . S
C1117 C462 1.725 . S
C1121 C369 1.680 . S
