# Generated by pormake.
# Topology ana-e, (6)-cn, num edge types: 1
# Building blocks:
#     Node 0, Type 0, BuildingBlock: LEVNOQ01_clean_sbu_1, # of connection points: 6
#     Node 1, Type 0, BuildingBlock: LEVNOQ01_clean_sbu_1, # of connection points: 6
#     Node 2, Type 0, BuildingBlock: LEVNOQ01_clean_sbu_1, # of connection points: 6
#     Node 3, Type 0, BuildingBlock: LEVNOQ01_clean_sbu_1, # of connection points: 6
#     Node 4, Type 0, BuildingBlock: LEVNOQ01_clean_sbu_1, # of connection points: 6
#     Node 5, Type 0, BuildingBlock: LEVNOQ01_clean_sbu_1, # of connection points: 6
#     Node 6, Type 0, BuildingBlock: LEVNOQ01_clean_sbu_1, # of connection points: 6
#     Node 7, Type 0, BuildingBlock: LEVNOQ01_clean_sbu_1, # of connection points: 6
#     Node 8, Type 0, BuildingBlock: LEVNOQ01_clean_sbu_1, # of connection points: 6
#     Node 9, Type 0, BuildingBlock: LEVNOQ01_clean_sbu_1, # of connection points: 6
#     Node 10, Type 0, BuildingBlock: LEVNOQ01_clean_sbu_1, # of connection points: 6
#     Node 11, Type 0, BuildingBlock: LEVNOQ01_clean_sbu_1, # of connection points: 6
#     Node 12, Type 0, BuildingBlock: LEVNOQ01_clean_sbu_1, # of connection points: 6
#     Node 13, Type 0, BuildingBlock: LEVNOQ01_clean_sbu_1, # of connection points: 6
#     Node 14, Type 0, BuildingBlock: LEVNOQ01_clean_sbu_1, # of connection points: 6
#     Node 15, Type 0, BuildingBlock: LEVNOQ01_clean_sbu_1, # of connection points: 6
#     Node 16, Type 0, BuildingBlock: LEVNOQ01_clean_sbu_1, # of connection points: 6
#     Node 17, Type 0, BuildingBlock: LEVNOQ01_clean_sbu_1, # of connection points: 6
#     Node 18, Type 0, BuildingBlock: LEVNOQ01_clean_sbu_1, # of connection points: 6
#     Node 19, Type 0, BuildingBlock: LEVNOQ01_clean_sbu_1, # of connection points: 6
#     Node 20, Type 0, BuildingBlock: LEVNOQ01_clean_sbu_1, # of connection points: 6
#     Node 21, Type 0, BuildingBlock: LEVNOQ01_clean_sbu_1, # of connection points: 6
#     Node 22, Type 0, BuildingBlock: LEVNOQ01_clean_sbu_1, # of connection points: 6
#     Node 23, Type 0, BuildingBlock: LEVNOQ01_clean_sbu_1, # of connection points: 6
#     Node 24, Type 0, BuildingBlock: LEVNOQ01_clean_sbu_1, # of connection points: 6
#     Node 25, Type 0, BuildingBlock: LEVNOQ01_clean_sbu_1, # of connection points: 6
#     Node 26, Type 0, BuildingBlock: LEVNOQ01_clean_sbu_1, # of connection points: 6
#     Node 27, Type 0, BuildingBlock: LEVNOQ01_clean_sbu_1, # of connection points: 6
#     Node 28, Type 0, BuildingBlock: LEVNOQ01_clean_sbu_1, # of connection points: 6
#     Node 29, Type 0, BuildingBlock: LEVNOQ01_clean_sbu_1, # of connection points: 6
#     Node 30, Type 0, BuildingBlock: LEVNOQ01_clean_sbu_1, # of connection points: 6
#     Node 31, Type 0, BuildingBlock: LEVNOQ01_clean_sbu_1, # of connection points: 6
#     Node 32, Type 0, BuildingBlock: LEVNOQ01_clean_sbu_1, # of connection points: 6
#     Node 33, Type 0, BuildingBlock: LEVNOQ01_clean_sbu_1, # of connection points: 6
#     Node 34, Type 0, BuildingBlock: LEVNOQ01_clean_sbu_1, # of connection points: 6
#     Node 35, Type 0, BuildingBlock: LEVNOQ01_clean_sbu_1, # of connection points: 6
#     Node 36, Type 0, BuildingBlock: LEVNOQ01_clean_sbu_1, # of connection points: 6
#     Node 37, Type 0, BuildingBlock: LEVNOQ01_clean_sbu_1, # of connection points: 6
#     Node 38, Type 0, BuildingBlock: LEVNOQ01_clean_sbu_1, # of connection points: 6
#     Node 39, Type 0, BuildingBlock: LEVNOQ01_clean_sbu_1, # of connection points: 6
#     Node 40, Type 0, BuildingBlock: LEVNOQ01_clean_sbu_1, # of connection points: 6
#     Node 41, Type 0, BuildingBlock: LEVNOQ01_clean_sbu_1, # of connection points: 6
#     Node 42, Type 0, BuildingBlock: LEVNOQ01_clean_sbu_1, # of connection points: 6
#     Node 43, Type 0, BuildingBlock: LEVNOQ01_clean_sbu_1, # of connection points: 6
#     Node 44, Type 0, BuildingBlock: LEVNOQ01_clean_sbu_1, # of connection points: 6
#     Node 45, Type 0, BuildingBlock: LEVNOQ01_clean_sbu_1, # of connection points: 6
#     Node 46, Type 0, BuildingBlock: LEVNOQ01_clean_sbu_1, # of connection points: 6
#     Node 47, Type 0, BuildingBlock: LEVNOQ01_clean_sbu_1, # of connection points: 6
#     Node 48, Type 0, BuildingBlock: LEVNOQ01_clean_sbu_1, # of connection points: 6
#     Node 49, Type 0, BuildingBlock: LEVNOQ01_clean_sbu_1, # of connection points: 6
#     Node 50, Type 0, BuildingBlock: LEVNOQ01_clean_sbu_1, # of connection points: 6
#     Node 51, Type 0, BuildingBlock: LEVNOQ01_clean_sbu_1, # of connection points: 6
#     Node 52, Type 0, BuildingBlock: LEVNOQ01_clean_sbu_1, # of connection points: 6
#     Node 53, Type 0, BuildingBlock: LEVNOQ01_clean_sbu_1, # of connection points: 6
#     Node 54, Type 0, BuildingBlock: LEVNOQ01_clean_sbu_1, # of connection points: 6
#     Node 55, Type 0, BuildingBlock: LEVNOQ01_clean_sbu_1, # of connection points: 6
#     Node 56, Type 0, BuildingBlock: LEVNOQ01_clean_sbu_1, # of connection points: 6
#     Node 57, Type 0, BuildingBlock: LEVNOQ01_clean_sbu_1, # of connection points: 6
#     Node 58, Type 0, BuildingBlock: LEVNOQ01_clean_sbu_1, # of connection points: 6
#     Node 59, Type 0, BuildingBlock: LEVNOQ01_clean_sbu_1, # of connection points: 6
#     Node 60, Type 0, BuildingBlock: LEVNOQ01_clean_sbu_1, # of connection points: 6
#     Node 61, Type 0, BuildingBlock: LEVNOQ01_clean_sbu_1, # of connection points: 6
#     Node 62, Type 0, BuildingBlock: LEVNOQ01_clean_sbu_1, # of connection points: 6
#     Node 63, Type 0, BuildingBlock: LEVNOQ01_clean_sbu_1, # of connection points: 6
#     Node 64, Type 0, BuildingBlock: LEVNOQ01_clean_sbu_1, # of connection points: 6
#     Node 65, Type 0, BuildingBlock: LEVNOQ01_clean_sbu_1, # of connection points: 6
#     Node 66, Type 0, BuildingBlock: LEVNOQ01_clean_sbu_1, # of connection points: 6
#     Node 67, Type 0, BuildingBlock: LEVNOQ01_clean_sbu_1, # of connection points: 6
#     Node 68, Type 0, BuildingBlock: LEVNOQ01_clean_sbu_1, # of connection points: 6
#     Node 69, Type 0, BuildingBlock: LEVNOQ01_clean_sbu_1, # of connection points: 6
#     Node 70, Type 0, BuildingBlock: LEVNOQ01_clean_sbu_1, # of connection points: 6
#     Node 71, Type 0, BuildingBlock: LEVNOQ01_clean_sbu_1, # of connection points: 6
#     Node 72, Type 0, BuildingBlock: LEVNOQ01_clean_sbu_1, # of connection points: 6
#     Node 73, Type 0, BuildingBlock: LEVNOQ01_clean_sbu_1, # of connection points: 6
#     Node 74, Type 0, BuildingBlock: LEVNOQ01_clean_sbu_1, # of connection points: 6
#     Node 75, Type 0, BuildingBlock: LEVNOQ01_clean_sbu_1, # of connection points: 6
#     Node 76, Type 0, BuildingBlock: LEVNOQ01_clean_sbu_1, # of connection points: 6
#     Node 77, Type 0, BuildingBlock: LEVNOQ01_clean_sbu_1, # of connection points: 6
#     Node 78, Type 0, BuildingBlock: LEVNOQ01_clean_sbu_1, # of connection points: 6
#     Node 79, Type 0, BuildingBlock: LEVNOQ01_clean_sbu_1, # of connection points: 6
#     Node 80, Type 0, BuildingBlock: LEVNOQ01_clean_sbu_1, # of connection points: 6
#     Node 81, Type 0, BuildingBlock: LEVNOQ01_clean_sbu_1, # of connection points: 6
#     Node 82, Type 0, BuildingBlock: LEVNOQ01_clean_sbu_1, # of connection points: 6
#     Node 83, Type 0, BuildingBlock: LEVNOQ01_clean_sbu_1, # of connection points: 6
#     Node 84, Type 0, BuildingBlock: LEVNOQ01_clean_sbu_1, # of connection points: 6
#     Node 85, Type 0, BuildingBlock: LEVNOQ01_clean_sbu_1, # of connection points: 6
#     Node 86, Type 0, BuildingBlock: LEVNOQ01_clean_sbu_1, # of connection points: 6
#     Node 87, Type 0, BuildingBlock: LEVNOQ01_clean_sbu_1, # of connection points: 6
#     Node 88, Type 0, BuildingBlock: LEVNOQ01_clean_sbu_1, # of connection points: 6
#     Node 89, Type 0, BuildingBlock: LEVNOQ01_clean_sbu_1, # of connection points: 6
#     Node 90, Type 0, BuildingBlock: LEVNOQ01_clean_sbu_1, # of connection points: 6
#     Node 91, Type 0, BuildingBlock: LEVNOQ01_clean_sbu_1, # of connection points: 6
#     Node 92, Type 0, BuildingBlock: LEVNOQ01_clean_sbu_1, # of connection points: 6
#     Node 93, Type 0, BuildingBlock: LEVNOQ01_clean_sbu_1, # of connection points: 6
#     Node 94, Type 0, BuildingBlock: LEVNOQ01_clean_sbu_1, # of connection points: 6
#     Node 95, Type 0, BuildingBlock: LEVNOQ01_clean_sbu_1, # of connection points: 6
#     Edge 96, Type (0, 0), None
#     Edge 97, Type (0, 0), None
#     Edge 98, Type (0, 0), None
#     Edge 99, Type (0, 0), None
#     Edge 100, Type (0, 0), None
#     Edge 101, Type (0, 0), None
#     Edge 102, Type (0, 0), None
#     Edge 103, Type (0, 0), None
#     Edge 104, Type (0, 0), None
#     Edge 105, Type (0, 0), None
#     Edge 106, Type (0, 0), None
#     Edge 107, Type (0, 0), None
#     Edge 108, Type (0, 0), None
#     Edge 109, Type (0, 0), None
#     Edge 110, Type (0, 0), None
#     Edge 111, Type (0, 0), None
#     Edge 112, Type (0, 0), None
#     Edge 113, Type (0, 0), None
#     Edge 114, Type (0, 0), None
#     Edge 115, Type (0, 0), None
#     Edge 116, Type (0, 0), None
#     Edge 117, Type (0, 0), None
#     Edge 118, Type (0, 0), None
#     Edge 119, Type (0, 0), None
#     Edge 120, Type (0, 0), None
#     Edge 121, Type (0, 0), None
#     Edge 122, Type (0, 0), None
#     Edge 123, Type (0, 0), None
#     Edge 124, Type (0, 0), None
#     Edge 125, Type (0, 0), None
#     Edge 126, Type (0, 0), None
#     Edge 127, Type (0, 0), None
#     Edge 128, Type (0, 0), None
#     Edge 129, Type (0, 0), None
#     Edge 130, Type (0, 0), None
#     Edge 131, Type (0, 0), None
#     Edge 132, Type (0, 0), None
#     Edge 133, Type (0, 0), None
#     Edge 134, Type (0, 0), None
#     Edge 135, Type (0, 0), None
#     Edge 136, Type (0, 0), None
#     Edge 137, Type (0, 0), None
#     Edge 138, Type (0, 0), None
#     Edge 139, Type (0, 0), None
#     Edge 140, Type (0, 0), None
#     Edge 141, Type (0, 0), None
#     Edge 142, Type (0, 0), None
#     Edge 143, Type (0, 0), None
#     Edge 144, Type (0, 0), None
#     Edge 145, Type (0, 0), None
#     Edge 146, Type (0, 0), None
#     Edge 147, Type (0, 0), None
#     Edge 148, Type (0, 0), None
#     Edge 149, Type (0, 0), None
#     Edge 150, Type (0, 0), None
#     Edge 151, Type (0, 0), None
#     Edge 152, Type (0, 0), None
#     Edge 153, Type (0, 0), None
#     Edge 154, Type (0, 0), None
#     Edge 155, Type (0, 0), None
#     Edge 156, Type (0, 0), None
#     Edge 157, Type (0, 0), None
#     Edge 158, Type (0, 0), None
#     Edge 159, Type (0, 0), None
#     Edge 160, Type (0, 0), None
#     Edge 161, Type (0, 0), None
#     Edge 162, Type (0, 0), None
#     Edge 163, Type (0, 0), None
#     Edge 164, Type (0, 0), None
#     Edge 165, Type (0, 0), None
#     Edge 166, Type (0, 0), None
#     Edge 167, Type (0, 0), None
#     Edge 168, Type (0, 0), None
#     Edge 169, Type (0, 0), None
#     Edge 170, Type (0, 0), None
#     Edge 171, Type (0, 0), None
#     Edge 172, Type (0, 0), None
#     Edge 173, Type (0, 0), None
#     Edge 174, Type (0, 0), None
#     Edge 175, Type (0, 0), None
#     Edge 176, Type (0, 0), None
#     Edge 177, Type (0, 0), None
#     Edge 178, Type (0, 0), None
#     Edge 179, Type (0, 0), None
#     Edge 180, Type (0, 0), None
#     Edge 181, Type (0, 0), None
#     Edge 182, Type (0, 0), None
#     Edge 183, Type (0, 0), None
#     Edge 184, Type (0, 0), None
#     Edge 185, Type (0, 0), None
#     Edge 186, Type (0, 0), None
#     Edge 187, Type (0, 0), None
#     Edge 188, Type (0, 0), None
#     Edge 189, Type (0, 0), None
#     Edge 190, Type (0, 0), None
#     Edge 191, Type (0, 0), None
#     Edge 192, Type (0, 0), None
#     Edge 193, Type (0, 0), None
#     Edge 194, Type (0, 0), None
#     Edge 195, Type (0, 0), None
#     Edge 196, Type (0, 0), None
#     Edge 197, Type (0, 0), None
#     Edge 198, Type (0, 0), None
#     Edge 199, Type (0, 0), None
#     Edge 200, Type (0, 0), None
#     Edge 201, Type (0, 0), None
#     Edge 202, Type (0, 0), None
#     Edge 203, Type (0, 0), None
#     Edge 204, Type (0, 0), None
#     Edge 205, Type (0, 0), None
#     Edge 206, Type (0, 0), None
#     Edge 207, Type (0, 0), None
#     Edge 208, Type (0, 0), None
#     Edge 209, Type (0, 0), None
#     Edge 210, Type (0, 0), None
#     Edge 211, Type (0, 0), None
#     Edge 212, Type (0, 0), None
#     Edge 213, Type (0, 0), None
#     Edge 214, Type (0, 0), None
#     Edge 215, Type (0, 0), None
#     Edge 216, Type (0, 0), None
#     Edge 217, Type (0, 0), None
#     Edge 218, Type (0, 0), None
#     Edge 219, Type (0, 0), None
#     Edge 220, Type (0, 0), None
#     Edge 221, Type (0, 0), None
#     Edge 222, Type (0, 0), None
#     Edge 223, Type (0, 0), None
#     Edge 224, Type (0, 0), None
#     Edge 225, Type (0, 0), None
#     Edge 226, Type (0, 0), None
#     Edge 227, Type (0, 0), None
#     Edge 228, Type (0, 0), None
#     Edge 229, Type (0, 0), None
#     Edge 230, Type (0, 0), None
#     Edge 231, Type (0, 0), None
#     Edge 232, Type (0, 0), None
#     Edge 233, Type (0, 0), None
#     Edge 234, Type (0, 0), None
#     Edge 235, Type (0, 0), None
#     Edge 236, Type (0, 0), None
#     Edge 237, Type (0, 0), None
#     Edge 238, Type (0, 0), None
#     Edge 239, Type (0, 0), None
#     Edge 240, Type (0, 0), None
#     Edge 241, Type (0, 0), None
#     Edge 242, Type (0, 0), None
#     Edge 243, Type (0, 0), None
#     Edge 244, Type (0, 0), None
#     Edge 245, Type (0, 0), None
#     Edge 246, Type (0, 0), None
#     Edge 247, Type (0, 0), None
#     Edge 248, Type (0, 0), None
#     Edge 249, Type (0, 0), None
#     Edge 250, Type (0, 0), None
#     Edge 251, Type (0, 0), None
#     Edge 252, Type (0, 0), None
#     Edge 253, Type (0, 0), None
#     Edge 254, Type (0, 0), None
#     Edge 255, Type (0, 0), None
#     Edge 256, Type (0, 0), None
#     Edge 257, Type (0, 0), None
#     Edge 258, Type (0, 0), None
#     Edge 259, Type (0, 0), None
#     Edge 260, Type (0, 0), None
#     Edge 261, Type (0, 0), None
#     Edge 262, Type (0, 0), None
#     Edge 263, Type (0, 0), None
#     Edge 264, Type (0, 0), None
#     Edge 265, Type (0, 0), None
#     Edge 266, Type (0, 0), None
#     Edge 267, Type (0, 0), None
#     Edge 268, Type (0, 0), None
#     Edge 269, Type (0, 0), None
#     Edge 270, Type (0, 0), None
#     Edge 271, Type (0, 0), None
#     Edge 272, Type (0, 0), None
#     Edge 273, Type (0, 0), None
#     Edge 274, Type (0, 0), None
#     Edge 275, Type (0, 0), None
#     Edge 276, Type (0, 0), None
#     Edge 277, Type (0, 0), None
#     Edge 278, Type (0, 0), None
#     Edge 279, Type (0, 0), None
#     Edge 280, Type (0, 0), None
#     Edge 281, Type (0, 0), None
#     Edge 282, Type (0, 0), None
#     Edge 283, Type (0, 0), None
#     Edge 284, Type (0, 0), None
#     Edge 285, Type (0, 0), None
#     Edge 286, Type (0, 0), None
#     Edge 287, Type (0, 0), None
#     Edge 288, Type (0, 0), None
#     Edge 289, Type (0, 0), None
#     Edge 290, Type (0, 0), None
#     Edge 291, Type (0, 0), None
#     Edge 292, Type (0, 0), None
#     Edge 293, Type (0, 0), None
#     Edge 294, Type (0, 0), None
#     Edge 295, Type (0, 0), None
#     Edge 296, Type (0, 0), None
#     Edge 297, Type (0, 0), None
#     Edge 298, Type (0, 0), None
#     Edge 299, Type (0, 0), None
#     Edge 300, Type (0, 0), None
#     Edge 301, Type (0, 0), None
#     Edge 302, Type (0, 0), None
#     Edge 303, Type (0, 0), None
#     Edge 304, Type (0, 0), None
#     Edge 305, Type (0, 0), None
#     Edge 306, Type (0, 0), None
#     Edge 307, Type (0, 0), None
#     Edge 308, Type (0, 0), None
#     Edge 309, Type (0, 0), None
#     Edge 310, Type (0, 0), None
#     Edge 311, Type (0, 0), None
#     Edge 312, Type (0, 0), None
#     Edge 313, Type (0, 0), None
#     Edge 314, Type (0, 0), None
#     Edge 315, Type (0, 0), None
#     Edge 316, Type (0, 0), None
#     Edge 317, Type (0, 0), None
#     Edge 318, Type (0, 0), None
#     Edge 319, Type (0, 0), None
#     Edge 320, Type (0, 0), None
#     Edge 321, Type (0, 0), None
#     Edge 322, Type (0, 0), None
#     Edge 323, Type (0, 0), None
#     Edge 324, Type (0, 0), None
#     Edge 325, Type (0, 0), None
#     Edge 326, Type (0, 0), None
#     Edge 327, Type (0, 0), None
#     Edge 328, Type (0, 0), None
#     Edge 329, Type (0, 0), None
#     Edge 330, Type (0, 0), None
#     Edge 331, Type (0, 0), None
#     Edge 332, Type (0, 0), None
#     Edge 333, Type (0, 0), None
#     Edge 334, Type (0, 0), None
#     Edge 335, Type (0, 0), None
#     Edge 336, Type (0, 0), None
#     Edge 337, Type (0, 0), None
#     Edge 338, Type (0, 0), None
#     Edge 339, Type (0, 0), None
#     Edge 340, Type (0, 0), None
#     Edge 341, Type (0, 0), None
#     Edge 342, Type (0, 0), None
#     Edge 343, Type (0, 0), None
#     Edge 344, Type (0, 0), None
#     Edge 345, Type (0, 0), None
#     Edge 346, Type (0, 0), None
#     Edge 347, Type (0, 0), None
#     Edge 348, Type (0, 0), None
#     Edge 349, Type (0, 0), None
#     Edge 350, Type (0, 0), None
#     Edge 351, Type (0, 0), None
#     Edge 352, Type (0, 0), None
#     Edge 353, Type (0, 0), None
#     Edge 354, Type (0, 0), None
#     Edge 355, Type (0, 0), None
#     Edge 356, Type (0, 0), None
#     Edge 357, Type (0, 0), None
#     Edge 358, Type (0, 0), None
#     Edge 359, Type (0, 0), None
#     Edge 360, Type (0, 0), None
#     Edge 361, Type (0, 0), None
#     Edge 362, Type (0, 0), None
#     Edge 363, Type (0, 0), None
#     Edge 364, Type (0, 0), None
#     Edge 365, Type (0, 0), None
#     Edge 366, Type (0, 0), None
#     Edge 367, Type (0, 0), None
#     Edge 368, Type (0, 0), None
#     Edge 369, Type (0, 0), None
#     Edge 370, Type (0, 0), None
#     Edge 371, Type (0, 0), None
#     Edge 372, Type (0, 0), None
#     Edge 373, Type (0, 0), None
#     Edge 374, Type (0, 0), None
#     Edge 375, Type (0, 0), None
#     Edge 376, Type (0, 0), None
#     Edge 377, Type (0, 0), None
#     Edge 378, Type (0, 0), None
#     Edge 379, Type (0, 0), None
#     Edge 380, Type (0, 0), None
#     Edge 381, Type (0, 0), None
#     Edge 382, Type (0, 0), None
#     Edge 383, Type (0, 0), None
# Relax obj value: 0.374
# Max RMSD: 0.214
# Mean RMSD: 0.214
data_MOF--net-ana-e--node1-LEVNOQ01_clean_sbu_1--edge1-none
_symmetry_space_group_name_H-M    P1
_symmetry_Int_Tables_number       1
_symmetry_cell_setting            triclinic
loop_
_symmetry_equiv_pos_as_xyz
'x, y, z'
_cell_length_a     35.691635
_cell_length_b     35.771408
_cell_length_c     35.701646
_cell_angle_alpha  90.103815
_cell_angle_beta   89.968667
_cell_angle_gamma 89.914592
loop_
_atom_site_label
_atom_site_type_symbol
_atom_site_fract_x
_atom_site_fract_y
_atom_site_fract_z
_atom_type_partial_charge
O0 O 0.08145 0.07575 0.25295 0.0
Mg1 Mg 0.06201 0.13003 0.26096 0.0
O2 O 0.0698 0.07351 0.31468 0.0
Mg3 Mg 0.00996 0.10613 0.33002 0.0
O4 O 0.00556 0.11633 0.26825 0.0
O5 O 0.02238 0.16625 0.23696 0.0
O6 O 0.95665 0.13935 0.34119 0.0
O7 O 0.97191 0.05156 0.31806 0.0
Mg8 Mg 0.98098 0.06802 0.37994 0.0
O9 O 0.01536 0.10785 0.39917 0.0
O10 O 0.92895 0.08859 0.36072 0.0
O11 O 0.00708 0.0201 0.35573 0.0
O12 O 0.97744 0.07313 0.43586 0.0
C13 C 0.07646 0.15817 0.34013 0.0
C14 C 0.08987 0.06415 0.28551 0.0
C15 C -0.00412 0.14526 0.24939 0.0
C16 C 0.92801 0.12308 0.35435 0.0
C17 C 0.97658 0.02237 0.33784 0.0
C18 C 0.00067 0.10052 0.43213 0.0
O19 O 0.09165 0.14715 0.31012 0.0
O20 O 0.0413 0.15905 0.3427 0.0
O21 O 0.14534 0.82878 0.5108 0.0
Mg22 Mg 0.09121 0.80786 0.5109 0.0
O23 O 0.14681 0.81294 0.57137 0.0
Mg24 Mg 0.11453 0.75445 0.58415 0.0
O25 O 0.09493 0.75223 0.52367 0.0
O26 O 0.07309 0.77083 0.46917 0.0
O27 O 0.07957 0.70494 0.59459 0.0
O28 O 0.16614 0.71351 0.5699 0.0
Mg29 Mg 0.15476 0.71974 0.63496 0.0
O30 O 0.11744 0.75755 0.65265 0.0
O31 O 0.12541 0.67109 0.61797 0.0
O32 O 0.19973 0.74743 0.60663 0.0
O33 O 0.15082 0.71944 0.69075 0.0
C34 C 0.05556 0.82109 0.59009 0.0
C35 C 0.15536 0.83533 0.54415 0.0
C36 C 0.08286 0.74361 0.49076 0.0
C37 C 0.09116 0.67537 0.60991 0.0
C38 C 0.19658 0.71759 0.58806 0.0
C39 C 0.12448 0.74376 0.68596 0.0
O40 O 0.06259 0.83311 0.55727 0.0
O41 O 0.06577 0.78925 0.60111 0.0
O42 O 0.38588 0.89484 0.76125 0.0
Mg43 Mg 0.42586 0.8544 0.75241 0.0
O44 O 0.40736 0.89568 0.8203 0.0
Mg45 Mg 0.46687 0.86197 0.83628 0.0
O46 O 0.48029 0.84953 0.77418 0.0
O47 O 0.46235 0.90212 0.75028 0.0
O48 O 0.5175 0.82614 0.85182 0.0
O49 O 0.51018 0.91519 0.82975 0.0
Mg50 Mg 0.48489 0.8951 0.88315 0.0
O51 O 0.45171 0.85823 0.90545 0.0
O52 O 0.54044 0.87527 0.88003 0.0
O53 O 0.46595 0.94555 0.85662 0.0
O54 O 0.48443 0.90018 0.93918 0.0
C55 C 0.39913 0.81153 0.82669 0.0
C56 C 0.38241 0.90457 0.79514 0.0
C57 C 0.4848 0.87447 0.74896 0.0
C58 C 0.54338 0.84155 0.87059 0.0
C59 C 0.50056 0.94334 0.84916 0.0
C60 C 0.46411 0.8705 0.93781 0.0
O61 O 0.39279 0.82473 0.79431 0.0
O62 O 0.43145 0.81226 0.84087 0.0
O63 O 0.28868 0.13815 0.02208 0.0
Mg64 Mg 0.3424 0.15192 0.00435 0.0
O65 O 0.30962 0.14424 0.08045 0.0
Mg66 Mg 0.34288 0.20344 0.08625 0.0
O67 O 0.34644 0.20513 0.02349 0.0
O68 O 0.35447 0.19353 0.96396 0.0
O69 O 0.38115 0.25331 0.08998 0.0
O70 O 0.28992 0.24402 0.08053 0.0
Mg71 Mg 0.31327 0.23842 0.13979 0.0
O72 O 0.35259 0.203 0.15632 0.0
O73 O 0.33705 0.28716 0.1158 0.0
O74 O 0.26419 0.20879 0.12203 0.0
O75 O 0.32202 0.24399 0.19431 0.0
C76 C 0.39817 0.13447 0.07116 0.0
C77 C 0.29336 0.12477 0.05453 0.0
C78 C 0.35362 0.21772 -0.00929 0.0
C79 C 0.37086 0.28308 0.10621 0.0
C80 C 0.26359 0.23896 0.10386 0.0
C81 C 0.34779 0.21908 0.18934 0.0
O82 O 0.38219 0.1248 0.04064 0.0
O83 O 0.39189 0.16524 0.08785 0.0
O84 O 0.08193 0.88514 0.19831 0.0
Mg85 Mg 0.03946 0.84733 0.20755 0.0
O86 O 0.05896 0.88756 0.13995 0.0
Mg87 Mg -0.00097 0.85678 0.12518 0.0
O88 O -0.01588 0.84703 0.18708 0.0
O89 O 0.00595 0.89733 0.21175 0.0
O90 O 0.94534 0.82667 0.11103 0.0
O91 O 0.96469 0.91363 0.13098 0.0
Mg92 Mg 0.97992 0.89178 0.0727 0.0
O93 O 0.01425 0.85061 0.05717 0.0
O94 O 0.92416 0.87663 0.08283 0.0
O95 O 0.00311 0.94197 0.09358 0.0
O96 O 0.9805 0.88583 0.01713 0.0
C97 C 0.06051 0.80258 0.13236 0.0
C98 C 0.08442 0.89567 0.16462 0.0
C99 C 0.9795 0.87358 0.21054 0.0
C100 C 0.9195 0.84361 0.09367 0.0
C101 C 0.97182 0.94152 0.11023 0.0
C102 C 0.0024 0.85776 0.02309 0.0
O103 O 0.06933 0.81676 0.16375 0.0
O104 O 0.02724 0.80293 0.1211 0.0
O105 O 0.32673 0.83177 0.45522 0.0
Mg106 Mg 0.37852 0.80758 0.4462 0.0
O107 O 0.32179 0.81684 0.3942 0.0
Mg108 Mg 0.35365 0.75742 0.37993 0.0
O109 O 0.3616 0.75169 0.44212 0.0
O110 O 0.41375 0.76771 0.4706 0.0
O111 O 0.38673 0.70615 0.37067 0.0
O112 O 0.29899 0.71895 0.38844 0.0
Mg113 Mg 0.31669 0.72725 0.32657 0.0
O114 O 0.35619 0.76368 0.31135 0.0
O115 O 0.34057 0.676 0.34372 0.0
O116 O 0.26881 0.75439 0.35003 0.0
O117 O 0.32367 0.72654 0.27142 0.0
C118 C 0.40814 0.82156 0.36939 0.0
C119 C 0.31413 0.83849 0.42261 0.0
C120 C 0.38932 0.74231 0.46311 0.0
C121 C 0.37454 0.67801 0.35323 0.0
C122 C 0.27041 0.72393 0.36772 0.0
C123 C 0.35025 0.75023 0.27759 0.0
O124 O 0.39607 0.83762 0.39832 0.0
O125 O 0.40812 0.78651 0.36815 0.0
O126 O 0.38937 0.0486 0.69789 0.0
Mg127 Mg 0.40145 0.10483 0.70567 0.0
O128 O 0.39286 0.06554 0.63794 0.0
Mg129 Mg 0.4535 0.09652 0.63002 0.0
O130 O 0.45829 0.09871 0.6937 0.0
O131 O 0.43769 0.13885 0.73578 0.0
O132 O 0.50695 0.12988 0.62693 0.0
O133 O 0.48722 0.0374 0.6303 0.0
Mg134 Mg 0.48624 0.06874 0.57438 0.0
O135 O 0.45044 0.11002 0.56082 0.0
O136 O 0.53519 0.08052 0.60638 0.0
O137 O 0.45511 0.01883 0.58211 0.0
O138 O 0.49549 0.08732 0.5224 0.0
C139 C 0.38748 0.14877 0.6329 0.0
C140 C 0.37476 0.05035 0.66557 0.0
C141 C 0.46518 0.12602 0.7163 0.0
C142 C 0.53624 0.1145 0.61452 0.0
C143 C 0.48332 0.01456 0.60299 0.0
C144 C 0.46775 0.1098 0.52809 0.0
O145 O 0.37283 0.13322 0.66125 0.0
O146 O 0.42264 0.15017 0.62917 0.0
O147 O 0.16486 0.13218 0.94932 0.0
Mg148 Mg 0.11184 0.15478 0.95547 0.0
O149 O 0.15403 0.14844 0.88968 0.0
Mg150 Mg 0.12166 0.20784 0.88293 0.0
O151 O 0.11908 0.21174 0.94657 0.0
O152 O 0.07951 0.18988 -0.01132 0.0
O153 O 0.0859 0.25881 0.87851 0.0
O154 O 0.17668 0.24704 0.88831 0.0
Mg155 Mg 0.15208 0.23891 0.82974 0.0
O156 O 0.11375 0.20165 0.81367 0.0
O157 O 0.12979 0.29003 0.84973 0.0
O158 O 0.20382 0.21371 0.84586 0.0
O159 O 0.14292 0.24245 0.77505 0.0
C160 C 0.06577 0.14183 0.88438 0.0
C161 C 0.16704 0.12536 0.91442 0.0
C162 C 0.0926 0.21805 0.97041 0.0
C163 C 0.09632 0.28741 0.86074 0.0
C164 C 0.20388 0.24294 0.86561 0.0
C165 C 0.11848 0.21643 0.78028 0.0
O166 O 0.08181 0.1274 0.91244 0.0
O167 O 0.06836 0.17624 0.87764 0.0
O168 O 0.26031 0.06888 0.0607 0.0
Mg169 Mg 0.26224 0.05578 0.11719 0.0
O170 O 0.32153 0.06539 0.06981 0.0
Mg171 Mg 0.33506 0.00581 0.10177 0.0
O172 O 0.27346 -0.00036 0.12028 0.0
O173 O 0.21899 0.02432 0.1381 0.0
O174 O 0.34686 0.95642 0.13737 0.0
O175 O 0.32315 0.9647 0.04954 0.0
Mg176 Mg 0.3872 0.97114 0.06316 0.0
O177 O 0.40407 0.00973 0.10029 0.0
O178 O 0.37007 0.92221 0.09179 0.0
O179 O 0.36115 -0.0024 0.01625 0.0
O180 O 0.44257 0.96979 0.06912 0.0
C181 C 0.33823 0.07451 0.15568 0.0
C182 C 0.29235 0.08334 0.05777 0.0
C183 C 0.239 -0.0049 0.13065 0.0
C184 C 0.36269 0.9269 0.12613 0.0
C185 C 0.34164 0.96841 0.01921 0.0
C186 C 0.43735 -0.00534 0.09486 0.0
O187 O 0.30627 0.08605 0.14486 0.0
O188 O 0.34849 0.04105 0.15115 0.0
O189 O 0.13623 0.01751 0.29207 0.0
Mg190 Mg 0.15357 0.0072 0.347 0.0
O191 O 0.15143 0.07617 0.30729 0.0
Mg192 Mg 0.20972 0.08021 0.34218 0.0
O193 O 0.21106 0.01661 0.34494 0.0
O194 O 0.18686 0.97305 0.381 0.0
O195 O 0.26078 0.08256 0.38047 0.0
O196 O 0.24851 0.07414 0.28622 0.0
Mg197 Mg 0.24449 0.13121 0.31382 0.0
O198 O 0.20739 0.15002 0.35144 0.0
O199 O 0.29283 0.10085 0.33257 0.0
O200 O 0.21692 0.11953 0.26198 0.0
O201 O 0.25334 0.18525 0.3261 0.0
C202 C 0.1398 0.07788 0.39439 0.0
C203 C 0.12924 0.05239 0.29128 0.0
C204 C 0.2156 -0.00735 0.37158 0.0
C205 C 0.29141 0.09391 0.36697 0.0
C206 C 0.24557 0.0989 0.26074 0.0
C207 C 0.22507 0.18222 0.34841 0.0
O208 O 0.12561 0.05011 0.37751 0.0
O209 O 0.17455 0.08463 0.39332 0.0
O210 O 0.19903 0.87935 0.56272 0.0
Mg211 Mg 0.20656 0.9201 0.60223 0.0
O212 O 0.13897 0.89796 0.56168 0.0
Mg213 Mg 0.12089 0.95734 0.59385 0.0
O214 O 0.18236 0.97242 0.60863 0.0
O215 O 0.20601 0.958 0.55525 0.0
O216 O 0.10421 0.00764 0.62744 0.0
O217 O 0.13068 -0.00144 0.5438 0.0
Mg218 Mg 0.06682 -0.01491 0.55317 0.0
O219 O 0.05137 0.94767 0.59164 0.0
O220 O 0.07407 0.03637 0.58165 0.0
O221 O 0.0978 0.96465 0.50641 0.0
O222 O 0.0119 0.97961 0.55301 0.0
C223 C 0.13375 0.89247 0.64895 0.0
C224 C 0.16536 0.87406 0.55343 0.0
C225 C 0.20549 0.9808 0.58261 0.0
C226 C 0.08568 0.03529 0.6151 0.0
C227 C 0.11432 -0.00477 0.51262 0.0
C228 C 0.01735 0.95906 0.58227 0.0
O229 O 0.16679 0.88875 0.63606 0.0
O230 O 0.1142 0.92132 0.6431 0.0
O231 O 0.33791 0.95002 0.81261 0.0
Mg232 Mg 0.31338 0.95255 0.8652 0.0
O233 O 0.32143 0.88966 0.81852 0.0
Mg234 Mg 0.26001 0.88207 0.84946 0.0
O235 O 0.25685 0.94495 0.85244 0.0
O236 O 0.27524 -0.01608 0.89653 0.0
O237 O 0.2064 0.8784 0.88301 0.0
O238 O 0.22559 0.88638 0.79064 0.0
Mg239 Mg 0.22651 0.82882 0.81818 0.0
O240 O 0.26322 0.81391 0.85801 0.0
O241 O 0.17743 0.85967 0.8334 0.0
O242 O 0.25801 0.83998 0.76871 0.0
O243 O 0.21823 0.77612 0.83432 0.0
C244 C 0.32339 0.8781 0.90657 0.0
C245 C 0.34439 0.91549 0.807 0.0
C246 C 0.24819 0.96732 0.8794 0.0
C247 C 0.17703 0.86595 0.86792 0.0
C248 C 0.22924 0.86039 0.76629 0.0
C249 C 0.24606 0.78145 0.85675 0.0
O250 O 0.33937 0.90629 0.89243 0.0
O251 O 0.28833 0.87506 0.90508 0.0
O252 O 0.26711 0.88034 0.40674 0.0
Mg253 Mg 0.25574 0.9202 0.36679 0.0
O254 O 0.32604 0.90162 0.40516 0.0
Mg255 Mg 0.3405 0.96093 0.37272 0.0
O256 O 0.27772 0.97424 0.36089 0.0
O257 O 0.25119 0.9585 0.41294 0.0
O258 O 0.35476 0.01231 0.3377 0.0
O259 O 0.33384 0.00062 0.42619 0.0
Mg260 Mg 0.39313 -0.01507 0.40778 0.0
O261 O 0.41008 0.94856 0.36948 0.0
O262 O 0.38426 0.03831 0.38479 0.0
O263 O 0.37055 0.96553 0.45919 0.0
O264 O 0.44856 -0.01635 0.40573 0.0
C265 C 0.32857 0.89574 0.31899 0.0
C266 C 0.30137 0.87672 0.4148 0.0
C267 C 0.2528 -0.01863 0.3857 0.0
C268 C 0.37307 0.03943 0.35139 0.0
C269 C 0.35441 -0.0033 0.45497 0.0
C270 C 0.44373 0.96145 0.37764 0.0
O271 O 0.29642 0.88926 0.33293 0.0
O272 O 0.34457 0.92691 0.32258 0.0
O273 O 0.3184 0.01728 0.66545 0.0
Mg274 Mg 0.30713 0.00937 0.60894 0.0
O275 O 0.31539 0.07694 0.64923 0.0
Mg276 Mg 0.25644 0.08741 0.61666 0.0
O277 O 0.25246 0.02508 0.60402 0.0
O278 O 0.26998 0.96735 0.59194 0.0
O279 O 0.20651 0.09621 0.58069 0.0
O280 O 0.21778 0.07822 0.66913 0.0
Mg281 Mg 0.22303 0.14202 0.65376 0.0
O282 O 0.25852 0.15702 0.61413 0.0
O283 O 0.17408 0.12401 0.62519 0.0
O284 O 0.25487 0.1161 0.69765 0.0
O285 O 0.22345 0.19732 0.64888 0.0
C286 C 0.3246 0.08284 0.56283 0.0
C287 C 0.33323 0.04927 0.66424 0.0
C288 C 0.24329 -0.00849 0.59478 0.0
C289 C 0.17791 0.11415 0.59129 0.0
C290 C 0.22453 0.09821 0.69771 0.0
C291 C 0.24602 0.19099 0.62128 0.0
O292 O 0.33556 0.0516 0.57621 0.0
O293 O 0.29179 0.09532 0.56732 0.0
O294 O 0.20767 0.08085 0.89054 0.0
Mg295 Mg 0.21036 0.03732 0.8539 0.0
O296 O 0.14742 0.06301 0.89648 0.0
Mg297 Mg 0.12701 0.00122 0.86671 0.0
O298 O 0.18858 -0.01644 0.85581 0.0
O299 O 0.20768 0.00887 0.90716 0.0
O300 O 0.10969 0.94921 0.83506 0.0
O301 O 0.1335 0.96333 0.92083 0.0
Mg302 Mg 0.07154 0.97566 0.90404 0.0
O303 O 0.05833 0.01435 0.86546 0.0
O304 O 0.07749 0.92195 0.87991 0.0
O305 O 0.0955 -0.00355 0.95432 0.0
O306 O 0.01693 0.98032 0.89974 0.0
C307 C 0.13653 0.06295 0.80934 0.0
C308 C 0.17483 0.08674 0.90246 0.0
C309 C 0.20989 -0.01844 0.88452 0.0
C310 C 0.08974 0.92231 0.84672 0.0
C311 C 0.11421 0.96676 0.9505 0.0
C312 C 0.02391 0.00253 0.87217 0.0
O313 O 0.16901 0.06918 0.82233 0.0
O314 O 0.12076 0.0319 0.81372 0.0
O315 O 0.12071 0.94196 0.13733 0.0
Mg316 Mg 0.16511 0.95298 0.10263 0.0
O317 O 0.14843 0.88667 0.14824 0.0
Mg318 Mg 0.20966 0.87307 0.11939 0.0
O319 O 0.2214 0.93581 0.10777 0.0
O320 O 0.19239 0.95896 0.1555 0.0
O321 O 0.26277 0.85832 0.08938 0.0
O322 O 0.24726 0.88378 0.17256 0.0
Mg323 Mg 0.23429 0.81986 0.16135 0.0
O324 O 0.19925 0.80525 0.1205 0.0
O325 O 0.28722 0.82768 0.13713 0.0
O326 O 0.21297 0.84948 0.20829 0.0
O327 O 0.2288 0.76485 0.15975 0.0
C328 C 0.14804 0.87564 0.0607 0.0
C329 C 0.12057 0.9098 0.15196 0.0
C330 C 0.22208 0.95814 0.13587 0.0
C331 C 0.28897 0.83914 0.10376 0.0
C332 C 0.24376 0.86609 0.20298 0.0
C333 C 0.20938 0.77118 0.12987 0.0
O334 O 0.13904 0.90816 0.07156 0.0
O335 O 0.18008 0.86248 0.06668 0.0
O336 O 0.07228 0.25834 0.08457 0.0
Mg337 Mg 0.11085 0.2539 0.04252 0.0
O338 O 0.07011 0.31883 0.06752 0.0
Mg339 Mg 0.10177 0.3391 0.00792 0.0
O340 O 0.11204 0.27785 -0.01071 0.0
O341 O 0.05976 0.25624 0.01037 0.0
O342 O 0.13342 0.35662 0.95503 0.0
O343 O 0.04801 0.3343 0.96985 0.0
Mg344 Mg 0.06524 0.39446 -0.01183 0.0
O345 O 0.10587 0.40754 0.02479 0.0
O346 O 0.08526 0.38828 0.93337 0.0
O347 O 0.01382 0.37062 0.00446 0.0
O348 O 0.06989 0.44957 -0.00607 0.0
C349 C 0.15398 0.32694 0.07199 0.0
C350 C 0.06206 0.29167 0.0906 0.0
C351 C 0.08427 0.25579 -0.01545 0.0
C352 C 0.11791 0.37555 0.92921 0.0
C353 C 0.0185 0.35363 0.97366 0.0
C354 C 0.09877 0.44229 0.01443 0.0
O355 O 0.14074 0.29445 0.07709 0.0
O356 O 0.15365 0.34191 0.0401 0.0
O357 O 0.55449 0.20403 0.88443 0.0
Mg358 Mg 0.6085 0.2095 0.90511 0.0
O359 O 0.57083 0.14456 0.89505 0.0
Mg360 Mg 0.60357 0.13478 0.95377 0.0
O361 O 0.60354 0.19841 0.96321 0.0
O362 O 0.64234 0.24064 0.93922 0.0
O363 O 0.63969 0.12574 0.00728 0.0
O364 O 0.54381 0.13262 -0.00997 0.0
Mg365 Mg 0.5825 0.08736 0.97307 0.0
O366 O 0.61931 0.06712 0.93647 0.0
O367 O 0.5901 0.10085 0.0303 0.0
O368 O 0.526 0.08522 0.9565 0.0
O369 O 0.59681 0.03328 -0.0166 0.0
C370 C 0.65309 0.14078 0.89011 0.0
C371 C 0.5552 0.16986 0.87447 0.0
C372 C 0.63078 0.22198 0.96783 0.0
C373 C 0.62354 0.10972 0.03438 0.0
C374 C 0.52195 0.10467 -0.0142 0.0
C375 C 0.61757 0.03529 0.95424 0.0
O376 O 0.63755 0.16792 0.87375 0.0
O377 O 0.65665 0.14105 0.9251 0.0
O378 O 0.01746 0.31052 0.13442 0.0
Mg379 Mg 0.02346 0.36304 0.15675 0.0
O380 O 0.07767 0.30908 0.1527 0.0
Mg381 Mg 0.0843 0.3403 0.21345 0.0
O382 O 0.02231 0.34745 0.21296 0.0
O383 O -0.00376 0.39956 0.19335 0.0
O384 O 0.0846 0.37414 0.26562 0.0
O385 O 0.07567 0.28316 0.24934 0.0
Mg386 Mg 0.13843 0.3041 0.2523 0.0
O387 O 0.1527 0.34377 0.21467 0.0
O388 O 0.10574 0.32694 0.29704 0.0
O389 O 0.1212 0.25733 0.21907 0.0
O390 O 0.19241 0.31813 0.25699 0.0
C391 C 0.09892 0.39728 0.15076 0.0
C392 C 0.05118 0.30045 0.12916 0.0
C393 C 0.00221 0.3764 0.22025 0.0
C394 C 0.10063 0.36169 0.29432 0.0
C395 C 0.09862 0.25588 0.24613 0.0
C396 C 0.18615 0.34095 0.22972 0.0
O397 O 0.07383 0.38163 0.13168 0.0
O398 O 0.09695 0.39589 0.18589 0.0
O399 O 0.89727 0.75345 0.39206 0.0
Mg400 Mg 0.84138 0.75896 0.40738 0.0
O401 O 0.89557 0.81531 0.39769 0.0
Mg402 Mg 0.86509 0.83327 0.45799 0.0
O403 O 0.84099 0.7744 0.4627 0.0
O404 O 0.8174 0.72052 0.44421 0.0
O405 O 0.83079 0.8489 0.5092 0.0
O406 O 0.91458 0.81606 0.49977 0.0
Mg407 Mg 0.9091 0.88201 0.49013 0.0
O408 O 0.87267 0.90219 0.45256 0.0
O409 O 0.87964 0.86996 0.54014 0.0
O410 O 0.95325 0.84861 0.46721 0.0
O411 O 0.91073 0.93816 0.48832 0.0
C412 C 0.81248 0.83965 0.38932 0.0
C413 C 0.90404 0.7854 0.37862 0.0
C414 C 0.82654 0.74254 0.47135 0.0
C415 C 0.84499 0.86307 0.53848 0.0
C416 C 0.94675 0.831 0.49716 0.0
C417 C 0.88297 0.93524 0.4653 0.0
O418 O 0.81875 0.80637 0.37816 0.0
O419 O 0.81814 0.84994 0.42262 0.0
O420 O 0.95228 0.15117 0.13004 0.0
Mg421 Mg 0.96331 0.11454 0.17199 0.0
O422 O 0.89314 0.15192 0.15206 0.0
Mg423 Mg 0.87869 0.11863 0.21176 0.0
O424 O 0.94178 0.11501 0.22642 0.0
O425 O 0.95943 0.16693 0.20128 0.0
O426 O 0.86572 0.08208 0.26142 0.0
O427 O 0.88209 0.17203 0.25176 0.0
Mg428 Mg 0.8231 0.14999 0.23852 0.0
O429 O 0.80917 0.11079 0.20112 0.0
O430 O 0.83363 0.1253 0.2912 0.0
O431 O 0.84321 0.2017 0.2166 0.0
O432 O 0.76825 0.14313 0.23747 0.0
C433 C 0.89399 0.06324 0.14662 0.0
C434 C 0.91834 0.16074 0.12706 0.0
C435 C 0.95976 0.14586 0.22983 0.0
C436 C 0.84475 0.0918 0.28834 0.0
C437 C 0.86325 0.20144 0.24561 0.0
C438 C 0.77507 0.11586 0.21474 0.0
O439 O 0.92547 0.07845 0.14028 0.0
O440 O 0.87726 0.06747 0.17741 0.0
O441 O 0.37325 0.70127 0.58934 0.0
Mg442 Mg 0.33704 0.70973 0.54582 0.0
O443 O 0.38975 0.64637 0.56295 0.0
Mg444 Mg 0.36015 0.6299 0.50285 0.0
O445 O 0.35353 0.69298 0.49056 0.0
O446 O 0.3893 0.72759 0.52558 0.0
O447 O 0.32891 0.61537 0.44973 0.0
O448 O 0.41673 0.63561 0.46698 0.0
Mg449 Mg 0.39379 0.57738 0.47991 0.0
O450 O 0.3555 0.56201 0.51777 0.0
O451 O 0.37587 0.58486 0.4246 0.0
O452 O 0.44626 0.59478 0.50068 0.0
O453 O 0.38691 0.52253 0.47962 0.0
C454 C 0.30339 0.63055 0.56377 0.0
C455 C 0.39199 0.67122 0.58953 0.0
C456 C 0.38155 0.71554 0.49299 0.0
C457 C 0.3423 0.59558 0.42349 0.0
C458 C 0.44468 0.61389 0.47102 0.0
C459 C 0.36122 0.52827 0.50431 0.0
O460 O 0.31357 0.66235 0.57528 0.0
O461 O 0.30472 0.62315 0.52955 0.0
O462 O 0.01248 0.64425 0.33294 0.0
Mg463 Mg 0.00059 0.59558 0.30475 0.0
O464 O 0.07163 0.64274 0.3106 0.0
Mg465 Mg 0.07946 0.61214 0.2505 0.0
O466 O 0.01902 0.60536 0.25162 0.0
O467 O 0.95955 0.60052 0.2609 0.0
O468 O 0.08308 0.57651 0.19854 0.0
O469 O 0.06522 0.66546 0.21376 0.0
Mg470 Mg 0.12932 0.64991 0.21648 0.0
O471 O 0.14937 0.61173 0.25246 0.0
O472 O 0.10218 0.62535 0.16913 0.0
O473 O 0.1046 0.69456 0.24833 0.0
O474 O 0.18524 0.64558 0.21288 0.0
C475 C 0.07953 0.55273 0.31371 0.0
C476 C 0.04701 0.65202 0.33574 0.0
C477 C -0.01361 0.60532 0.23744 0.0
C478 C 0.10147 0.59041 0.17187 0.0
C479 C 0.08519 0.69418 0.21883 0.0
C480 C 0.1824 0.62044 0.23862 0.0
O481 O 0.04682 0.56131 0.32555 0.0
O482 O 0.09126 0.56145 0.28174 0.0
O483 O 0.44639 0.29601 0.83751 0.0
Mg484 Mg 0.45902 0.34805 0.81499 0.0
O485 O 0.38803 0.30778 0.81731 0.0
Mg486 Mg 0.38503 0.33992 0.75802 0.0
O487 O 0.44848 0.34094 0.75844 0.0
O488 O 0.49466 0.37642 0.77814 0.0
O489 O 0.38447 0.37624 0.70723 0.0
O490 O 0.39212 0.28568 0.71816 0.0
Mg491 Mg 0.33322 0.31048 0.72429 0.0
O492 O 0.31505 0.34944 0.76 0.0
O493 O 0.35699 0.33257 0.67457 0.0
O494 O 0.3487 0.25879 0.75004 0.0
O495 O 0.27827 0.31915 0.71829 0.0
C496 C 0.38865 0.39729 0.825 0.0
C497 C 0.41106 0.29471 0.84205 0.0
C498 C 0.474 0.36516 0.75077 0.0
C499 C 0.36863 0.36571 0.67746 0.0
C500 C 0.36875 0.25906 0.72094 0.0
C501 C 0.2822 0.34429 0.74395 0.0
O502 O 0.41724 0.38214 0.83961 0.0
O503 O 0.37945 0.39177 0.79136 0.0
O504 O 0.88836 0.92332 0.69752 0.0
Mg505 Mg 0.90278 0.86895 0.71218 0.0
O506 O 0.89074 0.89868 0.64015 0.0
Mg507 Mg 0.95096 0.86605 0.63258 0.0
O508 O 0.95842 0.8693 0.69588 0.0
O509 O 0.94021 0.84135 0.74758 0.0
O510 O 0.00386 0.83 0.6285 0.0
O511 O -0.01335 0.92385 0.63001 0.0
Mg512 Mg 0.98158 0.88938 0.57735 0.0
O513 O 0.94523 0.84899 0.56391 0.0
O514 O 0.03251 0.87806 0.60604 0.0
O515 O 0.95448 0.94192 0.5816 0.0
O516 O -0.00904 0.87055 0.52571 0.0
C517 C 0.88267 0.81491 0.64657 0.0
C518 C 0.87302 0.91716 0.66605 0.0
C519 C 0.96609 0.84681 0.72305 0.0
C520 C 0.03309 0.84421 0.61454 0.0
C521 C -0.01675 0.94556 0.60187 0.0
C522 C 0.96297 0.8485 0.53139 0.0
O523 O 0.87137 0.83375 0.67463 0.0
O524 O 0.91685 0.81428 0.63686 0.0
O525 O 0.80521 0.134 0.44648 0.0
Mg526 Mg 0.85944 0.15325 0.45009 0.0
O527 O 0.81319 0.14996 0.38627 0.0
Mg528 Mg 0.84507 0.20962 0.38074 0.0
O529 O 0.84948 0.21023 0.44387 0.0
O530 O 0.89289 0.18864 0.48196 0.0
O531 O 0.88042 0.26075 0.37894 0.0
O532 O 0.78907 0.24768 0.3864 0.0
Mg533 Mg 0.8123 0.24589 0.32542 0.0
O534 O 0.85109 0.20764 0.31198 0.0
O535 O 0.83598 0.29337 0.3528 0.0
O536 O 0.76396 0.21483 0.34244 0.0
O537 O 0.82478 0.24849 0.27115 0.0
C538 C 0.90112 0.14402 0.37602 0.0
C539 C 0.80121 0.12715 0.4118 0.0
C540 C 0.87694 0.21689 0.46628 0.0
C541 C 0.86995 0.2899 0.36223 0.0
C542 C 0.76235 0.24332 0.36307 0.0
C543 C 0.84768 0.22139 0.27803 0.0
O544 O 0.88611 0.12754 0.40348 0.0
O545 O 0.89902 0.17899 0.37287 0.0
O546 O 0.58255 0.06656 0.20288 0.0
Mg547 Mg 0.54071 0.10535 0.20818 0.0
O548 O 0.56471 0.06335 0.14267 0.0
Mg549 Mg 0.50519 0.09372 0.12274 0.0
O550 O 0.48772 0.10815 0.18423 0.0
O551 O 0.50588 0.05606 0.20854 0.0
O552 O 0.45367 0.12494 0.10457 0.0
O553 O 0.46667 0.04071 0.13067 0.0
Mg554 Mg 0.48189 0.05299 0.06798 0.0
O555 O 0.51851 0.09292 0.05368 0.0
O556 O 0.42848 0.07709 0.07477 0.0
O557 O 0.50171 0.00492 0.0965 0.0
O558 O 0.48754 0.05513 0.01287 0.0
C559 C 0.56887 0.14955 0.13417 0.0
C560 C 0.58822 0.05599 0.16958 0.0
C561 C 0.48208 0.08255 0.20863 0.0
C562 C 0.42714 0.11064 0.08578 0.0
C563 C 0.47101 0.00999 0.11341 0.0
C564 C 0.50759 0.0845 0.01925 0.0
O565 O 0.57318 0.137 0.1672 0.0
O566 O 0.53876 0.14493 0.1163 0.0
O567 O 0.70819 0.74622 0.83242 0.0
Mg568 Mg 0.65722 0.71637 0.82406 0.0
O569 O 0.68811 0.71703 0.88132 0.0
Mg570 Mg 0.63106 0.75332 0.87954 0.0
O571 O 0.61643 0.75295 0.81015 0.0
O572 O 0.6397 0.70859 0.77136 0.0
O573 O 0.57786 0.78632 0.87811 0.0
O574 O 0.66252 0.81134 0.87741 0.0
Mg575 Mg 0.63007 0.8127 0.95256 0.0
O576 O 0.63541 0.75587 0.94311 0.0
O577 O 0.59091 0.83523 0.91423 0.0
O578 O 0.68019 0.83472 0.93293 0.0
O579 O 0.6062 0.7778 -0.00724 0.0
C580 C 0.60731 0.67271 0.86823 0.0
C581 C 0.7122 0.71959 0.85511 0.0
C582 C 0.6174 0.73649 0.777 0.0
C583 C 0.57297 0.82007 0.88758 0.0
C584 C 0.67799 0.83704 0.89745 0.0
C585 C 0.61401 0.74964 0.97157 0.0
O586 O 0.64113 0.67065 0.85878 0.0
O587 O 0.59603 0.70182 0.88466 0.0
O588 O 0.88208 0.05159 0.77553 0.0
Mg589 Mg 0.90821 0.10063 0.75965 0.0
O590 O 0.89979 0.06606 0.83362 0.0
Mg591 Mg 0.95721 0.10011 0.84188 0.0
O592 O 0.9611 0.11341 0.78038 0.0
O593 O 0.95649 0.08182 0.72955 0.0
O594 O 0.00938 0.13494 0.85142 0.0
O595 O -0.00419 0.04681 0.83231 0.0
Mg596 Mg -0.01444 0.06515 0.8942 0.0
O597 O 0.95009 0.10547 0.91028 0.0
O598 O 0.03733 0.08562 0.87489 0.0
O599 O 0.96037 0.01666 0.87094 0.0
O600 O -0.01315 0.07315 0.95004 0.0
C601 C 0.88997 0.15091 0.83332 0.0
C602 C 0.87687 0.05057 0.81046 0.0
C603 C 0.97778 0.09962 0.75207 0.0
C604 C 0.03805 0.11953 0.8657 0.0
C605 C -0.00919 0.01834 0.85285 0.0
C606 C 0.96327 0.09989 0.94407 0.0
O607 O 0.88139 0.13618 0.80177 0.0
O608 O 0.92222 0.14867 0.84762 0.0
O609 O 0.64675 0.12617 0.51235 0.0
Mg610 Mg 0.59388 0.14999 0.51159 0.0
O611 O 0.65145 0.14499 0.57204 0.0
Mg612 Mg 0.61878 0.20314 0.58553 0.0
O613 O 0.60026 0.20528 0.52514 0.0
O614 O 0.57844 0.18797 0.47011 0.0
O615 O 0.58279 0.25227 0.59797 0.0
O616 O 0.66733 0.24651 0.57076 0.0
Mg617 Mg 0.65967 0.23702 0.63705 0.0
O618 O 0.62248 0.19872 0.65337 0.0
O619 O 0.6278 0.28533 0.62455 0.0
O620 O 0.70396 0.21298 0.60446 0.0
O621 O 0.65827 0.23282 0.69299 0.0
C622 C 0.55908 0.1367 0.59023 0.0
C623 C 0.65826 0.12114 0.54548 0.0
C624 C 0.58974 0.21444 0.49195 0.0
C625 C 0.5938 0.2811 0.61533 0.0
C626 C 0.69849 0.24345 0.58753 0.0
C627 C 0.63082 0.21 0.68727 0.0
O628 O 0.56379 0.12563 0.55669 0.0
O629 O 0.57197 0.16704 0.60244 0.0
O630 O 0.50541 0.94209 0.38183 0.0
Mg631 Mg 0.47659 0.89037 0.38638 0.0
O632 O 0.47571 0.92438 0.33199 0.0
Mg633 Mg 0.51223 0.86709 0.33192 0.0
O634 O 0.51541 0.85152 0.40048 0.0
O635 O 0.46751 0.86901 0.4378 0.0
O636 O 0.54626 0.81526 0.33163 0.0
O637 O 0.57009 0.90224 0.32721 0.0
Mg638 Mg 0.56675 0.86448 0.25644 0.0
O639 O 0.51017 0.86921 0.26895 0.0
O640 O 0.59541 0.83488 0.29993 0.0
O641 O 0.57866 0.9202 0.26783 0.0
O642 O 0.52993 0.83227 0.22403 0.0
C643 C 0.4302 0.84353 0.34362 0.0
C644 C 0.47824 0.9467 0.35977 0.0
C645 C 0.49745 0.84937 0.4327 0.0
C646 C 0.58132 0.81742 0.32744 0.0
C647 C 0.58918 0.91979 0.3018 0.0
C648 C 0.50265 0.84397 0.24451 0.0
O649 O 0.42979 0.87782 0.35046 0.0
O650 O 0.46057 0.82943 0.33228 0.0
O651 O 0.75419 0.74482 0.11695 0.0
Mg652 Mg 0.806 0.71827 0.13185 0.0
O653 O 0.78042 0.7126 0.0734 0.0
Mg654 Mg 0.8341 0.7541 0.08016 0.0
O655 O 0.84303 0.75594 0.15006 0.0
O656 O 0.8149 0.71302 0.18698 0.0
O657 O 0.88462 0.78939 0.08592 0.0
O658 O 0.80104 0.81257 0.07684 0.0
Mg659 Mg 0.84279 0.81155 0.00437 0.0
O660 O 0.83612 0.75582 0.01735 0.0
O661 O 0.8756 0.83675 0.04676 0.0
O662 O 0.78966 0.83066 0.0177 0.0
O663 O 0.8724 0.77306 0.97103 0.0
C664 C 0.86301 0.67366 0.09333 0.0
C665 C 0.75348 0.71615 0.09651 0.0
C666 C 0.83825 0.74025 0.18307 0.0
C667 C 0.89016 0.82279 0.07598 0.0
C668 C 0.78867 0.83666 0.0528 0.0
C669 C 0.86094 0.74688 -0.00711 0.0
O670 O 0.83026 0.66972 0.10627 0.0
O671 O 0.87243 0.7046 0.07943 0.0
O672 O 0.7033 0.87574 0.85315 0.0
Mg673 Mg 0.69559 0.91698 0.81472 0.0
O674 O 0.65286 0.89811 0.88411 0.0
Mg675 Mg 0.62256 0.95694 0.8584 0.0
O676 O 0.67801 0.97175 0.82783 0.0
O677 O 0.7177 0.94257 0.86282 0.0
O678 O 0.59508 0.00691 0.83374 0.0
O679 O 0.64414 -0.00137 0.90553 0.0
Mg680 Mg 0.56102 -0.00717 0.92116 0.0
O681 O 0.56145 0.94965 0.88391 0.0
O682 O 0.56544 0.03741 0.88016 0.0
O683 O 0.61015 0.97175 0.94728 0.0
O684 O 0.5091 0.97258 0.90799 0.0
C685 C 0.61099 0.8915 0.80272 0.0
C686 C 0.68013 0.87382 0.87989 0.0
C687 C 0.70572 0.97356 0.85062 0.0
C688 C 0.57489 0.03373 0.84576 0.0
C689 C 0.6306 -0.00096 0.93842 0.0
C690 C 0.52562 0.95673 0.88002 0.0
O691 O 0.64597 0.88605 0.80244 0.0
O692 O 0.59722 0.92218 0.81311 0.0
O693 O 0.7428 0.84636 0.70449 0.0
Mg694 Mg 0.71381 0.83037 0.65458 0.0
O695 O 0.7124 0.89057 0.67654 0.0
Mg696 Mg 0.75175 0.88216 0.6206 0.0
O697 O 0.75205 0.81286 0.61708 0.0
O698 O 0.70704 0.77632 0.64323 0.0
O699 O 0.78706 0.87339 0.5686 0.0
O700 O 0.8121 0.89158 0.65238 0.0
Mg701 Mg 0.80629 0.95743 0.60656 0.0
O702 O 0.75031 0.9448 0.61256 0.0
O703 O 0.83437 0.91213 0.57944 0.0
O704 O 0.81799 0.95268 0.6633 0.0
O705 O 0.76916 -0.01386 0.57147 0.0
C706 C 0.66966 0.86477 0.59727 0.0
C707 C 0.71464 0.86766 0.70398 0.0
C708 C 0.73518 0.78028 0.62085 0.0
C709 C 0.82121 0.88248 0.56498 0.0
C710 C 0.83141 0.91988 0.66461 0.0
C711 C 0.74231 0.96626 0.58486 0.0
O712 O 0.66694 0.86014 0.63206 0.0
O713 O 0.70028 0.87651 0.58403 0.0
O714 O 0.88752 -0.00115 0.45059 0.0
Mg715 Mg 0.897 -0.01812 0.39509 0.0
O716 O 0.84214 0.96776 0.42415 0.0
Mg717 Mg 0.84099 0.00275 0.36582 0.0
O718 O 0.90914 0.01892 0.35447 0.0
O719 O 0.95129 0.98116 0.38245 0.0
O720 O 0.83971 0.03053 0.31092 0.0
O721 O 0.82149 0.06499 0.39446 0.0
Mg722 Mg 0.7549 0.03621 0.35722 0.0
O723 O 0.77931 -0.01667 0.3621 0.0
O724 O 0.79393 0.06944 0.32387 0.0
O725 O 0.76038 0.08128 0.39155 0.0
O726 O 0.75941 0.01096 0.41193 0.0
C727 C 0.87284 0.92237 0.34927 0.0
C728 C 0.86649 0.97039 0.45025 0.0
C729 C 0.94357 0.00558 0.3572 0.0
C730 C 0.82579 0.06281 0.30963 0.0
C731 C 0.7938 0.08831 0.40099 0.0
C732 C 0.7594 -0.01835 0.39186 0.0
O733 O 0.88666 0.926 0.38135 0.0
O734 O 0.8549 0.94911 0.33458 0.0
O735 O 0.63302 0.01142 0.15291 0.0
Mg736 Mg 0.65389 0.01118 0.09902 0.0
O737 O 0.6492 0.07199 0.14925 0.0
Mg738 Mg 0.70904 0.08006 0.11734 0.0
O739 O 0.71012 0.01799 0.11255 0.0
O740 O 0.69262 0.98123 0.0666 0.0
O741 O 0.76119 0.08391 0.08198 0.0
O742 O 0.7452 0.07153 0.17417 0.0
Mg743 Mg 0.74299 0.13069 0.15025 0.0
O744 O 0.70657 0.14875 0.11198 0.0
O745 O 0.7916 0.10109 0.13126 0.0
O746 O 0.71197 0.11548 0.1992 0.0
O747 O 0.75087 0.18491 0.13927 0.0
C748 C 0.64438 0.08716 0.06075 0.0
C749 C 0.62678 0.04561 0.1603 0.0
C750 C 0.71936 -0.00359 0.08541 0.0
C751 C 0.79079 0.09639 0.09649 0.0
C752 C 0.74148 0.09601 0.19988 0.0
C753 C 0.72338 0.18113 0.1161 0.0
O754 O 0.62793 0.05901 0.07443 0.0
O755 O 0.67939 0.09007 0.06315 0.0
O756 O 0.59073 -0.00854 0.5014 0.0
Mg757 Mg 0.56606 0.97284 0.55205 0.0
O758 O 0.6277 0.95896 0.53672 0.0
Mg759 Mg 0.62 -0.00279 0.59107 0.0
O760 O 0.55129 0.01032 0.59156 0.0
O761 O 0.51077 0.97685 0.55595 0.0
O762 O 0.61368 0.02965 0.64339 0.0
O763 O 0.64022 0.05836 0.56174 0.0
Mg764 Mg 0.70498 0.03269 0.60345 0.0
O765 O 0.68106 0.97992 0.60332 0.0
O766 O 0.66496 0.06371 0.6373 0.0
O767 O 0.70013 0.07701 0.56797 0.0
O768 O 0.70136 0.00224 0.55107 0.0
C769 C 0.58507 0.91757 0.60806 0.0
C770 C 0.60988 0.9621 0.50608 0.0
C771 C 0.51698 -0.00122 0.58401 0.0
C772 C 0.632 0.05905 0.64985 0.0
C773 C 0.66722 0.08251 0.55621 0.0
C774 C 0.70361 0.97672 0.57571 0.0
O775 O 0.57462 0.91904 0.57435 0.0
O776 O 0.60258 0.94474 0.62277 0.0
O777 O 0.63927 0.9582 0.31783 0.0
Mg778 Mg 0.65652 0.95283 0.37298 0.0
O779 O 0.64946 0.89635 0.31791 0.0
Mg780 Mg 0.70967 0.88383 0.34816 0.0
O781 O 0.71296 0.94581 0.35927 0.0
O782 O 0.6957 0.97662 0.40964 0.0
O783 O 0.76193 0.8772 0.38026 0.0
O784 O 0.7456 0.89361 0.29138 0.0
Mg785 Mg 0.74199 0.83201 0.30998 0.0
O786 O 0.70838 0.81417 0.3506 0.0
O787 O 0.79186 0.8564 0.33119 0.0
O788 O 0.70995 0.85322 0.26397 0.0
O789 O 0.74771 0.77706 0.31705 0.0
C790 C 0.64418 0.87414 0.40282 0.0
C791 C 0.62939 0.92534 0.30874 0.0
C792 C 0.72239 0.96391 0.38897 0.0
C793 C 0.79108 0.8637 0.36563 0.0
C794 C 0.74001 0.87177 0.26362 0.0
C795 C 0.72382 0.78129 0.34391 0.0
O796 O 0.62815 0.90365 0.39178 0.0
O797 O 0.67941 0.87176 0.40202 0.0
O798 O 0.75279 0.88236 0.08085 0.0
Mg799 Mg 0.75812 0.92459 0.11785 0.0
O800 O 0.81306 0.89807 0.0694 0.0
Mg801 Mg 0.83777 0.95994 0.09901 0.0
O802 O 0.77728 0.979 0.11272 0.0
O803 O 0.75844 0.95085 0.06306 0.0
O804 O 0.85821 0.01067 0.13091 0.0
O805 O 0.82947 -0.00039 0.04619 0.0
Mg806 Mg 0.89378 -0.01294 0.05765 0.0
O807 O 0.90531 0.94679 0.0955 0.0
O808 O 0.88849 0.03928 0.08541 0.0
O809 O 0.86486 0.96703 0.00958 0.0
O810 O 0.94825 0.9798 0.06192 0.0
C811 C 0.83443 0.89615 0.15494 0.0
C812 C 0.78408 0.87543 0.06571 0.0
C813 C 0.75678 0.97981 0.08336 0.0
C814 C 0.87822 0.03754 0.11932 0.0
C815 C 0.84636 -0.0034 0.01503 0.0
C816 C 0.94004 0.95802 0.08956 0.0
O817 O 0.8013 0.89008 0.14387 0.0
O818 O 0.84869 0.928 0.15138 0.0
O819 O 0.83778 0.00937 0.841 0.0
Mg820 Mg 0.79637 0.00464 0.88033 0.0
O821 O 0.81377 0.0658 0.82671 0.0
Mg822 Mg 0.75263 0.08335 0.85505 0.0
O823 O 0.74098 0.02411 0.87266 0.0
O824 O 0.76531 -0.01262 0.83211 0.0
O825 O 0.70113 0.09871 0.88496 0.0
O826 O 0.71627 0.06884 0.80103 0.0
Mg827 Mg 0.72595 0.13272 0.81092 0.0
O828 O 0.76031 0.15191 0.85075 0.0
O829 O 0.67362 0.11795 0.83375 0.0
O830 O 0.75273 0.10258 0.76689 0.0
O831 O 0.72476 0.18833 0.81275 0.0
C832 C 0.81537 0.0869 0.90981 0.0
C833 C 0.83975 0.04027 0.82399 0.0
C834 C 0.73549 0.00087 0.84624 0.0
C835 C 0.6739 0.11418 0.86872 0.0
C836 C 0.72193 0.08544 0.77021 0.0
C837 C 0.74627 0.18476 0.84163 0.0
O838 O 0.82519 0.05363 0.90231 0.0
O839 O 0.78187 0.09698 0.90673 0.0
O840 O 0.88087 0.70606 0.88731 0.0
Mg841 Mg 0.84148 0.70286 0.92816 0.0
O842 O 0.88944 0.64611 0.90468 0.0
Mg843 Mg 0.85835 0.62402 0.96548 0.0
O844 O 0.84432 0.68434 -0.0164 0.0
O845 O 0.89457 0.70493 0.95797 0.0
O846 O 0.82738 0.60604 0.01699 0.0
O847 O 0.91449 0.62933 0.00484 0.0
Mg848 Mg 0.89549 0.57349 -0.01752 0.0
O849 O 0.85581 0.55671 0.94842 0.0
O850 O 0.87754 0.57814 0.0384 0.0
O851 O 0.94398 0.60094 0.9605 0.0
O852 O 0.89488 0.51791 0.97965 0.0
C853 C 0.80552 0.62593 0.90114 0.0
C854 C 0.89508 0.67414 0.88164 0.0
C855 C 0.87096 0.70801 -0.01567 0.0
C856 C 0.84406 0.58803 0.04247 0.0
C857 C 0.94247 0.60953 -0.0051 0.0
C858 C 0.86521 0.52302 0.95966 0.0
O859 O 0.81774 0.65815 0.89313 0.0
O860 O 0.80482 0.61557 0.9347 0.0
O861 O 0.4244 0.77101 0.0818 0.0
Mg862 Mg 0.37107 0.75743 0.06324 0.0
O863 O 0.4035 0.82844 0.06856 0.0
Mg864 Mg 0.36954 0.83314 0.01077 0.0
O865 O 0.37119 0.76921 0.00657 0.0
O866 O 0.34346 0.7191 0.02964 0.0
O867 O 0.33195 0.83867 0.95852 0.0
O868 O 0.42528 0.83026 0.97289 0.0
Mg869 Mg 0.39691 0.8878 0.9784 0.0
O870 O 0.35793 0.9017 0.01715 0.0
O871 O 0.3803 0.85996 0.92867 0.0
O872 O 0.45066 0.87766 0.0011 0.0
O873 O 0.38009 0.94094 0.97288 0.0
C874 C 0.31699 0.82297 0.07987 0.0
C875 C 0.42114 0.80542 0.09006 0.0
C876 C 0.34859 0.74141 0.00176 0.0
C877 C 0.34593 0.85307 0.92927 0.0
C878 C 0.45091 0.85498 0.97391 0.0
C879 C 0.3583 0.93481 0.00107 0.0
O880 O 0.33549 0.79532 0.09227 0.0
O881 O 0.31853 0.8331 0.04595 0.0
O882 O 0.94432 0.67009 0.83785 0.0
Mg883 Mg 0.96105 0.6185 0.81674 0.0
O884 O 0.88691 0.65195 0.81976 0.0
Mg885 Mg 0.88703 0.62147 0.75966 0.0
O886 O 0.94984 0.62585 0.76001 0.0
O887 O -0.00323 0.59095 0.77911 0.0
O888 O 0.89038 0.58672 0.70663 0.0
O889 O 0.88574 0.68054 0.72544 0.0
Mg890 Mg 0.83361 0.64546 0.7267 0.0
O891 O 0.8186 0.60452 0.76101 0.0
O892 O 0.8671 0.63406 0.67808 0.0
O893 O 0.83785 0.6954 0.75949 0.0
O894 O 0.78176 0.6288 0.71548 0.0
C895 C 0.89291 0.56649 0.82494 0.0
C896 C 0.90922 0.66757 0.84363 0.0
C897 C 0.9755 0.60181 0.75212 0.0
C898 C 0.87511 0.6 0.67779 0.0
C899 C 0.85669 0.70088 0.73017 0.0
C900 C 0.78638 0.606 0.74307 0.0
O901 O 0.91942 0.58351 0.84129 0.0
O902 O 0.88892 0.56784 0.78986 0.0
O903 O 0.08341 0.20778 0.58379 0.0
Mg904 Mg 0.11915 0.21224 0.53933 0.0
O905 O 0.07316 0.14924 0.56279 0.0
Mg906 Mg 0.10091 0.13001 0.50098 0.0
O907 O 0.11495 0.19065 0.48511 0.0
O908 O 0.06626 0.21595 0.51035 0.0
O909 O 0.13217 0.11318 0.44883 0.0
O910 O 0.04432 0.13862 0.46431 0.0
Mg911 Mg 0.06248 0.07855 0.47625 0.0
O912 O 0.1006 0.06208 0.51384 0.0
O913 O 0.08252 0.08957 0.42209 0.0
O914 O 0.01088 0.09933 0.49649 0.0
O915 O 0.06911 0.02376 0.47423 0.0
C916 C 0.15746 0.13475 0.56307 0.0
C917 C 0.06969 0.1755 0.5881 0.0
C918 C 0.0892 0.21538 0.48311 0.0
C919 C 0.11683 0.09725 0.42124 0.0
C920 C 0.01493 0.11842 0.46698 0.0
C921 C 0.09563 0.02906 0.49817 0.0
O922 O 0.14726 0.16796 0.57023 0.0
O923 O 0.15395 0.12121 0.53078 0.0
O924 O 0.01717 0.79935 0.82914 0.0
Mg925 Mg 0.00633 0.84269 0.79312 0.0
O926 O 0.07713 0.80882 0.81391 0.0
Mg927 Mg 0.09121 0.84172 0.75452 0.0
O928 O 0.02855 0.85417 0.74061 0.0
O929 O 0.00207 0.80101 0.74928 0.0
O930 O 0.10324 0.87646 0.70408 0.0
O931 O 0.08609 0.78837 0.71526 0.0
Mg932 Mg 0.14735 0.80757 0.72572 0.0
O933 O 0.16129 0.84664 0.76358 0.0
O934 O 0.13337 0.83217 0.67358 0.0
O935 O 0.12549 0.75757 0.7494 0.0
O936 O 0.20233 0.81451 0.72711 0.0
C937 C 0.07588 0.89539 0.81972 0.0
C938 C 0.05153 0.79602 0.83639 0.0
C939 C 0.00358 0.83083 0.73005 0.0
C940 C 0.1204 0.86505 0.67525 0.0
C941 C 0.10656 0.75961 0.71967 0.0
C942 C 0.19559 0.84128 0.75048 0.0
O943 O 0.04445 0.8793 0.82532 0.0
O944 O 0.09391 0.89157 0.78953 0.0
O945 O 0.58749 0.25257 0.38029 0.0
Mg946 Mg 0.62509 0.25567 0.4228 0.0
O947 O 0.57988 0.31274 0.39785 0.0
Mg948 Mg 0.60984 0.33374 0.45973 0.0
O949 O 0.61896 0.27221 0.47899 0.0
O950 O 0.56994 0.25663 0.44858 0.0
O951 O 0.64028 0.35167 0.51171 0.0
O952 O 0.55282 0.32832 0.49516 0.0
Mg953 Mg 0.57558 0.38593 0.48079 0.0
O954 O 0.61418 0.40205 0.44326 0.0
O955 O 0.59176 0.3794 0.53679 0.0
O956 O 0.52306 0.36823 0.46052 0.0
O957 O 0.58246 0.44081 0.48189 0.0
C958 C 0.66378 0.33122 0.399 0.0
C959 C 0.57412 0.28486 0.37455 0.0
C960 C 0.58886 0.25299 0.47826 0.0
C961 C 0.62589 0.37082 0.53781 0.0
C962 C 0.52444 0.34928 0.49034 0.0
C963 C 0.60859 0.43563 0.45756 0.0
O964 O 0.65065 0.29997 0.38911 0.0
O965 O 0.6651 0.33944 0.43302 0.0
O966 O 0.94509 0.30128 0.63104 0.0
Mg967 Mg 0.95663 0.35411 0.65209 0.0
O968 O 0.88574 0.30836 0.65029 0.0
Mg969 Mg 0.87905 0.34228 0.70787 0.0
O970 O 0.94112 0.35195 0.70679 0.0
O971 O -0.00135 0.36673 0.69145 0.0
O972 O 0.87331 0.38055 0.75661 0.0
O973 O 0.88976 0.29166 0.74963 0.0
Mg974 Mg 0.82678 0.30815 0.7421 0.0
O975 O 0.80969 0.34548 0.70507 0.0
O976 O 0.84559 0.33738 0.79027 0.0
O977 O 0.85196 0.26101 0.71447 0.0
O978 O 0.77092 0.31224 0.74259 0.0
C979 C 0.88379 0.40167 0.64215 0.0
C980 C 0.91024 0.29651 0.62639 0.0
C981 C 0.97416 0.36108 0.71738 0.0
C982 C 0.85518 0.37106 0.78542 0.0
C983 C 0.86937 0.26305 0.74509 0.0
C984 C 0.77607 0.33835 0.7182 0.0
O985 O 0.91559 0.39098 0.62993 0.0
O986 O 0.86959 0.39064 0.67241 0.0
O987 O 0.52683 0.67626 0.12893 0.0
Mg988 Mg 0.50851 0.62405 0.14695 0.0
O989 O 0.58318 0.65845 0.14997 0.0
Mg990 Mg 0.58073 0.6253 0.2076 0.0
O991 O 0.51796 0.62824 0.20391 0.0
O992 O 0.47032 0.59629 0.182 0.0
O993 O 0.57637 0.58815 0.2579 0.0
O994 O 0.57707 0.68041 0.24625 0.0
Mg995 Mg 0.63399 0.65125 0.2439 0.0
O996 O 0.64969 0.61178 0.20806 0.0
O997 O 0.60383 0.63089 0.29127 0.0
O998 O 0.62259 0.70135 0.21286 0.0
O999 O 0.68773 0.63833 0.25135 0.0
C1000 C 0.57543 0.56978 0.13954 0.0
C1001 C 0.56226 0.67464 0.12543 0.0
C1002 C 0.4914 0.60482 0.20999 0.0
C1003 C 0.59273 0.5976 0.28772 0.0
C1004 C 0.60272 0.70463 0.2418 0.0
C1005 C 0.68263 0.61483 0.22435 0.0
O1006 O 0.54928 0.58762 0.12339 0.0
O1007 O 0.58289 0.57382 0.17384 0.0
O1008 O 0.57635 0.57248 0.75504 0.0
Mg1009 Mg 0.56007 0.62759 0.76345 0.0
O1010 O 0.5715 0.57395 0.81714 0.0
Mg1011 Mg 0.5125 0.60651 0.83636 0.0
O1012 O 0.50372 0.62917 0.77653 0.0
O1013 O 0.52682 0.65161 0.72311 0.0
O1014 O 0.46117 0.63931 0.8528 0.0
O1015 O 0.47129 0.55536 0.82398 0.0
Mg1016 Mg 0.48307 0.56545 0.88962 0.0
O1017 O 0.521 0.60401 0.90527 0.0
O1018 O 0.4316 0.59155 0.87828 0.0
O1019 O 0.50439 0.51908 0.85914 0.0
O1020 O 0.48629 0.56945 0.9454 0.0
C1021 C 0.58124 0.65704 0.84176 0.0
C1022 C 0.58917 0.56379 0.78683 0.0
C1023 C 0.4982 0.64185 0.743 0.0
C1024 C 0.43277 0.62559 0.86911 0.0
C1025 C 0.47416 0.52455 0.84151 0.0
C1026 C 0.50879 0.59705 0.93944 0.0
O1027 O 0.59268 0.64882 0.80908 0.0
O1028 O 0.547 0.65567 0.85017 0.0
O1029 O 0.6562 0.33835 0.02561 0.0
Mg1030 Mg 0.62117 0.29704 0.00618 0.0
O1031 O 0.65674 0.31054 0.08176 0.0
Mg1032 Mg 0.62367 0.25224 0.0901 0.0
O1033 O 0.61485 0.24289 0.02728 0.0
O1034 O 0.6681 0.25954 0.00412 0.0
O1035 O 0.58748 0.20201 0.10019 0.0
O1036 O 0.67606 0.21192 0.08305 0.0
Mg1037 Mg 0.6582 0.2215 0.14531 0.0
O1038 O 0.61931 0.25993 0.15842 0.0
O1039 O 0.63065 0.17087 0.13146 0.0
O1040 O 0.7088 0.2437 0.12247 0.0
O1041 O 0.651 0.2242 0.20029 0.0
C1042 C 0.56686 0.31676 0.07535 0.0
C1043 C 0.66485 0.33812 0.05987 0.0
C1044 C 0.64179 0.23552 0.00496 0.0
C1045 C 0.5976 0.17361 0.11878 0.0
C1046 C 0.70625 0.21554 0.10141 0.0
C1047 C 0.6243 0.24737 0.19265 0.0
O1048 O 0.58105 0.32329 0.04334 0.0
O1049 O 0.57423 0.28776 0.094 0.0
O1050 O 0.87645 0.36562 0.2571 0.0
Mg1051 Mg 0.91988 0.32857 0.25527 0.0
O1052 O 0.89941 0.38863 0.31152 0.0
Mg1053 Mg 0.96088 0.36085 0.33425 0.0
O1054 O 0.97396 0.34648 0.27265 0.0
O1055 O 0.94007 0.37927 0.23422 0.0
O1056 O 0.01492 0.33121 0.35267 0.0
O1057 O -0.00079 0.41443 0.32277 0.0
Mg1058 Mg -0.01489 0.40321 0.38603 0.0
O1059 O 0.94827 0.36462 0.40317 0.0
O1060 O 0.03889 0.38092 0.37977 0.0
O1061 O 0.96739 0.45213 0.358 0.0
O1062 O 0.98205 0.40245 0.4415 0.0
C1063 C 0.89745 0.30595 0.33717 0.0
C1064 C 0.87414 0.38767 0.28477 0.0
C1065 C 0.97227 0.37219 0.24752 0.0
C1066 C 0.04148 0.34717 0.3702 0.0
C1067 C -0.00258 0.44531 0.34037 0.0
C1068 C 0.96063 0.37377 0.43688 0.0
O1069 O 0.88823 0.3113 0.3035 0.0
O1070 O 0.93123 0.30801 0.34675 0.0
O1071 O 0.8057 0.62955 0.52031 0.0
Mg1072 Mg 0.84198 0.6725 0.50866 0.0
O1073 O 0.80565 0.65106 0.57931 0.0
Mg1074 Mg 0.83649 0.71113 0.59428 0.0
O1075 O 0.84577 0.72603 0.53166 0.0
O1076 O 0.79228 0.7066 0.51172 0.0
O1077 O 0.8697 0.7623 0.60978 0.0
O1078 O 0.78273 0.74965 0.588 0.0
Mg1079 Mg 0.79912 0.73744 0.64986 0.0
O1080 O 0.83989 0.70087 0.66324 0.0
O1081 O 0.82282 0.79022 0.63875 0.0
O1082 O 0.74863 0.71703 0.62583 0.0
O1083 O 0.80603 0.73513 0.70484 0.0
C1084 C 0.89472 0.64827 0.57823 0.0
C1085 C 0.79725 0.6258 0.55445 0.0
C1086 C 0.81774 0.73137 0.50998 0.0
C1087 C 0.85679 0.78944 0.62873 0.0
C1088 C 0.75217 0.74584 0.60574 0.0
C1089 C 0.83463 0.71422 0.69738 0.0
O1090 O 0.88019 0.64311 0.5461 0.0
O1091 O 0.88808 0.67716 0.59753 0.0
O1092 O 0.58593 0.38239 0.7009 0.0
Mg1093 Mg 0.54255 0.34607 0.7095 0.0
O1094 O 0.56165 0.38984 0.64333 0.0
Mg1095 Mg 0.50266 0.35846 0.62649 0.0
O1096 O 0.48754 0.34712 0.68882 0.0
O1097 O 0.51196 0.39789 0.71075 0.0
O1098 O 0.45245 0.32595 0.60974 0.0
O1099 O 0.46333 0.41189 0.63324 0.0
Mg1100 Mg 0.48203 0.39668 0.57344 0.0
O1101 O 0.5178 0.35719 0.55802 0.0
O1102 O 0.4282 0.37263 0.57775 0.0
O1103 O 0.50548 0.44281 0.60361 0.0
O1104 O 0.48819 0.39696 0.51837 0.0
C1105 C 0.56607 0.30354 0.63414 0.0
C1106 C 0.58762 0.39563 0.66814 0.0
C1107 C 0.48546 0.37421 0.71224 0.0
C1108 C 0.4274 0.33896 0.58836 0.0
C1109 C 0.47248 0.4415 0.6162 0.0
C1110 C 0.50831 0.36744 0.52389 0.0
O1111 O 0.57319 0.31578 0.66668 0.0
O1112 O 0.53404 0.30658 0.62005 0.0
O1113 O 0.80947 0.34036 0.94403 0.0
Mg1114 Mg 0.84464 0.29918 0.96324 0.0
O1115 O 0.81075 0.31304 0.88755 0.0
Mg1116 Mg 0.84195 0.25374 0.87998 0.0
O1117 O 0.84626 0.24341 0.94405 0.0
O1118 O 0.79557 0.26556 0.96876 0.0
O1119 O 0.87534 0.2018 0.87084 0.0
O1120 O 0.78644 0.21652 0.88294 0.0
Mg1121 Mg 0.81104 0.22756 0.82471 0.0
O1122 O 0.85201 0.26307 0.81149 0.0
O1123 O 0.83025 0.17448 0.8393 0.0
O1124 O 0.75793 0.24878 0.84013 0.0
O1125 O 0.82203 0.22509 0.77052 0.0
C1126 C 0.89968 0.3166 0.89432 0.0
C1127 C 0.80184 0.34038 0.90952 0.0
C1128 C 0.81788 0.23798 0.96533 0.0
C1129 C 0.86325 0.17466 0.85155 0.0
C1130 C 0.75941 0.21954 0.85992 0.0
C1131 C 0.84873 0.24824 0.77786 0.0
O1132 O 0.88392 0.32552 0.92498 0.0
O1133 O 0.89437 0.2854 0.8788 0.0
O1134 O 0.88311 0.59192 0.20753 0.0
Mg1135 Mg 0.92308 0.62876 0.19238 0.0
O1136 O 0.89675 0.57324 0.14863 0.0
Mg1137 Mg 0.95828 0.59912 0.1182 0.0
O1138 O 0.97752 0.62781 0.175 0.0
O1139 O 0.95384 0.57596 0.19219 0.0
O1140 O 0.00858 0.62443 0.09054 0.0
O1141 O -0.0001 0.55036 0.13647 0.0
Mg1142 Mg -0.00635 0.53914 0.05667 0.0
O1143 O 0.94911 0.57582 0.05622 0.0
O1144 O 0.03981 0.57752 0.06296 0.0
O1145 O 0.97524 0.50673 0.10283 0.0
O1146 O 0.97544 0.55303 0.00461 0.0
C1147 C 0.8923 0.65311 0.11222 0.0
C1148 C 0.87509 0.57305 0.17863 0.0
C1149 C 0.97916 0.60003 0.19741 0.0
C1150 C 0.0361 0.61202 0.0715 0.0
C1151 C 0.00117 0.51689 0.12458 0.0
C1152 C 0.95806 0.58032 0.02077 0.0
O1153 O 0.88828 0.64816 0.14705 0.0
O1154 O 0.92303 0.64605 0.09636 0.0
O1155 O 0.65512 0.62491 0.44084 0.0
Mg1156 Mg 0.62162 0.6675 0.46021 0.0
O1157 O 0.65636 0.65371 0.38514 0.0
Mg1158 Mg 0.62568 0.71357 0.37712 0.0
O1159 O 0.62119 0.72292 0.44069 0.0
O1160 O 0.67215 0.69932 0.46338 0.0
O1161 O 0.59167 0.76609 0.36684 0.0
O1162 O 0.68106 0.75064 0.38294 0.0
Mg1163 Mg 0.65898 0.73976 0.32357 0.0
O1164 O 0.61787 0.70492 0.30854 0.0
O1165 O 0.63955 0.79279 0.33955 0.0
O1166 O 0.71104 0.71765 0.34186 0.0
O1167 O 0.65016 0.74189 0.26861 0.0
C1168 C 0.56758 0.65094 0.39015 0.0
C1169 C 0.664 0.6256 0.4066 0.0
C1170 C 0.65029 0.72737 0.46118 0.0
C1171 C 0.60559 0.79325 0.34885 0.0
C1172 C 0.7094 0.74689 0.36174 0.0
C1173 C 0.62276 0.71928 0.275 0.0
O1174 O 0.58248 0.64242 0.42129 0.0
O1175 O 0.57353 0.68175 0.37422 0.0
O1176 O 0.75746 0.5805 0.57974 0.0
Mg1177 Mg 0.76714 0.56033 0.63332 0.0
O1178 O 0.81811 0.56666 0.57532 0.0
Mg1179 Mg 0.83482 0.50906 0.60708 0.0
O1180 O 0.77603 0.50293 0.63172 0.0
O1181 O 0.72561 0.52876 0.65797 0.0
O1182 O 0.85066 0.4574 0.63845 0.0
O1183 O 0.81942 0.46952 0.55433 0.0
Mg1184 Mg 0.88426 0.48145 0.5629 0.0
O1185 O 0.90137 0.51832 0.60106 0.0
O1186 O 0.87047 0.43011 0.58693 0.0
O1187 O 0.85324 0.50356 0.51734 0.0
O1188 O 0.94004 0.47993 0.56904 0.0
C1189 C 0.84737 0.5763 0.66022 0.0
C1190 C 0.78971 0.58754 0.56697 0.0
C1191 C 0.74276 0.49935 0.64563 0.0
C1192 C 0.86424 0.4294 0.62148 0.0
C1193 C 0.83708 0.47258 0.52337 0.0
C1194 C 0.93421 0.50253 0.59674 0.0
O1195 O 0.81525 0.58984 0.65334 0.0
O1196 O 0.85364 0.54184 0.6566 0.0
O1197 O 0.63756 0.51935 0.78869 0.0
Mg1198 Mg 0.65154 0.50691 0.8438 0.0
O1199 O 0.65242 0.57825 0.80299 0.0
Mg1200 Mg 0.71075 0.58187 0.83861 0.0
O1201 O 0.7077 0.51864 0.84196 0.0
O1202 O 0.68667 0.46996 0.87265 0.0
O1203 O 0.75914 0.58523 0.87936 0.0
O1204 O 0.75432 0.57105 0.78892 0.0
Mg1205 Mg 0.75037 0.63385 0.80698 0.0
O1206 O 0.71234 0.65194 0.84401 0.0
O1207 O 0.79607 0.61173 0.83804 0.0
O1208 O 0.72383 0.61189 0.75752 0.0
O1209 O 0.75347 0.68916 0.81322 0.0
C1210 C 0.64043 0.57677 0.8937 0.0
C1211 C 0.62964 0.55394 0.78856 0.0
C1212 C 0.71431 0.49169 0.86477 0.0
C1213 C 0.78894 0.60283 0.87164 0.0
C1214 C 0.75174 0.59044 0.75939 0.0
C1215 C 0.72784 0.68494 0.83839 0.0
O1216 O 0.62646 0.54801 0.87821 0.0
O1217 O 0.67299 0.58874 0.88681 0.0
O1218 O 0.70497 0.37573 0.09447 0.0
Mg1219 Mg 0.70463 0.41874 0.13213 0.0
O1220 O 0.64847 0.39969 0.08015 0.0
Mg1221 Mg 0.62826 0.46038 0.10927 0.0
O1222 O 0.6888 0.47535 0.12577 0.0
O1223 O 0.71341 0.44648 0.07916 0.0
O1224 O 0.60965 0.51391 0.13726 0.0
O1225 O 0.63991 0.49627 0.05392 0.0
Mg1226 Mg 0.57795 0.48091 0.06669 0.0
O1227 O 0.56117 0.4453 0.10646 0.0
O1228 O 0.5845 0.53576 0.08563 0.0
O1229 O 0.6057 0.46107 0.0183 0.0
O1230 O 0.52239 0.47872 0.06924 0.0
C1231 C 0.624 0.3985 0.16359 0.0
C1232 C 0.67429 0.37398 0.07681 0.0
C1233 C 0.71332 0.47539 0.09975 0.0
C1234 C 0.59284 0.53966 0.11956 0.0
C1235 C 0.62246 0.49189 0.02317 0.0
C1236 C 0.52754 0.45775 0.09819 0.0
O1237 O 0.65632 0.38799 0.15352 0.0
O1238 O 0.61572 0.43255 0.16305 0.0
O1239 O 0.834 0.43919 0.29144 0.0
Mg1240 Mg 0.81099 0.45731 0.34173 0.0
O1241 O 0.81196 0.38226 0.30498 0.0
Mg1242 Mg 0.75556 0.37941 0.3402 0.0
O1243 O 0.75564 0.44249 0.34338 0.0
O1244 O 0.77243 0.50124 0.34873 0.0
O1245 O 0.70693 0.37581 0.3799 0.0
O1246 O 0.71347 0.38729 0.28945 0.0
Mg1247 Mg 0.71962 0.32463 0.30986 0.0
O1248 O 0.75831 0.3103 0.34852 0.0
O1249 O 0.67257 0.34851 0.33702 0.0
O1250 O 0.7449 0.34557 0.25975 0.0
O1251 O 0.71863 0.26968 0.32078 0.0
C1252 C 0.82425 0.39073 0.39684 0.0
C1253 C 0.83695 0.40389 0.29061 0.0
C1254 C 0.74592 0.47678 0.34825 0.0
C1255 C 0.67832 0.35691 0.37097 0.0
C1256 C 0.71722 0.36747 0.26028 0.0
C1257 C 0.74445 0.27639 0.34519 0.0
O1258 O 0.83489 0.4219 0.38326 0.0
O1259 O 0.79398 0.37479 0.38793 0.0
O1260 O 0.75922 0.37867 0.87885 0.0
Mg1261 Mg 0.75537 0.42224 0.84202 0.0
O1262 O 0.81737 0.40109 0.88757 0.0
Mg1263 Mg 0.83612 0.46086 0.85805 0.0
O1264 O 0.77516 0.47745 0.84605 0.0
O1265 O 0.75285 0.45098 0.89524 0.0
O1266 O 0.85451 0.51369 0.82883 0.0
O1267 O 0.82767 0.4947 0.91465 0.0
Mg1268 Mg 0.88862 0.48141 0.89727 0.0
O1269 O 0.90322 0.44521 0.85684 0.0
O1270 O 0.87892 0.53655 0.88022 0.0
O1271 O 0.86523 0.45937 0.94679 0.0
O1272 O 0.94376 0.48069 0.89006 0.0
C1273 C 0.83271 0.39954 0.80349 0.0
C1274 C 0.79158 0.37601 0.89304 0.0
C1275 C 0.75225 0.479 0.87348 0.0
C1276 C 0.87186 0.53945 0.8459 0.0
C1277 C 0.84676 0.48949 0.94422 0.0
C1278 C 0.93713 0.45836 0.86242 0.0
O1279 O 0.80037 0.39105 0.81523 0.0
O1280 O 0.84358 0.43286 0.80393 0.0
O1281 O 0.83078 0.52456 0.17991 0.0
Mg1282 Mg 0.81369 0.50629 0.12763 0.0
O1283 O 0.81194 0.58117 0.16087 0.0
Mg1284 Mg 0.75374 0.58009 0.1268 0.0
O1285 O 0.75697 0.5169 0.1305 0.0
O1286 O 0.779 0.46689 0.10219 0.0
O1287 O 0.704 0.57712 0.08769 0.0
O1288 O 0.71321 0.57615 0.18014 0.0
Mg1289 Mg 0.71503 0.63577 0.15288 0.0
O1290 O 0.75293 0.64942 0.11335 0.0
O1291 O 0.66959 0.6058 0.12894 0.0
O1292 O 0.74327 0.62233 0.20407 0.0
O1293 O 0.70991 0.68912 0.13797 0.0
C1294 C 0.82324 0.57186 0.07246 0.0
C1295 C 0.83617 0.55952 0.17686 0.0
C1296 C 0.75095 0.48851 0.1092 0.0
C1297 C 0.67551 0.59677 0.09519 0.0
C1298 C 0.71671 0.59941 0.20679 0.0
C1299 C 0.73687 0.68269 0.1147 0.0
O1300 O 0.83805 0.54496 0.09023 0.0
O1301 O 0.78956 0.5818 0.07681 0.0
O1302 O 0.70228 0.5884 0.36951 0.0
Mg1303 Mg 0.69903 0.54649 0.33075 0.0
O1304 O 0.64669 0.56453 0.38657 0.0
Mg1305 Mg 0.62361 0.50524 0.35786 0.0
O1306 O 0.68267 0.49022 0.33424 0.0
O1307 O 0.7085 0.51583 0.38193 0.0
O1308 O 0.60118 0.45349 0.33188 0.0
O1309 O 0.63959 0.46727 0.40919 0.0
Mg1310 Mg 0.56469 0.47711 0.41387 0.0
O1311 O 0.55981 0.51778 0.37441 0.0
O1312 O 0.57649 0.4277 0.383 0.0
O1313 O 0.60711 0.49981 0.44844 0.0
O1314 O 0.51139 0.48619 0.39762 0.0
C1315 C 0.61641 0.56923 0.30443 0.0
C1316 C 0.67273 0.58991 0.38901 0.0
C1317 C 0.7081 0.48843 0.35938 0.0
C1318 C 0.58463 0.42682 0.34843 0.0
C1319 C 0.62522 0.47016 0.44153 0.0
C1320 C 0.52538 0.50556 0.37057 0.0
O1321 O 0.65018 0.57737 0.3116 0.0
O1322 O 0.60489 0.53627 0.30778 0.0
O1323 O 0.62353 0.44486 0.64648 0.0
Mg1324 Mg 0.66691 0.46183 0.61302 0.0
O1325 O 0.6509 0.38822 0.64886 0.0
Mg1326 Mg 0.71168 0.37928 0.61796 0.0
O1327 O 0.72317 0.44316 0.61781 0.0
O1328 O 0.6934 0.46419 0.6663 0.0
O1329 O 0.76376 0.37105 0.58379 0.0
O1330 O 0.74756 0.37885 0.6749 0.0
Mg1331 Mg 0.73623 0.32393 0.64434 0.0
O1332 O 0.69957 0.31065 0.60413 0.0
O1333 O 0.79077 0.33763 0.62708 0.0
O1334 O 0.71448 0.33406 0.69859 0.0
O1335 O 0.73928 0.27003 0.63177 0.0
C1336 C 0.65042 0.39105 0.56252 0.0
C1337 C 0.62338 0.4109 0.65622 0.0
C1338 C 0.72376 0.46308 0.64771 0.0
C1339 C 0.78995 0.34961 0.59393 0.0
C1340 C 0.74259 0.35519 0.70099 0.0
C1341 C 0.71434 0.27692 0.60665 0.0
O1342 O 0.63925 0.42104 0.57772 0.0
O1343 O 0.68408 0.38134 0.56415 0.0
O1344 O 0.56724 0.74861 0.57233 0.0
Mg1345 Mg 0.6229 0.75885 0.56028 0.0
O1346 O 0.56563 0.81062 0.56446 0.0
Mg1347 Mg 0.59924 0.82597 0.50525 0.0
O1348 O 0.61395 0.76458 0.50294 0.0
O1349 O 0.66366 0.73579 0.52531 0.0
O1350 O 0.63577 0.83625 0.45464 0.0
O1351 O 0.54492 0.81373 0.46493 0.0
Mg1352 Mg 0.56136 0.87637 0.46822 0.0
O1353 O 0.59769 0.89505 0.5072 0.0
O1354 O 0.58712 0.85055 0.4209 0.0
O1355 O 0.51261 0.85498 0.49542 0.0
O1356 O 0.57066 0.93116 0.46256 0.0
C1357 C 0.64895 0.83847 0.57441 0.0
C1358 C 0.55682 0.78065 0.5834 0.0
C1359 C 0.64493 0.74715 0.4967 0.0
C1360 C 0.62213 0.84768 0.42412 0.0
C1361 C 0.51523 0.83377 0.46726 0.0
C1362 C 0.59385 0.92745 0.49004 0.0
O1363 O 0.6374 0.80891 0.5899 0.0
O1364 O 0.65013 0.84056 0.53918 0.0
O1365 O 0.0693 0.69717 0.37672 0.0
Mg1366 Mg 0.10491 0.70672 0.42065 0.0
O1367 O 0.06779 0.6379 0.39751 0.0
Mg1368 Mg 0.09841 0.62148 0.4574 0.0
O1369 O 0.10566 0.68405 0.47462 0.0
O1370 O 0.05319 0.70283 0.45133 0.0
O1371 O 0.12907 0.60478 0.50959 0.0
O1372 O 0.04419 0.6258 0.49427 0.0
Mg1373 Mg 0.06247 0.565 0.47842 0.0
O1374 O 0.10463 0.55323 0.4429 0.0
O1375 O 0.08171 0.57273 0.53284 0.0
O1376 O 0.01139 0.58805 0.45999 0.0
O1377 O 0.07024 0.51029 0.47435 0.0
C1378 C 0.15312 0.63517 0.39491 0.0
C1379 C 0.05999 0.66333 0.37269 0.0
C1380 C 0.07668 0.70496 0.47801 0.0
C1381 C 0.11497 0.58419 0.53489 0.0
C1382 C 0.01477 0.60657 0.49005 0.0
C1383 C 0.09904 0.51849 0.45406 0.0
O1384 O 0.13877 0.66713 0.38933 0.0
O1385 O 0.15107 0.6193 0.42628 0.0
O1386 O 0.51583 0.78247 0.63475 0.0
Mg1387 Mg 0.50108 0.83731 0.64737 0.0
O1388 O 0.57518 0.79988 0.64471 0.0
Mg1389 Mg 0.57869 0.83497 0.70301 0.0
O1390 O 0.51573 0.83495 0.70318 0.0
O1391 O 0.46829 0.86915 0.68459 0.0
O1392 O 0.57644 0.87376 0.7525 0.0
O1393 O 0.57675 0.77976 0.74455 0.0
Mg1394 Mg 0.63285 0.81154 0.74201 0.0
O1395 O 0.64793 0.84918 0.70261 0.0
O1396 O 0.59937 0.8306 0.78829 0.0
O1397 O 0.62583 0.75795 0.71669 0.0
O1398 O 0.68529 0.83032 0.75002 0.0
C1399 C 0.56933 0.88856 0.63143 0.0
C1400 C 0.54976 0.78396 0.62417 0.0
C1401 C 0.4913 0.86026 0.71082 0.0
C1402 C 0.58828 0.86383 0.7842 0.0
C1403 C 0.60221 0.75461 0.74265 0.0
C1404 C 0.68016 0.85081 0.72075 0.0
O1405 O 0.54133 0.87072 0.61867 0.0
O1406 O 0.58031 0.88536 0.6651 0.0
O1407 O 0.38174 0.2568 0.88546 0.0
Mg1408 Mg 0.34037 0.26089 0.92437 0.0
O1409 O 0.39008 0.31679 0.90266 0.0
Mg1410 Mg 0.35721 0.34017 0.96226 0.0
O1411 O 0.33897 0.28029 0.97923 0.0
O1412 O 0.39067 0.2582 0.95852 0.0
O1413 O 0.325 0.36042 0.01241 0.0
O1414 O 0.40842 0.32951 0.00186 0.0
Mg1415 Mg 0.40017 0.39337 -0.01281 0.0
O1416 O 0.36219 0.40838 0.94941 0.0
O1417 O 0.37239 0.38932 0.03951 0.0
O1418 O 0.44354 0.35969 0.96345 0.0
O1419 O 0.4014 0.44799 0.98046 0.0
C1420 C 0.30673 0.33903 0.89677 0.0
C1421 C 0.39645 0.28846 0.88005 0.0
C1422 C 0.36517 0.25631 -0.01681 0.0
C1423 C 0.33821 0.37993 0.03893 0.0
C1424 C 0.43956 0.34493 -0.00476 0.0
C1425 C 0.37208 0.44238 0.95998 0.0
O1426 O 0.31787 0.30607 0.88988 0.0
O1427 O 0.30679 0.35142 0.92961 0.0
O1428 O 0.4428 0.65152 0.62476 0.0
Mg1429 Mg 0.46313 0.62029 0.66847 0.0
O1430 O 0.38648 0.65412 0.65265 0.0
Mg1431 Mg 0.37714 0.62179 0.71036 0.0
O1432 O 0.44079 0.61803 0.72277 0.0
O1433 O 0.46002 0.67078 0.70049 0.0
O1434 O 0.36645 0.58611 0.75999 0.0
O1435 O 0.38014 0.67495 0.74981 0.0
Mg1436 Mg 0.32167 0.65365 0.73599 0.0
O1437 O 0.30776 0.61434 0.6996 0.0
O1438 O 0.33315 0.62943 0.78848 0.0
O1439 O 0.3425 0.70422 0.71265 0.0
O1440 O 0.26692 0.6488 0.73445 0.0
C1441 C 0.39694 0.56377 0.64744 0.0
C1442 C 0.4087 0.66098 0.62498 0.0
C1443 C 0.46057 0.64754 0.72746 0.0
C1444 C 0.34528 0.59628 0.78653 0.0
C1445 C 0.35884 0.70268 0.74392 0.0
C1446 C 0.27356 0.62128 0.71196 0.0
O1447 O 0.42875 0.57854 0.64171 0.0
O1448 O 0.37704 0.57133 0.67566 0.0
O1449 O 0.89787 0.20473 0.08308 0.0
Mg1450 Mg 0.84393 0.19998 0.06316 0.0
O1451 O 0.89563 0.14393 0.06758 0.0
Mg1452 Mg 0.86262 0.1335 0.00938 0.0
O1453 O 0.8536 0.19677 0.00504 0.0
O1454 O 0.80586 0.22786 0.02956 0.0
O1455 O 0.82854 0.1268 0.9581 0.0
O1456 O 0.919 0.1409 0.97245 0.0
Mg1457 Mg 0.89706 0.08078 0.97841 0.0
O1458 O 0.85821 0.06395 0.01489 0.0
O1459 O 0.87551 0.10232 0.92752 0.0
O1460 O 0.9464 0.09914 0.00664 0.0
O1461 O 0.88818 0.02621 0.97351 0.0
C1462 C 0.81134 0.12362 0.07495 0.0
C1463 C 0.9065 0.17084 0.08935 0.0
C1464 C 0.82379 0.21686 0.00019 0.0
C1465 C 0.84127 0.11081 0.92933 0.0
C1466 C 0.94662 0.11868 0.9773 0.0
C1467 C 0.8632 0.03091 -0.00075 0.0
O1468 O 0.82449 0.15161 0.09188 0.0
O1469 O 0.80911 0.12412 0.03982 0.0
O1470 O 0.51147 0.1576 0.82821 0.0
Mg1471 Mg 0.49889 0.11788 0.78878 0.0
O1472 O 0.57161 0.14699 0.81316 0.0
Mg1473 Mg 0.58612 0.11313 0.7537 0.0
O1474 O 0.52411 0.10829 0.73698 0.0
O1475 O 0.50456 0.1638 0.74995 0.0
O1476 O 0.59807 0.07634 0.70331 0.0
O1477 O 0.58799 0.16791 0.71478 0.0
Mg1478 Mg 0.64364 0.14028 0.72761 0.0
O1479 O 0.65495 0.1016 0.76603 0.0
O1480 O 0.62995 0.1196 0.67392 0.0
O1481 O 0.63028 0.19357 0.75009 0.0
O1482 O 0.69748 0.1286 0.72725 0.0
C1483 C 0.56213 0.06035 0.81797 0.0
C1484 C 0.54594 0.16028 0.83554 0.0
C1485 C 0.50339 0.1359 0.72787 0.0
C1486 C 0.61681 0.08689 0.67515 0.0
C1487 C 0.61166 0.19403 0.72013 0.0
C1488 C 0.68936 0.10409 0.75241 0.0
O1489 O 0.53183 0.0786 0.82289 0.0
O1490 O 0.58133 0.06304 0.78832 0.0
O1491 O 0.94105 0.78367 0.32405 0.0
Mg1492 Mg 0.95116 0.83856 0.30875 0.0
O1493 O 0.88245 0.80443 0.31733 0.0
Mg1494 Mg 0.87513 0.83858 0.25699 0.0
O1495 O 0.93939 0.83821 0.25207 0.0
O1496 O -0.0128 0.86942 0.27596 0.0
O1497 O 0.87048 0.87639 0.20589 0.0
O1498 O 0.87603 0.78444 0.21594 0.0
Mg1499 Mg 0.8173 0.8124 0.22165 0.0
O1500 O 0.80611 0.85159 0.26083 0.0
O1501 O 0.84155 0.83411 0.17221 0.0
O1502 O 0.82923 0.75883 0.24453 0.0
O1503 O 0.76408 0.82923 0.21896 0.0
C1504 C 0.88622 0.89206 0.32649 0.0
C1505 C 0.90815 0.78752 0.33697 0.0
C1506 C 0.96585 0.86251 0.24766 0.0
C1507 C 0.85365 0.86707 0.17604 0.0
C1508 C 0.85247 0.75773 0.21796 0.0
C1509 C 0.77233 0.8521 0.24571 0.0
O1510 O 0.91326 0.87283 0.33908 0.0
O1511 O 0.8752 0.8895 0.29289 0.0
O1512 O 0.37849 0.37547 0.20558 0.0
Mg1513 Mg 0.42192 0.33865 0.20683 0.0
O1514 O 0.40079 0.38766 0.14792 0.0
Mg1515 Mg 0.46077 0.35831 0.12743 0.0
O1516 O 0.4774 0.34364 0.18805 0.0
O1517 O 0.45021 0.39189 0.21157 0.0
O1518 O 0.5124 0.32836 0.10906 0.0
O1519 O 0.49754 0.41305 0.13561 0.0
Mg1520 Mg 0.48456 0.39909 0.07239 0.0
O1521 O 0.44508 0.36068 0.06112 0.0
O1522 O 0.53824 0.37534 0.07886 0.0
O1523 O 0.4634 0.44753 0.09921 0.0
O1524 O 0.47944 0.39208 0.01796 0.0
C1525 C 0.39865 0.30273 0.12836 0.0
C1526 C 0.37565 0.39148 0.17417 0.0
C1527 C 0.47811 0.36988 0.21235 0.0
C1528 C 0.53888 0.34182 0.08984 0.0
C1529 C 0.49366 0.44307 0.11697 0.0
C1530 C 0.45708 0.36507 0.02661 0.0
O1531 O 0.39014 0.31343 0.1611 0.0
O1532 O 0.43177 0.30503 0.11702 0.0
O1533 O 0.32156 0.62702 0.94739 0.0
Mg1534 Mg 0.35846 0.66899 0.96058 0.0
O1535 O 0.31479 0.6532 0.89083 0.0
Mg1536 Mg 0.34648 0.71274 0.87831 0.0
O1537 O 0.36103 0.72361 0.94024 0.0
O1538 O 0.31014 0.70451 0.96627 0.0
O1539 O 0.38071 0.76243 0.86463 0.0
O1540 O 0.29464 0.75237 0.88935 0.0
Mg1541 Mg 0.30614 0.74351 0.82447 0.0
O1542 O 0.34465 0.70517 0.81022 0.0
O1543 O 0.33644 0.79357 0.83491 0.0
O1544 O 0.25998 0.71867 0.8536 0.0
O1545 O 0.30991 0.73942 0.76934 0.0
C1546 C 0.40578 0.65037 0.88576 0.0
C1547 C 0.30901 0.62623 0.91437 0.0
C1548 C 0.33556 0.72936 0.96471 0.0
C1549 C 0.37026 0.79002 0.8452 0.0
C1550 C 0.26347 0.74786 0.87301 0.0
C1551 C 0.33783 0.71744 0.77621 0.0
O1552 O 0.39414 0.64328 0.91864 0.0
O1553 O 0.39664 0.67947 0.86838 0.0
O1554 O 0.08216 0.57947 0.70666 0.0
Mg1555 Mg 0.04011 0.61775 0.70858 0.0
O1556 O 0.06267 0.57067 0.64721 0.0
Mg1557 Mg 0.00081 0.60037 0.62731 0.0
O1558 O -0.01449 0.61566 0.68859 0.0
O1559 O 0.01003 0.56556 0.71171 0.0
O1560 O 0.94933 0.63316 0.61118 0.0
O1561 O 0.96283 0.54648 0.63636 0.0
Mg1562 Mg 0.97418 0.56154 0.57421 0.0
O1563 O 0.0124 0.59817 0.55789 0.0
O1564 O 0.92128 0.58819 0.58017 0.0
O1565 O -0.00193 0.5133 0.60009 0.0
O1566 O 0.97704 0.5615 0.51939 0.0
C1567 C 0.06396 0.65411 0.63048 0.0
C1568 C 0.08704 0.56589 0.67431 0.0
C1569 C -0.0156 0.59016 0.7136 0.0
C1570 C 0.92204 0.62154 0.59187 0.0
C1571 C 0.96733 0.51695 0.61701 0.0
C1572 C -0.00036 0.58921 0.52425 0.0
O1573 O 0.07181 0.64373 0.66347 0.0
O1574 O 0.03116 0.65202 0.61816 0.0
O1575 O 0.2059 0.24277 0.33719 0.0
Mg1576 Mg 0.15413 0.21505 0.32688 0.0
O1577 O 0.18218 0.21693 0.38645 0.0
Mg1578 Mg 0.12654 0.25599 0.38209 0.0
O1579 O 0.11533 0.25455 0.31302 0.0
O1580 O 0.13503 0.20844 0.27436 0.0
O1581 O 0.07494 0.29142 0.37832 0.0
O1582 O 0.16175 0.31431 0.38436 0.0
Mg1583 Mg 0.12364 0.31461 0.45516 0.0
O1584 O 0.12587 0.25783 0.44542 0.0
O1585 O 0.09004 0.34067 0.41311 0.0
O1586 O 0.17928 0.32719 0.44298 0.0
O1587 O 0.09212 0.28108 0.49134 0.0
C1588 C 0.09997 0.17505 0.3687 0.0
C1589 C 0.2082 0.21777 0.36191 0.0
C1590 C 0.11445 0.23758 0.28017 0.0
C1591 C 0.07148 0.32564 0.38672 0.0
C1592 C 0.17877 0.33554 0.40846 0.0
C1593 C 0.10083 0.25272 0.47085 0.0
O1594 O 0.13456 0.1717 0.36307 0.0
O1595 O 0.08814 0.20529 0.38271 0.0
O1596 O 0.38098 0.58371 0.26031 0.0
Mg1597 Mg 0.42377 0.62101 0.25339 0.0
O1598 O 0.40582 0.57349 0.31732 0.0
Mg1599 Mg 0.46564 0.60524 0.33484 0.0
O1600 O 0.4794 0.61826 0.27298 0.0
O1601 O 0.45386 0.56937 0.24795 0.0
O1602 O 0.51604 0.63836 0.35176 0.0
O1603 O 0.50664 0.55243 0.32778 0.0
Mg1604 Mg 0.486 0.56747 0.38687 0.0
O1605 O 0.45018 0.60633 0.40319 0.0
O1606 O 0.53984 0.59206 0.38453 0.0
O1607 O 0.46402 0.52093 0.35578 0.0
O1608 O 0.47942 0.56556 0.44196 0.0
C1609 C 0.40142 0.65753 0.33135 0.0
C1610 C 0.37952 0.56882 0.29237 0.0
C1611 C 0.4806 0.59281 0.24776 0.0
C1612 C 0.54099 0.62557 0.37344 0.0
C1613 C 0.4976 0.52281 0.34486 0.0
C1614 C 0.45977 0.5955 0.43705 0.0
O1615 O 0.39263 0.64705 0.29865 0.0
O1616 O 0.4348 0.65675 0.34202 0.0
O1617 O 0.16387 0.62513 0.01781 0.0
Mg1618 Mg 0.12581 0.6635 -0.00171 0.0
O1619 O 0.15164 0.64712 0.0753 0.0
Mg1620 Mg 0.11612 0.70494 0.08301 0.0
O1621 O 0.11685 0.71762 0.01949 0.0
O1622 O 0.17202 0.70157 0.00074 0.0
O1623 O 0.07825 0.75482 0.09152 0.0
O1624 O 0.17009 0.74404 0.08467 0.0
Mg1625 Mg 0.14152 0.73246 0.13993 0.0
O1626 O 0.10169 0.69588 0.15198 0.0
O1627 O 0.12205 0.78492 0.12197 0.0
O1628 O 0.19425 0.70814 0.12711 0.0
O1629 O 0.12882 0.73579 0.19341 0.0
C1630 C 0.06372 0.63909 0.05913 0.0
C1631 C 0.16633 0.62255 0.05297 0.0
C1632 C 0.14687 0.72672 0.0021 0.0
C1633 C 0.08859 0.78257 0.11101 0.0
C1634 C 0.19527 0.73849 0.10916 0.0
C1635 C 0.10384 0.71089 0.18581 0.0
O1636 O 0.08355 0.63258 0.03017 0.0
O1637 O 0.0663 0.6692 0.07758 0.0
O1638 O 0.00107 0.44765 0.85911 0.0
Mg1639 Mg 0.97955 0.40148 0.88986 0.0
O1640 O 0.96536 0.41136 0.82669 0.0
Mg1641 Mg 0.00409 0.35869 0.83792 0.0
O1642 O 0.0176 0.36384 0.906 0.0
O1643 O -0.01583 0.40204 0.94473 0.0
O1644 O 0.03484 0.30716 0.8501 0.0
O1645 O 0.06537 0.38841 0.81355 0.0
Mg1646 Mg 0.04133 0.33837 0.76036 0.0
O1647 O -0.01395 0.34081 0.77833 0.0
O1648 O 0.07581 0.3161 0.80565 0.0
O1649 O 0.08204 0.37719 0.7536 0.0
O1650 O 0.01117 0.39135 0.75929 0.0
C1651 C 0.92675 0.34166 0.87779 0.0
C1652 C 0.97007 0.44253 0.84294 0.0
C1653 C 0.00499 0.3729 0.93964 0.0
C1654 C 0.06804 0.30624 0.83876 0.0
C1655 C 0.08824 0.39262 0.78491 0.0
C1656 C -0.01586 0.36868 0.75629 0.0
O1657 O 0.9262 0.376 0.8862 0.0
O1658 O 0.95332 0.328 0.85866 0.0
O1659 O 0.26324 0.25341 0.62101 0.0
Mg1660 Mg 0.31396 0.22664 0.6368 0.0
O1661 O 0.28825 0.21758 0.57907 0.0
Mg1662 Mg 0.3453 0.2517 0.58334 0.0
O1663 O 0.35583 0.25967 0.6531 0.0
O1664 O 0.32246 0.22223 0.69169 0.0
O1665 O 0.39838 0.28122 0.58416 0.0
O1666 O 0.31541 0.3121 0.57519 0.0
Mg1667 Mg 0.34929 0.29735 0.49942 0.0
O1668 O 0.34783 0.24221 0.51968 0.0
O1669 O 0.38679 0.32271 0.53971 0.0
O1670 O 0.31524 0.33951 0.51862 0.0
O1671 O 0.29877 0.26618 0.49357 0.0
C1672 C 0.36379 0.17154 0.6094 0.0
C1673 C 0.26164 0.22377 0.60183 0.0
C1674 C 0.34987 0.2451 0.68652 0.0
C1675 C 0.40207 0.31336 0.57039 0.0
C1676 C 0.30716 0.33959 0.55308 0.0
C1677 C 0.31824 0.23706 0.50004 0.0
O1678 O 0.32976 0.17292 0.61822 0.0
O1679 O 0.37837 0.19851 0.59185 0.0
O1680 O 0.21547 0.38646 0.38954 0.0
Mg1681 Mg 0.20707 0.40442 0.33494 0.0
O1682 O 0.15314 0.39426 0.38927 0.0
Mg1683 Mg 0.13567 0.45261 0.35633 0.0
O1684 O 0.1985 0.46192 0.34634 0.0
O1685 O 0.22903 0.44203 0.29641 0.0
O1686 O 0.12164 0.50373 0.32247 0.0
O1687 O 0.14274 0.49143 0.41144 0.0
Mg1688 Mg 0.08356 0.47802 0.39153 0.0
O1689 O 0.06556 0.44333 0.35198 0.0
O1690 O 0.09749 0.53125 0.37164 0.0
O1691 O 0.10525 0.45473 0.44172 0.0
O1692 O 0.02827 0.48152 0.38639 0.0
C1693 C 0.13045 0.38527 0.30804 0.0
C1694 C 0.18294 0.37557 0.39905 0.0
C1695 C 0.21777 0.46966 0.31668 0.0
C1696 C 0.10389 0.53075 0.33707 0.0
C1697 C 0.12123 0.48622 0.43945 0.0
C1698 C 0.03246 0.45857 0.35877 0.0
O1699 O 0.16072 0.37057 0.31853 0.0
O1700 O 0.12875 0.42018 0.30391 0.0
O1701 O 0.24789 0.33755 0.21103 0.0
Mg1702 Mg 0.22432 0.31861 0.15944 0.0
O1703 O 0.2131 0.37768 0.18251 0.0
Mg1704 Mg 0.25221 0.3744 0.12827 0.0
O1705 O 0.2615 0.30559 0.11966 0.0
O1706 O 0.22519 0.26411 0.15123 0.0
O1707 O 0.28617 0.37351 0.07718 0.0
O1708 O 0.31149 0.38398 0.15976 0.0
Mg1709 Mg 0.29369 0.46029 0.12475 0.0
O1710 O 0.24016 0.43736 0.12419 0.0
O1711 O 0.3189 0.42617 0.08139 0.0
O1712 O 0.33853 0.4405 0.15434 0.0
O1713 O 0.26384 0.45587 0.17685 0.0
C1714 C 0.17483 0.34465 0.10184 0.0
C1715 C 0.21889 0.3576 0.21121 0.0
C1716 C 0.24821 0.27153 0.12436 0.0
C1717 C 0.31313 0.39399 0.06739 0.0
C1718 C 0.33919 0.40683 0.16482 0.0
C1719 C 0.23683 0.45754 0.15364 0.0
O1720 O 0.17214 0.33185 0.13476 0.0
O1721 O 0.20221 0.36496 0.0926 0.0
O1722 O 0.37156 0.50606 0.94621 0.0
Mg1723 Mg 0.38976 0.48674 0.8936 0.0
O1724 O 0.33223 0.47051 0.91648 0.0
Mg1725 Mg 0.33755 0.50558 0.86014 0.0
O1726 O 0.40598 0.52191 0.85321 0.0
O1727 O 0.44543 0.48651 0.8873 0.0
O1728 O 0.33944 0.53508 0.80735 0.0
O1729 O 0.32188 0.56499 0.89145 0.0
Mg1730 Mg 0.25262 0.54364 0.85349 0.0
O1731 O 0.27556 0.48948 0.85016 0.0
O1732 O 0.29431 0.57476 0.82167 0.0
O1733 O 0.2627 0.58603 0.89162 0.0
O1734 O 0.25076 0.50799 0.90197 0.0
C1735 C 0.37055 0.42652 0.84575 0.0
C1736 C 0.35327 0.47579 0.94466 0.0
C1737 C 0.43995 0.50923 0.8599 0.0
C1738 C 0.32609 0.56761 0.80732 0.0
C1739 C 0.2968 0.58976 0.90044 0.0
C1740 C 0.25207 0.48318 0.8764 0.0
O1741 O 0.38086 0.43094 0.87902 0.0
O1742 O 0.35297 0.45232 0.82894 0.0
O1743 O 0.13324 0.51919 0.66908 0.0
Mg1744 Mg 0.15549 0.50163 0.61824 0.0
O1745 O 0.14784 0.57687 0.64983 0.0
Mg1746 Mg 0.20625 0.58211 0.61637 0.0
O1747 O 0.2099 0.51932 0.61569 0.0
O1748 O 0.19669 0.4597 0.6117 0.0
O1749 O 0.25724 0.58704 0.57854 0.0
O1750 O 0.2454 0.57894 0.67011 0.0
Mg1751 Mg 0.23709 0.63721 0.64356 0.0
O1752 O 0.19958 0.65073 0.60385 0.0
O1753 O 0.28793 0.61375 0.62396 0.0
O1754 O 0.21107 0.62203 0.69496 0.0
O1755 O 0.24043 0.69124 0.62996 0.0
C1756 C 0.13908 0.56735 0.56206 0.0
C1757 C 0.12546 0.55366 0.66613 0.0
C1758 C 0.22172 0.48564 0.61172 0.0
C1759 C 0.28564 0.60496 0.58988 0.0
C1760 C 0.24041 0.60236 0.69633 0.0
C1761 C 0.21426 0.68439 0.60597 0.0
O1762 O 0.12876 0.5371 0.57784 0.0
O1763 O 0.17087 0.58199 0.56689 0.0
O1764 O 0.1008 0.50515 0.03148 0.0
Mg1765 Mg 0.09447 0.4843 0.08657 0.0
O1766 O 0.14535 0.4708 0.0539 0.0
Mg1767 Mg 0.13972 0.50742 0.11341 0.0
O1768 O 0.06987 0.51945 0.1216 0.0
O1769 O 0.03927 0.47285 0.09336 0.0
O1770 O 0.13891 0.5369 0.16746 0.0
O1771 O 0.14999 0.56501 0.08032 0.0
Mg1772 Mg 0.21247 0.56129 0.13026 0.0
O1773 O 0.20274 0.50376 0.11893 0.0
O1774 O 0.16419 0.58994 0.15151 0.0
O1775 O 0.21094 0.5796 0.07492 0.0
O1776 O 0.23794 0.52258 0.16584 0.0
C1777 C 0.12046 0.42572 0.13185 0.0
C1778 C 0.11958 0.47528 0.02949 0.0
C1779 C 0.03863 0.5015 0.11504 0.0
C1780 C 0.13661 0.57174 0.16401 0.0
C1781 C 0.17661 0.58599 0.06771 0.0
C1782 C 0.2224 0.49548 0.14797 0.0
O1783 O 0.11367 0.42902 0.09774 0.0
O1784 O 0.13192 0.45424 0.14926 0.0
O1785 O 0.13282 0.44071 0.79 0.0
Mg1786 Mg 0.15294 0.45402 0.84288 0.0
O1787 O 0.15 0.38277 0.80616 0.0
Mg1788 Mg 0.20793 0.37923 0.84023 0.0
O1789 O 0.20982 0.44339 0.84069 0.0
O1790 O 0.18655 0.49189 0.87119 0.0
O1791 O 0.25812 0.37677 0.87728 0.0
O1792 O 0.24931 0.38361 0.78663 0.0
Mg1793 Mg 0.24233 0.32442 0.81105 0.0
O1794 O 0.20482 0.30983 0.85027 0.0
O1795 O 0.29144 0.3476 0.83465 0.0
O1796 O 0.219 0.33975 0.75827 0.0
O1797 O 0.2458 0.27009 0.82241 0.0
C1798 C 0.1392 0.38926 0.89779 0.0
C1799 C 0.12678 0.40574 0.79066 0.0
C1800 C 0.21479 0.4704 0.86434 0.0
C1801 C 0.28759 0.35955 0.86773 0.0
C1802 C 0.24719 0.36094 0.75918 0.0
C1803 C 0.22002 0.27633 0.84703 0.0
O1804 O 0.12579 0.41681 0.87993 0.0
O1805 O 0.1718 0.37661 0.8917 0.0
O1806 O 0.26662 0.37676 0.58729 0.0
Mg1807 Mg 0.26675 0.41789 0.62674 0.0
O1808 O 0.32318 0.40064 0.57365 0.0
Mg1809 Mg 0.34464 0.45897 0.60454 0.0
O1810 O 0.28481 0.47335 0.62605 0.0
O1811 O 0.26087 0.45033 0.57605 0.0
O1812 O 0.36544 0.50856 0.63481 0.0
O1813 O 0.33078 0.4985 0.55398 0.0
Mg1814 Mg 0.40237 0.48969 0.55362 0.0
O1815 O 0.40941 0.44708 0.5904 0.0
O1816 O 0.39206 0.53824 0.58715 0.0
O1817 O 0.36341 0.46492 0.51588 0.0
O1818 O 0.4563 0.48082 0.56613 0.0
C1819 C 0.34772 0.39374 0.65735 0.0
C1820 C 0.29731 0.37533 0.56968 0.0
C1821 C 0.26007 0.47625 0.60033 0.0
C1822 C 0.38336 0.53602 0.6216 0.0
C1823 C 0.34507 0.49453 0.52174 0.0
C1824 C 0.44377 0.45983 0.59271 0.0
O1825 O 0.31392 0.38673 0.64907 0.0
O1826 O 0.36088 0.42601 0.65367 0.0
O1827 O 0.34227 0.52085 0.31513 0.0
Mg1828 Mg 0.29818 0.50528 0.34839 0.0
O1829 O 0.3155 0.57759 0.30961 0.0
Mg1830 Mg 0.25459 0.58873 0.3406 0.0
O1831 O 0.24234 0.52485 0.34426 0.0
O1832 O 0.26999 0.50112 0.29581 0.0
O1833 O 0.20347 0.59867 0.37559 0.0
O1834 O 0.21547 0.58656 0.28519 0.0
Mg1835 Mg 0.22778 0.6446 0.3117 0.0
O1836 O 0.26689 0.65716 0.35041 0.0
O1837 O 0.1745 0.63244 0.33336 0.0
O1838 O 0.24406 0.63138 0.25626 0.0
O1839 O 0.22823 0.69914 0.32333 0.0
C1840 C 0.31698 0.57729 0.39787 0.0
C1841 C 0.34307 0.55435 0.30398 0.0
C1842 C 0.23998 0.50435 0.3148 0.0
C1843 C 0.17606 0.6188 0.3659 0.0
C1844 C 0.21755 0.6081 0.25687 0.0
C1845 C 0.25331 0.69137 0.34807 0.0
O1846 O 0.32592 0.54588 0.38399 0.0
O1847 O 0.28489 0.59085 0.39345 0.0
O1848 O 0.39551 0.20957 0.38769 0.0
Mg1849 Mg 0.34256 0.19509 0.40615 0.0
O1850 O 0.39944 0.14804 0.39787 0.0
Mg1851 Mg 0.36692 0.13108 0.45729 0.0
O1852 O 0.35166 0.19255 0.46369 0.0
O1853 O 0.30117 0.21891 0.43915 0.0
O1854 O 0.3346 0.11775 0.50902 0.0
O1855 O 0.41995 0.14422 0.49702 0.0
Mg1856 Mg 0.40951 0.0797 0.48829 0.0
O1857 O 0.36996 0.06294 0.45218 0.0
O1858 O 0.38334 0.09463 0.53889 0.0
O1859 O 0.45598 0.10836 0.46417 0.0
O1860 O 0.40402 0.02438 0.4894 0.0
C1861 C 0.31458 0.11778 0.39011 0.0
C1862 C 0.40762 0.17759 0.37809 0.0
C1863 C 0.32092 0.21113 0.46835 0.0
C1864 C 0.3489 0.10226 0.53751 0.0
C1865 C 0.45112 0.12707 0.49387 0.0
C1866 C 0.37572 0.02997 0.46751 0.0
O1867 O 0.3276 0.14675 0.37497 0.0
O1868 O 0.31452 0.11519 0.42529 0.0
O1869 O 0.88533 0.25589 0.5825 0.0
Mg1870 Mg 0.84874 0.25302 0.53882 0.0
O1871 O 0.8912 0.31614 0.56484 0.0
Mg1872 Mg 0.86132 0.3368 0.50372 0.0
O1873 O 0.85379 0.27554 0.48475 0.0
O1874 O 0.90289 0.25352 0.51199 0.0
O1875 O 0.83115 0.3541 0.45066 0.0
O1876 O 0.91797 0.33418 0.46765 0.0
Mg1877 Mg 0.89442 0.39126 0.48554 0.0
O1878 O 0.8528 0.40478 0.52109 0.0
O1879 O 0.87932 0.38576 0.42974 0.0
O1880 O 0.94857 0.37458 0.50135 0.0
O1881 O 0.88556 0.44618 0.48674 0.0
C1882 C 0.80786 0.32734 0.56505 0.0
C1883 C 0.8974 0.28864 0.58829 0.0
C1884 C 0.88229 0.25393 0.48305 0.0
C1885 C 0.84647 0.37408 0.42568 0.0
C1886 C 0.94606 0.35571 0.47136 0.0
C1887 C 0.8576 0.43908 0.5084 0.0
O1888 O 0.82028 0.29513 0.57282 0.0
O1889 O 0.80706 0.33834 0.53171 0.0
O1890 O 0.45047 0.17166 0.3283 0.0
Mg1891 Mg 0.45839 0.11692 0.30976 0.0
O1892 O 0.39073 0.15674 0.31723 0.0
Mg1893 Mg 0.38257 0.12252 0.25853 0.0
O1894 O 0.44618 0.11992 0.25318 0.0
O1895 O 0.49261 0.08536 0.2743 0.0
O1896 O 0.37633 0.08628 0.20709 0.0
O1897 O 0.38855 0.17714 0.21998 0.0
Mg1898 Mg 0.32909 0.15388 0.22702 0.0
O1899 O 0.3128 0.11389 0.26259 0.0
O1900 O 0.35234 0.13333 0.17657 0.0
O1901 O 0.34581 0.20505 0.25262 0.0
O1902 O 0.27457 0.1433 0.22144 0.0
C1903 C 0.38945 0.0675 0.32734 0.0
C1904 C 0.41618 0.17248 0.33784 0.0
C1905 C 0.47131 0.09473 0.24672 0.0
C1906 C 0.36099 0.09932 0.17795 0.0
C1907 C 0.36605 0.20451 0.22358 0.0
C1908 C 0.27981 0.11766 0.2463 0.0
O1909 O 0.41809 0.08461 0.3395 0.0
O1910 O 0.37854 0.07068 0.29376 0.0
O1911 O 0.59576 0.71011 0.08296 0.0
Mg1912 Mg 0.63481 0.70373 0.04193 0.0
O1913 O 0.58197 0.65124 0.06514 0.0
Mg1914 Mg 0.61114 0.62707 0.00426 0.0
O1915 O 0.62881 0.68686 -0.01434 0.0
O1916 O 0.58212 0.71259 0.01294 0.0
O1917 O 0.63863 0.60808 0.95093 0.0
O1918 O 0.5543 0.6356 0.96869 0.0
Mg1919 Mg 0.56947 0.5743 -0.01586 0.0
O1920 O 0.60988 0.55943 0.02018 0.0
O1921 O 0.58726 0.58249 0.92912 0.0
O1922 O 0.52002 0.59969 0.00396 0.0
O1923 O 0.57487 0.51908 -0.01393 0.0
C1924 C 0.66457 0.6241 0.06666 0.0
C1925 C 0.57834 0.67976 0.08807 0.0
C1926 C 0.60355 0.71205 -0.01535 0.0
C1927 C 0.62068 0.59236 0.92472 0.0
C1928 C 0.52438 0.61651 0.97305 0.0
C1929 C 0.6032 0.52535 0.00763 0.0
O1930 O 0.65386 0.6564 0.07631 0.0
O1931 O 0.66549 0.61571 0.03254 0.0
O1932 O 0.52466 0.2885 0.33132 0.0
Mg1933 Mg 0.50521 0.3405 0.31377 0.0
O1934 O 0.58119 0.3093 0.314 0.0
Mg1935 Mg 0.58062 0.34292 0.25692 0.0
O1936 O 0.51757 0.33829 0.25736 0.0
O1937 O 0.46694 0.36661 0.27774 0.0
O1938 O 0.57895 0.38079 0.20649 0.0
O1939 O 0.57867 0.28799 0.21845 0.0
Mg1940 Mg 0.63495 0.31696 0.22262 0.0
O1941 O 0.64997 0.35637 0.25856 0.0
O1942 O 0.60668 0.33725 0.1743 0.0
O1943 O 0.62283 0.26742 0.25407 0.0
O1944 O 0.6884 0.32903 0.21569 0.0
C1945 C 0.56917 0.39714 0.32631 0.0
C1946 C 0.55969 0.2917 0.3369 0.0
C1947 C 0.48953 0.35976 0.25043 0.0
C1948 C 0.59742 0.37111 0.17789 0.0
C1949 C 0.60387 0.26366 0.22463 0.0
C1950 C 0.68313 0.35261 0.24261 0.0
O1951 O 0.54253 0.37825 0.34019 0.0
O1952 O 0.57982 0.39369 0.29263 0.0
O1953 O 0.06956 0.75551 0.88452 0.0
Mg1954 Mg 0.12348 0.76325 0.90361 0.0
O1955 O 0.07053 0.81703 0.89657 0.0
Mg1956 Mg 0.10246 0.83028 0.95588 0.0
O1957 O 0.11307 0.76772 0.96116 0.0
O1958 O 0.16139 0.73644 0.93842 0.0
O1959 O 0.13596 0.84016 0.00771 0.0
O1960 O 0.04803 0.81952 -0.00614 0.0
Mg1961 Mg 0.06454 0.88174 -0.0136 0.0
O1962 O 0.10336 0.89949 0.95036 0.0
O1963 O 0.0884 0.86492 0.03786 0.0
O1964 O 0.01659 0.85817 0.95974 0.0
O1965 O 0.06941 0.937 -0.0111 0.0
C1966 C 0.15485 0.84036 0.88988 0.0
C1967 C 0.06089 0.78878 0.87576 0.0
C1968 C 0.14268 0.74786 0.96713 0.0
C1969 C 0.12258 0.85588 0.03647 0.0
C1970 C 0.01874 0.83935 -0.01047 0.0
C1971 C 0.09632 0.93254 0.9651 0.0
O1972 O 0.14244 0.81142 0.87393 0.0
O1973 O 0.15535 0.84205 0.92506 0.0
O1974 O 0.46107 0.83006 0.13446 0.0
Mg1975 Mg 0.46108 0.86764 0.17705 0.0
O1976 O 0.40093 0.82258 0.15235 0.0
Mg1977 Mg 0.38057 0.8513 0.21469 0.0
O1978 O 0.44147 0.86353 0.23175 0.0
O1979 O 0.46228 0.81388 0.20494 0.0
O1980 O 0.36418 0.88163 0.26663 0.0
O1981 O 0.38819 0.79578 0.25017 0.0
Mg1982 Mg 0.32656 0.81349 0.23943 0.0
O1983 O 0.31141 0.85312 0.20297 0.0
O1984 O 0.3343 0.83545 0.29382 0.0
O1985 O 0.35032 0.76485 0.21458 0.0
O1986 O 0.27176 0.81807 0.23824 0.0
C1987 C 0.38423 0.90625 0.15337 0.0
C1988 C 0.42858 0.81725 0.12865 0.0
C1989 C 0.46422 0.83601 0.23265 0.0
C1990 C 0.34505 0.86905 0.29356 0.0
C1991 C 0.36883 0.76656 0.2446 0.0
C1992 C 0.27765 0.84638 0.21669 0.0
O1993 O 0.41663 0.89463 0.14471 0.0
O1994 O 0.37311 0.90491 0.18663 0.0
O1995 O 0.02237 0.16344 0.63115 0.0
Mg1996 Mg 0.00558 0.11954 0.66454 0.0
O1997 O 0.08112 0.15283 0.64967 0.0
Mg1998 Mg 0.0913 0.11816 0.70714 0.0
O1999 O 0.03026 0.1048 0.71502 0.0
O2000 O -0.0099 0.14911 0.7149 0.0
O2001 O 0.10291 0.08034 0.75604 0.0
O2002 O 0.08358 0.16934 0.74974 0.0
Mg2003 Mg 0.14592 0.15264 0.74075 0.0
O2004 O 0.15909 0.11537 0.70065 0.0
O2005 O 0.1289 0.12466 0.7901 0.0
O2006 O 0.12239 0.20226 0.71726 0.0
O2007 O 0.20051 0.14254 0.74044 0.0
C2008 C 0.07341 0.06359 0.641 0.0
C2009 C 0.05718 0.16605 0.62599 0.0
C2010 C 0.00552 0.12274 0.73323 0.0
C2011 C 0.11923 0.0909 0.78572 0.0
C2012 C 0.10243 0.19926 0.74625 0.0
C2013 C 0.19273 0.11768 0.71532 0.0
O2014 O 0.04115 0.0785 0.63625 0.0
O2015 O 0.09446 0.07077 0.66863 0.0
loop_
_geom_bond_atom_site_label_1
_geom_bond_atom_site_label_2
_geom_bond_distance
_geom_bond_site_symmetry_2
_ccdc_geom_bond_type
O0 Mg1 1.990 . S
O0 C14 1.253 . S
Mg1 O0 1.990 . S
Mg1 O4 2.180 . S
Mg1 O5 2.117 . S
Mg1 O19 2.030 . S
O2 Mg3 2.072 . S
O2 C14 1.260 . S
Mg3 O2 2.072 . S
Mg3 O4 2.099 . S
Mg3 O6 2.079 1_455 S
Mg3 O7 2.072 1_455 S
Mg3 O9 2.099 . S
Mg3 O20 2.079 . S
O4 Mg1 2.180 . S
O4 Mg3 2.099 . S
O4 C15 1.279 . S
O5 Mg1 2.117 . S
O5 C15 1.250 . S
O6 Mg3 2.079 1_655 S
O6 C16 1.264 . S
O7 Mg3 2.072 1_655 S
O7 C17 1.260 . S
Mg8 O9 2.180 1_655 S
Mg8 O10 2.030 . S
Mg8 O11 1.990 . S
Mg8 O12 2.117 1_655 S
O9 Mg3 2.099 . S
O9 Mg8 2.180 1_455 S
O9 C18 1.279 . S
O10 Mg8 2.030 . S
O10 C16 1.248 . S
O11 Mg8 1.990 . S
O11 C17 1.253 . S
O12 Mg8 2.117 1_455 S
O12 C18 1.250 . S
C13 O19 1.248 . S
C13 O20 1.264 . S
C14 O0 1.253 . S
C14 O2 1.260 . S
C15 O4 1.279 . S
C15 O5 1.250 . S
C16 O6 1.264 . S
C16 O10 1.248 . S
C17 O7 1.260 . S
C17 O11 1.253 . S
C18 O9 1.279 . S
C18 O12 1.250 . S
O19 Mg1 2.030 . S
O19 C13 1.248 . S
O20 Mg3 2.079 . S
O20 C13 1.264 . S
O21 Mg22 1.990 . S
O21 C35 1.253 . S
Mg22 O21 1.990 . S
Mg22 O25 2.180 . S
Mg22 O26 2.117 . S
Mg22 O40 2.030 . S
O23 Mg24 2.072 . S
O23 C35 1.260 . S
Mg24 O23 2.072 . S
Mg24 O25 2.099 . S
Mg24 O27 2.079 . S
Mg24 O28 2.072 . S
Mg24 O30 2.099 . S
Mg24 O41 2.079 . S
O25 Mg22 2.180 . S
O25 Mg24 2.099 . S
O25 C36 1.279 . S
O26 Mg22 2.117 . S
O26 C36 1.250 . S
O27 Mg24 2.079 . S
O27 C37 1.264 . S
O28 Mg24 2.072 . S
O28 C38 1.260 . S
Mg29 O30 2.180 . S
Mg29 O31 2.030 . S
Mg29 O32 1.990 . S
Mg29 O33 2.117 . S
O30 Mg24 2.099 . S
O30 Mg29 2.180 . S
O30 C39 1.279 . S
O31 Mg29 2.030 . S
O31 C37 1.248 . S
O32 Mg29 1.990 . S
O32 C38 1.253 . S
O33 Mg29 2.117 . S
O33 C39 1.250 . S
C34 O40 1.248 . S
C34 O41 1.264 . S
C35 O21 1.253 . S
C35 O23 1.260 . S
C36 O25 1.279 . S
C36 O26 1.250 . S
C37 O27 1.264 . S
C37 O31 1.248 . S
C38 O28 1.260 . S
C38 O32 1.253 . S
C39 O30 1.279 . S
C39 O33 1.250 . S
O40 Mg22 2.030 . S
O40 C34 1.248 . S
O41 Mg24 2.079 . S
O41 C34 1.264 . S
O42 Mg43 1.990 . S
O42 C56 1.253 . S
Mg43 O42 1.990 . S
Mg43 O46 2.180 . S
Mg43 O47 2.117 . S
Mg43 O61 2.030 . S
O44 Mg45 2.072 . S
O44 C56 1.260 . S
Mg45 O44 2.072 . S
Mg45 O46 2.099 . S
Mg45 O48 2.079 . S
Mg45 O49 2.072 . S
Mg45 O51 2.099 . S
Mg45 O62 2.079 . S
O46 Mg43 2.180 . S
O46 Mg45 2.099 . S
O46 C57 1.279 . S
O47 Mg43 2.117 . S
O47 C57 1.250 . S
O48 Mg45 2.079 . S
O48 C58 1.264 . S
O49 Mg45 2.072 . S
O49 C59 1.260 . S
Mg50 O51 2.180 . S
Mg50 O52 2.030 . S
Mg50 O53 1.990 . S
Mg50 O54 2.117 . S
O51 Mg45 2.099 . S
O51 Mg50 2.180 . S
O51 C60 1.279 . S
O52 Mg50 2.030 . S
O52 C58 1.248 . S
O53 Mg50 1.990 . S
O53 C59 1.253 . S
O54 Mg50 2.117 . S
O54 C60 1.250 . S
C55 O61 1.248 . S
C55 O62 1.264 . S
C56 O42 1.253 . S
C56 O44 1.260 . S
C57 O46 1.279 . S
C57 O47 1.250 . S
C58 O48 1.264 . S
C58 O52 1.248 . S
C59 O49 1.260 . S
C59 O53 1.253 . S
C60 O51 1.279 . S
C60 O54 1.250 . S
O61 Mg43 2.030 . S
O61 C55 1.248 . S
O62 Mg45 2.079 . S
O62 C55 1.264 . S
O63 Mg64 1.990 . S
O63 C77 1.253 . S
Mg64 O63 1.990 . S
Mg64 O67 2.180 . S
Mg64 O68 2.117 1_554 S
Mg64 O82 2.030 . S
O65 Mg66 2.072 . S
O65 C77 1.260 . S
Mg66 O65 2.072 . S
Mg66 O67 2.099 . S
Mg66 O69 2.079 . S
Mg66 O70 2.072 . S
Mg66 O72 2.099 . S
Mg66 O83 2.079 . S
O67 Mg64 2.180 . S
O67 Mg66 2.099 . S
O67 C78 1.279 . S
O68 Mg64 2.117 1_556 S
O68 C78 1.250 1_556 S
O69 Mg66 2.079 . S
O69 C79 1.264 . S
O70 Mg66 2.072 . S
O70 C80 1.260 . S
Mg71 O72 2.180 . S
Mg71 O73 2.030 . S
Mg71 O74 1.990 . S
Mg71 O75 2.117 . S
O72 Mg66 2.099 . S
O72 Mg71 2.180 . S
O72 C81 1.279 . S
O73 Mg71 2.030 . S
O73 C79 1.248 . S
O74 Mg71 1.990 . S
O74 C80 1.253 . S
O75 Mg71 2.117 . S
O75 C81 1.250 . S
C76 O82 1.248 . S
C76 O83 1.264 . S
C77 O63 1.253 . S
C77 O65 1.260 . S
C78 O67 1.279 . S
C78 O68 1.250 1_554 S
C79 O69 1.264 . S
C79 O73 1.248 . S
C80 O70 1.260 . S
C80 O74 1.253 . S
C81 O72 1.279 . S
C81 O75 1.250 . S
O82 Mg64 2.030 . S
O82 C76 1.248 . S
O83 Mg66 2.079 . S
O83 C76 1.264 . S
O84 Mg85 1.990 . S
O84 C98 1.253 . S
Mg85 O84 1.990 . S
Mg85 O88 2.180 . S
Mg85 O89 2.117 . S
Mg85 O103 2.030 . S
O86 Mg87 2.072 . S
O86 C98 1.260 . S
Mg87 O86 2.072 . S
Mg87 O88 2.099 . S
Mg87 O90 2.079 1_455 S
Mg87 O91 2.072 1_455 S
Mg87 O93 2.099 . S
Mg87 O104 2.079 . S
O88 Mg85 2.180 . S
O88 Mg87 2.099 . S
O88 C99 1.279 . S
O89 Mg85 2.117 . S
O89 C99 1.250 . S
O90 Mg87 2.079 1_655 S
O90 C100 1.264 . S
O91 Mg87 2.072 1_655 S
O91 C101 1.260 . S
Mg92 O93 2.180 1_655 S
Mg92 O94 2.030 . S
Mg92 O95 1.990 . S
Mg92 O96 2.117 1_655 S
O93 Mg87 2.099 . S
O93 Mg92 2.180 1_455 S
O93 C102 1.279 . S
O94 Mg92 2.030 . S
O94 C100 1.248 . S
O95 Mg92 1.990 . S
O95 C101 1.253 . S
O96 Mg92 2.117 1_455 S
O96 C102 1.250 . S
C97 O103 1.248 . S
C97 O104 1.264 . S
C98 O84 1.253 . S
C98 O86 1.260 . S
C99 O88 1.279 . S
C99 O89 1.250 . S
C100 O90 1.264 . S
C100 O94 1.248 . S
C101 O91 1.260 . S
C101 O95 1.253 . S
C102 O93 1.279 . S
C102 O96 1.250 . S
O103 Mg85 2.030 . S
O103 C97 1.248 . S
O104 Mg87 2.079 . S
O104 C97 1.264 . S
O105 Mg106 1.990 . S
O105 C119 1.253 . S
Mg106 O105 1.990 . S
Mg106 O109 2.180 . S
Mg106 O110 2.117 . S
Mg106 O124 2.030 . S
O107 Mg108 2.072 . S
O107 C119 1.260 . S
Mg108 O107 2.072 . S
Mg108 O109 2.099 . S
Mg108 O111 2.079 . S
Mg108 O112 2.072 . S
Mg108 O114 2.099 . S
Mg108 O125 2.079 . S
O109 Mg106 2.180 . S
O109 Mg108 2.099 . S
O109 C120 1.279 . S
O110 Mg106 2.117 . S
O110 C120 1.250 . S
O111 Mg108 2.079 . S
O111 C121 1.264 . S
O112 Mg108 2.072 . S
O112 C122 1.260 . S
Mg113 O114 2.180 . S
Mg113 O115 2.030 . S
Mg113 O116 1.990 . S
Mg113 O117 2.117 . S
O114 Mg108 2.099 . S
O114 Mg113 2.180 . S
O114 C123 1.279 . S
O115 Mg113 2.030 . S
O115 C121 1.248 . S
O116 Mg113 1.990 . S
O116 C122 1.253 . S
O117 Mg113 2.117 . S
O117 C123 1.250 . S
C118 O124 1.248 . S
C118 O125 1.264 . S
C119 O105 1.253 . S
C119 O107 1.260 . S
C120 O109 1.279 . S
C120 O110 1.250 . S
C121 O111 1.264 . S
C121 O115 1.248 . S
C122 O112 1.260 . S
C122 O116 1.253 . S
C123 O114 1.279 . S
C123 O117 1.250 . S
O124 Mg106 2.030 . S
O124 C118 1.248 . S
O125 Mg108 2.079 . S
O125 C118 1.264 . S
O126 Mg127 1.990 . S
O126 C140 1.253 . S
Mg127 O126 1.990 . S
Mg127 O130 2.180 . S
Mg127 O131 2.117 . S
Mg127 O145 2.030 . S
O128 Mg129 2.072 . S
O128 C140 1.260 . S
Mg129 O128 2.072 . S
Mg129 O130 2.099 . S
Mg129 O132 2.079 . S
Mg129 O133 2.072 . S
Mg129 O135 2.099 . S
Mg129 O146 2.079 . S
O130 Mg127 2.180 . S
O130 Mg129 2.099 . S
O130 C141 1.279 . S
O131 Mg127 2.117 . S
O131 C141 1.250 . S
O132 Mg129 2.079 . S
O132 C142 1.264 . S
O133 Mg129 2.072 . S
O133 C143 1.260 . S
Mg134 O135 2.180 . S
Mg134 O136 2.030 . S
Mg134 O137 1.990 . S
Mg134 O138 2.117 . S
O135 Mg129 2.099 . S
O135 Mg134 2.180 . S
O135 C144 1.279 . S
O136 Mg134 2.030 . S
O136 C142 1.248 . S
O137 Mg134 1.990 . S
O137 C143 1.253 . S
O138 Mg134 2.117 . S
O138 C144 1.250 . S
C139 O145 1.248 . S
C139 O146 1.264 . S
C140 O126 1.253 . S
C140 O128 1.260 . S
C141 O130 1.279 . S
C141 O131 1.250 . S
C142 O132 1.264 . S
C142 O136 1.248 . S
C143 O133 1.260 . S
C143 O137 1.253 . S
C144 O135 1.279 . S
C144 O138 1.250 . S
O145 Mg127 2.030 . S
O145 C139 1.248 . S
O146 Mg129 2.079 . S
O146 C139 1.264 . S
O147 Mg148 1.990 . S
O147 C161 1.253 . S
Mg148 O147 1.990 . S
Mg148 O151 2.180 . S
Mg148 O152 2.117 1_556 S
Mg148 O166 2.030 . S
O149 Mg150 2.072 . S
O149 C161 1.260 . S
Mg150 O149 2.072 . S
Mg150 O151 2.099 . S
Mg150 O153 2.079 . S
Mg150 O154 2.072 . S
Mg150 O156 2.099 . S
Mg150 O167 2.079 . S
O151 Mg148 2.180 . S
O151 Mg150 2.099 . S
O151 C162 1.279 . S
O152 Mg148 2.117 1_554 S
O152 C162 1.250 1_554 S
O153 Mg150 2.079 . S
O153 C163 1.264 . S
O154 Mg150 2.072 . S
O154 C164 1.260 . S
Mg155 O156 2.180 . S
Mg155 O157 2.030 . S
Mg155 O158 1.990 . S
Mg155 O159 2.117 . S
O156 Mg150 2.099 . S
O156 Mg155 2.180 . S
O156 C165 1.279 . S
O157 Mg155 2.030 . S
O157 C163 1.248 . S
O158 Mg155 1.990 . S
O158 C164 1.253 . S
O159 Mg155 2.117 . S
O159 C165 1.250 . S
C160 O166 1.248 . S
C160 O167 1.264 . S
C161 O147 1.253 . S
C161 O149 1.260 . S
C162 O151 1.279 . S
C162 O152 1.250 1_556 S
C163 O153 1.264 . S
C163 O157 1.248 . S
C164 O154 1.260 . S
C164 O158 1.253 . S
C165 O156 1.279 . S
C165 O159 1.250 . S
O166 Mg148 2.030 . S
O166 C160 1.248 . S
O167 Mg150 2.079 . S
O167 C160 1.264 . S
O168 Mg169 1.990 . S
O168 C182 1.253 . S
Mg169 O168 1.990 . S
Mg169 O172 2.180 . S
Mg169 O173 2.117 . S
Mg169 O187 2.030 . S
O170 Mg171 2.072 . S
O170 C182 1.260 . S
Mg171 O170 2.072 . S
Mg171 O172 2.099 . S
Mg171 O174 2.079 1_545 S
Mg171 O175 2.072 1_545 S
Mg171 O177 2.099 . S
Mg171 O188 2.079 . S
O172 Mg169 2.180 . S
O172 Mg171 2.099 . S
O172 C183 1.279 . S
O173 Mg169 2.117 . S
O173 C183 1.250 . S
O174 Mg171 2.079 1_565 S
O174 C184 1.264 . S
O175 Mg171 2.072 1_565 S
O175 C185 1.260 . S
Mg176 O177 2.180 1_565 S
Mg176 O178 2.030 . S
Mg176 O179 1.990 . S
Mg176 O180 2.117 1_565 S
O177 Mg171 2.099 . S
O177 Mg176 2.180 1_545 S
O177 C186 1.279 . S
O178 Mg176 2.030 . S
O178 C184 1.248 . S
O179 Mg176 1.990 . S
O179 C185 1.253 . S
O180 Mg176 2.117 1_545 S
O180 C186 1.250 . S
C181 O187 1.248 . S
C181 O188 1.264 . S
C182 O168 1.253 . S
C182 O170 1.260 . S
C183 O172 1.279 . S
C183 O173 1.250 . S
C184 O174 1.264 . S
C184 O178 1.248 . S
C185 O175 1.260 . S
C185 O179 1.253 . S
C186 O177 1.279 . S
C186 O180 1.250 . S
O187 Mg169 2.030 . S
O187 C181 1.248 . S
O188 Mg171 2.079 . S
O188 C181 1.264 . S
O189 Mg190 1.990 . S
O189 C203 1.253 . S
Mg190 O189 1.990 . S
Mg190 O193 2.180 . S
Mg190 O194 2.117 1_545 S
Mg190 O208 2.030 . S
O191 Mg192 2.072 . S
O191 C203 1.260 . S
Mg192 O191 2.072 . S
Mg192 O193 2.099 . S
Mg192 O195 2.079 . S
Mg192 O196 2.072 . S
Mg192 O198 2.099 . S
Mg192 O209 2.079 . S
O193 Mg190 2.180 . S
O193 Mg192 2.099 . S
O193 C204 1.279 . S
O194 Mg190 2.117 1_565 S
O194 C204 1.250 1_565 S
O195 Mg192 2.079 . S
O195 C205 1.264 . S
O196 Mg192 2.072 . S
O196 C206 1.260 . S
Mg197 O198 2.180 . S
Mg197 O199 2.030 . S
Mg197 O200 1.990 . S
Mg197 O201 2.117 . S
O198 Mg192 2.099 . S
O198 Mg197 2.180 . S
O198 C207 1.279 . S
O199 Mg197 2.030 . S
O199 C205 1.248 . S
O200 Mg197 1.990 . S
O200 C206 1.253 . S
O201 Mg197 2.117 . S
O201 C207 1.250 . S
C202 O208 1.248 . S
C202 O209 1.264 . S
C203 O189 1.253 . S
C203 O191 1.260 . S
C204 O193 1.279 . S
C204 O194 1.250 1_545 S
C205 O195 1.264 . S
C205 O199 1.248 . S
C206 O196 1.260 . S
C206 O200 1.253 . S
C207 O198 1.279 . S
C207 O201 1.250 . S
O208 Mg190 2.030 . S
O208 C202 1.248 . S
O209 Mg192 2.079 . S
O209 C202 1.264 . S
O210 Mg211 1.990 . S
O210 C224 1.253 . S
Mg211 O210 1.990 . S
Mg211 O214 2.180 . S
Mg211 O215 2.117 . S
Mg211 O229 2.030 . S
O212 Mg213 2.072 . S
O212 C224 1.260 . S
Mg213 O212 2.072 . S
Mg213 O214 2.099 . S
Mg213 O216 2.079 1_565 S
Mg213 O217 2.072 1_565 S
Mg213 O219 2.099 . S
Mg213 O230 2.079 . S
O214 Mg211 2.180 . S
O214 Mg213 2.099 . S
O214 C225 1.279 . S
O215 Mg211 2.117 . S
O215 C225 1.250 . S
O216 Mg213 2.079 1_545 S
O216 C226 1.264 . S
O217 Mg213 2.072 1_545 S
O217 C227 1.260 . S
Mg218 O219 2.180 1_545 S
Mg218 O220 2.030 . S
Mg218 O221 1.990 . S
Mg218 O222 2.117 1_545 S
O219 Mg213 2.099 . S
O219 Mg218 2.180 1_565 S
O219 C228 1.279 . S
O220 Mg218 2.030 . S
O220 C226 1.248 . S
O221 Mg218 1.990 . S
O221 C227 1.253 . S
O222 Mg218 2.117 1_565 S
O222 C228 1.250 . S
C223 O229 1.248 . S
C223 O230 1.264 . S
C224 O210 1.253 . S
C224 O212 1.260 . S
C225 O214 1.279 . S
C225 O215 1.250 . S
C226 O216 1.264 . S
C226 O220 1.248 . S
C227 O217 1.260 . S
C227 O221 1.253 . S
C228 O219 1.279 . S
C228 O222 1.250 . S
O229 Mg211 2.030 . S
O229 C223 1.248 . S
O230 Mg213 2.079 . S
O230 C223 1.264 . S
O231 Mg232 1.990 . S
O231 C245 1.253 . S
Mg232 O231 1.990 . S
Mg232 O235 2.180 . S
Mg232 O236 2.117 1_565 S
Mg232 O250 2.030 . S
O233 Mg234 2.072 . S
O233 C245 1.260 . S
Mg234 O233 2.072 . S
Mg234 O235 2.099 . S
Mg234 O237 2.079 . S
Mg234 O238 2.072 . S
Mg234 O240 2.099 . S
Mg234 O251 2.079 . S
O235 Mg232 2.180 . S
O235 Mg234 2.099 . S
O235 C246 1.279 . S
O236 Mg232 2.117 1_545 S
O236 C246 1.250 1_545 S
O237 Mg234 2.079 . S
O237 C247 1.264 . S
O238 Mg234 2.072 . S
O238 C248 1.260 . S
Mg239 O240 2.180 . S
Mg239 O241 2.030 . S
Mg239 O242 1.990 . S
Mg239 O243 2.117 . S
O240 Mg234 2.099 . S
O240 Mg239 2.180 . S
O240 C249 1.279 . S
O241 Mg239 2.030 . S
O241 C247 1.248 . S
O242 Mg239 1.990 . S
O242 C248 1.253 . S
O243 Mg239 2.117 . S
O243 C249 1.250 . S
C244 O250 1.248 . S
C244 O251 1.264 . S
C245 O231 1.253 . S
C245 O233 1.260 . S
C246 O235 1.279 . S
C246 O236 1.250 1_565 S
C247 O237 1.264 . S
C247 O241 1.248 . S
C248 O238 1.260 . S
C248 O242 1.253 . S
C249 O240 1.279 . S
C249 O243 1.250 . S
O250 Mg232 2.030 . S
O250 C244 1.248 . S
O251 Mg234 2.079 . S
O251 C244 1.264 . S
O252 Mg253 1.990 . S
O252 C266 1.253 . S
Mg253 O252 1.990 . S
Mg253 O256 2.180 . S
Mg253 O257 2.117 . S
Mg253 O271 2.030 . S
O254 Mg255 2.072 . S
O254 C266 1.260 . S
Mg255 O254 2.072 . S
Mg255 O256 2.099 . S
Mg255 O258 2.079 1_565 S
Mg255 O259 2.072 1_565 S
Mg255 O261 2.099 . S
Mg255 O272 2.079 . S
O256 Mg253 2.180 . S
O256 Mg255 2.099 . S
O256 C267 1.279 . S
O257 Mg253 2.117 . S
O257 C267 1.250 . S
O258 Mg255 2.079 1_545 S
O258 C268 1.264 . S
O259 Mg255 2.072 1_545 S
O259 C269 1.260 . S
Mg260 O261 2.180 1_545 S
Mg260 O262 2.030 . S
Mg260 O263 1.990 . S
Mg260 O264 2.117 1_545 S
O261 Mg255 2.099 . S
O261 Mg260 2.180 1_565 S
O261 C270 1.279 . S
O262 Mg260 2.030 . S
O262 C268 1.248 . S
O263 Mg260 1.990 . S
O263 C269 1.253 . S
O264 Mg260 2.117 1_565 S
O264 C270 1.250 . S
C265 O271 1.248 . S
C265 O272 1.264 . S
C266 O252 1.253 . S
C266 O254 1.260 . S
C267 O256 1.279 . S
C267 O257 1.250 . S
C268 O258 1.264 . S
C268 O262 1.248 . S
C269 O259 1.260 . S
C269 O263 1.253 . S
C270 O261 1.279 . S
C270 O264 1.250 . S
O271 Mg253 2.030 . S
O271 C265 1.248 . S
O272 Mg255 2.079 . S
O272 C265 1.264 . S
O273 Mg274 1.990 . S
O273 C287 1.253 . S
Mg274 O273 1.990 . S
Mg274 O277 2.180 . S
Mg274 O278 2.117 1_545 S
Mg274 O292 2.030 . S
O275 Mg276 2.072 . S
O275 C287 1.260 . S
Mg276 O275 2.072 . S
Mg276 O277 2.099 . S
Mg276 O279 2.079 . S
Mg276 O280 2.072 . S
Mg276 O282 2.099 . S
Mg276 O293 2.079 . S
O277 Mg274 2.180 . S
O277 Mg276 2.099 . S
O277 C288 1.279 . S
O278 Mg274 2.117 1_565 S
O278 C288 1.250 1_565 S
O279 Mg276 2.079 . S
O279 C289 1.264 . S
O280 Mg276 2.072 . S
O280 C290 1.260 . S
Mg281 O282 2.180 . S
Mg281 O283 2.030 . S
Mg281 O284 1.990 . S
Mg281 O285 2.117 . S
O282 Mg276 2.099 . S
O282 Mg281 2.180 . S
O282 C291 1.279 . S
O283 Mg281 2.030 . S
O283 C289 1.248 . S
O284 Mg281 1.990 . S
O284 C290 1.253 . S
O285 Mg281 2.117 . S
O285 C291 1.250 . S
C286 O292 1.248 . S
C286 O293 1.264 . S
C287 O273 1.253 . S
C287 O275 1.260 . S
C288 O277 1.279 . S
C288 O278 1.250 1_545 S
C289 O279 1.264 . S
C289 O283 1.248 . S
C290 O280 1.260 . S
C290 O284 1.253 . S
C291 O282 1.279 . S
C291 O285 1.250 . S
O292 Mg274 2.030 . S
O292 C286 1.248 . S
O293 Mg276 2.079 . S
O293 C286 1.264 . S
O294 Mg295 1.990 . S
O294 C308 1.253 . S
Mg295 O294 1.990 . S
Mg295 O298 2.180 . S
Mg295 O299 2.117 . S
Mg295 O313 2.030 . S
O296 Mg297 2.072 . S
O296 C308 1.260 . S
Mg297 O296 2.072 . S
Mg297 O298 2.099 . S
Mg297 O300 2.079 1_545 S
Mg297 O301 2.072 1_545 S
Mg297 O303 2.099 . S
Mg297 O314 2.079 . S
O298 Mg295 2.180 . S
O298 Mg297 2.099 . S
O298 C309 1.279 . S
O299 Mg295 2.117 . S
O299 C309 1.250 . S
O300 Mg297 2.079 1_565 S
O300 C310 1.264 . S
O301 Mg297 2.072 1_565 S
O301 C311 1.260 . S
Mg302 O303 2.180 1_565 S
Mg302 O304 2.030 . S
Mg302 O305 1.990 . S
Mg302 O306 2.117 1_565 S
O303 Mg297 2.099 . S
O303 Mg302 2.180 1_545 S
O303 C312 1.279 . S
O304 Mg302 2.030 . S
O304 C310 1.248 . S
O305 Mg302 1.990 . S
O305 C311 1.253 . S
O306 Mg302 2.117 1_545 S
O306 C312 1.250 . S
C307 O313 1.248 . S
C307 O314 1.264 . S
C308 O294 1.253 . S
C308 O296 1.260 . S
C309 O298 1.279 . S
C309 O299 1.250 . S
C310 O300 1.264 . S
C310 O304 1.248 . S
C311 O301 1.260 . S
C311 O305 1.253 . S
C312 O303 1.279 . S
C312 O306 1.250 . S
O313 Mg295 2.030 . S
O313 C307 1.248 . S
O314 Mg297 2.079 . S
O314 C307 1.264 . S
O315 Mg316 1.990 . S
O315 C329 1.253 . S
Mg316 O315 1.990 . S
Mg316 O319 2.180 . S
Mg316 O320 2.117 1_565 S
Mg316 O334 2.030 . S
O317 Mg318 2.072 . S
O317 C329 1.260 . S
Mg318 O317 2.072 . S
Mg318 O319 2.099 . S
Mg318 O321 2.079 . S
Mg318 O322 2.072 . S
Mg318 O324 2.099 . S
Mg318 O335 2.079 . S
O319 Mg316 2.180 . S
O319 Mg318 2.099 . S
O319 C330 1.279 . S
O320 Mg316 2.117 1_545 S
O320 C330 1.250 1_545 S
O321 Mg318 2.079 . S
O321 C331 1.264 . S
O322 Mg318 2.072 . S
O322 C332 1.260 . S
Mg323 O324 2.180 . S
Mg323 O325 2.030 . S
Mg323 O326 1.990 . S
Mg323 O327 2.117 . S
O324 Mg318 2.099 . S
O324 Mg323 2.180 . S
O324 C333 1.279 . S
O325 Mg323 2.030 . S
O325 C331 1.248 . S
O326 Mg323 1.990 . S
O326 C332 1.253 . S
O327 Mg323 2.117 . S
O327 C333 1.250 . S
C328 O334 1.248 . S
C328 O335 1.264 . S
C329 O315 1.253 . S
C329 O317 1.260 . S
C330 O319 1.279 . S
C330 O320 1.250 1_565 S
C331 O321 1.264 . S
C331 O325 1.248 . S
C332 O322 1.260 . S
C332 O326 1.253 . S
C333 O324 1.279 . S
C333 O327 1.250 . S
O334 Mg316 2.030 . S
O334 C328 1.248 . S
O335 Mg318 2.079 . S
O335 C328 1.264 . S
O336 Mg337 1.990 . S
O336 C350 1.253 . S
Mg337 O336 1.990 . S
Mg337 O340 2.180 . S
Mg337 O341 2.117 . S
Mg337 O355 2.030 . S
O338 Mg339 2.072 . S
O338 C350 1.260 . S
Mg339 O338 2.072 . S
Mg339 O340 2.099 . S
Mg339 O342 2.079 1_554 S
Mg339 O343 2.072 1_554 S
Mg339 O345 2.099 . S
Mg339 O356 2.079 . S
O340 Mg337 2.180 . S
O340 Mg339 2.099 . S
O340 C351 1.279 . S
O341 Mg337 2.117 . S
O341 C351 1.250 . S
O342 Mg339 2.079 1_556 S
O342 C352 1.264 . S
O343 Mg339 2.072 1_556 S
O343 C353 1.260 . S
Mg344 O345 2.180 1_556 S
Mg344 O346 2.030 . S
Mg344 O347 1.990 . S
Mg344 O348 2.117 1_556 S
O345 Mg339 2.099 . S
O345 Mg344 2.180 1_554 S
O345 C354 1.279 . S
O346 Mg344 2.030 . S
O346 C352 1.248 . S
O347 Mg344 1.990 . S
O347 C353 1.253 . S
O348 Mg344 2.117 1_554 S
O348 C354 1.250 . S
C349 O355 1.248 . S
C349 O356 1.264 . S
C350 O336 1.253 . S
C350 O338 1.260 . S
C351 O340 1.279 . S
C351 O341 1.250 . S
C352 O342 1.264 . S
C352 O346 1.248 . S
C353 O343 1.260 . S
C353 O347 1.253 . S
C354 O345 1.279 . S
C354 O348 1.250 . S
O355 Mg337 2.030 . S
O355 C349 1.248 . S
O356 Mg339 2.079 . S
O356 C349 1.264 . S
O357 Mg358 1.990 . S
O357 C371 1.253 . S
Mg358 O357 1.990 . S
Mg358 O361 2.180 . S
Mg358 O362 2.117 . S
Mg358 O376 2.030 . S
O359 Mg360 2.072 . S
O359 C371 1.260 . S
Mg360 O359 2.072 . S
Mg360 O361 2.099 . S
Mg360 O363 2.079 1_556 S
Mg360 O364 2.072 1_556 S
Mg360 O366 2.099 . S
Mg360 O377 2.079 . S
O361 Mg358 2.180 . S
O361 Mg360 2.099 . S
O361 C372 1.279 . S
O362 Mg358 2.117 . S
O362 C372 1.250 . S
O363 Mg360 2.079 1_554 S
O363 C373 1.264 . S
O364 Mg360 2.072 1_554 S
O364 C374 1.260 . S
Mg365 O366 2.180 1_554 S
Mg365 O367 2.030 . S
Mg365 O368 1.990 . S
Mg365 O369 2.117 1_554 S
O366 Mg360 2.099 . S
O366 Mg365 2.180 1_556 S
O366 C375 1.279 . S
O367 Mg365 2.030 . S
O367 C373 1.248 . S
O368 Mg365 1.990 . S
O368 C374 1.253 . S
O369 Mg365 2.117 1_556 S
O369 C375 1.250 . S
C370 O376 1.248 . S
C370 O377 1.264 . S
C371 O357 1.253 . S
C371 O359 1.260 . S
C372 O361 1.279 . S
C372 O362 1.250 . S
C373 O363 1.264 . S
C373 O367 1.248 . S
C374 O364 1.260 . S
C374 O368 1.253 . S
C375 O366 1.279 . S
C375 O369 1.250 . S
O376 Mg358 2.030 . S
O376 C370 1.248 . S
O377 Mg360 2.079 . S
O377 C370 1.264 . S
O378 Mg379 1.990 . S
O378 C392 1.253 . S
Mg379 O378 1.990 . S
Mg379 O382 2.180 . S
Mg379 O383 2.117 1_455 S
Mg379 O397 2.030 . S
O380 Mg381 2.072 . S
O380 C392 1.260 . S
Mg381 O380 2.072 . S
Mg381 O382 2.099 . S
Mg381 O384 2.079 . S
Mg381 O385 2.072 . S
Mg381 O387 2.099 . S
Mg381 O398 2.079 . S
O382 Mg379 2.180 . S
O382 Mg381 2.099 . S
O382 C393 1.279 . S
O383 Mg379 2.117 1_655 S
O383 C393 1.250 1_655 S
O384 Mg381 2.079 . S
O384 C394 1.264 . S
O385 Mg381 2.072 . S
O385 C395 1.260 . S
Mg386 O387 2.180 . S
Mg386 O388 2.030 . S
Mg386 O389 1.990 . S
Mg386 O390 2.117 . S
O387 Mg381 2.099 . S
O387 Mg386 2.180 . S
O387 C396 1.279 . S
O388 Mg386 2.030 . S
O388 C394 1.248 . S
O389 Mg386 1.990 . S
O389 C395 1.253 . S
O390 Mg386 2.117 . S
O390 C396 1.250 . S
C391 O397 1.248 . S
C391 O398 1.264 . S
C392 O378 1.253 . S
C392 O380 1.260 . S
C393 O382 1.279 . S
C393 O383 1.250 1_455 S
C394 O384 1.264 . S
C394 O388 1.248 . S
C395 O385 1.260 . S
C395 O389 1.253 . S
C396 O387 1.279 . S
C396 O390 1.250 . S
O397 Mg379 2.030 . S
O397 C391 1.248 . S
O398 Mg381 2.079 . S
O398 C391 1.264 . S
O399 Mg400 1.990 . S
O399 C413 1.253 . S
Mg400 O399 1.990 . S
Mg400 O403 2.180 . S
Mg400 O404 2.117 . S
Mg400 O418 2.030 . S
O401 Mg402 2.072 . S
O401 C413 1.260 . S
Mg402 O401 2.072 . S
Mg402 O403 2.099 . S
Mg402 O405 2.079 . S
Mg402 O406 2.072 . S
Mg402 O408 2.099 . S
Mg402 O419 2.079 . S
O403 Mg400 2.180 . S
O403 Mg402 2.099 . S
O403 C414 1.279 . S
O404 Mg400 2.117 . S
O404 C414 1.250 . S
O405 Mg402 2.079 . S
O405 C415 1.264 . S
O406 Mg402 2.072 . S
O406 C416 1.260 . S
Mg407 O408 2.180 . S
Mg407 O409 2.030 . S
Mg407 O410 1.990 . S
Mg407 O411 2.117 . S
O408 Mg402 2.099 . S
O408 Mg407 2.180 . S
O408 C417 1.279 . S
O409 Mg407 2.030 . S
O409 C415 1.248 . S
O410 Mg407 1.990 . S
O410 C416 1.253 . S
O411 Mg407 2.117 . S
O411 C417 1.250 . S
C412 O418 1.248 . S
C412 O419 1.264 . S
C413 O399 1.253 . S
C413 O401 1.260 . S
C414 O403 1.279 . S
C414 O404 1.250 . S
C415 O405 1.264 . S
C415 O409 1.248 . S
C416 O406 1.260 . S
C416 O410 1.253 . S
C417 O408 1.279 . S
C417 O411 1.250 . S
O418 Mg400 2.030 . S
O418 C412 1.248 . S
O419 Mg402 2.079 . S
O419 C412 1.264 . S
O420 Mg421 1.990 . S
O420 C434 1.253 . S
Mg421 O420 1.990 . S
Mg421 O424 2.180 . S
Mg421 O425 2.117 1_655 S
Mg421 O439 2.030 . S
O422 Mg423 2.072 . S
O422 C434 1.260 . S
Mg423 O422 2.072 . S
Mg423 O424 2.099 . S
Mg423 O426 2.079 . S
Mg423 O427 2.072 . S
Mg423 O429 2.099 . S
Mg423 O440 2.079 . S
O424 Mg421 2.180 . S
O424 Mg423 2.099 . S
O424 C435 1.279 . S
O425 Mg421 2.117 1_455 S
O425 C435 1.250 1_455 S
O426 Mg423 2.079 . S
O426 C436 1.264 . S
O427 Mg423 2.072 . S
O427 C437 1.260 . S
Mg428 O429 2.180 . S
Mg428 O430 2.030 . S
Mg428 O431 1.990 . S
Mg428 O432 2.117 . S
O429 Mg423 2.099 . S
O429 Mg428 2.180 . S
O429 C438 1.279 . S
O430 Mg428 2.030 . S
O430 C436 1.248 . S
O431 Mg428 1.990 . S
O431 C437 1.253 . S
O432 Mg428 2.117 . S
O432 C438 1.250 . S
C433 O439 1.248 . S
C433 O440 1.264 . S
C434 O420 1.253 . S
C434 O422 1.260 . S
C435 O424 1.279 . S
C435 O425 1.250 1_655 S
C436 O426 1.264 . S
C436 O430 1.248 . S
C437 O427 1.260 . S
C437 O431 1.253 . S
C438 O429 1.279 . S
C438 O432 1.250 . S
O439 Mg421 2.030 . S
O439 C433 1.248 . S
O440 Mg423 2.079 . S
O440 C433 1.264 . S
O441 Mg442 1.990 . S
O441 C455 1.253 . S
Mg442 O441 1.990 . S
Mg442 O445 2.180 . S
Mg442 O446 2.117 . S
Mg442 O460 2.030 . S
O443 Mg444 2.072 . S
O443 C455 1.260 . S
Mg444 O443 2.072 . S
Mg444 O445 2.099 . S
Mg444 O447 2.079 . S
Mg444 O448 2.072 . S
Mg444 O450 2.099 . S
Mg444 O461 2.079 . S
O445 Mg442 2.180 . S
O445 Mg444 2.099 . S
O445 C456 1.279 . S
O446 Mg442 2.117 . S
O446 C456 1.250 . S
O447 Mg444 2.079 . S
O447 C457 1.264 . S
O448 Mg444 2.072 . S
O448 C458 1.260 . S
Mg449 O450 2.180 . S
Mg449 O451 2.030 . S
Mg449 O452 1.990 . S
Mg449 O453 2.117 . S
O450 Mg444 2.099 . S
O450 Mg449 2.180 . S
O450 C459 1.279 . S
O451 Mg449 2.030 . S
O451 C457 1.248 . S
O452 Mg449 1.990 . S
O452 C458 1.253 . S
O453 Mg449 2.117 . S
O453 C459 1.250 . S
C454 O460 1.248 . S
C454 O461 1.264 . S
C455 O441 1.253 . S
C455 O443 1.260 . S
C456 O445 1.279 . S
C456 O446 1.250 . S
C457 O447 1.264 . S
C457 O451 1.248 . S
C458 O448 1.260 . S
C458 O452 1.253 . S
C459 O450 1.279 . S
C459 O453 1.250 . S
O460 Mg442 2.030 . S
O460 C454 1.248 . S
O461 Mg444 2.079 . S
O461 C454 1.264 . S
O462 Mg463 1.990 . S
O462 C476 1.253 . S
Mg463 O462 1.990 . S
Mg463 O466 2.180 . S
Mg463 O467 2.117 1_455 S
Mg463 O481 2.030 . S
O464 Mg465 2.072 . S
O464 C476 1.260 . S
Mg465 O464 2.072 . S
Mg465 O466 2.099 . S
Mg465 O468 2.079 . S
Mg465 O469 2.072 . S
Mg465 O471 2.099 . S
Mg465 O482 2.079 . S
O466 Mg463 2.180 . S
O466 Mg465 2.099 . S
O466 C477 1.279 . S
O467 Mg463 2.117 1_655 S
O467 C477 1.250 1_655 S
O468 Mg465 2.079 . S
O468 C478 1.264 . S
O469 Mg465 2.072 . S
O469 C479 1.260 . S
Mg470 O471 2.180 . S
Mg470 O472 2.030 . S
Mg470 O473 1.990 . S
Mg470 O474 2.117 . S
O471 Mg465 2.099 . S
O471 Mg470 2.180 . S
O471 C480 1.279 . S
O472 Mg470 2.030 . S
O472 C478 1.248 . S
O473 Mg470 1.990 . S
O473 C479 1.253 . S
O474 Mg470 2.117 . S
O474 C480 1.250 . S
C475 O481 1.248 . S
C475 O482 1.264 . S
C476 O462 1.253 . S
C476 O464 1.260 . S
C477 O466 1.279 . S
C477 O467 1.250 1_455 S
C478 O468 1.264 . S
C478 O472 1.248 . S
C479 O469 1.260 . S
C479 O473 1.253 . S
C480 O471 1.279 . S
C480 O474 1.250 . S
O481 Mg463 2.030 . S
O481 C475 1.248 . S
O482 Mg465 2.079 . S
O482 C475 1.264 . S
O483 Mg484 1.990 . S
O483 C497 1.253 . S
Mg484 O483 1.990 . S
Mg484 O487 2.180 . S
Mg484 O488 2.117 . S
Mg484 O502 2.030 . S
O485 Mg486 2.072 . S
O485 C497 1.260 . S
Mg486 O485 2.072 . S
Mg486 O487 2.099 . S
Mg486 O489 2.079 . S
Mg486 O490 2.072 . S
Mg486 O492 2.099 . S
Mg486 O503 2.079 . S
O487 Mg484 2.180 . S
O487 Mg486 2.099 . S
O487 C498 1.279 . S
O488 Mg484 2.117 . S
O488 C498 1.250 . S
O489 Mg486 2.079 . S
O489 C499 1.264 . S
O490 Mg486 2.072 . S
O490 C500 1.260 . S
Mg491 O492 2.180 . S
Mg491 O493 2.030 . S
Mg491 O494 1.990 . S
Mg491 O495 2.117 . S
O492 Mg486 2.099 . S
O492 Mg491 2.180 . S
O492 C501 1.279 . S
O493 Mg491 2.030 . S
O493 C499 1.248 . S
O494 Mg491 1.990 . S
O494 C500 1.253 . S
O495 Mg491 2.117 . S
O495 C501 1.250 . S
C496 O502 1.248 . S
C496 O503 1.264 . S
C497 O483 1.253 . S
C497 O485 1.260 . S
C498 O487 1.279 . S
C498 O488 1.250 . S
C499 O489 1.264 . S
C499 O493 1.248 . S
C500 O490 1.260 . S
C500 O494 1.253 . S
C501 O492 1.279 . S
C501 O495 1.250 . S
O502 Mg484 2.030 . S
O502 C496 1.248 . S
O503 Mg486 2.079 . S
O503 C496 1.264 . S
O504 Mg505 1.990 . S
O504 C518 1.253 . S
Mg505 O504 1.990 . S
Mg505 O508 2.180 . S
Mg505 O509 2.117 . S
Mg505 O523 2.030 . S
O506 Mg507 2.072 . S
O506 C518 1.260 . S
Mg507 O506 2.072 . S
Mg507 O508 2.099 . S
Mg507 O510 2.079 1_655 S
Mg507 O511 2.072 1_655 S
Mg507 O513 2.099 . S
Mg507 O524 2.079 . S
O508 Mg505 2.180 . S
O508 Mg507 2.099 . S
O508 C519 1.279 . S
O509 Mg505 2.117 . S
O509 C519 1.250 . S
O510 Mg507 2.079 1_455 S
O510 C520 1.264 . S
O511 Mg507 2.072 1_455 S
O511 C521 1.260 . S
Mg512 O513 2.180 1_455 S
Mg512 O514 2.030 . S
Mg512 O515 1.990 . S
Mg512 O516 2.117 1_455 S
O513 Mg507 2.099 . S
O513 Mg512 2.180 1_655 S
O513 C522 1.279 . S
O514 Mg512 2.030 . S
O514 C520 1.248 . S
O515 Mg512 1.990 . S
O515 C521 1.253 . S
O516 Mg512 2.117 1_655 S
O516 C522 1.250 . S
C517 O523 1.248 . S
C517 O524 1.264 . S
C518 O504 1.253 . S
C518 O506 1.260 . S
C519 O508 1.279 . S
C519 O509 1.250 . S
C520 O510 1.264 . S
C520 O514 1.248 . S
C521 O511 1.260 . S
C521 O515 1.253 . S
C522 O513 1.279 . S
C522 O516 1.250 . S
O523 Mg505 2.030 . S
O523 C517 1.248 . S
O524 Mg507 2.079 . S
O524 C517 1.264 . S
O525 Mg526 1.990 . S
O525 C539 1.253 . S
Mg526 O525 1.990 . S
Mg526 O529 2.180 . S
Mg526 O530 2.117 . S
Mg526 O544 2.030 . S
O527 Mg528 2.072 . S
O527 C539 1.260 . S
Mg528 O527 2.072 . S
Mg528 O529 2.099 . S
Mg528 O531 2.079 . S
Mg528 O532 2.072 . S
Mg528 O534 2.099 . S
Mg528 O545 2.079 . S
O529 Mg526 2.180 . S
O529 Mg528 2.099 . S
O529 C540 1.279 . S
O530 Mg526 2.117 . S
O530 C540 1.250 . S
O531 Mg528 2.079 . S
O531 C541 1.264 . S
O532 Mg528 2.072 . S
O532 C542 1.260 . S
Mg533 O534 2.180 . S
Mg533 O535 2.030 . S
Mg533 O536 1.990 . S
Mg533 O537 2.117 . S
O534 Mg528 2.099 . S
O534 Mg533 2.180 . S
O534 C543 1.279 . S
O535 Mg533 2.030 . S
O535 C541 1.248 . S
O536 Mg533 1.990 . S
O536 C542 1.253 . S
O537 Mg533 2.117 . S
O537 C543 1.250 . S
C538 O544 1.248 . S
C538 O545 1.264 . S
C539 O525 1.253 . S
C539 O527 1.260 . S
C540 O529 1.279 . S
C540 O530 1.250 . S
C541 O531 1.264 . S
C541 O535 1.248 . S
C542 O532 1.260 . S
C542 O536 1.253 . S
C543 O534 1.279 . S
C543 O537 1.250 . S
O544 Mg526 2.030 . S
O544 C538 1.248 . S
O545 Mg528 2.079 . S
O545 C538 1.264 . S
O546 Mg547 1.990 . S
O546 C560 1.253 . S
Mg547 O546 1.990 . S
Mg547 O550 2.180 . S
Mg547 O551 2.117 . S
Mg547 O565 2.030 . S
O548 Mg549 2.072 . S
O548 C560 1.260 . S
Mg549 O548 2.072 . S
Mg549 O550 2.099 . S
Mg549 O552 2.079 . S
Mg549 O553 2.072 . S
Mg549 O555 2.099 . S
Mg549 O566 2.079 . S
O550 Mg547 2.180 . S
O550 Mg549 2.099 . S
O550 C561 1.279 . S
O551 Mg547 2.117 . S
O551 C561 1.250 . S
O552 Mg549 2.079 . S
O552 C562 1.264 . S
O553 Mg549 2.072 . S
O553 C563 1.260 . S
Mg554 O555 2.180 . S
Mg554 O556 2.030 . S
Mg554 O557 1.990 . S
Mg554 O558 2.117 . S
O555 Mg549 2.099 . S
O555 Mg554 2.180 . S
O555 C564 1.279 . S
O556 Mg554 2.030 . S
O556 C562 1.248 . S
O557 Mg554 1.990 . S
O557 C563 1.253 . S
O558 Mg554 2.117 . S
O558 C564 1.250 . S
C559 O565 1.248 . S
C559 O566 1.264 . S
C560 O546 1.253 . S
C560 O548 1.260 . S
C561 O550 1.279 . S
C561 O551 1.250 . S
C562 O552 1.264 . S
C562 O556 1.248 . S
C563 O553 1.260 . S
C563 O557 1.253 . S
C564 O555 1.279 . S
C564 O558 1.250 . S
O565 Mg547 2.030 . S
O565 C559 1.248 . S
O566 Mg549 2.079 . S
O566 C559 1.264 . S
O567 Mg568 1.990 . S
O567 C581 1.253 . S
Mg568 O567 1.990 . S
Mg568 O571 2.180 . S
Mg568 O572 2.117 . S
Mg568 O586 2.030 . S
O569 Mg570 2.072 . S
O569 C581 1.260 . S
Mg570 O569 2.072 . S
Mg570 O571 2.099 . S
Mg570 O573 2.079 . S
Mg570 O574 2.072 . S
Mg570 O576 2.099 . S
Mg570 O587 2.079 . S
O571 Mg568 2.180 . S
O571 Mg570 2.099 . S
O571 C582 1.279 . S
O572 Mg568 2.117 . S
O572 C582 1.250 . S
O573 Mg570 2.079 . S
O573 C583 1.264 . S
O574 Mg570 2.072 . S
O574 C584 1.260 . S
Mg575 O576 2.180 . S
Mg575 O577 2.030 . S
Mg575 O578 1.990 . S
Mg575 O579 2.117 1_556 S
O576 Mg570 2.099 . S
O576 Mg575 2.180 . S
O576 C585 1.279 . S
O577 Mg575 2.030 . S
O577 C583 1.248 . S
O578 Mg575 1.990 . S
O578 C584 1.253 . S
O579 Mg575 2.117 1_554 S
O579 C585 1.250 1_554 S
C580 O586 1.248 . S
C580 O587 1.264 . S
C581 O567 1.253 . S
C581 O569 1.260 . S
C582 O571 1.279 . S
C582 O572 1.250 . S
C583 O573 1.264 . S
C583 O577 1.248 . S
C584 O574 1.260 . S
C584 O578 1.253 . S
C585 O576 1.279 . S
C585 O579 1.250 1_556 S
O586 Mg568 2.030 . S
O586 C580 1.248 . S
O587 Mg570 2.079 . S
O587 C580 1.264 . S
O588 Mg589 1.990 . S
O588 C602 1.253 . S
Mg589 O588 1.990 . S
Mg589 O592 2.180 . S
Mg589 O593 2.117 . S
Mg589 O607 2.030 . S
O590 Mg591 2.072 . S
O590 C602 1.260 . S
Mg591 O590 2.072 . S
Mg591 O592 2.099 . S
Mg591 O594 2.079 1_655 S
Mg591 O595 2.072 1_655 S
Mg591 O597 2.099 . S
Mg591 O608 2.079 . S
O592 Mg589 2.180 . S
O592 Mg591 2.099 . S
O592 C603 1.279 . S
O593 Mg589 2.117 . S
O593 C603 1.250 . S
O594 Mg591 2.079 1_455 S
O594 C604 1.264 . S
O595 Mg591 2.072 1_455 S
O595 C605 1.260 . S
Mg596 O597 2.180 1_455 S
Mg596 O598 2.030 . S
Mg596 O599 1.990 . S
Mg596 O600 2.117 1_455 S
O597 Mg591 2.099 . S
O597 Mg596 2.180 1_655 S
O597 C606 1.279 . S
O598 Mg596 2.030 . S
O598 C604 1.248 . S
O599 Mg596 1.990 . S
O599 C605 1.253 . S
O600 Mg596 2.117 1_655 S
O600 C606 1.250 . S
C601 O607 1.248 . S
C601 O608 1.264 . S
C602 O588 1.253 . S
C602 O590 1.260 . S
C603 O592 1.279 . S
C603 O593 1.250 . S
C604 O594 1.264 . S
C604 O598 1.248 . S
C605 O595 1.260 . S
C605 O599 1.253 . S
C606 O597 1.279 . S
C606 O600 1.250 . S
O607 Mg589 2.030 . S
O607 C601 1.248 . S
O608 Mg591 2.079 . S
O608 C601 1.264 . S
O609 Mg610 1.990 . S
O609 C623 1.253 . S
Mg610 O609 1.990 . S
Mg610 O613 2.180 . S
Mg610 O614 2.117 . S
Mg610 O628 2.030 . S
O611 Mg612 2.072 . S
O611 C623 1.260 . S
Mg612 O611 2.072 . S
Mg612 O613 2.099 . S
Mg612 O615 2.079 . S
Mg612 O616 2.072 . S
Mg612 O618 2.099 . S
Mg612 O629 2.079 . S
O613 Mg610 2.180 . S
O613 Mg612 2.099 . S
O613 C624 1.279 . S
O614 Mg610 2.117 . S
O614 C624 1.250 . S
O615 Mg612 2.079 . S
O615 C625 1.264 . S
O616 Mg612 2.072 . S
O616 C626 1.260 . S
Mg617 O618 2.180 . S
Mg617 O619 2.030 . S
Mg617 O620 1.990 . S
Mg617 O621 2.117 . S
O618 Mg612 2.099 . S
O618 Mg617 2.180 . S
O618 C627 1.279 . S
O619 Mg617 2.030 . S
O619 C625 1.248 . S
O620 Mg617 1.990 . S
O620 C626 1.253 . S
O621 Mg617 2.117 . S
O621 C627 1.250 . S
C622 O628 1.248 . S
C622 O629 1.264 . S
C623 O609 1.253 . S
C623 O611 1.260 . S
C624 O613 1.279 . S
C624 O614 1.250 . S
C625 O615 1.264 . S
C625 O619 1.248 . S
C626 O616 1.260 . S
C626 O620 1.253 . S
C627 O618 1.279 . S
C627 O621 1.250 . S
O628 Mg610 2.030 . S
O628 C622 1.248 . S
O629 Mg612 2.079 . S
O629 C622 1.264 . S
O630 Mg631 1.990 . S
O630 C644 1.253 . S
Mg631 O630 1.990 . S
Mg631 O634 2.180 . S
Mg631 O635 2.117 . S
Mg631 O649 2.030 . S
O632 Mg633 2.072 . S
O632 C644 1.260 . S
Mg633 O632 2.072 . S
Mg633 O634 2.099 . S
Mg633 O636 2.079 . S
Mg633 O637 2.072 . S
Mg633 O639 2.099 . S
Mg633 O650 2.079 . S
O634 Mg631 2.180 . S
O634 Mg633 2.099 . S
O634 C645 1.279 . S
O635 Mg631 2.117 . S
O635 C645 1.250 . S
O636 Mg633 2.079 . S
O636 C646 1.264 . S
O637 Mg633 2.072 . S
O637 C647 1.260 . S
Mg638 O639 2.180 . S
Mg638 O640 2.030 . S
Mg638 O641 1.990 . S
Mg638 O642 2.117 . S
O639 Mg633 2.099 . S
O639 Mg638 2.180 . S
O639 C648 1.279 . S
O640 Mg638 2.030 . S
O640 C646 1.248 . S
O641 Mg638 1.990 . S
O641 C647 1.253 . S
O642 Mg638 2.117 . S
O642 C648 1.250 . S
C643 O649 1.248 . S
C643 O650 1.264 . S
C644 O630 1.253 . S
C644 O632 1.260 . S
C645 O634 1.279 . S
C645 O635 1.250 . S
C646 O636 1.264 . S
C646 O640 1.248 . S
C647 O637 1.260 . S
C647 O641 1.253 . S
C648 O639 1.279 . S
C648 O642 1.250 . S
O649 Mg631 2.030 . S
O649 C643 1.248 . S
O650 Mg633 2.079 . S
O650 C643 1.264 . S
O651 Mg652 1.990 . S
O651 C665 1.253 . S
Mg652 O651 1.990 . S
Mg652 O655 2.180 . S
Mg652 O656 2.117 . S
Mg652 O670 2.030 . S
O653 Mg654 2.072 . S
O653 C665 1.260 . S
Mg654 O653 2.072 . S
Mg654 O655 2.099 . S
Mg654 O657 2.079 . S
Mg654 O658 2.072 . S
Mg654 O660 2.099 . S
Mg654 O671 2.079 . S
O655 Mg652 2.180 . S
O655 Mg654 2.099 . S
O655 C666 1.279 . S
O656 Mg652 2.117 . S
O656 C666 1.250 . S
O657 Mg654 2.079 . S
O657 C667 1.264 . S
O658 Mg654 2.072 . S
O658 C668 1.260 . S
Mg659 O660 2.180 . S
Mg659 O661 2.030 . S
Mg659 O662 1.990 . S
Mg659 O663 2.117 1_554 S
O660 Mg654 2.099 . S
O660 Mg659 2.180 . S
O660 C669 1.279 . S
O661 Mg659 2.030 . S
O661 C667 1.248 . S
O662 Mg659 1.990 . S
O662 C668 1.253 . S
O663 Mg659 2.117 1_556 S
O663 C669 1.250 1_556 S
C664 O670 1.248 . S
C664 O671 1.264 . S
C665 O651 1.253 . S
C665 O653 1.260 . S
C666 O655 1.279 . S
C666 O656 1.250 . S
C667 O657 1.264 . S
C667 O661 1.248 . S
C668 O658 1.260 . S
C668 O662 1.253 . S
C669 O660 1.279 . S
C669 O663 1.250 1_554 S
O670 Mg652 2.030 . S
O670 C664 1.248 . S
O671 Mg654 2.079 . S
O671 C664 1.264 . S
O672 Mg673 1.990 . S
O672 C686 1.253 . S
Mg673 O672 1.990 . S
Mg673 O676 2.180 . S
Mg673 O677 2.117 . S
Mg673 O691 2.030 . S
O674 Mg675 2.072 . S
O674 C686 1.260 . S
Mg675 O674 2.072 . S
Mg675 O676 2.099 . S
Mg675 O678 2.079 1_565 S
Mg675 O679 2.072 1_565 S
Mg675 O681 2.099 . S
Mg675 O692 2.079 . S
O676 Mg673 2.180 . S
O676 Mg675 2.099 . S
O676 C687 1.279 . S
O677 Mg673 2.117 . S
O677 C687 1.250 . S
O678 Mg675 2.079 1_545 S
O678 C688 1.264 . S
O679 Mg675 2.072 1_545 S
O679 C689 1.260 . S
Mg680 O681 2.180 1_545 S
Mg680 O682 2.030 . S
Mg680 O683 1.990 . S
Mg680 O684 2.117 1_545 S
O681 Mg675 2.099 . S
O681 Mg680 2.180 1_565 S
O681 C690 1.279 . S
O682 Mg680 2.030 . S
O682 C688 1.248 . S
O683 Mg680 1.990 . S
O683 C689 1.253 . S
O684 Mg680 2.117 1_565 S
O684 C690 1.250 . S
C685 O691 1.248 . S
C685 O692 1.264 . S
C686 O672 1.253 . S
C686 O674 1.260 . S
C687 O676 1.279 . S
C687 O677 1.250 . S
C688 O678 1.264 . S
C688 O682 1.248 . S
C689 O679 1.260 . S
C689 O683 1.253 . S
C690 O681 1.279 . S
C690 O684 1.250 . S
O691 Mg673 2.030 . S
O691 C685 1.248 . S
O692 Mg675 2.079 . S
O692 C685 1.264 . S
O693 Mg694 1.990 . S
O693 C707 1.253 . S
Mg694 O693 1.990 . S
Mg694 O697 2.180 . S
Mg694 O698 2.117 . S
Mg694 O712 2.030 . S
O695 Mg696 2.072 . S
O695 C707 1.260 . S
Mg696 O695 2.072 . S
Mg696 O697 2.099 . S
Mg696 O699 2.079 . S
Mg696 O700 2.072 . S
Mg696 O702 2.099 . S
Mg696 O713 2.079 . S
O697 Mg694 2.180 . S
O697 Mg696 2.099 . S
O697 C708 1.279 . S
O698 Mg694 2.117 . S
O698 C708 1.250 . S
O699 Mg696 2.079 . S
O699 C709 1.264 . S
O700 Mg696 2.072 . S
O700 C710 1.260 . S
Mg701 O702 2.180 . S
Mg701 O703 2.030 . S
Mg701 O704 1.990 . S
Mg701 O705 2.117 1_565 S
O702 Mg696 2.099 . S
O702 Mg701 2.180 . S
O702 C711 1.279 . S
O703 Mg701 2.030 . S
O703 C709 1.248 . S
O704 Mg701 1.990 . S
O704 C710 1.253 . S
O705 Mg701 2.117 1_545 S
O705 C711 1.250 1_545 S
C706 O712 1.248 . S
C706 O713 1.264 . S
C707 O693 1.253 . S
C707 O695 1.260 . S
C708 O697 1.279 . S
C708 O698 1.250 . S
C709 O699 1.264 . S
C709 O703 1.248 . S
C710 O700 1.260 . S
C710 O704 1.253 . S
C711 O702 1.279 . S
C711 O705 1.250 1_565 S
O712 Mg694 2.030 . S
O712 C706 1.248 . S
O713 Mg696 2.079 . S
O713 C706 1.264 . S
O714 Mg715 1.990 . S
O714 C728 1.253 . S
Mg715 O714 1.990 . S
Mg715 O718 2.180 1_565 S
Mg715 O719 2.117 1_565 S
Mg715 O733 2.030 . S
O716 Mg717 2.072 1_565 S
O716 C728 1.260 . S
Mg717 O716 2.072 1_545 S
Mg717 O718 2.099 . S
Mg717 O720 2.079 . S
Mg717 O721 2.072 . S
Mg717 O723 2.099 . S
Mg717 O734 2.079 1_545 S
O718 Mg715 2.180 1_545 S
O718 Mg717 2.099 . S
O718 C729 1.279 . S
O719 Mg715 2.117 1_545 S
O719 C729 1.250 . S
O720 Mg717 2.079 . S
O720 C730 1.264 . S
O721 Mg717 2.072 . S
O721 C731 1.260 . S
Mg722 O723 2.180 . S
Mg722 O724 2.030 . S
Mg722 O725 1.990 . S
Mg722 O726 2.117 . S
O723 Mg717 2.099 . S
O723 Mg722 2.180 . S
O723 C732 1.279 . S
O724 Mg722 2.030 . S
O724 C730 1.248 . S
O725 Mg722 1.990 . S
O725 C731 1.253 . S
O726 Mg722 2.117 . S
O726 C732 1.250 . S
C727 O733 1.248 . S
C727 O734 1.264 . S
C728 O714 1.253 . S
C728 O716 1.260 . S
C729 O718 1.279 . S
C729 O719 1.250 . S
C730 O720 1.264 . S
C730 O724 1.248 . S
C731 O721 1.260 . S
C731 O725 1.253 . S
C732 O723 1.279 . S
C732 O726 1.250 . S
O733 Mg715 2.030 . S
O733 C727 1.248 . S
O734 Mg717 2.079 1_565 S
O734 C727 1.264 . S
O735 Mg736 1.990 . S
O735 C749 1.253 . S
Mg736 O735 1.990 . S
Mg736 O739 2.180 . S
Mg736 O740 2.117 1_545 S
Mg736 O754 2.030 . S
O737 Mg738 2.072 . S
O737 C749 1.260 . S
Mg738 O737 2.072 . S
Mg738 O739 2.099 . S
Mg738 O741 2.079 . S
Mg738 O742 2.072 . S
Mg738 O744 2.099 . S
Mg738 O755 2.079 . S
O739 Mg736 2.180 . S
O739 Mg738 2.099 . S
O739 C750 1.279 . S
O740 Mg736 2.117 1_565 S
O740 C750 1.250 1_565 S
O741 Mg738 2.079 . S
O741 C751 1.264 . S
O742 Mg738 2.072 . S
O742 C752 1.260 . S
Mg743 O744 2.180 . S
Mg743 O745 2.030 . S
Mg743 O746 1.990 . S
Mg743 O747 2.117 . S
O744 Mg738 2.099 . S
O744 Mg743 2.180 . S
O744 C753 1.279 . S
O745 Mg743 2.030 . S
O745 C751 1.248 . S
O746 Mg743 1.990 . S
O746 C752 1.253 . S
O747 Mg743 2.117 . S
O747 C753 1.250 . S
C748 O754 1.248 . S
C748 O755 1.264 . S
C749 O735 1.253 . S
C749 O737 1.260 . S
C750 O739 1.279 . S
C750 O740 1.250 1_545 S
C751 O741 1.264 . S
C751 O745 1.248 . S
C752 O742 1.260 . S
C752 O746 1.253 . S
C753 O744 1.279 . S
C753 O747 1.250 . S
O754 Mg736 2.030 . S
O754 C748 1.248 . S
O755 Mg738 2.079 . S
O755 C748 1.264 . S
O756 Mg757 1.990 . S
O756 C770 1.253 . S
Mg757 O756 1.990 . S
Mg757 O760 2.180 1_565 S
Mg757 O761 2.117 1_565 S
Mg757 O775 2.030 . S
O758 Mg759 2.072 1_565 S
O758 C770 1.260 . S
Mg759 O758 2.072 1_545 S
Mg759 O760 2.099 . S
Mg759 O762 2.079 . S
Mg759 O763 2.072 . S
Mg759 O765 2.099 . S
Mg759 O776 2.079 1_545 S
O760 Mg757 2.180 1_545 S
O760 Mg759 2.099 . S
O760 C771 1.279 . S
O761 Mg757 2.117 1_545 S
O761 C771 1.250 . S
O762 Mg759 2.079 . S
O762 C772 1.264 . S
O763 Mg759 2.072 . S
O763 C773 1.260 . S
Mg764 O765 2.180 . S
Mg764 O766 2.030 . S
Mg764 O767 1.990 . S
Mg764 O768 2.117 . S
O765 Mg759 2.099 . S
O765 Mg764 2.180 . S
O765 C774 1.279 . S
O766 Mg764 2.030 . S
O766 C772 1.248 . S
O767 Mg764 1.990 . S
O767 C773 1.253 . S
O768 Mg764 2.117 . S
O768 C774 1.250 . S
C769 O775 1.248 . S
C769 O776 1.264 . S
C770 O756 1.253 . S
C770 O758 1.260 . S
C771 O760 1.279 . S
C771 O761 1.250 . S
C772 O762 1.264 . S
C772 O766 1.248 . S
C773 O763 1.260 . S
C773 O767 1.253 . S
C774 O765 1.279 . S
C774 O768 1.250 . S
O775 Mg757 2.030 . S
O775 C769 1.248 . S
O776 Mg759 2.079 1_565 S
O776 C769 1.264 . S
O777 Mg778 1.990 . S
O777 C791 1.253 . S
Mg778 O777 1.990 . S
Mg778 O781 2.180 . S
Mg778 O782 2.117 1_565 S
Mg778 O796 2.030 . S
O779 Mg780 2.072 . S
O779 C791 1.260 . S
Mg780 O779 2.072 . S
Mg780 O781 2.099 . S
Mg780 O783 2.079 . S
Mg780 O784 2.072 . S
Mg780 O786 2.099 . S
Mg780 O797 2.079 . S
O781 Mg778 2.180 . S
O781 Mg780 2.099 . S
O781 C792 1.279 . S
O782 Mg778 2.117 1_545 S
O782 C792 1.250 1_545 S
O783 Mg780 2.079 . S
O783 C793 1.264 . S
O784 Mg780 2.072 . S
O784 C794 1.260 . S
Mg785 O786 2.180 . S
Mg785 O787 2.030 . S
Mg785 O788 1.990 . S
Mg785 O789 2.117 . S
O786 Mg780 2.099 . S
O786 Mg785 2.180 . S
O786 C795 1.279 . S
O787 Mg785 2.030 . S
O787 C793 1.248 . S
O788 Mg785 1.990 . S
O788 C794 1.253 . S
O789 Mg785 2.117 . S
O789 C795 1.250 . S
C790 O796 1.248 . S
C790 O797 1.264 . S
C791 O777 1.253 . S
C791 O779 1.260 . S
C792 O781 1.279 . S
C792 O782 1.250 1_565 S
C793 O783 1.264 . S
C793 O787 1.248 . S
C794 O784 1.260 . S
C794 O788 1.253 . S
C795 O786 1.279 . S
C795 O789 1.250 . S
O796 Mg778 2.030 . S
O796 C790 1.248 . S
O797 Mg780 2.079 . S
O797 C790 1.264 . S
O798 Mg799 1.990 . S
O798 C812 1.253 . S
Mg799 O798 1.990 . S
Mg799 O802 2.180 . S
Mg799 O803 2.117 . S
Mg799 O817 2.030 . S
O800 Mg801 2.072 . S
O800 C812 1.260 . S
Mg801 O800 2.072 . S
Mg801 O802 2.099 . S
Mg801 O804 2.079 1_565 S
Mg801 O805 2.072 1_565 S
Mg801 O807 2.099 . S
Mg801 O818 2.079 . S
O802 Mg799 2.180 . S
O802 Mg801 2.099 . S
O802 C813 1.279 . S
O803 Mg799 2.117 . S
O803 C813 1.250 . S
O804 Mg801 2.079 1_545 S
O804 C814 1.264 . S
O805 Mg801 2.072 1_545 S
O805 C815 1.260 . S
Mg806 O807 2.180 1_545 S
Mg806 O808 2.030 . S
Mg806 O809 1.990 . S
Mg806 O810 2.117 1_545 S
O807 Mg801 2.099 . S
O807 Mg806 2.180 1_565 S
O807 C816 1.279 . S
O808 Mg806 2.030 . S
O808 C814 1.248 . S
O809 Mg806 1.990 . S
O809 C815 1.253 . S
O810 Mg806 2.117 1_565 S
O810 C816 1.250 . S
C811 O817 1.248 . S
C811 O818 1.264 . S
C812 O798 1.253 . S
C812 O800 1.260 . S
C813 O802 1.279 . S
C813 O803 1.250 . S
C814 O804 1.264 . S
C814 O808 1.248 . S
C815 O805 1.260 . S
C815 O809 1.253 . S
C816 O807 1.279 . S
C816 O810 1.250 . S
O817 Mg799 2.030 . S
O817 C811 1.248 . S
O818 Mg801 2.079 . S
O818 C811 1.264 . S
O819 Mg820 1.990 . S
O819 C833 1.253 . S
Mg820 O819 1.990 . S
Mg820 O823 2.180 . S
Mg820 O824 2.117 1_545 S
Mg820 O838 2.030 . S
O821 Mg822 2.072 . S
O821 C833 1.260 . S
Mg822 O821 2.072 . S
Mg822 O823 2.099 . S
Mg822 O825 2.079 . S
Mg822 O826 2.072 . S
Mg822 O828 2.099 . S
Mg822 O839 2.079 . S
O823 Mg820 2.180 . S
O823 Mg822 2.099 . S
O823 C834 1.279 . S
O824 Mg820 2.117 1_565 S
O824 C834 1.250 1_565 S
O825 Mg822 2.079 . S
O825 C835 1.264 . S
O826 Mg822 2.072 . S
O826 C836 1.260 . S
Mg827 O828 2.180 . S
Mg827 O829 2.030 . S
Mg827 O830 1.990 . S
Mg827 O831 2.117 . S
O828 Mg822 2.099 . S
O828 Mg827 2.180 . S
O828 C837 1.279 . S
O829 Mg827 2.030 . S
O829 C835 1.248 . S
O830 Mg827 1.990 . S
O830 C836 1.253 . S
O831 Mg827 2.117 . S
O831 C837 1.250 . S
C832 O838 1.248 . S
C832 O839 1.264 . S
C833 O819 1.253 . S
C833 O821 1.260 . S
C834 O823 1.279 . S
C834 O824 1.250 1_545 S
C835 O825 1.264 . S
C835 O829 1.248 . S
C836 O826 1.260 . S
C836 O830 1.253 . S
C837 O828 1.279 . S
C837 O831 1.250 . S
O838 Mg820 2.030 . S
O838 C832 1.248 . S
O839 Mg822 2.079 . S
O839 C832 1.264 . S
O840 Mg841 1.990 . S
O840 C854 1.253 . S
Mg841 O840 1.990 . S
Mg841 O844 2.180 . S
Mg841 O845 2.117 . S
Mg841 O859 2.030 . S
O842 Mg843 2.072 . S
O842 C854 1.260 . S
Mg843 O842 2.072 . S
Mg843 O844 2.099 . S
Mg843 O846 2.079 1_556 S
Mg843 O847 2.072 1_556 S
Mg843 O849 2.099 . S
Mg843 O860 2.079 . S
O844 Mg841 2.180 . S
O844 Mg843 2.099 . S
O844 C855 1.279 . S
O845 Mg841 2.117 . S
O845 C855 1.250 . S
O846 Mg843 2.079 1_554 S
O846 C856 1.264 . S
O847 Mg843 2.072 1_554 S
O847 C857 1.260 . S
Mg848 O849 2.180 1_554 S
Mg848 O850 2.030 . S
Mg848 O851 1.990 . S
Mg848 O852 2.117 1_554 S
O849 Mg843 2.099 . S
O849 Mg848 2.180 1_556 S
O849 C858 1.279 . S
O850 Mg848 2.030 . S
O850 C856 1.248 . S
O851 Mg848 1.990 . S
O851 C857 1.253 . S
O852 Mg848 2.117 1_556 S
O852 C858 1.250 . S
C853 O859 1.248 . S
C853 O860 1.264 . S
C854 O840 1.253 . S
C854 O842 1.260 . S
C855 O844 1.279 . S
C855 O845 1.250 . S
C856 O846 1.264 . S
C856 O850 1.248 . S
C857 O847 1.260 . S
C857 O851 1.253 . S
C858 O849 1.279 . S
C858 O852 1.250 . S
O859 Mg841 2.030 . S
O859 C853 1.248 . S
O860 Mg843 2.079 . S
O860 C853 1.264 . S
O861 Mg862 1.990 . S
O861 C875 1.253 . S
Mg862 O861 1.990 . S
Mg862 O865 2.180 . S
Mg862 O866 2.117 . S
Mg862 O880 2.030 . S
O863 Mg864 2.072 . S
O863 C875 1.260 . S
Mg864 O863 2.072 . S
Mg864 O865 2.099 . S
Mg864 O867 2.079 1_554 S
Mg864 O868 2.072 1_554 S
Mg864 O870 2.099 . S
Mg864 O881 2.079 . S
O865 Mg862 2.180 . S
O865 Mg864 2.099 . S
O865 C876 1.279 . S
O866 Mg862 2.117 . S
O866 C876 1.250 . S
O867 Mg864 2.079 1_556 S
O867 C877 1.264 . S
O868 Mg864 2.072 1_556 S
O868 C878 1.260 . S
Mg869 O870 2.180 1_556 S
Mg869 O871 2.030 . S
Mg869 O872 1.990 . S
Mg869 O873 2.117 1_556 S
O870 Mg864 2.099 . S
O870 Mg869 2.180 1_554 S
O870 C879 1.279 . S
O871 Mg869 2.030 . S
O871 C877 1.248 . S
O872 Mg869 1.990 . S
O872 C878 1.253 . S
O873 Mg869 2.117 1_554 S
O873 C879 1.250 . S
C874 O880 1.248 . S
C874 O881 1.264 . S
C875 O861 1.253 . S
C875 O863 1.260 . S
C876 O865 1.279 . S
C876 O866 1.250 . S
C877 O867 1.264 . S
C877 O871 1.248 . S
C878 O868 1.260 . S
C878 O872 1.253 . S
C879 O870 1.279 . S
C879 O873 1.250 . S
O880 Mg862 2.030 . S
O880 C874 1.248 . S
O881 Mg864 2.079 . S
O881 C874 1.264 . S
O882 Mg883 1.990 . S
O882 C896 1.253 . S
Mg883 O882 1.990 . S
Mg883 O886 2.180 . S
Mg883 O887 2.117 1_655 S
Mg883 O901 2.030 . S
O884 Mg885 2.072 . S
O884 C896 1.260 . S
Mg885 O884 2.072 . S
Mg885 O886 2.099 . S
Mg885 O888 2.079 . S
Mg885 O889 2.072 . S
Mg885 O891 2.099 . S
Mg885 O902 2.079 . S
O886 Mg883 2.180 . S
O886 Mg885 2.099 . S
O886 C897 1.279 . S
O887 Mg883 2.117 1_455 S
O887 C897 1.250 1_455 S
O888 Mg885 2.079 . S
O888 C898 1.264 . S
O889 Mg885 2.072 . S
O889 C899 1.260 . S
Mg890 O891 2.180 . S
Mg890 O892 2.030 . S
Mg890 O893 1.990 . S
Mg890 O894 2.117 . S
O891 Mg885 2.099 . S
O891 Mg890 2.180 . S
O891 C900 1.279 . S
O892 Mg890 2.030 . S
O892 C898 1.248 . S
O893 Mg890 1.990 . S
O893 C899 1.253 . S
O894 Mg890 2.117 . S
O894 C900 1.250 . S
C895 O901 1.248 . S
C895 O902 1.264 . S
C896 O882 1.253 . S
C896 O884 1.260 . S
C897 O886 1.279 . S
C897 O887 1.250 1_655 S
C898 O888 1.264 . S
C898 O892 1.248 . S
C899 O889 1.260 . S
C899 O893 1.253 . S
C900 O891 1.279 . S
C900 O894 1.250 . S
O901 Mg883 2.030 . S
O901 C895 1.248 . S
O902 Mg885 2.079 . S
O902 C895 1.264 . S
O903 Mg904 1.990 . S
O903 C917 1.253 . S
Mg904 O903 1.990 . S
Mg904 O907 2.180 . S
Mg904 O908 2.117 . S
Mg904 O922 2.030 . S
O905 Mg906 2.072 . S
O905 C917 1.260 . S
Mg906 O905 2.072 . S
Mg906 O907 2.099 . S
Mg906 O909 2.079 . S
Mg906 O910 2.072 . S
Mg906 O912 2.099 . S
Mg906 O923 2.079 . S
O907 Mg904 2.180 . S
O907 Mg906 2.099 . S
O907 C918 1.279 . S
O908 Mg904 2.117 . S
O908 C918 1.250 . S
O909 Mg906 2.079 . S
O909 C919 1.264 . S
O910 Mg906 2.072 . S
O910 C920 1.260 . S
Mg911 O912 2.180 . S
Mg911 O913 2.030 . S
Mg911 O914 1.990 . S
Mg911 O915 2.117 . S
O912 Mg906 2.099 . S
O912 Mg911 2.180 . S
O912 C921 1.279 . S
O913 Mg911 2.030 . S
O913 C919 1.248 . S
O914 Mg911 1.990 . S
O914 C920 1.253 . S
O915 Mg911 2.117 . S
O915 C921 1.250 . S
C916 O922 1.248 . S
C916 O923 1.264 . S
C917 O903 1.253 . S
C917 O905 1.260 . S
C918 O907 1.279 . S
C918 O908 1.250 . S
C919 O909 1.264 . S
C919 O913 1.248 . S
C920 O910 1.260 . S
C920 O914 1.253 . S
C921 O912 1.279 . S
C921 O915 1.250 . S
O922 Mg904 2.030 . S
O922 C916 1.248 . S
O923 Mg906 2.079 . S
O923 C916 1.264 . S
O924 Mg925 1.990 . S
O924 C938 1.253 . S
Mg925 O924 1.990 . S
Mg925 O928 2.180 . S
Mg925 O929 2.117 1_455 S
Mg925 O943 2.030 . S
O926 Mg927 2.072 . S
O926 C938 1.260 . S
Mg927 O926 2.072 . S
Mg927 O928 2.099 . S
Mg927 O930 2.079 . S
Mg927 O931 2.072 . S
Mg927 O933 2.099 . S
Mg927 O944 2.079 . S
O928 Mg925 2.180 . S
O928 Mg927 2.099 . S
O928 C939 1.279 . S
O929 Mg925 2.117 1_655 S
O929 C939 1.250 1_655 S
O930 Mg927 2.079 . S
O930 C940 1.264 . S
O931 Mg927 2.072 . S
O931 C941 1.260 . S
Mg932 O933 2.180 . S
Mg932 O934 2.030 . S
Mg932 O935 1.990 . S
Mg932 O936 2.117 . S
O933 Mg927 2.099 . S
O933 Mg932 2.180 . S
O933 C942 1.279 . S
O934 Mg932 2.030 . S
O934 C940 1.248 . S
O935 Mg932 1.990 . S
O935 C941 1.253 . S
O936 Mg932 2.117 . S
O936 C942 1.250 . S
C937 O943 1.248 . S
C937 O944 1.264 . S
C938 O924 1.253 . S
C938 O926 1.260 . S
C939 O928 1.279 . S
C939 O929 1.250 1_455 S
C940 O930 1.264 . S
C940 O934 1.248 . S
C941 O931 1.260 . S
C941 O935 1.253 . S
C942 O933 1.279 . S
C942 O936 1.250 . S
O943 Mg925 2.030 . S
O943 C937 1.248 . S
O944 Mg927 2.079 . S
O944 C937 1.264 . S
O945 Mg946 1.990 . S
O945 C959 1.253 . S
Mg946 O945 1.990 . S
Mg946 O949 2.180 . S
Mg946 O950 2.117 . S
Mg946 O964 2.030 . S
O947 Mg948 2.072 . S
O947 C959 1.260 . S
Mg948 O947 2.072 . S
Mg948 O949 2.099 . S
Mg948 O951 2.079 . S
Mg948 O952 2.072 . S
Mg948 O954 2.099 . S
Mg948 O965 2.079 . S
O949 Mg946 2.180 . S
O949 Mg948 2.099 . S
O949 C960 1.279 . S
O950 Mg946 2.117 . S
O950 C960 1.250 . S
O951 Mg948 2.079 . S
O951 C961 1.264 . S
O952 Mg948 2.072 . S
O952 C962 1.260 . S
Mg953 O954 2.180 . S
Mg953 O955 2.030 . S
Mg953 O956 1.990 . S
Mg953 O957 2.117 . S
O954 Mg948 2.099 . S
O954 Mg953 2.180 . S
O954 C963 1.279 . S
O955 Mg953 2.030 . S
O955 C961 1.248 . S
O956 Mg953 1.990 . S
O956 C962 1.253 . S
O957 Mg953 2.117 . S
O957 C963 1.250 . S
C958 O964 1.248 . S
C958 O965 1.264 . S
C959 O945 1.253 . S
C959 O947 1.260 . S
C960 O949 1.279 . S
C960 O950 1.250 . S
C961 O951 1.264 . S
C961 O955 1.248 . S
C962 O952 1.260 . S
C962 O956 1.253 . S
C963 O954 1.279 . S
C963 O957 1.250 . S
O964 Mg946 2.030 . S
O964 C958 1.248 . S
O965 Mg948 2.079 . S
O965 C958 1.264 . S
O966 Mg967 1.990 . S
O966 C980 1.253 . S
Mg967 O966 1.990 . S
Mg967 O970 2.180 . S
Mg967 O971 2.117 1_655 S
Mg967 O985 2.030 . S
O968 Mg969 2.072 . S
O968 C980 1.260 . S
Mg969 O968 2.072 . S
Mg969 O970 2.099 . S
Mg969 O972 2.079 . S
Mg969 O973 2.072 . S
Mg969 O975 2.099 . S
Mg969 O986 2.079 . S
O970 Mg967 2.180 . S
O970 Mg969 2.099 . S
O970 C981 1.279 . S
O971 Mg967 2.117 1_455 S
O971 C981 1.250 1_455 S
O972 Mg969 2.079 . S
O972 C982 1.264 . S
O973 Mg969 2.072 . S
O973 C983 1.260 . S
Mg974 O975 2.180 . S
Mg974 O976 2.030 . S
Mg974 O977 1.990 . S
Mg974 O978 2.117 . S
O975 Mg969 2.099 . S
O975 Mg974 2.180 . S
O975 C984 1.279 . S
O976 Mg974 2.030 . S
O976 C982 1.248 . S
O977 Mg974 1.990 . S
O977 C983 1.253 . S
O978 Mg974 2.117 . S
O978 C984 1.250 . S
C979 O985 1.248 . S
C979 O986 1.264 . S
C980 O966 1.253 . S
C980 O968 1.260 . S
C981 O970 1.279 . S
C981 O971 1.250 1_655 S
C982 O972 1.264 . S
C982 O976 1.248 . S
C983 O973 1.260 . S
C983 O977 1.253 . S
C984 O975 1.279 . S
C984 O978 1.250 . S
O985 Mg967 2.030 . S
O985 C979 1.248 . S
O986 Mg969 2.079 . S
O986 C979 1.264 . S
O987 Mg988 1.990 . S
O987 C1001 1.253 . S
Mg988 O987 1.990 . S
Mg988 O991 2.180 . S
Mg988 O992 2.117 . S
Mg988 O1006 2.030 . S
O989 Mg990 2.072 . S
O989 C1001 1.260 . S
Mg990 O989 2.072 . S
Mg990 O991 2.099 . S
Mg990 O993 2.079 . S
Mg990 O994 2.072 . S
Mg990 O996 2.099 . S
Mg990 O1007 2.079 . S
O991 Mg988 2.180 . S
O991 Mg990 2.099 . S
O991 C1002 1.279 . S
O992 Mg988 2.117 . S
O992 C1002 1.250 . S
O993 Mg990 2.079 . S
O993 C1003 1.264 . S
O994 Mg990 2.072 . S
O994 C1004 1.260 . S
Mg995 O996 2.180 . S
Mg995 O997 2.030 . S
Mg995 O998 1.990 . S
Mg995 O999 2.117 . S
O996 Mg990 2.099 . S
O996 Mg995 2.180 . S
O996 C1005 1.279 . S
O997 Mg995 2.030 . S
O997 C1003 1.248 . S
O998 Mg995 1.990 . S
O998 C1004 1.253 . S
O999 Mg995 2.117 . S
O999 C1005 1.250 . S
C1000 O1006 1.248 . S
C1000 O1007 1.264 . S
C1001 O987 1.253 . S
C1001 O989 1.260 . S
C1002 O991 1.279 . S
C1002 O992 1.250 . S
C1003 O993 1.264 . S
C1003 O997 1.248 . S
C1004 O994 1.260 . S
C1004 O998 1.253 . S
C1005 O996 1.279 . S
C1005 O999 1.250 . S
O1006 Mg988 2.030 . S
O1006 C1000 1.248 . S
O1007 Mg990 2.079 . S
O1007 C1000 1.264 . S
O1008 Mg1009 1.990 . S
O1008 C1022 1.253 . S
Mg1009 O1008 1.990 . S
Mg1009 O1012 2.180 . S
Mg1009 O1013 2.117 . S
Mg1009 O1027 2.030 . S
O1010 Mg1011 2.072 . S
O1010 C1022 1.260 . S
Mg1011 O1010 2.072 . S
Mg1011 O1012 2.099 . S
Mg1011 O1014 2.079 . S
Mg1011 O1015 2.072 . S
Mg1011 O1017 2.099 . S
Mg1011 O1028 2.079 . S
O1012 Mg1009 2.180 . S
O1012 Mg1011 2.099 . S
O1012 C1023 1.279 . S
O1013 Mg1009 2.117 . S
O1013 C1023 1.250 . S
O1014 Mg1011 2.079 . S
O1014 C1024 1.264 . S
O1015 Mg1011 2.072 . S
O1015 C1025 1.260 . S
Mg1016 O1017 2.180 . S
Mg1016 O1018 2.030 . S
Mg1016 O1019 1.990 . S
Mg1016 O1020 2.117 . S
O1017 Mg1011 2.099 . S
O1017 Mg1016 2.180 . S
O1017 C1026 1.279 . S
O1018 Mg1016 2.030 . S
O1018 C1024 1.248 . S
O1019 Mg1016 1.990 . S
O1019 C1025 1.253 . S
O1020 Mg1016 2.117 . S
O1020 C1026 1.250 . S
C1021 O1027 1.248 . S
C1021 O1028 1.264 . S
C1022 O1008 1.253 . S
C1022 O1010 1.260 . S
C1023 O1012 1.279 . S
C1023 O1013 1.250 . S
C1024 O1014 1.264 . S
C1024 O1018 1.248 . S
C1025 O1015 1.260 . S
C1025 O1019 1.253 . S
C1026 O1017 1.279 . S
C1026 O1020 1.250 . S
O1027 Mg1009 2.030 . S
O1027 C1021 1.248 . S
O1028 Mg1011 2.079 . S
O1028 C1021 1.264 . S
O1029 Mg1030 1.990 . S
O1029 C1043 1.253 . S
Mg1030 O1029 1.990 . S
Mg1030 O1033 2.180 . S
Mg1030 O1034 2.117 1_554 S
Mg1030 O1048 2.030 . S
O1031 Mg1032 2.072 . S
O1031 C1043 1.260 . S
Mg1032 O1031 2.072 . S
Mg1032 O1033 2.099 . S
Mg1032 O1035 2.079 . S
Mg1032 O1036 2.072 . S
Mg1032 O1038 2.099 . S
Mg1032 O1049 2.079 . S
O1033 Mg1030 2.180 . S
O1033 Mg1032 2.099 . S
O1033 C1044 1.279 . S
O1034 Mg1030 2.117 1_556 S
O1034 C1044 1.250 1_556 S
O1035 Mg1032 2.079 . S
O1035 C1045 1.264 . S
O1036 Mg1032 2.072 . S
O1036 C1046 1.260 . S
Mg1037 O1038 2.180 . S
Mg1037 O1039 2.030 . S
Mg1037 O1040 1.990 . S
Mg1037 O1041 2.117 . S
O1038 Mg1032 2.099 . S
O1038 Mg1037 2.180 . S
O1038 C1047 1.279 . S
O1039 Mg1037 2.030 . S
O1039 C1045 1.248 . S
O1040 Mg1037 1.990 . S
O1040 C1046 1.253 . S
O1041 Mg1037 2.117 . S
O1041 C1047 1.250 . S
C1042 O1048 1.248 . S
C1042 O1049 1.264 . S
C1043 O1029 1.253 . S
C1043 O1031 1.260 . S
C1044 O1033 1.279 . S
C1044 O1034 1.250 1_554 S
C1045 O1035 1.264 . S
C1045 O1039 1.248 . S
C1046 O1036 1.260 . S
C1046 O1040 1.253 . S
C1047 O1038 1.279 . S
C1047 O1041 1.250 . S
O1048 Mg1030 2.030 . S
O1048 C1042 1.248 . S
O1049 Mg1032 2.079 . S
O1049 C1042 1.264 . S
O1050 Mg1051 1.990 . S
O1050 C1064 1.253 . S
Mg1051 O1050 1.990 . S
Mg1051 O1054 2.180 . S
Mg1051 O1055 2.117 . S
Mg1051 O1069 2.030 . S
O1052 Mg1053 2.072 . S
O1052 C1064 1.260 . S
Mg1053 O1052 2.072 . S
Mg1053 O1054 2.099 . S
Mg1053 O1056 2.079 1_655 S
Mg1053 O1057 2.072 1_655 S
Mg1053 O1059 2.099 . S
Mg1053 O1070 2.079 . S
O1054 Mg1051 2.180 . S
O1054 Mg1053 2.099 . S
O1054 C1065 1.279 . S
O1055 Mg1051 2.117 . S
O1055 C1065 1.250 . S
O1056 Mg1053 2.079 1_455 S
O1056 C1066 1.264 . S
O1057 Mg1053 2.072 1_455 S
O1057 C1067 1.260 . S
Mg1058 O1059 2.180 1_455 S
Mg1058 O1060 2.030 . S
Mg1058 O1061 1.990 . S
Mg1058 O1062 2.117 1_455 S
O1059 Mg1053 2.099 . S
O1059 Mg1058 2.180 1_655 S
O1059 C1068 1.279 . S
O1060 Mg1058 2.030 . S
O1060 C1066 1.248 . S
O1061 Mg1058 1.990 . S
O1061 C1067 1.253 . S
O1062 Mg1058 2.117 1_655 S
O1062 C1068 1.250 . S
C1063 O1069 1.248 . S
C1063 O1070 1.264 . S
C1064 O1050 1.253 . S
C1064 O1052 1.260 . S
C1065 O1054 1.279 . S
C1065 O1055 1.250 . S
C1066 O1056 1.264 . S
C1066 O1060 1.248 . S
C1067 O1057 1.260 . S
C1067 O1061 1.253 . S
C1068 O1059 1.279 . S
C1068 O1062 1.250 . S
O1069 Mg1051 2.030 . S
O1069 C1063 1.248 . S
O1070 Mg1053 2.079 . S
O1070 C1063 1.264 . S
O1071 Mg1072 1.990 . S
O1071 C1085 1.253 . S
Mg1072 O1071 1.990 . S
Mg1072 O1075 2.180 . S
Mg1072 O1076 2.117 . S
Mg1072 O1090 2.030 . S
O1073 Mg1074 2.072 . S
O1073 C1085 1.260 . S
Mg1074 O1073 2.072 . S
Mg1074 O1075 2.099 . S
Mg1074 O1077 2.079 . S
Mg1074 O1078 2.072 . S
Mg1074 O1080 2.099 . S
Mg1074 O1091 2.079 . S
O1075 Mg1072 2.180 . S
O1075 Mg1074 2.099 . S
O1075 C1086 1.279 . S
O1076 Mg1072 2.117 . S
O1076 C1086 1.250 . S
O1077 Mg1074 2.079 . S
O1077 C1087 1.264 . S
O1078 Mg1074 2.072 . S
O1078 C1088 1.260 . S
Mg1079 O1080 2.180 . S
Mg1079 O1081 2.030 . S
Mg1079 O1082 1.990 . S
Mg1079 O1083 2.117 . S
O1080 Mg1074 2.099 . S
O1080 Mg1079 2.180 . S
O1080 C1089 1.279 . S
O1081 Mg1079 2.030 . S
O1081 C1087 1.248 . S
O1082 Mg1079 1.990 . S
O1082 C1088 1.253 . S
O1083 Mg1079 2.117 . S
O1083 C1089 1.250 . S
C1084 O1090 1.248 . S
C1084 O1091 1.264 . S
C1085 O1071 1.253 . S
C1085 O1073 1.260 . S
C1086 O1075 1.279 . S
C1086 O1076 1.250 . S
C1087 O1077 1.264 . S
C1087 O1081 1.248 . S
C1088 O1078 1.260 . S
C1088 O1082 1.253 . S
C1089 O1080 1.279 . S
C1089 O1083 1.250 . S
O1090 Mg1072 2.030 . S
O1090 C1084 1.248 . S
O1091 Mg1074 2.079 . S
O1091 C1084 1.264 . S
O1092 Mg1093 1.990 . S
O1092 C1106 1.253 . S
Mg1093 O1092 1.990 . S
Mg1093 O1096 2.180 . S
Mg1093 O1097 2.117 . S
Mg1093 O1111 2.030 . S
O1094 Mg1095 2.072 . S
O1094 C1106 1.260 . S
Mg1095 O1094 2.072 . S
Mg1095 O1096 2.099 . S
Mg1095 O1098 2.079 . S
Mg1095 O1099 2.072 . S
Mg1095 O1101 2.099 . S
Mg1095 O1112 2.079 . S
O1096 Mg1093 2.180 . S
O1096 Mg1095 2.099 . S
O1096 C1107 1.279 . S
O1097 Mg1093 2.117 . S
O1097 C1107 1.250 . S
O1098 Mg1095 2.079 . S
O1098 C1108 1.264 . S
O1099 Mg1095 2.072 . S
O1099 C1109 1.260 . S
Mg1100 O1101 2.180 . S
Mg1100 O1102 2.030 . S
Mg1100 O1103 1.990 . S
Mg1100 O1104 2.117 . S
O1101 Mg1095 2.099 . S
O1101 Mg1100 2.180 . S
O1101 C1110 1.279 . S
O1102 Mg1100 2.030 . S
O1102 C1108 1.248 . S
O1103 Mg1100 1.990 . S
O1103 C1109 1.253 . S
O1104 Mg1100 2.117 . S
O1104 C1110 1.250 . S
C1105 O1111 1.248 . S
C1105 O1112 1.264 . S
C1106 O1092 1.253 . S
C1106 O1094 1.260 . S
C1107 O1096 1.279 . S
C1107 O1097 1.250 . S
C1108 O1098 1.264 . S
C1108 O1102 1.248 . S
C1109 O1099 1.260 . S
C1109 O1103 1.253 . S
C1110 O1101 1.279 . S
C1110 O1104 1.250 . S
O1111 Mg1093 2.030 . S
O1111 C1105 1.248 . S
O1112 Mg1095 2.079 . S
O1112 C1105 1.264 . S
O1113 Mg1114 1.990 . S
O1113 C1127 1.253 . S
Mg1114 O1113 1.990 . S
Mg1114 O1117 2.180 . S
Mg1114 O1118 2.117 1_556 S
Mg1114 O1132 2.030 . S
O1115 Mg1116 2.072 . S
O1115 C1127 1.260 . S
Mg1116 O1115 2.072 . S
Mg1116 O1117 2.099 . S
Mg1116 O1119 2.079 . S
Mg1116 O1120 2.072 . S
Mg1116 O1122 2.099 . S
Mg1116 O1133 2.079 . S
O1117 Mg1114 2.180 . S
O1117 Mg1116 2.099 . S
O1117 C1128 1.279 . S
O1118 Mg1114 2.117 1_554 S
O1118 C1128 1.250 1_554 S
O1119 Mg1116 2.079 . S
O1119 C1129 1.264 . S
O1120 Mg1116 2.072 . S
O1120 C1130 1.260 . S
Mg1121 O1122 2.180 . S
Mg1121 O1123 2.030 . S
Mg1121 O1124 1.990 . S
Mg1121 O1125 2.117 . S
O1122 Mg1116 2.099 . S
O1122 Mg1121 2.180 . S
O1122 C1131 1.279 . S
O1123 Mg1121 2.030 . S
O1123 C1129 1.248 . S
O1124 Mg1121 1.990 . S
O1124 C1130 1.253 . S
O1125 Mg1121 2.117 . S
O1125 C1131 1.250 . S
C1126 O1132 1.248 . S
C1126 O1133 1.264 . S
C1127 O1113 1.253 . S
C1127 O1115 1.260 . S
C1128 O1117 1.279 . S
C1128 O1118 1.250 1_556 S
C1129 O1119 1.264 . S
C1129 O1123 1.248 . S
C1130 O1120 1.260 . S
C1130 O1124 1.253 . S
C1131 O1122 1.279 . S
C1131 O1125 1.250 . S
O1132 Mg1114 2.030 . S
O1132 C1126 1.248 . S
O1133 Mg1116 2.079 . S
O1133 C1126 1.264 . S
O1134 Mg1135 1.990 . S
O1134 C1148 1.253 . S
Mg1135 O1134 1.990 . S
Mg1135 O1138 2.180 . S
Mg1135 O1139 2.117 . S
Mg1135 O1153 2.030 . S
O1136 Mg1137 2.072 . S
O1136 C1148 1.260 . S
Mg1137 O1136 2.072 . S
Mg1137 O1138 2.099 . S
Mg1137 O1140 2.079 1_655 S
Mg1137 O1141 2.072 1_655 S
Mg1137 O1143 2.099 . S
Mg1137 O1154 2.079 . S
O1138 Mg1135 2.180 . S
O1138 Mg1137 2.099 . S
O1138 C1149 1.279 . S
O1139 Mg1135 2.117 . S
O1139 C1149 1.250 . S
O1140 Mg1137 2.079 1_455 S
O1140 C1150 1.264 . S
O1141 Mg1137 2.072 1_455 S
O1141 C1151 1.260 . S
Mg1142 O1143 2.180 1_455 S
Mg1142 O1144 2.030 . S
Mg1142 O1145 1.990 . S
Mg1142 O1146 2.117 1_455 S
O1143 Mg1137 2.099 . S
O1143 Mg1142 2.180 1_655 S
O1143 C1152 1.279 . S
O1144 Mg1142 2.030 . S
O1144 C1150 1.248 . S
O1145 Mg1142 1.990 . S
O1145 C1151 1.253 . S
O1146 Mg1142 2.117 1_655 S
O1146 C1152 1.250 . S
C1147 O1153 1.248 . S
C1147 O1154 1.264 . S
C1148 O1134 1.253 . S
C1148 O1136 1.260 . S
C1149 O1138 1.279 . S
C1149 O1139 1.250 . S
C1150 O1140 1.264 . S
C1150 O1144 1.248 . S
C1151 O1141 1.260 . S
C1151 O1145 1.253 . S
C1152 O1143 1.279 . S
C1152 O1146 1.250 . S
O1153 Mg1135 2.030 . S
O1153 C1147 1.248 . S
O1154 Mg1137 2.079 . S
O1154 C1147 1.264 . S
O1155 Mg1156 1.990 . S
O1155 C1169 1.253 . S
Mg1156 O1155 1.990 . S
Mg1156 O1159 2.180 . S
Mg1156 O1160 2.117 . S
Mg1156 O1174 2.030 . S
O1157 Mg1158 2.072 . S
O1157 C1169 1.260 . S
Mg1158 O1157 2.072 . S
Mg1158 O1159 2.099 . S
Mg1158 O1161 2.079 . S
Mg1158 O1162 2.072 . S
Mg1158 O1164 2.099 . S
Mg1158 O1175 2.079 . S
O1159 Mg1156 2.180 . S
O1159 Mg1158 2.099 . S
O1159 C1170 1.279 . S
O1160 Mg1156 2.117 . S
O1160 C1170 1.250 . S
O1161 Mg1158 2.079 . S
O1161 C1171 1.264 . S
O1162 Mg1158 2.072 . S
O1162 C1172 1.260 . S
Mg1163 O1164 2.180 . S
Mg1163 O1165 2.030 . S
Mg1163 O1166 1.990 . S
Mg1163 O1167 2.117 . S
O1164 Mg1158 2.099 . S
O1164 Mg1163 2.180 . S
O1164 C1173 1.279 . S
O1165 Mg1163 2.030 . S
O1165 C1171 1.248 . S
O1166 Mg1163 1.990 . S
O1166 C1172 1.253 . S
O1167 Mg1163 2.117 . S
O1167 C1173 1.250 . S
C1168 O1174 1.248 . S
C1168 O1175 1.264 . S
C1169 O1155 1.253 . S
C1169 O1157 1.260 . S
C1170 O1159 1.279 . S
C1170 O1160 1.250 . S
C1171 O1161 1.264 . S
C1171 O1165 1.248 . S
C1172 O1162 1.260 . S
C1172 O1166 1.253 . S
C1173 O1164 1.279 . S
C1173 O1167 1.250 . S
O1174 Mg1156 2.030 . S
O1174 C1168 1.248 . S
O1175 Mg1158 2.079 . S
O1175 C1168 1.264 . S
O1176 Mg1177 1.990 . S
O1176 C1190 1.253 . S
Mg1177 O1176 1.990 . S
Mg1177 O1180 2.180 . S
Mg1177 O1181 2.117 . S
Mg1177 O1195 2.030 . S
O1178 Mg1179 2.072 . S
O1178 C1190 1.260 . S
Mg1179 O1178 2.072 . S
Mg1179 O1180 2.099 . S
Mg1179 O1182 2.079 . S
Mg1179 O1183 2.072 . S
Mg1179 O1185 2.099 . S
Mg1179 O1196 2.079 . S
O1180 Mg1177 2.180 . S
O1180 Mg1179 2.099 . S
O1180 C1191 1.279 . S
O1181 Mg1177 2.117 . S
O1181 C1191 1.250 . S
O1182 Mg1179 2.079 . S
O1182 C1192 1.264 . S
O1183 Mg1179 2.072 . S
O1183 C1193 1.260 . S
Mg1184 O1185 2.180 . S
Mg1184 O1186 2.030 . S
Mg1184 O1187 1.990 . S
Mg1184 O1188 2.117 . S
O1185 Mg1179 2.099 . S
O1185 Mg1184 2.180 . S
O1185 C1194 1.279 . S
O1186 Mg1184 2.030 . S
O1186 C1192 1.248 . S
O1187 Mg1184 1.990 . S
O1187 C1193 1.253 . S
O1188 Mg1184 2.117 . S
O1188 C1194 1.250 . S
C1189 O1195 1.248 . S
C1189 O1196 1.264 . S
C1190 O1176 1.253 . S
C1190 O1178 1.260 . S
C1191 O1180 1.279 . S
C1191 O1181 1.250 . S
C1192 O1182 1.264 . S
C1192 O1186 1.248 . S
C1193 O1183 1.260 . S
C1193 O1187 1.253 . S
C1194 O1185 1.279 . S
C1194 O1188 1.250 . S
O1195 Mg1177 2.030 . S
O1195 C1189 1.248 . S
O1196 Mg1179 2.079 . S
O1196 C1189 1.264 . S
O1197 Mg1198 1.990 . S
O1197 C1211 1.253 . S
Mg1198 O1197 1.990 . S
Mg1198 O1201 2.180 . S
Mg1198 O1202 2.117 . S
Mg1198 O1216 2.030 . S
O1199 Mg1200 2.072 . S
O1199 C1211 1.260 . S
Mg1200 O1199 2.072 . S
Mg1200 O1201 2.099 . S
Mg1200 O1203 2.079 . S
Mg1200 O1204 2.072 . S
Mg1200 O1206 2.099 . S
Mg1200 O1217 2.079 . S
O1201 Mg1198 2.180 . S
O1201 Mg1200 2.099 . S
O1201 C1212 1.279 . S
O1202 Mg1198 2.117 . S
O1202 C1212 1.250 . S
O1203 Mg1200 2.079 . S
O1203 C1213 1.264 . S
O1204 Mg1200 2.072 . S
O1204 C1214 1.260 . S
Mg1205 O1206 2.180 . S
Mg1205 O1207 2.030 . S
Mg1205 O1208 1.990 . S
Mg1205 O1209 2.117 . S
O1206 Mg1200 2.099 . S
O1206 Mg1205 2.180 . S
O1206 C1215 1.279 . S
O1207 Mg1205 2.030 . S
O1207 C1213 1.248 . S
O1208 Mg1205 1.990 . S
O1208 C1214 1.253 . S
O1209 Mg1205 2.117 . S
O1209 C1215 1.250 . S
C1210 O1216 1.248 . S
C1210 O1217 1.264 . S
C1211 O1197 1.253 . S
C1211 O1199 1.260 . S
C1212 O1201 1.279 . S
C1212 O1202 1.250 . S
C1213 O1203 1.264 . S
C1213 O1207 1.248 . S
C1214 O1204 1.260 . S
C1214 O1208 1.253 . S
C1215 O1206 1.279 . S
C1215 O1209 1.250 . S
O1216 Mg1198 2.030 . S
O1216 C1210 1.248 . S
O1217 Mg1200 2.079 . S
O1217 C1210 1.264 . S
O1218 Mg1219 1.990 . S
O1218 C1232 1.253 . S
Mg1219 O1218 1.990 . S
Mg1219 O1222 2.180 . S
Mg1219 O1223 2.117 . S
Mg1219 O1237 2.030 . S
O1220 Mg1221 2.072 . S
O1220 C1232 1.260 . S
Mg1221 O1220 2.072 . S
Mg1221 O1222 2.099 . S
Mg1221 O1224 2.079 . S
Mg1221 O1225 2.072 . S
Mg1221 O1227 2.099 . S
Mg1221 O1238 2.079 . S
O1222 Mg1219 2.180 . S
O1222 Mg1221 2.099 . S
O1222 C1233 1.279 . S
O1223 Mg1219 2.117 . S
O1223 C1233 1.250 . S
O1224 Mg1221 2.079 . S
O1224 C1234 1.264 . S
O1225 Mg1221 2.072 . S
O1225 C1235 1.260 . S
Mg1226 O1227 2.180 . S
Mg1226 O1228 2.030 . S
Mg1226 O1229 1.990 . S
Mg1226 O1230 2.117 . S
O1227 Mg1221 2.099 . S
O1227 Mg1226 2.180 . S
O1227 C1236 1.279 . S
O1228 Mg1226 2.030 . S
O1228 C1234 1.248 . S
O1229 Mg1226 1.990 . S
O1229 C1235 1.253 . S
O1230 Mg1226 2.117 . S
O1230 C1236 1.250 . S
C1231 O1237 1.248 . S
C1231 O1238 1.264 . S
C1232 O1218 1.253 . S
C1232 O1220 1.260 . S
C1233 O1222 1.279 . S
C1233 O1223 1.250 . S
C1234 O1224 1.264 . S
C1234 O1228 1.248 . S
C1235 O1225 1.260 . S
C1235 O1229 1.253 . S
C1236 O1227 1.279 . S
C1236 O1230 1.250 . S
O1237 Mg1219 2.030 . S
O1237 C1231 1.248 . S
O1238 Mg1221 2.079 . S
O1238 C1231 1.264 . S
O1239 Mg1240 1.990 . S
O1239 C1253 1.253 . S
Mg1240 O1239 1.990 . S
Mg1240 O1243 2.180 . S
Mg1240 O1244 2.117 . S
Mg1240 O1258 2.030 . S
O1241 Mg1242 2.072 . S
O1241 C1253 1.260 . S
Mg1242 O1241 2.072 . S
Mg1242 O1243 2.099 . S
Mg1242 O1245 2.079 . S
Mg1242 O1246 2.072 . S
Mg1242 O1248 2.099 . S
Mg1242 O1259 2.079 . S
O1243 Mg1240 2.180 . S
O1243 Mg1242 2.099 . S
O1243 C1254 1.279 . S
O1244 Mg1240 2.117 . S
O1244 C1254 1.250 . S
O1245 Mg1242 2.079 . S
O1245 C1255 1.264 . S
O1246 Mg1242 2.072 . S
O1246 C1256 1.260 . S
Mg1247 O1248 2.180 . S
Mg1247 O1249 2.030 . S
Mg1247 O1250 1.990 . S
Mg1247 O1251 2.117 . S
O1248 Mg1242 2.099 . S
O1248 Mg1247 2.180 . S
O1248 C1257 1.279 . S
O1249 Mg1247 2.030 . S
O1249 C1255 1.248 . S
O1250 Mg1247 1.990 . S
O1250 C1256 1.253 . S
O1251 Mg1247 2.117 . S
O1251 C1257 1.250 . S
C1252 O1258 1.248 . S
C1252 O1259 1.264 . S
C1253 O1239 1.253 . S
C1253 O1241 1.260 . S
C1254 O1243 1.279 . S
C1254 O1244 1.250 . S
C1255 O1245 1.264 . S
C1255 O1249 1.248 . S
C1256 O1246 1.260 . S
C1256 O1250 1.253 . S
C1257 O1248 1.279 . S
C1257 O1251 1.250 . S
O1258 Mg1240 2.030 . S
O1258 C1252 1.248 . S
O1259 Mg1242 2.079 . S
O1259 C1252 1.264 . S
O1260 Mg1261 1.990 . S
O1260 C1274 1.253 . S
Mg1261 O1260 1.990 . S
Mg1261 O1264 2.180 . S
Mg1261 O1265 2.117 . S
Mg1261 O1279 2.030 . S
O1262 Mg1263 2.072 . S
O1262 C1274 1.260 . S
Mg1263 O1262 2.072 . S
Mg1263 O1264 2.099 . S
Mg1263 O1266 2.079 . S
Mg1263 O1267 2.072 . S
Mg1263 O1269 2.099 . S
Mg1263 O1280 2.079 . S
O1264 Mg1261 2.180 . S
O1264 Mg1263 2.099 . S
O1264 C1275 1.279 . S
O1265 Mg1261 2.117 . S
O1265 C1275 1.250 . S
O1266 Mg1263 2.079 . S
O1266 C1276 1.264 . S
O1267 Mg1263 2.072 . S
O1267 C1277 1.260 . S
Mg1268 O1269 2.180 . S
Mg1268 O1270 2.030 . S
Mg1268 O1271 1.990 . S
Mg1268 O1272 2.117 . S
O1269 Mg1263 2.099 . S
O1269 Mg1268 2.180 . S
O1269 C1278 1.279 . S
O1270 Mg1268 2.030 . S
O1270 C1276 1.248 . S
O1271 Mg1268 1.990 . S
O1271 C1277 1.253 . S
O1272 Mg1268 2.117 . S
O1272 C1278 1.250 . S
C1273 O1279 1.248 . S
C1273 O1280 1.264 . S
C1274 O1260 1.253 . S
C1274 O1262 1.260 . S
C1275 O1264 1.279 . S
C1275 O1265 1.250 . S
C1276 O1266 1.264 . S
C1276 O1270 1.248 . S
C1277 O1267 1.260 . S
C1277 O1271 1.253 . S
C1278 O1269 1.279 . S
C1278 O1272 1.250 . S
O1279 Mg1261 2.030 . S
O1279 C1273 1.248 . S
O1280 Mg1263 2.079 . S
O1280 C1273 1.264 . S
O1281 Mg1282 1.990 . S
O1281 C1295 1.253 . S
Mg1282 O1281 1.990 . S
Mg1282 O1285 2.180 . S
Mg1282 O1286 2.117 . S
Mg1282 O1300 2.030 . S
O1283 Mg1284 2.072 . S
O1283 C1295 1.260 . S
Mg1284 O1283 2.072 . S
Mg1284 O1285 2.099 . S
Mg1284 O1287 2.079 . S
Mg1284 O1288 2.072 . S
Mg1284 O1290 2.099 . S
Mg1284 O1301 2.079 . S
O1285 Mg1282 2.180 . S
O1285 Mg1284 2.099 . S
O1285 C1296 1.279 . S
O1286 Mg1282 2.117 . S
O1286 C1296 1.250 . S
O1287 Mg1284 2.079 . S
O1287 C1297 1.264 . S
O1288 Mg1284 2.072 . S
O1288 C1298 1.260 . S
Mg1289 O1290 2.180 . S
Mg1289 O1291 2.030 . S
Mg1289 O1292 1.990 . S
Mg1289 O1293 2.117 . S
O1290 Mg1284 2.099 . S
O1290 Mg1289 2.180 . S
O1290 C1299 1.279 . S
O1291 Mg1289 2.030 . S
O1291 C1297 1.248 . S
O1292 Mg1289 1.990 . S
O1292 C1298 1.253 . S
O1293 Mg1289 2.117 . S
O1293 C1299 1.250 . S
C1294 O1300 1.248 . S
C1294 O1301 1.264 . S
C1295 O1281 1.253 . S
C1295 O1283 1.260 . S
C1296 O1285 1.279 . S
C1296 O1286 1.250 . S
C1297 O1287 1.264 . S
C1297 O1291 1.248 . S
C1298 O1288 1.260 . S
C1298 O1292 1.253 . S
C1299 O1290 1.279 . S
C1299 O1293 1.250 . S
O1300 Mg1282 2.030 . S
O1300 C1294 1.248 . S
O1301 Mg1284 2.079 . S
O1301 C1294 1.264 . S
O1302 Mg1303 1.990 . S
O1302 C1316 1.253 . S
Mg1303 O1302 1.990 . S
Mg1303 O1306 2.180 . S
Mg1303 O1307 2.117 . S
Mg1303 O1321 2.030 . S
O1304 Mg1305 2.072 . S
O1304 C1316 1.260 . S
Mg1305 O1304 2.072 . S
Mg1305 O1306 2.099 . S
Mg1305 O1308 2.079 . S
Mg1305 O1309 2.072 . S
Mg1305 O1311 2.099 . S
Mg1305 O1322 2.079 . S
O1306 Mg1303 2.180 . S
O1306 Mg1305 2.099 . S
O1306 C1317 1.279 . S
O1307 Mg1303 2.117 . S
O1307 C1317 1.250 . S
O1308 Mg1305 2.079 . S
O1308 C1318 1.264 . S
O1309 Mg1305 2.072 . S
O1309 C1319 1.260 . S
Mg1310 O1311 2.180 . S
Mg1310 O1312 2.030 . S
Mg1310 O1313 1.990 . S
Mg1310 O1314 2.117 . S
O1311 Mg1305 2.099 . S
O1311 Mg1310 2.180 . S
O1311 C1320 1.279 . S
O1312 Mg1310 2.030 . S
O1312 C1318 1.248 . S
O1313 Mg1310 1.990 . S
O1313 C1319 1.253 . S
O1314 Mg1310 2.117 . S
O1314 C1320 1.250 . S
C1315 O1321 1.248 . S
C1315 O1322 1.264 . S
C1316 O1302 1.253 . S
C1316 O1304 1.260 . S
C1317 O1306 1.279 . S
C1317 O1307 1.250 . S
C1318 O1308 1.264 . S
C1318 O1312 1.248 . S
C1319 O1309 1.260 . S
C1319 O1313 1.253 . S
C1320 O1311 1.279 . S
C1320 O1314 1.250 . S
O1321 Mg1303 2.030 . S
O1321 C1315 1.248 . S
O1322 Mg1305 2.079 . S
O1322 C1315 1.264 . S
O1323 Mg1324 1.990 . S
O1323 C1337 1.253 . S
Mg1324 O1323 1.990 . S
Mg1324 O1327 2.180 . S
Mg1324 O1328 2.117 . S
Mg1324 O1342 2.030 . S
O1325 Mg1326 2.072 . S
O1325 C1337 1.260 . S
Mg1326 O1325 2.072 . S
Mg1326 O1327 2.099 . S
Mg1326 O1329 2.079 . S
Mg1326 O1330 2.072 . S
Mg1326 O1332 2.099 . S
Mg1326 O1343 2.079 . S
O1327 Mg1324 2.180 . S
O1327 Mg1326 2.099 . S
O1327 C1338 1.279 . S
O1328 Mg1324 2.117 . S
O1328 C1338 1.250 . S
O1329 Mg1326 2.079 . S
O1329 C1339 1.264 . S
O1330 Mg1326 2.072 . S
O1330 C1340 1.260 . S
Mg1331 O1332 2.180 . S
Mg1331 O1333 2.030 . S
Mg1331 O1334 1.990 . S
Mg1331 O1335 2.117 . S
O1332 Mg1326 2.099 . S
O1332 Mg1331 2.180 . S
O1332 C1341 1.279 . S
O1333 Mg1331 2.030 . S
O1333 C1339 1.248 . S
O1334 Mg1331 1.990 . S
O1334 C1340 1.253 . S
O1335 Mg1331 2.117 . S
O1335 C1341 1.250 . S
C1336 O1342 1.248 . S
C1336 O1343 1.264 . S
C1337 O1323 1.253 . S
C1337 O1325 1.260 . S
C1338 O1327 1.279 . S
C1338 O1328 1.250 . S
C1339 O1329 1.264 . S
C1339 O1333 1.248 . S
C1340 O1330 1.260 . S
C1340 O1334 1.253 . S
C1341 O1332 1.279 . S
C1341 O1335 1.250 . S
O1342 Mg1324 2.030 . S
O1342 C1336 1.248 . S
O1343 Mg1326 2.079 . S
O1343 C1336 1.264 . S
O1344 Mg1345 1.990 . S
O1344 C1358 1.253 . S
Mg1345 O1344 1.990 . S
Mg1345 O1348 2.180 . S
Mg1345 O1349 2.117 . S
Mg1345 O1363 2.030 . S
O1346 Mg1347 2.072 . S
O1346 C1358 1.260 . S
Mg1347 O1346 2.072 . S
Mg1347 O1348 2.099 . S
Mg1347 O1350 2.079 . S
Mg1347 O1351 2.072 . S
Mg1347 O1353 2.099 . S
Mg1347 O1364 2.079 . S
O1348 Mg1345 2.180 . S
O1348 Mg1347 2.099 . S
O1348 C1359 1.279 . S
O1349 Mg1345 2.117 . S
O1349 C1359 1.250 . S
O1350 Mg1347 2.079 . S
O1350 C1360 1.264 . S
O1351 Mg1347 2.072 . S
O1351 C1361 1.260 . S
Mg1352 O1353 2.180 . S
Mg1352 O1354 2.030 . S
Mg1352 O1355 1.990 . S
Mg1352 O1356 2.117 . S
O1353 Mg1347 2.099 . S
O1353 Mg1352 2.180 . S
O1353 C1362 1.279 . S
O1354 Mg1352 2.030 . S
O1354 C1360 1.248 . S
O1355 Mg1352 1.990 . S
O1355 C1361 1.253 . S
O1356 Mg1352 2.117 . S
O1356 C1362 1.250 . S
C1357 O1363 1.248 . S
C1357 O1364 1.264 . S
C1358 O1344 1.253 . S
C1358 O1346 1.260 . S
C1359 O1348 1.279 . S
C1359 O1349 1.250 . S
C1360 O1350 1.264 . S
C1360 O1354 1.248 . S
C1361 O1351 1.260 . S
C1361 O1355 1.253 . S
C1362 O1353 1.279 . S
C1362 O1356 1.250 . S
O1363 Mg1345 2.030 . S
O1363 C1357 1.248 . S
O1364 Mg1347 2.079 . S
O1364 C1357 1.264 . S
O1365 Mg1366 1.990 . S
O1365 C1379 1.253 . S
Mg1366 O1365 1.990 . S
Mg1366 O1369 2.180 . S
Mg1366 O1370 2.117 . S
Mg1366 O1384 2.030 . S
O1367 Mg1368 2.072 . S
O1367 C1379 1.260 . S
Mg1368 O1367 2.072 . S
Mg1368 O1369 2.099 . S
Mg1368 O1371 2.079 . S
Mg1368 O1372 2.072 . S
Mg1368 O1374 2.099 . S
Mg1368 O1385 2.079 . S
O1369 Mg1366 2.180 . S
O1369 Mg1368 2.099 . S
O1369 C1380 1.279 . S
O1370 Mg1366 2.117 . S
O1370 C1380 1.250 . S
O1371 Mg1368 2.079 . S
O1371 C1381 1.264 . S
O1372 Mg1368 2.072 . S
O1372 C1382 1.260 . S
Mg1373 O1374 2.180 . S
Mg1373 O1375 2.030 . S
Mg1373 O1376 1.990 . S
Mg1373 O1377 2.117 . S
O1374 Mg1368 2.099 . S
O1374 Mg1373 2.180 . S
O1374 C1383 1.279 . S
O1375 Mg1373 2.030 . S
O1375 C1381 1.248 . S
O1376 Mg1373 1.990 . S
O1376 C1382 1.253 . S
O1377 Mg1373 2.117 . S
O1377 C1383 1.250 . S
C1378 O1384 1.248 . S
C1378 O1385 1.264 . S
C1379 O1365 1.253 . S
C1379 O1367 1.260 . S
C1380 O1369 1.279 . S
C1380 O1370 1.250 . S
C1381 O1371 1.264 . S
C1381 O1375 1.248 . S
C1382 O1372 1.260 . S
C1382 O1376 1.253 . S
C1383 O1374 1.279 . S
C1383 O1377 1.250 . S
O1384 Mg1366 2.030 . S
O1384 C1378 1.248 . S
O1385 Mg1368 2.079 . S
O1385 C1378 1.264 . S
O1386 Mg1387 1.990 . S
O1386 C1400 1.253 . S
Mg1387 O1386 1.990 . S
Mg1387 O1390 2.180 . S
Mg1387 O1391 2.117 . S
Mg1387 O1405 2.030 . S
O1388 Mg1389 2.072 . S
O1388 C1400 1.260 . S
Mg1389 O1388 2.072 . S
Mg1389 O1390 2.099 . S
Mg1389 O1392 2.079 . S
Mg1389 O1393 2.072 . S
Mg1389 O1395 2.099 . S
Mg1389 O1406 2.079 . S
O1390 Mg1387 2.180 . S
O1390 Mg1389 2.099 . S
O1390 C1401 1.279 . S
O1391 Mg1387 2.117 . S
O1391 C1401 1.250 . S
O1392 Mg1389 2.079 . S
O1392 C1402 1.264 . S
O1393 Mg1389 2.072 . S
O1393 C1403 1.260 . S
Mg1394 O1395 2.180 . S
Mg1394 O1396 2.030 . S
Mg1394 O1397 1.990 . S
Mg1394 O1398 2.117 . S
O1395 Mg1389 2.099 . S
O1395 Mg1394 2.180 . S
O1395 C1404 1.279 . S
O1396 Mg1394 2.030 . S
O1396 C1402 1.248 . S
O1397 Mg1394 1.990 . S
O1397 C1403 1.253 . S
O1398 Mg1394 2.117 . S
O1398 C1404 1.250 . S
C1399 O1405 1.248 . S
C1399 O1406 1.264 . S
C1400 O1386 1.253 . S
C1400 O1388 1.260 . S
C1401 O1390 1.279 . S
C1401 O1391 1.250 . S
C1402 O1392 1.264 . S
C1402 O1396 1.248 . S
C1403 O1393 1.260 . S
C1403 O1397 1.253 . S
C1404 O1395 1.279 . S
C1404 O1398 1.250 . S
O1405 Mg1387 2.030 . S
O1405 C1399 1.248 . S
O1406 Mg1389 2.079 . S
O1406 C1399 1.264 . S
O1407 Mg1408 1.990 . S
O1407 C1421 1.253 . S
Mg1408 O1407 1.990 . S
Mg1408 O1411 2.180 . S
Mg1408 O1412 2.117 . S
Mg1408 O1426 2.030 . S
O1409 Mg1410 2.072 . S
O1409 C1421 1.260 . S
Mg1410 O1409 2.072 . S
Mg1410 O1411 2.099 . S
Mg1410 O1413 2.079 1_556 S
Mg1410 O1414 2.072 1_556 S
Mg1410 O1416 2.099 . S
Mg1410 O1427 2.079 . S
O1411 Mg1408 2.180 . S
O1411 Mg1410 2.099 . S
O1411 C1422 1.279 . S
O1412 Mg1408 2.117 . S
O1412 C1422 1.250 . S
O1413 Mg1410 2.079 1_554 S
O1413 C1423 1.264 . S
O1414 Mg1410 2.072 1_554 S
O1414 C1424 1.260 . S
Mg1415 O1416 2.180 1_554 S
Mg1415 O1417 2.030 . S
Mg1415 O1418 1.990 . S
Mg1415 O1419 2.117 1_554 S
O1416 Mg1410 2.099 . S
O1416 Mg1415 2.180 1_556 S
O1416 C1425 1.279 . S
O1417 Mg1415 2.030 . S
O1417 C1423 1.248 . S
O1418 Mg1415 1.990 . S
O1418 C1424 1.253 . S
O1419 Mg1415 2.117 1_556 S
O1419 C1425 1.250 . S
C1420 O1426 1.248 . S
C1420 O1427 1.264 . S
C1421 O1407 1.253 . S
C1421 O1409 1.260 . S
C1422 O1411 1.279 . S
C1422 O1412 1.250 . S
C1423 O1413 1.264 . S
C1423 O1417 1.248 . S
C1424 O1414 1.260 . S
C1424 O1418 1.253 . S
C1425 O1416 1.279 . S
C1425 O1419 1.250 . S
O1426 Mg1408 2.030 . S
O1426 C1420 1.248 . S
O1427 Mg1410 2.079 . S
O1427 C1420 1.264 . S
O1428 Mg1429 1.990 . S
O1428 C1442 1.253 . S
Mg1429 O1428 1.990 . S
Mg1429 O1432 2.180 . S
Mg1429 O1433 2.117 . S
Mg1429 O1447 2.030 . S
O1430 Mg1431 2.072 . S
O1430 C1442 1.260 . S
Mg1431 O1430 2.072 . S
Mg1431 O1432 2.099 . S
Mg1431 O1434 2.079 . S
Mg1431 O1435 2.072 . S
Mg1431 O1437 2.099 . S
Mg1431 O1448 2.079 . S
O1432 Mg1429 2.180 . S
O1432 Mg1431 2.099 . S
O1432 C1443 1.279 . S
O1433 Mg1429 2.117 . S
O1433 C1443 1.250 . S
O1434 Mg1431 2.079 . S
O1434 C1444 1.264 . S
O1435 Mg1431 2.072 . S
O1435 C1445 1.260 . S
Mg1436 O1437 2.180 . S
Mg1436 O1438 2.030 . S
Mg1436 O1439 1.990 . S
Mg1436 O1440 2.117 . S
O1437 Mg1431 2.099 . S
O1437 Mg1436 2.180 . S
O1437 C1446 1.279 . S
O1438 Mg1436 2.030 . S
O1438 C1444 1.248 . S
O1439 Mg1436 1.990 . S
O1439 C1445 1.253 . S
O1440 Mg1436 2.117 . S
O1440 C1446 1.250 . S
C1441 O1447 1.248 . S
C1441 O1448 1.264 . S
C1442 O1428 1.253 . S
C1442 O1430 1.260 . S
C1443 O1432 1.279 . S
C1443 O1433 1.250 . S
C1444 O1434 1.264 . S
C1444 O1438 1.248 . S
C1445 O1435 1.260 . S
C1445 O1439 1.253 . S
C1446 O1437 1.279 . S
C1446 O1440 1.250 . S
O1447 Mg1429 2.030 . S
O1447 C1441 1.248 . S
O1448 Mg1431 2.079 . S
O1448 C1441 1.264 . S
O1449 Mg1450 1.990 . S
O1449 C1463 1.253 . S
Mg1450 O1449 1.990 . S
Mg1450 O1453 2.180 . S
Mg1450 O1454 2.117 . S
Mg1450 O1468 2.030 . S
O1451 Mg1452 2.072 . S
O1451 C1463 1.260 . S
Mg1452 O1451 2.072 . S
Mg1452 O1453 2.099 . S
Mg1452 O1455 2.079 1_554 S
Mg1452 O1456 2.072 1_554 S
Mg1452 O1458 2.099 . S
Mg1452 O1469 2.079 . S
O1453 Mg1450 2.180 . S
O1453 Mg1452 2.099 . S
O1453 C1464 1.279 . S
O1454 Mg1450 2.117 . S
O1454 C1464 1.250 . S
O1455 Mg1452 2.079 1_556 S
O1455 C1465 1.264 . S
O1456 Mg1452 2.072 1_556 S
O1456 C1466 1.260 . S
Mg1457 O1458 2.180 1_556 S
Mg1457 O1459 2.030 . S
Mg1457 O1460 1.990 . S
Mg1457 O1461 2.117 1_556 S
O1458 Mg1452 2.099 . S
O1458 Mg1457 2.180 1_554 S
O1458 C1467 1.279 . S
O1459 Mg1457 2.030 . S
O1459 C1465 1.248 . S
O1460 Mg1457 1.990 . S
O1460 C1466 1.253 . S
O1461 Mg1457 2.117 1_554 S
O1461 C1467 1.250 . S
C1462 O1468 1.248 . S
C1462 O1469 1.264 . S
C1463 O1449 1.253 . S
C1463 O1451 1.260 . S
C1464 O1453 1.279 . S
C1464 O1454 1.250 . S
C1465 O1455 1.264 . S
C1465 O1459 1.248 . S
C1466 O1456 1.260 . S
C1466 O1460 1.253 . S
C1467 O1458 1.279 . S
C1467 O1461 1.250 . S
O1468 Mg1450 2.030 . S
O1468 C1462 1.248 . S
O1469 Mg1452 2.079 . S
O1469 C1462 1.264 . S
O1470 Mg1471 1.990 . S
O1470 C1484 1.253 . S
Mg1471 O1470 1.990 . S
Mg1471 O1474 2.180 . S
Mg1471 O1475 2.117 . S
Mg1471 O1489 2.030 . S
O1472 Mg1473 2.072 . S
O1472 C1484 1.260 . S
Mg1473 O1472 2.072 . S
Mg1473 O1474 2.099 . S
Mg1473 O1476 2.079 . S
Mg1473 O1477 2.072 . S
Mg1473 O1479 2.099 . S
Mg1473 O1490 2.079 . S
O1474 Mg1471 2.180 . S
O1474 Mg1473 2.099 . S
O1474 C1485 1.279 . S
O1475 Mg1471 2.117 . S
O1475 C1485 1.250 . S
O1476 Mg1473 2.079 . S
O1476 C1486 1.264 . S
O1477 Mg1473 2.072 . S
O1477 C1487 1.260 . S
Mg1478 O1479 2.180 . S
Mg1478 O1480 2.030 . S
Mg1478 O1481 1.990 . S
Mg1478 O1482 2.117 . S
O1479 Mg1473 2.099 . S
O1479 Mg1478 2.180 . S
O1479 C1488 1.279 . S
O1480 Mg1478 2.030 . S
O1480 C1486 1.248 . S
O1481 Mg1478 1.990 . S
O1481 C1487 1.253 . S
O1482 Mg1478 2.117 . S
O1482 C1488 1.250 . S
C1483 O1489 1.248 . S
C1483 O1490 1.264 . S
C1484 O1470 1.253 . S
C1484 O1472 1.260 . S
C1485 O1474 1.279 . S
C1485 O1475 1.250 . S
C1486 O1476 1.264 . S
C1486 O1480 1.248 . S
C1487 O1477 1.260 . S
C1487 O1481 1.253 . S
C1488 O1479 1.279 . S
C1488 O1482 1.250 . S
O1489 Mg1471 2.030 . S
O1489 C1483 1.248 . S
O1490 Mg1473 2.079 . S
O1490 C1483 1.264 . S
O1491 Mg1492 1.990 . S
O1491 C1505 1.253 . S
Mg1492 O1491 1.990 . S
Mg1492 O1495 2.180 . S
Mg1492 O1496 2.117 1_655 S
Mg1492 O1510 2.030 . S
O1493 Mg1494 2.072 . S
O1493 C1505 1.260 . S
Mg1494 O1493 2.072 . S
Mg1494 O1495 2.099 . S
Mg1494 O1497 2.079 . S
Mg1494 O1498 2.072 . S
Mg1494 O1500 2.099 . S
Mg1494 O1511 2.079 . S
O1495 Mg1492 2.180 . S
O1495 Mg1494 2.099 . S
O1495 C1506 1.279 . S
O1496 Mg1492 2.117 1_455 S
O1496 C1506 1.250 1_455 S
O1497 Mg1494 2.079 . S
O1497 C1507 1.264 . S
O1498 Mg1494 2.072 . S
O1498 C1508 1.260 . S
Mg1499 O1500 2.180 . S
Mg1499 O1501 2.030 . S
Mg1499 O1502 1.990 . S
Mg1499 O1503 2.117 . S
O1500 Mg1494 2.099 . S
O1500 Mg1499 2.180 . S
O1500 C1509 1.279 . S
O1501 Mg1499 2.030 . S
O1501 C1507 1.248 . S
O1502 Mg1499 1.990 . S
O1502 C1508 1.253 . S
O1503 Mg1499 2.117 . S
O1503 C1509 1.250 . S
C1504 O1510 1.248 . S
C1504 O1511 1.264 . S
C1505 O1491 1.253 . S
C1505 O1493 1.260 . S
C1506 O1495 1.279 . S
C1506 O1496 1.250 1_655 S
C1507 O1497 1.264 . S
C1507 O1501 1.248 . S
C1508 O1498 1.260 . S
C1508 O1502 1.253 . S
C1509 O1500 1.279 . S
C1509 O1503 1.250 . S
O1510 Mg1492 2.030 . S
O1510 C1504 1.248 . S
O1511 Mg1494 2.079 . S
O1511 C1504 1.264 . S
O1512 Mg1513 1.990 . S
O1512 C1526 1.253 . S
Mg1513 O1512 1.990 . S
Mg1513 O1516 2.180 . S
Mg1513 O1517 2.117 . S
Mg1513 O1531 2.030 . S
O1514 Mg1515 2.072 . S
O1514 C1526 1.260 . S
Mg1515 O1514 2.072 . S
Mg1515 O1516 2.099 . S
Mg1515 O1518 2.079 . S
Mg1515 O1519 2.072 . S
Mg1515 O1521 2.099 . S
Mg1515 O1532 2.079 . S
O1516 Mg1513 2.180 . S
O1516 Mg1515 2.099 . S
O1516 C1527 1.279 . S
O1517 Mg1513 2.117 . S
O1517 C1527 1.250 . S
O1518 Mg1515 2.079 . S
O1518 C1528 1.264 . S
O1519 Mg1515 2.072 . S
O1519 C1529 1.260 . S
Mg1520 O1521 2.180 . S
Mg1520 O1522 2.030 . S
Mg1520 O1523 1.990 . S
Mg1520 O1524 2.117 . S
O1521 Mg1515 2.099 . S
O1521 Mg1520 2.180 . S
O1521 C1530 1.279 . S
O1522 Mg1520 2.030 . S
O1522 C1528 1.248 . S
O1523 Mg1520 1.990 . S
O1523 C1529 1.253 . S
O1524 Mg1520 2.117 . S
O1524 C1530 1.250 . S
C1525 O1531 1.248 . S
C1525 O1532 1.264 . S
C1526 O1512 1.253 . S
C1526 O1514 1.260 . S
C1527 O1516 1.279 . S
C1527 O1517 1.250 . S
C1528 O1518 1.264 . S
C1528 O1522 1.248 . S
C1529 O1519 1.260 . S
C1529 O1523 1.253 . S
C1530 O1521 1.279 . S
C1530 O1524 1.250 . S
O1531 Mg1513 2.030 . S
O1531 C1525 1.248 . S
O1532 Mg1515 2.079 . S
O1532 C1525 1.264 . S
O1533 Mg1534 1.990 . S
O1533 C1547 1.253 . S
Mg1534 O1533 1.990 . S
Mg1534 O1537 2.180 . S
Mg1534 O1538 2.117 1_556 S
Mg1534 O1552 2.030 . S
O1535 Mg1536 2.072 . S
O1535 C1547 1.260 . S
Mg1536 O1535 2.072 . S
Mg1536 O1537 2.099 . S
Mg1536 O1539 2.079 . S
Mg1536 O1540 2.072 . S
Mg1536 O1542 2.099 . S
Mg1536 O1553 2.079 . S
O1537 Mg1534 2.180 . S
O1537 Mg1536 2.099 . S
O1537 C1548 1.279 . S
O1538 Mg1534 2.117 1_554 S
O1538 C1548 1.250 1_554 S
O1539 Mg1536 2.079 . S
O1539 C1549 1.264 . S
O1540 Mg1536 2.072 . S
O1540 C1550 1.260 . S
Mg1541 O1542 2.180 . S
Mg1541 O1543 2.030 . S
Mg1541 O1544 1.990 . S
Mg1541 O1545 2.117 . S
O1542 Mg1536 2.099 . S
O1542 Mg1541 2.180 . S
O1542 C1551 1.279 . S
O1543 Mg1541 2.030 . S
O1543 C1549 1.248 . S
O1544 Mg1541 1.990 . S
O1544 C1550 1.253 . S
O1545 Mg1541 2.117 . S
O1545 C1551 1.250 . S
C1546 O1552 1.248 . S
C1546 O1553 1.264 . S
C1547 O1533 1.253 . S
C1547 O1535 1.260 . S
C1548 O1537 1.279 . S
C1548 O1538 1.250 1_556 S
C1549 O1539 1.264 . S
C1549 O1543 1.248 . S
C1550 O1540 1.260 . S
C1550 O1544 1.253 . S
C1551 O1542 1.279 . S
C1551 O1545 1.250 . S
O1552 Mg1534 2.030 . S
O1552 C1546 1.248 . S
O1553 Mg1536 2.079 . S
O1553 C1546 1.264 . S
O1554 Mg1555 1.990 . S
O1554 C1568 1.253 . S
Mg1555 O1554 1.990 . S
Mg1555 O1558 2.180 . S
Mg1555 O1559 2.117 . S
Mg1555 O1573 2.030 . S
O1556 Mg1557 2.072 . S
O1556 C1568 1.260 . S
Mg1557 O1556 2.072 . S
Mg1557 O1558 2.099 . S
Mg1557 O1560 2.079 1_455 S
Mg1557 O1561 2.072 1_455 S
Mg1557 O1563 2.099 . S
Mg1557 O1574 2.079 . S
O1558 Mg1555 2.180 . S
O1558 Mg1557 2.099 . S
O1558 C1569 1.279 . S
O1559 Mg1555 2.117 . S
O1559 C1569 1.250 . S
O1560 Mg1557 2.079 1_655 S
O1560 C1570 1.264 . S
O1561 Mg1557 2.072 1_655 S
O1561 C1571 1.260 . S
Mg1562 O1563 2.180 1_655 S
Mg1562 O1564 2.030 . S
Mg1562 O1565 1.990 . S
Mg1562 O1566 2.117 1_655 S
O1563 Mg1557 2.099 . S
O1563 Mg1562 2.180 1_455 S
O1563 C1572 1.279 . S
O1564 Mg1562 2.030 . S
O1564 C1570 1.248 . S
O1565 Mg1562 1.990 . S
O1565 C1571 1.253 . S
O1566 Mg1562 2.117 1_455 S
O1566 C1572 1.250 . S
C1567 O1573 1.248 . S
C1567 O1574 1.264 . S
C1568 O1554 1.253 . S
C1568 O1556 1.260 . S
C1569 O1558 1.279 . S
C1569 O1559 1.250 . S
C1570 O1560 1.264 . S
C1570 O1564 1.248 . S
C1571 O1561 1.260 . S
C1571 O1565 1.253 . S
C1572 O1563 1.279 . S
C1572 O1566 1.250 . S
O1573 Mg1555 2.030 . S
O1573 C1567 1.248 . S
O1574 Mg1557 2.079 . S
O1574 C1567 1.264 . S
O1575 Mg1576 1.990 . S
O1575 C1589 1.253 . S
Mg1576 O1575 1.990 . S
Mg1576 O1579 2.180 . S
Mg1576 O1580 2.117 . S
Mg1576 O1594 2.030 . S
O1577 Mg1578 2.072 . S
O1577 C1589 1.260 . S
Mg1578 O1577 2.072 . S
Mg1578 O1579 2.099 . S
Mg1578 O1581 2.079 . S
Mg1578 O1582 2.072 . S
Mg1578 O1584 2.099 . S
Mg1578 O1595 2.079 . S
O1579 Mg1576 2.180 . S
O1579 Mg1578 2.099 . S
O1579 C1590 1.279 . S
O1580 Mg1576 2.117 . S
O1580 C1590 1.250 . S
O1581 Mg1578 2.079 . S
O1581 C1591 1.264 . S
O1582 Mg1578 2.072 . S
O1582 C1592 1.260 . S
Mg1583 O1584 2.180 . S
Mg1583 O1585 2.030 . S
Mg1583 O1586 1.990 . S
Mg1583 O1587 2.117 . S
O1584 Mg1578 2.099 . S
O1584 Mg1583 2.180 . S
O1584 C1593 1.279 . S
O1585 Mg1583 2.030 . S
O1585 C1591 1.248 . S
O1586 Mg1583 1.990 . S
O1586 C1592 1.253 . S
O1587 Mg1583 2.117 . S
O1587 C1593 1.250 . S
C1588 O1594 1.248 . S
C1588 O1595 1.264 . S
C1589 O1575 1.253 . S
C1589 O1577 1.260 . S
C1590 O1579 1.279 . S
C1590 O1580 1.250 . S
C1591 O1581 1.264 . S
C1591 O1585 1.248 . S
C1592 O1582 1.260 . S
C1592 O1586 1.253 . S
C1593 O1584 1.279 . S
C1593 O1587 1.250 . S
O1594 Mg1576 2.030 . S
O1594 C1588 1.248 . S
O1595 Mg1578 2.079 . S
O1595 C1588 1.264 . S
O1596 Mg1597 1.990 . S
O1596 C1610 1.253 . S
Mg1597 O1596 1.990 . S
Mg1597 O1600 2.180 . S
Mg1597 O1601 2.117 . S
Mg1597 O1615 2.030 . S
O1598 Mg1599 2.072 . S
O1598 C1610 1.260 . S
Mg1599 O1598 2.072 . S
Mg1599 O1600 2.099 . S
Mg1599 O1602 2.079 . S
Mg1599 O1603 2.072 . S
Mg1599 O1605 2.099 . S
Mg1599 O1616 2.079 . S
O1600 Mg1597 2.180 . S
O1600 Mg1599 2.099 . S
O1600 C1611 1.279 . S
O1601 Mg1597 2.117 . S
O1601 C1611 1.250 . S
O1602 Mg1599 2.079 . S
O1602 C1612 1.264 . S
O1603 Mg1599 2.072 . S
O1603 C1613 1.260 . S
Mg1604 O1605 2.180 . S
Mg1604 O1606 2.030 . S
Mg1604 O1607 1.990 . S
Mg1604 O1608 2.117 . S
O1605 Mg1599 2.099 . S
O1605 Mg1604 2.180 . S
O1605 C1614 1.279 . S
O1606 Mg1604 2.030 . S
O1606 C1612 1.248 . S
O1607 Mg1604 1.990 . S
O1607 C1613 1.253 . S
O1608 Mg1604 2.117 . S
O1608 C1614 1.250 . S
C1609 O1615 1.248 . S
C1609 O1616 1.264 . S
C1610 O1596 1.253 . S
C1610 O1598 1.260 . S
C1611 O1600 1.279 . S
C1611 O1601 1.250 . S
C1612 O1602 1.264 . S
C1612 O1606 1.248 . S
C1613 O1603 1.260 . S
C1613 O1607 1.253 . S
C1614 O1605 1.279 . S
C1614 O1608 1.250 . S
O1615 Mg1597 2.030 . S
O1615 C1609 1.248 . S
O1616 Mg1599 2.079 . S
O1616 C1609 1.264 . S
O1617 Mg1618 1.990 . S
O1617 C1631 1.253 . S
Mg1618 O1617 1.990 . S
Mg1618 O1621 2.180 . S
Mg1618 O1622 2.117 1_554 S
Mg1618 O1636 2.030 . S
O1619 Mg1620 2.072 . S
O1619 C1631 1.260 . S
Mg1620 O1619 2.072 . S
Mg1620 O1621 2.099 . S
Mg1620 O1623 2.079 . S
Mg1620 O1624 2.072 . S
Mg1620 O1626 2.099 . S
Mg1620 O1637 2.079 . S
O1621 Mg1618 2.180 . S
O1621 Mg1620 2.099 . S
O1621 C1632 1.279 . S
O1622 Mg1618 2.117 1_556 S
O1622 C1632 1.250 1_556 S
O1623 Mg1620 2.079 . S
O1623 C1633 1.264 . S
O1624 Mg1620 2.072 . S
O1624 C1634 1.260 . S
Mg1625 O1626 2.180 . S
Mg1625 O1627 2.030 . S
Mg1625 O1628 1.990 . S
Mg1625 O1629 2.117 . S
O1626 Mg1620 2.099 . S
O1626 Mg1625 2.180 . S
O1626 C1635 1.279 . S
O1627 Mg1625 2.030 . S
O1627 C1633 1.248 . S
O1628 Mg1625 1.990 . S
O1628 C1634 1.253 . S
O1629 Mg1625 2.117 . S
O1629 C1635 1.250 . S
C1630 O1636 1.248 . S
C1630 O1637 1.264 . S
C1631 O1617 1.253 . S
C1631 O1619 1.260 . S
C1632 O1621 1.279 . S
C1632 O1622 1.250 1_554 S
C1633 O1623 1.264 . S
C1633 O1627 1.248 . S
C1634 O1624 1.260 . S
C1634 O1628 1.253 . S
C1635 O1626 1.279 . S
C1635 O1629 1.250 . S
O1636 Mg1618 2.030 . S
O1636 C1630 1.248 . S
O1637 Mg1620 2.079 . S
O1637 C1630 1.264 . S
O1638 Mg1639 1.990 . S
O1638 C1652 1.253 . S
Mg1639 O1638 1.990 . S
Mg1639 O1642 2.180 1_655 S
Mg1639 O1643 2.117 1_655 S
Mg1639 O1657 2.030 . S
O1640 Mg1641 2.072 1_655 S
O1640 C1652 1.260 . S
Mg1641 O1640 2.072 1_455 S
Mg1641 O1642 2.099 . S
Mg1641 O1644 2.079 . S
Mg1641 O1645 2.072 . S
Mg1641 O1647 2.099 . S
Mg1641 O1658 2.079 1_455 S
O1642 Mg1639 2.180 1_455 S
O1642 Mg1641 2.099 . S
O1642 C1653 1.279 . S
O1643 Mg1639 2.117 1_455 S
O1643 C1653 1.250 . S
O1644 Mg1641 2.079 . S
O1644 C1654 1.264 . S
O1645 Mg1641 2.072 . S
O1645 C1655 1.260 . S
Mg1646 O1647 2.180 . S
Mg1646 O1648 2.030 . S
Mg1646 O1649 1.990 . S
Mg1646 O1650 2.117 . S
O1647 Mg1641 2.099 . S
O1647 Mg1646 2.180 . S
O1647 C1656 1.279 . S
O1648 Mg1646 2.030 . S
O1648 C1654 1.248 . S
O1649 Mg1646 1.990 . S
O1649 C1655 1.253 . S
O1650 Mg1646 2.117 . S
O1650 C1656 1.250 . S
C1651 O1657 1.248 . S
C1651 O1658 1.264 . S
C1652 O1638 1.253 . S
C1652 O1640 1.260 . S
C1653 O1642 1.279 . S
C1653 O1643 1.250 . S
C1654 O1644 1.264 . S
C1654 O1648 1.248 . S
C1655 O1645 1.260 . S
C1655 O1649 1.253 . S
C1656 O1647 1.279 . S
C1656 O1650 1.250 . S
O1657 Mg1639 2.030 . S
O1657 C1651 1.248 . S
O1658 Mg1641 2.079 1_655 S
O1658 C1651 1.264 . S
O1659 Mg1660 1.990 . S
O1659 C1673 1.253 . S
Mg1660 O1659 1.990 . S
Mg1660 O1663 2.180 . S
Mg1660 O1664 2.117 . S
Mg1660 O1678 2.030 . S
O1661 Mg1662 2.072 . S
O1661 C1673 1.260 . S
Mg1662 O1661 2.072 . S
Mg1662 O1663 2.099 . S
Mg1662 O1665 2.079 . S
Mg1662 O1666 2.072 . S
Mg1662 O1668 2.099 . S
Mg1662 O1679 2.079 . S
O1663 Mg1660 2.180 . S
O1663 Mg1662 2.099 . S
O1663 C1674 1.279 . S
O1664 Mg1660 2.117 . S
O1664 C1674 1.250 . S
O1665 Mg1662 2.079 . S
O1665 C1675 1.264 . S
O1666 Mg1662 2.072 . S
O1666 C1676 1.260 . S
Mg1667 O1668 2.180 . S
Mg1667 O1669 2.030 . S
Mg1667 O1670 1.990 . S
Mg1667 O1671 2.117 . S
O1668 Mg1662 2.099 . S
O1668 Mg1667 2.180 . S
O1668 C1677 1.279 . S
O1669 Mg1667 2.030 . S
O1669 C1675 1.248 . S
O1670 Mg1667 1.990 . S
O1670 C1676 1.253 . S
O1671 Mg1667 2.117 . S
O1671 C1677 1.250 . S
C1672 O1678 1.248 . S
C1672 O1679 1.264 . S
C1673 O1659 1.253 . S
C1673 O1661 1.260 . S
C1674 O1663 1.279 . S
C1674 O1664 1.250 . S
C1675 O1665 1.264 . S
C1675 O1669 1.248 . S
C1676 O1666 1.260 . S
C1676 O1670 1.253 . S
C1677 O1668 1.279 . S
C1677 O1671 1.250 . S
O1678 Mg1660 2.030 . S
O1678 C1672 1.248 . S
O1679 Mg1662 2.079 . S
O1679 C1672 1.264 . S
O1680 Mg1681 1.990 . S
O1680 C1694 1.253 . S
Mg1681 O1680 1.990 . S
Mg1681 O1684 2.180 . S
Mg1681 O1685 2.117 . S
Mg1681 O1699 2.030 . S
O1682 Mg1683 2.072 . S
O1682 C1694 1.260 . S
Mg1683 O1682 2.072 . S
Mg1683 O1684 2.099 . S
Mg1683 O1686 2.079 . S
Mg1683 O1687 2.072 . S
Mg1683 O1689 2.099 . S
Mg1683 O1700 2.079 . S
O1684 Mg1681 2.180 . S
O1684 Mg1683 2.099 . S
O1684 C1695 1.279 . S
O1685 Mg1681 2.117 . S
O1685 C1695 1.250 . S
O1686 Mg1683 2.079 . S
O1686 C1696 1.264 . S
O1687 Mg1683 2.072 . S
O1687 C1697 1.260 . S
Mg1688 O1689 2.180 . S
Mg1688 O1690 2.030 . S
Mg1688 O1691 1.990 . S
Mg1688 O1692 2.117 . S
O1689 Mg1683 2.099 . S
O1689 Mg1688 2.180 . S
O1689 C1698 1.279 . S
O1690 Mg1688 2.030 . S
O1690 C1696 1.248 . S
O1691 Mg1688 1.990 . S
O1691 C1697 1.253 . S
O1692 Mg1688 2.117 . S
O1692 C1698 1.250 . S
C1693 O1699 1.248 . S
C1693 O1700 1.264 . S
C1694 O1680 1.253 . S
C1694 O1682 1.260 . S
C1695 O1684 1.279 . S
C1695 O1685 1.250 . S
C1696 O1686 1.264 . S
C1696 O1690 1.248 . S
C1697 O1687 1.260 . S
C1697 O1691 1.253 . S
C1698 O1689 1.279 . S
C1698 O1692 1.250 . S
O1699 Mg1681 2.030 . S
O1699 C1693 1.248 . S
O1700 Mg1683 2.079 . S
O1700 C1693 1.264 . S
O1701 Mg1702 1.990 . S
O1701 C1715 1.253 . S
Mg1702 O1701 1.990 . S
Mg1702 O1705 2.180 . S
Mg1702 O1706 2.117 . S
Mg1702 O1720 2.030 . S
O1703 Mg1704 2.072 . S
O1703 C1715 1.260 . S
Mg1704 O1703 2.072 . S
Mg1704 O1705 2.099 . S
Mg1704 O1707 2.079 . S
Mg1704 O1708 2.072 . S
Mg1704 O1710 2.099 . S
Mg1704 O1721 2.079 . S
O1705 Mg1702 2.180 . S
O1705 Mg1704 2.099 . S
O1705 C1716 1.279 . S
O1706 Mg1702 2.117 . S
O1706 C1716 1.250 . S
O1707 Mg1704 2.079 . S
O1707 C1717 1.264 . S
O1708 Mg1704 2.072 . S
O1708 C1718 1.260 . S
Mg1709 O1710 2.180 . S
Mg1709 O1711 2.030 . S
Mg1709 O1712 1.990 . S
Mg1709 O1713 2.117 . S
O1710 Mg1704 2.099 . S
O1710 Mg1709 2.180 . S
O1710 C1719 1.279 . S
O1711 Mg1709 2.030 . S
O1711 C1717 1.248 . S
O1712 Mg1709 1.990 . S
O1712 C1718 1.253 . S
O1713 Mg1709 2.117 . S
O1713 C1719 1.250 . S
C1714 O1720 1.248 . S
C1714 O1721 1.264 . S
C1715 O1701 1.253 . S
C1715 O1703 1.260 . S
C1716 O1705 1.279 . S
C1716 O1706 1.250 . S
C1717 O1707 1.264 . S
C1717 O1711 1.248 . S
C1718 O1708 1.260 . S
C1718 O1712 1.253 . S
C1719 O1710 1.279 . S
C1719 O1713 1.250 . S
O1720 Mg1702 2.030 . S
O1720 C1714 1.248 . S
O1721 Mg1704 2.079 . S
O1721 C1714 1.264 . S
O1722 Mg1723 1.990 . S
O1722 C1736 1.253 . S
Mg1723 O1722 1.990 . S
Mg1723 O1726 2.180 . S
Mg1723 O1727 2.117 . S
Mg1723 O1741 2.030 . S
O1724 Mg1725 2.072 . S
O1724 C1736 1.260 . S
Mg1725 O1724 2.072 . S
Mg1725 O1726 2.099 . S
Mg1725 O1728 2.079 . S
Mg1725 O1729 2.072 . S
Mg1725 O1731 2.099 . S
Mg1725 O1742 2.079 . S
O1726 Mg1723 2.180 . S
O1726 Mg1725 2.099 . S
O1726 C1737 1.279 . S
O1727 Mg1723 2.117 . S
O1727 C1737 1.250 . S
O1728 Mg1725 2.079 . S
O1728 C1738 1.264 . S
O1729 Mg1725 2.072 . S
O1729 C1739 1.260 . S
Mg1730 O1731 2.180 . S
Mg1730 O1732 2.030 . S
Mg1730 O1733 1.990 . S
Mg1730 O1734 2.117 . S
O1731 Mg1725 2.099 . S
O1731 Mg1730 2.180 . S
O1731 C1740 1.279 . S
O1732 Mg1730 2.030 . S
O1732 C1738 1.248 . S
O1733 Mg1730 1.990 . S
O1733 C1739 1.253 . S
O1734 Mg1730 2.117 . S
O1734 C1740 1.250 . S
C1735 O1741 1.248 . S
C1735 O1742 1.264 . S
C1736 O1722 1.253 . S
C1736 O1724 1.260 . S
C1737 O1726 1.279 . S
C1737 O1727 1.250 . S
C1738 O1728 1.264 . S
C1738 O1732 1.248 . S
C1739 O1729 1.260 . S
C1739 O1733 1.253 . S
C1740 O1731 1.279 . S
C1740 O1734 1.250 . S
O1741 Mg1723 2.030 . S
O1741 C1735 1.248 . S
O1742 Mg1725 2.079 . S
O1742 C1735 1.264 . S
O1743 Mg1744 1.990 . S
O1743 C1757 1.253 . S
Mg1744 O1743 1.990 . S
Mg1744 O1747 2.180 . S
Mg1744 O1748 2.117 . S
Mg1744 O1762 2.030 . S
O1745 Mg1746 2.072 . S
O1745 C1757 1.260 . S
Mg1746 O1745 2.072 . S
Mg1746 O1747 2.099 . S
Mg1746 O1749 2.079 . S
Mg1746 O1750 2.072 . S
Mg1746 O1752 2.099 . S
Mg1746 O1763 2.079 . S
O1747 Mg1744 2.180 . S
O1747 Mg1746 2.099 . S
O1747 C1758 1.279 . S
O1748 Mg1744 2.117 . S
O1748 C1758 1.250 . S
O1749 Mg1746 2.079 . S
O1749 C1759 1.264 . S
O1750 Mg1746 2.072 . S
O1750 C1760 1.260 . S
Mg1751 O1752 2.180 . S
Mg1751 O1753 2.030 . S
Mg1751 O1754 1.990 . S
Mg1751 O1755 2.117 . S
O1752 Mg1746 2.099 . S
O1752 Mg1751 2.180 . S
O1752 C1761 1.279 . S
O1753 Mg1751 2.030 . S
O1753 C1759 1.248 . S
O1754 Mg1751 1.990 . S
O1754 C1760 1.253 . S
O1755 Mg1751 2.117 . S
O1755 C1761 1.250 . S
C1756 O1762 1.248 . S
C1756 O1763 1.264 . S
C1757 O1743 1.253 . S
C1757 O1745 1.260 . S
C1758 O1747 1.279 . S
C1758 O1748 1.250 . S
C1759 O1749 1.264 . S
C1759 O1753 1.248 . S
C1760 O1750 1.260 . S
C1760 O1754 1.253 . S
C1761 O1752 1.279 . S
C1761 O1755 1.250 . S
O1762 Mg1744 2.030 . S
O1762 C1756 1.248 . S
O1763 Mg1746 2.079 . S
O1763 C1756 1.264 . S
O1764 Mg1765 1.990 . S
O1764 C1778 1.253 . S
Mg1765 O1764 1.990 . S
Mg1765 O1768 2.180 . S
Mg1765 O1769 2.117 . S
Mg1765 O1783 2.030 . S
O1766 Mg1767 2.072 . S
O1766 C1778 1.260 . S
Mg1767 O1766 2.072 . S
Mg1767 O1768 2.099 . S
Mg1767 O1770 2.079 . S
Mg1767 O1771 2.072 . S
Mg1767 O1773 2.099 . S
Mg1767 O1784 2.079 . S
O1768 Mg1765 2.180 . S
O1768 Mg1767 2.099 . S
O1768 C1779 1.279 . S
O1769 Mg1765 2.117 . S
O1769 C1779 1.250 . S
O1770 Mg1767 2.079 . S
O1770 C1780 1.264 . S
O1771 Mg1767 2.072 . S
O1771 C1781 1.260 . S
Mg1772 O1773 2.180 . S
Mg1772 O1774 2.030 . S
Mg1772 O1775 1.990 . S
Mg1772 O1776 2.117 . S
O1773 Mg1767 2.099 . S
O1773 Mg1772 2.180 . S
O1773 C1782 1.279 . S
O1774 Mg1772 2.030 . S
O1774 C1780 1.248 . S
O1775 Mg1772 1.990 . S
O1775 C1781 1.253 . S
O1776 Mg1772 2.117 . S
O1776 C1782 1.250 . S
C1777 O1783 1.248 . S
C1777 O1784 1.264 . S
C1778 O1764 1.253 . S
C1778 O1766 1.260 . S
C1779 O1768 1.279 . S
C1779 O1769 1.250 . S
C1780 O1770 1.264 . S
C1780 O1774 1.248 . S
C1781 O1771 1.260 . S
C1781 O1775 1.253 . S
C1782 O1773 1.279 . S
C1782 O1776 1.250 . S
O1783 Mg1765 2.030 . S
O1783 C1777 1.248 . S
O1784 Mg1767 2.079 . S
O1784 C1777 1.264 . S
O1785 Mg1786 1.990 . S
O1785 C1799 1.253 . S
Mg1786 O1785 1.990 . S
Mg1786 O1789 2.180 . S
Mg1786 O1790 2.117 . S
Mg1786 O1804 2.030 . S
O1787 Mg1788 2.072 . S
O1787 C1799 1.260 . S
Mg1788 O1787 2.072 . S
Mg1788 O1789 2.099 . S
Mg1788 O1791 2.079 . S
Mg1788 O1792 2.072 . S
Mg1788 O1794 2.099 . S
Mg1788 O1805 2.079 . S
O1789 Mg1786 2.180 . S
O1789 Mg1788 2.099 . S
O1789 C1800 1.279 . S
O1790 Mg1786 2.117 . S
O1790 C1800 1.250 . S
O1791 Mg1788 2.079 . S
O1791 C1801 1.264 . S
O1792 Mg1788 2.072 . S
O1792 C1802 1.260 . S
Mg1793 O1794 2.180 . S
Mg1793 O1795 2.030 . S
Mg1793 O1796 1.990 . S
Mg1793 O1797 2.117 . S
O1794 Mg1788 2.099 . S
O1794 Mg1793 2.180 . S
O1794 C1803 1.279 . S
O1795 Mg1793 2.030 . S
O1795 C1801 1.248 . S
O1796 Mg1793 1.990 . S
O1796 C1802 1.253 . S
O1797 Mg1793 2.117 . S
O1797 C1803 1.250 . S
C1798 O1804 1.248 . S
C1798 O1805 1.264 . S
C1799 O1785 1.253 . S
C1799 O1787 1.260 . S
C1800 O1789 1.279 . S
C1800 O1790 1.250 . S
C1801 O1791 1.264 . S
C1801 O1795 1.248 . S
C1802 O1792 1.260 . S
C1802 O1796 1.253 . S
C1803 O1794 1.279 . S
C1803 O1797 1.250 . S
O1804 Mg1786 2.030 . S
O1804 C1798 1.248 . S
O1805 Mg1788 2.079 . S
O1805 C1798 1.264 . S
O1806 Mg1807 1.990 . S
O1806 C1820 1.253 . S
Mg1807 O1806 1.990 . S
Mg1807 O1810 2.180 . S
Mg1807 O1811 2.117 . S
Mg1807 O1825 2.030 . S
O1808 Mg1809 2.072 . S
O1808 C1820 1.260 . S
Mg1809 O1808 2.072 . S
Mg1809 O1810 2.099 . S
Mg1809 O1812 2.079 . S
Mg1809 O1813 2.072 . S
Mg1809 O1815 2.099 . S
Mg1809 O1826 2.079 . S
O1810 Mg1807 2.180 . S
O1810 Mg1809 2.099 . S
O1810 C1821 1.279 . S
O1811 Mg1807 2.117 . S
O1811 C1821 1.250 . S
O1812 Mg1809 2.079 . S
O1812 C1822 1.264 . S
O1813 Mg1809 2.072 . S
O1813 C1823 1.260 . S
Mg1814 O1815 2.180 . S
Mg1814 O1816 2.030 . S
Mg1814 O1817 1.990 . S
Mg1814 O1818 2.117 . S
O1815 Mg1809 2.099 . S
O1815 Mg1814 2.180 . S
O1815 C1824 1.279 . S
O1816 Mg1814 2.030 . S
O1816 C1822 1.248 . S
O1817 Mg1814 1.990 . S
O1817 C1823 1.253 . S
O1818 Mg1814 2.117 . S
O1818 C1824 1.250 . S
C1819 O1825 1.248 . S
C1819 O1826 1.264 . S
C1820 O1806 1.253 . S
C1820 O1808 1.260 . S
C1821 O1810 1.279 . S
C1821 O1811 1.250 . S
C1822 O1812 1.264 . S
C1822 O1816 1.248 . S
C1823 O1813 1.260 . S
C1823 O1817 1.253 . S
C1824 O1815 1.279 . S
C1824 O1818 1.250 . S
O1825 Mg1807 2.030 . S
O1825 C1819 1.248 . S
O1826 Mg1809 2.079 . S
O1826 C1819 1.264 . S
O1827 Mg1828 1.990 . S
O1827 C1841 1.253 . S
Mg1828 O1827 1.990 . S
Mg1828 O1831 2.180 . S
Mg1828 O1832 2.117 . S
Mg1828 O1846 2.030 . S
O1829 Mg1830 2.072 . S
O1829 C1841 1.260 . S
Mg1830 O1829 2.072 . S
Mg1830 O1831 2.099 . S
Mg1830 O1833 2.079 . S
Mg1830 O1834 2.072 . S
Mg1830 O1836 2.099 . S
Mg1830 O1847 2.079 . S
O1831 Mg1828 2.180 . S
O1831 Mg1830 2.099 . S
O1831 C1842 1.279 . S
O1832 Mg1828 2.117 . S
O1832 C1842 1.250 . S
O1833 Mg1830 2.079 . S
O1833 C1843 1.264 . S
O1834 Mg1830 2.072 . S
O1834 C1844 1.260 . S
Mg1835 O1836 2.180 . S
Mg1835 O1837 2.030 . S
Mg1835 O1838 1.990 . S
Mg1835 O1839 2.117 . S
O1836 Mg1830 2.099 . S
O1836 Mg1835 2.180 . S
O1836 C1845 1.279 . S
O1837 Mg1835 2.030 . S
O1837 C1843 1.248 . S
O1838 Mg1835 1.990 . S
O1838 C1844 1.253 . S
O1839 Mg1835 2.117 . S
O1839 C1845 1.250 . S
C1840 O1846 1.248 . S
C1840 O1847 1.264 . S
C1841 O1827 1.253 . S
C1841 O1829 1.260 . S
C1842 O1831 1.279 . S
C1842 O1832 1.250 . S
C1843 O1833 1.264 . S
C1843 O1837 1.248 . S
C1844 O1834 1.260 . S
C1844 O1838 1.253 . S
C1845 O1836 1.279 . S
C1845 O1839 1.250 . S
O1846 Mg1828 2.030 . S
O1846 C1840 1.248 . S
O1847 Mg1830 2.079 . S
O1847 C1840 1.264 . S
O1848 Mg1849 1.990 . S
O1848 C1862 1.253 . S
Mg1849 O1848 1.990 . S
Mg1849 O1852 2.180 . S
Mg1849 O1853 2.117 . S
Mg1849 O1867 2.030 . S
O1850 Mg1851 2.072 . S
O1850 C1862 1.260 . S
Mg1851 O1850 2.072 . S
Mg1851 O1852 2.099 . S
Mg1851 O1854 2.079 . S
Mg1851 O1855 2.072 . S
Mg1851 O1857 2.099 . S
Mg1851 O1868 2.079 . S
O1852 Mg1849 2.180 . S
O1852 Mg1851 2.099 . S
O1852 C1863 1.279 . S
O1853 Mg1849 2.117 . S
O1853 C1863 1.250 . S
O1854 Mg1851 2.079 . S
O1854 C1864 1.264 . S
O1855 Mg1851 2.072 . S
O1855 C1865 1.260 . S
Mg1856 O1857 2.180 . S
Mg1856 O1858 2.030 . S
Mg1856 O1859 1.990 . S
Mg1856 O1860 2.117 . S
O1857 Mg1851 2.099 . S
O1857 Mg1856 2.180 . S
O1857 C1866 1.279 . S
O1858 Mg1856 2.030 . S
O1858 C1864 1.248 . S
O1859 Mg1856 1.990 . S
O1859 C1865 1.253 . S
O1860 Mg1856 2.117 . S
O1860 C1866 1.250 . S
C1861 O1867 1.248 . S
C1861 O1868 1.264 . S
C1862 O1848 1.253 . S
C1862 O1850 1.260 . S
C1863 O1852 1.279 . S
C1863 O1853 1.250 . S
C1864 O1854 1.264 . S
C1864 O1858 1.248 . S
C1865 O1855 1.260 . S
C1865 O1859 1.253 . S
C1866 O1857 1.279 . S
C1866 O1860 1.250 . S
O1867 Mg1849 2.030 . S
O1867 C1861 1.248 . S
O1868 Mg1851 2.079 . S
O1868 C1861 1.264 . S
O1869 Mg1870 1.990 . S
O1869 C1883 1.253 . S
Mg1870 O1869 1.990 . S
Mg1870 O1873 2.180 . S
Mg1870 O1874 2.117 . S
Mg1870 O1888 2.030 . S
O1871 Mg1872 2.072 . S
O1871 C1883 1.260 . S
Mg1872 O1871 2.072 . S
Mg1872 O1873 2.099 . S
Mg1872 O1875 2.079 . S
Mg1872 O1876 2.072 . S
Mg1872 O1878 2.099 . S
Mg1872 O1889 2.079 . S
O1873 Mg1870 2.180 . S
O1873 Mg1872 2.099 . S
O1873 C1884 1.279 . S
O1874 Mg1870 2.117 . S
O1874 C1884 1.250 . S
O1875 Mg1872 2.079 . S
O1875 C1885 1.264 . S
O1876 Mg1872 2.072 . S
O1876 C1886 1.260 . S
Mg1877 O1878 2.180 . S
Mg1877 O1879 2.030 . S
Mg1877 O1880 1.990 . S
Mg1877 O1881 2.117 . S
O1878 Mg1872 2.099 . S
O1878 Mg1877 2.180 . S
O1878 C1887 1.279 . S
O1879 Mg1877 2.030 . S
O1879 C1885 1.248 . S
O1880 Mg1877 1.990 . S
O1880 C1886 1.253 . S
O1881 Mg1877 2.117 . S
O1881 C1887 1.250 . S
C1882 O1888 1.248 . S
C1882 O1889 1.264 . S
C1883 O1869 1.253 . S
C1883 O1871 1.260 . S
C1884 O1873 1.279 . S
C1884 O1874 1.250 . S
C1885 O1875 1.264 . S
C1885 O1879 1.248 . S
C1886 O1876 1.260 . S
C1886 O1880 1.253 . S
C1887 O1878 1.279 . S
C1887 O1881 1.250 . S
O1888 Mg1870 2.030 . S
O1888 C1882 1.248 . S
O1889 Mg1872 2.079 . S
O1889 C1882 1.264 . S
O1890 Mg1891 1.990 . S
O1890 C1904 1.253 . S
Mg1891 O1890 1.990 . S
Mg1891 O1894 2.180 . S
Mg1891 O1895 2.117 . S
Mg1891 O1909 2.030 . S
O1892 Mg1893 2.072 . S
O1892 C1904 1.260 . S
Mg1893 O1892 2.072 . S
Mg1893 O1894 2.099 . S
Mg1893 O1896 2.079 . S
Mg1893 O1897 2.072 . S
Mg1893 O1899 2.099 . S
Mg1893 O1910 2.079 . S
O1894 Mg1891 2.180 . S
O1894 Mg1893 2.099 . S
O1894 C1905 1.279 . S
O1895 Mg1891 2.117 . S
O1895 C1905 1.250 . S
O1896 Mg1893 2.079 . S
O1896 C1906 1.264 . S
O1897 Mg1893 2.072 . S
O1897 C1907 1.260 . S
Mg1898 O1899 2.180 . S
Mg1898 O1900 2.030 . S
Mg1898 O1901 1.990 . S
Mg1898 O1902 2.117 . S
O1899 Mg1893 2.099 . S
O1899 Mg1898 2.180 . S
O1899 C1908 1.279 . S
O1900 Mg1898 2.030 . S
O1900 C1906 1.248 . S
O1901 Mg1898 1.990 . S
O1901 C1907 1.253 . S
O1902 Mg1898 2.117 . S
O1902 C1908 1.250 . S
C1903 O1909 1.248 . S
C1903 O1910 1.264 . S
C1904 O1890 1.253 . S
C1904 O1892 1.260 . S
C1905 O1894 1.279 . S
C1905 O1895 1.250 . S
C1906 O1896 1.264 . S
C1906 O1900 1.248 . S
C1907 O1897 1.260 . S
C1907 O1901 1.253 . S
C1908 O1899 1.279 . S
C1908 O1902 1.250 . S
O1909 Mg1891 2.030 . S
O1909 C1903 1.248 . S
O1910 Mg1893 2.079 . S
O1910 C1903 1.264 . S
O1911 Mg1912 1.990 . S
O1911 C1925 1.253 . S
Mg1912 O1911 1.990 . S
Mg1912 O1915 2.180 . S
Mg1912 O1916 2.117 . S
Mg1912 O1930 2.030 . S
O1913 Mg1914 2.072 . S
O1913 C1925 1.260 . S
Mg1914 O1913 2.072 . S
Mg1914 O1915 2.099 . S
Mg1914 O1917 2.079 1_554 S
Mg1914 O1918 2.072 1_554 S
Mg1914 O1920 2.099 . S
Mg1914 O1931 2.079 . S
O1915 Mg1912 2.180 . S
O1915 Mg1914 2.099 . S
O1915 C1926 1.279 . S
O1916 Mg1912 2.117 . S
O1916 C1926 1.250 . S
O1917 Mg1914 2.079 1_556 S
O1917 C1927 1.264 . S
O1918 Mg1914 2.072 1_556 S
O1918 C1928 1.260 . S
Mg1919 O1920 2.180 1_556 S
Mg1919 O1921 2.030 . S
Mg1919 O1922 1.990 . S
Mg1919 O1923 2.117 1_556 S
O1920 Mg1914 2.099 . S
O1920 Mg1919 2.180 1_554 S
O1920 C1929 1.279 . S
O1921 Mg1919 2.030 . S
O1921 C1927 1.248 . S
O1922 Mg1919 1.990 . S
O1922 C1928 1.253 . S
O1923 Mg1919 2.117 1_554 S
O1923 C1929 1.250 . S
C1924 O1930 1.248 . S
C1924 O1931 1.264 . S
C1925 O1911 1.253 . S
C1925 O1913 1.260 . S
C1926 O1915 1.279 . S
C1926 O1916 1.250 . S
C1927 O1917 1.264 . S
C1927 O1921 1.248 . S
C1928 O1918 1.260 . S
C1928 O1922 1.253 . S
C1929 O1920 1.279 . S
C1929 O1923 1.250 . S
O1930 Mg1912 2.030 . S
O1930 C1924 1.248 . S
O1931 Mg1914 2.079 . S
O1931 C1924 1.264 . S
O1932 Mg1933 1.990 . S
O1932 C1946 1.253 . S
Mg1933 O1932 1.990 . S
Mg1933 O1936 2.180 . S
Mg1933 O1937 2.117 . S
Mg1933 O1951 2.030 . S
O1934 Mg1935 2.072 . S
O1934 C1946 1.260 . S
Mg1935 O1934 2.072 . S
Mg1935 O1936 2.099 . S
Mg1935 O1938 2.079 . S
Mg1935 O1939 2.072 . S
Mg1935 O1941 2.099 . S
Mg1935 O1952 2.079 . S
O1936 Mg1933 2.180 . S
O1936 Mg1935 2.099 . S
O1936 C1947 1.279 . S
O1937 Mg1933 2.117 . S
O1937 C1947 1.250 . S
O1938 Mg1935 2.079 . S
O1938 C1948 1.264 . S
O1939 Mg1935 2.072 . S
O1939 C1949 1.260 . S
Mg1940 O1941 2.180 . S
Mg1940 O1942 2.030 . S
Mg1940 O1943 1.990 . S
Mg1940 O1944 2.117 . S
O1941 Mg1935 2.099 . S
O1941 Mg1940 2.180 . S
O1941 C1950 1.279 . S
O1942 Mg1940 2.030 . S
O1942 C1948 1.248 . S
O1943 Mg1940 1.990 . S
O1943 C1949 1.253 . S
O1944 Mg1940 2.117 . S
O1944 C1950 1.250 . S
C1945 O1951 1.248 . S
C1945 O1952 1.264 . S
C1946 O1932 1.253 . S
C1946 O1934 1.260 . S
C1947 O1936 1.279 . S
C1947 O1937 1.250 . S
C1948 O1938 1.264 . S
C1948 O1942 1.248 . S
C1949 O1939 1.260 . S
C1949 O1943 1.253 . S
C1950 O1941 1.279 . S
C1950 O1944 1.250 . S
O1951 Mg1933 2.030 . S
O1951 C1945 1.248 . S
O1952 Mg1935 2.079 . S
O1952 C1945 1.264 . S
O1953 Mg1954 1.990 . S
O1953 C1967 1.253 . S
Mg1954 O1953 1.990 . S
Mg1954 O1957 2.180 . S
Mg1954 O1958 2.117 . S
Mg1954 O1972 2.030 . S
O1955 Mg1956 2.072 . S
O1955 C1967 1.260 . S
Mg1956 O1955 2.072 . S
Mg1956 O1957 2.099 . S
Mg1956 O1959 2.079 1_556 S
Mg1956 O1960 2.072 1_556 S
Mg1956 O1962 2.099 . S
Mg1956 O1973 2.079 . S
O1957 Mg1954 2.180 . S
O1957 Mg1956 2.099 . S
O1957 C1968 1.279 . S
O1958 Mg1954 2.117 . S
O1958 C1968 1.250 . S
O1959 Mg1956 2.079 1_554 S
O1959 C1969 1.264 . S
O1960 Mg1956 2.072 1_554 S
O1960 C1970 1.260 . S
Mg1961 O1962 2.180 1_554 S
Mg1961 O1963 2.030 . S
Mg1961 O1964 1.990 . S
Mg1961 O1965 2.117 1_554 S
O1962 Mg1956 2.099 . S
O1962 Mg1961 2.180 1_556 S
O1962 C1971 1.279 . S
O1963 Mg1961 2.030 . S
O1963 C1969 1.248 . S
O1964 Mg1961 1.990 . S
O1964 C1970 1.253 . S
O1965 Mg1961 2.117 1_556 S
O1965 C1971 1.250 . S
C1966 O1972 1.248 . S
C1966 O1973 1.264 . S
C1967 O1953 1.253 . S
C1967 O1955 1.260 . S
C1968 O1957 1.279 . S
C1968 O1958 1.250 . S
C1969 O1959 1.264 . S
C1969 O1963 1.248 . S
C1970 O1960 1.260 . S
C1970 O1964 1.253 . S
C1971 O1962 1.279 . S
C1971 O1965 1.250 . S
O1972 Mg1954 2.030 . S
O1972 C1966 1.248 . S
O1973 Mg1956 2.079 . S
O1973 C1966 1.264 . S
O1974 Mg1975 1.990 . S
O1974 C1988 1.253 . S
Mg1975 O1974 1.990 . S
Mg1975 O1978 2.180 . S
Mg1975 O1979 2.117 . S
Mg1975 O1993 2.030 . S
O1976 Mg1977 2.072 . S
O1976 C1988 1.260 . S
Mg1977 O1976 2.072 . S
Mg1977 O1978 2.099 . S
Mg1977 O1980 2.079 . S
Mg1977 O1981 2.072 . S
Mg1977 O1983 2.099 . S
Mg1977 O1994 2.079 . S
O1978 Mg1975 2.180 . S
O1978 Mg1977 2.099 . S
O1978 C1989 1.279 . S
O1979 Mg1975 2.117 . S
O1979 C1989 1.250 . S
O1980 Mg1977 2.079 . S
O1980 C1990 1.264 . S
O1981 Mg1977 2.072 . S
O1981 C1991 1.260 . S
Mg1982 O1983 2.180 . S
Mg1982 O1984 2.030 . S
Mg1982 O1985 1.990 . S
Mg1982 O1986 2.117 . S
O1983 Mg1977 2.099 . S
O1983 Mg1982 2.180 . S
O1983 C1992 1.279 . S
O1984 Mg1982 2.030 . S
O1984 C1990 1.248 . S
O1985 Mg1982 1.990 . S
O1985 C1991 1.253 . S
O1986 Mg1982 2.117 . S
O1986 C1992 1.250 . S
C1987 O1993 1.248 . S
C1987 O1994 1.264 . S
C1988 O1974 1.253 . S
C1988 O1976 1.260 . S
C1989 O1978 1.279 . S
C1989 O1979 1.250 . S
C1990 O1980 1.264 . S
C1990 O1984 1.248 . S
C1991 O1981 1.260 . S
C1991 O1985 1.253 . S
C1992 O1983 1.279 . S
C1992 O1986 1.250 . S
O1993 Mg1975 2.030 . S
O1993 C1987 1.248 . S
O1994 Mg1977 2.079 . S
O1994 C1987 1.264 . S
O1995 Mg1996 1.990 . S
O1995 C2009 1.253 . S
Mg1996 O1995 1.990 . S
Mg1996 O1999 2.180 . S
Mg1996 O2000 2.117 1_455 S
Mg1996 O2014 2.030 . S
O1997 Mg1998 2.072 . S
O1997 C2009 1.260 . S
Mg1998 O1997 2.072 . S
Mg1998 O1999 2.099 . S
Mg1998 O2001 2.079 . S
Mg1998 O2002 2.072 . S
Mg1998 O2004 2.099 . S
Mg1998 O2015 2.079 . S
O1999 Mg1996 2.180 . S
O1999 Mg1998 2.099 . S
O1999 C2010 1.279 . S
O2000 Mg1996 2.117 1_655 S
O2000 C2010 1.250 1_655 S
O2001 Mg1998 2.079 . S
O2001 C2011 1.264 . S
O2002 Mg1998 2.072 . S
O2002 C2012 1.260 . S
Mg2003 O2004 2.180 . S
Mg2003 O2005 2.030 . S
Mg2003 O2006 1.990 . S
Mg2003 O2007 2.117 . S
O2004 Mg1998 2.099 . S
O2004 Mg2003 2.180 . S
O2004 C2013 1.279 . S
O2005 Mg2003 2.030 . S
O2005 C2011 1.248 . S
O2006 Mg2003 1.990 . S
O2006 C2012 1.253 . S
O2007 Mg2003 2.117 . S
O2007 C2013 1.250 . S
C2008 O2014 1.248 . S
C2008 O2015 1.264 . S
C2009 O1995 1.253 . S
C2009 O1997 1.260 . S
C2010 O1999 1.279 . S
C2010 O2000 1.250 1_455 S
C2011 O2001 1.264 . S
C2011 O2005 1.248 . S
C2012 O2002 1.260 . S
C2012 O2006 1.253 . S
C2013 O2004 1.279 . S
C2013 O2007 1.250 . S
O2014 Mg1996 2.030 . S
O2014 C2008 1.248 . S
O2015 Mg1998 2.079 . S
O2015 C2008 1.264 . S
C1588 C13 0.988 . S
C520 C34 0.988 . S
C55 C1549 0.988 . S
C76 C562 0.988 . S
C97 C1633 0.988 . S
C643 C118 0.988 . S
C139 C1672 0.988 . S
C160 C604 0.988 . S
C181 C1906 0.988 . S
C919 C202 0.988 . S
C940 C223 0.988 . S
C877 C244 0.988 . S
C265 C1990 0.988 . S
C286 C1864 0.988 . S
C2011 C307 0.988 . S
C328 C1969 0.988 . S
C349 C1714 0.988 . S
C835 C370 0.988 . S
C1777 C391 0.988 . S
C412 C793 0.988 . S
C433 C814 0.988 . S
C454 C1759 0.988 . S
C475 C1696 0.988 . S
C1735 C496 0.988 . S
C517 C1087 0.988 . S
C538 C16 0.988 . S
C559 C1045 0.988 . S
C58 C583 0.988 . S
C1129 C601 0.988 . S
C622 C142 0.988 . S
C1171 C646 0.988 . S
C667 C100 0.988 . S
C685 C1402 0.988 . S
C709 C415 0.988 . S
C730 C436 0.988 . S
C373 C748 0.988 . S
C1486 C772 0.988 . S
C790 C1360 0.988 . S
C811 C1507 0.988 . S
C1465 C832 0.988 . S
C853 C1213 0.988 . S
C874 C331 0.988 . S
C1276 C895 0.988 . S
C916 C289 0.988 . S
C937 C310 0.988 . S
C1255 C958 0.988 . S
C1192 C979 0.988 . S
C1234 C1000 0.988 . S
C1021 C580 0.988 . S
C1528 C1042 0.988 . S
C541 C1063 0.988 . S
C1570 C1084 0.988 . S
C1105 C625 0.988 . S
C1126 C1651 0.988 . S
C664 C1147 0.988 . S
C1612 C1168 0.988 . S
C898 C1189 0.988 . S
C1210 C1927 0.988 . S
C1231 C1948 0.988 . S
C1885 C1252 0.988 . S
C982 C1273 0.988 . S
C856 C1294 0.988 . S
C1003 C1315 0.988 . S
C961 C1336 0.988 . S
C706 C1357 0.988 . S
C1843 C1378 0.988 . S
C1399 C769 0.988 . S
C1801 C1420 0.988 . S
C1822 C1441 0.988 . S
C1462 C751 0.988 . S
C1483 C688 0.988 . S
C1504 C727 0.988 . S
C1525 C79 0.988 . S
C1024 C1546 0.988 . S
C1567 C37 0.988 . S
C1591 C1066 0.988 . S
C1609 C121 0.988 . S
C1150 C1630 0.988 . S
C163 C1654 0.988 . S
C1675 C1108 0.988 . S
C394 C1693 0.988 . S
C1423 C1717 0.988 . S
C1738 C1444 0.988 . S
C1756 C1381 0.988 . S
C1780 C478 0.988 . S
C1798 C352 0.988 . S
C1819 C499 0.988 . S
C457 C1840 0.988 . S
C205 C1861 0.988 . S
C1882 C1339 0.988 . S
C1903 C268 0.988 . S
C1924 C1297 0.988 . S
C1318 C1945 0.988 . S
C247 C1966 0.988 . S
C184 C1987 0.988 . S
C2008 C226 0.988 . S
C15 C435 1.841 1_455 S
C1380 C36 1.841 . S
C57 C1401 1.841 . S
C78 C1422 1.841 1_554 S
C99 C1506 1.841 1_455 S
C120 C456 1.841 . S
C1485 C141 1.841 . S
C351 C162 1.841 1_554 S
C183 C330 1.841 1_545 S
C267 C204 1.841 1_565 S
C225 C288 1.841 1_565 S
C246 C309 1.841 1_565 S
C372 C1044 1.841 1_556 S
C393 C1065 1.841 1_455 S
C414 C1086 1.841 . S
C477 C1149 1.841 1_455 S
C1107 C498 1.841 . S
C519 C939 1.841 1_655 S
C540 C1884 1.841 . S
C1905 C561 1.841 . S
C1926 C585 1.841 1_554 S
C603 C2010 1.841 1_655 S
C624 C960 1.841 . S
C1989 C648 1.841 . S
C669 C855 1.841 1_554 S
C834 C687 1.841 1_545 S
C774 C711 1.841 1_545 S
C792 C732 1.841 1_565 S
C750 C813 1.841 1_545 S
C876 C1548 1.841 1_554 S
C1569 C897 1.841 1_455 S
C1593 C918 1.841 . S
C981 C1656 1.841 1_655 S
C1611 C1002 1.841 . S
C1443 C1023 1.841 . S
C1464 C1128 1.841 1_554 S
C1359 C1170 1.841 . S
C1191 C1338 1.841 . S
C1212 C1275 1.841 . S
C1296 C1233 1.841 . S
C1317 C1254 1.841 . S
C1527 C1947 1.841 . S
C1968 C1632 1.841 1_556 S
C1677 C1863 1.841 . S
C1695 C1842 1.841 . S
C1782 C1719 1.841 . S
C1800 C1740 1.841 . S
C1758 C1821 1.841 . S
C18 C920 1.356 . S
C941 C39 1.356 . S
C878 C60 1.356 . S
C1907 C81 1.356 . S
C102 C1970 1.356 . S
C1991 C123 1.356 . S
C144 C1865 1.356 . S
C2012 C165 1.356 . S
C563 C186 1.356 . S
C1589 C207 1.356 . S
C228 C521 1.356 . S
C1550 C249 1.356 . S
C270 C644 1.356 . S
C291 C1673 1.356 . S
C312 C605 1.356 . S
C333 C1634 1.356 . S
C354 C1778 1.356 . S
C689 C375 1.356 . S
C1715 C396 1.356 . S
C417 C728 1.356 . S
C438 C752 1.356 . S
C459 C1823 1.356 . S
C480 C1844 1.356 . S
C501 C1802 1.356 . S
C416 C522 1.356 . S
C543 C437 1.356 . S
C374 C564 1.356 . S
C582 C1403 1.356 . S
C606 C1466 1.356 . S
C1487 C627 1.356 . S
C1361 C645 1.356 . S
C666 C1508 1.356 . S
C59 C690 1.356 . S
C708 C1088 1.356 . S
C729 C17 1.356 . S
C1046 C753 1.356 . S
C143 C771 1.356 . S
C795 C1172 1.356 . S
C816 C101 1.356 . S
C1130 C837 1.356 . S
C858 C1277 1.356 . S
C879 C185 1.356 . S
C1214 C900 1.356 . S
C921 C227 1.356 . S
C248 C942 1.356 . S
C963 C1319 1.356 . S
C1340 C984 1.356 . S
C1298 C1005 1.356 . S
C1928 C1026 1.356 . S
C1949 C1047 1.356 . S
C1068 C1886 1.356 . S
C1089 C899 1.356 . S
C1110 C962 1.356 . S
C1131 C983 1.356 . S
C857 C1152 1.356 . S
C1004 C1173 1.356 . S
C1194 C1571 1.356 . S
C1215 C581 1.356 . S
C1236 C1529 1.356 . S
C1257 C542 1.356 . S
C1278 C1652 1.356 . S
C1299 C665 1.356 . S
C1320 C1613 1.356 . S
C1341 C626 1.356 . S
C770 C1362 1.356 . S
C1697 C1383 1.356 . S
C707 C1404 1.356 . S
C1736 C1425 1.356 . S
C1446 C1760 1.356 . S
C1467 C815 1.356 . S
C1488 C836 1.356 . S
C1509 C794 1.356 . S
C1424 C1530 1.356 . S
C1445 C1551 1.356 . S
C1572 C1382 1.356 . S
C1590 C395 1.356 . S
C458 C1614 1.356 . S
C1635 C479 1.356 . S
C353 C1653 1.356 . S
C500 C1674 1.356 . S
C1698 C1067 1.356 . S
C1716 C80 1.356 . S
C1737 C1025 1.356 . S
C1761 C38 1.356 . S
C1151 C1779 1.356 . S
C164 C1803 1.356 . S
C1109 C1824 1.356 . S
C1845 C122 1.356 . S
C269 C1866 1.356 . S
C1887 C1193 1.356 . S
C1908 C206 1.356 . S
C1235 C1929 1.356 . S
C1950 C1256 1.356 . S
C1971 C311 1.356 . S
C332 C1992 1.356 . S
C2013 C290 1.356 . S
C14 C203 1.529 . S
C224 C35 1.529 . S
C56 C245 1.529 . S
C182 C77 1.529 . S
C329 C98 1.529 . S
C266 C119 1.529 . S
C140 C287 1.529 . S
C161 C308 1.529 . S
C350 C392 1.529 . S
C1484 C371 1.529 . S
C413 C1505 1.529 . S
C1463 C434 1.529 . S
C1442 C455 1.529 . S
C476 C1379 1.529 . S
C497 C1421 1.529 . S
C710 C518 1.529 . S
C539 C731 1.529 . S
C560 C749 1.529 . S
C686 C584 1.529 . S
C833 C602 1.529 . S
C773 C623 1.529 . S
C791 C647 1.529 . S
C812 C668 1.529 . S
C896 C854 1.529 . S
C875 C1988 1.529 . S
C917 C2009 1.529 . S
C938 C1967 1.529 . S
C1946 C959 1.529 . S
C1883 C980 1.529 . S
C1925 C1001 1.529 . S
C1022 C1211 1.529 . S
C1043 C1232 1.529 . S
C1064 C1253 1.529 . S
C1085 C1190 1.529 . S
C1337 C1106 1.529 . S
C1127 C1274 1.529 . S
C1295 C1148 1.529 . S
C1316 C1169 1.529 . S
C1400 C1358 1.529 . S
C1526 C1718 1.529 . S
C1739 C1547 1.529 . S
C1568 C1757 1.529 . S
C1694 C1592 1.529 . S
C1610 C1841 1.529 . S
C1781 C1631 1.529 . S
C1655 C1799 1.529 . S
C1676 C1820 1.529 . S
C1862 C1904 1.529 . S
