# Generated by pormake.
# Topology yfq, (5)-cn, num edge types: 1
# Building blocks:
#     Node 0, Type 0, BuildingBlock: XOMCOT_clean_sbu_1, # of connection points: 5
#     Node 1, Type 0, BuildingBlock: XOMCOT_clean_sbu_1, # of connection points: 5
#     Node 2, Type 0, BuildingBlock: XOMCOT_clean_sbu_1, # of connection points: 5
#     Node 3, Type 0, BuildingBlock: XOMCOT_clean_sbu_1, # of connection points: 5
#     Node 4, Type 0, BuildingBlock: XOMCOT_clean_sbu_1, # of connection points: 5
#     Node 5, Type 0, BuildingBlock: XOMCOT_clean_sbu_1, # of connection points: 5
#     Node 6, Type 0, BuildingBlock: XOMCOT_clean_sbu_1, # of connection points: 5
#     Node 7, Type 0, BuildingBlock: XOMCOT_clean_sbu_1, # of connection points: 5
#     Node 8, Type 0, BuildingBlock: XOMCOT_clean_sbu_1, # of connection points: 5
#     Node 9, Type 0, BuildingBlock: XOMCOT_clean_sbu_1, # of connection points: 5
#     Node 10, Type 0, BuildingBlock: XOMCOT_clean_sbu_1, # of connection points: 5
#     Node 11, Type 0, BuildingBlock: XOMCOT_clean_sbu_1, # of connection points: 5
#     Node 12, Type 0, BuildingBlock: XOMCOT_clean_sbu_1, # of connection points: 5
#     Node 13, Type 0, BuildingBlock: XOMCOT_clean_sbu_1, # of connection points: 5
#     Node 14, Type 0, BuildingBlock: XOMCOT_clean_sbu_1, # of connection points: 5
#     Node 15, Type 0, BuildingBlock: XOMCOT_clean_sbu_1, # of connection points: 5
#     Node 16, Type 0, BuildingBlock: XOMCOT_clean_sbu_1, # of connection points: 5
#     Node 17, Type 0, BuildingBlock: XOMCOT_clean_sbu_1, # of connection points: 5
#     Node 18, Type 0, BuildingBlock: XOMCOT_clean_sbu_1, # of connection points: 5
#     Node 19, Type 0, BuildingBlock: XOMCOT_clean_sbu_1, # of connection points: 5
#     Node 20, Type 0, BuildingBlock: XOMCOT_clean_sbu_1, # of connection points: 5
#     Node 21, Type 0, BuildingBlock: XOMCOT_clean_sbu_1, # of connection points: 5
#     Node 22, Type 0, BuildingBlock: XOMCOT_clean_sbu_1, # of connection points: 5
#     Node 23, Type 0, BuildingBlock: XOMCOT_clean_sbu_1, # of connection points: 5
#     Node 24, Type 0, BuildingBlock: XOMCOT_clean_sbu_1, # of connection points: 5
#     Node 25, Type 0, BuildingBlock: XOMCOT_clean_sbu_1, # of connection points: 5
#     Node 26, Type 0, BuildingBlock: XOMCOT_clean_sbu_1, # of connection points: 5
#     Node 27, Type 0, BuildingBlock: XOMCOT_clean_sbu_1, # of connection points: 5
#     Node 28, Type 0, BuildingBlock: XOMCOT_clean_sbu_1, # of connection points: 5
#     Node 29, Type 0, BuildingBlock: XOMCOT_clean_sbu_1, # of connection points: 5
#     Node 30, Type 0, BuildingBlock: XOMCOT_clean_sbu_1, # of connection points: 5
#     Node 31, Type 0, BuildingBlock: XOMCOT_clean_sbu_1, # of connection points: 5
#     Edge 32, Type (0, 0), BuildingBlock: CIFDUS_clean_linker_0, # of connection points: 2
#     Edge 33, Type (0, 0), BuildingBlock: CIFDUS_clean_linker_0, # of connection points: 2
#     Edge 34, Type (0, 0), BuildingBlock: CIFDUS_clean_linker_0, # of connection points: 2
#     Edge 35, Type (0, 0), BuildingBlock: CIFDUS_clean_linker_0, # of connection points: 2
#     Edge 36, Type (0, 0), BuildingBlock: CIFDUS_clean_linker_0, # of connection points: 2
#     Edge 37, Type (0, 0), BuildingBlock: CIFDUS_clean_linker_0, # of connection points: 2
#     Edge 38, Type (0, 0), BuildingBlock: CIFDUS_clean_linker_0, # of connection points: 2
#     Edge 39, Type (0, 0), BuildingBlock: CIFDUS_clean_linker_0, # of connection points: 2
#     Edge 40, Type (0, 0), BuildingBlock: CIFDUS_clean_linker_0, # of connection points: 2
#     Edge 41, Type (0, 0), BuildingBlock: CIFDUS_clean_linker_0, # of connection points: 2
#     Edge 42, Type (0, 0), BuildingBlock: CIFDUS_clean_linker_0, # of connection points: 2
#     Edge 43, Type (0, 0), BuildingBlock: CIFDUS_clean_linker_0, # of connection points: 2
#     Edge 44, Type (0, 0), BuildingBlock: CIFDUS_clean_linker_0, # of connection points: 2
#     Edge 45, Type (0, 0), BuildingBlock: CIFDUS_clean_linker_0, # of connection points: 2
#     Edge 46, Type (0, 0), BuildingBlock: CIFDUS_clean_linker_0, # of connection points: 2
#     Edge 47, Type (0, 0), BuildingBlock: CIFDUS_clean_linker_0, # of connection points: 2
#     Edge 48, Type (0, 0), BuildingBlock: CIFDUS_clean_linker_0, # of connection points: 2
#     Edge 49, Type (0, 0), BuildingBlock: CIFDUS_clean_linker_0, # of connection points: 2
#     Edge 50, Type (0, 0), BuildingBlock: CIFDUS_clean_linker_0, # of connection points: 2
#     Edge 51, Type (0, 0), BuildingBlock: CIFDUS_clean_linker_0, # of connection points: 2
#     Edge 52, Type (0, 0), BuildingBlock: CIFDUS_clean_linker_0, # of connection points: 2
#     Edge 53, Type (0, 0), BuildingBlock: CIFDUS_clean_linker_0, # of connection points: 2
#     Edge 54, Type (0, 0), BuildingBlock: CIFDUS_clean_linker_0, # of connection points: 2
#     Edge 55, Type (0, 0), BuildingBlock: CIFDUS_clean_linker_0, # of connection points: 2
#     Edge 56, Type (0, 0), BuildingBlock: CIFDUS_clean_linker_0, # of connection points: 2
#     Edge 57, Type (0, 0), BuildingBlock: CIFDUS_clean_linker_0, # of connection points: 2
#     Edge 58, Type (0, 0), BuildingBlock: CIFDUS_clean_linker_0, # of connection points: 2
#     Edge 59, Type (0, 0), BuildingBlock: CIFDUS_clean_linker_0, # of connection points: 2
#     Edge 60, Type (0, 0), BuildingBlock: CIFDUS_clean_linker_0, # of connection points: 2
#     Edge 61, Type (0, 0), BuildingBlock: CIFDUS_clean_linker_0, # of connection points: 2
#     Edge 62, Type (0, 0), BuildingBlock: CIFDUS_clean_linker_0, # of connection points: 2
#     Edge 63, Type (0, 0), BuildingBlock: CIFDUS_clean_linker_0, # of connection points: 2
#     Edge 64, Type (0, 0), BuildingBlock: CIFDUS_clean_linker_0, # of connection points: 2
#     Edge 65, Type (0, 0), BuildingBlock: CIFDUS_clean_linker_0, # of connection points: 2
#     Edge 66, Type (0, 0), BuildingBlock: CIFDUS_clean_linker_0, # of connection points: 2
#     Edge 67, Type (0, 0), BuildingBlock: CIFDUS_clean_linker_0, # of connection points: 2
#     Edge 68, Type (0, 0), BuildingBlock: CIFDUS_clean_linker_0, # of connection points: 2
#     Edge 69, Type (0, 0), BuildingBlock: CIFDUS_clean_linker_0, # of connection points: 2
#     Edge 70, Type (0, 0), BuildingBlock: CIFDUS_clean_linker_0, # of connection points: 2
#     Edge 71, Type (0, 0), BuildingBlock: CIFDUS_clean_linker_0, # of connection points: 2
#     Edge 72, Type (0, 0), BuildingBlock: CIFDUS_clean_linker_0, # of connection points: 2
#     Edge 73, Type (0, 0), BuildingBlock: CIFDUS_clean_linker_0, # of connection points: 2
#     Edge 74, Type (0, 0), BuildingBlock: CIFDUS_clean_linker_0, # of connection points: 2
#     Edge 75, Type (0, 0), BuildingBlock: CIFDUS_clean_linker_0, # of connection points: 2
#     Edge 76, Type (0, 0), BuildingBlock: CIFDUS_clean_linker_0, # of connection points: 2
#     Edge 77, Type (0, 0), BuildingBlock: CIFDUS_clean_linker_0, # of connection points: 2
#     Edge 78, Type (0, 0), BuildingBlock: CIFDUS_clean_linker_0, # of connection points: 2
#     Edge 79, Type (0, 0), BuildingBlock: CIFDUS_clean_linker_0, # of connection points: 2
#     Edge 80, Type (0, 0), BuildingBlock: CIFDUS_clean_linker_0, # of connection points: 2
#     Edge 81, Type (0, 0), BuildingBlock: CIFDUS_clean_linker_0, # of connection points: 2
#     Edge 82, Type (0, 0), BuildingBlock: CIFDUS_clean_linker_0, # of connection points: 2
#     Edge 83, Type (0, 0), BuildingBlock: CIFDUS_clean_linker_0, # of connection points: 2
#     Edge 84, Type (0, 0), BuildingBlock: CIFDUS_clean_linker_0, # of connection points: 2
#     Edge 85, Type (0, 0), BuildingBlock: CIFDUS_clean_linker_0, # of connection points: 2
#     Edge 86, Type (0, 0), BuildingBlock: CIFDUS_clean_linker_0, # of connection points: 2
#     Edge 87, Type (0, 0), BuildingBlock: CIFDUS_clean_linker_0, # of connection points: 2
#     Edge 88, Type (0, 0), BuildingBlock: CIFDUS_clean_linker_0, # of connection points: 2
#     Edge 89, Type (0, 0), BuildingBlock: CIFDUS_clean_linker_0, # of connection points: 2
#     Edge 90, Type (0, 0), BuildingBlock: CIFDUS_clean_linker_0, # of connection points: 2
#     Edge 91, Type (0, 0), BuildingBlock: CIFDUS_clean_linker_0, # of connection points: 2
#     Edge 92, Type (0, 0), BuildingBlock: CIFDUS_clean_linker_0, # of connection points: 2
#     Edge 93, Type (0, 0), BuildingBlock: CIFDUS_clean_linker_0, # of connection points: 2
#     Edge 94, Type (0, 0), BuildingBlock: CIFDUS_clean_linker_0, # of connection points: 2
#     Edge 95, Type (0, 0), BuildingBlock: CIFDUS_clean_linker_0, # of connection points: 2
#     Edge 96, Type (0, 0), BuildingBlock: CIFDUS_clean_linker_0, # of connection points: 2
#     Edge 97, Type (0, 0), BuildingBlock: CIFDUS_clean_linker_0, # of connection points: 2
#     Edge 98, Type (0, 0), BuildingBlock: CIFDUS_clean_linker_0, # of connection points: 2
#     Edge 99, Type (0, 0), BuildingBlock: CIFDUS_clean_linker_0, # of connection points: 2
#     Edge 100, Type (0, 0), BuildingBlock: CIFDUS_clean_linker_0, # of connection points: 2
#     Edge 101, Type (0, 0), BuildingBlock: CIFDUS_clean_linker_0, # of connection points: 2
#     Edge 102, Type (0, 0), BuildingBlock: CIFDUS_clean_linker_0, # of connection points: 2
#     Edge 103, Type (0, 0), BuildingBlock: CIFDUS_clean_linker_0, # of connection points: 2
#     Edge 104, Type (0, 0), BuildingBlock: CIFDUS_clean_linker_0, # of connection points: 2
#     Edge 105, Type (0, 0), BuildingBlock: CIFDUS_clean_linker_0, # of connection points: 2
#     Edge 106, Type (0, 0), BuildingBlock: CIFDUS_clean_linker_0, # of connection points: 2
#     Edge 107, Type (0, 0), BuildingBlock: CIFDUS_clean_linker_0, # of connection points: 2
#     Edge 108, Type (0, 0), BuildingBlock: CIFDUS_clean_linker_0, # of connection points: 2
#     Edge 109, Type (0, 0), BuildingBlock: CIFDUS_clean_linker_0, # of connection points: 2
#     Edge 110, Type (0, 0), BuildingBlock: CIFDUS_clean_linker_0, # of connection points: 2
#     Edge 111, Type (0, 0), BuildingBlock: CIFDUS_clean_linker_0, # of connection points: 2
# Relax obj value: 0.547
# Max RMSD: 0.297
# Mean RMSD: 0.297
data_MOF--net-yfq--node1-XOMCOT_clean_sbu_1--edge1-CIFDUS_clean_linker_0
_symmetry_space_group_name_H-M    P1
_symmetry_Int_Tables_number       1
_symmetry_cell_setting            triclinic
loop_
_symmetry_equiv_pos_as_xyz
'x, y, z'
_cell_length_a     46.356506
_cell_length_b     46.170254
_cell_length_c     53.847992
_cell_angle_alpha  89.998819
_cell_angle_beta   90.009135
_cell_angle_gamma 89.847932
loop_
_atom_site_label
_atom_site_type_symbol
_atom_site_fract_x
_atom_site_fract_y
_atom_site_fract_z
_atom_type_partial_charge
C0 C 0.18977 0.20422 0.27839 0.0
C1 C 0.19793 0.21716 0.30024 0.0
N2 N 0.17847 0.23785 0.30573 0.0
N3 N 0.16524 0.21662 0.27008 0.0
C4 C 0.15884 0.23714 0.28719 0.0
H5 H 0.2002 0.18581 0.2698 0.0
Co6 Co 0.14441 0.20168 0.24339 0.0
C7 C 0.10218 0.25689 0.24259 0.0
O8 O 0.11274 0.28254 0.2478 0.0
N9 N 0.12347 0.18594 0.21682 0.0
C10 C 0.08685 0.16839 0.19485 0.0
C11 C 0.09479 0.18092 0.21687 0.0
C12 C 0.13248 0.17622 0.1944 0.0
N13 N 0.11056 0.16536 0.18067 0.0
O14 O 0.16952 0.22184 0.22163 0.0
H15 H 0.08026 0.18625 0.23186 0.0
H16 H 0.15462 0.17696 0.18822 0.0
O17 O 0.11886 0.23488 0.24289 0.0
C18 C 0.19396 0.21009 0.21767 0.0
O19 O 0.1963 0.18188 0.22027 0.0
N20 N 0.12178 0.18158 0.26593 0.0
C21 C 0.0994 0.15279 0.30669 0.0
C22 C 0.08793 0.17943 0.29919 0.0
C23 C 0.09983 0.19376 0.27917 0.0
C24 C 0.13193 0.1547 0.27179 0.0
C25 C 0.12102 0.13976 0.29232 0.0
H26 H 0.09201 0.21513 0.27541 0.0
H27 H 0.14979 0.14567 0.26139 0.0
H28 H 0.13911 0.24971 0.28719 0.0
H29 H 0.21595 0.21091 0.31188 0.0
H30 H 0.06508 0.16279 0.18943 0.0
H31 H 0.07069 0.18986 0.30946 0.0
H32 H 0.13033 0.11912 0.29759 0.0
C33 C 0.02713 0.92625 0.55215 0.0
C34 C 0.00707 0.93455 0.56916 0.0
N35 N 0.99003 0.91175 0.57383 0.0
N36 N 0.02278 0.89832 0.54541 0.0
C37 C 0.99972 0.89008 0.55905 0.0
H38 H 0.04524 0.93936 0.54678 0.0
Co39 Co 0.04719 0.87836 0.52275 0.0
C40 C 0.0155 0.8349 0.51926 0.0
O41 O 0.03308 0.83222 0.53831 0.0
N42 N 0.07043 0.86003 0.4987 0.0
C43 C 0.09715 0.82827 0.47757 0.0
C44 C 0.08527 0.8349 0.50045 0.0
C45 C 0.07358 0.86817 0.47474 0.0
N46 N 0.08982 0.84943 0.46153 0.0
O47 O 0.04148 0.91249 0.50169 0.0
H48 H 0.08698 0.82204 0.51718 0.0
H49 H 0.06347 0.88709 0.46671 0.0
O50 O 0.01461 0.8594 0.5081 0.0
C51 C 0.05272 0.93761 0.49951 0.0
O52 O 0.07876 0.94227 0.50815 0.0
N53 N 0.08077 0.8915 0.54024 0.0
C54 C 0.12908 0.8813 0.57057 0.0
C55 C 0.1014 0.88286 0.5806 0.0
C56 C 0.07788 0.88651 0.56519 0.0
C57 C 0.10799 0.8934 0.53038 0.0
C58 C 0.1325 0.88778 0.5452 0.0
H59 H 0.05741 0.88123 0.57341 0.0
H60 H 0.11092 0.89588 0.51058 0.0
H61 H 0.99133 0.86824 0.55934 0.0
H62 H 0.00615 0.95534 0.57843 0.0
H63 H 0.11023 0.80953 0.47312 0.0
H64 H 0.09723 0.8769 0.59973 0.0
H65 H 0.15354 0.88631 0.53655 0.0
C66 C 0.3317 0.81525 0.79552 0.0
C67 C 0.32188 0.79739 0.8141 0.0
N68 N 0.33617 0.77206 0.81257 0.0
N69 N 0.35296 0.80186 0.7827 0.0
C70 C 0.35405 0.77508 0.79291 0.0
H71 H 0.32273 0.83622 0.79113 0.0
Co72 Co 0.3714 0.81558 0.75349 0.0
C73 C 0.41848 0.77489 0.77173 0.0
O74 O 0.41528 0.78368 0.7948 0.0
N75 N 0.389 0.82894 0.72372 0.0
C76 C 0.42207 0.83669 0.69443 0.0
C77 C 0.41646 0.82342 0.71655 0.0
C78 C 0.37818 0.8453 0.7049 0.0
N79 N 0.39807 0.85047 0.68702 0.0
O80 O 0.34517 0.79167 0.73535 0.0
H81 H 0.43177 0.80995 0.72617 0.0
H82 H 0.35621 0.85313 0.70409 0.0
O83 O 0.4011 0.78423 0.75494 0.0
C84 C 0.32182 0.80598 0.73218 0.0
O85 O 0.322 0.8339 0.73686 0.0
N86 N 0.39466 0.8414 0.77217 0.0
C87 C 0.42065 0.8741 0.80902 0.0
C88 C 0.43737 0.85646 0.79361 0.0
C89 C 0.42399 0.84056 0.77492 0.0
C90 C 0.37922 0.86231 0.78421 0.0
C91 C 0.39151 0.87819 0.80354 0.0
H92 H 0.4373 0.8264 0.76402 0.0
H93 H 0.35686 0.86577 0.77961 0.0
H94 H 0.36733 0.75777 0.78582 0.0
H95 H 0.30512 0.80255 0.82737 0.0
H96 H 0.44193 0.83514 0.68392 0.0
H97 H 0.46024 0.85353 0.79703 0.0
H98 H 0.37826 0.89262 0.81459 0.0
C99 C 0.44197 0.08666 0.04937 0.0
C100 C 0.4597 0.07769 0.06817 0.0
N101 N 0.48211 0.09612 0.06954 0.0
N102 N 0.45308 0.11054 0.03874 0.0
C103 C 0.47766 0.11587 0.05131 0.0
H104 H 0.42202 0.07649 0.04378 0.0
Co105 Co 0.43412 0.127 0.01222 0.0
C106 C 0.45327 0.18744 0.00598 0.0
O107 O 0.4257 0.19366 0.0039 0.0
N108 N 0.41389 0.14186 0.98445 0.0
C109 C 0.38108 0.15715 0.95727 0.0
C110 C 0.38575 0.14864 0.98131 0.0
C111 C 0.42573 0.14659 0.96184 0.0
N112 N 0.40625 0.15578 0.94482 0.0
O113 O 0.45884 0.10511 0.99093 0.0
H114 H 0.36905 0.14738 0.99509 0.0
H115 H 0.44835 0.14312 0.95805 0.0
O116 O 0.461 0.16103 0.01017 0.0
C117 C 0.45117 0.07884 0.98809 0.0
O118 O 0.42468 0.07166 0.99416 0.0
N119 N 0.41001 0.1459 0.0352 0.0
C120 C 0.37611 0.16626 0.07404 0.0
C121 C 0.40452 0.17568 0.07133 0.0
C122 C 0.4213 0.16479 0.05215 0.0
C123 C 0.3832 0.13454 0.03903 0.0
C124 C 0.3653 0.1453 0.05782 0.0
H125 H 0.44376 0.17076 0.05175 0.0
H126 H 0.3758 0.11677 0.02761 0.0
H127 H 0.49147 0.13423 0.04763 0.0
H128 H 0.45618 0.05908 0.07999 0.0
H129 H 0.3603 0.16291 0.94961 0.0
H130 H 0.41381 0.19119 0.08414 0.0
H131 H 0.34369 0.13685 0.06009 0.0
C132 C 0.16642 0.80388 0.20398 0.0
C133 C 0.17016 0.78506 0.1845 0.0
N134 N 0.14782 0.76635 0.18413 0.0
N135 N 0.14193 0.7972 0.21605 0.0
C136 C 0.13102 0.77431 0.20361 0.0
H137 H 0.18089 0.82112 0.20934 0.0
Co138 Co 0.13049 0.81624 0.24474 0.0
C139 C 0.07224 0.79467 0.25768 0.0
O140 O 0.06592 0.82129 0.26439 0.0
N141 N 0.12027 0.83588 0.27468 0.0
C142 C 0.10878 0.86865 0.30339 0.0
C143 C 0.11344 0.864 0.27855 0.0
C144 C 0.1197 0.82405 0.29778 0.0
N145 N 0.11287 0.84356 0.31566 0.0
O146 O 0.1569 0.79221 0.26248 0.0
H147 H 0.11167 0.88052 0.26455 0.0
H148 H 0.12457 0.80152 0.3014 0.0
O149 O 0.09787 0.78877 0.24994 0.0
C150 C 0.18063 0.80556 0.26599 0.0
O151 O 0.18095 0.83384 0.26325 0.0
N152 N 0.10774 0.84083 0.22493 0.0
C153 C 0.08422 0.87682 0.18877 0.0
C154 C 0.07216 0.84971 0.19348 0.0
C155 C 0.0847 0.83168 0.21115 0.0
C156 C 0.1206 0.86664 0.21951 0.0
C157 C 0.10881 0.88537 0.20179 0.0
H158 H 0.07686 0.8098 0.2123 0.0
H159 H 0.1406 0.87238 0.2286 0.0
H160 H 0.11107 0.76389 0.20876 0.0
H161 H 0.18827 0.78518 0.17185 0.0
H162 H 0.10246 0.88907 0.31163 0.0
H163 H 0.05397 0.842 0.18272 0.0
H164 H 0.11927 0.90578 0.19774 0.0
C165 C 0.49417 0.87741 0.46102 0.0
C166 C 0.50811 0.88132 0.43886 0.0
N167 N 0.49033 0.87286 0.42049 0.0
N168 N 0.4675 0.86685 0.45678 0.0
C169 C 0.46629 0.86307 0.43193 0.0
H170 H 0.50274 0.88268 0.47913 0.0
Co171 Co 0.43941 0.86265 0.48156 0.0
C172 C 0.4657 0.81427 0.49197 0.0
O173 O 0.44772 0.80885 0.47368 0.0
N174 N 0.41253 0.85736 0.50747 0.0
C175 C 0.38341 0.83202 0.53203 0.0
C176 C 0.39814 0.83216 0.51003 0.0
C177 C 0.40712 0.87174 0.52896 0.0
N178 N 0.38906 0.85687 0.5441 0.0
O179 O 0.45326 0.8992 0.49558 0.0
H180 H 0.39903 0.81442 0.49695 0.0
H181 H 0.41743 0.89181 0.53413 0.0
O182 O 0.46681 0.84016 0.50037 0.0
C183 C 0.44279 0.92475 0.4977 0.0
O184 O 0.41515 0.92922 0.49385 0.0
N185 N 0.41127 0.88187 0.46089 0.0
C186 C 0.38194 0.88547 0.41579 0.0
C187 C 0.40512 0.90407 0.42074 0.0
C188 C 0.41885 0.90278 0.44401 0.0
C189 C 0.3861 0.86706 0.45743 0.0
C190 C 0.3708 0.86908 0.43531 0.0
H191 H 0.43848 0.91503 0.44653 0.0
H192 H 0.37929 0.85054 0.47001 0.0
H193 H 0.44737 0.85511 0.4224 0.0
H194 H 0.5296 0.88999 0.43654 0.0
H195 H 0.37118 0.81401 0.53938 0.0
H196 H 0.41437 0.91715 0.40608 0.0
H197 H 0.35292 0.85442 0.43231 0.0
C198 C 0.33494 0.19271 0.68793 0.0
C199 C 0.32629 0.20948 0.66826 0.0
N200 N 0.34263 0.23354 0.66794 0.0
N201 N 0.35673 0.20602 0.69988 0.0
C202 C 0.36091 0.23096 0.68741 0.0
H203 H 0.32586 0.17211 0.69335 0.0
Co204 Co 0.37277 0.19064 0.72836 0.0
C205 C 0.43405 0.2099 0.7298 0.0
O206 O 0.44098 0.1825 0.73225 0.0
N207 N 0.38772 0.17419 0.75827 0.0
C208 C 0.40972 0.1466 0.78665 0.0
C209 C 0.40424 0.15025 0.76185 0.0
C210 C 0.38339 0.1844 0.78158 0.0
N211 N 0.3965 0.16806 0.79904 0.0
O212 O 0.35157 0.21903 0.74646 0.0
H213 H 0.41282 0.13635 0.74755 0.0
H214 H 0.37107 0.20363 0.78593 0.0
O215 O 0.40733 0.21704 0.72708 0.0
C216 C 0.32536 0.21134 0.7492 0.0
O217 O 0.31877 0.18408 0.74512 0.0
N218 N 0.39029 0.16245 0.7085 0.0
C219 C 0.407 0.12143 0.67372 0.0
C220 C 0.41622 0.15012 0.6716 0.0
C221 C 0.40723 0.17041 0.68892 0.0
C222 C 0.37955 0.13497 0.70987 0.0
C223 C 0.38849 0.11367 0.69307 0.0
H224 H 0.41303 0.19277 0.68598 0.0
H225 H 0.36401 0.12961 0.72413 0.0
H226 H 0.37731 0.24659 0.69228 0.0
H227 H 0.30921 0.20436 0.65529 0.0
H228 H 0.42206 0.12918 0.79496 0.0
H229 H 0.43011 0.15685 0.65649 0.0
H230 H 0.38058 0.09171 0.69479 0.0
C231 C 0.06881 0.07851 0.93539 0.0
C232 C 0.05253 0.07026 0.91533 0.0
N233 N 0.03024 0.08882 0.91323 0.0
N234 N 0.057 0.10228 0.94581 0.0
C235 C 0.03324 0.1079 0.93209 0.0
H236 H 0.0887 0.06852 0.9415 0.0
Co237 Co 0.07535 0.121 0.97184 0.0
C238 C 0.02516 0.16564 0.97695 0.0
O239 O 0.00455 0.14989 0.98677 0.0
N240 N 0.09446 0.13961 -0.00161 0.0
C241 C 0.11714 0.17392 0.01984 0.0
C242 C 0.10546 0.16667 -0.00266 0.0
C243 C 0.09945 0.13108 0.02211 0.0
N244 N 0.11339 0.15155 0.03547 0.0
O245 O 0.05147 0.09955 0.99393 0.0
H246 H 0.10477 0.18065 0.98128 0.0
H247 H 0.09278 0.11048 0.02964 0.0
O248 O 0.04938 0.15405 0.97174 0.0
C249 C 0.06283 0.0749 -0.00159 0.0
O250 O 0.09035 0.07124 0.99345 0.0
N251 N 0.09889 0.13974 0.9487 0.0
C252 C 0.1334 0.16365 0.91206 0.0
C253 C 0.10368 0.16841 0.91196 0.0
C254 C 0.08677 0.15624 0.93039 0.0
C255 C 0.12784 0.13427 0.9488 0.0
C256 C 0.14576 0.14657 0.93073 0.0
H257 H 0.06378 0.15974 0.92952 0.0
H258 H 0.13699 0.12042 0.96298 0.0
H259 H 0.01949 0.1266 0.93482 0.0
H260 H 0.05726 0.05259 0.90274 0.0
H261 H 0.12666 0.19458 0.02459 0.0
H262 H 0.09359 0.18159 0.89772 0.0
H263 H 0.16879 0.1426 0.93116 0.0
C264 C 0.80963 0.7798 0.71365 0.0
C265 C 0.80637 0.76508 0.69173 0.0
N266 N 0.83238 0.76334 0.68092 0.0
N267 N 0.83772 0.78629 0.71716 0.0
C268 C 0.85098 0.77673 0.69637 0.0
H269 H 0.79227 0.78691 0.72552 0.0
Co270 Co 0.85023 0.80891 0.74371 0.0
C271 C 0.903 0.76701 0.74006 0.0
O272 O 0.89119 0.74529 0.7281 0.0
N273 N 0.86174 0.83192 0.7702 0.0
C274 C 0.86913 0.86946 0.79502 0.0
C275 C 0.85992 0.86097 0.77189 0.0
C276 C 0.87193 0.82317 0.79244 0.0
N277 N 0.8765 0.84561 0.80809 0.0
O278 O 0.83197 0.78186 0.7658 0.0
H279 H 0.85192 0.87506 0.75738 0.0
H280 H 0.87476 0.8006 0.79725 0.0
O281 O 0.88786 0.78913 0.74593 0.0
C282 C 0.80844 0.79094 0.77543 0.0
O283 O 0.80406 0.81904 0.77645 0.0
N284 N 0.86551 0.8354 0.72145 0.0
C285 C 0.8854 0.86543 0.68057 0.0
C286 C 0.90457 0.85682 0.69935 0.0
C287 C 0.89413 0.84181 0.71982 0.0
C288 C 0.84624 0.84646 0.70481 0.0
C289 C 0.85582 0.86107 0.68378 0.0
H290 H 0.9092 0.83439 0.73376 0.0
H291 H 0.82347 0.84203 0.70695 0.0
H292 H 0.87355 0.78031 0.69223 0.0
H293 H 0.78632 0.7576 0.68368 0.0
H294 H 0.86998 0.89155 0.80163 0.0
H295 H 0.92761 0.8601 0.69753 0.0
H296 H 0.84045 0.86792 0.66979 0.0
C297 C 0.99898 0.09849 0.46169 0.0
C298 C 0.01946 0.0984 0.44353 0.0
N299 N 0.01674 0.12311 0.43077 0.0
N300 N 0.98273 0.12297 0.46025 0.0
C301 C 0.99453 0.13769 0.4411 0.0
H302 H 0.99602 0.08097 0.47444 0.0
Co303 Co 0.95285 0.13495 0.48212 0.0
C304 C 0.97253 0.18554 0.4817 0.0
O305 O 0.95186 0.18245 0.46518 0.0
N306 N 0.92525 0.14799 0.50568 0.0
C307 C 0.89261 0.17546 0.52505 0.0
C308 C 0.90477 0.16857 0.50244 0.0
C309 C 0.9258 0.14365 0.53055 0.0
N310 N 0.90607 0.1599 0.54275 0.0
O311 O 0.96599 0.10443 0.50474 0.0
H312 H 0.8995 0.1785 0.48482 0.0
H313 H 0.94127 0.12981 0.53981 0.0
O314 O 0.97891 0.1636 0.49528 0.0
C315 C 0.95499 0.07985 0.51019 0.0
O316 O 0.92768 0.0749 0.50538 0.0
N317 N 0.92474 0.10971 0.46523 0.0
C318 C 0.89132 0.12285 0.42385 0.0
C319 C 0.9168 0.10675 0.42121 0.0
C320 C 0.93238 0.09894 0.44243 0.0
C321 C 0.89622 0.11659 0.46829 0.0
C322 C 0.87951 0.12495 0.4478 0.0
H323 H 0.95221 0.08728 0.43968 0.0
H324 H 0.88702 0.11886 0.48658 0.0
H325 H 0.98708 0.15863 0.43475 0.0
H326 H 0.03543 0.0817 0.44015 0.0
H327 H 0.87626 0.19179 0.52835 0.0
H328 H 0.92608 0.10244 0.40313 0.0
H329 H 0.85852 0.1347 0.4508 0.0
C330 C 0.67701 0.20559 0.19844 0.0
C331 C 0.68238 0.2231 0.17843 0.0
N332 N 0.66014 0.24159 0.17608 0.0
N333 N 0.65131 0.21277 0.20845 0.0
C334 C 0.64151 0.23495 0.19445 0.0
H335 H 0.69014 0.1875 0.2044 0.0
Co336 Co 0.63553 0.19046 0.23343 0.0
C337 C 0.57615 0.21076 0.2432 0.0
O338 O 0.56923 0.18321 0.24427 0.0
N339 N 0.6212 0.16704 0.25946 0.0
C340 C 0.60472 0.13175 0.28372 0.0
C341 C 0.61343 0.13886 0.26011 0.0
C342 C 0.61722 0.17632 0.28305 0.0
N343 N 0.60718 0.15536 0.29828 0.0
O344 O 0.65872 0.21133 0.25626 0.0
H345 H 0.61368 0.12407 0.24465 0.0
H346 H 0.62188 0.19821 0.28885 0.0
O347 O 0.60248 0.21789 0.2386 0.0
C348 C 0.68329 0.19939 0.25917 0.0
O349 O 0.68608 0.172 0.25293 0.0
N350 N 0.61563 0.1697 0.20889 0.0
C351 C 0.59722 0.14147 0.16624 0.0
C352 C 0.58544 0.16819 0.1728 0.0
C353 C 0.59529 0.18223 0.1939 0.0
C354 C 0.62838 0.14427 0.20192 0.0
C355 C 0.61893 0.12925 0.18089 0.0
H356 H 0.58753 0.20389 0.19709 0.0
H357 H 0.64648 0.13596 0.21245 0.0
H358 H 0.62029 0.24452 0.19638 0.0
H359 H 0.70012 0.22104 0.16546 0.0
H360 H 0.59706 0.1107 0.28947 0.0
H361 H 0.56908 0.17842 0.16136 0.0
H362 H 0.62881 0.1088 0.17586 0.0
C363 C 0.5745 0.92291 0.92903 0.0
C364 C 0.55793 0.9309 0.90912 0.0
N365 N 0.53177 0.9184 0.91136 0.0
N366 N 0.5592 0.90518 0.9438 0.0
C367 C 0.53316 0.903 0.93276 0.0
H368 H 0.59661 0.92921 0.93243 0.0
Co369 Co 0.57501 0.89036 0.97277 0.0
C370 C 0.52461 0.8467 0.97712 0.0
O371 O 0.50284 0.86433 0.98122 0.0
N372 N 0.59157 0.87595 0.00217 0.0
C373 C 0.61244 0.84581 0.02895 0.0
C374 C 0.60485 0.85002 0.00467 0.0
C375 C 0.59118 0.88698 0.02547 0.0
N376 N 0.60381 0.86901 0.04212 0.0
O377 O 0.54794 0.91331 0.99103 0.0
H378 H 0.60807 0.83446 0.98994 0.0
H379 H 0.58121 0.90742 0.0303 0.0
O380 O 0.54988 0.85676 0.97384 0.0
C381 C 0.55457 0.9401 0.99098 0.0
O382 O 0.58061 0.94736 0.98367 0.0
N383 N 0.60133 0.86927 0.95329 0.0
C384 C 0.63877 0.84021 0.9216 0.0
C385 C 0.60901 0.83622 0.91972 0.0
C386 C 0.59068 0.85094 0.93563 0.0
C387 C 0.63031 0.87418 0.955 0.0
C388 C 0.64966 0.85926 0.93953 0.0
H389 H 0.56775 0.84811 0.93317 0.0
H390 H 0.63839 0.88951 0.96849 0.0
H391 H 0.51579 0.89022 0.94022 0.0
H392 H 0.56522 0.94413 0.89381 0.0
H393 H 0.62212 0.82637 0.03653 0.0
H394 H 0.59995 0.8217 0.90597 0.0
H395 H 0.67265 0.86283 0.94129 0.0
C396 C 0.83096 0.19971 0.79016 0.0
C397 C 0.82143 0.21256 0.81167 0.0
N398 N 0.8387 0.23521 0.81666 0.0
N399 N 0.85431 0.21398 0.78174 0.0
C400 C 0.85832 0.23581 0.79811 0.0
H401 H 0.8224 0.18022 0.78186 0.0
Co402 Co 0.87612 0.19996 0.7553 0.0
C403 C 0.92319 0.24219 0.7448 0.0
O404 O 0.91995 0.23936 0.72069 0.0
N405 N 0.89782 0.18474 0.72819 0.0
C406 C 0.93443 0.16583 0.70691 0.0
C407 C 0.92466 0.17348 0.72998 0.0
C408 C 0.89193 0.18374 0.70346 0.0
N409 N 0.91405 0.17251 0.68997 0.0
O410 O 0.85362 0.22403 0.73401 0.0
H411 H 0.93702 0.17168 0.74693 0.0
H412 H 0.8723 0.19216 0.69539 0.0
O413 O 0.90537 0.23015 0.75964 0.0
C414 C 0.82996 0.21203 0.72772 0.0
O415 O 0.82809 0.1837 0.72935 0.0
N416 N 0.89585 0.176 0.77785 0.0
C417 C 0.91846 0.14045 0.81467 0.0
C418 C 0.92296 0.17027 0.81539 0.0
C419 C 0.91146 0.18769 0.7969 0.0
C420 C 0.89102 0.14686 0.77691 0.0
C421 C 0.9026 0.12844 0.7951 0.0
H422 H 0.91436 0.21073 0.79873 0.0
H423 H 0.87786 0.13798 0.76218 0.0
H424 H 0.8765 0.25046 0.79759 0.0
H425 H 0.80407 0.20499 0.82343 0.0
H426 H 0.9553 0.15631 0.70313 0.0
H427 H 0.93509 0.18011 0.83039 0.0
H428 H 0.89877 0.10534 0.79418 0.0
C429 C 0.54653 0.07639 0.55031 0.0
C430 C 0.52582 0.06656 0.56643 0.0
N431 N 0.50211 0.08328 0.56379 0.0
N432 N 0.53602 0.09926 0.53767 0.0
C433 C 0.50891 0.10289 0.54609 0.0
H434 H 0.56776 0.06717 0.54757 0.0
Co435 Co 0.55529 0.11629 0.51151 0.0
C436 C 0.53774 0.1787 0.514 0.0
O437 O 0.56491 0.18513 0.51763 0.0
N438 N 0.57534 0.13231 0.48355 0.0
C439 C 0.60317 0.15814 0.45787 0.0
C440 C 0.5962 0.15283 0.48219 0.0
C441 C 0.57064 0.12528 0.45941 0.0
N442 N 0.5871 0.14072 0.4436 0.0
O443 O 0.52854 0.09643 0.49028 0.0
H444 H 0.60622 0.16367 0.49765 0.0
H445 H 0.55518 0.10942 0.45318 0.0
O446 O 0.52992 0.15203 0.51178 0.0
C447 C 0.5364 0.06999 0.48845 0.0
O448 O 0.56327 0.06363 0.49411 0.0
N449 N 0.58148 0.13237 0.53462 0.0
C450 C 0.61891 0.15397 0.5705 0.0
C451 C 0.58907 0.15703 0.57324 0.0
C452 C 0.57077 0.14576 0.55533 0.0
C453 C 0.61029 0.1263 0.53309 0.0
C454 C 0.62965 0.13798 0.55038 0.0
H455 H 0.54781 0.1487 0.55774 0.0
H456 H 0.6184 0.1133 0.51789 0.0
H457 H 0.49465 0.1198 0.53951 0.0
H458 H 0.52813 0.04844 0.57901 0.0
H459 H 0.61921 0.17326 0.45119 0.0
H460 H 0.57991 0.16904 0.58863 0.0
H461 H 0.65262 0.13466 0.54805 0.0
C462 C 0.65841 0.8143 0.29942 0.0
C463 C 0.66911 0.79979 0.31972 0.0
N464 N 0.66325 0.77135 0.31705 0.0
N465 N 0.64553 0.79527 0.28408 0.0
C466 C 0.64923 0.76929 0.29509 0.0
H467 H 0.65973 0.83736 0.29606 0.0
Co468 Co 0.62926 0.80579 0.25376 0.0
C469 C 0.58903 0.75003 0.25654 0.0
O470 O 0.60554 0.72744 0.26081 0.0
N471 N 0.61368 0.81715 0.2233 0.0
C472 C 0.58206 0.83108 0.19466 0.0
C473 C 0.58537 0.8212 0.2185 0.0
C474 C 0.62718 0.82483 0.20208 0.0
N475 N 0.60839 0.83346 0.18433 0.0
O476 O 0.65655 0.78094 0.23795 0.0
H477 H 0.56819 0.81786 0.23175 0.0
H478 H 0.65034 0.82466 0.19979 0.0
O479 O 0.6 0.77526 0.25469 0.0
C480 C 0.68115 0.79302 0.2361 0.0
O481 O 0.68307 0.82092 0.24062 0.0
N482 N 0.6038 0.83044 0.2704 0.0
C483 C 0.56639 0.86575 0.297 0.0
C484 C 0.56818 0.83603 0.30193 0.0
C485 C 0.58703 0.81888 0.28864 0.0
C486 C 0.60327 0.85951 0.26569 0.0
C487 C 0.58452 0.87776 0.2789 0.0
H488 H 0.58875 0.79633 0.29371 0.0
H489 H 0.61747 0.86851 0.25176 0.0
H490 H 0.64151 0.74933 0.28733 0.0
H491 H 0.6801 0.80965 0.33528 0.0
H492 H 0.56176 0.83582 0.18557 0.0
H493 H 0.55576 0.82608 0.31669 0.0
H494 H 0.5843 0.90081 0.27518 0.0
C495 C 0.96551 0.93404 0.04756 0.0
C496 C 0.98492 0.94135 0.06578 0.0
N497 N 0.0057 0.92089 0.06642 0.0
N498 N 0.97398 0.90912 0.03676 0.0
C499 C 0.99869 0.90178 0.04842 0.0
H500 H 0.94594 0.94564 0.04296 0.0
Co501 Co 0.95275 0.89034 0.01253 0.0
C502 C 0.98925 0.84322 0.99192 0.0
O503 O 0.98245 0.85123 0.96925 0.0
N504 N 0.93053 0.87175 0.98796 0.0
C505 C 0.90827 0.83716 0.96646 0.0
C506 C 0.92081 0.84415 0.98879 0.0
C507 C 0.92306 0.88118 0.96506 0.0
N508 N 0.90978 0.86051 0.95162 0.0
O509 O 0.97314 0.91279 0.98859 0.0
H510 H 0.92391 0.82947 0.00422 0.0
H511 H 0.92866 0.90215 0.95766 0.0
O512 O 0.98087 0.8584 0.01044 0.0
C513 C 0.96125 0.9375 0.98551 0.0
O514 O 0.93438 0.9409 0.99274 0.0
N515 N 0.93264 0.87101 0.03738 0.0
C516 C 0.90258 0.85039 0.07816 0.0
C517 C 0.93162 0.84323 0.07484 0.0
C518 C 0.9463 0.85366 0.05425 0.0
C519 C 0.90431 0.87827 0.04033 0.0
C520 C 0.88859 0.86767 0.06051 0.0
H521 H 0.96891 0.84853 0.05252 0.0
H522 H 0.89408 0.8927 0.02716 0.0
H523 H 0.01037 0.8819 0.04486 0.0
H524 H 0.98329 0.95976 0.07814 0.0
H525 H 0.89939 0.81634 0.96132 0.0
H526 H 0.9429 0.82962 0.08808 0.0
H527 H 0.86605 0.87341 0.06261 0.0
C528 C 0.66966 0.68494 0.8034 0.0
C529 C 0.68042 0.70489 0.82001 0.0
N530 N 0.66524 0.72965 0.81748 0.0
N531 N 0.6477 0.69704 0.79068 0.0
C532 C 0.64552 0.72422 0.79964 0.0
H533 H 0.67761 0.66317 0.80043 0.0
Co534 Co 0.62799 0.68019 0.76442 0.0
C535 C 0.58154 0.7219 0.75016 0.0
O536 O 0.58805 0.71945 0.7265 0.0
N537 N 0.60837 0.66289 0.73751 0.0
C538 C 0.57343 0.6441 0.7142 0.0
C539 C 0.58053 0.65423 0.73738 0.0
C540 C 0.61765 0.65775 0.71409 0.0
N541 N 0.59678 0.64641 0.69949 0.0
O542 O 0.65071 0.70362 0.7429 0.0
H543 H 0.56594 0.65603 0.75298 0.0
H544 H 0.63918 0.66254 0.70767 0.0
O545 O 0.59716 0.70924 0.76643 0.0
C546 C 0.6753 0.69173 0.73958 0.0
O547 O 0.67753 0.6637 0.74346 0.0
N548 N 0.6081 0.65687 0.78692 0.0
C549 C 0.58214 0.62205 0.82241 0.0
C550 C 0.58045 0.65221 0.82415 0.0
C551 C 0.59355 0.66925 0.80625 0.0
C552 C 0.61074 0.62749 0.78524 0.0
C553 C 0.59729 0.60949 0.80264 0.0
H554 H 0.5925 0.69247 0.80835 0.0
H555 H 0.62319 0.61803 0.77029 0.0
H556 H 0.62974 0.73977 0.79318 0.0
H557 H 0.69821 0.70151 0.8327 0.0
H558 H 0.55235 0.63666 0.70843 0.0
H559 H 0.56876 0.66259 0.83916 0.0
H560 H 0.59895 0.58618 0.80087 0.0
C561 C 0.54892 0.42824 0.04959 0.0
C562 C 0.52773 0.43363 0.06672 0.0
N563 N 0.50501 0.41626 0.06179 0.0
N564 N 0.53985 0.40751 0.03394 0.0
C565 C 0.51305 0.40075 0.04158 0.0
H566 H 0.56975 0.43867 0.04858 0.0
Co567 Co 0.56143 0.39528 0.00733 0.0
C568 C 0.54212 0.3359 0.99436 0.0
O569 O 0.56944 0.32978 0.99044 0.0
N570 N 0.58395 0.38438 0.97958 0.0
C571 C 0.619 0.37153 0.95348 0.0
C572 C 0.61248 0.3786 0.9776 0.0
C573 C 0.57383 0.38118 0.95613 0.0
N574 N 0.59466 0.37312 0.93999 0.0
O575 O 0.53862 0.42047 0.98707 0.0
H576 H 0.62809 0.37947 0.99235 0.0
H577 H 0.55144 0.38429 0.95107 0.0
O578 O 0.53494 0.36186 0.00069 0.0
C579 C 0.54695 0.44675 0.98844 0.0
O580 O 0.5731 0.45178 -0.00319 0.0
N581 N 0.58364 0.37294 0.02964 0.0
C582 C 0.61418 0.34668 0.06816 0.0
C583 C 0.58654 0.33723 0.06187 0.0
C584 C 0.57131 0.35122 0.04323 0.0
C585 C 0.60961 0.38398 0.03691 0.0
C586 C 0.6256 0.37082 0.05591 0.0
H587 H 0.54898 0.34545 0.04098 0.0
H588 H 0.61763 0.40357 0.02836 0.0
H589 H 0.5 0.38456 0.03252 0.0
H590 H 0.52958 0.44875 0.08194 0.0
H591 H 0.64021 0.3664 0.94629 0.0
H592 H 0.57616 0.31993 0.0721 0.0
H593 H 0.64641 0.37955 0.06111 0.0
C594 C 0.84407 0.28883 0.3078 0.0
C595 C 0.83791 0.27222 0.32825 0.0
N596 N 0.85549 0.24893 0.32815 0.0
N597 N 0.86554 0.27629 0.29478 0.0
C598 C 0.87185 0.25171 0.30745 0.0
H599 H 0.83421 0.30937 0.30311 0.0
Co600 Co 0.88183 0.29439 0.26694 0.0
C601 C 0.93011 0.25696 0.25027 0.0
O602 O 0.91906 0.25542 0.22784 0.0
N603 N 0.89775 0.31322 0.2386 0.0
C604 C 0.9292 0.33428 0.2131 0.0
C605 C 0.92465 0.32418 0.2368 0.0
C606 C 0.88637 0.3172 0.21564 0.0
N607 N 0.90511 0.32987 0.1996 0.0
O608 O 0.8602 0.26861 0.24674 0.0
H609 H 0.94045 0.3239 0.25159 0.0
H610 H 0.86487 0.31044 0.21065 0.0
O611 O 0.91555 0.26893 0.2676 0.0
C612 C 0.83474 0.27908 0.24567 0.0
O613 O 0.83123 0.3065 0.25157 0.0
N614 N 0.90064 0.32007 0.28829 0.0
C615 C 0.92065 0.35655 0.32534 0.0
C616 C 0.92671 0.32698 0.32612 0.0
C617 C 0.91658 0.30913 0.30746 0.0
C618 C 0.89434 0.34894 0.28721 0.0
C619 C 0.90471 0.36788 0.30548 0.0
H620 H 0.92034 0.28621 0.30928 0.0
H621 H 0.88081 0.35717 0.27242 0.0
H622 H 0.88917 0.23707 0.30244 0.0
H623 H 0.8222 0.27729 0.34248 0.0
H624 H 0.94927 0.34306 0.20622 0.0
H625 H 0.93921 0.3177 0.34118 0.0
H626 H 0.89998 0.39082 0.30438 0.0
C627 C 0.93863 0.58663 0.55079 0.0
C628 C 0.9561 0.58184 0.57086 0.0
N629 N 0.97793 0.60102 0.57007 0.0
N630 N 0.94933 0.60858 0.53721 0.0
C631 C 0.97338 0.61698 0.5493 0.0
H632 H 0.91917 0.57488 0.54631 0.0
Co633 Co 0.93076 0.61936 0.5084 0.0
C634 C 0.94939 0.67831 0.49401 0.0
O635 O 0.92274 0.68269 0.48661 0.0
N636 N 0.91099 0.62797 0.47862 0.0
C637 C 0.87808 0.63733 0.44957 0.0
C638 C 0.8826 0.63274 0.47442 0.0
C639 C 0.92309 0.62922 0.45573 0.0
N640 N 0.90356 0.63512 0.43784 0.0
O641 O 0.95698 0.5952 0.49064 0.0
H642 H 0.86572 0.63281 0.48808 0.0
H643 H 0.94591 0.62627 0.45226 0.0
O644 O 0.95658 0.6534 0.50291 0.0
C645 C 0.95157 0.5682 0.49066 0.0
O646 O 0.92608 0.55955 0.49825 0.0
N647 N 0.9055 0.64196 0.52815 0.0
C648 C 0.87169 0.66995 0.56394 0.0
C649 C 0.89998 0.67881 0.55919 0.0
C650 C 0.91654 0.66431 0.54181 0.0
C651 C 0.87883 0.63141 0.53391 0.0
C652 C 0.86116 0.64557 0.55126 0.0
H653 H 0.93901 0.67005 0.54098 0.0
H654 H 0.87151 0.61143 0.52556 0.0
H655 H 0.98676 0.63481 0.54332 0.0
H656 H 0.95281 0.56547 0.58494 0.0
H657 H 0.85746 0.64123 0.44072 0.0
H658 H 0.91009 0.69586 0.56989 0.0
H659 H 0.83987 0.63709 0.55511 0.0
C660 C 0.67658 0.30621 0.68724 0.0
C661 C 0.68168 0.28469 0.67011 0.0
N662 N 0.66199 0.26362 0.67355 0.0
N663 N 0.65371 0.29883 0.70126 0.0
C664 C 0.6453 0.27282 0.69257 0.0
H665 H 0.6891 0.32572 0.68975 0.0
Co666 Co 0.64132 0.31967 0.72845 0.0
C667 C 0.58116 0.30083 0.73925 0.0
O668 O 0.57512 0.32801 0.74427 0.0
N669 N 0.62985 0.34116 0.75689 0.0
C670 C 0.61639 0.37537 0.78371 0.0
C671 C 0.62374 0.36969 0.75955 0.0
C672 C 0.6264 0.3302 0.78007 0.0
N673 N 0.61804 0.35054 0.79662 0.0
O674 O 0.66529 0.29532 0.74829 0.0
H675 H 0.62449 0.38592 0.74527 0.0
H676 H 0.62967 0.30761 0.78467 0.0
O677 O 0.60709 0.29381 0.73303 0.0
C678 C 0.68956 0.30734 0.75245 0.0
O679 O 0.69182 0.3354 0.74888 0.0
N680 N 0.62112 0.34413 0.70686 0.0
C681 C 0.59777 0.38206 0.6724 0.0
C682 C 0.58573 0.35464 0.67578 0.0
C683 C 0.59828 0.33559 0.69261 0.0
C684 C 0.63479 0.3696 0.70178 0.0
C685 C 0.62296 0.38944 0.68504 0.0
H686 H 0.59011 0.31378 0.6934 0.0
H687 H 0.6548 0.37469 0.71113 0.0
H688 H 0.62725 0.26087 0.70002 0.0
H689 H 0.69887 0.28442 0.65652 0.0
H690 H 0.61103 0.3964 0.79135 0.0
H691 H 0.56707 0.34786 0.66516 0.0
H692 H 0.63339 0.41008 0.6819 0.0
C693 C 0.94096 0.41369 0.93939 0.0
C694 C 0.95822 0.4246 0.92093 0.0
N695 N 0.98523 0.41464 0.92452 0.0
N696 N 0.95686 0.39668 0.95447 0.0
C697 C 0.98379 0.39777 0.94504 0.0
H698 H 0.91837 0.41858 0.94213 0.0
Co699 Co 0.94228 0.38146 0.98382 0.0
C700 C 0.99405 0.33691 0.98591 0.0
O701 O 0.01778 0.35225 0.9877 0.0
N702 N 0.92683 0.36642 0.0139 0.0
C703 C 0.9058 0.33607 0.04045 0.0
C704 C 0.91217 0.34128 0.01602 0.0
C705 C 0.92912 0.376 0.03771 0.0
N706 N 0.91638 0.35787 0.05429 0.0
O707 O 0.96857 0.40636 0.00142 0.0
H708 H 0.90703 0.32679 0.00093 0.0
H709 H 0.94024 0.39567 0.04283 0.0
O710 O 0.96962 0.34956 0.98469 0.0
C711 C 0.96119 0.43302 0.00014 0.0
O712 O 0.9344 0.43903 0.99398 0.0
N713 N 0.91672 0.3589 0.96448 0.0
C714 C 0.8809 0.33409 0.92882 0.0
C715 C 0.90915 0.32429 0.9319 0.0
C716 C 0.92687 0.33731 0.94937 0.0
C717 C 0.88885 0.36821 0.96227 0.0
C718 C 0.8705 0.35621 0.94425 0.0
H719 H 0.94922 0.33096 0.94931 0.0
H720 H 0.88134 0.38604 0.97361 0.0
H721 H 1.00202 0.38673 0.95317 0.0
H722 H 0.95146 0.43926 0.90637 0.0
H723 H 0.89522 0.31689 0.04747 0.0
H724 H 0.91804 0.30778 0.91978 0.0
H725 H 0.84882 0.36458 0.94196 0.0
C726 C 0.82694 0.69833 0.1907 0.0
C727 C 0.81972 0.71801 0.17268 0.0
N728 N 0.84048 0.73835 0.17185 0.0
N729 N 0.85207 0.70616 0.20124 0.0
C730 C 0.85978 0.73076 0.18957 0.0
H731 H 0.81475 0.6793 0.19579 0.0
Co732 Co 0.86757 0.68419 0.22639 0.0
C733 C 0.92608 0.70481 0.23796 0.0
O734 O 0.93299 0.67719 0.23786 0.0
N735 N 0.88135 0.66114 0.25283 0.0
C736 C 0.89523 0.62646 0.27905 0.0
C737 C 0.88839 0.63278 0.25474 0.0
C738 C 0.88407 0.67138 0.27623 0.0
N739 N 0.89228 0.65082 0.29253 0.0
O740 O 0.84237 0.70425 0.24845 0.0
H741 H 0.88807 0.6172 0.23985 0.0
H742 H 0.87982 0.69366 0.28129 0.0
O743 O 0.89981 0.71234 0.23317 0.0
C744 C 0.81866 0.69126 0.25275 0.0
O745 O 0.81707 0.66337 0.24813 0.0
N746 N 0.88958 0.66443 0.20231 0.0
C747 C 0.91156 0.63851 0.15967 0.0
C748 C 0.92056 0.66609 0.16664 0.0
C749 C 0.90889 0.67893 0.18766 0.0
C750 C 0.87958 0.63797 0.19501 0.0
C751 C 0.89087 0.62417 0.17397 0.0
H752 H 0.91434 0.70123 0.19108 0.0
H753 H 0.86189 0.62806 0.20493 0.0
H754 H 0.87961 0.74222 0.19339 0.0
H755 H 0.80079 0.71716 0.16095 0.0
H756 H 0.90062 0.60531 0.28642 0.0
H757 H 0.93596 0.67799 0.15547 0.0
H758 H 0.88296 0.60305 0.16852 0.0
C759 C 0.56503 0.58264 0.44695 0.0
C760 C 0.54486 0.58167 0.42831 0.0
N761 N 0.52877 0.606 0.42951 0.0
N762 N 0.56163 0.60734 0.45991 0.0
C763 C 0.5394 0.62119 0.44889 0.0
H764 H 0.58113 0.5663 0.45095 0.0
Co765 Co 0.58405 0.61631 0.48704 0.0
C766 C 0.56007 0.6712 0.50864 0.0
O767 O 0.58622 0.67895 0.51525 0.0
N768 N 0.60749 0.62384 0.51493 0.0
C769 C 0.64461 0.63327 0.53984 0.0
C770 C 0.63629 0.62819 0.51577 0.0
C771 C 0.59905 0.62529 0.53899 0.0
N772 N 0.62114 0.63161 0.55443 0.0
O773 O 0.56295 0.58799 0.50527 0.0
H774 H 0.65076 0.62775 0.50015 0.0
H775 H 0.57686 0.62298 0.54493 0.0
O776 O 0.5563 0.64681 0.4976 0.0
C777 C 0.57424 0.56287 0.50696 0.0
O778 O 0.6018 0.55979 0.50189 0.0
N779 N 0.60497 0.64241 0.46688 0.0
C780 C 0.63665 0.67531 0.43315 0.0
C781 C 0.61066 0.68572 0.44281 0.0
C782 C 0.59469 0.66861 0.45893 0.0
C783 C 0.62926 0.63109 0.45624 0.0
C784 C 0.64569 0.64732 0.43943 0.0
H785 H 0.5735 0.67621 0.4637 0.0
H786 H 0.63582 0.60921 0.46076 0.0
H787 H 0.53161 0.64225 0.45457 0.0
H788 H 0.54221 0.56431 0.41502 0.0
H789 H 0.66633 0.63773 0.54613 0.0
H790 H 0.60211 0.70655 0.43708 0.0
H791 H 0.66511 0.63813 0.43144 0.0
C792 C 0.33245 0.31114 0.19896 0.0
C793 C 0.32519 0.28975 0.18242 0.0
N794 N 0.34492 0.26831 0.18421 0.0
N795 N 0.3566 0.3033 0.21111 0.0
C796 C 0.36377 0.27719 0.2018 0.0
H797 H 0.32038 0.33076 0.2026 0.0
Co798 Co 0.37048 0.32392 0.2377 0.0
C799 C 0.43031 0.30455 0.24738 0.0
O800 O 0.43667 0.33196 0.25087 0.0
N801 N 0.38299 0.34529 0.26563 0.0
C802 C 0.39541 0.37914 0.29304 0.0
C803 C 0.38956 0.37363 0.26851 0.0
C804 C 0.38524 0.33417 0.28881 0.0
N805 N 0.39248 0.35431 0.30583 0.0
O806 O 0.34734 0.29996 0.25815 0.0
H807 H 0.39009 0.38977 0.25412 0.0
H808 H 0.38088 0.31176 0.29325 0.0
O809 O 0.40424 0.29746 0.24188 0.0
C810 C 0.32255 0.31092 0.26216 0.0
O811 O 0.31955 0.33912 0.26003 0.0
N812 N 0.39038 0.34757 0.21532 0.0
C813 C 0.41002 0.38076 0.1758 0.0
C814 C 0.4215 0.35322 0.18019 0.0
C815 C 0.41097 0.33671 0.19969 0.0
C816 C 0.37776 0.37367 0.2103 0.0
C817 C 0.38795 0.39119 0.19106 0.0
H818 H 0.41826 0.31459 0.20107 0.0
H819 H 0.3592 0.38062 0.22095 0.0
H820 H 0.38234 0.26494 0.20794 0.0
H821 H 0.30648 0.28986 0.17043 0.0
H822 H 0.4013 0.39992 0.30081 0.0
H823 H 0.43799 0.3442 0.16817 0.0
H824 H 0.37799 0.41204 0.18752 0.0
C825 C 0.43441 0.59366 0.94674 0.0
C826 C 0.45384 0.58254 0.92993 0.0
N827 N 0.47886 0.59712 0.93232 0.0
N828 N 0.44705 0.61527 0.9595 0.0
C829 C 0.4741 0.61676 0.95047 0.0
H830 H 0.41257 0.58629 0.94976 0.0
Co831 Co 0.4305 0.63481 0.98603 0.0
C832 C 0.47975 0.67928 0.98875 0.0
O833 O 0.49822 0.66441 0.0022 0.0
N834 N 0.41385 0.65416 0.01329 0.0
C835 C 0.39539 0.68978 0.03609 0.0
C836 C 0.40498 0.68202 0.01298 0.0
C837 C 0.40956 0.64549 0.03707 0.0
N838 N 0.39819 0.66685 0.05136 0.0
O839 O 0.45711 0.61468 0.00709 0.0
H840 H 0.40575 0.69609 -0.00302 0.0
H841 H 0.41482 0.62404 0.04379 0.0
O842 O 0.4558 0.668 0.98252 0.0
C843 C 0.44966 0.5882 0.00916 0.0
O844 O 0.4226 0.58166 0.00456 0.0
N845 N 0.40457 0.65285 0.96381 0.0
C846 C 0.36818 0.67752 0.92844 0.0
C847 C 0.39808 0.67873 0.92563 0.0
C848 C 0.41583 0.66637 0.94343 0.0
C849 C 0.37537 0.65077 0.96668 0.0
C850 C 0.35663 0.66358 0.94933 0.0
H851 H 0.43884 0.66732 0.94045 0.0
H852 H 0.36663 0.63935 0.98252 0.0
H853 H 0.48985 0.63223 0.95688 0.0
H854 H 0.4498 0.56503 0.91706 0.0
H855 H 0.38775 0.71108 0.04136 0.0
H856 H 0.40775 0.68951 0.90982 0.0
H857 H 0.33351 0.66233 0.95201 0.0
C858 C 0.16841 0.72848 0.68849 0.0
C859 C 0.17836 0.74835 0.6715 0.0
N860 N 0.16288 0.7729 0.67405 0.0
N861 N 0.14654 0.74028 0.70156 0.0
C862 C 0.14379 0.76746 0.6925 0.0
H863 H 0.17636 0.70664 0.69105 0.0
Co864 Co 0.12642 0.72058 0.72645 0.0
C865 C 0.07655 0.75765 0.7415 0.0
O866 O 0.08554 0.7581 0.76464 0.0
N867 N 0.1062 0.70026 0.75204 0.0
C868 C 0.07007 0.67879 0.77223 0.0
C869 C 0.0793 0.6893 0.74975 0.0
C870 C 0.11277 0.69596 0.77636 0.0
N871 N 0.09108 0.68305 0.78907 0.0
O872 O 0.14737 0.74327 0.74995 0.0
H873 H 0.06652 0.6899 0.73295 0.0
H874 H 0.13242 0.70339 0.78501 0.0
O875 O 0.09317 0.74737 0.72465 0.0
C876 C 0.17086 0.72952 0.75421 0.0
O877 O 0.17192 0.70186 0.7485 0.0
N878 N 0.10934 0.69776 0.70193 0.0
C879 C 0.09134 0.66451 0.66193 0.0
C880 C 0.08712 0.69446 0.66193 0.0
C881 C 0.09626 0.71071 0.68208 0.0
C882 C 0.11433 0.66863 0.70203 0.0
C883 C 0.10485 0.65136 0.68231 0.0
H884 H 0.09367 0.73393 0.68125 0.0
H885 H 0.12586 0.65885 0.71736 0.0
H886 H 0.12759 0.78267 0.69884 0.0
H887 H 0.19558 0.74496 0.65823 0.0
H888 H 0.04927 0.66913 0.77594 0.0
H889 H 0.07652 0.70524 0.64653 0.0
H890 H 0.10832 0.62816 0.6828 0.0
C891 C 0.08063 0.41507 0.4361 0.0
C892 C 0.0643 0.42063 0.41557 0.0
N893 N 0.04105 0.40328 0.41621 0.0
N894 N 0.06796 0.39433 0.44986 0.0
C895 C 0.04362 0.38751 0.43736 0.0
H896 H 0.10057 0.42574 0.44095 0.0
Co897 Co 0.086 0.38529 0.47935 0.0
C898 C 0.06614 0.32891 0.49887 0.0
O899 O 0.093 0.3243 0.50556 0.0
N900 N 0.1056 0.37903 0.50953 0.0
C901 C 0.13868 0.37257 0.53896 0.0
C902 C 0.13411 0.37579 0.51387 0.0
C903 C 0.09345 0.37841 0.5324 0.0
N904 N 0.11302 0.37411 0.55064 0.0
O905 O 0.05995 0.41107 0.49569 0.0
H906 H 0.15077 0.37556 0.49991 0.0
H907 H 0.07051 0.38083 0.53552 0.0
O908 O 0.05945 0.35222 0.48697 0.0
C909 C 0.06528 0.43807 0.49479 0.0
O910 O 0.09072 0.44652 0.48688 0.0
N911 N 0.11129 0.36095 0.46091 0.0
C912 C 0.14208 0.33558 0.42179 0.0
C913 C 0.11708 0.32269 0.43097 0.0
C914 C 0.10155 0.33614 0.44979 0.0
C915 C 0.13604 0.3736 0.45242 0.0
C916 C 0.15176 0.36132 0.43275 0.0
H917 H 0.08038 0.32768 0.45328 0.0
H918 H 0.14241 0.3945 0.4596 0.0
H919 H 0.02838 0.37128 0.44347 0.0
H920 H 0.06908 0.4365 0.40137 0.0
H921 H 0.15931 0.36877 0.54779 0.0
H922 H 0.10818 0.30358 0.42217 0.0
H923 H 0.17057 0.37237 0.42556 0.0
C924 C 0.33906 0.73212 0.29918 0.0
C925 C 0.33827 0.75572 0.31471 0.0
N926 N 0.36344 0.77005 0.31257 0.0
N927 N 0.36462 0.73134 0.28728 0.0
C928 C 0.37911 0.75468 0.2959 0.0
H929 H 0.32181 0.71677 0.29627 0.0
Co930 Co 0.37264 0.70511 0.26178 0.0
C931 C 0.41728 0.74583 0.23793 0.0
O932 O 0.40087 0.75799 0.22098 0.0
N933 N 0.37986 0.67884 0.2358 0.0
C934 C 0.38572 0.63781 0.21467 0.0
C935 C 0.38025 0.64967 0.23765 0.0
C936 C 0.38437 0.68417 0.2114 0.0
N937 N 0.38816 0.65956 0.19818 0.0
O938 O 0.3469 0.72703 0.24128 0.0
H939 H 0.37657 0.63773 0.25463 0.0
H940 H 0.38472 0.70566 0.20342 0.0
O941 O 0.40667 0.72704 0.25259 0.0
C942 C 0.32267 0.71423 0.23884 0.0
O943 O 0.32099 0.68671 0.24485 0.0
N944 N 0.39574 0.68302 0.28312 0.0
C945 C 0.42843 0.65177 0.31721 0.0
C946 C 0.44053 0.66082 0.29466 0.0
C947 C 0.42373 0.67621 0.27775 0.0
C948 C 0.38317 0.67302 0.30432 0.0
C949 C 0.39924 0.65763 0.32182 0.0
H950 H 0.43325 0.68254 0.26027 0.0
H951 H 0.36059 0.67718 0.30782 0.0
H952 H 0.40038 0.7608 0.28961 0.0
H953 H 0.32056 0.76169 0.32677 0.0
H954 H 0.38702 0.61497 0.21028 0.0
H955 H 0.46298 0.65664 0.29033 0.0
H956 H 0.38895 0.65039 0.33876 0.0
C957 C 0.06289 0.58428 0.03625 0.0
C958 C 0.04582 0.57627 0.05572 0.0
N959 N 0.02427 0.59572 0.05781 0.0
N960 N 0.0522 0.60848 0.02572 0.0
C961 C 0.02841 0.61498 0.03915 0.0
H962 H 0.08251 0.57354 0.03047 0.0
Co963 Co 0.07292 0.62421 -0.00032 0.0
C964 C 0.05284 0.68344 0.98986 0.0
O965 O 0.08035 0.68993 0.98867 0.0
N966 N 0.09551 0.63808 0.97228 0.0
C967 C 0.13155 0.65405 0.94855 0.0
C968 C 0.12321 0.64726 0.97222 0.0
C969 C 0.08771 0.63952 0.94792 0.0
N970 N 0.10938 0.64901 0.93307 0.0
O971 O 0.05079 0.59992 0.97783 0.0
H972 H 0.13702 0.64958 0.98808 0.0
H973 H 0.06666 0.63326 0.94114 0.0
O974 O 0.04512 0.65718 0.9945 0.0
C975 C 0.05905 0.57355 0.97665 0.0
O976 O 0.08601 0.56763 0.98228 0.0
N977 N 0.09397 0.6458 0.02388 0.0
C978 C 0.12102 0.67005 0.06539 0.0
C979 C 0.09283 0.67774 0.05918 0.0
C980 C 0.07955 0.66497 0.03886 0.0
C981 C 0.12073 0.63634 0.03091 0.0
C982 C 0.1352 0.64903 0.05108 0.0
H983 H 0.057 0.66965 0.03624 0.0
H984 H 0.13078 0.61856 0.02106 0.0
H985 H 0.01535 0.63412 0.03613 0.0
H986 H 0.04946 0.5579 0.06781 0.0
H987 H 0.15244 0.66245 0.94327 0.0
H988 H 0.08082 0.6932 0.07028 0.0
H989 H 0.1567 0.64179 0.05597 0.0
C990 C 0.18004 0.32849 0.80273 0.0
C991 C 0.19083 0.31172 0.82166 0.0
N992 N 0.1759 0.28675 0.82218 0.0
N993 N 0.15814 0.31434 0.79164 0.0
C994 C 0.15644 0.28871 0.80356 0.0
H995 H 0.18723 0.34995 0.79764 0.0
Co996 Co 0.13737 0.32944 0.76501 0.0
C997 C 0.07851 0.30392 0.77807 0.0
O998 O 0.07053 0.32767 0.78948 0.0
N999 N 0.11794 0.34439 0.7369 0.0
C1000 C 0.08498 0.35907 0.70948 0.0
C1001 C 0.08979 0.35123 0.73376 0.0
C1002 C 0.12973 0.3486 0.71419 0.0
N1003 N 0.11015 0.35732 0.69715 0.0
O1004 O 0.15711 0.30171 0.74477 0.0
H1005 H 0.07359 0.35096 0.74808 0.0
H1006 H 0.15214 0.3445 0.70995 0.0
O1007 O 0.1042 0.3016 0.7691 0.0
C1008 C 0.18333 0.30913 0.74143 0.0
O1009 O 0.19037 0.3362 0.74591 0.0
N1010 N 0.12049 0.35792 0.78655 0.0
C1011 C 0.09549 0.3981 0.81892 0.0
C1012 C 0.10333 0.37055 0.82724 0.0
C1013 C 0.11575 0.35098 0.81097 0.0
C1014 C 0.11591 0.3858 0.77884 0.0
C1015 C 0.10245 0.40603 0.79451 0.0
H1016 H 0.11882 0.32925 0.81776 0.0
H1017 H 0.1219 0.3924 0.7603 0.0
H1018 H 0.14037 0.27245 0.79942 0.0
H1019 H 0.20794 0.31765 0.83434 0.0
H1020 H 0.06454 0.36573 0.70158 0.0
H1021 H 0.09787 0.36317 0.84576 0.0
H1022 H 0.09709 0.42737 0.78752 0.0
C1023 C 0.45631 0.43403 0.55002 0.0
C1024 C 0.47742 0.44388 0.56581 0.0
N1025 N 0.50063 0.42646 0.56343 0.0
N1026 N 0.46614 0.41043 0.53798 0.0
C1027 C 0.49322 0.40644 0.54634 0.0
H1028 H 0.4351 0.44337 0.54744 0.0
Co1029 Co 0.44595 0.39098 0.51371 0.0
C1030 C 0.48114 0.33991 0.49849 0.0
O1031 O 0.4765 0.34564 0.47493 0.0
N1032 N 0.42484 0.37209 0.4888 0.0
C1033 C 0.40209 0.33855 0.4665 0.0
C1034 C 0.41383 0.34498 0.48931 0.0
C1035 C 0.41894 0.38183 0.46573 0.0
N1036 N 0.40536 0.36184 0.45177 0.0
O1037 O 0.46973 0.41041 0.49008 0.0
H1038 H 0.41534 0.33034 0.50495 0.0
H1039 H 0.42575 0.4026 0.45868 0.0
O1040 O 0.47224 0.35747 0.51519 0.0
C1041 C 0.46062 0.4362 0.48666 0.0
O1042 O 0.43386 0.44224 0.49289 0.0
N1043 N 0.42296 0.37426 0.53822 0.0
C1044 C 0.3895 0.35421 0.57721 0.0
C1045 C 0.41927 0.34961 0.57712 0.0
C1046 C 0.43564 0.35971 0.55743 0.0
C1047 C 0.394 0.37962 0.53825 0.0
C1048 C 0.3766 0.36913 0.55747 0.0
H1049 H 0.45869 0.35646 0.55808 0.0
H1050 H 0.38441 0.39201 0.52331 0.0
H1051 H 0.50694 0.3887 0.54055 0.0
H1052 H 0.47564 0.46215 0.57831 0.0
H1053 H 0.39248 0.31819 0.46101 0.0
H1054 H 0.42978 0.33791 0.59207 0.0
H1055 H 0.35352 0.37282 0.55708 0.0
H1056 H 0.0847 0.12425 0.07229 0.0
H1057 H 0.15792 0.17897 0.05747 0.0
H1058 H 0.16551 0.18586 0.1019 0.0
H1059 H 0.14785 0.18101 0.14464 0.0
H1060 H 0.07464 0.1263 0.15963 0.0
H1061 H 0.07074 0.11448 0.11559 0.0
C1062 C 0.10269 0.13713 0.0788 0.0
C1063 C 0.12038 0.1515 0.06157 0.0
C1064 C 0.10673 0.14131 0.10444 0.0
C1065 C 0.14357 0.16822 0.07035 0.0
C1066 C 0.14798 0.17212 0.09576 0.0
C1067 C 0.13144 0.16602 0.13838 0.0
C1068 C 0.11123 0.15505 0.15538 0.0
C1069 C 0.12914 0.15952 0.11296 0.0
C1070 C 0.09004 0.13567 0.14685 0.0
C1071 C 0.08785 0.12879 0.12167 0.0
H1072 H 0.09298 0.80654 0.42732 0.0
H1073 H 0.10325 0.89852 0.43748 0.0
H1074 H 0.11277 0.90456 0.3932 0.0
H1075 H 0.1166 0.88421 0.35162 0.0
H1076 H 0.10373 0.79264 0.34015 0.0
H1077 H 0.09751 0.78582 0.38485 0.0
C1078 C 0.09762 0.82779 0.41979 0.0
C1079 C 0.0973 0.85209 0.43562 0.0
C1080 C 0.10259 0.83118 0.39409 0.0
C1081 C 0.10306 0.87958 0.42562 0.0
C1082 C 0.10857 0.88302 0.40032 0.0
C1083 C 0.11214 0.86274 0.35869 0.0
C1084 C 0.11037 0.83907 0.34223 0.0
C1085 C 0.10798 0.85906 0.38434 0.0
C1086 C 0.10539 0.81132 0.35218 0.0
C1087 C 0.10165 0.8074 0.37782 0.0
H1088 H 0.3543 0.84252 0.65494 0.0
H1089 H 0.43516 0.8866 0.66477 0.0
H1090 H 0.43741 0.89718 0.62034 0.0
H1091 H 0.42098 0.88557 0.57814 0.0
H1092 H 0.34072 0.84016 0.56801 0.0
H1093 H 0.3334 0.83864 0.61288 0.0
C1094 C 0.37178 0.85536 0.6474 0.0
C1095 C 0.39468 0.86355 0.66294 0.0
C1096 C 0.37337 0.86051 0.62166 0.0
C1097 C 0.41745 0.87992 0.653 0.0
C1098 C 0.41882 0.88579 0.6276 0.0
C1099 C 0.40146 0.87617 0.58568 0.0
C1100 C 0.38178 0.86239 0.56974 0.0
C1101 C 0.39762 0.87494 0.61158 0.0
C1102 C 0.35658 0.85027 0.57993 0.0
C1103 C 0.35235 0.84942 0.6056 0.0
H1104 H 0.43838 0.15514 0.83161 0.0
H1105 H 0.35171 0.1885 0.82598 0.0
H1106 H 0.34797 0.19004 0.87124 0.0
H1107 H 0.36825 0.17905 0.91191 0.0
H1108 H 0.45435 0.14319 0.91739 0.0
H1109 H 0.45956 0.14626 0.8727 0.0
C1110 C 0.41873 0.16278 0.84035 0.0
C1111 C 0.39529 0.17149 0.82555 0.0
C1112 C 0.41663 0.16324 0.86631 0.0
C1113 C 0.37011 0.1819 0.83701 0.0
C1114 C 0.36792 0.1826 0.86287 0.0
C1115 C 0.38817 0.17166 0.90358 0.0
C1116 C 0.41054 0.16026 0.91846 0.0
C1117 C 0.39088 0.17283 0.87767 0.0
C1118 C 0.43649 0.15186 0.90685 0.0
C1119 C 0.43953 0.15347 0.88109 0.0
H1120 H 0.91617 0.81876 0.91738 0.0
H1121 H 0.88635 0.90632 0.92807 0.0
H1122 H 0.8735 0.90966 0.88405 0.0
H1123 H 0.87006 0.88732 0.84307 0.0
H1124 H 0.90265 0.80053 0.83178 0.0
H1125 H 0.91469 0.79711 0.87565 0.0
C1126 C 0.9066 0.83843 0.91004 0.0
C1127 C 0.90189 0.86218 0.92586 0.0
C1128 C 0.89974 0.8403 0.88471 0.0
C1129 C 0.89014 0.88783 0.91614 0.0
C1130 C 0.88278 0.88969 0.89104 0.0
C1131 C 0.88013 0.86774 0.84994 0.0
C1132 C 0.8851 0.84415 0.83387 0.0
C1133 C 0.88751 0.86605 0.87516 0.0
C1134 C 0.89795 0.81889 0.84357 0.0
C1135 C 0.90504 0.81693 0.86873 0.0
H1136 H 0.87124 0.17543 0.6551 0.0
H1137 H 0.96334 0.1638 0.66343 0.0
H1138 H 0.96844 0.1577 0.61914 0.0
H1139 H 0.94757 0.15625 0.57752 0.0
H1140 H 0.8564 0.17028 0.56774 0.0
H1141 H 0.85034 0.17541 0.61278 0.0
C1142 C 0.89247 0.17175 0.64734 0.0
C1143 C 0.9167 0.1697 0.66318 0.0
C1144 C 0.89555 0.16877 0.62135 0.0
C1145 C 0.94399 0.16483 0.6523 0.0
C1146 C 0.9471 0.16153 0.62671 0.0
C1147 C 0.92632 0.16009 0.58525 0.0
C1148 C 0.90244 0.16258 0.5693 0.0
C1149 C 0.92309 0.16335 0.61106 0.0
C1150 C 0.87514 0.16833 0.57962 0.0
C1151 C 0.87168 0.17119 0.60539 0.0
H1152 H 0.59852 0.11118 0.33079 0.0
H1153 H 0.60245 0.20461 0.32606 0.0
H1154 H 0.59638 0.20813 0.3707 0.0
H1155 H 0.59147 0.1848 0.41153 0.0
H1156 H 0.58476 0.09196 0.41615 0.0
H1157 H 0.58976 0.08815 0.37096 0.0
C1158 C 0.59772 0.13241 0.33925 0.0
C1159 C 0.60153 0.15752 0.32468 0.0
C1160 C 0.59366 0.13442 0.36504 0.0
C1161 C 0.60039 0.18474 0.33649 0.0
C1162 C 0.5967 0.18687 0.36216 0.0
C1163 C 0.59108 0.16379 0.40254 0.0
C1164 C 0.58802 0.13867 0.417 0.0
C1165 C 0.59369 0.16186 0.37663 0.0
C1166 C 0.58698 0.11155 0.40527 0.0
C1167 C 0.58998 0.1094 0.37951 0.0
H1168 H 0.64348 0.8463 0.07283 0.0
H1169 H 0.56484 0.89636 0.07159 0.0
H1170 H 0.56104 0.89231 0.11673 0.0
H1171 H 0.57701 0.86959 0.15568 0.0
H1172 H 0.65408 0.817 0.15629 0.0
H1173 H 0.66169 0.82711 0.1123 0.0
C1174 C 0.6256 0.85646 0.08247 0.0
C1175 C 0.60421 0.87115 0.06881 0.0
C1176 C 0.62315 0.85333 0.10827 0.0
C1177 C 0.5816 0.88494 0.08161 0.0
C1178 C 0.57928 0.88239 0.10741 0.0
C1179 C 0.59547 0.86034 0.14619 0.0
C1180 C 0.61466 0.84212 0.15919 0.0
C1181 C 0.5994 0.86579 0.12078 0.0
C1182 C 0.63898 0.83106 0.14679 0.0
C1183 C 0.64325 0.8367 0.12158 0.0
H1184 H 0.58602 0.60668 0.58809 0.0
H1185 H 0.65366 0.66983 0.57983 0.0
H1186 H 0.65254 0.67968 0.62432 0.0
H1187 H 0.63192 0.67091 0.6655 0.0
H1188 H 0.5649 0.60708 0.67426 0.0
H1189 H 0.56592 0.59721 0.62974 0.0
C1190 C 0.60036 0.62268 0.59607 0.0
C1191 C 0.61996 0.6374 0.5807 0.0
C1192 C 0.59969 0.62816 0.62177 0.0
C1193 C 0.63866 0.6579 0.59131 0.0
C1194 C 0.63794 0.66365 0.61674 0.0
C1195 C 0.6178 0.65456 0.65779 0.0
C1196 C 0.59834 0.63982 0.67331 0.0
C1197 C 0.61861 0.64886 0.63217 0.0
C1198 C 0.57984 0.61906 0.66277 0.0
C1199 C 0.58048 0.61329 0.63729 0.0
H1200 H 0.62511 0.33574 0.91198 0.0
H1201 H 0.55866 0.40112 0.90856 0.0
H1202 H 0.55823 0.39791 0.86324 0.0
H1203 H 0.5798 0.37956 0.82461 0.0
H1204 H 0.64672 0.31472 0.82785 0.0
H1205 H 0.64376 0.31431 0.87325 0.0
C1206 C 0.6105 0.3492 0.90128 0.0
C1207 C 0.59222 0.36893 0.91357 0.0
C1208 C 0.61054 0.34735 0.87525 0.0
C1209 C 0.57288 0.38575 0.89955 0.0
C1210 C 0.57276 0.38403 0.87364 0.0
C1211 C 0.59362 0.36527 0.8353 0.0
C1212 C 0.61373 0.3475 0.82297 0.0
C1213 C 0.59196 0.3654 0.86131 0.0
C1214 C 0.63105 0.32854 0.83693 0.0
C1215 C 0.6295 0.32848 0.86287 0.0
H1216 H 0.9376 0.36455 0.16965 0.0
H1217 H 0.8641 0.30712 0.16901 0.0
H1218 H 0.8597 0.3132 0.1244 0.0
H1219 H 0.87816 0.33213 0.08511 0.0
H1220 H 0.95348 0.38682 0.08473 0.0
H1221 H 0.95538 0.3847 0.1301 0.0
C1222 C 0.92066 0.35316 0.15989 0.0
C1223 C 0.90141 0.3351 0.17314 0.0
C1224 C 0.91853 0.35625 0.13387 0.0
C1225 C 0.87923 0.32127 0.1598 0.0
C1226 C 0.87675 0.32459 0.13407 0.0
C1227 C 0.89517 0.34349 0.09481 0.0
C1228 C 0.91593 0.35926 0.08122 0.0
C1229 C 0.89655 0.3416 0.12087 0.0
C1230 C 0.93716 0.37456 0.09447 0.0
C1231 C 0.93838 0.37316 0.1205 0.0
H1232 H 0.92703 0.62128 0.32378 0.0
H1233 H 0.86034 0.68656 0.3212 0.0
H1234 H 0.85979 0.68909 0.36634 0.0
H1235 H 0.8757 0.67043 0.40658 0.0
H1236 H 0.94179 0.60479 0.40999 0.0
H1237 H 0.94548 0.6049 0.36457 0.0
C1238 C 0.91246 0.63605 0.33317 0.0
C1239 C 0.89367 0.65357 0.31914 0.0
C1240 C 0.91213 0.63729 0.35925 0.0
C1241 C 0.87522 0.67303 0.33149 0.0
C1242 C 0.87474 0.67436 0.35734 0.0
C1243 C 0.89093 0.6562 0.39734 0.0
C1244 C 0.90814 0.63735 0.41149 0.0
C1245 C 0.89271 0.65625 0.37138 0.0
C1246 C 0.92834 0.61951 0.39942 0.0
C1247 C 0.93029 0.61944 0.37349 0.0
H1248 H 0.40982 0.31962 0.4176 0.0
H1249 H 0.38744 0.40954 0.4275 0.0
H1250 H 0.38085 0.41505 0.38271 0.0
H1251 H 0.38289 0.39468 0.34087 0.0
H1252 H 0.40696 0.30518 0.33051 0.0
H1253 H 0.41097 0.2989 0.37543 0.0
C1254 C 0.40306 0.34025 0.40992 0.0
C1255 C 0.3991 0.36416 0.42572 0.0
C1256 C 0.39976 0.34333 0.38414 0.0
C1257 C 0.39081 0.39094 0.41559 0.0
C1258 C 0.38704 0.39407 0.39004 0.0
C1259 C 0.3893 0.37387 0.34837 0.0
C1260 C 0.3948 0.35051 0.3323 0.0
C1261 C 0.39186 0.37052 0.37414 0.0
C1262 C 0.4024 0.32347 0.34244 0.0
C1263 C 0.40482 0.3199 0.36813 0.0
H1264 H 0.42264 0.63358 0.08735 0.0
H1265 H 0.3583 0.6997 0.07481 0.0
H1266 H 0.35013 0.70389 0.11926 0.0
H1267 H 0.36212 0.69001 0.1621 0.0
H1268 H 0.42423 0.62228 0.17519 0.0
H1269 H 0.43232 0.61731 0.13038 0.0
C1270 C 0.40658 0.6486 0.09431 0.0
C1271 C 0.39154 0.66666 0.07762 0.0
C1272 C 0.40173 0.65079 0.12012 0.0
C1273 C 0.37078 0.68604 0.08713 0.0
C1274 C 0.36596 0.6884 0.11262 0.0
C1275 C 0.37751 0.67431 0.15506 0.0
C1276 C 0.3928 0.65677 0.17183 0.0
C1277 C 0.38161 0.67125 0.12932 0.0
C1278 C 0.41224 0.63602 0.16255 0.0
C1279 C 0.41686 0.6332 0.13696 0.0
H1280 H 0.06415 0.66031 0.9023 0.0
H1281 H 0.15615 0.64589 0.90309 0.0
H1282 H 0.15873 0.65579 0.85885 0.0
H1283 H 0.13526 0.66926 0.81959 0.0
H1284 H 0.04324 0.68273 0.81807 0.0
H1285 H 0.04028 0.67211 0.8624 0.0
C1286 C 0.08468 0.65903 0.89276 0.0
C1287 C 0.10994 0.65277 0.90633 0.0
C1288 C 0.08609 0.66461 0.86697 0.0
C1289 C 0.13639 0.65132 0.89346 0.0
C1290 C 0.13793 0.65684 0.868 0.0
C1291 C 0.1146 0.67004 0.82899 0.0
C1292 C 0.08957 0.67683 0.8154 0.0
C1293 C 0.113 0.66381 0.85458 0.0
C1294 C 0.06287 0.67728 0.8279 0.0
C1295 C 0.06115 0.67132 0.85336 0.0
H1296 H 0.07196 0.34984 0.65992 0.0
H1297 H 0.15926 0.3763 0.67549 0.0
H1298 H 0.16777 0.38433 0.63125 0.0
H1299 H 0.1504 0.38388 0.58822 0.0
H1300 H 0.06341 0.3562 0.57256 0.0
H1301 H 0.05457 0.34938 0.6168 0.0
C1302 C 0.09275 0.35766 0.65367 0.0
C1303 C 0.11493 0.36248 0.67105 0.0
C1304 C 0.0975 0.36217 0.62819 0.0
C1305 C 0.14192 0.37211 0.66253 0.0
C1306 C 0.14675 0.37685 0.63724 0.0
C1307 C 0.12957 0.37615 0.59439 0.0
C1308 C 0.10764 0.37065 0.57691 0.0
C1309 C 0.12473 0.37184 0.61989 0.0
C1310 C 0.0806 0.36108 0.58547 0.0
C1311 C 0.07557 0.35694 0.61082 0.0
H1312 H 0.97047 0.23958 0.21605 0.0
H1313 H 0.96165 0.26603 0.29258 0.0
H1314 H 0.01373 0.26898 0.29665 0.0
H1315 H 0.06216 0.26704 0.27789 0.0
H1316 H 0.07188 0.23831 0.20231 0.0
H1317 H 0.01936 0.23314 0.19843 0.0
C1318 C 0.9799 0.24551 0.23375 0.0
C1319 C 0.96182 0.25301 0.25384 0.0
C1320 C 0.01018 0.24705 0.23606 0.0
C1321 C 0.97469 0.26048 0.27665 0.0
C1322 C 0.00464 0.26227 0.27902 0.0
C1323 C 0.05265 0.25962 0.26061 0.0
C1324 C 0.07064 0.25317 0.24035 0.0
C1325 C 0.02258 0.25625 0.25872 0.0
C1326 C 0.05832 0.2433 0.21813 0.0
C1327 C 0.02834 0.24037 0.21594 0.0
H1328 H 0.93993 0.73265 0.4762 0.0
H1329 H 1.00017 0.68259 0.51999 0.0
H1330 H 0.02599 0.7269 0.53088 0.0
H1331 H 0.02939 0.77968 0.53033 0.0
H1332 H 0.9694 0.83039 0.48698 0.0
H1333 H 0.94527 0.78569 0.47357 0.0
C1334 C 0.95891 0.73131 0.48792 0.0
C1335 C 0.96797 0.7042 0.49739 0.0
C1336 C 0.97337 0.75696 0.49442 0.0
C1337 C 0.99273 0.703 0.51238 0.0
C1338 C 0.00737 0.72839 0.51876 0.0
C1339 C 0.01097 0.78112 0.51797 0.0
C1340 C 1.00087 0.80846 0.50997 0.0
C1341 C 0.99748 0.75547 0.51032 0.0
C1342 C 0.97743 0.80971 0.49353 0.0
C1343 C 0.9637 0.78415 0.48589 0.0
H1344 H 0.46624 0.7662 0.80041 0.0
H1345 H 0.43404 0.75365 0.72597 0.0
H1346 H 0.48192 0.73784 0.71245 0.0
H1347 H 0.53335 0.72863 0.72151 0.0
H1348 H 0.56506 0.74047 0.79616 0.0
H1349 H 0.51706 0.75579 0.80971 0.0
C1350 C 0.46948 0.75965 0.78127 0.0
C1351 C 0.44636 0.7612 0.76425 0.0
C1352 C 0.49719 0.75087 0.77354 0.0
C1353 C 0.45129 0.7527 0.73952 0.0
C1354 C 0.47877 0.74382 0.73172 0.0
C1355 C 0.52987 0.73492 0.74068 0.0
C1356 C 0.55297 0.73373 0.75772 0.0
C1357 C 0.50199 0.7432 0.74848 0.0
C1358 C 0.5478 0.74136 0.78261 0.0
C1359 C 0.52029 0.74999 0.7904 0.0
H1360 H 0.44115 0.24499 0.00663 0.0
H1361 H 0.51253 0.18499 0.0019 0.0
H1362 H 0.54594 0.22577 -0.00278 0.0
H1363 H 0.55459 0.27821 0.99389 0.0
H1364 H 0.4832 0.33808 -3e-05 0.0
H1365 H 0.4499 0.29731 0.00452 0.0
C1366 C 0.46402 0.24067 0.00457 0.0
C1367 C 0.47425 0.21178 0.00445 0.0
C1368 C 0.48301 0.26418 0.00197 0.0
C1369 C 0.50403 0.20687 0.00206 0.0
C1370 C 0.5231 0.23021 -0.00071 0.0
C1371 C 0.53171 0.28247 -0.00396 0.0
C1372 C 0.52141 0.31135 -0.00374 0.0
C1373 C 0.51279 0.25893 -0.00095 0.0
C1374 C 0.49173 0.31622 -0.00051 0.0
C1375 C 0.47271 0.29288 0.00217 0.0
H1376 H 0.98347 0.69368 0.2376 0.0
H1377 H 0.92244 0.7637 0.24653 0.0
H1378 H 0.96245 0.7973 0.25418 0.0
H1379 H 0.0146 0.80641 0.25865 0.0
H1380 H 0.0753 0.73637 0.24807 0.0
H1381 H 0.03526 0.70292 0.2409 0.0
C1382 C 0.97872 0.71629 0.24126 0.0
C1383 C 0.9498 0.72608 0.24168 0.0
C1384 C 1.00177 0.73536 0.24548 0.0
C1385 C 0.94436 0.75555 0.24613 0.0
C1386 C 0.96727 0.77471 0.25057 0.0
C1387 C 0.01918 0.78377 0.25497 0.0
C1388 C 0.04808 0.77386 0.25423 0.0
C1389 C 0.99604 0.76479 0.25042 0.0
C1390 C 0.0534 0.74456 0.24897 0.0
C1391 C 0.03049 0.72545 0.2448 0.0
H1392 H 0.56322 0.72685 0.52556 0.0
H1393 H 0.50523 0.66658 0.49004 0.0
H1394 H 0.4704 0.70552 0.48337 0.0
H1395 H 0.45807 0.75702 0.48459 0.0
H1396 H 0.51583 0.81794 0.51931 0.0
H1397 H 0.54907 0.77821 0.52957 0.0
C1398 C 0.54281 0.72207 0.51665 0.0
C1399 C 0.53706 0.69373 0.5081 0.0
C1400 C 0.52294 0.74471 0.51261 0.0
C1401 C 0.51039 0.68808 0.49671 0.0
C1402 C 0.49046 0.7104 0.49281 0.0
C1403 C 0.47784 0.76168 0.49458 0.0
C1404 C 0.48459 0.7905 0.50098 0.0
C1405 C 0.4968 0.73886 0.50018 0.0
C1406 C 0.51011 0.796 0.51419 0.0
C1407 C 0.52915 0.77329 0.51994 0.0
H1408 H 0.49142 0.19882 0.72637 0.0
H1409 H 0.43086 0.26943 0.73414 0.0
H1410 H 0.47118 0.30351 0.73806 0.0
H1411 H 0.5235 0.31283 0.74051 0.0
H1412 H 0.5837 0.242 0.73191 0.0
H1413 H 0.5434 0.20827 0.72728 0.0
C1414 C 0.48686 0.22168 0.72887 0.0
C1415 C 0.45796 0.23147 0.73014 0.0
C1416 C 0.5101 0.24103 0.73117 0.0
C1417 C 0.45275 0.26125 0.73308 0.0
C1418 C 0.47584 0.2807 0.73544 0.0
C1419 C 0.52792 0.28999 0.73774 0.0
C1420 C 0.55679 0.27997 0.73686 0.0
C1421 C 0.50459 0.27077 0.73478 0.0
C1422 C 0.56187 0.25033 0.73287 0.0
C1423 C 0.53878 0.23105 0.73016 0.0
H1424 H 0.97859 0.20029 0.98865 0.0
H1425 H 0.06601 0.20411 0.96128 0.0
H1426 H 0.06467 0.25664 0.96247 0.0
H1427 H 0.03931 0.30218 0.97223 0.0
H1428 H 0.95099 0.29885 -0.003 0.0
H1429 H 0.95205 0.24608 0.99573 0.0
C1430 C 0.99728 0.21257 0.98276 0.0
C1431 C 0.02253 0.19788 0.9753 0.0
C1432 C 0.9963 0.24318 0.98312 0.0
C1433 C 0.04637 0.21446 0.96752 0.0
C1434 C 0.04567 0.24472 0.96815 0.0
C1435 C 0.02033 0.28991 0.97744 0.0
C1436 C 0.9952 0.30464 0.98497 0.0
C1437 C 0.0209 0.25937 0.9762 0.0
C1438 C 0.97067 0.28825 0.99121 0.0
C1439 C 0.97125 0.25795 0.99049 0.0
H1440 H 0.94515 0.74444 0.71033 0.0
H1441 H 0.9326 0.79284 0.77792 0.0
H1442 H 0.98493 0.79551 0.78395 0.0
H1443 H 0.0346 0.78298 0.77047 0.0
H1444 H 0.04656 0.73772 0.70113 0.0
H1445 H 0.99463 0.73535 0.69525 0.0
C1446 C 0.95387 0.75538 0.72648 0.0
C1447 C 0.93488 0.76789 0.74392 0.0
C1448 C 0.98408 0.75769 0.7294 0.0
C1449 C 0.94665 0.78271 0.76436 0.0
C1450 C 0.97663 0.78433 0.76778 0.0
C1451 C 0.02589 0.77296 0.75389 0.0
C1452 C 0.04489 0.76058 0.7363 0.0
C1453 C 0.99563 0.77184 0.75044 0.0
C1454 C 0.0329 0.74771 0.71495 0.0
C1455 C 1.00298 0.74609 0.71163 0.0
H1456 H 0.02564 0.3102 0.46595 0.0
H1457 H 0.06323 0.29149 0.53734 0.0
H1458 H 0.03794 0.24512 0.53891 0.0
H1459 H 0.00739 0.20806 0.51856 0.0
H1460 H 0.97148 0.22698 0.44635 0.0
H1461 H 0.9939 0.27433 0.44647 0.0
C1462 C 0.02766 0.29627 0.48209 0.0
C1463 C 0.04604 0.30431 0.50156 0.0
C1464 C 0.01378 0.26917 0.48253 0.0
C1465 C 0.04902 0.28575 0.52215 0.0
C1466 C 0.03476 0.25911 0.52298 0.0
C1467 C 0.00458 0.22255 0.50289 0.0
C1468 C 0.98774 0.2138 0.48255 0.0
C1469 C 0.01759 0.2502 0.503 0.0
C1470 C 0.98419 0.23302 0.46241 0.0
C1471 C 0.99698 0.26029 0.46239 0.0
H1472 H 0.48795 0.31557 0.24868 0.0
H1473 H 0.42688 0.24529 0.24423 0.0
H1474 H 0.46676 0.21045 0.24283 0.0
H1475 H 0.51862 0.20007 0.24283 0.0
H1476 H 0.57993 0.27023 0.24579 0.0
H1477 H 0.54004 0.30517 0.24778 0.0
C1478 C 0.48324 0.29262 0.24751 0.0
C1479 C 0.4543 0.28308 0.24677 0.0
C1480 C 0.5063 0.27277 0.24641 0.0
C1481 C 0.44882 0.25326 0.24495 0.0
C1482 C 0.47165 0.23334 0.24413 0.0
C1483 C 0.52343 0.223 0.24399 0.0
C1484 C 0.55239 0.23247 0.24434 0.0
C1485 C 0.50043 0.24287 0.24487 0.0
C1486 C 0.55796 0.26231 0.24556 0.0
C1487 C 0.53513 0.28227 0.24671 0.0
H1488 H 0.47554 0.81479 0.9696 0.0
H1489 H 0.56565 0.80641 0.98808 0.0
H1490 H 0.56027 0.75435 0.99303 0.0
H1491 H 0.52955 0.71083 0.99359 0.0
H1492 H 0.44041 0.71855 0.97138 0.0
H1493 H 0.44585 0.77057 0.96642 0.0
C1494 C 0.49397 0.80154 0.97467 0.0
C1495 C 0.52089 0.81473 0.97876 0.0
C1496 C 0.4909 0.77124 0.97693 0.0
C1497 C 0.54465 0.79706 0.98491 0.0
C1498 C 0.5416 0.76714 0.98779 0.0
C1499 C 0.51136 0.72385 0.98754 0.0
C1500 C 0.48447 0.71061 0.98342 0.0
C1501 C 0.51477 0.75395 0.98406 0.0
C1502 C 0.4613 0.72795 0.97514 0.0
C1503 C 0.46436 0.75788 0.97224 0.0
H1504 H 0.97586 0.24353 0.72216 0.0
H1505 H 0.93261 0.26532 0.79065 0.0
H1506 H 0.97817 0.28226 0.80823 0.0
H1507 H 0.0295 0.29349 0.80335 0.0
H1508 H 0.07334 0.27202 0.73517 0.0
H1509 H 0.02859 0.25134 0.71855 0.0
C1510 C 0.97636 0.25226 0.74085 0.0
C1511 C 0.95066 0.2538 0.75488 0.0
C1512 C 1.00284 0.26145 0.75104 0.0
C1513 C 0.95191 0.26429 0.77934 0.0
C1514 C 0.97801 0.27382 0.78945 0.0
C1515 C 0.02945 0.2837 0.78503 0.0
C1516 C 0.05477 0.28427 0.77053 0.0
C1517 C 1.00352 0.27269 0.77542 0.0
C1518 C 0.05434 0.27148 0.74687 0.0
C1519 C 0.02859 0.26011 0.73722 0.0
H1520 H 0.47295 0.28871 0.4743 0.0
H1521 H 0.51152 0.32543 0.54002 0.0
H1522 H 0.52875 0.27741 0.5525 0.0
H1523 H 0.53606 0.22584 0.54305 0.0
H1524 H 0.49678 0.18832 0.47814 0.0
H1525 H 0.47571 0.2356 0.46736 0.0
C1526 C 0.48527 0.28618 0.49128 0.0
C1527 C 0.49167 0.31075 0.50589 0.0
C1528 C 0.49448 0.25833 0.49866 0.0
C1529 C 0.50677 0.30699 0.52827 0.0
C1530 C 0.51647 0.27952 0.53546 0.0
C1531 C 0.52217 0.22786 0.52691 0.0
C1532 C 0.5178 0.20362 0.51146 0.0
C1533 C 0.51076 0.25514 0.52066 0.0
C1534 C 0.49998 0.20651 0.49054 0.0
C1535 C 0.48839 0.23367 0.48419 0.0
H1536 H 0.45583 0.7283 0.27331 0.0
H1537 H 0.45043 0.77606 0.20457 0.0
H1538 H 0.5029 0.78183 0.20446 0.0
H1539 H 0.55065 0.77106 0.22276 0.0
H1540 H 0.55601 0.72156 0.29038 0.0
H1541 H 0.50328 0.71763 0.29156 0.0
C1542 C 0.46603 0.73975 0.25813 0.0
C1543 C 0.449 0.75138 0.23878 0.0
C1544 C 0.4963 0.74235 0.25786 0.0
C1545 C 0.46281 0.76684 0.2197 0.0
C1546 C 0.49289 0.77002 0.21955 0.0
C1547 C 0.54021 0.75988 0.23795 0.0
C1548 C 0.55717 0.74691 0.2566 0.0
C1549 C 0.50989 0.75759 0.23838 0.0
C1550 C 0.54343 0.73155 0.27573 0.0
C1551 C 0.51328 0.72948 0.27648 0.0
H1552 H 0.05392 0.72774 0.02202 0.0
H1553 H 0.00819 0.69541 0.95822 0.0
H1554 H 0.98428 0.74265 0.95311 0.0
H1555 H 0.9802 0.79449 0.96465 0.0
H1556 H 0.02477 0.82594 0.02953 0.0
H1557 H 0.04555 0.77773 0.03639 0.0
C1558 C 0.03807 0.73086 0.00742 0.0
C1559 C 0.03253 0.70815 0.99062 0.0
C1560 C 0.02485 0.75809 0.00449 0.0
C1561 C 0.0123 0.71242 0.97161 0.0
C1562 C 0.99902 0.73955 0.96851 0.0
C1563 C 0.99459 0.79078 0.98022 0.0
C1564 C 1.00165 0.81396 -0.00382 0.0
C1565 C 0.00582 0.76279 0.98439 0.0
C1566 C 0.01946 0.80861 0.01677 0.0
C1567 C 0.03121 0.78103 0.02074 0.0
H1568 H 0.16833 0.2947 0.31265 0.0
H1569 H 0.18302 0.21419 0.35103 0.0
H1570 H 0.17625 0.23825 0.39105 0.0
H1571 H 0.16243 0.28139 0.41491 0.0
H1572 H 0.14896 0.36257 0.37723 0.0
H1573 H 0.15964 0.33949 0.33722 0.0
C1574 C 0.17019 0.28267 0.32986 0.0
C1575 C 0.17593 0.25278 0.32905 0.0
C1576 C 0.16673 0.29681 0.35286 0.0
C1577 C 0.17869 0.23725 0.35135 0.0
C1578 C 0.17478 0.25097 0.37418 0.0
C1579 C 0.16256 0.2941 0.39795 0.0
C1580 C 0.15508 0.32356 0.3989 0.0
C1581 C 0.16842 0.28064 0.37514 0.0
C1582 C 0.15509 0.33992 0.3769 0.0
C1583 C 0.16082 0.32664 0.35403 0.0
H1584 H 0.92396 0.90812 0.67442 0.0
H1585 H 0.87291 0.84604 0.63408 0.0
H1586 H 0.89975 0.85668 0.59601 0.0
H1587 H 0.9419 0.87941 0.57579 0.0
H1588 H 0.99376 0.9396 0.6177 0.0
H1589 H 0.9625 0.93406 0.65344 0.0
C1590 C 0.91847 0.89734 0.65714 0.0
C1591 C 0.8969 0.87624 0.65692 0.0
C1592 C 0.93438 0.90296 0.6357 0.0
C1593 C 0.8895 0.86253 0.63451 0.0
C1594 C 0.90501 0.86835 0.61286 0.0
C1595 C 0.94612 0.89135 0.59274 0.0
C1596 C 0.97008 0.90975 0.5941 0.0
C1597 C 0.9282 0.88778 0.61349 0.0
C1598 C 0.97524 0.92553 0.61602 0.0
C1599 C 0.95749 0.92227 0.63658 0.0
H1600 H 0.36594 0.66615 0.87941 0.0
H1601 H 0.33171 0.72294 0.93564 0.0
H1602 H 0.31465 0.75648 0.90352 0.0
H1603 H 0.31791 0.77333 0.86034 0.0
H1604 H 0.35259 0.7163 0.80414 0.0
H1605 H 0.36109 0.67917 0.83536 0.0
C1606 C 0.35386 0.68543 0.88449 0.0
C1607 C 0.35013 0.6923 0.90971 0.0
C1608 C 0.34493 0.70487 0.866 0.0
C1609 C 0.33457 0.71723 0.91628 0.0
C1610 C 0.32519 0.73653 0.89793 0.0
C1611 C 0.32658 0.75256 0.85469 0.0
C1612 C 0.33544 0.74815 0.82991 0.0
C1613 C 0.33149 0.7312 0.87281 0.0
C1614 C 0.34653 0.72087 0.82313 0.0
C1615 C 0.35124 0.69945 0.84098 0.0
H1616 H 0.53532 0.11933 0.06606 0.0
H1617 H 0.47856 0.07312 0.1157 0.0
H1618 H 0.51337 0.07762 0.14907 0.0
H1619 H 0.55619 0.10123 0.16601 0.0
H1620 H 0.61095 0.15144 0.11808 0.0
H1621 H 0.58114 0.13856 0.08211 0.0
C1622 C 0.53067 0.11015 0.08413 0.0
C1623 C 0.50417 0.09626 0.08835 0.0
C1624 C 0.55053 0.11347 0.10357 0.0
C1625 C 0.49877 0.08383 0.11176 0.0
C1626 C 0.51863 0.0865 0.13099 0.0
C1627 C 0.56207 0.10834 0.14748 0.0
C1628 C 0.58564 0.1268 0.14434 0.0
C1629 C 0.54411 0.10205 0.12733 0.0
C1630 C 0.59299 0.13673 0.12056 0.0
C1631 C 0.57577 0.1297 0.10017 0.0
H1632 H 0.10134 0.66991 0.11251 0.0
H1633 H 0.17008 0.70229 0.06652 0.0
H1634 H 0.18592 0.73419 0.10028 0.0
H1635 H 0.1763 0.75662 0.14063 0.0
H1636 H 0.10763 0.72334 0.18687 0.0
H1637 H 0.0956 0.6882 0.15507 0.0
C1638 C 0.12018 0.68355 0.11016 0.0
C1639 C 0.13453 0.68398 0.08717 0.0
C1640 C 0.12876 0.70205 0.12943 0.0
C1641 C 0.15892 0.70154 0.08418 0.0
C1642 C 0.16773 0.71995 0.10337 0.0
C1643 C 0.15895 0.74156 0.14415 0.0
C1644 C 0.14255 0.74351 0.16622 0.0
C1645 C 0.15221 0.72103 0.12579 0.0
C1646 C 0.12025 0.7233 0.17001 0.0
C1647 C 0.11341 0.70289 0.15182 0.0
H1648 H 0.51088 0.8557 0.30757 0.0
H1649 H 0.58071 0.91401 0.32379 0.0
H1650 H 0.55861 0.92601 0.3638 0.0
H1651 H 0.52685 0.90992 0.39765 0.0
H1652 H 0.46549 0.84162 0.38394 0.0
H1653 H 0.47703 0.84294 0.33979 0.0
C1654 C 0.52065 0.87182 0.31959 0.0
C1655 C 0.54767 0.88331 0.31328 0.0
C1656 C 0.50982 0.87578 0.34353 0.0
C1657 C 0.55998 0.90468 0.32844 0.0
C1658 C 0.54768 0.91099 0.35155 0.0
C1659 C 0.51589 0.89535 0.38507 0.0
C1660 C 0.4954 0.8755 0.3942 0.0
C1661 C 0.52392 0.8949 0.35998 0.0
C1662 C 0.48091 0.85739 0.37742 0.0
C1663 C 0.48758 0.85803 0.3522 0.0
H1664 H 0.35864 0.28908 0.67395 0.0
H1665 H 0.32563 0.22849 0.62002 0.0
H1666 H 0.33106 0.26438 0.58728 0.0
H1667 H 0.35303 0.30965 0.57292 0.0
H1668 H 0.39038 0.36828 0.62604 0.0
H1669 H 0.37506 0.33692 0.66023 0.0
C1670 C 0.35251 0.28382 0.65506 0.0
C1671 C 0.3423 0.25598 0.6494 0.0
C1672 C 0.35644 0.3043 0.63618 0.0
C1673 C 0.33359 0.24973 0.62495 0.0
C1674 C 0.33682 0.27021 0.60614 0.0
C1675 C 0.35673 0.31597 0.59207 0.0
C1676 C 0.37254 0.34105 0.59721 0.0
C1677 C 0.3492 0.29714 0.61139 0.0
C1678 C 0.37793 0.34904 0.62192 0.0
C1679 C 0.3695 0.33098 0.64135 0.0
H1680 H 0.97434 0.10402 0.91492 0.0
H1681 H 0.04264 0.07872 0.86512 0.0
H1682 H 0.01143 0.08749 0.82939 0.0
H1683 H 0.96688 0.10853 0.8123 0.0
H1684 H 0.89914 0.13561 0.86183 0.0
H1685 H 0.92738 0.11929 0.89769 0.0
C1686 C 0.98213 0.10015 0.89622 0.0
C1687 C 0.01071 0.09099 0.89259 0.0
C1688 C 0.96407 0.10538 0.87576 0.0
C1689 C 0.02063 0.08563 0.86834 0.0
C1690 C 1.00284 0.09075 0.84791 0.0
C1691 C 0.958 0.10976 0.83092 0.0
C1692 C 0.93105 0.12282 0.83464 0.0
C1693 C 0.97478 0.10132 0.85137 0.0
C1694 C 0.91978 0.12515 0.85875 0.0
C1695 C 0.93605 0.1162 0.87918 0.0
H1696 H 0.81782 0.71061 0.66527 0.0
H1697 H 0.85983 0.78957 0.64334 0.0
H1698 H 0.87053 0.76889 0.60239 0.0
H1699 H 0.87106 0.7273 0.57453 0.0
H1700 H 0.83593 0.64558 0.59894 0.0
H1701 H 0.81787 0.66864 0.63672 0.0
C1702 C 0.82917 0.72313 0.65133 0.0
C1703 C 0.83832 0.75131 0.65701 0.0
C1704 C 0.83605 0.7107 0.62833 0.0
C1705 C 0.85307 0.76766 0.63919 0.0
C1706 C 0.85895 0.75592 0.61587 0.0
C1707 C 0.85946 0.71445 0.5881 0.0
C1708 C 0.85534 0.68463 0.58406 0.0
C1709 C 0.85104 0.72728 0.61047 0.0
C1710 C 0.83934 0.66858 0.60143 0.0
C1711 C 0.82937 0.68166 0.62324 0.0
H1712 H 0.03508 0.08984 0.39345 0.0
H1713 H 0.03896 0.17606 0.42383 0.0
H1714 H 0.06997 0.19145 0.38949 0.0
H1715 H 0.09254 0.18112 0.34972 0.0
H1716 H 0.08432 0.09652 0.3165 0.0
H1717 H 0.05954 0.07896 0.35382 0.0
C1718 C 0.04296 0.11191 0.39248 0.0
C1719 C 0.03473 0.13203 0.41071 0.0
C1720 C 0.06009 0.12059 0.37248 0.0
C1721 C 0.04475 0.16058 0.40956 0.0
C1722 C 0.06258 0.1692 0.39015 0.0
C1723 C 0.0853 0.15881 0.35066 0.0
C1724 C 0.08946 0.14026 0.33031 0.0
C1725 C 0.06984 0.14952 0.37132 0.0
C1726 C 0.08109 0.11116 0.33198 0.0
C1727 C 0.06671 0.10127 0.35314 0.0
H1728 H 0.62278 0.2895 0.07291 0.0
H1729 H 0.63894 0.37096 0.10933 0.0
H1730 H 0.65575 0.34526 0.14655 0.0
H1731 H 0.66147 0.2991 0.16992 0.0
H1732 H 0.64415 0.21834 0.13309 0.0
H1733 H 0.63158 0.24408 0.09478 0.0
C1734 C 0.63035 0.30157 0.08893 0.0
C1735 C 0.6295 0.33193 0.0886 0.0
C1736 C 0.63919 0.28674 0.11022 0.0
C1737 C 0.63963 0.34751 0.10922 0.0
C1738 C 0.64889 0.33284 0.13054 0.0
C1739 C 0.65499 0.28745 0.15337 0.0
C1740 C 0.65334 0.25716 0.15396 0.0
C1741 C 0.64799 0.30245 0.13148 0.0
C1742 C 0.64529 0.24177 0.13266 0.0
C1743 C 0.63824 0.25642 0.11091 0.0
H1744 H 0.48391 0.88446 0.9102 0.0
H1745 H 0.52676 0.95388 0.871 0.0
H1746 H 0.49374 0.94834 0.83646 0.0
H1747 H 0.45687 0.91933 0.81488 0.0
H1748 H 0.41302 0.8515 0.85453 0.0
H1749 H 0.44191 0.86131 0.89163 0.0
C1750 C 0.48595 0.89882 0.89444 0.0
C1751 C 0.50888 0.91872 0.89308 0.0
C1752 C 0.46663 0.89577 0.87457 0.0
C1753 C 0.51032 0.93742 0.87241 0.0
C1754 C 0.49123 0.93447 0.85256 0.0
C1755 C 0.45323 0.90736 0.83194 0.0
C1756 C 0.43312 0.88482 0.83227 0.0
C1757 C 0.47002 0.913 0.85305 0.0
C1758 C 0.4284 0.86913 0.85419 0.0
C1759 C 0.44503 0.87458 0.87525 0.0
H1760 H 0.85791 0.28085 0.92457 0.0
H1761 H 0.86947 0.36115 0.88528 0.0
H1762 H 0.85565 0.3377 0.84619 0.0
H1763 H 0.84654 0.29248 0.82259 0.0
H1764 H 0.83432 0.21259 0.86246 0.0
H1765 H 0.84196 0.23751 0.90193 0.0
C1766 C 0.85634 0.29333 0.90755 0.0
C1767 C 0.86433 0.32261 0.90765 0.0
C1768 C 0.84886 0.27959 0.88522 0.0
C1769 C 0.86285 0.33866 0.88555 0.0
C1770 C 0.85536 0.32516 0.8632 0.0
C1771 C 0.84521 0.28078 0.84002 0.0
C1772 C 0.84014 0.25081 0.83973 0.0
C1773 C 0.84936 0.29537 0.86268 0.0
C1774 C 0.83811 0.23572 0.86232 0.0
C1775 C 0.84256 0.24992 0.88486 0.0
H1776 H 0.49646 0.05999 0.60954 0.0
H1777 H 0.44948 0.10537 0.55218 0.0
H1778 H 0.41055 0.11544 0.58133 0.0
H1779 H 0.39571 0.12048 0.62489 0.0
H1780 H 0.44377 0.07696 0.6823 0.0
H1781 H 0.47592 0.05576 0.65112 0.0
C1782 C 0.47741 0.0713 0.60308 0.0
C1783 C 0.4765 0.08296 0.57893 0.0
C1784 C 0.45529 0.07732 0.62002 0.0
C1785 C 0.45133 0.09725 0.57095 0.0
C1786 C 0.42894 0.10284 0.58757 0.0
C1787 C 0.4125 0.10532 0.63032 0.0
C1788 C 0.4178 0.10034 0.6556 0.0
C1789 C 0.43151 0.0944 0.61245 0.0
C1790 C 0.43944 0.08085 0.66281 0.0
C1791 C 0.45801 0.06913 0.64503 0.0
H1792 H 0.67274 0.77803 0.36629 0.0
H1793 H 0.66262 0.71299 0.30934 0.0
H1794 H 0.65825 0.67563 0.3411 0.0
H1795 H 0.64909 0.66301 0.38505 0.0
H1796 H 0.65821 0.72874 0.44129 0.0
H1797 H 0.67221 0.7641 0.40981 0.0
C1798 C 0.67031 0.75569 0.3606 0.0
C1799 C 0.66693 0.74869 0.33533 0.0
C1800 C 0.66757 0.73435 0.37895 0.0
C1801 C 0.66412 0.71934 0.32863 0.0
C1802 C 0.6618 0.69785 0.34681 0.0
C1803 C 0.65511 0.68484 0.39038 0.0
C1804 C 0.65249 0.6935 0.41528 0.0
C1805 C 0.66218 0.70531 0.37204 0.0
C1806 C 0.66002 0.72181 0.42212 0.0
C1807 C 0.66781 0.74203 0.40413 0.0
H1808 H 0.09766 0.87321 0.14045 0.0
H1809 H 0.04304 0.91825 0.19238 0.0
H1810 H 0.01556 0.93961 0.158 0.0
H1811 H 1.00311 0.93934 0.11384 0.0
H1812 H 0.05669 0.89279 0.06181 0.0
H1813 H 0.08885 0.87817 0.09554 0.0
C1814 C 0.08024 0.88838 0.14404 0.0
C1815 C 0.07225 0.89447 0.1686 0.0
C1816 C 0.0642 0.89982 0.12426 0.0
C1817 C 0.0495 0.91368 0.17344 0.0
C1818 C 0.03375 0.92564 0.15384 0.0
C1819 C 0.02222 0.92669 0.10971 0.0
C1820 C 0.02724 0.91678 0.08538 0.0
C1821 C 0.0403 0.91803 0.12923 0.0
C1822 C 0.05203 0.90016 0.08047 0.0
C1823 C 0.07045 0.89186 0.09972 0.0
H1824 H 0.68536 0.73459 0.86436 0.0
H1825 H 0.65092 0.78396 0.80306 0.0
H1826 H 0.64545 0.82614 0.82985 0.0
H1827 H 0.64209 0.84564 0.87212 0.0
H1828 H 0.67486 0.79607 0.93371 0.0
H1829 H 0.69057 0.75768 0.90529 0.0
C1830 C 0.67742 0.75478 0.85668 0.0
C1831 C 0.66764 0.7558 0.83194 0.0
C1832 C 0.6741 0.77893 0.87229 0.0
C1833 C 0.65756 0.78225 0.82227 0.0
C1834 C 0.65463 0.80647 0.83753 0.0
C1835 C 0.65377 0.82691 0.87909 0.0
C1836 C 0.65738 0.82343 0.90478 0.0
C1837 C 0.66158 0.8046 0.86279 0.0
C1838 C 0.6722 0.79915 0.9139 0.0
C1839 C 0.68075 0.77707 0.89769 0.0
H1840 H 0.40762 0.36551 0.12782 0.0
H1841 H 0.43749 0.43262 0.17698 0.0
H1842 H 0.46681 0.45321 0.14348 0.0
H1843 H 0.48958 0.44666 0.10308 0.0
H1844 H 0.46141 0.37719 0.05491 0.0
H1845 H 0.42507 0.36368 0.08491 0.0
C1846 C 0.41999 0.38512 0.13087 0.0
C1847 C 0.42089 0.3975 0.15463 0.0
C1848 C 0.43734 0.39613 0.11188 0.0
C1849 C 0.43664 0.42292 0.15867 0.0
C1850 C 0.45353 0.43445 0.13963 0.0
C1851 C 0.47563 0.4286 0.09886 0.0
C1852 C 0.47964 0.41218 0.07702 0.0
C1853 C 0.45508 0.42034 0.11655 0.0
C1854 C 0.45996 0.38979 0.07175 0.0
C1855 C 0.43894 0.38195 0.08897 0.0
H1856 H 0.87014 0.17752 0.42624 0.0
H1857 H 0.88842 0.10908 0.37394 0.0
H1858 H 0.87883 0.14221 0.33942 0.0
H1859 H 0.86833 0.1919 0.32407 0.0
H1860 H 0.84988 0.25939 0.37712 0.0
H1861 H 0.85617 0.22534 0.41124 0.0
C1862 C 0.87126 0.16948 0.40735 0.0
C1863 C 0.88008 0.14074 0.40284 0.0
C1864 C 0.86602 0.18868 0.38761 0.0
C1865 C 0.88198 0.13112 0.37807 0.0
C1866 C 0.87655 0.1501 0.35828 0.0
C1867 C 0.86568 0.19901 0.34312 0.0
C1868 C 0.85866 0.22816 0.34801 0.0
C1869 C 0.86923 0.17915 0.36281 0.0
C1870 C 0.85496 0.23706 0.37279 0.0
C1871 C 0.85866 0.2176 0.39236 0.0
H1872 H 0.02974 0.62687 0.56443 0.0
H1873 H 0.97538 0.58436 0.61836 0.0
H1874 H 0.00967 0.59526 0.65098 0.0
H1875 H 0.05128 0.62299 0.66543 0.0
H1876 H 0.10332 0.66958 0.61269 0.0
H1877 H 0.07411 0.6508 0.5784 0.0
C1878 C 0.02541 0.61994 0.58328 0.0
C1879 C 0.99974 0.60514 0.58881 0.0
C1880 C 0.04489 0.62704 0.60225 0.0
C1881 C 0.99491 0.59567 0.61333 0.0
C1882 C 0.01449 0.60203 0.63216 0.0
C1883 C 0.05669 0.62819 0.64634 0.0
C1884 C 0.0792 0.64748 0.64139 0.0
C1885 C 0.03906 0.61844 0.62697 0.0
C1886 C 0.08596 0.65463 0.61672 0.0
C1887 C 0.06915 0.64412 0.59722 0.0
H1888 H 0.67997 0.25392 0.62651 0.0
H1889 H 0.63623 0.21388 0.68836 0.0
H1890 H 0.62321 0.17288 0.66229 0.0
H1891 H 0.61821 0.15211 0.62062 0.0
H1892 H 0.66108 0.19231 0.55862 0.0
H1893 H 0.68167 0.22889 0.58629 0.0
C1894 C 0.6682 0.23597 0.6345 0.0
C1895 C 0.65837 0.2375 0.65922 0.0
C1896 C 0.66073 0.2124 0.61937 0.0
C1897 C 0.64319 0.21386 0.66919 0.0
C1898 C 0.63593 0.19023 0.65435 0.0
C1899 C 0.63274 0.16845 0.61336 0.0
C1900 C 0.63796 0.16984 0.58771 0.0
C1901 C 0.64364 0.18984 0.62921 0.0
C1902 C 0.65692 0.19083 0.57838 0.0
C1903 C 0.66835 0.21194 0.59414 0.0
H1904 H 0.10208 0.4102 0.86786 0.0
H1905 H 0.04482 0.42372 0.80582 0.0
H1906 H 0.00524 0.43461 0.83424 0.0
H1907 H 0.98503 0.42907 0.87597 0.0
H1908 H 0.04159 0.4122 0.93803 0.0
H1909 H 0.08322 0.41307 0.91034 0.0
C1910 C 0.08112 0.41646 0.86062 0.0
C1911 C 0.07617 0.41561 0.83486 0.0
C1912 C 0.05811 0.42093 0.87706 0.0
C1913 C 0.04916 0.42422 0.82558 0.0
C1914 C 0.02639 0.42993 0.84186 0.0
C1915 C 0.00646 0.42633 0.88362 0.0
C1916 C 0.01003 0.41973 0.90898 0.0
C1917 C 0.03026 0.42657 0.86755 0.0
C1918 C 0.03809 0.41629 0.91847 0.0
C1919 C 0.06195 0.41706 0.90268 0.0
H1920 H 0.87045 0.7879 0.17672 0.0
H1921 H 0.81703 0.73982 0.12569 0.0
H1922 H 0.82737 0.77449 0.09297 0.0
H1923 H 0.85755 0.81392 0.07706 0.0
H1924 H 0.91452 0.85913 0.12685 0.0
H1925 H 0.89681 0.83041 0.16187 0.0
C1926 C 0.86099 0.78507 0.15849 0.0
C1927 C 0.84342 0.76098 0.15365 0.0
C1928 C 0.86777 0.80458 0.13946 0.0
C1929 C 0.83061 0.75812 0.13007 0.0
C1930 C 0.83666 0.77787 0.11121 0.0
C1931 C 0.86535 0.81795 0.09575 0.0
C1932 C 0.88718 0.83835 0.09961 0.0
C1933 C 0.85599 0.80057 0.11546 0.0
C1934 C 0.89763 0.84338 0.12369 0.0
C1935 C 0.88767 0.82688 0.14359 0.0
H1936 H 0.42984 0.66265 0.36668 0.0
H1937 H 0.468 0.60877 0.30997 0.0
H1938 H 0.5017 0.58868 0.34031 0.0
H1939 H 0.52243 0.58918 0.38197 0.0
H1940 H 0.4843 0.64267 0.43898 0.0
H1941 H 0.44833 0.66021 0.40941 0.0
C1942 C 0.44518 0.64611 0.36109 0.0
C1943 C 0.44662 0.63735 0.33612 0.0
C1944 C 0.46463 0.63486 0.37857 0.0
C1945 C 0.46681 0.61616 0.32903 0.0
C1946 C 0.48601 0.60463 0.34636 0.0
C1947 C 0.50599 0.60426 0.38812 0.0
C1948 C 0.50627 0.61476 0.41263 0.0
C1949 C 0.48546 0.61425 0.37105 0.0
C1950 C 0.48495 0.63464 0.4201 0.0
C1951 C 0.46427 0.64456 0.40324 0.0
H1952 H 0.38507 0.16141 0.12314 0.0
H1953 H 0.32927 0.20086 0.06881 0.0
H1954 H 0.31094 0.23461 0.1002 0.0
H1955 H 0.31848 0.25834 0.14023 0.0
H1956 H 0.37488 0.21905 0.19461 0.0
H1957 H 0.38535 0.17966 0.16599 0.0
C1958 C 0.36812 0.17677 0.11854 0.0
C1959 C 0.35854 0.17903 0.09391 0.0
C1960 C 0.35849 0.19654 0.13641 0.0
C1961 C 0.3367 0.19883 0.08781 0.0
C1962 C 0.32656 0.2183 0.10565 0.0
C1963 C 0.33249 0.2409 0.14621 0.0
C1964 C 0.34671 0.24242 0.16929 0.0
C1965 C 0.33846 0.21828 0.12963 0.0
C1966 C 0.36455 0.21923 0.17661 0.0
C1967 C 0.37039 0.19649 0.16031 0.0
H1968 H 0.58986 0.62235 0.87191 0.0
H1969 H 0.53862 0.5842 0.81383 0.0
H1970 H 0.50285 0.56849 0.84444 0.0
H1971 H 0.48213 0.57491 0.88594 0.0
H1972 H 0.53328 0.61387 0.94399 0.0
H1973 H 0.57321 0.62003 0.91514 0.0
C1974 C 0.5713 0.60971 0.86619 0.0
C1975 C 0.56648 0.60462 0.84083 0.0
C1976 C 0.55053 0.60167 0.88372 0.0
C1977 C 0.54261 0.58821 0.83336 0.0
C1978 C 0.52205 0.57959 0.8508 0.0
C1979 C 0.50221 0.584 0.89256 0.0
C1980 C 0.50421 0.59491 0.91692 0.0
C1981 C 0.5251 0.5876 0.87582 0.0
C1982 C 0.53065 0.60637 0.9251 0.0
C1983 C 0.55363 0.60972 0.90865 0.0
H1984 H 0.14318 0.89001 0.61905 0.0
H1985 H 0.16291 0.83584 0.55609 0.0
H1986 H 0.17973 0.79757 0.58385 0.0
H1987 H 0.17745 0.77563 0.62555 0.0
H1988 H 0.15196 0.82801 0.68812 0.0
H1989 H 0.14787 0.87042 0.66115 0.0
C1990 C 0.15216 0.87019 0.61142 0.0
C1991 C 0.15118 0.86561 0.58554 0.0
C1992 C 0.15947 0.8474 0.62753 0.0
C1993 C 0.16334 0.84005 0.57588 0.0
C1994 C 0.17236 0.81784 0.59182 0.0
C1995 C 0.17169 0.79647 0.63339 0.0
C1996 C 0.16447 0.79854 0.65876 0.0
C1997 C 0.16869 0.8206 0.61761 0.0
C1998 C 0.15693 0.82571 0.66858 0.0
C1999 C 0.15479 0.84999 0.65318 0.0
H2000 H 0.96669 0.39041 0.32031 0.0
H2001 H 0.90454 0.36036 0.37365 0.0
H2002 H 0.93626 0.37489 0.40785 0.0
H2003 H 0.9851 0.38853 0.42189 0.0
H2004 H 0.04834 0.41419 0.3674 0.0
H2005 H 0.01303 0.40914 0.33445 0.0
C2006 C 0.9597 0.38829 0.33946 0.0
C2007 C 0.93346 0.37478 0.34468 0.0
C2008 C 0.97868 0.39509 0.3588 0.0
C2009 C 0.92463 0.37125 0.36944 0.0
C2010 C 0.94294 0.37907 0.3889 0.0
C2011 C 0.99102 0.39307 0.40282 0.0
C2012 C 0.01937 0.40146 0.39716 0.0
C2013 C 0.97064 0.38963 0.38373 0.0
C2014 C 0.02665 0.40786 0.37237 0.0
C2015 C 0.00648 0.40492 0.35343 0.0
H2016 H 0.32841 0.8115 0.33156 0.0
H2017 H 0.41779 0.78657 0.32425 0.0
H2018 H 0.43178 0.8259 0.35168 0.0
H2019 H 0.41835 0.86285 0.38237 0.0
H2020 H 0.3289 0.88416 0.39344 0.0
H2021 H 0.31531 0.85192 0.35925 0.0
C2022 C 0.35101 0.81482 0.3358 0.0
C2023 C 0.37194 0.79568 0.3261 0.0
C2024 C 0.35897 0.83732 0.35202 0.0
C2025 C 0.40117 0.80086 0.33131 0.0
C2026 C 0.40926 0.82346 0.34706 0.0
C2027 C 0.39605 0.86128 0.37659 0.0
C2028 C 0.3747 0.87596 0.39025 0.0
C2029 C 0.38834 0.8413 0.35807 0.0
C2030 C 0.34572 0.87335 0.38296 0.0
C2031 C 0.33795 0.85455 0.3637 0.0
H2032 H 0.95673 0.60261 0.15814 0.0
H2033 H 0.89597 0.64795 0.11181 0.0
H2034 H 0.92499 0.6368 0.07489 0.0
H2035 H 0.97075 0.61893 0.05688 0.0
H2036 H 0.03254 0.57648 0.10467 0.0
H2037 H 1.00013 0.58141 0.13976 0.0
C2038 C 0.94951 0.60914 0.13979 0.0
C2039 C 0.9243 0.62556 0.13736 0.0
C2040 C 0.96679 0.60361 0.119 0.0
C2041 C 0.91521 0.63477 0.11378 0.0
C2042 C 0.93195 0.62871 0.09281 0.0
C2043 C 0.97698 0.6107 0.07496 0.0
C2044 C 0.00405 0.59742 0.07806 0.0
C2045 C 0.95832 0.614 0.09534 0.0
C2046 C 0.01173 0.58648 0.10157 0.0
C2047 C 0.99325 0.58941 0.12177 0.0
H2048 H 0.16508 0.21164 0.91769 0.0
H2049 H 0.13758 0.14882 0.86365 0.0
H2050 H 0.15237 0.18099 0.82984 0.0
H2051 H 0.16525 0.23007 0.81619 0.0
H2052 H 0.18936 0.29408 0.8706 0.0
H2053 H 0.18427 0.25847 0.90373 0.0
C2054 C 0.16351 0.20468 0.89848 0.0
C2055 C 0.15068 0.17804 0.89292 0.0
C2056 C 0.17084 0.22379 0.87928 0.0
C2057 C 0.14788 0.16921 0.86811 0.0
C2058 C 0.15596 0.18772 0.84887 0.0
C2059 C 0.1697 0.23602 0.83528 0.0
C2060 C 0.17723 0.26469 0.84099 0.0
C2061 C 0.16616 0.21558 0.85427 0.0
C2062 C 0.18357 0.27211 0.86572 0.0
C2063 C 0.18051 0.2518 0.8847 0.0
H2064 H 0.60698 0.3854 0.62331 0.0
H2065 H 0.55657 0.42146 0.68295 0.0
H2066 H 0.52364 0.44391 0.653 0.0
H2067 H 0.50447 0.44448 0.61076 0.0
H2068 H 0.55358 0.40647 0.55101 0.0
H2069 H 0.59218 0.39385 0.57998 0.0
C2070 C 0.58936 0.39911 0.62954 0.0
C2071 C 0.58393 0.40204 0.65499 0.0
C2072 C 0.57011 0.41101 0.61227 0.0
C2073 C 0.561 0.41933 0.66327 0.0
C2074 C 0.54212 0.43187 0.6462 0.0
C2075 C 0.52399 0.43431 0.6039 0.0
C2076 C 0.52584 0.42565 0.57894 0.0
C2077 C 0.5457 0.42662 0.62073 0.0
C2078 C 0.55133 0.41251 0.57033 0.0
C2079 C 0.5734 0.40536 0.58686 0.0
H2080 H 0.19888 0.26098 0.24243 0.0
H2081 H 0.24835 0.19743 0.20182 0.0
H2082 H 0.29317 0.22147 0.21417 0.0
H2083 H 0.3181 0.25955 0.23769 0.0
H2084 H 0.26837 0.3229 0.27828 0.0
H2085 H 0.22371 0.2988 0.26593 0.0
C2086 C 0.21942 0.25265 0.23588 0.0
C2087 C 0.2203 0.22764 0.22096 0.0
C2088 C 0.24502 0.26584 0.24388 0.0
C2089 C 0.24714 0.21684 0.21309 0.0
C2090 C 0.27274 0.23033 0.22042 0.0
C2091 C 0.29753 0.26781 0.24418 0.0
C2092 C 0.29653 0.29288 0.25905 0.0
C2093 C 0.27194 0.25451 0.23621 0.0
C2094 C 0.26967 0.3035 0.26701 0.0
C2095 C 0.24414 0.28997 0.25969 0.0
H2096 H 0.06 0.99299 0.51621 0.0
H2097 H 0.99883 0.93766 0.47894 0.0
H2098 H 0.96215 0.97562 0.48171 0.0
H2099 H 0.94729 0.0244 0.49484 0.0
H2100 H 0.00844 0.08003 0.53164 0.0
H2101 H 0.04502 0.04174 0.52957 0.0
C2102 C 0.03885 0.98938 0.50822 0.0
C2103 C 0.03241 0.96251 0.49704 0.0
C2104 C 0.01758 0.01108 0.51043 0.0
C2105 C 0.00457 0.95817 0.48735 0.0
C2106 C 0.98345 0.97977 0.48918 0.0
C2107 C 0.96838 0.02793 0.50299 0.0
C2108 C 0.97494 0.05494 0.51378 0.0
C2109 C 0.98959 0.00617 0.50096 0.0
C2110 C 1.00269 0.05932 0.52361 0.0
C2111 C 0.02372 0.03756 0.52212 0.0
H2112 H 0.18962 0.77614 0.72815 0.0
H2113 H 0.21558 0.71432 0.78377 0.0
H2114 H 0.26574 0.73032 0.78012 0.0
H2115 H 0.30263 0.76067 0.75974 0.0
H2116 H 0.27661 0.82177 0.70353 0.0
H2117 H 0.22636 0.80633 0.70775 0.0
C2118 C 0.20615 0.76671 0.73989 0.0
C2119 C 0.19883 0.74455 0.75664 0.0
C2120 C 0.23514 0.77502 0.73676 0.0
C2121 C 0.22065 0.73191 0.77119 0.0
C2122 C 0.24938 0.74069 0.76878 0.0
C2123 C 0.28603 0.77 0.74799 0.0
C2124 C 0.29336 0.79176 0.73085 0.0
C2125 C 0.25701 0.76176 0.75121 0.0
C2126 C 0.2715 0.80449 0.71641 0.0
C2127 C 0.24274 0.796 0.7191 0.0
H2128 H 0.56052 0.99758 0.98196 0.0
H2129 H 0.49775 0.93371 0.00419 0.0
H2130 H 0.45994 0.97081 0.00368 0.0
H2131 H 0.44477 0.02116 -0.00345 0.0
H2132 H 0.5077 0.08492 0.97441 0.0
H2133 H 0.54538 0.04775 0.97472 0.0
C2134 C 0.53863 0.99173 0.98694 0.0
C2135 C 0.53206 0.96286 0.99329 0.0
C2136 C 0.51697 0.01303 0.98618 0.0
C2137 C 0.50349 0.95575 -0.00057 0.0
C2138 C 0.48182 0.97693 -0.00104 0.0
C2139 C 0.46664 0.02693 0.99145 0.0
C2140 C 0.47332 0.05583 0.98523 0.0
C2141 C 0.48829 1.00557 0.99215 0.0
C2142 C 0.5019 0.06286 0.97907 0.0
C2143 C 0.52349 0.04165 0.97942 0.0
H2144 H 0.31065 0.76618 0.26018 0.0
H2145 H 0.27298 0.69775 0.21658 0.0
H2146 H 0.22492 0.71863 0.22271 0.0
H2147 H 0.19334 0.7552 0.24209 0.0
H2148 H 0.23099 0.82277 0.28674 0.0
H2149 H 0.27914 0.80271 0.27953 0.0
C2150 C 0.29199 0.75623 0.25158 0.0
C2151 C 0.29536 0.73071 0.23763 0.0
C2152 C 0.2643 0.76759 0.25617 0.0
C2153 C 0.2709 0.71768 0.22707 0.0
C2154 C 0.2434 0.72936 0.23087 0.0
C2155 C 0.21203 0.76511 0.25069 0.0
C2156 C 0.20859 0.7901 0.26534 0.0
C2157 C 0.23975 0.75392 0.24588 0.0
C2158 C 0.2331 0.80326 0.27571 0.0
C2159 C 0.26066 0.79202 0.27134 0.0
H2160 H 0.54599 0.01328 0.49801 0.0
H2161 H 0.47816 0.07309 0.47806 0.0
H2162 H 0.44278 0.03372 0.48055 0.0
H2163 H 0.43137 0.98206 0.48841 0.0
H2164 H 0.49989 0.92361 0.5098 0.0
H2165 H 0.53465 0.96295 0.50712 0.0
C2166 C 0.52353 0.01783 0.49392 0.0
C2167 C 0.51488 0.04614 0.48747 0.0
C2168 C 0.50334 0.99535 0.49601 0.0
C2169 C 0.48552 0.05148 0.48273 0.0
C2170 C 0.46526 0.029 0.48434 0.0
C2171 C 0.45383 0.978 0.49282 0.0
C2172 C 0.46292 0.94974 0.49926 0.0
C2173 C 0.47391 1.00083 0.4911 0.0
C2174 C 0.49221 0.94497 0.5047 0.0
C2175 C 0.51218 0.96747 0.50308 0.0
H2176 H 0.24096 0.31843 0.74394 0.0
H2177 H 0.17803 0.25011 0.73711 0.0
H2178 H 0.21647 0.21387 0.74048 0.0
H2179 H 0.26767 0.20175 0.74613 0.0
H2180 H 0.33038 0.27026 0.75332 0.0
H2181 H 0.29196 0.30638 0.74968 0.0
C2182 C 0.23556 0.29563 0.7429 0.0
C2183 C 0.20657 0.28705 0.74007 0.0
C2184 C 0.25765 0.27498 0.74542 0.0
C2185 C 0.20012 0.25736 0.73901 0.0
C2186 C 0.22208 0.23663 0.74117 0.0
C2187 C 0.27298 0.22458 0.74718 0.0
C2188 C 0.30194 0.23324 0.75018 0.0
C2189 C 0.25086 0.24522 0.74464 0.0
C2190 C 0.30832 0.26294 0.75126 0.0
C2191 C 0.28638 0.28361 0.74896 0.0
H2192 H 0.01337 0.94856 0.006 0.0
H2193 H 0.94694 0.98618 0.96015 0.0
H2194 H 0.97103 0.0333 0.96202 0.0
H2195 H 0.01061 0.06402 0.9775 0.0
H2196 H 0.07641 0.02637 0.02407 0.0
H2197 H 0.05238 0.97932 0.022 0.0
C2198 C 0.00458 0.96694 -0.00406 0.0
C2199 C 0.97883 0.96384 0.98244 0.0
C2200 C 0.01788 0.99417 -0.002 0.0
C2201 C 0.96709 0.98802 0.97022 0.0
C2202 C 0.98063 0.015 0.97158 0.0
C2203 C 0.01924 0.04567 0.98769 0.0
C2204 C 0.04494 0.04871 0.00132 0.0
C2205 C 0.00578 0.01846 0.98576 0.0
C2206 C 0.0564 0.02456 0.01379 0.0
C2207 C 0.04288 0.99761 0.01234 0.0
H2208 H 0.80183 0.73752 0.75412 0.0
H2209 H 0.75631 0.8026 0.79638 0.0
H2210 H 0.71044 0.77955 0.78652 0.0
H2211 H 0.68293 0.74328 0.76319 0.0
H2212 H 0.72812 0.67762 0.72153 0.0
H2213 H 0.77432 0.69993 0.73221 0.0
C2214 C 0.78195 0.74634 0.76162 0.0
C2215 C 0.78257 0.77204 0.7757 0.0
C2216 C 0.75546 0.73375 0.75492 0.0
C2217 C 0.75651 0.78299 0.78533 0.0
C2218 C 0.73019 0.77009 0.77939 0.0
C2219 C 0.70283 0.73399 0.75626 0.0
C2220 C 0.70207 0.70894 0.74143 0.0
C2221 C 0.72934 0.74606 0.76351 0.0
C2222 C 0.72815 0.69712 0.73273 0.0
C2223 C 0.75457 0.70958 0.73916 0.0
H2224 H 0.7794 0.29491 0.25393 0.0
H2225 H 0.8326 0.2202 0.23829 0.0
H2226 H 0.79058 0.18865 0.2433 0.0
H2227 H 0.73897 0.18254 0.25227 0.0
H2228 H 0.6863 0.25759 0.26825 0.0
H2229 H 0.72841 0.2888 0.26372 0.0
C2230 C 0.78189 0.27175 0.25135 0.0
C2231 C 0.80913 0.25997 0.24549 0.0
C2232 C 0.75791 0.2538 0.25485 0.0
C2233 C 0.81186 0.22986 0.24251 0.0
C2234 C 0.7879 0.21182 0.24561 0.0
C2235 C 0.73671 0.20568 0.25514 0.0
C2236 C 0.70944 0.21767 0.2607 0.0
C2237 C 0.76089 0.22356 0.25198 0.0
C2238 C 0.707 0.24774 0.26413 0.0
C2239 C 0.73102 0.26563 0.26131 0.0
H2240 H 0.81738 0.26105 0.75352 0.0
H2241 H 0.78094 0.19925 0.70244 0.0
H2242 H 0.73328 0.22146 0.70747 0.0
H2243 H 0.70176 0.258 0.72703 0.0
H2244 H 0.73835 0.31993 0.77789 0.0
H2245 H 0.78594 0.29751 0.77305 0.0
C2246 C 0.79913 0.25287 0.74307 0.0
C2247 C 0.80277 0.22888 0.72725 0.0
C2248 C 0.77164 0.26516 0.74668 0.0
C2249 C 0.77873 0.21797 0.71443 0.0
C2250 C 0.75143 0.23044 0.71753 0.0
C2251 C 0.72003 0.2661 0.7375 0.0
C2252 C 0.71649 0.29018 0.75323 0.0
C2253 C 0.74752 0.25375 0.73391 0.0
C2254 C 0.74053 0.30109 0.76603 0.0
C2255 C 0.76777 0.28852 0.76302 0.0
H2256 H 0.69107 0.73914 0.25487 0.0
H2257 H 0.73183 0.80949 0.21574 0.0
H2258 H 0.77863 0.78535 0.2193 0.0
H2259 H 0.80813 0.74487 0.23429 0.0
H2260 H 0.76779 0.67409 0.27317 0.0
H2261 H 0.7208 0.69815 0.26969 0.0
C2262 C 0.71013 0.74884 0.24671 0.0
C2263 C 0.70801 0.77586 0.23475 0.0
C2264 C 0.73713 0.73519 0.24944 0.0
C2265 C 0.73296 0.78857 0.22481 0.0
C2266 C 0.75973 0.77492 0.22705 0.0
C2267 C 0.78916 0.73499 0.24246 0.0
C2268 C 0.79149 0.70798 0.25438 0.0
C2269 C 0.76216 0.74848 0.23968 0.0
C2270 C 0.76656 0.69507 0.26421 0.0
C2271 C 0.73967 0.70866 0.26199 0.0
H2272 H 0.44061 0.53142 -0.0013 0.0
H2273 H 0.50844 0.59238 0.01512 0.0
H2274 H 0.54459 0.55442 0.00823 0.0
H2275 H 0.55678 0.50395 -0.0024 0.0
H2276 H 0.48863 0.44353 0.98055 0.0
H2277 H 0.45276 0.48163 0.98702 0.0
C2278 C 0.46327 0.53646 0.00109 0.0
C2279 C 0.4717 0.56475 0.00783 0.0
C2280 C 0.4839 0.51475 -0.00349 0.0
C2281 C 0.50126 0.57079 0.01033 0.0
C2282 C 0.52195 0.54912 0.00617 0.0
C2283 C 0.5341 0.49913 0.99497 0.0
C2284 C 0.52551 0.47079 0.98848 0.0
C2285 C 0.51351 0.52107 -0.00088 0.0
C2286 C 0.49597 0.46508 0.98531 0.0
C2287 C 0.4754 0.48683 0.98925 0.0
H2288 H 0.95017 0.51082 0.5016 0.0
H2289 H 0.00689 0.57809 0.4751 0.0
H2290 H 0.04739 0.54409 0.47546 0.0
H2291 H 0.06673 0.49549 0.48371 0.0
H2292 H 0.00998 0.42832 0.51037 0.0
H2293 H 0.96951 0.46232 0.50995 0.0
C2294 C 0.9713 0.51802 0.49561 0.0
C2295 C 0.9754 0.54695 0.48814 0.0
C2296 C 0.99458 0.49851 0.49628 0.0
C2297 C 1.00305 0.55592 0.48076 0.0
C2298 C 0.02627 0.53653 0.48112 0.0
C2299 C 0.04559 0.48831 0.4897 0.0
C2300 C 0.04148 0.45939 0.4972 0.0
C2301 C 0.02233 0.50785 0.48905 0.0
C2302 C 0.01383 0.45047 0.50465 0.0
C2303 C 0.99062 0.46986 0.50426 0.0
H2304 H 0.06853 0.5162 0.98619 0.0
H2305 H 1.0004 0.57748 0.97052 0.0
H2306 H 0.96442 0.53984 0.97788 0.0
H2307 H 0.95218 0.48999 0.98964 0.0
H2308 H 0.0201 0.42849 0.00522 0.0
H2309 H 0.05624 0.46601 -0.0025 0.0
C2310 C 0.04584 0.52133 0.98403 0.0
C2311 C 0.03732 0.54977 0.97758 0.0
C2312 C 0.02518 0.49966 0.98876 0.0
C2313 C 0.00771 0.55585 0.9752 0.0
C2314 C 0.98707 0.53435 0.97962 0.0
C2315 C 0.97487 0.48474 0.99162 0.0
C2316 C 0.98328 0.45637 -0.00167 0.0
C2317 C 0.99554 0.50629 0.9867 0.0
C2318 C 0.01289 0.45012 0.00045 0.0
C2319 C 0.03359 0.47154 -0.00419 0.0
H2320 H 0.51576 0.43953 0.50414 0.0
H2321 H 0.45 0.4885 0.46596 0.0
H2322 H 0.47845 0.53266 0.4705 0.0
H2323 H 0.52085 0.55782 0.48702 0.0
H2324 H 0.58699 0.50924 0.52504 0.0
H2325 H 0.55907 0.46463 0.51978 0.0
C2326 C 0.50799 0.45973 0.49633 0.0
C2327 C 0.48093 0.46071 0.48447 0.0
C2328 C 0.52406 0.48527 0.49976 0.0
C2329 C 0.4709 0.48718 0.4749 0.0
C2330 C 0.48698 0.51249 0.47777 0.0
C2331 C 0.52893 0.53754 0.49451 0.0
C2332 C 0.55568 0.53687 0.50683 0.0
C2333 C 0.51326 0.51192 0.49065 0.0
C2334 C 0.56626 0.51031 0.51579 0.0
C2335 C 0.55045 0.48479 0.51255 0.0
loop_
_geom_bond_atom_site_label_1
_geom_bond_atom_site_label_2
_geom_bond_distance
_geom_bond_site_symmetry_2
_ccdc_geom_bond_type
C0 C1 1.351 . S
C0 N3 1.368 . S
C0 H5 0.931 . S
C1 C0 1.351 . S
C1 N2 1.373 . S
C1 H29 0.930 . S
N2 C1 1.373 . S
N2 C4 1.340 . S
N3 C0 1.368 . S
N3 C4 1.321 . S
N3 Co6 2.135 . S
C4 N2 1.340 . S
C4 N3 1.321 . S
C4 H28 0.930 . S
H5 C0 0.931 . S
Co6 N3 2.135 . S
Co6 N9 2.121 . S
Co6 O14 2.055 . S
Co6 O17 2.039 . S
Co6 N20 2.140 . S
C7 O8 1.227 . S
C7 O17 1.265 . S
O8 C7 1.227 . S
N9 Co6 2.121 . S
N9 C11 1.375 . S
N9 C12 1.313 . S
C10 C11 1.338 . S
C10 N13 1.377 . S
C10 H30 0.930 . S
C11 N9 1.375 . S
C11 C10 1.338 . S
C11 H15 0.931 . S
C12 N9 1.313 . S
C12 N13 1.344 . S
C12 H16 0.930 . S
N13 C10 1.377 . S
N13 C12 1.344 . S
O14 Co6 2.055 . S
O14 C18 1.253 . S
H15 C11 0.931 . S
H16 C12 0.930 . S
O17 Co6 2.039 . S
O17 C7 1.265 . S
C18 O14 1.253 . S
C18 O19 1.227 . S
O19 C18 1.227 . S
N20 Co6 2.140 . S
N20 C23 1.346 . S
N20 C24 1.345 . S
C21 C22 1.387 . S
C21 C25 1.391 . S
C22 C21 1.387 . S
C22 C23 1.369 . S
C22 H31 0.929 . S
C23 N20 1.346 . S
C23 C22 1.369 . S
C23 H26 0.928 . S
C24 N20 1.345 . S
C24 C25 1.371 . S
C24 H27 0.931 . S
C25 C21 1.391 . S
C25 C24 1.371 . S
C25 H32 0.930 . S
H26 C23 0.928 . S
H27 C24 0.931 . S
H28 C4 0.930 . S
H29 C1 0.930 . S
H30 C10 0.930 . S
H31 C22 0.929 . S
H32 C25 0.930 . S
C33 C34 1.351 . S
C33 N36 1.368 . S
C33 H38 0.931 . S
C34 C33 1.351 . S
C34 N35 1.380 . S
C34 H62 0.930 . S
N35 C34 1.380 . S
N35 C37 1.345 . S
N36 C33 1.368 . S
N36 C37 1.321 . S
N36 Co39 2.135 . S
C37 N35 1.345 . S
C37 N36 1.321 . S
C37 H61 0.930 . S
H38 C33 0.931 . S
Co39 N36 2.135 . S
Co39 N42 2.121 . S
Co39 O47 2.055 . S
Co39 O50 2.039 . S
Co39 N53 2.140 . S
C40 O41 1.227 . S
C40 O50 1.265 . S
O41 C40 1.227 . S
N42 Co39 2.121 . S
N42 C44 1.375 . S
N42 C45 1.313 . S
C43 C44 1.338 . S
C43 N46 1.377 . S
C43 H63 0.930 . S
C44 N42 1.375 . S
C44 C43 1.338 . S
C44 H48 0.931 . S
C45 N42 1.313 . S
C45 N46 1.344 . S
C45 H49 0.930 . S
N46 C43 1.377 . S
N46 C45 1.344 . S
O47 Co39 2.055 . S
O47 C51 1.253 . S
H48 C44 0.931 . S
H49 C45 0.930 . S
O50 Co39 2.039 . S
O50 C40 1.265 . S
C51 O47 1.253 . S
C51 O52 1.227 . S
O52 C51 1.227 . S
N53 Co39 2.140 . S
N53 C56 1.346 . S
N53 C57 1.345 . S
C54 C55 1.387 . S
C54 C58 1.391 . S
C55 C54 1.387 . S
C55 C56 1.369 . S
C55 H64 0.929 . S
C56 N53 1.346 . S
C56 C55 1.369 . S
C56 H59 0.928 . S
C57 N53 1.345 . S
C57 C58 1.371 . S
C57 H60 0.931 . S
C58 C54 1.391 . S
C58 C57 1.371 . S
C58 H65 0.930 . S
H59 C56 0.928 . S
H60 C57 0.931 . S
H61 C37 0.930 . S
H62 C34 0.930 . S
H63 C43 0.930 . S
H64 C55 0.929 . S
H65 C58 0.930 . S
C66 C67 1.351 . S
C66 N69 1.368 . S
C66 H71 0.931 . S
C67 C66 1.351 . S
C67 N68 1.373 . S
C67 H95 0.930 . S
N68 C67 1.373 . S
N68 C70 1.340 . S
N69 C66 1.368 . S
N69 C70 1.321 . S
N69 Co72 2.135 . S
C70 N68 1.340 . S
C70 N69 1.321 . S
C70 H94 0.930 . S
H71 C66 0.931 . S
Co72 N69 2.135 . S
Co72 N75 2.121 . S
Co72 O80 2.055 . S
Co72 O83 2.039 . S
Co72 N86 2.140 . S
C73 O74 1.227 . S
C73 O83 1.265 . S
O74 C73 1.227 . S
N75 Co72 2.121 . S
N75 C77 1.375 . S
N75 C78 1.313 . S
C76 C77 1.338 . S
C76 N79 1.377 . S
C76 H96 0.930 . S
C77 N75 1.375 . S
C77 C76 1.338 . S
C77 H81 0.931 . S
C78 N75 1.313 . S
C78 N79 1.344 . S
C78 H82 0.930 . S
N79 C76 1.377 . S
N79 C78 1.344 . S
O80 Co72 2.055 . S
O80 C84 1.253 . S
H81 C77 0.931 . S
H82 C78 0.930 . S
O83 Co72 2.039 . S
O83 C73 1.265 . S
C84 O80 1.253 . S
C84 O85 1.227 . S
O85 C84 1.227 . S
N86 Co72 2.140 . S
N86 C89 1.346 . S
N86 C90 1.345 . S
C87 C88 1.387 . S
C87 C91 1.391 . S
C88 C87 1.387 . S
C88 C89 1.369 . S
C88 H97 0.929 . S
C89 N86 1.346 . S
C89 C88 1.369 . S
C89 H92 0.928 . S
C90 N86 1.345 . S
C90 C91 1.371 . S
C90 H93 0.931 . S
C91 C87 1.391 . S
C91 C90 1.371 . S
C91 H98 0.930 . S
H92 C89 0.928 . S
H93 C90 0.931 . S
H94 C70 0.930 . S
H95 C67 0.930 . S
H96 C76 0.930 . S
H97 C88 0.929 . S
H98 C91 0.930 . S
C99 C100 1.351 . S
C99 N102 1.368 . S
C99 H104 0.931 . S
C100 C99 1.351 . S
C100 N101 1.373 . S
C100 H128 0.930 . S
N101 C100 1.373 . S
N101 C103 1.340 . S
N102 C99 1.368 . S
N102 C103 1.321 . S
N102 Co105 2.135 . S
C103 N101 1.340 . S
C103 N102 1.321 . S
C103 H127 0.930 . S
H104 C99 0.931 . S
Co105 N102 2.135 . S
Co105 N108 2.121 1_554 S
Co105 O113 2.055 . S
Co105 O116 2.039 . S
Co105 N119 2.140 . S
C106 O107 1.227 . S
C106 O116 1.265 . S
O107 C106 1.227 . S
N108 Co105 2.121 1_556 S
N108 C110 1.375 . S
N108 C111 1.313 . S
C109 C110 1.338 . S
C109 N112 1.377 . S
C109 H129 0.930 . S
C110 N108 1.375 . S
C110 C109 1.338 . S
C110 H114 0.931 . S
C111 N108 1.313 . S
C111 N112 1.344 . S
C111 H115 0.930 . S
N112 C109 1.377 . S
N112 C111 1.344 . S
O113 Co105 2.055 . S
O113 C117 1.253 . S
H114 C110 0.931 . S
H115 C111 0.930 . S
O116 Co105 2.039 . S
O116 C106 1.265 . S
C117 O113 1.253 . S
C117 O118 1.227 . S
O118 C117 1.227 . S
N119 Co105 2.140 . S
N119 C122 1.346 . S
N119 C123 1.345 . S
C120 C121 1.387 . S
C120 C124 1.391 . S
C121 C120 1.387 . S
C121 C122 1.369 . S
C121 H130 0.929 . S
C122 N119 1.346 . S
C122 C121 1.369 . S
C122 H125 0.928 . S
C123 N119 1.345 . S
C123 C124 1.371 . S
C123 H126 0.931 . S
C124 C120 1.391 . S
C124 C123 1.371 . S
C124 H131 0.930 . S
H125 C122 0.928 . S
H126 C123 0.931 . S
H127 C103 0.930 . S
H128 C100 0.930 . S
H129 C109 0.930 . S
H130 C121 0.929 . S
H131 C124 0.930 . S
C132 C133 1.351 . S
C132 N135 1.368 . S
C132 H137 0.931 . S
C133 C132 1.351 . S
C133 N134 1.373 . S
C133 H161 0.930 . S
N134 C133 1.373 . S
N134 C136 1.340 . S
N135 C132 1.368 . S
N135 C136 1.321 . S
N135 Co138 2.135 . S
C136 N134 1.340 . S
C136 N135 1.321 . S
C136 H160 0.930 . S
H137 C132 0.931 . S
Co138 N135 2.135 . S
Co138 N141 2.121 . S
Co138 O146 2.055 . S
Co138 O149 2.039 . S
Co138 N152 2.140 . S
C139 O140 1.227 . S
C139 O149 1.265 . S
O140 C139 1.227 . S
N141 Co138 2.121 . S
N141 C143 1.375 . S
N141 C144 1.313 . S
C142 C143 1.338 . S
C142 N145 1.377 . S
C142 H162 0.930 . S
C143 N141 1.375 . S
C143 C142 1.338 . S
C143 H147 0.931 . S
C144 N141 1.313 . S
C144 N145 1.344 . S
C144 H148 0.930 . S
N145 C142 1.377 . S
N145 C144 1.344 . S
O146 Co138 2.055 . S
O146 C150 1.253 . S
H147 C143 0.931 . S
H148 C144 0.930 . S
O149 Co138 2.039 . S
O149 C139 1.265 . S
C150 O146 1.253 . S
C150 O151 1.227 . S
O151 C150 1.227 . S
N152 Co138 2.140 . S
N152 C155 1.346 . S
N152 C156 1.345 . S
C153 C154 1.387 . S
C153 C157 1.391 . S
C154 C153 1.387 . S
C154 C155 1.369 . S
C154 H163 0.929 . S
C155 N152 1.346 . S
C155 C154 1.369 . S
C155 H158 0.928 . S
C156 N152 1.345 . S
C156 C157 1.371 . S
C156 H159 0.931 . S
C157 C153 1.391 . S
C157 C156 1.371 . S
C157 H164 0.930 . S
H158 C155 0.928 . S
H159 C156 0.931 . S
H160 C136 0.930 . S
H161 C133 0.930 . S
H162 C142 0.930 . S
H163 C154 0.929 . S
H164 C157 0.930 . S
C165 C166 1.351 . S
C165 N168 1.368 . S
C165 H170 0.931 . S
C166 C165 1.351 . S
C166 N167 1.373 . S
C166 H194 0.930 . S
N167 C166 1.373 . S
N167 C169 1.340 . S
N168 C165 1.368 . S
N168 C169 1.321 . S
N168 Co171 2.135 . S
C169 N167 1.340 . S
C169 N168 1.321 . S
C169 H193 0.930 . S
H170 C165 0.931 . S
Co171 N168 2.135 . S
Co171 N174 2.121 . S
Co171 O179 2.055 . S
Co171 O182 2.039 . S
Co171 N185 2.140 . S
C172 O173 1.227 . S
C172 O182 1.265 . S
O173 C172 1.227 . S
N174 Co171 2.121 . S
N174 C176 1.375 . S
N174 C177 1.313 . S
C175 C176 1.338 . S
C175 N178 1.377 . S
C175 H195 0.930 . S
C176 N174 1.375 . S
C176 C175 1.338 . S
C176 H180 0.931 . S
C177 N174 1.313 . S
C177 N178 1.344 . S
C177 H181 0.930 . S
N178 C175 1.377 . S
N178 C177 1.344 . S
O179 Co171 2.055 . S
O179 C183 1.253 . S
H180 C176 0.931 . S
H181 C177 0.930 . S
O182 Co171 2.039 . S
O182 C172 1.265 . S
C183 O179 1.253 . S
C183 O184 1.227 . S
O184 C183 1.227 . S
N185 Co171 2.140 . S
N185 C188 1.346 . S
N185 C189 1.345 . S
C186 C187 1.387 . S
C186 C190 1.391 . S
C187 C186 1.387 . S
C187 C188 1.369 . S
C187 H196 0.929 . S
C188 N185 1.346 . S
C188 C187 1.369 . S
C188 H191 0.928 . S
C189 N185 1.345 . S
C189 C190 1.371 . S
C189 H192 0.931 . S
C190 C186 1.391 . S
C190 C189 1.371 . S
C190 H197 0.930 . S
H191 C188 0.928 . S
H192 C189 0.931 . S
H193 C169 0.930 . S
H194 C166 0.930 . S
H195 C175 0.930 . S
H196 C187 0.929 . S
H197 C190 0.930 . S
C198 C199 1.351 . S
C198 N201 1.368 . S
C198 H203 0.931 . S
C199 C198 1.351 . S
C199 N200 1.373 . S
C199 H227 0.930 . S
N200 C199 1.373 . S
N200 C202 1.340 . S
N201 C198 1.368 . S
N201 C202 1.321 . S
N201 Co204 2.135 . S
C202 N200 1.340 . S
C202 N201 1.321 . S
C202 H226 0.930 . S
H203 C198 0.931 . S
Co204 N201 2.135 . S
Co204 N207 2.121 . S
Co204 O212 2.055 . S
Co204 O215 2.039 . S
Co204 N218 2.140 . S
C205 O206 1.227 . S
C205 O215 1.265 . S
O206 C205 1.227 . S
N207 Co204 2.121 . S
N207 C209 1.375 . S
N207 C210 1.313 . S
C208 C209 1.338 . S
C208 N211 1.377 . S
C208 H228 0.930 . S
C209 N207 1.375 . S
C209 C208 1.338 . S
C209 H213 0.931 . S
C210 N207 1.313 . S
C210 N211 1.344 . S
C210 H214 0.930 . S
N211 C208 1.377 . S
N211 C210 1.344 . S
O212 Co204 2.055 . S
O212 C216 1.253 . S
H213 C209 0.931 . S
H214 C210 0.930 . S
O215 Co204 2.039 . S
O215 C205 1.265 . S
C216 O212 1.253 . S
C216 O217 1.227 . S
O217 C216 1.227 . S
N218 Co204 2.140 . S
N218 C221 1.346 . S
N218 C222 1.345 . S
C219 C220 1.387 . S
C219 C223 1.391 . S
C220 C219 1.387 . S
C220 C221 1.369 . S
C220 H229 0.929 . S
C221 N218 1.346 . S
C221 C220 1.369 . S
C221 H224 0.928 . S
C222 N218 1.345 . S
C222 C223 1.371 . S
C222 H225 0.931 . S
C223 C219 1.391 . S
C223 C222 1.371 . S
C223 H230 0.930 . S
H224 C221 0.928 . S
H225 C222 0.931 . S
H226 C202 0.930 . S
H227 C199 0.930 . S
H228 C208 0.930 . S
H229 C220 0.929 . S
H230 C223 0.930 . S
C231 C232 1.351 . S
C231 N234 1.368 . S
C231 H236 0.931 . S
C232 C231 1.351 . S
C232 N233 1.380 . S
C232 H260 0.930 . S
N233 C232 1.380 . S
N233 C235 1.345 . S
N234 C231 1.368 . S
N234 C235 1.321 . S
N234 Co237 2.135 . S
C235 N233 1.345 . S
C235 N234 1.321 . S
C235 H259 0.930 . S
H236 C231 0.931 . S
Co237 N234 2.135 . S
Co237 N240 2.121 1_556 S
Co237 O245 2.055 . S
Co237 O248 2.039 . S
Co237 N251 2.140 . S
C238 O239 1.227 . S
C238 O248 1.265 . S
O239 C238 1.227 . S
N240 Co237 2.121 1_554 S
N240 C242 1.375 . S
N240 C243 1.313 . S
C241 C242 1.338 . S
C241 N244 1.377 . S
C241 H261 0.930 . S
C242 N240 1.375 . S
C242 C241 1.338 . S
C242 H246 0.931 . S
C243 N240 1.313 . S
C243 N244 1.344 . S
C243 H247 0.930 . S
N244 C241 1.377 . S
N244 C243 1.344 . S
O245 Co237 2.055 . S
O245 C249 1.253 . S
H246 C242 0.931 . S
H247 C243 0.930 . S
O248 Co237 2.039 . S
O248 C238 1.265 . S
C249 O245 1.253 . S
C249 O250 1.227 . S
O250 C249 1.227 . S
N251 Co237 2.140 . S
N251 C254 1.346 . S
N251 C255 1.345 . S
C252 C253 1.387 . S
C252 C256 1.391 . S
C253 C252 1.387 . S
C253 C254 1.369 . S
C253 H262 0.929 . S
C254 N251 1.346 . S
C254 C253 1.369 . S
C254 H257 0.928 . S
C255 N251 1.345 . S
C255 C256 1.371 . S
C255 H258 0.931 . S
C256 C252 1.391 . S
C256 C255 1.371 . S
C256 H263 0.930 . S
H257 C254 0.928 . S
H258 C255 0.931 . S
H259 C235 0.930 . S
H260 C232 0.930 . S
H261 C241 0.930 . S
H262 C253 0.929 . S
H263 C256 0.930 . S
C264 C265 1.351 . S
C264 N267 1.368 . S
C264 H269 0.931 . S
C265 C264 1.351 . S
C265 N266 1.373 . S
C265 H293 0.930 . S
N266 C265 1.373 . S
N266 C268 1.340 . S
N267 C264 1.368 . S
N267 C268 1.321 . S
N267 Co270 2.135 . S
C268 N266 1.340 . S
C268 N267 1.321 . S
C268 H292 0.930 . S
H269 C264 0.931 . S
Co270 N267 2.135 . S
Co270 N273 2.121 . S
Co270 O278 2.055 . S
Co270 O281 2.039 . S
Co270 N284 2.140 . S
C271 O272 1.227 . S
C271 O281 1.265 . S
O272 C271 1.227 . S
N273 Co270 2.121 . S
N273 C275 1.375 . S
N273 C276 1.313 . S
C274 C275 1.338 . S
C274 N277 1.377 . S
C274 H294 0.930 . S
C275 N273 1.375 . S
C275 C274 1.338 . S
C275 H279 0.931 . S
C276 N273 1.313 . S
C276 N277 1.344 . S
C276 H280 0.930 . S
N277 C274 1.377 . S
N277 C276 1.344 . S
O278 Co270 2.055 . S
O278 C282 1.253 . S
H279 C275 0.931 . S
H280 C276 0.930 . S
O281 Co270 2.039 . S
O281 C271 1.265 . S
C282 O278 1.253 . S
C282 O283 1.227 . S
O283 C282 1.227 . S
N284 Co270 2.140 . S
N284 C287 1.346 . S
N284 C288 1.345 . S
C285 C286 1.387 . S
C285 C289 1.391 . S
C286 C285 1.387 . S
C286 C287 1.369 . S
C286 H295 0.929 . S
C287 N284 1.346 . S
C287 C286 1.369 . S
C287 H290 0.928 . S
C288 N284 1.345 . S
C288 C289 1.371 . S
C288 H291 0.931 . S
C289 C285 1.391 . S
C289 C288 1.371 . S
C289 H296 0.930 . S
H290 C287 0.928 . S
H291 C288 0.931 . S
H292 C268 0.930 . S
H293 C265 0.930 . S
H294 C274 0.930 . S
H295 C286 0.929 . S
H296 C289 0.930 . S
C297 C298 1.351 . S
C297 N300 1.368 . S
C297 H302 0.931 . S
C298 C297 1.351 . S
C298 N299 1.380 . S
C298 H326 0.930 . S
N299 C298 1.380 . S
N299 C301 1.345 . S
N300 C297 1.368 . S
N300 C301 1.321 . S
N300 Co303 2.135 . S
C301 N299 1.345 . S
C301 N300 1.321 . S
C301 H325 0.930 . S
H302 C297 0.931 . S
Co303 N300 2.135 . S
Co303 N306 2.121 . S
Co303 O311 2.055 . S
Co303 O314 2.039 . S
Co303 N317 2.140 . S
C304 O305 1.227 . S
C304 O314 1.265 . S
O305 C304 1.227 . S
N306 Co303 2.121 . S
N306 C308 1.375 . S
N306 C309 1.313 . S
C307 C308 1.338 . S
C307 N310 1.377 . S
C307 H327 0.930 . S
C308 N306 1.375 . S
C308 C307 1.338 . S
C308 H312 0.931 . S
C309 N306 1.313 . S
C309 N310 1.344 . S
C309 H313 0.930 . S
N310 C307 1.377 . S
N310 C309 1.344 . S
O311 Co303 2.055 . S
O311 C315 1.253 . S
H312 C308 0.931 . S
H313 C309 0.930 . S
O314 Co303 2.039 . S
O314 C304 1.265 . S
C315 O311 1.253 . S
C315 O316 1.227 . S
O316 C315 1.227 . S
N317 Co303 2.140 . S
N317 C320 1.346 . S
N317 C321 1.345 . S
C318 C319 1.387 . S
C318 C322 1.391 . S
C319 C318 1.387 . S
C319 C320 1.369 . S
C319 H328 0.929 . S
C320 N317 1.346 . S
C320 C319 1.369 . S
C320 H323 0.928 . S
C321 N317 1.345 . S
C321 C322 1.371 . S
C321 H324 0.931 . S
C322 C318 1.391 . S
C322 C321 1.371 . S
C322 H329 0.930 . S
H323 C320 0.928 . S
H324 C321 0.931 . S
H325 C301 0.930 . S
H326 C298 0.930 . S
H327 C307 0.930 . S
H328 C319 0.929 . S
H329 C322 0.930 . S
C330 C331 1.351 . S
C330 N333 1.368 . S
C330 H335 0.931 . S
C331 C330 1.351 . S
C331 N332 1.373 . S
C331 H359 0.930 . S
N332 C331 1.373 . S
N332 C334 1.340 . S
N333 C330 1.368 . S
N333 C334 1.321 . S
N333 Co336 2.135 . S
C334 N332 1.340 . S
C334 N333 1.321 . S
C334 H358 0.930 . S
H335 C330 0.931 . S
Co336 N333 2.135 . S
Co336 N339 2.121 . S
Co336 O344 2.055 . S
Co336 O347 2.039 . S
Co336 N350 2.140 . S
C337 O338 1.227 . S
C337 O347 1.265 . S
O338 C337 1.227 . S
N339 Co336 2.121 . S
N339 C341 1.375 . S
N339 C342 1.313 . S
C340 C341 1.338 . S
C340 N343 1.377 . S
C340 H360 0.930 . S
C341 N339 1.375 . S
C341 C340 1.338 . S
C341 H345 0.931 . S
C342 N339 1.313 . S
C342 N343 1.344 . S
C342 H346 0.930 . S
N343 C340 1.377 . S
N343 C342 1.344 . S
O344 Co336 2.055 . S
O344 C348 1.253 . S
H345 C341 0.931 . S
H346 C342 0.930 . S
O347 Co336 2.039 . S
O347 C337 1.265 . S
C348 O344 1.253 . S
C348 O349 1.227 . S
O349 C348 1.227 . S
N350 Co336 2.140 . S
N350 C353 1.346 . S
N350 C354 1.345 . S
C351 C352 1.387 . S
C351 C355 1.391 . S
C352 C351 1.387 . S
C352 C353 1.369 . S
C352 H361 0.929 . S
C353 N350 1.346 . S
C353 C352 1.369 . S
C353 H356 0.928 . S
C354 N350 1.345 . S
C354 C355 1.371 . S
C354 H357 0.931 . S
C355 C351 1.391 . S
C355 C354 1.371 . S
C355 H362 0.930 . S
H356 C353 0.928 . S
H357 C354 0.931 . S
H358 C334 0.930 . S
H359 C331 0.930 . S
H360 C340 0.930 . S
H361 C352 0.929 . S
H362 C355 0.930 . S
C363 C364 1.351 . S
C363 N366 1.368 . S
C363 H368 0.931 . S
C364 C363 1.351 . S
C364 N365 1.373 . S
C364 H392 0.930 . S
N365 C364 1.373 . S
N365 C367 1.340 . S
N366 C363 1.368 . S
N366 C367 1.321 . S
N366 Co369 2.135 . S
C367 N365 1.340 . S
C367 N366 1.321 . S
C367 H391 0.930 . S
H368 C363 0.931 . S
Co369 N366 2.135 . S
Co369 N372 2.121 1_556 S
Co369 O377 2.055 . S
Co369 O380 2.039 . S
Co369 N383 2.140 . S
C370 O371 1.227 . S
C370 O380 1.265 . S
O371 C370 1.227 . S
N372 Co369 2.121 1_554 S
N372 C374 1.375 . S
N372 C375 1.313 . S
C373 C374 1.338 . S
C373 N376 1.377 . S
C373 H393 0.930 . S
C374 N372 1.375 . S
C374 C373 1.338 . S
C374 H378 0.931 . S
C375 N372 1.313 . S
C375 N376 1.344 . S
C375 H379 0.930 . S
N376 C373 1.377 . S
N376 C375 1.344 . S
O377 Co369 2.055 . S
O377 C381 1.253 . S
H378 C374 0.931 . S
H379 C375 0.930 . S
O380 Co369 2.039 . S
O380 C370 1.265 . S
C381 O377 1.253 . S
C381 O382 1.227 . S
O382 C381 1.227 . S
N383 Co369 2.140 . S
N383 C386 1.346 . S
N383 C387 1.345 . S
C384 C385 1.387 . S
C384 C388 1.391 . S
C385 C384 1.387 . S
C385 C386 1.369 . S
C385 H394 0.929 . S
C386 N383 1.346 . S
C386 C385 1.369 . S
C386 H389 0.928 . S
C387 N383 1.345 . S
C387 C388 1.371 . S
C387 H390 0.931 . S
C388 C384 1.391 . S
C388 C387 1.371 . S
C388 H395 0.930 . S
H389 C386 0.928 . S
H390 C387 0.931 . S
H391 C367 0.930 . S
H392 C364 0.930 . S
H393 C373 0.930 . S
H394 C385 0.929 . S
H395 C388 0.930 . S
C396 C397 1.351 . S
C396 N399 1.368 . S
C396 H401 0.931 . S
C397 C396 1.351 . S
C397 N398 1.373 . S
C397 H425 0.930 . S
N398 C397 1.373 . S
N398 C400 1.340 . S
N399 C396 1.368 . S
N399 C400 1.321 . S
N399 Co402 2.135 . S
C400 N398 1.340 . S
C400 N399 1.321 . S
C400 H424 0.930 . S
H401 C396 0.931 . S
Co402 N399 2.135 . S
Co402 N405 2.121 . S
Co402 O410 2.055 . S
Co402 O413 2.039 . S
Co402 N416 2.140 . S
C403 O404 1.227 . S
C403 O413 1.265 . S
O404 C403 1.227 . S
N405 Co402 2.121 . S
N405 C407 1.375 . S
N405 C408 1.313 . S
C406 C407 1.338 . S
C406 N409 1.377 . S
C406 H426 0.930 . S
C407 N405 1.375 . S
C407 C406 1.338 . S
C407 H411 0.931 . S
C408 N405 1.313 . S
C408 N409 1.344 . S
C408 H412 0.930 . S
N409 C406 1.377 . S
N409 C408 1.344 . S
O410 Co402 2.055 . S
O410 C414 1.253 . S
H411 C407 0.931 . S
H412 C408 0.930 . S
O413 Co402 2.039 . S
O413 C403 1.265 . S
C414 O410 1.253 . S
C414 O415 1.227 . S
O415 C414 1.227 . S
N416 Co402 2.140 . S
N416 C419 1.346 . S
N416 C420 1.345 . S
C417 C418 1.387 . S
C417 C421 1.391 . S
C418 C417 1.387 . S
C418 C419 1.369 . S
C418 H427 0.929 . S
C419 N416 1.346 . S
C419 C418 1.369 . S
C419 H422 0.928 . S
C420 N416 1.345 . S
C420 C421 1.371 . S
C420 H423 0.931 . S
C421 C417 1.391 . S
C421 C420 1.371 . S
C421 H428 0.930 . S
H422 C419 0.928 . S
H423 C420 0.931 . S
H424 C400 0.930 . S
H425 C397 0.930 . S
H426 C406 0.930 . S
H427 C418 0.929 . S
H428 C421 0.930 . S
C429 C430 1.351 . S
C429 N432 1.368 . S
C429 H434 0.931 . S
C430 C429 1.351 . S
C430 N431 1.373 . S
C430 H458 0.930 . S
N431 C430 1.373 . S
N431 C433 1.340 . S
N432 C429 1.368 . S
N432 C433 1.321 . S
N432 Co435 2.135 . S
C433 N431 1.340 . S
C433 N432 1.321 . S
C433 H457 0.930 . S
H434 C429 0.931 . S
Co435 N432 2.135 . S
Co435 N438 2.121 . S
Co435 O443 2.055 . S
Co435 O446 2.039 . S
Co435 N449 2.140 . S
C436 O437 1.227 . S
C436 O446 1.265 . S
O437 C436 1.227 . S
N438 Co435 2.121 . S
N438 C440 1.375 . S
N438 C441 1.313 . S
C439 C440 1.338 . S
C439 N442 1.377 . S
C439 H459 0.930 . S
C440 N438 1.375 . S
C440 C439 1.338 . S
C440 H444 0.931 . S
C441 N438 1.313 . S
C441 N442 1.344 . S
C441 H445 0.930 . S
N442 C439 1.377 . S
N442 C441 1.344 . S
O443 Co435 2.055 . S
O443 C447 1.253 . S
H444 C440 0.931 . S
H445 C441 0.930 . S
O446 Co435 2.039 . S
O446 C436 1.265 . S
C447 O443 1.253 . S
C447 O448 1.227 . S
O448 C447 1.227 . S
N449 Co435 2.140 . S
N449 C452 1.346 . S
N449 C453 1.345 . S
C450 C451 1.387 . S
C450 C454 1.391 . S
C451 C450 1.387 . S
C451 C452 1.369 . S
C451 H460 0.929 . S
C452 N449 1.346 . S
C452 C451 1.369 . S
C452 H455 0.928 . S
C453 N449 1.345 . S
C453 C454 1.371 . S
C453 H456 0.931 . S
C454 C450 1.391 . S
C454 C453 1.371 . S
C454 H461 0.930 . S
H455 C452 0.928 . S
H456 C453 0.931 . S
H457 C433 0.930 . S
H458 C430 0.930 . S
H459 C439 0.930 . S
H460 C451 0.929 . S
H461 C454 0.930 . S
C462 C463 1.351 . S
C462 N465 1.368 . S
C462 H467 0.931 . S
C463 C462 1.351 . S
C463 N464 1.373 . S
C463 H491 0.930 . S
N464 C463 1.373 . S
N464 C466 1.340 . S
N465 C462 1.368 . S
N465 C466 1.321 . S
N465 Co468 2.135 . S
C466 N464 1.340 . S
C466 N465 1.321 . S
C466 H490 0.930 . S
H467 C462 0.931 . S
Co468 N465 2.135 . S
Co468 N471 2.121 . S
Co468 O476 2.055 . S
Co468 O479 2.039 . S
Co468 N482 2.140 . S
C469 O470 1.227 . S
C469 O479 1.265 . S
O470 C469 1.227 . S
N471 Co468 2.121 . S
N471 C473 1.375 . S
N471 C474 1.313 . S
C472 C473 1.338 . S
C472 N475 1.377 . S
C472 H492 0.930 . S
C473 N471 1.375 . S
C473 C472 1.338 . S
C473 H477 0.931 . S
C474 N471 1.313 . S
C474 N475 1.344 . S
C474 H478 0.930 . S
N475 C472 1.377 . S
N475 C474 1.344 . S
O476 Co468 2.055 . S
O476 C480 1.253 . S
H477 C473 0.931 . S
H478 C474 0.930 . S
O479 Co468 2.039 . S
O479 C469 1.265 . S
C480 O476 1.253 . S
C480 O481 1.227 . S
O481 C480 1.227 . S
N482 Co468 2.140 . S
N482 C485 1.346 . S
N482 C486 1.345 . S
C483 C484 1.387 . S
C483 C487 1.391 . S
C484 C483 1.387 . S
C484 C485 1.369 . S
C484 H493 0.929 . S
C485 N482 1.346 . S
C485 C484 1.369 . S
C485 H488 0.928 . S
C486 N482 1.345 . S
C486 C487 1.371 . S
C486 H489 0.931 . S
C487 C483 1.391 . S
C487 C486 1.371 . S
C487 H494 0.930 . S
H488 C485 0.928 . S
H489 C486 0.931 . S
H490 C466 0.930 . S
H491 C463 0.930 . S
H492 C472 0.930 . S
H493 C484 0.929 . S
H494 C487 0.930 . S
C495 C496 1.351 . S
C495 N498 1.368 . S
C495 H500 0.931 . S
C496 C495 1.351 . S
C496 N497 1.380 . S
C496 H524 0.930 . S
N497 C496 1.380 . S
N497 C499 1.345 . S
N498 C495 1.368 . S
N498 C499 1.321 . S
N498 Co501 2.135 . S
C499 N497 1.345 . S
C499 N498 1.321 . S
C499 H523 0.930 . S
H500 C495 0.931 . S
Co501 N498 2.135 . S
Co501 N504 2.121 1_554 S
Co501 O509 2.055 . S
Co501 O512 2.039 . S
Co501 N515 2.140 . S
C502 O503 1.227 . S
C502 O512 1.265 . S
O503 C502 1.227 . S
N504 Co501 2.121 1_556 S
N504 C506 1.375 . S
N504 C507 1.313 . S
C505 C506 1.338 . S
C505 N508 1.377 . S
C505 H525 0.930 . S
C506 N504 1.375 . S
C506 C505 1.338 . S
C506 H510 0.931 . S
C507 N504 1.313 . S
C507 N508 1.344 . S
C507 H511 0.930 . S
N508 C505 1.377 . S
N508 C507 1.344 . S
O509 Co501 2.055 . S
O509 C513 1.253 . S
H510 C506 0.931 . S
H511 C507 0.930 . S
O512 Co501 2.039 . S
O512 C502 1.265 . S
C513 O509 1.253 . S
C513 O514 1.227 . S
O514 C513 1.227 . S
N515 Co501 2.140 . S
N515 C518 1.346 . S
N515 C519 1.345 . S
C516 C517 1.387 . S
C516 C520 1.391 . S
C517 C516 1.387 . S
C517 C518 1.369 . S
C517 H526 0.929 . S
C518 N515 1.346 . S
C518 C517 1.369 . S
C518 H521 0.928 . S
C519 N515 1.345 . S
C519 C520 1.371 . S
C519 H522 0.931 . S
C520 C516 1.391 . S
C520 C519 1.371 . S
C520 H527 0.930 . S
H521 C518 0.928 . S
H522 C519 0.931 . S
H523 C499 0.930 . S
H524 C496 0.930 . S
H525 C505 0.930 . S
H526 C517 0.929 . S
H527 C520 0.930 . S
C528 C529 1.351 . S
C528 N531 1.368 . S
C528 H533 0.931 . S
C529 C528 1.351 . S
C529 N530 1.373 . S
C529 H557 0.930 . S
N530 C529 1.373 . S
N530 C532 1.340 . S
N531 C528 1.368 . S
N531 C532 1.321 . S
N531 Co534 2.135 . S
C532 N530 1.340 . S
C532 N531 1.321 . S
C532 H556 0.930 . S
H533 C528 0.931 . S
Co534 N531 2.135 . S
Co534 N537 2.121 . S
Co534 O542 2.055 . S
Co534 O545 2.039 . S
Co534 N548 2.140 . S
C535 O536 1.227 . S
C535 O545 1.265 . S
O536 C535 1.227 . S
N537 Co534 2.121 . S
N537 C539 1.375 . S
N537 C540 1.313 . S
C538 C539 1.338 . S
C538 N541 1.377 . S
C538 H558 0.930 . S
C539 N537 1.375 . S
C539 C538 1.338 . S
C539 H543 0.931 . S
C540 N537 1.313 . S
C540 N541 1.344 . S
C540 H544 0.930 . S
N541 C538 1.377 . S
N541 C540 1.344 . S
O542 Co534 2.055 . S
O542 C546 1.253 . S
H543 C539 0.931 . S
H544 C540 0.930 . S
O545 Co534 2.039 . S
O545 C535 1.265 . S
C546 O542 1.253 . S
C546 O547 1.227 . S
O547 C546 1.227 . S
N548 Co534 2.140 . S
N548 C551 1.346 . S
N548 C552 1.345 . S
C549 C550 1.387 . S
C549 C553 1.391 . S
C550 C549 1.387 . S
C550 C551 1.369 . S
C550 H559 0.929 . S
C551 N548 1.346 . S
C551 C550 1.369 . S
C551 H554 0.928 . S
C552 N548 1.345 . S
C552 C553 1.371 . S
C552 H555 0.931 . S
C553 C549 1.391 . S
C553 C552 1.371 . S
C553 H560 0.930 . S
H554 C551 0.928 . S
H555 C552 0.931 . S
H556 C532 0.930 . S
H557 C529 0.930 . S
H558 C538 0.930 . S
H559 C550 0.929 . S
H560 C553 0.930 . S
C561 C562 1.351 . S
C561 N564 1.368 . S
C561 H566 0.931 . S
C562 C561 1.351 . S
C562 N563 1.373 . S
C562 H590 0.930 . S
N563 C562 1.373 . S
N563 C565 1.340 . S
N564 C561 1.368 . S
N564 C565 1.321 . S
N564 Co567 2.135 . S
C565 N563 1.340 . S
C565 N564 1.321 . S
C565 H589 0.930 . S
H566 C561 0.931 . S
Co567 N564 2.135 . S
Co567 N570 2.121 1_554 S
Co567 O575 2.055 . S
Co567 O578 2.039 . S
Co567 N581 2.140 . S
C568 O569 1.227 . S
C568 O578 1.265 . S
O569 C568 1.227 . S
N570 Co567 2.121 1_556 S
N570 C572 1.375 . S
N570 C573 1.313 . S
C571 C572 1.338 . S
C571 N574 1.377 . S
C571 H591 0.930 . S
C572 N570 1.375 . S
C572 C571 1.338 . S
C572 H576 0.931 . S
C573 N570 1.313 . S
C573 N574 1.344 . S
C573 H577 0.930 . S
N574 C571 1.377 . S
N574 C573 1.344 . S
O575 Co567 2.055 . S
O575 C579 1.253 . S
H576 C572 0.931 . S
H577 C573 0.930 . S
O578 Co567 2.039 . S
O578 C568 1.265 . S
C579 O575 1.253 . S
C579 O580 1.227 . S
O580 C579 1.227 . S
N581 Co567 2.140 . S
N581 C584 1.346 . S
N581 C585 1.345 . S
C582 C583 1.387 . S
C582 C586 1.391 . S
C583 C582 1.387 . S
C583 C584 1.369 . S
C583 H592 0.929 . S
C584 N581 1.346 . S
C584 C583 1.369 . S
C584 H587 0.928 . S
C585 N581 1.345 . S
C585 C586 1.371 . S
C585 H588 0.931 . S
C586 C582 1.391 . S
C586 C585 1.371 . S
C586 H593 0.930 . S
H587 C584 0.928 . S
H588 C585 0.931 . S
H589 C565 0.930 . S
H590 C562 0.930 . S
H591 C571 0.930 . S
H592 C583 0.929 . S
H593 C586 0.930 . S
C594 C595 1.351 . S
C594 N597 1.368 . S
C594 H599 0.931 . S
C595 C594 1.351 . S
C595 N596 1.373 . S
C595 H623 0.930 . S
N596 C595 1.373 . S
N596 C598 1.340 . S
N597 C594 1.368 . S
N597 C598 1.321 . S
N597 Co600 2.135 . S
C598 N596 1.340 . S
C598 N597 1.321 . S
C598 H622 0.930 . S
H599 C594 0.931 . S
Co600 N597 2.135 . S
Co600 N603 2.121 . S
Co600 O608 2.055 . S
Co600 O611 2.039 . S
Co600 N614 2.140 . S
C601 O602 1.227 . S
C601 O611 1.265 . S
O602 C601 1.227 . S
N603 Co600 2.121 . S
N603 C605 1.375 . S
N603 C606 1.313 . S
C604 C605 1.338 . S
C604 N607 1.377 . S
C604 H624 0.930 . S
C605 N603 1.375 . S
C605 C604 1.338 . S
C605 H609 0.931 . S
C606 N603 1.313 . S
C606 N607 1.344 . S
C606 H610 0.930 . S
N607 C604 1.377 . S
N607 C606 1.344 . S
O608 Co600 2.055 . S
O608 C612 1.253 . S
H609 C605 0.931 . S
H610 C606 0.930 . S
O611 Co600 2.039 . S
O611 C601 1.265 . S
C612 O608 1.253 . S
C612 O613 1.227 . S
O613 C612 1.227 . S
N614 Co600 2.140 . S
N614 C617 1.346 . S
N614 C618 1.345 . S
C615 C616 1.387 . S
C615 C619 1.391 . S
C616 C615 1.387 . S
C616 C617 1.369 . S
C616 H625 0.929 . S
C617 N614 1.346 . S
C617 C616 1.369 . S
C617 H620 0.928 . S
C618 N614 1.345 . S
C618 C619 1.371 . S
C618 H621 0.931 . S
C619 C615 1.391 . S
C619 C618 1.371 . S
C619 H626 0.930 . S
H620 C617 0.928 . S
H621 C618 0.931 . S
H622 C598 0.930 . S
H623 C595 0.930 . S
H624 C604 0.930 . S
H625 C616 0.929 . S
H626 C619 0.930 . S
C627 C628 1.351 . S
C627 N630 1.368 . S
C627 H632 0.931 . S
C628 C627 1.351 . S
C628 N629 1.380 . S
C628 H656 0.930 . S
N629 C628 1.380 . S
N629 C631 1.345 . S
N630 C627 1.368 . S
N630 C631 1.321 . S
N630 Co633 2.135 . S
C631 N629 1.345 . S
C631 N630 1.321 . S
C631 H655 0.930 . S
H632 C627 0.931 . S
Co633 N630 2.135 . S
Co633 N636 2.121 . S
Co633 O641 2.055 . S
Co633 O644 2.039 . S
Co633 N647 2.140 . S
C634 O635 1.227 . S
C634 O644 1.265 . S
O635 C634 1.227 . S
N636 Co633 2.121 . S
N636 C638 1.375 . S
N636 C639 1.313 . S
C637 C638 1.338 . S
C637 N640 1.377 . S
C637 H657 0.930 . S
C638 N636 1.375 . S
C638 C637 1.338 . S
C638 H642 0.931 . S
C639 N636 1.313 . S
C639 N640 1.344 . S
C639 H643 0.930 . S
N640 C637 1.377 . S
N640 C639 1.344 . S
O641 Co633 2.055 . S
O641 C645 1.253 . S
H642 C638 0.931 . S
H643 C639 0.930 . S
O644 Co633 2.039 . S
O644 C634 1.265 . S
C645 O641 1.253 . S
C645 O646 1.227 . S
O646 C645 1.227 . S
N647 Co633 2.140 . S
N647 C650 1.346 . S
N647 C651 1.345 . S
C648 C649 1.387 . S
C648 C652 1.391 . S
C649 C648 1.387 . S
C649 C650 1.369 . S
C649 H658 0.929 . S
C650 N647 1.346 . S
C650 C649 1.369 . S
C650 H653 0.928 . S
C651 N647 1.345 . S
C651 C652 1.371 . S
C651 H654 0.931 . S
C652 C648 1.391 . S
C652 C651 1.371 . S
C652 H659 0.930 . S
H653 C650 0.928 . S
H654 C651 0.931 . S
H655 C631 0.930 . S
H656 C628 0.930 . S
H657 C637 0.930 . S
H658 C649 0.929 . S
H659 C652 0.930 . S
C660 C661 1.351 . S
C660 N663 1.368 . S
C660 H665 0.931 . S
C661 C660 1.351 . S
C661 N662 1.373 . S
C661 H689 0.930 . S
N662 C661 1.373 . S
N662 C664 1.340 . S
N663 C660 1.368 . S
N663 C664 1.321 . S
N663 Co666 2.135 . S
C664 N662 1.340 . S
C664 N663 1.321 . S
C664 H688 0.930 . S
H665 C660 0.931 . S
Co666 N663 2.135 . S
Co666 N669 2.121 . S
Co666 O674 2.055 . S
Co666 O677 2.039 . S
Co666 N680 2.140 . S
C667 O668 1.227 . S
C667 O677 1.265 . S
O668 C667 1.227 . S
N669 Co666 2.121 . S
N669 C671 1.375 . S
N669 C672 1.313 . S
C670 C671 1.338 . S
C670 N673 1.377 . S
C670 H690 0.930 . S
C671 N669 1.375 . S
C671 C670 1.338 . S
C671 H675 0.931 . S
C672 N669 1.313 . S
C672 N673 1.344 . S
C672 H676 0.930 . S
N673 C670 1.377 . S
N673 C672 1.344 . S
O674 Co666 2.055 . S
O674 C678 1.253 . S
H675 C671 0.931 . S
H676 C672 0.930 . S
O677 Co666 2.039 . S
O677 C667 1.265 . S
C678 O674 1.253 . S
C678 O679 1.227 . S
O679 C678 1.227 . S
N680 Co666 2.140 . S
N680 C683 1.346 . S
N680 C684 1.345 . S
C681 C682 1.387 . S
C681 C685 1.391 . S
C682 C681 1.387 . S
C682 C683 1.369 . S
C682 H691 0.929 . S
C683 N680 1.346 . S
C683 C682 1.369 . S
C683 H686 0.928 . S
C684 N680 1.345 . S
C684 C685 1.371 . S
C684 H687 0.931 . S
C685 C681 1.391 . S
C685 C684 1.371 . S
C685 H692 0.930 . S
H686 C683 0.928 . S
H687 C684 0.931 . S
H688 C664 0.930 . S
H689 C661 0.930 . S
H690 C670 0.930 . S
H691 C682 0.929 . S
H692 C685 0.930 . S
C693 C694 1.351 . S
C693 N696 1.368 . S
C693 H698 0.931 . S
C694 C693 1.351 . S
C694 N695 1.380 . S
C694 H722 0.930 . S
N695 C694 1.380 . S
N695 C697 1.345 . S
N696 C693 1.368 . S
N696 C697 1.321 . S
N696 Co699 2.135 . S
C697 N695 1.345 . S
C697 N696 1.321 . S
C697 H721 0.930 . S
H698 C693 0.931 . S
Co699 N696 2.135 . S
Co699 N702 2.121 1_556 S
Co699 O707 2.055 . S
Co699 O710 2.039 . S
Co699 N713 2.140 . S
C700 O701 1.227 . S
C700 O710 1.265 . S
O701 C700 1.227 . S
N702 Co699 2.121 1_554 S
N702 C704 1.375 . S
N702 C705 1.313 . S
C703 C704 1.338 . S
C703 N706 1.377 . S
C703 H723 0.930 . S
C704 N702 1.375 . S
C704 C703 1.338 . S
C704 H708 0.931 . S
C705 N702 1.313 . S
C705 N706 1.344 . S
C705 H709 0.930 . S
N706 C703 1.377 . S
N706 C705 1.344 . S
O707 Co699 2.055 . S
O707 C711 1.253 . S
H708 C704 0.931 . S
H709 C705 0.930 . S
O710 Co699 2.039 . S
O710 C700 1.265 . S
C711 O707 1.253 . S
C711 O712 1.227 . S
O712 C711 1.227 . S
N713 Co699 2.140 . S
N713 C716 1.346 . S
N713 C717 1.345 . S
C714 C715 1.387 . S
C714 C718 1.391 . S
C715 C714 1.387 . S
C715 C716 1.369 . S
C715 H724 0.929 . S
C716 N713 1.346 . S
C716 C715 1.369 . S
C716 H719 0.928 . S
C717 N713 1.345 . S
C717 C718 1.371 . S
C717 H720 0.931 . S
C718 C714 1.391 . S
C718 C717 1.371 . S
C718 H725 0.930 . S
H719 C716 0.928 . S
H720 C717 0.931 . S
H721 C697 0.930 . S
H722 C694 0.930 . S
H723 C703 0.930 . S
H724 C715 0.929 . S
H725 C718 0.930 . S
C726 C727 1.351 . S
C726 N729 1.368 . S
C726 H731 0.931 . S
C727 C726 1.351 . S
C727 N728 1.373 . S
C727 H755 0.930 . S
N728 C727 1.373 . S
N728 C730 1.340 . S
N729 C726 1.368 . S
N729 C730 1.321 . S
N729 Co732 2.135 . S
C730 N728 1.340 . S
C730 N729 1.321 . S
C730 H754 0.930 . S
H731 C726 0.931 . S
Co732 N729 2.135 . S
Co732 N735 2.121 . S
Co732 O740 2.055 . S
Co732 O743 2.039 . S
Co732 N746 2.140 . S
C733 O734 1.227 . S
C733 O743 1.265 . S
O734 C733 1.227 . S
N735 Co732 2.121 . S
N735 C737 1.375 . S
N735 C738 1.313 . S
C736 C737 1.338 . S
C736 N739 1.377 . S
C736 H756 0.930 . S
C737 N735 1.375 . S
C737 C736 1.338 . S
C737 H741 0.931 . S
C738 N735 1.313 . S
C738 N739 1.344 . S
C738 H742 0.930 . S
N739 C736 1.377 . S
N739 C738 1.344 . S
O740 Co732 2.055 . S
O740 C744 1.253 . S
H741 C737 0.931 . S
H742 C738 0.930 . S
O743 Co732 2.039 . S
O743 C733 1.265 . S
C744 O740 1.253 . S
C744 O745 1.227 . S
O745 C744 1.227 . S
N746 Co732 2.140 . S
N746 C749 1.346 . S
N746 C750 1.345 . S
C747 C748 1.387 . S
C747 C751 1.391 . S
C748 C747 1.387 . S
C748 C749 1.369 . S
C748 H757 0.929 . S
C749 N746 1.346 . S
C749 C748 1.369 . S
C749 H752 0.928 . S
C750 N746 1.345 . S
C750 C751 1.371 . S
C750 H753 0.931 . S
C751 C747 1.391 . S
C751 C750 1.371 . S
C751 H758 0.930 . S
H752 C749 0.928 . S
H753 C750 0.931 . S
H754 C730 0.930 . S
H755 C727 0.930 . S
H756 C736 0.930 . S
H757 C748 0.929 . S
H758 C751 0.930 . S
C759 C760 1.351 . S
C759 N762 1.368 . S
C759 H764 0.931 . S
C760 C759 1.351 . S
C760 N761 1.373 . S
C760 H788 0.930 . S
N761 C760 1.373 . S
N761 C763 1.340 . S
N762 C759 1.368 . S
N762 C763 1.321 . S
N762 Co765 2.135 . S
C763 N761 1.340 . S
C763 N762 1.321 . S
C763 H787 0.930 . S
H764 C759 0.931 . S
Co765 N762 2.135 . S
Co765 N768 2.121 . S
Co765 O773 2.055 . S
Co765 O776 2.039 . S
Co765 N779 2.140 . S
C766 O767 1.227 . S
C766 O776 1.265 . S
O767 C766 1.227 . S
N768 Co765 2.121 . S
N768 C770 1.375 . S
N768 C771 1.313 . S
C769 C770 1.338 . S
C769 N772 1.377 . S
C769 H789 0.930 . S
C770 N768 1.375 . S
C770 C769 1.338 . S
C770 H774 0.931 . S
C771 N768 1.313 . S
C771 N772 1.344 . S
C771 H775 0.930 . S
N772 C769 1.377 . S
N772 C771 1.344 . S
O773 Co765 2.055 . S
O773 C777 1.253 . S
H774 C770 0.931 . S
H775 C771 0.930 . S
O776 Co765 2.039 . S
O776 C766 1.265 . S
C777 O773 1.253 . S
C777 O778 1.227 . S
O778 C777 1.227 . S
N779 Co765 2.140 . S
N779 C782 1.346 . S
N779 C783 1.345 . S
C780 C781 1.387 . S
C780 C784 1.391 . S
C781 C780 1.387 . S
C781 C782 1.369 . S
C781 H790 0.929 . S
C782 N779 1.346 . S
C782 C781 1.369 . S
C782 H785 0.928 . S
C783 N779 1.345 . S
C783 C784 1.371 . S
C783 H786 0.931 . S
C784 C780 1.391 . S
C784 C783 1.371 . S
C784 H791 0.930 . S
H785 C782 0.928 . S
H786 C783 0.931 . S
H787 C763 0.930 . S
H788 C760 0.930 . S
H789 C769 0.930 . S
H790 C781 0.929 . S
H791 C784 0.930 . S
C792 C793 1.351 . S
C792 N795 1.368 . S
C792 H797 0.931 . S
C793 C792 1.351 . S
C793 N794 1.373 . S
C793 H821 0.930 . S
N794 C793 1.373 . S
N794 C796 1.340 . S
N795 C792 1.368 . S
N795 C796 1.321 . S
N795 Co798 2.135 . S
C796 N794 1.340 . S
C796 N795 1.321 . S
C796 H820 0.930 . S
H797 C792 0.931 . S
Co798 N795 2.135 . S
Co798 N801 2.121 . S
Co798 O806 2.055 . S
Co798 O809 2.039 . S
Co798 N812 2.140 . S
C799 O800 1.227 . S
C799 O809 1.265 . S
O800 C799 1.227 . S
N801 Co798 2.121 . S
N801 C803 1.375 . S
N801 C804 1.313 . S
C802 C803 1.338 . S
C802 N805 1.377 . S
C802 H822 0.930 . S
C803 N801 1.375 . S
C803 C802 1.338 . S
C803 H807 0.931 . S
C804 N801 1.313 . S
C804 N805 1.344 . S
C804 H808 0.930 . S
N805 C802 1.377 . S
N805 C804 1.344 . S
O806 Co798 2.055 . S
O806 C810 1.253 . S
H807 C803 0.931 . S
H808 C804 0.930 . S
O809 Co798 2.039 . S
O809 C799 1.265 . S
C810 O806 1.253 . S
C810 O811 1.227 . S
O811 C810 1.227 . S
N812 Co798 2.140 . S
N812 C815 1.346 . S
N812 C816 1.345 . S
C813 C814 1.387 . S
C813 C817 1.391 . S
C814 C813 1.387 . S
C814 C815 1.369 . S
C814 H823 0.929 . S
C815 N812 1.346 . S
C815 C814 1.369 . S
C815 H818 0.928 . S
C816 N812 1.345 . S
C816 C817 1.371 . S
C816 H819 0.931 . S
C817 C813 1.391 . S
C817 C816 1.371 . S
C817 H824 0.930 . S
H818 C815 0.928 . S
H819 C816 0.931 . S
H820 C796 0.930 . S
H821 C793 0.930 . S
H822 C802 0.930 . S
H823 C814 0.929 . S
H824 C817 0.930 . S
C825 C826 1.351 . S
C825 N828 1.368 . S
C825 H830 0.931 . S
C826 C825 1.351 . S
C826 N827 1.373 . S
C826 H854 0.930 . S
N827 C826 1.373 . S
N827 C829 1.340 . S
N828 C825 1.368 . S
N828 C829 1.321 . S
N828 Co831 2.135 . S
C829 N827 1.340 . S
C829 N828 1.321 . S
C829 H853 0.930 . S
H830 C825 0.931 . S
Co831 N828 2.135 . S
Co831 N834 2.121 1_556 S
Co831 O839 2.055 . S
Co831 O842 2.039 . S
Co831 N845 2.140 . S
C832 O833 1.227 . S
C832 O842 1.265 . S
O833 C832 1.227 . S
N834 Co831 2.121 1_554 S
N834 C836 1.375 . S
N834 C837 1.313 . S
C835 C836 1.338 . S
C835 N838 1.377 . S
C835 H855 0.930 . S
C836 N834 1.375 . S
C836 C835 1.338 . S
C836 H840 0.931 . S
C837 N834 1.313 . S
C837 N838 1.344 . S
C837 H841 0.930 . S
N838 C835 1.377 . S
N838 C837 1.344 . S
O839 Co831 2.055 . S
O839 C843 1.253 . S
H840 C836 0.931 . S
H841 C837 0.930 . S
O842 Co831 2.039 . S
O842 C832 1.265 . S
C843 O839 1.253 . S
C843 O844 1.227 . S
O844 C843 1.227 . S
N845 Co831 2.140 . S
N845 C848 1.346 . S
N845 C849 1.345 . S
C846 C847 1.387 . S
C846 C850 1.391 . S
C847 C846 1.387 . S
C847 C848 1.369 . S
C847 H856 0.929 . S
C848 N845 1.346 . S
C848 C847 1.369 . S
C848 H851 0.928 . S
C849 N845 1.345 . S
C849 C850 1.371 . S
C849 H852 0.931 . S
C850 C846 1.391 . S
C850 C849 1.371 . S
C850 H857 0.930 . S
H851 C848 0.928 . S
H852 C849 0.931 . S
H853 C829 0.930 . S
H854 C826 0.930 . S
H855 C835 0.930 . S
H856 C847 0.929 . S
H857 C850 0.930 . S
C858 C859 1.351 . S
C858 N861 1.368 . S
C858 H863 0.931 . S
C859 C858 1.351 . S
C859 N860 1.373 . S
C859 H887 0.930 . S
N860 C859 1.373 . S
N860 C862 1.340 . S
N861 C858 1.368 . S
N861 C862 1.321 . S
N861 Co864 2.135 . S
C862 N860 1.340 . S
C862 N861 1.321 . S
C862 H886 0.930 . S
H863 C858 0.931 . S
Co864 N861 2.135 . S
Co864 N867 2.121 . S
Co864 O872 2.055 . S
Co864 O875 2.039 . S
Co864 N878 2.140 . S
C865 O866 1.227 . S
C865 O875 1.265 . S
O866 C865 1.227 . S
N867 Co864 2.121 . S
N867 C869 1.375 . S
N867 C870 1.313 . S
C868 C869 1.338 . S
C868 N871 1.377 . S
C868 H888 0.930 . S
C869 N867 1.375 . S
C869 C868 1.338 . S
C869 H873 0.931 . S
C870 N867 1.313 . S
C870 N871 1.344 . S
C870 H874 0.930 . S
N871 C868 1.377 . S
N871 C870 1.344 . S
O872 Co864 2.055 . S
O872 C876 1.253 . S
H873 C869 0.931 . S
H874 C870 0.930 . S
O875 Co864 2.039 . S
O875 C865 1.265 . S
C876 O872 1.253 . S
C876 O877 1.227 . S
O877 C876 1.227 . S
N878 Co864 2.140 . S
N878 C881 1.346 . S
N878 C882 1.345 . S
C879 C880 1.387 . S
C879 C883 1.391 . S
C880 C879 1.387 . S
C880 C881 1.369 . S
C880 H889 0.929 . S
C881 N878 1.346 . S
C881 C880 1.369 . S
C881 H884 0.928 . S
C882 N878 1.345 . S
C882 C883 1.371 . S
C882 H885 0.931 . S
C883 C879 1.391 . S
C883 C882 1.371 . S
C883 H890 0.930 . S
H884 C881 0.928 . S
H885 C882 0.931 . S
H886 C862 0.930 . S
H887 C859 0.930 . S
H888 C868 0.930 . S
H889 C880 0.929 . S
H890 C883 0.930 . S
C891 C892 1.351 . S
C891 N894 1.368 . S
C891 H896 0.931 . S
C892 C891 1.351 . S
C892 N893 1.380 . S
C892 H920 0.930 . S
N893 C892 1.380 . S
N893 C895 1.345 . S
N894 C891 1.368 . S
N894 C895 1.321 . S
N894 Co897 2.135 . S
C895 N893 1.345 . S
C895 N894 1.321 . S
C895 H919 0.930 . S
H896 C891 0.931 . S
Co897 N894 2.135 . S
Co897 N900 2.121 . S
Co897 O905 2.055 . S
Co897 O908 2.039 . S
Co897 N911 2.140 . S
C898 O899 1.227 . S
C898 O908 1.265 . S
O899 C898 1.227 . S
N900 Co897 2.121 . S
N900 C902 1.375 . S
N900 C903 1.313 . S
C901 C902 1.338 . S
C901 N904 1.377 . S
C901 H921 0.930 . S
C902 N900 1.375 . S
C902 C901 1.338 . S
C902 H906 0.931 . S
C903 N900 1.313 . S
C903 N904 1.344 . S
C903 H907 0.930 . S
N904 C901 1.377 . S
N904 C903 1.344 . S
O905 Co897 2.055 . S
O905 C909 1.253 . S
H906 C902 0.931 . S
H907 C903 0.930 . S
O908 Co897 2.039 . S
O908 C898 1.265 . S
C909 O905 1.253 . S
C909 O910 1.227 . S
O910 C909 1.227 . S
N911 Co897 2.140 . S
N911 C914 1.346 . S
N911 C915 1.345 . S
C912 C913 1.387 . S
C912 C916 1.391 . S
C913 C912 1.387 . S
C913 C914 1.369 . S
C913 H922 0.929 . S
C914 N911 1.346 . S
C914 C913 1.369 . S
C914 H917 0.928 . S
C915 N911 1.345 . S
C915 C916 1.371 . S
C915 H918 0.931 . S
C916 C912 1.391 . S
C916 C915 1.371 . S
C916 H923 0.930 . S
H917 C914 0.928 . S
H918 C915 0.931 . S
H919 C895 0.930 . S
H920 C892 0.930 . S
H921 C901 0.930 . S
H922 C913 0.929 . S
H923 C916 0.930 . S
C924 C925 1.351 . S
C924 N927 1.368 . S
C924 H929 0.931 . S
C925 C924 1.351 . S
C925 N926 1.373 . S
C925 H953 0.930 . S
N926 C925 1.373 . S
N926 C928 1.340 . S
N927 C924 1.368 . S
N927 C928 1.321 . S
N927 Co930 2.135 . S
C928 N926 1.340 . S
C928 N927 1.321 . S
C928 H952 0.930 . S
H929 C924 0.931 . S
Co930 N927 2.135 . S
Co930 N933 2.121 . S
Co930 O938 2.055 . S
Co930 O941 2.039 . S
Co930 N944 2.140 . S
C931 O932 1.227 . S
C931 O941 1.265 . S
O932 C931 1.227 . S
N933 Co930 2.121 . S
N933 C935 1.375 . S
N933 C936 1.313 . S
C934 C935 1.338 . S
C934 N937 1.377 . S
C934 H954 0.930 . S
C935 N933 1.375 . S
C935 C934 1.338 . S
C935 H939 0.931 . S
C936 N933 1.313 . S
C936 N937 1.344 . S
C936 H940 0.930 . S
N937 C934 1.377 . S
N937 C936 1.344 . S
O938 Co930 2.055 . S
O938 C942 1.253 . S
H939 C935 0.931 . S
H940 C936 0.930 . S
O941 Co930 2.039 . S
O941 C931 1.265 . S
C942 O938 1.253 . S
C942 O943 1.227 . S
O943 C942 1.227 . S
N944 Co930 2.140 . S
N944 C947 1.346 . S
N944 C948 1.345 . S
C945 C946 1.387 . S
C945 C949 1.391 . S
C946 C945 1.387 . S
C946 C947 1.369 . S
C946 H955 0.929 . S
C947 N944 1.346 . S
C947 C946 1.369 . S
C947 H950 0.928 . S
C948 N944 1.345 . S
C948 C949 1.371 . S
C948 H951 0.931 . S
C949 C945 1.391 . S
C949 C948 1.371 . S
C949 H956 0.930 . S
H950 C947 0.928 . S
H951 C948 0.931 . S
H952 C928 0.930 . S
H953 C925 0.930 . S
H954 C934 0.930 . S
H955 C946 0.929 . S
H956 C949 0.930 . S
C957 C958 1.351 . S
C957 N960 1.368 . S
C957 H962 0.931 . S
C958 C957 1.351 . S
C958 N959 1.380 . S
C958 H986 0.930 . S
N959 C958 1.380 . S
N959 C961 1.345 . S
N960 C957 1.368 . S
N960 C961 1.321 . S
N960 Co963 2.135 . S
C961 N959 1.345 . S
C961 N960 1.321 . S
C961 H985 0.930 . S
H962 C957 0.931 . S
Co963 N960 2.135 . S
Co963 N966 2.121 1_554 S
Co963 O971 2.055 . S
Co963 O974 2.039 . S
Co963 N977 2.140 . S
C964 O965 1.227 . S
C964 O974 1.265 . S
O965 C964 1.227 . S
N966 Co963 2.121 1_556 S
N966 C968 1.375 . S
N966 C969 1.313 . S
C967 C968 1.338 . S
C967 N970 1.377 . S
C967 H987 0.930 . S
C968 N966 1.375 . S
C968 C967 1.338 . S
C968 H972 0.931 . S
C969 N966 1.313 . S
C969 N970 1.344 . S
C969 H973 0.930 . S
N970 C967 1.377 . S
N970 C969 1.344 . S
O971 Co963 2.055 . S
O971 C975 1.253 . S
H972 C968 0.931 . S
H973 C969 0.930 . S
O974 Co963 2.039 . S
O974 C964 1.265 . S
C975 O971 1.253 . S
C975 O976 1.227 . S
O976 C975 1.227 . S
N977 Co963 2.140 . S
N977 C980 1.346 . S
N977 C981 1.345 . S
C978 C979 1.387 . S
C978 C982 1.391 . S
C979 C978 1.387 . S
C979 C980 1.369 . S
C979 H988 0.929 . S
C980 N977 1.346 . S
C980 C979 1.369 . S
C980 H983 0.928 . S
C981 N977 1.345 . S
C981 C982 1.371 . S
C981 H984 0.931 . S
C982 C978 1.391 . S
C982 C981 1.371 . S
C982 H989 0.930 . S
H983 C980 0.928 . S
H984 C981 0.931 . S
H985 C961 0.930 . S
H986 C958 0.930 . S
H987 C967 0.930 . S
H988 C979 0.929 . S
H989 C982 0.930 . S
C990 C991 1.351 . S
C990 N993 1.368 . S
C990 H995 0.931 . S
C991 C990 1.351 . S
C991 N992 1.373 . S
C991 H1019 0.930 . S
N992 C991 1.373 . S
N992 C994 1.340 . S
N993 C990 1.368 . S
N993 C994 1.321 . S
N993 Co996 2.135 . S
C994 N992 1.340 . S
C994 N993 1.321 . S
C994 H1018 0.930 . S
H995 C990 0.931 . S
Co996 N993 2.135 . S
Co996 N999 2.121 . S
Co996 O1004 2.055 . S
Co996 O1007 2.039 . S
Co996 N1010 2.140 . S
C997 O998 1.227 . S
C997 O1007 1.265 . S
O998 C997 1.227 . S
N999 Co996 2.121 . S
N999 C1001 1.375 . S
N999 C1002 1.313 . S
C1000 C1001 1.338 . S
C1000 N1003 1.377 . S
C1000 H1020 0.930 . S
C1001 N999 1.375 . S
C1001 C1000 1.338 . S
C1001 H1005 0.931 . S
C1002 N999 1.313 . S
C1002 N1003 1.344 . S
C1002 H1006 0.930 . S
N1003 C1000 1.377 . S
N1003 C1002 1.344 . S
O1004 Co996 2.055 . S
O1004 C1008 1.253 . S
H1005 C1001 0.931 . S
H1006 C1002 0.930 . S
O1007 Co996 2.039 . S
O1007 C997 1.265 . S
C1008 O1004 1.253 . S
C1008 O1009 1.227 . S
O1009 C1008 1.227 . S
N1010 Co996 2.140 . S
N1010 C1013 1.346 . S
N1010 C1014 1.345 . S
C1011 C1012 1.387 . S
C1011 C1015 1.391 . S
C1012 C1011 1.387 . S
C1012 C1013 1.369 . S
C1012 H1021 0.929 . S
C1013 N1010 1.346 . S
C1013 C1012 1.369 . S
C1013 H1016 0.928 . S
C1014 N1010 1.345 . S
C1014 C1015 1.371 . S
C1014 H1017 0.931 . S
C1015 C1011 1.391 . S
C1015 C1014 1.371 . S
C1015 H1022 0.930 . S
H1016 C1013 0.928 . S
H1017 C1014 0.931 . S
H1018 C994 0.930 . S
H1019 C991 0.930 . S
H1020 C1000 0.930 . S
H1021 C1012 0.929 . S
H1022 C1015 0.930 . S
C1023 C1024 1.351 . S
C1023 N1026 1.368 . S
C1023 H1028 0.931 . S
C1024 C1023 1.351 . S
C1024 N1025 1.373 . S
C1024 H1052 0.930 . S
N1025 C1024 1.373 . S
N1025 C1027 1.340 . S
N1026 C1023 1.368 . S
N1026 C1027 1.321 . S
N1026 Co1029 2.135 . S
C1027 N1025 1.340 . S
C1027 N1026 1.321 . S
C1027 H1051 0.930 . S
H1028 C1023 0.931 . S
Co1029 N1026 2.135 . S
Co1029 N1032 2.121 . S
Co1029 O1037 2.055 . S
Co1029 O1040 2.039 . S
Co1029 N1043 2.140 . S
C1030 O1031 1.227 . S
C1030 O1040 1.265 . S
O1031 C1030 1.227 . S
N1032 Co1029 2.121 . S
N1032 C1034 1.375 . S
N1032 C1035 1.313 . S
C1033 C1034 1.338 . S
C1033 N1036 1.377 . S
C1033 H1053 0.930 . S
C1034 N1032 1.375 . S
C1034 C1033 1.338 . S
C1034 H1038 0.931 . S
C1035 N1032 1.313 . S
C1035 N1036 1.344 . S
C1035 H1039 0.930 . S
N1036 C1033 1.377 . S
N1036 C1035 1.344 . S
O1037 Co1029 2.055 . S
O1037 C1041 1.253 . S
H1038 C1034 0.931 . S
H1039 C1035 0.930 . S
O1040 Co1029 2.039 . S
O1040 C1030 1.265 . S
C1041 O1037 1.253 . S
C1041 O1042 1.227 . S
O1042 C1041 1.227 . S
N1043 Co1029 2.140 . S
N1043 C1046 1.346 . S
N1043 C1047 1.345 . S
C1044 C1045 1.387 . S
C1044 C1048 1.391 . S
C1045 C1044 1.387 . S
C1045 C1046 1.369 . S
C1045 H1054 0.929 . S
C1046 N1043 1.346 . S
C1046 C1045 1.369 . S
C1046 H1049 0.928 . S
C1047 N1043 1.345 . S
C1047 C1048 1.371 . S
C1047 H1050 0.931 . S
C1048 C1044 1.391 . S
C1048 C1047 1.371 . S
C1048 H1055 0.930 . S
H1049 C1046 0.928 . S
H1050 C1047 0.931 . S
H1051 C1027 0.930 . S
H1052 C1024 0.930 . S
H1053 C1033 0.930 . S
H1054 C1045 0.929 . S
H1055 C1048 0.930 . S
H1056 C1062 0.930 . S
H1057 C1065 0.930 . S
H1058 C1066 0.930 . S
H1059 C1067 0.930 . S
H1060 C1070 0.930 . S
H1061 C1071 0.930 . S
C1062 H1056 0.930 . S
C1062 C1063 1.355 . S
C1062 C1064 1.415 . S
C1063 C1062 1.355 . S
C1063 C1065 1.419 . S
C1064 C1062 1.415 . S
C1064 C1069 1.425 . S
C1064 C1071 1.409 . S
C1065 H1057 0.930 . S
C1065 C1063 1.419 . S
C1065 C1066 1.362 . S
C1066 H1058 0.930 . S
C1066 C1065 1.362 . S
C1066 C1069 1.409 . S
C1067 H1059 0.930 . S
C1067 C1068 1.355 . S
C1067 C1069 1.415 . S
C1068 C1067 1.355 . S
C1068 C1070 1.419 . S
C1069 C1064 1.425 . S
C1069 C1066 1.409 . S
C1069 C1067 1.415 . S
C1070 H1060 0.930 . S
C1070 C1068 1.419 . S
C1070 C1071 1.362 . S
C1071 H1061 0.930 . S
C1071 C1064 1.409 . S
C1071 C1070 1.362 . S
H1072 C1078 0.930 . S
H1073 C1081 0.930 . S
H1074 C1082 0.930 . S
H1075 C1083 0.930 . S
H1076 C1086 0.930 . S
H1077 C1087 0.930 . S
C1078 H1072 0.930 . S
C1078 C1079 1.355 . S
C1078 C1080 1.415 . S
C1079 C1078 1.355 . S
C1079 C1081 1.419 . S
C1080 C1078 1.415 . S
C1080 C1085 1.425 . S
C1080 C1087 1.409 . S
C1081 H1073 0.930 . S
C1081 C1079 1.419 . S
C1081 C1082 1.362 . S
C1082 H1074 0.930 . S
C1082 C1081 1.362 . S
C1082 C1085 1.409 . S
C1083 H1075 0.930 . S
C1083 C1084 1.355 . S
C1083 C1085 1.415 . S
C1084 C1083 1.355 . S
C1084 C1086 1.419 . S
C1085 C1080 1.425 . S
C1085 C1082 1.409 . S
C1085 C1083 1.415 . S
C1086 H1076 0.930 . S
C1086 C1084 1.419 . S
C1086 C1087 1.362 . S
C1087 H1077 0.930 . S
C1087 C1080 1.409 . S
C1087 C1086 1.362 . S
H1088 C1094 0.930 . S
H1089 C1097 0.930 . S
H1090 C1098 0.930 . S
H1091 C1099 0.930 . S
H1092 C1102 0.930 . S
H1093 C1103 0.930 . S
C1094 H1088 0.930 . S
C1094 C1095 1.355 . S
C1094 C1096 1.415 . S
C1095 C1094 1.355 . S
C1095 C1097 1.419 . S
C1096 C1094 1.415 . S
C1096 C1101 1.425 . S
C1096 C1103 1.409 . S
C1097 H1089 0.930 . S
C1097 C1095 1.419 . S
C1097 C1098 1.362 . S
C1098 H1090 0.930 . S
C1098 C1097 1.362 . S
C1098 C1101 1.409 . S
C1099 H1091 0.930 . S
C1099 C1100 1.355 . S
C1099 C1101 1.415 . S
C1100 C1099 1.355 . S
C1100 C1102 1.419 . S
C1101 C1096 1.425 . S
C1101 C1098 1.409 . S
C1101 C1099 1.415 . S
C1102 H1092 0.930 . S
C1102 C1100 1.419 . S
C1102 C1103 1.362 . S
C1103 H1093 0.930 . S
C1103 C1096 1.409 . S
C1103 C1102 1.362 . S
H1104 C1110 0.930 . S
H1105 C1113 0.930 . S
H1106 C1114 0.930 . S
H1107 C1115 0.930 . S
H1108 C1118 0.930 . S
H1109 C1119 0.930 . S
C1110 H1104 0.930 . S
C1110 C1111 1.355 . S
C1110 C1112 1.415 . S
C1111 C1110 1.355 . S
C1111 C1113 1.419 . S
C1112 C1110 1.415 . S
C1112 C1117 1.425 . S
C1112 C1119 1.409 . S
C1113 H1105 0.930 . S
C1113 C1111 1.419 . S
C1113 C1114 1.362 . S
C1114 H1106 0.930 . S
C1114 C1113 1.362 . S
C1114 C1117 1.409 . S
C1115 H1107 0.930 . S
C1115 C1116 1.355 . S
C1115 C1117 1.415 . S
C1116 C1115 1.355 . S
C1116 C1118 1.419 . S
C1117 C1112 1.425 . S
C1117 C1114 1.409 . S
C1117 C1115 1.415 . S
C1118 H1108 0.930 . S
C1118 C1116 1.419 . S
C1118 C1119 1.362 . S
C1119 H1109 0.930 . S
C1119 C1112 1.409 . S
C1119 C1118 1.362 . S
H1120 C1126 0.930 . S
H1121 C1129 0.930 . S
H1122 C1130 0.930 . S
H1123 C1131 0.930 . S
H1124 C1134 0.930 . S
H1125 C1135 0.930 . S
C1126 H1120 0.930 . S
C1126 C1127 1.355 . S
C1126 C1128 1.415 . S
C1127 C1126 1.355 . S
C1127 C1129 1.419 . S
C1128 C1126 1.415 . S
C1128 C1133 1.425 . S
C1128 C1135 1.409 . S
C1129 H1121 0.930 . S
C1129 C1127 1.419 . S
C1129 C1130 1.362 . S
C1130 H1122 0.930 . S
C1130 C1129 1.362 . S
C1130 C1133 1.409 . S
C1131 H1123 0.930 . S
C1131 C1132 1.355 . S
C1131 C1133 1.415 . S
C1132 C1131 1.355 . S
C1132 C1134 1.419 . S
C1133 C1128 1.425 . S
C1133 C1130 1.409 . S
C1133 C1131 1.415 . S
C1134 H1124 0.930 . S
C1134 C1132 1.419 . S
C1134 C1135 1.362 . S
C1135 H1125 0.930 . S
C1135 C1128 1.409 . S
C1135 C1134 1.362 . S
H1136 C1142 0.930 . S
H1137 C1145 0.930 . S
H1138 C1146 0.930 . S
H1139 C1147 0.930 . S
H1140 C1150 0.930 . S
H1141 C1151 0.930 . S
C1142 H1136 0.930 . S
C1142 C1143 1.355 . S
C1142 C1144 1.415 . S
C1143 C1142 1.355 . S
C1143 C1145 1.419 . S
C1144 C1142 1.415 . S
C1144 C1149 1.425 . S
C1144 C1151 1.409 . S
C1145 H1137 0.930 . S
C1145 C1143 1.419 . S
C1145 C1146 1.362 . S
C1146 H1138 0.930 . S
C1146 C1145 1.362 . S
C1146 C1149 1.409 . S
C1147 H1139 0.930 . S
C1147 C1148 1.355 . S
C1147 C1149 1.415 . S
C1148 C1147 1.355 . S
C1148 C1150 1.419 . S
C1149 C1144 1.425 . S
C1149 C1146 1.409 . S
C1149 C1147 1.415 . S
C1150 H1140 0.930 . S
C1150 C1148 1.419 . S
C1150 C1151 1.362 . S
C1151 H1141 0.930 . S
C1151 C1144 1.409 . S
C1151 C1150 1.362 . S
H1152 C1158 0.930 . S
H1153 C1161 0.930 . S
H1154 C1162 0.930 . S
H1155 C1163 0.930 . S
H1156 C1166 0.930 . S
H1157 C1167 0.930 . S
C1158 H1152 0.930 . S
C1158 C1159 1.355 . S
C1158 C1160 1.415 . S
C1159 C1158 1.355 . S
C1159 C1161 1.419 . S
C1160 C1158 1.415 . S
C1160 C1165 1.425 . S
C1160 C1167 1.409 . S
C1161 H1153 0.930 . S
C1161 C1159 1.419 . S
C1161 C1162 1.362 . S
C1162 H1154 0.930 . S
C1162 C1161 1.362 . S
C1162 C1165 1.409 . S
C1163 H1155 0.930 . S
C1163 C1164 1.355 . S
C1163 C1165 1.415 . S
C1164 C1163 1.355 . S
C1164 C1166 1.419 . S
C1165 C1160 1.425 . S
C1165 C1162 1.409 . S
C1165 C1163 1.415 . S
C1166 H1156 0.930 . S
C1166 C1164 1.419 . S
C1166 C1167 1.362 . S
C1167 H1157 0.930 . S
C1167 C1160 1.409 . S
C1167 C1166 1.362 . S
H1168 C1174 0.930 . S
H1169 C1177 0.930 . S
H1170 C1178 0.930 . S
H1171 C1179 0.930 . S
H1172 C1182 0.930 . S
H1173 C1183 0.930 . S
C1174 H1168 0.930 . S
C1174 C1175 1.355 . S
C1174 C1176 1.415 . S
C1175 C1174 1.355 . S
C1175 C1177 1.419 . S
C1176 C1174 1.415 . S
C1176 C1181 1.425 . S
C1176 C1183 1.409 . S
C1177 H1169 0.930 . S
C1177 C1175 1.419 . S
C1177 C1178 1.362 . S
C1178 H1170 0.930 . S
C1178 C1177 1.362 . S
C1178 C1181 1.409 . S
C1179 H1171 0.930 . S
C1179 C1180 1.355 . S
C1179 C1181 1.415 . S
C1180 C1179 1.355 . S
C1180 C1182 1.419 . S
C1181 C1176 1.425 . S
C1181 C1178 1.409 . S
C1181 C1179 1.415 . S
C1182 H1172 0.930 . S
C1182 C1180 1.419 . S
C1182 C1183 1.362 . S
C1183 H1173 0.930 . S
C1183 C1176 1.409 . S
C1183 C1182 1.362 . S
H1184 C1190 0.930 . S
H1185 C1193 0.930 . S
H1186 C1194 0.930 . S
H1187 C1195 0.930 . S
H1188 C1198 0.930 . S
H1189 C1199 0.930 . S
C1190 H1184 0.930 . S
C1190 C1191 1.355 . S
C1190 C1192 1.415 . S
C1191 C1190 1.355 . S
C1191 C1193 1.419 . S
C1192 C1190 1.415 . S
C1192 C1197 1.425 . S
C1192 C1199 1.409 . S
C1193 H1185 0.930 . S
C1193 C1191 1.419 . S
C1193 C1194 1.362 . S
C1194 H1186 0.930 . S
C1194 C1193 1.362 . S
C1194 C1197 1.409 . S
C1195 H1187 0.930 . S
C1195 C1196 1.355 . S
C1195 C1197 1.415 . S
C1196 C1195 1.355 . S
C1196 C1198 1.419 . S
C1197 C1192 1.425 . S
C1197 C1194 1.409 . S
C1197 C1195 1.415 . S
C1198 H1188 0.930 . S
C1198 C1196 1.419 . S
C1198 C1199 1.362 . S
C1199 H1189 0.930 . S
C1199 C1192 1.409 . S
C1199 C1198 1.362 . S
H1200 C1206 0.930 . S
H1201 C1209 0.930 . S
H1202 C1210 0.930 . S
H1203 C1211 0.930 . S
H1204 C1214 0.930 . S
H1205 C1215 0.930 . S
C1206 H1200 0.930 . S
C1206 C1207 1.355 . S
C1206 C1208 1.415 . S
C1207 C1206 1.355 . S
C1207 C1209 1.419 . S
C1208 C1206 1.415 . S
C1208 C1213 1.425 . S
C1208 C1215 1.409 . S
C1209 H1201 0.930 . S
C1209 C1207 1.419 . S
C1209 C1210 1.362 . S
C1210 H1202 0.930 . S
C1210 C1209 1.362 . S
C1210 C1213 1.409 . S
C1211 H1203 0.930 . S
C1211 C1212 1.355 . S
C1211 C1213 1.415 . S
C1212 C1211 1.355 . S
C1212 C1214 1.419 . S
C1213 C1208 1.425 . S
C1213 C1210 1.409 . S
C1213 C1211 1.415 . S
C1214 H1204 0.930 . S
C1214 C1212 1.419 . S
C1214 C1215 1.362 . S
C1215 H1205 0.930 . S
C1215 C1208 1.409 . S
C1215 C1214 1.362 . S
H1216 C1222 0.930 . S
H1217 C1225 0.930 . S
H1218 C1226 0.930 . S
H1219 C1227 0.930 . S
H1220 C1230 0.930 . S
H1221 C1231 0.930 . S
C1222 H1216 0.930 . S
C1222 C1223 1.355 . S
C1222 C1224 1.415 . S
C1223 C1222 1.355 . S
C1223 C1225 1.419 . S
C1224 C1222 1.415 . S
C1224 C1229 1.425 . S
C1224 C1231 1.409 . S
C1225 H1217 0.930 . S
C1225 C1223 1.419 . S
C1225 C1226 1.362 . S
C1226 H1218 0.930 . S
C1226 C1225 1.362 . S
C1226 C1229 1.409 . S
C1227 H1219 0.930 . S
C1227 C1228 1.355 . S
C1227 C1229 1.415 . S
C1228 C1227 1.355 . S
C1228 C1230 1.419 . S
C1229 C1224 1.425 . S
C1229 C1226 1.409 . S
C1229 C1227 1.415 . S
C1230 H1220 0.930 . S
C1230 C1228 1.419 . S
C1230 C1231 1.362 . S
C1231 H1221 0.930 . S
C1231 C1224 1.409 . S
C1231 C1230 1.362 . S
H1232 C1238 0.930 . S
H1233 C1241 0.930 . S
H1234 C1242 0.930 . S
H1235 C1243 0.930 . S
H1236 C1246 0.930 . S
H1237 C1247 0.930 . S
C1238 H1232 0.930 . S
C1238 C1239 1.355 . S
C1238 C1240 1.415 . S
C1239 C1238 1.355 . S
C1239 C1241 1.419 . S
C1240 C1238 1.415 . S
C1240 C1245 1.425 . S
C1240 C1247 1.409 . S
C1241 H1233 0.930 . S
C1241 C1239 1.419 . S
C1241 C1242 1.362 . S
C1242 H1234 0.930 . S
C1242 C1241 1.362 . S
C1242 C1245 1.409 . S
C1243 H1235 0.930 . S
C1243 C1244 1.355 . S
C1243 C1245 1.415 . S
C1244 C1243 1.355 . S
C1244 C1246 1.419 . S
C1245 C1240 1.425 . S
C1245 C1242 1.409 . S
C1245 C1243 1.415 . S
C1246 H1236 0.930 . S
C1246 C1244 1.419 . S
C1246 C1247 1.362 . S
C1247 H1237 0.930 . S
C1247 C1240 1.409 . S
C1247 C1246 1.362 . S
H1248 C1254 0.930 . S
H1249 C1257 0.930 . S
H1250 C1258 0.930 . S
H1251 C1259 0.930 . S
H1252 C1262 0.930 . S
H1253 C1263 0.930 . S
C1254 H1248 0.930 . S
C1254 C1255 1.355 . S
C1254 C1256 1.415 . S
C1255 C1254 1.355 . S
C1255 C1257 1.419 . S
C1256 C1254 1.415 . S
C1256 C1261 1.425 . S
C1256 C1263 1.409 . S
C1257 H1249 0.930 . S
C1257 C1255 1.419 . S
C1257 C1258 1.362 . S
C1258 H1250 0.930 . S
C1258 C1257 1.362 . S
C1258 C1261 1.409 . S
C1259 H1251 0.930 . S
C1259 C1260 1.355 . S
C1259 C1261 1.415 . S
C1260 C1259 1.355 . S
C1260 C1262 1.419 . S
C1261 C1256 1.425 . S
C1261 C1258 1.409 . S
C1261 C1259 1.415 . S
C1262 H1252 0.930 . S
C1262 C1260 1.419 . S
C1262 C1263 1.362 . S
C1263 H1253 0.930 . S
C1263 C1256 1.409 . S
C1263 C1262 1.362 . S
H1264 C1270 0.930 . S
H1265 C1273 0.930 . S
H1266 C1274 0.930 . S
H1267 C1275 0.930 . S
H1268 C1278 0.930 . S
H1269 C1279 0.930 . S
C1270 H1264 0.930 . S
C1270 C1271 1.355 . S
C1270 C1272 1.415 . S
C1271 C1270 1.355 . S
C1271 C1273 1.419 . S
C1272 C1270 1.415 . S
C1272 C1277 1.425 . S
C1272 C1279 1.409 . S
C1273 H1265 0.930 . S
C1273 C1271 1.419 . S
C1273 C1274 1.362 . S
C1274 H1266 0.930 . S
C1274 C1273 1.362 . S
C1274 C1277 1.409 . S
C1275 H1267 0.930 . S
C1275 C1276 1.355 . S
C1275 C1277 1.415 . S
C1276 C1275 1.355 . S
C1276 C1278 1.419 . S
C1277 C1272 1.425 . S
C1277 C1274 1.409 . S
C1277 C1275 1.415 . S
C1278 H1268 0.930 . S
C1278 C1276 1.419 . S
C1278 C1279 1.362 . S
C1279 H1269 0.930 . S
C1279 C1272 1.409 . S
C1279 C1278 1.362 . S
H1280 C1286 0.930 . S
H1281 C1289 0.930 . S
H1282 C1290 0.930 . S
H1283 C1291 0.930 . S
H1284 C1294 0.930 . S
H1285 C1295 0.930 . S
C1286 H1280 0.930 . S
C1286 C1287 1.355 . S
C1286 C1288 1.415 . S
C1287 C1286 1.355 . S
C1287 C1289 1.419 . S
C1288 C1286 1.415 . S
C1288 C1293 1.425 . S
C1288 C1295 1.409 . S
C1289 H1281 0.930 . S
C1289 C1287 1.419 . S
C1289 C1290 1.362 . S
C1290 H1282 0.930 . S
C1290 C1289 1.362 . S
C1290 C1293 1.409 . S
C1291 H1283 0.930 . S
C1291 C1292 1.355 . S
C1291 C1293 1.415 . S
C1292 C1291 1.355 . S
C1292 C1294 1.419 . S
C1293 C1288 1.425 . S
C1293 C1290 1.409 . S
C1293 C1291 1.415 . S
C1294 H1284 0.930 . S
C1294 C1292 1.419 . S
C1294 C1295 1.362 . S
C1295 H1285 0.930 . S
C1295 C1288 1.409 . S
C1295 C1294 1.362 . S
H1296 C1302 0.930 . S
H1297 C1305 0.930 . S
H1298 C1306 0.930 . S
H1299 C1307 0.930 . S
H1300 C1310 0.930 . S
H1301 C1311 0.930 . S
C1302 H1296 0.930 . S
C1302 C1303 1.355 . S
C1302 C1304 1.415 . S
C1303 C1302 1.355 . S
C1303 C1305 1.419 . S
C1304 C1302 1.415 . S
C1304 C1309 1.425 . S
C1304 C1311 1.409 . S
C1305 H1297 0.930 . S
C1305 C1303 1.419 . S
C1305 C1306 1.362 . S
C1306 H1298 0.930 . S
C1306 C1305 1.362 . S
C1306 C1309 1.409 . S
C1307 H1299 0.930 . S
C1307 C1308 1.355 . S
C1307 C1309 1.415 . S
C1308 C1307 1.355 . S
C1308 C1310 1.419 . S
C1309 C1304 1.425 . S
C1309 C1306 1.409 . S
C1309 C1307 1.415 . S
C1310 H1300 0.930 . S
C1310 C1308 1.419 . S
C1310 C1311 1.362 . S
C1311 H1301 0.930 . S
C1311 C1304 1.409 . S
C1311 C1310 1.362 . S
H1312 C1318 0.930 . S
H1313 C1321 0.930 . S
H1314 C1322 0.930 1_455 S
H1315 C1323 0.930 . S
H1316 C1326 0.930 . S
H1317 C1327 0.930 1_655 S
C1318 H1312 0.930 . S
C1318 C1319 1.355 . S
C1318 C1320 1.415 . S
C1319 C1318 1.355 . S
C1319 C1321 1.419 . S
C1320 C1318 1.415 . S
C1320 C1325 1.425 1_655 S
C1320 C1327 1.409 1_655 S
C1321 H1313 0.930 . S
C1321 C1319 1.419 . S
C1321 C1322 1.362 . S
C1322 H1314 0.930 1_655 S
C1322 C1321 1.362 . S
C1322 C1325 1.409 1_655 S
C1323 H1315 0.930 . S
C1323 C1324 1.355 . S
C1323 C1325 1.415 . S
C1324 C1323 1.355 . S
C1324 C1326 1.419 . S
C1325 C1320 1.425 1_455 S
C1325 C1322 1.409 1_455 S
C1325 C1323 1.415 . S
C1326 H1316 0.930 . S
C1326 C1324 1.419 . S
C1326 C1327 1.362 . S
C1327 H1317 0.930 1_455 S
C1327 C1320 1.409 1_455 S
C1327 C1326 1.362 . S
H1328 C1334 0.930 . S
H1329 C1337 0.930 . S
H1330 C1338 0.930 . S
H1331 C1339 0.930 . S
H1332 C1342 0.930 . S
H1333 C1343 0.930 . S
C1334 H1328 0.930 . S
C1334 C1335 1.355 1_455 S
C1334 C1336 1.415 . S
C1335 C1334 1.355 1_655 S
C1335 C1337 1.419 . S
C1336 C1334 1.415 . S
C1336 C1341 1.425 1_455 S
C1336 C1343 1.409 . S
C1337 H1329 0.930 . S
C1337 C1335 1.419 . S
C1337 C1338 1.362 . S
C1338 H1330 0.930 . S
C1338 C1337 1.362 . S
C1338 C1341 1.409 . S
C1339 H1331 0.930 . S
C1339 C1340 1.355 1_655 S
C1339 C1341 1.415 . S
C1340 C1339 1.355 1_455 S
C1340 C1342 1.419 . S
C1341 C1336 1.425 1_655 S
C1341 C1338 1.409 . S
C1341 C1339 1.415 . S
C1342 H1332 0.930 . S
C1342 C1340 1.419 . S
C1342 C1343 1.362 . S
C1343 H1333 0.930 . S
C1343 C1336 1.409 . S
C1343 C1342 1.362 . S
H1344 C1350 0.930 . S
H1345 C1353 0.930 . S
H1346 C1354 0.930 . S
H1347 C1355 0.930 . S
H1348 C1358 0.930 . S
H1349 C1359 0.930 . S
C1350 H1344 0.930 . S
C1350 C1351 1.355 . S
C1350 C1352 1.415 . S
C1351 C1350 1.355 . S
C1351 C1353 1.419 . S
C1352 C1350 1.415 . S
C1352 C1357 1.425 . S
C1352 C1359 1.409 . S
C1353 H1345 0.930 . S
C1353 C1351 1.419 . S
C1353 C1354 1.362 . S
C1354 H1346 0.930 . S
C1354 C1353 1.362 . S
C1354 C1357 1.409 . S
C1355 H1347 0.930 . S
C1355 C1356 1.355 . S
C1355 C1357 1.415 . S
C1356 C1355 1.355 . S
C1356 C1358 1.419 . S
C1357 C1352 1.425 . S
C1357 C1354 1.409 . S
C1357 C1355 1.415 . S
C1358 H1348 0.930 . S
C1358 C1356 1.419 . S
C1358 C1359 1.362 . S
C1359 H1349 0.930 . S
C1359 C1352 1.409 . S
C1359 C1358 1.362 . S
H1360 C1366 0.930 . S
H1361 C1369 0.930 . S
H1362 C1370 0.930 . S
H1363 C1371 0.930 1_556 S
H1364 C1374 0.930 . S
H1365 C1375 0.930 . S
C1366 H1360 0.930 . S
C1366 C1367 1.355 . S
C1366 C1368 1.415 . S
C1367 C1366 1.355 . S
C1367 C1369 1.419 1_554 S
C1368 C1366 1.415 . S
C1368 C1373 1.425 . S
C1368 C1375 1.409 . S
C1369 H1361 0.930 . S
C1369 C1367 1.419 1_556 S
C1369 C1370 1.362 . S
C1370 H1362 0.930 . S
C1370 C1369 1.362 . S
C1370 C1373 1.409 1_556 S
C1371 H1363 0.930 1_554 S
C1371 C1372 1.355 . S
C1371 C1373 1.415 . S
C1372 C1371 1.355 . S
C1372 C1374 1.419 . S
C1373 C1368 1.425 . S
C1373 C1370 1.409 1_554 S
C1373 C1371 1.415 . S
C1374 H1364 0.930 . S
C1374 C1372 1.419 . S
C1374 C1375 1.362 . S
C1375 H1365 0.930 . S
C1375 C1368 1.409 . S
C1375 C1374 1.362 . S
H1376 C1382 0.930 . S
H1377 C1385 0.930 . S
H1378 C1386 0.930 . S
H1379 C1387 0.930 . S
H1380 C1390 0.930 . S
H1381 C1391 0.930 . S
C1382 H1376 0.930 . S
C1382 C1383 1.355 . S
C1382 C1384 1.415 . S
C1383 C1382 1.355 . S
C1383 C1385 1.419 . S
C1384 C1382 1.415 . S
C1384 C1389 1.425 1_655 S
C1384 C1391 1.409 1_655 S
C1385 H1377 0.930 . S
C1385 C1383 1.419 . S
C1385 C1386 1.362 . S
C1386 H1378 0.930 . S
C1386 C1385 1.362 . S
C1386 C1389 1.409 1_655 S
C1387 H1379 0.930 . S
C1387 C1388 1.355 . S
C1387 C1389 1.415 . S
C1388 C1387 1.355 . S
C1388 C1390 1.419 . S
C1389 C1384 1.425 1_455 S
C1389 C1386 1.409 1_455 S
C1389 C1387 1.415 . S
C1390 H1380 0.930 . S
C1390 C1388 1.419 . S
C1390 C1391 1.362 . S
C1391 H1381 0.930 . S
C1391 C1384 1.409 1_455 S
C1391 C1390 1.362 . S
H1392 C1398 0.930 . S
H1393 C1401 0.930 . S
H1394 C1402 0.930 . S
H1395 C1403 0.930 . S
H1396 C1406 0.930 . S
H1397 C1407 0.930 . S
C1398 H1392 0.930 . S
C1398 C1399 1.355 . S
C1398 C1400 1.415 . S
C1399 C1398 1.355 . S
C1399 C1401 1.419 . S
C1400 C1398 1.415 . S
C1400 C1405 1.425 . S
C1400 C1407 1.409 . S
C1401 H1393 0.930 . S
C1401 C1399 1.419 . S
C1401 C1402 1.362 . S
C1402 H1394 0.930 . S
C1402 C1401 1.362 . S
C1402 C1405 1.409 . S
C1403 H1395 0.930 . S
C1403 C1404 1.355 . S
C1403 C1405 1.415 . S
C1404 C1403 1.355 . S
C1404 C1406 1.419 . S
C1405 C1400 1.425 . S
C1405 C1402 1.409 . S
C1405 C1403 1.415 . S
C1406 H1396 0.930 . S
C1406 C1404 1.419 . S
C1406 C1407 1.362 . S
C1407 H1397 0.930 . S
C1407 C1400 1.409 . S
C1407 C1406 1.362 . S
H1408 C1414 0.930 . S
H1409 C1417 0.930 . S
H1410 C1418 0.930 . S
H1411 C1419 0.930 . S
H1412 C1422 0.930 . S
H1413 C1423 0.930 . S
C1414 H1408 0.930 . S
C1414 C1415 1.355 . S
C1414 C1416 1.415 . S
C1415 C1414 1.355 . S
C1415 C1417 1.419 . S
C1416 C1414 1.415 . S
C1416 C1421 1.425 . S
C1416 C1423 1.409 . S
C1417 H1409 0.930 . S
C1417 C1415 1.419 . S
C1417 C1418 1.362 . S
C1418 H1410 0.930 . S
C1418 C1417 1.362 . S
C1418 C1421 1.409 . S
C1419 H1411 0.930 . S
C1419 C1420 1.355 . S
C1419 C1421 1.415 . S
C1420 C1419 1.355 . S
C1420 C1422 1.419 . S
C1421 C1416 1.425 . S
C1421 C1418 1.409 . S
C1421 C1419 1.415 . S
C1422 H1412 0.930 . S
C1422 C1420 1.419 . S
C1422 C1423 1.362 . S
C1423 H1413 0.930 . S
C1423 C1416 1.409 . S
C1423 C1422 1.362 . S
H1424 C1430 0.930 . S
H1425 C1433 0.930 . S
H1426 C1434 0.930 . S
H1427 C1435 0.930 . S
H1428 C1438 0.930 . S
H1429 C1439 0.930 . S
C1430 H1424 0.930 . S
C1430 C1431 1.355 1_655 S
C1430 C1432 1.415 . S
C1431 C1430 1.355 1_455 S
C1431 C1433 1.419 . S
C1432 C1430 1.415 . S
C1432 C1437 1.425 1_655 S
C1432 C1439 1.409 . S
C1433 H1425 0.930 . S
C1433 C1431 1.419 . S
C1433 C1434 1.362 . S
C1434 H1426 0.930 . S
C1434 C1433 1.362 . S
C1434 C1437 1.409 . S
C1435 H1427 0.930 . S
C1435 C1436 1.355 1_455 S
C1435 C1437 1.415 . S
C1436 C1435 1.355 1_655 S
C1436 C1438 1.419 . S
C1437 C1432 1.425 1_455 S
C1437 C1434 1.409 . S
C1437 C1435 1.415 . S
C1438 H1428 0.930 . S
C1438 C1436 1.419 . S
C1438 C1439 1.362 . S
C1439 H1429 0.930 . S
C1439 C1432 1.409 . S
C1439 C1438 1.362 . S
H1440 C1446 0.930 . S
H1441 C1449 0.930 . S
H1442 C1450 0.930 1_455 S
H1443 C1451 0.930 . S
H1444 C1454 0.930 . S
H1445 C1455 0.930 1_655 S
C1446 H1440 0.930 . S
C1446 C1447 1.355 . S
C1446 C1448 1.415 . S
C1447 C1446 1.355 . S
C1447 C1449 1.419 . S
C1448 C1446 1.415 . S
C1448 C1453 1.425 1_655 S
C1448 C1455 1.409 1_655 S
C1449 H1441 0.930 . S
C1449 C1447 1.419 . S
C1449 C1450 1.362 . S
C1450 H1442 0.930 1_655 S
C1450 C1449 1.362 . S
C1450 C1453 1.409 1_655 S
C1451 H1443 0.930 . S
C1451 C1452 1.355 . S
C1451 C1453 1.415 . S
C1452 C1451 1.355 . S
C1452 C1454 1.419 . S
C1453 C1448 1.425 1_455 S
C1453 C1450 1.409 1_455 S
C1453 C1451 1.415 . S
C1454 H1444 0.930 . S
C1454 C1452 1.419 . S
C1454 C1455 1.362 . S
C1455 H1445 0.930 1_455 S
C1455 C1448 1.409 1_455 S
C1455 C1454 1.362 . S
H1456 C1462 0.930 . S
H1457 C1465 0.930 . S
H1458 C1466 0.930 . S
H1459 C1467 0.930 . S
H1460 C1470 0.930 . S
H1461 C1471 0.930 . S
C1462 H1456 0.930 . S
C1462 C1463 1.355 1_655 S
C1462 C1464 1.415 . S
C1463 C1462 1.355 1_455 S
C1463 C1465 1.419 . S
C1464 C1462 1.415 . S
C1464 C1469 1.425 1_655 S
C1464 C1471 1.409 . S
C1465 H1457 0.930 . S
C1465 C1463 1.419 . S
C1465 C1466 1.362 . S
C1466 H1458 0.930 . S
C1466 C1465 1.362 . S
C1466 C1469 1.409 . S
C1467 H1459 0.930 . S
C1467 C1468 1.355 1_455 S
C1467 C1469 1.415 . S
C1468 C1467 1.355 1_655 S
C1468 C1470 1.419 . S
C1469 C1464 1.425 1_455 S
C1469 C1466 1.409 . S
C1469 C1467 1.415 . S
C1470 H1460 0.930 . S
C1470 C1468 1.419 . S
C1470 C1471 1.362 . S
C1471 H1461 0.930 . S
C1471 C1464 1.409 . S
C1471 C1470 1.362 . S
H1472 C1478 0.930 . S
H1473 C1481 0.930 . S
H1474 C1482 0.930 . S
H1475 C1483 0.930 . S
H1476 C1486 0.930 . S
H1477 C1487 0.930 . S
C1478 H1472 0.930 . S
C1478 C1479 1.355 . S
C1478 C1480 1.415 . S
C1479 C1478 1.355 . S
C1479 C1481 1.419 . S
C1480 C1478 1.415 . S
C1480 C1485 1.425 . S
C1480 C1487 1.409 . S
C1481 H1473 0.930 . S
C1481 C1479 1.419 . S
C1481 C1482 1.362 . S
C1482 H1474 0.930 . S
C1482 C1481 1.362 . S
C1482 C1485 1.409 . S
C1483 H1475 0.930 . S
C1483 C1484 1.355 . S
C1483 C1485 1.415 . S
C1484 C1483 1.355 . S
C1484 C1486 1.419 . S
C1485 C1480 1.425 . S
C1485 C1482 1.409 . S
C1485 C1483 1.415 . S
C1486 H1476 0.930 . S
C1486 C1484 1.419 . S
C1486 C1487 1.362 . S
C1487 H1477 0.930 . S
C1487 C1480 1.409 . S
C1487 C1486 1.362 . S
H1488 C1494 0.930 . S
H1489 C1497 0.930 . S
H1490 C1498 0.930 . S
H1491 C1499 0.930 . S
H1492 C1502 0.930 . S
H1493 C1503 0.930 . S
C1494 H1488 0.930 . S
C1494 C1495 1.355 . S
C1494 C1496 1.415 . S
C1495 C1494 1.355 . S
C1495 C1497 1.419 . S
C1496 C1494 1.415 . S
C1496 C1501 1.425 . S
C1496 C1503 1.409 . S
C1497 H1489 0.930 . S
C1497 C1495 1.419 . S
C1497 C1498 1.362 . S
C1498 H1490 0.930 . S
C1498 C1497 1.362 . S
C1498 C1501 1.409 . S
C1499 H1491 0.930 . S
C1499 C1500 1.355 . S
C1499 C1501 1.415 . S
C1500 C1499 1.355 . S
C1500 C1502 1.419 . S
C1501 C1496 1.425 . S
C1501 C1498 1.409 . S
C1501 C1499 1.415 . S
C1502 H1492 0.930 . S
C1502 C1500 1.419 . S
C1502 C1503 1.362 . S
C1503 H1493 0.930 . S
C1503 C1496 1.409 . S
C1503 C1502 1.362 . S
H1504 C1510 0.930 . S
H1505 C1513 0.930 . S
H1506 C1514 0.930 1_455 S
H1507 C1515 0.930 . S
H1508 C1518 0.930 . S
H1509 C1519 0.930 1_655 S
C1510 H1504 0.930 . S
C1510 C1511 1.355 . S
C1510 C1512 1.415 . S
C1511 C1510 1.355 . S
C1511 C1513 1.419 . S
C1512 C1510 1.415 . S
C1512 C1517 1.425 1_655 S
C1512 C1519 1.409 1_655 S
C1513 H1505 0.930 . S
C1513 C1511 1.419 . S
C1513 C1514 1.362 . S
C1514 H1506 0.930 1_655 S
C1514 C1513 1.362 . S
C1514 C1517 1.409 1_655 S
C1515 H1507 0.930 . S
C1515 C1516 1.355 . S
C1515 C1517 1.415 . S
C1516 C1515 1.355 . S
C1516 C1518 1.419 . S
C1517 C1512 1.425 1_455 S
C1517 C1514 1.409 1_455 S
C1517 C1515 1.415 . S
C1518 H1508 0.930 . S
C1518 C1516 1.419 . S
C1518 C1519 1.362 . S
C1519 H1509 0.930 1_455 S
C1519 C1512 1.409 1_455 S
C1519 C1518 1.362 . S
H1520 C1526 0.930 . S
H1521 C1529 0.930 . S
H1522 C1530 0.930 . S
H1523 C1531 0.930 . S
H1524 C1534 0.930 . S
H1525 C1535 0.930 . S
C1526 H1520 0.930 . S
C1526 C1527 1.355 . S
C1526 C1528 1.415 . S
C1527 C1526 1.355 . S
C1527 C1529 1.419 . S
C1528 C1526 1.415 . S
C1528 C1533 1.425 . S
C1528 C1535 1.409 . S
C1529 H1521 0.930 . S
C1529 C1527 1.419 . S
C1529 C1530 1.362 . S
C1530 H1522 0.930 . S
C1530 C1529 1.362 . S
C1530 C1533 1.409 . S
C1531 H1523 0.930 . S
C1531 C1532 1.355 . S
C1531 C1533 1.415 . S
C1532 C1531 1.355 . S
C1532 C1534 1.419 . S
C1533 C1528 1.425 . S
C1533 C1530 1.409 . S
C1533 C1531 1.415 . S
C1534 H1524 0.930 . S
C1534 C1532 1.419 . S
C1534 C1535 1.362 . S
C1535 H1525 0.930 . S
C1535 C1528 1.409 . S
C1535 C1534 1.362 . S
H1536 C1542 0.930 . S
H1537 C1545 0.930 . S
H1538 C1546 0.930 . S
H1539 C1547 0.930 . S
H1540 C1550 0.930 . S
H1541 C1551 0.930 . S
C1542 H1536 0.930 . S
C1542 C1543 1.355 . S
C1542 C1544 1.415 . S
C1543 C1542 1.355 . S
C1543 C1545 1.419 . S
C1544 C1542 1.415 . S
C1544 C1549 1.425 . S
C1544 C1551 1.409 . S
C1545 H1537 0.930 . S
C1545 C1543 1.419 . S
C1545 C1546 1.362 . S
C1546 H1538 0.930 . S
C1546 C1545 1.362 . S
C1546 C1549 1.409 . S
C1547 H1539 0.930 . S
C1547 C1548 1.355 . S
C1547 C1549 1.415 . S
C1548 C1547 1.355 . S
C1548 C1550 1.419 . S
C1549 C1544 1.425 . S
C1549 C1546 1.409 . S
C1549 C1547 1.415 . S
C1550 H1540 0.930 . S
C1550 C1548 1.419 . S
C1550 C1551 1.362 . S
C1551 H1541 0.930 . S
C1551 C1544 1.409 . S
C1551 C1550 1.362 . S
H1552 C1558 0.930 . S
H1553 C1561 0.936 . S
H1554 C1562 0.930 . S
H1555 C1563 0.930 1_556 S
H1556 C1566 0.930 . S
H1557 C1567 0.930 . S
C1558 H1552 0.930 . S
C1558 C1559 1.355 1_655 S
C1558 C1560 1.415 . S
C1559 C1558 1.355 1_455 S
C1559 C1561 1.412 1_554 S
C1560 C1558 1.415 . S
C1560 C1565 1.425 1_655 S
C1560 C1567 1.409 . S
C1561 H1553 0.936 . S
C1561 C1559 1.412 1_556 S
C1561 C1562 1.364 . S
C1562 H1554 0.930 . S
C1562 C1561 1.364 . S
C1562 C1565 1.409 1_556 S
C1563 H1555 0.930 1_554 S
C1563 C1564 1.355 1_455 S
C1563 C1565 1.415 . S
C1564 C1563 1.355 1_655 S
C1564 C1566 1.419 . S
C1565 C1560 1.425 1_455 S
C1565 C1562 1.409 1_554 S
C1565 C1563 1.415 . S
C1566 H1556 0.930 . S
C1566 C1564 1.419 . S
C1566 C1567 1.362 . S
C1567 H1557 0.930 . S
C1567 C1560 1.409 . S
C1567 C1566 1.362 . S
H1568 C1574 0.930 . S
H1569 C1577 0.930 . S
H1570 C1578 0.930 . S
H1571 C1579 0.930 . S
H1572 C1582 0.930 . S
H1573 C1583 0.930 . S
C1574 H1568 0.930 . S
C1574 C1575 1.355 . S
C1574 C1576 1.415 . S
C1575 C1574 1.355 . S
C1575 C1577 1.419 . S
C1576 C1574 1.415 . S
C1576 C1581 1.425 . S
C1576 C1583 1.409 . S
C1577 H1569 0.930 . S
C1577 C1575 1.419 . S
C1577 C1578 1.362 . S
C1578 H1570 0.930 . S
C1578 C1577 1.362 . S
C1578 C1581 1.409 . S
C1579 H1571 0.930 . S
C1579 C1580 1.355 . S
C1579 C1581 1.415 . S
C1580 C1579 1.355 . S
C1580 C1582 1.419 . S
C1581 C1576 1.425 . S
C1581 C1578 1.409 . S
C1581 C1579 1.415 . S
C1582 H1572 0.930 . S
C1582 C1580 1.419 . S
C1582 C1583 1.362 . S
C1583 H1573 0.930 . S
C1583 C1576 1.409 . S
C1583 C1582 1.362 . S
H1584 C1590 0.930 . S
H1585 C1593 0.930 . S
H1586 C1594 0.930 . S
H1587 C1595 0.930 . S
H1588 C1598 0.930 1_455 S
H1589 C1599 0.930 . S
C1590 H1584 0.930 . S
C1590 C1591 1.355 . S
C1590 C1592 1.415 . S
C1591 C1590 1.355 . S
C1591 C1593 1.419 . S
C1592 C1590 1.415 . S
C1592 C1597 1.425 . S
C1592 C1599 1.409 . S
C1593 H1585 0.930 . S
C1593 C1591 1.419 . S
C1593 C1594 1.362 . S
C1594 H1586 0.930 . S
C1594 C1593 1.362 . S
C1594 C1597 1.409 . S
C1595 H1587 0.930 . S
C1595 C1596 1.355 . S
C1595 C1597 1.415 . S
C1596 C1595 1.355 . S
C1596 C1598 1.419 . S
C1597 C1592 1.425 . S
C1597 C1594 1.409 . S
C1597 C1595 1.415 . S
C1598 H1588 0.930 1_655 S
C1598 C1596 1.419 . S
C1598 C1599 1.362 . S
C1599 H1589 0.930 . S
C1599 C1592 1.409 . S
C1599 C1598 1.362 . S
H1600 C1606 0.930 . S
H1601 C1609 0.930 . S
H1602 C1610 0.930 . S
H1603 C1611 0.930 . S
H1604 C1614 0.930 . S
H1605 C1615 0.930 . S
C1606 H1600 0.930 . S
C1606 C1607 1.355 . S
C1606 C1608 1.415 . S
C1607 C1606 1.355 . S
C1607 C1609 1.419 . S
C1608 C1606 1.415 . S
C1608 C1613 1.425 . S
C1608 C1615 1.409 . S
C1609 H1601 0.930 . S
C1609 C1607 1.419 . S
C1609 C1610 1.362 . S
C1610 H1602 0.930 . S
C1610 C1609 1.362 . S
C1610 C1613 1.409 . S
C1611 H1603 0.930 . S
C1611 C1612 1.355 . S
C1611 C1613 1.415 . S
C1612 C1611 1.355 . S
C1612 C1614 1.419 . S
C1613 C1608 1.425 . S
C1613 C1610 1.409 . S
C1613 C1611 1.415 . S
C1614 H1604 0.930 . S
C1614 C1612 1.419 . S
C1614 C1615 1.362 . S
C1615 H1605 0.930 . S
C1615 C1608 1.409 . S
C1615 C1614 1.362 . S
H1616 C1622 0.930 . S
H1617 C1625 0.930 . S
H1618 C1626 0.930 . S
H1619 C1627 0.930 . S
H1620 C1630 0.930 . S
H1621 C1631 0.930 . S
C1622 H1616 0.930 . S
C1622 C1623 1.355 . S
C1622 C1624 1.415 . S
C1623 C1622 1.355 . S
C1623 C1625 1.419 . S
C1624 C1622 1.415 . S
C1624 C1629 1.425 . S
C1624 C1631 1.409 . S
C1625 H1617 0.930 . S
C1625 C1623 1.419 . S
C1625 C1626 1.362 . S
C1626 H1618 0.930 . S
C1626 C1625 1.362 . S
C1626 C1629 1.409 . S
C1627 H1619 0.930 . S
C1627 C1628 1.355 . S
C1627 C1629 1.415 . S
C1628 C1627 1.355 . S
C1628 C1630 1.419 . S
C1629 C1624 1.425 . S
C1629 C1626 1.409 . S
C1629 C1627 1.415 . S
C1630 H1620 0.930 . S
C1630 C1628 1.419 . S
C1630 C1631 1.362 . S
C1631 H1621 0.930 . S
C1631 C1624 1.409 . S
C1631 C1630 1.362 . S
H1632 C1638 0.930 . S
H1633 C1641 0.930 . S
H1634 C1642 0.930 . S
H1635 C1643 0.930 . S
H1636 C1646 0.930 . S
H1637 C1647 0.930 . S
C1638 H1632 0.930 . S
C1638 C1639 1.355 . S
C1638 C1640 1.415 . S
C1639 C1638 1.355 . S
C1639 C1641 1.419 . S
C1640 C1638 1.415 . S
C1640 C1645 1.425 . S
C1640 C1647 1.409 . S
C1641 H1633 0.930 . S
C1641 C1639 1.419 . S
C1641 C1642 1.362 . S
C1642 H1634 0.930 . S
C1642 C1641 1.362 . S
C1642 C1645 1.409 . S
C1643 H1635 0.930 . S
C1643 C1644 1.355 . S
C1643 C1645 1.415 . S
C1644 C1643 1.355 . S
C1644 C1646 1.419 . S
C1645 C1640 1.425 . S
C1645 C1642 1.409 . S
C1645 C1643 1.415 . S
C1646 H1636 0.930 . S
C1646 C1644 1.419 . S
C1646 C1647 1.362 . S
C1647 H1637 0.930 . S
C1647 C1640 1.409 . S
C1647 C1646 1.362 . S
H1648 C1654 0.930 . S
H1649 C1657 0.930 . S
H1650 C1658 0.930 . S
H1651 C1659 0.930 . S
H1652 C1662 0.930 . S
H1653 C1663 0.930 . S
C1654 H1648 0.930 . S
C1654 C1655 1.355 . S
C1654 C1656 1.415 . S
C1655 C1654 1.355 . S
C1655 C1657 1.419 . S
C1656 C1654 1.415 . S
C1656 C1661 1.425 . S
C1656 C1663 1.409 . S
C1657 H1649 0.930 . S
C1657 C1655 1.419 . S
C1657 C1658 1.362 . S
C1658 H1650 0.930 . S
C1658 C1657 1.362 . S
C1658 C1661 1.409 . S
C1659 H1651 0.930 . S
C1659 C1660 1.355 . S
C1659 C1661 1.415 . S
C1660 C1659 1.355 . S
C1660 C1662 1.419 . S
C1661 C1656 1.425 . S
C1661 C1658 1.409 . S
C1661 C1659 1.415 . S
C1662 H1652 0.930 . S
C1662 C1660 1.419 . S
C1662 C1663 1.362 . S
C1663 H1653 0.930 . S
C1663 C1656 1.409 . S
C1663 C1662 1.362 . S
H1664 C1670 0.930 . S
H1665 C1673 0.930 . S
H1666 C1674 0.930 . S
H1667 C1675 0.930 . S
H1668 C1678 0.930 . S
H1669 C1679 0.930 . S
C1670 H1664 0.930 . S
C1670 C1671 1.355 . S
C1670 C1672 1.415 . S
C1671 C1670 1.355 . S
C1671 C1673 1.419 . S
C1672 C1670 1.415 . S
C1672 C1677 1.425 . S
C1672 C1679 1.409 . S
C1673 H1665 0.930 . S
C1673 C1671 1.419 . S
C1673 C1674 1.362 . S
C1674 H1666 0.930 . S
C1674 C1673 1.362 . S
C1674 C1677 1.409 . S
C1675 H1667 0.930 . S
C1675 C1676 1.355 . S
C1675 C1677 1.415 . S
C1676 C1675 1.355 . S
C1676 C1678 1.419 . S
C1677 C1672 1.425 . S
C1677 C1674 1.409 . S
C1677 C1675 1.415 . S
C1678 H1668 0.930 . S
C1678 C1676 1.419 . S
C1678 C1679 1.362 . S
C1679 H1669 0.930 . S
C1679 C1672 1.409 . S
C1679 C1678 1.362 . S
H1680 C1686 0.930 . S
H1681 C1689 0.930 1_455 S
H1682 C1690 0.930 . S
H1683 C1691 0.930 . S
H1684 C1694 0.930 . S
H1685 C1695 0.930 . S
C1686 H1680 0.930 . S
C1686 C1687 1.355 . S
C1686 C1688 1.415 . S
C1687 C1686 1.355 . S
C1687 C1689 1.419 . S
C1688 C1686 1.415 . S
C1688 C1693 1.425 . S
C1688 C1695 1.409 . S
C1689 H1681 0.930 1_655 S
C1689 C1687 1.419 . S
C1689 C1690 1.362 . S
C1690 H1682 0.930 . S
C1690 C1689 1.362 . S
C1690 C1693 1.409 . S
C1691 H1683 0.930 . S
C1691 C1692 1.355 . S
C1691 C1693 1.415 . S
C1692 C1691 1.355 . S
C1692 C1694 1.419 . S
C1693 C1688 1.425 . S
C1693 C1690 1.409 . S
C1693 C1691 1.415 . S
C1694 H1684 0.930 . S
C1694 C1692 1.419 . S
C1694 C1695 1.362 . S
C1695 H1685 0.930 . S
C1695 C1688 1.409 . S
C1695 C1694 1.362 . S
H1696 C1702 0.930 . S
H1697 C1705 0.930 . S
H1698 C1706 0.930 . S
H1699 C1707 0.930 . S
H1700 C1710 0.930 . S
H1701 C1711 0.930 . S
C1702 H1696 0.930 . S
C1702 C1703 1.355 . S
C1702 C1704 1.415 . S
C1703 C1702 1.355 . S
C1703 C1705 1.419 . S
C1704 C1702 1.415 . S
C1704 C1709 1.425 . S
C1704 C1711 1.409 . S
C1705 H1697 0.930 . S
C1705 C1703 1.419 . S
C1705 C1706 1.362 . S
C1706 H1698 0.930 . S
C1706 C1705 1.362 . S
C1706 C1709 1.409 . S
C1707 H1699 0.930 . S
C1707 C1708 1.355 . S
C1707 C1709 1.415 . S
C1708 C1707 1.355 . S
C1708 C1710 1.419 . S
C1709 C1704 1.425 . S
C1709 C1706 1.409 . S
C1709 C1707 1.415 . S
C1710 H1700 0.930 . S
C1710 C1708 1.419 . S
C1710 C1711 1.362 . S
C1711 H1701 0.930 . S
C1711 C1704 1.409 . S
C1711 C1710 1.362 . S
H1712 C1718 0.930 . S
H1713 C1721 0.930 . S
H1714 C1722 0.930 . S
H1715 C1723 0.930 . S
H1716 C1726 0.930 . S
H1717 C1727 0.930 . S
C1718 H1712 0.930 . S
C1718 C1719 1.355 . S
C1718 C1720 1.415 . S
C1719 C1718 1.355 . S
C1719 C1721 1.419 . S
C1720 C1718 1.415 . S
C1720 C1725 1.425 . S
C1720 C1727 1.409 . S
C1721 H1713 0.930 . S
C1721 C1719 1.419 . S
C1721 C1722 1.362 . S
C1722 H1714 0.930 . S
C1722 C1721 1.362 . S
C1722 C1725 1.409 . S
C1723 H1715 0.930 . S
C1723 C1724 1.355 . S
C1723 C1725 1.415 . S
C1724 C1723 1.355 . S
C1724 C1726 1.419 . S
C1725 C1720 1.425 . S
C1725 C1722 1.409 . S
C1725 C1723 1.415 . S
C1726 H1716 0.930 . S
C1726 C1724 1.419 . S
C1726 C1727 1.362 . S
C1727 H1717 0.930 . S
C1727 C1720 1.409 . S
C1727 C1726 1.362 . S
H1728 C1734 0.930 . S
H1729 C1737 0.930 . S
H1730 C1738 0.930 . S
H1731 C1739 0.930 . S
H1732 C1742 0.930 . S
H1733 C1743 0.930 . S
C1734 H1728 0.930 . S
C1734 C1735 1.355 . S
C1734 C1736 1.415 . S
C1735 C1734 1.355 . S
C1735 C1737 1.419 . S
C1736 C1734 1.415 . S
C1736 C1741 1.425 . S
C1736 C1743 1.409 . S
C1737 H1729 0.930 . S
C1737 C1735 1.419 . S
C1737 C1738 1.362 . S
C1738 H1730 0.930 . S
C1738 C1737 1.362 . S
C1738 C1741 1.409 . S
C1739 H1731 0.930 . S
C1739 C1740 1.355 . S
C1739 C1741 1.415 . S
C1740 C1739 1.355 . S
C1740 C1742 1.419 . S
C1741 C1736 1.425 . S
C1741 C1738 1.409 . S
C1741 C1739 1.415 . S
C1742 H1732 0.930 . S
C1742 C1740 1.419 . S
C1742 C1743 1.362 . S
C1743 H1733 0.930 . S
C1743 C1736 1.409 . S
C1743 C1742 1.362 . S
H1744 C1750 0.930 . S
H1745 C1753 0.930 . S
H1746 C1754 0.930 . S
H1747 C1755 0.930 . S
H1748 C1758 0.930 . S
H1749 C1759 0.930 . S
C1750 H1744 0.930 . S
C1750 C1751 1.355 . S
C1750 C1752 1.415 . S
C1751 C1750 1.355 . S
C1751 C1753 1.419 . S
C1752 C1750 1.415 . S
C1752 C1757 1.425 . S
C1752 C1759 1.409 . S
C1753 H1745 0.930 . S
C1753 C1751 1.419 . S
C1753 C1754 1.362 . S
C1754 H1746 0.930 . S
C1754 C1753 1.362 . S
C1754 C1757 1.409 . S
C1755 H1747 0.930 . S
C1755 C1756 1.355 . S
C1755 C1757 1.415 . S
C1756 C1755 1.355 . S
C1756 C1758 1.419 . S
C1757 C1752 1.425 . S
C1757 C1754 1.409 . S
C1757 C1755 1.415 . S
C1758 H1748 0.930 . S
C1758 C1756 1.419 . S
C1758 C1759 1.362 . S
C1759 H1749 0.930 . S
C1759 C1752 1.409 . S
C1759 C1758 1.362 . S
H1760 C1766 0.930 . S
H1761 C1769 0.930 . S
H1762 C1770 0.930 . S
H1763 C1771 0.930 . S
H1764 C1774 0.930 . S
H1765 C1775 0.930 . S
C1766 H1760 0.930 . S
C1766 C1767 1.355 . S
C1766 C1768 1.415 . S
C1767 C1766 1.355 . S
C1767 C1769 1.419 . S
C1768 C1766 1.415 . S
C1768 C1773 1.425 . S
C1768 C1775 1.409 . S
C1769 H1761 0.930 . S
C1769 C1767 1.419 . S
C1769 C1770 1.362 . S
C1770 H1762 0.930 . S
C1770 C1769 1.362 . S
C1770 C1773 1.409 . S
C1771 H1763 0.930 . S
C1771 C1772 1.355 . S
C1771 C1773 1.415 . S
C1772 C1771 1.355 . S
C1772 C1774 1.419 . S
C1773 C1768 1.425 . S
C1773 C1770 1.409 . S
C1773 C1771 1.415 . S
C1774 H1764 0.930 . S
C1774 C1772 1.419 . S
C1774 C1775 1.362 . S
C1775 H1765 0.930 . S
C1775 C1768 1.409 . S
C1775 C1774 1.362 . S
H1776 C1782 0.930 . S
H1777 C1785 0.930 . S
H1778 C1786 0.930 . S
H1779 C1787 0.930 . S
H1780 C1790 0.930 . S
H1781 C1791 0.930 . S
C1782 H1776 0.930 . S
C1782 C1783 1.355 . S
C1782 C1784 1.415 . S
C1783 C1782 1.355 . S
C1783 C1785 1.419 . S
C1784 C1782 1.415 . S
C1784 C1789 1.425 . S
C1784 C1791 1.409 . S
C1785 H1777 0.930 . S
C1785 C1783 1.419 . S
C1785 C1786 1.362 . S
C1786 H1778 0.930 . S
C1786 C1785 1.362 . S
C1786 C1789 1.409 . S
C1787 H1779 0.930 . S
C1787 C1788 1.355 . S
C1787 C1789 1.415 . S
C1788 C1787 1.355 . S
C1788 C1790 1.419 . S
C1789 C1784 1.425 . S
C1789 C1786 1.409 . S
C1789 C1787 1.415 . S
C1790 H1780 0.930 . S
C1790 C1788 1.419 . S
C1790 C1791 1.362 . S
C1791 H1781 0.930 . S
C1791 C1784 1.409 . S
C1791 C1790 1.362 . S
H1792 C1798 0.930 . S
H1793 C1801 0.930 . S
H1794 C1802 0.930 . S
H1795 C1803 0.930 . S
H1796 C1806 0.930 . S
H1797 C1807 0.930 . S
C1798 H1792 0.930 . S
C1798 C1799 1.355 . S
C1798 C1800 1.415 . S
C1799 C1798 1.355 . S
C1799 C1801 1.419 . S
C1800 C1798 1.415 . S
C1800 C1805 1.425 . S
C1800 C1807 1.409 . S
C1801 H1793 0.930 . S
C1801 C1799 1.419 . S
C1801 C1802 1.362 . S
C1802 H1794 0.930 . S
C1802 C1801 1.362 . S
C1802 C1805 1.409 . S
C1803 H1795 0.930 . S
C1803 C1804 1.355 . S
C1803 C1805 1.415 . S
C1804 C1803 1.355 . S
C1804 C1806 1.419 . S
C1805 C1800 1.425 . S
C1805 C1802 1.409 . S
C1805 C1803 1.415 . S
C1806 H1796 0.930 . S
C1806 C1804 1.419 . S
C1806 C1807 1.362 . S
C1807 H1797 0.930 . S
C1807 C1800 1.409 . S
C1807 C1806 1.362 . S
H1808 C1814 0.930 . S
H1809 C1817 0.930 . S
H1810 C1818 0.930 . S
H1811 C1819 0.930 1_655 S
H1812 C1822 0.930 . S
H1813 C1823 0.930 . S
C1814 H1808 0.930 . S
C1814 C1815 1.355 . S
C1814 C1816 1.415 . S
C1815 C1814 1.355 . S
C1815 C1817 1.419 . S
C1816 C1814 1.415 . S
C1816 C1821 1.425 . S
C1816 C1823 1.409 . S
C1817 H1809 0.930 . S
C1817 C1815 1.419 . S
C1817 C1818 1.362 . S
C1818 H1810 0.930 . S
C1818 C1817 1.362 . S
C1818 C1821 1.409 . S
C1819 H1811 0.930 1_455 S
C1819 C1820 1.355 . S
C1819 C1821 1.415 . S
C1820 C1819 1.355 . S
C1820 C1822 1.419 . S
C1821 C1816 1.425 . S
C1821 C1818 1.409 . S
C1821 C1819 1.415 . S
C1822 H1812 0.930 . S
C1822 C1820 1.419 . S
C1822 C1823 1.362 . S
C1823 H1813 0.930 . S
C1823 C1816 1.409 . S
C1823 C1822 1.362 . S
H1824 C1830 0.930 . S
H1825 C1833 0.930 . S
H1826 C1834 0.930 . S
H1827 C1835 0.930 . S
H1828 C1838 0.930 . S
H1829 C1839 0.930 . S
C1830 H1824 0.930 . S
C1830 C1831 1.355 . S
C1830 C1832 1.415 . S
C1831 C1830 1.355 . S
C1831 C1833 1.419 . S
C1832 C1830 1.415 . S
C1832 C1837 1.425 . S
C1832 C1839 1.409 . S
C1833 H1825 0.930 . S
C1833 C1831 1.419 . S
C1833 C1834 1.362 . S
C1834 H1826 0.930 . S
C1834 C1833 1.362 . S
C1834 C1837 1.409 . S
C1835 H1827 0.930 . S
C1835 C1836 1.355 . S
C1835 C1837 1.415 . S
C1836 C1835 1.355 . S
C1836 C1838 1.419 . S
C1837 C1832 1.425 . S
C1837 C1834 1.409 . S
C1837 C1835 1.415 . S
C1838 H1828 0.930 . S
C1838 C1836 1.419 . S
C1838 C1839 1.362 . S
C1839 H1829 0.930 . S
C1839 C1832 1.409 . S
C1839 C1838 1.362 . S
H1840 C1846 0.930 . S
H1841 C1849 0.930 . S
H1842 C1850 0.930 . S
H1843 C1851 0.930 . S
H1844 C1854 0.930 . S
H1845 C1855 0.930 . S
C1846 H1840 0.930 . S
C1846 C1847 1.355 . S
C1846 C1848 1.415 . S
C1847 C1846 1.355 . S
C1847 C1849 1.419 . S
C1848 C1846 1.415 . S
C1848 C1853 1.425 . S
C1848 C1855 1.409 . S
C1849 H1841 0.930 . S
C1849 C1847 1.419 . S
C1849 C1850 1.362 . S
C1850 H1842 0.930 . S
C1850 C1849 1.362 . S
C1850 C1853 1.409 . S
C1851 H1843 0.930 . S
C1851 C1852 1.355 . S
C1851 C1853 1.415 . S
C1852 C1851 1.355 . S
C1852 C1854 1.419 . S
C1853 C1848 1.425 . S
C1853 C1850 1.409 . S
C1853 C1851 1.415 . S
C1854 H1844 0.930 . S
C1854 C1852 1.419 . S
C1854 C1855 1.362 . S
C1855 H1845 0.930 . S
C1855 C1848 1.409 . S
C1855 C1854 1.362 . S
H1856 C1862 0.930 . S
H1857 C1865 0.930 . S
H1858 C1866 0.930 . S
H1859 C1867 0.930 . S
H1860 C1870 0.930 . S
H1861 C1871 0.930 . S
C1862 H1856 0.930 . S
C1862 C1863 1.355 . S
C1862 C1864 1.415 . S
C1863 C1862 1.355 . S
C1863 C1865 1.419 . S
C1864 C1862 1.415 . S
C1864 C1869 1.425 . S
C1864 C1871 1.409 . S
C1865 H1857 0.930 . S
C1865 C1863 1.419 . S
C1865 C1866 1.362 . S
C1866 H1858 0.930 . S
C1866 C1865 1.362 . S
C1866 C1869 1.409 . S
C1867 H1859 0.930 . S
C1867 C1868 1.355 . S
C1867 C1869 1.415 . S
C1868 C1867 1.355 . S
C1868 C1870 1.419 . S
C1869 C1864 1.425 . S
C1869 C1866 1.409 . S
C1869 C1867 1.415 . S
C1870 H1860 0.930 . S
C1870 C1868 1.419 . S
C1870 C1871 1.362 . S
C1871 H1861 0.930 . S
C1871 C1864 1.409 . S
C1871 C1870 1.362 . S
H1872 C1878 0.930 . S
H1873 C1881 0.930 1_655 S
H1874 C1882 0.930 . S
H1875 C1883 0.930 . S
H1876 C1886 0.930 . S
H1877 C1887 0.930 . S
C1878 H1872 0.930 . S
C1878 C1879 1.355 . S
C1878 C1880 1.415 . S
C1879 C1878 1.355 . S
C1879 C1881 1.419 . S
C1880 C1878 1.415 . S
C1880 C1885 1.425 . S
C1880 C1887 1.409 . S
C1881 H1873 0.930 1_455 S
C1881 C1879 1.419 . S
C1881 C1882 1.362 . S
C1882 H1874 0.930 . S
C1882 C1881 1.362 . S
C1882 C1885 1.409 . S
C1883 H1875 0.930 . S
C1883 C1884 1.355 . S
C1883 C1885 1.415 . S
C1884 C1883 1.355 . S
C1884 C1886 1.419 . S
C1885 C1880 1.425 . S
C1885 C1882 1.409 . S
C1885 C1883 1.415 . S
C1886 H1876 0.930 . S
C1886 C1884 1.419 . S
C1886 C1887 1.362 . S
C1887 H1877 0.930 . S
C1887 C1880 1.409 . S
C1887 C1886 1.362 . S
H1888 C1894 0.930 . S
H1889 C1897 0.930 . S
H1890 C1898 0.930 . S
H1891 C1899 0.930 . S
H1892 C1902 0.930 . S
H1893 C1903 0.930 . S
C1894 H1888 0.930 . S
C1894 C1895 1.355 . S
C1894 C1896 1.415 . S
C1895 C1894 1.355 . S
C1895 C1897 1.419 . S
C1896 C1894 1.415 . S
C1896 C1901 1.425 . S
C1896 C1903 1.409 . S
C1897 H1889 0.930 . S
C1897 C1895 1.419 . S
C1897 C1898 1.362 . S
C1898 H1890 0.930 . S
C1898 C1897 1.362 . S
C1898 C1901 1.409 . S
C1899 H1891 0.930 . S
C1899 C1900 1.355 . S
C1899 C1901 1.415 . S
C1900 C1899 1.355 . S
C1900 C1902 1.419 . S
C1901 C1896 1.425 . S
C1901 C1898 1.409 . S
C1901 C1899 1.415 . S
C1902 H1892 0.930 . S
C1902 C1900 1.419 . S
C1902 C1903 1.362 . S
C1903 H1893 0.930 . S
C1903 C1896 1.409 . S
C1903 C1902 1.362 . S
H1904 C1910 0.930 . S
H1905 C1913 0.930 . S
H1906 C1914 0.930 . S
H1907 C1915 0.930 . S
H1908 C1918 0.930 . S
H1909 C1919 0.930 . S
C1910 H1904 0.930 . S
C1910 C1911 1.355 . S
C1910 C1912 1.415 . S
C1911 C1910 1.355 . S
C1911 C1913 1.419 . S
C1912 C1910 1.415 . S
C1912 C1917 1.425 . S
C1912 C1919 1.409 . S
C1913 H1905 0.930 . S
C1913 C1911 1.419 . S
C1913 C1914 1.362 . S
C1914 H1906 0.930 . S
C1914 C1913 1.362 . S
C1914 C1917 1.409 . S
C1915 H1907 0.930 . S
C1915 C1916 1.355 . S
C1915 C1917 1.415 . S
C1916 C1915 1.355 . S
C1916 C1918 1.419 . S
C1917 C1912 1.425 . S
C1917 C1914 1.409 . S
C1917 C1915 1.415 . S
C1918 H1908 0.930 . S
C1918 C1916 1.419 . S
C1918 C1919 1.362 . S
C1919 H1909 0.930 . S
C1919 C1912 1.409 . S
C1919 C1918 1.362 . S
H1920 C1926 0.930 . S
H1921 C1929 0.930 . S
H1922 C1930 0.930 . S
H1923 C1931 0.930 . S
H1924 C1934 0.930 . S
H1925 C1935 0.930 . S
C1926 H1920 0.930 . S
C1926 C1927 1.355 . S
C1926 C1928 1.415 . S
C1927 C1926 1.355 . S
C1927 C1929 1.419 . S
C1928 C1926 1.415 . S
C1928 C1933 1.425 . S
C1928 C1935 1.409 . S
C1929 H1921 0.930 . S
C1929 C1927 1.419 . S
C1929 C1930 1.362 . S
C1930 H1922 0.930 . S
C1930 C1929 1.362 . S
C1930 C1933 1.409 . S
C1931 H1923 0.930 . S
C1931 C1932 1.355 . S
C1931 C1933 1.415 . S
C1932 C1931 1.355 . S
C1932 C1934 1.419 . S
C1933 C1928 1.425 . S
C1933 C1930 1.409 . S
C1933 C1931 1.415 . S
C1934 H1924 0.930 . S
C1934 C1932 1.419 . S
C1934 C1935 1.362 . S
C1935 H1925 0.930 . S
C1935 C1928 1.409 . S
C1935 C1934 1.362 . S
H1936 C1942 0.930 . S
H1937 C1945 0.930 . S
H1938 C1946 0.930 . S
H1939 C1947 0.930 . S
H1940 C1950 0.930 . S
H1941 C1951 0.930 . S
C1942 H1936 0.930 . S
C1942 C1943 1.355 . S
C1942 C1944 1.415 . S
C1943 C1942 1.355 . S
C1943 C1945 1.419 . S
C1944 C1942 1.415 . S
C1944 C1949 1.425 . S
C1944 C1951 1.409 . S
C1945 H1937 0.930 . S
C1945 C1943 1.419 . S
C1945 C1946 1.362 . S
C1946 H1938 0.930 . S
C1946 C1945 1.362 . S
C1946 C1949 1.409 . S
C1947 H1939 0.930 . S
C1947 C1948 1.355 . S
C1947 C1949 1.415 . S
C1948 C1947 1.355 . S
C1948 C1950 1.419 . S
C1949 C1944 1.425 . S
C1949 C1946 1.409 . S
C1949 C1947 1.415 . S
C1950 H1940 0.930 . S
C1950 C1948 1.419 . S
C1950 C1951 1.362 . S
C1951 H1941 0.930 . S
C1951 C1944 1.409 . S
C1951 C1950 1.362 . S
H1952 C1958 0.930 . S
H1953 C1961 0.930 . S
H1954 C1962 0.930 . S
H1955 C1963 0.930 . S
H1956 C1966 0.930 . S
H1957 C1967 0.930 . S
C1958 H1952 0.930 . S
C1958 C1959 1.355 . S
C1958 C1960 1.415 . S
C1959 C1958 1.355 . S
C1959 C1961 1.419 . S
C1960 C1958 1.415 . S
C1960 C1965 1.425 . S
C1960 C1967 1.409 . S
C1961 H1953 0.930 . S
C1961 C1959 1.419 . S
C1961 C1962 1.362 . S
C1962 H1954 0.930 . S
C1962 C1961 1.362 . S
C1962 C1965 1.409 . S
C1963 H1955 0.930 . S
C1963 C1964 1.355 . S
C1963 C1965 1.415 . S
C1964 C1963 1.355 . S
C1964 C1966 1.419 . S
C1965 C1960 1.425 . S
C1965 C1962 1.409 . S
C1965 C1963 1.415 . S
C1966 H1956 0.930 . S
C1966 C1964 1.419 . S
C1966 C1967 1.362 . S
C1967 H1957 0.930 . S
C1967 C1960 1.409 . S
C1967 C1966 1.362 . S
H1968 C1974 0.930 . S
H1969 C1977 0.930 . S
H1970 C1978 0.930 . S
H1971 C1979 0.930 . S
H1972 C1982 0.930 . S
H1973 C1983 0.930 . S
C1974 H1968 0.930 . S
C1974 C1975 1.355 . S
C1974 C1976 1.415 . S
C1975 C1974 1.355 . S
C1975 C1977 1.419 . S
C1976 C1974 1.415 . S
C1976 C1981 1.425 . S
C1976 C1983 1.409 . S
C1977 H1969 0.930 . S
C1977 C1975 1.419 . S
C1977 C1978 1.362 . S
C1978 H1970 0.930 . S
C1978 C1977 1.362 . S
C1978 C1981 1.409 . S
C1979 H1971 0.930 . S
C1979 C1980 1.355 . S
C1979 C1981 1.415 . S
C1980 C1979 1.355 . S
C1980 C1982 1.419 . S
C1981 C1976 1.425 . S
C1981 C1978 1.409 . S
C1981 C1979 1.415 . S
C1982 H1972 0.930 . S
C1982 C1980 1.419 . S
C1982 C1983 1.362 . S
C1983 H1973 0.930 . S
C1983 C1976 1.409 . S
C1983 C1982 1.362 . S
H1984 C1990 0.930 . S
H1985 C1993 0.930 . S
H1986 C1994 0.930 . S
H1987 C1995 0.930 . S
H1988 C1998 0.930 . S
H1989 C1999 0.930 . S
C1990 H1984 0.930 . S
C1990 C1991 1.355 . S
C1990 C1992 1.415 . S
C1991 C1990 1.355 . S
C1991 C1993 1.419 . S
C1992 C1990 1.415 . S
C1992 C1997 1.425 . S
C1992 C1999 1.409 . S
C1993 H1985 0.930 . S
C1993 C1991 1.419 . S
C1993 C1994 1.362 . S
C1994 H1986 0.930 . S
C1994 C1993 1.362 . S
C1994 C1997 1.409 . S
C1995 H1987 0.930 . S
C1995 C1996 1.355 . S
C1995 C1997 1.415 . S
C1996 C1995 1.355 . S
C1996 C1998 1.419 . S
C1997 C1992 1.425 . S
C1997 C1994 1.409 . S
C1997 C1995 1.415 . S
C1998 H1988 0.930 . S
C1998 C1996 1.419 . S
C1998 C1999 1.362 . S
C1999 H1989 0.930 . S
C1999 C1992 1.409 . S
C1999 C1998 1.362 . S
H2000 C2006 0.930 . S
H2001 C2009 0.930 . S
H2002 C2010 0.930 . S
H2003 C2011 0.930 . S
H2004 C2014 0.930 1_455 S
H2005 C2015 0.930 . S
C2006 H2000 0.930 . S
C2006 C2007 1.355 . S
C2006 C2008 1.415 . S
C2007 C2006 1.355 . S
C2007 C2009 1.419 . S
C2008 C2006 1.415 . S
C2008 C2013 1.425 . S
C2008 C2015 1.409 . S
C2009 H2001 0.930 . S
C2009 C2007 1.419 . S
C2009 C2010 1.362 . S
C2010 H2002 0.930 . S
C2010 C2009 1.362 . S
C2010 C2013 1.409 . S
C2011 H2003 0.930 . S
C2011 C2012 1.355 . S
C2011 C2013 1.415 . S
C2012 C2011 1.355 . S
C2012 C2014 1.419 . S
C2013 C2008 1.425 . S
C2013 C2010 1.409 . S
C2013 C2011 1.415 . S
C2014 H2004 0.930 1_655 S
C2014 C2012 1.419 . S
C2014 C2015 1.362 . S
C2015 H2005 0.930 . S
C2015 C2008 1.409 . S
C2015 C2014 1.362 . S
H2016 C2022 0.930 . S
H2017 C2025 0.930 . S
H2018 C2026 0.930 . S
H2019 C2027 0.930 . S
H2020 C2030 0.930 . S
H2021 C2031 0.930 . S
C2022 H2016 0.930 . S
C2022 C2023 1.355 . S
C2022 C2024 1.415 . S
C2023 C2022 1.355 . S
C2023 C2025 1.419 . S
C2024 C2022 1.415 . S
C2024 C2029 1.425 . S
C2024 C2031 1.409 . S
C2025 H2017 0.930 . S
C2025 C2023 1.419 . S
C2025 C2026 1.362 . S
C2026 H2018 0.930 . S
C2026 C2025 1.362 . S
C2026 C2029 1.409 . S
C2027 H2019 0.930 . S
C2027 C2028 1.355 . S
C2027 C2029 1.415 . S
C2028 C2027 1.355 . S
C2028 C2030 1.419 . S
C2029 C2024 1.425 . S
C2029 C2026 1.409 . S
C2029 C2027 1.415 . S
C2030 H2020 0.930 . S
C2030 C2028 1.419 . S
C2030 C2031 1.362 . S
C2031 H2021 0.930 . S
C2031 C2024 1.409 . S
C2031 C2030 1.362 . S
H2032 C2038 0.930 . S
H2033 C2041 0.930 . S
H2034 C2042 0.930 . S
H2035 C2043 0.930 . S
H2036 C2046 0.930 1_455 S
H2037 C2047 0.930 . S
C2038 H2032 0.930 . S
C2038 C2039 1.355 . S
C2038 C2040 1.415 . S
C2039 C2038 1.355 . S
C2039 C2041 1.419 . S
C2040 C2038 1.415 . S
C2040 C2045 1.425 . S
C2040 C2047 1.409 . S
C2041 H2033 0.930 . S
C2041 C2039 1.419 . S
C2041 C2042 1.362 . S
C2042 H2034 0.930 . S
C2042 C2041 1.362 . S
C2042 C2045 1.409 . S
C2043 H2035 0.930 . S
C2043 C2044 1.355 . S
C2043 C2045 1.415 . S
C2044 C2043 1.355 . S
C2044 C2046 1.419 . S
C2045 C2040 1.425 . S
C2045 C2042 1.409 . S
C2045 C2043 1.415 . S
C2046 H2036 0.930 1_655 S
C2046 C2044 1.419 . S
C2046 C2047 1.362 . S
C2047 H2037 0.930 . S
C2047 C2040 1.409 . S
C2047 C2046 1.362 . S
H2048 C2054 0.930 . S
H2049 C2057 0.930 . S
H2050 C2058 0.930 . S
H2051 C2059 0.930 . S
H2052 C2062 0.930 . S
H2053 C2063 0.930 . S
C2054 H2048 0.930 . S
C2054 C2055 1.355 . S
C2054 C2056 1.415 . S
C2055 C2054 1.355 . S
C2055 C2057 1.419 . S
C2056 C2054 1.415 . S
C2056 C2061 1.425 . S
C2056 C2063 1.409 . S
C2057 H2049 0.930 . S
C2057 C2055 1.419 . S
C2057 C2058 1.362 . S
C2058 H2050 0.930 . S
C2058 C2057 1.362 . S
C2058 C2061 1.409 . S
C2059 H2051 0.930 . S
C2059 C2060 1.355 . S
C2059 C2061 1.415 . S
C2060 C2059 1.355 . S
C2060 C2062 1.419 . S
C2061 C2056 1.425 . S
C2061 C2058 1.409 . S
C2061 C2059 1.415 . S
C2062 H2052 0.930 . S
C2062 C2060 1.419 . S
C2062 C2063 1.362 . S
C2063 H2053 0.930 . S
C2063 C2056 1.409 . S
C2063 C2062 1.362 . S
H2064 C2070 0.930 . S
H2065 C2073 0.930 . S
H2066 C2074 0.930 . S
H2067 C2075 0.930 . S
H2068 C2078 0.930 . S
H2069 C2079 0.930 . S
C2070 H2064 0.930 . S
C2070 C2071 1.355 . S
C2070 C2072 1.415 . S
C2071 C2070 1.355 . S
C2071 C2073 1.419 . S
C2072 C2070 1.415 . S
C2072 C2077 1.425 . S
C2072 C2079 1.409 . S
C2073 H2065 0.930 . S
C2073 C2071 1.419 . S
C2073 C2074 1.362 . S
C2074 H2066 0.930 . S
C2074 C2073 1.362 . S
C2074 C2077 1.409 . S
C2075 H2067 0.930 . S
C2075 C2076 1.355 . S
C2075 C2077 1.415 . S
C2076 C2075 1.355 . S
C2076 C2078 1.419 . S
C2077 C2072 1.425 . S
C2077 C2074 1.409 . S
C2077 C2075 1.415 . S
C2078 H2068 0.930 . S
C2078 C2076 1.419 . S
C2078 C2079 1.362 . S
C2079 H2069 0.930 . S
C2079 C2072 1.409 . S
C2079 C2078 1.362 . S
H2080 C2086 0.930 . S
H2081 C2089 0.930 . S
H2082 C2090 0.930 . S
H2083 C2091 0.930 . S
H2084 C2094 0.930 . S
H2085 C2095 0.930 . S
C2086 H2080 0.930 . S
C2086 C2087 1.355 . S
C2086 C2088 1.415 . S
C2087 C2086 1.355 . S
C2087 C2089 1.419 . S
C2088 C2086 1.415 . S
C2088 C2093 1.425 . S
C2088 C2095 1.409 . S
C2089 H2081 0.930 . S
C2089 C2087 1.419 . S
C2089 C2090 1.362 . S
C2090 H2082 0.930 . S
C2090 C2089 1.362 . S
C2090 C2093 1.409 . S
C2091 H2083 0.930 . S
C2091 C2092 1.355 . S
C2091 C2093 1.415 . S
C2092 C2091 1.355 . S
C2092 C2094 1.419 . S
C2093 C2088 1.425 . S
C2093 C2090 1.409 . S
C2093 C2091 1.415 . S
C2094 H2084 0.930 . S
C2094 C2092 1.419 . S
C2094 C2095 1.362 . S
C2095 H2085 0.930 . S
C2095 C2088 1.409 . S
C2095 C2094 1.362 . S
H2096 C2102 0.930 . S
H2097 C2105 0.930 . S
H2098 C2106 0.930 . S
H2099 C2107 0.930 . S
H2100 C2110 0.930 . S
H2101 C2111 0.930 . S
C2102 H2096 0.930 . S
C2102 C2103 1.355 . S
C2102 C2104 1.415 1_565 S
C2103 C2102 1.355 . S
C2103 C2105 1.419 . S
C2104 C2102 1.415 1_545 S
C2104 C2109 1.425 1_445 S
C2104 C2111 1.409 . S
C2105 H2097 0.930 . S
C2105 C2103 1.419 . S
C2105 C2106 1.362 1_455 S
C2106 H2098 0.930 . S
C2106 C2105 1.362 1_655 S
C2106 C2109 1.409 . S
C2107 H2099 0.930 . S
C2107 C2108 1.355 . S
C2107 C2109 1.415 1_545 S
C2108 C2107 1.355 . S
C2108 C2110 1.419 . S
C2109 C2104 1.425 1_665 S
C2109 C2106 1.409 . S
C2109 C2107 1.415 1_565 S
C2110 H2100 0.930 . S
C2110 C2108 1.419 . S
C2110 C2111 1.362 1_655 S
C2111 H2101 0.930 . S
C2111 C2104 1.409 . S
C2111 C2110 1.362 1_455 S
H2112 C2118 0.930 . S
H2113 C2121 0.930 . S
H2114 C2122 0.930 . S
H2115 C2123 0.930 . S
H2116 C2126 0.930 . S
H2117 C2127 0.930 . S
C2118 H2112 0.930 . S
C2118 C2119 1.355 . S
C2118 C2120 1.415 . S
C2119 C2118 1.355 . S
C2119 C2121 1.419 . S
C2120 C2118 1.415 . S
C2120 C2125 1.425 . S
C2120 C2127 1.409 . S
C2121 H2113 0.930 . S
C2121 C2119 1.419 . S
C2121 C2122 1.362 . S
C2122 H2114 0.930 . S
C2122 C2121 1.362 . S
C2122 C2125 1.409 . S
C2123 H2115 0.930 . S
C2123 C2124 1.355 . S
C2123 C2125 1.415 . S
C2124 C2123 1.355 . S
C2124 C2126 1.419 . S
C2125 C2120 1.425 . S
C2125 C2122 1.409 . S
C2125 C2123 1.415 . S
C2126 H2116 0.930 . S
C2126 C2124 1.419 . S
C2126 C2127 1.362 . S
C2127 H2117 0.930 . S
C2127 C2120 1.409 . S
C2127 C2126 1.362 . S
H2128 C2134 0.930 . S
H2129 C2137 0.930 . S
H2130 C2138 0.930 . S
H2131 C2139 0.930 . S
H2132 C2142 0.930 . S
H2133 C2143 0.930 . S
C2134 H2128 0.930 . S
C2134 C2135 1.355 . S
C2134 C2136 1.415 . S
C2135 C2134 1.355 . S
C2135 C2137 1.419 1_556 S
C2136 C2134 1.415 . S
C2136 C2141 1.425 1_566 S
C2136 C2143 1.409 1_565 S
C2137 H2129 0.930 . S
C2137 C2135 1.419 1_554 S
C2137 C2138 1.362 . S
C2138 H2130 0.930 . S
C2138 C2137 1.362 . S
C2138 C2141 1.409 1_565 S
C2139 H2131 0.930 . S
C2139 C2140 1.355 . S
C2139 C2141 1.415 . S
C2140 C2139 1.355 . S
C2140 C2142 1.419 1_554 S
C2141 C2136 1.425 1_544 S
C2141 C2138 1.409 1_545 S
C2141 C2139 1.415 . S
C2142 H2132 0.930 . S
C2142 C2140 1.419 1_556 S
C2142 C2143 1.362 . S
C2143 H2133 0.930 . S
C2143 C2136 1.409 1_545 S
C2143 C2142 1.362 . S
H2144 C2150 0.930 . S
H2145 C2153 0.930 . S
H2146 C2154 0.930 . S
H2147 C2155 0.930 . S
H2148 C2158 0.930 . S
H2149 C2159 0.930 . S
C2150 H2144 0.930 . S
C2150 C2151 1.355 . S
C2150 C2152 1.415 . S
C2151 C2150 1.355 . S
C2151 C2153 1.419 . S
C2152 C2150 1.415 . S
C2152 C2157 1.425 . S
C2152 C2159 1.409 . S
C2153 H2145 0.930 . S
C2153 C2151 1.419 . S
C2153 C2154 1.362 . S
C2154 H2146 0.930 . S
C2154 C2153 1.362 . S
C2154 C2157 1.409 . S
C2155 H2147 0.930 . S
C2155 C2156 1.355 . S
C2155 C2157 1.415 . S
C2156 C2155 1.355 . S
C2156 C2158 1.419 . S
C2157 C2152 1.425 . S
C2157 C2154 1.409 . S
C2157 C2155 1.415 . S
C2158 H2148 0.930 . S
C2158 C2156 1.419 . S
C2158 C2159 1.362 . S
C2159 H2149 0.930 . S
C2159 C2152 1.409 . S
C2159 C2158 1.362 . S
H2160 C2166 0.930 . S
H2161 C2169 0.930 . S
H2162 C2170 0.930 . S
H2163 C2171 0.930 . S
H2164 C2174 0.930 . S
H2165 C2175 0.930 . S
C2166 H2160 0.930 . S
C2166 C2167 1.355 . S
C2166 C2168 1.415 1_545 S
C2167 C2166 1.355 . S
C2167 C2169 1.419 . S
C2168 C2166 1.415 1_565 S
C2168 C2173 1.425 1_565 S
C2168 C2175 1.409 . S
C2169 H2161 0.930 . S
C2169 C2167 1.419 . S
C2169 C2170 1.362 . S
C2170 H2162 0.930 . S
C2170 C2169 1.362 . S
C2170 C2173 1.409 . S
C2171 H2163 0.930 . S
C2171 C2172 1.355 . S
C2171 C2173 1.415 1_565 S
C2172 C2171 1.355 . S
C2172 C2174 1.419 . S
C2173 C2168 1.425 1_545 S
C2173 C2170 1.409 . S
C2173 C2171 1.415 1_545 S
C2174 H2164 0.930 . S
C2174 C2172 1.419 . S
C2174 C2175 1.362 . S
C2175 H2165 0.930 . S
C2175 C2168 1.409 . S
C2175 C2174 1.362 . S
H2176 C2182 0.930 . S
H2177 C2185 0.930 . S
H2178 C2186 0.930 . S
H2179 C2187 0.930 . S
H2180 C2190 0.930 . S
H2181 C2191 0.930 . S
C2182 H2176 0.930 . S
C2182 C2183 1.355 . S
C2182 C2184 1.415 . S
C2183 C2182 1.355 . S
C2183 C2185 1.419 . S
C2184 C2182 1.415 . S
C2184 C2189 1.425 . S
C2184 C2191 1.409 . S
C2185 H2177 0.930 . S
C2185 C2183 1.419 . S
C2185 C2186 1.362 . S
C2186 H2178 0.930 . S
C2186 C2185 1.362 . S
C2186 C2189 1.409 . S
C2187 H2179 0.930 . S
C2187 C2188 1.355 . S
C2187 C2189 1.415 . S
C2188 C2187 1.355 . S
C2188 C2190 1.419 . S
C2189 C2184 1.425 . S
C2189 C2186 1.409 . S
C2189 C2187 1.415 . S
C2190 H2180 0.930 . S
C2190 C2188 1.419 . S
C2190 C2191 1.362 . S
C2191 H2181 0.930 . S
C2191 C2184 1.409 . S
C2191 C2190 1.362 . S
H2192 C2198 0.930 1_455 S
H2193 C2201 0.930 . S
H2194 C2202 0.930 . S
H2195 C2203 0.930 1_655 S
H2196 C2206 0.930 . S
H2197 C2207 0.930 . S
C2198 H2192 0.930 1_655 S
C2198 C2199 1.355 . S
C2198 C2200 1.414 1_654 S
C2199 C2198 1.355 . S
C2199 C2201 1.419 . S
C2200 C2198 1.414 1_456 S
C2200 C2205 1.425 1_466 S
C2200 C2207 1.410 . S
C2201 H2193 0.930 . S
C2201 C2199 1.419 . S
C2201 C2202 1.362 1_565 S
C2202 H2194 0.930 . S
C2202 C2201 1.362 1_545 S
C2202 C2205 1.410 . S
C2203 H2195 0.930 1_455 S
C2203 C2204 1.355 . S
C2203 C2205 1.414 1_456 S
C2204 C2203 1.355 . S
C2204 C2206 1.419 . S
C2205 C2200 1.425 1_644 S
C2205 C2202 1.410 . S
C2205 C2203 1.414 1_654 S
C2206 H2196 0.930 . S
C2206 C2204 1.419 . S
C2206 C2207 1.362 1_545 S
C2207 H2197 0.930 . S
C2207 C2200 1.410 . S
C2207 C2206 1.362 1_565 S
H2208 C2214 0.930 . S
H2209 C2217 0.930 . S
H2210 C2218 0.930 . S
H2211 C2219 0.930 . S
H2212 C2222 0.930 . S
H2213 C2223 0.930 . S
C2214 H2208 0.930 . S
C2214 C2215 1.355 . S
C2214 C2216 1.415 . S
C2215 C2214 1.355 . S
C2215 C2217 1.419 . S
C2216 C2214 1.415 . S
C2216 C2221 1.425 . S
C2216 C2223 1.409 . S
C2217 H2209 0.930 . S
C2217 C2215 1.419 . S
C2217 C2218 1.362 . S
C2218 H2210 0.930 . S
C2218 C2217 1.362 . S
C2218 C2221 1.409 . S
C2219 H2211 0.930 . S
C2219 C2220 1.355 . S
C2219 C2221 1.415 . S
C2220 C2219 1.355 . S
C2220 C2222 1.419 . S
C2221 C2216 1.425 . S
C2221 C2218 1.409 . S
C2221 C2219 1.415 . S
C2222 H2212 0.930 . S
C2222 C2220 1.419 . S
C2222 C2223 1.362 . S
C2223 H2213 0.930 . S
C2223 C2216 1.409 . S
C2223 C2222 1.362 . S
H2224 C2230 0.930 . S
H2225 C2233 0.930 . S
H2226 C2234 0.930 . S
H2227 C2235 0.930 . S
H2228 C2238 0.930 . S
H2229 C2239 0.930 . S
C2230 H2224 0.930 . S
C2230 C2231 1.355 . S
C2230 C2232 1.415 . S
C2231 C2230 1.355 . S
C2231 C2233 1.419 . S
C2232 C2230 1.415 . S
C2232 C2237 1.425 . S
C2232 C2239 1.409 . S
C2233 H2225 0.930 . S
C2233 C2231 1.419 . S
C2233 C2234 1.362 . S
C2234 H2226 0.930 . S
C2234 C2233 1.362 . S
C2234 C2237 1.409 . S
C2235 H2227 0.930 . S
C2235 C2236 1.355 . S
C2235 C2237 1.415 . S
C2236 C2235 1.355 . S
C2236 C2238 1.419 . S
C2237 C2232 1.425 . S
C2237 C2234 1.409 . S
C2237 C2235 1.415 . S
C2238 H2228 0.930 . S
C2238 C2236 1.419 . S
C2238 C2239 1.362 . S
C2239 H2229 0.930 . S
C2239 C2232 1.409 . S
C2239 C2238 1.362 . S
H2240 C2246 0.930 . S
H2241 C2249 0.930 . S
H2242 C2250 0.930 . S
H2243 C2251 0.930 . S
H2244 C2254 0.930 . S
H2245 C2255 0.930 . S
C2246 H2240 0.930 . S
C2246 C2247 1.355 . S
C2246 C2248 1.415 . S
C2247 C2246 1.355 . S
C2247 C2249 1.419 . S
C2248 C2246 1.415 . S
C2248 C2253 1.425 . S
C2248 C2255 1.409 . S
C2249 H2241 0.930 . S
C2249 C2247 1.419 . S
C2249 C2250 1.362 . S
C2250 H2242 0.930 . S
C2250 C2249 1.362 . S
C2250 C2253 1.409 . S
C2251 H2243 0.930 . S
C2251 C2252 1.355 . S
C2251 C2253 1.415 . S
C2252 C2251 1.355 . S
C2252 C2254 1.419 . S
C2253 C2248 1.425 . S
C2253 C2250 1.409 . S
C2253 C2251 1.415 . S
C2254 H2244 0.930 . S
C2254 C2252 1.419 . S
C2254 C2255 1.362 . S
C2255 H2245 0.930 . S
C2255 C2248 1.409 . S
C2255 C2254 1.362 . S
H2256 C2262 0.930 . S
H2257 C2265 0.930 . S
H2258 C2266 0.930 . S
H2259 C2267 0.930 . S
H2260 C2270 0.930 . S
H2261 C2271 0.930 . S
C2262 H2256 0.930 . S
C2262 C2263 1.355 . S
C2262 C2264 1.415 . S
C2263 C2262 1.355 . S
C2263 C2265 1.419 . S
C2264 C2262 1.415 . S
C2264 C2269 1.425 . S
C2264 C2271 1.409 . S
C2265 H2257 0.930 . S
C2265 C2263 1.419 . S
C2265 C2266 1.362 . S
C2266 H2258 0.930 . S
C2266 C2265 1.362 . S
C2266 C2269 1.409 . S
C2267 H2259 0.930 . S
C2267 C2268 1.355 . S
C2267 C2269 1.415 . S
C2268 C2267 1.355 . S
C2268 C2270 1.419 . S
C2269 C2264 1.425 . S
C2269 C2266 1.409 . S
C2269 C2267 1.415 . S
C2270 H2260 0.930 . S
C2270 C2268 1.419 . S
C2270 C2271 1.362 . S
C2271 H2261 0.930 . S
C2271 C2264 1.409 . S
C2271 C2270 1.362 . S
H2272 C2278 0.930 . S
H2273 C2281 0.930 . S
H2274 C2282 0.930 . S
H2275 C2283 0.930 . S
H2276 C2286 0.930 . S
H2277 C2287 0.930 . S
C2278 H2272 0.930 . S
C2278 C2279 1.355 . S
C2278 C2280 1.415 . S
C2279 C2278 1.355 . S
C2279 C2281 1.419 1_556 S
C2280 C2278 1.415 . S
C2280 C2285 1.425 1_556 S
C2280 C2287 1.409 . S
C2281 H2273 0.930 . S
C2281 C2279 1.419 1_554 S
C2281 C2282 1.362 . S
C2282 H2274 0.930 . S
C2282 C2281 1.362 . S
C2282 C2285 1.409 . S
C2283 H2275 0.930 . S
C2283 C2284 1.355 . S
C2283 C2285 1.415 . S
C2284 C2283 1.355 . S
C2284 C2286 1.419 1_554 S
C2285 C2280 1.425 1_554 S
C2285 C2282 1.409 . S
C2285 C2283 1.415 . S
C2286 H2276 0.930 . S
C2286 C2284 1.419 1_556 S
C2286 C2287 1.362 . S
C2287 H2277 0.930 . S
C2287 C2280 1.409 . S
C2287 C2286 1.362 . S
H2288 C2294 0.930 . S
H2289 C2297 0.930 . S
H2290 C2298 0.930 . S
H2291 C2299 0.930 . S
H2292 C2302 0.930 . S
H2293 C2303 0.930 . S
C2294 H2288 0.930 . S
C2294 C2295 1.355 . S
C2294 C2296 1.415 . S
C2295 C2294 1.355 . S
C2295 C2297 1.419 . S
C2296 C2294 1.415 . S
C2296 C2301 1.425 1_655 S
C2296 C2303 1.409 . S
C2297 H2289 0.930 . S
C2297 C2295 1.419 . S
C2297 C2298 1.362 1_655 S
C2298 H2290 0.930 . S
C2298 C2297 1.362 1_455 S
C2298 C2301 1.409 . S
C2299 H2291 0.930 . S
C2299 C2300 1.355 . S
C2299 C2301 1.415 . S
C2300 C2299 1.355 . S
C2300 C2302 1.419 . S
C2301 C2296 1.425 1_455 S
C2301 C2298 1.409 . S
C2301 C2299 1.415 . S
C2302 H2292 0.930 . S
C2302 C2300 1.419 . S
C2302 C2303 1.362 1_455 S
C2303 H2293 0.930 . S
C2303 C2296 1.409 . S
C2303 C2302 1.362 1_655 S
H2304 C2310 0.930 . S
H2305 C2313 0.930 . S
H2306 C2314 0.932 . S
H2307 C2315 0.930 . S
H2308 C2318 0.930 . S
H2309 C2319 0.932 . S
C2310 H2304 0.930 . S
C2310 C2311 1.355 1_556 S
C2310 C2312 1.415 . S
C2311 C2310 1.355 1_554 S
C2311 C2313 1.419 . S
C2312 C2310 1.415 . S
C2312 C2317 1.425 1_456 S
C2312 C2319 1.410 . S
C2313 H2305 0.930 . S
C2313 C2311 1.419 . S
C2313 C2314 1.359 1_455 S
C2314 H2306 0.932 . S
C2314 C2313 1.359 1_655 S
C2314 C2317 1.410 . S
C2315 H2307 0.930 . S
C2315 C2316 1.355 1_554 S
C2315 C2317 1.415 . S
C2316 C2315 1.355 1_556 S
C2316 C2318 1.419 . S
C2317 C2312 1.425 1_654 S
C2317 C2314 1.410 . S
C2317 C2315 1.415 . S
C2318 H2308 0.930 . S
C2318 C2316 1.419 . S
C2318 C2319 1.359 1_655 S
C2319 H2309 0.932 . S
C2319 C2312 1.410 . S
C2319 C2318 1.359 1_455 S
H2320 C2326 0.930 . S
H2321 C2329 0.930 . S
H2322 C2330 0.930 . S
H2323 C2331 0.930 . S
H2324 C2334 0.930 . S
H2325 C2335 0.930 . S
C2326 H2320 0.930 . S
C2326 C2327 1.355 . S
C2326 C2328 1.415 . S
C2327 C2326 1.355 . S
C2327 C2329 1.419 . S
C2328 C2326 1.415 . S
C2328 C2333 1.425 . S
C2328 C2335 1.409 . S
C2329 H2321 0.930 . S
C2329 C2327 1.419 . S
C2329 C2330 1.362 . S
C2330 H2322 0.930 . S
C2330 C2329 1.362 . S
C2330 C2333 1.409 . S
C2331 H2323 0.930 . S
C2331 C2332 1.355 . S
C2331 C2333 1.415 . S
C2332 C2331 1.355 . S
C2332 C2334 1.419 . S
C2333 C2328 1.425 . S
C2333 C2330 1.409 . S
C2333 C2331 1.415 . S
C2334 H2324 0.930 . S
C2334 C2332 1.419 . S
C2334 C2335 1.362 . S
C2335 H2325 0.930 . S
C2335 C2328 1.409 . S
C2335 C2334 1.362 . S
C1063 N244 1.865 . S
C1068 N13 1.909 . S
C1079 N46 1.914 . S
C1084 N145 1.873 . S
C1095 N79 1.875 . S
C1100 N178 1.898 . S
C1111 N211 1.921 . S
C1116 N112 1.864 . S
C1127 N508 1.920 . S
C1132 N277 1.866 . S
C1143 N409 1.867 . S
C1148 N310 1.907 . S
C1159 N343 1.856 . S
C1164 N442 1.925 . S
C1175 N376 1.899 . S
C1180 N475 1.890 . S
C1191 N772 1.855 . S
C1196 N541 1.923 . S
C1207 N574 1.915 . S
C1212 N673 1.872 . S
C1223 N607 1.899 . S
C1228 N706 1.889 . S
C1239 N739 1.904 . S
C1244 N640 1.885 . S
C1255 N1036 1.925 . S
C1260 N805 1.855 . S
C1271 N838 1.919 . S
C1276 N937 1.858 . S
C1287 N970 1.916 . S
C1292 N871 1.860 . S
C1303 N1003 1.924 . S
C1308 N904 1.858 . S
C1319 C601 1.080 . S
C1324 C7 1.130 . S
C1335 C634 1.122 . S
C1340 C40 1.081 . S
C1351 C73 1.166 . S
C1356 C535 1.140 . S
C1367 C106 1.171 . S
C1372 C568 1.110 . S
C1383 C733 1.161 . S
C1388 C139 1.150 . S
C1399 C766 1.138 . S
C1404 C172 1.080 . S
C1415 C205 1.171 . S
C1420 C667 1.119 . S
C1431 C238 1.088 . S
C1436 C700 1.107 . S
C1447 C271 1.125 . S
C1452 C865 1.081 . S
C1463 C898 1.141 . S
C1468 C304 1.080 . S
C1479 C799 1.106 . S
C1484 C337 1.170 . S
C1495 C370 1.119 . S
C1500 C832 1.082 . S
C1511 C403 1.092 . S
C1516 C997 1.102 . S
C1527 C1030 1.080 . S
C1532 C436 1.129 . S
C1543 C931 1.139 . S
C1548 C469 1.080 . S
C1559 C964 1.133 . S
C1564 C502 1.080 . S
C1575 N2 1.131 . S
C1580 C912 1.020 . S
C1591 C285 0.965 . S
C1596 N35 1.090 1_655 S
C1607 C846 0.961 . S
C1612 N68 1.085 . S
C1623 N101 1.126 . S
C1628 C351 1.012 . S
C1639 C978 0.930 . S
C1644 N134 1.067 . S
C1655 C483 1.010 . S
C1660 N167 1.125 . S
C1671 N200 1.109 . S
C1676 C1044 0.982 . S
C1687 N233 1.127 1_655 S
C1692 C417 1.027 . S
C1703 N266 1.158 . S
C1708 C648 1.072 . S
C1719 N299 1.122 1_455 S
C1724 C21 1.038 . S
C1735 C582 1.065 . S
C1740 N332 1.156 . S
C1751 N365 1.069 . S
C1756 C87 0.916 . S
C1767 C714 1.013 . S
C1772 N398 1.127 . S
C1783 N431 1.086 . S
C1788 C219 0.963 . S
C1799 N464 1.042 . S
C1804 C780 0.879 . S
C1815 C153 0.986 . S
C1820 N497 1.088 1_455 S
C1831 N530 1.130 . S
C1836 C384 1.036 . S
C1847 C813 1.000 . S
C1852 N563 1.108 . S
C1863 C318 1.063 . S
C1868 N596 1.155 . S
C1879 N629 1.091 1_455 S
C1884 C879 0.966 . S
C1895 N662 1.056 . S
C1900 C450 0.909 . S
C1911 C1011 0.881 . S
C1916 N695 1.035 1_455 S
C1927 N728 1.081 . S
C1932 C516 0.935 . S
C1943 C945 0.970 . S
C1948 N761 1.090 . S
C1959 C120 0.956 . S
C1964 N794 1.082 . S
C1975 C549 0.962 . S
C1980 N827 1.085 . S
C1991 C54 1.039 . S
C1996 N860 1.133 . S
C2007 C615 1.002 . S
C2012 N893 1.112 1_655 S
C2023 N926 1.144 . S
C2028 C186 1.055 . S
C2039 C747 0.978 . S
C2044 N959 1.098 1_655 S
C2055 C252 1.066 . S
C2060 N992 1.156 . S
C2071 C681 0.979 . S
C2076 N1025 1.095 . S
C2087 C18 1.450 . S
C2092 C810 1.450 . S
C2103 C51 1.389 . S
C2108 C315 1.389 . S
C2119 C876 1.452 . S
C2124 C84 1.452 . S
C2135 C381 1.448 . S
C2140 C117 1.448 . S
C2151 C942 1.419 . S
C2156 C150 1.419 . S
C2167 C447 1.395 . S
C2172 C183 1.395 . S
C2183 C1008 1.419 . S
C2188 C216 1.419 . S
C2199 C513 1.444 . S
C2204 C249 1.444 . S
C2215 C282 1.441 . S
C2220 C546 1.441 . S
C2231 C612 1.399 . S
C2236 C348 1.399 . S
C2247 C414 1.446 . S
C2252 C678 1.446 . S
C2263 C480 1.450 . S
C2268 C744 1.450 . S
C2279 C843 1.425 . S
C2284 C579 1.425 . S
C2295 C645 1.397 . S
C2300 C909 1.397 . S
C2311 C975 1.391 . S
C2316 C711 1.391 . S
C2327 C1041 1.449 . S
C2332 C777 1.449 . S
