# Generated by pormake.
# Topology smu, (6)-cn, num edge types: 1
# Building blocks:
#     Node 0, Type 0, BuildingBlock: VOLQOD_clean_sbu_1, # of connection points: 6
#     Node 1, Type 0, BuildingBlock: VOLQOD_clean_sbu_1, # of connection points: 6
#     Node 2, Type 0, BuildingBlock: VOLQOD_clean_sbu_1, # of connection points: 6
#     Node 3, Type 0, BuildingBlock: VOLQOD_clean_sbu_1, # of connection points: 6
#     Node 4, Type 0, BuildingBlock: VOLQOD_clean_sbu_1, # of connection points: 6
#     Node 5, Type 0, BuildingBlock: VOLQOD_clean_sbu_1, # of connection points: 6
#     Edge 6, Type (0, 0), BuildingBlock: UVAHIK_clean_linker_0, # of connection points: 2
#     Edge 7, Type (0, 0), BuildingBlock: UVAHIK_clean_linker_0, # of connection points: 2
#     Edge 8, Type (0, 0), BuildingBlock: UVAHIK_clean_linker_0, # of connection points: 2
#     Edge 9, Type (0, 0), BuildingBlock: UVAHIK_clean_linker_0, # of connection points: 2
#     Edge 10, Type (0, 0), BuildingBlock: UVAHIK_clean_linker_0, # of connection points: 2
#     Edge 11, Type (0, 0), BuildingBlock: UVAHIK_clean_linker_0, # of connection points: 2
#     Edge 12, Type (0, 0), BuildingBlock: UVAHIK_clean_linker_0, # of connection points: 2
#     Edge 13, Type (0, 0), BuildingBlock: UVAHIK_clean_linker_0, # of connection points: 2
#     Edge 14, Type (0, 0), BuildingBlock: UVAHIK_clean_linker_0, # of connection points: 2
#     Edge 15, Type (0, 0), BuildingBlock: UVAHIK_clean_linker_0, # of connection points: 2
#     Edge 16, Type (0, 0), BuildingBlock: UVAHIK_clean_linker_0, # of connection points: 2
#     Edge 17, Type (0, 0), BuildingBlock: UVAHIK_clean_linker_0, # of connection points: 2
#     Edge 18, Type (0, 0), BuildingBlock: UVAHIK_clean_linker_0, # of connection points: 2
#     Edge 19, Type (0, 0), BuildingBlock: UVAHIK_clean_linker_0, # of connection points: 2
#     Edge 20, Type (0, 0), BuildingBlock: UVAHIK_clean_linker_0, # of connection points: 2
#     Edge 21, Type (0, 0), BuildingBlock: UVAHIK_clean_linker_0, # of connection points: 2
#     Edge 22, Type (0, 0), BuildingBlock: UVAHIK_clean_linker_0, # of connection points: 2
#     Edge 23, Type (0, 0), BuildingBlock: UVAHIK_clean_linker_0, # of connection points: 2
# Relax obj value: 0.300
# Max RMSD: 0.244
# Mean RMSD: 0.244
data_MOF--net-smu--node1-VOLQOD_clean_sbu_1--edge1-UVAHIK_clean_linker_0
_symmetry_space_group_name_H-M    P1
_symmetry_Int_Tables_number       1
_symmetry_cell_setting            triclinic
loop_
_symmetry_equiv_pos_as_xyz
'x, y, z'
_cell_length_a     38.777822
_cell_length_b     38.756779
_cell_length_c     41.924312
_cell_angle_alpha  90.07051
_cell_angle_beta   89.93806
_cell_angle_gamma 119.84907
loop_
_atom_site_label
_atom_site_type_symbol
_atom_site_fract_x
_atom_site_fract_y
_atom_site_fract_z
_atom_type_partial_charge
O0 O 0.37699 0.15049 0.22104 0.0
Zn1 Zn 0.32941 0.09745 0.21265 0.0
O2 O 0.32177 0.06043 0.24674 0.0
Zn3 Zn 0.32198 0.01405 0.22886 0.0
Zn4 Zn 0.36357 0.0868 0.27787 0.0
Zn5 Zn 0.27241 0.04523 0.26842 0.0
O6 O 0.27004 0.96354 0.23809 0.0
O7 O 0.23404 0.98883 0.25816 0.0
O8 O 0.33318 0.07712 0.1693 0.0
O9 O 0.32496 0.0177 0.18115 0.0
O10 O 0.37143 0.01273 0.24285 0.0
O11 O 0.40215 0.06773 0.2724 0.0
O12 O 0.34306 0.07285 0.32282 0.0
O13 O 0.2855 0.1105 0.21238 0.0
O14 O 0.27814 0.04652 0.31599 0.0
O15 O 0.25058 0.08058 0.25579 0.0
C16 C 0.39569 0.16683 0.24662 0.0
C17 C 0.23714 0.95947 0.24812 0.0
C18 C 0.40124 0.03768 0.25922 0.0
C19 C 0.32992 0.04408 0.16077 0.0
C20 C 0.30801 0.05722 0.33413 0.0
C21 C 0.25807 0.10399 0.23222 0.0
O22 O 0.39156 0.14641 0.27163 0.0
O23 O 0.76176 0.61291 0.21682 0.0
Zn24 Zn 0.75239 0.65822 0.2082 0.0
O25 O 0.72431 0.66571 0.24362 0.0
Zn26 Zn 0.67481 0.66129 0.22811 0.0
Zn27 Zn 0.71401 0.62637 0.27606 0.0
Zn28 Zn 0.75779 0.71693 0.26294 0.0
O29 O 0.67348 0.71226 0.23646 0.0
O30 O 0.73547 0.75205 0.25352 0.0
O31 O 0.72426 0.65053 0.1662 0.0
O32 O 0.67157 0.65512 0.18049 0.0
O33 O 0.62726 0.61128 0.2456 0.0
O34 O 0.6569 0.58527 0.2745 0.0
O35 O 0.72392 0.64954 0.3203 0.0
O36 O 0.8081 0.70405 0.20472 0.0
O37 O 0.75846 0.71425 0.31067 0.0
O38 O 0.81385 0.74083 0.24714 0.0
C39 C 0.76233 0.59594 0.24263 0.0
C40 C 0.70154 0.74639 0.24499 0.0
C41 C 0.62572 0.58338 0.26281 0.0
C42 C 0.69245 0.65076 0.15914 0.0
C43 C 0.74269 0.68533 0.33013 0.0
C44 C 0.82912 0.73312 0.2232 0.0
O45 O 0.74731 0.60042 0.2683 0.0
O46 O 0.83133 0.22393 0.20977 0.0
Zn47 Zn 0.8854 0.23036 0.20372 0.0
O48 O 0.92004 0.25853 0.23946 0.0
Zn49 Zn 0.96711 0.30629 0.22406 0.0
Zn50 Zn 0.89111 0.272 0.26971 0.0
Zn51 Zn 0.93458 0.22387 0.26127 0.0
O52 O 0.01739 0.30538 0.23589 0.0
O53 O -0.00803 0.24341 0.25419 0.0
O54 O 0.90895 0.25645 0.16167 0.0
O55 O 0.96708 0.30757 0.17619 0.0
O56 O 0.96648 0.35595 0.23894 0.0
O57 O 0.90992 0.32969 0.26659 0.0
O58 O 0.90112 0.26255 0.31493 0.0
O59 O 0.87307 0.17358 0.20241 0.0
O60 O 0.9291 0.22524 0.3087 0.0
O61 O 0.90123 0.16745 0.24646 0.0
C62 C 0.81347 0.22509 0.23491 0.0
C63 C 0.02155 0.27663 0.24601 0.0
C64 C 0.94047 0.35963 0.25496 0.0
C65 C 0.94229 0.28666 0.15467 0.0
C66 C 0.9162 0.2428 0.32662 0.0
C67 C 0.87909 0.15221 0.22213 0.0
O68 O 0.83243 0.24058 0.26063 0.0
O69 O 0.15136 0.39088 0.75952 0.0
Zn70 Zn 0.10084 0.34095 0.76975 0.0
O71 O 0.06136 0.32991 0.73673 0.0
Zn72 Zn 0.01351 0.3258 0.7556 0.0
Zn73 Zn 0.08292 0.37135 0.70511 0.0
Zn74 Zn 0.04962 0.28162 0.71499 0.0
O75 O 0.9658 0.27065 0.74903 0.0
O76 O -0.00412 0.23978 0.72784 0.0
O77 O 0.08107 0.34368 0.81381 0.0
O78 O 0.01991 0.33115 0.80289 0.0
O79 O 0.00592 0.37182 0.74162 0.0
O80 O 0.05989 0.40642 0.71161 0.0
O81 O 0.06796 0.34986 0.6606 0.0
O82 O 0.1183 0.29992 0.76943 0.0
O83 O 0.04718 0.28585 0.66756 0.0
O84 O 0.08917 0.2646 0.72599 0.0
C85 C 0.16496 0.40936 0.73332 0.0
C86 C 0.96517 0.23911 0.73934 0.0
C87 C 0.02878 0.40256 0.72517 0.0
C88 C 0.04737 0.33834 0.82285 0.0
C89 C 0.0544 0.31495 0.64943 0.0
C90 C 0.11337 0.27338 0.74913 0.0
O91 O 0.14246 0.40301 0.70928 0.0
O92 O 0.2141 0.82983 0.77379 0.0
Zn93 Zn 0.22106 0.88412 0.78008 0.0
O94 O 0.24915 0.91868 0.74435 0.0
Zn95 Zn 0.29718 0.9653 0.75959 0.0
Zn96 Zn 0.26182 0.88931 0.71398 0.0
Zn97 Zn 0.2148 0.93376 0.72278 0.0
O98 O 0.29652 0.0159 0.74817 0.0
O99 O 0.23409 0.99101 0.73112 0.0
O100 O 0.24729 0.90733 0.82222 0.0
O101 O 0.29878 0.96503 0.80741 0.0
O102 O 0.34631 0.96371 0.74452 0.0
O103 O 0.31909 0.90634 0.71786 0.0
O104 O 0.25411 0.9013 0.66879 0.0
O105 O 0.16445 0.87202 0.78134 0.0
O106 O 0.21751 0.93006 0.67519 0.0
O107 O 0.15812 0.89936 0.73684 0.0
C108 C 0.21352 0.81165 0.7483 0.0
C109 C 0.26761 0.0204 0.73902 0.0
C110 C 0.34937 0.93686 0.72918 0.0
C111 C 0.27788 0.94047 0.82907 0.0
C112 C 0.23528 0.91745 0.6572 0.0
C113 C 0.14296 0.87739 0.76128 0.0
O114 O 0.22842 0.83047 0.7224 0.0
O115 O 0.61401 0.76935 0.76865 0.0
Zn116 Zn 0.65562 0.7548 0.77828 0.0
O117 O 0.66304 0.72673 0.74284 0.0
Zn118 Zn 0.65589 0.67578 0.75827 0.0
Zn119 Zn 0.6249 0.71882 0.70993 0.0
Zn120 Zn 0.71535 0.75897 0.72426 0.0
O121 O 0.7053 0.67152 0.75028 0.0
O122 O 0.74681 0.73209 0.73145 0.0
O123 O 0.64327 0.72437 0.81939 0.0
O124 O 0.64827 0.67163 0.80588 0.0
O125 O 0.60592 0.62988 0.73918 0.0
O126 O 0.58377 0.66183 0.70872 0.0
O127 O 0.64945 0.73139 0.66649 0.0
O128 O 0.70435 0.80757 0.78484 0.0
O129 O 0.71407 0.76393 0.67645 0.0
O130 O 0.74358 0.81342 0.74414 0.0
C131 C 0.59614 0.76893 0.74311 0.0
C132 C 0.73956 0.69779 0.74044 0.0
C133 C 0.58014 0.62985 0.72027 0.0
C134 C 0.64279 0.69229 0.82677 0.0
C135 C 0.68526 0.74993 0.65681 0.0
C136 C 0.73598 0.82781 0.76875 0.0
O137 O 0.59882 0.75192 0.71796 0.0
C138 C 0.27185 0.92293 0.88713 0.0
C139 C 0.28857 0.95159 0.86285 0.0
C140 C 0.28081 0.93402 0.9191 0.0
C141 C 0.30901 0.01796 0.97211 0.0
H142 H 0.33867 0.96033 0.03122 0.0
C143 C 0.34431 0.06585 0.10367 0.0
C144 C 0.33038 0.03534 0.1265 0.0
C145 C 0.34331 0.05707 0.07122 0.0
C146 C 0.32997 0.97648 0.01513 0.0
H147 H 0.32813 0.01429 0.85305 0.0
H148 H 0.34313 0.03359 0.90891 0.0
H149 H 0.3284 0.94135 0.97502 0.0
H150 H 0.30458 0.97169 0.13323 0.0
H151 H 0.30153 0.95625 0.07685 0.0
H152 H 0.30891 0.0521 0.01208 0.0
C153 C 0.32327 0.00259 0.90312 0.0
C154 C 0.32427 0.96566 0.98296 0.0
C155 C 0.31479 0.99145 0.87117 0.0
C156 C 0.31582 -0.00405 0.11626 0.0
C157 C 0.31432 0.98712 0.08386 0.0
C158 C 0.31415 0.02844 0.00433 0.0
C159 C 0.30617 0.97403 0.92736 0.0
C160 C 0.31358 0.98621 0.96122 0.0
C161 C 0.32786 0.01751 0.06088 0.0
C162 C 0.32446 0.00768 0.02631 0.0
H163 H 0.25165 0.89197 0.88148 0.0
H164 H 0.26706 0.9115 0.93743 0.0
H165 H 0.30033 0.03398 0.95583 0.0
H166 H 0.35602 0.09655 0.11085 0.0
H167 H 0.35467 0.08133 0.05426 0.0
C168 C 0.66279 0.7266 0.6012 0.0
C169 C 0.69333 0.75158 0.62218 0.0
C170 C 0.6709 0.72424 0.56913 0.0
C171 C 0.7544 0.74369 0.51503 0.0
H172 H 0.67335 0.71701 0.4505 0.0
C173 C 0.77123 0.73084 0.37716 0.0
C174 C 0.74287 0.6938 0.3645 0.0
C175 C 0.76855 0.74047 0.40887 0.0
C176 C 0.69618 0.72446 0.46835 0.0
H177 H 0.75607 0.79521 0.62559 0.0
H178 H 0.77 0.79232 0.56917 0.0
H179 H 0.66229 0.73304 0.50441 0.0
H180 H 0.69005 0.63754 0.37528 0.0
H181 H 0.68489 0.65495 0.43045 0.0
H182 H 0.78855 0.73598 0.47819 0.0
C183 C 0.73995 0.77355 0.57775 0.0
C184 C 0.68986 0.73343 0.49928 0.0
C185 C 0.73192 0.77548 0.61005 0.0
C186 C 0.71246 0.6662 0.38439 0.0
C187 C 0.70932 0.67619 0.41583 0.0
C188 C 0.76103 0.73548 0.48384 0.0
C189 C 0.70966 0.7473 0.55699 0.0
C190 C 0.71845 0.74223 0.52326 0.0
C191 C 0.737 0.71356 0.42814 0.0
C192 C 0.73157 0.72496 0.46052 0.0
H193 H 0.63278 0.70751 0.60976 0.0
H194 H 0.64688 0.70309 0.55418 0.0
H195 H 0.77691 0.7498 0.53285 0.0
H196 H 0.79502 0.75265 0.36237 0.0
H197 H 0.79017 0.76948 0.41798 0.0
C198 C -0.00666 0.32132 0.11213 0.0
C199 C 0.95334 0.29667 0.12082 0.0
C200 C 0.00426 0.32866 0.08005 0.0
C201 C 0.96726 0.28655 -0.00019 0.0
H202 H 0.05387 0.38784 0.97074 0.0
C203 C -0.00064 0.32456 0.86727 0.0
C204 C 0.0387 0.33836 0.85721 0.0
C205 C 0.99015 0.32194 0.89961 0.0
C206 C 0.02982 0.35937 0.97866 0.0
H207 H 0.89322 0.26179 0.10276 0.0
H208 H 0.91201 0.27568 0.04684 0.0
H209 H 0.03428 0.37922 0.0269 0.0
H210 H 0.09946 0.36154 0.87331 0.0
H211 H 0.08319 0.35738 0.9302 0.0
H212 H 0.96231 0.26708 0.95142 0.0
C213 C 0.93518 0.28833 0.06474 0.0
C214 C 0.01861 0.35433 0.01078 0.0
C215 C 0.92433 0.28055 0.0968 0.0
C216 C 0.06886 0.35065 0.8803 0.0
C217 C 0.05963 0.34845 0.91279 0.0
C218 C 0.97812 0.29177 0.96773 0.0
C219 C 0.97536 0.31192 0.05593 0.0
C220 C 0.98714 0.31783 0.02174 0.0
C221 C 0.02007 0.33343 0.92266 0.0
C222 C 0.00942 0.3282 0.95686 0.0
H223 H 0.01645 0.33403 0.13008 0.0
H224 H 0.03551 0.34652 0.0742 0.0
H225 H 0.94359 0.25773 0.00746 0.0
H226 H 0.97535 0.31489 0.85019 0.0
H227 H 0.95948 0.31068 0.90664 0.0
C228 C 0.33009 0.04453 0.38668 0.0
C229 C 0.3013 0.04758 0.36847 0.0
C230 C 0.32172 0.03027 0.41793 0.0
C231 C 0.25926 0.01627 0.48716 0.0
H232 H 0.27546 0.92757 0.50676 0.0
C233 C 0.21161 0.93652 0.60833 0.0
C234 C 0.23748 0.9255 0.62258 0.0
C235 C 0.2168 0.94881 0.57652 0.0
C236 C 0.27122 0.95264 0.5019 0.0
H237 H 0.24195 0.03996 0.36926 0.0
H238 H 0.22781 0.01599 0.42427 0.0
H239 H 0.29209 0.95756 0.45387 0.0
H240 H 0.28845 0.91774 0.61441 0.0
H241 H 0.29832 0.9403 0.55943 0.0
H242 H 0.23969 0.01249 0.53533 0.0
C243 C 0.2566 0.02422 0.41412 0.0
C244 C 0.28068 0.96972 0.47157 0.0
C245 C 0.26469 0.03786 0.38267 0.0
C246 C 0.26781 0.92575 0.60407 0.0
C247 C 0.27337 0.9386 0.57242 0.0
C248 C 0.25037 -0.00039 0.51768 0.0
C249 C 0.28471 0.01946 0.43174 0.0
C250 C 0.27487 0.00171 0.46397 0.0
C251 C 0.24836 0.95094 0.55837 0.0
C252 C 0.2563 0.9676 0.52548 0.0
H253 H 0.35851 0.05163 0.37639 0.0
H254 H 0.34401 0.02721 0.43121 0.0
H255 H 0.25472 0.04108 0.48188 0.0
H256 H 0.18775 0.93633 0.62193 0.0
H257 H 0.19635 0.95714 0.56631 0.0
C258 C 0.65266 0.65524 0.8713 0.0
C259 C 0.63851 0.68026 0.86061 0.0
C260 C 0.65255 0.64722 0.90377 0.0
C261 C 0.65002 0.68947 0.98245 0.0
H262 H 0.64051 0.59106 0.01402 0.0
C263 C 0.65196 0.65851 0.11635 0.0
C264 C 0.68028 0.64778 0.12537 0.0
C265 C 0.64234 0.65848 0.08429 0.0
C266 C 0.64324 0.61866 0.00544 0.0
H267 H 0.61095 0.71456 0.87527 0.0
H268 H 0.60918 0.69927 0.93177 0.0
H269 H 0.62974 0.59741 0.95742 0.0
H270 H 0.71953 0.62708 0.1079 0.0
H271 H 0.70217 0.62654 0.05175 0.0
H272 H 0.66302 0.71041 0.0306 0.0
C273 C 0.62177 0.68699 0.91528 0.0
C274 C 0.63726 0.62244 0.97304 0.0
C275 C 0.62251 0.69556 0.88286 0.0
C276 C 0.69775 0.63568 0.1017 0.0
C277 C 0.68767 0.63512 0.06962 0.0
C278 C 0.65538 0.68544 0.01483 0.0
C279 C 0.63771 0.66354 0.92627 0.0
C280 C 0.64106 0.6581 0.96105 0.0
C281 C 0.6604 0.64719 0.06063 0.0
C282 C 0.65248 0.65021 0.02656 0.0
H283 H 0.66538 0.64316 0.85473 0.0
H284 H 0.66559 0.6295 0.91126 0.0
H285 H 0.65412 0.7177 0.97412 0.0
H286 H 0.63793 0.66798 0.13397 0.0
H287 H 0.62101 0.66764 0.07794 0.0
C288 C 0.92152 0.27282 0.38044 0.0
C289 C 0.92264 0.24355 0.36139 0.0
C290 C 0.9331 0.27725 0.41237 0.0
C291 C -0.00566 0.25478 0.4668 0.0
H292 H 0.94938 0.29282 0.53117 0.0
C293 C 0.03508 0.27104 0.60125 0.0
C294 C 0.0433 0.30725 0.61542 0.0
C295 C 0.02052 0.26202 0.5701 0.0
C296 C 0.9623 0.28239 0.51333 0.0
H297 H 0.9343 0.19432 0.36138 0.0
H298 H 0.95309 0.20107 0.41743 0.0
H299 H 0.91975 0.27611 0.47813 0.0
H300 H 0.04357 0.36278 0.60778 0.0
H301 H 0.01767 0.34669 0.55348 0.0
H302 H 0.03644 0.26047 0.50246 0.0
C303 C 0.9446 0.22152 0.40744 0.0
C304 C 0.94542 0.27289 0.48294 0.0
C305 C 0.93351 0.21742 0.37538 0.0
C306 C 0.03766 0.33469 0.59752 0.0
C307 C 0.02254 0.32539 0.56657 0.0
C308 C 0.01085 0.26377 0.49734 0.0
C309 C 0.94555 0.25216 0.42611 0.0
C310 C 0.96154 0.25944 0.45915 0.0
C311 C 0.01336 0.28878 0.55277 0.0
C312 C -0.00472 0.27814 0.52071 0.0
H313 H 0.91351 0.29358 0.37034 0.0
H314 H 0.93389 0.30149 0.42584 0.0
H315 H 0.00804 0.24522 0.44897 0.0
H316 H 0.03919 0.24933 0.61443 0.0
H317 H 0.01359 0.23357 0.55994 0.0
C318 C 0.46463 0.05307 0.28537 0.0
C319 C 0.43803 0.03549 0.25989 0.0
C320 C 0.50392 0.06173 0.28258 0.0
C321 C 0.57675 0.09354 0.21979 0.0
H322 H 0.64688 0.10046 0.28841 0.0
C323 C 0.7482 0.18062 0.20852 0.0
C324 C 0.7695 0.20289 0.23532 0.0
C325 C 0.70726 0.15472 0.21033 0.0
C326 C 0.62764 0.09891 0.26908 0.0
H327 H 0.43029 0.00951 0.21281 0.0
H328 H 0.49942 0.02489 0.20782 0.0
H329 H 0.57508 0.05806 0.29453 0.0
H330 H 0.76408 0.21675 0.28461 0.0
H331 H 0.69247 0.17228 0.28748 0.0
H332 H 0.62903 0.13558 0.19485 0.0
C333 C 0.48984 0.03216 0.22985 0.0
C334 C 0.58663 0.07439 0.27249 0.0
C335 C 0.45026 0.02307 0.2328 0.0
C336 C 0.74864 0.19997 0.26355 0.0
C337 C 0.70768 0.1741 0.26533 0.0
C338 C 0.61774 0.11811 0.21641 0.0
C339 C 0.51742 0.05328 0.25413 0.0
C340 C 0.56072 0.07229 0.24821 0.0
C341 C 0.6867 0.1506 0.23895 0.0
C342 C 0.64354 0.12188 0.24137 0.0
H343 H 0.4558 0.06268 0.3066 0.0
H344 H 0.52442 0.07814 0.30166 0.0
H345 H 0.55753 0.0931 0.20088 0.0
H346 H 0.7633 0.182 0.1864 0.0
H347 H 0.69196 0.13695 0.18962 0.0
C348 C 0.56052 0.53088 0.2412 0.0
C349 C 0.58818 0.5455 0.26625 0.0
C350 C 0.53111 0.49074 0.24051 0.0
C351 C 0.48372 0.39645 0.28664 0.0
H352 H 0.49417 0.35058 0.20747 0.0
C353 C 0.43767 0.23067 0.27629 0.0
C354 C 0.41845 0.2108 0.24809 0.0
C355 C 0.45484 0.27199 0.27861 0.0
C356 C 0.49028 0.36279 0.22955 0.0
H357 H 0.60417 0.53119 0.31189 0.0
H358 H 0.55278 0.46149 0.31085 0.0
H359 H 0.52435 0.42232 0.21226 0.0
H360 H 0.40303 0.219 0.19995 0.0
H361 H 0.4323 0.29049 0.20421 0.0
H362 H 0.45011 0.3368 0.30408 0.0
C363 C 0.5538 0.48064 0.29164 0.0
C364 C 0.50744 0.40395 0.23223 0.0
C365 C 0.58337 0.52053 0.29216 0.0
C366 C 0.41778 0.23326 0.22201 0.0
C367 C 0.43465 0.2744 0.22441 0.0
C368 C 0.46628 0.35517 0.28389 0.0
C369 C 0.52872 0.46492 0.26505 0.0
C370 C 0.50492 0.42125 0.26096 0.0
C371 C 0.45297 0.29423 0.25284 0.0
C372 C 0.46997 0.33792 0.25547 0.0
H373 H 0.5636 0.54951 0.22093 0.0
H374 H 0.51175 0.47939 0.21992 0.0
H375 H 0.48124 0.40904 0.30902 0.0
H376 H 0.43875 0.21428 0.29681 0.0
H377 H 0.46945 0.28648 0.30065 0.0
C378 C 0.92453 0.40579 0.28386 0.0
C379 C 0.9427 0.39853 0.25773 0.0
C380 C 0.91677 0.4372 0.28315 0.0
C381 C 0.88855 0.48527 0.22381 0.0
H382 H 0.88331 0.54537 0.29583 0.0
C383 C 0.80747 0.57561 0.21659 0.0
C384 C 0.78503 0.57457 0.24334 0.0
C385 C 0.83251 0.55947 0.21808 0.0
C386 C 0.88434 0.52853 0.27557 0.0
H387 H 0.97041 0.42036 0.21167 0.0
H388 H 0.95648 0.47547 0.21027 0.0
H389 H 0.92294 0.51243 0.29975 0.0
H390 H 0.77053 0.55469 0.29238 0.0
H391 H 0.81338 0.52532 0.29464 0.0
H392 H 0.8486 0.4996 0.20009 0.0
C393 C 0.94815 0.45667 0.23123 0.0
C394 C 0.90731 0.51004 0.27773 0.0
C395 C 0.95637 0.4254 0.23212 0.0
C396 C 0.78742 0.55602 0.27136 0.0
C397 C 0.81234 0.53963 0.27277 0.0
C398 C 0.86544 0.50354 0.2217 0.0
C399 C 0.92669 0.4617 0.25613 0.0
C400 C 0.90895 0.48753 0.25209 0.0
C401 C 0.83553 0.54161 0.24625 0.0
C402 C 0.86239 0.52467 0.24779 0.0
H403 H 0.91396 0.3856 0.30399 0.0
H404 H 0.90005 0.44017 0.30263 0.0
H405 H 0.88857 0.46746 0.20388 0.0
H406 H 0.80664 0.58993 0.19466 0.0
H407 H 0.85021 0.56185 0.19732 0.0
C408 C 0.01175 0.44898 0.75303 0.0
C409 C 0.02315 0.43739 0.72504 0.0
C410 C 0.01927 0.48805 0.75634 0.0
C411 C 0.05692 0.58481 0.71391 0.0
H412 H 0.12353 0.62777 0.78887 0.0
C413 C 0.18444 0.74649 0.71938 0.0
C414 C 0.19004 0.76767 0.74794 0.0
C415 C 0.15764 0.70566 0.71807 0.0
C416 C 0.10453 0.61634 0.7681 0.0
H417 H 0.04631 0.45532 0.67719 0.0
H418 H 0.05898 0.52299 0.68272 0.0
H419 H 0.08074 0.55626 0.78358 0.0
H420 H 0.17275 0.76214 0.79781 0.0
H421 H 0.12613 0.69107 0.79542 0.0
H422 H 0.08195 0.645 0.69794 0.0
C423 C 0.04462 0.50248 0.70226 0.0
C424 C 0.07975 0.57531 0.76515 0.0
C425 C 0.03753 0.46371 0.6991 0.0
C426 C 0.16933 0.7468 0.77542 0.0
C427 C 0.14252 0.70601 0.77408 0.0
C428 C 0.08169 0.62589 0.71688 0.0
C429 C 0.03779 0.51571 0.73154 0.0
C430 C 0.05659 0.55903 0.73759 0.0
C431 C 0.13587 0.68512 0.74526 0.0
C432 C 0.10664 0.64198 0.74357 0.0
H433 H 0.00067 0.4292 0.77339 0.0
H434 H 0.01319 0.49737 0.77902 0.0
H435 H 0.03912 0.5731 0.69254 0.0
H436 H 0.19991 0.7616 0.69778 0.0
H437 H 0.15385 0.69019 0.69568 0.0
C438 C 0.41584 0.95405 0.75148 0.0
C439 C 0.388 0.93843 0.72659 0.0
C440 C 0.44767 0.94666 0.75242 0.0
C441 C 0.5017 0.90649 0.70606 0.0
H442 H 0.49952 0.85454 0.78563 0.0
C443 C 0.55426 0.79178 0.71454 0.0
C444 C 0.57491 0.79178 0.74206 0.0
C445 C 0.53688 0.81583 0.71287 0.0
C446 C 0.50116 0.86955 0.76344 0.0
H447 H 0.37358 0.90651 0.68166 0.0
H448 H 0.42906 0.89403 0.6831 0.0
H449 H 0.46386 0.89116 0.78149 0.0
H450 H 0.59334 0.81702 0.78947 0.0
H451 H 0.56343 0.85907 0.78636 0.0
H452 H 0.53819 0.88397 0.68775 0.0
C453 C 0.42645 0.91169 0.70198 0.0
C454 C 0.48084 0.89071 0.76112 0.0
C455 C 0.3945 0.91861 0.70126 0.0
C456 C 0.57737 0.81599 0.76798 0.0
C457 C 0.5602 0.84014 0.76624 0.0
C458 C 0.5222 0.88547 0.70841 0.0
C459 C 0.45234 0.92411 0.72823 0.0
C460 C 0.48005 0.90853 0.73218 0.0
C461 C 0.53994 0.84052 0.73861 0.0
C462 C 0.5213 0.8659 0.73689 0.0
H463 H 0.41143 0.96937 0.77133 0.0
H464 H 0.46748 0.95689 0.77278 0.0
H465 H 0.50185 0.92024 0.68354 0.0
H466 H 0.55176 0.77347 0.69416 0.0
H467 H 0.52078 0.81482 0.69147 0.0
C468 C 0.2254 0.44953 0.69963 0.0
C469 C 0.20853 0.43384 0.72956 0.0
C470 C 0.26635 0.46669 0.69491 0.0
C471 C 0.35325 0.46466 0.72751 0.0
H472 H 0.41408 0.56469 0.68286 0.0
C473 C 0.52224 0.5669 0.73939 0.0
C474 C 0.54248 0.5931 0.71424 0.0
C475 C 0.48164 0.53962 0.73661 0.0
C476 C 0.39748 0.53621 0.6947 0.0
H477 H 0.2218 0.4259 0.77847 0.0
H478 H 0.29308 0.45622 0.77022 0.0
H479 H 0.34255 0.53567 0.688 0.0
H480 H 0.53819 0.60816 0.66523 0.0
H481 H 0.46782 0.55942 0.65985 0.0
H482 H 0.40838 0.4656 0.73473 0.0
C483 C 0.27452 0.45443 0.75027 0.0
C484 C 0.35649 0.51977 0.6978 0.0
C485 C 0.23371 0.43747 0.75503 0.0
C486 C 0.52293 0.5885 0.68508 0.0
C487 C 0.48262 0.56088 0.68212 0.0
C488 C 0.39431 0.48103 0.72429 0.0
C489 C 0.2911 0.46835 0.72001 0.0
C490 C 0.33411 0.48427 0.71477 0.0
C491 C 0.46103 0.53795 0.70849 0.0
C492 C 0.41697 0.51735 0.70832 0.0
H493 H 0.20686 0.44716 0.67949 0.0
H494 H 0.27842 0.4773 0.67134 0.0
H495 H 0.3365 0.43682 0.74022 0.0
H496 H 0.53672 0.57009 0.76216 0.0
H497 H 0.46589 0.5224 0.7574 0.0
C498 C 0.2464 0.15459 0.20455 0.0
C499 C 0.23817 0.12801 0.23008 0.0
C500 C 0.23187 0.18113 0.20474 0.0
C501 C 0.19713 0.23074 0.26023 0.0
H502 H 0.13971 0.23934 0.18787 0.0
C503 C 0.06927 0.26054 0.27142 0.0
C504 C 0.06102 0.28018 0.24712 0.0
C505 C 0.10231 0.25557 0.26935 0.0
C506 C 0.15667 0.23827 0.20798 0.0
H507 H 0.20701 0.10757 0.27521 0.0
H508 H 0.18149 0.15358 0.27533 0.0
H509 H 0.17356 0.20077 0.1829 0.0
H510 H 0.08202 0.3126 0.20273 0.0
H511 H 0.1401 0.30333 0.19874 0.0
H512 H 0.17885 0.26676 0.28574 0.0
C513 C 0.19975 0.15431 0.25547 0.0
C514 C 0.1758 0.21595 0.20517 0.0
C515 C 0.21398 0.12762 0.2552 0.0
C516 C 0.08798 0.29748 0.22181 0.0
C517 C 0.12094 0.29195 0.21945 0.0
C518 C 0.17818 0.25316 0.26299 0.0
C519 C 0.20915 0.18179 0.23056 0.0
C520 C 0.19472 0.21062 0.2317 0.0
C521 C 0.12755 0.26971 0.24268 0.0
C522 C 0.15629 0.25568 0.23733 0.0
H523 H 0.26496 0.15567 0.18482 0.0
H524 H 0.23936 0.2019 0.18518 0.0
H525 H 0.21239 0.22787 0.28081 0.0
H526 H 0.0489 0.24709 0.29123 0.0
H527 H 0.10627 0.23795 0.28748 0.0
C528 C 0.89084 0.74532 0.1942 0.0
C529 C 0.87287 0.75408 0.21978 0.0
C530 C 0.93181 0.75956 0.19414 0.0
C531 C 0.01348 0.78897 0.25009 0.0
H532 H 0.08424 0.85102 0.18145 0.0
C533 C 0.17145 0.9109 0.27002 0.0
C534 C 0.20057 0.92064 0.24651 0.0
C535 C 0.13318 0.87919 0.26553 0.0
C536 C 0.06483 0.83272 0.20046 0.0
H537 H 0.88426 0.78657 0.26437 0.0
H538 H 0.95547 0.8112 0.26416 0.0
H539 H 0.01231 0.8199 0.1742 0.0
H540 H 0.21378 0.90351 0.20091 0.0
H541 H 0.14606 0.84776 0.19274 0.0
H542 H 0.06572 0.80281 0.27684 0.0
C543 C 0.93773 0.79287 0.24444 0.0
C544 C 0.02373 0.81521 0.19636 0.0
C545 C 0.897 0.77909 0.24436 0.0
C546 C 0.19172 0.89632 0.21943 0.0
C547 C 0.15303 0.86473 0.21467 0.0
C548 C 0.05443 0.80613 0.25411 0.0
C549 C 0.95529 0.78235 0.21981 0.0
C550 C -0.00208 0.79477 0.22169 0.0
C551 C 0.1231 0.8568 0.23723 0.0
C552 C 0.08057 0.82976 0.2299 0.0
H553 H 0.87309 0.72619 0.17485 0.0
H554 H 0.94484 0.75138 0.17476 0.0
H555 H -0.006 0.77252 0.26971 0.0
H556 H 0.17768 0.92924 0.29113 0.0
H557 H 0.1108 0.87423 0.28323 0.0
C558 C 0.83033 0.09061 0.19273 0.0
C559 C 0.85526 0.10843 0.21926 0.0
C560 C 0.80314 0.04977 0.19248 0.0
C561 C 0.74697 0.96743 0.24762 0.0
H562 H 0.74326 0.89782 0.17962 0.0
C563 C 0.71344 0.81013 0.26769 0.0
C564 C 0.6965 0.78143 0.24357 0.0
C565 C 0.71863 0.84797 0.26329 0.0
C566 C 0.74293 0.91688 0.1984 0.0
H567 H 0.87234 0.09692 0.26563 0.0
H568 H 0.82505 0.02591 0.26506 0.0
H569 H 0.7838 0.96983 0.17325 0.0
H570 H 0.66894 0.76831 0.19693 0.0
H571 H 0.67852 0.83531 0.18887 0.0
H572 H 0.70748 0.91468 0.27333 0.0
C573 C 0.8262 0.04367 0.24471 0.0
C574 C 0.76639 0.95807 0.1948 0.0
C575 C 0.8536 0.08427 0.24484 0.0
C576 C 0.68183 0.79004 0.21593 0.0
C577 C 0.6876 0.82834 0.21125 0.0
C578 C 0.72334 0.92637 0.25112 0.0
C579 C 0.80013 0.02623 0.21889 0.0
C580 C 0.76998 0.98352 0.22 0.0
C581 C 0.70748 0.85807 0.23443 0.0
C582 C 0.7226 0.90062 0.22718 0.0
H583 H 0.83089 0.10838 0.17261 0.0
H584 H 0.78352 0.03687 0.1722 0.0
H585 H 0.74859 0.98659 0.26709 0.0
H586 H 0.72499 0.80403 0.28919 0.0
H587 H 0.73442 0.8702 0.28148 0.0
C588 C 0.16558 0.26337 0.77614 0.0
C589 C 0.13858 0.2547 0.75088 0.0
C590 C 0.19133 0.24783 0.77631 0.0
C591 C 0.23639 0.20605 0.72234 0.0
H592 H 0.23994 0.14798 0.79631 0.0
C593 C 0.2515 0.0687 0.71452 0.0
C594 C 0.27173 0.0602 0.73815 0.0
C595 C 0.24891 0.10317 0.71624 0.0
C596 C 0.24025 0.16502 0.77574 0.0
H597 H 0.11717 0.22244 0.70625 0.0
H598 H 0.16171 0.19534 0.70672 0.0
H599 H 0.20694 0.18754 0.80012 0.0
H600 H 0.30695 0.08176 0.78124 0.0
H601 H 0.30163 0.14229 0.78471 0.0
H602 H 0.2678 0.18188 0.69749 0.0
C603 C 0.16341 0.21459 0.72614 0.0
C604 C 0.2212 0.18752 0.77789 0.0
C605 C 0.13755 0.22979 0.72607 0.0
C606 C 0.29135 0.08789 0.76266 0.0
C607 C 0.28814 0.12227 0.76473 0.0
C608 C 0.25542 0.18366 0.7202 0.0
C609 C 0.1908 0.22373 0.75106 0.0
C610 C 0.21756 0.20673 0.75079 0.0
C611 C 0.26603 0.12966 0.74191 0.0
C612 C 0.25594 0.16148 0.74647 0.0
H613 H 0.16718 0.28252 0.7956 0.0
H614 H 0.21208 0.2552 0.79586 0.0
H615 H 0.23478 0.22137 0.70128 0.0
H616 H 0.23625 0.04781 0.69534 0.0
H617 H 0.23125 0.10773 0.69852 0.0
C618 C 0.07505 0.84937 0.73785 0.0
C619 C 0.09924 0.85275 0.76395 0.0
C620 C 0.03467 0.82113 0.73803 0.0
C621 C 0.94958 0.76186 0.78875 0.0
H622 H 0.9063 0.70012 0.71139 0.0
C623 C 0.78213 0.67669 0.76933 0.0
C624 C 0.77326 0.69057 0.74136 0.0
C625 C 0.82021 0.68184 0.77372 0.0
C626 C 0.91797 0.71678 0.7333 0.0
H627 H 0.09949 0.8305 0.81143 0.0
H628 H 0.02845 0.78172 0.8119 0.0
H629 H 0.97812 0.74256 0.71707 0.0
H630 H 0.79487 0.71645 0.69481 0.0
H631 H 0.86064 0.72487 0.70205 0.0
H632 H 0.88943 0.73824 0.80416 0.0
C633 C 0.0411 0.80062 0.7912 0.0
C634 C 0.95898 0.74118 0.73646 0.0
C635 C 0.08168 0.82863 0.79091 0.0
C636 C 0.80119 0.70556 0.71658 0.0
C637 C 0.83884 0.71018 0.72074 0.0
C638 C 0.90846 0.73765 0.78549 0.0
C639 C 0.01752 0.79595 0.7644 0.0
C640 C 0.97499 0.76519 0.76363 0.0
C641 C 0.84947 0.70039 0.74999 0.0
C642 C 0.89218 0.71626 0.7571 0.0
H643 H 0.08752 0.8674 0.71669 0.0
H644 H 0.01688 0.81871 0.71734 0.0
H645 H 0.96124 0.78002 0.80997 0.0
H646 H 0.761 0.66527 0.78882 0.0
H647 H 0.82753 0.6737 0.79638 0.0
C648 C 0.90707 0.19126 0.77227 0.0
C649 C 0.92996 0.19978 0.74431 0.0
C650 C 0.88167 0.15164 0.78125 0.0
C651 C 0.88335 0.06121 0.77738 0.0
H652 H 0.76875 -0.00094 0.78561 0.0
C653 C 0.79682 0.89362 0.75923 0.0
C654 C 0.7619 0.87026 0.77671 0.0
C655 C 0.81792 0.93478 0.76321 0.0
C656 C 0.80088 0.01624 0.7842 0.0
H657 H 0.94115 0.17438 0.70215 0.0
H658 H 0.89686 0.10565 0.71776 0.0
H659 H 0.80067 0.07092 0.77612 0.0
H660 H 0.72312 0.87155 0.8136 0.0
H661 H 0.76022 0.94356 0.8205 0.0
H662 H 0.88393 0.00692 0.78443 0.0
C663 C 0.89899 0.12931 0.73291 0.0
C664 C 0.81896 0.0572 0.77867 0.0
C665 C 0.92413 0.16855 0.72398 0.0
C666 C 0.74983 0.88871 0.79961 0.0
C667 C 0.77088 0.92996 0.80348 0.0
C668 C 0.86543 0.02053 0.78309 0.0
C669 C 0.87913 0.12062 0.76226 0.0
C670 C 0.86014 0.0795 0.77405 0.0
C671 C 0.80456 0.95345 0.78475 0.0
C672 C 0.8239 -0.00263 0.78528 0.0
H673 H 0.91128 0.2149 0.7884 0.0
H674 H 0.86635 0.14531 0.80396 0.0
H675 H 0.91532 0.07819 0.77424 0.0
H676 H 0.80699 0.88037 0.74148 0.0
H677 H 0.84357 0.95213 0.74816 0.0
loop_
_geom_bond_atom_site_label_1
_geom_bond_atom_site_label_2
_geom_bond_distance
_geom_bond_site_symmetry_2
_ccdc_geom_bond_type
O0 Zn1 1.953 . S
O0 C16 1.225 . S
Zn1 O0 1.953 . S
Zn1 O2 1.949 . S
Zn1 O8 1.919 . S
Zn1 O13 1.924 . S
O2 Zn1 1.949 . S
O2 Zn3 1.923 . S
O2 Zn4 1.950 . S
O2 Zn5 1.945 . S
Zn3 O2 1.923 . S
Zn3 O6 1.933 . S
Zn3 O9 1.941 . S
Zn3 O10 1.965 . S
Zn4 O2 1.950 . S
Zn4 O11 1.938 . S
Zn4 O12 1.906 . S
Zn4 O22 1.953 . S
Zn5 O2 1.945 . S
Zn5 O7 1.932 . S
Zn5 O14 1.977 . S
Zn5 O15 1.910 . S
O6 Zn3 1.933 . S
O6 C17 1.226 1_545 S
O7 Zn5 1.932 . S
O7 C17 1.307 1_545 S
O8 Zn1 1.919 . S
O8 C19 1.253 . S
O9 Zn3 1.941 . S
O9 C19 1.283 . S
O10 Zn3 1.965 . S
O10 C18 1.303 . S
O11 Zn4 1.938 . S
O11 C18 1.247 . S
O12 Zn4 1.906 . S
O12 C20 1.304 . S
O13 Zn1 1.924 . S
O13 C21 1.311 . S
O14 Zn5 1.977 . S
O14 C20 1.272 . S
O15 Zn5 1.910 . S
O15 C21 1.231 . S
C16 O0 1.225 . S
C16 O22 1.298 . S
C17 O6 1.226 1_565 S
C17 O7 1.307 1_565 S
C18 O10 1.303 . S
C18 O11 1.247 . S
C19 O8 1.253 . S
C19 O9 1.283 . S
C20 O12 1.304 . S
C20 O14 1.272 . S
C21 O13 1.311 . S
C21 O15 1.231 . S
O22 Zn4 1.953 . S
O22 C16 1.298 . S
O23 Zn24 1.953 . S
O23 C39 1.225 . S
Zn24 O23 1.953 . S
Zn24 O25 1.949 . S
Zn24 O31 1.919 . S
Zn24 O36 1.924 . S
O25 Zn24 1.949 . S
O25 Zn26 1.923 . S
O25 Zn27 1.950 . S
O25 Zn28 1.945 . S
Zn26 O25 1.923 . S
Zn26 O29 1.933 . S
Zn26 O32 1.941 . S
Zn26 O33 1.965 . S
Zn27 O25 1.950 . S
Zn27 O34 1.938 . S
Zn27 O35 1.906 . S
Zn27 O45 1.953 . S
Zn28 O25 1.945 . S
Zn28 O30 1.932 . S
Zn28 O37 1.977 . S
Zn28 O38 1.910 . S
O29 Zn26 1.933 . S
O29 C40 1.226 . S
O30 Zn28 1.932 . S
O30 C40 1.307 . S
O31 Zn24 1.919 . S
O31 C42 1.253 . S
O32 Zn26 1.941 . S
O32 C42 1.283 . S
O33 Zn26 1.965 . S
O33 C41 1.303 . S
O34 Zn27 1.938 . S
O34 C41 1.247 . S
O35 Zn27 1.906 . S
O35 C43 1.304 . S
O36 Zn24 1.924 . S
O36 C44 1.311 . S
O37 Zn28 1.977 . S
O37 C43 1.272 . S
O38 Zn28 1.910 . S
O38 C44 1.231 . S
C39 O23 1.225 . S
C39 O45 1.298 . S
C40 O29 1.226 . S
C40 O30 1.307 . S
C41 O33 1.303 . S
C41 O34 1.247 . S
C42 O31 1.253 . S
C42 O32 1.283 . S
C43 O35 1.304 . S
C43 O37 1.272 . S
C44 O36 1.311 . S
C44 O38 1.231 . S
O45 Zn27 1.953 . S
O45 C39 1.298 . S
O46 Zn47 1.953 . S
O46 C62 1.225 . S
Zn47 O46 1.953 . S
Zn47 O48 1.949 . S
Zn47 O54 1.919 . S
Zn47 O59 1.924 . S
O48 Zn47 1.949 . S
O48 Zn49 1.923 . S
O48 Zn50 1.950 . S
O48 Zn51 1.945 . S
Zn49 O48 1.923 . S
Zn49 O52 1.933 . S
Zn49 O55 1.941 . S
Zn49 O56 1.965 . S
Zn50 O48 1.950 . S
Zn50 O57 1.938 . S
Zn50 O58 1.906 . S
Zn50 O68 1.953 . S
Zn51 O48 1.945 . S
Zn51 O53 1.932 . S
Zn51 O60 1.977 . S
Zn51 O61 1.910 . S
O52 Zn49 1.933 . S
O52 C63 1.226 1_655 S
O53 Zn51 1.932 . S
O53 C63 1.307 1_655 S
O54 Zn47 1.919 . S
O54 C65 1.253 . S
O55 Zn49 1.941 . S
O55 C65 1.283 . S
O56 Zn49 1.965 . S
O56 C64 1.303 . S
O57 Zn50 1.938 . S
O57 C64 1.247 . S
O58 Zn50 1.906 . S
O58 C66 1.304 . S
O59 Zn47 1.924 . S
O59 C67 1.311 . S
O60 Zn51 1.977 . S
O60 C66 1.272 . S
O61 Zn51 1.910 . S
O61 C67 1.231 . S
C62 O46 1.225 . S
C62 O68 1.298 . S
C63 O52 1.226 1_455 S
C63 O53 1.307 1_455 S
C64 O56 1.303 . S
C64 O57 1.247 . S
C65 O54 1.253 . S
C65 O55 1.283 . S
C66 O58 1.304 . S
C66 O60 1.272 . S
C67 O59 1.311 . S
C67 O61 1.231 . S
O68 Zn50 1.953 . S
O68 C62 1.298 . S
O69 Zn70 1.953 . S
O69 C85 1.225 . S
Zn70 O69 1.953 . S
Zn70 O71 1.949 . S
Zn70 O77 1.919 . S
Zn70 O82 1.924 . S
O71 Zn70 1.949 . S
O71 Zn72 1.923 . S
O71 Zn73 1.950 . S
O71 Zn74 1.945 . S
Zn72 O71 1.923 . S
Zn72 O75 1.933 . S
Zn72 O78 1.941 . S
Zn72 O79 1.965 . S
Zn73 O71 1.950 . S
Zn73 O80 1.938 . S
Zn73 O81 1.906 . S
Zn73 O91 1.953 . S
Zn74 O71 1.945 . S
Zn74 O76 1.932 . S
Zn74 O83 1.977 . S
Zn74 O84 1.910 . S
O75 Zn72 1.933 . S
O75 C86 1.226 1_455 S
O76 Zn74 1.932 . S
O76 C86 1.307 1_455 S
O77 Zn70 1.919 . S
O77 C88 1.253 . S
O78 Zn72 1.941 . S
O78 C88 1.283 . S
O79 Zn72 1.965 . S
O79 C87 1.303 . S
O80 Zn73 1.938 . S
O80 C87 1.247 . S
O81 Zn73 1.906 . S
O81 C89 1.304 . S
O82 Zn70 1.924 . S
O82 C90 1.311 . S
O83 Zn74 1.977 . S
O83 C89 1.272 . S
O84 Zn74 1.910 . S
O84 C90 1.231 . S
C85 O69 1.225 . S
C85 O91 1.298 . S
C86 O75 1.226 1_655 S
C86 O76 1.307 1_655 S
C87 O79 1.303 . S
C87 O80 1.247 . S
C88 O77 1.253 . S
C88 O78 1.283 . S
C89 O81 1.304 . S
C89 O83 1.272 . S
C90 O82 1.311 . S
C90 O84 1.231 . S
O91 Zn73 1.953 . S
O91 C85 1.298 . S
O92 Zn93 1.953 . S
O92 C108 1.225 . S
Zn93 O92 1.953 . S
Zn93 O94 1.949 . S
Zn93 O100 1.919 . S
Zn93 O105 1.924 . S
O94 Zn93 1.949 . S
O94 Zn95 1.923 . S
O94 Zn96 1.950 . S
O94 Zn97 1.945 . S
Zn95 O94 1.923 . S
Zn95 O98 1.933 . S
Zn95 O101 1.941 . S
Zn95 O102 1.965 . S
Zn96 O94 1.950 . S
Zn96 O103 1.938 . S
Zn96 O104 1.906 . S
Zn96 O114 1.953 . S
Zn97 O94 1.945 . S
Zn97 O99 1.932 . S
Zn97 O106 1.977 . S
Zn97 O107 1.910 . S
O98 Zn95 1.933 . S
O98 C109 1.226 1_565 S
O99 Zn97 1.932 . S
O99 C109 1.307 1_565 S
O100 Zn93 1.919 . S
O100 C111 1.253 . S
O101 Zn95 1.941 . S
O101 C111 1.283 . S
O102 Zn95 1.965 . S
O102 C110 1.303 . S
O103 Zn96 1.938 . S
O103 C110 1.247 . S
O104 Zn96 1.906 . S
O104 C112 1.304 . S
O105 Zn93 1.924 . S
O105 C113 1.311 . S
O106 Zn97 1.977 . S
O106 C112 1.272 . S
O107 Zn97 1.910 . S
O107 C113 1.231 . S
C108 O92 1.225 . S
C108 O114 1.298 . S
C109 O98 1.226 1_545 S
C109 O99 1.307 1_545 S
C110 O102 1.303 . S
C110 O103 1.247 . S
C111 O100 1.253 . S
C111 O101 1.283 . S
C112 O104 1.304 . S
C112 O106 1.272 . S
C113 O105 1.311 . S
C113 O107 1.231 . S
O114 Zn96 1.953 . S
O114 C108 1.298 . S
O115 Zn116 1.953 . S
O115 C131 1.225 . S
Zn116 O115 1.953 . S
Zn116 O117 1.949 . S
Zn116 O123 1.919 . S
Zn116 O128 1.924 . S
O117 Zn116 1.949 . S
O117 Zn118 1.923 . S
O117 Zn119 1.950 . S
O117 Zn120 1.945 . S
Zn118 O117 1.923 . S
Zn118 O121 1.933 . S
Zn118 O124 1.941 . S
Zn118 O125 1.965 . S
Zn119 O117 1.950 . S
Zn119 O126 1.938 . S
Zn119 O127 1.906 . S
Zn119 O137 1.953 . S
Zn120 O117 1.945 . S
Zn120 O122 1.932 . S
Zn120 O129 1.977 . S
Zn120 O130 1.910 . S
O121 Zn118 1.933 . S
O121 C132 1.226 . S
O122 Zn120 1.932 . S
O122 C132 1.307 . S
O123 Zn116 1.919 . S
O123 C134 1.253 . S
O124 Zn118 1.941 . S
O124 C134 1.283 . S
O125 Zn118 1.965 . S
O125 C133 1.303 . S
O126 Zn119 1.938 . S
O126 C133 1.247 . S
O127 Zn119 1.906 . S
O127 C135 1.304 . S
O128 Zn116 1.924 . S
O128 C136 1.311 . S
O129 Zn120 1.977 . S
O129 C135 1.272 . S
O130 Zn120 1.910 . S
O130 C136 1.231 . S
C131 O115 1.225 . S
C131 O137 1.298 . S
C132 O121 1.226 . S
C132 O122 1.307 . S
C133 O125 1.303 . S
C133 O126 1.247 . S
C134 O123 1.253 . S
C134 O124 1.283 . S
C135 O127 1.304 . S
C135 O129 1.272 . S
C136 O128 1.311 . S
C136 O130 1.231 . S
O137 Zn119 1.953 . S
O137 C131 1.298 . S
C138 C139 1.349 . S
C138 C140 1.327 . S
C138 H163 0.950 . S
C139 C138 1.349 . S
C139 C155 1.349 . S
C140 C138 1.327 . S
C140 C159 1.429 . S
C140 H164 0.950 . S
C141 C158 1.574 1_556 S
C141 C160 1.368 1_545 S
C141 H165 0.949 . S
H142 C146 0.949 . S
C143 C144 1.349 . S
C143 C145 1.327 . S
C143 H166 0.950 . S
C144 C143 1.349 . S
C144 C156 1.349 . S
C145 C143 1.327 . S
C145 C161 1.429 . S
C145 H167 0.950 . S
C146 H142 0.949 . S
C146 C154 1.574 1_554 S
C146 C162 1.368 1_565 S
H147 C155 0.950 . S
H148 C153 0.950 1_545 S
H149 C154 0.949 . S
H150 C156 0.950 . S
H151 C157 0.950 1_565 S
H152 C158 0.949 . S
C153 H148 0.950 1_565 S
C153 C155 1.327 . S
C153 C159 1.429 . S
C154 C146 1.574 1_556 S
C154 H149 0.949 . S
C154 C160 1.368 . S
C155 C139 1.349 . S
C155 H147 0.950 . S
C155 C153 1.327 . S
C156 C144 1.349 . S
C156 H150 0.950 . S
C156 C157 1.327 . S
C157 H151 0.950 1_545 S
C157 C156 1.327 . S
C157 C161 1.429 . S
C158 C141 1.574 1_554 S
C158 H152 0.949 . S
C158 C162 1.368 . S
C159 C140 1.429 . S
C159 C153 1.429 . S
C159 C160 1.523 . S
C160 C141 1.368 1_565 S
C160 C154 1.368 . S
C160 C159 1.523 . S
C161 C145 1.429 . S
C161 C157 1.429 . S
C161 C162 1.523 . S
C162 C146 1.368 1_545 S
C162 C158 1.368 . S
C162 C161 1.523 . S
H163 C138 0.950 . S
H164 C140 0.950 . S
H165 C141 0.949 . S
H166 C143 0.950 . S
H167 C145 0.950 . S
C168 C169 1.349 . S
C168 C170 1.327 . S
C168 H193 0.950 . S
C169 C168 1.349 . S
C169 C185 1.349 . S
C170 C168 1.327 . S
C170 C189 1.429 . S
C170 H194 0.950 . S
C171 C188 1.574 . S
C171 C190 1.368 . S
C171 H195 0.949 . S
H172 C176 0.949 . S
C173 C174 1.349 . S
C173 C175 1.327 . S
C173 H196 0.950 . S
C174 C173 1.349 . S
C174 C186 1.349 . S
C175 C173 1.327 . S
C175 C191 1.429 . S
C175 H197 0.950 . S
C176 H172 0.949 . S
C176 C184 1.574 . S
C176 C192 1.368 . S
H177 C185 0.950 . S
H178 C183 0.950 . S
H179 C184 0.949 . S
H180 C186 0.950 . S
H181 C187 0.950 . S
H182 C188 0.949 . S
C183 H178 0.950 . S
C183 C185 1.327 . S
C183 C189 1.429 . S
C184 C176 1.574 . S
C184 H179 0.949 . S
C184 C190 1.368 . S
C185 C169 1.349 . S
C185 H177 0.950 . S
C185 C183 1.327 . S
C186 C174 1.349 . S
C186 H180 0.950 . S
C186 C187 1.327 . S
C187 H181 0.950 . S
C187 C186 1.327 . S
C187 C191 1.429 . S
C188 C171 1.574 . S
C188 H182 0.949 . S
C188 C192 1.368 . S
C189 C170 1.429 . S
C189 C183 1.429 . S
C189 C190 1.523 . S
C190 C171 1.368 . S
C190 C184 1.368 . S
C190 C189 1.523 . S
C191 C175 1.429 . S
C191 C187 1.429 . S
C191 C192 1.523 . S
C192 C176 1.368 . S
C192 C188 1.368 . S
C192 C191 1.523 . S
H193 C168 0.950 . S
H194 C170 0.950 . S
H195 C171 0.949 . S
H196 C173 0.950 . S
H197 C175 0.950 . S
C198 C199 1.349 . S
C198 C200 1.327 . S
C198 H223 0.950 . S
C199 C198 1.349 . S
C199 C215 1.349 . S
C200 C198 1.327 . S
C200 C219 1.429 . S
C200 H224 0.950 1_655 S
C201 C218 1.574 1_554 S
C201 C220 1.368 . S
C201 H225 0.949 . S
H202 C206 0.949 . S
C203 C204 1.349 . S
C203 C205 1.327 . S
C203 H226 0.950 . S
C204 C203 1.349 . S
C204 C216 1.349 . S
C205 C203 1.327 . S
C205 C221 1.429 . S
C205 H227 0.950 1_455 S
C206 H202 0.949 . S
C206 C214 1.574 1_556 S
C206 C222 1.368 . S
H207 C215 0.950 . S
H208 C213 0.950 . S
H209 C214 0.949 . S
H210 C216 0.950 . S
H211 C217 0.950 . S
H212 C218 0.949 . S
C213 H208 0.950 . S
C213 C215 1.327 . S
C213 C219 1.429 . S
C214 C206 1.574 1_554 S
C214 H209 0.949 . S
C214 C220 1.368 1_455 S
C215 C199 1.349 . S
C215 H207 0.950 . S
C215 C213 1.327 . S
C216 C204 1.349 . S
C216 H210 0.950 . S
C216 C217 1.327 . S
C217 H211 0.950 . S
C217 C216 1.327 . S
C217 C221 1.429 . S
C218 C201 1.574 1_556 S
C218 H212 0.949 . S
C218 C222 1.368 1_655 S
C219 C200 1.429 . S
C219 C213 1.429 . S
C219 C220 1.523 . S
C220 C201 1.368 . S
C220 C214 1.368 1_655 S
C220 C219 1.523 . S
C221 C205 1.429 . S
C221 C217 1.429 . S
C221 C222 1.523 . S
C222 C206 1.368 . S
C222 C218 1.368 1_455 S
C222 C221 1.523 . S
H223 C198 0.950 . S
H224 C200 0.950 1_455 S
H225 C201 0.949 . S
H226 C203 0.950 . S
H227 C205 0.950 1_655 S
C228 C229 1.349 . S
C228 C230 1.327 . S
C228 H253 0.950 . S
C229 C228 1.349 . S
C229 C245 1.349 . S
C230 C228 1.327 . S
C230 C249 1.429 . S
C230 H254 0.950 1_545 S
C231 C248 1.574 . S
C231 C250 1.368 . S
C231 H255 0.949 . S
H232 C236 0.949 . S
C233 C234 1.349 . S
C233 C235 1.327 . S
C233 H256 0.950 . S
C234 C233 1.349 . S
C234 C246 1.349 . S
C235 C233 1.327 . S
C235 C251 1.429 . S
C235 H257 0.950 1_565 S
C236 H232 0.949 . S
C236 C244 1.574 . S
C236 C252 1.368 . S
H237 C245 0.950 . S
H238 C243 0.950 . S
H239 C244 0.949 . S
H240 C246 0.950 . S
H241 C247 0.950 . S
H242 C248 0.949 . S
C243 H238 0.950 . S
C243 C245 1.327 . S
C243 C249 1.429 . S
C244 C236 1.574 . S
C244 H239 0.949 . S
C244 C250 1.368 1_565 S
C245 C229 1.349 . S
C245 H237 0.950 . S
C245 C243 1.327 . S
C246 C234 1.349 . S
C246 H240 0.950 . S
C246 C247 1.327 . S
C247 H241 0.950 . S
C247 C246 1.327 . S
C247 C251 1.429 . S
C248 C231 1.574 . S
C248 H242 0.949 . S
C248 C252 1.368 1_545 S
C249 C230 1.429 . S
C249 C243 1.429 . S
C249 C250 1.523 . S
C250 C231 1.368 . S
C250 C244 1.368 1_545 S
C250 C249 1.523 . S
C251 C235 1.429 . S
C251 C247 1.429 . S
C251 C252 1.523 . S
C252 C236 1.368 . S
C252 C248 1.368 1_565 S
C252 C251 1.523 . S
H253 C228 0.950 . S
H254 C230 0.950 1_565 S
H255 C231 0.949 . S
H256 C233 0.950 . S
H257 C235 0.950 1_545 S
C258 C259 1.349 . S
C258 C260 1.327 . S
C258 H283 0.950 . S
C259 C258 1.349 . S
C259 C275 1.349 . S
C260 C258 1.327 . S
C260 C279 1.429 . S
C260 H284 0.950 . S
C261 C278 1.574 1_556 S
C261 C280 1.368 . S
C261 H285 0.949 . S
H262 C266 0.949 . S
C263 C264 1.349 . S
C263 C265 1.327 . S
C263 H286 0.950 . S
C264 C263 1.349 . S
C264 C276 1.349 . S
C265 C263 1.327 . S
C265 C281 1.429 . S
C265 H287 0.950 . S
C266 H262 0.949 . S
C266 C274 1.574 1_554 S
C266 C282 1.368 . S
H267 C275 0.950 . S
H268 C273 0.950 . S
H269 C274 0.949 . S
H270 C276 0.950 . S
H271 C277 0.950 . S
H272 C278 0.949 . S
C273 H268 0.950 . S
C273 C275 1.327 . S
C273 C279 1.429 . S
C274 C266 1.574 1_556 S
C274 H269 0.949 . S
C274 C280 1.368 . S
C275 C259 1.349 . S
C275 H267 0.950 . S
C275 C273 1.327 . S
C276 C264 1.349 . S
C276 H270 0.950 . S
C276 C277 1.327 . S
C277 H271 0.950 . S
C277 C276 1.327 . S
C277 C281 1.429 . S
C278 C261 1.574 1_554 S
C278 H272 0.949 . S
C278 C282 1.368 . S
C279 C260 1.429 . S
C279 C273 1.429 . S
C279 C280 1.523 . S
C280 C261 1.368 . S
C280 C274 1.368 . S
C280 C279 1.523 . S
C281 C265 1.429 . S
C281 C277 1.429 . S
C281 C282 1.523 . S
C282 C266 1.368 . S
C282 C278 1.368 . S
C282 C281 1.523 . S
H283 C258 0.950 . S
H284 C260 0.950 . S
H285 C261 0.949 . S
H286 C263 0.950 . S
H287 C265 0.950 . S
C288 C289 1.349 . S
C288 C290 1.327 . S
C288 H313 0.950 . S
C289 C288 1.349 . S
C289 C305 1.349 . S
C290 C288 1.327 . S
C290 C309 1.429 . S
C290 H314 0.950 . S
C291 C308 1.574 1_655 S
C291 C310 1.368 . S
C291 H315 0.949 . S
H292 C296 0.949 . S
C293 C294 1.349 . S
C293 C295 1.327 . S
C293 H316 0.950 . S
C294 C293 1.349 . S
C294 C306 1.349 . S
C295 C293 1.327 . S
C295 C311 1.429 . S
C295 H317 0.950 . S
C296 H292 0.949 . S
C296 C304 1.574 1_455 S
C296 C312 1.368 . S
H297 C305 0.950 . S
H298 C303 0.950 . S
H299 C304 0.949 . S
H300 C306 0.950 . S
H301 C307 0.950 . S
H302 C308 0.949 . S
C303 H298 0.950 . S
C303 C305 1.327 . S
C303 C309 1.429 . S
C304 C296 1.574 1_655 S
C304 H299 0.949 . S
C304 C310 1.368 . S
C305 C289 1.349 . S
C305 H297 0.950 . S
C305 C303 1.327 . S
C306 C294 1.349 . S
C306 H300 0.950 . S
C306 C307 1.327 . S
C307 H301 0.950 . S
C307 C306 1.327 . S
C307 C311 1.429 . S
C308 C291 1.574 1_455 S
C308 H302 0.949 . S
C308 C312 1.368 . S
C309 C290 1.429 . S
C309 C303 1.429 . S
C309 C310 1.523 . S
C310 C291 1.368 . S
C310 C304 1.368 . S
C310 C309 1.523 . S
C311 C295 1.429 . S
C311 C307 1.429 . S
C311 C312 1.523 . S
C312 C296 1.368 . S
C312 C308 1.368 . S
C312 C311 1.523 . S
H313 C288 0.950 . S
H314 C290 0.950 . S
H315 C291 0.949 . S
H316 C293 0.950 . S
H317 C295 0.950 . S
C318 C319 1.349 . S
C318 C320 1.327 . S
C318 H343 0.950 . S
C319 C318 1.349 . S
C319 C335 1.349 . S
C320 C318 1.327 . S
C320 C339 1.429 . S
C320 H344 0.950 . S
C321 C338 1.574 . S
C321 C340 1.368 . S
C321 H345 0.949 . S
H322 C326 0.949 . S
C323 C324 1.349 . S
C323 C325 1.327 . S
C323 H346 0.950 . S
C324 C323 1.349 . S
C324 C336 1.349 . S
C325 C323 1.327 . S
C325 C341 1.429 . S
C325 H347 0.950 . S
C326 H322 0.949 . S
C326 C334 1.574 . S
C326 C342 1.368 . S
H327 C335 0.950 . S
H328 C333 0.950 . S
H329 C334 0.949 . S
H330 C336 0.950 . S
H331 C337 0.950 . S
H332 C338 0.949 . S
C333 H328 0.950 . S
C333 C335 1.327 . S
C333 C339 1.429 . S
C334 C326 1.574 . S
C334 H329 0.949 . S
C334 C340 1.368 . S
C335 C319 1.349 . S
C335 H327 0.950 . S
C335 C333 1.327 . S
C336 C324 1.349 . S
C336 H330 0.950 . S
C336 C337 1.327 . S
C337 H331 0.950 . S
C337 C336 1.327 . S
C337 C341 1.429 . S
C338 C321 1.574 . S
C338 H332 0.949 . S
C338 C342 1.368 . S
C339 C320 1.429 . S
C339 C333 1.429 . S
C339 C340 1.523 . S
C340 C321 1.368 . S
C340 C334 1.368 . S
C340 C339 1.523 . S
C341 C325 1.429 . S
C341 C337 1.429 . S
C341 C342 1.523 . S
C342 C326 1.368 . S
C342 C338 1.368 . S
C342 C341 1.523 . S
H343 C318 0.950 . S
H344 C320 0.950 . S
H345 C321 0.949 . S
H346 C323 0.950 . S
H347 C325 0.950 . S
C348 C349 1.349 . S
C348 C350 1.327 . S
C348 H373 0.950 . S
C349 C348 1.349 . S
C349 C365 1.349 . S
C350 C348 1.327 . S
C350 C369 1.429 . S
C350 H374 0.950 . S
C351 C368 1.574 . S
C351 C370 1.368 . S
C351 H375 0.949 . S
H352 C356 0.949 . S
C353 C354 1.349 . S
C353 C355 1.327 . S
C353 H376 0.950 . S
C354 C353 1.349 . S
C354 C366 1.349 . S
C355 C353 1.327 . S
C355 C371 1.429 . S
C355 H377 0.950 . S
C356 H352 0.949 . S
C356 C364 1.574 . S
C356 C372 1.368 . S
H357 C365 0.950 . S
H358 C363 0.950 . S
H359 C364 0.949 . S
H360 C366 0.950 . S
H361 C367 0.950 . S
H362 C368 0.949 . S
C363 H358 0.950 . S
C363 C365 1.327 . S
C363 C369 1.429 . S
C364 C356 1.574 . S
C364 H359 0.949 . S
C364 C370 1.368 . S
C365 C349 1.349 . S
C365 H357 0.950 . S
C365 C363 1.327 . S
C366 C354 1.349 . S
C366 H360 0.950 . S
C366 C367 1.327 . S
C367 H361 0.950 . S
C367 C366 1.327 . S
C367 C371 1.429 . S
C368 C351 1.574 . S
C368 H362 0.949 . S
C368 C372 1.368 . S
C369 C350 1.429 . S
C369 C363 1.429 . S
C369 C370 1.523 . S
C370 C351 1.368 . S
C370 C364 1.368 . S
C370 C369 1.523 . S
C371 C355 1.429 . S
C371 C367 1.429 . S
C371 C372 1.523 . S
C372 C356 1.368 . S
C372 C368 1.368 . S
C372 C371 1.523 . S
H373 C348 0.950 . S
H374 C350 0.950 . S
H375 C351 0.949 . S
H376 C353 0.950 . S
H377 C355 0.950 . S
C378 C379 1.349 . S
C378 C380 1.327 . S
C378 H403 0.950 . S
C379 C378 1.349 . S
C379 C395 1.349 . S
C380 C378 1.327 . S
C380 C399 1.429 . S
C380 H404 0.950 . S
C381 C398 1.574 . S
C381 C400 1.368 . S
C381 H405 0.949 . S
H382 C386 0.949 . S
C383 C384 1.349 . S
C383 C385 1.327 . S
C383 H406 0.950 . S
C384 C383 1.349 . S
C384 C396 1.349 . S
C385 C383 1.327 . S
C385 C401 1.429 . S
C385 H407 0.950 . S
C386 H382 0.949 . S
C386 C394 1.574 . S
C386 C402 1.368 . S
H387 C395 0.950 . S
H388 C393 0.950 . S
H389 C394 0.949 . S
H390 C396 0.950 . S
H391 C397 0.950 . S
H392 C398 0.949 . S
C393 H388 0.950 . S
C393 C395 1.327 . S
C393 C399 1.429 . S
C394 C386 1.574 . S
C394 H389 0.949 . S
C394 C400 1.368 . S
C395 C379 1.349 . S
C395 H387 0.950 . S
C395 C393 1.327 . S
C396 C384 1.349 . S
C396 H390 0.950 . S
C396 C397 1.327 . S
C397 H391 0.950 . S
C397 C396 1.327 . S
C397 C401 1.429 . S
C398 C381 1.574 . S
C398 H392 0.949 . S
C398 C402 1.368 . S
C399 C380 1.429 . S
C399 C393 1.429 . S
C399 C400 1.523 . S
C400 C381 1.368 . S
C400 C394 1.368 . S
C400 C399 1.523 . S
C401 C385 1.429 . S
C401 C397 1.429 . S
C401 C402 1.523 . S
C402 C386 1.368 . S
C402 C398 1.368 . S
C402 C401 1.523 . S
H403 C378 0.950 . S
H404 C380 0.950 . S
H405 C381 0.949 . S
H406 C383 0.950 . S
H407 C385 0.950 . S
C408 C409 1.349 . S
C408 C410 1.327 . S
C408 H433 0.950 . S
C409 C408 1.349 . S
C409 C425 1.349 . S
C410 C408 1.327 . S
C410 C429 1.429 . S
C410 H434 0.950 . S
C411 C428 1.574 . S
C411 C430 1.368 . S
C411 H435 0.949 . S
H412 C416 0.949 . S
C413 C414 1.349 . S
C413 C415 1.327 . S
C413 H436 0.950 . S
C414 C413 1.349 . S
C414 C426 1.349 . S
C415 C413 1.327 . S
C415 C431 1.429 . S
C415 H437 0.950 . S
C416 H412 0.949 . S
C416 C424 1.574 . S
C416 C432 1.368 . S
H417 C425 0.950 . S
H418 C423 0.950 . S
H419 C424 0.949 . S
H420 C426 0.950 . S
H421 C427 0.950 . S
H422 C428 0.949 . S
C423 H418 0.950 . S
C423 C425 1.327 . S
C423 C429 1.429 . S
C424 C416 1.574 . S
C424 H419 0.949 . S
C424 C430 1.368 . S
C425 C409 1.349 . S
C425 H417 0.950 . S
C425 C423 1.327 . S
C426 C414 1.349 . S
C426 H420 0.950 . S
C426 C427 1.327 . S
C427 H421 0.950 . S
C427 C426 1.327 . S
C427 C431 1.429 . S
C428 C411 1.574 . S
C428 H422 0.949 . S
C428 C432 1.368 . S
C429 C410 1.429 . S
C429 C423 1.429 . S
C429 C430 1.523 . S
C430 C411 1.368 . S
C430 C424 1.368 . S
C430 C429 1.523 . S
C431 C415 1.429 . S
C431 C427 1.429 . S
C431 C432 1.523 . S
C432 C416 1.368 . S
C432 C428 1.368 . S
C432 C431 1.523 . S
H433 C408 0.950 . S
H434 C410 0.950 . S
H435 C411 0.949 . S
H436 C413 0.950 . S
H437 C415 0.950 . S
C438 C439 1.349 . S
C438 C440 1.327 . S
C438 H463 0.950 . S
C439 C438 1.349 . S
C439 C455 1.349 . S
C440 C438 1.327 . S
C440 C459 1.429 . S
C440 H464 0.950 . S
C441 C458 1.574 . S
C441 C460 1.368 . S
C441 H465 0.949 . S
H442 C446 0.949 . S
C443 C444 1.349 . S
C443 C445 1.327 . S
C443 H466 0.950 . S
C444 C443 1.349 . S
C444 C456 1.349 . S
C445 C443 1.327 . S
C445 C461 1.429 . S
C445 H467 0.950 . S
C446 H442 0.949 . S
C446 C454 1.574 . S
C446 C462 1.368 . S
H447 C455 0.950 . S
H448 C453 0.950 . S
H449 C454 0.949 . S
H450 C456 0.950 . S
H451 C457 0.950 . S
H452 C458 0.949 . S
C453 H448 0.950 . S
C453 C455 1.327 . S
C453 C459 1.429 . S
C454 C446 1.574 . S
C454 H449 0.949 . S
C454 C460 1.368 . S
C455 C439 1.349 . S
C455 H447 0.950 . S
C455 C453 1.327 . S
C456 C444 1.349 . S
C456 H450 0.950 . S
C456 C457 1.327 . S
C457 H451 0.950 . S
C457 C456 1.327 . S
C457 C461 1.429 . S
C458 C441 1.574 . S
C458 H452 0.949 . S
C458 C462 1.368 . S
C459 C440 1.429 . S
C459 C453 1.429 . S
C459 C460 1.523 . S
C460 C441 1.368 . S
C460 C454 1.368 . S
C460 C459 1.523 . S
C461 C445 1.429 . S
C461 C457 1.429 . S
C461 C462 1.523 . S
C462 C446 1.368 . S
C462 C458 1.368 . S
C462 C461 1.523 . S
H463 C438 0.950 . S
H464 C440 0.950 . S
H465 C441 0.949 . S
H466 C443 0.950 . S
H467 C445 0.950 . S
C468 C469 1.349 . S
C468 C470 1.327 . S
C468 H493 0.950 . S
C469 C468 1.349 . S
C469 C485 1.349 . S
C470 C468 1.327 . S
C470 C489 1.429 . S
C470 H494 0.950 . S
C471 C488 1.574 . S
C471 C490 1.368 . S
C471 H495 0.949 . S
H472 C476 0.949 . S
C473 C474 1.349 . S
C473 C475 1.327 . S
C473 H496 0.950 . S
C474 C473 1.349 . S
C474 C486 1.349 . S
C475 C473 1.327 . S
C475 C491 1.429 . S
C475 H497 0.950 . S
C476 H472 0.949 . S
C476 C484 1.574 . S
C476 C492 1.368 . S
H477 C485 0.950 . S
H478 C483 0.950 . S
H479 C484 0.949 . S
H480 C486 0.950 . S
H481 C487 0.950 . S
H482 C488 0.949 . S
C483 H478 0.950 . S
C483 C485 1.327 . S
C483 C489 1.429 . S
C484 C476 1.574 . S
C484 H479 0.949 . S
C484 C490 1.368 . S
C485 C469 1.349 . S
C485 H477 0.950 . S
C485 C483 1.327 . S
C486 C474 1.349 . S
C486 H480 0.950 . S
C486 C487 1.327 . S
C487 H481 0.950 . S
C487 C486 1.327 . S
C487 C491 1.429 . S
C488 C471 1.574 . S
C488 H482 0.949 . S
C488 C492 1.368 . S
C489 C470 1.429 . S
C489 C483 1.429 . S
C489 C490 1.523 . S
C490 C471 1.368 . S
C490 C484 1.368 . S
C490 C489 1.523 . S
C491 C475 1.429 . S
C491 C487 1.429 . S
C491 C492 1.523 . S
C492 C476 1.368 . S
C492 C488 1.368 . S
C492 C491 1.523 . S
H493 C468 0.950 . S
H494 C470 0.950 . S
H495 C471 0.949 . S
H496 C473 0.950 . S
H497 C475 0.950 . S
C498 C499 1.349 . S
C498 C500 1.327 . S
C498 H523 0.950 . S
C499 C498 1.349 . S
C499 C515 1.349 . S
C500 C498 1.327 . S
C500 C519 1.429 . S
C500 H524 0.950 . S
C501 C518 1.574 . S
C501 C520 1.368 . S
C501 H525 0.949 . S
H502 C506 0.949 . S
C503 C504 1.349 . S
C503 C505 1.327 . S
C503 H526 0.950 . S
C504 C503 1.349 . S
C504 C516 1.349 . S
C505 C503 1.327 . S
C505 C521 1.429 . S
C505 H527 0.950 . S
C506 H502 0.949 . S
C506 C514 1.574 . S
C506 C522 1.368 . S
H507 C515 0.950 . S
H508 C513 0.950 . S
H509 C514 0.949 . S
H510 C516 0.950 . S
H511 C517 0.950 . S
H512 C518 0.949 . S
C513 H508 0.950 . S
C513 C515 1.327 . S
C513 C519 1.429 . S
C514 C506 1.574 . S
C514 H509 0.949 . S
C514 C520 1.368 . S
C515 C499 1.349 . S
C515 H507 0.950 . S
C515 C513 1.327 . S
C516 C504 1.349 . S
C516 H510 0.950 . S
C516 C517 1.327 . S
C517 H511 0.950 . S
C517 C516 1.327 . S
C517 C521 1.429 . S
C518 C501 1.574 . S
C518 H512 0.949 . S
C518 C522 1.368 . S
C519 C500 1.429 . S
C519 C513 1.429 . S
C519 C520 1.523 . S
C520 C501 1.368 . S
C520 C514 1.368 . S
C520 C519 1.523 . S
C521 C505 1.429 . S
C521 C517 1.429 . S
C521 C522 1.523 . S
C522 C506 1.368 . S
C522 C518 1.368 . S
C522 C521 1.523 . S
H523 C498 0.950 . S
H524 C500 0.950 . S
H525 C501 0.949 . S
H526 C503 0.950 . S
H527 C505 0.950 . S
C528 C529 1.349 . S
C528 C530 1.327 . S
C528 H553 0.950 . S
C529 C528 1.349 . S
C529 C545 1.349 . S
C530 C528 1.327 . S
C530 C549 1.429 . S
C530 H554 0.950 . S
C531 C548 1.574 . S
C531 C550 1.368 . S
C531 H555 0.949 . S
H532 C536 0.949 . S
C533 C534 1.349 . S
C533 C535 1.327 . S
C533 H556 0.950 . S
C534 C533 1.349 . S
C534 C546 1.349 . S
C535 C533 1.327 . S
C535 C551 1.429 . S
C535 H557 0.950 . S
C536 H532 0.949 . S
C536 C544 1.574 . S
C536 C552 1.368 . S
H537 C545 0.950 . S
H538 C543 0.950 . S
H539 C544 0.949 . S
H540 C546 0.950 . S
H541 C547 0.950 . S
H542 C548 0.949 . S
C543 H538 0.950 . S
C543 C545 1.327 . S
C543 C549 1.429 . S
C544 C536 1.574 . S
C544 H539 0.949 . S
C544 C550 1.368 . S
C545 C529 1.349 . S
C545 H537 0.950 . S
C545 C543 1.327 . S
C546 C534 1.349 . S
C546 H540 0.950 . S
C546 C547 1.327 . S
C547 H541 0.950 . S
C547 C546 1.327 . S
C547 C551 1.429 . S
C548 C531 1.574 . S
C548 H542 0.949 . S
C548 C552 1.368 . S
C549 C530 1.429 . S
C549 C543 1.429 . S
C549 C550 1.523 1_655 S
C550 C531 1.368 . S
C550 C544 1.368 . S
C550 C549 1.523 1_455 S
C551 C535 1.429 . S
C551 C547 1.429 . S
C551 C552 1.523 . S
C552 C536 1.368 . S
C552 C548 1.368 . S
C552 C551 1.523 . S
H553 C528 0.950 . S
H554 C530 0.950 . S
H555 C531 0.949 . S
H556 C533 0.950 . S
H557 C535 0.950 . S
C558 C559 1.349 . S
C558 C560 1.327 . S
C558 H583 0.950 . S
C559 C558 1.349 . S
C559 C575 1.349 . S
C560 C558 1.327 . S
C560 C579 1.429 . S
C560 H584 0.950 . S
C561 C578 1.574 . S
C561 C580 1.368 . S
C561 H585 0.949 . S
H562 C566 0.949 . S
C563 C564 1.349 . S
C563 C565 1.327 . S
C563 H586 0.950 . S
C564 C563 1.349 . S
C564 C576 1.349 . S
C565 C563 1.327 . S
C565 C581 1.429 . S
C565 H587 0.950 . S
C566 H562 0.949 . S
C566 C574 1.574 . S
C566 C582 1.368 . S
H567 C575 0.950 . S
H568 C573 0.950 . S
H569 C574 0.949 . S
H570 C576 0.950 . S
H571 C577 0.950 . S
H572 C578 0.949 . S
C573 H568 0.950 . S
C573 C575 1.327 . S
C573 C579 1.429 . S
C574 C566 1.574 . S
C574 H569 0.949 . S
C574 C580 1.368 . S
C575 C559 1.349 . S
C575 H567 0.950 . S
C575 C573 1.327 . S
C576 C564 1.349 . S
C576 H570 0.950 . S
C576 C577 1.327 . S
C577 H571 0.950 . S
C577 C576 1.327 . S
C577 C581 1.429 . S
C578 C561 1.574 . S
C578 H572 0.949 . S
C578 C582 1.368 . S
C579 C560 1.429 . S
C579 C573 1.429 . S
C579 C580 1.523 1_545 S
C580 C561 1.368 . S
C580 C574 1.368 . S
C580 C579 1.523 1_565 S
C581 C565 1.429 . S
C581 C577 1.429 . S
C581 C582 1.523 . S
C582 C566 1.368 . S
C582 C578 1.368 . S
C582 C581 1.523 . S
H583 C558 0.950 . S
H584 C560 0.950 . S
H585 C561 0.949 . S
H586 C563 0.950 . S
H587 C565 0.950 . S
C588 C589 1.349 . S
C588 C590 1.327 . S
C588 H613 0.950 . S
C589 C588 1.349 . S
C589 C605 1.349 . S
C590 C588 1.327 . S
C590 C609 1.429 . S
C590 H614 0.950 . S
C591 C608 1.574 . S
C591 C610 1.368 . S
C591 H615 0.949 . S
H592 C596 0.949 . S
C593 C594 1.349 . S
C593 C595 1.327 . S
C593 H616 0.950 . S
C594 C593 1.349 . S
C594 C606 1.349 . S
C595 C593 1.327 . S
C595 C611 1.429 . S
C595 H617 0.950 . S
C596 H592 0.949 . S
C596 C604 1.574 . S
C596 C612 1.368 . S
H597 C605 0.950 . S
H598 C603 0.950 . S
H599 C604 0.949 . S
H600 C606 0.950 . S
H601 C607 0.950 . S
H602 C608 0.949 . S
C603 H598 0.950 . S
C603 C605 1.327 . S
C603 C609 1.429 . S
C604 C596 1.574 . S
C604 H599 0.949 . S
C604 C610 1.368 . S
C605 C589 1.349 . S
C605 H597 0.950 . S
C605 C603 1.327 . S
C606 C594 1.349 . S
C606 H600 0.950 . S
C606 C607 1.327 . S
C607 H601 0.950 . S
C607 C606 1.327 . S
C607 C611 1.429 . S
C608 C591 1.574 . S
C608 H602 0.949 . S
C608 C612 1.368 . S
C609 C590 1.429 . S
C609 C603 1.429 . S
C609 C610 1.523 . S
C610 C591 1.368 . S
C610 C604 1.368 . S
C610 C609 1.523 . S
C611 C595 1.429 . S
C611 C607 1.429 . S
C611 C612 1.523 . S
C612 C596 1.368 . S
C612 C608 1.368 . S
C612 C611 1.523 . S
H613 C588 0.950 . S
H614 C590 0.950 . S
H615 C591 0.949 . S
H616 C593 0.950 . S
H617 C595 0.950 . S
C618 C619 1.349 . S
C618 C620 1.327 . S
C618 H643 0.950 . S
C619 C618 1.349 . S
C619 C635 1.349 . S
C620 C618 1.327 . S
C620 C639 1.429 . S
C620 H644 0.950 . S
C621 C638 1.574 . S
C621 C640 1.368 . S
C621 H645 0.949 . S
H622 C626 0.949 . S
C623 C624 1.349 . S
C623 C625 1.327 . S
C623 H646 0.950 . S
C624 C623 1.349 . S
C624 C636 1.349 . S
C625 C623 1.327 . S
C625 C641 1.429 . S
C625 H647 0.950 . S
C626 H622 0.949 . S
C626 C634 1.574 . S
C626 C642 1.368 . S
H627 C635 0.950 . S
H628 C633 0.950 . S
H629 C634 0.949 . S
H630 C636 0.950 . S
H631 C637 0.950 . S
H632 C638 0.949 . S
C633 H628 0.950 . S
C633 C635 1.327 . S
C633 C639 1.429 . S
C634 C626 1.574 . S
C634 H629 0.949 . S
C634 C640 1.368 . S
C635 C619 1.349 . S
C635 H627 0.950 . S
C635 C633 1.327 . S
C636 C624 1.349 . S
C636 H630 0.950 . S
C636 C637 1.327 . S
C637 H631 0.950 . S
C637 C636 1.327 . S
C637 C641 1.429 . S
C638 C621 1.574 . S
C638 H632 0.949 . S
C638 C642 1.368 . S
C639 C620 1.429 . S
C639 C633 1.429 . S
C639 C640 1.523 1_455 S
C640 C621 1.368 . S
C640 C634 1.368 . S
C640 C639 1.523 1_655 S
C641 C625 1.429 . S
C641 C637 1.429 . S
C641 C642 1.523 . S
C642 C626 1.368 . S
C642 C638 1.368 . S
C642 C641 1.523 . S
H643 C618 0.950 . S
H644 C620 0.950 . S
H645 C621 0.949 . S
H646 C623 0.950 . S
H647 C625 0.950 . S
C648 C649 1.349 . S
C648 C650 1.327 . S
C648 H673 0.950 . S
C649 C648 1.349 . S
C649 C665 1.349 . S
C650 C648 1.327 . S
C650 C669 1.429 . S
C650 H674 0.950 . S
C651 C668 1.574 . S
C651 C670 1.368 . S
C651 H675 0.949 . S
H652 C656 0.949 . S
C653 C654 1.349 . S
C653 C655 1.327 . S
C653 H676 0.950 . S
C654 C653 1.349 . S
C654 C666 1.349 . S
C655 C653 1.327 . S
C655 C671 1.429 . S
C655 H677 0.950 . S
C656 H652 0.949 . S
C656 C664 1.574 . S
C656 C672 1.368 . S
H657 C665 0.950 . S
H658 C663 0.950 . S
H659 C664 0.949 . S
H660 C666 0.950 . S
H661 C667 0.950 . S
H662 C668 0.949 . S
C663 H658 0.950 . S
C663 C665 1.327 . S
C663 C669 1.429 . S
C664 C656 1.574 . S
C664 H659 0.949 . S
C664 C670 1.368 . S
C665 C649 1.349 . S
C665 H657 0.950 . S
C665 C663 1.327 . S
C666 C654 1.349 . S
C666 H660 0.950 . S
C666 C667 1.327 . S
C667 H661 0.950 . S
C667 C666 1.327 . S
C667 C671 1.429 . S
C668 C651 1.574 . S
C668 H662 0.949 . S
C668 C672 1.368 . S
C669 C650 1.429 . S
C669 C663 1.429 . S
C669 C670 1.523 . S
C670 C651 1.368 . S
C670 C664 1.368 . S
C670 C669 1.523 . S
C671 C655 1.429 . S
C671 C667 1.429 . S
C671 C672 1.523 1_565 S
C672 C656 1.368 . S
C672 C668 1.368 . S
C672 C671 1.523 1_545 S
H673 C648 0.950 . S
H674 C650 0.950 . S
H675 C651 0.949 . S
H676 C653 0.950 . S
H677 C655 0.950 . S
C139 C111 1.783 . S
C144 C19 1.783 . S
C169 C135 1.794 . S
C174 C43 1.794 . S
C199 C65 1.783 . S
C204 C88 1.783 . S
C229 C20 1.794 . S
C234 C112 1.794 . S
C259 C134 1.784 . S
C264 C42 1.784 . S
C289 C66 1.794 . S
C294 C89 1.794 . S
C319 C18 1.105 . S
C324 C62 1.121 . S
C349 C41 1.105 . S
C354 C16 1.121 . S
C379 C64 1.105 . S
C384 C39 1.121 . S
C409 C87 1.105 . S
C414 C108 1.120 . S
C439 C110 1.105 . S
C444 C131 1.121 . S
C469 C85 1.121 . S
C474 C133 1.105 . S
C499 C21 0.636 . S
C504 C63 0.644 . S
C529 C44 0.636 . S
C534 C17 0.643 . S
C559 C67 0.636 . S
C564 C40 0.643 . S
C589 C90 0.636 . S
C594 C109 0.644 . S
C619 C113 0.636 . S
C624 C132 0.644 . S
C649 C86 0.643 . S
C654 C136 0.636 . S
