# Generated by pormake.
# Topology yfg, (5)-cn, num edge types: 1
# Building blocks:
#     Node 0, Type 0, BuildingBlock: BEQFEK_clean_sbu_0, # of connection points: 5
#     Node 1, Type 0, BuildingBlock: BEQFEK_clean_sbu_0, # of connection points: 5
#     Node 2, Type 0, BuildingBlock: BEQFEK_clean_sbu_0, # of connection points: 5
#     Node 3, Type 0, BuildingBlock: BEQFEK_clean_sbu_0, # of connection points: 5
#     Node 4, Type 0, BuildingBlock: BEQFEK_clean_sbu_0, # of connection points: 5
#     Node 5, Type 0, BuildingBlock: BEQFEK_clean_sbu_0, # of connection points: 5
#     Node 6, Type 0, BuildingBlock: BEQFEK_clean_sbu_0, # of connection points: 5
#     Node 7, Type 0, BuildingBlock: BEQFEK_clean_sbu_0, # of connection points: 5
#     Edge 8, Type (0, 0), BuildingBlock: CIFDUS_clean_linker_0, # of connection points: 2
#     Edge 9, Type (0, 0), BuildingBlock: CIFDUS_clean_linker_0, # of connection points: 2
#     Edge 10, Type (0, 0), BuildingBlock: CIFDUS_clean_linker_0, # of connection points: 2
#     Edge 11, Type (0, 0), BuildingBlock: CIFDUS_clean_linker_0, # of connection points: 2
#     Edge 12, Type (0, 0), BuildingBlock: CIFDUS_clean_linker_0, # of connection points: 2
#     Edge 13, Type (0, 0), BuildingBlock: CIFDUS_clean_linker_0, # of connection points: 2
#     Edge 14, Type (0, 0), BuildingBlock: CIFDUS_clean_linker_0, # of connection points: 2
#     Edge 15, Type (0, 0), BuildingBlock: CIFDUS_clean_linker_0, # of connection points: 2
#     Edge 16, Type (0, 0), BuildingBlock: CIFDUS_clean_linker_0, # of connection points: 2
#     Edge 17, Type (0, 0), BuildingBlock: CIFDUS_clean_linker_0, # of connection points: 2
#     Edge 18, Type (0, 0), BuildingBlock: CIFDUS_clean_linker_0, # of connection points: 2
#     Edge 19, Type (0, 0), BuildingBlock: CIFDUS_clean_linker_0, # of connection points: 2
#     Edge 20, Type (0, 0), BuildingBlock: CIFDUS_clean_linker_0, # of connection points: 2
#     Edge 21, Type (0, 0), BuildingBlock: CIFDUS_clean_linker_0, # of connection points: 2
#     Edge 22, Type (0, 0), BuildingBlock: CIFDUS_clean_linker_0, # of connection points: 2
#     Edge 23, Type (0, 0), BuildingBlock: CIFDUS_clean_linker_0, # of connection points: 2
#     Edge 24, Type (0, 0), BuildingBlock: CIFDUS_clean_linker_0, # of connection points: 2
#     Edge 25, Type (0, 0), BuildingBlock: CIFDUS_clean_linker_0, # of connection points: 2
#     Edge 26, Type (0, 0), BuildingBlock: CIFDUS_clean_linker_0, # of connection points: 2
#     Edge 27, Type (0, 0), BuildingBlock: CIFDUS_clean_linker_0, # of connection points: 2
# Relax obj value: 0.520
# Max RMSD: 0.221
# Mean RMSD: 0.221
data_MOF--net-yfg--node1-BEQFEK_clean_sbu_0--edge1-CIFDUS_clean_linker_0
_symmetry_space_group_name_H-M    P1
_symmetry_Int_Tables_number       1
_symmetry_cell_setting            triclinic
loop_
_symmetry_equiv_pos_as_xyz
'x, y, z'
_cell_length_a     29.724642
_cell_length_b     29.713256
_cell_length_c     40.089507
_cell_angle_alpha  89.842569
_cell_angle_beta   90.102043
_cell_angle_gamma 89.966296
loop_
_atom_site_label
_atom_site_type_symbol
_atom_site_fract_x
_atom_site_fract_y
_atom_site_fract_z
_atom_type_partial_charge
Co0 Co 0.21694 0.48371 0.09936 0.0
Co1 Co 0.25871 0.50045 0.02797 0.0
C2 C 0.27668 0.56276 0.08513 0.0
O3 O 0.25251 0.53886 0.10428 0.0
O4 O 0.28189 0.55231 0.05461 0.0
C5 C 0.17043 0.51303 0.15608 0.0
O6 O 0.17243 0.55106 0.13934 0.0
C7 C 0.28264 0.54962 0.9667 0.0
C8 C 0.28023 0.49668 0.92818 0.0
C9 C 0.28628 0.54254 0.93252 0.0
N10 N 0.27317 0.51015 0.98163 0.0
N11 N 0.27241 0.47853 0.95849 0.0
C12 C 0.2931 0.59171 0.98566 0.0
H13 H 0.26247 0.60344 -0.00119 0.0
H14 H 0.30664 0.61896 0.96975 0.0
H15 H 0.31922 0.58388 0.0045 0.0
C16 C 0.13272 0.48419 0.06076 0.0
N17 N 0.17777 0.48757 0.06275 0.0
N18 N 0.19455 0.49459 0.03281 0.0
C19 C 0.16022 0.49633 0.01072 0.0
C20 C 0.12001 0.48968 0.02771 0.0
C21 C 0.1027 0.47837 0.09043 0.0
H22 H 0.11481 0.44972 0.10582 0.0
H23 H 0.10431 0.50919 0.10586 0.0
H24 H 0.06711 0.47284 0.08341 0.0
O25 O 0.2591 0.43322 0.09388 0.0
O26 O 0.29143 0.44568 0.04463 0.0
H27 H 0.18481 0.47258 0.96407 0.0
H28 H 0.13338 0.50361 0.96049 0.0
C29 C 0.16598 0.50186 0.97385 0.0
H30 H 0.18558 0.53281 0.96865 0.0
H31 H 0.26577 0.44465 0.96331 0.0
O32 O 0.18508 0.47729 0.14248 0.0
C33 C 0.28754 0.42272 0.07146 0.0
Co34 Co 0.52416 0.22246 0.34914 0.0
Co35 Co 0.49399 0.25157 0.27691 0.0
C36 C 0.43553 0.2695 0.33462 0.0
O37 O 0.46547 0.2535 0.35396 0.0
O38 O 0.44091 0.26944 0.30319 0.0
C39 C 0.49981 0.17325 0.40481 0.0
O40 O 0.46492 0.16684 0.38522 0.0
C41 C 0.44356 0.27765 0.21665 0.0
C42 C 0.48847 0.25687 0.17568 0.0
C43 C 0.44652 0.27513 0.18218 0.0
N44 N 0.48128 0.26036 0.2301 0.0
N45 N 0.50824 0.24844 0.20541 0.0
C46 C 0.40709 0.29969 0.23646 0.0
H47 H 0.42222 0.32081 0.25627 0.0
H48 H 0.38606 0.27325 0.24824 0.0
H49 H 0.38546 0.32158 0.22076 0.0
C50 C 0.53412 0.13541 0.31634 0.0
N51 N 0.52339 0.17924 0.31537 0.0
N52 N 0.50711 0.18963 0.28586 0.0
C53 C 0.50373 0.15159 0.26774 0.0
C54 C 0.52127 0.11576 0.28635 0.0
C55 C 0.55983 0.11434 0.34452 0.0
H56 H 0.58101 0.13997 0.35707 0.0
H57 H 0.5359 0.10049 0.36309 0.0
H58 H 0.58175 0.08675 0.33543 0.0
O59 O 0.56947 0.26758 0.33946 0.0
O60 O 0.54506 0.29316 0.29032 0.0
H61 H 0.50379 0.15399 0.21443 0.0
H62 H 0.46306 0.11574 0.23193 0.0
C63 C 0.47944 0.14901 0.23505 0.0
H64 H 0.45338 0.17564 0.23347 0.0
H65 H 0.53996 0.23407 0.20884 0.0
O66 O 0.53345 0.19487 0.39351 0.0
C67 C 0.57226 0.29489 0.31505 0.0
Co68 Co 0.76333 0.53295 0.58819 0.0
Co69 Co 0.72902 0.5094 0.51577 0.0
C70 C 0.70979 0.4491 0.57352 0.0
O71 O 0.72945 0.47638 0.59305 0.0
O72 O 0.70805 0.45648 0.54222 0.0
C73 C 0.80539 0.50938 0.6486 0.0
O74 O 0.80448 0.46968 0.63425 0.0
C75 C 0.71206 0.45943 0.45376 0.0
C76 C 0.70758 0.51363 0.41603 0.0
C77 C 0.70596 0.4673 0.41981 0.0
N78 N 0.71813 0.49914 0.46909 0.0
N79 N 0.71527 0.53142 0.44641 0.0
C80 C 0.7068 0.41597 0.47236 0.0
H81 H 0.73733 0.40963 0.48765 0.0
H82 H 0.70021 0.38686 0.45598 0.0
H83 H 0.67776 0.41917 0.48947 0.0
C84 C 0.85097 0.53157 0.55403 0.0
N85 N 0.80578 0.52891 0.5537 0.0
N86 N 0.79181 0.51955 0.52333 0.0
C87 C 0.82798 0.51574 0.50327 0.0
C88 C 0.86664 0.52312 0.52206 0.0
C89 C 0.87822 0.53736 0.58519 0.0
H90 H 0.865 0.56623 0.59967 0.0
H91 H 0.87495 0.50662 0.6007 0.0
H92 H 0.9144 0.5426 0.58012 0.0
O93 O 0.71953 0.58099 0.57926 0.0
O94 O 0.69083 0.56116 0.53015 0.0
H95 H 0.80369 0.53073 0.45435 0.0
H96 H 0.85894 0.50642 0.45472 0.0
C97 C 0.82544 0.50547 0.46678 0.0
H98 H 0.81014 0.47178 0.46322 0.0
H99 H 0.71846 0.56564 0.45169 0.0
O100 O 0.79136 0.54346 0.63237 0.0
C101 C 0.6914 0.58672 0.55564 0.0
Co102 Co 0.48085 0.7706 0.84022 0.0
Co103 Co 0.49137 0.73274 0.76745 0.0
C104 C 0.55639 0.7083 0.82156 0.0
O105 O 0.53423 0.73167 0.84228 0.0
O106 O 0.54468 0.70638 0.79101 0.0
C107 C 0.5156 0.81182 0.89752 0.0
O108 O 0.55322 0.80566 0.88098 0.0
C109 C 0.53517 0.71753 0.7033 0.0
C110 C 0.47803 0.71086 0.66831 0.0
C111 C 0.52463 0.71196 0.66973 0.0
N112 N 0.49667 0.7209 0.72061 0.0
N113 N 0.4626 0.71668 0.69961 0.0
C114 C 0.58039 0.71503 0.71979 0.0
H115 H 0.58104 0.685 0.73618 0.0
H116 H 0.58542 0.74518 0.73565 0.0
H117 H 0.60862 0.71158 0.70212 0.0
C118 C 0.48346 0.85709 0.8043 0.0
N119 N 0.48412 0.81182 0.80481 0.0
N120 N 0.48753 0.79649 0.77417 0.0
C121 C 0.48891 0.83189 0.75301 0.0
C122 C 0.48646 0.87143 0.77142 0.0
C123 C 0.48343 0.88557 0.83508 0.0
H124 H 0.51457 0.87877 0.84944 0.0
H125 H 0.48243 0.92204 0.82948 0.0
H126 H 0.45429 0.87635 0.85095 0.0
O127 O 0.42827 0.73086 0.83558 0.0
O128 O 0.43791 0.69998 0.78554 0.0
H129 H 0.48576 0.8609 0.70329 0.0
H130 H 0.5233 0.81345 0.70831 0.0
C131 C 0.49047 0.82793 0.71583 0.0
H132 H 0.4634 0.80505 0.70737 0.0
H133 H 0.42883 0.71813 0.70661 0.0
O134 O 0.47847 0.8011 0.8839 0.0
C135 C 0.41647 0.70317 0.81299 0.0
Co136 Co 0.22268 0.51818 0.40627 0.0
Co137 Co 0.26477 0.51638 0.47871 0.0
C138 C 0.27968 0.44144 0.42964 0.0
O139 O 0.25592 0.46137 0.40781 0.0
O140 O 0.28576 0.45859 0.45838 0.0
C141 C 0.17566 0.48126 0.35117 0.0
O142 O 0.17864 0.44438 0.36919 0.0
C143 C 0.29281 0.48099 0.54408 0.0
C144 C 0.28868 0.54053 0.57679 0.0
C145 C 0.29786 0.49482 0.57693 0.0
N146 N 0.27988 0.51647 0.52552 0.0
N147 N 0.27779 0.55207 0.5452 0.0
C148 C 0.30554 0.43645 0.52953 0.0
H149 H 0.27556 0.42074 0.51786 0.0
H150 H 0.32041 0.41306 0.54801 0.0
H151 H 0.33117 0.44232 0.50999 0.0
C152 C 0.13933 0.52857 0.44418 0.0
N153 N 0.18421 0.52376 0.44282 0.0
N154 N 0.20092 0.52319 0.47328 0.0
C155 C 0.16658 0.52739 0.49509 0.0
C156 C 0.1267 0.53097 0.47726 0.0
C157 C 0.10939 0.53214 0.41423 0.0
H158 H 0.10616 0.49848 0.40259 0.0
H159 H 0.07539 0.54457 0.42095 0.0
H160 H 0.12459 0.55532 0.39569 0.0
O161 O 0.26643 0.56746 0.40571 0.0
O162 O 0.29863 0.56604 0.45585 0.0
H163 H 0.13822 0.52117 0.54456 0.0
H164 H 0.19392 0.49772 0.53949 0.0
C165 C 0.17131 0.52577 0.53222 0.0
H166 H 0.18626 0.55781 0.54098 0.0
H167 H 0.26873 0.58424 0.5371 0.0
O168 O 0.19022 0.51809 0.36315 0.0
C169 C 0.2951 0.58248 0.4265 0.0
Co170 Co 0.46868 0.22936 0.65424 0.0
Co171 Co 0.476 0.26965 0.72663 0.0
C172 C 0.5446 0.29068 0.67515 0.0
O173 O 0.52256 0.26749 0.65422 0.0
O174 O 0.53157 0.29403 0.70528 0.0
C175 C 0.50969 0.1841 0.60126 0.0
O176 O 0.54424 0.18747 0.62158 0.0
C177 C 0.51223 0.29361 0.79245 0.0
C178 C 0.45153 0.29383 0.82422 0.0
C179 C 0.49774 0.29975 0.82507 0.0
N180 N 0.47641 0.28348 0.7734 0.0
N181 N 0.44021 0.28373 0.79253 0.0
C182 C 0.55828 0.30149 0.77851 0.0
H183 H 0.56975 0.27088 0.76519 0.0
H184 H 0.5833 0.31102 0.79767 0.0
H185 H 0.55639 0.32943 0.7602 0.0
C186 C 0.46575 0.14449 0.69173 0.0
N187 N 0.4688 0.18958 0.69044 0.0
N188 N 0.47189 0.20575 0.7209 0.0
C189 C 0.47128 0.17095 0.74264 0.0
C190 C 0.46739 0.13116 0.72479 0.0
C191 C 0.45917 0.11501 0.6619 0.0
H192 H 0.43604 0.13152 0.64391 0.0
H193 H 0.49207 0.10982 0.64948 0.0
H194 H 0.44526 0.08172 0.66906 0.0
O195 O 0.41577 0.26889 0.65592 0.0
O196 O 0.42394 0.30192 0.70542 0.0
H197 H 0.44549 0.1909 0.79001 0.0
H198 H 0.48199 0.14237 0.79179 0.0
C199 C 0.47639 0.17548 0.77961 0.0
H200 H 0.50523 0.19783 0.78528 0.0
H201 H 0.40775 0.277 0.78393 0.0
O202 O 0.4713 0.1977 0.61097 0.0
C203 C 0.40329 0.29742 0.67769 0.0
Co204 Co 0.76675 0.45369 0.90275 0.0
Co205 Co 0.72774 0.46737 0.97504 0.0
C206 C 0.70999 0.53391 0.92034 0.0
O207 O 0.73212 0.51 0.89991 0.0
O208 O 0.70614 0.52229 0.95084 0.0
C209 C 0.81123 0.48269 0.84436 0.0
O210 O 0.80895 0.52161 0.85974 0.0
C211 C 0.71389 0.5123 0.03911 0.0
C212 C 0.70179 0.45575 0.07387 0.0
C213 C 0.7062 0.50215 0.0725 0.0
N214 N 0.7151 0.47369 0.02177 0.0
N215 N 0.70773 0.43998 0.04266 0.0
C216 C 0.71613 0.55769 0.02285 0.0
H217 H 0.68634 0.56164 0.00647 0.0
H218 H 0.7466 0.55972 0.00695 0.0
H219 H 0.71582 0.58583 0.04081 0.0
C220 C 0.85211 0.45086 0.93981 0.0
N221 N 0.80705 0.45453 0.93864 0.0
N222 N 0.7912 0.45918 0.96909 0.0
C223 C 0.8261 0.45837 0.99069 0.0
C224 C 0.8656 0.45316 0.97277 0.0
C225 C 0.88153 0.4446 0.90994 0.0
H226 H 0.88297 0.47663 0.89571 0.0
H227 H 0.91621 0.4347 0.91721 0.0
H228 H 0.86697 0.41843 0.89347 0.0
O229 O 0.72409 0.40375 0.9076 0.0
O230 O 0.69225 0.41547 0.95707 0.0
H231 H 0.79981 0.43833 0.03804 0.0
H232 H 0.85531 0.46292 0.04016 0.0
C233 C 0.82209 0.4647 0.02757 0.0
H234 H 0.8068 0.498 0.03267 0.0
H235 H 0.70701 0.40619 0.03565 0.0
O236 O 0.79735 0.44753 0.85926 0.0
C237 C 0.69554 0.39337 0.92994 0.0
Co238 Co 0.56395 0.76315 0.14785 0.0
Co239 Co 0.51867 0.73324 0.21466 0.0
C240 C 0.46955 0.72201 0.15231 0.0
O241 O 0.50406 0.73634 0.13679 0.0
O242 O 0.4687 0.72062 0.18401 0.0
C243 C 0.55292 0.81522 0.09153 0.0
O244 O 0.51529 0.82332 0.1076 0.0
C245 C 0.46148 0.70617 0.27097 0.0
C246 C 0.49999 0.73061 0.31448 0.0
C247 C 0.45983 0.71034 0.30546 0.0
N248 N 0.50011 0.72437 0.26003 0.0
N249 N 0.52324 0.73844 0.28621 0.0
C250 C 0.42863 0.68237 0.24884 0.0
H251 H 0.44681 0.66446 0.22872 0.0
H252 H 0.40576 0.70751 0.23729 0.0
H253 H 0.40836 0.65753 0.26302 0.0
C254 C 0.56912 0.84947 0.18276 0.0
N255 N 0.55967 0.8053 0.18221 0.0
N256 N 0.53616 0.79443 0.20868 0.0
C257 C 0.52654 0.83225 0.22572 0.0
C258 C 0.54769 0.86868 0.21013 0.0
C259 C 0.59971 0.87178 0.15812 0.0
H260 H 0.62422 0.84704 0.14819 0.0
H261 H 0.57965 0.88507 0.13693 0.0
H262 H 0.6182 0.90004 0.1699 0.0
O263 O 0.60409 0.7143 0.15998 0.0
O264 O 0.56733 0.68772 0.2041 0.0
H265 H 0.50823 0.83132 0.27732 0.0
H266 H 0.4727 0.86632 0.25157 0.0
C267 C 0.49162 0.83414 0.2526 0.0
H268 H 0.46746 0.80598 0.24987 0.0
H269 H 0.55456 0.75416 0.28472 0.0
O270 O 0.58296 0.79138 0.10567 0.0
C271 C 0.59891 0.68471 0.18261 0.0
H272 H 0.15641 0.55065 0.30934 0.0
H273 H 0.16762 0.40588 0.3129 0.0
H274 H 0.16137 0.40239 0.25227 0.0
H275 H 0.16287 0.44121 0.19808 0.0
H276 H 0.15241 0.58612 0.19476 0.0
H277 H 0.14757 0.58863 0.25537 0.0
C278 C 0.15676 0.51829 0.29688 0.0
C279 C 0.16326 0.4787 0.31553 0.0
C280 C 0.15366 0.51653 0.262 0.0
C281 C 0.16293 0.43694 0.29911 0.0
C282 C 0.15959 0.4349 0.2644 0.0
C283 C 0.15876 0.47327 0.21058 0.0
C284 C 0.15886 0.51343 0.19193 0.0
C285 C 0.15651 0.47459 0.24554 0.0
C286 C 0.15288 0.55467 0.20848 0.0
C287 C 0.15028 0.55621 0.2432 0.0
H288 H 0.56695 0.17405 0.45103 0.0
H289 H 0.42457 0.14995 0.43942 0.0
H290 H 0.41568 0.14651 0.49977 0.0
H291 H 0.44666 0.15959 0.55571 0.0
H292 H 0.58908 0.183 0.56746 0.0
H293 H 0.59964 0.17687 0.50733 0.0
C294 C 0.53412 0.16734 0.46172 0.0
C295 C 0.49641 0.16304 0.44079 0.0
C296 C 0.52913 0.16562 0.4965 0.0
C297 C 0.45418 0.15368 0.45496 0.0
C298 C 0.44896 0.15191 0.48951 0.0
C299 C 0.48009 0.16265 0.54512 0.0
C300 C 0.51686 0.1724 0.56591 0.0
C301 C 0.48593 0.15928 0.51051 0.0
C302 C 0.56012 0.17563 0.55197 0.0
C303 C 0.5662 0.17238 0.51755 0.0
H304 H 0.82441 0.44131 0.69153 0.0
H305 H 0.81088 0.58585 0.68626 0.0
H306 H 0.81773 0.59064 0.74686 0.0
H307 H 0.81833 0.55305 0.8014 0.0
H308 H 0.82734 0.40817 0.80655 0.0
H309 H 0.8321 0.40434 0.74584 0.0
C310 C 0.82365 0.47397 0.70354 0.0
C311 C 0.81656 0.51311 0.68443 0.0
C312 C 0.8265 0.47638 0.7384 0.0
C313 C 0.81591 0.55515 0.70041 0.0
C314 C 0.81973 0.55791 0.73508 0.0
C315 C 0.8222 0.52067 0.7893 0.0
C316 C 0.82199 0.48092 0.80843 0.0
C317 C 0.82365 0.51863 0.75436 0.0
C318 C 0.82701 0.43925 0.79236 0.0
C319 C 0.82962 0.43702 0.75765 0.0
H320 H 0.58871 0.8144 0.93784 0.0
H321 H 0.44546 0.83846 0.93668 0.0
H322 H 0.44609 0.84885 0.99709 0.0
H323 H 0.48542 0.84118 0.05042 0.0
H324 H 0.6275 0.81101 0.05191 0.0
H325 H 0.62941 0.81372 0.99099 0.0
C326 C 0.55775 0.82273 0.9507 0.0
C327 C 0.517 0.82514 0.93291 0.0
C328 C 0.55813 0.82726 0.98548 0.0
C329 C 0.47718 0.83596 0.94991 0.0
C330 C 0.47751 0.84185 0.98443 0.0
C331 C 0.51704 0.83611 0.03748 0.0
C332 C 0.55617 0.82541 0.05559 0.0
C333 C 0.51752 0.83609 0.00255 0.0
C334 C 0.59684 0.81892 0.03847 0.0
C335 C 0.59791 0.82031 0.00366 0.0
H336 H 0.05806 0.42386 0.03486 0.0
H337 H 0.07924 0.55408 0.99005 0.0
H338 H 0.00238 0.55358 0.9679 0.0
H339 H 0.92855 0.51655 0.96249 0.0
H340 H 0.90541 0.38935 0.01118 0.0
H341 H 0.98343 0.38823 0.03133 0.0
C342 C 0.04557 0.45219 0.02044 0.0
C343 C 0.07395 0.48889 0.01392 0.0
C344 C 0.00107 0.45222 0.00879 0.0
C345 C 0.0579 0.52528 0.99496 0.0
C346 C 0.014 0.52511 0.98252 0.0
C347 C 0.94087 0.48875 0.97756 0.0
C348 C 0.91197 0.45306 0.98549 0.0
C349 C 0.98525 0.48886 0.98942 0.0
C350 C 0.92753 0.41712 0.00504 0.0
C351 C 0.97196 0.41649 0.01642 0.0
H352 H 0.53803 0.0801 0.22485 0.0
H353 H 0.51082 0.04209 0.32686 0.0
H354 H 0.52302 0.96345 0.31313 0.0
H355 H 0.54138 0.90551 0.2721 0.0
H356 H 0.54496 0.9418 0.16778 0.0
H357 H 0.54246 0.021 0.18234 0.0
C358 C 0.53353 0.05475 0.24399 0.0
C359 C 0.52476 0.0675 0.27708 0.0
C360 C 0.53693 0.00912 0.23546 0.0
C361 C 0.51977 0.03377 0.3015 0.0
C362 C 0.52605 0.98856 0.29359 0.0
C363 C 0.54043 0.93044 0.25237 0.0
C364 C 0.54449 0.9172 0.21889 0.0
C365 C 0.53475 0.97587 0.26064 0.0
C366 C 0.54418 0.95056 0.19388 0.0
C367 C 0.54183 0.99609 0.20213 0.0
H368 H 0.05944 0.47179 0.4692 0.0
H369 H 0.09177 0.59974 0.51329 0.0
H370 H 0.01303 0.60969 0.53018 0.0
H371 H 0.93465 0.58261 0.53045 0.0
H372 H 0.90396 0.45172 0.49033 0.0
H373 H 0.98225 0.44244 0.47291 0.0
C374 C 0.04904 0.50158 0.48276 0.0
C375 C 0.08065 0.53509 0.49009 0.0
C376 C 0.00414 0.50668 0.49255 0.0
C377 C 0.06754 0.57359 0.50768 0.0
C378 C 0.02268 0.57931 0.5171 0.0
C379 C 0.94538 0.5519 0.51823 0.0
C380 C 0.91386 0.51797 0.51146 0.0
C381 C 0.99064 0.54622 0.50941 0.0
C382 C 0.92773 0.47852 0.49529 0.0
C383 C 0.97243 0.47307 0.4856 0.0
H384 H 0.52327 0.0631 0.70929 0.0
H385 H 0.40704 0.096 0.76842 0.0
H386 H 0.40137 0.01753 0.78714 0.0
H387 H 0.42901 0.93941 0.78561 0.0
H388 H 0.54854 0.90786 0.72963 0.0
H389 H 0.55292 0.98573 0.7098 0.0
C390 C 0.49687 0.05287 0.72636 0.0
C391 C 0.46558 0.08473 0.73759 0.0
C392 C 0.4942 0.00805 0.73713 0.0
C393 C 0.43157 0.07171 0.75978 0.0
C394 C 0.42823 0.02698 0.77027 0.0
C395 C 0.45623 0.94985 0.76934 0.0
C396 C 0.48843 0.91825 0.75904 0.0
C397 C 0.45929 0.99486 0.759 0.0
C398 C 0.52315 0.9317 0.73755 0.0
C399 C 0.52583 0.97618 0.72644 0.0
H400 H 0.38928 0.69211 0.17616 0.0
H401 H 0.46523 0.70686 0.08507 0.0
H402 H 0.40907 0.66286 0.05506 0.0
H403 H 0.34361 0.61252 0.05636 0.0
H404 H 0.26856 0.59715 0.14783 0.0
H405 H 0.3191 0.64927 0.17583 0.0
C406 C 0.39334 0.68624 0.14967 0.0
C407 C 0.43189 0.70211 0.13312 0.0
C408 C 0.36126 0.66041 0.13261 0.0
C409 C 0.43613 0.69473 0.0986 0.0
C410 C 0.40408 0.6694 0.08138 0.0
C411 C 0.33767 0.62121 0.08218 0.0
C412 C 0.30264 0.60032 0.09996 0.0
C413 C 0.36725 0.65089 0.09837 0.0
C414 C 0.29556 0.61221 0.13352 0.0
C415 C 0.3245 0.64202 0.14966 0.0
H416 H 0.42194 0.29075 0.39978 0.0
H417 H 0.36099 0.30172 0.30222 0.0
H418 H 0.3035 0.35167 0.3245 0.0
H419 H 0.27644 0.39922 0.36976 0.0
H420 H 0.33933 0.39119 0.46677 0.0
H421 H 0.38959 0.33244 0.44669 0.0
C422 C 0.39567 0.30342 0.38344 0.0
C423 C 0.39638 0.29313 0.34917 0.0
C424 C 0.36322 0.33294 0.39628 0.0
C425 C 0.36181 0.30963 0.32852 0.0
C426 C 0.32886 0.33824 0.34126 0.0
C427 C 0.30068 0.38429 0.38676 0.0
C428 C 0.30458 0.40041 0.41964 0.0
C429 C 0.33019 0.35129 0.37482 0.0
C430 C 0.33583 0.38003 0.44129 0.0
C431 C 0.36475 0.34642 0.42976 0.0
H432 H 0.57859 0.29181 0.61237 0.0
H433 H 0.59793 0.34963 0.71009 0.0
H434 H 0.65474 0.40056 0.68751 0.0
H435 H 0.69279 0.43371 0.63916 0.0
H436 H 0.67041 0.37815 0.54107 0.0
H437 H 0.62095 0.32101 0.56486 0.0
C438 C 0.59548 0.31518 0.62893 0.0
C439 C 0.58346 0.3172 0.66289 0.0
C440 C 0.62729 0.34503 0.61564 0.0
C441 C 0.60619 0.34746 0.68388 0.0
C442 C 0.63861 0.37672 0.67093 0.0
C443 C 0.67762 0.40878 0.62294 0.0
C444 C 0.68486 0.41071 0.58821 0.0
C445 C 0.64849 0.37659 0.6367 0.0
C446 C 0.665 0.37793 0.56774 0.0
C447 C 0.6367 0.34521 0.58135 0.0
H448 H 0.7005 0.55968 0.85558 0.0
H449 H 0.66362 0.5977 0.95579 0.0
H450 H 0.61662 0.65824 0.93375 0.0
H451 H 0.58103 0.69581 0.88621 0.0
H452 H 0.61445 0.65496 0.78594 0.0
H453 H 0.66828 0.60035 0.80798 0.0
C454 C 0.68263 0.58146 0.87272 0.0
C455 C 0.6854 0.57377 0.9074 0.0
C456 C 0.65487 0.61557 0.85985 0.0
C457 C 0.66197 0.60251 0.92907 0.0
C458 C 0.635 0.63716 0.91646 0.0
C459 C 0.60042 0.67542 0.86904 0.0
C460 C 0.59332 0.67938 0.83437 0.0
C461 C 0.63044 0.6433 0.88189 0.0
C462 C 0.61894 0.6526 0.81267 0.0
C463 C 0.64968 0.62122 0.82528 0.0
H464 H 0.27516 0.34988 0.11082 0.0
H465 H 0.37545 0.418 0.05183 0.0
H466 H 0.43474 0.37311 0.07828 0.0
H467 H 0.45849 0.32391 0.12523 0.0
H468 H 0.35729 0.2563 0.18368 0.0
H469 H 0.29796 0.29117 0.15032 0.0
C470 C 0.3099 0.35407 0.10315 0.0
C471 C 0.32101 0.38762 0.07983 0.0
C472 C 0.34373 0.32881 0.11887 0.0
C473 C 0.36604 0.39235 0.06975 0.0
C474 C 0.40002 0.36701 0.08514 0.0
C475 C 0.42345 0.31617 0.13009 0.0
C476 C 0.41202 0.28911 0.15761 0.0
C477 C 0.3894 0.33659 0.11081 0.0
C478 C 0.36666 0.27846 0.16334 0.0
C479 C 0.33277 0.29821 0.14422 0.0
H480 H 0.65622 0.29414 0.34064 0.0
H481 H 0.55435 0.38275 0.30108 0.0
H482 H 0.59143 0.44731 0.32708 0.0
H483 H 0.6437 0.47499 0.3705 0.0
H484 H 0.74672 0.38647 0.40855 0.0
H485 H 0.71856 0.32535 0.37361 0.0
C486 C 0.64314 0.32786 0.33674 0.0
C487 C 0.60242 0.33377 0.31944 0.0
C488 C 0.66408 0.3645 0.3523 0.0
C489 C 0.58579 0.37748 0.31424 0.0
C490 C 0.60664 0.4143 0.32951 0.0
C491 C 0.66053 0.44258 0.37053 0.0
C492 C 0.69545 0.43419 0.39343 0.0
C493 C 0.64437 0.40775 0.3501 0.0
C494 C 0.71806 0.39272 0.39246 0.0
C495 C 0.70227 0.35795 0.37229 0.0
H496 H 0.51468 0.65267 0.61898 0.0
H497 H 0.60287 0.75653 0.65555 0.0
H498 H 0.66256 0.73079 0.6183 0.0
H499 H 0.69325 0.66949 0.5837 0.0
H500 H 0.6034 0.5692 0.54394 0.0
H501 H 0.54013 0.60383 0.57303 0.0
C502 C 0.54662 0.67029 0.6182 0.0
C503 C 0.55579 0.7042 0.64159 0.0
C504 C 0.58035 0.65596 0.59614 0.0
C505 C 0.59641 0.72812 0.63936 0.0
C506 C 0.6303 0.71381 0.61781 0.0
C507 C 0.65948 0.65636 0.58043 0.0
C508 C 0.65295 0.6166 0.56223 0.0
C509 C 0.62338 0.67622 0.59742 0.0
C510 C 0.60913 0.59991 0.55783 0.0
C511 C 0.57304 0.61934 0.57481 0.0
H512 H 0.33735 0.53046 0.87708 0.0
H513 H 0.25456 0.6287 0.92674 0.0
H514 H 0.28342 0.68785 0.89023 0.0
H515 H 0.34142 0.713 0.85052 0.0
H516 H 0.42007 0.61423 0.79785 0.0
H517 H 0.38235 0.55367 0.82823 0.0
C518 C 0.32505 0.56467 0.87949 0.0
C519 C 0.29638 0.57594 0.90604 0.0
C520 C 0.34092 0.59833 0.85778 0.0
C521 C 0.27915 0.6199 0.90796 0.0
C522 C 0.29515 0.65363 0.88681 0.0
C523 C 0.34916 0.67813 0.84494 0.0
C524 C 0.3838 0.66804 0.8224 0.0
C525 C 0.3276 0.64355 0.86266 0.0
C526 C 0.39337 0.6228 0.81507 0.0
C527 C 0.37222 0.58817 0.83275 0.0
H528 H 0.28456 0.64126 0.37564 0.0
H529 H 0.38131 0.59586 0.44866 0.0
H530 H 0.44124 0.63562 0.41888 0.0
H531 H 0.46738 0.67406 0.36756 0.0
H532 H 0.36959 0.71922 0.29523 0.0
H533 H 0.30887 0.68852 0.32911 0.0
C534 C 0.31863 0.64077 0.38542 0.0
C535 C 0.32863 0.61513 0.41399 0.0
C536 C 0.35288 0.66277 0.36783 0.0
C537 C 0.37274 0.61537 0.42669 0.0
C538 C 0.4071 0.63771 0.40947 0.0
C539 C 0.4327 0.67758 0.3595 0.0
C540 C 0.42306 0.6969 0.32822 0.0
C541 C 0.39781 0.66002 0.37929 0.0
C542 C 0.378 0.70239 0.3184 0.0
C543 C 0.34321 0.68532 0.33794 0.0
H544 H 0.26835 0.41192 0.59437 0.0
H545 H 0.35972 0.51674 0.62449 0.0
H546 H 0.39473 0.46566 0.66505 0.0
H547 H 0.4083 0.38763 0.68377 0.0
H548 H 0.32354 0.281 0.64707 0.0
H549 H 0.27688 0.33586 0.6173 0.0
C550 C 0.29582 0.42352 0.60999 0.0
C551 C 0.31271 0.46728 0.6057 0.0
C552 C 0.31711 0.39337 0.63185 0.0
C553 C 0.34682 0.4828 0.62699 0.0
C554 C 0.36697 0.45354 0.65 0.0
C555 C 0.37868 0.37674 0.67015 0.0
C556 C 0.36904 0.33056 0.66762 0.0
C557 C 0.35373 0.4082 0.65153 0.0
C558 C 0.33129 0.31649 0.64937 0.0
C559 C 0.30489 0.34778 0.6322 0.0
H560 H 0.60586 0.40464 0.93386 0.0
H561 H 0.70799 0.31076 0.90288 0.0
H562 H 0.65188 0.26745 0.87189 0.0
H563 H 0.57722 0.26451 0.84578 0.0
H564 H 0.47786 0.36452 0.87056 0.0
H565 H 0.52849 0.39647 0.91253 0.0
C566 C 0.61532 0.37372 0.92135 0.0
C567 C 0.66071 0.36056 0.92069 0.0
C568 C 0.58342 0.35072 0.90192 0.0
C569 C 0.67306 0.32115 0.90381 0.0
C570 C 0.6411 0.29671 0.88586 0.0
C571 C 0.56676 0.29326 0.86048 0.0
C572 C 0.52482 0.31341 0.85429 0.0
C573 C 0.59676 0.31254 0.88337 0.0
C574 C 0.5105 0.34912 0.8745 0.0
C575 C 0.53949 0.36748 0.89837 0.0
H576 H 0.6838 0.67335 0.16 0.0
H577 H 0.56698 0.60003 0.19315 0.0
H578 H 0.59404 0.53247 0.16492 0.0
H579 H 0.64225 0.50036 0.12072 0.0
H580 H 0.75978 0.57332 0.08866 0.0
H581 H 0.74131 0.6349 0.12655 0.0
C582 C 0.66519 0.64206 0.16209 0.0
C583 C 0.62315 0.64181 0.17807 0.0
C584 C 0.68035 0.60378 0.14507 0.0
C585 C 0.59948 0.60106 0.18098 0.0
C586 C 0.61461 0.56256 0.16439 0.0
C587 C 0.66429 0.52932 0.12265 0.0
C588 C 0.70075 0.53381 0.10061 0.0
C589 C 0.6536 0.56442 0.14473 0.0
C590 C 0.73002 0.57056 0.10409 0.0
C591 C 0.71974 0.60552 0.12595 0.0
loop_
_geom_bond_atom_site_label_1
_geom_bond_atom_site_label_2
_geom_bond_distance
_geom_bond_site_symmetry_2
_ccdc_geom_bond_type
Co0 O3 1.970 . S
Co0 N17 1.989 . S
Co0 O25 1.967 . S
Co0 O32 1.920 . S
Co1 O4 1.966 . S
Co1 N10 2.022 1_554 S
Co1 N18 1.993 . S
Co1 O26 1.941 . S
C2 O3 1.258 . S
C2 O4 1.263 . S
O3 Co0 1.970 . S
O3 C2 1.258 . S
O4 Co1 1.966 . S
O4 C2 1.263 . S
C5 O6 1.235 . S
C5 O32 1.289 . S
O6 C5 1.235 . S
C7 C9 1.400 . S
C7 N10 1.351 . S
C7 C12 1.501 . S
C8 C9 1.387 . S
C8 N11 1.341 . S
C9 C7 1.400 . S
C9 C8 1.387 . S
N10 Co1 2.022 1_556 S
N10 C7 1.351 . S
N10 N11 1.365 . S
N11 C8 1.341 . S
N11 N10 1.365 . S
N11 H31 0.862 . S
C12 C7 1.501 . S
C12 H13 0.961 1_556 S
C12 H14 0.961 . S
C12 H15 0.960 . S
H13 C12 0.961 1_554 S
H14 C12 0.961 . S
H15 C12 0.960 . S
C16 N17 1.342 . S
C16 C20 1.401 . S
C16 C21 1.499 . S
N17 Co0 1.989 . S
N17 C16 1.342 . S
N17 N18 1.388 . S
N18 Co1 1.993 . S
N18 N17 1.388 . S
N18 C19 1.346 . S
C19 N18 1.346 . S
C19 C20 1.396 . S
C19 C29 1.510 1_554 S
C20 C16 1.401 . S
C20 C19 1.396 . S
C21 C16 1.499 . S
C21 H22 0.959 . S
C21 H23 0.960 . S
C21 H24 0.961 . S
H22 C21 0.959 . S
H23 C21 0.960 . S
H24 C21 0.961 . S
O25 Co0 1.967 . S
O25 C33 1.258 . S
O26 Co1 1.941 . S
O26 C33 1.266 . S
H27 C29 0.959 . S
H28 C29 0.961 . S
C29 C19 1.510 1_556 S
C29 H27 0.959 . S
C29 H28 0.961 . S
C29 H30 0.960 . S
H30 C29 0.960 . S
H31 N11 0.862 . S
O32 Co0 1.920 . S
O32 C5 1.289 . S
C33 O25 1.258 . S
C33 O26 1.266 . S
Co34 O37 1.970 . S
Co34 N51 1.989 . S
Co34 O59 1.967 . S
Co34 O66 1.920 . S
Co35 O38 1.966 . S
Co35 N44 2.022 . S
Co35 N52 1.993 . S
Co35 O60 1.941 . S
C36 O37 1.258 . S
C36 O38 1.263 . S
O37 Co34 1.970 . S
O37 C36 1.258 . S
O38 Co35 1.966 . S
O38 C36 1.263 . S
C39 O40 1.235 . S
C39 O66 1.289 . S
O40 C39 1.235 . S
C41 C43 1.400 . S
C41 N44 1.351 . S
C41 C46 1.501 . S
C42 C43 1.387 . S
C42 N45 1.341 . S
C43 C41 1.400 . S
C43 C42 1.387 . S
N44 Co35 2.022 . S
N44 C41 1.351 . S
N44 N45 1.365 . S
N45 C42 1.341 . S
N45 N44 1.365 . S
N45 H65 0.862 . S
C46 C41 1.501 . S
C46 H47 0.961 . S
C46 H48 0.961 . S
C46 H49 0.960 . S
H47 C46 0.961 . S
H48 C46 0.961 . S
H49 C46 0.960 . S
C50 N51 1.342 . S
C50 C54 1.401 . S
C50 C55 1.499 . S
N51 Co34 1.989 . S
N51 C50 1.342 . S
N51 N52 1.388 . S
N52 Co35 1.993 . S
N52 N51 1.388 . S
N52 C53 1.346 . S
C53 N52 1.346 . S
C53 C54 1.396 . S
C53 C63 1.510 . S
C54 C50 1.401 . S
C54 C53 1.396 . S
C55 C50 1.499 . S
C55 H56 0.959 . S
C55 H57 0.960 . S
C55 H58 0.961 . S
H56 C55 0.959 . S
H57 C55 0.960 . S
H58 C55 0.961 . S
O59 Co34 1.967 . S
O59 C67 1.258 . S
O60 Co35 1.941 . S
O60 C67 1.266 . S
H61 C63 0.959 . S
H62 C63 0.961 . S
C63 C53 1.510 . S
C63 H61 0.959 . S
C63 H62 0.961 . S
C63 H64 0.960 . S
H64 C63 0.960 . S
H65 N45 0.862 . S
O66 Co34 1.920 . S
O66 C39 1.289 . S
C67 O59 1.258 . S
C67 O60 1.266 . S
Co68 O71 1.970 . S
Co68 N85 1.989 . S
Co68 O93 1.967 . S
Co68 O100 1.920 . S
Co69 O72 1.966 . S
Co69 N78 2.022 . S
Co69 N86 1.993 . S
Co69 O94 1.941 . S
C70 O71 1.258 . S
C70 O72 1.263 . S
O71 Co68 1.970 . S
O71 C70 1.258 . S
O72 Co69 1.966 . S
O72 C70 1.263 . S
C73 O74 1.235 . S
C73 O100 1.289 . S
O74 C73 1.235 . S
C75 C77 1.400 . S
C75 N78 1.351 . S
C75 C80 1.501 . S
C76 C77 1.387 . S
C76 N79 1.341 . S
C77 C75 1.400 . S
C77 C76 1.387 . S
N78 Co69 2.022 . S
N78 C75 1.351 . S
N78 N79 1.365 . S
N79 C76 1.341 . S
N79 N78 1.365 . S
N79 H99 0.862 . S
C80 C75 1.501 . S
C80 H81 0.961 . S
C80 H82 0.961 . S
C80 H83 0.960 . S
H81 C80 0.961 . S
H82 C80 0.961 . S
H83 C80 0.960 . S
C84 N85 1.342 . S
C84 C88 1.401 . S
C84 C89 1.499 . S
N85 Co68 1.989 . S
N85 C84 1.342 . S
N85 N86 1.388 . S
N86 Co69 1.993 . S
N86 N85 1.388 . S
N86 C87 1.346 . S
C87 N86 1.346 . S
C87 C88 1.396 . S
C87 C97 1.510 . S
C88 C84 1.401 . S
C88 C87 1.396 . S
C89 C84 1.499 . S
C89 H90 0.959 . S
C89 H91 0.960 . S
C89 H92 0.961 . S
H90 C89 0.959 . S
H91 C89 0.960 . S
H92 C89 0.961 . S
O93 Co68 1.967 . S
O93 C101 1.258 . S
O94 Co69 1.941 . S
O94 C101 1.266 . S
H95 C97 0.959 . S
H96 C97 0.961 . S
C97 C87 1.510 . S
C97 H95 0.959 . S
C97 H96 0.961 . S
C97 H98 0.960 . S
H98 C97 0.960 . S
H99 N79 0.862 . S
O100 Co68 1.920 . S
O100 C73 1.289 . S
C101 O93 1.258 . S
C101 O94 1.266 . S
Co102 O105 1.970 . S
Co102 N119 1.989 . S
Co102 O127 1.967 . S
Co102 O134 1.920 . S
Co103 O106 1.966 . S
Co103 N112 2.022 . S
Co103 N120 1.993 . S
Co103 O128 1.941 . S
C104 O105 1.258 . S
C104 O106 1.263 . S
O105 Co102 1.970 . S
O105 C104 1.258 . S
O106 Co103 1.966 . S
O106 C104 1.263 . S
C107 O108 1.235 . S
C107 O134 1.289 . S
O108 C107 1.235 . S
C109 C111 1.400 . S
C109 N112 1.351 . S
C109 C114 1.501 . S
C110 C111 1.387 . S
C110 N113 1.341 . S
C111 C109 1.400 . S
C111 C110 1.387 . S
N112 Co103 2.022 . S
N112 C109 1.351 . S
N112 N113 1.365 . S
N113 C110 1.341 . S
N113 N112 1.365 . S
N113 H133 0.862 . S
C114 C109 1.501 . S
C114 H115 0.961 . S
C114 H116 0.961 . S
C114 H117 0.960 . S
H115 C114 0.961 . S
H116 C114 0.961 . S
H117 C114 0.960 . S
C118 N119 1.342 . S
C118 C122 1.401 . S
C118 C123 1.499 . S
N119 Co102 1.989 . S
N119 C118 1.342 . S
N119 N120 1.388 . S
N120 Co103 1.993 . S
N120 N119 1.388 . S
N120 C121 1.346 . S
C121 N120 1.346 . S
C121 C122 1.396 . S
C121 C131 1.510 . S
C122 C118 1.401 . S
C122 C121 1.396 . S
C123 C118 1.499 . S
C123 H124 0.959 . S
C123 H125 0.960 . S
C123 H126 0.961 . S
H124 C123 0.959 . S
H125 C123 0.960 . S
H126 C123 0.961 . S
O127 Co102 1.967 . S
O127 C135 1.258 . S
O128 Co103 1.941 . S
O128 C135 1.266 . S
H129 C131 0.959 . S
H130 C131 0.961 . S
C131 C121 1.510 . S
C131 H129 0.959 . S
C131 H130 0.961 . S
C131 H132 0.960 . S
H132 C131 0.960 . S
H133 N113 0.862 . S
O134 Co102 1.920 . S
O134 C107 1.289 . S
C135 O127 1.258 . S
C135 O128 1.266 . S
Co136 O139 1.970 . S
Co136 N153 1.989 . S
Co136 O161 1.967 . S
Co136 O168 1.920 . S
Co137 O140 1.966 . S
Co137 N146 2.022 . S
Co137 N154 1.993 . S
Co137 O162 1.941 . S
C138 O139 1.258 . S
C138 O140 1.263 . S
O139 Co136 1.970 . S
O139 C138 1.258 . S
O140 Co137 1.966 . S
O140 C138 1.263 . S
C141 O142 1.235 . S
C141 O168 1.289 . S
O142 C141 1.235 . S
C143 C145 1.400 . S
C143 N146 1.351 . S
C143 C148 1.501 . S
C144 C145 1.387 . S
C144 N147 1.341 . S
C145 C143 1.400 . S
C145 C144 1.387 . S
N146 Co137 2.022 . S
N146 C143 1.351 . S
N146 N147 1.365 . S
N147 C144 1.341 . S
N147 N146 1.365 . S
N147 H167 0.862 . S
C148 C143 1.501 . S
C148 H149 0.961 . S
C148 H150 0.961 . S
C148 H151 0.960 . S
H149 C148 0.961 . S
H150 C148 0.961 . S
H151 C148 0.960 . S
C152 N153 1.342 . S
C152 C156 1.401 . S
C152 C157 1.499 . S
N153 Co136 1.989 . S
N153 C152 1.342 . S
N153 N154 1.388 . S
N154 Co137 1.993 . S
N154 N153 1.388 . S
N154 C155 1.346 . S
C155 N154 1.346 . S
C155 C156 1.396 . S
C155 C165 1.510 . S
C156 C152 1.401 . S
C156 C155 1.396 . S
C157 C152 1.499 . S
C157 H158 0.959 . S
C157 H159 0.960 . S
C157 H160 0.961 . S
H158 C157 0.959 . S
H159 C157 0.960 . S
H160 C157 0.961 . S
O161 Co136 1.967 . S
O161 C169 1.258 . S
O162 Co137 1.941 . S
O162 C169 1.266 . S
H163 C165 0.959 . S
H164 C165 0.961 . S
C165 C155 1.510 . S
C165 H163 0.959 . S
C165 H164 0.961 . S
C165 H166 0.960 . S
H166 C165 0.960 . S
H167 N147 0.862 . S
O168 Co136 1.920 . S
O168 C141 1.289 . S
C169 O161 1.258 . S
C169 O162 1.266 . S
Co170 O173 1.970 . S
Co170 N187 1.989 . S
Co170 O195 1.967 . S
Co170 O202 1.920 . S
Co171 O174 1.966 . S
Co171 N180 2.022 . S
Co171 N188 1.993 . S
Co171 O196 1.941 . S
C172 O173 1.258 . S
C172 O174 1.263 . S
O173 Co170 1.970 . S
O173 C172 1.258 . S
O174 Co171 1.966 . S
O174 C172 1.263 . S
C175 O176 1.235 . S
C175 O202 1.289 . S
O176 C175 1.235 . S
C177 C179 1.400 . S
C177 N180 1.351 . S
C177 C182 1.501 . S
C178 C179 1.387 . S
C178 N181 1.341 . S
C179 C177 1.400 . S
C179 C178 1.387 . S
N180 Co171 2.022 . S
N180 C177 1.351 . S
N180 N181 1.365 . S
N181 C178 1.341 . S
N181 N180 1.365 . S
N181 H201 0.862 . S
C182 C177 1.501 . S
C182 H183 0.961 . S
C182 H184 0.961 . S
C182 H185 0.960 . S
H183 C182 0.961 . S
H184 C182 0.961 . S
H185 C182 0.960 . S
C186 N187 1.342 . S
C186 C190 1.401 . S
C186 C191 1.499 . S
N187 Co170 1.989 . S
N187 C186 1.342 . S
N187 N188 1.388 . S
N188 Co171 1.993 . S
N188 N187 1.388 . S
N188 C189 1.346 . S
C189 N188 1.346 . S
C189 C190 1.396 . S
C189 C199 1.510 . S
C190 C186 1.401 . S
C190 C189 1.396 . S
C191 C186 1.499 . S
C191 H192 0.959 . S
C191 H193 0.960 . S
C191 H194 0.961 . S
H192 C191 0.959 . S
H193 C191 0.960 . S
H194 C191 0.961 . S
O195 Co170 1.967 . S
O195 C203 1.258 . S
O196 Co171 1.941 . S
O196 C203 1.266 . S
H197 C199 0.959 . S
H198 C199 0.961 . S
C199 C189 1.510 . S
C199 H197 0.959 . S
C199 H198 0.961 . S
C199 H200 0.960 . S
H200 C199 0.960 . S
H201 N181 0.862 . S
O202 Co170 1.920 . S
O202 C175 1.289 . S
C203 O195 1.258 . S
C203 O196 1.266 . S
Co204 O207 1.970 . S
Co204 N221 1.989 . S
Co204 O229 1.967 . S
Co204 O236 1.920 . S
Co205 O208 1.966 . S
Co205 N214 2.022 1_556 S
Co205 N222 1.993 . S
Co205 O230 1.941 . S
C206 O207 1.258 . S
C206 O208 1.263 . S
O207 Co204 1.970 . S
O207 C206 1.258 . S
O208 Co205 1.966 . S
O208 C206 1.263 . S
C209 O210 1.235 . S
C209 O236 1.289 . S
O210 C209 1.235 . S
C211 C213 1.400 . S
C211 N214 1.351 . S
C211 C216 1.501 . S
C212 C213 1.387 . S
C212 N215 1.341 . S
C213 C211 1.400 . S
C213 C212 1.387 . S
N214 Co205 2.022 1_554 S
N214 C211 1.351 . S
N214 N215 1.365 . S
N215 C212 1.341 . S
N215 N214 1.365 . S
N215 H235 0.862 . S
C216 C211 1.501 . S
C216 H217 0.961 1_554 S
C216 H218 0.961 . S
C216 H219 0.960 . S
H217 C216 0.961 1_556 S
H218 C216 0.961 . S
H219 C216 0.960 . S
C220 N221 1.342 . S
C220 C224 1.401 . S
C220 C225 1.499 . S
N221 Co204 1.989 . S
N221 C220 1.342 . S
N221 N222 1.388 . S
N222 Co205 1.993 . S
N222 N221 1.388 . S
N222 C223 1.346 . S
C223 N222 1.346 . S
C223 C224 1.396 . S
C223 C233 1.510 1_556 S
C224 C220 1.401 . S
C224 C223 1.396 . S
C225 C220 1.499 . S
C225 H226 0.959 . S
C225 H227 0.960 . S
C225 H228 0.961 . S
H226 C225 0.959 . S
H227 C225 0.960 . S
H228 C225 0.961 . S
O229 Co204 1.967 . S
O229 C237 1.258 . S
O230 Co205 1.941 . S
O230 C237 1.266 . S
H231 C233 0.959 . S
H232 C233 0.961 . S
C233 C223 1.510 1_554 S
C233 H231 0.959 . S
C233 H232 0.961 . S
C233 H234 0.960 . S
H234 C233 0.960 . S
H235 N215 0.862 . S
O236 Co204 1.920 . S
O236 C209 1.289 . S
C237 O229 1.258 . S
C237 O230 1.266 . S
Co238 O241 1.970 . S
Co238 N255 1.989 . S
Co238 O263 1.967 . S
Co238 O270 1.920 . S
Co239 O242 1.966 . S
Co239 N248 2.022 . S
Co239 N256 1.993 . S
Co239 O264 1.941 . S
C240 O241 1.258 . S
C240 O242 1.263 . S
O241 Co238 1.970 . S
O241 C240 1.258 . S
O242 Co239 1.966 . S
O242 C240 1.263 . S
C243 O244 1.235 . S
C243 O270 1.289 . S
O244 C243 1.235 . S
C245 C247 1.400 . S
C245 N248 1.351 . S
C245 C250 1.501 . S
C246 C247 1.387 . S
C246 N249 1.341 . S
C247 C245 1.400 . S
C247 C246 1.387 . S
N248 Co239 2.022 . S
N248 C245 1.351 . S
N248 N249 1.365 . S
N249 C246 1.341 . S
N249 N248 1.365 . S
N249 H269 0.862 . S
C250 C245 1.501 . S
C250 H251 0.961 . S
C250 H252 0.961 . S
C250 H253 0.960 . S
H251 C250 0.961 . S
H252 C250 0.961 . S
H253 C250 0.960 . S
C254 N255 1.342 . S
C254 C258 1.401 . S
C254 C259 1.499 . S
N255 Co238 1.989 . S
N255 C254 1.342 . S
N255 N256 1.388 . S
N256 Co239 1.993 . S
N256 N255 1.388 . S
N256 C257 1.346 . S
C257 N256 1.346 . S
C257 C258 1.396 . S
C257 C267 1.510 . S
C258 C254 1.401 . S
C258 C257 1.396 . S
C259 C254 1.499 . S
C259 H260 0.959 . S
C259 H261 0.960 . S
C259 H262 0.961 . S
H260 C259 0.959 . S
H261 C259 0.960 . S
H262 C259 0.961 . S
O263 Co238 1.967 . S
O263 C271 1.258 . S
O264 Co239 1.941 . S
O264 C271 1.266 . S
H265 C267 0.959 . S
H266 C267 0.961 . S
C267 C257 1.510 . S
C267 H265 0.959 . S
C267 H266 0.961 . S
C267 H268 0.960 . S
H268 C267 0.960 . S
H269 N249 0.862 . S
O270 Co238 1.920 . S
O270 C243 1.289 . S
C271 O263 1.258 . S
C271 O264 1.266 . S
H272 C278 0.930 . S
H273 C281 0.930 . S
H274 C282 0.930 . S
H275 C283 0.930 . S
H276 C286 0.930 . S
H277 C287 0.930 . S
C278 H272 0.930 . S
C278 C279 1.355 . S
C278 C280 1.415 . S
C279 C278 1.355 . S
C279 C281 1.419 . S
C280 C278 1.415 . S
C280 C285 1.425 . S
C280 C287 1.409 . S
C281 H273 0.930 . S
C281 C279 1.419 . S
C281 C282 1.362 . S
C282 H274 0.930 . S
C282 C281 1.362 . S
C282 C285 1.409 . S
C283 H275 0.930 . S
C283 C284 1.355 . S
C283 C285 1.415 . S
C284 C283 1.355 . S
C284 C286 1.419 . S
C285 C280 1.425 . S
C285 C282 1.409 . S
C285 C283 1.415 . S
C286 H276 0.930 . S
C286 C284 1.419 . S
C286 C287 1.362 . S
C287 H277 0.930 . S
C287 C280 1.409 . S
C287 C286 1.362 . S
H288 C294 0.930 . S
H289 C297 0.930 . S
H290 C298 0.930 . S
H291 C299 0.930 . S
H292 C302 0.930 . S
H293 C303 0.930 . S
C294 H288 0.930 . S
C294 C295 1.355 . S
C294 C296 1.415 . S
C295 C294 1.355 . S
C295 C297 1.419 . S
C296 C294 1.415 . S
C296 C301 1.425 . S
C296 C303 1.409 . S
C297 H289 0.930 . S
C297 C295 1.419 . S
C297 C298 1.362 . S
C298 H290 0.930 . S
C298 C297 1.362 . S
C298 C301 1.409 . S
C299 H291 0.930 . S
C299 C300 1.355 . S
C299 C301 1.415 . S
C300 C299 1.355 . S
C300 C302 1.419 . S
C301 C296 1.425 . S
C301 C298 1.409 . S
C301 C299 1.415 . S
C302 H292 0.930 . S
C302 C300 1.419 . S
C302 C303 1.362 . S
C303 H293 0.930 . S
C303 C296 1.409 . S
C303 C302 1.362 . S
H304 C310 0.930 . S
H305 C313 0.930 . S
H306 C314 0.930 . S
H307 C315 0.930 . S
H308 C318 0.930 . S
H309 C319 0.930 . S
C310 H304 0.930 . S
C310 C311 1.355 . S
C310 C312 1.415 . S
C311 C310 1.355 . S
C311 C313 1.419 . S
C312 C310 1.415 . S
C312 C317 1.425 . S
C312 C319 1.409 . S
C313 H305 0.930 . S
C313 C311 1.419 . S
C313 C314 1.362 . S
C314 H306 0.930 . S
C314 C313 1.362 . S
C314 C317 1.409 . S
C315 H307 0.930 . S
C315 C316 1.355 . S
C315 C317 1.415 . S
C316 C315 1.355 . S
C316 C318 1.419 . S
C317 C312 1.425 . S
C317 C314 1.409 . S
C317 C315 1.415 . S
C318 H308 0.930 . S
C318 C316 1.419 . S
C318 C319 1.362 . S
C319 H309 0.930 . S
C319 C312 1.409 . S
C319 C318 1.362 . S
H320 C326 0.930 . S
H321 C329 0.930 . S
H322 C330 0.930 . S
H323 C331 0.930 . S
H324 C334 0.930 . S
H325 C335 0.930 . S
C326 H320 0.930 . S
C326 C327 1.355 . S
C326 C328 1.415 . S
C327 C326 1.355 . S
C327 C329 1.419 . S
C328 C326 1.415 . S
C328 C333 1.425 1_556 S
C328 C335 1.409 1_556 S
C329 H321 0.930 . S
C329 C327 1.419 . S
C329 C330 1.362 . S
C330 H322 0.930 . S
C330 C329 1.362 . S
C330 C333 1.409 1_556 S
C331 H323 0.930 . S
C331 C332 1.355 . S
C331 C333 1.415 . S
C332 C331 1.355 . S
C332 C334 1.419 . S
C333 C328 1.425 1_554 S
C333 C330 1.409 1_554 S
C333 C331 1.415 . S
C334 H324 0.930 . S
C334 C332 1.419 . S
C334 C335 1.362 . S
C335 H325 0.930 . S
C335 C328 1.409 1_554 S
C335 C334 1.362 . S
H336 C342 0.930 . S
H337 C345 0.930 . S
H338 C346 0.930 . S
H339 C347 0.930 . S
H340 C350 0.930 . S
H341 C351 0.930 . S
C342 H336 0.930 . S
C342 C343 1.355 1_556 S
C342 C344 1.415 . S
C343 C342 1.355 1_554 S
C343 C345 1.419 . S
C344 C342 1.415 . S
C344 C349 1.425 1_456 S
C344 C351 1.409 1_455 S
C345 H337 0.930 . S
C345 C343 1.419 . S
C345 C346 1.362 . S
C346 H338 0.930 . S
C346 C345 1.362 . S
C346 C349 1.409 1_455 S
C347 H339 0.930 . S
C347 C348 1.355 1_554 S
C347 C349 1.415 . S
C348 C347 1.355 1_556 S
C348 C350 1.419 . S
C349 C344 1.425 1_654 S
C349 C346 1.409 1_655 S
C349 C347 1.415 . S
C350 H340 0.930 . S
C350 C348 1.419 . S
C350 C351 1.362 . S
C351 H341 0.930 . S
C351 C344 1.409 1_655 S
C351 C350 1.362 . S
H352 C358 0.930 . S
H353 C361 0.930 . S
H354 C362 0.930 1_565 S
H355 C363 0.930 . S
H356 C366 0.930 . S
H357 C367 0.930 1_545 S
C358 H352 0.930 . S
C358 C359 1.355 . S
C358 C360 1.415 . S
C359 C358 1.355 . S
C359 C361 1.419 . S
C360 C358 1.415 . S
C360 C365 1.425 1_545 S
C360 C367 1.409 1_545 S
C361 H353 0.930 . S
C361 C359 1.419 . S
C361 C362 1.362 . S
C362 H354 0.930 1_545 S
C362 C361 1.362 . S
C362 C365 1.409 1_545 S
C363 H355 0.930 . S
C363 C364 1.355 . S
C363 C365 1.415 . S
C364 C363 1.355 . S
C364 C366 1.419 . S
C365 C360 1.425 1_565 S
C365 C362 1.409 1_565 S
C365 C363 1.415 . S
C366 H356 0.930 . S
C366 C364 1.419 . S
C366 C367 1.362 . S
C367 H357 0.930 1_565 S
C367 C360 1.409 1_565 S
C367 C366 1.362 . S
H368 C374 0.930 . S
H369 C377 0.930 . S
H370 C378 0.930 1_655 S
H371 C379 0.930 . S
H372 C382 0.930 . S
H373 C383 0.930 1_455 S
C374 H368 0.930 . S
C374 C375 1.355 . S
C374 C376 1.415 . S
C375 C374 1.355 . S
C375 C377 1.419 . S
C376 C374 1.415 . S
C376 C381 1.425 1_455 S
C376 C383 1.409 1_455 S
C377 H369 0.930 . S
C377 C375 1.419 . S
C377 C378 1.362 . S
C378 H370 0.930 1_455 S
C378 C377 1.362 . S
C378 C381 1.409 1_455 S
C379 H371 0.930 . S
C379 C380 1.355 . S
C379 C381 1.415 . S
C380 C379 1.355 . S
C380 C382 1.419 . S
C381 C376 1.425 1_655 S
C381 C378 1.409 1_655 S
C381 C379 1.415 . S
C382 H372 0.930 . S
C382 C380 1.419 . S
C382 C383 1.362 . S
C383 H373 0.930 1_655 S
C383 C376 1.409 1_655 S
C383 C382 1.362 . S
H384 C390 0.930 . S
H385 C393 0.930 . S
H386 C394 0.930 . S
H387 C395 0.930 . S
H388 C398 0.930 . S
H389 C399 0.930 . S
C390 H384 0.930 . S
C390 C391 1.355 . S
C390 C392 1.415 . S
C391 C390 1.355 . S
C391 C393 1.419 . S
C392 C390 1.415 . S
C392 C397 1.425 1_545 S
C392 C399 1.409 1_545 S
C393 H385 0.930 . S
C393 C391 1.419 . S
C393 C394 1.362 . S
C394 H386 0.930 . S
C394 C393 1.362 . S
C394 C397 1.409 1_545 S
C395 H387 0.930 . S
C395 C396 1.355 . S
C395 C397 1.415 . S
C396 C395 1.355 . S
C396 C398 1.419 . S
C397 C392 1.425 1_565 S
C397 C394 1.409 1_565 S
C397 C395 1.415 . S
C398 H388 0.930 . S
C398 C396 1.419 . S
C398 C399 1.362 . S
C399 H389 0.930 . S
C399 C392 1.409 1_565 S
C399 C398 1.362 . S
H400 C406 0.930 . S
H401 C409 0.930 . S
H402 C410 0.930 . S
H403 C411 0.930 . S
H404 C414 0.930 . S
H405 C415 0.930 . S
C406 H400 0.930 . S
C406 C407 1.355 . S
C406 C408 1.415 . S
C407 C406 1.355 . S
C407 C409 1.419 . S
C408 C406 1.415 . S
C408 C413 1.425 . S
C408 C415 1.409 . S
C409 H401 0.930 . S
C409 C407 1.419 . S
C409 C410 1.362 . S
C410 H402 0.930 . S
C410 C409 1.362 . S
C410 C413 1.409 . S
C411 H403 0.930 . S
C411 C412 1.355 . S
C411 C413 1.415 . S
C412 C411 1.355 . S
C412 C414 1.419 . S
C413 C408 1.425 . S
C413 C410 1.409 . S
C413 C411 1.415 . S
C414 H404 0.930 . S
C414 C412 1.419 . S
C414 C415 1.362 . S
C415 H405 0.930 . S
C415 C408 1.409 . S
C415 C414 1.362 . S
H416 C422 0.930 . S
H417 C425 0.930 . S
H418 C426 0.930 . S
H419 C427 0.930 . S
H420 C430 0.930 . S
H421 C431 0.930 . S
C422 H416 0.930 . S
C422 C423 1.355 . S
C422 C424 1.415 . S
C423 C422 1.355 . S
C423 C425 1.419 . S
C424 C422 1.415 . S
C424 C429 1.425 . S
C424 C431 1.409 . S
C425 H417 0.930 . S
C425 C423 1.419 . S
C425 C426 1.362 . S
C426 H418 0.930 . S
C426 C425 1.362 . S
C426 C429 1.409 . S
C427 H419 0.930 . S
C427 C428 1.355 . S
C427 C429 1.415 . S
C428 C427 1.355 . S
C428 C430 1.419 . S
C429 C424 1.425 . S
C429 C426 1.409 . S
C429 C427 1.415 . S
C430 H420 0.930 . S
C430 C428 1.419 . S
C430 C431 1.362 . S
C431 H421 0.930 . S
C431 C424 1.409 . S
C431 C430 1.362 . S
H432 C438 0.930 . S
H433 C441 0.930 . S
H434 C442 0.930 . S
H435 C443 0.930 . S
H436 C446 0.930 . S
H437 C447 0.930 . S
C438 H432 0.930 . S
C438 C439 1.355 . S
C438 C440 1.415 . S
C439 C438 1.355 . S
C439 C441 1.419 . S
C440 C438 1.415 . S
C440 C445 1.425 . S
C440 C447 1.409 . S
C441 H433 0.930 . S
C441 C439 1.419 . S
C441 C442 1.362 . S
C442 H434 0.930 . S
C442 C441 1.362 . S
C442 C445 1.409 . S
C443 H435 0.930 . S
C443 C444 1.355 . S
C443 C445 1.415 . S
C444 C443 1.355 . S
C444 C446 1.419 . S
C445 C440 1.425 . S
C445 C442 1.409 . S
C445 C443 1.415 . S
C446 H436 0.930 . S
C446 C444 1.419 . S
C446 C447 1.362 . S
C447 H437 0.930 . S
C447 C440 1.409 . S
C447 C446 1.362 . S
H448 C454 0.930 . S
H449 C457 0.930 . S
H450 C458 0.930 . S
H451 C459 0.930 . S
H452 C462 0.930 . S
H453 C463 0.930 . S
C454 H448 0.930 . S
C454 C455 1.355 . S
C454 C456 1.415 . S
C455 C454 1.355 . S
C455 C457 1.419 . S
C456 C454 1.415 . S
C456 C461 1.425 . S
C456 C463 1.409 . S
C457 H449 0.930 . S
C457 C455 1.419 . S
C457 C458 1.362 . S
C458 H450 0.930 . S
C458 C457 1.362 . S
C458 C461 1.409 . S
C459 H451 0.930 . S
C459 C460 1.355 . S
C459 C461 1.415 . S
C460 C459 1.355 . S
C460 C462 1.419 . S
C461 C456 1.425 . S
C461 C458 1.409 . S
C461 C459 1.415 . S
C462 H452 0.930 . S
C462 C460 1.419 . S
C462 C463 1.362 . S
C463 H453 0.930 . S
C463 C456 1.409 . S
C463 C462 1.362 . S
H464 C470 0.930 . S
H465 C473 0.930 . S
H466 C474 0.930 . S
H467 C475 0.930 . S
H468 C478 0.930 . S
H469 C479 0.930 . S
C470 H464 0.930 . S
C470 C471 1.355 . S
C470 C472 1.415 . S
C471 C470 1.355 . S
C471 C473 1.419 . S
C472 C470 1.415 . S
C472 C477 1.425 . S
C472 C479 1.409 . S
C473 H465 0.930 . S
C473 C471 1.419 . S
C473 C474 1.362 . S
C474 H466 0.930 . S
C474 C473 1.362 . S
C474 C477 1.409 . S
C475 H467 0.930 . S
C475 C476 1.355 . S
C475 C477 1.415 . S
C476 C475 1.355 . S
C476 C478 1.419 . S
C477 C472 1.425 . S
C477 C474 1.409 . S
C477 C475 1.415 . S
C478 H468 0.930 . S
C478 C476 1.419 . S
C478 C479 1.362 . S
C479 H469 0.930 . S
C479 C472 1.409 . S
C479 C478 1.362 . S
H480 C486 0.930 . S
H481 C489 0.930 . S
H482 C490 0.930 . S
H483 C491 0.930 . S
H484 C494 0.930 . S
H485 C495 0.930 . S
C486 H480 0.930 . S
C486 C487 1.355 . S
C486 C488 1.415 . S
C487 C486 1.355 . S
C487 C489 1.419 . S
C488 C486 1.415 . S
C488 C493 1.425 . S
C488 C495 1.409 . S
C489 H481 0.930 . S
C489 C487 1.419 . S
C489 C490 1.362 . S
C490 H482 0.930 . S
C490 C489 1.362 . S
C490 C493 1.409 . S
C491 H483 0.930 . S
C491 C492 1.355 . S
C491 C493 1.415 . S
C492 C491 1.355 . S
C492 C494 1.419 . S
C493 C488 1.425 . S
C493 C490 1.409 . S
C493 C491 1.415 . S
C494 H484 0.930 . S
C494 C492 1.419 . S
C494 C495 1.362 . S
C495 H485 0.930 . S
C495 C488 1.409 . S
C495 C494 1.362 . S
H496 C502 0.930 . S
H497 C505 0.930 . S
H498 C506 0.930 . S
H499 C507 0.930 . S
H500 C510 0.930 . S
H501 C511 0.930 . S
C502 H496 0.930 . S
C502 C503 1.355 . S
C502 C504 1.415 . S
C503 C502 1.355 . S
C503 C505 1.419 . S
C504 C502 1.415 . S
C504 C509 1.425 . S
C504 C511 1.409 . S
C505 H497 0.930 . S
C505 C503 1.419 . S
C505 C506 1.362 . S
C506 H498 0.930 . S
C506 C505 1.362 . S
C506 C509 1.409 . S
C507 H499 0.930 . S
C507 C508 1.355 . S
C507 C509 1.415 . S
C508 C507 1.355 . S
C508 C510 1.419 . S
C509 C504 1.425 . S
C509 C506 1.409 . S
C509 C507 1.415 . S
C510 H500 0.930 . S
C510 C508 1.419 . S
C510 C511 1.362 . S
C511 H501 0.930 . S
C511 C504 1.409 . S
C511 C510 1.362 . S
H512 C518 0.930 . S
H513 C521 0.930 . S
H514 C522 0.930 . S
H515 C523 0.930 . S
H516 C526 0.930 . S
H517 C527 0.930 . S
C518 H512 0.930 . S
C518 C519 1.355 . S
C518 C520 1.415 . S
C519 C518 1.355 . S
C519 C521 1.419 . S
C520 C518 1.415 . S
C520 C525 1.425 . S
C520 C527 1.409 . S
C521 H513 0.930 . S
C521 C519 1.419 . S
C521 C522 1.362 . S
C522 H514 0.930 . S
C522 C521 1.362 . S
C522 C525 1.409 . S
C523 H515 0.930 . S
C523 C524 1.355 . S
C523 C525 1.415 . S
C524 C523 1.355 . S
C524 C526 1.419 . S
C525 C520 1.425 . S
C525 C522 1.409 . S
C525 C523 1.415 . S
C526 H516 0.930 . S
C526 C524 1.419 . S
C526 C527 1.362 . S
C527 H517 0.930 . S
C527 C520 1.409 . S
C527 C526 1.362 . S
H528 C534 0.930 . S
H529 C537 0.930 . S
H530 C538 0.930 . S
H531 C539 0.930 . S
H532 C542 0.930 . S
H533 C543 0.930 . S
C534 H528 0.930 . S
C534 C535 1.355 . S
C534 C536 1.415 . S
C535 C534 1.355 . S
C535 C537 1.419 . S
C536 C534 1.415 . S
C536 C541 1.425 . S
C536 C543 1.409 . S
C537 H529 0.930 . S
C537 C535 1.419 . S
C537 C538 1.362 . S
C538 H530 0.930 . S
C538 C537 1.362 . S
C538 C541 1.409 . S
C539 H531 0.930 . S
C539 C540 1.355 . S
C539 C541 1.415 . S
C540 C539 1.355 . S
C540 C542 1.419 . S
C541 C536 1.425 . S
C541 C538 1.409 . S
C541 C539 1.415 . S
C542 H532 0.930 . S
C542 C540 1.419 . S
C542 C543 1.362 . S
C543 H533 0.930 . S
C543 C536 1.409 . S
C543 C542 1.362 . S
H544 C550 0.930 . S
H545 C553 0.930 . S
H546 C554 0.930 . S
H547 C555 0.930 . S
H548 C558 0.930 . S
H549 C559 0.930 . S
C550 H544 0.930 . S
C550 C551 1.355 . S
C550 C552 1.415 . S
C551 C550 1.355 . S
C551 C553 1.419 . S
C552 C550 1.415 . S
C552 C557 1.425 . S
C552 C559 1.409 . S
C553 H545 0.930 . S
C553 C551 1.419 . S
C553 C554 1.362 . S
C554 H546 0.930 . S
C554 C553 1.362 . S
C554 C557 1.409 . S
C555 H547 0.930 . S
C555 C556 1.355 . S
C555 C557 1.415 . S
C556 C555 1.355 . S
C556 C558 1.419 . S
C557 C552 1.425 . S
C557 C554 1.409 . S
C557 C555 1.415 . S
C558 H548 0.930 . S
C558 C556 1.419 . S
C558 C559 1.362 . S
C559 H549 0.930 . S
C559 C552 1.409 . S
C559 C558 1.362 . S
H560 C566 0.930 . S
H561 C569 0.930 . S
H562 C570 0.930 . S
H563 C571 0.930 . S
H564 C574 0.930 . S
H565 C575 0.930 . S
C566 H560 0.930 . S
C566 C567 1.355 . S
C566 C568 1.415 . S
C567 C566 1.355 . S
C567 C569 1.419 . S
C568 C566 1.415 . S
C568 C573 1.425 . S
C568 C575 1.409 . S
C569 H561 0.930 . S
C569 C567 1.419 . S
C569 C570 1.362 . S
C570 H562 0.930 . S
C570 C569 1.362 . S
C570 C573 1.409 . S
C571 H563 0.930 . S
C571 C572 1.355 . S
C571 C573 1.415 . S
C572 C571 1.355 . S
C572 C574 1.419 . S
C573 C568 1.425 . S
C573 C570 1.409 . S
C573 C571 1.415 . S
C574 H564 0.930 . S
C574 C572 1.419 . S
C574 C575 1.362 . S
C575 H565 0.930 . S
C575 C568 1.409 . S
C575 C574 1.362 . S
H576 C582 0.930 . S
H577 C585 0.930 . S
H578 C586 0.930 . S
H579 C587 0.930 . S
H580 C590 0.930 . S
H581 C591 0.930 . S
C582 H576 0.930 . S
C582 C583 1.355 . S
C582 C584 1.415 . S
C583 C582 1.355 . S
C583 C585 1.419 . S
C584 C582 1.415 . S
C584 C589 1.425 . S
C584 C591 1.409 . S
C585 H577 0.930 . S
C585 C583 1.419 . S
C585 C586 1.362 . S
C586 H578 0.930 . S
C586 C585 1.362 . S
C586 C589 1.409 . S
C587 H579 0.930 . S
C587 C588 1.355 . S
C587 C589 1.415 . S
C588 C587 1.355 . S
C588 C590 1.419 . S
C589 C584 1.425 . S
C589 C586 1.409 . S
C589 C587 1.415 . S
C590 H580 0.930 . S
C590 C588 1.419 . S
C590 C591 1.362 . S
C591 H581 0.930 . S
C591 C584 1.409 . S
C591 C590 1.362 . S
C279 C141 1.291 . S
C284 C5 1.275 . S
C295 C39 1.299 . S
C300 C175 1.270 . S
C311 C73 1.327 . S
C316 C209 1.284 . S
C327 C107 1.318 . S
C332 C243 1.305 . S
C343 C20 1.187 . S
C348 C224 1.220 . S
C359 C54 1.179 . S
C364 C258 1.191 . S
C375 C156 1.181 . S
C380 C88 1.188 . S
C391 C190 1.231 . S
C396 C122 1.200 . S
C407 C240 1.000 . S
C412 C2 1.000 . S
C423 C36 1.035 . S
C428 C138 1.041 . S
C439 C172 1.054 . S
C444 C70 1.053 . S
C455 C206 1.051 . S
C460 C104 1.053 . S
C471 C33 1.417 . S
C476 C43 1.465 . S
C487 C67 1.414 . S
C492 C77 1.467 . S
C503 C111 1.461 . S
C508 C101 1.422 . S
C519 C9 1.465 . S
C524 C135 1.417 . S
C535 C169 1.432 . S
C540 C247 1.452 . S
C551 C145 1.406 . S
C556 C203 1.468 . S
C567 C237 1.470 . S
C572 C179 1.405 . S
C583 C271 1.430 . S
C588 C213 1.453 . S
