# Generated by pormake.
# Topology uox, (4)-cn, num edge types: 1
# Building blocks:
#     Node 0, Type 0, BuildingBlock: KUFVIS_clean_sbu_0, # of connection points: 4
#     Node 1, Type 0, BuildingBlock: KUFVIS_clean_sbu_0, # of connection points: 4
#     Node 2, Type 0, BuildingBlock: KUFVIS_clean_sbu_0, # of connection points: 4
#     Node 3, Type 0, BuildingBlock: KUFVIS_clean_sbu_0, # of connection points: 4
#     Node 4, Type 0, BuildingBlock: KUFVIS_clean_sbu_0, # of connection points: 4
#     Node 5, Type 0, BuildingBlock: KUFVIS_clean_sbu_0, # of connection points: 4
#     Node 6, Type 0, BuildingBlock: KUFVIS_clean_sbu_0, # of connection points: 4
#     Node 7, Type 0, BuildingBlock: KUFVIS_clean_sbu_0, # of connection points: 4
#     Node 8, Type 0, BuildingBlock: KUFVIS_clean_sbu_0, # of connection points: 4
#     Node 9, Type 0, BuildingBlock: KUFVIS_clean_sbu_0, # of connection points: 4
#     Node 10, Type 0, BuildingBlock: KUFVIS_clean_sbu_0, # of connection points: 4
#     Node 11, Type 0, BuildingBlock: KUFVIS_clean_sbu_0, # of connection points: 4
#     Node 12, Type 0, BuildingBlock: KUFVIS_clean_sbu_0, # of connection points: 4
#     Node 13, Type 0, BuildingBlock: KUFVIS_clean_sbu_0, # of connection points: 4
#     Node 14, Type 0, BuildingBlock: KUFVIS_clean_sbu_0, # of connection points: 4
#     Node 15, Type 0, BuildingBlock: KUFVIS_clean_sbu_0, # of connection points: 4
#     Node 16, Type 0, BuildingBlock: KUFVIS_clean_sbu_0, # of connection points: 4
#     Node 17, Type 0, BuildingBlock: KUFVIS_clean_sbu_0, # of connection points: 4
#     Node 18, Type 0, BuildingBlock: KUFVIS_clean_sbu_0, # of connection points: 4
#     Node 19, Type 0, BuildingBlock: KUFVIS_clean_sbu_0, # of connection points: 4
#     Node 20, Type 0, BuildingBlock: KUFVIS_clean_sbu_0, # of connection points: 4
#     Node 21, Type 0, BuildingBlock: KUFVIS_clean_sbu_0, # of connection points: 4
#     Node 22, Type 0, BuildingBlock: KUFVIS_clean_sbu_0, # of connection points: 4
#     Node 23, Type 0, BuildingBlock: KUFVIS_clean_sbu_0, # of connection points: 4
#     Node 24, Type 0, BuildingBlock: KUFVIS_clean_sbu_0, # of connection points: 4
#     Node 25, Type 0, BuildingBlock: KUFVIS_clean_sbu_0, # of connection points: 4
#     Node 26, Type 0, BuildingBlock: KUFVIS_clean_sbu_0, # of connection points: 4
#     Node 27, Type 0, BuildingBlock: KUFVIS_clean_sbu_0, # of connection points: 4
#     Node 28, Type 0, BuildingBlock: KUFVIS_clean_sbu_0, # of connection points: 4
#     Node 29, Type 0, BuildingBlock: KUFVIS_clean_sbu_0, # of connection points: 4
#     Node 30, Type 0, BuildingBlock: KUFVIS_clean_sbu_0, # of connection points: 4
#     Node 31, Type 0, BuildingBlock: KUFVIS_clean_sbu_0, # of connection points: 4
#     Edge 32, Type (0, 0), BuildingBlock: XIVTED_clean_linker_0, # of connection points: 2
#     Edge 33, Type (0, 0), BuildingBlock: XIVTED_clean_linker_0, # of connection points: 2
#     Edge 34, Type (0, 0), BuildingBlock: XIVTED_clean_linker_0, # of connection points: 2
#     Edge 35, Type (0, 0), BuildingBlock: XIVTED_clean_linker_0, # of connection points: 2
#     Edge 36, Type (0, 0), BuildingBlock: XIVTED_clean_linker_0, # of connection points: 2
#     Edge 37, Type (0, 0), BuildingBlock: XIVTED_clean_linker_0, # of connection points: 2
#     Edge 38, Type (0, 0), BuildingBlock: XIVTED_clean_linker_0, # of connection points: 2
#     Edge 39, Type (0, 0), BuildingBlock: XIVTED_clean_linker_0, # of connection points: 2
#     Edge 40, Type (0, 0), BuildingBlock: XIVTED_clean_linker_0, # of connection points: 2
#     Edge 41, Type (0, 0), BuildingBlock: XIVTED_clean_linker_0, # of connection points: 2
#     Edge 42, Type (0, 0), BuildingBlock: XIVTED_clean_linker_0, # of connection points: 2
#     Edge 43, Type (0, 0), BuildingBlock: XIVTED_clean_linker_0, # of connection points: 2
#     Edge 44, Type (0, 0), BuildingBlock: XIVTED_clean_linker_0, # of connection points: 2
#     Edge 45, Type (0, 0), BuildingBlock: XIVTED_clean_linker_0, # of connection points: 2
#     Edge 46, Type (0, 0), BuildingBlock: XIVTED_clean_linker_0, # of connection points: 2
#     Edge 47, Type (0, 0), BuildingBlock: XIVTED_clean_linker_0, # of connection points: 2
#     Edge 48, Type (0, 0), BuildingBlock: XIVTED_clean_linker_0, # of connection points: 2
#     Edge 49, Type (0, 0), BuildingBlock: XIVTED_clean_linker_0, # of connection points: 2
#     Edge 50, Type (0, 0), BuildingBlock: XIVTED_clean_linker_0, # of connection points: 2
#     Edge 51, Type (0, 0), BuildingBlock: XIVTED_clean_linker_0, # of connection points: 2
#     Edge 52, Type (0, 0), BuildingBlock: XIVTED_clean_linker_0, # of connection points: 2
#     Edge 53, Type (0, 0), BuildingBlock: XIVTED_clean_linker_0, # of connection points: 2
#     Edge 54, Type (0, 0), BuildingBlock: XIVTED_clean_linker_0, # of connection points: 2
#     Edge 55, Type (0, 0), BuildingBlock: XIVTED_clean_linker_0, # of connection points: 2
#     Edge 56, Type (0, 0), BuildingBlock: XIVTED_clean_linker_0, # of connection points: 2
#     Edge 57, Type (0, 0), BuildingBlock: XIVTED_clean_linker_0, # of connection points: 2
#     Edge 58, Type (0, 0), BuildingBlock: XIVTED_clean_linker_0, # of connection points: 2
#     Edge 59, Type (0, 0), BuildingBlock: XIVTED_clean_linker_0, # of connection points: 2
#     Edge 60, Type (0, 0), BuildingBlock: XIVTED_clean_linker_0, # of connection points: 2
#     Edge 61, Type (0, 0), BuildingBlock: XIVTED_clean_linker_0, # of connection points: 2
#     Edge 62, Type (0, 0), BuildingBlock: XIVTED_clean_linker_0, # of connection points: 2
#     Edge 63, Type (0, 0), BuildingBlock: XIVTED_clean_linker_0, # of connection points: 2
#     Edge 64, Type (0, 0), BuildingBlock: XIVTED_clean_linker_0, # of connection points: 2
#     Edge 65, Type (0, 0), BuildingBlock: XIVTED_clean_linker_0, # of connection points: 2
#     Edge 66, Type (0, 0), BuildingBlock: XIVTED_clean_linker_0, # of connection points: 2
#     Edge 67, Type (0, 0), BuildingBlock: XIVTED_clean_linker_0, # of connection points: 2
#     Edge 68, Type (0, 0), BuildingBlock: XIVTED_clean_linker_0, # of connection points: 2
#     Edge 69, Type (0, 0), BuildingBlock: XIVTED_clean_linker_0, # of connection points: 2
#     Edge 70, Type (0, 0), BuildingBlock: XIVTED_clean_linker_0, # of connection points: 2
#     Edge 71, Type (0, 0), BuildingBlock: XIVTED_clean_linker_0, # of connection points: 2
#     Edge 72, Type (0, 0), BuildingBlock: XIVTED_clean_linker_0, # of connection points: 2
#     Edge 73, Type (0, 0), BuildingBlock: XIVTED_clean_linker_0, # of connection points: 2
#     Edge 74, Type (0, 0), BuildingBlock: XIVTED_clean_linker_0, # of connection points: 2
#     Edge 75, Type (0, 0), BuildingBlock: XIVTED_clean_linker_0, # of connection points: 2
#     Edge 76, Type (0, 0), BuildingBlock: XIVTED_clean_linker_0, # of connection points: 2
#     Edge 77, Type (0, 0), BuildingBlock: XIVTED_clean_linker_0, # of connection points: 2
#     Edge 78, Type (0, 0), BuildingBlock: XIVTED_clean_linker_0, # of connection points: 2
#     Edge 79, Type (0, 0), BuildingBlock: XIVTED_clean_linker_0, # of connection points: 2
#     Edge 80, Type (0, 0), BuildingBlock: XIVTED_clean_linker_0, # of connection points: 2
#     Edge 81, Type (0, 0), BuildingBlock: XIVTED_clean_linker_0, # of connection points: 2
#     Edge 82, Type (0, 0), BuildingBlock: XIVTED_clean_linker_0, # of connection points: 2
#     Edge 83, Type (0, 0), BuildingBlock: XIVTED_clean_linker_0, # of connection points: 2
#     Edge 84, Type (0, 0), BuildingBlock: XIVTED_clean_linker_0, # of connection points: 2
#     Edge 85, Type (0, 0), BuildingBlock: XIVTED_clean_linker_0, # of connection points: 2
#     Edge 86, Type (0, 0), BuildingBlock: XIVTED_clean_linker_0, # of connection points: 2
#     Edge 87, Type (0, 0), BuildingBlock: XIVTED_clean_linker_0, # of connection points: 2
#     Edge 88, Type (0, 0), BuildingBlock: XIVTED_clean_linker_0, # of connection points: 2
#     Edge 89, Type (0, 0), BuildingBlock: XIVTED_clean_linker_0, # of connection points: 2
#     Edge 90, Type (0, 0), BuildingBlock: XIVTED_clean_linker_0, # of connection points: 2
#     Edge 91, Type (0, 0), BuildingBlock: XIVTED_clean_linker_0, # of connection points: 2
#     Edge 92, Type (0, 0), BuildingBlock: XIVTED_clean_linker_0, # of connection points: 2
#     Edge 93, Type (0, 0), BuildingBlock: XIVTED_clean_linker_0, # of connection points: 2
#     Edge 94, Type (0, 0), BuildingBlock: XIVTED_clean_linker_0, # of connection points: 2
#     Edge 95, Type (0, 0), BuildingBlock: XIVTED_clean_linker_0, # of connection points: 2
# Relax obj value: 0.068
# Max RMSD: 0.100
# Mean RMSD: 0.100
data_MOF--net-uox--node1-KUFVIS_clean_sbu_0--edge1-XIVTED_clean_linker_0
_symmetry_space_group_name_H-M    P1
_symmetry_Int_Tables_number       1
_symmetry_cell_setting            triclinic
loop_
_symmetry_equiv_pos_as_xyz
'x, y, z'
_cell_length_a     46.021466
_cell_length_b     46.017674
_cell_length_c     77.551085
_cell_angle_alpha  90.012859
_cell_angle_beta   89.996912
_cell_angle_gamma 89.9998
loop_
_atom_site_label
_atom_site_type_symbol
_atom_site_fract_x
_atom_site_fract_y
_atom_site_fract_z
_atom_type_partial_charge
Mn0 Mn 0.42164 0.06001 0.15819 0.0
Mn1 Mn 0.46733 0.00276 0.15577 0.0
C2 C 0.47124 0.06748 0.15548 0.0
C3 C 0.39169 0.09461 0.14513 0.0
C4 C 0.43935 0.02268 0.18918 0.0
O5 O 0.3944 0.02639 0.15208 0.0
O6 O 0.42742 0.99049 0.14926 0.0
C7 C 0.46571 0.99305 0.11805 0.0
N8 N 0.48115 0.99862 0.13267 0.0
C9 C 0.52612 0.99962 0.11684 0.0
C10 C 0.51073 0.9937 0.10164 0.0
C11 C 0.48039 0.99045 0.10225 0.0
C12 C 0.51035 1.00175 0.13223 0.0
H13 H 0.44238 0.99067 0.11845 0.0
C14 C 0.4013 1.00014 0.14851 0.0
O15 O 0.38851 0.08748 0.16122 0.0
O16 O 0.41146 0.08077 0.13647 0.0
N17 N 0.50671 0.01191 0.16155 0.0
C18 C 0.51806 0.01931 0.17717 0.0
C19 C 0.54806 0.0243 0.17868 0.0
C20 C 0.56607 0.02149 0.16414 0.0
C21 C 0.55391 0.01361 0.14823 0.0
C22 C 0.52391 0.00867 0.14755 0.0
H23 H 0.50431 0.0216 0.18837 0.0
O24 O 0.45469 0.08768 0.16178 0.0
O25 O 0.45826 0.04357 0.151 0.0
O26 O 0.42607 0.04459 0.18288 0.0
O27 O 0.45482 0.00539 0.18013 0.0
C28 C 0.5703 0.01107 0.13296 0.0
C29 C 0.55641 0.0041 0.11727 0.0
H30 H 0.52194 0.99189 0.0894 0.0
H31 H 0.46834 0.98604 0.09055 0.0
H32 H 0.55727 0.03042 0.19099 0.0
H33 H 0.58915 0.02566 0.16532 0.0
H34 H 0.59352 0.01487 0.13308 0.0
H35 H 0.56918 0.00262 0.10557 0.0
Mn36 Mn 0.19514 0.17189 0.40849 0.0
Mn37 Mn 0.25195 0.21802 0.40559 0.0
C38 C 0.18718 0.22148 0.4062 0.0
C39 C 0.16044 0.14194 0.3955 0.0
C40 C 0.23351 0.18924 0.43909 0.0
O41 O 0.22877 0.14501 0.40187 0.0
O42 O 0.2642 0.17838 0.39847 0.0
C43 C 0.25995 0.21755 0.36771 0.0
N44 N 0.25493 0.23253 0.38256 0.0
C45 C 0.25252 0.27789 0.36719 0.0
C46 C 0.25787 0.26296 0.35175 0.0
C47 C 0.26156 0.23266 0.35201 0.0
C48 C 0.25142 0.2617 0.38247 0.0
H49 H 0.26263 0.19423 0.36785 0.0
C50 C 0.25474 0.15218 0.39779 0.0
O51 O 0.16795 0.13848 0.41151 0.0
O52 O 0.17393 0.16199 0.3869 0.0
N53 N 0.24276 0.25717 0.41191 0.0
C54 C 0.23607 0.26804 0.42777 0.0
C55 C 0.23086 0.29794 0.42965 0.0
C56 C 0.23268 0.31634 0.41524 0.0
C57 C 0.23982 0.30469 0.39908 0.0
C58 C 0.2451 0.27477 0.39802 0.0
H59 H 0.23452 0.25398 0.43887 0.0
O60 O 0.1673 0.20465 0.41258 0.0
O61 O 0.21103 0.20877 0.40136 0.0
O62 O 0.21131 0.17608 0.43305 0.0
O63 O 0.25045 0.2048 0.42986 0.0
C64 C 0.24127 0.32148 0.38391 0.0
C65 C 0.2476 0.30809 0.36798 0.0
H66 H 0.25889 0.27451 0.33959 0.0
H67 H 0.26553 0.22097 0.34013 0.0
H68 H 0.22529 0.30676 0.44215 0.0
H69 H 0.2283 0.33934 0.4167 0.0
H70 H 0.23714 0.34464 0.38431 0.0
H71 H 0.24824 0.32116 0.35637 0.0
Mn72 Mn 0.08285 0.94644 0.65806 0.0
Mn73 Mn 0.03719 0.00368 0.65547 0.0
C74 C 0.0332 0.939 0.65558 0.0
C75 C 0.1124 0.91142 0.64506 0.0
C76 C 0.06558 0.98438 0.68889 0.0
O77 O 0.11009 0.97993 0.65163 0.0
O78 O 0.07702 0.01575 0.64867 0.0
C79 C 0.03826 0.01271 0.61768 0.0
N80 N 0.02304 0.00739 0.63241 0.0
C81 C 0.97784 0.00608 0.61682 0.0
C82 C 0.99301 0.01172 0.6015 0.0
C83 C 0.02336 0.015 0.60194 0.0
C84 C 0.99383 0.00425 0.63214 0.0
H85 H 0.0616 0.01511 0.61795 0.0
C86 C 0.10314 0.0061 0.64788 0.0
O87 O 0.11591 0.91885 0.66108 0.0
O88 O 0.09264 0.92528 0.63642 0.0
N89 N 0.9979 0.99464 0.66151 0.0
C90 C 0.98678 0.98747 0.67722 0.0
C91 C 0.95681 0.98246 0.67891 0.0
C92 C 0.9386 0.98498 0.66445 0.0
C93 C 0.95051 0.99261 0.64844 0.0
C94 C 0.9805 0.99759 0.64757 0.0
H95 H 1.00069 0.98539 0.68837 0.0
O96 O 0.04977 0.91891 0.66196 0.0
O97 O 0.04617 0.9628 0.65091 0.0
O98 O 0.07875 0.96232 0.68269 0.0
O99 O 0.05004 1.00151 0.67978 0.0
C100 C 0.93391 0.99484 0.63323 0.0
C101 C 0.94757 1.00156 0.61743 0.0
H102 H 0.98163 0.01329 0.58932 0.0
H103 H 0.03523 0.01921 0.59016 0.0
H104 H 0.94779 0.97653 0.6913 0.0
H105 H 0.91554 0.9808 0.66576 0.0
H106 H 0.9107 0.991 0.63349 0.0
H107 H 0.93463 0.0028 0.60579 0.0
Mn108 Mn 0.30886 0.83099 0.90775 0.0
Mn109 Mn 0.25169 0.78526 0.90522 0.0
C110 C 0.3164 0.78134 0.90525 0.0
C111 C 0.34361 0.86074 0.89468 0.0
C112 C 0.27099 0.81383 0.9386 0.0
O113 O 0.2753 0.85813 0.90138 0.0
O114 O 0.23953 0.82502 0.89834 0.0
C115 C 0.24262 0.78606 0.86743 0.0
N116 N 0.24799 0.77094 0.88219 0.0
C117 C 0.2494 0.72564 0.8667 0.0
C118 C 0.24371 0.74071 0.85135 0.0
C119 C 0.24035 0.77105 0.85172 0.0
C120 C 0.25121 0.74174 0.88198 0.0
H121 H 0.24016 0.80939 0.86765 0.0
C122 C 0.24916 0.85116 0.89758 0.0
O123 O 0.3363 0.86416 0.91072 0.0
O124 O 0.32986 0.84086 0.88607 0.0
N125 N 0.26083 0.74601 0.91133 0.0
C126 C 0.26806 0.73501 0.92707 0.0
C127 C 0.27316 0.70507 0.92881 0.0
C128 C 0.27066 0.68676 0.91439 0.0
C129 C 0.26298 0.69855 0.89836 0.0
C130 C 0.25791 0.72852 0.89744 0.0
H131 H 0.27012 0.749 0.93818 0.0
O132 O 0.33649 0.79797 0.9116 0.0
O133 O 0.29255 0.79428 0.90063 0.0
O134 O 0.2931 0.82689 0.93239 0.0
O135 O 0.25384 0.79828 0.9295 0.0
C136 C 0.26077 0.68185 0.88319 0.0
C137 C 0.254 0.69539 0.86737 0.0
H138 H 0.24215 0.72924 0.83918 0.0
H139 H 0.2361 0.78284 0.83992 0.0
H140 H 0.27913 0.69614 0.94123 0.0
H141 H 0.27491 0.66372 0.91575 0.0
H142 H 0.26468 0.65864 0.88349 0.0
H143 H 0.25278 0.68238 0.85575 0.0
Mn144 Mn 0.42227 0.94492 0.34745 0.0
Mn145 Mn 0.46715 0.00278 0.35001 0.0
C146 C 0.47197 0.93812 0.35013 0.0
C147 C 0.39288 0.90974 0.3604 0.0
C148 C 0.43949 0.9827 0.31654 0.0
O149 O 0.39455 0.97809 0.35365 0.0
O150 O 0.42704 0.01446 0.35652 0.0
C151 C 0.4653 0.01223 0.38775 0.0
N152 N 0.48085 0.00695 0.37314 0.0
C153 C 0.52578 0.00639 0.38901 0.0
C154 C 0.51027 0.01201 0.40421 0.0
C155 C 0.47989 0.0149 0.40358 0.0
C156 C 0.51009 0.00418 0.3736 0.0
H157 H 0.44194 0.01432 0.38734 0.0
C158 C 0.40106 0.00443 0.35725 0.0
O159 O 0.38956 0.91698 0.34433 0.0
O160 O 0.41242 0.92382 0.36909 0.0
N161 N 0.50667 0.9942 0.34425 0.0
C162 C 0.51816 0.98703 0.32862 0.0
C163 C 0.54822 0.98241 0.32714 0.0
C164 C 0.56614 0.98532 0.34171 0.0
C165 C 0.55384 0.99295 0.35762 0.0
C166 C 0.52378 0.99754 0.35828 0.0
H167 H 0.50447 0.98465 0.31741 0.0
O168 O 0.4557 0.91776 0.34376 0.0
O169 O 0.45866 0.96181 0.35469 0.0
O170 O 0.42648 0.9606 0.3228 0.0
O171 O 0.45474 1.00013 0.32563 0.0
C172 C 0.57014 0.99557 0.37292 0.0
C173 C 0.55612 0.00227 0.3886 0.0
H174 H 0.52142 0.01387 0.41646 0.0
H175 H 0.46775 0.01908 0.41527 0.0
H176 H 0.55754 0.97647 0.31482 0.0
H177 H 0.58927 0.98144 0.34055 0.0
H178 H 0.59341 0.99205 0.37281 0.0
H179 H 0.56883 0.00382 0.40032 0.0
Mn180 Mn 0.31025 0.1736 0.59741 0.0
Mn181 Mn 0.25258 0.21865 0.60011 0.0
C182 C 0.31729 0.2233 0.6001 0.0
C183 C 0.34512 0.14396 0.61046 0.0
C184 C 0.27223 0.19066 0.56661 0.0
O185 O 0.27696 0.14603 0.6036 0.0
O186 O 0.24085 0.17869 0.6069 0.0
C187 C 0.2436 0.21749 0.6379 0.0
N188 N 0.24875 0.23277 0.62318 0.0
C189 C 0.24966 0.27797 0.63877 0.0
C190 C 0.24417 0.26274 0.65409 0.0
C191 C 0.24117 0.23236 0.65365 0.0
C192 C 0.25162 0.262 0.62345 0.0
H193 H 0.24142 0.19413 0.63763 0.0
C194 C 0.25077 0.15265 0.60749 0.0
O195 O 0.33805 0.14073 0.59436 0.0
O196 O 0.33115 0.16364 0.6191 0.0
N197 N 0.26126 0.25804 0.59408 0.0
C198 C 0.26833 0.26923 0.57837 0.0
C199 C 0.27307 0.29924 0.57669 0.0
C200 C 0.27038 0.31742 0.59116 0.0
C201 C 0.26286 0.30543 0.60717 0.0
C202 C 0.25815 0.2754 0.60802 0.0
H203 H 0.27053 0.25534 0.56722 0.0
O204 O 0.33758 0.20693 0.59375 0.0
O205 O 0.29355 0.21008 0.60465 0.0
O206 O 0.29457 0.17788 0.57275 0.0
O207 O 0.25485 0.20581 0.57579 0.0
C208 C 0.26048 0.32201 0.62238 0.0
C209 C 0.2539 0.30829 0.63817 0.0
H210 H 0.2425 0.27411 0.66628 0.0
H211 H 0.23709 0.22044 0.66543 0.0
H212 H 0.27892 0.30832 0.5643 0.0
H213 H 0.27436 0.34052 0.58985 0.0
H214 H 0.26411 0.34526 0.62213 0.0
H215 H 0.25255 0.3212 0.64982 0.0
Mn216 Mn 0.08214 0.0589 0.84755 0.0
Mn217 Mn 0.03704 1.00121 0.85001 0.0
C218 C 0.03245 0.0659 0.85017 0.0
C219 C 0.11162 0.09377 0.86072 0.0
C220 C 0.06512 0.02114 0.81661 0.0
O221 O 0.10967 0.02556 0.8537 0.0
O222 O 0.07698 0.98942 0.85678 0.0
C223 C 0.03817 0.99188 0.88777 0.0
N224 N 0.02291 0.99718 0.87306 0.0
C225 C 0.97769 0.99798 0.88864 0.0
C226 C 0.99291 0.99235 0.90395 0.0
C227 C 0.02328 0.98933 0.9035 0.0
C228 C 0.99368 1.00008 0.87333 0.0
H229 H 0.06153 0.98969 0.8875 0.0
C230 C 0.10301 0.99932 0.85747 0.0
O231 O 0.11499 0.08676 0.84463 0.0
O232 O 0.09196 0.07968 0.8693 0.0
N233 N 0.99767 0.00997 0.844 0.0
C234 C 0.98649 0.01716 0.8283 0.0
C235 C 0.95648 0.02193 0.82663 0.0
C236 C 0.93829 0.01913 0.84108 0.0
C237 C 0.95027 0.01148 0.85707 0.0
C238 C 0.98029 0.00675 0.85792 0.0
H239 H 1.00039 0.01946 0.81716 0.0
O240 O 0.04884 0.08624 0.84389 0.0
O241 O 0.04565 0.04213 0.85469 0.0
O242 O 0.07797 0.04337 0.82284 0.0
O243 O 0.04989 0.00371 0.82571 0.0
C244 C 0.93368 0.00897 0.87227 0.0
C245 C 0.94739 1.00224 0.88805 0.0
H246 H 0.98154 0.99057 0.91613 0.0
H247 H 0.03519 0.98513 0.91528 0.0
H248 H 0.94741 0.02788 0.81425 0.0
H249 H 0.9152 0.02313 0.83978 0.0
H250 H 0.91043 0.01261 0.87202 0.0
H251 H 0.93446 1.0008 0.89969 0.0
Mn252 Mn 0.19434 0.83378 0.09676 0.0
Mn253 Mn 0.25166 0.78831 0.09967 0.0
C254 C 0.18692 0.78415 0.09916 0.0
C255 C 0.15947 0.86346 0.1098 0.0
C256 C 0.23276 0.81671 0.06615 0.0
O257 O 0.22771 0.86104 0.10326 0.0
O258 O 0.26351 0.82809 0.10674 0.0
C259 C 0.25976 0.78896 0.13754 0.0
N260 N 0.25485 0.77389 0.12271 0.0
C261 C 0.25291 0.72856 0.13813 0.0
C262 C 0.25815 0.74357 0.15355 0.0
C263 C 0.26156 0.77391 0.15325 0.0
C264 C 0.25162 0.74469 0.12284 0.0
H265 H 0.26221 0.8123 0.13738 0.0
C266 C 0.25374 0.85419 0.10736 0.0
O267 O 0.1668 0.86691 0.09375 0.0
O268 O 0.1732 0.84357 0.11839 0.0
N269 N 0.24285 0.74905 0.0934 0.0
C270 C 0.23621 0.73807 0.07756 0.0
C271 C 0.23127 0.70811 0.07572 0.0
C272 C 0.23329 0.68977 0.09014 0.0
C273 C 0.24037 0.70154 0.10628 0.0
C274 C 0.24539 0.73151 0.1073 0.0
H275 H 0.23449 0.75208 0.06644 0.0
O276 O 0.16682 0.80073 0.09279 0.0
O277 O 0.21066 0.79713 0.10393 0.0
O278 O 0.2104 0.82961 0.07218 0.0
O279 O 0.24993 0.80144 0.07539 0.0
C280 C 0.24202 0.68481 0.12147 0.0
C281 C 0.24827 0.69831 0.13738 0.0
H282 H 0.25931 0.73208 0.16572 0.0
H283 H 0.26544 0.78567 0.16511 0.0
H284 H 0.22575 0.6992 0.06322 0.0
H285 H 0.22913 0.66673 0.08871 0.0
H286 H 0.2381 0.66161 0.12109 0.0
H287 H 0.24906 0.68528 0.149 0.0
Mn288 Mn 0.5821 0.94307 0.84712 0.0
Mn289 Mn 0.53583 0.99984 0.84954 0.0
C290 C 0.53252 0.93505 0.84933 0.0
C291 C 0.61206 0.90864 0.86032 0.0
C292 C 0.56493 0.98088 0.81625 0.0
O293 O 0.60883 0.97686 0.85363 0.0
O294 O 0.57539 0.0123 0.85669 0.0
C295 C 0.536 0.00851 0.88737 0.0
N296 N 0.52114 0.00319 0.87251 0.0
C297 C 0.47567 1.00094 0.88778 0.0
C298 C 0.49047 0.00659 0.90323 0.0
C299 C 0.52076 0.01036 0.90302 0.0
C300 C 0.49198 0.99961 0.87256 0.0
H301 H 0.5593 0.01125 0.88728 0.0
C302 C 0.60159 0.00289 0.85752 0.0
O303 O 0.61559 0.91597 0.84428 0.0
O304 O 0.59191 0.92216 0.86883 0.0
N305 N 0.49676 0.99045 0.84318 0.0
C306 C 0.48603 0.98346 0.82734 0.0
C307 C 0.45615 0.97815 0.82541 0.0
C308 C 0.43764 0.98017 0.83976 0.0
C309 C 0.44915 0.98761 0.85591 0.0
C310 C 0.47905 0.99299 0.85701 0.0
H311 H 0.50017 0.98175 0.81628 0.0
O312 O 0.54943 0.9151 0.84309 0.0
O313 O 0.54515 0.95902 0.85406 0.0
O314 O 0.57808 0.95884 0.82248 0.0
O315 O 0.54924 0.99796 0.82531 0.0
C316 C 0.43224 0.98929 0.87102 0.0
C317 C 0.4455 0.99592 0.88695 0.0
H318 H 0.47883 0.0078 0.91535 0.0
H319 H 0.53235 0.01457 0.9149 0.0
H320 H 0.44744 0.97235 0.81292 0.0
H321 H 0.41466 0.97572 0.83826 0.0
H322 H 0.40909 0.9851 0.87059 0.0
H323 H 0.43233 0.99674 0.89852 0.0
Mn324 Mn 0.80999 0.83294 0.59763 0.0
Mn325 Mn 0.75296 0.78696 0.5999 0.0
C326 C 0.81772 0.78333 0.59988 0.0
C327 C 0.84451 0.86269 0.61091 0.0
C328 C 0.77235 0.81593 0.56665 0.0
O329 O 0.77628 0.85987 0.60403 0.0
O330 O 0.74067 0.82658 0.60701 0.0
C331 C 0.74399 0.78717 0.63769 0.0
N332 N 0.74937 0.77229 0.62285 0.0
C333 C 0.7513 0.72681 0.63812 0.0
C334 C 0.7456 0.74163 0.65356 0.0
C335 C 0.74196 0.77194 0.65334 0.0
C336 C 0.75282 0.74311 0.6229 0.0
H337 H 0.74136 0.81049 0.6376 0.0
C338 C 0.7502 0.85274 0.60786 0.0
O339 O 0.83734 0.86624 0.59486 0.0
O340 O 0.83075 0.84268 0.6194 0.0
N341 N 0.76222 0.74784 0.59355 0.0
C342 C 0.76928 0.73707 0.57773 0.0
C343 C 0.77447 0.70717 0.57581 0.0
C344 C 0.77226 0.68867 0.59016 0.0
C345 C 0.76475 0.70022 0.60628 0.0
C346 C 0.7595 0.73014 0.60737 0.0
H347 H 0.77113 0.75121 0.56667 0.0
O348 O 0.8378 0.80012 0.5937 0.0
O349 O 0.79378 0.79609 0.60453 0.0
O350 O 0.79441 0.82896 0.57294 0.0
O351 O 0.75511 0.80036 0.57567 0.0
C352 C 0.76288 0.68332 0.62139 0.0
C353 C 0.75619 0.69661 0.6373 0.0
H354 H 0.74424 0.73 0.66567 0.0
H355 H 0.73771 0.78355 0.66521 0.0
H356 H 0.78032 0.69843 0.56333 0.0
H357 H 0.77662 0.66567 0.58867 0.0
H358 H 0.76698 0.66015 0.62096 0.0
H359 H 0.75523 0.68345 0.64887 0.0
Mn360 Mn 0.92229 0.06004 0.34742 0.0
Mn361 Mn 0.96766 0.00263 0.35026 0.0
C362 C 0.97195 0.06736 0.34977 0.0
C363 C 0.89271 0.09503 0.36039 0.0
C364 C 0.93915 0.02157 0.31678 0.0
O365 O 0.89499 0.02673 0.35396 0.0
O366 O 0.92786 0.99083 0.35734 0.0
C367 C 0.96706 0.99446 0.38812 0.0
N368 N 0.98211 0.99939 0.37328 0.0
C369 C 0.02747 1.00127 0.38868 0.0
C370 C 0.01247 0.99602 0.40411 0.0
C371 C 0.98214 0.99264 0.40382 0.0
C372 C 0.01131 0.00259 0.3734 0.0
H373 H 0.94372 0.99203 0.38797 0.0
C374 C 0.90179 1.00066 0.35801 0.0
O375 O 0.88923 0.08759 0.34436 0.0
O376 O 0.91258 0.08132 0.36901 0.0
N377 N 0.00691 0.01138 0.34397 0.0
C378 C 0.01787 0.01803 0.32813 0.0
C379 C 0.04782 0.02295 0.32627 0.0
C380 C 0.06619 0.02091 0.34069 0.0
C381 C 0.05444 0.01382 0.35683 0.0
C382 C 0.02447 0.00883 0.35786 0.0
H383 H 0.00384 0.01977 0.31702 0.0
O384 O 0.95539 0.08747 0.34339 0.0
O385 O 0.95893 0.04365 0.35456 0.0
O386 O 0.92631 0.04392 0.32285 0.0
O387 O 0.95448 0.00438 0.32598 0.0
C388 C 0.07119 0.01215 0.372 0.0
C389 C 0.05772 0.0059 0.38792 0.0
H390 H 0.02399 0.99484 0.41627 0.0
H391 H 0.97039 0.98874 0.41569 0.0
H392 H 0.05671 0.02848 0.31378 0.0
H393 H 0.08922 0.02506 0.33924 0.0
H394 H 0.09439 0.01605 0.37162 0.0
H395 H 0.07077 0.00508 0.39953 0.0
Mn396 Mn 0.69513 0.17207 0.09757 0.0
Mn397 Mn 0.75261 0.21749 0.09969 0.0
C398 C 0.68794 0.2217 0.10035 0.0
C399 C 0.66051 0.14239 0.11082 0.0
C400 C 0.73209 0.18961 0.06637 0.0
O401 O 0.72868 0.14465 0.1035 0.0
O402 O 0.7648 0.1775 0.10607 0.0
C403 C 0.76293 0.21572 0.13734 0.0
N404 N 0.75716 0.23122 0.12279 0.0
C405 C 0.75645 0.27613 0.13868 0.0
C406 C 0.76258 0.26066 0.15383 0.0
C407 C 0.76579 0.23032 0.15316 0.0
C408 C 0.75407 0.26043 0.12328 0.0
H409 H 0.76528 0.19238 0.1369 0.0
C410 C 0.75503 0.15142 0.10689 0.0
O411 O 0.66738 0.13913 0.09469 0.0
O412 O 0.67465 0.16202 0.1194 0.0
N413 N 0.74349 0.25692 0.09401 0.0
C414 C 0.73586 0.26835 0.07845 0.0
C415 C 0.73088 0.29836 0.07702 0.0
C416 C 0.73391 0.3163 0.09157 0.0
C417 C 0.74201 0.30407 0.10742 0.0
C418 C 0.74695 0.27406 0.10802 0.0
H419 H 0.73339 0.25465 0.06724 0.0
O420 O 0.66759 0.20526 0.09413 0.0
O421 O 0.71185 0.2086 0.1047 0.0
O422 O 0.71023 0.17641 0.07279 0.0
O423 O 0.74954 0.20505 0.07533 0.0
C424 C 0.74479 0.32038 0.12271 0.0
C425 C 0.75199 0.30642 0.13833 0.0
H426 H 0.76458 0.27182 0.16607 0.0
H427 H 0.77036 0.21822 0.16481 0.0
H428 H 0.72458 0.30763 0.06476 0.0
H429 H 0.72975 0.33939 0.09046 0.0
H430 H 0.741 0.34362 0.12264 0.0
H431 H 0.75364 0.31914 0.15004 0.0
Mn432 Mn 0.58293 0.05997 0.65819 0.0
Mn433 Mn 0.53777 0.00236 0.65555 0.0
C434 C 0.53331 0.06706 0.65541 0.0
C435 C 0.61264 0.0948 0.64519 0.0
C436 C 0.56541 0.0223 0.68907 0.0
O437 O 0.61048 0.02664 0.6521 0.0
O438 O 0.57783 0.99044 0.64908 0.0
C439 C 0.53967 0.99292 0.61781 0.0
N440 N 0.52411 0.99828 0.63241 0.0
C441 C 0.47923 0.99917 0.61649 0.0
C442 C 0.49476 0.99347 0.6013 0.0
C443 C 0.52511 0.99037 0.60197 0.0
C444 C 0.49489 1.00126 0.63192 0.0
H445 H 0.56301 0.99066 0.61825 0.0
C446 C 0.60386 1.00036 0.64843 0.0
O447 O 0.61583 0.0877 0.66128 0.0
O448 O 0.593 0.08083 0.63651 0.0
N449 N 0.49829 0.01118 0.66128 0.0
C450 C 0.4868 0.01842 0.67689 0.0
C451 C 0.45677 0.02326 0.67834 0.0
C452 C 0.43888 0.02049 0.66376 0.0
C453 C 0.45117 0.01278 0.64786 0.0
C454 C 0.4812 0.00798 0.64723 0.0
H455 H 0.50047 0.0207 0.68813 0.0
O456 O 0.54967 0.08735 0.66178 0.0
O457 O 0.54649 0.04327 0.6509 0.0
O458 O 0.5785 0.04439 0.68285 0.0
O459 O 0.55015 0.00493 0.67994 0.0
C460 C 0.4349 0.0103 0.63254 0.0
C461 C 0.44892 0.00351 0.61687 0.0
H462 H 0.48363 0.9917 0.58904 0.0
H463 H 0.53725 0.98612 0.59029 0.0
H464 H 0.44745 0.02925 0.69065 0.0
H465 H 0.41577 0.02454 0.66489 0.0
H466 H 0.41166 0.01399 0.63262 0.0
H467 H 0.43624 1.00207 0.60513 0.0
Mn468 Mn 0.69535 0.83299 0.40815 0.0
Mn469 Mn 0.75253 0.7872 0.40601 0.0
C470 C 0.68781 0.78339 0.40547 0.0
C471 C 0.66093 0.86288 0.39488 0.0
C472 C 0.73236 0.81545 0.4393 0.0
O473 O 0.72908 0.86015 0.40215 0.0
O474 O 0.76493 0.82704 0.39943 0.0
C475 C 0.76259 0.78846 0.36832 0.0
N476 N 0.75683 0.77317 0.38296 0.0
C477 C 0.75579 0.72807 0.36726 0.0
C478 C 0.76189 0.74332 0.35203 0.0
C479 C 0.76527 0.77365 0.35257 0.0
C480 C 0.75359 0.74397 0.3826 0.0
H481 H 0.76507 0.81179 0.36866 0.0
C482 C 0.75534 0.85319 0.39864 0.0
O483 O 0.66784 0.86614 0.411 0.0
O484 O 0.6749 0.84309 0.38632 0.0
N485 N 0.74321 0.74789 0.41188 0.0
C486 C 0.73562 0.7367 0.4275 0.0
C487 C 0.73048 0.70673 0.42907 0.0
C488 C 0.73333 0.6886 0.4146 0.0
C489 C 0.7414 0.70059 0.39868 0.0
C490 C 0.74649 0.73057 0.39793 0.0
H491 H 0.73329 0.75055 0.43866 0.0
O492 O 0.66758 0.80001 0.41167 0.0
O493 O 0.7118 0.79631 0.40107 0.0
O494 O 0.71048 0.82865 0.43292 0.0
O495 O 0.74972 0.79994 0.43033 0.0
C496 C 0.74399 0.68407 0.38346 0.0
C497 C 0.75117 0.6978 0.36776 0.0
H498 H 0.76376 0.732 0.33983 0.0
H499 H 0.76983 0.78559 0.34085 0.0
H500 H 0.72421 0.69765 0.44139 0.0
H501 H 0.72905 0.66554 0.41582 0.0
H502 H 0.74009 0.66086 0.38363 0.0
H503 H 0.75268 0.68494 0.35609 0.0
Mn504 Mn 0.92148 0.94452 0.15862 0.0
Mn505 Mn 0.96682 1.00194 0.15573 0.0
C506 C 0.97113 0.93722 0.1562 0.0
C507 C 0.89192 0.9095 0.14564 0.0
C508 C 0.93837 0.983 0.18924 0.0
O509 O 0.89415 0.97782 0.15209 0.0
O510 O 0.92703 0.01369 0.14862 0.0
C511 C 0.96626 0.01007 0.11787 0.0
N512 N 0.98129 0.00516 0.13271 0.0
C513 C 0.02667 0.00329 0.11732 0.0
C514 C 0.01169 0.00852 0.10189 0.0
C515 C 0.98135 0.01189 0.10217 0.0
C516 C 0.0105 1.00197 0.1326 0.0
H517 H 0.94292 0.01249 0.11801 0.0
C518 C 0.90096 0.00386 0.14798 0.0
O519 O 0.88844 0.91692 0.16167 0.0
O520 O 0.91175 0.92326 0.13702 0.0
N521 N 0.00607 0.99319 0.16203 0.0
C522 C 0.01702 0.98654 0.17788 0.0
C523 C 0.04697 0.98163 0.17974 0.0
C524 C 0.06535 0.98368 0.16533 0.0
C525 C 0.05361 0.99076 0.14918 0.0
C526 C 0.02364 0.99574 0.14814 0.0
H527 H 0.00298 0.9848 0.18898 0.0
O528 O 0.95461 0.9171 0.1626 0.0
O529 O 0.95808 0.96093 0.15145 0.0
O530 O 0.92555 0.96062 0.18319 0.0
O531 O 0.95363 1.00021 0.18001 0.0
C532 C 0.07038 0.99243 0.13401 0.0
C533 C 0.05691 0.99867 0.11809 0.0
H534 H 0.02321 0.0097 0.08973 0.0
H535 H 0.96961 0.01577 0.09029 0.0
H536 H 0.05585 0.97611 0.19224 0.0
H537 H 0.08838 0.97954 0.16678 0.0
H538 H 0.09358 0.98853 0.1344 0.0
H539 H 0.06998 0.99948 0.10648 0.0
Mn540 Mn 0.80843 0.17063 0.90785 0.0
Mn541 Mn 0.75065 0.21562 0.90541 0.0
C542 C 0.81534 0.22028 0.90503 0.0
C543 C 0.84325 0.14101 0.89473 0.0
C544 C 0.77101 0.18807 0.93887 0.0
O545 O 0.77511 0.14298 0.90189 0.0
O546 O 0.73882 0.17554 0.89893 0.0
C547 C 0.7409 0.2138 0.8677 0.0
N548 N 0.74633 0.22934 0.8823 0.0
C549 C 0.74692 0.27427 0.86643 0.0
C550 C 0.74114 0.25877 0.85124 0.0
C551 C 0.73816 0.2284 0.85189 0.0
C552 C 0.7492 0.25856 0.88184 0.0
H553 H 0.73873 0.19044 0.86812 0.0
C554 C 0.7488 0.14953 0.89827 0.0
O555 O 0.83633 0.13785 0.91086 0.0
O556 O 0.82909 0.16055 0.88609 0.0
N557 N 0.7594 0.25512 0.91115 0.0
C558 C 0.76673 0.26659 0.92676 0.0
C559 C 0.77147 0.29664 0.92823 0.0
C560 C 0.7685 0.31456 0.91367 0.0
C561 C 0.76071 0.30229 0.89778 0.0
C562 C 0.75601 0.27224 0.89713 0.0
H563 H 0.76916 0.2529 0.93797 0.0
O564 O 0.83575 0.20398 0.91131 0.0
O565 O 0.79155 0.20702 0.90061 0.0
O566 O 0.79311 0.17508 0.93258 0.0
O567 O 0.75347 0.20321 0.92979 0.0
C568 C 0.75802 0.31859 0.88249 0.0
C569 C 0.75115 0.30459 0.86682 0.0
H570 H 0.73922 0.26992 0.839 0.0
H571 H 0.73385 0.21627 0.8402 0.0
H572 H 0.77753 0.30594 0.94053 0.0
H573 H 0.77247 0.33768 0.91482 0.0
H574 H 0.76163 0.34185 0.88258 0.0
H575 H 0.74956 0.3173 0.85511 0.0
Mn576 Mn 0.92139 0.55965 0.65844 0.0
Mn577 Mn 0.96685 0.50231 0.65554 0.0
C578 C 0.971 0.56705 0.65594 0.0
C579 C 0.89168 0.59454 0.64549 0.0
C580 C 0.93855 0.5213 0.68907 0.0
O581 O 0.89411 0.52628 0.65202 0.0
O582 O 0.927 0.4904 0.64863 0.0
C583 C 0.96587 0.494 0.61769 0.0
N584 N 0.98106 0.49901 0.63246 0.0
C585 C 0.02625 0.50095 0.61689 0.0
C586 C 0.01111 0.49561 0.60152 0.0
C587 C 0.98078 0.49215 0.60193 0.0
C588 C 0.01025 0.50229 0.63223 0.0
H589 H 0.94254 0.49151 0.61793 0.0
C590 C 0.90091 0.50018 0.64803 0.0
O591 O 0.8883 0.58718 0.66153 0.0
O592 O 0.91151 0.5808 0.63684 0.0
N593 N 0.00615 0.51117 0.66167 0.0
C594 C 0.01726 0.51788 0.67747 0.0
C595 C 0.04722 0.52286 0.67921 0.0
C596 C 0.06543 0.52081 0.66472 0.0
C597 C 0.05353 0.51366 0.64863 0.0
C598 C 0.02356 0.50861 0.64772 0.0
H599 H 0.00334 0.51962 0.68863 0.0
O600 O 0.95446 0.58715 0.66235 0.0
O601 O 0.95799 0.54329 0.65122 0.0
O602 O 0.9256 0.5436 0.68302 0.0
O603 O 0.95389 0.50415 0.67985 0.0
C604 C 0.07013 0.51198 0.63339 0.0
C605 C 0.0565 0.50565 0.61753 0.0
H606 H 0.0225 0.49441 0.58932 0.0
H607 H 0.96892 0.48819 0.59011 0.0
H608 H 0.05623 0.52843 0.69166 0.0
H609 H 0.08848 0.52501 0.66608 0.0
H610 H 0.09332 0.51593 0.63368 0.0
H611 H 0.06943 0.50482 0.60587 0.0
Mn612 Mn 0.69511 0.67116 0.90881 0.0
Mn613 Mn 0.75213 0.7171 0.90627 0.0
C614 C 0.68736 0.72075 0.90643 0.0
C615 C 0.66058 0.64134 0.89558 0.0
C616 C 0.73295 0.68844 0.93966 0.0
O617 O 0.72877 0.64416 0.90245 0.0
O618 O 0.76442 0.67738 0.89935 0.0
C619 C 0.76093 0.71637 0.86847 0.0
N620 N 0.75562 0.73146 0.88324 0.0
C621 C 0.7536 0.77672 0.86775 0.0
C622 C 0.75924 0.76169 0.85238 0.0
C623 C 0.76289 0.73138 0.85275 0.0
C624 C 0.75215 0.76063 0.88305 0.0
H625 H 0.76358 0.69306 0.86867 0.0
C626 C 0.75487 0.65121 0.89863 0.0
O627 O 0.66771 0.63788 0.91165 0.0
O628 O 0.67435 0.66131 0.88707 0.0
N629 N 0.74291 0.7563 0.91244 0.0
C630 C 0.73592 0.76729 0.92823 0.0
C631 C 0.73072 0.79721 0.93001 0.0
C632 C 0.73284 0.81552 0.91557 0.0
C633 C 0.74028 0.80375 0.89949 0.0
C634 C 0.74555 0.77381 0.89854 0.0
H635 H 0.73413 0.7533 0.93935 0.0
O636 O 0.66731 0.704 0.91269 0.0
O637 O 0.71128 0.70796 0.90176 0.0
O638 O 0.71083 0.67532 0.93348 0.0
O639 O 0.75006 0.70399 0.93054 0.0
C640 C 0.74207 0.82044 0.88429 0.0
C641 C 0.74869 0.80693 0.86844 0.0
H642 H 0.76053 0.77315 0.84021 0.0
H643 H 0.7671 0.71961 0.84092 0.0
H644 H 0.72492 0.80612 0.94245 0.0
H645 H 0.72847 0.83853 0.91695 0.0
H646 H 0.73796 0.84361 0.88461 0.0
H647 H 0.74959 0.81993 0.85681 0.0
Mn648 Mn 0.58232 0.44486 0.15894 0.0
Mn649 Mn 0.53741 0.50265 0.15615 0.0
C650 C 0.53266 0.43796 0.15609 0.0
C651 C 0.61191 0.40995 0.14587 0.0
C652 C 0.56497 0.48281 0.18973 0.0
O653 O 0.61002 0.4781 0.15287 0.0
O654 O 0.57748 0.51433 0.14959 0.0
C655 C 0.53916 0.51177 0.11838 0.0
N656 N 0.52365 0.5066 0.13302 0.0
C657 C 0.47868 0.50581 0.11719 0.0
C658 C 0.49415 0.51132 0.10196 0.0
C659 C 0.52452 0.51427 0.10256 0.0
C660 C 0.49442 0.50377 0.1326 0.0
H661 H 0.56252 0.51391 0.11878 0.0
C662 C 0.6035 0.50434 0.14905 0.0
O663 O 0.61509 0.41691 0.16199 0.0
O664 O 0.59235 0.42407 0.13723 0.0
N665 N 0.49793 0.49402 0.16197 0.0
C666 C 0.48649 0.48693 0.17762 0.0
C667 C 0.45645 0.48223 0.17913 0.0
C668 C 0.43849 0.485 0.16458 0.0
C669 C 0.45073 0.49255 0.14864 0.0
C670 C 0.48078 0.49721 0.14794 0.0
H671 H 0.50021 0.48466 0.18883 0.0
O672 O 0.54892 0.4176 0.16247 0.0
O673 O 0.54597 0.46168 0.1516 0.0
O674 O 0.57786 0.46051 0.18361 0.0
O675 O 0.5499 0.50021 0.18052 0.0
C676 C 0.43439 0.495 0.13334 0.0
C677 C 0.44836 0.50162 0.11763 0.0
H678 H 0.48298 0.51305 0.08971 0.0
H679 H 0.53663 0.51837 0.09085 0.0
H680 H 0.44717 0.47636 0.19147 0.0
H681 H 0.41537 0.48106 0.16576 0.0
H682 H 0.41113 0.49142 0.13347 0.0
H683 H 0.43562 0.50303 0.10592 0.0
Mn684 Mn 0.80992 0.3333 0.40816 0.0
Mn685 Mn 0.75325 0.28695 0.40539 0.0
C686 C 0.81803 0.28375 0.40586 0.0
C687 C 0.84446 0.36333 0.39513 0.0
C688 C 0.77176 0.31588 0.43883 0.0
O689 O 0.77615 0.36004 0.40161 0.0
O690 O 0.74081 0.32654 0.39832 0.0
C691 C 0.74503 0.28737 0.36754 0.0
N692 N 0.7502 0.27242 0.38238 0.0
C693 C 0.75268 0.22706 0.367 0.0
C694 C 0.74719 0.24195 0.35156 0.0
C695 C 0.74338 0.27224 0.35184 0.0
C696 C 0.75382 0.24326 0.38227 0.0
H697 H 0.74226 0.31068 0.36768 0.0
C698 C 0.75018 0.35277 0.39763 0.0
O699 O 0.83698 0.3668 0.41115 0.0
O700 O 0.831 0.34325 0.38654 0.0
N701 N 0.76263 0.24785 0.41169 0.0
C702 C 0.76945 0.23701 0.42753 0.0
C703 C 0.77477 0.20713 0.42941 0.0
C704 C 0.77294 0.18871 0.415 0.0
C705 C 0.76567 0.20033 0.39885 0.0
C706 C 0.76028 0.23023 0.39781 0.0
H707 H 0.77101 0.25109 0.43864 0.0
O708 O 0.83789 0.30065 0.41221 0.0
O709 O 0.7941 0.29637 0.40107 0.0
O710 O 0.79388 0.3291 0.43274 0.0
O711 O 0.75485 0.30021 0.42965 0.0
C712 C 0.76418 0.18352 0.38369 0.0
C713 C 0.75772 0.19688 0.36777 0.0
H714 H 0.74614 0.2304 0.33941 0.0
H715 H 0.7393 0.28391 0.33997 0.0
H716 H 0.78043 0.19834 0.4419 0.0
H717 H 0.7774 0.16573 0.41646 0.0
H718 H 0.7684 0.16037 0.38408 0.0
H719 H 0.75706 0.18379 0.35617 0.0
Mn720 Mn 0.92087 0.44376 0.84715 0.0
Mn721 Mn 0.96648 0.50099 0.85002 0.0
C722 C 0.9705 0.43623 0.84951 0.0
C723 C 0.89116 0.40896 0.86021 0.0
C724 C 0.93793 0.48214 0.81652 0.0
O725 O 0.89371 0.4772 0.85365 0.0
O726 O 0.92673 0.51294 0.85709 0.0
C727 C 0.9659 0.50913 0.88788 0.0
N728 N 0.98094 0.50418 0.87304 0.0
C729 C 0.02629 0.50218 0.88844 0.0
C730 C 0.01131 0.50745 0.90387 0.0
C731 C 0.98098 0.51091 0.90358 0.0
C732 C 0.01013 0.5009 0.87316 0.0
H733 H 0.94257 0.51162 0.88773 0.0
C734 C 0.90061 0.50324 0.85771 0.0
O735 O 0.88771 0.41626 0.84416 0.0
O736 O 0.91107 0.42268 0.86879 0.0
N737 N 0.0057 0.49211 0.84372 0.0
C738 C 0.01665 0.48545 0.82788 0.0
C739 C 0.04659 0.48047 0.82602 0.0
C740 C 0.06496 0.48247 0.84043 0.0
C741 C 0.05323 0.48958 0.85658 0.0
C742 C 0.02327 0.49463 0.85761 0.0
H743 H 0.00261 0.48375 0.81677 0.0
O744 O 0.95385 0.41616 0.84316 0.0
O745 O 0.95758 0.46001 0.85429 0.0
O746 O 0.92501 0.45981 0.82257 0.0
O747 O 0.95329 0.49927 0.82575 0.0
C748 C 0.06999 0.49121 0.87175 0.0
C749 C 0.05653 0.49748 0.88767 0.0
H750 H 0.02283 0.50861 0.91603 0.0
H751 H 0.96925 0.51483 0.91545 0.0
H752 H 0.05547 0.47494 0.81352 0.0
H753 H 0.08799 0.47828 0.83898 0.0
H754 H 0.09318 0.48726 0.87137 0.0
H755 H 0.06958 0.49827 0.89929 0.0
Mn756 Mn 0.80997 0.671 0.0978 0.0
Mn757 Mn 0.75317 0.71718 0.10057 0.0
C758 C 0.81791 0.7206 0.10004 0.0
C759 C 0.84471 0.64117 0.11082 0.0
C760 C 0.77166 0.68818 0.06715 0.0
O761 O 0.77632 0.64417 0.10445 0.0
O762 O 0.7409 0.6776 0.10772 0.0
C763 C 0.74505 0.71689 0.13844 0.0
N764 N 0.75013 0.7318 0.12357 0.0
C765 C 0.75252 0.77723 0.13888 0.0
C766 C 0.74712 0.76238 0.15434 0.0
C767 C 0.7434 0.73208 0.15411 0.0
C768 C 0.75366 0.76097 0.12363 0.0
H769 H 0.74235 0.69358 0.13833 0.0
C770 C 0.75034 0.65139 0.10847 0.0
O771 O 0.83717 0.6376 0.09482 0.0
O772 O 0.83119 0.66122 0.1194 0.0
N773 N 0.76241 0.7563 0.09421 0.0
C774 C 0.76915 0.76709 0.07834 0.0
C775 C 0.77438 0.79698 0.07643 0.0
C776 C 0.77253 0.81545 0.09081 0.0
C777 C 0.76534 0.80388 0.10698 0.0
C778 C 0.76004 0.77396 0.10807 0.0
H779 H 0.77073 0.75297 0.06726 0.0
O780 O 0.8378 0.70376 0.09367 0.0
O781 O 0.79405 0.7079 0.10486 0.0
O782 O 0.79382 0.67505 0.07323 0.0
O783 O 0.75473 0.70385 0.07632 0.0
C784 C 0.76385 0.82074 0.12212 0.0
C785 C 0.75747 0.80742 0.13806 0.0
H786 H 0.74606 0.77398 0.16648 0.0
H787 H 0.73938 0.72045 0.166 0.0
H788 H 0.77999 0.80574 0.06391 0.0
H789 H 0.77692 0.83844 0.08931 0.0
H790 H 0.76799 0.8439 0.12169 0.0
H791 H 0.7568 0.82055 0.14965 0.0
Mn792 Mn 0.58182 0.55955 0.34798 0.0
Mn793 Mn 0.53678 0.50187 0.35091 0.0
C794 C 0.53217 0.56659 0.35066 0.0
C795 C 0.61142 0.59458 0.36093 0.0
C796 C 0.56457 0.52126 0.31731 0.0
O797 O 0.60941 0.52633 0.35422 0.0
O798 O 0.57679 0.49021 0.35761 0.0
C799 C 0.5383 0.49337 0.38873 0.0
N800 N 0.52288 0.49833 0.37404 0.0
C801 C 0.47787 0.49982 0.38982 0.0
C802 C 0.49325 0.49452 0.4051 0.0
C803 C 0.5236 0.49131 0.40456 0.0
C804 C 0.49367 0.50138 0.37441 0.0
H805 H 0.56165 0.49107 0.38838 0.0
C806 C 0.60283 0.50015 0.35813 0.0
O807 O 0.61467 0.58738 0.34485 0.0
O808 O 0.59179 0.58062 0.36961 0.0
N809 N 0.49733 0.51045 0.34497 0.0
C810 C 0.48597 0.5171 0.32923 0.0
C811 C 0.45594 0.52181 0.32763 0.0
C812 C 0.43792 0.51955 0.34219 0.0
C813 C 0.45009 0.51244 0.35822 0.0
C814 C 0.48012 0.50766 0.359 0.0
H815 H 0.49973 0.51899 0.31801 0.0
O816 O 0.54852 0.58685 0.34426 0.0
O817 O 0.54538 0.54289 0.35529 0.0
O818 O 0.57745 0.54361 0.32338 0.0
O819 O 0.54942 0.50397 0.32655 0.0
C820 C 0.4337 0.51054 0.37353 0.0
C821 C 0.44758 0.50425 0.38931 0.0
H822 H 0.48203 0.49315 0.41735 0.0
H823 H 0.53564 0.48738 0.41631 0.0
H824 H 0.44672 0.52734 0.31522 0.0
H825 H 0.41482 0.52354 0.34094 0.0
H826 H 0.41046 0.51427 0.37334 0.0
H827 H 0.4348 0.50324 0.40103 0.0
Mn828 Mn 0.69489 0.3329 0.59704 0.0
Mn829 Mn 0.75172 0.28675 0.59966 0.0
C830 C 0.68696 0.28334 0.59938 0.0
C831 C 0.66041 0.36284 0.61021 0.0
C832 C 0.73286 0.31561 0.56627 0.0
O833 O 0.72863 0.35974 0.60348 0.0
O834 O 0.76409 0.32636 0.60672 0.0
C835 C 0.76022 0.28716 0.63749 0.0
N836 N 0.75498 0.2722 0.62265 0.0
C837 C 0.75271 0.22683 0.63802 0.0
C838 C 0.75827 0.24172 0.65344 0.0
C839 C 0.76201 0.27202 0.65317 0.0
C840 C 0.75143 0.24304 0.62276 0.0
H841 H 0.76294 0.31047 0.63735 0.0
C842 C 0.75465 0.35256 0.60742 0.0
O843 O 0.66767 0.36629 0.59415 0.0
O844 O 0.67404 0.34281 0.61875 0.0
N845 N 0.74241 0.24762 0.59336 0.0
C846 C 0.73551 0.23678 0.57752 0.0
C847 C 0.73024 0.20689 0.57565 0.0
C848 C 0.73221 0.18846 0.59004 0.0
C849 C 0.73956 0.20009 0.60618 0.0
C850 C 0.7449 0.23 0.60722 0.0
H851 H 0.73384 0.25086 0.56643 0.0
O852 O 0.66699 0.30016 0.59309 0.0
O853 O 0.71088 0.29604 0.60408 0.0
O854 O 0.71072 0.32872 0.57241 0.0
O855 O 0.74991 0.30002 0.57541 0.0
C856 C 0.74118 0.18327 0.62133 0.0
C857 C 0.74773 0.19664 0.63724 0.0
H858 H 0.75943 0.23016 0.66559 0.0
H859 H 0.76615 0.28369 0.66504 0.0
H860 H 0.72451 0.19809 0.56317 0.0
H861 H 0.72779 0.16547 0.58859 0.0
H862 H 0.73701 0.16012 0.62094 0.0
H863 H 0.7485 0.18355 0.64884 0.0
Mn864 Mn 0.08296 0.44506 0.34765 0.0
Mn865 Mn 0.03724 0.5023 0.34997 0.0
C866 C 0.03332 0.43754 0.34982 0.0
C867 C 0.1126 0.4103 0.36081 0.0
C868 C 0.06623 0.48295 0.31672 0.0
O869 O 0.10997 0.47862 0.35418 0.0
O870 O 0.07689 0.51444 0.35714 0.0
C871 C 0.03738 0.51112 0.38778 0.0
N872 N 0.02252 0.50587 0.37292 0.0
C873 C 0.977 0.50405 0.38815 0.0
C874 C 0.9918 0.50964 0.40361 0.0
C875 C 0.02212 0.51316 0.40342 0.0
C876 C 0.99333 0.50253 0.37294 0.0
H877 H 0.06071 0.51366 0.38771 0.0
C878 C 0.10299 0.50474 0.35802 0.0
O879 O 0.1162 0.41768 0.34479 0.0
O880 O 0.09259 0.424 0.36935 0.0
N881 N 0.9981 0.49323 0.34358 0.0
C882 C 0.98735 0.48627 0.32774 0.0
C883 C 0.95744 0.4812 0.32579 0.0
C884 C 0.93891 0.48342 0.34013 0.0
C885 C 0.95044 0.49083 0.35627 0.0
C886 C 0.98038 0.49596 0.35739 0.0
H887 H 1.00151 0.4844 0.31669 0.0
O888 O 0.05005 0.41742 0.3436 0.0
O889 O 0.04616 0.46139 0.35456 0.0
O890 O 0.07915 0.46082 0.32301 0.0
O891 O 0.05068 0.50022 0.32574 0.0
C892 C 0.93351 0.4927 0.37137 0.0
C893 C 0.94678 0.49928 0.3873 0.0
H894 H 0.98014 0.51099 0.41571 0.0
H895 H 0.03371 0.51731 0.4153 0.0
H896 H 0.94871 0.47542 0.3133 0.0
H897 H 0.9159 0.47915 0.33861 0.0
H898 H 0.91033 0.48869 0.37092 0.0
H899 H 0.9336 0.50025 0.39886 0.0
Mn900 Mn 0.30962 0.33296 0.09738 0.0
Mn901 Mn 0.25247 0.28715 0.09961 0.0
C902 C 0.31723 0.28333 0.0997 0.0
C903 C 0.34413 0.36267 0.11071 0.0
C904 C 0.27216 0.31581 0.06634 0.0
O905 O 0.27597 0.36002 0.10367 0.0
O906 O 0.24019 0.32689 0.10651 0.0
C907 C 0.2432 0.28785 0.13738 0.0
N908 N 0.24864 0.27277 0.12262 0.0
C909 C 0.25035 0.22748 0.1381 0.0
C910 C 0.24456 0.2425 0.15345 0.0
C911 C 0.24101 0.27282 0.15309 0.0
C912 C 0.25203 0.24358 0.12281 0.0
H913 H 0.24063 0.31117 0.13717 0.0
C914 C 0.2498 0.35303 0.10735 0.0
O915 O 0.33709 0.36618 0.09463 0.0
O916 O 0.33026 0.34273 0.11919 0.0
N917 N 0.26163 0.24792 0.09346 0.0
C918 C 0.26874 0.23693 0.0777 0.0
C919 C 0.27385 0.20699 0.07593 0.0
C920 C 0.27151 0.18867 0.09035 0.0
C921 C 0.26393 0.20045 0.10641 0.0
C922 C 0.25877 0.2304 0.10735 0.0
H923 H 0.27071 0.25092 0.06659 0.0
O924 O 0.33738 0.30007 0.09354 0.0
O925 O 0.2933 0.29615 0.10432 0.0
O926 O 0.29417 0.32891 0.07266 0.0
O927 O 0.25487 0.30026 0.07535 0.0
C928 C 0.26192 0.18374 0.12158 0.0
C929 C 0.25515 0.19725 0.13742 0.0
H930 H 0.24309 0.23103 0.16561 0.0
H931 H 0.23669 0.28459 0.1649 0.0
H932 H 0.27975 0.19807 0.0635 0.0
H933 H 0.27581 0.16565 0.08897 0.0
H934 H 0.26594 0.16056 0.12127 0.0
H935 H 0.25407 0.18424 0.14904 0.0
Mn936 Mn 0.42271 0.55803 0.84738 0.0
Mn937 Mn 0.46814 0.50059 0.84978 0.0
C938 C 0.47234 0.56529 0.85016 0.0
C939 C 0.39294 0.5927 0.86055 0.0
C940 C 0.4402 0.52064 0.81637 0.0
O941 O 0.39532 0.5245 0.85342 0.0
O942 O 0.42821 0.4885 0.85636 0.0
C943 C 0.46666 0.49087 0.8875 0.0
N944 N 0.48205 0.49641 0.87287 0.0
C945 C 0.52708 0.49733 0.88863 0.0
C946 C 0.51173 0.49145 0.90385 0.0
C947 C 0.48139 0.48824 0.90328 0.0
C948 C 0.51125 0.49948 0.87326 0.0
H949 H 0.44332 0.48853 0.88714 0.0
C950 C 0.40211 0.49826 0.85707 0.0
O951 O 0.38973 0.58573 0.84443 0.0
O952 O 0.41261 0.57867 0.86915 0.0
N953 N 0.50752 0.50964 0.84395 0.0
C954 C 0.51882 0.51706 0.82832 0.0
C955 C 0.54882 0.52202 0.82678 0.0
C956 C 0.56687 0.5192 0.84128 0.0
C957 C 0.55477 0.51131 0.8572 0.0
C958 C 0.52477 0.50639 0.85793 0.0
H959 H 0.50503 0.51937 0.81714 0.0
O960 O 0.45589 0.58557 0.84387 0.0
O961 O 0.45924 0.54142 0.85458 0.0
O962 O 0.42712 0.54268 0.82265 0.0
O963 O 0.45553 0.50326 0.82544 0.0
C964 C 0.57121 0.50876 0.87246 0.0
C965 C 0.55737 0.50179 0.88816 0.0
H966 H 0.52299 0.48962 0.91607 0.0
H967 H 0.46938 0.48385 0.91499 0.0
H968 H 0.55799 0.52815 0.81445 0.0
H969 H 0.58995 0.52334 0.84008 0.0
H970 H 0.59443 0.51254 0.87231 0.0
H971 H 0.57018 0.5003 0.89984 0.0
Mn972 Mn 0.19396 0.6722 0.59725 0.0
Mn973 Mn 0.2503 0.7189 0.6004 0.0
C974 C 0.18567 0.72172 0.59976 0.0
C975 C 0.15905 0.64216 0.60996 0.0
C976 C 0.23172 0.69149 0.5666 0.0
O977 O 0.22729 0.64539 0.604 0.0
O978 O 0.26317 0.67857 0.60586 0.0
C979 C 0.25974 0.71427 0.63807 0.0
N980 N 0.25419 0.73085 0.6239 0.0
C981 C 0.25257 0.77443 0.64104 0.0
C982 C 0.25847 0.75784 0.65579 0.0
C983 C 0.26204 0.72762 0.6543 0.0
C984 C 0.25077 0.75995 0.62519 0.0
H985 H 0.26234 0.69102 0.63701 0.0
C986 C 0.25366 0.65241 0.607 0.0
O987 O 0.16684 0.63874 0.59399 0.0
O988 O 0.17233 0.66224 0.61865 0.0
N989 N 0.24087 0.75868 0.59577 0.0
C990 C 0.23345 0.7713 0.5805 0.0
C991 C 0.22841 0.80137 0.57985 0.0
C992 C 0.23104 0.81816 0.59489 0.0
C993 C 0.2388 0.80473 0.61045 0.0
C994 C 0.24393 0.77472 0.61027 0.0
H995 H 0.23097 0.75846 0.56897 0.0
O996 O 0.16615 0.70489 0.593 0.0
O997 O 0.20953 0.70913 0.60472 0.0
O998 O 0.211 0.67627 0.57282 0.0
O999 O 0.2475 0.70842 0.57572 0.0
C1000 C 0.24096 0.81981 0.62621 0.0
C1001 C 0.2478 0.80467 0.64149 0.0
H1002 H 0.26005 0.76803 0.66835 0.0
H1003 H 0.26644 0.71465 0.66564 0.0
H1004 H 0.22224 0.81154 0.56782 0.0
H1005 H 0.22674 0.84129 0.59439 0.0
H1006 H 0.23695 0.84299 0.62676 0.0
H1007 H 0.249 0.81645 0.65357 0.0
Mn1008 Mn 0.08375 0.5608 0.15843 0.0
Mn1009 Mn 0.0383 0.50336 0.1561 0.0
C1010 C 0.03409 0.56811 0.15609 0.0
C1011 C 0.11335 0.59552 0.14522 0.0
C1012 C 0.06685 0.52309 0.1894 0.0
O1013 O 0.111 0.52732 0.15209 0.0
O1014 O 0.07809 0.49136 0.14912 0.0
C1015 C 0.03893 0.4943 0.11831 0.0
N1016 N 0.02387 0.49957 0.1331 0.0
C1017 C 0.97851 0.50105 0.11768 0.0
C1018 C 0.99352 0.49545 0.10229 0.0
C1019 C 0.02386 0.49209 0.10262 0.0
C1020 C 0.99466 0.50276 0.13295 0.0
H1021 H 0.06227 0.49188 0.11848 0.0
C1022 C 0.10417 0.50114 0.14831 0.0
O1023 O 0.11685 0.58835 0.16128 0.0
O1024 O 0.09346 0.58167 0.13669 0.0
N1025 N 0.99904 0.51226 0.16231 0.0
C1026 C 0.98807 0.51925 0.17809 0.0
C1027 C 0.9581 0.52416 0.17991 0.0
C1028 C 0.93975 0.52176 0.16551 0.0
C1029 C 0.95152 0.51432 0.14942 0.0
C1030 C 0.98149 0.50935 0.14843 0.0
H1031 H 1.00208 0.52125 0.18919 0.0
O1032 O 0.0507 0.58834 0.1623 0.0
O1033 O 0.04706 0.54428 0.15145 0.0
O1034 O 0.07977 0.54521 0.18311 0.0
O1035 O 0.05146 0.5057 0.18036 0.0
C1036 C 0.93477 0.51226 0.13426 0.0
C1037 C 0.94826 0.50566 0.1184 0.0
H1038 H 0.98201 0.49396 0.09014 0.0
H1039 H 0.03561 0.48792 0.09078 0.0
H1040 H 0.9492 0.52995 0.19236 0.0
H1041 H 0.9167 0.5259 0.16692 0.0
H1042 H 0.91156 0.51614 0.13461 0.0
H1043 H 0.93522 0.50455 0.10679 0.0
Mn1044 Mn 0.19408 0.33253 0.9081 0.0
Mn1045 Mn 0.25152 0.28711 0.90567 0.0
C1046 C 0.18682 0.28287 0.90553 0.0
C1047 C 0.15932 0.36223 0.89501 0.0
C1048 C 0.23178 0.31544 0.93903 0.0
O1049 O 0.22755 0.35985 0.90185 0.0
O1050 O 0.26352 0.32695 0.89882 0.0
C1051 C 0.26083 0.28799 0.86791 0.0
N1052 N 0.25546 0.27283 0.88265 0.0
C1053 C 0.2544 0.22754 0.86714 0.0
C1054 C 0.26011 0.24264 0.85181 0.0
C1055 C 0.2633 0.273 0.8522 0.0
C1056 C 0.2524 0.24362 0.88243 0.0
H1057 H 0.26316 0.31134 0.86813 0.0
C1058 C 0.25373 0.35303 0.89806 0.0
O1059 O 0.16651 0.36557 0.91108 0.0
O1060 O 0.17318 0.34244 0.88639 0.0
N1061 N 0.24255 0.24782 0.91176 0.0
C1062 C 0.23527 0.23677 0.92748 0.0
C1063 C 0.23032 0.20679 0.9292 0.0
C1064 C 0.23302 0.18851 0.91478 0.0
C1065 C 0.24075 0.20035 0.89877 0.0
C1066 C 0.24566 0.23035 0.89786 0.0
H1067 H 0.23305 0.25073 0.93859 0.0
O1068 O 0.16659 0.29937 0.91183 0.0
O1069 O 0.21064 0.29593 0.90098 0.0
O1070 O 0.20965 0.32838 0.93277 0.0
O1071 O 0.24915 0.30009 0.92997 0.0
C1072 C 0.24315 0.18367 0.8836 0.0
C1073 C 0.24996 0.19726 0.8678 0.0
H1074 H 0.26181 0.23119 0.83965 0.0
H1075 H 0.26755 0.28483 0.8404 0.0
H1076 H 0.22431 0.19782 0.94159 0.0
H1077 H 0.22889 0.16545 0.91612 0.0
H1078 H 0.23937 0.16044 0.88389 0.0
H1079 H 0.25133 0.18426 0.85618 0.0
Mn1080 Mn 0.42248 0.44736 0.65755 0.0
Mn1081 Mn 0.4683 0.5045 0.65512 0.0
C1082 C 0.47208 0.43978 0.65495 0.0
C1083 C 0.39264 0.4127 0.64441 0.0
C1084 C 0.43993 0.4849 0.68851 0.0
O1085 O 0.39538 0.48105 0.65133 0.0
O1086 O 0.42854 0.51679 0.64833 0.0
C1087 C 0.46734 0.51389 0.61737 0.0
N1088 N 0.48251 0.50838 0.63208 0.0
C1089 C 0.52773 0.50706 0.61652 0.0
C1090 C 0.51261 0.51291 0.60121 0.0
C1091 C 0.48227 0.51629 0.60164 0.0
C1092 C 0.51171 0.50513 0.63183 0.0
H1093 H 0.444 0.51637 0.61763 0.0
C1094 C 0.40239 0.5072 0.64758 0.0
O1095 O 0.38931 0.41986 0.66049 0.0
O1096 O 0.41243 0.42658 0.63581 0.0
N1097 N 0.50755 0.49525 0.66115 0.0
C1098 C 0.51862 0.48789 0.67685 0.0
C1099 C 0.54857 0.48276 0.67853 0.0
C1100 C 0.56681 0.48536 0.66409 0.0
C1101 C 0.55495 0.49318 0.6481 0.0
C1102 C 0.52499 0.49828 0.64724 0.0
H1103 H 0.50469 0.48575 0.68798 0.0
O1104 O 0.45546 0.41964 0.66125 0.0
O1105 O 0.45917 0.46369 0.65042 0.0
O1106 O 0.42678 0.46287 0.68226 0.0
O1107 O 0.4554 0.50214 0.67943 0.0
C1108 C 0.57159 0.49551 0.63291 0.0
C1109 C 0.55799 0.50244 0.61713 0.0
H1110 H 0.52402 0.51456 0.58904 0.0
H1111 H 0.47043 0.52065 0.58987 0.0
H1112 H 0.55755 0.47667 0.69091 0.0
H1113 H 0.58985 0.48109 0.6654 0.0
H1114 H 0.59479 0.49159 0.63317 0.0
H1115 H 0.57094 0.50375 0.6055 0.0
Mn1116 Mn 0.30893 0.67161 0.40877 0.0
Mn1117 Mn 0.25314 0.71888 0.4052 0.0
C1118 C 0.31778 0.72098 0.40602 0.0
C1119 C 0.34365 0.6411 0.39625 0.0
C1120 C 0.27125 0.69198 0.43922 0.0
O1121 O 0.27536 0.64504 0.40208 0.0
O1122 O 0.23984 0.67857 0.40005 0.0
C1123 C 0.24381 0.71346 0.36756 0.0
N1124 N 0.24947 0.73032 0.3816 0.0
C1125 C 0.25163 0.77347 0.36412 0.0
C1126 C 0.24562 0.7566 0.34949 0.0
C1127 C 0.24173 0.72646 0.35122 0.0
C1128 C 0.25321 0.75934 0.38009 0.0
H1129 H 0.24096 0.69027 0.36879 0.0
C1130 C 0.24906 0.6523 0.39906 0.0
O1131 O 0.33575 0.63794 0.41223 0.0
O1132 O 0.33055 0.66114 0.38745 0.0
N1133 N 0.26295 0.75867 0.40953 0.0
C1134 C 0.27041 0.77158 0.42471 0.0
C1135 C 0.27574 0.80162 0.42513 0.0
C1136 C 0.27334 0.81808 0.40995 0.0
C1137 C 0.26554 0.80435 0.39449 0.0
C1138 C 0.26012 0.7744 0.3949 0.0
H1139 H 0.27272 0.75899 0.43635 0.0
O1140 O 0.33706 0.70404 0.41292 0.0
O1141 O 0.29382 0.70859 0.40105 0.0
O1142 O 0.29176 0.67629 0.43315 0.0
O1143 O 0.25576 0.70894 0.42996 0.0
C1144 C 0.26361 0.81908 0.3786 0.0
C1145 C 0.25669 0.80365 0.36343 0.0
H1146 H 0.2442 0.76651 0.33685 0.0
H1147 H 0.23724 0.71327 0.33998 0.0
H1148 H 0.28194 0.81201 0.43709 0.0
H1149 H 0.27786 0.84117 0.41027 0.0
H1150 H 0.26784 0.84221 0.37787 0.0
H1151 H 0.25567 0.81515 0.35126 0.0
H1152 H 0.42719 0.94388 0.29068 0.0
H1153 H 0.42671 0.06146 0.21502 0.0
H1154 H 0.44696 0.03434 0.29955 0.0
H1155 H 0.44725 0.97116 0.20621 0.0
H1156 H 0.42518 0.05183 0.24612 0.0
H1157 H 0.42559 0.95355 0.25959 0.0
C1158 C 0.43098 0.9658 0.28612 0.0
C1159 C 0.43732 0.98832 0.29775 0.0
C1160 C 0.42995 0.03416 0.23734 0.0
C1161 C 0.43522 0.99952 0.26225 0.0
C1162 C 0.43069 0.03959 0.2196 0.0
C1163 C 0.43722 0.0171 0.20798 0.0
C1164 C 0.43521 0.00594 0.24349 0.0
C1165 C 0.44233 0.98919 0.21469 0.0
C1166 C 0.4302 0.97125 0.26838 0.0
C1167 C 0.44219 0.01629 0.29106 0.0
N1168 N 0.44107 0.98437 0.23198 0.0
N1169 N 0.4409 0.02112 0.27377 0.0
H1170 H 0.22011 0.19755 0.55011 0.0
H1171 H 0.28562 0.19724 0.45546 0.0
H1172 H 0.31048 0.17862 0.54036 0.0
H1173 H 0.1957 0.17662 0.46544 0.0
H1174 H 0.29521 0.1956 0.4865 0.0
H1175 H 0.21067 0.19512 0.51908 0.0
C1176 C 0.23798 0.19286 0.54145 0.0
C1177 C 0.26616 0.18829 0.54787 0.0
C1178 C 0.27343 0.19127 0.48187 0.0
C1179 C 0.25549 0.18582 0.51231 0.0
C1180 C 0.26789 0.19231 0.46417 0.0
C1181 C 0.23978 0.18706 0.45781 0.0
C1182 C 0.25061 0.18553 0.49338 0.0
C1183 C 0.21771 0.18067 0.46974 0.0
C1184 C 0.23252 0.19135 0.52376 0.0
C1185 C 0.28842 0.18216 0.53601 0.0
N1186 N 0.22352 0.18038 0.48695 0.0
N1187 N 0.28266 0.18139 0.51879 0.0
H1188 H 0.0581 0.96925 0.79987 0.0
H1189 H 0.05766 0.0362 0.70559 0.0
H1190 H 0.07714 0.05973 0.79054 0.0
H1191 H 0.07829 0.9461 0.71499 0.0
H1192 H 0.05958 0.04529 0.73668 0.0
H1193 H 0.06027 0.96025 0.76878 0.0
C1194 C 0.06277 0.98723 0.79129 0.0
C1195 C 0.06743 0.01531 0.79784 0.0
C1196 C 0.06385 0.02358 0.73191 0.0
C1197 C 0.06959 0.00515 0.76222 0.0
C1198 C 0.06264 0.01833 0.71418 0.0
C1199 C 0.06782 0.99032 0.70765 0.0
C1200 C 0.06968 1.00057 0.74327 0.0
C1201 C 0.07429 0.96804 0.71943 0.0
C1202 C 0.06413 0.98203 0.77356 0.0
C1203 C 0.07353 0.03773 0.78609 0.0
N1204 N 0.07474 0.97357 0.73667 0.0
N1205 N 0.07414 0.03223 0.76884 0.0
H1206 H 0.21905 0.80623 0.95521 0.0
H1207 H 0.28492 0.80944 0.04974 0.0
H1208 H 0.30908 0.82702 0.96472 0.0
H1209 H 0.1946 0.8283 0.0398 0.0
H1210 H 0.29433 0.81073 0.01868 0.0
H1211 H 0.20967 0.80906 0.98624 0.0
C1212 C 0.23685 0.81141 0.96382 0.0
C1213 C 0.26492 0.81638 0.95733 0.0
C1214 C 0.27251 0.81476 0.02332 0.0
C1215 C 0.25433 0.81933 0.99289 0.0
C1216 C 0.26707 0.81391 0.04104 0.0
C1217 C 0.23891 0.81877 0.04741 0.0
C1218 C 0.24953 0.81988 0.01182 0.0
C1219 C 0.21666 0.82458 0.03549 0.0
C1220 C 0.23143 0.81315 0.98151 0.0
C1221 C 0.2871 0.82315 0.96912 0.0
N1222 N 0.22238 0.82467 0.01826 0.0
N1223 N 0.28139 0.82414 0.98634 0.0
H1224 H 0.57809 0.94256 0.79028 0.0
H1225 H 0.57751 0.06097 0.71506 0.0
H1226 H 0.55715 0.03267 0.79946 0.0
H1227 H 0.55807 0.97052 0.7059 0.0
H1228 H 0.57909 0.05103 0.74613 0.0
H1229 H 0.57985 0.95262 0.75924 0.0
C1230 C 0.57409 0.96449 0.78579 0.0
C1231 C 0.56736 0.98678 0.7975 0.0
C1232 C 0.57455 0.03339 0.73728 0.0
C1233 C 0.56962 0.99843 0.76205 0.0
C1234 C 0.57378 0.039 0.71956 0.0
C1235 C 0.56754 0.01656 0.70785 0.0
C1236 C 0.56962 0.00505 0.74332 0.0
C1237 C 0.56275 0.98852 0.71445 0.0
C1238 C 0.57496 0.97016 0.76809 0.0
C1239 C 0.56223 0.01477 0.79091 0.0
N1240 N 0.56403 0.98353 0.73172 0.0
N1241 N 0.56359 0.01983 0.77365 0.0
H1242 H 0.69345 0.82812 0.46508 0.0
H1243 H 0.811 0.82872 0.54079 0.0
H1244 H 0.78387 0.80799 0.45639 0.0
H1245 H 0.72067 0.80841 0.54969 0.0
H1246 H 0.80128 0.8303 0.50971 0.0
H1247 H 0.70303 0.83 0.49619 0.0
C1248 C 0.71534 0.82431 0.46969 0.0
C1249 C 0.73787 0.81778 0.4581 0.0
C1250 C 0.78361 0.82559 0.5185 0.0
C1251 C 0.74898 0.82021 0.49361 0.0
C1252 C 0.78909 0.82483 0.53623 0.0
C1253 C 0.76664 0.81832 0.54787 0.0
C1254 C 0.75538 0.82036 0.51237 0.0
C1255 C 0.73869 0.81331 0.54119 0.0
C1256 C 0.72074 0.82525 0.48743 0.0
C1257 C 0.7658 0.81289 0.46484 0.0
N1258 N 0.73382 0.81457 0.5239 0.0
N1259 N 0.77059 0.81434 0.48213 0.0
H1260 H 0.94659 0.96945 0.30029 0.0
H1261 H 0.94569 0.03516 0.20568 0.0
H1262 H 0.9266 0.0596 0.29053 0.0
H1263 H 0.92631 0.94491 0.21554 0.0
H1264 H 0.94386 0.04461 0.23673 0.0
H1265 H 0.94435 0.95998 0.26925 0.0
C1266 C 0.94169 0.98726 0.29163 0.0
C1267 C 0.93678 0.01539 0.29805 0.0
C1268 C 0.93984 0.02279 0.23207 0.0
C1269 C 0.93454 0.00469 0.26248 0.0
C1270 C 0.941 0.01733 0.21436 0.0
C1271 C 0.93614 0.98917 0.20797 0.0
C1272 C 0.93439 0.99985 0.24355 0.0
C1273 C 0.93004 0.96696 0.21986 0.0
C1274 C 0.94029 0.98178 0.27393 0.0
C1275 C 0.9304 0.03756 0.28618 0.0
N1276 N 0.92964 0.97271 0.23709 0.0
N1277 N 0.92975 0.0318 0.26897 0.0
H1278 H 0.81006 0.17615 0.96468 0.0
H1279 H 0.69306 0.17673 0.0407 0.0
H1280 H 0.71949 0.1956 0.95598 0.0
H1281 H 0.78345 0.19734 0.04913 0.0
H1282 H 0.70244 0.17476 0.00958 0.0
H1283 H 0.80064 0.17499 0.9958 0.0
C1284 C 0.78817 0.17996 0.96929 0.0
C1285 C 0.76555 0.18608 0.95769 0.0
C1286 C 0.72019 0.17965 0.01828 0.0
C1287 C 0.75463 0.1845 0.99324 0.0
C1288 C 0.7149 0.18065 0.03603 0.0
C1289 C 0.73748 0.18732 0.04755 0.0
C1290 C 0.74836 0.18479 0.01202 0.0
C1291 C 0.76534 0.19232 0.04073 0.0
C1292 C 0.78286 0.17943 0.98704 0.0
C1293 C 0.73763 0.19099 0.96444 0.0
N1294 N 0.77002 0.19081 0.02344 0.0
N1295 N 0.73293 0.18996 0.98175 0.0
H1296 H 0.94603 0.46914 0.70546 0.0
H1297 H 0.94524 0.53435 0.80018 0.0
H1298 H 0.92605 0.55924 0.7154 0.0
H1299 H 0.92576 0.44417 0.79016 0.0
H1300 H 0.94337 0.54397 0.76916 0.0
H1301 H 0.94379 0.45951 0.73648 0.0
C1302 C 0.94114 0.4869 0.71415 0.0
C1303 C 0.93623 0.51507 0.7078 0.0
C1304 C 0.93934 0.52213 0.77377 0.0
C1305 C 0.93399 0.50419 0.74333 0.0
C1306 C 0.94052 0.51657 0.79147 0.0
C1307 C 0.93566 0.48839 0.7978 0.0
C1308 C 0.93385 0.49925 0.76226 0.0
C1309 C 0.92951 0.46624 0.78587 0.0
C1310 C 0.93974 0.48134 0.73184 0.0
C1311 C 0.92985 0.53718 0.7197 0.0
N1312 N 0.92908 0.47208 0.76866 0.0
N1313 N 0.92921 0.53134 0.7369 0.0
H1314 H 0.71953 0.69591 0.05075 0.0
H1315 H 0.78502 0.69566 0.95614 0.0
H1316 H 0.80951 0.67538 0.04085 0.0
H1317 H 0.69479 0.67609 0.9659 0.0
H1318 H 0.79446 0.69346 0.98717 0.0
H1319 H 0.70995 0.69385 0.01971 0.0
C1320 C 0.73728 0.69092 0.04206 0.0
C1321 C 0.76539 0.68581 0.04843 0.0
C1322 C 0.77265 0.68949 0.9825 0.0
C1323 C 0.75458 0.6838 0.01288 0.0
C1324 C 0.76718 0.69086 0.9648 0.0
C1325 C 0.73904 0.68606 0.95839 0.0
C1326 C 0.74971 0.68387 0.99395 0.0
C1327 C 0.71683 0.6798 0.97025 0.0
C1328 C 0.73174 0.68963 0.02436 0.0
C1329 C 0.78749 0.67932 0.03654 0.0
N1330 N 0.72257 0.67919 0.98747 0.0
N1331 N 0.78168 0.6788 0.01933 0.0
H1332 H 0.557 0.46916 0.30085 0.0
H1333 H 0.55772 0.53488 0.20623 0.0
H1334 H 0.5769 0.5593 0.29101 0.0
H1335 H 0.57676 0.44455 0.21602 0.0
H1336 H 0.55957 0.54429 0.23727 0.0
H1337 H 0.55907 0.45965 0.26981 0.0
C1338 C 0.56183 0.48696 0.29217 0.0
C1339 C 0.56677 0.5151 0.29857 0.0
C1340 C 0.5635 0.52245 0.2326 0.0
C1341 C 0.56883 0.50435 0.263 0.0
C1342 C 0.56232 0.51701 0.2149 0.0
C1343 C 0.56708 0.48885 0.20849 0.0
C1344 C 0.56888 0.49949 0.24407 0.0
C1345 C 0.57309 0.4666 0.22036 0.0
C1346 C 0.56313 0.48146 0.27447 0.0
C1347 C 0.57308 0.53726 0.28669 0.0
N1348 N 0.57353 0.47233 0.23759 0.0
N1349 N 0.57363 0.53148 0.26947 0.0
H1350 H 0.78499 0.30833 0.54984 0.0
H1351 H 0.71965 0.30815 0.45522 0.0
H1352 H 0.69482 0.32807 0.54001 0.0
H1353 H 0.80963 0.32863 0.46512 0.0
H1354 H 0.71006 0.31021 0.48625 0.0
H1355 H 0.79452 0.31052 0.51882 0.0
C1356 C 0.76719 0.31316 0.54117 0.0
C1357 C 0.73904 0.31801 0.54755 0.0
C1358 C 0.73185 0.31442 0.4816 0.0
C1359 C 0.7498 0.32019 0.51201 0.0
C1360 C 0.73739 0.31312 0.46391 0.0
C1361 C 0.76552 0.31822 0.45754 0.0
C1362 C 0.75469 0.32024 0.49309 0.0
C1363 C 0.78761 0.32469 0.46944 0.0
C1364 C 0.7727 0.31454 0.52347 0.0
C1365 C 0.71687 0.32432 0.53568 0.0
N1366 N 0.7818 0.32522 0.48665 0.0
N1367 N 0.72265 0.32492 0.51846 0.0
H1368 H 0.07927 0.4443 0.2909 0.0
H1369 H 0.07925 0.56192 0.21524 0.0
H1370 H 0.05872 0.53461 0.29973 0.0
H1371 H 0.05958 0.47143 0.2064 0.0
H1372 H 0.08083 0.55228 0.24634 0.0
H1373 H 0.08117 0.45401 0.25983 0.0
C1374 C 0.07538 0.46621 0.28633 0.0
C1375 C 0.06872 0.48866 0.29795 0.0
C1376 C 0.07626 0.53457 0.23755 0.0
C1377 C 0.07115 0.4999 0.26246 0.0
C1378 C 0.07549 0.54 0.21981 0.0
C1379 C 0.06918 0.51746 0.20819 0.0
C1380 C 0.07123 0.50631 0.2437 0.0
C1381 C 0.06434 0.4895 0.21488 0.0
C1382 C 0.07634 0.47167 0.26861 0.0
C1383 C 0.06374 0.5166 0.29125 0.0
N1384 N 0.0656 0.48468 0.23217 0.0
N1385 N 0.06518 0.52146 0.27397 0.0
H1386 H 0.31089 0.32847 0.04048 0.0
H1387 H 0.19309 0.32808 0.96491 0.0
H1388 H 0.22053 0.30831 0.04937 0.0
H1389 H 0.28347 0.30805 0.956 0.0
H1390 H 0.20286 0.32991 0.99598 0.0
H1391 H 0.30117 0.33007 0.00939 0.0
C1392 C 0.28898 0.32461 0.03592 0.0
C1393 C 0.26651 0.31814 0.04756 0.0
C1394 C 0.22052 0.32519 0.98718 0.0
C1395 C 0.25525 0.32022 0.01206 0.0
C1396 C 0.21501 0.32428 0.96946 0.0
C1397 C 0.23748 0.31779 0.95782 0.0
C1398 C 0.24879 0.32015 0.99331 0.0
C1399 C 0.26545 0.31293 0.96449 0.0
C1400 C 0.2835 0.32538 0.01819 0.0
C1401 C 0.23855 0.31317 0.04088 0.0
N1402 N 0.27035 0.31433 0.98177 0.0
N1403 N 0.23369 0.31445 0.02359 0.0
H1404 H 0.44772 0.46894 0.79947 0.0
H1405 H 0.44769 0.53662 0.70536 0.0
H1406 H 0.428 0.55934 0.79039 0.0
H1407 H 0.42751 0.44634 0.71451 0.0
H1408 H 0.44581 0.54544 0.73648 0.0
H1409 H 0.44567 0.46018 0.76835 0.0
C1410 C 0.44294 0.48696 0.79094 0.0
C1411 C 0.43803 0.51495 0.79757 0.0
C1412 C 0.44163 0.52375 0.73165 0.0
C1413 C 0.43601 0.50506 0.76192 0.0
C1414 C 0.44282 0.51864 0.7139 0.0
C1415 C 0.43775 0.49067 0.7073 0.0
C1416 C 0.43594 0.50062 0.74295 0.0
C1417 C 0.43142 0.46826 0.71901 0.0
C1418 C 0.44165 0.48189 0.7732 0.0
C1419 C 0.43179 0.53741 0.78587 0.0
N1420 N 0.431 0.47365 0.73628 0.0
N1421 N 0.43125 0.53204 0.76861 0.0
H1422 H 0.22182 0.64609 0.54426 0.0
H1423 H 0.24802 0.73497 0.45925 0.0
H1424 H 0.25541 0.7336 0.5461 0.0
H1425 H 0.28029 0.64702 0.46204 0.0
H1426 H 0.23896 0.7339 0.4903 0.0
H1427 H 0.23208 0.64485 0.51307 0.0
C1428 C 0.23117 0.66505 0.53812 0.0
C1429 C 0.23762 0.69005 0.54781 0.0
C1430 C 0.24802 0.71487 0.48407 0.0
C1431 C 0.24877 0.68888 0.51231 0.0
C1432 C 0.25319 0.7154 0.46635 0.0
C1433 C 0.26527 0.69114 0.45802 0.0
C1434 C 0.25406 0.68962 0.49349 0.0
C1435 C 0.27125 0.6663 0.46797 0.0
C1436 C 0.23714 0.66423 0.52041 0.0
C1437 C 0.24996 0.71392 0.5392 0.0
N1438 N 0.26531 0.66605 0.4852 0.0
N1439 N 0.25476 0.71288 0.52192 0.0
H1440 H 0.4073 0.94198 0.14286 0.0
H1441 H 0.24376 0.91314 0.1119 0.0
H1442 H 0.34314 0.01047 0.14135 0.0
H1443 H 0.31045 0.84758 0.11684 0.0
H1444 H 0.27866 0.94967 0.12227 0.0
H1445 H 0.37098 0.9078 0.13306 0.0
C1446 C 0.38551 0.94994 0.14049 0.0
C1447 C 0.37842 0.97933 0.14296 0.0
C1448 C 0.28551 0.92725 0.12106 0.0
C1449 C 0.33622 0.93975 0.13155 0.0
C1450 C 0.26564 0.90639 0.11511 0.0
C1451 C 0.27409 0.87714 0.11342 0.0
C1452 C 0.31397 0.91877 0.1253 0.0
C1453 C 0.30275 0.86974 0.11784 0.0
C1454 C 0.36466 0.93026 0.13487 0.0
C1455 C 0.34963 0.98804 0.13966 0.0
N1456 N 0.32149 0.89033 0.12353 0.0
N1457 N 0.32956 0.96833 0.13408 0.0
H1458 H 0.31131 0.15961 0.38827 0.0
H1459 H 0.34286 0.99337 0.36391 0.0
H1460 H 0.24564 0.09304 0.39327 0.0
H1461 H 0.40633 0.06254 0.3634 0.0
H1462 H 0.30607 0.02849 0.3737 0.0
H1463 H 0.34536 0.12338 0.37822 0.0
C1464 C 0.30394 0.13732 0.3873 0.0
C1465 C 0.2754 0.12951 0.39173 0.0
C1466 C 0.32808 0.03584 0.37141 0.0
C1467 C 0.31486 0.08738 0.38003 0.0
C1468 C 0.34909 0.01584 0.36578 0.0
C1469 C 0.37785 0.02489 0.3628 0.0
C1470 C 0.33592 0.06505 0.37399 0.0
C1471 C 0.38458 0.05432 0.36551 0.0
C1472 C 0.32355 0.11651 0.38151 0.0
C1473 C 0.26741 0.10011 0.39006 0.0
N1474 N 0.36387 0.07317 0.37092 0.0
N1475 N 0.28705 0.08008 0.38434 0.0
H1476 H 0.09634 0.06351 0.64022 0.0
H1477 H 0.26144 0.09403 0.61296 0.0
H1478 H 0.16191 0.99639 0.64213 0.0
H1479 H 0.19325 0.15845 0.61525 0.0
H1480 H 0.22644 0.05722 0.6229 0.0
H1481 H 0.13259 0.09767 0.63039 0.0
C1482 C 0.11842 0.05584 0.63861 0.0
C1483 C 0.12593 0.02684 0.64208 0.0
C1484 C 0.21929 0.07945 0.62119 0.0
C1485 C 0.1681 0.06645 0.63064 0.0
C1486 C 0.23921 0.10047 0.61549 0.0
C1487 C 0.23039 0.1295 0.61322 0.0
C1488 C 0.19039 0.08755 0.62458 0.0
C1489 C 0.20128 0.13649 0.61677 0.0
C1490 C 0.13924 0.07552 0.63295 0.0
C1491 C 0.15508 0.01851 0.63966 0.0
N1492 N 0.1825 0.11577 0.62222 0.0
N1493 N 0.17514 0.03823 0.63406 0.0
H1494 H 0.16163 0.00984 0.86305 0.0
H1495 H 0.19179 0.84441 0.88977 0.0
H1496 H 0.09707 0.94174 0.865 0.0
H1497 H 0.25894 0.90993 0.89202 0.0
H1498 H 0.1577 0.88079 0.88 0.0
H1499 H 0.19833 0.97467 0.87291 0.0
C1500 C 0.15514 0.98759 0.8655 0.0
C1501 C 0.12611 0.97884 0.86315 0.0
C1502 C 0.17984 0.8874 0.88262 0.0
C1503 C 0.16792 0.93865 0.87442 0.0
C1504 C 0.19948 0.86651 0.88824 0.0
C1505 C 0.22846 0.87397 0.8918 0.0
C1506 C 0.18895 0.91627 0.88042 0.0
C1507 C 0.23683 0.90313 0.88948 0.0
C1508 C 0.17609 0.96757 0.87115 0.0
C1509 C 0.11904 0.94971 0.86658 0.0
N1510 N 0.21716 0.92326 0.88392 0.0
N1511 N 0.13971 0.93084 0.87199 0.0
H1512 H 0.75982 0.09125 0.8919 0.0
H1513 H 0.59409 0.05976 0.86639 0.0
H1514 H 0.69078 0.15487 0.8918 0.0
H1515 H 0.66056 0.99376 0.86259 0.0
H1516 H 0.63017 0.09395 0.87649 0.0
H1517 H 0.72481 0.05444 0.88202 0.0
C1518 C 0.7374 0.09751 0.88988 0.0
C1519 C 0.72835 0.12632 0.89271 0.0
C1520 C 0.63704 0.07204 0.87345 0.0
C1521 C 0.68832 0.08437 0.88141 0.0
C1522 C 0.61633 0.05235 0.86764 0.0
C1523 C 0.62416 0.02367 0.86354 0.0
C1524 C 0.66609 0.06327 0.87529 0.0
C1525 C 0.65348 0.01563 0.86554 0.0
C1526 C 0.71746 0.07649 0.8842 0.0
C1527 C 0.69898 0.13308 0.88981 0.0
N1528 N 0.67342 0.03534 0.87128 0.0
N1529 N 0.68019 0.11236 0.88435 0.0
H1530 H 0.66207 0.01135 0.64189 0.0
H1531 H 0.69347 0.84531 0.61704 0.0
H1532 H 0.5985 0.94227 0.6422 0.0
H1533 H 0.75936 0.91179 0.61264 0.0
H1534 H 0.65938 0.8815 0.6271 0.0
H1535 H 0.69884 0.97625 0.63207 0.0
C1536 C 0.65582 0.9889 0.63997 0.0
C1537 C 0.62703 0.97986 0.64289 0.0
C1538 C 0.68124 0.88835 0.62394 0.0
C1539 C 0.66893 0.93973 0.63167 0.0
C1540 C 0.70088 0.86758 0.61814 0.0
C1541 C 0.72949 0.87539 0.61388 0.0
C1542 C 0.69 0.91743 0.6256 0.0
C1543 C 0.73754 0.90474 0.61572 0.0
C1544 C 0.67682 0.96891 0.63433 0.0
C1545 C 0.62027 0.95046 0.64012 0.0
N1546 N 0.71787 0.92474 0.62144 0.0
N1547 N 0.64097 0.93162 0.6347 0.0
H1548 H 0.81348 0.84701 0.39295 0.0
H1549 H 0.84285 0.01073 0.36249 0.0
H1550 H 0.74522 0.91143 0.39161 0.0
H1551 H 0.90827 0.94391 0.36745 0.0
H1552 H 0.80622 0.97584 0.37272 0.0
H1553 H 0.8478 0.88331 0.38329 0.0
C1554 C 0.80559 0.86885 0.39065 0.0
C1555 C 0.77623 0.87603 0.39313 0.0
C1556 C 0.82863 0.96896 0.37155 0.0
C1557 C 0.81597 0.9182 0.38189 0.0
C1558 C 0.84955 0.98882 0.36569 0.0
C1559 C 0.8788 0.98034 0.36403 0.0
C1560 C 0.83704 0.94045 0.37575 0.0
C1561 C 0.88612 0.95164 0.36843 0.0
C1562 C 0.82536 0.8897 0.38511 0.0
C1563 C 0.76762 0.90487 0.38992 0.0
N1564 N 0.86547 0.9329 0.37403 0.0
N1565 N 0.78741 0.92493 0.38441 0.0
H1566 H 0.81348 0.15691 0.11153 0.0
H1567 H 0.84187 0.99407 0.14391 0.0
H1568 H 0.74441 0.09356 0.11472 0.0
H1569 H 0.90771 0.06024 0.13786 0.0
H1570 H 0.80535 0.0289 0.13346 0.0
H1571 H 0.84766 0.12053 0.12123 0.0
C1572 C 0.80539 0.13529 0.11425 0.0
C1573 C 0.77583 0.12845 0.1123 0.0
C1574 C 0.82782 0.03565 0.13445 0.0
C1575 C 0.81542 0.08618 0.1236 0.0
C1576 C 0.84869 0.01582 0.14043 0.0
C1577 C 0.87801 0.02415 0.14186 0.0
C1578 C 0.83639 0.06395 0.12987 0.0
C1579 C 0.88549 0.05264 0.13709 0.0
C1580 C 0.82507 0.1144 0.11981 0.0
C1581 C 0.76696 0.09985 0.11601 0.0
N1582 N 0.8649 0.07134 0.13137 0.0
N1583 N 0.78668 0.07974 0.12154 0.0
H1584 H 0.81191 0.34548 0.61544 0.0
H1585 H 0.84231 0.51067 0.64254 0.0
H1586 H 0.74513 0.41135 0.61297 0.0
H1587 H 0.90699 0.44273 0.64014 0.0
H1588 H 0.80564 0.4756 0.63257 0.0
H1589 H 0.84611 0.38172 0.62533 0.0
C1590 C 0.80433 0.36762 0.61694 0.0
C1591 C 0.77543 0.37524 0.61329 0.0
C1592 C 0.8279 0.46851 0.63425 0.0
C1593 C 0.81503 0.41734 0.62479 0.0
C1594 C 0.84884 0.48848 0.63997 0.0
C1595 C 0.87789 0.47974 0.64223 0.0
C1596 C 0.83609 0.43965 0.63083 0.0
C1597 C 0.885 0.45067 0.63864 0.0
C1598 C 0.82402 0.38843 0.62262 0.0
C1599 C 0.76718 0.40444 0.61558 0.0
N1600 N 0.86433 0.43183 0.63317 0.0
N1601 N 0.78689 0.42447 0.6212 0.0
H1602 H 0.84178 0.4932 0.86267 0.0
H1603 H 0.8126 0.65772 0.89167 0.0
H1604 H 0.90716 0.56028 0.86651 0.0
H1605 H 0.74484 0.59274 0.8923 0.0
H1606 H 0.84672 0.62136 0.88183 0.0
H1607 H 0.80529 0.5283 0.87284 0.0
C1608 C 0.84851 0.51521 0.86561 0.0
C1609 C 0.8777 0.5237 0.86367 0.0
C1610 C 0.82443 0.61487 0.88411 0.0
C1611 C 0.8361 0.56383 0.8753 0.0
C1612 C 0.80478 0.63575 0.88976 0.0
C1613 C 0.77563 0.62842 0.89287 0.0
C1614 C 0.81513 0.58618 0.88143 0.0
C1615 C 0.76709 0.59942 0.89012 0.0
C1616 C 0.82766 0.5352 0.87143 0.0
C1617 C 0.88505 0.55253 0.86773 0.0
N1618 N 0.78676 0.57932 0.88452 0.0
N1619 N 0.86448 0.5714 0.8733 0.0
H1620 H 0.69367 0.65898 0.11771 0.0
H1621 H 0.66178 0.49318 0.14279 0.0
H1622 H 0.75937 0.59231 0.11327 0.0
H1623 H 0.59826 0.56231 0.14248 0.0
H1624 H 0.69871 0.52813 0.13298 0.0
H1625 H 0.65948 0.62292 0.12776 0.0
C1626 C 0.70102 0.6367 0.1188 0.0
C1627 C 0.72961 0.62881 0.11453 0.0
C1628 C 0.67665 0.5355 0.13509 0.0
C1629 C 0.68999 0.58688 0.12623 0.0
C1630 C 0.65557 0.51561 0.14073 0.0
C1631 C 0.62675 0.52471 0.14349 0.0
C1632 C 0.66883 0.56465 0.13228 0.0
C1633 C 0.62004 0.55407 0.14054 0.0
C1634 C 0.68133 0.61599 0.12459 0.0
C1635 C 0.73756 0.59943 0.11636 0.0
N1636 N 0.64083 0.57282 0.13514 0.0
N1637 N 0.71784 0.57949 0.12208 0.0
H1638 H 0.69329 0.34526 0.38883 0.0
H1639 H 0.66132 0.51105 0.36379 0.0
H1640 H 0.75916 0.41184 0.39282 0.0
H1641 H 0.59733 0.44239 0.36531 0.0
H1642 H 0.69832 0.47602 0.37338 0.0
H1643 H 0.6589 0.38143 0.37913 0.0
C1644 C 0.70063 0.36754 0.3877 0.0
C1645 C 0.72933 0.37538 0.39174 0.0
C1646 C 0.67614 0.46877 0.37159 0.0
C1647 C 0.68948 0.41742 0.38047 0.0
C1648 C 0.65501 0.48871 0.36609 0.0
C1649 C 0.62606 0.47976 0.3637 0.0
C1650 C 0.66823 0.43971 0.37464 0.0
C1651 C 0.61924 0.45051 0.36694 0.0
C1652 C 0.68082 0.38831 0.38213 0.0
C1653 C 0.73728 0.40476 0.38991 0.0
N1654 N 0.64008 0.4317 0.37219 0.0
N1655 N 0.71744 0.42475 0.38439 0.0
H1656 H 0.16181 0.49491 0.36298 0.0
H1657 H 0.19079 0.65877 0.39353 0.0
H1658 H 0.09614 0.56166 0.36713 0.0
H1659 H 0.25882 0.59413 0.39208 0.0
H1660 H 0.15632 0.6225 0.38379 0.0
H1661 H 0.19809 0.52995 0.37339 0.0
C1662 C 0.15498 0.51684 0.36603 0.0
C1663 C 0.12577 0.52525 0.3641 0.0
C1664 C 0.17875 0.6161 0.38561 0.0
C1665 C 0.16715 0.56533 0.37605 0.0
C1666 C 0.19857 0.6369 0.39121 0.0
C1667 C 0.22791 0.62963 0.39366 0.0
C1668 C 0.1881 0.58759 0.38232 0.0
C1669 C 0.23644 0.60077 0.39041 0.0
C1670 C 0.17571 0.5368 0.372 0.0
C1671 C 0.11828 0.55399 0.36833 0.0
N1672 N 0.21663 0.5808 0.38486 0.0
N1673 N 0.13876 0.57285 0.37405 0.0
H1674 H 0.19213 0.3465 0.11449 0.0
H1675 H 0.16286 0.51133 0.14289 0.0
H1676 H 0.25981 0.41155 0.11356 0.0
H1677 H 0.09779 0.44381 0.14015 0.0
H1678 H 0.19932 0.47619 0.13274 0.0
H1679 H 0.15806 0.38286 0.12439 0.0
C1680 C 0.19993 0.36849 0.11634 0.0
C1681 C 0.22906 0.37583 0.11313 0.0
C1682 C 0.17703 0.4692 0.13439 0.0
C1683 C 0.18961 0.41808 0.12465 0.0
C1684 C 0.1562 0.48922 0.14021 0.0
C1685 C 0.1271 0.48062 0.14244 0.0
C1686 C 0.16867 0.44044 0.13082 0.0
C1687 C 0.11983 0.45165 0.13869 0.0
C1688 C 0.18032 0.38937 0.12203 0.0
C1689 C 0.23759 0.40485 0.11582 0.0
N1690 N 0.14038 0.43277 0.13312 0.0
N1691 N 0.21794 0.42495 0.12146 0.0
H1692 H 0.40811 0.44031 0.86346 0.0
H1693 H 0.24366 0.41182 0.89283 0.0
H1694 H 0.34377 0.50869 0.86367 0.0
H1695 H 0.31091 0.34652 0.88965 0.0
H1696 H 0.2788 0.44822 0.88258 0.0
H1697 H 0.37163 0.40638 0.87332 0.0
C1698 C 0.38625 0.4483 0.86555 0.0
C1699 C 0.37915 0.47759 0.86269 0.0
C1700 C 0.28572 0.42589 0.88416 0.0
C1701 C 0.33676 0.43828 0.87418 0.0
C1702 C 0.26571 0.4051 0.89004 0.0
C1703 C 0.27423 0.37595 0.89217 0.0
C1704 C 0.31439 0.41742 0.88042 0.0
C1705 C 0.30313 0.3686 0.88827 0.0
C1706 C 0.3653 0.42876 0.87122 0.0
C1707 C 0.35027 0.48634 0.86566 0.0
N1708 N 0.32199 0.3891 0.88263 0.0
N1709 N 0.3301 0.46676 0.87128 0.0
H1710 H 0.40929 0.56449 0.63948 0.0
H1711 H 0.24353 0.59411 0.61339 0.0
H1712 H 0.34361 0.49754 0.64215 0.0
H1713 H 0.31171 0.65864 0.61338 0.0
H1714 H 0.27893 0.55783 0.62331 0.0
H1715 H 0.37295 0.59851 0.62946 0.0
C1716 C 0.38717 0.55683 0.638 0.0
C1717 C 0.37964 0.52793 0.64173 0.0
C1718 C 0.28604 0.57995 0.6211 0.0
C1719 C 0.33745 0.56732 0.63007 0.0
C1720 C 0.26587 0.60068 0.6154 0.0
C1721 C 0.27455 0.62959 0.61251 0.0
C1722 C 0.31506 0.58819 0.6239 0.0
C1723 C 0.30382 0.63675 0.6154 0.0
C1724 C 0.36632 0.57642 0.63223 0.0
C1725 C 0.35046 0.51958 0.63948 0.0
N1726 N 0.32287 0.61627 0.62091 0.0
N1727 N 0.33041 0.53919 0.63377 0.0
H1728 H 0.3519 0.13035 0.16068 0.0
H1729 H 0.34177 0.24007 0.08051 0.0
H1730 H 0.39542 0.11563 0.11216 0.0
H1731 H 0.31157 0.2603 0.13167 0.0
H1732 H 0.35637 0.19159 0.09063 0.0
H1733 H 0.33059 0.17475 0.14882 0.0
C1734 C 0.35673 0.13626 0.14747 0.0
C1735 C 0.37569 0.11936 0.13745 0.0
C1736 C 0.34626 0.20651 0.0996 0.0
C1737 C 0.35166 0.17039 0.12386 0.0
C1738 C 0.33795 0.23407 0.09382 0.0
C1739 C 0.3246 0.25361 0.10517 0.0
C1740 C 0.34166 0.19878 0.11694 0.0
C1741 C 0.32085 0.24534 0.12241 0.0
C1742 C 0.34467 0.16171 0.14073 0.0
C1743 C 0.38107 0.12808 0.12039 0.0
N1744 N 0.32922 0.21851 0.12777 0.0
N1745 N 0.3693 0.15309 0.11417 0.0
H1746 H 0.12457 0.10229 0.41111 0.0
H1747 H 0.01561 0.0912 0.33059 0.0
H1748 H 0.13958 0.14541 0.36251 0.0
H1749 H 0.99454 0.06231 0.38189 0.0
H1750 H 0.06404 0.10577 0.34083 0.0
H1751 H 0.08021 0.0809 0.3992 0.0
C1752 C 0.11873 0.10701 0.39788 0.0
C1753 C 0.13569 0.12588 0.38785 0.0
C1754 C 0.04894 0.09596 0.34981 0.0
C1755 C 0.08475 0.10176 0.37419 0.0
C1756 C 0.02141 0.08766 0.34396 0.0
C1757 C 1.00165 0.07469 0.35532 0.0
C1758 C 0.05641 0.09172 0.36722 0.0
C1759 C 0.00968 0.07129 0.37263 0.0
C1760 C 0.09331 0.09491 0.39111 0.0
C1761 C 0.12707 0.13114 0.37075 0.0
N1762 N 0.03648 0.07963 0.37805 0.0
N1763 N 0.10211 0.11932 0.36451 0.0
H1764 H 0.15162 0.87514 0.66069 0.0
H1765 H 0.16043 0.76478 0.58071 0.0
H1766 H 0.10805 0.88999 0.61221 0.0
H1767 H 0.19047 0.74443 0.63189 0.0
H1768 H 0.14569 0.81319 0.59089 0.0
H1769 H 0.17197 0.83015 0.64899 0.0
C1770 C 0.14659 0.86912 0.64752 0.0
C1771 C 0.12791 0.88626 0.63747 0.0
C1772 C 0.15575 0.79824 0.59987 0.0
C1773 C 0.15081 0.83456 0.62407 0.0
C1774 C 0.16413 0.77071 0.59405 0.0
C1775 C 0.1776 0.75121 0.60537 0.0
C1776 C 0.1604 0.80598 0.6172 0.0
C1777 C 0.18116 0.7594 0.62264 0.0
C1778 C 0.15808 0.84334 0.64088 0.0
C1779 C 0.12222 0.87738 0.62047 0.0
N1780 N 0.17277 0.78621 0.62802 0.0
N1781 N 0.13345 0.85206 0.61434 0.0
H1782 H 0.48931 0.91045 0.83009 0.0
H1783 H 0.37936 0.90056 0.91019 0.0
H1784 H 0.50961 0.94019 0.88134 0.0
H1785 H 0.36483 0.85665 0.86177 0.0
H1786 H 0.4239 0.92163 0.89835 0.0
H1787 H 0.44084 0.89574 0.84021 0.0
C1788 C 0.48334 0.91412 0.84343 0.0
C1789 C 0.50288 0.92741 0.8548 0.0
C1790 C 0.41087 0.90751 0.89028 0.0
C1791 C 0.44807 0.91025 0.86656 0.0
C1792 C 0.38535 0.8956 0.897 0.0
C1793 C 0.36846 0.8766 0.88701 0.0
C1794 C 0.41963 0.90035 0.87345 0.0
C1795 C 0.37727 0.87104 0.86998 0.0
C1796 C 0.45579 0.90576 0.8492 0.0
C1797 C 0.49464 0.93097 0.87206 0.0
N1798 N 0.40235 0.88268 0.86378 0.0
N1799 N 0.46782 0.92258 0.87741 0.0
H1800 H 0.34334 0.76394 0.42499 0.0
H1801 H 0.35372 0.87346 0.34472 0.0
H1802 H 0.3135 0.74339 0.3738 0.0
H1803 H 0.39699 0.88846 0.39329 0.0
H1804 H 0.33303 0.82868 0.35647 0.0
H1805 H 0.35869 0.81208 0.41469 0.0
C1806 C 0.33982 0.76977 0.41162 0.0
C1807 C 0.32622 0.75031 0.40033 0.0
C1808 C 0.34694 0.84185 0.36458 0.0
C1809 C 0.34411 0.80476 0.38837 0.0
C1810 C 0.35864 0.86751 0.35791 0.0
C1811 C 0.37731 0.88464 0.36799 0.0
C1812 C 0.35401 0.83318 0.38145 0.0
C1813 C 0.38283 0.87586 0.38502 0.0
C1814 C 0.34855 0.79715 0.40574 0.0
C1815 C 0.3229 0.75835 0.38302 0.0
N1816 N 0.3714 0.85065 0.39118 0.0
N1817 N 0.33162 0.78501 0.37758 0.0
H1818 H 0.364 0.1456 0.64393 0.0
H1819 H 0.51144 0.06075 0.6232 0.0
H1820 H 0.38286 0.10639 0.59463 0.0
H1821 H 0.48931 0.09195 0.67388 0.0
H1822 H 0.46343 0.07547 0.61284 0.0
H1823 H 0.40825 0.12382 0.65564 0.0
C1824 C 0.37728 0.13214 0.6356 0.0
C1825 C 0.36981 0.12799 0.61822 0.0
C1826 C 0.46883 0.07883 0.62629 0.0
C1827 C 0.42073 0.10325 0.63151 0.0
C1828 C 0.49613 0.07024 0.63221 0.0
C1829 C 0.50376 0.07426 0.64952 0.0
C1830 C 0.44924 0.09219 0.6377 0.0
C1831 C 0.48385 0.08793 0.66051 0.0
C1832 C 0.40259 0.11975 0.6423 0.0
C1833 C 0.38781 0.11027 0.60808 0.0
N1834 N 0.45742 0.09635 0.65443 0.0
N1835 N 0.41255 0.09879 0.61483 0.0
H1836 H 0.10941 0.11286 0.89415 0.0
H1837 H 0.19309 0.26093 0.87335 0.0
H1838 H 0.14912 0.13169 0.84499 0.0
H1839 H 0.16189 0.23889 0.92403 0.0
H1840 H 0.17869 0.21279 0.86306 0.0
H1841 H 0.13057 0.15744 0.90584 0.0
C1842 C 0.12286 0.12619 0.88586 0.0
C1843 C 0.12733 0.11862 0.86852 0.0
C1844 C 0.17525 0.21824 0.87649 0.0
C1845 C 0.15133 0.16993 0.88178 0.0
C1846 C 0.18365 0.24563 0.88237 0.0
C1847 C 0.17956 0.25332 0.89967 0.0
C1848 C 0.16203 0.1986 0.88792 0.0
C1849 C 0.16596 0.23339 0.91067 0.0
C1850 C 0.13489 0.1517 0.89254 0.0
C1851 C 0.145 0.13671 0.85841 0.0
N1852 N 0.15774 0.20685 0.90463 0.0
N1853 N 0.15612 0.16164 0.86514 0.0
H1854 H 0.12316 0.9028 0.09428 0.0
H1855 H 0.01504 0.91344 0.17523 0.0
H1856 H 0.139 0.85994 0.14287 0.0
H1857 H 0.99334 0.9423 0.12401 0.0
H1858 H 0.06341 0.89904 0.1648 0.0
H1859 H 0.07881 0.92395 0.10635 0.0
C1860 C 0.1175 0.89809 0.10754 0.0
C1861 C 0.13469 0.87936 0.11753 0.0
C1862 C 0.04818 0.90881 0.15587 0.0
C1863 C 0.08377 0.9032 0.13136 0.0
C1864 C 0.02069 0.917 0.16183 0.0
C1865 C 1.00077 0.92992 0.15055 0.0
C1866 C 0.05546 0.91309 0.13844 0.0
C1867 C 0.0086 0.93336 0.13321 0.0
C1868 C 0.09209 0.91005 0.1144 0.0
C1869 C 0.1263 0.8741 0.13466 0.0
N1870 N 0.03537 0.92511 0.12769 0.0
N1871 N 0.10134 0.88578 0.14099 0.0
H1872 H 0.66284 0.76419 0.9255 0.0
H1873 H 0.65223 0.87307 0.84495 0.0
H1874 H 0.69269 0.74338 0.87435 0.0
H1875 H 0.60818 0.88779 0.8933 0.0
H1876 H 0.67374 0.82889 0.85698 0.0
H1877 H 0.64803 0.8125 0.9152 0.0
C1878 C 0.66654 0.77002 0.91215 0.0
C1879 C 0.67985 0.75038 0.90085 0.0
C1880 C 0.6595 0.84189 0.86499 0.0
C1881 C 0.66255 0.80501 0.88888 0.0
C1882 C 0.64733 0.86721 0.85816 0.0
C1883 C 0.62816 0.88403 0.86808 0.0
C1884 C 0.65243 0.83328 0.88187 0.0
C1885 C 0.62268 0.87538 0.88515 0.0
C1886 C 0.65811 0.79749 0.90627 0.0
C1887 C 0.68344 0.75844 0.88357 0.0
N1888 N 0.63458 0.8505 0.89146 0.0
N1889 N 0.67497 0.78518 0.87811 0.0
H1890 H 0.01122 0.94489 0.62339 0.0
H1891 H 0.8638 0.86026 0.64429 0.0
H1892 H 0.98935 0.914 0.67416 0.0
H1893 H 0.88193 0.90077 0.59528 0.0
H1894 H 0.90828 0.88168 0.65596 0.0
H1895 H 0.96314 0.93022 0.61316 0.0
C1896 C 0.99596 0.93546 0.63244 0.0
C1897 C 0.00368 0.93155 0.64975 0.0
C1898 C 0.9024 0.88612 0.6427 0.0
C1899 C 0.94904 0.9137 0.63807 0.0
C1900 C 0.87695 0.87394 0.63603 0.0
C1901 C 0.86922 0.87856 0.61873 0.0
C1902 C 0.9204 0.90285 0.63197 0.0
C1903 C 0.88708 0.89653 0.60866 0.0
C1904 C 0.96861 0.92691 0.62659 0.0
C1905 C 0.98382 0.91794 0.6608 0.0
N1906 N 0.91195 0.90778 0.61538 0.0
N1907 N 0.95732 0.90957 0.65479 0.0
H1908 H 0.84244 0.24043 0.42508 0.0
H1909 H 0.85307 0.1309 0.3448 0.0
H1910 H 0.8133 0.26108 0.37376 0.0
H1911 H 0.89663 0.1162 0.39331 0.0
H1912 H 0.83194 0.17541 0.35664 0.0
H1913 H 0.85728 0.19204 0.41489 0.0
C1914 C 0.83893 0.23456 0.41171 0.0
C1915 C 0.82578 0.25416 0.40033 0.0
C1916 C 0.846 0.16236 0.36473 0.0
C1917 C 0.84308 0.19945 0.38851 0.0
C1918 C 0.85795 0.13685 0.358 0.0
C1919 C 0.87686 0.11992 0.36802 0.0
C1920 C 0.85304 0.17105 0.38159 0.0
C1921 C 0.88232 0.12868 0.38507 0.0
C1922 C 0.84737 0.20705 0.4059 0.0
C1923 C 0.82242 0.24605 0.38304 0.0
N1924 N 0.87064 0.15374 0.39128 0.0
N1925 N 0.83088 0.21927 0.37766 0.0
H1926 H 0.6414 0.14464 0.14424 0.0
H1927 H 0.49324 0.06115 0.12332 0.0
H1928 H 0.62261 0.10488 0.09509 0.0
H1929 H 0.51511 0.09259 0.17398 0.0
H1930 H 0.54141 0.07552 0.11307 0.0
H1931 H 0.59672 0.12362 0.15589 0.0
C1932 C 0.62806 0.1312 0.13595 0.0
C1933 C 0.63568 0.12669 0.11862 0.0
C1934 C 0.53591 0.07903 0.12648 0.0
C1935 C 0.58426 0.10286 0.13182 0.0
C1936 C 0.50851 0.07065 0.13234 0.0
C1937 C 0.50077 0.0748 0.14963 0.0
C1938 C 0.55552 0.09227 0.13793 0.0
C1939 C 0.52065 0.08847 0.16063 0.0
C1940 C 0.6025 0.11926 0.1426 0.0
C1941 C 0.61757 0.10904 0.1085 0.0
N1942 N 0.54721 0.09664 0.15462 0.0
N1943 N 0.59259 0.098 0.1152 0.0
H1944 H 0.66257 0.23988 0.58024 0.0
H1945 H 0.65204 0.13093 0.66077 0.0
H1946 H 0.69197 0.26079 0.63148 0.0
H1947 H 0.609 0.11555 0.61217 0.0
H1948 H 0.67315 0.17537 0.64884 0.0
H1949 H 0.64789 0.1915 0.59051 0.0
C1950 C 0.66617 0.23406 0.59361 0.0
C1951 C 0.67935 0.25374 0.60494 0.0
C1952 C 0.65921 0.16218 0.64075 0.0
C1953 C 0.66221 0.19905 0.61686 0.0
C1954 C 0.64727 0.13672 0.64753 0.0
C1955 C 0.62851 0.11962 0.63751 0.0
C1956 C 0.6523 0.17068 0.62384 0.0
C1957 C 0.6232 0.12817 0.6204 0.0
C1958 C 0.65782 0.20656 0.59947 0.0
C1959 C 0.68283 0.2457 0.62223 0.0
N1960 N 0.63485 0.1532 0.61415 0.0
N1961 N 0.67444 0.21893 0.62767 0.0
H1962 H 0.49396 0.94457 0.38229 0.0
H1963 H 0.64195 0.86084 0.36142 0.0
H1964 H 0.51604 0.9135 0.33158 0.0
H1965 H 0.62323 0.90062 0.41058 0.0
H1966 H 0.59747 0.8822 0.34973 0.0
H1967 H 0.54217 0.93033 0.39254 0.0
C1968 C 0.50929 0.93521 0.37326 0.0
C1969 C 0.50159 0.9311 0.35596 0.0
C1970 C 0.60322 0.8865 0.36303 0.0
C1971 C 0.55637 0.91372 0.36766 0.0
C1972 C 0.62867 0.87435 0.36971 0.0
C1973 C 0.63624 0.87877 0.38705 0.0
C1974 C 0.58504 0.90299 0.37379 0.0
C1975 C 0.61821 0.89654 0.39716 0.0
C1976 C 0.53672 0.9269 0.37912 0.0
C1977 C 0.52155 0.91759 0.34493 0.0
N1978 N 0.59334 0.90775 0.39043 0.0
N1979 N 0.54812 0.90944 0.35095 0.0
H1980 H 0.84216 0.76406 0.08085 0.0
H1981 H 0.85248 0.87341 0.16124 0.0
H1982 H 0.81318 0.74315 0.13216 0.0
H1983 H 0.89581 0.88848 0.1127 0.0
H1984 H 0.83152 0.82883 0.14937 0.0
H1985 H 0.85681 0.8125 0.09107 0.0
C1986 C 0.83865 0.76989 0.09422 0.0
C1987 C 0.82559 0.7502 0.10559 0.0
C1988 C 0.84549 0.84199 0.14128 0.0
C1989 C 0.84268 0.80495 0.11746 0.0
C1990 C 0.85734 0.86753 0.14802 0.0
C1991 C 0.87614 0.88458 0.138 0.0
C1992 C 0.85252 0.83338 0.1244 0.0
C1993 C 0.88158 0.8759 0.12093 0.0
C1994 C 0.84698 0.79742 0.10006 0.0
C1995 C 0.82223 0.75825 0.12289 0.0
N1996 N 0.87001 0.85081 0.11471 0.0
N1997 N 0.83058 0.78505 0.1283 0.0
H1998 H 0.01042 0.05953 0.88232 0.0
H1999 H 0.86227 0.1429 0.86129 0.0
H2000 H 0.98843 0.09056 0.8316 0.0
H2001 H 0.88118 0.10365 0.91056 0.0
H2002 H 0.90685 0.12165 0.84966 0.0
H2003 H 0.96221 0.07382 0.89255 0.0
C2004 C 0.99511 0.06891 0.87328 0.0
C2005 C 0.00284 0.07299 0.85599 0.0
C2006 C 0.90112 0.11745 0.86297 0.0
C2007 C 0.94806 0.09041 0.86766 0.0
C2008 C 0.87562 0.12953 0.86962 0.0
C2009 C 0.86807 0.12523 0.88697 0.0
C2010 C 0.91937 0.10111 0.87378 0.0
C2011 C 0.88618 0.10765 0.89713 0.0
C2012 C 0.96769 0.07725 0.87913 0.0
C2013 C 0.9829 0.0865 0.84495 0.0
N2014 N 0.9111 0.09647 0.89043 0.0
N2015 N 0.95634 0.09467 0.85096 0.0
H2016 H 0.8422 0.73995 0.58074 0.0
H2017 H 0.85212 0.63053 0.66108 0.0
H2018 H 0.81225 0.76055 0.63191 0.0
H2019 H 0.89543 0.61547 0.61252 0.0
H2020 H 0.83101 0.67501 0.64919 0.0
H2021 H 0.8567 0.69148 0.59095 0.0
C2022 C 0.83843 0.73404 0.59407 0.0
C2023 C 0.82517 0.75367 0.6054 0.0
C2024 C 0.845 0.66188 0.6411 0.0
C2025 C 0.84211 0.69887 0.61726 0.0
C2026 C 0.85694 0.63639 0.64786 0.0
C2027 C 0.87579 0.61937 0.63783 0.0
C2028 C 0.85199 0.67047 0.62421 0.0
C2029 C 0.88117 0.62802 0.62076 0.0
C2030 C 0.84668 0.70649 0.5999 0.0
C2031 C 0.82147 0.74551 0.62266 0.0
N2032 N 0.86952 0.65306 0.61453 0.0
N2033 N 0.82978 0.71869 0.62807 0.0
H2034 H 0.64184 0.6433 0.8621 0.0
H2035 H 0.49406 0.55876 0.88238 0.0
H2036 H 0.62278 0.60358 0.91122 0.0
H2037 H 0.5164 0.59041 0.83184 0.0
H2038 H 0.54207 0.57327 0.89284 0.0
H2039 H 0.59754 0.62181 0.85028 0.0
C2040 C 0.62851 0.62978 0.87036 0.0
C2041 C 0.63594 0.62541 0.88773 0.0
C2042 C 0.53671 0.57678 0.87941 0.0
C2043 C 0.58494 0.60102 0.87431 0.0
C2044 C 0.5094 0.56832 0.87343 0.0
C2045 C 0.50184 0.57252 0.85612 0.0
C2046 C 0.55638 0.59017 0.86806 0.0
C2047 C 0.5218 0.58626 0.8452 0.0
C2048 C 0.60317 0.61756 0.8636 0.0
C2049 C 0.61787 0.60762 0.89779 0.0
N2050 N 0.54825 0.59453 0.85134 0.0
N2051 N 0.59309 0.59632 0.89098 0.0
H2052 H 0.61031 0.39138 0.11235 0.0
H2053 H 0.69481 0.24347 0.13255 0.0
H2054 H 0.64918 0.3718 0.16164 0.0
H2055 H 0.66257 0.2657 0.08213 0.0
H2056 H 0.68028 0.29145 0.14306 0.0
H2057 H 0.6318 0.34708 0.10052 0.0
C2058 C 0.62364 0.37793 0.12065 0.0
C2059 C 0.62777 0.38522 0.13806 0.0
C2060 C 0.67664 0.28608 0.12965 0.0
C2061 C 0.65218 0.33423 0.12463 0.0
C2062 C 0.68512 0.25879 0.12363 0.0
C2063 C 0.68076 0.2512 0.10634 0.0
C2064 C 0.66307 0.3057 0.11835 0.0
C2065 C 0.66685 0.27113 0.09547 0.0
C2066 C 0.63586 0.35259 0.11388 0.0
C2067 C 0.64532 0.367 0.14817 0.0
N2068 N 0.65857 0.29756 0.10164 0.0
N2069 N 0.65665 0.34223 0.14135 0.0
H2070 H 0.88009 0.40325 0.41068 0.0
H2071 H 0.99 0.41322 0.33057 0.0
H2072 H 0.86557 0.35954 0.3622 0.0
H2073 H 0.01033 0.443 0.38181 0.0
H2074 H 0.94146 0.39874 0.34067 0.0
H2075 H 0.92455 0.42451 0.39884 0.0
C2076 C 0.88606 0.39838 0.39749 0.0
C2077 C 0.86921 0.37937 0.38747 0.0
C2078 C 0.95642 0.40873 0.34967 0.0
C2079 C 0.92028 0.40333 0.37391 0.0
C2080 C 0.98402 0.41696 0.3439 0.0
C2081 C 0.0036 0.43017 0.35527 0.0
C2082 C 0.94871 0.41325 0.36701 0.0
C2083 C 0.99534 0.43383 0.37252 0.0
C2084 C 0.91153 0.4104 0.39076 0.0
C2085 C 0.87799 0.37392 0.37043 0.0
N2086 N 0.96848 0.42554 0.37787 0.0
N2087 N 0.90302 0.38566 0.36423 0.0
H2088 H 0.89296 0.38998 0.89363 0.0
H2089 H 0.80868 0.24224 0.87286 0.0
H2090 H 0.85354 0.37122 0.84438 0.0
H2091 H 0.84014 0.26432 0.92348 0.0
H2092 H 0.82307 0.29038 0.86254 0.0
H2093 H 0.87141 0.34561 0.90531 0.0
C2094 C 0.8795 0.3767 0.88532 0.0
C2095 C 0.87522 0.38424 0.86796 0.0
C2096 C 0.82656 0.28494 0.87596 0.0
C2097 C 0.85076 0.33315 0.88121 0.0
C2098 C 0.81816 0.25756 0.88186 0.0
C2099 C 0.82235 0.24988 0.89916 0.0
C2100 C 0.83989 0.30455 0.88737 0.0
C2101 C 0.83599 0.26981 0.91014 0.0
C2102 C 0.86723 0.35131 0.89199 0.0
C2103 C 0.8575 0.36623 0.85782 0.0
N2104 N 0.84422 0.29632 0.90408 0.0
N2105 N 0.84616 0.3414 0.86455 0.0
H2106 H 0.99065 0.59229 0.17531 0.0
H2107 H 0.88059 0.60148 0.09524 0.0
H2108 H 0.01111 0.56241 0.12411 0.0
H2109 H 0.86588 0.64512 0.14373 0.0
H2110 H 0.92521 0.58052 0.10705 0.0
H2111 H 0.94205 0.60649 0.16521 0.0
C2112 C 0.98469 0.58846 0.16199 0.0
C2113 C 0.00433 0.57531 0.15063 0.0
C2114 C 0.91212 0.59455 0.11514 0.0
C2115 C 0.94935 0.59192 0.13888 0.0
C2116 C 0.88655 0.6064 0.10843 0.0
C2117 C 0.86959 0.6253 0.11846 0.0
C2118 C 0.92085 0.60168 0.13199 0.0
C2119 C 0.87838 0.63082 0.13549 0.0
C2120 C 0.95705 0.59655 0.15622 0.0
C2121 C 0.99607 0.57154 0.13338 0.0
N2122 N 0.90349 0.61925 0.14168 0.0
N2123 N 0.96917 0.57969 0.12803 0.0
H2124 H 0.60964 0.61375 0.39434 0.0
H2125 H 0.69438 0.76121 0.37336 0.0
H2126 H 0.64883 0.63239 0.34501 0.0
H2127 H 0.66237 0.73971 0.42394 0.0
H2128 H 0.67967 0.71313 0.36309 0.0
H2129 H 0.63112 0.65823 0.40593 0.0
C2130 C 0.62303 0.62703 0.38598 0.0
C2131 C 0.62727 0.61942 0.36863 0.0
C2132 C 0.67612 0.71869 0.37649 0.0
C2133 C 0.65166 0.67062 0.38178 0.0
C2134 C 0.6847 0.74604 0.38236 0.0
C2135 C 0.68046 0.75385 0.39963 0.0
C2136 C 0.66258 0.69924 0.38791 0.0
C2137 C 0.66656 0.7341 0.41061 0.0
C2138 C 0.63525 0.65248 0.39261 0.0
C2139 C 0.6449 0.63744 0.35844 0.0
N2140 N 0.65819 0.70761 0.40458 0.0
N2141 N 0.65621 0.66231 0.36513 0.0
H2142 H 0.6413 0.36086 0.64361 0.0
H2143 H 0.49408 0.44592 0.62278 0.0
H2144 H 0.62299 0.40084 0.59447 0.0
H2145 H 0.51585 0.41455 0.67346 0.0
H2146 H 0.54212 0.43116 0.6125 0.0
H2147 H 0.59695 0.38251 0.65529 0.0
C2148 C 0.62813 0.37447 0.63532 0.0
C2149 C 0.63577 0.37887 0.61799 0.0
C2150 C 0.53663 0.42776 0.62592 0.0
C2151 C 0.58473 0.40344 0.63123 0.0
C2152 C 0.50931 0.43636 0.6318 0.0
C2153 C 0.50158 0.43233 0.6491 0.0
C2154 C 0.55616 0.41439 0.63737 0.0
C2155 C 0.52139 0.41858 0.66011 0.0
C2156 C 0.60276 0.38679 0.642 0.0
C2157 C 0.61791 0.39677 0.60788 0.0
N2158 N 0.54787 0.41017 0.65407 0.0
N2159 N 0.5931 0.40816 0.6146 0.0
H2160 H 0.15259 0.37467 0.34538 0.0
H2161 H 0.16292 0.26483 0.42549 0.0
H2162 H 0.10831 0.38898 0.3937 0.0
H2163 H 0.19186 0.24424 0.37412 0.0
H2164 H 0.1481 0.31327 0.41537 0.0
H2165 H 0.1737 0.33016 0.35722 0.0
C2166 C 0.14755 0.36864 0.35854 0.0
C2167 C 0.12844 0.38546 0.36851 0.0
C2168 C 0.15796 0.29826 0.40635 0.0
C2169 C 0.15225 0.33432 0.38208 0.0
C2170 C 0.1664 0.27073 0.41213 0.0
C2171 C 0.17949 0.25112 0.40072 0.0
C2172 C 0.16221 0.30589 0.38896 0.0
C2173 C 0.1828 0.25927 0.38343 0.0
C2174 C 0.15949 0.34313 0.36527 0.0
C2175 C 0.12279 0.37659 0.38551 0.0
N2176 N 0.17436 0.28608 0.37808 0.0
N2177 N 0.13446 0.35153 0.39172 0.0
H2178 H 0.36289 0.36055 0.14419 0.0
H2179 H 0.51106 0.44424 0.12383 0.0
H2180 H 0.38196 0.40042 0.09512 0.0
H2181 H 0.48837 0.41345 0.17449 0.0
H2182 H 0.46297 0.42995 0.11339 0.0
H2183 H 0.40727 0.3819 0.15602 0.0
C2184 C 0.37623 0.37408 0.13595 0.0
C2185 C 0.36879 0.37853 0.11859 0.0
C2186 C 0.46827 0.42659 0.12685 0.0
C2187 C 0.41987 0.40275 0.13201 0.0
C2188 C 0.49562 0.43493 0.13281 0.0
C2189 C 0.50311 0.43092 0.15015 0.0
C2190 C 0.44847 0.41349 0.13824 0.0
C2191 C 0.48302 0.41747 0.16111 0.0
C2192 C 0.40162 0.38622 0.14271 0.0
C2193 C 0.38688 0.39632 0.10855 0.0
N2194 N 0.45653 0.40929 0.15499 0.0
N2195 N 0.4117 0.40753 0.11536 0.0
H2196 H 0.31047 0.75938 0.87306 0.0
H2197 H 0.39491 0.61178 0.89398 0.0
H2198 H 0.34148 0.7375 0.92381 0.0
H2199 H 0.3553 0.63041 0.84477 0.0
H2200 H 0.37344 0.65625 0.90565 0.0
H2201 H 0.32522 0.71134 0.86279 0.0
C2202 C 0.31995 0.74413 0.8821 0.0
C2203 C 0.32387 0.75183 0.89941 0.0
C2204 C 0.36921 0.65048 0.89234 0.0
C2205 C 0.34181 0.69723 0.88769 0.0
C2206 C 0.38142 0.62504 0.88568 0.0
C2207 C 0.37707 0.61744 0.86833 0.0
C2208 C 0.35271 0.66862 0.88156 0.0
C2209 C 0.35933 0.63544 0.8582 0.0
C2210 C 0.32855 0.7168 0.87623 0.0
C2211 C 0.33753 0.73198 0.91044 0.0
N2212 N 0.34804 0.6603 0.86492 0.0
N2213 N 0.34594 0.7055 0.90441 0.0
H2214 H 0.01478 0.59091 0.675 0.0
H2215 H 0.12293 0.60293 0.59413 0.0
H2216 H 0.9933 0.56202 0.62375 0.0
H2217 H 0.13851 0.64497 0.64301 0.0
H2218 H 0.07864 0.58136 0.60605 0.0
H2219 H 0.06307 0.60555 0.66462 0.0
C2220 C 0.02046 0.58739 0.66161 0.0
C2221 C 1.00062 0.5744 0.6503 0.0
C2222 C 0.09186 0.59517 0.61419 0.0
C2223 C 0.05524 0.59154 0.63823 0.0
C2224 C 0.11723 0.60737 0.60742 0.0
C2225 C 0.13432 0.626 0.61753 0.0
C2226 C 0.0835 0.60167 0.6312 0.0
C2227 C 0.12589 0.63091 0.6347 0.0
C2228 C 0.04792 0.59572 0.65567 0.0
C2229 C 0.00851 0.57102 0.63297 0.0
N2230 N 0.10098 0.619 0.64095 0.0
N2231 N 0.03524 0.57942 0.62746 0.0
H2232 H 0.15307 0.63154 0.1606 0.0
H2233 H 0.16306 0.74041 0.08002 0.0
H2234 H 0.10931 0.61629 0.11222 0.0
H2235 H 0.19194 0.76171 0.1313 0.0
H2236 H 0.14865 0.69196 0.09031 0.0
H2237 H 0.1741 0.67595 0.14858 0.0
C2238 C 0.14813 0.63734 0.14739 0.0
C2239 C 0.12918 0.6203 0.13745 0.0
C2240 C 0.15842 0.70712 0.09927 0.0
C2241 C 0.1529 0.67132 0.12368 0.0
C2242 C 0.16662 0.73466 0.0934 0.0
C2243 C 0.17957 0.75448 0.10474 0.0
C2244 C 0.16273 0.6997 0.11668 0.0
C2245 C 0.18299 0.74652 0.12205 0.0
C2246 C 0.16003 0.66279 0.14056 0.0
C2247 C 0.12365 0.62887 0.12038 0.0
N2248 N 0.17475 0.7197 0.12749 0.0
N2249 N 0.13527 0.65388 0.11408 0.0
H2250 H 0.12345 0.40191 0.91054 0.0
H2251 H 0.01404 0.41233 0.83024 0.0
H2252 H 0.13833 0.35837 0.86204 0.0
H2253 H 0.99319 0.4412 0.88159 0.0
H2254 H 0.06253 0.3978 0.84039 0.0
H2255 H 0.07899 0.42305 0.89866 0.0
C2256 C 0.11755 0.39704 0.89733 0.0
C2257 C 0.13451 0.37812 0.88733 0.0
C2258 C 0.04746 0.4076 0.8494 0.0
C2259 C 0.08343 0.40196 0.87371 0.0
C2260 C 0.0199 0.41587 0.8436 0.0
C2261 C 1.00019 0.42884 0.855 0.0
C2262 C 0.05502 0.41187 0.86679 0.0
C2263 C 0.00829 0.43223 0.87229 0.0
C2264 C 0.09207 0.409 0.89059 0.0
C2265 C 0.12582 0.37269 0.87026 0.0
N2266 N 0.03513 0.42392 0.87766 0.0
N2267 N 0.10079 0.38437 0.86404 0.0
H2268 H 0.31114 0.24541 0.63227 0.0
H2269 H 0.39464 0.39341 0.61101 0.0
H2270 H 0.34181 0.26732 0.58145 0.0
H2271 H 0.35508 0.37497 0.66026 0.0
H2272 H 0.37335 0.34879 0.59946 0.0
H2273 H 0.32551 0.29365 0.64244 0.0
C2274 C 0.32045 0.2607 0.62319 0.0
C2275 C 0.3244 0.25294 0.60589 0.0
C2276 C 0.36909 0.35463 0.61274 0.0
C2277 C 0.34192 0.30777 0.6175 0.0
C2278 C 0.38119 0.38016 0.61935 0.0
C2279 C 0.37681 0.38787 0.63668 0.0
C2280 C 0.35266 0.33649 0.62357 0.0
C2281 C 0.35913 0.36986 0.64685 0.0
C2282 C 0.32883 0.28814 0.62901 0.0
C2283 C 0.33784 0.27287 0.59482 0.0
N2284 N 0.34794 0.3449 0.64019 0.0
N2285 N 0.34605 0.29945 0.60079 0.0
H2286 H 0.48827 0.59003 0.33156 0.0
H2287 H 0.37998 0.60234 0.41237 0.0
H2288 H 0.50978 0.56136 0.38285 0.0
H2289 H 0.36402 0.64313 0.36316 0.0
H2290 H 0.42439 0.58077 0.40057 0.0
H2291 H 0.43984 0.60433 0.34188 0.0
C2292 C 0.48256 0.58648 0.34495 0.0
C2293 C 0.50246 0.57367 0.35628 0.0
C2294 C 0.41105 0.59429 0.39233 0.0
C2295 C 0.44768 0.59044 0.36828 0.0
C2296 C 0.38561 0.60648 0.39903 0.0
C2297 C 0.36838 0.62478 0.38879 0.0
C2298 C 0.41934 0.60048 0.37527 0.0
C2299 C 0.37674 0.62933 0.37158 0.0
C2300 C 0.45503 0.59462 0.35085 0.0
C2301 C 0.49454 0.57024 0.37361 0.0
N2302 N 0.40171 0.61745 0.36541 0.0
N2303 N 0.46772 0.57848 0.37908 0.0
loop_
_geom_bond_atom_site_label_1
_geom_bond_atom_site_label_2
_geom_bond_distance
_geom_bond_site_symmetry_2
_ccdc_geom_bond_type
Mn0 O5 2.095 . S
Mn0 O15 2.162 . S
Mn0 O16 2.297 . S
Mn0 O24 2.385 . S
Mn0 O25 2.209 . S
Mn0 O26 2.094 . S
Mn1 O6 2.124 . S
Mn1 N8 2.266 . S
Mn1 N17 2.281 1_565 S
Mn1 O25 2.192 1_565 S
Mn1 O27 2.110 1_565 S
C2 O24 1.234 . S
C2 O25 1.283 . S
C3 O15 1.281 . S
C3 O16 1.236 . S
C4 O26 1.240 . S
C4 O27 1.264 . S
O5 Mn0 2.095 . S
O5 C14 1.250 . S
O6 Mn1 2.124 . S
O6 C14 1.258 1_565 S
C7 N8 1.326 . S
C7 C11 1.460 . S
C7 H13 0.929 . S
N8 Mn1 2.266 . S
N8 C7 1.326 . S
N8 C12 1.362 . S
C9 C10 1.258 . S
C9 C12 1.431 . S
C9 C29 1.449 . S
C10 C9 1.258 . S
C10 C11 1.477 . S
C10 H30 0.931 . S
C11 C7 1.460 . S
C11 C10 1.477 . S
C11 H31 0.930 . S
C12 N8 1.362 . S
C12 C9 1.431 . S
C12 C22 1.476 . S
H13 C7 0.929 . S
C14 O5 1.250 . S
C14 O6 1.258 1_545 S
O15 Mn0 2.162 . S
O15 C3 1.281 . S
O16 Mn0 2.297 . S
O16 C3 1.236 . S
N17 Mn1 2.281 1_545 S
N17 C18 1.328 . S
N17 C22 1.318 1_545 S
C18 N17 1.328 . S
C18 C19 1.457 . S
C18 H23 0.929 . S
C19 C18 1.457 . S
C19 C20 1.291 . S
C19 H32 0.931 . S
C20 C19 1.291 . S
C20 C21 1.373 1_545 S
C20 H33 0.929 . S
C21 C20 1.373 1_565 S
C21 C22 1.396 . S
C21 C28 1.403 . S
C22 C12 1.476 . S
C22 N17 1.318 1_565 S
C22 C21 1.396 . S
H23 C18 0.929 . S
O24 Mn0 2.385 . S
O24 C2 1.234 . S
O25 Mn0 2.209 . S
O25 Mn1 2.192 1_545 S
O25 C2 1.283 . S
O26 Mn0 2.094 . S
O26 C4 1.240 . S
O27 Mn1 2.110 1_545 S
O27 C4 1.264 . S
C28 C21 1.403 . S
C28 C29 1.399 . S
C28 H34 0.929 . S
C29 C9 1.449 . S
C29 C28 1.399 . S
C29 H35 0.930 . S
H30 C10 0.931 . S
H31 C11 0.930 . S
H32 C19 0.931 . S
H33 C20 0.929 . S
H34 C28 0.929 . S
H35 C29 0.930 . S
Mn36 O41 2.095 . S
Mn36 O51 2.162 . S
Mn36 O52 2.297 . S
Mn36 O60 2.385 . S
Mn36 O61 2.209 . S
Mn36 O62 2.094 . S
Mn37 O42 2.121 . S
Mn37 N44 2.257 . S
Mn37 N53 2.282 . S
Mn37 O61 2.215 . S
Mn37 O63 2.117 . S
C38 O60 1.234 . S
C38 O61 1.283 . S
C39 O51 1.281 . S
C39 O52 1.236 . S
C40 O62 1.240 . S
C40 O63 1.264 . S
O41 Mn36 2.095 . S
O41 C50 1.250 . S
O42 Mn37 2.121 . S
O42 C50 1.258 . S
C43 N44 1.326 . S
C43 C47 1.460 . S
C43 H49 0.929 . S
N44 Mn37 2.257 . S
N44 C43 1.326 . S
N44 C48 1.362 . S
C45 C46 1.258 . S
C45 C48 1.431 . S
C45 C65 1.449 . S
C46 C45 1.258 . S
C46 C47 1.477 . S
C46 H66 0.931 . S
C47 C43 1.460 . S
C47 C46 1.477 . S
C47 H67 0.930 . S
C48 N44 1.362 . S
C48 C45 1.431 . S
C48 C58 1.476 . S
H49 C43 0.929 . S
C50 O41 1.250 . S
C50 O42 1.258 . S
O51 Mn36 2.162 . S
O51 C39 1.281 . S
O52 Mn36 2.297 . S
O52 C39 1.236 . S
N53 Mn37 2.282 . S
N53 C54 1.328 . S
N53 C58 1.318 . S
C54 N53 1.328 . S
C54 C55 1.457 . S
C54 H59 0.929 . S
C55 C54 1.457 . S
C55 C56 1.291 . S
C55 H68 0.931 . S
C56 C55 1.291 . S
C56 C57 1.373 . S
C56 H69 0.929 . S
C57 C56 1.373 . S
C57 C58 1.396 . S
C57 C64 1.403 . S
C58 C48 1.476 . S
C58 N53 1.318 . S
C58 C57 1.396 . S
H59 C54 0.929 . S
O60 Mn36 2.385 . S
O60 C38 1.234 . S
O61 Mn36 2.209 . S
O61 Mn37 2.215 . S
O61 C38 1.283 . S
O62 Mn36 2.094 . S
O62 C40 1.240 . S
O63 Mn37 2.117 . S
O63 C40 1.264 . S
C64 C57 1.403 . S
C64 C65 1.399 . S
C64 H70 0.929 . S
C65 C45 1.449 . S
C65 C64 1.399 . S
C65 H71 0.930 . S
H66 C46 0.931 . S
H67 C47 0.930 . S
H68 C55 0.931 . S
H69 C56 0.929 . S
H70 C64 0.929 . S
H71 C65 0.930 . S
Mn72 O77 2.095 . S
Mn72 O87 2.162 . S
Mn72 O88 2.297 . S
Mn72 O96 2.385 . S
Mn72 O97 2.209 . S
Mn72 O98 2.094 . S
Mn73 O78 2.124 . S
Mn73 N80 2.266 . S
Mn73 N89 2.281 1_545 S
Mn73 O97 2.192 1_545 S
Mn73 O99 2.110 1_545 S
C74 O96 1.234 . S
C74 O97 1.283 . S
C75 O87 1.281 . S
C75 O88 1.236 . S
C76 O98 1.240 . S
C76 O99 1.264 . S
O77 Mn72 2.095 . S
O77 C86 1.250 . S
O78 Mn73 2.124 . S
O78 C86 1.258 1_545 S
C79 N80 1.326 . S
C79 C83 1.460 . S
C79 H85 0.929 . S
N80 Mn73 2.266 . S
N80 C79 1.326 . S
N80 C84 1.362 . S
C81 C82 1.258 1_655 S
C81 C84 1.431 1_655 S
C81 C101 1.449 . S
C82 C81 1.258 1_455 S
C82 C83 1.477 . S
C82 H102 0.931 1_455 S
C83 C79 1.460 . S
C83 C82 1.477 . S
C83 H103 0.930 . S
C84 N80 1.362 . S
C84 C81 1.431 1_455 S
C84 C94 1.476 . S
H85 C79 0.929 . S
C86 O77 1.250 . S
C86 O78 1.258 1_565 S
O87 Mn72 2.162 . S
O87 C75 1.281 . S
O88 Mn72 2.297 . S
O88 C75 1.236 . S
N89 Mn73 2.281 1_565 S
N89 C90 1.328 . S
N89 C94 1.318 1_565 S
C90 N89 1.328 . S
C90 C91 1.457 1_455 S
C90 H95 0.929 . S
C91 C90 1.457 1_655 S
C91 C92 1.291 . S
C91 H104 0.931 . S
C92 C91 1.291 . S
C92 C93 1.373 1_565 S
C92 H105 0.929 . S
C93 C92 1.373 1_545 S
C93 C94 1.396 1_655 S
C93 C100 1.403 . S
C94 C84 1.476 . S
C94 N89 1.318 1_545 S
C94 C93 1.396 1_455 S
H95 C90 0.929 . S
O96 Mn72 2.385 . S
O96 C74 1.234 . S
O97 Mn72 2.209 . S
O97 Mn73 2.192 1_565 S
O97 C74 1.283 . S
O98 Mn72 2.094 . S
O98 C76 1.240 . S
O99 Mn73 2.110 1_565 S
O99 C76 1.264 . S
C100 C93 1.403 . S
C100 C101 1.399 . S
C100 H106 0.929 . S
C101 C81 1.449 . S
C101 C100 1.399 . S
C101 H107 0.930 . S
H102 C82 0.931 1_655 S
H103 C83 0.930 . S
H104 C91 0.931 . S
H105 C92 0.929 . S
H106 C100 0.929 . S
H107 C101 0.930 . S
Mn108 O113 2.095 . S
Mn108 O123 2.162 . S
Mn108 O124 2.297 . S
Mn108 O132 2.385 . S
Mn108 O133 2.209 . S
Mn108 O134 2.094 . S
Mn109 O114 2.121 . S
Mn109 N116 2.257 . S
Mn109 N125 2.282 . S
Mn109 O133 2.215 . S
Mn109 O135 2.117 . S
C110 O132 1.234 . S
C110 O133 1.283 . S
C111 O123 1.281 . S
C111 O124 1.236 . S
C112 O134 1.240 . S
C112 O135 1.264 . S
O113 Mn108 2.095 . S
O113 C122 1.250 . S
O114 Mn109 2.121 . S
O114 C122 1.258 . S
C115 N116 1.326 . S
C115 C119 1.460 . S
C115 H121 0.929 . S
N116 Mn109 2.257 . S
N116 C115 1.326 . S
N116 C120 1.362 . S
C117 C118 1.258 . S
C117 C120 1.431 . S
C117 C137 1.449 . S
C118 C117 1.258 . S
C118 C119 1.477 . S
C118 H138 0.931 . S
C119 C115 1.460 . S
C119 C118 1.477 . S
C119 H139 0.930 . S
C120 N116 1.362 . S
C120 C117 1.431 . S
C120 C130 1.476 . S
H121 C115 0.929 . S
C122 O113 1.250 . S
C122 O114 1.258 . S
O123 Mn108 2.162 . S
O123 C111 1.281 . S
O124 Mn108 2.297 . S
O124 C111 1.236 . S
N125 Mn109 2.282 . S
N125 C126 1.328 . S
N125 C130 1.318 . S
C126 N125 1.328 . S
C126 C127 1.457 . S
C126 H131 0.929 . S
C127 C126 1.457 . S
C127 C128 1.291 . S
C127 H140 0.931 . S
C128 C127 1.291 . S
C128 C129 1.373 . S
C128 H141 0.929 . S
C129 C128 1.373 . S
C129 C130 1.396 . S
C129 C136 1.403 . S
C130 C120 1.476 . S
C130 N125 1.318 . S
C130 C129 1.396 . S
H131 C126 0.929 . S
O132 Mn108 2.385 . S
O132 C110 1.234 . S
O133 Mn108 2.209 . S
O133 Mn109 2.215 . S
O133 C110 1.283 . S
O134 Mn108 2.094 . S
O134 C112 1.240 . S
O135 Mn109 2.117 . S
O135 C112 1.264 . S
C136 C129 1.403 . S
C136 C137 1.399 . S
C136 H142 0.929 . S
C137 C117 1.449 . S
C137 C136 1.399 . S
C137 H143 0.930 . S
H138 C118 0.931 . S
H139 C119 0.930 . S
H140 C127 0.931 . S
H141 C128 0.929 . S
H142 C136 0.929 . S
H143 C137 0.930 . S
Mn144 O149 2.095 . S
Mn144 O159 2.162 . S
Mn144 O160 2.297 . S
Mn144 O168 2.385 . S
Mn144 O169 2.209 . S
Mn144 O170 2.094 . S
Mn145 O150 2.124 . S
Mn145 N152 2.266 . S
Mn145 N161 2.281 1_545 S
Mn145 O169 2.192 1_545 S
Mn145 O171 2.110 1_545 S
C146 O168 1.234 . S
C146 O169 1.283 . S
C147 O159 1.281 . S
C147 O160 1.236 . S
C148 O170 1.240 . S
C148 O171 1.264 . S
O149 Mn144 2.095 . S
O149 C158 1.250 . S
O150 Mn145 2.124 . S
O150 C158 1.258 1_545 S
C151 N152 1.326 . S
C151 C155 1.460 . S
C151 H157 0.929 . S
N152 Mn145 2.266 . S
N152 C151 1.326 . S
N152 C156 1.362 . S
C153 C154 1.258 . S
C153 C156 1.431 . S
C153 C173 1.449 . S
C154 C153 1.258 . S
C154 C155 1.477 . S
C154 H174 0.931 . S
C155 C151 1.460 . S
C155 C154 1.477 . S
C155 H175 0.930 . S
C156 N152 1.362 . S
C156 C153 1.431 . S
C156 C166 1.476 . S
H157 C151 0.929 . S
C158 O149 1.250 . S
C158 O150 1.258 1_565 S
O159 Mn144 2.162 . S
O159 C147 1.281 . S
O160 Mn144 2.297 . S
O160 C147 1.236 . S
N161 Mn145 2.281 1_565 S
N161 C162 1.328 . S
N161 C166 1.318 1_565 S
C162 N161 1.328 . S
C162 C163 1.457 . S
C162 H167 0.929 . S
C163 C162 1.457 . S
C163 C164 1.291 . S
C163 H176 0.931 . S
C164 C163 1.291 . S
C164 C165 1.373 1_565 S
C164 H177 0.929 . S
C165 C164 1.373 1_545 S
C165 C166 1.396 . S
C165 C172 1.403 . S
C166 C156 1.476 . S
C166 N161 1.318 1_545 S
C166 C165 1.396 . S
H167 C162 0.929 . S
O168 Mn144 2.385 . S
O168 C146 1.234 . S
O169 Mn144 2.209 . S
O169 Mn145 2.192 1_565 S
O169 C146 1.283 . S
O170 Mn144 2.094 . S
O170 C148 1.240 . S
O171 Mn145 2.110 1_565 S
O171 C148 1.264 . S
C172 C165 1.403 . S
C172 C173 1.399 . S
C172 H178 0.929 . S
C173 C153 1.449 . S
C173 C172 1.399 . S
C173 H179 0.930 . S
H174 C154 0.931 . S
H175 C155 0.930 . S
H176 C163 0.931 . S
H177 C164 0.929 . S
H178 C172 0.929 . S
H179 C173 0.930 . S
Mn180 O185 2.095 . S
Mn180 O195 2.162 . S
Mn180 O196 2.297 . S
Mn180 O204 2.385 . S
Mn180 O205 2.209 . S
Mn180 O206 2.094 . S
Mn181 O186 2.121 . S
Mn181 N188 2.257 . S
Mn181 N197 2.282 . S
Mn181 O205 2.215 . S
Mn181 O207 2.117 . S
C182 O204 1.234 . S
C182 O205 1.283 . S
C183 O195 1.281 . S
C183 O196 1.236 . S
C184 O206 1.240 . S
C184 O207 1.264 . S
O185 Mn180 2.095 . S
O185 C194 1.250 . S
O186 Mn181 2.121 . S
O186 C194 1.258 . S
C187 N188 1.326 . S
C187 C191 1.460 . S
C187 H193 0.929 . S
N188 Mn181 2.257 . S
N188 C187 1.326 . S
N188 C192 1.362 . S
C189 C190 1.258 . S
C189 C192 1.431 . S
C189 C209 1.449 . S
C190 C189 1.258 . S
C190 C191 1.477 . S
C190 H210 0.931 . S
C191 C187 1.460 . S
C191 C190 1.477 . S
C191 H211 0.930 . S
C192 N188 1.362 . S
C192 C189 1.431 . S
C192 C202 1.476 . S
H193 C187 0.929 . S
C194 O185 1.250 . S
C194 O186 1.258 . S
O195 Mn180 2.162 . S
O195 C183 1.281 . S
O196 Mn180 2.297 . S
O196 C183 1.236 . S
N197 Mn181 2.282 . S
N197 C198 1.328 . S
N197 C202 1.318 . S
C198 N197 1.328 . S
C198 C199 1.457 . S
C198 H203 0.929 . S
C199 C198 1.457 . S
C199 C200 1.291 . S
C199 H212 0.931 . S
C200 C199 1.291 . S
C200 C201 1.373 . S
C200 H213 0.929 . S
C201 C200 1.373 . S
C201 C202 1.396 . S
C201 C208 1.403 . S
C202 C192 1.476 . S
C202 N197 1.318 . S
C202 C201 1.396 . S
H203 C198 0.929 . S
O204 Mn180 2.385 . S
O204 C182 1.234 . S
O205 Mn180 2.209 . S
O205 Mn181 2.215 . S
O205 C182 1.283 . S
O206 Mn180 2.094 . S
O206 C184 1.240 . S
O207 Mn181 2.117 . S
O207 C184 1.264 . S
C208 C201 1.403 . S
C208 C209 1.399 . S
C208 H214 0.929 . S
C209 C189 1.449 . S
C209 C208 1.399 . S
C209 H215 0.930 . S
H210 C190 0.931 . S
H211 C191 0.930 . S
H212 C199 0.931 . S
H213 C200 0.929 . S
H214 C208 0.929 . S
H215 C209 0.930 . S
Mn216 O221 2.095 . S
Mn216 O231 2.162 . S
Mn216 O232 2.297 . S
Mn216 O240 2.385 . S
Mn216 O241 2.209 . S
Mn216 O242 2.094 . S
Mn217 O222 2.124 . S
Mn217 N224 2.266 . S
Mn217 N233 2.281 1_565 S
Mn217 O241 2.192 1_565 S
Mn217 O243 2.110 1_565 S
C218 O240 1.234 . S
C218 O241 1.283 . S
C219 O231 1.281 . S
C219 O232 1.236 . S
C220 O242 1.240 . S
C220 O243 1.264 . S
O221 Mn216 2.095 . S
O221 C230 1.250 . S
O222 Mn217 2.124 . S
O222 C230 1.258 1_565 S
C223 N224 1.326 . S
C223 C227 1.460 . S
C223 H229 0.929 . S
N224 Mn217 2.266 . S
N224 C223 1.326 . S
N224 C228 1.362 . S
C225 C226 1.258 1_655 S
C225 C228 1.431 1_655 S
C225 C245 1.449 . S
C226 C225 1.258 1_455 S
C226 C227 1.477 . S
C226 H246 0.931 1_455 S
C227 C223 1.460 . S
C227 C226 1.477 . S
C227 H247 0.930 . S
C228 N224 1.362 . S
C228 C225 1.431 1_455 S
C228 C238 1.476 . S
H229 C223 0.929 . S
C230 O221 1.250 . S
C230 O222 1.258 1_545 S
O231 Mn216 2.162 . S
O231 C219 1.281 . S
O232 Mn216 2.297 . S
O232 C219 1.236 . S
N233 Mn217 2.281 1_545 S
N233 C234 1.328 . S
N233 C238 1.318 1_545 S
C234 N233 1.328 . S
C234 C235 1.457 1_455 S
C234 H239 0.929 . S
C235 C234 1.457 1_655 S
C235 C236 1.291 . S
C235 H248 0.931 . S
C236 C235 1.291 . S
C236 C237 1.373 1_545 S
C236 H249 0.929 . S
C237 C236 1.373 1_565 S
C237 C238 1.396 1_655 S
C237 C244 1.403 . S
C238 C228 1.476 . S
C238 N233 1.318 1_565 S
C238 C237 1.396 1_455 S
H239 C234 0.929 . S
O240 Mn216 2.385 . S
O240 C218 1.234 . S
O241 Mn216 2.209 . S
O241 Mn217 2.192 1_545 S
O241 C218 1.283 . S
O242 Mn216 2.094 . S
O242 C220 1.240 . S
O243 Mn217 2.110 1_545 S
O243 C220 1.264 . S
C244 C237 1.403 . S
C244 C245 1.399 . S
C244 H250 0.929 . S
C245 C225 1.449 . S
C245 C244 1.399 . S
C245 H251 0.930 . S
H246 C226 0.931 1_655 S
H247 C227 0.930 . S
H248 C235 0.931 . S
H249 C236 0.929 . S
H250 C244 0.929 . S
H251 C245 0.930 . S
Mn252 O257 2.095 . S
Mn252 O267 2.162 . S
Mn252 O268 2.297 . S
Mn252 O276 2.385 . S
Mn252 O277 2.209 . S
Mn252 O278 2.094 . S
Mn253 O258 2.121 . S
Mn253 N260 2.257 . S
Mn253 N269 2.282 . S
Mn253 O277 2.215 . S
Mn253 O279 2.117 . S
C254 O276 1.234 . S
C254 O277 1.283 . S
C255 O267 1.281 . S
C255 O268 1.236 . S
C256 O278 1.240 . S
C256 O279 1.264 . S
O257 Mn252 2.095 . S
O257 C266 1.250 . S
O258 Mn253 2.121 . S
O258 C266 1.258 . S
C259 N260 1.326 . S
C259 C263 1.460 . S
C259 H265 0.929 . S
N260 Mn253 2.257 . S
N260 C259 1.326 . S
N260 C264 1.362 . S
C261 C262 1.258 . S
C261 C264 1.431 . S
C261 C281 1.449 . S
C262 C261 1.258 . S
C262 C263 1.477 . S
C262 H282 0.931 . S
C263 C259 1.460 . S
C263 C262 1.477 . S
C263 H283 0.930 . S
C264 N260 1.362 . S
C264 C261 1.431 . S
C264 C274 1.476 . S
H265 C259 0.929 . S
C266 O257 1.250 . S
C266 O258 1.258 . S
O267 Mn252 2.162 . S
O267 C255 1.281 . S
O268 Mn252 2.297 . S
O268 C255 1.236 . S
N269 Mn253 2.282 . S
N269 C270 1.328 . S
N269 C274 1.318 . S
C270 N269 1.328 . S
C270 C271 1.457 . S
C270 H275 0.929 . S
C271 C270 1.457 . S
C271 C272 1.291 . S
C271 H284 0.931 . S
C272 C271 1.291 . S
C272 C273 1.373 . S
C272 H285 0.929 . S
C273 C272 1.373 . S
C273 C274 1.396 . S
C273 C280 1.403 . S
C274 C264 1.476 . S
C274 N269 1.318 . S
C274 C273 1.396 . S
H275 C270 0.929 . S
O276 Mn252 2.385 . S
O276 C254 1.234 . S
O277 Mn252 2.209 . S
O277 Mn253 2.215 . S
O277 C254 1.283 . S
O278 Mn252 2.094 . S
O278 C256 1.240 . S
O279 Mn253 2.117 . S
O279 C256 1.264 . S
C280 C273 1.403 . S
C280 C281 1.399 . S
C280 H286 0.929 . S
C281 C261 1.449 . S
C281 C280 1.399 . S
C281 H287 0.930 . S
H282 C262 0.931 . S
H283 C263 0.930 . S
H284 C271 0.931 . S
H285 C272 0.929 . S
H286 C280 0.929 . S
H287 C281 0.930 . S
Mn288 O293 2.095 . S
Mn288 O303 2.162 . S
Mn288 O304 2.297 . S
Mn288 O312 2.385 . S
Mn288 O313 2.209 . S
Mn288 O314 2.094 . S
Mn289 O294 2.124 . S
Mn289 N296 2.266 . S
Mn289 N305 2.281 1_545 S
Mn289 O313 2.192 1_545 S
Mn289 O315 2.110 1_545 S
C290 O312 1.234 . S
C290 O313 1.283 . S
C291 O303 1.281 . S
C291 O304 1.236 . S
C292 O314 1.240 . S
C292 O315 1.264 . S
O293 Mn288 2.095 . S
O293 C302 1.250 . S
O294 Mn289 2.124 . S
O294 C302 1.258 1_545 S
C295 N296 1.326 . S
C295 C299 1.460 . S
C295 H301 0.929 . S
N296 Mn289 2.266 . S
N296 C295 1.326 . S
N296 C300 1.362 . S
C297 C298 1.258 . S
C297 C300 1.431 . S
C297 C317 1.449 . S
C298 C297 1.258 . S
C298 C299 1.477 . S
C298 H318 0.931 . S
C299 C295 1.460 . S
C299 C298 1.477 . S
C299 H319 0.930 . S
C300 N296 1.362 . S
C300 C297 1.431 . S
C300 C310 1.476 . S
H301 C295 0.929 . S
C302 O293 1.250 . S
C302 O294 1.258 1_565 S
O303 Mn288 2.162 . S
O303 C291 1.281 . S
O304 Mn288 2.297 . S
O304 C291 1.236 . S
N305 Mn289 2.281 1_565 S
N305 C306 1.328 . S
N305 C310 1.318 1_565 S
C306 N305 1.328 . S
C306 C307 1.457 . S
C306 H311 0.929 . S
C307 C306 1.457 . S
C307 C308 1.291 . S
C307 H320 0.931 . S
C308 C307 1.291 . S
C308 C309 1.373 1_565 S
C308 H321 0.929 . S
C309 C308 1.373 1_545 S
C309 C310 1.396 . S
C309 C316 1.403 . S
C310 C300 1.476 . S
C310 N305 1.318 1_545 S
C310 C309 1.396 . S
H311 C306 0.929 . S
O312 Mn288 2.385 . S
O312 C290 1.234 . S
O313 Mn288 2.209 . S
O313 Mn289 2.192 1_565 S
O313 C290 1.283 . S
O314 Mn288 2.094 . S
O314 C292 1.240 . S
O315 Mn289 2.110 1_565 S
O315 C292 1.264 . S
C316 C309 1.403 . S
C316 C317 1.399 . S
C316 H322 0.929 . S
C317 C297 1.449 . S
C317 C316 1.399 . S
C317 H323 0.930 . S
H318 C298 0.931 . S
H319 C299 0.930 . S
H320 C307 0.931 . S
H321 C308 0.929 . S
H322 C316 0.929 . S
H323 C317 0.930 . S
Mn324 O329 2.095 . S
Mn324 O339 2.162 . S
Mn324 O340 2.297 . S
Mn324 O348 2.385 . S
Mn324 O349 2.209 . S
Mn324 O350 2.094 . S
Mn325 O330 2.121 . S
Mn325 N332 2.257 . S
Mn325 N341 2.282 . S
Mn325 O349 2.215 . S
Mn325 O351 2.117 . S
C326 O348 1.234 . S
C326 O349 1.283 . S
C327 O339 1.281 . S
C327 O340 1.236 . S
C328 O350 1.240 . S
C328 O351 1.264 . S
O329 Mn324 2.095 . S
O329 C338 1.250 . S
O330 Mn325 2.121 . S
O330 C338 1.258 . S
C331 N332 1.326 . S
C331 C335 1.460 . S
C331 H337 0.929 . S
N332 Mn325 2.257 . S
N332 C331 1.326 . S
N332 C336 1.362 . S
C333 C334 1.258 . S
C333 C336 1.431 . S
C333 C353 1.449 . S
C334 C333 1.258 . S
C334 C335 1.477 . S
C334 H354 0.931 . S
C335 C331 1.460 . S
C335 C334 1.477 . S
C335 H355 0.930 . S
C336 N332 1.362 . S
C336 C333 1.431 . S
C336 C346 1.476 . S
H337 C331 0.929 . S
C338 O329 1.250 . S
C338 O330 1.258 . S
O339 Mn324 2.162 . S
O339 C327 1.281 . S
O340 Mn324 2.297 . S
O340 C327 1.236 . S
N341 Mn325 2.282 . S
N341 C342 1.328 . S
N341 C346 1.318 . S
C342 N341 1.328 . S
C342 C343 1.457 . S
C342 H347 0.929 . S
C343 C342 1.457 . S
C343 C344 1.291 . S
C343 H356 0.931 . S
C344 C343 1.291 . S
C344 C345 1.373 . S
C344 H357 0.929 . S
C345 C344 1.373 . S
C345 C346 1.396 . S
C345 C352 1.403 . S
C346 C336 1.476 . S
C346 N341 1.318 . S
C346 C345 1.396 . S
H347 C342 0.929 . S
O348 Mn324 2.385 . S
O348 C326 1.234 . S
O349 Mn324 2.209 . S
O349 Mn325 2.215 . S
O349 C326 1.283 . S
O350 Mn324 2.094 . S
O350 C328 1.240 . S
O351 Mn325 2.117 . S
O351 C328 1.264 . S
C352 C345 1.403 . S
C352 C353 1.399 . S
C352 H358 0.929 . S
C353 C333 1.449 . S
C353 C352 1.399 . S
C353 H359 0.930 . S
H354 C334 0.931 . S
H355 C335 0.930 . S
H356 C343 0.931 . S
H357 C344 0.929 . S
H358 C352 0.929 . S
H359 C353 0.930 . S
Mn360 O365 2.095 . S
Mn360 O375 2.162 . S
Mn360 O376 2.297 . S
Mn360 O384 2.385 . S
Mn360 O385 2.209 . S
Mn360 O386 2.094 . S
Mn361 O366 2.124 . S
Mn361 N368 2.266 . S
Mn361 N377 2.281 1_565 S
Mn361 O385 2.192 1_565 S
Mn361 O387 2.110 1_565 S
C362 O384 1.234 . S
C362 O385 1.283 . S
C363 O375 1.281 . S
C363 O376 1.236 . S
C364 O386 1.240 . S
C364 O387 1.264 . S
O365 Mn360 2.095 . S
O365 C374 1.250 . S
O366 Mn361 2.124 . S
O366 C374 1.258 1_565 S
C367 N368 1.326 . S
C367 C371 1.460 . S
C367 H373 0.929 . S
N368 Mn361 2.266 . S
N368 C367 1.326 . S
N368 C372 1.362 . S
C369 C370 1.258 1_455 S
C369 C372 1.431 1_455 S
C369 C389 1.449 . S
C370 C369 1.258 1_655 S
C370 C371 1.477 . S
C370 H390 0.931 1_655 S
C371 C367 1.460 . S
C371 C370 1.477 . S
C371 H391 0.930 . S
C372 N368 1.362 . S
C372 C369 1.431 1_655 S
C372 C382 1.476 . S
H373 C367 0.929 . S
C374 O365 1.250 . S
C374 O366 1.258 1_545 S
O375 Mn360 2.162 . S
O375 C363 1.281 . S
O376 Mn360 2.297 . S
O376 C363 1.236 . S
N377 Mn361 2.281 1_545 S
N377 C378 1.328 . S
N377 C382 1.318 1_545 S
C378 N377 1.328 . S
C378 C379 1.457 1_655 S
C378 H383 0.929 . S
C379 C378 1.457 1_455 S
C379 C380 1.291 . S
C379 H392 0.931 . S
C380 C379 1.291 . S
C380 C381 1.373 1_545 S
C380 H393 0.929 . S
C381 C380 1.373 1_565 S
C381 C382 1.396 1_455 S
C381 C388 1.403 . S
C382 C372 1.476 . S
C382 N377 1.318 1_565 S
C382 C381 1.396 1_655 S
H383 C378 0.929 . S
O384 Mn360 2.385 . S
O384 C362 1.234 . S
O385 Mn360 2.209 . S
O385 Mn361 2.192 1_545 S
O385 C362 1.283 . S
O386 Mn360 2.094 . S
O386 C364 1.240 . S
O387 Mn361 2.110 1_545 S
O387 C364 1.264 . S
C388 C381 1.403 . S
C388 C389 1.399 . S
C388 H394 0.929 . S
C389 C369 1.449 . S
C389 C388 1.399 . S
C389 H395 0.930 . S
H390 C370 0.931 1_455 S
H391 C371 0.930 . S
H392 C379 0.931 . S
H393 C380 0.929 . S
H394 C388 0.929 . S
H395 C389 0.930 . S
Mn396 O401 2.095 . S
Mn396 O411 2.162 . S
Mn396 O412 2.297 . S
Mn396 O420 2.385 . S
Mn396 O421 2.209 . S
Mn396 O422 2.094 . S
Mn397 O402 2.121 . S
Mn397 N404 2.257 . S
Mn397 N413 2.282 . S
Mn397 O421 2.215 . S
Mn397 O423 2.117 . S
C398 O420 1.234 . S
C398 O421 1.283 . S
C399 O411 1.281 . S
C399 O412 1.236 . S
C400 O422 1.240 . S
C400 O423 1.264 . S
O401 Mn396 2.095 . S
O401 C410 1.250 . S
O402 Mn397 2.121 . S
O402 C410 1.258 . S
C403 N404 1.326 . S
C403 C407 1.460 . S
C403 H409 0.929 . S
N404 Mn397 2.257 . S
N404 C403 1.326 . S
N404 C408 1.362 . S
C405 C406 1.258 . S
C405 C408 1.431 . S
C405 C425 1.449 . S
C406 C405 1.258 . S
C406 C407 1.477 . S
C406 H426 0.931 . S
C407 C403 1.460 . S
C407 C406 1.477 . S
C407 H427 0.930 . S
C408 N404 1.362 . S
C408 C405 1.431 . S
C408 C418 1.476 . S
H409 C403 0.929 . S
C410 O401 1.250 . S
C410 O402 1.258 . S
O411 Mn396 2.162 . S
O411 C399 1.281 . S
O412 Mn396 2.297 . S
O412 C399 1.236 . S
N413 Mn397 2.282 . S
N413 C414 1.328 . S
N413 C418 1.318 . S
C414 N413 1.328 . S
C414 C415 1.457 . S
C414 H419 0.929 . S
C415 C414 1.457 . S
C415 C416 1.291 . S
C415 H428 0.931 . S
C416 C415 1.291 . S
C416 C417 1.373 . S
C416 H429 0.929 . S
C417 C416 1.373 . S
C417 C418 1.396 . S
C417 C424 1.403 . S
C418 C408 1.476 . S
C418 N413 1.318 . S
C418 C417 1.396 . S
H419 C414 0.929 . S
O420 Mn396 2.385 . S
O420 C398 1.234 . S
O421 Mn396 2.209 . S
O421 Mn397 2.215 . S
O421 C398 1.283 . S
O422 Mn396 2.094 . S
O422 C400 1.240 . S
O423 Mn397 2.117 . S
O423 C400 1.264 . S
C424 C417 1.403 . S
C424 C425 1.399 . S
C424 H430 0.929 . S
C425 C405 1.449 . S
C425 C424 1.399 . S
C425 H431 0.930 . S
H426 C406 0.931 . S
H427 C407 0.930 . S
H428 C415 0.931 . S
H429 C416 0.929 . S
H430 C424 0.929 . S
H431 C425 0.930 . S
Mn432 O437 2.095 . S
Mn432 O447 2.162 . S
Mn432 O448 2.297 . S
Mn432 O456 2.385 . S
Mn432 O457 2.209 . S
Mn432 O458 2.094 . S
Mn433 O438 2.124 . S
Mn433 N440 2.266 . S
Mn433 N449 2.281 1_565 S
Mn433 O457 2.192 1_565 S
Mn433 O459 2.110 1_565 S
C434 O456 1.234 . S
C434 O457 1.283 . S
C435 O447 1.281 . S
C435 O448 1.236 . S
C436 O458 1.240 . S
C436 O459 1.264 . S
O437 Mn432 2.095 . S
O437 C446 1.250 . S
O438 Mn433 2.124 . S
O438 C446 1.258 1_565 S
C439 N440 1.326 . S
C439 C443 1.460 . S
C439 H445 0.929 . S
N440 Mn433 2.266 . S
N440 C439 1.326 . S
N440 C444 1.362 . S
C441 C442 1.258 . S
C441 C444 1.431 . S
C441 C461 1.449 . S
C442 C441 1.258 . S
C442 C443 1.477 . S
C442 H462 0.931 . S
C443 C439 1.460 . S
C443 C442 1.477 . S
C443 H463 0.930 . S
C444 N440 1.362 . S
C444 C441 1.431 . S
C444 C454 1.476 . S
H445 C439 0.929 . S
C446 O437 1.250 . S
C446 O438 1.258 1_545 S
O447 Mn432 2.162 . S
O447 C435 1.281 . S
O448 Mn432 2.297 . S
O448 C435 1.236 . S
N449 Mn433 2.281 1_545 S
N449 C450 1.328 . S
N449 C454 1.318 1_545 S
C450 N449 1.328 . S
C450 C451 1.457 . S
C450 H455 0.929 . S
C451 C450 1.457 . S
C451 C452 1.291 . S
C451 H464 0.931 . S
C452 C451 1.291 . S
C452 C453 1.373 1_545 S
C452 H465 0.929 . S
C453 C452 1.373 1_565 S
C453 C454 1.396 . S
C453 C460 1.403 . S
C454 C444 1.476 . S
C454 N449 1.318 1_565 S
C454 C453 1.396 . S
H455 C450 0.929 . S
O456 Mn432 2.385 . S
O456 C434 1.234 . S
O457 Mn432 2.209 . S
O457 Mn433 2.192 1_545 S
O457 C434 1.283 . S
O458 Mn432 2.094 . S
O458 C436 1.240 . S
O459 Mn433 2.110 1_545 S
O459 C436 1.264 . S
C460 C453 1.403 . S
C460 C461 1.399 . S
C460 H466 0.929 . S
C461 C441 1.449 . S
C461 C460 1.399 . S
C461 H467 0.930 . S
H462 C442 0.931 . S
H463 C443 0.930 . S
H464 C451 0.931 . S
H465 C452 0.929 . S
H466 C460 0.929 . S
H467 C461 0.930 . S
Mn468 O473 2.095 . S
Mn468 O483 2.162 . S
Mn468 O484 2.297 . S
Mn468 O492 2.385 . S
Mn468 O493 2.209 . S
Mn468 O494 2.094 . S
Mn469 O474 2.121 . S
Mn469 N476 2.257 . S
Mn469 N485 2.282 . S
Mn469 O493 2.215 . S
Mn469 O495 2.117 . S
C470 O492 1.234 . S
C470 O493 1.283 . S
C471 O483 1.281 . S
C471 O484 1.236 . S
C472 O494 1.240 . S
C472 O495 1.264 . S
O473 Mn468 2.095 . S
O473 C482 1.250 . S
O474 Mn469 2.121 . S
O474 C482 1.258 . S
C475 N476 1.326 . S
C475 C479 1.460 . S
C475 H481 0.929 . S
N476 Mn469 2.257 . S
N476 C475 1.326 . S
N476 C480 1.362 . S
C477 C478 1.258 . S
C477 C480 1.431 . S
C477 C497 1.449 . S
C478 C477 1.258 . S
C478 C479 1.477 . S
C478 H498 0.931 . S
C479 C475 1.460 . S
C479 C478 1.477 . S
C479 H499 0.930 . S
C480 N476 1.362 . S
C480 C477 1.431 . S
C480 C490 1.476 . S
H481 C475 0.929 . S
C482 O473 1.250 . S
C482 O474 1.258 . S
O483 Mn468 2.162 . S
O483 C471 1.281 . S
O484 Mn468 2.297 . S
O484 C471 1.236 . S
N485 Mn469 2.282 . S
N485 C486 1.328 . S
N485 C490 1.318 . S
C486 N485 1.328 . S
C486 C487 1.457 . S
C486 H491 0.929 . S
C487 C486 1.457 . S
C487 C488 1.291 . S
C487 H500 0.931 . S
C488 C487 1.291 . S
C488 C489 1.373 . S
C488 H501 0.929 . S
C489 C488 1.373 . S
C489 C490 1.396 . S
C489 C496 1.403 . S
C490 C480 1.476 . S
C490 N485 1.318 . S
C490 C489 1.396 . S
H491 C486 0.929 . S
O492 Mn468 2.385 . S
O492 C470 1.234 . S
O493 Mn468 2.209 . S
O493 Mn469 2.215 . S
O493 C470 1.283 . S
O494 Mn468 2.094 . S
O494 C472 1.240 . S
O495 Mn469 2.117 . S
O495 C472 1.264 . S
C496 C489 1.403 . S
C496 C497 1.399 . S
C496 H502 0.929 . S
C497 C477 1.449 . S
C497 C496 1.399 . S
C497 H503 0.930 . S
H498 C478 0.931 . S
H499 C479 0.930 . S
H500 C487 0.931 . S
H501 C488 0.929 . S
H502 C496 0.929 . S
H503 C497 0.930 . S
Mn504 O509 2.095 . S
Mn504 O519 2.162 . S
Mn504 O520 2.297 . S
Mn504 O528 2.385 . S
Mn504 O529 2.209 . S
Mn504 O530 2.094 . S
Mn505 O510 2.124 . S
Mn505 N512 2.266 . S
Mn505 N521 2.281 1_545 S
Mn505 O529 2.192 1_545 S
Mn505 O531 2.110 1_545 S
C506 O528 1.234 . S
C506 O529 1.283 . S
C507 O519 1.281 . S
C507 O520 1.236 . S
C508 O530 1.240 . S
C508 O531 1.264 . S
O509 Mn504 2.095 . S
O509 C518 1.250 . S
O510 Mn505 2.124 . S
O510 C518 1.258 1_545 S
C511 N512 1.326 . S
C511 C515 1.460 . S
C511 H517 0.929 . S
N512 Mn505 2.266 . S
N512 C511 1.326 . S
N512 C516 1.362 . S
C513 C514 1.258 1_455 S
C513 C516 1.431 1_455 S
C513 C533 1.449 . S
C514 C513 1.258 1_655 S
C514 C515 1.477 . S
C514 H534 0.931 1_655 S
C515 C511 1.460 . S
C515 C514 1.477 . S
C515 H535 0.930 . S
C516 N512 1.362 . S
C516 C513 1.431 1_655 S
C516 C526 1.476 . S
H517 C511 0.929 . S
C518 O509 1.250 . S
C518 O510 1.258 1_565 S
O519 Mn504 2.162 . S
O519 C507 1.281 . S
O520 Mn504 2.297 . S
O520 C507 1.236 . S
N521 Mn505 2.281 1_565 S
N521 C522 1.328 . S
N521 C526 1.318 1_565 S
C522 N521 1.328 . S
C522 C523 1.457 1_655 S
C522 H527 0.929 . S
C523 C522 1.457 1_455 S
C523 C524 1.291 . S
C523 H536 0.931 . S
C524 C523 1.291 . S
C524 C525 1.373 1_565 S
C524 H537 0.929 . S
C525 C524 1.373 1_545 S
C525 C526 1.396 1_455 S
C525 C532 1.403 . S
C526 C516 1.476 . S
C526 N521 1.318 1_545 S
C526 C525 1.396 1_655 S
H527 C522 0.929 . S
O528 Mn504 2.385 . S
O528 C506 1.234 . S
O529 Mn504 2.209 . S
O529 Mn505 2.192 1_565 S
O529 C506 1.283 . S
O530 Mn504 2.094 . S
O530 C508 1.240 . S
O531 Mn505 2.110 1_565 S
O531 C508 1.264 . S
C532 C525 1.403 . S
C532 C533 1.399 . S
C532 H538 0.929 . S
C533 C513 1.449 . S
C533 C532 1.399 . S
C533 H539 0.930 . S
H534 C514 0.931 1_455 S
H535 C515 0.930 . S
H536 C523 0.931 . S
H537 C524 0.929 . S
H538 C532 0.929 . S
H539 C533 0.930 . S
Mn540 O545 2.095 . S
Mn540 O555 2.162 . S
Mn540 O556 2.297 . S
Mn540 O564 2.385 . S
Mn540 O565 2.209 . S
Mn540 O566 2.094 . S
Mn541 O546 2.121 . S
Mn541 N548 2.257 . S
Mn541 N557 2.282 . S
Mn541 O565 2.215 . S
Mn541 O567 2.117 . S
C542 O564 1.234 . S
C542 O565 1.283 . S
C543 O555 1.281 . S
C543 O556 1.236 . S
C544 O566 1.240 . S
C544 O567 1.264 . S
O545 Mn540 2.095 . S
O545 C554 1.250 . S
O546 Mn541 2.121 . S
O546 C554 1.258 . S
C547 N548 1.326 . S
C547 C551 1.460 . S
C547 H553 0.929 . S
N548 Mn541 2.257 . S
N548 C547 1.326 . S
N548 C552 1.362 . S
C549 C550 1.258 . S
C549 C552 1.431 . S
C549 C569 1.449 . S
C550 C549 1.258 . S
C550 C551 1.477 . S
C550 H570 0.931 . S
C551 C547 1.460 . S
C551 C550 1.477 . S
C551 H571 0.930 . S
C552 N548 1.362 . S
C552 C549 1.431 . S
C552 C562 1.476 . S
H553 C547 0.929 . S
C554 O545 1.250 . S
C554 O546 1.258 . S
O555 Mn540 2.162 . S
O555 C543 1.281 . S
O556 Mn540 2.297 . S
O556 C543 1.236 . S
N557 Mn541 2.282 . S
N557 C558 1.328 . S
N557 C562 1.318 . S
C558 N557 1.328 . S
C558 C559 1.457 . S
C558 H563 0.929 . S
C559 C558 1.457 . S
C559 C560 1.291 . S
C559 H572 0.931 . S
C560 C559 1.291 . S
C560 C561 1.373 . S
C560 H573 0.929 . S
C561 C560 1.373 . S
C561 C562 1.396 . S
C561 C568 1.403 . S
C562 C552 1.476 . S
C562 N557 1.318 . S
C562 C561 1.396 . S
H563 C558 0.929 . S
O564 Mn540 2.385 . S
O564 C542 1.234 . S
O565 Mn540 2.209 . S
O565 Mn541 2.215 . S
O565 C542 1.283 . S
O566 Mn540 2.094 . S
O566 C544 1.240 . S
O567 Mn541 2.117 . S
O567 C544 1.264 . S
C568 C561 1.403 . S
C568 C569 1.399 . S
C568 H574 0.929 . S
C569 C549 1.449 . S
C569 C568 1.399 . S
C569 H575 0.930 . S
H570 C550 0.931 . S
H571 C551 0.930 . S
H572 C559 0.931 . S
H573 C560 0.929 . S
H574 C568 0.929 . S
H575 C569 0.930 . S
Mn576 O581 2.095 . S
Mn576 O591 2.162 . S
Mn576 O592 2.297 . S
Mn576 O600 2.385 . S
Mn576 O601 2.209 . S
Mn576 O602 2.094 . S
Mn577 O582 2.121 . S
Mn577 N584 2.257 . S
Mn577 N593 2.282 . S
Mn577 O601 2.215 . S
Mn577 O603 2.117 . S
C578 O600 1.234 . S
C578 O601 1.283 . S
C579 O591 1.281 . S
C579 O592 1.236 . S
C580 O602 1.240 . S
C580 O603 1.264 . S
O581 Mn576 2.095 . S
O581 C590 1.250 . S
O582 Mn577 2.121 . S
O582 C590 1.258 . S
C583 N584 1.326 . S
C583 C587 1.460 . S
C583 H589 0.929 . S
N584 Mn577 2.257 . S
N584 C583 1.326 . S
N584 C588 1.362 . S
C585 C586 1.258 1_455 S
C585 C588 1.431 1_455 S
C585 C605 1.449 . S
C586 C585 1.258 1_655 S
C586 C587 1.477 . S
C586 H606 0.931 1_655 S
C587 C583 1.460 . S
C587 C586 1.477 . S
C587 H607 0.930 . S
C588 N584 1.362 . S
C588 C585 1.431 1_655 S
C588 C598 1.476 . S
H589 C583 0.929 . S
C590 O581 1.250 . S
C590 O582 1.258 . S
O591 Mn576 2.162 . S
O591 C579 1.281 . S
O592 Mn576 2.297 . S
O592 C579 1.236 . S
N593 Mn577 2.282 . S
N593 C594 1.328 . S
N593 C598 1.318 . S
C594 N593 1.328 . S
C594 C595 1.457 1_655 S
C594 H599 0.929 . S
C595 C594 1.457 1_455 S
C595 C596 1.291 . S
C595 H608 0.931 . S
C596 C595 1.291 . S
C596 C597 1.373 . S
C596 H609 0.929 . S
C597 C596 1.373 . S
C597 C598 1.396 1_455 S
C597 C604 1.403 . S
C598 C588 1.476 . S
C598 N593 1.318 . S
C598 C597 1.396 1_655 S
H599 C594 0.929 . S
O600 Mn576 2.385 . S
O600 C578 1.234 . S
O601 Mn576 2.209 . S
O601 Mn577 2.215 . S
O601 C578 1.283 . S
O602 Mn576 2.094 . S
O602 C580 1.240 . S
O603 Mn577 2.117 . S
O603 C580 1.264 . S
C604 C597 1.403 . S
C604 C605 1.399 . S
C604 H610 0.929 . S
C605 C585 1.449 . S
C605 C604 1.399 . S
C605 H611 0.930 . S
H606 C586 0.931 1_455 S
H607 C587 0.930 . S
H608 C595 0.931 . S
H609 C596 0.929 . S
H610 C604 0.929 . S
H611 C605 0.930 . S
Mn612 O617 2.095 . S
Mn612 O627 2.162 . S
Mn612 O628 2.297 . S
Mn612 O636 2.385 . S
Mn612 O637 2.209 . S
Mn612 O638 2.094 . S
Mn613 O618 2.121 . S
Mn613 N620 2.257 . S
Mn613 N629 2.282 . S
Mn613 O637 2.215 . S
Mn613 O639 2.117 . S
C614 O636 1.234 . S
C614 O637 1.283 . S
C615 O627 1.281 . S
C615 O628 1.236 . S
C616 O638 1.240 . S
C616 O639 1.264 . S
O617 Mn612 2.095 . S
O617 C626 1.250 . S
O618 Mn613 2.121 . S
O618 C626 1.258 . S
C619 N620 1.326 . S
C619 C623 1.460 . S
C619 H625 0.929 . S
N620 Mn613 2.257 . S
N620 C619 1.326 . S
N620 C624 1.362 . S
C621 C622 1.258 . S
C621 C624 1.431 . S
C621 C641 1.449 . S
C622 C621 1.258 . S
C622 C623 1.477 . S
C622 H642 0.931 . S
C623 C619 1.460 . S
C623 C622 1.477 . S
C623 H643 0.930 . S
C624 N620 1.362 . S
C624 C621 1.431 . S
C624 C634 1.476 . S
H625 C619 0.929 . S
C626 O617 1.250 . S
C626 O618 1.258 . S
O627 Mn612 2.162 . S
O627 C615 1.281 . S
O628 Mn612 2.297 . S
O628 C615 1.236 . S
N629 Mn613 2.282 . S
N629 C630 1.328 . S
N629 C634 1.318 . S
C630 N629 1.328 . S
C630 C631 1.457 . S
C630 H635 0.929 . S
C631 C630 1.457 . S
C631 C632 1.291 . S
C631 H644 0.931 . S
C632 C631 1.291 . S
C632 C633 1.373 . S
C632 H645 0.929 . S
C633 C632 1.373 . S
C633 C634 1.396 . S
C633 C640 1.403 . S
C634 C624 1.476 . S
C634 N629 1.318 . S
C634 C633 1.396 . S
H635 C630 0.929 . S
O636 Mn612 2.385 . S
O636 C614 1.234 . S
O637 Mn612 2.209 . S
O637 Mn613 2.215 . S
O637 C614 1.283 . S
O638 Mn612 2.094 . S
O638 C616 1.240 . S
O639 Mn613 2.117 . S
O639 C616 1.264 . S
C640 C633 1.403 . S
C640 C641 1.399 . S
C640 H646 0.929 . S
C641 C621 1.449 . S
C641 C640 1.399 . S
C641 H647 0.930 . S
H642 C622 0.931 . S
H643 C623 0.930 . S
H644 C631 0.931 . S
H645 C632 0.929 . S
H646 C640 0.929 . S
H647 C641 0.930 . S
Mn648 O653 2.095 . S
Mn648 O663 2.162 . S
Mn648 O664 2.297 . S
Mn648 O672 2.385 . S
Mn648 O673 2.209 . S
Mn648 O674 2.094 . S
Mn649 O654 2.121 . S
Mn649 N656 2.257 . S
Mn649 N665 2.282 . S
Mn649 O673 2.215 . S
Mn649 O675 2.117 . S
C650 O672 1.234 . S
C650 O673 1.283 . S
C651 O663 1.281 . S
C651 O664 1.236 . S
C652 O674 1.240 . S
C652 O675 1.264 . S
O653 Mn648 2.095 . S
O653 C662 1.250 . S
O654 Mn649 2.121 . S
O654 C662 1.258 . S
C655 N656 1.326 . S
C655 C659 1.460 . S
C655 H661 0.929 . S
N656 Mn649 2.257 . S
N656 C655 1.326 . S
N656 C660 1.362 . S
C657 C658 1.258 . S
C657 C660 1.431 . S
C657 C677 1.449 . S
C658 C657 1.258 . S
C658 C659 1.477 . S
C658 H678 0.931 . S
C659 C655 1.460 . S
C659 C658 1.477 . S
C659 H679 0.930 . S
C660 N656 1.362 . S
C660 C657 1.431 . S
C660 C670 1.476 . S
H661 C655 0.929 . S
C662 O653 1.250 . S
C662 O654 1.258 . S
O663 Mn648 2.162 . S
O663 C651 1.281 . S
O664 Mn648 2.297 . S
O664 C651 1.236 . S
N665 Mn649 2.282 . S
N665 C666 1.328 . S
N665 C670 1.318 . S
C666 N665 1.328 . S
C666 C667 1.457 . S
C666 H671 0.929 . S
C667 C666 1.457 . S
C667 C668 1.291 . S
C667 H680 0.931 . S
C668 C667 1.291 . S
C668 C669 1.373 . S
C668 H681 0.929 . S
C669 C668 1.373 . S
C669 C670 1.396 . S
C669 C676 1.403 . S
C670 C660 1.476 . S
C670 N665 1.318 . S
C670 C669 1.396 . S
H671 C666 0.929 . S
O672 Mn648 2.385 . S
O672 C650 1.234 . S
O673 Mn648 2.209 . S
O673 Mn649 2.215 . S
O673 C650 1.283 . S
O674 Mn648 2.094 . S
O674 C652 1.240 . S
O675 Mn649 2.117 . S
O675 C652 1.264 . S
C676 C669 1.403 . S
C676 C677 1.399 . S
C676 H682 0.929 . S
C677 C657 1.449 . S
C677 C676 1.399 . S
C677 H683 0.930 . S
H678 C658 0.931 . S
H679 C659 0.930 . S
H680 C667 0.931 . S
H681 C668 0.929 . S
H682 C676 0.929 . S
H683 C677 0.930 . S
Mn684 O689 2.095 . S
Mn684 O699 2.162 . S
Mn684 O700 2.297 . S
Mn684 O708 2.385 . S
Mn684 O709 2.209 . S
Mn684 O710 2.094 . S
Mn685 O690 2.121 . S
Mn685 N692 2.257 . S
Mn685 N701 2.282 . S
Mn685 O709 2.215 . S
Mn685 O711 2.117 . S
C686 O708 1.234 . S
C686 O709 1.283 . S
C687 O699 1.281 . S
C687 O700 1.236 . S
C688 O710 1.240 . S
C688 O711 1.264 . S
O689 Mn684 2.095 . S
O689 C698 1.250 . S
O690 Mn685 2.121 . S
O690 C698 1.258 . S
C691 N692 1.326 . S
C691 C695 1.460 . S
C691 H697 0.929 . S
N692 Mn685 2.257 . S
N692 C691 1.326 . S
N692 C696 1.362 . S
C693 C694 1.258 . S
C693 C696 1.431 . S
C693 C713 1.449 . S
C694 C693 1.258 . S
C694 C695 1.477 . S
C694 H714 0.931 . S
C695 C691 1.460 . S
C695 C694 1.477 . S
C695 H715 0.930 . S
C696 N692 1.362 . S
C696 C693 1.431 . S
C696 C706 1.476 . S
H697 C691 0.929 . S
C698 O689 1.250 . S
C698 O690 1.258 . S
O699 Mn684 2.162 . S
O699 C687 1.281 . S
O700 Mn684 2.297 . S
O700 C687 1.236 . S
N701 Mn685 2.282 . S
N701 C702 1.328 . S
N701 C706 1.318 . S
C702 N701 1.328 . S
C702 C703 1.457 . S
C702 H707 0.929 . S
C703 C702 1.457 . S
C703 C704 1.291 . S
C703 H716 0.931 . S
C704 C703 1.291 . S
C704 C705 1.373 . S
C704 H717 0.929 . S
C705 C704 1.373 . S
C705 C706 1.396 . S
C705 C712 1.403 . S
C706 C696 1.476 . S
C706 N701 1.318 . S
C706 C705 1.396 . S
H707 C702 0.929 . S
O708 Mn684 2.385 . S
O708 C686 1.234 . S
O709 Mn684 2.209 . S
O709 Mn685 2.215 . S
O709 C686 1.283 . S
O710 Mn684 2.094 . S
O710 C688 1.240 . S
O711 Mn685 2.117 . S
O711 C688 1.264 . S
C712 C705 1.403 . S
C712 C713 1.399 . S
C712 H718 0.929 . S
C713 C693 1.449 . S
C713 C712 1.399 . S
C713 H719 0.930 . S
H714 C694 0.931 . S
H715 C695 0.930 . S
H716 C703 0.931 . S
H717 C704 0.929 . S
H718 C712 0.929 . S
H719 C713 0.930 . S
Mn720 O725 2.095 . S
Mn720 O735 2.162 . S
Mn720 O736 2.297 . S
Mn720 O744 2.385 . S
Mn720 O745 2.209 . S
Mn720 O746 2.094 . S
Mn721 O726 2.121 . S
Mn721 N728 2.257 . S
Mn721 N737 2.282 . S
Mn721 O745 2.215 . S
Mn721 O747 2.117 . S
C722 O744 1.234 . S
C722 O745 1.283 . S
C723 O735 1.281 . S
C723 O736 1.236 . S
C724 O746 1.240 . S
C724 O747 1.264 . S
O725 Mn720 2.095 . S
O725 C734 1.250 . S
O726 Mn721 2.121 . S
O726 C734 1.258 . S
C727 N728 1.326 . S
C727 C731 1.460 . S
C727 H733 0.929 . S
N728 Mn721 2.257 . S
N728 C727 1.326 . S
N728 C732 1.362 . S
C729 C730 1.258 1_455 S
C729 C732 1.431 1_455 S
C729 C749 1.449 . S
C730 C729 1.258 1_655 S
C730 C731 1.477 . S
C730 H750 0.931 1_655 S
C731 C727 1.460 . S
C731 C730 1.477 . S
C731 H751 0.930 . S
C732 N728 1.362 . S
C732 C729 1.431 1_655 S
C732 C742 1.476 . S
H733 C727 0.929 . S
C734 O725 1.250 . S
C734 O726 1.258 . S
O735 Mn720 2.162 . S
O735 C723 1.281 . S
O736 Mn720 2.297 . S
O736 C723 1.236 . S
N737 Mn721 2.282 . S
N737 C738 1.328 . S
N737 C742 1.318 . S
C738 N737 1.328 . S
C738 C739 1.457 1_655 S
C738 H743 0.929 . S
C739 C738 1.457 1_455 S
C739 C740 1.291 . S
C739 H752 0.931 . S
C740 C739 1.291 . S
C740 C741 1.373 . S
C740 H753 0.929 . S
C741 C740 1.373 . S
C741 C742 1.396 1_455 S
C741 C748 1.403 . S
C742 C732 1.476 . S
C742 N737 1.318 . S
C742 C741 1.396 1_655 S
H743 C738 0.929 . S
O744 Mn720 2.385 . S
O744 C722 1.234 . S
O745 Mn720 2.209 . S
O745 Mn721 2.215 . S
O745 C722 1.283 . S
O746 Mn720 2.094 . S
O746 C724 1.240 . S
O747 Mn721 2.117 . S
O747 C724 1.264 . S
C748 C741 1.403 . S
C748 C749 1.399 . S
C748 H754 0.929 . S
C749 C729 1.449 . S
C749 C748 1.399 . S
C749 H755 0.930 . S
H750 C730 0.931 1_455 S
H751 C731 0.930 . S
H752 C739 0.931 . S
H753 C740 0.929 . S
H754 C748 0.929 . S
H755 C749 0.930 . S
Mn756 O761 2.095 . S
Mn756 O771 2.162 . S
Mn756 O772 2.297 . S
Mn756 O780 2.385 . S
Mn756 O781 2.209 . S
Mn756 O782 2.094 . S
Mn757 O762 2.121 . S
Mn757 N764 2.257 . S
Mn757 N773 2.282 . S
Mn757 O781 2.215 . S
Mn757 O783 2.117 . S
C758 O780 1.234 . S
C758 O781 1.283 . S
C759 O771 1.281 . S
C759 O772 1.236 . S
C760 O782 1.240 . S
C760 O783 1.264 . S
O761 Mn756 2.095 . S
O761 C770 1.250 . S
O762 Mn757 2.121 . S
O762 C770 1.258 . S
C763 N764 1.326 . S
C763 C767 1.460 . S
C763 H769 0.929 . S
N764 Mn757 2.257 . S
N764 C763 1.326 . S
N764 C768 1.362 . S
C765 C766 1.258 . S
C765 C768 1.431 . S
C765 C785 1.449 . S
C766 C765 1.258 . S
C766 C767 1.477 . S
C766 H786 0.931 . S
C767 C763 1.460 . S
C767 C766 1.477 . S
C767 H787 0.930 . S
C768 N764 1.362 . S
C768 C765 1.431 . S
C768 C778 1.476 . S
H769 C763 0.929 . S
C770 O761 1.250 . S
C770 O762 1.258 . S
O771 Mn756 2.162 . S
O771 C759 1.281 . S
O772 Mn756 2.297 . S
O772 C759 1.236 . S
N773 Mn757 2.282 . S
N773 C774 1.328 . S
N773 C778 1.318 . S
C774 N773 1.328 . S
C774 C775 1.457 . S
C774 H779 0.929 . S
C775 C774 1.457 . S
C775 C776 1.291 . S
C775 H788 0.931 . S
C776 C775 1.291 . S
C776 C777 1.373 . S
C776 H789 0.929 . S
C777 C776 1.373 . S
C777 C778 1.396 . S
C777 C784 1.403 . S
C778 C768 1.476 . S
C778 N773 1.318 . S
C778 C777 1.396 . S
H779 C774 0.929 . S
O780 Mn756 2.385 . S
O780 C758 1.234 . S
O781 Mn756 2.209 . S
O781 Mn757 2.215 . S
O781 C758 1.283 . S
O782 Mn756 2.094 . S
O782 C760 1.240 . S
O783 Mn757 2.117 . S
O783 C760 1.264 . S
C784 C777 1.403 . S
C784 C785 1.399 . S
C784 H790 0.929 . S
C785 C765 1.449 . S
C785 C784 1.399 . S
C785 H791 0.930 . S
H786 C766 0.931 . S
H787 C767 0.930 . S
H788 C775 0.931 . S
H789 C776 0.929 . S
H790 C784 0.929 . S
H791 C785 0.930 . S
Mn792 O797 2.095 . S
Mn792 O807 2.162 . S
Mn792 O808 2.297 . S
Mn792 O816 2.385 . S
Mn792 O817 2.209 . S
Mn792 O818 2.094 . S
Mn793 O798 2.121 . S
Mn793 N800 2.257 . S
Mn793 N809 2.282 . S
Mn793 O817 2.215 . S
Mn793 O819 2.117 . S
C794 O816 1.234 . S
C794 O817 1.283 . S
C795 O807 1.281 . S
C795 O808 1.236 . S
C796 O818 1.240 . S
C796 O819 1.264 . S
O797 Mn792 2.095 . S
O797 C806 1.250 . S
O798 Mn793 2.121 . S
O798 C806 1.258 . S
C799 N800 1.326 . S
C799 C803 1.460 . S
C799 H805 0.929 . S
N800 Mn793 2.257 . S
N800 C799 1.326 . S
N800 C804 1.362 . S
C801 C802 1.258 . S
C801 C804 1.431 . S
C801 C821 1.449 . S
C802 C801 1.258 . S
C802 C803 1.477 . S
C802 H822 0.931 . S
C803 C799 1.460 . S
C803 C802 1.477 . S
C803 H823 0.930 . S
C804 N800 1.362 . S
C804 C801 1.431 . S
C804 C814 1.476 . S
H805 C799 0.929 . S
C806 O797 1.250 . S
C806 O798 1.258 . S
O807 Mn792 2.162 . S
O807 C795 1.281 . S
O808 Mn792 2.297 . S
O808 C795 1.236 . S
N809 Mn793 2.282 . S
N809 C810 1.328 . S
N809 C814 1.318 . S
C810 N809 1.328 . S
C810 C811 1.457 . S
C810 H815 0.929 . S
C811 C810 1.457 . S
C811 C812 1.291 . S
C811 H824 0.931 . S
C812 C811 1.291 . S
C812 C813 1.373 . S
C812 H825 0.929 . S
C813 C812 1.373 . S
C813 C814 1.396 . S
C813 C820 1.403 . S
C814 C804 1.476 . S
C814 N809 1.318 . S
C814 C813 1.396 . S
H815 C810 0.929 . S
O816 Mn792 2.385 . S
O816 C794 1.234 . S
O817 Mn792 2.209 . S
O817 Mn793 2.215 . S
O817 C794 1.283 . S
O818 Mn792 2.094 . S
O818 C796 1.240 . S
O819 Mn793 2.117 . S
O819 C796 1.264 . S
C820 C813 1.403 . S
C820 C821 1.399 . S
C820 H826 0.929 . S
C821 C801 1.449 . S
C821 C820 1.399 . S
C821 H827 0.930 . S
H822 C802 0.931 . S
H823 C803 0.930 . S
H824 C811 0.931 . S
H825 C812 0.929 . S
H826 C820 0.929 . S
H827 C821 0.930 . S
Mn828 O833 2.095 . S
Mn828 O843 2.162 . S
Mn828 O844 2.297 . S
Mn828 O852 2.385 . S
Mn828 O853 2.209 . S
Mn828 O854 2.094 . S
Mn829 O834 2.121 . S
Mn829 N836 2.257 . S
Mn829 N845 2.282 . S
Mn829 O853 2.215 . S
Mn829 O855 2.117 . S
C830 O852 1.234 . S
C830 O853 1.283 . S
C831 O843 1.281 . S
C831 O844 1.236 . S
C832 O854 1.240 . S
C832 O855 1.264 . S
O833 Mn828 2.095 . S
O833 C842 1.250 . S
O834 Mn829 2.121 . S
O834 C842 1.258 . S
C835 N836 1.326 . S
C835 C839 1.460 . S
C835 H841 0.929 . S
N836 Mn829 2.257 . S
N836 C835 1.326 . S
N836 C840 1.362 . S
C837 C838 1.258 . S
C837 C840 1.431 . S
C837 C857 1.449 . S
C838 C837 1.258 . S
C838 C839 1.477 . S
C838 H858 0.931 . S
C839 C835 1.460 . S
C839 C838 1.477 . S
C839 H859 0.930 . S
C840 N836 1.362 . S
C840 C837 1.431 . S
C840 C850 1.476 . S
H841 C835 0.929 . S
C842 O833 1.250 . S
C842 O834 1.258 . S
O843 Mn828 2.162 . S
O843 C831 1.281 . S
O844 Mn828 2.297 . S
O844 C831 1.236 . S
N845 Mn829 2.282 . S
N845 C846 1.328 . S
N845 C850 1.318 . S
C846 N845 1.328 . S
C846 C847 1.457 . S
C846 H851 0.929 . S
C847 C846 1.457 . S
C847 C848 1.291 . S
C847 H860 0.931 . S
C848 C847 1.291 . S
C848 C849 1.373 . S
C848 H861 0.929 . S
C849 C848 1.373 . S
C849 C850 1.396 . S
C849 C856 1.403 . S
C850 C840 1.476 . S
C850 N845 1.318 . S
C850 C849 1.396 . S
H851 C846 0.929 . S
O852 Mn828 2.385 . S
O852 C830 1.234 . S
O853 Mn828 2.209 . S
O853 Mn829 2.215 . S
O853 C830 1.283 . S
O854 Mn828 2.094 . S
O854 C832 1.240 . S
O855 Mn829 2.117 . S
O855 C832 1.264 . S
C856 C849 1.403 . S
C856 C857 1.399 . S
C856 H862 0.929 . S
C857 C837 1.449 . S
C857 C856 1.399 . S
C857 H863 0.930 . S
H858 C838 0.931 . S
H859 C839 0.930 . S
H860 C847 0.931 . S
H861 C848 0.929 . S
H862 C856 0.929 . S
H863 C857 0.930 . S
Mn864 O869 2.095 . S
Mn864 O879 2.162 . S
Mn864 O880 2.297 . S
Mn864 O888 2.385 . S
Mn864 O889 2.209 . S
Mn864 O890 2.094 . S
Mn865 O870 2.121 . S
Mn865 N872 2.257 . S
Mn865 N881 2.282 . S
Mn865 O889 2.215 . S
Mn865 O891 2.117 . S
C866 O888 1.234 . S
C866 O889 1.283 . S
C867 O879 1.281 . S
C867 O880 1.236 . S
C868 O890 1.240 . S
C868 O891 1.264 . S
O869 Mn864 2.095 . S
O869 C878 1.250 . S
O870 Mn865 2.121 . S
O870 C878 1.258 . S
C871 N872 1.326 . S
C871 C875 1.460 . S
C871 H877 0.929 . S
N872 Mn865 2.257 . S
N872 C871 1.326 . S
N872 C876 1.362 . S
C873 C874 1.258 1_655 S
C873 C876 1.431 1_655 S
C873 C893 1.449 . S
C874 C873 1.258 1_455 S
C874 C875 1.477 . S
C874 H894 0.931 1_455 S
C875 C871 1.460 . S
C875 C874 1.477 . S
C875 H895 0.930 . S
C876 N872 1.362 . S
C876 C873 1.431 1_455 S
C876 C886 1.476 . S
H877 C871 0.929 . S
C878 O869 1.250 . S
C878 O870 1.258 . S
O879 Mn864 2.162 . S
O879 C867 1.281 . S
O880 Mn864 2.297 . S
O880 C867 1.236 . S
N881 Mn865 2.282 . S
N881 C882 1.328 . S
N881 C886 1.318 . S
C882 N881 1.328 . S
C882 C883 1.457 1_455 S
C882 H887 0.929 . S
C883 C882 1.457 1_655 S
C883 C884 1.291 . S
C883 H896 0.931 . S
C884 C883 1.291 . S
C884 C885 1.373 . S
C884 H897 0.929 . S
C885 C884 1.373 . S
C885 C886 1.396 1_655 S
C885 C892 1.403 . S
C886 C876 1.476 . S
C886 N881 1.318 . S
C886 C885 1.396 1_455 S
H887 C882 0.929 . S
O888 Mn864 2.385 . S
O888 C866 1.234 . S
O889 Mn864 2.209 . S
O889 Mn865 2.215 . S
O889 C866 1.283 . S
O890 Mn864 2.094 . S
O890 C868 1.240 . S
O891 Mn865 2.117 . S
O891 C868 1.264 . S
C892 C885 1.403 . S
C892 C893 1.399 . S
C892 H898 0.929 . S
C893 C873 1.449 . S
C893 C892 1.399 . S
C893 H899 0.930 . S
H894 C874 0.931 1_655 S
H895 C875 0.930 . S
H896 C883 0.931 . S
H897 C884 0.929 . S
H898 C892 0.929 . S
H899 C893 0.930 . S
Mn900 O905 2.095 . S
Mn900 O915 2.162 . S
Mn900 O916 2.297 . S
Mn900 O924 2.385 . S
Mn900 O925 2.209 . S
Mn900 O926 2.094 . S
Mn901 O906 2.121 . S
Mn901 N908 2.257 . S
Mn901 N917 2.282 . S
Mn901 O925 2.215 . S
Mn901 O927 2.117 . S
C902 O924 1.234 . S
C902 O925 1.283 . S
C903 O915 1.281 . S
C903 O916 1.236 . S
C904 O926 1.240 . S
C904 O927 1.264 . S
O905 Mn900 2.095 . S
O905 C914 1.250 . S
O906 Mn901 2.121 . S
O906 C914 1.258 . S
C907 N908 1.326 . S
C907 C911 1.460 . S
C907 H913 0.929 . S
N908 Mn901 2.257 . S
N908 C907 1.326 . S
N908 C912 1.362 . S
C909 C910 1.258 . S
C909 C912 1.431 . S
C909 C929 1.449 . S
C910 C909 1.258 . S
C910 C911 1.477 . S
C910 H930 0.931 . S
C911 C907 1.460 . S
C911 C910 1.477 . S
C911 H931 0.930 . S
C912 N908 1.362 . S
C912 C909 1.431 . S
C912 C922 1.476 . S
H913 C907 0.929 . S
C914 O905 1.250 . S
C914 O906 1.258 . S
O915 Mn900 2.162 . S
O915 C903 1.281 . S
O916 Mn900 2.297 . S
O916 C903 1.236 . S
N917 Mn901 2.282 . S
N917 C918 1.328 . S
N917 C922 1.318 . S
C918 N917 1.328 . S
C918 C919 1.457 . S
C918 H923 0.929 . S
C919 C918 1.457 . S
C919 C920 1.291 . S
C919 H932 0.931 . S
C920 C919 1.291 . S
C920 C921 1.373 . S
C920 H933 0.929 . S
C921 C920 1.373 . S
C921 C922 1.396 . S
C921 C928 1.403 . S
C922 C912 1.476 . S
C922 N917 1.318 . S
C922 C921 1.396 . S
H923 C918 0.929 . S
O924 Mn900 2.385 . S
O924 C902 1.234 . S
O925 Mn900 2.209 . S
O925 Mn901 2.215 . S
O925 C902 1.283 . S
O926 Mn900 2.094 . S
O926 C904 1.240 . S
O927 Mn901 2.117 . S
O927 C904 1.264 . S
C928 C921 1.403 . S
C928 C929 1.399 . S
C928 H934 0.929 . S
C929 C909 1.449 . S
C929 C928 1.399 . S
C929 H935 0.930 . S
H930 C910 0.931 . S
H931 C911 0.930 . S
H932 C919 0.931 . S
H933 C920 0.929 . S
H934 C928 0.929 . S
H935 C929 0.930 . S
Mn936 O941 2.095 . S
Mn936 O951 2.162 . S
Mn936 O952 2.297 . S
Mn936 O960 2.385 . S
Mn936 O961 2.209 . S
Mn936 O962 2.094 . S
Mn937 O942 2.121 . S
Mn937 N944 2.257 . S
Mn937 N953 2.282 . S
Mn937 O961 2.215 . S
Mn937 O963 2.117 . S
C938 O960 1.234 . S
C938 O961 1.283 . S
C939 O951 1.281 . S
C939 O952 1.236 . S
C940 O962 1.240 . S
C940 O963 1.264 . S
O941 Mn936 2.095 . S
O941 C950 1.250 . S
O942 Mn937 2.121 . S
O942 C950 1.258 . S
C943 N944 1.326 . S
C943 C947 1.460 . S
C943 H949 0.929 . S
N944 Mn937 2.257 . S
N944 C943 1.326 . S
N944 C948 1.362 . S
C945 C946 1.258 . S
C945 C948 1.431 . S
C945 C965 1.449 . S
C946 C945 1.258 . S
C946 C947 1.477 . S
C946 H966 0.931 . S
C947 C943 1.460 . S
C947 C946 1.477 . S
C947 H967 0.930 . S
C948 N944 1.362 . S
C948 C945 1.431 . S
C948 C958 1.476 . S
H949 C943 0.929 . S
C950 O941 1.250 . S
C950 O942 1.258 . S
O951 Mn936 2.162 . S
O951 C939 1.281 . S
O952 Mn936 2.297 . S
O952 C939 1.236 . S
N953 Mn937 2.282 . S
N953 C954 1.328 . S
N953 C958 1.318 . S
C954 N953 1.328 . S
C954 C955 1.457 . S
C954 H959 0.929 . S
C955 C954 1.457 . S
C955 C956 1.291 . S
C955 H968 0.931 . S
C956 C955 1.291 . S
C956 C957 1.373 . S
C956 H969 0.929 . S
C957 C956 1.373 . S
C957 C958 1.396 . S
C957 C964 1.403 . S
C958 C948 1.476 . S
C958 N953 1.318 . S
C958 C957 1.396 . S
H959 C954 0.929 . S
O960 Mn936 2.385 . S
O960 C938 1.234 . S
O961 Mn936 2.209 . S
O961 Mn937 2.215 . S
O961 C938 1.283 . S
O962 Mn936 2.094 . S
O962 C940 1.240 . S
O963 Mn937 2.117 . S
O963 C940 1.264 . S
C964 C957 1.403 . S
C964 C965 1.399 . S
C964 H970 0.929 . S
C965 C945 1.449 . S
C965 C964 1.399 . S
C965 H971 0.930 . S
H966 C946 0.931 . S
H967 C947 0.930 . S
H968 C955 0.931 . S
H969 C956 0.929 . S
H970 C964 0.929 . S
H971 C965 0.930 . S
Mn972 O977 2.095 . S
Mn972 O987 2.162 . S
Mn972 O988 2.297 . S
Mn972 O996 2.385 . S
Mn972 O997 2.209 . S
Mn972 O998 2.094 . S
Mn973 O978 2.121 . S
Mn973 N980 2.257 . S
Mn973 N989 2.282 . S
Mn973 O997 2.215 . S
Mn973 O999 2.117 . S
C974 O996 1.234 . S
C974 O997 1.283 . S
C975 O987 1.281 . S
C975 O988 1.236 . S
C976 O998 1.240 . S
C976 O999 1.264 . S
O977 Mn972 2.095 . S
O977 C986 1.250 . S
O978 Mn973 2.121 . S
O978 C986 1.258 . S
C979 N980 1.326 . S
C979 C983 1.460 . S
C979 H985 0.929 . S
N980 Mn973 2.257 . S
N980 C979 1.326 . S
N980 C984 1.362 . S
C981 C982 1.258 . S
C981 C984 1.431 . S
C981 C1001 1.449 . S
C982 C981 1.258 . S
C982 C983 1.477 . S
C982 H1002 0.931 . S
C983 C979 1.460 . S
C983 C982 1.477 . S
C983 H1003 0.930 . S
C984 N980 1.362 . S
C984 C981 1.431 . S
C984 C994 1.476 . S
H985 C979 0.929 . S
C986 O977 1.250 . S
C986 O978 1.258 . S
O987 Mn972 2.162 . S
O987 C975 1.281 . S
O988 Mn972 2.297 . S
O988 C975 1.236 . S
N989 Mn973 2.282 . S
N989 C990 1.328 . S
N989 C994 1.318 . S
C990 N989 1.328 . S
C990 C991 1.457 . S
C990 H995 0.929 . S
C991 C990 1.457 . S
C991 C992 1.291 . S
C991 H1004 0.931 . S
C992 C991 1.291 . S
C992 C993 1.373 . S
C992 H1005 0.929 . S
C993 C992 1.373 . S
C993 C994 1.396 . S
C993 C1000 1.403 . S
C994 C984 1.476 . S
C994 N989 1.318 . S
C994 C993 1.396 . S
H995 C990 0.929 . S
O996 Mn972 2.385 . S
O996 C974 1.234 . S
O997 Mn972 2.209 . S
O997 Mn973 2.215 . S
O997 C974 1.283 . S
O998 Mn972 2.094 . S
O998 C976 1.240 . S
O999 Mn973 2.117 . S
O999 C976 1.264 . S
C1000 C993 1.403 . S
C1000 C1001 1.399 . S
C1000 H1006 0.929 . S
C1001 C981 1.449 . S
C1001 C1000 1.399 . S
C1001 H1007 0.930 . S
H1002 C982 0.931 . S
H1003 C983 0.930 . S
H1004 C991 0.931 . S
H1005 C992 0.929 . S
H1006 C1000 0.929 . S
H1007 C1001 0.930 . S
Mn1008 O1013 2.095 . S
Mn1008 O1023 2.162 . S
Mn1008 O1024 2.297 . S
Mn1008 O1032 2.385 . S
Mn1008 O1033 2.209 . S
Mn1008 O1034 2.094 . S
Mn1009 O1014 2.121 . S
Mn1009 N1016 2.257 . S
Mn1009 N1025 2.282 . S
Mn1009 O1033 2.215 . S
Mn1009 O1035 2.117 . S
C1010 O1032 1.234 . S
C1010 O1033 1.283 . S
C1011 O1023 1.281 . S
C1011 O1024 1.236 . S
C1012 O1034 1.240 . S
C1012 O1035 1.264 . S
O1013 Mn1008 2.095 . S
O1013 C1022 1.250 . S
O1014 Mn1009 2.121 . S
O1014 C1022 1.258 . S
C1015 N1016 1.326 . S
C1015 C1019 1.460 . S
C1015 H1021 0.929 . S
N1016 Mn1009 2.257 . S
N1016 C1015 1.326 . S
N1016 C1020 1.362 . S
C1017 C1018 1.258 1_655 S
C1017 C1020 1.431 1_655 S
C1017 C1037 1.449 . S
C1018 C1017 1.258 1_455 S
C1018 C1019 1.477 . S
C1018 H1038 0.931 1_455 S
C1019 C1015 1.460 . S
C1019 C1018 1.477 . S
C1019 H1039 0.930 . S
C1020 N1016 1.362 . S
C1020 C1017 1.431 1_455 S
C1020 C1030 1.476 . S
H1021 C1015 0.929 . S
C1022 O1013 1.250 . S
C1022 O1014 1.258 . S
O1023 Mn1008 2.162 . S
O1023 C1011 1.281 . S
O1024 Mn1008 2.297 . S
O1024 C1011 1.236 . S
N1025 Mn1009 2.282 . S
N1025 C1026 1.328 . S
N1025 C1030 1.318 . S
C1026 N1025 1.328 . S
C1026 C1027 1.457 1_455 S
C1026 H1031 0.929 . S
C1027 C1026 1.457 1_655 S
C1027 C1028 1.291 . S
C1027 H1040 0.931 . S
C1028 C1027 1.291 . S
C1028 C1029 1.373 . S
C1028 H1041 0.929 . S
C1029 C1028 1.373 . S
C1029 C1030 1.396 1_655 S
C1029 C1036 1.403 . S
C1030 C1020 1.476 . S
C1030 N1025 1.318 . S
C1030 C1029 1.396 1_455 S
H1031 C1026 0.929 . S
O1032 Mn1008 2.385 . S
O1032 C1010 1.234 . S
O1033 Mn1008 2.209 . S
O1033 Mn1009 2.215 . S
O1033 C1010 1.283 . S
O1034 Mn1008 2.094 . S
O1034 C1012 1.240 . S
O1035 Mn1009 2.117 . S
O1035 C1012 1.264 . S
C1036 C1029 1.403 . S
C1036 C1037 1.399 . S
C1036 H1042 0.929 . S
C1037 C1017 1.449 . S
C1037 C1036 1.399 . S
C1037 H1043 0.930 . S
H1038 C1018 0.931 1_655 S
H1039 C1019 0.930 . S
H1040 C1027 0.931 . S
H1041 C1028 0.929 . S
H1042 C1036 0.929 . S
H1043 C1037 0.930 . S
Mn1044 O1049 2.095 . S
Mn1044 O1059 2.162 . S
Mn1044 O1060 2.297 . S
Mn1044 O1068 2.385 . S
Mn1044 O1069 2.209 . S
Mn1044 O1070 2.094 . S
Mn1045 O1050 2.121 . S
Mn1045 N1052 2.257 . S
Mn1045 N1061 2.282 . S
Mn1045 O1069 2.215 . S
Mn1045 O1071 2.117 . S
C1046 O1068 1.234 . S
C1046 O1069 1.283 . S
C1047 O1059 1.281 . S
C1047 O1060 1.236 . S
C1048 O1070 1.240 . S
C1048 O1071 1.264 . S
O1049 Mn1044 2.095 . S
O1049 C1058 1.250 . S
O1050 Mn1045 2.121 . S
O1050 C1058 1.258 . S
C1051 N1052 1.326 . S
C1051 C1055 1.460 . S
C1051 H1057 0.929 . S
N1052 Mn1045 2.257 . S
N1052 C1051 1.326 . S
N1052 C1056 1.362 . S
C1053 C1054 1.258 . S
C1053 C1056 1.431 . S
C1053 C1073 1.449 . S
C1054 C1053 1.258 . S
C1054 C1055 1.477 . S
C1054 H1074 0.931 . S
C1055 C1051 1.460 . S
C1055 C1054 1.477 . S
C1055 H1075 0.930 . S
C1056 N1052 1.362 . S
C1056 C1053 1.431 . S
C1056 C1066 1.476 . S
H1057 C1051 0.929 . S
C1058 O1049 1.250 . S
C1058 O1050 1.258 . S
O1059 Mn1044 2.162 . S
O1059 C1047 1.281 . S
O1060 Mn1044 2.297 . S
O1060 C1047 1.236 . S
N1061 Mn1045 2.282 . S
N1061 C1062 1.328 . S
N1061 C1066 1.318 . S
C1062 N1061 1.328 . S
C1062 C1063 1.457 . S
C1062 H1067 0.929 . S
C1063 C1062 1.457 . S
C1063 C1064 1.291 . S
C1063 H1076 0.931 . S
C1064 C1063 1.291 . S
C1064 C1065 1.373 . S
C1064 H1077 0.929 . S
C1065 C1064 1.373 . S
C1065 C1066 1.396 . S
C1065 C1072 1.403 . S
C1066 C1056 1.476 . S
C1066 N1061 1.318 . S
C1066 C1065 1.396 . S
H1067 C1062 0.929 . S
O1068 Mn1044 2.385 . S
O1068 C1046 1.234 . S
O1069 Mn1044 2.209 . S
O1069 Mn1045 2.215 . S
O1069 C1046 1.283 . S
O1070 Mn1044 2.094 . S
O1070 C1048 1.240 . S
O1071 Mn1045 2.117 . S
O1071 C1048 1.264 . S
C1072 C1065 1.403 . S
C1072 C1073 1.399 . S
C1072 H1078 0.929 . S
C1073 C1053 1.449 . S
C1073 C1072 1.399 . S
C1073 H1079 0.930 . S
H1074 C1054 0.931 . S
H1075 C1055 0.930 . S
H1076 C1063 0.931 . S
H1077 C1064 0.929 . S
H1078 C1072 0.929 . S
H1079 C1073 0.930 . S
Mn1080 O1085 2.095 . S
Mn1080 O1095 2.162 . S
Mn1080 O1096 2.297 . S
Mn1080 O1104 2.385 . S
Mn1080 O1105 2.209 . S
Mn1080 O1106 2.094 . S
Mn1081 O1086 2.121 . S
Mn1081 N1088 2.257 . S
Mn1081 N1097 2.282 . S
Mn1081 O1105 2.215 . S
Mn1081 O1107 2.117 . S
C1082 O1104 1.234 . S
C1082 O1105 1.283 . S
C1083 O1095 1.281 . S
C1083 O1096 1.236 . S
C1084 O1106 1.240 . S
C1084 O1107 1.264 . S
O1085 Mn1080 2.095 . S
O1085 C1094 1.250 . S
O1086 Mn1081 2.121 . S
O1086 C1094 1.258 . S
C1087 N1088 1.326 . S
C1087 C1091 1.460 . S
C1087 H1093 0.929 . S
N1088 Mn1081 2.257 . S
N1088 C1087 1.326 . S
N1088 C1092 1.362 . S
C1089 C1090 1.258 . S
C1089 C1092 1.431 . S
C1089 C1109 1.449 . S
C1090 C1089 1.258 . S
C1090 C1091 1.477 . S
C1090 H1110 0.931 . S
C1091 C1087 1.460 . S
C1091 C1090 1.477 . S
C1091 H1111 0.930 . S
C1092 N1088 1.362 . S
C1092 C1089 1.431 . S
C1092 C1102 1.476 . S
H1093 C1087 0.929 . S
C1094 O1085 1.250 . S
C1094 O1086 1.258 . S
O1095 Mn1080 2.162 . S
O1095 C1083 1.281 . S
O1096 Mn1080 2.297 . S
O1096 C1083 1.236 . S
N1097 Mn1081 2.282 . S
N1097 C1098 1.328 . S
N1097 C1102 1.318 . S
C1098 N1097 1.328 . S
C1098 C1099 1.457 . S
C1098 H1103 0.929 . S
C1099 C1098 1.457 . S
C1099 C1100 1.291 . S
C1099 H1112 0.931 . S
C1100 C1099 1.291 . S
C1100 C1101 1.373 . S
C1100 H1113 0.929 . S
C1101 C1100 1.373 . S
C1101 C1102 1.396 . S
C1101 C1108 1.403 . S
C1102 C1092 1.476 . S
C1102 N1097 1.318 . S
C1102 C1101 1.396 . S
H1103 C1098 0.929 . S
O1104 Mn1080 2.385 . S
O1104 C1082 1.234 . S
O1105 Mn1080 2.209 . S
O1105 Mn1081 2.215 . S
O1105 C1082 1.283 . S
O1106 Mn1080 2.094 . S
O1106 C1084 1.240 . S
O1107 Mn1081 2.117 . S
O1107 C1084 1.264 . S
C1108 C1101 1.403 . S
C1108 C1109 1.399 . S
C1108 H1114 0.929 . S
C1109 C1089 1.449 . S
C1109 C1108 1.399 . S
C1109 H1115 0.930 . S
H1110 C1090 0.931 . S
H1111 C1091 0.930 . S
H1112 C1099 0.931 . S
H1113 C1100 0.929 . S
H1114 C1108 0.929 . S
H1115 C1109 0.930 . S
Mn1116 O1121 2.095 . S
Mn1116 O1131 2.162 . S
Mn1116 O1132 2.297 . S
Mn1116 O1140 2.385 . S
Mn1116 O1141 2.209 . S
Mn1116 O1142 2.094 . S
Mn1117 O1122 2.121 . S
Mn1117 N1124 2.257 . S
Mn1117 N1133 2.282 . S
Mn1117 O1141 2.215 . S
Mn1117 O1143 2.117 . S
C1118 O1140 1.234 . S
C1118 O1141 1.283 . S
C1119 O1131 1.281 . S
C1119 O1132 1.236 . S
C1120 O1142 1.240 . S
C1120 O1143 1.264 . S
O1121 Mn1116 2.095 . S
O1121 C1130 1.250 . S
O1122 Mn1117 2.121 . S
O1122 C1130 1.258 . S
C1123 N1124 1.326 . S
C1123 C1127 1.460 . S
C1123 H1129 0.929 . S
N1124 Mn1117 2.257 . S
N1124 C1123 1.326 . S
N1124 C1128 1.362 . S
C1125 C1126 1.258 . S
C1125 C1128 1.431 . S
C1125 C1145 1.449 . S
C1126 C1125 1.258 . S
C1126 C1127 1.477 . S
C1126 H1146 0.931 . S
C1127 C1123 1.460 . S
C1127 C1126 1.477 . S
C1127 H1147 0.930 . S
C1128 N1124 1.362 . S
C1128 C1125 1.431 . S
C1128 C1138 1.476 . S
H1129 C1123 0.929 . S
C1130 O1121 1.250 . S
C1130 O1122 1.258 . S
O1131 Mn1116 2.162 . S
O1131 C1119 1.281 . S
O1132 Mn1116 2.297 . S
O1132 C1119 1.236 . S
N1133 Mn1117 2.282 . S
N1133 C1134 1.328 . S
N1133 C1138 1.318 . S
C1134 N1133 1.328 . S
C1134 C1135 1.457 . S
C1134 H1139 0.929 . S
C1135 C1134 1.457 . S
C1135 C1136 1.291 . S
C1135 H1148 0.931 . S
C1136 C1135 1.291 . S
C1136 C1137 1.373 . S
C1136 H1149 0.929 . S
C1137 C1136 1.373 . S
C1137 C1138 1.396 . S
C1137 C1144 1.403 . S
C1138 C1128 1.476 . S
C1138 N1133 1.318 . S
C1138 C1137 1.396 . S
H1139 C1134 0.929 . S
O1140 Mn1116 2.385 . S
O1140 C1118 1.234 . S
O1141 Mn1116 2.209 . S
O1141 Mn1117 2.215 . S
O1141 C1118 1.283 . S
O1142 Mn1116 2.094 . S
O1142 C1120 1.240 . S
O1143 Mn1117 2.117 . S
O1143 C1120 1.264 . S
C1144 C1137 1.403 . S
C1144 C1145 1.399 . S
C1144 H1150 0.929 . S
C1145 C1125 1.449 . S
C1145 C1144 1.399 . S
C1145 H1151 0.930 . S
H1146 C1126 0.931 . S
H1147 C1127 0.930 . S
H1148 C1135 0.931 . S
H1149 C1136 0.929 . S
H1150 C1144 0.929 . S
H1151 C1145 0.930 . S
H1152 C1158 0.930 . S
H1153 C1162 0.930 . S
H1154 C1167 0.929 . S
H1155 C1165 0.929 . S
H1156 C1160 0.929 . S
H1157 C1166 0.929 . S
C1158 H1152 0.930 . S
C1158 C1159 1.367 . S
C1158 C1166 1.378 . S
C1159 C1158 1.367 . S
C1159 C1167 1.433 1_565 S
C1160 H1156 0.929 . S
C1160 C1162 1.378 . S
C1160 C1164 1.350 . S
C1161 C1164 1.463 1_565 S
C1161 C1166 1.350 . S
C1161 N1169 1.427 1_565 S
C1162 H1153 0.930 . S
C1162 C1160 1.378 . S
C1162 C1163 1.367 . S
C1163 C1162 1.367 . S
C1163 C1165 1.433 1_545 S
C1164 C1160 1.350 . S
C1164 C1161 1.463 1_545 S
C1164 N1168 1.427 1_545 S
C1165 H1155 0.929 . S
C1165 C1163 1.433 1_565 S
C1165 N1168 1.384 . S
C1166 H1157 0.929 . S
C1166 C1158 1.378 . S
C1166 C1161 1.350 . S
C1167 H1154 0.929 . S
C1167 C1159 1.433 1_545 S
C1167 N1169 1.384 . S
N1168 C1164 1.427 1_565 S
N1168 C1165 1.384 . S
N1169 C1161 1.427 1_545 S
N1169 C1167 1.384 . S
H1170 C1176 0.930 . S
H1171 C1180 0.930 . S
H1172 C1185 0.929 . S
H1173 C1183 0.929 . S
H1174 C1178 0.929 . S
H1175 C1184 0.929 . S
C1176 H1170 0.930 . S
C1176 C1177 1.367 . S
C1176 C1184 1.378 . S
C1177 C1176 1.367 . S
C1177 C1185 1.433 . S
C1178 H1174 0.929 . S
C1178 C1180 1.378 . S
C1178 C1182 1.350 . S
C1179 C1182 1.463 . S
C1179 C1184 1.350 . S
C1179 N1187 1.427 . S
C1180 H1171 0.930 . S
C1180 C1178 1.378 . S
C1180 C1181 1.367 . S
C1181 C1180 1.367 . S
C1181 C1183 1.433 . S
C1182 C1178 1.350 . S
C1182 C1179 1.463 . S
C1182 N1186 1.427 . S
C1183 H1173 0.929 . S
C1183 C1181 1.433 . S
C1183 N1186 1.384 . S
C1184 H1175 0.929 . S
C1184 C1176 1.378 . S
C1184 C1179 1.350 . S
C1185 H1172 0.929 . S
C1185 C1177 1.433 . S
C1185 N1187 1.384 . S
N1186 C1182 1.427 . S
N1186 C1183 1.384 . S
N1187 C1179 1.427 . S
N1187 C1185 1.384 . S
H1188 C1194 0.930 . S
H1189 C1198 0.930 . S
H1190 C1203 0.929 . S
H1191 C1201 0.929 . S
H1192 C1196 0.929 . S
H1193 C1202 0.929 . S
C1194 H1188 0.930 . S
C1194 C1195 1.367 1_565 S
C1194 C1202 1.378 . S
C1195 C1194 1.367 1_545 S
C1195 C1203 1.433 . S
C1196 H1192 0.929 . S
C1196 C1198 1.378 . S
C1196 C1200 1.350 1_545 S
C1197 C1200 1.463 1_545 S
C1197 C1202 1.350 1_545 S
C1197 N1205 1.427 . S
C1198 H1189 0.930 . S
C1198 C1196 1.378 . S
C1198 C1199 1.367 1_545 S
C1199 C1198 1.367 1_565 S
C1199 C1201 1.433 . S
C1200 C1196 1.350 1_565 S
C1200 C1197 1.463 1_565 S
C1200 N1204 1.427 . S
C1201 H1191 0.929 . S
C1201 C1199 1.433 . S
C1201 N1204 1.384 . S
C1202 H1193 0.929 . S
C1202 C1194 1.378 . S
C1202 C1197 1.350 1_565 S
C1203 H1190 0.929 . S
C1203 C1195 1.433 . S
C1203 N1205 1.384 . S
N1204 C1200 1.427 . S
N1204 C1201 1.384 . S
N1205 C1197 1.427 . S
N1205 C1203 1.384 . S
H1206 C1212 0.930 . S
H1207 C1216 0.930 . S
H1208 C1221 0.929 . S
H1209 C1219 0.929 . S
H1210 C1214 0.929 . S
H1211 C1220 0.929 . S
C1212 H1206 0.930 . S
C1212 C1213 1.367 . S
C1212 C1220 1.378 . S
C1213 C1212 1.367 . S
C1213 C1221 1.433 . S
C1214 H1210 0.929 . S
C1214 C1216 1.378 . S
C1214 C1218 1.350 . S
C1215 C1218 1.463 1_556 S
C1215 C1220 1.350 . S
C1215 N1223 1.427 . S
C1216 H1207 0.930 . S
C1216 C1214 1.378 . S
C1216 C1217 1.367 . S
C1217 C1216 1.367 . S
C1217 C1219 1.433 . S
C1218 C1214 1.350 . S
C1218 C1215 1.463 1_554 S
C1218 N1222 1.427 . S
C1219 H1209 0.929 . S
C1219 C1217 1.433 . S
C1219 N1222 1.384 . S
C1220 H1211 0.929 . S
C1220 C1212 1.378 . S
C1220 C1215 1.350 . S
C1221 H1208 0.929 . S
C1221 C1213 1.433 . S
C1221 N1223 1.384 . S
N1222 C1218 1.427 . S
N1222 C1219 1.384 . S
N1223 C1215 1.427 . S
N1223 C1221 1.384 . S
H1224 C1230 0.930 . S
H1225 C1234 0.930 . S
H1226 C1239 0.931 . S
H1227 C1237 0.931 . S
H1228 C1232 0.929 . S
H1229 C1238 0.929 . S
C1230 H1224 0.930 . S
C1230 C1231 1.367 . S
C1230 C1238 1.378 . S
C1231 C1230 1.367 . S
C1231 C1239 1.430 1_565 S
C1232 H1228 0.929 . S
C1232 C1234 1.378 . S
C1232 C1236 1.350 . S
C1233 C1236 1.463 1_565 S
C1233 C1238 1.350 . S
C1233 N1241 1.427 1_565 S
C1234 H1225 0.930 . S
C1234 C1232 1.378 . S
C1234 C1235 1.367 . S
C1235 C1234 1.367 . S
C1235 C1237 1.430 1_545 S
C1236 C1232 1.350 . S
C1236 C1233 1.463 1_545 S
C1236 N1240 1.427 1_545 S
C1237 H1227 0.931 . S
C1237 C1235 1.430 1_565 S
C1237 N1240 1.385 . S
C1238 H1229 0.929 . S
C1238 C1230 1.378 . S
C1238 C1233 1.350 . S
C1239 H1226 0.931 . S
C1239 C1231 1.430 1_545 S
C1239 N1241 1.385 . S
N1240 C1236 1.427 1_565 S
N1240 C1237 1.385 . S
N1241 C1233 1.427 1_545 S
N1241 C1239 1.385 . S
H1242 C1248 0.930 . S
H1243 C1252 0.930 . S
H1244 C1257 0.929 . S
H1245 C1255 0.929 . S
H1246 C1250 0.929 . S
H1247 C1256 0.929 . S
C1248 H1242 0.930 . S
C1248 C1249 1.367 . S
C1248 C1256 1.378 . S
C1249 C1248 1.367 . S
C1249 C1257 1.433 . S
C1250 H1246 0.929 . S
C1250 C1252 1.378 . S
C1250 C1254 1.350 . S
C1251 C1254 1.463 . S
C1251 C1256 1.350 . S
C1251 N1259 1.427 . S
C1252 H1243 0.930 . S
C1252 C1250 1.378 . S
C1252 C1253 1.367 . S
C1253 C1252 1.367 . S
C1253 C1255 1.433 . S
C1254 C1250 1.350 . S
C1254 C1251 1.463 . S
C1254 N1258 1.427 . S
C1255 H1245 0.929 . S
C1255 C1253 1.433 . S
C1255 N1258 1.384 . S
C1256 H1247 0.929 . S
C1256 C1248 1.378 . S
C1256 C1251 1.350 . S
C1257 H1244 0.929 . S
C1257 C1249 1.433 . S
C1257 N1259 1.384 . S
N1258 C1254 1.427 . S
N1258 C1255 1.384 . S
N1259 C1251 1.427 . S
N1259 C1257 1.384 . S
H1260 C1266 0.930 . S
H1261 C1270 0.930 . S
H1262 C1275 0.929 . S
H1263 C1273 0.929 . S
H1264 C1268 0.929 . S
H1265 C1274 0.929 . S
C1266 H1260 0.930 . S
C1266 C1267 1.367 1_565 S
C1266 C1274 1.378 . S
C1267 C1266 1.367 1_545 S
C1267 C1275 1.433 . S
C1268 H1264 0.929 . S
C1268 C1270 1.378 . S
C1268 C1272 1.350 1_545 S
C1269 C1272 1.463 1_545 S
C1269 C1274 1.350 1_545 S
C1269 N1277 1.427 . S
C1270 H1261 0.930 . S
C1270 C1268 1.378 . S
C1270 C1271 1.367 1_545 S
C1271 C1270 1.367 1_565 S
C1271 C1273 1.433 . S
C1272 C1268 1.350 1_565 S
C1272 C1269 1.463 1_565 S
C1272 N1276 1.427 . S
C1273 H1263 0.929 . S
C1273 C1271 1.433 . S
C1273 N1276 1.384 . S
C1274 H1265 0.929 . S
C1274 C1266 1.378 . S
C1274 C1269 1.350 1_565 S
C1275 H1262 0.929 . S
C1275 C1267 1.433 . S
C1275 N1277 1.384 . S
N1276 C1272 1.427 . S
N1276 C1273 1.384 . S
N1277 C1269 1.427 . S
N1277 C1275 1.384 . S
H1278 C1284 0.930 . S
H1279 C1288 0.930 . S
H1280 C1293 0.929 . S
H1281 C1291 0.929 . S
H1282 C1286 0.929 . S
H1283 C1292 0.929 . S
C1284 H1278 0.930 . S
C1284 C1285 1.367 . S
C1284 C1292 1.378 . S
C1285 C1284 1.367 . S
C1285 C1293 1.433 . S
C1286 H1282 0.929 . S
C1286 C1288 1.378 . S
C1286 C1290 1.350 . S
C1287 C1290 1.463 1_556 S
C1287 C1292 1.350 . S
C1287 N1295 1.427 . S
C1288 H1279 0.930 . S
C1288 C1286 1.378 . S
C1288 C1289 1.367 . S
C1289 C1288 1.367 . S
C1289 C1291 1.433 . S
C1290 C1286 1.350 . S
C1290 C1287 1.463 1_554 S
C1290 N1294 1.427 . S
C1291 H1281 0.929 . S
C1291 C1289 1.433 . S
C1291 N1294 1.384 . S
C1292 H1283 0.929 . S
C1292 C1284 1.378 . S
C1292 C1287 1.350 . S
C1293 H1280 0.929 . S
C1293 C1285 1.433 . S
C1293 N1295 1.384 . S
N1294 C1290 1.427 . S
N1294 C1291 1.384 . S
N1295 C1287 1.427 . S
N1295 C1293 1.384 . S
H1296 C1302 0.930 . S
H1297 C1306 0.930 . S
H1298 C1311 0.929 . S
H1299 C1309 0.929 . S
H1300 C1304 0.929 . S
H1301 C1310 0.929 . S
C1302 H1296 0.930 . S
C1302 C1303 1.367 . S
C1302 C1310 1.378 . S
C1303 C1302 1.367 . S
C1303 C1311 1.433 . S
C1304 H1300 0.929 . S
C1304 C1306 1.378 . S
C1304 C1308 1.350 . S
C1305 C1308 1.463 . S
C1305 C1310 1.350 . S
C1305 N1313 1.427 . S
C1306 H1297 0.930 . S
C1306 C1304 1.378 . S
C1306 C1307 1.367 . S
C1307 C1306 1.367 . S
C1307 C1309 1.433 . S
C1308 C1304 1.350 . S
C1308 C1305 1.463 . S
C1308 N1312 1.427 . S
C1309 H1299 0.929 . S
C1309 C1307 1.433 . S
C1309 N1312 1.384 . S
C1310 H1301 0.929 . S
C1310 C1302 1.378 . S
C1310 C1305 1.350 . S
C1311 H1298 0.929 . S
C1311 C1303 1.433 . S
C1311 N1313 1.384 . S
N1312 C1308 1.427 . S
N1312 C1309 1.384 . S
N1313 C1305 1.427 . S
N1313 C1311 1.384 . S
H1314 C1320 0.930 . S
H1315 C1324 0.930 . S
H1316 C1329 0.929 . S
H1317 C1327 0.929 . S
H1318 C1322 0.929 . S
H1319 C1328 0.929 . S
C1320 H1314 0.930 . S
C1320 C1321 1.367 . S
C1320 C1328 1.378 . S
C1321 C1320 1.367 . S
C1321 C1329 1.433 . S
C1322 H1318 0.929 . S
C1322 C1324 1.378 . S
C1322 C1326 1.350 . S
C1323 C1326 1.463 1_554 S
C1323 C1328 1.350 . S
C1323 N1331 1.427 . S
C1324 H1315 0.930 . S
C1324 C1322 1.378 . S
C1324 C1325 1.367 . S
C1325 C1324 1.367 . S
C1325 C1327 1.433 . S
C1326 C1322 1.350 . S
C1326 C1323 1.463 1_556 S
C1326 N1330 1.427 . S
C1327 H1317 0.929 . S
C1327 C1325 1.433 . S
C1327 N1330 1.384 . S
C1328 H1319 0.929 . S
C1328 C1320 1.378 . S
C1328 C1323 1.350 . S
C1329 H1316 0.929 . S
C1329 C1321 1.433 . S
C1329 N1331 1.384 . S
N1330 C1326 1.427 . S
N1330 C1327 1.384 . S
N1331 C1323 1.427 . S
N1331 C1329 1.384 . S
H1332 C1338 0.930 . S
H1333 C1342 0.930 . S
H1334 C1347 0.929 . S
H1335 C1345 0.929 . S
H1336 C1340 0.929 . S
H1337 C1346 0.929 . S
C1338 H1332 0.930 . S
C1338 C1339 1.367 . S
C1338 C1346 1.378 . S
C1339 C1338 1.367 . S
C1339 C1347 1.433 . S
C1340 H1336 0.929 . S
C1340 C1342 1.378 . S
C1340 C1344 1.350 . S
C1341 C1344 1.463 . S
C1341 C1346 1.350 . S
C1341 N1349 1.427 . S
C1342 H1333 0.930 . S
C1342 C1340 1.378 . S
C1342 C1343 1.367 . S
C1343 C1342 1.367 . S
C1343 C1345 1.433 . S
C1344 C1340 1.350 . S
C1344 C1341 1.463 . S
C1344 N1348 1.427 . S
C1345 H1335 0.929 . S
C1345 C1343 1.433 . S
C1345 N1348 1.384 . S
C1346 H1337 0.929 . S
C1346 C1338 1.378 . S
C1346 C1341 1.350 . S
C1347 H1334 0.929 . S
C1347 C1339 1.433 . S
C1347 N1349 1.384 . S
N1348 C1344 1.427 . S
N1348 C1345 1.384 . S
N1349 C1341 1.427 . S
N1349 C1347 1.384 . S
H1350 C1356 0.930 . S
H1351 C1360 0.930 . S
H1352 C1365 0.929 . S
H1353 C1363 0.929 . S
H1354 C1358 0.929 . S
H1355 C1364 0.929 . S
C1356 H1350 0.930 . S
C1356 C1357 1.367 . S
C1356 C1364 1.378 . S
C1357 C1356 1.367 . S
C1357 C1365 1.433 . S
C1358 H1354 0.929 . S
C1358 C1360 1.378 . S
C1358 C1362 1.350 . S
C1359 C1362 1.463 . S
C1359 C1364 1.350 . S
C1359 N1367 1.427 . S
C1360 H1351 0.930 . S
C1360 C1358 1.378 . S
C1360 C1361 1.367 . S
C1361 C1360 1.367 . S
C1361 C1363 1.433 . S
C1362 C1358 1.350 . S
C1362 C1359 1.463 . S
C1362 N1366 1.427 . S
C1363 H1353 0.929 . S
C1363 C1361 1.433 . S
C1363 N1366 1.384 . S
C1364 H1355 0.929 . S
C1364 C1356 1.378 . S
C1364 C1359 1.350 . S
C1365 H1352 0.929 . S
C1365 C1357 1.433 . S
C1365 N1367 1.384 . S
N1366 C1362 1.427 . S
N1366 C1363 1.384 . S
N1367 C1359 1.427 . S
N1367 C1365 1.384 . S
H1368 C1374 0.930 . S
H1369 C1378 0.930 . S
H1370 C1383 0.929 . S
H1371 C1381 0.929 . S
H1372 C1376 0.929 . S
H1373 C1382 0.929 . S
C1374 H1368 0.930 . S
C1374 C1375 1.367 . S
C1374 C1382 1.378 . S
C1375 C1374 1.367 . S
C1375 C1383 1.433 . S
C1376 H1372 0.929 . S
C1376 C1378 1.378 . S
C1376 C1380 1.350 . S
C1377 C1380 1.463 . S
C1377 C1382 1.350 . S
C1377 N1385 1.427 . S
C1378 H1369 0.930 . S
C1378 C1376 1.378 . S
C1378 C1379 1.367 . S
C1379 C1378 1.367 . S
C1379 C1381 1.433 . S
C1380 C1376 1.350 . S
C1380 C1377 1.463 . S
C1380 N1384 1.427 . S
C1381 H1371 0.929 . S
C1381 C1379 1.433 . S
C1381 N1384 1.384 . S
C1382 H1373 0.929 . S
C1382 C1374 1.378 . S
C1382 C1377 1.350 . S
C1383 H1370 0.929 . S
C1383 C1375 1.433 . S
C1383 N1385 1.384 . S
N1384 C1380 1.427 . S
N1384 C1381 1.384 . S
N1385 C1377 1.427 . S
N1385 C1383 1.384 . S
H1386 C1392 0.930 . S
H1387 C1396 0.930 . S
H1388 C1401 0.929 . S
H1389 C1399 0.929 . S
H1390 C1394 0.929 . S
H1391 C1400 0.929 . S
C1392 H1386 0.930 . S
C1392 C1393 1.367 . S
C1392 C1400 1.378 . S
C1393 C1392 1.367 . S
C1393 C1401 1.433 . S
C1394 H1390 0.929 . S
C1394 C1396 1.378 . S
C1394 C1398 1.350 . S
C1395 C1398 1.463 1_554 S
C1395 C1400 1.350 . S
C1395 N1403 1.427 . S
C1396 H1387 0.930 . S
C1396 C1394 1.378 . S
C1396 C1397 1.367 . S
C1397 C1396 1.367 . S
C1397 C1399 1.433 . S
C1398 C1394 1.350 . S
C1398 C1395 1.463 1_556 S
C1398 N1402 1.427 . S
C1399 H1389 0.929 . S
C1399 C1397 1.433 . S
C1399 N1402 1.384 . S
C1400 H1391 0.929 . S
C1400 C1392 1.378 . S
C1400 C1395 1.350 . S
C1401 H1388 0.929 . S
C1401 C1393 1.433 . S
C1401 N1403 1.384 . S
N1402 C1398 1.427 . S
N1402 C1399 1.384 . S
N1403 C1395 1.427 . S
N1403 C1401 1.384 . S
H1404 C1410 0.930 . S
H1405 C1414 0.930 . S
H1406 C1419 0.929 . S
H1407 C1417 0.929 . S
H1408 C1412 0.929 . S
H1409 C1418 0.929 . S
C1410 H1404 0.930 . S
C1410 C1411 1.367 . S
C1410 C1418 1.378 . S
C1411 C1410 1.367 . S
C1411 C1419 1.433 . S
C1412 H1408 0.929 . S
C1412 C1414 1.378 . S
C1412 C1416 1.350 . S
C1413 C1416 1.463 . S
C1413 C1418 1.350 . S
C1413 N1421 1.427 . S
C1414 H1405 0.930 . S
C1414 C1412 1.378 . S
C1414 C1415 1.367 . S
C1415 C1414 1.367 . S
C1415 C1417 1.433 . S
C1416 C1412 1.350 . S
C1416 C1413 1.463 . S
C1416 N1420 1.427 . S
C1417 H1407 0.929 . S
C1417 C1415 1.433 . S
C1417 N1420 1.384 . S
C1418 H1409 0.929 . S
C1418 C1410 1.378 . S
C1418 C1413 1.350 . S
C1419 H1406 0.929 . S
C1419 C1411 1.433 . S
C1419 N1421 1.384 . S
N1420 C1416 1.427 . S
N1420 C1417 1.384 . S
N1421 C1413 1.427 . S
N1421 C1419 1.384 . S
H1422 C1428 0.930 . S
H1423 C1432 0.930 . S
H1424 C1437 0.929 . S
H1425 C1435 0.929 . S
H1426 C1430 0.929 . S
H1427 C1436 0.929 . S
C1428 H1422 0.930 . S
C1428 C1429 1.367 . S
C1428 C1436 1.378 . S
C1429 C1428 1.367 . S
C1429 C1437 1.433 . S
C1430 H1426 0.929 . S
C1430 C1432 1.378 . S
C1430 C1434 1.350 . S
C1431 C1434 1.463 . S
C1431 C1436 1.350 . S
C1431 N1439 1.427 . S
C1432 H1423 0.930 . S
C1432 C1430 1.378 . S
C1432 C1433 1.367 . S
C1433 C1432 1.367 . S
C1433 C1435 1.433 . S
C1434 C1430 1.350 . S
C1434 C1431 1.463 . S
C1434 N1438 1.427 . S
C1435 H1425 0.929 . S
C1435 C1433 1.433 . S
C1435 N1438 1.384 . S
C1436 H1427 0.929 . S
C1436 C1428 1.378 . S
C1436 C1431 1.350 . S
C1437 H1424 0.929 . S
C1437 C1429 1.433 . S
C1437 N1439 1.384 . S
N1438 C1434 1.427 . S
N1438 C1435 1.384 . S
N1439 C1431 1.427 . S
N1439 C1437 1.384 . S
H1440 C1446 0.930 . S
H1441 C1450 0.930 . S
H1442 C1455 0.929 . S
H1443 C1453 0.929 . S
H1444 C1448 0.929 . S
H1445 C1454 0.929 . S
C1446 H1440 0.930 . S
C1446 C1447 1.335 1_565 S
C1446 C1454 1.378 . S
C1447 C1446 1.335 1_545 S
C1447 C1455 1.442 . S
C1448 H1444 0.929 . S
C1448 C1450 1.378 . S
C1448 C1452 1.350 . S
C1449 C1452 1.463 . S
C1449 C1454 1.350 . S
C1449 N1457 1.427 . S
C1450 H1441 0.930 . S
C1450 C1448 1.378 . S
C1450 C1451 1.367 . S
C1451 C1450 1.367 . S
C1451 C1453 1.433 . S
C1452 C1448 1.350 . S
C1452 C1449 1.463 . S
C1452 N1456 1.427 . S
C1453 H1443 0.929 . S
C1453 C1451 1.433 . S
C1453 N1456 1.384 . S
C1454 H1445 0.929 . S
C1454 C1446 1.378 . S
C1454 C1449 1.350 . S
C1455 H1442 0.929 . S
C1455 C1447 1.442 . S
C1455 N1457 1.384 1_545 S
N1456 C1452 1.427 . S
N1456 C1453 1.384 . S
N1457 C1449 1.427 . S
N1457 C1455 1.384 1_565 S
H1458 C1464 0.930 . S
H1459 C1468 0.930 . S
H1460 C1473 0.929 . S
H1461 C1471 0.929 . S
H1462 C1466 0.929 . S
H1463 C1472 0.929 . S
C1464 H1458 0.930 . S
C1464 C1465 1.367 . S
C1464 C1472 1.378 . S
C1465 C1464 1.367 . S
C1465 C1473 1.433 . S
C1466 H1462 0.929 . S
C1466 C1468 1.378 1_545 S
C1466 C1470 1.350 . S
C1467 C1470 1.463 . S
C1467 C1472 1.350 . S
C1467 N1475 1.427 . S
C1468 H1459 0.930 . S
C1468 C1466 1.378 1_565 S
C1468 C1469 1.367 . S
C1469 C1468 1.367 . S
C1469 C1471 1.433 1_565 S
C1470 C1466 1.350 . S
C1470 C1467 1.463 . S
C1470 N1474 1.427 . S
C1471 H1461 0.929 . S
C1471 C1469 1.433 1_545 S
C1471 N1474 1.384 . S
C1472 H1463 0.929 . S
C1472 C1464 1.378 . S
C1472 C1467 1.350 . S
C1473 H1460 0.929 . S
C1473 C1465 1.433 . S
C1473 N1475 1.384 . S
N1474 C1470 1.427 . S
N1474 C1471 1.384 . S
N1475 C1467 1.427 . S
N1475 C1473 1.384 . S
H1476 C1482 0.930 . S
H1477 C1486 0.930 . S
H1478 C1491 0.929 . S
H1479 C1489 0.929 . S
H1480 C1484 0.929 . S
H1481 C1490 0.929 . S
C1482 H1476 0.930 . S
C1482 C1483 1.335 1_545 S
C1482 C1490 1.378 . S
C1483 C1482 1.335 1_565 S
C1483 C1491 1.443 . S
C1484 H1480 0.929 . S
C1484 C1486 1.378 . S
C1484 C1488 1.350 . S
C1485 C1488 1.463 . S
C1485 C1490 1.350 . S
C1485 N1493 1.427 . S
C1486 H1477 0.930 . S
C1486 C1484 1.378 . S
C1486 C1487 1.367 . S
C1487 C1486 1.367 . S
C1487 C1489 1.433 . S
C1488 C1484 1.350 . S
C1488 C1485 1.463 . S
C1488 N1492 1.427 . S
C1489 H1479 0.929 . S
C1489 C1487 1.433 . S
C1489 N1492 1.384 . S
C1490 H1481 0.929 . S
C1490 C1482 1.378 . S
C1490 C1485 1.350 . S
C1491 H1478 0.929 . S
C1491 C1483 1.443 . S
C1491 N1493 1.384 1_565 S
N1492 C1488 1.427 . S
N1492 C1489 1.384 . S
N1493 C1485 1.427 . S
N1493 C1491 1.384 1_545 S
H1494 C1500 0.930 . S
H1495 C1504 0.930 . S
H1496 C1509 0.929 . S
H1497 C1507 0.929 . S
H1498 C1502 0.929 . S
H1499 C1508 0.929 . S
C1500 H1494 0.930 . S
C1500 C1501 1.367 . S
C1500 C1508 1.378 1_545 S
C1501 C1500 1.367 . S
C1501 C1509 1.433 1_545 S
C1502 H1498 0.929 . S
C1502 C1504 1.378 . S
C1502 C1506 1.350 . S
C1503 C1506 1.463 . S
C1503 C1508 1.350 . S
C1503 N1511 1.427 . S
C1504 H1495 0.930 . S
C1504 C1502 1.378 . S
C1504 C1505 1.367 . S
C1505 C1504 1.367 . S
C1505 C1507 1.433 . S
C1506 C1502 1.350 . S
C1506 C1503 1.463 . S
C1506 N1510 1.427 . S
C1507 H1497 0.929 . S
C1507 C1505 1.433 . S
C1507 N1510 1.384 . S
C1508 H1499 0.929 . S
C1508 C1500 1.378 1_565 S
C1508 C1503 1.350 . S
C1509 H1496 0.929 . S
C1509 C1501 1.433 1_565 S
C1509 N1511 1.384 . S
N1510 C1506 1.427 . S
N1510 C1507 1.384 . S
N1511 C1503 1.427 . S
N1511 C1509 1.384 . S
H1512 C1518 0.930 . S
H1513 C1522 0.930 . S
H1514 C1527 0.929 . S
H1515 C1525 0.929 . S
H1516 C1520 0.929 . S
H1517 C1526 0.929 . S
C1518 H1512 0.930 . S
C1518 C1519 1.367 . S
C1518 C1526 1.378 . S
C1519 C1518 1.367 . S
C1519 C1527 1.433 . S
C1520 H1516 0.929 . S
C1520 C1522 1.378 . S
C1520 C1524 1.350 . S
C1521 C1524 1.463 . S
C1521 C1526 1.350 . S
C1521 N1529 1.427 . S
C1522 H1513 0.930 . S
C1522 C1520 1.378 . S
C1522 C1523 1.335 1_545 S
C1523 C1522 1.335 1_565 S
C1523 C1525 1.443 . S
C1524 C1520 1.350 . S
C1524 C1521 1.463 . S
C1524 N1528 1.427 . S
C1525 H1515 0.929 . S
C1525 C1523 1.443 . S
C1525 N1528 1.384 1_565 S
C1526 H1517 0.929 . S
C1526 C1518 1.378 . S
C1526 C1521 1.350 . S
C1527 H1514 0.929 . S
C1527 C1519 1.433 . S
C1527 N1529 1.384 . S
N1528 C1524 1.427 . S
N1528 C1525 1.384 1_545 S
N1529 C1521 1.427 . S
N1529 C1527 1.384 . S
H1530 C1536 0.930 1_545 S
H1531 C1540 0.930 . S
H1532 C1545 0.929 . S
H1533 C1543 0.929 . S
H1534 C1538 0.929 . S
H1535 C1544 0.929 . S
C1536 H1530 0.930 1_565 S
C1536 C1537 1.367 1_565 S
C1536 C1544 1.378 . S
C1537 C1536 1.367 1_545 S
C1537 C1545 1.433 1_545 S
C1538 H1534 0.929 . S
C1538 C1540 1.378 . S
C1538 C1542 1.350 . S
C1539 C1542 1.463 . S
C1539 C1544 1.350 . S
C1539 N1547 1.427 . S
C1540 H1531 0.930 . S
C1540 C1538 1.378 . S
C1540 C1541 1.367 . S
C1541 C1540 1.367 . S
C1541 C1543 1.433 . S
C1542 C1538 1.350 . S
C1542 C1539 1.463 . S
C1542 N1546 1.427 . S
C1543 H1533 0.929 . S
C1543 C1541 1.433 . S
C1543 N1546 1.384 . S
C1544 H1535 0.929 . S
C1544 C1536 1.378 . S
C1544 C1539 1.350 . S
C1545 H1532 0.929 . S
C1545 C1537 1.433 1_565 S
C1545 N1547 1.384 . S
N1546 C1542 1.427 . S
N1546 C1543 1.384 . S
N1547 C1539 1.427 . S
N1547 C1545 1.384 . S
H1548 C1554 0.930 . S
H1549 C1558 0.912 1_545 S
H1550 C1563 0.929 . S
H1551 C1561 0.929 . S
H1552 C1556 0.929 . S
H1553 C1562 0.929 . S
C1554 H1548 0.930 . S
C1554 C1555 1.367 . S
C1554 C1562 1.378 . S
C1555 C1554 1.367 . S
C1555 C1563 1.433 . S
C1556 H1552 0.929 . S
C1556 C1558 1.399 . S
C1556 C1560 1.350 . S
C1557 C1560 1.463 . S
C1557 C1562 1.350 . S
C1557 N1565 1.427 . S
C1558 H1549 0.912 1_565 S
C1558 C1556 1.399 . S
C1558 C1559 1.365 1_565 S
C1559 C1558 1.365 1_545 S
C1559 C1561 1.433 1_545 S
C1560 C1556 1.350 . S
C1560 C1557 1.463 . S
C1560 N1564 1.427 . S
C1561 H1551 0.929 . S
C1561 C1559 1.433 1_565 S
C1561 N1564 1.384 . S
C1562 H1553 0.929 . S
C1562 C1554 1.378 . S
C1562 C1557 1.350 . S
C1563 H1550 0.929 . S
C1563 C1555 1.433 . S
C1563 N1565 1.384 . S
N1564 C1560 1.427 . S
N1564 C1561 1.384 . S
N1565 C1557 1.427 . S
N1565 C1563 1.384 . S
H1566 C1572 0.930 . S
H1567 C1576 0.930 . S
H1568 C1581 0.929 . S
H1569 C1579 0.929 1_565 S
H1570 C1574 0.929 . S
H1571 C1580 0.929 . S
C1572 H1566 0.930 . S
C1572 C1573 1.367 . S
C1572 C1580 1.378 . S
C1573 C1572 1.367 . S
C1573 C1581 1.433 . S
C1574 H1570 0.929 . S
C1574 C1576 1.378 . S
C1574 C1578 1.350 . S
C1575 C1578 1.463 . S
C1575 C1580 1.350 . S
C1575 N1583 1.427 . S
C1576 H1567 0.930 . S
C1576 C1574 1.378 . S
C1576 C1577 1.367 1_545 S
C1577 C1576 1.367 1_565 S
C1577 C1579 1.433 1_565 S
C1578 C1574 1.350 . S
C1578 C1575 1.463 . S
C1578 N1582 1.427 . S
C1579 H1569 0.929 1_545 S
C1579 C1577 1.433 1_545 S
C1579 N1582 1.384 . S
C1580 H1571 0.929 . S
C1580 C1572 1.378 . S
C1580 C1575 1.350 . S
C1581 H1568 0.929 . S
C1581 C1573 1.433 . S
C1581 N1583 1.384 . S
N1582 C1578 1.427 . S
N1582 C1579 1.384 . S
N1583 C1575 1.427 . S
N1583 C1581 1.384 . S
H1584 C1590 0.930 . S
H1585 C1594 0.930 . S
H1586 C1599 0.929 . S
H1587 C1597 0.929 . S
H1588 C1592 0.929 . S
H1589 C1598 0.929 . S
C1590 H1584 0.930 . S
C1590 C1591 1.367 . S
C1590 C1598 1.378 . S
C1591 C1590 1.367 . S
C1591 C1599 1.433 . S
C1592 H1588 0.929 . S
C1592 C1594 1.378 . S
C1592 C1596 1.350 . S
C1593 C1596 1.463 . S
C1593 C1598 1.350 . S
C1593 N1601 1.427 . S
C1594 H1585 0.930 . S
C1594 C1592 1.378 . S
C1594 C1595 1.367 . S
C1595 C1594 1.367 . S
C1595 C1597 1.433 . S
C1596 C1592 1.350 . S
C1596 C1593 1.463 . S
C1596 N1600 1.427 . S
C1597 H1587 0.929 . S
C1597 C1595 1.433 . S
C1597 N1600 1.384 . S
C1598 H1589 0.929 . S
C1598 C1590 1.378 . S
C1598 C1593 1.350 . S
C1599 H1586 0.929 . S
C1599 C1591 1.433 . S
C1599 N1601 1.384 . S
N1600 C1596 1.427 . S
N1600 C1597 1.384 . S
N1601 C1593 1.427 . S
N1601 C1599 1.384 . S
H1602 C1608 0.930 . S
H1603 C1612 0.930 . S
H1604 C1617 0.929 . S
H1605 C1615 0.929 . S
H1606 C1610 0.929 . S
H1607 C1616 0.929 . S
C1608 H1602 0.930 . S
C1608 C1609 1.367 . S
C1608 C1616 1.378 . S
C1609 C1608 1.367 . S
C1609 C1617 1.433 . S
C1610 H1606 0.929 . S
C1610 C1612 1.378 . S
C1610 C1614 1.350 . S
C1611 C1614 1.463 . S
C1611 C1616 1.350 . S
C1611 N1619 1.427 . S
C1612 H1603 0.930 . S
C1612 C1610 1.378 . S
C1612 C1613 1.367 . S
C1613 C1612 1.367 . S
C1613 C1615 1.433 . S
C1614 C1610 1.350 . S
C1614 C1611 1.463 . S
C1614 N1618 1.427 . S
C1615 H1605 0.929 . S
C1615 C1613 1.433 . S
C1615 N1618 1.384 . S
C1616 H1607 0.929 . S
C1616 C1608 1.378 . S
C1616 C1611 1.350 . S
C1617 H1604 0.929 . S
C1617 C1609 1.433 . S
C1617 N1619 1.384 . S
N1618 C1614 1.427 . S
N1618 C1615 1.384 . S
N1619 C1611 1.427 . S
N1619 C1617 1.384 . S
H1620 C1626 0.930 . S
H1621 C1630 0.930 . S
H1622 C1635 0.929 . S
H1623 C1633 0.929 . S
H1624 C1628 0.929 . S
H1625 C1634 0.929 . S
C1626 H1620 0.930 . S
C1626 C1627 1.367 . S
C1626 C1634 1.378 . S
C1627 C1626 1.367 . S
C1627 C1635 1.433 . S
C1628 H1624 0.929 . S
C1628 C1630 1.378 . S
C1628 C1632 1.350 . S
C1629 C1632 1.463 . S
C1629 C1634 1.350 . S
C1629 N1637 1.427 . S
C1630 H1621 0.930 . S
C1630 C1628 1.378 . S
C1630 C1631 1.367 . S
C1631 C1630 1.367 . S
C1631 C1633 1.433 . S
C1632 C1628 1.350 . S
C1632 C1629 1.463 . S
C1632 N1636 1.427 . S
C1633 H1623 0.929 . S
C1633 C1631 1.433 . S
C1633 N1636 1.384 . S
C1634 H1625 0.929 . S
C1634 C1626 1.378 . S
C1634 C1629 1.350 . S
C1635 H1622 0.929 . S
C1635 C1627 1.433 . S
C1635 N1637 1.384 . S
N1636 C1632 1.427 . S
N1636 C1633 1.384 . S
N1637 C1629 1.427 . S
N1637 C1635 1.384 . S
H1638 C1644 0.930 . S
H1639 C1648 0.930 . S
H1640 C1653 0.929 . S
H1641 C1651 0.929 . S
H1642 C1646 0.929 . S
H1643 C1652 0.929 . S
C1644 H1638 0.930 . S
C1644 C1645 1.367 . S
C1644 C1652 1.378 . S
C1645 C1644 1.367 . S
C1645 C1653 1.433 . S
C1646 H1642 0.929 . S
C1646 C1648 1.378 . S
C1646 C1650 1.350 . S
C1647 C1650 1.463 . S
C1647 C1652 1.350 . S
C1647 N1655 1.427 . S
C1648 H1639 0.930 . S
C1648 C1646 1.378 . S
C1648 C1649 1.367 . S
C1649 C1648 1.367 . S
C1649 C1651 1.433 . S
C1650 C1646 1.350 . S
C1650 C1647 1.463 . S
C1650 N1654 1.427 . S
C1651 H1641 0.929 . S
C1651 C1649 1.433 . S
C1651 N1654 1.384 . S
C1652 H1643 0.929 . S
C1652 C1644 1.378 . S
C1652 C1647 1.350 . S
C1653 H1640 0.929 . S
C1653 C1645 1.433 . S
C1653 N1655 1.384 . S
N1654 C1650 1.427 . S
N1654 C1651 1.384 . S
N1655 C1647 1.427 . S
N1655 C1653 1.384 . S
H1656 C1662 0.930 . S
H1657 C1666 0.930 . S
H1658 C1671 0.929 . S
H1659 C1669 0.929 . S
H1660 C1664 0.929 . S
H1661 C1670 0.929 . S
C1662 H1656 0.930 . S
C1662 C1663 1.367 . S
C1662 C1670 1.378 . S
C1663 C1662 1.367 . S
C1663 C1671 1.433 . S
C1664 H1660 0.929 . S
C1664 C1666 1.378 . S
C1664 C1668 1.350 . S
C1665 C1668 1.463 . S
C1665 C1670 1.350 . S
C1665 N1673 1.427 . S
C1666 H1657 0.930 . S
C1666 C1664 1.378 . S
C1666 C1667 1.367 . S
C1667 C1666 1.367 . S
C1667 C1669 1.433 . S
C1668 C1664 1.350 . S
C1668 C1665 1.463 . S
C1668 N1672 1.427 . S
C1669 H1659 0.929 . S
C1669 C1667 1.433 . S
C1669 N1672 1.384 . S
C1670 H1661 0.929 . S
C1670 C1662 1.378 . S
C1670 C1665 1.350 . S
C1671 H1658 0.929 . S
C1671 C1663 1.433 . S
C1671 N1673 1.384 . S
N1672 C1668 1.427 . S
N1672 C1669 1.384 . S
N1673 C1665 1.427 . S
N1673 C1671 1.384 . S
H1674 C1680 0.930 . S
H1675 C1684 0.930 . S
H1676 C1689 0.929 . S
H1677 C1687 0.929 . S
H1678 C1682 0.929 . S
H1679 C1688 0.929 . S
C1680 H1674 0.930 . S
C1680 C1681 1.367 . S
C1680 C1688 1.378 . S
C1681 C1680 1.367 . S
C1681 C1689 1.433 . S
C1682 H1678 0.929 . S
C1682 C1684 1.378 . S
C1682 C1686 1.350 . S
C1683 C1686 1.463 . S
C1683 C1688 1.350 . S
C1683 N1691 1.427 . S
C1684 H1675 0.930 . S
C1684 C1682 1.378 . S
C1684 C1685 1.367 . S
C1685 C1684 1.367 . S
C1685 C1687 1.433 . S
C1686 C1682 1.350 . S
C1686 C1683 1.463 . S
C1686 N1690 1.427 . S
C1687 H1677 0.929 . S
C1687 C1685 1.433 . S
C1687 N1690 1.384 . S
C1688 H1679 0.929 . S
C1688 C1680 1.378 . S
C1688 C1683 1.350 . S
C1689 H1676 0.929 . S
C1689 C1681 1.433 . S
C1689 N1691 1.384 . S
N1690 C1686 1.427 . S
N1690 C1687 1.384 . S
N1691 C1683 1.427 . S
N1691 C1689 1.384 . S
H1692 C1698 0.930 . S
H1693 C1702 0.930 . S
H1694 C1707 0.929 . S
H1695 C1705 0.929 . S
H1696 C1700 0.929 . S
H1697 C1706 0.929 . S
C1698 H1692 0.930 . S
C1698 C1699 1.367 . S
C1698 C1706 1.378 . S
C1699 C1698 1.367 . S
C1699 C1707 1.433 . S
C1700 H1696 0.929 . S
C1700 C1702 1.378 . S
C1700 C1704 1.350 . S
C1701 C1704 1.463 . S
C1701 C1706 1.350 . S
C1701 N1709 1.427 . S
C1702 H1693 0.930 . S
C1702 C1700 1.378 . S
C1702 C1703 1.367 . S
C1703 C1702 1.367 . S
C1703 C1705 1.433 . S
C1704 C1700 1.350 . S
C1704 C1701 1.463 . S
C1704 N1708 1.427 . S
C1705 H1695 0.929 . S
C1705 C1703 1.433 . S
C1705 N1708 1.384 . S
C1706 H1697 0.929 . S
C1706 C1698 1.378 . S
C1706 C1701 1.350 . S
C1707 H1694 0.929 . S
C1707 C1699 1.433 . S
C1707 N1709 1.384 . S
N1708 C1704 1.427 . S
N1708 C1705 1.384 . S
N1709 C1701 1.427 . S
N1709 C1707 1.384 . S
H1710 C1716 0.930 . S
H1711 C1720 0.930 . S
H1712 C1725 0.929 . S
H1713 C1723 0.929 . S
H1714 C1718 0.929 . S
H1715 C1724 0.929 . S
C1716 H1710 0.930 . S
C1716 C1717 1.367 . S
C1716 C1724 1.378 . S
C1717 C1716 1.367 . S
C1717 C1725 1.433 . S
C1718 H1714 0.929 . S
C1718 C1720 1.378 . S
C1718 C1722 1.350 . S
C1719 C1722 1.463 . S
C1719 C1724 1.350 . S
C1719 N1727 1.427 . S
C1720 H1711 0.930 . S
C1720 C1718 1.378 . S
C1720 C1721 1.367 . S
C1721 C1720 1.367 . S
C1721 C1723 1.433 . S
C1722 C1718 1.350 . S
C1722 C1719 1.463 . S
C1722 N1726 1.427 . S
C1723 H1713 0.929 . S
C1723 C1721 1.433 . S
C1723 N1726 1.384 . S
C1724 H1715 0.929 . S
C1724 C1716 1.378 . S
C1724 C1719 1.350 . S
C1725 H1712 0.929 . S
C1725 C1717 1.433 . S
C1725 N1727 1.384 . S
N1726 C1722 1.427 . S
N1726 C1723 1.384 . S
N1727 C1719 1.427 . S
N1727 C1725 1.384 . S
H1728 C1734 0.930 . S
H1729 C1738 0.930 . S
H1730 C1743 0.929 . S
H1731 C1741 0.929 . S
H1732 C1736 0.929 . S
H1733 C1742 0.929 . S
C1734 H1728 0.930 . S
C1734 C1735 1.367 . S
C1734 C1742 1.378 . S
C1735 C1734 1.367 . S
C1735 C1743 1.433 . S
C1736 H1732 0.929 . S
C1736 C1738 1.378 . S
C1736 C1740 1.350 . S
C1737 C1740 1.463 . S
C1737 C1742 1.350 . S
C1737 N1745 1.427 . S
C1738 H1729 0.930 . S
C1738 C1736 1.378 . S
C1738 C1739 1.367 . S
C1739 C1738 1.367 . S
C1739 C1741 1.433 . S
C1740 C1736 1.350 . S
C1740 C1737 1.463 . S
C1740 N1744 1.427 . S
C1741 H1731 0.929 . S
C1741 C1739 1.433 . S
C1741 N1744 1.384 . S
C1742 H1733 0.929 . S
C1742 C1734 1.378 . S
C1742 C1737 1.350 . S
C1743 H1730 0.929 . S
C1743 C1735 1.433 . S
C1743 N1745 1.384 . S
N1744 C1740 1.427 . S
N1744 C1741 1.384 . S
N1745 C1737 1.427 . S
N1745 C1743 1.384 . S
H1746 C1752 0.930 . S
H1747 C1756 0.930 . S
H1748 C1761 0.929 . S
H1749 C1759 0.929 . S
H1750 C1754 0.929 . S
H1751 C1760 0.929 . S
C1752 H1746 0.930 . S
C1752 C1753 1.367 . S
C1752 C1760 1.378 . S
C1753 C1752 1.367 . S
C1753 C1761 1.433 . S
C1754 H1750 0.929 . S
C1754 C1756 1.378 1_455 S
C1754 C1758 1.350 . S
C1755 C1758 1.463 . S
C1755 C1760 1.350 . S
C1755 N1763 1.427 . S
C1756 H1747 0.930 . S
C1756 C1754 1.378 1_655 S
C1756 C1757 1.367 . S
C1757 C1756 1.367 . S
C1757 C1759 1.433 . S
C1758 C1754 1.350 . S
C1758 C1755 1.463 . S
C1758 N1762 1.427 . S
C1759 H1749 0.929 . S
C1759 C1757 1.433 . S
C1759 N1762 1.384 1_655 S
C1760 H1751 0.929 . S
C1760 C1752 1.378 . S
C1760 C1755 1.350 . S
C1761 H1748 0.929 . S
C1761 C1753 1.433 . S
C1761 N1763 1.384 . S
N1762 C1758 1.427 . S
N1762 C1759 1.384 1_455 S
N1763 C1755 1.427 . S
N1763 C1761 1.384 . S
H1764 C1770 0.930 . S
H1765 C1774 0.930 . S
H1766 C1779 0.929 . S
H1767 C1777 0.929 . S
H1768 C1772 0.929 . S
H1769 C1778 0.929 . S
C1770 H1764 0.930 . S
C1770 C1771 1.367 . S
C1770 C1778 1.378 . S
C1771 C1770 1.367 . S
C1771 C1779 1.433 . S
C1772 H1768 0.929 . S
C1772 C1774 1.378 . S
C1772 C1776 1.350 . S
C1773 C1776 1.463 . S
C1773 C1778 1.350 . S
C1773 N1781 1.427 . S
C1774 H1765 0.930 . S
C1774 C1772 1.378 . S
C1774 C1775 1.367 . S
C1775 C1774 1.367 . S
C1775 C1777 1.433 . S
C1776 C1772 1.350 . S
C1776 C1773 1.463 . S
C1776 N1780 1.427 . S
C1777 H1767 0.929 . S
C1777 C1775 1.433 . S
C1777 N1780 1.384 . S
C1778 H1769 0.929 . S
C1778 C1770 1.378 . S
C1778 C1773 1.350 . S
C1779 H1766 0.929 . S
C1779 C1771 1.433 . S
C1779 N1781 1.384 . S
N1780 C1776 1.427 . S
N1780 C1777 1.384 . S
N1781 C1773 1.427 . S
N1781 C1779 1.384 . S
H1782 C1788 0.930 . S
H1783 C1792 0.930 . S
H1784 C1797 0.929 . S
H1785 C1795 0.929 . S
H1786 C1790 0.929 . S
H1787 C1796 0.929 . S
C1788 H1782 0.930 . S
C1788 C1789 1.367 . S
C1788 C1796 1.378 . S
C1789 C1788 1.367 . S
C1789 C1797 1.433 . S
C1790 H1786 0.929 . S
C1790 C1792 1.378 . S
C1790 C1794 1.350 . S
C1791 C1794 1.463 . S
C1791 C1796 1.350 . S
C1791 N1799 1.427 . S
C1792 H1783 0.930 . S
C1792 C1790 1.378 . S
C1792 C1793 1.367 . S
C1793 C1792 1.367 . S
C1793 C1795 1.433 . S
C1794 C1790 1.350 . S
C1794 C1791 1.463 . S
C1794 N1798 1.427 . S
C1795 H1785 0.929 . S
C1795 C1793 1.433 . S
C1795 N1798 1.384 . S
C1796 H1787 0.929 . S
C1796 C1788 1.378 . S
C1796 C1791 1.350 . S
C1797 H1784 0.929 . S
C1797 C1789 1.433 . S
C1797 N1799 1.384 . S
N1798 C1794 1.427 . S
N1798 C1795 1.384 . S
N1799 C1791 1.427 . S
N1799 C1797 1.384 . S
H1800 C1806 0.930 . S
H1801 C1810 0.930 . S
H1802 C1815 0.929 . S
H1803 C1813 0.929 . S
H1804 C1808 0.929 . S
H1805 C1814 0.929 . S
C1806 H1800 0.930 . S
C1806 C1807 1.367 . S
C1806 C1814 1.378 . S
C1807 C1806 1.367 . S
C1807 C1815 1.433 . S
C1808 H1804 0.929 . S
C1808 C1810 1.378 . S
C1808 C1812 1.350 . S
C1809 C1812 1.463 . S
C1809 C1814 1.350 . S
C1809 N1817 1.427 . S
C1810 H1801 0.930 . S
C1810 C1808 1.378 . S
C1810 C1811 1.367 . S
C1811 C1810 1.367 . S
C1811 C1813 1.433 . S
C1812 C1808 1.350 . S
C1812 C1809 1.463 . S
C1812 N1816 1.427 . S
C1813 H1803 0.929 . S
C1813 C1811 1.433 . S
C1813 N1816 1.384 . S
C1814 H1805 0.929 . S
C1814 C1806 1.378 . S
C1814 C1809 1.350 . S
C1815 H1802 0.929 . S
C1815 C1807 1.433 . S
C1815 N1817 1.384 . S
N1816 C1812 1.427 . S
N1816 C1813 1.384 . S
N1817 C1809 1.427 . S
N1817 C1815 1.384 . S
H1818 C1824 0.930 . S
H1819 C1828 0.930 . S
H1820 C1833 0.929 . S
H1821 C1831 0.929 . S
H1822 C1826 0.929 . S
H1823 C1832 0.929 . S
C1824 H1818 0.930 . S
C1824 C1825 1.367 . S
C1824 C1832 1.378 . S
C1825 C1824 1.367 . S
C1825 C1833 1.433 . S
C1826 H1822 0.929 . S
C1826 C1828 1.378 . S
C1826 C1830 1.350 . S
C1827 C1830 1.463 . S
C1827 C1832 1.350 . S
C1827 N1835 1.427 . S
C1828 H1819 0.930 . S
C1828 C1826 1.378 . S
C1828 C1829 1.367 . S
C1829 C1828 1.367 . S
C1829 C1831 1.433 . S
C1830 C1826 1.350 . S
C1830 C1827 1.463 . S
C1830 N1834 1.427 . S
C1831 H1821 0.929 . S
C1831 C1829 1.433 . S
C1831 N1834 1.384 . S
C1832 H1823 0.929 . S
C1832 C1824 1.378 . S
C1832 C1827 1.350 . S
C1833 H1820 0.929 . S
C1833 C1825 1.433 . S
C1833 N1835 1.384 . S
N1834 C1830 1.427 . S
N1834 C1831 1.384 . S
N1835 C1827 1.427 . S
N1835 C1833 1.384 . S
H1836 C1842 0.930 . S
H1837 C1846 0.930 . S
H1838 C1851 0.929 . S
H1839 C1849 0.929 . S
H1840 C1844 0.929 . S
H1841 C1850 0.929 . S
C1842 H1836 0.930 . S
C1842 C1843 1.367 . S
C1842 C1850 1.378 . S
C1843 C1842 1.367 . S
C1843 C1851 1.433 . S
C1844 H1840 0.929 . S
C1844 C1846 1.378 . S
C1844 C1848 1.350 . S
C1845 C1848 1.463 . S
C1845 C1850 1.350 . S
C1845 N1853 1.427 . S
C1846 H1837 0.930 . S
C1846 C1844 1.378 . S
C1846 C1847 1.367 . S
C1847 C1846 1.367 . S
C1847 C1849 1.433 . S
C1848 C1844 1.350 . S
C1848 C1845 1.463 . S
C1848 N1852 1.427 . S
C1849 H1839 0.929 . S
C1849 C1847 1.433 . S
C1849 N1852 1.384 . S
C1850 H1841 0.929 . S
C1850 C1842 1.378 . S
C1850 C1845 1.350 . S
C1851 H1838 0.929 . S
C1851 C1843 1.433 . S
C1851 N1853 1.384 . S
N1852 C1848 1.427 . S
N1852 C1849 1.384 . S
N1853 C1845 1.427 . S
N1853 C1851 1.384 . S
H1854 C1860 0.930 . S
H1855 C1864 0.930 . S
H1856 C1869 0.929 . S
H1857 C1867 0.929 . S
H1858 C1862 0.929 . S
H1859 C1868 0.929 . S
C1860 H1854 0.930 . S
C1860 C1861 1.367 . S
C1860 C1868 1.378 . S
C1861 C1860 1.367 . S
C1861 C1869 1.433 . S
C1862 H1858 0.929 . S
C1862 C1864 1.378 . S
C1862 C1866 1.350 . S
C1863 C1866 1.463 . S
C1863 C1868 1.350 . S
C1863 N1871 1.427 . S
C1864 H1855 0.930 . S
C1864 C1862 1.378 . S
C1864 C1865 1.367 1_455 S
C1865 C1864 1.367 1_655 S
C1865 C1867 1.433 . S
C1866 C1862 1.350 . S
C1866 C1863 1.463 . S
C1866 N1870 1.427 . S
C1867 H1857 0.929 . S
C1867 C1865 1.433 . S
C1867 N1870 1.384 1_655 S
C1868 H1859 0.929 . S
C1868 C1860 1.378 . S
C1868 C1863 1.350 . S
C1869 H1856 0.929 . S
C1869 C1861 1.433 . S
C1869 N1871 1.384 . S
N1870 C1866 1.427 . S
N1870 C1867 1.384 1_455 S
N1871 C1863 1.427 . S
N1871 C1869 1.384 . S
H1872 C1878 0.930 . S
H1873 C1882 0.930 . S
H1874 C1887 0.929 . S
H1875 C1885 0.929 . S
H1876 C1880 0.929 . S
H1877 C1886 0.929 . S
C1878 H1872 0.930 . S
C1878 C1879 1.367 . S
C1878 C1886 1.378 . S
C1879 C1878 1.367 . S
C1879 C1887 1.433 . S
C1880 H1876 0.929 . S
C1880 C1882 1.378 . S
C1880 C1884 1.350 . S
C1881 C1884 1.463 . S
C1881 C1886 1.350 . S
C1881 N1889 1.427 . S
C1882 H1873 0.930 . S
C1882 C1880 1.378 . S
C1882 C1883 1.367 . S
C1883 C1882 1.367 . S
C1883 C1885 1.433 . S
C1884 C1880 1.350 . S
C1884 C1881 1.463 . S
C1884 N1888 1.427 . S
C1885 H1875 0.929 . S
C1885 C1883 1.433 . S
C1885 N1888 1.384 . S
C1886 H1877 0.929 . S
C1886 C1878 1.378 . S
C1886 C1881 1.350 . S
C1887 H1874 0.929 . S
C1887 C1879 1.433 . S
C1887 N1889 1.384 . S
N1888 C1884 1.427 . S
N1888 C1885 1.384 . S
N1889 C1881 1.427 . S
N1889 C1887 1.384 . S
H1890 C1896 0.930 . S
H1891 C1900 0.930 . S
H1892 C1905 0.928 1_455 S
H1893 C1903 0.929 . S
H1894 C1898 0.929 . S
H1895 C1904 0.929 . S
C1896 H1890 0.930 . S
C1896 C1897 1.367 . S
C1896 C1904 1.378 1_455 S
C1897 C1896 1.367 . S
C1897 C1905 1.427 1_455 S
C1898 H1894 0.929 . S
C1898 C1900 1.378 . S
C1898 C1902 1.350 . S
C1899 C1902 1.463 . S
C1899 C1904 1.350 . S
C1899 N1907 1.427 . S
C1900 H1891 0.930 . S
C1900 C1898 1.378 . S
C1900 C1901 1.367 . S
C1901 C1900 1.367 . S
C1901 C1903 1.433 . S
C1902 C1898 1.350 . S
C1902 C1899 1.463 . S
C1902 N1906 1.427 . S
C1903 H1893 0.929 . S
C1903 C1901 1.433 . S
C1903 N1906 1.384 . S
C1904 H1895 0.929 . S
C1904 C1896 1.378 1_655 S
C1904 C1899 1.350 . S
C1905 H1892 0.928 1_655 S
C1905 C1897 1.427 1_655 S
C1905 N1907 1.392 . S
N1906 C1902 1.427 . S
N1906 C1903 1.384 . S
N1907 C1899 1.427 . S
N1907 C1905 1.392 . S
H1908 C1914 0.930 . S
H1909 C1918 0.930 . S
H1910 C1923 0.929 . S
H1911 C1921 0.929 . S
H1912 C1916 0.929 . S
H1913 C1922 0.929 . S
C1914 H1908 0.930 . S
C1914 C1915 1.367 . S
C1914 C1922 1.378 . S
C1915 C1914 1.367 . S
C1915 C1923 1.433 . S
C1916 H1912 0.929 . S
C1916 C1918 1.378 . S
C1916 C1920 1.350 . S
C1917 C1920 1.463 . S
C1917 C1922 1.350 . S
C1917 N1925 1.427 . S
C1918 H1909 0.930 . S
C1918 C1916 1.378 . S
C1918 C1919 1.367 . S
C1919 C1918 1.367 . S
C1919 C1921 1.433 . S
C1920 C1916 1.350 . S
C1920 C1917 1.463 . S
C1920 N1924 1.427 . S
C1921 H1911 0.929 . S
C1921 C1919 1.433 . S
C1921 N1924 1.384 . S
C1922 H1913 0.929 . S
C1922 C1914 1.378 . S
C1922 C1917 1.350 . S
C1923 H1910 0.929 . S
C1923 C1915 1.433 . S
C1923 N1925 1.384 . S
N1924 C1920 1.427 . S
N1924 C1921 1.384 . S
N1925 C1917 1.427 . S
N1925 C1923 1.384 . S
H1926 C1932 0.930 . S
H1927 C1936 0.930 . S
H1928 C1941 0.929 . S
H1929 C1939 0.929 . S
H1930 C1934 0.929 . S
H1931 C1940 0.929 . S
C1932 H1926 0.930 . S
C1932 C1933 1.367 . S
C1932 C1940 1.378 . S
C1933 C1932 1.367 . S
C1933 C1941 1.433 . S
C1934 H1930 0.929 . S
C1934 C1936 1.378 . S
C1934 C1938 1.350 . S
C1935 C1938 1.463 . S
C1935 C1940 1.350 . S
C1935 N1943 1.427 . S
C1936 H1927 0.930 . S
C1936 C1934 1.378 . S
C1936 C1937 1.367 . S
C1937 C1936 1.367 . S
C1937 C1939 1.433 . S
C1938 C1934 1.350 . S
C1938 C1935 1.463 . S
C1938 N1942 1.427 . S
C1939 H1929 0.929 . S
C1939 C1937 1.433 . S
C1939 N1942 1.384 . S
C1940 H1931 0.929 . S
C1940 C1932 1.378 . S
C1940 C1935 1.350 . S
C1941 H1928 0.929 . S
C1941 C1933 1.433 . S
C1941 N1943 1.384 . S
N1942 C1938 1.427 . S
N1942 C1939 1.384 . S
N1943 C1935 1.427 . S
N1943 C1941 1.384 . S
H1944 C1950 0.930 . S
H1945 C1954 0.930 . S
H1946 C1959 0.929 . S
H1947 C1957 0.929 . S
H1948 C1952 0.929 . S
H1949 C1958 0.929 . S
C1950 H1944 0.930 . S
C1950 C1951 1.367 . S
C1950 C1958 1.378 . S
C1951 C1950 1.367 . S
C1951 C1959 1.433 . S
C1952 H1948 0.929 . S
C1952 C1954 1.378 . S
C1952 C1956 1.350 . S
C1953 C1956 1.463 . S
C1953 C1958 1.350 . S
C1953 N1961 1.427 . S
C1954 H1945 0.930 . S
C1954 C1952 1.378 . S
C1954 C1955 1.367 . S
C1955 C1954 1.367 . S
C1955 C1957 1.433 . S
C1956 C1952 1.350 . S
C1956 C1953 1.463 . S
C1956 N1960 1.427 . S
C1957 H1947 0.929 . S
C1957 C1955 1.433 . S
C1957 N1960 1.384 . S
C1958 H1949 0.929 . S
C1958 C1950 1.378 . S
C1958 C1953 1.350 . S
C1959 H1946 0.929 . S
C1959 C1951 1.433 . S
C1959 N1961 1.384 . S
N1960 C1956 1.427 . S
N1960 C1957 1.384 . S
N1961 C1953 1.427 . S
N1961 C1959 1.384 . S
H1962 C1968 0.930 . S
H1963 C1972 0.930 . S
H1964 C1977 0.929 . S
H1965 C1975 0.929 . S
H1966 C1970 0.929 . S
H1967 C1976 0.929 . S
C1968 H1962 0.930 . S
C1968 C1969 1.367 . S
C1968 C1976 1.378 . S
C1969 C1968 1.367 . S
C1969 C1977 1.433 . S
C1970 H1966 0.929 . S
C1970 C1972 1.378 . S
C1970 C1974 1.350 . S
C1971 C1974 1.463 . S
C1971 C1976 1.350 . S
C1971 N1979 1.427 . S
C1972 H1963 0.930 . S
C1972 C1970 1.378 . S
C1972 C1973 1.367 . S
C1973 C1972 1.367 . S
C1973 C1975 1.433 . S
C1974 C1970 1.350 . S
C1974 C1971 1.463 . S
C1974 N1978 1.427 . S
C1975 H1965 0.929 . S
C1975 C1973 1.433 . S
C1975 N1978 1.384 . S
C1976 H1967 0.929 . S
C1976 C1968 1.378 . S
C1976 C1971 1.350 . S
C1977 H1964 0.929 . S
C1977 C1969 1.433 . S
C1977 N1979 1.384 . S
N1978 C1974 1.427 . S
N1978 C1975 1.384 . S
N1979 C1971 1.427 . S
N1979 C1977 1.384 . S
H1980 C1986 0.930 . S
H1981 C1990 0.930 . S
H1982 C1995 0.929 . S
H1983 C1993 0.929 . S
H1984 C1988 0.929 . S
H1985 C1994 0.929 . S
C1986 H1980 0.930 . S
C1986 C1987 1.367 . S
C1986 C1994 1.378 . S
C1987 C1986 1.367 . S
C1987 C1995 1.433 . S
C1988 H1984 0.929 . S
C1988 C1990 1.378 . S
C1988 C1992 1.350 . S
C1989 C1992 1.463 . S
C1989 C1994 1.350 . S
C1989 N1997 1.427 . S
C1990 H1981 0.930 . S
C1990 C1988 1.378 . S
C1990 C1991 1.367 . S
C1991 C1990 1.367 . S
C1991 C1993 1.433 . S
C1992 C1988 1.350 . S
C1992 C1989 1.463 . S
C1992 N1996 1.427 . S
C1993 H1983 0.929 . S
C1993 C1991 1.433 . S
C1993 N1996 1.384 . S
C1994 H1985 0.929 . S
C1994 C1986 1.378 . S
C1994 C1989 1.350 . S
C1995 H1982 0.929 . S
C1995 C1987 1.433 . S
C1995 N1997 1.384 . S
N1996 C1992 1.427 . S
N1996 C1993 1.384 . S
N1997 C1989 1.427 . S
N1997 C1995 1.384 . S
H1998 C2004 0.930 . S
H1999 C2008 0.930 . S
H2000 C2013 0.929 . S
H2001 C2011 0.929 . S
H2002 C2006 0.929 . S
H2003 C2012 0.929 . S
C2004 H1998 0.930 . S
C2004 C2005 1.367 . S
C2004 C2012 1.378 1_455 S
C2005 C2004 1.367 . S
C2005 C2013 1.433 . S
C2006 H2002 0.929 . S
C2006 C2008 1.378 . S
C2006 C2010 1.350 . S
C2007 C2010 1.463 . S
C2007 C2012 1.350 . S
C2007 N2015 1.427 . S
C2008 H1999 0.930 . S
C2008 C2006 1.378 . S
C2008 C2009 1.367 . S
C2009 C2008 1.367 . S
C2009 C2011 1.433 . S
C2010 C2006 1.350 . S
C2010 C2007 1.463 . S
C2010 N2014 1.427 . S
C2011 H2001 0.929 . S
C2011 C2009 1.433 . S
C2011 N2014 1.384 . S
C2012 H2003 0.929 . S
C2012 C2004 1.378 1_655 S
C2012 C2007 1.350 . S
C2013 H2000 0.929 . S
C2013 C2005 1.433 . S
C2013 N2015 1.384 1_455 S
N2014 C2010 1.427 . S
N2014 C2011 1.384 . S
N2015 C2007 1.427 . S
N2015 C2013 1.384 1_655 S
H2016 C2022 0.930 . S
H2017 C2026 0.930 . S
H2018 C2031 0.929 . S
H2019 C2029 0.929 . S
H2020 C2024 0.929 . S
H2021 C2030 0.929 . S
C2022 H2016 0.930 . S
C2022 C2023 1.367 . S
C2022 C2030 1.378 . S
C2023 C2022 1.367 . S
C2023 C2031 1.433 . S
C2024 H2020 0.929 . S
C2024 C2026 1.378 . S
C2024 C2028 1.350 . S
C2025 C2028 1.463 . S
C2025 C2030 1.350 . S
C2025 N2033 1.427 . S
C2026 H2017 0.930 . S
C2026 C2024 1.378 . S
C2026 C2027 1.367 . S
C2027 C2026 1.367 . S
C2027 C2029 1.433 . S
C2028 C2024 1.350 . S
C2028 C2025 1.463 . S
C2028 N2032 1.427 . S
C2029 H2019 0.929 . S
C2029 C2027 1.433 . S
C2029 N2032 1.384 . S
C2030 H2021 0.929 . S
C2030 C2022 1.378 . S
C2030 C2025 1.350 . S
C2031 H2018 0.929 . S
C2031 C2023 1.433 . S
C2031 N2033 1.384 . S
N2032 C2028 1.427 . S
N2032 C2029 1.384 . S
N2033 C2025 1.427 . S
N2033 C2031 1.384 . S
H2034 C2040 0.930 . S
H2035 C2044 0.930 . S
H2036 C2049 0.929 . S
H2037 C2047 0.929 . S
H2038 C2042 0.929 . S
H2039 C2048 0.929 . S
C2040 H2034 0.930 . S
C2040 C2041 1.367 . S
C2040 C2048 1.378 . S
C2041 C2040 1.367 . S
C2041 C2049 1.433 . S
C2042 H2038 0.929 . S
C2042 C2044 1.378 . S
C2042 C2046 1.350 . S
C2043 C2046 1.463 . S
C2043 C2048 1.350 . S
C2043 N2051 1.427 . S
C2044 H2035 0.930 . S
C2044 C2042 1.378 . S
C2044 C2045 1.367 . S
C2045 C2044 1.367 . S
C2045 C2047 1.433 . S
C2046 C2042 1.350 . S
C2046 C2043 1.463 . S
C2046 N2050 1.427 . S
C2047 H2037 0.929 . S
C2047 C2045 1.433 . S
C2047 N2050 1.384 . S
C2048 H2039 0.929 . S
C2048 C2040 1.378 . S
C2048 C2043 1.350 . S
C2049 H2036 0.929 . S
C2049 C2041 1.433 . S
C2049 N2051 1.384 . S
N2050 C2046 1.427 . S
N2050 C2047 1.384 . S
N2051 C2043 1.427 . S
N2051 C2049 1.384 . S
H2052 C2058 0.930 . S
H2053 C2062 0.930 . S
H2054 C2067 0.929 . S
H2055 C2065 0.929 . S
H2056 C2060 0.929 . S
H2057 C2066 0.929 . S
C2058 H2052 0.930 . S
C2058 C2059 1.367 . S
C2058 C2066 1.378 . S
C2059 C2058 1.367 . S
C2059 C2067 1.433 . S
C2060 H2056 0.929 . S
C2060 C2062 1.378 . S
C2060 C2064 1.350 . S
C2061 C2064 1.463 . S
C2061 C2066 1.350 . S
C2061 N2069 1.427 . S
C2062 H2053 0.930 . S
C2062 C2060 1.378 . S
C2062 C2063 1.367 . S
C2063 C2062 1.367 . S
C2063 C2065 1.433 . S
C2064 C2060 1.350 . S
C2064 C2061 1.463 . S
C2064 N2068 1.427 . S
C2065 H2055 0.929 . S
C2065 C2063 1.433 . S
C2065 N2068 1.384 . S
C2066 H2057 0.929 . S
C2066 C2058 1.378 . S
C2066 C2061 1.350 . S
C2067 H2054 0.929 . S
C2067 C2059 1.433 . S
C2067 N2069 1.384 . S
N2068 C2064 1.427 . S
N2068 C2065 1.384 . S
N2069 C2061 1.427 . S
N2069 C2067 1.384 . S
H2070 C2076 0.930 . S
H2071 C2080 0.930 . S
H2072 C2085 0.929 . S
H2073 C2083 0.929 . S
H2074 C2078 0.929 . S
H2075 C2084 0.929 . S
C2076 H2070 0.930 . S
C2076 C2077 1.367 . S
C2076 C2084 1.378 . S
C2077 C2076 1.367 . S
C2077 C2085 1.433 . S
C2078 H2074 0.929 . S
C2078 C2080 1.378 1_655 S
C2078 C2082 1.350 . S
C2079 C2082 1.463 . S
C2079 C2084 1.350 . S
C2079 N2087 1.427 . S
C2080 H2071 0.930 . S
C2080 C2078 1.378 1_455 S
C2080 C2081 1.367 . S
C2081 C2080 1.367 . S
C2081 C2083 1.433 . S
C2082 C2078 1.350 . S
C2082 C2079 1.463 . S
C2082 N2086 1.427 . S
C2083 H2073 0.929 . S
C2083 C2081 1.433 . S
C2083 N2086 1.384 1_455 S
C2084 H2075 0.929 . S
C2084 C2076 1.378 . S
C2084 C2079 1.350 . S
C2085 H2072 0.929 . S
C2085 C2077 1.433 . S
C2085 N2087 1.384 . S
N2086 C2082 1.427 . S
N2086 C2083 1.384 1_655 S
N2087 C2079 1.427 . S
N2087 C2085 1.384 . S
H2088 C2094 0.930 . S
H2089 C2098 0.930 . S
H2090 C2103 0.929 . S
H2091 C2101 0.929 . S
H2092 C2096 0.929 . S
H2093 C2102 0.929 . S
C2094 H2088 0.930 . S
C2094 C2095 1.367 . S
C2094 C2102 1.378 . S
C2095 C2094 1.367 . S
C2095 C2103 1.433 . S
C2096 H2092 0.929 . S
C2096 C2098 1.378 . S
C2096 C2100 1.350 . S
C2097 C2100 1.463 . S
C2097 C2102 1.350 . S
C2097 N2105 1.427 . S
C2098 H2089 0.930 . S
C2098 C2096 1.378 . S
C2098 C2099 1.367 . S
C2099 C2098 1.367 . S
C2099 C2101 1.433 . S
C2100 C2096 1.350 . S
C2100 C2097 1.463 . S
C2100 N2104 1.427 . S
C2101 H2091 0.929 . S
C2101 C2099 1.433 . S
C2101 N2104 1.384 . S
C2102 H2093 0.929 . S
C2102 C2094 1.378 . S
C2102 C2097 1.350 . S
C2103 H2090 0.929 . S
C2103 C2095 1.433 . S
C2103 N2105 1.384 . S
N2104 C2100 1.427 . S
N2104 C2101 1.384 . S
N2105 C2097 1.427 . S
N2105 C2103 1.384 . S
H2106 C2112 0.930 . S
H2107 C2116 0.930 . S
H2108 C2121 0.934 . S
H2109 C2119 0.929 . S
H2110 C2114 0.929 . S
H2111 C2120 0.929 . S
C2112 H2106 0.930 . S
C2112 C2113 1.367 . S
C2112 C2120 1.378 1_455 S
C2113 C2112 1.367 . S
C2113 C2121 1.448 . S
C2114 H2110 0.929 . S
C2114 C2116 1.378 . S
C2114 C2118 1.350 . S
C2115 C2118 1.463 . S
C2115 C2120 1.350 . S
C2115 N2123 1.427 . S
C2116 H2107 0.930 . S
C2116 C2114 1.378 . S
C2116 C2117 1.367 . S
C2117 C2116 1.367 . S
C2117 C2119 1.433 . S
C2118 C2114 1.350 . S
C2118 C2115 1.463 . S
C2118 N2122 1.427 . S
C2119 H2109 0.929 . S
C2119 C2117 1.433 . S
C2119 N2122 1.384 . S
C2120 H2111 0.929 . S
C2120 C2112 1.378 1_655 S
C2120 C2115 1.350 . S
C2121 H2108 0.934 . S
C2121 C2113 1.448 . S
C2121 N2123 1.364 1_455 S
N2122 C2118 1.427 . S
N2122 C2119 1.384 . S
N2123 C2115 1.427 . S
N2123 C2121 1.364 1_655 S
H2124 C2130 0.930 . S
H2125 C2134 0.930 . S
H2126 C2139 0.929 . S
H2127 C2137 0.929 . S
H2128 C2132 0.929 . S
H2129 C2138 0.929 . S
C2130 H2124 0.930 . S
C2130 C2131 1.367 . S
C2130 C2138 1.378 . S
C2131 C2130 1.367 . S
C2131 C2139 1.433 . S
C2132 H2128 0.929 . S
C2132 C2134 1.378 . S
C2132 C2136 1.350 . S
C2133 C2136 1.463 . S
C2133 C2138 1.350 . S
C2133 N2141 1.427 . S
C2134 H2125 0.930 . S
C2134 C2132 1.378 . S
C2134 C2135 1.367 . S
C2135 C2134 1.367 . S
C2135 C2137 1.433 . S
C2136 C2132 1.350 . S
C2136 C2133 1.463 . S
C2136 N2140 1.427 . S
C2137 H2127 0.929 . S
C2137 C2135 1.433 . S
C2137 N2140 1.384 . S
C2138 H2129 0.929 . S
C2138 C2130 1.378 . S
C2138 C2133 1.350 . S
C2139 H2126 0.929 . S
C2139 C2131 1.433 . S
C2139 N2141 1.384 . S
N2140 C2136 1.427 . S
N2140 C2137 1.384 . S
N2141 C2133 1.427 . S
N2141 C2139 1.384 . S
H2142 C2148 0.930 . S
H2143 C2152 0.930 . S
H2144 C2157 0.929 . S
H2145 C2155 0.929 . S
H2146 C2150 0.929 . S
H2147 C2156 0.929 . S
C2148 H2142 0.930 . S
C2148 C2149 1.367 . S
C2148 C2156 1.378 . S
C2149 C2148 1.367 . S
C2149 C2157 1.433 . S
C2150 H2146 0.929 . S
C2150 C2152 1.378 . S
C2150 C2154 1.350 . S
C2151 C2154 1.463 . S
C2151 C2156 1.350 . S
C2151 N2159 1.427 . S
C2152 H2143 0.930 . S
C2152 C2150 1.378 . S
C2152 C2153 1.367 . S
C2153 C2152 1.367 . S
C2153 C2155 1.433 . S
C2154 C2150 1.350 . S
C2154 C2151 1.463 . S
C2154 N2158 1.427 . S
C2155 H2145 0.929 . S
C2155 C2153 1.433 . S
C2155 N2158 1.384 . S
C2156 H2147 0.929 . S
C2156 C2148 1.378 . S
C2156 C2151 1.350 . S
C2157 H2144 0.929 . S
C2157 C2149 1.433 . S
C2157 N2159 1.384 . S
N2158 C2154 1.427 . S
N2158 C2155 1.384 . S
N2159 C2151 1.427 . S
N2159 C2157 1.384 . S
H2160 C2166 0.930 . S
H2161 C2170 0.930 . S
H2162 C2175 0.929 . S
H2163 C2173 0.929 . S
H2164 C2168 0.929 . S
H2165 C2174 0.929 . S
C2166 H2160 0.930 . S
C2166 C2167 1.367 . S
C2166 C2174 1.378 . S
C2167 C2166 1.367 . S
C2167 C2175 1.433 . S
C2168 H2164 0.929 . S
C2168 C2170 1.378 . S
C2168 C2172 1.350 . S
C2169 C2172 1.463 . S
C2169 C2174 1.350 . S
C2169 N2177 1.427 . S
C2170 H2161 0.930 . S
C2170 C2168 1.378 . S
C2170 C2171 1.367 . S
C2171 C2170 1.367 . S
C2171 C2173 1.433 . S
C2172 C2168 1.350 . S
C2172 C2169 1.463 . S
C2172 N2176 1.427 . S
C2173 H2163 0.929 . S
C2173 C2171 1.433 . S
C2173 N2176 1.384 . S
C2174 H2165 0.929 . S
C2174 C2166 1.378 . S
C2174 C2169 1.350 . S
C2175 H2162 0.929 . S
C2175 C2167 1.433 . S
C2175 N2177 1.384 . S
N2176 C2172 1.427 . S
N2176 C2173 1.384 . S
N2177 C2169 1.427 . S
N2177 C2175 1.384 . S
H2178 C2184 0.930 . S
H2179 C2188 0.930 . S
H2180 C2193 0.929 . S
H2181 C2191 0.929 . S
H2182 C2186 0.929 . S
H2183 C2192 0.929 . S
C2184 H2178 0.930 . S
C2184 C2185 1.367 . S
C2184 C2192 1.378 . S
C2185 C2184 1.367 . S
C2185 C2193 1.433 . S
C2186 H2182 0.929 . S
C2186 C2188 1.378 . S
C2186 C2190 1.350 . S
C2187 C2190 1.463 . S
C2187 C2192 1.350 . S
C2187 N2195 1.427 . S
C2188 H2179 0.930 . S
C2188 C2186 1.378 . S
C2188 C2189 1.367 . S
C2189 C2188 1.367 . S
C2189 C2191 1.433 . S
C2190 C2186 1.350 . S
C2190 C2187 1.463 . S
C2190 N2194 1.427 . S
C2191 H2181 0.929 . S
C2191 C2189 1.433 . S
C2191 N2194 1.384 . S
C2192 H2183 0.929 . S
C2192 C2184 1.378 . S
C2192 C2187 1.350 . S
C2193 H2180 0.929 . S
C2193 C2185 1.433 . S
C2193 N2195 1.384 . S
N2194 C2190 1.427 . S
N2194 C2191 1.384 . S
N2195 C2187 1.427 . S
N2195 C2193 1.384 . S
H2196 C2202 0.930 . S
H2197 C2206 0.930 . S
H2198 C2211 0.929 . S
H2199 C2209 0.929 . S
H2200 C2204 0.929 . S
H2201 C2210 0.929 . S
C2202 H2196 0.930 . S
C2202 C2203 1.367 . S
C2202 C2210 1.378 . S
C2203 C2202 1.367 . S
C2203 C2211 1.433 . S
C2204 H2200 0.929 . S
C2204 C2206 1.378 . S
C2204 C2208 1.350 . S
C2205 C2208 1.463 . S
C2205 C2210 1.350 . S
C2205 N2213 1.427 . S
C2206 H2197 0.930 . S
C2206 C2204 1.378 . S
C2206 C2207 1.367 . S
C2207 C2206 1.367 . S
C2207 C2209 1.433 . S
C2208 C2204 1.350 . S
C2208 C2205 1.463 . S
C2208 N2212 1.427 . S
C2209 H2199 0.929 . S
C2209 C2207 1.433 . S
C2209 N2212 1.384 . S
C2210 H2201 0.929 . S
C2210 C2202 1.378 . S
C2210 C2205 1.350 . S
C2211 H2198 0.929 . S
C2211 C2203 1.433 . S
C2211 N2213 1.384 . S
N2212 C2208 1.427 . S
N2212 C2209 1.384 . S
N2213 C2205 1.427 . S
N2213 C2211 1.384 . S
H2214 C2220 0.930 . S
H2215 C2224 0.930 . S
H2216 C2229 0.929 . S
H2217 C2227 0.929 . S
H2218 C2222 0.929 . S
H2219 C2228 0.929 . S
C2220 H2214 0.930 . S
C2220 C2221 1.367 . S
C2220 C2228 1.378 1_655 S
C2221 C2220 1.367 . S
C2221 C2229 1.433 . S
C2222 H2218 0.929 . S
C2222 C2224 1.378 . S
C2222 C2226 1.350 . S
C2223 C2226 1.463 . S
C2223 C2228 1.350 . S
C2223 N2231 1.427 . S
C2224 H2215 0.930 . S
C2224 C2222 1.378 . S
C2224 C2225 1.367 . S
C2225 C2224 1.367 . S
C2225 C2227 1.433 . S
C2226 C2222 1.350 . S
C2226 C2223 1.463 . S
C2226 N2230 1.427 . S
C2227 H2217 0.929 . S
C2227 C2225 1.433 . S
C2227 N2230 1.384 . S
C2228 H2219 0.929 . S
C2228 C2220 1.378 1_455 S
C2228 C2223 1.350 . S
C2229 H2216 0.929 . S
C2229 C2221 1.433 . S
C2229 N2231 1.384 1_655 S
N2230 C2226 1.427 . S
N2230 C2227 1.384 . S
N2231 C2223 1.427 . S
N2231 C2229 1.384 1_455 S
H2232 C2238 0.930 . S
H2233 C2242 0.930 . S
H2234 C2247 0.929 . S
H2235 C2245 0.929 . S
H2236 C2240 0.929 . S
H2237 C2246 0.929 . S
C2238 H2232 0.930 . S
C2238 C2239 1.367 . S
C2238 C2246 1.378 . S
C2239 C2238 1.367 . S
C2239 C2247 1.433 . S
C2240 H2236 0.929 . S
C2240 C2242 1.378 . S
C2240 C2244 1.350 . S
C2241 C2244 1.463 . S
C2241 C2246 1.350 . S
C2241 N2249 1.427 . S
C2242 H2233 0.930 . S
C2242 C2240 1.378 . S
C2242 C2243 1.367 . S
C2243 C2242 1.367 . S
C2243 C2245 1.433 . S
C2244 C2240 1.350 . S
C2244 C2241 1.463 . S
C2244 N2248 1.427 . S
C2245 H2235 0.929 . S
C2245 C2243 1.433 . S
C2245 N2248 1.384 . S
C2246 H2237 0.929 . S
C2246 C2238 1.378 . S
C2246 C2241 1.350 . S
C2247 H2234 0.929 . S
C2247 C2239 1.433 . S
C2247 N2249 1.384 . S
N2248 C2244 1.427 . S
N2248 C2245 1.384 . S
N2249 C2241 1.427 . S
N2249 C2247 1.384 . S
H2250 C2256 0.930 . S
H2251 C2260 0.930 . S
H2252 C2265 0.929 . S
H2253 C2263 0.929 . S
H2254 C2258 0.929 . S
H2255 C2264 0.929 . S
C2256 H2250 0.930 . S
C2256 C2257 1.367 . S
C2256 C2264 1.378 . S
C2257 C2256 1.367 . S
C2257 C2265 1.433 . S
C2258 H2254 0.929 . S
C2258 C2260 1.380 1_455 S
C2258 C2262 1.350 . S
C2259 C2262 1.463 . S
C2259 C2264 1.350 . S
C2259 N2267 1.427 . S
C2260 H2251 0.930 . S
C2260 C2258 1.380 1_655 S
C2260 C2261 1.365 . S
C2261 C2260 1.365 . S
C2261 C2263 1.433 . S
C2262 C2258 1.350 . S
C2262 C2259 1.463 . S
C2262 N2266 1.427 . S
C2263 H2253 0.929 . S
C2263 C2261 1.433 . S
C2263 N2266 1.384 1_655 S
C2264 H2255 0.929 . S
C2264 C2256 1.378 . S
C2264 C2259 1.350 . S
C2265 H2252 0.929 . S
C2265 C2257 1.433 . S
C2265 N2267 1.384 . S
N2266 C2262 1.427 . S
N2266 C2263 1.384 1_455 S
N2267 C2259 1.427 . S
N2267 C2265 1.384 . S
H2268 C2274 0.930 . S
H2269 C2278 0.930 . S
H2270 C2283 0.929 . S
H2271 C2281 0.929 . S
H2272 C2276 0.929 . S
H2273 C2282 0.929 . S
C2274 H2268 0.930 . S
C2274 C2275 1.367 . S
C2274 C2282 1.378 . S
C2275 C2274 1.367 . S
C2275 C2283 1.433 . S
C2276 H2272 0.929 . S
C2276 C2278 1.378 . S
C2276 C2280 1.350 . S
C2277 C2280 1.463 . S
C2277 C2282 1.350 . S
C2277 N2285 1.427 . S
C2278 H2269 0.930 . S
C2278 C2276 1.378 . S
C2278 C2279 1.367 . S
C2279 C2278 1.367 . S
C2279 C2281 1.433 . S
C2280 C2276 1.350 . S
C2280 C2277 1.463 . S
C2280 N2284 1.427 . S
C2281 H2271 0.929 . S
C2281 C2279 1.433 . S
C2281 N2284 1.384 . S
C2282 H2273 0.929 . S
C2282 C2274 1.378 . S
C2282 C2277 1.350 . S
C2283 H2270 0.929 . S
C2283 C2275 1.433 . S
C2283 N2285 1.384 . S
N2284 C2280 1.427 . S
N2284 C2281 1.384 . S
N2285 C2277 1.427 . S
N2285 C2283 1.384 . S
H2286 C2292 0.930 . S
H2287 C2296 0.930 . S
H2288 C2301 0.929 . S
H2289 C2299 0.929 . S
H2290 C2294 0.929 . S
H2291 C2300 0.929 . S
C2292 H2286 0.930 . S
C2292 C2293 1.367 . S
C2292 C2300 1.378 . S
C2293 C2292 1.367 . S
C2293 C2301 1.433 . S
C2294 H2290 0.929 . S
C2294 C2296 1.378 . S
C2294 C2298 1.350 . S
C2295 C2298 1.463 . S
C2295 C2300 1.350 . S
C2295 N2303 1.427 . S
C2296 H2287 0.930 . S
C2296 C2294 1.378 . S
C2296 C2297 1.367 . S
C2297 C2296 1.367 . S
C2297 C2299 1.433 . S
C2298 C2294 1.350 . S
C2298 C2295 1.463 . S
C2298 N2302 1.427 . S
C2299 H2289 0.929 . S
C2299 C2297 1.433 . S
C2299 N2302 1.384 . S
C2300 H2291 0.929 . S
C2300 C2292 1.378 . S
C2300 C2295 1.350 . S
C2301 H2288 0.929 . S
C2301 C2293 1.433 . S
C2301 N2303 1.384 . S
N2302 C2298 1.427 . S
N2302 C2299 1.384 . S
N2303 C2295 1.427 . S
N2303 C2301 1.384 . S
C1159 C148 1.505 . S
C1163 C4 1.504 . S
C1177 C184 1.503 . S
C1181 C40 1.502 . S
C1195 C220 1.501 . S
C1199 C76 1.501 . S
C1213 C112 1.503 . S
C1217 C256 1.502 . S
C1231 C292 1.504 . S
C1235 C436 1.505 . S
C1249 C472 1.504 . S
C1253 C328 1.503 . S
C1267 C364 1.502 . S
C1271 C508 1.501 . S
C1285 C544 1.505 . S
C1289 C400 1.504 . S
C1303 C580 1.502 . S
C1307 C724 1.503 . S
C1321 C760 1.502 . S
C1325 C616 1.503 . S
C1339 C796 1.501 . S
C1343 C652 1.502 . S
C1357 C832 1.502 . S
C1361 C688 1.502 . S
C1375 C868 1.504 . S
C1379 C1012 1.505 . S
C1393 C904 1.504 . S
C1397 C1048 1.504 . S
C1411 C940 1.502 . S
C1415 C1084 1.501 . S
C1429 C976 1.504 . S
C1433 C1120 1.503 . S
C1447 C14 1.092 . S
C1451 C266 1.087 . S
C1465 C50 1.085 . S
C1469 C158 1.096 . S
C1483 C86 1.094 . S
C1487 C194 1.095 . S
C1501 C230 1.093 . S
C1505 C122 1.077 . S
C1519 C554 1.095 . S
C1523 C302 1.095 . S
C1537 C446 1.092 . S
C1541 C338 1.092 . S
C1555 C482 1.076 . S
C1559 C374 1.086 . S
C1573 C410 1.080 . S
C1577 C518 1.080 . S
C1591 C842 1.079 . S
C1595 C590 1.094 . S
C1609 C734 1.080 . S
C1613 C626 1.080 . S
C1627 C770 1.086 . S
C1631 C662 1.096 . S
C1645 C698 1.081 . S
C1649 C806 1.096 . S
C1663 C878 1.094 . S
C1667 C1130 1.079 . S
C1681 C914 1.077 . S
C1685 C1022 1.085 . S
C1699 C950 1.076 . S
C1703 C1058 1.086 . S
C1717 C1094 1.076 . S
C1721 C986 1.087 . S
C1735 C3 1.456 . S
C1739 C902 1.431 . S
C1753 C39 1.456 . S
C1757 C362 1.426 . S
C1771 C75 1.456 . S
C1775 C974 1.429 . S
C1789 C290 1.425 . S
C1793 C111 1.457 . S
C1807 C1118 1.428 . S
C1811 C147 1.456 . S
C1825 C183 1.457 . S
C1829 C434 1.427 . S
C1843 C219 1.457 . S
C1847 C1046 1.430 . S
C1861 C255 1.456 . S
C1865 C506 1.434 . S
C1879 C614 1.430 . S
C1883 C291 1.456 . S
C1897 C74 1.433 . S
C1901 C327 1.457 . S
C1915 C686 1.432 . S
C1919 C363 1.456 . S
C1933 C399 1.457 . S
C1937 C2 1.435 . S
C1951 C830 1.433 . S
C1955 C435 1.456 . S
C1969 C146 1.427 . S
C1973 C471 1.457 . S
C1987 C758 1.426 . S
C1991 C507 1.457 . S
C2005 C218 1.436 . S
C2009 C543 1.457 . S
C2023 C326 1.426 . S
C2027 C579 1.456 . S
C2041 C615 1.457 . S
C2045 C938 1.436 . S
C2059 C651 1.457 . S
C2063 C398 1.429 . S
C2077 C687 1.456 . S
C2081 C866 1.427 . S
C2095 C723 1.457 . S
C2099 C542 1.431 . S
C2113 C1010 1.426 . S
C2117 C759 1.457 . S
C2131 C795 1.457 . S
C2135 C470 1.427 . S
C2149 C831 1.457 . S
C2153 C1082 1.435 . S
C2167 C867 1.456 . S
C2171 C38 1.426 . S
C2185 C903 1.457 . S
C2189 C650 1.436 . S
C2203 C110 1.434 . S
C2207 C939 1.457 . S
C2221 C578 1.426 . S
C2225 C975 1.456 . S
C2239 C1011 1.456 . S
C2243 C254 1.426 . S
C2257 C1047 1.456 . S
C2261 C722 1.429 . S
C2275 C182 1.435 . S
C2279 C1083 1.457 . S
C2293 C794 1.433 . S
C2297 C1119 1.456 . S
