# Generated by pormake.
# Topology snl, (6)-cn, num edge types: 1
# Building blocks:
#     Node 0, Type 0, BuildingBlock: KUMBOL_clean_sbu_1, # of connection points: 6
#     Node 1, Type 0, BuildingBlock: KUMBOL_clean_sbu_1, # of connection points: 6
#     Node 2, Type 0, BuildingBlock: KUMBOL_clean_sbu_1, # of connection points: 6
#     Node 3, Type 0, BuildingBlock: KUMBOL_clean_sbu_1, # of connection points: 6
#     Node 4, Type 0, BuildingBlock: KUMBOL_clean_sbu_1, # of connection points: 6
#     Node 5, Type 0, BuildingBlock: KUMBOL_clean_sbu_1, # of connection points: 6
#     Node 6, Type 0, BuildingBlock: KUMBOL_clean_sbu_1, # of connection points: 6
#     Node 7, Type 0, BuildingBlock: KUMBOL_clean_sbu_1, # of connection points: 6
#     Node 8, Type 0, BuildingBlock: KUMBOL_clean_sbu_1, # of connection points: 6
#     Node 9, Type 0, BuildingBlock: KUMBOL_clean_sbu_1, # of connection points: 6
#     Node 10, Type 0, BuildingBlock: KUMBOL_clean_sbu_1, # of connection points: 6
#     Node 11, Type 0, BuildingBlock: KUMBOL_clean_sbu_1, # of connection points: 6
#     Node 12, Type 0, BuildingBlock: KUMBOL_clean_sbu_1, # of connection points: 6
#     Node 13, Type 0, BuildingBlock: KUMBOL_clean_sbu_1, # of connection points: 6
#     Node 14, Type 0, BuildingBlock: KUMBOL_clean_sbu_1, # of connection points: 6
#     Node 15, Type 0, BuildingBlock: KUMBOL_clean_sbu_1, # of connection points: 6
#     Edge 16, Type (0, 0), BuildingBlock: MIFKUJ_clean_linker_0, # of connection points: 2
#     Edge 17, Type (0, 0), BuildingBlock: MIFKUJ_clean_linker_0, # of connection points: 2
#     Edge 18, Type (0, 0), BuildingBlock: MIFKUJ_clean_linker_0, # of connection points: 2
#     Edge 19, Type (0, 0), BuildingBlock: MIFKUJ_clean_linker_0, # of connection points: 2
#     Edge 20, Type (0, 0), BuildingBlock: MIFKUJ_clean_linker_0, # of connection points: 2
#     Edge 21, Type (0, 0), BuildingBlock: MIFKUJ_clean_linker_0, # of connection points: 2
#     Edge 22, Type (0, 0), BuildingBlock: MIFKUJ_clean_linker_0, # of connection points: 2
#     Edge 23, Type (0, 0), BuildingBlock: MIFKUJ_clean_linker_0, # of connection points: 2
#     Edge 24, Type (0, 0), BuildingBlock: MIFKUJ_clean_linker_0, # of connection points: 2
#     Edge 25, Type (0, 0), BuildingBlock: MIFKUJ_clean_linker_0, # of connection points: 2
#     Edge 26, Type (0, 0), BuildingBlock: MIFKUJ_clean_linker_0, # of connection points: 2
#     Edge 27, Type (0, 0), BuildingBlock: MIFKUJ_clean_linker_0, # of connection points: 2
#     Edge 28, Type (0, 0), BuildingBlock: MIFKUJ_clean_linker_0, # of connection points: 2
#     Edge 29, Type (0, 0), BuildingBlock: MIFKUJ_clean_linker_0, # of connection points: 2
#     Edge 30, Type (0, 0), BuildingBlock: MIFKUJ_clean_linker_0, # of connection points: 2
#     Edge 31, Type (0, 0), BuildingBlock: MIFKUJ_clean_linker_0, # of connection points: 2
#     Edge 32, Type (0, 0), BuildingBlock: MIFKUJ_clean_linker_0, # of connection points: 2
#     Edge 33, Type (0, 0), BuildingBlock: MIFKUJ_clean_linker_0, # of connection points: 2
#     Edge 34, Type (0, 0), BuildingBlock: MIFKUJ_clean_linker_0, # of connection points: 2
#     Edge 35, Type (0, 0), BuildingBlock: MIFKUJ_clean_linker_0, # of connection points: 2
#     Edge 36, Type (0, 0), BuildingBlock: MIFKUJ_clean_linker_0, # of connection points: 2
#     Edge 37, Type (0, 0), BuildingBlock: MIFKUJ_clean_linker_0, # of connection points: 2
#     Edge 38, Type (0, 0), BuildingBlock: MIFKUJ_clean_linker_0, # of connection points: 2
#     Edge 39, Type (0, 0), BuildingBlock: MIFKUJ_clean_linker_0, # of connection points: 2
#     Edge 40, Type (0, 0), BuildingBlock: MIFKUJ_clean_linker_0, # of connection points: 2
#     Edge 41, Type (0, 0), BuildingBlock: MIFKUJ_clean_linker_0, # of connection points: 2
#     Edge 42, Type (0, 0), BuildingBlock: MIFKUJ_clean_linker_0, # of connection points: 2
#     Edge 43, Type (0, 0), BuildingBlock: MIFKUJ_clean_linker_0, # of connection points: 2
#     Edge 44, Type (0, 0), BuildingBlock: MIFKUJ_clean_linker_0, # of connection points: 2
#     Edge 45, Type (0, 0), BuildingBlock: MIFKUJ_clean_linker_0, # of connection points: 2
#     Edge 46, Type (0, 0), BuildingBlock: MIFKUJ_clean_linker_0, # of connection points: 2
#     Edge 47, Type (0, 0), BuildingBlock: MIFKUJ_clean_linker_0, # of connection points: 2
#     Edge 48, Type (0, 0), BuildingBlock: MIFKUJ_clean_linker_0, # of connection points: 2
#     Edge 49, Type (0, 0), BuildingBlock: MIFKUJ_clean_linker_0, # of connection points: 2
#     Edge 50, Type (0, 0), BuildingBlock: MIFKUJ_clean_linker_0, # of connection points: 2
#     Edge 51, Type (0, 0), BuildingBlock: MIFKUJ_clean_linker_0, # of connection points: 2
#     Edge 52, Type (0, 0), BuildingBlock: MIFKUJ_clean_linker_0, # of connection points: 2
#     Edge 53, Type (0, 0), BuildingBlock: MIFKUJ_clean_linker_0, # of connection points: 2
#     Edge 54, Type (0, 0), BuildingBlock: MIFKUJ_clean_linker_0, # of connection points: 2
#     Edge 55, Type (0, 0), BuildingBlock: MIFKUJ_clean_linker_0, # of connection points: 2
#     Edge 56, Type (0, 0), BuildingBlock: MIFKUJ_clean_linker_0, # of connection points: 2
#     Edge 57, Type (0, 0), BuildingBlock: MIFKUJ_clean_linker_0, # of connection points: 2
#     Edge 58, Type (0, 0), BuildingBlock: MIFKUJ_clean_linker_0, # of connection points: 2
#     Edge 59, Type (0, 0), BuildingBlock: MIFKUJ_clean_linker_0, # of connection points: 2
#     Edge 60, Type (0, 0), BuildingBlock: MIFKUJ_clean_linker_0, # of connection points: 2
#     Edge 61, Type (0, 0), BuildingBlock: MIFKUJ_clean_linker_0, # of connection points: 2
#     Edge 62, Type (0, 0), BuildingBlock: MIFKUJ_clean_linker_0, # of connection points: 2
#     Edge 63, Type (0, 0), BuildingBlock: MIFKUJ_clean_linker_0, # of connection points: 2
# Relax obj value: 0.164
# Max RMSD: 0.225
# Mean RMSD: 0.221
data_MOF--net-snl--node1-KUMBOL_clean_sbu_1--edge1-MIFKUJ_clean_linker_0
_symmetry_space_group_name_H-M    P1
_symmetry_Int_Tables_number       1
_symmetry_cell_setting            triclinic
loop_
_symmetry_equiv_pos_as_xyz
'x, y, z'
_cell_length_a     75.528795
_cell_length_b     75.487517
_cell_length_c     29.785487
_cell_angle_alpha  90.280573
_cell_angle_beta   90.551894
_cell_angle_gamma 89.976693
loop_
_atom_site_label
_atom_site_type_symbol
_atom_site_fract_x
_atom_site_fract_y
_atom_site_fract_z
_atom_type_partial_charge
C0 C 0.11007 0.58337 0.20707 0.0
C1 C 0.13435 0.56294 0.22129 0.0
C2 C 0.12823 0.58012 0.21121 0.0
C3 C 0.12213 0.54917 0.22693 0.0
C4 C 0.09782 0.56945 0.21187 0.0
C5 C 0.10395 0.55235 0.22179 0.0
N6 N 0.10443 0.60011 0.19779 0.0
C7 C 0.08681 0.60395 0.19471 0.0
C8 C 0.07973 0.57318 0.20705 0.0
C9 C 0.07421 0.59052 0.19866 0.0
Gd10 Gd 0.1414 0.63361 0.07055 0.0
Gd11 Gd 0.12673 0.62146 0.19326 0.0
N12 N 0.13986 0.59372 0.20548 0.0
C13 C 0.15258 0.56016 0.22633 0.0
C14 C 0.15749 0.5913 0.21346 0.0
C15 C 0.16417 0.57445 0.22287 0.0
H16 H 0.16642 0.60231 0.21462 0.0
H17 H 0.17823 0.57258 0.22857 0.0
H18 H 0.10277 0.65465 0.04902 0.0
H19 H 0.0824 0.61744 0.19041 0.0
H20 H 0.09283 0.68431 0.0271 0.0
H21 H 0.15778 0.54714 0.23409 0.0
H22 H 0.12666 0.53606 0.23594 0.0
H23 H 0.18608 0.63488 0.06981 0.0
H24 H 0.06992 0.56282 0.21041 0.0
H25 H 0.06025 0.5936 0.19585 0.0
H26 H 0.14646 0.71741 0.01121 0.0
H27 H 0.09472 0.54153 0.22617 0.0
H28 H 0.20161 0.68771 0.03767 0.0
H29 H 0.20952 0.657 0.05837 0.0
N30 N 0.16499 0.65315 0.05894 0.0
C31 C 0.16034 0.66983 0.04648 0.0
C32 C 0.18239 0.64837 0.06246 0.0
C33 C 0.19122 0.67811 0.04337 0.0
C34 C 0.19575 0.66081 0.05523 0.0
C35 C 0.17337 0.68278 0.03845 0.0
H36 H 0.17803 0.71009 0.0198 0.0
N37 N 0.13006 0.66157 0.05229 0.0
C38 C 0.14243 0.67408 0.04247 0.0
C39 C 0.11926 0.69486 0.02406 0.0
C40 C 0.13729 0.69121 0.02915 0.0
C41 C 0.11248 0.66492 0.04565 0.0
C42 C 0.10679 0.68168 0.03216 0.0
O43 O 0.12424 0.60088 0.13565 0.0
O44 O 0.1483 0.60603 0.09214 0.0
O45 O 0.12776 0.62436 0.00982 0.0
O46 O 0.15534 0.63169 0.00744 0.0
O47 O 0.15468 0.63179 0.1843 0.0
O48 O 0.16316 0.62158 0.11484 0.0
O49 O 0.14329 0.65564 0.12266 0.0
O50 O 0.12215 0.65074 0.17658 0.0
O51 O 0.13929 0.62564 0.25881 0.0
O52 O 0.1109 0.62313 0.25342 0.0
O53 O 0.11197 0.62647 0.08276 0.0
O54 O 0.10574 0.63608 0.15463 0.0
C55 C 0.13632 0.59516 0.10733 0.0
C56 C 0.16712 0.62708 0.15597 0.0
C57 C 0.14494 0.6129 0.94958 0.0
C58 C 0.14606 0.60526 0.86936 0.0
C59 C 0.15716 0.58474 0.92635 0.0
C60 C 0.15265 0.59661 0.96039 0.0
C61 C 0.15411 0.58906 0.88134 0.0
C62 C 0.14147 0.61712 0.90427 0.0
C63 C 0.14164 0.62626 0.98462 0.0
C64 C 0.15023 0.70413 0.02111 0.0
C65 C 0.16821 0.69995 0.02597 0.0
H66 H 0.11492 0.70765 0.01262 0.0
C67 C 0.13213 0.66155 0.15283 0.0
C68 C 0.1006 0.63176 0.1138 0.0
C69 C 0.12206 0.6385 0.3168 0.0
C70 C 0.12324 0.64551 0.39742 0.0
C71 C 0.11028 0.66635 0.34382 0.0
C72 C 0.11397 0.65486 0.30837 0.0
C73 C 0.11465 0.66168 0.38787 0.0
C74 C 0.12688 0.63394 0.36114 0.0
C75 C 0.12436 0.62552 0.28028 0.0
H76 H 0.16335 0.57224 0.93482 0.0
H77 H 0.1555 0.59325 0.99502 0.0
H78 H 0.15843 0.57973 0.85601 0.0
H79 H 0.13528 0.6297 0.89651 0.0
H80 H 0.10372 0.67883 0.33723 0.0
H81 H 0.11017 0.65856 0.27451 0.0
H82 H 0.11094 0.67072 0.41446 0.0
H83 H 0.13337 0.62136 0.36711 0.0
C84 C 0.68083 0.85949 0.45875 0.0
C85 C 0.70264 0.88185 0.47974 0.0
C86 C 0.68517 0.8771 0.46781 0.0
C87 C 0.71589 0.86882 0.48056 0.0
C88 C 0.69404 0.8463 0.46129 0.0
C89 C 0.71162 0.85112 0.47114 0.0
N90 N 0.66361 0.85511 0.45025 0.0
C91 C 0.65856 0.83773 0.44953 0.0
C92 C 0.68909 0.82856 0.45569 0.0
C93 C 0.67123 0.82425 0.45074 0.0
Gd94 Gd 0.63148 0.89112 0.32156 0.0
Gd95 Gd 0.64381 0.87916 0.44926 0.0
N96 N 0.67225 0.88963 0.4651 0.0
C97 C 0.70626 0.89959 0.49053 0.0
C98 C 0.67546 0.90678 0.47754 0.0
C99 C 0.69257 0.91207 0.4898 0.0
H100 H 0.66479 0.9163 0.47771 0.0
H101 H 0.69518 0.92573 0.49885 0.0
H102 H 0.61978 0.85113 0.27821 0.0
H103 H 0.64476 0.83408 0.44924 0.0
H104 H 0.59394 0.83772 0.24084 0.0
H105 H 0.71952 0.90375 0.4999 0.0
H106 H 0.72945 0.87225 0.48905 0.0
H107 H 0.62123 0.93422 0.33529 0.0
H108 H 0.69886 0.81806 0.4573 0.0
H109 H 0.66715 0.81051 0.44888 0.0
H110 H 0.55228 0.88536 0.22723 0.0
H111 H 0.72195 0.84116 0.47284 0.0
H112 H 0.56868 0.94226 0.28587 0.0
H113 H 0.5959 0.95392 0.32213 0.0
N114 N 0.60815 0.91113 0.31066 0.0
C115 C 0.59372 0.90465 0.28847 0.0
C116 C 0.60928 0.9287 0.32131 0.0
C117 C 0.57972 0.93343 0.29234 0.0
C118 C 0.59501 0.94004 0.31303 0.0
C119 C 0.579 0.9156 0.27928 0.0
H120 H 0.55264 0.91669 0.25011 0.0
N121 N 0.60777 0.87653 0.28577 0.0
C122 C 0.59358 0.88693 0.27537 0.0
C123 C 0.57875 0.86186 0.24095 0.0
C124 C 0.57863 0.8798 0.25299 0.0
C125 C 0.60816 0.85915 0.27281 0.0
C126 C 0.59361 0.85153 0.25072 0.0
O127 O 0.66484 0.88985 0.40004 0.0
O128 O 0.65595 0.87561 0.33739 0.0
O129 O 0.63352 0.88774 0.24895 0.0
O130 O 0.64798 0.90912 0.28333 0.0
O131 O 0.63146 0.90561 0.43593 0.0
O132 O 0.64204 0.9137 0.36704 0.0
O133 O 0.60817 0.89207 0.3695 0.0
O134 O 0.61438 0.87521 0.43333 0.0
O135 O 0.63793 0.89323 0.51141 0.0
O136 O 0.64374 0.86531 0.51294 0.0
O137 O 0.63836 0.86224 0.33722 0.0
O138 O 0.62975 0.85724 0.41043 0.0
C139 C 0.66864 0.88306 0.36046 0.0
C140 C 0.6373 0.91777 0.40861 0.0
C141 C 0.65151 0.90688 0.2019 0.0
C142 C 0.65368 0.90439 0.12006 0.0
C143 C 0.67275 0.92475 0.1615 0.0
C144 C 0.66501 0.91965 0.20168 0.0
C145 C 0.66722 0.91715 0.12104 0.0
C146 C 0.64569 0.89936 0.1607 0.0
C147 C 0.64421 0.90113 0.24541 0.0
C148 C 0.56391 0.89066 0.24412 0.0
C149 C 0.56409 0.90849 0.25725 0.0
H150 H 0.5675 0.85589 0.2239 0.0
C151 C 0.60319 0.88311 0.40527 0.0
C152 C 0.63249 0.85169 0.36908 0.0
C153 C 0.62602 0.87659 0.57096 0.0
C154 C 0.6178 0.87676 0.65032 0.0
C155 C 0.59656 0.86757 0.59249 0.0
C156 C 0.60909 0.87048 0.55926 0.0
C157 C 0.60086 0.87059 0.63762 0.0
C158 C 0.63036 0.87973 0.6164 0.0
C159 C 0.63948 0.87921 0.53634 0.0
H160 H 0.68318 0.93458 0.16175 0.0
H161 H 0.66977 0.92559 0.23269 0.0
H162 H 0.67346 0.92134 0.09024 0.0
H163 H 0.63531 0.88944 0.16024 0.0
H164 H 0.58352 0.86276 0.58331 0.0
H165 H 0.60567 0.86778 0.52452 0.0
H166 H 0.59095 0.86777 0.66262 0.0
H167 H 0.64347 0.88455 0.62514 0.0
C168 C 0.39864 0.4317 0.70963 0.0
C169 C 0.37362 0.45138 0.72155 0.0
C170 C 0.38038 0.43426 0.71343 0.0
C171 C 0.38529 0.46579 0.72562 0.0
C172 C 0.41036 0.44614 0.71422 0.0
C173 C 0.40359 0.46317 0.72213 0.0
N174 N 0.40488 0.4152 0.70002 0.0
C175 C 0.42262 0.41196 0.69809 0.0
C176 C 0.42858 0.44304 0.71037 0.0
C177 C 0.43472 0.42585 0.70265 0.0
Gd178 Gd 0.37033 0.38121 0.56827 0.0
Gd179 Gd 0.38353 0.39293 0.69493 0.0
N180 N 0.36927 0.42009 0.70848 0.0
C181 C 0.3553 0.45353 0.72556 0.0
C182 C 0.35152 0.42201 0.71484 0.0
C183 C 0.34424 0.43876 0.72267 0.0
H184 H 0.34294 0.41072 0.71535 0.0
H185 H 0.33011 0.44022 0.72716 0.0
H186 H 0.40746 0.36255 0.53382 0.0
H187 H 0.42751 0.39864 0.69393 0.0
H188 H 0.41706 0.3343 0.4995 0.0
H189 H 0.34961 0.46646 0.73188 0.0
H190 H 0.38029 0.47904 0.7317 0.0
H191 H 0.32541 0.38009 0.56423 0.0
H192 H 0.43801 0.45378 0.71378 0.0
H193 H 0.44879 0.42326 0.70059 0.0
H194 H 0.3633 0.30157 0.48267 0.0
H195 H 0.4124 0.47443 0.72553 0.0
H196 H 0.30948 0.32732 0.53334 0.0
H197 H 0.30187 0.35797 0.5551 0.0
N198 N 0.34647 0.36145 0.55871 0.0
C199 C 0.35093 0.34493 0.54431 0.0
C200 C 0.32906 0.36642 0.55986 0.0
C201 C 0.31997 0.33674 0.54053 0.0
C202 C 0.3156 0.35401 0.55289 0.0
C203 C 0.33773 0.33226 0.53401 0.0
H204 H 0.33252 0.30648 0.50453 0.0
N205 N 0.38097 0.35395 0.54349 0.0
C206 C 0.36861 0.34127 0.53515 0.0
C207 C 0.39105 0.32266 0.50183 0.0
C208 C 0.37335 0.32531 0.51384 0.0
C209 C 0.39806 0.35189 0.52966 0.0
C210 C 0.40346 0.33602 0.50976 0.0
O211 O 0.38615 0.41327 0.63751 0.0
O212 O 0.36186 0.40773 0.59444 0.0
O213 O 0.38291 0.39555 0.51375 0.0
O214 O 0.35883 0.38089 0.5011 0.0
O215 O 0.35603 0.38213 0.68613 0.0
O216 O 0.34743 0.3901 0.61433 0.0
O217 O 0.3829 0.35974 0.61043 0.0
O218 O 0.37377 0.36436 0.68264 0.0
O219 O 0.37687 0.39589 0.76544 0.0
O220 O 0.40137 0.38316 0.74682 0.0
O221 O 0.39917 0.38947 0.58336 0.0
O222 O 0.40504 0.37958 0.65558 0.0
C223 C 0.37374 0.41889 0.60953 0.0
C224 C 0.34364 0.38523 0.65595 0.0
C225 C 0.36686 0.4019 0.44635 0.0
C226 C 0.36671 0.40769 0.36571 0.0
C227 C 0.35449 0.42928 0.41789 0.0
C228 C 0.35854 0.41818 0.45392 0.0
C229 C 0.35865 0.42415 0.37407 0.0
C230 C 0.37071 0.39655 0.40214 0.0
C231 C 0.3715 0.3901 0.48367 0.0
C232 C 0.36015 0.31302 0.50258 0.0
C233 C 0.34251 0.31614 0.51399 0.0
H234 H 0.39515 0.31059 0.48514 0.0
C235 C 0.37755 0.35355 0.64898 0.0
C236 C 0.41031 0.38405 0.61518 0.0
C237 C 0.38795 0.37414 0.81468 0.0
C238 C 0.38345 0.36686 0.89394 0.0
C239 C 0.38435 0.34353 0.83704 0.0
C240 C 0.38687 0.3561 0.80355 0.0
C241 C 0.38273 0.34881 0.88182 0.0
C242 C 0.38615 0.37949 0.85984 0.0
C243 C 0.39087 0.38751 0.7796 0.0
H244 H 0.34809 0.44189 0.42393 0.0
H245 H 0.35514 0.4222 0.48755 0.0
H246 H 0.35532 0.43293 0.34658 0.0
H247 H 0.37702 0.38386 0.39617 0.0
H248 H 0.38373 0.32961 0.82829 0.0
H249 H 0.38806 0.35172 0.76902 0.0
H250 H 0.38113 0.33867 0.90705 0.0
H251 H 0.38666 0.39347 0.86819 0.0
C252 C 0.90045 0.08193 0.80158 0.0
C253 C 0.87617 0.06109 0.79447 0.0
C254 C 0.88236 0.07857 0.80067 0.0
C255 C 0.88835 0.04718 0.78909 0.0
C256 C 0.91271 0.0681 0.79477 0.0
C257 C 0.90656 0.05069 0.78901 0.0
N258 N 0.90609 0.09879 0.8085 0.0
C259 C 0.92349 0.10307 0.80469 0.0
C260 C 0.93075 0.07229 0.79301 0.0
C261 C 0.93607 0.08995 0.79708 0.0
Gd262 Gd 0.87289 0.13387 0.9452 0.0
Gd263 Gd 0.88436 0.12017 0.81918 0.0
N264 N 0.87088 0.09235 0.80607 0.0
C265 C 0.8579 0.05809 0.79368 0.0
C266 C 0.85307 0.08947 0.80406 0.0
C267 C 0.84632 0.07236 0.79821 0.0
H268 H 0.84391 0.10015 0.8067 0.0
H269 H 0.83215 0.07022 0.79706 0.0
H270 H 0.91053 0.15329 0.97794 0.0
H271 H 0.92766 0.11669 0.80606 0.0
H272 H 0.92123 0.18335 0.99806 0.0
H273 H 0.85261 0.04486 0.78912 0.0
H274 H 0.8838 0.03368 0.78442 0.0
H275 H 0.82894 0.13538 0.96306 0.0
H276 H 0.9406 0.06211 0.78723 0.0
H277 H 0.94973 0.09368 0.79359 0.0
H278 H 0.86909 0.21974 0.98766 0.0
H279 H 0.91578 0.03987 0.78405 0.0
H280 H 0.81347 0.18987 0.97052 0.0
H281 H 0.80541 0.15809 0.96782 0.0
N282 N 0.84964 0.15415 0.95596 0.0
C283 C 0.85446 0.17135 0.96179 0.0
C284 C 0.8324 0.14924 0.9612 0.0
C285 C 0.82374 0.17996 0.96674 0.0
C286 C 0.81913 0.16205 0.96514 0.0
C287 C 0.84164 0.18477 0.96681 0.0
H288 H 0.83745 0.21289 0.97746 0.0
N289 N 0.88418 0.16182 0.96471 0.0
C290 C 0.87227 0.17525 0.96744 0.0
C291 C 0.89565 0.19555 0.98864 0.0
C292 C 0.87774 0.19259 0.97845 0.0
C293 C 0.90142 0.16433 0.97752 0.0
C294 C 0.90747 0.18128 0.98904 0.0
O295 O 0.88761 0.10055 0.87746 0.0
O296 O 0.86366 0.10731 0.91968 0.0
O297 O 0.88565 0.1187 0.99837 0.0
O298 O 0.86352 0.13557 0.01388 0.0
O299 O 0.8563 0.12928 0.82675 0.0
O300 O 0.84813 0.12641 0.90161 0.0
O301 O 0.88579 0.15356 0.89901 0.0
O302 O 0.87293 0.14776 0.8313 0.0
O303 O 0.87914 0.11816 0.74602 0.0
O304 O 0.90104 0.13406 0.77362 0.0
O305 O 0.9016 0.12488 0.93227 0.0
O306 O 0.9069 0.13245 0.85848 0.0
C307 C 0.87515 0.09563 0.90546 0.0
C308 C 0.84417 0.12832 0.85812 0.0
C309 C 0.86929 0.11208 0.0636 0.0
C310 C 0.86661 0.10413 0.1428 0.0
C311 C 0.85485 0.08471 0.08401 0.0
C312 C 0.86047 0.0965 0.05118 0.0
C313 C 0.85784 0.08847 0.12943 0.0
C314 C 0.87233 0.11589 0.10929 0.0
C315 C 0.87528 0.12467 0.02962 0.0
C316 C 0.86512 0.20624 0.98022 0.0
C317 C 0.8471 0.20235 0.97426 0.0
H318 H 0.90038 0.20868 0.99739 0.0
C319 C 0.87897 0.15916 0.86114 0.0
C320 C 0.91262 0.12843 0.89904 0.0
C321 C 0.89839 0.13422 0.69292 0.0
C322 C 0.89444 0.13671 0.61158 0.0
C323 C 0.91915 0.1514 0.64889 0.0
C324 C 0.91359 0.14492 0.69001 0.0
C325 C 0.90964 0.14741 0.60998 0.0
C326 C 0.8889 0.12989 0.65324 0.0
C327 C 0.89253 0.12858 0.73796 0.0
H328 H 0.84803 0.07266 0.07423 0.0
H329 H 0.85785 0.0936 0.01622 0.0
H330 H 0.85297 0.07923 0.15409 0.0
H331 H 0.87929 0.12794 0.11858 0.0
H332 H 0.93085 0.15963 0.64719 0.0
H333 H 0.92122 0.14846 0.7197 0.0
H334 H 0.9143 0.15255 0.57831 0.0
H335 H 0.87715 0.12169 0.65479 0.0
C336 C 0.17944 0.36201 0.96435 0.0
C337 C 0.19957 0.3863 0.98159 0.0
C338 C 0.18258 0.38017 0.96903 0.0
C339 C 0.21334 0.37408 0.98863 0.0
C340 C 0.19327 0.34975 0.97128 0.0
C341 C 0.21021 0.35589 0.98341 0.0
N342 N 0.16299 0.3564 0.95171 0.0
C343 C 0.15928 0.33877 0.94756 0.0
C344 C 0.1897 0.33167 0.96551 0.0
C345 C 0.17261 0.32617 0.95382 0.0
Gd346 Gd 0.1302 0.39297 0.81881 0.0
Gd347 Gd 0.14176 0.37873 0.9434 0.0
N348 N 0.16916 0.3918 0.96043 0.0
C349 C 0.20224 0.40455 0.9867 0.0
C350 C 0.17136 0.40941 0.96896 0.0
C351 C 0.18799 0.41613 0.98103 0.0
H352 H 0.16026 0.41825 0.9686 0.0
H353 H 0.1897 0.43018 0.98694 0.0
H354 H 0.1113 0.35301 0.79553 0.0
H355 H 0.14594 0.33438 0.94078 0.0
H356 H 0.08274 0.34183 0.7688 0.0
H357 H 0.2151 0.40979 0.99618 0.0
H358 H 0.22648 0.37858 0.99807 0.0
H359 H 0.12604 0.43743 0.82428 0.0
H360 H 0.19999 0.32185 0.97043 0.0
H361 H 0.16964 0.3122 0.95017 0.0
H362 H 0.04957 0.39402 0.73685 0.0
H363 H 0.221 0.34666 0.98882 0.0
H364 H 0.07408 0.45041 0.77734 0.0
H365 H 0.1032 0.45974 0.8078 0.0
N366 N 0.10937 0.41546 0.80848 0.0
C367 C 0.09344 0.40998 0.79195 0.0
C368 C 0.11305 0.43307 0.81382 0.0
C369 C 0.08385 0.44047 0.78622 0.0
C370 C 0.10025 0.44581 0.80351 0.0
C371 C 0.08036 0.42242 0.77971 0.0
H372 H 0.05464 0.42597 0.74879 0.0
N373 N 0.10307 0.37998 0.79873 0.0
C374 C 0.09025 0.39183 0.78675 0.0
C375 C 0.07118 0.36777 0.76286 0.0
C376 C 0.07405 0.38597 0.76816 0.0
C377 C 0.1007 0.36229 0.79103 0.0
C378 C 0.08458 0.35589 0.77433 0.0
O379 O 0.16358 0.37604 0.88952 0.0
O380 O 0.15792 0.39884 0.84136 0.0
O381 O 0.1394 0.38102 0.75581 0.0
O382 O 0.13153 0.40847 0.75825 0.0
O383 O 0.13227 0.40698 0.93244 0.0
O384 O 0.14286 0.41445 0.86267 0.0
O385 O 0.10838 0.39581 0.87043 0.0
O386 O 0.11271 0.37397 0.92308 0.0
O387 O 0.13558 0.39099 0.00807 0.0
O388 O 0.13976 0.36275 1.00316 0.0
O389 O 0.1381 0.36389 0.83182 0.0
O390 O 0.1276 0.358 0.90266 0.0
C391 C 0.16864 0.38669 0.85698 0.0
C392 C 0.13722 0.41891 0.90303 0.0
C393 C 0.14945 0.40024 0.69732 0.0
C394 C 0.15667 0.39976 0.61721 0.0
C395 C 0.1732 0.41861 0.66948 0.0
C396 C 0.16265 0.413 0.70476 0.0
C397 C 0.17018 0.41221 0.62606 0.0
C398 C 0.14653 0.39362 0.65357 0.0
C399 C 0.137 0.39556 0.73312 0.0
C400 C 0.06146 0.3984 0.75389 0.0
C401 C 0.06447 0.41654 0.76015 0.0
H402 H 0.05884 0.36279 0.74889 0.0
C403 C 0.10211 0.38434 0.89921 0.0
C404 C 0.13287 0.35264 0.86302 0.0
C405 C 0.12329 0.37275 0.06492 0.0
C406 C 0.11658 0.37211 0.14535 0.0
C407 C 0.09657 0.35844 0.09026 0.0
C408 C 0.1076 0.36354 0.0554 0.0
C409 C 0.10109 0.36242 0.13477 0.0
C410 C 0.12758 0.37729 0.10962 0.0
C411 C 0.13629 0.37601 0.02955 0.0
H412 H 0.1834 0.42842 0.67553 0.0
H413 H 0.16457 0.41889 0.73767 0.0
H414 H 0.17806 0.41759 0.59922 0.0
H415 H 0.13604 0.38405 0.64786 0.0
H416 H 0.08464 0.351 0.08288 0.0
H417 H 0.10416 0.35988 0.02119 0.0
H418 H 0.09253 0.35751 0.1608 0.0
H419 H 0.13964 0.38465 0.11622 0.0
C420 C 0.83012 0.8696 0.04575 0.0
C421 C 0.81247 0.89595 0.0317 0.0
C422 C 0.82888 0.88801 0.04248 0.0
C423 C 0.79749 0.88527 0.02424 0.0
C424 C 0.8151 0.85887 0.03809 0.0
C425 C 0.79881 0.86681 0.02724 0.0
N426 N 0.84583 0.86224 0.05819 0.0
C427 C 0.84777 0.84431 0.06073 0.0
C428 C 0.81682 0.84048 0.04224 0.0
C429 C 0.83327 0.83317 0.05334 0.0
Gd430 Gd 0.8838 0.89315 0.19267 0.0
Gd431 Gd 0.86944 0.88192 0.06582 0.0
N432 N 0.8436 0.89811 0.05 0.0
C433 C 0.81158 0.91442 0.02873 0.0
C434 C 0.84303 0.91595 0.04339 0.0
C435 C 0.82695 0.92443 0.03446 0.0
H436 H 0.85489 0.9237 0.04313 0.0
H437 H 0.8265 0.93868 0.03128 0.0
H438 H 0.90247 0.85617 0.22959 0.0
H439 H 0.86055 0.83851 0.06744 0.0
H440 H 0.93234 0.8454 0.25136 0.0
H441 H 0.79919 0.92103 0.02107 0.0
H442 H 0.7848 0.89118 0.01602 0.0
H443 H 0.88733 0.93833 0.19119 0.0
H444 H 0.80558 0.8318 0.03665 0.0
H445 H 0.83482 0.81895 0.05578 0.0
H446 H 0.96998 0.89592 0.22987 0.0
H447 H 0.78712 0.85878 0.02143 0.0
H448 H 0.94235 0.95116 0.19342 0.0
H449 H 0.91104 0.96045 0.18681 0.0
N450 N 0.90493 0.91619 0.19285 0.0
C451 C 0.92195 0.911 0.20077 0.0
C452 C 0.90089 0.93384 0.191 0.0
C453 C 0.93198 0.94125 0.19369 0.0
C454 C 0.91433 0.94654 0.18979 0.0
C455 C 0.93594 0.92338 0.20088 0.0
H456 H 0.96424 0.92697 0.20969 0.0
N457 N 0.91156 0.88182 0.21212 0.0
C458 C 0.92528 0.89345 0.21206 0.0
C459 C 0.94505 0.87035 0.23766 0.0
C460 C 0.94251 0.8879 0.22387 0.0
C461 C 0.91372 0.86495 0.22754 0.0
C462 C 0.93055 0.85889 0.24005 0.0
O463 O 0.84909 0.87802 0.12255 0.0
O464 O 0.85584 0.90015 0.17256 0.0
O465 O 0.87152 0.88187 0.25228 0.0
O466 O 0.88736 0.90551 0.25783 0.0
O467 O 0.88086 0.90922 0.07764 0.0
O468 O 0.87243 0.91591 0.15003 0.0
O469 O 0.9033 0.87981 0.14596 0.0
O470 O 0.89798 0.89143 0.07652 0.0
O471 O 0.86703 0.88809 0.99473 0.0
O472 O 0.87917 0.86349 0.01573 0.0
O473 O 0.87487 0.86448 0.17874 0.0
O474 O 0.88177 0.85925 0.10389 0.0
C475 C 0.84453 0.88857 0.1561 0.0
C476 C 0.87749 0.92081 0.10949 0.0
C477 C 0.86657 0.90104 0.31467 0.0
C478 C 0.85975 0.90342 0.39467 0.0
C479 C 0.84322 0.92068 0.33937 0.0
C480 C 0.85368 0.91384 0.30508 0.0
C481 C 0.84613 0.91548 0.38375 0.0
C482 C 0.8697 0.89597 0.35947 0.0
C483 C 0.87797 0.89397 0.27913 0.0
C484 C 0.95658 0.90001 0.22176 0.0
C485 C 0.95331 0.91768 0.21006 0.0
H486 H 0.9581 0.86558 0.247 0.0
C487 C 0.90914 0.88591 0.10771 0.0
C488 C 0.87844 0.8536 0.14481 0.0
C489 C 0.88806 0.87539 0.94602 0.0
C490 C 0.89447 0.87683 0.86596 0.0
C491 C 0.9185 0.87557 0.92074 0.0
C492 C 0.90629 0.87515 0.95563 0.0
C493 C 0.91265 0.87623 0.87614 0.0
C494 C 0.88219 0.87655 0.90112 0.0
C495 C 0.87497 0.87365 0.982 0.0
H496 H 0.83301 0.93028 0.33164 0.0
H497 H 0.85176 0.9186 0.27113 0.0
H498 H 0.8378 0.92107 0.40959 0.0
H499 H 0.88034 0.88677 0.3669 0.0
H500 H 0.93254 0.87524 0.92827 0.0
H501 H 0.91107 0.87442 0.98999 0.0
H502 H 0.92232 0.87644 0.8495 0.0
H503 H 0.86812 0.87677 0.89349 0.0
C504 C 0.39819 0.58072 0.30267 0.0
C505 C 0.37372 0.56163 0.27973 0.0
C506 C 0.38023 0.57835 0.29324 0.0
C507 C 0.38542 0.54726 0.27628 0.0
C508 C 0.40997 0.56632 0.29845 0.0
C509 C 0.40348 0.54962 0.28544 0.0
N510 N 0.4042 0.59717 0.31429 0.0
C511 C 0.42196 0.60026 0.318 0.0
C512 C 0.42804 0.56921 0.30611 0.0
C513 C 0.43408 0.58632 0.31529 0.0
Gd514 Gd 0.37097 0.63034 0.44416 0.0
Gd515 Gd 0.38233 0.61942 0.3167 0.0
N516 N 0.36904 0.59234 0.29837 0.0
C517 C 0.3556 0.55987 0.27021 0.0
C518 C 0.35158 0.59095 0.28682 0.0
C519 C 0.34452 0.57463 0.27339 0.0
H520 H 0.34317 0.60247 0.2873 0.0
H521 H 0.33059 0.57351 0.26497 0.0
H522 H 0.40967 0.64977 0.47761 0.0
H523 H 0.427 0.61347 0.32099 0.0
H524 H 0.4189 0.67665 0.51746 0.0
H525 H 0.35009 0.54724 0.25979 0.0
H526 H 0.38066 0.5343 0.26608 0.0
H527 H 0.3263 0.63223 0.43928 0.0
H528 H 0.4375 0.55847 0.30337 0.0
H529 H 0.44812 0.58887 0.31905 0.0
H530 H 0.36443 0.70488 0.55626 0.0
H531 H 0.4124 0.53854 0.28132 0.0
H532 H 0.31029 0.68093 0.49899 0.0
H533 H 0.3028 0.6529 0.46011 0.0
N534 N 0.34739 0.6495 0.45901 0.0
C535 C 0.35182 0.66459 0.4815 0.0
C536 C 0.33002 0.64497 0.45273 0.0
C537 C 0.32081 0.67226 0.48778 0.0
C538 C 0.31652 0.65648 0.46574 0.0
C539 C 0.33857 0.67626 0.49696 0.0
H540 H 0.33331 0.69982 0.53633 0.0
N541 N 0.3822 0.65637 0.47688 0.0
C542 C 0.36964 0.66807 0.49086 0.0
C543 C 0.39231 0.68634 0.52542 0.0
C544 C 0.37439 0.68312 0.51645 0.0
C545 C 0.39969 0.65924 0.48657 0.0
C546 C 0.40502 0.67441 0.51009 0.0
O547 O 0.37263 0.59779 0.36539 0.0
O548 O 0.38741 0.60675 0.42692 0.0
O549 O 0.37524 0.62844 0.51698 0.0
O550 O 0.3553 0.61196 0.48271 0.0
O551 O 0.35593 0.632 0.32942 0.0
O552 O 0.34914 0.61939 0.39684 0.0
O553 O 0.36815 0.65371 0.39715 0.0
O554 O 0.38731 0.64836 0.33791 0.0
O555 O 0.36907 0.62691 0.25432 0.0
O556 O 0.39665 0.61962 0.25387 0.0
O557 O 0.40065 0.62642 0.43022 0.0
O558 O 0.40542 0.63208 0.35443 0.0
C559 C 0.38005 0.59394 0.40427 0.0
C560 C 0.34418 0.62615 0.35774 0.0
C561 C 0.35796 0.60822 0.56375 0.0
C562 C 0.35986 0.60575 0.64589 0.0
C563 C 0.34065 0.58605 0.60253 0.0
C564 C 0.34585 0.59411 0.56292 0.0
C565 C 0.34751 0.5918 0.64358 0.0
C566 C 0.36494 0.61412 0.60558 0.0
C567 C 0.36291 0.61649 0.52062 0.0
C568 C 0.36112 0.69414 0.53367 0.0
C569 C 0.34333 0.69103 0.52303 0.0
H570 H 0.39646 0.69785 0.54466 0.0
C571 C 0.37856 0.65924 0.36494 0.0
C572 C 0.4112 0.63054 0.39632 0.0
C573 C 0.38652 0.63791 0.19507 0.0
C574 C 0.38685 0.64586 0.11528 0.0
C575 C 0.39811 0.66634 0.17253 0.0
C576 C 0.39404 0.65431 0.20625 0.0
C577 C 0.39471 0.66215 0.12752 0.0
C578 C 0.3828 0.63376 0.14976 0.0
C579 C 0.3831 0.62469 0.22997 0.0
H580 H 0.3312 0.57527 0.60142 0.0
H581 H 0.34029 0.58928 0.53152 0.0
H582 H 0.34298 0.58536 0.67379 0.0
H583 H 0.37435 0.62495 0.60673 0.0
H584 H 0.40413 0.67892 0.18125 0.0
H585 H 0.39695 0.65768 0.24095 0.0
H586 H 0.39857 0.67164 0.10232 0.0
H587 H 0.37671 0.62114 0.14164 0.0
C588 C 0.61482 0.07915 0.7123 0.0
C589 C 0.64119 0.06134 0.72483 0.0
C590 C 0.6332 0.07792 0.71656 0.0
C591 C 0.63059 0.04616 0.72887 0.0
C592 C 0.60418 0.06388 0.7161 0.0
C593 C 0.61216 0.04744 0.72465 0.0
N594 N 0.60743 0.09507 0.70196 0.0
C595 C 0.58954 0.09686 0.69736 0.0
C596 C 0.58588 0.06549 0.70957 0.0
C597 C 0.57856 0.08203 0.69998 0.0
Gd598 Gd 0.63879 0.13471 0.57484 0.0
Gd599 Gd 0.62702 0.11891 0.69923 0.0
N600 N 0.64323 0.09282 0.71212 0.0
C601 C 0.65963 0.06047 0.72873 0.0
C602 C 0.66108 0.09215 0.71911 0.0
C603 C 0.66958 0.07596 0.72602 0.0
H604 H 0.66882 0.10398 0.72103 0.0
H605 H 0.68381 0.07551 0.72974 0.0
H606 H 0.60149 0.15359 0.54016 0.0
H607 H 0.58365 0.10969 0.69212 0.0
H608 H 0.59065 0.18347 0.51952 0.0
H609 H 0.66629 0.04796 0.73462 0.0
H610 H 0.63654 0.03334 0.73515 0.0
H611 H 0.68378 0.13795 0.57278 0.0
H612 H 0.57729 0.05403 0.71159 0.0
H613 H 0.56446 0.08334 0.69457 0.0
H614 H 0.64173 0.22073 0.53776 0.0
H615 H 0.6042 0.03556 0.72747 0.0
H616 H 0.69717 0.19284 0.57118 0.0
H617 H 0.70625 0.16144 0.5762 0.0
N618 N 0.66188 0.15576 0.57406 0.0
C619 C 0.6567 0.17283 0.56728 0.0
C620 C 0.67949 0.15156 0.5742 0.0
C621 C 0.68716 0.18257 0.57172 0.0
C622 C 0.69234 0.16487 0.57471 0.0
C623 C 0.66921 0.1867 0.56618 0.0
H624 H 0.67296 0.2149 0.5565 0.0
N625 N 0.62732 0.1626 0.55745 0.0
C626 C 0.63902 0.17627 0.55741 0.0
C627 C 0.61579 0.1961 0.53274 0.0
C628 C 0.63347 0.19348 0.54573 0.0
C629 C 0.61033 0.16482 0.54243 0.0
C630 C 0.60423 0.18165 0.53051 0.0
O631 O 0.62417 0.09951 0.63944 0.0
O632 O 0.64725 0.10727 0.59492 0.0
O633 O 0.62758 0.12154 0.51547 0.0
O634 O 0.65005 0.13885 0.50913 0.0
O635 O 0.6541 0.13083 0.69113 0.0
O636 O 0.66218 0.12452 0.61816 0.0
O637 O 0.62528 0.15373 0.62257 0.0
O638 O 0.63665 0.14754 0.692 0.0
O639 O 0.63307 0.11519 0.76999 0.0
O640 O 0.60875 0.1282 0.75005 0.0
O641 O 0.61014 0.12529 0.58671 0.0
O642 O 0.60451 0.13178 0.66159 0.0
C643 C 0.63588 0.09536 0.60847 0.0
C644 C 0.66629 0.12855 0.66043 0.0
C645 C 0.64574 0.11811 0.45095 0.0
C646 C 0.64651 0.11153 0.3707 0.0
C647 C 0.66605 0.09597 0.42235 0.0
C648 C 0.65954 0.10602 0.45806 0.0
C649 C 0.65951 0.09863 0.37887 0.0
C650 C 0.63947 0.12111 0.40698 0.0
C651 C 0.63875 0.12882 0.48811 0.0
C652 C 0.64577 0.2074 0.54645 0.0
C653 C 0.66356 0.20406 0.55713 0.0
H654 H 0.61103 0.20914 0.52352 0.0
C655 C 0.63133 0.15909 0.6617 0.0
C656 C 0.59907 0.12867 0.6201 0.0
C657 C 0.62223 0.1371 0.81873 0.0
C658 C 0.6276 0.14431 0.89792 0.0
C659 C 0.62683 0.16763 0.84159 0.0
C660 C 0.62368 0.1551 0.8079 0.0
C661 C 0.62872 0.16234 0.88622 0.0
C662 C 0.62426 0.13174 0.86369 0.0
C663 C 0.61912 0.12372 0.7834 0.0
H664 H 0.67652 0.08644 0.42818 0.0
H665 H 0.66558 0.10472 0.49091 0.0
H666 H 0.66508 0.09112 0.35132 0.0
H667 H 0.62944 0.13113 0.40086 0.0
H668 H 0.62778 0.18153 0.83309 0.0
H669 H 0.62236 0.15949 0.77346 0.0
H670 H 0.63088 0.17242 0.91166 0.0
H671 H 0.62351 0.11777 0.87179 0.0
C672 C 0.92497 0.40266 0.81496 0.0
C673 C 0.94293 0.37635 0.80389 0.0
C674 C 0.9263 0.38428 0.81149 0.0
C675 C 0.9581 0.38699 0.80059 0.0
C676 C 0.9402 0.41337 0.81162 0.0
C677 C 0.95673 0.40544 0.80436 0.0
N678 N 0.90885 0.41003 0.82277 0.0
C679 C 0.90694 0.42797 0.82624 0.0
C680 C 0.93837 0.43175 0.816 0.0
C681 C 0.92166 0.43908 0.82317 0.0
Gd682 Gd 0.86935 0.37742 0.94953 0.0
Gd683 Gd 0.88503 0.39029 0.82676 0.0
N684 N 0.91139 0.3742 0.81531 0.0
C685 C 0.94382 0.35794 0.79906 0.0
C686 C 0.91206 0.35645 0.80647 0.0
C687 C 0.92827 0.34799 0.79958 0.0
H688 H 0.9002 0.34872 0.80281 0.0
H689 H 0.92872 0.33385 0.79359 0.0
H690 H 0.84813 0.41699 0.95609 0.0
H691 H 0.89402 0.43379 0.83032 0.0
H692 H 0.81798 0.42795 0.96718 0.0
H693 H 0.95635 0.35135 0.79334 0.0
H694 H 0.97097 0.38109 0.79487 0.0
H695 H 0.86741 0.3336 0.96135 0.0
H696 H 0.94977 0.4404 0.81367 0.0
H697 H 0.92009 0.45329 0.82601 0.0
H698 H 0.78363 0.37532 0.98871 0.0
H699 H 0.96857 0.41345 0.80172 0.0
H700 H 0.81358 0.31937 0.98524 0.0
H701 H 0.84511 0.31082 0.97536 0.0
N702 N 0.84897 0.35473 0.96063 0.0
C703 C 0.83202 0.35994 0.9681 0.0
C704 C 0.8537 0.33736 0.96342 0.0
C705 C 0.8234 0.32942 0.97831 0.0
C706 C 0.84104 0.32447 0.97224 0.0
C707 C 0.81871 0.34736 0.97665 0.0
H708 H 0.79085 0.34356 0.99037 0.0
N709 N 0.84101 0.3898 0.95782 0.0
C710 C 0.82795 0.37796 0.9672 0.0
C711 C 0.80682 0.40186 0.97394 0.0
C712 C 0.81045 0.38369 0.97479 0.0
C713 C 0.83768 0.40755 0.95926 0.0
C714 C 0.82054 0.41384 0.96657 0.0
O715 O 0.90382 0.39379 0.88594 0.0
O716 O 0.89835 0.37104 0.93432 0.0
O717 O 0.87541 0.39206 0.0112 0.0
O718 O 0.86994 0.36407 0.01369 0.0
O719 O 0.87519 0.3617 0.83929 0.0
O720 O 0.88332 0.35567 0.91241 0.0
O721 O 0.84868 0.37568 0.89203 0.0
O722 O 0.85662 0.39696 0.84117 0.0
O723 O 0.87738 0.37906 0.76139 0.0
O724 O 0.88681 0.40589 0.76624 0.0
O725 O 0.87918 0.40524 0.93863 0.0
O726 O 0.87284 0.41358 0.86559 0.0
C727 C 0.90951 0.38174 0.91409 0.0
C728 C 0.87894 0.35027 0.87179 0.0
C729 C 0.88778 0.37561 0.07163 0.0
C730 C 0.89583 0.3755 0.15163 0.0
C731 C 0.9161 0.36375 0.09535 0.0
C732 C 0.90407 0.36785 0.06118 0.0
C733 C 0.91199 0.36732 0.14011 0.0
C734 C 0.88378 0.37965 0.11662 0.0
C735 C 0.87419 0.37812 0.03659 0.0
C736 C 0.79715 0.37115 0.98294 0.0
C737 C 0.80126 0.35305 0.98383 0.0
H738 H 0.79356 0.40679 0.97967 0.0
C739 C 0.84488 0.38597 0.85742 0.0
C740 C 0.87594 0.41752 0.90845 0.0
C741 C 0.86887 0.39913 0.70335 0.0
C742 C 0.86089 0.3993 0.62323 0.0
C743 C 0.84551 0.41845 0.67638 0.0
C744 C 0.85612 0.41221 0.71137 0.0
C745 C 0.84792 0.4122 0.63272 0.0
C746 C 0.87122 0.39267 0.65927 0.0
C747 C 0.88102 0.3935 0.73963 0.0
H748 H 0.92856 0.35746 0.08721 0.0
H749 H 0.90729 0.36457 0.02675 0.0
H750 H 0.92141 0.36327 0.16565 0.0
H751 H 0.87122 0.38587 0.12406 0.0
H752 H 0.8357 0.42858 0.68289 0.0
H753 H 0.8547 0.41796 0.7445 0.0
H754 H 0.83997 0.41802 0.6062 0.0
H755 H 0.8813 0.38275 0.65312 0.0
C756 C 0.42015 0.10125 0.70175 0.0
C757 C 0.44196 0.12337 0.7237 0.0
C758 C 0.42441 0.11864 0.71258 0.0
C759 C 0.45538 0.11054 0.72126 0.0
C760 C 0.43349 0.08817 0.70122 0.0
C761 C 0.45118 0.09302 0.70958 0.0
N762 N 0.40282 0.09688 0.69547 0.0
C763 C 0.39787 0.07946 0.69432 0.0
C764 C 0.42855 0.07047 0.69469 0.0
C765 C 0.41062 0.06608 0.69233 0.0
Gd766 Gd 0.36778 0.13331 0.57064 0.0
Gd767 Gd 0.38274 0.12085 0.69579 0.0
N768 N 0.41122 0.13083 0.71396 0.0
C769 C 0.4454 0.14076 0.73793 0.0
C770 C 0.41424 0.14752 0.73019 0.0
C771 C 0.43143 0.15282 0.74181 0.0
H772 H 0.40338 0.15676 0.73334 0.0
H773 H 0.43389 0.16617 0.75368 0.0
H774 H 0.35309 0.09189 0.54398 0.0
H775 H 0.38409 0.0757 0.69539 0.0
H776 H 0.32461 0.07682 0.53289 0.0
H777 H 0.45872 0.14491 0.74678 0.0
H778 H 0.46895 0.1139 0.72961 0.0
H779 H 0.35883 0.1766 0.57511 0.0
H780 H 0.43839 0.06003 0.6939 0.0
H781 H 0.40655 0.05238 0.69003 0.0
H782 H 0.28194 0.12379 0.53628 0.0
H783 H 0.46162 0.08317 0.70898 0.0
H784 H 0.303 0.18319 0.55666 0.0
H785 H 0.33273 0.19611 0.56969 0.0
N786 N 0.34391 0.15286 0.56768 0.0
C787 C 0.32785 0.14547 0.55854 0.0
C788 C 0.34589 0.17078 0.57064 0.0
C789 C 0.31441 0.17454 0.55937 0.0
C790 C 0.33115 0.18189 0.56697 0.0
C791 C 0.3126 0.15614 0.55487 0.0
H792 H 0.28418 0.15613 0.5445 0.0
N793 N 0.34168 0.11712 0.55688 0.0
C794 C 0.32665 0.12711 0.55391 0.0
C795 C 0.30933 0.10076 0.53928 0.0
C796 C 0.31006 0.11913 0.5455 0.0
C797 C 0.34114 0.09943 0.54746 0.0
C798 C 0.32496 0.09091 0.53966 0.0
O799 O 0.40191 0.13457 0.64958 0.0
O800 O 0.39618 0.12341 0.57965 0.0
O801 O 0.36425 0.12773 0.49938 0.0
O802 O 0.37733 0.15181 0.52087 0.0
O803 O 0.37393 0.14973 0.68431 0.0
O804 O 0.38043 0.15581 0.60966 0.0
O805 O 0.34877 0.13682 0.63016 0.0
O806 O 0.35511 0.11314 0.67454 0.0
O807 O 0.37078 0.13301 0.7547 0.0
O808 O 0.3857 0.10884 0.76152 0.0
O809 O 0.37933 0.10592 0.57925 0.0
O810 O 0.37135 0.09841 0.65123 0.0
C811 C 0.40749 0.1287 0.61078 0.0
C812 C 0.37743 0.16096 0.65137 0.0
C813 C 0.3865 0.13881 0.45234 0.0
C814 C 0.39427 0.13401 0.37341 0.0
C815 C 0.41727 0.13572 0.43136 0.0
C816 C 0.4045 0.13812 0.46426 0.0
C817 C 0.41228 0.13385 0.38637 0.0
C818 C 0.38141 0.13658 0.40699 0.0
C819 C 0.37294 0.1417 0.48691 0.0
C820 C 0.29479 0.12972 0.54263 0.0
C821 C 0.29606 0.14816 0.54716 0.0
H822 H 0.29685 0.09415 0.5326 0.0
C823 C 0.34371 0.12483 0.65947 0.0
C824 C 0.37632 0.09395 0.61013 0.0
C825 C 0.36527 0.11527 0.81858 0.0
C826 C 0.35875 0.11422 0.89869 0.0
C827 C 0.3391 0.09997 0.84432 0.0
C828 C 0.35007 0.10525 0.80939 0.0
C829 C 0.34333 0.10452 0.88869 0.0
C830 C 0.36974 0.11955 0.86333 0.0
C831 C 0.37685 0.12108 0.78223 0.0
H832 H 0.43113 0.13537 0.44077 0.0
H833 H 0.4087 0.13955 0.49896 0.0
H834 H 0.42262 0.13246 0.3617 0.0
H835 H 0.36746 0.13666 0.39815 0.0
H836 H 0.32733 0.09227 0.83702 0.0
H837 H 0.34684 0.10144 0.7753 0.0
H838 H 0.33471 0.10017 0.91533 0.0
H839 H 0.38163 0.12713 0.87058 0.0
C840 C 0.59445 0.59891 0.29589 0.0
C841 C 0.57347 0.62084 0.26821 0.0
C842 C 0.59013 0.61646 0.28683 0.0
C843 C 0.56089 0.60746 0.26075 0.0
C844 C 0.58205 0.58537 0.2866 0.0
C845 C 0.56526 0.58977 0.26949 0.0
N846 N 0.61127 0.59495 0.30921 0.0
C847 C 0.61683 0.5777 0.31003 0.0
C848 C 0.58726 0.56772 0.29205 0.0
C849 C 0.60482 0.56387 0.30311 0.0
Gd850 Gd 0.64295 0.63327 0.44431 0.0
Gd851 Gd 0.63026 0.61944 0.319 0.0
N852 N 0.60267 0.62912 0.2934 0.0
C853 C 0.57029 0.63842 0.25548 0.0
C854 C 0.60012 0.646 0.27836 0.0
C855 C 0.58379 0.65099 0.25991 0.0
H856 H 0.61069 0.65561 0.28098 0.0
H857 H 0.58165 0.66447 0.24892 0.0
H858 H 0.66143 0.59281 0.46329 0.0
H859 H 0.63063 0.57447 0.31456 0.0
H860 H 0.69111 0.58051 0.47612 0.0
H861 H 0.55769 0.64228 0.2409 0.0
H862 H 0.54801 0.61055 0.24648 0.0
H863 H 0.64794 0.67739 0.44233 0.0
H864 H 0.57809 0.55696 0.2855 0.0
H865 H 0.60927 0.55026 0.30478 0.0
H866 H 0.72891 0.63147 0.48241 0.0
H867 H 0.55584 0.57948 0.26088 0.0
H868 H 0.70297 0.68868 0.46121 0.0
H869 H 0.67226 0.69903 0.44817 0.0
N870 N 0.66487 0.65497 0.4482 0.0
C871 C 0.68147 0.64897 0.45775 0.0
C872 C 0.66135 0.67267 0.44623 0.0
C873 C 0.69236 0.67909 0.45798 0.0
C874 C 0.67507 0.68499 0.45038 0.0
C875 C 0.69572 0.66092 0.46221 0.0
H876 H 0.72393 0.66341 0.47429 0.0
N877 N 0.67033 0.61937 0.45711 0.0
C878 C 0.6843 0.63073 0.462 0.0
C879 C 0.70395 0.60597 0.47505 0.0
C880 C 0.7015 0.62426 0.47069 0.0
C881 C 0.67256 0.60163 0.46331 0.0
C882 C 0.6894 0.59463 0.47161 0.0
O883 O 0.60848 0.63174 0.36109 0.0
O884 O 0.6142 0.62414 0.43446 0.0
O885 O 0.64634 0.6265 0.51482 0.0
O886 O 0.63416 0.65137 0.49633 0.0
O887 O 0.63824 0.64838 0.33264 0.0
O888 O 0.62906 0.65466 0.40497 0.0
O889 O 0.6629 0.63556 0.38603 0.0
O890 O 0.65718 0.61109 0.34385 0.0
O891 O 0.64466 0.63226 0.2649 0.0
O892 O 0.62973 0.60844 0.25152 0.0
O893 O 0.63214 0.60556 0.4377 0.0
O894 O 0.63941 0.59674 0.36578 0.0
C895 C 0.60294 0.62783 0.40159 0.0
C896 C 0.6329 0.65964 0.36393 0.0
C897 C 0.62575 0.63866 0.56551 0.0
C898 C 0.61963 0.63574 0.64548 0.0
C899 C 0.59541 0.63737 0.59142 0.0
C900 C 0.60748 0.63866 0.55637 0.0
C901 C 0.60142 0.63603 0.63577 0.0
C902 C 0.6318 0.63699 0.61019 0.0
C903 C 0.63862 0.64084 0.5291 0.0
C904 C 0.71568 0.63619 0.47512 0.0
C905 C 0.71282 0.65443 0.47076 0.0
H906 H 0.71694 0.6005 0.48193 0.0
C907 C 0.66845 0.62297 0.35861 0.0
C908 C 0.6347 0.59305 0.40756 0.0
C909 C 0.65125 0.61606 0.19819 0.0
C910 C 0.65699 0.61378 0.11773 0.0
C911 C 0.67804 0.60186 0.17219 0.0
C912 C 0.66711 0.60718 0.2073 0.0
C913 C 0.673 0.60505 0.12768 0.0
C914 C 0.64625 0.61947 0.15338 0.0
C915 C 0.63918 0.62102 0.23449 0.0
H916 H 0.58134 0.6375 0.58421 0.0
H917 H 0.60255 0.63982 0.52224 0.0
H918 H 0.59187 0.63513 0.66257 0.0
H919 H 0.64589 0.63691 0.61754 0.0
H920 H 0.69035 0.59506 0.17945 0.0
H921 H 0.67084 0.60416 0.24142 0.0
H922 H 0.68164 0.6007 0.10097 0.0
H923 H 0.63377 0.62605 0.14626 0.0
C924 C 0.15732 0.83873 0.05799 0.0
C925 C 0.13252 0.81839 0.05223 0.0
C926 C 0.13916 0.83576 0.05763 0.0
C927 C 0.14435 0.80413 0.04811 0.0
C928 C 0.16923 0.82447 0.05333 0.0
C929 C 0.16264 0.80716 0.04862 0.0
N930 N 0.16336 0.85555 0.0638 0.0
C931 C 0.18104 0.85915 0.06302 0.0
C932 C 0.18743 0.82802 0.05375 0.0
C933 C 0.19335 0.84546 0.05827 0.0
Gd934 Gd 0.12818 0.89391 0.19429 0.0
Gd935 Gd 0.14187 0.87762 0.07302 0.0
N936 N 0.12801 0.84979 0.0631 0.0
C937 C 0.11419 0.81588 0.05095 0.0
C938 C 0.11016 0.84749 0.0583 0.0
C939 C 0.10297 0.83053 0.05324 0.0
H940 H 0.10132 0.85859 0.05673 0.0
H941 H 0.08878 0.8288 0.05037 0.0
H942 H 0.16695 0.91669 0.19442 0.0
H943 H 0.18566 0.87263 0.06505 0.0
H944 H 0.17684 0.94747 0.20182 0.0
H945 H 0.10857 0.80275 0.04701 0.0
H946 H 0.13947 0.7907 0.04437 0.0
H947 H 0.08408 0.89475 0.20374 0.0
H948 H 0.197 0.81742 0.05021 0.0
H949 H 0.20737 0.84838 0.05788 0.0
H950 H 0.12346 0.98009 0.22777 0.0
H951 H 0.17159 0.79602 0.04529 0.0
H952 H 0.06862 0.94837 0.22904 0.0
H953 H 0.06067 0.9168 0.21794 0.0
N954 N 0.1048 0.91374 0.20383 0.0
C955 C 0.10952 0.93096 0.21029 0.0
C956 C 0.08755 0.90857 0.20651 0.0
C957 C 0.07886 0.93877 0.22164 0.0
C958 C 0.07432 0.92099 0.2153 0.0
C959 C 0.09661 0.94396 0.21905 0.0
H960 H 0.09203 0.9718 0.23242 0.0
N961 N 0.13957 0.92282 0.19916 0.0
C962 C 0.12736 0.93563 0.208 0.0
C963 C 0.1505 0.95773 0.21079 0.0
C964 C 0.13253 0.95344 0.21382 0.0
C965 C 0.15717 0.92684 0.19823 0.0
C966 C 0.16287 0.94435 0.20321 0.0
O967 O 0.14584 0.85858 0.13098 0.0
O968 O 0.12332 0.86452 0.17988 0.0
O969 O 0.14247 0.89306 0.25778 0.0
O970 O 0.11402 0.89063 0.25699 0.0
O971 O 0.11296 0.88691 0.08451 0.0
O972 O 0.10713 0.87873 0.15716 0.0
O973 O 0.12498 0.91337 0.13536 0.0
O974 O 0.1479 0.9062 0.08902 0.0
O975 O 0.12871 0.88035 0.0083 0.0
O976 O 0.15717 0.88144 0.0122 0.0
O977 O 0.15633 0.88415 0.18633 0.0
O978 O 0.16501 0.88961 0.11343 0.0
C979 C 0.13419 0.85326 0.16032 0.0
C980 C 0.1016 0.883 0.11675 0.0
C981 C 0.12959 0.87702 0.31648 0.0
C982 C 0.13221 0.86925 0.3957 0.0
C983 C 0.13323 0.84633 0.33814 0.0
C984 C 0.13117 0.85909 0.30475 0.0
C985 C 0.1339 0.85135 0.38333 0.0
C986 C 0.1299 0.88207 0.36202 0.0
C987 C 0.12832 0.89064 0.2816 0.0
C988 C 0.11968 0.96638 0.22275 0.0
C989 C 0.10178 0.96165 0.22543 0.0
H990 H 0.15498 0.97128 0.2149 0.0
C991 C 0.13615 0.91759 0.10337 0.0
C992 C 0.16879 0.88672 0.15638 0.0
C993 C 0.14321 0.8961 0.95149 0.0
C994 C 0.14125 0.90412 0.87231 0.0
C995 C 0.1419 0.92702 0.93 0.0
C996 C 0.14299 0.9141 0.96332 0.0
C997 C 0.14089 0.92208 0.88475 0.0
C998 C 0.14254 0.89114 0.90589 0.0
C999 C 0.14332 0.88232 0.98613 0.0
H1000 H 0.13444 0.83252 0.32893 0.0
H1001 H 0.13096 0.855 0.26984 0.0
H1002 H 0.13564 0.84126 0.40873 0.0
H1003 H 0.12879 0.89595 0.37117 0.0
H1004 H 0.14169 0.9409 0.93929 0.0
H1005 H 0.14349 0.91811 0.99822 0.0
H1006 H 0.13992 0.93228 0.85937 0.0
H1007 H 0.14259 0.87723 0.89661 0.0
C1008 C 0.92051 0.60831 0.21012 0.0
C1009 C 0.93952 0.6337 0.22339 0.0
C1010 C 0.92261 0.62653 0.21423 0.0
C1011 C 0.95421 0.62237 0.2274 0.0
C1012 C 0.93514 0.59686 0.21517 0.0
C1013 C 0.95201 0.604 0.22349 0.0
N1014 N 0.90417 0.6018 0.20025 0.0
C1015 C 0.90125 0.584 0.19814 0.0
C1016 C 0.93236 0.57856 0.2114 0.0
C1017 C 0.9153 0.5721 0.20333 0.0
Gd1018 Gd 0.86839 0.63356 0.06275 0.0
Gd1019 Gd 0.88155 0.62256 0.1895 0.0
N1020 N 0.90815 0.63719 0.20953 0.0
C1021 C 0.94115 0.65204 0.22869 0.0
C1022 C 0.90953 0.65494 0.218 0.0
C1023 C 0.92604 0.66266 0.22674 0.0
H1024 H 0.89799 0.66328 0.2192 0.0
H1025 H 0.92707 0.67679 0.23251 0.0
H1026 H 0.8473 0.59614 0.03672 0.0
H1027 H 0.88807 0.57893 0.19302 0.0
H1028 H 0.81694 0.58627 0.0177 0.0
H1029 H 0.95391 0.65807 0.23555 0.0
H1030 H 0.96731 0.62768 0.23398 0.0
H1031 H 0.86763 0.67824 0.05598 0.0
H1032 H 0.94325 0.56932 0.21512 0.0
H1033 H 0.91295 0.55798 0.20115 0.0
H1034 H 0.78311 0.63992 0.01754 0.0
H1035 H 0.96344 0.59543 0.22702 0.0
H1036 H 0.81388 0.6945 0.04018 0.0
H1037 H 0.84559 0.70199 0.04977 0.0
N1038 N 0.84859 0.65751 0.05792 0.0
C1039 C 0.83137 0.65307 0.04979 0.0
C1040 C 0.85381 0.6748 0.05598 0.0
C1041 C 0.82348 0.68404 0.04547 0.0
C1042 C 0.84134 0.68832 0.05098 0.0
C1043 C 0.81835 0.66626 0.04369 0.0
H1044 H 0.79072 0.67134 0.02834 0.0
N1045 N 0.83988 0.62289 0.04768 0.0
C1046 C 0.82695 0.63533 0.04368 0.0
C1047 C 0.80584 0.61248 0.02353 0.0
C1048 C 0.80952 0.63039 0.0319 0.0
C1049 C 0.83666 0.60561 0.03661 0.0
C1050 C 0.81953 0.60006 0.0254 0.0
O1051 O 0.90123 0.617 0.13413 0.0
O1052 O 0.89723 0.63935 0.08343 0.0
O1053 O 0.87769 0.61925 1.00378 0.0
O1054 O 0.86709 0.64557 0.99684 0.0
O1055 O 0.87461 0.65155 0.17428 0.0
O1056 O 0.8821 0.656 0.10006 0.0
O1057 O 0.84746 0.62323 0.11243 0.0
O1058 O 0.85639 0.63749 0.17515 0.0
O1059 O 0.88258 0.62785 0.26131 0.0
O1060 O 0.8654 0.60722 0.23493 0.0
O1061 O 0.87865 0.60629 0.07581 0.0
O1062 O 0.86995 0.59916 0.14762 0.0
C1063 C 0.90781 0.62881 0.10678 0.0
C1064 C 0.87906 0.66209 0.14079 0.0
C1065 C 0.88745 0.6364 0.94254 0.0
C1066 C 0.89578 0.63771 0.86333 0.0
C1067 C 0.91489 0.65049 0.92167 0.0
C1068 C 0.90304 0.64529 0.95469 0.0
C1069 C 0.91125 0.64694 0.87643 0.0
C1070 C 0.88395 0.63243 0.89714 0.0
C1071 C 0.87414 0.63214 0.97636 0.0
C1072 C 0.79647 0.64348 0.0273 0.0
C1073 C 0.80084 0.66136 0.03336 0.0
H1074 H 0.79259 0.60818 0.01445 0.0
C1075 C 0.84362 0.63036 0.15155 0.0
C1076 C 0.8734 0.5946 0.10529 0.0
C1077 C 0.87533 0.6046 0.31091 0.0
C1078 C 0.87637 0.60213 0.39271 0.0
C1079 C 0.88128 0.5762 0.34573 0.0
C1080 C 0.87894 0.58642 0.30725 0.0
C1081 C 0.87986 0.58393 0.38818 0.0
C1082 C 0.87433 0.61249 0.35386 0.0
C1083 C 0.87142 0.61533 0.27078 0.0
H1084 H 0.92684 0.65757 0.93109 0.0
H1085 H 0.90587 0.64847 0.98955 0.0
H1086 H 0.92048 0.65176 0.85178 0.0
H1087 H 0.87196 0.62526 0.88844 0.0
H1088 H 0.88397 0.56216 0.34266 0.0
H1089 H 0.87964 0.58001 0.27476 0.0
H1090 H 0.88154 0.5757 0.41761 0.0
H1091 H 0.87138 0.6265 0.35705 0.0
C1092 C 0.09078 0.10395 0.80677 0.0
C1093 C 0.07038 0.12745 0.78552 0.0
C1094 C 0.08756 0.12165 0.79705 0.0
C1095 C 0.05627 0.11536 0.78601 0.0
C1096 C 0.07674 0.09163 0.80518 0.0
C1097 C 0.05943 0.09751 0.79599 0.0
N1098 N 0.10773 0.09862 0.8151 0.0
C1099 C 0.11169 0.08096 0.81663 0.0
C1100 C 0.0806 0.07367 0.81119 0.0
C1101 C 0.09819 0.06828 0.81591 0.0
Gd1102 Gd 0.14174 0.13347 0.94572 0.0
Gd1103 Gd 0.12902 0.12148 0.81754 0.0
N1104 N 0.10133 0.13323 0.7986 0.0
C1105 C 0.06794 0.14524 0.77365 0.0
C1106 C 0.09927 0.15034 0.7849 0.0
C1107 C 0.0825 0.15667 0.77275 0.0
H1108 H 0.11056 0.15911 0.78395 0.0
H1109 H 0.08081 0.17034 0.76281 0.0
H1110 H 0.15566 0.09414 0.98647 0.0
H1111 H 0.12523 0.07642 0.81763 0.0
H1112 H 0.18363 0.08056 0.01184 0.0
H1113 H 0.05494 0.1502 0.76455 0.0
H1114 H 0.04291 0.11962 0.77803 0.0
H1115 H 0.1494 0.17719 0.94013 0.0
H1116 H 0.0702 0.06379 0.81023 0.0
H1117 H 0.10141 0.05434 0.81835 0.0
H1118 H 0.2254 0.12843 0.00984 0.0
H1119 H 0.04846 0.08827 0.79525 0.0
H1120 H 0.20429 0.18598 0.9681 0.0
H1121 H 0.17471 0.19755 0.9468 0.0
N1122 N 0.16472 0.15407 0.95304 0.0
C1123 C 0.18051 0.14758 0.96773 0.0
C1124 C 0.16233 0.17184 0.94738 0.0
C1125 C 0.19324 0.17692 0.96436 0.0
C1126 C 0.17661 0.18349 0.95208 0.0
C1127 C 0.19529 0.15881 0.97315 0.0
H1128 H 0.22299 0.16013 0.99226 0.0
N1129 N 0.16723 0.11914 0.97263 0.0
C1130 C 0.1818 0.12962 0.97771 0.0
C1131 C 0.19868 0.10462 1.00489 0.0
C1132 C 0.19797 0.12258 0.99362 0.0
C1133 C 0.16759 0.10194 0.98626 0.0
C1134 C 0.18336 0.09432 1.00175 0.0
O1135 O 0.10916 0.13405 0.86446 0.0
O1136 O 0.11498 0.12078 0.9312 0.0
O1137 O 0.14121 0.12984 0.01896 0.0
O1138 O 0.12751 0.15214 0.98703 0.0
O1139 O 0.13937 0.14951 0.83121 0.0
O1140 O 0.1299 0.15541 0.90348 0.0
O1141 O 0.16325 0.13586 0.89158 0.0
O1142 O 0.15661 0.11418 0.83953 0.0
O1143 O 0.14022 0.13404 0.7585 0.0
O1144 O 0.12727 0.10871 0.75227 0.0
O1145 O 0.13344 0.10496 0.93402 0.0
O1146 O 0.14022 0.09843 0.85967 0.0
C1147 C 0.10358 0.12719 0.90203 0.0
C1148 C 0.13475 0.16069 0.86334 0.0
C1149 C 0.12515 0.15047 0.06819 0.0
C1150 C 0.12215 0.14786 0.14976 0.0
C1151 C 0.10733 0.17168 0.10957 0.0
C1152 C 0.1142 0.16552 0.06923 0.0
C1153 C 0.1112 0.16292 0.14948 0.0
C1154 C 0.12931 0.14172 0.10886 0.0
C1155 C 0.13144 0.14391 0.02418 0.0
C1156 C 0.21284 0.13366 0.99803 0.0
C1157 C 0.21149 0.15171 0.98787 0.0
H1158 H 0.21087 0.09869 0.01709 0.0
C1159 C 0.16793 0.12513 0.85852 0.0
C1160 C 0.13707 0.0936 0.90166 0.0
C1161 C 0.14806 0.11578 0.69684 0.0
C1162 C 0.15597 0.11427 0.61736 0.0
C1163 C 0.17447 0.10004 0.67435 0.0
C1164 C 0.16298 0.10565 0.70794 0.0
C1165 C 0.17099 0.10421 0.62945 0.0
C1166 C 0.14459 0.12009 0.6517 0.0
C1167 C 0.13546 0.12129 0.73142 0.0
H1168 H 0.09891 0.18328 0.10989 0.0
H1169 H 0.11078 0.17254 0.03871 0.0
H1170 H 0.10577 0.1681 0.18042 0.0
H1171 H 0.1377 0.13007 0.10864 0.0
H1172 H 0.18599 0.09221 0.68304 0.0
H1173 H 0.16563 0.10197 0.74246 0.0
H1174 H 0.1799 0.09918 0.60416 0.0
H1175 H 0.13301 0.12797 0.64349 0.0
C1176 C 0.66034 0.34372 0.53306 0.0
C1177 C 0.63729 0.32376 0.50591 0.0
C1178 C 0.64248 0.33981 0.52656 0.0
C1179 C 0.65025 0.31159 0.4925 0.0
C1180 C 0.67336 0.3316 0.5188 0.0
C1181 C 0.66821 0.31561 0.49851 0.0
N1182 N 0.66499 0.35998 0.54918 0.0
C1183 C 0.68232 0.36519 0.54925 0.0
C1184 C 0.69121 0.33634 0.52276 0.0
C1185 C 0.6957 0.35329 0.53766 0.0
Gd1186 Gd 0.62909 0.38956 0.69131 0.0
Gd1187 Gd 0.64128 0.37918 0.56428 0.0
N1188 N 0.63021 0.35214 0.53807 0.0
C1189 C 0.61927 0.32081 0.49724 0.0
C1190 C 0.61276 0.34989 0.52684 0.0
C1191 C 0.60697 0.33402 0.50733 0.0
H1192 H 0.60332 0.36033 0.53296 0.0
H1193 H 0.59308 0.33211 0.49942 0.0
H1194 H 0.66937 0.40646 0.72037 0.0
H1195 H 0.68592 0.37873 0.55614 0.0
H1196 H 0.68229 0.43556 0.73617 0.0
H1197 H 0.61478 0.30862 0.48148 0.0
H1198 H 0.64652 0.29934 0.47586 0.0
H1199 H 0.58523 0.39563 0.6887 0.0
H1200 H 0.70158 0.32732 0.51241 0.0
H1201 H 0.70941 0.35744 0.53856 0.0
H1202 H 0.63259 0.47496 0.73904 0.0
H1203 H 0.67811 0.30661 0.48569 0.0
H1204 H 0.57491 0.45061 0.71204 0.0
H1205 H 0.56406 0.4204 0.69538 0.0
N1206 N 0.60789 0.41195 0.69811 0.0
C1207 C 0.61412 0.42825 0.70981 0.0
C1208 C 0.59015 0.40887 0.69443 0.0
C1209 C 0.58429 0.43983 0.70863 0.0
C1210 C 0.57811 0.4228 0.699 0.0
C1211 C 0.60247 0.44272 0.71452 0.0
H1212 H 0.60056 0.47086 0.72834 0.0
N1213 N 0.64323 0.41626 0.71126 0.0
C1214 C 0.63228 0.43052 0.71595 0.0
C1215 C 0.65739 0.44927 0.73307 0.0
C1216 C 0.63912 0.44743 0.72661 0.0
C1217 C 0.66089 0.41785 0.72003 0.0
C1218 C 0.66825 0.43438 0.73017 0.0
O1219 O 0.6307 0.35647 0.60609 0.0
O1220 O 0.64068 0.36197 0.67766 0.0
O1221 O 0.63431 0.38994 0.76428 0.0
O1222 O 0.61077 0.37694 0.73589 0.0
O1223 O 0.6128 0.38767 0.57954 0.0
O1224 O 0.60793 0.37614 0.64978 0.0
O1225 O 0.62602 0.41076 0.636 0.0
O1226 O 0.64997 0.40544 0.59261 0.0
O1227 O 0.62736 0.39361 0.51153 0.0
O1228 O 0.65202 0.38045 0.49693 0.0
O1229 O 0.65717 0.38026 0.68236 0.0
O1230 O 0.66495 0.38763 0.60965 0.0
C1231 C 0.63626 0.35074 0.64535 0.0
C1232 C 0.60205 0.38149 0.61051 0.0
C1233 C 0.61397 0.37533 0.81674 0.0
C1234 C 0.6172 0.37423 0.89846 0.0
C1235 C 0.59422 0.35707 0.8609 0.0
C1236 C 0.59964 0.36351 0.81955 0.0
C1237 C 0.60298 0.36229 0.90007 0.0
C1238 C 0.62266 0.38089 0.85663 0.0
C1239 C 0.61994 0.38092 0.77179 0.0
C1240 C 0.62756 0.46191 0.73077 0.0
C1241 C 0.6093 0.45956 0.7248 0.0
H1242 H 0.66319 0.46203 0.74114 0.0
C1243 C 0.63837 0.41661 0.60872 0.0
C1244 C 0.6692 0.38346 0.65174 0.0
C1245 C 0.6426 0.40234 0.4457 0.0
C1246 C 0.64324 0.40986 0.36602 0.0
C1247 C 0.65252 0.43138 0.42274 0.0
C1248 C 0.64911 0.41915 0.45655 0.0
C1249 C 0.6496 0.42681 0.37777 0.0
C1250 C 0.63979 0.39765 0.40044 0.0
C1251 C 0.63876 0.38936 0.48075 0.0
H1252 H 0.58322 0.34792 0.86257 0.0
H1253 H 0.59269 0.359 0.78963 0.0
H1254 H 0.59852 0.35714 0.93192 0.0
H1255 H 0.63371 0.39003 0.85519 0.0
H1256 H 0.65752 0.4444 0.43139 0.0
H1257 H 0.65158 0.42269 0.49105 0.0
H1258 H 0.65259 0.43645 0.35214 0.0
H1259 H 0.63472 0.38459 0.39214 0.0
C1260 C 0.42154 0.90949 0.29534 0.0
C1261 C 0.44106 0.88632 0.26748 0.0
C1262 C 0.42468 0.89172 0.28535 0.0
C1263 C 0.45433 0.89894 0.26029 0.0
C1264 C 0.43477 0.92222 0.28708 0.0
C1265 C 0.45109 0.91683 0.26949 0.0
N1266 N 0.40518 0.91449 0.3097 0.0
C1267 C 0.40101 0.93208 0.31325 0.0
C1268 C 0.43094 0.94011 0.29451 0.0
C1269 C 0.41393 0.94506 0.30723 0.0
Gd1270 Gd 0.37372 0.87913 0.44325 0.0
Gd1271 Gd 0.3845 0.89125 0.31531 0.0
N1272 N 0.41154 0.87975 0.29196 0.0
C1273 C 0.4434 0.86846 0.25598 0.0
C1274 C 0.41336 0.86253 0.27853 0.0
C1275 C 0.42942 0.85654 0.26116 0.0
H1276 H 0.40239 0.85344 0.28114 0.0
H1277 H 0.43094 0.84281 0.25128 0.0
H1278 H 0.36075 0.91812 0.48798 0.0
H1279 H 0.38763 0.93641 0.31902 0.0
H1280 H 0.33319 0.9319 0.51467 0.0
H1281 H 0.45579 0.86382 0.24215 0.0
H1282 H 0.46696 0.89508 0.24629 0.0
H1283 H 0.36525 0.83568 0.43334 0.0
H1284 H 0.44078 0.95026 0.2887 0.0
H1285 H 0.41059 0.95893 0.31097 0.0
H1286 H 0.29056 0.88482 0.50774 0.0
H1287 H 0.46103 0.92652 0.26111 0.0
H1288 H 0.31045 0.82741 0.46068 0.0
H1289 H 0.33964 0.81563 0.43805 0.0
N1290 N 0.35045 0.85882 0.44883 0.0
C1291 C 0.33488 0.86538 0.46431 0.0
C1292 C 0.35247 0.8411 0.44129 0.0
C1293 C 0.32162 0.83633 0.45791 0.0
C1294 C 0.33804 0.82964 0.44486 0.0
C1295 C 0.31995 0.85434 0.46857 0.0
H1296 H 0.29228 0.8533 0.48683 0.0
N1297 N 0.34857 0.8936 0.47105 0.0
C1298 C 0.3339 0.88328 0.47553 0.0
C1299 C 0.31764 0.90824 0.50506 0.0
C1300 C 0.31797 0.89041 0.49208 0.0
C1301 C 0.34864 0.91059 0.48672 0.0
C1302 C 0.33312 0.91829 0.50305 0.0
O1303 O 0.40625 0.87985 0.35978 0.0
O1304 O 0.40063 0.89161 0.42889 0.0
O1305 O 0.37467 0.88333 0.51614 0.0
O1306 O 0.38751 0.86027 0.48571 0.0
O1307 O 0.37559 0.86275 0.32926 0.0
O1308 O 0.38624 0.85761 0.40108 0.0
O1309 O 0.35173 0.87606 0.3891 0.0
O1310 O 0.35734 0.89836 0.33935 0.0
O1311 O 0.372 0.87879 0.25671 0.0
O1312 O 0.38484 0.90415 0.25052 0.0
O1313 O 0.38186 0.90765 0.43242 0.0
O1314 O 0.37362 0.91407 0.35895 0.0
C1315 C 0.41194 0.88597 0.39863 0.0
C1316 C 0.38131 0.85188 0.361 0.0
C1317 C 0.39005 0.86296 0.5671 0.0
C1318 C 0.3917 0.86601 0.64894 0.0
C1319 C 0.40899 0.84343 0.61092 0.0
C1320 C 0.40216 0.84887 0.56963 0.0
C1321 C 0.40389 0.85198 0.65026 0.0
C1322 C 0.38463 0.87143 0.60716 0.0
C1323 C 0.38395 0.86903 0.52236 0.0
C1324 C 0.30296 0.87951 0.49553 0.0
C1325 C 0.30393 0.86155 0.48368 0.0
H1326 H 0.30565 0.91423 0.51787 0.0
C1327 C 0.34641 0.88693 0.35701 0.0
C1328 C 0.3775 0.91898 0.40076 0.0
C1329 C 0.36402 0.89681 0.19415 0.0
C1330 C 0.35613 0.89723 0.11432 0.0
C1331 C 0.338 0.91283 0.16897 0.0
C1332 C 0.34951 0.90774 0.20349 0.0
C1333 C 0.34123 0.90761 0.12471 0.0
C1334 C 0.36742 0.89174 0.14952 0.0
C1335 C 0.37652 0.89149 0.22969 0.0
H1336 H 0.41836 0.8326 0.61242 0.0
H1337 H 0.40659 0.84214 0.53955 0.0
H1338 H 0.40936 0.84748 0.68199 0.0
H1339 H 0.37528 0.88233 0.60588 0.0
H1340 H 0.32669 0.92111 0.1764 0.0
H1341 H 0.34716 0.9124 0.23736 0.0
H1342 H 0.33235 0.91216 0.09842 0.0
H1343 H 0.37891 0.88366 0.14219 0.0
H1344 H 0.1461 0.63824 0.82826 0.0
H1345 H 0.14203 0.64488 0.74858 0.0
H1346 H 0.13583 0.58929 0.71941 0.0
H1347 H 0.13863 0.58249 0.79891 0.0
H1348 H 0.16082 0.60691 0.66349 0.0
H1349 H 0.1012 0.61264 0.71475 0.0
H1350 H 0.07678 0.62388 0.76122 0.0
H1351 H 0.08728 0.67689 0.71713 0.0
H1352 H 0.112 0.66599 0.67099 0.0
H1353 H 0.12449 0.61231 0.43732 0.0
H1354 H 0.12997 0.60541 0.51644 0.0
H1355 H 0.13687 0.6609 0.54584 0.0
H1356 H 0.13271 0.66793 0.46686 0.0
H1357 H 0.11173 0.6433 0.60156 0.0
H1358 H 0.17106 0.63795 0.55015 0.0
H1359 H 0.19571 0.62713 0.50387 0.0
H1360 H 0.18615 0.57397 0.5482 0.0
H1361 H 0.16119 0.58444 0.59413 0.0
C1362 C 0.14351 0.62737 0.8053 0.0
C1363 C 0.14291 0.60972 0.82073 0.0
C1364 C 0.14133 0.63124 0.75952 0.0
C1365 C 0.13877 0.61756 0.72797 0.0
C1366 C 0.138 0.60004 0.74307 0.0
C1367 C 0.13978 0.59619 0.78879 0.0
C1368 C 0.1371 0.62142 0.67912 0.0
C1369 C 0.14996 0.61468 0.64985 0.0
C1370 C 0.12317 0.63188 0.66142 0.0
C1371 C 0.10862 0.63853 0.68996 0.0
C1372 C 0.09847 0.62673 0.71547 0.0
C1373 C 0.08454 0.63303 0.74164 0.0
C1374 C 0.08052 0.6511 0.74227 0.0
C1375 C 0.09044 0.6629 0.71672 0.0
C1376 C 0.10442 0.65667 0.69058 0.0
C1377 C 0.12758 0.62308 0.46019 0.0
C1378 C 0.12781 0.64079 0.44514 0.0
C1379 C 0.13058 0.61907 0.50563 0.0
C1380 C 0.13365 0.63267 0.53713 0.0
C1381 C 0.13432 0.65022 0.52223 0.0
C1382 C 0.13173 0.65421 0.47686 0.0
C1383 C 0.13544 0.62879 0.58591 0.0
C1384 C 0.12259 0.63552 0.61518 0.0
C1385 C 0.14941 0.61837 0.60357 0.0
C1386 C 0.16406 0.61194 0.57502 0.0
C1387 C 0.17402 0.62391 0.54949 0.0
C1388 C 0.1881 0.61785 0.52345 0.0
C1389 C 0.19245 0.59986 0.52294 0.0
C1390 C 0.18272 0.58789 0.5485 0.0
C1391 C 0.1686 0.59388 0.57453 0.0
H1392 H 0.20339 0.59521 0.50288 0.0
H1393 H 0.06969 0.65594 0.76244 0.0
H1394 H 0.67475 0.88717 0.06098 0.0
H1395 H 0.66809 0.87992 0.98255 0.0
H1396 H 0.61435 0.89787 1.00003 0.0
H1397 H 0.62093 0.90469 0.07935 0.0
H1398 H 0.61572 0.86985 0.94192 0.0
H1399 H 0.64577 0.92567 0.95837 0.0
H1400 H 0.66973 0.94513 0.98624 0.0
H1401 H 0.70789 0.91442 0.91347 0.0
H1402 H 0.68417 0.89461 0.88574 0.0
H1403 H 0.59643 0.89048 0.71573 0.0
H1404 H 0.60251 0.89302 0.79601 0.0
H1405 H 0.65533 0.87303 0.77589 0.0
H1406 H 0.64922 0.87001 0.69525 0.0
H1407 H 0.65465 0.90128 0.83507 0.0
H1408 H 0.62462 0.84598 0.81671 0.0
H1409 H 0.60078 0.82631 0.7892 0.0
H1410 H 0.56269 0.85593 0.865 0.0
H1411 H 0.58629 0.87595 0.89244 0.0
C1412 C 0.6614 0.88917 0.04833 0.0
C1413 C 0.64839 0.89663 0.07602 0.0
C1414 C 0.65763 0.88513 1.00344 0.0
C1415 C 0.64087 0.88882 0.98495 0.0
C1416 C 0.62744 0.89505 0.01341 0.0
C1417 C 0.63117 0.8989 0.05871 0.0
C1418 C 0.63791 0.88751 0.93545 0.0
C1419 C 0.6241 0.87689 0.91862 0.0
C1420 C 0.64904 0.8964 0.90478 0.0
C1421 C 0.66323 0.9086 0.92028 0.0
C1422 C 0.65929 0.92304 0.94846 0.0
C1423 C 0.67282 0.93412 0.96424 0.0
C1424 C 0.69033 0.93099 0.9517 0.0
C1425 C 0.69433 0.91682 0.92318 0.0
C1426 C 0.68084 0.90567 0.90739 0.0
C1427 C 0.60931 0.88645 0.72823 0.0
C1428 C 0.62221 0.87974 0.69884 0.0
C1429 C 0.61279 0.88799 0.77425 0.0
C1430 C 0.62926 0.88291 0.79216 0.0
C1431 C 0.64248 0.87694 0.76285 0.0
C1432 C 0.63897 0.87529 0.71667 0.0
C1433 C 0.63247 0.88363 0.84156 0.0
C1434 C 0.64631 0.89419 0.85836 0.0
C1435 C 0.62136 0.8747 0.87213 0.0
C1436 C 0.60719 0.86254 0.85633 0.0
C1437 C 0.61114 0.84836 0.82729 0.0
C1438 C 0.59768 0.83715 0.81173 0.0
C1439 C 0.58023 0.83989 0.82527 0.0
C1440 C 0.57621 0.85383 0.85452 0.0
C1441 C 0.58963 0.8651 0.87012 0.0
H1442 H 0.56981 0.8312 0.81316 0.0
H1443 H 0.70079 0.93957 0.96402 0.0
H1444 H 0.38616 0.42586 0.30494 0.0
H1445 H 0.39086 0.4186 0.22586 0.0
H1446 H 0.36035 0.37069 0.24108 0.0
H1447 H 0.35652 0.37753 0.32107 0.0
H1448 H 0.38541 0.36413 0.18603 0.0
H1449 H 0.34267 0.41116 0.1946 0.0
H1450 H 0.33161 0.44037 0.21905 0.0
H1451 H 0.3744 0.4659 0.15093 0.0
H1452 H 0.38582 0.4368 0.12651 0.0
H1453 H 0.3612 0.35286 0.95679 0.0
H1454 H 0.35977 0.35982 0.03679 0.0
H1455 H 0.39941 0.40028 0.0207 0.0
H1456 H 0.40134 0.39307 0.94055 0.0
H1457 H 0.37049 0.41081 0.07507 0.0
H1458 H 0.41207 0.36274 0.06412 0.0
H1459 H 0.4218 0.33317 0.03895 0.0
H1460 H 0.37913 0.30915 0.11092 0.0
H1461 H 0.369 0.33864 0.136 0.0
C1462 C 0.38062 0.4137 0.2914 0.0
C1463 C 0.3708 0.40236 0.31888 0.0
C1464 C 0.38319 0.4096 0.24611 0.0
C1465 C 0.37548 0.39437 0.22683 0.0
C1466 C 0.36632 0.38261 0.25485 0.0
C1467 C 0.3641 0.38651 0.30054 0.0
C1468 C 0.37648 0.39103 0.17739 0.0
C1469 C 0.38193 0.37431 0.16192 0.0
C1470 C 0.37224 0.40432 0.14545 0.0
C1471 C 0.36515 0.42183 0.15904 0.0
C1472 C 0.34973 0.42301 0.18496 0.0
C1473 C 0.34341 0.43953 0.19882 0.0
C1474 C 0.35232 0.45498 0.18662 0.0
C1475 C 0.36752 0.45393 0.16036 0.0
C1476 C 0.37391 0.43743 0.14645 0.0
C1477 C 0.36975 0.36316 0.97016 0.0
C1478 C 0.38157 0.37222 0.94208 0.0
C1479 C 0.36884 0.36717 0.01596 0.0
C1480 C 0.37964 0.38042 0.03486 0.0
C1481 C 0.39097 0.38999 0.00681 0.0
C1482 C 0.39199 0.38589 0.96092 0.0
C1483 C 0.37932 0.38396 0.08405 0.0
C1484 C 0.37399 0.4007 0.09936 0.0
C1485 C 0.38343 0.37063 0.11578 0.0
C1486 C 0.3897 0.35289 0.10159 0.0
C1487 C 0.40471 0.35116 0.07435 0.0
C1488 C 0.4103 0.33441 0.06013 0.0
C1489 C 0.40107 0.31929 0.07323 0.0
C1490 C 0.38626 0.32088 0.10076 0.0
C1491 C 0.3806 0.3376 0.11503 0.0
H1492 H 0.4054 0.30634 0.06213 0.0
H1493 H 0.34742 0.46776 0.19747 0.0
H1494 H 0.88756 0.10429 0.5739 0.0
H1495 H 0.87972 0.09859 0.49489 0.0
H1496 H 0.8737 0.15474 0.47309 0.0
H1497 H 0.88123 0.16039 0.55187 0.0
H1498 H 0.85035 0.13643 0.42191 0.0
H1499 H 0.91261 0.13564 0.45237 0.0
H1500 H 0.93958 0.12611 0.49285 0.0
H1501 H 0.93076 0.07246 0.44945 0.0
H1502 H 0.90356 0.08167 0.40926 0.0
H1503 H 0.86472 0.13646 0.18608 0.0
H1504 H 0.86799 0.14249 0.26645 0.0
H1505 H 0.87739 0.08695 0.29048 0.0
H1506 H 0.87525 0.081 0.21015 0.0
H1507 H 0.89866 0.10565 0.34094 0.0
H1508 H 0.83562 0.10826 0.30752 0.0
H1509 H 0.80929 0.11969 0.26745 0.0
H1510 H 0.82067 0.17223 0.31559 0.0
H1511 H 0.84719 0.16113 0.35547 0.0
C1512 C 0.88391 0.11532 0.55257 0.0
C1513 C 0.8851 0.13278 0.56873 0.0
C1514 C 0.87961 0.11209 0.50738 0.0
C1515 C 0.87651 0.12628 0.47784 0.0
C1516 C 0.87612 0.14359 0.49509 0.0
C1517 C 0.88043 0.14681 0.54009 0.0
C1518 C 0.87558 0.12337 0.42845 0.0
C1519 C 0.86094 0.12976 0.40415 0.0
C1520 C 0.88943 0.11481 0.40514 0.0
C1521 C 0.90599 0.1093 0.42823 0.0
C1522 C 0.91639 0.1218 0.45167 0.0
C1523 C 0.93171 0.11646 0.47454 0.0
C1524 C 0.93686 0.09868 0.47382 0.0
C1525 C 0.92674 0.08622 0.45003 0.0
C1526 C 0.91138 0.09149 0.42718 0.0
C1527 C 0.86777 0.12555 0.20832 0.0
C1528 C 0.86947 0.10817 0.19148 0.0
C1529 C 0.8694 0.129 0.25445 0.0
C1530 C 0.87249 0.11511 0.28482 0.0
C1531 C 0.87481 0.09788 0.26791 0.0
C1532 C 0.87338 0.09446 0.22188 0.0
C1533 C 0.8732 0.11831 0.33423 0.0
C1534 C 0.88794 0.11214 0.3586 0.0
C1535 C 0.85953 0.1273 0.35743 0.0
C1536 C 0.84344 0.13389 0.33412 0.0
C1537 C 0.83254 0.12226 0.30936 0.0
C1538 C 0.81759 0.12868 0.28671 0.0
C1539 C 0.81333 0.14668 0.28889 0.0
C1540 C 0.82399 0.15829 0.31388 0.0
C1541 C 0.83897 0.15194 0.33655 0.0
H1542 H 0.80176 0.15163 0.27128 0.0
H1543 H 0.94871 0.09456 0.49161 0.0
H1544 H 0.14989 0.37651 0.18446 0.0
H1545 H 0.15709 0.38216 0.26292 0.0
H1546 H 0.10156 0.3808 0.29537 0.0
H1547 H 0.09411 0.37752 0.21658 0.0
H1548 H 0.11495 0.4037 0.3443 0.0
H1549 H 0.13423 0.34371 0.31039 0.0
H1550 H 0.15139 0.32134 0.26858 0.0
H1551 H 0.19983 0.34731 0.30708 0.0
H1552 H 0.18294 0.36993 0.34869 0.0
H1553 H 0.12414 0.39222 0.57826 0.0
H1554 H 0.11761 0.38612 0.49937 0.0
H1555 H 0.17317 0.39026 0.46878 0.0
H1556 H 0.17998 0.39468 0.54798 0.0
H1557 H 0.16021 0.36618 0.41913 0.0
H1558 H 0.14086 0.42585 0.45371 0.0
H1559 H 0.12373 0.44814 0.49584 0.0
H1560 H 0.07524 0.4225 0.45626 0.0
H1561 H 0.09212 0.39995 0.41432 0.0
C1562 C 0.1391 0.37783 0.20784 0.0
C1563 C 0.12132 0.37618 0.19343 0.0
C1564 C 0.14332 0.3807 0.25324 0.0
C1565 C 0.12994 0.38127 0.28578 0.0
C1566 C 0.11223 0.38019 0.27135 0.0
C1567 C 0.10798 0.37795 0.22592 0.0
C1568 C 0.13418 0.38293 0.33481 0.0
C1569 C 0.1247 0.39529 0.3606 0.0
C1570 C 0.14719 0.37235 0.35649 0.0
C1571 C 0.15733 0.35856 0.33229 0.0
C1572 C 0.14854 0.34466 0.3098 0.0
C1573 C 0.15822 0.33195 0.28614 0.0
C1574 C 0.17669 0.33293 0.28509 0.0
C1575 C 0.18553 0.34657 0.30788 0.0
C1576 C 0.17592 0.35932 0.33154 0.0
C1577 C 0.13506 0.39139 0.55509 0.0
C1578 C 0.15262 0.39428 0.56982 0.0
C1579 C 0.13125 0.38821 0.50962 0.0
C1580 C 0.14482 0.38832 0.47759 0.0
C1581 C 0.16239 0.39034 0.49252 0.0
C1582 C 0.16625 0.39311 0.53799 0.0
C1583 C 0.14084 0.38678 0.42851 0.0
C1584 C 0.15041 0.37451 0.40275 0.0
C1585 C 0.12788 0.3974 0.40686 0.0
C1586 C 0.11775 0.41117 0.43123 0.0
C1587 C 0.12655 0.42495 0.45414 0.0
C1588 C 0.11689 0.43762 0.47798 0.0
C1589 C 0.09841 0.43671 0.47881 0.0
C1590 C 0.08955 0.42318 0.45563 0.0
C1591 C 0.09915 0.41047 0.43178 0.0
H1592 H 0.09096 0.44651 0.49736 0.0
H1593 H 0.18415 0.32309 0.26669 0.0
H1594 H 0.89958 0.85204 0.80102 0.0
H1595 H 0.89232 0.85427 0.72097 0.0
H1596 H 0.86999 0.90619 0.74363 0.0
H1597 H 0.87626 0.90337 0.82427 0.0
H1598 H 0.85126 0.891 0.68396 0.0
H1599 H 0.91441 0.89779 0.70116 0.0
H1600 H 0.94439 0.88892 0.72582 0.0
H1601 H 0.94078 0.84178 0.64495 0.0
H1602 H 0.91069 0.85027 0.62028 0.0
H1603 H 0.85905 0.92611 0.46657 0.0
H1604 H 0.86409 0.91943 0.54552 0.0
H1605 H 0.87571 0.86512 0.51152 0.0
H1606 H 0.8702 0.87156 0.43196 0.0
H1607 H 0.89927 0.87948 0.575 0.0
H1608 H 0.83636 0.87456 0.55445 0.0
H1609 H 0.80689 0.88468 0.52911 0.0
H1610 H 0.81088 0.9301 0.61599 0.0
H1611 H 0.8405 0.92038 0.64135 0.0
C1612 C 0.89292 0.8638 0.78879 0.0
C1613 C 0.88858 0.87759 0.81848 0.0
C1614 C 0.88893 0.86517 0.74301 0.0
C1615 C 0.88111 0.88065 0.72572 0.0
C1616 C 0.87615 0.89416 0.75585 0.0
C1617 C 0.87973 0.89258 0.8019 0.0
C1618 C 0.87845 0.88296 0.67633 0.0
C1619 C 0.86186 0.88866 0.66034 0.0
C1620 C 0.89209 0.87955 0.64494 0.0
C1621 C 0.91026 0.87458 0.65922 0.0
C1622 C 0.91999 0.8855 0.68882 0.0
C1623 C 0.937 0.88054 0.70279 0.0
C1624 C 0.94447 0.86478 0.68704 0.0
C1625 C 0.93497 0.85397 0.65716 0.0
C1626 C 0.91795 0.85885 0.64315 0.0
C1627 C 0.86242 0.91265 0.47569 0.0
C1628 C 0.86382 0.8993 0.44271 0.0
C1629 C 0.86542 0.90889 0.52096 0.0
C1630 C 0.86996 0.89171 0.53454 0.0
C1631 C 0.87209 0.87845 0.50178 0.0
C1632 C 0.86899 0.88219 0.45628 0.0
C1633 C 0.87222 0.88772 0.5831 0.0
C1634 C 0.8887 0.88171 0.5988 0.0
C1635 C 0.85858 0.89105 0.61428 0.0
C1636 C 0.84068 0.8968 0.59955 0.0
C1637 C 0.83099 0.88676 0.56794 0.0
C1638 C 0.81426 0.89242 0.5536 0.0
C1639 C 0.80703 0.90804 0.57087 0.0
C1640 C 0.8165 0.91801 0.60262 0.0
C1641 C 0.83325 0.91242 0.61703 0.0
H1642 H 0.79407 0.9124 0.55971 0.0
H1643 H 0.95763 0.86095 0.69793 0.0
H1644 H 0.36391 0.63942 0.68159 0.0
H1645 H 0.37023 0.6471 0.76057 0.0
H1646 H 0.37749 0.59177 0.79095 0.0
H1647 H 0.37158 0.58412 0.71268 0.0
H1648 H 0.35374 0.60687 0.84652 0.0
H1649 H 0.41187 0.61943 0.79314 0.0
H1650 H 0.43478 0.63352 0.74702 0.0
H1651 H 0.41922 0.68475 0.79596 0.0
H1652 H 0.39599 0.67099 0.84182 0.0
H1653 H 0.38823 0.6133 0.07201 0.0
H1654 H 0.38395 0.60708 0.99197 0.0
H1655 H 0.37391 0.66241 0.96769 0.0
H1656 H 0.37717 0.66869 0.0476 0.0
H1657 H 0.39884 0.64804 0.90921 0.0
H1658 H 0.3408 0.63537 0.9626 0.0
H1659 H 0.3176 0.62131 0.00786 0.0
H1660 H 0.33322 0.57008 0.95896 0.0
H1661 H 0.35673 0.58383 0.91394 0.0
C1662 C 0.3673 0.62897 0.70492 0.0
C1663 C 0.36693 0.61112 0.69096 0.0
C1664 C 0.37083 0.63335 0.75011 0.0
C1665 C 0.37409 0.61997 0.78192 0.0
C1666 C 0.37476 0.60231 0.7673 0.0
C1667 C 0.37137 0.59796 0.72244 0.0
C1668 C 0.37563 0.62399 0.8309 0.0
C1669 C 0.36378 0.6157 0.86023 0.0
C1670 C 0.38839 0.63585 0.84885 0.0
C1671 C 0.40201 0.6442 0.82039 0.0
C1672 C 0.41316 0.63372 0.79359 0.0
C1673 C 0.42625 0.64164 0.7676 0.0
C1674 C 0.42841 0.66003 0.76842 0.0
C1675 C 0.41749 0.67052 0.79524 0.0
C1676 C 0.40436 0.66267 0.82122 0.0
C1677 C 0.38477 0.62415 0.04999 0.0
C1678 C 0.38329 0.64159 0.06675 0.0
C1679 C 0.38245 0.62055 1.00403 0.0
C1680 C 0.37874 0.63431 0.97375 0.0
C1681 C 0.37697 0.65162 0.99033 0.0
C1682 C 0.37898 0.65518 0.0362 0.0
C1683 C 0.37706 0.6308 0.92466 0.0
C1684 C 0.38883 0.63921 0.89539 0.0
C1685 C 0.36425 0.61901 0.90672 0.0
C1686 C 0.35065 0.61062 0.93524 0.0
C1687 C 0.33946 0.62109 0.96198 0.0
C1688 C 0.32621 0.61318 0.98748 0.0
C1689 C 0.32395 0.59481 0.98633 0.0
C1690 C 0.335 0.58431 0.95985 0.0
C1691 C 0.34829 0.59215 0.93434 0.0
H1692 H 0.31361 0.58873 1.00586 0.0
H1693 H 0.43859 0.66613 0.74838 0.0
H1694 H 0.65121 0.15739 0.95993 0.0
H1695 H 0.65326 0.15066 0.03964 0.0
H1696 H 0.6119 0.11164 0.0243 0.0
H1697 H 0.60913 0.11899 0.94451 0.0
H1698 H 0.60588 0.13094 0.09583 0.0
H1699 H 0.65615 0.09999 0.04117 0.0
H1700 H 0.68388 0.0955 0.99965 0.0
H1701 H 0.70952 0.13533 0.08055 0.0
H1702 H 0.68184 0.14028 0.12207 0.0
H1703 H 0.62629 0.09185 0.31301 0.0
H1704 H 0.62154 0.09703 0.23225 0.0
H1705 H 0.65204 0.1452 0.24198 0.0
H1706 H 0.65635 0.14028 0.32289 0.0
H1707 H 0.66309 0.11947 0.17354 0.0
H1708 H 0.61165 0.15056 0.22611 0.0
H1709 H 0.58366 0.15418 0.26703 0.0
H1710 H 0.56023 0.11205 0.18943 0.0
H1711 H 0.58821 0.10798 0.14856 0.0
C1712 C 0.64246 0.14743 0.97343 0.0
C1713 C 0.62987 0.13888 0.94574 0.0
C1714 C 0.64381 0.14342 0.01905 0.0
C1715 C 0.63286 0.1305 0.0381 0.0
C1716 C 0.62052 0.12164 0.01043 0.0
C1717 C 0.61906 0.12575 0.96469 0.0
C1718 C 0.63389 0.12687 0.08719 0.0
C1719 C 0.61836 0.1281 0.11262 0.0
C1720 C 0.6502 0.12349 0.10946 0.0
C1721 C 0.66686 0.12061 0.08447 0.0
C1722 C 0.66765 0.1079 0.04985 0.0
C1723 C 0.68337 0.10525 0.02636 0.0
C1724 C 0.69844 0.11515 0.0374 0.0
C1725 C 0.69783 0.12769 0.072 0.0
C1726 C 0.68213 0.13041 0.09555 0.0
C1727 C 0.6316 0.10372 0.29791 0.0
C1728 C 0.64154 0.11576 0.32387 0.0
C1729 C 0.62894 0.10664 0.25195 0.0
C1730 C 0.63647 0.12147 0.23122 0.0
C1731 C 0.64612 0.13369 0.2574 0.0
C1732 C 0.64848 0.13094 0.30349 0.0
C1733 C 0.63516 0.12372 0.18185 0.0
C1734 C 0.65063 0.12219 0.1565 0.0
C1735 C 0.6188 0.1266 0.15964 0.0
C1736 C 0.60209 0.12881 0.18472 0.0
C1737 C 0.60061 0.14191 0.21819 0.0
C1738 C 0.58473 0.14408 0.24128 0.0
C1739 C 0.57019 0.13331 0.23095 0.0
C1740 C 0.57151 0.12035 0.19748 0.0
C1741 C 0.58738 0.11811 0.17435 0.0
H1742 H 0.55789 0.13504 0.24878 0.0
H1743 H 0.71061 0.11306 0.01919 0.0
H1744 H 0.86306 0.37573 0.19311 0.0
H1745 H 0.85679 0.38032 0.27273 0.0
H1746 H 0.91247 0.38657 0.30056 0.0
H1747 H 0.91889 0.38365 0.22103 0.0
H1748 H 0.88114 0.3569 0.34906 0.0
H1749 H 0.9072 0.4168 0.32583 0.0
H1750 H 0.90873 0.44532 0.2861 0.0
H1751 H 0.85333 0.45388 0.30908 0.0
H1752 H 0.85141 0.42511 0.34787 0.0
H1753 H 0.89256 0.39069 0.58247 0.0
H1754 H 0.89767 0.38504 0.50254 0.0
H1755 H 0.84192 0.39104 0.47513 0.0
H1756 H 0.8364 0.39543 0.55492 0.0
H1757 H 0.87262 0.41469 0.42599 0.0
H1758 H 0.84695 0.35708 0.45572 0.0
H1759 H 0.84432 0.32846 0.49457 0.0
H1760 H 0.8978 0.31547 0.45938 0.0
H1761 H 0.90084 0.34422 0.42109 0.0
C1762 C 0.87401 0.37859 0.21569 0.0
C1763 C 0.89158 0.37916 0.19996 0.0
C1764 C 0.87035 0.38106 0.26139 0.0
C1765 C 0.88416 0.38394 0.29238 0.0
C1766 C 0.90161 0.3846 0.27707 0.0
C1767 C 0.90525 0.38259 0.23142 0.0
C1768 C 0.88054 0.38522 0.34112 0.0
C1769 C 0.87941 0.36953 0.36598 0.0
C1770 C 0.87805 0.40166 0.36301 0.0
C1771 C 0.87908 0.41863 0.33863 0.0
C1772 C 0.89527 0.42457 0.32147 0.0
C1773 C 0.89623 0.44082 0.29935 0.0
C1774 C 0.88111 0.45135 0.29478 0.0
C1775 C 0.865 0.44565 0.31236 0.0
C1776 C 0.86397 0.42936 0.33429 0.0
C1777 C 0.88127 0.3903 0.55982 0.0
C1778 C 0.86404 0.39379 0.57553 0.0
C1779 C 0.88427 0.38721 0.51402 0.0
C1780 C 0.87017 0.38771 0.48303 0.0
C1781 C 0.85298 0.39065 0.49855 0.0
C1782 C 0.8499 0.39334 0.54427 0.0
C1783 C 0.87344 0.38637 0.43412 0.0
C1784 C 0.87443 0.40205 0.40918 0.0
C1785 C 0.87582 0.36991 0.4122 0.0
C1786 C 0.87423 0.35293 0.43639 0.0
C1787 C 0.85825 0.34827 0.45704 0.0
C1788 C 0.85666 0.33199 0.47874 0.0
C1789 C 0.87092 0.32019 0.47966 0.0
C1790 C 0.8868 0.32466 0.45883 0.0
C1791 C 0.88847 0.34095 0.43717 0.0
H1792 H 0.86963 0.30755 0.49632 0.0
H1793 H 0.88189 0.46398 0.27784 0.0
H1794 H 0.36675 0.14959 0.32596 0.0
H1795 H 0.36005 0.1468 0.24561 0.0
H1796 H 0.40388 0.11077 0.2304 0.0
H1797 H 0.41022 0.11279 0.31054 0.0
H1798 H 0.40406 0.13804 0.16784 0.0
H1799 H 0.36322 0.0951 0.2268 0.0
H1800 H 0.33874 0.08477 0.2742 0.0
H1801 H 0.30371 0.12252 0.21256 0.0
H1802 H 0.32807 0.13325 0.16527 0.0
H1803 H 0.38938 0.10678 0.94456 0.0
H1804 H 0.39527 0.11092 0.02494 0.0
H1805 H 0.34429 0.13616 0.03949 0.0
H1806 H 0.33806 0.13101 0.95979 0.0
H1807 H 0.3476 0.11546 0.10358 0.0
H1808 H 0.38735 0.15876 0.04416 0.0
H1809 H 0.41149 0.17022 0.99729 0.0
H1810 H 0.44803 0.13413 0.05974 0.0
H1811 H 0.42405 0.12229 0.10655 0.0
C1812 C 0.37479 0.14081 0.3058 0.0
C1813 C 0.38922 0.13161 0.32502 0.0
C1814 C 0.37099 0.13932 0.25973 0.0
C1815 C 0.38156 0.12867 0.23194 0.0
C1816 C 0.39568 0.11922 0.25109 0.0
C1817 C 0.39934 0.12051 0.29704 0.0
C1818 C 0.37829 0.1276 0.18268 0.0
C1819 C 0.39177 0.13297 0.15367 0.0
C1820 C 0.3621 0.12145 0.16424 0.0
C1821 C 0.34751 0.11512 0.19292 0.0
C1822 C 0.35035 0.10132 0.22371 0.0
C1823 C 0.33648 0.09537 0.25048 0.0
C1824 C 0.3197 0.10302 0.2465 0.0
C1825 C 0.31673 0.11663 0.21569 0.0
C1826 C 0.33055 0.12265 0.18889 0.0
C1827 C 0.37956 0.11338 0.96498 0.0
C1828 C 0.36325 0.11855 0.94611 0.0
C1829 C 0.38295 0.11585 0.01093 0.0
C1830 C 0.37033 0.12408 0.03864 0.0
C1831 C 0.35425 0.12971 0.01921 0.0
C1832 C 0.35071 0.12684 0.9736 0.0
C1833 C 0.37336 0.12603 0.08813 0.0
C1834 C 0.35986 0.12073 0.11738 0.0
C1835 C 0.38946 0.1325 0.10678 0.0
C1836 C 0.40387 0.13954 0.07852 0.0
C1837 C 0.40051 0.15318 0.04763 0.0
C1838 C 0.41416 0.15976 0.02113 0.0
C1839 C 0.43127 0.15288 0.02545 0.0
C1840 C 0.43477 0.13943 0.05637 0.0
C1841 C 0.42116 0.13279 0.08291 0.0
H1842 H 0.44183 0.158 1.00492 0.0
H1843 H 0.30898 0.09838 0.26721 0.0
H1844 H 0.64558 0.64439 0.07733 0.0
H1845 H 0.63925 0.64903 0.99735 0.0
H1846 H 0.64909 0.59358 0.97143 0.0
H1847 H 0.65614 0.58917 0.05075 0.0
H1848 H 0.66492 0.61107 0.91208 0.0
H1849 H 0.60571 0.61456 0.97068 0.0
H1850 H 0.58195 0.62601 0.0191 0.0
H1851 H 0.58892 0.67809 0.96471 0.0
H1852 H 0.61289 0.667 0.9164 0.0
H1853 H 0.63077 0.60611 0.68883 0.0
H1854 H 0.63695 0.60285 0.76935 0.0
H1855 H 0.62801 0.65888 0.78863 0.0
H1856 H 0.62102 0.66185 0.70837 0.0
H1857 H 0.61213 0.64211 0.85123 0.0
H1858 H 0.67117 0.63812 0.79173 0.0
H1859 H 0.69453 0.62622 0.74271 0.0
H1860 H 0.68734 0.57444 0.79875 0.0
H1861 H 0.6638 0.58599 0.84771 0.0
C1862 C 0.64622 0.6332 0.0545 0.0
C1863 C 0.65151 0.61645 0.07015 0.0
C1864 C 0.64252 0.63582 0.00877 0.0
C1865 C 0.64355 0.62163 0.97803 0.0
C1866 C 0.64831 0.6048 0.99414 0.0
C1867 C 0.65232 0.60227 0.03954 0.0
C1868 C 0.64054 0.62428 0.92884 0.0
C1869 C 0.65322 0.61766 0.89889 0.0
C1870 C 0.62558 0.63332 0.91122 0.0
C1871 C 0.61121 0.63999 0.9403 0.0
C1872 C 0.60226 0.62848 0.96932 0.0
C1873 C 0.58874 0.6349 0.99669 0.0
C1874 C 0.58396 0.65277 0.99507 0.0
C1875 C 0.59266 0.66426 0.96599 0.0
C1876 C 0.6062 0.65791 0.93859 0.0
C1877 C 0.6304 0.61771 0.71035 0.0
C1878 C 0.62563 0.63424 0.69268 0.0
C1879 C 0.63398 0.6159 0.75632 0.0
C1880 C 0.63322 0.63067 0.78529 0.0
C1881 C 0.62872 0.64727 0.76719 0.0
C1882 C 0.62487 0.64902 0.72135 0.0
C1883 C 0.63643 0.62876 0.83459 0.0
C1884 C 0.62382 0.63554 0.86452 0.0
C1885 C 0.65141 0.6198 0.85225 0.0
C1886 C 0.66565 0.61289 0.8231 0.0
C1887 C 0.67452 0.62418 0.7934 0.0
C1888 C 0.68779 0.6175 0.76566 0.0
C1889 C 0.6924 0.59958 0.76756 0.0
C1890 C 0.68376 0.58831 0.79729 0.0
C1891 C 0.67047 0.59492 0.82508 0.0
H1892 H 0.70267 0.59444 0.74603 0.0
H1893 H 0.57348 0.65772 0.01628 0.0
H1894 H 0.10714 0.88599 0.44607 0.0
H1895 H 0.10804 0.89168 0.52719 0.0
H1896 H 0.16105 0.87027 0.5338 0.0
H1897 H 0.1596 0.86359 0.45341 0.0
H1898 H 0.14448 0.85807 0.59922 0.0
H1899 H 0.14917 0.91759 0.54104 0.0
H1900 H 0.13958 0.94324 0.49589 0.0
H1901 H 0.09055 0.9453 0.56759 0.0
H1902 H 0.09976 0.91952 0.61275 0.0
H1903 H 0.166 0.88749 0.82093 0.0
H1904 H 0.16465 0.88186 0.73982 0.0
H1905 H 0.11162 0.90328 0.73521 0.0
H1906 H 0.11354 0.90992 0.81566 0.0
H1907 H 0.12781 0.91538 0.66885 0.0
H1908 H 0.12333 0.85597 0.72753 0.0
H1909 H 0.13297 0.83028 0.77246 0.0
H1910 H 0.18171 0.828 0.69961 0.0
H1911 H 0.17246 0.85381 0.65466 0.0
C1912 C 0.119 0.88267 0.46499 0.0
C1913 C 0.1333 0.87436 0.44372 0.0
C1914 C 0.11958 0.88601 0.51132 0.0
C1915 C 0.13473 0.88166 0.53693 0.0
C1916 C 0.14917 0.87372 0.51514 0.0
C1917 C 0.1484 0.86998 0.46916 0.0
C1918 C 0.13546 0.88469 0.58655 0.0
C1919 C 0.14105 0.87071 0.61429 0.0
C1920 C 0.13053 0.90096 0.60679 0.0
C1921 C 0.12509 0.91656 0.57997 0.0
C1922 C 0.13631 0.92347 0.54699 0.0
C1923 C 0.13094 0.93803 0.52142 0.0
C1924 C 0.11445 0.94587 0.5288 0.0
C1925 C 0.10331 0.9392 0.56187 0.0
C1926 C 0.1086 0.92463 0.58748 0.0
C1927 C 0.15405 0.89084 0.80244 0.0
C1928 C 0.13986 0.89911 0.82428 0.0
C1929 C 0.1532 0.88752 0.75613 0.0
C1930 C 0.13789 0.89186 0.7311 0.0
C1931 C 0.1236 0.89981 0.75344 0.0
C1932 C 0.12463 0.90353 0.79943 0.0
C1933 C 0.13691 0.88878 0.68151 0.0
C1934 C 0.13124 0.90274 0.65378 0.0
C1935 C 0.14179 0.87249 0.66126 0.0
C1936 C 0.14726 0.8569 0.68803 0.0
C1937 C 0.13614 0.85004 0.72129 0.0
C1938 C 0.14153 0.83546 0.74673 0.0
C1939 C 0.15796 0.82754 0.73896 0.0
C1940 C 0.169 0.83415 0.70563 0.0
C1941 C 0.16369 0.84874 0.68014 0.0
H1942 H 0.16211 0.81625 0.75872 0.0
H1943 H 0.11032 0.95713 0.50894 0.0
H1944 H 0.8633 0.63562 0.81941 0.0
H1945 H 0.85764 0.63035 0.73945 0.0
H1946 H 0.91371 0.62745 0.71588 0.0
H1947 H 0.91963 0.63122 0.79582 0.0
H1948 H 0.88191 0.65421 0.66133 0.0
H1949 H 0.90845 0.59523 0.69812 0.0
H1950 H 0.90932 0.5677 0.74233 0.0
H1951 H 0.8544 0.55838 0.71178 0.0
H1952 H 0.85316 0.58611 0.66823 0.0
H1953 H 0.896 0.62857 0.43204 0.0
H1954 H 0.89641 0.63691 0.51182 0.0
H1955 H 0.85273 0.60135 0.53538 0.0
H1956 H 0.85291 0.59253 0.45636 0.0
H1957 H 0.87625 0.59451 0.59251 0.0
H1958 H 0.85008 0.64872 0.54455 0.0
H1959 H 0.84623 0.67647 0.50225 0.0
H1960 H 0.89595 0.69569 0.55382 0.0
H1961 H 0.90023 0.66794 0.59592 0.0
C1962 C 0.87449 0.63345 0.79766 0.0
C1963 C 0.892 0.63399 0.81467 0.0
C1964 C 0.87118 0.63062 0.75178 0.0
C1965 C 0.88527 0.62851 0.72195 0.0
C1966 C 0.90266 0.62902 0.7385 0.0
C1967 C 0.906 0.63141 0.78434 0.0
C1968 C 0.88196 0.62616 0.67323 0.0
C1969 C 0.88079 0.64119 0.64594 0.0
C1970 C 0.87997 0.60922 0.65371 0.0
C1971 C 0.88062 0.5929 0.68088 0.0
C1972 C 0.89649 0.5875 0.70162 0.0
C1973 C 0.89707 0.57181 0.72635 0.0
C1974 C 0.8819 0.56135 0.7301 0.0
C1975 C 0.86612 0.56654 0.70908 0.0
C1976 C 0.86546 0.58225 0.68446 0.0
C1977 C 0.88628 0.62287 0.45424 0.0
C1978 C 0.87452 0.60981 0.43834 0.0
C1979 C 0.88646 0.62767 0.49982 0.0
C1980 C 0.87461 0.61975 0.52997 0.0
C1981 C 0.86213 0.60755 0.51314 0.0
C1982 C 0.86217 0.60254 0.46795 0.0
C1983 C 0.87633 0.62264 0.57945 0.0
C1984 C 0.87723 0.60765 0.60726 0.0
C1985 C 0.87782 0.63969 0.59934 0.0
C1986 C 0.87556 0.65616 0.57298 0.0
C1987 C 0.8603 0.65877 0.54643 0.0
C1988 C 0.85802 0.67452 0.52259 0.0
C1989 C 0.87086 0.68781 0.52524 0.0
C1990 C 0.88603 0.68537 0.55172 0.0
C1991 C 0.88839 0.66963 0.57558 0.0
H1992 H 0.86904 0.70002 0.50686 0.0
H1993 H 0.88239 0.54917 0.74909 0.0
H1994 H 0.12353 0.11578 0.57398 0.0
H1995 H 0.11768 0.12051 0.49415 0.0
H1996 H 0.17374 0.12537 0.47078 0.0
H1997 H 0.17962 0.1219 0.55079 0.0
H1998 H 0.15729 0.14825 0.42174 0.0
H1999 H 0.14893 0.08576 0.44908 0.0
H2000 H 0.13563 0.06015 0.48725 0.0
H2001 H 0.08391 0.07642 0.44267 0.0
H2002 H 0.0969 0.10226 0.40471 0.0
H2003 H 0.15447 0.13897 0.18619 0.0
H2004 H 0.16058 0.13064 0.26448 0.0
H2005 H 0.10451 0.1297 0.29064 0.0
H2006 H 0.09841 0.13761 0.21258 0.0
H2007 H 0.12103 0.10422 0.33758 0.0
H2008 H 0.12852 0.16666 0.31317 0.0
H2009 H 0.14094 0.19268 0.27493 0.0
H2010 H 0.19342 0.17691 0.31461 0.0
H2011 H 0.1813 0.15063 0.35256 0.0
C2012 C 0.13462 0.11818 0.55209 0.0
C2013 C 0.15211 0.11819 0.56905 0.0
C2014 C 0.13126 0.12063 0.50618 0.0
C2015 C 0.1453 0.12282 0.47602 0.0
C2016 C 0.16267 0.1235 0.49312 0.0
C2017 C 0.16603 0.1213 0.53899 0.0
C2018 C 0.14205 0.12422 0.42665 0.0
C2019 C 0.14958 0.13844 0.40336 0.0
C2020 C 0.13164 0.11171 0.40245 0.0
C2021 C 0.12387 0.096 0.4244 0.0
C2022 C 0.13472 0.0839 0.44758 0.0
C2023 C 0.12724 0.06936 0.46918 0.0
C2024 C 0.10893 0.06668 0.46747 0.0
C2025 C 0.09808 0.07852 0.444 0.0
C2026 C 0.1055 0.0931 0.4224 0.0
C2027 C 0.14348 0.13647 0.20836 0.0
C2028 C 0.12598 0.13916 0.1935 0.0
C2029 C 0.14696 0.13187 0.25317 0.0
C2030 C 0.133 0.12993 0.28375 0.0
C2031 C 0.11551 0.13123 0.26789 0.0
C2032 C 0.11204 0.13583 0.22329 0.0
C2033 C 0.13647 0.12808 0.33284 0.0
C2034 C 0.12889 0.11389 0.35603 0.0
C2035 C 0.14675 0.14064 0.35706 0.0
C2036 C 0.15403 0.15662 0.33527 0.0
C2037 C 0.14271 0.16871 0.31353 0.0
C2038 C 0.1497 0.1835 0.29193 0.0
C2039 C 0.16796 0.18642 0.29223 0.0
C2040 C 0.17928 0.17461 0.31434 0.0
C2041 C 0.17236 0.15977 0.33593 0.0
H2042 H 0.17335 0.19787 0.27542 0.0
H2043 H 0.10316 0.05543 0.48427 0.0
H2044 H 0.62796 0.43006 0.3005 0.0
H2045 H 0.6252 0.42335 0.22053 0.0
H2046 H 0.64881 0.37204 0.24246 0.0
H2047 H 0.65204 0.37888 0.32274 0.0
H2048 H 0.66336 0.38792 0.17145 0.0
H2049 H 0.6051 0.3754 0.21885 0.0
H2050 H 0.57647 0.37994 0.25623 0.0
H2051 H 0.56624 0.42541 0.17385 0.0
H2052 H 0.59495 0.42129 0.13641 0.0
H2053 H 0.63581 0.35339 0.9558 0.0
H2054 H 0.64283 0.35979 0.0347 0.0
H2055 H 0.62316 0.41304 0.01819 0.0
H2056 H 0.61622 0.40662 0.93897 0.0
H2057 H 0.60696 0.39499 0.08677 0.0
H2058 H 0.66662 0.40577 0.03854 0.0
H2059 H 0.69487 0.39887 1.00154 0.0
H2060 H 0.70175 0.35342 0.08613 0.0
H2061 H 0.67339 0.35989 0.12316 0.0
C2062 C 0.6326 0.41735 0.28834 0.0
C2063 C 0.64035 0.40507 0.31795 0.0
C2064 C 0.63086 0.41346 0.24264 0.0
C2065 C 0.63671 0.39715 0.22543 0.0
C2066 C 0.64421 0.38471 0.25497 0.0
C2067 C 0.64592 0.38859 0.30087 0.0
C2068 C 0.63548 0.39348 0.17638 0.0
C2069 C 0.65097 0.3892 0.15302 0.0
C2070 C 0.61939 0.39539 0.15216 0.0
C2071 C 0.60226 0.39814 0.17515 0.0
C2072 C 0.59684 0.38648 0.20904 0.0
C2073 C 0.58057 0.38896 0.23017 0.0
C2074 C 0.56956 0.40298 0.21751 0.0
C2075 C 0.5748 0.41456 0.18368 0.0
C2076 C 0.59106 0.41217 0.16247 0.0
C2077 C 0.6336 0.36664 0.96872 0.0
C2078 C 0.62565 0.37958 0.94142 0.0
C2079 C 0.63756 0.37028 0.01378 0.0
C2080 C 0.63351 0.38689 0.03239 0.0
C2081 C 0.62642 0.40014 1.00447 0.0
C2082 C 0.62262 0.39655 0.9592 0.0
C2083 C 0.6349 0.38978 0.08172 0.0
C2084 C 0.61937 0.39378 0.10518 0.0
C2085 C 0.65089 0.38728 0.10603 0.0
C2086 C 0.66779 0.38322 0.0833 0.0
C2087 C 0.67406 0.39419 0.04891 0.0
C2088 C 0.69012 0.39038 0.02801 0.0
C2089 C 0.70008 0.37569 0.0414 0.0
C2090 C 0.69401 0.36478 0.07573 0.0
C2091 C 0.67795 0.36852 0.0967 0.0
H2092 H 0.71253 0.37279 0.02524 0.0
H2093 H 0.55695 0.40485 0.23383 0.0
H2094 H 0.38802 0.89949 0.07146 0.0
H2095 H 0.39376 0.89523 0.99124 0.0
H2096 H 0.339 0.88125 0.96915 0.0
H2097 H 0.33323 0.88529 0.04929 0.0
H2098 H 0.36181 0.85978 0.92117 0.0
H2099 H 0.35231 0.92217 0.94619 0.0
H2100 H 0.35799 0.95076 0.984 0.0
H2101 H 0.41194 0.94958 0.93983 0.0
H2102 H 0.40663 0.92082 0.9023 0.0
H2103 H 0.35873 0.86802 0.68579 0.0
H2104 H 0.35187 0.87542 0.76421 0.0
H2105 H 0.40652 0.88949 0.78799 0.0
H2106 H 0.41336 0.88207 0.70992 0.0
H2107 H 0.3836 0.91137 0.83492 0.0
H2108 H 0.39428 0.84946 0.81289 0.0
H2109 H 0.38995 0.82053 0.77567 0.0
H2110 H 0.33544 0.82029 0.81544 0.0
H2111 H 0.3394 0.84941 0.85228 0.0
C2112 C 0.37727 0.89523 0.04963 0.0
C2113 C 0.36012 0.89288 0.06665 0.0
C2114 C 0.38054 0.89293 1.00374 0.0
C2115 C 0.36674 0.88818 0.97406 0.0
C2116 C 0.34982 0.88502 0.99134 0.0
C2117 C 0.34652 0.88743 0.0371 0.0
C2118 C 0.36971 0.88716 0.9248 0.0
C2119 C 0.36634 0.87113 0.90226 0.0
C2120 C 0.376 0.90184 0.90016 0.0
C2121 C 0.37912 0.91929 0.9218 0.0
C2122 C 0.36541 0.92797 0.94476 0.0
C2123 C 0.36856 0.9442 0.96612 0.0
C2124 C 0.38533 0.95196 0.96441 0.0
C2125 C 0.39896 0.94354 0.94117 0.0
C2126 C 0.39589 0.92728 0.91981 0.0
C2127 C 0.36911 0.87323 0.70746 0.0
C2128 C 0.38657 0.87444 0.692 0.0
C2129 C 0.36524 0.87732 0.75228 0.0
C2130 C 0.37875 0.88276 0.78215 0.0
C2131 C 0.39589 0.8853 0.76566 0.0
C2132 C 0.39979 0.88105 0.7211 0.0
C2133 C 0.37552 0.88405 0.83127 0.0
C2134 C 0.37894 0.90007 0.85381 0.0
C2135 C 0.36944 0.86933 0.85604 0.0
C2136 C 0.36708 0.85167 0.83487 0.0
C2137 C 0.38135 0.84329 0.81343 0.0
C2138 C 0.37896 0.82686 0.79243 0.0
C2139 C 0.36242 0.8186 0.79308 0.0
C2140 C 0.34824 0.82672 0.8149 0.0
C2141 C 0.35055 0.84319 0.83586 0.0
H2142 H 0.36059 0.80588 0.77675 0.0
H2143 H 0.38775 0.96453 0.98102 0.0
H2144 H 0.10483 0.68159 0.18837 0.0
H2145 H 0.10282 0.71413 0.19281 0.0
H2146 H 0.15427 0.71864 0.13293 0.0
H2147 H 0.15691 0.68643 0.13135 0.0
H2148 H 0.14364 0.73905 0.22452 0.0
H2149 H 0.12643 0.75449 0.04475 0.0
H2150 H 0.10846 0.74556 0.97888 0.0
H2151 H 0.07153 0.71948 0.06511 0.0
H2152 H 0.08882 0.72902 0.13149 0.0
H2153 H 0.16092 0.82905 0.16112 0.0
H2154 H 0.15868 0.79673 0.16452 0.0
H2155 H 0.10204 0.80091 0.17754 0.0
H2156 H 0.10428 0.83342 0.17472 0.0
H2157 H 0.11285 0.77623 0.11127 0.0
H2158 H 0.12517 0.78855 0.2671 0.0
H2159 H 0.14182 0.80156 0.33077 0.0
H2160 H 0.18867 0.77388 0.28988 0.0
H2161 H 0.17227 0.76061 0.22602 0.0
C2162 C 0.11576 0.68951 0.17643 0.0
C2163 C 0.13091 0.68126 0.15874 0.0
C2164 C 0.11446 0.70815 0.17822 0.0
C2165 C 0.12809 0.71894 0.1615 0.0
C2166 C 0.14336 0.71071 0.14491 0.0
C2167 C 0.1448 0.69219 0.14392 0.0
C2168 C 0.12734 0.73874 0.16486 0.0
C2169 C 0.13682 0.74714 0.19979 0.0
C2170 C 0.11866 0.74948 0.13248 0.0
C2171 C 0.1092 0.742 0.09303 0.0
C2172 C 0.11455 0.7467 0.04958 0.0
C2173 C 0.10433 0.74181 0.0122 0.0
C2174 C 0.08882 0.732 0.01781 0.0
C2175 C 0.08357 0.72703 0.06081 0.0
C2176 C 0.09361 0.73215 0.09837 0.0
C2177 C 0.14801 0.82311 0.16563 0.0
C2178 C 0.13279 0.83383 0.16828 0.0
C2179 C 0.14675 0.80459 0.16752 0.0
C2180 C 0.13021 0.79628 0.17164 0.0
C2181 C 0.11497 0.80697 0.17462 0.0
C2182 C 0.11627 0.82556 0.17349 0.0
C2183 C 0.12885 0.77647 0.17127 0.0
C2184 C 0.1194 0.76811 0.13639 0.0
C2185 C 0.13764 0.76577 0.20344 0.0
C2186 C 0.14754 0.77372 0.24164 0.0
C2187 C 0.13906 0.78534 0.27151 0.0
C2188 C 0.14844 0.79275 0.30764 0.0
C2189 C 0.16632 0.78867 0.31416 0.0
C2190 C 0.17483 0.77706 0.28472 0.0
C2191 C 0.16549 0.76954 0.24865 0.0
H2192 H 0.17356 0.79444 0.34215 0.0
H2193 H 0.08096 0.72814 0.98882 0.0
H2194 H 0.58469 0.88683 0.48497 0.0
H2195 H 0.55222 0.88709 0.49445 0.0
H2196 H 0.54532 0.87747 0.35265 0.0
H2197 H 0.57728 0.87567 0.3445 0.0
H2198 H 0.52567 0.90728 0.38654 0.0
H2199 H 0.53722 0.8456 0.41804 0.0
H2200 H 0.55114 0.82107 0.45977 0.0
H2201 H 0.52695 0.83926 0.58149 0.0
H2202 H 0.51311 0.8641 0.54055 0.0
H2203 H 0.43774 0.8681 0.35293 0.0
H2204 H 0.46976 0.86959 0.36278 0.0
H2205 H 0.46304 0.90179 0.4811 0.0
H2206 H 0.43074 0.90188 0.46852 0.0
H2207 H 0.48953 0.86345 0.46855 0.0
H2208 H 0.47712 0.92494 0.43682 0.0
H2209 H 0.46532 0.95081 0.3965 0.0
H2210 H 0.49368 0.93524 0.27848 0.0
H2211 H 0.50451 0.90849 0.31703 0.0
C2212 C 0.57622 0.88444 0.45607 0.0
C2213 C 0.58368 0.88185 0.41335 0.0
C2214 C 0.55764 0.88473 0.46144 0.0
C2215 C 0.54621 0.88261 0.42409 0.0
C2216 C 0.55372 0.8795 0.38191 0.0
C2217 C 0.57211 0.87883 0.37694 0.0
C2218 C 0.52645 0.88403 0.42777 0.0
C2219 C 0.51778 0.89769 0.40454 0.0
C2220 C 0.51608 0.87177 0.45192 0.0
C2221 C 0.52433 0.85683 0.47639 0.0
C2222 C 0.53502 0.84448 0.4538 0.0
C2223 C 0.54287 0.8305 0.47728 0.0
C2224 C 0.53998 0.82864 0.52329 0.0
C2225 C 0.52921 0.84074 0.54588 0.0
C2226 C 0.52136 0.85477 0.52255 0.0
C2227 C 0.44297 0.87611 0.38005 0.0
C2228 C 0.4315 0.88559 0.40847 0.0
C2229 C 0.46139 0.87668 0.38613 0.0
C2230 C 0.46897 0.88617 0.42203 0.0
C2231 C 0.45759 0.89474 0.45242 0.0
C2232 C 0.43907 0.89468 0.44536 0.0
C2233 C 0.48873 0.88677 0.4273 0.0
C2234 C 0.49741 0.87328 0.4514 0.0
C2235 C 0.49917 0.89932 0.4042 0.0
C2236 C 0.49121 0.91439 0.37954 0.0
C2237 C 0.48025 0.9266 0.40175 0.0
C2238 C 0.47381 0.94151 0.37925 0.0
C2239 C 0.4787 0.94465 0.33491 0.0
C2240 C 0.48986 0.93277 0.31281 0.0
C2241 C 0.49593 0.91759 0.33475 0.0
H2242 H 0.47387 0.9563 0.31768 0.0
H2243 H 0.54606 0.8178 0.54142 0.0
H2244 H 0.40076 0.33017 0.61205 0.0
H2245 H 0.40138 0.29814 0.61753 0.0
H2246 H 0.35574 0.29957 0.70324 0.0
H2247 H 0.35584 0.33215 0.7 0.0
H2248 H 0.37549 0.27566 0.7335 0.0
H2249 H 0.35287 0.26696 0.56533 0.0
H2250 H 0.35496 0.26728 0.4828 0.0
H2251 H 0.41122 0.27472 0.49291 0.0
H2252 H 0.40957 0.27275 0.57533 0.0
H2253 H 0.35661 0.18168 0.70623 0.0
H2254 H 0.35698 0.21416 0.71304 0.0
H2255 H 0.40246 0.21606 0.62646 0.0
H2256 H 0.40129 0.18399 0.61751 0.0
H2257 H 0.38174 0.23802 0.59808 0.0
H2258 H 0.4012 0.22673 0.74876 0.0
H2259 H 0.39937 0.21386 0.82449 0.0
H2260 H 0.35034 0.24122 0.84665 0.0
H2261 H 0.35174 0.25404 0.77074 0.0
C2262 C 0.39074 0.32371 0.63189 0.0
C2263 C 0.37813 0.33385 0.65522 0.0
C2264 C 0.39088 0.30515 0.63426 0.0
C2265 C 0.37809 0.2959 0.65894 0.0
C2266 C 0.36568 0.30609 0.68327 0.0
C2267 C 0.36576 0.3248 0.68164 0.0
C2268 C 0.37831 0.27585 0.66148 0.0
C2269 C 0.37669 0.2675 0.70362 0.0
C2270 C 0.38032 0.26467 0.6233 0.0
C2271 C 0.38095 0.27089 0.57656 0.0
C2272 C 0.36559 0.26925 0.54991 0.0
C2273 C 0.36679 0.269 0.50315 0.0
C2274 C 0.3832 0.27124 0.48259 0.0
C2275 C 0.39849 0.27328 0.50883 0.0
C2276 C 0.39744 0.27268 0.5556 0.0
C2277 C 0.36681 0.18909 0.68926 0.0
C2278 C 0.37888 0.18028 0.66119 0.0
C2279 C 0.36711 0.20771 0.69336 0.0
C2280 C 0.37983 0.21788 0.67053 0.0
C2281 C 0.39236 0.2088 0.64426 0.0
C2282 C 0.39175 0.19037 0.6392 0.0
C2283 C 0.37932 0.23787 0.66979 0.0
C2284 C 0.3807 0.24617 0.62808 0.0
C2285 C 0.3773 0.24881 0.70829 0.0
C2286 C 0.3765 0.24121 0.75396 0.0
C2287 C 0.38997 0.2299 0.76967 0.0
C2288 C 0.38902 0.22262 0.81264 0.0
C2289 C 0.37473 0.22668 0.84033 0.0
C2290 C 0.36139 0.23807 0.82514 0.0
C2291 C 0.36226 0.24535 0.78217 0.0
H2292 H 0.37402 0.22104 0.87359 0.0
H2293 H 0.38405 0.27135 0.44635 0.0
H2294 H 0.93829 0.142 0.84488 0.0
H2295 H 0.97028 0.13933 0.8521 0.0
H2296 H 0.96431 0.11292 0.97893 0.0
H2297 H 0.93185 0.1147 0.97078 0.0
H2298 H 0.99058 0.13897 0.9821 0.0
H2299 H 0.98084 0.08662 0.89585 0.0
H2300 H 0.97223 0.06522 0.83671 0.0
H2301 H 0.99378 0.09941 0.73617 0.0
H2302 H 1.00289 0.1208 0.79493 0.0
H2303 H 0.08397 0.10548 0.9569 0.0
H2304 H 0.05152 0.10545 0.96583 0.0
H2305 H 0.04727 0.15008 0.87682 0.0
H2306 H 0.07947 0.15089 0.87014 0.0
H2307 H 0.0265 0.11199 0.86106 0.0
H2308 H 0.03794 0.16354 0.95708 0.0
H2309 H 0.05246 0.17801 0.02202 0.0
H2310 H 0.02903 0.1401 0.11054 0.0
H2311 H 0.0147 0.12515 0.04587 0.0
C2312 C 0.94363 0.13531 0.8741 0.0
C2313 C 0.93229 0.12814 0.90667 0.0
C2314 C 0.96206 0.13383 0.87816 0.0
C2315 C 0.96985 0.1256 0.91559 0.0
C2316 C 0.95867 0.11913 0.94939 0.0
C2317 C 0.94008 0.12025 0.94482 0.0
C2318 C 0.98963 0.12454 0.91948 0.0
C2319 C 0.99837 0.13284 0.95586 0.0
C2320 C 1.00006 0.11667 0.88541 0.0
C2321 C 0.9923 0.10538 0.84964 0.0
C2322 C 0.98346 0.08969 0.86105 0.0
C2323 C 0.9788 0.07742 0.82771 0.0
C2324 C 0.98259 0.08088 0.78273 0.0
C2325 C 0.99092 0.09671 0.77101 0.0
C2326 C 0.9959 0.10887 0.80432 0.0
C2327 C 0.07612 0.11551 0.94008 0.0
C2328 C 0.08429 0.12796 0.91201 0.0
C2329 C 0.0576 0.11545 0.94508 0.0
C2330 C 0.04697 0.12778 0.922 0.0
C2331 C 0.05517 0.14048 0.89506 0.0
C2332 C 0.0736 0.14078 0.89088 0.0
C2333 C 0.02727 0.12671 0.92282 0.0
C2334 C 0.01862 0.11809 0.88721 0.0
C2335 C 0.01703 0.13401 0.95788 0.0
C2336 C 0.0255 0.14307 0.99663 0.0
C2337 C 0.0361 0.15814 0.99031 0.0
C2338 C 0.04425 0.16646 0.02708 0.0
C2339 C 0.04174 0.15993 0.07037 0.0
C2340 C 0.03101 0.14511 0.07698 0.0
C2341 C 0.02288 0.1367 0.04029 0.0
H2342 H 0.04805 0.1664 0.0988 0.0
H2343 H 0.97888 0.07141 0.75695 0.0
H2344 H 0.15911 0.33228 0.82585 0.0
H2345 H 0.1606 0.29984 0.82261 0.0
H2346 H 0.10787 0.29678 0.87681 0.0
H2347 H 0.10707 0.32905 0.88319 0.0
H2348 H 0.1251 0.27361 0.91556 0.0
H2349 H 0.12211 0.2878 0.7562 0.0
H2350 H 0.1325 0.30231 0.6872 0.0
H2351 H 0.18297 0.2766 0.70131 0.0
H2352 H 0.17294 0.26211 0.77063 0.0
H2353 H 0.10768 0.18335 0.87995 0.0
H2354 H 0.10743 0.2156 0.87288 0.0
H2355 H 0.16099 0.21415 0.82366 0.0
H2356 H 0.16064 0.18162 0.8276 0.0
H2357 H 0.14527 0.23933 0.78319 0.0
H2358 H 0.14846 0.22433 0.93954 0.0
H2359 H 0.1385 0.2089 0.0076 0.0
H2360 H 0.08858 0.23604 1.00016 0.0
H2361 H 0.09812 0.25139 0.93159 0.0
C2362 C 0.14774 0.32462 0.83624 0.0
C2363 C 0.13288 0.3332 0.85422 0.0
C2364 C 0.14855 0.306 0.83431 0.0
C2365 C 0.13421 0.29551 0.84864 0.0
C2366 C 0.11919 0.30428 0.86554 0.0
C2367 C 0.11864 0.32281 0.86882 0.0
C2368 C 0.13487 0.27551 0.84797 0.0
C2369 C 0.12927 0.26622 0.88618 0.0
C2370 C 0.14095 0.26549 0.81065 0.0
C2371 C 0.14683 0.274 0.7687 0.0
C2372 C 0.13544 0.28531 0.74463 0.0
C2373 C 0.14127 0.29352 0.70549 0.0
C2374 C 0.1584 0.29041 0.68994 0.0
C2375 C 0.16972 0.27902 0.7134 0.0
C2376 C 0.16397 0.27079 0.75258 0.0
C2377 C 0.11929 0.18993 0.86692 0.0
C2378 C 0.13416 0.18 0.85424 0.0
C2379 C 0.11925 0.20843 0.86338 0.0
C2380 C 0.13442 0.21761 0.84917 0.0
C2381 C 0.14912 0.20758 0.83501 0.0
C2382 C 0.14893 0.18895 0.83716 0.0
C2383 C 0.13505 0.23756 0.85023 0.0
C2384 C 0.14103 0.24679 0.81239 0.0
C2385 C 0.12942 0.24756 0.88799 0.0
C2386 C 0.12398 0.23893 0.93032 0.0
C2387 C 0.13536 0.227 0.95243 0.0
C2388 C 0.12977 0.21824 0.99104 0.0
C2389 C 0.11291 0.22148 0.00818 0.0
C2390 C 0.10163 0.23355 0.98686 0.0
C2391 C 0.10713 0.24229 0.94814 0.0
H2392 H 0.10859 0.21464 0.03799 0.0
H2393 H 0.16289 0.29679 0.65966 0.0
H2394 H 0.08228 0.90141 0.0525 0.0
H2395 H 0.0499 0.90227 0.04264 0.0
H2396 H 0.04417 0.86577 0.15245 0.0
H2397 H 0.07626 0.8646 0.16162 0.0
H2398 H 0.02245 0.85644 0.08751 0.0
H2399 H 0.03372 0.91372 0.16346 0.0
H2400 H 0.04732 0.94341 0.16992 0.0
H2401 H 0.02844 0.95652 0.038 0.0
H2402 H 0.01427 0.92713 0.03121 0.0
H2403 H 0.93278 0.86256 0.14328 0.0
H2404 H 0.96484 0.86312 0.14012 0.0
H2405 H 0.96224 0.90602 0.04498 0.0
H2406 H 0.92982 0.90676 0.05258 0.0
H2407 H 0.98848 0.9126 0.09301 0.0
H2408 H 0.97305 0.85868 0.01972 0.0
H2409 H 0.9582 0.82983 0.0097 0.0
H2410 H 0.9858 0.8095 0.12517 0.0
H2411 H 1.00046 0.83837 0.13659 0.0
C2412 C 0.07411 0.89347 0.07427 0.0
C2413 C 0.08198 0.88303 0.10805 0.0
C2414 C 0.05551 0.89413 0.06898 0.0
C2415 C 0.04432 0.88431 0.09727 0.0
C2416 C 0.05229 0.87357 0.13018 0.0
C2417 C 0.07076 0.87294 0.13549 0.0
C2418 C 0.02439 0.8848 0.09271 0.0
C2419 C 0.01505 0.86874 0.0891 0.0
C2420 C 0.01448 0.90077 0.09276 0.0
C2421 C 0.02316 0.91824 0.09666 0.0
C2422 C 0.03259 0.92292 0.13578 0.0
C2423 C 0.04037 0.93967 0.13953 0.0
C2424 C 0.03898 0.95173 0.10423 0.0
C2425 C 0.02959 0.94715 0.06525 0.0
C2426 C 0.02158 0.9305 0.06153 0.0
C2427 C 0.93899 0.8723 0.12211 0.0
C2428 C 0.92863 0.88487 0.09907 0.0
C2429 C 0.95749 0.87237 0.11947 0.0
C2430 C 0.96637 0.88432 0.0914 0.0
C2431 C 0.95597 0.89658 0.06698 0.0
C2432 C 0.93734 0.89688 0.07084 0.0
C2433 C 0.98639 0.88416 0.08863 0.0
C2434 C 0.99578 0.90026 0.09091 0.0
C2435 C 0.99637 0.8682 0.08623 0.0
C2436 C 0.98777 0.85073 0.07915 0.0
C2437 C 0.97587 0.84809 0.04314 0.0
C2438 C 0.96745 0.83174 0.03727 0.0
C2439 C 0.97099 0.81786 0.06691 0.0
C2440 C 0.98299 0.82028 0.10238 0.0
C2441 C 0.99137 0.83663 0.10856 0.0
H2442 H 0.96447 0.80521 0.06228 0.0
H2443 H 0.04509 0.96466 0.10722 0.0
H2444 H 0.40179 0.68188 0.40604 0.0
H2445 H 0.40296 0.71424 0.40096 0.0
H2446 H 0.35911 0.71333 0.30705 0.0
H2447 H 0.35836 0.68081 0.31144 0.0
H2448 H 0.38038 0.7371 0.27962 0.0
H2449 H 0.35268 0.73713 0.43426 0.0
H2450 H 0.34996 0.73286 0.51599 0.0
H2451 H 0.40615 0.73939 0.53242 0.0
H2452 H 0.409 0.7445 0.451 0.0
H2453 H 0.36114 0.83098 0.30353 0.0
H2454 H 0.36121 0.79847 0.29785 0.0
H2455 H 0.4047 0.79634 0.39273 0.0
H2456 H 0.40406 0.82846 0.39986 0.0
H2457 H 0.3829 0.77413 0.41723 0.0
H2458 H 0.40674 0.78592 0.272 0.0
H2459 H 0.40727 0.79914 0.1965 0.0
H2460 H 0.35891 0.77226 0.16177 0.0
H2461 H 0.35794 0.7591 0.23736 0.0
C2462 C 0.39249 0.68862 0.38413 0.0
C2463 C 0.3801 0.67879 0.35884 0.0
C2464 C 0.39295 0.70723 0.38171 0.0
C2465 C 0.38083 0.71663 0.35442 0.0
C2466 C 0.36861 0.70667 0.32856 0.0
C2467 C 0.3682 0.68802 0.33092 0.0
C2468 C 0.38117 0.73666 0.35199 0.0
C2469 C 0.38076 0.74515 0.30987 0.0
C2470 C 0.3821 0.74759 0.39076 0.0
C2471 C 0.3811 0.74069 0.43672 0.0
C2472 C 0.36447 0.73719 0.45526 0.0
C2473 C 0.36287 0.73502 0.50156 0.0
C2474 C 0.37788 0.73592 0.52937 0.0
C2475 C 0.39455 0.73872 0.51086 0.0
C2476 C 0.39615 0.74135 0.46472 0.0
C2477 C 0.37087 0.82354 0.3226 0.0
C2478 C 0.38255 0.83238 0.35225 0.0
C2479 C 0.37097 0.80488 0.31923 0.0
C2480 C 0.38305 0.79464 0.34464 0.0
C2481 C 0.39512 0.80367 0.37286 0.0
C2482 C 0.3948 0.82216 0.37683 0.0
C2483 C 0.38248 0.77463 0.34508 0.0
C2484 C 0.3827 0.76614 0.38682 0.0
C2485 C 0.38157 0.76386 0.30591 0.0
C2486 C 0.38218 0.77166 0.26044 0.0
C2487 C 0.39615 0.78293 0.24836 0.0
C2488 C 0.39654 0.7904 0.20554 0.0
C2489 C 0.38311 0.78658 0.17439 0.0
C2490 C 0.36929 0.77523 0.18596 0.0
C2491 C 0.36881 0.76775 0.22877 0.0
H2492 H 0.38344 0.79237 0.14124 0.0
H2493 H 0.3766 0.73441 0.5653 0.0
H2494 H 0.57491 0.14868 0.66454 0.0
H2495 H 0.54283 0.14854 0.65679 0.0
H2496 H 0.54647 0.10951 0.55097 0.0
H2497 H 0.57897 0.11036 0.55722 0.0
H2498 H 0.521 0.13022 0.53023 0.0
H2499 H 0.53288 0.09933 0.66998 0.0
H2500 H 0.54462 0.09469 0.7469 0.0
H2501 H 0.51946 0.14251 0.79124 0.0
H2502 H 0.50725 0.14727 0.71515 0.0
H2503 H 0.4279 0.10663 0.55812 0.0
H2504 H 0.46047 0.10645 0.55272 0.0
H2505 H 0.46318 0.15244 0.6389 0.0
H2506 H 0.43093 0.153 0.64298 0.0
H2507 H 0.4851 0.12612 0.66815 0.0
H2508 H 0.47231 0.15632 0.53142 0.0
H2509 H 0.45835 0.16049 0.4571 0.0
H2510 H 0.48454 0.1139 0.40774 0.0
H2511 H 0.49845 0.10929 0.48209 0.0
C2512 C 0.56893 0.14013 0.63934 0.0
C2513 C 0.57957 0.12944 0.61168 0.0
C2514 C 0.55045 0.13988 0.6353 0.0
C2515 C 0.54191 0.12852 0.6044 0.0
C2516 C 0.55256 0.11827 0.57551 0.0
C2517 C 0.57118 0.11878 0.57896 0.0
C2518 C 0.522 0.12757 0.60227 0.0
C2519 C 0.51322 0.12892 0.56045 0.0
C2520 C 0.51151 0.12633 0.64149 0.0
C2521 C 0.51933 0.12375 0.6868 0.0
C2522 C 0.52999 0.10892 0.69607 0.0
C2523 C 0.53669 0.10625 0.73948 0.0
C2524 C 0.53297 0.11839 0.77365 0.0
C2525 C 0.5224 0.13316 0.76468 0.0
C2526 C 0.5155 0.1358 0.72153 0.0
C2527 C 0.43547 0.11689 0.5751 0.0
C2528 C 0.42685 0.12963 0.60168 0.0
C2529 C 0.45409 0.11674 0.57219 0.0
C2530 C 0.46438 0.12936 0.59576 0.0
C2531 C 0.45565 0.14246 0.62073 0.0
C2532 C 0.43716 0.14272 0.62319 0.0
C2533 C 0.48422 0.12863 0.59642 0.0
C2534 C 0.49293 0.12706 0.63798 0.0
C2535 C 0.49455 0.1296 0.55711 0.0
C2536 C 0.48625 0.13233 0.51244 0.0
C2537 C 0.47496 0.14686 0.50484 0.0
C2538 C 0.4671 0.14934 0.46268 0.0
C2539 C 0.47053 0.13745 0.42774 0.0
C2540 C 0.48188 0.12308 0.43487 0.0
C2541 C 0.48976 0.12053 0.477 0.0
H2542 H 0.4644 0.13937 0.39513 0.0
H2543 H 0.53819 0.11628 0.80717 0.0
H2544 H 0.85617 0.17882 0.80802 0.0
H2545 H 0.85535 0.21136 0.80045 0.0
H2546 H 0.90093 0.21579 0.88781 0.0
H2547 H 0.90247 0.18354 0.89309 0.0
H2548 H 0.85928 0.23617 0.89883 0.0
H2549 H 0.91651 0.22745 0.81934 0.0
H2550 H 0.93349 0.21327 0.75864 0.0
H2551 H 0.89639 0.23319 0.66101 0.0
H2552 H 0.87899 0.24714 0.72141 0.0
H2553 H 0.89313 0.3239 0.92371 0.0
H2554 H 0.89026 0.29192 0.91463 0.0
H2555 H 0.86233 0.29945 0.78946 0.0
H2556 H 0.86412 0.33184 0.7998 0.0
H2557 H 0.89194 0.27287 0.78944 0.0
H2558 H 0.83726 0.28451 0.85899 0.0
H2559 H 0.81381 0.29378 0.91107 0.0
H2560 H 0.84046 0.2671 0.01934 0.0
H2561 H 0.86408 0.25765 0.96784 0.0
C2562 C 0.86623 0.18674 0.82475 0.0
C2563 C 0.8792 0.17858 0.85188 0.0
C2564 C 0.86571 0.20532 0.82058 0.0
C2565 C 0.87815 0.21604 0.8434 0.0
C2566 C 0.89129 0.20785 0.86956 0.0
C2567 C 0.892 0.18938 0.87303 0.0
C2568 C 0.87686 0.23578 0.84272 0.0
C2569 C 0.86657 0.24423 0.87527 0.0
C2570 C 0.88579 0.24627 0.8109 0.0
C2571 C 0.89632 0.23805 0.77483 0.0
C2572 C 0.91185 0.22858 0.785 0.0
C2573 C 0.92158 0.22063 0.75065 0.0
C2574 C 0.91598 0.22226 0.706 0.0
C2575 C 0.90068 0.23188 0.69561 0.0
C2576 C 0.89088 0.23979 0.72988 0.0
C2577 C 0.88605 0.31889 0.89454 0.0
C2578 C 0.8784 0.33064 0.86317 0.0
C2579 C 0.88449 0.30049 0.88935 0.0
C2580 C 0.87583 0.29317 0.85176 0.0
C2581 C 0.8689 0.30475 0.81908 0.0
C2582 C 0.87001 0.32329 0.82493 0.0
C2583 C 0.8747 0.27343 0.84667 0.0
C2584 C 0.88462 0.26492 0.81317 0.0
C2585 C 0.86518 0.26284 0.87734 0.0
C2586 C 0.85254 0.27055 0.90967 0.0
C2587 C 0.83831 0.28092 0.89409 0.0
C2588 C 0.82485 0.28598 0.92335 0.0
C2589 C 0.82553 0.28084 0.96836 0.0
C2590 C 0.83987 0.27094 0.9844 0.0
C2591 C 0.8533 0.26574 0.95519 0.0
H2592 H 0.81507 0.28473 0.99095 0.0
H2593 H 0.92353 0.21611 0.67944 0.0
H2594 H 0.65994 0.83049 0.34438 0.0
H2595 H 0.66062 0.79816 0.34137 0.0
H2596 H 0.60458 0.79679 0.36911 0.0
H2597 H 0.60462 0.82909 0.37765 0.0
H2598 H 0.61657 0.77232 0.41073 0.0
H2599 H 0.62903 0.78762 0.2553 0.0
H2600 H 0.64598 0.80268 0.1962 0.0
H2601 H 0.69341 0.77614 0.23959 0.0
H2602 H 0.67676 0.76106 0.29914 0.0
H2603 H 0.60423 0.68138 0.36583 0.0
H2604 H 0.60364 0.71367 0.35888 0.0
H2605 H 0.66025 0.71384 0.33961 0.0
H2606 H 0.6604 0.68134 0.34222 0.0
H2607 H 0.64846 0.73866 0.29334 0.0
H2608 H 0.6361 0.72333 0.44773 0.0
H2609 H 0.61942 0.70826 0.50728 0.0
H2610 H 0.57187 0.73506 0.46586 0.0
H2611 H 0.58822 0.75012 0.40576 0.0
C2612 C 0.64775 0.82322 0.34929 0.0
C2613 C 0.63218 0.83227 0.36085 0.0
C2614 C 0.64806 0.80463 0.34712 0.0
C2615 C 0.63252 0.7946 0.35355 0.0
C2616 C 0.61684 0.80389 0.36394 0.0
C2617 C 0.61676 0.82242 0.36839 0.0
C2618 C 0.63259 0.77457 0.3515 0.0
C2619 C 0.62331 0.7651 0.38438 0.0
C2620 C 0.64185 0.76467 0.31842 0.0
C2621 C 0.65168 0.77332 0.28176 0.0
C2622 C 0.64307 0.78502 0.25219 0.0
C2623 C 0.65263 0.79356 0.21866 0.0
C2624 C 0.67077 0.79039 0.2142 0.0
C2625 C 0.67937 0.77859 0.24308 0.0
C2626 C 0.66987 0.77001 0.27665 0.0
C2627 C 0.61646 0.68835 0.35917 0.0
C2628 C 0.63234 0.6789 0.35437 0.0
C2629 C 0.61621 0.70689 0.35594 0.0
C2630 C 0.63201 0.71656 0.35039 0.0
C2631 C 0.64783 0.70694 0.34414 0.0
C2632 C 0.64794 0.68833 0.34554 0.0
C2633 C 0.63215 0.73655 0.35197 0.0
C2634 C 0.64158 0.74597 0.31933 0.0
C2635 C 0.62302 0.74643 0.38521 0.0
C2636 C 0.61335 0.73775 0.42215 0.0
C2637 C 0.62208 0.72598 0.45134 0.0
C2638 C 0.61268 0.71743 0.48514 0.0
C2639 C 0.59459 0.72068 0.49031 0.0
C2640 C 0.58588 0.73255 0.46182 0.0
C2641 C 0.5952 0.74111 0.42794 0.0
H2642 H 0.58733 0.71402 0.51643 0.0
H2643 H 0.67816 0.79707 0.18833 0.0
H2644 H 0.86324 0.68199 0.20698 0.0
H2645 H 0.86372 0.71427 0.21637 0.0
H2646 H 0.89723 0.7188 0.10052 0.0
H2647 H 0.89734 0.6866 0.0922 0.0
H2648 H 0.90846 0.74093 0.16092 0.0
H2649 H 0.84933 0.72997 0.09738 0.0
H2650 H 0.81938 0.71685 0.09491 0.0
H2651 H 0.80954 0.73578 0.22834 0.0
H2652 H 0.83925 0.74942 0.23121 0.0
H2653 H 0.89515 0.82905 0.09275 0.0
H2654 H 0.89568 0.79701 0.10093 0.0
H2655 H 0.86505 0.80137 0.2219 0.0
H2656 H 0.86425 0.83379 0.2135 0.0
H2657 H 0.85243 0.77506 0.16889 0.0
H2658 H 0.90868 0.79086 0.22703 0.0
H2659 H 0.93753 0.80609 0.22902 0.0
H2660 H 0.95334 0.77809 0.11013 0.0
H2661 H 0.9244 0.76296 0.10682 0.0
C2662 C 0.87083 0.68986 0.18375 0.0
C2663 C 0.88008 0.68165 0.14849 0.0
C2664 C 0.87094 0.7084 0.18881 0.0
C2665 C 0.8802 0.71921 0.15858 0.0
C2666 C 0.88987 0.71093 0.12424 0.0
C2667 C 0.88986 0.69245 0.11936 0.0
C2668 C 0.88001 0.73908 0.16249 0.0
C2669 C 0.89617 0.74834 0.1622 0.0
C2670 C 0.86411 0.74899 0.16597 0.0
C2671 C 0.84652 0.74045 0.16473 0.0
C2672 C 0.84081 0.73116 0.12629 0.0
C2673 C 0.82389 0.72368 0.12478 0.0
C2674 C 0.81267 0.72524 0.1616 0.0
C2675 C 0.81828 0.73449 0.19991 0.0
C2676 C 0.8351 0.74219 0.20142 0.0
C2677 C 0.88855 0.82329 0.12133 0.0
C2678 C 0.87962 0.8341 0.15247 0.0
C2679 C 0.88896 0.80487 0.12607 0.0
C2680 C 0.88056 0.79664 0.16229 0.0
C2681 C 0.87168 0.80736 0.1937 0.0
C2682 C 0.87132 0.82591 0.18905 0.0
C2683 C 0.88083 0.77685 0.16626 0.0
C2684 C 0.86472 0.76763 0.16804 0.0
C2685 C 0.89679 0.76699 0.16453 0.0
C2686 C 0.91431 0.77587 0.16651 0.0
C2687 C 0.91825 0.78805 0.20109 0.0
C2688 C 0.93462 0.79666 0.20246 0.0
C2689 C 0.94724 0.79308 0.16968 0.0
C2690 C 0.94353 0.78086 0.13546 0.0
C2691 C 0.92714 0.77226 0.13383 0.0
H2692 H 0.95992 0.79973 0.17092 0.0
H2693 H 0.7996 0.71939 0.16031 0.0
H2694 H 0.65315 0.17875 0.71826 0.0
H2695 H 0.65431 0.21135 0.7254 0.0
H2696 H 0.61015 0.21581 0.63356 0.0
H2697 H 0.60833 0.18357 0.62841 0.0
H2698 H 0.64485 0.23481 0.61246 0.0
H2699 H 0.60078 0.2261 0.72688 0.0
H2700 H 0.59051 0.21317 0.79783 0.0
H2701 H 0.63277 0.23921 0.86946 0.0
H2702 H 0.64353 0.252 0.79868 0.0
H2703 H 0.62035 0.32466 0.59497 0.0
H2704 H 0.62175 0.29274 0.6036 0.0
H2705 H 0.65214 0.29937 0.72569 0.0
H2706 H 0.6516 0.33175 0.71551 0.0
H2707 H 0.6275 0.27431 0.73778 0.0
H2708 H 0.67251 0.28203 0.63091 0.0
H2709 H 0.69098 0.2869 0.5643 0.0
H2710 H 0.65268 0.25982 0.48157 0.0
H2711 H 0.63386 0.25502 0.54753 0.0
C2712 C 0.64345 0.18669 0.70048 0.0
C2713 C 0.6309 0.17852 0.67188 0.0
C2714 C 0.64415 0.20533 0.70446 0.0
C2715 C 0.63236 0.2161 0.67983 0.0
C2716 C 0.61942 0.20787 0.65284 0.0
C2717 C 0.61851 0.18938 0.64959 0.0
C2718 C 0.63425 0.23587 0.67864 0.0
C2719 C 0.6407 0.2435 0.63942 0.0
C2720 C 0.62979 0.24715 0.71488 0.0
C2721 C 0.62308 0.23982 0.75744 0.0
C2722 C 0.60799 0.22892 0.75768 0.0
C2723 C 0.60206 0.22164 0.79788 0.0
C2724 C 0.61102 0.22531 0.83812 0.0
C2725 C 0.62587 0.23635 0.83825 0.0
C2726 C 0.63189 0.24362 0.79811 0.0
C2727 C 0.62786 0.31948 0.6229 0.0
C2728 C 0.63639 0.33103 0.65347 0.0
C2729 C 0.6285 0.30103 0.62812 0.0
C2730 C 0.63735 0.29335 0.66488 0.0
C2731 C 0.64536 0.30481 0.69668 0.0
C2732 C 0.64501 0.32339 0.69088 0.0
C2733 C 0.63757 0.27348 0.67025 0.0
C2734 C 0.63149 0.26576 0.71033 0.0
C2735 C 0.64263 0.26195 0.63481 0.0
C2736 C 0.65176 0.26823 0.59415 0.0
C2737 C 0.6678 0.27754 0.59833 0.0
C2738 C 0.67845 0.28006 0.5608 0.0
C2739 C 0.67316 0.27332 0.51896 0.0
C2740 C 0.65686 0.26479 0.51412 0.0
C2741 C 0.64617 0.26226 0.5515 0.0
H2742 H 0.68161 0.27491 0.49013 0.0
H2743 H 0.60641 0.21965 0.8692 0.0
H2744 H 0.93095 0.35258 0.92846 0.0
H2745 H 0.96356 0.35203 0.93066 0.0
H2746 H 0.9644 0.40905 0.92125 0.0
H2747 H 0.93219 0.40951 0.91788 0.0
H2748 H 0.98576 0.39702 0.86491 0.0
H2749 H 0.9766 0.38438 0.01948 0.0
H2750 H 0.96412 0.36781 0.08289 0.0
H2751 H 0.99129 0.32082 0.03976 0.0
H2752 H 1.00366 0.33704 0.97555 0.0
H2753 H 0.07832 0.41126 0.88897 0.0
H2754 H 0.04635 0.4105 0.89566 0.0
H2755 H 0.04859 0.35452 0.92351 0.0
H2756 H 0.08105 0.35568 0.92063 0.0
H2757 H 0.0251 0.36551 0.97153 0.0
H2758 H 0.0153 0.37673 0.7991 0.0
H2759 H 0.01563 0.39337 0.72805 0.0
H2760 H 0.02113 0.4422 0.80132 0.0
H2761 H 0.01936 0.42591 0.87274 0.0
C2762 C 0.93815 0.36498 0.92802 0.0
C2763 C 0.92896 0.38109 0.92326 0.0
C2764 C 0.95683 0.36469 0.92921 0.0
C2765 C 0.96669 0.38053 0.92648 0.0
C2766 C 0.95734 0.3966 0.92342 0.0
C2767 C 0.93882 0.39686 0.92171 0.0
C2768 C 0.98661 0.38061 0.92337 0.0
C2769 C 0.99431 0.39016 0.88851 0.0
C2770 C 0.99802 0.37153 0.95348 0.0
C2771 C 0.99094 0.36187 0.99254 0.0
C2772 C 0.97983 0.37048 0.02339 0.0
C2773 C 0.97277 0.36116 0.05946 0.0
C2774 C 0.97688 0.34327 0.0653 0.0
C2775 C 0.9881 0.33468 0.03516 0.0
C2776 C 0.99515 0.34393 0.99893 0.0
C2777 C 0.07203 0.39875 0.89655 0.0
C2778 C 0.08238 0.38354 0.90443 0.0
C2779 C 0.05348 0.39822 0.89929 0.0
C2780 C 0.04444 0.38231 0.90823 0.0
C2781 C 0.05488 0.36706 0.91627 0.0
C2782 C 0.07355 0.3677 0.91477 0.0
C2783 C 0.02441 0.38178 0.91204 0.0
C2784 C 0.01661 0.37218 0.94742 0.0
C2785 C 0.01272 0.39079 0.88213 0.0
C2786 C 0.01829 0.40002 0.84115 0.0
C2787 C 0.01713 0.39096 0.79996 0.0
C2788 C 0.01696 0.40038 0.75968 0.0
C2789 C 0.01859 0.41881 0.76014 0.0
C2790 C 0.02008 0.4279 0.80096 0.0
C2791 C 0.01951 0.4186 0.84136 0.0
H2792 H 0.01868 0.42605 0.72888 0.0
H2793 H 0.97139 0.33606 0.09325 0.0
H2794 H 0.43072 0.62096 0.47162 0.0
H2795 H 0.4631 0.6213 0.48145 0.0
H2796 H 0.46873 0.64302 0.34901 0.0
H2797 H 0.43654 0.6437 0.33979 0.0
H2798 H 0.48951 0.60633 0.38516 0.0
H2799 H 0.47904 0.67027 0.39954 0.0
H2800 H 0.46389 0.69572 0.43442 0.0
H2801 H 0.48333 0.67993 0.56417 0.0
H2802 H 0.49829 0.65416 0.53002 0.0
H2803 H 0.57742 0.64374 0.34989 0.0
H2804 H 0.5454 0.64296 0.35747 0.0
H2805 H 0.55133 0.6168 0.48482 0.0
H2806 H 0.58371 0.61586 0.47485 0.0
H2807 H 0.52453 0.65392 0.45953 0.0
H2808 H 0.53781 0.59142 0.444 0.0
H2809 H 0.55128 0.56493 0.40997 0.0
H2810 H 0.52437 0.5758 0.28548 0.0
H2811 H 0.51183 0.60311 0.3178 0.0
C2812 C 0.43879 0.62611 0.44483 0.0
C2813 C 0.43083 0.6321 0.40462 0.0
C2814 C 0.45735 0.6262 0.45046 0.0
C2815 C 0.46842 0.63211 0.41589 0.0
C2816 C 0.46053 0.63837 0.37618 0.0
C2817 C 0.44204 0.6387 0.37096 0.0
C2818 C 0.4882 0.63122 0.42021 0.0
C2819 C 0.49717 0.61673 0.40145 0.0
C2820 C 0.49825 0.6446 0.44203 0.0
C2821 C 0.48954 0.66018 0.46238 0.0
C2822 C 0.47989 0.67212 0.43557 0.0
C2823 C 0.47138 0.68662 0.45518 0.0
C2824 C 0.47258 0.68941 0.50152 0.0
C2825 C 0.48236 0.67773 0.5283 0.0
C2826 C 0.49086 0.66318 0.50884 0.0
C2827 C 0.57204 0.63717 0.37867 0.0
C2828 C 0.58336 0.62906 0.41038 0.0
C2829 C 0.5536 0.63706 0.38345 0.0
C2830 C 0.54578 0.62947 0.42121 0.0
C2831 C 0.55698 0.62241 0.4548 0.0
C2832 C 0.57554 0.62197 0.44918 0.0
C2833 C 0.52595 0.62894 0.42445 0.0
C2834 C 0.51693 0.64332 0.44396 0.0
C2835 C 0.51581 0.61538 0.40343 0.0
C2836 C 0.52426 0.5996 0.38305 0.0
C2837 C 0.53528 0.58854 0.40892 0.0
C2838 C 0.5427 0.57332 0.38996 0.0
C2839 C 0.53878 0.56873 0.3455 0.0
C2840 C 0.5275 0.57942 0.31985 0.0
C2841 C 0.52041 0.59489 0.3383 0.0
H2842 H 0.54443 0.55687 0.33095 0.0
H2843 H 0.46598 0.70064 0.51666 0.0
H2844 H 0.43072 0.40797 0.56965 0.0
H2845 H 0.46313 0.40863 0.5652 0.0
H2846 H 0.46585 0.35908 0.63678 0.0
H2847 H 0.43368 0.35915 0.64375 0.0
H2848 H 0.48949 0.37801 0.66923 0.0
H2849 H 0.47376 0.36624 0.51354 0.0
H2850 H 0.45869 0.3726 0.44153 0.0
H2851 H 0.48532 0.42276 0.43456 0.0
H2852 H 0.50037 0.41677 0.50679 0.0
H2853 H 0.5788 0.35633 0.63725 0.0
H2854 H 0.54654 0.35682 0.63188 0.0
H2855 H 0.54875 0.40724 0.56448 0.0
H2856 H 0.58128 0.40612 0.56729 0.0
H2857 H 0.52285 0.38994 0.53009 0.0
H2858 H 0.53892 0.40149 0.68401 0.0
H2859 H 0.55457 0.39529 0.75547 0.0
H2860 H 0.527 0.34577 0.76604 0.0
H2861 H 0.51147 0.35157 0.69432 0.0
C2862 C 0.43829 0.39711 0.58373 0.0
C2863 C 0.42966 0.38342 0.60665 0.0
C2864 C 0.45688 0.39744 0.58112 0.0
C2865 C 0.46723 0.38374 0.59999 0.0
C2866 C 0.45842 0.36988 0.62196 0.0
C2867 C 0.43995 0.36983 0.62565 0.0
C2868 C 0.48717 0.38397 0.59872 0.0
C2869 C 0.49669 0.38036 0.63849 0.0
C2870 C 0.49691 0.38767 0.55931 0.0
C2871 C 0.48806 0.39112 0.51567 0.0
C2872 C 0.47633 0.37865 0.4967 0.0
C2873 C 0.4678 0.38219 0.45587 0.0
C2874 C 0.47101 0.39809 0.43353 0.0
C2875 C 0.48282 0.41046 0.45191 0.0
C2876 C 0.49137 0.407 0.49276 0.0
C2877 C 0.5724 0.3674 0.62069 0.0
C2878 C 0.58258 0.38118 0.60265 0.0
C2879 C 0.55388 0.3678 0.61811 0.0
C2880 C 0.54495 0.38236 0.5991 0.0
C2881 C 0.55517 0.39588 0.57963 0.0
C2882 C 0.57379 0.39523 0.5811 0.0
C2883 C 0.52506 0.38353 0.60028 0.0
C2884 C 0.5156 0.38753 0.56071 0.0
C2885 C 0.51532 0.38018 0.63989 0.0
C2886 C 0.5242 0.37691 0.68369 0.0
C2887 C 0.5363 0.38926 0.70157 0.0
C2888 C 0.54514 0.38581 0.74205 0.0
C2889 C 0.54182 0.37012 0.7652 0.0
C2890 C 0.52958 0.3579 0.74804 0.0
C2891 C 0.52075 0.36128 0.7075 0.0
H2892 H 0.54871 0.36745 0.79648 0.0
H2893 H 0.46438 0.40082 0.40194 0.0
H2894 H 0.07792 0.65916 0.12777 0.0
H2895 H 0.04565 0.65934 0.12098 0.0
H2896 H 0.0467 0.60478 0.07688 0.0
H2897 H 0.07924 0.60524 0.08005 0.0
H2898 H 0.02094 0.61776 0.03733 0.0
H2899 H 0.03624 0.62083 0.19198 0.0
H2900 H 0.05145 0.63229 0.2597 0.0
H2901 H 0.02493 0.68227 0.24437 0.0
H2902 H 0.00978 0.67119 0.17606 0.0
H2903 H 0.93127 0.6013 0.10991 0.0
H2904 H 0.96368 0.60232 0.10761 0.0
H2905 H 0.96171 0.65902 0.09269 0.0
H2906 H 0.92908 0.65801 0.09411 0.0
H2907 H 0.98717 0.64448 0.16265 0.0
H2908 H 0.97099 0.63765 1.00524 0.0
H2909 H 0.95545 0.62254 0.94275 0.0
H2910 H 0.98338 0.57436 0.97242 0.0
H2911 H 0.99883 0.58912 0.03563 0.0
C2912 C 0.07125 0.64732 0.11575 0.0
C2913 C 0.08115 0.63225 0.1041 0.0
C2914 C 0.05268 0.64729 0.11255 0.0
C2915 C 0.04329 0.63187 0.09992 0.0
C2916 C 0.05331 0.61691 0.08694 0.0
C2917 C 0.07199 0.61716 0.08858 0.0
C2918 C 0.02321 0.63132 0.10103 0.0
C2919 C 0.01372 0.62347 0.06515 0.0
C2920 C 0.01328 0.63867 0.13706 0.0
C2921 C 0.022 0.64523 0.17871 0.0
C2922 C 0.0337 0.63428 0.20297 0.0
C2923 C 0.04232 0.64072 0.24144 0.0
C2924 C 0.03918 0.65801 0.25629 0.0
C2925 C 0.02736 0.66889 0.2328 0.0
C2926 C 0.01874 0.66254 0.19422 0.0
C2927 C 0.9377 0.614 0.10562 0.0
C2928 C 0.92751 0.62957 0.10172 0.0
C2929 C 0.95629 0.61455 0.1044 0.0
C2930 C 0.96528 0.63073 0.09987 0.0
C2931 C 0.95516 0.64635 0.09617 0.0
C2932 C 0.93648 0.64576 0.09653 0.0
C2933 C 0.9852 0.63123 0.09883 0.0
C2934 C 0.99456 0.63892 0.1349 0.0
C2935 C 0.99499 0.6232 0.06384 0.0
C2936 C 0.98595 0.61445 0.02535 0.0
C2937 C 0.97372 0.6238 0.99863 0.0
C2938 C 0.96494 0.61531 0.96306 0.0
C2939 C 0.96841 0.59749 0.95367 0.0
C2940 C 0.98069 0.58815 0.97976 0.0
C2941 C 0.98947 0.59658 0.01543 0.0
H2942 H 0.96159 0.59093 0.92612 0.0
H2943 H 0.04589 0.66299 0.28604 0.0
H2944 H 0.10777 0.5726 0.09848 0.0
H2945 H 0.10691 0.54351 0.06211 0.0
H2946 H 0.1634 0.54605 0.04194 0.0
H2947 H 0.1639 0.57567 0.07489 0.0
H2948 H 0.15214 0.53304 0.97326 0.0
H2949 H 0.13758 0.51219 0.12725 0.0
H2950 H 0.11998 0.51073 0.19655 0.0
H2951 H 0.07213 0.50668 0.11834 0.0
H2952 H 0.08956 0.50696 0.04861 0.0
H2953 H 0.16459 0.44276 0.90755 0.0
H2954 H 0.16459 0.47191 0.94364 0.0
H2955 H 0.10824 0.46749 0.96475 0.0
H2956 H 0.1089 0.43743 0.93374 0.0
H2957 H 0.1187 0.4818 0.03149 0.0
H2958 H 0.13381 0.49688 0.87857 0.0
H2959 H 0.15164 0.49486 0.80972 0.0
H2960 H 0.19804 0.51077 0.88398 0.0
H2961 H 0.18053 0.51268 0.95332 0.0
C2962 C 0.12002 0.56686 0.08657 0.0
C2963 C 0.13589 0.57657 0.08954 0.0
C2964 C 0.11959 0.54998 0.06611 0.0
C2965 C 0.13516 0.54197 0.04956 0.0
C2966 C 0.15108 0.55163 0.05382 0.0
C2967 C 0.1514 0.56865 0.07304 0.0
C2968 C 0.13501 0.5241 0.026 0.0
C2969 C 0.14497 0.52182 0.9866 0.0
C2970 C 0.12525 0.50929 0.04141 0.0
C2971 C 0.1148 0.50988 0.08297 0.0
C2972 C 0.1233 0.51112 0.12495 0.0
C2973 C 0.11337 0.51044 0.16424 0.0
C2974 C 0.09493 0.50903 0.16189 0.0
C2975 C 0.08639 0.50791 0.12016 0.0
C2976 C 0.09629 0.50811 0.08077 0.0
C2977 C 0.15219 0.44816 0.91945 0.0
C2978 C 0.13672 0.43786 0.91749 0.0
C2979 C 0.15211 0.46502 0.93987 0.0
C2980 C 0.1363 0.47257 0.95636 0.0
C2981 C 0.12072 0.46231 0.95281 0.0
C2982 C 0.12101 0.44512 0.9345 0.0
C2983 C 0.13593 0.49066 0.97886 0.0
C2984 C 0.12585 0.493 0.01799 0.0
C2985 C 0.1455 0.50555 0.96294 0.0
C2986 C 0.15589 0.50482 0.92108 0.0
C2987 C 0.14782 0.49993 0.88016 0.0
C2988 C 0.15787 0.49878 0.84109 0.0
C2989 C 0.17596 0.50266 0.84249 0.0
C2990 C 0.18403 0.50776 0.88294 0.0
C2991 C 0.17405 0.50891 0.9221 0.0
H2992 H 0.18373 0.50173 0.81222 0.0
H2993 H 0.08728 0.50863 0.1924 0.0
H2994 H 0.67859 0.87346 0.27544 0.0
H2995 H 0.70766 0.87497 0.24133 0.0
H2996 H 0.7294 0.89658 0.36436 0.0
H2997 H 0.69971 0.89705 0.39648 0.0
H2998 H 0.74607 0.91103 0.30424 0.0
H2999 H 0.7336 0.84907 0.32176 0.0
H3000 H 0.71591 0.82178 0.31302 0.0
H3001 H 0.71868 0.82616 0.16956 0.0
H3002 H 0.73619 0.85361 0.17745 0.0
H3003 H 0.83569 0.89515 0.24326 0.0
H3004 H 0.80677 0.89406 0.279 0.0
H3005 H 0.78339 0.87647 0.15391 0.0
H3006 H 0.8125 0.877 0.11948 0.0
H3007 H 0.76793 0.85971 0.21626 0.0
H3008 H 0.78053 0.9224 0.20133 0.0
H3009 H 0.79898 0.94906 0.21264 0.0
H3010 H 0.79691 0.94204 0.3555 0.0
H3011 H 0.7786 0.91525 0.34498 0.0
C3012 C 0.68951 0.87856 0.29547 0.0
C3013 C 0.68673 0.88448 0.33984 0.0
C3014 C 0.70636 0.8792 0.27591 0.0
C3015 C 0.72129 0.88511 0.3005 0.0
C3016 C 0.71841 0.89159 0.34438 0.0
C3017 C 0.70137 0.89155 0.36336 0.0
C3018 C 0.73969 0.88479 0.28033 0.0
C3019 C 0.75083 0.89963 0.28564 0.0
C3020 C 0.74623 0.87018 0.25501 0.0
C3021 C 0.73609 0.85345 0.25021 0.0
C3022 C 0.7304 0.84423 0.28836 0.0
C3023 C 0.72039 0.82875 0.28355 0.0
C3024 C 0.71615 0.82226 0.24076 0.0
C3025 C 0.72197 0.83121 0.20268 0.0
C3026 C 0.73195 0.84671 0.2073 0.0
C3027 C 0.82437 0.89144 0.22318 0.0
C3028 C 0.8266 0.88692 0.17771 0.0
C3029 C 0.80768 0.89074 0.2437 0.0
C3030 C 0.79241 0.8858 0.2191 0.0
C3031 C 0.7947 0.8806 0.17402 0.0
C3032 C 0.81151 0.88101 0.15391 0.0
C3033 C 0.77421 0.88592 0.24019 0.0
C3034 C 0.76312 0.87106 0.23498 0.0
C3035 C 0.7678 0.9004 0.26605 0.0
C3036 C 0.7783 0.9168 0.27235 0.0
C3037 C 0.78403 0.92655 0.23513 0.0
C3038 C 0.79447 0.94167 0.24141 0.0
C3039 C 0.79912 0.94723 0.28476 0.0
C3040 C 0.79327 0.93774 0.32195 0.0
C3041 C 0.78286 0.9226 0.31586 0.0
H3042 H 0.80726 0.9589 0.28955 0.0
H3043 H 0.70838 0.81029 0.23711 0.0
H3044 H 0.39987 0.44452 0.61826 0.0
H3045 H 0.40046 0.47423 0.58483 0.0
H3046 H 0.35011 0.46416 0.52069 0.0
H3047 H 0.34869 0.43521 0.55701 0.0
H3048 H 0.39153 0.48085 0.47363 0.0
H3049 H 0.33558 0.48821 0.56262 0.0
H3050 H 0.32039 0.48419 0.63483 0.0
H3051 H 0.36183 0.51297 0.70278 0.0
H3052 H 0.37745 0.51675 0.63094 0.0
H3053 H 0.36548 0.56298 0.36944 0.0
H3054 H 0.36491 0.5335 0.40362 0.0
H3055 H 0.38906 0.55484 0.52382 0.0
H3056 H 0.39053 0.58403 0.48897 0.0
H3057 H 0.36156 0.53232 0.54412 0.0
H3058 H 0.41331 0.53147 0.45422 0.0
H3059 H 0.43168 0.53379 0.38657 0.0
H3060 H 0.40154 0.49231 0.32301 0.0
H3061 H 0.3827 0.49001 0.38995 0.0
C3062 C 0.38875 0.44872 0.59779 0.0
C3063 C 0.37426 0.43727 0.59032 0.0
C3064 C 0.38919 0.4657 0.57825 0.0
C3065 C 0.37531 0.47154 0.55016 0.0
C3066 C 0.36093 0.46011 0.54243 0.0
C3067 C 0.36025 0.4434 0.56293 0.0
C3068 C 0.37568 0.48956 0.52904 0.0
C3069 C 0.38478 0.49206 0.48866 0.0
C3070 C 0.36729 0.50435 0.54898 0.0
C3071 C 0.35774 0.50255 0.59172 0.0
C3072 C 0.34151 0.49352 0.59307 0.0
C3073 C 0.33283 0.4913 0.63387 0.0
C3074 C 0.34016 0.4983 0.67339 0.0
C3075 C 0.35618 0.50754 0.67215 0.0
C3076 C 0.36497 0.50969 0.63143 0.0
C3077 C 0.37104 0.56137 0.40265 0.0
C3078 C 0.37855 0.57595 0.42553 0.0
C3079 C 0.37055 0.54447 0.4225 0.0
C3080 C 0.37712 0.54174 0.46638 0.0
C3081 C 0.38398 0.55643 0.48995 0.0
C3082 C 0.38485 0.57319 0.46973 0.0
C3083 C 0.37702 0.52365 0.48761 0.0
C3084 C 0.36814 0.52115 0.52845 0.0
C3085 C 0.38565 0.50885 0.4679 0.0
C3086 C 0.39649 0.51068 0.42695 0.0
C3087 C 0.41043 0.52301 0.42559 0.0
C3088 C 0.42098 0.52427 0.38745 0.0
C3089 C 0.41785 0.51312 0.35068 0.0
C3090 C 0.40399 0.50088 0.35164 0.0
C3091 C 0.39335 0.49961 0.38964 0.0
H3092 H 0.42619 0.51394 0.32142 0.0
H3093 H 0.33341 0.49658 0.70495 0.0
H3094 H 0.83342 0.12731 0.77032 0.0
H3095 H 0.8042 0.126 0.7386 0.0
H3096 H 0.78176 0.1303 0.8708 0.0
H3097 H 0.81152 0.12876 0.90378 0.0
H3098 H 0.76086 0.1119 0.82898 0.0
H3099 H 0.78526 0.1669 0.78149 0.0
H3100 H 0.80745 0.18685 0.7486 0.0
H3101 H 0.80246 0.15975 0.62201 0.0
H3102 H 0.78042 0.13949 0.65432 0.0
H3103 H 0.67813 0.14185 0.74049 0.0
H3104 H 0.70762 0.1407 0.77352 0.0
H3105 H 0.72743 0.11599 0.65343 0.0
H3106 H 0.69738 0.11631 0.62031 0.0
H3107 H 0.74876 0.14532 0.68899 0.0
H3108 H 0.72649 0.08828 0.74579 0.0
H3109 H 0.70521 0.06888 0.78441 0.0
H3110 H 0.70438 0.10463 0.89688 0.0
H3111 H 0.7263 0.12378 0.85983 0.0
C3112 C 0.82244 0.12792 0.79339 0.0
C3113 C 0.82532 0.12847 0.8404 0.0
C3114 C 0.80544 0.1275 0.77463 0.0
C3115 C 0.79036 0.12899 0.80155 0.0
C3116 C 0.79301 0.12944 0.84863 0.0
C3117 C 0.81021 0.12887 0.86776 0.0
C3118 C 0.77209 0.12957 0.78021 0.0
C3119 C 0.75832 0.11952 0.79883 0.0
C3120 C 0.76831 0.13922 0.74018 0.0
C3121 C 0.78127 0.15162 0.72041 0.0
C3122 C 0.78893 0.16518 0.74668 0.0
C3123 C 0.80149 0.17653 0.72814 0.0
C3124 C 0.80638 0.17455 0.68326 0.0
C3125 C 0.79866 0.16126 0.65676 0.0
C3126 C 0.78612 0.14986 0.67514 0.0
C3127 C 0.68865 0.13613 0.72066 0.0
C3128 C 0.68516 0.12926 0.67723 0.0
C3129 C 0.7056 0.13541 0.73998 0.0
C3130 C 0.71982 0.12805 0.71644 0.0
C3131 C 0.71667 0.12166 0.6725 0.0
C3132 C 0.69948 0.12204 0.6533 0.0
C3133 C 0.73792 0.12762 0.73774 0.0
C3134 C 0.75152 0.13779 0.71918 0.0
C3135 C 0.74141 0.11857 0.77843 0.0
C3136 C 0.72781 0.10751 0.79991 0.0
C3137 C 0.72165 0.09203 0.77861 0.0
C3138 C 0.70955 0.08106 0.80027 0.0
C3139 C 0.70321 0.08568 0.84267 0.0
C3140 C 0.70921 0.10112 0.86391 0.0
C3141 C 0.72159 0.11195 0.84281 0.0
H3142 H 0.69376 0.0772 0.85922 0.0
H3143 H 0.81612 0.18333 0.669 0.0
H3144 H 0.86705 0.56289 0.15167 0.0
H3145 H 0.86714 0.53257 0.12014 0.0
H3146 H 0.87638 0.55361 0.98836 0.0
H3147 H 0.87746 0.58326 0.01901 0.0
H3148 H 0.84748 0.52624 0.9961 0.0
H3149 H 0.90938 0.53879 0.03056 0.0
H3150 H 0.93344 0.54736 0.08282 0.0
H3151 H 0.92177 0.5026 0.16591 0.0
H3152 H 0.89737 0.49398 0.11453 0.0
H3153 H 0.86816 0.44932 0.86427 0.0
H3154 H 0.86763 0.47929 0.89714 0.0
H3155 H 0.88181 0.45769 0.02642 0.0
H3156 H 0.88348 0.42848 0.99386 0.0
H3157 H 0.89821 0.48576 0.02223 0.0
H3158 H 0.83743 0.47185 0.99181 0.0
H3159 H 0.81155 0.46313 0.94568 0.0
H3160 H 0.81851 0.50899 0.86294 0.0
H3161 H 0.84461 0.51784 0.90822 0.0
C3162 C 0.8693 0.56107 0.11614 0.0
C3163 C 0.87243 0.57579 0.08839 0.0
C3164 C 0.8692 0.54371 0.09804 0.0
C3165 C 0.87168 0.5408 0.05169 0.0
C3166 C 0.87434 0.55544 0.02405 0.0
C3167 C 0.875 0.57253 0.04207 0.0
C3168 C 0.87219 0.52264 0.03132 0.0
C3169 C 0.85858 0.51736 1.0017 0.0
C3170 C 0.88653 0.51095 0.03884 0.0
C3171 C 0.90143 0.51588 0.06907 0.0
C3172 C 0.91185 0.53087 0.06019 0.0
C3173 C 0.92555 0.53573 0.08962 0.0
C3174 C 0.92909 0.52557 0.12775 0.0
C3175 C 0.91898 0.51049 0.13642 0.0
C3176 C 0.90521 0.50561 0.10717 0.0
C3177 C 0.87139 0.45102 0.89951 0.0
C3178 C 0.87587 0.43626 0.92599 0.0
C3179 C 0.87089 0.4682 0.91859 0.0
C3180 C 0.87443 0.47098 0.96483 0.0
C3181 C 0.87908 0.45623 0.99082 0.0
C3182 C 0.8799 0.4393 0.97182 0.0
C3183 C 0.8733 0.48899 0.98694 0.0
C3184 C 0.88693 0.49439 0.01672 0.0
C3185 C 0.85874 0.50063 0.98025 0.0
C3186 C 0.84306 0.4954 0.95307 0.0
C3187 C 0.8335 0.48 0.96358 0.0
C3188 C 0.8188 0.47505 0.93761 0.0
C3189 C 0.81342 0.48548 0.90133 0.0
C3190 C 0.82272 0.50091 0.891 0.0
C3191 C 0.83746 0.50591 0.9168 0.0
H3192 H 0.80202 0.48162 0.88127 0.0
H3193 H 0.93969 0.52936 0.15053 0.0
H3194 H 0.20019 0.12117 0.90083 0.0
H3195 H 0.22964 0.12142 0.86754 0.0
H3196 H 0.20615 0.13184 0.73766 0.0
H3197 H 0.1767 0.13124 0.7714 0.0
H3198 H 0.23097 0.11044 0.7235 0.0
H3199 H 0.22947 0.16433 0.80772 0.0
H3200 H 0.22498 0.18298 0.87486 0.0
H3201 H 0.26672 0.15531 0.94385 0.0
H3202 H 0.27125 0.13626 0.87738 0.0
H3203 H 0.3176 0.15036 0.64935 0.0
H3204 H 0.28781 0.15073 0.68168 0.0
H3205 H 0.29918 0.10199 0.75068 0.0
H3206 H 0.3281 0.10053 0.71469 0.0
H3207 H 0.28082 0.14382 0.793 0.0
H3208 H 0.27682 0.08656 0.70528 0.0
H3209 H 0.28126 0.07099 0.63327 0.0
H3210 H 0.24892 0.10957 0.56581 0.0
H3211 H 0.2448 0.12569 0.63733 0.0
C3212 C 0.20133 0.12383 0.86545 0.0
C3213 C 0.18606 0.12632 0.83898 0.0
C3214 C 0.21827 0.12394 0.84614 0.0
C3215 C 0.22047 0.12697 0.79979 0.0
C3216 C 0.2051 0.12945 0.77336 0.0
C3217 C 0.18818 0.1291 0.79268 0.0
C3218 C 0.23865 0.12744 0.77885 0.0
C3219 C 0.24173 0.11785 0.73894 0.0
C3220 C 0.25303 0.13713 0.79803 0.0
C3221 C 0.25062 0.1488 0.83768 0.0
C3222 C 0.23765 0.16218 0.83727 0.0
C3223 C 0.23509 0.17281 0.8752 0.0
C3224 C 0.24558 0.17035 0.91354 0.0
C3225 C 0.25863 0.15722 0.91408 0.0
C3226 C 0.2612 0.1465 0.87629 0.0
C3227 C 0.31365 0.13948 0.67046 0.0
C3228 C 0.32544 0.12538 0.67914 0.0
C3229 C 0.29664 0.13984 0.6895 0.0
C3230 C 0.29112 0.12634 0.71859 0.0
C3231 C 0.30297 0.11249 0.72806 0.0
C3232 C 0.3197 0.11181 0.70788 0.0
C3233 C 0.27298 0.12654 0.73882 0.0
C3234 C 0.26995 0.13638 0.77815 0.0
C3235 C 0.2586 0.11732 0.71893 0.0
C3236 C 0.26076 0.10745 0.67637 0.0
C3237 C 0.27088 0.09185 0.67497 0.0
C3238 C 0.27331 0.08292 0.63428 0.0
C3239 C 0.26541 0.08931 0.59497 0.0
C3240 C 0.25507 0.10466 0.59627 0.0
C3241 C 0.25273 0.11372 0.63683 0.0
H3242 H 0.26725 0.08234 0.56352 0.0
H3243 H 0.24361 0.17863 0.94283 0.0
H3244 H 0.64961 0.56223 0.37186 0.0
H3245 H 0.65006 0.53248 0.405 0.0
H3246 H 0.61973 0.55171 0.517 0.0
H3247 H 0.61923 0.58118 0.48429 0.0
H3248 H 0.64354 0.53146 0.54983 0.0
H3249 H 0.60205 0.52451 0.43008 0.0
H3250 H 0.59079 0.52582 0.35223 0.0
H3251 H 0.63107 0.48927 0.31047 0.0
H3252 H 0.64274 0.48795 0.38806 0.0
H3253 H 0.61215 0.44224 0.61654 0.0
H3254 H 0.61144 0.47195 0.58277 0.0
H3255 H 0.6624 0.46248 0.52376 0.0
H3256 H 0.66387 0.43354 0.56024 0.0
H3257 H 0.62773 0.47708 0.46435 0.0
H3258 H 0.66948 0.48653 0.5889 0.0
H3259 H 0.67747 0.48435 0.66913 0.0
H3260 H 0.63235 0.51607 0.70358 0.0
H3261 H 0.62385 0.51805 0.62348 0.0
C3262 C 0.64272 0.56006 0.40304 0.0
C3263 C 0.63416 0.57427 0.42476 0.0
C3264 C 0.64305 0.54297 0.42227 0.0
C3265 C 0.6348 0.53953 0.46376 0.0
C3266 C 0.62628 0.55374 0.48525 0.0
C3267 C 0.62593 0.57072 0.46614 0.0
C3268 C 0.63507 0.52134 0.48521 0.0
C3269 C 0.63993 0.51969 0.53087 0.0
C3270 C 0.6304 0.50564 0.46134 0.0
C3271 C 0.62341 0.50631 0.41474 0.0
C3272 C 0.6086 0.51686 0.40422 0.0
C3273 C 0.60213 0.51759 0.36017 0.0
C3274 C 0.61026 0.50769 0.32638 0.0
C3275 C 0.62483 0.49698 0.33665 0.0
C3276 C 0.63137 0.49622 0.38067 0.0
C3277 C 0.62334 0.44656 0.59701 0.0
C3278 C 0.63796 0.43521 0.5907 0.0
C3279 C 0.62284 0.46353 0.57727 0.0
C3280 C 0.63675 0.46945 0.54998 0.0
C3281 C 0.6514 0.45825 0.54416 0.0
C3282 C 0.65218 0.44161 0.5651 0.0
C3283 C 0.63632 0.48742 0.52829 0.0
C3284 C 0.63138 0.48896 0.48286 0.0
C3285 C 0.64061 0.50304 0.55243 0.0
C3286 C 0.64593 0.50226 0.60034 0.0
C3287 C 0.66117 0.49288 0.61363 0.0
C3288 C 0.66581 0.49171 0.65904 0.0
C3289 C 0.65543 0.50008 0.69142 0.0
C3290 C 0.64038 0.50961 0.67844 0.0
C3291 C 0.63564 0.51075 0.63304 0.0
H3292 H 0.65905 0.49916 0.72658 0.0
H3293 H 0.60524 0.50829 0.29227 0.0
H3294 H 0.31393 0.88472 0.39895 0.0
H3295 H 0.28443 0.88462 0.3643 0.0
H3296 H 0.30813 0.88581 0.23319 0.0
H3297 H 0.33755 0.8855 0.26845 0.0
H3298 H 0.28105 0.90831 0.23472 0.0
H3299 H 0.28885 0.84729 0.27986 0.0
H3300 H 0.2958 0.82434 0.33604 0.0
H3301 H 0.2518 0.84135 0.41568 0.0
H3302 H 0.24474 0.86457 0.36027 0.0
H3303 H 0.20068 0.8922 0.11118 0.0
H3304 H 0.23081 0.89088 0.14221 0.0
H3305 H 0.20967 0.88155 0.27402 0.0
H3306 H 0.17997 0.88137 0.2429 0.0
H3307 H 0.23616 0.8628 0.27077 0.0
H3308 H 0.22814 0.92382 0.23155 0.0
H3309 H 0.2216 0.94907 0.18183 0.0
H3310 H 0.26534 0.93471 0.09805 0.0
H3311 H 0.27196 0.9092 0.14692 0.0
C3312 C 0.3129 0.88469 0.3629 0.0
C3313 C 0.32823 0.88539 0.33661 0.0
C3314 C 0.29592 0.88472 0.34284 0.0
C3315 C 0.29379 0.88516 0.29572 0.0
C3316 C 0.30917 0.88564 0.26949 0.0
C3317 C 0.32607 0.88562 0.28967 0.0
C3318 C 0.2757 0.88502 0.27368 0.0
C3319 C 0.27132 0.8982 0.24221 0.0
C3320 C 0.26265 0.87221 0.28396 0.0
C3321 C 0.26634 0.85771 0.31608 0.0
C3322 C 0.28066 0.84612 0.30937 0.0
C3323 C 0.28464 0.8331 0.34111 0.0
C3324 C 0.27427 0.83142 0.37945 0.0
C3325 C 0.25982 0.84268 0.38598 0.0
C3326 C 0.25581 0.85576 0.35439 0.0
C3327 C 0.20242 0.88951 0.14656 0.0
C3328 C 0.18761 0.8866 0.17397 0.0
C3329 C 0.21979 0.88907 0.16466 0.0
C3330 C 0.22286 0.88633 0.21104 0.0
C3331 C 0.20802 0.88357 0.23825 0.0
C3332 C 0.19082 0.8836 0.22013 0.0
C3333 C 0.24129 0.88623 0.23175 0.0
C3334 C 0.2458 0.87295 0.26302 0.0
C3335 C 0.25433 0.89917 0.22189 0.0
C3336 C 0.25041 0.9145 0.19258 0.0
C3337 C 0.23628 0.92598 0.20234 0.0
C3338 C 0.23257 0.94034 0.17433 0.0
C3339 C 0.24302 0.94346 0.13673 0.0
C3340 C 0.25723 0.93225 0.12712 0.0
C3341 C 0.26097 0.91785 0.15496 0.0
H3342 H 0.24013 0.95459 0.1151 0.0
H3343 H 0.27742 0.82137 0.40407 0.0
H3344 H 0.62698 0.9296 0.49117 0.0
H3345 H 0.62723 0.95944 0.52153 0.0
H3346 H 0.64842 0.97905 0.39747 0.0
H3347 H 0.64886 0.94867 0.36694 0.0
H3348 H 0.6642 0.99523 0.46772 0.0
H3349 H 0.6031 0.98387 0.42796 0.0
H3350 H 0.57547 0.96646 0.42896 0.0
H3351 H 0.57342 0.97161 0.57248 0.0
H3352 H 0.60117 0.98881 0.57238 0.0
H3353 H 0.65326 0.08472 0.53299 0.0
H3354 H 0.65243 0.05645 0.49409 0.0
H3355 H 0.61913 0.03555 0.59825 0.0
H3356 H 0.6174 0.06495 0.63154 0.0
H3357 H 0.60938 0.01982 0.5338 0.0
H3358 H 0.67068 0.0282 0.57801 0.0
H3359 H 0.69916 0.0442 0.58148 0.0
H3360 H 0.70213 0.04309 0.43756 0.0
H3361 H 0.67361 0.02723 0.43327 0.0
C3362 C 0.63172 0.94014 0.46991 0.0
C3363 C 0.63769 0.93652 0.42603 0.0
C3364 C 0.63174 0.95738 0.48749 0.0
C3365 C 0.63741 0.97179 0.46168 0.0
C3366 C 0.64378 0.96827 0.41814 0.0
C3367 C 0.64394 0.95086 0.40053 0.0
C3368 C 0.6367 0.99036 0.48059 0.0
C3369 C 0.65214 1.0007 0.48165 0.0
C3370 C 0.62118 0.99749 0.50025 0.0
C3371 C 0.60425 0.98755 0.50015 0.0
C3372 C 0.59677 0.98124 0.45973 0.0
C3373 C 0.5811 0.9714 0.46015 0.0
C3374 C 0.5727 0.96792 0.50077 0.0
C3375 C 0.57993 0.97432 0.54105 0.0
C3376 C 0.59562 0.98413 0.54082 0.0
C3377 C 0.64556 0.07424 0.54719 0.0
C3378 C 0.63572 0.07735 0.58626 0.0
C3379 C 0.64542 0.05769 0.52543 0.0
C3380 C 0.63645 0.04309 0.54379 0.0
C3381 C 0.62645 0.04621 0.58288 0.0
C3382 C 0.62574 0.06313 0.60292 0.0
C3383 C 0.63708 0.02484 0.52206 0.0
C3384 C 0.62155 0.01449 0.52024 0.0
C3385 C 0.65266 0.01753 0.50266 0.0
C3386 C 0.66999 0.02665 0.50534 0.0
C3387 C 0.67742 0.03139 0.54715 0.0
C3388 C 0.69355 0.04045 0.54924 0.0
C3389 C 0.70243 0.04469 0.50977 0.0
C3390 C 0.69524 0.03981 0.46811 0.0
C3391 C 0.67912 0.03076 0.46582 0.0
H3392 H 0.7149 0.05173 0.51146 0.0
H3393 H 0.56058 0.96028 0.50103 0.0
H3394 H 0.20024 0.37338 0.89226 0.0
H3395 H 0.22941 0.37306 0.85713 0.0
H3396 H 0.20636 0.39397 0.73554 0.0
H3397 H 0.17736 0.39447 0.77138 0.0
H3398 H 0.23071 0.36703 0.71815 0.0
H3399 H 0.22818 0.42121 0.80189 0.0
H3400 H 0.22323 0.43937 0.86961 0.0
H3401 H 0.26552 0.41224 0.93788 0.0
H3402 H 0.27052 0.39368 0.87073 0.0
H3403 H 0.31229 0.39783 0.61645 0.0
H3404 H 0.28235 0.39724 0.64817 0.0
H3405 H 0.30294 0.373 0.76838 0.0
H3406 H 0.33237 0.37237 0.73626 0.0
H3407 H 0.27974 0.40226 0.78548 0.0
H3408 H 0.28214 0.34798 0.70225 0.0
H3409 H 0.28724 0.32981 0.63462 0.0
H3410 H 0.24516 0.35703 0.56571 0.0
H3411 H 0.2401 0.37568 0.63269 0.0
C3412 C 0.20135 0.37808 0.85841 0.0
C3413 C 0.18642 0.38474 0.83541 0.0
C3414 C 0.21811 0.37782 0.83807 0.0
C3415 C 0.22028 0.38377 0.79369 0.0
C3416 C 0.20523 0.38949 0.76989 0.0
C3417 C 0.18862 0.39003 0.79059 0.0
C3418 C 0.23823 0.3845 0.77242 0.0
C3419 C 0.24134 0.37491 0.73265 0.0
C3420 C 0.2523 0.39458 0.79134 0.0
C3421 C 0.24959 0.40592 0.83147 0.0
C3422 C 0.23634 0.41902 0.83146 0.0
C3423 C 0.23353 0.4294 0.86973 0.0
C3424 C 0.24401 0.42692 0.90808 0.0
C3425 C 0.25738 0.41411 0.90817 0.0
C3426 C 0.26022 0.40366 0.87001 0.0
C3427 C 0.31041 0.39186 0.64897 0.0
C3428 C 0.32492 0.38474 0.67294 0.0
C3429 C 0.29327 0.39179 0.66747 0.0
C3430 C 0.29032 0.3851 0.71088 0.0
C3431 C 0.30478 0.3783 0.73501 0.0
C3432 C 0.3217 0.37791 0.71622 0.0
C3433 C 0.27221 0.38479 0.73123 0.0
C3434 C 0.26908 0.39443 0.77089 0.0
C3435 C 0.25814 0.37476 0.71224 0.0
C3436 C 0.2609 0.36338 0.67224 0.0
C3437 C 0.27409 0.35021 0.67252 0.0
C3438 C 0.27696 0.33981 0.63435 0.0
C3439 C 0.26656 0.3423 0.59585 0.0
C3440 C 0.25323 0.35515 0.59553 0.0
C3441 C 0.25037 0.36565 0.63358 0.0
H3442 H 0.26882 0.33424 0.56629 0.0
H3443 H 0.2418 0.43495 0.9377 0.0
H3444 H 0.85328 0.94739 0.12667 0.0
H3445 H 0.85235 0.97721 0.09312 0.0
H3446 H 0.90205 0.96705 0.02806 0.0
H3447 H 0.90264 0.93715 0.05988 0.0
H3448 H 0.89833 1.00263 0.07273 0.0
H3449 H 0.87022 0.9635 0.96532 0.0
H3450 H 0.8485 0.94173 0.93682 0.0
H3451 H 0.80595 0.97683 0.97134 0.0
H3452 H 0.82743 0.99872 1.00072 0.0
H3453 H 0.90241 0.07134 0.9093 0.0
H3454 H 0.90259 0.04225 0.94585 0.0
H3455 H 0.84793 0.04929 0.98226 0.0
H3456 H 0.84765 0.07822 0.94535 0.0
H3457 H 0.85349 0.01562 0.95462 0.0
H3458 H 0.88006 0.05483 0.06043 0.0
H3459 H 0.90078 0.07792 0.0869 0.0
H3460 H 0.9448 0.04378 0.05815 0.0
H3461 H 0.92429 0.02057 0.03084 0.0
C3462 C 0.86417 0.95168 0.10597 0.0
C3463 C 0.87811 0.93993 0.09628 0.0
C3464 C 0.86356 0.96867 0.08643 0.0
C3465 C 0.87712 0.97447 0.05782 0.0
C3466 C 0.89143 0.96301 0.04993 0.0
C3467 C 0.89177 0.9459 0.06828 0.0
C3468 C 0.87625 0.99217 0.03492 0.0
C3469 C 0.88862 1.00538 0.04663 0.0
C3470 C 0.86336 0.9961 1.00148 0.0
C3471 C 0.85042 0.98264 0.98573 0.0
C3472 C 0.85623 0.96647 0.96743 0.0
C3473 C 0.84397 0.95417 0.9508 0.0
C3474 C 0.82586 0.95794 0.95201 0.0
C3475 C 0.81998 0.97396 0.97025 0.0
C3476 C 0.83219 0.98631 0.98692 0.0
C3477 C 0.89039 0.06666 0.92485 0.0
C3478 C 0.87509 0.07734 0.92493 0.0
C3479 C 0.89053 0.05002 0.94604 0.0
C3480 C 0.87534 0.04351 0.96763 0.0
C3481 C 0.85987 0.05389 0.96617 0.0
C3482 C 0.85976 0.07054 0.94518 0.0
C3483 C 0.87562 0.02608 0.99222 0.0
C3484 C 0.86316 0.01293 0.98086 0.0
C3485 C 0.88827 0.02228 0.02638 0.0
C3486 C 0.90066 0.03605 0.04318 0.0
C3487 C 0.89416 0.0523 0.05945 0.0
C3488 C 0.90587 0.0654 0.07464 0.0
C3489 C 0.92411 0.06233 0.07409 0.0
C3490 C 0.93067 0.04614 0.05848 0.0
C3491 C 0.91901 0.033 0.04317 0.0
H3492 H 0.93316 0.07249 0.08584 0.0
H3493 H 0.81639 0.94838 0.93915 0.0
H3494 H 0.18034 0.64465 0.22936 0.0
H3495 H 0.20994 0.6432 0.26256 0.0
H3496 H 0.22608 0.60719 0.15796 0.0
H3497 H 0.19639 0.60891 0.12379 0.0
H3498 H 0.22831 0.61672 0.29879 0.0
H3499 H 0.26094 0.61014 0.13483 0.0
H3500 H 0.2585 0.62109 0.05691 0.0
H3501 H 0.24367 0.67256 0.10595 0.0
H3502 H 0.24573 0.66175 0.18401 0.0
H3503 H 0.31801 0.60128 0.37319 0.0
H3504 H 0.28854 0.59963 0.33781 0.0
H3505 H 0.29815 0.64935 0.27137 0.0
H3506 H 0.32783 0.65029 0.30419 0.0
H3507 H 0.28263 0.63152 0.21479 0.0
H3508 H 0.26873 0.64119 0.371 0.0
H3509 H 0.26918 0.63459 0.45205 0.0
H3510 H 0.24506 0.58401 0.42599 0.0
H3511 H 0.24472 0.59022 0.34472 0.0
C3512 C 0.1902 0.63654 0.21292 0.0
C3513 C 0.18588 0.62703 0.17343 0.0
C3514 C 0.2072 0.63567 0.23223 0.0
C3515 C 0.22055 0.62525 0.21283 0.0
C3516 C 0.21632 0.61573 0.17324 0.0
C3517 C 0.19925 0.61669 0.15364 0.0
C3518 C 0.23865 0.6243 0.23464 0.0
C3519 C 0.24021 0.61981 0.2803 0.0
C3520 C 0.25429 0.62864 0.2114 0.0
C3521 C 0.25346 0.63517 0.16487 0.0
C3522 C 0.25724 0.6238 0.12882 0.0
C3523 C 0.25583 0.62995 0.08471 0.0
C3524 C 0.25094 0.64751 0.07649 0.0
C3525 C 0.24741 0.65895 0.11235 0.0
C3526 C 0.24861 0.65281 0.15646 0.0
C3527 C 0.31368 0.61196 0.35155 0.0
C3528 C 0.32527 0.626 0.34194 0.0
C3529 C 0.29674 0.61106 0.3312 0.0
C3530 C 0.29065 0.6245 0.3019 0.0
C3531 C 0.30223 0.63867 0.2933 0.0
C3532 C 0.31926 0.63931 0.31257 0.0
C3533 C 0.27252 0.62391 0.27955 0.0
C3534 C 0.27088 0.62818 0.23359 0.0
C3535 C 0.25675 0.61976 0.30304 0.0
C3536 C 0.25686 0.61609 0.35183 0.0
C3537 C 0.26362 0.62863 0.38257 0.0
C3538 C 0.26385 0.62496 0.42853 0.0
C3539 C 0.25719 0.60888 0.44415 0.0
C3540 C 0.25024 0.59645 0.41384 0.0
C3541 C 0.25003 0.60003 0.36785 0.0
H3542 H 0.25737 0.60606 0.47974 0.0
H3543 H 0.24988 0.65225 0.04234 0.0
H3544 H 0.34821 0.9383 0.42329 0.0
H3545 H 0.34745 0.96652 0.46325 0.0
H3546 H 0.40391 0.97204 0.44535 0.0
H3547 H 0.40481 0.94231 0.4124 0.0
H3548 H 0.40018 0.9849 0.51607 0.0
H3549 H 0.36392 0.9977 0.38685 0.0
H3550 H 0.33937 0.99357 0.33254 0.0
H3551 H 0.30168 0.9989 0.4388 0.0
H3552 H 0.32601 1.00285 0.49378 0.0
H3553 H 0.39961 0.0793 0.55169 0.0
H3554 H 0.39921 0.04965 0.51804 0.0
H3555 H 0.35382 0.03611 0.59734 0.0
H3556 H 0.35443 0.06588 0.63209 0.0
H3557 H 0.3511 0.02801 0.49918 0.0
H3558 H 0.39045 0.01647 0.62607 0.0
H3559 H 0.41656 0.02258 0.67414 0.0
H3560 H 0.4504 0.01876 0.55954 0.0
H3561 H 0.42453 0.01235 0.51089 0.0
C3562 C 0.36043 0.94561 0.42779 0.0
C3563 C 0.37655 0.93805 0.41445 0.0
C3564 C 0.36 0.96208 0.45018 0.0
C3565 C 0.37554 0.97224 0.45697 0.0
C3566 C 0.39159 0.96486 0.44142 0.0
C3567 C 0.39212 0.94789 0.42156 0.0
C3568 C 0.37535 0.98997 0.48176 0.0
C3569 C 0.38948 0.99428 0.51124 0.0
C3570 C 0.36139 1.00262 0.47744 0.0
C3571 C 0.34677 1.00042 0.44442 0.0
C3572 C 0.35039 0.99792 0.39861 0.0
C3573 C 0.33652 0.99561 0.36773 0.0
C3574 C 0.31898 0.99593 0.38223 0.0
C3575 C 0.31527 0.99862 0.42762 0.0
C3576 C 0.32909 1.00092 0.45864 0.0
C3577 C 0.3897 0.06993 0.56262 0.0
C3578 C 0.37715 0.07497 0.595 0.0
C3579 C 0.38946 0.05294 0.54319 0.0
C3580 C 0.37649 0.0405 0.5549 0.0
C3581 C 0.364 0.0454 0.58763 0.0
C3582 C 0.36446 0.06236 0.60788 0.0
C3583 C 0.37591 0.02264 0.5321 0.0
C3584 C 0.36169 0.01843 0.50328 0.0
C3585 C 0.39003 0.01038 0.53564 0.0
C3586 C 0.40557 0.01405 0.56488 0.0
C3587 C 0.40346 0.01701 0.61114 0.0
C3588 C 0.41821 0.02051 0.63847 0.0
C3589 C 0.4351 0.02124 0.61985 0.0
C3590 C 0.43731 0.01825 0.5739 0.0
C3591 C 0.42262 0.01458 0.54648 0.0
H3592 H 0.44648 0.02404 0.64106 0.0
H3593 H 0.30826 0.99412 0.35827 0.0
H3594 H 0.81406 0.61163 0.12166 0.0
H3595 H 0.78463 0.61028 0.15548 0.0
H3596 H 0.80208 0.64589 0.26054 0.0
H3597 H 0.83141 0.64708 0.22713 0.0
H3598 H 0.78376 0.62301 0.29886 0.0
H3599 H 0.77101 0.65796 0.16939 0.0
H3600 H 0.76828 0.66693 0.09021 0.0
H3601 H 0.73787 0.62016 0.06074 0.0
H3602 H 0.74027 0.61101 0.14 0.0
H3603 H 0.69421 0.64903 0.36686 0.0
H3604 H 0.72389 0.64954 0.33376 0.0
H3605 H 0.71403 0.5988 0.27187 0.0
H3606 H 0.6851 0.59745 0.3082 0.0
H3607 H 0.7278 0.629 0.21195 0.0
H3608 H 0.7402 0.5956 0.34564 0.0
H3609 H 0.74104 0.58966 0.42688 0.0
H3610 H 0.77164 0.63689 0.44912 0.0
H3611 H 0.77081 0.64321 0.36788 0.0
C3612 C 0.81158 0.61938 0.15156 0.0
C3613 C 0.82526 0.62962 0.17106 0.0
C3614 C 0.79461 0.61863 0.17108 0.0
C3615 C 0.7907 0.62817 0.21073 0.0
C3616 C 0.80444 0.63833 0.23018 0.0
C3617 C 0.82134 0.63905 0.21077 0.0
C3618 C 0.77265 0.62726 0.2328 0.0
C3619 C 0.77162 0.6246 0.27956 0.0
C3620 C 0.75644 0.62894 0.20849 0.0
C3621 C 0.75598 0.63372 0.16042 0.0
C3622 C 0.76393 0.64948 0.14589 0.0
C3623 C 0.76234 0.65465 0.10108 0.0
C3624 C 0.7529 0.64412 0.07046 0.0
C3625 C 0.74514 0.62832 0.08452 0.0
C3626 C 0.74657 0.62316 0.1294 0.0
C3627 C 0.69843 0.63781 0.34695 0.0
C3628 C 0.68694 0.6233 0.33986 0.0
C3629 C 0.71543 0.63819 0.32764 0.0
C3630 C 0.72127 0.62429 0.29972 0.0
C3631 C 0.70989 0.60978 0.29282 0.0
C3632 C 0.6932 0.60912 0.31339 0.0
C3633 C 0.73912 0.6249 0.27746 0.0
C3634 C 0.74004 0.62746 0.23087 0.0
C3635 C 0.75521 0.62341 0.30194 0.0
C3636 C 0.75529 0.61997 0.35081 0.0
C3637 C 0.74692 0.60484 0.36791 0.0
C3638 C 0.74747 0.60135 0.41392 0.0
C3639 C 0.75645 0.61285 0.44312 0.0
C3640 C 0.76476 0.62795 0.42641 0.0
C3641 C 0.76426 0.63149 0.3804 0.0
H3642 H 0.75688 0.61011 0.47874 0.0
H3643 H 0.75161 0.64821 0.0358 0.0
H3644 H 0.16569 0.07275 0.92181 0.0
H3645 H 0.16559 0.04362 0.9571 0.0
H3646 H 0.10864 0.04156 0.94291 0.0
H3647 H 0.10879 0.07182 0.91385 0.0
H3648 H 0.11398 0.02789 0.01377 0.0
H3649 H 0.14525 0.01551 0.87548 0.0
H3650 H 0.1689 0.01989 0.82002 0.0
H3651 H 0.20831 0.00938 0.92135 0.0
H3652 H 0.1849 1.00512 0.97745 0.0
H3653 H 0.10734 0.93676 0.07554 0.0
H3654 H 0.10694 0.96529 0.03716 0.0
H3655 H 0.1638 0.96872 0.05169 0.0
H3656 H 0.16418 0.93926 0.0856 0.0
H3657 H 0.15805 0.98134 0.97906 0.0
H3658 H 0.12653 0.99718 0.11845 0.0
H3659 H 0.10264 0.99419 0.17389 0.0
H3660 H 0.0636 0.99697 0.06859 0.0
H3661 H 0.08721 1.00087 0.01273 0.0
C3662 C 0.15318 0.06596 0.92587 0.0
C3663 C 0.13727 0.07448 0.91419 0.0
C3664 C 0.1531 0.04906 0.94567 0.0
C3665 C 0.13713 0.03964 0.95191 0.0
C3666 C 0.12125 0.04815 0.93885 0.0
C3667 C 0.12131 0.06542 0.9213 0.0
C3668 C 0.13676 0.02147 0.97371 0.0
C3669 C 0.12354 0.01771 1.00536 0.0
C3670 C 0.14934 0.00792 0.96458 0.0
C3671 C 0.16334 0.01011 0.93063 0.0
C3672 C 0.15896 0.01417 0.88588 0.0
C3673 C 0.17233 0.01664 0.85437 0.0
C3674 C 0.1901 0.01494 0.86717 0.0
C3675 C 0.19455 0.0107 0.91148 0.0
C3676 C 0.18124 0.00823 0.94311 0.0
C3677 C 0.11972 0.9437 0.0707 0.0
C3678 C 0.13578 0.93577 0.08378 0.0
C3679 C 0.11951 0.96027 0.04916 0.0
C3680 C 0.13529 0.9699 0.0422 0.0
C3681 C 0.15133 0.96191 0.05614 0.0
C3682 C 0.15158 0.94503 0.07594 0.0
C3683 C 0.13536 0.98784 0.01927 0.0
C3684 C 0.1485 0.99155 0.98737 0.0
C3685 C 0.12269 1.00132 0.02798 0.0
C3686 C 0.10859 0.99912 0.06153 0.0
C3687 C 0.11284 0.99713 0.1072 0.0
C3688 C 0.09937 0.99527 0.13866 0.0
C3689 C 0.08165 0.99504 0.12474 0.0
C3690 C 0.07733 0.99706 0.07934 0.0
C3691 C 0.09073 0.99928 0.04783 0.0
H3692 H 0.07126 0.99344 0.14918 0.0
H3693 H 0.20042 0.0169 0.84275 0.0
H3694 H 0.68171 0.37159 0.73257 0.0
H3695 H 0.71153 0.37307 0.76375 0.0
H3696 H 0.73031 0.39599 0.64107 0.0
H3697 H 0.69996 0.39569 0.61008 0.0
H3698 H 0.75113 0.36342 0.68665 0.0
H3699 H 0.73303 0.42404 0.7082 0.0
H3700 H 0.71371 0.44877 0.73102 0.0
H3701 H 0.71142 0.42795 0.86478 0.0
H3702 H 0.73098 0.40323 0.84282 0.0
H3703 H 0.83373 0.40172 0.77953 0.0
H3704 H 0.80472 0.4005 0.7427 0.0
H3705 H 0.78522 0.36809 0.84997 0.0
H3706 H 0.81471 0.36808 0.88497 0.0
H3707 H 0.7653 0.40593 0.8095 0.0
H3708 H 0.78422 0.34487 0.78572 0.0
H3709 H 0.80588 0.3223 0.76231 0.0
H3710 H 0.80704 0.3447 0.63009 0.0
H3711 H 0.78568 0.3677 0.65319 0.0
C3712 C 0.69206 0.37698 0.71173 0.0
C3713 C 0.68817 0.38332 0.66814 0.0
C3714 C 0.70921 0.37779 0.72991 0.0
C3715 C 0.72326 0.38459 0.70492 0.0
C3716 C 0.71971 0.39059 0.66102 0.0
C3717 C 0.70231 0.39021 0.64306 0.0
C3718 C 0.74145 0.38542 0.72557 0.0
C3719 C 0.75426 0.37288 0.71308 0.0
C3720 C 0.7456 0.39743 0.76082 0.0
C3721 C 0.73324 0.41171 0.77375 0.0
C3722 C 0.72825 0.42466 0.74236 0.0
C3723 C 0.71742 0.43875 0.75524 0.0
C3724 C 0.71129 0.4399 0.79929 0.0
C3725 C 0.71613 0.42702 0.83065 0.0
C3726 C 0.72717 0.41302 0.81807 0.0
C3727 C 0.8234 0.39425 0.7953 0.0
C3728 C 0.82677 0.38529 0.83588 0.0
C3729 C 0.80672 0.39358 0.77414 0.0
C3730 C 0.7927 0.38423 0.79345 0.0
C3731 C 0.79581 0.37541 0.83427 0.0
C3732 C 0.81272 0.3756 0.85466 0.0
C3733 C 0.77488 0.38384 0.77089 0.0
C3734 C 0.76215 0.39647 0.78308 0.0
C3735 C 0.77084 0.37192 0.73538 0.0
C3736 C 0.78363 0.35817 0.7214 0.0
C3737 C 0.78931 0.34515 0.75189 0.0
C3738 C 0.80149 0.33225 0.73864 0.0
C3739 C 0.8079 0.33211 0.69479 0.0
C3740 C 0.80211 0.34487 0.66409 0.0
C3741 C 0.78999 0.35785 0.67726 0.0
H3742 H 0.8173 0.32209 0.68455 0.0
H3743 H 0.70278 0.45076 0.80909 0.0
loop_
_geom_bond_atom_site_label_1
_geom_bond_atom_site_label_2
_geom_bond_distance
_geom_bond_site_symmetry_2
_ccdc_geom_bond_type
C0 C2 1.422 . S
C0 C4 1.415 . S
C0 N6 1.369 . S
C1 C2 1.421 . S
C1 C3 1.417 . S
C1 C13 1.422 . S
C2 C0 1.422 . S
C2 C1 1.421 . S
C2 N12 1.359 . S
C3 C1 1.417 . S
C3 C5 1.329 . S
C3 H22 0.930 . S
C4 C0 1.415 . S
C4 C5 1.437 . S
C4 C8 1.413 . S
C5 C3 1.329 . S
C5 C4 1.437 . S
C5 H27 0.929 . S
N6 C0 1.369 . S
N6 C7 1.338 . S
N6 Gd11 2.622 . S
C7 N6 1.338 . S
C7 C9 1.378 . S
C7 H19 0.929 . S
C8 C4 1.413 . S
C8 C9 1.348 . S
C8 H24 0.931 . S
C9 C7 1.378 . S
C9 C8 1.348 . S
C9 H25 0.930 . S
Gd10 N30 2.622 . S
Gd10 N37 2.570 . S
Gd10 O44 2.353 . S
Gd10 O45 2.468 1_554 S
Gd10 O46 2.427 1_554 S
Gd10 O48 2.388 . S
Gd10 O49 2.386 . S
Gd10 O53 2.307 . S
Gd10 C63 2.805 1_554 S
Gd11 N6 2.622 . S
Gd11 N12 2.570 . S
Gd11 O43 2.386 . S
Gd11 O47 2.307 . S
Gd11 O50 2.353 . S
Gd11 O51 2.468 . S
Gd11 O52 2.427 . S
Gd11 O54 2.388 . S
Gd11 C75 2.805 . S
N12 C2 1.359 . S
N12 Gd11 2.570 . S
N12 C14 1.343 . S
C13 C1 1.422 . S
C13 C15 1.321 . S
C13 H21 0.931 . S
C14 N12 1.343 . S
C14 C15 1.390 . S
C14 H16 0.931 . S
C15 C13 1.321 . S
C15 C14 1.390 . S
C15 H17 0.930 . S
H16 C14 0.931 . S
H17 C15 0.930 . S
H18 C41 0.931 . S
H19 C7 0.929 . S
H20 C42 0.930 . S
H21 C13 0.931 . S
H22 C3 0.930 . S
H23 C32 0.929 . S
H24 C8 0.931 . S
H25 C9 0.930 . S
H26 C64 0.930 1_556 S
H27 C5 0.929 . S
H28 C33 0.931 . S
H29 C34 0.930 . S
N30 Gd10 2.622 . S
N30 C31 1.369 . S
N30 C32 1.338 . S
C31 N30 1.369 . S
C31 C35 1.415 . S
C31 C38 1.422 . S
C32 H23 0.929 . S
C32 N30 1.338 . S
C32 C34 1.378 . S
C33 H28 0.931 . S
C33 C34 1.348 . S
C33 C35 1.413 . S
C34 H29 0.930 . S
C34 C32 1.378 . S
C34 C33 1.348 . S
C35 C31 1.415 . S
C35 C33 1.413 . S
C35 C65 1.437 . S
H36 C65 0.929 . S
N37 Gd10 2.570 . S
N37 C38 1.359 . S
N37 C41 1.343 . S
C38 C31 1.422 . S
C38 N37 1.359 . S
C38 C40 1.421 . S
C39 C40 1.422 . S
C39 C42 1.321 . S
C39 H66 0.931 1_554 S
C40 C38 1.421 . S
C40 C39 1.422 . S
C40 C64 1.417 . S
C41 H18 0.931 . S
C41 N37 1.343 . S
C41 C42 1.390 . S
C42 H20 0.930 . S
C42 C39 1.321 . S
C42 C41 1.390 . S
O43 Gd11 2.386 . S
O43 C55 1.265 . S
O44 Gd10 2.353 . S
O44 C55 1.242 . S
O45 Gd10 2.468 1_556 S
O45 C63 1.263 . S
O46 Gd10 2.427 1_556 S
O46 C63 1.252 . S
O47 Gd11 2.307 . S
O47 C56 1.261 . S
O48 Gd10 2.388 . S
O48 C56 1.252 . S
O49 Gd10 2.386 . S
O49 C67 1.265 . S
O50 Gd11 2.353 . S
O50 C67 1.242 . S
O51 Gd11 2.468 . S
O51 C75 1.263 . S
O52 Gd11 2.427 . S
O52 C75 1.252 . S
O53 Gd10 2.307 . S
O53 C68 1.261 . S
O54 Gd11 2.388 . S
O54 C68 1.252 . S
C55 O43 1.265 . S
C55 O44 1.242 . S
C56 O47 1.261 . S
C56 O48 1.252 . S
C57 C60 1.394 . S
C57 C62 1.370 . S
C57 C63 1.500 . S
C58 C61 1.383 . S
C58 C62 1.395 . S
C59 C60 1.396 . S
C59 C61 1.365 . S
C59 H76 0.929 . S
C60 C57 1.394 . S
C60 C59 1.396 . S
C60 H77 0.930 . S
C61 C58 1.383 . S
C61 C59 1.365 . S
C61 H78 0.931 . S
C62 C57 1.370 . S
C62 C58 1.395 . S
C62 H79 0.930 . S
C63 Gd10 2.805 1_556 S
C63 O45 1.263 . S
C63 O46 1.252 . S
C63 C57 1.500 . S
C64 H26 0.930 1_554 S
C64 C40 1.417 . S
C64 C65 1.329 . S
C65 C35 1.437 . S
C65 H36 0.929 . S
C65 C64 1.329 . S
H66 C39 0.931 1_556 S
C67 O49 1.265 . S
C67 O50 1.242 . S
C68 O53 1.261 . S
C68 O54 1.252 . S
C69 C72 1.394 . S
C69 C74 1.370 . S
C69 C75 1.500 . S
C70 C73 1.383 . S
C70 C74 1.395 . S
C71 C72 1.396 . S
C71 C73 1.365 . S
C71 H80 0.929 . S
C72 C69 1.394 . S
C72 C71 1.396 . S
C72 H81 0.930 . S
C73 C70 1.383 . S
C73 C71 1.365 . S
C73 H82 0.931 . S
C74 C69 1.370 . S
C74 C70 1.395 . S
C74 H83 0.930 . S
C75 Gd11 2.805 . S
C75 O51 1.263 . S
C75 O52 1.252 . S
C75 C69 1.500 . S
H76 C59 0.929 . S
H77 C60 0.930 . S
H78 C61 0.931 . S
H79 C62 0.930 . S
H80 C71 0.929 . S
H81 C72 0.930 . S
H82 C73 0.931 . S
H83 C74 0.930 . S
C84 C86 1.422 . S
C84 C88 1.415 . S
C84 N90 1.369 . S
C85 C86 1.421 . S
C85 C87 1.417 . S
C85 C97 1.422 . S
C86 C84 1.422 . S
C86 C85 1.421 . S
C86 N96 1.359 . S
C87 C85 1.417 . S
C87 C89 1.329 . S
C87 H106 0.930 . S
C88 C84 1.415 . S
C88 C89 1.437 . S
C88 C92 1.413 . S
C89 C87 1.329 . S
C89 C88 1.437 . S
C89 H111 0.929 . S
N90 C84 1.369 . S
N90 C91 1.338 . S
N90 Gd95 2.622 . S
C91 N90 1.338 . S
C91 C93 1.378 . S
C91 H103 0.929 . S
C92 C88 1.413 . S
C92 C93 1.348 . S
C92 H108 0.931 . S
C93 C91 1.378 . S
C93 C92 1.348 . S
C93 H109 0.930 . S
Gd94 N114 2.622 . S
Gd94 N121 2.570 . S
Gd94 O128 2.353 . S
Gd94 O129 2.468 . S
Gd94 O130 2.427 . S
Gd94 O132 2.388 . S
Gd94 O133 2.386 . S
Gd94 O137 2.307 . S
Gd94 C147 2.805 . S
Gd95 N90 2.622 . S
Gd95 N96 2.570 . S
Gd95 O127 2.386 . S
Gd95 O131 2.307 . S
Gd95 O134 2.353 . S
Gd95 O135 2.468 . S
Gd95 O136 2.427 . S
Gd95 O138 2.388 . S
Gd95 C159 2.805 . S
N96 C86 1.359 . S
N96 Gd95 2.570 . S
N96 C98 1.343 . S
C97 C85 1.422 . S
C97 C99 1.321 . S
C97 H105 0.931 . S
C98 N96 1.343 . S
C98 C99 1.390 . S
C98 H100 0.931 . S
C99 C97 1.321 . S
C99 C98 1.390 . S
C99 H101 0.930 . S
H100 C98 0.931 . S
H101 C99 0.930 . S
H102 C125 0.931 . S
H103 C91 0.929 . S
H104 C126 0.930 . S
H105 C97 0.931 . S
H106 C87 0.930 . S
H107 C116 0.929 . S
H108 C92 0.931 . S
H109 C93 0.930 . S
H110 C148 0.930 . S
H111 C89 0.929 . S
H112 C117 0.931 . S
H113 C118 0.930 . S
N114 Gd94 2.622 . S
N114 C115 1.369 . S
N114 C116 1.338 . S
C115 N114 1.369 . S
C115 C119 1.415 . S
C115 C122 1.422 . S
C116 H107 0.929 . S
C116 N114 1.338 . S
C116 C118 1.378 . S
C117 H112 0.931 . S
C117 C118 1.348 . S
C117 C119 1.413 . S
C118 H113 0.930 . S
C118 C116 1.378 . S
C118 C117 1.348 . S
C119 C115 1.415 . S
C119 C117 1.413 . S
C119 C149 1.437 . S
H120 C149 0.929 . S
N121 Gd94 2.570 . S
N121 C122 1.359 . S
N121 C125 1.343 . S
C122 C115 1.422 . S
C122 N121 1.359 . S
C122 C124 1.421 . S
C123 C124 1.422 . S
C123 C126 1.321 . S
C123 H150 0.931 . S
C124 C122 1.421 . S
C124 C123 1.422 . S
C124 C148 1.417 . S
C125 H102 0.931 . S
C125 N121 1.343 . S
C125 C126 1.390 . S
C126 H104 0.930 . S
C126 C123 1.321 . S
C126 C125 1.390 . S
O127 Gd95 2.386 . S
O127 C139 1.265 . S
O128 Gd94 2.353 . S
O128 C139 1.242 . S
O129 Gd94 2.468 . S
O129 C147 1.263 . S
O130 Gd94 2.427 . S
O130 C147 1.252 . S
O131 Gd95 2.307 . S
O131 C140 1.261 . S
O132 Gd94 2.388 . S
O132 C140 1.252 . S
O133 Gd94 2.386 . S
O133 C151 1.265 . S
O134 Gd95 2.353 . S
O134 C151 1.242 . S
O135 Gd95 2.468 . S
O135 C159 1.263 . S
O136 Gd95 2.427 . S
O136 C159 1.252 . S
O137 Gd94 2.307 . S
O137 C152 1.261 . S
O138 Gd95 2.388 . S
O138 C152 1.252 . S
C139 O127 1.265 . S
C139 O128 1.242 . S
C140 O131 1.261 . S
C140 O132 1.252 . S
C141 C144 1.394 . S
C141 C146 1.370 . S
C141 C147 1.500 . S
C142 C145 1.383 . S
C142 C146 1.395 . S
C143 C144 1.396 . S
C143 C145 1.365 . S
C143 H160 0.929 . S
C144 C141 1.394 . S
C144 C143 1.396 . S
C144 H161 0.930 . S
C145 C142 1.383 . S
C145 C143 1.365 . S
C145 H162 0.931 . S
C146 C141 1.370 . S
C146 C142 1.395 . S
C146 H163 0.930 . S
C147 Gd94 2.805 . S
C147 O129 1.263 . S
C147 O130 1.252 . S
C147 C141 1.500 . S
C148 H110 0.930 . S
C148 C124 1.417 . S
C148 C149 1.329 . S
C149 C119 1.437 . S
C149 H120 0.929 . S
C149 C148 1.329 . S
H150 C123 0.931 . S
C151 O133 1.265 . S
C151 O134 1.242 . S
C152 O137 1.261 . S
C152 O138 1.252 . S
C153 C156 1.394 . S
C153 C158 1.370 . S
C153 C159 1.500 . S
C154 C157 1.383 . S
C154 C158 1.395 . S
C155 C156 1.396 . S
C155 C157 1.365 . S
C155 H164 0.929 . S
C156 C153 1.394 . S
C156 C155 1.396 . S
C156 H165 0.930 . S
C157 C154 1.383 . S
C157 C155 1.365 . S
C157 H166 0.931 . S
C158 C153 1.370 . S
C158 C154 1.395 . S
C158 H167 0.930 . S
C159 Gd95 2.805 . S
C159 O135 1.263 . S
C159 O136 1.252 . S
C159 C153 1.500 . S
H160 C143 0.929 . S
H161 C144 0.930 . S
H162 C145 0.931 . S
H163 C146 0.930 . S
H164 C155 0.929 . S
H165 C156 0.930 . S
H166 C157 0.931 . S
H167 C158 0.930 . S
C168 C170 1.422 . S
C168 C172 1.415 . S
C168 N174 1.369 . S
C169 C170 1.421 . S
C169 C171 1.417 . S
C169 C181 1.422 . S
C170 C168 1.422 . S
C170 C169 1.421 . S
C170 N180 1.359 . S
C171 C169 1.417 . S
C171 C173 1.329 . S
C171 H190 0.930 . S
C172 C168 1.415 . S
C172 C173 1.437 . S
C172 C176 1.413 . S
C173 C171 1.329 . S
C173 C172 1.437 . S
C173 H195 0.929 . S
N174 C168 1.369 . S
N174 C175 1.338 . S
N174 Gd179 2.622 . S
C175 N174 1.338 . S
C175 C177 1.378 . S
C175 H187 0.929 . S
C176 C172 1.413 . S
C176 C177 1.348 . S
C176 H192 0.931 . S
C177 C175 1.378 . S
C177 C176 1.348 . S
C177 H193 0.930 . S
Gd178 N198 2.622 . S
Gd178 N205 2.570 . S
Gd178 O212 2.353 . S
Gd178 O213 2.468 . S
Gd178 O214 2.427 . S
Gd178 O216 2.388 . S
Gd178 O217 2.386 . S
Gd178 O221 2.307 . S
Gd178 C231 2.805 . S
Gd179 N174 2.622 . S
Gd179 N180 2.570 . S
Gd179 O211 2.386 . S
Gd179 O215 2.307 . S
Gd179 O218 2.353 . S
Gd179 O219 2.468 . S
Gd179 O220 2.427 . S
Gd179 O222 2.388 . S
Gd179 C243 2.805 . S
N180 C170 1.359 . S
N180 Gd179 2.570 . S
N180 C182 1.343 . S
C181 C169 1.422 . S
C181 C183 1.321 . S
C181 H189 0.931 . S
C182 N180 1.343 . S
C182 C183 1.390 . S
C182 H184 0.931 . S
C183 C181 1.321 . S
C183 C182 1.390 . S
C183 H185 0.930 . S
H184 C182 0.931 . S
H185 C183 0.930 . S
H186 C209 0.931 . S
H187 C175 0.929 . S
H188 C210 0.930 . S
H189 C181 0.931 . S
H190 C171 0.930 . S
H191 C200 0.929 . S
H192 C176 0.931 . S
H193 C177 0.930 . S
H194 C232 0.930 . S
H195 C173 0.929 . S
H196 C201 0.931 . S
H197 C202 0.930 . S
N198 Gd178 2.622 . S
N198 C199 1.369 . S
N198 C200 1.338 . S
C199 N198 1.369 . S
C199 C203 1.415 . S
C199 C206 1.422 . S
C200 H191 0.929 . S
C200 N198 1.338 . S
C200 C202 1.378 . S
C201 H196 0.931 . S
C201 C202 1.348 . S
C201 C203 1.413 . S
C202 H197 0.930 . S
C202 C200 1.378 . S
C202 C201 1.348 . S
C203 C199 1.415 . S
C203 C201 1.413 . S
C203 C233 1.437 . S
H204 C233 0.929 . S
N205 Gd178 2.570 . S
N205 C206 1.359 . S
N205 C209 1.343 . S
C206 C199 1.422 . S
C206 N205 1.359 . S
C206 C208 1.421 . S
C207 C208 1.422 . S
C207 C210 1.321 . S
C207 H234 0.931 . S
C208 C206 1.421 . S
C208 C207 1.422 . S
C208 C232 1.417 . S
C209 H186 0.931 . S
C209 N205 1.343 . S
C209 C210 1.390 . S
C210 H188 0.930 . S
C210 C207 1.321 . S
C210 C209 1.390 . S
O211 Gd179 2.386 . S
O211 C223 1.265 . S
O212 Gd178 2.353 . S
O212 C223 1.242 . S
O213 Gd178 2.468 . S
O213 C231 1.263 . S
O214 Gd178 2.427 . S
O214 C231 1.252 . S
O215 Gd179 2.307 . S
O215 C224 1.261 . S
O216 Gd178 2.388 . S
O216 C224 1.252 . S
O217 Gd178 2.386 . S
O217 C235 1.265 . S
O218 Gd179 2.353 . S
O218 C235 1.242 . S
O219 Gd179 2.468 . S
O219 C243 1.263 . S
O220 Gd179 2.427 . S
O220 C243 1.252 . S
O221 Gd178 2.307 . S
O221 C236 1.261 . S
O222 Gd179 2.388 . S
O222 C236 1.252 . S
C223 O211 1.265 . S
C223 O212 1.242 . S
C224 O215 1.261 . S
C224 O216 1.252 . S
C225 C228 1.394 . S
C225 C230 1.370 . S
C225 C231 1.500 . S
C226 C229 1.383 . S
C226 C230 1.395 . S
C227 C228 1.396 . S
C227 C229 1.365 . S
C227 H244 0.929 . S
C228 C225 1.394 . S
C228 C227 1.396 . S
C228 H245 0.930 . S
C229 C226 1.383 . S
C229 C227 1.365 . S
C229 H246 0.931 . S
C230 C225 1.370 . S
C230 C226 1.395 . S
C230 H247 0.930 . S
C231 Gd178 2.805 . S
C231 O213 1.263 . S
C231 O214 1.252 . S
C231 C225 1.500 . S
C232 H194 0.930 . S
C232 C208 1.417 . S
C232 C233 1.329 . S
C233 C203 1.437 . S
C233 H204 0.929 . S
C233 C232 1.329 . S
H234 C207 0.931 . S
C235 O217 1.265 . S
C235 O218 1.242 . S
C236 O221 1.261 . S
C236 O222 1.252 . S
C237 C240 1.394 . S
C237 C242 1.370 . S
C237 C243 1.500 . S
C238 C241 1.383 . S
C238 C242 1.395 . S
C239 C240 1.396 . S
C239 C241 1.365 . S
C239 H248 0.929 . S
C240 C237 1.394 . S
C240 C239 1.396 . S
C240 H249 0.930 . S
C241 C238 1.383 . S
C241 C239 1.365 . S
C241 H250 0.931 . S
C242 C237 1.370 . S
C242 C238 1.395 . S
C242 H251 0.930 . S
C243 Gd179 2.805 . S
C243 O219 1.263 . S
C243 O220 1.252 . S
C243 C237 1.500 . S
H244 C227 0.929 . S
H245 C228 0.930 . S
H246 C229 0.931 . S
H247 C230 0.930 . S
H248 C239 0.929 . S
H249 C240 0.930 . S
H250 C241 0.931 . S
H251 C242 0.930 . S
C252 C254 1.422 . S
C252 C256 1.415 . S
C252 N258 1.369 . S
C253 C254 1.421 . S
C253 C255 1.417 . S
C253 C265 1.422 . S
C254 C252 1.422 . S
C254 C253 1.421 . S
C254 N264 1.359 . S
C255 C253 1.417 . S
C255 C257 1.329 . S
C255 H274 0.930 . S
C256 C252 1.415 . S
C256 C257 1.437 . S
C256 C260 1.413 . S
C257 C255 1.329 . S
C257 C256 1.437 . S
C257 H279 0.929 . S
N258 C252 1.369 . S
N258 C259 1.338 . S
N258 Gd263 2.622 . S
C259 N258 1.338 . S
C259 C261 1.378 . S
C259 H271 0.929 . S
C260 C256 1.413 . S
C260 C261 1.348 . S
C260 H276 0.931 . S
C261 C259 1.378 . S
C261 C260 1.348 . S
C261 H277 0.930 . S
Gd262 N282 2.622 . S
Gd262 N289 2.570 . S
Gd262 O296 2.353 . S
Gd262 O297 2.468 1_556 S
Gd262 O298 2.427 1_556 S
Gd262 O300 2.388 . S
Gd262 O301 2.386 . S
Gd262 O305 2.307 . S
Gd262 C315 2.805 1_556 S
Gd263 N258 2.622 . S
Gd263 N264 2.570 . S
Gd263 O295 2.386 . S
Gd263 O299 2.307 . S
Gd263 O302 2.353 . S
Gd263 O303 2.468 . S
Gd263 O304 2.427 . S
Gd263 O306 2.388 . S
Gd263 C327 2.805 . S
N264 C254 1.359 . S
N264 Gd263 2.570 . S
N264 C266 1.343 . S
C265 C253 1.422 . S
C265 C267 1.321 . S
C265 H273 0.931 . S
C266 N264 1.343 . S
C266 C267 1.390 . S
C266 H268 0.931 . S
C267 C265 1.321 . S
C267 C266 1.390 . S
C267 H269 0.930 . S
H268 C266 0.931 . S
H269 C267 0.930 . S
H270 C293 0.931 . S
H271 C259 0.929 . S
H272 C294 0.930 . S
H273 C265 0.931 . S
H274 C255 0.930 . S
H275 C284 0.929 . S
H276 C260 0.931 . S
H277 C261 0.930 . S
H278 C316 0.930 1_554 S
H279 C257 0.929 . S
H280 C285 0.931 . S
H281 C286 0.930 . S
N282 Gd262 2.622 . S
N282 C283 1.369 . S
N282 C284 1.338 . S
C283 N282 1.369 . S
C283 C287 1.415 . S
C283 C290 1.422 . S
C284 H275 0.929 . S
C284 N282 1.338 . S
C284 C286 1.378 . S
C285 H280 0.931 . S
C285 C286 1.348 . S
C285 C287 1.413 . S
C286 H281 0.930 . S
C286 C284 1.378 . S
C286 C285 1.348 . S
C287 C283 1.415 . S
C287 C285 1.413 . S
C287 C317 1.437 . S
H288 C317 0.929 . S
N289 Gd262 2.570 . S
N289 C290 1.359 . S
N289 C293 1.343 . S
C290 C283 1.422 . S
C290 N289 1.359 . S
C290 C292 1.421 . S
C291 C292 1.423 . S
C291 C294 1.322 . S
C291 H318 0.930 1_556 S
C292 C290 1.421 . S
C292 C291 1.423 . S
C292 C316 1.417 . S
C293 H270 0.931 . S
C293 N289 1.343 . S
C293 C294 1.390 . S
C294 H272 0.930 . S
C294 C291 1.322 . S
C294 C293 1.390 . S
O295 Gd263 2.386 . S
O295 C307 1.265 . S
O296 Gd262 2.353 . S
O296 C307 1.242 . S
O297 Gd262 2.468 1_554 S
O297 C315 1.263 . S
O298 Gd262 2.427 1_554 S
O298 C315 1.252 . S
O299 Gd263 2.307 . S
O299 C308 1.261 . S
O300 Gd262 2.388 . S
O300 C308 1.252 . S
O301 Gd262 2.386 . S
O301 C319 1.265 . S
O302 Gd263 2.353 . S
O302 C319 1.242 . S
O303 Gd263 2.468 . S
O303 C327 1.263 . S
O304 Gd263 2.427 . S
O304 C327 1.252 . S
O305 Gd262 2.307 . S
O305 C320 1.261 . S
O306 Gd263 2.388 . S
O306 C320 1.252 . S
C307 O295 1.265 . S
C307 O296 1.242 . S
C308 O299 1.261 . S
C308 O300 1.252 . S
C309 C312 1.394 . S
C309 C314 1.370 . S
C309 C315 1.500 . S
C310 C313 1.383 . S
C310 C314 1.395 . S
C311 C312 1.396 . S
C311 C313 1.365 . S
C311 H328 0.929 . S
C312 C309 1.394 . S
C312 C311 1.396 . S
C312 H329 0.930 . S
C313 C310 1.383 . S
C313 C311 1.365 . S
C313 H330 0.931 . S
C314 C309 1.370 . S
C314 C310 1.395 . S
C314 H331 0.930 . S
C315 Gd262 2.805 1_554 S
C315 O297 1.263 . S
C315 O298 1.252 . S
C315 C309 1.500 . S
C316 H278 0.930 1_556 S
C316 C292 1.417 . S
C316 C317 1.329 . S
C317 C287 1.437 . S
C317 H288 0.929 . S
C317 C316 1.329 . S
H318 C291 0.930 1_554 S
C319 O301 1.265 . S
C319 O302 1.242 . S
C320 O305 1.261 . S
C320 O306 1.252 . S
C321 C324 1.394 . S
C321 C326 1.370 . S
C321 C327 1.500 . S
C322 C325 1.383 . S
C322 C326 1.395 . S
C323 C324 1.396 . S
C323 C325 1.365 . S
C323 H332 0.929 . S
C324 C321 1.394 . S
C324 C323 1.396 . S
C324 H333 0.930 . S
C325 C322 1.383 . S
C325 C323 1.365 . S
C325 H334 0.931 . S
C326 C321 1.370 . S
C326 C322 1.395 . S
C326 H335 0.930 . S
C327 Gd263 2.805 . S
C327 O303 1.263 . S
C327 O304 1.252 . S
C327 C321 1.500 . S
H328 C311 0.929 . S
H329 C312 0.930 . S
H330 C313 0.931 . S
H331 C314 0.930 . S
H332 C323 0.929 . S
H333 C324 0.930 . S
H334 C325 0.931 . S
H335 C326 0.930 . S
C336 C338 1.422 . S
C336 C340 1.415 . S
C336 N342 1.369 . S
C337 C338 1.421 . S
C337 C339 1.417 . S
C337 C349 1.422 . S
C338 C336 1.422 . S
C338 C337 1.421 . S
C338 N348 1.359 . S
C339 C337 1.417 . S
C339 C341 1.329 . S
C339 H358 0.930 1_556 S
C340 C336 1.415 . S
C340 C341 1.437 . S
C340 C344 1.413 . S
C341 C339 1.329 . S
C341 C340 1.437 . S
C341 H363 0.929 . S
N342 C336 1.369 . S
N342 C343 1.338 . S
N342 Gd347 2.622 . S
C343 N342 1.338 . S
C343 C345 1.378 . S
C343 H355 0.929 . S
C344 C340 1.413 . S
C344 C345 1.348 . S
C344 H360 0.931 . S
C345 C343 1.378 . S
C345 C344 1.348 . S
C345 H361 0.930 . S
Gd346 N366 2.622 . S
Gd346 N373 2.570 . S
Gd346 O380 2.353 . S
Gd346 O381 2.468 . S
Gd346 O382 2.427 . S
Gd346 O384 2.388 . S
Gd346 O385 2.386 . S
Gd346 O389 2.307 . S
Gd346 C399 2.805 . S
Gd347 N342 2.622 . S
Gd347 N348 2.570 . S
Gd347 O379 2.386 . S
Gd347 O383 2.307 . S
Gd347 O386 2.353 . S
Gd347 O387 2.468 1_556 S
Gd347 O388 2.427 1_556 S
Gd347 O390 2.388 . S
Gd347 C411 2.805 1_556 S
N348 C338 1.359 . S
N348 Gd347 2.570 . S
N348 C350 1.343 . S
C349 C337 1.422 . S
C349 C351 1.321 . S
C349 H357 0.931 1_556 S
C350 N348 1.343 . S
C350 C351 1.390 . S
C350 H352 0.931 . S
C351 C349 1.321 . S
C351 C350 1.390 . S
C351 H353 0.930 . S
H352 C350 0.931 . S
H353 C351 0.930 . S
H354 C377 0.931 . S
H355 C343 0.929 . S
H356 C378 0.930 . S
H357 C349 0.931 1_554 S
H358 C339 0.930 1_554 S
H359 C368 0.929 . S
H360 C344 0.931 . S
H361 C345 0.930 . S
H362 C400 0.930 . S
H363 C341 0.929 . S
H364 C369 0.931 . S
H365 C370 0.930 . S
N366 Gd346 2.622 . S
N366 C367 1.369 . S
N366 C368 1.338 . S
C367 N366 1.369 . S
C367 C371 1.415 . S
C367 C374 1.422 . S
C368 H359 0.929 . S
C368 N366 1.338 . S
C368 C370 1.378 . S
C369 H364 0.931 . S
C369 C370 1.348 . S
C369 C371 1.413 . S
C370 H365 0.930 . S
C370 C368 1.378 . S
C370 C369 1.348 . S
C371 C367 1.415 . S
C371 C369 1.413 . S
C371 C401 1.437 . S
H372 C401 0.929 . S
N373 Gd346 2.570 . S
N373 C374 1.359 . S
N373 C377 1.343 . S
C374 C367 1.422 . S
C374 N373 1.359 . S
C374 C376 1.421 . S
C375 C376 1.422 . S
C375 C378 1.321 . S
C375 H402 0.931 . S
C376 C374 1.421 . S
C376 C375 1.422 . S
C376 C400 1.417 . S
C377 H354 0.931 . S
C377 N373 1.343 . S
C377 C378 1.390 . S
C378 H356 0.930 . S
C378 C375 1.321 . S
C378 C377 1.390 . S
O379 Gd347 2.386 . S
O379 C391 1.265 . S
O380 Gd346 2.353 . S
O380 C391 1.242 . S
O381 Gd346 2.468 . S
O381 C399 1.263 . S
O382 Gd346 2.427 . S
O382 C399 1.252 . S
O383 Gd347 2.307 . S
O383 C392 1.261 . S
O384 Gd346 2.388 . S
O384 C392 1.252 . S
O385 Gd346 2.386 . S
O385 C403 1.265 . S
O386 Gd347 2.353 . S
O386 C403 1.242 . S
O387 Gd347 2.468 1_554 S
O387 C411 1.263 . S
O388 Gd347 2.427 1_554 S
O388 C411 1.252 . S
O389 Gd346 2.307 . S
O389 C404 1.261 . S
O390 Gd347 2.388 . S
O390 C404 1.252 . S
C391 O379 1.265 . S
C391 O380 1.242 . S
C392 O383 1.261 . S
C392 O384 1.252 . S
C393 C396 1.394 . S
C393 C398 1.370 . S
C393 C399 1.500 . S
C394 C397 1.383 . S
C394 C398 1.395 . S
C395 C396 1.396 . S
C395 C397 1.365 . S
C395 H412 0.929 . S
C396 C393 1.394 . S
C396 C395 1.396 . S
C396 H413 0.930 . S
C397 C394 1.383 . S
C397 C395 1.365 . S
C397 H414 0.931 . S
C398 C393 1.370 . S
C398 C394 1.395 . S
C398 H415 0.930 . S
C399 Gd346 2.805 . S
C399 O381 1.263 . S
C399 O382 1.252 . S
C399 C393 1.500 . S
C400 H362 0.930 . S
C400 C376 1.417 . S
C400 C401 1.329 . S
C401 C371 1.437 . S
C401 H372 0.929 . S
C401 C400 1.329 . S
H402 C375 0.931 . S
C403 O385 1.265 . S
C403 O386 1.242 . S
C404 O389 1.261 . S
C404 O390 1.252 . S
C405 C408 1.394 . S
C405 C410 1.370 . S
C405 C411 1.500 . S
C406 C409 1.383 . S
C406 C410 1.395 . S
C407 C408 1.396 . S
C407 C409 1.365 . S
C407 H416 0.929 . S
C408 C405 1.394 . S
C408 C407 1.396 . S
C408 H417 0.930 . S
C409 C406 1.383 . S
C409 C407 1.365 . S
C409 H418 0.931 . S
C410 C405 1.370 . S
C410 C406 1.395 . S
C410 H419 0.930 . S
C411 Gd347 2.805 1_554 S
C411 O387 1.263 . S
C411 O388 1.252 . S
C411 C405 1.500 . S
H412 C395 0.929 . S
H413 C396 0.930 . S
H414 C397 0.931 . S
H415 C398 0.930 . S
H416 C407 0.929 . S
H417 C408 0.930 . S
H418 C409 0.931 . S
H419 C410 0.930 . S
C420 C422 1.422 . S
C420 C424 1.415 . S
C420 N426 1.369 . S
C421 C422 1.421 . S
C421 C423 1.417 . S
C421 C433 1.422 . S
C422 C420 1.422 . S
C422 C421 1.421 . S
C422 N432 1.359 . S
C423 C421 1.417 . S
C423 C425 1.329 . S
C423 H442 0.930 1_554 S
C424 C420 1.415 . S
C424 C425 1.437 . S
C424 C428 1.413 . S
C425 C423 1.329 . S
C425 C424 1.437 . S
C425 H447 0.929 . S
N426 C420 1.369 . S
N426 C427 1.338 . S
N426 Gd431 2.622 . S
C427 N426 1.338 . S
C427 C429 1.378 . S
C427 H439 0.929 . S
C428 C424 1.413 . S
C428 C429 1.348 . S
C428 H444 0.931 . S
C429 C427 1.378 . S
C429 C428 1.348 . S
C429 H445 0.930 . S
Gd430 N450 2.622 . S
Gd430 N457 2.570 . S
Gd430 O464 2.353 . S
Gd430 O465 2.468 . S
Gd430 O466 2.427 . S
Gd430 O468 2.388 . S
Gd430 O469 2.386 . S
Gd430 O473 2.307 . S
Gd430 C483 2.805 . S
Gd431 N426 2.622 . S
Gd431 N432 2.570 . S
Gd431 O463 2.386 . S
Gd431 O467 2.307 . S
Gd431 O470 2.353 . S
Gd431 O471 2.468 1_554 S
Gd431 O472 2.427 1_554 S
Gd431 O474 2.388 . S
Gd431 C495 2.805 1_554 S
N432 C422 1.359 . S
N432 Gd431 2.570 . S
N432 C434 1.343 . S
C433 C421 1.422 . S
C433 C435 1.321 . S
C433 H441 0.931 1_554 S
C434 N432 1.343 . S
C434 C435 1.390 . S
C434 H436 0.931 . S
C435 C433 1.321 . S
C435 C434 1.390 . S
C435 H437 0.930 . S
H436 C434 0.931 . S
H437 C435 0.930 . S
H438 C461 0.931 . S
H439 C427 0.929 . S
H440 C462 0.930 . S
H441 C433 0.931 1_556 S
H442 C423 0.930 1_556 S
H443 C452 0.929 . S
H444 C428 0.931 . S
H445 C429 0.930 . S
H446 C484 0.930 . S
H447 C425 0.929 . S
H448 C453 0.931 . S
H449 C454 0.930 . S
N450 Gd430 2.622 . S
N450 C451 1.369 . S
N450 C452 1.338 . S
C451 N450 1.369 . S
C451 C455 1.415 . S
C451 C458 1.422 . S
C452 H443 0.929 . S
C452 N450 1.338 . S
C452 C454 1.378 . S
C453 H448 0.931 . S
C453 C454 1.348 . S
C453 C455 1.413 . S
C454 H449 0.930 . S
C454 C452 1.378 . S
C454 C453 1.348 . S
C455 C451 1.415 . S
C455 C453 1.413 . S
C455 C485 1.437 . S
H456 C485 0.929 . S
N457 Gd430 2.570 . S
N457 C458 1.359 . S
N457 C461 1.343 . S
C458 C451 1.422 . S
C458 N457 1.359 . S
C458 C460 1.421 . S
C459 C460 1.422 . S
C459 C462 1.321 . S
C459 H486 0.931 . S
C460 C458 1.421 . S
C460 C459 1.422 . S
C460 C484 1.417 . S
C461 H438 0.931 . S
C461 N457 1.343 . S
C461 C462 1.390 . S
C462 H440 0.930 . S
C462 C459 1.321 . S
C462 C461 1.390 . S
O463 Gd431 2.386 . S
O463 C475 1.265 . S
O464 Gd430 2.353 . S
O464 C475 1.242 . S
O465 Gd430 2.468 . S
O465 C483 1.263 . S
O466 Gd430 2.427 . S
O466 C483 1.252 . S
O467 Gd431 2.307 . S
O467 C476 1.261 . S
O468 Gd430 2.388 . S
O468 C476 1.252 . S
O469 Gd430 2.386 . S
O469 C487 1.265 . S
O470 Gd431 2.353 . S
O470 C487 1.242 . S
O471 Gd431 2.468 1_556 S
O471 C495 1.263 . S
O472 Gd431 2.427 1_556 S
O472 C495 1.252 . S
O473 Gd430 2.307 . S
O473 C488 1.261 . S
O474 Gd431 2.388 . S
O474 C488 1.252 . S
C475 O463 1.265 . S
C475 O464 1.242 . S
C476 O467 1.261 . S
C476 O468 1.252 . S
C477 C480 1.394 . S
C477 C482 1.370 . S
C477 C483 1.500 . S
C478 C481 1.383 . S
C478 C482 1.395 . S
C479 C480 1.396 . S
C479 C481 1.365 . S
C479 H496 0.929 . S
C480 C477 1.394 . S
C480 C479 1.396 . S
C480 H497 0.930 . S
C481 C478 1.383 . S
C481 C479 1.365 . S
C481 H498 0.931 . S
C482 C477 1.370 . S
C482 C478 1.395 . S
C482 H499 0.930 . S
C483 Gd430 2.805 . S
C483 O465 1.263 . S
C483 O466 1.252 . S
C483 C477 1.500 . S
C484 H446 0.930 . S
C484 C460 1.417 . S
C484 C485 1.329 . S
C485 C455 1.437 . S
C485 H456 0.929 . S
C485 C484 1.329 . S
H486 C459 0.931 . S
C487 O469 1.265 . S
C487 O470 1.242 . S
C488 O473 1.261 . S
C488 O474 1.252 . S
C489 C492 1.394 . S
C489 C494 1.370 . S
C489 C495 1.500 . S
C490 C493 1.383 . S
C490 C494 1.395 . S
C491 C492 1.396 . S
C491 C493 1.365 . S
C491 H500 0.929 . S
C492 C489 1.394 . S
C492 C491 1.396 . S
C492 H501 0.930 . S
C493 C490 1.383 . S
C493 C491 1.365 . S
C493 H502 0.931 . S
C494 C489 1.370 . S
C494 C490 1.395 . S
C494 H503 0.930 . S
C495 Gd431 2.805 1_556 S
C495 O471 1.263 . S
C495 O472 1.252 . S
C495 C489 1.500 . S
H496 C479 0.929 . S
H497 C480 0.930 . S
H498 C481 0.931 . S
H499 C482 0.930 . S
H500 C491 0.929 . S
H501 C492 0.930 . S
H502 C493 0.931 . S
H503 C494 0.930 . S
C504 C506 1.422 . S
C504 C508 1.415 . S
C504 N510 1.369 . S
C505 C506 1.421 . S
C505 C507 1.417 . S
C505 C517 1.422 . S
C506 C504 1.422 . S
C506 C505 1.421 . S
C506 N516 1.359 . S
C507 C505 1.417 . S
C507 C509 1.329 . S
C507 H526 0.930 . S
C508 C504 1.415 . S
C508 C509 1.437 . S
C508 C512 1.413 . S
C509 C507 1.329 . S
C509 C508 1.437 . S
C509 H531 0.929 . S
N510 C504 1.369 . S
N510 C511 1.338 . S
N510 Gd515 2.622 . S
C511 N510 1.338 . S
C511 C513 1.378 . S
C511 H523 0.929 . S
C512 C508 1.413 . S
C512 C513 1.348 . S
C512 H528 0.931 . S
C513 C511 1.378 . S
C513 C512 1.348 . S
C513 H529 0.930 . S
Gd514 N534 2.622 . S
Gd514 N541 2.570 . S
Gd514 O548 2.353 . S
Gd514 O549 2.468 . S
Gd514 O550 2.427 . S
Gd514 O552 2.388 . S
Gd514 O553 2.386 . S
Gd514 O557 2.307 . S
Gd514 C567 2.805 . S
Gd515 N510 2.622 . S
Gd515 N516 2.570 . S
Gd515 O547 2.386 . S
Gd515 O551 2.307 . S
Gd515 O554 2.353 . S
Gd515 O555 2.468 . S
Gd515 O556 2.427 . S
Gd515 O558 2.388 . S
Gd515 C579 2.805 . S
N516 C506 1.359 . S
N516 Gd515 2.570 . S
N516 C518 1.343 . S
C517 C505 1.422 . S
C517 C519 1.321 . S
C517 H525 0.931 . S
C518 N516 1.343 . S
C518 C519 1.390 . S
C518 H520 0.931 . S
C519 C517 1.321 . S
C519 C518 1.390 . S
C519 H521 0.930 . S
H520 C518 0.931 . S
H521 C519 0.930 . S
H522 C545 0.931 . S
H523 C511 0.929 . S
H524 C546 0.930 . S
H525 C517 0.931 . S
H526 C507 0.930 . S
H527 C536 0.929 . S
H528 C512 0.931 . S
H529 C513 0.930 . S
H530 C568 0.930 . S
H531 C509 0.929 . S
H532 C537 0.931 . S
H533 C538 0.930 . S
N534 Gd514 2.622 . S
N534 C535 1.369 . S
N534 C536 1.338 . S
C535 N534 1.369 . S
C535 C539 1.415 . S
C535 C542 1.422 . S
C536 H527 0.929 . S
C536 N534 1.338 . S
C536 C538 1.378 . S
C537 H532 0.931 . S
C537 C538 1.348 . S
C537 C539 1.413 . S
C538 H533 0.930 . S
C538 C536 1.378 . S
C538 C537 1.348 . S
C539 C535 1.415 . S
C539 C537 1.413 . S
C539 C569 1.437 . S
H540 C569 0.929 . S
N541 Gd514 2.570 . S
N541 C542 1.359 . S
N541 C545 1.343 . S
C542 C535 1.422 . S
C542 N541 1.359 . S
C542 C544 1.421 . S
C543 C544 1.422 . S
C543 C546 1.321 . S
C543 H570 0.931 . S
C544 C542 1.421 . S
C544 C543 1.422 . S
C544 C568 1.417 . S
C545 H522 0.931 . S
C545 N541 1.343 . S
C545 C546 1.390 . S
C546 H524 0.930 . S
C546 C543 1.321 . S
C546 C545 1.390 . S
O547 Gd515 2.386 . S
O547 C559 1.265 . S
O548 Gd514 2.353 . S
O548 C559 1.242 . S
O549 Gd514 2.468 . S
O549 C567 1.263 . S
O550 Gd514 2.427 . S
O550 C567 1.252 . S
O551 Gd515 2.307 . S
O551 C560 1.261 . S
O552 Gd514 2.388 . S
O552 C560 1.252 . S
O553 Gd514 2.386 . S
O553 C571 1.265 . S
O554 Gd515 2.353 . S
O554 C571 1.242 . S
O555 Gd515 2.468 . S
O555 C579 1.263 . S
O556 Gd515 2.427 . S
O556 C579 1.252 . S
O557 Gd514 2.307 . S
O557 C572 1.261 . S
O558 Gd515 2.388 . S
O558 C572 1.252 . S
C559 O547 1.265 . S
C559 O548 1.242 . S
C560 O551 1.261 . S
C560 O552 1.252 . S
C561 C564 1.394 . S
C561 C566 1.370 . S
C561 C567 1.500 . S
C562 C565 1.383 . S
C562 C566 1.395 . S
C563 C564 1.396 . S
C563 C565 1.365 . S
C563 H580 0.929 . S
C564 C561 1.394 . S
C564 C563 1.396 . S
C564 H581 0.930 . S
C565 C562 1.383 . S
C565 C563 1.365 . S
C565 H582 0.931 . S
C566 C561 1.370 . S
C566 C562 1.395 . S
C566 H583 0.930 . S
C567 Gd514 2.805 . S
C567 O549 1.263 . S
C567 O550 1.252 . S
C567 C561 1.500 . S
C568 H530 0.930 . S
C568 C544 1.417 . S
C568 C569 1.329 . S
C569 C539 1.437 . S
C569 H540 0.929 . S
C569 C568 1.329 . S
H570 C543 0.931 . S
C571 O553 1.265 . S
C571 O554 1.242 . S
C572 O557 1.261 . S
C572 O558 1.252 . S
C573 C576 1.394 . S
C573 C578 1.370 . S
C573 C579 1.500 . S
C574 C577 1.383 . S
C574 C578 1.395 . S
C575 C576 1.396 . S
C575 C577 1.365 . S
C575 H584 0.929 . S
C576 C573 1.394 . S
C576 C575 1.396 . S
C576 H585 0.930 . S
C577 C574 1.383 . S
C577 C575 1.365 . S
C577 H586 0.931 . S
C578 C573 1.370 . S
C578 C574 1.395 . S
C578 H587 0.930 . S
C579 Gd515 2.805 . S
C579 O555 1.263 . S
C579 O556 1.252 . S
C579 C573 1.500 . S
H580 C563 0.929 . S
H581 C564 0.930 . S
H582 C565 0.931 . S
H583 C566 0.930 . S
H584 C575 0.929 . S
H585 C576 0.930 . S
H586 C577 0.931 . S
H587 C578 0.930 . S
C588 C590 1.422 . S
C588 C592 1.415 . S
C588 N594 1.369 . S
C589 C590 1.421 . S
C589 C591 1.417 . S
C589 C601 1.422 . S
C590 C588 1.422 . S
C590 C589 1.421 . S
C590 N600 1.359 . S
C591 C589 1.417 . S
C591 C593 1.329 . S
C591 H610 0.930 . S
C592 C588 1.415 . S
C592 C593 1.437 . S
C592 C596 1.413 . S
C593 C591 1.329 . S
C593 C592 1.437 . S
C593 H615 0.929 . S
N594 C588 1.369 . S
N594 C595 1.338 . S
N594 Gd599 2.622 . S
C595 N594 1.338 . S
C595 C597 1.378 . S
C595 H607 0.929 . S
C596 C592 1.413 . S
C596 C597 1.348 . S
C596 H612 0.931 . S
C597 C595 1.378 . S
C597 C596 1.348 . S
C597 H613 0.930 . S
Gd598 N618 2.622 . S
Gd598 N625 2.570 . S
Gd598 O632 2.353 . S
Gd598 O633 2.468 . S
Gd598 O634 2.427 . S
Gd598 O636 2.388 . S
Gd598 O637 2.386 . S
Gd598 O641 2.307 . S
Gd598 C651 2.805 . S
Gd599 N594 2.622 . S
Gd599 N600 2.570 . S
Gd599 O631 2.386 . S
Gd599 O635 2.307 . S
Gd599 O638 2.353 . S
Gd599 O639 2.468 . S
Gd599 O640 2.427 . S
Gd599 O642 2.388 . S
Gd599 C663 2.805 . S
N600 C590 1.359 . S
N600 Gd599 2.570 . S
N600 C602 1.343 . S
C601 C589 1.422 . S
C601 C603 1.321 . S
C601 H609 0.931 . S
C602 N600 1.343 . S
C602 C603 1.390 . S
C602 H604 0.931 . S
C603 C601 1.321 . S
C603 C602 1.390 . S
C603 H605 0.930 . S
H604 C602 0.931 . S
H605 C603 0.930 . S
H606 C629 0.931 . S
H607 C595 0.929 . S
H608 C630 0.930 . S
H609 C601 0.931 . S
H610 C591 0.930 . S
H611 C620 0.929 . S
H612 C596 0.931 . S
H613 C597 0.930 . S
H614 C652 0.930 . S
H615 C593 0.929 . S
H616 C621 0.931 . S
H617 C622 0.930 . S
N618 Gd598 2.622 . S
N618 C619 1.369 . S
N618 C620 1.338 . S
C619 N618 1.369 . S
C619 C623 1.415 . S
C619 C626 1.422 . S
C620 H611 0.929 . S
C620 N618 1.338 . S
C620 C622 1.378 . S
C621 H616 0.931 . S
C621 C622 1.348 . S
C621 C623 1.413 . S
C622 H617 0.930 . S
C622 C620 1.378 . S
C622 C621 1.348 . S
C623 C619 1.415 . S
C623 C621 1.413 . S
C623 C653 1.437 . S
H624 C653 0.929 . S
N625 Gd598 2.570 . S
N625 C626 1.359 . S
N625 C629 1.343 . S
C626 C619 1.422 . S
C626 N625 1.359 . S
C626 C628 1.421 . S
C627 C628 1.422 . S
C627 C630 1.321 . S
C627 H654 0.931 . S
C628 C626 1.421 . S
C628 C627 1.422 . S
C628 C652 1.417 . S
C629 H606 0.931 . S
C629 N625 1.343 . S
C629 C630 1.390 . S
C630 H608 0.930 . S
C630 C627 1.321 . S
C630 C629 1.390 . S
O631 Gd599 2.386 . S
O631 C643 1.265 . S
O632 Gd598 2.353 . S
O632 C643 1.242 . S
O633 Gd598 2.468 . S
O633 C651 1.263 . S
O634 Gd598 2.427 . S
O634 C651 1.252 . S
O635 Gd599 2.307 . S
O635 C644 1.261 . S
O636 Gd598 2.388 . S
O636 C644 1.252 . S
O637 Gd598 2.386 . S
O637 C655 1.265 . S
O638 Gd599 2.353 . S
O638 C655 1.242 . S
O639 Gd599 2.468 . S
O639 C663 1.263 . S
O640 Gd599 2.427 . S
O640 C663 1.252 . S
O641 Gd598 2.307 . S
O641 C656 1.261 . S
O642 Gd599 2.388 . S
O642 C656 1.252 . S
C643 O631 1.265 . S
C643 O632 1.242 . S
C644 O635 1.261 . S
C644 O636 1.252 . S
C645 C648 1.394 . S
C645 C650 1.370 . S
C645 C651 1.500 . S
C646 C649 1.383 . S
C646 C650 1.395 . S
C647 C648 1.396 . S
C647 C649 1.365 . S
C647 H664 0.929 . S
C648 C645 1.394 . S
C648 C647 1.396 . S
C648 H665 0.930 . S
C649 C646 1.383 . S
C649 C647 1.365 . S
C649 H666 0.931 . S
C650 C645 1.370 . S
C650 C646 1.395 . S
C650 H667 0.930 . S
C651 Gd598 2.805 . S
C651 O633 1.263 . S
C651 O634 1.252 . S
C651 C645 1.500 . S
C652 H614 0.930 . S
C652 C628 1.417 . S
C652 C653 1.329 . S
C653 C623 1.437 . S
C653 H624 0.929 . S
C653 C652 1.329 . S
H654 C627 0.931 . S
C655 O637 1.265 . S
C655 O638 1.242 . S
C656 O641 1.261 . S
C656 O642 1.252 . S
C657 C660 1.394 . S
C657 C662 1.370 . S
C657 C663 1.500 . S
C658 C661 1.383 . S
C658 C662 1.395 . S
C659 C660 1.396 . S
C659 C661 1.365 . S
C659 H668 0.929 . S
C660 C657 1.394 . S
C660 C659 1.396 . S
C660 H669 0.930 . S
C661 C658 1.383 . S
C661 C659 1.365 . S
C661 H670 0.931 . S
C662 C657 1.370 . S
C662 C658 1.395 . S
C662 H671 0.930 . S
C663 Gd599 2.805 . S
C663 O639 1.263 . S
C663 O640 1.252 . S
C663 C657 1.500 . S
H664 C647 0.929 . S
H665 C648 0.930 . S
H666 C649 0.931 . S
H667 C650 0.930 . S
H668 C659 0.929 . S
H669 C660 0.930 . S
H670 C661 0.931 . S
H671 C662 0.930 . S
C672 C674 1.422 . S
C672 C676 1.415 . S
C672 N678 1.369 . S
C673 C674 1.421 . S
C673 C675 1.417 . S
C673 C685 1.422 . S
C674 C672 1.422 . S
C674 C673 1.421 . S
C674 N684 1.359 . S
C675 C673 1.417 . S
C675 C677 1.329 . S
C675 H694 0.930 . S
C676 C672 1.415 . S
C676 C677 1.437 . S
C676 C680 1.413 . S
C677 C675 1.329 . S
C677 C676 1.437 . S
C677 H699 0.929 . S
N678 C672 1.369 . S
N678 C679 1.338 . S
N678 Gd683 2.622 . S
C679 N678 1.338 . S
C679 C681 1.378 . S
C679 H691 0.929 . S
C680 C676 1.413 . S
C680 C681 1.348 . S
C680 H696 0.931 . S
C681 C679 1.378 . S
C681 C680 1.348 . S
C681 H697 0.930 . S
Gd682 N702 2.622 . S
Gd682 N709 2.570 . S
Gd682 O716 2.353 . S
Gd682 O717 2.468 1_556 S
Gd682 O718 2.427 1_556 S
Gd682 O720 2.388 . S
Gd682 O721 2.386 . S
Gd682 O725 2.307 . S
Gd682 C735 2.805 1_556 S
Gd683 N678 2.622 . S
Gd683 N684 2.570 . S
Gd683 O715 2.386 . S
Gd683 O719 2.307 . S
Gd683 O722 2.353 . S
Gd683 O723 2.468 . S
Gd683 O724 2.427 . S
Gd683 O726 2.388 . S
Gd683 C747 2.805 . S
N684 C674 1.359 . S
N684 Gd683 2.570 . S
N684 C686 1.343 . S
C685 C673 1.422 . S
C685 C687 1.321 . S
C685 H693 0.931 . S
C686 N684 1.343 . S
C686 C687 1.390 . S
C686 H688 0.931 . S
C687 C685 1.321 . S
C687 C686 1.390 . S
C687 H689 0.930 . S
H688 C686 0.931 . S
H689 C687 0.930 . S
H690 C713 0.931 . S
H691 C679 0.929 . S
H692 C714 0.930 . S
H693 C685 0.931 . S
H694 C675 0.930 . S
H695 C704 0.929 . S
H696 C680 0.931 . S
H697 C681 0.930 . S
H698 C736 0.930 1_554 S
H699 C677 0.929 . S
H700 C705 0.931 . S
H701 C706 0.930 . S
N702 Gd682 2.622 . S
N702 C703 1.369 . S
N702 C704 1.338 . S
C703 N702 1.369 . S
C703 C707 1.415 . S
C703 C710 1.422 . S
C704 H695 0.929 . S
C704 N702 1.338 . S
C704 C706 1.378 . S
C705 H700 0.931 . S
C705 C706 1.348 . S
C705 C707 1.413 . S
C706 H701 0.930 . S
C706 C704 1.378 . S
C706 C705 1.348 . S
C707 C703 1.415 . S
C707 C705 1.413 . S
C707 C737 1.437 . S
H708 C737 0.929 . S
N709 Gd682 2.570 . S
N709 C710 1.359 . S
N709 C713 1.343 . S
C710 C703 1.422 . S
C710 N709 1.359 . S
C710 C712 1.421 . S
C711 C712 1.422 . S
C711 C714 1.321 . S
C711 H738 0.931 1_556 S
C712 C710 1.421 . S
C712 C711 1.422 . S
C712 C736 1.417 . S
C713 H690 0.931 . S
C713 N709 1.343 . S
C713 C714 1.390 . S
C714 H692 0.930 . S
C714 C711 1.321 . S
C714 C713 1.390 . S
O715 Gd683 2.386 . S
O715 C727 1.265 . S
O716 Gd682 2.353 . S
O716 C727 1.242 . S
O717 Gd682 2.468 1_554 S
O717 C735 1.263 . S
O718 Gd682 2.427 1_554 S
O718 C735 1.252 . S
O719 Gd683 2.307 . S
O719 C728 1.261 . S
O720 Gd682 2.388 . S
O720 C728 1.252 . S
O721 Gd682 2.386 . S
O721 C739 1.265 . S
O722 Gd683 2.353 . S
O722 C739 1.242 . S
O723 Gd683 2.468 . S
O723 C747 1.263 . S
O724 Gd683 2.427 . S
O724 C747 1.252 . S
O725 Gd682 2.307 . S
O725 C740 1.261 . S
O726 Gd683 2.388 . S
O726 C740 1.252 . S
C727 O715 1.265 . S
C727 O716 1.242 . S
C728 O719 1.261 . S
C728 O720 1.252 . S
C729 C732 1.394 . S
C729 C734 1.370 . S
C729 C735 1.500 . S
C730 C733 1.383 . S
C730 C734 1.395 . S
C731 C732 1.396 . S
C731 C733 1.365 . S
C731 H748 0.929 . S
C732 C729 1.394 . S
C732 C731 1.396 . S
C732 H749 0.930 . S
C733 C730 1.383 . S
C733 C731 1.365 . S
C733 H750 0.931 . S
C734 C729 1.370 . S
C734 C730 1.395 . S
C734 H751 0.930 . S
C735 Gd682 2.805 1_554 S
C735 O717 1.263 . S
C735 O718 1.252 . S
C735 C729 1.500 . S
C736 H698 0.930 1_556 S
C736 C712 1.417 . S
C736 C737 1.329 . S
C737 C707 1.437 . S
C737 H708 0.929 . S
C737 C736 1.329 . S
H738 C711 0.931 1_554 S
C739 O721 1.265 . S
C739 O722 1.242 . S
C740 O725 1.261 . S
C740 O726 1.252 . S
C741 C744 1.394 . S
C741 C746 1.370 . S
C741 C747 1.500 . S
C742 C745 1.383 . S
C742 C746 1.395 . S
C743 C744 1.396 . S
C743 C745 1.365 . S
C743 H752 0.929 . S
C744 C741 1.394 . S
C744 C743 1.396 . S
C744 H753 0.930 . S
C745 C742 1.383 . S
C745 C743 1.365 . S
C745 H754 0.931 . S
C746 C741 1.370 . S
C746 C742 1.395 . S
C746 H755 0.930 . S
C747 Gd683 2.805 . S
C747 O723 1.263 . S
C747 O724 1.252 . S
C747 C741 1.500 . S
H748 C731 0.929 . S
H749 C732 0.930 . S
H750 C733 0.931 . S
H751 C734 0.930 . S
H752 C743 0.929 . S
H753 C744 0.930 . S
H754 C745 0.931 . S
H755 C746 0.930 . S
C756 C758 1.422 . S
C756 C760 1.415 . S
C756 N762 1.369 . S
C757 C758 1.421 . S
C757 C759 1.417 . S
C757 C769 1.422 . S
C758 C756 1.422 . S
C758 C757 1.421 . S
C758 N768 1.359 . S
C759 C757 1.417 . S
C759 C761 1.329 . S
C759 H778 0.930 . S
C760 C756 1.415 . S
C760 C761 1.437 . S
C760 C764 1.413 . S
C761 C759 1.329 . S
C761 C760 1.437 . S
C761 H783 0.929 . S
N762 C756 1.369 . S
N762 C763 1.338 . S
N762 Gd767 2.622 . S
C763 N762 1.338 . S
C763 C765 1.378 . S
C763 H775 0.929 . S
C764 C760 1.413 . S
C764 C765 1.348 . S
C764 H780 0.931 . S
C765 C763 1.378 . S
C765 C764 1.348 . S
C765 H781 0.930 . S
Gd766 N786 2.622 . S
Gd766 N793 2.570 . S
Gd766 O800 2.353 . S
Gd766 O801 2.468 . S
Gd766 O802 2.427 . S
Gd766 O804 2.388 . S
Gd766 O805 2.386 . S
Gd766 O809 2.307 . S
Gd766 C819 2.805 . S
Gd767 N762 2.622 . S
Gd767 N768 2.570 . S
Gd767 O799 2.386 . S
Gd767 O803 2.307 . S
Gd767 O806 2.353 . S
Gd767 O807 2.468 . S
Gd767 O808 2.427 . S
Gd767 O810 2.388 . S
Gd767 C831 2.805 . S
N768 C758 1.359 . S
N768 Gd767 2.570 . S
N768 C770 1.343 . S
C769 C757 1.422 . S
C769 C771 1.321 . S
C769 H777 0.931 . S
C770 N768 1.343 . S
C770 C771 1.390 . S
C770 H772 0.931 . S
C771 C769 1.321 . S
C771 C770 1.390 . S
C771 H773 0.930 . S
H772 C770 0.931 . S
H773 C771 0.930 . S
H774 C797 0.931 . S
H775 C763 0.929 . S
H776 C798 0.930 . S
H777 C769 0.931 . S
H778 C759 0.930 . S
H779 C788 0.929 . S
H780 C764 0.931 . S
H781 C765 0.930 . S
H782 C820 0.930 . S
H783 C761 0.929 . S
H784 C789 0.931 . S
H785 C790 0.930 . S
N786 Gd766 2.622 . S
N786 C787 1.369 . S
N786 C788 1.338 . S
C787 N786 1.369 . S
C787 C791 1.415 . S
C787 C794 1.422 . S
C788 H779 0.929 . S
C788 N786 1.338 . S
C788 C790 1.378 . S
C789 H784 0.931 . S
C789 C790 1.348 . S
C789 C791 1.413 . S
C790 H785 0.930 . S
C790 C788 1.378 . S
C790 C789 1.348 . S
C791 C787 1.415 . S
C791 C789 1.413 . S
C791 C821 1.437 . S
H792 C821 0.929 . S
N793 Gd766 2.570 . S
N793 C794 1.359 . S
N793 C797 1.343 . S
C794 C787 1.422 . S
C794 N793 1.359 . S
C794 C796 1.421 . S
C795 C796 1.422 . S
C795 C798 1.321 . S
C795 H822 0.931 . S
C796 C794 1.421 . S
C796 C795 1.422 . S
C796 C820 1.417 . S
C797 H774 0.931 . S
C797 N793 1.343 . S
C797 C798 1.390 . S
C798 H776 0.930 . S
C798 C795 1.321 . S
C798 C797 1.390 . S
O799 Gd767 2.386 . S
O799 C811 1.265 . S
O800 Gd766 2.353 . S
O800 C811 1.242 . S
O801 Gd766 2.468 . S
O801 C819 1.263 . S
O802 Gd766 2.427 . S
O802 C819 1.252 . S
O803 Gd767 2.307 . S
O803 C812 1.261 . S
O804 Gd766 2.388 . S
O804 C812 1.252 . S
O805 Gd766 2.386 . S
O805 C823 1.265 . S
O806 Gd767 2.353 . S
O806 C823 1.242 . S
O807 Gd767 2.468 . S
O807 C831 1.263 . S
O808 Gd767 2.427 . S
O808 C831 1.252 . S
O809 Gd766 2.307 . S
O809 C824 1.261 . S
O810 Gd767 2.388 . S
O810 C824 1.252 . S
C811 O799 1.265 . S
C811 O800 1.242 . S
C812 O803 1.261 . S
C812 O804 1.252 . S
C813 C816 1.394 . S
C813 C818 1.370 . S
C813 C819 1.500 . S
C814 C817 1.383 . S
C814 C818 1.395 . S
C815 C816 1.396 . S
C815 C817 1.365 . S
C815 H832 0.929 . S
C816 C813 1.394 . S
C816 C815 1.396 . S
C816 H833 0.930 . S
C817 C814 1.383 . S
C817 C815 1.365 . S
C817 H834 0.931 . S
C818 C813 1.370 . S
C818 C814 1.395 . S
C818 H835 0.930 . S
C819 Gd766 2.805 . S
C819 O801 1.263 . S
C819 O802 1.252 . S
C819 C813 1.500 . S
C820 H782 0.930 . S
C820 C796 1.417 . S
C820 C821 1.329 . S
C821 C791 1.437 . S
C821 H792 0.929 . S
C821 C820 1.329 . S
H822 C795 0.931 . S
C823 O805 1.265 . S
C823 O806 1.242 . S
C824 O809 1.261 . S
C824 O810 1.252 . S
C825 C828 1.394 . S
C825 C830 1.370 . S
C825 C831 1.500 . S
C826 C829 1.383 . S
C826 C830 1.395 . S
C827 C828 1.396 . S
C827 C829 1.365 . S
C827 H836 0.929 . S
C828 C825 1.394 . S
C828 C827 1.396 . S
C828 H837 0.930 . S
C829 C826 1.383 . S
C829 C827 1.365 . S
C829 H838 0.931 . S
C830 C825 1.370 . S
C830 C826 1.395 . S
C830 H839 0.930 . S
C831 Gd767 2.805 . S
C831 O807 1.263 . S
C831 O808 1.252 . S
C831 C825 1.500 . S
H832 C815 0.929 . S
H833 C816 0.930 . S
H834 C817 0.931 . S
H835 C818 0.930 . S
H836 C827 0.929 . S
H837 C828 0.930 . S
H838 C829 0.931 . S
H839 C830 0.930 . S
C840 C842 1.422 . S
C840 C844 1.415 . S
C840 N846 1.369 . S
C841 C842 1.421 . S
C841 C843 1.417 . S
C841 C853 1.422 . S
C842 C840 1.422 . S
C842 C841 1.421 . S
C842 N852 1.359 . S
C843 C841 1.417 . S
C843 C845 1.329 . S
C843 H862 0.930 . S
C844 C840 1.415 . S
C844 C845 1.437 . S
C844 C848 1.413 . S
C845 C843 1.329 . S
C845 C844 1.437 . S
C845 H867 0.929 . S
N846 C840 1.369 . S
N846 C847 1.338 . S
N846 Gd851 2.622 . S
C847 N846 1.338 . S
C847 C849 1.378 . S
C847 H859 0.929 . S
C848 C844 1.413 . S
C848 C849 1.348 . S
C848 H864 0.931 . S
C849 C847 1.378 . S
C849 C848 1.348 . S
C849 H865 0.930 . S
Gd850 N870 2.622 . S
Gd850 N877 2.570 . S
Gd850 O884 2.353 . S
Gd850 O885 2.468 . S
Gd850 O886 2.427 . S
Gd850 O888 2.388 . S
Gd850 O889 2.386 . S
Gd850 O893 2.307 . S
Gd850 C903 2.805 . S
Gd851 N846 2.622 . S
Gd851 N852 2.570 . S
Gd851 O883 2.386 . S
Gd851 O887 2.307 . S
Gd851 O890 2.353 . S
Gd851 O891 2.468 . S
Gd851 O892 2.427 . S
Gd851 O894 2.388 . S
Gd851 C915 2.805 . S
N852 C842 1.359 . S
N852 Gd851 2.570 . S
N852 C854 1.343 . S
C853 C841 1.422 . S
C853 C855 1.321 . S
C853 H861 0.931 . S
C854 N852 1.343 . S
C854 C855 1.390 . S
C854 H856 0.931 . S
C855 C853 1.321 . S
C855 C854 1.390 . S
C855 H857 0.930 . S
H856 C854 0.931 . S
H857 C855 0.930 . S
H858 C881 0.931 . S
H859 C847 0.929 . S
H860 C882 0.930 . S
H861 C853 0.931 . S
H862 C843 0.930 . S
H863 C872 0.929 . S
H864 C848 0.931 . S
H865 C849 0.930 . S
H866 C904 0.930 . S
H867 C845 0.929 . S
H868 C873 0.931 . S
H869 C874 0.930 . S
N870 Gd850 2.622 . S
N870 C871 1.369 . S
N870 C872 1.338 . S
C871 N870 1.369 . S
C871 C875 1.415 . S
C871 C878 1.422 . S
C872 H863 0.929 . S
C872 N870 1.338 . S
C872 C874 1.378 . S
C873 H868 0.931 . S
C873 C874 1.348 . S
C873 C875 1.413 . S
C874 H869 0.930 . S
C874 C872 1.378 . S
C874 C873 1.348 . S
C875 C871 1.415 . S
C875 C873 1.413 . S
C875 C905 1.437 . S
H876 C905 0.929 . S
N877 Gd850 2.570 . S
N877 C878 1.359 . S
N877 C881 1.343 . S
C878 C871 1.422 . S
C878 N877 1.359 . S
C878 C880 1.421 . S
C879 C880 1.422 . S
C879 C882 1.321 . S
C879 H906 0.931 . S
C880 C878 1.421 . S
C880 C879 1.422 . S
C880 C904 1.417 . S
C881 H858 0.931 . S
C881 N877 1.343 . S
C881 C882 1.390 . S
C882 H860 0.930 . S
C882 C879 1.321 . S
C882 C881 1.390 . S
O883 Gd851 2.386 . S
O883 C895 1.265 . S
O884 Gd850 2.353 . S
O884 C895 1.242 . S
O885 Gd850 2.468 . S
O885 C903 1.263 . S
O886 Gd850 2.427 . S
O886 C903 1.252 . S
O887 Gd851 2.307 . S
O887 C896 1.261 . S
O888 Gd850 2.388 . S
O888 C896 1.252 . S
O889 Gd850 2.386 . S
O889 C907 1.265 . S
O890 Gd851 2.353 . S
O890 C907 1.242 . S
O891 Gd851 2.468 . S
O891 C915 1.263 . S
O892 Gd851 2.427 . S
O892 C915 1.252 . S
O893 Gd850 2.307 . S
O893 C908 1.261 . S
O894 Gd851 2.388 . S
O894 C908 1.252 . S
C895 O883 1.265 . S
C895 O884 1.242 . S
C896 O887 1.261 . S
C896 O888 1.252 . S
C897 C900 1.394 . S
C897 C902 1.370 . S
C897 C903 1.500 . S
C898 C901 1.383 . S
C898 C902 1.395 . S
C899 C900 1.396 . S
C899 C901 1.365 . S
C899 H916 0.929 . S
C900 C897 1.394 . S
C900 C899 1.396 . S
C900 H917 0.930 . S
C901 C898 1.383 . S
C901 C899 1.365 . S
C901 H918 0.931 . S
C902 C897 1.370 . S
C902 C898 1.395 . S
C902 H919 0.930 . S
C903 Gd850 2.805 . S
C903 O885 1.263 . S
C903 O886 1.252 . S
C903 C897 1.500 . S
C904 H866 0.930 . S
C904 C880 1.417 . S
C904 C905 1.329 . S
C905 C875 1.437 . S
C905 H876 0.929 . S
C905 C904 1.329 . S
H906 C879 0.931 . S
C907 O889 1.265 . S
C907 O890 1.242 . S
C908 O893 1.261 . S
C908 O894 1.252 . S
C909 C912 1.394 . S
C909 C914 1.370 . S
C909 C915 1.500 . S
C910 C913 1.383 . S
C910 C914 1.395 . S
C911 C912 1.396 . S
C911 C913 1.365 . S
C911 H920 0.929 . S
C912 C909 1.394 . S
C912 C911 1.396 . S
C912 H921 0.930 . S
C913 C910 1.383 . S
C913 C911 1.365 . S
C913 H922 0.931 . S
C914 C909 1.370 . S
C914 C910 1.395 . S
C914 H923 0.930 . S
C915 Gd851 2.805 . S
C915 O891 1.263 . S
C915 O892 1.252 . S
C915 C909 1.500 . S
H916 C899 0.929 . S
H917 C900 0.930 . S
H918 C901 0.931 . S
H919 C902 0.930 . S
H920 C911 0.929 . S
H921 C912 0.930 . S
H922 C913 0.931 . S
H923 C914 0.930 . S
C924 C926 1.422 . S
C924 C928 1.415 . S
C924 N930 1.369 . S
C925 C926 1.421 . S
C925 C927 1.420 . S
C925 C937 1.422 1_554 S
C926 C924 1.422 . S
C926 C925 1.421 . S
C926 N936 1.359 . S
C927 C925 1.420 . S
C927 C929 1.333 . S
C927 H946 0.924 1_554 S
C928 C924 1.415 . S
C928 C929 1.437 . S
C928 C932 1.413 . S
C929 C927 1.333 . S
C929 C928 1.437 . S
C929 H951 0.929 . S
N930 C924 1.369 . S
N930 C931 1.338 . S
N930 Gd935 2.622 . S
C931 N930 1.338 . S
C931 C933 1.378 . S
C931 H943 0.929 . S
C932 C928 1.413 . S
C932 C933 1.348 . S
C932 H948 0.931 . S
C933 C931 1.378 . S
C933 C932 1.348 . S
C933 H949 0.930 . S
Gd934 N954 2.622 . S
Gd934 N961 2.570 . S
Gd934 O968 2.353 . S
Gd934 O969 2.468 . S
Gd934 O970 2.427 . S
Gd934 O972 2.388 . S
Gd934 O973 2.386 . S
Gd934 O977 2.307 . S
Gd934 C987 2.805 . S
Gd935 N930 2.622 . S
Gd935 N936 2.570 . S
Gd935 O967 2.386 . S
Gd935 O971 2.307 . S
Gd935 O974 2.353 . S
Gd935 O975 2.468 1_554 S
Gd935 O976 2.427 1_554 S
Gd935 O978 2.388 . S
Gd935 C999 2.805 1_554 S
N936 C926 1.359 . S
N936 Gd935 2.570 . S
N936 C938 1.343 . S
C937 C925 1.422 1_556 S
C937 C939 1.322 1_556 S
C937 H945 0.930 . S
C938 N936 1.343 . S
C938 C939 1.390 . S
C938 H940 0.931 . S
C939 C937 1.322 1_554 S
C939 C938 1.390 . S
C939 H941 0.933 . S
H940 C938 0.931 . S
H941 C939 0.933 . S
H942 C965 0.931 . S
H943 C931 0.929 . S
H944 C966 0.930 . S
H945 C937 0.930 . S
H946 C927 0.924 1_556 S
H947 C956 0.929 . S
H948 C932 0.931 . S
H949 C933 0.930 . S
H950 C988 0.930 . S
H951 C929 0.929 . S
H952 C957 0.931 . S
H953 C958 0.930 . S
N954 Gd934 2.622 . S
N954 C955 1.369 . S
N954 C956 1.338 . S
C955 N954 1.369 . S
C955 C959 1.415 . S
C955 C962 1.422 . S
C956 H947 0.929 . S
C956 N954 1.338 . S
C956 C958 1.378 . S
C957 H952 0.931 . S
C957 C958 1.348 . S
C957 C959 1.413 . S
C958 H953 0.930 . S
C958 C956 1.378 . S
C958 C957 1.348 . S
C959 C955 1.415 . S
C959 C957 1.413 . S
C959 C989 1.437 . S
H960 C989 0.929 . S
N961 Gd934 2.570 . S
N961 C962 1.359 . S
N961 C965 1.343 . S
C962 C955 1.422 . S
C962 N961 1.359 . S
C962 C964 1.421 . S
C963 C964 1.422 . S
C963 C966 1.321 . S
C963 H990 0.931 . S
C964 C962 1.421 . S
C964 C963 1.422 . S
C964 C988 1.417 . S
C965 H942 0.931 . S
C965 N961 1.343 . S
C965 C966 1.390 . S
C966 H944 0.930 . S
C966 C963 1.321 . S
C966 C965 1.390 . S
O967 Gd935 2.386 . S
O967 C979 1.265 . S
O968 Gd934 2.353 . S
O968 C979 1.242 . S
O969 Gd934 2.468 . S
O969 C987 1.263 . S
O970 Gd934 2.427 . S
O970 C987 1.252 . S
O971 Gd935 2.307 . S
O971 C980 1.261 . S
O972 Gd934 2.388 . S
O972 C980 1.252 . S
O973 Gd934 2.386 . S
O973 C991 1.265 . S
O974 Gd935 2.353 . S
O974 C991 1.242 . S
O975 Gd935 2.468 1_556 S
O975 C999 1.263 . S
O976 Gd935 2.427 1_556 S
O976 C999 1.252 . S
O977 Gd934 2.307 . S
O977 C992 1.261 . S
O978 Gd935 2.388 . S
O978 C992 1.252 . S
C979 O967 1.265 . S
C979 O968 1.242 . S
C980 O971 1.261 . S
C980 O972 1.252 . S
C981 C984 1.394 . S
C981 C986 1.370 . S
C981 C987 1.500 . S
C982 C985 1.383 . S
C982 C986 1.395 . S
C983 C984 1.396 . S
C983 C985 1.365 . S
C983 H1000 0.929 . S
C984 C981 1.394 . S
C984 C983 1.396 . S
C984 H1001 0.930 . S
C985 C982 1.383 . S
C985 C983 1.365 . S
C985 H1002 0.931 . S
C986 C981 1.370 . S
C986 C982 1.395 . S
C986 H1003 0.930 . S
C987 Gd934 2.805 . S
C987 O969 1.263 . S
C987 O970 1.252 . S
C987 C981 1.500 . S
C988 H950 0.930 . S
C988 C964 1.417 . S
C988 C989 1.329 . S
C989 C959 1.437 . S
C989 H960 0.929 . S
C989 C988 1.329 . S
H990 C963 0.931 . S
C991 O973 1.265 . S
C991 O974 1.242 . S
C992 O977 1.261 . S
C992 O978 1.252 . S
C993 C996 1.394 . S
C993 C998 1.370 . S
C993 C999 1.500 . S
C994 C997 1.383 . S
C994 C998 1.395 . S
C995 C996 1.396 . S
C995 C997 1.365 . S
C995 H1004 0.929 . S
C996 C993 1.394 . S
C996 C995 1.396 . S
C996 H1005 0.930 . S
C997 C994 1.383 . S
C997 C995 1.365 . S
C997 H1006 0.931 . S
C998 C993 1.370 . S
C998 C994 1.395 . S
C998 H1007 0.930 . S
C999 Gd935 2.805 1_556 S
C999 O975 1.263 . S
C999 O976 1.252 . S
C999 C993 1.500 . S
H1000 C983 0.929 . S
H1001 C984 0.930 . S
H1002 C985 0.931 . S
H1003 C986 0.930 . S
H1004 C995 0.929 . S
H1005 C996 0.930 . S
H1006 C997 0.931 . S
H1007 C998 0.930 . S
C1008 C1010 1.422 . S
C1008 C1012 1.415 . S
C1008 N1014 1.369 . S
C1009 C1010 1.421 . S
C1009 C1011 1.417 . S
C1009 C1021 1.422 . S
C1010 C1008 1.422 . S
C1010 C1009 1.421 . S
C1010 N1020 1.359 . S
C1011 C1009 1.417 . S
C1011 C1013 1.329 . S
C1011 H1030 0.930 . S
C1012 C1008 1.415 . S
C1012 C1013 1.437 . S
C1012 C1016 1.413 . S
C1013 C1011 1.329 . S
C1013 C1012 1.437 . S
C1013 H1035 0.929 . S
N1014 C1008 1.369 . S
N1014 C1015 1.338 . S
N1014 Gd1019 2.622 . S
C1015 N1014 1.338 . S
C1015 C1017 1.378 . S
C1015 H1027 0.929 . S
C1016 C1012 1.413 . S
C1016 C1017 1.348 . S
C1016 H1032 0.931 . S
C1017 C1015 1.378 . S
C1017 C1016 1.348 . S
C1017 H1033 0.930 . S
Gd1018 N1038 2.622 . S
Gd1018 N1045 2.570 . S
Gd1018 O1052 2.353 . S
Gd1018 O1053 2.468 1_554 S
Gd1018 O1054 2.427 1_554 S
Gd1018 O1056 2.388 . S
Gd1018 O1057 2.386 . S
Gd1018 O1061 2.307 . S
Gd1018 C1071 2.805 1_554 S
Gd1019 N1014 2.622 . S
Gd1019 N1020 2.570 . S
Gd1019 O1051 2.386 . S
Gd1019 O1055 2.307 . S
Gd1019 O1058 2.353 . S
Gd1019 O1059 2.468 . S
Gd1019 O1060 2.427 . S
Gd1019 O1062 2.388 . S
Gd1019 C1083 2.805 . S
N1020 C1010 1.359 . S
N1020 Gd1019 2.570 . S
N1020 C1022 1.343 . S
C1021 C1009 1.422 . S
C1021 C1023 1.321 . S
C1021 H1029 0.931 . S
C1022 N1020 1.343 . S
C1022 C1023 1.390 . S
C1022 H1024 0.931 . S
C1023 C1021 1.321 . S
C1023 C1022 1.390 . S
C1023 H1025 0.930 . S
H1024 C1022 0.931 . S
H1025 C1023 0.930 . S
H1026 C1049 0.931 . S
H1027 C1015 0.929 . S
H1028 C1050 0.930 . S
H1029 C1021 0.931 . S
H1030 C1011 0.930 . S
H1031 C1040 0.929 . S
H1032 C1016 0.931 . S
H1033 C1017 0.930 . S
H1034 C1072 0.933 . S
H1035 C1013 0.929 . S
H1036 C1041 0.931 . S
H1037 C1042 0.930 . S
N1038 Gd1018 2.622 . S
N1038 C1039 1.369 . S
N1038 C1040 1.338 . S
C1039 N1038 1.369 . S
C1039 C1043 1.415 . S
C1039 C1046 1.422 . S
C1040 H1031 0.929 . S
C1040 N1038 1.338 . S
C1040 C1042 1.378 . S
C1041 H1036 0.931 . S
C1041 C1042 1.348 . S
C1041 C1043 1.413 . S
C1042 H1037 0.930 . S
C1042 C1040 1.378 . S
C1042 C1041 1.348 . S
C1043 C1039 1.415 . S
C1043 C1041 1.413 . S
C1043 C1073 1.437 . S
H1044 C1073 0.929 . S
N1045 Gd1018 2.570 . S
N1045 C1046 1.359 . S
N1045 C1049 1.343 . S
C1046 C1039 1.422 . S
C1046 N1045 1.359 . S
C1046 C1048 1.421 . S
C1047 C1048 1.422 1_556 S
C1047 C1050 1.321 1_556 S
C1047 H1074 0.931 . S
C1048 C1046 1.421 . S
C1048 C1047 1.422 1_554 S
C1048 C1072 1.416 1_554 S
C1049 H1026 0.931 . S
C1049 N1045 1.343 . S
C1049 C1050 1.390 . S
C1050 H1028 0.930 . S
C1050 C1047 1.321 1_554 S
C1050 C1049 1.390 . S
O1051 Gd1019 2.386 . S
O1051 C1063 1.265 . S
O1052 Gd1018 2.353 . S
O1052 C1063 1.242 . S
O1053 Gd1018 2.468 1_556 S
O1053 C1071 1.263 . S
O1054 Gd1018 2.427 1_556 S
O1054 C1071 1.252 . S
O1055 Gd1019 2.307 . S
O1055 C1064 1.261 . S
O1056 Gd1018 2.388 . S
O1056 C1064 1.252 . S
O1057 Gd1018 2.386 . S
O1057 C1075 1.265 . S
O1058 Gd1019 2.353 . S
O1058 C1075 1.242 . S
O1059 Gd1019 2.468 . S
O1059 C1083 1.263 . S
O1060 Gd1019 2.427 . S
O1060 C1083 1.252 . S
O1061 Gd1018 2.307 . S
O1061 C1076 1.261 . S
O1062 Gd1019 2.388 . S
O1062 C1076 1.252 . S
C1063 O1051 1.265 . S
C1063 O1052 1.242 . S
C1064 O1055 1.261 . S
C1064 O1056 1.252 . S
C1065 C1068 1.394 . S
C1065 C1070 1.370 . S
C1065 C1071 1.500 . S
C1066 C1069 1.383 . S
C1066 C1070 1.395 . S
C1067 C1068 1.396 . S
C1067 C1069 1.365 . S
C1067 H1084 0.929 . S
C1068 C1065 1.394 . S
C1068 C1067 1.396 . S
C1068 H1085 0.930 . S
C1069 C1066 1.383 . S
C1069 C1067 1.365 . S
C1069 H1086 0.931 . S
C1070 C1065 1.370 . S
C1070 C1066 1.395 . S
C1070 H1087 0.930 . S
C1071 Gd1018 2.805 1_556 S
C1071 O1053 1.263 . S
C1071 O1054 1.252 . S
C1071 C1065 1.500 . S
C1072 H1034 0.933 . S
C1072 C1048 1.416 1_556 S
C1072 C1073 1.327 1_556 S
C1073 C1043 1.437 . S
C1073 H1044 0.929 . S
C1073 C1072 1.327 1_554 S
H1074 C1047 0.931 . S
C1075 O1057 1.265 . S
C1075 O1058 1.242 . S
C1076 O1061 1.261 . S
C1076 O1062 1.252 . S
C1077 C1080 1.394 . S
C1077 C1082 1.370 . S
C1077 C1083 1.500 . S
C1078 C1081 1.383 . S
C1078 C1082 1.395 . S
C1079 C1080 1.396 . S
C1079 C1081 1.365 . S
C1079 H1088 0.929 . S
C1080 C1077 1.394 . S
C1080 C1079 1.396 . S
C1080 H1089 0.930 . S
C1081 C1078 1.383 . S
C1081 C1079 1.365 . S
C1081 H1090 0.931 . S
C1082 C1077 1.370 . S
C1082 C1078 1.395 . S
C1082 H1091 0.930 . S
C1083 Gd1019 2.805 . S
C1083 O1059 1.263 . S
C1083 O1060 1.252 . S
C1083 C1077 1.500 . S
H1084 C1067 0.929 . S
H1085 C1068 0.930 . S
H1086 C1069 0.931 . S
H1087 C1070 0.930 . S
H1088 C1079 0.929 . S
H1089 C1080 0.930 . S
H1090 C1081 0.931 . S
H1091 C1082 0.930 . S
C1092 C1094 1.422 . S
C1092 C1096 1.415 . S
C1092 N1098 1.369 . S
C1093 C1094 1.421 . S
C1093 C1095 1.417 . S
C1093 C1105 1.422 . S
C1094 C1092 1.422 . S
C1094 C1093 1.421 . S
C1094 N1104 1.359 . S
C1095 C1093 1.417 . S
C1095 C1097 1.329 . S
C1095 H1114 0.930 . S
C1096 C1092 1.415 . S
C1096 C1097 1.437 . S
C1096 C1100 1.413 . S
C1097 C1095 1.329 . S
C1097 C1096 1.437 . S
C1097 H1119 0.929 . S
N1098 C1092 1.369 . S
N1098 C1099 1.338 . S
N1098 Gd1103 2.622 . S
C1099 N1098 1.338 . S
C1099 C1101 1.378 . S
C1099 H1111 0.929 . S
C1100 C1096 1.413 . S
C1100 C1101 1.348 . S
C1100 H1116 0.931 . S
C1101 C1099 1.378 . S
C1101 C1100 1.348 . S
C1101 H1117 0.930 . S
Gd1102 N1122 2.622 . S
Gd1102 N1129 2.570 . S
Gd1102 O1136 2.353 . S
Gd1102 O1137 2.468 1_556 S
Gd1102 O1138 2.427 1_556 S
Gd1102 O1140 2.388 . S
Gd1102 O1141 2.386 . S
Gd1102 O1145 2.307 . S
Gd1102 C1155 2.805 1_556 S
Gd1103 N1098 2.622 . S
Gd1103 N1104 2.570 . S
Gd1103 O1135 2.386 . S
Gd1103 O1139 2.307 . S
Gd1103 O1142 2.353 . S
Gd1103 O1143 2.468 . S
Gd1103 O1144 2.427 . S
Gd1103 O1146 2.388 . S
Gd1103 C1167 2.805 . S
N1104 C1094 1.359 . S
N1104 Gd1103 2.570 . S
N1104 C1106 1.343 . S
C1105 C1093 1.422 . S
C1105 C1107 1.321 . S
C1105 H1113 0.931 . S
C1106 N1104 1.343 . S
C1106 C1107 1.390 . S
C1106 H1108 0.931 . S
C1107 C1105 1.321 . S
C1107 C1106 1.390 . S
C1107 H1109 0.930 . S
H1108 C1106 0.931 . S
H1109 C1107 0.930 . S
H1110 C1133 0.931 . S
H1111 C1099 0.929 . S
H1112 C1134 0.930 . S
H1113 C1105 0.931 . S
H1114 C1095 0.930 . S
H1115 C1124 0.929 . S
H1116 C1100 0.931 . S
H1117 C1101 0.930 . S
H1118 C1156 0.930 1_554 S
H1119 C1097 0.929 . S
H1120 C1125 0.931 . S
H1121 C1126 0.930 . S
N1122 Gd1102 2.622 . S
N1122 C1123 1.369 . S
N1122 C1124 1.338 . S
C1123 N1122 1.369 . S
C1123 C1127 1.415 . S
C1123 C1130 1.422 . S
C1124 H1115 0.929 . S
C1124 N1122 1.338 . S
C1124 C1126 1.378 . S
C1125 H1120 0.931 . S
C1125 C1126 1.348 . S
C1125 C1127 1.413 . S
C1126 H1121 0.930 . S
C1126 C1124 1.378 . S
C1126 C1125 1.348 . S
C1127 C1123 1.415 . S
C1127 C1125 1.413 . S
C1127 C1157 1.437 . S
H1128 C1157 0.929 . S
N1129 Gd1102 2.570 . S
N1129 C1130 1.359 . S
N1129 C1133 1.343 . S
C1130 C1123 1.422 . S
C1130 N1129 1.359 . S
C1130 C1132 1.421 . S
C1131 C1132 1.422 . S
C1131 C1134 1.321 . S
C1131 H1158 0.931 1_556 S
C1132 C1130 1.421 . S
C1132 C1131 1.422 . S
C1132 C1156 1.417 . S
C1133 H1110 0.931 . S
C1133 N1129 1.343 . S
C1133 C1134 1.390 . S
C1134 H1112 0.930 . S
C1134 C1131 1.321 . S
C1134 C1133 1.390 . S
O1135 Gd1103 2.386 . S
O1135 C1147 1.265 . S
O1136 Gd1102 2.353 . S
O1136 C1147 1.242 . S
O1137 Gd1102 2.468 1_554 S
O1137 C1155 1.263 . S
O1138 Gd1102 2.427 1_554 S
O1138 C1155 1.252 . S
O1139 Gd1103 2.307 . S
O1139 C1148 1.261 . S
O1140 Gd1102 2.388 . S
O1140 C1148 1.252 . S
O1141 Gd1102 2.386 . S
O1141 C1159 1.265 . S
O1142 Gd1103 2.353 . S
O1142 C1159 1.242 . S
O1143 Gd1103 2.468 . S
O1143 C1167 1.263 . S
O1144 Gd1103 2.427 . S
O1144 C1167 1.252 . S
O1145 Gd1102 2.307 . S
O1145 C1160 1.261 . S
O1146 Gd1103 2.388 . S
O1146 C1160 1.252 . S
C1147 O1135 1.265 . S
C1147 O1136 1.242 . S
C1148 O1139 1.261 . S
C1148 O1140 1.252 . S
C1149 C1152 1.394 . S
C1149 C1154 1.370 . S
C1149 C1155 1.500 . S
C1150 C1153 1.383 . S
C1150 C1154 1.395 . S
C1151 C1152 1.396 . S
C1151 C1153 1.365 . S
C1151 H1168 0.929 . S
C1152 C1149 1.394 . S
C1152 C1151 1.396 . S
C1152 H1169 0.930 . S
C1153 C1150 1.383 . S
C1153 C1151 1.365 . S
C1153 H1170 0.931 . S
C1154 C1149 1.370 . S
C1154 C1150 1.395 . S
C1154 H1171 0.930 . S
C1155 Gd1102 2.805 1_554 S
C1155 O1137 1.263 . S
C1155 O1138 1.252 . S
C1155 C1149 1.500 . S
C1156 H1118 0.930 1_556 S
C1156 C1132 1.417 . S
C1156 C1157 1.329 . S
C1157 C1127 1.437 . S
C1157 H1128 0.929 . S
C1157 C1156 1.329 . S
H1158 C1131 0.931 1_554 S
C1159 O1141 1.265 . S
C1159 O1142 1.242 . S
C1160 O1145 1.261 . S
C1160 O1146 1.252 . S
C1161 C1164 1.394 . S
C1161 C1166 1.370 . S
C1161 C1167 1.500 . S
C1162 C1165 1.383 . S
C1162 C1166 1.395 . S
C1163 C1164 1.396 . S
C1163 C1165 1.365 . S
C1163 H1172 0.929 . S
C1164 C1161 1.394 . S
C1164 C1163 1.396 . S
C1164 H1173 0.930 . S
C1165 C1162 1.383 . S
C1165 C1163 1.365 . S
C1165 H1174 0.931 . S
C1166 C1161 1.370 . S
C1166 C1162 1.395 . S
C1166 H1175 0.930 . S
C1167 Gd1103 2.805 . S
C1167 O1143 1.263 . S
C1167 O1144 1.252 . S
C1167 C1161 1.500 . S
H1168 C1151 0.929 . S
H1169 C1152 0.930 . S
H1170 C1153 0.931 . S
H1171 C1154 0.930 . S
H1172 C1163 0.929 . S
H1173 C1164 0.930 . S
H1174 C1165 0.931 . S
H1175 C1166 0.930 . S
C1176 C1178 1.422 . S
C1176 C1180 1.415 . S
C1176 N1182 1.369 . S
C1177 C1178 1.421 . S
C1177 C1179 1.417 . S
C1177 C1189 1.422 . S
C1178 C1176 1.422 . S
C1178 C1177 1.421 . S
C1178 N1188 1.359 . S
C1179 C1177 1.417 . S
C1179 C1181 1.329 . S
C1179 H1198 0.930 . S
C1180 C1176 1.415 . S
C1180 C1181 1.437 . S
C1180 C1184 1.413 . S
C1181 C1179 1.329 . S
C1181 C1180 1.437 . S
C1181 H1203 0.929 . S
N1182 C1176 1.369 . S
N1182 C1183 1.338 . S
N1182 Gd1187 2.622 . S
C1183 N1182 1.338 . S
C1183 C1185 1.378 . S
C1183 H1195 0.929 . S
C1184 C1180 1.413 . S
C1184 C1185 1.348 . S
C1184 H1200 0.931 . S
C1185 C1183 1.378 . S
C1185 C1184 1.348 . S
C1185 H1201 0.930 . S
Gd1186 N1206 2.622 . S
Gd1186 N1213 2.570 . S
Gd1186 O1220 2.353 . S
Gd1186 O1221 2.468 . S
Gd1186 O1222 2.427 . S
Gd1186 O1224 2.388 . S
Gd1186 O1225 2.386 . S
Gd1186 O1229 2.307 . S
Gd1186 C1239 2.805 . S
Gd1187 N1182 2.622 . S
Gd1187 N1188 2.570 . S
Gd1187 O1219 2.386 . S
Gd1187 O1223 2.307 . S
Gd1187 O1226 2.353 . S
Gd1187 O1227 2.468 . S
Gd1187 O1228 2.427 . S
Gd1187 O1230 2.388 . S
Gd1187 C1251 2.805 . S
N1188 C1178 1.359 . S
N1188 Gd1187 2.570 . S
N1188 C1190 1.343 . S
C1189 C1177 1.422 . S
C1189 C1191 1.321 . S
C1189 H1197 0.931 . S
C1190 N1188 1.343 . S
C1190 C1191 1.390 . S
C1190 H1192 0.931 . S
C1191 C1189 1.321 . S
C1191 C1190 1.390 . S
C1191 H1193 0.930 . S
H1192 C1190 0.931 . S
H1193 C1191 0.930 . S
H1194 C1217 0.931 . S
H1195 C1183 0.929 . S
H1196 C1218 0.930 . S
H1197 C1189 0.931 . S
H1198 C1179 0.930 . S
H1199 C1208 0.929 . S
H1200 C1184 0.931 . S
H1201 C1185 0.930 . S
H1202 C1240 0.930 . S
H1203 C1181 0.929 . S
H1204 C1209 0.931 . S
H1205 C1210 0.930 . S
N1206 Gd1186 2.622 . S
N1206 C1207 1.369 . S
N1206 C1208 1.338 . S
C1207 N1206 1.369 . S
C1207 C1211 1.415 . S
C1207 C1214 1.422 . S
C1208 H1199 0.929 . S
C1208 N1206 1.338 . S
C1208 C1210 1.378 . S
C1209 H1204 0.931 . S
C1209 C1210 1.348 . S
C1209 C1211 1.413 . S
C1210 H1205 0.930 . S
C1210 C1208 1.378 . S
C1210 C1209 1.348 . S
C1211 C1207 1.415 . S
C1211 C1209 1.413 . S
C1211 C1241 1.437 . S
H1212 C1241 0.929 . S
N1213 Gd1186 2.570 . S
N1213 C1214 1.359 . S
N1213 C1217 1.343 . S
C1214 C1207 1.422 . S
C1214 N1213 1.359 . S
C1214 C1216 1.421 . S
C1215 C1216 1.422 . S
C1215 C1218 1.321 . S
C1215 H1242 0.931 . S
C1216 C1214 1.421 . S
C1216 C1215 1.422 . S
C1216 C1240 1.417 . S
C1217 H1194 0.931 . S
C1217 N1213 1.343 . S
C1217 C1218 1.390 . S
C1218 H1196 0.930 . S
C1218 C1215 1.321 . S
C1218 C1217 1.390 . S
O1219 Gd1187 2.386 . S
O1219 C1231 1.265 . S
O1220 Gd1186 2.353 . S
O1220 C1231 1.242 . S
O1221 Gd1186 2.468 . S
O1221 C1239 1.263 . S
O1222 Gd1186 2.427 . S
O1222 C1239 1.252 . S
O1223 Gd1187 2.307 . S
O1223 C1232 1.261 . S
O1224 Gd1186 2.388 . S
O1224 C1232 1.252 . S
O1225 Gd1186 2.386 . S
O1225 C1243 1.265 . S
O1226 Gd1187 2.353 . S
O1226 C1243 1.242 . S
O1227 Gd1187 2.468 . S
O1227 C1251 1.263 . S
O1228 Gd1187 2.427 . S
O1228 C1251 1.252 . S
O1229 Gd1186 2.307 . S
O1229 C1244 1.261 . S
O1230 Gd1187 2.388 . S
O1230 C1244 1.252 . S
C1231 O1219 1.265 . S
C1231 O1220 1.242 . S
C1232 O1223 1.261 . S
C1232 O1224 1.252 . S
C1233 C1236 1.394 . S
C1233 C1238 1.370 . S
C1233 C1239 1.500 . S
C1234 C1237 1.383 . S
C1234 C1238 1.395 . S
C1235 C1236 1.396 . S
C1235 C1237 1.365 . S
C1235 H1252 0.929 . S
C1236 C1233 1.394 . S
C1236 C1235 1.396 . S
C1236 H1253 0.930 . S
C1237 C1234 1.383 . S
C1237 C1235 1.365 . S
C1237 H1254 0.931 . S
C1238 C1233 1.370 . S
C1238 C1234 1.395 . S
C1238 H1255 0.930 . S
C1239 Gd1186 2.805 . S
C1239 O1221 1.263 . S
C1239 O1222 1.252 . S
C1239 C1233 1.500 . S
C1240 H1202 0.930 . S
C1240 C1216 1.417 . S
C1240 C1241 1.329 . S
C1241 C1211 1.437 . S
C1241 H1212 0.929 . S
C1241 C1240 1.329 . S
H1242 C1215 0.931 . S
C1243 O1225 1.265 . S
C1243 O1226 1.242 . S
C1244 O1229 1.261 . S
C1244 O1230 1.252 . S
C1245 C1248 1.394 . S
C1245 C1250 1.370 . S
C1245 C1251 1.500 . S
C1246 C1249 1.383 . S
C1246 C1250 1.395 . S
C1247 C1248 1.396 . S
C1247 C1249 1.365 . S
C1247 H1256 0.929 . S
C1248 C1245 1.394 . S
C1248 C1247 1.396 . S
C1248 H1257 0.930 . S
C1249 C1246 1.383 . S
C1249 C1247 1.365 . S
C1249 H1258 0.931 . S
C1250 C1245 1.370 . S
C1250 C1246 1.395 . S
C1250 H1259 0.930 . S
C1251 Gd1187 2.805 . S
C1251 O1227 1.263 . S
C1251 O1228 1.252 . S
C1251 C1245 1.500 . S
H1252 C1235 0.929 . S
H1253 C1236 0.930 . S
H1254 C1237 0.931 . S
H1255 C1238 0.930 . S
H1256 C1247 0.929 . S
H1257 C1248 0.930 . S
H1258 C1249 0.931 . S
H1259 C1250 0.930 . S
C1260 C1262 1.422 . S
C1260 C1264 1.415 . S
C1260 N1266 1.369 . S
C1261 C1262 1.421 . S
C1261 C1263 1.417 . S
C1261 C1273 1.422 . S
C1262 C1260 1.422 . S
C1262 C1261 1.421 . S
C1262 N1272 1.359 . S
C1263 C1261 1.417 . S
C1263 C1265 1.329 . S
C1263 H1282 0.930 . S
C1264 C1260 1.415 . S
C1264 C1265 1.437 . S
C1264 C1268 1.413 . S
C1265 C1263 1.329 . S
C1265 C1264 1.437 . S
C1265 H1287 0.929 . S
N1266 C1260 1.369 . S
N1266 C1267 1.338 . S
N1266 Gd1271 2.622 . S
C1267 N1266 1.338 . S
C1267 C1269 1.378 . S
C1267 H1279 0.929 . S
C1268 C1264 1.413 . S
C1268 C1269 1.348 . S
C1268 H1284 0.931 . S
C1269 C1267 1.378 . S
C1269 C1268 1.348 . S
C1269 H1285 0.930 . S
Gd1270 N1290 2.622 . S
Gd1270 N1297 2.570 . S
Gd1270 O1304 2.353 . S
Gd1270 O1305 2.468 . S
Gd1270 O1306 2.427 . S
Gd1270 O1308 2.388 . S
Gd1270 O1309 2.386 . S
Gd1270 O1313 2.307 . S
Gd1270 C1323 2.805 . S
Gd1271 N1266 2.622 . S
Gd1271 N1272 2.570 . S
Gd1271 O1303 2.386 . S
Gd1271 O1307 2.307 . S
Gd1271 O1310 2.353 . S
Gd1271 O1311 2.468 . S
Gd1271 O1312 2.427 . S
Gd1271 O1314 2.388 . S
Gd1271 C1335 2.805 . S
N1272 C1262 1.359 . S
N1272 Gd1271 2.570 . S
N1272 C1274 1.343 . S
C1273 C1261 1.422 . S
C1273 C1275 1.321 . S
C1273 H1281 0.931 . S
C1274 N1272 1.343 . S
C1274 C1275 1.390 . S
C1274 H1276 0.931 . S
C1275 C1273 1.321 . S
C1275 C1274 1.390 . S
C1275 H1277 0.930 . S
H1276 C1274 0.931 . S
H1277 C1275 0.930 . S
H1278 C1301 0.931 . S
H1279 C1267 0.929 . S
H1280 C1302 0.930 . S
H1281 C1273 0.931 . S
H1282 C1263 0.930 . S
H1283 C1292 0.929 . S
H1284 C1268 0.931 . S
H1285 C1269 0.930 . S
H1286 C1324 0.930 . S
H1287 C1265 0.929 . S
H1288 C1293 0.931 . S
H1289 C1294 0.930 . S
N1290 Gd1270 2.622 . S
N1290 C1291 1.369 . S
N1290 C1292 1.338 . S
C1291 N1290 1.369 . S
C1291 C1295 1.415 . S
C1291 C1298 1.422 . S
C1292 H1283 0.929 . S
C1292 N1290 1.338 . S
C1292 C1294 1.378 . S
C1293 H1288 0.931 . S
C1293 C1294 1.348 . S
C1293 C1295 1.413 . S
C1294 H1289 0.930 . S
C1294 C1292 1.378 . S
C1294 C1293 1.348 . S
C1295 C1291 1.415 . S
C1295 C1293 1.413 . S
C1295 C1325 1.437 . S
H1296 C1325 0.929 . S
N1297 Gd1270 2.570 . S
N1297 C1298 1.359 . S
N1297 C1301 1.343 . S
C1298 C1291 1.422 . S
C1298 N1297 1.359 . S
C1298 C1300 1.421 . S
C1299 C1300 1.422 . S
C1299 C1302 1.321 . S
C1299 H1326 0.931 . S
C1300 C1298 1.421 . S
C1300 C1299 1.422 . S
C1300 C1324 1.417 . S
C1301 H1278 0.931 . S
C1301 N1297 1.343 . S
C1301 C1302 1.390 . S
C1302 H1280 0.930 . S
C1302 C1299 1.321 . S
C1302 C1301 1.390 . S
O1303 Gd1271 2.386 . S
O1303 C1315 1.265 . S
O1304 Gd1270 2.353 . S
O1304 C1315 1.242 . S
O1305 Gd1270 2.468 . S
O1305 C1323 1.263 . S
O1306 Gd1270 2.427 . S
O1306 C1323 1.252 . S
O1307 Gd1271 2.307 . S
O1307 C1316 1.261 . S
O1308 Gd1270 2.388 . S
O1308 C1316 1.252 . S
O1309 Gd1270 2.386 . S
O1309 C1327 1.265 . S
O1310 Gd1271 2.353 . S
O1310 C1327 1.242 . S
O1311 Gd1271 2.468 . S
O1311 C1335 1.263 . S
O1312 Gd1271 2.427 . S
O1312 C1335 1.252 . S
O1313 Gd1270 2.307 . S
O1313 C1328 1.261 . S
O1314 Gd1271 2.388 . S
O1314 C1328 1.252 . S
C1315 O1303 1.265 . S
C1315 O1304 1.242 . S
C1316 O1307 1.261 . S
C1316 O1308 1.252 . S
C1317 C1320 1.394 . S
C1317 C1322 1.370 . S
C1317 C1323 1.500 . S
C1318 C1321 1.383 . S
C1318 C1322 1.395 . S
C1319 C1320 1.396 . S
C1319 C1321 1.365 . S
C1319 H1336 0.929 . S
C1320 C1317 1.394 . S
C1320 C1319 1.396 . S
C1320 H1337 0.930 . S
C1321 C1318 1.383 . S
C1321 C1319 1.365 . S
C1321 H1338 0.931 . S
C1322 C1317 1.370 . S
C1322 C1318 1.395 . S
C1322 H1339 0.930 . S
C1323 Gd1270 2.805 . S
C1323 O1305 1.263 . S
C1323 O1306 1.252 . S
C1323 C1317 1.500 . S
C1324 H1286 0.930 . S
C1324 C1300 1.417 . S
C1324 C1325 1.329 . S
C1325 C1295 1.437 . S
C1325 H1296 0.929 . S
C1325 C1324 1.329 . S
H1326 C1299 0.931 . S
C1327 O1309 1.265 . S
C1327 O1310 1.242 . S
C1328 O1313 1.261 . S
C1328 O1314 1.252 . S
C1329 C1332 1.394 . S
C1329 C1334 1.370 . S
C1329 C1335 1.500 . S
C1330 C1333 1.383 . S
C1330 C1334 1.395 . S
C1331 C1332 1.396 . S
C1331 C1333 1.365 . S
C1331 H1340 0.929 . S
C1332 C1329 1.394 . S
C1332 C1331 1.396 . S
C1332 H1341 0.930 . S
C1333 C1330 1.383 . S
C1333 C1331 1.365 . S
C1333 H1342 0.931 . S
C1334 C1329 1.370 . S
C1334 C1330 1.395 . S
C1334 H1343 0.930 . S
C1335 Gd1271 2.805 . S
C1335 O1311 1.263 . S
C1335 O1312 1.252 . S
C1335 C1329 1.500 . S
H1336 C1319 0.929 . S
H1337 C1320 0.930 . S
H1338 C1321 0.931 . S
H1339 C1322 0.930 . S
H1340 C1331 0.929 . S
H1341 C1332 0.930 . S
H1342 C1333 0.931 . S
H1343 C1334 0.930 . S
H1344 C1362 0.951 . S
H1345 C1364 0.951 . S
H1346 C1366 0.950 . S
H1347 C1367 0.950 . S
H1348 C1369 0.950 . S
H1349 C1372 0.950 . S
H1350 C1373 0.950 . S
H1351 C1375 0.950 . S
H1352 C1376 0.950 . S
H1353 C1377 0.951 . S
H1354 C1379 0.951 . S
H1355 C1381 0.950 . S
H1356 C1382 0.950 . S
H1357 C1384 0.950 . S
H1358 C1387 0.950 . S
H1359 C1388 0.950 . S
H1360 C1390 0.950 . S
H1361 C1391 0.950 . S
C1362 H1344 0.951 . S
C1362 C1363 1.366 . S
C1362 C1364 1.388 . S
C1363 C1362 1.366 . S
C1363 C1367 1.385 . S
C1364 H1345 0.951 . S
C1364 C1362 1.388 . S
C1364 C1365 1.366 . S
C1365 C1364 1.366 . S
C1365 C1366 1.414 . S
C1365 C1368 1.499 . S
C1366 H1346 0.950 . S
C1366 C1365 1.414 . S
C1366 C1367 1.374 . S
C1367 H1347 0.950 . S
C1367 C1363 1.385 . S
C1367 C1366 1.374 . S
C1368 C1365 1.499 . S
C1368 C1369 1.373 . S
C1368 C1370 1.389 . S
C1369 H1348 0.950 . S
C1369 C1368 1.373 . S
C1369 C1385 1.377 . S
C1370 C1368 1.389 . S
C1370 C1371 1.524 . S
C1370 C1384 1.377 . S
C1371 C1370 1.524 . S
C1371 C1372 1.397 . S
C1371 C1376 1.363 . S
C1372 H1349 0.950 . S
C1372 C1371 1.397 . S
C1372 C1373 1.334 . S
C1373 H1350 0.950 . S
C1373 C1372 1.334 . S
C1373 C1374 1.287 . S
C1374 C1373 1.287 . S
C1374 C1375 1.524 . S
C1374 H1393 0.913 . S
C1375 H1351 0.950 . S
C1375 C1374 1.524 . S
C1375 C1376 1.415 . S
C1376 H1352 0.950 . S
C1376 C1371 1.363 . S
C1376 C1375 1.415 . S
C1377 H1353 0.951 . S
C1377 C1378 1.366 . S
C1377 C1379 1.388 . S
C1378 C1377 1.366 . S
C1378 C1382 1.385 . S
C1379 H1354 0.951 . S
C1379 C1377 1.388 . S
C1379 C1380 1.366 . S
C1380 C1379 1.366 . S
C1380 C1381 1.414 . S
C1380 C1383 1.499 . S
C1381 H1355 0.950 . S
C1381 C1380 1.414 . S
C1381 C1382 1.374 . S
C1382 H1356 0.950 . S
C1382 C1378 1.385 . S
C1382 C1381 1.374 . S
C1383 C1380 1.499 . S
C1383 C1384 1.373 . S
C1383 C1385 1.389 . S
C1384 H1357 0.950 . S
C1384 C1370 1.377 . S
C1384 C1383 1.373 . S
C1385 C1369 1.377 . S
C1385 C1383 1.389 . S
C1385 C1386 1.524 . S
C1386 C1385 1.524 . S
C1386 C1387 1.397 . S
C1386 C1391 1.363 . S
C1387 H1358 0.950 . S
C1387 C1386 1.397 . S
C1387 C1388 1.334 . S
C1388 H1359 0.950 . S
C1388 C1387 1.334 . S
C1388 C1389 1.287 . S
C1389 C1388 1.287 . S
C1389 C1390 1.524 . S
C1389 H1392 0.999 . S
C1390 H1360 0.950 . S
C1390 C1389 1.524 . S
C1390 C1391 1.415 . S
C1391 H1361 0.950 . S
C1391 C1386 1.363 . S
C1391 C1390 1.415 . S
H1392 C1389 0.999 . S
H1393 C1374 0.913 . S
H1394 C1412 0.951 . S
H1395 C1414 0.951 . S
H1396 C1416 0.950 1_556 S
H1397 C1417 0.950 . S
H1398 C1419 0.950 . S
H1399 C1422 0.950 . S
H1400 C1423 0.950 . S
H1401 C1425 0.950 . S
H1402 C1426 0.950 . S
H1403 C1427 0.951 . S
H1404 C1429 0.951 . S
H1405 C1431 0.950 . S
H1406 C1432 0.950 . S
H1407 C1434 0.950 . S
H1408 C1437 0.950 . S
H1409 C1438 0.950 . S
H1410 C1440 0.950 . S
H1411 C1441 0.950 . S
C1412 H1394 0.951 . S
C1412 C1413 1.366 . S
C1412 C1414 1.388 1_554 S
C1413 C1412 1.366 . S
C1413 C1417 1.385 . S
C1414 H1395 0.951 . S
C1414 C1412 1.388 1_556 S
C1414 C1415 1.366 . S
C1415 C1414 1.366 . S
C1415 C1416 1.414 1_556 S
C1415 C1418 1.499 . S
C1416 H1396 0.950 1_554 S
C1416 C1415 1.414 1_554 S
C1416 C1417 1.374 . S
C1417 H1397 0.950 . S
C1417 C1413 1.385 . S
C1417 C1416 1.374 . S
C1418 C1415 1.499 . S
C1418 C1419 1.373 . S
C1418 C1420 1.389 . S
C1419 H1398 0.950 . S
C1419 C1418 1.373 . S
C1419 C1435 1.377 . S
C1420 C1418 1.389 . S
C1420 C1421 1.524 . S
C1420 C1434 1.377 . S
C1421 C1420 1.524 . S
C1421 C1422 1.397 . S
C1421 C1426 1.363 . S
C1422 H1399 0.950 . S
C1422 C1421 1.397 . S
C1422 C1423 1.334 . S
C1423 H1400 0.950 . S
C1423 C1422 1.334 . S
C1423 C1424 1.287 . S
C1424 C1423 1.287 . S
C1424 C1425 1.524 . S
C1424 H1443 0.913 . S
C1425 H1401 0.950 . S
C1425 C1424 1.524 . S
C1425 C1426 1.415 . S
C1426 H1402 0.950 . S
C1426 C1421 1.363 . S
C1426 C1425 1.415 . S
C1427 H1403 0.951 . S
C1427 C1428 1.366 . S
C1427 C1429 1.388 . S
C1428 C1427 1.366 . S
C1428 C1432 1.385 . S
C1429 H1404 0.951 . S
C1429 C1427 1.388 . S
C1429 C1430 1.366 . S
C1430 C1429 1.366 . S
C1430 C1431 1.414 . S
C1430 C1433 1.499 . S
C1431 H1405 0.950 . S
C1431 C1430 1.414 . S
C1431 C1432 1.374 . S
C1432 H1406 0.950 . S
C1432 C1428 1.385 . S
C1432 C1431 1.374 . S
C1433 C1430 1.499 . S
C1433 C1434 1.373 . S
C1433 C1435 1.389 . S
C1434 H1407 0.950 . S
C1434 C1420 1.377 . S
C1434 C1433 1.373 . S
C1435 C1419 1.377 . S
C1435 C1433 1.389 . S
C1435 C1436 1.524 . S
C1436 C1435 1.524 . S
C1436 C1437 1.397 . S
C1436 C1441 1.363 . S
C1437 H1408 0.950 . S
C1437 C1436 1.397 . S
C1437 C1438 1.334 . S
C1438 H1409 0.950 . S
C1438 C1437 1.334 . S
C1438 C1439 1.287 . S
C1439 C1438 1.287 . S
C1439 C1440 1.524 . S
C1439 H1442 0.999 . S
C1440 H1410 0.950 . S
C1440 C1439 1.524 . S
C1440 C1441 1.415 . S
C1441 H1411 0.950 . S
C1441 C1436 1.363 . S
C1441 C1440 1.415 . S
H1442 C1439 0.999 . S
H1443 C1424 0.913 . S
H1444 C1462 0.951 . S
H1445 C1464 0.951 . S
H1446 C1466 0.950 . S
H1447 C1467 0.950 . S
H1448 C1469 0.950 . S
H1449 C1472 0.950 . S
H1450 C1473 0.950 . S
H1451 C1475 0.950 . S
H1452 C1476 0.950 . S
H1453 C1477 0.951 . S
H1454 C1479 0.951 . S
H1455 C1481 0.946 1_554 S
H1456 C1482 0.950 . S
H1457 C1484 0.950 . S
H1458 C1487 0.950 . S
H1459 C1488 0.950 . S
H1460 C1490 0.950 . S
H1461 C1491 0.950 . S
C1462 H1444 0.951 . S
C1462 C1463 1.366 . S
C1462 C1464 1.388 . S
C1463 C1462 1.366 . S
C1463 C1467 1.385 . S
C1464 H1445 0.951 . S
C1464 C1462 1.388 . S
C1464 C1465 1.366 . S
C1465 C1464 1.366 . S
C1465 C1466 1.414 . S
C1465 C1468 1.499 . S
C1466 H1446 0.950 . S
C1466 C1465 1.414 . S
C1466 C1467 1.374 . S
C1467 H1447 0.950 . S
C1467 C1463 1.385 . S
C1467 C1466 1.374 . S
C1468 C1465 1.499 . S
C1468 C1469 1.373 . S
C1468 C1470 1.389 . S
C1469 H1448 0.950 . S
C1469 C1468 1.373 . S
C1469 C1485 1.377 . S
C1470 C1468 1.389 . S
C1470 C1471 1.524 . S
C1470 C1484 1.377 . S
C1471 C1470 1.524 . S
C1471 C1472 1.397 . S
C1471 C1476 1.363 . S
C1472 H1449 0.950 . S
C1472 C1471 1.397 . S
C1472 C1473 1.334 . S
C1473 H1450 0.950 . S
C1473 C1472 1.334 . S
C1473 C1474 1.287 . S
C1474 C1473 1.287 . S
C1474 C1475 1.524 . S
C1474 H1493 0.913 . S
C1475 H1451 0.950 . S
C1475 C1474 1.524 . S
C1475 C1476 1.415 . S
C1476 H1452 0.950 . S
C1476 C1471 1.363 . S
C1476 C1475 1.415 . S
C1477 H1453 0.951 . S
C1477 C1478 1.366 . S
C1477 C1479 1.388 1_556 S
C1478 C1477 1.366 . S
C1478 C1482 1.385 . S
C1479 H1454 0.951 . S
C1479 C1477 1.388 1_554 S
C1479 C1480 1.366 . S
C1480 C1479 1.366 . S
C1480 C1481 1.402 1_554 S
C1480 C1483 1.499 . S
C1481 H1455 0.946 1_556 S
C1481 C1480 1.402 1_556 S
C1481 C1482 1.390 . S
C1482 H1456 0.950 . S
C1482 C1478 1.385 . S
C1482 C1481 1.390 . S
C1483 C1480 1.499 . S
C1483 C1484 1.373 . S
C1483 C1485 1.389 . S
C1484 H1457 0.950 . S
C1484 C1470 1.377 . S
C1484 C1483 1.373 . S
C1485 C1469 1.377 . S
C1485 C1483 1.389 . S
C1485 C1486 1.524 . S
C1486 C1485 1.524 . S
C1486 C1487 1.397 . S
C1486 C1491 1.363 . S
C1487 H1458 0.950 . S
C1487 C1486 1.397 . S
C1487 C1488 1.334 . S
C1488 H1459 0.950 . S
C1488 C1487 1.334 . S
C1488 C1489 1.287 . S
C1489 C1488 1.287 . S
C1489 C1490 1.524 . S
C1489 H1492 0.999 . S
C1490 H1460 0.950 . S
C1490 C1489 1.524 . S
C1490 C1491 1.415 . S
C1491 H1461 0.950 . S
C1491 C1486 1.363 . S
C1491 C1490 1.415 . S
H1492 C1489 0.999 . S
H1493 C1474 0.913 . S
H1494 C1512 0.951 . S
H1495 C1514 0.951 . S
H1496 C1516 0.950 . S
H1497 C1517 0.950 . S
H1498 C1519 0.950 . S
H1499 C1522 0.950 . S
H1500 C1523 0.950 . S
H1501 C1525 0.950 . S
H1502 C1526 0.950 . S
H1503 C1527 0.951 . S
H1504 C1529 0.951 . S
H1505 C1531 0.950 . S
H1506 C1532 0.950 . S
H1507 C1534 0.950 . S
H1508 C1537 0.950 . S
H1509 C1538 0.950 . S
H1510 C1540 0.950 . S
H1511 C1541 0.950 . S
C1512 H1494 0.951 . S
C1512 C1513 1.366 . S
C1512 C1514 1.388 . S
C1513 C1512 1.366 . S
C1513 C1517 1.385 . S
C1514 H1495 0.951 . S
C1514 C1512 1.388 . S
C1514 C1515 1.366 . S
C1515 C1514 1.366 . S
C1515 C1516 1.414 . S
C1515 C1518 1.499 . S
C1516 H1496 0.950 . S
C1516 C1515 1.414 . S
C1516 C1517 1.374 . S
C1517 H1497 0.950 . S
C1517 C1513 1.385 . S
C1517 C1516 1.374 . S
C1518 C1515 1.499 . S
C1518 C1519 1.373 . S
C1518 C1520 1.389 . S
C1519 H1498 0.950 . S
C1519 C1518 1.373 . S
C1519 C1535 1.377 . S
C1520 C1518 1.389 . S
C1520 C1521 1.524 . S
C1520 C1534 1.377 . S
C1521 C1520 1.524 . S
C1521 C1522 1.397 . S
C1521 C1526 1.363 . S
C1522 H1499 0.950 . S
C1522 C1521 1.397 . S
C1522 C1523 1.334 . S
C1523 H1500 0.950 . S
C1523 C1522 1.334 . S
C1523 C1524 1.287 . S
C1524 C1523 1.287 . S
C1524 C1525 1.524 . S
C1524 H1543 0.913 . S
C1525 H1501 0.950 . S
C1525 C1524 1.524 . S
C1525 C1526 1.415 . S
C1526 H1502 0.950 . S
C1526 C1521 1.363 . S
C1526 C1525 1.415 . S
C1527 H1503 0.951 . S
C1527 C1528 1.366 . S
C1527 C1529 1.388 . S
C1528 C1527 1.366 . S
C1528 C1532 1.385 . S
C1529 H1504 0.951 . S
C1529 C1527 1.388 . S
C1529 C1530 1.366 . S
C1530 C1529 1.366 . S
C1530 C1531 1.414 . S
C1530 C1533 1.499 . S
C1531 H1505 0.950 . S
C1531 C1530 1.414 . S
C1531 C1532 1.374 . S
C1532 H1506 0.950 . S
C1532 C1528 1.385 . S
C1532 C1531 1.374 . S
C1533 C1530 1.499 . S
C1533 C1534 1.373 . S
C1533 C1535 1.389 . S
C1534 H1507 0.950 . S
C1534 C1520 1.377 . S
C1534 C1533 1.373 . S
C1535 C1519 1.377 . S
C1535 C1533 1.389 . S
C1535 C1536 1.524 . S
C1536 C1535 1.524 . S
C1536 C1537 1.397 . S
C1536 C1541 1.363 . S
C1537 H1508 0.950 . S
C1537 C1536 1.397 . S
C1537 C1538 1.334 . S
C1538 H1509 0.950 . S
C1538 C1537 1.334 . S
C1538 C1539 1.287 . S
C1539 C1538 1.287 . S
C1539 C1540 1.524 . S
C1539 H1542 0.999 . S
C1540 H1510 0.950 . S
C1540 C1539 1.524 . S
C1540 C1541 1.415 . S
C1541 H1511 0.950 . S
C1541 C1536 1.363 . S
C1541 C1540 1.415 . S
H1542 C1539 0.999 . S
H1543 C1524 0.913 . S
H1544 C1562 0.951 . S
H1545 C1564 0.951 . S
H1546 C1566 0.950 . S
H1547 C1567 0.950 . S
H1548 C1569 0.950 . S
H1549 C1572 0.950 . S
H1550 C1573 0.950 . S
H1551 C1575 0.950 . S
H1552 C1576 0.950 . S
H1553 C1577 0.951 . S
H1554 C1579 0.951 . S
H1555 C1581 0.950 . S
H1556 C1582 0.950 . S
H1557 C1584 0.950 . S
H1558 C1587 0.950 . S
H1559 C1588 0.950 . S
H1560 C1590 0.950 . S
H1561 C1591 0.950 . S
C1562 H1544 0.951 . S
C1562 C1563 1.366 . S
C1562 C1564 1.388 . S
C1563 C1562 1.366 . S
C1563 C1567 1.385 . S
C1564 H1545 0.951 . S
C1564 C1562 1.388 . S
C1564 C1565 1.366 . S
C1565 C1564 1.366 . S
C1565 C1566 1.414 . S
C1565 C1568 1.499 . S
C1566 H1546 0.950 . S
C1566 C1565 1.414 . S
C1566 C1567 1.374 . S
C1567 H1547 0.950 . S
C1567 C1563 1.385 . S
C1567 C1566 1.374 . S
C1568 C1565 1.499 . S
C1568 C1569 1.373 . S
C1568 C1570 1.389 . S
C1569 H1548 0.950 . S
C1569 C1568 1.373 . S
C1569 C1585 1.377 . S
C1570 C1568 1.389 . S
C1570 C1571 1.524 . S
C1570 C1584 1.377 . S
C1571 C1570 1.524 . S
C1571 C1572 1.397 . S
C1571 C1576 1.363 . S
C1572 H1549 0.950 . S
C1572 C1571 1.397 . S
C1572 C1573 1.334 . S
C1573 H1550 0.950 . S
C1573 C1572 1.334 . S
C1573 C1574 1.287 . S
C1574 C1573 1.287 . S
C1574 C1575 1.524 . S
C1574 H1593 0.913 . S
C1575 H1551 0.950 . S
C1575 C1574 1.524 . S
C1575 C1576 1.415 . S
C1576 H1552 0.950 . S
C1576 C1571 1.363 . S
C1576 C1575 1.415 . S
C1577 H1553 0.951 . S
C1577 C1578 1.366 . S
C1577 C1579 1.388 . S
C1578 C1577 1.366 . S
C1578 C1582 1.385 . S
C1579 H1554 0.951 . S
C1579 C1577 1.388 . S
C1579 C1580 1.366 . S
C1580 C1579 1.366 . S
C1580 C1581 1.414 . S
C1580 C1583 1.499 . S
C1581 H1555 0.950 . S
C1581 C1580 1.414 . S
C1581 C1582 1.374 . S
C1582 H1556 0.950 . S
C1582 C1578 1.385 . S
C1582 C1581 1.374 . S
C1583 C1580 1.499 . S
C1583 C1584 1.373 . S
C1583 C1585 1.389 . S
C1584 H1557 0.950 . S
C1584 C1570 1.377 . S
C1584 C1583 1.373 . S
C1585 C1569 1.377 . S
C1585 C1583 1.389 . S
C1585 C1586 1.524 . S
C1586 C1585 1.524 . S
C1586 C1587 1.397 . S
C1586 C1591 1.363 . S
C1587 H1558 0.950 . S
C1587 C1586 1.397 . S
C1587 C1588 1.334 . S
C1588 H1559 0.950 . S
C1588 C1587 1.334 . S
C1588 C1589 1.287 . S
C1589 C1588 1.287 . S
C1589 C1590 1.524 . S
C1589 H1592 0.999 . S
C1590 H1560 0.950 . S
C1590 C1589 1.524 . S
C1590 C1591 1.415 . S
C1591 H1561 0.950 . S
C1591 C1586 1.363 . S
C1591 C1590 1.415 . S
H1592 C1589 0.999 . S
H1593 C1574 0.913 . S
H1594 C1612 0.951 . S
H1595 C1614 0.951 . S
H1596 C1616 0.950 . S
H1597 C1617 0.950 . S
H1598 C1619 0.950 . S
H1599 C1622 0.950 . S
H1600 C1623 0.950 . S
H1601 C1625 0.950 . S
H1602 C1626 0.950 . S
H1603 C1627 0.951 . S
H1604 C1629 0.951 . S
H1605 C1631 0.950 . S
H1606 C1632 0.950 . S
H1607 C1634 0.950 . S
H1608 C1637 0.950 . S
H1609 C1638 0.950 . S
H1610 C1640 0.950 . S
H1611 C1641 0.950 . S
C1612 H1594 0.951 . S
C1612 C1613 1.366 . S
C1612 C1614 1.388 . S
C1613 C1612 1.366 . S
C1613 C1617 1.385 . S
C1614 H1595 0.951 . S
C1614 C1612 1.388 . S
C1614 C1615 1.366 . S
C1615 C1614 1.366 . S
C1615 C1616 1.414 . S
C1615 C1618 1.499 . S
C1616 H1596 0.950 . S
C1616 C1615 1.414 . S
C1616 C1617 1.374 . S
C1617 H1597 0.950 . S
C1617 C1613 1.385 . S
C1617 C1616 1.374 . S
C1618 C1615 1.499 . S
C1618 C1619 1.373 . S
C1618 C1620 1.389 . S
C1619 H1598 0.950 . S
C1619 C1618 1.373 . S
C1619 C1635 1.377 . S
C1620 C1618 1.389 . S
C1620 C1621 1.524 . S
C1620 C1634 1.377 . S
C1621 C1620 1.524 . S
C1621 C1622 1.397 . S
C1621 C1626 1.363 . S
C1622 H1599 0.950 . S
C1622 C1621 1.397 . S
C1622 C1623 1.334 . S
C1623 H1600 0.950 . S
C1623 C1622 1.334 . S
C1623 C1624 1.287 . S
C1624 C1623 1.287 . S
C1624 C1625 1.524 . S
C1624 H1643 0.913 . S
C1625 H1601 0.950 . S
C1625 C1624 1.524 . S
C1625 C1626 1.415 . S
C1626 H1602 0.950 . S
C1626 C1621 1.363 . S
C1626 C1625 1.415 . S
C1627 H1603 0.951 . S
C1627 C1628 1.366 . S
C1627 C1629 1.388 . S
C1628 C1627 1.366 . S
C1628 C1632 1.385 . S
C1629 H1604 0.951 . S
C1629 C1627 1.388 . S
C1629 C1630 1.366 . S
C1630 C1629 1.366 . S
C1630 C1631 1.414 . S
C1630 C1633 1.499 . S
C1631 H1605 0.950 . S
C1631 C1630 1.414 . S
C1631 C1632 1.374 . S
C1632 H1606 0.950 . S
C1632 C1628 1.385 . S
C1632 C1631 1.374 . S
C1633 C1630 1.499 . S
C1633 C1634 1.373 . S
C1633 C1635 1.389 . S
C1634 H1607 0.950 . S
C1634 C1620 1.377 . S
C1634 C1633 1.373 . S
C1635 C1619 1.377 . S
C1635 C1633 1.389 . S
C1635 C1636 1.524 . S
C1636 C1635 1.524 . S
C1636 C1637 1.397 . S
C1636 C1641 1.363 . S
C1637 H1608 0.950 . S
C1637 C1636 1.397 . S
C1637 C1638 1.334 . S
C1638 H1609 0.950 . S
C1638 C1637 1.334 . S
C1638 C1639 1.287 . S
C1639 C1638 1.287 . S
C1639 C1640 1.524 . S
C1639 H1642 0.999 . S
C1640 H1610 0.950 . S
C1640 C1639 1.524 . S
C1640 C1641 1.415 . S
C1641 H1611 0.950 . S
C1641 C1636 1.363 . S
C1641 C1640 1.415 . S
H1642 C1639 0.999 . S
H1643 C1624 0.913 . S
H1644 C1662 0.951 . S
H1645 C1664 0.951 . S
H1646 C1666 0.950 . S
H1647 C1667 0.950 . S
H1648 C1669 0.950 . S
H1649 C1672 0.950 . S
H1650 C1673 0.950 . S
H1651 C1675 0.950 . S
H1652 C1676 0.950 . S
H1653 C1677 0.951 . S
H1654 C1679 0.951 . S
H1655 C1681 0.950 . S
H1656 C1682 0.950 . S
H1657 C1684 0.950 . S
H1658 C1687 0.950 . S
H1659 C1688 0.950 . S
H1660 C1690 0.950 . S
H1661 C1691 0.950 . S
C1662 H1644 0.951 . S
C1662 C1663 1.366 . S
C1662 C1664 1.388 . S
C1663 C1662 1.366 . S
C1663 C1667 1.385 . S
C1664 H1645 0.951 . S
C1664 C1662 1.388 . S
C1664 C1665 1.366 . S
C1665 C1664 1.366 . S
C1665 C1666 1.414 . S
C1665 C1668 1.499 . S
C1666 H1646 0.950 . S
C1666 C1665 1.414 . S
C1666 C1667 1.374 . S
C1667 H1647 0.950 . S
C1667 C1663 1.385 . S
C1667 C1666 1.374 . S
C1668 C1665 1.499 . S
C1668 C1669 1.373 . S
C1668 C1670 1.389 . S
C1669 H1648 0.950 . S
C1669 C1668 1.373 . S
C1669 C1685 1.377 . S
C1670 C1668 1.389 . S
C1670 C1671 1.524 . S
C1670 C1684 1.377 . S
C1671 C1670 1.524 . S
C1671 C1672 1.397 . S
C1671 C1676 1.363 . S
C1672 H1649 0.950 . S
C1672 C1671 1.397 . S
C1672 C1673 1.334 . S
C1673 H1650 0.950 . S
C1673 C1672 1.334 . S
C1673 C1674 1.287 . S
C1674 C1673 1.287 . S
C1674 C1675 1.524 . S
C1674 H1693 0.913 . S
C1675 H1651 0.950 . S
C1675 C1674 1.524 . S
C1675 C1676 1.415 . S
C1676 H1652 0.950 . S
C1676 C1671 1.363 . S
C1676 C1675 1.415 . S
C1677 H1653 0.951 . S
C1677 C1678 1.366 . S
C1677 C1679 1.388 1_554 S
C1678 C1677 1.366 . S
C1678 C1682 1.385 . S
C1679 H1654 0.951 . S
C1679 C1677 1.388 1_556 S
C1679 C1680 1.366 . S
C1680 C1679 1.366 . S
C1680 C1681 1.414 . S
C1680 C1683 1.499 . S
C1681 H1655 0.950 . S
C1681 C1680 1.414 . S
C1681 C1682 1.374 1_556 S
C1682 H1656 0.950 . S
C1682 C1678 1.385 . S
C1682 C1681 1.374 1_554 S
C1683 C1680 1.499 . S
C1683 C1684 1.373 . S
C1683 C1685 1.389 . S
C1684 H1657 0.950 . S
C1684 C1670 1.377 . S
C1684 C1683 1.373 . S
C1685 C1669 1.377 . S
C1685 C1683 1.389 . S
C1685 C1686 1.524 . S
C1686 C1685 1.524 . S
C1686 C1687 1.397 . S
C1686 C1691 1.363 . S
C1687 H1658 0.950 . S
C1687 C1686 1.397 . S
C1687 C1688 1.334 . S
C1688 H1659 0.950 . S
C1688 C1687 1.334 . S
C1688 C1689 1.287 . S
C1689 C1688 1.287 . S
C1689 C1690 1.524 . S
C1689 H1692 0.999 . S
C1690 H1660 0.950 . S
C1690 C1689 1.524 . S
C1690 C1691 1.415 . S
C1691 H1661 0.950 . S
C1691 C1686 1.363 . S
C1691 C1690 1.415 . S
H1692 C1689 0.999 . S
H1693 C1674 0.913 . S
H1694 C1712 0.951 . S
H1695 C1714 0.951 . S
H1696 C1716 0.957 . S
H1697 C1717 0.950 . S
H1698 C1719 0.950 . S
H1699 C1722 0.950 . S
H1700 C1723 0.950 . S
H1701 C1725 0.950 . S
H1702 C1726 0.950 . S
H1703 C1727 0.951 . S
H1704 C1729 0.951 . S
H1705 C1731 0.950 . S
H1706 C1732 0.950 . S
H1707 C1734 0.950 . S
H1708 C1737 0.950 . S
H1709 C1738 0.950 . S
H1710 C1740 0.950 . S
H1711 C1741 0.950 . S
C1712 H1694 0.951 . S
C1712 C1713 1.366 . S
C1712 C1714 1.388 1_556 S
C1713 C1712 1.366 . S
C1713 C1717 1.385 . S
C1714 H1695 0.951 . S
C1714 C1712 1.388 1_554 S
C1714 C1715 1.366 . S
C1715 C1714 1.366 . S
C1715 C1716 1.430 . S
C1715 C1718 1.499 . S
C1716 H1696 0.957 . S
C1716 C1715 1.430 . S
C1716 C1717 1.352 1_554 S
C1717 H1697 0.950 . S
C1717 C1713 1.385 . S
C1717 C1716 1.352 1_556 S
C1718 C1715 1.499 . S
C1718 C1719 1.373 . S
C1718 C1720 1.389 . S
C1719 H1698 0.950 . S
C1719 C1718 1.373 . S
C1719 C1735 1.377 . S
C1720 C1718 1.389 . S
C1720 C1721 1.524 . S
C1720 C1734 1.377 . S
C1721 C1720 1.524 . S
C1721 C1722 1.397 . S
C1721 C1726 1.363 . S
C1722 H1699 0.950 . S
C1722 C1721 1.397 . S
C1722 C1723 1.334 . S
C1723 H1700 0.950 . S
C1723 C1722 1.334 . S
C1723 C1724 1.287 . S
C1724 C1723 1.287 . S
C1724 C1725 1.524 . S
C1724 H1743 0.913 . S
C1725 H1701 0.950 . S
C1725 C1724 1.524 . S
C1725 C1726 1.415 . S
C1726 H1702 0.950 . S
C1726 C1721 1.363 . S
C1726 C1725 1.415 . S
C1727 H1703 0.951 . S
C1727 C1728 1.366 . S
C1727 C1729 1.388 . S
C1728 C1727 1.366 . S
C1728 C1732 1.385 . S
C1729 H1704 0.951 . S
C1729 C1727 1.388 . S
C1729 C1730 1.366 . S
C1730 C1729 1.366 . S
C1730 C1731 1.414 . S
C1730 C1733 1.499 . S
C1731 H1705 0.950 . S
C1731 C1730 1.414 . S
C1731 C1732 1.374 . S
C1732 H1706 0.950 . S
C1732 C1728 1.385 . S
C1732 C1731 1.374 . S
C1733 C1730 1.499 . S
C1733 C1734 1.373 . S
C1733 C1735 1.389 . S
C1734 H1707 0.950 . S
C1734 C1720 1.377 . S
C1734 C1733 1.373 . S
C1735 C1719 1.377 . S
C1735 C1733 1.389 . S
C1735 C1736 1.524 . S
C1736 C1735 1.524 . S
C1736 C1737 1.397 . S
C1736 C1741 1.363 . S
C1737 H1708 0.950 . S
C1737 C1736 1.397 . S
C1737 C1738 1.334 . S
C1738 H1709 0.950 . S
C1738 C1737 1.334 . S
C1738 C1739 1.287 . S
C1739 C1738 1.287 . S
C1739 C1740 1.524 . S
C1739 H1742 0.999 . S
C1740 H1710 0.950 . S
C1740 C1739 1.524 . S
C1740 C1741 1.415 . S
C1741 H1711 0.950 . S
C1741 C1736 1.363 . S
C1741 C1740 1.415 . S
H1742 C1739 0.999 . S
H1743 C1724 0.913 . S
H1744 C1762 0.951 . S
H1745 C1764 0.951 . S
H1746 C1766 0.950 . S
H1747 C1767 0.950 . S
H1748 C1769 0.950 . S
H1749 C1772 0.950 . S
H1750 C1773 0.950 . S
H1751 C1775 0.950 . S
H1752 C1776 0.950 . S
H1753 C1777 0.951 . S
H1754 C1779 0.951 . S
H1755 C1781 0.950 . S
H1756 C1782 0.950 . S
H1757 C1784 0.950 . S
H1758 C1787 0.950 . S
H1759 C1788 0.950 . S
H1760 C1790 0.950 . S
H1761 C1791 0.950 . S
C1762 H1744 0.951 . S
C1762 C1763 1.366 . S
C1762 C1764 1.388 . S
C1763 C1762 1.366 . S
C1763 C1767 1.385 . S
C1764 H1745 0.951 . S
C1764 C1762 1.388 . S
C1764 C1765 1.366 . S
C1765 C1764 1.366 . S
C1765 C1766 1.414 . S
C1765 C1768 1.499 . S
C1766 H1746 0.950 . S
C1766 C1765 1.414 . S
C1766 C1767 1.374 . S
C1767 H1747 0.950 . S
C1767 C1763 1.385 . S
C1767 C1766 1.374 . S
C1768 C1765 1.499 . S
C1768 C1769 1.373 . S
C1768 C1770 1.389 . S
C1769 H1748 0.950 . S
C1769 C1768 1.373 . S
C1769 C1785 1.377 . S
C1770 C1768 1.389 . S
C1770 C1771 1.524 . S
C1770 C1784 1.377 . S
C1771 C1770 1.524 . S
C1771 C1772 1.397 . S
C1771 C1776 1.363 . S
C1772 H1749 0.950 . S
C1772 C1771 1.397 . S
C1772 C1773 1.334 . S
C1773 H1750 0.950 . S
C1773 C1772 1.334 . S
C1773 C1774 1.287 . S
C1774 C1773 1.287 . S
C1774 C1775 1.524 . S
C1774 H1793 0.913 . S
C1775 H1751 0.950 . S
C1775 C1774 1.524 . S
C1775 C1776 1.415 . S
C1776 H1752 0.950 . S
C1776 C1771 1.363 . S
C1776 C1775 1.415 . S
C1777 H1753 0.951 . S
C1777 C1778 1.366 . S
C1777 C1779 1.388 . S
C1778 C1777 1.366 . S
C1778 C1782 1.385 . S
C1779 H1754 0.951 . S
C1779 C1777 1.388 . S
C1779 C1780 1.366 . S
C1780 C1779 1.366 . S
C1780 C1781 1.414 . S
C1780 C1783 1.499 . S
C1781 H1755 0.950 . S
C1781 C1780 1.414 . S
C1781 C1782 1.374 . S
C1782 H1756 0.950 . S
C1782 C1778 1.385 . S
C1782 C1781 1.374 . S
C1783 C1780 1.499 . S
C1783 C1784 1.373 . S
C1783 C1785 1.389 . S
C1784 H1757 0.950 . S
C1784 C1770 1.377 . S
C1784 C1783 1.373 . S
C1785 C1769 1.377 . S
C1785 C1783 1.389 . S
C1785 C1786 1.524 . S
C1786 C1785 1.524 . S
C1786 C1787 1.397 . S
C1786 C1791 1.363 . S
C1787 H1758 0.950 . S
C1787 C1786 1.397 . S
C1787 C1788 1.334 . S
C1788 H1759 0.950 . S
C1788 C1787 1.334 . S
C1788 C1789 1.287 . S
C1789 C1788 1.287 . S
C1789 C1790 1.524 . S
C1789 H1792 0.999 . S
C1790 H1760 0.950 . S
C1790 C1789 1.524 . S
C1790 C1791 1.415 . S
C1791 H1761 0.950 . S
C1791 C1786 1.363 . S
C1791 C1790 1.415 . S
H1792 C1789 0.999 . S
H1793 C1774 0.913 . S
H1794 C1812 0.951 . S
H1795 C1814 0.951 . S
H1796 C1816 0.950 . S
H1797 C1817 0.950 . S
H1798 C1819 0.950 . S
H1799 C1822 0.950 . S
H1800 C1823 0.950 . S
H1801 C1825 0.950 . S
H1802 C1826 0.950 . S
H1803 C1827 0.951 . S
H1804 C1829 0.951 . S
H1805 C1831 0.950 . S
H1806 C1832 0.950 . S
H1807 C1834 0.950 . S
H1808 C1837 0.950 . S
H1809 C1838 0.950 . S
H1810 C1840 0.950 . S
H1811 C1841 0.950 . S
C1812 H1794 0.951 . S
C1812 C1813 1.366 . S
C1812 C1814 1.388 . S
C1813 C1812 1.366 . S
C1813 C1817 1.385 . S
C1814 H1795 0.951 . S
C1814 C1812 1.388 . S
C1814 C1815 1.366 . S
C1815 C1814 1.366 . S
C1815 C1816 1.414 . S
C1815 C1818 1.499 . S
C1816 H1796 0.950 . S
C1816 C1815 1.414 . S
C1816 C1817 1.374 . S
C1817 H1797 0.950 . S
C1817 C1813 1.385 . S
C1817 C1816 1.374 . S
C1818 C1815 1.499 . S
C1818 C1819 1.373 . S
C1818 C1820 1.389 . S
C1819 H1798 0.950 . S
C1819 C1818 1.373 . S
C1819 C1835 1.377 . S
C1820 C1818 1.389 . S
C1820 C1821 1.524 . S
C1820 C1834 1.377 . S
C1821 C1820 1.524 . S
C1821 C1822 1.397 . S
C1821 C1826 1.363 . S
C1822 H1799 0.950 . S
C1822 C1821 1.397 . S
C1822 C1823 1.334 . S
C1823 H1800 0.950 . S
C1823 C1822 1.334 . S
C1823 C1824 1.287 . S
C1824 C1823 1.287 . S
C1824 C1825 1.524 . S
C1824 H1843 0.913 . S
C1825 H1801 0.950 . S
C1825 C1824 1.524 . S
C1825 C1826 1.415 . S
C1826 H1802 0.950 . S
C1826 C1821 1.363 . S
C1826 C1825 1.415 . S
C1827 H1803 0.951 . S
C1827 C1828 1.366 . S
C1827 C1829 1.387 1_556 S
C1828 C1827 1.366 . S
C1828 C1832 1.385 . S
C1829 H1804 0.951 . S
C1829 C1827 1.387 1_554 S
C1829 C1830 1.366 . S
C1830 C1829 1.366 . S
C1830 C1831 1.414 . S
C1830 C1833 1.499 . S
C1831 H1805 0.950 . S
C1831 C1830 1.414 . S
C1831 C1832 1.374 1_554 S
C1832 H1806 0.950 . S
C1832 C1828 1.385 . S
C1832 C1831 1.374 1_556 S
C1833 C1830 1.499 . S
C1833 C1834 1.373 . S
C1833 C1835 1.389 . S
C1834 H1807 0.950 . S
C1834 C1820 1.377 . S
C1834 C1833 1.373 . S
C1835 C1819 1.377 . S
C1835 C1833 1.389 . S
C1835 C1836 1.524 . S
C1836 C1835 1.524 . S
C1836 C1837 1.397 . S
C1836 C1841 1.363 . S
C1837 H1808 0.950 . S
C1837 C1836 1.397 . S
C1837 C1838 1.334 . S
C1838 H1809 0.950 . S
C1838 C1837 1.334 . S
C1838 C1839 1.287 . S
C1839 C1838 1.287 . S
C1839 C1840 1.524 . S
C1839 H1842 0.999 . S
C1840 H1810 0.950 . S
C1840 C1839 1.524 . S
C1840 C1841 1.415 . S
C1841 H1811 0.950 . S
C1841 C1836 1.363 . S
C1841 C1840 1.415 . S
H1842 C1839 0.999 . S
H1843 C1824 0.913 . S
H1844 C1862 0.951 . S
H1845 C1864 0.951 . S
H1846 C1866 0.950 . S
H1847 C1867 0.950 . S
H1848 C1869 0.950 . S
H1849 C1872 0.950 . S
H1850 C1873 0.950 1_554 S
H1851 C1875 0.950 . S
H1852 C1876 0.950 . S
H1853 C1877 0.951 . S
H1854 C1879 0.951 . S
H1855 C1881 0.950 . S
H1856 C1882 0.950 . S
H1857 C1884 0.950 . S
H1858 C1887 0.950 . S
H1859 C1888 0.950 . S
H1860 C1890 0.950 . S
H1861 C1891 0.950 . S
C1862 H1844 0.951 . S
C1862 C1863 1.366 . S
C1862 C1864 1.388 1_554 S
C1863 C1862 1.366 . S
C1863 C1867 1.385 . S
C1864 H1845 0.951 . S
C1864 C1862 1.388 1_556 S
C1864 C1865 1.366 . S
C1865 C1864 1.366 . S
C1865 C1866 1.414 . S
C1865 C1868 1.499 . S
C1866 H1846 0.950 . S
C1866 C1865 1.414 . S
C1866 C1867 1.374 1_556 S
C1867 H1847 0.950 . S
C1867 C1863 1.385 . S
C1867 C1866 1.374 1_554 S
C1868 C1865 1.499 . S
C1868 C1869 1.373 . S
C1868 C1870 1.389 . S
C1869 H1848 0.950 . S
C1869 C1868 1.373 . S
C1869 C1885 1.377 . S
C1870 C1868 1.389 . S
C1870 C1871 1.524 . S
C1870 C1884 1.377 . S
C1871 C1870 1.524 . S
C1871 C1872 1.397 . S
C1871 C1876 1.363 . S
C1872 H1849 0.950 . S
C1872 C1871 1.397 . S
C1872 C1873 1.334 . S
C1873 H1850 0.950 1_556 S
C1873 C1872 1.334 . S
C1873 C1874 1.287 . S
C1874 C1873 1.287 . S
C1874 C1875 1.524 . S
C1874 H1893 0.913 . S
C1875 H1851 0.950 . S
C1875 C1874 1.524 . S
C1875 C1876 1.415 . S
C1876 H1852 0.950 . S
C1876 C1871 1.363 . S
C1876 C1875 1.415 . S
C1877 H1853 0.951 . S
C1877 C1878 1.366 . S
C1877 C1879 1.388 . S
C1878 C1877 1.366 . S
C1878 C1882 1.385 . S
C1879 H1854 0.951 . S
C1879 C1877 1.388 . S
C1879 C1880 1.366 . S
C1880 C1879 1.366 . S
C1880 C1881 1.414 . S
C1880 C1883 1.499 . S
C1881 H1855 0.950 . S
C1881 C1880 1.414 . S
C1881 C1882 1.374 . S
C1882 H1856 0.950 . S
C1882 C1878 1.385 . S
C1882 C1881 1.374 . S
C1883 C1880 1.499 . S
C1883 C1884 1.373 . S
C1883 C1885 1.389 . S
C1884 H1857 0.950 . S
C1884 C1870 1.377 . S
C1884 C1883 1.373 . S
C1885 C1869 1.377 . S
C1885 C1883 1.389 . S
C1885 C1886 1.524 . S
C1886 C1885 1.524 . S
C1886 C1887 1.397 . S
C1886 C1891 1.363 . S
C1887 H1858 0.950 . S
C1887 C1886 1.397 . S
C1887 C1888 1.334 . S
C1888 H1859 0.950 . S
C1888 C1887 1.334 . S
C1888 C1889 1.287 . S
C1889 C1888 1.287 . S
C1889 C1890 1.524 . S
C1889 H1892 0.999 . S
C1890 H1860 0.950 . S
C1890 C1889 1.524 . S
C1890 C1891 1.415 . S
C1891 H1861 0.950 . S
C1891 C1886 1.363 . S
C1891 C1890 1.415 . S
H1892 C1889 0.999 . S
H1893 C1874 0.913 . S
H1894 C1912 0.951 . S
H1895 C1914 0.951 . S
H1896 C1916 0.950 . S
H1897 C1917 0.950 . S
H1898 C1919 0.950 . S
H1899 C1922 0.950 . S
H1900 C1923 0.950 . S
H1901 C1925 0.950 . S
H1902 C1926 0.950 . S
H1903 C1927 0.951 . S
H1904 C1929 0.951 . S
H1905 C1931 0.950 . S
H1906 C1932 0.950 . S
H1907 C1934 0.950 . S
H1908 C1937 0.950 . S
H1909 C1938 0.950 . S
H1910 C1940 0.950 . S
H1911 C1941 0.950 . S
C1912 H1894 0.951 . S
C1912 C1913 1.366 . S
C1912 C1914 1.388 . S
C1913 C1912 1.366 . S
C1913 C1917 1.385 . S
C1914 H1895 0.951 . S
C1914 C1912 1.388 . S
C1914 C1915 1.366 . S
C1915 C1914 1.366 . S
C1915 C1916 1.414 . S
C1915 C1918 1.499 . S
C1916 H1896 0.950 . S
C1916 C1915 1.414 . S
C1916 C1917 1.374 . S
C1917 H1897 0.950 . S
C1917 C1913 1.385 . S
C1917 C1916 1.374 . S
C1918 C1915 1.499 . S
C1918 C1919 1.373 . S
C1918 C1920 1.389 . S
C1919 H1898 0.950 . S
C1919 C1918 1.373 . S
C1919 C1935 1.377 . S
C1920 C1918 1.389 . S
C1920 C1921 1.524 . S
C1920 C1934 1.377 . S
C1921 C1920 1.524 . S
C1921 C1922 1.397 . S
C1921 C1926 1.363 . S
C1922 H1899 0.950 . S
C1922 C1921 1.397 . S
C1922 C1923 1.334 . S
C1923 H1900 0.950 . S
C1923 C1922 1.334 . S
C1923 C1924 1.287 . S
C1924 C1923 1.287 . S
C1924 C1925 1.524 . S
C1924 H1943 0.913 . S
C1925 H1901 0.950 . S
C1925 C1924 1.524 . S
C1925 C1926 1.415 . S
C1926 H1902 0.950 . S
C1926 C1921 1.363 . S
C1926 C1925 1.415 . S
C1927 H1903 0.951 . S
C1927 C1928 1.366 . S
C1927 C1929 1.388 . S
C1928 C1927 1.366 . S
C1928 C1932 1.385 . S
C1929 H1904 0.951 . S
C1929 C1927 1.388 . S
C1929 C1930 1.366 . S
C1930 C1929 1.366 . S
C1930 C1931 1.414 . S
C1930 C1933 1.499 . S
C1931 H1905 0.950 . S
C1931 C1930 1.414 . S
C1931 C1932 1.374 . S
C1932 H1906 0.950 . S
C1932 C1928 1.385 . S
C1932 C1931 1.374 . S
C1933 C1930 1.499 . S
C1933 C1934 1.373 . S
C1933 C1935 1.389 . S
C1934 H1907 0.950 . S
C1934 C1920 1.377 . S
C1934 C1933 1.373 . S
C1935 C1919 1.377 . S
C1935 C1933 1.389 . S
C1935 C1936 1.524 . S
C1936 C1935 1.524 . S
C1936 C1937 1.397 . S
C1936 C1941 1.363 . S
C1937 H1908 0.950 . S
C1937 C1936 1.397 . S
C1937 C1938 1.334 . S
C1938 H1909 0.950 . S
C1938 C1937 1.334 . S
C1938 C1939 1.287 . S
C1939 C1938 1.287 . S
C1939 C1940 1.524 . S
C1939 H1942 0.999 . S
C1940 H1910 0.950 . S
C1940 C1939 1.524 . S
C1940 C1941 1.415 . S
C1941 H1911 0.950 . S
C1941 C1936 1.363 . S
C1941 C1940 1.415 . S
H1942 C1939 0.999 . S
H1943 C1924 0.913 . S
H1944 C1962 0.951 . S
H1945 C1964 0.951 . S
H1946 C1966 0.950 . S
H1947 C1967 0.950 . S
H1948 C1969 0.950 . S
H1949 C1972 0.950 . S
H1950 C1973 0.950 . S
H1951 C1975 0.950 . S
H1952 C1976 0.950 . S
H1953 C1977 0.951 . S
H1954 C1979 0.951 . S
H1955 C1981 0.950 . S
H1956 C1982 0.950 . S
H1957 C1984 0.950 . S
H1958 C1987 0.950 . S
H1959 C1988 0.950 . S
H1960 C1990 0.950 . S
H1961 C1991 0.950 . S
C1962 H1944 0.951 . S
C1962 C1963 1.366 . S
C1962 C1964 1.388 . S
C1963 C1962 1.366 . S
C1963 C1967 1.385 . S
C1964 H1945 0.951 . S
C1964 C1962 1.388 . S
C1964 C1965 1.366 . S
C1965 C1964 1.366 . S
C1965 C1966 1.414 . S
C1965 C1968 1.499 . S
C1966 H1946 0.950 . S
C1966 C1965 1.414 . S
C1966 C1967 1.374 . S
C1967 H1947 0.950 . S
C1967 C1963 1.385 . S
C1967 C1966 1.374 . S
C1968 C1965 1.499 . S
C1968 C1969 1.373 . S
C1968 C1970 1.389 . S
C1969 H1948 0.950 . S
C1969 C1968 1.373 . S
C1969 C1985 1.377 . S
C1970 C1968 1.389 . S
C1970 C1971 1.524 . S
C1970 C1984 1.377 . S
C1971 C1970 1.524 . S
C1971 C1972 1.397 . S
C1971 C1976 1.363 . S
C1972 H1949 0.950 . S
C1972 C1971 1.397 . S
C1972 C1973 1.334 . S
C1973 H1950 0.950 . S
C1973 C1972 1.334 . S
C1973 C1974 1.287 . S
C1974 C1973 1.287 . S
C1974 C1975 1.524 . S
C1974 H1993 0.913 . S
C1975 H1951 0.950 . S
C1975 C1974 1.524 . S
C1975 C1976 1.415 . S
C1976 H1952 0.950 . S
C1976 C1971 1.363 . S
C1976 C1975 1.415 . S
C1977 H1953 0.951 . S
C1977 C1978 1.366 . S
C1977 C1979 1.388 . S
C1978 C1977 1.366 . S
C1978 C1982 1.385 . S
C1979 H1954 0.951 . S
C1979 C1977 1.388 . S
C1979 C1980 1.366 . S
C1980 C1979 1.366 . S
C1980 C1981 1.414 . S
C1980 C1983 1.499 . S
C1981 H1955 0.950 . S
C1981 C1980 1.414 . S
C1981 C1982 1.374 . S
C1982 H1956 0.950 . S
C1982 C1978 1.385 . S
C1982 C1981 1.374 . S
C1983 C1980 1.499 . S
C1983 C1984 1.373 . S
C1983 C1985 1.389 . S
C1984 H1957 0.950 . S
C1984 C1970 1.377 . S
C1984 C1983 1.373 . S
C1985 C1969 1.377 . S
C1985 C1983 1.389 . S
C1985 C1986 1.524 . S
C1986 C1985 1.524 . S
C1986 C1987 1.397 . S
C1986 C1991 1.363 . S
C1987 H1958 0.950 . S
C1987 C1986 1.397 . S
C1987 C1988 1.334 . S
C1988 H1959 0.950 . S
C1988 C1987 1.334 . S
C1988 C1989 1.287 . S
C1989 C1988 1.287 . S
C1989 C1990 1.524 . S
C1989 H1992 0.999 . S
C1990 H1960 0.950 . S
C1990 C1989 1.524 . S
C1990 C1991 1.415 . S
C1991 H1961 0.950 . S
C1991 C1986 1.363 . S
C1991 C1990 1.415 . S
H1992 C1989 0.999 . S
H1993 C1974 0.913 . S
H1994 C2012 0.951 . S
H1995 C2014 0.951 . S
H1996 C2016 0.950 . S
H1997 C2017 0.950 . S
H1998 C2019 0.950 . S
H1999 C2022 0.950 . S
H2000 C2023 0.950 . S
H2001 C2025 0.950 . S
H2002 C2026 0.950 . S
H2003 C2027 0.951 . S
H2004 C2029 0.951 . S
H2005 C2031 0.950 . S
H2006 C2032 0.950 . S
H2007 C2034 0.950 . S
H2008 C2037 0.950 . S
H2009 C2038 0.950 . S
H2010 C2040 0.950 . S
H2011 C2041 0.950 . S
C2012 H1994 0.951 . S
C2012 C2013 1.366 . S
C2012 C2014 1.388 . S
C2013 C2012 1.366 . S
C2013 C2017 1.385 . S
C2014 H1995 0.951 . S
C2014 C2012 1.388 . S
C2014 C2015 1.366 . S
C2015 C2014 1.366 . S
C2015 C2016 1.414 . S
C2015 C2018 1.499 . S
C2016 H1996 0.950 . S
C2016 C2015 1.414 . S
C2016 C2017 1.374 . S
C2017 H1997 0.950 . S
C2017 C2013 1.385 . S
C2017 C2016 1.374 . S
C2018 C2015 1.499 . S
C2018 C2019 1.373 . S
C2018 C2020 1.389 . S
C2019 H1998 0.950 . S
C2019 C2018 1.373 . S
C2019 C2035 1.377 . S
C2020 C2018 1.389 . S
C2020 C2021 1.524 . S
C2020 C2034 1.377 . S
C2021 C2020 1.524 . S
C2021 C2022 1.397 . S
C2021 C2026 1.363 . S
C2022 H1999 0.950 . S
C2022 C2021 1.397 . S
C2022 C2023 1.334 . S
C2023 H2000 0.950 . S
C2023 C2022 1.334 . S
C2023 C2024 1.287 . S
C2024 C2023 1.287 . S
C2024 C2025 1.524 . S
C2024 H2043 0.913 . S
C2025 H2001 0.950 . S
C2025 C2024 1.524 . S
C2025 C2026 1.415 . S
C2026 H2002 0.950 . S
C2026 C2021 1.363 . S
C2026 C2025 1.415 . S
C2027 H2003 0.951 . S
C2027 C2028 1.366 . S
C2027 C2029 1.388 . S
C2028 C2027 1.366 . S
C2028 C2032 1.385 . S
C2029 H2004 0.951 . S
C2029 C2027 1.388 . S
C2029 C2030 1.366 . S
C2030 C2029 1.366 . S
C2030 C2031 1.414 . S
C2030 C2033 1.499 . S
C2031 H2005 0.950 . S
C2031 C2030 1.414 . S
C2031 C2032 1.374 . S
C2032 H2006 0.950 . S
C2032 C2028 1.385 . S
C2032 C2031 1.374 . S
C2033 C2030 1.499 . S
C2033 C2034 1.373 . S
C2033 C2035 1.389 . S
C2034 H2007 0.950 . S
C2034 C2020 1.377 . S
C2034 C2033 1.373 . S
C2035 C2019 1.377 . S
C2035 C2033 1.389 . S
C2035 C2036 1.524 . S
C2036 C2035 1.524 . S
C2036 C2037 1.397 . S
C2036 C2041 1.363 . S
C2037 H2008 0.950 . S
C2037 C2036 1.397 . S
C2037 C2038 1.334 . S
C2038 H2009 0.950 . S
C2038 C2037 1.334 . S
C2038 C2039 1.287 . S
C2039 C2038 1.287 . S
C2039 C2040 1.524 . S
C2039 H2042 0.999 . S
C2040 H2010 0.950 . S
C2040 C2039 1.524 . S
C2040 C2041 1.415 . S
C2041 H2011 0.950 . S
C2041 C2036 1.363 . S
C2041 C2040 1.415 . S
H2042 C2039 0.999 . S
H2043 C2024 0.913 . S
H2044 C2062 0.951 . S
H2045 C2064 0.951 . S
H2046 C2066 0.950 . S
H2047 C2067 0.950 . S
H2048 C2069 0.950 . S
H2049 C2072 0.950 . S
H2050 C2073 0.950 . S
H2051 C2075 0.950 . S
H2052 C2076 0.950 . S
H2053 C2077 0.951 . S
H2054 C2079 0.951 . S
H2055 C2081 0.950 . S
H2056 C2082 0.950 . S
H2057 C2084 0.950 . S
H2058 C2087 0.950 . S
H2059 C2088 0.950 . S
H2060 C2090 0.950 . S
H2061 C2091 0.950 . S
C2062 H2044 0.951 . S
C2062 C2063 1.366 . S
C2062 C2064 1.388 . S
C2063 C2062 1.366 . S
C2063 C2067 1.385 . S
C2064 H2045 0.951 . S
C2064 C2062 1.388 . S
C2064 C2065 1.366 . S
C2065 C2064 1.366 . S
C2065 C2066 1.414 . S
C2065 C2068 1.499 . S
C2066 H2046 0.950 . S
C2066 C2065 1.414 . S
C2066 C2067 1.374 . S
C2067 H2047 0.950 . S
C2067 C2063 1.385 . S
C2067 C2066 1.374 . S
C2068 C2065 1.499 . S
C2068 C2069 1.373 . S
C2068 C2070 1.389 . S
C2069 H2048 0.950 . S
C2069 C2068 1.373 . S
C2069 C2085 1.377 . S
C2070 C2068 1.389 . S
C2070 C2071 1.524 . S
C2070 C2084 1.377 . S
C2071 C2070 1.524 . S
C2071 C2072 1.397 . S
C2071 C2076 1.363 . S
C2072 H2049 0.950 . S
C2072 C2071 1.397 . S
C2072 C2073 1.334 . S
C2073 H2050 0.950 . S
C2073 C2072 1.334 . S
C2073 C2074 1.287 . S
C2074 C2073 1.287 . S
C2074 C2075 1.524 . S
C2074 H2093 0.913 . S
C2075 H2051 0.950 . S
C2075 C2074 1.524 . S
C2075 C2076 1.415 . S
C2076 H2052 0.950 . S
C2076 C2071 1.363 . S
C2076 C2075 1.415 . S
C2077 H2053 0.951 . S
C2077 C2078 1.366 . S
C2077 C2079 1.388 1_556 S
C2078 C2077 1.366 . S
C2078 C2082 1.385 . S
C2079 H2054 0.951 . S
C2079 C2077 1.388 1_554 S
C2079 C2080 1.366 . S
C2080 C2079 1.366 . S
C2080 C2081 1.413 . S
C2080 C2083 1.499 . S
C2081 H2055 0.950 . S
C2081 C2080 1.413 . S
C2081 C2082 1.375 1_554 S
C2082 H2056 0.950 . S
C2082 C2078 1.385 . S
C2082 C2081 1.375 1_556 S
C2083 C2080 1.499 . S
C2083 C2084 1.373 . S
C2083 C2085 1.389 . S
C2084 H2057 0.950 . S
C2084 C2070 1.377 . S
C2084 C2083 1.373 . S
C2085 C2069 1.377 . S
C2085 C2083 1.389 . S
C2085 C2086 1.524 . S
C2086 C2085 1.524 . S
C2086 C2087 1.397 . S
C2086 C2091 1.363 . S
C2087 H2058 0.950 . S
C2087 C2086 1.397 . S
C2087 C2088 1.334 . S
C2088 H2059 0.950 . S
C2088 C2087 1.334 . S
C2088 C2089 1.287 . S
C2089 C2088 1.287 . S
C2089 C2090 1.524 . S
C2089 H2092 0.999 . S
C2090 H2060 0.950 . S
C2090 C2089 1.524 . S
C2090 C2091 1.415 . S
C2091 H2061 0.950 . S
C2091 C2086 1.363 . S
C2091 C2090 1.415 . S
H2092 C2089 0.999 . S
H2093 C2074 0.913 . S
H2094 C2112 0.951 . S
H2095 C2114 0.952 . S
H2096 C2116 0.950 . S
H2097 C2117 0.950 . S
H2098 C2119 0.950 . S
H2099 C2122 0.950 . S
H2100 C2123 0.950 . S
H2101 C2125 0.950 . S
H2102 C2126 0.950 . S
H2103 C2127 0.951 . S
H2104 C2129 0.951 . S
H2105 C2131 0.950 . S
H2106 C2132 0.950 . S
H2107 C2134 0.950 . S
H2108 C2137 0.950 . S
H2109 C2138 0.950 . S
H2110 C2140 0.950 . S
H2111 C2141 0.950 . S
C2112 H2094 0.951 . S
C2112 C2113 1.366 . S
C2112 C2114 1.383 1_554 S
C2113 C2112 1.366 . S
C2113 C2117 1.385 . S
C2114 H2095 0.952 . S
C2114 C2112 1.383 1_556 S
C2114 C2115 1.369 . S
C2115 C2114 1.369 . S
C2115 C2116 1.414 . S
C2115 C2118 1.499 . S
C2116 H2096 0.950 . S
C2116 C2115 1.414 . S
C2116 C2117 1.374 1_556 S
C2117 H2097 0.950 . S
C2117 C2113 1.385 . S
C2117 C2116 1.374 1_554 S
C2118 C2115 1.499 . S
C2118 C2119 1.373 . S
C2118 C2120 1.389 . S
C2119 H2098 0.950 . S
C2119 C2118 1.373 . S
C2119 C2135 1.377 . S
C2120 C2118 1.389 . S
C2120 C2121 1.524 . S
C2120 C2134 1.377 . S
C2121 C2120 1.524 . S
C2121 C2122 1.397 . S
C2121 C2126 1.363 . S
C2122 H2099 0.950 . S
C2122 C2121 1.397 . S
C2122 C2123 1.334 . S
C2123 H2100 0.950 . S
C2123 C2122 1.334 . S
C2123 C2124 1.287 . S
C2124 C2123 1.287 . S
C2124 C2125 1.524 . S
C2124 H2143 0.903 1_556 S
C2125 H2101 0.950 . S
C2125 C2124 1.524 . S
C2125 C2126 1.415 . S
C2126 H2102 0.950 . S
C2126 C2121 1.363 . S
C2126 C2125 1.415 . S
C2127 H2103 0.951 . S
C2127 C2128 1.366 . S
C2127 C2129 1.388 . S
C2128 C2127 1.366 . S
C2128 C2132 1.385 . S
C2129 H2104 0.951 . S
C2129 C2127 1.388 . S
C2129 C2130 1.366 . S
C2130 C2129 1.366 . S
C2130 C2131 1.414 . S
C2130 C2133 1.499 . S
C2131 H2105 0.950 . S
C2131 C2130 1.414 . S
C2131 C2132 1.374 . S
C2132 H2106 0.950 . S
C2132 C2128 1.385 . S
C2132 C2131 1.374 . S
C2133 C2130 1.499 . S
C2133 C2134 1.373 . S
C2133 C2135 1.389 . S
C2134 H2107 0.950 . S
C2134 C2120 1.377 . S
C2134 C2133 1.373 . S
C2135 C2119 1.377 . S
C2135 C2133 1.389 . S
C2135 C2136 1.524 . S
C2136 C2135 1.524 . S
C2136 C2137 1.397 . S
C2136 C2141 1.363 . S
C2137 H2108 0.950 . S
C2137 C2136 1.397 . S
C2137 C2138 1.334 . S
C2138 H2109 0.950 . S
C2138 C2137 1.334 . S
C2138 C2139 1.287 . S
C2139 C2138 1.287 . S
C2139 C2140 1.524 . S
C2139 H2142 0.999 . S
C2140 H2110 0.950 . S
C2140 C2139 1.524 . S
C2140 C2141 1.415 . S
C2141 H2111 0.950 . S
C2141 C2136 1.363 . S
C2141 C2140 1.415 . S
H2142 C2139 0.999 . S
H2143 C2124 0.903 1_554 S
H2144 C2162 0.951 . S
H2145 C2164 0.951 . S
H2146 C2166 0.950 . S
H2147 C2167 0.950 . S
H2148 C2169 0.950 . S
H2149 C2172 0.950 . S
H2150 C2173 0.950 . S
H2151 C2175 0.950 . S
H2152 C2176 0.950 . S
H2153 C2177 0.951 . S
H2154 C2179 0.951 . S
H2155 C2181 0.950 . S
H2156 C2182 0.950 . S
H2157 C2184 0.950 . S
H2158 C2187 0.950 . S
H2159 C2188 0.950 . S
H2160 C2190 0.950 . S
H2161 C2191 0.950 . S
C2162 H2144 0.951 . S
C2162 C2163 1.366 . S
C2162 C2164 1.388 . S
C2163 C2162 1.366 . S
C2163 C2167 1.385 . S
C2164 H2145 0.951 . S
C2164 C2162 1.388 . S
C2164 C2165 1.366 . S
C2165 C2164 1.366 . S
C2165 C2166 1.414 . S
C2165 C2168 1.499 . S
C2166 H2146 0.950 . S
C2166 C2165 1.414 . S
C2166 C2167 1.374 . S
C2167 H2147 0.950 . S
C2167 C2163 1.385 . S
C2167 C2166 1.374 . S
C2168 C2165 1.499 . S
C2168 C2169 1.373 . S
C2168 C2170 1.389 . S
C2169 H2148 0.950 . S
C2169 C2168 1.373 . S
C2169 C2185 1.377 . S
C2170 C2168 1.389 . S
C2170 C2171 1.524 . S
C2170 C2184 1.377 . S
C2171 C2170 1.524 . S
C2171 C2172 1.397 . S
C2171 C2176 1.363 . S
C2172 H2149 0.950 . S
C2172 C2171 1.397 . S
C2172 C2173 1.334 . S
C2173 H2150 0.950 . S
C2173 C2172 1.334 . S
C2173 C2174 1.287 . S
C2174 C2173 1.287 . S
C2174 C2175 1.524 . S
C2174 H2193 0.913 1_554 S
C2175 H2151 0.950 . S
C2175 C2174 1.524 . S
C2175 C2176 1.415 . S
C2176 H2152 0.950 . S
C2176 C2171 1.363 . S
C2176 C2175 1.415 . S
C2177 H2153 0.951 . S
C2177 C2178 1.366 . S
C2177 C2179 1.388 . S
C2178 C2177 1.366 . S
C2178 C2182 1.385 . S
C2179 H2154 0.951 . S
C2179 C2177 1.388 . S
C2179 C2180 1.366 . S
C2180 C2179 1.366 . S
C2180 C2181 1.414 . S
C2180 C2183 1.499 . S
C2181 H2155 0.950 . S
C2181 C2180 1.414 . S
C2181 C2182 1.374 . S
C2182 H2156 0.950 . S
C2182 C2178 1.385 . S
C2182 C2181 1.374 . S
C2183 C2180 1.499 . S
C2183 C2184 1.373 . S
C2183 C2185 1.389 . S
C2184 H2157 0.950 . S
C2184 C2170 1.377 . S
C2184 C2183 1.373 . S
C2185 C2169 1.377 . S
C2185 C2183 1.389 . S
C2185 C2186 1.524 . S
C2186 C2185 1.524 . S
C2186 C2187 1.397 . S
C2186 C2191 1.363 . S
C2187 H2158 0.950 . S
C2187 C2186 1.397 . S
C2187 C2188 1.334 . S
C2188 H2159 0.950 . S
C2188 C2187 1.334 . S
C2188 C2189 1.287 . S
C2189 C2188 1.287 . S
C2189 C2190 1.524 . S
C2189 H2192 0.999 . S
C2190 H2160 0.950 . S
C2190 C2189 1.524 . S
C2190 C2191 1.415 . S
C2191 H2161 0.950 . S
C2191 C2186 1.363 . S
C2191 C2190 1.415 . S
H2192 C2189 0.999 . S
H2193 C2174 0.913 1_556 S
H2194 C2212 0.951 . S
H2195 C2214 0.951 . S
H2196 C2216 0.950 . S
H2197 C2217 0.950 . S
H2198 C2219 0.950 . S
H2199 C2222 0.950 . S
H2200 C2223 0.950 . S
H2201 C2225 0.950 . S
H2202 C2226 0.950 . S
H2203 C2227 0.951 . S
H2204 C2229 0.951 . S
H2205 C2231 0.950 . S
H2206 C2232 0.950 . S
H2207 C2234 0.950 . S
H2208 C2237 0.950 . S
H2209 C2238 0.950 . S
H2210 C2240 0.950 . S
H2211 C2241 0.950 . S
C2212 H2194 0.951 . S
C2212 C2213 1.366 . S
C2212 C2214 1.388 . S
C2213 C2212 1.366 . S
C2213 C2217 1.385 . S
C2214 H2195 0.951 . S
C2214 C2212 1.388 . S
C2214 C2215 1.366 . S
C2215 C2214 1.366 . S
C2215 C2216 1.414 . S
C2215 C2218 1.499 . S
C2216 H2196 0.950 . S
C2216 C2215 1.414 . S
C2216 C2217 1.374 . S
C2217 H2197 0.950 . S
C2217 C2213 1.385 . S
C2217 C2216 1.374 . S
C2218 C2215 1.499 . S
C2218 C2219 1.373 . S
C2218 C2220 1.389 . S
C2219 H2198 0.950 . S
C2219 C2218 1.373 . S
C2219 C2235 1.377 . S
C2220 C2218 1.389 . S
C2220 C2221 1.524 . S
C2220 C2234 1.377 . S
C2221 C2220 1.524 . S
C2221 C2222 1.397 . S
C2221 C2226 1.363 . S
C2222 H2199 0.950 . S
C2222 C2221 1.397 . S
C2222 C2223 1.334 . S
C2223 H2200 0.950 . S
C2223 C2222 1.334 . S
C2223 C2224 1.287 . S
C2224 C2223 1.287 . S
C2224 C2225 1.524 . S
C2224 H2243 0.913 . S
C2225 H2201 0.950 . S
C2225 C2224 1.524 . S
C2225 C2226 1.415 . S
C2226 H2202 0.950 . S
C2226 C2221 1.363 . S
C2226 C2225 1.415 . S
C2227 H2203 0.951 . S
C2227 C2228 1.366 . S
C2227 C2229 1.388 . S
C2228 C2227 1.366 . S
C2228 C2232 1.385 . S
C2229 H2204 0.951 . S
C2229 C2227 1.388 . S
C2229 C2230 1.366 . S
C2230 C2229 1.366 . S
C2230 C2231 1.414 . S
C2230 C2233 1.499 . S
C2231 H2205 0.950 . S
C2231 C2230 1.414 . S
C2231 C2232 1.374 . S
C2232 H2206 0.950 . S
C2232 C2228 1.385 . S
C2232 C2231 1.374 . S
C2233 C2230 1.499 . S
C2233 C2234 1.373 . S
C2233 C2235 1.389 . S
C2234 H2207 0.950 . S
C2234 C2220 1.377 . S
C2234 C2233 1.373 . S
C2235 C2219 1.377 . S
C2235 C2233 1.389 . S
C2235 C2236 1.524 . S
C2236 C2235 1.524 . S
C2236 C2237 1.397 . S
C2236 C2241 1.363 . S
C2237 H2208 0.950 . S
C2237 C2236 1.397 . S
C2237 C2238 1.334 . S
C2238 H2209 0.950 . S
C2238 C2237 1.334 . S
C2238 C2239 1.287 . S
C2239 C2238 1.287 . S
C2239 C2240 1.524 . S
C2239 H2242 0.999 . S
C2240 H2210 0.950 . S
C2240 C2239 1.524 . S
C2240 C2241 1.415 . S
C2241 H2211 0.950 . S
C2241 C2236 1.363 . S
C2241 C2240 1.415 . S
H2242 C2239 0.999 . S
H2243 C2224 0.913 . S
H2244 C2262 0.951 . S
H2245 C2264 0.951 . S
H2246 C2266 0.950 . S
H2247 C2267 0.950 . S
H2248 C2269 0.950 . S
H2249 C2272 0.950 . S
H2250 C2273 0.950 . S
H2251 C2275 0.950 . S
H2252 C2276 0.950 . S
H2253 C2277 0.951 . S
H2254 C2279 0.951 . S
H2255 C2281 0.950 . S
H2256 C2282 0.950 . S
H2257 C2284 0.950 . S
H2258 C2287 0.950 . S
H2259 C2288 0.950 . S
H2260 C2290 0.950 . S
H2261 C2291 0.950 . S
C2262 H2244 0.951 . S
C2262 C2263 1.366 . S
C2262 C2264 1.388 . S
C2263 C2262 1.366 . S
C2263 C2267 1.385 . S
C2264 H2245 0.951 . S
C2264 C2262 1.388 . S
C2264 C2265 1.366 . S
C2265 C2264 1.366 . S
C2265 C2266 1.414 . S
C2265 C2268 1.499 . S
C2266 H2246 0.950 . S
C2266 C2265 1.414 . S
C2266 C2267 1.374 . S
C2267 H2247 0.950 . S
C2267 C2263 1.385 . S
C2267 C2266 1.374 . S
C2268 C2265 1.499 . S
C2268 C2269 1.373 . S
C2268 C2270 1.389 . S
C2269 H2248 0.950 . S
C2269 C2268 1.373 . S
C2269 C2285 1.377 . S
C2270 C2268 1.389 . S
C2270 C2271 1.524 . S
C2270 C2284 1.377 . S
C2271 C2270 1.524 . S
C2271 C2272 1.397 . S
C2271 C2276 1.363 . S
C2272 H2249 0.950 . S
C2272 C2271 1.397 . S
C2272 C2273 1.334 . S
C2273 H2250 0.950 . S
C2273 C2272 1.334 . S
C2273 C2274 1.287 . S
C2274 C2273 1.287 . S
C2274 C2275 1.524 . S
C2274 H2293 0.913 . S
C2275 H2251 0.950 . S
C2275 C2274 1.524 . S
C2275 C2276 1.415 . S
C2276 H2252 0.950 . S
C2276 C2271 1.363 . S
C2276 C2275 1.415 . S
C2277 H2253 0.951 . S
C2277 C2278 1.366 . S
C2277 C2279 1.388 . S
C2278 C2277 1.366 . S
C2278 C2282 1.385 . S
C2279 H2254 0.951 . S
C2279 C2277 1.388 . S
C2279 C2280 1.366 . S
C2280 C2279 1.366 . S
C2280 C2281 1.414 . S
C2280 C2283 1.499 . S
C2281 H2255 0.950 . S
C2281 C2280 1.414 . S
C2281 C2282 1.374 . S
C2282 H2256 0.950 . S
C2282 C2278 1.385 . S
C2282 C2281 1.374 . S
C2283 C2280 1.499 . S
C2283 C2284 1.373 . S
C2283 C2285 1.389 . S
C2284 H2257 0.950 . S
C2284 C2270 1.377 . S
C2284 C2283 1.373 . S
C2285 C2269 1.377 . S
C2285 C2283 1.389 . S
C2285 C2286 1.524 . S
C2286 C2285 1.524 . S
C2286 C2287 1.397 . S
C2286 C2291 1.363 . S
C2287 H2258 0.950 . S
C2287 C2286 1.397 . S
C2287 C2288 1.334 . S
C2288 H2259 0.950 . S
C2288 C2287 1.334 . S
C2288 C2289 1.287 . S
C2289 C2288 1.287 . S
C2289 C2290 1.524 . S
C2289 H2292 0.999 . S
C2290 H2260 0.950 . S
C2290 C2289 1.524 . S
C2290 C2291 1.415 . S
C2291 H2261 0.950 . S
C2291 C2286 1.363 . S
C2291 C2290 1.415 . S
H2292 C2289 0.999 . S
H2293 C2274 0.913 . S
H2294 C2312 0.951 . S
H2295 C2314 0.951 . S
H2296 C2316 0.950 . S
H2297 C2317 0.950 . S
H2298 C2319 0.950 . S
H2299 C2322 0.950 . S
H2300 C2323 0.950 . S
H2301 C2325 0.950 . S
H2302 C2326 0.950 . S
H2303 C2327 0.951 . S
H2304 C2329 0.951 . S
H2305 C2331 0.950 . S
H2306 C2332 0.950 . S
H2307 C2334 0.950 . S
H2308 C2337 0.950 . S
H2309 C2338 0.950 . S
H2310 C2340 0.950 . S
H2311 C2341 0.950 . S
C2312 H2294 0.951 . S
C2312 C2313 1.366 . S
C2312 C2314 1.388 . S
C2313 C2312 1.366 . S
C2313 C2317 1.385 . S
C2314 H2295 0.951 . S
C2314 C2312 1.388 . S
C2314 C2315 1.366 . S
C2315 C2314 1.366 . S
C2315 C2316 1.414 . S
C2315 C2318 1.499 . S
C2316 H2296 0.950 . S
C2316 C2315 1.414 . S
C2316 C2317 1.374 . S
C2317 H2297 0.950 . S
C2317 C2313 1.385 . S
C2317 C2316 1.374 . S
C2318 C2315 1.499 . S
C2318 C2319 1.373 . S
C2318 C2320 1.389 . S
C2319 H2298 0.950 . S
C2319 C2318 1.373 . S
C2319 C2335 1.377 1_655 S
C2320 C2318 1.389 . S
C2320 C2321 1.524 . S
C2320 C2334 1.377 1_655 S
C2321 C2320 1.524 . S
C2321 C2322 1.397 . S
C2321 C2326 1.363 . S
C2322 H2299 0.950 . S
C2322 C2321 1.397 . S
C2322 C2323 1.334 . S
C2323 H2300 0.950 . S
C2323 C2322 1.334 . S
C2323 C2324 1.287 . S
C2324 C2323 1.287 . S
C2324 C2325 1.524 . S
C2324 H2343 0.913 . S
C2325 H2301 0.950 . S
C2325 C2324 1.524 . S
C2325 C2326 1.415 . S
C2326 H2302 0.950 . S
C2326 C2321 1.363 . S
C2326 C2325 1.415 . S
C2327 H2303 0.951 . S
C2327 C2328 1.366 . S
C2327 C2329 1.388 . S
C2328 C2327 1.366 . S
C2328 C2332 1.385 . S
C2329 H2304 0.951 . S
C2329 C2327 1.388 . S
C2329 C2330 1.366 . S
C2330 C2329 1.366 . S
C2330 C2331 1.414 . S
C2330 C2333 1.499 . S
C2331 H2305 0.950 . S
C2331 C2330 1.414 . S
C2331 C2332 1.374 . S
C2332 H2306 0.950 . S
C2332 C2328 1.385 . S
C2332 C2331 1.374 . S
C2333 C2330 1.499 . S
C2333 C2334 1.373 . S
C2333 C2335 1.389 . S
C2334 H2307 0.950 . S
C2334 C2320 1.377 1_455 S
C2334 C2333 1.373 . S
C2335 C2319 1.377 1_455 S
C2335 C2333 1.389 . S
C2335 C2336 1.524 . S
C2336 C2335 1.524 . S
C2336 C2337 1.397 . S
C2336 C2341 1.363 1_556 S
C2337 H2308 0.950 . S
C2337 C2336 1.397 . S
C2337 C2338 1.334 1_556 S
C2338 H2309 0.950 . S
C2338 C2337 1.334 1_554 S
C2338 C2339 1.287 . S
C2339 C2338 1.287 . S
C2339 C2340 1.524 . S
C2339 H2342 0.999 . S
C2340 H2310 0.950 . S
C2340 C2339 1.524 . S
C2340 C2341 1.415 . S
C2341 H2311 0.950 . S
C2341 C2336 1.363 1_554 S
C2341 C2340 1.415 . S
H2342 C2339 0.999 . S
H2343 C2324 0.913 . S
H2344 C2362 0.951 . S
H2345 C2364 0.951 . S
H2346 C2366 0.950 . S
H2347 C2367 0.950 . S
H2348 C2369 0.950 . S
H2349 C2372 0.950 . S
H2350 C2373 0.950 . S
H2351 C2375 0.950 . S
H2352 C2376 0.950 . S
H2353 C2377 0.951 . S
H2354 C2379 0.951 . S
H2355 C2381 0.950 . S
H2356 C2382 0.950 . S
H2357 C2384 0.950 . S
H2358 C2387 0.950 . S
H2359 C2388 0.950 . S
H2360 C2390 0.950 . S
H2361 C2391 0.950 . S
C2362 H2344 0.951 . S
C2362 C2363 1.366 . S
C2362 C2364 1.388 . S
C2363 C2362 1.366 . S
C2363 C2367 1.385 . S
C2364 H2345 0.951 . S
C2364 C2362 1.388 . S
C2364 C2365 1.366 . S
C2365 C2364 1.366 . S
C2365 C2366 1.414 . S
C2365 C2368 1.499 . S
C2366 H2346 0.950 . S
C2366 C2365 1.414 . S
C2366 C2367 1.374 . S
C2367 H2347 0.950 . S
C2367 C2363 1.385 . S
C2367 C2366 1.374 . S
C2368 C2365 1.499 . S
C2368 C2369 1.373 . S
C2368 C2370 1.389 . S
C2369 H2348 0.950 . S
C2369 C2368 1.373 . S
C2369 C2385 1.377 . S
C2370 C2368 1.389 . S
C2370 C2371 1.524 . S
C2370 C2384 1.377 . S
C2371 C2370 1.524 . S
C2371 C2372 1.397 . S
C2371 C2376 1.363 . S
C2372 H2349 0.950 . S
C2372 C2371 1.397 . S
C2372 C2373 1.334 . S
C2373 H2350 0.950 . S
C2373 C2372 1.334 . S
C2373 C2374 1.287 . S
C2374 C2373 1.287 . S
C2374 C2375 1.524 . S
C2374 H2393 0.913 . S
C2375 H2351 0.950 . S
C2375 C2374 1.524 . S
C2375 C2376 1.415 . S
C2376 H2352 0.950 . S
C2376 C2371 1.363 . S
C2376 C2375 1.415 . S
C2377 H2353 0.951 . S
C2377 C2378 1.366 . S
C2377 C2379 1.388 . S
C2378 C2377 1.366 . S
C2378 C2382 1.385 . S
C2379 H2354 0.951 . S
C2379 C2377 1.388 . S
C2379 C2380 1.366 . S
C2380 C2379 1.366 . S
C2380 C2381 1.414 . S
C2380 C2383 1.499 . S
C2381 H2355 0.950 . S
C2381 C2380 1.414 . S
C2381 C2382 1.374 . S
C2382 H2356 0.950 . S
C2382 C2378 1.385 . S
C2382 C2381 1.374 . S
C2383 C2380 1.499 . S
C2383 C2384 1.373 . S
C2383 C2385 1.389 . S
C2384 H2357 0.950 . S
C2384 C2370 1.377 . S
C2384 C2383 1.373 . S
C2385 C2369 1.377 . S
C2385 C2383 1.389 . S
C2385 C2386 1.524 . S
C2386 C2385 1.524 . S
C2386 C2387 1.397 . S
C2386 C2391 1.363 . S
C2387 H2358 0.950 . S
C2387 C2386 1.397 . S
C2387 C2388 1.334 . S
C2388 H2359 0.950 . S
C2388 C2387 1.334 . S
C2388 C2389 1.287 . S
C2389 C2388 1.287 . S
C2389 C2390 1.524 . S
C2389 H2392 0.999 1_556 S
C2390 H2360 0.950 . S
C2390 C2389 1.524 . S
C2390 C2391 1.415 . S
C2391 H2361 0.950 . S
C2391 C2386 1.363 . S
C2391 C2390 1.415 . S
H2392 C2389 0.999 1_554 S
H2393 C2374 0.913 . S
H2394 C2412 0.951 . S
H2395 C2414 0.951 . S
H2396 C2416 0.950 . S
H2397 C2417 0.950 . S
H2398 C2419 0.950 . S
H2399 C2422 0.950 . S
H2400 C2423 0.950 . S
H2401 C2425 0.950 . S
H2402 C2426 0.950 . S
H2403 C2427 0.951 . S
H2404 C2429 0.951 . S
H2405 C2431 0.950 . S
H2406 C2432 0.950 . S
H2407 C2434 0.950 . S
H2408 C2437 0.950 . S
H2409 C2438 0.949 1_556 S
H2410 C2440 0.950 . S
H2411 C2441 0.950 . S
C2412 H2394 0.951 . S
C2412 C2413 1.366 . S
C2412 C2414 1.388 . S
C2413 C2412 1.366 . S
C2413 C2417 1.385 . S
C2414 H2395 0.951 . S
C2414 C2412 1.388 . S
C2414 C2415 1.366 . S
C2415 C2414 1.366 . S
C2415 C2416 1.414 . S
C2415 C2418 1.499 . S
C2416 H2396 0.950 . S
C2416 C2415 1.414 . S
C2416 C2417 1.374 . S
C2417 H2397 0.950 . S
C2417 C2413 1.385 . S
C2417 C2416 1.374 . S
C2418 C2415 1.499 . S
C2418 C2419 1.373 . S
C2418 C2420 1.389 . S
C2419 H2398 0.950 . S
C2419 C2418 1.373 . S
C2419 C2435 1.377 1_455 S
C2420 C2418 1.389 . S
C2420 C2421 1.524 . S
C2420 C2434 1.377 1_455 S
C2421 C2420 1.524 . S
C2421 C2422 1.397 . S
C2421 C2426 1.363 . S
C2422 H2399 0.950 . S
C2422 C2421 1.397 . S
C2422 C2423 1.334 . S
C2423 H2400 0.950 . S
C2423 C2422 1.334 . S
C2423 C2424 1.287 . S
C2424 C2423 1.287 . S
C2424 C2425 1.524 . S
C2424 H2443 0.913 . S
C2425 H2401 0.950 . S
C2425 C2424 1.524 . S
C2425 C2426 1.415 . S
C2426 H2402 0.950 . S
C2426 C2421 1.363 . S
C2426 C2425 1.415 . S
C2427 H2403 0.951 . S
C2427 C2428 1.366 . S
C2427 C2429 1.388 . S
C2428 C2427 1.366 . S
C2428 C2432 1.385 . S
C2429 H2404 0.951 . S
C2429 C2427 1.388 . S
C2429 C2430 1.366 . S
C2430 C2429 1.366 . S
C2430 C2431 1.414 . S
C2430 C2433 1.499 . S
C2431 H2405 0.950 . S
C2431 C2430 1.414 . S
C2431 C2432 1.374 . S
C2432 H2406 0.950 . S
C2432 C2428 1.385 . S
C2432 C2431 1.374 . S
C2433 C2430 1.499 . S
C2433 C2434 1.373 . S
C2433 C2435 1.389 . S
C2434 H2407 0.950 . S
C2434 C2420 1.377 1_655 S
C2434 C2433 1.373 . S
C2435 C2419 1.377 1_655 S
C2435 C2433 1.389 . S
C2435 C2436 1.524 . S
C2436 C2435 1.524 . S
C2436 C2437 1.397 . S
C2436 C2441 1.363 . S
C2437 H2408 0.950 . S
C2437 C2436 1.397 . S
C2437 C2438 1.334 . S
C2438 H2409 0.949 1_554 S
C2438 C2437 1.334 . S
C2438 C2439 1.287 . S
C2439 C2438 1.287 . S
C2439 C2440 1.524 . S
C2439 H2442 0.999 . S
C2440 H2410 0.950 . S
C2440 C2439 1.524 . S
C2440 C2441 1.415 . S
C2441 H2411 0.950 . S
C2441 C2436 1.363 . S
C2441 C2440 1.415 . S
H2442 C2439 0.999 . S
H2443 C2424 0.913 . S
H2444 C2462 0.951 . S
H2445 C2464 0.951 . S
H2446 C2466 0.950 . S
H2447 C2467 0.950 . S
H2448 C2469 0.950 . S
H2449 C2472 0.950 . S
H2450 C2473 0.950 . S
H2451 C2475 0.950 . S
H2452 C2476 0.950 . S
H2453 C2477 0.951 . S
H2454 C2479 0.951 . S
H2455 C2481 0.950 . S
H2456 C2482 0.950 . S
H2457 C2484 0.950 . S
H2458 C2487 0.950 . S
H2459 C2488 0.950 . S
H2460 C2490 0.950 . S
H2461 C2491 0.950 . S
C2462 H2444 0.951 . S
C2462 C2463 1.366 . S
C2462 C2464 1.388 . S
C2463 C2462 1.366 . S
C2463 C2467 1.385 . S
C2464 H2445 0.951 . S
C2464 C2462 1.388 . S
C2464 C2465 1.366 . S
C2465 C2464 1.366 . S
C2465 C2466 1.414 . S
C2465 C2468 1.499 . S
C2466 H2446 0.950 . S
C2466 C2465 1.414 . S
C2466 C2467 1.374 . S
C2467 H2447 0.950 . S
C2467 C2463 1.385 . S
C2467 C2466 1.374 . S
C2468 C2465 1.499 . S
C2468 C2469 1.373 . S
C2468 C2470 1.389 . S
C2469 H2448 0.950 . S
C2469 C2468 1.373 . S
C2469 C2485 1.377 . S
C2470 C2468 1.389 . S
C2470 C2471 1.524 . S
C2470 C2484 1.377 . S
C2471 C2470 1.524 . S
C2471 C2472 1.397 . S
C2471 C2476 1.363 . S
C2472 H2449 0.950 . S
C2472 C2471 1.397 . S
C2472 C2473 1.334 . S
C2473 H2450 0.950 . S
C2473 C2472 1.334 . S
C2473 C2474 1.287 . S
C2474 C2473 1.287 . S
C2474 C2475 1.524 . S
C2474 H2493 0.913 . S
C2475 H2451 0.950 . S
C2475 C2474 1.524 . S
C2475 C2476 1.415 . S
C2476 H2452 0.950 . S
C2476 C2471 1.363 . S
C2476 C2475 1.415 . S
C2477 H2453 0.951 . S
C2477 C2478 1.366 . S
C2477 C2479 1.388 . S
C2478 C2477 1.366 . S
C2478 C2482 1.385 . S
C2479 H2454 0.951 . S
C2479 C2477 1.388 . S
C2479 C2480 1.366 . S
C2480 C2479 1.366 . S
C2480 C2481 1.414 . S
C2480 C2483 1.499 . S
C2481 H2455 0.950 . S
C2481 C2480 1.414 . S
C2481 C2482 1.374 . S
C2482 H2456 0.950 . S
C2482 C2478 1.385 . S
C2482 C2481 1.374 . S
C2483 C2480 1.499 . S
C2483 C2484 1.373 . S
C2483 C2485 1.389 . S
C2484 H2457 0.950 . S
C2484 C2470 1.377 . S
C2484 C2483 1.373 . S
C2485 C2469 1.377 . S
C2485 C2483 1.389 . S
C2485 C2486 1.524 . S
C2486 C2485 1.524 . S
C2486 C2487 1.397 . S
C2486 C2491 1.363 . S
C2487 H2458 0.950 . S
C2487 C2486 1.397 . S
C2487 C2488 1.334 . S
C2488 H2459 0.950 . S
C2488 C2487 1.334 . S
C2488 C2489 1.287 . S
C2489 C2488 1.287 . S
C2489 C2490 1.524 . S
C2489 H2492 0.999 . S
C2490 H2460 0.950 . S
C2490 C2489 1.524 . S
C2490 C2491 1.415 . S
C2491 H2461 0.950 . S
C2491 C2486 1.363 . S
C2491 C2490 1.415 . S
H2492 C2489 0.999 . S
H2493 C2474 0.913 . S
H2494 C2512 0.951 . S
H2495 C2514 0.951 . S
H2496 C2516 0.950 . S
H2497 C2517 0.950 . S
H2498 C2519 0.950 . S
H2499 C2522 0.950 . S
H2500 C2523 0.950 . S
H2501 C2525 0.950 . S
H2502 C2526 0.950 . S
H2503 C2527 0.951 . S
H2504 C2529 0.951 . S
H2505 C2531 0.950 . S
H2506 C2532 0.950 . S
H2507 C2534 0.950 . S
H2508 C2537 0.950 . S
H2509 C2538 0.950 . S
H2510 C2540 0.950 . S
H2511 C2541 0.950 . S
C2512 H2494 0.951 . S
C2512 C2513 1.366 . S
C2512 C2514 1.388 . S
C2513 C2512 1.366 . S
C2513 C2517 1.385 . S
C2514 H2495 0.951 . S
C2514 C2512 1.388 . S
C2514 C2515 1.366 . S
C2515 C2514 1.366 . S
C2515 C2516 1.414 . S
C2515 C2518 1.499 . S
C2516 H2496 0.950 . S
C2516 C2515 1.414 . S
C2516 C2517 1.374 . S
C2517 H2497 0.950 . S
C2517 C2513 1.385 . S
C2517 C2516 1.374 . S
C2518 C2515 1.499 . S
C2518 C2519 1.373 . S
C2518 C2520 1.389 . S
C2519 H2498 0.950 . S
C2519 C2518 1.373 . S
C2519 C2535 1.377 . S
C2520 C2518 1.389 . S
C2520 C2521 1.524 . S
C2520 C2534 1.377 . S
C2521 C2520 1.524 . S
C2521 C2522 1.397 . S
C2521 C2526 1.363 . S
C2522 H2499 0.950 . S
C2522 C2521 1.397 . S
C2522 C2523 1.334 . S
C2523 H2500 0.950 . S
C2523 C2522 1.334 . S
C2523 C2524 1.287 . S
C2524 C2523 1.287 . S
C2524 C2525 1.524 . S
C2524 H2543 0.913 . S
C2525 H2501 0.950 . S
C2525 C2524 1.524 . S
C2525 C2526 1.415 . S
C2526 H2502 0.950 . S
C2526 C2521 1.363 . S
C2526 C2525 1.415 . S
C2527 H2503 0.951 . S
C2527 C2528 1.366 . S
C2527 C2529 1.388 . S
C2528 C2527 1.366 . S
C2528 C2532 1.385 . S
C2529 H2504 0.951 . S
C2529 C2527 1.388 . S
C2529 C2530 1.366 . S
C2530 C2529 1.366 . S
C2530 C2531 1.414 . S
C2530 C2533 1.499 . S
C2531 H2505 0.950 . S
C2531 C2530 1.414 . S
C2531 C2532 1.374 . S
C2532 H2506 0.950 . S
C2532 C2528 1.385 . S
C2532 C2531 1.374 . S
C2533 C2530 1.499 . S
C2533 C2534 1.373 . S
C2533 C2535 1.389 . S
C2534 H2507 0.950 . S
C2534 C2520 1.377 . S
C2534 C2533 1.373 . S
C2535 C2519 1.377 . S
C2535 C2533 1.389 . S
C2535 C2536 1.524 . S
C2536 C2535 1.524 . S
C2536 C2537 1.397 . S
C2536 C2541 1.363 . S
C2537 H2508 0.950 . S
C2537 C2536 1.397 . S
C2537 C2538 1.334 . S
C2538 H2509 0.950 . S
C2538 C2537 1.334 . S
C2538 C2539 1.287 . S
C2539 C2538 1.287 . S
C2539 C2540 1.524 . S
C2539 H2542 0.999 . S
C2540 H2510 0.950 . S
C2540 C2539 1.524 . S
C2540 C2541 1.415 . S
C2541 H2511 0.950 . S
C2541 C2536 1.363 . S
C2541 C2540 1.415 . S
H2542 C2539 0.999 . S
H2543 C2524 0.913 . S
H2544 C2562 0.951 . S
H2545 C2564 0.951 . S
H2546 C2566 0.950 . S
H2547 C2567 0.950 . S
H2548 C2569 0.950 . S
H2549 C2572 0.950 . S
H2550 C2573 0.950 . S
H2551 C2575 0.950 . S
H2552 C2576 0.950 . S
H2553 C2577 0.951 . S
H2554 C2579 0.951 . S
H2555 C2581 0.950 . S
H2556 C2582 0.950 . S
H2557 C2584 0.950 . S
H2558 C2587 0.950 . S
H2559 C2588 0.950 . S
H2560 C2590 0.950 1_554 S
H2561 C2591 0.950 . S
C2562 H2544 0.951 . S
C2562 C2563 1.366 . S
C2562 C2564 1.388 . S
C2563 C2562 1.366 . S
C2563 C2567 1.385 . S
C2564 H2545 0.951 . S
C2564 C2562 1.388 . S
C2564 C2565 1.366 . S
C2565 C2564 1.366 . S
C2565 C2566 1.414 . S
C2565 C2568 1.499 . S
C2566 H2546 0.950 . S
C2566 C2565 1.414 . S
C2566 C2567 1.374 . S
C2567 H2547 0.950 . S
C2567 C2563 1.385 . S
C2567 C2566 1.374 . S
C2568 C2565 1.499 . S
C2568 C2569 1.373 . S
C2568 C2570 1.389 . S
C2569 H2548 0.950 . S
C2569 C2568 1.373 . S
C2569 C2585 1.377 . S
C2570 C2568 1.389 . S
C2570 C2571 1.524 . S
C2570 C2584 1.377 . S
C2571 C2570 1.524 . S
C2571 C2572 1.397 . S
C2571 C2576 1.363 . S
C2572 H2549 0.950 . S
C2572 C2571 1.397 . S
C2572 C2573 1.334 . S
C2573 H2550 0.950 . S
C2573 C2572 1.334 . S
C2573 C2574 1.287 . S
C2574 C2573 1.287 . S
C2574 C2575 1.524 . S
C2574 H2593 0.913 . S
C2575 H2551 0.950 . S
C2575 C2574 1.524 . S
C2575 C2576 1.415 . S
C2576 H2552 0.950 . S
C2576 C2571 1.363 . S
C2576 C2575 1.415 . S
C2577 H2553 0.951 . S
C2577 C2578 1.366 . S
C2577 C2579 1.388 . S
C2578 C2577 1.366 . S
C2578 C2582 1.385 . S
C2579 H2554 0.951 . S
C2579 C2577 1.388 . S
C2579 C2580 1.366 . S
C2580 C2579 1.366 . S
C2580 C2581 1.414 . S
C2580 C2583 1.499 . S
C2581 H2555 0.950 . S
C2581 C2580 1.414 . S
C2581 C2582 1.374 . S
C2582 H2556 0.950 . S
C2582 C2578 1.385 . S
C2582 C2581 1.374 . S
C2583 C2580 1.499 . S
C2583 C2584 1.373 . S
C2583 C2585 1.389 . S
C2584 H2557 0.950 . S
C2584 C2570 1.377 . S
C2584 C2583 1.373 . S
C2585 C2569 1.377 . S
C2585 C2583 1.389 . S
C2585 C2586 1.524 . S
C2586 C2585 1.524 . S
C2586 C2587 1.397 . S
C2586 C2591 1.363 . S
C2587 H2558 0.950 . S
C2587 C2586 1.397 . S
C2587 C2588 1.334 . S
C2588 H2559 0.950 . S
C2588 C2587 1.334 . S
C2588 C2589 1.287 . S
C2589 C2588 1.287 . S
C2589 C2590 1.524 . S
C2589 H2592 0.999 . S
C2590 H2560 0.950 1_556 S
C2590 C2589 1.524 . S
C2590 C2591 1.415 . S
C2591 H2561 0.950 . S
C2591 C2586 1.363 . S
C2591 C2590 1.415 . S
H2592 C2589 0.999 . S
H2593 C2574 0.913 . S
H2594 C2612 0.951 . S
H2595 C2614 0.951 . S
H2596 C2616 0.950 . S
H2597 C2617 0.950 . S
H2598 C2619 0.950 . S
H2599 C2622 0.950 . S
H2600 C2623 0.950 . S
H2601 C2625 0.950 . S
H2602 C2626 0.950 . S
H2603 C2627 0.951 . S
H2604 C2629 0.951 . S
H2605 C2631 0.950 . S
H2606 C2632 0.950 . S
H2607 C2634 0.950 . S
H2608 C2637 0.950 . S
H2609 C2638 0.950 . S
H2610 C2640 0.950 . S
H2611 C2641 0.950 . S
C2612 H2594 0.951 . S
C2612 C2613 1.366 . S
C2612 C2614 1.388 . S
C2613 C2612 1.366 . S
C2613 C2617 1.385 . S
C2614 H2595 0.951 . S
C2614 C2612 1.388 . S
C2614 C2615 1.366 . S
C2615 C2614 1.366 . S
C2615 C2616 1.414 . S
C2615 C2618 1.499 . S
C2616 H2596 0.950 . S
C2616 C2615 1.414 . S
C2616 C2617 1.374 . S
C2617 H2597 0.950 . S
C2617 C2613 1.385 . S
C2617 C2616 1.374 . S
C2618 C2615 1.499 . S
C2618 C2619 1.373 . S
C2618 C2620 1.389 . S
C2619 H2598 0.950 . S
C2619 C2618 1.373 . S
C2619 C2635 1.377 . S
C2620 C2618 1.389 . S
C2620 C2621 1.524 . S
C2620 C2634 1.377 . S
C2621 C2620 1.524 . S
C2621 C2622 1.397 . S
C2621 C2626 1.363 . S
C2622 H2599 0.950 . S
C2622 C2621 1.397 . S
C2622 C2623 1.334 . S
C2623 H2600 0.950 . S
C2623 C2622 1.334 . S
C2623 C2624 1.287 . S
C2624 C2623 1.287 . S
C2624 C2625 1.524 . S
C2624 H2643 0.913 . S
C2625 H2601 0.950 . S
C2625 C2624 1.524 . S
C2625 C2626 1.415 . S
C2626 H2602 0.950 . S
C2626 C2621 1.363 . S
C2626 C2625 1.415 . S
C2627 H2603 0.951 . S
C2627 C2628 1.366 . S
C2627 C2629 1.388 . S
C2628 C2627 1.366 . S
C2628 C2632 1.385 . S
C2629 H2604 0.951 . S
C2629 C2627 1.388 . S
C2629 C2630 1.366 . S
C2630 C2629 1.366 . S
C2630 C2631 1.414 . S
C2630 C2633 1.499 . S
C2631 H2605 0.950 . S
C2631 C2630 1.414 . S
C2631 C2632 1.374 . S
C2632 H2606 0.950 . S
C2632 C2628 1.385 . S
C2632 C2631 1.374 . S
C2633 C2630 1.499 . S
C2633 C2634 1.373 . S
C2633 C2635 1.389 . S
C2634 H2607 0.950 . S
C2634 C2620 1.377 . S
C2634 C2633 1.373 . S
C2635 C2619 1.377 . S
C2635 C2633 1.389 . S
C2635 C2636 1.524 . S
C2636 C2635 1.524 . S
C2636 C2637 1.397 . S
C2636 C2641 1.363 . S
C2637 H2608 0.950 . S
C2637 C2636 1.397 . S
C2637 C2638 1.334 . S
C2638 H2609 0.950 . S
C2638 C2637 1.334 . S
C2638 C2639 1.287 . S
C2639 C2638 1.287 . S
C2639 C2640 1.524 . S
C2639 H2642 0.999 . S
C2640 H2610 0.950 . S
C2640 C2639 1.524 . S
C2640 C2641 1.415 . S
C2641 H2611 0.950 . S
C2641 C2636 1.363 . S
C2641 C2640 1.415 . S
H2642 C2639 0.999 . S
H2643 C2624 0.913 . S
H2644 C2662 0.951 . S
H2645 C2664 0.951 . S
H2646 C2666 0.950 . S
H2647 C2667 0.950 . S
H2648 C2669 0.950 . S
H2649 C2672 0.950 . S
H2650 C2673 0.950 . S
H2651 C2675 0.950 . S
H2652 C2676 0.950 . S
H2653 C2677 0.951 . S
H2654 C2679 0.951 . S
H2655 C2681 0.950 . S
H2656 C2682 0.950 . S
H2657 C2684 0.950 . S
H2658 C2687 0.950 . S
H2659 C2688 0.950 . S
H2660 C2690 0.950 . S
H2661 C2691 0.950 . S
C2662 H2644 0.951 . S
C2662 C2663 1.366 . S
C2662 C2664 1.388 . S
C2663 C2662 1.366 . S
C2663 C2667 1.385 . S
C2664 H2645 0.951 . S
C2664 C2662 1.388 . S
C2664 C2665 1.366 . S
C2665 C2664 1.366 . S
C2665 C2666 1.414 . S
C2665 C2668 1.499 . S
C2666 H2646 0.950 . S
C2666 C2665 1.414 . S
C2666 C2667 1.374 . S
C2667 H2647 0.950 . S
C2667 C2663 1.385 . S
C2667 C2666 1.374 . S
C2668 C2665 1.499 . S
C2668 C2669 1.373 . S
C2668 C2670 1.389 . S
C2669 H2648 0.950 . S
C2669 C2668 1.373 . S
C2669 C2685 1.377 . S
C2670 C2668 1.389 . S
C2670 C2671 1.524 . S
C2670 C2684 1.377 . S
C2671 C2670 1.524 . S
C2671 C2672 1.397 . S
C2671 C2676 1.363 . S
C2672 H2649 0.950 . S
C2672 C2671 1.397 . S
C2672 C2673 1.334 . S
C2673 H2650 0.950 . S
C2673 C2672 1.334 . S
C2673 C2674 1.287 . S
C2674 C2673 1.287 . S
C2674 C2675 1.524 . S
C2674 H2693 0.913 . S
C2675 H2651 0.950 . S
C2675 C2674 1.524 . S
C2675 C2676 1.415 . S
C2676 H2652 0.950 . S
C2676 C2671 1.363 . S
C2676 C2675 1.415 . S
C2677 H2653 0.951 . S
C2677 C2678 1.366 . S
C2677 C2679 1.388 . S
C2678 C2677 1.366 . S
C2678 C2682 1.385 . S
C2679 H2654 0.951 . S
C2679 C2677 1.388 . S
C2679 C2680 1.366 . S
C2680 C2679 1.366 . S
C2680 C2681 1.414 . S
C2680 C2683 1.499 . S
C2681 H2655 0.950 . S
C2681 C2680 1.414 . S
C2681 C2682 1.374 . S
C2682 H2656 0.950 . S
C2682 C2678 1.385 . S
C2682 C2681 1.374 . S
C2683 C2680 1.499 . S
C2683 C2684 1.373 . S
C2683 C2685 1.389 . S
C2684 H2657 0.950 . S
C2684 C2670 1.377 . S
C2684 C2683 1.373 . S
C2685 C2669 1.377 . S
C2685 C2683 1.389 . S
C2685 C2686 1.524 . S
C2686 C2685 1.524 . S
C2686 C2687 1.397 . S
C2686 C2691 1.363 . S
C2687 H2658 0.950 . S
C2687 C2686 1.397 . S
C2687 C2688 1.334 . S
C2688 H2659 0.950 . S
C2688 C2687 1.334 . S
C2688 C2689 1.287 . S
C2689 C2688 1.287 . S
C2689 C2690 1.524 . S
C2689 H2692 0.999 . S
C2690 H2660 0.950 . S
C2690 C2689 1.524 . S
C2690 C2691 1.415 . S
C2691 H2661 0.950 . S
C2691 C2686 1.363 . S
C2691 C2690 1.415 . S
H2692 C2689 0.999 . S
H2693 C2674 0.913 . S
H2694 C2712 0.951 . S
H2695 C2714 0.951 . S
H2696 C2716 0.950 . S
H2697 C2717 0.950 . S
H2698 C2719 0.950 . S
H2699 C2722 0.950 . S
H2700 C2723 0.950 . S
H2701 C2725 0.950 . S
H2702 C2726 0.950 . S
H2703 C2727 0.951 . S
H2704 C2729 0.951 . S
H2705 C2731 0.950 . S
H2706 C2732 0.950 . S
H2707 C2734 0.950 . S
H2708 C2737 0.950 . S
H2709 C2738 0.950 . S
H2710 C2740 0.950 . S
H2711 C2741 0.950 . S
C2712 H2694 0.951 . S
C2712 C2713 1.366 . S
C2712 C2714 1.388 . S
C2713 C2712 1.366 . S
C2713 C2717 1.385 . S
C2714 H2695 0.951 . S
C2714 C2712 1.388 . S
C2714 C2715 1.366 . S
C2715 C2714 1.366 . S
C2715 C2716 1.414 . S
C2715 C2718 1.499 . S
C2716 H2696 0.950 . S
C2716 C2715 1.414 . S
C2716 C2717 1.374 . S
C2717 H2697 0.950 . S
C2717 C2713 1.385 . S
C2717 C2716 1.374 . S
C2718 C2715 1.499 . S
C2718 C2719 1.373 . S
C2718 C2720 1.389 . S
C2719 H2698 0.950 . S
C2719 C2718 1.373 . S
C2719 C2735 1.377 . S
C2720 C2718 1.389 . S
C2720 C2721 1.524 . S
C2720 C2734 1.377 . S
C2721 C2720 1.524 . S
C2721 C2722 1.397 . S
C2721 C2726 1.363 . S
C2722 H2699 0.950 . S
C2722 C2721 1.397 . S
C2722 C2723 1.334 . S
C2723 H2700 0.950 . S
C2723 C2722 1.334 . S
C2723 C2724 1.287 . S
C2724 C2723 1.287 . S
C2724 C2725 1.524 . S
C2724 H2743 0.913 . S
C2725 H2701 0.950 . S
C2725 C2724 1.524 . S
C2725 C2726 1.415 . S
C2726 H2702 0.950 . S
C2726 C2721 1.363 . S
C2726 C2725 1.415 . S
C2727 H2703 0.951 . S
C2727 C2728 1.366 . S
C2727 C2729 1.388 . S
C2728 C2727 1.366 . S
C2728 C2732 1.385 . S
C2729 H2704 0.951 . S
C2729 C2727 1.388 . S
C2729 C2730 1.366 . S
C2730 C2729 1.366 . S
C2730 C2731 1.414 . S
C2730 C2733 1.499 . S
C2731 H2705 0.950 . S
C2731 C2730 1.414 . S
C2731 C2732 1.374 . S
C2732 H2706 0.950 . S
C2732 C2728 1.385 . S
C2732 C2731 1.374 . S
C2733 C2730 1.499 . S
C2733 C2734 1.373 . S
C2733 C2735 1.389 . S
C2734 H2707 0.950 . S
C2734 C2720 1.377 . S
C2734 C2733 1.373 . S
C2735 C2719 1.377 . S
C2735 C2733 1.389 . S
C2735 C2736 1.524 . S
C2736 C2735 1.524 . S
C2736 C2737 1.397 . S
C2736 C2741 1.363 . S
C2737 H2708 0.950 . S
C2737 C2736 1.397 . S
C2737 C2738 1.334 . S
C2738 H2709 0.950 . S
C2738 C2737 1.334 . S
C2738 C2739 1.287 . S
C2739 C2738 1.287 . S
C2739 C2740 1.524 . S
C2739 H2742 0.999 . S
C2740 H2710 0.950 . S
C2740 C2739 1.524 . S
C2740 C2741 1.415 . S
C2741 H2711 0.950 . S
C2741 C2736 1.363 . S
C2741 C2740 1.415 . S
H2742 C2739 0.999 . S
H2743 C2724 0.913 . S
H2744 C2762 0.951 . S
H2745 C2764 0.951 . S
H2746 C2766 0.950 . S
H2747 C2767 0.950 . S
H2748 C2769 0.950 . S
H2749 C2772 0.950 . S
H2750 C2773 0.950 . S
H2751 C2775 0.950 . S
H2752 C2776 0.950 . S
H2753 C2777 0.951 . S
H2754 C2779 0.951 . S
H2755 C2781 0.950 . S
H2756 C2782 0.950 . S
H2757 C2784 0.950 . S
H2758 C2787 0.950 . S
H2759 C2788 0.950 . S
H2760 C2790 0.950 . S
H2761 C2791 0.950 . S
C2762 H2744 0.951 . S
C2762 C2763 1.366 . S
C2762 C2764 1.388 . S
C2763 C2762 1.366 . S
C2763 C2767 1.385 . S
C2764 H2745 0.951 . S
C2764 C2762 1.388 . S
C2764 C2765 1.366 . S
C2765 C2764 1.366 . S
C2765 C2766 1.414 . S
C2765 C2768 1.499 . S
C2766 H2746 0.950 . S
C2766 C2765 1.414 . S
C2766 C2767 1.374 . S
C2767 H2747 0.950 . S
C2767 C2763 1.385 . S
C2767 C2766 1.374 . S
C2768 C2765 1.499 . S
C2768 C2769 1.373 . S
C2768 C2770 1.389 . S
C2769 H2748 0.950 . S
C2769 C2768 1.373 . S
C2769 C2785 1.377 1_655 S
C2770 C2768 1.389 . S
C2770 C2771 1.524 . S
C2770 C2784 1.377 1_655 S
C2771 C2770 1.524 . S
C2771 C2772 1.397 1_556 S
C2771 C2776 1.363 . S
C2772 H2749 0.950 . S
C2772 C2771 1.397 1_554 S
C2772 C2773 1.334 . S
C2773 H2750 0.950 . S
C2773 C2772 1.334 . S
C2773 C2774 1.287 . S
C2774 C2773 1.287 . S
C2774 C2775 1.524 . S
C2774 H2793 0.913 . S
C2775 H2751 0.950 . S
C2775 C2774 1.524 . S
C2775 C2776 1.415 1_554 S
C2776 H2752 0.950 . S
C2776 C2771 1.363 . S
C2776 C2775 1.415 1_556 S
C2777 H2753 0.951 . S
C2777 C2778 1.366 . S
C2777 C2779 1.388 . S
C2778 C2777 1.366 . S
C2778 C2782 1.385 . S
C2779 H2754 0.951 . S
C2779 C2777 1.388 . S
C2779 C2780 1.366 . S
C2780 C2779 1.366 . S
C2780 C2781 1.414 . S
C2780 C2783 1.499 . S
C2781 H2755 0.950 . S
C2781 C2780 1.414 . S
C2781 C2782 1.374 . S
C2782 H2756 0.950 . S
C2782 C2778 1.385 . S
C2782 C2781 1.374 . S
C2783 C2780 1.499 . S
C2783 C2784 1.373 . S
C2783 C2785 1.389 . S
C2784 H2757 0.950 . S
C2784 C2770 1.377 1_455 S
C2784 C2783 1.373 . S
C2785 C2769 1.377 1_455 S
C2785 C2783 1.389 . S
C2785 C2786 1.524 . S
C2786 C2785 1.524 . S
C2786 C2787 1.397 . S
C2786 C2791 1.363 . S
C2787 H2758 0.950 . S
C2787 C2786 1.397 . S
C2787 C2788 1.334 . S
C2788 H2759 0.950 . S
C2788 C2787 1.334 . S
C2788 C2789 1.287 . S
C2789 C2788 1.287 . S
C2789 C2790 1.524 . S
C2789 H2792 0.999 . S
C2790 H2760 0.950 . S
C2790 C2789 1.524 . S
C2790 C2791 1.415 . S
C2791 H2761 0.950 . S
C2791 C2786 1.363 . S
C2791 C2790 1.415 . S
H2792 C2789 0.999 . S
H2793 C2774 0.913 . S
H2794 C2812 0.951 . S
H2795 C2814 0.951 . S
H2796 C2816 0.950 . S
H2797 C2817 0.950 . S
H2798 C2819 0.950 . S
H2799 C2822 0.950 . S
H2800 C2823 0.950 . S
H2801 C2825 0.950 . S
H2802 C2826 0.950 . S
H2803 C2827 0.951 . S
H2804 C2829 0.951 . S
H2805 C2831 0.950 . S
H2806 C2832 0.950 . S
H2807 C2834 0.950 . S
H2808 C2837 0.950 . S
H2809 C2838 0.950 . S
H2810 C2840 0.950 . S
H2811 C2841 0.950 . S
C2812 H2794 0.951 . S
C2812 C2813 1.366 . S
C2812 C2814 1.388 . S
C2813 C2812 1.366 . S
C2813 C2817 1.385 . S
C2814 H2795 0.951 . S
C2814 C2812 1.388 . S
C2814 C2815 1.366 . S
C2815 C2814 1.366 . S
C2815 C2816 1.414 . S
C2815 C2818 1.499 . S
C2816 H2796 0.950 . S
C2816 C2815 1.414 . S
C2816 C2817 1.374 . S
C2817 H2797 0.950 . S
C2817 C2813 1.385 . S
C2817 C2816 1.374 . S
C2818 C2815 1.499 . S
C2818 C2819 1.373 . S
C2818 C2820 1.389 . S
C2819 H2798 0.950 . S
C2819 C2818 1.373 . S
C2819 C2835 1.377 . S
C2820 C2818 1.389 . S
C2820 C2821 1.524 . S
C2820 C2834 1.377 . S
C2821 C2820 1.524 . S
C2821 C2822 1.397 . S
C2821 C2826 1.363 . S
C2822 H2799 0.950 . S
C2822 C2821 1.397 . S
C2822 C2823 1.334 . S
C2823 H2800 0.950 . S
C2823 C2822 1.334 . S
C2823 C2824 1.287 . S
C2824 C2823 1.287 . S
C2824 C2825 1.524 . S
C2824 H2843 0.913 . S
C2825 H2801 0.950 . S
C2825 C2824 1.524 . S
C2825 C2826 1.415 . S
C2826 H2802 0.950 . S
C2826 C2821 1.363 . S
C2826 C2825 1.415 . S
C2827 H2803 0.951 . S
C2827 C2828 1.366 . S
C2827 C2829 1.388 . S
C2828 C2827 1.366 . S
C2828 C2832 1.385 . S
C2829 H2804 0.951 . S
C2829 C2827 1.388 . S
C2829 C2830 1.366 . S
C2830 C2829 1.366 . S
C2830 C2831 1.414 . S
C2830 C2833 1.499 . S
C2831 H2805 0.950 . S
C2831 C2830 1.414 . S
C2831 C2832 1.374 . S
C2832 H2806 0.950 . S
C2832 C2828 1.385 . S
C2832 C2831 1.374 . S
C2833 C2830 1.499 . S
C2833 C2834 1.373 . S
C2833 C2835 1.389 . S
C2834 H2807 0.950 . S
C2834 C2820 1.377 . S
C2834 C2833 1.373 . S
C2835 C2819 1.377 . S
C2835 C2833 1.389 . S
C2835 C2836 1.524 . S
C2836 C2835 1.524 . S
C2836 C2837 1.397 . S
C2836 C2841 1.363 . S
C2837 H2808 0.950 . S
C2837 C2836 1.397 . S
C2837 C2838 1.334 . S
C2838 H2809 0.950 . S
C2838 C2837 1.334 . S
C2838 C2839 1.287 . S
C2839 C2838 1.287 . S
C2839 C2840 1.524 . S
C2839 H2842 0.999 . S
C2840 H2810 0.950 . S
C2840 C2839 1.524 . S
C2840 C2841 1.415 . S
C2841 H2811 0.950 . S
C2841 C2836 1.363 . S
C2841 C2840 1.415 . S
H2842 C2839 0.999 . S
H2843 C2824 0.913 . S
H2844 C2862 0.951 . S
H2845 C2864 0.951 . S
H2846 C2866 0.950 . S
H2847 C2867 0.950 . S
H2848 C2869 0.950 . S
H2849 C2872 0.950 . S
H2850 C2873 0.950 . S
H2851 C2875 0.950 . S
H2852 C2876 0.950 . S
H2853 C2877 0.951 . S
H2854 C2879 0.951 . S
H2855 C2881 0.950 . S
H2856 C2882 0.950 . S
H2857 C2884 0.950 . S
H2858 C2887 0.950 . S
H2859 C2888 0.950 . S
H2860 C2890 0.950 . S
H2861 C2891 0.950 . S
C2862 H2844 0.951 . S
C2862 C2863 1.366 . S
C2862 C2864 1.388 . S
C2863 C2862 1.366 . S
C2863 C2867 1.385 . S
C2864 H2845 0.951 . S
C2864 C2862 1.388 . S
C2864 C2865 1.366 . S
C2865 C2864 1.366 . S
C2865 C2866 1.414 . S
C2865 C2868 1.499 . S
C2866 H2846 0.950 . S
C2866 C2865 1.414 . S
C2866 C2867 1.374 . S
C2867 H2847 0.950 . S
C2867 C2863 1.385 . S
C2867 C2866 1.374 . S
C2868 C2865 1.499 . S
C2868 C2869 1.373 . S
C2868 C2870 1.389 . S
C2869 H2848 0.950 . S
C2869 C2868 1.373 . S
C2869 C2885 1.377 . S
C2870 C2868 1.389 . S
C2870 C2871 1.524 . S
C2870 C2884 1.377 . S
C2871 C2870 1.524 . S
C2871 C2872 1.397 . S
C2871 C2876 1.363 . S
C2872 H2849 0.950 . S
C2872 C2871 1.397 . S
C2872 C2873 1.334 . S
C2873 H2850 0.950 . S
C2873 C2872 1.334 . S
C2873 C2874 1.287 . S
C2874 C2873 1.287 . S
C2874 C2875 1.524 . S
C2874 H2893 0.913 . S
C2875 H2851 0.950 . S
C2875 C2874 1.524 . S
C2875 C2876 1.415 . S
C2876 H2852 0.950 . S
C2876 C2871 1.363 . S
C2876 C2875 1.415 . S
C2877 H2853 0.951 . S
C2877 C2878 1.366 . S
C2877 C2879 1.388 . S
C2878 C2877 1.366 . S
C2878 C2882 1.385 . S
C2879 H2854 0.951 . S
C2879 C2877 1.388 . S
C2879 C2880 1.366 . S
C2880 C2879 1.366 . S
C2880 C2881 1.414 . S
C2880 C2883 1.499 . S
C2881 H2855 0.950 . S
C2881 C2880 1.414 . S
C2881 C2882 1.374 . S
C2882 H2856 0.950 . S
C2882 C2878 1.385 . S
C2882 C2881 1.374 . S
C2883 C2880 1.499 . S
C2883 C2884 1.373 . S
C2883 C2885 1.389 . S
C2884 H2857 0.950 . S
C2884 C2870 1.377 . S
C2884 C2883 1.373 . S
C2885 C2869 1.377 . S
C2885 C2883 1.389 . S
C2885 C2886 1.524 . S
C2886 C2885 1.524 . S
C2886 C2887 1.397 . S
C2886 C2891 1.363 . S
C2887 H2858 0.950 . S
C2887 C2886 1.397 . S
C2887 C2888 1.334 . S
C2888 H2859 0.950 . S
C2888 C2887 1.334 . S
C2888 C2889 1.287 . S
C2889 C2888 1.287 . S
C2889 C2890 1.524 . S
C2889 H2892 0.999 . S
C2890 H2860 0.950 . S
C2890 C2889 1.524 . S
C2890 C2891 1.415 . S
C2891 H2861 0.950 . S
C2891 C2886 1.363 . S
C2891 C2890 1.415 . S
H2892 C2889 0.999 . S
H2893 C2874 0.913 . S
H2894 C2912 0.951 . S
H2895 C2914 0.951 . S
H2896 C2916 0.950 . S
H2897 C2917 0.950 . S
H2898 C2919 0.950 . S
H2899 C2922 0.950 . S
H2900 C2923 0.950 . S
H2901 C2925 0.950 . S
H2902 C2926 0.950 . S
H2903 C2927 0.951 . S
H2904 C2929 0.951 . S
H2905 C2931 0.950 . S
H2906 C2932 0.950 . S
H2907 C2934 0.950 . S
H2908 C2937 0.950 . S
H2909 C2938 0.950 . S
H2910 C2940 0.950 . S
H2911 C2941 0.950 . S
C2912 H2894 0.951 . S
C2912 C2913 1.366 . S
C2912 C2914 1.388 . S
C2913 C2912 1.366 . S
C2913 C2917 1.385 . S
C2914 H2895 0.951 . S
C2914 C2912 1.388 . S
C2914 C2915 1.366 . S
C2915 C2914 1.366 . S
C2915 C2916 1.414 . S
C2915 C2918 1.499 . S
C2916 H2896 0.950 . S
C2916 C2915 1.414 . S
C2916 C2917 1.374 . S
C2917 H2897 0.950 . S
C2917 C2913 1.385 . S
C2917 C2916 1.374 . S
C2918 C2915 1.499 . S
C2918 C2919 1.373 . S
C2918 C2920 1.389 . S
C2919 H2898 0.950 . S
C2919 C2918 1.373 . S
C2919 C2935 1.377 1_455 S
C2920 C2918 1.389 . S
C2920 C2921 1.524 . S
C2920 C2934 1.377 1_455 S
C2921 C2920 1.524 . S
C2921 C2922 1.397 . S
C2921 C2926 1.363 . S
C2922 H2899 0.950 . S
C2922 C2921 1.397 . S
C2922 C2923 1.334 . S
C2923 H2900 0.950 . S
C2923 C2922 1.334 . S
C2923 C2924 1.287 . S
C2924 C2923 1.287 . S
C2924 C2925 1.524 . S
C2924 H2943 0.913 . S
C2925 H2901 0.950 . S
C2925 C2924 1.524 . S
C2925 C2926 1.415 . S
C2926 H2902 0.950 . S
C2926 C2921 1.363 . S
C2926 C2925 1.415 . S
C2927 H2903 0.951 . S
C2927 C2928 1.366 . S
C2927 C2929 1.388 . S
C2928 C2927 1.366 . S
C2928 C2932 1.385 . S
C2929 H2904 0.951 . S
C2929 C2927 1.388 . S
C2929 C2930 1.366 . S
C2930 C2929 1.366 . S
C2930 C2931 1.414 . S
C2930 C2933 1.499 . S
C2931 H2905 0.950 . S
C2931 C2930 1.414 . S
C2931 C2932 1.374 . S
C2932 H2906 0.950 . S
C2932 C2928 1.385 . S
C2932 C2931 1.374 . S
C2933 C2930 1.499 . S
C2933 C2934 1.373 . S
C2933 C2935 1.389 . S
C2934 H2907 0.950 . S
C2934 C2920 1.377 1_655 S
C2934 C2933 1.373 . S
C2935 C2919 1.377 1_655 S
C2935 C2933 1.389 . S
C2935 C2936 1.524 . S
C2936 C2935 1.524 . S
C2936 C2937 1.397 1_554 S
C2936 C2941 1.363 . S
C2937 H2908 0.950 . S
C2937 C2936 1.397 1_556 S
C2937 C2938 1.334 . S
C2938 H2909 0.950 . S
C2938 C2937 1.334 . S
C2938 C2939 1.287 . S
C2939 C2938 1.287 . S
C2939 C2940 1.524 . S
C2939 H2942 0.999 . S
C2940 H2910 0.950 . S
C2940 C2939 1.524 . S
C2940 C2941 1.415 1_556 S
C2941 H2911 0.950 . S
C2941 C2936 1.363 . S
C2941 C2940 1.415 1_554 S
H2942 C2939 0.999 . S
H2943 C2924 0.913 . S
H2944 C2962 0.951 . S
H2945 C2964 0.951 . S
H2946 C2966 0.950 . S
H2947 C2967 0.950 . S
H2948 C2969 0.950 . S
H2949 C2972 0.950 . S
H2950 C2973 0.950 . S
H2951 C2975 0.950 . S
H2952 C2976 0.950 . S
H2953 C2977 0.951 . S
H2954 C2979 0.951 . S
H2955 C2981 0.950 . S
H2956 C2982 0.950 . S
H2957 C2984 0.950 . S
H2958 C2987 0.950 . S
H2959 C2988 0.950 . S
H2960 C2990 0.950 . S
H2961 C2991 0.950 . S
C2962 H2944 0.951 . S
C2962 C2963 1.366 . S
C2962 C2964 1.388 . S
C2963 C2962 1.366 . S
C2963 C2967 1.385 . S
C2964 H2945 0.951 . S
C2964 C2962 1.388 . S
C2964 C2965 1.366 . S
C2965 C2964 1.366 . S
C2965 C2966 1.414 . S
C2965 C2968 1.499 . S
C2966 H2946 0.950 . S
C2966 C2965 1.414 . S
C2966 C2967 1.374 . S
C2967 H2947 0.950 . S
C2967 C2963 1.385 . S
C2967 C2966 1.374 . S
C2968 C2965 1.499 . S
C2968 C2969 1.373 1_554 S
C2968 C2970 1.389 . S
C2969 H2948 0.950 . S
C2969 C2968 1.373 1_556 S
C2969 C2985 1.377 . S
C2970 C2968 1.389 . S
C2970 C2971 1.524 . S
C2970 C2984 1.377 . S
C2971 C2970 1.524 . S
C2971 C2972 1.397 . S
C2971 C2976 1.363 . S
C2972 H2949 0.950 . S
C2972 C2971 1.397 . S
C2972 C2973 1.334 . S
C2973 H2950 0.950 . S
C2973 C2972 1.334 . S
C2973 C2974 1.287 . S
C2974 C2973 1.287 . S
C2974 C2975 1.524 . S
C2974 H2993 0.913 . S
C2975 H2951 0.950 . S
C2975 C2974 1.524 . S
C2975 C2976 1.415 . S
C2976 H2952 0.950 . S
C2976 C2971 1.363 . S
C2976 C2975 1.415 . S
C2977 H2953 0.951 . S
C2977 C2978 1.366 . S
C2977 C2979 1.388 . S
C2978 C2977 1.366 . S
C2978 C2982 1.385 . S
C2979 H2954 0.951 . S
C2979 C2977 1.388 . S
C2979 C2980 1.366 . S
C2980 C2979 1.366 . S
C2980 C2981 1.414 . S
C2980 C2983 1.499 . S
C2981 H2955 0.950 . S
C2981 C2980 1.414 . S
C2981 C2982 1.374 . S
C2982 H2956 0.950 . S
C2982 C2978 1.385 . S
C2982 C2981 1.374 . S
C2983 C2980 1.499 . S
C2983 C2984 1.373 1_556 S
C2983 C2985 1.389 . S
C2984 H2957 0.950 . S
C2984 C2970 1.377 . S
C2984 C2983 1.373 1_554 S
C2985 C2969 1.377 . S
C2985 C2983 1.389 . S
C2985 C2986 1.524 . S
C2986 C2985 1.524 . S
C2986 C2987 1.397 . S
C2986 C2991 1.363 . S
C2987 H2958 0.950 . S
C2987 C2986 1.397 . S
C2987 C2988 1.334 . S
C2988 H2959 0.950 . S
C2988 C2987 1.334 . S
C2988 C2989 1.287 . S
C2989 C2988 1.287 . S
C2989 C2990 1.524 . S
C2989 H2992 0.999 . S
C2990 H2960 0.950 . S
C2990 C2989 1.524 . S
C2990 C2991 1.415 . S
C2991 H2961 0.950 . S
C2991 C2986 1.363 . S
C2991 C2990 1.415 . S
H2992 C2989 0.999 . S
H2993 C2974 0.913 . S
H2994 C3012 0.951 . S
H2995 C3014 0.951 . S
H2996 C3016 0.950 . S
H2997 C3017 0.950 . S
H2998 C3019 0.950 . S
H2999 C3022 0.950 . S
H3000 C3023 0.950 . S
H3001 C3025 0.950 . S
H3002 C3026 0.950 . S
H3003 C3027 0.951 . S
H3004 C3029 0.951 . S
H3005 C3031 0.950 . S
H3006 C3032 0.950 . S
H3007 C3034 0.950 . S
H3008 C3037 0.950 . S
H3009 C3038 0.950 . S
H3010 C3040 0.950 . S
H3011 C3041 0.950 . S
C3012 H2994 0.951 . S
C3012 C3013 1.366 . S
C3012 C3014 1.388 . S
C3013 C3012 1.366 . S
C3013 C3017 1.385 . S
C3014 H2995 0.951 . S
C3014 C3012 1.388 . S
C3014 C3015 1.366 . S
C3015 C3014 1.366 . S
C3015 C3016 1.414 . S
C3015 C3018 1.499 . S
C3016 H2996 0.950 . S
C3016 C3015 1.414 . S
C3016 C3017 1.374 . S
C3017 H2997 0.950 . S
C3017 C3013 1.385 . S
C3017 C3016 1.374 . S
C3018 C3015 1.499 . S
C3018 C3019 1.373 . S
C3018 C3020 1.389 . S
C3019 H2998 0.950 . S
C3019 C3018 1.373 . S
C3019 C3035 1.377 . S
C3020 C3018 1.389 . S
C3020 C3021 1.524 . S
C3020 C3034 1.377 . S
C3021 C3020 1.524 . S
C3021 C3022 1.397 . S
C3021 C3026 1.363 . S
C3022 H2999 0.950 . S
C3022 C3021 1.397 . S
C3022 C3023 1.334 . S
C3023 H3000 0.950 . S
C3023 C3022 1.334 . S
C3023 C3024 1.287 . S
C3024 C3023 1.287 . S
C3024 C3025 1.524 . S
C3024 H3043 0.913 . S
C3025 H3001 0.950 . S
C3025 C3024 1.524 . S
C3025 C3026 1.415 . S
C3026 H3002 0.950 . S
C3026 C3021 1.363 . S
C3026 C3025 1.415 . S
C3027 H3003 0.951 . S
C3027 C3028 1.366 . S
C3027 C3029 1.388 . S
C3028 C3027 1.366 . S
C3028 C3032 1.385 . S
C3029 H3004 0.951 . S
C3029 C3027 1.388 . S
C3029 C3030 1.366 . S
C3030 C3029 1.366 . S
C3030 C3031 1.414 . S
C3030 C3033 1.499 . S
C3031 H3005 0.950 . S
C3031 C3030 1.414 . S
C3031 C3032 1.374 . S
C3032 H3006 0.950 . S
C3032 C3028 1.385 . S
C3032 C3031 1.374 . S
C3033 C3030 1.499 . S
C3033 C3034 1.373 . S
C3033 C3035 1.389 . S
C3034 H3007 0.950 . S
C3034 C3020 1.377 . S
C3034 C3033 1.373 . S
C3035 C3019 1.377 . S
C3035 C3033 1.389 . S
C3035 C3036 1.524 . S
C3036 C3035 1.524 . S
C3036 C3037 1.397 . S
C3036 C3041 1.363 . S
C3037 H3008 0.950 . S
C3037 C3036 1.397 . S
C3037 C3038 1.334 . S
C3038 H3009 0.950 . S
C3038 C3037 1.334 . S
C3038 C3039 1.287 . S
C3039 C3038 1.287 . S
C3039 C3040 1.524 . S
C3039 H3042 0.999 . S
C3040 H3010 0.950 . S
C3040 C3039 1.524 . S
C3040 C3041 1.415 . S
C3041 H3011 0.950 . S
C3041 C3036 1.363 . S
C3041 C3040 1.415 . S
H3042 C3039 0.999 . S
H3043 C3024 0.913 . S
H3044 C3062 0.951 . S
H3045 C3064 0.951 . S
H3046 C3066 0.950 . S
H3047 C3067 0.950 . S
H3048 C3069 0.950 . S
H3049 C3072 0.950 . S
H3050 C3073 0.950 . S
H3051 C3075 0.950 . S
H3052 C3076 0.950 . S
H3053 C3077 0.951 . S
H3054 C3079 0.951 . S
H3055 C3081 0.950 . S
H3056 C3082 0.950 . S
H3057 C3084 0.950 . S
H3058 C3087 0.950 . S
H3059 C3088 0.950 . S
H3060 C3090 0.950 . S
H3061 C3091 0.950 . S
C3062 H3044 0.951 . S
C3062 C3063 1.366 . S
C3062 C3064 1.388 . S
C3063 C3062 1.366 . S
C3063 C3067 1.385 . S
C3064 H3045 0.951 . S
C3064 C3062 1.388 . S
C3064 C3065 1.366 . S
C3065 C3064 1.366 . S
C3065 C3066 1.414 . S
C3065 C3068 1.499 . S
C3066 H3046 0.950 . S
C3066 C3065 1.414 . S
C3066 C3067 1.374 . S
C3067 H3047 0.950 . S
C3067 C3063 1.385 . S
C3067 C3066 1.374 . S
C3068 C3065 1.499 . S
C3068 C3069 1.373 . S
C3068 C3070 1.389 . S
C3069 H3048 0.950 . S
C3069 C3068 1.373 . S
C3069 C3085 1.377 . S
C3070 C3068 1.389 . S
C3070 C3071 1.524 . S
C3070 C3084 1.377 . S
C3071 C3070 1.524 . S
C3071 C3072 1.397 . S
C3071 C3076 1.363 . S
C3072 H3049 0.950 . S
C3072 C3071 1.397 . S
C3072 C3073 1.334 . S
C3073 H3050 0.950 . S
C3073 C3072 1.334 . S
C3073 C3074 1.287 . S
C3074 C3073 1.287 . S
C3074 C3075 1.524 . S
C3074 H3093 0.913 . S
C3075 H3051 0.950 . S
C3075 C3074 1.524 . S
C3075 C3076 1.415 . S
C3076 H3052 0.950 . S
C3076 C3071 1.363 . S
C3076 C3075 1.415 . S
C3077 H3053 0.951 . S
C3077 C3078 1.366 . S
C3077 C3079 1.388 . S
C3078 C3077 1.366 . S
C3078 C3082 1.385 . S
C3079 H3054 0.951 . S
C3079 C3077 1.388 . S
C3079 C3080 1.366 . S
C3080 C3079 1.366 . S
C3080 C3081 1.414 . S
C3080 C3083 1.499 . S
C3081 H3055 0.950 . S
C3081 C3080 1.414 . S
C3081 C3082 1.374 . S
C3082 H3056 0.950 . S
C3082 C3078 1.385 . S
C3082 C3081 1.374 . S
C3083 C3080 1.499 . S
C3083 C3084 1.373 . S
C3083 C3085 1.389 . S
C3084 H3057 0.950 . S
C3084 C3070 1.377 . S
C3084 C3083 1.373 . S
C3085 C3069 1.377 . S
C3085 C3083 1.389 . S
C3085 C3086 1.524 . S
C3086 C3085 1.524 . S
C3086 C3087 1.397 . S
C3086 C3091 1.363 . S
C3087 H3058 0.950 . S
C3087 C3086 1.397 . S
C3087 C3088 1.334 . S
C3088 H3059 0.950 . S
C3088 C3087 1.334 . S
C3088 C3089 1.287 . S
C3089 C3088 1.287 . S
C3089 C3090 1.524 . S
C3089 H3092 0.999 . S
C3090 H3060 0.950 . S
C3090 C3089 1.524 . S
C3090 C3091 1.415 . S
C3091 H3061 0.950 . S
C3091 C3086 1.363 . S
C3091 C3090 1.415 . S
H3092 C3089 0.999 . S
H3093 C3074 0.913 . S
H3094 C3112 0.951 . S
H3095 C3114 0.951 . S
H3096 C3116 0.950 . S
H3097 C3117 0.950 . S
H3098 C3119 0.950 . S
H3099 C3122 0.950 . S
H3100 C3123 0.950 . S
H3101 C3125 0.950 . S
H3102 C3126 0.950 . S
H3103 C3127 0.951 . S
H3104 C3129 0.951 . S
H3105 C3131 0.950 . S
H3106 C3132 0.950 . S
H3107 C3134 0.950 . S
H3108 C3137 0.950 . S
H3109 C3138 0.950 . S
H3110 C3140 0.950 . S
H3111 C3141 0.950 . S
C3112 H3094 0.951 . S
C3112 C3113 1.366 . S
C3112 C3114 1.388 . S
C3113 C3112 1.366 . S
C3113 C3117 1.385 . S
C3114 H3095 0.951 . S
C3114 C3112 1.388 . S
C3114 C3115 1.366 . S
C3115 C3114 1.366 . S
C3115 C3116 1.414 . S
C3115 C3118 1.499 . S
C3116 H3096 0.950 . S
C3116 C3115 1.414 . S
C3116 C3117 1.374 . S
C3117 H3097 0.950 . S
C3117 C3113 1.385 . S
C3117 C3116 1.374 . S
C3118 C3115 1.499 . S
C3118 C3119 1.373 . S
C3118 C3120 1.389 . S
C3119 H3098 0.950 . S
C3119 C3118 1.373 . S
C3119 C3135 1.377 . S
C3120 C3118 1.389 . S
C3120 C3121 1.524 . S
C3120 C3134 1.377 . S
C3121 C3120 1.524 . S
C3121 C3122 1.397 . S
C3121 C3126 1.363 . S
C3122 H3099 0.950 . S
C3122 C3121 1.397 . S
C3122 C3123 1.334 . S
C3123 H3100 0.950 . S
C3123 C3122 1.334 . S
C3123 C3124 1.287 . S
C3124 C3123 1.287 . S
C3124 C3125 1.524 . S
C3124 H3143 0.913 . S
C3125 H3101 0.950 . S
C3125 C3124 1.524 . S
C3125 C3126 1.415 . S
C3126 H3102 0.950 . S
C3126 C3121 1.363 . S
C3126 C3125 1.415 . S
C3127 H3103 0.951 . S
C3127 C3128 1.366 . S
C3127 C3129 1.388 . S
C3128 C3127 1.366 . S
C3128 C3132 1.385 . S
C3129 H3104 0.951 . S
C3129 C3127 1.388 . S
C3129 C3130 1.366 . S
C3130 C3129 1.366 . S
C3130 C3131 1.414 . S
C3130 C3133 1.499 . S
C3131 H3105 0.950 . S
C3131 C3130 1.414 . S
C3131 C3132 1.374 . S
C3132 H3106 0.950 . S
C3132 C3128 1.385 . S
C3132 C3131 1.374 . S
C3133 C3130 1.499 . S
C3133 C3134 1.373 . S
C3133 C3135 1.389 . S
C3134 H3107 0.950 . S
C3134 C3120 1.377 . S
C3134 C3133 1.373 . S
C3135 C3119 1.377 . S
C3135 C3133 1.389 . S
C3135 C3136 1.524 . S
C3136 C3135 1.524 . S
C3136 C3137 1.397 . S
C3136 C3141 1.363 . S
C3137 H3108 0.950 . S
C3137 C3136 1.397 . S
C3137 C3138 1.334 . S
C3138 H3109 0.950 . S
C3138 C3137 1.334 . S
C3138 C3139 1.287 . S
C3139 C3138 1.287 . S
C3139 C3140 1.524 . S
C3139 H3142 0.999 . S
C3140 H3110 0.950 . S
C3140 C3139 1.524 . S
C3140 C3141 1.415 . S
C3141 H3111 0.950 . S
C3141 C3136 1.363 . S
C3141 C3140 1.415 . S
H3142 C3139 0.999 . S
H3143 C3124 0.913 . S
H3144 C3162 0.951 . S
H3145 C3164 0.951 . S
H3146 C3166 0.950 1_556 S
H3147 C3167 0.950 . S
H3148 C3169 0.950 . S
H3149 C3172 0.950 . S
H3150 C3173 0.950 . S
H3151 C3175 0.950 . S
H3152 C3176 0.950 . S
H3153 C3177 0.951 . S
H3154 C3179 0.951 . S
H3155 C3181 0.950 1_554 S
H3156 C3182 0.950 . S
H3157 C3184 0.950 . S
H3158 C3187 0.950 . S
H3159 C3188 0.950 . S
H3160 C3190 0.950 . S
H3161 C3191 0.950 . S
C3162 H3144 0.951 . S
C3162 C3163 1.366 . S
C3162 C3164 1.388 . S
C3163 C3162 1.366 . S
C3163 C3167 1.385 . S
C3164 H3145 0.951 . S
C3164 C3162 1.388 . S
C3164 C3165 1.366 . S
C3165 C3164 1.366 . S
C3165 C3166 1.414 . S
C3165 C3168 1.499 . S
C3166 H3146 0.950 1_554 S
C3166 C3165 1.414 . S
C3166 C3167 1.374 . S
C3167 H3147 0.950 . S
C3167 C3163 1.385 . S
C3167 C3166 1.374 . S
C3168 C3165 1.499 . S
C3168 C3169 1.373 1_554 S
C3168 C3170 1.389 . S
C3169 H3148 0.950 . S
C3169 C3168 1.373 1_556 S
C3169 C3185 1.377 . S
C3170 C3168 1.389 . S
C3170 C3171 1.524 . S
C3170 C3184 1.377 . S
C3171 C3170 1.524 . S
C3171 C3172 1.397 . S
C3171 C3176 1.363 . S
C3172 H3149 0.950 . S
C3172 C3171 1.397 . S
C3172 C3173 1.334 . S
C3173 H3150 0.950 . S
C3173 C3172 1.334 . S
C3173 C3174 1.287 . S
C3174 C3173 1.287 . S
C3174 C3175 1.524 . S
C3174 H3193 0.913 . S
C3175 H3151 0.950 . S
C3175 C3174 1.524 . S
C3175 C3176 1.415 . S
C3176 H3152 0.950 . S
C3176 C3171 1.363 . S
C3176 C3175 1.415 . S
C3177 H3153 0.951 . S
C3177 C3178 1.366 . S
C3177 C3179 1.388 . S
C3178 C3177 1.366 . S
C3178 C3182 1.385 . S
C3179 H3154 0.951 . S
C3179 C3177 1.388 . S
C3179 C3180 1.366 . S
C3180 C3179 1.366 . S
C3180 C3181 1.414 . S
C3180 C3183 1.499 . S
C3181 H3155 0.950 1_556 S
C3181 C3180 1.414 . S
C3181 C3182 1.374 . S
C3182 H3156 0.950 . S
C3182 C3178 1.385 . S
C3182 C3181 1.374 . S
C3183 C3180 1.499 . S
C3183 C3184 1.373 1_556 S
C3183 C3185 1.389 . S
C3184 H3157 0.950 . S
C3184 C3170 1.377 . S
C3184 C3183 1.373 1_554 S
C3185 C3169 1.377 . S
C3185 C3183 1.389 . S
C3185 C3186 1.524 . S
C3186 C3185 1.524 . S
C3186 C3187 1.397 . S
C3186 C3191 1.363 . S
C3187 H3158 0.950 . S
C3187 C3186 1.397 . S
C3187 C3188 1.334 . S
C3188 H3159 0.950 . S
C3188 C3187 1.334 . S
C3188 C3189 1.287 . S
C3189 C3188 1.287 . S
C3189 C3190 1.524 . S
C3189 H3192 0.999 . S
C3190 H3160 0.950 . S
C3190 C3189 1.524 . S
C3190 C3191 1.415 . S
C3191 H3161 0.950 . S
C3191 C3186 1.363 . S
C3191 C3190 1.415 . S
H3192 C3189 0.999 . S
H3193 C3174 0.913 . S
H3194 C3212 0.951 . S
H3195 C3214 0.951 . S
H3196 C3216 0.950 . S
H3197 C3217 0.950 . S
H3198 C3219 0.950 . S
H3199 C3222 0.950 . S
H3200 C3223 0.950 . S
H3201 C3225 0.950 . S
H3202 C3226 0.950 . S
H3203 C3227 0.951 . S
H3204 C3229 0.951 . S
H3205 C3231 0.950 . S
H3206 C3232 0.950 . S
H3207 C3234 0.950 . S
H3208 C3237 0.950 . S
H3209 C3238 0.950 . S
H3210 C3240 0.950 . S
H3211 C3241 0.950 . S
C3212 H3194 0.951 . S
C3212 C3213 1.366 . S
C3212 C3214 1.388 . S
C3213 C3212 1.366 . S
C3213 C3217 1.385 . S
C3214 H3195 0.951 . S
C3214 C3212 1.388 . S
C3214 C3215 1.366 . S
C3215 C3214 1.366 . S
C3215 C3216 1.414 . S
C3215 C3218 1.499 . S
C3216 H3196 0.950 . S
C3216 C3215 1.414 . S
C3216 C3217 1.374 . S
C3217 H3197 0.950 . S
C3217 C3213 1.385 . S
C3217 C3216 1.374 . S
C3218 C3215 1.499 . S
C3218 C3219 1.373 . S
C3218 C3220 1.389 . S
C3219 H3198 0.950 . S
C3219 C3218 1.373 . S
C3219 C3235 1.377 . S
C3220 C3218 1.389 . S
C3220 C3221 1.524 . S
C3220 C3234 1.377 . S
C3221 C3220 1.524 . S
C3221 C3222 1.397 . S
C3221 C3226 1.363 . S
C3222 H3199 0.950 . S
C3222 C3221 1.397 . S
C3222 C3223 1.334 . S
C3223 H3200 0.950 . S
C3223 C3222 1.334 . S
C3223 C3224 1.287 . S
C3224 C3223 1.287 . S
C3224 C3225 1.524 . S
C3224 H3243 0.913 . S
C3225 H3201 0.950 . S
C3225 C3224 1.524 . S
C3225 C3226 1.415 . S
C3226 H3202 0.950 . S
C3226 C3221 1.363 . S
C3226 C3225 1.415 . S
C3227 H3203 0.951 . S
C3227 C3228 1.366 . S
C3227 C3229 1.388 . S
C3228 C3227 1.366 . S
C3228 C3232 1.385 . S
C3229 H3204 0.951 . S
C3229 C3227 1.388 . S
C3229 C3230 1.366 . S
C3230 C3229 1.366 . S
C3230 C3231 1.414 . S
C3230 C3233 1.499 . S
C3231 H3205 0.950 . S
C3231 C3230 1.414 . S
C3231 C3232 1.374 . S
C3232 H3206 0.950 . S
C3232 C3228 1.385 . S
C3232 C3231 1.374 . S
C3233 C3230 1.499 . S
C3233 C3234 1.373 . S
C3233 C3235 1.389 . S
C3234 H3207 0.950 . S
C3234 C3220 1.377 . S
C3234 C3233 1.373 . S
C3235 C3219 1.377 . S
C3235 C3233 1.389 . S
C3235 C3236 1.524 . S
C3236 C3235 1.524 . S
C3236 C3237 1.397 . S
C3236 C3241 1.363 . S
C3237 H3208 0.950 . S
C3237 C3236 1.397 . S
C3237 C3238 1.334 . S
C3238 H3209 0.950 . S
C3238 C3237 1.334 . S
C3238 C3239 1.287 . S
C3239 C3238 1.287 . S
C3239 C3240 1.524 . S
C3239 H3242 0.999 . S
C3240 H3210 0.950 . S
C3240 C3239 1.524 . S
C3240 C3241 1.415 . S
C3241 H3211 0.950 . S
C3241 C3236 1.363 . S
C3241 C3240 1.415 . S
H3242 C3239 0.999 . S
H3243 C3224 0.913 . S
H3244 C3262 0.951 . S
H3245 C3264 0.951 . S
H3246 C3266 0.950 . S
H3247 C3267 0.950 . S
H3248 C3269 0.950 . S
H3249 C3272 0.950 . S
H3250 C3273 0.950 . S
H3251 C3275 0.950 . S
H3252 C3276 0.950 . S
H3253 C3277 0.951 . S
H3254 C3279 0.951 . S
H3255 C3281 0.950 . S
H3256 C3282 0.950 . S
H3257 C3284 0.950 . S
H3258 C3287 0.950 . S
H3259 C3288 0.950 . S
H3260 C3290 0.950 . S
H3261 C3291 0.950 . S
C3262 H3244 0.951 . S
C3262 C3263 1.366 . S
C3262 C3264 1.388 . S
C3263 C3262 1.366 . S
C3263 C3267 1.385 . S
C3264 H3245 0.951 . S
C3264 C3262 1.388 . S
C3264 C3265 1.366 . S
C3265 C3264 1.366 . S
C3265 C3266 1.414 . S
C3265 C3268 1.499 . S
C3266 H3246 0.950 . S
C3266 C3265 1.414 . S
C3266 C3267 1.374 . S
C3267 H3247 0.950 . S
C3267 C3263 1.385 . S
C3267 C3266 1.374 . S
C3268 C3265 1.499 . S
C3268 C3269 1.373 . S
C3268 C3270 1.389 . S
C3269 H3248 0.950 . S
C3269 C3268 1.373 . S
C3269 C3285 1.377 . S
C3270 C3268 1.389 . S
C3270 C3271 1.524 . S
C3270 C3284 1.377 . S
C3271 C3270 1.524 . S
C3271 C3272 1.397 . S
C3271 C3276 1.363 . S
C3272 H3249 0.950 . S
C3272 C3271 1.397 . S
C3272 C3273 1.334 . S
C3273 H3250 0.950 . S
C3273 C3272 1.334 . S
C3273 C3274 1.287 . S
C3274 C3273 1.287 . S
C3274 C3275 1.524 . S
C3274 H3293 0.913 . S
C3275 H3251 0.950 . S
C3275 C3274 1.524 . S
C3275 C3276 1.415 . S
C3276 H3252 0.950 . S
C3276 C3271 1.363 . S
C3276 C3275 1.415 . S
C3277 H3253 0.951 . S
C3277 C3278 1.366 . S
C3277 C3279 1.388 . S
C3278 C3277 1.366 . S
C3278 C3282 1.385 . S
C3279 H3254 0.951 . S
C3279 C3277 1.388 . S
C3279 C3280 1.366 . S
C3280 C3279 1.366 . S
C3280 C3281 1.414 . S
C3280 C3283 1.499 . S
C3281 H3255 0.950 . S
C3281 C3280 1.414 . S
C3281 C3282 1.374 . S
C3282 H3256 0.950 . S
C3282 C3278 1.385 . S
C3282 C3281 1.374 . S
C3283 C3280 1.499 . S
C3283 C3284 1.373 . S
C3283 C3285 1.389 . S
C3284 H3257 0.950 . S
C3284 C3270 1.377 . S
C3284 C3283 1.373 . S
C3285 C3269 1.377 . S
C3285 C3283 1.389 . S
C3285 C3286 1.524 . S
C3286 C3285 1.524 . S
C3286 C3287 1.397 . S
C3286 C3291 1.363 . S
C3287 H3258 0.950 . S
C3287 C3286 1.397 . S
C3287 C3288 1.334 . S
C3288 H3259 0.950 . S
C3288 C3287 1.334 . S
C3288 C3289 1.287 . S
C3289 C3288 1.287 . S
C3289 C3290 1.524 . S
C3289 H3292 0.999 . S
C3290 H3260 0.950 . S
C3290 C3289 1.524 . S
C3290 C3291 1.415 . S
C3291 H3261 0.950 . S
C3291 C3286 1.363 . S
C3291 C3290 1.415 . S
H3292 C3289 0.999 . S
H3293 C3274 0.913 . S
H3294 C3312 0.951 . S
H3295 C3314 0.951 . S
H3296 C3316 0.950 . S
H3297 C3317 0.950 . S
H3298 C3319 0.950 . S
H3299 C3322 0.950 . S
H3300 C3323 0.950 . S
H3301 C3325 0.950 . S
H3302 C3326 0.950 . S
H3303 C3327 0.951 . S
H3304 C3329 0.951 . S
H3305 C3331 0.950 . S
H3306 C3332 0.950 . S
H3307 C3334 0.950 . S
H3308 C3337 0.950 . S
H3309 C3338 0.950 . S
H3310 C3340 0.950 . S
H3311 C3341 0.950 . S
C3312 H3294 0.951 . S
C3312 C3313 1.366 . S
C3312 C3314 1.388 . S
C3313 C3312 1.366 . S
C3313 C3317 1.385 . S
C3314 H3295 0.951 . S
C3314 C3312 1.388 . S
C3314 C3315 1.366 . S
C3315 C3314 1.366 . S
C3315 C3316 1.414 . S
C3315 C3318 1.499 . S
C3316 H3296 0.950 . S
C3316 C3315 1.414 . S
C3316 C3317 1.374 . S
C3317 H3297 0.950 . S
C3317 C3313 1.385 . S
C3317 C3316 1.374 . S
C3318 C3315 1.499 . S
C3318 C3319 1.373 . S
C3318 C3320 1.389 . S
C3319 H3298 0.950 . S
C3319 C3318 1.373 . S
C3319 C3335 1.377 . S
C3320 C3318 1.389 . S
C3320 C3321 1.524 . S
C3320 C3334 1.377 . S
C3321 C3320 1.524 . S
C3321 C3322 1.397 . S
C3321 C3326 1.363 . S
C3322 H3299 0.950 . S
C3322 C3321 1.397 . S
C3322 C3323 1.334 . S
C3323 H3300 0.950 . S
C3323 C3322 1.334 . S
C3323 C3324 1.287 . S
C3324 C3323 1.287 . S
C3324 C3325 1.524 . S
C3324 H3343 0.913 . S
C3325 H3301 0.950 . S
C3325 C3324 1.524 . S
C3325 C3326 1.415 . S
C3326 H3302 0.950 . S
C3326 C3321 1.363 . S
C3326 C3325 1.415 . S
C3327 H3303 0.951 . S
C3327 C3328 1.366 . S
C3327 C3329 1.388 . S
C3328 C3327 1.366 . S
C3328 C3332 1.385 . S
C3329 H3304 0.951 . S
C3329 C3327 1.388 . S
C3329 C3330 1.366 . S
C3330 C3329 1.366 . S
C3330 C3331 1.414 . S
C3330 C3333 1.499 . S
C3331 H3305 0.950 . S
C3331 C3330 1.414 . S
C3331 C3332 1.374 . S
C3332 H3306 0.950 . S
C3332 C3328 1.385 . S
C3332 C3331 1.374 . S
C3333 C3330 1.499 . S
C3333 C3334 1.373 . S
C3333 C3335 1.389 . S
C3334 H3307 0.950 . S
C3334 C3320 1.377 . S
C3334 C3333 1.373 . S
C3335 C3319 1.377 . S
C3335 C3333 1.389 . S
C3335 C3336 1.524 . S
C3336 C3335 1.524 . S
C3336 C3337 1.397 . S
C3336 C3341 1.363 . S
C3337 H3308 0.950 . S
C3337 C3336 1.397 . S
C3337 C3338 1.334 . S
C3338 H3309 0.950 . S
C3338 C3337 1.334 . S
C3338 C3339 1.287 . S
C3339 C3338 1.287 . S
C3339 C3340 1.524 . S
C3339 H3342 0.999 . S
C3340 H3310 0.950 . S
C3340 C3339 1.524 . S
C3340 C3341 1.415 . S
C3341 H3311 0.950 . S
C3341 C3336 1.363 . S
C3341 C3340 1.415 . S
H3342 C3339 0.999 . S
H3343 C3324 0.913 . S
H3344 C3362 0.951 . S
H3345 C3364 0.951 . S
H3346 C3366 0.950 . S
H3347 C3367 0.950 . S
H3348 C3369 0.950 . S
H3349 C3372 0.950 . S
H3350 C3373 0.950 . S
H3351 C3375 0.950 . S
H3352 C3376 0.950 . S
H3353 C3377 0.951 . S
H3354 C3379 0.951 . S
H3355 C3381 0.950 . S
H3356 C3382 0.950 . S
H3357 C3384 0.950 . S
H3358 C3387 0.950 . S
H3359 C3388 0.950 . S
H3360 C3390 0.950 . S
H3361 C3391 0.950 . S
C3362 H3344 0.951 . S
C3362 C3363 1.366 . S
C3362 C3364 1.388 . S
C3363 C3362 1.366 . S
C3363 C3367 1.385 . S
C3364 H3345 0.951 . S
C3364 C3362 1.388 . S
C3364 C3365 1.366 . S
C3365 C3364 1.366 . S
C3365 C3366 1.414 . S
C3365 C3368 1.499 . S
C3366 H3346 0.950 . S
C3366 C3365 1.414 . S
C3366 C3367 1.374 . S
C3367 H3347 0.950 . S
C3367 C3363 1.385 . S
C3367 C3366 1.374 . S
C3368 C3365 1.499 . S
C3368 C3369 1.373 . S
C3368 C3370 1.389 . S
C3369 H3348 0.950 . S
C3369 C3368 1.373 . S
C3369 C3385 1.377 1_565 S
C3370 C3368 1.389 . S
C3370 C3371 1.524 . S
C3370 C3384 1.377 1_565 S
C3371 C3370 1.524 . S
C3371 C3372 1.397 . S
C3371 C3376 1.363 . S
C3372 H3349 0.950 . S
C3372 C3371 1.397 . S
C3372 C3373 1.334 . S
C3373 H3350 0.950 . S
C3373 C3372 1.334 . S
C3373 C3374 1.287 . S
C3374 C3373 1.287 . S
C3374 C3375 1.524 . S
C3374 H3393 0.913 . S
C3375 H3351 0.950 . S
C3375 C3374 1.524 . S
C3375 C3376 1.415 . S
C3376 H3352 0.950 . S
C3376 C3371 1.363 . S
C3376 C3375 1.415 . S
C3377 H3353 0.951 . S
C3377 C3378 1.366 . S
C3377 C3379 1.388 . S
C3378 C3377 1.366 . S
C3378 C3382 1.385 . S
C3379 H3354 0.951 . S
C3379 C3377 1.388 . S
C3379 C3380 1.366 . S
C3380 C3379 1.366 . S
C3380 C3381 1.414 . S
C3380 C3383 1.499 . S
C3381 H3355 0.950 . S
C3381 C3380 1.414 . S
C3381 C3382 1.374 . S
C3382 H3356 0.950 . S
C3382 C3378 1.385 . S
C3382 C3381 1.374 . S
C3383 C3380 1.499 . S
C3383 C3384 1.373 . S
C3383 C3385 1.389 . S
C3384 H3357 0.950 . S
C3384 C3370 1.377 1_545 S
C3384 C3383 1.373 . S
C3385 C3369 1.377 1_545 S
C3385 C3383 1.389 . S
C3385 C3386 1.524 . S
C3386 C3385 1.524 . S
C3386 C3387 1.397 . S
C3386 C3391 1.363 . S
C3387 H3358 0.950 . S
C3387 C3386 1.397 . S
C3387 C3388 1.334 . S
C3388 H3359 0.950 . S
C3388 C3387 1.334 . S
C3388 C3389 1.287 . S
C3389 C3388 1.287 . S
C3389 C3390 1.524 . S
C3389 H3392 0.999 . S
C3390 H3360 0.950 . S
C3390 C3389 1.524 . S
C3390 C3391 1.415 . S
C3391 H3361 0.950 . S
C3391 C3386 1.363 . S
C3391 C3390 1.415 . S
H3392 C3389 0.999 . S
H3393 C3374 0.913 . S
H3394 C3412 0.951 . S
H3395 C3414 0.951 . S
H3396 C3416 0.950 . S
H3397 C3417 0.950 . S
H3398 C3419 0.950 . S
H3399 C3422 0.950 . S
H3400 C3423 0.950 . S
H3401 C3425 0.950 . S
H3402 C3426 0.950 . S
H3403 C3427 0.951 . S
H3404 C3429 0.951 . S
H3405 C3431 0.950 . S
H3406 C3432 0.950 . S
H3407 C3434 0.950 . S
H3408 C3437 0.950 . S
H3409 C3438 0.950 . S
H3410 C3440 0.950 . S
H3411 C3441 0.950 . S
C3412 H3394 0.951 . S
C3412 C3413 1.366 . S
C3412 C3414 1.388 . S
C3413 C3412 1.366 . S
C3413 C3417 1.385 . S
C3414 H3395 0.951 . S
C3414 C3412 1.388 . S
C3414 C3415 1.366 . S
C3415 C3414 1.366 . S
C3415 C3416 1.414 . S
C3415 C3418 1.499 . S
C3416 H3396 0.950 . S
C3416 C3415 1.414 . S
C3416 C3417 1.374 . S
C3417 H3397 0.950 . S
C3417 C3413 1.385 . S
C3417 C3416 1.374 . S
C3418 C3415 1.499 . S
C3418 C3419 1.373 . S
C3418 C3420 1.389 . S
C3419 H3398 0.950 . S
C3419 C3418 1.373 . S
C3419 C3435 1.377 . S
C3420 C3418 1.389 . S
C3420 C3421 1.524 . S
C3420 C3434 1.377 . S
C3421 C3420 1.524 . S
C3421 C3422 1.397 . S
C3421 C3426 1.363 . S
C3422 H3399 0.950 . S
C3422 C3421 1.397 . S
C3422 C3423 1.334 . S
C3423 H3400 0.950 . S
C3423 C3422 1.334 . S
C3423 C3424 1.287 . S
C3424 C3423 1.287 . S
C3424 C3425 1.524 . S
C3424 H3443 0.913 . S
C3425 H3401 0.950 . S
C3425 C3424 1.524 . S
C3425 C3426 1.415 . S
C3426 H3402 0.950 . S
C3426 C3421 1.363 . S
C3426 C3425 1.415 . S
C3427 H3403 0.951 . S
C3427 C3428 1.366 . S
C3427 C3429 1.388 . S
C3428 C3427 1.366 . S
C3428 C3432 1.385 . S
C3429 H3404 0.951 . S
C3429 C3427 1.388 . S
C3429 C3430 1.366 . S
C3430 C3429 1.366 . S
C3430 C3431 1.414 . S
C3430 C3433 1.499 . S
C3431 H3405 0.950 . S
C3431 C3430 1.414 . S
C3431 C3432 1.374 . S
C3432 H3406 0.950 . S
C3432 C3428 1.385 . S
C3432 C3431 1.374 . S
C3433 C3430 1.499 . S
C3433 C3434 1.373 . S
C3433 C3435 1.389 . S
C3434 H3407 0.950 . S
C3434 C3420 1.377 . S
C3434 C3433 1.373 . S
C3435 C3419 1.377 . S
C3435 C3433 1.389 . S
C3435 C3436 1.524 . S
C3436 C3435 1.524 . S
C3436 C3437 1.397 . S
C3436 C3441 1.363 . S
C3437 H3408 0.950 . S
C3437 C3436 1.397 . S
C3437 C3438 1.334 . S
C3438 H3409 0.950 . S
C3438 C3437 1.334 . S
C3438 C3439 1.287 . S
C3439 C3438 1.287 . S
C3439 C3440 1.524 . S
C3439 H3442 0.999 . S
C3440 H3410 0.950 . S
C3440 C3439 1.524 . S
C3440 C3441 1.415 . S
C3441 H3411 0.950 . S
C3441 C3436 1.363 . S
C3441 C3440 1.415 . S
H3442 C3439 0.999 . S
H3443 C3424 0.913 . S
H3444 C3462 0.951 . S
H3445 C3464 0.951 . S
H3446 C3466 0.950 . S
H3447 C3467 0.950 . S
H3448 C3469 0.950 . S
H3449 C3472 0.950 . S
H3450 C3473 0.950 . S
H3451 C3475 0.950 . S
H3452 C3476 0.950 . S
H3453 C3477 0.951 . S
H3454 C3479 0.951 . S
H3455 C3481 0.950 . S
H3456 C3482 0.950 . S
H3457 C3484 0.950 . S
H3458 C3487 0.950 . S
H3459 C3488 0.950 . S
H3460 C3490 0.950 . S
H3461 C3491 0.950 . S
C3462 H3444 0.951 . S
C3462 C3463 1.366 . S
C3462 C3464 1.388 . S
C3463 C3462 1.366 . S
C3463 C3467 1.385 . S
C3464 H3445 0.951 . S
C3464 C3462 1.388 . S
C3464 C3465 1.366 . S
C3465 C3464 1.366 . S
C3465 C3466 1.414 . S
C3465 C3468 1.499 . S
C3466 H3446 0.950 . S
C3466 C3465 1.414 . S
C3466 C3467 1.374 . S
C3467 H3447 0.950 . S
C3467 C3463 1.385 . S
C3467 C3466 1.374 . S
C3468 C3465 1.499 . S
C3468 C3469 1.373 . S
C3468 C3470 1.389 1_554 S
C3469 H3448 0.950 . S
C3469 C3468 1.373 . S
C3469 C3485 1.377 1_565 S
C3470 C3468 1.389 1_556 S
C3470 C3471 1.524 . S
C3470 C3484 1.377 1_565 S
C3471 C3470 1.524 . S
C3471 C3472 1.397 . S
C3471 C3476 1.363 . S
C3472 H3449 0.950 . S
C3472 C3471 1.397 . S
C3472 C3473 1.334 . S
C3473 H3450 0.950 . S
C3473 C3472 1.334 . S
C3473 C3474 1.287 . S
C3474 C3473 1.287 . S
C3474 C3475 1.524 . S
C3474 H3493 0.913 . S
C3475 H3451 0.950 . S
C3475 C3474 1.524 . S
C3475 C3476 1.415 . S
C3476 H3452 0.950 . S
C3476 C3471 1.363 . S
C3476 C3475 1.415 . S
C3477 H3453 0.951 . S
C3477 C3478 1.366 . S
C3477 C3479 1.388 . S
C3478 C3477 1.366 . S
C3478 C3482 1.385 . S
C3479 H3454 0.951 . S
C3479 C3477 1.388 . S
C3479 C3480 1.366 . S
C3480 C3479 1.366 . S
C3480 C3481 1.414 . S
C3480 C3483 1.499 . S
C3481 H3455 0.950 . S
C3481 C3480 1.414 . S
C3481 C3482 1.374 . S
C3482 H3456 0.950 . S
C3482 C3478 1.385 . S
C3482 C3481 1.374 . S
C3483 C3480 1.499 . S
C3483 C3484 1.373 . S
C3483 C3485 1.389 1_556 S
C3484 H3457 0.950 . S
C3484 C3470 1.377 1_545 S
C3484 C3483 1.373 . S
C3485 C3469 1.377 1_545 S
C3485 C3483 1.389 1_554 S
C3485 C3486 1.524 . S
C3486 C3485 1.524 . S
C3486 C3487 1.397 . S
C3486 C3491 1.363 . S
C3487 H3458 0.950 . S
C3487 C3486 1.397 . S
C3487 C3488 1.334 . S
C3488 H3459 0.950 . S
C3488 C3487 1.334 . S
C3488 C3489 1.287 . S
C3489 C3488 1.287 . S
C3489 C3490 1.524 . S
C3489 H3492 0.999 . S
C3490 H3460 0.950 . S
C3490 C3489 1.524 . S
C3490 C3491 1.415 . S
C3491 H3461 0.950 . S
C3491 C3486 1.363 . S
C3491 C3490 1.415 . S
H3492 C3489 0.999 . S
H3493 C3474 0.913 . S
H3494 C3512 0.951 . S
H3495 C3514 0.951 . S
H3496 C3516 0.950 . S
H3497 C3517 0.950 . S
H3498 C3519 0.950 . S
H3499 C3522 0.950 . S
H3500 C3523 0.950 . S
H3501 C3525 0.950 . S
H3502 C3526 0.950 . S
H3503 C3527 0.951 . S
H3504 C3529 0.951 . S
H3505 C3531 0.950 . S
H3506 C3532 0.950 . S
H3507 C3534 0.950 . S
H3508 C3537 0.950 . S
H3509 C3538 0.950 . S
H3510 C3540 0.950 . S
H3511 C3541 0.950 . S
C3512 H3494 0.951 . S
C3512 C3513 1.366 . S
C3512 C3514 1.388 . S
C3513 C3512 1.366 . S
C3513 C3517 1.385 . S
C3514 H3495 0.951 . S
C3514 C3512 1.388 . S
C3514 C3515 1.366 . S
C3515 C3514 1.366 . S
C3515 C3516 1.414 . S
C3515 C3518 1.499 . S
C3516 H3496 0.950 . S
C3516 C3515 1.414 . S
C3516 C3517 1.374 . S
C3517 H3497 0.950 . S
C3517 C3513 1.385 . S
C3517 C3516 1.374 . S
C3518 C3515 1.499 . S
C3518 C3519 1.373 . S
C3518 C3520 1.389 . S
C3519 H3498 0.950 . S
C3519 C3518 1.373 . S
C3519 C3535 1.377 . S
C3520 C3518 1.389 . S
C3520 C3521 1.524 . S
C3520 C3534 1.377 . S
C3521 C3520 1.524 . S
C3521 C3522 1.397 . S
C3521 C3526 1.363 . S
C3522 H3499 0.950 . S
C3522 C3521 1.397 . S
C3522 C3523 1.334 . S
C3523 H3500 0.950 . S
C3523 C3522 1.334 . S
C3523 C3524 1.287 . S
C3524 C3523 1.287 . S
C3524 C3525 1.524 . S
C3524 H3543 0.913 . S
C3525 H3501 0.950 . S
C3525 C3524 1.524 . S
C3525 C3526 1.415 . S
C3526 H3502 0.950 . S
C3526 C3521 1.363 . S
C3526 C3525 1.415 . S
C3527 H3503 0.951 . S
C3527 C3528 1.366 . S
C3527 C3529 1.388 . S
C3528 C3527 1.366 . S
C3528 C3532 1.385 . S
C3529 H3504 0.951 . S
C3529 C3527 1.388 . S
C3529 C3530 1.366 . S
C3530 C3529 1.366 . S
C3530 C3531 1.414 . S
C3530 C3533 1.499 . S
C3531 H3505 0.950 . S
C3531 C3530 1.414 . S
C3531 C3532 1.374 . S
C3532 H3506 0.950 . S
C3532 C3528 1.385 . S
C3532 C3531 1.374 . S
C3533 C3530 1.499 . S
C3533 C3534 1.373 . S
C3533 C3535 1.389 . S
C3534 H3507 0.950 . S
C3534 C3520 1.377 . S
C3534 C3533 1.373 . S
C3535 C3519 1.377 . S
C3535 C3533 1.389 . S
C3535 C3536 1.524 . S
C3536 C3535 1.524 . S
C3536 C3537 1.397 . S
C3536 C3541 1.363 . S
C3537 H3508 0.950 . S
C3537 C3536 1.397 . S
C3537 C3538 1.334 . S
C3538 H3509 0.950 . S
C3538 C3537 1.334 . S
C3538 C3539 1.287 . S
C3539 C3538 1.287 . S
C3539 C3540 1.524 . S
C3539 H3542 0.999 . S
C3540 H3510 0.950 . S
C3540 C3539 1.524 . S
C3540 C3541 1.415 . S
C3541 H3511 0.950 . S
C3541 C3536 1.363 . S
C3541 C3540 1.415 . S
H3542 C3539 0.999 . S
H3543 C3524 0.913 . S
H3544 C3562 0.951 . S
H3545 C3564 0.951 . S
H3546 C3566 0.950 . S
H3547 C3567 0.950 . S
H3548 C3569 0.950 . S
H3549 C3572 0.950 . S
H3550 C3573 0.950 . S
H3551 C3575 0.950 . S
H3552 C3576 0.950 . S
H3553 C3577 0.951 . S
H3554 C3579 0.951 . S
H3555 C3581 0.950 . S
H3556 C3582 0.950 . S
H3557 C3584 0.950 . S
H3558 C3587 0.950 . S
H3559 C3588 0.950 . S
H3560 C3590 0.950 . S
H3561 C3591 0.950 . S
C3562 H3544 0.951 . S
C3562 C3563 1.366 . S
C3562 C3564 1.388 . S
C3563 C3562 1.366 . S
C3563 C3567 1.385 . S
C3564 H3545 0.951 . S
C3564 C3562 1.388 . S
C3564 C3565 1.366 . S
C3565 C3564 1.366 . S
C3565 C3566 1.414 . S
C3565 C3568 1.499 . S
C3566 H3546 0.950 . S
C3566 C3565 1.414 . S
C3566 C3567 1.374 . S
C3567 H3547 0.950 . S
C3567 C3563 1.385 . S
C3567 C3566 1.374 . S
C3568 C3565 1.499 . S
C3568 C3569 1.373 . S
C3568 C3570 1.389 . S
C3569 H3548 0.950 . S
C3569 C3568 1.373 . S
C3569 C3585 1.377 1_565 S
C3570 C3568 1.389 . S
C3570 C3571 1.524 . S
C3570 C3584 1.377 1_565 S
C3571 C3570 1.524 . S
C3571 C3572 1.397 . S
C3571 C3576 1.363 . S
C3572 H3549 0.950 . S
C3572 C3571 1.397 . S
C3572 C3573 1.334 . S
C3573 H3550 0.950 . S
C3573 C3572 1.334 . S
C3573 C3574 1.287 . S
C3574 C3573 1.287 . S
C3574 C3575 1.524 . S
C3574 H3593 0.913 . S
C3575 H3551 0.950 . S
C3575 C3574 1.524 . S
C3575 C3576 1.415 . S
C3576 H3552 0.950 . S
C3576 C3571 1.363 . S
C3576 C3575 1.415 . S
C3577 H3553 0.951 . S
C3577 C3578 1.366 . S
C3577 C3579 1.388 . S
C3578 C3577 1.366 . S
C3578 C3582 1.385 . S
C3579 H3554 0.951 . S
C3579 C3577 1.388 . S
C3579 C3580 1.366 . S
C3580 C3579 1.366 . S
C3580 C3581 1.414 . S
C3580 C3583 1.499 . S
C3581 H3555 0.950 . S
C3581 C3580 1.414 . S
C3581 C3582 1.374 . S
C3582 H3556 0.950 . S
C3582 C3578 1.385 . S
C3582 C3581 1.374 . S
C3583 C3580 1.499 . S
C3583 C3584 1.373 . S
C3583 C3585 1.389 . S
C3584 H3557 0.950 . S
C3584 C3570 1.377 1_545 S
C3584 C3583 1.373 . S
C3585 C3569 1.377 1_545 S
C3585 C3583 1.389 . S
C3585 C3586 1.524 . S
C3586 C3585 1.524 . S
C3586 C3587 1.397 . S
C3586 C3591 1.363 . S
C3587 H3558 0.950 . S
C3587 C3586 1.397 . S
C3587 C3588 1.334 . S
C3588 H3559 0.950 . S
C3588 C3587 1.334 . S
C3588 C3589 1.287 . S
C3589 C3588 1.287 . S
C3589 C3590 1.524 . S
C3589 H3592 0.999 . S
C3590 H3560 0.950 . S
C3590 C3589 1.524 . S
C3590 C3591 1.415 . S
C3591 H3561 0.950 . S
C3591 C3586 1.363 . S
C3591 C3590 1.415 . S
H3592 C3589 0.999 . S
H3593 C3574 0.913 . S
H3594 C3612 0.951 . S
H3595 C3614 0.951 . S
H3596 C3616 0.950 . S
H3597 C3617 0.950 . S
H3598 C3619 0.950 . S
H3599 C3622 0.950 . S
H3600 C3623 0.950 . S
H3601 C3625 0.950 . S
H3602 C3626 0.950 . S
H3603 C3627 0.951 . S
H3604 C3629 0.951 . S
H3605 C3631 0.950 . S
H3606 C3632 0.950 . S
H3607 C3634 0.950 . S
H3608 C3637 0.950 . S
H3609 C3638 0.950 . S
H3610 C3640 0.950 . S
H3611 C3641 0.950 . S
C3612 H3594 0.951 . S
C3612 C3613 1.366 . S
C3612 C3614 1.388 . S
C3613 C3612 1.366 . S
C3613 C3617 1.385 . S
C3614 H3595 0.951 . S
C3614 C3612 1.388 . S
C3614 C3615 1.366 . S
C3615 C3614 1.366 . S
C3615 C3616 1.414 . S
C3615 C3618 1.499 . S
C3616 H3596 0.950 . S
C3616 C3615 1.414 . S
C3616 C3617 1.374 . S
C3617 H3597 0.950 . S
C3617 C3613 1.385 . S
C3617 C3616 1.374 . S
C3618 C3615 1.499 . S
C3618 C3619 1.373 . S
C3618 C3620 1.389 . S
C3619 H3598 0.950 . S
C3619 C3618 1.373 . S
C3619 C3635 1.377 . S
C3620 C3618 1.389 . S
C3620 C3621 1.524 . S
C3620 C3634 1.377 . S
C3621 C3620 1.524 . S
C3621 C3622 1.397 . S
C3621 C3626 1.363 . S
C3622 H3599 0.950 . S
C3622 C3621 1.397 . S
C3622 C3623 1.334 . S
C3623 H3600 0.950 . S
C3623 C3622 1.334 . S
C3623 C3624 1.287 . S
C3624 C3623 1.287 . S
C3624 C3625 1.524 . S
C3624 H3643 0.913 . S
C3625 H3601 0.950 . S
C3625 C3624 1.524 . S
C3625 C3626 1.415 . S
C3626 H3602 0.950 . S
C3626 C3621 1.363 . S
C3626 C3625 1.415 . S
C3627 H3603 0.951 . S
C3627 C3628 1.366 . S
C3627 C3629 1.388 . S
C3628 C3627 1.366 . S
C3628 C3632 1.385 . S
C3629 H3604 0.951 . S
C3629 C3627 1.388 . S
C3629 C3630 1.366 . S
C3630 C3629 1.366 . S
C3630 C3631 1.414 . S
C3630 C3633 1.499 . S
C3631 H3605 0.950 . S
C3631 C3630 1.414 . S
C3631 C3632 1.374 . S
C3632 H3606 0.950 . S
C3632 C3628 1.385 . S
C3632 C3631 1.374 . S
C3633 C3630 1.499 . S
C3633 C3634 1.373 . S
C3633 C3635 1.389 . S
C3634 H3607 0.950 . S
C3634 C3620 1.377 . S
C3634 C3633 1.373 . S
C3635 C3619 1.377 . S
C3635 C3633 1.389 . S
C3635 C3636 1.524 . S
C3636 C3635 1.524 . S
C3636 C3637 1.397 . S
C3636 C3641 1.363 . S
C3637 H3608 0.950 . S
C3637 C3636 1.397 . S
C3637 C3638 1.334 . S
C3638 H3609 0.950 . S
C3638 C3637 1.334 . S
C3638 C3639 1.287 . S
C3639 C3638 1.287 . S
C3639 C3640 1.524 . S
C3639 H3642 0.999 . S
C3640 H3610 0.950 . S
C3640 C3639 1.524 . S
C3640 C3641 1.415 . S
C3641 H3611 0.950 . S
C3641 C3636 1.363 . S
C3641 C3640 1.415 . S
H3642 C3639 0.999 . S
H3643 C3624 0.913 . S
H3644 C3662 0.951 . S
H3645 C3664 0.951 . S
H3646 C3666 0.950 . S
H3647 C3667 0.950 . S
H3648 C3669 0.949 1_554 S
H3649 C3672 0.950 . S
H3650 C3673 0.950 . S
H3651 C3675 0.950 . S
H3652 C3676 0.950 . S
H3653 C3677 0.951 . S
H3654 C3679 0.951 . S
H3655 C3681 0.950 . S
H3656 C3682 0.950 . S
H3657 C3684 0.950 . S
H3658 C3687 0.950 . S
H3659 C3688 0.950 . S
H3660 C3690 0.950 . S
H3661 C3691 0.950 . S
C3662 H3644 0.951 . S
C3662 C3663 1.366 . S
C3662 C3664 1.388 . S
C3663 C3662 1.366 . S
C3663 C3667 1.385 . S
C3664 H3645 0.951 . S
C3664 C3662 1.388 . S
C3664 C3665 1.366 . S
C3665 C3664 1.366 . S
C3665 C3666 1.414 . S
C3665 C3668 1.499 . S
C3666 H3646 0.950 . S
C3666 C3665 1.414 . S
C3666 C3667 1.374 . S
C3667 H3647 0.950 . S
C3667 C3663 1.385 . S
C3667 C3666 1.374 . S
C3668 C3665 1.499 . S
C3668 C3669 1.380 . S
C3668 C3670 1.389 . S
C3669 H3648 0.949 1_556 S
C3669 C3668 1.380 . S
C3669 C3685 1.370 1_546 S
C3670 C3668 1.389 . S
C3670 C3671 1.524 . S
C3670 C3684 1.377 1_545 S
C3671 C3670 1.524 . S
C3671 C3672 1.397 . S
C3671 C3676 1.363 . S
C3672 H3649 0.950 . S
C3672 C3671 1.397 . S
C3672 C3673 1.334 . S
C3673 H3650 0.950 . S
C3673 C3672 1.334 . S
C3673 C3674 1.287 . S
C3674 C3673 1.287 . S
C3674 C3675 1.524 . S
C3674 H3693 0.913 . S
C3675 H3651 0.950 . S
C3675 C3674 1.524 . S
C3675 C3676 1.415 . S
C3676 H3652 0.950 . S
C3676 C3671 1.363 . S
C3676 C3675 1.415 . S
C3677 H3653 0.951 . S
C3677 C3678 1.366 . S
C3677 C3679 1.388 . S
C3678 C3677 1.366 . S
C3678 C3682 1.385 . S
C3679 H3654 0.951 . S
C3679 C3677 1.388 . S
C3679 C3680 1.366 . S
C3680 C3679 1.366 . S
C3680 C3681 1.414 . S
C3680 C3683 1.499 . S
C3681 H3655 0.950 . S
C3681 C3680 1.414 . S
C3681 C3682 1.374 . S
C3682 H3656 0.950 . S
C3682 C3678 1.385 . S
C3682 C3681 1.374 . S
C3683 C3680 1.499 . S
C3683 C3684 1.373 1_554 S
C3683 C3685 1.389 . S
C3684 H3657 0.950 . S
C3684 C3670 1.377 1_565 S
C3684 C3683 1.373 1_556 S
C3685 C3669 1.370 1_564 S
C3685 C3683 1.389 . S
C3685 C3686 1.524 . S
C3686 C3685 1.524 . S
C3686 C3687 1.397 . S
C3686 C3691 1.363 . S
C3687 H3658 0.950 . S
C3687 C3686 1.397 . S
C3687 C3688 1.334 . S
C3688 H3659 0.950 . S
C3688 C3687 1.334 . S
C3688 C3689 1.287 . S
C3689 C3688 1.287 . S
C3689 C3690 1.524 . S
C3689 H3692 0.999 . S
C3690 H3660 0.950 . S
C3690 C3689 1.524 . S
C3690 C3691 1.415 . S
C3691 H3661 0.950 . S
C3691 C3686 1.363 . S
C3691 C3690 1.415 . S
H3692 C3689 0.999 . S
H3693 C3674 0.913 . S
H3694 C3712 0.951 . S
H3695 C3714 0.951 . S
H3696 C3716 0.950 . S
H3697 C3717 0.950 . S
H3698 C3719 0.950 . S
H3699 C3722 0.950 . S
H3700 C3723 0.950 . S
H3701 C3725 0.950 . S
H3702 C3726 0.950 . S
H3703 C3727 0.951 . S
H3704 C3729 0.951 . S
H3705 C3731 0.950 . S
H3706 C3732 0.950 . S
H3707 C3734 0.950 . S
H3708 C3737 0.950 . S
H3709 C3738 0.950 . S
H3710 C3740 0.950 . S
H3711 C3741 0.950 . S
C3712 H3694 0.951 . S
C3712 C3713 1.366 . S
C3712 C3714 1.388 . S
C3713 C3712 1.366 . S
C3713 C3717 1.385 . S
C3714 H3695 0.951 . S
C3714 C3712 1.388 . S
C3714 C3715 1.366 . S
C3715 C3714 1.366 . S
C3715 C3716 1.414 . S
C3715 C3718 1.499 . S
C3716 H3696 0.950 . S
C3716 C3715 1.414 . S
C3716 C3717 1.374 . S
C3717 H3697 0.950 . S
C3717 C3713 1.385 . S
C3717 C3716 1.374 . S
C3718 C3715 1.499 . S
C3718 C3719 1.373 . S
C3718 C3720 1.389 . S
C3719 H3698 0.950 . S
C3719 C3718 1.373 . S
C3719 C3735 1.377 . S
C3720 C3718 1.389 . S
C3720 C3721 1.524 . S
C3720 C3734 1.377 . S
C3721 C3720 1.524 . S
C3721 C3722 1.397 . S
C3721 C3726 1.363 . S
C3722 H3699 0.950 . S
C3722 C3721 1.397 . S
C3722 C3723 1.334 . S
C3723 H3700 0.950 . S
C3723 C3722 1.334 . S
C3723 C3724 1.287 . S
C3724 C3723 1.287 . S
C3724 C3725 1.524 . S
C3724 H3743 0.913 . S
C3725 H3701 0.950 . S
C3725 C3724 1.524 . S
C3725 C3726 1.415 . S
C3726 H3702 0.950 . S
C3726 C3721 1.363 . S
C3726 C3725 1.415 . S
C3727 H3703 0.951 . S
C3727 C3728 1.366 . S
C3727 C3729 1.388 . S
C3728 C3727 1.366 . S
C3728 C3732 1.385 . S
C3729 H3704 0.951 . S
C3729 C3727 1.388 . S
C3729 C3730 1.366 . S
C3730 C3729 1.366 . S
C3730 C3731 1.414 . S
C3730 C3733 1.499 . S
C3731 H3705 0.950 . S
C3731 C3730 1.414 . S
C3731 C3732 1.374 . S
C3732 H3706 0.950 . S
C3732 C3728 1.385 . S
C3732 C3731 1.374 . S
C3733 C3730 1.499 . S
C3733 C3734 1.373 . S
C3733 C3735 1.389 . S
C3734 H3707 0.950 . S
C3734 C3720 1.377 . S
C3734 C3733 1.373 . S
C3735 C3719 1.377 . S
C3735 C3733 1.389 . S
C3735 C3736 1.524 . S
C3736 C3735 1.524 . S
C3736 C3737 1.397 . S
C3736 C3741 1.363 . S
C3737 H3708 0.950 . S
C3737 C3736 1.397 . S
C3737 C3738 1.334 . S
C3738 H3709 0.950 . S
C3738 C3737 1.334 . S
C3738 C3739 1.287 . S
C3739 C3738 1.287 . S
C3739 C3740 1.524 . S
C3739 H3742 0.999 . S
C3740 H3710 0.950 . S
C3740 C3739 1.524 . S
C3740 C3741 1.415 . S
C3741 H3711 0.950 . S
C3741 C3736 1.363 . S
C3741 C3740 1.415 . S
H3742 C3739 0.999 . S
H3743 C3724 0.913 . S
C1363 C58 1.603 . S
C1378 C70 1.603 . S
C1413 C142 1.586 . S
C1428 C154 1.586 . S
C1463 C226 1.583 . S
C1478 C238 1.583 . S
C1513 C322 1.594 . S
C1528 C310 1.594 . S
C1563 C406 1.587 . S
C1578 C394 1.587 . S
C1613 C490 1.578 . S
C1628 C478 1.578 . S
C1663 C562 1.590 . S
C1678 C574 1.590 . S
C1713 C658 1.603 . S
C1728 C646 1.603 . S
C1763 C730 1.607 . S
C1778 C742 1.607 . S
C1813 C814 1.587 . S
C1828 C826 1.587 . S
C1863 C910 1.581 . S
C1878 C898 1.581 . S
C1913 C982 1.593 . S
C1928 C994 1.593 . S
C1963 C1066 1.584 . S
C1978 C1078 1.584 . S
C2013 C1162 1.581 . S
C2028 C1150 1.581 . S
C2063 C1246 1.589 . S
C2078 C1234 1.589 . S
C2113 C1330 1.600 . S
C2128 C1318 1.600 . S
C2163 C67 1.752 . S
C2178 C979 1.753 . S
C2213 C151 1.761 . S
C2228 C1315 1.761 . S
C2263 C235 1.770 . S
C2278 C812 1.714 . S
C2313 C320 1.723 . S
C2328 C1147 1.782 . S
C2363 C404 1.708 . S
C2378 C1148 1.713 . S
C2413 C980 1.705 . S
C2428 C487 1.763 . S
C2463 C571 1.759 . S
C2478 C1316 1.703 . S
C2513 C656 1.711 . S
C2528 C811 1.766 . S
C2563 C319 1.768 . S
C2578 C728 1.711 . S
C2613 C152 1.706 . S
C2628 C896 1.706 . S
C2663 C1064 1.725 . S
C2678 C488 1.724 . S
C2713 C655 1.761 . S
C2728 C1231 1.763 . S
C2763 C727 1.768 . S
C2778 C403 1.770 . S
C2813 C572 1.721 . S
C2828 C895 1.777 . S
C2863 C236 1.719 . S
C2878 C1232 1.716 . S
C2913 C68 1.720 . S
C2928 C1063 1.775 . S
C2963 C55 1.619 . S
C2978 C392 1.621 . S
C3013 C139 1.643 . S
C3028 C475 1.642 . S
C3063 C223 1.637 . S
C3078 C559 1.638 . S
C3113 C308 1.637 . S
C3128 C644 1.638 . S
C3163 C1076 1.640 . S
C3178 C740 1.640 . S
C3213 C1159 1.646 . S
C3228 C823 1.645 . S
C3263 C908 1.655 . S
C3278 C1243 1.651 . S
C3313 C1327 1.613 . S
C3328 C992 1.616 . S
C3363 C140 1.618 . S
C3378 C643 1.616 . S
C3413 C391 1.659 . S
C3428 C224 1.663 . S
C3463 C476 1.657 . S
C3478 C307 1.655 . S
C3513 C56 1.635 . S
C3528 C560 1.635 . S
C3563 C1328 1.638 . S
C3578 C824 1.637 . S
C3613 C1075 1.664 . S
C3628 C907 1.664 . S
C3663 C1160 1.635 . S
C3678 C991 1.633 . S
C3713 C1244 1.618 . S
C3728 C739 1.617 . S
