# Generated by pormake.
# Topology une, (4)-cn, num edge types: 1
# Building blocks:
#     Node 0, Type 0, BuildingBlock: UXUYUI_clean_sbu_0, # of connection points: 4
#     Node 1, Type 0, BuildingBlock: UXUYUI_clean_sbu_0, # of connection points: 4
#     Node 2, Type 0, BuildingBlock: UXUYUI_clean_sbu_0, # of connection points: 4
#     Node 3, Type 0, BuildingBlock: UXUYUI_clean_sbu_0, # of connection points: 4
#     Node 4, Type 0, BuildingBlock: UXUYUI_clean_sbu_0, # of connection points: 4
#     Node 5, Type 0, BuildingBlock: UXUYUI_clean_sbu_0, # of connection points: 4
#     Node 6, Type 0, BuildingBlock: UXUYUI_clean_sbu_0, # of connection points: 4
#     Node 7, Type 0, BuildingBlock: UXUYUI_clean_sbu_0, # of connection points: 4
#     Node 8, Type 0, BuildingBlock: UXUYUI_clean_sbu_0, # of connection points: 4
#     Node 9, Type 0, BuildingBlock: UXUYUI_clean_sbu_0, # of connection points: 4
#     Node 10, Type 0, BuildingBlock: UXUYUI_clean_sbu_0, # of connection points: 4
#     Node 11, Type 0, BuildingBlock: UXUYUI_clean_sbu_0, # of connection points: 4
#     Node 12, Type 0, BuildingBlock: UXUYUI_clean_sbu_0, # of connection points: 4
#     Node 13, Type 0, BuildingBlock: UXUYUI_clean_sbu_0, # of connection points: 4
#     Node 14, Type 0, BuildingBlock: UXUYUI_clean_sbu_0, # of connection points: 4
#     Node 15, Type 0, BuildingBlock: UXUYUI_clean_sbu_0, # of connection points: 4
#     Node 16, Type 0, BuildingBlock: UXUYUI_clean_sbu_0, # of connection points: 4
#     Node 17, Type 0, BuildingBlock: UXUYUI_clean_sbu_0, # of connection points: 4
#     Edge 18, Type (0, 0), None
#     Edge 19, Type (0, 0), None
#     Edge 20, Type (0, 0), None
#     Edge 21, Type (0, 0), None
#     Edge 22, Type (0, 0), None
#     Edge 23, Type (0, 0), None
#     Edge 24, Type (0, 0), None
#     Edge 25, Type (0, 0), None
#     Edge 26, Type (0, 0), None
#     Edge 27, Type (0, 0), None
#     Edge 28, Type (0, 0), None
#     Edge 29, Type (0, 0), None
#     Edge 30, Type (0, 0), None
#     Edge 31, Type (0, 0), None
#     Edge 32, Type (0, 0), None
#     Edge 33, Type (0, 0), None
#     Edge 34, Type (0, 0), None
#     Edge 35, Type (0, 0), None
#     Edge 36, Type (0, 0), None
#     Edge 37, Type (0, 0), None
#     Edge 38, Type (0, 0), None
#     Edge 39, Type (0, 0), None
#     Edge 40, Type (0, 0), None
#     Edge 41, Type (0, 0), None
#     Edge 42, Type (0, 0), None
#     Edge 43, Type (0, 0), None
#     Edge 44, Type (0, 0), None
#     Edge 45, Type (0, 0), None
#     Edge 46, Type (0, 0), None
#     Edge 47, Type (0, 0), None
#     Edge 48, Type (0, 0), None
#     Edge 49, Type (0, 0), None
#     Edge 50, Type (0, 0), None
#     Edge 51, Type (0, 0), None
#     Edge 52, Type (0, 0), None
#     Edge 53, Type (0, 0), None
# Relax obj value: 0.347
# Max RMSD: 0.226
# Mean RMSD: 0.222
data_MOF--net-une--node1-UXUYUI_clean_sbu_0--edge1-none
_symmetry_space_group_name_H-M    P1
_symmetry_Int_Tables_number       1
_symmetry_cell_setting            triclinic
loop_
_symmetry_equiv_pos_as_xyz
'x, y, z'
_cell_length_a     34.875846
_cell_length_b     34.834357
_cell_length_c     49.517152
_cell_angle_alpha  89.945763
_cell_angle_beta   89.923569
_cell_angle_gamma 120.02419
loop_
_atom_site_label
_atom_site_type_symbol
_atom_site_fract_x
_atom_site_fract_y
_atom_site_fract_z
_atom_type_partial_charge
Li0 Li 0.35248 0.08672 0.05623 0.0
Li1 Li 0.34753 0.07158 0.10423 0.0
Li2 Li 0.38471 0.04354 0.07179 0.0
Li3 Li 0.30354 0.01011 0.07245 0.0
C4 C 0.43375 0.14828 0.07411 0.0
N5 N 0.49506 0.23313 0.05748 0.0
C6 C 0.44483 0.18452 0.09099 0.0
C7 C 0.45391 0.15532 0.04877 0.0
C8 C 0.47589 0.22712 0.08223 0.0
C9 C 0.48479 0.19841 0.04072 0.0
C10 C 0.28559 0.09416 0.07947 0.0
C11 C 0.23063 0.11459 0.06894 0.0
N12 N 0.25854 0.1564 0.07793 0.0
C13 C 0.31365 0.1373 0.08868 0.0
C14 C 0.24368 0.08265 0.06958 0.0
C15 C 0.2994 0.16829 0.08772 0.0
C16 C 0.33008 0.10551 0.00598 0.0
N17 N 0.35289 0.12533 0.02891 0.0
C18 C 0.36762 0.19604 0.01301 0.0
C19 C 0.3712 0.16969 0.03281 0.0
C20 C 0.34419 0.17646 0.98919 0.0
C21 C 0.32518 0.13061 0.98572 0.0
H22 H 0.31467 0.06996 0.00375 0.0
H23 H 0.38733 0.18459 0.05159 0.0
C24 C 0.37664 0.12391 0.15368 0.0
N25 N 0.34145 0.09419 0.13886 0.0
C26 C 0.37047 0.14678 0.17502 0.0
C27 C 0.29184 0.10607 0.16656 0.0
C28 C 0.2995 0.08402 0.14553 0.0
C29 C 0.32764 0.13897 0.18121 0.0
H30 H 0.40969 0.13129 0.14826 0.0
H31 H 0.27191 0.06064 0.13343 0.0
C32 C 0.35513 0.01407 0.0204 0.0
N33 N 0.38004 0.97878 0.97847 0.0
C34 C 0.33602 0.96813 0.01779 0.0
C35 C 0.38636 0.04201 1.00139 0.0
C36 C 0.34914 0.95095 0.99651 0.0
C37 C 0.39871 0.02355 0.98044 0.0
C38 C 0.32029 0.98498 0.12404 0.0
C39 C 0.33971 0.96589 0.13968 0.0
C40 C 0.27802 0.97723 0.1306 0.0
C41 C 0.31654 0.93949 0.16182 0.0
C42 C 0.25595 0.95071 0.15291 0.0
N43 N 0.2755 0.93254 0.16793 0.0
C44 C 0.46629 0.05496 0.05017 0.0
C45 C 0.41139 0.98119 0.06051 0.0
C46 C 0.48978 0.03982 0.03482 0.0
N47 N 0.42699 0.02562 0.06178 0.0
C48 C 0.43392 0.96459 0.04545 0.0
C49 C 0.47288 0.99403 0.0315 0.0
H50 H 0.47837 0.09005 0.05154 0.0
H51 H 0.37958 0.95847 0.06941 0.0
C52 C 0.22595 0.96396 0.04525 0.0
N53 N 0.25108 0.95809 0.06384 0.0
C54 C 0.19248 0.92767 0.03182 0.0
C55 C 0.21011 0.87967 0.05783 0.0
C56 C 0.24325 0.91707 0.07095 0.0
C57 C 0.18561 0.88511 0.03721 0.0
H58 H 0.23417 0.99712 0.03942 0.0
H59 H 0.26487 0.91365 0.08516 0.0
O60 O 0.40356 0.10625 0.08244 0.0
O61 O 0.29929 0.06353 0.07983 0.0
O62 O 0.34342 0.03157 0.04147 0.0
O63 O 0.34231 0.01021 0.10205 0.0
H64 H 0.42943 0.17998 0.11055 0.0
H65 H 0.4452 0.12795 0.03523 0.0
H66 H 0.48465 0.25542 0.09507 0.0
H67 H 0.5004 0.20426 0.02109 0.0
H68 H 0.1983 0.10614 0.06131 0.0
H69 H 0.34631 0.14693 0.09622 0.0
H70 H 0.22136 0.0494 0.06252 0.0
H71 H 0.32091 0.20183 0.09465 0.0
H72 H 0.3815 0.23116 0.0168 0.0
H73 H 0.30638 0.11438 0.96775 0.0
H74 H 0.3991 0.17104 0.18613 0.0
H75 H 0.25831 0.09893 0.17029 0.0
H76 H 0.31188 0.94596 0.03228 0.0
H77 H 0.40093 0.07756 1.00276 0.0
H78 H 0.33492 0.91548 0.99443 0.0
H79 H 0.4231 0.04482 0.96573 0.0
H80 H 0.3723 0.97132 0.1347 0.0
H81 H 0.26222 0.99111 0.11839 0.0
H82 H 0.33114 0.92448 0.17411 0.0
H83 H 0.2232 0.9444 0.15822 0.0
H84 H 0.52035 0.06379 0.02509 0.0
H85 H 0.41959 0.92906 0.04349 0.0
H86 H 0.17399 0.93312 0.0162 0.0
H87 H 0.20613 0.84742 0.06228 0.0
Li88 Li 0.95284 0.34903 0.04746 0.0
Li89 Li 0.99336 0.30755 0.05843 0.0
Li90 Li 0.92387 0.27178 0.0339 0.0
Li91 Li 0.92299 0.28231 0.08115 0.0
C92 C 0.98389 0.31924 0.99666 0.0
N93 N 0.9912 0.30693 0.94221 0.0
C94 C 0.00209 0.29353 0.98811 0.0
C95 C 0.96937 0.33867 0.97755 0.0
C96 C 0.00552 0.28771 0.96048 0.0
C97 C 0.97336 0.33205 0.9501 0.0
C98 C 0.01532 0.37037 0.09745 0.0
C99 C 0.07359 0.38084 0.12799 0.0
N100 N 0.09236 0.42551 0.12513 0.0
C101 C 0.03506 0.41639 0.09491 0.0
C102 C 0.03458 0.35241 0.11423 0.0
C103 C 0.07404 0.4437 0.10904 0.0
C104 C 0.93905 0.42326 0.03263 0.0
N105 N 0.96707 0.4068 0.0342 0.0
C106 C 0.02152 0.46754 0.00787 0.0
C107 C 0.00802 0.42872 0.0227 0.0
C108 C 0.99277 0.48453 0.00479 0.0
C109 C 0.95129 0.46224 0.01792 0.0
H110 H 0.90684 0.40566 0.04212 0.0
H111 H 0.02969 0.41493 0.02414 0.0
C112 C 0.0571 0.28175 0.05182 0.0
N113 N 0.05162 0.31692 0.05728 0.0
C114 C 0.0982 0.28858 0.04333 0.0
C115 C 0.12788 0.36753 0.04814 0.0
C116 C 0.08605 0.35921 0.05601 0.0
C117 C 0.13385 0.33208 0.04036 0.0
H118 H 0.02873 0.24861 0.05177 0.0
H119 H 0.08048 0.3867 0.05922 0.0
C120 C 0.85073 0.27728 0.03975 0.0
N121 N 0.77027 0.23642 0.01312 0.0
C122 C 0.82241 0.23146 0.04199 0.0
C123 C 0.83801 0.30225 0.02391 0.0
C124 C 0.78192 0.21144 0.0284 0.0
C125 C 0.79723 0.28101 0.01063 0.0
C126 C 0.93452 0.21228 0.0793 0.0
C127 C 0.89228 0.17464 0.07909 0.0
C128 C 0.96609 0.2148 0.0977 0.0
C129 C 0.88212 0.14051 0.09756 0.0
C130 C 0.95469 0.17988 0.11578 0.0
N131 N 0.91327 0.14382 0.11538 0.0
C132 C 0.89299 0.19199 0.00605 0.0
C133 C 0.87228 0.24039 0.98551 0.0
C134 C 0.86415 0.15731 0.98941 0.0
N135 N 0.89453 0.23169 0.00487 0.0
C136 C 0.84233 0.20641 0.96877 0.0
C137 C 0.83668 0.16381 0.97159 0.0
H138 H 0.91207 0.18637 0.02109 0.0
H139 H 0.87516 0.2727 0.98443 0.0
C140 C 0.84637 0.22819 0.11418 0.0
N141 N 0.89134 0.2534 0.11428 0.0
C142 C 0.82406 0.19754 0.1349 0.0
C143 C 0.89425 0.22175 0.15672 0.0
C144 C 0.91519 0.25179 0.13554 0.0
C145 C 0.84813 0.19306 0.15621 0.0
H146 H 0.82775 0.23041 0.09751 0.0
H147 H 0.95082 0.27173 0.13526 0.0
O148 O 0.97986 0.32495 0.02363 0.0
O149 O 0.97723 0.34324 0.08366 0.0
O150 O 0.89057 0.2976 0.05297 0.0
O151 O 0.9448 0.24654 0.06175 0.0
H152 H 0.01309 0.27792 1.00263 0.0
H153 H 0.95472 0.35823 0.98383 0.0
H154 H 0.01947 0.26784 0.95356 0.0
H155 H 0.96214 0.34676 0.93508 0.0
H156 H 0.08904 0.36737 0.14087 0.0
H157 H 0.02041 0.43087 0.0822 0.0
H158 H 0.02013 0.31695 0.11619 0.0
H159 H 0.08973 0.47936 0.10721 0.0
H160 H 0.05359 0.48308 0.99807 0.0
H161 H 0.92833 0.47454 0.01667 0.0
H162 H 0.10084 0.26024 0.03703 0.0
H163 H 0.15449 0.40157 0.04644 0.0
H164 H 0.832 0.21137 0.05357 0.0
H165 H 0.85953 0.33757 0.02163 0.0
H166 H 0.75994 0.17598 0.02983 0.0
H167 H 0.7871 0.29997 0.99825 0.0
H168 H 0.86746 0.17187 0.06495 0.0
H169 H 0.99886 0.24367 0.09831 0.0
H170 H 0.84944 0.11141 0.09775 0.0
H171 H 0.97871 0.18159 0.13025 0.0
H172 H 0.86052 0.1248 0.99221 0.0
H173 H 0.82171 0.21252 0.95513 0.0
H174 H 0.78835 0.17713 0.13401 0.0
H175 H 0.91432 0.21961 0.17267 0.0
Li176 Li 0.69558 0.68554 0.06774 0.0
Li177 Li 0.72337 0.64182 0.08882 0.0
Li178 Li 0.73477 0.65871 0.04002 0.0
Li179 Li 0.65848 0.60727 0.05516 0.0
C180 C 0.78503 0.74495 0.06887 0.0
N181 N 0.83869 0.83588 0.0647 0.0
C182 C 0.81369 0.76899 0.08993 0.0
C183 C 0.78406 0.76717 0.04559 0.0
C184 C 0.84048 0.81494 0.08746 0.0
C185 C 0.81131 0.81313 0.04389 0.0
C186 C 0.63708 0.64507 0.10752 0.0
C187 C 0.56616 0.63379 0.12217 0.0
N188 N 0.58707 0.67058 0.13791 0.0
C189 C 0.65783 0.68233 0.12419 0.0
C190 C 0.59086 0.62024 0.10677 0.0
C191 C 0.632 0.69489 0.13924 0.0
C192 C 0.64491 0.72287 0.05665 0.0
N193 N 0.68186 0.73169 0.07062 0.0
C194 C 0.6994 0.80647 0.07792 0.0
C195 C 0.70778 0.77176 0.08249 0.0
C196 C 0.66369 0.79928 0.0614 0.0
C197 C 0.63512 0.75631 0.05175 0.0
H198 H 0.62467 0.69051 0.04775 0.0
H199 H 0.73619 0.77755 0.09427 0.0
C200 C 0.77423 0.61353 0.1215 0.0
N201 N 0.75597 0.64005 0.11993 0.0
C202 C 0.80566 0.62079 0.1415 0.0
C203 C 0.79901 0.68242 0.1578 0.0
C204 C 0.76724 0.67344 0.13791 0.0
C205 C 0.81943 0.65642 0.15971 0.0
H206 H 0.76596 0.58791 0.10662 0.0
H207 H 0.7536 0.69507 0.13578 0.0
C208 C 0.67575 0.66503 0.00495 0.0
N209 N 0.66685 0.67648 0.95049 0.0
C210 C 0.66043 0.62914 0.98723 0.0
C211 C 0.68589 0.70666 0.99497 0.0
C212 C 0.65625 0.63559 0.95979 0.0
C213 C 0.68145 0.71182 0.96737 0.0
C214 C 0.70019 0.55779 0.06589 0.0
C215 C 0.71659 0.53347 0.05277 0.0
C216 C 0.67119 0.53901 0.08775 0.0
C217 C 0.7038 0.4907 0.06179 0.0
C218 C 0.65922 0.49615 0.09616 0.0
N219 N 0.67563 0.47308 0.08312 0.0
C220 C 0.81708 0.70299 0.01329 0.0
C221 C 0.7622 0.63946 0.99048 0.0
C222 C 0.84821 0.70946 0.99362 0.0
N223 N 0.77487 0.66878 0.01129 0.0
C224 C 0.79248 0.6445 0.97032 0.0
C225 C 0.83625 0.67981 0.97187 0.0
H226 H 0.82736 0.72428 0.03072 0.0
H227 H 0.72907 0.61121 0.99003 0.0
C228 C 0.57183 0.57446 0.03781 0.0
N229 N 0.603 0.56217 0.04053 0.0
C230 C 0.53427 0.54965 0.02191 0.0
C231 C 0.56165 0.50006 0.01134 0.0
C232 C 0.59838 0.52542 0.02792 0.0
C233 C 0.52902 0.51231 0.00776 0.0
H234 H 0.57721 0.60493 0.04694 0.0
H235 H 0.62452 0.5174 0.02925 0.0
O236 O 0.7579 0.7 0.0711 0.0
O237 O 0.66175 0.6323 0.09247 0.0
O238 O 0.67998 0.6593 0.03195 0.0
O239 O 0.71229 0.59956 0.05709 0.0
H240 H 0.81532 0.75246 0.108 0.0
H241 H 0.76269 0.74899 0.02898 0.0
H242 H 0.86268 0.83395 0.10365 0.0
H243 H 0.81072 0.83069 0.026 0.0
H244 H 0.53036 0.61495 0.12169 0.0
H245 H 0.6935 0.70198 0.12503 0.0
H246 H 0.57419 0.59051 0.09469 0.0
H247 H 0.64768 0.72402 0.15192 0.0
H248 H 0.72183 0.83902 0.08603 0.0
H249 H 0.6075 0.74927 0.03867 0.0
H250 H 0.81952 0.59911 0.14227 0.0
H251 H 0.80872 0.71084 0.17071 0.0
H252 H 0.65246 0.59672 0.99446 0.0
H253 H 0.69693 0.73476 0.00834 0.0
H254 H 0.64472 0.60811 0.94586 0.0
H255 H 0.68961 0.7439 0.95936 0.0
H256 H 0.73896 0.54754 0.03576 0.0
H257 H 0.65807 0.55721 0.09815 0.0
H258 H 0.71625 0.47149 0.05183 0.0
H259 H 0.63686 0.48121 0.11306 0.0
H260 H 0.88196 0.73614 0.99628 0.0
H261 H 0.78209 0.62049 0.95413 0.0
H262 H 0.51006 0.56032 0.02046 0.0
H263 H 0.56006 0.4723 1.00056 0.0
Li264 Li 0.59361 0.94542 0.96852 0.0
Li265 Li 0.67272 0.98564 0.95743 0.0
Li266 Li 0.62981 0.91365 0.93776 0.0
Li267 Li 0.6431 0.92209 0.98548 0.0
C268 C 0.63799 0.001 0.9138 0.0
N269 N 0.67188 0.07181 0.87825 0.0
C270 C 0.63891 0.0403 0.92085 0.0
C271 C 0.65351 0.99748 0.88842 0.0
C272 C 0.65644 0.07581 0.9027 0.0
C273 C 0.6707 0.03368 0.87078 0.0
C274 C 0.66326 0.98919 0.01749 0.0
C275 C 0.72789 0.01905 0.04601 0.0
N276 N 0.70159 0.01043 0.06811 0.0
C277 C 0.63688 0.9806 0.04049 0.0
C278 C 0.70914 0.0085 0.02026 0.0
C279 C 0.65689 0.99157 0.06589 0.0
C280 C 0.52594 0.92932 0.00473 0.0
N281 N 0.54564 0.95231 0.98177 0.0
C282 C 0.51384 0.99858 0.9885 0.0
C283 C 0.53895 0.98549 0.97301 0.0
C284 C 0.49549 0.97737 0.01327 0.0
C285 C 0.50049 0.94121 0.0208 0.0
H286 H 0.53265 0.90376 0.01159 0.0
H287 H 0.55494 0.0034 0.95478 0.0
C288 C 0.76117 0.0494 0.94447 0.0
N289 N 0.72167 0.04329 0.95349 0.0
C290 C 0.79969 0.09026 0.94817 0.0
C291 C 0.75519 0.11835 0.9681 0.0
C292 C 0.71787 0.07682 0.96467 0.0
C293 C 0.79689 0.12481 0.96084 0.0
H294 H 0.76317 0.02174 0.9362 0.0
H295 H 0.68635 0.07041 0.97266 0.0
C296 C 0.5447 0.85473 0.95762 0.0
N297 N 0.46305 0.79511 0.93627 0.0
C298 C 0.52274 0.81055 0.96617 0.0
C299 C 0.52504 0.86867 0.9383 0.0
C300 C 0.48152 0.78089 0.9551 0.0
C301 C 0.48375 0.838 0.92774 0.0
C302 C 0.70078 0.90722 0.95573 0.0
C303 C 0.67006 0.8623 0.95983 0.0
C304 C 0.74515 0.9203 0.9509 0.0
C305 C 0.68427 0.83131 0.95904 0.0
C306 C 0.75805 0.88825 0.95023 0.0
N307 N 0.72761 0.84479 0.95428 0.0
C308 C 0.66833 0.89827 0.89249 0.0
C309 C 0.60014 0.83482 0.90388 0.0
C310 C 0.67704 0.87428 0.87323 0.0
N311 N 0.6304 0.8785 0.90739 0.0
C312 C 0.6077 0.80942 0.88493 0.0
C313 C 0.64686 0.82893 0.86937 0.0
H314 H 0.69285 0.9325 0.89633 0.0
H315 H 0.57104 0.81901 0.91652 0.0
C316 C 0.6148 0.86146 0.02775 0.0
N317 N 0.65169 0.89455 0.01587 0.0
C318 C 0.61825 0.83209 0.04533 0.0
C319 C 0.69788 0.87403 0.03987 0.0
C320 C 0.69288 0.90274 0.02251 0.0
C321 C 0.66004 0.83682 0.05034 0.0
H322 H 0.58252 0.85599 0.02205 0.0
H323 H 0.72158 0.92933 0.01263 0.0
O324 O 0.62116 0.96588 0.93138 0.0
O325 O 0.64421 0.97821 0.99246 0.0
O326 O 0.58515 0.88386 0.96831 0.0
O327 O 0.68788 0.93848 0.95658 0.0
H328 H 0.62696 0.04369 0.94033 0.0
H329 H 0.65185 0.967 0.88222 0.0
H330 H 0.65781 0.10657 0.90807 0.0
H331 H 0.68294 0.03139 0.85111 0.0
H332 H 0.76333 0.03392 0.04843 0.0
H333 H 0.60135 0.96555 0.03877 0.0
H334 H 0.73006 0.0147 1.00277 0.0
H335 H 0.63686 0.98507 0.08386 0.0
H336 H 0.50992 0.0259 0.98153 0.0
H337 H 0.48711 0.92394 0.0397 0.0
H338 H 0.8315 0.09406 0.94269 0.0
H339 H 0.75193 0.14387 0.97857 0.0
H340 H 0.53756 0.79926 0.98111 0.0
H341 H 0.54123 0.90272 0.93152 0.0
H342 H 0.46422 0.74656 0.96146 0.0
H343 H 0.46815 0.8483 0.91277 0.0
H344 H 0.6356 0.8513 0.96365 0.0
H345 H 0.76942 0.95489 0.94776 0.0
H346 H 0.66079 0.79654 0.96223 0.0
H347 H 0.7923 0.89794 0.94651 0.0
H348 H 0.70737 0.89126 0.8616 0.0
H349 H 0.58366 0.77447 0.88318 0.0
H350 H 0.58835 0.80413 0.05329 0.0
H351 H 0.73067 0.87868 0.04295 0.0
Li352 Li 0.07524 0.71941 0.90981 0.0
Li353 Li 0.07535 0.73715 0.95729 0.0
Li354 Li 0.04235 0.65693 0.94233 0.0
Li355 Li 0.00549 0.69815 0.93201 0.0
C356 C 0.14423 0.7112 0.93232 0.0
N357 N 0.22385 0.71962 0.91592 0.0
C358 C 0.18375 0.75109 0.93626 0.0
C359 C 0.14533 0.67523 0.92069 0.0
C360 C 0.22363 0.75481 0.92764 0.0
C361 C 0.18588 0.68024 0.91235 0.0
C362 C 0.05011 0.78255 0.90679 0.0
C363 C 0.06818 0.8527 0.88663 0.0
N364 N 0.04103 0.83088 0.86553 0.0
C365 C 0.02227 0.76082 0.88493 0.0
C366 C 0.07319 0.82887 0.9077 0.0
C367 C 0.01815 0.78584 0.86428 0.0
C368 C 0.09738 0.74311 0.85286 0.0
N369 N 0.11085 0.75233 0.87902 0.0
C370 C 0.1688 0.82499 0.86651 0.0
C371 C 0.146 0.79225 0.88596 0.0
C372 C 0.15522 0.81709 0.83942 0.0
C373 C 0.11942 0.77505 0.83263 0.0
H374 H 0.06809 0.71208 0.84787 0.0
H375 H 0.15437 0.79995 0.90699 0.0
C376 C 0.1036 0.7712 0.01051 0.0
N377 N 0.10781 0.77966 0.98353 0.0
C378 C 0.12856 0.8053 0.02876 0.0
C379 C 0.16144 0.85537 0.99088 0.0
C380 C 0.13612 0.82049 0.9735 0.0
C381 C 0.15761 0.84809 0.0189 0.0
H382 H 0.0808 0.73814 0.01779 0.0
H383 H 0.13913 0.82576 0.95191 0.0
C384 C 0.0136 0.62769 0.89071 0.0
N385 N 0.00552 0.55832 0.85949 0.0
C386 C 0.97241 0.58926 0.88782 0.0
C387 C 0.05057 0.63103 0.8775 0.0
C388 C 0.96903 0.55449 0.87202 0.0
C389 C 0.04585 0.59557 0.86186 0.0
C390 C 0.9891 0.68293 0.98575 0.0
C391 C 0.95518 0.64231 0.99542 0.0
C392 C 0.99076 0.72224 0.99366 0.0
C393 C 0.92323 0.6417 0.01277 0.0
C394 C 0.95828 0.72023 0.01109 0.0
N395 N 0.92543 0.68034 0.02017 0.0
C396 C 0.06109 0.59794 0.97166 0.0
C397 C 0.98721 0.5665 0.95625 0.0
C398 C 0.04987 0.56011 0.98719 0.0
N399 N 0.0298 0.60054 0.9567 0.0
C400 C 0.97454 0.52807 0.97147 0.0
C401 C 0.00586 0.52465 0.98762 0.0
H402 H 0.09432 0.6261 0.97256 0.0
H403 H 0.96252 0.57003 0.94511 0.0
C404 C 0.94497 0.72882 0.93551 0.0
N405 N 0.94845 0.69197 0.93214 0.0
C406 C 0.90605 0.72509 0.9457 0.0
C407 C 0.87402 0.64543 0.94695 0.0
C408 C 0.91341 0.65065 0.93628 0.0
C409 C 0.87109 0.68323 0.95323 0.0
H410 H 0.97362 0.76135 0.93303 0.0
H411 H 0.91772 0.62212 0.93421 0.0
O412 O 0.10491 0.70686 0.9408 0.0
O413 O 0.05587 0.75868 0.92675 0.0
O414 O 0.01747 0.66185 0.90629 0.0
O415 O 0.02012 0.68419 0.96825 0.0
H416 H 0.18362 0.77891 0.94587 0.0
H417 H 0.11523 0.64368 0.91828 0.0
H418 H 0.25442 0.78562 0.93035 0.0
H419 H 0.18717 0.65275 0.90316 0.0
H420 H 0.08595 0.88856 0.88703 0.0
H421 H 0.00437 0.72501 0.88377 0.0
H422 H 0.0949 0.84627 0.92442 0.0
H423 H 0.9969 0.76946 0.84719 0.0
H424 H 0.19539 0.85701 0.87296 0.0
H425 H 0.10787 0.76722 0.81199 0.0
H426 H 0.12495 0.79847 0.05024 0.0
H427 H 0.18437 0.88756 0.98241 0.0
H428 H 0.94337 0.58629 0.89774 0.0
H429 H 0.08257 0.6607 0.87926 0.0
H430 H 0.93739 0.52447 0.8697 0.0
H431 H 0.07425 0.59768 0.8516 0.0
H432 H 0.95332 0.61157 0.98945 0.0
H433 H 0.01647 0.75393 0.98609 0.0
H434 H 0.89663 0.61049 0.02029 0.0
H435 H 0.95902 0.75037 0.01726 0.0
H436 H 0.07512 0.55949 0.99957 0.0
H437 H 0.94037 0.50157 0.97084 0.0
H438 H 0.90486 0.75499 0.94992 0.0
H439 H 0.8481 0.61258 0.95275 0.0
Li440 Li 0.27854 0.35225 0.96276 0.0
Li441 Li 0.31225 0.31331 0.93921 0.0
Li442 Li 0.35526 0.39432 0.94594 0.0
Li443 Li 0.28919 0.35752 0.91519 0.0
C444 C 0.3353 0.34884 1.00003 0.0
N445 N 0.34579 0.35188 0.05538 0.0
C446 C 0.33001 0.31161 0.014 0.0
C447 C 0.34587 0.3876 0.01415 0.0
C448 C 0.33547 0.31382 0.042 0.0
C449 C 0.35105 0.38847 0.04215 0.0
C450 C 0.2128 0.28057 0.92355 0.0
C451 C 0.16797 0.23033 0.88838 0.0
N452 N 0.13406 0.23706 0.89538 0.0
C453 C 0.17735 0.2866 0.93061 0.0
C454 C 0.20797 0.25183 0.90248 0.0
C455 C 0.13785 0.26442 0.91606 0.0
C456 C 0.22616 0.37875 0.98901 0.0
N457 N 0.24032 0.34897 0.99052 0.0
C458 C 0.19097 0.31135 0.02713 0.0
C459 C 0.2241 0.31603 0.00927 0.0
C460 C 0.17415 0.34049 0.02525 0.0
C461 C 0.19295 0.37512 0.00621 0.0
H462 H 0.23909 0.40398 0.97348 0.0
H463 H 0.23566 0.29244 0.00967 0.0
C464 C 0.36353 0.27596 0.94949 0.0
N465 N 0.32119 0.26491 0.94371 0.0
C466 C 0.37228 0.24563 0.96223 0.0
C467 C 0.29387 0.19201 0.96123 0.0
C468 C 0.28659 0.22355 0.94842 0.0
C469 C 0.33696 0.20392 0.96944 0.0
H470 H 0.39006 0.30959 0.94655 0.0
H471 H 0.25313 0.21639 0.94452 0.0
C472 C 0.32311 0.44807 0.92864 0.0
N473 N 0.35896 0.52929 0.90293 0.0
C474 C 0.34326 0.45421 0.90334 0.0
C475 C 0.32118 0.48324 0.94083 0.0
C476 C 0.36117 0.49552 0.89068 0.0
C477 C 0.33951 0.52405 0.92752 0.0
C478 C 0.3701 0.343 0.89851 0.0
C479 C 0.41622 0.36396 0.90018 0.0
C480 C 0.34689 0.30413 0.88344 0.0
C481 C 0.43837 0.3452 0.88703 0.0
C482 C 0.37024 0.2864 0.87061 0.0
N483 N 0.41511 0.30711 0.87267 0.0
C484 C 0.43439 0.41673 0.97011 0.0
C485 C 0.43026 0.48126 0.9611 0.0
C486 C 0.47235 0.4408 0.98574 0.0
N487 N 0.41352 0.43682 0.95868 0.0
C488 C 0.46893 0.50695 0.97617 0.0
C489 C 0.49 0.48659 0.98948 0.0
H490 H 0.42002 0.38125 0.96836 0.0
H491 H 0.41288 0.49659 0.95226 0.0
C492 C 0.2251 0.36914 0.88867 0.0
N493 N 0.25656 0.35788 0.88377 0.0
C494 C 0.1921 0.36018 0.86964 0.0
C495 C 0.22605 0.33084 0.83991 0.0
C496 C 0.25812 0.33977 0.85977 0.0
C497 C 0.19161 0.34001 0.84491 0.0
H498 H 0.22387 0.38241 0.9082 0.0
H499 H 0.28296 0.33037 0.85647 0.0
O500 O 0.33009 0.34729 0.97263 0.0
O501 O 0.25203 0.30269 0.9372 0.0
O502 O 0.30544 0.40809 0.94167 0.0
O503 O 0.34788 0.36076 0.91138 0.0
H504 H 0.32171 0.28133 0.00334 0.0
H505 H 0.34988 0.41662 0.00359 0.0
H506 H 0.33149 0.28527 0.0531 0.0
H507 H 0.35922 0.41823 0.05338 0.0
H508 H 0.16391 0.20834 0.87185 0.0
H509 H 0.18046 0.30862 0.94692 0.0
H510 H 0.23494 0.24647 0.89694 0.0
H511 H 0.11028 0.26909 0.92114 0.0
H512 H 0.17764 0.28435 0.04157 0.0
H513 H 0.18043 0.3977 0.00341 0.0
H514 H 0.4059 0.25586 0.96828 0.0
H515 H 0.26578 0.16028 0.96684 0.0
H516 H 0.34501 0.42752 0.89345 0.0
H517 H 0.30585 0.4791 0.96045 0.0
H518 H 0.37682 0.50073 0.8711 0.0
H519 H 0.33832 0.55156 0.93676 0.0
H520 H 0.43468 0.3943 0.91157 0.0
H521 H 0.31122 0.2876 0.88192 0.0
H522 H 0.47405 0.36093 0.88825 0.0
H523 H 0.35269 0.25615 0.85903 0.0
H524 H 0.48636 0.42301 0.99572 0.0
H525 H 0.48154 0.54225 0.97773 0.0
H526 H 0.16618 0.36729 0.87493 0.0
H527 H 0.22797 0.31623 0.82105 0.0
Li528 Li 0.0178 0.41026 0.39003 0.0
Li529 Li 0.01639 0.40181 0.43881 0.0
Li530 Li 0.05797 0.37412 0.40827 0.0
Li531 Li 0.97737 0.33811 0.41078 0.0
C532 C 0.10968 0.4675 0.40315 0.0
N533 N 0.1884 0.52905 0.3792 0.0
C534 C 0.13899 0.50623 0.41692 0.0
C535 C 0.12034 0.46018 0.37718 0.0
C536 C 0.17862 0.53696 0.40446 0.0
C537 C 0.16033 0.49161 0.36543 0.0
C538 C 0.95433 0.41965 0.4166 0.0
C539 C 0.8988 0.44158 0.41822 0.0
N540 N 0.93122 0.48461 0.42108 0.0
C541 C 0.9871 0.46415 0.4195 0.0
C542 C 0.90982 0.40828 0.4159 0.0
C543 C 0.97474 0.49646 0.42176 0.0
C544 C 0.9789 0.42713 0.34543 0.0
N545 N 0.01507 0.44602 0.36173 0.0
C546 C 0.04016 0.51646 0.34091 0.0
C547 C 0.04538 0.48992 0.35989 0.0
C548 C 0.00319 0.49782 0.32368 0.0
C549 C 0.97258 0.45232 0.32592 0.0
H550 H 0.95388 0.39291 0.34833 0.0
H551 H 0.07247 0.50505 0.37398 0.0
C552 C 0.04155 0.46822 0.48111 0.0
N553 N 0.00952 0.4284 0.4715 0.0
C554 C 0.03133 0.4906 0.50088 0.0
C555 C 0.95574 0.43028 0.50088 0.0
C556 C 0.96743 0.40905 0.48131 0.0
C557 C 0.98761 0.47211 0.51068 0.0
H558 H 0.07452 0.48355 0.47262 0.0
H559 H 0.94209 0.37825 0.47268 0.0
C560 C 0.00598 0.3429 0.35255 0.0
N561 N 0.98706 0.31622 0.29926 0.0
C562 C 0.9622 0.32126 0.34337 0.0
C563 C 0.04008 0.35056 0.33456 0.0
C564 C 0.95333 0.30815 0.31638 0.0
C565 C 0.02986 0.33696 0.30772 0.0
C566 C 0.99731 0.30399 0.45187 0.0
C567 C 0.01393 0.27516 0.44865 0.0
C568 C 0.95784 0.28989 0.46612 0.0
C569 C 0.99033 0.23234 0.45935 0.0
C570 C 0.9352 0.2468 0.4765 0.0
N571 N 0.95175 0.21915 0.4729 0.0
C572 C 0.14685 0.3858 0.39812 0.0
C573 C 0.08333 0.3185 0.38564 0.0
C574 C 0.17416 0.37344 0.3842 0.0
N575 N 0.10213 0.35869 0.39803 0.0
C576 C 0.10913 0.30509 0.37136 0.0
C577 C 0.15526 0.33301 0.36986 0.0
H578 H 0.16127 0.41778 0.40791 0.0
H579 H 0.04771 0.29778 0.38548 0.0
C580 C 0.88603 0.27577 0.40711 0.0
N581 N 0.9275 0.28157 0.40608 0.0
C582 C 0.85061 0.23761 0.39617 0.0
C583 C 0.90105 0.21103 0.38549 0.0
C584 C 0.93538 0.24964 0.39653 0.0
C585 C 0.85843 0.20564 0.38409 0.0
H586 H 0.88105 0.30208 0.4146 0.0
H587 H 0.96893 0.25578 0.39549 0.0
O588 O 0.07049 0.4374 0.41495 0.0
O589 O 0.9655 0.38724 0.41431 0.0
O590 O 0.01529 0.35515 0.37912 0.0
O591 O 0.01958 0.3458 0.44115 0.0
H592 H 0.13114 0.51259 0.43697 0.0
H593 H 0.09776 0.43075 0.36617 0.0
H594 H 0.20158 0.56711 0.41487 0.0
H595 H 0.16897 0.48631 0.34534 0.0
H596 H 0.86447 0.43321 0.41773 0.0
H597 H 0.02173 0.47376 0.42008 0.0
H598 H 0.88401 0.37408 0.41358 0.0
H599 H -0.00022 0.53097 0.42405 0.0
H600 H 0.06376 0.55168 0.34077 0.0
H601 H 0.94341 0.43654 0.31327 0.0
H602 H 0.05732 0.5224 0.50806 0.0
H603 H 0.92152 0.41485 0.50732 0.0
H604 H 0.93528 0.31515 0.35679 0.0
H605 H 0.07414 0.36657 0.34119 0.0
H606 H 0.9196 0.29159 0.30905 0.0
H607 H 0.05597 0.34277 0.29364 0.0
H608 H 0.0447 0.28571 0.43798 0.0
H609 H 0.94449 0.31173 0.46877 0.0
H610 H 0.0027 0.2096 0.45688 0.0
H611 H 0.9044 0.23532 0.48735 0.0
H612 H 0.2096 0.39582 0.38425 0.0
H613 H 0.09258 0.27401 0.36049 0.0
H614 H 0.81809 0.2344 0.39566 0.0
H615 H 0.9087 0.18761 0.37606 0.0
Li616 Li 0.6188 0.6859 0.38131 0.0
Li617 Li 0.65824 0.64293 0.39108 0.0
Li618 Li 0.59062 0.61063 0.36468 0.0
Li619 Li 0.58679 0.61573 0.41239 0.0
C620 C 0.65402 0.66143 0.33006 0.0
N621 N 0.66643 0.65468 0.27555 0.0
C622 C 0.6734 0.63694 0.32122 0.0
C623 C 0.64091 0.68246 0.3112 0.0
C624 C 0.67941 0.63394 0.29357 0.0
C625 C 0.64747 0.67865 0.28372 0.0
C626 C 0.67901 0.70265 0.43156 0.0
C627 C 0.7372 0.71127 0.46161 0.0
N628 N 0.75583 0.75608 0.45993 0.0
C629 C 0.69856 0.74878 0.43031 0.0
C630 C 0.69828 0.68371 0.44751 0.0
C631 C 0.73745 0.77522 0.44474 0.0
C632 C 0.60538 0.75967 0.36517 0.0
N633 N 0.6341 0.74454 0.36926 0.0
C634 C 0.69143 0.80714 0.34561 0.0
C635 C 0.67667 0.76794 0.36028 0.0
C636 C 0.66211 0.82264 0.33987 0.0
C637 C 0.61875 0.79879 0.35038 0.0
H638 H 0.5718 0.7408 0.37255 0.0
H639 H 0.69873 0.75494 0.36344 0.0
C640 C 0.72198 0.6167 0.38572 0.0
N641 N 0.7163 0.65189 0.39065 0.0
C642 C 0.76336 0.62352 0.37793 0.0
C643 C 0.79272 0.70254 0.38204 0.0
C644 C 0.75069 0.69421 0.38941 0.0
C645 C 0.79896 0.667 0.37496 0.0
H646 H 0.69368 0.58355 0.38549 0.0
H647 H 0.74491 0.72165 0.39226 0.0
C648 C 0.51582 0.61277 0.37191 0.0
N649 N 0.43473 0.56959 0.34602 0.0
C650 C 0.4901 0.56652 0.37269 0.0
C651 C 0.50011 0.63702 0.35793 0.0
C652 C 0.44927 0.5453 0.3595 0.0
C653 C 0.45909 0.6146 0.34498 0.0
C654 C 0.59791 0.54527 0.40735 0.0
C655 C 0.55696 0.50662 0.40396 0.0
C656 C 0.62714 0.54636 0.42704 0.0
C657 C 0.54558 0.47014 0.4207 0.0
C658 C 0.61462 0.50912 0.4433 0.0
N659 N 0.57439 0.47215 0.43988 0.0
C660 C 0.5642 0.53642 0.33207 0.0
C661 C 0.54118 0.58552 0.31543 0.0
C662 C 0.53699 0.50407 0.31366 0.0
N663 N 0.5637 0.57507 0.33366 0.0
C664 C 0.51262 0.55369 0.29709 0.0
C665 C 0.50895 0.51174 0.29705 0.0
H666 H 0.58347 0.52956 0.3463 0.0
H667 H 0.54268 0.61721 0.31654 0.0
C668 C 0.50912 0.55676 0.44382 0.0
N669 N 0.55394 0.58336 0.44449 0.0
C670 C 0.48712 0.52445 0.46379 0.0
C671 C 0.55717 0.54949 0.48596 0.0
C672 C 0.57775 0.58132 0.46562 0.0
C673 C 0.51132 0.51954 0.48486 0.0
H674 H 0.49041 0.5593 0.42734 0.0
H675 H 0.61326 0.60245 0.46582 0.0
O676 O 0.6474 0.66432 0.35703 0.0
O677 O 0.64097 0.67637 0.41746 0.0
O678 O 0.55605 0.63414 0.38469 0.0
O679 O 0.60925 0.58179 0.39155 0.0
H680 H 0.68333 0.62011 0.33552 0.0
H681 H 0.62543 0.70117 0.31769 0.0
H682 H 0.69431 0.61504 0.28643 0.0
H683 H 0.63738 0.69465 0.26888 0.0
H684 H 0.75267 0.69704 0.47382 0.0
H685 H 0.68377 0.76402 0.41842 0.0
H686 H 0.68392 0.64817 0.44858 0.0
H687 H 0.75299 0.81096 0.44388 0.0
H688 H 0.72499 0.82406 0.33786 0.0
H689 H 0.59524 0.80996 0.34694 0.0
H690 H 0.76631 0.59517 0.37207 0.0
H691 H 0.81932 0.73656 0.38017 0.0
H692 H 0.50195 0.54715 0.38292 0.0
H693 H 0.51947 0.6727 0.35684 0.0
H694 H 0.4293 0.50951 0.35985 0.0
H695 H 0.44668 0.63301 0.33402 0.0
H696 H 0.53411 0.50465 0.38859 0.0
H697 H 0.6589 0.57587 0.43007 0.0
H698 H 0.51385 0.44021 0.41841 0.0
H699 H 0.63679 0.50973 0.45877 0.0
H700 H 0.53475 0.4719 0.3143 0.0
H701 H 0.49138 0.56059 0.28451 0.0
H702 H 0.45154 0.50322 0.46249 0.0
H703 H 0.57745 0.54716 0.50169 0.0
Li704 Li 0.36048 0.00953 0.39796 0.0
Li705 Li 0.38779 0.96563 0.42141 0.0
Li706 Li 0.39474 0.97582 0.37327 0.0
Li707 Li 0.3213 0.9309 0.3897 0.0
C708 C 0.46413 0.04557 0.39386 0.0
N709 N 0.55134 0.09341 0.37719 0.0
C710 C 0.49365 0.03083 0.40023 0.0
C711 C 0.47888 0.08456 0.37894 0.0
C712 C 0.53765 0.05561 0.39175 0.0
C713 C 0.52309 0.1082 0.37061 0.0
C714 C 0.30773 0.97832 0.44097 0.0
C715 C 0.24181 0.97633 0.45779 0.0
N716 N 0.2674 0.01412 0.47196 0.0
C717 C 0.33334 0.01671 0.45606 0.0
C718 C 0.26157 0.95761 0.44211 0.0
C719 C 0.31237 0.03449 0.47144 0.0
C720 C 0.31555 0.0549 0.38863 0.0
N721 N 0.3533 0.05943 0.39946 0.0
C722 C 0.38425 0.13762 0.40352 0.0
C723 C 0.38676 0.09934 0.40782 0.0
C724 C 0.34708 0.13445 0.39036 0.0
C725 C 0.31164 0.09219 0.38391 0.0
H726 H 0.28966 0.02256 0.38216 0.0
H727 H 0.41632 0.10169 0.41648 0.0
C728 C 0.43247 0.93726 0.46034 0.0
N729 N 0.42237 0.96876 0.45279 0.0
C730 C 0.46543 0.94698 0.47977 0.0
C731 C 0.47637 0.02085 0.48355 0.0
C732 C 0.44339 0.00977 0.4642 0.0
C733 C 0.48844 0.98958 0.49138 0.0
H734 H 0.41636 0.90522 0.45065 0.0
H735 H 0.43634 0.03492 0.45714 0.0
C736 C 0.32691 0.96359 0.33803 0.0
N737 N 0.29263 0.92964 0.2877 0.0
C738 C 0.33247 0.92979 0.32693 0.0
C739 C 0.30401 0.98018 0.3235 0.0
C740 C 0.31489 0.91307 0.30147 0.0
C741 C 0.2869 0.96256 0.29809 0.0
C742 C 0.35758 0.87865 0.40542 0.0
C743 C 0.37809 0.85363 0.40044 0.0
C744 C 0.32197 0.86259 0.4235 0.0
C745 C 0.36285 0.81315 0.41374 0.0
C746 C 0.3077 0.82193 0.43637 0.0
N747 N 0.32827 0.79827 0.43128 0.0
C748 C 0.45138 0.95714 0.34395 0.0
C749 C 0.44522 0.01696 0.32597 0.0
C750 C 0.48333 0.96371 0.32482 0.0
N751 N 0.43373 0.98408 0.34446 0.0
C752 C 0.47768 0.0252 0.30664 0.0
C753 C 0.49767 0.9988 0.30627 0.0
H754 H 0.44173 0.93152 0.35905 0.0
H755 H 0.43037 0.03775 0.32691 0.0
C756 C 0.23257 0.8968 0.3748 0.0
N757 N 0.26437 0.88527 0.37691 0.0
C758 C 0.19523 0.87215 0.35867 0.0
C759 C 0.22414 0.82435 0.34672 0.0
C760 C 0.2604 0.84928 0.36367 0.0
C761 C 0.19105 0.83603 0.34354 0.0
H762 H 0.23759 0.92699 0.38415 0.0
H763 H 0.28713 0.84203 0.36444 0.0
O764 O 0.42088 0.02166 0.40194 0.0
O765 O 0.32764 0.96058 0.42556 0.0
O766 O 0.34281 0.97983 0.36323 0.0
O767 O 0.37244 0.91837 0.39242 0.0
H768 H 0.48269 0.0004 0.41142 0.0
H769 H 0.45632 0.09614 0.37357 0.0
H770 H 0.56087 0.04474 0.39677 0.0
H771 H 0.53494 0.1383 0.35891 0.0
H772 H 0.20611 0.96071 0.45877 0.0
H773 H 0.36905 0.03311 0.45551 0.0
H774 H 0.24117 0.92709 0.43131 0.0
H775 H 0.33184 0.06451 0.48293 0.0
H776 H 0.41206 0.16951 0.40906 0.0
H777 H 0.28264 0.08812 0.37339 0.0
H778 H 0.47314 0.92155 0.48538 0.0
H779 H 0.49351 0.0543 0.49144 0.0
H780 H 0.3495 0.91604 0.33803 0.0
H781 H 0.29929 0.00624 0.33183 0.0
H782 H 0.31872 0.88674 0.29273 0.0
H783 H 0.26898 0.975 0.28666 0.0
H784 H 0.40562 0.86538 0.3865 0.0
H785 H 0.30513 0.88086 0.42749 0.0
H786 H 0.37853 0.79356 0.4101 0.0
H787 H 0.28018 0.80913 0.45038 0.0
H788 H 0.49833 0.94302 0.32554 0.0
H789 H 0.48791 0.05258 0.29267 0.0
H790 H 0.17064 0.88234 0.35762 0.0
H791 H 0.22354 0.79768 0.33523 0.0
Li792 Li 0.35473 0.3294 0.28726 0.0
Li793 Li 0.27913 0.2882 0.30392 0.0
Li794 Li 0.33343 0.26677 0.31759 0.0
Li795 Li 0.31107 0.25514 0.27018 0.0
C796 C 0.33669 0.33244 0.3514 0.0
N797 N 0.34241 0.35312 0.40565 0.0
C798 C 0.30262 0.30492 0.36907 0.0
C799 C 0.37363 0.37058 0.36131 0.0
C800 C 0.30613 0.31592 0.39643 0.0
C801 C 0.37592 0.38043 0.38881 0.0
C802 C 0.31038 0.34082 0.24838 0.0
C803 C 0.35446 0.388 0.21171 0.0
N804 N 0.33522 0.41332 0.21513 0.0
C805 C 0.29066 0.36698 0.25131 0.0
C806 C 0.34216 0.35107 0.22822 0.0
C807 C 0.30379 0.40361 0.23438 0.0
C808 C 0.43786 0.39926 0.26726 0.0
N809 N 0.39914 0.38859 0.27993 0.0
C810 C 0.4279 0.46285 0.29494 0.0
C811 C 0.39278 0.41975 0.29224 0.0
C812 C 0.46988 0.47329 0.28532 0.0
C813 C 0.47436 0.44176 0.27015 0.0
H814 H 0.44163 0.37388 0.25712 0.0
H815 H 0.36146 0.41013 0.30198 0.0
C816 C 0.1977 0.26543 0.33263 0.0
N817 N 0.23429 0.29803 0.32008 0.0
C818 C 0.17141 0.27604 0.34894 0.0
C819 C 0.22053 0.35342 0.33895 0.0
C820 C 0.24604 0.34137 0.3231 0.0
C821 C 0.18279 0.32069 0.35252 0.0
H822 H 0.19006 0.23136 0.33116 0.0
H823 H 0.27641 0.36689 0.31404 0.0
C824 C 0.41543 0.299 0.29029 0.0
N825 N 0.50453 0.33231 0.30022 0.0
C826 C 0.43896 0.28288 0.27595 0.0
C827 C 0.43727 0.33209 0.3097 0.0
C828 C 0.48395 0.30007 0.28131 0.0
C829 C 0.48232 0.34855 0.31439 0.0
C830 C 0.23113 0.19548 0.29619 0.0
C831 C 0.21264 0.15279 0.30703 0.0
C832 C 0.20676 0.20527 0.27785 0.0
C833 C 0.17001 0.12049 0.29928 0.0
C834 C 0.16422 0.17205 0.27063 0.0
N835 N 0.14689 0.13071 0.2814 0.0
C836 C 0.30821 0.20859 0.36064 0.0
C837 C 0.38394 0.23814 0.34963 0.0
C838 C 0.30909 0.1768 0.37737 0.0
N839 N 0.34487 0.23745 0.34644 0.0
C840 C 0.38632 0.20698 0.36611 0.0
C841 C 0.34802 0.17445 0.37923 0.0
H842 H 0.27731 0.2081 0.35748 0.0
H843 H 0.41258 0.26033 0.33799 0.0
C844 C 0.34454 0.23668 0.22418 0.0
N845 N 0.30807 0.21781 0.24035 0.0
C846 C 0.3513 0.21165 0.20468 0.0
C847 C 0.28261 0.14774 0.21848 0.0
C848 C 0.27714 0.17412 0.23778 0.0
C849 C 0.32047 0.16628 0.20179 0.0
H850 H 0.36953 0.27098 0.22714 0.0
H851 H 0.24907 0.15911 0.25128 0.0
O852 O 0.33387 0.32248 0.32448 0.0
O853 O 0.2985 0.30527 0.26509 0.0
O854 O 0.37167 0.28337 0.28464 0.0
O855 O 0.2729 0.22728 0.30359 0.0
H856 H 0.2738 0.27535 0.36177 0.0
H857 H 0.40024 0.39243 0.34792 0.0
H858 H 0.28001 0.29487 0.41033 0.0
H859 H 0.40433 0.40982 0.39675 0.0
H860 H 0.37938 0.39659 0.19623 0.0
H861 H 0.26527 0.35896 0.26635 0.0
H862 H 0.35775 0.33122 0.22564 0.0
H863 H 0.28893 0.42425 0.23651 0.0
H864 H 0.42338 0.48625 0.30698 0.0
H865 H 0.50639 0.44885 0.26255 0.0
H866 H 0.14333 0.2495 0.35934 0.0
H867 H 0.23063 0.38819 0.34064 0.0
H868 H 0.42264 0.25739 0.2608 0.0
H869 H 0.41969 0.34496 0.321 0.0
H870 H 0.50255 0.28787 0.27036 0.0
H871 H 0.49962 0.37423 0.32928 0.0
H872 H 0.23111 0.14466 0.32122 0.0
H873 H 0.22031 0.2381 0.26933 0.0
H874 H 0.15532 0.08729 0.30748 0.0
H875 H 0.14496 0.17915 0.25648 0.0
H876 H 0.27888 0.15256 0.38732 0.0
H877 H 0.4169 0.20608 0.36656 0.0
H878 H 0.38063 0.22781 0.19211 0.0
H879 H 0.2581 0.11285 0.21731 0.0
Li880 Li 0.74611 0.06217 0.2492 0.0
Li881 Li 0.74443 0.07473 0.29741 0.0
Li882 Li 0.71398 0.99626 0.27956 0.0
Li883 Li 0.67733 0.03849 0.27086 0.0
C884 C 0.82002 0.06285 0.27606 0.0
N885 N 0.90963 0.09318 0.27099 0.0
C886 C 0.85094 0.10668 0.28265 0.0
C887 C 0.83473 0.03419 0.26747 0.0
C888 C 0.89607 0.12146 0.27978 0.0
C889 C 0.88015 0.05022 0.26487 0.0
C890 C 0.71833 0.12318 0.24852 0.0
C891 C 0.73176 0.19266 0.22956 0.0
N892 N 0.7044 0.1704 0.20863 0.0
C893 C 0.69042 0.10099 0.22677 0.0
C894 C 0.73928 0.16939 0.2499 0.0
C895 C 0.68376 0.12545 0.20684 0.0
C896 C 0.76828 0.0852 0.19222 0.0
N897 N 0.7812 0.09607 0.21837 0.0
C898 C 0.83828 0.16855 0.20478 0.0
C899 C 0.81544 0.13688 0.2248 0.0
C900 C 0.82547 0.15869 0.17766 0.0
C901 C 0.79023 0.11605 0.17146 0.0
H902 H 0.73968 0.05347 0.18753 0.0
H903 H 0.82329 0.14598 0.24571 0.0
C904 C 0.79418 0.09916 0.34505 0.0
N905 N 0.77386 0.11182 0.32661 0.0
C906 C 0.82008 0.12847 0.36531 0.0
C907 C 0.80163 0.18212 0.34778 0.0
C908 C 0.77622 0.15185 0.32789 0.0
C909 C 0.82486 0.17095 0.3664 0.0
H910 H 0.79149 0.06694 0.34339 0.0
H911 H 0.75947 0.16071 0.3129 0.0
C912 C 0.69451 0.97703 0.2256 0.0
N913 N 0.70457 0.9233 0.18865 0.0
C914 C 0.65753 0.94322 0.21253 0.0
C915 C 0.73656 0.98345 0.21992 0.0
C916 C 0.66329 0.9164 0.19391 0.0
C917 C 0.74099 0.956 0.20115 0.0
C918 C 0.65661 0.01411 0.32333 0.0
C919 C 0.62192 0.97133 0.32884 0.0
C920 C 0.65678 0.05056 0.33519 0.0
C921 C 0.58775 0.96579 0.34607 0.0
C922 C 0.62193 0.04366 0.35219 0.0
N923 N 0.58841 0.00177 0.35725 0.0
C924 C 0.73131 0.93852 0.31039 0.0
C925 C 0.66181 0.9036 0.28829 0.0
C926 C 0.71915 0.90025 0.32567 0.0
N927 N 0.70251 0.93965 0.29238 0.0
C928 C 0.64817 0.86473 0.30328 0.0
C929 C 0.67665 0.86293 0.3227 0.0
H930 H 0.76283 0.96816 0.31398 0.0
H931 H 0.63899 0.90587 0.27449 0.0
C932 C 0.61374 0.06399 0.2798 0.0
N933 N 0.61973 0.03048 0.27088 0.0
C934 C 0.57229 0.05487 0.28911 0.0
C935 C 0.54344 0.97771 0.27763 0.0
C936 C 0.58544 0.98834 0.26848 0.0
C937 C 0.53717 0.01086 0.28941 0.0
H938 H 0.64196 0.09688 0.28229 0.0
H939 H 0.59164 0.96232 0.2619 0.0
O940 O 0.77566 0.04744 0.27919 0.0
O941 O 0.72666 0.10013 0.26782 0.0
O942 O 0.68905 0.00293 0.24419 0.0
O943 O 0.69006 0.02035 0.30622 0.0
H944 H 0.84025 0.12913 0.28984 0.0
H945 H 0.81131 0.99983 0.26296 0.0
H946 H 0.92033 0.15539 0.28462 0.0
H947 H 0.89198 0.02846 0.25809 0.0
H948 H 0.74784 0.22844 0.23035 0.0
H949 H 0.67439 0.06533 0.22509 0.0
H950 H 0.76148 0.18716 0.26637 0.0
H951 H 0.66233 0.10872 0.18988 0.0
H952 H 0.86443 0.20117 0.21068 0.0
H953 H 0.77924 0.10683 0.15083 0.0
H954 H 0.83738 0.11862 0.37935 0.0
H955 H 0.80505 0.21478 0.34758 0.0
H956 H 0.62469 0.93769 0.21683 0.0
H957 H 0.7655 0.00967 0.2296 0.0
H958 H 0.63496 0.89008 0.18366 0.0
H959 H 0.7734 0.96074 0.1965 0.0
H960 H 0.62122 0.94275 0.3198 0.0
H961 H 0.6831 0.0839 0.33091 0.0
H962 H 0.56061 0.93289 0.35047 0.0
H963 H 0.62153 0.07167 0.36126 0.0
H964 H 0.74209 0.90066 0.34053 0.0
H965 H 0.61535 0.83667 0.30003 0.0
H966 H 0.56904 0.08122 0.29844 0.0
H967 H 0.51706 0.94343 0.27741 0.0
Li968 Li 0.94271 0.68244 0.29875 0.0
Li969 Li 0.97467 0.64068 0.27636 0.0
Li970 Li 0.01853 0.72052 0.28107 0.0
Li971 Li 0.95239 0.68454 0.25078 0.0
C972 C 0.00805 0.69174 0.33502 0.0
N973 N 0.04099 0.72531 0.38557 0.0
C974 C 0.02234 0.66945 0.35206 0.0
C975 C 0.01038 0.73105 0.34366 0.0
C976 C 0.0389 0.68696 0.37757 0.0
C977 C 0.0272 0.74751 0.3693 0.0
C978 C 0.87514 0.60885 0.26097 0.0
C979 C 0.82866 0.55609 0.22731 0.0
N980 N 0.79533 0.56388 0.23402 0.0
C981 C 0.84025 0.61593 0.26778 0.0
C982 C 0.86918 0.5783 0.24083 0.0
C983 C 0.8002 0.59299 0.25384 0.0
C984 C 0.89037 0.71082 0.32322 0.0
N985 N 0.90513 0.68166 0.32598 0.0
C986 C 0.857 0.64683 0.36349 0.0
C987 C 0.89004 0.65061 0.34588 0.0
C988 C 0.83943 0.67514 0.36027 0.0
C989 C 0.85739 0.70819 0.34023 0.0
H990 H 0.90262 0.73462 0.30687 0.0
H991 H 0.90241 0.62773 0.34735 0.0
C992 C 0.02255 0.59689 0.28251 0.0
N993 N 0.9809 0.59067 0.28154 0.0
C994 C 0.03007 0.56482 0.29404 0.0
C995 C 0.95153 0.52017 0.30299 0.0
C996 C 0.94541 0.5528 0.29073 0.0
C997 C 0.99461 0.52685 0.30572 0.0
H998 H 0.0504 0.62815 0.27628 0.0
H999 H 0.91293 0.54963 0.29061 0.0
C1000 C 0.98857 0.77592 0.26243 0.0
N1001 N 0.02528 0.85588 0.23519 0.0
C1002 C 0.00886 0.78063 0.23731 0.0
C1003 C 0.9869 0.81185 0.27365 0.0
C1004 C 0.02722 0.82133 0.22387 0.0
C1005 C 0.00568 0.85201 0.25958 0.0
C1006 C 0.03008 0.66689 0.23318 0.0
C1007 C 0.07626 0.68746 0.23275 0.0
C1008 C 0.00481 0.62776 0.21869 0.0
C1009 C 0.09643 0.6681 0.21807 0.0
C1010 C 0.02621 0.60941 0.20428 0.0
N1011 N 0.07119 0.62977 0.20428 0.0
C1012 C 0.09972 0.74296 0.30228 0.0
C1013 C 0.0928 0.8067 0.29681 0.0
C1014 C 0.13707 0.7663 0.31854 0.0
N1015 N 0.07758 0.76288 0.29251 0.0
C1016 C 0.13097 0.83176 0.31238 0.0
C1017 C 0.15293 0.81129 0.32443 0.0
H1018 H 0.08627 0.70778 0.29918 0.0
H1019 H 0.07427 0.82176 0.2894 0.0
C1020 C 0.88815 0.69544 0.22415 0.0
N1021 N 0.91964 0.6842 0.21928 0.0
C1022 C 0.85536 0.68674 0.20503 0.0
C1023 C 0.88967 0.65789 0.17522 0.0
C1024 C 0.92142 0.66638 0.19521 0.0
C1025 C 0.85521 0.66709 0.18015 0.0
H1026 H 0.88684 0.70862 0.24369 0.0
H1027 H 0.94639 0.65718 0.19187 0.0
O1028 O 0.99278 0.67555 0.30976 0.0
O1029 O 0.91491 0.63166 0.27401 0.0
O1030 O 0.97047 0.73659 0.27619 0.0
O1031 O 0.00987 0.68544 0.24745 0.0
H1032 H 0.0209 0.63907 0.34555 0.0
H1033 H -0.00028 0.74886 0.33061 0.0
H1034 H 0.05018 0.67013 0.39097 0.0
H1035 H 0.02939 0.77798 0.37622 0.0
H1036 H 0.82372 0.53265 0.2115 0.0
H1037 H 0.8442 0.6393 0.28339 0.0
H1038 H 0.8956 0.57194 0.2356 0.0
H1039 H 0.77306 0.59846 0.25871 0.0
H1040 H 0.84423 0.62108 0.37875 0.0
H1041 H 0.84425 0.73004 0.33653 0.0
H1042 H 0.06372 0.57111 0.29535 0.0
H1043 H 0.92325 0.49188 0.31207 0.0
H1044 H 0.01038 0.7533 0.22816 0.0
H1045 H 0.97145 0.80879 0.29312 0.0
H1046 H 0.04299 0.82544 0.20442 0.0
H1047 H 0.00471 0.88012 0.26807 0.0
H1048 H 0.09629 0.71802 0.24367 0.0
H1049 H 0.96909 0.61154 0.21876 0.0
H1050 H 0.13213 0.68354 0.21764 0.0
H1051 H 0.00706 0.57897 0.1931 0.0
H1052 H 0.15174 0.74831 0.32743 0.0
H1053 H 0.14225 0.86655 0.31543 0.0
H1054 H 0.82942 0.69381 0.21033 0.0
H1055 H 0.89194 0.64375 0.15625 0.0
Li1056 Li 0.68556 0.75129 0.72434 0.0
Li1057 Li 0.6799 0.73653 0.77272 0.0
Li1058 Li 0.7187 0.70807 0.73998 0.0
Li1059 Li 0.63754 0.67472 0.74093 0.0
C1060 C 0.76864 0.81236 0.74295 0.0
N1061 N 0.8339 0.89619 0.72727 0.0
C1062 C 0.7791 0.84906 0.75928 0.0
C1063 C 0.79157 0.81839 0.71871 0.0
C1064 C 0.81215 0.89114 0.75099 0.0
C1065 C 0.82438 0.86098 0.71111 0.0
C1066 C 0.61848 0.75843 0.74863 0.0
C1067 C 0.56227 0.7787 0.74256 0.0
N1068 N 0.59169 0.82085 0.75029 0.0
C1069 C 0.6481 0.80194 0.75657 0.0
C1070 C 0.57516 0.74666 0.7416 0.0
C1071 C 0.63397 0.83301 0.75727 0.0
C1072 C 0.66076 0.77007 0.67498 0.0
N1073 N 0.6862 0.78989 0.69707 0.0
C1074 C 0.7033 0.86119 0.68093 0.0
C1075 C 0.70714 0.83454 0.7004 0.0
C1076 C 0.677 0.84166 0.65801 0.0
C1077 C 0.65562 0.7955 0.65505 0.0
H1078 H 0.64341 0.73435 0.67323 0.0
H1079 H 0.72534 0.84954 0.7186 0.0
C1080 C 0.70719 0.78997 0.822 0.0
N1081 N 0.67282 0.75913 0.80711 0.0
C1082 C 0.69945 0.81211 0.84314 0.0
C1083 C 0.62112 0.7688 0.83413 0.0
C1084 C 0.63031 0.74733 0.81345 0.0
C1085 C 0.65592 0.80263 0.84896 0.0
H1086 H 0.74072 0.79868 0.81685 0.0
H1087 H 0.60339 0.72301 0.80131 0.0
C1088 C 0.68789 0.68177 0.68698 0.0
N1089 N 0.71035 0.65268 0.64089 0.0
C1090 C 0.66688 0.6365 0.68104 0.0
C1091 C 0.71972 0.71227 0.66918 0.0
C1092 C 0.67883 0.62245 0.65772 0.0
C1093 C 0.7308 0.6969 0.64607 0.0
C1094 C 0.65513 0.64122 0.78768 0.0
C1095 C 0.67161 0.61248 0.79193 0.0
C1096 C 0.61599 0.63304 0.80044 0.0
C1097 C 0.64854 0.57588 0.80895 0.0
C1098 C 0.59388 0.59608 0.81729 0.0
N1099 N 0.61048 0.56851 0.82116 0.0
C1100 C 0.8032 0.71982 0.72224 0.0
C1101 C 0.74252 0.64649 0.72325 0.0
C1102 C 0.82769 0.70627 0.70647 0.0
N1103 N 0.76081 0.69021 0.72946 0.0
C1104 C 0.76559 0.63159 0.70731 0.0
C1105 C 0.80836 0.66186 0.69786 0.0
H1106 H 0.81736 0.75435 0.72752 0.0
H1107 H 0.70852 0.62368 0.72886 0.0
C1108 C 0.55785 0.62764 0.71574 0.0
N1109 N 0.5854 0.62185 0.7324 0.0
C1110 C 0.52438 0.59167 0.70202 0.0
C1111 C 0.54682 0.54397 0.72397 0.0
C1112 C 0.58002 0.58101 0.73729 0.0
C1113 C 0.5198 0.54955 0.70525 0.0
H1114 H 0.56408 0.66072 0.71151 0.0
H1115 H 0.60356 0.57755 0.74967 0.0
O1116 O 0.73631 0.77087 0.75073 0.0
O1117 O 0.63188 0.7276 0.74755 0.0
O1118 O 0.67715 0.69609 0.71002 0.0
O1119 O 0.67706 0.6769 0.77087 0.0
H1120 H 0.76163 0.84527 0.778 0.0
H1121 H 0.78392 0.79055 0.7058 0.0
H1122 H 0.82041 0.91981 0.76338 0.0
H1123 H 0.84221 0.86606 0.69234 0.0
H1124 H 0.52885 0.77004 0.73716 0.0
H1125 H 0.68173 0.81165 0.76204 0.0
H1126 H 0.55166 0.71312 0.73556 0.0
H1127 H 0.65663 0.8668 0.76332 0.0
H1128 H 0.71916 0.89658 0.6844 0.0
H1129 H 0.63469 0.77928 0.63778 0.0
H1130 H 0.72743 0.83703 0.8544 0.0
H1131 H 0.5871 0.76033 0.83745 0.0
H1132 H 0.64205 0.61239 0.69447 0.0
H1133 H 0.73554 0.74744 0.67303 0.0
H1134 H 0.66312 0.58749 0.65304 0.0
H1135 H 0.75558 0.72016 0.63222 0.0
H1136 H 0.70188 0.61837 0.78216 0.0
H1137 H 0.60248 0.65457 0.797 0.0
H1138 H 0.66087 0.55332 0.81242 0.0
H1139 H 0.56344 0.58923 0.82721 0.0
H1140 H 0.86105 0.73068 0.70053 0.0
H1141 H 0.74895 0.59714 0.70124 0.0
H1142 H 0.50402 0.59718 0.68781 0.0
H1143 H 0.54471 0.5121 0.72662 0.0
Li1144 Li 0.32308 0.97294 0.72265 0.0
Li1145 Li 0.28179 0.01366 0.71202 0.0
Li1146 Li 0.25233 0.94622 0.74519 0.0
Li1147 Li 0.25381 0.93676 0.69792 0.0
C1148 C 0.34409 0.0345 0.76207 0.0
N1149 N 0.42109 0.08935 0.78986 0.0
C1150 C 0.36352 0.08055 0.75999 0.0
C1151 C 0.36362 0.01637 0.77847 0.0
C1152 C 0.40249 0.10771 0.77416 0.0
C1153 C 0.40261 0.04465 0.79229 0.0
C1154 C 0.31438 0.98537 0.66112 0.0
C1155 C 0.30557 0.99923 0.61446 0.0
N1156 N 0.32361 0.97421 0.60675 0.0
C1157 C 0.3328 0.95977 0.65275 0.0
C1158 C 0.30061 0.00528 0.64187 0.0
C1159 C 0.3372 0.95454 0.62515 0.0
C1160 C 0.38856 0.9491 0.71655 0.0
N1161 N 0.38181 0.98364 0.72143 0.0
C1162 C 0.45754 0.0357 0.71181 0.0
C1163 C 0.41533 0.02634 0.7196 0.0
C1164 C 0.46486 0.00079 0.70488 0.0
C1165 C 0.43014 0.95695 0.70833 0.0
H1166 H 0.36087 0.91557 0.71679 0.0
H1167 H 0.40869 0.05322 0.72235 0.0
C1168 C 0.26796 0.08799 0.69706 0.0
N1169 N 0.29603 0.07164 0.69912 0.0
C1170 C 0.28077 0.12733 0.68261 0.0
C1171 C 0.35157 0.13314 0.67379 0.0
C1172 C 0.33748 0.09396 0.68833 0.0
C1173 C 0.32287 0.15009 0.67024 0.0
H1174 H 0.23531 0.07006 0.70597 0.0
H1175 H 0.35918 0.08024 0.69012 0.0
C1176 C 0.265 0.87684 0.74273 0.0
N1177 N 0.24398 0.80735 0.77795 0.0
C1178 C 0.22284 0.83908 0.74226 0.0
C1179 C 0.29656 0.879 0.761 0.0
C1180 C 0.21281 0.80441 0.76028 0.0
C1181 C 0.2853 0.84355 0.77863 0.0
C1182 C 0.18035 0.94126 0.70335 0.0
C1183 C 0.15216 0.89537 0.70521 0.0
C1184 C 0.16807 0.96636 0.68728 0.0
C1185 C 0.1123 0.87537 0.69093 0.0
C1186 C 0.12789 0.94515 0.67335 0.0
N1187 N 0.10108 0.90048 0.67543 0.0
C1188 C 0.17556 0.89026 0.77768 0.0
C1189 C 0.24437 0.91367 0.799 0.0
C1190 C 0.15342 0.85832 0.79781 0.0
N1191 N 0.22049 0.91599 0.778 0.0
C1192 C 0.22364 0.88221 0.81952 0.0
C1193 C 0.17763 0.85292 0.8187 0.0
H1194 H 0.15691 0.89301 0.76121 0.0
H1195 H 0.27997 0.93404 0.79888 0.0
C1196 C 0.22375 0.85746 0.66997 0.0
N1197 N 0.22519 0.89708 0.66862 0.0
C1198 C 0.19555 0.82286 0.65311 0.0
C1199 C 0.17444 0.87196 0.63173 0.0
C1200 C 0.20354 0.90583 0.64887 0.0
C1201 C 0.16874 0.82933 0.63468 0.0
H1202 H 0.24251 0.85186 0.68522 0.0
H1203 H 0.20639 0.93812 0.64765 0.0
O1204 O 0.30603 0.0075 0.74821 0.0
O1205 O 0.3094 0.99051 0.68803 0.0
O1206 O 0.27518 0.91155 0.72555 0.0
O1207 O 0.21966 0.96155 0.71714 0.0
H1208 H 0.34863 0.09516 0.7476 0.0
H1209 H 0.34936 0.98089 0.78011 0.0
H1210 H 0.41794 0.1434 0.77268 0.0
H1211 H 0.41827 0.03105 0.80488 0.0
H1212 H 0.29495 0.01433 0.59933 0.0
H1213 H 0.34321 0.94379 0.66738 0.0
H1214 H 0.28583 0.02479 0.648 0.0
H1215 H 0.35133 0.93476 0.61838 0.0
H1216 H 0.4834 0.06997 0.70961 0.0
H1217 H 0.43389 0.92901 0.70261 0.0
H1218 H 0.25779 0.13955 0.68096 0.0
H1219 H 0.3841 0.14901 0.66456 0.0
H1220 H 0.19796 0.83662 0.72828 0.0
H1221 H 0.3292 0.90799 0.76191 0.0
H1222 H 0.18021 0.77521 0.76026 0.0
H1223 H 0.30932 0.84497 0.79299 0.0
H1224 H 0.16142 0.87521 0.71698 0.0
H1225 H 0.18951 0.00174 0.6853 0.0
H1226 H 0.09048 0.83985 0.692 0.0
H1227 H 0.11811 0.9642 0.66078 0.0
H1228 H 0.11777 0.8376 0.79674 0.0
H1229 H 0.24389 0.87948 0.8351 0.0
H1230 H 0.19213 0.79048 0.6561 0.0
H1231 H 0.15468 0.8783 0.61751 0.0
Li1232 Li 0.05739 0.31098 0.75434 0.0
Li1233 Li 0.02874 0.35377 0.73289 0.0
Li1234 Li 0.99212 0.27522 0.721 0.0
Li1235 Li 0.06829 0.32685 0.70552 0.0
C1236 C 0.97126 0.31425 0.77315 0.0
N1237 N 0.922 0.34073 0.80349 0.0
C1238 C 0.99242 0.35207 0.78934 0.0
C1239 C 0.92503 0.28937 0.77286 0.0
C1240 C 0.96696 0.36511 0.80437 0.0
C1241 C 0.90071 0.30341 0.78824 0.0
C1242 C 0.11841 0.41362 0.73278 0.0
C1243 C 0.14423 0.47983 0.70583 0.0
N1244 N 0.17242 0.50405 0.72599 0.0
C1245 C 0.1479 0.43914 0.75315 0.0
C1246 C 0.11679 0.43409 0.70886 0.0
C1247 C 0.17485 0.48481 0.74935 0.0
C1248 C 0.10879 0.28381 0.78746 0.0
N1249 N 0.09077 0.3105 0.78541 0.0
C1250 C 0.13518 0.35474 0.82236 0.0
C1251 C 0.10288 0.34495 0.80269 0.0
C1252 C 0.15535 0.32858 0.82471 0.0
C1253 C 0.14081 0.29196 0.80722 0.0
H1254 H 0.09986 0.25733 0.77311 0.0
H1255 H 0.08944 0.36668 0.80016 0.0
C1256 C 0.97726 0.39018 0.72166 0.0
N1257 N 0.01474 0.39972 0.73525 0.0
C1258 C 0.96741 0.42341 0.71614 0.0
C1259 C 0.0328 0.47496 0.74098 0.0
C1260 C 0.04121 0.44044 0.7462 0.0
C1261 C 0.9965 0.46692 0.72476 0.0
H1262 H 0.95667 0.35734 0.71344 0.0
H1263 H 0.07009 0.44686 0.75769 0.0
C1264 C 0.03471 0.22665 0.73219 0.0
N1265 N 0.01117 0.14262 0.75025 0.0
C1266 C 0.05223 0.20278 0.71976 0.0
C1267 C 0.00512 0.20777 0.75376 0.0
C1268 C 0.03994 0.16034 0.7292 0.0
C1269 C 0.99367 0.16525 0.7626 0.0
C1270 C 0.00781 0.33164 0.67036 0.0
C1271 C 0.99213 0.29533 0.65295 0.0
C1272 C 0.01711 0.37288 0.66014 0.0
C1273 C 0.98674 0.30097 0.62556 0.0
C1274 C 0.01152 0.37723 0.63259 0.0
N1275 N 0.99657 0.3415 0.61601 0.0
C1276 C 0.90492 0.24114 0.70422 0.0
C1277 C 0.93234 0.19294 0.69405 0.0
C1278 C 0.86729 0.21595 0.68844 0.0
N1279 N 0.93658 0.22948 0.70672 0.0
C1280 C 0.89561 0.16727 0.67752 0.0
C1281 C 0.86251 0.17892 0.67411 0.0
H1282 H 0.90995 0.27146 0.71339 0.0
H1283 H 0.95884 0.18541 0.69521 0.0
C1284 C 0.1513 0.37008 0.67987 0.0
N1285 N 0.10871 0.33702 0.67693 0.0
C1286 C 0.18279 0.37703 0.66036 0.0
C1287 C 0.12673 0.3146 0.63539 0.0
C1288 C 0.09605 0.30911 0.65539 0.0
C1289 C 0.17082 0.34892 0.63784 0.0
H1290 H 0.16153 0.39005 0.69788 0.0
H1291 H 0.06261 0.28156 0.65422 0.0
O1292 O 0.99557 0.30103 0.7581 0.0
O1293 O 0.09115 0.36893 0.7363 0.0
O1294 O 0.04633 0.2681 0.72298 0.0
O1295 O 0.01314 0.32668 0.69733 0.0
H1296 H 0.02811 0.37178 0.7898 0.0
H1297 H 0.90807 0.25923 0.76116 0.0
H1298 H 0.98295 0.39467 0.81668 0.0
H1299 H 0.8649 0.28454 0.78811 0.0
H1300 H 0.14315 0.49604 0.68744 0.0
H1301 H 0.15 0.42395 0.77171 0.0
H1302 H 0.09482 0.41473 0.69276 0.0
H1303 H 0.19769 0.50497 0.76499 0.0
H1304 H 0.14548 0.38384 0.83475 0.0
H1305 H 0.15451 0.27016 0.80839 0.0
H1306 H 0.93932 0.4157 0.70333 0.0
H1307 H 0.05564 0.50797 0.7483 0.0
H1308 H 0.07507 0.21693 0.70298 0.0
H1309 H 0.9911 0.22562 0.76361 0.0
H1310 H 0.05326 0.14147 0.71978 0.0
H1311 H 0.97085 0.15023 0.77929 0.0
H1312 H 0.9849 0.26324 0.66035 0.0
H1313 H 0.02845 0.40129 0.67327 0.0
H1314 H 0.97493 0.27316 0.61187 0.0
H1315 H 0.01909 0.40902 0.62438 0.0
H1316 H 0.84272 0.22616 0.68718 0.0
H1317 H 0.89443 0.13979 0.66663 0.0
H1318 H 0.21673 0.40282 0.66369 0.0
H1319 H 0.11635 0.2917 0.61859 0.0
Li1320 Li 0.92536 0.61153 0.63079 0.0
Li1321 Li 0.00605 0.65214 0.61889 0.0
Li1322 Li 0.95651 0.57722 0.60002 0.0
Li1323 Li 0.97363 0.5867 0.64723 0.0
C1324 C 0.93189 0.64358 0.57615 0.0
N1325 N 0.88618 0.66527 0.53939 0.0
C1326 C 0.93879 0.68668 0.57519 0.0
C1327 C 0.90249 0.61176 0.55801 0.0
C1328 C 0.91514 0.69692 0.55658 0.0
C1329 C 0.87948 0.6233 0.53969 0.0
C1330 C 0.99325 0.65297 0.67977 0.0
C1331 C 0.05444 0.68405 0.71099 0.0
N1332 N 0.0253 0.66928 0.73197 0.0
C1333 C 0.9639 0.63816 0.70162 0.0
C1334 C 0.03889 0.67611 0.68444 0.0
C1335 C 0.98077 0.6467 0.72787 0.0
C1336 C 0.85214 0.59335 0.6637 0.0
N1337 N 0.88054 0.62267 0.64516 0.0
C1338 C 0.86046 0.67635 0.65859 0.0
C1339 C 0.8848 0.66343 0.6422 0.0
C1340 C 0.83213 0.64748 0.67875 0.0
C1341 C 0.82748 0.60502 0.68068 0.0
H1342 H 0.85085 0.56195 0.66661 0.0
H1343 H 0.90896 0.68697 0.62825 0.0
C1344 C 0.09577 0.71351 0.60903 0.0
N1345 N 0.05541 0.70879 0.61429 0.0
C1346 C 0.13398 0.75438 0.61307 0.0
C1347 C 0.08783 0.78517 0.62573 0.0
C1348 C 0.05059 0.74369 0.62159 0.0
C1349 C 0.13019 0.79027 0.62268 0.0
H1350 H 0.09841 0.68486 0.60369 0.0
H1351 H 0.01802 0.73843 0.62633 0.0
C1352 C 0.87354 0.51767 0.62259 0.0
N1353 N 0.79093 0.45286 0.60527 0.0
C1354 C 0.85786 0.47323 0.62919 0.0
C1355 C 0.84691 0.52922 0.6076 0.0
C1356 C 0.8161 0.44092 0.62011 0.0
C1357 C 0.80532 0.49597 0.59893 0.0
C1358 C 0.02816 0.56914 0.61502 0.0
C1359 C 0.99827 0.52515 0.62209 0.0
C1360 C 0.07012 0.58025 0.60531 0.0
C1361 C 0.01089 0.49312 0.61943 0.0
C1362 C 0.0815 0.54722 0.60291 0.0
N1363 N 0.0519 0.50469 0.60996 0.0
C1364 C 0.9844 0.56524 0.54916 0.0
C1365 C 0.93368 0.49725 0.56995 0.0
C1366 C 0.99482 0.54296 0.52952 0.0
N1367 N 0.95482 0.54232 0.56912 0.0
C1368 C 0.94324 0.47364 0.55078 0.0
C1369 C 0.97498 0.49648 0.53047 0.0
H1370 H 0.00174 0.6011 0.54933 0.0
H1371 H 0.9117 0.47962 0.58651 0.0
C1372 C 0.94672 0.52761 0.69032 0.0
N1373 N 0.98315 0.55987 0.67759 0.0
C1374 C 0.95075 0.49912 0.70834 0.0
C1375 C 0.03012 0.54023 0.70144 0.0
C1376 C 0.02454 0.56809 0.68365 0.0
C1377 C 0.99264 0.50386 0.71293 0.0
H1378 H 0.91427 0.52214 0.68505 0.0
H1379 H 0.05283 0.59402 0.67306 0.0
O1380 O 0.95523 0.63313 0.59396 0.0
O1381 O 0.97739 0.64437 0.65393 0.0
O1382 O 0.91433 0.54954 0.63146 0.0
O1383 O 0.01639 0.60112 0.61726 0.0
H1384 H 0.9621 0.71194 0.58871 0.0
H1385 H 0.89752 0.57851 0.55804 0.0
H1386 H 0.91991 0.73007 0.55576 0.0
H1387 H 0.8564 0.59892 0.52566 0.0
H1388 H 0.08967 0.70184 0.71491 0.0
H1389 H 0.9285 0.62 0.69835 0.0
H1390 H 0.06209 0.6875 0.66776 0.0
H1391 H 0.95845 0.63532 0.74499 0.0
H1392 H 0.86475 0.70911 0.6559 0.0
H1393 H 0.80675 0.58174 0.69606 0.0
H1394 H 0.16611 0.75711 0.61053 0.0
H1395 H 0.08349 0.81173 0.63365 0.0
H1396 H 0.87794 0.46379 0.64101 0.0
H1397 H 0.85792 0.56349 0.60302 0.0
H1398 H 0.80369 0.40636 0.62489 0.0
H1399 H 0.78442 0.50447 0.58725 0.0
H1400 H 0.96552 0.51561 0.62941 0.0
H1401 H 0.09367 0.614 0.5996 0.0
H1402 H 0.98795 0.45903 0.62482 0.0
H1403 H 0.11386 0.55538 0.5954 0.0
H1404 H 0.01885 0.56214 0.51406 0.0
H1405 H 0.92743 0.43796 0.55272 0.0
H1406 H 0.92114 0.4718 0.71707 0.0
H1407 H 0.06295 0.5448 0.70417 0.0
Li1408 Li 0.40954 0.4045 0.62365 0.0
Li1409 Li 0.40906 0.38664 0.57617 0.0
Li1410 Li 0.33991 0.36652 0.5984 0.0
Li1411 Li 0.37552 0.32403 0.60866 0.0
C1412 C 0.38404 0.45 0.57311 0.0
N1413 N 0.37296 0.49713 0.5319 0.0
C1414 C 0.35628 0.42767 0.55133 0.0
C1415 C 0.40602 0.4963 0.57395 0.0
C1416 C 0.35114 0.45209 0.5307 0.0
C1417 C 0.40001 0.51952 0.55292 0.0
C1418 C 0.4781 0.37849 0.59907 0.0
C1419 C 0.52117 0.34847 0.57995 0.0
N1420 N 0.55866 0.38826 0.58358 0.0
C1421 C 0.51712 0.41881 0.60309 0.0
C1422 C 0.48016 0.34278 0.58783 0.0
C1423 C 0.55749 0.42321 0.59493 0.0
C1424 C 0.43932 0.43649 0.67688 0.0
N1425 N 0.44213 0.44651 0.65015 0.0
C1426 C 0.49382 0.52245 0.65869 0.0
C1427 C 0.46878 0.48825 0.6408 0.0
C1428 C 0.49157 0.51345 0.68647 0.0
C1429 C 0.46418 0.46981 0.6956 0.0
H1430 H 0.41779 0.40277 0.6836 0.0
H1431 H 0.47077 0.49478 0.61936 0.0
C1432 C 0.43147 0.40969 0.51913 0.0
N1433 N 0.44468 0.41919 0.54532 0.0
C1434 C 0.45353 0.44152 0.49885 0.0
C1435 C 0.50233 0.49194 0.53276 0.0
C1436 C 0.47954 0.4593 0.55225 0.0
C1437 C 0.48904 0.48374 0.50562 0.0
H1438 H 0.40234 0.37852 0.51414 0.0
H1439 H 0.48763 0.46723 0.5733 0.0
C1440 C 0.32281 0.35045 0.652 0.0
N1441 N 0.25894 0.34745 0.6864 0.0
C1442 C 0.28805 0.30965 0.66081 0.0
C1443 C 0.32521 0.38972 0.66076 0.0
C1444 C 0.256 0.30884 0.67815 0.0
C1445 C 0.29261 0.3875 0.67817 0.0
C1446 C 0.34742 0.2959 0.55669 0.0
C1447 C 0.30614 0.25809 0.55259 0.0
C1448 C 0.38498 0.29918 0.54434 0.0
C1449 C 0.3032 0.22391 0.53638 0.0
C1450 C 0.3807 0.26433 0.52826 0.0
N1451 N 0.34024 0.2277 0.52466 0.0
C1452 C 0.28044 0.39824 0.60264 0.0
C1453 C 0.24765 0.31994 0.60174 0.0
C1454 C 0.24152 0.39468 0.61267 0.0
N1455 N 0.28326 0.36119 0.59851 0.0
C1456 C 0.20819 0.31485 0.61222 0.0
C1457 C 0.20585 0.3527 0.61926 0.0
H1458 H 0.30953 0.43064 0.60087 0.0
H1459 H 0.25142 0.29119 0.59907 0.0
C1460 C 0.39264 0.26438 0.63843 0.0
N1461 N 0.3621 0.2673 0.62288 0.0
C1462 C 0.38069 0.22619 0.65377 0.0
C1463 C 0.30618 0.19443 0.63662 0.0
C1464 C 0.31958 0.23322 0.62161 0.0
C1465 C 0.33671 0.19066 0.65336 0.0
H1466 H 0.4258 0.29252 0.63992 0.0
H1467 H 0.29546 0.23696 0.60995 0.0
O1468 O 0.3908 0.4268 0.59308 0.0
O1469 O 0.43832 0.37346 0.60713 0.0
O1470 O 0.35404 0.35195 0.63459 0.0
O1471 O 0.35082 0.32938 0.57275 0.0
H1472 H 0.33917 0.39188 0.55021 0.0
H1473 H 0.42765 0.51418 0.59061 0.0
H1474 H 0.32993 0.43524 0.51368 0.0
H1475 H 0.41693 0.55536 0.55328 0.0
H1476 H 0.52322 0.32119 0.57107 0.0
H1477 H 0.51624 0.44644 0.61241 0.0
H1478 H 0.45044 0.31091 0.58537 0.0
H1479 H 0.58791 0.45436 0.5977 0.0
H1480 H 0.51546 0.55544 0.65079 0.0
H1481 H 0.46186 0.46169 0.71688 0.0
H1482 H 0.44218 0.43346 0.47819 0.0
H1483 H 0.52863 0.52412 0.5392 0.0
H1484 H 0.28562 0.27895 0.65417 0.0
H1485 H 0.35162 0.42157 0.65388 0.0
H1486 H 0.22875 0.2775 0.68501 0.0
H1487 H 0.29393 0.41762 0.68501 0.0
H1488 H 0.27669 0.25513 0.56192 0.0
H1489 H 0.41708 0.32836 0.54706 0.0
H1490 H 0.27148 0.19438 0.53312 0.0
H1491 H 0.40955 0.26642 0.51862 0.0
H1492 H 0.2408 0.42463 0.61754 0.0
H1493 H 0.18168 0.28189 0.6173 0.0
H1494 H 0.40533 0.22529 0.66661 0.0
H1495 H 0.2721 0.1679 0.63533 0.0
Li1496 Li 0.64546 0.97981 0.60788 0.0
Li1497 Li 0.61157 0.02026 0.62953 0.0
Li1498 Li 0.62303 0.02281 0.58185 0.0
Li1499 Li 0.68832 0.05976 0.61294 0.0
C1500 C 0.5463 0.94699 0.5909 0.0
N1501 N 0.46811 0.90284 0.56224 0.0
C1502 C 0.5125 0.95675 0.5953 0.0
C1503 C 0.54009 0.91429 0.57225 0.0
C1504 C 0.47326 0.93418 0.58053 0.0
C1505 C 0.50038 0.89248 0.55787 0.0
C1506 C 0.67488 0.02901 0.66707 0.0
C1507 C 0.69187 0.08303 0.70219 0.0
N1508 N 0.70192 0.05852 0.71909 0.0
C1509 C 0.68532 0.00432 0.68475 0.0
C1510 C 0.67807 0.06865 0.67581 0.0
C1511 C 0.69893 0.0198 0.71099 0.0
C1512 C 0.69602 0.94157 0.61873 0.0
N1513 N 0.65365 0.9311 0.61359 0.0
C1514 C 0.62603 0.85839 0.63154 0.0
C1515 C 0.61883 0.89014 0.61895 0.0
C1516 C 0.66933 0.8696 0.63885 0.0
C1517 C 0.70472 0.91097 0.63114 0.0
H1518 H 0.72283 0.97486 0.6152 0.0
H1519 H 0.58539 0.8834 0.61555 0.0
C1520 C 0.55691 0.04662 0.65341 0.0
N1521 N 0.57274 0.01836 0.65635 0.0
C1522 C 0.52318 0.04292 0.67017 0.0
C1523 C 0.52428 0.98245 0.69358 0.0
C1524 C 0.55797 0.98722 0.67619 0.0
C1525 C 0.50565 0.00981 0.6902 0.0
H1526 H 0.56896 0.07054 0.63711 0.0
H1527 H 0.57119 0.96507 0.67783 0.0
C1528 C 0.70274 0.00598 0.5669 0.0
N1529 N 0.7463 0.96754 0.54221 0.0
C1530 C 0.74895 0.02712 0.56758 0.0
C1531 C 0.6787 0.96558 0.55341 0.0
C1532 C 0.77036 0.00708 0.55504 0.0
C1533 C 0.70133 0.94659 0.54114 0.0
C1534 C 0.65771 0.11423 0.59371 0.0
C1535 C 0.67879 0.11953 0.56881 0.0
C1536 C 0.65527 0.14975 0.60492 0.0
C1537 C 0.69715 0.1604 0.55558 0.0
C1538 C 0.67409 0.1901 0.59106 0.0
N1539 N 0.69447 0.19455 0.56688 0.0
C1540 C 0.56349 0.03875 0.55246 0.0
C1541 C 0.58792 0.9966 0.52797 0.0
C1542 C 0.53041 0.02931 0.53337 0.0
N1543 N 0.59083 0.02165 0.54978 0.0
C1544 C 0.55518 0.98625 0.50837 0.0
C1545 C 0.52514 0.00186 0.5112 0.0
H1546 H 0.56543 0.05732 0.5704 0.0
H1547 H 0.60929 0.98253 0.52651 0.0
C1548 C 0.76887 0.08316 0.63585 0.0
N1549 N 0.74705 0.10272 0.62503 0.0
C1550 C 0.8068 0.10745 0.65148 0.0
C1551 C 0.80161 0.17289 0.64297 0.0
C1552 C 0.76294 0.14695 0.62795 0.0
C1553 C 0.82354 0.15299 0.65578 0.0
H1554 H 0.75505 0.04779 0.63383 0.0
H1555 H 0.74479 0.16185 0.61967 0.0
O1556 O 0.58535 0.96945 0.60471 0.0
O1557 O 0.66194 0.01448 0.64126 0.0
O1558 O 0.6813 0.02506 0.57919 0.0
O1559 O 0.63954 0.0747 0.60726 0.0
H1560 H 0.51674 0.98194 0.60966 0.0
H1561 H 0.56583 0.90617 0.56871 0.0
H1562 H 0.44699 0.9417 0.58353 0.0
H1563 H 0.49528 0.8674 0.54317 0.0
H1564 H 0.69461 0.11369 0.70923 0.0
H1565 H 0.68304 0.97358 0.67821 0.0
H1566 H 0.67015 0.08816 0.66231 0.0
H1567 H 0.70717 0.00107 0.7249 0.0
H1568 H 0.59786 0.82699 0.63754 0.0
H1569 H 0.73853 0.92069 0.63639 0.0
H1570 H 0.50929 0.06409 0.66634 0.0
H1571 H 0.51195 0.95671 0.70885 0.0
H1572 H 0.76804 0.05861 0.57774 0.0
H1573 H 0.64294 0.94874 0.55279 0.0
H1574 H 0.8061 0.02295 0.5555 0.0
H1575 H 0.68313 0.91515 0.53081 0.0
H1576 H 0.68088 0.09249 0.55968 0.0
H1577 H 0.63917 0.14621 0.62421 0.0
H1578 H 0.71353 0.16497 0.5363 0.0
H1579 H 0.67252 0.2179 0.59954 0.0
H1580 H 0.50787 0.04172 0.5367 0.0
H1581 H 0.55295 0.96559 0.49144 0.0
H1582 H 0.82143 0.08993 0.66107 0.0
H1583 H 0.81347 0.208 0.64491 0.0
loop_
_geom_bond_atom_site_label_1
_geom_bond_atom_site_label_2
_geom_bond_distance
_geom_bond_site_symmetry_2
_ccdc_geom_bond_type
Li0 N17 1.990 . S
Li0 O60 1.956 . S
Li0 O61 1.970 . S
Li0 O62 1.961 . S
Li1 N25 1.990 . S
Li1 O60 1.970 . S
Li1 O61 1.956 . S
Li1 O63 1.961 1_545 S
Li2 N47 1.990 . S
Li2 O60 1.961 . S
Li2 O62 1.956 . S
Li2 O63 1.970 1_545 S
Li3 N53 1.990 . S
Li3 O61 1.961 1_565 S
Li3 O62 1.970 1_565 S
Li3 O63 1.956 . S
C4 C6 1.348 . S
C4 C7 1.356 . S
C4 O60 1.325 . S
N5 C8 1.314 . S
N5 C9 1.279 . S
C6 C4 1.348 . S
C6 C8 1.353 . S
C6 H64 0.929 . S
C7 C4 1.356 . S
C7 C9 1.358 . S
C7 H65 0.930 . S
C8 N5 1.314 . S
C8 C6 1.353 . S
C8 H66 0.930 . S
C9 N5 1.279 . S
C9 C7 1.358 . S
C9 H67 0.930 . S
C10 C13 1.348 . S
C10 C14 1.356 . S
C10 O61 1.325 . S
C11 N12 1.279 . S
C11 C14 1.358 . S
C11 H68 0.930 1_545 S
N12 C11 1.279 . S
N12 C15 1.314 . S
C13 C10 1.348 . S
C13 C15 1.353 . S
C13 H69 0.929 . S
C14 C10 1.356 . S
C14 C11 1.358 . S
C14 H70 0.930 1_545 S
C15 N12 1.314 . S
C15 C13 1.353 . S
C15 H71 0.930 . S
C16 N17 1.314 1_556 S
C16 C21 1.353 . S
C16 H22 0.930 . S
N17 Li0 1.990 . S
N17 C16 1.314 1_554 S
N17 C19 1.279 . S
C18 C19 1.358 . S
C18 C20 1.356 1_554 S
C18 H72 0.930 . S
C19 N17 1.279 . S
C19 C18 1.358 . S
C19 H23 0.930 . S
C20 C18 1.356 1_556 S
C20 C21 1.348 . S
C21 C16 1.353 . S
C21 C20 1.348 . S
C21 H73 0.929 . S
H22 C16 0.930 . S
H23 C19 0.930 . S
C24 N25 1.314 . S
C24 C26 1.353 . S
C24 H30 0.930 . S
N25 Li1 1.990 . S
N25 C24 1.314 . S
N25 C28 1.279 . S
C26 C24 1.353 . S
C26 C29 1.348 . S
C26 H74 0.929 . S
C27 C28 1.358 . S
C27 C29 1.356 . S
C27 H75 0.930 . S
C28 N25 1.279 . S
C28 C27 1.358 . S
C28 H31 0.930 . S
C29 C26 1.348 . S
C29 C27 1.356 . S
H30 C24 0.930 . S
H31 C28 0.930 . S
C32 C34 1.348 1_545 S
C32 C35 1.356 . S
C32 O62 1.325 1_556 S
N33 C36 1.314 . S
N33 C37 1.279 1_565 S
C34 C32 1.348 1_565 S
C34 C36 1.353 . S
C34 H76 0.929 . S
C35 C32 1.356 . S
C35 C37 1.358 . S
C35 H77 0.930 . S
C36 N33 1.314 . S
C36 C34 1.353 . S
C36 H78 0.930 . S
C37 N33 1.279 1_545 S
C37 C35 1.358 . S
C37 H79 0.930 . S
C38 C39 1.348 . S
C38 C40 1.356 . S
C38 O63 1.325 . S
C39 C38 1.348 . S
C39 C41 1.353 . S
C39 H80 0.929 . S
C40 C38 1.356 . S
C40 C42 1.358 . S
C40 H81 0.930 . S
C41 C39 1.353 . S
C41 N43 1.314 . S
C41 H82 0.930 . S
C42 C40 1.358 . S
C42 N43 1.279 . S
C42 H83 0.930 . S
N43 C41 1.314 . S
N43 C42 1.279 . S
C44 C46 1.353 . S
C44 N47 1.314 . S
C44 H50 0.930 . S
C45 N47 1.279 . S
C45 C48 1.358 . S
C45 H51 0.930 1_545 S
C46 C44 1.353 . S
C46 C49 1.348 . S
C46 H84 0.929 . S
N47 Li2 1.990 . S
N47 C44 1.314 . S
N47 C45 1.279 . S
C48 C45 1.358 . S
C48 C49 1.356 . S
C48 H85 0.930 1_544 S
C49 C46 1.348 . S
C49 C48 1.356 . S
H50 C44 0.930 . S
H51 C45 0.930 1_565 S
C52 N53 1.314 . S
C52 C54 1.353 . S
C52 H58 0.930 . S
N53 Li3 1.990 . S
N53 C52 1.314 . S
N53 C56 1.279 . S
C54 C52 1.353 . S
C54 C57 1.348 . S
C54 H86 0.929 . S
C55 C56 1.358 . S
C55 C57 1.356 . S
C55 H87 0.930 . S
C56 N53 1.279 . S
C56 C55 1.358 . S
C56 H59 0.930 . S
C57 C54 1.348 . S
C57 C55 1.356 . S
H58 C52 0.930 . S
H59 C56 0.930 . S
O60 Li0 1.956 . S
O60 Li1 1.970 . S
O60 Li2 1.961 . S
O60 C4 1.325 . S
O61 Li0 1.970 . S
O61 Li1 1.956 . S
O61 Li3 1.961 1_545 S
O61 C10 1.325 . S
O62 Li0 1.961 . S
O62 Li2 1.956 . S
O62 Li3 1.970 1_545 S
O62 C32 1.325 1_554 S
O63 Li1 1.961 1_565 S
O63 Li2 1.970 1_565 S
O63 Li3 1.956 . S
O63 C38 1.325 . S
H64 C6 0.929 . S
H65 C7 0.930 . S
H66 C8 0.930 . S
H67 C9 0.930 . S
H68 C11 0.930 1_565 S
H69 C13 0.929 . S
H70 C14 0.930 1_565 S
H71 C15 0.930 . S
H72 C18 0.930 . S
H73 C21 0.929 . S
H74 C26 0.929 . S
H75 C27 0.930 . S
H76 C34 0.929 . S
H77 C35 0.930 . S
H78 C36 0.930 . S
H79 C37 0.930 . S
H80 C39 0.929 . S
H81 C40 0.930 . S
H82 C41 0.930 . S
H83 C42 0.930 . S
H84 C46 0.929 . S
H85 C48 0.930 1_566 S
H86 C54 0.929 . S
H87 C55 0.930 . S
Li88 N105 1.990 . S
Li88 O148 1.956 . S
Li88 O149 1.970 1_655 S
Li88 O150 1.961 . S
Li89 N113 1.990 . S
Li89 O148 1.970 1_455 S
Li89 O149 1.956 . S
Li89 O151 1.961 1_455 S
Li90 N135 1.990 . S
Li90 O148 1.961 . S
Li90 O150 1.956 . S
Li90 O151 1.970 . S
Li91 N141 1.990 . S
Li91 O149 1.961 1_655 S
Li91 O150 1.970 . S
Li91 O151 1.956 . S
C92 C94 1.348 1_655 S
C92 C95 1.356 . S
C92 O148 1.325 1_556 S
N93 C96 1.314 . S
N93 C97 1.279 1_455 S
C94 C92 1.348 1_455 S
C94 C96 1.353 . S
C94 H152 0.929 . S
C95 C92 1.356 . S
C95 C97 1.358 . S
C95 H153 0.930 . S
C96 N93 1.314 . S
C96 C94 1.353 . S
C96 H154 0.930 . S
C97 N93 1.279 1_655 S
C97 C95 1.358 . S
C97 H155 0.930 . S
C98 C101 1.348 . S
C98 C102 1.356 . S
C98 O149 1.325 . S
C99 N100 1.279 . S
C99 C102 1.358 . S
C99 H156 0.930 . S
N100 C99 1.279 . S
N100 C103 1.314 . S
C101 C98 1.348 . S
C101 C103 1.353 . S
C101 H157 0.929 . S
C102 C98 1.356 . S
C102 C99 1.358 . S
C102 H158 0.930 . S
C103 N100 1.314 . S
C103 C101 1.353 . S
C103 H159 0.930 . S
C104 N105 1.314 . S
C104 C109 1.353 . S
C104 H110 0.930 . S
N105 Li88 1.990 . S
N105 C104 1.314 . S
N105 C107 1.279 . S
C106 C107 1.358 . S
C106 C108 1.356 . S
C106 H160 0.930 1_654 S
C107 N105 1.279 . S
C107 C106 1.358 . S
C107 H111 0.930 1_655 S
C108 C106 1.356 . S
C108 C109 1.348 . S
C109 C104 1.353 . S
C109 C108 1.348 . S
C109 H161 0.929 . S
H110 C104 0.930 . S
H111 C107 0.930 1_455 S
C112 N113 1.314 . S
C112 C114 1.353 . S
C112 H118 0.930 . S
N113 Li89 1.990 . S
N113 C112 1.314 . S
N113 C116 1.279 . S
C114 C112 1.353 . S
C114 C117 1.348 . S
C114 H162 0.929 . S
C115 C116 1.358 . S
C115 C117 1.356 . S
C115 H163 0.930 . S
C116 N113 1.279 . S
C116 C115 1.358 . S
C116 H119 0.930 . S
C117 C114 1.348 . S
C117 C115 1.356 . S
H118 C112 0.930 . S
H119 C116 0.930 . S
C120 C122 1.348 . S
C120 C123 1.356 . S
C120 O150 1.325 . S
N121 C124 1.314 . S
N121 C125 1.279 . S
C122 C120 1.348 . S
C122 C124 1.353 . S
C122 H164 0.929 . S
C123 C120 1.356 . S
C123 C125 1.358 . S
C123 H165 0.930 . S
C124 N121 1.314 . S
C124 C122 1.353 . S
C124 H166 0.930 . S
C125 N121 1.279 . S
C125 C123 1.358 . S
C125 H167 0.930 . S
C126 C127 1.348 . S
C126 C128 1.356 . S
C126 O151 1.325 . S
C127 C126 1.348 . S
C127 C129 1.353 . S
C127 H168 0.929 . S
C128 C126 1.356 . S
C128 C130 1.358 . S
C128 H169 0.930 1_655 S
C129 C127 1.353 . S
C129 N131 1.314 . S
C129 H170 0.930 . S
C130 C128 1.358 . S
C130 N131 1.279 . S
C130 H171 0.930 1_655 S
N131 C129 1.314 . S
N131 C130 1.279 . S
C132 C134 1.353 . S
C132 N135 1.314 1_556 S
C132 H138 0.930 . S
C133 N135 1.279 . S
C133 C136 1.358 . S
C133 H139 0.930 . S
C134 C132 1.353 . S
C134 C137 1.348 . S
C134 H172 0.929 . S
N135 Li90 1.990 . S
N135 C132 1.314 1_554 S
N135 C133 1.279 . S
C136 C133 1.358 . S
C136 C137 1.356 1_554 S
C136 H173 0.930 . S
C137 C134 1.348 . S
C137 C136 1.356 1_556 S
H138 C132 0.930 . S
H139 C133 0.930 . S
C140 N141 1.314 . S
C140 C142 1.353 . S
C140 H146 0.930 . S
N141 Li91 1.990 . S
N141 C140 1.314 . S
N141 C144 1.279 . S
C142 C140 1.353 . S
C142 C145 1.348 . S
C142 H174 0.929 . S
C143 C144 1.358 . S
C143 C145 1.356 . S
C143 H175 0.930 . S
C144 N141 1.279 . S
C144 C143 1.358 . S
C144 H147 0.930 . S
C145 C142 1.348 . S
C145 C143 1.356 . S
H146 C140 0.930 . S
H147 C144 0.930 . S
O148 Li88 1.956 . S
O148 Li89 1.970 1_655 S
O148 Li90 1.961 . S
O148 C92 1.325 1_554 S
O149 Li88 1.970 1_455 S
O149 Li89 1.956 . S
O149 Li91 1.961 1_455 S
O149 C98 1.325 . S
O150 Li88 1.961 . S
O150 Li90 1.956 . S
O150 Li91 1.970 . S
O150 C120 1.325 . S
O151 Li89 1.961 1_655 S
O151 Li90 1.970 . S
O151 Li91 1.956 . S
O151 C126 1.325 . S
H152 C94 0.929 . S
H153 C95 0.930 . S
H154 C96 0.930 . S
H155 C97 0.930 . S
H156 C99 0.930 . S
H157 C101 0.929 . S
H158 C102 0.930 . S
H159 C103 0.930 . S
H160 C106 0.930 1_456 S
H161 C109 0.929 . S
H162 C114 0.929 . S
H163 C115 0.930 . S
H164 C122 0.929 . S
H165 C123 0.930 . S
H166 C124 0.930 . S
H167 C125 0.930 . S
H168 C127 0.929 . S
H169 C128 0.930 1_455 S
H170 C129 0.930 . S
H171 C130 0.930 1_455 S
H172 C134 0.929 . S
H173 C136 0.930 . S
H174 C142 0.929 . S
H175 C143 0.930 . S
Li176 N193 1.990 . S
Li176 O236 1.956 . S
Li176 O237 1.970 . S
Li176 O238 1.961 . S
Li177 N201 1.990 . S
Li177 O236 1.970 . S
Li177 O237 1.956 . S
Li177 O239 1.961 . S
Li178 N223 1.990 . S
Li178 O236 1.961 . S
Li178 O238 1.956 . S
Li178 O239 1.970 . S
Li179 N229 1.990 . S
Li179 O237 1.961 . S
Li179 O238 1.970 . S
Li179 O239 1.956 . S
C180 C182 1.348 . S
C180 C183 1.356 . S
C180 O236 1.325 . S
N181 C184 1.314 . S
N181 C185 1.279 . S
C182 C180 1.348 . S
C182 C184 1.353 . S
C182 H240 0.929 . S
C183 C180 1.356 . S
C183 C185 1.358 . S
C183 H241 0.930 . S
C184 N181 1.314 . S
C184 C182 1.353 . S
C184 H242 0.930 . S
C185 N181 1.279 . S
C185 C183 1.358 . S
C185 H243 0.930 . S
C186 C189 1.348 . S
C186 C190 1.356 . S
C186 O237 1.325 . S
C187 N188 1.279 . S
C187 C190 1.358 . S
C187 H244 0.930 . S
N188 C187 1.279 . S
N188 C191 1.314 . S
C189 C186 1.348 . S
C189 C191 1.353 . S
C189 H245 0.929 . S
C190 C186 1.356 . S
C190 C187 1.358 . S
C190 H246 0.930 . S
C191 N188 1.314 . S
C191 C189 1.353 . S
C191 H247 0.930 . S
C192 N193 1.314 . S
C192 C197 1.353 . S
C192 H198 0.930 . S
N193 Li176 1.990 . S
N193 C192 1.314 . S
N193 C195 1.279 . S
C194 C195 1.358 . S
C194 C196 1.356 . S
C194 H248 0.930 . S
C195 N193 1.279 . S
C195 C194 1.358 . S
C195 H199 0.930 . S
C196 C194 1.356 . S
C196 C197 1.348 . S
C197 C192 1.353 . S
C197 C196 1.348 . S
C197 H249 0.929 . S
H198 C192 0.930 . S
H199 C195 0.930 . S
C200 N201 1.314 . S
C200 C202 1.353 . S
C200 H206 0.930 . S
N201 Li177 1.990 . S
N201 C200 1.314 . S
N201 C204 1.279 . S
C202 C200 1.353 . S
C202 C205 1.348 . S
C202 H250 0.929 . S
C203 C204 1.358 . S
C203 C205 1.356 . S
C203 H251 0.930 . S
C204 N201 1.279 . S
C204 C203 1.358 . S
C204 H207 0.930 . S
C205 C202 1.348 . S
C205 C203 1.356 . S
H206 C200 0.930 . S
H207 C204 0.930 . S
C208 C210 1.348 . S
C208 C211 1.356 . S
C208 O238 1.325 1_556 S
N209 C212 1.314 . S
N209 C213 1.279 . S
C210 C208 1.348 . S
C210 C212 1.353 . S
C210 H252 0.929 . S
C211 C208 1.356 . S
C211 C213 1.358 . S
C211 H253 0.930 . S
C212 N209 1.314 . S
C212 C210 1.353 . S
C212 H254 0.930 . S
C213 N209 1.279 . S
C213 C211 1.358 . S
C213 H255 0.930 . S
C214 C215 1.348 . S
C214 C216 1.356 . S
C214 O239 1.325 . S
C215 C214 1.348 . S
C215 C217 1.353 . S
C215 H256 0.929 . S
C216 C214 1.356 . S
C216 C218 1.358 . S
C216 H257 0.930 . S
C217 C215 1.353 . S
C217 N219 1.314 . S
C217 H258 0.930 . S
C218 C216 1.358 . S
C218 N219 1.279 . S
C218 H259 0.930 . S
N219 C217 1.314 . S
N219 C218 1.279 . S
C220 C222 1.353 . S
C220 N223 1.314 . S
C220 H226 0.930 . S
C221 N223 1.279 1_556 S
C221 C224 1.358 . S
C221 H227 0.930 . S
C222 C220 1.353 . S
C222 C225 1.348 1_554 S
C222 H260 0.929 . S
N223 Li178 1.990 . S
N223 C220 1.314 . S
N223 C221 1.279 1_554 S
C224 C221 1.358 . S
C224 C225 1.356 . S
C224 H261 0.930 . S
C225 C222 1.348 1_556 S
C225 C224 1.356 . S
H226 C220 0.930 . S
H227 C221 0.930 . S
C228 N229 1.314 . S
C228 C230 1.353 . S
C228 H234 0.930 . S
N229 Li179 1.990 . S
N229 C228 1.314 . S
N229 C232 1.279 . S
C230 C228 1.353 . S
C230 C233 1.348 . S
C230 H262 0.929 . S
C231 C232 1.358 . S
C231 C233 1.356 . S
C231 H263 0.930 . S
C232 N229 1.279 . S
C232 C231 1.358 . S
C232 H235 0.930 . S
C233 C230 1.348 . S
C233 C231 1.356 . S
H234 C228 0.930 . S
H235 C232 0.930 . S
O236 Li176 1.956 . S
O236 Li177 1.970 . S
O236 Li178 1.961 . S
O236 C180 1.325 . S
O237 Li176 1.970 . S
O237 Li177 1.956 . S
O237 Li179 1.961 . S
O237 C186 1.325 . S
O238 Li176 1.961 . S
O238 Li178 1.956 . S
O238 Li179 1.970 . S
O238 C208 1.325 1_554 S
O239 Li177 1.961 . S
O239 Li178 1.970 . S
O239 Li179 1.956 . S
O239 C214 1.325 . S
H240 C182 0.929 . S
H241 C183 0.930 . S
H242 C184 0.930 . S
H243 C185 0.930 . S
H244 C187 0.930 . S
H245 C189 0.929 . S
H246 C190 0.930 . S
H247 C191 0.930 . S
H248 C194 0.930 . S
H249 C197 0.929 . S
H250 C202 0.929 . S
H251 C203 0.930 . S
H252 C210 0.929 . S
H253 C211 0.930 . S
H254 C212 0.930 . S
H255 C213 0.930 . S
H256 C215 0.929 . S
H257 C216 0.930 . S
H258 C217 0.930 . S
H259 C218 0.930 . S
H260 C222 0.929 . S
H261 C224 0.930 . S
H262 C230 0.929 . S
H263 C231 0.930 . S
Li264 N281 1.990 . S
Li264 O324 1.956 1_565 S
Li264 O325 1.970 . S
Li264 O326 1.961 . S
Li265 N289 1.990 . S
Li265 O324 1.970 . S
Li265 O325 1.956 1_545 S
Li265 O327 1.961 1_545 S
Li266 N311 1.990 . S
Li266 O324 1.961 1_565 S
Li266 O326 1.956 . S
Li266 O327 1.970 . S
Li267 N317 1.990 . S
Li267 O325 1.961 . S
Li267 O326 1.970 . S
Li267 O327 1.956 . S
C268 C270 1.348 . S
C268 C271 1.356 . S
C268 O324 1.325 . S
N269 C272 1.314 . S
N269 C273 1.279 . S
C270 C268 1.348 . S
C270 C272 1.353 . S
C270 H328 0.929 . S
C271 C268 1.356 . S
C271 C273 1.358 . S
C271 H329 0.930 1_545 S
C272 N269 1.314 . S
C272 C270 1.353 . S
C272 H330 0.930 . S
C273 N269 1.279 . S
C273 C271 1.358 . S
C273 H331 0.930 . S
C274 C277 1.348 1_565 S
C274 C278 1.356 . S
C274 O325 1.325 1_554 S
C275 N276 1.279 . S
C275 C278 1.358 1_545 S
C275 H332 0.916 1_545 S
N276 C275 1.279 . S
N276 C279 1.314 . S
C277 C274 1.348 1_545 S
C277 C279 1.353 . S
C277 H333 0.929 . S
C278 C274 1.356 . S
C278 C275 1.358 1_565 S
C278 H334 0.930 . S
C279 N276 1.314 . S
C279 C277 1.353 . S
C279 H335 0.930 . S
C280 N281 1.314 . S
C280 C285 1.353 . S
C280 H286 0.930 . S
N281 Li264 1.990 . S
N281 C280 1.314 . S
N281 C283 1.279 1_565 S
C282 C283 1.358 . S
C282 C284 1.356 1_545 S
C282 H336 0.930 . S
C283 N281 1.279 1_545 S
C283 C282 1.358 . S
C283 H287 0.930 . S
C284 C282 1.356 1_565 S
C284 C285 1.348 . S
C285 C280 1.353 . S
C285 C284 1.348 . S
C285 H337 0.929 . S
H286 C280 0.930 . S
H287 C283 0.930 . S
C288 N289 1.314 . S
C288 C290 1.353 . S
C288 H294 0.930 . S
N289 Li265 1.990 . S
N289 C288 1.314 . S
N289 C292 1.279 . S
C290 C288 1.353 . S
C290 C293 1.348 . S
C290 H338 0.929 . S
C291 C292 1.358 . S
C291 C293 1.356 . S
C291 H339 0.930 1_556 S
C292 N289 1.279 . S
C292 C291 1.358 . S
C292 H295 0.930 . S
C293 C290 1.348 . S
C293 C291 1.356 . S
H294 C288 0.930 . S
H295 C292 0.930 . S
C296 C298 1.348 . S
C296 C299 1.356 . S
C296 O326 1.325 . S
N297 C300 1.314 . S
N297 C301 1.279 . S
C298 C296 1.348 . S
C298 C300 1.353 . S
C298 H340 0.929 . S
C299 C296 1.356 . S
C299 C301 1.358 . S
C299 H341 0.930 . S
C300 N297 1.314 . S
C300 C298 1.353 . S
C300 H342 0.930 . S
C301 N297 1.279 . S
C301 C299 1.358 . S
C301 H343 0.930 . S
C302 C303 1.348 . S
C302 C304 1.356 . S
C302 O327 1.325 . S
C303 C302 1.348 . S
C303 C305 1.353 . S
C303 H344 0.929 . S
C304 C302 1.356 . S
C304 C306 1.358 . S
C304 H345 0.930 . S
C305 C303 1.353 . S
C305 N307 1.314 . S
C305 H346 0.930 . S
C306 C304 1.358 . S
C306 N307 1.279 . S
C306 H347 0.930 . S
N307 C305 1.314 . S
N307 C306 1.279 . S
C308 C310 1.353 . S
C308 N311 1.314 . S
C308 H314 0.930 . S
C309 N311 1.279 . S
C309 C312 1.358 . S
C309 H315 0.930 . S
C310 C308 1.353 . S
C310 C313 1.348 . S
C310 H348 0.929 . S
N311 Li266 1.990 . S
N311 C308 1.314 . S
N311 C309 1.279 . S
C312 C309 1.358 . S
C312 C313 1.356 . S
C312 H349 0.930 . S
C313 C310 1.348 . S
C313 C312 1.356 . S
H314 C308 0.930 . S
H315 C309 0.930 . S
C316 N317 1.314 1_554 S
C316 C318 1.353 . S
C316 H322 0.930 . S
N317 Li267 1.990 . S
N317 C316 1.314 1_556 S
N317 C320 1.279 . S
C318 C316 1.353 . S
C318 C321 1.348 . S
C318 H350 0.929 . S
C319 C320 1.358 . S
C319 C321 1.356 1_556 S
C319 H351 0.930 . S
C320 N317 1.279 . S
C320 C319 1.358 . S
C320 H323 0.930 . S
C321 C318 1.348 . S
C321 C319 1.356 1_554 S
H322 C316 0.930 . S
H323 C320 0.930 . S
O324 Li264 1.956 1_545 S
O324 Li265 1.970 . S
O324 Li266 1.961 1_545 S
O324 C268 1.325 . S
O325 Li264 1.970 . S
O325 Li265 1.956 1_565 S
O325 Li267 1.961 . S
O325 C274 1.325 1_556 S
O326 Li264 1.961 . S
O326 Li266 1.956 . S
O326 Li267 1.970 . S
O326 C296 1.325 . S
O327 Li265 1.961 1_565 S
O327 Li266 1.970 . S
O327 Li267 1.956 . S
O327 C302 1.325 . S
H328 C270 0.929 . S
H329 C271 0.930 1_565 S
H330 C272 0.930 . S
H331 C273 0.930 . S
H332 C275 0.916 1_565 S
H333 C277 0.929 . S
H334 C278 0.930 . S
H335 C279 0.930 . S
H336 C282 0.930 . S
H337 C285 0.929 . S
H338 C290 0.929 . S
H339 C291 0.930 1_554 S
H340 C298 0.929 . S
H341 C299 0.930 . S
H342 C300 0.930 . S
H343 C301 0.930 . S
H344 C303 0.929 . S
H345 C304 0.930 . S
H346 C305 0.930 . S
H347 C306 0.930 . S
H348 C310 0.929 . S
H349 C312 0.930 . S
H350 C318 0.929 . S
H351 C319 0.930 . S
Li352 N369 1.990 . S
Li352 O412 1.956 . S
Li352 O413 1.970 . S
Li352 O414 1.961 1_455 S
Li353 N377 1.990 . S
Li353 O412 1.970 . S
Li353 O413 1.956 . S
Li353 O415 1.961 . S
Li354 N399 1.990 . S
Li354 O412 1.961 . S
Li354 O414 1.956 1_455 S
Li354 O415 1.970 . S
Li355 N405 1.990 . S
Li355 O413 1.961 1_655 S
Li355 O414 1.970 . S
Li355 O415 1.956 1_655 S
C356 C358 1.348 . S
C356 C359 1.356 . S
C356 O412 1.325 . S
N357 C360 1.314 . S
N357 C361 1.279 . S
C358 C356 1.348 . S
C358 C360 1.353 . S
C358 H416 0.929 . S
C359 C356 1.356 . S
C359 C361 1.358 . S
C359 H417 0.930 . S
C360 N357 1.314 . S
C360 C358 1.353 . S
C360 H418 0.930 . S
C361 N357 1.279 . S
C361 C359 1.358 . S
C361 H419 0.930 . S
C362 C365 1.348 . S
C362 C366 1.356 . S
C362 O413 1.325 . S
C363 N364 1.279 . S
C363 C366 1.358 . S
C363 H420 0.930 . S
N364 C363 1.279 . S
N364 C367 1.314 . S
C365 C362 1.348 . S
C365 C367 1.353 . S
C365 H421 0.929 . S
C366 C362 1.356 . S
C366 C363 1.358 . S
C366 H422 0.930 . S
C367 N364 1.314 . S
C367 C365 1.353 . S
C367 H423 0.930 . S
C368 N369 1.314 . S
C368 C373 1.353 . S
C368 H374 0.930 . S
N369 Li352 1.990 . S
N369 C368 1.314 . S
N369 C371 1.279 . S
C370 C371 1.358 . S
C370 C372 1.356 . S
C370 H424 0.930 . S
C371 N369 1.279 . S
C371 C370 1.358 . S
C371 H375 0.930 . S
C372 C370 1.356 . S
C372 C373 1.348 . S
C373 C368 1.353 . S
C373 C372 1.348 . S
C373 H425 0.929 . S
H374 C368 0.930 . S
H375 C371 0.930 . S
C376 N377 1.314 1_554 S
C376 C378 1.353 . S
C376 H382 0.930 . S
N377 Li353 1.990 . S
N377 C376 1.314 1_556 S
N377 C380 1.279 . S
C378 C376 1.353 . S
C378 C381 1.348 . S
C378 H426 0.929 . S
C379 C380 1.358 . S
C379 C381 1.356 1_556 S
C379 H427 0.930 . S
C380 N377 1.279 . S
C380 C379 1.358 . S
C380 H383 0.930 . S
C381 C378 1.348 . S
C381 C379 1.356 1_554 S
H382 C376 0.930 . S
H383 C380 0.930 . S
C384 C386 1.348 . S
C384 C387 1.356 . S
C384 O414 1.325 . S
N385 C388 1.314 . S
N385 C389 1.279 . S
C386 C384 1.348 . S
C386 C388 1.353 . S
C386 H428 0.929 . S
C387 C384 1.356 . S
C387 C389 1.358 . S
C387 H429 0.906 1_655 S
C388 N385 1.314 . S
C388 C386 1.353 . S
C388 H430 0.930 . S
C389 N385 1.279 . S
C389 C387 1.358 . S
C389 H431 0.930 . S
C390 C391 1.348 1_455 S
C390 C392 1.356 . S
C390 O415 1.325 1_554 S
C391 C390 1.348 1_655 S
C391 C393 1.353 . S
C391 H432 0.929 . S
C392 C390 1.356 . S
C392 C394 1.358 1_455 S
C392 H433 0.930 . S
C393 C391 1.353 . S
C393 N395 1.314 . S
C393 H434 0.930 . S
C394 C392 1.358 1_655 S
C394 N395 1.279 . S
C394 H435 0.927 . S
N395 C393 1.314 . S
N395 C394 1.279 . S
C396 C398 1.353 . S
C396 N399 1.314 . S
C396 H402 0.930 . S
C397 N399 1.279 1_655 S
C397 C400 1.358 . S
C397 H403 0.930 . S
C398 C396 1.353 . S
C398 C401 1.348 . S
C398 H436 0.929 . S
N399 Li354 1.990 . S
N399 C396 1.314 . S
N399 C397 1.279 1_455 S
C400 C397 1.358 . S
C400 C401 1.356 1_655 S
C400 H437 0.930 . S
C401 C398 1.348 . S
C401 C400 1.356 1_455 S
H402 C396 0.930 . S
H403 C397 0.930 . S
C404 N405 1.314 . S
C404 C406 1.353 . S
C404 H410 0.930 . S
N405 Li355 1.990 . S
N405 C404 1.314 . S
N405 C408 1.279 . S
C406 C404 1.353 . S
C406 C409 1.348 . S
C406 H438 0.929 . S
C407 C408 1.358 . S
C407 C409 1.356 . S
C407 H439 0.930 1_556 S
C408 N405 1.279 . S
C408 C407 1.358 . S
C408 H411 0.930 . S
C409 C406 1.348 . S
C409 C407 1.356 . S
H410 C404 0.930 . S
H411 C408 0.930 . S
O412 Li352 1.956 . S
O412 Li353 1.970 . S
O412 Li354 1.961 . S
O412 C356 1.325 . S
O413 Li352 1.970 . S
O413 Li353 1.956 . S
O413 Li355 1.961 1_455 S
O413 C362 1.325 . S
O414 Li352 1.961 1_655 S
O414 Li354 1.956 1_655 S
O414 Li355 1.970 . S
O414 C384 1.325 . S
O415 Li353 1.961 . S
O415 Li354 1.970 . S
O415 Li355 1.956 1_455 S
O415 C390 1.325 1_556 S
H416 C358 0.929 . S
H417 C359 0.930 . S
H418 C360 0.930 . S
H419 C361 0.930 . S
H420 C363 0.930 . S
H421 C365 0.929 . S
H422 C366 0.930 . S
H423 C367 0.930 . S
H424 C370 0.930 . S
H425 C373 0.929 . S
H426 C378 0.929 . S
H427 C379 0.930 . S
H428 C386 0.929 . S
H429 C387 0.906 1_455 S
H430 C388 0.930 . S
H431 C389 0.930 . S
H432 C391 0.929 . S
H433 C392 0.930 . S
H434 C393 0.930 . S
H435 C394 0.927 . S
H436 C398 0.929 . S
H437 C400 0.930 . S
H438 C406 0.929 . S
H439 C407 0.930 1_554 S
Li440 N457 1.990 . S
Li440 O500 1.956 . S
Li440 O501 1.970 . S
Li440 O502 1.961 . S
Li441 N465 1.990 . S
Li441 O500 1.970 . S
Li441 O501 1.956 . S
Li441 O503 1.961 . S
Li442 N487 1.990 . S
Li442 O500 1.961 . S
Li442 O502 1.956 . S
Li442 O503 1.970 . S
Li443 N493 1.990 . S
Li443 O501 1.961 . S
Li443 O502 1.970 . S
Li443 O503 1.956 . S
C444 C446 1.348 . S
C444 C447 1.356 . S
C444 O500 1.325 1_554 S
N445 C448 1.314 . S
N445 C449 1.279 . S
C446 C444 1.348 . S
C446 C448 1.353 . S
C446 H504 0.929 . S
C447 C444 1.356 . S
C447 C449 1.358 . S
C447 H505 0.930 . S
C448 N445 1.314 . S
C448 C446 1.353 . S
C448 H506 0.930 . S
C449 N445 1.279 . S
C449 C447 1.358 . S
C449 H507 0.930 . S
C450 C453 1.348 . S
C450 C454 1.356 . S
C450 O501 1.325 . S
C451 N452 1.279 . S
C451 C454 1.358 . S
C451 H508 0.930 . S
N452 C451 1.279 . S
N452 C455 1.314 . S
C453 C450 1.348 . S
C453 C455 1.353 . S
C453 H509 0.929 . S
C454 C450 1.356 . S
C454 C451 1.358 . S
C454 H510 0.930 . S
C455 N452 1.314 . S
C455 C453 1.353 . S
C455 H511 0.930 . S
C456 N457 1.314 . S
C456 C461 1.353 . S
C456 H462 0.930 . S
N457 Li440 1.990 . S
N457 C456 1.314 . S
N457 C459 1.279 1_556 S
C458 C459 1.358 . S
C458 C460 1.356 . S
C458 H512 0.930 . S
C459 N457 1.279 1_554 S
C459 C458 1.358 . S
C459 H463 0.930 . S
C460 C458 1.356 . S
C460 C461 1.348 1_554 S
C461 C456 1.353 . S
C461 C460 1.348 1_556 S
C461 H513 0.929 . S
H462 C456 0.930 . S
H463 C459 0.930 . S
C464 N465 1.314 . S
C464 C466 1.353 . S
C464 H470 0.930 . S
N465 Li441 1.990 . S
N465 C464 1.314 . S
N465 C468 1.279 . S
C466 C464 1.353 . S
C466 C469 1.348 . S
C466 H514 0.929 . S
C467 C468 1.358 . S
C467 C469 1.356 . S
C467 H515 0.930 . S
C468 N465 1.279 . S
C468 C467 1.358 . S
C468 H471 0.930 . S
C469 C466 1.348 . S
C469 C467 1.356 . S
H470 C464 0.930 . S
H471 C468 0.930 . S
C472 C474 1.348 . S
C472 C475 1.356 . S
C472 O502 1.325 . S
N473 C476 1.314 . S
N473 C477 1.279 . S
C474 C472 1.348 . S
C474 C476 1.353 . S
C474 H516 0.929 . S
C475 C472 1.356 . S
C475 C477 1.358 . S
C475 H517 0.930 . S
C476 N473 1.314 . S
C476 C474 1.353 . S
C476 H518 0.930 . S
C477 N473 1.279 . S
C477 C475 1.358 . S
C477 H519 0.930 . S
C478 C479 1.348 . S
C478 C480 1.356 . S
C478 O503 1.325 . S
C479 C478 1.348 . S
C479 C481 1.353 . S
C479 H520 0.929 . S
C480 C478 1.356 . S
C480 C482 1.358 . S
C480 H521 0.930 . S
C481 C479 1.353 . S
C481 N483 1.314 . S
C481 H522 0.930 . S
C482 C480 1.358 . S
C482 N483 1.279 . S
C482 H523 0.930 . S
N483 C481 1.314 . S
N483 C482 1.279 . S
C484 C486 1.353 . S
C484 N487 1.314 . S
C484 H490 0.930 . S
C485 N487 1.279 . S
C485 C488 1.358 . S
C485 H491 0.930 . S
C486 C484 1.353 . S
C486 C489 1.348 . S
C486 H524 0.929 . S
N487 Li442 1.990 . S
N487 C484 1.314 . S
N487 C485 1.279 . S
C488 C485 1.358 . S
C488 C489 1.356 . S
C488 H525 0.930 . S
C489 C486 1.348 . S
C489 C488 1.356 . S
H490 C484 0.930 . S
H491 C485 0.930 . S
C492 N493 1.314 . S
C492 C494 1.353 . S
C492 H498 0.930 . S
N493 Li443 1.990 . S
N493 C492 1.314 . S
N493 C496 1.279 . S
C494 C492 1.353 . S
C494 C497 1.348 . S
C494 H526 0.929 . S
C495 C496 1.358 . S
C495 C497 1.356 . S
C495 H527 0.930 . S
C496 N493 1.279 . S
C496 C495 1.358 . S
C496 H499 0.930 . S
C497 C494 1.348 . S
C497 C495 1.356 . S
H498 C492 0.930 . S
H499 C496 0.930 . S
O500 Li440 1.956 . S
O500 Li441 1.970 . S
O500 Li442 1.961 . S
O500 C444 1.325 1_556 S
O501 Li440 1.970 . S
O501 Li441 1.956 . S
O501 Li443 1.961 . S
O501 C450 1.325 . S
O502 Li440 1.961 . S
O502 Li442 1.956 . S
O502 Li443 1.970 . S
O502 C472 1.325 . S
O503 Li441 1.961 . S
O503 Li442 1.970 . S
O503 Li443 1.956 . S
O503 C478 1.325 . S
H504 C446 0.929 . S
H505 C447 0.930 . S
H506 C448 0.930 . S
H507 C449 0.930 . S
H508 C451 0.930 . S
H509 C453 0.929 . S
H510 C454 0.930 . S
H511 C455 0.930 . S
H512 C458 0.930 . S
H513 C461 0.929 . S
H514 C466 0.929 . S
H515 C467 0.930 . S
H516 C474 0.929 . S
H517 C475 0.930 . S
H518 C476 0.930 . S
H519 C477 0.930 . S
H520 C479 0.929 . S
H521 C480 0.930 . S
H522 C481 0.930 . S
H523 C482 0.930 . S
H524 C486 0.929 . S
H525 C488 0.930 . S
H526 C494 0.929 . S
H527 C495 0.930 . S
Li528 N545 1.981 . S
Li528 O588 1.974 . S
Li528 O589 1.957 1_455 S
Li528 O590 1.971 1_455 S
Li529 N553 1.990 . S
Li529 O588 1.970 1_655 S
Li529 O589 1.956 . S
Li529 O591 1.961 1_655 S
Li530 N575 1.990 . S
Li530 O588 1.961 . S
Li530 O590 1.956 1_455 S
Li530 O591 1.970 . S
Li531 N581 1.990 . S
Li531 O589 1.961 . S
Li531 O590 1.970 . S
Li531 O591 1.956 1_655 S
C532 C534 1.348 . S
C532 C535 1.356 . S
C532 O588 1.325 . S
N533 C536 1.314 . S
N533 C537 1.279 . S
C534 C532 1.348 . S
C534 C536 1.353 . S
C534 H592 0.929 . S
C535 C532 1.356 . S
C535 C537 1.358 . S
C535 H593 0.930 . S
C536 N533 1.314 . S
C536 C534 1.353 . S
C536 H594 0.930 . S
C537 N533 1.279 . S
C537 C535 1.358 . S
C537 H595 0.930 . S
C538 C541 1.348 . S
C538 C542 1.356 . S
C538 O589 1.325 . S
C539 N540 1.279 . S
C539 C542 1.358 . S
C539 H596 0.930 . S
N540 C539 1.279 . S
N540 C543 1.314 . S
C541 C538 1.348 . S
C541 C543 1.353 . S
C541 H597 0.929 . S
C542 C538 1.356 . S
C542 C539 1.358 . S
C542 H598 0.930 . S
C543 N540 1.314 . S
C543 C541 1.353 . S
C543 H599 0.930 . S
C544 N545 1.314 1_655 S
C544 C549 1.353 . S
C544 H550 0.930 . S
N545 Li528 1.981 . S
N545 C544 1.314 1_455 S
N545 C547 1.279 . S
C546 C547 1.358 . S
C546 C548 1.356 1_455 S
C546 H600 0.930 . S
C547 N545 1.279 . S
C547 C546 1.358 . S
C547 H551 0.930 . S
C548 C546 1.356 1_655 S
C548 C549 1.348 . S
C549 C544 1.353 . S
C549 C548 1.348 . S
C549 H601 0.929 . S
H550 C544 0.930 . S
H551 C547 0.930 . S
C552 N553 1.314 1_455 S
C552 C554 1.353 . S
C552 H558 0.930 . S
N553 Li529 1.990 . S
N553 C552 1.314 1_655 S
N553 C556 1.279 . S
C554 C552 1.353 . S
C554 C557 1.348 . S
C554 H602 0.929 . S
C555 C556 1.358 . S
C555 C557 1.356 1_655 S
C555 H603 0.930 . S
C556 N553 1.279 . S
C556 C555 1.358 . S
C556 H559 0.930 . S
C557 C554 1.348 . S
C557 C555 1.356 1_455 S
H558 C552 0.930 . S
H559 C556 0.930 . S
C560 C562 1.349 . S
C560 C563 1.349 1_655 S
C560 O590 1.329 . S
N561 C564 1.314 1_455 S
N561 C565 1.279 . S
C562 C560 1.349 . S
C562 C564 1.353 . S
C562 H604 0.929 . S
C563 C560 1.349 1_455 S
C563 C565 1.358 . S
C563 H605 0.930 . S
C564 N561 1.314 1_655 S
C564 C562 1.353 . S
C564 H606 0.930 . S
C565 N561 1.279 . S
C565 C563 1.358 . S
C565 H607 0.930 . S
C566 C567 1.348 . S
C566 C568 1.356 1_455 S
C566 O591 1.325 . S
C567 C566 1.348 . S
C567 C569 1.353 . S
C567 H608 0.929 . S
C568 C566 1.356 1_655 S
C568 C570 1.358 . S
C568 H609 0.930 . S
C569 C567 1.353 . S
C569 N571 1.307 1_455 S
C569 H610 0.930 . S
C570 C568 1.358 . S
C570 N571 1.294 . S
C570 H611 0.930 . S
N571 C569 1.307 1_655 S
N571 C570 1.294 . S
C572 C574 1.353 . S
C572 N575 1.314 . S
C572 H578 0.930 . S
C573 N575 1.279 . S
C573 C576 1.358 . S
C573 H579 0.930 . S
C574 C572 1.353 . S
C574 C577 1.348 . S
C574 H612 0.929 . S
N575 Li530 1.990 . S
N575 C572 1.314 . S
N575 C573 1.279 . S
C576 C573 1.358 . S
C576 C577 1.356 . S
C576 H613 0.930 . S
C577 C574 1.348 . S
C577 C576 1.356 . S
H578 C572 0.930 . S
H579 C573 0.930 . S
C580 N581 1.314 . S
C580 C582 1.353 . S
C580 H586 0.930 . S
N581 Li531 1.990 . S
N581 C580 1.314 . S
N581 C584 1.279 . S
C582 C580 1.353 . S
C582 C585 1.348 . S
C582 H614 0.929 . S
C583 C584 1.358 . S
C583 C585 1.356 . S
C583 H615 0.930 . S
C584 N581 1.279 . S
C584 C583 1.358 . S
C584 H587 0.930 . S
C585 C582 1.348 . S
C585 C583 1.356 . S
H586 C580 0.930 . S
H587 C584 0.930 . S
O588 Li528 1.974 . S
O588 Li529 1.970 1_455 S
O588 Li530 1.961 . S
O588 C532 1.325 . S
O589 Li528 1.957 1_655 S
O589 Li529 1.956 . S
O589 Li531 1.961 . S
O589 C538 1.325 . S
O590 Li528 1.971 1_655 S
O590 Li530 1.956 1_655 S
O590 Li531 1.970 . S
O590 C560 1.329 . S
O591 Li529 1.961 1_455 S
O591 Li530 1.970 . S
O591 Li531 1.956 1_455 S
O591 C566 1.325 . S
H592 C534 0.929 . S
H593 C535 0.930 . S
H594 C536 0.930 . S
H595 C537 0.930 . S
H596 C539 0.930 . S
H597 C541 0.929 . S
H598 C542 0.930 . S
H599 C543 0.930 . S
H600 C546 0.930 . S
H601 C549 0.929 . S
H602 C554 0.929 . S
H603 C555 0.930 . S
H604 C562 0.929 . S
H605 C563 0.930 . S
H606 C564 0.930 . S
H607 C565 0.930 . S
H608 C567 0.929 . S
H609 C568 0.930 . S
H610 C569 0.930 . S
H611 C570 0.930 . S
H612 C574 0.929 . S
H613 C576 0.930 . S
H614 C582 0.929 . S
H615 C583 0.930 . S
Li616 N633 1.990 . S
Li616 O676 1.956 . S
Li616 O677 1.970 . S
Li616 O678 1.961 . S
Li617 N641 1.990 . S
Li617 O676 1.970 . S
Li617 O677 1.956 . S
Li617 O679 1.961 . S
Li618 N663 1.990 . S
Li618 O676 1.961 . S
Li618 O678 1.956 . S
Li618 O679 1.970 . S
Li619 N669 1.990 . S
Li619 O677 1.961 . S
Li619 O678 1.970 . S
Li619 O679 1.956 . S
C620 C622 1.348 . S
C620 C623 1.356 . S
C620 O676 1.325 . S
N621 C624 1.314 . S
N621 C625 1.279 . S
C622 C620 1.348 . S
C622 C624 1.353 . S
C622 H680 0.929 . S
C623 C620 1.356 . S
C623 C625 1.358 . S
C623 H681 0.930 . S
C624 N621 1.314 . S
C624 C622 1.353 . S
C624 H682 0.930 . S
C625 N621 1.279 . S
C625 C623 1.358 . S
C625 H683 0.930 . S
C626 C629 1.348 . S
C626 C630 1.356 . S
C626 O677 1.325 . S
C627 N628 1.279 . S
C627 C630 1.358 . S
C627 H684 0.930 . S
N628 C627 1.279 . S
N628 C631 1.314 . S
C629 C626 1.348 . S
C629 C631 1.353 . S
C629 H685 0.929 . S
C630 C626 1.356 . S
C630 C627 1.358 . S
C630 H686 0.930 . S
C631 N628 1.314 . S
C631 C629 1.353 . S
C631 H687 0.930 . S
C632 N633 1.314 . S
C632 C637 1.353 . S
C632 H638 0.930 . S
N633 Li616 1.990 . S
N633 C632 1.314 . S
N633 C635 1.279 . S
C634 C635 1.358 . S
C634 C636 1.356 . S
C634 H688 0.930 . S
C635 N633 1.279 . S
C635 C634 1.358 . S
C635 H639 0.930 . S
C636 C634 1.356 . S
C636 C637 1.348 . S
C637 C632 1.353 . S
C637 C636 1.348 . S
C637 H689 0.929 . S
H638 C632 0.930 . S
H639 C635 0.930 . S
C640 N641 1.314 . S
C640 C642 1.353 . S
C640 H646 0.930 . S
N641 Li617 1.990 . S
N641 C640 1.314 . S
N641 C644 1.279 . S
C642 C640 1.353 . S
C642 C645 1.348 . S
C642 H690 0.929 . S
C643 C644 1.358 . S
C643 C645 1.356 . S
C643 H691 0.930 . S
C644 N641 1.279 . S
C644 C643 1.358 . S
C644 H647 0.930 . S
C645 C642 1.348 . S
C645 C643 1.356 . S
H646 C640 0.930 . S
H647 C644 0.930 . S
C648 C650 1.348 . S
C648 C651 1.356 . S
C648 O678 1.325 . S
N649 C652 1.314 . S
N649 C653 1.279 . S
C650 C648 1.348 . S
C650 C652 1.353 . S
C650 H692 0.929 . S
C651 C648 1.356 . S
C651 C653 1.358 . S
C651 H693 0.930 . S
C652 N649 1.314 . S
C652 C650 1.353 . S
C652 H694 0.930 . S
C653 N649 1.279 . S
C653 C651 1.358 . S
C653 H695 0.930 . S
C654 C655 1.348 . S
C654 C656 1.356 . S
C654 O679 1.325 . S
C655 C654 1.348 . S
C655 C657 1.353 . S
C655 H696 0.929 . S
C656 C654 1.356 . S
C656 C658 1.358 . S
C656 H697 0.930 . S
C657 C655 1.353 . S
C657 N659 1.314 . S
C657 H698 0.930 . S
C658 C656 1.358 . S
C658 N659 1.279 . S
C658 H699 0.930 . S
N659 C657 1.314 . S
N659 C658 1.279 . S
C660 C662 1.353 . S
C660 N663 1.314 . S
C660 H666 0.930 . S
C661 N663 1.279 . S
C661 C664 1.358 . S
C661 H667 0.930 . S
C662 C660 1.353 . S
C662 C665 1.348 . S
C662 H700 0.929 . S
N663 Li618 1.990 . S
N663 C660 1.314 . S
N663 C661 1.279 . S
C664 C661 1.358 . S
C664 C665 1.356 . S
C664 H701 0.930 . S
C665 C662 1.348 . S
C665 C664 1.356 . S
H666 C660 0.930 . S
H667 C661 0.930 . S
C668 N669 1.314 . S
C668 C670 1.353 . S
C668 H674 0.930 . S
N669 Li619 1.990 . S
N669 C668 1.314 . S
N669 C672 1.279 . S
C670 C668 1.353 . S
C670 C673 1.348 . S
C670 H702 0.929 . S
C671 C672 1.358 . S
C671 C673 1.356 . S
C671 H703 0.930 . S
C672 N669 1.279 . S
C672 C671 1.358 . S
C672 H675 0.930 . S
C673 C670 1.348 . S
C673 C671 1.356 . S
H674 C668 0.930 . S
H675 C672 0.930 . S
O676 Li616 1.956 . S
O676 Li617 1.970 . S
O676 Li618 1.961 . S
O676 C620 1.325 . S
O677 Li616 1.970 . S
O677 Li617 1.956 . S
O677 Li619 1.961 . S
O677 C626 1.325 . S
O678 Li616 1.961 . S
O678 Li618 1.956 . S
O678 Li619 1.970 . S
O678 C648 1.325 . S
O679 Li617 1.961 . S
O679 Li618 1.970 . S
O679 Li619 1.956 . S
O679 C654 1.325 . S
H680 C622 0.929 . S
H681 C623 0.930 . S
H682 C624 0.930 . S
H683 C625 0.930 . S
H684 C627 0.930 . S
H685 C629 0.929 . S
H686 C630 0.930 . S
H687 C631 0.930 . S
H688 C634 0.930 . S
H689 C637 0.929 . S
H690 C642 0.929 . S
H691 C643 0.930 . S
H692 C650 0.929 . S
H693 C651 0.930 . S
H694 C652 0.930 . S
H695 C653 0.930 . S
H696 C655 0.929 . S
H697 C656 0.930 . S
H698 C657 0.930 . S
H699 C658 0.930 . S
H700 C662 0.929 . S
H701 C664 0.930 . S
H702 C670 0.929 . S
H703 C671 0.930 . S
Li704 N721 1.990 . S
Li704 O764 1.956 . S
Li704 O765 1.957 1_545 S
Li704 O766 1.961 . S
Li705 N729 1.990 . S
Li705 O764 1.970 1_565 S
Li705 O765 1.971 . S
Li705 O767 1.961 . S
Li706 N751 1.990 . S
Li706 O764 1.961 . S
Li706 O766 1.956 . S
Li706 O767 1.970 1_545 S
Li707 N757 1.990 . S
Li707 O765 1.984 . S
Li707 O766 1.971 1_565 S
Li707 O767 1.956 . S
C708 C710 1.348 . S
C708 C711 1.356 . S
C708 O764 1.325 . S
N709 C712 1.314 . S
N709 C713 1.279 . S
C710 C708 1.348 . S
C710 C712 1.353 . S
C710 H768 0.929 . S
C711 C708 1.356 . S
C711 C713 1.358 . S
C711 H769 0.930 . S
C712 N709 1.314 . S
C712 C710 1.353 . S
C712 H770 0.930 . S
C713 N709 1.279 . S
C713 C711 1.358 . S
C713 H771 0.930 . S
C714 C717 1.348 1_565 S
C714 C718 1.356 . S
C714 O765 1.314 . S
C715 N716 1.279 . S
C715 C718 1.358 . S
C715 H772 0.930 . S
N716 C715 1.279 . S
N716 C719 1.314 1_565 S
C717 C714 1.348 1_545 S
C717 C719 1.353 . S
C717 H773 0.929 . S
C718 C714 1.356 . S
C718 C715 1.358 . S
C718 H774 0.930 . S
C719 N716 1.314 1_545 S
C719 C717 1.353 . S
C719 H775 0.930 . S
C720 N721 1.314 . S
C720 C725 1.353 . S
C720 H726 0.930 . S
N721 Li704 1.990 . S
N721 C720 1.314 . S
N721 C723 1.279 . S
C722 C723 1.358 . S
C722 C724 1.356 . S
C722 H776 0.930 . S
C723 N721 1.279 . S
C723 C722 1.358 . S
C723 H727 0.930 . S
C724 C722 1.356 . S
C724 C725 1.348 . S
C725 C720 1.353 . S
C725 C724 1.348 . S
C725 H777 0.929 . S
H726 C720 0.930 . S
H727 C723 0.930 . S
C728 N729 1.314 . S
C728 C730 1.353 . S
C728 H734 0.930 . S
N729 Li705 1.990 . S
N729 C728 1.314 . S
N729 C732 1.279 1_565 S
C730 C728 1.353 . S
C730 C733 1.348 . S
C730 H778 0.929 . S
C731 C732 1.358 . S
C731 C733 1.356 1_545 S
C731 H779 0.930 . S
C732 N729 1.279 1_545 S
C732 C731 1.358 . S
C732 H735 0.930 . S
C733 C730 1.348 . S
C733 C731 1.356 1_565 S
H734 C728 0.930 . S
H735 C732 0.930 . S
C736 C738 1.348 1_545 S
C736 C739 1.356 . S
C736 O766 1.325 . S
N737 C740 1.314 1_545 S
N737 C741 1.279 . S
C738 C736 1.348 1_565 S
C738 C740 1.353 . S
C738 H780 0.929 . S
C739 C736 1.356 . S
C739 C741 1.358 . S
C739 H781 0.930 . S
C740 N737 1.314 1_565 S
C740 C738 1.353 . S
C740 H782 0.930 . S
C741 N737 1.279 . S
C741 C739 1.358 . S
C741 H783 0.930 . S
C742 C743 1.348 . S
C742 C744 1.356 . S
C742 O767 1.325 . S
C743 C742 1.348 . S
C743 C745 1.353 . S
C743 H784 0.929 . S
C744 C742 1.356 . S
C744 C746 1.358 . S
C744 H785 0.930 . S
C745 C743 1.353 . S
C745 N747 1.314 . S
C745 H786 0.930 . S
C746 C744 1.358 . S
C746 N747 1.279 . S
C746 H787 0.930 . S
N747 C745 1.314 . S
N747 C746 1.279 . S
C748 C750 1.353 . S
C748 N751 1.314 . S
C748 H754 0.930 . S
C749 N751 1.279 1_565 S
C749 C752 1.358 . S
C749 H755 0.930 . S
C750 C748 1.353 . S
C750 C753 1.348 . S
C750 H788 0.929 . S
N751 Li706 1.990 . S
N751 C748 1.314 . S
N751 C749 1.279 1_545 S
C752 C749 1.358 . S
C752 C753 1.356 1_565 S
C752 H789 0.930 . S
C753 C750 1.348 . S
C753 C752 1.356 1_545 S
H754 C748 0.930 . S
H755 C749 0.930 . S
C756 N757 1.314 . S
C756 C758 1.353 . S
C756 H762 0.930 . S
N757 Li707 1.990 . S
N757 C756 1.314 . S
N757 C760 1.279 . S
C758 C756 1.353 . S
C758 C761 1.348 . S
C758 H790 0.929 . S
C759 C760 1.358 . S
C759 C761 1.356 . S
C759 H791 0.930 . S
C760 N757 1.279 . S
C760 C759 1.358 . S
C760 H763 0.930 . S
C761 C758 1.348 . S
C761 C759 1.356 . S
H762 C756 0.930 . S
H763 C760 0.930 . S
O764 Li704 1.956 . S
O764 Li705 1.970 1_545 S
O764 Li706 1.961 . S
O764 C708 1.325 . S
O765 Li704 1.957 1_565 S
O765 Li705 1.971 . S
O765 Li707 1.984 . S
O765 C714 1.314 . S
O766 Li704 1.961 . S
O766 Li706 1.956 . S
O766 Li707 1.971 1_545 S
O766 C736 1.325 . S
O767 Li705 1.961 . S
O767 Li706 1.970 1_565 S
O767 Li707 1.956 . S
O767 C742 1.325 . S
H768 C710 0.929 . S
H769 C711 0.930 . S
H770 C712 0.930 . S
H771 C713 0.930 . S
H772 C715 0.930 . S
H773 C717 0.929 . S
H774 C718 0.930 . S
H775 C719 0.930 . S
H776 C722 0.930 . S
H777 C725 0.929 . S
H778 C730 0.929 . S
H779 C731 0.930 . S
H780 C738 0.929 . S
H781 C739 0.930 . S
H782 C740 0.930 . S
H783 C741 0.930 . S
H784 C743 0.929 . S
H785 C744 0.930 . S
H786 C745 0.930 . S
H787 C746 0.930 . S
H788 C750 0.929 . S
H789 C752 0.930 . S
H790 C758 0.929 . S
H791 C759 0.930 . S
Li792 N809 1.990 . S
Li792 O852 1.956 . S
Li792 O853 1.970 . S
Li792 O854 1.961 . S
Li793 N817 1.990 . S
Li793 O852 1.970 . S
Li793 O853 1.956 . S
Li793 O855 1.961 . S
Li794 N839 1.990 . S
Li794 O852 1.961 . S
Li794 O854 1.956 . S
Li794 O855 1.970 . S
Li795 N845 1.990 . S
Li795 O853 1.961 . S
Li795 O854 1.970 . S
Li795 O855 1.956 . S
C796 C798 1.348 . S
C796 C799 1.356 . S
C796 O852 1.325 . S
N797 C800 1.314 . S
N797 C801 1.279 . S
C798 C796 1.348 . S
C798 C800 1.353 . S
C798 H856 0.929 . S
C799 C796 1.356 . S
C799 C801 1.358 . S
C799 H857 0.930 . S
C800 N797 1.314 . S
C800 C798 1.353 . S
C800 H858 0.930 . S
C801 N797 1.279 . S
C801 C799 1.358 . S
C801 H859 0.930 . S
C802 C805 1.348 . S
C802 C806 1.356 . S
C802 O853 1.325 . S
C803 N804 1.279 . S
C803 C806 1.358 . S
C803 H860 0.930 . S
N804 C803 1.279 . S
N804 C807 1.314 . S
C805 C802 1.348 . S
C805 C807 1.353 . S
C805 H861 0.929 . S
C806 C802 1.356 . S
C806 C803 1.358 . S
C806 H862 0.930 . S
C807 N804 1.314 . S
C807 C805 1.353 . S
C807 H863 0.930 . S
C808 N809 1.314 . S
C808 C813 1.353 . S
C808 H814 0.930 . S
N809 Li792 1.990 . S
N809 C808 1.314 . S
N809 C811 1.279 . S
C810 C811 1.358 . S
C810 C812 1.356 . S
C810 H864 0.930 . S
C811 N809 1.279 . S
C811 C810 1.358 . S
C811 H815 0.930 . S
C812 C810 1.356 . S
C812 C813 1.348 . S
C813 C808 1.353 . S
C813 C812 1.348 . S
C813 H865 0.929 . S
H814 C808 0.930 . S
H815 C811 0.930 . S
C816 N817 1.314 . S
C816 C818 1.353 . S
C816 H822 0.930 . S
N817 Li793 1.990 . S
N817 C816 1.314 . S
N817 C820 1.279 . S
C818 C816 1.353 . S
C818 C821 1.348 . S
C818 H866 0.929 . S
C819 C820 1.358 . S
C819 C821 1.356 . S
C819 H867 0.930 . S
C820 N817 1.279 . S
C820 C819 1.358 . S
C820 H823 0.930 . S
C821 C818 1.348 . S
C821 C819 1.356 . S
H822 C816 0.930 . S
H823 C820 0.930 . S
C824 C826 1.348 . S
C824 C827 1.356 . S
C824 O854 1.325 . S
N825 C828 1.314 . S
N825 C829 1.279 . S
C826 C824 1.348 . S
C826 C828 1.353 . S
C826 H868 0.929 . S
C827 C824 1.356 . S
C827 C829 1.358 . S
C827 H869 0.930 . S
C828 N825 1.314 . S
C828 C826 1.353 . S
C828 H870 0.930 . S
C829 N825 1.279 . S
C829 C827 1.358 . S
C829 H871 0.930 . S
C830 C831 1.348 . S
C830 C832 1.356 . S
C830 O855 1.325 . S
C831 C830 1.348 . S
C831 C833 1.353 . S
C831 H872 0.929 . S
C832 C830 1.356 . S
C832 C834 1.358 . S
C832 H873 0.930 . S
C833 C831 1.353 . S
C833 N835 1.314 . S
C833 H874 0.930 . S
C834 C832 1.358 . S
C834 N835 1.279 . S
C834 H875 0.930 . S
N835 C833 1.314 . S
N835 C834 1.279 . S
C836 C838 1.353 . S
C836 N839 1.314 . S
C836 H842 0.930 . S
C837 N839 1.279 . S
C837 C840 1.358 . S
C837 H843 0.930 . S
C838 C836 1.353 . S
C838 C841 1.348 . S
C838 H876 0.929 . S
N839 Li794 1.990 . S
N839 C836 1.314 . S
N839 C837 1.279 . S
C840 C837 1.358 . S
C840 C841 1.356 . S
C840 H877 0.930 . S
C841 C838 1.348 . S
C841 C840 1.356 . S
H842 C836 0.930 . S
H843 C837 0.930 . S
C844 N845 1.314 . S
C844 C846 1.353 . S
C844 H850 0.930 . S
N845 Li795 1.990 . S
N845 C844 1.314 . S
N845 C848 1.279 . S
C846 C844 1.353 . S
C846 C849 1.348 . S
C846 H878 0.929 . S
C847 C848 1.358 . S
C847 C849 1.356 . S
C847 H879 0.930 . S
C848 N845 1.279 . S
C848 C847 1.358 . S
C848 H851 0.930 . S
C849 C846 1.348 . S
C849 C847 1.356 . S
H850 C844 0.930 . S
H851 C848 0.930 . S
O852 Li792 1.956 . S
O852 Li793 1.970 . S
O852 Li794 1.961 . S
O852 C796 1.325 . S
O853 Li792 1.970 . S
O853 Li793 1.956 . S
O853 Li795 1.961 . S
O853 C802 1.325 . S
O854 Li792 1.961 . S
O854 Li794 1.956 . S
O854 Li795 1.970 . S
O854 C824 1.325 . S
O855 Li793 1.961 . S
O855 Li794 1.970 . S
O855 Li795 1.956 . S
O855 C830 1.325 . S
H856 C798 0.929 . S
H857 C799 0.930 . S
H858 C800 0.930 . S
H859 C801 0.930 . S
H860 C803 0.930 . S
H861 C805 0.929 . S
H862 C806 0.930 . S
H863 C807 0.930 . S
H864 C810 0.930 . S
H865 C813 0.929 . S
H866 C818 0.929 . S
H867 C819 0.930 . S
H868 C826 0.929 . S
H869 C827 0.930 . S
H870 C828 0.930 . S
H871 C829 0.930 . S
H872 C831 0.929 . S
H873 C832 0.930 . S
H874 C833 0.930 . S
H875 C834 0.930 . S
H876 C838 0.929 . S
H877 C840 0.930 . S
H878 C846 0.929 . S
H879 C847 0.930 . S
Li880 N897 1.990 . S
Li880 O940 1.956 . S
Li880 O941 1.970 . S
Li880 O942 1.962 1_545 S
Li881 N905 1.990 . S
Li881 O940 1.970 . S
Li881 O941 1.956 . S
Li881 O943 1.961 . S
Li882 N927 1.990 . S
Li882 O940 1.961 1_565 S
Li882 O942 1.955 . S
Li882 O943 1.970 1_565 S
Li883 N933 1.990 . S
Li883 O941 1.961 . S
Li883 O942 1.972 1_545 S
Li883 O943 1.956 . S
C884 C886 1.348 . S
C884 C887 1.356 . S
C884 O940 1.325 . S
N885 C888 1.314 . S
N885 C889 1.279 . S
C886 C884 1.348 . S
C886 C888 1.353 . S
C886 H944 0.929 . S
C887 C884 1.356 . S
C887 C889 1.358 . S
C887 H945 0.930 1_545 S
C888 N885 1.314 . S
C888 C886 1.353 . S
C888 H946 0.930 . S
C889 N885 1.279 . S
C889 C887 1.358 . S
C889 H947 0.917 1_545 S
C890 C893 1.348 . S
C890 C894 1.356 . S
C890 O941 1.325 . S
C891 N892 1.279 . S
C891 C894 1.358 . S
C891 H948 0.930 . S
N892 C891 1.279 . S
N892 C895 1.314 . S
C893 C890 1.348 . S
C893 C895 1.353 . S
C893 H949 0.929 . S
C894 C890 1.356 . S
C894 C891 1.358 . S
C894 H950 0.930 . S
C895 N892 1.314 . S
C895 C893 1.353 . S
C895 H951 0.930 . S
C896 N897 1.314 . S
C896 C901 1.353 . S
C896 H902 0.930 . S
N897 Li880 1.990 . S
N897 C896 1.314 . S
N897 C899 1.279 . S
C898 C899 1.358 . S
C898 C900 1.356 . S
C898 H952 0.930 . S
C899 N897 1.279 . S
C899 C898 1.358 . S
C899 H903 0.930 . S
C900 C898 1.356 . S
C900 C901 1.348 . S
C901 C896 1.353 . S
C901 C900 1.348 . S
C901 H953 0.929 . S
H902 C896 0.930 . S
H903 C899 0.930 . S
C904 N905 1.314 . S
C904 C906 1.353 . S
C904 H910 0.930 . S
N905 Li881 1.990 . S
N905 C904 1.314 . S
N905 C908 1.279 . S
C906 C904 1.353 . S
C906 C909 1.348 . S
C906 H954 0.929 . S
C907 C908 1.358 . S
C907 C909 1.356 . S
C907 H955 0.930 . S
C908 N905 1.279 . S
C908 C907 1.358 . S
C908 H911 0.930 . S
C909 C906 1.348 . S
C909 C907 1.356 . S
H910 C904 0.930 . S
H911 C908 0.930 . S
C912 C914 1.348 . S
C912 C915 1.356 . S
C912 O942 1.323 . S
N913 C916 1.314 . S
N913 C917 1.279 . S
C914 C912 1.348 . S
C914 C916 1.353 . S
C914 H956 0.929 . S
C915 C912 1.356 . S
C915 C917 1.358 . S
C915 H957 0.930 . S
C916 N913 1.314 . S
C916 C914 1.353 . S
C916 H958 0.930 . S
C917 N913 1.279 . S
C917 C915 1.358 . S
C917 H959 0.930 . S
C918 C919 1.348 1_545 S
C918 C920 1.356 . S
C918 O943 1.325 . S
C919 C918 1.348 1_565 S
C919 C921 1.353 . S
C919 H960 0.929 . S
C920 C918 1.356 . S
C920 C922 1.358 . S
C920 H961 0.930 . S
C921 C919 1.353 . S
C921 N923 1.314 . S
C921 H962 0.930 . S
C922 C920 1.358 . S
C922 N923 1.279 1_545 S
C922 H963 0.930 . S
N923 C921 1.314 . S
N923 C922 1.279 1_565 S
C924 C926 1.353 . S
C924 N927 1.314 . S
C924 H930 0.930 . S
C925 N927 1.279 . S
C925 C928 1.358 . S
C925 H931 0.930 . S
C926 C924 1.353 . S
C926 C929 1.348 . S
C926 H964 0.929 . S
N927 Li882 1.990 . S
N927 C924 1.314 . S
N927 C925 1.279 . S
C928 C925 1.358 . S
C928 C929 1.356 . S
C928 H965 0.930 . S
C929 C926 1.348 . S
C929 C928 1.356 . S
H930 C924 0.930 . S
H931 C925 0.930 . S
C932 N933 1.314 . S
C932 C934 1.353 . S
C932 H938 0.930 . S
N933 Li883 1.990 . S
N933 C932 1.314 . S
N933 C936 1.279 . S
C934 C932 1.353 . S
C934 C937 1.348 . S
C934 H966 0.929 . S
C935 C936 1.358 . S
C935 C937 1.356 . S
C935 H967 0.930 1_545 S
C936 N933 1.279 . S
C936 C935 1.358 . S
C936 H939 0.930 . S
C937 C934 1.348 . S
C937 C935 1.356 . S
H938 C932 0.930 . S
H939 C936 0.930 . S
O940 Li880 1.956 . S
O940 Li881 1.970 . S
O940 Li882 1.961 1_545 S
O940 C884 1.325 . S
O941 Li880 1.970 . S
O941 Li881 1.956 . S
O941 Li883 1.961 . S
O941 C890 1.325 . S
O942 Li880 1.962 1_565 S
O942 Li882 1.955 . S
O942 Li883 1.972 1_565 S
O942 C912 1.323 . S
O943 Li881 1.961 . S
O943 Li882 1.970 1_545 S
O943 Li883 1.956 . S
O943 C918 1.325 . S
H944 C886 0.929 . S
H945 C887 0.930 1_565 S
H946 C888 0.930 . S
H947 C889 0.917 1_565 S
H948 C891 0.930 . S
H949 C893 0.929 . S
H950 C894 0.930 . S
H951 C895 0.930 . S
H952 C898 0.930 . S
H953 C901 0.929 . S
H954 C906 0.929 . S
H955 C907 0.930 . S
H956 C914 0.929 . S
H957 C915 0.930 . S
H958 C916 0.930 . S
H959 C917 0.930 . S
H960 C919 0.929 . S
H961 C920 0.930 . S
H962 C921 0.930 . S
H963 C922 0.930 . S
H964 C926 0.929 . S
H965 C928 0.930 . S
H966 C934 0.929 . S
H967 C935 0.930 1_565 S
Li968 N985 1.990 . S
Li968 O1028 1.956 . S
Li968 O1029 1.970 . S
Li968 O1030 1.961 . S
Li969 N993 1.990 . S
Li969 O1028 1.970 . S
Li969 O1029 1.956 . S
Li969 O1031 1.961 1_655 S
Li970 N1015 1.990 . S
Li970 O1028 1.961 1_455 S
Li970 O1030 1.956 1_455 S
Li970 O1031 1.970 . S
Li971 N1021 1.990 . S
Li971 O1029 1.961 . S
Li971 O1030 1.970 . S
Li971 O1031 1.956 1_655 S
C972 C974 1.348 . S
C972 C975 1.356 . S
C972 O1028 1.325 . S
N973 C976 1.314 1_455 S
N973 C977 1.279 . S
C974 C972 1.348 . S
C974 C976 1.353 . S
C974 H1032 0.929 . S
C975 C972 1.356 . S
C975 C977 1.358 1_655 S
C975 H1033 0.930 . S
C976 N973 1.314 1_655 S
C976 C974 1.353 . S
C976 H1034 0.930 . S
C977 N973 1.279 . S
C977 C975 1.358 1_455 S
C977 H1035 0.930 . S
C978 C981 1.348 . S
C978 C982 1.356 . S
C978 O1029 1.325 . S
C979 N980 1.279 . S
C979 C982 1.358 . S
C979 H1036 0.930 . S
N980 C979 1.279 . S
N980 C983 1.314 . S
C981 C978 1.348 . S
C981 C983 1.353 . S
C981 H1037 0.929 . S
C982 C978 1.356 . S
C982 C979 1.358 . S
C982 H1038 0.930 . S
C983 N980 1.314 . S
C983 C981 1.353 . S
C983 H1039 0.930 . S
C984 N985 1.314 . S
C984 C989 1.353 . S
C984 H990 0.930 . S
N985 Li968 1.990 . S
N985 C984 1.314 . S
N985 C987 1.279 . S
C986 C987 1.358 . S
C986 C988 1.356 . S
C986 H1040 0.930 . S
C987 N985 1.279 . S
C987 C986 1.358 . S
C987 H991 0.930 . S
C988 C986 1.356 . S
C988 C989 1.348 . S
C989 C984 1.353 . S
C989 C988 1.348 . S
C989 H1041 0.929 . S
H990 C984 0.930 . S
H991 C987 0.930 . S
C992 N993 1.314 1_455 S
C992 C994 1.353 . S
C992 H998 0.930 . S
N993 Li969 1.990 . S
N993 C992 1.314 1_655 S
N993 C996 1.279 . S
C994 C992 1.353 . S
C994 C997 1.348 1_455 S
C994 H1042 0.929 . S
C995 C996 1.358 . S
C995 C997 1.356 . S
C995 H1043 0.930 . S
C996 N993 1.279 . S
C996 C995 1.358 . S
C996 H999 0.930 . S
C997 C994 1.348 1_655 S
C997 C995 1.356 . S
H998 C992 0.930 . S
H999 C996 0.930 . S
C1000 C1002 1.348 . S
C1000 C1003 1.356 . S
C1000 O1030 1.325 . S
N1001 C1004 1.314 . S
N1001 C1005 1.279 . S
C1002 C1000 1.348 . S
C1002 C1004 1.353 . S
C1002 H1044 0.929 . S
C1003 C1000 1.356 . S
C1003 C1005 1.358 . S
C1003 H1045 0.930 . S
C1004 N1001 1.314 . S
C1004 C1002 1.353 . S
C1004 H1046 0.930 . S
C1005 N1001 1.279 . S
C1005 C1003 1.358 . S
C1005 H1047 0.930 . S
C1006 C1007 1.348 . S
C1006 C1008 1.356 . S
C1006 O1031 1.325 . S
C1007 C1006 1.348 . S
C1007 C1009 1.353 . S
C1007 H1048 0.929 . S
C1008 C1006 1.356 . S
C1008 C1010 1.358 . S
C1008 H1049 0.930 1_455 S
C1009 C1007 1.353 . S
C1009 N1011 1.314 . S
C1009 H1050 0.930 . S
C1010 C1008 1.358 . S
C1010 N1011 1.279 . S
C1010 H1051 0.930 . S
N1011 C1009 1.314 . S
N1011 C1010 1.279 . S
C1012 C1014 1.353 . S
C1012 N1015 1.314 . S
C1012 H1018 0.930 . S
C1013 N1015 1.279 . S
C1013 C1016 1.358 . S
C1013 H1019 0.930 . S
C1014 C1012 1.353 . S
C1014 C1017 1.348 . S
C1014 H1052 0.929 . S
N1015 Li970 1.990 . S
N1015 C1012 1.314 . S
N1015 C1013 1.279 . S
C1016 C1013 1.358 . S
C1016 C1017 1.356 . S
C1016 H1053 0.930 . S
C1017 C1014 1.348 . S
C1017 C1016 1.356 . S
H1018 C1012 0.930 . S
H1019 C1013 0.930 . S
C1020 N1021 1.314 . S
C1020 C1022 1.353 . S
C1020 H1026 0.930 . S
N1021 Li971 1.990 . S
N1021 C1020 1.314 . S
N1021 C1024 1.279 . S
C1022 C1020 1.353 . S
C1022 C1025 1.348 . S
C1022 H1054 0.929 . S
C1023 C1024 1.358 . S
C1023 C1025 1.356 . S
C1023 H1055 0.930 . S
C1024 N1021 1.279 . S
C1024 C1023 1.358 . S
C1024 H1027 0.930 . S
C1025 C1022 1.348 . S
C1025 C1023 1.356 . S
H1026 C1020 0.930 . S
H1027 C1024 0.930 . S
O1028 Li968 1.956 . S
O1028 Li969 1.970 . S
O1028 Li970 1.961 1_655 S
O1028 C972 1.325 . S
O1029 Li968 1.970 . S
O1029 Li969 1.956 . S
O1029 Li971 1.961 . S
O1029 C978 1.325 . S
O1030 Li968 1.961 . S
O1030 Li970 1.956 1_655 S
O1030 Li971 1.970 . S
O1030 C1000 1.325 . S
O1031 Li969 1.961 1_455 S
O1031 Li970 1.970 . S
O1031 Li971 1.956 1_455 S
O1031 C1006 1.325 . S
H1032 C974 0.929 . S
H1033 C975 0.930 . S
H1034 C976 0.930 . S
H1035 C977 0.930 . S
H1036 C979 0.930 . S
H1037 C981 0.929 . S
H1038 C982 0.930 . S
H1039 C983 0.930 . S
H1040 C986 0.930 . S
H1041 C989 0.929 . S
H1042 C994 0.929 . S
H1043 C995 0.930 . S
H1044 C1002 0.929 . S
H1045 C1003 0.930 . S
H1046 C1004 0.930 . S
H1047 C1005 0.930 . S
H1048 C1007 0.929 . S
H1049 C1008 0.930 1_655 S
H1050 C1009 0.930 . S
H1051 C1010 0.930 . S
H1052 C1014 0.929 . S
H1053 C1016 0.930 . S
H1054 C1022 0.929 . S
H1055 C1023 0.930 . S
Li1056 N1073 1.990 . S
Li1056 O1116 1.956 . S
Li1056 O1117 1.970 . S
Li1056 O1118 1.961 . S
Li1057 N1081 1.990 . S
Li1057 O1116 1.970 . S
Li1057 O1117 1.956 . S
Li1057 O1119 1.961 . S
Li1058 N1103 1.990 . S
Li1058 O1116 1.961 . S
Li1058 O1118 1.956 . S
Li1058 O1119 1.970 . S
Li1059 N1109 1.990 . S
Li1059 O1117 1.961 . S
Li1059 O1118 1.970 . S
Li1059 O1119 1.956 . S
C1060 C1062 1.348 . S
C1060 C1063 1.356 . S
C1060 O1116 1.325 . S
N1061 C1064 1.314 . S
N1061 C1065 1.279 . S
C1062 C1060 1.348 . S
C1062 C1064 1.353 . S
C1062 H1120 0.929 . S
C1063 C1060 1.356 . S
C1063 C1065 1.358 . S
C1063 H1121 0.930 . S
C1064 N1061 1.314 . S
C1064 C1062 1.353 . S
C1064 H1122 0.930 . S
C1065 N1061 1.279 . S
C1065 C1063 1.358 . S
C1065 H1123 0.930 . S
C1066 C1069 1.348 . S
C1066 C1070 1.356 . S
C1066 O1117 1.325 . S
C1067 N1068 1.279 . S
C1067 C1070 1.358 . S
C1067 H1124 0.930 . S
N1068 C1067 1.279 . S
N1068 C1071 1.314 . S
C1069 C1066 1.348 . S
C1069 C1071 1.353 . S
C1069 H1125 0.929 . S
C1070 C1066 1.356 . S
C1070 C1067 1.358 . S
C1070 H1126 0.930 . S
C1071 N1068 1.314 . S
C1071 C1069 1.353 . S
C1071 H1127 0.930 . S
C1072 N1073 1.314 . S
C1072 C1077 1.353 . S
C1072 H1078 0.930 . S
N1073 Li1056 1.990 . S
N1073 C1072 1.314 . S
N1073 C1075 1.279 . S
C1074 C1075 1.358 . S
C1074 C1076 1.356 . S
C1074 H1128 0.930 . S
C1075 N1073 1.279 . S
C1075 C1074 1.358 . S
C1075 H1079 0.930 . S
C1076 C1074 1.356 . S
C1076 C1077 1.348 . S
C1077 C1072 1.353 . S
C1077 C1076 1.348 . S
C1077 H1129 0.929 . S
H1078 C1072 0.930 . S
H1079 C1075 0.930 . S
C1080 N1081 1.314 . S
C1080 C1082 1.353 . S
C1080 H1086 0.930 . S
N1081 Li1057 1.990 . S
N1081 C1080 1.314 . S
N1081 C1084 1.279 . S
C1082 C1080 1.353 . S
C1082 C1085 1.348 . S
C1082 H1130 0.929 . S
C1083 C1084 1.358 . S
C1083 C1085 1.356 . S
C1083 H1131 0.930 . S
C1084 N1081 1.279 . S
C1084 C1083 1.358 . S
C1084 H1087 0.930 . S
C1085 C1082 1.348 . S
C1085 C1083 1.356 . S
H1086 C1080 0.930 . S
H1087 C1084 0.930 . S
C1088 C1090 1.348 . S
C1088 C1091 1.356 . S
C1088 O1118 1.325 . S
N1089 C1092 1.314 . S
N1089 C1093 1.279 . S
C1090 C1088 1.348 . S
C1090 C1092 1.353 . S
C1090 H1132 0.929 . S
C1091 C1088 1.356 . S
C1091 C1093 1.358 . S
C1091 H1133 0.930 . S
C1092 N1089 1.314 . S
C1092 C1090 1.353 . S
C1092 H1134 0.930 . S
C1093 N1089 1.279 . S
C1093 C1091 1.358 . S
C1093 H1135 0.930 . S
C1094 C1095 1.348 . S
C1094 C1096 1.356 . S
C1094 O1119 1.325 . S
C1095 C1094 1.348 . S
C1095 C1097 1.353 . S
C1095 H1136 0.929 . S
C1096 C1094 1.356 . S
C1096 C1098 1.358 . S
C1096 H1137 0.930 . S
C1097 C1095 1.353 . S
C1097 N1099 1.314 . S
C1097 H1138 0.930 . S
C1098 C1096 1.358 . S
C1098 N1099 1.279 . S
C1098 H1139 0.930 . S
N1099 C1097 1.314 . S
N1099 C1098 1.279 . S
C1100 C1102 1.353 . S
C1100 N1103 1.314 . S
C1100 H1106 0.930 . S
C1101 N1103 1.279 . S
C1101 C1104 1.358 . S
C1101 H1107 0.930 . S
C1102 C1100 1.353 . S
C1102 C1105 1.348 . S
C1102 H1140 0.929 . S
N1103 Li1058 1.990 . S
N1103 C1100 1.314 . S
N1103 C1101 1.279 . S
C1104 C1101 1.358 . S
C1104 C1105 1.356 . S
C1104 H1141 0.930 . S
C1105 C1102 1.348 . S
C1105 C1104 1.356 . S
H1106 C1100 0.930 . S
H1107 C1101 0.930 . S
C1108 N1109 1.314 . S
C1108 C1110 1.353 . S
C1108 H1114 0.930 . S
N1109 Li1059 1.990 . S
N1109 C1108 1.314 . S
N1109 C1112 1.279 . S
C1110 C1108 1.353 . S
C1110 C1113 1.348 . S
C1110 H1142 0.929 . S
C1111 C1112 1.358 . S
C1111 C1113 1.356 . S
C1111 H1143 0.930 . S
C1112 N1109 1.279 . S
C1112 C1111 1.358 . S
C1112 H1115 0.930 . S
C1113 C1110 1.348 . S
C1113 C1111 1.356 . S
H1114 C1108 0.930 . S
H1115 C1112 0.930 . S
O1116 Li1056 1.956 . S
O1116 Li1057 1.970 . S
O1116 Li1058 1.961 . S
O1116 C1060 1.325 . S
O1117 Li1056 1.970 . S
O1117 Li1057 1.956 . S
O1117 Li1059 1.961 . S
O1117 C1066 1.325 . S
O1118 Li1056 1.961 . S
O1118 Li1058 1.956 . S
O1118 Li1059 1.970 . S
O1118 C1088 1.325 . S
O1119 Li1057 1.961 . S
O1119 Li1058 1.970 . S
O1119 Li1059 1.956 . S
O1119 C1094 1.325 . S
H1120 C1062 0.929 . S
H1121 C1063 0.930 . S
H1122 C1064 0.930 . S
H1123 C1065 0.930 . S
H1124 C1067 0.930 . S
H1125 C1069 0.929 . S
H1126 C1070 0.930 . S
H1127 C1071 0.930 . S
H1128 C1074 0.930 . S
H1129 C1077 0.929 . S
H1130 C1082 0.929 . S
H1131 C1083 0.930 . S
H1132 C1090 0.929 . S
H1133 C1091 0.930 . S
H1134 C1092 0.930 . S
H1135 C1093 0.930 . S
H1136 C1095 0.929 . S
H1137 C1096 0.930 . S
H1138 C1097 0.930 . S
H1139 C1098 0.930 . S
H1140 C1102 0.929 . S
H1141 C1104 0.930 . S
H1142 C1110 0.929 . S
H1143 C1111 0.930 . S
Li1144 N1161 1.990 . S
Li1144 O1204 1.956 1_565 S
Li1144 O1205 1.970 . S
Li1144 O1206 1.961 . S
Li1145 N1169 1.990 . S
Li1145 O1204 1.970 . S
Li1145 O1205 1.956 1_545 S
Li1145 O1207 1.961 1_545 S
Li1146 N1191 1.990 . S
Li1146 O1204 1.961 1_565 S
Li1146 O1206 1.956 . S
Li1146 O1207 1.970 . S
Li1147 N1197 1.990 . S
Li1147 O1205 1.961 . S
Li1147 O1206 1.970 . S
Li1147 O1207 1.956 . S
C1148 C1150 1.348 . S
C1148 C1151 1.356 . S
C1148 O1204 1.325 . S
N1149 C1152 1.314 . S
N1149 C1153 1.279 . S
C1150 C1148 1.348 . S
C1150 C1152 1.353 . S
C1150 H1208 0.929 . S
C1151 C1148 1.356 . S
C1151 C1153 1.358 . S
C1151 H1209 0.930 1_545 S
C1152 N1149 1.314 . S
C1152 C1150 1.353 . S
C1152 H1210 0.930 . S
C1153 N1149 1.279 . S
C1153 C1151 1.358 . S
C1153 H1211 0.930 . S
C1154 C1157 1.348 1_565 S
C1154 C1158 1.356 . S
C1154 O1205 1.325 . S
C1155 N1156 1.279 1_565 S
C1155 C1158 1.358 . S
C1155 H1212 0.930 . S
N1156 C1155 1.279 1_545 S
N1156 C1159 1.314 . S
C1157 C1154 1.348 1_545 S
C1157 C1159 1.353 . S
C1157 H1213 0.929 . S
C1158 C1154 1.356 . S
C1158 C1155 1.358 . S
C1158 H1214 0.930 . S
C1159 N1156 1.314 . S
C1159 C1157 1.353 . S
C1159 H1215 0.930 . S
C1160 N1161 1.314 . S
C1160 C1165 1.353 . S
C1160 H1166 0.930 . S
N1161 Li1144 1.990 . S
N1161 C1160 1.314 . S
N1161 C1163 1.279 1_565 S
C1162 C1163 1.358 . S
C1162 C1164 1.356 1_545 S
C1162 H1216 0.930 . S
C1163 N1161 1.279 1_545 S
C1163 C1162 1.358 . S
C1163 H1167 0.930 . S
C1164 C1162 1.356 1_565 S
C1164 C1165 1.348 . S
C1165 C1160 1.353 . S
C1165 C1164 1.348 . S
C1165 H1217 0.929 . S
H1166 C1160 0.930 . S
H1167 C1163 0.930 . S
C1168 N1169 1.314 . S
C1168 C1170 1.353 . S
C1168 H1174 0.930 . S
N1169 Li1145 1.990 . S
N1169 C1168 1.314 . S
N1169 C1172 1.279 . S
C1170 C1168 1.353 . S
C1170 C1173 1.348 . S
C1170 H1218 0.929 . S
C1171 C1172 1.358 . S
C1171 C1173 1.356 . S
C1171 H1219 0.930 . S
C1172 N1169 1.279 . S
C1172 C1171 1.358 . S
C1172 H1175 0.930 . S
C1173 C1170 1.348 . S
C1173 C1171 1.356 . S
H1174 C1168 0.930 . S
H1175 C1172 0.930 . S
C1176 C1178 1.348 . S
C1176 C1179 1.356 . S
C1176 O1206 1.325 . S
N1177 C1180 1.314 . S
N1177 C1181 1.279 . S
C1178 C1176 1.348 . S
C1178 C1180 1.353 . S
C1178 H1220 0.929 . S
C1179 C1176 1.356 . S
C1179 C1181 1.358 . S
C1179 H1221 0.930 . S
C1180 N1177 1.314 . S
C1180 C1178 1.353 . S
C1180 H1222 0.930 . S
C1181 N1177 1.279 . S
C1181 C1179 1.358 . S
C1181 H1223 0.930 . S
C1182 C1183 1.348 . S
C1182 C1184 1.356 . S
C1182 O1207 1.325 . S
C1183 C1182 1.348 . S
C1183 C1185 1.353 . S
C1183 H1224 0.929 . S
C1184 C1182 1.356 . S
C1184 C1186 1.358 . S
C1184 H1225 0.930 . S
C1185 C1183 1.353 . S
C1185 N1187 1.314 . S
C1185 H1226 0.930 . S
C1186 C1184 1.358 . S
C1186 N1187 1.279 . S
C1186 H1227 0.930 . S
N1187 C1185 1.314 . S
N1187 C1186 1.279 . S
C1188 C1190 1.353 . S
C1188 N1191 1.314 . S
C1188 H1194 0.930 . S
C1189 N1191 1.279 . S
C1189 C1192 1.358 . S
C1189 H1195 0.930 . S
C1190 C1188 1.353 . S
C1190 C1193 1.348 . S
C1190 H1228 0.929 . S
N1191 Li1146 1.990 . S
N1191 C1188 1.314 . S
N1191 C1189 1.279 . S
C1192 C1189 1.358 . S
C1192 C1193 1.356 . S
C1192 H1229 0.930 . S
C1193 C1190 1.348 . S
C1193 C1192 1.356 . S
H1194 C1188 0.930 . S
H1195 C1189 0.930 . S
C1196 N1197 1.314 . S
C1196 C1198 1.353 . S
C1196 H1202 0.930 . S
N1197 Li1147 1.990 . S
N1197 C1196 1.314 . S
N1197 C1200 1.279 . S
C1198 C1196 1.353 . S
C1198 C1201 1.348 . S
C1198 H1230 0.929 . S
C1199 C1200 1.358 . S
C1199 C1201 1.356 . S
C1199 H1231 0.930 . S
C1200 N1197 1.279 . S
C1200 C1199 1.358 . S
C1200 H1203 0.930 . S
C1201 C1198 1.348 . S
C1201 C1199 1.356 . S
H1202 C1196 0.930 . S
H1203 C1200 0.930 . S
O1204 Li1144 1.956 1_545 S
O1204 Li1145 1.970 . S
O1204 Li1146 1.961 1_545 S
O1204 C1148 1.325 . S
O1205 Li1144 1.970 . S
O1205 Li1145 1.956 1_565 S
O1205 Li1147 1.961 . S
O1205 C1154 1.325 . S
O1206 Li1144 1.961 . S
O1206 Li1146 1.956 . S
O1206 Li1147 1.970 . S
O1206 C1176 1.325 . S
O1207 Li1145 1.961 1_565 S
O1207 Li1146 1.970 . S
O1207 Li1147 1.956 . S
O1207 C1182 1.325 . S
H1208 C1150 0.929 . S
H1209 C1151 0.930 1_565 S
H1210 C1152 0.930 . S
H1211 C1153 0.930 . S
H1212 C1155 0.930 . S
H1213 C1157 0.929 . S
H1214 C1158 0.930 . S
H1215 C1159 0.930 . S
H1216 C1162 0.930 . S
H1217 C1165 0.929 . S
H1218 C1170 0.929 . S
H1219 C1171 0.930 . S
H1220 C1178 0.929 . S
H1221 C1179 0.930 . S
H1222 C1180 0.930 . S
H1223 C1181 0.930 . S
H1224 C1183 0.929 . S
H1225 C1184 0.930 . S
H1226 C1185 0.930 . S
H1227 C1186 0.930 . S
H1228 C1190 0.929 . S
H1229 C1192 0.930 . S
H1230 C1198 0.929 . S
H1231 C1199 0.930 . S
Li1232 N1249 1.990 . S
Li1232 O1292 1.956 1_455 S
Li1232 O1293 1.970 . S
Li1232 O1294 1.961 . S
Li1233 N1257 1.990 . S
Li1233 O1292 1.970 1_455 S
Li1233 O1293 1.956 . S
Li1233 O1295 1.961 . S
Li1234 N1279 1.990 . S
Li1234 O1292 1.961 . S
Li1234 O1294 1.956 1_655 S
Li1234 O1295 1.970 1_655 S
Li1235 N1285 1.990 . S
Li1235 O1293 1.961 . S
Li1235 O1294 1.970 . S
Li1235 O1295 1.956 . S
C1236 C1238 1.348 . S
C1236 C1239 1.356 . S
C1236 O1292 1.325 . S
N1237 C1240 1.314 . S
N1237 C1241 1.279 . S
C1238 C1236 1.348 . S
C1238 C1240 1.353 . S
C1238 H1296 0.929 . S
C1239 C1236 1.356 . S
C1239 C1241 1.358 . S
C1239 H1297 0.930 . S
C1240 N1237 1.314 . S
C1240 C1238 1.353 . S
C1240 H1298 0.930 . S
C1241 N1237 1.279 . S
C1241 C1239 1.358 . S
C1241 H1299 0.930 . S
C1242 C1245 1.348 . S
C1242 C1246 1.356 . S
C1242 O1293 1.325 . S
C1243 N1244 1.279 . S
C1243 C1246 1.358 . S
C1243 H1300 0.930 . S
N1244 C1243 1.279 . S
N1244 C1247 1.314 . S
C1245 C1242 1.348 . S
C1245 C1247 1.353 . S
C1245 H1301 0.929 . S
C1246 C1242 1.356 . S
C1246 C1243 1.358 . S
C1246 H1302 0.930 . S
C1247 N1244 1.314 . S
C1247 C1245 1.353 . S
C1247 H1303 0.930 . S
C1248 N1249 1.314 . S
C1248 C1253 1.353 . S
C1248 H1254 0.930 . S
N1249 Li1232 1.990 . S
N1249 C1248 1.314 . S
N1249 C1251 1.279 . S
C1250 C1251 1.358 . S
C1250 C1252 1.356 . S
C1250 H1304 0.930 . S
C1251 N1249 1.279 . S
C1251 C1250 1.358 . S
C1251 H1255 0.930 . S
C1252 C1250 1.356 . S
C1252 C1253 1.348 . S
C1253 C1248 1.353 . S
C1253 C1252 1.348 . S
C1253 H1305 0.929 . S
H1254 C1248 0.930 . S
H1255 C1251 0.930 . S
C1256 N1257 1.314 . S
C1256 C1258 1.353 1_455 S
C1256 H1262 0.930 1_455 S
N1257 Li1233 1.990 . S
N1257 C1256 1.314 . S
N1257 C1260 1.279 . S
C1258 C1256 1.353 1_655 S
C1258 C1261 1.348 1_655 S
C1258 H1306 0.929 . S
C1259 C1260 1.358 . S
C1259 C1261 1.356 . S
C1259 H1307 0.930 . S
C1260 N1257 1.279 . S
C1260 C1259 1.358 . S
C1260 H1263 0.930 . S
C1261 C1258 1.348 1_455 S
C1261 C1259 1.356 . S
H1262 C1256 0.930 1_655 S
H1263 C1260 0.930 . S
C1264 C1266 1.348 . S
C1264 C1267 1.356 . S
C1264 O1294 1.325 . S
N1265 C1268 1.314 . S
N1265 C1269 1.279 . S
C1266 C1264 1.348 . S
C1266 C1268 1.353 . S
C1266 H1308 0.929 . S
C1267 C1264 1.356 . S
C1267 C1269 1.358 . S
C1267 H1309 0.930 . S
C1268 N1265 1.314 . S
C1268 C1266 1.353 . S
C1268 H1310 0.930 . S
C1269 N1265 1.279 . S
C1269 C1267 1.358 . S
C1269 H1311 0.930 . S
C1270 C1271 1.348 1_455 S
C1270 C1272 1.356 . S
C1270 O1295 1.325 . S
C1271 C1270 1.348 1_655 S
C1271 C1273 1.353 . S
C1271 H1312 0.929 . S
C1272 C1270 1.356 . S
C1272 C1274 1.358 . S
C1272 H1313 0.930 . S
C1273 C1271 1.353 . S
C1273 N1275 1.314 1_655 S
C1273 H1314 0.930 . S
C1274 C1272 1.358 . S
C1274 N1275 1.280 . S
C1274 H1315 0.930 . S
N1275 C1273 1.314 1_455 S
N1275 C1274 1.280 . S
C1276 C1278 1.353 . S
C1276 N1279 1.314 . S
C1276 H1282 0.930 . S
C1277 N1279 1.279 . S
C1277 C1280 1.358 . S
C1277 H1283 0.930 . S
C1278 C1276 1.353 . S
C1278 C1281 1.348 . S
C1278 H1316 0.929 . S
N1279 Li1234 1.990 . S
N1279 C1276 1.314 . S
N1279 C1277 1.279 . S
C1280 C1277 1.358 . S
C1280 C1281 1.356 . S
C1280 H1317 0.930 . S
C1281 C1278 1.348 . S
C1281 C1280 1.356 . S
H1282 C1276 0.930 . S
H1283 C1277 0.930 . S
C1284 N1285 1.314 . S
C1284 C1286 1.353 . S
C1284 H1290 0.930 . S
N1285 Li1235 1.990 . S
N1285 C1284 1.314 . S
N1285 C1288 1.279 . S
C1286 C1284 1.353 . S
C1286 C1289 1.348 . S
C1286 H1318 0.929 . S
C1287 C1288 1.358 . S
C1287 C1289 1.356 . S
C1287 H1319 0.930 . S
C1288 N1285 1.279 . S
C1288 C1287 1.358 . S
C1288 H1291 0.930 . S
C1289 C1286 1.348 . S
C1289 C1287 1.356 . S
H1290 C1284 0.930 . S
H1291 C1288 0.930 . S
O1292 Li1232 1.956 1_655 S
O1292 Li1233 1.970 1_655 S
O1292 Li1234 1.961 . S
O1292 C1236 1.325 . S
O1293 Li1232 1.970 . S
O1293 Li1233 1.956 . S
O1293 Li1235 1.961 . S
O1293 C1242 1.325 . S
O1294 Li1232 1.961 . S
O1294 Li1234 1.956 1_455 S
O1294 Li1235 1.970 . S
O1294 C1264 1.325 . S
O1295 Li1233 1.961 . S
O1295 Li1234 1.970 1_455 S
O1295 Li1235 1.956 . S
O1295 C1270 1.325 . S
H1296 C1238 0.929 . S
H1297 C1239 0.930 . S
H1298 C1240 0.930 . S
H1299 C1241 0.930 . S
H1300 C1243 0.930 . S
H1301 C1245 0.929 . S
H1302 C1246 0.930 . S
H1303 C1247 0.930 . S
H1304 C1250 0.930 . S
H1305 C1253 0.929 . S
H1306 C1258 0.929 . S
H1307 C1259 0.930 . S
H1308 C1266 0.929 . S
H1309 C1267 0.930 . S
H1310 C1268 0.930 . S
H1311 C1269 0.930 . S
H1312 C1271 0.929 . S
H1313 C1272 0.930 . S
H1314 C1273 0.930 . S
H1315 C1274 0.930 . S
H1316 C1278 0.929 . S
H1317 C1280 0.930 . S
H1318 C1286 0.929 . S
H1319 C1287 0.930 . S
Li1320 N1337 1.990 . S
Li1320 O1380 1.953 1_655 S
Li1320 O1381 1.970 . S
Li1320 O1382 1.961 . S
Li1321 N1345 1.990 . S
Li1321 O1380 1.975 . S
Li1321 O1381 1.956 1_455 S
Li1321 O1383 1.961 . S
Li1322 N1367 1.990 . S
Li1322 O1380 1.964 1_655 S
Li1322 O1382 1.956 . S
Li1322 O1383 1.970 1_655 S
Li1323 N1373 1.990 . S
Li1323 O1381 1.961 1_455 S
Li1323 O1382 1.970 1_455 S
Li1323 O1383 1.956 . S
C1324 C1326 1.348 1_655 S
C1324 C1327 1.356 . S
C1324 O1380 1.322 1_655 S
N1325 C1328 1.314 1_655 S
N1325 C1329 1.279 . S
C1326 C1324 1.348 1_455 S
C1326 C1328 1.353 . S
C1326 H1384 0.929 . S
C1327 C1324 1.356 . S
C1327 C1329 1.358 . S
C1327 H1385 0.930 . S
C1328 N1325 1.314 1_455 S
C1328 C1326 1.353 . S
C1328 H1386 0.930 . S
C1329 N1325 1.279 . S
C1329 C1327 1.358 . S
C1329 H1387 0.930 . S
C1330 C1333 1.330 1_455 S
C1330 C1334 1.372 . S
C1330 O1381 1.327 1_455 S
C1331 N1332 1.279 . S
C1331 C1334 1.358 . S
C1331 H1388 0.930 . S
N1332 C1331 1.279 . S
N1332 C1335 1.314 1_455 S
C1333 C1330 1.330 1_655 S
C1333 C1335 1.353 . S
C1333 H1389 0.929 . S
C1334 C1330 1.372 . S
C1334 C1331 1.358 . S
C1334 H1390 0.930 . S
C1335 N1332 1.314 1_655 S
C1335 C1333 1.353 . S
C1335 H1391 0.930 . S
C1336 N1337 1.314 . S
C1336 C1341 1.353 . S
C1336 H1342 0.930 . S
N1337 Li1320 1.990 . S
N1337 C1336 1.314 . S
N1337 C1339 1.279 . S
C1338 C1339 1.358 . S
C1338 C1340 1.356 . S
C1338 H1392 0.930 . S
C1339 N1337 1.279 . S
C1339 C1338 1.358 . S
C1339 H1343 0.930 . S
C1340 C1338 1.356 . S
C1340 C1341 1.348 . S
C1341 C1336 1.353 . S
C1341 C1340 1.348 . S
C1341 H1393 0.929 . S
H1342 C1336 0.930 . S
H1343 C1339 0.930 . S
C1344 N1345 1.314 . S
C1344 C1346 1.353 . S
C1344 H1350 0.930 . S
N1345 Li1321 1.990 . S
N1345 C1344 1.314 . S
N1345 C1348 1.279 . S
C1346 C1344 1.353 . S
C1346 C1349 1.348 . S
C1346 H1394 0.929 . S
C1347 C1348 1.358 . S
C1347 C1349 1.356 . S
C1347 H1395 0.930 . S
C1348 N1345 1.279 . S
C1348 C1347 1.358 . S
C1348 H1351 0.930 . S
C1349 C1346 1.348 . S
C1349 C1347 1.356 . S
H1350 C1344 0.930 . S
H1351 C1348 0.930 . S
C1352 C1354 1.348 . S
C1352 C1355 1.356 . S
C1352 O1382 1.325 . S
N1353 C1356 1.314 . S
N1353 C1357 1.279 . S
C1354 C1352 1.348 . S
C1354 C1356 1.353 . S
C1354 H1396 0.929 . S
C1355 C1352 1.356 . S
C1355 C1357 1.358 . S
C1355 H1397 0.930 . S
C1356 N1353 1.314 . S
C1356 C1354 1.353 . S
C1356 H1398 0.930 . S
C1357 N1353 1.279 . S
C1357 C1355 1.358 . S
C1357 H1399 0.930 . S
C1358 C1359 1.348 . S
C1358 C1360 1.356 . S
C1358 O1383 1.325 . S
C1359 C1358 1.348 . S
C1359 C1361 1.353 . S
C1359 H1400 0.929 . S
C1360 C1358 1.356 . S
C1360 C1362 1.358 . S
C1360 H1401 0.930 . S
C1361 C1359 1.353 . S
C1361 N1363 1.314 . S
C1361 H1402 0.930 . S
C1362 C1360 1.358 . S
C1362 N1363 1.279 . S
C1362 H1403 0.930 . S
N1363 C1361 1.314 . S
N1363 C1362 1.279 . S
C1364 C1366 1.353 . S
C1364 N1367 1.314 1_455 S
C1364 H1370 0.930 . S
C1365 N1367 1.279 . S
C1365 C1368 1.358 . S
C1365 H1371 0.930 . S
C1366 C1364 1.353 . S
C1366 C1369 1.348 1_455 S
C1366 H1404 0.929 . S
N1367 Li1322 1.990 . S
N1367 C1364 1.314 1_655 S
N1367 C1365 1.279 . S
C1368 C1365 1.358 . S
C1368 C1369 1.356 . S
C1368 H1405 0.930 . S
C1369 C1366 1.348 1_655 S
C1369 C1368 1.356 . S
H1370 C1364 0.930 . S
H1371 C1365 0.930 . S
C1372 N1373 1.314 1_655 S
C1372 C1374 1.353 . S
C1372 H1378 0.930 . S
N1373 Li1323 1.990 . S
N1373 C1372 1.314 1_455 S
N1373 C1376 1.279 . S
C1374 C1372 1.353 . S
C1374 C1377 1.348 1_655 S
C1374 H1406 0.929 . S
C1375 C1376 1.358 . S
C1375 C1377 1.356 . S
C1375 H1407 0.930 . S
C1376 N1373 1.279 . S
C1376 C1375 1.358 . S
C1376 H1379 0.930 . S
C1377 C1374 1.348 1_455 S
C1377 C1375 1.356 . S
H1378 C1372 0.930 . S
H1379 C1376 0.930 . S
O1380 Li1320 1.953 1_455 S
O1380 Li1321 1.975 . S
O1380 Li1322 1.964 1_455 S
O1380 C1324 1.322 1_455 S
O1381 Li1320 1.970 . S
O1381 Li1321 1.956 1_655 S
O1381 Li1323 1.961 1_655 S
O1381 C1330 1.327 1_655 S
O1382 Li1320 1.961 . S
O1382 Li1322 1.956 . S
O1382 Li1323 1.970 1_655 S
O1382 C1352 1.325 . S
O1383 Li1321 1.961 . S
O1383 Li1322 1.970 1_455 S
O1383 Li1323 1.956 . S
O1383 C1358 1.325 . S
H1384 C1326 0.929 . S
H1385 C1327 0.930 . S
H1386 C1328 0.930 . S
H1387 C1329 0.930 . S
H1388 C1331 0.930 . S
H1389 C1333 0.929 . S
H1390 C1334 0.930 . S
H1391 C1335 0.930 . S
H1392 C1338 0.930 . S
H1393 C1341 0.929 . S
H1394 C1346 0.929 . S
H1395 C1347 0.930 . S
H1396 C1354 0.929 . S
H1397 C1355 0.930 . S
H1398 C1356 0.930 . S
H1399 C1357 0.930 . S
H1400 C1359 0.929 . S
H1401 C1360 0.930 . S
H1402 C1361 0.930 . S
H1403 C1362 0.930 . S
H1404 C1366 0.929 . S
H1405 C1368 0.930 . S
H1406 C1374 0.929 . S
H1407 C1375 0.930 . S
Li1408 N1425 1.990 . S
Li1408 O1468 1.956 . S
Li1408 O1469 1.970 . S
Li1408 O1470 1.961 . S
Li1409 N1433 1.990 . S
Li1409 O1468 1.970 . S
Li1409 O1469 1.956 . S
Li1409 O1471 1.961 . S
Li1410 N1455 1.990 . S
Li1410 O1468 1.961 . S
Li1410 O1470 1.956 . S
Li1410 O1471 1.970 . S
Li1411 N1461 1.990 . S
Li1411 O1469 1.961 . S
Li1411 O1470 1.970 . S
Li1411 O1471 1.956 . S
C1412 C1414 1.348 . S
C1412 C1415 1.356 . S
C1412 O1468 1.325 . S
N1413 C1416 1.314 . S
N1413 C1417 1.279 . S
C1414 C1412 1.348 . S
C1414 C1416 1.353 . S
C1414 H1472 0.929 . S
C1415 C1412 1.356 . S
C1415 C1417 1.358 . S
C1415 H1473 0.930 . S
C1416 N1413 1.314 . S
C1416 C1414 1.353 . S
C1416 H1474 0.930 . S
C1417 N1413 1.279 . S
C1417 C1415 1.358 . S
C1417 H1475 0.930 . S
C1418 C1421 1.348 . S
C1418 C1422 1.356 . S
C1418 O1469 1.325 . S
C1419 N1420 1.279 . S
C1419 C1422 1.358 . S
C1419 H1476 0.930 . S
N1420 C1419 1.279 . S
N1420 C1423 1.314 . S
C1421 C1418 1.348 . S
C1421 C1423 1.353 . S
C1421 H1477 0.929 . S
C1422 C1418 1.356 . S
C1422 C1419 1.358 . S
C1422 H1478 0.930 . S
C1423 N1420 1.314 . S
C1423 C1421 1.353 . S
C1423 H1479 0.930 . S
C1424 N1425 1.314 . S
C1424 C1429 1.353 . S
C1424 H1430 0.930 . S
N1425 Li1408 1.990 . S
N1425 C1424 1.314 . S
N1425 C1427 1.279 . S
C1426 C1427 1.358 . S
C1426 C1428 1.356 . S
C1426 H1480 0.930 . S
C1427 N1425 1.279 . S
C1427 C1426 1.358 . S
C1427 H1431 0.930 . S
C1428 C1426 1.356 . S
C1428 C1429 1.348 . S
C1429 C1424 1.353 . S
C1429 C1428 1.348 . S
C1429 H1481 0.929 . S
H1430 C1424 0.930 . S
H1431 C1427 0.930 . S
C1432 N1433 1.314 . S
C1432 C1434 1.353 . S
C1432 H1438 0.930 . S
N1433 Li1409 1.990 . S
N1433 C1432 1.314 . S
N1433 C1436 1.279 . S
C1434 C1432 1.353 . S
C1434 C1437 1.348 . S
C1434 H1482 0.929 . S
C1435 C1436 1.358 . S
C1435 C1437 1.356 . S
C1435 H1483 0.930 . S
C1436 N1433 1.279 . S
C1436 C1435 1.358 . S
C1436 H1439 0.930 . S
C1437 C1434 1.348 . S
C1437 C1435 1.356 . S
H1438 C1432 0.930 . S
H1439 C1436 0.930 . S
C1440 C1442 1.348 . S
C1440 C1443 1.356 . S
C1440 O1470 1.325 . S
N1441 C1444 1.314 . S
N1441 C1445 1.279 . S
C1442 C1440 1.348 . S
C1442 C1444 1.353 . S
C1442 H1484 0.929 . S
C1443 C1440 1.356 . S
C1443 C1445 1.358 . S
C1443 H1485 0.930 . S
C1444 N1441 1.314 . S
C1444 C1442 1.353 . S
C1444 H1486 0.930 . S
C1445 N1441 1.279 . S
C1445 C1443 1.358 . S
C1445 H1487 0.930 . S
C1446 C1447 1.348 . S
C1446 C1448 1.356 . S
C1446 O1471 1.325 . S
C1447 C1446 1.348 . S
C1447 C1449 1.353 . S
C1447 H1488 0.929 . S
C1448 C1446 1.356 . S
C1448 C1450 1.358 . S
C1448 H1489 0.930 . S
C1449 C1447 1.353 . S
C1449 N1451 1.314 . S
C1449 H1490 0.930 . S
C1450 C1448 1.358 . S
C1450 N1451 1.279 . S
C1450 H1491 0.930 . S
N1451 C1449 1.314 . S
N1451 C1450 1.279 . S
C1452 C1454 1.353 . S
C1452 N1455 1.314 . S
C1452 H1458 0.930 . S
C1453 N1455 1.279 . S
C1453 C1456 1.358 . S
C1453 H1459 0.930 . S
C1454 C1452 1.353 . S
C1454 C1457 1.348 . S
C1454 H1492 0.929 . S
N1455 Li1410 1.990 . S
N1455 C1452 1.314 . S
N1455 C1453 1.279 . S
C1456 C1453 1.358 . S
C1456 C1457 1.356 . S
C1456 H1493 0.930 . S
C1457 C1454 1.348 . S
C1457 C1456 1.356 . S
H1458 C1452 0.930 . S
H1459 C1453 0.930 . S
C1460 N1461 1.314 . S
C1460 C1462 1.353 . S
C1460 H1466 0.930 . S
N1461 Li1411 1.990 . S
N1461 C1460 1.314 . S
N1461 C1464 1.279 . S
C1462 C1460 1.353 . S
C1462 C1465 1.348 . S
C1462 H1494 0.929 . S
C1463 C1464 1.358 . S
C1463 C1465 1.356 . S
C1463 H1495 0.930 . S
C1464 N1461 1.279 . S
C1464 C1463 1.358 . S
C1464 H1467 0.930 . S
C1465 C1462 1.348 . S
C1465 C1463 1.356 . S
H1466 C1460 0.930 . S
H1467 C1464 0.930 . S
O1468 Li1408 1.956 . S
O1468 Li1409 1.970 . S
O1468 Li1410 1.961 . S
O1468 C1412 1.325 . S
O1469 Li1408 1.970 . S
O1469 Li1409 1.956 . S
O1469 Li1411 1.961 . S
O1469 C1418 1.325 . S
O1470 Li1408 1.961 . S
O1470 Li1410 1.956 . S
O1470 Li1411 1.970 . S
O1470 C1440 1.325 . S
O1471 Li1409 1.961 . S
O1471 Li1410 1.970 . S
O1471 Li1411 1.956 . S
O1471 C1446 1.325 . S
H1472 C1414 0.929 . S
H1473 C1415 0.930 . S
H1474 C1416 0.930 . S
H1475 C1417 0.930 . S
H1476 C1419 0.930 . S
H1477 C1421 0.929 . S
H1478 C1422 0.930 . S
H1479 C1423 0.930 . S
H1480 C1426 0.930 . S
H1481 C1429 0.929 . S
H1482 C1434 0.929 . S
H1483 C1435 0.930 . S
H1484 C1442 0.929 . S
H1485 C1443 0.930 . S
H1486 C1444 0.930 . S
H1487 C1445 0.930 . S
H1488 C1447 0.929 . S
H1489 C1448 0.930 . S
H1490 C1449 0.930 . S
H1491 C1450 0.930 . S
H1492 C1454 0.929 . S
H1493 C1456 0.930 . S
H1494 C1462 0.929 . S
H1495 C1463 0.930 . S
Li1496 N1513 1.990 . S
Li1496 O1556 1.956 . S
Li1496 O1557 1.990 . S
Li1496 O1558 1.961 1_565 S
Li1497 N1521 1.977 1_565 S
Li1497 O1556 1.978 . S
Li1497 O1557 1.947 . S
Li1497 O1559 1.955 1_565 S
Li1498 N1543 1.990 . S
Li1498 O1556 1.960 . S
Li1498 O1558 1.955 1_565 S
Li1498 O1559 1.972 1_565 S
Li1499 N1549 1.990 . S
Li1499 O1557 1.945 1_545 S
Li1499 O1558 1.970 . S
Li1499 O1559 1.956 . S
C1500 C1502 1.348 . S
C1500 C1503 1.356 . S
C1500 O1556 1.325 . S
N1501 C1504 1.314 . S
N1501 C1505 1.279 . S
C1502 C1500 1.348 . S
C1502 C1504 1.353 . S
C1502 H1560 0.929 . S
C1503 C1500 1.356 . S
C1503 C1505 1.358 . S
C1503 H1561 0.930 . S
C1504 N1501 1.314 . S
C1504 C1502 1.353 . S
C1504 H1562 0.930 . S
C1505 N1501 1.279 . S
C1505 C1503 1.358 . S
C1505 H1563 0.930 . S
C1506 C1509 1.368 . S
C1506 C1510 1.338 1_565 S
C1506 O1557 1.325 . S
C1507 N1508 1.278 . S
C1507 C1510 1.358 . S
C1507 H1564 0.930 . S
N1508 C1507 1.278 . S
N1508 C1511 1.316 1_545 S
C1509 C1506 1.368 . S
C1509 C1511 1.353 . S
C1509 H1565 0.929 . S
C1510 C1506 1.338 1_545 S
C1510 C1507 1.358 . S
C1510 H1566 0.930 . S
C1511 N1508 1.316 1_565 S
C1511 C1509 1.353 . S
C1511 H1567 0.930 . S
C1512 N1513 1.314 . S
C1512 C1517 1.353 . S
C1512 H1518 0.930 . S
N1513 Li1496 1.990 . S
N1513 C1512 1.314 . S
N1513 C1515 1.279 . S
C1514 C1515 1.358 . S
C1514 C1516 1.356 . S
C1514 H1568 0.930 . S
C1515 N1513 1.279 . S
C1515 C1514 1.358 . S
C1515 H1519 0.930 . S
C1516 C1514 1.356 . S
C1516 C1517 1.348 . S
C1517 C1512 1.353 . S
C1517 C1516 1.348 . S
C1517 H1569 0.929 . S
H1518 C1512 0.930 . S
H1519 C1515 0.930 . S
C1520 N1521 1.327 . S
C1520 C1522 1.353 . S
C1520 H1526 0.930 . S
N1521 Li1497 1.977 1_545 S
N1521 C1520 1.327 . S
N1521 C1524 1.275 1_545 S
C1522 C1520 1.353 . S
C1522 C1525 1.348 1_545 S
C1522 H1570 0.929 . S
C1523 C1524 1.358 . S
C1523 C1525 1.356 . S
C1523 H1571 0.930 . S
C1524 N1521 1.275 1_565 S
C1524 C1523 1.358 . S
C1524 H1527 0.930 . S
C1525 C1522 1.348 1_565 S
C1525 C1523 1.356 . S
H1526 C1520 0.930 . S
H1527 C1524 0.930 . S
C1528 C1530 1.348 . S
C1528 C1531 1.356 1_545 S
C1528 O1558 1.325 . S
N1529 C1532 1.314 . S
N1529 C1533 1.279 1_545 S
C1530 C1528 1.348 . S
C1530 C1532 1.353 . S
C1530 H1572 0.929 . S
C1531 C1528 1.356 1_565 S
C1531 C1533 1.358 . S
C1531 H1573 0.930 . S
C1532 N1529 1.314 . S
C1532 C1530 1.353 . S
C1532 H1574 0.930 . S
C1533 N1529 1.279 1_565 S
C1533 C1531 1.358 . S
C1533 H1575 0.930 . S
C1534 C1535 1.348 . S
C1534 C1536 1.356 . S
C1534 O1559 1.325 . S
C1535 C1534 1.348 . S
C1535 C1537 1.353 . S
C1535 H1576 0.929 . S
C1536 C1534 1.356 . S
C1536 C1538 1.358 . S
C1536 H1577 0.930 . S
C1537 C1535 1.353 . S
C1537 N1539 1.314 . S
C1537 H1578 0.930 . S
C1538 C1536 1.358 . S
C1538 N1539 1.279 . S
C1538 H1579 0.930 . S
N1539 C1537 1.314 . S
N1539 C1538 1.279 . S
C1540 C1542 1.353 . S
C1540 N1543 1.314 . S
C1540 H1546 0.930 . S
C1541 N1543 1.279 1_545 S
C1541 C1544 1.358 . S
C1541 H1547 0.930 . S
C1542 C1540 1.353 . S
C1542 C1545 1.348 1_565 S
C1542 H1580 0.929 . S
N1543 Li1498 1.990 . S
N1543 C1540 1.314 . S
N1543 C1541 1.279 1_565 S
C1544 C1541 1.358 . S
C1544 C1545 1.356 . S
C1544 H1581 0.930 . S
C1545 C1542 1.348 1_545 S
C1545 C1544 1.356 . S
H1546 C1540 0.930 . S
H1547 C1541 0.930 . S
C1548 N1549 1.314 . S
C1548 C1550 1.353 . S
C1548 H1554 0.930 . S
N1549 Li1499 1.990 . S
N1549 C1548 1.314 . S
N1549 C1552 1.279 . S
C1550 C1548 1.353 . S
C1550 C1553 1.348 . S
C1550 H1582 0.929 . S
C1551 C1552 1.358 . S
C1551 C1553 1.356 . S
C1551 H1583 0.930 . S
C1552 N1549 1.279 . S
C1552 C1551 1.358 . S
C1552 H1555 0.930 . S
C1553 C1550 1.348 . S
C1553 C1551 1.356 . S
H1554 C1548 0.930 . S
H1555 C1552 0.930 . S
O1556 Li1496 1.956 . S
O1556 Li1497 1.978 . S
O1556 Li1498 1.960 . S
O1556 C1500 1.325 . S
O1557 Li1496 1.990 . S
O1557 Li1497 1.947 . S
O1557 Li1499 1.945 1_565 S
O1557 C1506 1.325 . S
O1558 Li1496 1.961 1_545 S
O1558 Li1498 1.955 1_545 S
O1558 Li1499 1.970 . S
O1558 C1528 1.325 . S
O1559 Li1497 1.955 1_545 S
O1559 Li1498 1.972 1_545 S
O1559 Li1499 1.956 . S
O1559 C1534 1.325 . S
H1560 C1502 0.929 . S
H1561 C1503 0.930 . S
H1562 C1504 0.930 . S
H1563 C1505 0.930 . S
H1564 C1507 0.930 . S
H1565 C1509 0.929 . S
H1566 C1510 0.930 . S
H1567 C1511 0.930 . S
H1568 C1514 0.930 . S
H1569 C1517 0.929 . S
H1570 C1522 0.929 . S
H1571 C1523 0.930 . S
H1572 C1530 0.929 . S
H1573 C1531 0.930 . S
H1574 C1532 0.930 . S
H1575 C1533 0.930 . S
H1576 C1535 0.929 . S
H1577 C1536 0.930 . S
H1578 C1537 0.930 . S
H1579 C1538 0.930 . S
H1580 C1542 0.929 . S
H1581 C1544 0.930 . S
H1582 C1550 0.929 . S
H1583 C1551 0.930 . S
C49 C284 3.149 1_544 S
C108 C401 3.195 1_654 S
C489 C233 3.260 1_556 S
C577 C821 3.259 . S
C636 C929 3.175 . S
C1017 C761 3.254 . S
C1340 C1105 3.259 . S
C1465 C1173 3.175 . S
C1553 C1281 3.254 . S
C29 C849 5.679 . S
C145 C900 5.666 . S
C1025 C205 5.857 . S
C313 C1085 5.679 . S
C372 C1193 5.666 . S
C497 C1252 5.857 . S
C557 C1369 5.769 1_455 S
C673 C1437 5.819 . S
C1545 C733 5.609 1_545 S
C57 C381 1.157 . S
C117 C460 1.152 . S
C196 C321 1.211 . S
C293 C137 1.163 . S
C225 C409 1.146 . S
C469 C20 1.255 . S
C585 C909 1.049 . S
C988 C645 1.235 . S
C841 C724 0.931 . S
C665 C812 1.176 . S
C937 C753 1.181 . S
C997 C548 1.387 . S
C1428 C1113 1.169 . S
C1525 C1164 1.180 . S
C1261 C1377 1.340 . S
C1201 C1349 1.047 . S
C1289 C1457 1.223 . S
C1076 C1516 0.973 . S
