# Generated by pormake.
# Topology noy, (5)-cn, num edge types: 1
# Building blocks:
#     Node 0, Type 0, BuildingBlock: XOMCOT_clean_sbu_1, # of connection points: 5
#     Node 1, Type 0, BuildingBlock: XOMCOT_clean_sbu_1, # of connection points: 5
#     Node 2, Type 0, BuildingBlock: XOMCOT_clean_sbu_1, # of connection points: 5
#     Node 3, Type 0, BuildingBlock: XOMCOT_clean_sbu_1, # of connection points: 5
#     Node 4, Type 0, BuildingBlock: XOMCOT_clean_sbu_1, # of connection points: 5
#     Node 5, Type 0, BuildingBlock: XOMCOT_clean_sbu_1, # of connection points: 5
#     Node 6, Type 0, BuildingBlock: XOMCOT_clean_sbu_1, # of connection points: 5
#     Node 7, Type 0, BuildingBlock: XOMCOT_clean_sbu_1, # of connection points: 5
#     Edge 8, Type (0, 0), BuildingBlock: EYOCIG_clean_linker_4, # of connection points: 2
#     Edge 9, Type (0, 0), BuildingBlock: EYOCIG_clean_linker_4, # of connection points: 2
#     Edge 10, Type (0, 0), BuildingBlock: EYOCIG_clean_linker_4, # of connection points: 2
#     Edge 11, Type (0, 0), BuildingBlock: EYOCIG_clean_linker_4, # of connection points: 2
#     Edge 12, Type (0, 0), BuildingBlock: EYOCIG_clean_linker_4, # of connection points: 2
#     Edge 13, Type (0, 0), BuildingBlock: EYOCIG_clean_linker_4, # of connection points: 2
#     Edge 14, Type (0, 0), BuildingBlock: EYOCIG_clean_linker_4, # of connection points: 2
#     Edge 15, Type (0, 0), BuildingBlock: EYOCIG_clean_linker_4, # of connection points: 2
#     Edge 16, Type (0, 0), BuildingBlock: EYOCIG_clean_linker_4, # of connection points: 2
#     Edge 17, Type (0, 0), BuildingBlock: EYOCIG_clean_linker_4, # of connection points: 2
#     Edge 18, Type (0, 0), BuildingBlock: EYOCIG_clean_linker_4, # of connection points: 2
#     Edge 19, Type (0, 0), BuildingBlock: EYOCIG_clean_linker_4, # of connection points: 2
#     Edge 20, Type (0, 0), BuildingBlock: EYOCIG_clean_linker_4, # of connection points: 2
#     Edge 21, Type (0, 0), BuildingBlock: EYOCIG_clean_linker_4, # of connection points: 2
#     Edge 22, Type (0, 0), BuildingBlock: EYOCIG_clean_linker_4, # of connection points: 2
#     Edge 23, Type (0, 0), BuildingBlock: EYOCIG_clean_linker_4, # of connection points: 2
#     Edge 24, Type (0, 0), BuildingBlock: EYOCIG_clean_linker_4, # of connection points: 2
#     Edge 25, Type (0, 0), BuildingBlock: EYOCIG_clean_linker_4, # of connection points: 2
#     Edge 26, Type (0, 0), BuildingBlock: EYOCIG_clean_linker_4, # of connection points: 2
#     Edge 27, Type (0, 0), BuildingBlock: EYOCIG_clean_linker_4, # of connection points: 2
# Relax obj value: 0.157
# Max RMSD: 0.179
# Mean RMSD: 0.179
data_MOF--net-noy--node1-XOMCOT_clean_sbu_1--edge1-EYOCIG_clean_linker_4
_symmetry_space_group_name_H-M    P1
_symmetry_Int_Tables_number       1
_symmetry_cell_setting            triclinic
loop_
_symmetry_equiv_pos_as_xyz
'x, y, z'
_cell_length_a     41.589822
_cell_length_b     37.398718
_cell_length_c     16.386197
_cell_angle_alpha  89.999002
_cell_angle_beta   89.990254
_cell_angle_gamma 89.985582
loop_
_atom_site_label
_atom_site_type_symbol
_atom_site_fract_x
_atom_site_fract_y
_atom_site_fract_z
_atom_type_partial_charge
C0 C 0.31959 0.39319 0.163 0.0
C1 C 0.31832 0.41798 0.1011 0.0
N2 N 0.30185 0.44638 0.12861 0.0
N3 N 0.30412 0.4062 0.22903 0.0
C4 C 0.29324 0.43873 0.20583 0.0
H5 H 0.33208 0.36784 0.16129 0.0
Co6 Co 0.30262 0.38286 0.32947 0.0
C7 C 0.30052 0.45061 0.43212 0.0
O8 O 0.33074 0.44835 0.45363 0.0
N9 N 0.30075 0.35852 0.43123 0.0
C10 C 0.31067 0.34283 0.56025 0.0
C11 C 0.31559 0.36822 0.50137 0.0
C12 C 0.28707 0.32656 0.4496 0.0
N13 N 0.29297 0.31673 0.52738 0.0
O14 O 0.25908 0.36975 0.3059 0.0
H15 H 0.33091 0.391 0.50907 0.0
H16 H 0.27361 0.31039 0.4069 0.0
O17 O 0.28774 0.42743 0.38449 0.0
C18 C 0.26141 0.3422 0.26034 0.0
O19 O 0.28978 0.32757 0.24955 0.0
N20 N 0.34703 0.39209 0.34322 0.0
C21 C 0.41352 0.39387 0.32227 0.0
C22 C 0.39515 0.42465 0.30977 0.0
C23 C 0.36178 0.42309 0.31923 0.0
C24 C 0.36496 0.36194 0.35557 0.0
C25 C 0.39833 0.3624 0.34681 0.0
H26 H 0.3477 0.44638 0.30354 0.0
H27 H 0.35325 0.33667 0.36742 0.0
H28 H 0.2805 0.45707 0.24541 0.0
H29 H 0.32956 0.41591 0.04169 0.0
H30 H 0.32005 0.34303 0.62188 0.0
H31 H 0.40627 0.44922 0.28901 0.0
H32 H 0.41188 0.3379 0.35501 0.0
C33 C 0.66428 0.65147 0.66377 0.0
C34 C 0.66549 0.62663 0.60196 0.0
N35 N 0.6819 0.59821 0.62955 0.0
N36 N 0.67974 0.63847 0.72982 0.0
C37 C 0.69054 0.60589 0.70672 0.0
H38 H 0.65184 0.67685 0.66198 0.0
Co39 Co 0.68125 0.66188 0.83018 0.0
C40 C 0.68349 0.59429 0.93329 0.0
O41 O 0.65331 0.59663 0.95516 0.0
N42 N 0.68313 0.68629 0.93188 0.0
C43 C 0.67308 0.70216 0.06074 0.0
C44 C 0.66808 0.67678 1.00189 0.0
C45 C 0.69701 0.71815 0.95031 0.0
N46 N 0.69103 0.72807 0.02799 0.0
O47 O 0.72477 0.67503 0.80643 0.0
H48 H 0.65255 0.65416 1.00946 0.0
H49 H 0.71066 0.73417 0.90772 0.0
O50 O 0.69619 0.61737 0.8853 0.0
C51 C 0.72241 0.70257 0.76085 0.0
O52 O 0.69403 0.71718 0.75015 0.0
N53 N 0.63686 0.6526 0.84406 0.0
C54 C 0.57037 0.6507 0.82333 0.0
C55 C 0.58877 0.61991 0.81113 0.0
C56 C 0.62214 0.62153 0.82048 0.0
C57 C 0.61891 0.68276 0.85609 0.0
C58 C 0.58554 0.68224 0.84746 0.0
H59 H 0.63624 0.59823 0.80502 0.0
H60 H 0.63061 0.70807 0.86762 0.0
H61 H 0.70323 0.58754 0.74636 0.0
H62 H 0.65425 0.62869 0.54256 0.0
H63 H 0.66356 0.70209 0.12225 0.0
H64 H 0.57767 0.59528 0.79068 0.0
H65 H 0.57197 0.70674 0.85542 0.0
C66 C 0.31907 0.65155 0.88996 0.0
C67 C 0.31783 0.62674 0.95182 0.0
N68 N 0.30153 0.59827 0.92416 0.0
N69 N 0.30374 0.63849 0.82381 0.0
C70 C 0.29298 0.60589 0.84689 0.0
H71 H 0.33147 0.67695 0.89178 0.0
Co72 Co 0.30235 0.66183 0.72338 0.0
C73 C 0.30033 0.59421 0.62035 0.0
O74 O 0.33052 0.59661 0.59863 0.0
N75 N 0.30059 0.68619 0.62158 0.0
C76 C 0.31086 0.70205 0.49284 0.0
C77 C 0.31582 0.67671 0.5518 0.0
C78 C 0.28663 0.71798 0.6029 0.0
N79 N 0.29275 0.7279 0.52529 0.0
O80 O 0.25877 0.67495 0.74668 0.0
H81 H 0.33147 0.65416 0.5445 0.0
H82 H 0.27283 0.73397 0.64527 0.0
O83 O 0.28753 0.61728 0.66824 0.0
C84 C 0.26105 0.70251 0.7922 0.0
O85 O 0.28939 0.71717 0.80303 0.0
N86 N 0.34676 0.65258 0.70995 0.0
C87 C 0.41322 0.65069 0.73127 0.0
C88 C 0.39482 0.6199 0.74332 0.0
C89 C 0.36147 0.62151 0.73367 0.0
C90 C 0.3647 0.68274 0.69809 0.0
C91 C 0.39806 0.68224 0.70702 0.0
H92 H 0.34736 0.5982 0.74899 0.0
H93 H 0.353 0.70805 0.68644 0.0
H94 H 0.28039 0.58749 0.80718 0.0
H95 H 0.32901 0.62884 1.0113 0.0
H96 H 0.32052 0.70201 0.43147 0.0
H97 H 0.40592 0.59527 0.76386 0.0
H98 H 0.41163 0.70673 0.69915 0.0
C99 C 0.6646 0.39308 0.39034 0.0
C100 C 0.66574 0.41785 0.45231 0.0
N101 N 0.6821 0.44633 0.42492 0.0
N102 N 0.68005 0.40619 0.32439 0.0
C103 C 0.69078 0.43876 0.34771 0.0
H104 H 0.6522 0.36768 0.39195 0.0
Co105 Co 0.68165 0.3829 0.22389 0.0
C106 C 0.68368 0.45069 0.12138 0.0
O107 O 0.65347 0.44837 0.09976 0.0
N108 N 0.68363 0.35861 0.12207 0.0
C109 C 0.67383 0.34295 0.99297 0.0
C110 C 0.66882 0.36831 0.05188 0.0
C111 C 0.69738 0.32667 0.10369 0.0
N112 N 0.69154 0.31686 1.02587 0.0
O113 O 0.72521 0.36986 0.24758 0.0
H114 H 0.65346 0.39107 0.04417 0.0
H115 H 0.71083 0.3105 0.14641 0.0
O116 O 0.69648 0.42753 0.16902 0.0
C117 C 0.72294 0.34228 0.29304 0.0
O118 O 0.69461 0.32757 0.30375 0.0
N119 N 0.63723 0.39207 0.21 0.0
C120 C 0.57072 0.39376 0.23056 0.0
C121 C 0.58904 0.42455 0.24327 0.0
C122 C 0.62242 0.42303 0.234 0.0
C123 C 0.61936 0.3619 0.19745 0.0
C124 C 0.58598 0.36231 0.20601 0.0
H125 H 0.63644 0.44633 0.24982 0.0
H126 H 0.63112 0.33665 0.18559 0.0
H127 H 0.70346 0.45718 0.3082 0.0
H128 H 0.65447 0.4157 0.51167 0.0
H129 H 0.66448 0.34316 0.93131 0.0
H130 H 0.57786 0.44909 0.26405 0.0
H131 H 0.57247 0.33781 0.19764 0.0
C132 C 0.81942 0.89318 0.16336 0.0
C133 C 0.81825 0.91802 0.10155 0.0
N134 N 0.80196 0.94651 0.1292 0.0
N135 N 0.80403 0.90625 0.22947 0.0
C136 C 0.79333 0.93887 0.20641 0.0
H137 H 0.83178 0.86776 0.16154 0.0
Co138 Co 0.80255 0.88285 0.32985 0.0
C139 C 0.80047 0.95041 0.43311 0.0
O140 O 0.83063 0.94793 0.45504 0.0
N141 N 0.80071 0.85845 0.43159 0.0
C142 C 0.81093 0.84249 0.5603 0.0
C143 C 0.81597 0.86783 0.50138 0.0
C144 C 0.78665 0.82671 0.45021 0.0
N145 N 0.79273 0.81673 0.5278 0.0
O146 O 0.75899 0.86979 0.30633 0.0
H147 H 0.8317 0.8903 0.50871 0.0
H148 H 0.77281 0.8108 0.40782 0.0
O149 O 0.78771 0.9274 0.38502 0.0
C150 C 0.76128 0.84224 0.26077 0.0
O151 O 0.78962 0.82755 0.25 0.0
N152 N 0.84695 0.89206 0.34348 0.0
C153 C 0.91342 0.89388 0.32236 0.0
C154 C 0.89505 0.92472 0.31044 0.0
C155 C 0.86169 0.92313 0.31998 0.0
C156 C 0.86487 0.86186 0.35522 0.0
C157 C 0.89824 0.86233 0.34639 0.0
H158 H 0.8476 0.94647 0.30474 0.0
H159 H 0.85314 0.83656 0.36669 0.0
H160 H 0.78073 0.95728 0.24611 0.0
H161 H 0.82946 0.91592 0.0421 0.0
H162 H 0.82059 0.84247 0.62165 0.0
H163 H 0.90617 0.94934 0.29006 0.0
H164 H 0.91178 0.83781 0.35415 0.0
C165 C 0.16482 0.15156 0.66293 0.0
C166 C 0.16602 0.12676 0.60103 0.0
N167 N 0.18238 0.0983 0.62855 0.0
N168 N 0.18025 0.1385 0.72895 0.0
C169 C 0.19101 0.10591 0.70576 0.0
H170 H 0.1524 0.17696 0.66122 0.0
Co171 Co 0.18173 0.16183 0.8294 0.0
C172 C 0.18386 0.09415 0.93224 0.0
O173 O 0.15367 0.09648 0.95399 0.0
N174 N 0.18359 0.18617 0.93118 0.0
C175 C 0.17353 0.20195 0.06009 0.0
C176 C 0.16857 0.17659 1.00118 0.0
C177 C 0.1974 0.21805 0.94967 0.0
N178 N 0.19142 0.22793 0.02737 0.0
O179 O 0.22528 0.17493 0.80584 0.0
H180 H 0.15308 0.15393 1.00872 0.0
H181 H 0.21101 0.23413 0.90709 0.0
O182 O 0.19662 0.11727 0.88441 0.0
C183 C 0.22299 0.20249 0.76031 0.0
O184 O 0.19464 0.21716 0.74954 0.0
N185 N 0.13733 0.15258 0.84313 0.0
C186 C 0.07085 0.15068 0.82223 0.0
C187 C 0.08926 0.11991 0.80992 0.0
C188 C 0.12262 0.12154 0.81935 0.0
C189 C 0.11937 0.18273 0.85528 0.0
C190 C 0.086 0.18221 0.84654 0.0
H191 H 0.13672 0.09825 0.80382 0.0
H192 H 0.13107 0.20802 0.86699 0.0
H193 H 0.20367 0.08752 0.74536 0.0
H194 H 0.15478 0.12887 0.54164 0.0
H195 H 0.16402 0.20184 0.1216 0.0
H196 H 0.07817 0.09531 0.78932 0.0
H197 H 0.07242 0.2067 0.85459 0.0
C198 C 0.81983 0.1516 0.89002 0.0
C199 C 0.81863 0.12683 0.95199 0.0
N200 N 0.8022 0.0984 0.9246 0.0
N201 N 0.80435 0.13854 0.82408 0.0
C202 C 0.79354 0.106 0.8474 0.0
H203 H 0.83228 0.17697 0.89163 0.0
Co204 Co 0.80279 0.16184 0.72361 0.0
C205 C 0.80061 0.09409 0.62099 0.0
O206 O 0.83081 0.09638 0.59927 0.0
N207 N 0.80086 0.18616 0.62181 0.0
C208 C 0.81075 0.20187 0.49277 0.0
C209 C 0.81571 0.17648 0.55164 0.0
C210 C 0.78714 0.21811 0.60345 0.0
N211 N 0.79303 0.22795 0.52567 0.0
O212 O 0.75926 0.175 0.74737 0.0
H213 H 0.83108 0.15373 0.54393 0.0
H214 H 0.77367 0.23427 0.64617 0.0
O215 O 0.78787 0.11726 0.66872 0.0
C216 C 0.7616 0.20257 0.79286 0.0
O217 O 0.78996 0.21721 0.80352 0.0
N218 N 0.84719 0.15255 0.70967 0.0
C219 C 0.91369 0.15075 0.73033 0.0
C220 C 0.89533 0.11998 0.74292 0.0
C221 C 0.86196 0.12155 0.7336 0.0
C222 C 0.86511 0.1827 0.69723 0.0
C223 C 0.89848 0.18223 0.70583 0.0
H224 H 0.84789 0.09827 0.74935 0.0
H225 H 0.85338 0.20797 0.68544 0.0
H226 H 0.78082 0.08762 0.80791 0.0
H227 H 0.8299 0.12895 1.01135 0.0
H228 H 0.82014 0.20168 0.43114 0.0
H229 H 0.90647 0.09541 0.76365 0.0
H230 H 0.91202 0.20672 0.69756 0.0
C231 C 0.16447 0.89323 0.38954 0.0
C232 C 0.1657 0.91802 0.45143 0.0
N233 N 0.18215 0.94643 0.42394 0.0
N234 N 0.17995 0.90624 0.32353 0.0
C235 C 0.19078 0.93879 0.34674 0.0
H236 H 0.15199 0.86788 0.39123 0.0
Co237 Co 0.18145 0.88291 0.22308 0.0
C238 C 0.18366 0.95066 0.12047 0.0
O239 O 0.15344 0.94846 0.0989 0.0
N240 N 0.18334 0.85858 0.1213 0.0
C241 C 0.17343 0.84293 0.99226 0.0
C242 C 0.16851 0.86831 0.05116 0.0
C243 C 0.19701 0.82661 0.1029 0.0
N244 N 0.19111 0.81681 1.02511 0.0
O245 O 0.22498 0.86974 0.24672 0.0
H246 H 0.1532 0.89111 0.04349 0.0
H247 H 0.21046 0.81041 0.14559 0.0
O248 O 0.19639 0.92745 0.16811 0.0
C249 C 0.22262 0.84217 0.29222 0.0
O250 O 0.19425 0.82758 0.30295 0.0
N251 N 0.13706 0.8922 0.20925 0.0
C252 C 0.07057 0.89405 0.23011 0.0
C253 C 0.08895 0.92482 0.24261 0.0
C254 C 0.12232 0.92321 0.23319 0.0
C255 C 0.11912 0.86206 0.19688 0.0
C256 C 0.08575 0.86256 0.2056 0.0
H257 H 0.1364 0.94649 0.24889 0.0
H258 H 0.13083 0.83678 0.18507 0.0
H259 H 0.20351 0.95713 0.30717 0.0
H260 H 0.15445 0.91595 0.51083 0.0
H261 H 0.16404 0.84315 0.93063 0.0
H262 H 0.07783 0.94939 0.26336 0.0
H263 H 0.07219 0.83808 0.1974 0.0
C264 C 0.47563 0.39391 0.28678 0.0
C265 C 0.44734 0.39378 0.30302 0.0
C266 C 0.50859 0.39384 0.2658 0.0
C267 C 0.53689 0.39363 0.24964 0.0
C268 C 0.50826 0.65053 0.78798 0.0
C269 C 0.53655 0.65072 0.80415 0.0
C270 C 0.47531 0.65053 0.76696 0.0
C271 C 0.44702 0.65072 0.75063 0.0
C272 C 0.00846 0.8941 0.26565 0.0
C273 C 0.03676 0.89398 0.2494 0.0
C274 C 0.97552 0.89404 0.28672 0.0
C275 C 0.94723 0.89384 0.30303 0.0
C276 C 0.00874 0.1505 0.78679 0.0
C277 C 0.03704 0.15069 0.803 0.0
C278 C 0.9758 0.15058 0.76576 0.0
C279 C 0.94751 0.15082 0.74952 0.0
C280 C 0.29541 0.53826 1.00339 0.0
C281 C 0.29783 0.56565 0.96514 0.0
C282 C 0.29549 0.50633 0.04924 0.0
C283 C 0.29802 0.47896 0.08753 0.0
C284 C 0.68817 0.50628 0.50443 0.0
C285 C 0.68577 0.47892 0.46608 0.0
C286 C 0.68813 0.53821 0.55031 0.0
C287 C 0.68566 0.56559 0.58856 0.0
C288 C 0.70926 0.53839 1.00374 0.0
C289 C 0.70168 0.56497 0.96647 0.0
C290 C 0.70932 0.50664 0.05088 0.0
C291 C 0.70182 0.48003 0.08814 0.0
C292 C 0.27477 0.50649 0.50273 0.0
C293 C 0.28233 0.4799 0.46544 0.0
C294 C 0.27473 0.53825 0.54985 0.0
C295 C 0.28223 0.56485 0.58712 0.0
C296 C 0.79596 0.03847 1.00412 0.0
C297 C 0.79845 0.06583 0.96577 0.0
C298 C 0.79591 1.00654 0.04999 0.0
C299 C 0.7983 0.97915 0.08823 0.0
C300 C 0.18849 0.03831 0.5492 0.0
C301 C 0.18607 0.06569 0.5875 0.0
C302 C 0.18843 1.00638 0.50332 0.0
C303 C 0.18593 0.97902 0.46502 0.0
C304 C 0.20955 0.03822 1.00271 0.0
C305 C 0.20203 0.06482 0.96544 0.0
C306 C 0.20949 1.00647 0.04987 0.0
C307 C 0.20189 0.97991 0.08716 0.0
C308 C 0.77488 0.03819 0.55058 0.0
C309 C 0.78243 0.06478 0.58781 0.0
C310 C 0.77486 1.00642 0.50349 0.0
C311 C 0.78236 0.9798 0.46624 0.0
C312 C 0.21993 0.30986 0.1669 0.0
C313 C 0.23511 0.32808 0.21385 0.0
C314 C 0.20859 0.28403 0.1109 0.0
C315 C 0.20143 0.25878 0.06883 0.0
C316 C 0.76389 0.73494 0.66737 0.0
C317 C 0.7487 0.71672 0.71432 0.0
C318 C 0.77529 0.76074 0.61139 0.0
C319 C 0.78256 0.78596 0.56932 0.0
C320 C 0.20817 0.76065 0.9416 0.0
C321 C 0.20105 0.78592 0.98368 0.0
C322 C 0.2195 0.73482 0.88558 0.0
C323 C 0.23471 0.7166 0.83865 0.0
C324 C 0.76449 0.30996 0.38637 0.0
C325 C 0.74928 0.32818 0.33948 0.0
C326 C 0.77587 0.28411 0.44229 0.0
C327 C 0.78303 0.25883 0.48429 0.0
C328 C 0.70833 0.78415 0.11142 0.0
C329 C 0.70112 0.75891 0.0694 0.0
C330 C 0.71973 0.80996 0.16739 0.0
C331 C 0.73495 0.82816 0.2143 0.0
C332 C 0.26451 0.23477 0.66685 0.0
C333 C 0.24931 0.21657 0.71381 0.0
C334 C 0.27587 0.26058 0.61084 0.0
C335 C 0.283 0.28585 0.56879 0.0
C336 C 0.72011 0.23492 0.88637 0.0
C337 C 0.7353 0.2167 0.83941 0.0
C338 C 0.70874 0.26075 0.94238 0.0
C339 C 0.70156 0.286 0.98445 0.0
C340 C 0.26408 0.80976 0.38565 0.0
C341 C 0.24891 0.828 0.33873 0.0
C342 C 0.27545 0.78393 0.44163 0.0
C343 C 0.28266 0.7587 0.48372 0.0
loop_
_geom_bond_atom_site_label_1
_geom_bond_atom_site_label_2
_geom_bond_distance
_geom_bond_site_symmetry_2
_ccdc_geom_bond_type
C0 C1 1.351 . S
C0 N3 1.368 . S
C0 H5 0.931 . S
C1 C0 1.351 . S
C1 N2 1.373 . S
C1 H29 0.930 . S
N2 C1 1.373 . S
N2 C4 1.340 . S
N3 C0 1.368 . S
N3 C4 1.321 . S
N3 Co6 2.135 . S
C4 N2 1.340 . S
C4 N3 1.321 . S
C4 H28 0.930 . S
H5 C0 0.931 . S
Co6 N3 2.135 . S
Co6 N9 2.121 . S
Co6 O14 2.055 . S
Co6 O17 2.039 . S
Co6 N20 2.140 . S
C7 O8 1.227 . S
C7 O17 1.265 . S
O8 C7 1.227 . S
N9 Co6 2.121 . S
N9 C11 1.375 . S
N9 C12 1.313 . S
C10 C11 1.338 . S
C10 N13 1.377 . S
C10 H30 0.930 . S
C11 N9 1.375 . S
C11 C10 1.338 . S
C11 H15 0.931 . S
C12 N9 1.313 . S
C12 N13 1.344 . S
C12 H16 0.930 . S
N13 C10 1.377 . S
N13 C12 1.344 . S
O14 Co6 2.055 . S
O14 C18 1.253 . S
H15 C11 0.931 . S
H16 C12 0.930 . S
O17 Co6 2.039 . S
O17 C7 1.265 . S
C18 O14 1.253 . S
C18 O19 1.227 . S
O19 C18 1.227 . S
N20 Co6 2.140 . S
N20 C23 1.346 . S
N20 C24 1.345 . S
C21 C22 1.387 . S
C21 C25 1.391 . S
C22 C21 1.387 . S
C22 C23 1.369 . S
C22 H31 0.929 . S
C23 N20 1.346 . S
C23 C22 1.369 . S
C23 H26 0.928 . S
C24 N20 1.345 . S
C24 C25 1.371 . S
C24 H27 0.931 . S
C25 C21 1.391 . S
C25 C24 1.371 . S
C25 H32 0.930 . S
H26 C23 0.928 . S
H27 C24 0.931 . S
H28 C4 0.930 . S
H29 C1 0.930 . S
H30 C10 0.930 . S
H31 C22 0.929 . S
H32 C25 0.930 . S
C33 C34 1.351 . S
C33 N36 1.368 . S
C33 H38 0.931 . S
C34 C33 1.351 . S
C34 N35 1.373 . S
C34 H62 0.930 . S
N35 C34 1.373 . S
N35 C37 1.340 . S
N36 C33 1.368 . S
N36 C37 1.321 . S
N36 Co39 2.135 . S
C37 N35 1.340 . S
C37 N36 1.321 . S
C37 H61 0.930 . S
H38 C33 0.931 . S
Co39 N36 2.135 . S
Co39 N42 2.121 . S
Co39 O47 2.055 . S
Co39 O50 2.039 . S
Co39 N53 2.140 . S
C40 O41 1.227 . S
C40 O50 1.265 . S
O41 C40 1.227 . S
N42 Co39 2.121 . S
N42 C44 1.375 . S
N42 C45 1.313 . S
C43 C44 1.338 1_554 S
C43 N46 1.377 1_554 S
C43 H63 0.930 . S
C44 N42 1.375 . S
C44 C43 1.338 1_556 S
C44 H48 0.931 . S
C45 N42 1.313 . S
C45 N46 1.344 . S
C45 H49 0.930 . S
N46 C43 1.377 1_556 S
N46 C45 1.344 . S
O47 Co39 2.055 . S
O47 C51 1.253 . S
H48 C44 0.931 . S
H49 C45 0.930 . S
O50 Co39 2.039 . S
O50 C40 1.265 . S
C51 O47 1.253 . S
C51 O52 1.227 . S
O52 C51 1.227 . S
N53 Co39 2.140 . S
N53 C56 1.346 . S
N53 C57 1.345 . S
C54 C55 1.387 . S
C54 C58 1.391 . S
C55 C54 1.387 . S
C55 C56 1.369 . S
C55 H64 0.929 . S
C56 N53 1.346 . S
C56 C55 1.369 . S
C56 H59 0.928 . S
C57 N53 1.345 . S
C57 C58 1.371 . S
C57 H60 0.931 . S
C58 C54 1.391 . S
C58 C57 1.371 . S
C58 H65 0.930 . S
H59 C56 0.928 . S
H60 C57 0.931 . S
H61 C37 0.930 . S
H62 C34 0.930 . S
H63 C43 0.930 . S
H64 C55 0.929 . S
H65 C58 0.930 . S
C66 C67 1.351 . S
C66 N69 1.368 . S
C66 H71 0.931 . S
C67 C66 1.351 . S
C67 N68 1.373 . S
C67 H95 0.930 . S
N68 C67 1.373 . S
N68 C70 1.340 . S
N69 C66 1.368 . S
N69 C70 1.321 . S
N69 Co72 2.135 . S
C70 N68 1.340 . S
C70 N69 1.321 . S
C70 H94 0.930 . S
H71 C66 0.931 . S
Co72 N69 2.135 . S
Co72 N75 2.121 . S
Co72 O80 2.055 . S
Co72 O83 2.039 . S
Co72 N86 2.140 . S
C73 O74 1.227 . S
C73 O83 1.265 . S
O74 C73 1.227 . S
N75 Co72 2.121 . S
N75 C77 1.375 . S
N75 C78 1.313 . S
C76 C77 1.338 . S
C76 N79 1.377 . S
C76 H96 0.930 . S
C77 N75 1.375 . S
C77 C76 1.338 . S
C77 H81 0.931 . S
C78 N75 1.313 . S
C78 N79 1.344 . S
C78 H82 0.930 . S
N79 C76 1.377 . S
N79 C78 1.344 . S
O80 Co72 2.055 . S
O80 C84 1.253 . S
H81 C77 0.931 . S
H82 C78 0.930 . S
O83 Co72 2.039 . S
O83 C73 1.265 . S
C84 O80 1.253 . S
C84 O85 1.227 . S
O85 C84 1.227 . S
N86 Co72 2.140 . S
N86 C89 1.346 . S
N86 C90 1.345 . S
C87 C88 1.387 . S
C87 C91 1.391 . S
C88 C87 1.387 . S
C88 C89 1.369 . S
C88 H97 0.929 . S
C89 N86 1.346 . S
C89 C88 1.369 . S
C89 H92 0.928 . S
C90 N86 1.345 . S
C90 C91 1.371 . S
C90 H93 0.931 . S
C91 C87 1.391 . S
C91 C90 1.371 . S
C91 H98 0.930 . S
H92 C89 0.928 . S
H93 C90 0.931 . S
H94 C70 0.930 . S
H95 C67 0.930 . S
H96 C76 0.930 . S
H97 C88 0.929 . S
H98 C91 0.930 . S
C99 C100 1.351 . S
C99 N102 1.368 . S
C99 H104 0.931 . S
C100 C99 1.351 . S
C100 N101 1.373 . S
C100 H128 0.930 . S
N101 C100 1.373 . S
N101 C103 1.340 . S
N102 C99 1.368 . S
N102 C103 1.321 . S
N102 Co105 2.135 . S
C103 N101 1.340 . S
C103 N102 1.321 . S
C103 H127 0.930 . S
H104 C99 0.931 . S
Co105 N102 2.135 . S
Co105 N108 2.121 . S
Co105 O113 2.055 . S
Co105 O116 2.039 . S
Co105 N119 2.140 . S
C106 O107 1.227 . S
C106 O116 1.265 . S
O107 C106 1.227 . S
N108 Co105 2.121 . S
N108 C110 1.375 . S
N108 C111 1.313 . S
C109 C110 1.338 1_556 S
C109 N112 1.377 1_556 S
C109 H129 0.930 . S
C110 N108 1.375 . S
C110 C109 1.338 1_554 S
C110 H114 0.931 . S
C111 N108 1.313 . S
C111 N112 1.344 . S
C111 H115 0.930 . S
N112 C109 1.377 1_554 S
N112 C111 1.344 . S
O113 Co105 2.055 . S
O113 C117 1.253 . S
H114 C110 0.931 . S
H115 C111 0.930 . S
O116 Co105 2.039 . S
O116 C106 1.265 . S
C117 O113 1.253 . S
C117 O118 1.227 . S
O118 C117 1.227 . S
N119 Co105 2.140 . S
N119 C122 1.346 . S
N119 C123 1.345 . S
C120 C121 1.387 . S
C120 C124 1.391 . S
C121 C120 1.387 . S
C121 C122 1.369 . S
C121 H130 0.929 . S
C122 N119 1.346 . S
C122 C121 1.369 . S
C122 H125 0.928 . S
C123 N119 1.345 . S
C123 C124 1.371 . S
C123 H126 0.931 . S
C124 C120 1.391 . S
C124 C123 1.371 . S
C124 H131 0.930 . S
H125 C122 0.928 . S
H126 C123 0.931 . S
H127 C103 0.930 . S
H128 C100 0.930 . S
H129 C109 0.930 . S
H130 C121 0.929 . S
H131 C124 0.930 . S
C132 C133 1.351 . S
C132 N135 1.368 . S
C132 H137 0.931 . S
C133 C132 1.351 . S
C133 N134 1.373 . S
C133 H161 0.930 . S
N134 C133 1.373 . S
N134 C136 1.340 . S
N135 C132 1.368 . S
N135 C136 1.321 . S
N135 Co138 2.135 . S
C136 N134 1.340 . S
C136 N135 1.321 . S
C136 H160 0.930 . S
H137 C132 0.931 . S
Co138 N135 2.135 . S
Co138 N141 2.121 . S
Co138 O146 2.055 . S
Co138 O149 2.039 . S
Co138 N152 2.140 . S
C139 O140 1.227 . S
C139 O149 1.265 . S
O140 C139 1.227 . S
N141 Co138 2.121 . S
N141 C143 1.375 . S
N141 C144 1.313 . S
C142 C143 1.338 . S
C142 N145 1.377 . S
C142 H162 0.930 . S
C143 N141 1.375 . S
C143 C142 1.338 . S
C143 H147 0.931 . S
C144 N141 1.313 . S
C144 N145 1.344 . S
C144 H148 0.930 . S
N145 C142 1.377 . S
N145 C144 1.344 . S
O146 Co138 2.055 . S
O146 C150 1.253 . S
H147 C143 0.931 . S
H148 C144 0.930 . S
O149 Co138 2.039 . S
O149 C139 1.265 . S
C150 O146 1.253 . S
C150 O151 1.227 . S
O151 C150 1.227 . S
N152 Co138 2.140 . S
N152 C155 1.346 . S
N152 C156 1.345 . S
C153 C154 1.387 . S
C153 C157 1.391 . S
C154 C153 1.387 . S
C154 C155 1.369 . S
C154 H163 0.929 . S
C155 N152 1.346 . S
C155 C154 1.369 . S
C155 H158 0.928 . S
C156 N152 1.345 . S
C156 C157 1.371 . S
C156 H159 0.931 . S
C157 C153 1.391 . S
C157 C156 1.371 . S
C157 H164 0.930 . S
H158 C155 0.928 . S
H159 C156 0.931 . S
H160 C136 0.930 . S
H161 C133 0.930 . S
H162 C142 0.930 . S
H163 C154 0.929 . S
H164 C157 0.930 . S
C165 C166 1.351 . S
C165 N168 1.368 . S
C165 H170 0.931 . S
C166 C165 1.351 . S
C166 N167 1.373 . S
C166 H194 0.930 . S
N167 C166 1.373 . S
N167 C169 1.340 . S
N168 C165 1.368 . S
N168 C169 1.321 . S
N168 Co171 2.135 . S
C169 N167 1.340 . S
C169 N168 1.321 . S
C169 H193 0.930 . S
H170 C165 0.931 . S
Co171 N168 2.135 . S
Co171 N174 2.121 . S
Co171 O179 2.055 . S
Co171 O182 2.039 . S
Co171 N185 2.140 . S
C172 O173 1.227 . S
C172 O182 1.265 . S
O173 C172 1.227 . S
N174 Co171 2.121 . S
N174 C176 1.375 . S
N174 C177 1.313 . S
C175 C176 1.338 1_554 S
C175 N178 1.377 1_554 S
C175 H195 0.930 . S
C176 N174 1.375 . S
C176 C175 1.338 1_556 S
C176 H180 0.931 . S
C177 N174 1.313 . S
C177 N178 1.344 . S
C177 H181 0.930 . S
N178 C175 1.377 1_556 S
N178 C177 1.344 . S
O179 Co171 2.055 . S
O179 C183 1.253 . S
H180 C176 0.931 . S
H181 C177 0.930 . S
O182 Co171 2.039 . S
O182 C172 1.265 . S
C183 O179 1.253 . S
C183 O184 1.227 . S
O184 C183 1.227 . S
N185 Co171 2.140 . S
N185 C188 1.346 . S
N185 C189 1.345 . S
C186 C187 1.387 . S
C186 C190 1.391 . S
C187 C186 1.387 . S
C187 C188 1.369 . S
C187 H196 0.929 . S
C188 N185 1.346 . S
C188 C187 1.369 . S
C188 H191 0.928 . S
C189 N185 1.345 . S
C189 C190 1.371 . S
C189 H192 0.931 . S
C190 C186 1.391 . S
C190 C189 1.371 . S
C190 H197 0.930 . S
H191 C188 0.928 . S
H192 C189 0.931 . S
H193 C169 0.930 . S
H194 C166 0.930 . S
H195 C175 0.930 . S
H196 C187 0.929 . S
H197 C190 0.930 . S
C198 C199 1.351 . S
C198 N201 1.368 . S
C198 H203 0.931 . S
C199 C198 1.351 . S
C199 N200 1.373 . S
C199 H227 0.930 . S
N200 C199 1.373 . S
N200 C202 1.340 . S
N201 C198 1.368 . S
N201 C202 1.321 . S
N201 Co204 2.135 . S
C202 N200 1.340 . S
C202 N201 1.321 . S
C202 H226 0.930 . S
H203 C198 0.931 . S
Co204 N201 2.135 . S
Co204 N207 2.121 . S
Co204 O212 2.055 . S
Co204 O215 2.039 . S
Co204 N218 2.140 . S
C205 O206 1.227 . S
C205 O215 1.265 . S
O206 C205 1.227 . S
N207 Co204 2.121 . S
N207 C209 1.375 . S
N207 C210 1.313 . S
C208 C209 1.338 . S
C208 N211 1.377 . S
C208 H228 0.930 . S
C209 N207 1.375 . S
C209 C208 1.338 . S
C209 H213 0.931 . S
C210 N207 1.313 . S
C210 N211 1.344 . S
C210 H214 0.930 . S
N211 C208 1.377 . S
N211 C210 1.344 . S
O212 Co204 2.055 . S
O212 C216 1.253 . S
H213 C209 0.931 . S
H214 C210 0.930 . S
O215 Co204 2.039 . S
O215 C205 1.265 . S
C216 O212 1.253 . S
C216 O217 1.227 . S
O217 C216 1.227 . S
N218 Co204 2.140 . S
N218 C221 1.346 . S
N218 C222 1.345 . S
C219 C220 1.387 . S
C219 C223 1.391 . S
C220 C219 1.387 . S
C220 C221 1.369 . S
C220 H229 0.929 . S
C221 N218 1.346 . S
C221 C220 1.369 . S
C221 H224 0.928 . S
C222 N218 1.345 . S
C222 C223 1.371 . S
C222 H225 0.931 . S
C223 C219 1.391 . S
C223 C222 1.371 . S
C223 H230 0.930 . S
H224 C221 0.928 . S
H225 C222 0.931 . S
H226 C202 0.930 . S
H227 C199 0.930 . S
H228 C208 0.930 . S
H229 C220 0.929 . S
H230 C223 0.930 . S
C231 C232 1.351 . S
C231 N234 1.368 . S
C231 H236 0.931 . S
C232 C231 1.351 . S
C232 N233 1.373 . S
C232 H260 0.930 . S
N233 C232 1.373 . S
N233 C235 1.340 . S
N234 C231 1.368 . S
N234 C235 1.321 . S
N234 Co237 2.135 . S
C235 N233 1.340 . S
C235 N234 1.321 . S
C235 H259 0.930 . S
H236 C231 0.931 . S
Co237 N234 2.135 . S
Co237 N240 2.121 . S
Co237 O245 2.055 . S
Co237 O248 2.039 . S
Co237 N251 2.140 . S
C238 O239 1.227 . S
C238 O248 1.265 . S
O239 C238 1.227 . S
N240 Co237 2.121 . S
N240 C242 1.375 . S
N240 C243 1.313 . S
C241 C242 1.338 1_556 S
C241 N244 1.377 1_556 S
C241 H261 0.930 . S
C242 N240 1.375 . S
C242 C241 1.338 1_554 S
C242 H246 0.931 . S
C243 N240 1.313 . S
C243 N244 1.344 . S
C243 H247 0.930 . S
N244 C241 1.377 1_554 S
N244 C243 1.344 . S
O245 Co237 2.055 . S
O245 C249 1.253 . S
H246 C242 0.931 . S
H247 C243 0.930 . S
O248 Co237 2.039 . S
O248 C238 1.265 . S
C249 O245 1.253 . S
C249 O250 1.227 . S
O250 C249 1.227 . S
N251 Co237 2.140 . S
N251 C254 1.346 . S
N251 C255 1.345 . S
C252 C253 1.387 . S
C252 C256 1.391 . S
C253 C252 1.387 . S
C253 C254 1.369 . S
C253 H262 0.929 . S
C254 N251 1.346 . S
C254 C253 1.369 . S
C254 H257 0.928 . S
C255 N251 1.345 . S
C255 C256 1.371 . S
C255 H258 0.931 . S
C256 C252 1.391 . S
C256 C255 1.371 . S
C256 H263 0.930 . S
H257 C254 0.928 . S
H258 C255 0.931 . S
H259 C235 0.930 . S
H260 C232 0.930 . S
H261 C241 0.930 . S
H262 C253 0.929 . S
H263 C256 0.930 . S
C264 C265 1.170 . S
C264 C266 1.380 . S
C265 C264 1.170 . S
C266 C264 1.380 . S
C266 C267 1.170 . S
C267 C266 1.170 . S
C268 C269 1.170 . S
C268 C270 1.380 . S
C269 C268 1.170 . S
C270 C268 1.380 . S
C270 C271 1.170 . S
C271 C270 1.170 . S
C272 C273 1.170 . S
C272 C274 1.380 1_455 S
C273 C272 1.170 . S
C274 C272 1.380 1_655 S
C274 C275 1.170 . S
C275 C274 1.170 . S
C276 C277 1.170 . S
C276 C278 1.380 1_455 S
C277 C276 1.170 . S
C278 C276 1.380 1_655 S
C278 C279 1.170 . S
C279 C278 1.170 . S
C280 C281 1.170 . S
C280 C282 1.380 1_556 S
C281 C280 1.170 . S
C282 C280 1.380 1_554 S
C282 C283 1.170 . S
C283 C282 1.170 . S
C284 C285 1.170 . S
C284 C286 1.380 . S
C285 C284 1.170 . S
C286 C284 1.380 . S
C286 C287 1.170 . S
C287 C286 1.170 . S
C288 C289 1.170 . S
C288 C290 1.380 1_556 S
C289 C288 1.170 . S
C290 C288 1.380 1_554 S
C290 C291 1.170 . S
C291 C290 1.170 . S
C292 C293 1.170 . S
C292 C294 1.380 . S
C293 C292 1.170 . S
C294 C292 1.380 . S
C294 C295 1.170 . S
C295 C294 1.170 . S
C296 C297 1.170 . S
C296 C298 1.380 1_546 S
C297 C296 1.170 . S
C298 C296 1.380 1_564 S
C298 C299 1.170 . S
C299 C298 1.170 . S
C300 C301 1.170 . S
C300 C302 1.380 1_545 S
C301 C300 1.170 . S
C302 C300 1.380 1_565 S
C302 C303 1.170 . S
C303 C302 1.170 . S
C304 C305 1.170 . S
C304 C306 1.380 1_546 S
C305 C304 1.170 . S
C306 C304 1.380 1_564 S
C306 C307 1.170 . S
C307 C306 1.170 . S
C308 C309 1.170 . S
C308 C310 1.380 1_545 S
C309 C308 1.170 . S
C310 C308 1.380 1_565 S
C310 C311 1.170 . S
C311 C310 1.170 . S
C312 C313 1.170 . S
C312 C314 1.380 . S
C313 C312 1.170 . S
C314 C312 1.380 . S
C314 C315 1.170 . S
C315 C314 1.170 . S
C316 C317 1.170 . S
C316 C318 1.380 . S
C317 C316 1.170 . S
C318 C316 1.380 . S
C318 C319 1.170 . S
C319 C318 1.170 . S
C320 C321 1.170 . S
C320 C322 1.380 . S
C321 C320 1.170 . S
C322 C320 1.380 . S
C322 C323 1.170 . S
C323 C322 1.170 . S
C324 C325 1.170 . S
C324 C326 1.380 . S
C325 C324 1.170 . S
C326 C324 1.380 . S
C326 C327 1.170 . S
C327 C326 1.170 . S
C328 C329 1.170 . S
C328 C330 1.380 . S
C329 C328 1.170 . S
C330 C328 1.380 . S
C330 C331 1.170 . S
C331 C330 1.170 . S
C332 C333 1.170 . S
C332 C334 1.380 . S
C333 C332 1.170 . S
C334 C332 1.380 . S
C334 C335 1.170 . S
C335 C334 1.170 . S
C336 C337 1.170 . S
C336 C338 1.380 . S
C337 C336 1.170 . S
C338 C336 1.380 . S
C338 C339 1.170 . S
C339 C338 1.170 . S
C340 C341 1.170 . S
C340 C342 1.380 . S
C341 C340 1.170 . S
C342 C340 1.380 . S
C342 C343 1.170 . S
C343 C342 1.170 . S
C265 C21 1.528 . S
C267 C120 1.534 . S
C269 C54 1.537 . S
C271 C87 1.523 . S
C273 C252 1.534 . S
C275 C153 1.527 . S
C277 C186 1.521 . S
C279 C219 1.530 . S
C281 N68 1.128 . S
C283 N2 1.097 . S
C285 N101 1.094 . S
C287 N35 1.142 . S
C289 C40 1.653 . S
C291 C106 1.649 . S
C293 C7 1.654 . S
C295 C73 1.650 . S
C297 N200 1.109 . S
C299 N134 1.133 . S
C301 N167 1.089 . S
C303 N233 1.141 . S
C305 C172 1.657 . S
C307 C238 1.655 . S
C309 C205 1.627 . S
C311 C139 1.629 . S
C313 C18 1.425 . S
C315 N178 1.431 1_554 S
C317 C51 1.425 . S
C319 N145 1.431 . S
C321 N244 1.405 1_556 S
C323 C84 1.446 . S
C325 C117 1.444 . S
C327 N211 1.417 . S
C329 N46 1.405 1_554 S
C331 C150 1.446 . S
C333 C183 1.432 . S
C335 N13 1.431 . S
C337 C216 1.425 . S
C339 N112 1.431 1_556 S
C341 C249 1.422 . S
C343 N79 1.423 . S
