# Generated by pormake.
# Topology tfs, (6)-cn, num edge types: 1
# Building blocks:
#     Node 0, Type 0, BuildingBlock: BETDAH_clean_sbu_0, # of connection points: 6
#     Node 1, Type 0, BuildingBlock: BETDAH_clean_sbu_0, # of connection points: 6
#     Node 2, Type 0, BuildingBlock: BETDAH_clean_sbu_0, # of connection points: 6
#     Node 3, Type 0, BuildingBlock: BETDAH_clean_sbu_0, # of connection points: 6
#     Node 4, Type 0, BuildingBlock: BETDAH_clean_sbu_0, # of connection points: 6
#     Node 5, Type 0, BuildingBlock: BETDAH_clean_sbu_0, # of connection points: 6
#     Edge 6, Type (0, 0), BuildingBlock: XIVTED_clean_linker_0, # of connection points: 2
#     Edge 7, Type (0, 0), BuildingBlock: XIVTED_clean_linker_0, # of connection points: 2
#     Edge 8, Type (0, 0), BuildingBlock: XIVTED_clean_linker_0, # of connection points: 2
#     Edge 9, Type (0, 0), BuildingBlock: XIVTED_clean_linker_0, # of connection points: 2
#     Edge 10, Type (0, 0), BuildingBlock: XIVTED_clean_linker_0, # of connection points: 2
#     Edge 11, Type (0, 0), BuildingBlock: XIVTED_clean_linker_0, # of connection points: 2
#     Edge 12, Type (0, 0), BuildingBlock: XIVTED_clean_linker_0, # of connection points: 2
#     Edge 13, Type (0, 0), BuildingBlock: XIVTED_clean_linker_0, # of connection points: 2
#     Edge 14, Type (0, 0), BuildingBlock: XIVTED_clean_linker_0, # of connection points: 2
#     Edge 15, Type (0, 0), BuildingBlock: XIVTED_clean_linker_0, # of connection points: 2
#     Edge 16, Type (0, 0), BuildingBlock: XIVTED_clean_linker_0, # of connection points: 2
#     Edge 17, Type (0, 0), BuildingBlock: XIVTED_clean_linker_0, # of connection points: 2
#     Edge 18, Type (0, 0), BuildingBlock: XIVTED_clean_linker_0, # of connection points: 2
#     Edge 19, Type (0, 0), BuildingBlock: XIVTED_clean_linker_0, # of connection points: 2
#     Edge 20, Type (0, 0), BuildingBlock: XIVTED_clean_linker_0, # of connection points: 2
#     Edge 21, Type (0, 0), BuildingBlock: XIVTED_clean_linker_0, # of connection points: 2
#     Edge 22, Type (0, 0), BuildingBlock: XIVTED_clean_linker_0, # of connection points: 2
#     Edge 23, Type (0, 0), BuildingBlock: XIVTED_clean_linker_0, # of connection points: 2
# Relax obj value: 0.554
# Max RMSD: 0.463
# Mean RMSD: 0.362
data_MOF--net-tfs--node1-BETDAH_clean_sbu_0--edge1-XIVTED_clean_linker_0
_symmetry_space_group_name_H-M    P1
_symmetry_Int_Tables_number       1
_symmetry_cell_setting            triclinic
loop_
_symmetry_equiv_pos_as_xyz
'x, y, z'
_cell_length_a     53.791769
_cell_length_b     50.465315
_cell_length_c     12.921112
_cell_angle_alpha  98.671964
_cell_angle_beta   92.234829
_cell_angle_gamma 127.53518
loop_
_atom_site_label
_atom_site_type_symbol
_atom_site_fract_x
_atom_site_fract_y
_atom_site_fract_z
_atom_type_partial_charge
Ho0 Ho 0.34878 0.47454 0.65281 0.0
Ho1 Ho 0.32906 0.51835 0.74266 0.0
C2 C 0.27398 0.44435 0.61097 0.0
C3 C 0.35766 0.43009 0.59494 0.0
C4 C 0.36305 0.40486 0.55782 0.0
C5 C 0.36154 0.38431 0.62362 0.0
C6 C 0.36718 0.36095 0.58801 0.0
C7 C 0.37496 0.35788 0.48608 0.0
C8 C 0.37678 0.37898 0.42127 0.0
C9 C 0.37065 0.40183 0.45624 0.0
C10 C 0.36168 0.52329 0.55257 0.0
C11 C 0.40424 0.55175 0.77415 0.0
C12 C 0.32191 0.56384 0.80513 0.0
C13 C 0.31778 0.58999 0.84093 0.0
C14 C 0.30506 0.59847 0.7678 0.0
C15 C 0.30107 0.62315 0.80146 0.0
C16 C 0.30995 0.64008 0.90888 0.0
C17 C 0.32294 0.63178 -0.01814 0.0
C18 C 0.32669 0.60689 0.9483 0.0
C19 C 0.32054 0.47298 0.85519 0.0
O20 O 0.29406 0.43739 0.62265 0.0
O21 O 0.28356 0.47591 0.63676 0.0
O22 O 0.34972 0.44173 0.52754 0.0
O23 O 0.35994 0.44208 0.69532 0.0
O24 O 0.3788 0.51326 0.55675 0.0
O25 O 0.3366 0.50381 0.58849 0.0
O26 O 0.38266 0.55662 0.77188 0.0
O27 O 0.39652 0.5209 0.74447 0.0
O28 O 0.32941 0.55163 0.87158 0.0
O29 O 0.31814 0.55099 0.70451 0.0
O30 O 0.30037 0.47855 0.83625 0.0
O31 O 0.34384 0.49154 0.81008 0.0
H32 H 0.35576 0.38608 0.70243 0.0
H33 H 0.36503 0.34505 0.64033 0.0
H34 H 0.38351 0.37843 0.34362 0.0
H35 H 0.37243 0.41763 0.40403 0.0
H36 H 0.29808 0.58597 0.68447 0.0
H37 H 0.29137 0.62928 0.74309 0.0
H38 H 0.32976 0.64417 0.06525 0.0
H39 H 0.33664 0.60094 0.00646 0.0
Ho40 Ho 0.87087 0.17097 0.29912 0.0
Ho41 Ho 0.80001 0.14203 0.20503 0.0
C42 C 0.81063 0.10163 0.35541 0.0
C43 C 0.93075 0.20695 0.37324 0.0
C44 C 0.96609 0.22845 0.40196 0.0
C45 C 0.98147 0.23627 0.50527 0.0
C46 C 1.01501 0.25843 0.52972 0.0
C47 C 0.03386 0.27334 0.45146 0.0
C48 C 1.01822 0.26468 0.34794 0.0
C49 C 0.98505 0.24274 0.32375 0.0
C50 C 0.84659 0.13046 0.09778 0.0
C51 C 0.8594 0.21044 0.1606 0.0
C52 C 0.74753 0.11979 0.08947 0.0
C53 C 0.72208 0.12337 0.09202 0.0
C54 C 0.7117 0.12827 0.00069 0.0
C55 C 0.6877 0.13164 -0.00093 0.0
C56 C 0.67335 0.13032 0.08913 0.0
C57 C 0.68392 0.12551 0.18105 0.0
C58 C 0.70801 0.12211 0.18254 0.0
C59 C 0.82239 0.18069 0.40593 0.0
O60 O 0.84173 0.12744 0.38139 0.0
O61 O 0.79132 0.09984 0.28098 0.0
O62 O 0.91912 0.20599 0.28105 0.0
O63 O 0.90913 0.18733 0.42927 0.0
O64 O 0.8761 0.15036 0.14104 0.0
O65 O 0.8314 0.12918 0.17092 0.0
O66 O 0.83278 0.1806 0.11312 0.0
O67 O 0.87399 0.21412 0.25271 0.0
O68 O 0.74905 0.10289 0.1538 0.0
O69 O 0.77561 0.14707 0.08163 0.0
O70 O 0.79329 0.1627 0.35852 0.0
O71 O 0.83858 0.18307 0.33443 0.0
H72 H 0.96766 0.22583 0.56745 0.0
H73 H 1.02616 0.26458 0.6105 0.0
H74 H 0.03164 0.27483 0.28469 0.0
H75 H 0.97429 0.23724 0.24289 0.0
H76 H 0.72214 0.12934 0.92983 0.0
H77 H 0.68007 0.13475 0.92621 0.0
H78 H 0.67392 0.12486 0.25262 0.0
H79 H 0.71569 0.11864 0.2545 0.0
Ho80 Ho 0.68308 0.82556 0.71683 0.0
Ho81 Ho 0.65678 0.85567 0.85433 0.0
C82 C 0.70985 0.90519 0.72717 0.0
C83 C 0.70494 0.80742 0.57312 0.0
C84 C 0.73459 0.81231 0.57166 0.0
C85 C 0.74487 0.81066 0.475 0.0
C86 C 0.77211 0.81317 0.47232 0.0
C87 C 0.78938 0.81737 0.56651 0.0
C88 C 0.77966 0.82051 0.66384 0.0
C89 C 0.75249 0.81812 0.66641 0.0
C90 C 0.70416 0.84379 0.92985 0.0
C91 C 0.6201 0.77383 0.8033 0.0
C92 C 0.64069 0.87406 0.01865 0.0
C93 C 0.63635 0.89877 0.06539 0.0
C94 C 0.63257 0.90172 0.17208 0.0
C95 C 0.62348 0.92119 0.21409 0.0
C96 C 0.61807 0.93779 0.14945 0.0
C97 C 0.6243 0.93675 0.04469 0.0
C98 C 0.63345 0.91737 0.00297 0.0
C99 C 0.63633 0.8374 0.64175 0.0
O100 O 0.70798 0.87849 0.68094 0.0
O101 O 0.69441 0.90398 0.80594 0.0
O102 O 0.68634 0.78762 0.6344 0.0
O103 O 0.70762 0.8352 0.58177 0.0
O104 O 0.70119 0.81938 0.86547 0.0
O105 O 0.69914 0.85898 0.87453 0.0
O106 O 0.62942 0.80104 0.87599 0.0
O107 O 0.63422 0.77752 0.71903 0.0
O108 O 0.66994 0.88632 0.01198 0.0
O109 O 0.62034 0.85133 0.93354 0.0
O110 O 0.63983 0.86281 0.70376 0.0
O111 O 0.64097 0.82224 0.69827 0.0
H112 H 0.73138 0.80648 0.40142 0.0
H113 H 0.77871 0.81014 0.39587 0.0
H114 H 0.79264 0.82403 0.7376 0.0
H115 H 0.74502 0.81997 0.74203 0.0
H116 H 0.63519 0.88772 0.22138 0.0
H117 H 0.61924 0.92193 0.29538 0.0
H118 H 0.61998 0.94891 -0.00755 0.0
H119 H 0.63661 0.91542 0.92059 0.0
Ho120 Ho 0.85713 0.57848 0.01048 0.0
Ho121 Ho 0.8809 0.53402 -0.01004 0.0
C122 C 0.92051 0.60608 0.16465 0.0
C123 C 0.83564 0.61147 0.0615 0.0
C124 C 0.84789 0.64405 0.13152 0.0
C125 C 0.86497 0.65453 0.23381 0.0
C126 C 0.8746 0.68471 0.30112 0.0
C127 C 0.8676 0.70491 0.2665 0.0
C128 C 0.85195 0.69513 0.16205 0.0
C129 C 0.84215 0.6649 0.09523 0.0
C130 C 0.89335 0.58842 0.86058 0.0
C131 C 0.81621 0.50643 0.84338 0.0
C132 C 0.90247 0.50103 0.9359 0.0
C133 C 0.89393 0.46802 0.94894 0.0
C134 C 0.88616 0.44341 0.85885 0.0
C135 C 0.8783 0.41207 0.86914 0.0
C136 C 0.87842 0.40488 0.97011 0.0
C137 C 0.88571 0.42947 0.0602 0.0
C138 C 0.89314 0.46057 0.04973 0.0
C139 C 0.84004 0.51813 0.13034 0.0
O140 O 0.89909 0.61002 0.14026 0.0
O141 O 0.92006 0.5809 0.11331 0.0
O142 O 0.84947 0.61395 -0.02146 0.0
O143 O 0.82992 0.5872 0.10715 0.0
O144 O 0.87078 0.5909 0.85467 0.0
O145 O 0.8969 0.58221 0.94861 0.0
O146 O 0.84103 0.50683 0.85149 0.0
O147 O 0.81556 0.52935 0.90529 0.0
O148 O 0.91479 0.52525 0.0217 0.0
O149 O 0.88161 0.49907 0.87286 0.0
O150 O 0.85764 0.50867 0.12362 0.0
O151 O 0.84246 0.53105 0.05186 0.0
H152 H 0.87021 0.63908 0.2626 0.0
H153 H 0.88681 0.69181 0.38099 0.0
H154 H 0.8458 0.70989 0.13357 0.0
H155 H 0.82931 0.65732 0.01605 0.0
H156 H 0.88628 0.4485 0.78027 0.0
H157 H 0.87223 0.39357 0.79788 0.0
H158 H 0.88662 0.42525 0.1395 0.0
H159 H 0.89869 0.4789 0.12077 0.0
Ho160 Ho 0.23283 0.83033 0.94939 0.0
Ho161 Ho 0.30722 0.88401 0.93246 0.0
C162 C 0.25539 0.88574 0.80387 0.0
C163 C 0.17678 0.8027 -0.00685 0.0
C164 C 0.14847 0.7903 0.92006 0.0
C165 C 0.12073 0.78137 0.95704 0.0
C166 C 0.09387 0.7689 0.8848 0.0
C167 C 0.09456 0.76528 0.77485 0.0
C168 C 0.12301 0.77585 0.7393 0.0
C169 C 0.14966 0.78838 0.8112 0.0
C170 C 0.24827 0.81451 0.76637 0.0
C171 C 0.28196 0.81852 0.03594 0.0
C172 C 0.36432 0.92114 0.8918 0.0
C173 C 0.39512 0.93622 0.95332 0.0
C174 C 0.42073 0.94601 0.90061 0.0
C175 C 0.44906 0.95634 0.95612 0.0
C176 C 0.45214 0.957 0.06534 0.0
C177 C 0.42665 0.94812 0.11862 0.0
C178 C 0.39827 0.93772 0.06286 0.0
C179 C 0.28987 0.89647 0.1152 0.0
O180 O 0.23189 0.86191 0.84634 0.0
O181 O 0.28494 0.89677 0.82164 0.0
O182 O 0.18768 0.78555 0.97261 0.0
O183 O 0.19918 0.83593 0.01238 0.0
O184 O 0.21938 0.80065 0.78143 0.0
O185 O 0.26609 0.83192 0.85485 0.0
O186 O 0.30466 0.843 -0.00787 0.0
O187 O 0.25442 0.81258 0.0431 0.0
O188 O 0.35023 0.9338 0.92665 0.0
O189 O 0.34508 0.88764 0.86557 0.0
O190 O 0.31807 0.90599 0.10782 0.0
O191 O 0.27356 0.88319 0.02379 0.0
H192 H 0.1197 0.78355 0.04119 0.0
H193 H 0.07241 0.76143 0.91464 0.0
H194 H 0.1244 0.77306 0.65541 0.0
H195 H 0.17105 0.79601 0.78113 0.0
H196 H 0.41842 0.94447 0.8158 0.0
H197 H 0.46801 0.96228 0.91233 0.0
H198 H 0.4284 0.9485 0.2027 0.0
H199 H 0.37852 0.92987 0.10453 0.0
Ho200 Ho 0.44521 0.15202 0.17186 0.0
Ho201 Ho 0.48952 0.21672 0.08705 0.0
C202 C 0.4353 0.2105 0.19637 0.0
C203 C 0.41042 0.10595 0.27786 0.0
C204 C 0.37682 0.08068 0.28712 0.0
C205 C 0.35893 0.09041 0.32726 0.0
C206 C 0.3287 0.06581 0.34987 0.0
C207 C 0.31613 0.03125 0.33376 0.0
C208 C 0.33326 0.0215 0.28588 0.0
C209 C 0.36327 0.04596 0.26323 0.0
C210 C 0.42883 0.14717 0.96409 0.0
C211 C 0.50658 0.16463 0.0918 0.0
C212 C 0.51817 0.25685 0.95866 0.0
C213 C 0.54641 0.27213 0.90817 0.0
C214 C 0.5447 0.27732 0.80549 0.0
C215 C 0.57204 0.29507 0.75954 0.0
C216 C 0.60145 0.30787 0.81598 0.0
C217 C 0.60259 0.30056 0.91615 0.0
C218 C 0.57518 0.28267 0.96183 0.0
C219 C 0.50376 0.22212 0.29672 0.0
O220 O 0.43174 0.18584 0.23675 0.0
O221 O 0.45215 0.22191 0.11964 0.0
O222 O 0.41877 0.09989 0.18928 0.0
O223 O 0.42411 0.13843 0.31294 0.0
O224 O 0.42496 0.12248 -0.00016 0.0
O225 O 0.43961 0.17168 0.04086 0.0
O226 O 0.50968 0.18824 0.04635 0.0
O227 O 0.48619 0.15087 0.15862 0.0
O228 O 0.52253 0.26795 0.06137 0.0
O229 O 0.49672 0.22367 0.92759 0.0
O230 O 0.5082 0.24696 0.25889 0.0
O231 O 0.49434 0.1978 0.22098 0.0
H232 H 0.36874 0.11707 0.34555 0.0
H233 H 0.31597 0.07413 0.38543 0.0
H234 H 0.32481 0.99536 0.27374 0.0
H235 H 0.37666 0.03789 0.23232 0.0
H236 H 0.52241 0.26864 0.76228 0.0
H237 H 0.57039 0.29978 0.68144 0.0
H238 H 0.62493 0.31025 0.9618 0.0
H239 H 0.5767 0.27822 0.04046 0.0
H240 H 0.41839 0.24142 0.09122 0.0
H241 H 0.40014 0.3346 0.60157 0.0
H242 H 0.42192 0.2189 0.39796 0.0
H243 H 0.36399 0.32365 0.28032 0.0
H244 H 0.41114 0.29533 0.53364 0.0
H245 H 0.40189 0.27494 0.16329 0.0
C246 C 0.41539 0.24325 0.17376 0.0
C247 C 0.42147 0.22716 0.23843 0.0
C248 C 0.40073 0.30155 0.47839 0.0
C249 C 0.40303 0.26636 0.32261 0.0
C250 C 0.39422 0.32392 0.51706 0.0
C251 C 0.38123 0.33309 0.44708 0.0
C252 C 0.39469 0.28849 0.36865 0.0
C253 C 0.37477 0.31848 0.33805 0.0
C254 C 0.40595 0.26247 0.21495 0.0
C255 C 0.41723 0.23061 0.34498 0.0
N256 N 0.38179 0.29732 0.30258 0.0
N257 N 0.40863 0.25018 0.38416 0.0
H258 H 0.23728 0.37835 0.6438 0.0
H259 H 0.07415 0.33157 0.37615 0.0
H260 H 0.23103 0.44738 0.5074 0.0
H261 H 0.0755 0.27266 0.58288 0.0
H262 H 0.13202 0.37075 0.40859 0.0
H263 H 0.17873 0.33595 0.60698 0.0
C264 C 0.22367 0.38434 0.60436 0.0
C265 C 0.23914 0.41641 0.57792 0.0
C266 C 0.11976 0.34932 0.44721 0.0
C267 C 0.17226 0.36819 0.5363 0.0
C268 C 0.08654 0.32667 0.42815 0.0
C269 C 0.06957 0.29835 0.47606 0.0
C270 C 0.13666 0.34393 0.51474 0.0
C271 C 0.08737 0.29412 0.54451 0.0
C272 C 0.19027 0.36029 0.58443 0.0
C273 C 0.22022 0.42302 0.52903 0.0
N274 N 0.11988 0.31651 0.56138 0.0
N275 N 0.18798 0.39922 0.50968 0.0
H276 H 0.83815 0.07516 0.42711 0.0
H277 H 0.70184 0.9543 0.745 0.0
H278 H 0.75194 0.064 0.41523 0.0
H279 H 0.75554 0.92592 0.59879 0.0
H280 H 0.72658 1.00234 0.65577 0.0
H281 H 0.81464 0.02795 0.52057 0.0
C282 C 0.8143 0.06281 0.4443 0.0
C283 C 0.79679 0.0732 0.41209 0.0
C284 C 0.73306 0.98569 0.6439 0.0
C285 C 0.77016 0.01987 0.5213 0.0
C286 C 0.71919 0.95843 0.69554 0.0
C287 C 0.72683 0.93612 0.68046 0.0
C288 C 0.75527 0.99127 0.57816 0.0
C289 C 0.74907 0.94252 0.6135 0.0
C290 C 0.80091 0.03585 0.49728 0.0
C291 C 0.76605 0.05641 0.43704 0.0
N292 N 0.76269 0.96962 0.56554 0.0
N293 N 0.75382 0.0308 0.49093 0.0
H294 H 0.89033 0.76802 0.23432 0.0
H295 H 0.8003 0.78202 0.67507 0.0
H296 H 0.85525 0.7062 0.46908 0.0
H297 H 0.83622 0.8451 0.44363 0.0
H298 H 0.8339 0.76606 0.63423 0.0
H299 H 0.88443 0.80759 0.34076 0.0
C300 C 0.88208 0.76324 0.30954 0.0
C301 C 0.87255 0.73343 0.34182 0.0
C302 C 0.83503 0.78401 0.59396 0.0
C303 C 0.86544 0.77824 0.46331 0.0
C304 C 0.81596 0.79334 0.61779 0.0
C305 C 0.81494 0.8143 0.56073 0.0
C306 C 0.85281 0.79536 0.51156 0.0
C307 C 0.83563 0.82804 0.48713 0.0
C308 C 0.87878 0.78584 0.37043 0.0
C309 C 0.86267 0.72877 0.44086 0.0
N310 N 0.85325 0.81776 0.463 0.0
N311 N 0.85869 0.75054 0.49705 0.0
H312 H 0.03523 0.70791 0.78413 0.0
H313 H 0.96046 0.67508 0.18941 0.0
H314 H 0.087 0.77986 0.58455 0.0
H315 H 0.93614 0.59428 0.34513 0.0
H316 H 1.00017 0.71759 0.34642 0.0
H317 H 0.99033 0.67077 0.63828 0.0
C318 C 0.03693 0.71633 0.7106 0.0
C319 C 0.06515 0.74677 0.696 0.0
C320 C 0.98617 0.69057 0.34596 0.0
C321 C 1.01415 0.704 0.52843 0.0
C322 C 0.96379 0.66644 0.25663 0.0
C323 C 0.94593 0.6314 0.25418 0.0
C324 C 0.9898 0.67938 0.43422 0.0
C325 C 0.9503 0.62117 0.3434 0.0
C326 C 1.01145 0.69487 0.62702 0.0
C327 C 0.06595 0.75622 0.59847 0.0
N328 N 0.97177 0.64513 0.43036 0.0
N329 N 0.04093 0.73469 0.51779 0.0
H330 H 0.27836 0.95112 0.8535 0.0
H331 H 0.26913 0.96138 0.26338 0.0
H332 H 0.22089 0.86 0.60384 0.0
H333 H 0.30257 0.04544 0.52637 0.0
H334 H 0.24127 0.92157 0.37982 0.0
H335 H 0.27852 0.984 0.73343 0.0
C336 C 0.26508 0.93799 0.77358 0.0
C337 C 0.24956 0.90308 0.73781 0.0
C338 C 0.25381 0.94864 0.41099 0.0
C339 C 0.25045 0.94049 0.59828 0.0
C340 C 0.26983 0.97144 0.3446 0.0
C341 C 0.28941 1.00698 0.38619 0.0
C342 C 0.25744 0.96163 0.51925 0.0
C343 C 0.28839 0.0184 0.49073 0.0
C344 C 0.26512 0.95667 0.70483 0.0
C345 C 0.23302 0.88703 0.63359 0.0
N346 N 0.27342 0.99586 0.55431 0.0
N347 N 0.23448 0.90608 0.56621 0.0
H348 H 0.23438 0.75007 0.01242 0.0
H349 H 0.35157 0.70288 0.04565 0.0
H350 H 0.3363 0.82689 0.09335 0.0
H351 H 0.25825 0.63666 0.85341 0.0
H352 H 0.344 0.74594 0.09997 0.0
H353 H 0.2405 0.70547 -0.0055 0.0
C354 C 0.25799 0.75758 0.03008 0.0
C355 C 0.2849 0.79227 0.05448 0.0
C356 C 0.32518 0.7219 0.04629 0.0
C357 C 0.29204 0.74134 0.03264 0.0
C358 C 0.3294 0.69729 0.01557 0.0
C359 C 0.30554 0.66618 0.94452 0.0
C360 C 0.29672 0.71516 0.00693 0.0
C361 C 0.27741 0.66043 0.90731 0.0
C362 C 0.26147 0.73209 0.0183 0.0
C363 C 0.31495 0.80043 0.07424 0.0
N364 N 0.27376 0.68465 0.93904 0.0
N365 N 0.31774 0.77515 0.06233 0.0
H366 H 0.55443 0.18976 0.97077 0.0
H367 H 0.62011 0.09812 0.18651 0.0
H368 H 0.51109 0.12258 0.18884 0.0
H369 H 0.66725 0.17064 -0.01458 0.0
H370 H 0.57869 0.10469 0.18153 0.0
H371 H 0.59392 0.18016 0.96568 0.0
C372 C 0.55305 0.17284 0.01713 0.0
C373 C 0.52936 0.15713 0.08073 0.0
C374 C 0.59807 0.11912 0.1383 0.0
C375 C 0.57483 0.14618 0.07583 0.0
C376 C 0.62198 0.11559 0.14176 0.0
C377 C 0.64757 0.13391 0.08665 0.0
C378 C 0.5995 0.14112 0.07917 0.0
C379 C 0.64797 0.15557 0.02821 0.0
C380 C 0.57571 0.16744 0.01441 0.0
C381 C 0.52886 0.13538 0.13877 0.0
N382 N 0.62444 0.15857 0.0262 0.0
N383 N 0.55125 0.1307 0.13527 0.0
H384 H 0.59446 0.71104 0.67616 0.0
H385 H 0.43024 0.6147 0.89599 0.0
H386 H 0.57848 0.75845 0.94335 0.0
H387 H 0.45491 0.56007 0.69631 0.0
H388 H 0.48417 0.6678 0.91048 0.0
H389 H 0.54341 0.65576 0.6781 0.0
C390 C 0.58041 0.70982 0.73583 0.0
C391 C 0.59083 0.73956 0.80951 0.0
C392 C 0.47801 0.64417 0.8647 0.0
C393 C 0.53218 0.67637 0.81136 0.0
C394 C 0.4472 0.61378 0.8566 0.0
C395 C 0.43813 0.58277 0.796 0.0
C396 C 0.49994 0.64385 0.8102 0.0
C397 C 0.46104 0.58326 0.74553 0.0
C398 C 0.55126 0.67823 0.73688 0.0
C399 C 0.57153 0.73632 0.88493 0.0
N400 N 0.49078 0.61337 0.75278 0.0
N401 N 0.54309 0.70545 0.8832 0.0
H402 H 0.89504 0.36948 0.84994 0.0
H403 H 0.88306 0.27205 0.28314 0.0
H404 H 0.84872 0.36677 0.11886 0.0
H405 H 0.85186 0.21628 0.9568 0.0
H406 H 0.88575 0.31769 0.22602 0.0
H407 H 0.89089 0.32078 0.88634 0.0
C408 C 0.88361 0.35851 0.91558 0.0
C409 C 0.87274 0.37285 -0.01733 0.0
C410 C 0.87876 0.29562 0.16703 0.0
C411 C 0.86927 0.31829 0.02622 0.0
C412 C 0.87763 0.26988 0.19922 0.0
C413 C 0.86728 0.24056 0.12445 0.0
C414 C 0.87025 0.29233 0.05929 0.0
C415 C 0.85994 0.23865 0.01664 0.0
C416 C 0.88152 0.33091 0.93642 0.0
C417 C 0.85849 0.35756 0.06716 0.0
N418 N 0.86165 0.26438 -0.01318 0.0
N419 N 0.85771 0.33152 0.08768 0.0
H420 H 0.45512 0.92306 0.20573 0.0
H421 H 0.62923 0.9964 0.1171 0.0
H422 H 0.51425 1.00601 0.0481 0.0
H423 H 0.56793 0.90938 0.25703 0.0
H424 H 0.59275 1.00977 0.13346 0.0
H425 H 0.50121 0.92752 0.26759 0.0
C426 C 0.47796 0.94278 0.18625 0.0
C427 C 0.48078 0.9638 0.11996 0.0
C428 C 0.58765 0.9882 0.16286 0.0
C429 C 0.53339 0.96855 0.18865 0.0
C430 C 0.60846 0.98057 0.15342 0.0
C431 C 0.60129 0.95142 0.18393 0.0
C432 C 0.55941 0.96635 0.20235 0.0
C433 C 0.57439 0.93211 0.23232 0.0
C434 C 0.50424 0.94517 0.22107 0.0
C435 C 0.5109 0.98874 0.09682 0.0
N436 N 0.55407 0.93954 0.23816 0.0
N437 N 0.53595 0.99005 0.12967 0.0
H438 H 0.79917 0.4424 0.78728 0.0
H439 H 0.61666 0.36035 0.72523 0.0
H440 H 0.76369 0.49887 0.76751 0.0
H441 H 0.65434 0.31117 0.82052 0.0
H442 H 0.66855 0.40551 0.68667 0.0
H443 H 0.74472 0.38909 0.74269 0.0
C444 C 0.78003 0.44356 0.76972 0.0
C445 C 0.7858 0.4751 0.78309 0.0
C446 C 0.66531 0.38451 0.71411 0.0
C447 C 0.72364 0.41433 0.73344 0.0
C448 C 0.63564 0.35857 0.73548 0.0
C449 C 0.63126 0.33206 0.77674 0.0
C450 C 0.69081 0.384 0.7344 0.0
C451 C 0.65687 0.33142 0.79023 0.0
C452 C 0.74893 0.4131 0.74531 0.0
C453 C 0.76013 0.47506 0.75976 0.0
N454 N 0.68571 0.35728 0.77025 0.0
N455 N 0.73003 0.4451 0.73777 0.0
H456 H 0.41472 0.56884 0.47215 0.0
H457 H 0.27792 0.44456 -0.01009 0.0
H458 H 0.31813 0.52988 0.47317 0.0
H459 H 0.37678 0.49638 0.96835 0.0
H460 H 0.29345 0.47692 0.17174 0.0
H461 H 0.40491 0.55573 0.27912 0.0
C462 C 0.39182 0.55923 0.43136 0.0
C463 C 0.36574 0.54567 0.48441 0.0
C464 C 0.31179 0.48128 0.12713 0.0
C465 C 0.35436 0.5308 0.26963 0.0
C466 C 0.30287 0.46181 0.02507 0.0
C467 C 0.3263 0.47016 0.96256 0.0
C468 C 0.34423 0.50774 0.16644 0.0
C469 C 0.35808 0.49097 0.0128 0.0
C470 C 0.38598 0.55092 0.32121 0.0
C471 C 0.33779 0.53703 0.43169 0.0
N472 N 0.36639 0.51035 0.1114 0.0
N473 N 0.33178 0.5272 0.32472 0.0
H474 H 0.78989 0.10902 -0.01084 0.0
H475 H 0.87754 0.2007 0.52103 0.0
H476 H 0.88392 0.14443 0.9475 0.0
H477 H 0.77969 0.15465 0.54012 0.0
H478 H 0.88084 0.18122 0.68075 0.0
H479 H 0.78414 0.12262 0.8193 0.0
C480 C 0.80906 0.11921 0.94352 0.0
C481 C 0.83793 0.1273 -0.01557 0.0
C482 C 0.85861 0.17532 0.64963 0.0
C483 C 0.83182 0.14275 0.79145 0.0
C484 C 0.85689 0.18651 0.5589 0.0
C485 C 0.82809 0.17794 0.51495 0.0
C486 C 0.83139 0.15609 0.69741 0.0
C487 C 0.80225 0.16108 0.56986 0.0
C488 C 0.80594 0.12713 0.84702 0.0
C489 C 0.86164 0.13901 0.92039 0.0
N490 N 0.8044 0.1504 0.65749 0.0
N491 N 0.85833 0.14702 0.82804 0.0
H492 H 0.62502 0.78355 0.50793 0.0
H493 H 0.66848 0.78641 0.00872 0.0
H494 H 0.65978 0.88703 0.52321 0.0
H495 H 0.7228 0.89593 0.09742 0.0
H496 H 0.64817 0.78132 0.17452 0.0
H497 H 0.64288 0.78279 0.33989 0.0
C498 C 0.63567 0.80588 0.47387 0.0
C499 C 0.64078 0.83532 0.52946 0.0
C500 C 0.66511 0.80672 0.16055 0.0
C501 C 0.66129 0.83474 0.33343 0.0
C502 C 0.6768 0.80956 0.06496 0.0
C503 C 0.69707 0.8416 0.03901 0.0
C504 C 0.67422 0.83631 0.23239 0.0
C505 C 0.70685 0.87069 0.11427 0.0
C506 C 0.64594 0.80548 0.37686 0.0
C507 C 0.65506 0.86366 0.4823 0.0
N508 N 0.69512 0.86736 0.20718 0.0
N509 N 0.66508 0.86277 0.38731 0.0
H510 H 0.92575 0.63626 0.74484 0.0
H511 H 0.81165 0.47619 0.26465 0.0
H512 H 0.88764 0.53344 0.75356 0.0
H513 H 0.85729 0.57983 0.23919 0.0
H514 H 0.83488 0.49681 0.45222 0.0
H515 H 0.9059 0.61793 0.55443 0.0
C516 C 0.91441 0.60999 0.70565 0.0
C517 C 0.90599 0.58554 0.76562 0.0
C518 C 0.83975 0.51516 0.40564 0.0
C519 C 0.88203 0.56415 0.55149 0.0
C520 C 0.82562 0.5033 0.29956 0.0
C521 C 0.83437 0.52672 0.23517 0.0
C522 C 0.86225 0.55059 0.44646 0.0
C523 C 0.85162 0.56124 0.2844 0.0
C524 C 0.90214 0.59932 0.59777 0.0
C525 C 0.89259 0.55243 0.71123 0.0
N526 N 0.86612 0.57251 0.38686 0.0
N527 N 0.87949 0.54207 0.60747 0.0
H528 H 0.319 0.93708 0.31175 0.0
H529 H 0.21011 0.77765 0.57704 0.0
H530 H 0.23372 0.83942 0.14398 0.0
H531 H 0.30501 0.8672 0.71884 0.0
H532 H 0.21583 0.80087 0.41976 0.0
H533 H 0.30825 0.91592 0.47597 0.0
C534 C 0.29749 0.91153 0.31015 0.0
C535 C 0.27743 0.8895 0.21413 0.0
C536 C 0.23555 0.81543 0.4852 0.0
C537 C 0.26597 0.86484 0.39766 0.0
C538 C 0.23252 0.80193 0.57399 0.0
C539 C 0.2568 0.82143 0.66248 0.0
C540 C 0.26309 0.84852 0.48581 0.0
C541 C 0.28557 0.85203 0.65371 0.0
C542 C 0.29164 0.89932 0.403 0.0
C543 C 0.24962 0.85707 0.2157 0.0
N544 N 0.28774 0.86526 0.56774 0.0
N545 N 0.24503 0.84526 0.30573 0.0
H546 H 0.44527 0.11861 0.81378 0.0
H547 H 0.48357 0.24863 0.43978 0.0
H548 H 0.42242 0.18738 0.86788 0.0
H549 H 0.50669 0.18003 0.39258 0.0
H550 H 0.46071 0.22674 0.59649 0.0
H551 H 0.46435 0.13806 0.65112 0.0
C552 C 0.44356 0.13719 0.78982 0.0
C553 C 0.43271 0.15181 0.85448 0.0
C554 C 0.4711 0.21675 0.55247 0.0
C555 C 0.45522 0.1749 0.67066 0.0
C556 C 0.48455 0.22963 0.46416 0.0
C557 C 0.49697 0.21606 0.40371 0.0
C558 C 0.47035 0.19036 0.58029 0.0
C559 C 0.49726 0.19109 0.43733 0.0
C560 C 0.45485 0.14867 0.69782 0.0
C561 C 0.43096 0.1758 0.82017 0.0
N562 N 0.484 0.17892 0.5229 0.0
N563 N 0.44251 0.18696 0.73122 0.0
loop_
_geom_bond_atom_site_label_1
_geom_bond_atom_site_label_2
_geom_bond_distance
_geom_bond_site_symmetry_2
_ccdc_geom_bond_type
Ho0 C3 2.811 . S
Ho0 O20 2.322 . S
Ho0 O22 2.378 . S
Ho0 O23 2.524 . S
Ho0 O24 2.381 . S
Ho0 O25 2.669 . S
Ho0 O27 2.346 . S
Ho0 O31 2.305 1_556 S
Ho1 C12 2.811 . S
Ho1 O21 2.346 . S
Ho1 O25 2.305 . S
Ho1 O26 2.322 1_556 S
Ho1 O28 2.378 1_556 S
Ho1 O29 2.524 . S
Ho1 O30 2.381 1_556 S
Ho1 O31 2.669 1_556 S
C2 O20 1.259 . S
C2 O21 1.268 . S
C3 Ho0 2.811 . S
C3 C4 1.488 . S
C3 O22 1.215 . S
C3 O23 1.289 . S
C4 C3 1.488 . S
C4 C5 1.348 . S
C4 C9 1.413 . S
C5 C4 1.348 . S
C5 C6 1.442 . S
C5 H32 0.930 . S
C6 C5 1.442 . S
C6 C7 1.381 . S
C6 H33 0.931 . S
C7 C6 1.381 . S
C7 C8 1.321 . S
C8 C7 1.321 . S
C8 C9 1.403 . S
C8 H34 0.934 . S
C9 C4 1.413 . S
C9 C8 1.403 . S
C9 H35 0.930 . S
C10 O24 1.275 . S
C10 O25 1.256 . S
C11 O26 1.259 . S
C11 O27 1.268 1_554 S
C12 Ho1 2.811 . S
C12 C13 1.488 1_556 S
C12 O28 1.215 1_556 S
C12 O29 1.289 . S
C13 C12 1.488 1_554 S
C13 C14 1.348 1_554 S
C13 C18 1.413 . S
C14 C13 1.348 1_556 S
C14 C15 1.442 . S
C14 H36 0.930 . S
C15 C14 1.442 . S
C15 C16 1.381 1_556 S
C15 H37 0.931 . S
C16 C15 1.381 1_554 S
C16 C17 1.321 . S
C17 C16 1.321 . S
C17 C18 1.403 . S
C17 H38 0.934 . S
C18 C13 1.413 . S
C18 C17 1.403 . S
C18 H39 0.930 . S
C19 O30 1.275 . S
C19 O31 1.256 . S
O20 Ho0 2.322 . S
O20 C2 1.259 . S
O21 Ho1 2.346 . S
O21 C2 1.268 . S
O22 Ho0 2.378 . S
O22 C3 1.215 . S
O23 Ho0 2.524 . S
O23 C3 1.289 . S
O24 Ho0 2.381 . S
O24 C10 1.275 . S
O25 Ho0 2.669 . S
O25 Ho1 2.305 . S
O25 C10 1.256 . S
O26 Ho1 2.322 1_554 S
O26 C11 1.259 . S
O27 Ho0 2.346 . S
O27 C11 1.268 1_556 S
O28 Ho1 2.378 1_554 S
O28 C12 1.215 1_554 S
O29 Ho1 2.524 . S
O29 C12 1.289 . S
O30 Ho1 2.381 1_554 S
O30 C19 1.275 . S
O31 Ho0 2.305 1_554 S
O31 Ho1 2.669 1_554 S
O31 C19 1.256 . S
H32 C5 0.930 . S
H33 C6 0.931 . S
H34 C8 0.934 . S
H35 C9 0.930 . S
H36 C14 0.930 . S
H37 C15 0.931 . S
H38 C17 0.934 . S
H39 C18 0.930 . S
Ho40 C43 2.811 . S
Ho40 O60 2.322 . S
Ho40 O62 2.378 . S
Ho40 O63 2.524 . S
Ho40 O64 2.381 1_554 S
Ho40 O65 2.669 1_554 S
Ho40 O67 2.346 . S
Ho40 O71 2.305 . S
Ho41 C52 2.811 1_554 S
Ho41 O61 2.346 . S
Ho41 O65 2.305 1_554 S
Ho41 O66 2.322 . S
Ho41 O68 2.378 . S
Ho41 O69 2.524 1_554 S
Ho41 O70 2.381 . S
Ho41 O71 2.669 . S
C42 O60 1.259 . S
C42 O61 1.268 . S
C43 Ho40 2.811 . S
C43 C44 1.488 . S
C43 O62 1.215 . S
C43 O63 1.289 . S
C44 C43 1.488 . S
C44 C45 1.348 . S
C44 C49 1.413 . S
C45 C44 1.348 . S
C45 C46 1.442 . S
C45 H72 0.930 . S
C46 C45 1.442 . S
C46 C47 1.381 . S
C46 H73 0.931 . S
C47 C46 1.381 . S
C47 C48 1.321 . S
C48 C47 1.321 . S
C48 C49 1.403 . S
C48 H74 0.934 . S
C49 C44 1.413 . S
C49 C48 1.403 . S
C49 H75 0.930 . S
C50 O64 1.275 . S
C50 O65 1.256 . S
C51 O66 1.259 . S
C51 O67 1.268 . S
C52 Ho41 2.811 1_556 S
C52 C53 1.488 . S
C52 O68 1.215 1_556 S
C52 O69 1.289 . S
C53 C52 1.488 . S
C53 C54 1.348 . S
C53 C58 1.413 . S
C54 C53 1.348 . S
C54 C55 1.442 . S
C54 H76 0.930 . S
C55 C54 1.442 . S
C55 C56 1.381 . S
C55 H77 0.931 . S
C56 C55 1.381 . S
C56 C57 1.321 . S
C57 C56 1.321 . S
C57 C58 1.403 . S
C57 H78 0.927 1_556 S
C58 C53 1.413 . S
C58 C57 1.403 . S
C58 H79 0.929 1_556 S
C59 O70 1.275 . S
C59 O71 1.256 . S
O60 Ho40 2.322 . S
O60 C42 1.259 . S
O61 Ho41 2.346 . S
O61 C42 1.268 . S
O62 Ho40 2.378 . S
O62 C43 1.215 . S
O63 Ho40 2.524 . S
O63 C43 1.289 . S
O64 Ho40 2.381 1_556 S
O64 C50 1.275 . S
O65 Ho40 2.669 1_556 S
O65 Ho41 2.305 1_556 S
O65 C50 1.256 . S
O66 Ho41 2.322 . S
O66 C51 1.259 . S
O67 Ho40 2.346 . S
O67 C51 1.268 . S
O68 Ho41 2.378 . S
O68 C52 1.215 1_554 S
O69 Ho41 2.524 1_556 S
O69 C52 1.289 . S
O70 Ho41 2.381 . S
O70 C59 1.275 . S
O71 Ho40 2.305 . S
O71 Ho41 2.669 . S
O71 C59 1.256 . S
H72 C45 0.930 . S
H73 C46 0.931 . S
H74 C48 0.934 . S
H75 C49 0.930 . S
H76 C54 0.930 . S
H77 C55 0.931 . S
H78 C57 0.927 1_554 S
H79 C58 0.929 1_554 S
Ho80 C83 2.811 . S
Ho80 O100 2.322 1_556 S
Ho80 O102 2.378 1_556 S
Ho80 O103 2.524 . S
Ho80 O104 2.381 1_556 S
Ho80 O105 2.669 1_556 S
Ho80 O107 2.346 1_556 S
Ho80 O111 2.305 . S
Ho81 C92 2.811 . S
Ho81 O101 2.346 1_554 S
Ho81 O105 2.305 . S
Ho81 O106 2.322 1_554 S
Ho81 O108 2.378 1_554 S
Ho81 O109 2.524 . S
Ho81 O110 2.381 1_554 S
Ho81 O111 2.669 1_554 S
C82 O100 1.259 1_556 S
C82 O101 1.268 . S
C83 Ho80 2.811 . S
C83 C84 1.488 . S
C83 O102 1.215 1_556 S
C83 O103 1.289 . S
C84 C83 1.488 . S
C84 C85 1.348 . S
C84 C89 1.413 . S
C85 C84 1.348 . S
C85 C86 1.442 . S
C85 H112 0.930 . S
C86 C85 1.442 . S
C86 C87 1.381 . S
C86 H113 0.931 . S
C87 C86 1.381 . S
C87 C88 1.321 . S
C88 C87 1.321 . S
C88 C89 1.403 . S
C88 H114 0.934 . S
C89 C84 1.413 . S
C89 C88 1.403 . S
C89 H115 0.930 1_556 S
C90 O104 1.275 . S
C90 O105 1.256 . S
C91 O106 1.259 1_554 S
C91 O107 1.268 . S
C92 Ho81 2.811 . S
C92 C93 1.488 . S
C92 O108 1.215 1_554 S
C92 O109 1.289 . S
C93 C92 1.488 . S
C93 C94 1.348 . S
C93 C98 1.413 . S
C94 C93 1.348 . S
C94 C95 1.442 . S
C94 H116 0.930 . S
C95 C94 1.442 . S
C95 C96 1.381 . S
C95 H117 0.931 . S
C96 C95 1.381 . S
C96 C97 1.321 . S
C97 C96 1.321 . S
C97 C98 1.403 . S
C97 H118 0.934 . S
C98 C93 1.413 . S
C98 C97 1.403 . S
C98 H119 0.930 1_554 S
C99 O110 1.275 . S
C99 O111 1.256 . S
O100 Ho80 2.322 1_554 S
O100 C82 1.259 1_554 S
O101 Ho81 2.346 1_556 S
O101 C82 1.268 . S
O102 Ho80 2.378 1_554 S
O102 C83 1.215 1_554 S
O103 Ho80 2.524 . S
O103 C83 1.289 . S
O104 Ho80 2.381 1_554 S
O104 C90 1.275 . S
O105 Ho80 2.669 1_554 S
O105 Ho81 2.305 . S
O105 C90 1.256 . S
O106 Ho81 2.322 1_556 S
O106 C91 1.259 1_556 S
O107 Ho80 2.346 1_554 S
O107 C91 1.268 . S
O108 Ho81 2.378 1_556 S
O108 C92 1.215 1_556 S
O109 Ho81 2.524 . S
O109 C92 1.289 . S
O110 Ho81 2.381 1_556 S
O110 C99 1.275 . S
O111 Ho80 2.305 . S
O111 Ho81 2.669 1_556 S
O111 C99 1.256 . S
H112 C85 0.930 . S
H113 C86 0.931 . S
H114 C88 0.934 . S
H115 C89 0.930 1_554 S
H116 C94 0.930 . S
H117 C95 0.931 . S
H118 C97 0.934 . S
H119 C98 0.930 1_556 S
Ho120 C123 2.811 . S
Ho120 O140 2.322 . S
Ho120 O142 2.378 1_554 S
Ho120 O143 2.524 . S
Ho120 O144 2.381 1_554 S
Ho120 O145 2.669 1_554 S
Ho120 O147 2.346 1_554 S
Ho120 O151 2.305 . S
Ho121 C132 2.811 . S
Ho121 O141 2.346 1_556 S
Ho121 O145 2.305 . S
Ho121 O146 2.322 . S
Ho121 O148 2.378 1_556 S
Ho121 O149 2.524 . S
Ho121 O150 2.381 1_556 S
Ho121 O151 2.669 1_556 S
C122 O140 1.259 . S
C122 O141 1.268 . S
C123 Ho120 2.811 . S
C123 C124 1.488 . S
C123 O142 1.215 1_554 S
C123 O143 1.289 . S
C124 C123 1.488 . S
C124 C125 1.348 . S
C124 C129 1.413 . S
C125 C124 1.348 . S
C125 C126 1.442 . S
C125 H152 0.930 . S
C126 C125 1.442 . S
C126 C127 1.381 . S
C126 H153 0.931 . S
C127 C126 1.381 . S
C127 C128 1.321 . S
C128 C127 1.321 . S
C128 C129 1.403 . S
C128 H154 0.934 . S
C129 C124 1.413 . S
C129 C128 1.403 . S
C129 H155 0.930 1_554 S
C130 O144 1.275 . S
C130 O145 1.256 . S
C131 O146 1.259 . S
C131 O147 1.268 . S
C132 Ho121 2.811 . S
C132 C133 1.488 . S
C132 O148 1.215 1_556 S
C132 O149 1.289 . S
C133 C132 1.488 . S
C133 C134 1.348 . S
C133 C138 1.413 . S
C134 C133 1.348 . S
C134 C135 1.442 . S
C134 H156 0.930 . S
C135 C134 1.442 . S
C135 C136 1.381 . S
C135 H157 0.931 . S
C136 C135 1.381 . S
C136 C137 1.321 . S
C137 C136 1.321 . S
C137 C138 1.403 . S
C137 H158 0.934 . S
C138 C133 1.413 . S
C138 C137 1.403 . S
C138 H159 0.930 1_556 S
C139 O150 1.275 . S
C139 O151 1.256 . S
O140 Ho120 2.322 . S
O140 C122 1.259 . S
O141 Ho121 2.346 1_554 S
O141 C122 1.268 . S
O142 Ho120 2.378 1_556 S
O142 C123 1.215 1_556 S
O143 Ho120 2.524 . S
O143 C123 1.289 . S
O144 Ho120 2.381 1_556 S
O144 C130 1.275 . S
O145 Ho120 2.669 1_556 S
O145 Ho121 2.305 . S
O145 C130 1.256 . S
O146 Ho121 2.322 . S
O146 C131 1.259 . S
O147 Ho120 2.346 1_556 S
O147 C131 1.268 . S
O148 Ho121 2.378 1_554 S
O148 C132 1.215 1_554 S
O149 Ho121 2.524 . S
O149 C132 1.289 . S
O150 Ho121 2.381 1_554 S
O150 C139 1.275 . S
O151 Ho120 2.305 . S
O151 Ho121 2.669 1_554 S
O151 C139 1.256 . S
H152 C125 0.930 . S
H153 C126 0.931 . S
H154 C128 0.934 . S
H155 C129 0.930 1_556 S
H156 C134 0.930 . S
H157 C135 0.931 . S
H158 C137 0.934 . S
H159 C138 0.930 1_554 S
Ho160 C163 2.811 . S
Ho160 O180 2.322 . S
Ho160 O182 2.378 . S
Ho160 O183 2.524 1_556 S
Ho160 O184 2.381 . S
Ho160 O185 2.669 . S
Ho160 O187 2.346 . S
Ho160 O191 2.305 1_556 S
Ho161 C172 2.811 . S
Ho161 O181 2.346 . S
Ho161 O185 2.305 1_554 S
Ho161 O186 2.322 . S
Ho161 O188 2.378 . S
Ho161 O189 2.524 1_554 S
Ho161 O190 2.381 . S
Ho161 O191 2.669 . S
C162 O180 1.259 . S
C162 O181 1.268 1_556 S
C163 Ho160 2.811 . S
C163 C164 1.488 . S
C163 O182 1.215 . S
C163 O183 1.289 1_556 S
C164 C163 1.488 . S
C164 C165 1.348 . S
C164 C169 1.413 . S
C165 C164 1.348 . S
C165 C166 1.442 . S
C165 H192 0.930 1_556 S
C166 C165 1.442 . S
C166 C167 1.381 . S
C166 H193 0.931 1_556 S
C167 C166 1.381 . S
C167 C168 1.321 . S
C168 C167 1.321 . S
C168 C169 1.403 . S
C168 H194 0.934 . S
C169 C164 1.413 . S
C169 C168 1.403 . S
C169 H195 0.930 . S
C170 O184 1.275 . S
C170 O185 1.256 . S
C171 O186 1.259 . S
C171 O187 1.268 1_554 S
C172 Ho161 2.811 . S
C172 C173 1.488 . S
C172 O188 1.215 . S
C172 O189 1.289 1_554 S
C173 C172 1.488 . S
C173 C174 1.348 . S
C173 C178 1.413 . S
C174 C173 1.348 . S
C174 C175 1.442 . S
C174 H196 0.930 1_554 S
C175 C174 1.442 . S
C175 C176 1.381 . S
C175 H197 0.931 1_554 S
C176 C175 1.381 . S
C176 C177 1.321 . S
C177 C176 1.321 . S
C177 C178 1.403 . S
C177 H198 0.934 . S
C178 C173 1.413 . S
C178 C177 1.403 . S
C178 H199 0.930 . S
C179 O190 1.275 . S
C179 O191 1.256 . S
O180 Ho160 2.322 . S
O180 C162 1.259 . S
O181 Ho161 2.346 . S
O181 C162 1.268 1_554 S
O182 Ho160 2.378 . S
O182 C163 1.215 . S
O183 Ho160 2.524 1_554 S
O183 C163 1.289 1_554 S
O184 Ho160 2.381 . S
O184 C170 1.275 . S
O185 Ho160 2.669 . S
O185 Ho161 2.305 1_556 S
O185 C170 1.256 . S
O186 Ho161 2.322 . S
O186 C171 1.259 . S
O187 Ho160 2.346 . S
O187 C171 1.268 1_556 S
O188 Ho161 2.378 . S
O188 C172 1.215 . S
O189 Ho161 2.524 1_556 S
O189 C172 1.289 1_556 S
O190 Ho161 2.381 . S
O190 C179 1.275 . S
O191 Ho160 2.305 1_554 S
O191 Ho161 2.669 . S
O191 C179 1.256 . S
H192 C165 0.930 1_554 S
H193 C166 0.931 1_554 S
H194 C168 0.934 . S
H195 C169 0.930 . S
H196 C174 0.930 1_556 S
H197 C175 0.931 1_556 S
H198 C177 0.934 . S
H199 C178 0.930 . S
Ho200 C203 2.811 1_556 S
Ho200 O220 2.322 . S
Ho200 O222 2.378 . S
Ho200 O223 2.524 1_556 S
Ho200 O224 2.381 . S
Ho200 O225 2.669 . S
Ho200 O227 2.346 . S
Ho200 O231 2.305 1_556 S
Ho201 C212 2.811 1_554 S
Ho201 O221 2.346 . S
Ho201 O225 2.305 1_554 S
Ho201 O226 2.322 . S
Ho201 O228 2.378 . S
Ho201 O229 2.524 1_554 S
Ho201 O230 2.381 . S
Ho201 O231 2.669 . S
C202 O220 1.259 1_554 S
C202 O221 1.268 . S
C203 Ho200 2.811 1_554 S
C203 C204 1.488 . S
C203 O222 1.215 1_554 S
C203 O223 1.289 . S
C204 C203 1.488 . S
C204 C205 1.348 . S
C204 C209 1.413 1_544 S
C205 C204 1.348 . S
C205 C206 1.439 1_545 S
C205 H232 0.930 . S
C206 C205 1.439 1_565 S
C206 C207 1.393 . S
C206 H233 0.923 1_565 S
C207 C206 1.393 . S
C207 C208 1.321 1_554 S
C208 C207 1.321 1_556 S
C208 C209 1.403 . S
C208 H234 0.934 . S
C209 C204 1.413 1_566 S
C209 C208 1.403 . S
C209 H235 0.930 . S
C210 O224 1.275 . S
C210 O225 1.256 . S
C211 O226 1.259 1_556 S
C211 O227 1.268 . S
C212 Ho201 2.811 1_556 S
C212 C213 1.488 . S
C212 O228 1.215 1_556 S
C212 O229 1.289 . S
C213 C212 1.488 . S
C213 C214 1.348 . S
C213 C218 1.413 1_556 S
C214 C213 1.348 . S
C214 C215 1.442 . S
C214 H236 0.930 . S
C215 C214 1.442 . S
C215 C216 1.381 . S
C215 H237 0.931 . S
C216 C215 1.381 . S
C216 C217 1.321 1_556 S
C217 C216 1.321 1_554 S
C217 C218 1.403 . S
C217 H238 0.934 . S
C218 C213 1.413 1_554 S
C218 C217 1.403 . S
C218 H239 0.930 . S
C219 O230 1.275 . S
C219 O231 1.256 . S
O220 Ho200 2.322 . S
O220 C202 1.259 1_556 S
O221 Ho201 2.346 . S
O221 C202 1.268 . S
O222 Ho200 2.378 . S
O222 C203 1.215 1_556 S
O223 Ho200 2.524 1_554 S
O223 C203 1.289 . S
O224 Ho200 2.381 . S
O224 C210 1.275 . S
O225 Ho200 2.669 . S
O225 Ho201 2.305 1_556 S
O225 C210 1.256 . S
O226 Ho201 2.322 . S
O226 C211 1.259 1_554 S
O227 Ho200 2.346 . S
O227 C211 1.268 . S
O228 Ho201 2.378 . S
O228 C212 1.215 1_554 S
O229 Ho201 2.524 1_556 S
O229 C212 1.289 . S
O230 Ho201 2.381 . S
O230 C219 1.275 . S
O231 Ho200 2.305 1_554 S
O231 Ho201 2.669 . S
O231 C219 1.256 . S
H232 C205 0.930 . S
H233 C206 0.923 1_545 S
H234 C208 0.934 . S
H235 C209 0.930 . S
H236 C214 0.930 . S
H237 C215 0.931 . S
H238 C217 0.934 . S
H239 C218 0.930 . S
H240 C246 0.930 . S
H241 C250 0.930 . S
H242 C255 0.929 . S
H243 C253 0.929 . S
H244 C248 0.929 . S
H245 C254 0.929 . S
C246 H240 0.930 . S
C246 C247 1.367 . S
C246 C254 1.378 . S
C247 C246 1.367 . S
C247 C255 1.433 . S
C248 H244 0.929 . S
C248 C250 1.378 . S
C248 C252 1.350 . S
C249 C252 1.463 . S
C249 C254 1.350 . S
C249 N257 1.427 . S
C250 H241 0.930 . S
C250 C248 1.378 . S
C250 C251 1.367 . S
C251 C250 1.367 . S
C251 C253 1.433 . S
C252 C248 1.350 . S
C252 C249 1.463 . S
C252 N256 1.427 . S
C253 H243 0.929 . S
C253 C251 1.433 . S
C253 N256 1.384 . S
C254 H245 0.929 . S
C254 C246 1.378 . S
C254 C249 1.350 . S
C255 H242 0.929 . S
C255 C247 1.433 . S
C255 N257 1.384 . S
N256 C252 1.427 . S
N256 C253 1.384 . S
N257 C249 1.427 . S
N257 C255 1.384 . S
H258 C264 0.930 . S
H259 C268 0.930 . S
H260 C273 0.929 . S
H261 C271 0.929 . S
H262 C266 0.929 . S
H263 C272 0.929 . S
C264 H258 0.930 . S
C264 C265 1.367 . S
C264 C272 1.378 . S
C265 C264 1.367 . S
C265 C273 1.433 . S
C266 H262 0.929 . S
C266 C268 1.378 . S
C266 C270 1.350 . S
C267 C270 1.463 . S
C267 C272 1.350 . S
C267 N275 1.427 . S
C268 H259 0.930 . S
C268 C266 1.378 . S
C268 C269 1.367 . S
C269 C268 1.367 . S
C269 C271 1.433 . S
C270 C266 1.350 . S
C270 C267 1.463 . S
C270 N274 1.427 . S
C271 H261 0.929 . S
C271 C269 1.433 . S
C271 N274 1.384 . S
C272 H263 0.929 . S
C272 C264 1.378 . S
C272 C267 1.350 . S
C273 H260 0.929 . S
C273 C265 1.433 . S
C273 N275 1.384 . S
N274 C270 1.427 . S
N274 C271 1.384 . S
N275 C267 1.427 . S
N275 C273 1.384 . S
H276 C282 0.930 1_565 S
H277 C286 0.930 . S
H278 C291 0.929 . S
H279 C289 0.929 . S
H280 C284 0.929 . S
H281 C290 0.929 . S
C282 H276 0.930 1_545 S
C282 C283 1.367 . S
C282 C290 1.378 1_545 S
C283 C282 1.367 . S
C283 C291 1.433 . S
C284 H280 0.929 . S
C284 C286 1.378 . S
C284 C288 1.350 . S
C285 C288 1.463 . S
C285 C290 1.350 1_545 S
C285 N293 1.427 . S
C286 H277 0.930 . S
C286 C284 1.378 . S
C286 C287 1.367 1_545 S
C287 C286 1.367 1_565 S
C287 C289 1.433 . S
C288 C284 1.350 . S
C288 C285 1.463 . S
C288 N292 1.427 1_545 S
C289 H279 0.929 . S
C289 C287 1.433 . S
C289 N292 1.384 . S
C290 H281 0.929 . S
C290 C282 1.378 1_565 S
C290 C285 1.350 1_565 S
C291 H278 0.929 . S
C291 C283 1.433 . S
C291 N293 1.384 . S
N292 C288 1.427 1_565 S
N292 C289 1.384 . S
N293 C285 1.427 . S
N293 C291 1.384 . S
H294 C300 0.930 . S
H295 C304 0.930 . S
H296 C309 0.929 . S
H297 C307 0.929 . S
H298 C302 0.929 . S
H299 C308 0.929 . S
C300 H294 0.930 . S
C300 C301 1.367 . S
C300 C308 1.378 . S
C301 C300 1.367 . S
C301 C309 1.433 . S
C302 H298 0.929 . S
C302 C304 1.378 . S
C302 C306 1.350 . S
C303 C306 1.463 . S
C303 C308 1.350 . S
C303 N311 1.427 . S
C304 H295 0.930 . S
C304 C302 1.378 . S
C304 C305 1.367 . S
C305 C304 1.367 . S
C305 C307 1.433 . S
C306 C302 1.350 . S
C306 C303 1.463 . S
C306 N310 1.427 . S
C307 H297 0.929 . S
C307 C305 1.433 . S
C307 N310 1.384 . S
C308 H299 0.929 . S
C308 C300 1.378 . S
C308 C303 1.350 . S
C309 H296 0.929 . S
C309 C301 1.433 . S
C309 N311 1.384 . S
N310 C306 1.427 . S
N310 C307 1.384 . S
N311 C303 1.427 . S
N311 C309 1.384 . S
H312 C318 0.928 1_655 S
H313 C322 0.930 . S
H314 C327 0.929 . S
H315 C325 0.929 . S
H316 C320 0.929 . S
H317 C326 0.929 . S
C318 H312 0.928 1_455 S
C318 C319 1.367 . S
C318 C326 1.378 1_455 S
C319 C318 1.367 . S
C319 C327 1.433 . S
C320 H316 0.929 . S
C320 C322 1.378 . S
C320 C324 1.350 . S
C321 C324 1.463 . S
C321 C326 1.350 . S
C321 N329 1.427 1_655 S
C322 H313 0.930 . S
C322 C320 1.378 . S
C322 C323 1.367 . S
C323 C322 1.367 . S
C323 C325 1.433 . S
C324 C320 1.350 . S
C324 C321 1.463 . S
C324 N328 1.427 . S
C325 H315 0.929 . S
C325 C323 1.433 . S
C325 N328 1.384 . S
C326 H317 0.929 . S
C326 C318 1.378 1_655 S
C326 C321 1.350 . S
C327 H314 0.929 . S
C327 C319 1.433 . S
C327 N329 1.384 . S
N328 C324 1.427 . S
N328 C325 1.384 . S
N329 C321 1.427 1_455 S
N329 C327 1.384 . S
H330 C336 0.930 . S
H331 C340 0.930 . S
H332 C345 0.929 . S
H333 C343 0.929 . S
H334 C338 0.929 . S
H335 C344 0.929 . S
C336 H330 0.930 . S
C336 C337 1.367 . S
C336 C344 1.378 . S
C337 C336 1.367 . S
C337 C345 1.433 . S
C338 H334 0.929 . S
C338 C340 1.378 . S
C338 C342 1.350 . S
C339 C342 1.463 . S
C339 C344 1.350 . S
C339 N347 1.427 . S
C340 H331 0.930 . S
C340 C338 1.378 . S
C340 C341 1.367 . S
C341 C340 1.367 . S
C341 C343 1.433 . S
C342 C338 1.350 . S
C342 C339 1.463 . S
C342 N346 1.427 . S
C343 H333 0.929 . S
C343 C341 1.433 . S
C343 N346 1.384 . S
C344 H335 0.929 . S
C344 C336 1.378 . S
C344 C339 1.350 . S
C345 H332 0.929 . S
C345 C337 1.433 . S
C345 N347 1.384 . S
N346 C342 1.427 . S
N346 C343 1.384 . S
N347 C339 1.427 . S
N347 C345 1.384 . S
H348 C354 0.930 . S
H349 C358 0.930 . S
H350 C363 0.929 . S
H351 C361 0.929 . S
H352 C356 0.929 . S
H353 C362 0.929 . S
C354 H348 0.930 . S
C354 C355 1.367 1_556 S
C354 C362 1.378 . S
C355 C354 1.367 1_554 S
C355 C363 1.433 . S
C356 H352 0.929 . S
C356 C358 1.378 . S
C356 C360 1.350 . S
C357 C360 1.463 . S
C357 C362 1.350 1_554 S
C357 N365 1.427 . S
C358 H349 0.930 . S
C358 C356 1.378 . S
C358 C359 1.367 . S
C359 C358 1.367 . S
C359 C361 1.433 1_554 S
C360 C356 1.350 . S
C360 C357 1.463 . S
C360 N364 1.427 1_554 S
C361 H351 0.929 . S
C361 C359 1.433 1_556 S
C361 N364 1.384 . S
C362 H353 0.929 . S
C362 C354 1.378 . S
C362 C357 1.350 1_556 S
C363 H350 0.929 . S
C363 C355 1.433 . S
C363 N365 1.384 . S
N364 C360 1.427 1_556 S
N364 C361 1.384 . S
N365 C357 1.427 . S
N365 C363 1.384 . S
H366 C372 0.930 . S
H367 C376 0.930 1_554 S
H368 C381 0.929 . S
H369 C379 0.929 . S
H370 C374 0.929 1_554 S
H371 C380 0.929 . S
C372 H366 0.930 . S
C372 C373 1.367 . S
C372 C380 1.378 . S
C373 C372 1.367 . S
C373 C381 1.433 1_556 S
C374 H370 0.929 1_556 S
C374 C376 1.378 . S
C374 C378 1.350 . S
C375 C378 1.463 . S
C375 C380 1.350 . S
C375 N383 1.427 1_556 S
C376 H367 0.930 1_556 S
C376 C374 1.378 . S
C376 C377 1.367 . S
C377 C376 1.367 . S
C377 C379 1.433 . S
C378 C374 1.350 . S
C378 C375 1.463 . S
C378 N382 1.427 . S
C379 H369 0.929 . S
C379 C377 1.433 . S
C379 N382 1.384 . S
C380 H371 0.929 . S
C380 C372 1.378 . S
C380 C375 1.350 . S
C381 H368 0.929 . S
C381 C373 1.433 1_554 S
C381 N383 1.384 . S
N382 C378 1.427 . S
N382 C379 1.384 . S
N383 C375 1.427 1_554 S
N383 C381 1.384 . S
H384 C390 0.930 . S
H385 C394 0.930 . S
H386 C399 0.929 . S
H387 C397 0.929 . S
H388 C392 0.929 . S
H389 C398 0.929 . S
C390 H384 0.930 . S
C390 C391 1.367 1_556 S
C390 C398 1.378 . S
C391 C390 1.367 1_554 S
C391 C399 1.433 . S
C392 H388 0.929 . S
C392 C394 1.378 . S
C392 C396 1.350 . S
C393 C396 1.463 . S
C393 C398 1.350 1_554 S
C393 N401 1.427 . S
C394 H385 0.930 . S
C394 C392 1.378 . S
C394 C395 1.367 . S
C395 C394 1.367 . S
C395 C397 1.433 1_554 S
C396 C392 1.350 . S
C396 C393 1.463 . S
C396 N400 1.427 1_554 S
C397 H387 0.929 . S
C397 C395 1.433 1_556 S
C397 N400 1.384 . S
C398 H389 0.929 . S
C398 C390 1.378 . S
C398 C393 1.350 1_556 S
C399 H386 0.929 . S
C399 C391 1.433 . S
C399 N401 1.384 . S
N400 C396 1.427 1_556 S
N400 C397 1.384 . S
N401 C393 1.427 . S
N401 C399 1.384 . S
H402 C408 0.930 . S
H403 C412 0.930 . S
H404 C417 0.929 . S
H405 C415 0.929 . S
H406 C410 0.929 . S
H407 C416 0.929 . S
C408 H402 0.930 . S
C408 C409 1.367 . S
C408 C416 1.378 . S
C409 C408 1.367 . S
C409 C417 1.433 . S
C410 H406 0.929 . S
C410 C412 1.378 . S
C410 C414 1.350 1_554 S
C411 C414 1.463 . S
C411 C416 1.350 . S
C411 N419 1.427 . S
C412 H403 0.930 . S
C412 C410 1.378 . S
C412 C413 1.367 1_554 S
C413 C412 1.367 1_556 S
C413 C415 1.433 . S
C414 C410 1.350 1_556 S
C414 C411 1.463 . S
C414 N418 1.427 . S
C415 H405 0.929 . S
C415 C413 1.433 . S
C415 N418 1.384 . S
C416 H407 0.929 . S
C416 C408 1.378 . S
C416 C411 1.350 . S
C417 H404 0.929 . S
C417 C409 1.433 . S
C417 N419 1.384 . S
N418 C414 1.427 . S
N418 C415 1.384 . S
N419 C411 1.427 . S
N419 C417 1.384 . S
H420 C426 0.930 . S
H421 C430 0.930 . S
H422 C435 0.929 . S
H423 C433 0.929 . S
H424 C428 0.929 . S
H425 C434 0.929 . S
C426 H420 0.930 . S
C426 C427 1.367 . S
C426 C434 1.378 . S
C427 C426 1.367 . S
C427 C435 1.433 . S
C428 H424 0.929 . S
C428 C430 1.378 . S
C428 C432 1.350 . S
C429 C432 1.463 . S
C429 C434 1.350 . S
C429 N437 1.427 . S
C430 H421 0.930 . S
C430 C428 1.378 . S
C430 C431 1.367 . S
C431 C430 1.367 . S
C431 C433 1.433 . S
C432 C428 1.350 . S
C432 C429 1.463 . S
C432 N436 1.427 . S
C433 H423 0.929 . S
C433 C431 1.433 . S
C433 N436 1.384 . S
C434 H425 0.929 . S
C434 C426 1.378 . S
C434 C429 1.350 . S
C435 H422 0.929 . S
C435 C427 1.433 . S
C435 N437 1.384 . S
N436 C432 1.427 . S
N436 C433 1.384 . S
N437 C429 1.427 . S
N437 C435 1.384 . S
H438 C444 0.930 . S
H439 C448 0.930 . S
H440 C453 0.929 . S
H441 C451 0.929 . S
H442 C446 0.929 . S
H443 C452 0.929 . S
C444 H438 0.930 . S
C444 C445 1.367 . S
C444 C452 1.378 . S
C445 C444 1.367 . S
C445 C453 1.433 . S
C446 H442 0.929 . S
C446 C448 1.378 . S
C446 C450 1.350 . S
C447 C450 1.463 . S
C447 C452 1.350 . S
C447 N455 1.427 . S
C448 H439 0.930 . S
C448 C446 1.378 . S
C448 C449 1.367 . S
C449 C448 1.367 . S
C449 C451 1.433 . S
C450 C446 1.350 . S
C450 C447 1.463 . S
C450 N454 1.427 . S
C451 H441 0.929 . S
C451 C449 1.433 . S
C451 N454 1.384 . S
C452 H443 0.929 . S
C452 C444 1.378 . S
C452 C447 1.350 . S
C453 H440 0.929 . S
C453 C445 1.433 . S
C453 N455 1.384 . S
N454 C450 1.427 . S
N454 C451 1.384 . S
N455 C447 1.427 . S
N455 C453 1.384 . S
H456 C462 0.930 . S
H457 C466 0.930 . S
H458 C471 0.929 . S
H459 C469 0.929 . S
H460 C464 0.929 . S
H461 C470 0.929 . S
C462 H456 0.930 . S
C462 C463 1.367 . S
C462 C470 1.378 . S
C463 C462 1.367 . S
C463 C471 1.433 . S
C464 H460 0.929 . S
C464 C466 1.378 . S
C464 C468 1.350 . S
C465 C468 1.463 . S
C465 C470 1.350 . S
C465 N473 1.427 . S
C466 H457 0.930 . S
C466 C464 1.378 . S
C466 C467 1.367 . S
C467 C466 1.367 . S
C467 C469 1.433 . S
C468 C464 1.350 . S
C468 C465 1.463 . S
C468 N472 1.427 . S
C469 H459 0.929 . S
C469 C467 1.433 . S
C469 N472 1.384 . S
C470 H461 0.929 . S
C470 C462 1.378 . S
C470 C465 1.350 . S
C471 H458 0.929 . S
C471 C463 1.433 . S
C471 N473 1.384 . S
N472 C468 1.427 . S
N472 C469 1.384 . S
N473 C465 1.427 . S
N473 C471 1.384 . S
H474 C480 0.930 . S
H475 C484 0.930 . S
H476 C489 0.929 . S
H477 C487 0.929 . S
H478 C482 0.929 . S
H479 C488 0.929 . S
C480 H474 0.930 . S
C480 C481 1.367 . S
C480 C488 1.378 . S
C481 C480 1.367 . S
C481 C489 1.433 . S
C482 H478 0.929 . S
C482 C484 1.378 . S
C482 C486 1.350 . S
C483 C486 1.463 . S
C483 C488 1.350 . S
C483 N491 1.427 . S
C484 H475 0.930 . S
C484 C482 1.378 . S
C484 C485 1.367 . S
C485 C484 1.367 . S
C485 C487 1.433 . S
C486 C482 1.350 . S
C486 C483 1.463 . S
C486 N490 1.427 . S
C487 H477 0.929 . S
C487 C485 1.433 . S
C487 N490 1.384 . S
C488 H479 0.929 . S
C488 C480 1.378 . S
C488 C483 1.350 . S
C489 H476 0.929 . S
C489 C481 1.433 . S
C489 N491 1.384 . S
N490 C486 1.427 . S
N490 C487 1.384 . S
N491 C483 1.427 . S
N491 C489 1.384 . S
H492 C498 0.930 . S
H493 C502 0.930 . S
H494 C507 0.929 . S
H495 C505 0.929 . S
H496 C500 0.929 . S
H497 C506 0.929 . S
C498 H492 0.930 . S
C498 C499 1.367 . S
C498 C506 1.378 . S
C499 C498 1.367 . S
C499 C507 1.433 . S
C500 H496 0.929 . S
C500 C502 1.378 . S
C500 C504 1.350 . S
C501 C504 1.463 . S
C501 C506 1.350 . S
C501 N509 1.427 . S
C502 H493 0.930 . S
C502 C500 1.378 . S
C502 C503 1.367 . S
C503 C502 1.367 . S
C503 C505 1.433 . S
C504 C500 1.350 . S
C504 C501 1.463 . S
C504 N508 1.427 . S
C505 H495 0.929 . S
C505 C503 1.433 . S
C505 N508 1.384 . S
C506 H497 0.929 . S
C506 C498 1.378 . S
C506 C501 1.350 . S
C507 H494 0.929 . S
C507 C499 1.433 . S
C507 N509 1.384 . S
N508 C504 1.427 . S
N508 C505 1.384 . S
N509 C501 1.427 . S
N509 C507 1.384 . S
H510 C516 0.930 . S
H511 C520 0.930 . S
H512 C525 0.929 . S
H513 C523 0.929 . S
H514 C518 0.929 . S
H515 C524 0.929 . S
C516 H510 0.930 . S
C516 C517 1.367 . S
C516 C524 1.378 . S
C517 C516 1.367 . S
C517 C525 1.433 . S
C518 H514 0.929 . S
C518 C520 1.378 . S
C518 C522 1.350 . S
C519 C522 1.463 . S
C519 C524 1.350 . S
C519 N527 1.427 . S
C520 H511 0.930 . S
C520 C518 1.378 . S
C520 C521 1.367 . S
C521 C520 1.367 . S
C521 C523 1.433 . S
C522 C518 1.350 . S
C522 C519 1.463 . S
C522 N526 1.427 . S
C523 H513 0.929 . S
C523 C521 1.433 . S
C523 N526 1.384 . S
C524 H515 0.929 . S
C524 C516 1.378 . S
C524 C519 1.350 . S
C525 H512 0.929 . S
C525 C517 1.433 . S
C525 N527 1.384 . S
N526 C522 1.427 . S
N526 C523 1.384 . S
N527 C519 1.427 . S
N527 C525 1.384 . S
H528 C534 0.930 . S
H529 C538 0.930 . S
H530 C543 0.929 . S
H531 C541 0.929 . S
H532 C536 0.929 . S
H533 C542 0.929 . S
C534 H528 0.930 . S
C534 C535 1.367 . S
C534 C542 1.378 . S
C535 C534 1.367 . S
C535 C543 1.433 . S
C536 H532 0.929 . S
C536 C538 1.378 . S
C536 C540 1.350 . S
C537 C540 1.463 . S
C537 C542 1.350 . S
C537 N545 1.427 . S
C538 H529 0.930 . S
C538 C536 1.378 . S
C538 C539 1.367 . S
C539 C538 1.367 . S
C539 C541 1.433 . S
C540 C536 1.350 . S
C540 C537 1.463 . S
C540 N544 1.427 . S
C541 H531 0.929 . S
C541 C539 1.433 . S
C541 N544 1.384 . S
C542 H533 0.929 . S
C542 C534 1.378 . S
C542 C537 1.350 . S
C543 H530 0.929 . S
C543 C535 1.433 . S
C543 N545 1.384 . S
N544 C540 1.427 . S
N544 C541 1.384 . S
N545 C537 1.427 . S
N545 C543 1.384 . S
H546 C552 0.930 . S
H547 C556 0.930 . S
H548 C561 0.929 . S
H549 C559 0.929 . S
H550 C554 0.929 . S
H551 C560 0.929 . S
C552 H546 0.930 . S
C552 C553 1.367 . S
C552 C560 1.378 . S
C553 C552 1.367 . S
C553 C561 1.433 . S
C554 H550 0.929 . S
C554 C556 1.378 . S
C554 C558 1.350 . S
C555 C558 1.463 . S
C555 C560 1.350 . S
C555 N563 1.427 . S
C556 H547 0.930 . S
C556 C554 1.378 . S
C556 C557 1.367 . S
C557 C556 1.367 . S
C557 C559 1.433 . S
C558 C554 1.350 . S
C558 C555 1.463 . S
C558 N562 1.427 . S
C559 H549 0.929 . S
C559 C557 1.433 . S
C559 N562 1.384 . S
C560 H551 0.929 . S
C560 C552 1.378 . S
C560 C555 1.350 . S
C561 H548 0.929 . S
C561 C553 1.433 . S
C561 N563 1.384 . S
N562 C558 1.427 . S
N562 C559 1.384 . S
N563 C555 1.427 . S
N563 C561 1.384 . S
C247 C202 3.709 . S
C251 C7 3.617 . S
C265 C2 3.571 . S
C269 C47 3.364 1_455 S
C283 C42 3.080 . S
C287 C82 3.049 . S
C301 C127 2.387 . S
C305 C87 2.247 . S
C319 C167 2.836 . S
C323 C122 3.251 . S
C337 C162 2.602 . S
C341 C207 2.553 . S
C355 C171 2.481 . S
C359 C16 2.419 . S
C373 C211 3.218 . S
C377 C56 3.194 . S
C391 C91 3.700 . S
C395 C11 3.731 . S
C409 C136 2.004 . S
C413 C51 2.100 1_556 S
C427 C176 0.850 . S
C431 C96 0.841 . S
C445 C131 1.220 . S
C449 C216 1.251 . S
C463 C10 0.510 . S
C467 C19 0.510 . S
C481 C50 0.528 . S
C485 C59 0.528 . S
C499 C99 0.512 . S
C503 C90 0.512 . S
C517 C130 0.365 . S
C521 C139 0.365 . S
C535 C179 0.629 . S
C539 C170 0.629 . S
C553 C210 0.438 . S
C557 C219 0.438 . S
