# Generated by pormake.
# Topology upc, (4)-cn, num edge types: 1
# Building blocks:
#     Node 0, Type 0, BuildingBlock: ESEHIV_clean_sbu_0, # of connection points: 4
#     Node 1, Type 0, BuildingBlock: ESEHIV_clean_sbu_0, # of connection points: 4
#     Node 2, Type 0, BuildingBlock: ESEHIV_clean_sbu_0, # of connection points: 4
#     Node 3, Type 0, BuildingBlock: ESEHIV_clean_sbu_0, # of connection points: 4
#     Node 4, Type 0, BuildingBlock: ESEHIV_clean_sbu_0, # of connection points: 4
#     Node 5, Type 0, BuildingBlock: ESEHIV_clean_sbu_0, # of connection points: 4
#     Node 6, Type 0, BuildingBlock: ESEHIV_clean_sbu_0, # of connection points: 4
#     Node 7, Type 0, BuildingBlock: ESEHIV_clean_sbu_0, # of connection points: 4
#     Node 8, Type 0, BuildingBlock: ESEHIV_clean_sbu_0, # of connection points: 4
#     Node 9, Type 0, BuildingBlock: ESEHIV_clean_sbu_0, # of connection points: 4
#     Node 10, Type 0, BuildingBlock: ESEHIV_clean_sbu_0, # of connection points: 4
#     Node 11, Type 0, BuildingBlock: ESEHIV_clean_sbu_0, # of connection points: 4
#     Node 12, Type 0, BuildingBlock: ESEHIV_clean_sbu_0, # of connection points: 4
#     Node 13, Type 0, BuildingBlock: ESEHIV_clean_sbu_0, # of connection points: 4
#     Node 14, Type 0, BuildingBlock: ESEHIV_clean_sbu_0, # of connection points: 4
#     Node 15, Type 0, BuildingBlock: ESEHIV_clean_sbu_0, # of connection points: 4
#     Edge 16, Type (0, 0), BuildingBlock: TEMPAE_clean_linker_10, # of connection points: 2
#     Edge 17, Type (0, 0), BuildingBlock: TEMPAE_clean_linker_10, # of connection points: 2
#     Edge 18, Type (0, 0), BuildingBlock: TEMPAE_clean_linker_10, # of connection points: 2
#     Edge 19, Type (0, 0), BuildingBlock: TEMPAE_clean_linker_10, # of connection points: 2
#     Edge 20, Type (0, 0), BuildingBlock: TEMPAE_clean_linker_10, # of connection points: 2
#     Edge 21, Type (0, 0), BuildingBlock: TEMPAE_clean_linker_10, # of connection points: 2
#     Edge 22, Type (0, 0), BuildingBlock: TEMPAE_clean_linker_10, # of connection points: 2
#     Edge 23, Type (0, 0), BuildingBlock: TEMPAE_clean_linker_10, # of connection points: 2
#     Edge 24, Type (0, 0), BuildingBlock: TEMPAE_clean_linker_10, # of connection points: 2
#     Edge 25, Type (0, 0), BuildingBlock: TEMPAE_clean_linker_10, # of connection points: 2
#     Edge 26, Type (0, 0), BuildingBlock: TEMPAE_clean_linker_10, # of connection points: 2
#     Edge 27, Type (0, 0), BuildingBlock: TEMPAE_clean_linker_10, # of connection points: 2
#     Edge 28, Type (0, 0), BuildingBlock: TEMPAE_clean_linker_10, # of connection points: 2
#     Edge 29, Type (0, 0), BuildingBlock: TEMPAE_clean_linker_10, # of connection points: 2
#     Edge 30, Type (0, 0), BuildingBlock: TEMPAE_clean_linker_10, # of connection points: 2
#     Edge 31, Type (0, 0), BuildingBlock: TEMPAE_clean_linker_10, # of connection points: 2
#     Edge 32, Type (0, 0), BuildingBlock: TEMPAE_clean_linker_10, # of connection points: 2
#     Edge 33, Type (0, 0), BuildingBlock: TEMPAE_clean_linker_10, # of connection points: 2
#     Edge 34, Type (0, 0), BuildingBlock: TEMPAE_clean_linker_10, # of connection points: 2
#     Edge 35, Type (0, 0), BuildingBlock: TEMPAE_clean_linker_10, # of connection points: 2
#     Edge 36, Type (0, 0), BuildingBlock: TEMPAE_clean_linker_10, # of connection points: 2
#     Edge 37, Type (0, 0), BuildingBlock: TEMPAE_clean_linker_10, # of connection points: 2
#     Edge 38, Type (0, 0), BuildingBlock: TEMPAE_clean_linker_10, # of connection points: 2
#     Edge 39, Type (0, 0), BuildingBlock: TEMPAE_clean_linker_10, # of connection points: 2
#     Edge 40, Type (0, 0), BuildingBlock: TEMPAE_clean_linker_10, # of connection points: 2
#     Edge 41, Type (0, 0), BuildingBlock: TEMPAE_clean_linker_10, # of connection points: 2
#     Edge 42, Type (0, 0), BuildingBlock: TEMPAE_clean_linker_10, # of connection points: 2
#     Edge 43, Type (0, 0), BuildingBlock: TEMPAE_clean_linker_10, # of connection points: 2
#     Edge 44, Type (0, 0), BuildingBlock: TEMPAE_clean_linker_10, # of connection points: 2
#     Edge 45, Type (0, 0), BuildingBlock: TEMPAE_clean_linker_10, # of connection points: 2
#     Edge 46, Type (0, 0), BuildingBlock: TEMPAE_clean_linker_10, # of connection points: 2
#     Edge 47, Type (0, 0), BuildingBlock: TEMPAE_clean_linker_10, # of connection points: 2
# Relax obj value: 0.162
# Max RMSD: 0.212
# Mean RMSD: 0.186
data_MOF--net-upc--node1-ESEHIV_clean_sbu_0--edge1-TEMPAE_clean_linker_10
_symmetry_space_group_name_H-M    P1
_symmetry_Int_Tables_number       1
_symmetry_cell_setting            triclinic
loop_
_symmetry_equiv_pos_as_xyz
'x, y, z'
_cell_length_a     35.514724
_cell_length_b     41.615237
_cell_length_c     44.964254
_cell_angle_alpha  89.793229
_cell_angle_beta   89.92731
_cell_angle_gamma 90.316044
loop_
_atom_site_label
_atom_site_type_symbol
_atom_site_fract_x
_atom_site_fract_y
_atom_site_fract_z
_atom_type_partial_charge
Cu0 Cu 0.1579 0.60899 0.16942 0.0
N1 N 0.11187 0.63013 0.1718 0.0
N2 N 0.06815 0.66408 0.1883 0.0
C3 C 0.10536 0.6579 0.18595 0.0
C4 C 0.05067 0.63934 0.17464 0.0
C5 C 0.0777 0.6184 0.16461 0.0
O6 O 0.19913 0.64067 0.17525 0.0
C7 C 0.13876 0.57877 0.22398 0.0
O8 O 0.13178 0.60842 0.23216 0.0
H9 H 0.12762 0.67247 0.19534 0.0
H10 H 0.07256 0.59537 0.15435 0.0
N11 N 0.16035 0.59032 0.13172 0.0
N12 N 0.14151 0.56192 0.09219 0.0
C13 C 0.13605 0.5681 0.12135 0.0
C14 C 0.18253 0.59814 0.10849 0.0
C15 C 0.17102 0.5806 0.08407 0.0
C16 C 0.19912 0.66617 0.15925 0.0
O17 O 0.17219 0.66953 0.13947 0.0
H18 H 0.11433 0.5571 0.13491 0.0
H19 H 0.20456 0.61617 0.10896 0.0
O20 O 0.15438 0.57412 0.19881 0.0
H21 H 0.02054 0.63561 0.17345 0.0
H22 H 0.1824 0.5826 0.0618 0.0
Cu23 Cu 0.87094 0.1128 0.12989 0.0
N24 N 0.82314 0.09527 0.13589 0.0
N25 N 0.76396 0.09513 0.15247 0.0
C26 C 0.79929 0.10602 0.15678 0.0
C27 C 0.76544 0.07661 0.12799 0.0
C28 C 0.80221 0.07653 0.11787 0.0
O29 O 0.8619 0.15863 0.1383 0.0
C30 C 0.94042 0.09762 0.16021 0.0
O31 O 0.95527 0.12086 0.14409 0.0
H32 H 0.80706 0.12356 0.17345 0.0
H33 H 0.81236 0.06519 0.09783 0.0
N34 N 0.88562 0.10408 0.09045 0.0
N35 N 0.91522 0.08228 0.05143 0.0
C36 C 0.91722 0.08946 0.08072 0.0
C37 C 0.86313 0.10605 0.06641 0.0
C38 C 0.88126 0.09279 0.04242 0.0
C39 C 0.85049 0.17829 0.11842 0.0
O40 O 0.85363 0.17027 0.09035 0.0
H41 H 0.94016 0.08239 0.0951 0.0
H42 H 0.83463 0.11506 0.06664 0.0
O43 O 0.90528 0.09168 0.15788 0.0
H44 H 0.74149 0.06501 0.11762 0.0
H45 H 0.8699 0.09021 0.02022 0.0
Cu46 Cu 0.45152 0.89147 0.16118 0.0
N47 N 0.49291 0.86445 0.15763 0.0
N48 N 0.52875 0.82196 0.16775 0.0
C49 C 0.49398 0.83466 0.16897 0.0
C50 C 0.5507 0.84482 0.15515 0.0
C51 C 0.52835 0.87105 0.14872 0.0
O52 O 0.40671 0.86368 0.16798 0.0
C53 C 0.48291 0.91429 0.21588 0.0
O54 O 0.4933 0.88428 0.21937 0.0
H55 H 0.47037 0.82367 0.18045 0.0
H56 H 0.53776 0.89395 0.13995 0.0
N57 N 0.44745 0.91549 0.12612 0.0
N58 N 0.46206 0.95062 0.09 0.0
C59 C 0.473 0.93688 0.11585 0.0
C60 C 0.41926 0.91566 0.10618 0.0
C61 C 0.42816 0.93733 0.08389 0.0
C62 C 0.40133 0.83993 0.15045 0.0
O63 O 0.42406 0.8368 0.12756 0.0
H64 H 0.49883 0.94265 0.12746 0.0
H65 H 0.39403 0.90107 0.10775 0.0
O66 O 0.46253 0.92171 0.19354 0.0
H67 H 0.5809 0.84334 0.15227 0.0
H68 H 0.41117 0.94256 0.06452 0.0
Cu69 Cu 0.62512 0.41452 0.14371 0.0
N70 N 0.65677 0.45003 0.14614 0.0
N71 N 0.70082 0.48038 0.16767 0.0
C72 C 0.68886 0.45027 0.16188 0.0
C73 C 0.67535 0.49996 0.15487 0.0
C74 C 0.64816 0.4811 0.14147 0.0
O75 O 0.65811 0.37728 0.15016 0.0
C76 C 0.55243 0.42534 0.17104 0.0
O77 O 0.53777 0.41618 0.14564 0.0
H78 H 0.70071 0.42889 0.17189 0.0
H79 H 0.62221 0.48945 0.13165 0.0
N80 N 0.60344 0.41363 0.10574 0.0
N81 N 0.57022 0.42781 0.06553 0.0
C82 C 0.58149 0.43624 0.09314 0.0
C83 C 0.60675 0.39039 0.08519 0.0
C84 C 0.58619 0.39897 0.06046 0.0
C85 C 0.65021 0.34752 0.14746 0.0
O86 O 0.61536 0.33889 0.14159 0.0
H87 H 0.57312 0.45801 0.10438 0.0
H88 H 0.62309 0.36876 0.08791 0.0
O89 O 0.58782 0.4226 0.17507 0.0
H90 H 0.67484 0.52585 0.15704 0.0
H91 H 0.58358 0.38517 0.0402 0.0
Cu92 Cu 0.1057 0.90427 0.33317 0.0
N93 N 0.06093 0.88166 0.32836 0.0
N94 N 0.01902 0.84913 0.30708 0.0
C95 C 0.05302 0.86335 0.30474 0.0
C96 C 1.00503 0.85837 0.33357 0.0
C97 C 0.03094 0.87887 0.34659 0.0
O98 O 0.14622 0.87306 0.32455 0.0
C99 C 0.09682 0.93894 0.27836 0.0
O100 O 0.10237 0.91096 0.26574 0.0
H101 H 0.07274 0.85911 0.28683 0.0
H102 H 0.02847 0.89024 0.36809 0.0
N103 N 0.10604 0.91923 0.37233 0.0
N104 N 0.08583 0.9458 0.41244 0.0
C105 C 0.08342 0.94257 0.38262 0.0
C106 C 0.12333 0.9071 0.39647 0.0
C107 C 0.11118 0.92366 0.42123 0.0
C108 C 0.17949 0.87263 0.33528 0.0
O109 O 0.19079 0.89674 0.35187 0.0
H110 H 0.06464 0.9562 0.36851 0.0
H111 H 0.14201 0.88668 0.39634 0.0
O112 O 0.10126 0.9414 0.3064 0.0
H113 H 0.97854 0.85037 0.34302 0.0
H114 H 0.1189 0.91866 0.44406 0.0
Cu115 Cu 0.61564 0.14494 0.37185 0.0
N116 N 0.59311 0.17096 0.34338 0.0
N117 N 0.58759 0.18145 0.29488 0.0
C118 C 0.61135 0.17683 0.31778 0.0
C119 C 0.55276 0.17913 0.30668 0.0
C120 C 0.55623 0.17304 0.33678 0.0
O121 O 0.66752 0.16162 0.37613 0.0
C122 C 0.57792 0.09005 0.35261 0.0
O123 O 0.55032 0.10548 0.36563 0.0
H124 H 0.64104 0.1718 0.31494 0.0
H125 H 0.53365 0.16589 0.35159 0.0
N126 N 0.58886 0.14588 0.40793 0.0
N127 N 0.55703 0.12873 0.44815 0.0
C128 C 0.58145 0.12084 0.42624 0.0
C129 C 0.56877 0.17052 0.41876 0.0
C130 C 0.54929 0.16011 0.44355 0.0
C131 C 0.6717 0.19014 0.38615 0.0
O132 O 0.64165 0.20566 0.39504 0.0
H133 H 0.592 0.09685 0.42244 0.0
H134 H 0.56721 0.19409 0.40864 0.0
O135 O 0.61116 0.10194 0.35403 0.0
H136 H 0.52698 0.17773 0.29392 0.0
H137 H 0.53028 0.17446 0.45674 0.0
Cu138 Cu 0.4003 0.62937 0.34256 0.0
N139 N 0.4425 0.65567 0.34499 0.0
N140 N 0.49272 0.68406 0.33074 0.0
C141 C 0.46764 0.6611 0.3232 0.0
C142 C 0.48306 0.69333 0.35843 0.0
C143 C 0.45217 0.6755 0.3673 0.0
O144 O 0.3561 0.65782 0.33839 0.0
C145 C 0.40649 0.56964 0.31104 0.0
O146 O 0.39101 0.55713 0.33497 0.0
H147 H 0.46564 0.6504 0.30133 0.0
H148 H 0.43662 0.67798 0.38785 0.0
N149 N 0.39918 0.60574 0.37802 0.0
N150 N 0.42104 0.57618 0.41575 0.0
C151 C 0.42994 0.59597 0.39297 0.0
C152 C 0.3697 0.5919 0.39199 0.0
C153 C 0.38317 0.57342 0.41523 0.0
C154 C 0.35633 0.68099 0.31961 0.0
O155 O 0.38499 0.68354 0.30123 0.0
H156 H 0.45844 0.60203 0.38637 0.0
H157 H 0.34067 0.59406 0.38504 0.0
O158 O 0.40974 0.60016 0.30903 0.0
H159 H 0.49596 0.71291 0.37058 0.0
H160 H 0.36653 0.55874 0.43028 0.0
Cu161 Cu 0.93059 0.40112 0.3773 0.0
N162 N 0.90059 0.43674 0.36997 0.0
N163 N 0.86109 0.46831 0.345 0.0
C164 C 0.87132 0.43783 0.3511 0.0
C165 C 0.88454 0.48713 0.36094 0.0
C166 C 0.90886 0.46753 0.37643 0.0
O167 O 0.89909 0.36269 0.36994 0.0
C168 C 0.97013 0.41622 0.32439 0.0
O169 O 0.93621 0.41498 0.31283 0.0
H170 H 0.86026 0.41687 0.3398 0.0
H171 H 0.93267 0.4752 0.38964 0.0
N172 N 0.94631 0.40399 0.41688 0.0
N173 N 0.97555 0.42308 0.45728 0.0
C174 C 0.97375 0.42343 0.42724 0.0
C175 C 0.92998 0.391 0.44114 0.0
C176 C 0.94811 0.40252 0.46606 0.0
C177 C 0.90231 0.33535 0.38266 0.0
O178 O 0.9311 0.33036 0.40037 0.0
H179 H 0.99136 0.43815 0.41294 0.0
H180 H 0.9056 0.37532 0.4408 0.0
O181 O 0.97449 0.40724 0.35132 0.0
H182 H 0.88542 0.51312 0.36011 0.0
H183 H 0.94043 0.39734 0.48888 0.0
Cu184 Cu 0.91174 0.40249 0.89261 0.0
N185 N 0.91662 0.36135 0.87714 0.0
N186 N 0.91273 0.32035 0.84539 0.0
C187 C 0.90268 0.35098 0.85108 0.0
C188 C 0.93381 0.31124 0.86892 0.0
C189 C 0.9363 0.33662 0.88838 0.0
O190 O 0.85903 0.41534 0.89559 0.0
C191 C 0.92478 0.45971 0.85925 0.0
O192 O 0.89382 0.46956 0.87227 0.0
H193 H 0.88577 0.36583 0.83657 0.0
H194 H 0.95201 0.33722 0.90894 0.0
N195 N 0.93556 0.40582 0.92965 0.0
N196 N 0.97274 0.42425 0.96609 0.0
C197 C 0.95994 0.42901 0.9381 0.0
C198 C 0.93278 0.38577 0.95311 0.0
C199 C 0.95559 0.39703 0.97554 0.0
C200 C 0.82698 0.40128 0.89448 0.0
O201 O 0.79681 0.41941 0.89494 0.0
H202 H 0.96851 0.44868 0.92376 0.0
H203 H 0.91568 0.36426 0.95394 0.0
O204 O 0.9372 0.43176 0.86516 0.0
H205 H 0.94782 0.28837 0.87139 0.0
H206 H 0.95887 0.38615 0.99728 0.0
Cu207 Cu 0.09785 0.92766 0.85918 0.0
N208 N 0.06101 0.92327 0.82976 0.0
N209 N 0.01838 0.93544 0.79497 0.0
C210 C 0.04239 0.94698 0.81569 0.0
C211 C 0.0218 0.90319 0.79628 0.0
C212 C 0.04819 0.89577 0.81769 0.0
O213 O 0.07908 0.95719 0.88945 0.0
C214 C 0.14635 0.96933 0.82584 0.0
O215 O 0.11716 0.98849 0.82438 0.0
H216 H 0.04613 0.9722 0.8207 0.0
H217 H 0.05772 0.87201 0.82379 0.0
N218 N 0.1082 0.88701 0.87504 0.0
N219 N 0.13847 0.84129 0.88546 0.0
C220 C 0.14042 0.87035 0.87198 0.0
C221 C 0.08492 0.86779 0.89075 0.0
C222 C 0.10356 0.83966 0.89735 0.0
C223 C 0.08281 0.95299 0.91739 0.0
O224 O 0.10217 0.92833 0.92717 0.0
H225 H 0.16485 0.87949 0.86021 0.0
H226 H 0.05632 0.87378 0.89677 0.0
O227 O 0.14383 0.94329 0.84063 0.0
H228 H 1.00702 0.88622 0.78225 0.0
H229 H 0.09198 0.81932 0.9094 0.0
Cu230 Cu 0.65583 0.15594 0.90084 0.0
N231 N 0.63807 0.19327 0.88294 0.0
N232 N 0.64101 0.23931 0.8573 0.0
C233 C 0.66014 0.21361 0.86736 0.0
C234 C 0.60533 0.23497 0.86709 0.0
C235 C 0.60361 0.20648 0.88295 0.0
O236 O 0.70901 0.16636 0.90666 0.0
C237 C 0.65133 0.12072 0.8464 0.0
O238 O 0.66758 0.14604 0.83433 0.0
H239 H 0.68983 0.20958 0.86359 0.0
H240 H 0.57905 0.19611 0.89361 0.0
N241 N 0.62938 0.1479 0.93629 0.0
N242 N 0.59741 0.1216 0.97196 0.0
C243 C 0.61968 0.11894 0.94762 0.0
C244 C 0.61246 0.16959 0.95385 0.0
C245 C 0.59298 0.15352 0.9759 0.0
C246 C 0.71728 0.18528 0.92792 0.0
O247 O 0.69332 0.18776 0.95003 0.0
H248 H 0.62832 0.09643 0.93785 0.0
H249 H 0.61341 0.19531 0.95036 0.0
O250 O 0.64623 0.11991 0.87441 0.0
H251 H 0.58192 0.25076 0.86248 0.0
H252 H 0.57568 0.16455 0.99281 0.0
Cu253 Cu 0.3775 0.58112 0.87429 0.0
N254 N 0.40221 0.5852 0.83793 0.0
N255 N 0.42755 0.56726 0.79571 0.0
C256 C 0.42429 0.56279 0.82534 0.0
C257 C 0.40729 0.59376 0.78948 0.0
C258 C 0.39167 0.60475 0.81557 0.0
O259 O 0.40895 0.55756 0.90198 0.0
C260 C 0.334 0.5316 0.85097 0.0
O261 O 0.36612 0.5161 0.85145 0.0
H262 H 0.43459 0.54187 0.8371 0.0
H263 H 0.37136 0.62388 0.81768 0.0
N264 N 0.36492 0.62156 0.88906 0.0
N265 N 0.33415 0.6678 0.89604 0.0
C266 C 0.33635 0.64039 0.88001 0.0
C267 C 0.38146 0.63742 0.91155 0.0
C268 C 0.36261 0.6659 0.91592 0.0
C269 C 0.39742 0.54879 0.92755 0.0
O270 O 0.3628 0.55563 0.9356 0.0
H271 H 0.31769 0.63399 0.86195 0.0
H272 H 0.4052 0.62862 0.92417 0.0
O273 O 0.33178 0.55835 0.86443 0.0
H274 H 0.40248 0.60344 0.76744 0.0
H275 H 0.36891 0.68339 0.93296 0.0
Cu276 Cu 0.86633 0.11889 0.60948 0.0
N277 N 0.89577 0.15004 0.62806 0.0
N278 N 0.91158 0.18787 0.66104 0.0
C279 C 0.88348 0.17442 0.645 0.0
C280 C 0.9429 0.17165 0.65308 0.0
C281 C 0.93303 0.14838 0.6328 0.0
O282 O 0.81579 0.1366 0.60387 0.0
C283 C 0.87171 0.08192 0.66226 0.0
O284 O 0.8666 0.10981 0.67514 0.0
H285 H 0.85417 0.18083 0.64676 0.0
H286 H 0.95117 0.12996 0.62388 0.0
N287 N 0.88775 0.11075 0.57234 0.0
N288 N 0.92304 0.08965 0.53617 0.0
C289 C 0.91085 0.08656 0.56456 0.0
C290 C 0.88517 0.12968 0.54815 0.0
C291 C 0.90686 0.11676 0.52582 0.0
C292 C 0.79355 0.14354 0.62514 0.0
O293 O 0.80217 0.13462 0.6523 0.0
H294 H 0.91934 0.06763 0.57966 0.0
H295 H 0.86902 0.15161 0.54703 0.0
O296 O 0.8698 0.08012 0.63399 0.0
H297 H 0.97054 0.17457 0.66282 0.0
H298 H 0.91031 0.12652 0.50363 0.0
Cu299 Cu 0.42466 0.95132 0.65579 0.0
N300 N 0.4627 0.95029 0.68451 0.0
N301 N 0.50664 0.96725 0.71654 0.0
C302 C 0.48217 0.97573 0.69494 0.0
C303 C 0.50275 0.93511 0.71949 0.0
C304 C 0.47556 0.92473 0.69973 0.0
O305 O 0.44096 0.9813 0.62474 0.0
C306 C 0.37496 0.98635 0.69405 0.0
O307 O 0.40453 1.00396 0.7007 0.0
H308 H 0.47826 1.00004 0.68695 0.0
H309 H 0.46539 0.90036 0.69702 0.0
N310 N 0.41603 0.90983 0.64109 0.0
N311 N 0.38679 0.86298 0.63201 0.0
C312 C 0.38438 0.89221 0.64494 0.0
C313 C 0.43942 0.89115 0.62531 0.0
C314 C 0.42146 0.86231 0.61959 0.0
C315 C 0.43505 0.97799 0.59698 0.0
O316 O 0.41477 0.95353 0.58767 0.0
H317 H 0.35991 0.90087 0.65676 0.0
H318 H 0.4676 0.898 0.61856 0.0
O319 O 0.3779 0.96442 0.67455 0.0
H320 H 0.51755 0.92031 0.73544 0.0
H321 H 0.43331 0.84224 0.60761 0.0
Cu322 Cu 0.62023 0.4011 0.61768 0.0
N323 N 0.6598 0.40512 0.64487 0.0
N324 N 0.6826 0.38826 0.68867 0.0
C325 C 0.66753 0.37975 0.66232 0.0
C326 C 0.68643 0.42052 0.68713 0.0
C327 C 0.67214 0.43091 0.66012 0.0
O328 O 0.62166 0.3557 0.60651 0.0
C329 C 0.57417 0.44479 0.64458 0.0
O330 O 0.60012 0.4633 0.63253 0.0
H331 H 0.65783 0.35576 0.65717 0.0
H332 H 0.66702 0.4556 0.65388 0.0
N333 N 0.62358 0.42733 0.58373 0.0
N334 N 0.60308 0.4582 0.54638 0.0
C335 C 0.59332 0.43905 0.56939 0.0
C336 C 0.65369 0.43949 0.56923 0.0
C337 C 0.64106 0.45839 0.54594 0.0
C338 C 0.65218 0.34754 0.59364 0.0
O339 O 0.67545 0.37046 0.5852 0.0
H340 H 0.56458 0.43393 0.576 0.0
H341 H 0.68269 0.43537 0.57542 0.0
O342 O 0.57583 0.41456 0.64006 0.0
H343 H 0.6947 0.43582 0.70544 0.0
H344 H 0.65836 0.472 0.53051 0.0
Cu345 Cu 0.13538 0.60655 0.64434 0.0
N346 N 0.10087 0.61381 0.67485 0.0
N347 N 0.06223 0.60187 0.71267 0.0
C348 C 0.07834 0.59136 0.68732 0.0
C349 C 0.07481 0.63232 0.71606 0.0
C350 C 0.09865 0.63961 0.69269 0.0
O351 O 0.11057 0.58087 0.61395 0.0
C352 C 0.17243 0.55579 0.6733 0.0
O353 O 0.14103 0.5401 0.66781 0.0
H354 H 0.07586 0.56706 0.67905 0.0
H355 H 0.11489 0.66147 0.68981 0.0
N356 N 0.15298 0.6456 0.62865 0.0
N357 N 0.18714 0.69048 0.62143 0.0
C358 C 0.18189 0.66389 0.63847 0.0
C359 C 0.1395 0.66098 0.60463 0.0
C360 C 0.16041 0.68857 0.60012 0.0
C361 C 0.12786 0.56263 0.59592 0.0
O362 O 0.16478 0.56116 0.59705 0.0
H363 H 0.19848 0.65784 0.65784 0.0
H364 H 0.11628 0.65251 0.59118 0.0
O365 O 0.17675 0.58399 0.66278 0.0
H366 H 0.06834 0.64782 0.73463 0.0
H367 H 0.15662 0.70552 0.58208 0.0
C368 C 0.25742 0.69062 0.18331 0.0
C369 C 0.22844 0.69206 0.16209 0.0
C370 C 0.28526 0.71504 0.18503 0.0
C371 C 0.28437 0.7415 0.16497 0.0
C372 C 0.25462 0.74339 0.14411 0.0
C373 C 0.22724 0.71886 0.14296 0.0
C374 C 0.31601 0.7123 0.208 0.0
C375 C 0.25218 0.77103 0.12234 0.0
C376 C 0.34211 0.81901 0.17611 0.0
C377 C 0.37201 0.81457 0.15609 0.0
C378 C 0.31397 0.79512 0.18008 0.0
C379 C 0.31587 0.7659 0.16388 0.0
C380 C 0.34671 0.76099 0.14445 0.0
C381 C 0.37407 0.78525 0.14073 0.0
C382 C 0.28142 0.8018 0.20067 0.0
C383 C 0.35032 0.73033 0.12682 0.0
H384 H 0.25855 0.6703 0.19841 0.0
H385 H 0.205 0.72059 0.12657 0.0
H386 H 0.34362 0.70944 0.19676 0.0
H387 H 0.31758 0.73463 0.22135 0.0
H388 H 0.3115 0.69159 0.22328 0.0
H389 H 0.22621 0.77 0.10862 0.0
H390 H 0.25277 0.79423 0.1344 0.0
H391 H 0.27692 0.77075 0.10725 0.0
H392 H 0.34014 0.84146 0.18815 0.0
H393 H 0.39721 0.78117 0.12548 0.0
H394 H 0.27346 0.78002 0.21356 0.0
H395 H 0.25658 0.80893 0.18729 0.0
H396 H 0.28799 0.8216 0.21637 0.0
H397 H 0.34876 0.70919 0.14188 0.0
H398 H 0.37714 0.72927 0.11413 0.0
H399 H 0.32658 0.72832 0.1109 0.0
C400 C 0.81447 0.2276 0.10391 0.0
C401 C 0.82681 0.20658 0.12637 0.0
C402 C 0.7874 0.25136 0.10959 0.0
C403 C 0.77199 0.25447 0.13851 0.0
C404 C 0.78538 0.2342 0.16161 0.0
C405 C 0.8127 0.21065 0.15531 0.0
C406 C 0.77425 0.2724 0.08425 0.0
C407 C 0.77053 0.23697 0.19294 0.0
C408 C 0.71844 0.33224 0.15373 0.0
C409 C 0.68097 0.32309 0.14801 0.0
C410 C 0.74815 0.30999 0.15181 0.0
C411 C 0.74046 0.2777 0.14384 0.0
C412 C 0.70257 0.26804 0.13911 0.0
C413 C 0.67341 0.29076 0.14121 0.0
C414 C 0.78794 0.32127 0.15746 0.0
C415 C 0.69282 0.23394 0.13057 0.0
H416 H 0.82514 0.22486 0.08148 0.0
H417 H 0.82191 0.19462 0.17288 0.0
H418 H 0.74408 0.26746 0.07965 0.0
H419 H 0.77676 0.29812 0.09039 0.0
H420 H 0.79056 0.26834 0.06351 0.0
H421 H 0.78405 0.2579 0.20388 0.0
H422 H 0.73972 0.24106 0.19306 0.0
H423 H 0.77668 0.21517 0.20639 0.0
H424 H 0.72475 0.35704 0.15917 0.0
H425 H 0.64471 0.28326 0.13675 0.0
H426 H 0.80493 0.31883 0.13687 0.0
H427 H 0.80122 0.30601 0.17475 0.0
H428 H 0.78917 0.34672 0.1648 0.0
H429 H 0.70007 0.23018 0.10683 0.0
H430 H 0.66236 0.22864 0.13359 0.0
H431 H 0.70928 0.21644 0.14384 0.0
C432 C 0.19303 0.81771 0.31358 0.0
C433 C 0.20439 0.84395 0.33112 0.0
C434 C 0.21575 0.79011 0.31068 0.0
C435 C 0.25075 0.78836 0.32581 0.0
C436 C 0.26241 0.81482 0.3434 0.0
C437 C 0.23928 0.84214 0.34577 0.0
C438 C 0.20233 0.76279 0.29134 0.0
C439 C 0.29942 0.81425 0.35988 0.0
C440 C 0.29851 0.70747 0.34166 0.0
C441 C 0.32693 0.70676 0.31991 0.0
C442 C 0.27293 0.73333 0.34335 0.0
C443 C 0.27567 0.7593 0.32286 0.0
C444 C 0.30362 0.75822 0.30037 0.0
C445 C 0.32871 0.73212 0.29916 0.0
C446 C 0.24357 0.7333 0.36763 0.0
C447 C 0.30802 0.78526 0.27816 0.0
H448 H 0.16621 0.81866 0.30214 0.0
H449 H 0.24849 0.86205 0.35947 0.0
H450 H 0.22301 0.75845 0.27329 0.0
H451 H 0.20028 0.74037 0.30468 0.0
H452 H 0.17444 0.76766 0.28116 0.0
H453 H 0.30436 0.83653 0.37287 0.0
H454 H 0.30008 0.7934 0.37531 0.0
H455 H 0.32297 0.81131 0.34391 0.0
H456 H 0.29674 0.68815 0.35784 0.0
H457 H 0.35037 0.73202 0.28215 0.0
H458 H 0.21515 0.73664 0.35791 0.0
H459 H 0.24876 0.75374 0.38289 0.0
H460 H 0.24364 0.71067 0.3808 0.0
H461 H 0.28033 0.79176 0.26856 0.0
H462 H 0.32758 0.77906 0.25978 0.0
H463 H 0.31918 0.80689 0.28958 0.0
C464 C 0.84089 0.3152 0.36107 0.0
C465 C 0.87172 0.31057 0.38014 0.0
C466 C 0.81036 0.29335 0.36055 0.0
C467 C 0.81022 0.26621 0.37975 0.0
C468 C 0.84179 0.26088 0.39836 0.0
C469 C 0.87207 0.28294 0.39824 0.0
C470 C 0.77758 0.29994 0.34012 0.0
C471 C 0.84291 0.23253 0.41938 0.0
C472 C 0.71371 0.23461 0.40387 0.0
C473 C 0.70879 0.2073 0.38599 0.0
C474 C 0.74673 0.2534 0.40243 0.0
C475 C 0.77578 0.24513 0.38228 0.0
C476 C 0.77137 0.21721 0.3645 0.0
C477 C 0.73808 0.19851 0.3667 0.0
C478 C 0.75017 0.28253 0.4222 0.0
C479 C 0.8014 0.2076 0.34255 0.0
H480 H 0.84021 0.33632 0.3469 0.0
H481 H 0.89559 0.27898 0.41312 0.0
H482 H 0.77083 0.27827 0.32682 0.0
H483 H 0.75226 0.3057 0.35352 0.0
H484 H 0.78332 0.32032 0.32471 0.0
H485 H 0.87056 0.23028 0.4307 0.0
H486 H 0.82071 0.23517 0.43657 0.0
H487 H 0.83695 0.20992 0.40722 0.0
H488 H 0.69141 0.2416 0.41896 0.0
H489 H 0.73447 0.17767 0.35258 0.0
H490 H 0.75227 0.30459 0.40836 0.0
H491 H 0.77627 0.28107 0.43566 0.0
H492 H 0.72579 0.285 0.43751 0.0
H493 H 0.82886 0.205 0.35401 0.0
H494 H 0.80487 0.22674 0.3255 0.0
H495 H 0.79451 0.18467 0.33116 0.0
C496 C 0.84437 0.34512 0.90983 0.0
C497 C 0.82173 0.36591 0.89325 0.0
C498 C 0.83542 0.31224 0.91249 0.0
C499 C 0.80168 0.30031 0.89975 0.0
C500 C 0.77951 0.32095 0.88188 0.0
C501 C 0.79005 0.35335 0.87861 0.0
C502 C 0.86107 0.29056 0.93008 0.0
C503 C 0.74328 0.30943 0.86782 0.0
C504 C 0.76837 0.21292 0.89785 0.0
C505 C 0.74539 0.21156 0.9233 0.0
C506 C 0.78928 0.24088 0.89082 0.0
C507 C 0.78608 0.26841 0.90914 0.0
C508 C 0.76443 0.26651 0.93558 0.0
C509 C 0.7451 0.23802 0.94258 0.0
C510 C 0.81311 0.24124 0.863 0.0
C511 C 0.75926 0.29537 0.95548 0.0
H512 H 0.86808 0.35484 0.92181 0.0
H513 H 0.77234 0.36931 0.86571 0.0
H514 H 0.84701 0.28292 0.951 0.0
H515 H 0.86717 0.26852 0.91714 0.0
H516 H 0.88809 0.3026 0.93581 0.0
H517 H 0.72907 0.32858 0.8548 0.0
H518 H 0.7491 0.289 0.85279 0.0
H519 H 0.72356 0.30067 0.88526 0.0
H520 H 0.76899 0.19263 0.88281 0.0
H521 H 0.72767 0.23735 0.96237 0.0
H522 H 0.83754 0.25784 0.86503 0.0
H523 H 0.79574 0.24926 0.84391 0.0
H524 H 0.82364 0.21679 0.85783 0.0
H525 H 0.78694 0.30459 0.9631 0.0
H526 H 0.7418 0.2898 0.97538 0.0
H527 H 0.74544 0.31498 0.94281 0.0
C528 C 0.27155 0.68749 0.87989 0.0
C529 C 0.30666 0.69325 0.89328 0.0
C530 C 0.24432 0.7118 0.87774 0.0
C531 C 0.25212 0.74268 0.88944 0.0
C532 C 0.28755 0.74879 0.90272 0.0
C533 C 0.31436 0.72412 0.90437 0.0
C534 C 0.20695 0.7043 0.86328 0.0
C535 C 0.29703 0.78136 0.91549 0.0
C536 C 0.19354 0.81393 0.86339 0.0
C537 C 0.16722 0.81685 0.88653 0.0
C538 C 0.22124 0.7899 0.86398 0.0
C539 C 0.22291 0.76836 0.88841 0.0
C540 C 0.19662 0.77134 0.91194 0.0
C541 C 0.16908 0.79543 0.91066 0.0
C542 C 0.24853 0.78739 0.83833 0.0
C543 C 0.19765 0.74913 0.93855 0.0
H544 H 0.26491 0.66378 0.87154 0.0
H545 H 0.34149 0.72917 0.91428 0.0
H546 H 0.18391 0.70704 0.87974 0.0
H547 H 0.20151 0.72155 0.84493 0.0
H548 H 0.20579 0.67952 0.8542 0.0
H549 H 0.32595 0.78236 0.92484 0.0
H550 H 0.29451 0.80012 0.89803 0.0
H551 H 0.27671 0.7874 0.93336 0.0
H552 H 0.19204 0.83007 0.8445 0.0
H553 H 0.14923 0.79779 0.92881 0.0
H554 H 0.24598 0.76338 0.82786 0.0
H555 H 0.27786 0.7898 0.84651 0.0
H556 H 0.24363 0.80607 0.82107 0.0
H557 H 0.19404 0.72386 0.93126 0.0
H558 H 0.17536 0.75471 0.95507 0.0
H559 H 0.22546 0.75091 0.94965 0.0
C560 C 0.70393 0.30792 0.58743 0.0
C561 C 0.66597 0.31382 0.59422 0.0
C562 C 0.71992 0.27756 0.59174 0.0
C563 C 0.69727 0.25187 0.60231 0.0
C564 C 0.65839 0.25707 0.60764 0.0
C565 C 0.64327 0.28813 0.60395 0.0
C566 C 0.76165 0.27347 0.58631 0.0
C567 C 0.63306 0.23007 0.61805 0.0
C568 C 0.74707 0.17197 0.59231 0.0
C569 C 0.76346 0.16764 0.62039 0.0
C570 C 0.72259 0.19781 0.58677 0.0
C571 C 0.71545 0.22049 0.60953 0.0
C572 C 0.73063 0.21534 0.63828 0.0
C573 C 0.75396 0.18876 0.64344 0.0
C574 C 0.70604 0.20179 0.55609 0.0
C575 C 0.72473 0.23925 0.66304 0.0
H576 H 0.72188 0.32746 0.57992 0.0
H577 H 0.61393 0.29239 0.60918 0.0
H578 H 0.77576 0.26628 0.6073 0.0
H579 H 0.76652 0.25409 0.56992 0.0
H580 H 0.77527 0.29582 0.57792 0.0
H581 H 0.60283 0.2367 0.61696 0.0
H582 H 0.63762 0.20828 0.60438 0.0
H583 H 0.63995 0.22374 0.64139 0.0
H584 H 0.7541 0.15561 0.57447 0.0
H585 H 0.76676 0.18576 0.66515 0.0
H586 H 0.72105 0.22141 0.54414 0.0
H587 H 0.67591 0.20857 0.55754 0.0
H588 H 0.70848 0.17949 0.54274 0.0
H589 H 0.73929 0.26214 0.65737 0.0
H590 H 0.7358 0.23048 0.68468 0.0
H591 H 0.69438 0.24468 0.66568 0.0
C592 C 0.20985 0.74615 0.61253 0.0
C593 C 0.21557 0.71538 0.62464 0.0
C594 C 0.23761 0.77028 0.61442 0.0
C595 C 0.27211 0.76374 0.62894 0.0
C596 C 0.27791 0.73296 0.64168 0.0
C597 C 0.24967 0.7092 0.63935 0.0
C598 C 0.23014 0.80275 0.6006 0.0
C599 C 0.31421 0.72497 0.65741 0.0
C600 C 0.35717 0.81557 0.60815 0.0
C601 C 0.35839 0.83786 0.63151 0.0
C602 C 0.32951 0.79125 0.60719 0.0
C603 C 0.30232 0.78894 0.6302 0.0
C604 C 0.30354 0.81117 0.65397 0.0
C605 C 0.33143 0.83534 0.65431 0.0
C606 C 0.32911 0.76825 0.58129 0.0
C607 C 0.27528 0.80949 0.67905 0.0
H608 H 0.18348 0.75154 0.60161 0.0
H609 H 0.2547 0.68554 0.64854 0.0
H610 H 0.23266 0.82182 0.61767 0.0
H611 H 0.25149 0.80797 0.58319 0.0
H612 H 0.20171 0.80416 0.5904 0.0
H613 H 0.31387 0.70037 0.66708 0.0
H614 H 0.33812 0.72689 0.64158 0.0
H615 H 0.31953 0.74247 0.6755 0.0
H616 H 0.37746 0.81748 0.59024 0.0
H617 H 0.33238 0.85207 0.67268 0.0
H618 H 0.30211 0.77037 0.56906 0.0
H619 H 0.33106 0.74314 0.58948 0.0
H620 H 0.35263 0.77282 0.56549 0.0
H621 H 0.24638 0.81247 0.67015 0.0
H622 H 0.28035 0.82823 0.69614 0.0
H623 H 0.27638 0.78554 0.68992 0.0
C624 C 0.99256 0.44981 0.28142 0.0
C625 C 1.00067 0.43393 0.30827 0.0
C626 C 0.01875 0.47073 0.26795 0.0
C627 C 0.05443 0.47571 0.28127 0.0
C628 C 0.06366 0.45839 0.30747 0.0
C629 C 0.03662 0.43792 0.32078 0.0
C630 C 1.00738 0.48884 0.24023 0.0
C631 C 0.10156 0.46249 0.32214 0.0
C632 C 0.1261 0.5195 0.2319 0.0
C633 C 0.12187 0.55149 0.24117 0.0
C634 C 0.10587 0.49426 0.24574 0.0
C635 C 0.08035 0.50115 0.26912 0.0
C636 C 0.07718 0.53319 0.27933 0.0
C637 C 0.0981 0.55781 0.26544 0.0
C638 C 0.11067 0.46041 0.23452 0.0
C639 C 0.05014 0.54184 0.30395 0.0
H640 H 0.96496 0.44703 0.27147 0.0
H641 H 0.0433 0.42578 0.34146 0.0
H642 H 1.00604 0.51493 0.24512 0.0
H643 H 0.02868 0.48557 0.22246 0.0
H644 H 0.97952 0.48095 0.23165 0.0
H645 H 0.10623 0.44443 0.34 0.0
H646 H 0.12446 0.46046 0.30545 0.0
H647 H 0.10361 0.48682 0.33204 0.0
H648 H 0.1444 0.51425 0.21325 0.0
H649 H 0.0945 0.58233 0.27289 0.0
H650 H 0.08474 0.45268 0.22274 0.0
H651 H 0.11493 0.44357 0.25339 0.0
H652 H 0.13485 0.45835 0.21895 0.0
H653 H 0.02081 0.5371 0.2966 0.0
H654 H 0.0525 0.5675 0.31048 0.0
H655 H 0.0553 0.52669 0.32386 0.0
C656 C 1.00398 0.08217 0.18047 0.0
C657 C 0.96487 0.07695 0.17926 0.0
C658 C 0.02766 0.06175 0.197 0.0
C659 C 1.01202 0.03533 0.2128 0.0
C660 C 0.97251 0.0303 0.21215 0.0
C661 C 0.9495 0.05108 0.19545 0.0
C662 C 0.06955 0.06809 0.19708 0.0
C663 C 0.95455 1.0025 0.22865 0.0
C664 C 0.07181 0.96175 0.2305 0.0
C665 C 0.07922 0.96557 0.26098 0.0
C666 C 0.05092 0.98464 0.21446 0.0
C667 C 0.03694 1.01222 0.22912 0.0
C668 C 0.04548 1.01685 0.2596 0.0
C669 C 0.06647 0.99354 0.27514 0.0
C670 C 0.04272 0.97872 0.18199 0.0
C671 C 0.03134 0.04591 0.2761 0.0
H672 H 0.01628 0.10202 0.1681 0.0
H673 H 0.91939 0.04674 0.19477 0.0
H674 H 0.07993 0.07011 0.22026 0.0
H675 H 0.08444 0.04762 0.18669 0.0
H676 H 0.07717 0.09042 0.18482 0.0
H677 H 0.92336 1.00249 0.22681 0.0
H678 H 0.96527 0.97947 0.21971 0.0
H679 H 0.96228 1.00341 0.25253 0.0
H680 H 0.08145 0.94033 0.21924 0.0
H681 H 0.07186 0.99679 0.29866 0.0
H682 H 0.05157 0.99979 0.16845 0.0
H683 H 1.01196 0.97552 0.17877 0.0
H684 H 0.05726 0.95706 0.17343 0.0
H685 H 0.03952 0.06823 0.26412 0.0
H686 H 0.04242 0.04714 0.29917 0.0
H687 H 1.00013 0.04524 0.2771 0.0
C688 C 0.53383 0.04571 0.33887 0.0
C689 C 0.56845 0.06144 0.33424 0.0
C690 C 0.52125 0.02125 0.31985 0.0
C691 C 0.54373 1.01207 0.29533 0.0
C692 C 0.57928 0.02716 0.29094 0.0
C693 C 0.59127 0.05167 0.31047 0.0
C694 C 0.48335 1.00577 0.32561 0.0
C695 C 0.60419 0.01796 0.26518 0.0
C696 C 0.5205 0.93079 0.26066 0.0
C697 C 0.49783 0.93946 0.23635 0.0
C698 C 0.53628 0.95412 0.27957 0.0
C699 C 0.52936 0.98711 0.27417 0.0
C700 C 0.50669 0.99608 0.24959 0.0
C701 C 0.49119 0.97221 0.23103 0.0
C702 C 0.56004 0.94341 0.30556 0.0
C703 C 0.49852 0.03095 0.24303 0.0
H704 H 0.51601 0.05298 0.35722 0.0
H705 H 0.61784 0.06392 0.30651 0.0
H706 H 0.46425 1.01051 0.30661 0.0
H707 H 0.48638 0.97933 0.32756 0.0
H708 H 0.46986 1.01485 0.34622 0.0
H709 H 0.63158 0.03098 0.26545 0.0
H710 H 0.60969 0.99175 0.26567 0.0
H711 H 0.58967 0.02328 0.24391 0.0
H712 H 0.52604 0.90562 0.26499 0.0
H713 H 0.47401 0.97927 0.21223 0.0
H714 H 0.54649 0.95071 0.32671 0.0
H715 H 0.58806 0.95529 0.30466 0.0
H716 H 0.56414 0.91696 0.30601 0.0
H717 H 0.48273 0.04162 0.26184 0.0
H718 H 0.4818 0.03411 0.22237 0.0
H719 H 0.52526 0.04463 0.24073 0.0
C720 C 0.49135 0.45096 0.18606 0.0
C721 C 0.52901 0.44362 0.1927 0.0
C722 C 0.46998 0.47116 0.20452 0.0
C723 C 0.48644 0.48434 0.23047 0.0
C724 C 0.52412 0.47642 0.23771 0.0
C725 C 0.54492 0.45627 0.21877 0.0
C726 C 0.42996 0.47892 0.19591 0.0
C727 C 0.54271 0.48968 0.26528 0.0
C728 C 0.44538 0.5605 0.26481 0.0
C729 C 0.42438 0.54804 0.28874 0.0
C730 C 0.46523 0.54008 0.24543 0.0
C731 C 0.46424 0.50634 0.25007 0.0
C732 C 0.44246 0.49362 0.27378 0.0
C733 C 0.42281 0.51453 0.2927 0.0
C734 C 0.48788 0.55467 0.22032 0.0
C735 C 0.44058 0.45789 0.27961 0.0
H736 H 0.4787 0.44153 0.16596 0.0
H737 H 0.57397 0.45093 0.22414 0.0
H738 H 0.41043 0.47207 0.21416 0.0
H739 H 0.4271 0.50519 0.19236 0.0
H740 H 0.42104 0.46635 0.17531 0.0
H741 H 0.57188 0.4807 0.26817 0.0
H742 H 0.54362 0.51631 0.26409 0.0
H743 H 0.526 0.48306 0.28526 0.0
H744 H 0.44696 0.58629 0.26155 0.0
H745 H 0.40678 0.50451 0.31108 0.0
H746 H 0.47895 0.54414 0.1988 0.0
H747 H 0.51812 0.54898 0.2233 0.0
H748 H 0.48478 0.58119 0.21905 0.0
H749 H 0.43052 0.44514 0.25948 0.0
H750 H 0.42161 0.45172 0.29847 0.0
H751 H 0.46915 0.44872 0.28468 0.0
C752 C 0.04398 0.58818 0.76429 0.0
C753 C 0.04076 0.58279 0.73361 0.0
C754 C 0.02505 0.56848 0.78497 0.0
C755 C 1.00206 0.5429 0.77475 0.0
C756 C 0.99818 0.53767 0.74379 0.0
C757 C 0.01769 0.55758 0.72363 0.0
C758 C 0.03021 0.57469 0.81779 0.0
C759 C 0.97361 0.51091 0.73197 0.0
C760 C 0.98072 0.47306 0.8272 0.0
C761 C 0.9447 0.48092 0.83767 0.0
C762 C 0.99979 0.49309 0.80685 0.0
C763 C 0.98227 0.52149 0.79645 0.0
C764 C 0.94584 0.52944 0.8068 0.0
C765 C 0.92761 0.50918 0.82739 0.0
C766 C 0.03875 0.48391 0.79655 0.0
C767 C 0.92606 0.55933 0.79606 0.0
H768 H 0.06219 0.60726 0.77221 0.0
H769 H 0.01482 0.5535 0.69996 0.0
H770 H 1.0025 0.57889 0.82846 0.0
H771 H 0.04269 0.55327 0.82864 0.0
H772 H 0.0487 0.59577 0.82211 0.0
H773 H 0.97294 0.51047 0.70727 0.0
H774 H 0.98407 0.48739 0.74008 0.0
H775 H 0.94441 0.51361 0.74034 0.0
H776 H 0.99421 0.45134 0.83509 0.0
H777 H 0.89972 0.5154 0.83522 0.0
H778 H 0.05907 0.50337 0.80195 0.0
H779 H 0.03901 0.48094 0.77204 0.0
H780 H 0.04862 0.46124 0.80698 0.0
H781 H 0.94302 0.58094 0.80164 0.0
H782 H 0.89759 0.56194 0.80601 0.0
H783 H 0.92321 0.55874 0.77149 0.0
C784 C 1.00712 0.98406 0.76477 0.0
C785 C 0.99515 0.95378 0.77489 0.0
C786 C 0.9849 1.00229 0.74528 0.0
C787 C 0.94956 0.99013 0.73584 0.0
C788 C 0.93737 0.95947 0.74581 0.0
C789 C 0.96041 0.94159 0.76509 0.0
C790 C 0.99917 0.03472 0.73494 0.0
C791 C 0.89971 0.94584 0.73656 0.0
C792 C 0.88175 0.05514 0.7113 0.0
C793 C 0.88622 0.05481 0.6803 0.0
C794 C 0.90061 0.03304 0.72951 0.0
C795 C 0.92498 1.01024 0.71648 0.0
C796 C 0.9281 1.00868 0.68508 0.0
C797 C 0.90847 0.03088 0.66733 0.0
C798 C 0.89599 0.03523 0.76284 0.0
C799 C 0.95392 0.98486 0.67032 0.0
H800 H 0.0342 0.99336 0.77184 0.0
H801 H 0.95088 0.91832 0.77303 0.0
H802 H 0.99973 0.0357 0.71028 0.0
H803 H 0.97983 0.05383 0.74263 0.0
H804 H 0.02789 0.04015 0.74338 0.0
H805 H 0.8949 0.92121 0.74543 0.0
H806 H 0.87681 0.96161 0.74463 0.0
H807 H 0.89769 0.94514 0.71195 0.0
H808 H 0.8644 0.07345 0.72146 0.0
H809 H 0.91226 0.03061 0.6434 0.0
H810 H 0.92266 0.04389 0.77293 0.0
H811 H 0.88981 1.01118 0.77244 0.0
H812 H 0.87309 0.05191 0.76928 0.0
H813 H 0.98361 0.99117 0.67541 0.0
H814 H 0.95037 0.98453 0.64577 0.0
H815 H 0.94872 0.9603 0.67913 0.0
C816 C 0.64144 0.09505 0.79652 0.0
C817 C 0.63473 0.09524 0.82729 0.0
C818 C 0.62297 0.073 0.77783 0.0
C819 C 0.59682 0.05079 0.79013 0.0
C820 C 0.59076 0.05024 0.82127 0.0
C821 C 0.60991 0.07231 0.83946 0.0
C822 C 0.6306 0.0741 0.7448 0.0
C823 C 0.56294 0.02714 0.83528 0.0
C824 C 0.51783 0.01964 0.74072 0.0
C825 C 0.52988 0.98839 0.73423 0.0
C826 C 0.53943 0.04017 0.75872 0.0
C827 C 0.57422 0.02938 0.77033 0.0
C828 C 0.58683 0.99801 0.76352 0.0
C829 C 0.5644 0.97784 0.74571 0.0
C830 C 0.52468 0.07327 0.76571 0.0
C831 C 0.62394 0.98574 0.77515 0.0
H832 H 0.66065 0.11256 0.7869 0.0
H833 H 0.60442 0.07225 0.86318 0.0
H834 H 0.63798 0.04982 0.73659 0.0
H835 H 0.60481 0.08171 0.73286 0.0
H836 H 0.6538 0.09102 0.73902 0.0
H837 H 0.56277 0.0287 0.85994 0.0
H838 H 0.53418 0.03237 0.82702 0.0
H839 H 0.56961 1.00211 0.82884 0.0
H840 H 0.49094 0.02779 0.73233 0.0
H841 H 0.57403 0.95385 0.74053 0.0
H842 H 0.54528 0.09183 0.75844 0.0
H843 H 0.52102 0.07587 0.79009 0.0
H844 H 0.49728 0.07812 0.75473 0.0
H845 H 0.64711 1.00212 0.76819 0.0
H846 H 0.63028 0.96115 0.7671 0.0
H847 H 0.62356 0.98538 0.79982 0.0
C848 C 0.52249 0.44086 0.68309 0.0
C849 C 0.54643 0.4595 0.66507 0.0
C850 C 0.49925 0.45543 0.70457 0.0
C851 C 0.50038 0.48927 0.70817 0.0
C852 C 0.52358 0.50813 0.68933 0.0
C853 C 0.54602 0.49308 0.66799 0.0
C854 C 0.47435 0.43461 0.72394 0.0
C855 C 0.52577 0.54426 0.69237 0.0
C856 C 0.42654 0.5392 0.74749 0.0
C857 C 0.44426 0.54553 0.77471 0.0
C858 C 0.44326 0.51902 0.72634 0.0
C859 C 0.4789 0.50537 0.73235 0.0
C860 C 0.49619 0.51073 0.76031 0.0
C861 C 0.47846 0.53053 0.78126 0.0
C862 C 0.42346 0.5134 0.69711 0.0
C863 C 0.53437 0.49697 0.7675 0.0
H864 H 0.52259 0.41493 0.68095 0.0
H865 H 0.56412 0.5078 0.65403 0.0
H866 H 0.48473 0.43519 0.74719 0.0
H867 H 0.44517 0.444 0.72411 0.0
H868 H 0.47372 0.40923 0.71637 0.0
H869 H 0.54469 0.55548 0.67555 0.0
H870 H 0.49735 0.55487 0.68998 0.0
H871 H 0.53628 0.55062 0.71484 0.0
H872 H 0.39958 0.55013 0.74273 0.0
H873 H 0.49202 0.53536 0.80236 0.0
H874 H 0.4239 0.48752 0.69128 0.0
H875 H 0.43842 0.52665 0.67916 0.0
H876 H 0.39375 0.52161 0.69766 0.0
H877 H 0.53475 0.47079 0.76302 0.0
H878 H 0.54244 0.50101 0.79106 0.0
H879 H 0.55599 0.50834 0.75298 0.0
C880 C 1.01357 0.69902 0.19909 0.0
C881 C 0.0509 0.6898 0.20475 0.0
C882 C 0.99687 0.72431 0.21487 0.0
C883 C 0.01838 0.74118 0.23622 0.0
C884 C 0.05576 0.73158 0.24244 0.0
C885 C 0.07129 0.70585 0.22691 0.0
C886 C 0.95675 0.73342 0.20794 0.0
C887 C 0.07989 0.74898 0.26503 0.0
C888 C 1.01309 0.82771 0.25682 0.0
C889 C 1.00528 0.82486 0.28725 0.0
C890 C 1.01261 0.80072 0.23843 0.0
C891 C 1.00376 0.77037 0.25093 0.0
C892 C 0.98999 0.76836 0.28045 0.0
C893 C 0.99112 0.7958 0.29849 0.0
C894 C 0.02671 0.80408 0.20689 0.0
C895 C 0.97861 0.73658 0.29406 0.0
H896 H 0.99752 0.68691 0.18198 0.0
H897 H 0.09961 0.69841 0.23226 0.0
H898 H 0.94166 0.7416 0.22814 0.0
H899 H 0.95672 0.75345 0.19161 0.0
H900 H 0.94094 0.71298 0.19806 0.0
H901 H 0.10832 0.73825 0.26729 0.0
H902 H 0.08333 0.77455 0.25845 0.0
H903 H 0.06603 0.74844 0.28714 0.0
H904 H 0.02306 0.85054 0.24808 0.0
H905 H 0.98459 0.7937 0.32196 0.0
H906 H 1.0095 0.78935 0.1915 0.0
H907 H 0.05614 0.79532 0.20564 0.0
H908 H 0.0263 0.82947 0.19916 0.0
H909 H 0.96063 0.73993 0.31404 0.0
H910 H 1.00423 0.72332 0.30088 0.0
H911 H 0.96321 0.72154 0.27771 0.0
C912 C 0.69953 0.11687 0.15349 0.0
C913 C 0.73126 0.10538 0.16858 0.0
C914 C 0.66938 0.13061 0.16918 0.0
C915 C 0.67092 0.13219 0.20061 0.0
C916 C 0.70239 0.11938 0.21588 0.0
C917 C 0.73234 0.10651 0.19962 0.0
C918 C 0.63681 0.14471 0.15213 0.0
C919 C 0.70497 0.12003 0.24943 0.0
C920 C 0.62539 0.19294 0.25076 0.0
C921 C 0.59828 0.17389 0.265 0.0
C922 C 0.64654 0.18079 0.22703 0.0
C923 C 0.641 0.14852 0.21801 0.0
C924 C 0.61103 0.1303 0.23042 0.0
C925 C 0.58978 0.14337 0.25372 0.0
C926 C 0.67765 0.20129 0.21407 0.0
C927 C 0.6043 0.0958 0.22162 0.0
H928 H 0.69914 0.11641 0.1294 0.0
H929 H 0.75698 0.09754 0.21109 0.0
H930 H 0.60966 0.13567 0.16116 0.0
H931 H 0.63693 0.17121 0.15472 0.0
H932 H 0.63822 0.13902 0.12803 0.0
H933 H 0.73019 0.10723 0.25785 0.0
H934 H 0.70629 0.14528 0.25723 0.0
H935 H 0.67951 0.10879 0.25944 0.0
H936 H 0.63212 0.21636 0.25987 0.0
H937 H 0.56926 0.12847 0.26524 0.0
H938 H 0.68045 0.19724 0.18984 0.0
H939 H 0.70475 0.19467 0.22465 0.0
H940 H 0.67271 0.22727 0.21803 0.0
H941 H 0.60421 0.09335 0.19707 0.0
H942 H 0.57726 0.08632 0.23059 0.0
H943 H 0.62753 0.08073 0.2303 0.0
C944 C 0.53708 0.68468 0.28877 0.0
C945 C 0.51587 0.70133 0.30994 0.0
C946 C 0.55227 0.7007 0.26395 0.0
C947 C 0.54449 0.73371 0.25982 0.0
C948 C 0.52595 0.7511 0.28257 0.0
C949 C 0.51233 0.73468 0.30759 0.0
C950 C 0.5738 0.68163 0.24117 0.0
C951 C 0.51665 0.78632 0.27906 0.0
C952 C 0.57285 0.79337 0.20079 0.0
C953 C 0.5398 0.7936 0.18375 0.0
C954 C 0.57749 0.77072 0.22373 0.0
C955 C 0.54795 0.74874 0.22997 0.0
C956 C 0.51702 0.74629 0.21025 0.0
C957 C 0.51375 0.76848 0.18703 0.0
C958 C 0.61214 0.77249 0.243 0.0
C959 C 0.48492 0.72302 0.21577 0.0
H960 H 0.54012 0.65887 0.29091 0.0
H961 H 0.49573 0.74743 0.32393 0.0
H962 H 0.55381 0.67101 0.22497 0.0
H963 H 0.59421 0.69692 0.22879 0.0
H964 H 0.5892 0.66153 0.25191 0.0
H965 H 0.54228 0.80033 0.27333 0.0
H966 H 0.49624 0.78943 0.2606 0.0
H967 H 0.50418 0.79661 0.29957 0.0
H968 H 0.59345 0.81244 0.19802 0.0
H969 H 0.48883 0.76813 0.17314 0.0
H970 H 0.62003 0.74834 0.25143 0.0
H971 H 0.60648 0.78807 0.26244 0.0
H972 H 0.63635 0.78298 0.23058 0.0
H973 H 0.49574 0.69831 0.21882 0.0
H974 H 0.46427 0.72282 0.19722 0.0
H975 H 0.46989 0.72975 0.23648 0.0
C976 C 0.76125 0.4705 0.19215 0.0
C977 C 0.72809 0.48837 0.19004 0.0
C978 C 0.78438 0.47273 0.21726 0.0
C979 C 0.77373 0.49305 0.24099 0.0
C980 C 0.74169 0.5129 0.23805 0.0
C981 C 0.71926 0.51042 0.21246 0.0
C982 C 0.81868 0.45154 0.21929 0.0
C983 C 0.72939 0.53481 0.26287 0.0
C984 C 0.80365 0.46004 0.31572 0.0
C985 C 0.83629 0.47794 0.3214 0.0
C986 C 0.78187 0.46599 0.29036 0.0
C987 C 0.79336 0.4902 0.27002 0.0
C988 C 0.82534 0.50941 0.27636 0.0
C989 C 0.8464 0.50312 0.30212 0.0
C990 C 0.74761 0.44525 0.28464 0.0
C991 C 0.83859 0.53528 0.25512 0.0
H992 H 0.76803 0.45362 0.17467 0.0
H993 H 0.69338 0.52399 0.21099 0.0
H994 H 0.84346 0.46562 0.22688 0.0
H995 H 0.81357 0.43222 0.23591 0.0
H996 H 0.82557 0.44019 0.19765 0.0
H997 H 0.70762 0.55212 0.2554 0.0
H998 H 0.71746 0.52015 0.2813 0.0
H999 H 0.75373 0.54841 0.27192 0.0
H1000 H 0.79577 0.44078 0.33081 0.0
H1001 H 0.87192 0.51672 0.3063 0.0
H1002 H 0.75267 0.42989 0.26492 0.0
H1003 H 0.72285 0.46047 0.27966 0.0
H1004 H 0.74069 0.42944 0.30386 0.0
H1005 H 0.85022 0.52397 0.2348 0.0
H1006 H 0.86078 0.55077 0.26508 0.0
H1007 H 0.81472 0.55062 0.24811 0.0
C1008 C 0.93993 0.22592 0.69683 0.0
C1009 C 0.90798 0.21032 0.68538 0.0
C1010 C 0.93774 0.24495 0.72244 0.0
C1011 C 0.90256 0.24912 0.7367 0.0
C1012 C 0.86982 0.23488 0.72453 0.0
C1013 C 0.87295 0.21545 0.6992 0.0
C1014 C 0.97334 0.25976 0.73478 0.0
C1015 C 0.83166 0.23932 0.73879 0.0
C1016 C 0.9081 0.26865 0.81887 0.0
C1017 C 0.90599 0.30229 0.81856 0.0
C1018 C 0.90571 0.25093 0.79246 0.0
C1019 C 0.90062 0.26723 0.76508 0.0
C1020 C 0.89633 0.30099 0.76476 0.0
C1021 C 0.89928 0.31814 0.79147 0.0
C1022 C 0.91023 0.21489 0.79375 0.0
C1023 C 0.89013 0.31915 0.73606 0.0
H1024 H 0.96695 0.22288 0.68609 0.0
H1025 H 0.84794 0.20355 0.69097 0.0
H1026 H 0.97008 0.28615 0.73687 0.0
H1027 H 0.97876 0.25009 0.75741 0.0
H1028 H 0.99832 0.25488 0.72063 0.0
H1029 H 0.80848 0.2296 0.72483 0.0
H1030 H 0.83093 0.22688 0.76065 0.0
H1031 H 0.82631 0.26516 0.74296 0.0
H1032 H 0.91229 0.25613 0.83974 0.0
H1033 H 0.89776 0.34409 0.79084 0.0
H1034 H 0.9363 0.20795 0.7818 0.0
H1035 H 0.88629 0.20287 0.78244 0.0
H1036 H 0.91189 0.20572 0.81694 0.0
H1037 H 0.91592 0.31801 0.72217 0.0
H1038 H 0.88326 0.34481 0.73994 0.0
H1039 H 0.86693 0.30797 0.72314 0.0
C1040 C 0.30824 0.97015 0.70462 0.0
C1041 C 0.33982 0.98901 0.71174 0.0
C1042 C 0.27626 0.96966 0.723 0.0
C1043 C 0.27585 0.98837 0.74924 0.0
C1044 C 0.30704 1.00837 0.75599 0.0
C1045 C 0.33861 1.00853 0.73712 0.0
C1046 C 0.24345 0.9482 0.71486 0.0
C1047 C 0.30769 0.02862 0.78379 0.0
C1048 C 0.1809 1.00087 0.78666 0.0
C1049 C 0.18067 0.97619 0.80802 0.0
C1050 C 0.21201 1.00563 0.76776 0.0
C1051 C 0.24374 0.98537 0.77044 0.0
C1052 C 0.24417 0.96114 0.79263 0.0
C1053 C 0.21263 0.95678 0.81107 0.0
C1054 C 0.21043 0.03163 0.7443 0.0
C1055 C 0.2776 0.93921 0.7964 0.0
H1056 H 0.30881 0.95508 0.68501 0.0
H1057 H 0.36285 0.02318 0.74284 0.0
H1058 H 0.24027 0.92887 0.73176 0.0
H1059 H 0.21693 0.96215 0.71477 0.0
H1060 H 0.24709 0.93689 0.69271 0.0
H1061 H 0.33278 0.04465 0.78472 0.0
H1062 H 0.28198 0.04356 0.7851 0.0
H1063 H 0.30784 1.01275 0.80367 0.0
H1064 H 0.15632 1.01595 0.78409 0.0
H1065 H 0.2128 0.93775 0.82759 0.0
H1066 H 0.21089 0.02058 0.72188 0.0
H1067 H 0.23552 0.04752 0.74592 0.0
H1068 H 0.18472 0.04656 0.74625 0.0
H1069 H 0.28135 0.92457 0.77605 0.0
H1070 H 0.27433 0.92272 0.81572 0.0
H1071 H 0.30369 0.95361 0.79942 0.0
C1072 C 0.68495 0.25841 0.81831 0.0
C1073 C 0.65514 0.26446 0.83804 0.0
C1074 C 0.69597 0.28123 0.79693 0.0
C1075 C 0.6766 0.3108 0.7951 0.0
C1076 C 0.64865 0.31809 0.81651 0.0
C1077 C 0.63816 0.29478 0.83765 0.0
C1078 C 0.72613 0.27248 0.77472 0.0
C1079 C 0.62774 0.34956 0.81568 0.0
C1080 C 0.70708 0.37514 0.73904 0.0
C1081 C 0.68278 0.36847 0.7152 0.0
C1082 C 0.70592 0.35647 0.76529 0.0
C1083 C 0.67979 0.33072 0.76764 0.0
C1084 C 0.65548 0.32383 0.74359 0.0
C1085 C 0.65709 0.34283 0.71795 0.0
C1086 C 0.73224 0.36446 0.79056 0.0
C1087 C 0.62716 0.29657 0.74502 0.0
H1088 H 0.69838 0.23512 0.81839 0.0
H1089 H 0.61585 0.29996 0.85333 0.0
H1090 H 0.71269 0.2658 0.75332 0.0
H1091 H 0.74514 0.29319 0.77031 0.0
H1092 H 0.74329 0.25185 0.78248 0.0
H1093 H 0.64751 0.36992 0.81201 0.0
H1094 H 0.60755 0.34935 0.79686 0.0
H1095 H 0.61176 0.35381 0.83654 0.0
H1096 H 0.72692 0.3949 0.73713 0.0
H1097 H 0.63718 0.33793 0.70036 0.0
H1098 H 0.75227 0.38408 0.78467 0.0
H1099 H 0.74853 0.34291 0.79714 0.0
H1100 H 0.71571 0.37193 0.81028 0.0
H1101 H 0.6417 0.27358 0.74975 0.0
H1102 H 0.61107 0.29385 0.724 0.0
H1103 H 0.60689 0.30077 0.76337 0.0
C1104 C 0.27223 0.5415 0.8263 0.0
C1105 C 0.30605 0.52434 0.82751 0.0
C1106 C 0.24981 0.54113 0.80066 0.0
C1107 C 0.26155 0.52319 0.77563 0.0
C1108 C 0.29404 0.50377 0.77757 0.0
C1109 C 0.31587 0.50449 0.80357 0.0
C1110 C 0.2151 0.56191 0.79961 0.0
C1111 C 0.3075 0.48424 0.75144 0.0
C1112 C 0.18915 0.51707 0.71387 0.0
C1113 C 0.19882 0.54378 0.69622 0.0
C1114 C 0.21046 0.50892 0.73905 0.0
C1115 C 0.24218 0.52788 0.74665 0.0
C1116 C 0.25353 0.5535 0.72779 0.0
C1117 C 0.23169 0.56115 0.70282 0.0
C1118 C 0.19781 0.48118 0.75842 0.0
C1119 C 0.28755 0.57403 0.73491 0.0
H1120 H 0.26433 0.55672 0.84479 0.0
H1121 H 0.342 0.49116 0.80423 0.0
H1122 H 0.21998 0.58235 0.78413 0.0
H1123 H 0.19069 0.54801 0.79107 0.0
H1124 H 0.20773 0.57172 0.82181 0.0
H1125 H 0.32837 0.46584 0.75826 0.0
H1126 H 0.28358 0.47208 0.74022 0.0
H1127 H 0.32111 0.50045 0.73494 0.0
H1128 H 0.16388 0.50341 0.70889 0.0
H1129 H 0.23957 0.58163 0.68915 0.0
H1130 H 0.18627 0.49056 0.7796 0.0
H1131 H 0.222 0.46556 0.76408 0.0
H1132 H 0.17572 0.46636 0.74751 0.0
H1133 H 0.28235 0.58765 0.75568 0.0
H1134 H 0.29422 0.59143 0.71684 0.0
H1135 H 0.31254 0.5587 0.73876 0.0
C1136 C 0.08025 0.53659 0.08017 0.0
C1137 C 0.11834 0.54198 0.07324 0.0
C1138 C 0.05719 0.51758 0.06191 0.0
C1139 C 0.07244 0.50355 0.03595 0.0
C1140 C 0.11079 0.50896 0.02869 0.0
C1141 C 0.13326 0.52812 0.0474 0.0
C1142 C 0.01642 0.51253 0.07042 0.0
C1143 C 0.12813 0.49434 1.00126 0.0
C1144 C 0.02066 0.4305 0.00557 0.0
C1145 C 0.99897 0.44395 0.98264 0.0
C1146 C 0.04517 0.44949 0.02267 0.0
C1147 C 0.04826 0.48283 0.01674 0.0
C1148 C 0.02707 0.4965 0.99326 0.0
C1149 C 1.00271 0.47692 0.97651 0.0
C1150 C 0.06733 0.43393 0.04744 0.0
C1151 C 0.02952 0.53196 0.98625 0.0
H1152 H 0.06818 0.54767 0.0997 0.0
H1153 H 0.16267 0.53192 0.04199 0.0
H1154 H 0.99785 0.52114 0.05227 0.0
H1155 H 1.01058 0.48652 0.07353 0.0
H1156 H 1.00882 0.52529 0.09122 0.0
H1157 H 0.1582 0.50124 0.99848 0.0
H1158 H 0.1261 0.46776 1.00248 0.0
H1159 H 0.11241 0.50206 0.98118 0.0
H1160 H 0.01857 0.405 0.01015 0.0
H1161 H 0.98588 0.48764 0.95908 0.0
H1162 H 0.05905 0.44446 0.0691 0.0
H1163 H 0.09785 0.43874 0.04438 0.0
H1164 H 0.06278 0.40752 0.04852 0.0
H1165 H 0.01929 0.54601 0.00553 0.0
H1166 H 1.01262 0.53859 0.9664 0.0
H1167 H 0.05925 0.53911 0.98229 0.0
C1168 C 0.05581 0.96352 0.96792 0.0
C1169 C 0.0627 0.97405 0.93871 0.0
C1170 C 0.03396 0.98179 0.98766 0.0
C1171 C 0.01919 1.01167 0.9782 0.0
C1172 C 0.02743 0.02308 0.94916 0.0
C1173 C 0.04872 1.004 0.92967 0.0
C1174 C 0.02531 0.96841 0.01819 0.0
C1175 C 1.01287 0.05507 0.93838 0.0
C1176 C 0.92843 0.04161 0.01318 0.0
C1177 C 0.94161 0.0641 0.03391 0.0
C1178 C 0.95341 0.02415 0.99531 0.0
C1179 C 0.99266 0.02969 0.99776 0.0
C1180 C 1.00621 0.05235 0.01873 0.0
C1181 C 0.9805 0.06903 0.03682 0.0
C1182 C 0.93771 0.99972 0.9738 0.0
C1183 C 0.04777 0.05936 0.02167 0.0
H1184 H 0.06635 0.94036 0.97509 0.0
H1185 H 0.05414 1.01243 0.90723 0.0
H1186 H 0.03274 0.98621 0.03555 0.0
H1187 H 0.99465 0.96356 0.02014 0.0
H1188 H 0.0407 0.94577 0.02279 0.0
H1189 H 0.02475 0.06192 0.91636 0.0
H1190 H 0.98175 0.05403 0.93648 0.0
H1191 H 0.01984 0.0742 0.95463 0.0
H1192 H 0.89841 0.03739 0.01122 0.0
H1193 H 0.99068 0.08655 0.0527 0.0
H1194 H 0.95024 0.97581 0.97822 0.0
H1195 H 0.94528 1.00658 0.95069 0.0
H1196 H 0.90657 0.99751 0.97533 0.0
H1197 H 0.06314 0.03702 0.02727 0.0
H1198 H 0.05377 0.07759 0.03903 0.0
H1199 H 0.05907 0.06821 1.0001 0.0
C1200 C 0.52176 0.97612 0.07354 0.0
C1201 C 0.48227 0.97452 0.07271 0.0
C1202 C 0.54176 0.99936 0.057 0.0
C1203 C 0.52185 0.02174 0.03926 0.0
C1204 C 0.48201 0.0202 0.03825 0.0
C1205 C 0.46275 0.99661 0.0549 0.0
C1206 C 0.58422 0.99999 0.05854 0.0
C1207 C 0.45966 0.04374 0.01983 0.0
C1208 C 0.56903 0.10122 0.01874 0.0
C1209 C 0.57988 0.09605 0.9891 0.0
C1210 C 0.55048 0.07721 0.03535 0.0
C1211 C 0.5426 0.04709 0.02212 0.0
C1212 C 0.554 0.04146 0.99239 0.0
C1213 C 0.57244 0.06596 0.97626 0.0
C1214 C 0.53895 0.08422 0.067 0.0
C1215 C 0.54622 1.00967 0.97746 0.0
H1216 H 0.53713 0.9589 0.08686 0.0
H1217 H 0.43228 0.99585 0.05438 0.0
H1218 H 0.59628 0.99723 0.03592 0.0
H1219 H 0.59403 0.02353 0.06717 0.0
H1220 H 0.59553 0.98067 0.07305 0.0
H1221 H 0.42887 0.03907 0.02108 0.0
H1222 H 0.46528 0.0686 0.02757 0.0
H1223 H 0.46858 0.04252 0.99621 0.0
H1224 H 0.57514 0.12411 0.02908 0.0
H1225 H 0.58022 0.06173 0.95333 0.0
H1226 H 0.55173 0.06642 0.08233 0.0
H1227 H 0.50794 0.08196 0.06928 0.0
H1228 H 0.54756 0.1087 0.07417 0.0
H1229 H 0.55843 0.98978 0.99075 0.0
H1230 H 0.558 1.00869 0.95458 0.0
H1231 H 0.5154 1.0054 0.97628 0.0
C1232 C 0.4602 0.52477 0.93975 0.0
C1233 C 0.4229 0.53124 0.94807 0.0
C1234 C 0.48465 0.50823 0.95892 0.0
C1235 C 0.47152 0.49781 0.98711 0.0
C1236 C 0.43394 0.50429 0.99568 0.0
C1237 C 0.41011 0.52095 0.97609 0.0
C1238 C 0.52452 0.50183 0.94895 0.0
C1239 C 0.41884 0.49351 0.02552 0.0
C1240 C 0.52313 0.42912 0.02507 0.0
C1241 C 0.54554 0.44542 0.0459 0.0
C1242 C 0.49889 0.44584 0.00591 0.0
C1243 C 0.49698 0.47976 0.00748 0.0
C1244 C 0.51949 0.4964 0.02843 0.0
C1245 C 0.54343 0.47904 0.0474 0.0
C1246 C 0.47519 0.42717 0.98402 0.0
C1247 C 0.51843 0.53257 0.0307 0.0
H1248 H 0.47041 0.53263 0.91818 0.0
H1249 H 0.38137 0.52582 0.98276 0.0
H1250 H 0.54472 0.51243 0.96502 0.0
H1251 H 0.52967 0.47557 0.94849 0.0
H1252 H 0.53054 0.51189 0.92652 0.0
H1253 H 0.38903 0.50059 0.02893 0.0
H1254 H 0.42084 0.467 0.02754 0.0
H1255 H 0.4361 0.50402 0.04364 0.0
H1256 H 0.5241 0.40315 0.02404 0.0
H1257 H 0.56094 0.49187 0.06313 0.0
H1258 H 0.48172 0.43513 0.961 0.0
H1259 H 0.44491 0.43197 0.98798 0.0
H1260 H 0.47991 0.40085 0.98561 0.0
H1261 H 0.52669 0.54354 0.00911 0.0
H1262 H 0.53752 0.54189 0.04827 0.0
H1263 H 0.48935 0.54057 0.03565 0.0
C1264 C 0.02647 0.97432 0.42297 0.0
C1265 C 0.06336 0.96631 0.43118 0.0
C1266 C 1.00408 0.99398 0.44105 0.0
C1267 C 0.01896 1.00621 0.46796 0.0
C1268 C 0.05618 0.9982 0.47642 0.0
C1269 C 0.07784 0.97821 0.45801 0.0
C1270 C 0.96443 1.00164 0.43133 0.0
C1271 C 0.07324 1.01104 0.50475 0.0
C1272 C 0.97214 0.08144 0.49801 0.0
C1273 C 0.94835 0.06885 0.52016 0.0
C1274 C 0.99589 0.06144 0.4814 0.0
C1275 C 0.99571 0.02791 0.48684 0.0
C1276 C 0.97223 1.01508 0.50951 0.0
C1277 C 0.94899 0.03572 0.526 0.0
C1278 C 0.02083 0.07618 0.45772 0.0
C1279 C 0.97097 0.97944 0.51585 0.0
H1280 H 0.01482 0.96475 0.40257 0.0
H1281 H 0.10639 0.9723 0.46435 0.0
H1282 H 0.9441 0.994 0.44876 0.0
H1283 H 0.96132 0.02797 0.42837 0.0
H1284 H 0.95677 0.98964 0.41013 0.0
H1285 H 0.10239 1.00229 0.50833 0.0
H1286 H 0.07378 0.03769 0.50409 0.0
H1287 H 0.05571 1.0038 0.52411 0.0
H1288 H 0.9723 0.10706 0.49373 0.0
H1289 H 0.93049 0.02581 0.5429 0.0
H1290 H 1.01268 0.06681 0.43555 0.0
H1291 H 0.05058 0.06934 0.46156 0.0
H1292 H 0.01898 0.10282 0.45719 0.0
H1293 H 0.96069 0.96644 0.49591 0.0
H1294 H 0.95229 0.9734 0.53492 0.0
H1295 H 0.99967 0.97047 0.52072 0.0
C1296 C 0.50425 0.11417 0.48183 0.0
C1297 C 0.53999 0.10747 0.46999 0.0
C1298 C 0.48698 0.0935 0.50261 0.0
C1299 C 0.50576 0.06528 0.51191 0.0
C1300 C 0.54186 0.05837 0.50017 0.0
C1301 C 0.5585 0.0795 0.47939 0.0
C1302 C 0.44841 0.10174 0.51443 0.0
C1303 C 0.56292 0.02861 0.50956 0.0
C1304 C 0.47552 0.02613 0.58503 0.0
C1305 C 0.45246 1.00076 0.57525 0.0
C1306 C 0.49306 0.04721 0.56471 0.0
C1307 C 0.48748 0.04294 0.53378 0.0
C1308 C 0.46412 0.01749 0.52376 0.0
C1309 C 0.44694 0.99674 0.54457 0.0
C1310 C 0.51768 0.07405 0.57635 0.0
C1311 C 0.45736 1.0121 0.491 0.0
H1312 H 0.48931 0.13533 0.47444 0.0
H1313 H 0.58621 0.07422 0.47069 0.0
H1314 H 0.42811 0.08236 0.50877 0.0
H1315 H 0.44924 0.10348 0.53904 0.0
H1316 H 0.43776 0.12479 0.50529 0.0
H1317 H 0.5908 0.02671 0.49849 0.0
H1318 H 0.56724 0.0287 0.53399 0.0
H1319 H 0.54608 1.00687 0.50418 0.0
H1320 H 0.48008 0.02947 0.60865 0.0
H1321 H 0.42927 0.97724 0.53671 0.0
H1322 H 0.5066 0.09759 0.56883 0.0
H1323 H 0.54659 0.07179 0.56724 0.0
H1324 H 0.5193 0.07408 0.60102 0.0
H1325 H 0.44463 0.03385 0.48091 0.0
H1326 H 0.43846 0.99125 0.4868 0.0
H1327 H 0.48453 1.00795 0.47948 0.0
C1328 C 0.54619 0.49105 0.53983 0.0
C1329 C 0.57785 0.47607 0.52757 0.0
C1330 C 0.52088 0.50817 0.52187 0.0
C1331 C 0.52683 0.50968 0.49074 0.0
C1332 C 0.55878 0.49451 0.47823 0.0
C1333 C 0.5842 0.47824 0.49688 0.0
C1334 C 0.4878 0.52468 0.53624 0.0
C1335 C 0.56572 0.49495 0.44511 0.0
C1336 C 0.44108 0.5274 0.44267 0.0
C1337 C 0.44706 0.5597 0.43499 0.0
C1338 C 0.46711 0.51069 0.46038 0.0
C1339 C 0.49942 0.52692 0.47131 0.0
C1340 C 0.50524 0.55971 0.46397 0.0
C1341 C 0.47924 0.57556 0.44558 0.0
C1342 C 0.46025 0.47558 0.46711 0.0
C1343 C 0.53875 0.57814 0.47576 0.0
H1344 H 0.54157 0.4897 0.56363 0.0
H1345 H 0.60853 0.46644 0.48743 0.0
H1346 H 0.488 0.55061 0.53037 0.0
H1347 H 0.46107 0.51434 0.52774 0.0
H1348 H 0.48804 0.5223 0.56086 0.0
H1349 H 0.5916 0.48169 0.43886 0.0
H1350 H 0.54136 0.48399 0.4334 0.0
H1351 H 0.56841 0.52008 0.43706 0.0
H1352 H 0.41647 0.51502 0.43414 0.0
H1353 H 0.4837 0.60059 0.43979 0.0
H1354 H 0.45749 0.47189 0.49146 0.0
H1355 H 0.48466 0.46118 0.45957 0.0
H1356 H 0.43442 0.46623 0.45617 0.0
H1357 H 0.53881 0.5773 0.50043 0.0
H1358 H 0.53877 0.60368 0.4685 0.0
H1359 H 0.56523 0.56684 0.46808 0.0
C1360 C 1.00849 0.43216 0.50501 0.0
C1361 C 0.99932 0.44257 0.4762 0.0
C1362 C 0.03027 0.45138 0.52412 0.0
C1363 C 0.04325 0.48185 0.51427 0.0
C1364 C 0.03456 0.49235 0.48509 0.0
C1365 C 1.01277 0.47261 0.46643 0.0
C1366 C 0.03907 0.43918 0.55499 0.0
C1367 C 0.04771 0.52471 0.47375 0.0
C1368 C 0.06693 0.54422 0.57324 0.0
C1369 C 0.10637 0.54248 0.57451 0.0
C1370 C 0.04613 0.52482 0.55361 0.0
C1371 C 0.06513 0.50304 0.53476 0.0
C1372 C 0.10493 0.5013 0.53578 0.0
C1373 C 0.12505 0.52103 0.55559 0.0
C1374 C 1.00374 0.5275 0.5532 0.0
C1375 C 0.12625 0.47838 0.51608 0.0
H1376 H 0.9987 0.40885 0.51262 0.0
H1377 H 1.00546 0.48112 0.44442 0.0
H1378 H 0.06999 0.43881 0.55848 0.0
H1379 H 0.02702 0.45564 0.57182 0.0
H1380 H 0.02767 0.41464 0.55903 0.0
H1381 H 0.03965 0.52892 0.4502 0.0
H1382 H 0.03543 0.54405 0.48757 0.0
H1383 H 0.07878 0.52672 0.47564 0.0
H1384 H 0.05216 0.56069 0.58771 0.0
H1385 H 0.15548 0.51945 0.55638 0.0
H1386 H 0.99082 0.50402 0.5592 0.0
H1387 H 0.99399 0.53369 0.53047 0.0
H1388 H 0.99326 0.54598 0.56889 0.0
H1389 H 0.11721 0.45332 0.52081 0.0
H1390 H 0.1572 0.48016 0.51928 0.0
H1391 H 0.11977 0.48334 0.49238 0.0
loop_
_geom_bond_atom_site_label_1
_geom_bond_atom_site_label_2
_geom_bond_distance
_geom_bond_site_symmetry_2
_ccdc_geom_bond_type
Cu0 N1 1.999 . S
Cu0 O6 1.974 . S
Cu0 N11 1.985 . S
Cu0 O20 1.959 . S
N1 Cu0 1.999 . S
N1 C3 1.263 . S
N1 C5 1.389 . S
N2 C3 1.358 . S
N2 C4 1.400 . S
C3 N1 1.263 . S
C3 N2 1.358 . S
C3 H9 0.930 . S
C4 N2 1.400 . S
C4 C5 1.351 . S
C4 H21 0.930 . S
C5 N1 1.389 . S
C5 C4 1.351 . S
C5 H10 0.930 . S
O6 Cu0 1.974 . S
O6 C16 1.282 . S
C7 O8 1.261 . S
C7 O20 1.251 . S
O8 C7 1.261 . S
H9 C3 0.930 . S
H10 C5 0.930 . S
N11 Cu0 1.985 . S
N11 C13 1.335 . S
N11 C14 1.390 . S
N12 C13 1.345 . S
N12 C15 1.336 . S
C13 N11 1.335 . S
C13 N12 1.345 . S
C13 H18 0.930 . S
C14 N11 1.390 . S
C14 C15 1.346 . S
C14 H19 0.930 . S
C15 N12 1.336 . S
C15 C14 1.346 . S
C15 H22 0.929 . S
C16 O6 1.282 . S
C16 O17 1.216 . S
O17 C16 1.216 . S
H18 C13 0.930 . S
H19 C14 0.930 . S
O20 Cu0 1.959 . S
O20 C7 1.251 . S
H21 C4 0.930 . S
H22 C15 0.929 . S
Cu23 N24 1.999 . S
Cu23 O29 1.974 . S
Cu23 N34 1.985 . S
Cu23 O43 1.959 . S
N24 Cu23 1.999 . S
N24 C26 1.263 . S
N24 C28 1.389 . S
N25 C26 1.358 . S
N25 C27 1.400 . S
C26 N24 1.263 . S
C26 N25 1.358 . S
C26 H32 0.930 . S
C27 N25 1.400 . S
C27 C28 1.351 . S
C27 H44 0.930 . S
C28 N24 1.389 . S
C28 C27 1.351 . S
C28 H33 0.930 . S
O29 Cu23 1.974 . S
O29 C39 1.282 . S
C30 O31 1.261 . S
C30 O43 1.251 . S
O31 C30 1.261 . S
H32 C26 0.930 . S
H33 C28 0.930 . S
N34 Cu23 1.985 . S
N34 C36 1.335 . S
N34 C37 1.390 . S
N35 C36 1.345 . S
N35 C38 1.336 . S
C36 N34 1.335 . S
C36 N35 1.345 . S
C36 H41 0.930 . S
C37 N34 1.390 . S
C37 C38 1.346 . S
C37 H42 0.930 . S
C38 N35 1.336 . S
C38 C37 1.346 . S
C38 H45 0.929 . S
C39 O29 1.282 . S
C39 O40 1.216 . S
O40 C39 1.216 . S
H41 C36 0.930 . S
H42 C37 0.930 . S
O43 Cu23 1.959 . S
O43 C30 1.251 . S
H44 C27 0.930 . S
H45 C38 0.929 . S
Cu46 N47 1.999 . S
Cu46 O52 1.974 . S
Cu46 N57 1.985 . S
Cu46 O66 1.959 . S
N47 Cu46 1.999 . S
N47 C49 1.263 . S
N47 C51 1.389 . S
N48 C49 1.358 . S
N48 C50 1.400 . S
C49 N47 1.263 . S
C49 N48 1.358 . S
C49 H55 0.930 . S
C50 N48 1.400 . S
C50 C51 1.351 . S
C50 H67 0.930 . S
C51 N47 1.389 . S
C51 C50 1.351 . S
C51 H56 0.930 . S
O52 Cu46 1.974 . S
O52 C62 1.282 . S
C53 O54 1.261 . S
C53 O66 1.251 . S
O54 C53 1.261 . S
H55 C49 0.930 . S
H56 C51 0.930 . S
N57 Cu46 1.985 . S
N57 C59 1.335 . S
N57 C60 1.390 . S
N58 C59 1.345 . S
N58 C61 1.336 . S
C59 N57 1.335 . S
C59 N58 1.345 . S
C59 H64 0.930 . S
C60 N57 1.390 . S
C60 C61 1.346 . S
C60 H65 0.930 . S
C61 N58 1.336 . S
C61 C60 1.346 . S
C61 H68 0.929 . S
C62 O52 1.282 . S
C62 O63 1.216 . S
O63 C62 1.216 . S
H64 C59 0.930 . S
H65 C60 0.930 . S
O66 Cu46 1.959 . S
O66 C53 1.251 . S
H67 C50 0.930 . S
H68 C61 0.929 . S
Cu69 N70 1.999 . S
Cu69 O75 1.974 . S
Cu69 N80 1.985 . S
Cu69 O89 1.959 . S
N70 Cu69 1.999 . S
N70 C72 1.263 . S
N70 C74 1.389 . S
N71 C72 1.358 . S
N71 C73 1.400 . S
C72 N70 1.263 . S
C72 N71 1.358 . S
C72 H78 0.930 . S
C73 N71 1.400 . S
C73 C74 1.351 . S
C73 H90 0.930 . S
C74 N70 1.389 . S
C74 C73 1.351 . S
C74 H79 0.930 . S
O75 Cu69 1.974 . S
O75 C85 1.282 . S
C76 O77 1.261 . S
C76 O89 1.251 . S
O77 C76 1.261 . S
H78 C72 0.930 . S
H79 C74 0.930 . S
N80 Cu69 1.985 . S
N80 C82 1.335 . S
N80 C83 1.390 . S
N81 C82 1.345 . S
N81 C84 1.336 . S
C82 N80 1.335 . S
C82 N81 1.345 . S
C82 H87 0.930 . S
C83 N80 1.390 . S
C83 C84 1.346 . S
C83 H88 0.930 . S
C84 N81 1.336 . S
C84 C83 1.346 . S
C84 H91 0.929 . S
C85 O75 1.282 . S
C85 O86 1.216 . S
O86 C85 1.216 . S
H87 C82 0.930 . S
H88 C83 0.930 . S
O89 Cu69 1.959 . S
O89 C76 1.251 . S
H90 C73 0.930 . S
H91 C84 0.929 . S
Cu92 N93 1.999 . S
Cu92 O98 1.974 . S
Cu92 N103 1.985 . S
Cu92 O112 1.959 . S
N93 Cu92 1.999 . S
N93 C95 1.263 . S
N93 C97 1.389 . S
N94 C95 1.358 . S
N94 C96 1.400 . S
C95 N93 1.263 . S
C95 N94 1.358 . S
C95 H101 0.930 . S
C96 N94 1.400 . S
C96 C97 1.351 . S
C96 H113 0.930 . S
C97 N93 1.389 . S
C97 C96 1.351 . S
C97 H102 0.930 . S
O98 Cu92 1.974 . S
O98 C108 1.282 . S
C99 O100 1.261 . S
C99 O112 1.251 . S
O100 C99 1.261 . S
H101 C95 0.930 . S
H102 C97 0.930 . S
N103 Cu92 1.985 . S
N103 C105 1.335 . S
N103 C106 1.390 . S
N104 C105 1.345 . S
N104 C107 1.336 . S
C105 N103 1.335 . S
C105 N104 1.345 . S
C105 H110 0.930 . S
C106 N103 1.390 . S
C106 C107 1.346 . S
C106 H111 0.930 . S
C107 N104 1.336 . S
C107 C106 1.346 . S
C107 H114 0.929 . S
C108 O98 1.282 . S
C108 O109 1.216 . S
O109 C108 1.216 . S
H110 C105 0.930 . S
H111 C106 0.930 . S
O112 Cu92 1.959 . S
O112 C99 1.251 . S
H113 C96 0.930 . S
H114 C107 0.929 . S
Cu115 N116 1.999 . S
Cu115 O121 1.974 . S
Cu115 N126 1.985 . S
Cu115 O135 1.959 . S
N116 Cu115 1.999 . S
N116 C118 1.263 . S
N116 C120 1.389 . S
N117 C118 1.358 . S
N117 C119 1.400 . S
C118 N116 1.263 . S
C118 N117 1.358 . S
C118 H124 0.930 . S
C119 N117 1.400 . S
C119 C120 1.351 . S
C119 H136 0.930 . S
C120 N116 1.389 . S
C120 C119 1.351 . S
C120 H125 0.930 . S
O121 Cu115 1.974 . S
O121 C131 1.282 . S
C122 O123 1.261 . S
C122 O135 1.251 . S
O123 C122 1.261 . S
H124 C118 0.930 . S
H125 C120 0.930 . S
N126 Cu115 1.985 . S
N126 C128 1.335 . S
N126 C129 1.390 . S
N127 C128 1.345 . S
N127 C130 1.336 . S
C128 N126 1.335 . S
C128 N127 1.345 . S
C128 H133 0.930 . S
C129 N126 1.390 . S
C129 C130 1.346 . S
C129 H134 0.930 . S
C130 N127 1.336 . S
C130 C129 1.346 . S
C130 H137 0.929 . S
C131 O121 1.282 . S
C131 O132 1.216 . S
O132 C131 1.216 . S
H133 C128 0.930 . S
H134 C129 0.930 . S
O135 Cu115 1.959 . S
O135 C122 1.251 . S
H136 C119 0.930 . S
H137 C130 0.929 . S
Cu138 N139 1.999 . S
Cu138 O144 1.974 . S
Cu138 N149 1.985 . S
Cu138 O158 1.959 . S
N139 Cu138 1.999 . S
N139 C141 1.263 . S
N139 C143 1.389 . S
N140 C141 1.358 . S
N140 C142 1.400 . S
C141 N139 1.263 . S
C141 N140 1.358 . S
C141 H147 0.930 . S
C142 N140 1.400 . S
C142 C143 1.351 . S
C142 H159 0.930 . S
C143 N139 1.389 . S
C143 C142 1.351 . S
C143 H148 0.930 . S
O144 Cu138 1.974 . S
O144 C154 1.282 . S
C145 O146 1.261 . S
C145 O158 1.251 . S
O146 C145 1.261 . S
H147 C141 0.930 . S
H148 C143 0.930 . S
N149 Cu138 1.985 . S
N149 C151 1.335 . S
N149 C152 1.390 . S
N150 C151 1.345 . S
N150 C153 1.336 . S
C151 N149 1.335 . S
C151 N150 1.345 . S
C151 H156 0.930 . S
C152 N149 1.390 . S
C152 C153 1.346 . S
C152 H157 0.930 . S
C153 N150 1.336 . S
C153 C152 1.346 . S
C153 H160 0.929 . S
C154 O144 1.282 . S
C154 O155 1.216 . S
O155 C154 1.216 . S
H156 C151 0.930 . S
H157 C152 0.930 . S
O158 Cu138 1.959 . S
O158 C145 1.251 . S
H159 C142 0.930 . S
H160 C153 0.929 . S
Cu161 N162 1.999 . S
Cu161 O167 1.974 . S
Cu161 N172 1.985 . S
Cu161 O181 1.959 . S
N162 Cu161 1.999 . S
N162 C164 1.263 . S
N162 C166 1.389 . S
N163 C164 1.358 . S
N163 C165 1.400 . S
C164 N162 1.263 . S
C164 N163 1.358 . S
C164 H170 0.930 . S
C165 N163 1.400 . S
C165 C166 1.351 . S
C165 H182 0.930 . S
C166 N162 1.389 . S
C166 C165 1.351 . S
C166 H171 0.930 . S
O167 Cu161 1.974 . S
O167 C177 1.282 . S
C168 O169 1.261 . S
C168 O181 1.251 . S
O169 C168 1.261 . S
H170 C164 0.930 . S
H171 C166 0.930 . S
N172 Cu161 1.985 . S
N172 C174 1.335 . S
N172 C175 1.390 . S
N173 C174 1.345 . S
N173 C176 1.336 . S
C174 N172 1.335 . S
C174 N173 1.345 . S
C174 H179 0.930 . S
C175 N172 1.390 . S
C175 C176 1.346 . S
C175 H180 0.930 . S
C176 N173 1.336 . S
C176 C175 1.346 . S
C176 H183 0.929 . S
C177 O167 1.282 . S
C177 O178 1.216 . S
O178 C177 1.216 . S
H179 C174 0.930 . S
H180 C175 0.930 . S
O181 Cu161 1.959 . S
O181 C168 1.251 . S
H182 C165 0.930 . S
H183 C176 0.929 . S
Cu184 N185 1.999 . S
Cu184 O190 1.974 . S
Cu184 N195 1.985 . S
Cu184 O204 1.959 . S
N185 Cu184 1.999 . S
N185 C187 1.263 . S
N185 C189 1.389 . S
N186 C187 1.358 . S
N186 C188 1.400 . S
C187 N185 1.263 . S
C187 N186 1.358 . S
C187 H193 0.930 . S
C188 N186 1.400 . S
C188 C189 1.351 . S
C188 H205 0.930 . S
C189 N185 1.389 . S
C189 C188 1.351 . S
C189 H194 0.930 . S
O190 Cu184 1.974 . S
O190 C200 1.282 . S
C191 O192 1.261 . S
C191 O204 1.251 . S
O192 C191 1.261 . S
H193 C187 0.930 . S
H194 C189 0.930 . S
N195 Cu184 1.985 . S
N195 C197 1.335 . S
N195 C198 1.390 . S
N196 C197 1.345 . S
N196 C199 1.336 . S
C197 N195 1.335 . S
C197 N196 1.345 . S
C197 H202 0.930 . S
C198 N195 1.390 . S
C198 C199 1.346 . S
C198 H203 0.930 . S
C199 N196 1.336 . S
C199 C198 1.346 . S
C199 H206 0.929 . S
C200 O190 1.282 . S
C200 O201 1.216 . S
O201 C200 1.216 . S
H202 C197 0.930 . S
H203 C198 0.930 . S
O204 Cu184 1.959 . S
O204 C191 1.251 . S
H205 C188 0.930 . S
H206 C199 0.929 . S
Cu207 N208 1.999 . S
Cu207 O213 1.974 . S
Cu207 N218 1.985 . S
Cu207 O227 1.959 . S
N208 Cu207 1.999 . S
N208 C210 1.263 . S
N208 C212 1.389 . S
N209 C210 1.358 . S
N209 C211 1.400 . S
C210 N208 1.263 . S
C210 N209 1.358 . S
C210 H216 0.930 . S
C211 N209 1.400 . S
C211 C212 1.351 . S
C211 H228 0.930 . S
C212 N208 1.389 . S
C212 C211 1.351 . S
C212 H217 0.930 . S
O213 Cu207 1.974 . S
O213 C223 1.282 . S
C214 O215 1.261 . S
C214 O227 1.251 . S
O215 C214 1.261 . S
H216 C210 0.930 . S
H217 C212 0.930 . S
N218 Cu207 1.985 . S
N218 C220 1.335 . S
N218 C221 1.390 . S
N219 C220 1.345 . S
N219 C222 1.336 . S
C220 N218 1.335 . S
C220 N219 1.345 . S
C220 H225 0.930 . S
C221 N218 1.390 . S
C221 C222 1.346 . S
C221 H226 0.930 . S
C222 N219 1.336 . S
C222 C221 1.346 . S
C222 H229 0.929 . S
C223 O213 1.282 . S
C223 O224 1.216 . S
O224 C223 1.216 . S
H225 C220 0.930 . S
H226 C221 0.930 . S
O227 Cu207 1.959 . S
O227 C214 1.251 . S
H228 C211 0.930 . S
H229 C222 0.929 . S
Cu230 N231 1.999 . S
Cu230 O236 1.974 . S
Cu230 N241 1.985 . S
Cu230 O250 1.959 . S
N231 Cu230 1.999 . S
N231 C233 1.263 . S
N231 C235 1.389 . S
N232 C233 1.358 . S
N232 C234 1.400 . S
C233 N231 1.263 . S
C233 N232 1.358 . S
C233 H239 0.930 . S
C234 N232 1.400 . S
C234 C235 1.351 . S
C234 H251 0.930 . S
C235 N231 1.389 . S
C235 C234 1.351 . S
C235 H240 0.930 . S
O236 Cu230 1.974 . S
O236 C246 1.282 . S
C237 O238 1.261 . S
C237 O250 1.251 . S
O238 C237 1.261 . S
H239 C233 0.930 . S
H240 C235 0.930 . S
N241 Cu230 1.985 . S
N241 C243 1.335 . S
N241 C244 1.390 . S
N242 C243 1.345 . S
N242 C245 1.336 . S
C243 N241 1.335 . S
C243 N242 1.345 . S
C243 H248 0.930 . S
C244 N241 1.390 . S
C244 C245 1.346 . S
C244 H249 0.930 . S
C245 N242 1.336 . S
C245 C244 1.346 . S
C245 H252 0.929 . S
C246 O236 1.282 . S
C246 O247 1.216 . S
O247 C246 1.216 . S
H248 C243 0.930 . S
H249 C244 0.930 . S
O250 Cu230 1.959 . S
O250 C237 1.251 . S
H251 C234 0.930 . S
H252 C245 0.929 . S
Cu253 N254 1.999 . S
Cu253 O259 1.974 . S
Cu253 N264 1.985 . S
Cu253 O273 1.959 . S
N254 Cu253 1.999 . S
N254 C256 1.263 . S
N254 C258 1.389 . S
N255 C256 1.358 . S
N255 C257 1.400 . S
C256 N254 1.263 . S
C256 N255 1.358 . S
C256 H262 0.930 . S
C257 N255 1.400 . S
C257 C258 1.351 . S
C257 H274 0.930 . S
C258 N254 1.389 . S
C258 C257 1.351 . S
C258 H263 0.930 . S
O259 Cu253 1.974 . S
O259 C269 1.282 . S
C260 O261 1.261 . S
C260 O273 1.251 . S
O261 C260 1.261 . S
H262 C256 0.930 . S
H263 C258 0.930 . S
N264 Cu253 1.985 . S
N264 C266 1.335 . S
N264 C267 1.390 . S
N265 C266 1.345 . S
N265 C268 1.336 . S
C266 N264 1.335 . S
C266 N265 1.345 . S
C266 H271 0.930 . S
C267 N264 1.390 . S
C267 C268 1.346 . S
C267 H272 0.930 . S
C268 N265 1.336 . S
C268 C267 1.346 . S
C268 H275 0.929 . S
C269 O259 1.282 . S
C269 O270 1.216 . S
O270 C269 1.216 . S
H271 C266 0.930 . S
H272 C267 0.930 . S
O273 Cu253 1.959 . S
O273 C260 1.251 . S
H274 C257 0.930 . S
H275 C268 0.929 . S
Cu276 N277 1.999 . S
Cu276 O282 1.974 . S
Cu276 N287 1.985 . S
Cu276 O296 1.959 . S
N277 Cu276 1.999 . S
N277 C279 1.263 . S
N277 C281 1.389 . S
N278 C279 1.358 . S
N278 C280 1.400 . S
C279 N277 1.263 . S
C279 N278 1.358 . S
C279 H285 0.930 . S
C280 N278 1.400 . S
C280 C281 1.351 . S
C280 H297 0.930 . S
C281 N277 1.389 . S
C281 C280 1.351 . S
C281 H286 0.930 . S
O282 Cu276 1.974 . S
O282 C292 1.282 . S
C283 O284 1.261 . S
C283 O296 1.251 . S
O284 C283 1.261 . S
H285 C279 0.930 . S
H286 C281 0.930 . S
N287 Cu276 1.985 . S
N287 C289 1.335 . S
N287 C290 1.390 . S
N288 C289 1.345 . S
N288 C291 1.336 . S
C289 N287 1.335 . S
C289 N288 1.345 . S
C289 H294 0.930 . S
C290 N287 1.390 . S
C290 C291 1.346 . S
C290 H295 0.930 . S
C291 N288 1.336 . S
C291 C290 1.346 . S
C291 H298 0.929 . S
C292 O282 1.282 . S
C292 O293 1.216 . S
O293 C292 1.216 . S
H294 C289 0.930 . S
H295 C290 0.930 . S
O296 Cu276 1.959 . S
O296 C283 1.251 . S
H297 C280 0.930 . S
H298 C291 0.929 . S
Cu299 N300 1.999 . S
Cu299 O305 1.974 . S
Cu299 N310 1.985 . S
Cu299 O319 1.959 . S
N300 Cu299 1.999 . S
N300 C302 1.263 . S
N300 C304 1.389 . S
N301 C302 1.358 . S
N301 C303 1.400 . S
C302 N300 1.263 . S
C302 N301 1.358 . S
C302 H308 0.930 . S
C303 N301 1.400 . S
C303 C304 1.351 . S
C303 H320 0.930 . S
C304 N300 1.389 . S
C304 C303 1.351 . S
C304 H309 0.930 . S
O305 Cu299 1.974 . S
O305 C315 1.282 . S
C306 O307 1.261 . S
C306 O319 1.251 . S
O307 C306 1.261 . S
H308 C302 0.930 . S
H309 C304 0.930 . S
N310 Cu299 1.985 . S
N310 C312 1.335 . S
N310 C313 1.390 . S
N311 C312 1.345 . S
N311 C314 1.336 . S
C312 N310 1.335 . S
C312 N311 1.345 . S
C312 H317 0.930 . S
C313 N310 1.390 . S
C313 C314 1.346 . S
C313 H318 0.930 . S
C314 N311 1.336 . S
C314 C313 1.346 . S
C314 H321 0.929 . S
C315 O305 1.282 . S
C315 O316 1.216 . S
O316 C315 1.216 . S
H317 C312 0.930 . S
H318 C313 0.930 . S
O319 Cu299 1.959 . S
O319 C306 1.251 . S
H320 C303 0.930 . S
H321 C314 0.929 . S
Cu322 N323 1.999 . S
Cu322 O328 1.974 . S
Cu322 N333 1.985 . S
Cu322 O342 1.959 . S
N323 Cu322 1.999 . S
N323 C325 1.263 . S
N323 C327 1.389 . S
N324 C325 1.358 . S
N324 C326 1.400 . S
C325 N323 1.263 . S
C325 N324 1.358 . S
C325 H331 0.930 . S
C326 N324 1.400 . S
C326 C327 1.351 . S
C326 H343 0.930 . S
C327 N323 1.389 . S
C327 C326 1.351 . S
C327 H332 0.930 . S
O328 Cu322 1.974 . S
O328 C338 1.282 . S
C329 O330 1.261 . S
C329 O342 1.251 . S
O330 C329 1.261 . S
H331 C325 0.930 . S
H332 C327 0.930 . S
N333 Cu322 1.985 . S
N333 C335 1.335 . S
N333 C336 1.390 . S
N334 C335 1.345 . S
N334 C337 1.336 . S
C335 N333 1.335 . S
C335 N334 1.345 . S
C335 H340 0.930 . S
C336 N333 1.390 . S
C336 C337 1.346 . S
C336 H341 0.930 . S
C337 N334 1.336 . S
C337 C336 1.346 . S
C337 H344 0.929 . S
C338 O328 1.282 . S
C338 O339 1.216 . S
O339 C338 1.216 . S
H340 C335 0.930 . S
H341 C336 0.930 . S
O342 Cu322 1.959 . S
O342 C329 1.251 . S
H343 C326 0.930 . S
H344 C337 0.929 . S
Cu345 N346 1.999 . S
Cu345 O351 1.974 . S
Cu345 N356 1.985 . S
Cu345 O365 1.959 . S
N346 Cu345 1.999 . S
N346 C348 1.263 . S
N346 C350 1.389 . S
N347 C348 1.358 . S
N347 C349 1.400 . S
C348 N346 1.263 . S
C348 N347 1.358 . S
C348 H354 0.930 . S
C349 N347 1.400 . S
C349 C350 1.351 . S
C349 H366 0.930 . S
C350 N346 1.389 . S
C350 C349 1.351 . S
C350 H355 0.930 . S
O351 Cu345 1.974 . S
O351 C361 1.282 . S
C352 O353 1.261 . S
C352 O365 1.251 . S
O353 C352 1.261 . S
H354 C348 0.930 . S
H355 C350 0.930 . S
N356 Cu345 1.985 . S
N356 C358 1.335 . S
N356 C359 1.390 . S
N357 C358 1.345 . S
N357 C360 1.336 . S
C358 N356 1.335 . S
C358 N357 1.345 . S
C358 H363 0.930 . S
C359 N356 1.390 . S
C359 C360 1.346 . S
C359 H364 0.930 . S
C360 N357 1.336 . S
C360 C359 1.346 . S
C360 H367 0.929 . S
C361 O351 1.282 . S
C361 O362 1.216 . S
O362 C361 1.216 . S
H363 C358 0.930 . S
H364 C359 0.930 . S
O365 Cu345 1.959 . S
O365 C352 1.251 . S
H366 C349 0.930 . S
H367 C360 0.929 . S
C368 C369 1.391 . S
C368 C370 1.394 . S
C368 H384 0.931 . S
C369 C368 1.391 . S
C369 C373 1.376 . S
C370 C368 1.394 . S
C370 C371 1.369 . S
C370 C374 1.531 . S
C371 C370 1.369 . S
C371 C372 1.410 . S
C371 C379 1.503 . S
C372 C371 1.410 . S
C372 C373 1.392 . S
C372 C375 1.511 . S
C373 C369 1.376 . S
C373 C372 1.392 . S
C373 H385 0.929 . S
C374 C370 1.531 . S
C374 H386 0.960 . S
C374 H387 0.962 . S
C374 H388 0.960 . S
C375 C372 1.511 . S
C375 H389 0.961 . S
C375 H390 0.961 . S
C375 H391 0.961 . S
C376 C377 1.370 . S
C376 C378 1.363 . S
C376 H392 0.931 . S
C377 C376 1.370 . S
C377 C381 1.408 . S
C378 C376 1.363 . S
C378 C379 1.370 . S
C378 C382 1.524 . S
C379 C371 1.503 . S
C379 C378 1.370 . S
C379 C380 1.403 . S
C380 C379 1.403 . S
C380 C381 1.404 . S
C380 C383 1.539 . S
C381 C377 1.408 . S
C381 C380 1.404 . S
C381 H393 0.930 . S
C382 C378 1.524 . S
C382 H394 0.956 . S
C382 H395 0.961 . S
C382 H396 0.961 . S
C383 C380 1.539 . S
C383 H397 0.958 . S
C383 H398 0.961 . S
C383 H399 0.960 . S
H384 C368 0.931 . S
H385 C373 0.929 . S
H386 C374 0.960 . S
H387 C374 0.962 . S
H388 C374 0.960 . S
H389 C375 0.961 . S
H390 C375 0.961 . S
H391 C375 0.961 . S
H392 C376 0.931 . S
H393 C381 0.930 . S
H394 C382 0.956 . S
H395 C382 0.961 . S
H396 C382 0.961 . S
H397 C383 0.958 . S
H398 C383 0.961 . S
H399 C383 0.960 . S
C400 C401 1.391 . S
C400 C402 1.394 . S
C400 H416 0.931 . S
C401 C400 1.391 . S
C401 C405 1.376 . S
C402 C400 1.394 . S
C402 C403 1.369 . S
C402 C406 1.531 . S
C403 C402 1.369 . S
C403 C404 1.410 . S
C403 C411 1.503 . S
C404 C403 1.410 . S
C404 C405 1.392 . S
C404 C407 1.511 . S
C405 C401 1.376 . S
C405 C404 1.392 . S
C405 H417 0.929 . S
C406 C402 1.531 . S
C406 H418 0.960 . S
C406 H419 0.962 . S
C406 H420 0.960 . S
C407 C404 1.511 . S
C407 H421 0.961 . S
C407 H422 0.961 . S
C407 H423 0.961 . S
C408 C409 1.370 . S
C408 C410 1.363 . S
C408 H424 0.931 . S
C409 C408 1.370 . S
C409 C413 1.408 . S
C410 C408 1.363 . S
C410 C411 1.370 . S
C410 C414 1.524 . S
C411 C403 1.503 . S
C411 C410 1.370 . S
C411 C412 1.403 . S
C412 C411 1.403 . S
C412 C413 1.404 . S
C412 C415 1.539 . S
C413 C409 1.408 . S
C413 C412 1.404 . S
C413 H425 0.930 . S
C414 C410 1.524 . S
C414 H426 0.956 . S
C414 H427 0.961 . S
C414 H428 0.961 . S
C415 C412 1.539 . S
C415 H429 0.958 . S
C415 H430 0.961 . S
C415 H431 0.960 . S
H416 C400 0.931 . S
H417 C405 0.929 . S
H418 C406 0.960 . S
H419 C406 0.962 . S
H420 C406 0.960 . S
H421 C407 0.961 . S
H422 C407 0.961 . S
H423 C407 0.961 . S
H424 C408 0.931 . S
H425 C413 0.930 . S
H426 C414 0.956 . S
H427 C414 0.961 . S
H428 C414 0.961 . S
H429 C415 0.958 . S
H430 C415 0.961 . S
H431 C415 0.960 . S
C432 C433 1.391 . S
C432 C434 1.394 . S
C432 H448 0.931 . S
C433 C432 1.391 . S
C433 C437 1.376 . S
C434 C432 1.394 . S
C434 C435 1.369 . S
C434 C438 1.531 . S
C435 C434 1.369 . S
C435 C436 1.410 . S
C435 C443 1.503 . S
C436 C435 1.410 . S
C436 C437 1.392 . S
C436 C439 1.511 . S
C437 C433 1.376 . S
C437 C436 1.392 . S
C437 H449 0.929 . S
C438 C434 1.531 . S
C438 H450 0.960 . S
C438 H451 0.962 . S
C438 H452 0.960 . S
C439 C436 1.511 . S
C439 H453 0.961 . S
C439 H454 0.961 . S
C439 H455 0.961 . S
C440 C441 1.370 . S
C440 C442 1.363 . S
C440 H456 0.931 . S
C441 C440 1.370 . S
C441 C445 1.408 . S
C442 C440 1.363 . S
C442 C443 1.370 . S
C442 C446 1.524 . S
C443 C435 1.503 . S
C443 C442 1.370 . S
C443 C444 1.403 . S
C444 C443 1.403 . S
C444 C445 1.404 . S
C444 C447 1.539 . S
C445 C441 1.408 . S
C445 C444 1.404 . S
C445 H457 0.930 . S
C446 C442 1.524 . S
C446 H458 0.956 . S
C446 H459 0.961 . S
C446 H460 0.961 . S
C447 C444 1.539 . S
C447 H461 0.958 . S
C447 H462 0.961 . S
C447 H463 0.960 . S
H448 C432 0.931 . S
H449 C437 0.929 . S
H450 C438 0.960 . S
H451 C438 0.962 . S
H452 C438 0.960 . S
H453 C439 0.961 . S
H454 C439 0.961 . S
H455 C439 0.961 . S
H456 C440 0.931 . S
H457 C445 0.930 . S
H458 C446 0.956 . S
H459 C446 0.961 . S
H460 C446 0.961 . S
H461 C447 0.958 . S
H462 C447 0.961 . S
H463 C447 0.960 . S
C464 C465 1.391 . S
C464 C466 1.394 . S
C464 H480 0.931 . S
C465 C464 1.391 . S
C465 C469 1.376 . S
C466 C464 1.394 . S
C466 C467 1.369 . S
C466 C470 1.531 . S
C467 C466 1.369 . S
C467 C468 1.410 . S
C467 C475 1.503 . S
C468 C467 1.410 . S
C468 C469 1.392 . S
C468 C471 1.511 . S
C469 C465 1.376 . S
C469 C468 1.392 . S
C469 H481 0.929 . S
C470 C466 1.531 . S
C470 H482 0.960 . S
C470 H483 0.962 . S
C470 H484 0.960 . S
C471 C468 1.511 . S
C471 H485 0.961 . S
C471 H486 0.961 . S
C471 H487 0.961 . S
C472 C473 1.370 . S
C472 C474 1.363 . S
C472 H488 0.931 . S
C473 C472 1.370 . S
C473 C477 1.408 . S
C474 C472 1.363 . S
C474 C475 1.370 . S
C474 C478 1.524 . S
C475 C467 1.503 . S
C475 C474 1.370 . S
C475 C476 1.403 . S
C476 C475 1.403 . S
C476 C477 1.404 . S
C476 C479 1.539 . S
C477 C473 1.408 . S
C477 C476 1.404 . S
C477 H489 0.930 . S
C478 C474 1.524 . S
C478 H490 0.956 . S
C478 H491 0.961 . S
C478 H492 0.961 . S
C479 C476 1.539 . S
C479 H493 0.958 . S
C479 H494 0.961 . S
C479 H495 0.960 . S
H480 C464 0.931 . S
H481 C469 0.929 . S
H482 C470 0.960 . S
H483 C470 0.962 . S
H484 C470 0.960 . S
H485 C471 0.961 . S
H486 C471 0.961 . S
H487 C471 0.961 . S
H488 C472 0.931 . S
H489 C477 0.930 . S
H490 C478 0.956 . S
H491 C478 0.961 . S
H492 C478 0.961 . S
H493 C479 0.958 . S
H494 C479 0.961 . S
H495 C479 0.960 . S
C496 C497 1.391 . S
C496 C498 1.394 . S
C496 H512 0.931 . S
C497 C496 1.391 . S
C497 C501 1.376 . S
C498 C496 1.394 . S
C498 C499 1.369 . S
C498 C502 1.531 . S
C499 C498 1.369 . S
C499 C500 1.410 . S
C499 C507 1.503 . S
C500 C499 1.410 . S
C500 C501 1.392 . S
C500 C503 1.511 . S
C501 C497 1.376 . S
C501 C500 1.392 . S
C501 H513 0.929 . S
C502 C498 1.531 . S
C502 H514 0.960 . S
C502 H515 0.962 . S
C502 H516 0.960 . S
C503 C500 1.511 . S
C503 H517 0.961 . S
C503 H518 0.961 . S
C503 H519 0.961 . S
C504 C505 1.370 . S
C504 C506 1.363 . S
C504 H520 0.931 . S
C505 C504 1.370 . S
C505 C509 1.408 . S
C506 C504 1.363 . S
C506 C507 1.370 . S
C506 C510 1.524 . S
C507 C499 1.503 . S
C507 C506 1.370 . S
C507 C508 1.403 . S
C508 C507 1.403 . S
C508 C509 1.404 . S
C508 C511 1.539 . S
C509 C505 1.408 . S
C509 C508 1.404 . S
C509 H521 0.930 . S
C510 C506 1.524 . S
C510 H522 0.956 . S
C510 H523 0.961 . S
C510 H524 0.961 . S
C511 C508 1.539 . S
C511 H525 0.958 . S
C511 H526 0.961 . S
C511 H527 0.960 . S
H512 C496 0.931 . S
H513 C501 0.929 . S
H514 C502 0.960 . S
H515 C502 0.962 . S
H516 C502 0.960 . S
H517 C503 0.961 . S
H518 C503 0.961 . S
H519 C503 0.961 . S
H520 C504 0.931 . S
H521 C509 0.930 . S
H522 C510 0.956 . S
H523 C510 0.961 . S
H524 C510 0.961 . S
H525 C511 0.958 . S
H526 C511 0.961 . S
H527 C511 0.960 . S
C528 C529 1.391 . S
C528 C530 1.394 . S
C528 H544 0.931 . S
C529 C528 1.391 . S
C529 C533 1.376 . S
C530 C528 1.394 . S
C530 C531 1.369 . S
C530 C534 1.531 . S
C531 C530 1.369 . S
C531 C532 1.410 . S
C531 C539 1.503 . S
C532 C531 1.410 . S
C532 C533 1.392 . S
C532 C535 1.511 . S
C533 C529 1.376 . S
C533 C532 1.392 . S
C533 H545 0.929 . S
C534 C530 1.531 . S
C534 H546 0.960 . S
C534 H547 0.962 . S
C534 H548 0.960 . S
C535 C532 1.511 . S
C535 H549 0.961 . S
C535 H550 0.961 . S
C535 H551 0.961 . S
C536 C537 1.370 . S
C536 C538 1.363 . S
C536 H552 0.931 . S
C537 C536 1.370 . S
C537 C541 1.408 . S
C538 C536 1.363 . S
C538 C539 1.370 . S
C538 C542 1.524 . S
C539 C531 1.503 . S
C539 C538 1.370 . S
C539 C540 1.403 . S
C540 C539 1.403 . S
C540 C541 1.404 . S
C540 C543 1.539 . S
C541 C537 1.408 . S
C541 C540 1.404 . S
C541 H553 0.930 . S
C542 C538 1.524 . S
C542 H554 0.956 . S
C542 H555 0.961 . S
C542 H556 0.961 . S
C543 C540 1.539 . S
C543 H557 0.958 . S
C543 H558 0.961 . S
C543 H559 0.960 . S
H544 C528 0.931 . S
H545 C533 0.929 . S
H546 C534 0.960 . S
H547 C534 0.962 . S
H548 C534 0.960 . S
H549 C535 0.961 . S
H550 C535 0.961 . S
H551 C535 0.961 . S
H552 C536 0.931 . S
H553 C541 0.930 . S
H554 C542 0.956 . S
H555 C542 0.961 . S
H556 C542 0.961 . S
H557 C543 0.958 . S
H558 C543 0.961 . S
H559 C543 0.960 . S
C560 C561 1.391 . S
C560 C562 1.394 . S
C560 H576 0.931 . S
C561 C560 1.391 . S
C561 C565 1.376 . S
C562 C560 1.394 . S
C562 C563 1.369 . S
C562 C566 1.531 . S
C563 C562 1.369 . S
C563 C564 1.410 . S
C563 C571 1.503 . S
C564 C563 1.410 . S
C564 C565 1.392 . S
C564 C567 1.511 . S
C565 C561 1.376 . S
C565 C564 1.392 . S
C565 H577 0.929 . S
C566 C562 1.531 . S
C566 H578 0.960 . S
C566 H579 0.962 . S
C566 H580 0.960 . S
C567 C564 1.511 . S
C567 H581 0.961 . S
C567 H582 0.961 . S
C567 H583 0.961 . S
C568 C569 1.370 . S
C568 C570 1.363 . S
C568 H584 0.931 . S
C569 C568 1.370 . S
C569 C573 1.408 . S
C570 C568 1.363 . S
C570 C571 1.370 . S
C570 C574 1.524 . S
C571 C563 1.503 . S
C571 C570 1.370 . S
C571 C572 1.403 . S
C572 C571 1.403 . S
C572 C573 1.404 . S
C572 C575 1.539 . S
C573 C569 1.408 . S
C573 C572 1.404 . S
C573 H585 0.930 . S
C574 C570 1.524 . S
C574 H586 0.956 . S
C574 H587 0.961 . S
C574 H588 0.961 . S
C575 C572 1.539 . S
C575 H589 0.958 . S
C575 H590 0.961 . S
C575 H591 0.960 . S
H576 C560 0.931 . S
H577 C565 0.929 . S
H578 C566 0.960 . S
H579 C566 0.962 . S
H580 C566 0.960 . S
H581 C567 0.961 . S
H582 C567 0.961 . S
H583 C567 0.961 . S
H584 C568 0.931 . S
H585 C573 0.930 . S
H586 C574 0.956 . S
H587 C574 0.961 . S
H588 C574 0.961 . S
H589 C575 0.958 . S
H590 C575 0.961 . S
H591 C575 0.960 . S
C592 C593 1.391 . S
C592 C594 1.394 . S
C592 H608 0.931 . S
C593 C592 1.391 . S
C593 C597 1.376 . S
C594 C592 1.394 . S
C594 C595 1.369 . S
C594 C598 1.531 . S
C595 C594 1.369 . S
C595 C596 1.410 . S
C595 C603 1.503 . S
C596 C595 1.410 . S
C596 C597 1.392 . S
C596 C599 1.511 . S
C597 C593 1.376 . S
C597 C596 1.392 . S
C597 H609 0.929 . S
C598 C594 1.531 . S
C598 H610 0.960 . S
C598 H611 0.962 . S
C598 H612 0.960 . S
C599 C596 1.511 . S
C599 H613 0.961 . S
C599 H614 0.961 . S
C599 H615 0.961 . S
C600 C601 1.370 . S
C600 C602 1.363 . S
C600 H616 0.931 . S
C601 C600 1.370 . S
C601 C605 1.408 . S
C602 C600 1.363 . S
C602 C603 1.370 . S
C602 C606 1.524 . S
C603 C595 1.503 . S
C603 C602 1.370 . S
C603 C604 1.403 . S
C604 C603 1.403 . S
C604 C605 1.404 . S
C604 C607 1.539 . S
C605 C601 1.408 . S
C605 C604 1.404 . S
C605 H617 0.930 . S
C606 C602 1.524 . S
C606 H618 0.956 . S
C606 H619 0.961 . S
C606 H620 0.961 . S
C607 C604 1.539 . S
C607 H621 0.958 . S
C607 H622 0.961 . S
C607 H623 0.960 . S
H608 C592 0.931 . S
H609 C597 0.929 . S
H610 C598 0.960 . S
H611 C598 0.962 . S
H612 C598 0.960 . S
H613 C599 0.961 . S
H614 C599 0.961 . S
H615 C599 0.961 . S
H616 C600 0.931 . S
H617 C605 0.930 . S
H618 C606 0.956 . S
H619 C606 0.961 . S
H620 C606 0.961 . S
H621 C607 0.958 . S
H622 C607 0.961 . S
H623 C607 0.960 . S
C624 C625 1.401 . S
C624 C626 1.394 1_655 S
C624 H640 0.931 . S
C625 C624 1.401 . S
C625 C629 1.353 1_655 S
C626 C624 1.394 1_455 S
C626 C627 1.369 . S
C626 C630 1.531 1_455 S
C627 C626 1.369 . S
C627 C628 1.410 . S
C627 C635 1.503 . S
C628 C627 1.410 . S
C628 C629 1.392 . S
C628 C631 1.511 . S
C629 C625 1.353 1_455 S
C629 C628 1.392 . S
C629 H641 0.929 . S
C630 C626 1.531 1_655 S
C630 H642 0.960 1_655 S
C630 H643 0.962 . S
C630 H644 0.960 . S
C631 C628 1.511 . S
C631 H645 0.961 . S
C631 H646 0.961 . S
C631 H647 0.961 . S
C632 C633 1.370 . S
C632 C634 1.363 . S
C632 H648 0.931 . S
C633 C632 1.370 . S
C633 C637 1.408 . S
C634 C632 1.363 . S
C634 C635 1.370 . S
C634 C638 1.524 . S
C635 C627 1.503 . S
C635 C634 1.370 . S
C635 C636 1.403 . S
C636 C635 1.403 . S
C636 C637 1.404 . S
C636 C639 1.539 . S
C637 C633 1.408 . S
C637 C636 1.404 . S
C637 H649 0.930 . S
C638 C634 1.524 . S
C638 H650 0.956 1_455 S
C638 H651 0.961 . S
C638 H652 0.961 . S
C639 C636 1.539 . S
C639 H653 0.958 . S
C639 H654 0.961 . S
C639 H655 0.960 . S
H640 C624 0.931 . S
H641 C629 0.929 . S
H642 C630 0.960 1_455 S
H643 C630 0.962 . S
H644 C630 0.960 . S
H645 C631 0.961 . S
H646 C631 0.961 . S
H647 C631 0.961 . S
H648 C632 0.931 . S
H649 C637 0.930 . S
H650 C638 0.956 1_655 S
H651 C638 0.961 . S
H652 C638 0.961 . S
H653 C639 0.958 . S
H654 C639 0.961 . S
H655 C639 0.960 . S
C656 C657 1.391 1_455 S
C656 C658 1.394 . S
C656 H672 0.931 . S
C657 C656 1.391 1_655 S
C657 C661 1.376 . S
C658 C656 1.394 . S
C658 C659 1.369 . S
C658 C662 1.531 . S
C659 C658 1.369 . S
C659 C660 1.410 1_455 S
C659 C667 1.503 . S
C660 C659 1.410 1_655 S
C660 C661 1.392 . S
C660 C663 1.511 1_545 S
C661 C657 1.376 . S
C661 C660 1.392 . S
C661 H673 0.929 . S
C662 C658 1.531 . S
C662 H674 0.960 . S
C662 H675 0.962 . S
C662 H676 0.960 . S
C663 C660 1.511 1_565 S
C663 H677 0.961 . S
C663 H678 0.961 . S
C663 H679 0.961 1_565 S
C664 C665 1.370 . S
C664 C666 1.363 . S
C664 H680 0.931 . S
C665 C664 1.370 . S
C665 C669 1.408 1_565 S
C666 C664 1.363 . S
C666 C667 1.370 1_565 S
C666 C670 1.524 . S
C667 C659 1.503 . S
C667 C666 1.370 1_545 S
C667 C668 1.403 . S
C668 C667 1.403 . S
C668 C669 1.404 . S
C668 C671 1.539 . S
C669 C665 1.408 1_545 S
C669 C668 1.404 . S
C669 H681 0.930 . S
C670 C666 1.524 . S
C670 H682 0.956 1_565 S
C670 H683 0.961 . S
C670 H684 0.961 . S
C671 C668 1.539 . S
C671 H685 0.958 . S
C671 H686 0.961 . S
C671 H687 0.957 1_455 S
H672 C656 0.931 . S
H673 C661 0.929 . S
H674 C662 0.960 . S
H675 C662 0.962 . S
H676 C662 0.960 . S
H677 C663 0.961 . S
H678 C663 0.961 . S
H679 C663 0.961 1_545 S
H680 C664 0.931 . S
H681 C669 0.930 . S
H682 C670 0.956 1_545 S
H683 C670 0.961 . S
H684 C670 0.961 . S
H685 C671 0.958 . S
H686 C671 0.961 . S
H687 C671 0.957 1_655 S
C688 C689 1.391 . S
C688 C690 1.394 . S
C688 H704 0.931 . S
C689 C688 1.391 . S
C689 C693 1.376 . S
C690 C688 1.394 . S
C690 C691 1.369 . S
C690 C694 1.531 . S
C691 C690 1.369 . S
C691 C692 1.410 . S
C691 C699 1.503 . S
C692 C691 1.410 . S
C692 C693 1.392 . S
C692 C695 1.511 1_545 S
C693 C689 1.376 . S
C693 C692 1.392 . S
C693 H705 0.929 . S
C694 C690 1.531 . S
C694 H706 0.960 . S
C694 H707 0.962 . S
C694 H708 0.960 . S
C695 C692 1.511 1_565 S
C695 H709 0.961 . S
C695 H710 0.961 . S
C695 H711 0.961 . S
C696 C697 1.370 . S
C696 C698 1.363 1_565 S
C696 H712 0.930 1_565 S
C697 C696 1.370 . S
C697 C701 1.408 . S
C698 C696 1.363 1_545 S
C698 C699 1.370 . S
C698 C702 1.524 . S
C699 C691 1.503 . S
C699 C698 1.370 . S
C699 C700 1.403 1_545 S
C700 C699 1.403 1_565 S
C700 C701 1.404 . S
C700 C703 1.539 . S
C701 C697 1.408 . S
C701 C700 1.404 . S
C701 H713 0.930 . S
C702 C698 1.524 . S
C702 H714 0.956 . S
C702 H715 0.961 . S
C702 H716 0.961 . S
C703 C700 1.539 . S
C703 H717 0.958 1_565 S
C703 H718 0.961 . S
C703 H719 0.960 . S
H704 C688 0.931 . S
H705 C693 0.929 . S
H706 C694 0.960 . S
H707 C694 0.962 . S
H708 C694 0.960 . S
H709 C695 0.961 . S
H710 C695 0.961 . S
H711 C695 0.961 . S
H712 C696 0.930 1_545 S
H713 C701 0.930 . S
H714 C702 0.956 . S
H715 C702 0.961 . S
H716 C702 0.961 . S
H717 C703 0.958 1_545 S
H718 C703 0.961 . S
H719 C703 0.960 . S
C720 C721 1.391 . S
C720 C722 1.394 . S
C720 H736 0.931 . S
C721 C720 1.391 . S
C721 C725 1.376 . S
C722 C720 1.394 . S
C722 C723 1.369 . S
C722 C726 1.531 . S
C723 C722 1.369 . S
C723 C724 1.410 . S
C723 C731 1.503 . S
C724 C723 1.410 . S
C724 C725 1.392 . S
C724 C727 1.511 . S
C725 C721 1.376 . S
C725 C724 1.392 . S
C725 H737 0.929 . S
C726 C722 1.531 . S
C726 H738 0.960 . S
C726 H739 0.962 . S
C726 H740 0.960 . S
C727 C724 1.511 . S
C727 H741 0.961 . S
C727 H742 0.961 . S
C727 H743 0.961 . S
C728 C729 1.370 . S
C728 C730 1.363 . S
C728 H744 0.931 . S
C729 C728 1.370 . S
C729 C733 1.408 . S
C730 C728 1.363 . S
C730 C731 1.370 . S
C730 C734 1.524 . S
C731 C723 1.503 . S
C731 C730 1.370 . S
C731 C732 1.403 . S
C732 C731 1.403 . S
C732 C733 1.404 . S
C732 C735 1.539 . S
C733 C729 1.408 . S
C733 C732 1.404 . S
C733 H745 0.930 . S
C734 C730 1.524 . S
C734 H746 0.956 . S
C734 H747 0.961 . S
C734 H748 0.961 . S
C735 C732 1.539 . S
C735 H749 0.958 . S
C735 H750 0.961 . S
C735 H751 0.960 . S
H736 C720 0.931 . S
H737 C725 0.929 . S
H738 C726 0.960 . S
H739 C726 0.962 . S
H740 C726 0.960 . S
H741 C727 0.961 . S
H742 C727 0.961 . S
H743 C727 0.961 . S
H744 C728 0.931 . S
H745 C733 0.930 . S
H746 C734 0.956 . S
H747 C734 0.961 . S
H748 C734 0.961 . S
H749 C735 0.958 . S
H750 C735 0.961 . S
H751 C735 0.960 . S
C752 C753 1.391 1_455 S
C752 C754 1.394 1_455 S
C752 H768 0.931 . S
C753 C752 1.391 1_655 S
C753 C757 1.376 . S
C754 C752 1.394 1_655 S
C754 C755 1.369 . S
C754 C758 1.526 1_655 S
C755 C754 1.369 . S
C755 C756 1.410 . S
C755 C763 1.503 . S
C756 C755 1.410 . S
C756 C757 1.392 . S
C756 C759 1.511 . S
C757 C753 1.376 . S
C757 C756 1.392 . S
C757 H769 0.929 . S
C758 C754 1.526 1_455 S
C758 H770 0.948 1_455 S
C758 H771 0.970 . S
C758 H772 0.969 . S
C759 C756 1.511 . S
C759 H773 0.961 . S
C759 H774 0.961 . S
C759 H775 0.961 . S
C760 C761 1.370 . S
C760 C762 1.363 . S
C760 H776 0.931 . S
C761 C760 1.370 . S
C761 C765 1.408 . S
C762 C760 1.363 . S
C762 C763 1.370 . S
C762 C766 1.524 . S
C763 C755 1.503 . S
C763 C762 1.370 . S
C763 C764 1.403 . S
C764 C763 1.403 . S
C764 C765 1.404 . S
C764 C767 1.539 . S
C765 C761 1.408 . S
C765 C764 1.404 . S
C765 H777 0.930 . S
C766 C762 1.524 . S
C766 H778 0.956 . S
C766 H779 0.961 . S
C766 H780 0.961 . S
C767 C764 1.539 . S
C767 H781 0.958 . S
C767 H782 0.961 . S
C767 H783 0.960 . S
H768 C752 0.931 . S
H769 C757 0.929 . S
H770 C758 0.948 1_655 S
H771 C758 0.970 . S
H772 C758 0.969 . S
H773 C759 0.961 . S
H774 C759 0.961 . S
H775 C759 0.961 . S
H776 C760 0.931 . S
H777 C765 0.930 . S
H778 C766 0.956 . S
H779 C766 0.961 . S
H780 C766 0.961 . S
H781 C767 0.958 . S
H782 C767 0.961 . S
H783 C767 0.960 . S
C784 C785 1.384 1_645 S
C784 C786 1.394 . S
C784 H800 0.931 . S
C785 C784 1.384 1_465 S
C785 C789 1.377 . S
C786 C784 1.394 . S
C786 C787 1.369 . S
C786 C790 1.531 . S
C787 C786 1.369 . S
C787 C788 1.410 1_545 S
C787 C795 1.503 . S
C788 C787 1.410 1_565 S
C788 C789 1.392 1_655 S
C788 C791 1.511 . S
C789 C785 1.377 . S
C789 C788 1.392 1_455 S
C789 H801 0.929 . S
C790 C786 1.531 . S
C790 H802 0.960 . S
C790 H803 0.962 . S
C790 H804 0.960 . S
C791 C788 1.511 . S
C791 H805 0.961 . S
C791 H806 0.961 . S
C791 H807 0.961 1_655 S
C792 C793 1.370 . S
C792 C794 1.363 . S
C792 H808 0.931 . S
C793 C792 1.370 . S
C793 C797 1.408 . S
C794 C792 1.363 . S
C794 C795 1.370 . S
C794 C798 1.524 1_545 S
C795 C787 1.503 . S
C795 C794 1.370 . S
C795 C796 1.403 . S
C796 C795 1.403 . S
C796 C797 1.404 . S
C796 C799 1.539 . S
C797 C793 1.408 . S
C797 C796 1.404 . S
C797 H809 0.930 . S
C798 C794 1.524 1_565 S
C798 H810 0.956 . S
C798 H811 0.961 . S
C798 H812 0.961 . S
C799 C796 1.539 . S
C799 H813 0.958 . S
C799 H814 0.961 1_655 S
C799 H815 0.960 1_655 S
H800 C784 0.931 . S
H801 C789 0.929 . S
H802 C790 0.960 . S
H803 C790 0.962 . S
H804 C790 0.960 . S
H805 C791 0.961 . S
H806 C791 0.961 . S
H807 C791 0.961 1_455 S
H808 C792 0.931 . S
H809 C797 0.930 . S
H810 C798 0.956 . S
H811 C798 0.961 . S
H812 C798 0.961 . S
H813 C799 0.958 . S
H814 C799 0.961 1_455 S
H815 C799 0.960 1_455 S
C816 C817 1.391 . S
C816 C818 1.394 . S
C816 H832 0.931 . S
C817 C816 1.391 . S
C817 C821 1.376 . S
C818 C816 1.394 . S
C818 C819 1.369 . S
C818 C822 1.531 1_545 S
C819 C818 1.369 . S
C819 C820 1.410 . S
C819 C827 1.503 1_545 S
C820 C819 1.410 . S
C820 C821 1.392 . S
C820 C823 1.511 . S
C821 C817 1.376 . S
C821 C820 1.392 . S
C821 H833 0.929 . S
C822 C818 1.531 1_565 S
C822 H834 0.960 . S
C822 H835 0.962 1_565 S
C822 H836 0.960 . S
C823 C820 1.511 . S
C823 H837 0.961 . S
C823 H838 0.961 . S
C823 H839 0.961 . S
C824 C825 1.370 1_545 S
C824 C826 1.363 . S
C824 H840 0.931 . S
C825 C824 1.370 1_565 S
C825 C829 1.408 . S
C826 C824 1.363 . S
C826 C827 1.370 1_545 S
C826 C830 1.524 . S
C827 C819 1.503 1_565 S
C827 C826 1.370 1_565 S
C827 C828 1.403 . S
C828 C827 1.403 . S
C828 C829 1.404 . S
C828 C831 1.539 . S
C829 C825 1.408 . S
C829 C828 1.404 . S
C829 H841 0.930 . S
C830 C826 1.524 . S
C830 H842 0.956 . S
C830 H843 0.961 . S
C830 H844 0.961 . S
C831 C828 1.539 . S
C831 H845 0.958 . S
C831 H846 0.961 . S
C831 H847 0.960 . S
H832 C816 0.931 . S
H833 C821 0.929 . S
H834 C822 0.960 . S
H835 C822 0.962 1_545 S
H836 C822 0.960 . S
H837 C823 0.961 . S
H838 C823 0.961 . S
H839 C823 0.961 . S
H840 C824 0.931 . S
H841 C829 0.930 . S
H842 C830 0.956 . S
H843 C830 0.961 . S
H844 C830 0.961 . S
H845 C831 0.958 . S
H846 C831 0.961 . S
H847 C831 0.960 . S
C848 C849 1.391 . S
C848 C850 1.394 . S
C848 H864 0.931 . S
C849 C848 1.391 . S
C849 C853 1.376 . S
C850 C848 1.394 . S
C850 C851 1.369 . S
C850 C854 1.531 . S
C851 C850 1.369 . S
C851 C852 1.410 . S
C851 C859 1.503 . S
C852 C851 1.410 . S
C852 C853 1.392 . S
C852 C855 1.511 . S
C853 C849 1.376 . S
C853 C852 1.392 . S
C853 H865 0.929 . S
C854 C850 1.531 . S
C854 H866 0.960 . S
C854 H867 0.962 . S
C854 H868 0.960 . S
C855 C852 1.511 . S
C855 H869 0.961 . S
C855 H870 0.961 . S
C855 H871 0.961 . S
C856 C857 1.370 . S
C856 C858 1.363 . S
C856 H872 0.931 . S
C857 C856 1.370 . S
C857 C861 1.408 . S
C858 C856 1.363 . S
C858 C859 1.370 . S
C858 C862 1.524 . S
C859 C851 1.503 . S
C859 C858 1.370 . S
C859 C860 1.403 . S
C860 C859 1.403 . S
C860 C861 1.404 . S
C860 C863 1.539 . S
C861 C857 1.408 . S
C861 C860 1.404 . S
C861 H873 0.930 . S
C862 C858 1.524 . S
C862 H874 0.956 . S
C862 H875 0.961 . S
C862 H876 0.961 . S
C863 C860 1.539 . S
C863 H877 0.958 . S
C863 H878 0.961 . S
C863 H879 0.960 . S
H864 C848 0.931 . S
H865 C853 0.929 . S
H866 C854 0.960 . S
H867 C854 0.962 . S
H868 C854 0.960 . S
H869 C855 0.961 . S
H870 C855 0.961 . S
H871 C855 0.961 . S
H872 C856 0.931 . S
H873 C861 0.930 . S
H874 C862 0.956 . S
H875 C862 0.961 . S
H876 C862 0.961 . S
H877 C863 0.958 . S
H878 C863 0.961 . S
H879 C863 0.960 . S
C880 C881 1.391 . S
C880 C882 1.394 . S
C880 H896 0.931 . S
C881 C880 1.391 . S
C881 C885 1.376 . S
C882 C880 1.394 . S
C882 C883 1.369 . S
C882 C886 1.531 . S
C883 C882 1.369 . S
C883 C884 1.410 . S
C883 C891 1.503 . S
C884 C883 1.410 . S
C884 C885 1.392 . S
C884 C887 1.511 . S
C885 C881 1.376 . S
C885 C884 1.392 . S
C885 H897 0.929 . S
C886 C882 1.531 . S
C886 H898 0.960 . S
C886 H899 0.962 . S
C886 H900 0.960 . S
C887 C884 1.511 . S
C887 H901 0.961 . S
C887 H902 0.961 . S
C887 H903 0.961 . S
C888 C889 1.370 . S
C888 C890 1.363 . S
C888 H904 0.931 . S
C889 C888 1.370 . S
C889 C893 1.408 . S
C890 C888 1.363 . S
C890 C891 1.370 . S
C890 C894 1.524 . S
C891 C883 1.503 . S
C891 C890 1.370 . S
C891 C892 1.403 . S
C892 C891 1.403 . S
C892 C893 1.404 . S
C892 C895 1.539 . S
C893 C889 1.408 . S
C893 C892 1.404 . S
C893 H905 0.930 . S
C894 C890 1.524 . S
C894 H906 0.956 . S
C894 H907 0.961 . S
C894 H908 0.961 . S
C895 C892 1.539 . S
C895 H909 0.958 . S
C895 H910 0.961 . S
C895 H911 0.960 . S
H896 C880 0.931 . S
H897 C885 0.929 . S
H898 C886 0.960 . S
H899 C886 0.962 . S
H900 C886 0.960 . S
H901 C887 0.961 . S
H902 C887 0.961 . S
H903 C887 0.961 . S
H904 C888 0.931 . S
H905 C893 0.930 . S
H906 C894 0.956 . S
H907 C894 0.961 . S
H908 C894 0.961 . S
H909 C895 0.958 . S
H910 C895 0.961 . S
H911 C895 0.960 . S
C912 C913 1.391 . S
C912 C914 1.394 . S
C912 H928 0.931 . S
C913 C912 1.391 . S
C913 C917 1.376 . S
C914 C912 1.394 . S
C914 C915 1.369 . S
C914 C918 1.531 . S
C915 C914 1.369 . S
C915 C916 1.410 . S
C915 C923 1.503 . S
C916 C915 1.410 . S
C916 C917 1.392 . S
C916 C919 1.511 . S
C917 C913 1.376 . S
C917 C916 1.392 . S
C917 H929 0.929 . S
C918 C914 1.531 . S
C918 H930 0.960 . S
C918 H931 0.962 . S
C918 H932 0.960 . S
C919 C916 1.511 . S
C919 H933 0.961 . S
C919 H934 0.961 . S
C919 H935 0.961 . S
C920 C921 1.370 . S
C920 C922 1.363 . S
C920 H936 0.931 . S
C921 C920 1.370 . S
C921 C925 1.408 . S
C922 C920 1.363 . S
C922 C923 1.370 . S
C922 C926 1.524 . S
C923 C915 1.503 . S
C923 C922 1.370 . S
C923 C924 1.403 . S
C924 C923 1.403 . S
C924 C925 1.404 . S
C924 C927 1.539 . S
C925 C921 1.408 . S
C925 C924 1.404 . S
C925 H937 0.930 . S
C926 C922 1.524 . S
C926 H938 0.956 . S
C926 H939 0.961 . S
C926 H940 0.961 . S
C927 C924 1.539 . S
C927 H941 0.958 . S
C927 H942 0.961 . S
C927 H943 0.960 . S
H928 C912 0.931 . S
H929 C917 0.929 . S
H930 C918 0.960 . S
H931 C918 0.962 . S
H932 C918 0.960 . S
H933 C919 0.961 . S
H934 C919 0.961 . S
H935 C919 0.961 . S
H936 C920 0.931 . S
H937 C925 0.930 . S
H938 C926 0.956 . S
H939 C926 0.961 . S
H940 C926 0.961 . S
H941 C927 0.958 . S
H942 C927 0.961 . S
H943 C927 0.960 . S
C944 C945 1.391 . S
C944 C946 1.394 . S
C944 H960 0.931 . S
C945 C944 1.391 . S
C945 C949 1.376 . S
C946 C944 1.394 . S
C946 C947 1.369 . S
C946 C950 1.531 . S
C947 C946 1.369 . S
C947 C948 1.410 . S
C947 C955 1.503 . S
C948 C947 1.410 . S
C948 C949 1.392 . S
C948 C951 1.511 . S
C949 C945 1.376 . S
C949 C948 1.392 . S
C949 H961 0.929 . S
C950 C946 1.531 . S
C950 H962 0.960 . S
C950 H963 0.962 . S
C950 H964 0.960 . S
C951 C948 1.511 . S
C951 H965 0.961 . S
C951 H966 0.961 . S
C951 H967 0.961 . S
C952 C953 1.370 . S
C952 C954 1.363 . S
C952 H968 0.931 . S
C953 C952 1.370 . S
C953 C957 1.408 . S
C954 C952 1.363 . S
C954 C955 1.370 . S
C954 C958 1.524 . S
C955 C947 1.503 . S
C955 C954 1.370 . S
C955 C956 1.403 . S
C956 C955 1.403 . S
C956 C957 1.404 . S
C956 C959 1.539 . S
C957 C953 1.408 . S
C957 C956 1.404 . S
C957 H969 0.930 . S
C958 C954 1.524 . S
C958 H970 0.956 . S
C958 H971 0.961 . S
C958 H972 0.961 . S
C959 C956 1.539 . S
C959 H973 0.958 . S
C959 H974 0.961 . S
C959 H975 0.960 . S
H960 C944 0.931 . S
H961 C949 0.929 . S
H962 C950 0.960 . S
H963 C950 0.962 . S
H964 C950 0.960 . S
H965 C951 0.961 . S
H966 C951 0.961 . S
H967 C951 0.961 . S
H968 C952 0.931 . S
H969 C957 0.930 . S
H970 C958 0.956 . S
H971 C958 0.961 . S
H972 C958 0.961 . S
H973 C959 0.958 . S
H974 C959 0.961 . S
H975 C959 0.960 . S
C976 C977 1.391 . S
C976 C978 1.394 . S
C976 H992 0.931 . S
C977 C976 1.391 . S
C977 C981 1.376 . S
C978 C976 1.394 . S
C978 C979 1.369 . S
C978 C982 1.531 . S
C979 C978 1.369 . S
C979 C980 1.410 . S
C979 C987 1.503 . S
C980 C979 1.410 . S
C980 C981 1.392 . S
C980 C983 1.511 . S
C981 C977 1.376 . S
C981 C980 1.392 . S
C981 H993 0.929 . S
C982 C978 1.531 . S
C982 H994 0.960 . S
C982 H995 0.962 . S
C982 H996 0.960 . S
C983 C980 1.511 . S
C983 H997 0.961 . S
C983 H998 0.961 . S
C983 H999 0.961 . S
C984 C985 1.370 . S
C984 C986 1.363 . S
C984 H1000 0.931 . S
C985 C984 1.370 . S
C985 C989 1.408 . S
C986 C984 1.363 . S
C986 C987 1.370 . S
C986 C990 1.524 . S
C987 C979 1.503 . S
C987 C986 1.370 . S
C987 C988 1.403 . S
C988 C987 1.403 . S
C988 C989 1.404 . S
C988 C991 1.539 . S
C989 C985 1.408 . S
C989 C988 1.404 . S
C989 H1001 0.930 . S
C990 C986 1.524 . S
C990 H1002 0.956 . S
C990 H1003 0.961 . S
C990 H1004 0.961 . S
C991 C988 1.539 . S
C991 H1005 0.958 . S
C991 H1006 0.961 . S
C991 H1007 0.960 . S
H992 C976 0.931 . S
H993 C981 0.929 . S
H994 C982 0.960 . S
H995 C982 0.962 . S
H996 C982 0.960 . S
H997 C983 0.961 . S
H998 C983 0.961 . S
H999 C983 0.961 . S
H1000 C984 0.931 . S
H1001 C989 0.930 . S
H1002 C990 0.956 . S
H1003 C990 0.961 . S
H1004 C990 0.961 . S
H1005 C991 0.958 . S
H1006 C991 0.961 . S
H1007 C991 0.960 . S
C1008 C1009 1.391 . S
C1008 C1010 1.394 . S
C1008 H1024 0.931 . S
C1009 C1008 1.391 . S
C1009 C1013 1.376 . S
C1010 C1008 1.394 . S
C1010 C1011 1.369 . S
C1010 C1014 1.531 . S
C1011 C1010 1.369 . S
C1011 C1012 1.410 . S
C1011 C1019 1.503 . S
C1012 C1011 1.410 . S
C1012 C1013 1.392 . S
C1012 C1015 1.511 . S
C1013 C1009 1.376 . S
C1013 C1012 1.392 . S
C1013 H1025 0.929 . S
C1014 C1010 1.531 . S
C1014 H1026 0.960 . S
C1014 H1027 0.962 . S
C1014 H1028 0.960 . S
C1015 C1012 1.511 . S
C1015 H1029 0.961 . S
C1015 H1030 0.961 . S
C1015 H1031 0.961 . S
C1016 C1017 1.370 . S
C1016 C1018 1.363 . S
C1016 H1032 0.931 . S
C1017 C1016 1.370 . S
C1017 C1021 1.408 . S
C1018 C1016 1.363 . S
C1018 C1019 1.370 . S
C1018 C1022 1.524 . S
C1019 C1011 1.503 . S
C1019 C1018 1.370 . S
C1019 C1020 1.403 . S
C1020 C1019 1.403 . S
C1020 C1021 1.404 . S
C1020 C1023 1.539 . S
C1021 C1017 1.408 . S
C1021 C1020 1.404 . S
C1021 H1033 0.930 . S
C1022 C1018 1.524 . S
C1022 H1034 0.956 . S
C1022 H1035 0.961 . S
C1022 H1036 0.961 . S
C1023 C1020 1.539 . S
C1023 H1037 0.958 . S
C1023 H1038 0.961 . S
C1023 H1039 0.960 . S
H1024 C1008 0.931 . S
H1025 C1013 0.929 . S
H1026 C1014 0.960 . S
H1027 C1014 0.962 . S
H1028 C1014 0.960 . S
H1029 C1015 0.961 . S
H1030 C1015 0.961 . S
H1031 C1015 0.961 . S
H1032 C1016 0.931 . S
H1033 C1021 0.930 . S
H1034 C1022 0.956 . S
H1035 C1022 0.961 . S
H1036 C1022 0.961 . S
H1037 C1023 0.958 . S
H1038 C1023 0.961 . S
H1039 C1023 0.960 . S
C1040 C1041 1.391 . S
C1040 C1042 1.394 . S
C1040 H1056 0.931 . S
C1041 C1040 1.391 . S
C1041 C1045 1.376 . S
C1042 C1040 1.394 . S
C1042 C1043 1.369 . S
C1042 C1046 1.531 . S
C1043 C1042 1.369 . S
C1043 C1044 1.410 . S
C1043 C1051 1.503 . S
C1044 C1043 1.410 . S
C1044 C1045 1.392 . S
C1044 C1047 1.511 . S
C1045 C1041 1.376 . S
C1045 C1044 1.392 . S
C1045 H1057 0.929 . S
C1046 C1042 1.531 . S
C1046 H1058 0.960 . S
C1046 H1059 0.962 . S
C1046 H1060 0.960 . S
C1047 C1044 1.511 . S
C1047 H1061 0.961 . S
C1047 H1062 0.961 . S
C1047 H1063 0.961 . S
C1048 C1049 1.370 . S
C1048 C1050 1.363 . S
C1048 H1064 0.931 . S
C1049 C1048 1.370 . S
C1049 C1053 1.408 . S
C1050 C1048 1.363 . S
C1050 C1051 1.370 . S
C1050 C1054 1.524 . S
C1051 C1043 1.503 . S
C1051 C1050 1.370 . S
C1051 C1052 1.403 . S
C1052 C1051 1.403 . S
C1052 C1053 1.404 . S
C1052 C1055 1.539 . S
C1053 C1049 1.408 . S
C1053 C1052 1.404 . S
C1053 H1065 0.930 . S
C1054 C1050 1.524 . S
C1054 H1066 0.956 . S
C1054 H1067 0.961 . S
C1054 H1068 0.961 . S
C1055 C1052 1.539 . S
C1055 H1069 0.958 . S
C1055 H1070 0.961 . S
C1055 H1071 0.960 . S
H1056 C1040 0.931 . S
H1057 C1045 0.929 . S
H1058 C1046 0.960 . S
H1059 C1046 0.962 . S
H1060 C1046 0.960 . S
H1061 C1047 0.961 . S
H1062 C1047 0.961 . S
H1063 C1047 0.961 . S
H1064 C1048 0.931 . S
H1065 C1053 0.930 . S
H1066 C1054 0.956 . S
H1067 C1054 0.961 . S
H1068 C1054 0.961 . S
H1069 C1055 0.958 . S
H1070 C1055 0.961 . S
H1071 C1055 0.960 . S
C1072 C1073 1.391 . S
C1072 C1074 1.394 . S
C1072 H1088 0.931 . S
C1073 C1072 1.391 . S
C1073 C1077 1.376 . S
C1074 C1072 1.394 . S
C1074 C1075 1.369 . S
C1074 C1078 1.531 . S
C1075 C1074 1.369 . S
C1075 C1076 1.410 . S
C1075 C1083 1.503 . S
C1076 C1075 1.410 . S
C1076 C1077 1.392 . S
C1076 C1079 1.511 . S
C1077 C1073 1.376 . S
C1077 C1076 1.392 . S
C1077 H1089 0.929 . S
C1078 C1074 1.531 . S
C1078 H1090 0.960 . S
C1078 H1091 0.962 . S
C1078 H1092 0.960 . S
C1079 C1076 1.511 . S
C1079 H1093 0.961 . S
C1079 H1094 0.961 . S
C1079 H1095 0.961 . S
C1080 C1081 1.370 . S
C1080 C1082 1.363 . S
C1080 H1096 0.931 . S
C1081 C1080 1.370 . S
C1081 C1085 1.408 . S
C1082 C1080 1.363 . S
C1082 C1083 1.370 . S
C1082 C1086 1.524 . S
C1083 C1075 1.503 . S
C1083 C1082 1.370 . S
C1083 C1084 1.403 . S
C1084 C1083 1.403 . S
C1084 C1085 1.404 . S
C1084 C1087 1.539 . S
C1085 C1081 1.408 . S
C1085 C1084 1.404 . S
C1085 H1097 0.930 . S
C1086 C1082 1.524 . S
C1086 H1098 0.956 . S
C1086 H1099 0.961 . S
C1086 H1100 0.961 . S
C1087 C1084 1.539 . S
C1087 H1101 0.958 . S
C1087 H1102 0.961 . S
C1087 H1103 0.960 . S
H1088 C1072 0.931 . S
H1089 C1077 0.929 . S
H1090 C1078 0.960 . S
H1091 C1078 0.962 . S
H1092 C1078 0.960 . S
H1093 C1079 0.961 . S
H1094 C1079 0.961 . S
H1095 C1079 0.961 . S
H1096 C1080 0.931 . S
H1097 C1085 0.930 . S
H1098 C1086 0.956 . S
H1099 C1086 0.961 . S
H1100 C1086 0.961 . S
H1101 C1087 0.958 . S
H1102 C1087 0.961 . S
H1103 C1087 0.960 . S
C1104 C1105 1.391 . S
C1104 C1106 1.394 . S
C1104 H1120 0.931 . S
C1105 C1104 1.391 . S
C1105 C1109 1.376 . S
C1106 C1104 1.394 . S
C1106 C1107 1.369 . S
C1106 C1110 1.531 . S
C1107 C1106 1.369 . S
C1107 C1108 1.410 . S
C1107 C1115 1.503 . S
C1108 C1107 1.410 . S
C1108 C1109 1.392 . S
C1108 C1111 1.511 . S
C1109 C1105 1.376 . S
C1109 C1108 1.392 . S
C1109 H1121 0.929 . S
C1110 C1106 1.531 . S
C1110 H1122 0.960 . S
C1110 H1123 0.962 . S
C1110 H1124 0.960 . S
C1111 C1108 1.511 . S
C1111 H1125 0.961 . S
C1111 H1126 0.961 . S
C1111 H1127 0.961 . S
C1112 C1113 1.370 . S
C1112 C1114 1.363 . S
C1112 H1128 0.931 . S
C1113 C1112 1.370 . S
C1113 C1117 1.408 . S
C1114 C1112 1.363 . S
C1114 C1115 1.370 . S
C1114 C1118 1.524 . S
C1115 C1107 1.503 . S
C1115 C1114 1.370 . S
C1115 C1116 1.403 . S
C1116 C1115 1.403 . S
C1116 C1117 1.404 . S
C1116 C1119 1.539 . S
C1117 C1113 1.408 . S
C1117 C1116 1.404 . S
C1117 H1129 0.930 . S
C1118 C1114 1.524 . S
C1118 H1130 0.956 . S
C1118 H1131 0.961 . S
C1118 H1132 0.961 . S
C1119 C1116 1.539 . S
C1119 H1133 0.958 . S
C1119 H1134 0.961 . S
C1119 H1135 0.960 . S
H1120 C1104 0.931 . S
H1121 C1109 0.929 . S
H1122 C1110 0.960 . S
H1123 C1110 0.962 . S
H1124 C1110 0.960 . S
H1125 C1111 0.961 . S
H1126 C1111 0.961 . S
H1127 C1111 0.961 . S
H1128 C1112 0.931 . S
H1129 C1117 0.930 . S
H1130 C1118 0.956 . S
H1131 C1118 0.961 . S
H1132 C1118 0.961 . S
H1133 C1119 0.958 . S
H1134 C1119 0.961 . S
H1135 C1119 0.960 . S
C1136 C1137 1.391 . S
C1136 C1138 1.394 . S
C1136 H1152 0.931 . S
C1137 C1136 1.391 . S
C1137 C1141 1.376 . S
C1138 C1136 1.394 . S
C1138 C1139 1.369 . S
C1138 C1142 1.531 1_455 S
C1139 C1138 1.369 . S
C1139 C1140 1.410 . S
C1139 C1147 1.503 1_455 S
C1140 C1139 1.410 . S
C1140 C1141 1.392 . S
C1140 C1143 1.511 1_554 S
C1141 C1137 1.376 . S
C1141 C1140 1.392 . S
C1141 H1153 0.929 . S
C1142 C1138 1.531 1_655 S
C1142 H1154 0.960 . S
C1142 H1155 0.962 . S
C1142 H1156 0.960 . S
C1143 C1140 1.511 1_556 S
C1143 H1157 0.961 . S
C1143 H1158 0.961 . S
C1143 H1159 0.961 . S
C1144 C1145 1.368 . S
C1144 C1146 1.364 1_556 S
C1144 H1160 0.932 1_556 S
C1145 C1144 1.368 . S
C1145 C1149 1.408 . S
C1146 C1144 1.364 1_554 S
C1146 C1147 1.371 . S
C1146 C1150 1.524 . S
C1147 C1139 1.503 1_655 S
C1147 C1146 1.371 . S
C1147 C1148 1.402 1_554 S
C1148 C1147 1.402 1_556 S
C1148 C1149 1.404 . S
C1148 C1151 1.539 . S
C1149 C1145 1.408 . S
C1149 C1148 1.404 . S
C1149 H1161 0.930 . S
C1150 C1146 1.524 . S
C1150 H1162 0.956 . S
C1150 H1163 0.961 . S
C1150 H1164 0.961 . S
C1151 C1148 1.539 . S
C1151 H1165 0.958 . S
C1151 H1166 0.961 . S
C1151 H1167 0.960 1_655 S
H1152 C1136 0.931 . S
H1153 C1141 0.929 . S
H1154 C1142 0.960 . S
H1155 C1142 0.962 . S
H1156 C1142 0.960 . S
H1157 C1143 0.961 . S
H1158 C1143 0.961 . S
H1159 C1143 0.961 . S
H1160 C1144 0.932 1_554 S
H1161 C1149 0.930 . S
H1162 C1150 0.956 . S
H1163 C1150 0.961 . S
H1164 C1150 0.961 . S
H1165 C1151 0.958 . S
H1166 C1151 0.961 . S
H1167 C1151 0.960 1_455 S
C1168 C1169 1.391 . S
C1168 C1170 1.394 . S
C1168 H1184 0.931 . S
C1169 C1168 1.391 . S
C1169 C1173 1.376 . S
C1170 C1168 1.394 . S
C1170 C1171 1.369 . S
C1170 C1174 1.531 1_556 S
C1171 C1170 1.369 . S
C1171 C1172 1.410 1_565 S
C1171 C1179 1.503 1_565 S
C1172 C1171 1.410 1_545 S
C1172 C1173 1.392 1_545 S
C1172 C1175 1.511 . S
C1173 C1169 1.376 . S
C1173 C1172 1.392 1_565 S
C1173 H1185 0.929 . S
C1174 C1170 1.531 1_554 S
C1174 H1186 0.960 . S
C1174 H1187 0.962 . S
C1174 H1188 0.960 . S
C1175 C1172 1.511 . S
C1175 H1189 0.961 . S
C1175 H1190 0.961 . S
C1175 H1191 0.961 . S
C1176 C1177 1.370 . S
C1176 C1178 1.363 1_554 S
C1176 H1192 0.931 . S
C1177 C1176 1.370 . S
C1177 C1181 1.408 1_655 S
C1178 C1176 1.363 1_556 S
C1178 C1179 1.370 1_655 S
C1178 C1182 1.524 . S
C1179 C1171 1.503 1_545 S
C1179 C1178 1.370 1_455 S
C1179 C1180 1.409 . S
C1180 C1179 1.409 . S
C1180 C1181 1.394 1_556 S
C1180 C1183 1.543 . S
C1181 C1177 1.408 1_455 S
C1181 C1180 1.394 1_554 S
C1181 H1193 0.930 . S
C1182 C1178 1.524 . S
C1182 H1194 0.956 1_545 S
C1182 H1195 0.961 . S
C1182 H1196 0.961 . S
C1183 C1180 1.543 . S
C1183 H1197 0.958 1_556 S
C1183 H1198 0.961 . S
C1183 H1199 0.960 . S
H1184 C1168 0.931 . S
H1185 C1173 0.929 . S
H1186 C1174 0.960 . S
H1187 C1174 0.962 . S
H1188 C1174 0.960 . S
H1189 C1175 0.961 . S
H1190 C1175 0.961 . S
H1191 C1175 0.961 . S
H1192 C1176 0.931 . S
H1193 C1181 0.930 . S
H1194 C1182 0.956 1_565 S
H1195 C1182 0.961 . S
H1196 C1182 0.961 . S
H1197 C1183 0.958 1_554 S
H1198 C1183 0.961 . S
H1199 C1183 0.960 . S
C1200 C1201 1.391 . S
C1200 C1202 1.394 . S
C1200 H1216 0.931 . S
C1201 C1200 1.391 . S
C1201 C1205 1.376 1_565 S
C1202 C1200 1.394 . S
C1202 C1203 1.369 . S
C1202 C1206 1.531 . S
C1203 C1202 1.369 . S
C1203 C1204 1.409 1_565 S
C1203 C1211 1.494 1_564 S
C1204 C1203 1.409 1_545 S
C1204 C1205 1.392 . S
C1204 C1207 1.511 . S
C1205 C1201 1.376 1_545 S
C1205 C1204 1.392 . S
C1205 H1217 0.929 . S
C1206 C1202 1.531 . S
C1206 H1218 0.960 1_554 S
C1206 H1219 0.962 . S
C1206 H1220 0.960 . S
C1207 C1204 1.511 . S
C1207 H1221 0.961 . S
C1207 H1222 0.961 . S
C1207 H1223 0.961 1_554 S
C1208 C1209 1.370 1_554 S
C1208 C1210 1.363 . S
C1208 H1224 0.931 . S
C1209 C1208 1.370 1_556 S
C1209 C1213 1.408 . S
C1210 C1208 1.363 . S
C1210 C1211 1.360 1_554 S
C1210 C1214 1.524 . S
C1211 C1203 1.494 1_546 S
C1211 C1210 1.360 1_556 S
C1211 C1212 1.422 . S
C1212 C1211 1.422 . S
C1212 C1213 1.404 . S
C1212 C1215 1.544 . S
C1213 C1209 1.408 . S
C1213 C1212 1.404 . S
C1213 H1225 0.930 . S
C1214 C1210 1.524 . S
C1214 H1226 0.956 . S
C1214 H1227 0.961 . S
C1214 H1228 0.961 . S
C1215 C1212 1.544 . S
C1215 H1229 0.942 1_545 S
C1215 H1230 0.970 . S
C1215 H1231 0.962 . S
H1216 C1200 0.931 . S
H1217 C1205 0.929 . S
H1218 C1206 0.960 1_556 S
H1219 C1206 0.962 . S
H1220 C1206 0.960 . S
H1221 C1207 0.961 . S
H1222 C1207 0.961 . S
H1223 C1207 0.961 1_556 S
H1224 C1208 0.931 . S
H1225 C1213 0.930 . S
H1226 C1214 0.956 . S
H1227 C1214 0.961 . S
H1228 C1214 0.961 . S
H1229 C1215 0.942 1_565 S
H1230 C1215 0.970 . S
H1231 C1215 0.962 . S
C1232 C1233 1.391 . S
C1232 C1234 1.394 . S
C1232 H1248 0.931 . S
C1233 C1232 1.391 . S
C1233 C1237 1.376 . S
C1234 C1232 1.394 . S
C1234 C1235 1.369 . S
C1234 C1238 1.531 . S
C1235 C1234 1.369 . S
C1235 C1236 1.410 . S
C1235 C1243 1.503 . S
C1236 C1235 1.410 . S
C1236 C1237 1.392 . S
C1236 C1239 1.511 . S
C1237 C1233 1.376 . S
C1237 C1236 1.392 . S
C1237 H1249 0.929 . S
C1238 C1234 1.531 . S
C1238 H1250 0.960 . S
C1238 H1251 0.962 . S
C1238 H1252 0.960 . S
C1239 C1236 1.511 . S
C1239 H1253 0.961 . S
C1239 H1254 0.961 . S
C1239 H1255 0.961 1_556 S
C1240 C1241 1.370 1_556 S
C1240 C1242 1.363 . S
C1240 H1256 0.931 . S
C1241 C1240 1.370 1_554 S
C1241 C1245 1.408 . S
C1242 C1240 1.363 . S
C1242 C1243 1.370 . S
C1242 C1246 1.524 . S
C1243 C1235 1.503 . S
C1243 C1242 1.370 . S
C1243 C1244 1.403 1_556 S
C1244 C1243 1.403 1_554 S
C1244 C1245 1.404 . S
C1244 C1247 1.539 . S
C1245 C1241 1.408 . S
C1245 C1244 1.404 . S
C1245 H1257 0.930 . S
C1246 C1242 1.524 . S
C1246 H1258 0.956 . S
C1246 H1259 0.961 . S
C1246 H1260 0.961 . S
C1247 C1244 1.539 . S
C1247 H1261 0.958 . S
C1247 H1262 0.961 . S
C1247 H1263 0.960 . S
H1248 C1232 0.931 . S
H1249 C1237 0.929 . S
H1250 C1238 0.960 . S
H1251 C1238 0.962 . S
H1252 C1238 0.960 . S
H1253 C1239 0.961 . S
H1254 C1239 0.961 . S
H1255 C1239 0.961 1_554 S
H1256 C1240 0.931 . S
H1257 C1245 0.930 . S
H1258 C1246 0.956 . S
H1259 C1246 0.961 . S
H1260 C1246 0.961 . S
H1261 C1247 0.958 . S
H1262 C1247 0.961 . S
H1263 C1247 0.960 . S
C1264 C1265 1.391 . S
C1264 C1266 1.394 . S
C1264 H1280 0.931 . S
C1265 C1264 1.391 . S
C1265 C1269 1.376 . S
C1266 C1264 1.394 . S
C1266 C1267 1.369 . S
C1266 C1270 1.531 1_465 S
C1267 C1266 1.369 . S
C1267 C1268 1.410 . S
C1267 C1275 1.503 1_465 S
C1268 C1267 1.410 . S
C1268 C1269 1.392 . S
C1268 C1271 1.511 . S
C1269 C1265 1.376 . S
C1269 C1268 1.392 . S
C1269 H1281 0.929 . S
C1270 C1266 1.531 1_645 S
C1270 H1282 0.960 1_545 S
C1270 H1283 0.962 . S
C1270 H1284 0.960 1_545 S
C1271 C1268 1.511 . S
C1271 H1285 0.961 . S
C1271 H1286 0.961 1_565 S
C1271 H1287 0.961 . S
C1272 C1273 1.370 . S
C1272 C1274 1.363 . S
C1272 H1288 0.931 . S
C1273 C1272 1.370 . S
C1273 C1277 1.408 1_545 S
C1274 C1272 1.363 . S
C1274 C1275 1.370 . S
C1274 C1278 1.524 1_655 S
C1275 C1267 1.503 1_645 S
C1275 C1274 1.370 . S
C1275 C1276 1.403 1_545 S
C1276 C1275 1.403 1_565 S
C1276 C1277 1.404 . S
C1276 C1279 1.539 . S
C1277 C1273 1.408 1_565 S
C1277 C1276 1.404 . S
C1277 H1289 0.930 . S
C1278 C1274 1.524 1_455 S
C1278 H1290 0.956 . S
C1278 H1291 0.961 . S
C1278 H1292 0.957 1_455 S
C1279 C1276 1.539 . S
C1279 H1293 0.958 . S
C1279 H1294 0.961 . S
C1279 H1295 0.960 . S
H1280 C1264 0.931 . S
H1281 C1269 0.929 . S
H1282 C1270 0.960 1_565 S
H1283 C1270 0.962 . S
H1284 C1270 0.960 1_565 S
H1285 C1271 0.961 . S
H1286 C1271 0.961 1_545 S
H1287 C1271 0.961 . S
H1288 C1272 0.931 . S
H1289 C1277 0.930 . S
H1290 C1278 0.956 . S
H1291 C1278 0.961 . S
H1292 C1278 0.957 1_655 S
H1293 C1279 0.958 . S
H1294 C1279 0.961 . S
H1295 C1279 0.960 . S
C1296 C1297 1.391 . S
C1296 C1298 1.394 . S
C1296 H1312 0.931 . S
C1297 C1296 1.391 . S
C1297 C1301 1.376 . S
C1298 C1296 1.394 . S
C1298 C1299 1.369 . S
C1298 C1302 1.531 . S
C1299 C1298 1.369 . S
C1299 C1300 1.410 . S
C1299 C1307 1.503 1_545 S
C1300 C1299 1.410 . S
C1300 C1301 1.392 . S
C1300 C1303 1.511 1_545 S
C1301 C1297 1.376 . S
C1301 C1300 1.392 . S
C1301 H1313 0.929 . S
C1302 C1298 1.531 . S
C1302 H1314 0.960 . S
C1302 H1315 0.962 . S
C1302 H1316 0.960 . S
C1303 C1300 1.511 1_565 S
C1303 H1317 0.961 . S
C1303 H1318 0.961 . S
C1303 H1319 0.961 . S
C1304 C1305 1.370 . S
C1304 C1306 1.363 . S
C1304 H1320 0.931 . S
C1305 C1304 1.370 . S
C1305 C1309 1.408 . S
C1306 C1304 1.363 . S
C1306 C1307 1.370 . S
C1306 C1310 1.524 1_565 S
C1307 C1299 1.503 1_565 S
C1307 C1306 1.370 . S
C1307 C1308 1.403 . S
C1308 C1307 1.403 . S
C1308 C1309 1.404 . S
C1308 C1311 1.539 . S
C1309 C1305 1.408 . S
C1309 C1308 1.404 . S
C1309 H1321 0.930 . S
C1310 C1306 1.524 1_545 S
C1310 H1322 0.956 . S
C1310 H1323 0.961 . S
C1310 H1324 0.961 . S
C1311 C1308 1.539 . S
C1311 H1325 0.958 . S
C1311 H1326 0.961 . S
C1311 H1327 0.960 . S
H1312 C1296 0.931 . S
H1313 C1301 0.929 . S
H1314 C1302 0.960 . S
H1315 C1302 0.962 . S
H1316 C1302 0.960 . S
H1317 C1303 0.961 . S
H1318 C1303 0.961 . S
H1319 C1303 0.961 . S
H1320 C1304 0.931 . S
H1321 C1309 0.930 . S
H1322 C1310 0.956 . S
H1323 C1310 0.961 . S
H1324 C1310 0.961 . S
H1325 C1311 0.958 . S
H1326 C1311 0.961 . S
H1327 C1311 0.960 . S
C1328 C1329 1.391 . S
C1328 C1330 1.394 . S
C1328 H1344 0.931 . S
C1329 C1328 1.391 . S
C1329 C1333 1.376 . S
C1330 C1328 1.394 . S
C1330 C1331 1.369 . S
C1330 C1334 1.531 . S
C1331 C1330 1.369 . S
C1331 C1332 1.410 . S
C1331 C1339 1.503 . S
C1332 C1331 1.410 . S
C1332 C1333 1.392 . S
C1332 C1335 1.511 . S
C1333 C1329 1.376 . S
C1333 C1332 1.392 . S
C1333 H1345 0.929 . S
C1334 C1330 1.531 . S
C1334 H1346 0.960 . S
C1334 H1347 0.962 . S
C1334 H1348 0.960 . S
C1335 C1332 1.511 . S
C1335 H1349 0.961 . S
C1335 H1350 0.961 . S
C1335 H1351 0.961 . S
C1336 C1337 1.370 . S
C1336 C1338 1.363 . S
C1336 H1352 0.931 . S
C1337 C1336 1.370 . S
C1337 C1341 1.408 . S
C1338 C1336 1.363 . S
C1338 C1339 1.370 . S
C1338 C1342 1.524 . S
C1339 C1331 1.503 . S
C1339 C1338 1.370 . S
C1339 C1340 1.403 . S
C1340 C1339 1.403 . S
C1340 C1341 1.404 . S
C1340 C1343 1.539 . S
C1341 C1337 1.408 . S
C1341 C1340 1.404 . S
C1341 H1353 0.930 . S
C1342 C1338 1.524 . S
C1342 H1354 0.956 . S
C1342 H1355 0.961 . S
C1342 H1356 0.961 . S
C1343 C1340 1.539 . S
C1343 H1357 0.958 . S
C1343 H1358 0.961 . S
C1343 H1359 0.960 . S
H1344 C1328 0.931 . S
H1345 C1333 0.929 . S
H1346 C1334 0.960 . S
H1347 C1334 0.962 . S
H1348 C1334 0.960 . S
H1349 C1335 0.961 . S
H1350 C1335 0.961 . S
H1351 C1335 0.961 . S
H1352 C1336 0.931 . S
H1353 C1341 0.930 . S
H1354 C1342 0.956 . S
H1355 C1342 0.961 . S
H1356 C1342 0.961 . S
H1357 C1343 0.958 . S
H1358 C1343 0.961 . S
H1359 C1343 0.960 . S
C1360 C1361 1.391 . S
C1360 C1362 1.394 1_655 S
C1360 H1376 0.931 . S
C1361 C1360 1.391 . S
C1361 C1365 1.376 1_655 S
C1362 C1360 1.394 1_455 S
C1362 C1363 1.369 . S
C1362 C1366 1.531 1_455 S
C1363 C1362 1.369 . S
C1363 C1364 1.410 . S
C1363 C1371 1.503 . S
C1364 C1363 1.410 . S
C1364 C1365 1.392 . S
C1364 C1367 1.511 . S
C1365 C1361 1.376 1_455 S
C1365 C1364 1.392 . S
C1365 H1377 0.929 . S
C1366 C1362 1.531 1_655 S
C1366 H1378 0.960 1_655 S
C1366 H1379 0.962 . S
C1366 H1380 0.960 . S
C1367 C1364 1.511 . S
C1367 H1381 0.961 . S
C1367 H1382 0.961 . S
C1367 H1383 0.961 . S
C1368 C1369 1.370 . S
C1368 C1370 1.360 1_455 S
C1368 H1384 0.931 1_455 S
C1369 C1368 1.370 . S
C1369 C1373 1.408 . S
C1370 C1368 1.360 1_655 S
C1370 C1371 1.355 1_655 S
C1370 C1374 1.543 . S
C1371 C1363 1.503 . S
C1371 C1370 1.355 1_455 S
C1371 C1372 1.403 . S
C1372 C1371 1.403 . S
C1372 C1373 1.404 . S
C1372 C1375 1.539 . S
C1373 C1369 1.408 . S
C1373 C1372 1.404 . S
C1373 H1385 0.930 . S
C1374 C1370 1.543 . S
C1374 H1386 0.956 . S
C1374 H1387 0.961 . S
C1374 H1388 0.961 . S
C1375 C1372 1.539 . S
C1375 H1389 0.958 . S
C1375 H1390 0.961 . S
C1375 H1391 0.960 . S
H1376 C1360 0.931 . S
H1377 C1365 0.929 . S
H1378 C1366 0.960 1_455 S
H1379 C1366 0.962 . S
H1380 C1366 0.960 . S
H1381 C1367 0.961 . S
H1382 C1367 0.961 . S
H1383 C1367 0.961 . S
H1384 C1368 0.931 1_655 S
H1385 C1373 0.930 . S
H1386 C1374 0.956 . S
H1387 C1374 0.961 . S
H1388 C1374 0.961 . S
H1389 C1375 0.958 . S
H1390 C1375 0.961 . S
H1391 C1375 0.960 . S
C369 C16 1.822 . S
C377 C62 1.836 . S
C401 C39 2.056 . S
C409 C85 2.054 . S
C433 C108 1.825 . S
C441 C154 1.836 . S
C465 C177 2.034 . S
C473 C131 2.047 . S
C497 C200 1.300 . S
C505 C246 1.296 . S
C529 N265 1.284 . S
C537 N219 1.289 . S
C561 C338 1.256 . S
C569 C292 1.285 . S
C593 N357 1.289 . S
C601 N311 1.291 . S
C625 C168 2.262 . S
C633 C7 2.244 . S
C657 C30 2.211 . S
C665 C99 2.256 . S
C689 C122 2.218 . S
C697 C53 2.251 . S
C721 C76 2.215 . S
C729 C145 2.257 . S
C753 N347 1.446 1_655 S
C761 C191 1.600 . S
C785 N209 1.489 . S
C793 C283 1.594 . S
C817 C237 1.617 . S
C825 N301 1.459 . S
C849 C329 1.561 . S
C857 N255 1.499 . S
C881 N2 0.885 . S
C889 N94 0.848 . S
C913 N25 0.707 . S
C921 N117 0.735 . S
C945 N140 0.923 . S
C953 N48 0.876 . S
C977 N71 0.689 . S
C985 N163 0.736 . S
C1009 N278 0.967 . S
C1017 N186 0.981 . S
C1041 C306 1.176 . S
C1049 C214 1.147 . S
C1073 N232 0.926 . S
C1081 N324 0.945 . S
C1105 C260 1.172 . S
C1113 C352 1.157 . S
C1137 N12 2.189 . S
C1145 N196 2.216 . S
C1169 C223 1.929 . S
C1177 N35 2.066 . S
C1201 N58 2.198 . S
C1209 N242 2.213 . S
C1233 C269 1.980 . S
C1241 N81 2.057 . S
C1265 N104 2.179 . S
C1273 N288 2.221 . S
C1297 N127 2.063 . S
C1305 C315 1.966 . S
C1329 N334 2.227 . S
C1337 N150 2.197 . S
C1361 N173 2.072 . S
C1369 C361 1.951 . S
