# Generated by pormake.
# Topology mer, (4)-cn, num edge types: 1
# Building blocks:
#     Node 0, Type 0, BuildingBlock: QUQFOY_clean_sbu_1, # of connection points: 4
#     Node 1, Type 0, BuildingBlock: QUQFOY_clean_sbu_1, # of connection points: 4
#     Node 2, Type 0, BuildingBlock: QUQFOY_clean_sbu_1, # of connection points: 4
#     Node 3, Type 0, BuildingBlock: QUQFOY_clean_sbu_1, # of connection points: 4
#     Node 4, Type 0, BuildingBlock: QUQFOY_clean_sbu_1, # of connection points: 4
#     Node 5, Type 0, BuildingBlock: QUQFOY_clean_sbu_1, # of connection points: 4
#     Node 6, Type 0, BuildingBlock: QUQFOY_clean_sbu_1, # of connection points: 4
#     Node 7, Type 0, BuildingBlock: QUQFOY_clean_sbu_1, # of connection points: 4
#     Node 8, Type 0, BuildingBlock: QUQFOY_clean_sbu_1, # of connection points: 4
#     Node 9, Type 0, BuildingBlock: QUQFOY_clean_sbu_1, # of connection points: 4
#     Node 10, Type 0, BuildingBlock: QUQFOY_clean_sbu_1, # of connection points: 4
#     Node 11, Type 0, BuildingBlock: QUQFOY_clean_sbu_1, # of connection points: 4
#     Node 12, Type 0, BuildingBlock: QUQFOY_clean_sbu_1, # of connection points: 4
#     Node 13, Type 0, BuildingBlock: QUQFOY_clean_sbu_1, # of connection points: 4
#     Node 14, Type 0, BuildingBlock: QUQFOY_clean_sbu_1, # of connection points: 4
#     Node 15, Type 0, BuildingBlock: QUQFOY_clean_sbu_1, # of connection points: 4
#     Node 16, Type 0, BuildingBlock: QUQFOY_clean_sbu_1, # of connection points: 4
#     Node 17, Type 0, BuildingBlock: QUQFOY_clean_sbu_1, # of connection points: 4
#     Node 18, Type 0, BuildingBlock: QUQFOY_clean_sbu_1, # of connection points: 4
#     Node 19, Type 0, BuildingBlock: QUQFOY_clean_sbu_1, # of connection points: 4
#     Node 20, Type 0, BuildingBlock: QUQFOY_clean_sbu_1, # of connection points: 4
#     Node 21, Type 0, BuildingBlock: QUQFOY_clean_sbu_1, # of connection points: 4
#     Node 22, Type 0, BuildingBlock: QUQFOY_clean_sbu_1, # of connection points: 4
#     Node 23, Type 0, BuildingBlock: QUQFOY_clean_sbu_1, # of connection points: 4
#     Node 24, Type 0, BuildingBlock: QUQFOY_clean_sbu_1, # of connection points: 4
#     Node 25, Type 0, BuildingBlock: QUQFOY_clean_sbu_1, # of connection points: 4
#     Node 26, Type 0, BuildingBlock: QUQFOY_clean_sbu_1, # of connection points: 4
#     Node 27, Type 0, BuildingBlock: QUQFOY_clean_sbu_1, # of connection points: 4
#     Node 28, Type 0, BuildingBlock: QUQFOY_clean_sbu_1, # of connection points: 4
#     Node 29, Type 0, BuildingBlock: QUQFOY_clean_sbu_1, # of connection points: 4
#     Node 30, Type 0, BuildingBlock: QUQFOY_clean_sbu_1, # of connection points: 4
#     Node 31, Type 0, BuildingBlock: QUQFOY_clean_sbu_1, # of connection points: 4
#     Edge 32, Type (0, 0), BuildingBlock: CIFDUS_clean_linker_0, # of connection points: 2
#     Edge 33, Type (0, 0), BuildingBlock: CIFDUS_clean_linker_0, # of connection points: 2
#     Edge 34, Type (0, 0), BuildingBlock: CIFDUS_clean_linker_0, # of connection points: 2
#     Edge 35, Type (0, 0), BuildingBlock: CIFDUS_clean_linker_0, # of connection points: 2
#     Edge 36, Type (0, 0), BuildingBlock: CIFDUS_clean_linker_0, # of connection points: 2
#     Edge 37, Type (0, 0), BuildingBlock: CIFDUS_clean_linker_0, # of connection points: 2
#     Edge 38, Type (0, 0), BuildingBlock: CIFDUS_clean_linker_0, # of connection points: 2
#     Edge 39, Type (0, 0), BuildingBlock: CIFDUS_clean_linker_0, # of connection points: 2
#     Edge 40, Type (0, 0), BuildingBlock: CIFDUS_clean_linker_0, # of connection points: 2
#     Edge 41, Type (0, 0), BuildingBlock: CIFDUS_clean_linker_0, # of connection points: 2
#     Edge 42, Type (0, 0), BuildingBlock: CIFDUS_clean_linker_0, # of connection points: 2
#     Edge 43, Type (0, 0), BuildingBlock: CIFDUS_clean_linker_0, # of connection points: 2
#     Edge 44, Type (0, 0), BuildingBlock: CIFDUS_clean_linker_0, # of connection points: 2
#     Edge 45, Type (0, 0), BuildingBlock: CIFDUS_clean_linker_0, # of connection points: 2
#     Edge 46, Type (0, 0), BuildingBlock: CIFDUS_clean_linker_0, # of connection points: 2
#     Edge 47, Type (0, 0), BuildingBlock: CIFDUS_clean_linker_0, # of connection points: 2
#     Edge 48, Type (0, 0), BuildingBlock: CIFDUS_clean_linker_0, # of connection points: 2
#     Edge 49, Type (0, 0), BuildingBlock: CIFDUS_clean_linker_0, # of connection points: 2
#     Edge 50, Type (0, 0), BuildingBlock: CIFDUS_clean_linker_0, # of connection points: 2
#     Edge 51, Type (0, 0), BuildingBlock: CIFDUS_clean_linker_0, # of connection points: 2
#     Edge 52, Type (0, 0), BuildingBlock: CIFDUS_clean_linker_0, # of connection points: 2
#     Edge 53, Type (0, 0), BuildingBlock: CIFDUS_clean_linker_0, # of connection points: 2
#     Edge 54, Type (0, 0), BuildingBlock: CIFDUS_clean_linker_0, # of connection points: 2
#     Edge 55, Type (0, 0), BuildingBlock: CIFDUS_clean_linker_0, # of connection points: 2
#     Edge 56, Type (0, 0), BuildingBlock: CIFDUS_clean_linker_0, # of connection points: 2
#     Edge 57, Type (0, 0), BuildingBlock: CIFDUS_clean_linker_0, # of connection points: 2
#     Edge 58, Type (0, 0), BuildingBlock: CIFDUS_clean_linker_0, # of connection points: 2
#     Edge 59, Type (0, 0), BuildingBlock: CIFDUS_clean_linker_0, # of connection points: 2
#     Edge 60, Type (0, 0), BuildingBlock: CIFDUS_clean_linker_0, # of connection points: 2
#     Edge 61, Type (0, 0), BuildingBlock: CIFDUS_clean_linker_0, # of connection points: 2
#     Edge 62, Type (0, 0), BuildingBlock: CIFDUS_clean_linker_0, # of connection points: 2
#     Edge 63, Type (0, 0), BuildingBlock: CIFDUS_clean_linker_0, # of connection points: 2
#     Edge 64, Type (0, 0), BuildingBlock: CIFDUS_clean_linker_0, # of connection points: 2
#     Edge 65, Type (0, 0), BuildingBlock: CIFDUS_clean_linker_0, # of connection points: 2
#     Edge 66, Type (0, 0), BuildingBlock: CIFDUS_clean_linker_0, # of connection points: 2
#     Edge 67, Type (0, 0), BuildingBlock: CIFDUS_clean_linker_0, # of connection points: 2
#     Edge 68, Type (0, 0), BuildingBlock: CIFDUS_clean_linker_0, # of connection points: 2
#     Edge 69, Type (0, 0), BuildingBlock: CIFDUS_clean_linker_0, # of connection points: 2
#     Edge 70, Type (0, 0), BuildingBlock: CIFDUS_clean_linker_0, # of connection points: 2
#     Edge 71, Type (0, 0), BuildingBlock: CIFDUS_clean_linker_0, # of connection points: 2
#     Edge 72, Type (0, 0), BuildingBlock: CIFDUS_clean_linker_0, # of connection points: 2
#     Edge 73, Type (0, 0), BuildingBlock: CIFDUS_clean_linker_0, # of connection points: 2
#     Edge 74, Type (0, 0), BuildingBlock: CIFDUS_clean_linker_0, # of connection points: 2
#     Edge 75, Type (0, 0), BuildingBlock: CIFDUS_clean_linker_0, # of connection points: 2
#     Edge 76, Type (0, 0), BuildingBlock: CIFDUS_clean_linker_0, # of connection points: 2
#     Edge 77, Type (0, 0), BuildingBlock: CIFDUS_clean_linker_0, # of connection points: 2
#     Edge 78, Type (0, 0), BuildingBlock: CIFDUS_clean_linker_0, # of connection points: 2
#     Edge 79, Type (0, 0), BuildingBlock: CIFDUS_clean_linker_0, # of connection points: 2
#     Edge 80, Type (0, 0), BuildingBlock: CIFDUS_clean_linker_0, # of connection points: 2
#     Edge 81, Type (0, 0), BuildingBlock: CIFDUS_clean_linker_0, # of connection points: 2
#     Edge 82, Type (0, 0), BuildingBlock: CIFDUS_clean_linker_0, # of connection points: 2
#     Edge 83, Type (0, 0), BuildingBlock: CIFDUS_clean_linker_0, # of connection points: 2
#     Edge 84, Type (0, 0), BuildingBlock: CIFDUS_clean_linker_0, # of connection points: 2
#     Edge 85, Type (0, 0), BuildingBlock: CIFDUS_clean_linker_0, # of connection points: 2
#     Edge 86, Type (0, 0), BuildingBlock: CIFDUS_clean_linker_0, # of connection points: 2
#     Edge 87, Type (0, 0), BuildingBlock: CIFDUS_clean_linker_0, # of connection points: 2
#     Edge 88, Type (0, 0), BuildingBlock: CIFDUS_clean_linker_0, # of connection points: 2
#     Edge 89, Type (0, 0), BuildingBlock: CIFDUS_clean_linker_0, # of connection points: 2
#     Edge 90, Type (0, 0), BuildingBlock: CIFDUS_clean_linker_0, # of connection points: 2
#     Edge 91, Type (0, 0), BuildingBlock: CIFDUS_clean_linker_0, # of connection points: 2
#     Edge 92, Type (0, 0), BuildingBlock: CIFDUS_clean_linker_0, # of connection points: 2
#     Edge 93, Type (0, 0), BuildingBlock: CIFDUS_clean_linker_0, # of connection points: 2
#     Edge 94, Type (0, 0), BuildingBlock: CIFDUS_clean_linker_0, # of connection points: 2
#     Edge 95, Type (0, 0), BuildingBlock: CIFDUS_clean_linker_0, # of connection points: 2
# Relax obj value: 0.010
# Max RMSD: 0.053
# Mean RMSD: 0.053
data_MOF--net-mer--node1-QUQFOY_clean_sbu_1--edge1-CIFDUS_clean_linker_0
_symmetry_space_group_name_H-M    P1
_symmetry_Int_Tables_number       1
_symmetry_cell_setting            triclinic
loop_
_symmetry_equiv_pos_as_xyz
'x, y, z'
_cell_length_a     59.630647
_cell_length_b     59.624968
_cell_length_c     47.452829
_cell_angle_alpha  90.06952
_cell_angle_beta   89.964322
_cell_angle_gamma 89.99762
loop_
_atom_site_label
_atom_site_type_symbol
_atom_site_fract_x
_atom_site_fract_y
_atom_site_fract_z
_atom_type_partial_charge
O0 O 0.15855 0.27703 0.3791 0.0
Cd1 Cd 0.13573 0.30277 0.3826 0.0
Cd2 Cd 0.10655 0.26839 0.38465 0.0
O3 O 0.13428 0.2497 0.37195 0.0
O4 O 0.14913 0.32918 0.36292 0.0
O5 O 0.11957 0.31061 0.34692 0.0
C6 C 0.13464 0.32593 0.3431 0.0
C7 C 0.07019 0.26161 0.36749 0.0
C8 C 0.15446 0.25662 0.37331 0.0
C9 C 0.11382 0.29652 0.43763 0.0
O10 O 0.10622 0.27881 0.42613 0.0
O11 O 0.12524 0.31044 0.42323 0.0
O12 O 0.0805 0.24735 0.38322 0.0
O13 O 0.0811 0.27931 0.35985 0.0
O14 O 0.75215 0.16126 0.36719 0.0
Cd15 Cd 0.72301 0.14272 0.37059 0.0
Cd16 Cd 0.7548 0.10768 0.37286 0.0
O17 O 0.77625 0.13352 0.3613 0.0
O18 O 0.69855 0.16266 0.35629 0.0
O19 O 0.70949 0.13198 0.33395 0.0
C20 C 0.69707 0.14976 0.33453 0.0
C21 C 0.76218 0.07069 0.35799 0.0
C22 C 0.77197 0.15443 0.3622 0.0
C23 C 0.72593 0.11802 0.42492 0.0
O24 O 0.74252 0.10815 0.41349 0.0
O25 O 0.71425 0.13194 0.41087 0.0
O26 O 0.77536 0.08129 0.37483 0.0
O27 O 0.74517 0.08152 0.34809 0.0
O28 O 0.8563 0.74833 0.37607 0.0
Cd29 Cd 0.8751 0.71949 0.38056 0.0
Cd30 Cd 0.90999 0.74996 0.38163 0.0
O31 O 0.88451 0.77175 0.3699 0.0
O32 O 0.85681 0.69437 0.36479 0.0
O33 O 0.8882 0.70639 0.34499 0.0
C34 C 0.87091 0.69331 0.34418 0.0
C35 C 0.94648 0.75634 0.3644 0.0
C36 C 0.86352 0.76794 0.37076 0.0
C37 C 0.89929 0.72305 0.43499 0.0
O38 O 0.90991 0.73883 0.42289 0.0
O39 O 0.88493 0.71157 0.42137 0.0
O40 O 0.93679 0.77 0.38151 0.0
O41 O 0.93513 0.73917 0.35594 0.0
O42 O 0.26845 0.85326 0.37204 0.0
Cd43 Cd 0.29757 0.87181 0.37537 0.0
Cd44 Cd 0.26819 0.9063 0.37656 0.0
O45 O 0.24572 0.88169 0.36376 0.0
O46 O 0.32189 0.85482 0.35562 0.0
O47 O 0.3075 0.88657 0.33949 0.0
C48 C 0.32072 0.86961 0.33579 0.0
C49 C 0.26601 0.9433 0.35986 0.0
C50 C 0.2491 0.86066 0.36562 0.0
C51 C 0.29495 0.89564 0.42975 0.0
O52 O 0.27856 0.90552 0.41799 0.0
O53 O 0.3069 0.88188 0.41574 0.0
O54 O 0.25069 0.93481 0.37573 0.0
O55 O 0.28205 0.93024 0.35175 0.0
O56 O 0.16418 0.74658 0.65767 0.0
Cd57 Cd 0.14649 0.71698 0.65393 0.0
Cd58 Cd 0.11169 0.7463 0.64644 0.0
O59 O 0.13546 0.76989 0.65837 0.0
O60 O 0.1664 0.6935 0.67031 0.0
O61 O 0.1342 0.7036 0.68974 0.0
C62 C 0.15232 0.69172 0.69081 0.0
C63 C 0.07468 0.74846 0.66315 0.0
C64 C 0.15646 0.76637 0.66019 0.0
C65 C 0.12565 0.71703 0.59698 0.0
O66 O 0.1143 0.73359 0.60604 0.0
O67 O 0.13883 0.70657 0.61343 0.0
O68 O 0.08264 0.76292 0.64565 0.0
O69 O 0.0881 0.7331 0.67229 0.0
O70 O 0.26909 0.15942 0.66208 0.0
Cd71 Cd 0.29809 0.14077 0.65804 0.0
Cd72 Cd 0.26837 0.1065 0.65577 0.0
O73 O 0.2457 0.13113 0.66813 0.0
O74 O 0.32272 0.15711 0.6782 0.0
O75 O 0.30824 0.12507 0.69322 0.0
C76 C 0.32166 0.1418 0.6974 0.0
C77 C 0.26694 0.06957 0.67287 0.0
C78 C 0.24946 0.15216 0.66731 0.0
C79 C 0.29523 0.11785 0.60288 0.0
O80 O 0.27904 0.10749 0.61448 0.0
O81 O 0.30699 0.13161 0.61711 0.0
O82 O 0.25145 0.07758 0.65687 0.0
O83 O 0.28265 0.08306 0.68086 0.0
O84 O 0.85837 0.26176 0.65375 0.0
Cd85 Cd 0.8774 0.29059 0.65147 0.0
Cd86 Cd 0.91172 0.25991 0.64728 0.0
O87 O 0.88629 0.23774 0.6584 0.0
O88 O 0.86018 0.31471 0.67134 0.0
O89 O 0.89176 0.30023 0.68783 0.0
C90 C 0.87475 0.31342 0.6914 0.0
C91 C 0.94874 0.2538 0.66286 0.0
C92 C 0.86534 0.24187 0.65793 0.0
C93 C 0.90068 0.28949 0.59635 0.0
O94 O 0.91082 0.27271 0.60687 0.0
O95 O 0.88704 0.30083 0.61133 0.0
O96 O 0.93893 0.24042 0.64551 0.0
O97 O 0.93713 0.27032 0.67274 0.0
O98 O 0.73624 0.85322 0.66345 0.0
Cd99 Cd 0.70854 0.87363 0.65906 0.0
Cd100 Cd 0.74281 0.90506 0.64996 0.0
O101 O 0.76302 0.87879 0.66351 0.0
O102 O 0.6834 0.8556 0.67527 0.0
O103 O 0.69572 0.88689 0.69487 0.0
C104 C 0.68259 0.86966 0.6959 0.0
C105 C 0.75143 0.94248 0.66154 0.0
C106 C 0.75682 0.85845 0.66597 0.0
C107 C 0.71156 0.8928 0.60123 0.0
O108 O 0.72936 0.9022 0.61005 0.0
O109 O 0.69935 0.8815 0.61803 0.0
O110 O 0.764 0.93072 0.64514 0.0
O111 O 0.73435 0.93263 0.67282 0.0
O112 O 0.85107 0.75168 0.66222 0.0
Cd113 Cd 0.86913 0.72225 0.65927 0.0
Cd114 Cd 0.90401 0.75192 0.6494 0.0
O115 O 0.87975 0.77507 0.66142 0.0
O116 O 0.85185 0.69903 0.68056 0.0
O117 O 0.88466 0.71225 0.69475 0.0
C118 C 0.86736 0.69971 0.6995 0.0
C119 C 0.9418 0.75855 0.66111 0.0
C120 C 0.85879 0.77152 0.66393 0.0
C121 C 0.88902 0.72067 0.60181 0.0
O122 O 0.90054 0.73736 0.61011 0.0
O123 O 0.87586 0.71067 0.61878 0.0
O124 O 0.93107 0.77105 0.64363 0.0
O125 O 0.9308 0.74256 0.67317 0.0
O126 O 0.2792 0.84812 0.65823 0.0
Cd127 Cd 0.30573 0.87 0.6543 0.0
Cd128 Cd 0.27237 0.90005 0.64567 0.0
O129 O 0.25222 0.87342 0.65833 0.0
O130 O 0.33105 0.85697 0.67644 0.0
O131 O 0.31321 0.88806 0.68877 0.0
C132 C 0.32796 0.87284 0.69459 0.0
C133 C 0.26395 0.93681 0.66034 0.0
C134 C 0.25856 0.85311 0.66063 0.0
C135 C 0.30362 0.88874 0.59664 0.0
O136 O 0.28584 0.89822 0.60551 0.0
O137 O 0.31568 0.87728 0.61341 0.0
O138 O 0.25135 0.92602 0.64296 0.0
O139 O 0.28114 0.9264 0.67047 0.0
O140 O 0.16963 0.27625 0.66326 0.0
Cd141 Cd 0.14897 0.30388 0.66038 0.0
Cd142 Cd 0.11765 0.27097 0.65383 0.0
O143 O 0.14375 0.24992 0.66601 0.0
O144 O 0.1668 0.32905 0.67678 0.0
O145 O 0.1362 0.31557 0.69695 0.0
C146 C 0.15315 0.32906 0.69787 0.0
C147 C 0.08099 0.2671 0.67115 0.0
C148 C 0.16428 0.25579 0.66672 0.0
C149 C 0.12755 0.30134 0.60394 0.0
O150 O 0.11863 0.28343 0.61322 0.0
O151 O 0.13944 0.31352 0.62012 0.0
O152 O 0.0897 0.25251 0.65433 0.0
O153 O 0.09361 0.28339 0.67959 0.0
O154 O 0.73998 0.16419 0.65357 0.0
Cd155 Cd 0.71245 0.14361 0.64927 0.0
Cd156 Cd 0.74437 0.11237 0.64171 0.0
O157 O 0.76593 0.13783 0.65478 0.0
O158 O 0.68736 0.15787 0.67091 0.0
O159 O 0.70377 0.12618 0.68372 0.0
C160 C 0.68958 0.14199 0.68919 0.0
C161 C 0.74599 0.07572 0.65965 0.0
C162 C 0.76037 0.15842 0.65659 0.0
C163 C 0.71495 0.12453 0.59165 0.0
O164 O 0.7323 0.11455 0.60095 0.0
O165 O 0.70291 0.1363 0.60818 0.0
O166 O 0.76124 0.08333 0.64292 0.0
O167 O 0.73031 0.08934 0.66739 0.0
O168 O 0.84898 0.28 0.36835 0.0
Cd169 Cd 0.86901 0.30788 0.37339 0.0
Cd170 Cd 0.90097 0.27553 0.37864 0.0
O171 O 0.87546 0.2543 0.36511 0.0
O172 O 0.85126 0.33325 0.35723 0.0
O173 O 0.88261 0.32074 0.3379 0.0
C174 C 0.86545 0.33396 0.33671 0.0
C175 C 0.93776 0.27304 0.36127 0.0
C176 C 0.85483 0.25976 0.36417 0.0
C177 C 0.88947 0.30352 0.43031 0.0
O178 O 0.89926 0.28645 0.41994 0.0
O179 O 0.87738 0.31599 0.41472 0.0
O180 O 0.92936 0.25773 0.37727 0.0
O181 O 0.9248 0.28935 0.35377 0.0
O182 O 0.74146 0.85066 0.3792 0.0
Cd183 Cd 0.71505 0.87281 0.38107 0.0
Cd184 Cd 0.74828 0.90302 0.38112 0.0
O185 O 0.76786 0.87549 0.36987 0.0
O186 O 0.68915 0.85844 0.3613 0.0
O187 O 0.70768 0.88776 0.34456 0.0
C188 C 0.69261 0.87243 0.34097 0.0
C189 C 0.75157 0.93838 0.35981 0.0
C190 C 0.76166 0.85516 0.37271 0.0
C191 C 0.72028 0.89747 0.43442 0.0
O192 O 0.73791 0.90496 0.42261 0.0
O193 O 0.70679 0.88504 0.4207 0.0
O194 O 0.76704 0.93057 0.37605 0.0
O195 O 0.73478 0.92547 0.35417 0.0
O196 O 0.16622 0.73896 0.37187 0.0
Cd197 Cd 0.14424 0.71248 0.37631 0.0
Cd198 Cd 0.11428 0.74581 0.37484 0.0
O199 O 0.14141 0.76524 0.36216 0.0
O200 O 0.16039 0.68541 0.36211 0.0
O201 O 0.131 0.70017 0.34052 0.0
C202 C 0.14697 0.6855 0.34077 0.0
C203 C 0.07855 0.74777 0.35459 0.0
C204 C 0.16173 0.75902 0.36478 0.0
C205 C 0.12023 0.7206 0.42979 0.0
O206 O 0.11272 0.73775 0.41701 0.0
O207 O 0.1324 0.70646 0.41674 0.0
O208 O 0.08666 0.76412 0.36917 0.0
O209 O 0.09148 0.73082 0.34963 0.0
O210 O 0.2651 0.16636 0.37612 0.0
Cd211 Cd 0.29459 0.14843 0.37901 0.0
Cd212 Cd 0.266 0.11312 0.38831 0.0
O213 O 0.24242 0.13715 0.37708 0.0
O214 O 0.31779 0.16495 0.35682 0.0
O215 O 0.30408 0.13193 0.34405 0.0
C216 C 0.3168 0.14894 0.33851 0.0
C217 C 0.25942 0.07576 0.3744 0.0
C218 C 0.24544 0.15818 0.37458 0.0
C219 C 0.29694 0.12823 0.43613 0.0
O220 O 0.28073 0.11609 0.42768 0.0
O221 O 0.3063 0.14199 0.41936 0.0
O222 O 0.24715 0.08572 0.39289 0.0
O223 O 0.27539 0.0872 0.36298 0.0
O224 O 0.66105 0.77725 0.87813 0.0
Cd225 Cd 0.63964 0.80409 0.88297 0.0
Cd226 Cd 0.60912 0.7709 0.8823 0.0
O227 O 0.63588 0.75116 0.86884 0.0
O228 O 0.65628 0.83072 0.86827 0.0
O229 O 0.62644 0.81642 0.84715 0.0
C230 C 0.64282 0.83064 0.84698 0.0
C231 C 0.5729 0.76955 0.86319 0.0
C232 C 0.65629 0.75723 0.87105 0.0
C233 C 0.61658 0.7962 0.93715 0.0
O234 O 0.60862 0.77918 0.92447 0.0
O235 O 0.62861 0.81028 0.92383 0.0
O236 O 0.58097 0.75311 0.87761 0.0
O237 O 0.58609 0.78618 0.8577 0.0
O238 O 0.24879 0.66569 0.8745 0.0
Cd239 Cd 0.21938 0.64762 0.87793 0.0
Cd240 Cd 0.24948 0.61242 0.88577 0.0
O241 O 0.27227 0.63709 0.8745 0.0
O242 O 0.1956 0.66706 0.86135 0.0
O243 O 0.20633 0.63498 0.84209 0.0
C244 C 0.19406 0.65283 0.84095 0.0
C245 C 0.25665 0.57533 0.8715 0.0
C246 C 0.26864 0.65805 0.87244 0.0
C247 C 0.21878 0.62585 0.93445 0.0
O248 O 0.23538 0.61449 0.9255 0.0
O249 O 0.20878 0.63951 0.9182 0.0
O250 O 0.26911 0.58555 0.88952 0.0
O251 O 0.24021 0.5864 0.86059 0.0
O252 O 0.35317 0.24003 0.87618 0.0
Cd253 Cd 0.37541 0.2137 0.87787 0.0
Cd254 Cd 0.4055 0.24793 0.88071 0.0
O255 O 0.37777 0.26707 0.86899 0.0
O256 O 0.36105 0.18805 0.85745 0.0
O257 O 0.39062 0.20643 0.8412 0.0
C258 C 0.37517 0.19152 0.83725 0.0
C259 C 0.4421 0.25583 0.86499 0.0
C260 C 0.3575 0.26047 0.87083 0.0
C261 C 0.39824 0.21834 0.93259 0.0
O262 O 0.40592 0.23618 0.92157 0.0
O263 O 0.38635 0.2049 0.91803 0.0
O264 O 0.43127 0.26937 0.88121 0.0
O265 O 0.43155 0.23835 0.85588 0.0
O266 O 0.76634 0.35015 0.86594 0.0
Cd267 Cd 0.79595 0.36801 0.86848 0.0
Cd268 Cd 0.7663 0.40344 0.87823 0.0
O269 O 0.74315 0.37899 0.86722 0.0
O270 O 0.81916 0.35025 0.84765 0.0
O271 O 0.80633 0.38299 0.83276 0.0
C272 C 0.81882 0.36558 0.82847 0.0
C273 C 0.75834 0.44088 0.866 0.0
C274 C 0.74653 0.35801 0.8647 0.0
C275 C 0.79799 0.38882 0.92559 0.0
O276 O 0.78144 0.40052 0.91725 0.0
O277 O 0.80761 0.37522 0.90878 0.0
O278 O 0.74661 0.43007 0.88424 0.0
O279 O 0.77448 0.43023 0.85374 0.0
O280 O 0.6636 0.2512 0.15528 0.0
Cd281 Cd 0.64607 0.22139 0.15151 0.0
Cd282 Cd 0.61052 0.25051 0.15189 0.0
O283 O 0.63486 0.27356 0.16369 0.0
O284 O 0.66635 0.19721 0.16576 0.0
O285 O 0.63532 0.20748 0.18786 0.0
C286 C 0.65328 0.19533 0.18732 0.0
C287 C 0.57388 0.25188 0.17003 0.0
C288 C 0.65592 0.27049 0.16155 0.0
C289 C 0.62059 0.22447 0.09795 0.0
O290 O 0.6105 0.24046 0.11034 0.0
O291 O 0.63499 0.2128 0.11123 0.0
O292 O 0.5817 0.26743 0.15399 0.0
O293 O 0.58744 0.23607 0.1775 0.0
O294 O 0.78066 0.66548 0.16185 0.0
Cd295 Cd 0.80858 0.64561 0.15667 0.0
Cd296 Cd 0.77599 0.61374 0.15015 0.0
O297 O 0.75474 0.63915 0.16417 0.0
O298 O 0.83364 0.66399 0.17248 0.0
O299 O 0.82171 0.63267 0.19236 0.0
C300 C 0.83454 0.65013 0.19328 0.0
C301 C 0.7738 0.5767 0.16683 0.0
C302 C 0.76037 0.65972 0.16571 0.0
C303 C 0.80431 0.62617 0.09912 0.0
O304 O 0.7871 0.61629 0.10899 0.0
O305 O 0.81684 0.63776 0.11525 0.0
O306 O 0.75845 0.58512 0.1509 0.0
O307 O 0.78998 0.58974 0.1746 0.0
O308 O 0.35318 0.76272 0.16055 0.0
Cd309 Cd 0.37254 0.79141 0.15779 0.0
Cd310 Cd 0.40684 0.76088 0.15545 0.0
O311 O 0.38128 0.73925 0.16721 0.0
O312 O 0.35655 0.81608 0.17814 0.0
O313 O 0.38792 0.80047 0.19367 0.0
C314 C 0.37151 0.81432 0.19769 0.0
C315 C 0.44366 0.75355 0.17053 0.0
C316 C 0.36031 0.74308 0.16598 0.0
C317 C 0.3968 0.78971 0.10351 0.0
O318 O 0.40661 0.77305 0.11477 0.0
O319 O 0.38282 0.80124 0.11771 0.0
O320 O 0.43318 0.74037 0.15357 0.0
O321 O 0.43281 0.77058 0.18038 0.0
O322 O 0.23669 0.35126 0.16672 0.0
Cd323 Cd 0.21013 0.37315 0.16324 0.0
Cd324 Cd 0.24374 0.40318 0.15519 0.0
O325 O 0.26383 0.37638 0.16738 0.0
O326 O 0.18458 0.35905 0.18394 0.0
O327 O 0.20158 0.39001 0.19836 0.0
C328 C 0.18695 0.37441 0.2029 0.0
C329 C 0.25177 0.44001 0.16995 0.0
C330 C 0.25737 0.35607 0.16911 0.0
C331 C 0.21288 0.39228 0.10581 0.0
O332 O 0.2307 0.4015 0.11491 0.0
O333 O 0.20051 0.38097 0.12241 0.0
O334 O 0.2647 0.42924 0.1529 0.0
O335 O 0.23455 0.42949 0.17986 0.0
O336 O 0.35061 0.24835 0.15933 0.0
Cd337 Cd 0.36901 0.21915 0.15646 0.0
Cd338 Cd 0.4038 0.24863 0.14664 0.0
O339 O 0.37931 0.27167 0.15825 0.0
O340 O 0.35237 0.19593 0.17843 0.0
O341 O 0.38511 0.20991 0.19177 0.0
C342 C 0.36806 0.19718 0.1971 0.0
C343 C 0.44114 0.25604 0.15984 0.0
C344 C 0.35837 0.26817 0.16094 0.0
C345 C 0.38924 0.21695 0.09923 0.0
O346 O 0.40088 0.23362 0.10742 0.0
O347 O 0.37583 0.20729 0.1162 0.0
O348 O 0.43072 0.26807 0.14156 0.0
O349 O 0.43017 0.23985 0.17151 0.0
O350 O 0.77654 0.35488 0.15146 0.0
Cd351 Cd 0.80326 0.37648 0.14736 0.0
Cd352 Cd 0.76901 0.40714 0.14572 0.0
O353 O 0.74983 0.37981 0.15889 0.0
O354 O 0.82958 0.36 0.16316 0.0
O355 O 0.81476 0.3899 0.1836 0.0
C356 C 0.82899 0.37354 0.18439 0.0
C357 C 0.76246 0.44389 0.16201 0.0
C358 C 0.75628 0.35946 0.15754 0.0
C359 C 0.7968 0.39892 0.09244 0.0
O360 O 0.77945 0.40707 0.10421 0.0
O361 O 0.81045 0.38696 0.10653 0.0
O362 O 0.74818 0.4334 0.14649 0.0
O363 O 0.78004 0.43297 0.17002 0.0
O364 O 0.66488 0.76533 0.1646 0.0
Cd365 Cd 0.64614 0.79436 0.16133 0.0
Cd366 Cd 0.6125 0.76531 0.15272 0.0
O367 O 0.63647 0.74168 0.16372 0.0
O368 O 0.66211 0.81829 0.18292 0.0
O369 O 0.62948 0.80397 0.19609 0.0
C370 C 0.6461 0.81727 0.20122 0.0
C371 C 0.57598 0.76329 0.1708 0.0
C372 C 0.6574 0.74539 0.16615 0.0
C373 C 0.6259 0.79555 0.10415 0.0
O374 O 0.61457 0.77879 0.11268 0.0
O375 O 0.63911 0.80565 0.12095 0.0
O376 O 0.58336 0.74889 0.15278 0.0
O377 O 0.5897 0.77854 0.17956 0.0
O378 O 0.23825 0.66073 0.15918 0.0
Cd379 Cd 0.21156 0.63909 0.15499 0.0
Cd380 Cd 0.24472 0.60871 0.15581 0.0
O381 O 0.26441 0.63569 0.16861 0.0
O382 O 0.18494 0.65589 0.16929 0.0
O383 O 0.19922 0.62635 0.19106 0.0
C384 C 0.18498 0.64271 0.19085 0.0
C385 C 0.24629 0.57282 0.1758 0.0
C386 C 0.2583 0.65607 0.16612 0.0
C387 C 0.21917 0.6155 0.10115 0.0
O388 O 0.23628 0.60766 0.1137 0.0
O389 O 0.20517 0.62763 0.11449 0.0
O390 O 0.26263 0.58071 0.16101 0.0
O391 O 0.22961 0.58602 0.18106 0.0
O392 O 0.35127 0.7801 0.87575 0.0
Cd393 Cd 0.3733 0.80644 0.87965 0.0
Cd394 Cd 0.4032 0.77292 0.8872 0.0
O395 O 0.37646 0.75307 0.87398 0.0
O396 O 0.36007 0.83182 0.85782 0.0
O397 O 0.39096 0.81389 0.84489 0.0
C398 C 0.37563 0.8286 0.8393 0.0
C399 C 0.44006 0.765 0.87239 0.0
C400 C 0.35614 0.75951 0.87246 0.0
C401 C 0.39206 0.80337 0.93711 0.0
O402 O 0.40127 0.7856 0.92776 0.0
O403 O 0.38088 0.81594 0.92062 0.0
O404 O 0.42928 0.75193 0.8892 0.0
O405 O 0.42958 0.78236 0.86283 0.0
O406 O 0.24964 0.35353 0.88077 0.0
Cd407 Cd 0.22035 0.37175 0.88532 0.0
Cd408 Cd 0.24931 0.40661 0.88473 0.0
O409 O 0.27204 0.38218 0.87236 0.0
O410 O 0.19557 0.35292 0.86982 0.0
O411 O 0.20718 0.38432 0.84965 0.0
C412 C 0.19438 0.36681 0.84902 0.0
C413 C 0.25046 0.44283 0.86555 0.0
C414 C 0.26888 0.36112 0.87418 0.0
C415 C 0.22382 0.39684 0.93899 0.0
O416 O 0.23975 0.40695 0.92652 0.0
O417 O 0.2121 0.38247 0.92572 0.0
O418 O 0.2662 0.43534 0.88154 0.0
O419 O 0.23445 0.42922 0.85895 0.0
O420 O 0.66317 0.23669 0.86882 0.0
Cd421 Cd 0.64165 0.20996 0.87296 0.0
Cd422 Cd 0.61171 0.24298 0.88099 0.0
O423 O 0.63779 0.26358 0.86736 0.0
O424 O 0.65564 0.18469 0.85145 0.0
O425 O 0.62446 0.20179 0.83809 0.0
C426 C 0.64015 0.18743 0.83276 0.0
C427 C 0.57491 0.24559 0.86361 0.0
C428 C 0.65815 0.25725 0.86557 0.0
C429 C 0.62341 0.21318 0.93085 0.0
O430 O 0.61411 0.23098 0.92177 0.0
O431 O 0.63429 0.20055 0.91405 0.0
O432 O 0.58317 0.26074 0.88003 0.0
O433 O 0.58797 0.22942 0.85587 0.0
O434 O 0.76341 0.66331 0.87534 0.0
Cd435 Cd 0.79263 0.64482 0.87817 0.0
Cd436 Cd 0.76357 0.61026 0.87948 0.0
O437 O 0.74064 0.63476 0.86781 0.0
O438 O 0.81688 0.66164 0.85802 0.0
O439 O 0.80216 0.62991 0.8422 0.0
C440 C 0.81548 0.64675 0.83829 0.0
C441 C 0.76219 0.57379 0.86083 0.0
C442 C 0.74397 0.65581 0.86954 0.0
C443 C 0.79075 0.62055 0.93237 0.0
O444 O 0.77437 0.61049 0.92078 0.0
O445 O 0.80232 0.63457 0.91832 0.0
O446 O 0.7468 0.58132 0.87739 0.0
O447 O 0.77787 0.5875 0.85334 0.0
H448 H 0.24589 0.20359 0.36879 0.0
H449 H 0.20084 0.14701 0.37308 0.0
H450 H 0.16865 0.17231 0.37118 0.0
H451 H 0.15325 0.21073 0.37113 0.0
H452 H 0.19872 0.26704 0.36779 0.0
H453 H 0.23063 0.2416 0.36631 0.0
C454 C 0.22905 0.19672 0.36912 0.0
C455 C 0.22588 0.17339 0.37126 0.0
C456 C 0.2106 0.21135 0.36828 0.0
C457 C 0.20386 0.16488 0.37153 0.0
C458 C 0.1854 0.17935 0.37049 0.0
C459 C 0.17012 0.21743 0.36977 0.0
C460 C 0.17351 0.24081 0.36975 0.0
C461 C 0.18856 0.20266 0.36926 0.0
C462 C 0.19555 0.24915 0.36803 0.0
C463 C 0.21387 0.2346 0.3672 0.0
H464 H 0.76803 0.19965 0.35719 0.0
H465 H 0.81733 0.14671 0.3603 0.0
H466 H 0.84747 0.17451 0.35944 0.0
H467 H 0.85977 0.21407 0.36088 0.0
H468 H 0.80993 0.2666 0.35804 0.0
H469 H 0.78022 0.23873 0.35557 0.0
C470 C 0.78536 0.19412 0.35749 0.0
C471 C 0.79034 0.17108 0.35904 0.0
C472 C 0.80259 0.21016 0.35716 0.0
C473 C 0.81295 0.16431 0.35916 0.0
C474 C 0.83023 0.18022 0.35875 0.0
C475 C 0.84243 0.21943 0.35943 0.0
C476 C 0.83719 0.24247 0.35989 0.0
C477 C 0.82525 0.20323 0.3582 0.0
C478 C 0.81456 0.24904 0.35794 0.0
C479 C 0.79748 0.23309 0.35654 0.0
H480 H 0.81797 0.76561 0.37101 0.0
H481 H 0.87265 0.81262 0.36304 0.0
H482 H 0.846 0.84373 0.36146 0.0
H483 H 0.80716 0.85778 0.36504 0.0
H484 H 0.75286 0.81033 0.37368 0.0
H485 H 0.77938 0.77935 0.37218 0.0
C486 C 0.82412 0.78263 0.36871 0.0
C487 C 0.84734 0.7867 0.36731 0.0
C488 C 0.80874 0.80046 0.36807 0.0
C489 C 0.85489 0.80892 0.36422 0.0
C490 C 0.83965 0.82677 0.36338 0.0
C491 C 0.80111 0.84066 0.36636 0.0
C492 C 0.778 0.8365 0.36967 0.0
C493 C 0.81653 0.82277 0.3657 0.0
C494 C 0.77052 0.81414 0.37131 0.0
C495 C 0.78569 0.79634 0.37046 0.0
H496 H 0.15913 0.80462 0.35808 0.0
H497 H 0.20652 0.75006 0.36424 0.0
H498 H 0.23754 0.77656 0.3635 0.0
H499 H 0.25132 0.81514 0.36407 0.0
H500 H 0.20441 0.87009 0.35847 0.0
H501 H 0.17324 0.84353 0.35584 0.0
C502 C 0.17624 0.79851 0.35895 0.0
C503 C 0.18039 0.77532 0.36142 0.0
C504 C 0.19416 0.81392 0.35879 0.0
C505 C 0.20273 0.76777 0.36252 0.0
C506 C 0.22055 0.78293 0.36213 0.0
C507 C 0.2343 0.82137 0.3621 0.0
C508 C 0.23027 0.84463 0.36169 0.0
C509 C 0.21646 0.80604 0.36077 0.0
C510 C 0.20806 0.8523 0.3589 0.0
C511 C 0.19019 0.83711 0.35745 0.0
H512 H 0.20153 0.7643 0.66823 0.0
H513 H 0.14704 0.81143 0.65936 0.0
H514 H 0.17367 0.8426 0.66043 0.0
H515 H 0.21272 0.85631 0.66082 0.0
H516 H 0.26689 0.80867 0.66912 0.0
H517 H 0.24005 0.77799 0.67145 0.0
C518 C 0.19539 0.78138 0.66673 0.0
C519 C 0.17228 0.78544 0.6635 0.0
C520 C 0.21078 0.7992 0.66712 0.0
C521 C 0.16471 0.80775 0.66181 0.0
C522 C 0.17995 0.82561 0.66233 0.0
C523 C 0.21866 0.83925 0.66341 0.0
C524 C 0.24187 0.83488 0.66456 0.0
C525 C 0.20308 0.82152 0.66452 0.0
C526 C 0.24918 0.81261 0.66797 0.0
C527 C 0.23383 0.79499 0.6693 0.0
H528 H 0.25243 0.19748 0.67176 0.0
H529 H 0.20427 0.14347 0.67022 0.0
H530 H 0.17354 0.17064 0.67138 0.0
H531 H 0.16036 0.20996 0.66995 0.0
H532 H 0.20915 0.26352 0.67122 0.0
H533 H 0.23945 0.23629 0.67313 0.0
C534 C 0.23523 0.19157 0.67186 0.0
C535 C 0.23074 0.16842 0.6707 0.0
C536 C 0.21766 0.20726 0.67234 0.0
C537 C 0.20828 0.16117 0.67108 0.0
C538 C 0.19067 0.17672 0.67165 0.0
C539 C 0.17761 0.21568 0.67089 0.0
C540 C 0.18236 0.23884 0.6702 0.0
C541 C 0.19515 0.19984 0.67185 0.0
C542 C 0.20487 0.24586 0.67152 0.0
C543 C 0.2223 0.23028 0.67261 0.0
H544 H 0.80615 0.1537 0.65833 0.0
H545 H 0.75343 0.20323 0.66372 0.0
H546 H 0.78117 0.23305 0.66607 0.0
H547 H 0.82016 0.24547 0.66385 0.0
H548 H 0.8733 0.19652 0.65829 0.0
H549 H 0.84567 0.16621 0.659 0.0
C550 C 0.80073 0.171 0.66029 0.0
C551 C 0.77765 0.17612 0.6606 0.0
C552 C 0.81685 0.18826 0.66148 0.0
C553 C 0.77101 0.19868 0.66322 0.0
C554 C 0.78689 0.21583 0.66456 0.0
C555 C 0.82577 0.22818 0.66296 0.0
C556 C 0.84881 0.22335 0.66079 0.0
C557 C 0.80982 0.21086 0.66323 0.0
C558 C 0.85569 0.20079 0.65992 0.0
C559 C 0.83988 0.18342 0.66024 0.0
H560 H 0.81391 0.76969 0.67385 0.0
H561 H 0.8682 0.81652 0.66135 0.0
H562 H 0.84168 0.84777 0.66274 0.0
H563 H 0.80267 0.86161 0.66442 0.0
H564 H 0.74869 0.81426 0.67641 0.0
H565 H 0.77552 0.78356 0.67846 0.0
C566 C 0.82002 0.78672 0.67161 0.0
C567 C 0.84304 0.79066 0.66728 0.0
C568 C 0.80469 0.8046 0.67223 0.0
C569 C 0.85059 0.81293 0.66465 0.0
C570 C 0.83541 0.83084 0.66537 0.0
C571 C 0.79679 0.84461 0.66779 0.0
C572 C 0.77361 0.84033 0.67002 0.0
C573 C 0.81236 0.82685 0.66871 0.0
C574 C 0.76636 0.81814 0.67441 0.0
C575 C 0.78171 0.8005 0.67557 0.0
H576 H 0.6536 0.71151 0.86501 0.0
H577 H 0.701 0.76623 0.86853 0.0
H578 H 0.73204 0.73982 0.86687 0.0
H579 H 0.74596 0.70131 0.86737 0.0
H580 H 0.69914 0.64616 0.86431 0.0
H581 H 0.66781 0.67259 0.86263 0.0
C582 C 0.67072 0.71767 0.86509 0.0
C583 C 0.67486 0.74088 0.86712 0.0
C584 C 0.68868 0.7023 0.86439 0.0
C585 C 0.6972 0.7485 0.8672 0.0
C586 C 0.71505 0.73339 0.86628 0.0
C587 C 0.72892 0.695 0.86617 0.0
C588 C 0.72498 0.67174 0.8662 0.0
C589 C 0.711 0.71026 0.86537 0.0
C590 C 0.70274 0.66397 0.86439 0.0
C591 C 0.68477 0.67909 0.86349 0.0
H592 H 0.26678 0.70327 0.86518 0.0
H593 H 0.3136 0.64838 0.8728 0.0
H594 H 0.34493 0.67476 0.8717 0.0
H595 H 0.35896 0.71367 0.87157 0.0
H596 H 0.31173 0.7683 0.86453 0.0
H597 H 0.28079 0.74174 0.86226 0.0
C598 C 0.28383 0.697 0.86641 0.0
C599 C 0.28774 0.67384 0.86928 0.0
C600 C 0.30178 0.71226 0.86598 0.0
C601 C 0.31002 0.6661 0.87064 0.0
C602 C 0.32798 0.6812 0.87008 0.0
C603 C 0.34193 0.71976 0.86925 0.0
C604 C 0.33775 0.74301 0.86845 0.0
C605 C 0.32406 0.70435 0.8682 0.0
C606 C 0.31552 0.75055 0.86541 0.0
C607 C 0.29775 0.73535 0.86412 0.0
H608 H 0.35952 0.30624 0.8654 0.0
H609 H 0.31279 0.25104 0.87085 0.0
H610 H 0.28147 0.27717 0.87096 0.0
H611 H 0.26721 0.31558 0.87218 0.0
H612 H 0.31343 0.37113 0.86701 0.0
H613 H 0.34491 0.34499 0.86392 0.0
C614 C 0.34248 0.29991 0.86635 0.0
C615 C 0.33863 0.27665 0.86833 0.0
C616 C 0.32438 0.3151 0.86659 0.0
C617 C 0.31638 0.26882 0.86949 0.0
C618 C 0.29838 0.28376 0.86958 0.0
C619 C 0.28414 0.32203 0.87021 0.0
C620 C 0.28788 0.34533 0.87004 0.0
C621 C 0.30218 0.30693 0.86858 0.0
C622 C 0.30999 0.35329 0.86725 0.0
C623 C 0.32805 0.33834 0.86555 0.0
H624 H 0.65564 0.30318 0.86616 0.0
H625 H 0.70221 0.24834 0.85541 0.0
H626 H 0.73328 0.27466 0.85261 0.0
H627 H 0.74772 0.31291 0.85608 0.0
H628 H 0.70168 0.36808 0.86734 0.0
H629 H 0.67007 0.34201 0.86683 0.0
C630 C 0.67255 0.29701 0.8629 0.0
C631 C 0.6765 0.27375 0.86123 0.0
C632 C 0.69054 0.31229 0.86154 0.0
C633 C 0.69859 0.2661 0.857 0.0
C634 C 0.71644 0.28115 0.8554 0.0
C635 C 0.73078 0.31931 0.85823 0.0
C636 C 0.72718 0.34245 0.86195 0.0
C637 C 0.71268 0.30424 0.85813 0.0
C638 C 0.70503 0.35036 0.86451 0.0
C639 C 0.6869 0.33545 0.86429 0.0
H640 H 0.70147 0.26909 0.16278 0.0
H641 H 0.6458 0.31522 0.16705 0.0
H642 H 0.67185 0.3469 0.16781 0.0
H643 H 0.71056 0.36159 0.16431 0.0
H644 H 0.76578 0.31483 0.15972 0.0
H645 H 0.73979 0.28349 0.16216 0.0
C646 C 0.69497 0.28605 0.16407 0.0
C647 C 0.67166 0.28969 0.16464 0.0
C648 C 0.71001 0.30418 0.16432 0.0
C649 C 0.66364 0.31185 0.16654 0.0
C650 C 0.67855 0.33001 0.16689 0.0
C651 C 0.71692 0.34456 0.16411 0.0
C652 C 0.74016 0.3407 0.16159 0.0
C653 C 0.70179 0.3264 0.16535 0.0
C654 C 0.74803 0.31843 0.16143 0.0
C655 C 0.73316 0.30041 0.16282 0.0
H656 H 0.71451 0.65589 0.16475 0.0
H657 H 0.76795 0.70382 0.17699 0.0
H658 H 0.74078 0.73415 0.17989 0.0
H659 H 0.70225 0.74761 0.17583 0.0
H660 H 0.64843 0.7003 0.16302 0.0
H661 H 0.67529 0.66932 0.16372 0.0
C662 C 0.72018 0.67293 0.16838 0.0
C663 C 0.74331 0.6775 0.17039 0.0
C664 C 0.70441 0.6905 0.16976 0.0
C665 C 0.75031 0.69974 0.17511 0.0
C666 C 0.73477 0.71717 0.17676 0.0
C667 C 0.69631 0.73053 0.17338 0.0
C668 C 0.67334 0.72638 0.16915 0.0
C669 C 0.71184 0.71282 0.17359 0.0
C670 C 0.66601 0.70406 0.16625 0.0
C671 C 0.68138 0.6863 0.16657 0.0
H672 H 0.30391 0.6533 0.17249 0.0
H673 H 0.24948 0.7009 0.1671 0.0
H674 H 0.27607 0.73185 0.16799 0.0
H675 H 0.31473 0.74554 0.16745 0.0
H676 H 0.36946 0.69832 0.17236 0.0
H677 H 0.34282 0.66727 0.17467 0.0
C678 C 0.29785 0.67044 0.17182 0.0
C679 C 0.27468 0.67467 0.16953 0.0
C680 C 0.3133 0.68832 0.17208 0.0
C681 C 0.26718 0.69705 0.16868 0.0
C682 C 0.28239 0.71483 0.16916 0.0
C683 C 0.32088 0.72848 0.1692 0.0
C684 C 0.34411 0.72435 0.16952 0.0
C685 C 0.30549 0.71067 0.17037 0.0
C686 C 0.35169 0.70207 0.17199 0.0
C687 C 0.33646 0.68425 0.17327 0.0
H688 H 0.30316 0.35872 0.16627 0.0
H689 H 0.24885 0.3117 0.17791 0.0
H690 H 0.27535 0.28064 0.17771 0.0
H691 H 0.31353 0.26648 0.17144 0.0
H692 H 0.36806 0.3131 0.15928 0.0
H693 H 0.3419 0.34453 0.16262 0.0
C694 C 0.29713 0.34171 0.16908 0.0
C695 C 0.27397 0.33763 0.17191 0.0
C696 C 0.31249 0.32376 0.16866 0.0
C697 C 0.26653 0.31541 0.17552 0.0
C698 C 0.28168 0.29757 0.17537 0.0
C699 C 0.31977 0.2835 0.16965 0.0
C700 C 0.34275 0.28734 0.16489 0.0
C701 C 0.30464 0.30151 0.17146 0.0
C702 C 0.35047 0.30958 0.16287 0.0
C703 C 0.3355 0.32761 0.16474 0.0
H704 H 0.96732 0.23906 0.36942 0.0
H705 H 0.96293 0.30675 0.33795 0.0
H706 H 1.00381 0.30842 0.33395 0.0
H707 H 0.04099 0.29207 0.34466 0.0
H708 H 0.04473 0.22454 0.37706 0.0
H709 H 1.00405 0.22137 0.3751 0.0
C710 C 0.97525 0.25408 0.36128 0.0
C711 C 0.96205 0.27283 0.3543 0.0
C712 C 0.99875 0.25503 0.35939 0.0
C713 C 0.97265 0.29208 0.34355 0.0
C714 C 0.99607 0.29309 0.34139 0.0
C715 C 0.03293 0.27651 0.35075 0.0
C716 C 0.04596 0.25866 0.36127 0.0
C717 C 0.00934 0.27488 0.35001 0.0
C718 C 0.03518 0.23863 0.36909 0.0
C719 C 0.01186 0.23679 0.36806 0.0
H720 H 0.73244 0.0405 0.33565 0.0
H721 H 0.79929 0.04602 0.3698 0.0
H722 H 0.80286 1.00534 0.37016 0.0
H723 H 0.78549 0.96831 0.36635 0.0
H724 H 0.7183 0.96221 0.33355 0.0
H725 H 0.71654 1.00282 0.32669 0.0
C726 C 0.74795 0.0328 0.34259 0.0
C727 C 0.76547 0.04634 0.35297 0.0
C728 C 0.74978 0.00923 0.34327 0.0
C729 C 0.78545 0.03605 0.36194 0.0
C730 C 0.78751 0.01274 0.36222 0.0
C731 C 0.77057 0.97579 0.35725 0.0
C732 C 0.75197 0.96222 0.3508 0.0
C733 C 0.76953 0.99917 0.35382 0.0
C734 C 0.73286 0.97223 0.33882 0.0
C735 C 0.7318 0.9955 0.33502 0.0
H736 H 0.04853 0.78157 0.36068 0.0
H737 H 0.05402 0.71291 0.33275 0.0
H738 H 0.01313 0.71018 0.32994 0.0
H739 H 0.97577 0.72591 0.34151 0.0
H740 H 0.97113 0.79421 0.37124 0.0
H741 H 0.01159 0.79846 0.36703 0.0
C742 C 0.04084 0.7661 0.35348 0.0
C743 C 0.05435 0.7474 0.34725 0.0
C744 C 0.01736 0.7645 0.35254 0.0
C745 C 0.04405 0.72757 0.33775 0.0
C746 C 0.02063 0.72595 0.33632 0.0
C747 C 0.98359 0.74185 0.34651 0.0
C748 C 0.97043 0.75962 0.35699 0.0
C749 C 1.00709 0.74409 0.34457 0.0
C750 C 0.98084 0.78016 0.36341 0.0
C751 C 1.00403 0.78263 0.36105 0.0
H752 H 0.23387 0.97357 0.37323 0.0
H753 H 0.29906 0.96818 0.33435 0.0
H754 H 0.30198 0.00913 0.33274 0.0
H755 H 0.28763 0.04644 0.3473 0.0
H756 H 0.22294 0.05081 0.38786 0.0
H757 H 0.21823 0.01041 0.38375 0.0
C758 C 0.2486 0.9813 0.36399 0.0
C759 C 0.2663 0.96778 0.35416 0.0
C760 C 0.25037 1.00477 0.36371 0.0
C761 C 0.28518 0.97816 0.34212 0.0
C762 C 0.28692 1.0016 0.34134 0.0
C763 C 0.27237 0.03857 0.35481 0.0
C764 C 0.25577 0.05166 0.36814 0.0
C765 C 0.26988 0.01509 0.35282 0.0
C766 C 0.23609 0.04117 0.37778 0.0
C767 C 0.23336 0.01802 0.37545 0.0
H768 H 0.04444 0.78096 0.65122 0.0
H769 H 0.05037 0.71622 0.69098 0.0
H770 H 0.00957 0.71448 0.69659 0.0
H771 H 0.97191 0.72982 0.68571 0.0
H772 H 0.96683 0.79426 0.64481 0.0
H773 H 1.00749 0.79768 0.64439 0.0
C774 C 0.03687 0.76656 0.66144 0.0
C775 C 0.05046 0.74866 0.6704 0.0
C776 C 0.01346 0.76555 0.66423 0.0
C777 C 0.04033 0.73023 0.68382 0.0
C778 C 0.01697 0.72918 0.68692 0.0
C779 C 0.97971 0.74476 0.67717 0.0
C780 C 0.96629 0.76166 0.66507 0.0
C781 C 1.0033 0.74651 0.67656 0.0
C782 C 0.9767 0.78091 0.65404 0.0
C783 C 1.0 0.78288 0.65374 0.0
H784 H 0.29136 0.9672 0.68675 0.0
H785 H 0.22652 0.96055 0.64717 0.0
H786 H 0.22072 1.00087 0.65063 0.0
H787 H 0.23549 0.03831 0.6602 0.0
H788 H 0.30069 0.04579 0.69842 0.0
H789 H 0.30471 1.00497 0.70062 0.0
C790 C 0.27582 0.97454 0.67933 0.0
C791 C 0.25951 0.96083 0.66645 0.0
C792 C 0.27268 0.99796 0.68097 0.0
C793 C 0.23946 0.97066 0.65694 0.0
C794 C 0.23611 0.99377 0.65888 0.0
C795 C 0.25046 0.03106 0.66944 0.0
C796 C 0.26784 0.04514 0.67889 0.0
C797 C 0.25283 1.00763 0.67013 0.0
C798 C 0.28704 0.03538 0.69093 0.0
C799 C 0.28941 0.01201 0.69205 0.0
H800 H 0.05201 0.23313 0.66023 0.0
H801 H 0.05516 0.29936 0.6967 0.0
H802 H 0.01421 0.30025 0.70032 0.0
H803 H 0.97732 0.28381 0.68802 0.0
H804 H 0.97495 0.21787 0.65044 0.0
H805 H 0.01565 0.21525 0.65263 0.0
C806 C 0.0438 0.24766 0.66937 0.0
C807 C 0.05667 0.26624 0.6779 0.0
C808 C 0.02028 0.24819 0.67098 0.0
C809 C 0.0457 0.28482 0.68991 0.0
C810 C 0.02224 0.28539 0.69184 0.0
C811 C 0.98569 0.26871 0.68082 0.0
C812 C 0.97304 0.25116 0.66881 0.0
C813 C 0.00931 0.26741 0.68171 0.0
C814 C 0.98421 0.23172 0.65955 0.0
C815 C 1.00754 0.2302 0.66073 0.0
H816 H 0.77762 0.04412 0.64857 0.0
H817 H 0.71302 0.053 0.68804 0.0
H818 H 0.70989 0.01246 0.69484 0.0
H819 H 0.72387 0.97415 0.68516 0.0
H820 H 0.78822 0.96585 0.64473 0.0
H821 H 0.7931 1.00637 0.64303 0.0
C822 C 0.76297 0.03725 0.65901 0.0
C823 C 0.7455 0.05161 0.66752 0.0
C824 C 0.76114 0.01392 0.66254 0.0
C825 C 0.72671 0.04237 0.68118 0.0
C826 C 0.72486 0.01914 0.68499 0.0
C827 C 0.73913 0.9812 0.67645 0.0
C828 C 0.75555 0.96691 0.66487 0.0
C829 C 0.74173 1.00469 0.67512 0.0
C830 C 0.77521 0.97639 0.65362 0.0
C831 C 0.77802 0.99961 0.65256 0.0
H832 H 0.54176 0.73724 0.8728 0.0
H833 H 0.54917 0.804 0.8391 0.0
H834 H 0.50837 0.80773 0.83608 0.0
H835 H 0.47054 0.79355 0.84822 0.0
H836 H 0.4639 0.7272 0.88357 0.0
H837 H 0.50431 0.7218 0.88054 0.0
C838 C 0.53451 0.75249 0.86434 0.0
C839 C 0.54857 0.77037 0.85643 0.0
C840 C 0.51107 0.7547 0.86324 0.0
C841 C 0.5388 0.78996 0.8454 0.0
C842 C 0.51543 0.79216 0.84382 0.0
C843 C 0.47791 0.77778 0.85479 0.0
C844 C 0.46416 0.7609 0.86636 0.0
C845 C 0.50137 0.77488 0.85346 0.0
C846 C 0.47403 0.74057 0.87481 0.0
C847 C 0.49719 0.73745 0.87312 0.0
H848 H 0.28319 0.4736 0.87358 0.0
H849 H 0.21604 0.46639 0.84105 0.0
H850 H 0.21282 0.5072 0.83679 0.0
H851 H 0.22758 0.54507 0.84791 0.0
H852 H 0.29429 0.55134 0.88232 0.0
H853 H 0.29919 0.51086 0.88002 0.0
C854 C 0.26794 0.48089 0.86513 0.0
C855 C 0.2498 0.46695 0.85795 0.0
C856 C 0.26605 0.50429 0.86333 0.0
C857 C 0.23026 0.47672 0.84681 0.0
C858 C 0.22836 0.50008 0.84452 0.0
C859 C 0.24332 0.53758 0.85437 0.0
C860 C 0.26044 0.55122 0.86555 0.0
C861 C 0.24591 0.51408 0.85355 0.0
C862 C 0.28074 0.54125 0.87391 0.0
C863 C 0.28358 0.51806 0.87264 0.0
H864 H 0.47224 0.22637 0.84187 0.0
H865 H 0.46696 0.29271 0.8778 0.0
H866 H 0.50766 0.29619 0.87803 0.0
H867 H 0.54474 0.27896 0.873 0.0
H868 H 0.55054 0.21246 0.83782 0.0
H869 H 0.50982 0.21062 0.83206 0.0
C870 C 0.47998 0.24176 0.8492 0.0
C871 C 0.46648 0.25916 0.86004 0.0
C872 C 0.50356 0.24355 0.84972 0.0
C873 C 0.47687 0.27897 0.86951 0.0
C874 C 0.5002 0.28097 0.86975 0.0
C875 C 0.53715 0.26416 0.8637 0.0
C876 C 0.55071 0.24579 0.85615 0.0
C877 C 0.51371 0.26313 0.86071 0.0
C878 C 0.54055 0.22684 0.84392 0.0
C879 C 0.51722 0.22574 0.84071 0.0
H880 H 0.78576 0.47183 0.84071 0.0
H881 H 0.72126 0.46438 0.881 0.0
H882 H 0.71572 0.50481 0.87984 0.0
H883 H 0.73068 0.54236 0.87214 0.0
H884 H 0.79564 0.55072 0.83352 0.0
H885 H 0.79932 0.50998 0.82884 0.0
C886 C 0.77034 0.47905 0.84876 0.0
C887 C 0.75406 0.46507 0.86118 0.0
C888 C 0.76739 0.50252 0.84852 0.0
C889 C 0.73418 0.47472 0.87158 0.0
C890 C 0.73098 0.49788 0.87096 0.0
C891 C 0.74553 0.53534 0.8623 0.0
C892 C 0.76294 0.5496 0.85345 0.0
C893 C 0.74772 0.51196 0.86021 0.0
C894 C 0.78198 0.54015 0.84058 0.0
C895 C 0.78415 0.51682 0.83804 0.0
H896 H 0.47146 0.22822 0.18568 0.0
H897 H 0.4651 0.29316 0.14634 0.0
H898 H 0.50547 0.29863 0.14929 0.0
H899 H 0.54278 0.28359 0.15832 0.0
H900 H 0.55015 0.21816 0.19587 0.0
H901 H 0.5093 0.21447 0.19882 0.0
C902 C 0.4789 0.2437 0.17821 0.0
C903 C 0.46525 0.26015 0.16555 0.0
C904 C 0.50235 0.24663 0.17949 0.0
C905 C 0.47518 0.28011 0.15592 0.0
C906 C 0.49831 0.28328 0.15758 0.0
C907 C 0.53551 0.26863 0.16757 0.0
C908 C 0.54955 0.2511 0.17662 0.0
C909 C 0.51209 0.26643 0.1686 0.0
C910 C 0.53977 0.23192 0.1887 0.0
C911 C 0.51638 0.22974 0.19023 0.0
H912 H 0.74005 0.54689 0.1582 0.0
H913 H 0.80756 0.55163 0.19023 0.0
H914 H 0.80932 0.51076 0.19451 0.0
H915 H 0.79299 0.47343 0.1843 0.0
H916 H 0.72558 0.46937 0.15156 0.0
H917 H 0.72245 0.51007 0.15274 0.0
C918 C 0.75506 0.53905 0.16649 0.0
C919 C 0.77372 0.55235 0.1736 0.0
C920 C 0.75604 0.51555 0.16861 0.0
C921 C 0.79295 0.54184 0.18453 0.0
C922 C 0.79401 0.51842 0.18687 0.0
C923 C 0.77747 0.48143 0.17794 0.0
C924 C 0.75963 0.46827 0.1676 0.0
C925 C 0.77585 0.50505 0.17828 0.0
C926 C 0.73965 0.479 0.15942 0.0
C927 C 0.73785 0.50234 0.16 0.0
H928 H 0.47372 0.78313 0.19343 0.0
H929 H 0.46824 0.7164 0.15869 0.0
H930 H 0.50888 0.71272 0.1586 0.0
H931 H 0.54588 0.72991 0.16295 0.0
H932 H 0.55214 0.79679 0.19676 0.0
H933 H 0.51142 0.79882 0.20301 0.0
C934 C 0.48143 0.76763 0.18642 0.0
C935 C 0.46793 0.75018 0.17577 0.0
C936 C 0.50498 0.76571 0.18595 0.0
C937 C 0.47819 0.73019 0.16674 0.0
C938 C 0.50148 0.72806 0.1666 0.0
C939 C 0.53839 0.74483 0.17206 0.0
C940 C 0.552 0.76327 0.17902 0.0
C941 C 0.51503 0.74597 0.17527 0.0
C942 C 0.54204 0.78237 0.19113 0.0
C943 C 0.51873 0.78358 0.19458 0.0
H944 H 0.22303 0.47061 0.19355 0.0
H945 H 0.28955 0.46384 0.15861 0.0
H946 H 0.29468 0.50432 0.16068 0.0
H947 H 0.27891 0.54179 0.16727 0.0
H948 H 0.21196 0.54929 0.2005 0.0
H949 H 0.20855 0.50853 0.20469 0.0
C950 C 0.23879 0.47797 0.1869 0.0
C951 C 0.25578 0.46416 0.17568 0.0
C952 C 0.24152 0.50147 0.18763 0.0
C953 C 0.27609 0.47402 0.1671 0.0
C954 C 0.27906 0.49722 0.16823 0.0
C955 C 0.26368 0.53458 0.17589 0.0
C956 C 0.24565 0.54863 0.1833 0.0
C957 C 0.26166 0.51114 0.17767 0.0
C958 C 0.22611 0.53891 0.19456 0.0
C959 C 0.2241 0.51556 0.19681 0.0
H960 H 0.13808 0.32274 0.47419 0.0
H961 H 0.08251 0.27641 0.47047 0.0
H962 H 0.0806 0.27556 0.52165 0.0
H963 H 0.09704 0.28461 0.56729 0.0
H964 H 0.15299 0.33029 0.57219 0.0
H965 H 0.15222 0.33496 0.52092 0.0
C966 C 0.12529 0.31283 0.4846 0.0
C967 C 0.11064 0.29945 0.46844 0.0
C968 C 0.12448 0.31209 0.51431 0.0
C969 C 0.09418 0.28666 0.48232 0.0
C970 C 0.09307 0.28612 0.51164 0.0
C971 C 0.10894 0.29579 0.55723 0.0
C972 C 0.12523 0.30684 0.57356 0.0
C973 C 0.10855 0.2982 0.52782 0.0
C974 C 0.1403 0.32151 0.56015 0.0
C975 C 0.13993 0.32412 0.53078 0.0
H976 H 0.73053 0.09435 0.55377 0.0
H977 H 0.68927 0.15353 0.56029 0.0
H978 H 0.68703 0.1557 0.5088 0.0
H979 H 0.70039 0.14295 0.46183 0.0
H980 H 0.74208 0.08384 0.45669 0.0
H981 H 0.74037 0.07946 0.50753 0.0
C982 C 0.7208 0.10759 0.54398 0.0
C983 C 0.71032 0.12389 0.5609 0.0
C984 C 0.71981 0.10887 0.51448 0.0
C985 C 0.69753 0.14074 0.5478 0.0
C986 C 0.69636 0.14207 0.51832 0.0
C987 C 0.70877 0.12892 0.47181 0.0
C988 C 0.72162 0.11396 0.45536 0.0
C989 C 0.70795 0.12656 0.5014 0.0
C990 C 0.73232 0.09582 0.46873 0.0
C991 C 0.73138 0.09326 0.49789 0.0
H992 H 0.87197 0.70114 0.47269 0.0
H993 H 0.93427 0.73775 0.46659 0.0
H994 H 0.93764 0.73806 0.51766 0.0
H995 H 0.92113 0.73172 0.56397 0.0
H996 H 0.85856 0.69591 0.57132 0.0
H997 H 0.85727 0.69121 0.52003 0.0
C998 C 0.88648 0.7088 0.48253 0.0
C999 C 0.90269 0.71966 0.46572 0.0
C1000 C 0.88819 0.70926 0.5122 0.0
C1001 C 0.92139 0.72951 0.47891 0.0
C1002 C 0.92335 0.72973 0.50818 0.0
C1003 C 0.90731 0.72264 0.55444 0.0
C1004 C 0.88983 0.71444 0.57148 0.0
C1005 C 0.90654 0.72028 0.52502 0.0
C1006 C 0.87224 0.70244 0.55873 0.0
C1007 C 0.87143 0.69986 0.52936 0.0
H1008 H 0.28826 0.91883 0.55867 0.0
H1009 H 0.33015 0.86015 0.56565 0.0
H1010 H 0.3331 0.8581 0.51419 0.0
H1011 H 0.32021 0.87079 0.46701 0.0
H1012 H 0.27792 0.92945 0.46148 0.0
H1013 H 0.27888 0.9337 0.51236 0.0
C1014 C 0.29829 0.90573 0.54899 0.0
C1015 C 0.30873 0.88952 0.56601 0.0
C1016 C 0.29969 0.90452 0.51951 0.0
C1017 C 0.32191 0.87286 0.55307 0.0
C1018 C 0.32348 0.87159 0.52361 0.0
C1019 C 0.31153 0.8847 0.47692 0.0
C1020 C 0.29873 0.89955 0.46033 0.0
C1021 C 0.31192 0.887 0.50655 0.0
C1022 C 0.28764 0.91753 0.47362 0.0
C1023 C 0.28816 0.92002 0.50281 0.0
H1024 H 0.1429 0.69513 0.4685 0.0
H1025 H 0.08759 0.74137 0.45998 0.0
H1026 H 0.08302 0.74246 0.51091 0.0
H1027 H 0.0969 0.73342 0.55784 0.0
H1028 H 0.15288 0.68819 0.5674 0.0
H1029 H 0.15477 0.68335 0.51624 0.0
C1030 C 0.12962 0.70513 0.4778 0.0
C1031 C 0.11579 0.71835 0.4604 0.0
C1032 C 0.12729 0.70603 0.50734 0.0
C1033 C 0.09866 0.73124 0.47282 0.0
C1034 C 0.09602 0.7319 0.502 0.0
C1035 C 0.10939 0.72229 0.54883 0.0
C1036 C 0.12489 0.71142 0.56649 0.0
C1037 C 0.11061 0.71987 0.51946 0.0
C1038 C 0.14077 0.69686 0.55435 0.0
C1039 C 0.14193 0.69415 0.52505 0.0
H1040 H 0.28696 0.09576 0.47398 0.0
H1041 H 0.32088 0.15936 0.46654 0.0
H1042 H 0.32574 0.16079 0.51777 0.0
H1043 H 0.31639 0.14582 0.56521 0.0
H1044 H 0.28172 0.08244 0.57135 0.0
H1045 H 0.28137 0.07904 0.5203 0.0
C1046 C 0.29568 0.10983 0.48347 0.0
C1047 C 0.30327 0.12755 0.46642 0.0
C1048 C 0.29816 0.11067 0.51287 0.0
C1049 C 0.31481 0.14549 0.47913 0.0
C1050 C 0.31749 0.14638 0.50848 0.0
C1051 C 0.30918 0.13108 0.55535 0.0
C1052 C 0.29884 0.11456 0.57217 0.0
C1053 C 0.30867 0.12934 0.52567 0.0
C1054 C 0.28953 0.09556 0.559 0.0
C1055 C 0.28929 0.09358 0.52973 0.0
H1056 H 0.92058 0.28709 0.46632 0.0
H1057 H 0.8613 0.32848 0.46387 0.0
H1058 H 0.8606 0.32977 0.51549 0.0
H1059 H 0.87472 0.31565 0.56141 0.0
H1060 H 0.93391 0.27389 0.56249 0.0
H1061 H 0.93677 0.27643 0.51152 0.0
C1062 C 0.90762 0.29663 0.47702 0.0
C1063 C 0.89087 0.30744 0.4612 0.0
C1064 C 0.9072 0.29711 0.50659 0.0
C1065 C 0.87441 0.31997 0.47549 0.0
C1066 C 0.87393 0.32061 0.50504 0.0
C1067 C 0.88846 0.30745 0.55052 0.0
C1068 C 0.90388 0.29434 0.56587 0.0
C1069 C 0.88992 0.30874 0.52086 0.0
C1070 C 0.9216 0.28385 0.55132 0.0
C1071 C 0.92328 0.28527 0.52208 0.0
H1072 H 0.72883 0.92148 0.56278 0.0
H1073 H 0.6831 0.86578 0.57072 0.0
H1074 H 0.67975 0.86369 0.51932 0.0
H1075 H 0.69326 0.87516 0.472 0.0
H1076 H 0.73982 0.93038 0.46537 0.0
H1077 H 0.73921 0.93522 0.51625 0.0
C1078 C 0.7179 0.90902 0.55334 0.0
C1079 C 0.70647 0.89363 0.57061 0.0
C1080 C 0.71633 0.90771 0.52389 0.0
C1081 C 0.69214 0.87782 0.55796 0.0
C1082 C 0.69032 0.87654 0.52853 0.0
C1083 C 0.70294 0.88849 0.48167 0.0
C1084 C 0.71678 0.90219 0.46483 0.0
C1085 C 0.70283 0.89101 0.51124 0.0
C1086 C 0.72923 0.9194 0.47777 0.0
C1087 C 0.72892 0.9222 0.50692 0.0
H1088 H 0.59553 0.78162 0.06543 0.0
H1089 H 0.65397 0.82364 0.07473 0.0
H1090 H 0.65493 0.82971 0.02373 0.0
H1091 H 0.64136 0.81975 0.97592 0.0
H1092 H 0.58346 0.77676 0.96772 0.0
H1093 H 0.58003 0.77464 0.01874 0.0
C1094 C 0.60838 0.79232 0.05641 0.0
C1095 C 0.62481 0.80192 0.07392 0.0
C1096 C 0.609 0.79548 0.02712 0.0
C1097 C 0.64113 0.81596 0.06179 0.0
C1098 C 0.64175 0.81937 0.03257 0.0
C1099 C 0.62776 0.81028 0.98533 0.0
C1100 C 0.61284 0.79824 0.96796 0.0
C1101 C 0.62609 0.80875 1.01492 0.0
C1102 C 0.59534 0.78598 0.98053 0.0
C1103 C 0.59336 0.78472 1.00975 0.0
H1104 H 0.23329 0.59529 0.97258 0.0
H1105 H 0.19033 0.65317 0.96446 0.0
H1106 H 0.18447 0.65362 1.01549 0.0
H1107 H 0.19493 0.63994 0.06294 0.0
H1108 H 0.23896 0.58274 0.07013 0.0
H1109 H 0.24078 0.57959 0.01904 0.0
C1110 C 0.22243 0.60789 0.98187 0.0
C1111 C 0.21252 0.62434 0.96468 0.0
C1112 C 0.21941 0.60826 1.01119 0.0
C1113 C 0.19827 0.64034 0.97715 0.0
C1114 C 0.19497 0.64067 1.00638 0.0
C1115 C 0.20456 0.62654 0.0533 0.0
C1116 C 0.21698 0.61175 0.07038 0.0
C1117 C 0.20594 0.62505 0.02371 0.0
C1118 C 0.22944 0.59451 0.05753 0.0
C1119 C 0.23053 0.59269 0.02827 0.0
H1120 H 0.42097 0.22822 0.0609 0.0
H1121 H 0.35925 0.19112 0.06943 0.0
H1122 H 0.35788 0.18565 0.01828 0.0
H1123 H 0.37203 0.19545 0.97057 0.0
H1124 H 0.43325 0.23364 0.9633 0.0
H1125 H 0.43709 0.23436 1.01434 0.0
C1126 C 0.40733 0.21868 0.05167 0.0
C1127 C 0.39009 0.21037 0.06901 0.0
C1128 C 0.40649 0.21589 0.02231 0.0
C1129 C 0.37273 0.19778 0.05662 0.0
C1130 C 0.37187 0.19474 0.02732 0.0
C1131 C 0.38645 0.20346 0.98019 0.0
C1132 C 0.40221 0.21467 0.96311 0.0
C1133 C 0.38834 0.20427 1.00984 0.0
C1134 C 0.42074 0.22509 0.97592 0.0
C1135 C 0.42295 0.22557 1.00516 0.0
H1136 H 0.81984 0.37282 0.05441 0.0
H1137 H 0.77993 0.43299 0.06128 0.0
H1138 H 0.77896 0.4364 1.01021 0.0
H1139 H 0.78575 0.42033 0.96378 0.0
H1140 H 0.82447 0.35955 0.95564 0.0
H1141 H 0.82987 0.35856 1.00681 0.0
C1142 C 0.81133 0.3869 0.0447 0.0
C1143 C 0.79978 0.4025 0.06171 0.0
C1144 C 0.81042 0.38856 1.01504 0.0
C1145 C 0.78874 0.4206 0.04875 0.0
C1146 C 0.78815 0.42258 0.0195 0.0
C1147 C 0.79562 0.40697 0.97308 0.0
C1148 C 0.80444 0.38989 0.95584 0.0
C1149 C 0.79832 0.40631 1.00245 0.0
C1150 C 0.81742 0.3729 0.96835 0.0
C1151 C 0.82042 0.37226 0.99767 0.0
H1152 H 0.64387 0.19812 0.06015 0.0
H1153 H 0.58695 0.24264 0.06695 0.0
H1154 H 0.58158 0.24119 0.01628 0.0
H1155 H 0.59492 0.23044 0.96964 0.0
H1156 H 0.65178 0.18621 0.96142 0.0
H1157 H 0.655 0.1841 1.01282 0.0
C1158 C 0.63011 0.20723 0.05057 0.0
C1159 C 0.61607 0.22074 0.06746 0.0
C1160 C 0.62713 0.2065 0.02106 0.0
C1161 C 0.59825 0.23234 0.0546 0.0
C1162 C 0.59511 0.23154 0.02552 0.0
C1163 C 0.60787 0.2201 0.97904 0.0
C1164 C 0.62322 0.20871 0.96165 0.0
C1165 C 0.60977 0.21917 1.0085 0.0
C1166 C 0.63971 0.19516 0.97427 0.0
C1167 C 0.64166 0.19407 1.0037 0.0
H1168 H 0.7869 0.59685 0.0614 0.0
H1169 H 0.83023 0.65458 0.06717 0.0
H1170 H 0.83162 0.65698 1.01565 0.0
H1171 H 0.81725 0.6448 0.96895 0.0
H1172 H 0.77357 0.58709 0.96457 0.0
H1173 H 0.77575 0.58259 1.01535 0.0
C1174 C 0.79689 0.60983 0.05144 0.0
C1175 C 0.80823 0.62565 0.06818 0.0
C1176 C 0.7974 0.61125 0.02192 0.0
C1177 C 0.82131 0.64217 0.05484 0.0
C1178 C 0.822 0.64363 0.02534 0.0
C1179 C 0.8085 0.63105 0.97907 0.0
C1180 C 0.79501 0.61652 0.96284 0.0
C1181 C 0.80963 0.62859 1.00863 0.0
C1182 C 0.78384 0.59875 0.97641 0.0
C1183 C 0.78506 0.59611 1.00555 0.0
H1184 H 0.42166 0.7868 0.97487 0.0
H1185 H 0.36346 0.82942 0.96871 0.0
H1186 H 0.36079 0.83086 0.02023 0.0
H1187 H 0.37269 0.81635 0.06699 0.0
H1188 H 0.43086 0.77333 0.07166 0.0
H1189 H 0.43583 0.77586 0.02098 0.0
C1190 C 0.40855 0.79668 0.98475 0.0
C1191 C 0.39265 0.80776 0.96792 0.0
C1192 C 0.40696 0.79718 1.01425 0.0
C1193 C 0.37595 0.82071 0.98114 0.0
C1194 C 0.37432 0.82141 1.01063 0.0
C1195 C 0.38665 0.80784 0.05695 0.0
C1196 C 0.40114 0.79437 0.07321 0.0
C1197 C 0.38937 0.80916 0.02743 0.0
C1198 C 0.41921 0.78354 0.05977 0.0
C1199 C 0.42212 0.78497 0.0307 0.0
H1200 H 0.19725 0.37358 0.97632 0.0
H1201 H 0.24247 0.43001 0.97051 0.0
H1202 H 0.24102 0.43494 0.02129 0.0
H1203 H 0.23012 0.42122 0.06766 0.0
H1204 H 0.18541 0.36465 0.07481 0.0
H1205 H 0.18314 0.3621 0.02335 0.0
C1206 C 0.20652 0.38714 0.98614 0.0
C1207 C 0.22022 0.40116 0.96951 0.0
C1208 C 0.20581 0.38984 1.01567 0.0
C1209 C 0.23202 0.41873 0.98267 0.0
C1210 C 0.23122 0.42161 1.0118 0.0
C1211 C 0.21963 0.40849 0.05802 0.0
C1212 C 0.20817 0.393 0.0751 0.0
C1213 C 0.21867 0.40693 0.02854 0.0
C1214 C 0.19443 0.3768 0.06219 0.0
C1215 C 0.19325 0.37524 0.03273 0.0
H1216 H 0.1507 0.34851 0.21555 0.0
H1217 H 0.19731 0.39552 0.25231 0.0
H1218 H 0.18322 0.38657 0.29932 0.0
H1219 H 0.16125 0.3617 0.33024 0.0
H1220 H 0.11441 0.31495 0.29338 0.0
H1221 H 0.12473 0.32776 0.24629 0.0
C1222 C 0.15748 0.35712 0.23381 0.0
C1223 C 0.17526 0.37243 0.23041 0.0
C1224 C 0.14938 0.3518 0.26084 0.0
C1225 C 0.18367 0.38362 0.25427 0.0
C1226 C 0.17571 0.37841 0.28122 0.0
C1227 C 0.15296 0.35463 0.31193 0.0
C1228 C 0.1373 0.33716 0.31538 0.0
C1229 C 0.1591 0.36197 0.28482 0.0
C1230 C 0.12657 0.32836 0.29141 0.0
C1231 C 0.13257 0.33558 0.26441 0.0
H1232 H 0.63967 0.19917 0.24194 0.0
H1233 H 0.68261 0.16026 0.18746 0.0
H1234 H 0.69795 0.14053 0.22824 0.0
H1235 H 0.7021 0.13715 0.2797 0.0
H1236 H 0.66139 0.17833 0.33424 0.0
H1237 H 0.64214 0.19409 0.29335 0.0
C1238 C 0.65206 0.18606 0.23896 0.0
C1239 C 0.65998 0.18122 0.21167 0.0
C1240 C 0.66138 0.17529 0.26263 0.0
C1241 C 0.67626 0.16437 0.20823 0.0
C1242 C 0.68509 0.1531 0.23157 0.0
C1243 C 0.6887 0.14923 0.28264 0.0
C1244 C 0.6832 0.15654 0.31 0.0
C1245 C 0.67821 0.15882 0.25893 0.0
C1246 C 0.66599 0.17245 0.31342 0.0
C1247 C 0.65501 0.18152 0.29002 0.0
H1248 H 0.82766 0.6358 0.24702 0.0
H1249 H 0.87062 0.67805 0.19679 0.0
H1250 H 0.88799 0.69303 0.23947 0.0
H1251 H 0.88765 0.69762 0.29103 0.0
H1252 H 0.84244 0.65761 0.34108 0.0
H1253 H 0.82951 0.63817 0.29876 0.0
C1254 C 0.8412 0.64788 0.24542 0.0
C1255 C 0.84781 0.65581 0.21875 0.0
C1256 C 0.85055 0.65706 0.27012 0.0
C1257 C 0.86518 0.67171 0.21706 0.0
C1258 C 0.87507 0.68035 0.24148 0.0
C1259 C 0.87532 0.68431 0.29274 0.0
C1260 C 0.86597 0.67915 0.31919 0.0
C1261 C 0.8674 0.67369 0.26815 0.0
C1262 C 0.84984 0.66201 0.32097 0.0
C1263 C 0.84238 0.6509 0.29675 0.0
H1264 H 0.3453 0.8507 0.20903 0.0
H1265 H 0.39045 0.8036 0.24822 0.0
H1266 H 0.38028 0.81803 0.29471 0.0
H1267 H 0.35531 0.84104 0.32442 0.0
H1268 H 0.31101 0.88893 0.28518 0.0
H1269 H 0.32432 0.87743 0.23868 0.0
C1270 C 0.3532 0.84386 0.22772 0.0
C1271 C 0.36842 0.82591 0.22513 0.0
C1272 C 0.3473 0.85228 0.25445 0.0
C1273 C 0.37868 0.8174 0.24956 0.0
C1274 C 0.37277 0.82556 0.27621 0.0
C1275 C 0.34886 0.84925 0.30571 0.0
C1276 C 0.33198 0.86565 0.30831 0.0
C1277 C 0.35661 0.84255 0.27895 0.0
C1278 C 0.32399 0.87626 0.28385 0.0
C1279 C 0.33149 0.86958 0.25719 0.0
H1280 H 0.19936 0.63728 0.78749 0.0
H1281 H 0.15814 0.68093 0.83829 0.0
H1282 H 0.13908 0.69452 0.79607 0.0
H1283 H 0.13735 0.6974 0.74442 0.0
H1284 H 0.18103 0.65629 0.69355 0.0
H1285 H 0.19564 0.63813 0.73588 0.0
C1286 C 0.18587 0.6494 0.78934 0.0
C1287 C 0.18021 0.65812 0.81595 0.0
C1288 C 0.17554 0.65777 0.76486 0.0
C1289 C 0.16288 0.67403 0.818 0.0
C1290 C 0.152 0.68186 0.79386 0.0
C1291 C 0.1497 0.68411 0.7426 0.0
C1292 C 0.15812 0.67822 0.71592 0.0
C1293 C 0.15866 0.67435 0.76711 0.0
C1294 C 0.17434 0.66118 0.71388 0.0
C1295 C 0.18275 0.65083 0.73809 0.0
H1296 H 0.35628 0.17019 0.70952 0.0
H1297 H 0.31317 0.12035 0.74703 0.0
H1298 H 0.32759 0.12979 0.79371 0.0
H1299 H 0.34922 0.15522 0.82438 0.0
H1300 H 0.39303 0.20442 0.78683 0.0
H1301 H 0.38185 0.192 0.73984 0.0
C1302 C 0.35032 0.16112 0.72786 0.0
C1303 C 0.33345 0.14476 0.72475 0.0
C1304 C 0.35872 0.16663 0.75474 0.0
C1305 C 0.3261 0.13303 0.74874 0.0
C1306 C 0.33426 0.13851 0.77552 0.0
C1307 C 0.35664 0.16295 0.80592 0.0
C1308 C 0.37177 0.18091 0.8092 0.0
C1309 C 0.35009 0.15573 0.77886 0.0
C1310 C 0.38136 0.19058 0.78501 0.0
C1311 C 0.37485 0.18357 0.75806 0.0
H1312 H 0.84684 0.34864 0.70226 0.0
H1313 H 0.89279 0.30289 0.74248 0.0
H1314 H 0.88082 0.3163 0.78876 0.0
H1315 H 0.85427 0.33803 0.81783 0.0
H1316 H 0.80931 0.3848 0.77773 0.0
H1317 H 0.82407 0.3742 0.73152 0.0
C1318 C 0.85451 0.34188 0.72115 0.0
C1319 C 0.87052 0.3246 0.71887 0.0
C1320 C 0.84758 0.34973 0.74777 0.0
C1321 C 0.88046 0.31619 0.74356 0.0
C1322 C 0.8735 0.32376 0.77009 0.0
C1323 C 0.84797 0.34616 0.799 0.0
C1324 C 0.83053 0.36199 0.80122 0.0
C1325 C 0.85662 0.34006 0.77246 0.0
C1326 C 0.82272 0.37256 0.77665 0.0
C1327 C 0.83106 0.36641 0.75017 0.0
H1328 H 0.68786 0.88582 0.74925 0.0
H1329 H 0.64678 0.84144 0.69934 0.0
H1330 H 0.62833 0.82773 0.74191 0.0
H1331 H 0.62731 0.82477 0.79354 0.0
H1332 H 0.6704 0.86708 0.84362 0.0
H1333 H 0.68431 0.88533 0.80098 0.0
C1334 C 0.67452 0.87353 0.74766 0.0
C1335 C 0.66879 0.86461 0.72114 0.0
C1336 C 0.66446 0.86515 0.77237 0.0
C1337 C 0.6516 0.84851 0.71949 0.0
C1338 C 0.64107 0.8406 0.74385 0.0
C1339 C 0.63936 0.83834 0.79518 0.0
C1340 C 0.64786 0.84446 0.82176 0.0
C1341 C 0.64786 0.84826 0.77047 0.0
C1342 C 0.66364 0.86195 0.82344 0.0
C1343 C 0.67167 0.87236 0.79902 0.0
H1344 H 0.84007 0.66433 0.71127 0.0
H1345 H 0.88684 0.71021 0.74981 0.0
H1346 H 0.87633 0.69648 0.79651 0.0
H1347 H 0.85072 0.67443 0.82655 0.0
H1348 H 0.80497 0.62758 0.78784 0.0
H1349 H 0.8184 0.63845 0.7412 0.0
C1350 C 0.84823 0.67105 0.72988 0.0
C1351 C 0.86403 0.68845 0.72706 0.0
C1352 C 0.84217 0.663 0.75669 0.0
C1353 C 0.87464 0.69681 0.75135 0.0
C1354 C 0.86853 0.68905 0.77811 0.0
C1355 C 0.84398 0.66632 0.80792 0.0
C1356 C 0.82667 0.6504 0.81071 0.0
C1357 C 0.85185 0.67261 0.78107 0.0
C1358 C 0.81828 0.63989 0.78636 0.0
C1359 C 0.82586 0.6462 0.75962 0.0
H1360 H 0.34946 0.86389 0.82353 0.0
H1361 H 0.39772 0.81643 0.79126 0.0
H1362 H 0.38903 0.82791 0.74312 0.0
H1363 H 0.36399 0.84762 0.71015 0.0
H1364 H 0.31599 0.89536 0.7424 0.0
H1365 H 0.32854 0.88782 0.79044 0.0
C1366 C 0.35841 0.85638 0.806 0.0
C1367 C 0.37399 0.83909 0.81103 0.0
C1368 C 0.35321 0.86296 0.77829 0.0
C1369 C 0.38561 0.82972 0.78806 0.0
C1370 C 0.38053 0.83618 0.76045 0.0
C1371 C 0.35658 0.85671 0.72764 0.0
C1372 C 0.33884 0.87179 0.72267 0.0
C1373 C 0.36379 0.8522 0.75529 0.0
C1374 C 0.32961 0.88361 0.74557 0.0
C1375 C 0.33669 0.8792 0.77312 0.0
H1376 H 0.13891 0.32158 0.75154 0.0
H1377 H 0.18 0.3659 0.70165 0.0
H1378 H 0.19417 0.38376 0.74444 0.0
H1379 H 0.19842 0.38362 0.79597 0.0
H1380 H 0.15958 0.33723 0.84576 0.0
H1381 H 0.14086 0.32359 0.8033 0.0
C1382 C 0.15057 0.33549 0.75004 0.0
C1383 C 0.15843 0.34235 0.72345 0.0
C1384 C 0.15927 0.34517 0.7748 0.0
C1385 C 0.17375 0.36023 0.72187 0.0
C1386 C 0.18192 0.37042 0.74634 0.0
C1387 C 0.18552 0.37087 0.79759 0.0
C1388 C 0.18049 0.36141 0.824 0.0
C1389 C 0.17534 0.36256 0.77295 0.0
C1390 C 0.16387 0.34473 0.82568 0.0
C1391 C 0.15318 0.33687 0.80138 0.0
H1392 H 0.65379 0.16796 0.7039 0.0
H1393 H 0.70064 0.11973 0.73738 0.0
H1394 H 0.68756 0.12768 0.78511 0.0
H1395 H 0.66641 0.15197 0.81767 0.0
H1396 H 0.61899 0.19965 0.78419 0.0
H1397 H 0.62841 0.18802 0.73628 0.0
C1398 C 0.66083 0.15888 0.7216 0.0
C1399 C 0.6784 0.14351 0.71707 0.0
C1400 C 0.65325 0.16357 0.74907 0.0
C1401 C 0.68715 0.13169 0.74021 0.0
C1402 C 0.67977 0.13633 0.76759 0.0
C1403 C 0.6578 0.15949 0.79991 0.0
C1404 C 0.64225 0.17687 0.80454 0.0
C1405 C 0.66337 0.15278 0.77234 0.0
C1406 C 0.63107 0.18627 0.78129 0.0
C1407 C 0.63656 0.17973 0.75382 0.0
H1408 H 0.82166 0.38875 0.23776 0.0
H1409 H 0.86566 0.3464 0.18894 0.0
H1410 H 0.88314 0.33261 0.23212 0.0
H1411 H 0.88263 0.32898 0.28381 0.0
H1412 H 0.83667 0.36933 0.33247 0.0
H1413 H 0.82353 0.38762 0.28953 0.0
C1414 C 0.83542 0.3769 0.23654 0.0
C1415 C 0.84226 0.36858 0.21012 0.0
C1416 C 0.84492 0.36846 0.26155 0.0
C1417 C 0.85999 0.35304 0.20898 0.0
C1418 C 0.86995 0.34507 0.2337 0.0
C1419 C 0.8701 0.34213 0.28508 0.0
C1420 C 0.8606 0.34769 0.31134 0.0
C1421 C 0.86208 0.35211 0.26014 0.0
C1422 C 0.84421 0.36463 0.31254 0.0
C1423 C 0.83662 0.37507 0.28795 0.0
H1424 H 0.67245 0.85321 0.21347 0.0
H1425 H 0.62444 0.80781 0.25043 0.0
H1426 H 0.63276 0.82277 0.29724 0.0
H1427 H 0.65715 0.84539 0.3281 0.0
H1428 H 0.70461 0.8913 0.29088 0.0
H1429 H 0.69275 0.87979 0.24384 0.0
C1430 C 0.66353 0.84686 0.23172 0.0
C1431 C 0.64809 0.8292 0.22851 0.0
C1432 C 0.66841 0.85554 0.2586 0.0
C1433 C 0.63645 0.82135 0.25231 0.0
C1434 C 0.64129 0.82982 0.27913 0.0
C1435 C 0.66458 0.8532 0.3097 0.0
C1436 C 0.68197 0.86896 0.31306 0.0
C1437 C 0.65775 0.84642 0.28261 0.0
C1438 C 0.69125 0.87908 0.28897 0.0
C1439 C 0.68458 0.8724 0.26201 0.0
H1440 H 0.13066 0.68997 0.28748 0.0
H1441 H 0.17428 0.64884 0.33829 0.0
H1442 H 0.18751 0.62938 0.29615 0.0
H1443 H 0.1905 0.62764 0.24452 0.0
H1444 H 0.14881 0.67065 0.19361 0.0
H1445 H 0.13084 0.68546 0.23597 0.0
C1446 C 0.14268 0.67641 0.2894 0.0
C1447 C 0.15158 0.67101 0.31601 0.0
C1448 C 0.15076 0.66574 0.26494 0.0
C1449 C 0.16725 0.65346 0.31807 0.0
C1450 C 0.17489 0.64235 0.29394 0.0
C1451 C 0.17711 0.63986 0.24265 0.0
C1452 C 0.17113 0.64812 0.21592 0.0
C1453 C 0.16734 0.64887 0.26719 0.0
C1454 C 0.15384 0.66408 0.21393 0.0
C1455 C 0.1436 0.67264 0.23817 0.0
H1456 H 0.3523 0.17563 0.32517 0.0
H1457 H 0.30584 0.12809 0.28926 0.0
H1458 H 0.31919 0.13728 0.24196 0.0
H1459 H 0.34086 0.16212 0.21062 0.0
H1460 H 0.38824 0.20872 0.24657 0.0
H1461 H 0.378 0.19638 0.29394 0.0
C1462 C 0.34539 0.167 0.30702 0.0
C1463 C 0.3279 0.15141 0.31072 0.0
C1464 C 0.3532 0.17232 0.27985 0.0
C1465 C 0.3193 0.14017 0.28702 0.0
C1466 C 0.32683 0.14552 0.25993 0.0
C1467 C 0.34923 0.16927 0.22882 0.0
C1468 C 0.36509 0.18651 0.22507 0.0
C1469 C 0.34329 0.16206 0.25604 0.0
C1470 C 0.37598 0.19544 0.24883 0.0
C1471 C 0.37002 0.18849 0.27597 0.0
loop_
_geom_bond_atom_site_label_1
_geom_bond_atom_site_label_2
_geom_bond_distance
_geom_bond_site_symmetry_2
_ccdc_geom_bond_type
O0 Cd1 2.223 . S
O0 C8 1.315 . S
Cd1 O0 2.223 . S
Cd1 O4 2.297 . S
Cd1 O5 2.439 . S
Cd1 O11 2.240 . S
Cd2 O3 2.240 . S
Cd2 O10 2.223 . S
Cd2 O12 2.297 . S
Cd2 O13 2.439 . S
O3 Cd2 2.240 . S
O3 C8 1.279 . S
O4 Cd1 2.297 . S
O4 C6 1.247 . S
O5 Cd1 2.439 . S
O5 C6 1.208 . S
C6 O4 1.247 . S
C6 O5 1.208 . S
C7 O12 1.247 . S
C7 O13 1.208 . S
C8 O0 1.315 . S
C8 O3 1.279 . S
C9 O10 1.315 . S
C9 O11 1.279 . S
O10 Cd2 2.223 . S
O10 C9 1.315 . S
O11 Cd1 2.240 . S
O11 C9 1.279 . S
O12 Cd2 2.297 . S
O12 C7 1.247 . S
O13 Cd2 2.439 . S
O13 C7 1.208 . S
O14 Cd15 2.223 . S
O14 C22 1.315 . S
Cd15 O14 2.223 . S
Cd15 O18 2.297 . S
Cd15 O19 2.439 . S
Cd15 O25 2.240 . S
Cd16 O17 2.240 . S
Cd16 O24 2.223 . S
Cd16 O26 2.297 . S
Cd16 O27 2.439 . S
O17 Cd16 2.240 . S
O17 C22 1.279 . S
O18 Cd15 2.297 . S
O18 C20 1.247 . S
O19 Cd15 2.439 . S
O19 C20 1.208 . S
C20 O18 1.247 . S
C20 O19 1.208 . S
C21 O26 1.247 . S
C21 O27 1.208 . S
C22 O14 1.315 . S
C22 O17 1.279 . S
C23 O24 1.315 . S
C23 O25 1.279 . S
O24 Cd16 2.223 . S
O24 C23 1.315 . S
O25 Cd15 2.240 . S
O25 C23 1.279 . S
O26 Cd16 2.297 . S
O26 C21 1.247 . S
O27 Cd16 2.439 . S
O27 C21 1.208 . S
O28 Cd29 2.223 . S
O28 C36 1.315 . S
Cd29 O28 2.223 . S
Cd29 O32 2.297 . S
Cd29 O33 2.439 . S
Cd29 O39 2.240 . S
Cd30 O31 2.240 . S
Cd30 O38 2.223 . S
Cd30 O40 2.297 . S
Cd30 O41 2.439 . S
O31 Cd30 2.240 . S
O31 C36 1.279 . S
O32 Cd29 2.297 . S
O32 C34 1.247 . S
O33 Cd29 2.439 . S
O33 C34 1.208 . S
C34 O32 1.247 . S
C34 O33 1.208 . S
C35 O40 1.247 . S
C35 O41 1.208 . S
C36 O28 1.315 . S
C36 O31 1.279 . S
C37 O38 1.315 . S
C37 O39 1.279 . S
O38 Cd30 2.223 . S
O38 C37 1.315 . S
O39 Cd29 2.240 . S
O39 C37 1.279 . S
O40 Cd30 2.297 . S
O40 C35 1.247 . S
O41 Cd30 2.439 . S
O41 C35 1.208 . S
O42 Cd43 2.223 . S
O42 C50 1.315 . S
Cd43 O42 2.223 . S
Cd43 O46 2.297 . S
Cd43 O47 2.439 . S
Cd43 O53 2.240 . S
Cd44 O45 2.240 . S
Cd44 O52 2.223 . S
Cd44 O54 2.297 . S
Cd44 O55 2.439 . S
O45 Cd44 2.240 . S
O45 C50 1.279 . S
O46 Cd43 2.297 . S
O46 C48 1.247 . S
O47 Cd43 2.439 . S
O47 C48 1.208 . S
C48 O46 1.247 . S
C48 O47 1.208 . S
C49 O54 1.247 . S
C49 O55 1.208 . S
C50 O42 1.315 . S
C50 O45 1.279 . S
C51 O52 1.315 . S
C51 O53 1.279 . S
O52 Cd44 2.223 . S
O52 C51 1.315 . S
O53 Cd43 2.240 . S
O53 C51 1.279 . S
O54 Cd44 2.297 . S
O54 C49 1.247 . S
O55 Cd44 2.439 . S
O55 C49 1.208 . S
O56 Cd57 2.223 . S
O56 C64 1.315 . S
Cd57 O56 2.223 . S
Cd57 O60 2.297 . S
Cd57 O61 2.439 . S
Cd57 O67 2.240 . S
Cd58 O59 2.240 . S
Cd58 O66 2.223 . S
Cd58 O68 2.297 . S
Cd58 O69 2.439 . S
O59 Cd58 2.240 . S
O59 C64 1.279 . S
O60 Cd57 2.297 . S
O60 C62 1.247 . S
O61 Cd57 2.439 . S
O61 C62 1.208 . S
C62 O60 1.247 . S
C62 O61 1.208 . S
C63 O68 1.247 . S
C63 O69 1.208 . S
C64 O56 1.315 . S
C64 O59 1.279 . S
C65 O66 1.315 . S
C65 O67 1.279 . S
O66 Cd58 2.223 . S
O66 C65 1.315 . S
O67 Cd57 2.240 . S
O67 C65 1.279 . S
O68 Cd58 2.297 . S
O68 C63 1.247 . S
O69 Cd58 2.439 . S
O69 C63 1.208 . S
O70 Cd71 2.223 . S
O70 C78 1.315 . S
Cd71 O70 2.223 . S
Cd71 O74 2.297 . S
Cd71 O75 2.439 . S
Cd71 O81 2.240 . S
Cd72 O73 2.240 . S
Cd72 O80 2.223 . S
Cd72 O82 2.297 . S
Cd72 O83 2.439 . S
O73 Cd72 2.240 . S
O73 C78 1.279 . S
O74 Cd71 2.297 . S
O74 C76 1.247 . S
O75 Cd71 2.439 . S
O75 C76 1.208 . S
C76 O74 1.247 . S
C76 O75 1.208 . S
C77 O82 1.247 . S
C77 O83 1.208 . S
C78 O70 1.315 . S
C78 O73 1.279 . S
C79 O80 1.315 . S
C79 O81 1.279 . S
O80 Cd72 2.223 . S
O80 C79 1.315 . S
O81 Cd71 2.240 . S
O81 C79 1.279 . S
O82 Cd72 2.297 . S
O82 C77 1.247 . S
O83 Cd72 2.439 . S
O83 C77 1.208 . S
O84 Cd85 2.223 . S
O84 C92 1.315 . S
Cd85 O84 2.223 . S
Cd85 O88 2.297 . S
Cd85 O89 2.439 . S
Cd85 O95 2.240 . S
Cd86 O87 2.240 . S
Cd86 O94 2.223 . S
Cd86 O96 2.297 . S
Cd86 O97 2.439 . S
O87 Cd86 2.240 . S
O87 C92 1.279 . S
O88 Cd85 2.297 . S
O88 C90 1.247 . S
O89 Cd85 2.439 . S
O89 C90 1.208 . S
C90 O88 1.247 . S
C90 O89 1.208 . S
C91 O96 1.247 . S
C91 O97 1.208 . S
C92 O84 1.315 . S
C92 O87 1.279 . S
C93 O94 1.315 . S
C93 O95 1.279 . S
O94 Cd86 2.223 . S
O94 C93 1.315 . S
O95 Cd85 2.240 . S
O95 C93 1.279 . S
O96 Cd86 2.297 . S
O96 C91 1.247 . S
O97 Cd86 2.439 . S
O97 C91 1.208 . S
O98 Cd99 2.223 . S
O98 C106 1.315 . S
Cd99 O98 2.223 . S
Cd99 O102 2.297 . S
Cd99 O103 2.439 . S
Cd99 O109 2.240 . S
Cd100 O101 2.240 . S
Cd100 O108 2.223 . S
Cd100 O110 2.297 . S
Cd100 O111 2.439 . S
O101 Cd100 2.240 . S
O101 C106 1.279 . S
O102 Cd99 2.297 . S
O102 C104 1.247 . S
O103 Cd99 2.439 . S
O103 C104 1.208 . S
C104 O102 1.247 . S
C104 O103 1.208 . S
C105 O110 1.247 . S
C105 O111 1.208 . S
C106 O98 1.315 . S
C106 O101 1.279 . S
C107 O108 1.315 . S
C107 O109 1.279 . S
O108 Cd100 2.223 . S
O108 C107 1.315 . S
O109 Cd99 2.240 . S
O109 C107 1.279 . S
O110 Cd100 2.297 . S
O110 C105 1.247 . S
O111 Cd100 2.439 . S
O111 C105 1.208 . S
O112 Cd113 2.223 . S
O112 C120 1.315 . S
Cd113 O112 2.223 . S
Cd113 O116 2.297 . S
Cd113 O117 2.439 . S
Cd113 O123 2.240 . S
Cd114 O115 2.240 . S
Cd114 O122 2.223 . S
Cd114 O124 2.297 . S
Cd114 O125 2.439 . S
O115 Cd114 2.240 . S
O115 C120 1.279 . S
O116 Cd113 2.297 . S
O116 C118 1.247 . S
O117 Cd113 2.439 . S
O117 C118 1.208 . S
C118 O116 1.247 . S
C118 O117 1.208 . S
C119 O124 1.247 . S
C119 O125 1.208 . S
C120 O112 1.315 . S
C120 O115 1.279 . S
C121 O122 1.315 . S
C121 O123 1.279 . S
O122 Cd114 2.223 . S
O122 C121 1.315 . S
O123 Cd113 2.240 . S
O123 C121 1.279 . S
O124 Cd114 2.297 . S
O124 C119 1.247 . S
O125 Cd114 2.439 . S
O125 C119 1.208 . S
O126 Cd127 2.223 . S
O126 C134 1.315 . S
Cd127 O126 2.223 . S
Cd127 O130 2.297 . S
Cd127 O131 2.439 . S
Cd127 O137 2.240 . S
Cd128 O129 2.240 . S
Cd128 O136 2.223 . S
Cd128 O138 2.297 . S
Cd128 O139 2.439 . S
O129 Cd128 2.240 . S
O129 C134 1.279 . S
O130 Cd127 2.297 . S
O130 C132 1.247 . S
O131 Cd127 2.439 . S
O131 C132 1.208 . S
C132 O130 1.247 . S
C132 O131 1.208 . S
C133 O138 1.247 . S
C133 O139 1.208 . S
C134 O126 1.315 . S
C134 O129 1.279 . S
C135 O136 1.315 . S
C135 O137 1.279 . S
O136 Cd128 2.223 . S
O136 C135 1.315 . S
O137 Cd127 2.240 . S
O137 C135 1.279 . S
O138 Cd128 2.297 . S
O138 C133 1.247 . S
O139 Cd128 2.439 . S
O139 C133 1.208 . S
O140 Cd141 2.223 . S
O140 C148 1.315 . S
Cd141 O140 2.223 . S
Cd141 O144 2.297 . S
Cd141 O145 2.439 . S
Cd141 O151 2.240 . S
Cd142 O143 2.240 . S
Cd142 O150 2.223 . S
Cd142 O152 2.297 . S
Cd142 O153 2.439 . S
O143 Cd142 2.240 . S
O143 C148 1.279 . S
O144 Cd141 2.297 . S
O144 C146 1.247 . S
O145 Cd141 2.439 . S
O145 C146 1.208 . S
C146 O144 1.247 . S
C146 O145 1.208 . S
C147 O152 1.247 . S
C147 O153 1.208 . S
C148 O140 1.315 . S
C148 O143 1.279 . S
C149 O150 1.315 . S
C149 O151 1.279 . S
O150 Cd142 2.223 . S
O150 C149 1.315 . S
O151 Cd141 2.240 . S
O151 C149 1.279 . S
O152 Cd142 2.297 . S
O152 C147 1.247 . S
O153 Cd142 2.439 . S
O153 C147 1.208 . S
O154 Cd155 2.223 . S
O154 C162 1.315 . S
Cd155 O154 2.223 . S
Cd155 O158 2.297 . S
Cd155 O159 2.439 . S
Cd155 O165 2.240 . S
Cd156 O157 2.240 . S
Cd156 O164 2.223 . S
Cd156 O166 2.297 . S
Cd156 O167 2.439 . S
O157 Cd156 2.240 . S
O157 C162 1.279 . S
O158 Cd155 2.297 . S
O158 C160 1.247 . S
O159 Cd155 2.439 . S
O159 C160 1.208 . S
C160 O158 1.247 . S
C160 O159 1.208 . S
C161 O166 1.247 . S
C161 O167 1.208 . S
C162 O154 1.315 . S
C162 O157 1.279 . S
C163 O164 1.315 . S
C163 O165 1.279 . S
O164 Cd156 2.223 . S
O164 C163 1.315 . S
O165 Cd155 2.240 . S
O165 C163 1.279 . S
O166 Cd156 2.297 . S
O166 C161 1.247 . S
O167 Cd156 2.439 . S
O167 C161 1.208 . S
O168 Cd169 2.223 . S
O168 C176 1.315 . S
Cd169 O168 2.223 . S
Cd169 O172 2.297 . S
Cd169 O173 2.439 . S
Cd169 O179 2.240 . S
Cd170 O171 2.240 . S
Cd170 O178 2.223 . S
Cd170 O180 2.297 . S
Cd170 O181 2.439 . S
O171 Cd170 2.240 . S
O171 C176 1.279 . S
O172 Cd169 2.297 . S
O172 C174 1.247 . S
O173 Cd169 2.439 . S
O173 C174 1.208 . S
C174 O172 1.247 . S
C174 O173 1.208 . S
C175 O180 1.247 . S
C175 O181 1.208 . S
C176 O168 1.315 . S
C176 O171 1.279 . S
C177 O178 1.315 . S
C177 O179 1.279 . S
O178 Cd170 2.223 . S
O178 C177 1.315 . S
O179 Cd169 2.240 . S
O179 C177 1.279 . S
O180 Cd170 2.297 . S
O180 C175 1.247 . S
O181 Cd170 2.439 . S
O181 C175 1.208 . S
O182 Cd183 2.223 . S
O182 C190 1.315 . S
Cd183 O182 2.223 . S
Cd183 O186 2.297 . S
Cd183 O187 2.439 . S
Cd183 O193 2.240 . S
Cd184 O185 2.240 . S
Cd184 O192 2.223 . S
Cd184 O194 2.297 . S
Cd184 O195 2.439 . S
O185 Cd184 2.240 . S
O185 C190 1.279 . S
O186 Cd183 2.297 . S
O186 C188 1.247 . S
O187 Cd183 2.439 . S
O187 C188 1.208 . S
C188 O186 1.247 . S
C188 O187 1.208 . S
C189 O194 1.247 . S
C189 O195 1.208 . S
C190 O182 1.315 . S
C190 O185 1.279 . S
C191 O192 1.315 . S
C191 O193 1.279 . S
O192 Cd184 2.223 . S
O192 C191 1.315 . S
O193 Cd183 2.240 . S
O193 C191 1.279 . S
O194 Cd184 2.297 . S
O194 C189 1.247 . S
O195 Cd184 2.439 . S
O195 C189 1.208 . S
O196 Cd197 2.223 . S
O196 C204 1.315 . S
Cd197 O196 2.223 . S
Cd197 O200 2.297 . S
Cd197 O201 2.439 . S
Cd197 O207 2.240 . S
Cd198 O199 2.240 . S
Cd198 O206 2.223 . S
Cd198 O208 2.297 . S
Cd198 O209 2.439 . S
O199 Cd198 2.240 . S
O199 C204 1.279 . S
O200 Cd197 2.297 . S
O200 C202 1.247 . S
O201 Cd197 2.439 . S
O201 C202 1.208 . S
C202 O200 1.247 . S
C202 O201 1.208 . S
C203 O208 1.247 . S
C203 O209 1.208 . S
C204 O196 1.315 . S
C204 O199 1.279 . S
C205 O206 1.315 . S
C205 O207 1.279 . S
O206 Cd198 2.223 . S
O206 C205 1.315 . S
O207 Cd197 2.240 . S
O207 C205 1.279 . S
O208 Cd198 2.297 . S
O208 C203 1.247 . S
O209 Cd198 2.439 . S
O209 C203 1.208 . S
O210 Cd211 2.223 . S
O210 C218 1.315 . S
Cd211 O210 2.223 . S
Cd211 O214 2.297 . S
Cd211 O215 2.439 . S
Cd211 O221 2.240 . S
Cd212 O213 2.240 . S
Cd212 O220 2.223 . S
Cd212 O222 2.297 . S
Cd212 O223 2.439 . S
O213 Cd212 2.240 . S
O213 C218 1.279 . S
O214 Cd211 2.297 . S
O214 C216 1.247 . S
O215 Cd211 2.439 . S
O215 C216 1.208 . S
C216 O214 1.247 . S
C216 O215 1.208 . S
C217 O222 1.247 . S
C217 O223 1.208 . S
C218 O210 1.315 . S
C218 O213 1.279 . S
C219 O220 1.315 . S
C219 O221 1.279 . S
O220 Cd212 2.223 . S
O220 C219 1.315 . S
O221 Cd211 2.240 . S
O221 C219 1.279 . S
O222 Cd212 2.297 . S
O222 C217 1.247 . S
O223 Cd212 2.439 . S
O223 C217 1.208 . S
O224 Cd225 2.223 . S
O224 C232 1.315 . S
Cd225 O224 2.223 . S
Cd225 O228 2.297 . S
Cd225 O229 2.439 . S
Cd225 O235 2.240 . S
Cd226 O227 2.240 . S
Cd226 O234 2.223 . S
Cd226 O236 2.297 . S
Cd226 O237 2.439 . S
O227 Cd226 2.240 . S
O227 C232 1.279 . S
O228 Cd225 2.297 . S
O228 C230 1.247 . S
O229 Cd225 2.439 . S
O229 C230 1.208 . S
C230 O228 1.247 . S
C230 O229 1.208 . S
C231 O236 1.247 . S
C231 O237 1.208 . S
C232 O224 1.315 . S
C232 O227 1.279 . S
C233 O234 1.315 . S
C233 O235 1.279 . S
O234 Cd226 2.223 . S
O234 C233 1.315 . S
O235 Cd225 2.240 . S
O235 C233 1.279 . S
O236 Cd226 2.297 . S
O236 C231 1.247 . S
O237 Cd226 2.439 . S
O237 C231 1.208 . S
O238 Cd239 2.223 . S
O238 C246 1.315 . S
Cd239 O238 2.223 . S
Cd239 O242 2.297 . S
Cd239 O243 2.439 . S
Cd239 O249 2.240 . S
Cd240 O241 2.240 . S
Cd240 O248 2.223 . S
Cd240 O250 2.297 . S
Cd240 O251 2.439 . S
O241 Cd240 2.240 . S
O241 C246 1.279 . S
O242 Cd239 2.297 . S
O242 C244 1.247 . S
O243 Cd239 2.439 . S
O243 C244 1.208 . S
C244 O242 1.247 . S
C244 O243 1.208 . S
C245 O250 1.247 . S
C245 O251 1.208 . S
C246 O238 1.315 . S
C246 O241 1.279 . S
C247 O248 1.315 . S
C247 O249 1.279 . S
O248 Cd240 2.223 . S
O248 C247 1.315 . S
O249 Cd239 2.240 . S
O249 C247 1.279 . S
O250 Cd240 2.297 . S
O250 C245 1.247 . S
O251 Cd240 2.439 . S
O251 C245 1.208 . S
O252 Cd253 2.223 . S
O252 C260 1.315 . S
Cd253 O252 2.223 . S
Cd253 O256 2.297 . S
Cd253 O257 2.439 . S
Cd253 O263 2.240 . S
Cd254 O255 2.240 . S
Cd254 O262 2.223 . S
Cd254 O264 2.297 . S
Cd254 O265 2.439 . S
O255 Cd254 2.240 . S
O255 C260 1.279 . S
O256 Cd253 2.297 . S
O256 C258 1.247 . S
O257 Cd253 2.439 . S
O257 C258 1.208 . S
C258 O256 1.247 . S
C258 O257 1.208 . S
C259 O264 1.247 . S
C259 O265 1.208 . S
C260 O252 1.315 . S
C260 O255 1.279 . S
C261 O262 1.315 . S
C261 O263 1.279 . S
O262 Cd254 2.223 . S
O262 C261 1.315 . S
O263 Cd253 2.240 . S
O263 C261 1.279 . S
O264 Cd254 2.297 . S
O264 C259 1.247 . S
O265 Cd254 2.439 . S
O265 C259 1.208 . S
O266 Cd267 2.223 . S
O266 C274 1.315 . S
Cd267 O266 2.223 . S
Cd267 O270 2.297 . S
Cd267 O271 2.439 . S
Cd267 O277 2.240 . S
Cd268 O269 2.240 . S
Cd268 O276 2.223 . S
Cd268 O278 2.297 . S
Cd268 O279 2.439 . S
O269 Cd268 2.240 . S
O269 C274 1.279 . S
O270 Cd267 2.297 . S
O270 C272 1.247 . S
O271 Cd267 2.439 . S
O271 C272 1.208 . S
C272 O270 1.247 . S
C272 O271 1.208 . S
C273 O278 1.247 . S
C273 O279 1.208 . S
C274 O266 1.315 . S
C274 O269 1.279 . S
C275 O276 1.315 . S
C275 O277 1.279 . S
O276 Cd268 2.223 . S
O276 C275 1.315 . S
O277 Cd267 2.240 . S
O277 C275 1.279 . S
O278 Cd268 2.297 . S
O278 C273 1.247 . S
O279 Cd268 2.439 . S
O279 C273 1.208 . S
O280 Cd281 2.223 . S
O280 C288 1.315 . S
Cd281 O280 2.223 . S
Cd281 O284 2.297 . S
Cd281 O285 2.439 . S
Cd281 O291 2.240 . S
Cd282 O283 2.240 . S
Cd282 O290 2.223 . S
Cd282 O292 2.297 . S
Cd282 O293 2.439 . S
O283 Cd282 2.240 . S
O283 C288 1.279 . S
O284 Cd281 2.297 . S
O284 C286 1.247 . S
O285 Cd281 2.439 . S
O285 C286 1.208 . S
C286 O284 1.247 . S
C286 O285 1.208 . S
C287 O292 1.247 . S
C287 O293 1.208 . S
C288 O280 1.315 . S
C288 O283 1.279 . S
C289 O290 1.315 . S
C289 O291 1.279 . S
O290 Cd282 2.223 . S
O290 C289 1.315 . S
O291 Cd281 2.240 . S
O291 C289 1.279 . S
O292 Cd282 2.297 . S
O292 C287 1.247 . S
O293 Cd282 2.439 . S
O293 C287 1.208 . S
O294 Cd295 2.223 . S
O294 C302 1.315 . S
Cd295 O294 2.223 . S
Cd295 O298 2.297 . S
Cd295 O299 2.439 . S
Cd295 O305 2.240 . S
Cd296 O297 2.240 . S
Cd296 O304 2.223 . S
Cd296 O306 2.297 . S
Cd296 O307 2.439 . S
O297 Cd296 2.240 . S
O297 C302 1.279 . S
O298 Cd295 2.297 . S
O298 C300 1.247 . S
O299 Cd295 2.439 . S
O299 C300 1.208 . S
C300 O298 1.247 . S
C300 O299 1.208 . S
C301 O306 1.247 . S
C301 O307 1.208 . S
C302 O294 1.315 . S
C302 O297 1.279 . S
C303 O304 1.315 . S
C303 O305 1.279 . S
O304 Cd296 2.223 . S
O304 C303 1.315 . S
O305 Cd295 2.240 . S
O305 C303 1.279 . S
O306 Cd296 2.297 . S
O306 C301 1.247 . S
O307 Cd296 2.439 . S
O307 C301 1.208 . S
O308 Cd309 2.223 . S
O308 C316 1.315 . S
Cd309 O308 2.223 . S
Cd309 O312 2.297 . S
Cd309 O313 2.439 . S
Cd309 O319 2.240 . S
Cd310 O311 2.240 . S
Cd310 O318 2.223 . S
Cd310 O320 2.297 . S
Cd310 O321 2.439 . S
O311 Cd310 2.240 . S
O311 C316 1.279 . S
O312 Cd309 2.297 . S
O312 C314 1.247 . S
O313 Cd309 2.439 . S
O313 C314 1.208 . S
C314 O312 1.247 . S
C314 O313 1.208 . S
C315 O320 1.247 . S
C315 O321 1.208 . S
C316 O308 1.315 . S
C316 O311 1.279 . S
C317 O318 1.315 . S
C317 O319 1.279 . S
O318 Cd310 2.223 . S
O318 C317 1.315 . S
O319 Cd309 2.240 . S
O319 C317 1.279 . S
O320 Cd310 2.297 . S
O320 C315 1.247 . S
O321 Cd310 2.439 . S
O321 C315 1.208 . S
O322 Cd323 2.223 . S
O322 C330 1.315 . S
Cd323 O322 2.223 . S
Cd323 O326 2.297 . S
Cd323 O327 2.439 . S
Cd323 O333 2.240 . S
Cd324 O325 2.240 . S
Cd324 O332 2.223 . S
Cd324 O334 2.297 . S
Cd324 O335 2.439 . S
O325 Cd324 2.240 . S
O325 C330 1.279 . S
O326 Cd323 2.297 . S
O326 C328 1.247 . S
O327 Cd323 2.439 . S
O327 C328 1.208 . S
C328 O326 1.247 . S
C328 O327 1.208 . S
C329 O334 1.247 . S
C329 O335 1.208 . S
C330 O322 1.315 . S
C330 O325 1.279 . S
C331 O332 1.315 . S
C331 O333 1.279 . S
O332 Cd324 2.223 . S
O332 C331 1.315 . S
O333 Cd323 2.240 . S
O333 C331 1.279 . S
O334 Cd324 2.297 . S
O334 C329 1.247 . S
O335 Cd324 2.439 . S
O335 C329 1.208 . S
O336 Cd337 2.223 . S
O336 C344 1.315 . S
Cd337 O336 2.223 . S
Cd337 O340 2.297 . S
Cd337 O341 2.439 . S
Cd337 O347 2.240 . S
Cd338 O339 2.240 . S
Cd338 O346 2.223 . S
Cd338 O348 2.297 . S
Cd338 O349 2.439 . S
O339 Cd338 2.240 . S
O339 C344 1.279 . S
O340 Cd337 2.297 . S
O340 C342 1.247 . S
O341 Cd337 2.439 . S
O341 C342 1.208 . S
C342 O340 1.247 . S
C342 O341 1.208 . S
C343 O348 1.247 . S
C343 O349 1.208 . S
C344 O336 1.315 . S
C344 O339 1.279 . S
C345 O346 1.315 . S
C345 O347 1.279 . S
O346 Cd338 2.223 . S
O346 C345 1.315 . S
O347 Cd337 2.240 . S
O347 C345 1.279 . S
O348 Cd338 2.297 . S
O348 C343 1.247 . S
O349 Cd338 2.439 . S
O349 C343 1.208 . S
O350 Cd351 2.223 . S
O350 C358 1.315 . S
Cd351 O350 2.223 . S
Cd351 O354 2.297 . S
Cd351 O355 2.439 . S
Cd351 O361 2.240 . S
Cd352 O353 2.240 . S
Cd352 O360 2.223 . S
Cd352 O362 2.297 . S
Cd352 O363 2.439 . S
O353 Cd352 2.240 . S
O353 C358 1.279 . S
O354 Cd351 2.297 . S
O354 C356 1.247 . S
O355 Cd351 2.439 . S
O355 C356 1.208 . S
C356 O354 1.247 . S
C356 O355 1.208 . S
C357 O362 1.247 . S
C357 O363 1.208 . S
C358 O350 1.315 . S
C358 O353 1.279 . S
C359 O360 1.315 . S
C359 O361 1.279 . S
O360 Cd352 2.223 . S
O360 C359 1.315 . S
O361 Cd351 2.240 . S
O361 C359 1.279 . S
O362 Cd352 2.297 . S
O362 C357 1.247 . S
O363 Cd352 2.439 . S
O363 C357 1.208 . S
O364 Cd365 2.223 . S
O364 C372 1.315 . S
Cd365 O364 2.223 . S
Cd365 O368 2.297 . S
Cd365 O369 2.439 . S
Cd365 O375 2.240 . S
Cd366 O367 2.240 . S
Cd366 O374 2.223 . S
Cd366 O376 2.297 . S
Cd366 O377 2.439 . S
O367 Cd366 2.240 . S
O367 C372 1.279 . S
O368 Cd365 2.297 . S
O368 C370 1.247 . S
O369 Cd365 2.439 . S
O369 C370 1.208 . S
C370 O368 1.247 . S
C370 O369 1.208 . S
C371 O376 1.247 . S
C371 O377 1.208 . S
C372 O364 1.315 . S
C372 O367 1.279 . S
C373 O374 1.315 . S
C373 O375 1.279 . S
O374 Cd366 2.223 . S
O374 C373 1.315 . S
O375 Cd365 2.240 . S
O375 C373 1.279 . S
O376 Cd366 2.297 . S
O376 C371 1.247 . S
O377 Cd366 2.439 . S
O377 C371 1.208 . S
O378 Cd379 2.223 . S
O378 C386 1.315 . S
Cd379 O378 2.223 . S
Cd379 O382 2.297 . S
Cd379 O383 2.439 . S
Cd379 O389 2.240 . S
Cd380 O381 2.240 . S
Cd380 O388 2.223 . S
Cd380 O390 2.297 . S
Cd380 O391 2.439 . S
O381 Cd380 2.240 . S
O381 C386 1.279 . S
O382 Cd379 2.297 . S
O382 C384 1.247 . S
O383 Cd379 2.439 . S
O383 C384 1.208 . S
C384 O382 1.247 . S
C384 O383 1.208 . S
C385 O390 1.247 . S
C385 O391 1.208 . S
C386 O378 1.315 . S
C386 O381 1.279 . S
C387 O388 1.315 . S
C387 O389 1.279 . S
O388 Cd380 2.223 . S
O388 C387 1.315 . S
O389 Cd379 2.240 . S
O389 C387 1.279 . S
O390 Cd380 2.297 . S
O390 C385 1.247 . S
O391 Cd380 2.439 . S
O391 C385 1.208 . S
O392 Cd393 2.223 . S
O392 C400 1.315 . S
Cd393 O392 2.223 . S
Cd393 O396 2.297 . S
Cd393 O397 2.439 . S
Cd393 O403 2.240 . S
Cd394 O395 2.240 . S
Cd394 O402 2.223 . S
Cd394 O404 2.297 . S
Cd394 O405 2.439 . S
O395 Cd394 2.240 . S
O395 C400 1.279 . S
O396 Cd393 2.297 . S
O396 C398 1.247 . S
O397 Cd393 2.439 . S
O397 C398 1.208 . S
C398 O396 1.247 . S
C398 O397 1.208 . S
C399 O404 1.247 . S
C399 O405 1.208 . S
C400 O392 1.315 . S
C400 O395 1.279 . S
C401 O402 1.315 . S
C401 O403 1.279 . S
O402 Cd394 2.223 . S
O402 C401 1.315 . S
O403 Cd393 2.240 . S
O403 C401 1.279 . S
O404 Cd394 2.297 . S
O404 C399 1.247 . S
O405 Cd394 2.439 . S
O405 C399 1.208 . S
O406 Cd407 2.223 . S
O406 C414 1.315 . S
Cd407 O406 2.223 . S
Cd407 O410 2.297 . S
Cd407 O411 2.439 . S
Cd407 O417 2.240 . S
Cd408 O409 2.240 . S
Cd408 O416 2.223 . S
Cd408 O418 2.297 . S
Cd408 O419 2.439 . S
O409 Cd408 2.240 . S
O409 C414 1.279 . S
O410 Cd407 2.297 . S
O410 C412 1.247 . S
O411 Cd407 2.439 . S
O411 C412 1.208 . S
C412 O410 1.247 . S
C412 O411 1.208 . S
C413 O418 1.247 . S
C413 O419 1.208 . S
C414 O406 1.315 . S
C414 O409 1.279 . S
C415 O416 1.315 . S
C415 O417 1.279 . S
O416 Cd408 2.223 . S
O416 C415 1.315 . S
O417 Cd407 2.240 . S
O417 C415 1.279 . S
O418 Cd408 2.297 . S
O418 C413 1.247 . S
O419 Cd408 2.439 . S
O419 C413 1.208 . S
O420 Cd421 2.223 . S
O420 C428 1.315 . S
Cd421 O420 2.223 . S
Cd421 O424 2.297 . S
Cd421 O425 2.439 . S
Cd421 O431 2.240 . S
Cd422 O423 2.240 . S
Cd422 O430 2.223 . S
Cd422 O432 2.297 . S
Cd422 O433 2.439 . S
O423 Cd422 2.240 . S
O423 C428 1.279 . S
O424 Cd421 2.297 . S
O424 C426 1.247 . S
O425 Cd421 2.439 . S
O425 C426 1.208 . S
C426 O424 1.247 . S
C426 O425 1.208 . S
C427 O432 1.247 . S
C427 O433 1.208 . S
C428 O420 1.315 . S
C428 O423 1.279 . S
C429 O430 1.315 . S
C429 O431 1.279 . S
O430 Cd422 2.223 . S
O430 C429 1.315 . S
O431 Cd421 2.240 . S
O431 C429 1.279 . S
O432 Cd422 2.297 . S
O432 C427 1.247 . S
O433 Cd422 2.439 . S
O433 C427 1.208 . S
O434 Cd435 2.223 . S
O434 C442 1.315 . S
Cd435 O434 2.223 . S
Cd435 O438 2.297 . S
Cd435 O439 2.439 . S
Cd435 O445 2.240 . S
Cd436 O437 2.240 . S
Cd436 O444 2.223 . S
Cd436 O446 2.297 . S
Cd436 O447 2.439 . S
O437 Cd436 2.240 . S
O437 C442 1.279 . S
O438 Cd435 2.297 . S
O438 C440 1.247 . S
O439 Cd435 2.439 . S
O439 C440 1.208 . S
C440 O438 1.247 . S
C440 O439 1.208 . S
C441 O446 1.247 . S
C441 O447 1.208 . S
C442 O434 1.315 . S
C442 O437 1.279 . S
C443 O444 1.315 . S
C443 O445 1.279 . S
O444 Cd436 2.223 . S
O444 C443 1.315 . S
O445 Cd435 2.240 . S
O445 C443 1.279 . S
O446 Cd436 2.297 . S
O446 C441 1.247 . S
O447 Cd436 2.439 . S
O447 C441 1.208 . S
H448 C454 0.930 . S
H449 C457 0.930 . S
H450 C458 0.930 . S
H451 C459 0.930 . S
H452 C462 0.930 . S
H453 C463 0.930 . S
C454 H448 0.930 . S
C454 C455 1.355 . S
C454 C456 1.415 . S
C455 C454 1.355 . S
C455 C457 1.419 . S
C456 C454 1.415 . S
C456 C461 1.425 . S
C456 C463 1.409 . S
C457 H449 0.930 . S
C457 C455 1.419 . S
C457 C458 1.362 . S
C458 H450 0.930 . S
C458 C457 1.362 . S
C458 C461 1.409 . S
C459 H451 0.930 . S
C459 C460 1.355 . S
C459 C461 1.415 . S
C460 C459 1.355 . S
C460 C462 1.419 . S
C461 C456 1.425 . S
C461 C458 1.409 . S
C461 C459 1.415 . S
C462 H452 0.930 . S
C462 C460 1.419 . S
C462 C463 1.362 . S
C463 H453 0.930 . S
C463 C456 1.409 . S
C463 C462 1.362 . S
H464 C470 0.930 . S
H465 C473 0.930 . S
H466 C474 0.930 . S
H467 C475 0.930 . S
H468 C478 0.930 . S
H469 C479 0.930 . S
C470 H464 0.930 . S
C470 C471 1.355 . S
C470 C472 1.415 . S
C471 C470 1.355 . S
C471 C473 1.419 . S
C472 C470 1.415 . S
C472 C477 1.425 . S
C472 C479 1.409 . S
C473 H465 0.930 . S
C473 C471 1.419 . S
C473 C474 1.362 . S
C474 H466 0.930 . S
C474 C473 1.362 . S
C474 C477 1.409 . S
C475 H467 0.930 . S
C475 C476 1.355 . S
C475 C477 1.415 . S
C476 C475 1.355 . S
C476 C478 1.419 . S
C477 C472 1.425 . S
C477 C474 1.409 . S
C477 C475 1.415 . S
C478 H468 0.930 . S
C478 C476 1.419 . S
C478 C479 1.362 . S
C479 H469 0.930 . S
C479 C472 1.409 . S
C479 C478 1.362 . S
H480 C486 0.930 . S
H481 C489 0.930 . S
H482 C490 0.930 . S
H483 C491 0.930 . S
H484 C494 0.930 . S
H485 C495 0.930 . S
C486 H480 0.930 . S
C486 C487 1.355 . S
C486 C488 1.415 . S
C487 C486 1.355 . S
C487 C489 1.419 . S
C488 C486 1.415 . S
C488 C493 1.425 . S
C488 C495 1.409 . S
C489 H481 0.930 . S
C489 C487 1.419 . S
C489 C490 1.362 . S
C490 H482 0.930 . S
C490 C489 1.362 . S
C490 C493 1.409 . S
C491 H483 0.930 . S
C491 C492 1.355 . S
C491 C493 1.415 . S
C492 C491 1.355 . S
C492 C494 1.419 . S
C493 C488 1.425 . S
C493 C490 1.409 . S
C493 C491 1.415 . S
C494 H484 0.930 . S
C494 C492 1.419 . S
C494 C495 1.362 . S
C495 H485 0.930 . S
C495 C488 1.409 . S
C495 C494 1.362 . S
H496 C502 0.930 . S
H497 C505 0.930 . S
H498 C506 0.930 . S
H499 C507 0.930 . S
H500 C510 0.930 . S
H501 C511 0.930 . S
C502 H496 0.930 . S
C502 C503 1.355 . S
C502 C504 1.415 . S
C503 C502 1.355 . S
C503 C505 1.419 . S
C504 C502 1.415 . S
C504 C509 1.425 . S
C504 C511 1.409 . S
C505 H497 0.930 . S
C505 C503 1.419 . S
C505 C506 1.362 . S
C506 H498 0.930 . S
C506 C505 1.362 . S
C506 C509 1.409 . S
C507 H499 0.930 . S
C507 C508 1.355 . S
C507 C509 1.415 . S
C508 C507 1.355 . S
C508 C510 1.419 . S
C509 C504 1.425 . S
C509 C506 1.409 . S
C509 C507 1.415 . S
C510 H500 0.930 . S
C510 C508 1.419 . S
C510 C511 1.362 . S
C511 H501 0.930 . S
C511 C504 1.409 . S
C511 C510 1.362 . S
H512 C518 0.930 . S
H513 C521 0.930 . S
H514 C522 0.930 . S
H515 C523 0.930 . S
H516 C526 0.930 . S
H517 C527 0.930 . S
C518 H512 0.930 . S
C518 C519 1.355 . S
C518 C520 1.415 . S
C519 C518 1.355 . S
C519 C521 1.419 . S
C520 C518 1.415 . S
C520 C525 1.425 . S
C520 C527 1.409 . S
C521 H513 0.930 . S
C521 C519 1.419 . S
C521 C522 1.362 . S
C522 H514 0.930 . S
C522 C521 1.362 . S
C522 C525 1.409 . S
C523 H515 0.930 . S
C523 C524 1.355 . S
C523 C525 1.415 . S
C524 C523 1.355 . S
C524 C526 1.419 . S
C525 C520 1.425 . S
C525 C522 1.409 . S
C525 C523 1.415 . S
C526 H516 0.930 . S
C526 C524 1.419 . S
C526 C527 1.362 . S
C527 H517 0.930 . S
C527 C520 1.409 . S
C527 C526 1.362 . S
H528 C534 0.930 . S
H529 C537 0.930 . S
H530 C538 0.930 . S
H531 C539 0.930 . S
H532 C542 0.930 . S
H533 C543 0.930 . S
C534 H528 0.930 . S
C534 C535 1.355 . S
C534 C536 1.415 . S
C535 C534 1.355 . S
C535 C537 1.419 . S
C536 C534 1.415 . S
C536 C541 1.425 . S
C536 C543 1.409 . S
C537 H529 0.930 . S
C537 C535 1.419 . S
C537 C538 1.362 . S
C538 H530 0.930 . S
C538 C537 1.362 . S
C538 C541 1.409 . S
C539 H531 0.930 . S
C539 C540 1.355 . S
C539 C541 1.415 . S
C540 C539 1.355 . S
C540 C542 1.419 . S
C541 C536 1.425 . S
C541 C538 1.409 . S
C541 C539 1.415 . S
C542 H532 0.930 . S
C542 C540 1.419 . S
C542 C543 1.362 . S
C543 H533 0.930 . S
C543 C536 1.409 . S
C543 C542 1.362 . S
H544 C550 0.930 . S
H545 C553 0.930 . S
H546 C554 0.930 . S
H547 C555 0.930 . S
H548 C558 0.930 . S
H549 C559 0.930 . S
C550 H544 0.930 . S
C550 C551 1.355 . S
C550 C552 1.415 . S
C551 C550 1.355 . S
C551 C553 1.419 . S
C552 C550 1.415 . S
C552 C557 1.425 . S
C552 C559 1.409 . S
C553 H545 0.930 . S
C553 C551 1.419 . S
C553 C554 1.362 . S
C554 H546 0.930 . S
C554 C553 1.362 . S
C554 C557 1.409 . S
C555 H547 0.930 . S
C555 C556 1.355 . S
C555 C557 1.415 . S
C556 C555 1.355 . S
C556 C558 1.419 . S
C557 C552 1.425 . S
C557 C554 1.409 . S
C557 C555 1.415 . S
C558 H548 0.930 . S
C558 C556 1.419 . S
C558 C559 1.362 . S
C559 H549 0.930 . S
C559 C552 1.409 . S
C559 C558 1.362 . S
H560 C566 0.930 . S
H561 C569 0.930 . S
H562 C570 0.930 . S
H563 C571 0.930 . S
H564 C574 0.930 . S
H565 C575 0.930 . S
C566 H560 0.930 . S
C566 C567 1.355 . S
C566 C568 1.415 . S
C567 C566 1.355 . S
C567 C569 1.419 . S
C568 C566 1.415 . S
C568 C573 1.425 . S
C568 C575 1.409 . S
C569 H561 0.930 . S
C569 C567 1.419 . S
C569 C570 1.362 . S
C570 H562 0.930 . S
C570 C569 1.362 . S
C570 C573 1.409 . S
C571 H563 0.930 . S
C571 C572 1.355 . S
C571 C573 1.415 . S
C572 C571 1.355 . S
C572 C574 1.419 . S
C573 C568 1.425 . S
C573 C570 1.409 . S
C573 C571 1.415 . S
C574 H564 0.930 . S
C574 C572 1.419 . S
C574 C575 1.362 . S
C575 H565 0.930 . S
C575 C568 1.409 . S
C575 C574 1.362 . S
H576 C582 0.930 . S
H577 C585 0.930 . S
H578 C586 0.930 . S
H579 C587 0.930 . S
H580 C590 0.930 . S
H581 C591 0.930 . S
C582 H576 0.930 . S
C582 C583 1.355 . S
C582 C584 1.415 . S
C583 C582 1.355 . S
C583 C585 1.419 . S
C584 C582 1.415 . S
C584 C589 1.425 . S
C584 C591 1.409 . S
C585 H577 0.930 . S
C585 C583 1.419 . S
C585 C586 1.362 . S
C586 H578 0.930 . S
C586 C585 1.362 . S
C586 C589 1.409 . S
C587 H579 0.930 . S
C587 C588 1.355 . S
C587 C589 1.415 . S
C588 C587 1.355 . S
C588 C590 1.419 . S
C589 C584 1.425 . S
C589 C586 1.409 . S
C589 C587 1.415 . S
C590 H580 0.930 . S
C590 C588 1.419 . S
C590 C591 1.362 . S
C591 H581 0.930 . S
C591 C584 1.409 . S
C591 C590 1.362 . S
H592 C598 0.930 . S
H593 C601 0.930 . S
H594 C602 0.930 . S
H595 C603 0.930 . S
H596 C606 0.930 . S
H597 C607 0.930 . S
C598 H592 0.930 . S
C598 C599 1.355 . S
C598 C600 1.415 . S
C599 C598 1.355 . S
C599 C601 1.419 . S
C600 C598 1.415 . S
C600 C605 1.425 . S
C600 C607 1.409 . S
C601 H593 0.930 . S
C601 C599 1.419 . S
C601 C602 1.362 . S
C602 H594 0.930 . S
C602 C601 1.362 . S
C602 C605 1.409 . S
C603 H595 0.930 . S
C603 C604 1.355 . S
C603 C605 1.415 . S
C604 C603 1.355 . S
C604 C606 1.419 . S
C605 C600 1.425 . S
C605 C602 1.409 . S
C605 C603 1.415 . S
C606 H596 0.930 . S
C606 C604 1.419 . S
C606 C607 1.362 . S
C607 H597 0.930 . S
C607 C600 1.409 . S
C607 C606 1.362 . S
H608 C614 0.930 . S
H609 C617 0.930 . S
H610 C618 0.930 . S
H611 C619 0.930 . S
H612 C622 0.930 . S
H613 C623 0.930 . S
C614 H608 0.930 . S
C614 C615 1.355 . S
C614 C616 1.415 . S
C615 C614 1.355 . S
C615 C617 1.419 . S
C616 C614 1.415 . S
C616 C621 1.425 . S
C616 C623 1.409 . S
C617 H609 0.930 . S
C617 C615 1.419 . S
C617 C618 1.362 . S
C618 H610 0.930 . S
C618 C617 1.362 . S
C618 C621 1.409 . S
C619 H611 0.930 . S
C619 C620 1.355 . S
C619 C621 1.415 . S
C620 C619 1.355 . S
C620 C622 1.419 . S
C621 C616 1.425 . S
C621 C618 1.409 . S
C621 C619 1.415 . S
C622 H612 0.930 . S
C622 C620 1.419 . S
C622 C623 1.362 . S
C623 H613 0.930 . S
C623 C616 1.409 . S
C623 C622 1.362 . S
H624 C630 0.930 . S
H625 C633 0.930 . S
H626 C634 0.930 . S
H627 C635 0.930 . S
H628 C638 0.930 . S
H629 C639 0.930 . S
C630 H624 0.930 . S
C630 C631 1.355 . S
C630 C632 1.415 . S
C631 C630 1.355 . S
C631 C633 1.419 . S
C632 C630 1.415 . S
C632 C637 1.425 . S
C632 C639 1.409 . S
C633 H625 0.930 . S
C633 C631 1.419 . S
C633 C634 1.362 . S
C634 H626 0.930 . S
C634 C633 1.362 . S
C634 C637 1.409 . S
C635 H627 0.930 . S
C635 C636 1.355 . S
C635 C637 1.415 . S
C636 C635 1.355 . S
C636 C638 1.419 . S
C637 C632 1.425 . S
C637 C634 1.409 . S
C637 C635 1.415 . S
C638 H628 0.930 . S
C638 C636 1.419 . S
C638 C639 1.362 . S
C639 H629 0.930 . S
C639 C632 1.409 . S
C639 C638 1.362 . S
H640 C646 0.930 . S
H641 C649 0.930 . S
H642 C650 0.930 . S
H643 C651 0.930 . S
H644 C654 0.930 . S
H645 C655 0.930 . S
C646 H640 0.930 . S
C646 C647 1.355 . S
C646 C648 1.415 . S
C647 C646 1.355 . S
C647 C649 1.419 . S
C648 C646 1.415 . S
C648 C653 1.425 . S
C648 C655 1.409 . S
C649 H641 0.930 . S
C649 C647 1.419 . S
C649 C650 1.362 . S
C650 H642 0.930 . S
C650 C649 1.362 . S
C650 C653 1.409 . S
C651 H643 0.930 . S
C651 C652 1.355 . S
C651 C653 1.415 . S
C652 C651 1.355 . S
C652 C654 1.419 . S
C653 C648 1.425 . S
C653 C650 1.409 . S
C653 C651 1.415 . S
C654 H644 0.930 . S
C654 C652 1.419 . S
C654 C655 1.362 . S
C655 H645 0.930 . S
C655 C648 1.409 . S
C655 C654 1.362 . S
H656 C662 0.930 . S
H657 C665 0.930 . S
H658 C666 0.930 . S
H659 C667 0.930 . S
H660 C670 0.930 . S
H661 C671 0.930 . S
C662 H656 0.930 . S
C662 C663 1.355 . S
C662 C664 1.415 . S
C663 C662 1.355 . S
C663 C665 1.419 . S
C664 C662 1.415 . S
C664 C669 1.425 . S
C664 C671 1.409 . S
C665 H657 0.930 . S
C665 C663 1.419 . S
C665 C666 1.362 . S
C666 H658 0.930 . S
C666 C665 1.362 . S
C666 C669 1.409 . S
C667 H659 0.930 . S
C667 C668 1.355 . S
C667 C669 1.415 . S
C668 C667 1.355 . S
C668 C670 1.419 . S
C669 C664 1.425 . S
C669 C666 1.409 . S
C669 C667 1.415 . S
C670 H660 0.930 . S
C670 C668 1.419 . S
C670 C671 1.362 . S
C671 H661 0.930 . S
C671 C664 1.409 . S
C671 C670 1.362 . S
H672 C678 0.930 . S
H673 C681 0.930 . S
H674 C682 0.930 . S
H675 C683 0.930 . S
H676 C686 0.930 . S
H677 C687 0.930 . S
C678 H672 0.930 . S
C678 C679 1.355 . S
C678 C680 1.415 . S
C679 C678 1.355 . S
C679 C681 1.419 . S
C680 C678 1.415 . S
C680 C685 1.425 . S
C680 C687 1.409 . S
C681 H673 0.930 . S
C681 C679 1.419 . S
C681 C682 1.362 . S
C682 H674 0.930 . S
C682 C681 1.362 . S
C682 C685 1.409 . S
C683 H675 0.930 . S
C683 C684 1.355 . S
C683 C685 1.415 . S
C684 C683 1.355 . S
C684 C686 1.419 . S
C685 C680 1.425 . S
C685 C682 1.409 . S
C685 C683 1.415 . S
C686 H676 0.930 . S
C686 C684 1.419 . S
C686 C687 1.362 . S
C687 H677 0.930 . S
C687 C680 1.409 . S
C687 C686 1.362 . S
H688 C694 0.930 . S
H689 C697 0.930 . S
H690 C698 0.930 . S
H691 C699 0.930 . S
H692 C702 0.930 . S
H693 C703 0.930 . S
C694 H688 0.930 . S
C694 C695 1.355 . S
C694 C696 1.415 . S
C695 C694 1.355 . S
C695 C697 1.419 . S
C696 C694 1.415 . S
C696 C701 1.425 . S
C696 C703 1.409 . S
C697 H689 0.930 . S
C697 C695 1.419 . S
C697 C698 1.362 . S
C698 H690 0.930 . S
C698 C697 1.362 . S
C698 C701 1.409 . S
C699 H691 0.930 . S
C699 C700 1.355 . S
C699 C701 1.415 . S
C700 C699 1.355 . S
C700 C702 1.419 . S
C701 C696 1.425 . S
C701 C698 1.409 . S
C701 C699 1.415 . S
C702 H692 0.930 . S
C702 C700 1.419 . S
C702 C703 1.362 . S
C703 H693 0.930 . S
C703 C696 1.409 . S
C703 C702 1.362 . S
H704 C710 0.930 . S
H705 C713 0.930 . S
H706 C714 0.930 . S
H707 C715 0.930 . S
H708 C718 0.930 . S
H709 C719 0.930 . S
C710 H704 0.930 . S
C710 C711 1.355 . S
C710 C712 1.415 . S
C711 C710 1.355 . S
C711 C713 1.419 . S
C712 C710 1.415 . S
C712 C717 1.425 1_655 S
C712 C719 1.409 1_655 S
C713 H705 0.930 . S
C713 C711 1.419 . S
C713 C714 1.362 . S
C714 H706 0.930 . S
C714 C713 1.362 . S
C714 C717 1.409 1_655 S
C715 H707 0.930 . S
C715 C716 1.355 . S
C715 C717 1.415 . S
C716 C715 1.355 . S
C716 C718 1.419 . S
C717 C712 1.425 1_455 S
C717 C714 1.409 1_455 S
C717 C715 1.415 . S
C718 H708 0.930 . S
C718 C716 1.419 . S
C718 C719 1.362 . S
C719 H709 0.930 . S
C719 C712 1.409 1_455 S
C719 C718 1.362 . S
H720 C726 0.930 . S
H721 C729 0.930 . S
H722 C730 0.930 . S
H723 C731 0.930 . S
H724 C734 0.930 . S
H725 C735 0.930 . S
C726 H720 0.930 . S
C726 C727 1.355 . S
C726 C728 1.415 . S
C727 C726 1.355 . S
C727 C729 1.419 . S
C728 C726 1.415 . S
C728 C733 1.425 1_545 S
C728 C735 1.409 1_545 S
C729 H721 0.930 . S
C729 C727 1.419 . S
C729 C730 1.362 . S
C730 H722 0.930 . S
C730 C729 1.362 . S
C730 C733 1.409 1_545 S
C731 H723 0.930 . S
C731 C732 1.355 . S
C731 C733 1.415 . S
C732 C731 1.355 . S
C732 C734 1.419 . S
C733 C728 1.425 1_565 S
C733 C730 1.409 1_565 S
C733 C731 1.415 . S
C734 H724 0.930 . S
C734 C732 1.419 . S
C734 C735 1.362 . S
C735 H725 0.930 . S
C735 C728 1.409 1_565 S
C735 C734 1.362 . S
H736 C742 0.930 . S
H737 C745 0.930 . S
H738 C746 0.930 . S
H739 C747 0.930 . S
H740 C750 0.930 . S
H741 C751 0.930 . S
C742 H736 0.930 . S
C742 C743 1.355 . S
C742 C744 1.415 . S
C743 C742 1.355 . S
C743 C745 1.419 . S
C744 C742 1.415 . S
C744 C749 1.425 1_455 S
C744 C751 1.409 1_455 S
C745 H737 0.930 . S
C745 C743 1.419 . S
C745 C746 1.362 . S
C746 H738 0.930 . S
C746 C745 1.362 . S
C746 C749 1.409 1_455 S
C747 H739 0.930 . S
C747 C748 1.355 . S
C747 C749 1.415 . S
C748 C747 1.355 . S
C748 C750 1.419 . S
C749 C744 1.425 1_655 S
C749 C746 1.409 1_655 S
C749 C747 1.415 . S
C750 H740 0.930 . S
C750 C748 1.419 . S
C750 C751 1.362 . S
C751 H741 0.930 . S
C751 C744 1.409 1_655 S
C751 C750 1.362 . S
H752 C758 0.930 . S
H753 C761 0.930 . S
H754 C762 0.930 . S
H755 C763 0.930 . S
H756 C766 0.930 . S
H757 C767 0.930 . S
C758 H752 0.930 . S
C758 C759 1.355 . S
C758 C760 1.415 . S
C759 C758 1.355 . S
C759 C761 1.419 . S
C760 C758 1.415 . S
C760 C765 1.425 1_565 S
C760 C767 1.409 1_565 S
C761 H753 0.930 . S
C761 C759 1.419 . S
C761 C762 1.362 . S
C762 H754 0.930 . S
C762 C761 1.362 . S
C762 C765 1.409 1_565 S
C763 H755 0.930 . S
C763 C764 1.355 . S
C763 C765 1.415 . S
C764 C763 1.355 . S
C764 C766 1.419 . S
C765 C760 1.425 1_545 S
C765 C762 1.409 1_545 S
C765 C763 1.415 . S
C766 H756 0.930 . S
C766 C764 1.419 . S
C766 C767 1.362 . S
C767 H757 0.930 . S
C767 C760 1.409 1_545 S
C767 C766 1.362 . S
H768 C774 0.930 . S
H769 C777 0.930 . S
H770 C778 0.930 . S
H771 C779 0.930 . S
H772 C782 0.930 . S
H773 C783 0.930 . S
C774 H768 0.930 . S
C774 C775 1.355 . S
C774 C776 1.415 . S
C775 C774 1.355 . S
C775 C777 1.419 . S
C776 C774 1.415 . S
C776 C781 1.425 1_455 S
C776 C783 1.409 1_455 S
C777 H769 0.930 . S
C777 C775 1.419 . S
C777 C778 1.362 . S
C778 H770 0.930 . S
C778 C777 1.362 . S
C778 C781 1.409 1_455 S
C779 H771 0.930 . S
C779 C780 1.355 . S
C779 C781 1.415 . S
C780 C779 1.355 . S
C780 C782 1.419 . S
C781 C776 1.425 1_655 S
C781 C778 1.409 1_655 S
C781 C779 1.415 . S
C782 H772 0.930 . S
C782 C780 1.419 . S
C782 C783 1.362 . S
C783 H773 0.930 . S
C783 C776 1.409 1_655 S
C783 C782 1.362 . S
H784 C790 0.930 . S
H785 C793 0.930 . S
H786 C794 0.930 . S
H787 C795 0.930 . S
H788 C798 0.930 . S
H789 C799 0.930 . S
C790 H784 0.930 . S
C790 C791 1.355 . S
C790 C792 1.415 . S
C791 C790 1.355 . S
C791 C793 1.419 . S
C792 C790 1.415 . S
C792 C797 1.425 1_565 S
C792 C799 1.409 1_565 S
C793 H785 0.930 . S
C793 C791 1.419 . S
C793 C794 1.362 . S
C794 H786 0.930 . S
C794 C793 1.362 . S
C794 C797 1.409 1_565 S
C795 H787 0.930 . S
C795 C796 1.355 . S
C795 C797 1.415 . S
C796 C795 1.355 . S
C796 C798 1.419 . S
C797 C792 1.425 1_545 S
C797 C794 1.409 1_545 S
C797 C795 1.415 . S
C798 H788 0.930 . S
C798 C796 1.419 . S
C798 C799 1.362 . S
C799 H789 0.930 . S
C799 C792 1.409 1_545 S
C799 C798 1.362 . S
H800 C806 0.930 . S
H801 C809 0.930 . S
H802 C810 0.930 . S
H803 C811 0.930 . S
H804 C814 0.930 . S
H805 C815 0.930 . S
C806 H800 0.930 . S
C806 C807 1.355 . S
C806 C808 1.415 . S
C807 C806 1.355 . S
C807 C809 1.419 . S
C808 C806 1.415 . S
C808 C813 1.425 1_455 S
C808 C815 1.409 1_455 S
C809 H801 0.930 . S
C809 C807 1.419 . S
C809 C810 1.362 . S
C810 H802 0.930 . S
C810 C809 1.362 . S
C810 C813 1.409 1_455 S
C811 H803 0.930 . S
C811 C812 1.355 . S
C811 C813 1.415 . S
C812 C811 1.355 . S
C812 C814 1.419 . S
C813 C808 1.425 1_655 S
C813 C810 1.409 1_655 S
C813 C811 1.415 . S
C814 H804 0.930 . S
C814 C812 1.419 . S
C814 C815 1.362 . S
C815 H805 0.930 . S
C815 C808 1.409 1_655 S
C815 C814 1.362 . S
H816 C822 0.930 . S
H817 C825 0.930 . S
H818 C826 0.930 . S
H819 C827 0.930 . S
H820 C830 0.930 . S
H821 C831 0.930 . S
C822 H816 0.930 . S
C822 C823 1.355 . S
C822 C824 1.415 . S
C823 C822 1.355 . S
C823 C825 1.419 . S
C824 C822 1.415 . S
C824 C829 1.425 1_545 S
C824 C831 1.409 1_545 S
C825 H817 0.930 . S
C825 C823 1.419 . S
C825 C826 1.362 . S
C826 H818 0.930 . S
C826 C825 1.362 . S
C826 C829 1.409 1_545 S
C827 H819 0.930 . S
C827 C828 1.355 . S
C827 C829 1.415 . S
C828 C827 1.355 . S
C828 C830 1.419 . S
C829 C824 1.425 1_565 S
C829 C826 1.409 1_565 S
C829 C827 1.415 . S
C830 H820 0.930 . S
C830 C828 1.419 . S
C830 C831 1.362 . S
C831 H821 0.930 . S
C831 C824 1.409 1_565 S
C831 C830 1.362 . S
H832 C838 0.930 . S
H833 C841 0.930 . S
H834 C842 0.930 . S
H835 C843 0.930 . S
H836 C846 0.930 . S
H837 C847 0.930 . S
C838 H832 0.930 . S
C838 C839 1.355 . S
C838 C840 1.415 . S
C839 C838 1.355 . S
C839 C841 1.419 . S
C840 C838 1.415 . S
C840 C845 1.425 . S
C840 C847 1.409 . S
C841 H833 0.930 . S
C841 C839 1.419 . S
C841 C842 1.362 . S
C842 H834 0.930 . S
C842 C841 1.362 . S
C842 C845 1.409 . S
C843 H835 0.930 . S
C843 C844 1.355 . S
C843 C845 1.415 . S
C844 C843 1.355 . S
C844 C846 1.419 . S
C845 C840 1.425 . S
C845 C842 1.409 . S
C845 C843 1.415 . S
C846 H836 0.930 . S
C846 C844 1.419 . S
C846 C847 1.362 . S
C847 H837 0.930 . S
C847 C840 1.409 . S
C847 C846 1.362 . S
H848 C854 0.930 . S
H849 C857 0.930 . S
H850 C858 0.930 . S
H851 C859 0.930 . S
H852 C862 0.930 . S
H853 C863 0.930 . S
C854 H848 0.930 . S
C854 C855 1.355 . S
C854 C856 1.415 . S
C855 C854 1.355 . S
C855 C857 1.419 . S
C856 C854 1.415 . S
C856 C861 1.425 . S
C856 C863 1.409 . S
C857 H849 0.930 . S
C857 C855 1.419 . S
C857 C858 1.362 . S
C858 H850 0.930 . S
C858 C857 1.362 . S
C858 C861 1.409 . S
C859 H851 0.930 . S
C859 C860 1.355 . S
C859 C861 1.415 . S
C860 C859 1.355 . S
C860 C862 1.419 . S
C861 C856 1.425 . S
C861 C858 1.409 . S
C861 C859 1.415 . S
C862 H852 0.930 . S
C862 C860 1.419 . S
C862 C863 1.362 . S
C863 H853 0.930 . S
C863 C856 1.409 . S
C863 C862 1.362 . S
H864 C870 0.930 . S
H865 C873 0.930 . S
H866 C874 0.930 . S
H867 C875 0.930 . S
H868 C878 0.930 . S
H869 C879 0.930 . S
C870 H864 0.930 . S
C870 C871 1.355 . S
C870 C872 1.415 . S
C871 C870 1.355 . S
C871 C873 1.419 . S
C872 C870 1.415 . S
C872 C877 1.425 . S
C872 C879 1.409 . S
C873 H865 0.930 . S
C873 C871 1.419 . S
C873 C874 1.362 . S
C874 H866 0.930 . S
C874 C873 1.362 . S
C874 C877 1.409 . S
C875 H867 0.930 . S
C875 C876 1.355 . S
C875 C877 1.415 . S
C876 C875 1.355 . S
C876 C878 1.419 . S
C877 C872 1.425 . S
C877 C874 1.409 . S
C877 C875 1.415 . S
C878 H868 0.930 . S
C878 C876 1.419 . S
C878 C879 1.362 . S
C879 H869 0.930 . S
C879 C872 1.409 . S
C879 C878 1.362 . S
H880 C886 0.930 . S
H881 C889 0.930 . S
H882 C890 0.930 . S
H883 C891 0.930 . S
H884 C894 0.930 . S
H885 C895 0.930 . S
C886 H880 0.930 . S
C886 C887 1.355 . S
C886 C888 1.415 . S
C887 C886 1.355 . S
C887 C889 1.419 . S
C888 C886 1.415 . S
C888 C893 1.425 . S
C888 C895 1.409 . S
C889 H881 0.930 . S
C889 C887 1.419 . S
C889 C890 1.362 . S
C890 H882 0.930 . S
C890 C889 1.362 . S
C890 C893 1.409 . S
C891 H883 0.930 . S
C891 C892 1.355 . S
C891 C893 1.415 . S
C892 C891 1.355 . S
C892 C894 1.419 . S
C893 C888 1.425 . S
C893 C890 1.409 . S
C893 C891 1.415 . S
C894 H884 0.930 . S
C894 C892 1.419 . S
C894 C895 1.362 . S
C895 H885 0.930 . S
C895 C888 1.409 . S
C895 C894 1.362 . S
H896 C902 0.930 . S
H897 C905 0.930 . S
H898 C906 0.930 . S
H899 C907 0.930 . S
H900 C910 0.930 . S
H901 C911 0.930 . S
C902 H896 0.930 . S
C902 C903 1.355 . S
C902 C904 1.415 . S
C903 C902 1.355 . S
C903 C905 1.419 . S
C904 C902 1.415 . S
C904 C909 1.425 . S
C904 C911 1.409 . S
C905 H897 0.930 . S
C905 C903 1.419 . S
C905 C906 1.362 . S
C906 H898 0.930 . S
C906 C905 1.362 . S
C906 C909 1.409 . S
C907 H899 0.930 . S
C907 C908 1.355 . S
C907 C909 1.415 . S
C908 C907 1.355 . S
C908 C910 1.419 . S
C909 C904 1.425 . S
C909 C906 1.409 . S
C909 C907 1.415 . S
C910 H900 0.930 . S
C910 C908 1.419 . S
C910 C911 1.362 . S
C911 H901 0.930 . S
C911 C904 1.409 . S
C911 C910 1.362 . S
H912 C918 0.930 . S
H913 C921 0.930 . S
H914 C922 0.930 . S
H915 C923 0.930 . S
H916 C926 0.930 . S
H917 C927 0.930 . S
C918 H912 0.930 . S
C918 C919 1.355 . S
C918 C920 1.415 . S
C919 C918 1.355 . S
C919 C921 1.419 . S
C920 C918 1.415 . S
C920 C925 1.425 . S
C920 C927 1.409 . S
C921 H913 0.930 . S
C921 C919 1.419 . S
C921 C922 1.362 . S
C922 H914 0.930 . S
C922 C921 1.362 . S
C922 C925 1.409 . S
C923 H915 0.930 . S
C923 C924 1.355 . S
C923 C925 1.415 . S
C924 C923 1.355 . S
C924 C926 1.419 . S
C925 C920 1.425 . S
C925 C922 1.409 . S
C925 C923 1.415 . S
C926 H916 0.930 . S
C926 C924 1.419 . S
C926 C927 1.362 . S
C927 H917 0.930 . S
C927 C920 1.409 . S
C927 C926 1.362 . S
H928 C934 0.930 . S
H929 C937 0.930 . S
H930 C938 0.930 . S
H931 C939 0.930 . S
H932 C942 0.930 . S
H933 C943 0.930 . S
C934 H928 0.930 . S
C934 C935 1.355 . S
C934 C936 1.415 . S
C935 C934 1.355 . S
C935 C937 1.419 . S
C936 C934 1.415 . S
C936 C941 1.425 . S
C936 C943 1.409 . S
C937 H929 0.930 . S
C937 C935 1.419 . S
C937 C938 1.362 . S
C938 H930 0.930 . S
C938 C937 1.362 . S
C938 C941 1.409 . S
C939 H931 0.930 . S
C939 C940 1.355 . S
C939 C941 1.415 . S
C940 C939 1.355 . S
C940 C942 1.419 . S
C941 C936 1.425 . S
C941 C938 1.409 . S
C941 C939 1.415 . S
C942 H932 0.930 . S
C942 C940 1.419 . S
C942 C943 1.362 . S
C943 H933 0.930 . S
C943 C936 1.409 . S
C943 C942 1.362 . S
H944 C950 0.930 . S
H945 C953 0.930 . S
H946 C954 0.930 . S
H947 C955 0.930 . S
H948 C958 0.930 . S
H949 C959 0.930 . S
C950 H944 0.930 . S
C950 C951 1.355 . S
C950 C952 1.415 . S
C951 C950 1.355 . S
C951 C953 1.419 . S
C952 C950 1.415 . S
C952 C957 1.425 . S
C952 C959 1.409 . S
C953 H945 0.930 . S
C953 C951 1.419 . S
C953 C954 1.362 . S
C954 H946 0.930 . S
C954 C953 1.362 . S
C954 C957 1.409 . S
C955 H947 0.930 . S
C955 C956 1.355 . S
C955 C957 1.415 . S
C956 C955 1.355 . S
C956 C958 1.419 . S
C957 C952 1.425 . S
C957 C954 1.409 . S
C957 C955 1.415 . S
C958 H948 0.930 . S
C958 C956 1.419 . S
C958 C959 1.362 . S
C959 H949 0.930 . S
C959 C952 1.409 . S
C959 C958 1.362 . S
H960 C966 0.930 . S
H961 C969 0.930 . S
H962 C970 0.930 . S
H963 C971 0.930 . S
H964 C974 0.930 . S
H965 C975 0.930 . S
C966 H960 0.930 . S
C966 C967 1.355 . S
C966 C968 1.415 . S
C967 C966 1.355 . S
C967 C969 1.419 . S
C968 C966 1.415 . S
C968 C973 1.425 . S
C968 C975 1.409 . S
C969 H961 0.930 . S
C969 C967 1.419 . S
C969 C970 1.362 . S
C970 H962 0.930 . S
C970 C969 1.362 . S
C970 C973 1.409 . S
C971 H963 0.930 . S
C971 C972 1.355 . S
C971 C973 1.415 . S
C972 C971 1.355 . S
C972 C974 1.419 . S
C973 C968 1.425 . S
C973 C970 1.409 . S
C973 C971 1.415 . S
C974 H964 0.930 . S
C974 C972 1.419 . S
C974 C975 1.362 . S
C975 H965 0.930 . S
C975 C968 1.409 . S
C975 C974 1.362 . S
H976 C982 0.930 . S
H977 C985 0.930 . S
H978 C986 0.930 . S
H979 C987 0.930 . S
H980 C990 0.930 . S
H981 C991 0.930 . S
C982 H976 0.930 . S
C982 C983 1.355 . S
C982 C984 1.415 . S
C983 C982 1.355 . S
C983 C985 1.419 . S
C984 C982 1.415 . S
C984 C989 1.425 . S
C984 C991 1.409 . S
C985 H977 0.930 . S
C985 C983 1.419 . S
C985 C986 1.362 . S
C986 H978 0.930 . S
C986 C985 1.362 . S
C986 C989 1.409 . S
C987 H979 0.930 . S
C987 C988 1.355 . S
C987 C989 1.415 . S
C988 C987 1.355 . S
C988 C990 1.419 . S
C989 C984 1.425 . S
C989 C986 1.409 . S
C989 C987 1.415 . S
C990 H980 0.930 . S
C990 C988 1.419 . S
C990 C991 1.362 . S
C991 H981 0.930 . S
C991 C984 1.409 . S
C991 C990 1.362 . S
H992 C998 0.930 . S
H993 C1001 0.930 . S
H994 C1002 0.930 . S
H995 C1003 0.930 . S
H996 C1006 0.930 . S
H997 C1007 0.930 . S
C998 H992 0.930 . S
C998 C999 1.355 . S
C998 C1000 1.415 . S
C999 C998 1.355 . S
C999 C1001 1.419 . S
C1000 C998 1.415 . S
C1000 C1005 1.425 . S
C1000 C1007 1.409 . S
C1001 H993 0.930 . S
C1001 C999 1.419 . S
C1001 C1002 1.362 . S
C1002 H994 0.930 . S
C1002 C1001 1.362 . S
C1002 C1005 1.409 . S
C1003 H995 0.930 . S
C1003 C1004 1.355 . S
C1003 C1005 1.415 . S
C1004 C1003 1.355 . S
C1004 C1006 1.419 . S
C1005 C1000 1.425 . S
C1005 C1002 1.409 . S
C1005 C1003 1.415 . S
C1006 H996 0.930 . S
C1006 C1004 1.419 . S
C1006 C1007 1.362 . S
C1007 H997 0.930 . S
C1007 C1000 1.409 . S
C1007 C1006 1.362 . S
H1008 C1014 0.930 . S
H1009 C1017 0.930 . S
H1010 C1018 0.930 . S
H1011 C1019 0.930 . S
H1012 C1022 0.930 . S
H1013 C1023 0.930 . S
C1014 H1008 0.930 . S
C1014 C1015 1.355 . S
C1014 C1016 1.415 . S
C1015 C1014 1.355 . S
C1015 C1017 1.419 . S
C1016 C1014 1.415 . S
C1016 C1021 1.425 . S
C1016 C1023 1.409 . S
C1017 H1009 0.930 . S
C1017 C1015 1.419 . S
C1017 C1018 1.362 . S
C1018 H1010 0.930 . S
C1018 C1017 1.362 . S
C1018 C1021 1.409 . S
C1019 H1011 0.930 . S
C1019 C1020 1.355 . S
C1019 C1021 1.415 . S
C1020 C1019 1.355 . S
C1020 C1022 1.419 . S
C1021 C1016 1.425 . S
C1021 C1018 1.409 . S
C1021 C1019 1.415 . S
C1022 H1012 0.930 . S
C1022 C1020 1.419 . S
C1022 C1023 1.362 . S
C1023 H1013 0.930 . S
C1023 C1016 1.409 . S
C1023 C1022 1.362 . S
H1024 C1030 0.930 . S
H1025 C1033 0.930 . S
H1026 C1034 0.930 . S
H1027 C1035 0.930 . S
H1028 C1038 0.930 . S
H1029 C1039 0.930 . S
C1030 H1024 0.930 . S
C1030 C1031 1.355 . S
C1030 C1032 1.415 . S
C1031 C1030 1.355 . S
C1031 C1033 1.419 . S
C1032 C1030 1.415 . S
C1032 C1037 1.425 . S
C1032 C1039 1.409 . S
C1033 H1025 0.930 . S
C1033 C1031 1.419 . S
C1033 C1034 1.362 . S
C1034 H1026 0.930 . S
C1034 C1033 1.362 . S
C1034 C1037 1.409 . S
C1035 H1027 0.930 . S
C1035 C1036 1.355 . S
C1035 C1037 1.415 . S
C1036 C1035 1.355 . S
C1036 C1038 1.419 . S
C1037 C1032 1.425 . S
C1037 C1034 1.409 . S
C1037 C1035 1.415 . S
C1038 H1028 0.930 . S
C1038 C1036 1.419 . S
C1038 C1039 1.362 . S
C1039 H1029 0.930 . S
C1039 C1032 1.409 . S
C1039 C1038 1.362 . S
H1040 C1046 0.930 . S
H1041 C1049 0.930 . S
H1042 C1050 0.930 . S
H1043 C1051 0.930 . S
H1044 C1054 0.930 . S
H1045 C1055 0.930 . S
C1046 H1040 0.930 . S
C1046 C1047 1.355 . S
C1046 C1048 1.415 . S
C1047 C1046 1.355 . S
C1047 C1049 1.419 . S
C1048 C1046 1.415 . S
C1048 C1053 1.425 . S
C1048 C1055 1.409 . S
C1049 H1041 0.930 . S
C1049 C1047 1.419 . S
C1049 C1050 1.362 . S
C1050 H1042 0.930 . S
C1050 C1049 1.362 . S
C1050 C1053 1.409 . S
C1051 H1043 0.930 . S
C1051 C1052 1.355 . S
C1051 C1053 1.415 . S
C1052 C1051 1.355 . S
C1052 C1054 1.419 . S
C1053 C1048 1.425 . S
C1053 C1050 1.409 . S
C1053 C1051 1.415 . S
C1054 H1044 0.930 . S
C1054 C1052 1.419 . S
C1054 C1055 1.362 . S
C1055 H1045 0.930 . S
C1055 C1048 1.409 . S
C1055 C1054 1.362 . S
H1056 C1062 0.930 . S
H1057 C1065 0.930 . S
H1058 C1066 0.930 . S
H1059 C1067 0.930 . S
H1060 C1070 0.930 . S
H1061 C1071 0.930 . S
C1062 H1056 0.930 . S
C1062 C1063 1.355 . S
C1062 C1064 1.415 . S
C1063 C1062 1.355 . S
C1063 C1065 1.419 . S
C1064 C1062 1.415 . S
C1064 C1069 1.425 . S
C1064 C1071 1.409 . S
C1065 H1057 0.930 . S
C1065 C1063 1.419 . S
C1065 C1066 1.362 . S
C1066 H1058 0.930 . S
C1066 C1065 1.362 . S
C1066 C1069 1.409 . S
C1067 H1059 0.930 . S
C1067 C1068 1.355 . S
C1067 C1069 1.415 . S
C1068 C1067 1.355 . S
C1068 C1070 1.419 . S
C1069 C1064 1.425 . S
C1069 C1066 1.409 . S
C1069 C1067 1.415 . S
C1070 H1060 0.930 . S
C1070 C1068 1.419 . S
C1070 C1071 1.362 . S
C1071 H1061 0.930 . S
C1071 C1064 1.409 . S
C1071 C1070 1.362 . S
H1072 C1078 0.930 . S
H1073 C1081 0.930 . S
H1074 C1082 0.930 . S
H1075 C1083 0.930 . S
H1076 C1086 0.930 . S
H1077 C1087 0.930 . S
C1078 H1072 0.930 . S
C1078 C1079 1.355 . S
C1078 C1080 1.415 . S
C1079 C1078 1.355 . S
C1079 C1081 1.419 . S
C1080 C1078 1.415 . S
C1080 C1085 1.425 . S
C1080 C1087 1.409 . S
C1081 H1073 0.930 . S
C1081 C1079 1.419 . S
C1081 C1082 1.362 . S
C1082 H1074 0.930 . S
C1082 C1081 1.362 . S
C1082 C1085 1.409 . S
C1083 H1075 0.930 . S
C1083 C1084 1.355 . S
C1083 C1085 1.415 . S
C1084 C1083 1.355 . S
C1084 C1086 1.419 . S
C1085 C1080 1.425 . S
C1085 C1082 1.409 . S
C1085 C1083 1.415 . S
C1086 H1076 0.930 . S
C1086 C1084 1.419 . S
C1086 C1087 1.362 . S
C1087 H1077 0.930 . S
C1087 C1080 1.409 . S
C1087 C1086 1.362 . S
H1088 C1094 0.930 . S
H1089 C1097 0.930 . S
H1090 C1098 0.930 . S
H1091 C1099 0.930 . S
H1092 C1102 0.930 . S
H1093 C1103 0.930 . S
C1094 H1088 0.930 . S
C1094 C1095 1.355 . S
C1094 C1096 1.415 . S
C1095 C1094 1.355 . S
C1095 C1097 1.419 . S
C1096 C1094 1.415 . S
C1096 C1101 1.425 1_554 S
C1096 C1103 1.409 1_554 S
C1097 H1089 0.930 . S
C1097 C1095 1.419 . S
C1097 C1098 1.362 . S
C1098 H1090 0.930 . S
C1098 C1097 1.362 . S
C1098 C1101 1.409 1_554 S
C1099 H1091 0.930 . S
C1099 C1100 1.355 . S
C1099 C1101 1.415 . S
C1100 C1099 1.355 . S
C1100 C1102 1.419 . S
C1101 C1096 1.425 1_556 S
C1101 C1098 1.409 1_556 S
C1101 C1099 1.415 . S
C1102 H1092 0.930 . S
C1102 C1100 1.419 . S
C1102 C1103 1.362 . S
C1103 H1093 0.930 . S
C1103 C1096 1.409 1_556 S
C1103 C1102 1.362 . S
H1104 C1110 0.930 . S
H1105 C1113 0.930 . S
H1106 C1114 0.930 . S
H1107 C1115 0.930 . S
H1108 C1118 0.930 . S
H1109 C1119 0.930 . S
C1110 H1104 0.930 . S
C1110 C1111 1.355 . S
C1110 C1112 1.415 . S
C1111 C1110 1.355 . S
C1111 C1113 1.419 . S
C1112 C1110 1.415 . S
C1112 C1117 1.425 1_556 S
C1112 C1119 1.409 1_556 S
C1113 H1105 0.930 . S
C1113 C1111 1.419 . S
C1113 C1114 1.362 . S
C1114 H1106 0.930 . S
C1114 C1113 1.362 . S
C1114 C1117 1.409 1_556 S
C1115 H1107 0.930 . S
C1115 C1116 1.355 . S
C1115 C1117 1.415 . S
C1116 C1115 1.355 . S
C1116 C1118 1.419 . S
C1117 C1112 1.425 1_554 S
C1117 C1114 1.409 1_554 S
C1117 C1115 1.415 . S
C1118 H1108 0.930 . S
C1118 C1116 1.419 . S
C1118 C1119 1.362 . S
C1119 H1109 0.930 . S
C1119 C1112 1.409 1_554 S
C1119 C1118 1.362 . S
H1120 C1126 0.930 . S
H1121 C1129 0.930 . S
H1122 C1130 0.930 . S
H1123 C1131 0.930 . S
H1124 C1134 0.930 . S
H1125 C1135 0.930 . S
C1126 H1120 0.930 . S
C1126 C1127 1.355 . S
C1126 C1128 1.415 . S
C1127 C1126 1.355 . S
C1127 C1129 1.419 . S
C1128 C1126 1.415 . S
C1128 C1133 1.425 1_554 S
C1128 C1135 1.409 1_554 S
C1129 H1121 0.930 . S
C1129 C1127 1.419 . S
C1129 C1130 1.362 . S
C1130 H1122 0.930 . S
C1130 C1129 1.362 . S
C1130 C1133 1.409 1_554 S
C1131 H1123 0.930 . S
C1131 C1132 1.355 . S
C1131 C1133 1.415 . S
C1132 C1131 1.355 . S
C1132 C1134 1.419 . S
C1133 C1128 1.425 1_556 S
C1133 C1130 1.409 1_556 S
C1133 C1131 1.415 . S
C1134 H1124 0.930 . S
C1134 C1132 1.419 . S
C1134 C1135 1.362 . S
C1135 H1125 0.930 . S
C1135 C1128 1.409 1_556 S
C1135 C1134 1.362 . S
H1136 C1142 0.930 . S
H1137 C1145 0.930 . S
H1138 C1146 0.930 . S
H1139 C1147 0.930 . S
H1140 C1150 0.930 . S
H1141 C1151 0.930 . S
C1142 H1136 0.930 . S
C1142 C1143 1.355 . S
C1142 C1144 1.415 . S
C1143 C1142 1.355 . S
C1143 C1145 1.419 . S
C1144 C1142 1.415 . S
C1144 C1149 1.425 1_554 S
C1144 C1151 1.409 1_554 S
C1145 H1137 0.930 . S
C1145 C1143 1.419 . S
C1145 C1146 1.362 . S
C1146 H1138 0.930 . S
C1146 C1145 1.362 . S
C1146 C1149 1.409 1_554 S
C1147 H1139 0.930 . S
C1147 C1148 1.355 . S
C1147 C1149 1.415 . S
C1148 C1147 1.355 . S
C1148 C1150 1.419 . S
C1149 C1144 1.425 1_556 S
C1149 C1146 1.409 1_556 S
C1149 C1147 1.415 . S
C1150 H1140 0.930 . S
C1150 C1148 1.419 . S
C1150 C1151 1.362 . S
C1151 H1141 0.930 . S
C1151 C1144 1.409 1_556 S
C1151 C1150 1.362 . S
H1152 C1158 0.930 . S
H1153 C1161 0.930 . S
H1154 C1162 0.930 . S
H1155 C1163 0.930 . S
H1156 C1166 0.930 . S
H1157 C1167 0.930 . S
C1158 H1152 0.930 . S
C1158 C1159 1.355 . S
C1158 C1160 1.415 . S
C1159 C1158 1.355 . S
C1159 C1161 1.419 . S
C1160 C1158 1.415 . S
C1160 C1165 1.425 1_554 S
C1160 C1167 1.409 1_554 S
C1161 H1153 0.930 . S
C1161 C1159 1.419 . S
C1161 C1162 1.362 . S
C1162 H1154 0.930 . S
C1162 C1161 1.362 . S
C1162 C1165 1.409 1_554 S
C1163 H1155 0.930 . S
C1163 C1164 1.355 . S
C1163 C1165 1.415 . S
C1164 C1163 1.355 . S
C1164 C1166 1.419 . S
C1165 C1160 1.425 1_556 S
C1165 C1162 1.409 1_556 S
C1165 C1163 1.415 . S
C1166 H1156 0.930 . S
C1166 C1164 1.419 . S
C1166 C1167 1.362 . S
C1167 H1157 0.930 . S
C1167 C1160 1.409 1_556 S
C1167 C1166 1.362 . S
H1168 C1174 0.930 . S
H1169 C1177 0.930 . S
H1170 C1178 0.930 . S
H1171 C1179 0.930 . S
H1172 C1182 0.930 . S
H1173 C1183 0.930 . S
C1174 H1168 0.930 . S
C1174 C1175 1.355 . S
C1174 C1176 1.415 . S
C1175 C1174 1.355 . S
C1175 C1177 1.419 . S
C1176 C1174 1.415 . S
C1176 C1181 1.425 1_554 S
C1176 C1183 1.409 1_554 S
C1177 H1169 0.930 . S
C1177 C1175 1.419 . S
C1177 C1178 1.362 . S
C1178 H1170 0.930 . S
C1178 C1177 1.362 . S
C1178 C1181 1.409 1_554 S
C1179 H1171 0.930 . S
C1179 C1180 1.355 . S
C1179 C1181 1.415 . S
C1180 C1179 1.355 . S
C1180 C1182 1.419 . S
C1181 C1176 1.425 1_556 S
C1181 C1178 1.409 1_556 S
C1181 C1179 1.415 . S
C1182 H1172 0.930 . S
C1182 C1180 1.419 . S
C1182 C1183 1.362 . S
C1183 H1173 0.930 . S
C1183 C1176 1.409 1_556 S
C1183 C1182 1.362 . S
H1184 C1190 0.930 . S
H1185 C1193 0.930 . S
H1186 C1194 0.930 . S
H1187 C1195 0.930 . S
H1188 C1198 0.930 . S
H1189 C1199 0.930 . S
C1190 H1184 0.930 . S
C1190 C1191 1.355 . S
C1190 C1192 1.415 . S
C1191 C1190 1.355 . S
C1191 C1193 1.419 . S
C1192 C1190 1.415 . S
C1192 C1197 1.425 1_556 S
C1192 C1199 1.409 1_556 S
C1193 H1185 0.930 . S
C1193 C1191 1.419 . S
C1193 C1194 1.362 . S
C1194 H1186 0.930 . S
C1194 C1193 1.362 . S
C1194 C1197 1.409 1_556 S
C1195 H1187 0.930 . S
C1195 C1196 1.355 . S
C1195 C1197 1.415 . S
C1196 C1195 1.355 . S
C1196 C1198 1.419 . S
C1197 C1192 1.425 1_554 S
C1197 C1194 1.409 1_554 S
C1197 C1195 1.415 . S
C1198 H1188 0.930 . S
C1198 C1196 1.419 . S
C1198 C1199 1.362 . S
C1199 H1189 0.930 . S
C1199 C1192 1.409 1_554 S
C1199 C1198 1.362 . S
H1200 C1206 0.930 . S
H1201 C1209 0.930 . S
H1202 C1210 0.930 . S
H1203 C1211 0.930 . S
H1204 C1214 0.930 . S
H1205 C1215 0.930 . S
C1206 H1200 0.930 . S
C1206 C1207 1.355 . S
C1206 C1208 1.415 . S
C1207 C1206 1.355 . S
C1207 C1209 1.419 . S
C1208 C1206 1.415 . S
C1208 C1213 1.425 1_556 S
C1208 C1215 1.409 1_556 S
C1209 H1201 0.930 . S
C1209 C1207 1.419 . S
C1209 C1210 1.362 . S
C1210 H1202 0.930 . S
C1210 C1209 1.362 . S
C1210 C1213 1.409 1_556 S
C1211 H1203 0.930 . S
C1211 C1212 1.355 . S
C1211 C1213 1.415 . S
C1212 C1211 1.355 . S
C1212 C1214 1.419 . S
C1213 C1208 1.425 1_554 S
C1213 C1210 1.409 1_554 S
C1213 C1211 1.415 . S
C1214 H1204 0.930 . S
C1214 C1212 1.419 . S
C1214 C1215 1.362 . S
C1215 H1205 0.930 . S
C1215 C1208 1.409 1_554 S
C1215 C1214 1.362 . S
H1216 C1222 0.930 . S
H1217 C1225 0.930 . S
H1218 C1226 0.930 . S
H1219 C1227 0.930 . S
H1220 C1230 0.930 . S
H1221 C1231 0.930 . S
C1222 H1216 0.930 . S
C1222 C1223 1.355 . S
C1222 C1224 1.415 . S
C1223 C1222 1.355 . S
C1223 C1225 1.419 . S
C1224 C1222 1.415 . S
C1224 C1229 1.425 . S
C1224 C1231 1.409 . S
C1225 H1217 0.930 . S
C1225 C1223 1.419 . S
C1225 C1226 1.362 . S
C1226 H1218 0.930 . S
C1226 C1225 1.362 . S
C1226 C1229 1.409 . S
C1227 H1219 0.930 . S
C1227 C1228 1.355 . S
C1227 C1229 1.415 . S
C1228 C1227 1.355 . S
C1228 C1230 1.419 . S
C1229 C1224 1.425 . S
C1229 C1226 1.409 . S
C1229 C1227 1.415 . S
C1230 H1220 0.930 . S
C1230 C1228 1.419 . S
C1230 C1231 1.362 . S
C1231 H1221 0.930 . S
C1231 C1224 1.409 . S
C1231 C1230 1.362 . S
H1232 C1238 0.930 . S
H1233 C1241 0.930 . S
H1234 C1242 0.930 . S
H1235 C1243 0.930 . S
H1236 C1246 0.930 . S
H1237 C1247 0.930 . S
C1238 H1232 0.930 . S
C1238 C1239 1.355 . S
C1238 C1240 1.415 . S
C1239 C1238 1.355 . S
C1239 C1241 1.419 . S
C1240 C1238 1.415 . S
C1240 C1245 1.425 . S
C1240 C1247 1.409 . S
C1241 H1233 0.930 . S
C1241 C1239 1.419 . S
C1241 C1242 1.362 . S
C1242 H1234 0.930 . S
C1242 C1241 1.362 . S
C1242 C1245 1.409 . S
C1243 H1235 0.930 . S
C1243 C1244 1.355 . S
C1243 C1245 1.415 . S
C1244 C1243 1.355 . S
C1244 C1246 1.419 . S
C1245 C1240 1.425 . S
C1245 C1242 1.409 . S
C1245 C1243 1.415 . S
C1246 H1236 0.930 . S
C1246 C1244 1.419 . S
C1246 C1247 1.362 . S
C1247 H1237 0.930 . S
C1247 C1240 1.409 . S
C1247 C1246 1.362 . S
H1248 C1254 0.930 . S
H1249 C1257 0.930 . S
H1250 C1258 0.930 . S
H1251 C1259 0.930 . S
H1252 C1262 0.930 . S
H1253 C1263 0.930 . S
C1254 H1248 0.930 . S
C1254 C1255 1.355 . S
C1254 C1256 1.415 . S
C1255 C1254 1.355 . S
C1255 C1257 1.419 . S
C1256 C1254 1.415 . S
C1256 C1261 1.425 . S
C1256 C1263 1.409 . S
C1257 H1249 0.930 . S
C1257 C1255 1.419 . S
C1257 C1258 1.362 . S
C1258 H1250 0.930 . S
C1258 C1257 1.362 . S
C1258 C1261 1.409 . S
C1259 H1251 0.930 . S
C1259 C1260 1.355 . S
C1259 C1261 1.415 . S
C1260 C1259 1.355 . S
C1260 C1262 1.419 . S
C1261 C1256 1.425 . S
C1261 C1258 1.409 . S
C1261 C1259 1.415 . S
C1262 H1252 0.930 . S
C1262 C1260 1.419 . S
C1262 C1263 1.362 . S
C1263 H1253 0.930 . S
C1263 C1256 1.409 . S
C1263 C1262 1.362 . S
H1264 C1270 0.930 . S
H1265 C1273 0.930 . S
H1266 C1274 0.930 . S
H1267 C1275 0.930 . S
H1268 C1278 0.930 . S
H1269 C1279 0.930 . S
C1270 H1264 0.930 . S
C1270 C1271 1.355 . S
C1270 C1272 1.415 . S
C1271 C1270 1.355 . S
C1271 C1273 1.419 . S
C1272 C1270 1.415 . S
C1272 C1277 1.425 . S
C1272 C1279 1.409 . S
C1273 H1265 0.930 . S
C1273 C1271 1.419 . S
C1273 C1274 1.362 . S
C1274 H1266 0.930 . S
C1274 C1273 1.362 . S
C1274 C1277 1.409 . S
C1275 H1267 0.930 . S
C1275 C1276 1.355 . S
C1275 C1277 1.415 . S
C1276 C1275 1.355 . S
C1276 C1278 1.419 . S
C1277 C1272 1.425 . S
C1277 C1274 1.409 . S
C1277 C1275 1.415 . S
C1278 H1268 0.930 . S
C1278 C1276 1.419 . S
C1278 C1279 1.362 . S
C1279 H1269 0.930 . S
C1279 C1272 1.409 . S
C1279 C1278 1.362 . S
H1280 C1286 0.930 . S
H1281 C1289 0.930 . S
H1282 C1290 0.930 . S
H1283 C1291 0.930 . S
H1284 C1294 0.930 . S
H1285 C1295 0.930 . S
C1286 H1280 0.930 . S
C1286 C1287 1.355 . S
C1286 C1288 1.415 . S
C1287 C1286 1.355 . S
C1287 C1289 1.419 . S
C1288 C1286 1.415 . S
C1288 C1293 1.425 . S
C1288 C1295 1.409 . S
C1289 H1281 0.930 . S
C1289 C1287 1.419 . S
C1289 C1290 1.362 . S
C1290 H1282 0.930 . S
C1290 C1289 1.362 . S
C1290 C1293 1.409 . S
C1291 H1283 0.930 . S
C1291 C1292 1.355 . S
C1291 C1293 1.415 . S
C1292 C1291 1.355 . S
C1292 C1294 1.419 . S
C1293 C1288 1.425 . S
C1293 C1290 1.409 . S
C1293 C1291 1.415 . S
C1294 H1284 0.930 . S
C1294 C1292 1.419 . S
C1294 C1295 1.362 . S
C1295 H1285 0.930 . S
C1295 C1288 1.409 . S
C1295 C1294 1.362 . S
H1296 C1302 0.930 . S
H1297 C1305 0.930 . S
H1298 C1306 0.930 . S
H1299 C1307 0.930 . S
H1300 C1310 0.930 . S
H1301 C1311 0.930 . S
C1302 H1296 0.930 . S
C1302 C1303 1.355 . S
C1302 C1304 1.415 . S
C1303 C1302 1.355 . S
C1303 C1305 1.419 . S
C1304 C1302 1.415 . S
C1304 C1309 1.425 . S
C1304 C1311 1.409 . S
C1305 H1297 0.930 . S
C1305 C1303 1.419 . S
C1305 C1306 1.362 . S
C1306 H1298 0.930 . S
C1306 C1305 1.362 . S
C1306 C1309 1.409 . S
C1307 H1299 0.930 . S
C1307 C1308 1.355 . S
C1307 C1309 1.415 . S
C1308 C1307 1.355 . S
C1308 C1310 1.419 . S
C1309 C1304 1.425 . S
C1309 C1306 1.409 . S
C1309 C1307 1.415 . S
C1310 H1300 0.930 . S
C1310 C1308 1.419 . S
C1310 C1311 1.362 . S
C1311 H1301 0.930 . S
C1311 C1304 1.409 . S
C1311 C1310 1.362 . S
H1312 C1318 0.930 . S
H1313 C1321 0.930 . S
H1314 C1322 0.930 . S
H1315 C1323 0.930 . S
H1316 C1326 0.930 . S
H1317 C1327 0.930 . S
C1318 H1312 0.930 . S
C1318 C1319 1.355 . S
C1318 C1320 1.415 . S
C1319 C1318 1.355 . S
C1319 C1321 1.419 . S
C1320 C1318 1.415 . S
C1320 C1325 1.425 . S
C1320 C1327 1.409 . S
C1321 H1313 0.930 . S
C1321 C1319 1.419 . S
C1321 C1322 1.362 . S
C1322 H1314 0.930 . S
C1322 C1321 1.362 . S
C1322 C1325 1.409 . S
C1323 H1315 0.930 . S
C1323 C1324 1.355 . S
C1323 C1325 1.415 . S
C1324 C1323 1.355 . S
C1324 C1326 1.419 . S
C1325 C1320 1.425 . S
C1325 C1322 1.409 . S
C1325 C1323 1.415 . S
C1326 H1316 0.930 . S
C1326 C1324 1.419 . S
C1326 C1327 1.362 . S
C1327 H1317 0.930 . S
C1327 C1320 1.409 . S
C1327 C1326 1.362 . S
H1328 C1334 0.930 . S
H1329 C1337 0.930 . S
H1330 C1338 0.930 . S
H1331 C1339 0.930 . S
H1332 C1342 0.930 . S
H1333 C1343 0.930 . S
C1334 H1328 0.930 . S
C1334 C1335 1.355 . S
C1334 C1336 1.415 . S
C1335 C1334 1.355 . S
C1335 C1337 1.419 . S
C1336 C1334 1.415 . S
C1336 C1341 1.425 . S
C1336 C1343 1.409 . S
C1337 H1329 0.930 . S
C1337 C1335 1.419 . S
C1337 C1338 1.362 . S
C1338 H1330 0.930 . S
C1338 C1337 1.362 . S
C1338 C1341 1.409 . S
C1339 H1331 0.930 . S
C1339 C1340 1.355 . S
C1339 C1341 1.415 . S
C1340 C1339 1.355 . S
C1340 C1342 1.419 . S
C1341 C1336 1.425 . S
C1341 C1338 1.409 . S
C1341 C1339 1.415 . S
C1342 H1332 0.930 . S
C1342 C1340 1.419 . S
C1342 C1343 1.362 . S
C1343 H1333 0.930 . S
C1343 C1336 1.409 . S
C1343 C1342 1.362 . S
H1344 C1350 0.930 . S
H1345 C1353 0.930 . S
H1346 C1354 0.930 . S
H1347 C1355 0.930 . S
H1348 C1358 0.930 . S
H1349 C1359 0.930 . S
C1350 H1344 0.930 . S
C1350 C1351 1.355 . S
C1350 C1352 1.415 . S
C1351 C1350 1.355 . S
C1351 C1353 1.419 . S
C1352 C1350 1.415 . S
C1352 C1357 1.425 . S
C1352 C1359 1.409 . S
C1353 H1345 0.930 . S
C1353 C1351 1.419 . S
C1353 C1354 1.362 . S
C1354 H1346 0.930 . S
C1354 C1353 1.362 . S
C1354 C1357 1.409 . S
C1355 H1347 0.930 . S
C1355 C1356 1.355 . S
C1355 C1357 1.415 . S
C1356 C1355 1.355 . S
C1356 C1358 1.419 . S
C1357 C1352 1.425 . S
C1357 C1354 1.409 . S
C1357 C1355 1.415 . S
C1358 H1348 0.930 . S
C1358 C1356 1.419 . S
C1358 C1359 1.362 . S
C1359 H1349 0.930 . S
C1359 C1352 1.409 . S
C1359 C1358 1.362 . S
H1360 C1366 0.930 . S
H1361 C1369 0.930 . S
H1362 C1370 0.930 . S
H1363 C1371 0.930 . S
H1364 C1374 0.930 . S
H1365 C1375 0.930 . S
C1366 H1360 0.930 . S
C1366 C1367 1.355 . S
C1366 C1368 1.415 . S
C1367 C1366 1.355 . S
C1367 C1369 1.419 . S
C1368 C1366 1.415 . S
C1368 C1373 1.425 . S
C1368 C1375 1.409 . S
C1369 H1361 0.930 . S
C1369 C1367 1.419 . S
C1369 C1370 1.362 . S
C1370 H1362 0.930 . S
C1370 C1369 1.362 . S
C1370 C1373 1.409 . S
C1371 H1363 0.930 . S
C1371 C1372 1.355 . S
C1371 C1373 1.415 . S
C1372 C1371 1.355 . S
C1372 C1374 1.419 . S
C1373 C1368 1.425 . S
C1373 C1370 1.409 . S
C1373 C1371 1.415 . S
C1374 H1364 0.930 . S
C1374 C1372 1.419 . S
C1374 C1375 1.362 . S
C1375 H1365 0.930 . S
C1375 C1368 1.409 . S
C1375 C1374 1.362 . S
H1376 C1382 0.930 . S
H1377 C1385 0.930 . S
H1378 C1386 0.930 . S
H1379 C1387 0.930 . S
H1380 C1390 0.930 . S
H1381 C1391 0.930 . S
C1382 H1376 0.930 . S
C1382 C1383 1.355 . S
C1382 C1384 1.415 . S
C1383 C1382 1.355 . S
C1383 C1385 1.419 . S
C1384 C1382 1.415 . S
C1384 C1389 1.425 . S
C1384 C1391 1.409 . S
C1385 H1377 0.930 . S
C1385 C1383 1.419 . S
C1385 C1386 1.362 . S
C1386 H1378 0.930 . S
C1386 C1385 1.362 . S
C1386 C1389 1.409 . S
C1387 H1379 0.930 . S
C1387 C1388 1.355 . S
C1387 C1389 1.415 . S
C1388 C1387 1.355 . S
C1388 C1390 1.419 . S
C1389 C1384 1.425 . S
C1389 C1386 1.409 . S
C1389 C1387 1.415 . S
C1390 H1380 0.930 . S
C1390 C1388 1.419 . S
C1390 C1391 1.362 . S
C1391 H1381 0.930 . S
C1391 C1384 1.409 . S
C1391 C1390 1.362 . S
H1392 C1398 0.930 . S
H1393 C1401 0.930 . S
H1394 C1402 0.930 . S
H1395 C1403 0.930 . S
H1396 C1406 0.930 . S
H1397 C1407 0.930 . S
C1398 H1392 0.930 . S
C1398 C1399 1.355 . S
C1398 C1400 1.415 . S
C1399 C1398 1.355 . S
C1399 C1401 1.419 . S
C1400 C1398 1.415 . S
C1400 C1405 1.425 . S
C1400 C1407 1.409 . S
C1401 H1393 0.930 . S
C1401 C1399 1.419 . S
C1401 C1402 1.362 . S
C1402 H1394 0.930 . S
C1402 C1401 1.362 . S
C1402 C1405 1.409 . S
C1403 H1395 0.930 . S
C1403 C1404 1.355 . S
C1403 C1405 1.415 . S
C1404 C1403 1.355 . S
C1404 C1406 1.419 . S
C1405 C1400 1.425 . S
C1405 C1402 1.409 . S
C1405 C1403 1.415 . S
C1406 H1396 0.930 . S
C1406 C1404 1.419 . S
C1406 C1407 1.362 . S
C1407 H1397 0.930 . S
C1407 C1400 1.409 . S
C1407 C1406 1.362 . S
H1408 C1414 0.930 . S
H1409 C1417 0.930 . S
H1410 C1418 0.930 . S
H1411 C1419 0.930 . S
H1412 C1422 0.930 . S
H1413 C1423 0.930 . S
C1414 H1408 0.930 . S
C1414 C1415 1.355 . S
C1414 C1416 1.415 . S
C1415 C1414 1.355 . S
C1415 C1417 1.419 . S
C1416 C1414 1.415 . S
C1416 C1421 1.425 . S
C1416 C1423 1.409 . S
C1417 H1409 0.930 . S
C1417 C1415 1.419 . S
C1417 C1418 1.362 . S
C1418 H1410 0.930 . S
C1418 C1417 1.362 . S
C1418 C1421 1.409 . S
C1419 H1411 0.930 . S
C1419 C1420 1.355 . S
C1419 C1421 1.415 . S
C1420 C1419 1.355 . S
C1420 C1422 1.419 . S
C1421 C1416 1.425 . S
C1421 C1418 1.409 . S
C1421 C1419 1.415 . S
C1422 H1412 0.930 . S
C1422 C1420 1.419 . S
C1422 C1423 1.362 . S
C1423 H1413 0.930 . S
C1423 C1416 1.409 . S
C1423 C1422 1.362 . S
H1424 C1430 0.930 . S
H1425 C1433 0.930 . S
H1426 C1434 0.930 . S
H1427 C1435 0.930 . S
H1428 C1438 0.930 . S
H1429 C1439 0.930 . S
C1430 H1424 0.930 . S
C1430 C1431 1.355 . S
C1430 C1432 1.415 . S
C1431 C1430 1.355 . S
C1431 C1433 1.419 . S
C1432 C1430 1.415 . S
C1432 C1437 1.425 . S
C1432 C1439 1.409 . S
C1433 H1425 0.930 . S
C1433 C1431 1.419 . S
C1433 C1434 1.362 . S
C1434 H1426 0.930 . S
C1434 C1433 1.362 . S
C1434 C1437 1.409 . S
C1435 H1427 0.930 . S
C1435 C1436 1.355 . S
C1435 C1437 1.415 . S
C1436 C1435 1.355 . S
C1436 C1438 1.419 . S
C1437 C1432 1.425 . S
C1437 C1434 1.409 . S
C1437 C1435 1.415 . S
C1438 H1428 0.930 . S
C1438 C1436 1.419 . S
C1438 C1439 1.362 . S
C1439 H1429 0.930 . S
C1439 C1432 1.409 . S
C1439 C1438 1.362 . S
H1440 C1446 0.930 . S
H1441 C1449 0.930 . S
H1442 C1450 0.930 . S
H1443 C1451 0.930 . S
H1444 C1454 0.930 . S
H1445 C1455 0.930 . S
C1446 H1440 0.930 . S
C1446 C1447 1.355 . S
C1446 C1448 1.415 . S
C1447 C1446 1.355 . S
C1447 C1449 1.419 . S
C1448 C1446 1.415 . S
C1448 C1453 1.425 . S
C1448 C1455 1.409 . S
C1449 H1441 0.930 . S
C1449 C1447 1.419 . S
C1449 C1450 1.362 . S
C1450 H1442 0.930 . S
C1450 C1449 1.362 . S
C1450 C1453 1.409 . S
C1451 H1443 0.930 . S
C1451 C1452 1.355 . S
C1451 C1453 1.415 . S
C1452 C1451 1.355 . S
C1452 C1454 1.419 . S
C1453 C1448 1.425 . S
C1453 C1450 1.409 . S
C1453 C1451 1.415 . S
C1454 H1444 0.930 . S
C1454 C1452 1.419 . S
C1454 C1455 1.362 . S
C1455 H1445 0.930 . S
C1455 C1448 1.409 . S
C1455 C1454 1.362 . S
H1456 C1462 0.930 . S
H1457 C1465 0.930 . S
H1458 C1466 0.930 . S
H1459 C1467 0.930 . S
H1460 C1470 0.930 . S
H1461 C1471 0.930 . S
C1462 H1456 0.930 . S
C1462 C1463 1.355 . S
C1462 C1464 1.415 . S
C1463 C1462 1.355 . S
C1463 C1465 1.419 . S
C1464 C1462 1.415 . S
C1464 C1469 1.425 . S
C1464 C1471 1.409 . S
C1465 H1457 0.930 . S
C1465 C1463 1.419 . S
C1465 C1466 1.362 . S
C1466 H1458 0.930 . S
C1466 C1465 1.362 . S
C1466 C1469 1.409 . S
C1467 H1459 0.930 . S
C1467 C1468 1.355 . S
C1467 C1469 1.415 . S
C1468 C1467 1.355 . S
C1468 C1470 1.419 . S
C1469 C1464 1.425 . S
C1469 C1466 1.409 . S
C1469 C1467 1.415 . S
C1470 H1460 0.930 . S
C1470 C1468 1.419 . S
C1470 C1471 1.362 . S
C1471 H1461 0.930 . S
C1471 C1464 1.409 . S
C1471 C1470 1.362 . S
C455 C218 1.528 . S
C460 C8 1.480 . S
C471 C22 1.528 . S
C476 C176 1.480 . S
C487 C36 1.528 . S
C492 C190 1.480 . S
C503 C204 1.483 . S
C508 C50 1.525 . S
C519 C64 1.523 . S
C524 C134 1.485 . S
C535 C78 1.527 . S
C540 C148 1.480 . S
C551 C162 1.482 . S
C556 C92 1.526 . S
C567 C120 1.528 . S
C572 C106 1.480 . S
C583 C232 1.481 . S
C588 C442 1.527 . S
C599 C246 1.517 . S
C604 C400 1.491 . S
C615 C260 1.480 . S
C620 C414 1.527 . S
C631 C428 1.500 . S
C636 C274 1.508 . S
C647 C288 1.525 . S
C652 C358 1.482 . S
C663 C302 1.489 . S
C668 C372 1.519 . S
C679 C386 1.484 . S
C684 C316 1.523 . S
C695 C330 1.482 . S
C700 C344 1.526 . S
C711 C175 1.475 . S
C716 C7 1.436 . S
C727 C21 1.434 . S
C732 C189 1.478 . S
C743 C203 1.459 . S
C748 C35 1.453 . S
C759 C49 1.479 . S
C764 C217 1.432 . S
C775 C63 1.457 . S
C780 C119 1.455 . S
C791 C133 1.431 . S
C796 C77 1.480 . S
C807 C147 1.468 . S
C812 C91 1.444 . S
C823 C161 1.473 . S
C828 C105 1.438 . S
C839 C231 1.480 . S
C844 C399 1.431 . S
C855 C413 1.481 . S
C860 C245 1.430 . S
C871 C259 1.429 . S
C876 C427 1.482 . S
C887 C273 1.467 . S
C892 C441 1.444 . S
C903 C343 1.457 . S
C908 C287 1.455 . S
C919 C301 1.480 . S
C924 C357 1.432 . S
C935 C315 1.442 . S
C940 C371 1.469 . S
C951 C329 1.438 . S
C956 C385 1.474 . S
C967 C9 1.377 . S
C972 C149 1.393 . S
C983 C163 1.397 . S
C988 C23 1.372 . S
C999 C37 1.372 . S
C1004 C121 1.398 . S
C1015 C135 1.415 . S
C1020 C51 1.354 . S
C1031 C205 1.355 . S
C1036 C65 1.414 . S
C1047 C219 1.396 . S
C1052 C79 1.374 . S
C1063 C177 1.381 . S
C1068 C93 1.389 . S
C1079 C107 1.401 . S
C1084 C191 1.369 . S
C1095 C373 1.410 . S
C1100 C233 1.359 . S
C1111 C247 1.413 . S
C1116 C387 1.357 . S
C1127 C345 1.409 . S
C1132 C261 1.360 . S
C1143 C359 1.398 . S
C1148 C275 1.371 . S
C1159 C289 1.382 . S
C1164 C429 1.388 . S
C1175 C303 1.415 . S
C1180 C443 1.354 . S
C1191 C401 1.414 . S
C1196 C317 1.355 . S
C1207 C415 1.385 . S
C1212 C331 1.384 . S
C1223 C328 1.426 . S
C1228 C6 1.415 . S
C1239 C286 1.382 . S
C1244 C20 1.386 . S
C1255 C300 1.382 . S
C1260 C34 1.385 . S
C1271 C314 1.424 . S
C1276 C48 1.407 . S
C1287 C244 1.387 . S
C1292 C62 1.382 . S
C1303 C76 1.408 . S
C1308 C258 1.425 . S
C1319 C90 1.410 . S
C1324 C272 1.389 . S
C1335 C104 1.389 . S
C1340 C230 1.411 . S
C1351 C118 1.402 . S
C1356 C440 1.422 . S
C1367 C398 1.421 . S
C1372 C132 1.425 . S
C1383 C146 1.384 . S
C1388 C412 1.403 . S
C1399 C160 1.400 . S
C1404 C426 1.420 . S
C1415 C356 1.408 . S
C1420 C174 1.387 . S
C1431 C370 1.425 . S
C1436 C188 1.410 . S
C1447 C202 1.397 . S
C1452 C384 1.382 . S
C1463 C216 1.425 . S
C1468 C342 1.420 . S
