# Generated by pormake.
# Topology wlh, (5)-cn, num edge types: 1
# Building blocks:
#     Node 0, Type 0, BuildingBlock: XOMCOT_clean_sbu_1, # of connection points: 5
#     Node 1, Type 0, BuildingBlock: XOMCOT_clean_sbu_1, # of connection points: 5
#     Node 2, Type 0, BuildingBlock: XOMCOT_clean_sbu_1, # of connection points: 5
#     Node 3, Type 0, BuildingBlock: XOMCOT_clean_sbu_1, # of connection points: 5
#     Node 4, Type 0, BuildingBlock: XOMCOT_clean_sbu_1, # of connection points: 5
#     Node 5, Type 0, BuildingBlock: XOMCOT_clean_sbu_1, # of connection points: 5
#     Node 6, Type 0, BuildingBlock: XOMCOT_clean_sbu_1, # of connection points: 5
#     Node 7, Type 0, BuildingBlock: XOMCOT_clean_sbu_1, # of connection points: 5
#     Node 8, Type 0, BuildingBlock: XOMCOT_clean_sbu_1, # of connection points: 5
#     Node 9, Type 0, BuildingBlock: XOMCOT_clean_sbu_1, # of connection points: 5
#     Node 10, Type 0, BuildingBlock: XOMCOT_clean_sbu_1, # of connection points: 5
#     Node 11, Type 0, BuildingBlock: XOMCOT_clean_sbu_1, # of connection points: 5
#     Node 12, Type 0, BuildingBlock: XOMCOT_clean_sbu_1, # of connection points: 5
#     Node 13, Type 0, BuildingBlock: XOMCOT_clean_sbu_1, # of connection points: 5
#     Node 14, Type 0, BuildingBlock: XOMCOT_clean_sbu_1, # of connection points: 5
#     Node 15, Type 0, BuildingBlock: XOMCOT_clean_sbu_1, # of connection points: 5
#     Node 16, Type 0, BuildingBlock: XOMCOT_clean_sbu_1, # of connection points: 5
#     Node 17, Type 0, BuildingBlock: XOMCOT_clean_sbu_1, # of connection points: 5
#     Node 18, Type 0, BuildingBlock: XOMCOT_clean_sbu_1, # of connection points: 5
#     Node 19, Type 0, BuildingBlock: XOMCOT_clean_sbu_1, # of connection points: 5
#     Node 20, Type 0, BuildingBlock: XOMCOT_clean_sbu_1, # of connection points: 5
#     Node 21, Type 0, BuildingBlock: XOMCOT_clean_sbu_1, # of connection points: 5
#     Node 22, Type 0, BuildingBlock: XOMCOT_clean_sbu_1, # of connection points: 5
#     Node 23, Type 0, BuildingBlock: XOMCOT_clean_sbu_1, # of connection points: 5
#     Node 24, Type 0, BuildingBlock: XOMCOT_clean_sbu_1, # of connection points: 5
#     Node 25, Type 0, BuildingBlock: XOMCOT_clean_sbu_1, # of connection points: 5
#     Node 26, Type 0, BuildingBlock: XOMCOT_clean_sbu_1, # of connection points: 5
#     Node 27, Type 0, BuildingBlock: XOMCOT_clean_sbu_1, # of connection points: 5
#     Node 28, Type 0, BuildingBlock: XOMCOT_clean_sbu_1, # of connection points: 5
#     Node 29, Type 0, BuildingBlock: XOMCOT_clean_sbu_1, # of connection points: 5
#     Node 30, Type 0, BuildingBlock: XOMCOT_clean_sbu_1, # of connection points: 5
#     Node 31, Type 0, BuildingBlock: XOMCOT_clean_sbu_1, # of connection points: 5
#     Node 32, Type 0, BuildingBlock: XOMCOT_clean_sbu_1, # of connection points: 5
#     Node 33, Type 0, BuildingBlock: XOMCOT_clean_sbu_1, # of connection points: 5
#     Node 34, Type 0, BuildingBlock: XOMCOT_clean_sbu_1, # of connection points: 5
#     Node 35, Type 0, BuildingBlock: XOMCOT_clean_sbu_1, # of connection points: 5
#     Edge 36, Type (0, 0), BuildingBlock: CIFDUS_clean_linker_0, # of connection points: 2
#     Edge 37, Type (0, 0), BuildingBlock: CIFDUS_clean_linker_0, # of connection points: 2
#     Edge 38, Type (0, 0), BuildingBlock: CIFDUS_clean_linker_0, # of connection points: 2
#     Edge 39, Type (0, 0), BuildingBlock: CIFDUS_clean_linker_0, # of connection points: 2
#     Edge 40, Type (0, 0), BuildingBlock: CIFDUS_clean_linker_0, # of connection points: 2
#     Edge 41, Type (0, 0), BuildingBlock: CIFDUS_clean_linker_0, # of connection points: 2
#     Edge 42, Type (0, 0), BuildingBlock: CIFDUS_clean_linker_0, # of connection points: 2
#     Edge 43, Type (0, 0), BuildingBlock: CIFDUS_clean_linker_0, # of connection points: 2
#     Edge 44, Type (0, 0), BuildingBlock: CIFDUS_clean_linker_0, # of connection points: 2
#     Edge 45, Type (0, 0), BuildingBlock: CIFDUS_clean_linker_0, # of connection points: 2
#     Edge 46, Type (0, 0), BuildingBlock: CIFDUS_clean_linker_0, # of connection points: 2
#     Edge 47, Type (0, 0), BuildingBlock: CIFDUS_clean_linker_0, # of connection points: 2
#     Edge 48, Type (0, 0), BuildingBlock: CIFDUS_clean_linker_0, # of connection points: 2
#     Edge 49, Type (0, 0), BuildingBlock: CIFDUS_clean_linker_0, # of connection points: 2
#     Edge 50, Type (0, 0), BuildingBlock: CIFDUS_clean_linker_0, # of connection points: 2
#     Edge 51, Type (0, 0), BuildingBlock: CIFDUS_clean_linker_0, # of connection points: 2
#     Edge 52, Type (0, 0), BuildingBlock: CIFDUS_clean_linker_0, # of connection points: 2
#     Edge 53, Type (0, 0), BuildingBlock: CIFDUS_clean_linker_0, # of connection points: 2
#     Edge 54, Type (0, 0), BuildingBlock: CIFDUS_clean_linker_0, # of connection points: 2
#     Edge 55, Type (0, 0), BuildingBlock: CIFDUS_clean_linker_0, # of connection points: 2
#     Edge 56, Type (0, 0), BuildingBlock: CIFDUS_clean_linker_0, # of connection points: 2
#     Edge 57, Type (0, 0), BuildingBlock: CIFDUS_clean_linker_0, # of connection points: 2
#     Edge 58, Type (0, 0), BuildingBlock: CIFDUS_clean_linker_0, # of connection points: 2
#     Edge 59, Type (0, 0), BuildingBlock: CIFDUS_clean_linker_0, # of connection points: 2
#     Edge 60, Type (0, 0), BuildingBlock: CIFDUS_clean_linker_0, # of connection points: 2
#     Edge 61, Type (0, 0), BuildingBlock: CIFDUS_clean_linker_0, # of connection points: 2
#     Edge 62, Type (0, 0), BuildingBlock: CIFDUS_clean_linker_0, # of connection points: 2
#     Edge 63, Type (0, 0), BuildingBlock: CIFDUS_clean_linker_0, # of connection points: 2
#     Edge 64, Type (0, 0), BuildingBlock: CIFDUS_clean_linker_0, # of connection points: 2
#     Edge 65, Type (0, 0), BuildingBlock: CIFDUS_clean_linker_0, # of connection points: 2
#     Edge 66, Type (0, 0), BuildingBlock: CIFDUS_clean_linker_0, # of connection points: 2
#     Edge 67, Type (0, 0), BuildingBlock: CIFDUS_clean_linker_0, # of connection points: 2
#     Edge 68, Type (0, 0), BuildingBlock: CIFDUS_clean_linker_0, # of connection points: 2
#     Edge 69, Type (0, 0), BuildingBlock: CIFDUS_clean_linker_0, # of connection points: 2
#     Edge 70, Type (0, 0), BuildingBlock: CIFDUS_clean_linker_0, # of connection points: 2
#     Edge 71, Type (0, 0), BuildingBlock: CIFDUS_clean_linker_0, # of connection points: 2
#     Edge 72, Type (0, 0), BuildingBlock: CIFDUS_clean_linker_0, # of connection points: 2
#     Edge 73, Type (0, 0), BuildingBlock: CIFDUS_clean_linker_0, # of connection points: 2
#     Edge 74, Type (0, 0), BuildingBlock: CIFDUS_clean_linker_0, # of connection points: 2
#     Edge 75, Type (0, 0), BuildingBlock: CIFDUS_clean_linker_0, # of connection points: 2
#     Edge 76, Type (0, 0), BuildingBlock: CIFDUS_clean_linker_0, # of connection points: 2
#     Edge 77, Type (0, 0), BuildingBlock: CIFDUS_clean_linker_0, # of connection points: 2
#     Edge 78, Type (0, 0), BuildingBlock: CIFDUS_clean_linker_0, # of connection points: 2
#     Edge 79, Type (0, 0), BuildingBlock: CIFDUS_clean_linker_0, # of connection points: 2
#     Edge 80, Type (0, 0), BuildingBlock: CIFDUS_clean_linker_0, # of connection points: 2
#     Edge 81, Type (0, 0), BuildingBlock: CIFDUS_clean_linker_0, # of connection points: 2
#     Edge 82, Type (0, 0), BuildingBlock: CIFDUS_clean_linker_0, # of connection points: 2
#     Edge 83, Type (0, 0), BuildingBlock: CIFDUS_clean_linker_0, # of connection points: 2
#     Edge 84, Type (0, 0), BuildingBlock: CIFDUS_clean_linker_0, # of connection points: 2
#     Edge 85, Type (0, 0), BuildingBlock: CIFDUS_clean_linker_0, # of connection points: 2
#     Edge 86, Type (0, 0), BuildingBlock: CIFDUS_clean_linker_0, # of connection points: 2
#     Edge 87, Type (0, 0), BuildingBlock: CIFDUS_clean_linker_0, # of connection points: 2
#     Edge 88, Type (0, 0), BuildingBlock: CIFDUS_clean_linker_0, # of connection points: 2
#     Edge 89, Type (0, 0), BuildingBlock: CIFDUS_clean_linker_0, # of connection points: 2
#     Edge 90, Type (0, 0), BuildingBlock: CIFDUS_clean_linker_0, # of connection points: 2
#     Edge 91, Type (0, 0), BuildingBlock: CIFDUS_clean_linker_0, # of connection points: 2
#     Edge 92, Type (0, 0), BuildingBlock: CIFDUS_clean_linker_0, # of connection points: 2
#     Edge 93, Type (0, 0), BuildingBlock: CIFDUS_clean_linker_0, # of connection points: 2
#     Edge 94, Type (0, 0), BuildingBlock: CIFDUS_clean_linker_0, # of connection points: 2
#     Edge 95, Type (0, 0), BuildingBlock: CIFDUS_clean_linker_0, # of connection points: 2
#     Edge 96, Type (0, 0), BuildingBlock: CIFDUS_clean_linker_0, # of connection points: 2
#     Edge 97, Type (0, 0), BuildingBlock: CIFDUS_clean_linker_0, # of connection points: 2
#     Edge 98, Type (0, 0), BuildingBlock: CIFDUS_clean_linker_0, # of connection points: 2
#     Edge 99, Type (0, 0), BuildingBlock: CIFDUS_clean_linker_0, # of connection points: 2
#     Edge 100, Type (0, 0), BuildingBlock: CIFDUS_clean_linker_0, # of connection points: 2
#     Edge 101, Type (0, 0), BuildingBlock: CIFDUS_clean_linker_0, # of connection points: 2
#     Edge 102, Type (0, 0), BuildingBlock: CIFDUS_clean_linker_0, # of connection points: 2
#     Edge 103, Type (0, 0), BuildingBlock: CIFDUS_clean_linker_0, # of connection points: 2
#     Edge 104, Type (0, 0), BuildingBlock: CIFDUS_clean_linker_0, # of connection points: 2
#     Edge 105, Type (0, 0), BuildingBlock: CIFDUS_clean_linker_0, # of connection points: 2
#     Edge 106, Type (0, 0), BuildingBlock: CIFDUS_clean_linker_0, # of connection points: 2
#     Edge 107, Type (0, 0), BuildingBlock: CIFDUS_clean_linker_0, # of connection points: 2
#     Edge 108, Type (0, 0), BuildingBlock: CIFDUS_clean_linker_0, # of connection points: 2
#     Edge 109, Type (0, 0), BuildingBlock: CIFDUS_clean_linker_0, # of connection points: 2
#     Edge 110, Type (0, 0), BuildingBlock: CIFDUS_clean_linker_0, # of connection points: 2
#     Edge 111, Type (0, 0), BuildingBlock: CIFDUS_clean_linker_0, # of connection points: 2
#     Edge 112, Type (0, 0), BuildingBlock: CIFDUS_clean_linker_0, # of connection points: 2
#     Edge 113, Type (0, 0), BuildingBlock: CIFDUS_clean_linker_0, # of connection points: 2
#     Edge 114, Type (0, 0), BuildingBlock: CIFDUS_clean_linker_0, # of connection points: 2
#     Edge 115, Type (0, 0), BuildingBlock: CIFDUS_clean_linker_0, # of connection points: 2
#     Edge 116, Type (0, 0), BuildingBlock: CIFDUS_clean_linker_0, # of connection points: 2
#     Edge 117, Type (0, 0), BuildingBlock: CIFDUS_clean_linker_0, # of connection points: 2
#     Edge 118, Type (0, 0), BuildingBlock: CIFDUS_clean_linker_0, # of connection points: 2
#     Edge 119, Type (0, 0), BuildingBlock: CIFDUS_clean_linker_0, # of connection points: 2
#     Edge 120, Type (0, 0), BuildingBlock: CIFDUS_clean_linker_0, # of connection points: 2
#     Edge 121, Type (0, 0), BuildingBlock: CIFDUS_clean_linker_0, # of connection points: 2
#     Edge 122, Type (0, 0), BuildingBlock: CIFDUS_clean_linker_0, # of connection points: 2
#     Edge 123, Type (0, 0), BuildingBlock: CIFDUS_clean_linker_0, # of connection points: 2
#     Edge 124, Type (0, 0), BuildingBlock: CIFDUS_clean_linker_0, # of connection points: 2
#     Edge 125, Type (0, 0), BuildingBlock: CIFDUS_clean_linker_0, # of connection points: 2
# Relax obj value: 0.341
# Max RMSD: 0.230
# Mean RMSD: 0.230
data_MOF--net-wlh--node1-XOMCOT_clean_sbu_1--edge1-CIFDUS_clean_linker_0
_symmetry_space_group_name_H-M    P1
_symmetry_Int_Tables_number       1
_symmetry_cell_setting            triclinic
loop_
_symmetry_equiv_pos_as_xyz
'x, y, z'
_cell_length_a     35.157692
_cell_length_b     35.15439
_cell_length_c     137.44688
_cell_angle_alpha  90.017244
_cell_angle_beta   89.985765
_cell_angle_gamma 120.0017
loop_
_atom_site_label
_atom_site_type_symbol
_atom_site_fract_x
_atom_site_fract_y
_atom_site_fract_z
_atom_type_partial_charge
C0 C 0.16239 0.27692 0.19202 0.0
C1 C 0.18591 0.25541 0.19108 0.0
N2 N 0.15858 0.2145 0.18778 0.0
N3 N 0.1205 0.24965 0.18931 0.0
C4 C 0.1191 0.2118 0.18681 0.0
H5 H 0.17546 0.31103 0.19397 0.0
Co6 Co 0.0797 0.26706 0.18669 0.0
C7 C 0.99521 0.19024 0.19209 0.0
O8 O 0.98759 0.21744 0.19717 0.0
N9 N 0.03968 0.28628 0.18332 0.0
C10 C 0.98466 0.29061 0.17633 0.0
C11 C 1.00029 0.26313 0.17883 0.0
C12 C 0.04831 0.32834 0.1828 0.0
N13 N 0.015 0.33174 0.17883 0.0
O14 O 0.08907 0.26151 0.17323 0.0
H15 H 0.98494 0.22892 0.1768 0.0
H16 H 0.07965 0.35637 0.1847 0.0
O17 O 0.03096 0.20525 0.1872 0.0
C18 C 0.11923 0.29663 0.16936 0.0
O19 O 0.12996 0.33417 0.1736 0.0
N20 N 0.07424 0.274 0.20033 0.0
C21 C 0.06975 0.28314 0.22041 0.0
C22 C 0.06744 0.24533 0.21654 0.0
C23 C 0.06998 0.24149 0.20651 0.0
C24 C 0.07932 0.31223 0.20412 0.0
C25 C 0.07592 0.31701 0.21414 0.0
H26 H 0.06816 0.21192 0.2037 0.0
H27 H 0.08718 0.33985 0.19954 0.0
H28 H 0.09067 0.18405 0.18359 0.0
H29 H 0.2207 0.26922 0.19242 0.0
H30 H 0.95489 0.28151 0.17229 0.0
H31 H 0.06329 0.21875 0.22123 0.0
H32 H 0.07921 0.34727 0.21697 0.0
C33 C 0.72453 0.88935 0.20012 0.0
C34 C 0.74752 0.93405 0.20155 0.0
N35 N 0.78802 0.95026 0.19767 0.0
N36 N 0.75036 0.87734 0.19539 0.0
C37 C 0.7886 0.91505 0.19391 0.0
H38 H 0.69107 0.86695 0.20233 0.0
Co39 Co 0.73375 0.82063 0.19146 0.0
C40 C 0.82009 0.83606 0.18402 0.0
O41 O 0.80622 0.82621 0.175 0.0
N42 N 0.71646 0.7635 0.18739 0.0
C43 C 0.7109 0.69813 0.18545 0.0
C44 C 0.7356 0.73936 0.18942 0.0
C45 C 0.68008 0.7362 0.18229 0.0
N46 N 0.67585 0.69613 0.18096 0.0
O47 O 0.73381 0.83896 0.17839 0.0
H48 H 0.76524 0.75071 0.19366 0.0
H49 H 0.65648 0.74519 0.17983 0.0
O50 O 0.79441 0.83551 0.19061 0.0
C51 C 0.69923 0.84032 0.17628 0.0
O52 O 0.66593 0.82235 0.18236 0.0
N53 N 0.73249 0.80412 0.2045 0.0
C54 C 0.72839 0.78429 0.22419 0.0
C55 C 0.76603 0.81986 0.22026 0.0
C56 C 0.76747 0.82921 0.21041 0.0
C57 C 0.69529 0.76941 0.20821 0.0
C58 C 0.6928 0.75839 0.21807 0.0
H59 H 0.79632 0.85772 0.20761 0.0
H60 H 0.66723 0.75055 0.20355 0.0
H61 H 0.8165 0.9165 0.19025 0.0
H62 H 0.73498 0.95303 0.20509 0.0
H63 H 0.71846 0.67188 0.18581 0.0
H64 H 0.79406 0.84059 0.22481 0.0
H65 H 0.66306 0.73087 0.22095 0.0
C66 C 0.1152 0.87574 0.20053 0.0
C67 C 0.07026 0.85815 0.20023 0.0
N68 N 0.06021 0.87251 0.19206 0.0
N69 N 0.1332 0.9015 0.19266 0.0
C70 C 0.09886 0.89849 0.18762 0.0
H71 H 0.13354 0.87041 0.20616 0.0
Co72 Co 0.19176 0.93482 0.18904 0.0
C73 C 0.19151 0.01002 0.17865 0.0
O74 O 0.21882 0.01339 0.17174 0.0
N75 N 0.25081 0.96852 0.18538 0.0
C76 C 0.3195 0.02348 0.18393 0.0
C77 C 0.27829 0.01135 0.18738 0.0
C78 C 0.27623 0.95519 0.18085 0.0
N79 N 0.31833 0.98808 0.17982 0.0
O80 O 0.17562 0.90874 0.17637 0.0
H81 H 0.26898 0.03249 0.19114 0.0
H82 H 0.26421 0.92174 0.17851 0.0
O83 O 0.18051 0.98115 0.18529 0.0
C84 C 0.17014 0.87005 0.17647 0.0
O85 O 0.18304 0.85765 0.18422 0.0
N86 N 0.20659 0.95722 0.20167 0.0
C87 C 0.2284 0.98144 0.22103 0.0
C88 C 0.20748 0.99917 0.21552 0.0
C89 C 0.19622 0.98615 0.20585 0.0
C90 C 0.22725 0.93996 0.20691 0.0
C91 C 0.23827 0.95145 0.21664 0.0
H92 H 0.17849 0.99882 0.20187 0.0
H93 H 0.23455 0.91657 0.20351 0.0
H94 H 0.10229 0.91584 0.18088 0.0
H95 H 0.04684 0.83645 0.20557 0.0
H96 H 0.34788 0.05613 0.18431 0.0
H97 H 0.19869 0.02185 0.21874 0.0
H98 H 0.25432 0.93703 0.2207 0.0
C99 C 0.26338 0.12189 0.30087 0.0
C100 C 0.23959 0.14326 0.30011 0.0
N101 N 0.20438 0.12296 0.30601 0.0
N102 N 0.24315 0.08842 0.30722 0.0
C103 C 0.20763 0.09027 0.3103 0.0
H104 H 0.29327 0.12995 0.297 0.0
Co105 Co 0.26068 0.04872 0.31096 0.0
C106 C 0.18063 0.97928 0.3212 0.0
O107 O 0.20267 0.9734 0.32818 0.0
N108 N 0.27831 0.00812 0.3146 0.0
C109 C 0.27875 0.94514 0.31531 0.0
C110 C 0.2561 0.96513 0.31217 0.0
C111 C 0.31506 0.0136 0.31909 0.0
N112 N 0.31593 0.97548 0.31967 0.0
O113 O 0.27182 0.07423 0.3237 0.0
H114 H 0.22546 0.94924 0.3082 0.0
H115 H 0.34073 0.04487 0.32181 0.0
O116 O 0.20067 0.00724 0.31449 0.0
C117 C 0.30699 0.1115 0.32405 0.0
O118 O 0.33551 0.12168 0.31694 0.0
N119 N 0.25145 0.02702 0.29822 0.0
C120 C 0.24564 0.00335 0.27873 0.0
C121 C 0.20758 0.98971 0.28427 0.0
C122 C 0.21112 0.00253 0.29399 0.0
C123 C 0.28883 0.04038 0.29294 0.0
C124 C 0.28669 0.02914 0.28312 0.0
H125 H 0.18129 0.9933 0.29796 0.0
H126 H 0.32045 0.06053 0.29636 0.0
H127 H 0.18489 0.06863 0.31573 0.0
H128 H 0.24706 0.1709 0.29543 0.0
H129 H 0.26911 0.911 0.3142 0.0
H130 H 0.17535 0.97045 0.28103 0.0
H131 H 0.31673 0.04044 0.27901 0.0
C132 C 0.8897 0.13248 0.29326 0.0
C133 C 0.86694 0.08795 0.29171 0.0
N134 N 0.87993 0.06869 0.29838 0.0
N135 N 0.91746 0.14146 0.30079 0.0
C136 C 0.91094 0.10198 0.30375 0.0
H137 H 0.8848 0.15657 0.28944 0.0
Co138 Co 0.94816 0.19551 0.30692 0.0
C139 C 0.03996 0.21606 0.30794 0.0
O140 O 0.05044 0.25593 0.30516 0.0
N141 N 0.9774 0.2499 0.31357 0.0
C142 C 0.01656 0.2995 0.32495 0.0
C143 C 1.00207 0.25753 0.32168 0.0
C144 C 0.97515 0.28701 0.31249 0.0
N145 N 0.99947 0.31781 0.31914 0.0
O146 O 0.92241 0.16688 0.31894 0.0
H147 H 0.00861 0.23373 0.32512 0.0
H148 H 0.955 0.29141 0.30723 0.0
O149 O 0.99931 0.18693 0.30906 0.0
C150 C 0.88965 0.16953 0.32203 0.0
O151 O 0.88016 0.19721 0.31776 0.0
N152 N 0.97046 0.22194 0.29457 0.0
C153 C 0.99384 0.25288 0.27547 0.0
C154 C 0.00557 0.22348 0.27945 0.0
C155 C 0.99284 0.20778 0.28887 0.0
C156 C 0.95577 0.24774 0.29056 0.0
C157 C 0.96812 0.26466 0.28114 0.0
H158 H 0.99929 0.18243 0.29136 0.0
H159 H 0.93204 0.25301 0.29437 0.0
H160 H 0.92632 0.09755 0.31013 0.0
H161 H 0.84162 0.07099 0.28629 0.0
H162 H 0.03646 0.31473 0.33134 0.0
H163 H 0.02271 0.21087 0.27517 0.0
H164 H 0.95657 0.28574 0.27827 0.0
C165 C 0.8829 0.72974 0.30181 0.0
C166 C 0.92798 0.74961 0.3025 0.0
N167 N 0.94281 0.7879 0.3073 0.0
N168 N 0.86965 0.7555 0.30615 0.0
C169 C 0.90686 0.79076 0.30936 0.0
H170 H 0.86095 0.69721 0.299 0.0
Co171 Co 0.81309 0.73803 0.31024 0.0
C172 C 0.80687 0.81829 0.30761 0.0
O173 O 0.76857 0.79393 0.30339 0.0
N174 N 0.75584 0.71851 0.31499 0.0
C175 C 0.69821 0.71154 0.32331 0.0
C176 C 0.74054 0.74016 0.32041 0.0
C177 C 0.72312 0.67616 0.31537 0.0
N178 N 0.6874 0.67125 0.32013 0.0
O179 O 0.83295 0.74063 0.32318 0.0
H180 H 0.75955 0.77399 0.3227 0.0
H181 H 0.72622 0.64889 0.31273 0.0
O182 O 0.82791 0.80012 0.31098 0.0
C183 C 0.83164 0.70534 0.32583 0.0
O184 O 0.80658 0.66938 0.32086 0.0
N185 N 0.7951 0.73412 0.29704 0.0
C186 C 0.7685 0.72976 0.27774 0.0
C187 C 0.80522 0.76761 0.28131 0.0
C188 C 0.81856 0.76874 0.2909 0.0
C189 C 0.76198 0.69561 0.29338 0.0
C190 C 0.74761 0.6929 0.28379 0.0
H191 H 0.84755 0.79798 0.29341 0.0
H192 H 0.74684 0.66642 0.29775 0.0
H193 H 0.90725 0.81593 0.31397 0.0
H194 H 0.94805 0.73608 0.30006 0.0
H195 H 0.67811 0.71914 0.32799 0.0
H196 H 0.82369 0.79612 0.27672 0.0
H197 H 0.72012 0.66245 0.28119 0.0
C198 C 0.8951 0.75931 0.79736 0.0
C199 C 0.87555 0.78459 0.79604 0.0
N200 N 0.89307 0.81799 0.80249 0.0
N201 N 0.92513 0.7771 0.80452 0.0
C202 C 0.92309 0.81266 0.80748 0.0
H203 H 0.88691 0.72918 0.79357 0.0
Co204 Co 0.95767 0.75562 0.81062 0.0
C205 C 0.04763 0.83231 0.81187 0.0
O206 O 0.06344 0.80631 0.80987 0.0
N207 N 0.99025 0.7341 0.8173 0.0
C208 C 0.03133 0.73036 0.82919 0.0
C209 C 0.00962 0.75117 0.82595 0.0
C210 C 0.9996 0.70157 0.81562 0.0
N211 N 0.0251 0.6992 0.8227 0.0
O212 O 0.93132 0.75799 0.82261 0.0
H213 H 0.00838 0.77765 0.82967 0.0
H214 H 0.98827 0.67994 0.8094 0.0
O215 O 0.00602 0.81622 0.81246 0.0
C216 C 0.89793 0.7221 0.82526 0.0
O217 O 0.89036 0.68555 0.82097 0.0
N218 N 0.9793 0.75091 0.79833 0.0
C219 C 0.99099 0.73721 0.77876 0.0
C220 C 0.01062 0.77972 0.78261 0.0
C221 C 0.00328 0.78595 0.79231 0.0
C222 C 0.95978 0.70929 0.79466 0.0
C223 C 0.96541 0.70163 0.78492 0.0
H224 H 0.0142 0.81908 0.79466 0.0
H225 H 0.93735 0.68198 0.79916 0.0
H226 H 0.94264 0.83366 0.81339 0.0
H227 H 0.84928 0.77786 0.79099 0.0
H228 H 0.0494 0.73683 0.83594 0.0
H229 H 0.02883 0.80813 0.77797 0.0
H230 H 0.94859 0.66834 0.78213 0.0
C231 C 0.28325 0.14012 0.7946 0.0
C232 C 0.2646 0.09515 0.79463 0.0
N233 N 0.23115 0.0784 0.80106 0.0
N234 N 0.26153 0.15157 0.80095 0.0
C235 C 0.22997 0.11333 0.80477 0.0
H236 H 0.3116 0.16313 0.79044 0.0
Co237 Co 0.27775 0.20835 0.80459 0.0
C238 C 0.19785 0.19856 0.81419 0.0
O239 O 0.22053 0.22651 0.82113 0.0
N240 N 0.29528 0.26606 0.80817 0.0
C241 C 0.30424 0.33321 0.80865 0.0
C242 C 0.27765 0.29081 0.80547 0.0
C243 C 0.33248 0.29403 0.81292 0.0
N244 N 0.339 0.33535 0.81333 0.0
O245 O 0.28588 0.19402 0.81747 0.0
H246 H 0.24811 0.27913 0.80116 0.0
H247 H 0.35474 0.28424 0.81585 0.0
O248 O 0.21724 0.18964 0.80751 0.0
C249 C 0.32094 0.19248 0.81875 0.0
O250 O 0.35171 0.20973 0.81205 0.0
N251 N 0.27106 0.22116 0.79176 0.0
C252 C 0.26852 0.23834 0.77211 0.0
C253 C 0.22962 0.21201 0.77725 0.0
C254 C 0.23158 0.20325 0.78706 0.0
C255 C 0.30923 0.24716 0.7869 0.0
C256 C 0.30876 0.25608 0.77701 0.0
H257 H 0.20134 0.18102 0.79073 0.0
H258 H 0.34023 0.26023 0.79069 0.0
H259 H 0.208 0.1113 0.81052 0.0
H260 H 0.27511 0.07631 0.79032 0.0
H261 H 0.29892 0.36049 0.80729 0.0
H262 H 0.19803 0.19695 0.77363 0.0
H263 H 0.33945 0.27637 0.77323 0.0
C264 C 0.89378 0.145 0.80002 0.0
C265 C 0.93898 0.16953 0.79992 0.0
N266 N 0.95461 0.14815 0.80523 0.0
N267 N 0.88125 0.10862 0.80542 0.0
C268 C 0.91907 0.11139 0.80846 0.0
H269 H 0.87142 0.1542 0.79682 0.0
Co270 Co 0.82462 0.07087 0.80974 0.0
C271 C 0.84461 0.00657 0.81929 0.0
O272 O 0.84104 0.01908 0.82808 0.0
N273 N 0.76742 0.03342 0.81413 0.0
C274 C 0.70184 0.97537 0.81709 0.0
C275 C 0.74391 0.98913 0.81392 0.0
C276 C 0.7389 0.04577 0.81732 0.0
N277 N 0.69865 0.01113 0.81921 0.0
O278 O 0.8434 0.09442 0.82246 0.0
H279 H 0.75605 0.96806 0.81138 0.0
H280 H 0.74709 0.07966 0.81787 0.0
O281 O 0.83918 0.02508 0.81187 0.0
C282 C 0.84451 0.1311 0.82315 0.0
O283 O 0.82601 0.14189 0.8162 0.0
N284 N 0.80712 0.05156 0.7971 0.0
C285 C 0.78341 0.03319 0.77769 0.0
C286 C 0.81194 0.02096 0.78191 0.0
C287 C 0.82414 0.03125 0.79162 0.0
C288 C 0.77931 0.06367 0.7931 0.0
C289 C 0.76702 0.05487 0.78336 0.0
H290 H 0.84858 0.0245 0.79456 0.0
H291 H 0.76754 0.0813 0.79746 0.0
H292 H 0.92065 0.08864 0.81352 0.0
H293 H 0.95881 0.20116 0.79647 0.0
H294 H 0.67574 0.94161 0.81775 0.0
H295 H 0.82609 0.00524 0.77762 0.0
H296 H 0.74529 0.06517 0.78026 0.0
C297 C 0.72564 0.8502 0.69795 0.0
C298 C 0.75156 0.83114 0.69809 0.0
N299 N 0.78764 0.85595 0.69267 0.0
N300 N 0.74528 0.88688 0.69249 0.0
C301 C 0.78294 0.8895 0.68934 0.0
H302 H 0.69435 0.83809 0.70157 0.0
Co303 Co 0.72193 0.9228 0.68984 0.0
C304 C 0.79259 0.99599 0.67896 0.0
O305 O 0.76483 0.99298 0.67219 0.0
N306 N 0.69806 0.959 0.68735 0.0
C307 C 0.68676 0.01572 0.68796 0.0
C308 C 0.71491 1.00087 0.6904 0.0
C309 C 0.65955 0.9491 0.6831 0.0
N310 N 0.65174 0.98315 0.68336 0.0
O311 O 0.71076 0.90055 0.67691 0.0
H312 H 0.74546 0.0193 0.69433 0.0
H313 H 0.63763 0.91741 0.67993 0.0
O314 O 0.7792 0.96962 0.68615 0.0
C315 C 0.6762 0.86292 0.67656 0.0
O316 O 0.64971 0.85021 0.68412 0.0
N317 N 0.7308 0.94098 0.70273 0.0
C318 C 0.73506 0.95636 0.72259 0.0
C319 C 0.77306 0.97749 0.71688 0.0
C320 C 0.7704 0.96881 0.70693 0.0
C321 C 0.69348 0.92068 0.70817 0.0
C322 C 0.69488 0.92767 0.71817 0.0
H323 H 0.80032 0.98385 0.70272 0.0
H324 H 0.66263 0.89816 0.70471 0.0
H325 H 0.80605 0.91491 0.68453 0.0
H326 H 0.74463 0.8016 0.70198 0.0
H327 H 0.69152 0.0478 0.68972 0.0
H328 H 0.8047 0.99936 0.72014 0.0
H329 H 0.66501 0.91075 0.72243 0.0
C330 C 0.12568 0.87734 0.69671 0.0
C331 C 0.14212 0.92212 0.69676 0.0
N332 N 0.11037 0.92973 0.69357 0.0
N333 N 0.08399 0.85716 0.69341 0.0
C334 C 0.07557 0.89 0.69158 0.0
H335 H 0.144 0.8608 0.69821 0.0
Co336 Co 0.05404 0.79994 0.68886 0.0
C337 C 0.95991 0.77308 0.68953 0.0
O338 O 0.95225 0.73499 0.69297 0.0
N339 N 0.02476 0.74216 0.68367 0.0
C340 C 0.98324 0.6882 0.67334 0.0
C341 C 0.9975 0.7309 0.67591 0.0
C342 C 0.02827 0.70596 0.68532 0.0
N343 N 0.00262 0.67255 0.67925 0.0
O344 O 0.07232 0.82326 0.67609 0.0
H345 H 0.98924 0.75287 0.67217 0.0
H346 H 0.05018 0.70422 0.69056 0.0
O347 O 0.99943 0.80286 0.68756 0.0
C348 C 0.10596 0.82203 0.67308 0.0
O349 O 0.11771 0.79688 0.67773 0.0
N350 N 0.04063 0.7797 0.70186 0.0
C351 C 0.03581 0.76069 0.72174 0.0
C352 C 0.01266 0.77989 0.71783 0.0
C353 C 0.01673 0.79054 0.70796 0.0
C354 C 0.06468 0.76249 0.70564 0.0
C355 C 0.06248 0.75234 0.71555 0.0
H356 H 0.00244 0.80963 0.70541 0.0
H357 H 0.0877 0.75896 0.70106 0.0
H358 H 0.04624 0.88547 0.68798 0.0
H359 H 0.17539 0.94721 0.69851 0.0
H360 H 0.96223 0.67073 0.66724 0.0
H361 H 0.9936 0.78899 0.72248 0.0
H362 H 0.08226 0.73916 0.71839 0.0
C363 C 0.09378 0.24685 0.69163 0.0
C364 C 0.04877 0.22036 0.69209 0.0
N365 N 0.03874 0.17975 0.68927 0.0
N366 N 0.11164 0.22297 0.68842 0.0
C367 C 0.07716 0.18213 0.68708 0.0
H368 H 0.11215 0.28171 0.69311 0.0
Co369 Co 0.16976 0.24541 0.68468 0.0
C370 C 0.16721 0.16722 0.67571 0.0
O371 O 0.18717 0.18913 0.66781 0.0
N372 N 0.22865 0.26875 0.68098 0.0
C373 C 0.29697 0.28093 0.67983 0.0
C374 C 0.25519 0.25233 0.68305 0.0
C375 C 0.25529 0.30766 0.67662 0.0
N376 N 0.29711 0.31591 0.67579 0.0
O377 O 0.15218 0.24838 0.67167 0.0
H378 H 0.24509 0.22176 0.68682 0.0
H379 H 0.24461 0.33023 0.67437 0.0
O380 O 0.15891 0.18632 0.68258 0.0
C381 C 0.14988 0.28307 0.67033 0.0
O382 O 0.16722 0.31423 0.67694 0.0
N383 N 0.18554 0.24493 0.69757 0.0
C384 C 0.20818 0.25415 0.71714 0.0
C385 C 0.19621 0.21476 0.71225 0.0
C386 C 0.18448 0.21056 0.70245 0.0
C387 C 0.1977 0.28363 0.70218 0.0
C388 C 0.20886 0.28889 0.71202 0.0
H389 H 0.17444 0.17957 0.69891 0.0
H390 H 0.19813 0.31035 0.69818 0.0
H391 H 0.07948 0.15507 0.68401 0.0
H392 H 0.02523 0.23021 0.69415 0.0
H393 H 0.32495 0.27608 0.68039 0.0
H394 H 0.19484 0.18708 0.71604 0.0
H395 H 0.21801 0.31979 0.71558 0.0
C396 C 0.82639 0.59747 0.52577 0.0
C397 C 0.84322 0.57031 0.52362 0.0
N398 N 0.81698 0.54054 0.51695 0.0
N399 N 0.78871 0.58367 0.52077 0.0
C400 C 0.78588 0.55117 0.515 0.0
H401 H 0.83923 0.62374 0.53107 0.0
Co402 Co 0.74808 0.60402 0.52055 0.0
C403 C 0.68787 0.50494 0.52208 0.0
O404 O 0.71731 0.49942 0.52668 0.0
N405 N 0.70785 0.62463 0.51956 0.0
C406 C 0.64821 0.63117 0.52072 0.0
C407 C 0.66575 0.60466 0.52265 0.0
C408 C 0.71492 0.66306 0.51573 0.0
N409 N 0.67924 0.66807 0.51637 0.0
O410 O 0.75716 0.60978 0.50683 0.0
H411 H 0.64921 0.57342 0.52638 0.0
H412 H 0.74568 0.68695 0.5125 0.0
O413 O 0.69689 0.54325 0.5192 0.0
C414 C 0.79306 0.64546 0.50532 0.0
O415 O 0.80956 0.67355 0.51256 0.0
N416 N 0.74246 0.60146 0.53463 0.0
C417 C 0.72251 0.59265 0.55453 0.0
C418 C 0.73694 0.56652 0.55003 0.0
C419 C 0.74741 0.57195 0.54019 0.0
C420 C 0.73489 0.63155 0.53929 0.0
C421 C 0.72358 0.62701 0.54916 0.0
H422 H 0.76035 0.55255 0.5373 0.0
H423 H 0.73634 0.65888 0.5354 0.0
H424 H 0.75957 0.53361 0.50983 0.0
H425 H 0.87065 0.57046 0.52723 0.0
H426 H 0.61544 0.62412 0.52261 0.0
H427 H 0.73993 0.54169 0.55408 0.0
H428 H 0.71449 0.64934 0.55244 0.0
C429 C 0.41268 0.21778 0.5318 0.0
C430 C 0.44184 0.26252 0.53202 0.0
N431 N 0.47474 0.27111 0.5258 0.0
N432 N 0.42772 0.19873 0.52554 0.0
C433 C 0.46508 0.2322 0.52191 0.0
H434 H 0.38295 0.20021 0.53605 0.0
Co435 Co 0.40316 0.14 0.52203 0.0
C436 C 0.47959 0.13785 0.51263 0.0
O437 O 0.4558 0.11128 0.5056 0.0
N438 N 0.37801 0.08081 0.51856 0.0
C439 C 0.3633 0.01171 0.51738 0.0
C440 C 0.39225 0.05279 0.52093 0.0
C441 C 0.33998 0.05583 0.51375 0.0
N442 N 0.3302 0.01352 0.51286 0.0
O443 O 0.39623 0.15615 0.50911 0.0
H444 H 0.42187 0.06164 0.525 0.0
H445 H 0.31946 0.0684 0.51113 0.0
O446 O 0.46174 0.15002 0.51907 0.0
C447 C 0.36247 0.16079 0.50907 0.0
O448 O 0.3366 0.1471 0.51673 0.0
N449 N 0.4071 0.12546 0.53487 0.0
C450 C 0.40278 0.10636 0.5546 0.0
C451 C 0.44246 0.12235 0.54952 0.0
C452 C 0.44414 0.13235 0.53963 0.0
C453 C 0.36812 0.109 0.53966 0.0
C454 C 0.36525 0.09948 0.54957 0.0
H455 H 0.47536 0.14638 0.53593 0.0
H456 H 0.33932 0.1043 0.53578 0.0
H457 H 0.48534 0.22836 0.51654 0.0
H458 H 0.44014 0.28642 0.53669 0.0
H459 H 0.36692 0.98302 0.51801 0.0
H460 H 0.4722 0.12862 0.55324 0.0
H461 H 0.33411 0.08725 0.55329 0.0
C462 C 0.77867 0.16919 0.52324 0.0
C463 C 0.73373 0.14537 0.52217 0.0
N464 N 0.72003 0.17241 0.51875 0.0
N465 N 0.79331 0.21103 0.52048 0.0
C466 C 0.7568 0.21202 0.51776 0.0
H467 H 0.79961 0.1566 0.52561 0.0
Co468 Co 0.85271 0.2533 0.51925 0.0
C469 C 0.83836 0.33185 0.52134 0.0
O470 O 0.84628 0.33594 0.5307 0.0
N471 N 0.91347 0.29635 0.51764 0.0
C472 C 0.9772 0.35886 0.51937 0.0
C473 C 0.93383 0.33632 0.52195 0.0
C474 C 0.94604 0.29557 0.51247 0.0
N475 N 0.98509 0.33336 0.5134 0.0
O476 O 0.84662 0.23867 0.50567 0.0
H477 H 0.91901 0.34811 0.52707 0.0
H478 H 0.94142 0.26814 0.50807 0.0
O479 O 0.83903 0.30104 0.51647 0.0
C480 C 0.85117 0.20539 0.50403 0.0
O481 O 0.87055 0.19433 0.51072 0.0
N482 N 0.85697 0.26197 0.53304 0.0
C483 C 0.86698 0.2742 0.55321 0.0
C484 C 0.82791 0.26585 0.54863 0.0
C485 C 0.82317 0.25881 0.53859 0.0
C486 C 0.89286 0.26468 0.53757 0.0
C487 C 0.89912 0.27206 0.54758 0.0
H488 H 0.79311 0.25349 0.53525 0.0
H489 H 0.91751 0.26198 0.53342 0.0
H490 H 0.75721 0.24069 0.51477 0.0
H491 H 0.71276 0.11079 0.52374 0.0
H492 H 1.00144 0.39111 0.52196 0.0
H493 H 0.80131 0.2652 0.55274 0.0
H494 H 0.92938 0.27706 0.55081 0.0
C495 C 0.91647 0.4795 0.63476 0.0
C496 C 0.8953 0.50317 0.63617 0.0
N497 N 0.8582 0.47789 0.64122 0.0
N498 N 0.89278 0.4397 0.63895 0.0
C499 C 0.85751 0.43975 0.64283 0.0
H500 H 0.94789 0.49106 0.63125 0.0
Co501 Co 0.91081 0.39875 0.64073 0.0
C502 C 0.83223 0.32291 0.64968 0.0
O503 O 0.85563 0.31598 0.65614 0.0
N504 N 0.93011 0.35816 0.6426 0.0
C505 C 0.9395 0.30031 0.64127 0.0
C506 C 0.91202 0.31663 0.63922 0.0
C507 C 0.96851 0.36631 0.64662 0.0
N508 N 0.9753 0.33174 0.6459 0.0
O509 O 0.92075 0.41605 0.65411 0.0
H510 H 0.88147 0.2998 0.63522 0.0
H511 H 0.99138 0.39738 0.64989 0.0
O512 O 0.85093 0.35405 0.64355 0.0
C513 C 0.95612 0.45193 0.65584 0.0
O514 O 0.98667 0.46783 0.64908 0.0
N515 N 0.90177 0.38426 0.62746 0.0
C516 C 0.89072 0.36336 0.60771 0.0
C517 C 0.85588 0.36025 0.61328 0.0
C518 C 0.86208 0.37094 0.62314 0.0
C519 C 0.93651 0.38898 0.6221 0.0
C520 C 0.93153 0.37803 0.61222 0.0
H521 H 0.83492 0.36881 0.62726 0.0
H522 H 0.96816 0.40087 0.62553 0.0
H523 H 0.833 0.41344 0.64723 0.0
H524 H 0.90645 0.53643 0.63377 0.0
H525 H 0.93407 0.26829 0.63919 0.0
H526 H 0.8239 0.34918 0.61006 0.0
H527 H 0.95943 0.3816 0.60811 0.0
C528 C 0.52811 0.45917 0.62766 0.0
C529 C 0.50393 0.41432 0.6265 0.0
N530 N 0.51515 0.3954 0.63362 0.0
N531 N 0.55448 0.46838 0.63546 0.0
C532 C 0.54588 0.42895 0.63894 0.0
H533 H 0.526 0.48352 0.62325 0.0
Co534 Co 0.59019 0.5234 0.64082 0.0
C535 C 0.65535 0.51015 0.65208 0.0
O536 O 0.65617 0.53397 0.65953 0.0
N537 N 0.62558 0.57905 0.64614 0.0
C538 C 0.68157 0.64572 0.64924 0.0
C539 C 0.66961 0.6049 0.64553 0.0
C540 C 0.6115 0.6049 0.65012 0.0
N541 N 0.64489 0.64572 0.65209 0.0
O542 O 0.55839 0.50236 0.65273 0.0
H543 H 0.69149 0.59516 0.64229 0.0
H544 H 0.57717 0.59454 0.65111 0.0
O545 O 0.63106 0.50482 0.64476 0.0
C546 C 0.52058 0.49891 0.65238 0.0
O547 O 0.51123 0.51587 0.64485 0.0
N548 N 0.61903 0.54332 0.62892 0.0
C549 C 0.65457 0.5718 0.61049 0.0
C550 C 0.65833 0.53846 0.6152 0.0
C551 C 0.64014 0.52449 0.62441 0.0
C552 C 0.61514 0.57587 0.62448 0.0
C553 C 0.63319 0.59104 0.61527 0.0
H554 H 0.64179 0.49754 0.62774 0.0
H555 H 0.59725 0.58958 0.62803 0.0
H556 H 0.56046 0.4249 0.64551 0.0
H557 H 0.47975 0.39699 0.62088 0.0
H558 H 0.7147 0.67326 0.64973 0.0
H559 H 0.67455 0.52276 0.61172 0.0
H560 H 0.629 0.61634 0.61179 0.0
C561 C 0.53226 0.06614 0.63453 0.0
C562 C 0.57749 0.08789 0.6347 0.0
N563 N 0.5917 0.12574 0.63963 0.0
N564 N 0.51824 0.09022 0.63935 0.0
C565 C 0.5552 0.12643 0.64235 0.0
H566 H 0.5109 0.03364 0.63163 0.0
Co567 Co 0.46117 0.06977 0.6435 0.0
C568 C 0.44937 0.14722 0.64319 0.0
O569 O 0.41014 0.12177 0.63947 0.0
N570 N 0.4032 0.04761 0.64823 0.0
C571 C 0.34942 0.03877 0.65824 0.0
C572 C 0.39285 0.0651 0.65585 0.0
C573 C 0.36565 0.00924 0.64648 0.0
N574 N 0.33232 0.0035 0.65236 0.0
O575 O 0.48044 0.06853 0.65632 0.0
H576 H 0.41598 0.09439 0.65974 0.0
H577 H 0.363 0.98464 0.64141 0.0
O578 O 0.47363 0.13076 0.64534 0.0
C579 C 0.47765 0.03191 0.65835 0.0
O580 O 0.45414 0.99829 0.65259 0.0
N581 N 0.44428 0.06912 0.6304 0.0
C582 C 0.42722 0.06392 0.61047 0.0
C583 C 0.45325 0.10459 0.61495 0.0
C584 C 0.46269 0.10636 0.62483 0.0
C585 C 0.42103 0.02908 0.62602 0.0
C586 C 0.41159 0.02568 0.61605 0.0
H587 H 0.48657 0.1377 0.62782 0.0
H588 H 0.41193 0.99956 0.6301 0.0
H589 H 0.55539 0.15106 0.6471 0.0
H590 H 0.59829 0.07612 0.63175 0.0
H591 H 0.33256 0.04364 0.66429 0.0
H592 H 0.46802 0.13471 0.61075 0.0
H593 H 0.39303 0.99355 0.61273 0.0
C594 C 0.52302 0.07457 0.12965 0.0
C595 C 0.49761 0.09419 0.13003 0.0
N596 N 0.51452 0.12598 0.13686 0.0
N597 N 0.55577 0.09404 0.13619 0.0
C598 C 0.54977 0.12519 0.14047 0.0
H599 H 0.51753 0.04725 0.12507 0.0
Co600 Co 0.59562 0.07622 0.13937 0.0
C601 C 0.6674 0.1543 0.14947 0.0
O602 O 0.67289 0.13051 0.15609 0.0
N603 N 0.63509 0.05704 0.14258 0.0
C604 C 0.69264 0.04693 0.14297 0.0
C605 C 0.67765 0.07454 0.14001 0.0
C606 C 0.62497 0.0189 0.14702 0.0
N607 N 0.65934 0.01168 0.14737 0.0
O608 O 0.57151 0.06406 0.15223 0.0
H609 H 0.69621 0.10481 0.13599 0.0
H610 H 0.59265 0.99661 0.14983 0.0
O611 O 0.63818 0.13596 0.14292 0.0
C612 C 0.53418 0.02899 0.15253 0.0
O613 O 0.5219 0.00279 0.14493 0.0
N614 N 0.61642 0.08677 0.12656 0.0
C615 C 0.63741 0.09684 0.10688 0.0
C616 C 0.64091 0.13211 0.11232 0.0
C617 C 0.63038 0.12647 0.12218 0.0
C618 C 0.61264 0.05199 0.12136 0.0
C619 C 0.62376 0.05655 0.1115 0.0
H620 H 0.63172 0.15358 0.12617 0.0
H621 H 0.60019 0.02037 0.12484 0.0
H622 H 0.56975 0.14565 0.14641 0.0
H623 H 0.46886 0.08564 0.12565 0.0
H624 H 0.72521 0.05204 0.14169 0.0
H625 H 0.6511 0.16359 0.10893 0.0
H626 H 0.62017 0.0285 0.10745 0.0
C627 C 0.92715 0.4497 0.1329 0.0
C628 C 0.90465 0.40448 0.13344 0.0
N629 N 0.8681 0.39185 0.13877 0.0
N630 N 0.90491 0.46531 0.13792 0.0
C631 C 0.86899 0.42925 0.14138 0.0
H632 H 0.95877 0.47003 0.1295 0.0
Co633 Co 0.92621 0.5237 0.1413 0.0
C634 C 0.8449 0.51054 0.15117 0.0
O635 O 0.86294 0.51842 0.15985 0.0
N636 N 0.94816 0.58255 0.14481 0.0
C637 C 0.95737 0.64943 0.1468 0.0
C638 C 0.92944 0.60756 0.14344 0.0
C639 C 0.98752 0.60999 0.14889 0.0
N640 N 0.99403 0.65097 0.15024 0.0
O641 O 0.9323 0.50857 0.15427 0.0
H642 H 0.89763 0.59623 0.14015 0.0
H643 H 0.01135 0.60028 0.15066 0.0
O644 O 0.86697 0.5117 0.14371 0.0
C645 C 0.96734 0.50678 0.15535 0.0
O646 O 0.9968 0.52238 0.14836 0.0
N647 N 0.92237 0.53734 0.12835 0.0
C648 C 0.92273 0.55576 0.10867 0.0
C649 C 0.88337 0.52695 0.1134 0.0
C650 C 0.884 0.5175 0.12322 0.0
C651 C 0.96103 0.56527 0.12387 0.0
C652 C 0.96199 0.57493 0.11399 0.0
H653 H 0.85389 0.49303 0.12659 0.0
H654 H 0.99137 0.57948 0.12795 0.0
H655 H 0.84543 0.43032 0.14627 0.0
H656 H 0.91485 0.38263 0.13037 0.0
H657 H 0.95073 0.67634 0.14683 0.0
H658 H 0.85262 0.51058 0.10943 0.0
H659 H 0.99305 0.59699 0.11052 0.0
C660 C 0.54746 0.45812 0.12894 0.0
C661 C 0.59177 0.47464 0.12758 0.0
N662 N 0.60673 0.45953 0.13478 0.0
N663 N 0.53447 0.43229 0.1369 0.0
C664 C 0.57128 0.43401 0.14033 0.0
H665 H 0.52629 0.46527 0.12455 0.0
Co666 Co 0.47913 0.405 0.14253 0.0
C667 C 0.46079 0.31517 0.14721 0.0
O668 O 0.4196 0.30027 0.14474 0.0
N669 N 0.42336 0.37858 0.14858 0.0
C670 C 0.37229 0.34538 0.16004 0.0
C671 C 0.4156 0.36141 0.15766 0.0
C672 C 0.38446 0.37451 0.14582 0.0
N673 N 0.35287 0.35368 0.15259 0.0
O674 O 0.50503 0.43707 0.15417 0.0
H675 H 0.44009 0.36063 0.16228 0.0
H676 H 0.37904 0.38709 0.13913 0.0
O677 O 0.48794 0.35658 0.14691 0.0
C678 C 0.50827 0.47478 0.15396 0.0
O679 O 0.48997 0.48393 0.14667 0.0
N680 N 0.45525 0.3768 0.13052 0.0
C681 C 0.4287 0.34835 0.11149 0.0
C682 C 0.4511 0.33205 0.11689 0.0
C683 C 0.46552 0.3479 0.12625 0.0
C684 C 0.43514 0.39439 0.12517 0.0
C685 C 0.42117 0.38034 0.11565 0.0
H686 H 0.48719 0.33872 0.12973 0.0
H687 H 0.43206 0.42125 0.1281 0.0
H688 H 0.57207 0.41723 0.14686 0.0
H689 H 0.61162 0.49713 0.12189 0.0
H690 H 0.35664 0.33039 0.16688 0.0
H691 H 0.45973 0.30921 0.11369 0.0
H692 H 0.40569 0.39508 0.11149 0.0
C693 C 0.41632 0.19168 0.03165 0.0
C694 C 0.43945 0.16963 0.03102 0.0
N695 N 0.47405 0.19256 0.02509 0.0
N696 N 0.43616 0.22805 0.02608 0.0
C697 C 0.47136 0.22777 0.0222 0.0
H698 H 0.38568 0.18071 0.03548 0.0
Co699 Co 0.4126 0.26302 0.02259 0.0
C700 C 0.48472 0.33338 0.0113 0.0
O701 O 0.45819 0.32756 0.00401 0.0
N702 N 0.38855 0.29812 0.01907 0.0
C703 C 0.37814 0.35519 0.01753 0.0
C704 C 0.40594 0.34137 0.02094 0.0
C705 C 0.34985 0.28627 0.01466 0.0
N706 N 0.34264 0.32048 0.01359 0.0
O707 O 0.40258 0.23773 0.00991 0.0
H708 H 0.437 0.36168 0.02456 0.0
H709 H 0.32713 0.25298 0.01243 0.0
O710 O 0.47017 0.30938 0.01886 0.0
C711 C 0.36833 0.19982 0.00965 0.0
O712 O 0.34139 0.18756 0.01712 0.0
N713 N 0.4204 0.28467 0.03525 0.0
C714 C 0.42325 0.31223 0.05434 0.0
C715 C 0.46211 0.32647 0.04903 0.0
C716 C 0.46006 0.31181 0.0395 0.0
C717 C 0.38237 0.27 0.04034 0.0
C718 C 0.38301 0.28333 0.04993 0.0
H719 H 0.49039 0.32208 0.03563 0.0
H720 H 0.35135 0.24786 0.0369 0.0
H721 H 0.49286 0.2511 0.01682 0.0
H722 H 0.43085 0.13854 0.0344 0.0
H723 H 0.38421 0.38851 0.01784 0.0
H724 H 0.49384 0.34801 0.05228 0.0
H725 H 0.35235 0.27153 0.05383 0.0
C726 C 0.82803 0.22063 0.02528 0.0
C727 C 0.85253 0.26578 0.02467 0.0
N728 N 0.82858 0.28012 0.01991 0.0
N729 N 0.78895 0.20673 0.02092 0.0
C730 C 0.79026 0.24368 0.01772 0.0
H731 H 0.83844 0.19915 0.02845 0.0
Co732 Co 0.74679 0.14869 0.01846 0.0
C733 C 0.67144 0.15537 0.01068 0.0
O734 O 0.66401 0.12681 0.00373 0.0
N735 N 0.7048 0.08961 0.01593 0.0
C736 C 0.64632 0.02254 0.01698 0.0
C737 C 0.66352 0.06609 0.01945 0.0
C738 C 0.71183 0.05963 0.01138 0.0
N739 N 0.67699 0.01846 0.01194 0.0
O740 O 0.76333 0.15929 0.00508 0.0
H741 H 0.64761 0.07943 0.02391 0.0
H742 H 0.74237 0.06766 0.00788 0.0
O743 O 0.70288 0.16602 0.01664 0.0
C744 C 0.79713 0.15604 0.00326 0.0
O745 O 0.81085 0.13903 0.00996 0.0
N746 N 0.73363 0.13963 0.03172 0.0
C747 C 0.71614 0.12403 0.05156 0.0
C748 C 0.7129 0.1578 0.04686 0.0
C749 C 0.72168 0.165 0.03694 0.0
C750 C 0.73888 0.10798 0.03619 0.0
C751 C 0.72961 0.09912 0.04608 0.0
H752 H 0.71957 0.19151 0.03349 0.0
H753 H 0.74975 0.08906 0.03203 0.0
H754 H 0.76458 0.2438 0.01341 0.0
H755 H 0.88542 0.28639 0.02745 0.0
H756 H 0.61447 0.99584 0.01912 0.0
H757 H 0.70423 0.17901 0.05082 0.0
H758 H 0.73249 0.07264 0.04934 0.0
C759 C 0.77919 0.59541 0.02329 0.0
C760 C 0.73427 0.56829 0.02329 0.0
N761 N 0.72573 0.52654 0.02277 0.0
N762 N 0.79868 0.5708 0.02253 0.0
C763 C 0.76514 0.52891 0.02244 0.0
H764 H 0.79647 0.63091 0.02335 0.0
Co765 Co 0.85816 0.59266 0.02007 0.0
C766 C 0.86139 0.51759 0.01089 0.0
O767 O 0.89147 0.54309 0.00458 0.0
N768 N 0.91853 0.61579 0.01771 0.0
C769 C 0.98753 0.62976 0.01871 0.0
C770 C 0.94475 0.60144 0.02137 0.0
C771 C 0.94628 0.65287 0.01285 0.0
N772 N 0.98861 0.66239 0.01334 0.0
O773 O 0.84705 0.6001 0.00679 0.0
H774 H 0.93369 0.57247 0.02583 0.0
H775 H 0.93568 0.67266 0.00903 0.0
O776 O 0.84662 0.53383 0.01712 0.0
C777 C 0.84609 0.63509 0.00488 0.0
O778 O 0.86372 0.6676 0.01116 0.0
N779 N 0.86709 0.58682 0.03323 0.0
C780 C 0.87949 0.58718 0.05321 0.0
C781 C 0.86826 0.54946 0.04771 0.0
C782 C 0.86153 0.54967 0.03771 0.0
C783 C 0.87818 0.62382 0.03846 0.0
C784 C 0.88425 0.62466 0.04851 0.0
H785 H 0.85189 0.51989 0.03368 0.0
H786 H 0.88183 0.65267 0.03479 0.0
H787 H 0.76908 0.50056 0.02167 0.0
H788 H 0.70981 0.5784 0.02341 0.0
H789 H 0.01561 0.62682 0.02079 0.0
H790 H 0.86378 0.51978 0.05115 0.0
H791 H 0.89282 0.65432 0.05256 0.0
C792 C 0.47669 0.9424 0.8657 0.0
C793 C 0.5018 0.92271 0.86679 0.0
N794 N 0.48702 0.88876 0.86051 0.0
N795 N 0.44599 0.92066 0.85884 0.0
C796 C 0.45302 0.88816 0.85582 0.0
H797 H 0.48155 0.97172 0.86938 0.0
Co798 Co 0.41006 0.93908 0.85321 0.0
C799 C 0.32267 0.85945 0.85348 0.0
O800 O 0.30755 0.88412 0.85701 0.0
N801 N 0.37601 0.95982 0.84699 0.0
C802 C 0.33065 0.96812 0.83701 0.0
C803 C 0.3429 0.93921 0.84049 0.0
C804 C 0.38554 0.00216 0.84664 0.0
N805 N 0.35758 0.0077 0.8409 0.0
O806 O 0.43626 0.94007 0.84101 0.0
H807 H 0.32981 0.90589 0.83796 0.0
H808 H 0.41382 0.02899 0.85011 0.0
O809 O 0.36347 0.87707 0.85125 0.0
C810 C 0.47261 0.9757 0.83998 0.0
O811 O 0.48182 0.00782 0.84614 0.0
N812 N 0.38727 0.93981 0.86578 0.0
C813 C 0.36523 0.94309 0.88516 0.0
C814 C 0.36329 0.90522 0.88142 0.0
C815 C 0.37471 0.90434 0.87177 0.0
C816 C 0.39025 0.97736 0.86944 0.0
C817 C 0.37834 0.97935 0.87906 0.0
H818 H 0.375 0.8754 0.86923 0.0
H819 H 0.40402 0.00686 0.86519 0.0
H820 H 0.43544 0.86641 0.84983 0.0
H821 H 0.5295 0.93331 0.87166 0.0
H822 H 0.3058 0.96131 0.83156 0.0
H823 H 0.35401 0.87682 0.886 0.0
H824 H 0.38153 0.00965 0.88185 0.0
C825 C 0.07988 0.54873 0.86605 0.0
C826 C 0.09968 0.59372 0.86678 0.0
N827 N 0.13496 0.61183 0.86085 0.0
N828 N 0.10272 0.53863 0.85972 0.0
C829 C 0.13608 0.57766 0.85668 0.0
H830 H 0.05 0.52493 0.86965 0.0
Co831 Co 0.08649 0.48332 0.85499 0.0
C832 C 0.17261 0.50737 0.84596 0.0
O833 O 0.15614 0.50234 0.83716 0.0
N834 N 0.06957 0.42728 0.85023 0.0
C835 C 0.06539 0.36339 0.84689 0.0
C836 C 0.09234 0.40571 0.85009 0.0
C837 C 0.02885 0.39724 0.84725 0.0
N838 N 0.0253 0.35805 0.84512 0.0
O839 O 0.08351 0.50395 0.84228 0.0
H840 H 0.12595 0.41918 0.85247 0.0
H841 H 1.00172 0.40341 0.84708 0.0
O842 O 0.14818 0.50079 0.85337 0.0
C843 C 0.04659 0.50101 0.84047 0.0
O844 O 0.01422 0.47979 0.84665 0.0
N845 N 0.08595 0.46363 0.8676 0.0
C846 C 0.07511 0.43769 0.88696 0.0
C847 C 0.11717 0.46516 0.88319 0.0
C848 C 0.12188 0.4785 0.87348 0.0
C849 C 0.04488 0.43632 0.87114 0.0
C850 C 0.03865 0.42307 0.88085 0.0
H851 H 0.15403 0.50235 0.87089 0.0
H852 H 0.01665 0.42619 0.86647 0.0
H853 H 0.15928 0.58101 0.8511 0.0
H854 H 0.08856 0.61166 0.87123 0.0
H855 H 0.07471 0.33857 0.84599 0.0
H856 H 0.14588 0.47794 0.88783 0.0
H857 H 0.00568 0.40236 0.88362 0.0
C858 C 0.47146 0.56018 0.86745 0.0
C859 C 0.42702 0.54275 0.86891 0.0
N860 N 0.41161 0.55899 0.86204 0.0
N861 N 0.48407 0.58769 0.85978 0.0
C862 C 0.44693 0.58608 0.85662 0.0
H863 H 0.49297 0.55253 0.87158 0.0
Co864 Co 0.53898 0.61721 0.85393 0.0
C865 C 0.55484 0.70785 0.85121 0.0
O866 O 0.59629 0.72371 0.85359 0.0
N867 N 0.59427 0.64609 0.84761 0.0
C868 C 0.64454 0.68323 0.83621 0.0
C869 C 0.60193 0.66806 0.8391 0.0
C870 C 0.63238 0.64651 0.84945 0.0
N871 N 0.66357 0.66956 0.84272 0.0
O872 O 0.51188 0.58941 0.84201 0.0
H873 H 0.57771 0.67221 0.83512 0.0
H874 H 0.63729 0.62939 0.85538 0.0
O875 O 0.52909 0.66622 0.85093 0.0
C876 C 0.51157 0.55361 0.84043 0.0
O877 O 0.5349 0.54315 0.84615 0.0
N878 N 0.56412 0.64142 0.86617 0.0
C879 C 0.59412 0.66497 0.88524 0.0
C880 C 0.57018 0.68197 0.88072 0.0
C881 C 0.55415 0.66858 0.87133 0.0
C882 C 0.58553 0.6229 0.87066 0.0
C883 C 0.60127 0.63455 0.88017 0.0
H884 H 0.53167 0.67829 0.86852 0.0
H885 H 0.58829 0.59709 0.86706 0.0
H886 H 0.44582 0.6041 0.85035 0.0
H887 H 0.40739 0.51889 0.8744 0.0
H888 H 0.65976 0.70111 0.82959 0.0
H889 H 0.56173 0.70349 0.88464 0.0
H890 H 0.61789 0.61917 0.88361 0.0
C891 C 0.58045 0.78856 0.96066 0.0
C892 C 0.55351 0.8062 0.95941 0.0
N893 N 0.5219 0.78937 0.96628 0.0
N894 N 0.56549 0.76035 0.96821 0.0
C895 C 0.53001 0.76169 0.9715 0.0
H896 H 0.60968 0.79663 0.95651 0.0
Co897 Co 0.59087 0.73081 0.97396 0.0
C898 C 0.5163 0.63974 0.97627 0.0
O899 O 0.54224 0.62447 0.97375 0.0
N900 N 0.61731 0.70189 0.9802 0.0
C901 C 0.63046 0.66394 0.99139 0.0
C902 C 0.60239 0.67836 0.98851 0.0
C903 C 0.65597 0.70329 0.97851 0.0
N904 N 0.66412 0.67973 0.98508 0.0
O905 O 0.59119 0.75812 0.98596 0.0
H906 H 0.57329 0.67279 0.9924 0.0
H907 H 0.67881 0.7223 0.97285 0.0
O908 O 0.53188 0.68129 0.97681 0.0
C909 C 0.62688 0.79383 0.98748 0.0
O910 O 0.66057 0.80355 0.98178 0.0
N911 N 0.59236 0.70735 0.96166 0.0
C912 C 0.59988 0.68399 0.94263 0.0
C913 C 0.55865 0.66726 0.94701 0.0
C914 C 0.5555 0.68058 0.95638 0.0
C915 C 0.63253 0.7259 0.95727 0.0
C916 C 0.63717 0.71427 0.94779 0.0
H917 H 0.52319 0.67099 0.9591 0.0
H918 H 0.6609 0.75169 0.96093 0.0
H919 H 0.51092 0.74316 0.97772 0.0
H920 H 0.5578 0.83064 0.95407 0.0
H921 H 0.62763 0.6453 -0.00211 0.0
H922 H 0.52889 0.64591 0.94301 0.0
H923 H 0.6694 0.72951 0.94447 0.0
C924 C 0.2029 0.79249 0.96116 0.0
C925 C 0.17838 0.74748 0.96033 0.0
N926 N 0.19364 0.72961 0.96683 0.0
N927 N 0.23346 0.80279 0.96812 0.0
C928 C 0.22705 0.76387 0.97145 0.0
H929 H 0.19804 0.81621 0.95715 0.0
Co930 Co 0.27078 0.85827 0.97307 0.0
C931 C 0.33219 0.83565 0.98318 0.0
O932 O 0.31958 0.83961 0.99193 0.0
N933 N 0.30771 0.91407 0.97814 0.0
C934 C 0.36552 0.9788 0.98178 0.0
C935 C 0.35198 0.93777 0.97797 0.0
C936 C 0.2951 0.94129 0.98202 0.0
N937 N 0.32962 0.98101 0.98431 0.0
O938 O 0.24389 0.83745 0.98546 0.0
H939 H 0.3731 0.92643 0.97503 0.0
H940 H 0.26111 0.93259 0.98281 0.0
O941 O 0.31459 0.84187 0.97571 0.0
C942 C 0.20671 0.83503 0.98638 0.0
O943 O 0.19416 0.85286 0.97962 0.0
N944 N 0.29494 0.8778 0.96068 0.0
C945 C 0.32812 0.90609 0.94202 0.0
C946 C 0.32753 0.86932 0.94614 0.0
C947 C 0.31059 0.85557 0.95544 0.0
C948 C 0.29404 0.91292 0.95673 0.0
C949 C 0.31083 0.92789 0.94741 0.0
H950 H 0.30889 0.82616 0.9583 0.0
H951 H 0.28011 0.92934 0.96081 0.0
H952 H 0.24499 0.76069 0.97749 0.0
H953 H 0.15105 0.72933 0.95543 0.0
H954 H 0.39921 0.00487 0.98264 0.0
H955 H 0.33897 0.85047 0.94212 0.0
H956 H 0.31034 0.95622 0.94447 0.0
C957 C 0.20426 0.40336 0.96158 0.0
C958 C 0.24901 0.42417 0.96026 0.0
N959 N 0.26811 0.45741 0.96671 0.0
N960 N 0.19521 0.42363 0.96878 0.0
C961 C 0.23469 0.45644 0.97175 0.0
H962 H 0.18007 0.37418 0.95783 0.0
Co963 Co 0.1414 0.40435 0.97477 0.0
C964 C 0.13163 0.48262 0.9765 0.0
O965 O 0.09004 0.45723 0.97422 0.0
N966 N 0.08722 0.38417 0.98125 0.0
C967 C 0.04121 0.38009 0.9929 0.0
C968 C 0.08428 0.40009 0.99001 0.0
C969 C 0.04527 0.35304 0.97918 0.0
N970 N 0.01677 0.35058 0.98608 0.0
O971 O 0.16774 0.40249 0.98678 0.0
H972 H 0.11191 0.42522 0.99403 0.0
H973 H 0.0353 0.33234 0.97281 0.0
O974 O 0.15668 0.46592 0.97713 0.0
C975 C 0.16762 0.36634 0.98762 0.0
O976 O 0.14548 0.33534 0.98118 0.0
N977 N 0.11695 0.40338 0.96248 0.0
C978 C 0.09318 0.39496 0.9429 0.0
C979 C 0.11799 0.43646 0.94712 0.0
C980 C 0.13084 0.43998 0.95681 0.0
C981 C 0.09336 0.36268 0.9584 0.0
C982 C 0.08083 0.35765 0.94862 0.0
H983 H 0.1546 0.47212 0.95944 0.0
H984 H 0.08678 0.33398 0.96259 0.0
H985 H 0.23893 0.47734 0.97792 0.0
H986 H 0.26615 0.41477 0.95511 0.0
H987 H 0.02888 0.38585 -0.00037 0.0
H988 H 0.13009 0.46598 0.94277 0.0
H989 H 0.06307 0.32506 0.94548 0.0
C990 C 0.19014 0.41551 0.46502 0.0
C991 C 0.17119 0.4416 0.46567 0.0
N992 N 0.19072 0.47051 0.473 0.0
N993 N 0.22177 0.42836 0.47183 0.0
C994 C 0.22097 0.46149 0.47661 0.0
H995 H 0.18126 0.38881 0.45996 0.0
Co996 Co 0.25777 0.40539 0.47488 0.0
C997 C 0.33609 0.4848 0.48388 0.0
O998 O 0.3442 0.46288 0.49051 0.0
N999 N 0.29422 0.38207 0.47797 0.0
C1000 C 0.35068 0.37013 0.47856 0.0
C1001 C 0.3366 0.39817 0.47539 0.0
C1002 C 0.28316 0.34384 0.48253 0.0
N1003 N 0.31694 0.33572 0.48305 0.0
O1004 O 0.23432 0.39545 0.4878 0.0
H1005 H 0.35611 0.4284 0.47142 0.0
H1006 H 0.25057 0.32183 0.48522 0.0
O1007 O 0.3042 0.46466 0.47798 0.0
C1008 C 0.19802 0.35907 0.48781 0.0
O1009 O 0.18777 0.33382 0.48007 0.0
N1010 N 0.27615 0.41162 0.46199 0.0
C1011 C 0.29024 0.40978 0.44217 0.0
C1012 C 0.31328 0.44909 0.4474 0.0
C1013 C 0.3053 0.44952 0.45735 0.0
C1014 C 0.25437 0.37301 0.45704 0.0
C1015 C 0.26061 0.37138 0.44707 0.0
H1016 H 0.32198 0.48042 0.46119 0.0
H1017 H 0.23109 0.34351 0.46084 0.0
H1018 H 0.24249 0.47888 0.48264 0.0
H1019 H 0.14483 0.43912 0.46116 0.0
H1020 H 0.38345 0.37518 0.47766 0.0
H1021 H 0.33608 0.47939 0.44376 0.0
H1022 H 0.24229 0.34052 0.44322 0.0
C1023 C 0.58865 0.78679 0.46743 0.0
C1024 C 0.56649 0.74151 0.4675 0.0
N1025 N 0.5291 0.72732 0.47262 0.0
N1026 N 0.56537 0.80102 0.47251 0.0
C1027 C 0.52913 0.764 0.47554 0.0
H1028 H 0.62112 0.80796 0.4645 0.0
Co1029 Co 0.58706 0.85782 0.4772 0.0
C1030 C 0.51098 0.87212 0.47722 0.0
O1031 O 0.53753 0.91241 0.47419 0.0
N1032 N 0.60994 0.91537 0.48251 0.0
C1033 C 0.61608 0.96634 0.49308 0.0
C1034 C 0.59296 0.92265 0.49067 0.0
C1035 C 0.645 0.95545 0.48039 0.0
N1036 N 0.64885 0.98702 0.48663 0.0
O1037 O 0.58621 0.83532 0.48987 0.0
H1038 H 0.56532 0.8975 0.49467 0.0
H1039 H 0.66773 0.96172 0.47451 0.0
O1040 O 0.52636 0.84646 0.47883 0.0
C1041 C 0.62273 0.83803 0.49201 0.0
O1042 O 0.65706 0.86308 0.48657 0.0
N1043 N 0.59031 0.87787 0.46428 0.0
C1044 C 0.60155 0.89801 0.44444 0.0
C1045 C 0.55947 0.87486 0.44848 0.0
C1046 C 0.55452 0.86378 0.45834 0.0
C1047 C 0.63148 0.8992 0.46036 0.0
C1048 C 0.63792 0.90991 0.45046 0.0
H1049 H 0.52181 0.84176 0.46096 0.0
H1050 H 0.65942 0.90588 0.46484 0.0
H1051 H 0.50531 0.76386 0.48055 0.0
H1052 H 0.57793 0.72064 0.46444 0.0
H1053 H 0.61019 0.98156 0.49931 0.0
H1054 H 0.53055 0.86317 0.44394 0.0
H1055 H 0.6709 0.92641 0.44751 0.0
C1056 C 0.20634 0.81105 0.46018 0.0
C1057 C 0.25145 0.83475 0.46 0.0
N1058 N 0.26685 0.81762 0.46665 0.0
N1059 N 0.19331 0.77896 0.46688 0.0
C1060 C 0.23086 0.78371 0.47071 0.0
H1061 H 0.18433 0.81745 0.4559 0.0
Co1062 Co 0.13555 0.74219 0.47075 0.0
C1063 C 0.15404 0.67483 0.47978 0.0
O1064 O 0.15617 0.68786 0.48882 0.0
N1065 N 0.07748 0.70579 0.47465 0.0
C1066 C 0.01092 0.6487 0.47722 0.0
C1067 C 0.05308 0.66159 0.4743 0.0
C1068 C 0.04942 0.71899 0.47768 0.0
N1069 N 0.00851 0.68491 0.47932 0.0
O1070 O 0.15235 0.76404 0.48366 0.0
H1071 H 0.06475 0.63997 0.47187 0.0
H1072 H 0.05871 0.75316 0.47836 0.0
O1073 O 0.14731 0.69492 0.47289 0.0
C1074 C 0.1554 0.8016 0.48437 0.0
O1075 O 0.14091 0.8151 0.47709 0.0
N1076 N 0.11987 0.72368 0.45791 0.0
C1077 C 0.10081 0.70521 0.43825 0.0
C1078 C 0.13171 0.69716 0.44283 0.0
C1079 C 0.14118 0.70713 0.45263 0.0
C1080 C 0.08949 0.73152 0.45362 0.0
C1081 C 0.07911 0.72211 0.44378 0.0
H1082 H 0.16702 0.70321 0.45586 0.0
H1083 H 0.07413 0.74629 0.45778 0.0
H1084 H 0.23176 0.76412 0.47668 0.0
H1085 H 0.27137 0.86278 0.4554 0.0
H1086 H 0.98434 0.61512 0.47779 0.0
H1087 H 0.14915 0.68405 0.43882 0.0
H1088 H 0.05562 0.72952 0.44046 0.0
C1089 C 0.08994 0.54024 0.35981 0.0
C1090 C 0.11261 0.51818 0.36126 0.0
N1091 N 0.15291 0.54233 0.35739 0.0
N1092 N 0.11607 0.57863 0.35522 0.0
C1093 C 0.15421 0.57869 0.35382 0.0
H1094 H 0.05561 0.52753 0.36142 0.0
Co1095 Co 0.09674 0.61514 0.3499 0.0
C1096 C 0.18472 0.66859 0.34026 0.0
O1097 O 0.17497 0.64254 0.33269 0.0
N1098 N 0.0763 0.64999 0.3446 0.0
C1099 C 0.06711 0.70172 0.33758 0.0
C1100 C 0.09686 0.68819 0.33963 0.0
C1101 C 0.03446 0.64101 0.34549 0.0
N1102 N 0.02784 0.6719 0.34127 0.0
O1103 O 0.09148 0.58741 0.33779 0.0
H1104 H 0.13112 0.70536 0.3376 0.0
H1105 H 0.00944 0.61245 0.34928 0.0
O1106 O 0.15681 0.65961 0.34706 0.0
C1107 C 0.05474 0.55322 0.3361 0.0
O1108 O 0.02092 0.54542 0.34156 0.0
N1109 N 0.0999 0.64032 0.36207 0.0
C1110 C 0.10391 0.66935 0.38108 0.0
C1111 C 0.13327 0.69737 0.37401 0.0
C1112 C 0.13047 0.68235 0.36452 0.0
C1113 C 0.06856 0.61409 0.36861 0.0
C1114 C 0.07027 0.62768 0.37821 0.0
H1115 H 0.15308 0.70468 0.35922 0.0
H1116 H 0.04259 0.58205 0.36641 0.0
H1117 H 0.18206 0.60379 0.34992 0.0
H1118 H 0.09955 0.48567 0.36435 0.0
H1119 H 0.07368 0.73069 0.33349 0.0
H1120 H 0.15861 0.73049 0.37582 0.0
H1121 H 0.04647 0.60512 0.38339 0.0
C1122 C 0.46735 0.53168 0.36563 0.0
C1123 C 0.49267 0.5766 0.36629 0.0
N1124 N 0.47802 0.59469 0.35971 0.0
N1125 N 0.43666 0.52131 0.3587 0.0
C1126 C 0.44388 0.56041 0.35521 0.0
H1127 H 0.47194 0.50798 0.36972 0.0
Co1128 Co 0.3997 0.46435 0.35422 0.0
C1129 C 0.34138 0.48948 0.34354 0.0
O1130 O 0.35964 0.49151 0.33508 0.0
N1131 N 0.36339 0.40686 0.34974 0.0
C1132 C 0.3061 0.34101 0.34652 0.0
C1133 C 0.31912 0.38314 0.34958 0.0
C1134 C 0.37646 0.37844 0.34682 0.0
N1135 N 0.34227 0.33801 0.3448 0.0
O1136 O 0.42577 0.48276 0.34177 0.0
H1137 H 0.29756 0.39527 0.35176 0.0
H1138 H 0.41051 0.38689 0.34652 0.0
O1139 O 0.35485 0.47922 0.35117 0.0
C1140 C 0.4629 0.48506 0.34094 0.0
O1141 O 0.47514 0.46729 0.34777 0.0
N1142 N 0.37705 0.44719 0.36674 0.0
C1143 C 0.35792 0.42902 0.3864 0.0
C1144 C 0.34572 0.45608 0.38145 0.0
C1145 C 0.35623 0.46538 0.37164 0.0
C1146 C 0.38827 0.41996 0.37138 0.0
C1147 C 0.37913 0.41051 0.38126 0.0
H1148 H 0.34978 0.48913 0.36819 0.0
H1149 H 0.40611 0.40706 0.36748 0.0
H1150 H 0.42613 0.56372 0.34914 0.0
H1151 H 0.5203 0.59459 0.37113 0.0
H1152 H 0.27254 0.31475 0.34561 0.0
H1153 H 0.33029 0.47182 0.38526 0.0
H1154 H 0.38929 0.38969 0.38489 0.0
C1155 C 0.46806 0.91609 0.36769 0.0
C1156 C 0.42276 0.89112 0.36774 0.0
N1157 N 0.41015 0.86195 0.36036 0.0
N1158 N 0.48363 0.90237 0.36035 0.0
C1159 C 0.44774 0.86959 0.35606 0.0
H1160 H 0.48813 0.94331 0.37247 0.0
Co1161 Co 0.53952 0.92536 0.35527 0.0
C1162 C 0.55004 0.84645 0.3532 0.0
O1163 O 0.59087 0.87001 0.35621 0.0
N1164 N 0.59585 0.94892 0.34959 0.0
C1165 C 0.64625 0.95909 0.33848 0.0
C1166 C 0.60351 0.93281 0.34135 0.0
C1167 C 0.63425 0.98653 0.35128 0.0
N1168 N 0.66554 0.99295 0.34471 0.0
O1169 O 0.51622 0.92991 0.34299 0.0
H1170 H 0.57896 0.9045 0.33741 0.0
H1171 H 0.63897 0.00998 0.35689 0.0
O1172 O 0.52646 0.86467 0.35234 0.0
C1173 C 0.52171 0.96804 0.34134 0.0
O1174 O 0.5495 1.00089 0.34682 0.0
N1175 N 0.56081 0.92407 0.36784 0.0
C1176 C 0.58042 0.93018 0.3877 0.0
C1177 C 0.55809 0.88922 0.3831 0.0
C1178 C 0.54731 0.88678 0.37325 0.0
C1179 C 0.58208 0.96413 0.37228 0.0
C1180 C 0.5925 0.968 0.38218 0.0
H1181 H 0.52541 0.85478 0.37027 0.0
H1182 H 0.58807 0.99309 0.36831 0.0
H1183 H 0.44925 0.85349 0.34949 0.0
H1184 H 0.40096 0.89481 0.37271 0.0
H1185 H 0.66118 0.95523 0.33194 0.0
H1186 H 0.5463 0.85919 0.38725 0.0
H1187 H 0.60834 1.00013 0.38557 0.0
H1188 H 0.10863 0.12709 0.18966 0.0
H1189 H 0.23424 0.22924 0.17934 0.0
H1190 H 0.25425 0.17435 0.17466 0.0
H1191 H 0.23719 0.09712 0.17422 0.0
H1192 H 0.1134 0.99578 0.18564 0.0
H1193 H 0.09114 0.05009 0.18902 0.0
C1194 C 0.1402 0.13716 0.18632 0.0
C1195 C 0.16999 0.18206 0.1849 0.0
C1196 C 0.15171 0.10546 0.18381 0.0
C1197 C 0.21104 0.19487 0.18065 0.0
C1198 C 0.22236 0.16348 0.17791 0.0
C1199 C 0.20509 0.08697 0.17729 0.0
C1200 C 0.17681 0.04254 0.1796 0.0
C1201 C 0.19313 0.11866 0.17955 0.0
C1202 C 0.13566 0.02983 0.18377 0.0
C1203 C 0.12297 0.06086 0.18574 0.0
H1204 H 0.92432 0.14975 0.20376 0.0
H1205 H 0.9898 0.12474 0.18015 0.0
H1206 H 0.93091 0.04765 0.17974 0.0
H1207 H 0.85976 0.98826 0.18587 0.0
H1208 H 0.79707 0.01474 0.20991 0.0
H1209 H 0.85572 0.09074 0.21019 0.0
C1210 C 0.92588 0.12757 0.1985 0.0
C1211 C 0.96128 0.1431 0.19194 0.0
C1212 C 0.89217 0.08363 0.19832 0.0
C1213 C 0.96288 0.11365 0.18527 0.0
C1214 C 0.92916 0.06962 0.18502 0.0
C1215 C 0.85901 0.01039 0.19124 0.0
C1216 C 0.82345 0.99538 0.19781 0.0
C1217 C 0.89347 0.05432 0.19149 0.0
C1218 C 0.82321 0.02512 0.20463 0.0
C1219 C 0.85704 0.0687 0.20486 0.0
H1220 H 0.88728 0.84564 0.17224 0.0
H1221 H 0.85133 0.84204 0.20242 0.0
H1222 H 0.92165 0.85177 0.20751 0.0
H1223 H 0.99383 0.86163 0.20355 0.0
H1224 H 0.03141 0.86606 0.17355 0.0
H1225 H 0.96032 0.85566 0.16826 0.0
C1226 C 0.89489 0.84708 0.17992 0.0
C1227 C 0.86391 0.84337 0.1869 0.0
C1228 C 0.93577 0.85269 0.18286 0.0
C1229 C 0.87445 0.84529 0.19684 0.0
C1230 C 0.91473 0.85062 0.1998 0.0
C1231 C 0.98622 0.8598 0.19586 0.0
C1232 C 0.01769 0.86447 0.18896 0.0
C1233 C 0.94558 0.85427 0.19289 0.0
C1234 C 0.00776 0.86289 0.17901 0.0
C1235 C 0.96711 0.85684 0.17598 0.0
H1236 H 0.03238 0.1348 0.30995 0.0
H1237 H 0.12769 0.27287 0.30724 0.0
H1238 H 0.1869 0.2563 0.30654 0.0
H1239 H 0.21203 0.20275 0.30595 0.0
H1240 H 0.11819 0.06487 0.3088 0.0
H1241 H 0.05836 0.08109 0.31027 0.0
C1242 C 0.06613 0.16123 0.30932 0.0
C1243 C 0.07537 0.20495 0.30857 0.0
C1244 C 0.10044 0.15153 0.30889 0.0
C1245 C 0.11939 0.23883 0.30775 0.0
C1246 C 0.15345 0.22946 0.30734 0.0
C1247 C 0.17845 0.17635 0.30687 0.0
C1248 C 0.16949 0.13276 0.30722 0.0
C1249 C 0.14435 0.18595 0.30774 0.0
C1250 C 0.12593 0.09877 0.30859 0.0
C1251 C 0.09169 0.10802 0.30939 0.0
H1252 H 0.76808 0.86417 0.30189 0.0
H1253 H 0.89036 0.88128 0.31307 0.0
H1254 H 0.92383 0.96113 0.31151 0.0
H1255 H 0.91899 0.02597 0.3061 0.0
H1256 H 0.79592 0.00654 0.29485 0.0
H1257 H 0.76236 0.92774 0.29722 0.0
C1258 C 0.80202 0.88524 0.30405 0.0
C1259 C 0.82668 0.86669 0.30755 0.0
C1260 C 0.82108 0.9308 0.30301 0.0
C1261 C 0.87056 0.89466 0.31036 0.0
C1262 C 0.88977 0.94033 0.30943 0.0
C1263 C 0.88478 0.00444 0.30425 0.0
C1264 C 0.86027 0.02218 0.30016 0.0
C1265 C 0.86547 0.95877 0.30564 0.0
C1266 C 0.81592 0.99382 0.29777 0.0
C1267 C 0.79653 0.94869 0.2992 0.0
H1268 H 0.13736 0.89043 0.32255 0.0
H1269 H 0.11858 1.00018 0.31652 0.0
H1270 H 0.0422 0.95023 0.31202 0.0
H1271 H 0.98213 0.87538 0.30876 0.0
H1272 H 1.00159 0.76534 0.31374 0.0
H1273 H 0.07618 0.81493 0.31963 0.0
C1274 C 0.11612 0.90319 0.32045 0.0
C1275 C 0.13322 0.94881 0.31996 0.0
C1276 C 0.07263 0.87417 0.31752 0.0
C1277 C 0.10595 0.96517 0.31698 0.0
C1278 C 0.06236 0.93663 0.31437 0.0
C1279 C 0.00273 0.86239 0.31119 0.0
C1280 C 0.9867 0.81697 0.31073 0.0
C1281 C 0.04562 0.89112 0.31443 0.0
C1282 C 0.01364 0.80034 0.31384 0.0
C1283 C 0.05611 0.82864 0.31728 0.0
H1284 H 0.83505 0.96028 0.80272 0.0
H1285 H 0.87558 0.97112 0.8327 0.0
H1286 H 0.89358 0.91302 0.83017 0.0
H1287 H 0.8989 0.86022 0.81936 0.0
H1288 H 0.8594 0.85042 0.78932 0.0
H1289 H 0.83985 0.90725 0.79197 0.0
C1290 C 0.84826 0.95038 0.80869 0.0
C1291 C 0.85452 0.97057 0.81786 0.0
C1292 C 0.85864 0.9171 0.80717 0.0
C1293 C 0.87054 0.95629 0.82557 0.0
C1294 C 0.88094 0.92312 0.82411 0.0
C1295 C 0.88641 0.87069 0.81336 0.0
C1296 C 0.88091 0.85111 0.80412 0.0
C1297 C 0.87539 0.90352 0.81493 0.0
C1298 C 0.86368 0.8646 0.79651 0.0
C1299 C 0.8527 0.89727 0.79801 0.0
H1300 H 0.14669 0.03852 0.80696 0.0
H1301 H 0.25445 0.01597 0.80123 0.0
H1302 H 0.20766 0.93809 0.80485 0.0
H1303 H 0.13551 0.87595 0.80876 0.0
H1304 H 0.02653 0.89717 0.81413 0.0
H1305 H 0.07465 0.97616 0.81174 0.0
C1306 C 0.15998 0.01659 0.80662 0.0
C1307 C 0.20386 0.03293 0.80372 0.0
C1308 C 0.13272 0.97166 0.80866 0.0
C1309 C 0.22058 0.00409 0.80324 0.0
C1310 C 0.19392 0.95959 0.80538 0.0
C1311 C 0.12223 0.89778 0.80951 0.0
C1312 C 0.07737 0.88053 0.81157 0.0
C1313 C 0.1498 0.94293 0.80794 0.0
C1314 C 0.0609 0.90949 0.81253 0.0
C1315 C 0.08837 0.95467 0.81113 0.0
H1316 H 0.1538 0.24258 0.81687 0.0
H1317 H 0.13599 0.11591 0.8091 0.0
H1318 H 0.05775 0.08799 0.80617 0.0
H1319 H 0.99507 0.10088 0.80503 0.0
H1320 H 0.01446 0.22944 0.81117 0.0
H1321 H 0.09131 0.2557 0.8155 0.0
C1322 C 0.1325 0.20871 0.81469 0.0
C1323 C 0.1502 0.18106 0.81333 0.0
C1324 C 0.08803 0.19352 0.81261 0.0
C1325 C 0.12279 0.13758 0.81025 0.0
C1326 C 0.07818 0.12169 0.80854 0.0
C1327 C 0.01629 0.13453 0.80736 0.0
C1328 C 0.99956 0.16333 0.80777 0.0
C1329 C 0.06056 0.14953 0.80957 0.0
C1330 C 0.02708 0.207 0.81071 0.0
C1331 C 0.07081 0.22187 0.81323 0.0
H1332 H 0.96369 0.85258 0.68764 0.0
H1333 H 0.87296 0.71334 0.69024 0.0
H1334 H 0.81151 0.72672 0.691 0.0
H1335 H 0.78352 0.77772 0.69181 0.0
H1336 H 0.87306 0.91705 0.68958 0.0
H1337 H 0.93478 0.90391 0.68765 0.0
C1338 C 0.93045 0.82519 0.68826 0.0
C1339 C 0.92306 0.78205 0.68897 0.0
C1340 C 0.89499 0.83311 0.6888 0.0
C1341 C 0.87972 0.74692 0.68978 0.0
C1342 C 0.84445 0.75448 0.69022 0.0
C1343 C 0.81655 0.80522 0.69094 0.0
C1344 C 0.82369 0.84826 0.69094 0.0
C1345 C 0.85176 0.79743 0.68992 0.0
C1346 C 0.86661 0.88355 0.68956 0.0
C1347 C 0.90195 0.87606 0.68851 0.0
H1348 H 0.16761 0.9886 0.68097 0.0
H1349 H 0.06197 0.96306 0.70053 0.0
H1350 H 0.06958 0.03474 0.69662 0.0
H1351 H 0.10783 0.1052 0.68791 0.0
H1352 H 0.20987 0.12855 0.66731 0.0
H1353 H 0.20203 0.05703 0.67122 0.0
C1354 C 0.14652 0.99909 0.68435 0.0
C1355 C 0.11483 0.97145 0.69114 0.0
C1356 C 0.15033 0.03963 0.68183 0.0
C1357 C 0.08677 0.98437 0.69536 0.0
C1358 C 0.09114 0.02515 0.69311 0.0
C1359 C 0.1281 0.09451 0.68421 0.0
C1360 C 0.1595 0.12224 0.67735 0.0
C1361 C 0.12297 0.05315 0.68639 0.0
C1362 C 0.18531 0.10775 0.67258 0.0
C1363 C 0.18104 0.06698 0.67486 0.0
H1364 H 0.86297 0.99984 0.68789 0.0
H1365 H 0.82351 0.07649 0.67055 0.0
H1366 H 0.89655 0.14114 0.67244 0.0
H1367 H 0.97109 0.17656 0.67959 0.0
H1368 H 0.0116 0.09859 0.69597 0.0
H1369 H 0.93863 0.03359 0.69397 0.0
C1370 C 0.87049 0.03063 0.68447 0.0
C1371 C 0.83792 0.03352 0.67913 0.0
C1372 C 0.91254 0.06742 0.68551 0.0
C1373 C 0.84816 0.07343 0.67465 0.0
C1374 C 0.88978 0.11046 0.67579 0.0
C1375 C 0.96354 0.14527 0.68274 0.0
C1376 C 0.99592 0.14209 0.68806 0.0
C1377 C 0.92203 0.10798 0.68131 0.0
C1378 C 0.9867 0.10144 0.69192 0.0
C1379 C 0.94517 0.06446 0.69077 0.0
H1380 H 0.88442 0.52476 0.5152 0.0
H1381 H 0.74326 0.46218 0.51367 0.0
H1382 H 0.73719 0.39034 0.5132 0.0
H1383 H 0.77147 0.34465 0.5159 0.0
H1384 H 0.91241 0.40663 0.51692 0.0
H1385 H 0.91921 0.47871 0.51468 0.0
C1386 C 0.85245 0.4954 0.51459 0.0
C1387 C 0.81445 0.49911 0.51473 0.0
C1388 C 0.8491 0.45377 0.51421 0.0
C1389 C 0.77321 0.46069 0.51371 0.0
C1390 C 0.76959 0.41929 0.51345 0.0
C1391 C 0.80357 0.37381 0.51519 0.0
C1392 C 0.84137 0.37048 0.51647 0.0
C1393 C 0.8072 0.41532 0.51405 0.0
C1394 C 0.88289 0.40848 0.5158 0.0
C1395 C 0.88678 0.44978 0.51465 0.0
H1396 H 0.48891 0.3531 0.52247 0.0
H1397 H 0.55331 0.2779 0.52732 0.0
H1398 H 0.62489 0.34334 0.52531 0.0
H1399 H 0.66894 0.42139 0.52291 0.0
H1400 H 0.60805 0.50045 0.51865 0.0
H1401 H 0.53512 0.43406 0.51946 0.0
C1402 C 0.51881 0.35149 0.52309 0.0
C1403 C 0.51619 0.31085 0.52491 0.0
C1404 C 0.56017 0.38969 0.52197 0.0
C1405 C 0.55482 0.30869 0.52568 0.0
C1406 C 0.59564 0.34609 0.52459 0.0
C1407 C 0.63983 0.42435 0.5221 0.0
C1408 C 0.64388 0.46585 0.52087 0.0
C1409 C 0.59865 0.38664 0.52278 0.0
C1410 C 0.60578 0.46884 0.51964 0.0
C1411 C 0.56413 0.43094 0.52019 0.0
H1412 H 0.68236 0.22185 0.5216 0.0
H1413 H 0.65728 0.09629 0.51087 0.0
H1414 H 0.58121 0.07552 0.50721 0.0
H1415 H 0.52064 0.0921 0.50768 0.0
H1416 H 0.54428 0.21464 0.52 0.0
H1417 H 0.62166 0.23779 0.52238 0.0
C1418 C 0.66026 0.19016 0.51838 0.0
C1419 C 0.6755 0.16083 0.51642 0.0
C1420 C 0.61614 0.1779 0.51661 0.0
C1421 C 0.6463 0.11943 0.51243 0.0
C1422 C 0.6028 0.10757 0.51034 0.0
C1423 C 0.54291 0.12402 0.51078 0.0
C1424 C 0.52684 0.15191 0.51357 0.0
C1425 C 0.58719 0.13639 0.51247 0.0
C1426 C 0.55588 0.19277 0.51777 0.0
C1427 C 0.60016 0.20597 0.51914 0.0
H1428 H 0.74281 0.55738 0.6555 0.0
H1429 H 0.63967 0.43012 0.64622 0.0
H1430 H 0.69375 0.40754 0.64267 0.0
H1431 H 0.77085 0.42598 0.64107 0.0
H1432 H 0.87449 0.55549 0.64877 0.0
H1433 H 0.82019 0.5756 0.65402 0.0
C1434 C 0.73232 0.52445 0.6529 0.0
C1435 C 0.68748 0.49508 0.65127 0.0
C1436 C 0.76379 0.51249 0.65044 0.0
C1437 C 0.67409 0.45296 0.64762 0.0
C1438 C 0.70498 0.44018 0.64554 0.0
C1439 C 0.78134 0.45842 0.64398 0.0
C1440 C 0.82639 0.48932 0.64452 0.0
C1441 C 0.74995 0.46994 0.64674 0.0
C1442 C 0.83988 0.53147 0.64819 0.0
C1443 C 0.80888 0.54282 0.65123 0.0
H1444 H 0.40808 0.19073 0.63736 0.0
H1445 H 0.53158 0.2122 0.64883 0.0
H1446 H 0.56263 0.29171 0.64722 0.0
H1447 H 0.55559 0.35488 0.64165 0.0
H1448 H 0.43218 0.33164 0.62979 0.0
H1449 H 0.40034 0.25291 0.63236 0.0
C1450 C 0.44172 0.21266 0.63959 0.0
C1451 C 0.46745 0.19542 0.64319 0.0
C1452 C 0.45952 0.25805 0.63847 0.0
C1453 C 0.51098 0.22454 0.64605 0.0
C1454 C 0.52881 0.27001 0.64509 0.0
C1455 C 0.52163 0.33255 0.63973 0.0
C1456 C 0.49639 0.34909 0.63546 0.0
C1457 C 0.50354 0.28711 0.64118 0.0
C1458 C 0.45253 0.31973 0.63291 0.0
C1459 C 0.43421 0.27473 0.63444 0.0
H1460 H 0.63039 0.21351 0.63947 0.0
H1461 H 0.65234 0.10638 0.64614 0.0
H1462 H 0.72833 0.15834 0.6508 0.0
H1463 H 0.78952 0.23456 0.65229 0.0
H1464 H 0.76908 0.34142 0.64414 0.0
H1465 H 0.69166 0.28972 0.64085 0.0
C1466 C 0.65193 0.20179 0.64199 0.0
C1467 C 0.63613 0.15641 0.64244 0.0
C1468 C 0.69578 0.23187 0.64442 0.0
C1469 C 0.66417 0.14127 0.64564 0.0
C1470 C 0.70745 0.17094 0.64834 0.0
C1471 C 0.76787 0.24644 0.64994 0.0
C1472 C 0.78476 0.2917 0.64858 0.0
C1473 C 0.72376 0.21634 0.64768 0.0
C1474 C 0.75672 0.30672 0.6453 0.0
C1475 C 0.71249 0.27717 0.64339 0.0
H1476 H 0.56139 0.20964 0.14316 0.0
H1477 H 0.42962 0.10521 0.13724 0.0
H1478 H 0.40085 0.15378 0.14114 0.0
H1479 H 0.41356 0.22688 0.14499 0.0
H1480 H 0.54547 0.33308 0.15019 0.0
H1481 H 0.57367 0.28254 0.1481 0.0
C1482 C 0.52636 0.19745 0.14286 0.0
C1483 C 0.49769 0.15405 0.13981 0.0
C1484 C 0.5101 0.22581 0.14501 0.0
C1485 C 0.45238 0.13871 0.13938 0.0
C1486 C 0.43591 0.16638 0.14167 0.0
C1487 C 0.44845 0.23903 0.14581 0.0
C1488 C 0.47735 0.28385 0.14767 0.0
C1489 C 0.46453 0.21018 0.1443 0.0
C1490 C 0.52244 0.29878 0.14874 0.0
C1491 C 0.53864 0.26994 0.14748 0.0
H1492 H 0.78051 0.35568 0.13915 0.0
H1493 H 0.88561 0.32984 0.1452 0.0
H1494 H 0.8324 0.25461 0.15014 0.0
H1495 H 0.75561 0.19501 0.15193 0.0
H1496 H 0.65044 0.21888 0.14432 0.0
H1497 H 0.7036 0.296 0.14091 0.0
C1498 C 0.79153 0.33349 0.14162 0.0
C1499 C 0.8367 0.34796 0.1418 0.0
C1500 C 0.76068 0.29003 0.14419 0.0
C1501 C 0.85089 0.31904 0.14491 0.0
C1502 C 0.82051 0.2762 0.14777 0.0
C1503 C 0.74444 0.2174 0.1497 0.0
C1504 C 0.69928 0.20165 0.14851 0.0
C1505 C 0.77529 0.26117 0.14735 0.0
C1506 C 0.68511 0.23052 0.14536 0.0
C1507 C 0.71547 0.2745 0.14337 0.0
H1508 H 0.64549 0.46175 0.15196 0.0
H1509 H 0.66898 0.48021 0.12104 0.0
H1510 H 0.74493 0.49848 0.12347 0.0
H1511 H 0.80445 0.50931 0.13429 0.0
H1512 H 0.78193 0.48983 0.1652 0.0
H1513 H 0.70569 0.47195 0.16287 0.0
C1514 C 0.66707 0.46931 0.14574 0.0
C1515 C 0.65142 0.46959 0.13631 0.0
C1516 C 0.71085 0.47972 0.1472 0.0
C1517 C 0.68019 0.48027 0.12837 0.0
C1518 C 0.72361 0.49051 0.12975 0.0
C1519 C 0.7829 0.50071 0.14052 0.0
C1520 C 0.79889 0.50046 0.14989 0.0
C1521 C 0.73926 0.49036 0.13912 0.0
C1522 C 0.77054 0.49024 0.1579 0.0
C1523 C 0.72689 0.47991 0.15657 0.0
H1524 H 0.58271 0.1075 0.00971 0.0
H1525 H 0.68984 0.2368 0.0164 0.0
H1526 H 0.63778 0.26078 0.02095 0.0
H1527 H 0.56141 0.24378 0.02376 0.0
H1528 H 0.45485 0.11255 0.01868 0.0
H1529 H 0.5066 0.0902 0.0128 0.0
C1530 C 0.59449 0.14108 0.01202 0.0
C1531 C 0.6399 0.17059 0.01258 0.0
C1532 C 0.56439 0.15402 0.01502 0.0
C1533 C 0.65496 0.21368 0.01585 0.0
C1534 C 0.62523 0.22732 0.01848 0.0
C1535 C 0.54978 0.21042 0.02132 0.0
C1536 C 0.50463 0.17974 0.02165 0.0
C1537 C 0.57987 0.19763 0.01821 0.0
C1538 C 0.48961 0.13644 0.01857 0.0
C1539 C 0.51913 0.12379 0.01517 0.0
H1540 H 0.91326 0.48087 0.00984 0.0
H1541 H 0.77883 0.4491 0.01358 0.0
H1542 H 0.75649 0.37219 0.01643 0.0
H1543 H 0.7757 0.3146 0.01867 0.0
H1544 H 0.91032 0.34608 0.01553 0.0
H1545 H 0.93221 0.42228 0.01165 0.0
C1546 C 0.87903 0.45688 0.01115 0.0
C1547 C 0.84772 0.47056 0.01156 0.0
C1548 C 0.86659 0.41276 0.01298 0.0
C1549 C 0.80358 0.43944 0.01339 0.0
C1550 C 0.79077 0.39542 0.01498 0.0
C1551 C 0.80974 0.33807 0.01704 0.0
C1552 C 0.84135 0.32477 0.01742 0.0
C1553 C 0.82208 0.38184 0.01494 0.0
C1554 C 0.88548 0.35569 0.01543 0.0
C1555 C 0.89795 0.39918 0.01315 0.0
H1556 H 0.66066 0.51638 0.01094 0.0
H1557 H 0.69764 0.44919 0.03175 0.0
H1558 H 0.62631 0.38212 0.02974 0.0
H1559 H 0.55296 0.34351 0.02234 0.0
H1560 H 0.51698 0.40953 0.0009 0.0
H1561 H 0.58862 0.47606 0.00273 0.0
C1562 C 0.65273 0.48704 0.01506 0.0
C1563 C 0.6837 0.48759 0.02161 0.0
C1564 C 0.61216 0.44848 0.01368 0.0
C1565 C 0.67393 0.44927 0.02674 0.0
C1566 C 0.6333 0.41108 0.02558 0.0
C1567 C 0.56091 0.3724 0.01803 0.0
C1568 C 0.52965 0.37173 0.01154 0.0
C1569 C 0.60212 0.41038 0.0191 0.0
C1570 C 0.54057 0.40917 0.00591 0.0
C1571 C 0.58139 0.44731 0.00701 0.0
H1572 H 0.59732 0.79496 0.8553 0.0
H1573 H 0.47031 0.68723 0.84711 0.0
H1574 H 0.43815 0.73447 0.84896 0.0
H1575 H 0.44536 0.8052 0.85396 0.0
H1576 H 0.57238 0.91174 0.86247 0.0
H1577 H 0.60511 0.8659 0.85956 0.0
C1578 C 0.56268 0.78182 0.8538 0.0
C1579 C 0.53629 0.73753 0.8511 0.0
C1580 C 0.54426 0.80882 0.85508 0.0
C1581 C 0.49143 0.72118 0.84921 0.0
C1582 C 0.47296 0.74813 0.85031 0.0
C1583 C 0.48025 0.81846 0.85509 0.0
C1584 C 0.50625 0.86171 0.85854 0.0
C1585 C 0.49892 0.7918 0.85341 0.0
C1586 C 0.55141 0.87832 0.86003 0.0
C1587 C 0.57025 0.85223 0.85829 0.0
H1588 H 0.23468 0.81595 0.85582 0.0
H1589 H 0.34358 0.7946 0.85051 0.0
H1590 H 0.29418 0.71505 0.85188 0.0
H1591 H 0.22068 0.65205 0.85576 0.0
H1592 H 0.11321 0.67532 0.86129 0.0
H1593 H 0.16161 0.7538 0.85874 0.0
C1594 C 0.24774 0.794 0.85489 0.0
C1595 C 0.29285 0.81126 0.85313 0.0
C1596 C 0.21943 0.74865 0.85584 0.0
C1597 C 0.30898 0.78219 0.85186 0.0
C1598 C 0.28078 0.73673 0.85269 0.0
C1599 C 0.20785 0.6743 0.85631 0.0
C1600 C 0.1635 0.65789 0.85886 0.0
C1601 C 0.23605 0.71964 0.85486 0.0
C1602 C 0.14736 0.68715 0.85957 0.0
C1603 C 0.17496 0.73202 0.85804 0.0
H1604 H 0.3732 0.56053 0.84509 0.0
H1605 H 0.34841 0.53349 0.87578 0.0
H1606 H 0.27225 0.51496 0.87348 0.0
H1607 H 0.21284 0.50628 0.8628 0.0
H1608 H 0.23711 0.53406 0.83213 0.0
H1609 H 0.3135 0.55271 0.8344 0.0
C1610 C 0.35133 0.55109 0.8513 0.0
C1611 C 0.3667 0.5485 0.86061 0.0
C1612 C 0.30749 0.54059 0.84993 0.0
C1613 C 0.33747 0.5353 0.86853 0.0
C1614 C 0.29392 0.52492 0.86722 0.0
C1615 C 0.23477 0.5168 0.85661 0.0
C1616 C 0.21911 0.51904 0.84732 0.0
C1617 C 0.27859 0.52743 0.85796 0.0
C1618 C 0.24814 0.53203 0.83937 0.0
C1619 C 0.29189 0.54276 0.84066 0.0
H1620 H 0.37482 0.84031 0.96639 0.0
H1621 H 0.37094 0.80907 0.99686 0.0
H1622 H 0.42988 0.79216 0.99433 0.0
H1623 H 0.48226 0.78621 0.98339 0.0
H1624 H 0.48419 0.81629 0.95289 0.0
H1625 H 0.42612 0.83391 0.95553 0.0
C1626 C 0.3864 0.82939 0.97249 0.0
C1627 C 0.36804 0.82554 0.98179 0.0
C1628 C 0.42006 0.81969 0.97097 0.0
C1629 C 0.38435 0.81224 0.98962 0.0
C1630 C 0.41802 0.80251 0.98817 0.0
C1631 C 0.46968 0.79613 0.9773 0.0
C1632 C 0.48758 0.79977 0.96793 0.0
C1633 C 0.43602 0.80599 0.97887 0.0
C1634 C 0.47143 0.81365 0.96018 0.0
C1635 C 0.43803 0.82349 0.96167 0.0
H1636 H 0.23818 0.68978 0.97285 0.0
H1637 H 0.10872 0.66607 0.96564 0.0
H1638 H 0.07794 0.58784 0.96877 0.0
H1639 H 0.08792 0.52615 0.97289 0.0
H1640 H 0.21727 0.54772 0.97951 0.0
H1641 H 0.24792 0.62704 0.97748 0.0
C1642 C 0.20321 0.66745 0.97205 0.0
C1643 C 0.1758 0.68364 0.96893 0.0
C1644 C 0.18575 0.62227 0.97379 0.0
C1645 C 0.13059 0.65433 0.96785 0.0
C1646 C 0.11293 0.60965 0.96971 0.0
C1647 C 0.12282 0.54806 0.97398 0.0
C1648 C 0.15023 0.5309 0.97634 0.0
C1649 C 0.14024 0.59324 0.97257 0.0
C1650 C 0.19537 0.56001 0.97771 0.0
C1651 C 0.21294 0.60535 0.97651 0.0
H1652 H 0.47255 0.55346 0.97142 0.0
H1653 H 0.45162 0.6587 0.98088 0.0
H1654 H 0.37228 0.61083 0.97902 0.0
H1655 H 0.30917 0.54019 0.97376 0.0
H1656 H 0.3315 0.43639 0.96394 0.0
H1657 H 0.41004 0.48286 0.96676 0.0
C1658 C 0.45072 0.56592 0.9732 0.0
C1659 C 0.46812 0.60967 0.97628 0.0
C1660 C 0.40535 0.53862 0.9719 0.0
C1661 C 0.43917 0.62516 0.97849 0.0
C1662 C 0.39378 0.59786 0.97739 0.0
C1663 C 0.33122 0.52768 0.97232 0.0
C1664 C 0.31445 0.48499 0.96855 0.0
C1665 C 0.37655 0.55472 0.97395 0.0
C1666 C 0.34353 0.46936 0.96665 0.0
C1667 C 0.38846 0.49581 0.96834 0.0
H1668 H 0.18018 0.62884 0.49149 0.0
H1669 H 0.13235 0.63023 0.46263 0.0
H1670 H 0.13841 0.56683 0.45811 0.0
H1671 H 0.15942 0.51216 0.46204 0.0
H1672 H 0.20505 0.50794 0.49092 0.0
H1673 H 0.19767 0.57084 0.4957 0.0
C1674 C 0.171 0.61518 0.48423 0.0
C1675 C 0.15672 0.63507 0.47738 0.0
C1676 C 0.17418 0.57806 0.48165 0.0
C1677 C 0.14459 0.61658 0.46801 0.0
C1678 C 0.14768 0.57993 0.46541 0.0
C1679 C 0.16714 0.5245 0.46942 0.0
C1680 C 0.18312 0.50546 0.47605 0.0
C1681 C 0.16275 0.56061 0.47213 0.0
C1682 C 0.19345 0.52239 0.48558 0.0
C1683 C 0.18904 0.5583 0.48835 0.0
H1684 H 0.44094 0.68627 0.47252 0.0
H1685 H 0.55054 0.6689 0.47959 0.0
H1686 H 0.50032 0.59293 0.48458 0.0
H1687 H 0.42488 0.53027 0.48629 0.0
H1688 H 0.31542 0.54582 0.47778 0.0
H1689 H 0.36538 0.62329 0.47407 0.0
C1690 C 0.45357 0.66571 0.47519 0.0
C1691 C 0.49922 0.68288 0.47565 0.0
C1692 C 0.42442 0.62171 0.4778 0.0
C1693 C 0.51547 0.65607 0.47907 0.0
C1694 C 0.48677 0.61276 0.48196 0.0
C1695 C 0.41202 0.55084 0.48376 0.0
C1696 C 0.36648 0.53246 0.48242 0.0
C1697 C 0.44114 0.59504 0.48128 0.0
C1698 C 0.35032 0.55924 0.47891 0.0
C1699 C 0.37889 0.60354 0.47677 0.0
H1700 H 0.30392 0.77089 0.47309 0.0
H1701 H 0.33195 0.90209 0.46616 0.0
H1702 H 0.40955 0.93068 0.46957 0.0
H1703 H 0.46986 0.91829 0.47364 0.0
H1704 H 0.44387 0.78738 0.48021 0.0
H1705 H 0.36504 0.75895 0.47803 0.0
C1706 C 0.32702 0.80576 0.47244 0.0
C1707 C 0.31221 0.83423 0.46925 0.0
C1708 C 0.37193 0.82204 0.47435 0.0
C1709 C 0.34256 0.87934 0.46839 0.0
C1710 C 0.38694 0.89578 0.4704 0.0
C1711 C 0.44705 0.88354 0.47468 0.0
C1712 C 0.46291 0.85503 0.47703 0.0
C1713 C 0.40206 0.86738 0.47323 0.0
C1714 C 0.43266 0.81013 0.4784 0.0
C1715 C 0.38755 0.79381 0.4771 0.0
H1716 H 0.28517 0.47187 0.35867 0.0
H1717 H 0.31865 0.53296 0.33035 0.0
H1718 H 0.26334 0.55525 0.33218 0.0
H1719 H 0.20616 0.55827 0.34197 0.0
H1720 H 0.17251 0.49662 0.37018 0.0
H1721 H 0.2275 0.47385 0.3683 0.0
C1722 C 0.28065 0.49032 0.35291 0.0
C1723 C 0.30642 0.50114 0.34443 0.0
C1724 C 0.24885 0.50302 0.35402 0.0
C1725 C 0.29931 0.52419 0.33696 0.0
C1726 C 0.2678 0.5371 0.33802 0.0
C1727 C 0.21124 0.54026 0.34774 0.0
C1728 C 0.18566 0.52947 0.35625 0.0
C1729 C 0.24261 0.52697 0.34655 0.0
C1730 C 0.19177 0.50515 0.36357 0.0
C1731 C 0.22322 0.49224 0.36249 0.0
H1732 H 0.59093 0.79891 0.35528 0.0
H1733 H 0.46349 0.78447 0.34983 0.0
H1734 H 0.42987 0.70445 0.3507 0.0
H1735 H 0.43625 0.63845 0.35427 0.0
H1736 H 0.56409 0.655 0.36019 0.0
H1737 H 0.59785 0.73408 0.35789 0.0
C1738 C 0.55581 0.77839 0.35419 0.0
C1739 C 0.52984 0.79789 0.35255 0.0
C1740 C 0.53666 0.73257 0.35488 0.0
C1741 C 0.48438 0.7705 0.35111 0.0
C1742 C 0.46508 0.72466 0.35165 0.0
C1743 C 0.47151 0.65944 0.35494 0.0
C1744 C 0.49755 0.6409 0.35753 0.0
C1745 C 0.49079 0.7053 0.35371 0.0
C1746 C 0.54322 0.66849 0.3584 0.0
C1747 C 0.56259 0.71373 0.35704 0.0
H1748 H 0.38508 0.78923 0.34946 0.0
H1749 H 0.33573 0.86527 0.36376 0.0
H1750 H 0.26171 0.81353 0.3581 0.0
H1751 H 0.21098 0.74613 0.34931 0.0
H1752 H 0.26035 0.67047 0.33497 0.0
H1753 H 0.33519 0.72429 0.33997 0.0
C1754 C 0.35842 0.79506 0.35125 0.0
C1755 C 0.36622 0.83123 0.35709 0.0
C1756 C 0.3161 0.76559 0.34783 0.0
C1757 C 0.33078 0.83745 0.35944 0.0
C1758 C 0.28845 0.80807 0.35612 0.0
C1759 C 0.23811 0.74134 0.34733 0.0
C1760 C 0.2302 0.70412 0.34193 0.0
C1761 C 0.28074 0.77191 0.35037 0.0
C1762 C 0.26574 0.69903 0.33909 0.0
C1763 C 0.3084 0.72952 0.34203 0.0
H1764 H 0.27932 0.27849 0.15673 0.0
H1765 H 0.32853 0.41326 0.14853 0.0
H1766 H 0.25601 0.40519 0.15139 0.0
H1767 H 0.18241 0.36278 0.15864 0.0
H1768 H 0.13226 0.22686 0.16628 0.0
H1769 H 0.20073 0.23178 0.16094 0.0
C1770 C 0.27364 0.30565 0.15539 0.0
C1771 C 0.30894 0.34654 0.15256 0.0
C1772 C 0.23186 0.30055 0.15698 0.0
C1773 C 0.3016 0.38158 0.15071 0.0
C1774 C 0.26028 0.37697 0.15239 0.0
C1775 C 0.18597 0.33387 0.15887 0.0
C1776 C 0.15274 0.29492 0.16312 0.0
C1777 C 0.22562 0.33703 0.15585 0.0
C1778 C 0.15751 0.2575 0.1632 0.0
C1779 C 0.19688 0.26037 0.16022 0.0
H1780 H 0.6292 0.83973 0.16808 0.0
H1781 H 0.77085 0.91073 0.16806 0.0
H1782 H 0.77107 0.96983 0.1586 0.0
H1783 H 0.73083 0.0046 0.15198 0.0
H1784 H 0.58883 0.93205 0.15187 0.0
H1785 H 0.58919 0.87085 0.15989 0.0
C1786 C 0.66015 0.86777 0.16585 0.0
C1787 C 0.6999 0.87091 0.1688 0.0
C1788 C 0.66002 0.90188 0.16058 0.0
C1789 C 0.73975 0.90731 0.16581 0.0
C1790 C 0.73988 0.94136 0.1605 0.0
C1791 C 0.69987 0.97531 0.15355 0.0
C1792 C 0.65987 0.97392 0.15145 0.0
C1793 C 0.70017 0.93956 0.15809 0.0
C1794 C 0.62024 0.93519 0.1536 0.0
C1795 C 0.62032 0.89972 0.15813 0.0
H1796 H 0.15428 0.78669 0.17511 0.0
H1797 H 0.11968 0.87681 0.16201 0.0
H1798 H 0.06313 0.81682 0.15225 0.0
H1799 H 0.02002 0.73763 0.14841 0.0
H1800 H 0.05295 0.64804 0.16252 0.0
H1801 H 0.11376 0.70907 0.17082 0.0
C1802 C 0.13481 0.79349 0.17003 0.0
C1803 C 0.14122 0.83625 0.16932 0.0
C1804 C 0.10172 0.75875 0.16467 0.0
C1805 C 0.11569 0.84431 0.16267 0.0
C1806 C 0.08308 0.8099 0.15715 0.0
C1807 C 0.04033 0.73132 0.15331 0.0
C1808 C 0.03141 0.68786 0.1548 0.0
C1809 C 0.07511 0.76675 0.15826 0.0
C1810 C 0.05892 0.68082 0.16108 0.0
C1811 C 0.09373 0.71581 0.16591 0.0
H1812 H 0.27993 0.25213 0.3469 0.0
H1813 H 0.40886 0.33749 0.33498 0.0
H1814 H 0.41127 0.27409 0.32861 0.0
H1815 H 0.375 0.19517 0.32535 0.0
H1816 H 0.24473 0.10931 0.33653 0.0
H1817 H 0.24489 0.172 0.34433 0.0
C1818 C 0.30852 0.25696 0.34289 0.0
C1819 C 0.34408 0.2999 0.34141 0.0
C1820 C 0.30954 0.22015 0.33913 0.0
C1821 C 0.38116 0.30511 0.33634 0.0
C1822 C 0.3825 0.26876 0.33263 0.0
C1823 C 0.34681 0.1899 0.32961 0.0
C1824 C 0.30987 0.1474 0.33032 0.0
C1825 C 0.34669 0.22622 0.33387 0.0
C1826 C 0.27375 0.14147 0.33589 0.0
C1827 C 0.27366 0.17745 0.34029 0.0
H1828 H 0.73959 0.99395 0.33971 0.0
H1829 H 0.68637 0.07772 0.3464 0.0
H1830 H 0.75472 0.14214 0.34104 0.0
H1831 H 0.82549 0.17263 0.33241 0.0
H1832 H 0.87889 0.0885 0.32588 0.0
H1833 H 0.81506 0.02636 0.33333 0.0
C1834 C 0.74347 0.02651 0.34014 0.0
C1835 C 0.70807 0.03123 0.34334 0.0
C1836 C 0.78273 0.06317 0.33701 0.0
C1837 C 0.71333 0.07345 0.344 0.0
C1838 C 0.75225 0.11015 0.34087 0.0
C1839 C 0.82358 0.1409 0.33281 0.0
C1840 C 0.85664 0.13511 0.32848 0.0
C1841 C 0.7866 0.10518 0.33706 0.0
C1842 C 0.85395 0.09392 0.32914 0.0
C1843 C 0.81726 0.05823 0.33334 0.0
H1844 H 0.83857 0.63707 0.33271 0.0
H1845 H 0.90811 0.77871 0.33141 0.0
H1846 H 0.97547 0.78092 0.33669 0.0
H1847 H 0.01639 0.74209 0.33981 0.0
H1848 H 0.94664 0.6004 0.34053 0.0
H1849 H 0.87763 0.59879 0.33745 0.0
C1850 C 0.8682 0.66849 0.3338 0.0
C1851 C 0.86836 0.70756 0.33154 0.0
C1852 C 0.90701 0.66949 0.33662 0.0
C1853 C 0.90697 0.74804 0.33308 0.0
C1854 C 0.94568 0.74935 0.33601 0.0
C1855 C 0.98605 0.71091 0.33932 0.0
C1856 C 0.9868 0.67143 0.3403 0.0
C1857 C 0.94641 0.7102 0.33746 0.0
C1858 C 0.94705 0.63128 0.33986 0.0
C1859 C 0.90754 0.6303 0.33805 0.0
H1860 H 0.82987 0.65363 0.83452 0.0
H1861 H 0.88424 0.79129 0.82807 0.0
H1862 H 0.81643 0.78775 0.8335 0.0
H1863 H 0.73832 0.74316 0.83823 0.0
H1864 H 0.68482 0.60643 0.84522 0.0
H1865 H 0.75557 0.61181 0.84153 0.0
C1866 C 0.82722 0.68307 0.83451 0.0
C1867 C 0.86187 0.72251 0.83076 0.0
C1868 C 0.78803 0.68076 0.83764 0.0
C1869 C 0.85811 0.76049 0.83089 0.0
C1870 C 0.81914 0.75841 0.83393 0.0
C1871 C 0.74257 0.71483 0.83906 0.0
C1872 C 0.70654 0.67435 0.84187 0.0
C1873 C 0.7834 0.71838 0.837 0.0
C1874 C 0.71224 0.63787 0.84308 0.0
C1875 C 0.75257 0.64094 0.84092 0.0
H1876 H 0.39185 0.18867 0.82509 0.0
H1877 H 0.25061 0.12291 0.82742 0.0
H1878 H 0.24979 0.05986 0.83505 0.0
H1879 H 0.28863 0.01991 0.83924 0.0
H1880 H 0.42965 0.0859 0.8372 0.0
H1881 H 0.43137 0.15254 0.83134 0.0
C1882 C 0.361 0.16096 0.82749 0.0
C1883 C 0.32137 0.16029 0.82559 0.0
C1884 C 0.36073 0.12464 0.8318 0.0
C1885 C 0.28163 0.12434 0.8288 0.0
C1886 C 0.28107 0.08804 0.83308 0.0
C1887 C 0.31964 0.04914 0.83759 0.0
C1888 C 0.3589 0.0481 0.83851 0.0
C1889 C 0.32028 0.08725 0.8343 0.0
C1890 C 0.39909 0.08616 0.83654 0.0
C1891 C 0.40003 0.1241 0.83316 0.0
H1892 H 0.85271 0.21073 0.82593 0.0
H1893 H 0.90752 0.13057 0.83493 0.0
H1894 H 0.96781 0.19405 0.8431 0.0
H1895 H 0.00807 0.27376 0.84638 0.0
H1896 H 0.9547 0.35361 0.83609 0.0
H1897 H 0.89069 0.28869 0.82978 0.0
C1898 C 0.87745 0.20685 0.8298 0.0
C1899 C 0.87567 0.16599 0.82978 0.0
C1900 C 0.91261 0.24364 0.83416 0.0
C1901 C 0.90792 0.16159 0.83488 0.0
C1902 C 0.94265 0.198 0.83946 0.0
C1903 C 0.9826 0.2771 0.84273 0.0
C1904 C 0.98663 0.31891 0.84171 0.0
C1905 C 0.94597 0.23949 0.83891 0.0
C1906 C 0.95261 0.32213 0.83711 0.0
C1907 C 0.91592 0.28492 0.83343 0.0
H1908 H 0.70222 0.73261 0.6498 0.0
H1909 H 0.5803 0.64046 0.66372 0.0
H1910 H 0.57623 0.70083 0.67134 0.0
H1911 H 0.61013 0.77878 0.6752 0.0
H1912 H 0.73434 0.87132 0.66221 0.0
H1913 H 0.73432 0.81181 0.65297 0.0
C1914 C 0.67484 0.72567 0.65452 0.0
C1915 C 0.64179 0.68184 0.65622 0.0
C1916 C 0.67301 0.76064 0.65902 0.0
C1917 C 0.60604 0.6737 0.6622 0.0
C1918 C 0.60376 0.70826 0.66661 0.0
C1919 C 0.63694 0.78619 0.67024 0.0
C1920 C 0.67233 0.82946 0.66946 0.0
C1921 C 0.6374 0.75174 0.6652 0.0
C1922 C 0.70663 0.83835 0.66295 0.0
C1923 C 0.70683 0.80425 0.65772 0.0
H1924 H 0.17115 0.82108 0.6628 0.0
H1925 H 0.1155 0.90297 0.66959 0.0
H1926 H 0.18015 0.96673 0.66279 0.0
H1927 H 0.25678 1.00084 0.657 0.0
H1928 H 0.31251 0.91899 0.65044 0.0
H1929 H 0.24353 0.85358 0.65493 0.0
C1930 C 0.17272 0.85268 0.66257 0.0
C1931 C 0.1387 0.85729 0.66675 0.0
C1932 C 0.21032 0.88935 0.65879 0.0
C1933 C 0.14104 0.89838 0.66636 0.0
C1934 C 0.17827 0.93501 0.66257 0.0
C1935 C 0.25347 0.96856 0.65644 0.0
C1936 C 0.2898 0.96477 0.6535 0.0
C1937 C 0.21377 0.93115 0.6591 0.0
C1938 C 0.28503 0.92278 0.65264 0.0
C1939 C 0.24566 0.88539 0.65527 0.0
H1940 H 0.15074 0.35485 0.6632 0.0
H1941 H 0.07677 0.21333 0.66235 0.0
H1942 H 0.0161 0.21587 0.65421 0.0
H1943 H 0.98124 0.2585 0.64907 0.0
H1944 H 0.0566 0.40033 0.64992 0.0
H1945 H 0.11906 0.39727 0.65649 0.0
C1946 C 0.12171 0.32455 0.66104 0.0
C1947 C 0.11827 0.28401 0.66337 0.0
C1948 C 0.08672 0.32628 0.65657 0.0
C1949 C 0.0805 0.245 0.66052 0.0
C1950 C 0.04556 0.24646 0.65599 0.0
C1951 C 0.01142 0.28882 0.65053 0.0
C1952 C 0.0134 0.32959 0.64915 0.0
C1953 C 0.04781 0.28695 0.65423 0.0
C1954 C 0.05317 0.36839 0.65115 0.0
C1955 C 0.0893 0.36675 0.65483 0.0
H1956 H 0.86988 0.71702 0.50062 0.0
H1957 H 0.7849 0.58158 0.49249 0.0
H1958 H 0.8442 0.58329 0.48281 0.0
H1959 H 0.92272 0.62053 0.47851 0.0
H1960 H 0.00825 0.75388 0.48821 0.0
H1961 H 0.9461 0.75561 0.49533 0.0
C1962 C 0.86394 0.68804 0.49657 0.0
C1963 C 0.82317 0.64909 0.49738 0.0
C1964 C 0.89862 0.68867 0.49142 0.0
C1965 C 0.81593 0.61204 0.492 0.0
C1966 C 0.85004 0.61286 0.48656 0.0
C1967 C 0.92799 0.65001 0.48218 0.0
C1968 C 0.97072 0.68681 0.48287 0.0
C1969 C 0.89204 0.6505 0.48655 0.0
C1970 C 0.97617 0.72501 0.48747 0.0
C1971 C 0.9405 0.72605 0.49162 0.0
H1972 H 0.3767 0.30851 0.48069 0.0
H1973 H 0.25747 0.27847 0.49604 0.0
H1974 H 0.25858 0.21823 0.50429 0.0
H1975 H 0.29549 0.17736 0.50818 0.0
H1976 H 0.41768 0.20959 0.4941 0.0
H1977 H 0.41299 0.2654 0.48429 0.0
C1978 C 0.35098 0.28906 0.48585 0.0
C1979 C 0.31708 0.2987 0.48767 0.0
C1980 C 0.35226 0.25465 0.49082 0.0
C1981 C 0.28377 0.27212 0.49431 0.0
C1982 C 0.28445 0.23755 0.49912 0.0
C1983 C 0.32099 0.19616 0.50289 0.0
C1984 C 0.35699 0.18933 0.50191 0.0
C1985 C 0.31879 0.22895 0.49754 0.0
C1986 C 0.38951 0.21399 0.49498 0.0
C1987 C 0.38699 0.24616 0.48943 0.0
H1988 H 0.73641 0.02125 0.48484 0.0
H1989 H 0.63628 0.05535 0.48985 0.0
H1990 H 0.69236 0.13105 0.49362 0.0
H1991 H 0.76858 0.18359 0.49822 0.0
H1992 H 0.86822 0.14745 0.49473 0.0
H1993 H 0.81435 0.07735 0.4875 0.0
C1994 C 0.72712 0.04564 0.48653 0.0
C1995 C 0.68234 0.03278 0.48711 0.0
C1996 C 0.75958 0.08875 0.48909 0.0
C1997 C 0.67058 0.0645 0.48943 0.0
C1998 C 0.70261 0.10771 0.49162 0.0
C1999 C 0.77882 0.16106 0.49556 0.0
C2000 C 0.82243 0.17081 0.497 0.0
C2001 C 0.74712 0.11978 0.49186 0.0
C2002 C 0.83491 0.1408 0.49366 0.0
C2003 C 0.80398 0.10046 0.48962 0.0
H2004 H 0.02774 0.51977 0.66424 0.0
H2005 H 0.88617 0.45387 0.6639 0.0
H2006 H 0.88808 0.51608 0.67225 0.0
H2007 H 0.9305 0.59386 0.67726 0.0
H2008 H 0.07165 0.65937 0.67795 0.0
H2009 H 0.06967 0.59257 0.67203 0.0
C2010 C 0.99731 0.51851 0.66627 0.0
C2011 C 0.95693 0.48249 0.66335 0.0
C2012 C 0.99867 0.55457 0.67104 0.0
C2013 C 0.9177 0.48111 0.66607 0.0
C2014 C 0.91877 0.51691 0.67077 0.0
C2015 C 0.96065 0.5929 0.67633 0.0
C2016 C 1.00116 0.63128 0.67794 0.0
C2017 C 0.9591 0.55448 0.67292 0.0
C2018 C 0.04017 0.63002 0.67679 0.0
C2019 C 0.03899 0.59199 0.67334 0.0
H2020 H 0.43518 0.47743 0.65162 0.0
H2021 H 0.5249 0.45081 0.66764 0.0
H2022 H 0.46326 0.39288 0.67674 0.0
H2023 H 0.38357 0.34677 0.67931 0.0
H2024 H 0.29442 0.37128 0.66243 0.0
H2025 H 0.35634 0.43339 0.65458 0.0
C2026 C 0.44148 0.4594 0.65718 0.0
C2027 C 0.48468 0.46844 0.65892 0.0
C2028 C 0.40589 0.4255 0.66219 0.0
C2029 C 0.49203 0.44464 0.66617 0.0
C2030 C 0.45674 0.41132 0.67133 0.0
C2031 C 0.37755 0.36546 0.67389 0.0
C2032 C 0.33407 0.3539 0.67146 0.0
C2033 C 0.41345 0.40084 0.66924 0.0
C2034 C 0.32726 0.37938 0.66455 0.0
C2035 C 0.36274 0.41488 0.65999 0.0
H2036 H 0.47794 0.95912 0.66472 0.0
H2037 H 0.55031 0.10063 0.66665 0.0
H2038 H 0.61041 0.09777 0.67485 0.0
H2039 H 0.64496 0.05563 0.68001 0.0
H2040 H 0.57219 0.91387 0.67825 0.0
H2041 H 0.51013 0.91658 0.67124 0.0
C2042 C 0.50653 0.98933 0.66709 0.0
C2043 C 0.50961 0.03 0.66504 0.0
C2044 C 0.54131 0.98751 0.67164 0.0
C2045 C 0.54685 0.06883 0.66819 0.0
C2046 C 0.58147 0.06725 0.67279 0.0
C2047 C 0.61547 0.02513 0.67827 0.0
C2048 C 0.61398 0.9846 0.67961 0.0
C2049 C 0.57948 0.02681 0.67434 0.0
C2050 C 0.57514 0.94568 0.67715 0.0
C2051 C 0.53927 0.94712 0.6732 0.0
H2052 H 0.40569 0.04432 0.18215 0.0
H2053 H 0.31231 0.92794 0.16658 0.0
H2054 H 0.37198 0.92745 0.15775 0.0
H2055 H 0.44961 0.96314 0.15341 0.0
H2056 H 0.54314 0.08243 0.168 0.0
H2057 H 0.48438 0.07851 0.17828 0.0
C2058 C 0.3982 0.0189 0.17681 0.0
C2059 C 0.35414 0.98641 0.17503 0.0
C2060 C 0.43277 0.01931 0.17156 0.0
C2061 C 0.34559 0.95321 0.16821 0.0
C2062 C 0.3798 0.95302 0.16309 0.0
C2063 C 0.45743 0.98805 0.15892 0.0
C2064 C 0.50081 0.02314 0.1599 0.0
C2065 C 0.42337 0.9863 0.16458 0.0
C2066 C 0.51012 0.055 0.1671 0.0
C2067 C 0.47645 0.05293 0.17293 0.0
H2068 H 0.04033 0.50703 0.16147 0.0
H2069 H 0.89959 0.43847 0.16504 0.0
H2070 H 0.90253 0.37883 0.17351 0.0
H2071 H 0.94432 0.34216 0.17799 0.0
H2072 H 0.08469 0.41023 0.17382 0.0
H2073 H 0.08281 0.47423 0.16761 0.0
C2074 C 0.01041 0.4795 0.16431 0.0
C2075 C 0.96982 0.47701 0.16258 0.0
C2076 C 0.01227 0.44496 0.16895 0.0
C2077 C 0.93131 0.44132 0.16633 0.0
C2078 C 0.93292 0.40696 0.17108 0.0
C2079 C 0.97447 0.37119 0.17579 0.0
C2080 C 0.01449 0.37123 0.17627 0.0
C2081 C 0.97306 0.40774 0.17211 0.0
C2082 C 0.05349 0.40933 0.17358 0.0
C2083 C 0.05241 0.44589 0.16996 0.0
H2084 H 0.52675 0.55928 0.15384 0.0
H2085 H 0.55626 0.47011 0.16922 0.0
H2086 H 0.60997 0.53092 0.17925 0.0
H2087 H 0.65066 0.60998 0.18311 0.0
H2088 H 0.62295 0.69873 0.16695 0.0
H2089 H 0.56606 0.63729 0.15785 0.0
C2090 C 0.54458 0.55291 0.15944 0.0
C2091 C 0.53747 0.51014 0.16076 0.0
C2092 C 0.57588 0.58804 0.16502 0.0
C2093 C 0.56099 0.50267 0.16806 0.0
C2094 C 0.59185 0.53748 0.17376 0.0
C2095 C 0.63245 0.61603 0.17756 0.0
C2096 C 0.6414 0.65925 0.17575 0.0
C2097 C 0.60004 0.58044 0.1722 0.0
C2098 C 0.61666 0.66603 0.16863 0.0
C2099 C 0.58418 0.63085 0.16336 0.0
H2100 H 0.39118 0.06717 0.98288 0.0
H2101 H 0.26487 0.97805 0.99552 0.0
H2102 H 0.26347 0.0393 0.00342 0.0
H2103 H 0.30025 0.11695 0.00778 0.0
H2104 H 0.42828 0.20635 0.99597 0.0
H2105 H 0.42664 0.14626 0.98663 0.0
C2106 C 0.36341 0.06108 0.98738 0.0
C2107 C 0.32829 0.01781 0.98863 0.0
C2108 C 0.36305 0.09655 0.99204 0.0
C2109 C 0.29217 0.01084 0.99434 0.0
C2110 C 0.29143 0.0459 -0.00109 0.0
C2111 C 0.3276 0.12355 0.00306 0.0
C2112 C 0.3644 0.16611 0.00262 0.0
C2113 C 0.32693 0.08874 -0.00207 0.0
C2114 C 0.39943 0.17398 0.99642 0.0
C2115 C 0.39868 0.13953 0.99115 0.0
H2116 H 0.82165 0.23999 -0.00113 0.0
H2117 H 0.84659 0.13513 0.99176 0.0
H2118 H 0.91594 0.18749 0.98398 0.0
H2119 H 0.97558 0.26424 0.98225 0.0
H2120 H 0.95447 0.3691 0.99161 0.0
H2121 H 0.87783 0.31618 0.99549 0.0
C2122 C 0.84153 0.2285 0.99531 0.0
C2123 C 0.82913 0.18388 0.99583 0.0
C2124 C 0.88274 0.25917 0.9915 0.0
C2125 C 0.85548 0.16938 0.99134 0.0
C2126 C 0.89536 0.19938 0.98702 0.0
C2127 C 0.95371 0.27535 0.98488 0.0
C2128 C 0.97038 0.32025 0.9867 0.0
C2129 C 0.91034 0.24456 0.98751 0.0
C2130 C 0.94217 0.33453 0.99025 0.0
C2131 C 0.89847 0.30433 0.99247 0.0
H2132 H 0.84719 0.70342 0.99558 0.0
H2133 H 0.76815 0.56342 -0.00021 0.0
H2134 H 0.70411 0.56441 0.99325 0.0
H2135 H 0.66839 0.60705 0.98861 0.0
H2136 H 0.74752 0.74644 0.98399 0.0
H2137 H 0.81386 0.74393 0.98831 0.0
C2138 C 0.81626 0.67296 0.99476 0.0
C2139 C 0.81237 0.63351 -0.00179 0.0
C2140 C 0.77945 0.67385 0.99107 0.0
C2141 C 0.77217 0.59419 0.99711 0.0
C2142 C 0.73533 0.59481 0.99348 0.0
C2143 C 0.70037 0.63659 0.9884 0.0
C2144 C 0.70332 0.67694 0.98612 0.0
C2145 C 0.73823 0.63471 0.99081 0.0
C2146 C 0.74473 0.7151 0.98572 0.0
C2147 C 0.78251 0.71365 0.98823 0.0
H2148 H 0.61311 0.94712 0.81765 0.0
H2149 H 0.69754 0.07811 0.82875 0.0
H2150 H 0.63404 0.08027 0.83499 0.0
H2151 H 0.55555 0.0438 0.83829 0.0
H2152 H 0.47062 0.91101 0.82836 0.0
H2153 H 0.53333 0.91094 0.82062 0.0
C2154 C 0.61778 0.97609 0.82147 0.0
C2155 C 0.66046 0.01238 0.8227 0.0
C2156 C 0.58095 0.97688 0.82524 0.0
C2157 C 0.66539 0.04985 0.82755 0.0
C2158 C 0.62898 0.05108 0.83119 0.0
C2159 C 0.55047 0.01493 0.83433 0.0
C2160 C 0.50835 0.97745 0.83393 0.0
C2161 C 0.58674 0.01466 0.83017 0.0
C2162 C 0.5026 0.94041 0.82876 0.0
C2163 C 0.53854 0.94025 0.82439 0.0
H2164 H 0.97961 0.61247 0.81899 0.0
H2165 H 0.1044 0.71659 0.82914 0.0
H2166 H 0.12628 0.66317 0.83384 0.0
H2167 H 0.10548 0.58661 0.83721 0.0
H2168 H 0.97739 0.48235 0.82877 0.0
H2169 H 0.96166 0.53547 0.82093 0.0
C2170 C 0.01199 0.62333 0.82197 0.0
C2171 C 0.0403 0.66824 0.82377 0.0
C2172 C 0.02369 0.59223 0.82495 0.0
C2173 C 0.08198 0.68206 0.82778 0.0
C2174 C 0.09449 0.65155 0.83045 0.0
C2175 C 0.07479 0.57547 0.83335 0.0
C2176 C 0.04275 0.53071 0.83347 0.0
C2177 C 0.06504 0.60646 0.82937 0.0
C2178 C 0.00264 0.5167 0.82867 0.0
C2179 C 0.99349 0.5471 0.82428 0.0
H2180 H 0.51032 0.48064 0.83373 0.0
H2181 H 0.43886 0.55077 0.83244 0.0
H2182 H 0.37919 0.48945 0.82366 0.0
H2183 H 0.34505 0.41376 0.81757 0.0
H2184 H 0.41815 0.34491 0.81857 0.0
H2185 H 0.47885 0.40761 0.8264 0.0
C2186 C 0.48195 0.48278 0.83141 0.0
C2187 C 0.47901 0.52014 0.83376 0.0
C2188 C 0.44762 0.44728 0.82647 0.0
C2189 C 0.44213 0.52251 0.83067 0.0
C2190 C 0.4078 0.48727 0.82572 0.0
C2191 C 0.37432 0.41239 0.81935 0.0
C2192 C 0.3761 0.37378 0.81755 0.0
C2193 C 0.40981 0.4491 0.82376 0.0
C2194 C 0.41473 0.37325 0.82003 0.0
C2195 C 0.44994 0.40945 0.82446 0.0
H2196 H 0.699 0.86621 0.99415 0.0
H2197 H 0.55745 0.79966 0.99484 0.0
H2198 H 0.56035 0.86327 0.00284 0.0
H2199 H 0.60341 0.94034 0.00829 0.0
H2200 H 0.74516 0.00539 0.00775 0.0
H2201 H 0.74168 0.94017 0.00089 0.0
C2202 C 0.66875 0.86533 0.99618 0.0
C2203 C 0.62813 0.82832 0.99387 0.0
C2204 C 0.67067 0.90215 0.00064 0.0
C2205 C 0.58921 0.82761 0.9966 0.0
C2206 C 0.59086 0.86417 0.00109 0.0
C2207 C 0.63358 0.94019 0.00681 0.0
C2208 C 0.67448 0.97848 0.00839 0.0
C2209 C 0.63145 0.90205 0.00295 0.0
C2210 C 0.71314 0.97727 0.00636 0.0
C2211 C 0.71125 0.93966 0.00252 0.0
H2212 H 0.07011 0.67298 0.01081 0.0
H2213 H 0.99447 0.73785 0.00643 0.0
H2214 H 0.0567 0.7985 -0.00155 0.0
H2215 H 0.13111 0.83153 0.9918 0.0
H2216 H 0.20785 0.76836 0.99643 0.0
H2217 H 0.14713 0.70956 0.00553 0.0
C2218 C 0.06712 0.70048 0.00826 0.0
C2219 C 0.02677 0.69982 0.00913 0.0
C2220 C 0.10351 0.73598 0.00376 0.0
C2221 C 0.02422 0.73624 0.00569 0.0
C2222 C 0.06012 0.77143 0.00117 0.0
C2223 C 0.13482 0.80525 0.99493 0.0
C2224 C 0.17386 0.80425 0.99341 0.0
C2225 C 0.09965 0.77133 4e-05 0.0
C2226 C 0.17826 0.77011 0.99756 0.0
C2227 C 0.14337 0.73623 0.00268 0.0
H2228 H 0.18413 0.29901 0.98846 0.0
H2229 H 0.22039 0.4239 0.00174 0.0
H2230 H 0.27641 0.41934 0.01143 0.0
H2231 H 0.31744 0.3817 0.01541 0.0
H2232 H 0.28376 0.2593 0.00111 0.0
H2233 H 0.22388 0.26091 0.99267 0.0
C2234 C 0.20388 0.3251 0.99355 0.0
C2235 C 0.19802 0.36178 0.99436 0.0
C2236 C 0.23665 0.32279 -0.0011 0.0
C2237 C 0.22413 0.39527 0.00098 0.0
C2238 C 0.2563 0.39275 0.00649 0.0
C2239 C 0.29735 0.35543 0.01042 0.0
C2240 C 0.30573 0.32053 0.00892 0.0
C2241 C 0.26337 0.35701 0.00537 0.0
C2242 C 0.27827 0.28642 0.00254 0.0
C2243 C 0.24401 0.28741 0.99763 0.0
H2244 H 0.01682 0.27914 0.50935 0.0
H2245 H 0.04861 0.41442 0.50805 0.0
H2246 H 0.12097 0.4358 0.50145 0.0
H2247 H 0.17387 0.41557 0.4951 0.0
H2248 H 0.14082 0.27992 0.49548 0.0
H2249 H 0.0712 0.25932 0.5036 0.0
C2250 C 0.03954 0.31319 0.50758 0.0
C2251 C 0.02719 0.34504 0.50918 0.0
C2252 C 0.08133 0.32535 0.50377 0.0
C2253 C 0.05734 0.38924 0.50697 0.0
C2254 C 0.09881 0.40156 0.50319 0.0
C2255 C 0.15201 0.38177 0.49725 0.0
C2256 C 0.16268 0.34938 0.49486 0.0
C2257 C 0.11116 0.36991 0.50153 0.0
C2258 C 0.13346 0.30546 0.4974 0.0
C2259 C 0.09344 0.2936 0.50192 0.0
H2260 H 0.69539 0.8416 0.4996 0.0
H2261 H 0.55432 0.76017 0.49862 0.0
H2262 H 0.55926 0.7004 0.50649 0.0
H2263 H 0.60429 0.66915 0.51219 0.0
H2264 H 0.74545 0.75147 0.5132 0.0
H2265 H 0.73973 0.81262 0.50664 0.0
C2266 C 0.66563 0.81105 0.50127 0.0
C2267 C 0.62459 0.80541 0.49852 0.0
C2268 C 0.66877 0.77661 0.50563 0.0
C2269 C 0.58634 0.76562 0.50075 0.0
C2270 C 0.58919 0.73122 0.50516 0.0
C2271 C 0.63383 0.70055 0.51113 0.0
C2272 C 0.67533 0.7051 0.51307 0.0
C2273 C 0.63033 0.736 0.50742 0.0
C2274 C 0.71312 0.7463 0.51156 0.0
C2275 C 0.70989 0.78158 0.50788 0.0
H2276 H 0.17407 0.8857 0.48605 0.0
H2277 H 0.20096 0.79036 0.49932 0.0
H2278 H 0.25597 0.84768 0.50987 0.0
H2279 H 0.29995 0.92576 0.51437 0.0
H2280 H 0.27587 0.02085 0.49985 0.0
H2281 H 0.21593 0.96244 0.49084 0.0
C2282 C 0.19149 0.87714 0.49132 0.0
C2283 C 0.18346 0.83376 0.49186 0.0
C2284 C 0.22389 0.91035 0.4971 0.0
C2285 C 0.2064 0.82345 0.49876 0.0
C2286 C 0.23807 0.8563 0.50475 0.0
C2287 C 0.2819 0.93398 0.50922 0.0
C2288 C 0.29311 0.97821 0.50784 0.0
C2289 C 0.24782 0.90009 0.50381 0.0
C2290 C 0.26826 0.98751 0.50123 0.0
C2291 C 0.2339 0.95399 0.49598 0.0
H2292 H 0.07353 0.3936 0.32237 0.0
H2293 H 0.93394 0.33636 0.31866 0.0
H2294 H 0.93935 0.40706 0.32244 0.0
H2295 H 0.98309 0.48291 0.32845 0.0
H2296 H 0.12333 0.54057 0.33176 0.0
H2297 H 0.11872 0.47241 0.32628 0.0
C2298 C 0.04454 0.397 0.32231 0.0
C2299 C 0.00338 0.36013 0.32038 0.0
C2300 C 0.04809 0.43774 0.32438 0.0
C2301 C 0.96589 0.36456 0.32014 0.0
C2302 C 0.969 0.40484 0.32232 0.0
C2303 C 0.01273 0.48083 0.32775 0.0
C2304 C 0.05336 0.51658 0.33056 0.0
C2305 C 0.00982 0.44139 0.32466 0.0
C2306 C 0.09162 0.51362 0.32958 0.0
C2307 C 0.08899 0.47446 0.32655 0.0
H2308 H 0.53926 0.49012 0.33558 0.0
H2309 H 0.46299 0.55445 0.33193 0.0
H2310 H 0.52612 0.61772 0.32456 0.0
H2311 H 0.6055 0.65815 0.32092 0.0
H2312 H 0.68142 0.5937 0.32463 0.0
H2313 H 0.61599 0.527 0.33015 0.0
C2314 C 0.5362 0.5176 0.33297 0.0
C2315 C 0.49668 0.51775 0.33438 0.0
C2316 C 0.57277 0.55409 0.32887 0.0
C2317 C 0.49301 0.5534 0.33091 0.0
C2318 C 0.52925 0.58983 0.32678 0.0
C2319 C 0.60744 0.62929 0.32288 0.0
C2320 C 0.64814 0.63085 0.32248 0.0
C2321 C 0.56967 0.5911 0.32603 0.0
C2322 C 0.65038 0.59316 0.32485 0.0
C2323 C 0.61304 0.55512 0.32805 0.0
H2324 H 0.40351 0.03252 0.32076 0.0
H2325 H 0.30341 0.90016 0.32783 0.0
H2326 H 0.35894 0.88435 0.33402 0.0
H2327 H 0.43578 0.90856 0.33797 0.0
H2328 H 0.53592 0.04199 0.3319 0.0
H2329 H 0.48101 0.05665 0.32462 0.0
C2330 C 0.39389 1.00037 0.32371 0.0
C2331 C 0.34926 0.96759 0.32377 0.0
C2332 C 0.42618 0.99143 0.32732 0.0
C2333 C 0.33749 0.92588 0.32755 0.0
C2334 C 0.36927 0.91676 0.33111 0.0
C2335 C 0.44574 0.94054 0.33486 0.0
C2336 C 0.48997 0.97398 0.33537 0.0
C2337 C 0.41373 0.94921 0.33102 0.0
C2338 C 0.50212 0.01558 0.33151 0.0
C2339 C 0.47067 0.02409 0.32743 0.0
H2340 H 0.06958 0.27365 0.26595 0.0
H2341 H 0.9435 0.26443 0.26177 0.0
H2342 H 0.9588 0.27904 0.24444 0.0
H2343 H 0.00436 0.28585 0.23014 0.0
H2344 H 0.12635 0.28691 0.23422 0.0
H2345 H 0.11617 0.28346 0.25189 0.0
C2346 C 0.04536 0.27478 0.26126 0.0
C2347 C 0.00526 0.26745 0.26519 0.0
C2348 C 0.05353 0.28133 0.25125 0.0
C2349 C 0.97483 0.27029 0.25902 0.0
C2350 C 0.98334 0.2782 0.24906 0.0
C2351 C 0.02893 0.28611 0.23495 0.0
C2352 C 0.06606 0.28677 0.231 0.0
C2353 C 0.02205 0.2826 0.24506 0.0
C2354 C 0.09759 0.28648 0.2372 0.0
C2355 C 0.0917 0.28441 0.24726 0.0
H2356 H 0.71889 0.71127 0.23316 0.0
H2357 H 0.73613 0.83967 0.23863 0.0
H2358 H 0.74636 0.83231 0.25597 0.0
H2359 H 0.7574 0.79259 0.26921 0.0
H2360 H 0.74411 0.66563 0.26386 0.0
H2361 H 0.72467 0.66868 0.24687 0.0
C2362 C 0.72394 0.73705 0.23822 0.0
C2363 C 0.72686 0.77593 0.23472 0.0
C2364 C 0.73097 0.73303 0.24815 0.0
C2365 C 0.73389 0.80954 0.24125 0.0
C2366 C 0.73989 0.80541 0.25112 0.0
C2367 C 0.75017 0.76556 0.26432 0.0
C2368 C 0.75278 0.72927 0.26772 0.0
C2369 C 0.73977 0.76789 0.25459 0.0
C2370 C 0.74232 0.69396 0.26139 0.0
C2371 C 0.73142 0.69579 0.25168 0.0
H2372 H 0.2046 0.92538 0.23624 0.0
H2373 H 0.27343 0.06313 0.22903 0.0
H2374 H 0.28758 0.08219 0.24631 0.0
H2375 H 0.27789 0.05942 0.26352 0.0
H2376 H 0.20435 0.92181 0.27073 0.0
H2377 H 0.19466 0.90265 0.25341 0.0
C2378 C 0.22305 0.95952 0.23848 0.0
C2379 C 0.23821 0.99287 0.23143 0.0
C2380 C 0.2301 0.97012 0.24841 0.0
C2381 C 0.26143 0.03701 0.23437 0.0
C2382 C 0.26955 0.04786 0.24423 0.0
C2383 C 0.2602 0.02529 0.26125 0.0
C2384 C 0.2421 0.99197 0.2683 0.0
C2385 C 0.25375 0.01469 0.25131 0.0
C2386 C 0.21855 0.94785 0.26536 0.0
C2387 C 0.21301 0.93696 0.25549 0.0
H2388 H 0.06343 0.77007 0.76719 0.0
H2389 H 0.9222 0.69127 0.76651 0.0
H2390 H 0.92357 0.68918 0.74873 0.0
H2391 H 0.96464 0.71513 0.73334 0.0
H2392 H 0.10596 0.79192 0.73397 0.0
H2393 H 0.10505 0.78922 0.75177 0.0
C2394 C 0.03309 0.75198 0.76313 0.0
C2395 C 0.99279 0.73097 0.76813 0.0
C2396 C 0.03416 0.7508 0.75291 0.0
C2397 C 0.95363 0.70738 0.76281 0.0
C2398 C 0.95438 0.70645 0.75265 0.0
C2399 C 0.99518 0.73074 0.7374 0.0
C2400 C 0.03528 0.75385 0.73239 0.0
C2401 C 0.99437 0.7288 0.74762 0.0
C2402 C 0.07474 0.77373 0.73769 0.0
C2403 C 0.0742 0.77241 0.74786 0.0
H2404 H 0.21878 0.2659 0.76285 0.0
H2405 H 0.31392 0.22483 0.7578 0.0
H2406 H 0.30493 0.22768 0.7402 0.0
H2407 H 0.2663 0.23731 0.72631 0.0
H2408 H 0.1724 0.27998 0.73138 0.0
H2409 H 0.18461 0.28126 0.74893 0.0
C2410 C 0.23772 0.25794 0.75786 0.0
C2411 C 0.26672 0.24493 0.76155 0.0
C2412 C 0.23241 0.25972 0.7478 0.0
C2413 C 0.29158 0.23515 0.75508 0.0
C2414 C 0.28624 0.23651 0.74505 0.0
C2415 C 0.24876 0.24707 0.73129 0.0
C2416 C 0.2183 0.2582 0.72764 0.0
C2417 C 0.25618 0.248 0.74133 0.0
C2418 C 0.1961 0.27141 0.73408 0.0
C2419 C 0.20293 0.27197 0.74409 0.0
H2420 H 0.74763 0.9556 0.76823 0.0
H2421 H 0.79634 0.09381 0.76393 0.0
H2422 H 0.78488 0.08222 0.74635 0.0
H2423 H 0.76418 0.03295 0.73217 0.0
H2424 H 0.71218 0.89426 0.73655 0.0
H2425 H 0.72151 0.90552 0.75417 0.0
C2426 C 0.75539 0.98298 0.76341 0.0
C2427 C 0.77293 0.02543 0.76725 0.0
C2428 C 0.74827 0.97594 0.75338 0.0
C2429 C 0.7826 0.06083 0.76105 0.0
C2430 C 0.77626 0.05424 0.75103 0.0
C2431 C 0.75474 0.00533 0.73703 0.0
C2432 C 0.73786 0.96298 0.73318 0.0
C2433 C 0.75963 0.01203 0.74711 0.0
C2434 C 0.72518 0.92712 0.73945 0.0
C2435 C 0.73063 0.93357 0.74948 0.0
H2436 H 0.63969 0.51666 0.59554 0.0
H2437 H 0.70361 0.65431 0.60278 0.0
H2438 H 0.72988 0.67352 0.58597 0.0
H2439 H 0.73617 0.6505 0.56932 0.0
H2440 H 0.6699 0.51216 0.56237 0.0
H2441 H 0.64366 0.49392 0.57902 0.0
C2442 C 0.65969 0.55087 0.59345 0.0
C2443 C 0.6702 0.58403 0.60037 0.0
C2444 C 0.6744 0.56151 0.58385 0.0
C2445 C 0.69517 0.62825 0.59754 0.0
C2446 C 0.71025 0.63919 0.58796 0.0
C2447 C 0.71566 0.61643 0.57144 0.0
C2448 C 0.70557 0.58276 0.56464 0.0
C2449 C 0.70021 0.60603 0.58106 0.0
C2450 C 0.67905 0.53872 0.56751 0.0
C2451 C 0.66375 0.52819 0.57702 0.0
H2452 H 0.3945 0.10688 0.60035 0.0
H2453 H 0.44409 0.01766 0.59691 0.0
H2454 H 0.44029 0.02217 0.57917 0.0
H2455 H 0.42691 0.0553 0.56465 0.0
H2456 H 0.37487 0.14244 0.56824 0.0
H2457 H 0.37556 0.13513 0.58592 0.0
C2458 C 0.40402 0.08813 0.59569 0.0
C2459 C 0.41968 0.06214 0.59986 0.0
C2460 C 0.40163 0.09084 0.58555 0.0
C2461 C 0.43164 0.03763 0.59381 0.0
C2462 C 0.42978 0.04048 0.5837 0.0
C2463 C 0.41559 0.07244 0.56934 0.0
C2464 C 0.40113 0.09956 0.56522 0.0
C2465 C 0.41553 0.06757 0.57949 0.0
C2466 C 0.38602 0.12131 0.5713 0.0
C2467 C 0.38651 0.11723 0.58139 0.0
H2468 H 0.91516 0.31172 0.59792 0.0
H2469 H 0.85141 0.38838 0.59408 0.0
H2470 H 0.83821 0.36725 0.57695 0.0
H2471 H 0.84497 0.32737 0.56308 0.0
H2472 H 0.90661 0.24864 0.56691 0.0
H2473 H 0.92107 0.27077 0.58397 0.0
C2474 C 0.89871 0.32403 0.59329 0.0
C2475 C 0.88427 0.35154 0.59724 0.0
C2476 C 0.89087 0.31142 0.58346 0.0
C2477 C 0.86249 0.36685 0.59121 0.0
C2478 C 0.85503 0.35488 0.58142 0.0
C2479 C 0.86102 0.3145 0.56766 0.0
C2480 C 0.87455 0.28627 0.56369 0.0
C2481 C 0.86886 0.32701 0.57748 0.0
C2482 C 0.89622 0.27078 0.56972 0.0
C2483 C 0.90435 0.28326 0.5795 0.0
H2484 H 0.65276 0.12986 0.06174 0.0
H2485 H 0.75584 0.09804 0.06519 0.0
H2486 H 0.73862 0.084 0.08246 0.0
H2487 H 0.69594 0.08339 0.09679 0.0
H2488 H 0.5977 0.12154 0.09346 0.0
H2489 H 0.61202 0.13145 0.07596 0.0
C2490 C 0.67201 0.12049 0.06626 0.0
C2491 C 0.70563 0.11514 0.06211 0.0
C2492 C 0.66289 0.11378 0.07624 0.0
C2493 C 0.72931 0.10181 0.0681 0.0
C2494 C 0.71974 0.09409 0.07802 0.0
C2495 C 0.67766 0.09366 0.09218 0.0
C2496 C 0.64586 0.10173 0.09632 0.0
C2497 C 0.68677 0.10021 0.08218 0.0
C2498 C 0.62248 0.1154 0.09037 0.0
C2499 C 0.63061 0.12097 0.0804 0.0
H2500 H 0.93396 0.56695 0.0629 0.0
H2501 H 0.83737 0.60665 0.06722 0.0
H2502 H 0.84294 0.60153 0.08488 0.0
H2503 H 0.87322 0.5827 0.09905 0.0
H2504 H 0.97216 0.5461 0.09475 0.0
H2505 H 0.96815 0.55334 0.07711 0.0
C2506 C 0.91434 0.57461 0.06775 0.0
C2507 C 0.8851 0.58683 0.06384 0.0
C2508 C 0.91818 0.57214 0.07785 0.0
C2509 C 0.86015 0.59727 0.07012 0.0
C2510 C 0.86322 0.5942 0.08019 0.0
C2511 C 0.894 0.57658 0.09422 0.0
C2512 C 0.92276 0.56371 0.09812 0.0
C2513 C 0.89179 0.58123 0.08413 0.0
C2514 C 0.94995 0.55627 0.09186 0.0
C2515 C 0.9475 0.56019 0.0818 0.0
H2516 H 0.38321 0.26093 0.07001 0.0
H2517 H 0.46748 0.39572 0.06142 0.0
H2518 H 0.47311 0.41939 0.07837 0.0
H2519 H 0.45738 0.40111 0.09573 0.0
H2520 H 0.37744 0.26589 0.10441 0.0
H2521 H 0.3661 0.24283 0.08732 0.0
C2522 C 0.40234 0.29551 0.07186 0.0
C2523 C 0.4249 0.32659 0.06452 0.0
C2524 C 0.40609 0.30869 0.08162 0.0
C2525 C 0.45013 0.37124 0.06699 0.0
C2526 C 0.45323 0.38476 0.07665 0.0
C2527 C 0.43686 0.36673 0.09383 0.0
C2528 C 0.41783 0.33517 0.10122 0.0
C2529 C 0.43178 0.35372 0.08404 0.0
C2530 C 0.3921 0.2906 0.09877 0.0
C2531 C 0.3858 0.27748 0.08903 0.0
H2532 H 0.29353 0.93281 0.92755 0.0
H2533 H 0.40089 0.91023 0.93396 0.0
H2534 H 0.42325 0.92236 0.91694 0.0
H2535 H 0.40869 0.93314 0.90005 0.0
H2536 H 0.30311 0.95764 0.89345 0.0
H2537 H 0.28405 0.95194 0.91079 0.0
C2538 C 0.32237 0.93149 0.92526 0.0
C2539 C 0.34503 0.91985 0.93199 0.0
C2540 C 0.33518 0.93861 0.91545 0.0
C2541 C 0.38224 0.91809 0.92889 0.0
C2542 C 0.39519 0.92518 0.91917 0.0
C2543 C 0.38181 0.93766 0.90247 0.0
C2544 C 0.3569 0.94524 0.89559 0.0
C2545 C 0.37123 0.93432 0.91236 0.0
C2546 C 0.32253 0.95168 0.8987 0.0
C2547 C 0.31161 0.94824 0.90857 0.0
H2548 H 0.10198 0.38977 0.89726 0.0
H2549 H 0.03549 0.46415 0.89998 0.0
H2550 H 0.03204 0.45475 0.91768 0.0
H2551 H 0.05331 0.43019 0.93243 0.0
H2552 H 0.1172 0.35329 0.92973 0.0
H2553 H 0.11572 0.35798 0.91196 0.0
C2554 C 0.08633 0.40335 0.90177 0.0
C2555 C 0.06926 0.42779 0.89745 0.0
C2556 C 0.08401 0.3973 0.9119 0.0
C2557 C 0.04874 0.44517 0.90324 0.0
C2558 C 0.0469 0.43991 0.91333 0.0
C2559 C 0.06617 0.41389 0.92791 0.0
C2560 C 0.0854 0.39155 0.9323 0.0
C2561 C 0.06512 0.41671 0.91774 0.0
C2562 C 0.10192 0.37035 0.92645 0.0
C2563 C 0.10141 0.37335 0.91632 0.0
H2564 H 0.63938 0.74074 0.92775 0.0
H2565 H 0.56551 0.6027 0.93458 0.0
H2566 H 0.56191 0.58434 0.9173 0.0
H2567 H 0.57343 0.60791 0.90018 0.0
H2568 H 0.64205 0.74601 0.89332 0.0
H2569 H 0.65462 0.76423 0.91066 0.0
C2570 C 0.62335 0.70668 0.92544 0.0
C2571 C 0.60285 0.67306 0.93237 0.0
C2572 C 0.62025 0.6965 0.91549 0.0
C2573 C 0.58143 0.62903 0.92933 0.0
C2574 C 0.57932 0.61857 0.91947 0.0
C2575 C 0.59196 0.64192 0.90251 0.0
C2576 C 0.60702 0.67564 0.89555 0.0
C2577 C 0.59771 0.65205 0.91247 0.0
C2578 C 0.63024 0.71963 0.8986 0.0
C2579 C 0.6373 0.73 0.90849 0.0
H2580 H 0.28264 0.4035 0.3964 0.0
H2581 H 0.41905 0.44235 0.40013 0.0
H2582 H 0.41038 0.43996 0.41783 0.0
H2583 H 0.36442 0.42984 0.43225 0.0
H2584 H 0.22733 0.38779 0.42849 0.0
H2585 H 0.23564 0.38858 0.41078 0.0
C2586 C 0.31029 0.41112 0.40112 0.0
C2587 C 0.35138 0.42316 0.39703 0.0
C2588 C 0.30497 0.40944 0.41125 0.0
C2589 C 0.38702 0.43264 0.40316 0.0
C2590 C 0.38215 0.43158 0.41326 0.0
C2591 C 0.33653 0.42082 0.42751 0.0
C2592 C 0.29547 0.40911 0.43155 0.0
C2593 C 0.34142 0.42056 0.41738 0.0
C2594 C 0.25921 0.39692 0.42544 0.0
C2595 C 0.26397 0.3974 0.41536 0.0
H2596 H 0.62084 0.89677 0.39879 0.0
H2597 H 0.55144 0.96869 0.40054 0.0
H2598 H 0.5533 0.96677 0.41832 0.0
H2599 H 0.57069 0.94053 0.43338 0.0
H2600 H 0.64323 0.87178 0.43173 0.0
H2601 H 0.64458 0.87678 0.41394 0.0
C2602 C 0.6066 0.91236 0.4031 0.0
C2603 C 0.58596 0.93273 0.39841 0.0
C2604 C 0.60827 0.91157 0.41332 0.0
C2605 C 0.56777 0.95309 0.40402 0.0
C2606 C 0.56861 0.9518 0.41417 0.0
C2607 C 0.58718 0.92714 0.4291 0.0
C2608 C 0.6067 0.90571 0.4338 0.0
C2609 C 0.5882 0.93058 0.4189 0.0
C2610 C 0.62824 0.88865 0.42823 0.0
C2611 C 0.62878 0.89129 0.41808 0.0
H2612 H 0.16254 0.72783 0.42432 0.0
H2613 H 0.02252 0.66753 0.4284 0.0
H2614 H 0.011 0.65328 0.4109 0.0
H2615 H 0.04097 0.65515 0.39456 0.0
H2616 H 0.18114 0.7126 0.39094 0.0
H2617 H 0.19232 0.73089 0.40816 0.0
C2618 C 0.12944 0.71123 0.42139 0.0
C2619 C 0.0934 0.69817 0.42764 0.0
C2620 C 0.12313 0.70274 0.41141 0.0
C2621 C 0.0508 0.67789 0.42372 0.0
C2622 C 0.04421 0.66957 0.41373 0.0
C2623 C 0.07392 0.67158 0.39756 0.0
C2624 C 0.11013 0.68254 0.39146 0.0
C2625 C 0.08015 0.68138 0.40753 0.0
C2626 C 0.15271 0.70441 0.39542 0.0
C2627 C 0.15916 0.71458 0.40529 0.0
loop_
_geom_bond_atom_site_label_1
_geom_bond_atom_site_label_2
_geom_bond_distance
_geom_bond_site_symmetry_2
_ccdc_geom_bond_type
C0 C1 1.351 . S
C0 N3 1.368 . S
C0 H5 0.931 . S
C1 C0 1.351 . S
C1 N2 1.373 . S
C1 H29 0.930 . S
N2 C1 1.373 . S
N2 C4 1.340 . S
N3 C0 1.368 . S
N3 C4 1.321 . S
N3 Co6 2.135 . S
C4 N2 1.340 . S
C4 N3 1.321 . S
C4 H28 0.930 . S
H5 C0 0.931 . S
Co6 N3 2.135 . S
Co6 N9 2.121 . S
Co6 O14 2.055 . S
Co6 O17 2.039 . S
Co6 N20 2.140 . S
C7 O8 1.227 . S
C7 O17 1.265 . S
O8 C7 1.227 . S
N9 Co6 2.121 . S
N9 C11 1.375 . S
N9 C12 1.313 . S
C10 C11 1.318 1_655 S
C10 N13 1.361 1_655 S
C10 H30 0.960 . S
C11 N9 1.375 . S
C11 C10 1.318 1_455 S
C11 H15 0.931 1_455 S
C12 N9 1.313 . S
C12 N13 1.344 . S
C12 H16 0.930 . S
N13 C10 1.361 1_455 S
N13 C12 1.344 . S
O14 Co6 2.055 . S
O14 C18 1.253 . S
H15 C11 0.931 1_655 S
H16 C12 0.930 . S
O17 Co6 2.039 . S
O17 C7 1.265 . S
C18 O14 1.253 . S
C18 O19 1.227 . S
O19 C18 1.227 . S
N20 Co6 2.140 . S
N20 C23 1.346 . S
N20 C24 1.345 . S
C21 C22 1.387 . S
C21 C25 1.391 . S
C22 C21 1.387 . S
C22 C23 1.369 . S
C22 H31 0.929 . S
C23 N20 1.346 . S
C23 C22 1.369 . S
C23 H26 0.928 . S
C24 N20 1.345 . S
C24 C25 1.371 . S
C24 H27 0.931 . S
C25 C21 1.391 . S
C25 C24 1.371 . S
C25 H32 0.930 . S
H26 C23 0.928 . S
H27 C24 0.931 . S
H28 C4 0.930 . S
H29 C1 0.930 . S
H30 C10 0.960 . S
H31 C22 0.929 . S
H32 C25 0.930 . S
C33 C34 1.351 . S
C33 N36 1.368 . S
C33 H38 0.931 . S
C34 C33 1.351 . S
C34 N35 1.373 . S
C34 H62 0.930 . S
N35 C34 1.373 . S
N35 C37 1.340 . S
N36 C33 1.368 . S
N36 C37 1.321 . S
N36 Co39 2.135 . S
C37 N35 1.340 . S
C37 N36 1.321 . S
C37 H61 0.930 . S
H38 C33 0.931 . S
Co39 N36 2.135 . S
Co39 N42 2.121 . S
Co39 O47 2.055 . S
Co39 O50 2.039 . S
Co39 N53 2.140 . S
C40 O41 1.227 . S
C40 O50 1.265 . S
O41 C40 1.227 . S
N42 Co39 2.121 . S
N42 C44 1.375 . S
N42 C45 1.313 . S
C43 C44 1.338 . S
C43 N46 1.377 . S
C43 H63 0.930 . S
C44 N42 1.375 . S
C44 C43 1.338 . S
C44 H48 0.931 . S
C45 N42 1.313 . S
C45 N46 1.344 . S
C45 H49 0.930 . S
N46 C43 1.377 . S
N46 C45 1.344 . S
O47 Co39 2.055 . S
O47 C51 1.253 . S
H48 C44 0.931 . S
H49 C45 0.930 . S
O50 Co39 2.039 . S
O50 C40 1.265 . S
C51 O47 1.253 . S
C51 O52 1.227 . S
O52 C51 1.227 . S
N53 Co39 2.140 . S
N53 C56 1.346 . S
N53 C57 1.345 . S
C54 C55 1.387 . S
C54 C58 1.391 . S
C55 C54 1.387 . S
C55 C56 1.369 . S
C55 H64 0.929 . S
C56 N53 1.346 . S
C56 C55 1.369 . S
C56 H59 0.928 . S
C57 N53 1.345 . S
C57 C58 1.371 . S
C57 H60 0.931 . S
C58 C54 1.391 . S
C58 C57 1.371 . S
C58 H65 0.930 . S
H59 C56 0.928 . S
H60 C57 0.931 . S
H61 C37 0.930 . S
H62 C34 0.930 . S
H63 C43 0.930 . S
H64 C55 0.929 . S
H65 C58 0.930 . S
C66 C67 1.351 . S
C66 N69 1.368 . S
C66 H71 0.931 . S
C67 C66 1.351 . S
C67 N68 1.373 . S
C67 H95 0.930 . S
N68 C67 1.373 . S
N68 C70 1.340 . S
N69 C66 1.368 . S
N69 C70 1.321 . S
N69 Co72 2.135 . S
C70 N68 1.340 . S
C70 N69 1.321 . S
C70 H94 0.930 . S
H71 C66 0.931 . S
Co72 N69 2.135 . S
Co72 N75 2.121 . S
Co72 O80 2.055 . S
Co72 O83 2.039 . S
Co72 N86 2.140 . S
C73 O74 1.227 . S
C73 O83 1.265 . S
O74 C73 1.227 . S
N75 Co72 2.121 . S
N75 C77 1.375 . S
N75 C78 1.313 . S
C76 C77 1.338 1_545 S
C76 N79 1.377 1_545 S
C76 H96 0.930 . S
C77 N75 1.375 . S
C77 C76 1.338 1_565 S
C77 H81 0.931 1_565 S
C78 N75 1.313 . S
C78 N79 1.344 . S
C78 H82 0.930 . S
N79 C76 1.377 1_565 S
N79 C78 1.344 . S
O80 Co72 2.055 . S
O80 C84 1.253 . S
H81 C77 0.931 1_545 S
H82 C78 0.930 . S
O83 Co72 2.039 . S
O83 C73 1.265 . S
C84 O80 1.253 . S
C84 O85 1.227 . S
O85 C84 1.227 . S
N86 Co72 2.140 . S
N86 C89 1.346 . S
N86 C90 1.345 . S
C87 C88 1.387 . S
C87 C91 1.391 . S
C88 C87 1.387 . S
C88 C89 1.369 . S
C88 H97 0.929 . S
C89 N86 1.346 . S
C89 C88 1.369 . S
C89 H92 0.928 . S
C90 N86 1.345 . S
C90 C91 1.371 . S
C90 H93 0.931 . S
C91 C87 1.391 . S
C91 C90 1.371 . S
C91 H98 0.930 . S
H92 C89 0.928 . S
H93 C90 0.931 . S
H94 C70 0.930 . S
H95 C67 0.930 . S
H96 C76 0.930 . S
H97 C88 0.929 . S
H98 C91 0.930 . S
C99 C100 1.351 . S
C99 N102 1.368 . S
C99 H104 0.931 . S
C100 C99 1.351 . S
C100 N101 1.373 . S
C100 H128 0.930 . S
N101 C100 1.373 . S
N101 C103 1.340 . S
N102 C99 1.368 . S
N102 C103 1.321 . S
N102 Co105 2.135 . S
C103 N101 1.340 . S
C103 N102 1.321 . S
C103 H127 0.930 . S
H104 C99 0.931 . S
Co105 N102 2.135 . S
Co105 N108 2.121 . S
Co105 O113 2.055 . S
Co105 O116 2.039 . S
Co105 N119 2.140 . S
C106 O107 1.227 . S
C106 O116 1.265 . S
O107 C106 1.227 . S
N108 Co105 2.121 . S
N108 C110 1.375 . S
N108 C111 1.313 . S
C109 C110 1.318 1_565 S
C109 N112 1.361 1_565 S
C109 H129 0.961 . S
C110 N108 1.375 . S
C110 C109 1.318 1_545 S
C110 H114 0.931 1_545 S
C111 N108 1.313 . S
C111 N112 1.344 . S
C111 H115 0.930 . S
N112 C109 1.361 1_545 S
N112 C111 1.344 . S
O113 Co105 2.055 . S
O113 C117 1.253 . S
H114 C110 0.931 1_565 S
H115 C111 0.930 . S
O116 Co105 2.039 . S
O116 C106 1.265 . S
C117 O113 1.253 . S
C117 O118 1.227 . S
O118 C117 1.227 . S
N119 Co105 2.140 . S
N119 C122 1.346 . S
N119 C123 1.345 . S
C120 C121 1.387 . S
C120 C124 1.391 . S
C121 C120 1.387 . S
C121 C122 1.369 . S
C121 H130 0.929 . S
C122 N119 1.346 . S
C122 C121 1.369 . S
C122 H125 0.928 . S
C123 N119 1.345 . S
C123 C124 1.371 . S
C123 H126 0.931 . S
C124 C120 1.391 . S
C124 C123 1.371 . S
C124 H131 0.930 . S
H125 C122 0.928 . S
H126 C123 0.931 . S
H127 C103 0.930 . S
H128 C100 0.930 . S
H129 C109 0.961 . S
H130 C121 0.929 . S
H131 C124 0.930 . S
C132 C133 1.351 . S
C132 N135 1.368 . S
C132 H137 0.931 . S
C133 C132 1.351 . S
C133 N134 1.373 . S
C133 H161 0.930 . S
N134 C133 1.373 . S
N134 C136 1.340 . S
N135 C132 1.368 . S
N135 C136 1.321 . S
N135 Co138 2.135 . S
C136 N134 1.340 . S
C136 N135 1.321 . S
C136 H160 0.930 . S
H137 C132 0.931 . S
Co138 N135 2.135 . S
Co138 N141 2.121 . S
Co138 O146 2.055 . S
Co138 O149 2.039 . S
Co138 N152 2.140 . S
C139 O140 1.227 . S
C139 O149 1.265 . S
O140 C139 1.227 . S
N141 Co138 2.121 . S
N141 C143 1.375 . S
N141 C144 1.313 . S
C142 C143 1.338 1_455 S
C142 N145 1.377 1_455 S
C142 H162 0.930 . S
C143 N141 1.375 . S
C143 C142 1.338 1_655 S
C143 H147 0.931 1_655 S
C144 N141 1.313 . S
C144 N145 1.344 . S
C144 H148 0.930 . S
N145 C142 1.377 1_655 S
N145 C144 1.344 . S
O146 Co138 2.055 . S
O146 C150 1.253 . S
H147 C143 0.931 1_455 S
H148 C144 0.930 . S
O149 Co138 2.039 . S
O149 C139 1.265 . S
C150 O146 1.253 . S
C150 O151 1.227 . S
O151 C150 1.227 . S
N152 Co138 2.140 . S
N152 C155 1.346 . S
N152 C156 1.345 . S
C153 C154 1.387 . S
C153 C157 1.391 . S
C154 C153 1.387 . S
C154 C155 1.369 . S
C154 H163 0.929 . S
C155 N152 1.346 . S
C155 C154 1.369 . S
C155 H158 0.928 . S
C156 N152 1.345 . S
C156 C157 1.371 . S
C156 H159 0.931 . S
C157 C153 1.391 . S
C157 C156 1.371 . S
C157 H164 0.930 . S
H158 C155 0.928 . S
H159 C156 0.931 . S
H160 C136 0.930 . S
H161 C133 0.930 . S
H162 C142 0.930 . S
H163 C154 0.929 . S
H164 C157 0.930 . S
C165 C166 1.351 . S
C165 N168 1.368 . S
C165 H170 0.931 . S
C166 C165 1.351 . S
C166 N167 1.373 . S
C166 H194 0.930 . S
N167 C166 1.373 . S
N167 C169 1.340 . S
N168 C165 1.368 . S
N168 C169 1.321 . S
N168 Co171 2.135 . S
C169 N167 1.340 . S
C169 N168 1.321 . S
C169 H193 0.930 . S
H170 C165 0.931 . S
Co171 N168 2.135 . S
Co171 N174 2.121 . S
Co171 O179 2.055 . S
Co171 O182 2.039 . S
Co171 N185 2.140 . S
C172 O173 1.227 . S
C172 O182 1.265 . S
O173 C172 1.227 . S
N174 Co171 2.121 . S
N174 C176 1.375 . S
N174 C177 1.313 . S
C175 C176 1.338 . S
C175 N178 1.377 . S
C175 H195 0.930 . S
C176 N174 1.375 . S
C176 C175 1.338 . S
C176 H180 0.931 . S
C177 N174 1.313 . S
C177 N178 1.344 . S
C177 H181 0.930 . S
N178 C175 1.377 . S
N178 C177 1.344 . S
O179 Co171 2.055 . S
O179 C183 1.253 . S
H180 C176 0.931 . S
H181 C177 0.930 . S
O182 Co171 2.039 . S
O182 C172 1.265 . S
C183 O179 1.253 . S
C183 O184 1.227 . S
O184 C183 1.227 . S
N185 Co171 2.140 . S
N185 C188 1.346 . S
N185 C189 1.345 . S
C186 C187 1.387 . S
C186 C190 1.391 . S
C187 C186 1.387 . S
C187 C188 1.369 . S
C187 H196 0.929 . S
C188 N185 1.346 . S
C188 C187 1.369 . S
C188 H191 0.928 . S
C189 N185 1.345 . S
C189 C190 1.371 . S
C189 H192 0.931 . S
C190 C186 1.391 . S
C190 C189 1.371 . S
C190 H197 0.930 . S
H191 C188 0.928 . S
H192 C189 0.931 . S
H193 C169 0.930 . S
H194 C166 0.930 . S
H195 C175 0.930 . S
H196 C187 0.929 . S
H197 C190 0.930 . S
C198 C199 1.351 . S
C198 N201 1.368 . S
C198 H203 0.931 . S
C199 C198 1.351 . S
C199 N200 1.373 . S
C199 H227 0.930 . S
N200 C199 1.373 . S
N200 C202 1.340 . S
N201 C198 1.368 . S
N201 C202 1.321 . S
N201 Co204 2.135 . S
C202 N200 1.340 . S
C202 N201 1.321 . S
C202 H226 0.930 . S
H203 C198 0.931 . S
Co204 N201 2.135 . S
Co204 N207 2.121 . S
Co204 O212 2.055 . S
Co204 O215 2.039 . S
Co204 N218 2.140 . S
C205 O206 1.227 . S
C205 O215 1.265 . S
O206 C205 1.227 . S
N207 Co204 2.121 . S
N207 C209 1.375 . S
N207 C210 1.313 . S
C208 C209 1.318 1_455 S
C208 N211 1.361 1_455 S
C208 H228 0.960 . S
C209 N207 1.375 . S
C209 C208 1.318 1_655 S
C209 H213 0.931 1_655 S
C210 N207 1.313 . S
C210 N211 1.344 . S
C210 H214 0.930 . S
N211 C208 1.361 1_655 S
N211 C210 1.344 . S
O212 Co204 2.055 . S
O212 C216 1.253 . S
H213 C209 0.931 1_455 S
H214 C210 0.930 . S
O215 Co204 2.039 . S
O215 C205 1.265 . S
C216 O212 1.253 . S
C216 O217 1.227 . S
O217 C216 1.227 . S
N218 Co204 2.140 . S
N218 C221 1.346 . S
N218 C222 1.345 . S
C219 C220 1.387 . S
C219 C223 1.391 . S
C220 C219 1.387 . S
C220 C221 1.369 . S
C220 H229 0.929 . S
C221 N218 1.346 . S
C221 C220 1.369 . S
C221 H224 0.928 . S
C222 N218 1.345 . S
C222 C223 1.371 . S
C222 H225 0.931 . S
C223 C219 1.391 . S
C223 C222 1.371 . S
C223 H230 0.930 . S
H224 C221 0.928 . S
H225 C222 0.931 . S
H226 C202 0.930 . S
H227 C199 0.930 . S
H228 C208 0.960 . S
H229 C220 0.929 . S
H230 C223 0.930 . S
C231 C232 1.351 . S
C231 N234 1.368 . S
C231 H236 0.931 . S
C232 C231 1.351 . S
C232 N233 1.373 . S
C232 H260 0.930 . S
N233 C232 1.373 . S
N233 C235 1.340 . S
N234 C231 1.368 . S
N234 C235 1.321 . S
N234 Co237 2.135 . S
C235 N233 1.340 . S
C235 N234 1.321 . S
C235 H259 0.930 . S
H236 C231 0.931 . S
Co237 N234 2.135 . S
Co237 N240 2.121 . S
Co237 O245 2.055 . S
Co237 O248 2.039 . S
Co237 N251 2.140 . S
C238 O239 1.227 . S
C238 O248 1.265 . S
O239 C238 1.227 . S
N240 Co237 2.121 . S
N240 C242 1.375 . S
N240 C243 1.313 . S
C241 C242 1.338 . S
C241 N244 1.377 . S
C241 H261 0.930 . S
C242 N240 1.375 . S
C242 C241 1.338 . S
C242 H246 0.931 . S
C243 N240 1.313 . S
C243 N244 1.344 . S
C243 H247 0.930 . S
N244 C241 1.377 . S
N244 C243 1.344 . S
O245 Co237 2.055 . S
O245 C249 1.253 . S
H246 C242 0.931 . S
H247 C243 0.930 . S
O248 Co237 2.039 . S
O248 C238 1.265 . S
C249 O245 1.253 . S
C249 O250 1.227 . S
O250 C249 1.227 . S
N251 Co237 2.140 . S
N251 C254 1.346 . S
N251 C255 1.345 . S
C252 C253 1.387 . S
C252 C256 1.391 . S
C253 C252 1.387 . S
C253 C254 1.369 . S
C253 H262 0.929 . S
C254 N251 1.346 . S
C254 C253 1.369 . S
C254 H257 0.928 . S
C255 N251 1.345 . S
C255 C256 1.371 . S
C255 H258 0.931 . S
C256 C252 1.391 . S
C256 C255 1.371 . S
C256 H263 0.930 . S
H257 C254 0.928 . S
H258 C255 0.931 . S
H259 C235 0.930 . S
H260 C232 0.930 . S
H261 C241 0.930 . S
H262 C253 0.929 . S
H263 C256 0.930 . S
C264 C265 1.351 . S
C264 N267 1.368 . S
C264 H269 0.931 . S
C265 C264 1.351 . S
C265 N266 1.373 . S
C265 H293 0.930 . S
N266 C265 1.373 . S
N266 C268 1.340 . S
N267 C264 1.368 . S
N267 C268 1.321 . S
N267 Co270 2.135 . S
C268 N266 1.340 . S
C268 N267 1.321 . S
C268 H292 0.930 . S
H269 C264 0.931 . S
Co270 N267 2.135 . S
Co270 N273 2.121 . S
Co270 O278 2.055 . S
Co270 O281 2.039 . S
Co270 N284 2.140 . S
C271 O272 1.227 . S
C271 O281 1.265 . S
O272 C271 1.227 . S
N273 Co270 2.121 . S
N273 C275 1.375 . S
N273 C276 1.313 . S
C274 C275 1.338 1_565 S
C274 N277 1.377 1_565 S
C274 H294 0.930 . S
C275 N273 1.375 . S
C275 C274 1.338 1_545 S
C275 H279 0.931 1_545 S
C276 N273 1.313 . S
C276 N277 1.344 . S
C276 H280 0.930 . S
N277 C274 1.377 1_545 S
N277 C276 1.344 . S
O278 Co270 2.055 . S
O278 C282 1.253 . S
H279 C275 0.931 1_565 S
H280 C276 0.930 . S
O281 Co270 2.039 . S
O281 C271 1.265 . S
C282 O278 1.253 . S
C282 O283 1.227 . S
O283 C282 1.227 . S
N284 Co270 2.140 . S
N284 C287 1.346 . S
N284 C288 1.345 . S
C285 C286 1.387 . S
C285 C289 1.391 . S
C286 C285 1.387 . S
C286 C287 1.369 . S
C286 H295 0.929 . S
C287 N284 1.346 . S
C287 C286 1.369 . S
C287 H290 0.928 . S
C288 N284 1.345 . S
C288 C289 1.371 . S
C288 H291 0.931 . S
C289 C285 1.391 . S
C289 C288 1.371 . S
C289 H296 0.930 . S
H290 C287 0.928 . S
H291 C288 0.931 . S
H292 C268 0.930 . S
H293 C265 0.930 . S
H294 C274 0.930 . S
H295 C286 0.929 . S
H296 C289 0.930 . S
C297 C298 1.351 . S
C297 N300 1.368 . S
C297 H302 0.931 . S
C298 C297 1.351 . S
C298 N299 1.373 . S
C298 H326 0.930 . S
N299 C298 1.373 . S
N299 C301 1.340 . S
N300 C297 1.368 . S
N300 C301 1.321 . S
N300 Co303 2.135 . S
C301 N299 1.340 . S
C301 N300 1.321 . S
C301 H325 0.930 . S
H302 C297 0.931 . S
Co303 N300 2.135 . S
Co303 N306 2.121 . S
Co303 O311 2.055 . S
Co303 O314 2.039 . S
Co303 N317 2.140 . S
C304 O305 1.227 . S
C304 O314 1.265 . S
O305 C304 1.227 . S
N306 Co303 2.121 . S
N306 C308 1.375 . S
N306 C309 1.313 . S
C307 C308 1.318 1_545 S
C307 N310 1.361 1_545 S
C307 H327 0.961 . S
C308 N306 1.375 . S
C308 C307 1.318 1_565 S
C308 H312 0.931 1_565 S
C309 N306 1.313 . S
C309 N310 1.344 . S
C309 H313 0.930 . S
N310 C307 1.361 1_565 S
N310 C309 1.344 . S
O311 Co303 2.055 . S
O311 C315 1.253 . S
H312 C308 0.931 1_545 S
H313 C309 0.930 . S
O314 Co303 2.039 . S
O314 C304 1.265 . S
C315 O311 1.253 . S
C315 O316 1.227 . S
O316 C315 1.227 . S
N317 Co303 2.140 . S
N317 C320 1.346 . S
N317 C321 1.345 . S
C318 C319 1.387 . S
C318 C322 1.391 . S
C319 C318 1.387 . S
C319 C320 1.369 . S
C319 H328 0.929 . S
C320 N317 1.346 . S
C320 C319 1.369 . S
C320 H323 0.928 . S
C321 N317 1.345 . S
C321 C322 1.371 . S
C321 H324 0.931 . S
C322 C318 1.391 . S
C322 C321 1.371 . S
C322 H329 0.930 . S
H323 C320 0.928 . S
H324 C321 0.931 . S
H325 C301 0.930 . S
H326 C298 0.930 . S
H327 C307 0.961 . S
H328 C319 0.929 . S
H329 C322 0.930 . S
C330 C331 1.351 . S
C330 N333 1.368 . S
C330 H335 0.931 . S
C331 C330 1.351 . S
C331 N332 1.373 . S
C331 H359 0.930 . S
N332 C331 1.373 . S
N332 C334 1.340 . S
N333 C330 1.368 . S
N333 C334 1.321 . S
N333 Co336 2.135 . S
C334 N332 1.340 . S
C334 N333 1.321 . S
C334 H358 0.930 . S
H335 C330 0.931 . S
Co336 N333 2.135 . S
Co336 N339 2.121 . S
Co336 O344 2.055 . S
Co336 O347 2.039 . S
Co336 N350 2.140 . S
C337 O338 1.227 . S
C337 O347 1.265 . S
O338 C337 1.227 . S
N339 Co336 2.121 . S
N339 C341 1.375 . S
N339 C342 1.313 . S
C340 C341 1.338 1_655 S
C340 N343 1.377 1_655 S
C340 H360 0.930 . S
C341 N339 1.375 . S
C341 C340 1.338 1_455 S
C341 H345 0.931 1_455 S
C342 N339 1.313 . S
C342 N343 1.344 . S
C342 H346 0.930 . S
N343 C340 1.377 1_455 S
N343 C342 1.344 . S
O344 Co336 2.055 . S
O344 C348 1.253 . S
H345 C341 0.931 1_655 S
H346 C342 0.930 . S
O347 Co336 2.039 . S
O347 C337 1.265 . S
C348 O344 1.253 . S
C348 O349 1.227 . S
O349 C348 1.227 . S
N350 Co336 2.140 . S
N350 C353 1.346 . S
N350 C354 1.345 . S
C351 C352 1.387 . S
C351 C355 1.391 . S
C352 C351 1.387 . S
C352 C353 1.369 . S
C352 H361 0.929 . S
C353 N350 1.346 . S
C353 C352 1.369 . S
C353 H356 0.928 . S
C354 N350 1.345 . S
C354 C355 1.371 . S
C354 H357 0.931 . S
C355 C351 1.391 . S
C355 C354 1.371 . S
C355 H362 0.930 . S
H356 C353 0.928 . S
H357 C354 0.931 . S
H358 C334 0.930 . S
H359 C331 0.930 . S
H360 C340 0.930 . S
H361 C352 0.929 . S
H362 C355 0.930 . S
C363 C364 1.351 . S
C363 N366 1.368 . S
C363 H368 0.931 . S
C364 C363 1.351 . S
C364 N365 1.373 . S
C364 H392 0.930 . S
N365 C364 1.373 . S
N365 C367 1.340 . S
N366 C363 1.368 . S
N366 C367 1.321 . S
N366 Co369 2.135 . S
C367 N365 1.340 . S
C367 N366 1.321 . S
C367 H391 0.930 . S
H368 C363 0.931 . S
Co369 N366 2.135 . S
Co369 N372 2.121 . S
Co369 O377 2.055 . S
Co369 O380 2.039 . S
Co369 N383 2.140 . S
C370 O371 1.227 . S
C370 O380 1.265 . S
O371 C370 1.227 . S
N372 Co369 2.121 . S
N372 C374 1.375 . S
N372 C375 1.313 . S
C373 C374 1.338 . S
C373 N376 1.377 . S
C373 H393 0.930 . S
C374 N372 1.375 . S
C374 C373 1.338 . S
C374 H378 0.931 . S
C375 N372 1.313 . S
C375 N376 1.344 . S
C375 H379 0.930 . S
N376 C373 1.377 . S
N376 C375 1.344 . S
O377 Co369 2.055 . S
O377 C381 1.253 . S
H378 C374 0.931 . S
H379 C375 0.930 . S
O380 Co369 2.039 . S
O380 C370 1.265 . S
C381 O377 1.253 . S
C381 O382 1.227 . S
O382 C381 1.227 . S
N383 Co369 2.140 . S
N383 C386 1.346 . S
N383 C387 1.345 . S
C384 C385 1.387 . S
C384 C388 1.391 . S
C385 C384 1.387 . S
C385 C386 1.369 . S
C385 H394 0.929 . S
C386 N383 1.346 . S
C386 C385 1.369 . S
C386 H389 0.928 . S
C387 N383 1.345 . S
C387 C388 1.371 . S
C387 H390 0.931 . S
C388 C384 1.391 . S
C388 C387 1.371 . S
C388 H395 0.930 . S
H389 C386 0.928 . S
H390 C387 0.931 . S
H391 C367 0.930 . S
H392 C364 0.930 . S
H393 C373 0.930 . S
H394 C385 0.929 . S
H395 C388 0.930 . S
C396 C397 1.351 . S
C396 N399 1.368 . S
C396 H401 0.931 . S
C397 C396 1.351 . S
C397 N398 1.373 . S
C397 H425 0.930 . S
N398 C397 1.373 . S
N398 C400 1.340 . S
N399 C396 1.368 . S
N399 C400 1.321 . S
N399 Co402 2.135 . S
C400 N398 1.340 . S
C400 N399 1.321 . S
C400 H424 0.930 . S
H401 C396 0.931 . S
Co402 N399 2.135 . S
Co402 N405 2.121 . S
Co402 O410 2.055 . S
Co402 O413 2.039 . S
Co402 N416 2.140 . S
C403 O404 1.227 . S
C403 O413 1.265 . S
O404 C403 1.227 . S
N405 Co402 2.121 . S
N405 C407 1.375 . S
N405 C408 1.313 . S
C406 C407 1.338 . S
C406 N409 1.377 . S
C406 H426 0.930 . S
C407 N405 1.375 . S
C407 C406 1.338 . S
C407 H411 0.931 . S
C408 N405 1.313 . S
C408 N409 1.344 . S
C408 H412 0.930 . S
N409 C406 1.377 . S
N409 C408 1.344 . S
O410 Co402 2.055 . S
O410 C414 1.253 . S
H411 C407 0.931 . S
H412 C408 0.930 . S
O413 Co402 2.039 . S
O413 C403 1.265 . S
C414 O410 1.253 . S
C414 O415 1.227 . S
O415 C414 1.227 . S
N416 Co402 2.140 . S
N416 C419 1.346 . S
N416 C420 1.345 . S
C417 C418 1.387 . S
C417 C421 1.391 . S
C418 C417 1.387 . S
C418 C419 1.369 . S
C418 H427 0.929 . S
C419 N416 1.346 . S
C419 C418 1.369 . S
C419 H422 0.928 . S
C420 N416 1.345 . S
C420 C421 1.371 . S
C420 H423 0.931 . S
C421 C417 1.391 . S
C421 C420 1.371 . S
C421 H428 0.930 . S
H422 C419 0.928 . S
H423 C420 0.931 . S
H424 C400 0.930 . S
H425 C397 0.930 . S
H426 C406 0.930 . S
H427 C418 0.929 . S
H428 C421 0.930 . S
C429 C430 1.351 . S
C429 N432 1.368 . S
C429 H434 0.931 . S
C430 C429 1.351 . S
C430 N431 1.373 . S
C430 H458 0.930 . S
N431 C430 1.373 . S
N431 C433 1.340 . S
N432 C429 1.368 . S
N432 C433 1.321 . S
N432 Co435 2.135 . S
C433 N431 1.340 . S
C433 N432 1.321 . S
C433 H457 0.930 . S
H434 C429 0.931 . S
Co435 N432 2.135 . S
Co435 N438 2.121 . S
Co435 O443 2.055 . S
Co435 O446 2.039 . S
Co435 N449 2.140 . S
C436 O437 1.227 . S
C436 O446 1.265 . S
O437 C436 1.227 . S
N438 Co435 2.121 . S
N438 C440 1.375 . S
N438 C441 1.313 . S
C439 C440 1.338 . S
C439 N442 1.377 . S
C439 H459 0.953 . S
C440 N438 1.375 . S
C440 C439 1.338 . S
C440 H444 0.931 . S
C441 N438 1.313 . S
C441 N442 1.344 . S
C441 H445 0.930 . S
N442 C439 1.377 . S
N442 C441 1.344 . S
O443 Co435 2.055 . S
O443 C447 1.253 . S
H444 C440 0.931 . S
H445 C441 0.930 . S
O446 Co435 2.039 . S
O446 C436 1.265 . S
C447 O443 1.253 . S
C447 O448 1.227 . S
O448 C447 1.227 . S
N449 Co435 2.140 . S
N449 C452 1.346 . S
N449 C453 1.345 . S
C450 C451 1.387 . S
C450 C454 1.391 . S
C451 C450 1.387 . S
C451 C452 1.369 . S
C451 H460 0.929 . S
C452 N449 1.346 . S
C452 C451 1.369 . S
C452 H455 0.928 . S
C453 N449 1.345 . S
C453 C454 1.371 . S
C453 H456 0.931 . S
C454 C450 1.391 . S
C454 C453 1.371 . S
C454 H461 0.930 . S
H455 C452 0.928 . S
H456 C453 0.931 . S
H457 C433 0.930 . S
H458 C430 0.930 . S
H459 C439 0.953 . S
H460 C451 0.929 . S
H461 C454 0.930 . S
C462 C463 1.351 . S
C462 N465 1.368 . S
C462 H467 0.931 . S
C463 C462 1.351 . S
C463 N464 1.373 . S
C463 H491 0.930 . S
N464 C463 1.373 . S
N464 C466 1.340 . S
N465 C462 1.368 . S
N465 C466 1.321 . S
N465 Co468 2.135 . S
C466 N464 1.340 . S
C466 N465 1.321 . S
C466 H490 0.930 . S
H467 C462 0.931 . S
Co468 N465 2.135 . S
Co468 N471 2.121 . S
Co468 O476 2.055 . S
Co468 O479 2.039 . S
Co468 N482 2.140 . S
C469 O470 1.227 . S
C469 O479 1.265 . S
O470 C469 1.227 . S
N471 Co468 2.121 . S
N471 C473 1.375 . S
N471 C474 1.313 . S
C472 C473 1.338 . S
C472 N475 1.377 . S
C472 H492 0.941 . S
C473 N471 1.375 . S
C473 C472 1.338 . S
C473 H477 0.931 . S
C474 N471 1.313 . S
C474 N475 1.344 . S
C474 H478 0.930 . S
N475 C472 1.377 . S
N475 C474 1.344 . S
O476 Co468 2.055 . S
O476 C480 1.253 . S
H477 C473 0.931 . S
H478 C474 0.930 . S
O479 Co468 2.039 . S
O479 C469 1.265 . S
C480 O476 1.253 . S
C480 O481 1.227 . S
O481 C480 1.227 . S
N482 Co468 2.140 . S
N482 C485 1.346 . S
N482 C486 1.345 . S
C483 C484 1.387 . S
C483 C487 1.391 . S
C484 C483 1.387 . S
C484 C485 1.369 . S
C484 H493 0.929 . S
C485 N482 1.346 . S
C485 C484 1.369 . S
C485 H488 0.928 . S
C486 N482 1.345 . S
C486 C487 1.371 . S
C486 H489 0.931 . S
C487 C483 1.391 . S
C487 C486 1.371 . S
C487 H494 0.930 . S
H488 C485 0.928 . S
H489 C486 0.931 . S
H490 C466 0.930 . S
H491 C463 0.930 . S
H492 C472 0.941 . S
H493 C484 0.929 . S
H494 C487 0.930 . S
C495 C496 1.351 . S
C495 N498 1.368 . S
C495 H500 0.931 . S
C496 C495 1.351 . S
C496 N497 1.373 . S
C496 H524 0.930 . S
N497 C496 1.373 . S
N497 C499 1.340 . S
N498 C495 1.368 . S
N498 C499 1.321 . S
N498 Co501 2.135 . S
C499 N497 1.340 . S
C499 N498 1.321 . S
C499 H523 0.930 . S
H500 C495 0.931 . S
Co501 N498 2.135 . S
Co501 N504 2.121 . S
Co501 O509 2.055 . S
Co501 O512 2.039 . S
Co501 N515 2.140 . S
C502 O503 1.227 . S
C502 O512 1.265 . S
O503 C502 1.227 . S
N504 Co501 2.121 . S
N504 C506 1.375 . S
N504 C507 1.313 . S
C505 C506 1.338 . S
C505 N508 1.377 1_655 S
C505 H525 0.930 . S
C506 N504 1.375 . S
C506 C505 1.338 . S
C506 H510 0.931 . S
C507 N504 1.313 . S
C507 N508 1.344 1_655 S
C507 H511 0.930 1_655 S
N508 C505 1.377 1_455 S
N508 C507 1.344 1_455 S
O509 Co501 2.055 . S
O509 C513 1.253 . S
H510 C506 0.931 . S
H511 C507 0.930 1_455 S
O512 Co501 2.039 . S
O512 C502 1.265 . S
C513 O509 1.253 . S
C513 O514 1.227 . S
O514 C513 1.227 . S
N515 Co501 2.140 . S
N515 C518 1.346 . S
N515 C519 1.345 . S
C516 C517 1.387 . S
C516 C520 1.391 . S
C517 C516 1.387 . S
C517 C518 1.369 . S
C517 H526 0.929 . S
C518 N515 1.346 . S
C518 C517 1.369 . S
C518 H521 0.928 . S
C519 N515 1.345 . S
C519 C520 1.371 . S
C519 H522 0.931 . S
C520 C516 1.391 . S
C520 C519 1.371 . S
C520 H527 0.930 1_655 S
H521 C518 0.928 . S
H522 C519 0.931 . S
H523 C499 0.930 . S
H524 C496 0.930 . S
H525 C505 0.930 . S
H526 C517 0.929 . S
H527 C520 0.930 1_455 S
C528 C529 1.351 . S
C528 N531 1.368 . S
C528 H533 0.931 . S
C529 C528 1.351 . S
C529 N530 1.373 . S
C529 H557 0.930 . S
N530 C529 1.373 . S
N530 C532 1.340 . S
N531 C528 1.368 . S
N531 C532 1.321 . S
N531 Co534 2.135 . S
C532 N530 1.340 . S
C532 N531 1.321 . S
C532 H556 0.930 . S
H533 C528 0.931 . S
Co534 N531 2.135 . S
Co534 N537 2.121 . S
Co534 O542 2.055 . S
Co534 O545 2.039 . S
Co534 N548 2.140 . S
C535 O536 1.227 . S
C535 O545 1.265 . S
O536 C535 1.227 . S
N537 Co534 2.121 . S
N537 C539 1.375 . S
N537 C540 1.313 . S
C538 C539 1.338 . S
C538 N541 1.377 . S
C538 H558 0.930 . S
C539 N537 1.375 . S
C539 C538 1.338 . S
C539 H543 0.931 . S
C540 N537 1.313 . S
C540 N541 1.344 . S
C540 H544 0.930 . S
N541 C538 1.377 . S
N541 C540 1.344 . S
O542 Co534 2.055 . S
O542 C546 1.253 . S
H543 C539 0.931 . S
H544 C540 0.930 . S
O545 Co534 2.039 . S
O545 C535 1.265 . S
C546 O542 1.253 . S
C546 O547 1.227 . S
O547 C546 1.227 . S
N548 Co534 2.140 . S
N548 C551 1.346 . S
N548 C552 1.345 . S
C549 C550 1.387 . S
C549 C553 1.391 . S
C550 C549 1.387 . S
C550 C551 1.369 . S
C550 H559 0.929 . S
C551 N548 1.346 . S
C551 C550 1.369 . S
C551 H554 0.928 . S
C552 N548 1.345 . S
C552 C553 1.371 . S
C552 H555 0.931 . S
C553 C549 1.391 . S
C553 C552 1.371 . S
C553 H560 0.930 . S
H554 C551 0.928 . S
H555 C552 0.931 . S
H556 C532 0.930 . S
H557 C529 0.930 . S
H558 C538 0.930 . S
H559 C550 0.929 . S
H560 C553 0.930 . S
C561 C562 1.351 . S
C561 N564 1.368 . S
C561 H566 0.931 . S
C562 C561 1.351 . S
C562 N563 1.373 . S
C562 H590 0.930 . S
N563 C562 1.373 . S
N563 C565 1.340 . S
N564 C561 1.368 . S
N564 C565 1.321 . S
N564 Co567 2.135 . S
C565 N563 1.340 . S
C565 N564 1.321 . S
C565 H589 0.930 . S
H566 C561 0.931 . S
Co567 N564 2.135 . S
Co567 N570 2.121 . S
Co567 O575 2.055 . S
Co567 O578 2.039 . S
Co567 N581 2.140 . S
C568 O569 1.227 . S
C568 O578 1.265 . S
O569 C568 1.227 . S
N570 Co567 2.121 . S
N570 C572 1.375 . S
N570 C573 1.313 . S
C571 C572 1.338 . S
C571 N574 1.377 1_545 S
C571 H591 0.930 . S
C572 N570 1.375 . S
C572 C571 1.338 . S
C572 H576 0.931 . S
C573 N570 1.313 . S
C573 N574 1.344 1_545 S
C573 H577 0.930 1_545 S
N574 C571 1.377 1_565 S
N574 C573 1.344 1_565 S
O575 Co567 2.055 . S
O575 C579 1.253 . S
H576 C572 0.931 . S
H577 C573 0.930 1_565 S
O578 Co567 2.039 . S
O578 C568 1.265 . S
C579 O575 1.253 . S
C579 O580 1.227 . S
O580 C579 1.227 . S
N581 Co567 2.140 . S
N581 C584 1.346 . S
N581 C585 1.345 . S
C582 C583 1.387 . S
C582 C586 1.391 . S
C583 C582 1.387 . S
C583 C584 1.369 . S
C583 H592 0.929 . S
C584 N581 1.346 . S
C584 C583 1.369 . S
C584 H587 0.928 . S
C585 N581 1.345 . S
C585 C586 1.371 . S
C585 H588 0.931 . S
C586 C582 1.391 . S
C586 C585 1.371 . S
C586 H593 0.930 1_545 S
H587 C584 0.928 . S
H588 C585 0.931 . S
H589 C565 0.930 . S
H590 C562 0.930 . S
H591 C571 0.930 . S
H592 C583 0.929 . S
H593 C586 0.930 1_565 S
C594 C595 1.351 . S
C594 N597 1.368 . S
C594 H599 0.931 . S
C595 C594 1.351 . S
C595 N596 1.373 . S
C595 H623 0.930 . S
N596 C595 1.373 . S
N596 C598 1.340 . S
N597 C594 1.368 . S
N597 C598 1.321 . S
N597 Co600 2.135 . S
C598 N596 1.340 . S
C598 N597 1.321 . S
C598 H622 0.930 . S
H599 C594 0.931 . S
Co600 N597 2.135 . S
Co600 N603 2.121 . S
Co600 O608 2.055 . S
Co600 O611 2.039 . S
Co600 N614 2.140 . S
C601 O602 1.227 . S
C601 O611 1.265 . S
O602 C601 1.227 . S
N603 Co600 2.121 . S
N603 C605 1.375 . S
N603 C606 1.313 . S
C604 C605 1.338 . S
C604 N607 1.377 1_545 S
C604 H624 0.930 . S
C605 N603 1.375 . S
C605 C604 1.338 . S
C605 H609 0.931 . S
C606 N603 1.313 . S
C606 N607 1.344 1_545 S
C606 H610 0.930 1_545 S
N607 C604 1.377 1_565 S
N607 C606 1.344 1_565 S
O608 Co600 2.055 . S
O608 C612 1.253 . S
H609 C605 0.931 . S
H610 C606 0.930 1_565 S
O611 Co600 2.039 . S
O611 C601 1.265 . S
C612 O608 1.253 . S
C612 O613 1.227 . S
O613 C612 1.227 . S
N614 Co600 2.140 . S
N614 C617 1.346 . S
N614 C618 1.345 . S
C615 C616 1.387 . S
C615 C619 1.391 . S
C616 C615 1.387 . S
C616 C617 1.369 . S
C616 H625 0.929 . S
C617 N614 1.346 . S
C617 C616 1.369 . S
C617 H620 0.928 . S
C618 N614 1.345 . S
C618 C619 1.371 . S
C618 H621 0.931 . S
C619 C615 1.391 . S
C619 C618 1.371 . S
C619 H626 0.930 1_545 S
H620 C617 0.928 . S
H621 C618 0.931 . S
H622 C598 0.930 . S
H623 C595 0.930 . S
H624 C604 0.930 . S
H625 C616 0.929 . S
H626 C619 0.930 1_565 S
C627 C628 1.351 . S
C627 N630 1.368 . S
C627 H632 0.931 . S
C628 C627 1.351 . S
C628 N629 1.373 . S
C628 H656 0.930 . S
N629 C628 1.373 . S
N629 C631 1.340 . S
N630 C627 1.368 . S
N630 C631 1.321 . S
N630 Co633 2.135 . S
C631 N629 1.340 . S
C631 N630 1.321 . S
C631 H655 0.930 . S
H632 C627 0.931 . S
Co633 N630 2.135 . S
Co633 N636 2.121 . S
Co633 O641 2.055 . S
Co633 O644 2.039 . S
Co633 N647 2.140 . S
C634 O635 1.227 . S
C634 O644 1.265 . S
O635 C634 1.227 . S
N636 Co633 2.121 . S
N636 C638 1.375 . S
N636 C639 1.313 . S
C637 C638 1.338 . S
C637 N640 1.377 1_655 S
C637 H657 0.930 . S
C638 N636 1.375 . S
C638 C637 1.338 . S
C638 H642 0.931 . S
C639 N636 1.313 . S
C639 N640 1.344 1_655 S
C639 H643 0.930 1_655 S
N640 C637 1.377 1_455 S
N640 C639 1.344 1_455 S
O641 Co633 2.055 . S
O641 C645 1.253 . S
H642 C638 0.931 . S
H643 C639 0.930 1_455 S
O644 Co633 2.039 . S
O644 C634 1.265 . S
C645 O641 1.253 . S
C645 O646 1.227 . S
O646 C645 1.227 . S
N647 Co633 2.140 . S
N647 C650 1.346 . S
N647 C651 1.345 . S
C648 C649 1.387 . S
C648 C652 1.391 . S
C649 C648 1.387 . S
C649 C650 1.369 . S
C649 H658 0.929 . S
C650 N647 1.346 . S
C650 C649 1.369 . S
C650 H653 0.928 . S
C651 N647 1.345 . S
C651 C652 1.371 . S
C651 H654 0.931 . S
C652 C648 1.391 . S
C652 C651 1.371 . S
C652 H659 0.930 1_655 S
H653 C650 0.928 . S
H654 C651 0.931 . S
H655 C631 0.930 . S
H656 C628 0.930 . S
H657 C637 0.930 . S
H658 C649 0.929 . S
H659 C652 0.930 1_455 S
C660 C661 1.351 . S
C660 N663 1.368 . S
C660 H665 0.931 . S
C661 C660 1.351 . S
C661 N662 1.373 . S
C661 H689 0.930 . S
N662 C661 1.373 . S
N662 C664 1.340 . S
N663 C660 1.368 . S
N663 C664 1.321 . S
N663 Co666 2.135 . S
C664 N662 1.340 . S
C664 N663 1.321 . S
C664 H688 0.930 . S
H665 C660 0.931 . S
Co666 N663 2.135 . S
Co666 N669 2.121 . S
Co666 O674 2.055 . S
Co666 O677 2.039 . S
Co666 N680 2.140 . S
C667 O668 1.227 . S
C667 O677 1.265 . S
O668 C667 1.227 . S
N669 Co666 2.121 . S
N669 C671 1.375 . S
N669 C672 1.313 . S
C670 C671 1.338 . S
C670 N673 1.377 . S
C670 H690 0.930 . S
C671 N669 1.375 . S
C671 C670 1.338 . S
C671 H675 0.931 . S
C672 N669 1.313 . S
C672 N673 1.344 . S
C672 H676 0.930 . S
N673 C670 1.377 . S
N673 C672 1.344 . S
O674 Co666 2.055 . S
O674 C678 1.253 . S
H675 C671 0.931 . S
H676 C672 0.930 . S
O677 Co666 2.039 . S
O677 C667 1.265 . S
C678 O674 1.253 . S
C678 O679 1.227 . S
O679 C678 1.227 . S
N680 Co666 2.140 . S
N680 C683 1.346 . S
N680 C684 1.345 . S
C681 C682 1.387 . S
C681 C685 1.391 . S
C682 C681 1.387 . S
C682 C683 1.369 . S
C682 H691 0.929 . S
C683 N680 1.346 . S
C683 C682 1.369 . S
C683 H686 0.928 . S
C684 N680 1.345 . S
C684 C685 1.371 . S
C684 H687 0.931 . S
C685 C681 1.391 . S
C685 C684 1.371 . S
C685 H692 0.930 . S
H686 C683 0.928 . S
H687 C684 0.931 . S
H688 C664 0.930 . S
H689 C661 0.930 . S
H690 C670 0.930 . S
H691 C682 0.929 . S
H692 C685 0.930 . S
C693 C694 1.351 . S
C693 N696 1.368 . S
C693 H698 0.931 . S
C694 C693 1.351 . S
C694 N695 1.373 . S
C694 H722 0.930 . S
N695 C694 1.373 . S
N695 C697 1.340 . S
N696 C693 1.368 . S
N696 C697 1.321 . S
N696 Co699 2.135 . S
C697 N695 1.340 . S
C697 N696 1.321 . S
C697 H721 0.930 . S
H698 C693 0.931 . S
Co699 N696 2.135 . S
Co699 N702 2.121 . S
Co699 O707 2.055 . S
Co699 O710 2.039 . S
Co699 N713 2.140 . S
C700 O701 1.227 . S
C700 O710 1.265 . S
O701 C700 1.227 . S
N702 Co699 2.121 . S
N702 C704 1.375 . S
N702 C705 1.313 . S
C703 C704 1.338 . S
C703 N706 1.377 . S
C703 H723 0.930 . S
C704 N702 1.375 . S
C704 C703 1.338 . S
C704 H708 0.931 . S
C705 N702 1.313 . S
C705 N706 1.344 . S
C705 H709 0.930 . S
N706 C703 1.377 . S
N706 C705 1.344 . S
O707 Co699 2.055 . S
O707 C711 1.253 . S
H708 C704 0.931 . S
H709 C705 0.930 . S
O710 Co699 2.039 . S
O710 C700 1.265 . S
C711 O707 1.253 . S
C711 O712 1.227 . S
O712 C711 1.227 . S
N713 Co699 2.140 . S
N713 C716 1.346 . S
N713 C717 1.345 . S
C714 C715 1.387 . S
C714 C718 1.391 . S
C715 C714 1.387 . S
C715 C716 1.369 . S
C715 H724 0.929 . S
C716 N713 1.346 . S
C716 C715 1.369 . S
C716 H719 0.928 . S
C717 N713 1.345 . S
C717 C718 1.371 . S
C717 H720 0.931 . S
C718 C714 1.391 . S
C718 C717 1.371 . S
C718 H725 0.930 . S
H719 C716 0.928 . S
H720 C717 0.931 . S
H721 C697 0.930 . S
H722 C694 0.930 . S
H723 C703 0.930 . S
H724 C715 0.929 . S
H725 C718 0.930 . S
C726 C727 1.351 . S
C726 N729 1.368 . S
C726 H731 0.931 . S
C727 C726 1.351 . S
C727 N728 1.373 . S
C727 H755 0.930 . S
N728 C727 1.373 . S
N728 C730 1.340 . S
N729 C726 1.368 . S
N729 C730 1.321 . S
N729 Co732 2.135 . S
C730 N728 1.340 . S
C730 N729 1.321 . S
C730 H754 0.930 . S
H731 C726 0.931 . S
Co732 N729 2.135 . S
Co732 N735 2.121 . S
Co732 O740 2.055 . S
Co732 O743 2.039 . S
Co732 N746 2.140 . S
C733 O734 1.227 . S
C733 O743 1.265 . S
O734 C733 1.227 . S
N735 Co732 2.121 . S
N735 C737 1.375 . S
N735 C738 1.313 . S
C736 C737 1.338 . S
C736 N739 1.377 . S
C736 H756 0.941 . S
C737 N735 1.375 . S
C737 C736 1.338 . S
C737 H741 0.931 . S
C738 N735 1.313 . S
C738 N739 1.344 . S
C738 H742 0.930 . S
N739 C736 1.377 . S
N739 C738 1.344 . S
O740 Co732 2.055 . S
O740 C744 1.253 . S
H741 C737 0.931 . S
H742 C738 0.930 . S
O743 Co732 2.039 . S
O743 C733 1.265 . S
C744 O740 1.253 . S
C744 O745 1.227 . S
O745 C744 1.227 . S
N746 Co732 2.140 . S
N746 C749 1.346 . S
N746 C750 1.345 . S
C747 C748 1.387 . S
C747 C751 1.391 . S
C748 C747 1.387 . S
C748 C749 1.369 . S
C748 H757 0.929 . S
C749 N746 1.346 . S
C749 C748 1.369 . S
C749 H752 0.928 . S
C750 N746 1.345 . S
C750 C751 1.371 . S
C750 H753 0.931 . S
C751 C747 1.391 . S
C751 C750 1.371 . S
C751 H758 0.930 . S
H752 C749 0.928 . S
H753 C750 0.931 . S
H754 C730 0.930 . S
H755 C727 0.930 . S
H756 C736 0.941 . S
H757 C748 0.929 . S
H758 C751 0.930 . S
C759 C760 1.351 . S
C759 N762 1.368 . S
C759 H764 0.931 . S
C760 C759 1.351 . S
C760 N761 1.373 . S
C760 H788 0.930 . S
N761 C760 1.373 . S
N761 C763 1.340 . S
N762 C759 1.368 . S
N762 C763 1.321 . S
N762 Co765 2.135 . S
C763 N761 1.340 . S
C763 N762 1.321 . S
C763 H787 0.930 . S
H764 C759 0.931 . S
Co765 N762 2.135 . S
Co765 N768 2.121 . S
Co765 O773 2.055 . S
Co765 O776 2.039 . S
Co765 N779 2.140 . S
C766 O767 1.227 . S
C766 O776 1.265 . S
O767 C766 1.227 . S
N768 Co765 2.121 . S
N768 C770 1.375 . S
N768 C771 1.313 . S
C769 C770 1.338 . S
C769 N772 1.377 . S
C769 H789 0.953 . S
C770 N768 1.375 . S
C770 C769 1.338 . S
C770 H774 0.931 . S
C771 N768 1.313 . S
C771 N772 1.344 . S
C771 H775 0.930 . S
N772 C769 1.377 . S
N772 C771 1.344 . S
O773 Co765 2.055 . S
O773 C777 1.253 . S
H774 C770 0.931 . S
H775 C771 0.930 . S
O776 Co765 2.039 . S
O776 C766 1.265 . S
C777 O773 1.253 . S
C777 O778 1.227 . S
O778 C777 1.227 . S
N779 Co765 2.140 . S
N779 C782 1.346 . S
N779 C783 1.345 . S
C780 C781 1.387 . S
C780 C784 1.391 . S
C781 C780 1.387 . S
C781 C782 1.369 . S
C781 H790 0.929 . S
C782 N779 1.346 . S
C782 C781 1.369 . S
C782 H785 0.928 . S
C783 N779 1.345 . S
C783 C784 1.371 . S
C783 H786 0.931 . S
C784 C780 1.391 . S
C784 C783 1.371 . S
C784 H791 0.930 . S
H785 C782 0.928 . S
H786 C783 0.931 . S
H787 C763 0.930 . S
H788 C760 0.930 . S
H789 C769 0.953 . S
H790 C781 0.929 . S
H791 C784 0.930 . S
C792 C793 1.351 . S
C792 N795 1.368 . S
C792 H797 0.931 . S
C793 C792 1.351 . S
C793 N794 1.373 . S
C793 H821 0.930 . S
N794 C793 1.373 . S
N794 C796 1.340 . S
N795 C792 1.368 . S
N795 C796 1.321 . S
N795 Co798 2.135 . S
C796 N794 1.340 . S
C796 N795 1.321 . S
C796 H820 0.930 . S
H797 C792 0.931 . S
Co798 N795 2.135 . S
Co798 N801 2.121 . S
Co798 O806 2.055 . S
Co798 O809 2.039 . S
Co798 N812 2.140 . S
C799 O800 1.227 . S
C799 O809 1.265 . S
O800 C799 1.227 . S
N801 Co798 2.121 . S
N801 C803 1.375 . S
N801 C804 1.313 . S
C802 C803 1.338 . S
C802 N805 1.377 1_565 S
C802 H822 0.930 . S
C803 N801 1.375 . S
C803 C802 1.338 . S
C803 H807 0.931 . S
C804 N801 1.313 . S
C804 N805 1.344 1_565 S
C804 H808 0.930 1_565 S
N805 C802 1.377 1_545 S
N805 C804 1.344 1_545 S
O806 Co798 2.055 . S
O806 C810 1.253 . S
H807 C803 0.931 . S
H808 C804 0.930 1_545 S
O809 Co798 2.039 . S
O809 C799 1.265 . S
C810 O806 1.253 . S
C810 O811 1.227 . S
O811 C810 1.227 . S
N812 Co798 2.140 . S
N812 C815 1.346 . S
N812 C816 1.345 . S
C813 C814 1.387 . S
C813 C817 1.391 . S
C814 C813 1.387 . S
C814 C815 1.369 . S
C814 H823 0.929 . S
C815 N812 1.346 . S
C815 C814 1.369 . S
C815 H818 0.928 . S
C816 N812 1.345 . S
C816 C817 1.371 . S
C816 H819 0.931 . S
C817 C813 1.391 . S
C817 C816 1.371 . S
C817 H824 0.930 1_565 S
H818 C815 0.928 . S
H819 C816 0.931 . S
H820 C796 0.930 . S
H821 C793 0.930 . S
H822 C802 0.930 . S
H823 C814 0.929 . S
H824 C817 0.930 1_545 S
C825 C826 1.351 . S
C825 N828 1.368 . S
C825 H830 0.931 . S
C826 C825 1.351 . S
C826 N827 1.373 . S
C826 H854 0.930 . S
N827 C826 1.373 . S
N827 C829 1.340 . S
N828 C825 1.368 . S
N828 C829 1.321 . S
N828 Co831 2.135 . S
C829 N827 1.340 . S
C829 N828 1.321 . S
C829 H853 0.930 . S
H830 C825 0.931 . S
Co831 N828 2.135 . S
Co831 N834 2.121 . S
Co831 O839 2.055 . S
Co831 O842 2.039 . S
Co831 N845 2.140 . S
C832 O833 1.227 . S
C832 O842 1.265 . S
O833 C832 1.227 . S
N834 Co831 2.121 . S
N834 C836 1.375 . S
N834 C837 1.313 . S
C835 C836 1.338 . S
C835 N838 1.377 1_455 S
C835 H855 0.930 . S
C836 N834 1.375 . S
C836 C835 1.338 . S
C836 H840 0.931 . S
C837 N834 1.313 . S
C837 N838 1.344 1_455 S
C837 H841 0.930 1_455 S
N838 C835 1.377 1_655 S
N838 C837 1.344 1_655 S
O839 Co831 2.055 . S
O839 C843 1.253 . S
H840 C836 0.931 . S
H841 C837 0.930 1_655 S
O842 Co831 2.039 . S
O842 C832 1.265 . S
C843 O839 1.253 . S
C843 O844 1.227 . S
O844 C843 1.227 . S
N845 Co831 2.140 . S
N845 C848 1.346 . S
N845 C849 1.345 . S
C846 C847 1.387 . S
C846 C850 1.391 . S
C847 C846 1.387 . S
C847 C848 1.369 . S
C847 H856 0.929 . S
C848 N845 1.346 . S
C848 C847 1.369 . S
C848 H851 0.928 . S
C849 N845 1.345 . S
C849 C850 1.371 . S
C849 H852 0.931 . S
C850 C846 1.391 . S
C850 C849 1.371 . S
C850 H857 0.930 1_455 S
H851 C848 0.928 . S
H852 C849 0.931 . S
H853 C829 0.930 . S
H854 C826 0.930 . S
H855 C835 0.930 . S
H856 C847 0.929 . S
H857 C850 0.930 1_655 S
C858 C859 1.351 . S
C858 N861 1.368 . S
C858 H863 0.931 . S
C859 C858 1.351 . S
C859 N860 1.373 . S
C859 H887 0.930 . S
N860 C859 1.373 . S
N860 C862 1.340 . S
N861 C858 1.368 . S
N861 C862 1.321 . S
N861 Co864 2.135 . S
C862 N860 1.340 . S
C862 N861 1.321 . S
C862 H886 0.930 . S
H863 C858 0.931 . S
Co864 N861 2.135 . S
Co864 N867 2.121 . S
Co864 O872 2.055 . S
Co864 O875 2.039 . S
Co864 N878 2.140 . S
C865 O866 1.227 . S
C865 O875 1.265 . S
O866 C865 1.227 . S
N867 Co864 2.121 . S
N867 C869 1.375 . S
N867 C870 1.313 . S
C868 C869 1.338 . S
C868 N871 1.377 . S
C868 H888 0.930 . S
C869 N867 1.375 . S
C869 C868 1.338 . S
C869 H873 0.931 . S
C870 N867 1.313 . S
C870 N871 1.344 . S
C870 H874 0.930 . S
N871 C868 1.377 . S
N871 C870 1.344 . S
O872 Co864 2.055 . S
O872 C876 1.253 . S
H873 C869 0.931 . S
H874 C870 0.930 . S
O875 Co864 2.039 . S
O875 C865 1.265 . S
C876 O872 1.253 . S
C876 O877 1.227 . S
O877 C876 1.227 . S
N878 Co864 2.140 . S
N878 C881 1.346 . S
N878 C882 1.345 . S
C879 C880 1.387 . S
C879 C883 1.391 . S
C880 C879 1.387 . S
C880 C881 1.369 . S
C880 H889 0.929 . S
C881 N878 1.346 . S
C881 C880 1.369 . S
C881 H884 0.928 . S
C882 N878 1.345 . S
C882 C883 1.371 . S
C882 H885 0.931 . S
C883 C879 1.391 . S
C883 C882 1.371 . S
C883 H890 0.930 . S
H884 C881 0.928 . S
H885 C882 0.931 . S
H886 C862 0.930 . S
H887 C859 0.930 . S
H888 C868 0.930 . S
H889 C880 0.929 . S
H890 C883 0.930 . S
C891 C892 1.351 . S
C891 N894 1.368 . S
C891 H896 0.931 . S
C892 C891 1.351 . S
C892 N893 1.373 . S
C892 H920 0.930 . S
N893 C892 1.373 . S
N893 C895 1.340 . S
N894 C891 1.368 . S
N894 C895 1.321 . S
N894 Co897 2.135 . S
C895 N893 1.340 . S
C895 N894 1.321 . S
C895 H919 0.930 . S
H896 C891 0.931 . S
Co897 N894 2.135 . S
Co897 N900 2.121 . S
Co897 O905 2.055 . S
Co897 O908 2.039 . S
Co897 N911 2.140 . S
C898 O899 1.227 . S
C898 O908 1.265 . S
O899 C898 1.227 . S
N900 Co897 2.121 . S
N900 C902 1.375 . S
N900 C903 1.313 . S
C901 C902 1.338 . S
C901 N904 1.377 . S
C901 H921 0.930 . S
C902 N900 1.375 . S
C902 C901 1.338 . S
C902 H906 0.931 . S
C903 N900 1.313 . S
C903 N904 1.344 . S
C903 H907 0.930 . S
N904 C901 1.377 . S
N904 C903 1.344 . S
O905 Co897 2.055 . S
O905 C909 1.253 . S
H906 C902 0.931 . S
H907 C903 0.930 . S
O908 Co897 2.039 . S
O908 C898 1.265 . S
C909 O905 1.253 . S
C909 O910 1.227 . S
O910 C909 1.227 . S
N911 Co897 2.140 . S
N911 C914 1.346 . S
N911 C915 1.345 . S
C912 C913 1.387 . S
C912 C916 1.391 . S
C913 C912 1.387 . S
C913 C914 1.369 . S
C913 H922 0.929 . S
C914 N911 1.346 . S
C914 C913 1.369 . S
C914 H917 0.928 . S
C915 N911 1.345 . S
C915 C916 1.371 . S
C915 H918 0.931 . S
C916 C912 1.391 . S
C916 C915 1.371 . S
C916 H923 0.930 . S
H917 C914 0.928 . S
H918 C915 0.931 . S
H919 C895 0.930 . S
H920 C892 0.930 . S
H921 C901 0.930 . S
H922 C913 0.929 . S
H923 C916 0.930 . S
C924 C925 1.351 . S
C924 N927 1.368 . S
C924 H929 0.931 . S
C925 C924 1.351 . S
C925 N926 1.373 . S
C925 H953 0.930 . S
N926 C925 1.373 . S
N926 C928 1.340 . S
N927 C924 1.368 . S
N927 C928 1.321 . S
N927 Co930 2.135 . S
C928 N926 1.340 . S
C928 N927 1.321 . S
C928 H952 0.930 . S
H929 C924 0.931 . S
Co930 N927 2.135 . S
Co930 N933 2.121 . S
Co930 O938 2.055 . S
Co930 O941 2.039 . S
Co930 N944 2.140 . S
C931 O932 1.227 . S
C931 O941 1.265 . S
O932 C931 1.227 . S
N933 Co930 2.121 . S
N933 C935 1.375 . S
N933 C936 1.313 . S
C934 C935 1.338 . S
C934 N937 1.377 . S
C934 H954 0.941 . S
C935 N933 1.375 . S
C935 C934 1.338 . S
C935 H939 0.931 . S
C936 N933 1.313 . S
C936 N937 1.344 . S
C936 H940 0.930 . S
N937 C934 1.377 . S
N937 C936 1.344 . S
O938 Co930 2.055 . S
O938 C942 1.253 . S
H939 C935 0.931 . S
H940 C936 0.930 . S
O941 Co930 2.039 . S
O941 C931 1.265 . S
C942 O938 1.253 . S
C942 O943 1.227 . S
O943 C942 1.227 . S
N944 Co930 2.140 . S
N944 C947 1.346 . S
N944 C948 1.345 . S
C945 C946 1.387 . S
C945 C949 1.391 . S
C946 C945 1.387 . S
C946 C947 1.369 . S
C946 H955 0.929 . S
C947 N944 1.346 . S
C947 C946 1.369 . S
C947 H950 0.928 . S
C948 N944 1.345 . S
C948 C949 1.371 . S
C948 H951 0.931 . S
C949 C945 1.391 . S
C949 C948 1.371 . S
C949 H956 0.930 . S
H950 C947 0.928 . S
H951 C948 0.931 . S
H952 C928 0.930 . S
H953 C925 0.930 . S
H954 C934 0.941 . S
H955 C946 0.929 . S
H956 C949 0.930 . S
C957 C958 1.351 . S
C957 N960 1.368 . S
C957 H962 0.931 . S
C958 C957 1.351 . S
C958 N959 1.373 . S
C958 H986 0.930 . S
N959 C958 1.373 . S
N959 C961 1.340 . S
N960 C957 1.368 . S
N960 C961 1.321 . S
N960 Co963 2.135 . S
C961 N959 1.340 . S
C961 N960 1.321 . S
C961 H985 0.930 . S
H962 C957 0.931 . S
Co963 N960 2.135 . S
Co963 N966 2.121 . S
Co963 O971 2.055 . S
Co963 O974 2.039 . S
Co963 N977 2.140 . S
C964 O965 1.227 . S
C964 O974 1.265 . S
O965 C964 1.227 . S
N966 Co963 2.121 . S
N966 C968 1.375 . S
N966 C969 1.313 . S
C967 C968 1.338 . S
C967 N970 1.377 . S
C967 H987 0.953 . S
C968 N966 1.375 . S
C968 C967 1.338 . S
C968 H972 0.931 . S
C969 N966 1.313 . S
C969 N970 1.344 . S
C969 H973 0.930 . S
N970 C967 1.377 . S
N970 C969 1.344 . S
O971 Co963 2.055 . S
O971 C975 1.253 . S
H972 C968 0.931 . S
H973 C969 0.930 . S
O974 Co963 2.039 . S
O974 C964 1.265 . S
C975 O971 1.253 . S
C975 O976 1.227 . S
O976 C975 1.227 . S
N977 Co963 2.140 . S
N977 C980 1.346 . S
N977 C981 1.345 . S
C978 C979 1.387 . S
C978 C982 1.391 . S
C979 C978 1.387 . S
C979 C980 1.369 . S
C979 H988 0.929 . S
C980 N977 1.346 . S
C980 C979 1.369 . S
C980 H983 0.928 . S
C981 N977 1.345 . S
C981 C982 1.371 . S
C981 H984 0.931 . S
C982 C978 1.391 . S
C982 C981 1.371 . S
C982 H989 0.930 . S
H983 C980 0.928 . S
H984 C981 0.931 . S
H985 C961 0.930 . S
H986 C958 0.930 . S
H987 C967 0.953 . S
H988 C979 0.929 . S
H989 C982 0.930 . S
C990 C991 1.351 . S
C990 N993 1.368 . S
C990 H995 0.931 . S
C991 C990 1.351 . S
C991 N992 1.373 . S
C991 H1019 0.930 . S
N992 C991 1.373 . S
N992 C994 1.340 . S
N993 C990 1.368 . S
N993 C994 1.321 . S
N993 Co996 2.135 . S
C994 N992 1.340 . S
C994 N993 1.321 . S
C994 H1018 0.930 . S
H995 C990 0.931 . S
Co996 N993 2.135 . S
Co996 N999 2.121 . S
Co996 O1004 2.055 . S
Co996 O1007 2.039 . S
Co996 N1010 2.140 . S
C997 O998 1.227 . S
C997 O1007 1.265 . S
O998 C997 1.227 . S
N999 Co996 2.121 . S
N999 C1001 1.375 . S
N999 C1002 1.313 . S
C1000 C1001 1.338 . S
C1000 N1003 1.377 . S
C1000 H1020 0.930 . S
C1001 N999 1.375 . S
C1001 C1000 1.338 . S
C1001 H1005 0.931 . S
C1002 N999 1.313 . S
C1002 N1003 1.344 . S
C1002 H1006 0.930 . S
N1003 C1000 1.377 . S
N1003 C1002 1.344 . S
O1004 Co996 2.055 . S
O1004 C1008 1.253 . S
H1005 C1001 0.931 . S
H1006 C1002 0.930 . S
O1007 Co996 2.039 . S
O1007 C997 1.265 . S
C1008 O1004 1.253 . S
C1008 O1009 1.227 . S
O1009 C1008 1.227 . S
N1010 Co996 2.140 . S
N1010 C1013 1.346 . S
N1010 C1014 1.345 . S
C1011 C1012 1.387 . S
C1011 C1015 1.391 . S
C1012 C1011 1.387 . S
C1012 C1013 1.369 . S
C1012 H1021 0.929 . S
C1013 N1010 1.346 . S
C1013 C1012 1.369 . S
C1013 H1016 0.928 . S
C1014 N1010 1.345 . S
C1014 C1015 1.371 . S
C1014 H1017 0.931 . S
C1015 C1011 1.391 . S
C1015 C1014 1.371 . S
C1015 H1022 0.930 . S
H1016 C1013 0.928 . S
H1017 C1014 0.931 . S
H1018 C994 0.930 . S
H1019 C991 0.930 . S
H1020 C1000 0.930 . S
H1021 C1012 0.929 . S
H1022 C1015 0.930 . S
C1023 C1024 1.351 . S
C1023 N1026 1.368 . S
C1023 H1028 0.931 . S
C1024 C1023 1.351 . S
C1024 N1025 1.373 . S
C1024 H1052 0.930 . S
N1025 C1024 1.373 . S
N1025 C1027 1.340 . S
N1026 C1023 1.368 . S
N1026 C1027 1.321 . S
N1026 Co1029 2.135 . S
C1027 N1025 1.340 . S
C1027 N1026 1.321 . S
C1027 H1051 0.930 . S
H1028 C1023 0.931 . S
Co1029 N1026 2.135 . S
Co1029 N1032 2.121 . S
Co1029 O1037 2.055 . S
Co1029 O1040 2.039 . S
Co1029 N1043 2.140 . S
C1030 O1031 1.227 . S
C1030 O1040 1.265 . S
O1031 C1030 1.227 . S
N1032 Co1029 2.121 . S
N1032 C1034 1.375 . S
N1032 C1035 1.313 . S
C1033 C1034 1.338 . S
C1033 N1036 1.377 . S
C1033 H1053 0.953 . S
C1034 N1032 1.375 . S
C1034 C1033 1.338 . S
C1034 H1038 0.931 . S
C1035 N1032 1.313 . S
C1035 N1036 1.344 . S
C1035 H1039 0.930 . S
N1036 C1033 1.377 . S
N1036 C1035 1.344 . S
O1037 Co1029 2.055 . S
O1037 C1041 1.253 . S
H1038 C1034 0.931 . S
H1039 C1035 0.930 . S
O1040 Co1029 2.039 . S
O1040 C1030 1.265 . S
C1041 O1037 1.253 . S
C1041 O1042 1.227 . S
O1042 C1041 1.227 . S
N1043 Co1029 2.140 . S
N1043 C1046 1.346 . S
N1043 C1047 1.345 . S
C1044 C1045 1.387 . S
C1044 C1048 1.391 . S
C1045 C1044 1.387 . S
C1045 C1046 1.369 . S
C1045 H1054 0.929 . S
C1046 N1043 1.346 . S
C1046 C1045 1.369 . S
C1046 H1049 0.928 . S
C1047 N1043 1.345 . S
C1047 C1048 1.371 . S
C1047 H1050 0.931 . S
C1048 C1044 1.391 . S
C1048 C1047 1.371 . S
C1048 H1055 0.930 . S
H1049 C1046 0.928 . S
H1050 C1047 0.931 . S
H1051 C1027 0.930 . S
H1052 C1024 0.930 . S
H1053 C1033 0.953 . S
H1054 C1045 0.929 . S
H1055 C1048 0.930 . S
C1056 C1057 1.351 . S
C1056 N1059 1.368 . S
C1056 H1061 0.931 . S
C1057 C1056 1.351 . S
C1057 N1058 1.373 . S
C1057 H1085 0.930 . S
N1058 C1057 1.373 . S
N1058 C1060 1.340 . S
N1059 C1056 1.368 . S
N1059 C1060 1.321 . S
N1059 Co1062 2.135 . S
C1060 N1058 1.340 . S
C1060 N1059 1.321 . S
C1060 H1084 0.930 . S
H1061 C1056 0.931 . S
Co1062 N1059 2.135 . S
Co1062 N1065 2.121 . S
Co1062 O1070 2.055 . S
Co1062 O1073 2.039 . S
Co1062 N1076 2.140 . S
C1063 O1064 1.227 . S
C1063 O1073 1.265 . S
O1064 C1063 1.227 . S
N1065 Co1062 2.121 . S
N1065 C1067 1.375 . S
N1065 C1068 1.313 . S
C1066 C1067 1.338 . S
C1066 N1069 1.377 . S
C1066 H1086 0.941 . S
C1067 N1065 1.375 . S
C1067 C1066 1.338 . S
C1067 H1071 0.931 . S
C1068 N1065 1.313 . S
C1068 N1069 1.344 . S
C1068 H1072 0.930 . S
N1069 C1066 1.377 . S
N1069 C1068 1.344 . S
O1070 Co1062 2.055 . S
O1070 C1074 1.253 . S
H1071 C1067 0.931 . S
H1072 C1068 0.930 . S
O1073 Co1062 2.039 . S
O1073 C1063 1.265 . S
C1074 O1070 1.253 . S
C1074 O1075 1.227 . S
O1075 C1074 1.227 . S
N1076 Co1062 2.140 . S
N1076 C1079 1.346 . S
N1076 C1080 1.345 . S
C1077 C1078 1.387 . S
C1077 C1081 1.391 . S
C1078 C1077 1.387 . S
C1078 C1079 1.369 . S
C1078 H1087 0.929 . S
C1079 N1076 1.346 . S
C1079 C1078 1.369 . S
C1079 H1082 0.928 . S
C1080 N1076 1.345 . S
C1080 C1081 1.371 . S
C1080 H1083 0.931 . S
C1081 C1077 1.391 . S
C1081 C1080 1.371 . S
C1081 H1088 0.930 . S
H1082 C1079 0.928 . S
H1083 C1080 0.931 . S
H1084 C1060 0.930 . S
H1085 C1057 0.930 . S
H1086 C1066 0.941 . S
H1087 C1078 0.929 . S
H1088 C1081 0.930 . S
C1089 C1090 1.351 . S
C1089 N1092 1.368 . S
C1089 H1094 0.931 . S
C1090 C1089 1.351 . S
C1090 N1091 1.373 . S
C1090 H1118 0.930 . S
N1091 C1090 1.373 . S
N1091 C1093 1.340 . S
N1092 C1089 1.368 . S
N1092 C1093 1.321 . S
N1092 Co1095 2.135 . S
C1093 N1091 1.340 . S
C1093 N1092 1.321 . S
C1093 H1117 0.930 . S
H1094 C1089 0.931 . S
Co1095 N1092 2.135 . S
Co1095 N1098 2.121 . S
Co1095 O1103 2.055 . S
Co1095 O1106 2.039 . S
Co1095 N1109 2.140 . S
C1096 O1097 1.227 . S
C1096 O1106 1.265 . S
O1097 C1096 1.227 . S
N1098 Co1095 2.121 . S
N1098 C1100 1.375 . S
N1098 C1101 1.313 . S
C1099 C1100 1.338 . S
C1099 N1102 1.377 1_455 S
C1099 H1119 0.930 . S
C1100 N1098 1.375 . S
C1100 C1099 1.338 . S
C1100 H1104 0.931 . S
C1101 N1098 1.313 . S
C1101 N1102 1.344 1_455 S
C1101 H1105 0.930 1_455 S
N1102 C1099 1.377 1_655 S
N1102 C1101 1.344 1_655 S
O1103 Co1095 2.055 . S
O1103 C1107 1.253 . S
H1104 C1100 0.931 . S
H1105 C1101 0.930 1_655 S
O1106 Co1095 2.039 . S
O1106 C1096 1.265 . S
C1107 O1103 1.253 . S
C1107 O1108 1.227 . S
O1108 C1107 1.227 . S
N1109 Co1095 2.140 . S
N1109 C1112 1.346 . S
N1109 C1113 1.345 . S
C1110 C1111 1.387 . S
C1110 C1114 1.391 . S
C1111 C1110 1.387 . S
C1111 C1112 1.369 . S
C1111 H1120 0.929 . S
C1112 N1109 1.346 . S
C1112 C1111 1.369 . S
C1112 H1115 0.928 . S
C1113 N1109 1.345 . S
C1113 C1114 1.371 . S
C1113 H1116 0.931 . S
C1114 C1110 1.391 . S
C1114 C1113 1.371 . S
C1114 H1121 0.930 1_455 S
H1115 C1112 0.928 . S
H1116 C1113 0.931 . S
H1117 C1093 0.930 . S
H1118 C1090 0.930 . S
H1119 C1099 0.930 . S
H1120 C1111 0.929 . S
H1121 C1114 0.930 1_655 S
C1122 C1123 1.351 . S
C1122 N1125 1.368 . S
C1122 H1127 0.931 . S
C1123 C1122 1.351 . S
C1123 N1124 1.373 . S
C1123 H1151 0.930 . S
N1124 C1123 1.373 . S
N1124 C1126 1.340 . S
N1125 C1122 1.368 . S
N1125 C1126 1.321 . S
N1125 Co1128 2.135 . S
C1126 N1124 1.340 . S
C1126 N1125 1.321 . S
C1126 H1150 0.930 . S
H1127 C1122 0.931 . S
Co1128 N1125 2.135 . S
Co1128 N1131 2.121 . S
Co1128 O1136 2.055 . S
Co1128 O1139 2.039 . S
Co1128 N1142 2.140 . S
C1129 O1130 1.227 . S
C1129 O1139 1.265 . S
O1130 C1129 1.227 . S
N1131 Co1128 2.121 . S
N1131 C1133 1.375 . S
N1131 C1134 1.313 . S
C1132 C1133 1.338 . S
C1132 N1135 1.377 . S
C1132 H1152 0.930 . S
C1133 N1131 1.375 . S
C1133 C1132 1.338 . S
C1133 H1137 0.931 . S
C1134 N1131 1.313 . S
C1134 N1135 1.344 . S
C1134 H1138 0.930 . S
N1135 C1132 1.377 . S
N1135 C1134 1.344 . S
O1136 Co1128 2.055 . S
O1136 C1140 1.253 . S
H1137 C1133 0.931 . S
H1138 C1134 0.930 . S
O1139 Co1128 2.039 . S
O1139 C1129 1.265 . S
C1140 O1136 1.253 . S
C1140 O1141 1.227 . S
O1141 C1140 1.227 . S
N1142 Co1128 2.140 . S
N1142 C1145 1.346 . S
N1142 C1146 1.345 . S
C1143 C1144 1.387 . S
C1143 C1147 1.391 . S
C1144 C1143 1.387 . S
C1144 C1145 1.369 . S
C1144 H1153 0.929 . S
C1145 N1142 1.346 . S
C1145 C1144 1.369 . S
C1145 H1148 0.928 . S
C1146 N1142 1.345 . S
C1146 C1147 1.371 . S
C1146 H1149 0.931 . S
C1147 C1143 1.391 . S
C1147 C1146 1.371 . S
C1147 H1154 0.930 . S
H1148 C1145 0.928 . S
H1149 C1146 0.931 . S
H1150 C1126 0.930 . S
H1151 C1123 0.930 . S
H1152 C1132 0.930 . S
H1153 C1144 0.929 . S
H1154 C1147 0.930 . S
C1155 C1156 1.351 . S
C1155 N1158 1.368 . S
C1155 H1160 0.931 . S
C1156 C1155 1.351 . S
C1156 N1157 1.373 . S
C1156 H1184 0.930 . S
N1157 C1156 1.373 . S
N1157 C1159 1.340 . S
N1158 C1155 1.368 . S
N1158 C1159 1.321 . S
N1158 Co1161 2.135 . S
C1159 N1157 1.340 . S
C1159 N1158 1.321 . S
C1159 H1183 0.930 . S
H1160 C1155 0.931 . S
Co1161 N1158 2.135 . S
Co1161 N1164 2.121 . S
Co1161 O1169 2.055 . S
Co1161 O1172 2.039 . S
Co1161 N1175 2.140 . S
C1162 O1163 1.227 . S
C1162 O1172 1.265 . S
O1163 C1162 1.227 . S
N1164 Co1161 2.121 . S
N1164 C1166 1.375 . S
N1164 C1167 1.313 . S
C1165 C1166 1.338 . S
C1165 N1168 1.377 1_565 S
C1165 H1185 0.930 . S
C1166 N1164 1.375 . S
C1166 C1165 1.338 . S
C1166 H1170 0.931 . S
C1167 N1164 1.313 . S
C1167 N1168 1.344 1_565 S
C1167 H1171 0.930 1_565 S
N1168 C1165 1.377 1_545 S
N1168 C1167 1.344 1_545 S
O1169 Co1161 2.055 . S
O1169 C1173 1.253 . S
H1170 C1166 0.931 . S
H1171 C1167 0.930 1_545 S
O1172 Co1161 2.039 . S
O1172 C1162 1.265 . S
C1173 O1169 1.253 . S
C1173 O1174 1.227 . S
O1174 C1173 1.227 . S
N1175 Co1161 2.140 . S
N1175 C1178 1.346 . S
N1175 C1179 1.345 . S
C1176 C1177 1.387 . S
C1176 C1180 1.391 . S
C1177 C1176 1.387 . S
C1177 C1178 1.369 . S
C1177 H1186 0.929 . S
C1178 N1175 1.346 . S
C1178 C1177 1.369 . S
C1178 H1181 0.928 . S
C1179 N1175 1.345 . S
C1179 C1180 1.371 . S
C1179 H1182 0.931 . S
C1180 C1176 1.391 . S
C1180 C1179 1.371 . S
C1180 H1187 0.930 1_565 S
H1181 C1178 0.928 . S
H1182 C1179 0.931 . S
H1183 C1159 0.930 . S
H1184 C1156 0.930 . S
H1185 C1165 0.930 . S
H1186 C1177 0.929 . S
H1187 C1180 0.930 1_545 S
H1188 C1194 0.930 . S
H1189 C1197 0.930 . S
H1190 C1198 0.930 . S
H1191 C1199 0.930 . S
H1192 C1202 0.930 1_565 S
H1193 C1203 0.930 . S
C1194 H1188 0.930 . S
C1194 C1195 1.355 . S
C1194 C1196 1.415 . S
C1195 C1194 1.355 . S
C1195 C1197 1.419 . S
C1196 C1194 1.415 . S
C1196 C1201 1.425 . S
C1196 C1203 1.409 . S
C1197 H1189 0.930 . S
C1197 C1195 1.419 . S
C1197 C1198 1.362 . S
C1198 H1190 0.930 . S
C1198 C1197 1.362 . S
C1198 C1201 1.409 . S
C1199 H1191 0.930 . S
C1199 C1200 1.355 . S
C1199 C1201 1.415 . S
C1200 C1199 1.355 . S
C1200 C1202 1.419 . S
C1201 C1196 1.425 . S
C1201 C1198 1.409 . S
C1201 C1199 1.415 . S
C1202 H1192 0.930 1_545 S
C1202 C1200 1.419 . S
C1202 C1203 1.362 . S
C1203 H1193 0.930 . S
C1203 C1196 1.409 . S
C1203 C1202 1.362 . S
H1204 C1210 0.931 . S
H1205 C1213 0.930 . S
H1206 C1214 0.930 . S
H1207 C1215 0.930 . S
H1208 C1218 0.930 . S
H1209 C1219 0.930 . S
C1210 H1204 0.931 . S
C1210 C1211 1.355 . S
C1210 C1212 1.415 . S
C1211 C1210 1.355 . S
C1211 C1213 1.419 . S
C1212 C1210 1.415 . S
C1212 C1217 1.425 . S
C1212 C1219 1.409 . S
C1213 H1205 0.930 . S
C1213 C1211 1.419 . S
C1213 C1214 1.362 . S
C1214 H1206 0.930 . S
C1214 C1213 1.362 . S
C1214 C1217 1.409 . S
C1215 H1207 0.930 . S
C1215 C1216 1.355 1_545 S
C1215 C1217 1.415 . S
C1216 C1215 1.355 1_565 S
C1216 C1218 1.419 . S
C1217 C1212 1.425 . S
C1217 C1214 1.409 . S
C1217 C1215 1.415 . S
C1218 H1208 0.930 . S
C1218 C1216 1.419 . S
C1218 C1219 1.362 1_565 S
C1219 H1209 0.930 . S
C1219 C1212 1.409 . S
C1219 C1218 1.362 1_545 S
H1220 C1226 0.930 . S
H1221 C1229 0.930 . S
H1222 C1230 0.930 . S
H1223 C1231 0.930 . S
H1224 C1234 0.930 . S
H1225 C1235 0.930 . S
C1226 H1220 0.930 . S
C1226 C1227 1.355 . S
C1226 C1228 1.415 . S
C1227 C1226 1.355 . S
C1227 C1229 1.419 . S
C1228 C1226 1.415 . S
C1228 C1233 1.425 . S
C1228 C1235 1.409 . S
C1229 H1221 0.930 . S
C1229 C1227 1.419 . S
C1229 C1230 1.362 . S
C1230 H1222 0.930 . S
C1230 C1229 1.362 . S
C1230 C1233 1.409 . S
C1231 H1223 0.930 . S
C1231 C1232 1.355 1_655 S
C1231 C1233 1.415 . S
C1232 C1231 1.355 1_455 S
C1232 C1234 1.419 . S
C1233 C1228 1.425 . S
C1233 C1230 1.409 . S
C1233 C1231 1.415 . S
C1234 H1224 0.930 . S
C1234 C1232 1.419 . S
C1234 C1235 1.362 1_455 S
C1235 H1225 0.930 . S
C1235 C1228 1.409 . S
C1235 C1234 1.362 1_655 S
H1236 C1242 0.930 . S
H1237 C1245 0.930 . S
H1238 C1246 0.930 . S
H1239 C1247 0.930 . S
H1240 C1250 0.930 . S
H1241 C1251 0.930 . S
C1242 H1236 0.930 . S
C1242 C1243 1.355 . S
C1242 C1244 1.415 . S
C1243 C1242 1.355 . S
C1243 C1245 1.419 . S
C1244 C1242 1.415 . S
C1244 C1249 1.425 . S
C1244 C1251 1.409 . S
C1245 H1237 0.930 . S
C1245 C1243 1.419 . S
C1245 C1246 1.362 . S
C1246 H1238 0.930 . S
C1246 C1245 1.362 . S
C1246 C1249 1.409 . S
C1247 H1239 0.930 . S
C1247 C1248 1.355 . S
C1247 C1249 1.415 . S
C1248 C1247 1.355 . S
C1248 C1250 1.419 . S
C1249 C1244 1.425 . S
C1249 C1246 1.409 . S
C1249 C1247 1.415 . S
C1250 H1240 0.930 . S
C1250 C1248 1.419 . S
C1250 C1251 1.362 . S
C1251 H1241 0.930 . S
C1251 C1244 1.409 . S
C1251 C1250 1.362 . S
H1252 C1258 0.930 . S
H1253 C1261 0.930 . S
H1254 C1262 0.930 . S
H1255 C1263 0.930 1_545 S
H1256 C1266 0.930 . S
H1257 C1267 0.930 . S
C1258 H1252 0.930 . S
C1258 C1259 1.355 . S
C1258 C1260 1.415 . S
C1259 C1258 1.355 . S
C1259 C1261 1.419 . S
C1260 C1258 1.415 . S
C1260 C1265 1.425 . S
C1260 C1267 1.409 . S
C1261 H1253 0.930 . S
C1261 C1259 1.419 . S
C1261 C1262 1.362 . S
C1262 H1254 0.930 . S
C1262 C1261 1.362 . S
C1262 C1265 1.409 . S
C1263 H1255 0.930 1_565 S
C1263 C1264 1.355 1_565 S
C1263 C1265 1.415 . S
C1264 C1263 1.355 1_545 S
C1264 C1266 1.419 1_545 S
C1265 C1260 1.425 . S
C1265 C1262 1.409 . S
C1265 C1263 1.415 . S
C1266 H1256 0.930 . S
C1266 C1264 1.419 1_565 S
C1266 C1267 1.362 . S
C1267 H1257 0.930 . S
C1267 C1260 1.409 . S
C1267 C1266 1.362 . S
H1268 C1274 0.930 . S
H1269 C1277 0.930 1_545 S
H1270 C1278 0.930 . S
H1271 C1279 0.930 1_655 S
H1272 C1282 0.930 . S
H1273 C1283 0.930 . S
C1274 H1268 0.930 . S
C1274 C1275 1.355 . S
C1274 C1276 1.415 . S
C1275 C1274 1.355 . S
C1275 C1277 1.419 . S
C1276 C1274 1.415 . S
C1276 C1281 1.425 . S
C1276 C1283 1.409 . S
C1277 H1269 0.930 1_565 S
C1277 C1275 1.419 . S
C1277 C1278 1.362 . S
C1278 H1270 0.930 . S
C1278 C1277 1.362 . S
C1278 C1281 1.409 . S
C1279 H1271 0.930 1_455 S
C1279 C1280 1.355 1_455 S
C1279 C1281 1.415 . S
C1280 C1279 1.355 1_655 S
C1280 C1282 1.419 1_655 S
C1281 C1276 1.425 . S
C1281 C1278 1.409 . S
C1281 C1279 1.415 . S
C1282 H1272 0.930 . S
C1282 C1280 1.419 1_455 S
C1282 C1283 1.362 . S
C1283 H1273 0.930 . S
C1283 C1276 1.409 . S
C1283 C1282 1.362 . S
H1284 C1290 0.930 . S
H1285 C1293 0.930 . S
H1286 C1294 0.930 . S
H1287 C1295 0.930 . S
H1288 C1298 0.930 . S
H1289 C1299 0.930 . S
C1290 H1284 0.930 . S
C1290 C1291 1.355 . S
C1290 C1292 1.415 . S
C1291 C1290 1.355 . S
C1291 C1293 1.419 . S
C1292 C1290 1.415 . S
C1292 C1297 1.425 . S
C1292 C1299 1.409 . S
C1293 H1285 0.930 . S
C1293 C1291 1.419 . S
C1293 C1294 1.362 . S
C1294 H1286 0.930 . S
C1294 C1293 1.362 . S
C1294 C1297 1.409 . S
C1295 H1287 0.930 . S
C1295 C1296 1.355 . S
C1295 C1297 1.415 . S
C1296 C1295 1.355 . S
C1296 C1298 1.419 . S
C1297 C1292 1.425 . S
C1297 C1294 1.409 . S
C1297 C1295 1.415 . S
C1298 H1288 0.930 . S
C1298 C1296 1.419 . S
C1298 C1299 1.362 . S
C1299 H1289 0.930 . S
C1299 C1292 1.409 . S
C1299 C1298 1.362 . S
H1300 C1306 0.930 1_545 S
H1301 C1309 0.930 . S
H1302 C1310 0.930 . S
H1303 C1311 0.930 . S
H1304 C1314 0.930 1_655 S
H1305 C1315 0.930 . S
C1306 H1300 0.930 1_565 S
C1306 C1307 1.355 1_565 S
C1306 C1308 1.415 . S
C1307 C1306 1.355 1_545 S
C1307 C1309 1.419 1_545 S
C1308 C1306 1.415 . S
C1308 C1313 1.425 . S
C1308 C1315 1.409 . S
C1309 H1301 0.930 . S
C1309 C1307 1.419 1_565 S
C1309 C1310 1.362 . S
C1310 H1302 0.930 . S
C1310 C1309 1.362 . S
C1310 C1313 1.409 . S
C1311 H1303 0.930 . S
C1311 C1312 1.355 . S
C1311 C1313 1.415 . S
C1312 C1311 1.355 . S
C1312 C1314 1.419 . S
C1313 C1308 1.425 . S
C1313 C1310 1.409 . S
C1313 C1311 1.415 . S
C1314 H1304 0.930 1_455 S
C1314 C1312 1.419 . S
C1314 C1315 1.362 . S
C1315 H1305 0.930 . S
C1315 C1308 1.409 . S
C1315 C1314 1.362 . S
H1316 C1322 0.930 . S
H1317 C1325 0.930 . S
H1318 C1326 0.930 . S
H1319 C1327 0.930 1_655 S
H1320 C1330 0.930 . S
H1321 C1331 0.930 . S
C1322 H1316 0.930 . S
C1322 C1323 1.355 . S
C1322 C1324 1.415 . S
C1323 C1322 1.355 . S
C1323 C1325 1.419 . S
C1324 C1322 1.415 . S
C1324 C1329 1.425 . S
C1324 C1331 1.409 . S
C1325 H1317 0.930 . S
C1325 C1323 1.419 . S
C1325 C1326 1.362 . S
C1326 H1318 0.930 . S
C1326 C1325 1.362 . S
C1326 C1329 1.409 . S
C1327 H1319 0.930 1_455 S
C1327 C1328 1.355 1_455 S
C1327 C1329 1.415 . S
C1328 C1327 1.355 1_655 S
C1328 C1330 1.419 1_655 S
C1329 C1324 1.425 . S
C1329 C1326 1.409 . S
C1329 C1327 1.415 . S
C1330 H1320 0.930 . S
C1330 C1328 1.419 1_455 S
C1330 C1331 1.362 . S
C1331 H1321 0.930 . S
C1331 C1324 1.409 . S
C1331 C1330 1.362 . S
H1332 C1338 0.930 . S
H1333 C1341 0.930 1_455 S
H1334 C1342 0.930 . S
H1335 C1343 0.930 . S
H1336 C1346 0.930 . S
H1337 C1347 0.930 . S
C1338 H1332 0.930 . S
C1338 C1339 1.355 . S
C1338 C1340 1.415 . S
C1339 C1338 1.355 . S
C1339 C1341 1.419 . S
C1340 C1338 1.415 . S
C1340 C1345 1.425 . S
C1340 C1347 1.409 . S
C1341 H1333 0.930 1_655 S
C1341 C1339 1.419 . S
C1341 C1342 1.362 . S
C1342 H1334 0.930 . S
C1342 C1341 1.362 . S
C1342 C1345 1.409 . S
C1343 H1335 0.930 . S
C1343 C1344 1.355 . S
C1343 C1345 1.415 . S
C1344 C1343 1.355 . S
C1344 C1346 1.419 . S
C1345 C1340 1.425 . S
C1345 C1342 1.409 . S
C1345 C1343 1.415 . S
C1346 H1336 0.930 . S
C1346 C1344 1.419 . S
C1346 C1347 1.362 . S
C1347 H1337 0.930 . S
C1347 C1340 1.409 . S
C1347 C1346 1.362 . S
H1348 C1354 0.930 . S
H1349 C1357 0.930 . S
H1350 C1358 0.930 . S
H1351 C1359 0.930 . S
H1352 C1362 0.930 . S
H1353 C1363 0.930 . S
C1354 H1348 0.930 . S
C1354 C1355 1.355 1_545 S
C1354 C1356 1.415 . S
C1355 C1354 1.355 1_565 S
C1355 C1357 1.419 . S
C1356 C1354 1.415 . S
C1356 C1361 1.425 . S
C1356 C1363 1.409 . S
C1357 H1349 0.930 . S
C1357 C1355 1.419 . S
C1357 C1358 1.362 1_565 S
C1358 H1350 0.930 . S
C1358 C1357 1.362 1_545 S
C1358 C1361 1.409 . S
C1359 H1351 0.930 . S
C1359 C1360 1.355 . S
C1359 C1361 1.415 . S
C1360 C1359 1.355 . S
C1360 C1362 1.419 . S
C1361 C1356 1.425 . S
C1361 C1358 1.409 . S
C1361 C1359 1.415 . S
C1362 H1352 0.930 . S
C1362 C1360 1.419 . S
C1362 C1363 1.362 . S
C1363 H1353 0.930 . S
C1363 C1356 1.409 . S
C1363 C1362 1.362 . S
H1364 C1370 0.930 1_565 S
H1365 C1373 0.930 . S
H1366 C1374 0.930 . S
H1367 C1375 0.930 . S
H1368 C1378 0.903 1_455 S
H1369 C1379 0.930 . S
C1370 H1364 0.930 1_545 S
C1370 C1371 1.355 . S
C1370 C1372 1.415 . S
C1371 C1370 1.355 . S
C1371 C1373 1.419 . S
C1372 C1370 1.415 . S
C1372 C1377 1.425 . S
C1372 C1379 1.409 . S
C1373 H1365 0.930 . S
C1373 C1371 1.419 . S
C1373 C1374 1.362 . S
C1374 H1366 0.930 . S
C1374 C1373 1.362 . S
C1374 C1377 1.409 . S
C1375 H1367 0.930 . S
C1375 C1376 1.355 1_655 S
C1375 C1377 1.415 . S
C1376 C1375 1.355 1_455 S
C1376 C1378 1.430 1_455 S
C1377 C1372 1.425 . S
C1377 C1374 1.409 . S
C1377 C1375 1.415 . S
C1378 H1368 0.903 1_655 S
C1378 C1376 1.430 1_655 S
C1378 C1379 1.379 . S
C1379 H1369 0.930 . S
C1379 C1372 1.409 . S
C1379 C1378 1.379 . S
H1380 C1386 0.930 . S
H1381 C1389 0.930 . S
H1382 C1390 0.930 . S
H1383 C1391 0.930 . S
H1384 C1394 0.930 . S
H1385 C1395 0.930 . S
C1386 H1380 0.930 . S
C1386 C1387 1.355 . S
C1386 C1388 1.415 . S
C1387 C1386 1.355 . S
C1387 C1389 1.419 . S
C1388 C1386 1.415 . S
C1388 C1393 1.425 . S
C1388 C1395 1.409 . S
C1389 H1381 0.930 . S
C1389 C1387 1.419 . S
C1389 C1390 1.362 . S
C1390 H1382 0.930 . S
C1390 C1389 1.362 . S
C1390 C1393 1.409 . S
C1391 H1383 0.930 . S
C1391 C1392 1.355 . S
C1391 C1393 1.415 . S
C1392 C1391 1.355 . S
C1392 C1394 1.419 . S
C1393 C1388 1.425 . S
C1393 C1390 1.409 . S
C1393 C1391 1.415 . S
C1394 H1384 0.930 . S
C1394 C1392 1.419 . S
C1394 C1395 1.362 . S
C1395 H1385 0.930 . S
C1395 C1388 1.409 . S
C1395 C1394 1.362 . S
H1396 C1402 0.930 . S
H1397 C1405 0.930 . S
H1398 C1406 0.930 . S
H1399 C1407 0.930 . S
H1400 C1410 0.930 . S
H1401 C1411 0.930 . S
C1402 H1396 0.930 . S
C1402 C1403 1.355 . S
C1402 C1404 1.415 . S
C1403 C1402 1.355 . S
C1403 C1405 1.419 . S
C1404 C1402 1.415 . S
C1404 C1409 1.425 . S
C1404 C1411 1.409 . S
C1405 H1397 0.930 . S
C1405 C1403 1.419 . S
C1405 C1406 1.362 . S
C1406 H1398 0.930 . S
C1406 C1405 1.362 . S
C1406 C1409 1.409 . S
C1407 H1399 0.930 . S
C1407 C1408 1.355 . S
C1407 C1409 1.415 . S
C1408 C1407 1.355 . S
C1408 C1410 1.419 . S
C1409 C1404 1.425 . S
C1409 C1406 1.409 . S
C1409 C1407 1.415 . S
C1410 H1400 0.930 . S
C1410 C1408 1.419 . S
C1410 C1411 1.362 . S
C1411 H1401 0.930 . S
C1411 C1404 1.409 . S
C1411 C1410 1.362 . S
H1412 C1418 0.930 . S
H1413 C1421 0.930 . S
H1414 C1422 0.930 . S
H1415 C1423 0.930 . S
H1416 C1426 0.930 . S
H1417 C1427 0.930 . S
C1418 H1412 0.930 . S
C1418 C1419 1.355 . S
C1418 C1420 1.415 . S
C1419 C1418 1.355 . S
C1419 C1421 1.419 . S
C1420 C1418 1.415 . S
C1420 C1425 1.425 . S
C1420 C1427 1.409 . S
C1421 H1413 0.930 . S
C1421 C1419 1.419 . S
C1421 C1422 1.362 . S
C1422 H1414 0.930 . S
C1422 C1421 1.362 . S
C1422 C1425 1.409 . S
C1423 H1415 0.930 . S
C1423 C1424 1.355 . S
C1423 C1425 1.415 . S
C1424 C1423 1.355 . S
C1424 C1426 1.419 . S
C1425 C1420 1.425 . S
C1425 C1422 1.409 . S
C1425 C1423 1.415 . S
C1426 H1416 0.930 . S
C1426 C1424 1.419 . S
C1426 C1427 1.362 . S
C1427 H1417 0.930 . S
C1427 C1420 1.409 . S
C1427 C1426 1.362 . S
H1428 C1434 0.930 . S
H1429 C1437 0.930 . S
H1430 C1438 0.930 . S
H1431 C1439 0.930 . S
H1432 C1442 0.930 . S
H1433 C1443 0.930 . S
C1434 H1428 0.930 . S
C1434 C1435 1.355 . S
C1434 C1436 1.415 . S
C1435 C1434 1.355 . S
C1435 C1437 1.419 . S
C1436 C1434 1.415 . S
C1436 C1441 1.425 . S
C1436 C1443 1.409 . S
C1437 H1429 0.930 . S
C1437 C1435 1.419 . S
C1437 C1438 1.362 . S
C1438 H1430 0.930 . S
C1438 C1437 1.362 . S
C1438 C1441 1.409 . S
C1439 H1431 0.930 . S
C1439 C1440 1.355 . S
C1439 C1441 1.415 . S
C1440 C1439 1.355 . S
C1440 C1442 1.419 . S
C1441 C1436 1.425 . S
C1441 C1438 1.409 . S
C1441 C1439 1.415 . S
C1442 H1432 0.930 . S
C1442 C1440 1.419 . S
C1442 C1443 1.362 . S
C1443 H1433 0.930 . S
C1443 C1436 1.409 . S
C1443 C1442 1.362 . S
H1444 C1450 0.930 . S
H1445 C1453 0.930 . S
H1446 C1454 0.930 . S
H1447 C1455 0.930 . S
H1448 C1458 0.930 . S
H1449 C1459 0.930 . S
C1450 H1444 0.930 . S
C1450 C1451 1.355 . S
C1450 C1452 1.415 . S
C1451 C1450 1.355 . S
C1451 C1453 1.419 . S
C1452 C1450 1.415 . S
C1452 C1457 1.425 . S
C1452 C1459 1.409 . S
C1453 H1445 0.930 . S
C1453 C1451 1.419 . S
C1453 C1454 1.362 . S
C1454 H1446 0.930 . S
C1454 C1453 1.362 . S
C1454 C1457 1.409 . S
C1455 H1447 0.930 . S
C1455 C1456 1.355 . S
C1455 C1457 1.415 . S
C1456 C1455 1.355 . S
C1456 C1458 1.419 . S
C1457 C1452 1.425 . S
C1457 C1454 1.409 . S
C1457 C1455 1.415 . S
C1458 H1448 0.930 . S
C1458 C1456 1.419 . S
C1458 C1459 1.362 . S
C1459 H1449 0.930 . S
C1459 C1452 1.409 . S
C1459 C1458 1.362 . S
H1460 C1466 0.930 . S
H1461 C1469 0.930 . S
H1462 C1470 0.930 . S
H1463 C1471 0.930 . S
H1464 C1474 0.930 . S
H1465 C1475 0.930 . S
C1466 H1460 0.930 . S
C1466 C1467 1.355 . S
C1466 C1468 1.415 . S
C1467 C1466 1.355 . S
C1467 C1469 1.419 . S
C1468 C1466 1.415 . S
C1468 C1473 1.425 . S
C1468 C1475 1.409 . S
C1469 H1461 0.930 . S
C1469 C1467 1.419 . S
C1469 C1470 1.362 . S
C1470 H1462 0.930 . S
C1470 C1469 1.362 . S
C1470 C1473 1.409 . S
C1471 H1463 0.930 . S
C1471 C1472 1.355 . S
C1471 C1473 1.415 . S
C1472 C1471 1.355 . S
C1472 C1474 1.419 . S
C1473 C1468 1.425 . S
C1473 C1470 1.409 . S
C1473 C1471 1.415 . S
C1474 H1464 0.930 . S
C1474 C1472 1.419 . S
C1474 C1475 1.362 . S
C1475 H1465 0.930 . S
C1475 C1468 1.409 . S
C1475 C1474 1.362 . S
H1476 C1482 0.930 . S
H1477 C1485 0.930 . S
H1478 C1486 0.930 . S
H1479 C1487 0.930 . S
H1480 C1490 0.930 . S
H1481 C1491 0.930 . S
C1482 H1476 0.930 . S
C1482 C1483 1.355 . S
C1482 C1484 1.415 . S
C1483 C1482 1.355 . S
C1483 C1485 1.419 . S
C1484 C1482 1.415 . S
C1484 C1489 1.425 . S
C1484 C1491 1.409 . S
C1485 H1477 0.930 . S
C1485 C1483 1.419 . S
C1485 C1486 1.362 . S
C1486 H1478 0.930 . S
C1486 C1485 1.362 . S
C1486 C1489 1.409 . S
C1487 H1479 0.930 . S
C1487 C1488 1.355 . S
C1487 C1489 1.415 . S
C1488 C1487 1.355 . S
C1488 C1490 1.419 . S
C1489 C1484 1.425 . S
C1489 C1486 1.409 . S
C1489 C1487 1.415 . S
C1490 H1480 0.930 . S
C1490 C1488 1.419 . S
C1490 C1491 1.362 . S
C1491 H1481 0.930 . S
C1491 C1484 1.409 . S
C1491 C1490 1.362 . S
H1492 C1498 0.930 . S
H1493 C1501 0.930 . S
H1494 C1502 0.930 . S
H1495 C1503 0.930 . S
H1496 C1506 0.930 . S
H1497 C1507 0.930 . S
C1498 H1492 0.930 . S
C1498 C1499 1.355 . S
C1498 C1500 1.415 . S
C1499 C1498 1.355 . S
C1499 C1501 1.419 . S
C1500 C1498 1.415 . S
C1500 C1505 1.425 . S
C1500 C1507 1.409 . S
C1501 H1493 0.930 . S
C1501 C1499 1.419 . S
C1501 C1502 1.362 . S
C1502 H1494 0.930 . S
C1502 C1501 1.362 . S
C1502 C1505 1.409 . S
C1503 H1495 0.930 . S
C1503 C1504 1.355 . S
C1503 C1505 1.415 . S
C1504 C1503 1.355 . S
C1504 C1506 1.419 . S
C1505 C1500 1.425 . S
C1505 C1502 1.409 . S
C1505 C1503 1.415 . S
C1506 H1496 0.930 . S
C1506 C1504 1.419 . S
C1506 C1507 1.362 . S
C1507 H1497 0.930 . S
C1507 C1500 1.409 . S
C1507 C1506 1.362 . S
H1508 C1514 0.930 . S
H1509 C1517 0.930 . S
H1510 C1518 0.930 . S
H1511 C1519 0.930 . S
H1512 C1522 0.930 . S
H1513 C1523 0.930 . S
C1514 H1508 0.930 . S
C1514 C1515 1.355 . S
C1514 C1516 1.415 . S
C1515 C1514 1.355 . S
C1515 C1517 1.419 . S
C1516 C1514 1.415 . S
C1516 C1521 1.425 . S
C1516 C1523 1.409 . S
C1517 H1509 0.930 . S
C1517 C1515 1.419 . S
C1517 C1518 1.362 . S
C1518 H1510 0.930 . S
C1518 C1517 1.362 . S
C1518 C1521 1.409 . S
C1519 H1511 0.930 . S
C1519 C1520 1.355 . S
C1519 C1521 1.415 . S
C1520 C1519 1.355 . S
C1520 C1522 1.419 . S
C1521 C1516 1.425 . S
C1521 C1518 1.409 . S
C1521 C1519 1.415 . S
C1522 H1512 0.930 . S
C1522 C1520 1.419 . S
C1522 C1523 1.362 . S
C1523 H1513 0.930 . S
C1523 C1516 1.409 . S
C1523 C1522 1.362 . S
H1524 C1530 0.930 . S
H1525 C1533 0.930 . S
H1526 C1534 0.930 . S
H1527 C1535 0.930 . S
H1528 C1538 0.930 . S
H1529 C1539 0.930 . S
C1530 H1524 0.930 . S
C1530 C1531 1.355 . S
C1530 C1532 1.415 . S
C1531 C1530 1.355 . S
C1531 C1533 1.419 . S
C1532 C1530 1.415 . S
C1532 C1537 1.425 . S
C1532 C1539 1.409 . S
C1533 H1525 0.930 . S
C1533 C1531 1.419 . S
C1533 C1534 1.362 . S
C1534 H1526 0.930 . S
C1534 C1533 1.362 . S
C1534 C1537 1.409 . S
C1535 H1527 0.930 . S
C1535 C1536 1.355 . S
C1535 C1537 1.415 . S
C1536 C1535 1.355 . S
C1536 C1538 1.419 . S
C1537 C1532 1.425 . S
C1537 C1534 1.409 . S
C1537 C1535 1.415 . S
C1538 H1528 0.930 . S
C1538 C1536 1.419 . S
C1538 C1539 1.362 . S
C1539 H1529 0.930 . S
C1539 C1532 1.409 . S
C1539 C1538 1.362 . S
H1540 C1546 0.930 . S
H1541 C1549 0.930 . S
H1542 C1550 0.930 . S
H1543 C1551 0.930 . S
H1544 C1554 0.930 . S
H1545 C1555 0.930 . S
C1546 H1540 0.930 . S
C1546 C1547 1.355 . S
C1546 C1548 1.415 . S
C1547 C1546 1.355 . S
C1547 C1549 1.419 . S
C1548 C1546 1.415 . S
C1548 C1553 1.425 . S
C1548 C1555 1.409 . S
C1549 H1541 0.930 . S
C1549 C1547 1.419 . S
C1549 C1550 1.362 . S
C1550 H1542 0.930 . S
C1550 C1549 1.362 . S
C1550 C1553 1.409 . S
C1551 H1543 0.930 . S
C1551 C1552 1.355 . S
C1551 C1553 1.415 . S
C1552 C1551 1.355 . S
C1552 C1554 1.419 . S
C1553 C1548 1.425 . S
C1553 C1550 1.409 . S
C1553 C1551 1.415 . S
C1554 H1544 0.930 . S
C1554 C1552 1.419 . S
C1554 C1555 1.362 . S
C1555 H1545 0.930 . S
C1555 C1548 1.409 . S
C1555 C1554 1.362 . S
H1556 C1562 0.930 . S
H1557 C1565 0.930 . S
H1558 C1566 0.930 . S
H1559 C1567 0.930 . S
H1560 C1570 0.930 . S
H1561 C1571 0.930 . S
C1562 H1556 0.930 . S
C1562 C1563 1.355 . S
C1562 C1564 1.415 . S
C1563 C1562 1.355 . S
C1563 C1565 1.419 . S
C1564 C1562 1.415 . S
C1564 C1569 1.425 . S
C1564 C1571 1.409 . S
C1565 H1557 0.930 . S
C1565 C1563 1.419 . S
C1565 C1566 1.362 . S
C1566 H1558 0.930 . S
C1566 C1565 1.362 . S
C1566 C1569 1.409 . S
C1567 H1559 0.930 . S
C1567 C1568 1.355 . S
C1567 C1569 1.415 . S
C1568 C1567 1.355 . S
C1568 C1570 1.419 . S
C1569 C1564 1.425 . S
C1569 C1566 1.409 . S
C1569 C1567 1.415 . S
C1570 H1560 0.930 . S
C1570 C1568 1.419 . S
C1570 C1571 1.362 . S
C1571 H1561 0.930 . S
C1571 C1564 1.409 . S
C1571 C1570 1.362 . S
H1572 C1578 0.930 . S
H1573 C1581 0.930 . S
H1574 C1582 0.930 . S
H1575 C1583 0.930 . S
H1576 C1586 0.930 . S
H1577 C1587 0.930 . S
C1578 H1572 0.930 . S
C1578 C1579 1.355 . S
C1578 C1580 1.415 . S
C1579 C1578 1.355 . S
C1579 C1581 1.419 . S
C1580 C1578 1.415 . S
C1580 C1585 1.425 . S
C1580 C1587 1.409 . S
C1581 H1573 0.930 . S
C1581 C1579 1.419 . S
C1581 C1582 1.362 . S
C1582 H1574 0.930 . S
C1582 C1581 1.362 . S
C1582 C1585 1.409 . S
C1583 H1575 0.930 . S
C1583 C1584 1.355 . S
C1583 C1585 1.415 . S
C1584 C1583 1.355 . S
C1584 C1586 1.419 . S
C1585 C1580 1.425 . S
C1585 C1582 1.409 . S
C1585 C1583 1.415 . S
C1586 H1576 0.930 . S
C1586 C1584 1.419 . S
C1586 C1587 1.362 . S
C1587 H1577 0.930 . S
C1587 C1580 1.409 . S
C1587 C1586 1.362 . S
H1588 C1594 0.930 . S
H1589 C1597 0.930 . S
H1590 C1598 0.930 . S
H1591 C1599 0.930 . S
H1592 C1602 0.930 . S
H1593 C1603 0.930 . S
C1594 H1588 0.930 . S
C1594 C1595 1.355 . S
C1594 C1596 1.415 . S
C1595 C1594 1.355 . S
C1595 C1597 1.419 . S
C1596 C1594 1.415 . S
C1596 C1601 1.425 . S
C1596 C1603 1.409 . S
C1597 H1589 0.930 . S
C1597 C1595 1.419 . S
C1597 C1598 1.362 . S
C1598 H1590 0.930 . S
C1598 C1597 1.362 . S
C1598 C1601 1.409 . S
C1599 H1591 0.930 . S
C1599 C1600 1.355 . S
C1599 C1601 1.415 . S
C1600 C1599 1.355 . S
C1600 C1602 1.419 . S
C1601 C1596 1.425 . S
C1601 C1598 1.409 . S
C1601 C1599 1.415 . S
C1602 H1592 0.930 . S
C1602 C1600 1.419 . S
C1602 C1603 1.362 . S
C1603 H1593 0.930 . S
C1603 C1596 1.409 . S
C1603 C1602 1.362 . S
H1604 C1610 0.930 . S
H1605 C1613 0.930 . S
H1606 C1614 0.930 . S
H1607 C1615 0.930 . S
H1608 C1618 0.930 . S
H1609 C1619 0.930 . S
C1610 H1604 0.930 . S
C1610 C1611 1.355 . S
C1610 C1612 1.415 . S
C1611 C1610 1.355 . S
C1611 C1613 1.419 . S
C1612 C1610 1.415 . S
C1612 C1617 1.425 . S
C1612 C1619 1.409 . S
C1613 H1605 0.930 . S
C1613 C1611 1.419 . S
C1613 C1614 1.362 . S
C1614 H1606 0.930 . S
C1614 C1613 1.362 . S
C1614 C1617 1.409 . S
C1615 H1607 0.930 . S
C1615 C1616 1.355 . S
C1615 C1617 1.415 . S
C1616 C1615 1.355 . S
C1616 C1618 1.419 . S
C1617 C1612 1.425 . S
C1617 C1614 1.409 . S
C1617 C1615 1.415 . S
C1618 H1608 0.930 . S
C1618 C1616 1.419 . S
C1618 C1619 1.362 . S
C1619 H1609 0.930 . S
C1619 C1612 1.409 . S
C1619 C1618 1.362 . S
H1620 C1626 0.930 . S
H1621 C1629 0.930 . S
H1622 C1630 0.930 . S
H1623 C1631 0.930 . S
H1624 C1634 0.930 . S
H1625 C1635 0.930 . S
C1626 H1620 0.930 . S
C1626 C1627 1.355 . S
C1626 C1628 1.415 . S
C1627 C1626 1.355 . S
C1627 C1629 1.419 . S
C1628 C1626 1.415 . S
C1628 C1633 1.425 . S
C1628 C1635 1.409 . S
C1629 H1621 0.930 . S
C1629 C1627 1.419 . S
C1629 C1630 1.362 . S
C1630 H1622 0.930 . S
C1630 C1629 1.362 . S
C1630 C1633 1.409 . S
C1631 H1623 0.930 . S
C1631 C1632 1.355 . S
C1631 C1633 1.415 . S
C1632 C1631 1.355 . S
C1632 C1634 1.419 . S
C1633 C1628 1.425 . S
C1633 C1630 1.409 . S
C1633 C1631 1.415 . S
C1634 H1624 0.930 . S
C1634 C1632 1.419 . S
C1634 C1635 1.362 . S
C1635 H1625 0.930 . S
C1635 C1628 1.409 . S
C1635 C1634 1.362 . S
H1636 C1642 0.930 . S
H1637 C1645 0.930 . S
H1638 C1646 0.930 . S
H1639 C1647 0.930 . S
H1640 C1650 0.930 . S
H1641 C1651 0.930 . S
C1642 H1636 0.930 . S
C1642 C1643 1.355 . S
C1642 C1644 1.415 . S
C1643 C1642 1.355 . S
C1643 C1645 1.419 . S
C1644 C1642 1.415 . S
C1644 C1649 1.425 . S
C1644 C1651 1.409 . S
C1645 H1637 0.930 . S
C1645 C1643 1.419 . S
C1645 C1646 1.362 . S
C1646 H1638 0.930 . S
C1646 C1645 1.362 . S
C1646 C1649 1.409 . S
C1647 H1639 0.930 . S
C1647 C1648 1.355 . S
C1647 C1649 1.415 . S
C1648 C1647 1.355 . S
C1648 C1650 1.419 . S
C1649 C1644 1.425 . S
C1649 C1646 1.409 . S
C1649 C1647 1.415 . S
C1650 H1640 0.930 . S
C1650 C1648 1.419 . S
C1650 C1651 1.362 . S
C1651 H1641 0.930 . S
C1651 C1644 1.409 . S
C1651 C1650 1.362 . S
H1652 C1658 0.930 . S
H1653 C1661 0.930 . S
H1654 C1662 0.930 . S
H1655 C1663 0.930 . S
H1656 C1666 0.930 . S
H1657 C1667 0.930 . S
C1658 H1652 0.930 . S
C1658 C1659 1.355 . S
C1658 C1660 1.415 . S
C1659 C1658 1.355 . S
C1659 C1661 1.419 . S
C1660 C1658 1.415 . S
C1660 C1665 1.425 . S
C1660 C1667 1.409 . S
C1661 H1653 0.930 . S
C1661 C1659 1.419 . S
C1661 C1662 1.362 . S
C1662 H1654 0.930 . S
C1662 C1661 1.362 . S
C1662 C1665 1.409 . S
C1663 H1655 0.930 . S
C1663 C1664 1.355 . S
C1663 C1665 1.415 . S
C1664 C1663 1.355 . S
C1664 C1666 1.419 . S
C1665 C1660 1.425 . S
C1665 C1662 1.409 . S
C1665 C1663 1.415 . S
C1666 H1656 0.930 . S
C1666 C1664 1.419 . S
C1666 C1667 1.362 . S
C1667 H1657 0.930 . S
C1667 C1660 1.409 . S
C1667 C1666 1.362 . S
H1668 C1674 0.930 . S
H1669 C1677 0.930 . S
H1670 C1678 0.930 . S
H1671 C1679 0.930 . S
H1672 C1682 0.930 . S
H1673 C1683 0.930 . S
C1674 H1668 0.930 . S
C1674 C1675 1.355 . S
C1674 C1676 1.415 . S
C1675 C1674 1.355 . S
C1675 C1677 1.419 . S
C1676 C1674 1.415 . S
C1676 C1681 1.425 . S
C1676 C1683 1.409 . S
C1677 H1669 0.930 . S
C1677 C1675 1.419 . S
C1677 C1678 1.362 . S
C1678 H1670 0.930 . S
C1678 C1677 1.362 . S
C1678 C1681 1.409 . S
C1679 H1671 0.930 . S
C1679 C1680 1.355 . S
C1679 C1681 1.415 . S
C1680 C1679 1.355 . S
C1680 C1682 1.419 . S
C1681 C1676 1.425 . S
C1681 C1678 1.409 . S
C1681 C1679 1.415 . S
C1682 H1672 0.930 . S
C1682 C1680 1.419 . S
C1682 C1683 1.362 . S
C1683 H1673 0.930 . S
C1683 C1676 1.409 . S
C1683 C1682 1.362 . S
H1684 C1690 0.930 . S
H1685 C1693 0.930 . S
H1686 C1694 0.930 . S
H1687 C1695 0.930 . S
H1688 C1698 0.930 . S
H1689 C1699 0.930 . S
C1690 H1684 0.930 . S
C1690 C1691 1.355 . S
C1690 C1692 1.415 . S
C1691 C1690 1.355 . S
C1691 C1693 1.419 . S
C1692 C1690 1.415 . S
C1692 C1697 1.425 . S
C1692 C1699 1.409 . S
C1693 H1685 0.930 . S
C1693 C1691 1.419 . S
C1693 C1694 1.362 . S
C1694 H1686 0.930 . S
C1694 C1693 1.362 . S
C1694 C1697 1.409 . S
C1695 H1687 0.930 . S
C1695 C1696 1.355 . S
C1695 C1697 1.415 . S
C1696 C1695 1.355 . S
C1696 C1698 1.419 . S
C1697 C1692 1.425 . S
C1697 C1694 1.409 . S
C1697 C1695 1.415 . S
C1698 H1688 0.930 . S
C1698 C1696 1.419 . S
C1698 C1699 1.362 . S
C1699 H1689 0.930 . S
C1699 C1692 1.409 . S
C1699 C1698 1.362 . S
H1700 C1706 0.930 . S
H1701 C1709 0.930 . S
H1702 C1710 0.930 . S
H1703 C1711 0.930 . S
H1704 C1714 0.930 . S
H1705 C1715 0.930 . S
C1706 H1700 0.930 . S
C1706 C1707 1.355 . S
C1706 C1708 1.415 . S
C1707 C1706 1.355 . S
C1707 C1709 1.419 . S
C1708 C1706 1.415 . S
C1708 C1713 1.425 . S
C1708 C1715 1.409 . S
C1709 H1701 0.930 . S
C1709 C1707 1.419 . S
C1709 C1710 1.362 . S
C1710 H1702 0.930 . S
C1710 C1709 1.362 . S
C1710 C1713 1.409 . S
C1711 H1703 0.930 . S
C1711 C1712 1.355 . S
C1711 C1713 1.415 . S
C1712 C1711 1.355 . S
C1712 C1714 1.419 . S
C1713 C1708 1.425 . S
C1713 C1710 1.409 . S
C1713 C1711 1.415 . S
C1714 H1704 0.930 . S
C1714 C1712 1.419 . S
C1714 C1715 1.362 . S
C1715 H1705 0.930 . S
C1715 C1708 1.409 . S
C1715 C1714 1.362 . S
H1716 C1722 0.930 . S
H1717 C1725 0.930 . S
H1718 C1726 0.930 . S
H1719 C1727 0.930 . S
H1720 C1730 0.930 . S
H1721 C1731 0.930 . S
C1722 H1716 0.930 . S
C1722 C1723 1.355 . S
C1722 C1724 1.415 . S
C1723 C1722 1.355 . S
C1723 C1725 1.419 . S
C1724 C1722 1.415 . S
C1724 C1729 1.425 . S
C1724 C1731 1.409 . S
C1725 H1717 0.930 . S
C1725 C1723 1.419 . S
C1725 C1726 1.362 . S
C1726 H1718 0.930 . S
C1726 C1725 1.362 . S
C1726 C1729 1.409 . S
C1727 H1719 0.930 . S
C1727 C1728 1.355 . S
C1727 C1729 1.415 . S
C1728 C1727 1.355 . S
C1728 C1730 1.419 . S
C1729 C1724 1.425 . S
C1729 C1726 1.409 . S
C1729 C1727 1.415 . S
C1730 H1720 0.930 . S
C1730 C1728 1.419 . S
C1730 C1731 1.362 . S
C1731 H1721 0.930 . S
C1731 C1724 1.409 . S
C1731 C1730 1.362 . S
H1732 C1738 0.930 . S
H1733 C1741 0.930 . S
H1734 C1742 0.930 . S
H1735 C1743 0.930 . S
H1736 C1746 0.930 . S
H1737 C1747 0.930 . S
C1738 H1732 0.930 . S
C1738 C1739 1.355 . S
C1738 C1740 1.415 . S
C1739 C1738 1.355 . S
C1739 C1741 1.419 . S
C1740 C1738 1.415 . S
C1740 C1745 1.425 . S
C1740 C1747 1.409 . S
C1741 H1733 0.930 . S
C1741 C1739 1.419 . S
C1741 C1742 1.362 . S
C1742 H1734 0.930 . S
C1742 C1741 1.362 . S
C1742 C1745 1.409 . S
C1743 H1735 0.930 . S
C1743 C1744 1.355 . S
C1743 C1745 1.415 . S
C1744 C1743 1.355 . S
C1744 C1746 1.419 . S
C1745 C1740 1.425 . S
C1745 C1742 1.409 . S
C1745 C1743 1.415 . S
C1746 H1736 0.930 . S
C1746 C1744 1.419 . S
C1746 C1747 1.362 . S
C1747 H1737 0.930 . S
C1747 C1740 1.409 . S
C1747 C1746 1.362 . S
H1748 C1754 0.930 . S
H1749 C1757 0.930 . S
H1750 C1758 0.930 . S
H1751 C1759 0.930 . S
H1752 C1762 0.930 . S
H1753 C1763 0.930 . S
C1754 H1748 0.930 . S
C1754 C1755 1.355 . S
C1754 C1756 1.415 . S
C1755 C1754 1.355 . S
C1755 C1757 1.419 . S
C1756 C1754 1.415 . S
C1756 C1761 1.425 . S
C1756 C1763 1.409 . S
C1757 H1749 0.930 . S
C1757 C1755 1.419 . S
C1757 C1758 1.362 . S
C1758 H1750 0.930 . S
C1758 C1757 1.362 . S
C1758 C1761 1.409 . S
C1759 H1751 0.930 . S
C1759 C1760 1.355 . S
C1759 C1761 1.415 . S
C1760 C1759 1.355 . S
C1760 C1762 1.419 . S
C1761 C1756 1.425 . S
C1761 C1758 1.409 . S
C1761 C1759 1.415 . S
C1762 H1752 0.930 . S
C1762 C1760 1.419 . S
C1762 C1763 1.362 . S
C1763 H1753 0.930 . S
C1763 C1756 1.409 . S
C1763 C1762 1.362 . S
H1764 C1770 0.930 . S
H1765 C1773 0.930 . S
H1766 C1774 0.930 . S
H1767 C1775 0.930 . S
H1768 C1778 0.930 . S
H1769 C1779 0.930 . S
C1770 H1764 0.930 . S
C1770 C1771 1.355 . S
C1770 C1772 1.415 . S
C1771 C1770 1.355 . S
C1771 C1773 1.419 . S
C1772 C1770 1.415 . S
C1772 C1777 1.425 . S
C1772 C1779 1.409 . S
C1773 H1765 0.930 . S
C1773 C1771 1.419 . S
C1773 C1774 1.362 . S
C1774 H1766 0.930 . S
C1774 C1773 1.362 . S
C1774 C1777 1.409 . S
C1775 H1767 0.930 . S
C1775 C1776 1.355 . S
C1775 C1777 1.415 . S
C1776 C1775 1.355 . S
C1776 C1778 1.419 . S
C1777 C1772 1.425 . S
C1777 C1774 1.409 . S
C1777 C1775 1.415 . S
C1778 H1768 0.930 . S
C1778 C1776 1.419 . S
C1778 C1779 1.362 . S
C1779 H1769 0.930 . S
C1779 C1772 1.409 . S
C1779 C1778 1.362 . S
H1780 C1786 0.930 . S
H1781 C1789 0.930 . S
H1782 C1790 0.930 . S
H1783 C1791 0.930 . S
H1784 C1794 0.930 . S
H1785 C1795 0.930 . S
C1786 H1780 0.930 . S
C1786 C1787 1.355 . S
C1786 C1788 1.415 . S
C1787 C1786 1.355 . S
C1787 C1789 1.419 . S
C1788 C1786 1.415 . S
C1788 C1793 1.425 . S
C1788 C1795 1.409 . S
C1789 H1781 0.930 . S
C1789 C1787 1.419 . S
C1789 C1790 1.362 . S
C1790 H1782 0.930 . S
C1790 C1789 1.362 . S
C1790 C1793 1.409 . S
C1791 H1783 0.930 . S
C1791 C1792 1.355 . S
C1791 C1793 1.415 . S
C1792 C1791 1.355 . S
C1792 C1794 1.419 . S
C1793 C1788 1.425 . S
C1793 C1790 1.409 . S
C1793 C1791 1.415 . S
C1794 H1784 0.930 . S
C1794 C1792 1.419 . S
C1794 C1795 1.362 . S
C1795 H1785 0.930 . S
C1795 C1788 1.409 . S
C1795 C1794 1.362 . S
H1796 C1802 0.930 . S
H1797 C1805 0.930 . S
H1798 C1806 0.930 . S
H1799 C1807 0.930 . S
H1800 C1810 0.930 . S
H1801 C1811 0.930 . S
C1802 H1796 0.930 . S
C1802 C1803 1.355 . S
C1802 C1804 1.415 . S
C1803 C1802 1.355 . S
C1803 C1805 1.419 . S
C1804 C1802 1.415 . S
C1804 C1809 1.425 . S
C1804 C1811 1.409 . S
C1805 H1797 0.930 . S
C1805 C1803 1.419 . S
C1805 C1806 1.362 . S
C1806 H1798 0.930 . S
C1806 C1805 1.362 . S
C1806 C1809 1.409 . S
C1807 H1799 0.930 . S
C1807 C1808 1.355 . S
C1807 C1809 1.415 . S
C1808 C1807 1.355 . S
C1808 C1810 1.419 . S
C1809 C1804 1.425 . S
C1809 C1806 1.409 . S
C1809 C1807 1.415 . S
C1810 H1800 0.930 . S
C1810 C1808 1.419 . S
C1810 C1811 1.362 . S
C1811 H1801 0.930 . S
C1811 C1804 1.409 . S
C1811 C1810 1.362 . S
H1812 C1818 0.930 . S
H1813 C1821 0.930 . S
H1814 C1822 0.930 . S
H1815 C1823 0.930 . S
H1816 C1826 0.930 . S
H1817 C1827 0.930 . S
C1818 H1812 0.930 . S
C1818 C1819 1.355 . S
C1818 C1820 1.415 . S
C1819 C1818 1.355 . S
C1819 C1821 1.419 . S
C1820 C1818 1.415 . S
C1820 C1825 1.425 . S
C1820 C1827 1.409 . S
C1821 H1813 0.930 . S
C1821 C1819 1.419 . S
C1821 C1822 1.362 . S
C1822 H1814 0.930 . S
C1822 C1821 1.362 . S
C1822 C1825 1.409 . S
C1823 H1815 0.930 . S
C1823 C1824 1.355 . S
C1823 C1825 1.415 . S
C1824 C1823 1.355 . S
C1824 C1826 1.419 . S
C1825 C1820 1.425 . S
C1825 C1822 1.409 . S
C1825 C1823 1.415 . S
C1826 H1816 0.930 . S
C1826 C1824 1.419 . S
C1826 C1827 1.362 . S
C1827 H1817 0.930 . S
C1827 C1820 1.409 . S
C1827 C1826 1.362 . S
H1828 C1834 0.930 . S
H1829 C1837 0.930 . S
H1830 C1838 0.930 . S
H1831 C1839 0.930 . S
H1832 C1842 0.930 . S
H1833 C1843 0.930 . S
C1834 H1828 0.930 . S
C1834 C1835 1.355 . S
C1834 C1836 1.415 . S
C1835 C1834 1.355 . S
C1835 C1837 1.419 . S
C1836 C1834 1.415 . S
C1836 C1841 1.425 . S
C1836 C1843 1.409 . S
C1837 H1829 0.930 . S
C1837 C1835 1.419 . S
C1837 C1838 1.362 . S
C1838 H1830 0.930 . S
C1838 C1837 1.362 . S
C1838 C1841 1.409 . S
C1839 H1831 0.930 . S
C1839 C1840 1.355 . S
C1839 C1841 1.415 . S
C1840 C1839 1.355 . S
C1840 C1842 1.419 . S
C1841 C1836 1.425 . S
C1841 C1838 1.409 . S
C1841 C1839 1.415 . S
C1842 H1832 0.930 . S
C1842 C1840 1.419 . S
C1842 C1843 1.362 . S
C1843 H1833 0.930 . S
C1843 C1836 1.409 . S
C1843 C1842 1.362 . S
H1844 C1850 0.930 . S
H1845 C1853 0.930 . S
H1846 C1854 0.930 . S
H1847 C1855 0.930 . S
H1848 C1858 0.930 1_455 S
H1849 C1859 0.930 . S
C1850 H1844 0.930 . S
C1850 C1851 1.355 . S
C1850 C1852 1.415 . S
C1851 C1850 1.355 . S
C1851 C1853 1.419 . S
C1852 C1850 1.415 . S
C1852 C1857 1.425 . S
C1852 C1859 1.409 . S
C1853 H1845 0.930 . S
C1853 C1851 1.419 . S
C1853 C1854 1.362 . S
C1854 H1846 0.930 . S
C1854 C1853 1.362 . S
C1854 C1857 1.409 . S
C1855 H1847 0.930 . S
C1855 C1856 1.355 . S
C1855 C1857 1.415 . S
C1856 C1855 1.355 . S
C1856 C1858 1.419 . S
C1857 C1852 1.425 . S
C1857 C1854 1.409 . S
C1857 C1855 1.415 . S
C1858 H1848 0.930 1_655 S
C1858 C1856 1.419 . S
C1858 C1859 1.362 . S
C1859 H1849 0.930 . S
C1859 C1852 1.409 . S
C1859 C1858 1.362 . S
H1860 C1866 0.930 . S
H1861 C1869 0.930 . S
H1862 C1870 0.930 . S
H1863 C1871 0.930 . S
H1864 C1874 0.930 . S
H1865 C1875 0.930 . S
C1866 H1860 0.930 . S
C1866 C1867 1.355 . S
C1866 C1868 1.415 . S
C1867 C1866 1.355 . S
C1867 C1869 1.419 . S
C1868 C1866 1.415 . S
C1868 C1873 1.425 . S
C1868 C1875 1.409 . S
C1869 H1861 0.930 . S
C1869 C1867 1.419 . S
C1869 C1870 1.362 . S
C1870 H1862 0.930 . S
C1870 C1869 1.362 . S
C1870 C1873 1.409 . S
C1871 H1863 0.930 . S
C1871 C1872 1.355 . S
C1871 C1873 1.415 . S
C1872 C1871 1.355 . S
C1872 C1874 1.419 . S
C1873 C1868 1.425 . S
C1873 C1870 1.409 . S
C1873 C1871 1.415 . S
C1874 H1864 0.930 . S
C1874 C1872 1.419 . S
C1874 C1875 1.362 . S
C1875 H1865 0.930 . S
C1875 C1868 1.409 . S
C1875 C1874 1.362 . S
H1876 C1882 0.930 . S
H1877 C1885 0.930 . S
H1878 C1886 0.930 . S
H1879 C1887 0.930 . S
H1880 C1890 0.930 . S
H1881 C1891 0.930 . S
C1882 H1876 0.930 . S
C1882 C1883 1.355 . S
C1882 C1884 1.415 . S
C1883 C1882 1.355 . S
C1883 C1885 1.419 . S
C1884 C1882 1.415 . S
C1884 C1889 1.425 . S
C1884 C1891 1.409 . S
C1885 H1877 0.930 . S
C1885 C1883 1.419 . S
C1885 C1886 1.362 . S
C1886 H1878 0.930 . S
C1886 C1885 1.362 . S
C1886 C1889 1.409 . S
C1887 H1879 0.930 . S
C1887 C1888 1.355 . S
C1887 C1889 1.415 . S
C1888 C1887 1.355 . S
C1888 C1890 1.419 . S
C1889 C1884 1.425 . S
C1889 C1886 1.409 . S
C1889 C1887 1.415 . S
C1890 H1880 0.930 . S
C1890 C1888 1.419 . S
C1890 C1891 1.362 . S
C1891 H1881 0.930 . S
C1891 C1884 1.409 . S
C1891 C1890 1.362 . S
H1892 C1898 0.930 . S
H1893 C1901 0.930 . S
H1894 C1902 0.930 . S
H1895 C1903 0.930 . S
H1896 C1906 0.930 . S
H1897 C1907 0.930 . S
C1898 H1892 0.930 . S
C1898 C1899 1.355 . S
C1898 C1900 1.415 . S
C1899 C1898 1.355 . S
C1899 C1901 1.419 . S
C1900 C1898 1.415 . S
C1900 C1905 1.425 . S
C1900 C1907 1.409 . S
C1901 H1893 0.930 . S
C1901 C1899 1.419 . S
C1901 C1902 1.362 . S
C1902 H1894 0.930 . S
C1902 C1901 1.362 . S
C1902 C1905 1.409 . S
C1903 H1895 0.930 . S
C1903 C1904 1.355 . S
C1903 C1905 1.415 . S
C1904 C1903 1.355 . S
C1904 C1906 1.419 . S
C1905 C1900 1.425 . S
C1905 C1902 1.409 . S
C1905 C1903 1.415 . S
C1906 H1896 0.930 . S
C1906 C1904 1.419 . S
C1906 C1907 1.362 . S
C1907 H1897 0.930 . S
C1907 C1900 1.409 . S
C1907 C1906 1.362 . S
H1908 C1914 0.930 . S
H1909 C1917 0.930 . S
H1910 C1918 0.930 . S
H1911 C1919 0.930 . S
H1912 C1922 0.930 . S
H1913 C1923 0.930 . S
C1914 H1908 0.930 . S
C1914 C1915 1.355 . S
C1914 C1916 1.415 . S
C1915 C1914 1.355 . S
C1915 C1917 1.419 . S
C1916 C1914 1.415 . S
C1916 C1921 1.425 . S
C1916 C1923 1.409 . S
C1917 H1909 0.930 . S
C1917 C1915 1.419 . S
C1917 C1918 1.362 . S
C1918 H1910 0.930 . S
C1918 C1917 1.362 . S
C1918 C1921 1.409 . S
C1919 H1911 0.930 . S
C1919 C1920 1.355 . S
C1919 C1921 1.415 . S
C1920 C1919 1.355 . S
C1920 C1922 1.419 . S
C1921 C1916 1.425 . S
C1921 C1918 1.409 . S
C1921 C1919 1.415 . S
C1922 H1912 0.930 . S
C1922 C1920 1.419 . S
C1922 C1923 1.362 . S
C1923 H1913 0.930 . S
C1923 C1916 1.409 . S
C1923 C1922 1.362 . S
H1924 C1930 0.930 . S
H1925 C1933 0.930 . S
H1926 C1934 0.930 . S
H1927 C1935 0.930 . S
H1928 C1938 0.930 . S
H1929 C1939 0.930 . S
C1930 H1924 0.930 . S
C1930 C1931 1.355 . S
C1930 C1932 1.415 . S
C1931 C1930 1.355 . S
C1931 C1933 1.419 . S
C1932 C1930 1.415 . S
C1932 C1937 1.425 . S
C1932 C1939 1.409 . S
C1933 H1925 0.930 . S
C1933 C1931 1.419 . S
C1933 C1934 1.362 . S
C1934 H1926 0.930 . S
C1934 C1933 1.362 . S
C1934 C1937 1.409 . S
C1935 H1927 0.930 . S
C1935 C1936 1.355 . S
C1935 C1937 1.415 . S
C1936 C1935 1.355 . S
C1936 C1938 1.419 . S
C1937 C1932 1.425 . S
C1937 C1934 1.409 . S
C1937 C1935 1.415 . S
C1938 H1928 0.930 . S
C1938 C1936 1.419 . S
C1938 C1939 1.362 . S
C1939 H1929 0.930 . S
C1939 C1932 1.409 . S
C1939 C1938 1.362 . S
H1940 C1946 0.930 . S
H1941 C1949 0.930 . S
H1942 C1950 0.930 . S
H1943 C1951 0.930 . S
H1944 C1954 0.930 1_655 S
H1945 C1955 0.930 . S
C1946 H1940 0.930 . S
C1946 C1947 1.355 . S
C1946 C1948 1.415 . S
C1947 C1946 1.355 . S
C1947 C1949 1.419 . S
C1948 C1946 1.415 . S
C1948 C1953 1.425 . S
C1948 C1955 1.409 . S
C1949 H1941 0.930 . S
C1949 C1947 1.419 . S
C1949 C1950 1.362 . S
C1950 H1942 0.930 . S
C1950 C1949 1.362 . S
C1950 C1953 1.409 . S
C1951 H1943 0.930 . S
C1951 C1952 1.355 . S
C1951 C1953 1.415 . S
C1952 C1951 1.355 . S
C1952 C1954 1.419 . S
C1953 C1948 1.425 . S
C1953 C1950 1.409 . S
C1953 C1951 1.415 . S
C1954 H1944 0.930 1_455 S
C1954 C1952 1.419 . S
C1954 C1955 1.362 . S
C1955 H1945 0.930 . S
C1955 C1948 1.409 . S
C1955 C1954 1.362 . S
H1956 C1962 0.930 . S
H1957 C1965 0.930 . S
H1958 C1966 0.930 . S
H1959 C1967 0.930 . S
H1960 C1970 0.930 . S
H1961 C1971 0.930 . S
C1962 H1956 0.930 . S
C1962 C1963 1.355 . S
C1962 C1964 1.415 . S
C1963 C1962 1.355 . S
C1963 C1965 1.419 . S
C1964 C1962 1.415 . S
C1964 C1969 1.425 . S
C1964 C1971 1.409 . S
C1965 H1957 0.930 . S
C1965 C1963 1.419 . S
C1965 C1966 1.362 . S
C1966 H1958 0.930 . S
C1966 C1965 1.362 . S
C1966 C1969 1.409 . S
C1967 H1959 0.930 . S
C1967 C1968 1.355 . S
C1967 C1969 1.415 . S
C1968 C1967 1.355 . S
C1968 C1970 1.419 . S
C1969 C1964 1.425 . S
C1969 C1966 1.409 . S
C1969 C1967 1.415 . S
C1970 H1960 0.930 . S
C1970 C1968 1.419 . S
C1970 C1971 1.362 . S
C1971 H1961 0.930 . S
C1971 C1964 1.409 . S
C1971 C1970 1.362 . S
H1972 C1978 0.930 . S
H1973 C1981 0.930 . S
H1974 C1982 0.930 . S
H1975 C1983 0.930 . S
H1976 C1986 0.930 . S
H1977 C1987 0.930 . S
C1978 H1972 0.930 . S
C1978 C1979 1.355 . S
C1978 C1980 1.415 . S
C1979 C1978 1.355 . S
C1979 C1981 1.419 . S
C1980 C1978 1.415 . S
C1980 C1985 1.425 . S
C1980 C1987 1.409 . S
C1981 H1973 0.930 . S
C1981 C1979 1.419 . S
C1981 C1982 1.362 . S
C1982 H1974 0.930 . S
C1982 C1981 1.362 . S
C1982 C1985 1.409 . S
C1983 H1975 0.930 . S
C1983 C1984 1.355 . S
C1983 C1985 1.415 . S
C1984 C1983 1.355 . S
C1984 C1986 1.419 . S
C1985 C1980 1.425 . S
C1985 C1982 1.409 . S
C1985 C1983 1.415 . S
C1986 H1976 0.930 . S
C1986 C1984 1.419 . S
C1986 C1987 1.362 . S
C1987 H1977 0.930 . S
C1987 C1980 1.409 . S
C1987 C1986 1.362 . S
H1988 C1994 0.930 1_565 S
H1989 C1997 0.930 . S
H1990 C1998 0.930 . S
H1991 C1999 0.930 . S
H1992 C2002 0.930 . S
H1993 C2003 0.930 . S
C1994 H1988 0.930 1_545 S
C1994 C1995 1.355 . S
C1994 C1996 1.415 . S
C1995 C1994 1.355 . S
C1995 C1997 1.419 . S
C1996 C1994 1.415 . S
C1996 C2001 1.425 . S
C1996 C2003 1.409 . S
C1997 H1989 0.930 . S
C1997 C1995 1.419 . S
C1997 C1998 1.362 . S
C1998 H1990 0.930 . S
C1998 C1997 1.362 . S
C1998 C2001 1.409 . S
C1999 H1991 0.930 . S
C1999 C2000 1.355 . S
C1999 C2001 1.415 . S
C2000 C1999 1.355 . S
C2000 C2002 1.419 . S
C2001 C1996 1.425 . S
C2001 C1998 1.409 . S
C2001 C1999 1.415 . S
C2002 H1992 0.930 . S
C2002 C2000 1.419 . S
C2002 C2003 1.362 . S
C2003 H1993 0.930 . S
C2003 C1996 1.409 . S
C2003 C2002 1.362 . S
H2004 C2010 0.930 . S
H2005 C2013 0.930 . S
H2006 C2014 0.930 . S
H2007 C2015 0.930 1_655 S
H2008 C2018 0.930 . S
H2009 C2019 0.930 . S
C2010 H2004 0.930 . S
C2010 C2011 1.348 1_455 S
C2010 C2012 1.415 . S
C2011 C2010 1.348 1_655 S
C2011 C2013 1.434 . S
C2012 C2010 1.415 . S
C2012 C2017 1.425 . S
C2012 C2019 1.409 . S
C2013 H2005 0.930 . S
C2013 C2011 1.434 . S
C2013 C2014 1.362 . S
C2014 H2006 0.930 . S
C2014 C2013 1.362 . S
C2014 C2017 1.409 1_655 S
C2015 H2007 0.930 1_455 S
C2015 C2016 1.355 . S
C2015 C2017 1.415 . S
C2016 C2015 1.355 . S
C2016 C2018 1.419 . S
C2017 C2012 1.425 . S
C2017 C2014 1.409 1_455 S
C2017 C2015 1.415 . S
C2018 H2008 0.930 . S
C2018 C2016 1.419 . S
C2018 C2019 1.362 . S
C2019 H2009 0.930 . S
C2019 C2012 1.409 . S
C2019 C2018 1.362 . S
H2020 C2026 0.930 . S
H2021 C2029 0.930 . S
H2022 C2030 0.930 . S
H2023 C2031 0.930 . S
H2024 C2034 0.930 . S
H2025 C2035 0.930 . S
C2026 H2020 0.930 . S
C2026 C2027 1.355 . S
C2026 C2028 1.415 . S
C2027 C2026 1.355 . S
C2027 C2029 1.419 . S
C2028 C2026 1.415 . S
C2028 C2033 1.425 . S
C2028 C2035 1.409 . S
C2029 H2021 0.930 . S
C2029 C2027 1.419 . S
C2029 C2030 1.362 . S
C2030 H2022 0.930 . S
C2030 C2029 1.362 . S
C2030 C2033 1.409 . S
C2031 H2023 0.930 . S
C2031 C2032 1.355 . S
C2031 C2033 1.415 . S
C2032 C2031 1.355 . S
C2032 C2034 1.419 . S
C2033 C2028 1.425 . S
C2033 C2030 1.409 . S
C2033 C2031 1.415 . S
C2034 H2024 0.930 . S
C2034 C2032 1.419 . S
C2034 C2035 1.362 . S
C2035 H2025 0.930 . S
C2035 C2028 1.409 . S
C2035 C2034 1.362 . S
H2036 C2042 0.930 . S
H2037 C2045 0.930 . S
H2038 C2046 0.930 . S
H2039 C2047 0.930 1_545 S
H2040 C2050 0.930 . S
H2041 C2051 0.930 . S
C2042 H2036 0.930 . S
C2042 C2043 1.355 1_565 S
C2042 C2044 1.415 . S
C2043 C2042 1.355 1_545 S
C2043 C2045 1.419 . S
C2044 C2042 1.415 . S
C2044 C2049 1.425 . S
C2044 C2051 1.409 . S
C2045 H2037 0.930 . S
C2045 C2043 1.419 . S
C2045 C2046 1.362 . S
C2046 H2038 0.930 . S
C2046 C2045 1.362 . S
C2046 C2049 1.409 1_545 S
C2047 H2039 0.930 1_565 S
C2047 C2048 1.355 . S
C2047 C2049 1.415 . S
C2048 C2047 1.355 . S
C2048 C2050 1.419 . S
C2049 C2044 1.425 . S
C2049 C2046 1.409 1_565 S
C2049 C2047 1.415 . S
C2050 H2040 0.930 . S
C2050 C2048 1.419 . S
C2050 C2051 1.362 . S
C2051 H2041 0.930 . S
C2051 C2044 1.409 . S
C2051 C2050 1.362 . S
H2052 C2058 0.926 1_545 S
H2053 C2061 0.930 . S
H2054 C2062 0.930 . S
H2055 C2063 0.930 . S
H2056 C2066 0.930 . S
H2057 C2067 0.930 . S
C2058 H2052 0.926 1_565 S
C2058 C2059 1.357 . S
C2058 C2060 1.416 1_565 S
C2059 C2058 1.357 . S
C2059 C2061 1.419 . S
C2060 C2058 1.416 1_545 S
C2060 C2065 1.425 1_545 S
C2060 C2067 1.409 . S
C2061 H2053 0.930 . S
C2061 C2059 1.419 . S
C2061 C2062 1.362 . S
C2062 H2054 0.930 . S
C2062 C2061 1.362 . S
C2062 C2065 1.409 . S
C2063 H2055 0.930 . S
C2063 C2064 1.355 1_565 S
C2063 C2065 1.415 . S
C2064 C2063 1.355 1_545 S
C2064 C2066 1.419 . S
C2065 C2060 1.425 1_565 S
C2065 C2062 1.409 . S
C2065 C2063 1.415 . S
C2066 H2056 0.930 . S
C2066 C2064 1.419 . S
C2066 C2067 1.362 . S
C2067 H2057 0.930 . S
C2067 C2060 1.409 . S
C2067 C2066 1.362 . S
H2068 C2074 0.930 . S
H2069 C2077 0.930 . S
H2070 C2078 0.930 . S
H2071 C2079 0.930 1_655 S
H2072 C2082 0.930 . S
H2073 C2083 0.930 . S
C2074 H2068 0.930 . S
C2074 C2075 1.355 1_455 S
C2074 C2076 1.415 . S
C2075 C2074 1.355 1_655 S
C2075 C2077 1.419 . S
C2076 C2074 1.415 . S
C2076 C2081 1.425 . S
C2076 C2083 1.409 . S
C2077 H2069 0.930 . S
C2077 C2075 1.419 . S
C2077 C2078 1.362 . S
C2078 H2070 0.930 . S
C2078 C2077 1.362 . S
C2078 C2081 1.409 1_655 S
C2079 H2071 0.930 1_455 S
C2079 C2080 1.355 . S
C2079 C2081 1.415 . S
C2080 C2079 1.355 . S
C2080 C2082 1.419 . S
C2081 C2076 1.425 . S
C2081 C2078 1.409 1_455 S
C2081 C2079 1.415 . S
C2082 H2072 0.930 . S
C2082 C2080 1.419 . S
C2082 C2083 1.362 . S
C2083 H2073 0.930 . S
C2083 C2076 1.409 . S
C2083 C2082 1.362 . S
H2084 C2090 0.930 . S
H2085 C2093 0.930 . S
H2086 C2094 0.930 . S
H2087 C2095 0.930 . S
H2088 C2098 0.930 . S
H2089 C2099 0.930 . S
C2090 H2084 0.930 . S
C2090 C2091 1.355 . S
C2090 C2092 1.415 . S
C2091 C2090 1.355 . S
C2091 C2093 1.419 . S
C2092 C2090 1.415 . S
C2092 C2097 1.425 . S
C2092 C2099 1.409 . S
C2093 H2085 0.930 . S
C2093 C2091 1.419 . S
C2093 C2094 1.362 . S
C2094 H2086 0.930 . S
C2094 C2093 1.362 . S
C2094 C2097 1.409 . S
C2095 H2087 0.930 . S
C2095 C2096 1.355 . S
C2095 C2097 1.415 . S
C2096 C2095 1.355 . S
C2096 C2098 1.419 . S
C2097 C2092 1.425 . S
C2097 C2094 1.409 . S
C2097 C2095 1.415 . S
C2098 H2088 0.930 . S
C2098 C2096 1.419 . S
C2098 C2099 1.362 . S
C2099 H2089 0.930 . S
C2099 C2092 1.409 . S
C2099 C2098 1.362 . S
H2100 C2106 0.930 . S
H2101 C2109 0.942 1_565 S
H2102 C2110 0.930 . S
H2103 C2111 0.930 . S
H2104 C2114 0.947 . S
H2105 C2115 0.930 . S
C2106 H2100 0.930 . S
C2106 C2107 1.355 . S
C2106 C2108 1.415 . S
C2107 C2106 1.355 . S
C2107 C2109 1.419 . S
C2108 C2106 1.415 . S
C2108 C2113 1.425 1_556 S
C2108 C2115 1.409 . S
C2109 H2101 0.942 1_545 S
C2109 C2107 1.419 . S
C2109 C2110 1.362 1_556 S
C2110 H2102 0.930 . S
C2110 C2109 1.362 1_554 S
C2110 C2113 1.409 . S
C2111 H2103 0.930 . S
C2111 C2112 1.355 . S
C2111 C2113 1.415 . S
C2112 C2111 1.355 . S
C2112 C2114 1.419 . S
C2113 C2108 1.425 1_554 S
C2113 C2110 1.409 . S
C2113 C2111 1.415 . S
C2114 H2104 0.947 . S
C2114 C2112 1.419 . S
C2114 C2115 1.362 1_554 S
C2115 H2105 0.930 . S
C2115 C2108 1.409 . S
C2115 C2114 1.362 1_556 S
H2116 C2122 0.905 1_556 S
H2117 C2125 0.930 . S
H2118 C2126 0.930 . S
H2119 C2127 0.898 1_454 S
H2120 C2130 0.930 . S
H2121 C2131 0.930 . S
C2122 H2116 0.905 1_554 S
C2122 C2123 1.355 . S
C2122 C2124 1.415 1_554 S
C2123 C2122 1.355 . S
C2123 C2125 1.419 . S
C2124 C2122 1.415 1_556 S
C2124 C2129 1.425 1_556 S
C2124 C2131 1.409 . S
C2125 H2117 0.930 . S
C2125 C2123 1.419 . S
C2125 C2126 1.362 . S
C2126 H2118 0.930 . S
C2126 C2125 1.362 . S
C2126 C2129 1.409 . S
C2127 H2119 0.898 1_656 S
C2127 C2128 1.355 . S
C2127 C2129 1.415 1_556 S
C2128 C2127 1.355 . S
C2128 C2130 1.419 . S
C2129 C2124 1.425 1_554 S
C2129 C2126 1.409 . S
C2129 C2127 1.415 1_554 S
C2130 H2120 0.930 . S
C2130 C2128 1.419 . S
C2130 C2131 1.362 . S
C2131 H2121 0.930 . S
C2131 C2124 1.409 . S
C2131 C2130 1.362 . S
H2132 C2138 0.912 1_556 S
H2133 C2141 0.930 . S
H2134 C2142 0.930 . S
H2135 C2143 0.905 1_554 S
H2136 C2146 0.930 . S
H2137 C2147 0.930 . S
C2138 H2132 0.912 1_554 S
C2138 C2139 1.355 . S
C2138 C2140 1.415 1_554 S
C2139 C2138 1.355 . S
C2139 C2141 1.419 . S
C2140 C2138 1.415 1_556 S
C2140 C2145 1.425 1_556 S
C2140 C2147 1.409 . S
C2141 H2133 0.930 . S
C2141 C2139 1.419 . S
C2141 C2142 1.362 . S
C2142 H2134 0.930 . S
C2142 C2141 1.362 . S
C2142 C2145 1.409 . S
C2143 H2135 0.905 1_556 S
C2143 C2144 1.355 . S
C2143 C2145 1.415 1_556 S
C2144 C2143 1.355 . S
C2144 C2146 1.419 . S
C2145 C2140 1.425 1_554 S
C2145 C2142 1.409 . S
C2145 C2143 1.415 1_554 S
C2146 H2136 0.930 . S
C2146 C2144 1.419 . S
C2146 C2147 1.362 . S
C2147 H2137 0.930 . S
C2147 C2140 1.409 . S
C2147 C2146 1.362 . S
H2148 C2154 0.930 . S
H2149 C2157 0.930 . S
H2150 C2158 0.930 1_565 S
H2151 C2159 0.930 . S
H2152 C2162 0.930 . S
H2153 C2163 0.930 . S
C2154 H2148 0.930 . S
C2154 C2155 1.355 . S
C2154 C2156 1.415 . S
C2155 C2154 1.355 . S
C2155 C2157 1.419 . S
C2156 C2154 1.415 . S
C2156 C2161 1.425 . S
C2156 C2163 1.409 . S
C2157 H2149 0.930 . S
C2157 C2155 1.419 . S
C2157 C2158 1.362 . S
C2158 H2150 0.930 1_545 S
C2158 C2157 1.362 . S
C2158 C2161 1.409 . S
C2159 H2151 0.930 . S
C2159 C2160 1.355 1_565 S
C2159 C2161 1.415 1_565 S
C2160 C2159 1.355 1_545 S
C2160 C2162 1.419 . S
C2161 C2156 1.425 . S
C2161 C2158 1.409 . S
C2161 C2159 1.415 1_545 S
C2162 H2152 0.930 . S
C2162 C2160 1.419 . S
C2162 C2163 1.362 . S
C2163 H2153 0.930 . S
C2163 C2156 1.409 . S
C2163 C2162 1.362 . S
H2164 C2170 0.930 . S
H2165 C2173 0.930 . S
H2166 C2174 0.930 . S
H2167 C2175 0.930 . S
H2168 C2178 0.930 . S
H2169 C2179 0.930 . S
C2170 H2164 0.930 . S
C2170 C2171 1.355 . S
C2170 C2172 1.415 . S
C2171 C2170 1.355 . S
C2171 C2173 1.419 1_655 S
C2172 C2170 1.415 . S
C2172 C2177 1.425 1_655 S
C2172 C2179 1.409 . S
C2173 H2165 0.930 . S
C2173 C2171 1.419 1_455 S
C2173 C2174 1.362 . S
C2174 H2166 0.930 . S
C2174 C2173 1.362 . S
C2174 C2177 1.409 . S
C2175 H2167 0.930 . S
C2175 C2176 1.355 1_455 S
C2175 C2177 1.415 . S
C2176 C2175 1.355 1_655 S
C2176 C2178 1.419 . S
C2177 C2172 1.425 1_455 S
C2177 C2174 1.409 . S
C2177 C2175 1.415 . S
C2178 H2168 0.930 . S
C2178 C2176 1.419 . S
C2178 C2179 1.362 . S
C2179 H2169 0.930 . S
C2179 C2172 1.409 . S
C2179 C2178 1.362 . S
H2180 C2186 0.930 . S
H2181 C2189 0.930 . S
H2182 C2190 0.930 . S
H2183 C2191 0.930 . S
H2184 C2194 0.930 . S
H2185 C2195 0.930 . S
C2186 H2180 0.930 . S
C2186 C2187 1.355 . S
C2186 C2188 1.415 . S
C2187 C2186 1.355 . S
C2187 C2189 1.419 . S
C2188 C2186 1.415 . S
C2188 C2193 1.425 . S
C2188 C2195 1.409 . S
C2189 H2181 0.930 . S
C2189 C2187 1.419 . S
C2189 C2190 1.362 . S
C2190 H2182 0.930 . S
C2190 C2189 1.362 . S
C2190 C2193 1.409 . S
C2191 H2183 0.930 . S
C2191 C2192 1.355 . S
C2191 C2193 1.415 . S
C2192 C2191 1.355 . S
C2192 C2194 1.419 . S
C2193 C2188 1.425 . S
C2193 C2190 1.409 . S
C2193 C2191 1.415 . S
C2194 H2184 0.930 . S
C2194 C2192 1.419 . S
C2194 C2195 1.362 . S
C2195 H2185 0.930 . S
C2195 C2188 1.409 . S
C2195 C2194 1.362 . S
H2196 C2202 0.930 . S
H2197 C2205 0.930 . S
H2198 C2206 0.930 . S
H2199 C2207 0.930 . S
H2200 C2210 0.930 . S
H2201 C2211 0.930 . S
C2202 H2196 0.930 . S
C2202 C2203 1.355 . S
C2202 C2204 1.415 1_556 S
C2203 C2202 1.355 . S
C2203 C2205 1.419 . S
C2204 C2202 1.415 1_554 S
C2204 C2209 1.425 1_554 S
C2204 C2211 1.409 . S
C2205 H2197 0.930 . S
C2205 C2203 1.419 . S
C2205 C2206 1.362 . S
C2206 H2198 0.930 . S
C2206 C2205 1.362 . S
C2206 C2209 1.409 . S
C2207 H2199 0.930 . S
C2207 C2208 1.355 . S
C2207 C2209 1.415 1_554 S
C2208 C2207 1.355 . S
C2208 C2210 1.419 . S
C2209 C2204 1.425 1_556 S
C2209 C2206 1.409 . S
C2209 C2207 1.415 1_556 S
C2210 H2200 0.930 . S
C2210 C2208 1.419 . S
C2210 C2211 1.362 . S
C2211 H2201 0.930 . S
C2211 C2204 1.409 . S
C2211 C2210 1.362 . S
H2212 C2218 0.930 . S
H2213 C2221 0.930 . S
H2214 C2222 0.930 . S
H2215 C2223 0.930 . S
H2216 C2226 0.930 . S
H2217 C2227 0.930 . S
C2218 H2212 0.930 . S
C2218 C2219 1.355 . S
C2218 C2220 1.415 . S
C2219 C2218 1.355 . S
C2219 C2221 1.419 1_455 S
C2220 C2218 1.415 . S
C2220 C2225 1.425 1_554 S
C2220 C2227 1.409 . S
C2221 H2213 0.930 . S
C2221 C2219 1.419 1_655 S
C2221 C2222 1.362 1_654 S
C2222 H2214 0.930 . S
C2222 C2221 1.362 1_456 S
C2222 C2225 1.409 . S
C2223 H2215 0.930 . S
C2223 C2224 1.355 . S
C2223 C2225 1.415 . S
C2224 C2223 1.355 . S
C2224 C2226 1.419 . S
C2225 C2220 1.425 1_556 S
C2225 C2222 1.409 . S
C2225 C2223 1.415 . S
C2226 H2216 0.930 . S
C2226 C2224 1.419 . S
C2226 C2227 1.362 1_556 S
C2227 H2217 0.930 . S
C2227 C2220 1.409 . S
C2227 C2226 1.362 1_554 S
H2228 C2234 0.930 . S
H2229 C2237 0.910 1_554 S
H2230 C2238 0.930 . S
H2231 C2239 0.930 . S
H2232 C2242 0.923 1_556 S
H2233 C2243 0.930 . S
C2234 H2228 0.930 . S
C2234 C2235 1.355 . S
C2234 C2236 1.415 . S
C2235 C2234 1.355 . S
C2235 C2237 1.469 . S
C2236 C2234 1.415 . S
C2236 C2241 1.425 1_556 S
C2236 C2243 1.409 . S
C2237 H2229 0.910 1_556 S
C2237 C2235 1.469 . S
C2237 C2238 1.325 1_556 S
C2238 H2230 0.930 . S
C2238 C2237 1.325 1_554 S
C2238 C2241 1.409 . S
C2239 H2231 0.930 . S
C2239 C2240 1.355 . S
C2239 C2241 1.415 . S
C2240 C2239 1.355 . S
C2240 C2242 1.451 . S
C2241 C2236 1.425 1_554 S
C2241 C2238 1.409 . S
C2241 C2239 1.415 . S
C2242 H2232 0.923 1_554 S
C2242 C2240 1.451 . S
C2242 C2243 1.338 1_554 S
C2243 H2233 0.930 . S
C2243 C2236 1.409 . S
C2243 C2242 1.338 1_556 S
H2244 C2250 0.930 1_655 S
H2245 C2253 0.930 . S
H2246 C2254 0.930 . S
H2247 C2255 0.930 . S
H2248 C2258 0.930 . S
H2249 C2259 0.930 . S
C2250 H2244 0.930 1_455 S
C2250 C2251 1.355 . S
C2250 C2252 1.415 . S
C2251 C2250 1.355 . S
C2251 C2253 1.419 . S
C2252 C2250 1.415 . S
C2252 C2257 1.425 . S
C2252 C2259 1.409 . S
C2253 H2245 0.930 . S
C2253 C2251 1.419 . S
C2253 C2254 1.362 . S
C2254 H2246 0.930 . S
C2254 C2253 1.362 . S
C2254 C2257 1.409 . S
C2255 H2247 0.930 . S
C2255 C2256 1.355 . S
C2255 C2257 1.415 . S
C2256 C2255 1.355 . S
C2256 C2258 1.419 . S
C2257 C2252 1.425 . S
C2257 C2254 1.409 . S
C2257 C2255 1.415 . S
C2258 H2248 0.930 . S
C2258 C2256 1.419 . S
C2258 C2259 1.362 . S
C2259 H2249 0.930 . S
C2259 C2252 1.409 . S
C2259 C2258 1.362 . S
H2260 C2266 0.930 . S
H2261 C2269 0.930 . S
H2262 C2270 0.930 . S
H2263 C2271 0.930 . S
H2264 C2274 0.930 . S
H2265 C2275 0.930 . S
C2266 H2260 0.930 . S
C2266 C2267 1.355 . S
C2266 C2268 1.415 . S
C2267 C2266 1.355 . S
C2267 C2269 1.419 . S
C2268 C2266 1.415 . S
C2268 C2273 1.425 . S
C2268 C2275 1.409 . S
C2269 H2261 0.930 . S
C2269 C2267 1.419 . S
C2269 C2270 1.362 . S
C2270 H2262 0.930 . S
C2270 C2269 1.362 . S
C2270 C2273 1.409 . S
C2271 H2263 0.930 . S
C2271 C2272 1.355 . S
C2271 C2273 1.415 . S
C2272 C2271 1.355 . S
C2272 C2274 1.419 . S
C2273 C2268 1.425 . S
C2273 C2270 1.409 . S
C2273 C2271 1.415 . S
C2274 H2264 0.930 . S
C2274 C2272 1.419 . S
C2274 C2275 1.362 . S
C2275 H2265 0.930 . S
C2275 C2268 1.409 . S
C2275 C2274 1.362 . S
H2276 C2282 0.930 . S
H2277 C2285 0.930 . S
H2278 C2286 0.930 . S
H2279 C2287 0.930 . S
H2280 C2290 0.930 . S
H2281 C2291 0.930 . S
C2282 H2276 0.930 . S
C2282 C2283 1.355 . S
C2282 C2284 1.415 . S
C2283 C2282 1.355 . S
C2283 C2285 1.419 . S
C2284 C2282 1.415 . S
C2284 C2289 1.425 . S
C2284 C2291 1.409 . S
C2285 H2277 0.930 . S
C2285 C2283 1.419 . S
C2285 C2286 1.362 . S
C2286 H2278 0.930 . S
C2286 C2285 1.362 . S
C2286 C2289 1.409 . S
C2287 H2279 0.930 . S
C2287 C2288 1.355 . S
C2287 C2289 1.415 . S
C2288 C2287 1.355 . S
C2288 C2290 1.419 1_565 S
C2289 C2284 1.425 . S
C2289 C2286 1.409 . S
C2289 C2287 1.415 . S
C2290 H2280 0.930 . S
C2290 C2288 1.419 1_545 S
C2290 C2291 1.362 1_545 S
C2291 H2281 0.930 . S
C2291 C2284 1.409 . S
C2291 C2290 1.362 1_565 S
H2292 C2298 0.930 1_455 S
H2293 C2301 0.930 . S
H2294 C2302 0.930 . S
H2295 C2303 0.930 . S
H2296 C2306 0.930 . S
H2297 C2307 0.930 . S
C2298 H2292 0.930 1_655 S
C2298 C2299 1.355 . S
C2298 C2300 1.420 1_655 S
C2299 C2298 1.355 . S
C2299 C2301 1.419 . S
C2300 C2298 1.420 1_455 S
C2300 C2305 1.413 1_455 S
C2300 C2307 1.416 . S
C2301 H2293 0.930 . S
C2301 C2299 1.419 . S
C2301 C2302 1.362 . S
C2302 H2294 0.930 . S
C2302 C2301 1.362 . S
C2302 C2305 1.409 . S
C2303 H2295 0.930 . S
C2303 C2304 1.355 1_655 S
C2303 C2305 1.415 . S
C2304 C2303 1.355 1_455 S
C2304 C2306 1.419 . S
C2305 C2300 1.413 1_655 S
C2305 C2302 1.409 . S
C2305 C2303 1.415 . S
C2306 H2296 0.930 . S
C2306 C2304 1.419 . S
C2306 C2307 1.362 . S
C2307 H2297 0.930 . S
C2307 C2300 1.416 . S
C2307 C2306 1.362 . S
H2308 C2314 0.930 . S
H2309 C2317 0.930 . S
H2310 C2318 0.930 . S
H2311 C2319 0.930 . S
H2312 C2322 0.930 . S
H2313 C2323 0.930 . S
C2314 H2308 0.930 . S
C2314 C2315 1.355 . S
C2314 C2316 1.415 . S
C2315 C2314 1.355 . S
C2315 C2317 1.419 . S
C2316 C2314 1.415 . S
C2316 C2321 1.425 . S
C2316 C2323 1.409 . S
C2317 H2309 0.930 . S
C2317 C2315 1.419 . S
C2317 C2318 1.362 . S
C2318 H2310 0.930 . S
C2318 C2317 1.362 . S
C2318 C2321 1.409 . S
C2319 H2311 0.930 . S
C2319 C2320 1.355 . S
C2319 C2321 1.415 . S
C2320 C2319 1.355 . S
C2320 C2322 1.419 . S
C2321 C2316 1.425 . S
C2321 C2318 1.409 . S
C2321 C2319 1.415 . S
C2322 H2312 0.930 . S
C2322 C2320 1.419 . S
C2322 C2323 1.362 . S
C2323 H2313 0.930 . S
C2323 C2316 1.409 . S
C2323 C2322 1.362 . S
H2324 C2330 0.930 . S
H2325 C2333 0.930 . S
H2326 C2334 0.930 . S
H2327 C2335 0.930 . S
H2328 C2338 0.930 1_565 S
H2329 C2339 0.930 . S
C2330 H2324 0.930 . S
C2330 C2331 1.355 . S
C2330 C2332 1.415 . S
C2331 C2330 1.355 . S
C2331 C2333 1.419 . S
C2332 C2330 1.415 . S
C2332 C2337 1.425 . S
C2332 C2339 1.409 . S
C2333 H2325 0.930 . S
C2333 C2331 1.419 . S
C2333 C2334 1.362 . S
C2334 H2326 0.930 . S
C2334 C2333 1.362 . S
C2334 C2337 1.409 . S
C2335 H2327 0.930 . S
C2335 C2336 1.355 . S
C2335 C2337 1.415 . S
C2336 C2335 1.355 . S
C2336 C2338 1.419 . S
C2337 C2332 1.425 . S
C2337 C2334 1.409 . S
C2337 C2335 1.415 . S
C2338 H2328 0.930 1_545 S
C2338 C2336 1.419 . S
C2338 C2339 1.362 . S
C2339 H2329 0.930 . S
C2339 C2332 1.409 . S
C2339 C2338 1.362 . S
H2340 C2346 0.930 . S
H2341 C2349 0.930 . S
H2342 C2350 0.930 . S
H2343 C2351 0.930 . S
H2344 C2354 0.930 . S
H2345 C2355 0.930 . S
C2346 H2340 0.930 . S
C2346 C2347 1.355 . S
C2346 C2348 1.415 1_655 S
C2347 C2346 1.355 . S
C2347 C2349 1.419 . S
C2348 C2346 1.415 1_455 S
C2348 C2353 1.425 1_455 S
C2348 C2355 1.409 . S
C2349 H2341 0.930 . S
C2349 C2347 1.419 . S
C2349 C2350 1.362 . S
C2350 H2342 0.930 . S
C2350 C2349 1.362 . S
C2350 C2353 1.409 . S
C2351 H2343 0.930 . S
C2351 C2352 1.355 . S
C2351 C2353 1.415 1_455 S
C2352 C2351 1.355 . S
C2352 C2354 1.419 . S
C2353 C2348 1.425 1_655 S
C2353 C2350 1.409 . S
C2353 C2351 1.415 1_655 S
C2354 H2344 0.930 . S
C2354 C2352 1.419 . S
C2354 C2355 1.362 . S
C2355 H2345 0.930 . S
C2355 C2348 1.409 . S
C2355 C2354 1.362 . S
H2356 C2362 0.930 . S
H2357 C2365 0.930 . S
H2358 C2366 0.930 . S
H2359 C2367 0.930 . S
H2360 C2370 0.930 . S
H2361 C2371 0.930 . S
C2362 H2356 0.930 . S
C2362 C2363 1.355 . S
C2362 C2364 1.415 . S
C2363 C2362 1.355 . S
C2363 C2365 1.419 . S
C2364 C2362 1.415 . S
C2364 C2369 1.425 . S
C2364 C2371 1.409 . S
C2365 H2357 0.930 . S
C2365 C2363 1.419 . S
C2365 C2366 1.362 . S
C2366 H2358 0.930 . S
C2366 C2365 1.362 . S
C2366 C2369 1.409 . S
C2367 H2359 0.930 . S
C2367 C2368 1.355 . S
C2367 C2369 1.415 . S
C2368 C2367 1.355 . S
C2368 C2370 1.419 . S
C2369 C2364 1.425 . S
C2369 C2366 1.409 . S
C2369 C2367 1.415 . S
C2370 H2360 0.930 . S
C2370 C2368 1.419 . S
C2370 C2371 1.362 . S
C2371 H2361 0.930 . S
C2371 C2364 1.409 . S
C2371 C2370 1.362 . S
H2372 C2378 0.930 . S
H2373 C2381 0.930 . S
H2374 C2382 0.930 . S
H2375 C2383 0.930 . S
H2376 C2386 0.930 . S
H2377 C2387 0.930 . S
C2378 H2372 0.930 . S
C2378 C2379 1.355 . S
C2378 C2380 1.415 . S
C2379 C2378 1.355 . S
C2379 C2381 1.419 . S
C2380 C2378 1.415 . S
C2380 C2385 1.425 1_565 S
C2380 C2387 1.409 . S
C2381 H2373 0.930 . S
C2381 C2379 1.419 . S
C2381 C2382 1.362 1_565 S
C2382 H2374 0.930 . S
C2382 C2381 1.362 1_545 S
C2382 C2385 1.409 . S
C2383 H2375 0.930 . S
C2383 C2384 1.355 . S
C2383 C2385 1.415 . S
C2384 C2383 1.355 . S
C2384 C2386 1.419 . S
C2385 C2380 1.425 1_545 S
C2385 C2382 1.409 . S
C2385 C2383 1.415 . S
C2386 H2376 0.930 . S
C2386 C2384 1.419 . S
C2386 C2387 1.362 1_545 S
C2387 H2377 0.930 . S
C2387 C2380 1.409 . S
C2387 C2386 1.362 1_565 S
H2388 C2394 0.930 . S
H2389 C2397 0.930 . S
H2390 C2398 0.930 . S
H2391 C2399 0.930 . S
H2392 C2402 0.930 . S
H2393 C2403 0.930 . S
C2394 H2388 0.930 . S
C2394 C2395 1.355 . S
C2394 C2396 1.415 1_655 S
C2395 C2394 1.355 . S
C2395 C2397 1.419 . S
C2396 C2394 1.415 1_455 S
C2396 C2401 1.425 1_455 S
C2396 C2403 1.409 . S
C2397 H2389 0.930 . S
C2397 C2395 1.419 . S
C2397 C2398 1.362 . S
C2398 H2390 0.930 . S
C2398 C2397 1.362 . S
C2398 C2401 1.409 . S
C2399 H2391 0.930 . S
C2399 C2400 1.355 . S
C2399 C2401 1.415 1_455 S
C2400 C2399 1.355 . S
C2400 C2402 1.419 . S
C2401 C2396 1.425 1_655 S
C2401 C2398 1.409 . S
C2401 C2399 1.415 1_655 S
C2402 H2392 0.930 . S
C2402 C2400 1.419 . S
C2402 C2403 1.362 . S
C2403 H2393 0.930 . S
C2403 C2396 1.409 . S
C2403 C2402 1.362 . S
H2404 C2410 0.930 . S
H2405 C2413 0.930 . S
H2406 C2414 0.930 . S
H2407 C2415 0.930 . S
H2408 C2418 0.930 . S
H2409 C2419 0.930 . S
C2410 H2404 0.930 . S
C2410 C2411 1.355 . S
C2410 C2412 1.415 . S
C2411 C2410 1.355 . S
C2411 C2413 1.419 . S
C2412 C2410 1.415 . S
C2412 C2417 1.425 . S
C2412 C2419 1.409 . S
C2413 H2405 0.930 . S
C2413 C2411 1.419 . S
C2413 C2414 1.362 . S
C2414 H2406 0.930 . S
C2414 C2413 1.362 . S
C2414 C2417 1.409 . S
C2415 H2407 0.930 . S
C2415 C2416 1.355 . S
C2415 C2417 1.415 . S
C2416 C2415 1.355 . S
C2416 C2418 1.419 . S
C2417 C2412 1.425 . S
C2417 C2414 1.409 . S
C2417 C2415 1.415 . S
C2418 H2408 0.930 . S
C2418 C2416 1.419 . S
C2418 C2419 1.362 . S
C2419 H2409 0.930 . S
C2419 C2412 1.409 . S
C2419 C2418 1.362 . S
H2420 C2426 0.930 . S
H2421 C2429 0.930 . S
H2422 C2430 0.930 . S
H2423 C2431 0.930 . S
H2424 C2434 0.930 . S
H2425 C2435 0.930 . S
C2426 H2420 0.930 . S
C2426 C2427 1.355 . S
C2426 C2428 1.415 . S
C2427 C2426 1.355 . S
C2427 C2429 1.419 . S
C2428 C2426 1.415 . S
C2428 C2433 1.425 1_545 S
C2428 C2435 1.409 1_545 S
C2429 H2421 0.930 . S
C2429 C2427 1.419 . S
C2429 C2430 1.362 . S
C2430 H2422 0.930 . S
C2430 C2429 1.362 . S
C2430 C2433 1.409 1_545 S
C2431 H2423 0.930 . S
C2431 C2432 1.355 . S
C2431 C2433 1.415 . S
C2432 C2431 1.355 . S
C2432 C2434 1.419 . S
C2433 C2428 1.425 1_565 S
C2433 C2430 1.409 1_565 S
C2433 C2431 1.415 . S
C2434 H2424 0.930 . S
C2434 C2432 1.419 . S
C2434 C2435 1.362 . S
C2435 H2425 0.930 . S
C2435 C2428 1.409 1_565 S
C2435 C2434 1.362 . S
H2436 C2442 0.930 . S
H2437 C2445 0.930 . S
H2438 C2446 0.930 . S
H2439 C2447 0.930 . S
H2440 C2450 0.930 . S
H2441 C2451 0.930 . S
C2442 H2436 0.930 . S
C2442 C2443 1.355 . S
C2442 C2444 1.415 . S
C2443 C2442 1.355 . S
C2443 C2445 1.419 . S
C2444 C2442 1.415 . S
C2444 C2449 1.425 . S
C2444 C2451 1.409 . S
C2445 H2437 0.930 . S
C2445 C2443 1.419 . S
C2445 C2446 1.362 . S
C2446 H2438 0.930 . S
C2446 C2445 1.362 . S
C2446 C2449 1.409 . S
C2447 H2439 0.930 . S
C2447 C2448 1.355 . S
C2447 C2449 1.415 . S
C2448 C2447 1.355 . S
C2448 C2450 1.419 . S
C2449 C2444 1.425 . S
C2449 C2446 1.409 . S
C2449 C2447 1.415 . S
C2450 H2440 0.930 . S
C2450 C2448 1.419 . S
C2450 C2451 1.362 . S
C2451 H2441 0.930 . S
C2451 C2444 1.409 . S
C2451 C2450 1.362 . S
H2452 C2458 0.930 . S
H2453 C2461 0.930 1_565 S
H2454 C2462 0.930 1_565 S
H2455 C2463 0.930 . S
H2456 C2466 0.930 . S
H2457 C2467 0.930 . S
C2458 H2452 0.930 . S
C2458 C2459 1.355 . S
C2458 C2460 1.415 . S
C2459 C2458 1.355 . S
C2459 C2461 1.419 . S
C2460 C2458 1.415 . S
C2460 C2465 1.425 . S
C2460 C2467 1.409 . S
C2461 H2453 0.930 1_545 S
C2461 C2459 1.419 . S
C2461 C2462 1.362 . S
C2462 H2454 0.930 1_545 S
C2462 C2461 1.362 . S
C2462 C2465 1.409 . S
C2463 H2455 0.930 . S
C2463 C2464 1.355 . S
C2463 C2465 1.415 . S
C2464 C2463 1.355 . S
C2464 C2466 1.419 . S
C2465 C2460 1.425 . S
C2465 C2462 1.409 . S
C2465 C2463 1.415 . S
C2466 H2456 0.930 . S
C2466 C2464 1.419 . S
C2466 C2467 1.362 . S
C2467 H2457 0.930 . S
C2467 C2460 1.409 . S
C2467 C2466 1.362 . S
H2468 C2474 0.930 . S
H2469 C2477 0.930 . S
H2470 C2478 0.930 . S
H2471 C2479 0.930 . S
H2472 C2482 0.930 . S
H2473 C2483 0.930 . S
C2474 H2468 0.930 . S
C2474 C2475 1.355 . S
C2474 C2476 1.415 . S
C2475 C2474 1.355 . S
C2475 C2477 1.419 . S
C2476 C2474 1.415 . S
C2476 C2481 1.425 . S
C2476 C2483 1.409 . S
C2477 H2469 0.930 . S
C2477 C2475 1.419 . S
C2477 C2478 1.362 . S
C2478 H2470 0.930 . S
C2478 C2477 1.362 . S
C2478 C2481 1.409 . S
C2479 H2471 0.930 . S
C2479 C2480 1.355 . S
C2479 C2481 1.415 . S
C2480 C2479 1.355 . S
C2480 C2482 1.419 . S
C2481 C2476 1.425 . S
C2481 C2478 1.409 . S
C2481 C2479 1.415 . S
C2482 H2472 0.930 . S
C2482 C2480 1.419 . S
C2482 C2483 1.362 . S
C2483 H2473 0.930 . S
C2483 C2476 1.409 . S
C2483 C2482 1.362 . S
H2484 C2490 0.930 . S
H2485 C2493 0.930 . S
H2486 C2494 0.930 . S
H2487 C2495 0.927 1_565 S
H2488 C2498 0.930 . S
H2489 C2499 0.930 . S
C2490 H2484 0.930 . S
C2490 C2491 1.355 . S
C2490 C2492 1.415 . S
C2491 C2490 1.355 . S
C2491 C2493 1.419 . S
C2492 C2490 1.415 . S
C2492 C2497 1.425 . S
C2492 C2499 1.409 . S
C2493 H2485 0.930 . S
C2493 C2491 1.419 . S
C2493 C2494 1.362 . S
C2494 H2486 0.930 . S
C2494 C2493 1.362 . S
C2494 C2497 1.409 . S
C2495 H2487 0.927 1_545 S
C2495 C2496 1.355 . S
C2495 C2497 1.415 . S
C2496 C2495 1.355 . S
C2496 C2498 1.419 . S
C2497 C2492 1.425 . S
C2497 C2494 1.409 . S
C2497 C2495 1.415 . S
C2498 H2488 0.930 . S
C2498 C2496 1.419 . S
C2498 C2499 1.362 . S
C2499 H2489 0.930 . S
C2499 C2492 1.409 . S
C2499 C2498 1.362 . S
H2500 C2506 0.930 . S
H2501 C2509 0.930 . S
H2502 C2510 0.930 . S
H2503 C2511 0.930 . S
H2504 C2514 0.930 . S
H2505 C2515 0.930 . S
C2506 H2500 0.930 . S
C2506 C2507 1.355 . S
C2506 C2508 1.415 . S
C2507 C2506 1.355 . S
C2507 C2509 1.419 . S
C2508 C2506 1.415 . S
C2508 C2513 1.425 . S
C2508 C2515 1.409 . S
C2509 H2501 0.930 . S
C2509 C2507 1.419 . S
C2509 C2510 1.362 . S
C2510 H2502 0.930 . S
C2510 C2509 1.362 . S
C2510 C2513 1.409 . S
C2511 H2503 0.930 . S
C2511 C2512 1.355 . S
C2511 C2513 1.415 . S
C2512 C2511 1.355 . S
C2512 C2514 1.419 . S
C2513 C2508 1.425 . S
C2513 C2510 1.409 . S
C2513 C2511 1.415 . S
C2514 H2504 0.930 . S
C2514 C2512 1.419 . S
C2514 C2515 1.362 . S
C2515 H2505 0.930 . S
C2515 C2508 1.409 . S
C2515 C2514 1.362 . S
H2516 C2522 0.930 . S
H2517 C2525 0.930 . S
H2518 C2526 0.930 . S
H2519 C2527 0.930 . S
H2520 C2530 0.930 . S
H2521 C2531 0.930 . S
C2522 H2516 0.930 . S
C2522 C2523 1.355 . S
C2522 C2524 1.415 . S
C2523 C2522 1.355 . S
C2523 C2525 1.419 . S
C2524 C2522 1.415 . S
C2524 C2529 1.425 . S
C2524 C2531 1.409 . S
C2525 H2517 0.930 . S
C2525 C2523 1.419 . S
C2525 C2526 1.362 . S
C2526 H2518 0.930 . S
C2526 C2525 1.362 . S
C2526 C2529 1.409 . S
C2527 H2519 0.930 . S
C2527 C2528 1.355 . S
C2527 C2529 1.415 . S
C2528 C2527 1.355 . S
C2528 C2530 1.419 . S
C2529 C2524 1.425 . S
C2529 C2526 1.409 . S
C2529 C2527 1.415 . S
C2530 H2520 0.930 . S
C2530 C2528 1.419 . S
C2530 C2531 1.362 . S
C2531 H2521 0.930 . S
C2531 C2524 1.409 . S
C2531 C2530 1.362 . S
H2532 C2538 0.930 . S
H2533 C2541 0.930 . S
H2534 C2542 0.930 . S
H2535 C2543 0.930 . S
H2536 C2546 0.930 . S
H2537 C2547 0.930 . S
C2538 H2532 0.930 . S
C2538 C2539 1.355 . S
C2538 C2540 1.415 . S
C2539 C2538 1.355 . S
C2539 C2541 1.419 . S
C2540 C2538 1.415 . S
C2540 C2545 1.425 . S
C2540 C2547 1.409 . S
C2541 H2533 0.930 . S
C2541 C2539 1.419 . S
C2541 C2542 1.362 . S
C2542 H2534 0.930 . S
C2542 C2541 1.362 . S
C2542 C2545 1.409 . S
C2543 H2535 0.930 . S
C2543 C2544 1.355 . S
C2543 C2545 1.415 . S
C2544 C2543 1.355 . S
C2544 C2546 1.419 . S
C2545 C2540 1.425 . S
C2545 C2542 1.409 . S
C2545 C2543 1.415 . S
C2546 H2536 0.930 . S
C2546 C2544 1.419 . S
C2546 C2547 1.362 . S
C2547 H2537 0.930 . S
C2547 C2540 1.409 . S
C2547 C2546 1.362 . S
H2548 C2554 0.930 . S
H2549 C2557 0.930 1_655 S
H2550 C2558 0.930 1_655 S
H2551 C2559 0.930 . S
H2552 C2562 0.930 . S
H2553 C2563 0.930 . S
C2554 H2548 0.930 . S
C2554 C2555 1.355 . S
C2554 C2556 1.415 . S
C2555 C2554 1.355 . S
C2555 C2557 1.419 . S
C2556 C2554 1.415 . S
C2556 C2561 1.425 . S
C2556 C2563 1.409 . S
C2557 H2549 0.930 1_455 S
C2557 C2555 1.419 . S
C2557 C2558 1.362 . S
C2558 H2550 0.930 1_455 S
C2558 C2557 1.362 . S
C2558 C2561 1.409 . S
C2559 H2551 0.930 . S
C2559 C2560 1.355 . S
C2559 C2561 1.415 . S
C2560 C2559 1.355 . S
C2560 C2562 1.419 . S
C2561 C2556 1.425 . S
C2561 C2558 1.409 . S
C2561 C2559 1.415 . S
C2562 H2552 0.930 . S
C2562 C2560 1.419 . S
C2562 C2563 1.362 . S
C2563 H2553 0.930 . S
C2563 C2556 1.409 . S
C2563 C2562 1.362 . S
H2564 C2570 0.930 . S
H2565 C2573 0.930 . S
H2566 C2574 0.930 . S
H2567 C2575 0.930 . S
H2568 C2578 0.930 . S
H2569 C2579 0.930 . S
C2570 H2564 0.930 . S
C2570 C2571 1.355 . S
C2570 C2572 1.415 . S
C2571 C2570 1.355 . S
C2571 C2573 1.419 . S
C2572 C2570 1.415 . S
C2572 C2577 1.425 . S
C2572 C2579 1.409 . S
C2573 H2565 0.930 . S
C2573 C2571 1.419 . S
C2573 C2574 1.362 . S
C2574 H2566 0.930 . S
C2574 C2573 1.362 . S
C2574 C2577 1.409 . S
C2575 H2567 0.930 . S
C2575 C2576 1.355 . S
C2575 C2577 1.415 . S
C2576 C2575 1.355 . S
C2576 C2578 1.419 . S
C2577 C2572 1.425 . S
C2577 C2574 1.409 . S
C2577 C2575 1.415 . S
C2578 H2568 0.930 . S
C2578 C2576 1.419 . S
C2578 C2579 1.362 . S
C2579 H2569 0.930 . S
C2579 C2572 1.409 . S
C2579 C2578 1.362 . S
H2580 C2586 0.930 . S
H2581 C2589 0.930 . S
H2582 C2590 0.930 . S
H2583 C2591 0.930 . S
H2584 C2594 0.930 . S
H2585 C2595 0.930 . S
C2586 H2580 0.930 . S
C2586 C2587 1.355 . S
C2586 C2588 1.415 . S
C2587 C2586 1.355 . S
C2587 C2589 1.419 . S
C2588 C2586 1.415 . S
C2588 C2593 1.425 . S
C2588 C2595 1.409 . S
C2589 H2581 0.930 . S
C2589 C2587 1.419 . S
C2589 C2590 1.362 . S
C2590 H2582 0.930 . S
C2590 C2589 1.362 . S
C2590 C2593 1.409 . S
C2591 H2583 0.930 . S
C2591 C2592 1.355 . S
C2591 C2593 1.415 . S
C2592 C2591 1.355 . S
C2592 C2594 1.419 . S
C2593 C2588 1.425 . S
C2593 C2590 1.409 . S
C2593 C2591 1.415 . S
C2594 H2584 0.930 . S
C2594 C2592 1.419 . S
C2594 C2595 1.362 . S
C2595 H2585 0.930 . S
C2595 C2588 1.409 . S
C2595 C2594 1.362 . S
H2596 C2602 0.930 . S
H2597 C2605 0.930 . S
H2598 C2606 0.930 . S
H2599 C2607 0.930 . S
H2600 C2610 0.930 . S
H2601 C2611 0.930 . S
C2602 H2596 0.930 . S
C2602 C2603 1.355 . S
C2602 C2604 1.415 . S
C2603 C2602 1.355 . S
C2603 C2605 1.419 . S
C2604 C2602 1.415 . S
C2604 C2609 1.425 . S
C2604 C2611 1.409 . S
C2605 H2597 0.930 . S
C2605 C2603 1.419 . S
C2605 C2606 1.362 . S
C2606 H2598 0.930 . S
C2606 C2605 1.362 . S
C2606 C2609 1.409 . S
C2607 H2599 0.930 . S
C2607 C2608 1.355 . S
C2607 C2609 1.415 . S
C2608 C2607 1.355 . S
C2608 C2610 1.419 . S
C2609 C2604 1.425 . S
C2609 C2606 1.409 . S
C2609 C2607 1.415 . S
C2610 H2600 0.930 . S
C2610 C2608 1.419 . S
C2610 C2611 1.362 . S
C2611 H2601 0.930 . S
C2611 C2604 1.409 . S
C2611 C2610 1.362 . S
H2612 C2618 0.930 . S
H2613 C2621 0.930 . S
H2614 C2622 0.958 . S
H2615 C2623 0.930 1_655 S
H2616 C2626 0.930 . S
H2617 C2627 0.930 . S
C2618 H2612 0.930 . S
C2618 C2619 1.355 . S
C2618 C2620 1.415 . S
C2619 C2618 1.355 . S
C2619 C2621 1.419 . S
C2620 C2618 1.415 . S
C2620 C2625 1.425 . S
C2620 C2627 1.409 . S
C2621 H2613 0.930 . S
C2621 C2619 1.419 . S
C2621 C2622 1.362 . S
C2622 H2614 0.958 . S
C2622 C2621 1.362 . S
C2622 C2625 1.409 . S
C2623 H2615 0.930 1_455 S
C2623 C2624 1.355 . S
C2623 C2625 1.415 . S
C2624 C2623 1.355 . S
C2624 C2626 1.419 . S
C2625 C2620 1.425 . S
C2625 C2622 1.409 . S
C2625 C2623 1.415 . S
C2626 H2616 0.930 . S
C2626 C2624 1.419 . S
C2626 C2627 1.362 . S
C2627 H2617 0.930 . S
C2627 C2620 1.409 . S
C2627 C2626 1.362 . S
C1195 N2 1.198 . S
C1200 C73 1.201 1_545 S
C1211 C7 1.211 1_655 S
C1216 N35 1.220 . S
C1227 C40 1.110 . S
C1232 N68 1.119 . S
C1243 C139 1.181 1_455 S
C1248 N101 1.192 . S
C1259 C172 1.119 . S
C1264 N134 1.118 . S
C1275 C106 1.113 1_565 S
C1280 N167 1.114 . S
C1291 C271 1.221 1_565 S
C1296 N200 1.219 . S
C1307 N233 1.113 . S
C1312 C205 1.113 1_455 S
C1323 C238 1.207 . S
C1328 N266 1.204 . S
C1339 C337 1.099 1_655 S
C1344 N299 1.103 . S
C1355 N332 1.205 . S
C1360 C370 1.195 . S
C1371 C304 1.195 1_545 S
C1376 N365 1.205 . S
C1387 N398 1.201 . S
C1392 C469 1.191 . S
C1403 N431 1.133 . S
C1408 C403 1.122 . S
C1419 N464 1.227 . S
C1424 C436 1.220 . S
C1435 C535 1.133 . S
C1440 N497 1.131 . S
C1451 C568 1.109 . S
C1456 N530 1.110 . S
C1467 N563 1.236 . S
C1472 C502 1.233 . S
C1483 N596 1.127 . S
C1488 C667 1.128 . S
C1499 N629 1.106 . S
C1504 C601 1.104 . S
C1515 N662 1.235 . S
C1520 C634 1.233 . S
C1531 C733 1.103 . S
C1536 N695 1.106 . S
C1547 C766 1.233 . S
C1552 N728 1.236 . S
C1563 N761 1.202 . S
C1568 C700 1.192 . S
C1579 C865 1.104 . S
C1584 N794 1.113 . S
C1595 C799 1.233 . S
C1600 N827 1.236 . S
C1611 N860 1.174 . S
C1616 C832 1.178 . S
C1627 C931 1.226 . S
C1632 N893 1.232 . S
C1643 N926 1.236 . S
C1648 C964 1.233 . S
C1659 C898 1.121 . S
C1664 N959 1.120 . S
C1675 C1063 1.110 . S
C1680 N992 1.120 . S
C1691 N1025 1.115 . S
C1696 C997 1.115 . S
C1707 N1058 1.106 . S
C1712 C1030 1.099 . S
C1723 C1129 1.227 . S
C1728 N1091 1.233 . S
C1739 C1162 1.179 . S
C1744 N1124 1.176 . S
C1755 N1157 1.181 . S
C1760 C1096 1.185 . S
C1771 N673 1.450 . S
C1776 C18 1.433 . S
C1787 C51 1.418 . S
C1792 N607 1.454 . S
C1803 C84 1.413 . S
C1808 N640 1.461 . S
C1819 N1135 1.463 . S
C1824 C117 1.412 . S
C1835 N1168 1.459 . S
C1840 C150 1.414 . S
C1851 C183 1.459 . S
C1856 N1102 1.415 . S
C1867 C216 1.436 . S
C1872 N871 1.447 . S
C1883 C249 1.414 . S
C1888 N805 1.460 . S
C1899 C282 1.435 . S
C1904 N838 1.436 . S
C1915 N541 1.425 . S
C1920 C315 1.448 . S
C1931 C348 1.416 . S
C1936 N574 1.464 . S
C1947 C381 1.459 . S
C1952 N508 1.415 . S
C1963 C414 1.413 . S
C1968 N1069 1.465 1_655 S
C1979 N1003 1.413 . S
C1984 C447 1.460 . S
C1995 N1036 1.420 1_545 S
C2000 C480 1.460 . S
C2011 C513 1.431 . S
C2016 N343 1.439 . S
C2027 C546 1.441 . S
C2032 N376 1.430 . S
C2043 C579 1.412 . S
C2048 N310 1.466 . S
C2059 N79 1.456 . S
C2064 C612 1.417 . S
C2075 C645 1.418 . S
C2080 N13 1.455 . S
C2091 C678 1.412 . S
C2096 N46 1.466 . S
C2107 N937 1.411 1_545 S
C2112 C711 1.464 . S
C2123 C744 1.458 . S
C2128 N970 1.423 1_655 S
C2139 C777 1.426 . S
C2144 N904 1.456 . S
C2155 N277 1.423 . S
C2160 C810 1.448 1_545 S
C2171 N211 1.419 . S
C2176 C843 1.462 1_655 S
C2187 C876 1.413 . S
C2192 N244 1.461 . S
C2203 C909 1.412 . S
C2208 N739 1.466 1_565 S
C2219 N772 1.462 1_455 S
C2224 C942 1.412 . S
C2235 C975 1.461 . S
C2240 N706 1.413 . S
C2251 N475 1.435 1_455 S
C2256 C1008 1.449 . S
C2267 C1041 1.412 . S
C2272 N409 1.464 . S
C2283 C1074 1.440 . S
C2288 N442 1.431 1_565 S
C2299 N145 1.462 . S
C2304 C1107 1.413 . S
C2315 C1140 1.412 . S
C2320 N178 1.462 . S
C2331 N112 1.460 . S
C2336 C1173 1.421 1_545 S
C2347 C153 1.660 . S
C2352 C21 1.630 . S
C2363 C54 1.663 . S
C2368 C186 1.656 . S
C2379 C87 1.585 . S
C2384 C120 1.617 . S
C2395 C219 1.630 . S
C2400 C351 1.660 . S
C2411 C252 1.607 . S
C2416 C384 1.644 . S
C2427 C285 1.659 . S
C2432 C318 1.627 . S
C2443 C549 1.607 . S
C2448 C417 1.581 . S
C2459 C582 1.637 . S
C2464 C450 1.599 . S
C2475 C516 1.638 . S
C2480 C483 1.663 . S
C2491 C747 1.650 . S
C2496 C615 1.614 . S
C2507 C780 1.663 . S
C2512 C648 1.654 . S
C2523 C714 1.599 . S
C2528 C681 1.579 . S
C2539 C945 1.585 . S
C2544 C813 1.617 . S
C2555 C846 1.646 . S
C2560 C978 1.609 . S
C2571 C912 1.591 . S
C2576 C879 1.627 . S
C2587 C1143 1.650 . S
C2592 C1011 1.664 . S
C2603 C1176 1.659 . S
C2608 C1044 1.661 . S
C2619 C1077 1.648 . S
C2624 C1110 1.611 . S
