# Generated by pormake.
# Topology vmf, (6)-cn, num edge types: 1
# Building blocks:
#     Node 0, Type 0, BuildingBlock: OJICUG_clean_sbu_0, # of connection points: 6
#     Node 1, Type 0, BuildingBlock: OJICUG_clean_sbu_0, # of connection points: 6
#     Node 2, Type 0, BuildingBlock: OJICUG_clean_sbu_0, # of connection points: 6
#     Node 3, Type 0, BuildingBlock: OJICUG_clean_sbu_0, # of connection points: 6
#     Node 4, Type 0, BuildingBlock: OJICUG_clean_sbu_0, # of connection points: 6
#     Node 5, Type 0, BuildingBlock: OJICUG_clean_sbu_0, # of connection points: 6
#     Node 6, Type 0, BuildingBlock: OJICUG_clean_sbu_0, # of connection points: 6
#     Node 7, Type 0, BuildingBlock: OJICUG_clean_sbu_0, # of connection points: 6
#     Edge 8, Type (0, 0), BuildingBlock: OJICUG_clean_linker_0, # of connection points: 2
#     Edge 9, Type (0, 0), BuildingBlock: OJICUG_clean_linker_0, # of connection points: 2
#     Edge 10, Type (0, 0), BuildingBlock: OJICUG_clean_linker_0, # of connection points: 2
#     Edge 11, Type (0, 0), BuildingBlock: OJICUG_clean_linker_0, # of connection points: 2
#     Edge 12, Type (0, 0), BuildingBlock: OJICUG_clean_linker_0, # of connection points: 2
#     Edge 13, Type (0, 0), BuildingBlock: OJICUG_clean_linker_0, # of connection points: 2
#     Edge 14, Type (0, 0), BuildingBlock: OJICUG_clean_linker_0, # of connection points: 2
#     Edge 15, Type (0, 0), BuildingBlock: OJICUG_clean_linker_0, # of connection points: 2
#     Edge 16, Type (0, 0), BuildingBlock: OJICUG_clean_linker_0, # of connection points: 2
#     Edge 17, Type (0, 0), BuildingBlock: OJICUG_clean_linker_0, # of connection points: 2
#     Edge 18, Type (0, 0), BuildingBlock: OJICUG_clean_linker_0, # of connection points: 2
#     Edge 19, Type (0, 0), BuildingBlock: OJICUG_clean_linker_0, # of connection points: 2
#     Edge 20, Type (0, 0), BuildingBlock: OJICUG_clean_linker_0, # of connection points: 2
#     Edge 21, Type (0, 0), BuildingBlock: OJICUG_clean_linker_0, # of connection points: 2
#     Edge 22, Type (0, 0), BuildingBlock: OJICUG_clean_linker_0, # of connection points: 2
#     Edge 23, Type (0, 0), BuildingBlock: OJICUG_clean_linker_0, # of connection points: 2
#     Edge 24, Type (0, 0), BuildingBlock: OJICUG_clean_linker_0, # of connection points: 2
#     Edge 25, Type (0, 0), BuildingBlock: OJICUG_clean_linker_0, # of connection points: 2
#     Edge 26, Type (0, 0), BuildingBlock: OJICUG_clean_linker_0, # of connection points: 2
#     Edge 27, Type (0, 0), BuildingBlock: OJICUG_clean_linker_0, # of connection points: 2
#     Edge 28, Type (0, 0), BuildingBlock: OJICUG_clean_linker_0, # of connection points: 2
#     Edge 29, Type (0, 0), BuildingBlock: OJICUG_clean_linker_0, # of connection points: 2
#     Edge 30, Type (0, 0), BuildingBlock: OJICUG_clean_linker_0, # of connection points: 2
#     Edge 31, Type (0, 0), BuildingBlock: OJICUG_clean_linker_0, # of connection points: 2
# Relax obj value: 0.306
# Max RMSD: 0.281
# Mean RMSD: 0.281
data_MOF--net-vmf--node1-OJICUG_clean_sbu_0--edge1-OJICUG_clean_linker_0
_symmetry_space_group_name_H-M    P1
_symmetry_Int_Tables_number       1
_symmetry_cell_setting            triclinic
loop_
_symmetry_equiv_pos_as_xyz
'x, y, z'
_cell_length_a     22.116876
_cell_length_b     33.508086
_cell_length_c     22.15049
_cell_angle_alpha  90.239167
_cell_angle_beta   106.35024
_cell_angle_gamma 89.986584
loop_
_atom_site_label
_atom_site_type_symbol
_atom_site_fract_x
_atom_site_fract_y
_atom_site_fract_z
_atom_type_partial_charge
Sc0 Sc 0.24682 0.3412 0.18105 0.0
Sc1 Sc 0.23929 0.24687 0.24108 0.0
Sc2 Sc 0.1242 0.31601 0.24461 0.0
O3 O 0.20387 0.30201 0.22327 0.0
C4 C 0.20061 0.3964 0.27781 0.0
C5 C 0.36542 0.29887 0.25711 0.0
C6 C 0.20945 0.26406 0.36344 0.0
C7 C 0.25369 0.25892 0.11086 0.0
C8 C 0.10276 0.35292 0.10493 0.0
C9 C 0.09276 0.22804 0.2141 0.0
O10 O 0.2302 0.39017 0.23703 0.0
O11 O 0.33493 0.2662 0.25088 0.0
O12 O 0.15854 0.28334 0.33622 0.0
O13 O 0.26817 0.29537 0.12324 0.0
O14 O 0.0825 0.34568 0.15274 0.0
O15 O 0.14976 0.21752 0.23735 0.0
O16 O 0.16096 0.35132 0.10817 0.0
O17 O 0.22802 0.23722 0.14377 0.0
O18 O 0.07791 0.26375 0.1989 0.0
O19 O 0.338 0.33248 0.24672 0.0
O20 O 0.16257 0.37127 0.29001 0.0
O21 O 0.25236 0.25733 0.33709 0.0
Sc22 Sc 0.8774 0.33305 0.71314 0.0
Sc23 Sc 0.78753 0.2561 0.74744 0.0
Sc24 Sc 0.77895 0.35271 0.80655 0.0
O25 O 0.81353 0.31369 0.75502 0.0
C26 C 0.92548 0.36578 0.85313 0.0
C27 C 0.92446 0.24346 0.74087 0.0
C28 C 0.80072 0.27642 0.89055 0.0
C29 C 0.78465 0.28101 0.60748 0.0
C30 C 0.78943 0.40945 0.701 0.0
C31 C 0.65879 0.29901 0.74577 0.0
O32 O 0.93857 0.34733 0.80758 0.0
O33 O 0.88209 0.23249 0.76567 0.0
O34 O 0.79958 0.31401 0.88471 0.0
O35 O 0.81632 0.31367 0.62147 0.0
O36 O 0.75393 0.39401 0.73051 0.0
O37 O 0.68991 0.27163 0.7282 0.0
O38 O 0.8407 0.39315 0.69917 0.0
O39 O 0.7762 0.25687 0.64854 0.0
O40 O 0.68426 0.32962 0.77644 0.0
O41 O 0.92486 0.27767 0.71733 0.0
O42 O 0.87056 0.37965 0.84764 0.0
O43 O 0.79554 0.25214 0.84517 0.0
Sc44 Sc 0.85655 0.65344 0.7491 0.0
Sc45 Sc 0.74903 0.72337 0.76899 0.0
Sc46 Sc 0.74008 0.62677 0.82053 0.0
O47 O 0.78118 0.66721 0.77794 0.0
C48 C 0.77619 0.57432 0.71541 0.0
C49 C 0.76384 0.70785 0.63808 0.0
C50 C 0.62179 0.6731 0.75426 0.0
C51 C 0.89407 0.74084 0.78633 0.0
C52 C 0.8863 0.61336 0.88763 0.0
C53 C 0.74875 0.70458 0.90269 0.0
O54 O 0.81477 0.59913 0.70367 0.0
O55 O 0.72804 0.7182 0.67109 0.0
O56 O 0.64705 0.6388 0.76114 0.0
O57 O 0.90825 0.70435 0.79296 0.0
O58 O 0.82875 0.61333 0.88721 0.0
O59 O 0.7704 0.72737 0.86801 0.0
O60 O 0.90364 0.62299 0.83889 0.0
O61 O 0.83737 0.7527 0.76998 0.0
O62 O 0.7267 0.67 0.88617 0.0
O63 O 0.8145 0.68706 0.65998 0.0
O64 O 0.74901 0.5798 0.75818 0.0
O65 O 0.65394 0.70515 0.76323 0.0
Sc66 Sc 0.22006 0.62401 0.19799 0.0
Sc67 Sc 0.20453 0.71827 0.25712 0.0
Sc68 Sc 0.10777 0.6405 0.27954 0.0
O69 O 0.1776 0.66063 0.24605 0.0
C70 C 0.07247 0.60898 0.13512 0.0
C71 C 0.19971 0.7045 0.12012 0.0
C72 C 0.06303 0.73005 0.26042 0.0
C73 C 0.33464 0.67503 0.25772 0.0
C74 C 0.193 0.56216 0.29488 0.0
C75 C 0.20308 0.69187 0.39229 0.0
O76 O 0.13004 0.60754 0.13527 0.0
O77 O 0.17977 0.72604 0.15786 0.0
O78 O 0.05177 0.69307 0.25955 0.0
O79 O 0.31403 0.63951 0.25319 0.0
O80 O 0.14986 0.58274 0.30736 0.0
O81 O 0.22909 0.71046 0.35611 0.0
O82 O 0.22281 0.57381 0.25713 0.0
O83 O 0.29883 0.70495 0.25493 0.0
O84 O 0.15784 0.66638 0.37261 0.0
O85 O 0.22271 0.6699 0.13334 0.0
O86 O 0.05573 0.61857 0.18442 0.0
O87 O 0.11628 0.74398 0.26098 0.0
Sc88 Sc 0.72402 0.85119 0.2019 0.0
Sc89 Sc 0.70945 0.75704 0.26187 0.0
Sc90 Sc 0.60819 0.83373 0.27923 0.0
O91 O 0.68088 0.81433 0.24887 0.0
C92 C 0.69143 0.91256 0.29811 0.0
C93 C 0.83991 0.80381 0.27512 0.0
C94 C 0.69876 0.78242 0.39419 0.0
C95 C 0.71646 0.76952 0.12816 0.0
C96 C 0.57711 0.86489 0.13509 0.0
C97 C 0.56415 0.74428 0.24824 0.0
O98 O 0.71994 0.90189 0.25857 0.0
O99 O 0.80568 0.77299 0.27177 0.0
O100 O 0.65308 0.80723 0.37311 0.0
O101 O 0.73495 0.80514 0.14045 0.0
O102 O 0.55978 0.85731 0.18463 0.0
O103 O 0.61891 0.73035 0.25558 0.0
O104 O 0.63475 0.86456 0.13535 0.0
O105 O 0.6937 0.74845 0.16386 0.0
O106 O 0.55319 0.78119 0.2503 0.0
O107 O 0.81723 0.83847 0.26098 0.0
O108 O 0.65029 0.89095 0.3122 0.0
O109 O 0.72643 0.76409 0.35944 0.0
Sc110 Sc 0.35771 0.81953 0.75027 0.0
Sc111 Sc 0.24983 0.74995 0.76965 0.0
Sc112 Sc 0.24289 0.84635 0.82332 0.0
O113 O 0.28289 0.806 0.77972 0.0
C114 C 0.38955 0.86029 0.88868 0.0
C115 C 0.39295 0.73236 0.77822 0.0
C116 C 0.25363 0.76759 0.90457 0.0
C117 C 0.26253 0.76595 0.63865 0.0
C118 C 0.27716 0.89869 0.71774 0.0
C119 C 0.12432 0.79945 0.76509 0.0
O120 O 0.40629 0.8499 0.83986 0.0
O121 O 0.33594 0.72116 0.76246 0.0
O122 O 0.23272 0.80258 0.88931 0.0
O123 O 0.314 0.78596 0.66126 0.0
O124 O 0.24986 0.89316 0.76038 0.0
O125 O 0.15695 0.7677 0.77298 0.0
O126 O 0.31622 0.87407 0.70609 0.0
O127 O 0.22529 0.75706 0.6711 0.0
O128 O 0.14911 0.83355 0.76493 0.0
O129 O 0.40804 0.76809 0.79317 0.0
O130 O 0.33214 0.8607 0.88877 0.0
O131 O 0.27491 0.74474 0.86916 0.0
Sc132 Sc 0.37516 0.14003 0.71184 0.0
Sc133 Sc 0.28989 0.21696 0.753 0.0
Sc134 Sc 0.27829 0.11925 0.80573 0.0
O135 O 0.31319 0.15908 0.75617 0.0
C136 C 0.2868 0.06372 0.69843 0.0
C137 C 0.28107 0.19353 0.61046 0.0
C138 C 0.15999 0.1748 0.75056 0.0
C139 C 0.42499 0.22906 0.74152 0.0
C140 C 0.42401 0.10629 0.85019 0.0
C141 C 0.30624 0.19356 0.89541 0.0
O142 O 0.33854 0.07978 0.69764 0.0
O143 O 0.27561 0.21757 0.65335 0.0
O144 O 0.18435 0.14321 0.77833 0.0
O145 O 0.4231 0.19531 0.71553 0.0
O146 O 0.36949 0.09128 0.84298 0.0
O147 O 0.30166 0.21893 0.85183 0.0
O148 O 0.43739 0.12543 0.80557 0.0
O149 O 0.38498 0.23955 0.76973 0.0
O150 O 0.30146 0.1562 0.88646 0.0
O151 O 0.31147 0.16028 0.62216 0.0
O152 O 0.25078 0.07975 0.72691 0.0
O153 O 0.19197 0.20262 0.73556 0.0
Sc154 Sc 0.74291 0.13043 0.17829 0.0
Sc155 Sc 0.73745 0.22574 0.23473 0.0
Sc156 Sc 0.62261 0.15829 0.24322 0.0
O157 O 0.70128 0.17063 0.21984 0.0
C158 C 0.59774 0.11914 0.10408 0.0
C159 C 0.74086 0.21129 0.1022 0.0
C160 C 0.5937 0.24587 0.2203 0.0
C161 C 0.86206 0.17455 0.243 0.0
C162 C 0.69819 0.07737 0.27747 0.0
C163 C 0.71646 0.20873 0.36039 0.0
O164 O 0.65611 0.11821 0.10799 0.0
O165 O 0.71697 0.23363 0.13619 0.0
O166 O 0.578 0.21128 0.19909 0.0
O167 O 0.83497 0.14111 0.24204 0.0
O168 O 0.6588 0.1025 0.28722 0.0
O169 O 0.75763 0.21482 0.33143 0.0
O170 O 0.72933 0.08293 0.23787 0.0
O171 O 0.83089 0.2069 0.23378 0.0
O172 O 0.66363 0.19066 0.33477 0.0
O173 O 0.75899 0.17557 0.11655 0.0
O174 O 0.57752 0.12917 0.15103 0.0
O175 O 0.65131 0.25538 0.24138 0.0
C176 C 0.51329 0.30053 0.20577 0.0
C177 C 0.54584 0.26845 0.24072 0.0
H178 H 0.4299 0.33677 0.1856 0.0
C179 C 0.52482 0.25267 0.28988 0.0
H180 H 0.52838 0.31275 0.16718 0.0
C181 C 0.46885 0.26605 0.3002 0.0
C182 C 0.43312 0.29576 0.26189 0.0
H183 H 0.54913 0.22775 0.31723 0.0
H184 H 0.45093 0.25095 0.33479 0.0
C185 C 0.45731 0.31437 0.21668 0.0
C186 C 0.56408 0.29952 0.78636 0.0
C187 C 0.59144 0.29137 0.73739 0.0
H188 H 0.48865 0.28573 0.82661 0.0
C189 C 0.55777 0.26882 0.68551 0.0
H190 H 0.5895 0.31675 0.8271 0.0
C191 C 0.50075 0.25138 0.68526 0.0
C192 C 0.47647 0.25578 0.73717 0.0
H193 H 0.57753 0.26249 0.64693 0.0
H194 H 0.47751 0.23234 0.64589 0.0
C195 C 0.50667 0.28171 0.7863 0.0
C196 C 0.47048 0.67593 0.7986 0.0
C197 C 0.4408 0.70792 0.76129 0.0
H198 H 0.55244 0.63834 0.82389 0.0
C199 C 0.46455 0.72176 0.71275 0.0
H200 H 0.45302 0.66517 0.8366 0.0
C201 C 0.5208 0.70674 0.7056 0.0
C202 C 0.55394 0.67737 0.74655 0.0
H203 H 0.44208 0.74644 0.68341 0.0
H204 H 0.54105 0.72038 0.67146 0.0
C205 C 0.52692 0.6605 0.791 0.0
C206 C 0.39761 0.70968 0.19891 0.0
C207 C 0.39636 0.68361 0.24804 0.0
H208 H 0.4529 0.74885 0.16009 0.0
C209 C 0.45322 0.6714 0.29038 0.0
H210 H 0.35422 0.71908 0.16518 0.0
C211 C 0.5103 0.68826 0.28683 0.0
C212 C 0.51027 0.71733 0.24109 0.0
H213 H 0.45308 0.65138 0.3286 0.0
H214 H 0.5534 0.6812 0.32282 0.0
C215 C 0.45394 0.72653 0.19566 0.0
C216 C 0.98842 0.74626 0.32086 0.0
C217 C 0.01497 0.75665 0.27257 0.0
H218 H 0.91273 0.75513 0.36161 0.0
C219 C 0.99176 0.7899 0.23486 0.0
H220 H 0.0067 0.72127 0.35151 0.0
C221 C 0.93774 0.8096 0.24098 0.0
C222 C 0.90739 0.79621 0.28515 0.0
H223 H 0.01217 0.79855 0.19778 0.0
H224 H 0.91637 0.83248 0.20729 0.0
C225 C 0.93533 0.76598 0.32731 0.0
C226 C 0.00162 0.76437 0.83862 0.0
C227 C 0.9464 0.76847 0.78907 0.0
H228 H 0.10144 0.77201 0.86946 0.0
C229 C 0.94824 0.79017 0.7353 0.0
H230 H 0.00142 0.74742 0.88014 0.0
C231 C 0.00607 0.80392 0.7287 0.0
C232 C 0.06196 0.79613 0.77603 0.0
H233 H 0.90629 0.79291 0.69596 0.0
H234 H 0.00769 0.81748 0.68488 0.0
C235 C 0.0588 0.77817 0.83222 0.0
C236 C 0.00185 0.2212 0.68668 0.0
C237 C 0.97614 0.21671 0.73753 0.0
H238 H 0.08054 0.21076 0.65085 0.0
C239 C 0.0057 0.19121 0.78714 0.0
H240 H 0.97913 0.23999 0.64706 0.0
C241 C 0.06389 0.17393 0.78878 0.0
C242 C 0.09256 0.18228 0.74096 0.0
H243 H 0.98656 0.18724 0.82667 0.0
H244 H 0.08877 0.157 0.82982 0.0
C245 C 0.05967 0.20437 0.68857 0.0
C246 C 0.03824 0.18414 0.27316 0.0
C247 C 0.0405 0.20121 0.21581 0.0
H248 H 0.97844 0.16203 0.32747 0.0
C249 C 0.98561 0.20193 0.16525 0.0
H250 H 0.0798 0.18412 0.31327 0.0
C251 C 0.92841 0.18935 0.17336 0.0
C252 C 0.92477 0.17607 0.23228 0.0
H253 H 0.98599 0.21537 0.12092 0.0
H254 H 0.88606 0.19297 0.13475 0.0
C255 C 0.98038 0.17179 0.2815 0.0
C256 C 0.95206 0.37313 0.97165 0.0
C257 C 0.9725 0.3674 0.91714 0.0
H258 H 0.97581 0.37271 0.07289 0.0
C259 C 0.03656 0.35904 0.92561 0.0
H260 H 0.9029 0.37904 0.96745 0.0
C261 C 0.07852 0.35595 0.98633 0.0
C262 C 0.05776 0.36028 0.04091 0.0
H263 H 0.05419 0.35408 0.88527 0.0
H264 H 0.12721 0.34872 0.99029 0.0
C265 C 0.99385 0.36926 0.0325 0.0
C266 C 0.95924 0.60399 0.06589 0.0
C267 C 0.02422 0.60414 0.0721 0.0
H268 H 0.86556 0.60584 0.00392 0.0
C269 C 0.04328 0.60374 0.01613 0.0
H270 H 0.94238 0.60444 0.10729 0.0
C271 C -0.00089 0.6051 0.95633 0.0
C272 C 0.93417 0.60633 0.95018 0.0
H273 H 0.09281 0.6041 0.01829 0.0
H274 H 0.01604 0.60638 0.91502 0.0
C275 C 0.91505 0.60477 0.00605 0.0
C276 C 0.54754 0.86903 0.01602 0.0
C277 C 0.52891 0.86976 0.07218 0.0
H278 H 0.51941 0.8655 0.91493 0.0
C279 C 0.46405 0.87117 0.06645 0.0
H280 H 0.59695 0.86776 0.01788 0.0
C281 C 0.41946 0.87037 0.00689 0.0
C282 C 0.43803 0.8676 0.95082 0.0
H283 H 0.44751 0.87166 0.10805 0.0
H284 H 0.37003 0.87022 0.00516 0.0
C285 C 0.50292 0.86771 0.95646 0.0
C286 C 0.57522 0.11556 0.98579 0.0
C287 C 0.55313 0.11207 0.03967 0.0
H288 H 0.55293 0.11682 0.88482 0.0
C289 C 0.48868 0.10421 0.03002 0.0
H290 H 0.62435 0.12204 0.99067 0.0
C291 C 0.44781 0.10033 0.96862 0.0
C292 C 0.46976 0.10508 0.91486 0.0
H293 H 0.46963 0.10151 0.06982 0.0
H294 H 0.39825 0.09515 0.96335 0.0
C295 C 0.53421 0.11259 0.92458 0.0
C296 C 0.25828 0.50083 0.31459 0.0
C297 C 0.20215 0.52019 0.31524 0.0
H298 H 0.302 0.44557 0.30329 0.0
C299 C 0.15065 0.49719 0.32034 0.0
H300 H 0.29909 0.51784 0.31183 0.0
C301 C 0.15237 0.45555 0.31548 0.0
C302 C 0.20556 0.43676 0.30546 0.0
H303 H 0.10684 0.51135 0.32111 0.0
H304 H 0.10993 0.43867 0.31285 0.0
C305 C 0.25991 0.45946 0.30957 0.0
C306 C 0.82236 0.51643 0.6735 0.0
C307 C 0.77005 0.53442 0.68649 0.0
H308 H 0.86948 0.46158 0.66712 0.0
C309 C 0.71735 0.51096 0.68603 0.0
H310 H 0.86337 0.53394 0.67291 0.0
C311 C 0.72076 0.46958 0.68276 0.0
C312 C 0.77709 0.45118 0.6803 0.0
H313 H 0.67581 0.52431 0.69446 0.0
H314 H 0.68155 0.45209 0.68845 0.0
C315 C 0.8259 0.4749 0.67045 0.0
C316 C 0.75644 0.97385 0.31992 0.0
C317 C 0.6999 0.95448 0.31905 0.0
H318 H 0.80035 0.02889 0.30819 0.0
C319 C 0.64753 0.97747 0.32162 0.0
H320 H 0.7978 0.95679 0.31896 0.0
C321 C 0.64903 0.019 0.31547 0.0
C322 C 0.70284 0.03762 0.30661 0.0
H323 H 0.60338 0.96325 0.32103 0.0
H324 H 0.60608 0.03578 0.31075 0.0
C325 C 0.75783 0.0151 0.31351 0.0
C326 C 0.21717 0.96156 0.68808 0.0
C327 C 0.27013 0.93836 0.68843 0.0
H328 H 0.18015 0.02025 0.68891 0.0
C329 C 0.32162 0.95641 0.67403 0.0
H330 H 0.1762 0.94815 0.69754 0.0
C331 C 0.32413 -0.0021 0.66945 0.0
C332 C 0.2751 0.02156 0.67915 0.0
H333 H 0.3628 0.93912 0.67329 0.0
H334 H 0.36714 0.01138 0.66493 0.0
C335 C 0.21952 0.00289 0.68321 0.0
C336 C 0.21389 0.24145 0.53252 0.0
C337 C 0.25398 0.20763 0.54486 0.0
H338 H 0.16774 0.28605 0.4655 0.0
C339 C 0.27232 0.19049 0.49518 0.0
H340 H 0.1979 0.25518 0.56964 0.0
C341 C 0.25494 0.20829 0.43597 0.0
C342 C 0.21868 0.24369 0.42469 0.0
H343 H 0.30251 0.16445 0.5026 0.0
H344 H 0.2717 0.19478 0.39917 0.0
C345 C 0.19622 0.25924 0.4729 0.0
C346 C 0.7904 0.27848 0.49649 0.0
C347 C 0.76034 0.26729 0.54141 0.0
H348 H 0.80065 0.26851 0.40512 0.0
C349 C 0.71202 0.23819 0.52514 0.0
H350 H 0.82777 0.30052 0.50748 0.0
C351 C 0.69628 0.21934 0.46614 0.0
C352 C 0.72916 0.22886 0.4226 0.0
H353 H 0.68751 0.2291 0.55884 0.0
H354 H 0.65993 0.19663 0.45544 0.0
C355 C 0.77524 0.25942 0.43804 0.0
C356 C 0.77835 0.75313 0.48636 0.0
C357 C 0.71729 0.76887 0.46025 0.0
H358 H 0.84078 0.72057 0.5619 0.0
C359 C 0.67194 0.76359 0.4925 0.0
H360 H 0.81431 0.75645 0.46211 0.0
C361 C 0.68681 0.74218 0.54874 0.0
C362 C 0.74758 0.72579 0.57445 0.0
H363 H 0.62425 0.77433 0.47288 0.0
H364 H 0.65025 0.73839 0.57211 0.0
C365 C 0.79333 0.7318 0.54278 0.0
C366 C 0.29227 0.74668 0.54065 0.0
C367 C 0.24787 0.74735 0.57504 0.0
H368 H 0.31387 0.72722 0.45701 0.0
C369 C 0.19067 0.72631 0.55092 0.0
H370 H 0.33718 0.76172 0.55821 0.0
C371 C 0.17778 0.70578 0.49361 0.0
C372 C 0.22146 0.70597 0.45853 0.0
H373 H 0.1553 0.72574 0.57621 0.0
H374 H 0.13248 0.69125 0.4756 0.0
C375 C 0.27917 0.7263 0.48309 0.0
C376 C 0.26747 0.19984 0.04825 0.0
C377 C 0.27252 0.24108 0.05894 0.0
H378 H 0.27681 0.15188 0.98839 0.0
C379 C 0.29835 0.26541 0.02097 0.0
H380 H 0.24928 0.18033 0.07792 0.0
C381 C 0.31483 0.24917 0.97039 0.0
C382 C 0.30542 0.20845 0.95691 0.0
H383 H 0.30425 0.29727 0.02902 0.0
H384 H 0.33184 0.26887 0.94006 0.0
C385 C 0.28423 0.18354 0.99765 0.0
C386 C 0.77574 0.20308 0.00667 0.0
C387 C 0.75732 0.22845 0.04886 0.0
H388 H 0.80708 0.19861 0.92463 0.0
C389 C 0.76067 0.26989 0.04287 0.0
H390 H 0.77455 0.1709 0.01093 0.0
C391 C 0.7801 0.28579 0.99376 0.0
C392 C 0.7956 0.26032 0.94979 0.0
H393 H 0.74832 0.29001 0.07593 0.0
H394 H 0.7801 0.31794 0.98877 0.0
C395 C 0.79511 0.2189 0.95771 0.0
C396 C 0.77163 0.75633 0.98514 0.0
C397 C 0.74357 0.71988 0.96227 0.0
H398 H 0.78488 0.80067 0.05603 0.0
C399 C 0.70792 0.69895 0.99523 0.0
H400 H 0.79983 0.77277 0.96087 0.0
C401 C 0.69897 0.71497 0.04972 0.0
C402 C 0.72567 0.75197 0.07156 0.0
H403 H 0.68574 0.67062 0.97837 0.0
H404 H 0.6706 0.69873 0.07403 0.0
C405 C 0.76271 0.77229 0.03945 0.0
C406 C 0.21592 0.76251 0.05832 0.0
C407 C 0.20631 0.72149 0.06231 0.0
H408 H 0.24151 0.80923 0.00535 0.0
C409 C 0.21317 0.69563 0.01462 0.0
H410 H 0.21192 0.78279 0.09523 0.0
C411 C 0.23149 0.71045 0.96435 0.0
C412 C 0.24224 0.75135 0.96084 0.0
H413 H 0.20572 0.66376 0.01691 0.0
H414 H 0.23592 0.69004 0.92775 0.0
C415 C 0.23394 0.77739 0.00773 0.0
loop_
_geom_bond_atom_site_label_1
_geom_bond_atom_site_label_2
_geom_bond_distance
_geom_bond_site_symmetry_2
_ccdc_geom_bond_type
Sc0 O3 2.025 . S
Sc0 O10 2.105 . S
Sc0 O13 2.105 . S
Sc0 O16 2.105 . S
Sc0 O19 2.105 . S
Sc1 O3 2.025 . S
Sc1 O11 2.105 . S
Sc1 O15 2.105 . S
Sc1 O17 2.105 . S
Sc1 O21 2.105 . S
Sc2 O3 2.025 . S
Sc2 O12 2.105 . S
Sc2 O14 2.105 . S
Sc2 O18 2.105 . S
Sc2 O20 2.105 . S
O3 Sc0 2.025 . S
O3 Sc1 2.025 . S
O3 Sc2 2.025 . S
C4 O10 1.268 . S
C4 O20 1.268 . S
C5 O11 1.268 . S
C5 O19 1.268 . S
C6 O12 1.268 . S
C6 O21 1.268 . S
C7 O13 1.268 . S
C7 O17 1.268 . S
C8 O14 1.268 . S
C8 O16 1.268 . S
C9 O15 1.268 . S
C9 O18 1.268 . S
O10 Sc0 2.105 . S
O10 C4 1.268 . S
O11 Sc1 2.105 . S
O11 C5 1.268 . S
O12 Sc2 2.105 . S
O12 C6 1.268 . S
O13 Sc0 2.105 . S
O13 C7 1.268 . S
O14 Sc2 2.105 . S
O14 C8 1.268 . S
O15 Sc1 2.105 . S
O15 C9 1.268 . S
O16 Sc0 2.105 . S
O16 C8 1.268 . S
O17 Sc1 2.105 . S
O17 C7 1.268 . S
O18 Sc2 2.105 . S
O18 C9 1.268 . S
O19 Sc0 2.105 . S
O19 C5 1.268 . S
O20 Sc2 2.105 . S
O20 C4 1.268 . S
O21 Sc1 2.105 . S
O21 C6 1.268 . S
Sc22 O25 2.025 . S
Sc22 O32 2.105 . S
Sc22 O35 2.105 . S
Sc22 O38 2.105 . S
Sc22 O41 2.105 . S
Sc23 O25 2.025 . S
Sc23 O33 2.105 . S
Sc23 O37 2.105 . S
Sc23 O39 2.105 . S
Sc23 O43 2.105 . S
Sc24 O25 2.025 . S
Sc24 O34 2.105 . S
Sc24 O36 2.105 . S
Sc24 O40 2.105 . S
Sc24 O42 2.105 . S
O25 Sc22 2.025 . S
O25 Sc23 2.025 . S
O25 Sc24 2.025 . S
C26 O32 1.268 . S
C26 O42 1.268 . S
C27 O33 1.268 . S
C27 O41 1.268 . S
C28 O34 1.268 . S
C28 O43 1.268 . S
C29 O35 1.268 . S
C29 O39 1.268 . S
C30 O36 1.268 . S
C30 O38 1.268 . S
C31 O37 1.268 . S
C31 O40 1.268 . S
O32 Sc22 2.105 . S
O32 C26 1.268 . S
O33 Sc23 2.105 . S
O33 C27 1.268 . S
O34 Sc24 2.105 . S
O34 C28 1.268 . S
O35 Sc22 2.105 . S
O35 C29 1.268 . S
O36 Sc24 2.105 . S
O36 C30 1.268 . S
O37 Sc23 2.105 . S
O37 C31 1.268 . S
O38 Sc22 2.105 . S
O38 C30 1.268 . S
O39 Sc23 2.105 . S
O39 C29 1.268 . S
O40 Sc24 2.105 . S
O40 C31 1.268 . S
O41 Sc22 2.105 . S
O41 C27 1.268 . S
O42 Sc24 2.105 . S
O42 C26 1.268 . S
O43 Sc23 2.105 . S
O43 C28 1.268 . S
Sc44 O47 2.025 . S
Sc44 O54 2.105 . S
Sc44 O57 2.105 . S
Sc44 O60 2.105 . S
Sc44 O63 2.105 . S
Sc45 O47 2.025 . S
Sc45 O55 2.105 . S
Sc45 O59 2.105 . S
Sc45 O61 2.105 . S
Sc45 O65 2.105 . S
Sc46 O47 2.025 . S
Sc46 O56 2.105 . S
Sc46 O58 2.105 . S
Sc46 O62 2.105 . S
Sc46 O64 2.105 . S
O47 Sc44 2.025 . S
O47 Sc45 2.025 . S
O47 Sc46 2.025 . S
C48 O54 1.268 . S
C48 O64 1.268 . S
C49 O55 1.268 . S
C49 O63 1.268 . S
C50 O56 1.268 . S
C50 O65 1.268 . S
C51 O57 1.268 . S
C51 O61 1.268 . S
C52 O58 1.268 . S
C52 O60 1.268 . S
C53 O59 1.268 . S
C53 O62 1.268 . S
O54 Sc44 2.105 . S
O54 C48 1.268 . S
O55 Sc45 2.105 . S
O55 C49 1.268 . S
O56 Sc46 2.105 . S
O56 C50 1.268 . S
O57 Sc44 2.105 . S
O57 C51 1.268 . S
O58 Sc46 2.105 . S
O58 C52 1.268 . S
O59 Sc45 2.105 . S
O59 C53 1.268 . S
O60 Sc44 2.105 . S
O60 C52 1.268 . S
O61 Sc45 2.105 . S
O61 C51 1.268 . S
O62 Sc46 2.105 . S
O62 C53 1.268 . S
O63 Sc44 2.105 . S
O63 C49 1.268 . S
O64 Sc46 2.105 . S
O64 C48 1.268 . S
O65 Sc45 2.105 . S
O65 C50 1.268 . S
Sc66 O69 2.025 . S
Sc66 O76 2.105 . S
Sc66 O79 2.105 . S
Sc66 O82 2.105 . S
Sc66 O85 2.105 . S
Sc67 O69 2.025 . S
Sc67 O77 2.105 . S
Sc67 O81 2.105 . S
Sc67 O83 2.105 . S
Sc67 O87 2.105 . S
Sc68 O69 2.025 . S
Sc68 O78 2.105 . S
Sc68 O80 2.105 . S
Sc68 O84 2.105 . S
Sc68 O86 2.105 . S
O69 Sc66 2.025 . S
O69 Sc67 2.025 . S
O69 Sc68 2.025 . S
C70 O76 1.268 . S
C70 O86 1.268 . S
C71 O77 1.268 . S
C71 O85 1.268 . S
C72 O78 1.268 . S
C72 O87 1.268 . S
C73 O79 1.268 . S
C73 O83 1.268 . S
C74 O80 1.268 . S
C74 O82 1.268 . S
C75 O81 1.268 . S
C75 O84 1.268 . S
O76 Sc66 2.105 . S
O76 C70 1.268 . S
O77 Sc67 2.105 . S
O77 C71 1.268 . S
O78 Sc68 2.105 . S
O78 C72 1.268 . S
O79 Sc66 2.105 . S
O79 C73 1.268 . S
O80 Sc68 2.105 . S
O80 C74 1.268 . S
O81 Sc67 2.105 . S
O81 C75 1.268 . S
O82 Sc66 2.105 . S
O82 C74 1.268 . S
O83 Sc67 2.105 . S
O83 C73 1.268 . S
O84 Sc68 2.105 . S
O84 C75 1.268 . S
O85 Sc66 2.105 . S
O85 C71 1.268 . S
O86 Sc68 2.105 . S
O86 C70 1.268 . S
O87 Sc67 2.105 . S
O87 C72 1.268 . S
Sc88 O91 2.025 . S
Sc88 O98 2.105 . S
Sc88 O101 2.105 . S
Sc88 O104 2.105 . S
Sc88 O107 2.105 . S
Sc89 O91 2.025 . S
Sc89 O99 2.105 . S
Sc89 O103 2.105 . S
Sc89 O105 2.105 . S
Sc89 O109 2.105 . S
Sc90 O91 2.025 . S
Sc90 O100 2.105 . S
Sc90 O102 2.105 . S
Sc90 O106 2.105 . S
Sc90 O108 2.105 . S
O91 Sc88 2.025 . S
O91 Sc89 2.025 . S
O91 Sc90 2.025 . S
C92 O98 1.268 . S
C92 O108 1.268 . S
C93 O99 1.268 . S
C93 O107 1.268 . S
C94 O100 1.268 . S
C94 O109 1.268 . S
C95 O101 1.268 . S
C95 O105 1.268 . S
C96 O102 1.268 . S
C96 O104 1.268 . S
C97 O103 1.268 . S
C97 O106 1.268 . S
O98 Sc88 2.105 . S
O98 C92 1.268 . S
O99 Sc89 2.105 . S
O99 C93 1.268 . S
O100 Sc90 2.105 . S
O100 C94 1.268 . S
O101 Sc88 2.105 . S
O101 C95 1.268 . S
O102 Sc90 2.105 . S
O102 C96 1.268 . S
O103 Sc89 2.105 . S
O103 C97 1.268 . S
O104 Sc88 2.105 . S
O104 C96 1.268 . S
O105 Sc89 2.105 . S
O105 C95 1.268 . S
O106 Sc90 2.105 . S
O106 C97 1.268 . S
O107 Sc88 2.105 . S
O107 C93 1.268 . S
O108 Sc90 2.105 . S
O108 C92 1.268 . S
O109 Sc89 2.105 . S
O109 C94 1.268 . S
Sc110 O113 2.025 . S
Sc110 O120 2.105 . S
Sc110 O123 2.105 . S
Sc110 O126 2.105 . S
Sc110 O129 2.105 . S
Sc111 O113 2.025 . S
Sc111 O121 2.105 . S
Sc111 O125 2.105 . S
Sc111 O127 2.105 . S
Sc111 O131 2.105 . S
Sc112 O113 2.025 . S
Sc112 O122 2.105 . S
Sc112 O124 2.105 . S
Sc112 O128 2.105 . S
Sc112 O130 2.105 . S
O113 Sc110 2.025 . S
O113 Sc111 2.025 . S
O113 Sc112 2.025 . S
C114 O120 1.268 . S
C114 O130 1.268 . S
C115 O121 1.268 . S
C115 O129 1.268 . S
C116 O122 1.268 . S
C116 O131 1.268 . S
C117 O123 1.268 . S
C117 O127 1.268 . S
C118 O124 1.268 . S
C118 O126 1.268 . S
C119 O125 1.268 . S
C119 O128 1.268 . S
O120 Sc110 2.105 . S
O120 C114 1.268 . S
O121 Sc111 2.105 . S
O121 C115 1.268 . S
O122 Sc112 2.105 . S
O122 C116 1.268 . S
O123 Sc110 2.105 . S
O123 C117 1.268 . S
O124 Sc112 2.105 . S
O124 C118 1.268 . S
O125 Sc111 2.105 . S
O125 C119 1.268 . S
O126 Sc110 2.105 . S
O126 C118 1.268 . S
O127 Sc111 2.105 . S
O127 C117 1.268 . S
O128 Sc112 2.105 . S
O128 C119 1.268 . S
O129 Sc110 2.105 . S
O129 C115 1.268 . S
O130 Sc112 2.105 . S
O130 C114 1.268 . S
O131 Sc111 2.105 . S
O131 C116 1.268 . S
Sc132 O135 2.025 . S
Sc132 O142 2.105 . S
Sc132 O145 2.105 . S
Sc132 O148 2.105 . S
Sc132 O151 2.105 . S
Sc133 O135 2.025 . S
Sc133 O143 2.105 . S
Sc133 O147 2.105 . S
Sc133 O149 2.105 . S
Sc133 O153 2.105 . S
Sc134 O135 2.025 . S
Sc134 O144 2.105 . S
Sc134 O146 2.105 . S
Sc134 O150 2.105 . S
Sc134 O152 2.105 . S
O135 Sc132 2.025 . S
O135 Sc133 2.025 . S
O135 Sc134 2.025 . S
C136 O142 1.268 . S
C136 O152 1.268 . S
C137 O143 1.268 . S
C137 O151 1.268 . S
C138 O144 1.268 . S
C138 O153 1.268 . S
C139 O145 1.268 . S
C139 O149 1.268 . S
C140 O146 1.268 . S
C140 O148 1.268 . S
C141 O147 1.268 . S
C141 O150 1.268 . S
O142 Sc132 2.105 . S
O142 C136 1.268 . S
O143 Sc133 2.105 . S
O143 C137 1.268 . S
O144 Sc134 2.105 . S
O144 C138 1.268 . S
O145 Sc132 2.105 . S
O145 C139 1.268 . S
O146 Sc134 2.105 . S
O146 C140 1.268 . S
O147 Sc133 2.105 . S
O147 C141 1.268 . S
O148 Sc132 2.105 . S
O148 C140 1.268 . S
O149 Sc133 2.105 . S
O149 C139 1.268 . S
O150 Sc134 2.105 . S
O150 C141 1.268 . S
O151 Sc132 2.105 . S
O151 C137 1.268 . S
O152 Sc134 2.105 . S
O152 C136 1.268 . S
O153 Sc133 2.105 . S
O153 C138 1.268 . S
Sc154 O157 2.025 . S
Sc154 O164 2.105 . S
Sc154 O167 2.105 . S
Sc154 O170 2.105 . S
Sc154 O173 2.105 . S
Sc155 O157 2.025 . S
Sc155 O165 2.105 . S
Sc155 O169 2.105 . S
Sc155 O171 2.105 . S
Sc155 O175 2.105 . S
Sc156 O157 2.025 . S
Sc156 O166 2.105 . S
Sc156 O168 2.105 . S
Sc156 O172 2.105 . S
Sc156 O174 2.105 . S
O157 Sc154 2.025 . S
O157 Sc155 2.025 . S
O157 Sc156 2.025 . S
C158 O164 1.268 . S
C158 O174 1.268 . S
C159 O165 1.268 . S
C159 O173 1.268 . S
C160 O166 1.268 . S
C160 O175 1.268 . S
C161 O167 1.268 . S
C161 O171 1.268 . S
C162 O168 1.268 . S
C162 O170 1.268 . S
C163 O169 1.268 . S
C163 O172 1.268 . S
O164 Sc154 2.105 . S
O164 C158 1.268 . S
O165 Sc155 2.105 . S
O165 C159 1.268 . S
O166 Sc156 2.105 . S
O166 C160 1.268 . S
O167 Sc154 2.105 . S
O167 C161 1.268 . S
O168 Sc156 2.105 . S
O168 C162 1.268 . S
O169 Sc155 2.105 . S
O169 C163 1.268 . S
O170 Sc154 2.105 . S
O170 C162 1.268 . S
O171 Sc155 2.105 . S
O171 C161 1.268 . S
O172 Sc156 2.105 . S
O172 C163 1.268 . S
O173 Sc154 2.105 . S
O173 C159 1.268 . S
O174 Sc156 2.105 . S
O174 C158 1.268 . S
O175 Sc155 2.105 . S
O175 C160 1.268 . S
C176 C177 1.387 . S
C176 H180 0.950 . S
C176 C185 1.390 . S
C177 C176 1.387 . S
C177 C179 1.387 . S
H178 C185 0.950 . S
C179 C177 1.387 . S
C179 C181 1.390 . S
C179 H183 0.950 . S
H180 C176 0.950 . S
C181 C179 1.390 . S
C181 C182 1.387 . S
C181 H184 0.950 . S
C182 C181 1.387 . S
C182 C185 1.387 . S
H183 C179 0.950 . S
H184 C181 0.950 . S
C185 C176 1.390 . S
C185 H178 0.950 . S
C185 C182 1.387 . S
C186 C187 1.387 . S
C186 H190 0.950 . S
C186 C195 1.390 . S
C187 C186 1.387 . S
C187 C189 1.387 . S
H188 C195 0.950 . S
C189 C187 1.387 . S
C189 C191 1.390 . S
C189 H193 0.950 . S
H190 C186 0.950 . S
C191 C189 1.390 . S
C191 C192 1.387 . S
C191 H194 0.950 . S
C192 C191 1.387 . S
C192 C195 1.387 . S
H193 C189 0.950 . S
H194 C191 0.950 . S
C195 C186 1.390 . S
C195 H188 0.950 . S
C195 C192 1.387 . S
C196 C197 1.387 . S
C196 H200 0.950 . S
C196 C205 1.390 . S
C197 C196 1.387 . S
C197 C199 1.387 . S
H198 C205 0.950 . S
C199 C197 1.387 . S
C199 C201 1.390 . S
C199 H203 0.950 . S
H200 C196 0.950 . S
C201 C199 1.390 . S
C201 C202 1.387 . S
C201 H204 0.950 . S
C202 C201 1.387 . S
C202 C205 1.387 . S
H203 C199 0.950 . S
H204 C201 0.950 . S
C205 C196 1.390 . S
C205 H198 0.950 . S
C205 C202 1.387 . S
C206 C207 1.387 . S
C206 H210 0.950 . S
C206 C215 1.390 . S
C207 C206 1.387 . S
C207 C209 1.387 . S
H208 C215 0.950 . S
C209 C207 1.387 . S
C209 C211 1.390 . S
C209 H213 0.950 . S
H210 C206 0.950 . S
C211 C209 1.390 . S
C211 C212 1.387 . S
C211 H214 0.950 . S
C212 C211 1.387 . S
C212 C215 1.387 . S
H213 C209 0.950 . S
H214 C211 0.950 . S
C215 C206 1.390 . S
C215 H208 0.950 . S
C215 C212 1.387 . S
C216 C217 1.387 1_655 S
C216 H220 0.950 1_655 S
C216 C225 1.390 . S
C217 C216 1.387 1_455 S
C217 C219 1.387 . S
H218 C225 0.950 . S
C219 C217 1.387 . S
C219 C221 1.390 1_455 S
C219 H223 0.950 . S
H220 C216 0.950 1_455 S
C221 C219 1.390 1_655 S
C221 C222 1.387 . S
C221 H224 0.950 . S
C222 C221 1.387 . S
C222 C225 1.387 . S
H223 C219 0.950 . S
H224 C221 0.950 . S
C225 C216 1.390 . S
C225 H218 0.950 . S
C225 C222 1.387 . S
C226 C227 1.387 . S
C226 H230 0.950 . S
C226 C235 1.390 1_655 S
C227 C226 1.387 . S
C227 C229 1.387 . S
H228 C235 0.950 . S
C229 C227 1.387 . S
C229 C231 1.390 1_655 S
C229 H233 0.950 . S
H230 C226 0.950 . S
C231 C229 1.390 1_455 S
C231 C232 1.387 . S
C231 H234 0.950 . S
C232 C231 1.387 . S
C232 C235 1.387 . S
H233 C229 0.950 . S
H234 C231 0.950 . S
C235 C226 1.390 1_455 S
C235 H228 0.950 . S
C235 C232 1.387 . S
C236 C237 1.387 . S
C236 H240 0.950 . S
C236 C245 1.390 1_655 S
C237 C236 1.387 . S
C237 C239 1.387 . S
H238 C245 0.950 . S
C239 C237 1.387 . S
C239 C241 1.390 1_655 S
C239 H243 0.950 . S
H240 C236 0.950 . S
C241 C239 1.390 1_455 S
C241 C242 1.387 . S
C241 H244 0.950 . S
C242 C241 1.387 . S
C242 C245 1.387 . S
H243 C239 0.950 . S
H244 C241 0.950 . S
C245 C236 1.390 1_455 S
C245 H238 0.950 . S
C245 C242 1.387 . S
C246 C247 1.387 . S
C246 H250 0.950 . S
C246 C255 1.390 1_455 S
C247 C246 1.387 . S
C247 C249 1.387 1_455 S
H248 C255 0.950 . S
C249 C247 1.387 1_655 S
C249 C251 1.390 . S
C249 H253 0.947 1_655 S
H250 C246 0.950 . S
C251 C249 1.390 . S
C251 C252 1.387 . S
C251 H254 0.950 . S
C252 C251 1.387 . S
C252 C255 1.387 . S
H253 C249 0.947 1_455 S
H254 C251 0.950 . S
C255 C246 1.390 1_655 S
C255 H248 0.950 . S
C255 C252 1.387 . S
C256 C257 1.387 . S
C256 H260 0.950 . S
C256 C265 1.390 1_656 S
C257 C256 1.387 . S
C257 C259 1.387 . S
H258 C265 0.950 . S
C259 C257 1.387 . S
C259 C261 1.390 1_656 S
C259 H263 0.950 . S
H260 C256 0.950 . S
C261 C259 1.390 1_454 S
C261 C262 1.387 . S
C261 H264 0.950 . S
C262 C261 1.387 . S
C262 C265 1.387 . S
H263 C259 0.950 . S
H264 C261 0.950 . S
C265 C256 1.390 1_454 S
C265 H258 0.950 . S
C265 C262 1.387 . S
C266 C267 1.387 . S
C266 H270 0.950 . S
C266 C275 1.390 1_454 S
C267 C266 1.387 . S
C267 C269 1.387 . S
H268 C275 0.950 . S
C269 C267 1.387 . S
C269 C271 1.390 1_454 S
C269 H273 0.950 . S
H270 C266 0.950 . S
C271 C269 1.390 1_656 S
C271 C272 1.387 . S
C271 H274 0.950 . S
C272 C271 1.387 . S
C272 C275 1.387 . S
H273 C269 0.950 . S
H274 C271 0.950 . S
C275 C266 1.390 1_656 S
C275 H268 0.950 . S
C275 C272 1.387 . S
C276 C277 1.387 . S
C276 H280 0.950 . S
C276 C285 1.390 1_554 S
C277 C276 1.387 . S
C277 C279 1.387 . S
H278 C285 0.950 . S
C279 C277 1.387 . S
C279 C281 1.390 1_554 S
C279 H283 0.950 . S
H280 C276 0.950 . S
C281 C279 1.390 1_556 S
C281 C282 1.387 . S
C281 H284 0.950 . S
C282 C281 1.387 . S
C282 C285 1.387 . S
H283 C279 0.950 . S
H284 C281 0.950 . S
C285 C276 1.390 1_556 S
C285 H278 0.950 . S
C285 C282 1.387 . S
C286 C287 1.387 . S
C286 H290 0.950 . S
C286 C295 1.390 1_554 S
C287 C286 1.387 . S
C287 C289 1.387 . S
H288 C295 0.950 . S
C289 C287 1.387 . S
C289 C291 1.390 1_554 S
C289 H293 0.950 . S
H290 C286 0.950 . S
C291 C289 1.390 1_556 S
C291 C292 1.387 . S
C291 H294 0.950 . S
C292 C291 1.387 . S
C292 C295 1.387 . S
H293 C289 0.950 . S
H294 C291 0.950 . S
C295 C286 1.390 1_556 S
C295 H288 0.950 . S
C295 C292 1.387 . S
C296 C297 1.387 . S
C296 H300 0.950 . S
C296 C305 1.390 . S
C297 C296 1.387 . S
C297 C299 1.387 . S
H298 C305 0.950 . S
C299 C297 1.387 . S
C299 C301 1.390 . S
C299 H303 0.950 . S
H300 C296 0.950 . S
C301 C299 1.390 . S
C301 C302 1.387 . S
C301 H304 0.950 . S
C302 C301 1.387 . S
C302 C305 1.387 . S
H303 C299 0.950 . S
H304 C301 0.950 . S
C305 C296 1.390 . S
C305 H298 0.950 . S
C305 C302 1.387 . S
C306 C307 1.387 . S
C306 H310 0.950 . S
C306 C315 1.390 . S
C307 C306 1.387 . S
C307 C309 1.387 . S
H308 C315 0.950 . S
C309 C307 1.387 . S
C309 C311 1.390 . S
C309 H313 0.950 . S
H310 C306 0.950 . S
C311 C309 1.390 . S
C311 C312 1.387 . S
C311 H314 0.950 . S
C312 C311 1.387 . S
C312 C315 1.387 . S
H313 C309 0.950 . S
H314 C311 0.950 . S
C315 C306 1.390 . S
C315 H308 0.950 . S
C315 C312 1.387 . S
C316 C317 1.387 . S
C316 H320 0.950 . S
C316 C325 1.390 1_565 S
C317 C316 1.387 . S
C317 C319 1.387 . S
H318 C325 0.950 . S
C319 C317 1.387 . S
C319 C321 1.390 1_565 S
C319 H323 0.950 . S
H320 C316 0.950 . S
C321 C319 1.390 1_545 S
C321 C322 1.387 . S
C321 H324 0.950 . S
C322 C321 1.387 . S
C322 C325 1.387 . S
H323 C319 0.950 . S
H324 C321 0.950 . S
C325 C316 1.390 1_545 S
C325 H318 0.950 . S
C325 C322 1.387 . S
C326 C327 1.387 . S
C326 H330 0.950 . S
C326 C335 1.390 1_565 S
C327 C326 1.387 . S
C327 C329 1.387 . S
H328 C335 0.950 . S
C329 C327 1.387 . S
C329 C331 1.390 1_565 S
C329 H333 0.950 . S
H330 C326 0.950 . S
C331 C329 1.390 1_545 S
C331 C332 1.387 . S
C331 H334 0.950 . S
C332 C331 1.387 . S
C332 C335 1.387 . S
H333 C329 0.950 . S
H334 C331 0.950 . S
C335 C326 1.390 1_545 S
C335 H328 0.950 . S
C335 C332 1.387 . S
C336 C337 1.387 . S
C336 H340 0.950 . S
C336 C345 1.390 . S
C337 C336 1.387 . S
C337 C339 1.387 . S
H338 C345 0.950 . S
C339 C337 1.387 . S
C339 C341 1.390 . S
C339 H343 0.950 . S
H340 C336 0.950 . S
C341 C339 1.390 . S
C341 C342 1.387 . S
C341 H344 0.950 . S
C342 C341 1.387 . S
C342 C345 1.387 . S
H343 C339 0.950 . S
H344 C341 0.950 . S
C345 C336 1.390 . S
C345 H338 0.950 . S
C345 C342 1.387 . S
C346 C347 1.387 . S
C346 H350 0.950 . S
C346 C355 1.390 . S
C347 C346 1.387 . S
C347 C349 1.387 . S
H348 C355 0.950 . S
C349 C347 1.387 . S
C349 C351 1.390 . S
C349 H353 0.950 . S
H350 C346 0.950 . S
C351 C349 1.390 . S
C351 C352 1.387 . S
C351 H354 0.950 . S
C352 C351 1.387 . S
C352 C355 1.387 . S
H353 C349 0.950 . S
H354 C351 0.950 . S
C355 C346 1.390 . S
C355 H348 0.950 . S
C355 C352 1.387 . S
C356 C357 1.387 . S
C356 H360 0.950 . S
C356 C365 1.390 . S
C357 C356 1.387 . S
C357 C359 1.387 . S
H358 C365 0.950 . S
C359 C357 1.387 . S
C359 C361 1.390 . S
C359 H363 0.950 . S
H360 C356 0.950 . S
C361 C359 1.390 . S
C361 C362 1.387 . S
C361 H364 0.950 . S
C362 C361 1.387 . S
C362 C365 1.387 . S
H363 C359 0.950 . S
H364 C361 0.950 . S
C365 C356 1.390 . S
C365 H358 0.950 . S
C365 C362 1.387 . S
C366 C367 1.387 . S
C366 H370 0.950 . S
C366 C375 1.390 . S
C367 C366 1.387 . S
C367 C369 1.387 . S
H368 C375 0.950 . S
C369 C367 1.387 . S
C369 C371 1.390 . S
C369 H373 0.950 . S
H370 C366 0.950 . S
C371 C369 1.390 . S
C371 C372 1.387 . S
C371 H374 0.950 . S
C372 C371 1.387 . S
C372 C375 1.387 . S
H373 C369 0.950 . S
H374 C371 0.950 . S
C375 C366 1.390 . S
C375 H368 0.950 . S
C375 C372 1.387 . S
C376 C377 1.387 . S
C376 H380 0.950 . S
C376 C385 1.390 1_554 S
C377 C376 1.387 . S
C377 C379 1.387 . S
H378 C385 0.950 . S
C379 C377 1.387 . S
C379 C381 1.390 1_554 S
C379 H383 0.950 . S
H380 C376 0.950 . S
C381 C379 1.390 1_556 S
C381 C382 1.387 . S
C381 H384 0.950 . S
C382 C381 1.387 . S
C382 C385 1.387 . S
H383 C379 0.950 . S
H384 C381 0.950 . S
C385 C376 1.390 1_556 S
C385 H378 0.950 . S
C385 C382 1.387 . S
C386 C387 1.387 . S
C386 H390 0.950 . S
C386 C395 1.390 1_554 S
C387 C386 1.387 . S
C387 C389 1.387 . S
H388 C395 0.950 . S
C389 C387 1.387 . S
C389 C391 1.390 1_554 S
C389 H393 0.950 . S
H390 C386 0.950 . S
C391 C389 1.390 1_556 S
C391 C392 1.387 . S
C391 H394 0.950 . S
C392 C391 1.387 . S
C392 C395 1.387 . S
H393 C389 0.950 . S
H394 C391 0.950 . S
C395 C386 1.390 1_556 S
C395 H388 0.950 . S
C395 C392 1.387 . S
C396 C397 1.387 . S
C396 H400 0.950 . S
C396 C405 1.390 1_556 S
C397 C396 1.387 . S
C397 C399 1.387 . S
H398 C405 0.950 . S
C399 C397 1.387 . S
C399 C401 1.390 1_556 S
C399 H403 0.950 . S
H400 C396 0.950 . S
C401 C399 1.390 1_554 S
C401 C402 1.387 . S
C401 H404 0.950 . S
C402 C401 1.387 . S
C402 C405 1.387 . S
H403 C399 0.950 . S
H404 C401 0.950 . S
C405 C396 1.390 1_554 S
C405 H398 0.950 . S
C405 C402 1.387 . S
C406 C407 1.387 . S
C406 H410 0.950 . S
C406 C415 1.390 1_554 S
C407 C406 1.387 . S
C407 C409 1.387 . S
H408 C415 0.950 . S
C409 C407 1.387 . S
C409 C411 1.390 1_554 S
C409 H413 0.950 . S
H410 C406 0.950 . S
C411 C409 1.390 1_556 S
C411 C412 1.387 . S
C411 H414 0.950 . S
C412 C411 1.387 . S
C412 C415 1.387 . S
H413 C409 0.950 . S
H414 C411 0.950 . S
C415 C406 1.390 1_556 S
C415 H408 0.950 . S
C415 C412 1.387 . S
C177 C160 1.379 . S
C182 C5 1.324 . S
C187 C31 1.324 . S
C192 C139 1.379 . S
C197 C115 1.379 . S
C202 C50 1.328 . S
C207 C73 1.328 . S
C212 C97 1.379 . S
C217 C72 1.380 . S
C222 C93 1.328 . S
C227 C51 1.379 . S
C232 C119 1.324 . S
C237 C27 1.379 . S
C242 C138 1.324 . S
C247 C9 1.380 . S
C252 C161 1.328 . S
C257 C26 1.856 . S
C262 C8 1.856 . S
C267 C70 1.855 . S
C272 C52 1.855 . S
C277 C96 1.856 . S
C282 C114 1.856 . S
C287 C158 1.856 . S
C292 C140 1.856 . S
C297 C74 1.488 . S
C302 C4 1.491 . S
C307 C48 1.491 . S
C312 C30 1.488 . S
C317 C92 1.491 . S
C322 C162 1.488 . S
C327 C118 1.491 . S
C332 C136 1.488 . S
C337 C137 1.776 . S
C342 C6 1.776 . S
C347 C29 1.778 . S
C352 C163 1.778 . S
C357 C94 1.778 . S
C362 C49 1.778 . S
C367 C117 1.777 . S
C372 C75 1.777 . S
C377 C7 1.084 . S
C382 C141 1.084 . S
C387 C159 1.083 . S
C392 C28 1.083 . S
C397 C53 1.085 . S
C402 C95 1.085 . S
C407 C71 1.087 . S
C412 C116 1.087 . S
