# Generated by pormake.
# Topology uow, (4)-cn, num edge types: 1
# Building blocks:
#     Node 0, Type 0, BuildingBlock: NAHDIM_clean_sbu_0, # of connection points: 4
#     Node 1, Type 0, BuildingBlock: NAHDIM_clean_sbu_0, # of connection points: 4
#     Node 2, Type 0, BuildingBlock: NAHDIM_clean_sbu_0, # of connection points: 4
#     Node 3, Type 0, BuildingBlock: NAHDIM_clean_sbu_0, # of connection points: 4
#     Node 4, Type 0, BuildingBlock: NAHDIM_clean_sbu_0, # of connection points: 4
#     Node 5, Type 0, BuildingBlock: NAHDIM_clean_sbu_0, # of connection points: 4
#     Node 6, Type 0, BuildingBlock: NAHDIM_clean_sbu_0, # of connection points: 4
#     Node 7, Type 0, BuildingBlock: NAHDIM_clean_sbu_0, # of connection points: 4
#     Node 8, Type 0, BuildingBlock: NAHDIM_clean_sbu_0, # of connection points: 4
#     Node 9, Type 0, BuildingBlock: NAHDIM_clean_sbu_0, # of connection points: 4
#     Node 10, Type 0, BuildingBlock: NAHDIM_clean_sbu_0, # of connection points: 4
#     Node 11, Type 0, BuildingBlock: NAHDIM_clean_sbu_0, # of connection points: 4
#     Node 12, Type 0, BuildingBlock: NAHDIM_clean_sbu_0, # of connection points: 4
#     Node 13, Type 0, BuildingBlock: NAHDIM_clean_sbu_0, # of connection points: 4
#     Node 14, Type 0, BuildingBlock: NAHDIM_clean_sbu_0, # of connection points: 4
#     Node 15, Type 0, BuildingBlock: NAHDIM_clean_sbu_0, # of connection points: 4
#     Node 16, Type 0, BuildingBlock: NAHDIM_clean_sbu_0, # of connection points: 4
#     Node 17, Type 0, BuildingBlock: NAHDIM_clean_sbu_0, # of connection points: 4
#     Node 18, Type 0, BuildingBlock: NAHDIM_clean_sbu_0, # of connection points: 4
#     Node 19, Type 0, BuildingBlock: NAHDIM_clean_sbu_0, # of connection points: 4
#     Node 20, Type 0, BuildingBlock: NAHDIM_clean_sbu_0, # of connection points: 4
#     Node 21, Type 0, BuildingBlock: NAHDIM_clean_sbu_0, # of connection points: 4
#     Node 22, Type 0, BuildingBlock: NAHDIM_clean_sbu_0, # of connection points: 4
#     Node 23, Type 0, BuildingBlock: NAHDIM_clean_sbu_0, # of connection points: 4
#     Node 24, Type 0, BuildingBlock: NAHDIM_clean_sbu_0, # of connection points: 4
#     Node 25, Type 0, BuildingBlock: NAHDIM_clean_sbu_0, # of connection points: 4
#     Node 26, Type 0, BuildingBlock: NAHDIM_clean_sbu_0, # of connection points: 4
#     Node 27, Type 0, BuildingBlock: NAHDIM_clean_sbu_0, # of connection points: 4
#     Node 28, Type 0, BuildingBlock: NAHDIM_clean_sbu_0, # of connection points: 4
#     Node 29, Type 0, BuildingBlock: NAHDIM_clean_sbu_0, # of connection points: 4
#     Node 30, Type 0, BuildingBlock: NAHDIM_clean_sbu_0, # of connection points: 4
#     Node 31, Type 0, BuildingBlock: NAHDIM_clean_sbu_0, # of connection points: 4
#     Edge 32, Type (0, 0), BuildingBlock: EZIPEK_clean_linker_0, # of connection points: 2
#     Edge 33, Type (0, 0), BuildingBlock: EZIPEK_clean_linker_0, # of connection points: 2
#     Edge 34, Type (0, 0), BuildingBlock: EZIPEK_clean_linker_0, # of connection points: 2
#     Edge 35, Type (0, 0), BuildingBlock: EZIPEK_clean_linker_0, # of connection points: 2
#     Edge 36, Type (0, 0), BuildingBlock: EZIPEK_clean_linker_0, # of connection points: 2
#     Edge 37, Type (0, 0), BuildingBlock: EZIPEK_clean_linker_0, # of connection points: 2
#     Edge 38, Type (0, 0), BuildingBlock: EZIPEK_clean_linker_0, # of connection points: 2
#     Edge 39, Type (0, 0), BuildingBlock: EZIPEK_clean_linker_0, # of connection points: 2
#     Edge 40, Type (0, 0), BuildingBlock: EZIPEK_clean_linker_0, # of connection points: 2
#     Edge 41, Type (0, 0), BuildingBlock: EZIPEK_clean_linker_0, # of connection points: 2
#     Edge 42, Type (0, 0), BuildingBlock: EZIPEK_clean_linker_0, # of connection points: 2
#     Edge 43, Type (0, 0), BuildingBlock: EZIPEK_clean_linker_0, # of connection points: 2
#     Edge 44, Type (0, 0), BuildingBlock: EZIPEK_clean_linker_0, # of connection points: 2
#     Edge 45, Type (0, 0), BuildingBlock: EZIPEK_clean_linker_0, # of connection points: 2
#     Edge 46, Type (0, 0), BuildingBlock: EZIPEK_clean_linker_0, # of connection points: 2
#     Edge 47, Type (0, 0), BuildingBlock: EZIPEK_clean_linker_0, # of connection points: 2
#     Edge 48, Type (0, 0), BuildingBlock: EZIPEK_clean_linker_0, # of connection points: 2
#     Edge 49, Type (0, 0), BuildingBlock: EZIPEK_clean_linker_0, # of connection points: 2
#     Edge 50, Type (0, 0), BuildingBlock: EZIPEK_clean_linker_0, # of connection points: 2
#     Edge 51, Type (0, 0), BuildingBlock: EZIPEK_clean_linker_0, # of connection points: 2
#     Edge 52, Type (0, 0), BuildingBlock: EZIPEK_clean_linker_0, # of connection points: 2
#     Edge 53, Type (0, 0), BuildingBlock: EZIPEK_clean_linker_0, # of connection points: 2
#     Edge 54, Type (0, 0), BuildingBlock: EZIPEK_clean_linker_0, # of connection points: 2
#     Edge 55, Type (0, 0), BuildingBlock: EZIPEK_clean_linker_0, # of connection points: 2
#     Edge 56, Type (0, 0), BuildingBlock: EZIPEK_clean_linker_0, # of connection points: 2
#     Edge 57, Type (0, 0), BuildingBlock: EZIPEK_clean_linker_0, # of connection points: 2
#     Edge 58, Type (0, 0), BuildingBlock: EZIPEK_clean_linker_0, # of connection points: 2
#     Edge 59, Type (0, 0), BuildingBlock: EZIPEK_clean_linker_0, # of connection points: 2
#     Edge 60, Type (0, 0), BuildingBlock: EZIPEK_clean_linker_0, # of connection points: 2
#     Edge 61, Type (0, 0), BuildingBlock: EZIPEK_clean_linker_0, # of connection points: 2
#     Edge 62, Type (0, 0), BuildingBlock: EZIPEK_clean_linker_0, # of connection points: 2
#     Edge 63, Type (0, 0), BuildingBlock: EZIPEK_clean_linker_0, # of connection points: 2
#     Edge 64, Type (0, 0), BuildingBlock: EZIPEK_clean_linker_0, # of connection points: 2
#     Edge 65, Type (0, 0), BuildingBlock: EZIPEK_clean_linker_0, # of connection points: 2
#     Edge 66, Type (0, 0), BuildingBlock: EZIPEK_clean_linker_0, # of connection points: 2
#     Edge 67, Type (0, 0), BuildingBlock: EZIPEK_clean_linker_0, # of connection points: 2
#     Edge 68, Type (0, 0), BuildingBlock: EZIPEK_clean_linker_0, # of connection points: 2
#     Edge 69, Type (0, 0), BuildingBlock: EZIPEK_clean_linker_0, # of connection points: 2
#     Edge 70, Type (0, 0), BuildingBlock: EZIPEK_clean_linker_0, # of connection points: 2
#     Edge 71, Type (0, 0), BuildingBlock: EZIPEK_clean_linker_0, # of connection points: 2
#     Edge 72, Type (0, 0), BuildingBlock: EZIPEK_clean_linker_0, # of connection points: 2
#     Edge 73, Type (0, 0), BuildingBlock: EZIPEK_clean_linker_0, # of connection points: 2
#     Edge 74, Type (0, 0), BuildingBlock: EZIPEK_clean_linker_0, # of connection points: 2
#     Edge 75, Type (0, 0), BuildingBlock: EZIPEK_clean_linker_0, # of connection points: 2
#     Edge 76, Type (0, 0), BuildingBlock: EZIPEK_clean_linker_0, # of connection points: 2
#     Edge 77, Type (0, 0), BuildingBlock: EZIPEK_clean_linker_0, # of connection points: 2
#     Edge 78, Type (0, 0), BuildingBlock: EZIPEK_clean_linker_0, # of connection points: 2
#     Edge 79, Type (0, 0), BuildingBlock: EZIPEK_clean_linker_0, # of connection points: 2
#     Edge 80, Type (0, 0), BuildingBlock: EZIPEK_clean_linker_0, # of connection points: 2
#     Edge 81, Type (0, 0), BuildingBlock: EZIPEK_clean_linker_0, # of connection points: 2
#     Edge 82, Type (0, 0), BuildingBlock: EZIPEK_clean_linker_0, # of connection points: 2
#     Edge 83, Type (0, 0), BuildingBlock: EZIPEK_clean_linker_0, # of connection points: 2
#     Edge 84, Type (0, 0), BuildingBlock: EZIPEK_clean_linker_0, # of connection points: 2
#     Edge 85, Type (0, 0), BuildingBlock: EZIPEK_clean_linker_0, # of connection points: 2
#     Edge 86, Type (0, 0), BuildingBlock: EZIPEK_clean_linker_0, # of connection points: 2
#     Edge 87, Type (0, 0), BuildingBlock: EZIPEK_clean_linker_0, # of connection points: 2
#     Edge 88, Type (0, 0), BuildingBlock: EZIPEK_clean_linker_0, # of connection points: 2
#     Edge 89, Type (0, 0), BuildingBlock: EZIPEK_clean_linker_0, # of connection points: 2
#     Edge 90, Type (0, 0), BuildingBlock: EZIPEK_clean_linker_0, # of connection points: 2
#     Edge 91, Type (0, 0), BuildingBlock: EZIPEK_clean_linker_0, # of connection points: 2
#     Edge 92, Type (0, 0), BuildingBlock: EZIPEK_clean_linker_0, # of connection points: 2
#     Edge 93, Type (0, 0), BuildingBlock: EZIPEK_clean_linker_0, # of connection points: 2
#     Edge 94, Type (0, 0), BuildingBlock: EZIPEK_clean_linker_0, # of connection points: 2
#     Edge 95, Type (0, 0), BuildingBlock: EZIPEK_clean_linker_0, # of connection points: 2
# Relax obj value: 0.214
# Max RMSD: 0.240
# Mean RMSD: 0.240
data_MOF--net-uow--node1-NAHDIM_clean_sbu_0--edge1-EZIPEK_clean_linker_0
_symmetry_space_group_name_H-M    P1
_symmetry_Int_Tables_number       1
_symmetry_cell_setting            triclinic
loop_
_symmetry_equiv_pos_as_xyz
'x, y, z'
_cell_length_a     46.019727
_cell_length_b     45.978592
_cell_length_c     28.696814
_cell_angle_alpha  90.020185
_cell_angle_beta   89.945344
_cell_angle_gamma 90.020179
loop_
_atom_site_label
_atom_site_type_symbol
_atom_site_fract_x
_atom_site_fract_y
_atom_site_fract_z
_atom_type_partial_charge
C0 C 0.02535 0.44172 0.24754 0.0
O1 O 0.02063 0.42857 0.20763 0.0
O2 O 0.98663 0.37038 0.2885 0.0
Zn3 Zn 0.02804 0.38317 0.279 0.0
O4 O 0.0438 0.36941 0.21705 0.0
C5 C 0.04498 0.33842 0.3404 0.0
O6 O 0.02227 0.32626 0.32081 0.0
O7 O 0.0302 0.42669 0.28382 0.0
C8 C 0.03744 0.34448 0.20084 0.0
O9 O 0.0193 0.32761 0.22355 0.0
C10 C 0.96324 0.3815 0.27325 0.0
O11 O 0.96399 0.40395 0.24502 0.0
O12 O 0.05191 0.36431 0.32954 0.0
C13 C 0.79488 0.76355 0.55241 0.0
O14 O 0.80487 0.76529 0.59517 0.0
O15 O 0.86476 0.71881 0.54801 0.0
Zn16 Zn 0.85528 0.76031 0.53042 0.0
O17 O 0.87627 0.77313 0.47203 0.0
C18 C 0.88634 0.78398 0.60978 0.0
O19 O 0.90165 0.76006 0.6057 0.0
O20 O 0.81246 0.76171 0.51843 0.0
C21 C 0.90212 0.78293 0.47216 0.0
O22 O 0.91684 0.7842 0.51124 0.0
C23 C 0.88991 0.70768 0.5444 0.0
O24 O 0.91112 0.72299 0.5262 0.0
O25 O 0.86492 0.7883 0.58276 0.0
C26 C 0.47427 0.54951 0.78846 0.0
O27 O 0.4858 0.56063 0.82633 0.0
O28 O 0.51057 0.61706 0.78471 0.0
Zn29 Zn 0.46996 0.60879 0.76491 0.0
O30 O 0.46062 0.63027 0.70636 0.0
C31 C 0.4488 0.65043 0.82499 0.0
O32 O 0.46921 0.66466 0.80252 0.0
O33 O 0.46513 0.56615 0.75643 0.0
C34 C 0.43517 0.6277 0.68994 0.0
O35 O 0.41636 0.61045 0.71048 0.0
C36 C 0.53373 0.61354 0.76142 0.0
O37 O 0.53284 0.60298 0.71892 0.0
O38 O 0.44414 0.62389 0.8154 0.0
C39 C 0.68754 0.24685 0.97817 0.0
O40 O 0.66707 0.24773 0.94634 0.0
O41 O 0.62314 0.27451 0.06896 0.0
Zn42 Zn 0.63964 0.23809 0.04151 0.0
O43 O 0.61429 0.22468 0.98874 0.0
C44 C 0.63863 0.21076 0.13326 0.0
O45 O 0.64247 0.23752 0.14808 0.0
O46 O 0.68088 0.24353 0.02079 0.0
C47 C 0.58787 0.21876 -0.00245 0.0
O48 O 0.57763 0.22301 0.03976 0.0
C49 C 0.61482 0.29599 0.04467 0.0
O50 O 0.61824 0.29571 -0.00076 0.0
O51 O 0.63739 0.20659 0.08954 0.0
C52 C 0.00968 0.56568 0.23865 0.0
O53 O 0.9842 0.57323 0.22209 0.0
O54 O 0.97785 0.63377 0.22065 0.0
Zn55 Zn 0.02069 0.62662 0.2296 0.0
O56 O 0.03582 0.65446 0.27814 0.0
C57 C 0.0331 0.62235 0.13094 0.0
O58 O 0.0131 0.60198 0.13105 0.0
O59 O 0.02876 0.58499 0.24663 0.0
C60 C 0.04504 0.67959 0.26683 0.0
O61 O 0.04556 0.68736 0.22282 0.0
C62 C 0.97134 0.65617 0.19703 0.0
O63 O 0.99206 0.67367 0.18287 0.0
O64 O 0.0404 0.63475 0.16872 0.0
C65 C 0.67139 0.75697 0.51926 0.0
O66 O 0.65614 0.73606 0.53865 0.0
O67 O 0.60691 0.72996 0.46441 0.0
Zn68 Zn 0.61607 0.77116 0.48339 0.0
O69 O 0.59556 0.78207 0.54288 0.0
C70 C 0.61218 0.79579 0.39074 0.0
O71 O 0.63187 0.77623 0.38009 0.0
O72 O 0.6589 0.77529 0.49299 0.0
C73 C 0.57114 0.79502 0.54324 0.0
O74 O 0.558 0.80109 0.50384 0.0
C75 C 0.58085 0.72431 0.45321 0.0
O76 O 0.56097 0.74461 0.45737 0.0
O77 O 0.60286 0.79782 0.43225 0.0
C78 C 0.4728 0.42649 0.7514 0.0
O79 O 0.47722 0.40729 0.7845 0.0
O80 O 0.51065 0.36559 0.67382 0.0
Zn81 Zn 0.47025 0.37569 0.69493 0.0
O82 O 0.45664 0.35327 0.75105 0.0
C83 C 0.4474 0.3431 0.62105 0.0
O84 O 0.47138 0.32853 0.62923 0.0
O85 O 0.46896 0.41813 0.70968 0.0
C86 C 0.45931 0.3261 0.75771 0.0
O87 O 0.47418 0.31018 0.72811 0.0
C88 C 0.53384 0.37174 0.69561 0.0
O89 O 0.53257 0.38455 0.73646 0.0
O90 O 0.44234 0.36634 0.6435 0.0
C91 C 0.81061 0.24426 0.9437 0.0
O92 O 0.82566 0.26354 0.9201 0.0
O93 O 0.88774 0.25405 0.94655 0.0
Zn94 Zn 0.86649 0.21717 0.9604 0.0
O95 O 0.88126 0.20042 0.02034 0.0
C96 C 0.87207 0.1941 0.86684 0.0
O97 O 0.85564 0.21612 0.85442 0.0
O98 O 0.82334 0.22294 0.96301 0.0
C99 C 0.90685 0.19008 0.0204 0.0
O100 O 0.92273 0.1914 0.9824 0.0
C101 C 0.88804 0.27714 0.97074 0.0
O102 O 0.87313 0.27877 0.00969 0.0
O103 O 0.87747 0.18961 0.90958 0.0
C104 C -0.00424 0.55419 0.75488 0.0
O105 O 0.00496 0.57102 0.78878 0.0
O106 O 0.01557 0.62521 0.67875 0.0
Zn107 Zn 0.98081 0.6083 0.71091 0.0
O108 O 0.97596 0.62776 0.77338 0.0
C109 C 0.94302 0.61222 0.62906 0.0
O110 O 0.96508 0.60025 0.60727 0.0
O111 O 0.98492 0.56535 0.71839 0.0
C112 C 0.95695 0.64756 0.77848 0.0
O113 O 0.94122 0.65578 0.7427 0.0
C114 C 0.01265 0.65115 0.66436 0.0
O115 O 0.98828 0.66511 0.67254 0.0
O116 O 0.94543 0.61682 0.67251 0.0
C117 C 0.19041 0.21666 0.47083 0.0
O118 O 0.1797 0.23898 0.44811 0.0
O119 O 0.11903 0.24363 0.46723 0.0
Zn120 Zn 0.13009 0.20259 0.48537 0.0
O121 O 0.11166 0.19188 0.54681 0.0
C122 C 0.12536 0.17728 0.39398 0.0
O123 O 0.14685 0.1951 0.38436 0.0
O124 O 0.17344 0.19847 0.49004 0.0
C125 C 0.08436 0.18826 0.5502 0.0
O126 O 0.06785 0.19166 0.51334 0.0
C127 C 0.09573 0.24719 0.4442 0.0
O128 O 0.07906 0.22477 0.43499 0.0
O129 O 0.11551 0.17576 0.43529 0.0
C130 C 0.50052 0.42224 0.28945 0.0
O131 O 0.49182 0.40609 0.32454 0.0
O132 O 0.47723 0.3491 0.22441 0.0
Zn133 Zn 0.5141 0.36678 0.24864 0.0
O134 O 0.52613 0.34959 0.31013 0.0
C135 C 0.54741 0.36933 0.16315 0.0
O136 O 0.53251 0.39315 0.15503 0.0
O137 O 0.51079 0.41026 0.25313 0.0
C138 C 0.51936 0.32396 0.32264 0.0
O139 O 0.50245 0.30805 0.29601 0.0
C140 C 0.45112 0.35735 0.22982 0.0
O141 O 0.44498 0.37942 0.25713 0.0
O142 O 0.54415 0.3558 0.20136 0.0
C143 C 0.29773 0.76585 0.97434 0.0
O144 O 0.30923 0.76337 0.93267 0.0
O145 O 0.36909 0.73014 0.9682 0.0
Zn146 Zn 0.35728 0.76724 -0.00015 0.0
O147 O 0.37848 0.77082 0.06063 0.0
C148 C 0.36985 0.80222 0.91626 0.0
O149 O 0.36151 0.77883 0.89375 0.0
O150 O 0.31418 0.76772 0.00972 0.0
C151 C 0.37881 0.79581 0.07946 0.0
O152 O 0.36411 0.8172 0.06049 0.0
C153 C 0.39453 0.72943 0.95116 0.0
O154 O 0.412 0.75165 0.9578 0.0
O155 O 0.36974 0.80156 0.96051 0.0
C156 C -0.00135 0.42887 0.76058 0.0
O157 O 0.01605 0.41544 0.73136 0.0
O158 O 0.02099 0.35483 0.79297 0.0
Zn159 Zn 0.98135 0.37092 0.78008 0.0
O160 O 0.96711 0.36028 0.71626 0.0
C161 C 0.96018 0.35597 0.87059 0.0
O162 O 0.98304 0.37081 0.88423 0.0
O163 O 0.98171 0.41418 0.78636 0.0
C164 C 0.9651 0.334 0.70298 0.0
O165 O 0.9734 0.31293 0.73085 0.0
C166 C 0.0408 0.34871 0.76378 0.0
O167 O 0.0368 0.35313 0.71905 0.0
O168 O 0.95444 0.35378 0.82747 0.0
C169 C 0.31453 0.20202 0.48595 0.0
O170 O 0.33121 0.20111 0.44882 0.0
O171 O 0.38166 0.24168 0.54912 0.0
Zn172 Zn 0.36887 0.20108 0.5357 0.0
O173 O 0.38997 0.18797 0.47821 0.0
C174 C 0.39502 0.18479 0.62305 0.0
O175 O 0.40276 0.21226 0.62322 0.0
O176 O 0.32578 0.20158 0.52631 0.0
C177 C 0.41759 0.18796 0.4779 0.0
O178 O 0.43185 0.19534 0.51574 0.0
C179 C 0.38023 0.26312 0.52137 0.0
O180 O 0.36835 0.26009 0.48007 0.0
O181 O 0.37954 0.17501 0.58986 0.0
C182 C 0.49429 0.54767 0.29679 0.0
O183 O 0.4788 0.56145 0.32826 0.0
O184 O 0.46543 0.61991 0.27376 0.0
Zn185 Zn 0.50654 0.6055 0.2644 0.0
O186 O 0.52097 0.61963 0.20241 0.0
C187 C 0.5242 0.63429 0.35096 0.0
O188 O 0.49666 0.63222 0.36231 0.0
O189 O 0.50805 0.56196 0.26603 0.0
C190 C 0.54819 0.62129 0.19549 0.0
O191 O 0.56627 0.61286 0.22819 0.0
C192 C 0.46164 0.64704 0.27952 0.0
O193 O 0.484 0.66456 0.27457 0.0
O194 O 0.53318 0.6224 0.31365 0.0
C195 C 0.17274 0.76873 0.99091 0.0
O196 O 0.1585 0.7928 0.98164 0.0
O197 O 0.09827 0.71151 0.02666 0.0
Zn198 Zn 0.11595 0.74993 0.01036 0.0
O199 O 0.099 0.76562 0.95098 0.0
C200 C 0.08708 0.77367 0.09043 0.0
O201 O 0.07209 0.74946 0.08733 0.0
O202 O 0.15888 0.74628 0.00388 0.0
C203 C 0.07256 0.77352 0.9493 0.0
O204 O 0.05589 0.77024 0.98609 0.0
C205 C 0.08869 0.69223 -0.00101 0.0
O206 O 0.0913 0.69551 0.95372 0.0
O207 O 0.10773 0.77843 0.06206 0.0
C208 C 0.51122 0.93448 0.75942 0.0
O209 O 0.49389 0.9205 0.73079 0.0
O210 O 0.47718 0.87262 0.82043 0.0
Zn211 Zn 0.51762 0.87778 0.79429 0.0
O212 O 0.52301 0.86117 0.72952 0.0
C213 C 0.54075 0.83564 0.85773 0.0
O214 O 0.51473 0.82445 0.85279 0.0
O215 O 0.52478 0.92056 0.79079 0.0
C216 C 0.52782 0.83443 0.72121 0.0
O217 O 0.52768 0.81548 0.75537 0.0
C218 C 0.46102 0.85076 0.81277 0.0
O219 O 0.46931 0.83095 0.78263 0.0
O220 O 0.54715 0.85926 0.83718 0.0
C221 C 0.31708 0.25437 0.01965 0.0
O222 O 0.32708 0.23444 0.04816 0.0
O223 O 0.38915 0.22748 0.03046 0.0
Zn224 Zn 0.37791 0.26752 0.00853 0.0
O225 O 0.40123 0.2771 0.95102 0.0
C226 C 0.38199 0.29198 0.10107 0.0
O227 O 0.36349 0.27122 0.1114 0.0
O228 O 0.33465 0.27094 -0.00188 0.0
C229 C 0.39027 0.28543 0.91269 0.0
O230 O 0.36192 0.28735 0.90839 0.0
C231 C 0.41482 0.22614 0.04649 0.0
O232 O 0.43168 0.24911 0.04327 0.0
O233 O 0.39016 0.29542 0.05911 0.0
C234 C 0.98536 0.05958 0.22651 0.0
O235 O 0.99453 0.07353 0.18939 0.0
O236 O 0.02189 0.12897 0.28488 0.0
Zn237 Zn 0.98221 0.11708 0.26377 0.0
O238 O 0.97296 0.13485 0.20152 0.0
C239 C 0.95834 0.16184 0.31427 0.0
O240 O 0.97867 0.17491 0.28988 0.0
O241 O 0.97851 0.07366 0.26293 0.0
C242 C 0.94792 0.13039 0.18441 0.0
O243 O 0.9295 0.11339 0.20631 0.0
C244 C 0.04653 0.11859 0.27405 0.0
O245 O 0.04869 0.09743 0.24352 0.0
O246 O 0.95473 0.1346 0.30995 0.0
C247 C 0.18131 0.74683 0.45361 0.0
O248 O 0.16593 0.73914 0.41712 0.0
O249 O 0.10935 0.78822 0.52466 0.0
Zn250 Zn 0.12534 0.75165 0.49716 0.0
O251 O 0.10701 0.74081 0.43623 0.0
C252 C 0.08645 0.72093 0.55053 0.0
O253 O 0.06992 0.74044 0.53027 0.0
O254 O 0.16868 0.75337 0.49156 0.0
C255 C 0.08449 0.75178 0.4178 0.0
O256 O 0.07152 0.77413 0.43731 0.0
C257 C 0.11099 0.81485 0.51355 0.0
O258 O 0.12595 0.82311 0.47688 0.0
O259 O 0.11355 0.7206 0.54219 0.0
C260 C 0.52004 0.05939 0.74881 0.0
O261 O 0.51721 0.07264 0.70854 0.0
O262 O 0.48503 0.12983 0.7515 0.0
Zn263 Zn 0.523 0.11744 0.7793 0.0
O264 O 0.53281 0.13744 0.83961 0.0
C265 C 0.54914 0.15562 0.71771 0.0
O266 O 0.52668 0.17069 0.73217 0.0
O267 O 0.52332 0.07422 0.78575 0.0
C268 C 0.5228 0.16213 0.85139 0.0
O269 O 0.50253 0.17455 0.82611 0.0
C270 C 0.45885 0.12635 0.76415 0.0
O271 O 0.45263 0.11244 0.80286 0.0
O272 O 0.55326 0.13008 0.73315 0.0
C273 C 0.19241 0.26661 0.00755 0.0
O274 O 0.17651 0.25619 0.04171 0.0
O275 O 0.11896 0.24328 0.95487 0.0
Zn276 Zn 0.13664 0.28163 0.97125 0.0
O277 O 0.11986 0.29639 0.03167 0.0
C278 C 0.12822 0.29881 0.87766 0.0
O279 O 0.14553 0.27657 0.87018 0.0
O280 O 0.18017 0.27895 0.97322 0.0
C281 C 0.09255 0.30029 0.03395 0.0
O282 O 0.07632 0.29445 -0.00251 0.0
C283 C 0.11307 0.22144 0.98013 0.0
O284 O 0.12051 0.22102 0.02428 0.0
O285 O 0.12341 0.30721 0.91913 0.0
C286 C 0.98114 0.93437 0.21781 0.0
O287 O 0.99148 0.92179 0.1802 0.0
O288 O 0.01279 0.86528 0.21968 0.0
Zn289 Zn 0.97221 0.87579 0.24183 0.0
O290 O 0.96079 0.85582 0.30178 0.0
C291 C 0.94777 0.8447 0.16384 0.0
O292 O 0.97184 0.82978 0.16795 0.0
O293 O 0.97105 0.9189 0.25069 0.0
C294 C 0.95033 0.83021 0.30253 0.0
O295 O 0.94759 0.81543 0.26366 0.0
C296 C 0.02273 0.83958 0.22103 0.0
O297 O 0.00874 0.81991 0.24547 0.0
O298 O 0.94279 0.86577 0.19136 0.0
C299 C 0.30659 0.74849 0.44823 0.0
O300 O 0.32086 0.76845 0.42486 0.0
O301 O 0.37828 0.77089 0.47029 0.0
Zn302 Zn 0.3639 0.72985 0.47257 0.0
O303 O 0.37797 0.71001 0.53065 0.0
C304 C 0.37268 0.70897 0.37512 0.0
O305 O 0.35033 0.72464 0.36186 0.0
O306 O 0.32042 0.72939 0.47118 0.0
C307 C 0.40089 0.69461 0.5293 0.0
O308 O 0.41577 0.69242 0.49042 0.0
C309 C 0.40439 0.77549 0.45806 0.0
O310 O 0.42181 0.75339 0.4504 0.0
O311 O 0.38014 0.70824 0.41769 0.0
C312 C 0.47154 0.06241 0.24299 0.0
O313 O 0.44916 0.07966 0.23655 0.0
O314 O 0.54305 0.12588 0.22721 0.0
Zn315 Zn 0.50117 0.11604 0.23984 0.0
O316 O 0.48695 0.13267 0.30067 0.0
C317 C 0.47928 0.15385 0.16618 0.0
O318 O 0.50107 0.17056 0.17841 0.0
O319 O 0.49699 0.07298 0.24499 0.0
C320 C 0.47381 0.15682 0.30485 0.0
O321 O 0.47003 0.17359 0.26837 0.0
C322 C 0.55315 0.15126 0.2336 0.0
O323 O 0.53714 0.17073 0.25516 0.0
O324 O 0.47571 0.12947 0.18624 0.0
C325 C 0.69462 0.69941 0.93313 0.0
O326 O 0.68096 0.70244 0.89326 0.0
O327 O 0.62617 0.73502 0.94523 0.0
Zn328 Zn 0.63731 0.69402 0.96327 0.0
O329 O 0.61847 0.68109 0.02349 0.0
C330 C 0.60575 0.67067 0.88524 0.0
O331 O 0.59014 0.69416 0.89164 0.0
O332 O 0.68028 0.69459 0.97011 0.0
C333 C 0.59363 0.66898 0.02414 0.0
O334 O 0.57922 0.66511 0.9852 0.0
C335 C 0.60071 0.74508 0.95032 0.0
O336 O 0.58107 0.72941 0.97196 0.0
O337 O 0.62745 0.66578 0.91136 0.0
C338 C -0.00224 0.93113 0.79194 0.0
O339 O -0.00337 0.91159 0.82526 0.0
O340 O 0.97205 0.86328 0.70962 0.0
Zn341 Zn 0.00871 0.88159 0.73317 0.0
O342 O 0.02308 0.85944 0.78883 0.0
C343 C 0.03531 0.86291 0.64757 0.0
O344 O 0.01061 0.84894 0.64294 0.0
O345 O 0.00207 0.9233 0.75006 0.0
C346 C 0.02809 0.83233 0.78614 0.0
O347 O 0.02359 0.81855 0.74669 0.0
C348 C 0.94835 0.85897 0.73116 0.0
O349 O 0.94499 0.8684 0.77404 0.0
O350 O 0.03934 0.8792 0.68278 0.0
C351 C 0.80624 0.28097 0.44175 0.0
O352 O 0.81691 0.26431 0.40874 0.0
O353 O 0.87778 0.25265 0.43761 0.0
Zn354 Zn 0.86663 0.29247 0.46041 0.0
O355 O 0.88626 0.29962 0.52218 0.0
C356 C 0.87458 0.32061 0.37044 0.0
O357 O 0.85454 0.30245 0.35587 0.0
O358 O 0.82332 0.29531 0.46786 0.0
C359 C 0.91087 0.31211 0.52474 0.0
O360 O 0.92388 0.32104 0.48659 0.0
C361 C 0.90312 0.25037 0.42046 0.0
O362 O 0.92061 0.27293 0.42118 0.0
O363 O 0.88144 0.32134 0.4133 0.0
C364 C 0.45792 0.93913 0.2715 0.0
O365 O 0.43238 0.92734 0.27942 0.0
O366 O 0.51271 0.86115 0.29769 0.0
Zn367 Zn 0.47533 0.88092 0.28291 0.0
O368 O 0.45609 0.86162 0.22867 0.0
C369 C 0.45818 0.87192 0.37891 0.0
O370 O 0.48615 0.87491 0.38655 0.0
O371 O 0.4805 0.92331 0.27104 0.0
C372 C 0.45009 0.83471 0.23141 0.0
O373 O 0.45833 0.81971 0.26805 0.0
C374 C 0.53743 0.86456 0.27891 0.0
O375 O 0.54076 0.88257 0.24381 0.0
O376 O 0.44909 0.87467 0.33735 0.0
C377 C 0.81732 0.71909 0.95467 0.0
O378 O 0.83329 0.73265 0.92355 0.0
O379 O 0.87506 0.76194 0.01973 0.0
Zn380 Zn 0.87034 0.71963 0.00354 0.0
O381 O 0.89328 0.7081 0.94698 0.0
C382 C 0.87479 0.69677 0.09793 0.0
O383 O 0.85072 0.71112 0.10667 0.0
O384 O 0.82856 0.71095 0.99282 0.0
C385 C 0.91985 0.70074 0.94941 0.0
O386 O 0.9338 0.70247 0.98919 0.0
C387 C 0.89788 0.76813 0.04242 0.0
O388 O 0.91743 0.7479 0.04983 0.0
O389 O 0.88523 0.69632 0.05701 0.0
C390 C 0.99525 0.05508 0.8184 0.0
O391 O 0.97528 0.06953 0.84146 0.0
O392 O 0.97842 0.12976 0.80499 0.0
Zn393 Zn 0.01807 0.11213 0.79764 0.0
O394 O 0.03529 0.12567 0.73717 0.0
C395 C 0.03915 0.15022 0.86875 0.0
O396 O 0.01586 0.165 0.85709 0.0
O397 O 0.01558 0.06861 0.79774 0.0
C398 C 0.03359 0.15228 0.72549 0.0
O399 O 0.02023 0.17079 0.75299 0.0
C400 C 0.95693 0.12587 0.77795 0.0
O401 O 0.95934 0.10894 0.7413 0.0
O402 O 0.04425 0.12589 0.84937 0.0
C403 C 0.68326 0.28698 0.48125 0.0
O404 O 0.66477 0.30195 0.45598 0.0
O405 O 0.62225 0.23566 0.56668 0.0
Zn406 Zn 0.63274 0.27403 0.5373 0.0
O407 O 0.60619 0.28229 0.48298 0.0
C408 C 0.6213 0.33117 0.57726 0.0
O409 O 0.61951 0.33899 0.53334 0.0
O410 O 0.67441 0.2733 0.51698 0.0
C411 C 0.57891 0.28535 0.48812 0.0
O412 O 0.56713 0.28205 0.52946 0.0
C413 C 0.60397 0.23621 0.59988 0.0
O414 O 0.59292 0.26109 0.61357 0.0
O415 O 0.62738 0.30484 0.58606 0.0
C416 C 0.07023 0.30878 0.16108 0.0
C417 C 0.052 0.33361 0.15828 0.0
C418 C 0.0634 0.33857 0.07522 0.0
C419 C 0.07905 0.31197 0.07697 0.0
N420 N 0.09333 0.26911 0.11976 0.0
N421 N 0.02751 0.36972 0.11174 0.0
C422 C 0.08145 0.29636 0.11945 0.0
C423 C 0.04759 0.34791 0.11509 0.0
N424 N 0.07772 0.29769 0.20363 0.0
N425 N 0.06455 0.35547 0.03606 0.0
H426 H 0.01541 0.37711 0.14013 0.0
H427 H 0.021 0.37877 0.08017 0.0
H428 H 0.07632 0.34966 0.0064 0.0
H429 H 0.05615 0.37648 0.03447 0.0
H430 H 0.09341 0.28161 0.20803 0.0
H431 H 0.07031 0.30641 0.23503 0.0
H432 H 0.09268 0.25541 0.14863 0.0
H433 H 0.10153 0.25908 0.08995 0.0
C434 C 0.95225 0.79432 0.36818 0.0
C435 C 0.93841 0.81825 0.3463 0.0
C436 C 0.90254 0.82055 0.40931 0.0
C437 C 0.91478 0.79506 0.42901 0.0
N438 N 0.94881 0.75531 0.42479 0.0
N439 N 0.89768 0.85114 0.34109 0.0
C440 C 0.93905 0.78131 0.40788 0.0
C441 C 0.91282 0.83059 0.36553 0.0
N442 N 0.97842 0.7846 0.35181 0.0
N443 N 0.88186 0.83582 0.4333 0.0
H444 H 0.90442 0.85907 0.30879 0.0
H445 H 0.87716 0.85851 0.35083 0.0
H446 H 0.87388 0.82932 0.4657 0.0
H447 H 0.8745 0.85628 0.42317 0.0
H448 H 0.99121 0.76938 0.36912 0.0
H449 H 0.98856 0.79345 0.32257 0.0
H450 H 0.9643 0.7426 0.408 0.0
H451 H 0.93978 0.7452 0.4539 0.0
C452 C 0.42457 0.67557 0.65224 0.0
C453 C 0.42643 0.64483 0.64884 0.0
C454 C 0.40902 0.64673 0.56835 0.0
C455 C 0.40969 0.67757 0.57045 0.0
N456 N 0.42258 0.7216 0.61122 0.0
N457 N 0.42504 0.60121 0.60221 0.0
C458 C 0.41868 0.69211 0.61155 0.0
C459 C 0.4199 0.63039 0.60649 0.0
N460 N 0.42733 0.68886 0.69465 0.0
N461 N 0.39695 0.63307 0.53069 0.0
H462 H 0.43297 0.58848 0.62947 0.0
H463 H 0.42381 0.59008 0.57067 0.0
H464 H 0.38849 0.64426 0.50214 0.0
H465 H 0.39296 0.61079 0.52943 0.0
H466 H 0.42307 0.71084 0.70014 0.0
H467 H 0.43141 0.67745 0.72536 0.0
H468 H 0.43218 0.73301 0.63852 0.0
H469 H 0.41853 0.73445 0.58198 0.0
C470 C 0.55162 0.20476 0.88086 0.0
C471 C 0.53692 0.17817 0.88995 0.0
C472 C 0.55682 0.17751 0.96907 0.0
C473 C 0.56936 0.20532 0.96127 0.0
N474 N 0.57354 0.24816 0.91322 0.0
N475 N 0.52055 0.1423 0.94531 0.0
C476 C 0.56517 0.2198 0.9182 0.0
C477 C 0.53797 0.1655 0.93494 0.0
N478 N 0.55421 0.21486 0.83623 0.0
N479 N 0.56419 0.16177 0.00771 0.0
H480 H 0.5062 0.13319 0.92123 0.0
H481 H 0.51824 0.13398 0.97887 0.0
H482 H 0.57861 0.16929 0.03298 0.0
H483 H 0.55809 0.14017 0.01259 0.0
H484 H 0.56752 0.2323 0.82715 0.0
H485 H 0.54536 0.20426 0.80746 0.0
H486 H 0.56821 0.26072 0.88424 0.0
H487 H 0.58337 0.25999 0.9399 0.0
C488 C 0.03435 0.70765 0.33968 0.0
C489 C 0.054 0.7005 0.3033 0.0
C490 C 0.08992 0.73395 0.33628 0.0
C491 C 0.07214 0.7374 0.37624 0.0
N492 N 0.02874 0.7244 0.41904 0.0
N493 N 0.1021 0.70388 0.26989 0.0
C494 C 0.04454 0.72367 0.37869 0.0
C495 C 0.08216 0.71306 0.30204 0.0
N496 N 0.00577 0.69981 0.33645 0.0
N497 N 0.11407 0.75094 0.33089 0.0
H498 H 0.09763 0.68804 0.24489 0.0
H499 H 0.12387 0.71006 0.27056 0.0
H500 H 0.12004 0.7668 0.3551 0.0
H501 H 0.12639 0.75142 0.30043 0.0
H502 H 0.98991 0.70693 0.3597 0.0
H503 H -0.00267 0.68851 0.30802 0.0
H504 H 0.01031 0.71169 0.42448 0.0
H505 H 0.03523 0.73582 0.44861 0.0
C506 C 0.57508 0.82697 0.61334 0.0
C507 C 0.55916 0.80596 0.58772 0.0
C508 C 0.52058 0.80677 0.64678 0.0
C509 C 0.53802 0.82538 0.67458 0.0
N510 N 0.58375 0.84978 0.68803 0.0
N511 N 0.51832 0.7733 0.58142 0.0
C512 C 0.56576 0.83464 0.65884 0.0
C513 C 0.5322 0.79525 0.60464 0.0
N514 N 0.59853 0.84045 0.59348 0.0
N515 N 0.4927 0.80075 0.66013 0.0
H516 H 0.52616 0.76438 0.55045 0.0
H517 H 0.50022 0.76241 0.59446 0.0
H518 H 0.48364 0.80872 0.69093 0.0
H519 H 0.4778 0.78987 0.63911 0.0
H520 H 0.60905 0.8582 0.60846 0.0
H521 H 0.60586 0.83579 0.5599 0.0
H522 H 0.60548 0.85401 0.68048 0.0
H523 H 0.5778 0.85608 0.72161 0.0
C524 C 0.43038 0.3165 0.88016 0.0
C525 C 0.40951 0.2941 0.87362 0.0
C526 C 0.42207 0.29157 0.79061 0.0
C527 C 0.44416 0.31269 0.7979 0.0
N528 N 0.47394 0.34002 0.85129 0.0
N529 N 0.38998 0.25583 0.82541 0.0
C530 C 0.44974 0.32351 0.84327 0.0
C531 C 0.4067 0.28027 0.82964 0.0
N532 N 0.43071 0.33225 0.92059 0.0
N533 N 0.41468 0.28334 0.74638 0.0
H534 H 0.37883 0.24658 0.85338 0.0
H535 H 0.38937 0.2432 0.79532 0.0
H536 H 0.42526 0.29098 0.71671 0.0
H537 H 0.39647 0.27074 0.73876 0.0
H538 H 0.44333 0.35085 0.92515 0.0
H539 H 0.41637 0.32854 0.94809 0.0
H540 H 0.48074 0.3461 0.88451 0.0
H541 H 0.48889 0.34513 0.82517 0.0
C542 C 0.92334 0.19103 0.10348 0.0
C543 C 0.91809 0.17502 0.06209 0.0
C544 C 0.93595 0.13056 0.09944 0.0
C545 C 0.93865 0.14598 0.14198 0.0
N546 N 0.93149 0.18978 0.18689 0.0
N547 N 0.91514 0.12898 0.02194 0.0
C548 C 0.93149 0.17596 0.14467 0.0
C549 C 0.92335 0.14462 0.06029 0.0
N550 N 0.92145 0.22072 0.10298 0.0
N551 N 0.94615 0.10271 0.09616 0.0
H552 H 0.90565 0.13842 0.99263 0.0
H553 H 0.91542 0.10635 0.02057 0.0
H554 H 0.9554 0.09174 0.12425 0.0
H555 H 0.94774 0.09135 0.06487 0.0
H556 H 0.92813 0.23386 0.13052 0.0
H557 H 0.9154 0.23249 0.07348 0.0
H558 H 0.92323 0.21061 0.19205 0.0
H559 H 0.93778 0.1796 0.21772 0.0
C560 C 0.94438 0.64349 0.86352 0.0
C561 C 0.95175 0.66105 0.82453 0.0
C562 C 0.9403 0.70509 0.86898 0.0
C563 C 0.93391 0.68759 0.9083 0.0
N564 N 0.93576 0.64087 0.94668 0.0
N565 N 0.96383 0.7083 0.79356 0.0
C566 C 0.93819 0.65705 0.90688 0.0
C567 C 0.95184 0.69183 0.82829 0.0
N568 N 0.94102 0.61409 0.85845 0.0
N569 N 0.93484 0.7343 0.87023 0.0
H570 H 0.97348 0.69921 0.76404 0.0
H571 H 0.96678 0.7307 0.79596 0.0
H572 H 0.92822 0.74511 0.9004 0.0
H573 H 0.93521 0.74746 0.84072 0.0
H574 H 0.93236 0.60074 0.88427 0.0
H575 H 0.94425 0.60315 0.82708 0.0
H576 H 0.94203 0.61914 0.94871 0.0
H577 H 0.92971 0.64962 0.97875 0.0
C578 C 0.07585 0.19637 0.63573 0.0
C579 C 0.07124 0.17936 0.59512 0.0
C580 C 0.03845 0.1475 0.63884 0.0
C581 C 0.04607 0.16215 0.68061 0.0
N582 N 0.07623 0.19751 0.72003 0.0
N583 N 0.05276 0.13524 0.5602 0.0
C584 C 0.06589 0.18583 0.67947 0.0
C585 C 0.05378 0.15395 0.59721 0.0
N586 N 0.08872 0.22309 0.6324 0.0
N587 N 0.01575 0.12831 0.63835 0.0
H588 H 0.06443 0.13857 0.52949 0.0
H589 H 0.04274 0.11494 0.5618 0.0
H590 H 0.00313 0.1238 0.66768 0.0
H591 H 0.00748 0.11928 0.60781 0.0
H592 H 0.08981 0.23767 0.66014 0.0
H593 H 0.09572 0.23193 0.60085 0.0
H594 H 0.09295 0.21277 0.72109 0.0
H595 H 0.07015 0.19001 0.75289 0.0
C596 C 0.54502 0.32012 0.44798 0.0
C597 C 0.56075 0.29355 0.44767 0.0
C598 C 0.54849 0.28612 0.36549 0.0
C599 C 0.53158 0.31197 0.36637 0.0
N600 N 0.5078 0.34944 0.41118 0.0
N601 N 0.57111 0.24771 0.41038 0.0
C602 C 0.528 0.3277 0.40854 0.0
C603 C 0.56048 0.27541 0.40771 0.0
N604 N 0.54743 0.33883 0.48485 0.0
N605 N 0.55468 0.2727 0.32412 0.0
H606 H 0.57971 0.23901 0.441 0.0
H607 H 0.56871 0.23247 0.38378 0.0
H608 H 0.5472 0.28016 0.29203 0.0
H609 H 0.5695 0.25568 0.32109 0.0
H610 H 0.53915 0.3599 0.48455 0.0
H611 H 0.55979 0.33434 0.51438 0.0
H612 H 0.50242 0.36004 0.44207 0.0
H613 H 0.49428 0.35491 0.38337 0.0
C614 C 0.44537 0.81736 0.14918 0.0
C615 C 0.4329 0.82079 0.1941 0.0
C616 C 0.38546 0.80483 0.16472 0.0
C617 C 0.39785 0.80176 0.11973 0.0
N618 N 0.43983 0.80045 0.06943 0.0
N619 N 0.39289 0.81352 0.24733 0.0
C620 C 0.42797 0.80646 0.11212 0.0
C621 C 0.40352 0.81298 0.20277 0.0
N622 N 0.47373 0.82514 0.14195 0.0
N623 N 0.35621 0.80086 0.17057 0.0
H624 H 0.40485 0.82093 0.27578 0.0
H625 H 0.37281 0.80501 0.25693 0.0
H626 H 0.34264 0.79354 0.14392 0.0
H627 H 0.34499 0.80605 0.20093 0.0
H628 H 0.48342 0.8266 0.10927 0.0
H629 H 0.48763 0.83132 0.1689 0.0
H630 H 0.46202 0.80055 0.06252 0.0
H631 H 0.42757 0.79352 0.04097 0.0
C632 C 0.96689 0.31279 0.62232 0.0
C633 C 0.95107 0.32726 0.65789 0.0
C634 C 0.90984 0.33365 0.60496 0.0
C635 C 0.92465 0.31709 0.57065 0.0
N636 N 0.9651 0.28642 0.54922 0.0
N637 N 0.9054 0.34585 0.68669 0.0
C638 C 0.95262 0.3054 0.57999 0.0
C639 C 0.92192 0.33609 0.65026 0.0
N640 N -0.00419 0.3071 0.62824 0.0
N641 N 0.88488 0.34819 0.59376 0.0
H642 H 0.91324 0.34743 0.72069 0.0
H643 H 0.88314 0.34964 0.68416 0.0
H644 H 0.87556 0.34755 0.56066 0.0
H645 H 0.87494 0.36314 0.61592 0.0
H646 H 0.00925 0.2996 0.60161 0.0
H647 H 0.00701 0.31213 0.65876 0.0
H648 H 0.984 0.2748 0.55638 0.0
H649 H 0.95524 0.28023 0.51806 0.0
C650 C 0.469 0.19019 0.37359 0.0
C651 C 0.46025 0.16459 0.34985 0.0
C652 C 0.42737 0.15226 0.414 0.0
C653 C 0.43345 0.17949 0.43508 0.0
N654 N 0.45713 0.22639 0.43182 0.0
N655 N 0.42719 0.12399 0.34295 0.0
C656 C 0.45361 0.19899 0.4142 0.0
C657 C 0.4384 0.1463 0.36885 0.0
N658 N 0.49252 0.2056 0.35812 0.0
N659 N 0.41194 0.13164 0.43783 0.0
H660 H 0.43406 0.11931 0.30914 0.0
H661 H 0.40912 0.11192 0.3532 0.0
H662 H 0.40419 0.13484 0.47162 0.0
H663 H 0.40944 0.11035 0.42606 0.0
H664 H 0.5019 0.22262 0.3768 0.0
H665 H 0.50431 0.19979 0.32849 0.0
H666 H 0.46895 0.24262 0.41499 0.0
H667 H 0.44629 0.2338 0.46139 0.0
C668 C 0.55249 0.6624 0.13853 0.0
C669 C 0.55955 0.63343 0.15137 0.0
C670 C 0.59096 0.62886 0.0827 0.0
C671 C 0.58203 0.65692 0.06804 0.0
N672 N 0.55102 0.69876 0.07751 0.0
N673 N 0.5813 0.58722 0.13214 0.0
C674 C 0.56175 0.67319 0.09458 0.0
C675 C 0.57776 0.61615 0.12259 0.0
N676 N 0.53817 0.68009 0.16925 0.0
N677 N 0.61224 0.61446 0.05867 0.0
H678 H 0.57154 0.57697 0.16055 0.0
H679 H 0.59173 0.57275 0.10979 0.0
H680 H 0.62161 0.62255 0.02819 0.0
H681 H 0.62209 0.5955 0.07062 0.0
H682 H 0.53528 0.7023 0.16398 0.0
H683 H 0.53135 0.67322 0.2021 0.0
H684 H 0.53371 0.7099 0.0926 0.0
H685 H 0.55795 0.70776 0.0461 0.0
C686 C 0.02411 0.79295 0.84647 0.0
C687 C 0.03978 0.81661 0.82703 0.0
C688 C 0.07516 0.81376 0.89052 0.0
C689 C 0.06122 0.78826 0.90722 0.0
N690 N 0.0253 0.75057 0.89648 0.0
N691 N 0.08342 0.84573 0.82487 0.0
C692 C 0.03644 0.777 0.88396 0.0
C693 C 0.06624 0.82595 0.84743 0.0
N694 N -0.00309 0.78646 0.83054 0.0
N695 N 0.09598 0.8272 0.91683 0.0
H696 H 0.07799 0.85474 0.79269 0.0
H697 H 0.10436 0.85098 0.83578 0.0
H698 H 0.10249 0.81963 0.94943 0.0
H699 H 0.10464 0.84749 0.90855 0.0
H700 H 0.98311 0.77194 0.84741 0.0
H701 H 0.98707 0.79751 0.80306 0.0
H702 H 0.00922 0.73986 0.87753 0.0
H703 H 0.03393 0.73807 0.9234 0.0
C704 C 0.09026 0.31144 0.36198 0.0
C705 C 0.06207 0.32134 0.3743 0.0
C706 C 0.06184 0.28923 0.44249 0.0
C707 C 0.08751 0.27595 0.42559 0.0
N708 N 0.12712 0.2741 0.37064 0.0
N709 N 0.02148 0.3219 0.42739 0.0
C710 C 0.10243 0.28744 0.38639 0.0
C711 C 0.04816 0.31114 0.41535 0.0
N712 N 0.10503 0.32447 0.32625 0.0
N713 N 0.05083 0.28088 0.48472 0.0
H714 H 0.01191 0.33942 0.41012 0.0
H715 H 0.00839 0.31311 0.4534 0.0
H716 H 0.06079 0.26507 0.50535 0.0
H717 H 0.03342 0.29103 0.50118 0.0
H718 H 0.12674 0.32035 0.31855 0.0
H719 H 0.09633 0.34111 0.30602 0.0
H720 H 0.13702 0.27874 0.3389 0.0
H721 H 0.1371 0.25703 0.3883 0.0
C722 C 0.90309 0.83465 0.63012 0.0
C723 C 0.89529 0.8061 0.64447 0.0
C724 C 0.91667 0.81479 0.72144 0.0
C725 C 0.92504 0.843 0.7066 0.0
N726 N 0.91836 0.88296 0.65372 0.0
N727 N 0.88663 0.77235 0.70716 0.0
C728 C 0.91546 0.85398 0.66319 0.0
C729 C 0.89944 0.7973 0.69138 0.0
N730 N 0.90079 0.84274 0.58443 0.0
N731 N 0.9266 0.80399 0.76281 0.0
H732 H 0.8734 0.75943 0.68608 0.0
H733 H 0.88668 0.76605 0.74202 0.0
H734 H 0.93841 0.81637 0.78656 0.0
H735 H 0.92451 0.78225 0.77245 0.0
H736 H 0.90962 0.86191 0.57127 0.0
H737 H 0.89204 0.8295 0.5586 0.0
H738 H 0.90939 0.8929 0.62447 0.0
H739 H 0.92715 0.89758 0.67775 0.0
C740 C 0.39022 0.69544 0.8824 0.0
C741 C 0.40486 0.70414 0.9238 0.0
C742 C 0.44642 0.67333 0.90371 0.0
C743 C 0.43221 0.6654 0.8618 0.0
N744 N 0.3885 0.6629 0.81581 0.0
N745 N 0.44234 0.69507 0.98046 0.0
C746 C 0.40329 0.67432 0.85287 0.0
C747 C 0.43161 0.69107 0.93649 0.0
N748 N 0.36485 0.70866 0.86956 0.0
N749 N 0.47433 0.66439 0.91163 0.0
H750 H 0.43143 0.70725 0.00569 0.0
H751 H 0.46039 0.68412 0.99347 0.0
H752 H 0.48518 0.64982 0.88982 0.0
H753 H 0.48724 0.6724 0.93851 0.0
H754 H 0.35544 0.70634 0.8368 0.0
H755 H 0.3537 0.72333 0.89054 0.0
H756 H 0.36635 0.66597 0.81035 0.0
H757 H 0.3978 0.64833 0.79229 0.0
C758 C 0.61423 0.16281 0.14573 0.0
C759 C 0.62735 0.18768 0.16544 0.0
C760 C 0.60065 0.17812 0.23784 0.0
C761 C 0.58118 0.16016 0.21218 0.0
N762 N 0.56915 0.13714 0.13804 0.0
N763 N 0.64076 0.21264 0.23588 0.0
C764 C 0.58814 0.15232 0.16542 0.0
C765 C 0.62311 0.19328 0.21359 0.0
N766 N 0.62671 0.14929 0.10843 0.0
N767 N 0.59799 0.17997 0.28521 0.0
H768 H 0.66002 0.22009 0.22081 0.0
H769 H 0.63674 0.22083 0.26907 0.0
H770 H 0.58269 0.16789 0.30383 0.0
H771 H 0.61232 0.1913 0.30654 0.0
H772 H 0.61875 0.12989 0.09459 0.0
H773 H 0.64713 0.15543 0.09595 0.0
H774 H 0.57285 0.13354 0.10266 0.0
H775 H 0.54845 0.13084 0.14843 0.0
C776 C 0.0293 0.64953 0.0555 0.0
C777 C 0.0461 0.63265 0.08695 0.0
C778 C 0.09095 0.64782 0.04829 0.0
C779 C 0.07437 0.66648 0.01941 0.0
N780 N 0.02829 0.67854 0.98482 0.0
N781 N 0.09111 0.60879 0.10539 0.0
C782 C 0.04364 0.66487 0.01914 0.0
C783 C 0.07642 0.62943 0.08051 0.0
N784 N 5e-05 0.65265 0.06246 0.0
N785 N 0.12061 0.64871 0.04599 0.0
H786 H 0.08067 0.59493 0.12885 0.0
H787 H 0.11288 0.60367 0.10008 0.0
H788 H 0.13163 0.66069 0.02061 0.0
H789 H 0.13426 0.63842 0.06971 0.0
H790 H 0.9872 0.66746 0.04439 0.0
H791 H 0.98868 0.6415 0.08829 0.0
H792 H 0.00597 0.67625 0.98028 0.0
H793 H 0.03837 0.68998 0.95797 0.0
C794 C 0.55856 0.81625 0.29611 0.0
C795 C 0.56176 0.84686 0.29664 0.0
C796 C 0.60416 0.84228 0.34765 0.0
C797 C 0.59746 0.81245 0.35375 0.0
N798 N 0.56738 0.77086 0.33622 0.0
N799 N 0.58711 0.88975 0.32299 0.0
C800 C 0.5747 0.79921 0.32805 0.0
C801 C 0.58482 0.86012 0.32165 0.0
N802 N 0.53995 0.80361 0.26498 0.0
N803 N 0.62894 0.85342 0.36687 0.0
H804 H 0.5737 0.90348 0.30373 0.0
H805 H 0.60121 0.90083 0.3451 0.0
H806 H 0.6433 0.84077 0.38636 0.0
H807 H 0.63654 0.87434 0.3602 0.0
H808 H 0.53844 0.78122 0.25997 0.0
H809 H 0.52807 0.81573 0.24084 0.0
H810 H 0.5489 0.76095 0.3226 0.0
H811 H 0.57867 0.75775 0.35956 0.0
C812 C 0.41763 0.30278 0.51771 0.0
C813 C 0.39179 0.29133 0.53742 0.0
C814 C 0.3985 0.32044 0.60777 0.0
C815 C 0.42546 0.33038 0.5896 0.0
N816 N 0.45654 0.33834 0.52338 0.0
N817 N 0.35258 0.29643 0.59202 0.0
C818 C 0.43356 0.32402 0.54303 0.0
C819 C 0.38049 0.30283 0.57936 0.0
N820 N 0.42779 0.29211 0.47636 0.0
N821 N 0.39111 0.32574 0.65316 0.0
H822 H 0.33905 0.28361 0.57125 0.0
H823 H 0.34202 0.30611 0.62014 0.0
H824 H 0.40355 0.33843 0.67562 0.0
H825 H 0.37358 0.31583 0.66976 0.0
H826 H 0.44837 0.29666 0.46312 0.0
H827 H 0.41593 0.27767 0.45585 0.0
H828 H 0.46222 0.33654 0.48839 0.0
H829 H 0.46835 0.35417 0.54132 0.0
C830 C 0.90681 0.12866 0.81157 0.0
C831 C 0.92995 0.14214 0.78723 0.0
C832 C 0.91074 0.19031 0.80547 0.0
C833 C 0.88827 0.17695 0.83191 0.0
N834 N 0.86003 0.13438 0.84986 0.0
N835 N 0.94881 0.18412 0.74771 0.0
C836 C 0.88465 0.14633 0.83134 0.0
C837 C 0.93004 0.17249 0.77957 0.0
N838 N 0.90687 0.0992 0.81769 0.0
N839 N 0.91515 0.21969 0.80794 0.0
H840 H 0.9628 0.17121 0.7279 0.0
H841 H 0.94836 0.20585 0.73748 0.0
H842 H 0.90173 0.23374 0.82657 0.0
H843 H 0.93337 0.23 0.7941 0.0
H844 H 0.89266 0.08828 0.83984 0.0
H845 H 0.92211 0.08569 0.80171 0.0
H846 H 0.85483 0.1124 0.84742 0.0
H847 H 0.84344 0.14707 0.86413 0.0
C848 C 0.92138 0.63145 0.55393 0.0
C849 C 0.91961 0.62777 0.60281 0.0
C850 C 0.88959 0.67122 0.61002 0.0
C851 C 0.89594 0.67815 0.56274 0.0
N852 N 0.91338 0.66303 0.48717 0.0
N853 N 0.88783 0.63333 0.6686 0.0
C854 C 0.91018 0.65745 0.53369 0.0
C855 C 0.89896 0.64416 0.62805 0.0
N856 N 0.93195 0.6093 0.52713 0.0
N857 N 0.87696 0.69116 0.63901 0.0
H858 H 0.89301 0.61247 0.68031 0.0
H859 H 0.87093 0.64324 0.68685 0.0
H860 H 0.8702 0.71169 0.62843 0.0
H861 H 0.87536 0.68817 0.67492 0.0
H862 H 0.93298 0.60971 0.49094 0.0
H863 H 0.93652 0.5889 0.54121 0.0
H864 H 0.92635 0.6508 0.46487 0.0
H865 H 0.90322 0.68052 0.47074 0.0
C866 C 0.07814 0.16129 0.28849 0.0
C867 C 0.07249 0.13142 0.2961 0.0
C868 C 0.1088 0.13057 0.35839 0.0
C869 C 0.1103 0.16135 0.35636 0.0
N870 N 0.0948 0.20666 0.32151 0.0
N871 N 0.08164 0.08711 0.33858 0.0
C872 C 0.09499 0.17693 0.3214 0.0
C873 C 0.08799 0.11572 0.33058 0.0
N874 N 0.06727 0.17462 0.24967 0.0
N875 N 0.12748 0.11565 0.38663 0.0
H876 H 0.06706 0.07534 0.31818 0.0
H877 H 0.08954 0.07547 0.36698 0.0
H878 H 0.14309 0.12605 0.4071 0.0
H879 H 0.12936 0.09309 0.38656 0.0
H880 H 0.07281 0.19569 0.23973 0.0
H881 H 0.05496 0.16349 0.22486 0.0
H882 H 0.08118 0.21908 0.30047 0.0
H883 H 0.10658 0.21913 0.34514 0.0
C884 C 0.61272 0.33754 0.1004 0.0
C885 C 0.59833 0.31947 0.06774 0.0
C886 C 0.55151 0.34116 0.08898 0.0
C887 C 0.56539 0.35591 0.1263 0.0
N888 N 0.60879 0.36873 0.16841 0.0
N889 N 0.55405 0.30219 0.03223 0.0
C890 C 0.59597 0.35449 0.13199 0.0
C891 C 0.56778 0.32116 0.06165 0.0
N892 N 0.64241 0.33866 0.1006 0.0
N893 N 0.52266 0.34578 0.08027 0.0
H894 H 0.56509 0.2873 0.01134 0.0
H895 H 0.53159 0.29968 0.0307 0.0
H896 H 0.50957 0.35906 0.10089 0.0
H897 H 0.51211 0.33827 0.05053 0.0
H898 H 0.6544 0.35322 0.12063 0.0
H899 H 0.65514 0.32658 0.07752 0.0
H900 H 0.63038 0.36585 0.17809 0.0
H901 H 0.59735 0.3827 0.19046 0.0
C902 C 0.38413 0.82716 0.8413 0.0
C903 C 0.38594 0.82554 0.89058 0.0
C904 C 0.43382 0.84802 0.88932 0.0
C905 C 0.43384 0.84642 0.83974 0.0
N906 N 0.40588 0.8441 0.76887 0.0
N907 N 0.40376 0.851 0.95824 0.0
C908 C 0.40788 0.83905 0.81571 0.0
C909 C 0.40792 0.84141 0.91372 0.0
N910 N 0.35964 0.81744 0.81943 0.0
N911 N 0.45865 0.85385 0.91367 0.0
H912 H 0.38363 0.84956 0.97479 0.0
H913 H 0.41864 0.86425 0.97556 0.0
H914 H 0.47857 0.8584 0.89825 0.0
H915 H 0.45995 0.8517 0.94978 0.0
H916 H 0.35793 0.8144 0.78361 0.0
H917 H 0.3407 0.81257 0.8379 0.0
H918 H 0.38708 0.84094 0.74943 0.0
H919 H 0.42257 0.8539 0.74988 0.0
C920 C 0.8946 0.32622 0.93427 0.0
C921 C 0.90691 0.30124 0.9554 0.0
C922 C 0.95515 0.31443 0.92641 0.0
C923 C 0.94281 0.33918 0.90447 0.0
N924 N 0.90292 0.37264 0.89614 0.0
N925 N 0.9491 0.27554 0.98273 0.0
C926 C 0.91315 0.34638 0.91128 0.0
C927 C 0.93734 0.29675 0.95519 0.0
N928 N 0.86512 0.32984 0.93418 0.0
N929 N 0.98332 0.30674 0.91738 0.0
H930 H 0.93645 0.26233 0.00428 0.0
H931 H 0.97135 0.27287 0.98767 0.0
H932 H -0.00281 0.31903 0.89646 0.0
H933 H 0.99243 0.28709 0.92785 0.0
H934 H 0.85445 0.34556 0.91451 0.0
H935 H 0.85104 0.31606 0.9522 0.0
H936 H 0.88222 0.38045 0.90369 0.0
H937 H 0.91612 0.38784 0.87931 0.0
C938 C 0.41834 0.16051 0.7432 0.0
C939 C 0.43587 0.1362 0.73192 0.0
C940 C 0.42317 0.14082 0.6495 0.0
C941 C 0.40576 0.16541 0.6605 0.0
N942 N 0.38007 0.19331 0.71852 0.0
N943 N 0.44763 0.09774 0.67834 0.0
C944 C 0.40114 0.17349 0.70771 0.0
C945 C 0.43567 0.12449 0.6863 0.0
N946 N 0.41937 0.17219 0.78695 0.0
N947 N 0.42965 0.13425 0.60419 0.0
H948 H 0.45654 0.0852 0.70507 0.0
H949 H 0.44591 0.08681 0.64666 0.0
H950 H 0.42165 0.14585 0.57583 0.0
H951 H 0.44502 0.1187 0.59473 0.0
H952 H 0.40984 0.19199 0.79568 0.0
H953 H 0.43123 0.16285 0.81403 0.0
H954 H 0.37375 0.19798 0.75256 0.0
H955 H 0.36684 0.20286 0.69328 0.0
C956 C 0.58011 0.6922 0.38337 0.0
C957 C 0.57299 0.69646 0.4308 0.0
C958 C 0.54171 0.65345 0.42796 0.0
C959 C 0.54357 0.65362 0.37851 0.0
N960 N 0.56094 0.67826 0.30878 0.0
N961 N 0.54683 0.6813 0.4993 0.0
C962 C 0.56217 0.674 0.3559 0.0
C963 C 0.55381 0.67701 0.45354 0.0
N964 N 0.60349 0.70598 0.36412 0.0
N965 N 0.52909 0.6305 0.45045 0.0
H966 H 0.55667 0.69736 0.51962 0.0
H967 H 0.53035 0.6699 0.51625 0.0
H968 H 0.52132 0.61224 0.43282 0.0
H969 H 0.52922 0.62816 0.48656 0.0
H970 H 0.61086 0.70156 0.33048 0.0
H971 H 0.61723 0.7194 0.3833 0.0
H972 H 0.57213 0.69499 0.29205 0.0
H973 H 0.54624 0.66786 0.28691 0.0
C974 C 0.07982 0.78969 0.17294 0.0
C975 C 0.0781 0.79592 0.1247 0.0
C976 C 0.04569 0.83696 0.14014 0.0
C977 C 0.04616 0.82984 0.18869 0.0
N978 N 0.0714 0.80656 0.25193 0.0
N979 N 0.06753 0.83061 0.06397 0.0
C980 C 0.06589 0.80852 0.20524 0.0
C981 C 0.06402 0.82145 0.10898 0.0
N982 N 0.09414 0.76536 0.18774 0.0
N983 N 0.02626 0.85659 0.12251 0.0
H984 H 0.07962 0.81929 0.03924 0.0
H985 H 0.06074 0.85093 0.05221 0.0
H986 H 0.01304 0.87004 0.14221 0.0
H987 H 0.0219 0.85853 0.08704 0.0
H988 H 0.09311 0.75765 0.2218 0.0
H989 H 0.1061 0.75213 0.16524 0.0
H990 H 0.08724 0.79305 0.26609 0.0
H991 H 0.06212 0.8208 0.27607 0.0
C992 C 0.59651 0.77801 0.87994 0.0
C993 C 0.59201 0.77298 0.92845 0.0
C994 C 0.55892 0.81463 0.93234 0.0
C995 C 0.56271 0.81894 0.88387 0.0
N996 N 0.59142 0.81107 0.81472 0.0
N997 N 0.5766 0.79167 0.00291 0.0
C998 C 0.58386 0.80291 0.8589 0.0
C999 C 0.57566 0.79305 0.95535 0.0
N1000 N 0.61071 0.75803 0.85291 0.0
N1001 N 0.53871 0.83065 0.95601 0.0
H1002 H 0.58942 0.77659 0.02065 0.0
H1003 H 0.56711 0.80713 0.02464 0.0
H1004 H 0.52752 0.84792 0.94072 0.0
H1005 H 0.53218 0.82608 0.98999 0.0
H1006 H 0.61073 0.75864 0.81664 0.0
H1007 H 0.62084 0.73953 0.86578 0.0
H1008 H 0.60887 0.80208 0.79662 0.0
H1009 H 0.58218 0.82882 0.79779 0.0
C1010 C 0.41319 0.35647 0.16672 0.0
C1011 C 0.42819 0.34211 0.2033 0.0
C1012 C 0.41182 0.29493 0.1742 0.0
C1013 C 0.39589 0.30921 0.13853 0.0
N1014 N 0.3756 0.35353 0.10771 0.0
N1015 N 0.43485 0.29909 0.24975 0.0
C1016 C 0.3947 0.34002 0.13702 0.0
C1017 C 0.4251 0.31176 0.20965 0.0
N1018 N 0.41785 0.38538 0.15857 0.0
N1019 N 0.41615 0.26555 0.17254 0.0
H1020 H 0.44408 0.31115 0.27679 0.0
H1021 H 0.43092 0.2774 0.25821 0.0
H1022 H 0.40816 0.25248 0.14588 0.0
H1023 H 0.43017 0.25456 0.19493 0.0
H1024 H 0.41028 0.39611 0.12902 0.0
H1025 H 0.43102 0.39829 0.17962 0.0
H1026 H 0.37174 0.37585 0.10828 0.0
H1027 H 0.36154 0.34207 0.08587 0.0
C1028 C 0.93968 0.21066 0.41612 0.0
C1029 C 0.91339 0.22287 0.39948 0.0
C1030 C 0.91238 0.18728 0.33585 0.0
C1031 C 0.94107 0.17897 0.34768 0.0
N1032 N 0.98245 0.18181 0.3989 0.0
N1033 N 0.87471 0.22378 0.34252 0.0
C1034 C 0.95476 0.19019 0.38809 0.0
C1035 C 0.89933 0.21106 0.35964 0.0
N1036 N 0.9498 0.21828 0.45922 0.0
N1037 N 0.89786 0.17276 0.30143 0.0
H1038 H 0.86427 0.24112 0.35875 0.0
H1039 H 0.86564 0.21856 0.31037 0.0
H1040 H 0.9071 0.15569 0.28262 0.0
H1041 H 0.87591 0.17583 0.29422 0.0
H1042 H 0.96754 0.20841 0.47522 0.0
H1043 H 0.93864 0.2326 0.48105 0.0
H1044 H 0.99504 0.19188 0.42435 0.0
H1045 H 0.99344 0.16547 0.38078 0.0
C1046 C 0.06376 0.71115 0.62781 0.0
C1047 C 0.07322 0.70058 0.58396 0.0
C1048 C 0.04615 0.65536 0.59542 0.0
C1049 C 0.03635 0.66607 0.63915 0.0
N1050 N 0.04153 0.70014 0.70243 0.0
N1051 N 0.07944 0.66077 0.53031 0.0
C1052 C 0.04698 0.69278 0.65707 0.0
C1053 C 0.06657 0.67192 0.56939 0.0
N1054 N 0.07019 0.73904 0.64084 0.0
N1055 N 0.0345 0.63046 0.57723 0.0
H1056 H 0.09383 0.6727 0.50971 0.0
H1057 H 0.07783 0.63904 0.52044 0.0
H1058 H 0.01967 0.6175 0.59509 0.0
H1059 H 0.03796 0.62357 0.54312 0.0
H1060 H 0.0609 0.74934 0.66952 0.0
H1061 H 0.08392 0.75251 0.6215 0.0
H1062 H 0.05079 0.71804 0.71897 0.0
H1063 H 0.02983 0.68676 0.72505 0.0
C1064 C 0.57626 0.18975 0.60646 0.0
C1065 C 0.59641 0.20965 0.62587 0.0
C1066 C 0.59288 0.18553 0.70174 0.0
C1067 C 0.56927 0.16911 0.6843 0.0
N1068 N 0.53909 0.15321 0.62084 0.0
N1069 N 0.62628 0.22579 0.68971 0.0
C1070 C 0.56152 0.17009 0.63654 0.0
C1071 C 0.60581 0.20698 0.67276 0.0
N1072 N 0.57088 0.1902 0.55961 0.0
N1073 N 0.60247 0.18075 0.74619 0.0
H1074 H 0.63734 0.24054 0.66847 0.0
H1075 H 0.63191 0.22748 0.72469 0.0
H1076 H 0.59309 0.16522 0.76805 0.0
H1077 H 0.62081 0.19046 0.76052 0.0
H1078 H 0.5581 0.17495 0.54239 0.0
H1079 H 0.58093 0.20486 0.53702 0.0
H1080 H 0.52989 0.15501 0.58788 0.0
H1081 H 0.52892 0.13766 0.64176 0.0
C1082 C 0.08899 0.35377 0.80275 0.0
C1083 C 0.06793 0.33571 0.78133 0.0
C1084 C 0.0893 0.29257 0.8172 0.0
C1085 C 0.11015 0.31068 0.8396 0.0
N1086 N 0.13447 0.3569 0.84535 0.0
N1087 N 0.0526 0.28809 0.75693 0.0
C1088 C 0.11149 0.34084 0.82956 0.0
C1089 C 0.06983 0.3051 0.78454 0.0
N1090 N 0.08679 0.38329 0.79859 0.0
N1091 N 0.08644 0.264 0.82977 0.0
H1092 H 0.03781 0.29682 0.73322 0.0
H1093 H 0.05494 0.26562 0.75422 0.0
H1094 H 0.09955 0.25386 0.85445 0.0
H1095 H 0.06945 0.25077 0.81857 0.0
H1096 H 0.09914 0.39796 0.81785 0.0
H1097 H 0.0716 0.39317 0.77675 0.0
H1098 H 0.13813 0.37847 0.83607 0.0
H1099 H 0.15137 0.34781 0.86471 0.0
C1100 C 0.88729 0.80307 0.10639 0.0
C1101 C 0.90208 0.79684 0.06425 0.0
C1102 C 0.93718 0.83523 0.08094 0.0
C1103 C 0.92698 0.83583 0.12744 0.0
N1104 N 0.89093 0.82267 0.18465 0.0
N1105 N 0.93856 0.80896 0.00754 0.0
C1106 C 0.90103 0.82116 0.13993 0.0
C1107 C 0.92593 0.81404 0.04988 0.0
N1108 N 0.86066 0.79101 0.1147 0.0
N1109 N 0.95795 0.85467 0.06731 0.0
H1110 H 0.92963 0.7945 0.98341 0.0
H1111 H 0.95806 0.81832 0.99688 0.0
H1112 H 0.96579 0.87065 0.08991 0.0
H1113 H 0.96535 0.85672 0.03319 0.0
H1114 H 0.84773 0.79642 0.1432 0.0
H1115 H 0.85034 0.77746 0.09075 0.0
H1116 H 0.8745 0.80939 0.19766 0.0
H1117 H 0.89983 0.83658 0.20951 0.0
C1118 C 0.40437 0.70365 0.3038 0.0
C1119 C 0.38924 0.69091 0.34169 0.0
C1120 C 0.41798 0.64644 0.33415 0.0
C1121 C 0.43343 0.65915 0.29613 0.0
N1122 N 0.43383 0.69524 0.23511 0.0
N1123 N 0.3743 0.64731 0.38132 0.0
C1124 C 0.42407 0.68627 0.27773 0.0
C1125 C 0.39356 0.66125 0.35273 0.0
N1126 N 0.40149 0.73265 0.29441 0.0
N1127 N 0.42754 0.62159 0.3553 0.0
H1128 H 0.35594 0.65764 0.39492 0.0
H1129 H 0.37477 0.62495 0.3872 0.0
H1130 H 0.4453 0.60952 0.34434 0.0
H1131 H 0.41907 0.61406 0.38676 0.0
H1132 H 0.41466 0.74363 0.27065 0.0
H1133 H 0.38744 0.74628 0.31269 0.0
H1134 H 0.42589 0.71367 0.21827 0.0
H1135 H 0.44742 0.68244 0.21442 0.0
C1136 C 0.42959 0.1702 0.14082 0.0
C1137 C 0.45907 0.16418 0.1296 0.0
C1138 C 0.4532 0.18861 0.05431 0.0
C1139 C 0.4262 0.19972 0.06975 0.0
N1140 N 0.38694 0.19965 0.1257 0.0
N1141 N 0.49841 0.16463 0.07417 0.0
C1142 C 0.41346 0.18943 0.11178 0.0
C1143 C 0.47055 0.17214 0.08551 0.0
N1144 N 0.41722 0.1582 0.17968 0.0
N1145 N 0.46191 0.19366 0.00945 0.0
H1146 H 0.51075 0.15035 0.09428 0.0
H1147 H 0.50959 0.17321 0.04582 0.0
H1148 H 0.44904 0.20511 0.98578 0.0
H1149 H 0.48029 0.18441 0.99437 0.0
H1150 H 0.39507 0.15904 0.18691 0.0
H1151 H 0.42851 0.14535 0.20335 0.0
H1152 H 0.37835 0.19659 0.15889 0.0
H1153 H 0.37378 0.21262 0.10487 0.0
C1154 C 0.56958 0.60739 0.82467 0.0
C1155 C 0.56132 0.62208 0.78348 0.0
C1156 C 0.59469 0.66168 0.80207 0.0
C1157 C 0.59723 0.6504 0.84779 0.0
N1158 N 0.58909 0.61147 0.90278 0.0
N1159 N 0.56705 0.66215 0.73018 0.0
C1160 C 0.58599 0.62251 0.85885 0.0
C1161 C 0.57481 0.64858 0.77064 0.0
N1162 N 0.56112 0.57918 0.83106 0.0
N1163 N 0.61113 0.68511 0.7893 0.0
H1164 H 0.5532 0.65266 0.7058 0.0
H1165 H 0.57333 0.68324 0.72163 0.0
H1166 H 0.62613 0.69463 0.81193 0.0
H1167 H 0.61201 0.69324 0.75547 0.0
H1168 H 0.56815 0.56628 0.85862 0.0
H1169 H 0.54916 0.5679 0.80595 0.0
H1170 H 0.57818 0.59307 0.91465 0.0
H1171 H 0.60172 0.6214 0.92832 0.0
C1172 C 0.0854 0.84533 0.62652 0.0
C1173 C 0.0586 0.85804 0.61285 0.0
C1174 C 0.07025 0.84942 0.53061 0.0
C1175 C 0.09653 0.83599 0.54454 0.0
N1176 N 0.13343 0.82942 0.6027 0.0
N1177 N 0.02942 0.87988 0.55263 0.0
C1178 C 0.10558 0.83697 0.5916 0.0
C1179 C 0.05237 0.86268 0.56499 0.0
N1180 N 0.0907 0.83906 0.67231 0.0
N1181 N 0.06155 0.84791 0.48516 0.0
H1182 H 0.01624 0.89018 0.57724 0.0
H1183 H 0.02517 0.88616 0.51845 0.0
H1184 H 0.07457 0.83915 0.45892 0.0
H1185 H 0.04093 0.85399 0.47388 0.0
H1186 H 0.10831 0.82663 0.68337 0.0
H1187 H 0.07644 0.84421 0.69926 0.0
H1188 H 0.14226 0.83208 0.63584 0.0
H1189 H 0.14856 0.82329 0.57739 0.0
C1190 C 0.89344 0.36797 0.34057 0.0
C1191 C 0.89239 0.33725 0.33685 0.0
C1192 C 0.93057 0.33867 0.27744 0.0
C1193 C 0.93539 0.36833 0.28793 0.0
N1194 N 0.9218 0.41185 0.32961 0.0
N1195 N 0.91143 0.29265 0.30403 0.0
C1196 C 0.91657 0.38338 0.31886 0.0
C1197 C 0.91095 0.32237 0.30523 0.0
N1198 N 0.87219 0.38229 0.36469 0.0
N1199 N 0.94484 0.32617 0.24076 0.0
H1200 H 0.89769 0.27968 0.32396 0.0
H1201 H 0.92703 0.28073 0.28593 0.0
H1202 H 0.95899 0.33793 0.21942 0.0
H1203 H 0.94038 0.3053 0.2286 0.0
H1204 H 0.87014 0.40484 0.36522 0.0
H1205 H 0.85492 0.37145 0.38069 0.0
H1206 H 0.91121 0.42293 0.35632 0.0
H1207 H 0.93791 0.42409 0.31337 0.0
C1208 C 0.45107 0.8437 0.45376 0.0
C1209 C 0.43911 0.85679 0.41344 0.0
C1210 C 0.39983 0.82145 0.41181 0.0
C1211 C 0.41423 0.80529 0.44712 0.0
N1212 N 0.45108 0.8023 0.5067 0.0
N1213 N 0.39433 0.86845 0.37491 0.0
C1214 C 0.43896 0.81704 0.47018 0.0
C1215 C 0.41072 0.84912 0.39957 0.0
N1216 N 0.47273 0.85769 0.47728 0.0
N1217 N 0.37764 0.80943 0.3867 0.0
H1218 H 0.40165 0.88955 0.3682 0.0
H1219 H 0.37258 0.86482 0.36663 0.0
H1220 H 0.37022 0.78827 0.39174 0.0
H1221 H 0.36865 0.8194 0.35747 0.0
H1222 H 0.48216 0.85014 0.50789 0.0
H1223 H 0.47907 0.87879 0.46853 0.0
H1224 H 0.4707 0.80789 0.52227 0.0
H1225 H 0.44158 0.78376 0.52113 0.0
C1226 C 0.92977 0.69045 0.19511 0.0
C1227 C 0.94105 0.6627 0.18372 0.0
C1228 C 0.89964 0.65408 0.13216 0.0
C1229 C 0.89235 0.68389 0.13562 0.0
N1230 N 0.90041 0.73116 0.17023 0.0
N1231 N 0.93696 0.61749 0.14116 0.0
C1232 C 0.90688 0.70218 0.16794 0.0
C1233 C 0.92568 0.64396 0.15308 0.0
N1234 N 0.94119 0.70556 0.23179 0.0
N1235 N 0.88173 0.63569 0.10823 0.0
H1236 H 0.95575 0.609 0.15597 0.0
H1237 H 0.92865 0.60462 0.11444 0.0
H1238 H 0.86247 0.64283 0.09281 0.0
H1239 H 0.8844 0.6132 0.10763 0.0
H1240 H 0.93233 0.72483 0.24452 0.0
H1241 H 0.95784 0.69715 0.25244 0.0
H1242 H 0.91294 0.74621 0.18844 0.0
H1243 H 0.88342 0.74059 0.15175 0.0
C1244 C 0.0676 0.19142 0.97319 0.0
C1245 C 0.09651 0.19736 0.95875 0.0
C1246 C 0.08896 0.16956 0.88704 0.0
C1247 C 0.06017 0.16317 0.90176 0.0
N1248 N 0.02478 0.16124 0.96363 0.0
N1249 N 0.13714 0.18566 0.90935 0.0
C1250 C 0.0504 0.17187 0.94653 0.0
C1251 C 0.10798 0.18415 0.91813 0.0
N1252 N 0.05587 0.20583 0.0104 0.0
N1253 N 0.09757 0.16369 0.84239 0.0
H1254 H 0.15161 0.19602 0.93191 0.0
H1255 H 0.14726 0.1742 0.88255 0.0
H1256 H 0.08432 0.15355 0.81788 0.0
H1257 H 0.11707 0.17114 0.82833 0.0
H1258 H 0.03387 0.20504 0.01885 0.0
H1259 H 0.06762 0.22031 0.03102 0.0
H1260 H 0.01782 0.16461 -0.00225 0.0
H1261 H 0.01187 0.14661 0.94506 0.0
C1262 C 0.60608 0.33831 0.66088 0.0
C1263 C 0.60831 0.34955 0.61502 0.0
C1264 C 0.56845 0.38322 0.63093 0.0
C1265 C 0.56205 0.36724 0.67209 0.0
N1266 N 0.57536 0.33063 0.72841 0.0
N1267 N 0.60316 0.39283 0.56894 0.0
C1268 C 0.58146 0.34557 0.68842 0.0
C1269 C 0.59301 0.37527 0.60369 0.0
N1270 N 0.62817 0.32183 0.67845 0.0
N1271 N 0.55053 0.40532 0.61726 0.0
H1272 H 0.62309 0.38898 0.55273 0.0
H1273 H 0.59414 0.4129 0.56052 0.0
H1274 H 0.5335 0.41298 0.63792 0.0
H1275 H 0.55177 0.41533 0.58478 0.0
H1276 H 0.62894 0.31454 0.71278 0.0
H1277 H 0.64751 0.3187 0.66009 0.0
H1278 H 0.58675 0.31221 0.73895 0.0
H1279 H 0.55773 0.33562 0.74982 0.0
C1280 C 0.00256 0.48754 0.2784 0.0
C1281 C 0.0239 0.47382 0.25011 0.0
C1282 C 0.03714 0.52079 0.2159 0.0
C1283 C 0.01646 0.53457 0.24522 0.0
N1284 N 0.9843 0.53254 0.31138 0.0
N1285 N 0.06606 0.47777 0.20062 0.0
C1286 C 0.00066 0.51837 0.2787 0.0
C1287 C 0.04261 0.4906 0.22149 0.0
N1288 N 0.98309 0.47117 0.30306 0.0
N1289 N 0.05051 0.53618 0.18118 0.0
H1290 H 0.07095 0.45575 0.20459 0.0
H1291 H 0.08217 0.48938 0.1832 0.0
H1292 H 0.04727 0.55837 0.17595 0.0
H1293 H 0.06312 0.52655 0.15527 0.0
H1294 H 0.9649 0.47984 0.31958 0.0
H1295 H 0.98376 0.44855 0.30425 0.0
H1296 H 0.97471 0.52217 0.33976 0.0
H1297 H 0.98253 0.55516 0.31261 0.0
C1298 C 0.74537 0.7861 0.55521 0.0
C1299 C 0.76327 0.76199 0.544 0.0
C1300 C 0.72128 0.73589 0.5124 0.0
C1301 C 0.703 0.75886 0.52748 0.0
N1302 N 0.69659 0.80375 0.56987 0.0
N1303 N 0.76787 0.7119 0.51981 0.0
C1304 C 0.71474 0.78347 0.55066 0.0
C1305 C 0.75114 0.7363 0.5247 0.0
N1306 N 0.75771 0.81183 0.56864 0.0
N1307 N 0.71035 0.71423 0.48483 0.0
H1308 H 0.7898 0.71118 0.5289 0.0
H1309 H 0.75945 0.69165 0.51077 0.0
H1310 H 0.68862 0.7133 0.47464 0.0
H1311 H 0.7233 0.69867 0.46855 0.0
H1312 H 0.74604 0.8311 0.57229 0.0
H1313 H 0.78009 0.8146 0.57232 0.0
H1314 H 0.70374 0.82045 0.59154 0.0
H1315 H 0.674 0.80251 0.56753 0.0
C1316 C 0.45256 0.47 0.79251 0.0
C1317 C 0.4737 0.45781 0.76224 0.0
C1318 C 0.49492 0.50591 0.74878 0.0
C1319 C 0.47469 0.51786 0.78082 0.0
N1320 N 0.43715 0.51149 0.83858 0.0
N1321 N 0.51821 0.46263 0.71838 0.0
C1322 C 0.45447 0.49992 0.80455 0.0
C1323 C 0.49574 0.47535 0.74209 0.0
N1324 N 0.42986 0.45332 0.80783 0.0
N1325 N 0.51328 0.52381 0.72459 0.0
H1326 H 0.51978 0.44026 0.71318 0.0
H1327 H 0.53662 0.47381 0.70725 0.0
H1328 H 0.51484 0.54609 0.73084 0.0
H1329 H 0.52583 0.51695 0.69647 0.0
H1330 H 0.41202 0.46163 0.82574 0.0
H1331 H 0.42757 0.43136 0.79945 0.0
H1332 H 0.42432 0.49901 0.86079 0.0
H1333 H 0.43709 0.53357 0.84693 0.0
C1334 C 0.76078 0.22557 0.9272 0.0
C1335 C 0.77877 0.24702 0.94785 0.0
C1336 C 0.73592 0.27148 0.98001 0.0
C1337 C 0.71847 0.24796 0.96458 0.0
N1338 N 0.7143 0.20087 0.9279 0.0
N1339 N 0.78439 0.28902 -0.00254 0.0
C1340 C 0.73081 0.22463 0.93894 0.0
C1341 C 0.7666 0.26982 0.97488 0.0
N1342 N 0.77228 0.20649 0.89561 0.0
N1343 N 0.72307 0.29565 -0.00134 0.0
H1344 H 0.80697 0.28864 0.99437 0.0
H1345 H 0.77701 0.30401 0.02196 0.0
H1346 H 0.70061 0.29757 0.00275 0.0
H1347 H 0.73429 0.31474 0.00621 0.0
H1348 H 0.75975 0.19232 0.87568 0.0
H1349 H 0.79417 0.20666 0.8861 0.0
H1350 H 0.7229 0.18176 0.91413 0.0
H1351 H 0.69225 0.19923 0.93587 0.0
C1352 C 0.97132 0.47563 0.75173 0.0
C1353 C -0.00228 0.46097 0.76164 0.0
C1354 C 0.02332 0.5076 0.76607 0.0
C1355 C -0.00353 0.52223 0.7598 0.0
N1356 N 0.94406 0.52043 0.75796 0.0
N1357 N 0.04742 0.46287 0.78817 0.0
C1358 C 0.97018 0.50632 0.756 0.0
C1359 C 0.02335 0.47691 0.77172 0.0
N1360 N 0.9477 0.46047 0.73601 0.0
N1361 N 0.04886 0.52276 0.76455 0.0
H1362 H 0.04801 0.44047 0.79377 0.0
H1363 H 0.06574 0.47369 0.80056 0.0
H1364 H 0.04982 0.54523 0.75996 0.0
H1365 H 0.06917 0.51277 0.76374 0.0
H1366 H 0.92897 0.4705 0.7235 0.0
H1367 H 0.94774 0.438 0.73111 0.0
H1368 H 0.92421 0.50961 0.76014 0.0
H1369 H 0.94228 0.54289 0.76229 0.0
C1370 C 0.2658 0.18337 0.46116 0.0
C1371 C 0.28286 0.20586 0.48101 0.0
C1372 C 0.23903 0.23423 0.4976 0.0
C1373 C 0.22219 0.21285 0.47437 0.0
N1374 N 0.21965 0.16943 0.42723 0.0
N1375 N 0.28675 0.25496 0.51016 0.0
C1376 C 0.23558 0.18801 0.45428 0.0
C1377 C 0.26977 0.23195 0.49704 0.0
N1378 N 0.27828 0.15722 0.45045 0.0
N1379 N 0.22562 0.25606 0.52181 0.0
H1380 H 0.30939 0.25426 0.50977 0.0
H1381 H 0.27852 0.27557 0.51734 0.0
H1382 H 0.20309 0.25833 0.52351 0.0
H1383 H 0.23665 0.27038 0.54367 0.0
H1384 H 0.26641 0.13889 0.44084 0.0
H1385 H 0.30039 0.15306 0.45481 0.0
H1386 H 0.22882 0.15279 0.40746 0.0
H1387 H 0.19746 0.17207 0.42131 0.0
C1388 C 0.51012 0.50024 0.33136 0.0
C1389 C 0.49498 0.51555 0.29598 0.0
C1390 C 0.48109 0.46949 0.25906 0.0
C1391 C 0.49832 0.45432 0.29209 0.0
N1392 N 0.53289 0.4551 0.35524 0.0
N1393 N 0.46807 0.51558 0.22383 0.0
C1394 C 0.51366 0.46961 0.32733 0.0
C1395 C 0.48114 0.5004 0.25904 0.0
N1396 N 0.52124 0.51499 0.36871 0.0
N1397 N 0.46361 0.45434 0.22912 0.0
H1398 H 0.46566 0.53813 0.22417 0.0
H1399 H 0.46101 0.50606 0.19293 0.0
H1400 H 0.46281 0.43171 0.22818 0.0
H1401 H 0.44806 0.46401 0.20785 0.0
H1402 H 0.52936 0.50478 0.39834 0.0
H1403 H 0.52067 0.53759 0.37162 0.0
H1404 H 0.54713 0.4654 0.37806 0.0
H1405 H 0.53655 0.43276 0.35285 0.0
C1406 C 0.22179 0.78834 0.01202 0.0
C1407 C 0.20473 0.76789 0.98707 0.0
C1408 C 0.2489 0.74374 0.95964 0.0
C1409 C 0.26581 0.76629 0.97975 0.0
N1410 N 0.26789 0.81335 0.01721 0.0
N1411 N 0.20191 0.72962 0.92953 0.0
C1412 C 0.25217 0.78953 0.00387 0.0
C1413 C 0.21822 0.74651 0.95875 0.0
N1414 N 0.20924 0.80585 0.04488 0.0
N1415 N 0.26199 0.71912 0.94307 0.0
H1416 H 0.1794 0.73149 0.92677 0.0
H1417 H 0.211 0.71584 0.90465 0.0
H1418 H 0.28437 0.71573 0.94456 0.0
H1419 H 0.25041 0.70083 0.93236 0.0
H1420 H 0.22122 0.81896 0.0674 0.0
H1421 H 0.18716 0.80511 0.05297 0.0
H1422 H 0.25836 0.83215 0.03055 0.0
H1423 H 0.29007 0.81561 0.01068 0.0
C1424 C 0.53958 0.97927 0.73988 0.0
C1425 C 0.51359 0.96643 0.75683 0.0
C1426 C 0.49235 0.01462 0.77034 0.0
C1427 C 0.51783 0.02742 0.75141 0.0
N1428 N 0.56455 0.02296 0.71406 0.0
N1429 N 0.46441 0.97076 0.78512 0.0
C1430 C 0.54113 0.01002 0.73496 0.0
C1431 C 0.4897 0.98381 0.77117 0.0
N1432 N 0.56285 0.962 0.72905 0.0
N1433 N 0.47083 0.03201 0.78795 0.0
H1434 H 0.46222 0.94832 0.78909 0.0
H1435 H 0.44501 0.98182 0.79076 0.0
H1436 H 0.47114 0.05463 0.78534 0.0
H1437 H 0.45325 0.02439 0.80718 0.0
H1438 H 0.58351 0.9699 0.72157 0.0
H1439 H 0.56202 0.93933 0.72988 0.0
H1440 H 0.58079 0.01164 0.69654 0.0
H1441 H 0.56709 0.04546 0.7119 0.0
C1442 C 0.27055 0.24774 0.97573 0.0
C1443 C 0.2854 0.25876 0.01523 0.0
C1444 C 0.2397 0.27808 0.04649 0.0
C1445 C 0.22447 0.26442 0.00951 0.0
N1446 N 0.2245 0.23284 0.9423 0.0
N1447 N 0.28446 0.28222 0.09043 0.0
C1448 C 0.23965 0.24849 0.97477 0.0
C1449 C 0.27005 0.27325 0.05133 0.0
N1450 N 0.286 0.23665 0.93908 0.0
N1451 N 0.2254 0.29675 0.07569 0.0
H1452 H 0.30693 0.28066 0.09412 0.0
H1453 H 0.27402 0.28959 0.1204 0.0
H1454 H 0.20326 0.30126 0.07276 0.0
H1455 H 0.23581 0.30981 0.10017 0.0
H1456 H 0.2767 0.23129 0.90715 0.0
H1457 H 0.30859 0.23481 0.93927 0.0
H1458 H 0.23418 0.21827 0.91928 0.0
H1459 H 0.20187 0.23247 0.94081 0.0
C1460 C 0.00257 0.0109 0.25401 0.0
C1461 C 0.98338 0.02755 0.22601 0.0
C1462 C 0.96304 0.98308 0.19212 0.0
C1463 C 0.98131 0.96638 0.22162 0.0
N1464 N 0.01594 0.96361 0.28461 0.0
N1465 N 0.94186 0.03021 0.17512 0.0
C1466 C 0.00019 0.98008 0.254 0.0
C1467 C 0.96269 0.01384 0.19675 0.0
N1468 N 0.024 0.02452 0.27882 0.0
N1469 N 0.94605 0.9695 0.15961 0.0
H1470 H 0.94063 0.05275 0.17853 0.0
H1471 H 0.92429 0.02144 0.15715 0.0
H1472 H 0.94406 0.94695 0.1573 0.0
H1473 H 0.93509 0.98045 0.1332 0.0
H1474 H 0.04086 0.01364 0.2955 0.0
H1475 H 0.02626 0.04706 0.28012 0.0
H1476 H 0.02726 0.97224 0.31278 0.0
H1477 H 0.0164 0.94095 0.28371 0.0
C1478 C 0.25912 0.77323 0.46408 0.0
C1479 C 0.27452 0.74838 0.44828 0.0
C1480 C 0.2288 0.72179 0.43924 0.0
C1481 C 0.21333 0.74748 0.45084 0.0
N1482 N 0.2134 0.79924 0.46498 0.0
N1483 N 0.27399 0.7011 0.4116 0.0
C1484 C 0.22837 0.7737 0.4606 0.0
C1485 C 0.25936 0.72321 0.4332 0.0
N1486 N 0.27367 0.79585 0.48439 0.0
N1487 N 0.21455 0.69577 0.43603 0.0
H1488 H 0.29635 0.70155 0.40564 0.0
H1489 H 0.2636 0.68364 0.39555 0.0
H1490 H 0.19221 0.69361 0.44115 0.0
H1491 H 0.22523 0.6759 0.43268 0.0
H1492 H 0.26323 0.81307 0.50101 0.0
H1493 H 0.29617 0.79614 0.48866 0.0
H1494 H 0.22351 0.81946 0.46719 0.0
H1495 H 0.19086 0.80059 0.46185 0.0
C1496 C 0.45474 0.02069 0.29185 0.0
C1497 C 0.46709 0.03094 0.24959 0.0
C1498 C 0.47039 0.98109 0.21991 0.0
C1499 C 0.46044 0.97072 0.26366 0.0
N1500 N 0.44693 0.97975 0.3436 0.0
N1501 N 0.48922 0.02154 0.17485 0.0
C1502 C 0.4534 0.99027 0.30021 0.0
C1503 C 0.47575 0.0113 0.21406 0.0
N1504 N 0.44441 0.04005 0.32407 0.0
N1505 N 0.47349 0.96219 0.18341 0.0
H1506 H 0.49197 0.04365 0.16797 0.0
H1507 H 0.49925 0.00818 0.15035 0.0
H1508 H 0.46946 0.93993 0.18626 0.0
H1509 H 0.47764 0.96872 0.14933 0.0
H1510 H 0.43197 0.03402 0.35281 0.0
H1511 H 0.44665 0.06252 0.3207 0.0
H1512 H 0.44481 0.99281 0.37304 0.0
H1513 H 0.44598 0.9576 0.35127 0.0
C1514 C 0.7755 0.68507 0.94439 0.0
C1515 C 0.78616 0.71401 0.94614 0.0
C1516 C 0.73718 0.733 0.93277 0.0
C1517 C 0.72619 0.70422 0.93575 0.0
N1518 N 0.73377 0.65294 0.94838 0.0
N1519 N 0.77722 0.76571 0.94882 0.0
C1520 C 0.74503 0.68025 0.94278 0.0
C1521 C 0.76709 0.73807 0.94172 0.0
N1522 N 0.79458 0.66229 0.94244 0.0
N1523 N 0.71902 0.7555 0.92167 0.0
H1524 H 0.79892 0.77039 0.95609 0.0
H1525 H 0.76382 0.78387 0.95145 0.0
H1526 H 0.69664 0.75304 0.91756 0.0
H1527 H 0.72633 0.7763 0.91339 0.0
H1528 H 0.78833 0.64087 0.9363 0.0
H1529 H 0.81708 0.66505 0.94288 0.0
H1530 H 0.74599 0.63513 0.95916 0.0
H1531 H 0.71167 0.64834 0.945 0.0
C1532 C 0.01546 0.00639 0.83883 0.0
C1533 C 0.99403 0.02308 0.81562 0.0
C1534 C 0.97192 0.97864 0.78468 0.0
C1535 C 0.99544 0.96238 0.80301 0.0
N1536 N 0.04155 0.96073 0.84303 0.0
N1537 N 0.95358 0.02603 0.7624 0.0
C1538 C 0.01764 0.97616 0.82929 0.0
C1539 C 0.97254 0.00947 0.78771 0.0
N1540 N 0.03334 0.01938 0.87068 0.0
N1541 N 0.94871 0.96453 0.76532 0.0
H1542 H 0.95334 0.04868 0.76376 0.0
H1543 H 0.93962 0.01751 0.73735 0.0
H1544 H 0.94753 0.94192 0.76275 0.0
H1545 H 0.92956 0.97495 0.75564 0.0
H1546 H 0.04734 0.00787 0.89239 0.0
H1547 H 0.03234 0.04154 0.87842 0.0
H1548 H 0.05996 0.9703 0.85749 0.0
H1549 H 0.04408 0.93854 0.83668 0.0
C1550 C 0.72777 0.25818 0.46172 0.0
C1551 C 0.71434 0.28565 0.46814 0.0
C1552 C 0.7603 0.30989 0.44947 0.0
C1553 C 0.77448 0.28249 0.44943 0.0
N1554 N 0.77254 0.23075 0.46409 0.0
N1555 N 0.71888 0.33779 0.47592 0.0
C1556 C 0.75845 0.25662 0.4577 0.0
C1557 C 0.73083 0.31161 0.46395 0.0
N1558 N 0.71116 0.23362 0.45795 0.0
N1559 N 0.77465 0.33413 0.43424 0.0
H1560 H 0.69758 0.34002 0.48777 0.0
H1561 H 0.73093 0.35692 0.47832 0.0
H1562 H 0.79606 0.33365 0.42225 0.0
H1563 H 0.76445 0.35409 0.42907 0.0
H1564 H 0.71966 0.21346 0.44852 0.0
H1565 H 0.68852 0.23394 0.45943 0.0
H1566 H 0.76204 0.21189 0.47514 0.0
H1567 H 0.79508 0.22868 0.46297 0.0
loop_
_geom_bond_atom_site_label_1
_geom_bond_atom_site_label_2
_geom_bond_distance
_geom_bond_site_symmetry_2
_ccdc_geom_bond_type
C0 O1 1.160 . S
C0 O7 1.185 . S
O1 C0 1.160 . S
O2 Zn3 1.899 . S
O2 C10 1.284 . S
Zn3 O2 1.899 . S
Zn3 O4 2.032 . S
Zn3 O7 2.086 . S
Zn3 O12 1.977 . S
O4 Zn3 2.032 . S
O4 C8 1.278 . S
C5 O6 1.203 . S
C5 O12 1.267 . S
O6 C5 1.203 . S
O7 C0 1.185 . S
O7 Zn3 2.086 . S
C8 O4 1.278 . S
C8 O9 1.211 . S
O9 C8 1.211 . S
C10 O2 1.284 . S
C10 O11 1.273 . S
O11 C10 1.273 . S
O12 Zn3 1.977 . S
O12 C5 1.267 . S
C13 O14 1.160 . S
C13 O20 1.185 . S
O14 C13 1.160 . S
O15 Zn16 1.899 . S
O15 C23 1.284 . S
Zn16 O15 1.899 . S
Zn16 O17 2.032 . S
Zn16 O20 2.086 . S
Zn16 O25 1.977 . S
O17 Zn16 2.032 . S
O17 C21 1.278 . S
C18 O19 1.203 . S
C18 O25 1.267 . S
O19 C18 1.203 . S
O20 C13 1.185 . S
O20 Zn16 2.086 . S
C21 O17 1.278 . S
C21 O22 1.211 . S
O22 C21 1.211 . S
C23 O15 1.284 . S
C23 O24 1.273 . S
O24 C23 1.273 . S
O25 Zn16 1.977 . S
O25 C18 1.267 . S
C26 O27 1.160 . S
C26 O33 1.185 . S
O27 C26 1.160 . S
O28 Zn29 1.899 . S
O28 C36 1.284 . S
Zn29 O28 1.899 . S
Zn29 O30 2.032 . S
Zn29 O33 2.086 . S
Zn29 O38 1.977 . S
O30 Zn29 2.032 . S
O30 C34 1.278 . S
C31 O32 1.203 . S
C31 O38 1.267 . S
O32 C31 1.203 . S
O33 C26 1.185 . S
O33 Zn29 2.086 . S
C34 O30 1.278 . S
C34 O35 1.211 . S
O35 C34 1.211 . S
C36 O28 1.284 . S
C36 O37 1.273 . S
O37 C36 1.273 . S
O38 Zn29 1.977 . S
O38 C31 1.267 . S
C39 O40 1.160 . S
C39 O46 1.185 . S
O40 C39 1.160 . S
O41 Zn42 1.899 . S
O41 C49 1.284 . S
Zn42 O41 1.899 . S
Zn42 O43 2.032 1_554 S
Zn42 O46 2.086 . S
Zn42 O51 1.977 . S
O43 Zn42 2.032 1_556 S
O43 C47 1.278 . S
C44 O45 1.203 . S
C44 O51 1.267 . S
O45 C44 1.203 . S
O46 C39 1.185 . S
O46 Zn42 2.086 . S
C47 O43 1.278 . S
C47 O48 1.211 . S
O48 C47 1.211 . S
C49 O41 1.284 . S
C49 O50 1.273 . S
O50 C49 1.273 . S
O51 Zn42 1.977 . S
O51 C44 1.267 . S
C52 O53 1.160 . S
C52 O59 1.185 . S
O53 C52 1.160 . S
O54 Zn55 1.899 . S
O54 C62 1.284 . S
Zn55 O54 1.899 . S
Zn55 O56 2.032 . S
Zn55 O59 2.086 . S
Zn55 O64 1.977 . S
O56 Zn55 2.032 . S
O56 C60 1.278 . S
C57 O58 1.203 . S
C57 O64 1.267 . S
O58 C57 1.203 . S
O59 C52 1.185 . S
O59 Zn55 2.086 . S
C60 O56 1.278 . S
C60 O61 1.211 . S
O61 C60 1.211 . S
C62 O54 1.284 . S
C62 O63 1.273 . S
O63 C62 1.273 . S
O64 Zn55 1.977 . S
O64 C57 1.267 . S
C65 O66 1.160 . S
C65 O72 1.185 . S
O66 C65 1.160 . S
O67 Zn68 1.899 . S
O67 C75 1.284 . S
Zn68 O67 1.899 . S
Zn68 O69 2.032 . S
Zn68 O72 2.086 . S
Zn68 O77 1.977 . S
O69 Zn68 2.032 . S
O69 C73 1.278 . S
C70 O71 1.203 . S
C70 O77 1.267 . S
O71 C70 1.203 . S
O72 C65 1.185 . S
O72 Zn68 2.086 . S
C73 O69 1.278 . S
C73 O74 1.211 . S
O74 C73 1.211 . S
C75 O67 1.284 . S
C75 O76 1.273 . S
O76 C75 1.273 . S
O77 Zn68 1.977 . S
O77 C70 1.267 . S
C78 O79 1.160 . S
C78 O85 1.185 . S
O79 C78 1.160 . S
O80 Zn81 1.899 . S
O80 C88 1.284 . S
Zn81 O80 1.899 . S
Zn81 O82 2.032 . S
Zn81 O85 2.086 . S
Zn81 O90 1.977 . S
O82 Zn81 2.032 . S
O82 C86 1.278 . S
C83 O84 1.203 . S
C83 O90 1.267 . S
O84 C83 1.203 . S
O85 C78 1.185 . S
O85 Zn81 2.086 . S
C86 O82 1.278 . S
C86 O87 1.211 . S
O87 C86 1.211 . S
C88 O80 1.284 . S
C88 O89 1.273 . S
O89 C88 1.273 . S
O90 Zn81 1.977 . S
O90 C83 1.267 . S
C91 O92 1.160 . S
C91 O98 1.185 . S
O92 C91 1.160 . S
O93 Zn94 1.899 . S
O93 C101 1.284 . S
Zn94 O93 1.899 . S
Zn94 O95 2.032 1_556 S
Zn94 O98 2.086 . S
Zn94 O103 1.977 . S
O95 Zn94 2.032 1_554 S
O95 C99 1.278 . S
C96 O97 1.203 . S
C96 O103 1.267 . S
O97 C96 1.203 . S
O98 C91 1.185 . S
O98 Zn94 2.086 . S
C99 O95 1.278 . S
C99 O100 1.211 . S
O100 C99 1.211 . S
C101 O93 1.284 . S
C101 O102 1.273 . S
O102 C101 1.273 . S
O103 Zn94 1.977 . S
O103 C96 1.267 . S
C104 O105 1.160 . S
C104 O111 1.185 . S
O105 C104 1.160 . S
O106 Zn107 1.899 . S
O106 C114 1.284 . S
Zn107 O106 1.899 . S
Zn107 O108 2.032 . S
Zn107 O111 2.086 . S
Zn107 O116 1.977 . S
O108 Zn107 2.032 . S
O108 C112 1.278 . S
C109 O110 1.203 . S
C109 O116 1.267 . S
O110 C109 1.203 . S
O111 C104 1.185 . S
O111 Zn107 2.086 . S
C112 O108 1.278 . S
C112 O113 1.211 . S
O113 C112 1.211 . S
C114 O106 1.284 . S
C114 O115 1.273 . S
O115 C114 1.273 . S
O116 Zn107 1.977 . S
O116 C109 1.267 . S
C117 O118 1.160 . S
C117 O124 1.185 . S
O118 C117 1.160 . S
O119 Zn120 1.899 . S
O119 C127 1.284 . S
Zn120 O119 1.899 . S
Zn120 O121 2.032 . S
Zn120 O124 2.086 . S
Zn120 O129 1.977 . S
O121 Zn120 2.032 . S
O121 C125 1.278 . S
C122 O123 1.203 . S
C122 O129 1.267 . S
O123 C122 1.203 . S
O124 C117 1.185 . S
O124 Zn120 2.086 . S
C125 O121 1.278 . S
C125 O126 1.211 . S
O126 C125 1.211 . S
C127 O119 1.284 . S
C127 O128 1.273 . S
O128 C127 1.273 . S
O129 Zn120 1.977 . S
O129 C122 1.267 . S
C130 O131 1.160 . S
C130 O137 1.185 . S
O131 C130 1.160 . S
O132 Zn133 1.899 . S
O132 C140 1.284 . S
Zn133 O132 1.899 . S
Zn133 O134 2.032 . S
Zn133 O137 2.086 . S
Zn133 O142 1.977 . S
O134 Zn133 2.032 . S
O134 C138 1.278 . S
C135 O136 1.203 . S
C135 O142 1.267 . S
O136 C135 1.203 . S
O137 C130 1.185 . S
O137 Zn133 2.086 . S
C138 O134 1.278 . S
C138 O139 1.211 . S
O139 C138 1.211 . S
C140 O132 1.284 . S
C140 O141 1.273 . S
O141 C140 1.273 . S
O142 Zn133 1.977 . S
O142 C135 1.267 . S
C143 O144 1.160 . S
C143 O150 1.185 . S
O144 C143 1.160 . S
O145 Zn146 1.899 . S
O145 C153 1.284 . S
Zn146 O145 1.899 . S
Zn146 O147 2.032 1_556 S
Zn146 O150 2.086 . S
Zn146 O155 1.977 . S
O147 Zn146 2.032 1_554 S
O147 C151 1.278 . S
C148 O149 1.203 . S
C148 O155 1.267 . S
O149 C148 1.203 . S
O150 C143 1.185 . S
O150 Zn146 2.086 . S
C151 O147 1.278 . S
C151 O152 1.211 . S
O152 C151 1.211 . S
C153 O145 1.284 . S
C153 O154 1.273 . S
O154 C153 1.273 . S
O155 Zn146 1.977 . S
O155 C148 1.267 . S
C156 O157 1.160 . S
C156 O163 1.185 . S
O157 C156 1.160 . S
O158 Zn159 1.899 . S
O158 C166 1.284 . S
Zn159 O158 1.899 . S
Zn159 O160 2.032 . S
Zn159 O163 2.086 . S
Zn159 O168 1.977 . S
O160 Zn159 2.032 . S
O160 C164 1.278 . S
C161 O162 1.203 . S
C161 O168 1.267 . S
O162 C161 1.203 . S
O163 C156 1.185 . S
O163 Zn159 2.086 . S
C164 O160 1.278 . S
C164 O165 1.211 . S
O165 C164 1.211 . S
C166 O158 1.284 . S
C166 O167 1.273 . S
O167 C166 1.273 . S
O168 Zn159 1.977 . S
O168 C161 1.267 . S
C169 O170 1.160 . S
C169 O176 1.185 . S
O170 C169 1.160 . S
O171 Zn172 1.899 . S
O171 C179 1.284 . S
Zn172 O171 1.899 . S
Zn172 O173 2.032 . S
Zn172 O176 2.086 . S
Zn172 O181 1.977 . S
O173 Zn172 2.032 . S
O173 C177 1.278 . S
C174 O175 1.203 . S
C174 O181 1.267 . S
O175 C174 1.203 . S
O176 C169 1.185 . S
O176 Zn172 2.086 . S
C177 O173 1.278 . S
C177 O178 1.211 . S
O178 C177 1.211 . S
C179 O171 1.284 . S
C179 O180 1.273 . S
O180 C179 1.273 . S
O181 Zn172 1.977 . S
O181 C174 1.267 . S
C182 O183 1.160 . S
C182 O189 1.185 . S
O183 C182 1.160 . S
O184 Zn185 1.899 . S
O184 C192 1.284 . S
Zn185 O184 1.899 . S
Zn185 O186 2.032 . S
Zn185 O189 2.086 . S
Zn185 O194 1.977 . S
O186 Zn185 2.032 . S
O186 C190 1.278 . S
C187 O188 1.203 . S
C187 O194 1.267 . S
O188 C187 1.203 . S
O189 C182 1.185 . S
O189 Zn185 2.086 . S
C190 O186 1.278 . S
C190 O191 1.211 . S
O191 C190 1.211 . S
C192 O184 1.284 . S
C192 O193 1.273 . S
O193 C192 1.273 . S
O194 Zn185 1.977 . S
O194 C187 1.267 . S
C195 O196 1.160 . S
C195 O202 1.185 . S
O196 C195 1.160 . S
O197 Zn198 1.899 . S
O197 C205 1.284 . S
Zn198 O197 1.899 . S
Zn198 O199 2.032 1_554 S
Zn198 O202 2.086 . S
Zn198 O207 1.977 . S
O199 Zn198 2.032 1_556 S
O199 C203 1.278 . S
C200 O201 1.203 . S
C200 O207 1.267 . S
O201 C200 1.203 . S
O202 C195 1.185 . S
O202 Zn198 2.086 . S
C203 O199 1.278 . S
C203 O204 1.211 . S
O204 C203 1.211 . S
C205 O197 1.284 . S
C205 O206 1.273 . S
O206 C205 1.273 . S
O207 Zn198 1.977 . S
O207 C200 1.267 . S
C208 O209 1.160 . S
C208 O215 1.185 . S
O209 C208 1.160 . S
O210 Zn211 1.899 . S
O210 C218 1.284 . S
Zn211 O210 1.899 . S
Zn211 O212 2.032 . S
Zn211 O215 2.086 . S
Zn211 O220 1.977 . S
O212 Zn211 2.032 . S
O212 C216 1.278 . S
C213 O214 1.203 . S
C213 O220 1.267 . S
O214 C213 1.203 . S
O215 C208 1.185 . S
O215 Zn211 2.086 . S
C216 O212 1.278 . S
C216 O217 1.211 . S
O217 C216 1.211 . S
C218 O210 1.284 . S
C218 O219 1.273 . S
O219 C218 1.273 . S
O220 Zn211 1.977 . S
O220 C213 1.267 . S
C221 O222 1.160 . S
C221 O228 1.185 . S
O222 C221 1.160 . S
O223 Zn224 1.899 . S
O223 C231 1.284 . S
Zn224 O223 1.899 . S
Zn224 O225 2.032 1_554 S
Zn224 O228 2.086 . S
Zn224 O233 1.977 . S
O225 Zn224 2.032 1_556 S
O225 C229 1.278 . S
C226 O227 1.203 . S
C226 O233 1.267 . S
O227 C226 1.203 . S
O228 C221 1.185 . S
O228 Zn224 2.086 . S
C229 O225 1.278 . S
C229 O230 1.211 . S
O230 C229 1.211 . S
C231 O223 1.284 . S
C231 O232 1.273 . S
O232 C231 1.273 . S
O233 Zn224 1.977 . S
O233 C226 1.267 . S
C234 O235 1.160 . S
C234 O241 1.185 . S
O235 C234 1.160 . S
O236 Zn237 1.899 . S
O236 C244 1.284 . S
Zn237 O236 1.899 . S
Zn237 O238 2.032 . S
Zn237 O241 2.086 . S
Zn237 O246 1.977 . S
O238 Zn237 2.032 . S
O238 C242 1.278 . S
C239 O240 1.203 . S
C239 O246 1.267 . S
O240 C239 1.203 . S
O241 C234 1.185 . S
O241 Zn237 2.086 . S
C242 O238 1.278 . S
C242 O243 1.211 . S
O243 C242 1.211 . S
C244 O236 1.284 . S
C244 O245 1.273 . S
O245 C244 1.273 . S
O246 Zn237 1.977 . S
O246 C239 1.267 . S
C247 O248 1.160 . S
C247 O254 1.185 . S
O248 C247 1.160 . S
O249 Zn250 1.899 . S
O249 C257 1.284 . S
Zn250 O249 1.899 . S
Zn250 O251 2.032 . S
Zn250 O254 2.086 . S
Zn250 O259 1.977 . S
O251 Zn250 2.032 . S
O251 C255 1.278 . S
C252 O253 1.203 . S
C252 O259 1.267 . S
O253 C252 1.203 . S
O254 C247 1.185 . S
O254 Zn250 2.086 . S
C255 O251 1.278 . S
C255 O256 1.211 . S
O256 C255 1.211 . S
C257 O249 1.284 . S
C257 O258 1.273 . S
O258 C257 1.273 . S
O259 Zn250 1.977 . S
O259 C252 1.267 . S
C260 O261 1.160 . S
C260 O267 1.185 . S
O261 C260 1.160 . S
O262 Zn263 1.899 . S
O262 C270 1.284 . S
Zn263 O262 1.899 . S
Zn263 O264 2.032 . S
Zn263 O267 2.086 . S
Zn263 O272 1.977 . S
O264 Zn263 2.032 . S
O264 C268 1.278 . S
C265 O266 1.203 . S
C265 O272 1.267 . S
O266 C265 1.203 . S
O267 C260 1.185 . S
O267 Zn263 2.086 . S
C268 O264 1.278 . S
C268 O269 1.211 . S
O269 C268 1.211 . S
C270 O262 1.284 . S
C270 O271 1.273 . S
O271 C270 1.273 . S
O272 Zn263 1.977 . S
O272 C265 1.267 . S
C273 O274 1.160 . S
C273 O280 1.185 . S
O274 C273 1.160 . S
O275 Zn276 1.899 . S
O275 C283 1.284 . S
Zn276 O275 1.899 . S
Zn276 O277 2.032 1_556 S
Zn276 O280 2.086 . S
Zn276 O285 1.977 . S
O277 Zn276 2.032 1_554 S
O277 C281 1.278 . S
C278 O279 1.203 . S
C278 O285 1.267 . S
O279 C278 1.203 . S
O280 C273 1.185 . S
O280 Zn276 2.086 . S
C281 O277 1.278 . S
C281 O282 1.211 . S
O282 C281 1.211 . S
C283 O275 1.284 . S
C283 O284 1.273 . S
O284 C283 1.273 . S
O285 Zn276 1.977 . S
O285 C278 1.267 . S
C286 O287 1.160 . S
C286 O293 1.185 . S
O287 C286 1.160 . S
O288 Zn289 1.899 . S
O288 C296 1.284 . S
Zn289 O288 1.899 . S
Zn289 O290 2.032 . S
Zn289 O293 2.086 . S
Zn289 O298 1.977 . S
O290 Zn289 2.032 . S
O290 C294 1.278 . S
C291 O292 1.203 . S
C291 O298 1.267 . S
O292 C291 1.203 . S
O293 C286 1.185 . S
O293 Zn289 2.086 . S
C294 O290 1.278 . S
C294 O295 1.211 . S
O295 C294 1.211 . S
C296 O288 1.284 . S
C296 O297 1.273 . S
O297 C296 1.273 . S
O298 Zn289 1.977 . S
O298 C291 1.267 . S
C299 O300 1.160 . S
C299 O306 1.185 . S
O300 C299 1.160 . S
O301 Zn302 1.899 . S
O301 C309 1.284 . S
Zn302 O301 1.899 . S
Zn302 O303 2.032 . S
Zn302 O306 2.086 . S
Zn302 O311 1.977 . S
O303 Zn302 2.032 . S
O303 C307 1.278 . S
C304 O305 1.203 . S
C304 O311 1.267 . S
O305 C304 1.203 . S
O306 C299 1.185 . S
O306 Zn302 2.086 . S
C307 O303 1.278 . S
C307 O308 1.211 . S
O308 C307 1.211 . S
C309 O301 1.284 . S
C309 O310 1.273 . S
O310 C309 1.273 . S
O311 Zn302 1.977 . S
O311 C304 1.267 . S
C312 O313 1.160 . S
C312 O319 1.185 . S
O313 C312 1.160 . S
O314 Zn315 1.899 . S
O314 C322 1.284 . S
Zn315 O314 1.899 . S
Zn315 O316 2.032 . S
Zn315 O319 2.086 . S
Zn315 O324 1.977 . S
O316 Zn315 2.032 . S
O316 C320 1.278 . S
C317 O318 1.203 . S
C317 O324 1.267 . S
O318 C317 1.203 . S
O319 C312 1.185 . S
O319 Zn315 2.086 . S
C320 O316 1.278 . S
C320 O321 1.211 . S
O321 C320 1.211 . S
C322 O314 1.284 . S
C322 O323 1.273 . S
O323 C322 1.273 . S
O324 Zn315 1.977 . S
O324 C317 1.267 . S
C325 O326 1.160 . S
C325 O332 1.185 . S
O326 C325 1.160 . S
O327 Zn328 1.899 . S
O327 C335 1.284 . S
Zn328 O327 1.899 . S
Zn328 O329 2.032 1_556 S
Zn328 O332 2.086 . S
Zn328 O337 1.977 . S
O329 Zn328 2.032 1_554 S
O329 C333 1.278 . S
C330 O331 1.203 . S
C330 O337 1.267 . S
O331 C330 1.203 . S
O332 C325 1.185 . S
O332 Zn328 2.086 . S
C333 O329 1.278 . S
C333 O334 1.211 . S
O334 C333 1.211 . S
C335 O327 1.284 . S
C335 O336 1.273 . S
O336 C335 1.273 . S
O337 Zn328 1.977 . S
O337 C330 1.267 . S
C338 O339 1.160 . S
C338 O345 1.185 . S
O339 C338 1.160 . S
O340 Zn341 1.899 . S
O340 C348 1.284 . S
Zn341 O340 1.899 . S
Zn341 O342 2.032 . S
Zn341 O345 2.086 . S
Zn341 O350 1.977 . S
O342 Zn341 2.032 . S
O342 C346 1.278 . S
C343 O344 1.203 . S
C343 O350 1.267 . S
O344 C343 1.203 . S
O345 C338 1.185 . S
O345 Zn341 2.086 . S
C346 O342 1.278 . S
C346 O347 1.211 . S
O347 C346 1.211 . S
C348 O340 1.284 . S
C348 O349 1.273 . S
O349 C348 1.273 . S
O350 Zn341 1.977 . S
O350 C343 1.267 . S
C351 O352 1.160 . S
C351 O358 1.185 . S
O352 C351 1.160 . S
O353 Zn354 1.899 . S
O353 C361 1.284 . S
Zn354 O353 1.899 . S
Zn354 O355 2.032 . S
Zn354 O358 2.086 . S
Zn354 O363 1.977 . S
O355 Zn354 2.032 . S
O355 C359 1.278 . S
C356 O357 1.203 . S
C356 O363 1.267 . S
O357 C356 1.203 . S
O358 C351 1.185 . S
O358 Zn354 2.086 . S
C359 O355 1.278 . S
C359 O360 1.211 . S
O360 C359 1.211 . S
C361 O353 1.284 . S
C361 O362 1.273 . S
O362 C361 1.273 . S
O363 Zn354 1.977 . S
O363 C356 1.267 . S
C364 O365 1.160 . S
C364 O371 1.185 . S
O365 C364 1.160 . S
O366 Zn367 1.899 . S
O366 C374 1.284 . S
Zn367 O366 1.899 . S
Zn367 O368 2.032 . S
Zn367 O371 2.086 . S
Zn367 O376 1.977 . S
O368 Zn367 2.032 . S
O368 C372 1.278 . S
C369 O370 1.203 . S
C369 O376 1.267 . S
O370 C369 1.203 . S
O371 C364 1.185 . S
O371 Zn367 2.086 . S
C372 O368 1.278 . S
C372 O373 1.211 . S
O373 C372 1.211 . S
C374 O366 1.284 . S
C374 O375 1.273 . S
O375 C374 1.273 . S
O376 Zn367 1.977 . S
O376 C369 1.267 . S
C377 O378 1.160 . S
C377 O384 1.185 . S
O378 C377 1.160 . S
O379 Zn380 1.899 . S
O379 C387 1.284 . S
Zn380 O379 1.899 . S
Zn380 O381 2.032 1_554 S
Zn380 O384 2.086 . S
Zn380 O389 1.977 . S
O381 Zn380 2.032 1_556 S
O381 C385 1.278 . S
C382 O383 1.203 . S
C382 O389 1.267 . S
O383 C382 1.203 . S
O384 C377 1.185 . S
O384 Zn380 2.086 . S
C385 O381 1.278 . S
C385 O386 1.211 . S
O386 C385 1.211 . S
C387 O379 1.284 . S
C387 O388 1.273 . S
O388 C387 1.273 . S
O389 Zn380 1.977 . S
O389 C382 1.267 . S
C390 O391 1.160 . S
C390 O397 1.185 . S
O391 C390 1.160 . S
O392 Zn393 1.899 . S
O392 C400 1.284 . S
Zn393 O392 1.899 . S
Zn393 O394 2.032 . S
Zn393 O397 2.086 . S
Zn393 O402 1.977 . S
O394 Zn393 2.032 . S
O394 C398 1.278 . S
C395 O396 1.203 . S
C395 O402 1.267 . S
O396 C395 1.203 . S
O397 C390 1.185 . S
O397 Zn393 2.086 . S
C398 O394 1.278 . S
C398 O399 1.211 . S
O399 C398 1.211 . S
C400 O392 1.284 . S
C400 O401 1.273 . S
O401 C400 1.273 . S
O402 Zn393 1.977 . S
O402 C395 1.267 . S
C403 O404 1.160 . S
C403 O410 1.185 . S
O404 C403 1.160 . S
O405 Zn406 1.899 . S
O405 C413 1.284 . S
Zn406 O405 1.899 . S
Zn406 O407 2.032 . S
Zn406 O410 2.086 . S
Zn406 O415 1.977 . S
O407 Zn406 2.032 . S
O407 C411 1.278 . S
C408 O409 1.203 . S
C408 O415 1.267 . S
O409 C408 1.203 . S
O410 C403 1.185 . S
O410 Zn406 2.086 . S
C411 O407 1.278 . S
C411 O412 1.211 . S
O412 C411 1.211 . S
C413 O405 1.284 . S
C413 O414 1.273 . S
O414 C413 1.273 . S
O415 Zn406 1.977 . S
O415 C408 1.267 . S
C416 C417 1.363 . S
C416 C422 1.379 . S
C416 N424 1.356 . S
C417 C416 1.363 . S
C417 C423 1.363 . S
C418 C419 1.363 . S
C418 C423 1.379 . S
C418 N425 1.356 . S
C419 C418 1.363 . S
C419 C422 1.363 . S
N420 C422 1.356 . S
N420 H432 0.984 . S
N420 H433 0.985 . S
N421 C423 1.356 . S
N421 H426 0.984 . S
N421 H427 0.985 . S
C422 C416 1.379 . S
C422 C419 1.363 . S
C422 N420 1.356 . S
C423 C417 1.363 . S
C423 C418 1.379 . S
C423 N421 1.356 . S
N424 C416 1.356 . S
N424 H430 0.984 . S
N424 H431 0.984 . S
N425 C418 1.356 . S
N425 H428 0.984 . S
N425 H429 0.985 . S
H426 N421 0.984 . S
H427 N421 0.985 . S
H428 N425 0.984 . S
H429 N425 0.985 . S
H430 N424 0.984 . S
H431 N424 0.984 . S
H432 N420 0.984 . S
H433 N420 0.985 . S
C434 C435 1.363 . S
C434 C440 1.379 . S
C434 N442 1.356 . S
C435 C434 1.363 . S
C435 C441 1.363 . S
C436 C437 1.363 . S
C436 C441 1.379 . S
C436 N443 1.356 . S
C437 C436 1.363 . S
C437 C440 1.363 . S
N438 C440 1.356 . S
N438 H450 0.984 . S
N438 H451 0.985 . S
N439 C441 1.356 . S
N439 H444 0.984 . S
N439 H445 0.985 . S
C440 C434 1.379 . S
C440 C437 1.363 . S
C440 N438 1.356 . S
C441 C435 1.363 . S
C441 C436 1.379 . S
C441 N439 1.356 . S
N442 C434 1.356 . S
N442 H448 0.984 . S
N442 H449 0.984 . S
N443 C436 1.356 . S
N443 H446 0.984 . S
N443 H447 0.985 . S
H444 N439 0.984 . S
H445 N439 0.985 . S
H446 N443 0.984 . S
H447 N443 0.985 . S
H448 N442 0.984 . S
H449 N442 0.984 . S
H450 N438 0.984 . S
H451 N438 0.985 . S
C452 C453 1.363 . S
C452 C458 1.379 . S
C452 N460 1.356 . S
C453 C452 1.363 . S
C453 C459 1.363 . S
C454 C455 1.363 . S
C454 C459 1.379 . S
C454 N461 1.356 . S
C455 C454 1.363 . S
C455 C458 1.363 . S
N456 C458 1.356 . S
N456 H468 0.984 . S
N456 H469 0.985 . S
N457 C459 1.356 . S
N457 H462 0.984 . S
N457 H463 0.985 . S
C458 C452 1.379 . S
C458 C455 1.363 . S
C458 N456 1.356 . S
C459 C453 1.363 . S
C459 C454 1.379 . S
C459 N457 1.356 . S
N460 C452 1.356 . S
N460 H466 0.984 . S
N460 H467 0.984 . S
N461 C454 1.356 . S
N461 H464 0.984 . S
N461 H465 0.985 . S
H462 N457 0.984 . S
H463 N457 0.985 . S
H464 N461 0.984 . S
H465 N461 0.985 . S
H466 N460 0.984 . S
H467 N460 0.984 . S
H468 N456 0.984 . S
H469 N456 0.985 . S
C470 C471 1.363 . S
C470 C476 1.379 . S
C470 N478 1.356 . S
C471 C470 1.363 . S
C471 C477 1.363 . S
C472 C473 1.363 . S
C472 C477 1.379 . S
C472 N479 1.356 . S
C473 C472 1.363 . S
C473 C476 1.363 . S
N474 C476 1.356 . S
N474 H486 0.984 . S
N474 H487 0.985 . S
N475 C477 1.356 . S
N475 H480 0.984 . S
N475 H481 0.985 . S
C476 C470 1.379 . S
C476 C473 1.363 . S
C476 N474 1.356 . S
C477 C471 1.363 . S
C477 C472 1.379 . S
C477 N475 1.356 . S
N478 C470 1.356 . S
N478 H484 0.984 . S
N478 H485 0.984 . S
N479 C472 1.356 . S
N479 H482 0.984 . S
N479 H483 0.985 . S
H480 N475 0.984 . S
H481 N475 0.985 . S
H482 N479 0.984 . S
H483 N479 0.985 . S
H484 N478 0.984 . S
H485 N478 0.984 . S
H486 N474 0.984 . S
H487 N474 0.985 . S
C488 C489 1.363 . S
C488 C494 1.379 . S
C488 N496 1.356 . S
C489 C488 1.363 . S
C489 C495 1.363 . S
C490 C491 1.363 . S
C490 C495 1.379 . S
C490 N497 1.356 . S
C491 C490 1.363 . S
C491 C494 1.363 . S
N492 C494 1.356 . S
N492 H504 0.984 . S
N492 H505 0.985 . S
N493 C495 1.356 . S
N493 H498 0.984 . S
N493 H499 0.985 . S
C494 C488 1.379 . S
C494 C491 1.363 . S
C494 N492 1.356 . S
C495 C489 1.363 . S
C495 C490 1.379 . S
C495 N493 1.356 . S
N496 C488 1.356 . S
N496 H502 0.984 . S
N496 H503 0.984 . S
N497 C490 1.356 . S
N497 H500 0.984 . S
N497 H501 0.985 . S
H498 N493 0.984 . S
H499 N493 0.985 . S
H500 N497 0.984 . S
H501 N497 0.985 . S
H502 N496 0.984 . S
H503 N496 0.984 . S
H504 N492 0.984 . S
H505 N492 0.985 . S
C506 C507 1.363 . S
C506 C512 1.379 . S
C506 N514 1.356 . S
C507 C506 1.363 . S
C507 C513 1.363 . S
C508 C509 1.363 . S
C508 C513 1.379 . S
C508 N515 1.356 . S
C509 C508 1.363 . S
C509 C512 1.363 . S
N510 C512 1.356 . S
N510 H522 0.984 . S
N510 H523 0.985 . S
N511 C513 1.356 . S
N511 H516 0.984 . S
N511 H517 0.985 . S
C512 C506 1.379 . S
C512 C509 1.363 . S
C512 N510 1.356 . S
C513 C507 1.363 . S
C513 C508 1.379 . S
C513 N511 1.356 . S
N514 C506 1.356 . S
N514 H520 0.984 . S
N514 H521 0.984 . S
N515 C508 1.356 . S
N515 H518 0.984 . S
N515 H519 0.985 . S
H516 N511 0.984 . S
H517 N511 0.985 . S
H518 N515 0.984 . S
H519 N515 0.985 . S
H520 N514 0.984 . S
H521 N514 0.984 . S
H522 N510 0.984 . S
H523 N510 0.985 . S
C524 C525 1.363 . S
C524 C530 1.379 . S
C524 N532 1.356 . S
C525 C524 1.363 . S
C525 C531 1.363 . S
C526 C527 1.363 . S
C526 C531 1.379 . S
C526 N533 1.356 . S
C527 C526 1.363 . S
C527 C530 1.363 . S
N528 C530 1.356 . S
N528 H540 0.984 . S
N528 H541 0.985 . S
N529 C531 1.356 . S
N529 H534 0.984 . S
N529 H535 0.985 . S
C530 C524 1.379 . S
C530 C527 1.363 . S
C530 N528 1.356 . S
C531 C525 1.363 . S
C531 C526 1.379 . S
C531 N529 1.356 . S
N532 C524 1.356 . S
N532 H538 0.984 . S
N532 H539 0.984 . S
N533 C526 1.356 . S
N533 H536 0.984 . S
N533 H537 0.985 . S
H534 N529 0.984 . S
H535 N529 0.985 . S
H536 N533 0.984 . S
H537 N533 0.985 . S
H538 N532 0.984 . S
H539 N532 0.984 . S
H540 N528 0.984 . S
H541 N528 0.985 . S
C542 C543 1.363 . S
C542 C548 1.379 . S
C542 N550 1.356 . S
C543 C542 1.363 . S
C543 C549 1.363 . S
C544 C545 1.363 . S
C544 C549 1.379 . S
C544 N551 1.356 . S
C545 C544 1.363 . S
C545 C548 1.363 . S
N546 C548 1.356 . S
N546 H558 0.984 . S
N546 H559 0.985 . S
N547 C549 1.356 . S
N547 H552 0.984 . S
N547 H553 0.985 . S
C548 C542 1.379 . S
C548 C545 1.363 . S
C548 N546 1.356 . S
C549 C543 1.363 . S
C549 C544 1.379 . S
C549 N547 1.356 . S
N550 C542 1.356 . S
N550 H556 0.984 . S
N550 H557 0.984 . S
N551 C544 1.356 . S
N551 H554 0.984 . S
N551 H555 0.985 . S
H552 N547 0.984 . S
H553 N547 0.985 . S
H554 N551 0.984 . S
H555 N551 0.985 . S
H556 N550 0.984 . S
H557 N550 0.984 . S
H558 N546 0.984 . S
H559 N546 0.985 . S
C560 C561 1.363 . S
C560 C566 1.379 . S
C560 N568 1.356 . S
C561 C560 1.363 . S
C561 C567 1.363 . S
C562 C563 1.363 . S
C562 C567 1.379 . S
C562 N569 1.356 . S
C563 C562 1.363 . S
C563 C566 1.363 . S
N564 C566 1.356 . S
N564 H576 0.984 . S
N564 H577 0.985 . S
N565 C567 1.356 . S
N565 H570 0.984 . S
N565 H571 0.985 . S
C566 C560 1.379 . S
C566 C563 1.363 . S
C566 N564 1.356 . S
C567 C561 1.363 . S
C567 C562 1.379 . S
C567 N565 1.356 . S
N568 C560 1.356 . S
N568 H574 0.984 . S
N568 H575 0.984 . S
N569 C562 1.356 . S
N569 H572 0.984 . S
N569 H573 0.985 . S
H570 N565 0.984 . S
H571 N565 0.985 . S
H572 N569 0.984 . S
H573 N569 0.985 . S
H574 N568 0.984 . S
H575 N568 0.984 . S
H576 N564 0.984 . S
H577 N564 0.985 . S
C578 C579 1.363 . S
C578 C584 1.379 . S
C578 N586 1.356 . S
C579 C578 1.363 . S
C579 C585 1.363 . S
C580 C581 1.363 . S
C580 C585 1.379 . S
C580 N587 1.356 . S
C581 C580 1.363 . S
C581 C584 1.363 . S
N582 C584 1.356 . S
N582 H594 0.984 . S
N582 H595 0.985 . S
N583 C585 1.356 . S
N583 H588 0.984 . S
N583 H589 0.985 . S
C584 C578 1.379 . S
C584 C581 1.363 . S
C584 N582 1.356 . S
C585 C579 1.363 . S
C585 C580 1.379 . S
C585 N583 1.356 . S
N586 C578 1.356 . S
N586 H592 0.984 . S
N586 H593 0.984 . S
N587 C580 1.356 . S
N587 H590 0.984 . S
N587 H591 0.985 . S
H588 N583 0.984 . S
H589 N583 0.985 . S
H590 N587 0.984 . S
H591 N587 0.985 . S
H592 N586 0.984 . S
H593 N586 0.984 . S
H594 N582 0.984 . S
H595 N582 0.985 . S
C596 C597 1.363 . S
C596 C602 1.379 . S
C596 N604 1.356 . S
C597 C596 1.363 . S
C597 C603 1.363 . S
C598 C599 1.363 . S
C598 C603 1.379 . S
C598 N605 1.356 . S
C599 C598 1.363 . S
C599 C602 1.363 . S
N600 C602 1.356 . S
N600 H612 0.984 . S
N600 H613 0.985 . S
N601 C603 1.356 . S
N601 H606 0.984 . S
N601 H607 0.985 . S
C602 C596 1.379 . S
C602 C599 1.363 . S
C602 N600 1.356 . S
C603 C597 1.363 . S
C603 C598 1.379 . S
C603 N601 1.356 . S
N604 C596 1.356 . S
N604 H610 0.984 . S
N604 H611 0.984 . S
N605 C598 1.356 . S
N605 H608 0.984 . S
N605 H609 0.985 . S
H606 N601 0.984 . S
H607 N601 0.985 . S
H608 N605 0.984 . S
H609 N605 0.985 . S
H610 N604 0.984 . S
H611 N604 0.984 . S
H612 N600 0.984 . S
H613 N600 0.985 . S
C614 C615 1.363 . S
C614 C620 1.379 . S
C614 N622 1.356 . S
C615 C614 1.363 . S
C615 C621 1.363 . S
C616 C617 1.363 . S
C616 C621 1.379 . S
C616 N623 1.356 . S
C617 C616 1.363 . S
C617 C620 1.363 . S
N618 C620 1.356 . S
N618 H630 0.984 . S
N618 H631 0.985 . S
N619 C621 1.356 . S
N619 H624 0.984 . S
N619 H625 0.985 . S
C620 C614 1.379 . S
C620 C617 1.363 . S
C620 N618 1.356 . S
C621 C615 1.363 . S
C621 C616 1.379 . S
C621 N619 1.356 . S
N622 C614 1.356 . S
N622 H628 0.984 . S
N622 H629 0.984 . S
N623 C616 1.356 . S
N623 H626 0.984 . S
N623 H627 0.985 . S
H624 N619 0.984 . S
H625 N619 0.985 . S
H626 N623 0.984 . S
H627 N623 0.985 . S
H628 N622 0.984 . S
H629 N622 0.984 . S
H630 N618 0.984 . S
H631 N618 0.985 . S
C632 C633 1.363 . S
C632 C638 1.379 . S
C632 N640 1.356 . S
C633 C632 1.363 . S
C633 C639 1.363 . S
C634 C635 1.363 . S
C634 C639 1.379 . S
C634 N641 1.356 . S
C635 C634 1.363 . S
C635 C638 1.363 . S
N636 C638 1.356 . S
N636 H648 0.984 . S
N636 H649 0.985 . S
N637 C639 1.356 . S
N637 H642 0.984 . S
N637 H643 0.985 . S
C638 C632 1.379 . S
C638 C635 1.363 . S
C638 N636 1.356 . S
C639 C633 1.363 . S
C639 C634 1.379 . S
C639 N637 1.356 . S
N640 C632 1.356 . S
N640 H646 0.984 . S
N640 H647 0.984 . S
N641 C634 1.356 . S
N641 H644 0.984 . S
N641 H645 0.985 . S
H642 N637 0.984 . S
H643 N637 0.985 . S
H644 N641 0.984 . S
H645 N641 0.985 . S
H646 N640 0.984 . S
H647 N640 0.984 . S
H648 N636 0.984 . S
H649 N636 0.985 . S
C650 C651 1.363 . S
C650 C656 1.379 . S
C650 N658 1.356 . S
C651 C650 1.363 . S
C651 C657 1.363 . S
C652 C653 1.363 . S
C652 C657 1.379 . S
C652 N659 1.356 . S
C653 C652 1.363 . S
C653 C656 1.363 . S
N654 C656 1.356 . S
N654 H666 0.984 . S
N654 H667 0.985 . S
N655 C657 1.356 . S
N655 H660 0.984 . S
N655 H661 0.985 . S
C656 C650 1.379 . S
C656 C653 1.363 . S
C656 N654 1.356 . S
C657 C651 1.363 . S
C657 C652 1.379 . S
C657 N655 1.356 . S
N658 C650 1.356 . S
N658 H664 0.984 . S
N658 H665 0.984 . S
N659 C652 1.356 . S
N659 H662 0.984 . S
N659 H663 0.985 . S
H660 N655 0.984 . S
H661 N655 0.985 . S
H662 N659 0.984 . S
H663 N659 0.985 . S
H664 N658 0.984 . S
H665 N658 0.984 . S
H666 N654 0.984 . S
H667 N654 0.985 . S
C668 C669 1.363 . S
C668 C674 1.379 . S
C668 N676 1.356 . S
C669 C668 1.363 . S
C669 C675 1.363 . S
C670 C671 1.363 . S
C670 C675 1.379 . S
C670 N677 1.356 . S
C671 C670 1.363 . S
C671 C674 1.363 . S
N672 C674 1.356 . S
N672 H684 0.984 . S
N672 H685 0.985 . S
N673 C675 1.356 . S
N673 H678 0.984 . S
N673 H679 0.985 . S
C674 C668 1.379 . S
C674 C671 1.363 . S
C674 N672 1.356 . S
C675 C669 1.363 . S
C675 C670 1.379 . S
C675 N673 1.356 . S
N676 C668 1.356 . S
N676 H682 0.984 . S
N676 H683 0.984 . S
N677 C670 1.356 . S
N677 H680 0.984 . S
N677 H681 0.985 . S
H678 N673 0.984 . S
H679 N673 0.985 . S
H680 N677 0.984 . S
H681 N677 0.985 . S
H682 N676 0.984 . S
H683 N676 0.984 . S
H684 N672 0.984 . S
H685 N672 0.985 . S
C686 C687 1.363 . S
C686 C692 1.379 . S
C686 N694 1.356 . S
C687 C686 1.363 . S
C687 C693 1.363 . S
C688 C689 1.363 . S
C688 C693 1.379 . S
C688 N695 1.356 . S
C689 C688 1.363 . S
C689 C692 1.363 . S
N690 C692 1.356 . S
N690 H702 0.984 . S
N690 H703 0.985 . S
N691 C693 1.356 . S
N691 H696 0.984 . S
N691 H697 0.985 . S
C692 C686 1.379 . S
C692 C689 1.363 . S
C692 N690 1.356 . S
C693 C687 1.363 . S
C693 C688 1.379 . S
C693 N691 1.356 . S
N694 C686 1.356 . S
N694 H700 0.984 . S
N694 H701 0.984 . S
N695 C688 1.356 . S
N695 H698 0.984 . S
N695 H699 0.985 . S
H696 N691 0.984 . S
H697 N691 0.985 . S
H698 N695 0.984 . S
H699 N695 0.985 . S
H700 N694 0.984 . S
H701 N694 0.984 . S
H702 N690 0.984 . S
H703 N690 0.985 . S
C704 C705 1.363 . S
C704 C710 1.379 . S
C704 N712 1.356 . S
C705 C704 1.363 . S
C705 C711 1.363 . S
C706 C707 1.363 . S
C706 C711 1.379 . S
C706 N713 1.356 . S
C707 C706 1.363 . S
C707 C710 1.363 . S
N708 C710 1.356 . S
N708 H720 0.984 . S
N708 H721 0.985 . S
N709 C711 1.356 . S
N709 H714 0.984 . S
N709 H715 0.985 . S
C710 C704 1.379 . S
C710 C707 1.363 . S
C710 N708 1.356 . S
C711 C705 1.363 . S
C711 C706 1.379 . S
C711 N709 1.356 . S
N712 C704 1.356 . S
N712 H718 0.984 . S
N712 H719 0.984 . S
N713 C706 1.356 . S
N713 H716 0.984 . S
N713 H717 0.985 . S
H714 N709 0.984 . S
H715 N709 0.985 . S
H716 N713 0.984 . S
H717 N713 0.985 . S
H718 N712 0.984 . S
H719 N712 0.984 . S
H720 N708 0.984 . S
H721 N708 0.985 . S
C722 C723 1.363 . S
C722 C728 1.379 . S
C722 N730 1.356 . S
C723 C722 1.363 . S
C723 C729 1.363 . S
C724 C725 1.363 . S
C724 C729 1.379 . S
C724 N731 1.356 . S
C725 C724 1.363 . S
C725 C728 1.363 . S
N726 C728 1.356 . S
N726 H738 0.984 . S
N726 H739 0.985 1_655 S
N727 C729 1.356 . S
N727 H732 0.984 . S
N727 H733 0.985 . S
C728 C722 1.379 . S
C728 C725 1.363 . S
C728 N726 1.356 . S
C729 C723 1.363 . S
C729 C724 1.379 . S
C729 N727 1.356 . S
N730 C722 1.356 . S
N730 H736 0.984 . S
N730 H737 0.984 . S
N731 C724 1.356 . S
N731 H734 0.984 . S
N731 H735 0.985 . S
H732 N727 0.984 . S
H733 N727 0.985 . S
H734 N731 0.984 . S
H735 N731 0.985 . S
H736 N730 0.984 . S
H737 N730 0.984 . S
H738 N726 0.984 . S
H739 N726 0.985 1_455 S
C740 C741 1.363 . S
C740 C746 1.379 . S
C740 N748 1.356 . S
C741 C740 1.363 . S
C741 C747 1.363 . S
C742 C743 1.363 . S
C742 C747 1.379 . S
C742 N749 1.356 . S
C743 C742 1.363 . S
C743 C746 1.363 . S
N744 C746 1.356 . S
N744 H756 0.984 . S
N744 H757 0.985 . S
N745 C747 1.356 . S
N745 H750 0.984 . S
N745 H751 0.985 1_556 S
C746 C740 1.379 . S
C746 C743 1.363 . S
C746 N744 1.356 . S
C747 C741 1.363 . S
C747 C742 1.379 . S
C747 N745 1.356 . S
N748 C740 1.356 . S
N748 H754 0.984 . S
N748 H755 0.984 . S
N749 C742 1.356 . S
N749 H752 0.984 . S
N749 H753 0.985 . S
H750 N745 0.984 . S
H751 N745 0.985 1_554 S
H752 N749 0.984 . S
H753 N749 0.985 . S
H754 N748 0.984 . S
H755 N748 0.984 . S
H756 N744 0.984 . S
H757 N744 0.985 . S
C758 C759 1.363 . S
C758 C764 1.379 . S
C758 N766 1.356 . S
C759 C758 1.363 . S
C759 C765 1.363 . S
C760 C761 1.363 . S
C760 C765 1.379 . S
C760 N767 1.356 . S
C761 C760 1.363 . S
C761 C764 1.363 . S
N762 C764 1.356 . S
N762 H774 0.984 . S
N762 H775 0.985 . S
N763 C765 1.356 . S
N763 H768 0.984 . S
N763 H769 0.985 . S
C764 C758 1.379 . S
C764 C761 1.363 . S
C764 N762 1.356 . S
C765 C759 1.363 . S
C765 C760 1.379 . S
C765 N763 1.356 . S
N766 C758 1.356 . S
N766 H772 0.984 . S
N766 H773 0.984 . S
N767 C760 1.356 . S
N767 H770 0.984 . S
N767 H771 0.985 . S
H768 N763 0.984 . S
H769 N763 0.985 . S
H770 N767 0.984 . S
H771 N767 0.985 . S
H772 N766 0.984 . S
H773 N766 0.984 . S
H774 N762 0.984 . S
H775 N762 0.985 . S
C776 C777 1.363 . S
C776 C782 1.379 . S
C776 N784 1.356 . S
C777 C776 1.363 . S
C777 C783 1.363 . S
C778 C779 1.363 . S
C778 C783 1.379 . S
C778 N785 1.356 . S
C779 C778 1.363 . S
C779 C782 1.363 . S
N780 C782 1.356 . S
N780 H792 0.984 . S
N780 H793 0.985 . S
N781 C783 1.356 . S
N781 H786 0.984 . S
N781 H787 0.985 . S
C782 C776 1.379 . S
C782 C779 1.363 . S
C782 N780 1.356 . S
C783 C777 1.363 . S
C783 C778 1.379 . S
C783 N781 1.356 . S
N784 C776 1.356 . S
N784 H790 0.984 . S
N784 H791 0.984 . S
N785 C778 1.356 . S
N785 H788 0.984 . S
N785 H789 0.985 . S
H786 N781 0.984 . S
H787 N781 0.985 . S
H788 N785 0.984 . S
H789 N785 0.985 . S
H790 N784 0.984 . S
H791 N784 0.984 . S
H792 N780 0.984 . S
H793 N780 0.985 . S
C794 C795 1.363 . S
C794 C800 1.379 . S
C794 N802 1.356 . S
C795 C794 1.363 . S
C795 C801 1.363 . S
C796 C797 1.363 . S
C796 C801 1.379 . S
C796 N803 1.356 . S
C797 C796 1.363 . S
C797 C800 1.363 . S
N798 C800 1.356 . S
N798 H810 0.984 . S
N798 H811 0.985 . S
N799 C801 1.356 . S
N799 H804 0.984 . S
N799 H805 0.985 . S
C800 C794 1.379 . S
C800 C797 1.363 . S
C800 N798 1.356 . S
C801 C795 1.363 . S
C801 C796 1.379 . S
C801 N799 1.356 . S
N802 C794 1.356 . S
N802 H808 0.984 . S
N802 H809 0.984 . S
N803 C796 1.356 . S
N803 H806 0.984 . S
N803 H807 0.985 . S
H804 N799 0.984 . S
H805 N799 0.985 . S
H806 N803 0.984 . S
H807 N803 0.985 . S
H808 N802 0.984 . S
H809 N802 0.984 . S
H810 N798 0.984 . S
H811 N798 0.985 . S
C812 C813 1.363 . S
C812 C818 1.379 . S
C812 N820 1.356 . S
C813 C812 1.363 . S
C813 C819 1.363 . S
C814 C815 1.363 . S
C814 C819 1.379 . S
C814 N821 1.356 . S
C815 C814 1.363 . S
C815 C818 1.363 . S
N816 C818 1.356 . S
N816 H828 0.984 . S
N816 H829 0.985 . S
N817 C819 1.356 . S
N817 H822 0.984 . S
N817 H823 0.985 . S
C818 C812 1.379 . S
C818 C815 1.363 . S
C818 N816 1.356 . S
C819 C813 1.363 . S
C819 C814 1.379 . S
C819 N817 1.356 . S
N820 C812 1.356 . S
N820 H826 0.984 . S
N820 H827 0.984 . S
N821 C814 1.356 . S
N821 H824 0.984 . S
N821 H825 0.985 . S
H822 N817 0.984 . S
H823 N817 0.985 . S
H824 N821 0.984 . S
H825 N821 0.985 . S
H826 N820 0.984 . S
H827 N820 0.984 . S
H828 N816 0.984 . S
H829 N816 0.985 . S
C830 C831 1.363 . S
C830 C836 1.379 . S
C830 N838 1.356 . S
C831 C830 1.363 . S
C831 C837 1.363 . S
C832 C833 1.363 . S
C832 C837 1.379 . S
C832 N839 1.356 . S
C833 C832 1.363 . S
C833 C836 1.363 . S
N834 C836 1.356 . S
N834 H846 0.984 . S
N834 H847 0.985 . S
N835 C837 1.367 . S
N835 H840 0.976 1_655 S
N835 H841 0.982 1_655 S
C836 C830 1.379 . S
C836 C833 1.363 . S
C836 N834 1.356 . S
C837 C831 1.363 . S
C837 C832 1.379 . S
C837 N835 1.367 . S
N838 C830 1.356 . S
N838 H844 0.984 . S
N838 H845 0.984 . S
N839 C832 1.356 . S
N839 H842 0.984 . S
N839 H843 0.985 . S
H840 N835 0.976 1_455 S
H841 N835 0.982 1_455 S
H842 N839 0.984 . S
H843 N839 0.985 . S
H844 N838 0.984 . S
H845 N838 0.984 . S
H846 N834 0.984 . S
H847 N834 0.985 . S
C848 C849 1.363 . S
C848 C854 1.379 . S
C848 N856 1.356 . S
C849 C848 1.363 . S
C849 C855 1.363 . S
C850 C851 1.363 . S
C850 C855 1.379 . S
C850 N857 1.356 . S
C851 C850 1.363 . S
C851 C854 1.363 . S
N852 C854 1.356 . S
N852 H864 0.984 . S
N852 H865 0.985 . S
N853 C855 1.356 . S
N853 H858 0.984 . S
N853 H859 0.985 . S
C854 C848 1.379 . S
C854 C851 1.363 . S
C854 N852 1.356 . S
C855 C849 1.363 . S
C855 C850 1.379 . S
C855 N853 1.356 . S
N856 C848 1.356 . S
N856 H862 0.984 . S
N856 H863 0.984 . S
N857 C850 1.356 . S
N857 H860 0.984 . S
N857 H861 0.985 . S
H858 N853 0.984 . S
H859 N853 0.985 . S
H860 N857 0.984 . S
H861 N857 0.985 . S
H862 N856 0.984 . S
H863 N856 0.984 . S
H864 N852 0.984 . S
H865 N852 0.985 . S
C866 C867 1.363 . S
C866 C872 1.379 . S
C866 N874 1.356 1_455 S
C867 C866 1.363 . S
C867 C873 1.363 . S
C868 C869 1.363 . S
C868 C873 1.379 . S
C868 N875 1.356 . S
C869 C868 1.363 . S
C869 C872 1.363 . S
N870 C872 1.356 . S
N870 H882 0.984 . S
N870 H883 0.985 . S
N871 C873 1.356 . S
N871 H876 0.984 . S
N871 H877 0.985 . S
C872 C866 1.379 . S
C872 C869 1.363 . S
C872 N870 1.356 . S
C873 C867 1.363 . S
C873 C868 1.379 . S
C873 N871 1.356 . S
N874 C866 1.356 1_655 S
N874 H880 0.984 . S
N874 H881 0.984 . S
N875 C868 1.356 . S
N875 H878 0.984 . S
N875 H879 0.985 . S
H876 N871 0.984 . S
H877 N871 0.985 . S
H878 N875 0.984 . S
H879 N875 0.985 . S
H880 N874 0.984 . S
H881 N874 0.984 . S
H882 N870 0.984 . S
H883 N870 0.985 . S
C884 C885 1.363 . S
C884 C890 1.379 . S
C884 N892 1.356 . S
C885 C884 1.363 . S
C885 C891 1.363 . S
C886 C887 1.363 . S
C886 C891 1.379 . S
C886 N893 1.356 . S
C887 C886 1.363 . S
C887 C890 1.363 . S
N888 C890 1.356 . S
N888 H900 0.984 . S
N888 H901 0.985 . S
N889 C891 1.356 . S
N889 H894 0.984 . S
N889 H895 0.985 . S
C890 C884 1.379 . S
C890 C887 1.363 . S
C890 N888 1.356 . S
C891 C885 1.363 . S
C891 C886 1.379 . S
C891 N889 1.356 . S
N892 C884 1.356 . S
N892 H898 0.984 1_554 S
N892 H899 0.984 . S
N893 C886 1.356 . S
N893 H896 0.984 . S
N893 H897 0.985 . S
H894 N889 0.984 . S
H895 N889 0.985 . S
H896 N893 0.984 . S
H897 N893 0.985 . S
H898 N892 0.984 1_556 S
H899 N892 0.984 . S
H900 N888 0.984 . S
H901 N888 0.985 . S
C902 C903 1.363 . S
C902 C908 1.379 . S
C902 N910 1.356 . S
C903 C902 1.363 . S
C903 C909 1.363 . S
C904 C905 1.363 . S
C904 C909 1.379 . S
C904 N911 1.356 . S
C905 C904 1.363 . S
C905 C908 1.363 . S
N906 C908 1.356 . S
N906 H918 0.984 . S
N906 H919 0.985 . S
N907 C909 1.356 . S
N907 H912 0.984 . S
N907 H913 0.985 . S
C908 C902 1.379 . S
C908 C905 1.363 . S
C908 N906 1.356 . S
C909 C903 1.363 . S
C909 C904 1.379 . S
C909 N907 1.356 . S
N910 C902 1.356 . S
N910 H916 0.984 . S
N910 H917 0.984 . S
N911 C904 1.356 . S
N911 H914 0.984 . S
N911 H915 0.985 . S
H912 N907 0.984 . S
H913 N907 0.985 . S
H914 N911 0.984 . S
H915 N911 0.985 . S
H916 N910 0.984 . S
H917 N910 0.984 . S
H918 N906 0.984 . S
H919 N906 0.985 . S
C920 C921 1.363 . S
C920 C926 1.379 . S
C920 N928 1.356 . S
C921 C920 1.363 . S
C921 C927 1.363 . S
C922 C923 1.363 . S
C922 C927 1.379 . S
C922 N929 1.356 . S
C923 C922 1.363 . S
C923 C926 1.363 . S
N924 C926 1.356 . S
N924 H936 0.984 . S
N924 H937 0.985 . S
N925 C927 1.356 . S
N925 H930 0.984 . S
N925 H931 0.985 . S
C926 C920 1.379 . S
C926 C923 1.363 . S
C926 N924 1.356 . S
C927 C921 1.363 . S
C927 C922 1.379 . S
C927 N925 1.356 . S
N928 C920 1.356 . S
N928 H934 0.984 . S
N928 H935 0.984 . S
N929 C922 1.356 . S
N929 H932 0.984 . S
N929 H933 0.985 . S
H930 N925 0.984 . S
H931 N925 0.985 . S
H932 N929 0.984 . S
H933 N929 0.985 . S
H934 N928 0.984 . S
H935 N928 0.984 . S
H936 N924 0.984 . S
H937 N924 0.985 . S
C938 C939 1.363 . S
C938 C944 1.379 . S
C938 N946 1.356 . S
C939 C938 1.363 . S
C939 C945 1.363 . S
C940 C941 1.363 . S
C940 C945 1.379 . S
C940 N947 1.356 . S
C941 C940 1.363 . S
C941 C944 1.363 . S
N942 C944 1.356 . S
N942 H954 0.984 . S
N942 H955 0.985 . S
N943 C945 1.356 . S
N943 H948 0.984 . S
N943 H949 0.985 . S
C944 C938 1.379 . S
C944 C941 1.363 . S
C944 N942 1.356 . S
C945 C939 1.363 . S
C945 C940 1.379 . S
C945 N943 1.356 . S
N946 C938 1.356 . S
N946 H952 0.984 . S
N946 H953 0.984 . S
N947 C940 1.356 . S
N947 H950 0.984 . S
N947 H951 0.985 . S
H948 N943 0.984 . S
H949 N943 0.985 . S
H950 N947 0.984 . S
H951 N947 0.985 . S
H952 N946 0.984 . S
H953 N946 0.984 . S
H954 N942 0.984 . S
H955 N942 0.985 . S
C956 C957 1.363 . S
C956 C962 1.379 . S
C956 N964 1.356 . S
C957 C956 1.363 . S
C957 C963 1.363 . S
C958 C959 1.363 . S
C958 C963 1.379 . S
C958 N965 1.356 . S
C959 C958 1.363 . S
C959 C962 1.363 . S
N960 C962 1.356 . S
N960 H972 0.984 . S
N960 H973 0.985 . S
N961 C963 1.356 . S
N961 H966 0.984 . S
N961 H967 0.985 . S
C962 C956 1.379 . S
C962 C959 1.363 . S
C962 N960 1.356 . S
C963 C957 1.363 . S
C963 C958 1.379 . S
C963 N961 1.356 . S
N964 C956 1.356 . S
N964 H970 0.984 . S
N964 H971 0.984 . S
N965 C958 1.356 . S
N965 H968 0.984 . S
N965 H969 0.985 . S
H966 N961 0.984 . S
H967 N961 0.985 . S
H968 N965 0.984 . S
H969 N965 0.985 . S
H970 N964 0.984 . S
H971 N964 0.984 . S
H972 N960 0.984 . S
H973 N960 0.985 . S
C974 C975 1.363 . S
C974 C980 1.379 . S
C974 N982 1.356 . S
C975 C974 1.363 . S
C975 C981 1.363 . S
C976 C977 1.363 . S
C976 C981 1.379 . S
C976 N983 1.356 1_455 S
C977 C976 1.363 . S
C977 C980 1.363 . S
N978 C980 1.356 . S
N978 H990 0.984 . S
N978 H991 0.985 . S
N979 C981 1.356 . S
N979 H984 0.984 . S
N979 H985 0.985 . S
C980 C974 1.379 . S
C980 C977 1.363 . S
C980 N978 1.356 . S
C981 C975 1.363 . S
C981 C976 1.379 . S
C981 N979 1.356 . S
N982 C974 1.356 . S
N982 H988 0.984 . S
N982 H989 0.984 . S
N983 C976 1.356 1_655 S
N983 H986 0.984 . S
N983 H987 0.985 . S
H984 N979 0.984 . S
H985 N979 0.985 . S
H986 N983 0.984 . S
H987 N983 0.985 . S
H988 N982 0.984 . S
H989 N982 0.984 . S
H990 N978 0.984 . S
H991 N978 0.985 . S
C992 C993 1.363 . S
C992 C998 1.379 . S
C992 N1000 1.356 . S
C993 C992 1.363 . S
C993 C999 1.363 . S
C994 C995 1.363 . S
C994 C999 1.379 . S
C994 N1001 1.356 . S
C995 C994 1.363 . S
C995 C998 1.363 . S
N996 C998 1.356 . S
N996 H1008 0.984 . S
N996 H1009 0.985 . S
N997 C999 1.356 . S
N997 H1002 0.984 . S
N997 H1003 0.985 1_556 S
C998 C992 1.379 . S
C998 C995 1.363 . S
C998 N996 1.356 . S
C999 C993 1.363 . S
C999 C994 1.379 . S
C999 N997 1.356 . S
N1000 C992 1.356 . S
N1000 H1006 0.984 . S
N1000 H1007 0.984 . S
N1001 C994 1.356 . S
N1001 H1004 0.984 . S
N1001 H1005 0.985 . S
H1002 N997 0.984 . S
H1003 N997 0.985 1_554 S
H1004 N1001 0.984 . S
H1005 N1001 0.985 . S
H1006 N1000 0.984 . S
H1007 N1000 0.984 . S
H1008 N996 0.984 . S
H1009 N996 0.985 . S
C1010 C1011 1.363 . S
C1010 C1016 1.379 . S
C1010 N1018 1.356 . S
C1011 C1010 1.363 . S
C1011 C1017 1.363 . S
C1012 C1013 1.363 . S
C1012 C1017 1.379 . S
C1012 N1019 1.356 . S
C1013 C1012 1.363 . S
C1013 C1016 1.363 . S
N1014 C1016 1.356 . S
N1014 H1026 0.984 . S
N1014 H1027 0.985 . S
N1015 C1017 1.356 . S
N1015 H1020 0.984 . S
N1015 H1021 0.985 . S
C1016 C1010 1.379 . S
C1016 C1013 1.363 . S
C1016 N1014 1.356 . S
C1017 C1011 1.363 . S
C1017 C1012 1.379 . S
C1017 N1015 1.356 . S
N1018 C1010 1.356 . S
N1018 H1024 0.984 . S
N1018 H1025 0.984 . S
N1019 C1012 1.356 . S
N1019 H1022 0.984 . S
N1019 H1023 0.985 . S
H1020 N1015 0.984 . S
H1021 N1015 0.985 . S
H1022 N1019 0.984 . S
H1023 N1019 0.985 . S
H1024 N1018 0.984 . S
H1025 N1018 0.984 . S
H1026 N1014 0.984 . S
H1027 N1014 0.985 . S
C1028 C1029 1.363 . S
C1028 C1034 1.379 . S
C1028 N1036 1.356 . S
C1029 C1028 1.363 . S
C1029 C1035 1.363 . S
C1030 C1031 1.363 . S
C1030 C1035 1.379 . S
C1030 N1037 1.356 . S
C1031 C1030 1.363 . S
C1031 C1034 1.363 . S
N1032 C1034 1.356 . S
N1032 H1044 0.984 . S
N1032 H1045 0.985 . S
N1033 C1035 1.356 . S
N1033 H1038 0.984 . S
N1033 H1039 0.985 . S
C1034 C1028 1.379 . S
C1034 C1031 1.363 . S
C1034 N1032 1.356 . S
C1035 C1029 1.363 . S
C1035 C1030 1.379 . S
C1035 N1033 1.356 . S
N1036 C1028 1.356 . S
N1036 H1042 0.984 . S
N1036 H1043 0.984 . S
N1037 C1030 1.356 . S
N1037 H1040 0.984 . S
N1037 H1041 0.985 . S
H1038 N1033 0.984 . S
H1039 N1033 0.985 . S
H1040 N1037 0.984 . S
H1041 N1037 0.985 . S
H1042 N1036 0.984 . S
H1043 N1036 0.984 . S
H1044 N1032 0.984 . S
H1045 N1032 0.985 . S
C1046 C1047 1.363 . S
C1046 C1052 1.379 . S
C1046 N1054 1.356 . S
C1047 C1046 1.363 . S
C1047 C1053 1.363 . S
C1048 C1049 1.363 . S
C1048 C1053 1.379 . S
C1048 N1055 1.351 1_455 S
C1049 C1048 1.363 . S
C1049 C1052 1.363 . S
N1050 C1052 1.356 . S
N1050 H1062 0.984 . S
N1050 H1063 0.985 . S
N1051 C1053 1.356 . S
N1051 H1056 0.984 . S
N1051 H1057 0.985 . S
C1052 C1046 1.379 . S
C1052 C1049 1.363 . S
C1052 N1050 1.356 . S
C1053 C1047 1.363 . S
C1053 C1048 1.379 . S
C1053 N1051 1.356 . S
N1054 C1046 1.356 . S
N1054 H1060 0.984 . S
N1054 H1061 0.984 . S
N1055 C1048 1.351 1_655 S
N1055 H1058 0.989 . S
N1055 H1059 0.986 . S
H1056 N1051 0.984 . S
H1057 N1051 0.985 . S
H1058 N1055 0.989 . S
H1059 N1055 0.986 . S
H1060 N1054 0.984 . S
H1061 N1054 0.984 . S
H1062 N1050 0.984 . S
H1063 N1050 0.985 . S
C1064 C1065 1.363 . S
C1064 C1070 1.379 . S
C1064 N1072 1.356 . S
C1065 C1064 1.363 . S
C1065 C1071 1.363 . S
C1066 C1067 1.363 . S
C1066 C1071 1.379 . S
C1066 N1073 1.356 . S
C1067 C1066 1.363 . S
C1067 C1070 1.363 . S
N1068 C1070 1.356 . S
N1068 H1080 0.984 . S
N1068 H1081 0.985 . S
N1069 C1071 1.356 . S
N1069 H1074 0.984 . S
N1069 H1075 0.985 . S
C1070 C1064 1.379 . S
C1070 C1067 1.363 . S
C1070 N1068 1.356 . S
C1071 C1065 1.363 . S
C1071 C1066 1.379 . S
C1071 N1069 1.356 . S
N1072 C1064 1.356 . S
N1072 H1078 0.984 . S
N1072 H1079 0.984 . S
N1073 C1066 1.356 . S
N1073 H1076 0.984 . S
N1073 H1077 0.985 . S
H1074 N1069 0.984 . S
H1075 N1069 0.985 . S
H1076 N1073 0.984 . S
H1077 N1073 0.985 . S
H1078 N1072 0.984 . S
H1079 N1072 0.984 . S
H1080 N1068 0.984 . S
H1081 N1068 0.985 . S
C1082 C1083 1.363 . S
C1082 C1088 1.379 . S
C1082 N1090 1.356 . S
C1083 C1082 1.363 . S
C1083 C1089 1.363 . S
C1084 C1085 1.363 . S
C1084 C1089 1.379 . S
C1084 N1091 1.356 . S
C1085 C1084 1.363 . S
C1085 C1088 1.363 . S
N1086 C1088 1.356 . S
N1086 H1098 0.984 . S
N1086 H1099 0.985 . S
N1087 C1089 1.356 . S
N1087 H1092 0.984 1_455 S
N1087 H1093 0.985 1_455 S
C1088 C1082 1.379 . S
C1088 C1085 1.363 . S
C1088 N1086 1.356 . S
C1089 C1083 1.363 . S
C1089 C1084 1.379 . S
C1089 N1087 1.356 . S
N1090 C1082 1.356 . S
N1090 H1096 0.984 . S
N1090 H1097 0.984 . S
N1091 C1084 1.356 . S
N1091 H1094 0.984 . S
N1091 H1095 0.985 . S
H1092 N1087 0.984 1_655 S
H1093 N1087 0.985 1_655 S
H1094 N1091 0.984 . S
H1095 N1091 0.985 . S
H1096 N1090 0.984 . S
H1097 N1090 0.984 . S
H1098 N1086 0.984 . S
H1099 N1086 0.985 . S
C1100 C1101 1.363 . S
C1100 C1106 1.379 . S
C1100 N1108 1.356 . S
C1101 C1100 1.363 . S
C1101 C1107 1.363 . S
C1102 C1103 1.363 . S
C1102 C1107 1.379 . S
C1102 N1109 1.356 . S
C1103 C1102 1.363 . S
C1103 C1106 1.363 . S
N1104 C1106 1.356 . S
N1104 H1116 0.984 . S
N1104 H1117 0.985 . S
N1105 C1107 1.356 . S
N1105 H1110 0.984 . S
N1105 H1111 0.971 1_554 S
C1106 C1100 1.379 . S
C1106 C1103 1.363 . S
C1106 N1104 1.356 . S
C1107 C1101 1.363 . S
C1107 C1102 1.379 . S
C1107 N1105 1.356 . S
N1108 C1100 1.356 . S
N1108 H1114 0.984 . S
N1108 H1115 0.984 . S
N1109 C1102 1.356 . S
N1109 H1112 0.984 . S
N1109 H1113 0.985 . S
H1110 N1105 0.984 . S
H1111 N1105 0.971 1_556 S
H1112 N1109 0.984 . S
H1113 N1109 0.985 . S
H1114 N1108 0.984 . S
H1115 N1108 0.984 . S
H1116 N1104 0.984 . S
H1117 N1104 0.985 . S
C1118 C1119 1.363 . S
C1118 C1124 1.379 . S
C1118 N1126 1.356 . S
C1119 C1118 1.363 . S
C1119 C1125 1.363 . S
C1120 C1121 1.363 . S
C1120 C1125 1.379 . S
C1120 N1127 1.356 . S
C1121 C1120 1.363 . S
C1121 C1124 1.363 . S
N1122 C1124 1.356 . S
N1122 H1134 0.984 . S
N1122 H1135 0.985 . S
N1123 C1125 1.356 . S
N1123 H1128 0.984 . S
N1123 H1129 0.985 . S
C1124 C1118 1.379 . S
C1124 C1121 1.363 . S
C1124 N1122 1.356 . S
C1125 C1119 1.363 . S
C1125 C1120 1.379 . S
C1125 N1123 1.356 . S
N1126 C1118 1.356 . S
N1126 H1132 0.984 . S
N1126 H1133 0.984 . S
N1127 C1120 1.356 . S
N1127 H1130 0.984 . S
N1127 H1131 0.985 . S
H1128 N1123 0.984 . S
H1129 N1123 0.985 . S
H1130 N1127 0.984 . S
H1131 N1127 0.985 . S
H1132 N1126 0.984 . S
H1133 N1126 0.984 . S
H1134 N1122 0.984 . S
H1135 N1122 0.985 . S
C1136 C1137 1.363 . S
C1136 C1142 1.379 . S
C1136 N1144 1.356 . S
C1137 C1136 1.363 . S
C1137 C1143 1.363 . S
C1138 C1139 1.363 . S
C1138 C1143 1.379 . S
C1138 N1145 1.356 . S
C1139 C1138 1.363 . S
C1139 C1142 1.363 . S
N1140 C1142 1.356 . S
N1140 H1152 0.984 . S
N1140 H1153 0.985 . S
N1141 C1143 1.356 . S
N1141 H1146 0.984 . S
N1141 H1147 0.985 . S
C1142 C1136 1.379 . S
C1142 C1139 1.363 . S
C1142 N1140 1.356 . S
C1143 C1137 1.363 . S
C1143 C1138 1.379 . S
C1143 N1141 1.356 . S
N1144 C1136 1.356 . S
N1144 H1150 0.984 . S
N1144 H1151 0.984 . S
N1145 C1138 1.356 . S
N1145 H1148 0.984 . S
N1145 H1149 0.985 1_554 S
H1146 N1141 0.984 . S
H1147 N1141 0.985 . S
H1148 N1145 0.984 . S
H1149 N1145 0.985 1_556 S
H1150 N1144 0.984 . S
H1151 N1144 0.984 . S
H1152 N1140 0.984 . S
H1153 N1140 0.985 . S
C1154 C1155 1.363 . S
C1154 C1160 1.379 . S
C1154 N1162 1.356 . S
C1155 C1154 1.363 . S
C1155 C1161 1.363 . S
C1156 C1157 1.363 . S
C1156 C1161 1.379 . S
C1156 N1163 1.356 . S
C1157 C1156 1.363 . S
C1157 C1160 1.363 . S
N1158 C1160 1.356 . S
N1158 H1170 0.984 . S
N1158 H1171 0.985 . S
N1159 C1161 1.356 . S
N1159 H1164 0.984 . S
N1159 H1165 0.985 . S
C1160 C1154 1.379 . S
C1160 C1157 1.363 . S
C1160 N1158 1.356 . S
C1161 C1155 1.363 . S
C1161 C1156 1.379 . S
C1161 N1159 1.356 . S
N1162 C1154 1.356 . S
N1162 H1168 0.984 . S
N1162 H1169 0.984 . S
N1163 C1156 1.356 . S
N1163 H1166 0.984 . S
N1163 H1167 0.985 . S
H1164 N1159 0.984 . S
H1165 N1159 0.985 . S
H1166 N1163 0.984 . S
H1167 N1163 0.985 . S
H1168 N1162 0.984 . S
H1169 N1162 0.984 . S
H1170 N1158 0.984 . S
H1171 N1158 0.985 . S
C1172 C1173 1.363 . S
C1172 C1178 1.379 . S
C1172 N1180 1.356 . S
C1173 C1172 1.363 . S
C1173 C1179 1.363 . S
C1174 C1175 1.363 . S
C1174 C1179 1.379 . S
C1174 N1181 1.356 . S
C1175 C1174 1.363 . S
C1175 C1178 1.363 . S
N1176 C1178 1.356 . S
N1176 H1188 0.984 . S
N1176 H1189 0.985 . S
N1177 C1179 1.356 . S
N1177 H1182 0.984 . S
N1177 H1183 0.985 . S
C1178 C1172 1.379 . S
C1178 C1175 1.363 . S
C1178 N1176 1.356 . S
C1179 C1173 1.363 . S
C1179 C1174 1.379 . S
C1179 N1177 1.356 . S
N1180 C1172 1.356 . S
N1180 H1186 0.984 . S
N1180 H1187 0.984 . S
N1181 C1174 1.356 . S
N1181 H1184 0.984 . S
N1181 H1185 0.985 . S
H1182 N1177 0.984 . S
H1183 N1177 0.985 . S
H1184 N1181 0.984 . S
H1185 N1181 0.985 . S
H1186 N1180 0.984 . S
H1187 N1180 0.984 . S
H1188 N1176 0.984 . S
H1189 N1176 0.985 . S
C1190 C1191 1.363 . S
C1190 C1196 1.379 . S
C1190 N1198 1.356 . S
C1191 C1190 1.363 . S
C1191 C1197 1.363 . S
C1192 C1193 1.363 . S
C1192 C1197 1.379 . S
C1192 N1199 1.356 . S
C1193 C1192 1.363 . S
C1193 C1196 1.363 . S
N1194 C1196 1.356 . S
N1194 H1206 0.984 . S
N1194 H1207 0.985 . S
N1195 C1197 1.356 . S
N1195 H1200 0.984 . S
N1195 H1201 0.985 . S
C1196 C1190 1.379 . S
C1196 C1193 1.363 . S
C1196 N1194 1.356 . S
C1197 C1191 1.363 . S
C1197 C1192 1.379 . S
C1197 N1195 1.356 . S
N1198 C1190 1.356 . S
N1198 H1204 0.984 . S
N1198 H1205 0.984 . S
N1199 C1192 1.356 . S
N1199 H1202 0.984 1_655 S
N1199 H1203 0.985 1_655 S
H1200 N1195 0.984 . S
H1201 N1195 0.985 . S
H1202 N1199 0.984 1_455 S
H1203 N1199 0.985 1_455 S
H1204 N1198 0.984 . S
H1205 N1198 0.984 . S
H1206 N1194 0.984 . S
H1207 N1194 0.985 . S
C1208 C1209 1.363 . S
C1208 C1214 1.379 . S
C1208 N1216 1.356 . S
C1209 C1208 1.363 . S
C1209 C1215 1.363 . S
C1210 C1211 1.363 . S
C1210 C1215 1.379 . S
C1210 N1217 1.356 . S
C1211 C1210 1.363 . S
C1211 C1214 1.363 . S
N1212 C1214 1.356 . S
N1212 H1224 0.984 . S
N1212 H1225 0.985 . S
N1213 C1215 1.356 . S
N1213 H1218 0.984 . S
N1213 H1219 0.985 . S
C1214 C1208 1.379 . S
C1214 C1211 1.363 . S
C1214 N1212 1.356 . S
C1215 C1209 1.363 . S
C1215 C1210 1.379 . S
C1215 N1213 1.356 . S
N1216 C1208 1.356 . S
N1216 H1222 0.984 . S
N1216 H1223 0.984 . S
N1217 C1210 1.356 . S
N1217 H1220 0.984 . S
N1217 H1221 0.985 . S
H1218 N1213 0.984 . S
H1219 N1213 0.985 . S
H1220 N1217 0.984 . S
H1221 N1217 0.985 . S
H1222 N1216 0.984 . S
H1223 N1216 0.984 . S
H1224 N1212 0.984 . S
H1225 N1212 0.985 . S
C1226 C1227 1.363 . S
C1226 C1232 1.379 . S
C1226 N1234 1.356 . S
C1227 C1226 1.363 . S
C1227 C1233 1.363 . S
C1228 C1229 1.363 . S
C1228 C1233 1.379 . S
C1228 N1235 1.356 . S
C1229 C1228 1.363 . S
C1229 C1232 1.363 . S
N1230 C1232 1.356 . S
N1230 H1242 0.984 . S
N1230 H1243 0.985 . S
N1231 C1233 1.356 1_455 S
N1231 H1236 0.984 . S
N1231 H1237 0.985 . S
C1232 C1226 1.379 . S
C1232 C1229 1.363 . S
C1232 N1230 1.356 . S
C1233 C1227 1.363 . S
C1233 C1228 1.379 . S
C1233 N1231 1.356 1_655 S
N1234 C1226 1.356 . S
N1234 H1240 0.984 . S
N1234 H1241 0.984 . S
N1235 C1228 1.356 . S
N1235 H1238 0.984 . S
N1235 H1239 0.985 . S
H1236 N1231 0.984 . S
H1237 N1231 0.985 . S
H1238 N1235 0.984 . S
H1239 N1235 0.985 . S
H1240 N1234 0.984 . S
H1241 N1234 0.984 . S
H1242 N1230 0.984 . S
H1243 N1230 0.985 . S
C1244 C1245 1.363 . S
C1244 C1250 1.379 . S
C1244 N1252 1.356 . S
C1245 C1244 1.363 . S
C1245 C1251 1.363 . S
C1246 C1247 1.363 . S
C1246 C1251 1.379 . S
C1246 N1253 1.356 . S
C1247 C1246 1.363 . S
C1247 C1250 1.363 . S
N1248 C1250 1.356 . S
N1248 H1260 0.984 . S
N1248 H1261 0.985 . S
N1249 C1251 1.356 . S
N1249 H1254 0.984 . S
N1249 H1255 0.985 . S
C1250 C1244 1.379 . S
C1250 C1247 1.363 . S
C1250 N1248 1.356 . S
C1251 C1245 1.363 . S
C1251 C1246 1.379 . S
C1251 N1249 1.356 . S
N1252 C1244 1.356 . S
N1252 H1258 0.984 . S
N1252 H1259 0.984 . S
N1253 C1246 1.356 . S
N1253 H1256 0.984 . S
N1253 H1257 0.985 . S
H1254 N1249 0.984 . S
H1255 N1249 0.985 . S
H1256 N1253 0.984 . S
H1257 N1253 0.985 . S
H1258 N1252 0.984 . S
H1259 N1252 0.984 . S
H1260 N1248 0.984 . S
H1261 N1248 0.985 . S
C1262 C1263 1.363 . S
C1262 C1268 1.379 . S
C1262 N1270 1.356 . S
C1263 C1262 1.363 . S
C1263 C1269 1.363 . S
C1264 C1265 1.363 . S
C1264 C1269 1.379 . S
C1264 N1271 1.356 . S
C1265 C1264 1.363 . S
C1265 C1268 1.363 . S
N1266 C1268 1.356 . S
N1266 H1278 0.984 . S
N1266 H1279 0.985 . S
N1267 C1269 1.356 . S
N1267 H1272 0.984 . S
N1267 H1273 0.985 . S
C1268 C1262 1.379 . S
C1268 C1265 1.363 . S
C1268 N1266 1.356 . S
C1269 C1263 1.363 . S
C1269 C1264 1.379 . S
C1269 N1267 1.356 . S
N1270 C1262 1.356 . S
N1270 H1276 0.984 . S
N1270 H1277 0.984 . S
N1271 C1264 1.356 . S
N1271 H1274 0.984 . S
N1271 H1275 0.985 . S
H1272 N1267 0.984 . S
H1273 N1267 0.985 . S
H1274 N1271 0.984 . S
H1275 N1271 0.985 . S
H1276 N1270 0.984 . S
H1277 N1270 0.984 . S
H1278 N1266 0.984 . S
H1279 N1266 0.985 . S
C1280 C1281 1.363 . S
C1280 C1286 1.379 . S
C1280 N1288 1.356 . S
C1281 C1280 1.363 . S
C1281 C1287 1.363 . S
C1282 C1283 1.363 . S
C1282 C1287 1.379 . S
C1282 N1289 1.356 . S
C1283 C1282 1.363 . S
C1283 C1286 1.363 . S
N1284 C1286 1.356 . S
N1284 H1296 0.984 . S
N1284 H1297 0.985 . S
N1285 C1287 1.356 . S
N1285 H1290 0.984 . S
N1285 H1291 0.985 . S
C1286 C1280 1.379 . S
C1286 C1283 1.363 . S
C1286 N1284 1.356 . S
C1287 C1281 1.363 . S
C1287 C1282 1.379 . S
C1287 N1285 1.356 . S
N1288 C1280 1.356 . S
N1288 H1294 0.984 . S
N1288 H1295 0.984 . S
N1289 C1282 1.356 . S
N1289 H1292 0.984 . S
N1289 H1293 0.985 . S
H1290 N1285 0.984 . S
H1291 N1285 0.985 . S
H1292 N1289 0.984 . S
H1293 N1289 0.985 . S
H1294 N1288 0.984 . S
H1295 N1288 0.984 . S
H1296 N1284 0.984 . S
H1297 N1284 0.985 . S
C1298 C1299 1.363 . S
C1298 C1304 1.379 . S
C1298 N1306 1.356 . S
C1299 C1298 1.363 . S
C1299 C1305 1.363 . S
C1300 C1301 1.363 . S
C1300 C1305 1.379 . S
C1300 N1307 1.356 . S
C1301 C1300 1.363 . S
C1301 C1304 1.363 . S
N1302 C1304 1.356 . S
N1302 H1314 0.984 . S
N1302 H1315 0.985 . S
N1303 C1305 1.356 . S
N1303 H1308 0.984 . S
N1303 H1309 0.985 . S
C1304 C1298 1.379 . S
C1304 C1301 1.363 . S
C1304 N1302 1.356 . S
C1305 C1299 1.363 . S
C1305 C1300 1.379 . S
C1305 N1303 1.356 . S
N1306 C1298 1.356 . S
N1306 H1312 0.984 . S
N1306 H1313 0.984 . S
N1307 C1300 1.356 . S
N1307 H1310 0.984 . S
N1307 H1311 0.985 . S
H1308 N1303 0.984 . S
H1309 N1303 0.985 . S
H1310 N1307 0.984 . S
H1311 N1307 0.985 . S
H1312 N1306 0.984 . S
H1313 N1306 0.984 . S
H1314 N1302 0.984 . S
H1315 N1302 0.985 . S
C1316 C1317 1.363 . S
C1316 C1322 1.379 . S
C1316 N1324 1.356 . S
C1317 C1316 1.363 . S
C1317 C1323 1.363 . S
C1318 C1319 1.363 . S
C1318 C1323 1.379 . S
C1318 N1325 1.356 . S
C1319 C1318 1.363 . S
C1319 C1322 1.363 . S
N1320 C1322 1.356 . S
N1320 H1332 0.984 . S
N1320 H1333 0.985 . S
N1321 C1323 1.356 . S
N1321 H1326 0.984 . S
N1321 H1327 0.985 . S
C1322 C1316 1.379 . S
C1322 C1319 1.363 . S
C1322 N1320 1.356 . S
C1323 C1317 1.363 . S
C1323 C1318 1.379 . S
C1323 N1321 1.356 . S
N1324 C1316 1.356 . S
N1324 H1330 0.984 . S
N1324 H1331 0.984 . S
N1325 C1318 1.356 . S
N1325 H1328 0.984 . S
N1325 H1329 0.985 . S
H1326 N1321 0.984 . S
H1327 N1321 0.985 . S
H1328 N1325 0.984 . S
H1329 N1325 0.985 . S
H1330 N1324 0.984 . S
H1331 N1324 0.984 . S
H1332 N1320 0.984 . S
H1333 N1320 0.985 . S
C1334 C1335 1.363 . S
C1334 C1340 1.379 . S
C1334 N1342 1.356 . S
C1335 C1334 1.363 . S
C1335 C1341 1.363 1_556 S
C1336 C1337 1.363 . S
C1336 C1341 1.379 . S
C1336 N1343 1.356 . S
C1337 C1336 1.363 . S
C1337 C1340 1.363 1_554 S
N1338 C1340 1.356 . S
N1338 H1350 0.984 . S
N1338 H1351 0.985 1_556 S
N1339 C1341 1.356 . S
N1339 H1344 0.984 1_554 S
N1339 H1345 0.985 . S
C1340 C1334 1.379 . S
C1340 C1337 1.363 1_556 S
C1340 N1338 1.356 . S
C1341 C1335 1.363 1_554 S
C1341 C1336 1.379 . S
C1341 N1339 1.356 . S
N1342 C1334 1.356 . S
N1342 H1348 0.984 . S
N1342 H1349 0.984 . S
N1343 C1336 1.356 . S
N1343 H1346 0.984 . S
N1343 H1347 0.985 . S
H1344 N1339 0.984 1_556 S
H1345 N1339 0.985 . S
H1346 N1343 0.984 . S
H1347 N1343 0.985 . S
H1348 N1342 0.984 . S
H1349 N1342 0.984 . S
H1350 N1338 0.984 . S
H1351 N1338 0.985 1_554 S
C1352 C1353 1.363 . S
C1352 C1358 1.379 . S
C1352 N1360 1.356 . S
C1353 C1352 1.363 . S
C1353 C1359 1.363 . S
C1354 C1355 1.363 . S
C1354 C1359 1.379 . S
C1354 N1361 1.356 . S
C1355 C1354 1.363 . S
C1355 C1358 1.363 . S
N1356 C1358 1.356 . S
N1356 H1368 0.984 . S
N1356 H1369 0.985 . S
N1357 C1359 1.356 . S
N1357 H1362 0.984 . S
N1357 H1363 1.019 . S
C1358 C1352 1.379 . S
C1358 C1355 1.363 . S
C1358 N1356 1.356 . S
C1359 C1353 1.363 . S
C1359 C1354 1.379 . S
C1359 N1357 1.356 . S
N1360 C1352 1.356 . S
N1360 H1366 0.984 . S
N1360 H1367 0.984 . S
N1361 C1354 1.356 . S
N1361 H1364 0.984 . S
N1361 H1365 1.019 . S
H1362 N1357 0.984 . S
H1363 N1357 1.019 . S
H1364 N1361 0.984 . S
H1365 N1361 1.019 . S
H1366 N1360 0.984 . S
H1367 N1360 0.984 . S
H1368 N1356 0.984 . S
H1369 N1356 0.985 . S
C1370 C1371 1.363 . S
C1370 C1376 1.379 . S
C1370 N1378 1.356 . S
C1371 C1370 1.363 . S
C1371 C1377 1.363 . S
C1372 C1373 1.363 . S
C1372 C1377 1.379 . S
C1372 N1379 1.356 . S
C1373 C1372 1.363 . S
C1373 C1376 1.363 . S
N1374 C1376 1.356 . S
N1374 H1386 0.984 . S
N1374 H1387 0.985 . S
N1375 C1377 1.356 . S
N1375 H1380 0.984 . S
N1375 H1381 0.985 . S
C1376 C1370 1.379 . S
C1376 C1373 1.363 . S
C1376 N1374 1.356 . S
C1377 C1371 1.363 . S
C1377 C1372 1.379 . S
C1377 N1375 1.356 . S
N1378 C1370 1.356 . S
N1378 H1384 0.984 . S
N1378 H1385 0.984 . S
N1379 C1372 1.356 . S
N1379 H1382 0.984 . S
N1379 H1383 0.985 . S
H1380 N1375 0.984 . S
H1381 N1375 0.985 . S
H1382 N1379 0.984 . S
H1383 N1379 0.985 . S
H1384 N1378 0.984 . S
H1385 N1378 0.984 . S
H1386 N1374 0.984 . S
H1387 N1374 0.985 . S
C1388 C1389 1.363 . S
C1388 C1394 1.379 . S
C1388 N1396 1.356 . S
C1389 C1388 1.363 . S
C1389 C1395 1.363 . S
C1390 C1391 1.363 . S
C1390 C1395 1.379 . S
C1390 N1397 1.356 . S
C1391 C1390 1.363 . S
C1391 C1394 1.363 . S
N1392 C1394 1.356 . S
N1392 H1404 0.984 . S
N1392 H1405 0.985 . S
N1393 C1395 1.356 . S
N1393 H1398 0.984 . S
N1393 H1399 0.985 . S
C1394 C1388 1.379 . S
C1394 C1391 1.363 . S
C1394 N1392 1.356 . S
C1395 C1389 1.363 . S
C1395 C1390 1.379 . S
C1395 N1393 1.356 . S
N1396 C1388 1.356 . S
N1396 H1402 0.984 . S
N1396 H1403 0.984 . S
N1397 C1390 1.356 . S
N1397 H1400 0.984 . S
N1397 H1401 0.985 . S
H1398 N1393 0.984 . S
H1399 N1393 0.985 . S
H1400 N1397 0.984 . S
H1401 N1397 0.985 . S
H1402 N1396 0.984 . S
H1403 N1396 0.984 . S
H1404 N1392 0.984 . S
H1405 N1392 0.985 . S
C1406 C1407 1.363 1_556 S
C1406 C1412 1.379 . S
C1406 N1414 1.356 . S
C1407 C1406 1.363 1_554 S
C1407 C1413 1.363 . S
C1408 C1409 1.363 1_554 S
C1408 C1413 1.379 . S
C1408 N1415 1.356 . S
C1409 C1408 1.363 1_556 S
C1409 C1412 1.363 . S
N1410 C1412 1.356 . S
N1410 H1422 0.984 . S
N1410 H1423 0.985 . S
N1411 C1413 1.356 . S
N1411 H1416 0.984 . S
N1411 H1417 0.985 . S
C1412 C1406 1.379 . S
C1412 C1409 1.363 . S
C1412 N1410 1.356 . S
C1413 C1407 1.363 . S
C1413 C1408 1.379 . S
C1413 N1411 1.356 . S
N1414 C1406 1.356 . S
N1414 H1420 0.984 . S
N1414 H1421 0.984 1_556 S
N1415 C1408 1.356 . S
N1415 H1418 0.984 1_554 S
N1415 H1419 0.985 . S
H1416 N1411 0.984 . S
H1417 N1411 0.985 . S
H1418 N1415 0.984 1_556 S
H1419 N1415 0.985 . S
H1420 N1414 0.984 . S
H1421 N1414 0.984 1_554 S
H1422 N1410 0.984 . S
H1423 N1410 0.985 . S
C1424 C1425 1.363 . S
C1424 C1430 1.379 1_565 S
C1424 N1432 1.356 . S
C1425 C1424 1.363 . S
C1425 C1431 1.363 . S
C1426 C1427 1.363 . S
C1426 C1431 1.379 1_545 S
C1426 N1433 1.356 . S
C1427 C1426 1.363 . S
C1427 C1430 1.363 . S
N1428 C1430 1.356 . S
N1428 H1440 0.984 . S
N1428 H1441 0.985 . S
N1429 C1431 1.356 . S
N1429 H1434 0.984 . S
N1429 H1435 0.985 . S
C1430 C1424 1.379 1_545 S
C1430 C1427 1.363 . S
C1430 N1428 1.356 . S
C1431 C1425 1.363 . S
C1431 C1426 1.379 1_565 S
C1431 N1429 1.356 . S
N1432 C1424 1.356 . S
N1432 H1438 0.984 . S
N1432 H1439 0.984 . S
N1433 C1426 1.356 . S
N1433 H1436 0.984 . S
N1433 H1437 0.985 . S
H1434 N1429 0.984 . S
H1435 N1429 0.985 . S
H1436 N1433 0.984 . S
H1437 N1433 0.985 . S
H1438 N1432 0.984 . S
H1439 N1432 0.984 . S
H1440 N1428 0.984 . S
H1441 N1428 0.985 . S
C1442 C1443 1.363 1_556 S
C1442 C1448 1.379 . S
C1442 N1450 1.356 . S
C1443 C1442 1.363 1_554 S
C1443 C1449 1.363 . S
C1444 C1445 1.363 1_554 S
C1444 C1449 1.379 . S
C1444 N1451 1.356 . S
C1445 C1444 1.363 1_556 S
C1445 C1448 1.363 . S
N1446 C1448 1.356 . S
N1446 H1458 0.984 . S
N1446 H1459 0.985 . S
N1447 C1449 1.356 . S
N1447 H1452 0.984 . S
N1447 H1453 0.985 . S
C1448 C1442 1.379 . S
C1448 C1445 1.363 . S
C1448 N1446 1.356 . S
C1449 C1443 1.363 . S
C1449 C1444 1.379 . S
C1449 N1447 1.356 . S
N1450 C1442 1.356 . S
N1450 H1456 0.984 . S
N1450 H1457 0.984 1_556 S
N1451 C1444 1.356 . S
N1451 H1454 0.984 1_554 S
N1451 H1455 0.985 . S
H1452 N1447 0.984 . S
H1453 N1447 0.985 . S
H1454 N1451 0.984 1_556 S
H1455 N1451 0.985 . S
H1456 N1450 0.984 . S
H1457 N1450 0.984 1_554 S
H1458 N1446 0.984 . S
H1459 N1446 0.985 . S
C1460 C1461 1.363 . S
C1460 C1466 1.379 1_545 S
C1460 N1468 1.356 . S
C1461 C1460 1.363 . S
C1461 C1467 1.363 . S
C1462 C1463 1.363 . S
C1462 C1467 1.379 1_565 S
C1462 N1469 1.356 . S
C1463 C1462 1.363 . S
C1463 C1466 1.363 . S
N1464 C1466 1.356 . S
N1464 H1476 0.984 . S
N1464 H1477 0.985 . S
N1465 C1467 1.356 . S
N1465 H1470 0.984 . S
N1465 H1471 0.985 . S
C1466 C1460 1.379 1_565 S
C1466 C1463 1.363 . S
C1466 N1464 1.356 . S
C1467 C1461 1.363 . S
C1467 C1462 1.379 1_545 S
C1467 N1465 1.356 . S
N1468 C1460 1.356 . S
N1468 H1474 0.984 . S
N1468 H1475 0.984 . S
N1469 C1462 1.356 . S
N1469 H1472 0.984 . S
N1469 H1473 0.985 . S
H1470 N1465 0.984 . S
H1471 N1465 0.985 . S
H1472 N1469 0.984 . S
H1473 N1469 0.985 . S
H1474 N1468 0.984 . S
H1475 N1468 0.984 . S
H1476 N1464 0.984 . S
H1477 N1464 0.985 . S
C1478 C1479 1.363 . S
C1478 C1484 1.379 . S
C1478 N1486 1.356 . S
C1479 C1478 1.363 . S
C1479 C1485 1.363 . S
C1480 C1481 1.363 . S
C1480 C1485 1.379 . S
C1480 N1487 1.356 . S
C1481 C1480 1.363 . S
C1481 C1484 1.363 . S
N1482 C1484 1.356 . S
N1482 H1494 0.984 . S
N1482 H1495 0.985 . S
N1483 C1485 1.356 . S
N1483 H1488 0.984 . S
N1483 H1489 0.985 . S
C1484 C1478 1.379 . S
C1484 C1481 1.363 . S
C1484 N1482 1.356 . S
C1485 C1479 1.363 . S
C1485 C1480 1.379 . S
C1485 N1483 1.356 . S
N1486 C1478 1.356 . S
N1486 H1492 0.984 . S
N1486 H1493 0.984 . S
N1487 C1480 1.356 . S
N1487 H1490 0.984 . S
N1487 H1491 0.985 . S
H1488 N1483 0.984 . S
H1489 N1483 0.985 . S
H1490 N1487 0.984 . S
H1491 N1487 0.985 . S
H1492 N1486 0.984 . S
H1493 N1486 0.984 . S
H1494 N1482 0.984 . S
H1495 N1482 0.985 . S
C1496 C1497 1.363 . S
C1496 C1502 1.379 1_545 S
C1496 N1504 1.356 . S
C1497 C1496 1.363 . S
C1497 C1503 1.363 . S
C1498 C1499 1.363 . S
C1498 C1503 1.379 1_565 S
C1498 N1505 1.356 . S
C1499 C1498 1.363 . S
C1499 C1502 1.363 . S
N1500 C1502 1.356 . S
N1500 H1512 0.984 . S
N1500 H1513 0.985 . S
N1501 C1503 1.356 . S
N1501 H1506 0.984 . S
N1501 H1507 0.985 . S
C1502 C1496 1.379 1_565 S
C1502 C1499 1.363 . S
C1502 N1500 1.356 . S
C1503 C1497 1.363 . S
C1503 C1498 1.379 1_545 S
C1503 N1501 1.356 . S
N1504 C1496 1.356 . S
N1504 H1510 0.984 . S
N1504 H1511 0.984 . S
N1505 C1498 1.356 . S
N1505 H1508 0.984 . S
N1505 H1509 0.985 . S
H1506 N1501 0.984 . S
H1507 N1501 0.985 . S
H1508 N1505 0.984 . S
H1509 N1505 0.985 . S
H1510 N1504 0.984 . S
H1511 N1504 0.984 . S
H1512 N1500 0.984 . S
H1513 N1500 0.985 . S
C1514 C1515 1.363 1_556 S
C1514 C1520 1.379 . S
C1514 N1522 1.356 . S
C1515 C1514 1.363 1_554 S
C1515 C1521 1.363 . S
C1516 C1517 1.363 1_554 S
C1516 C1521 1.379 . S
C1516 N1523 1.356 . S
C1517 C1516 1.363 1_556 S
C1517 C1520 1.363 . S
N1518 C1520 1.356 . S
N1518 H1530 0.984 . S
N1518 H1531 0.985 . S
N1519 C1521 1.356 . S
N1519 H1524 0.984 . S
N1519 H1525 0.985 . S
C1520 C1514 1.379 . S
C1520 C1517 1.363 . S
C1520 N1518 1.356 . S
C1521 C1515 1.363 . S
C1521 C1516 1.379 . S
C1521 N1519 1.356 . S
N1522 C1514 1.356 . S
N1522 H1528 0.984 . S
N1522 H1529 0.984 1_556 S
N1523 C1516 1.356 . S
N1523 H1526 0.984 1_554 S
N1523 H1527 0.985 . S
H1524 N1519 0.984 . S
H1525 N1519 0.985 . S
H1526 N1523 0.984 1_556 S
H1527 N1523 0.985 . S
H1528 N1522 0.984 . S
H1529 N1522 0.984 1_554 S
H1530 N1518 0.984 . S
H1531 N1518 0.985 . S
C1532 C1533 1.389 . S
C1532 C1538 1.353 1_545 S
C1532 N1540 1.366 . S
C1533 C1532 1.389 . S
C1533 C1539 1.363 . S
C1534 C1535 1.389 . S
C1534 C1539 1.353 1_565 S
C1534 N1541 1.366 . S
C1535 C1534 1.389 . S
C1535 C1538 1.363 . S
N1536 C1538 1.356 . S
N1536 H1548 0.984 . S
N1536 H1549 0.985 . S
N1537 C1539 1.356 . S
N1537 H1542 0.984 . S
N1537 H1543 0.985 . S
C1538 C1532 1.353 1_565 S
C1538 C1535 1.363 . S
C1538 N1536 1.356 . S
C1539 C1533 1.363 . S
C1539 C1534 1.353 1_545 S
C1539 N1537 1.356 . S
N1540 C1532 1.366 . S
N1540 H1546 0.984 1_545 S
N1540 H1547 0.984 . S
N1541 C1534 1.366 . S
N1541 H1544 0.984 . S
N1541 H1545 0.985 1_565 S
H1542 N1537 0.984 . S
H1543 N1537 0.985 . S
H1544 N1541 0.984 . S
H1545 N1541 0.985 1_545 S
H1546 N1540 0.984 1_565 S
H1547 N1540 0.984 . S
H1548 N1536 0.984 . S
H1549 N1536 0.985 . S
C1550 C1551 1.363 . S
C1550 C1556 1.379 . S
C1550 N1558 1.356 . S
C1551 C1550 1.363 . S
C1551 C1557 1.363 . S
C1552 C1553 1.363 . S
C1552 C1557 1.379 . S
C1552 N1559 1.356 . S
C1553 C1552 1.363 . S
C1553 C1556 1.363 . S
N1554 C1556 1.356 . S
N1554 H1566 0.984 . S
N1554 H1567 0.985 . S
N1555 C1557 1.356 . S
N1555 H1560 0.984 . S
N1555 H1561 0.985 . S
C1556 C1550 1.379 . S
C1556 C1553 1.363 . S
C1556 N1554 1.356 . S
C1557 C1551 1.363 . S
C1557 C1552 1.379 . S
C1557 N1555 1.356 . S
N1558 C1550 1.356 . S
N1558 H1564 0.984 . S
N1558 H1565 0.984 . S
N1559 C1552 1.356 . S
N1559 H1562 0.984 . S
N1559 H1563 0.985 . S
H1560 N1555 0.984 . S
H1561 N1555 0.985 . S
H1562 N1559 0.984 . S
H1563 N1559 0.985 . S
H1564 N1558 0.984 . S
H1565 N1558 0.984 . S
H1566 N1554 0.984 . S
H1567 N1554 0.985 . S
C417 C8 1.342 . S
C419 C281 1.342 . S
C435 C294 1.342 . S
C437 C21 1.342 . S
C453 C34 1.342 . S
C455 C307 1.342 . S
C471 C268 1.342 . S
C473 C47 1.342 . S
C489 C60 1.342 . S
C491 C255 1.342 . S
C507 C73 1.342 . S
C509 C216 1.342 . S
C525 C229 1.342 . S
C527 C86 1.342 . S
C543 C99 1.342 . S
C545 C242 1.342 . S
C561 C112 1.342 . S
C563 C385 1.342 . S
C579 C125 1.342 . S
C581 C398 1.342 . S
C597 C411 1.342 . S
C599 C138 1.342 . S
C615 C372 1.342 . S
C617 C151 1.342 . S
C633 C164 1.342 . S
C635 C359 1.342 . S
C651 C320 1.342 . S
C653 C177 1.342 . S
C669 C190 1.342 . S
C671 C333 1.342 . S
C687 C346 1.342 . S
C689 C203 1.342 . S
C705 C5 1.154 . S
C707 C127 1.277 . S
C723 C18 1.154 . S
C725 C348 1.277 1_655 S
C741 C153 1.277 . S
C743 C31 1.154 . S
C759 C44 1.154 . S
C761 C322 1.277 . S
C777 C57 1.154 . S
C779 C205 1.277 . S
C795 C374 1.277 . S
C797 C70 1.154 . S
C813 C179 1.277 . S
C815 C83 1.154 . S
C831 C400 1.277 1_655 S
C833 C96 1.154 . S
C849 C109 1.154 . S
C851 C23 1.277 . S
C867 C244 1.277 1_455 S
C869 C122 1.154 . S
C885 C49 1.277 . S
C887 C135 1.154 . S
C903 C148 1.154 . S
C905 C218 1.277 . S
C921 C101 1.277 . S
C923 C161 1.154 . S
C939 C270 1.277 . S
C941 C174 1.154 . S
C957 C75 1.277 . S
C959 C187 1.154 . S
C975 C200 1.154 . S
C977 C296 1.277 1_455 S
C993 C335 1.277 . S
C995 C213 1.154 . S
C1011 C140 1.277 . S
C1013 C226 1.154 . S
C1029 C361 1.277 . S
C1031 C239 1.154 . S
C1047 C252 1.154 . S
C1049 C114 1.277 1_455 S
C1065 C413 1.277 . S
C1067 C265 1.154 . S
C1083 C166 1.277 1_455 S
C1085 C278 1.154 . S
C1101 C387 1.277 . S
C1103 C291 1.154 . S
C1119 C304 1.154 . S
C1121 C192 1.277 . S
C1137 C317 1.154 . S
C1139 C231 1.277 . S
C1155 C36 1.277 . S
C1157 C330 1.154 . S
C1173 C343 1.154 . S
C1175 C257 1.277 . S
C1191 C356 1.154 . S
C1193 C10 1.277 1_655 S
C1209 C369 1.154 . S
C1211 C309 1.277 . S
C1227 C62 1.277 1_655 S
C1229 C382 1.154 . S
C1245 C283 1.277 . S
C1247 C395 1.154 . S
C1263 C408 1.154 . S
C1265 C88 1.277 . S
C1281 C0 1.363 . S
C1283 C52 1.363 . S
C1299 C13 1.363 . S
C1301 C65 1.363 . S
C1317 C78 1.362 . S
C1319 C26 1.362 . S
C1335 C91 1.363 . S
C1337 C39 1.363 . S
C1353 C156 1.363 . S
C1355 C104 1.363 . S
C1371 C169 1.363 . S
C1373 C117 1.363 . S
C1389 C182 1.362 . S
C1391 C130 1.362 . S
C1407 C195 1.363 . S
C1409 C143 1.363 . S
C1425 C208 1.362 . S
C1427 C260 1.362 . S
C1443 C221 1.362 . S
C1445 C273 1.362 . S
C1461 C234 1.362 . S
C1463 C286 1.362 . S
C1479 C299 1.363 . S
C1481 C247 1.363 . S
C1497 C312 1.362 . S
C1499 C364 1.362 . S
C1515 C377 1.362 . S
C1517 C325 1.362 . S
C1533 C390 1.362 . S
C1535 C338 1.362 . S
C1551 C403 1.363 . S
C1553 C351 1.363 . S
