# Generated by pormake.
# Topology xfu, (5)-cn, num edge types: 1
# Building blocks:
#     Node 0, Type 0, BuildingBlock: XOMCOT_clean_sbu_1, # of connection points: 5
#     Node 1, Type 0, BuildingBlock: XOMCOT_clean_sbu_1, # of connection points: 5
#     Node 2, Type 0, BuildingBlock: XOMCOT_clean_sbu_1, # of connection points: 5
#     Node 3, Type 0, BuildingBlock: XOMCOT_clean_sbu_1, # of connection points: 5
#     Node 4, Type 0, BuildingBlock: XOMCOT_clean_sbu_1, # of connection points: 5
#     Node 5, Type 0, BuildingBlock: XOMCOT_clean_sbu_1, # of connection points: 5
#     Node 6, Type 0, BuildingBlock: XOMCOT_clean_sbu_1, # of connection points: 5
#     Node 7, Type 0, BuildingBlock: XOMCOT_clean_sbu_1, # of connection points: 5
#     Edge 8, Type (0, 0), BuildingBlock: XUDNAN_clean_linker_2, # of connection points: 2
#     Edge 9, Type (0, 0), BuildingBlock: XUDNAN_clean_linker_2, # of connection points: 2
#     Edge 10, Type (0, 0), BuildingBlock: XUDNAN_clean_linker_2, # of connection points: 2
#     Edge 11, Type (0, 0), BuildingBlock: XUDNAN_clean_linker_2, # of connection points: 2
#     Edge 12, Type (0, 0), BuildingBlock: XUDNAN_clean_linker_2, # of connection points: 2
#     Edge 13, Type (0, 0), BuildingBlock: XUDNAN_clean_linker_2, # of connection points: 2
#     Edge 14, Type (0, 0), BuildingBlock: XUDNAN_clean_linker_2, # of connection points: 2
#     Edge 15, Type (0, 0), BuildingBlock: XUDNAN_clean_linker_2, # of connection points: 2
#     Edge 16, Type (0, 0), BuildingBlock: XUDNAN_clean_linker_2, # of connection points: 2
#     Edge 17, Type (0, 0), BuildingBlock: XUDNAN_clean_linker_2, # of connection points: 2
#     Edge 18, Type (0, 0), BuildingBlock: XUDNAN_clean_linker_2, # of connection points: 2
#     Edge 19, Type (0, 0), BuildingBlock: XUDNAN_clean_linker_2, # of connection points: 2
#     Edge 20, Type (0, 0), BuildingBlock: XUDNAN_clean_linker_2, # of connection points: 2
#     Edge 21, Type (0, 0), BuildingBlock: XUDNAN_clean_linker_2, # of connection points: 2
#     Edge 22, Type (0, 0), BuildingBlock: XUDNAN_clean_linker_2, # of connection points: 2
#     Edge 23, Type (0, 0), BuildingBlock: XUDNAN_clean_linker_2, # of connection points: 2
#     Edge 24, Type (0, 0), BuildingBlock: XUDNAN_clean_linker_2, # of connection points: 2
#     Edge 25, Type (0, 0), BuildingBlock: XUDNAN_clean_linker_2, # of connection points: 2
#     Edge 26, Type (0, 0), BuildingBlock: XUDNAN_clean_linker_2, # of connection points: 2
#     Edge 27, Type (0, 0), BuildingBlock: XUDNAN_clean_linker_2, # of connection points: 2
# Relax obj value: 0.497
# Max RMSD: 0.275
# Mean RMSD: 0.275
data_MOF--net-xfu--node1-XOMCOT_clean_sbu_1--edge1-XUDNAN_clean_linker_2
_symmetry_space_group_name_H-M    P1
_symmetry_Int_Tables_number       1
_symmetry_cell_setting            triclinic
loop_
_symmetry_equiv_pos_as_xyz
'x, y, z'
_cell_length_a     28.099784
_cell_length_b     27.977228
_cell_length_c     53.203816
_cell_angle_alpha  89.770053
_cell_angle_beta   89.757679
_cell_angle_gamma 90.052786
loop_
_atom_site_label
_atom_site_type_symbol
_atom_site_fract_x
_atom_site_fract_y
_atom_site_fract_z
_atom_type_partial_charge
C0 C 1.01401 0.22552 0.66653 0.0
C1 C 0.02739 0.25648 0.68518 0.0
N2 N 0.05377 0.29166 0.67472 0.0
N3 N 0.03212 0.24089 0.64445 0.0
C4 C 0.05588 0.2814 0.64997 0.0
H5 H 0.99285 0.19351 0.66893 0.0
Co6 Co 0.02494 0.21014 0.61395 0.0
C7 C 0.11494 0.22488 0.5857 0.0
O8 O 0.10798 0.18198 0.57654 0.0
N9 N 0.01576 0.17999 0.58278 0.0
C10 C 1.00455 0.17615 0.54151 0.0
C11 C 1.00855 0.20592 0.56163 0.0
C12 C 0.01587 0.13403 0.57483 0.0
N13 N 1.00933 0.13092 0.54973 0.0
O14 O 0.98119 0.25929 0.60343 0.0
H15 H 1.00861 0.24451 0.56056 0.0
H16 H 0.02234 0.10354 0.58683 0.0
O17 O 0.0831 0.24329 0.60021 0.0
C18 C 0.94021 0.24357 0.61005 0.0
O19 O 0.93839 0.20334 0.62288 0.0
N20 N 0.06223 0.15999 0.62673 0.0
C21 C 0.09427 0.10506 0.66697 0.0
C22 C 0.12394 0.13939 0.6558 0.0
C23 C 0.10693 0.16719 0.63608 0.0
C24 C 0.03496 0.12321 0.63561 0.0
C25 C 0.05033 0.09516 0.65578 0.0
H26 H 0.12727 0.19859 0.63141 0.0
H27 H 0.99855 0.11969 0.62937 0.0
H28 H 0.0739 0.30324 0.63606 0.0
H29 H 0.01897 0.2528 0.70495 0.0
H30 H 1.00133 0.18725 0.52208 0.0
H31 H 0.15751 0.14924 0.66431 0.0
H32 H 0.02622 0.0692 0.66404 0.0
C33 C 0.80248 0.42597 0.12758 0.0
C34 C 0.76242 0.43838 0.14112 0.0
N35 N 0.76146 0.48634 0.14307 0.0
N36 N 0.82655 0.46601 0.12126 0.0
C37 C 0.80065 0.50208 0.13097 0.0
H38 H 0.81445 0.39001 0.12374 0.0
Co39 Co 0.88686 0.47076 0.10712 0.0
C40 C 0.83621 0.54989 0.07788 0.0
O41 O 0.79821 0.52454 0.07258 0.0
N42 N 0.94695 0.47598 0.09303 0.0
C43 C 0.02435 0.48653 0.08664 0.0
C44 C 0.99022 0.4721 0.10376 0.0
C45 C 0.95555 0.49109 0.06942 0.0
N46 N 1.00215 0.49831 0.0651 0.0
O47 O 0.86713 0.43116 0.07926 0.0
H48 H 0.99634 0.46202 0.12312 0.0
H49 H 0.92779 0.49989 0.05613 0.0
O50 O 0.86993 0.53099 0.09044 0.0
C51 C 0.88414 0.38951 0.08365 0.0
O52 O 0.90951 0.38367 0.10414 0.0
N53 N 0.90757 0.50398 0.1354 0.0
C54 C 0.94361 0.54074 0.18008 0.0
C55 C 0.93829 0.57014 0.15879 0.0
C56 C 0.92053 0.55096 0.1365 0.0
C57 C 0.91212 0.47503 0.15586 0.0
C58 C 0.93005 0.4926 0.17837 0.0
H59 H 0.91824 0.57371 0.12016 0.0
H60 H 0.90263 0.43766 0.15445 0.0
H61 H 0.81207 0.53904 0.13072 0.0
H62 H 0.73698 0.41407 0.14961 0.0
H63 H 0.06216 0.48992 0.09002 0.0
H64 H 0.94795 0.6076 0.15925 0.0
H65 H 0.93446 0.46821 0.19404 0.0
C66 C 0.60349 0.35296 0.65758 0.0
C67 C 0.60972 0.32708 0.67927 0.0
N68 N 0.57175 0.29814 0.68244 0.0
N69 N 0.5618 0.34062 0.64708 0.0
C70 C 0.54362 0.30649 0.66231 0.0
H71 H 0.62675 0.38076 0.65047 0.0
Co72 Co 0.53857 0.37223 0.61923 0.0
C73 C 0.43841 0.34416 0.61326 0.0
O74 O 0.43028 0.39033 0.61165 0.0
N75 N 0.51752 0.40406 0.59 0.0
C76 C 0.49929 0.41011 0.54943 0.0
C77 C 0.50012 0.38039 0.56989 0.0
C78 C 0.52787 0.44815 0.58096 0.0
N79 N 0.51723 0.45251 0.55638 0.0
O80 O 0.57839 0.33219 0.59861 0.0
H81 H 0.49253 0.34252 0.56941 0.0
H82 H 0.54824 0.47457 0.59098 0.0
O83 O 0.48133 0.32882 0.6165 0.0
C84 C 0.61541 0.35627 0.59244 0.0
O85 O 0.61695 0.40183 0.59824 0.0
N86 N 0.50575 0.41397 0.64116 0.0
C87 C 0.47495 0.47466 0.67952 0.0
C88 C 0.45743 0.42797 0.67779 0.0
C89 C 0.474 0.39799 0.65891 0.0
C90 C 0.52452 0.45873 0.64321 0.0
C91 C 0.50894 0.49005 0.66189 0.0
H92 H 0.4625 0.36125 0.65941 0.0
H93 H 0.5541 0.46926 0.6315 0.0
H94 H 0.50947 0.2897 0.65927 0.0
H95 H 0.63845 0.33179 0.69251 0.0
H96 H 0.48996 0.40014 0.53044 0.0
H97 H 0.4329 0.41374 0.69169 0.0
H98 H 0.52445 0.52543 0.66295 0.0
C99 C 0.83743 0.0454 0.10775 0.0
C100 C 0.87246 0.03682 0.12513 0.0
N101 N 0.87835 0.98913 0.12721 0.0
N102 N 0.82157 1.00339 0.09879 0.0
C103 C 0.8472 0.96981 0.11088 0.0
H104 H 0.82348 0.08001 0.10251 0.0
Co105 Co 0.77204 0.99665 0.07647 0.0
C106 C 0.77261 0.89458 0.06014 0.0
O107 O 0.72593 0.8971 0.0596 0.0
N108 N 0.72201 0.99172 0.05342 0.0
C109 C 0.68585 0.99081 0.01635 0.0
C110 C 0.72744 0.98118 0.02881 0.0
C111 C 0.67693 1.008 0.05539 0.0
N112 N 0.65429 1.00801 0.03312 0.0
O113 O 0.80915 0.03135 0.05156 0.0
H114 H 0.76047 0.96974 0.02024 0.0
H115 H 0.66222 0.02381 0.07217 0.0
O116 O 0.79668 0.93211 0.06601 0.0
C117 C 0.79147 0.07354 0.05058 0.0
O118 O 0.75329 0.08273 0.06402 0.0
N119 N 0.73498 0.97048 0.10269 0.0
C120 C 0.68781 0.95376 0.14814 0.0
C121 C 0.7134 0.91712 0.13636 0.0
C122 C 0.7378 0.92651 0.11393 0.0
C123 C 0.71042 1.00639 0.11412 0.0
C124 C 0.68622 0.99878 0.13668 0.0
H125 H 0.76115 0.89915 0.10696 0.0
H126 H 0.71146 0.04201 0.10619 0.0
H127 H 0.84147 0.93188 0.10863 0.0
H128 H 0.89126 0.06375 0.13573 0.0
H129 H 0.68007 0.98763 -0.00367 0.0
H130 H 0.71692 0.88235 0.1452 0.0
H131 H 0.66744 0.02821 0.1454 0.0
C132 C 0.15336 0.77141 0.32374 0.0
C133 C 0.15229 0.73182 0.30847 0.0
N134 N 0.1125 0.7068 0.31382 0.0
N135 N 0.11431 0.77139 0.33854 0.0
C136 C 0.09079 0.73102 0.33246 0.0
H137 H 0.17856 0.80054 0.32242 0.0
Co138 Co 0.09124 0.8242 0.35576 0.0
C139 C 1.00997 0.78934 0.3882 0.0
O140 O 0.02454 0.81309 0.40797 0.0
N141 N 0.06713 0.87809 0.37291 0.0
C142 C 1.0145 0.93112 0.38693 0.0
C143 C 0.02506 0.89968 0.36809 0.0
C144 C 0.08156 0.89782 0.39478 0.0
N145 N 0.04981 0.92962 0.40392 0.0
O146 O 0.13243 0.80756 0.38354 0.0
H147 H 1.00124 0.89063 0.35296 0.0
H148 H 0.11318 0.88699 0.4047 0.0
O149 O 0.03617 0.78766 0.36849 0.0
C150 C 0.17132 0.83009 0.379 0.0
O151 O 0.17106 0.86206 0.36082 0.0
N152 N 0.05748 0.84121 0.32692 0.0
C153 C 0.02429 0.86413 0.27928 0.0
C154 C 1.00324 0.82706 0.29313 0.0
C155 C 0.02024 0.81622 0.31703 0.0
C156 C 0.07784 0.87792 0.31385 0.0
C157 C 0.06137 0.89043 0.29003 0.0
H158 H 1.00448 0.78656 0.32693 0.0
H159 H 0.10794 0.89663 0.32173 0.0
H160 H 0.05559 0.72233 0.33934 0.0
H161 H 0.17679 0.7242 0.29325 0.0
H162 H 0.98147 0.95064 0.38882 0.0
H163 H 0.97426 0.80626 0.28542 0.0
H164 H 0.0786 0.91917 0.27974 0.0
C165 C 0.27375 0.69898 0.83443 0.0
C166 C 0.31475 0.69031 0.82106 0.0
N167 N 0.31711 0.64314 0.81655 0.0
N168 N 0.25062 0.65732 0.83852 0.0
C169 C 0.27816 0.62388 0.82747 0.0
H170 H 0.26094 0.73382 0.83987 0.0
Co171 Co 0.19169 0.64925 0.85408 0.0
C172 C 0.23288 0.58012 0.89374 0.0
O173 O 0.2405 0.61084 0.91189 0.0
N174 N 0.13324 0.64162 0.87018 0.0
C175 C 0.05814 0.62873 0.88186 0.0
C176 C 0.08863 0.63454 0.86158 0.0
C177 C 0.12877 0.64123 0.89534 0.0
N178 N 0.08386 0.63354 0.90299 0.0
O179 O 0.20973 0.6962 0.87912 0.0
H180 H 0.07908 0.63258 0.84193 0.0
H181 H 0.15834 0.64527 0.90802 0.0
O182 O 0.21643 0.5945 0.87278 0.0
C183 C 0.19016 0.73643 0.87419 0.0
O184 O 0.16202 0.73899 0.85455 0.0
N185 N 0.17285 0.60674 0.82868 0.0
C186 C 0.15346 0.54513 0.78902 0.0
C187 C 0.15001 0.52918 0.81397 0.0
C188 C 0.15955 0.5606 0.83355 0.0
C189 C 0.17392 0.6236 0.8046 0.0
C190 C 0.16502 0.59316 0.78441 0.0
H191 H 0.15635 0.5476 0.85263 0.0
H192 H 0.18326 0.66054 0.80103 0.0
H193 H 0.26889 0.58635 0.82657 0.0
H194 H 0.33934 0.7169 0.81384 0.0
H195 H 0.02039 0.62119 0.88114 0.0
H196 H 0.14098 0.49242 0.81835 0.0
H197 H 0.1671 0.60707 0.76541 0.0
C198 C 0.50861 0.77198 0.32104 0.0
C199 C 0.50588 0.80514 0.302 0.0
N200 N 0.54519 0.8326 0.30281 0.0
N201 N 0.54967 0.77826 0.33361 0.0
C202 C 0.57075 0.81618 0.32242 0.0
H203 H 0.48426 0.74259 0.32413 0.0
Co204 Co 0.57336 0.73326 0.35588 0.0
C205 C 0.65852 0.77734 0.38037 0.0
O206 O 0.63974 0.77378 0.40294 0.0
N207 N 0.5974 0.68703 0.3785 0.0
C208 C 0.6431 0.63171 0.39668 0.0
C209 C 0.63545 0.65799 0.37517 0.0
C210 C 0.5834 0.67824 0.40241 0.0
N211 N 0.61047 0.64506 0.41376 0.0
O212 O 0.53816 0.76496 0.38235 0.0
H213 H 0.65721 0.65649 0.3584 0.0
H214 H 0.55412 0.69573 0.41174 0.0
O215 O 0.63283 0.7689 0.36106 0.0
C216 C 0.49784 0.74351 0.38323 0.0
O217 O 0.49247 0.70427 0.37004 0.0
N218 N 0.6011 0.70152 0.32852 0.0
C219 C 0.62462 0.65837 0.28305 0.0
C220 C 0.64646 0.70112 0.29028 0.0
C221 C 0.63403 0.72228 0.31298 0.0
C222 C 0.58003 0.65943 0.32204 0.0
C223 C 0.59177 0.63681 0.29946 0.0
H224 H 0.64948 0.75652 0.31731 0.0
H225 H 0.55279 0.64426 0.33409 0.0
H226 H 0.6064 0.82823 0.32668 0.0
H227 H 0.47908 0.8065 0.28746 0.0
H228 H 0.67089 0.60558 0.39972 0.0
H229 H 0.67224 0.71873 0.27819 0.0
H230 H 0.57382 0.60398 0.29439 0.0
C231 C 0.30912 0.07803 0.85315 0.0
C232 C 0.2866 0.06566 0.8314 0.0
N233 N 0.24855 0.09433 0.82861 0.0
N234 N 0.28578 0.11459 0.86401 0.0
C235 C 0.24848 0.12364 0.84879 0.0
H236 H 0.34054 0.06122 0.86082 0.0
Co237 Co 0.30798 0.13687 0.89419 0.0
C238 C 0.27902 0.23711 0.90063 0.0
O239 O 0.32365 0.24392 0.90693 0.0
N240 N 0.33126 0.15597 0.92573 0.0
C241 C 0.33128 0.17124 0.9668 0.0
C242 C 0.30428 0.17074 0.94532 0.0
C243 C 0.37416 0.14691 0.93596 0.0
N244 N 0.37524 0.15588 0.96085 0.0
O245 O 0.26196 0.09634 0.9108 0.0
H246 H 0.26648 0.17773 0.94439 0.0
H247 H 0.40259 0.12908 0.92616 0.0
O248 O 0.2647 0.19494 0.89421 0.0
C249 C 0.28275 0.05801 0.91799 0.0
O250 O 0.32938 0.05601 0.91655 0.0
N251 N 0.35561 0.17032 0.87601 0.0
C252 C 0.42205 0.19582 0.8389 0.0
C253 C 0.37786 0.2188 0.84044 0.0
C254 C 0.3446 0.20415 0.85831 0.0
C255 C 0.39871 0.14797 0.87495 0.0
C256 C 0.43268 0.16057 0.85682 0.0
H257 H 0.30886 0.21749 0.85631 0.0
H258 H 0.40503 0.11655 0.88624 0.0
H259 H 0.22227 0.15118 0.85227 0.0
H260 H 0.29697 0.03726 0.81875 0.0
H261 H 0.31869 0.17958 0.98552 0.0
H262 H 0.36765 0.246 0.82698 0.0
H263 H 0.46536 0.14021 0.85571 0.0
H264 H 0.99881 1.00732 0.41805 0.0
H265 H 0.09916 0.90174 0.44578 0.0
H266 H 0.09482 0.93797 0.48785 0.0
H267 H 0.04032 0.10509 0.45276 0.0
H268 H 0.98188 0.12934 0.45846 0.0
H269 H 0.99287 0.09423 0.4308 0.0
H270 H 0.92387 0.03722 0.44348 0.0
H271 H 0.91296 0.07197 0.47135 0.0
H272 H 0.92445 1.00877 0.47393 0.0
H273 H 0.08151 0.98865 0.5268 0.0
H274 H 0.06341 0.05165 0.55794 0.0
H275 H 0.96697 0.11817 0.50491 0.0
C276 C 0.0195 0.99122 0.43292 0.0
C277 C 0.04928 0.95157 0.42839 0.0
C278 C 0.07653 0.93251 0.44848 0.0
C279 C 0.07388 0.95249 0.47261 0.0
C280 C 0.04346 0.99108 0.47639 0.0
C281 C 0.01677 1.01014 0.45705 0.0
C282 C 0.98763 0.05232 0.46565 0.0
C283 C 1.00153 0.09792 0.45106 0.0
C284 C 0.93405 0.04192 0.46348 0.0
C285 C 1.0029 0.05481 0.49277 0.0
C286 C 0.03486 0.01911 0.49877 0.0
C287 C 0.05601 1.01639 0.52241 0.0
C288 C 0.04526 0.05207 0.54005 0.0
C289 C 1.01383 0.0898 0.5338 0.0
C290 C 0.99134 0.08995 0.51016 0.0
H291 H 0.97726 0.48472 0.01677 0.0
H292 H 0.06926 0.56752 0.06517 0.0
H293 H 0.09484 0.61641 0.02866 0.0
H294 H 0.0575 0.48251 0.96348 0.0
H295 H 1.01026 0.48634 0.94075 0.0
H296 H 0.99943 0.4587 0.97085 0.0
H297 H 0.92907 0.51697 0.97828 0.0
H298 H 0.9404 0.54548 0.94842 0.0
H299 H 0.9394 0.58053 0.97677 0.0
H300 H 0.10795 0.6574 -0.01242 0.0
H301 H 0.11811 0.68056 0.94313 0.0
H302 H 0.01956 0.56928 0.92094 0.0
C303 C 1.00303 0.51299 0.01953 0.0
C304 C 0.02148 0.52255 0.04361 0.0
C305 C 0.05533 0.55945 0.04673 0.0
C306 C 0.06951 0.58766 0.02621 0.0
C307 C 0.04969 0.57805 0.0028 0.0
C308 C 0.01791 0.54105 -0.00077 0.0
C309 C 1.00359 0.53691 0.97192 0.0
C310 C 0.01862 0.48824 0.96112 0.0
C311 C 0.94993 0.54549 0.96867 0.0
C312 C 0.03245 0.57737 0.96063 0.0
C313 C 0.05818 0.60103 0.97888 0.0
C314 C 0.08821 0.63904 0.97311 0.0
C315 C 0.09371 0.6519 0.94786 0.0
C316 C 0.06981 0.62646 0.9287 0.0
C317 C 0.03765 0.58971 0.93526 0.0
H318 H 0.55952 0.43968 0.5114 0.0
H319 H 0.51281 0.5479 0.56397 0.0
H320 H 0.53924 0.61128 0.53415 0.0
H321 H 0.66471 0.50401 0.48835 0.0
H322 H 0.65735 0.48239 0.45673 0.0
H323 H 0.63783 0.44644 0.483 0.0
H324 H 0.55306 0.44182 0.46404 0.0
H325 H 0.57235 0.47748 0.43771 0.0
H326 H 0.52212 0.49636 0.45636 0.0
H327 H 0.56316 0.66148 0.49664 0.0
H328 H 0.58479 0.69504 0.45501 0.0
H329 H 0.61847 0.55305 0.42819 0.0
C330 C 0.55487 0.47675 0.5166 0.0
C331 C 0.53362 0.48933 0.53968 0.0
C332 C 0.52897 0.53801 0.54623 0.0
C333 C 0.54394 0.57396 0.52949 0.0
C334 C 0.56426 0.56025 0.50665 0.0
C335 C 0.57015 0.51276 0.50036 0.0
C336 C 0.5914 0.50714 0.47441 0.0
C337 C 0.64076 0.48361 0.47571 0.0
C338 C 0.55771 0.47907 0.45712 0.0
C339 C 0.59506 0.55894 0.46662 0.0
C340 C 0.57953 0.5891 0.48551 0.0
C341 C 0.57614 0.6383 0.4819 0.0
C342 C 0.58822 0.65697 0.45824 0.0
C343 C 0.60357 0.62647 0.43864 0.0
C344 C 0.60794 0.57708 0.44311 0.0
H345 H 0.4691 0.14925 0.94993 0.0
H346 H 0.36582 0.12837 0.00985 0.0
H347 H 0.42822 0.09251 0.03636 0.0
H348 H 0.52399 0.03928 0.95655 0.0
H349 H 0.5833 0.06021 0.94957 0.0
H350 H 0.53271 0.09108 0.93679 0.0
H351 H 0.56138 0.17043 0.9567 0.0
H352 H 0.61255 0.13995 0.96926 0.0
H353 H 0.57345 0.17257 -0.01007 0.0
H354 H 0.50026 0.05141 0.05465 0.0
H355 H 0.57682 1.011 0.06354 0.0
H356 H 0.63075 0.0563 -0.00923 0.0
C357 C 0.45967 0.13775 0.96874 0.0
C358 C 0.41254 0.14163 0.97775 0.0
C359 C 0.40178 0.12647 0.0026 0.0
C360 C 0.43695 0.10575 0.01777 0.0
C361 C 0.48261 0.10069 0.00783 0.0
C362 C 0.49409 0.11669 0.98396 0.0
C363 C 0.54468 0.1041 0.97691 0.0
C364 C 0.54622 0.07175 0.95358 0.0
C365 C 0.57479 0.14947 0.97298 0.0
C366 C 0.55952 0.07733 0.00029 0.0
C367 C 0.52353 0.07619 0.01806 0.0
C368 C 0.52885 0.05246 0.04096 0.0
C369 C 0.57228 0.02961 0.04583 0.0
C370 C 0.60942 0.03027 0.02776 0.0
C371 C 0.60274 0.05452 0.00476 0.0
H372 H 0.271 0.07645 0.78031 0.0
H373 H 0.15322 0.11024 0.82993 0.0
H374 H 0.09765 0.10492 0.79388 0.0
H375 H 0.23205 0.14564 0.72917 0.0
H376 H 0.25344 0.10458 0.70569 0.0
H377 H 0.28207 0.10736 0.7358 0.0
H378 H 0.26811 1.01631 0.74178 0.0
H379 H 0.2387 1.01348 0.71178 0.0
H380 H 0.20858 0.99259 0.73973 0.0
H381 H 0.05633 0.09935 0.75191 0.0
H382 H 0.03389 0.10466 0.70723 0.0
H383 H 0.17947 0.07351 0.68548 0.0
C384 C 0.23339 0.08199 0.78365 0.0
C385 C 0.21612 0.09324 0.80785 0.0
C386 C 0.16696 0.10172 0.81144 0.0
C387 C 0.13524 0.09822 0.79118 0.0
C388 C 0.1535 0.08634 0.76756 0.0
C389 C 0.20156 0.07892 0.76372 0.0
C390 C 0.21301 0.07064 0.73629 0.0
C391 C 0.24713 0.10936 0.72615 0.0
C392 C 0.23329 0.02025 0.73216 0.0
C393 C 0.16392 0.07539 0.7251 0.0
C394 C 0.12991 0.08361 0.74345 0.0
C395 C 0.08251 0.09227 0.73743 0.0
C396 C 0.07 0.09467 0.71197 0.0
C397 C 0.10489 0.08888 0.69289 0.0
C398 C 0.15201 0.07743 0.69966 0.0
H399 H 0.11804 0.69989 0.26303 0.0
H400 H 0.053 0.63648 0.32926 0.0
H401 H 1.00334 0.58515 0.30213 0.0
H402 H 1.01436 0.70632 0.22732 0.0
H403 H 0.04246 0.69257 0.19772 0.0
H404 H 0.07616 0.72085 0.22222 0.0
H405 H 0.13854 0.65257 0.22065 0.0
H406 H 0.10539 0.62449 0.19583 0.0
H407 H 0.11914 0.59142 0.22403 0.0
H408 H 0.95613 0.54631 0.26777 0.0
H409 H 0.91845 0.51834 0.22872 0.0
H410 H 0.01652 0.60577 0.185 0.0
C411 C 0.09457 0.67409 0.27185 0.0
C412 C 0.0897 0.6717 0.29827 0.0
C413 C 0.05728 0.63863 0.30905 0.0
C414 C 0.02898 0.60946 0.29381 0.0
C415 C 0.03364 0.6138 0.26782 0.0
C416 C 0.06599 0.64491 0.25693 0.0
C417 C 0.06239 0.64451 0.22855 0.0
C418 C 0.04799 0.69399 0.21837 0.0
C419 C 0.10914 0.6272 0.21656 0.0
C420 C 0.02282 0.60843 0.22518 0.0
C421 C 1.00662 0.59126 0.24804 0.0
C422 C 0.96906 0.5589 0.24973 0.0
C423 C 0.948 0.54309 0.22741 0.0
C424 C 0.9647 0.55944 0.20368 0.0
C425 C 1.00252 0.59277 0.20274 0.0
H426 H 0.29435 0.57801 0.78136 0.0
H427 H 0.41173 0.65834 0.81262 0.0
H428 H 0.4662 0.62345 0.78081 0.0
H429 H 0.35827 0.47083 0.76492 0.0
H430 H 0.32668 0.46271 0.73583 0.0
H431 H 0.29801 0.49214 0.76184 0.0
H432 H 0.28142 0.56708 0.73379 0.0
H433 H 0.30851 0.53614 0.7078 0.0
H434 H 0.33 0.59428 0.71687 0.0
H435 H 0.50678 0.58107 0.74493 0.0
H436 H 0.5311 0.53356 0.70802 0.0
H437 H 0.38547 0.48448 0.69932 0.0
C438 C 0.33174 0.58736 0.78179 0.0
C439 C 0.34932 0.62015 0.79953 0.0
C440 C 0.39802 0.63298 0.79914 0.0
C441 C 0.42901 0.6134 0.78121 0.0
C442 C 0.41037 0.58163 0.7637 0.0
C443 C 0.36284 0.56883 0.76381 0.0
C444 C 0.35115 0.53602 0.74219 0.0
C445 C 0.33245 0.48755 0.75178 0.0
C446 C 0.31567 0.55978 0.72409 0.0
C447 C 0.39976 0.53149 0.7302 0.0
C448 C 0.43342 0.55824 0.74276 0.0
C449 C 0.48073 0.56006 0.7349 0.0
C450 C 0.49409 0.53335 0.71378 0.0
C451 C 0.46015 0.50541 0.70075 0.0
C452 C 0.41235 0.50501 0.70904 0.0
H453 H 0.54369 0.81121 0.25352 0.0
H454 H 0.59061 0.91726 0.30703 0.0
H455 H 0.62868 0.96345 0.27239 0.0
H456 H 0.64904 0.8098 0.21838 0.0
H457 H 0.62092 0.80117 0.18834 0.0
H458 H 0.59238 0.77976 0.21655 0.0
H459 H 0.51669 0.82843 0.20628 0.0
H460 H 0.54437 0.84958 0.17771 0.0
H461 H 0.52148 0.89172 0.20027 0.0
H462 H 0.66369 0.9958 0.23205 0.0
H463 H 0.69709 1.01007 0.1896 0.0
H464 H 0.63033 0.8799 0.16315 0.0
C465 C 0.56081 0.84488 0.25777 0.0
C466 C 0.56343 0.86161 0.2827 0.0
C467 C 0.58786 0.9046 0.28788 0.0
C468 C 0.60941 0.93087 0.26839 0.0
C469 C 0.60659 0.91309 0.24397 0.0
C470 C 0.58311 0.87093 0.23865 0.0
C471 C 0.58845 0.85742 0.21128 0.0
C472 C 0.61426 0.8092 0.20849 0.0
C473 C 0.53985 0.85677 0.19811 0.0
C474 C 0.61894 0.89842 0.20199 0.0
C475 C 0.62849 0.93049 0.22103 0.0
C476 C 0.65625 0.97108 0.21697 0.0
C477 C 0.67488 0.97896 0.19283 0.0
C478 C 0.66607 0.94612 0.17319 0.0
C479 C 0.63768 0.90544 0.17788 0.0
H480 H 0.99849 0.95064 0.26004 0.0
H481 H 1.01314 0.80089 0.24086 0.0
H482 H 0.98354 0.81801 0.198 0.0
H483 H 0.89 0.96834 0.22866 0.0
H484 H 0.90352 0.02841 0.21853 0.0
H485 H 0.93017 1.00489 0.24665 0.0
H486 H 1.01406 0.02393 0.22869 0.0
H487 H 0.98758 0.04737 0.20042 0.0
H488 H 0.03123 1.00033 0.1985 0.0
H489 H 0.9492 0.8512 0.15803 0.0
H490 H 0.90818 0.89657 0.12478 0.0
H491 H 0.91298 0.02377 0.17128 0.0
C492 C 0.99617 0.92171 0.24663 0.0
C493 C 1.00819 0.87459 0.25351 0.0
C494 C 1.00385 0.83723 0.23579 0.0
C495 C 0.98743 0.84668 0.21144 0.0
C496 C 0.97545 0.89358 0.20527 0.0
C497 C 0.97939 0.93042 0.22239 0.0
C498 C 0.96087 0.97692 0.2117 0.0
C499 C 0.91863 0.99571 0.22731 0.0
C500 C 1.00083 1.01434 0.20971 0.0
C501 C 0.9452 0.96036 0.18602 0.0
C502 C 0.95449 0.91238 0.18252 0.0
C503 C 0.94179 0.88884 0.16054 0.0
C504 C 0.91817 0.9149 0.14182 0.0
C505 C 0.90693 0.96384 0.14535 0.0
C506 C 0.92149 0.98676 0.16766 0.0
H507 H 0.08249 0.4787 0.78503 0.0
H508 H 0.20591 0.53545 0.74585 0.0
H509 H 0.19364 0.47721 0.71158 0.0
H510 H 0.10271 0.35608 0.77015 0.0
H511 H 0.04043 0.34233 0.76656 0.0
H512 H 0.05859 0.38934 0.78746 0.0
H513 H 1.00426 0.4492 0.76378 0.0
H514 H 0.98585 0.40235 0.74284 0.0
H515 H 1.01116 0.45669 0.73029 0.0
H516 H 0.16835 0.41064 0.68215 0.0
H517 H 0.13174 0.34267 0.65988 0.0
H518 H 0.02457 0.33134 0.71862 0.0
C519 C 0.10701 0.47883 0.76926 0.0
C520 C 0.14518 0.51156 0.76802 0.0
C521 C 0.17616 0.51098 0.74696 0.0
C522 C 0.16959 0.4779 0.72751 0.0
C523 C 0.13168 0.44589 0.72942 0.0
C524 C 0.10086 0.44628 0.74974 0.0
C525 C 0.06306 0.40811 0.74747 0.0
C526 C 0.06643 0.37182 0.7692 0.0
C527 C 1.01314 0.43044 0.746 0.0
C528 C 0.07748 0.38595 0.72274 0.0
C529 C 0.11712 0.40811 0.71257 0.0
C530 C 0.1371 0.39325 0.68988 0.0
C531 C 0.11589 0.35476 0.6773 0.0
C532 C 0.07516 0.33159 0.68745 0.0
C533 C 0.05592 0.34774 0.71045 0.0
H534 H 0.64549 0.56519 0.27163 0.0
H535 H 0.62811 0.70573 0.23823 0.0
H536 H 0.65215 0.67372 0.19695 0.0
H537 H 0.74874 0.5356 0.23948 0.0
H538 H 0.73467 0.47324 0.23541 0.0
H539 H 0.70986 0.50556 0.2615 0.0
H540 H 0.62485 0.48166 0.24752 0.0
H541 H 0.64949 0.44921 0.22131 0.0
H542 H 0.6057 0.49515 0.21599 0.0
H543 H 0.68682 0.62934 0.16086 0.0
H544 H 0.73049 0.57523 0.1323 0.0
H545 H 0.72457 0.46311 0.18864 0.0
C546 C 0.64559 0.58882 0.25546 0.0
C547 C 0.63498 0.63785 0.25803 0.0
C548 C 0.6365 0.66809 0.23662 0.0
C549 C 0.64972 0.65016 0.21309 0.0
C550 C 0.661 0.60185 0.21125 0.0
C551 C 0.6589 0.5715 0.23181 0.0
C552 C 0.67683 0.52207 0.22519 0.0
C553 C 0.72009 0.50835 0.24135 0.0
C554 C 0.63682 0.48482 0.22765 0.0
C555 C 0.69078 0.52985 0.19795 0.0
C556 C 0.68079 0.57597 0.19021 0.0
C557 C 0.69403 0.59288 0.16653 0.0
C558 C 0.71892 0.56207 0.1505 0.0
C559 C 0.73031 0.51502 0.15823 0.0
C560 C 0.71511 0.49847 0.18205 0.0
H561 H 0.39661 0.21494 0.79014 0.0
H562 H 0.52026 0.19662 0.83797 0.0
H563 H 0.57267 0.21139 0.80131 0.0
H564 H 0.44535 0.16422 0.73319 0.0
H565 H 0.41727 0.20798 0.71322 0.0
H566 H 0.38969 0.19091 0.74255 0.0
H567 H 0.38803 0.2796 0.75657 0.0
H568 H 0.41496 0.29691 0.72719 0.0
H569 H 0.44251 0.31368 0.7564 0.0
H570 H 0.61127 0.23234 0.75968 0.0
H571 H 0.63281 0.26422 0.71786 0.0
H572 H 0.48294 0.27428 0.699 0.0
C573 C 0.43467 0.21442 0.79315 0.0
C574 C 0.4542 0.20485 0.8171 0.0
C575 C 0.50435 0.20337 0.8198 0.0
C576 C 0.53441 0.21174 0.79909 0.0
C577 C 0.51375 0.22154 0.77585 0.0
C578 C 0.465 0.22327 0.77287 0.0
C579 C 0.45147 0.23809 0.7465 0.0
C580 C 0.42435 0.19789 0.73308 0.0
C581 C 0.42257 0.28484 0.74669 0.0
C582 C 0.50032 0.24541 0.73515 0.0
C583 C 0.53581 0.23489 0.75219 0.0
C584 C 0.58375 0.24066 0.74619 0.0
C585 C 0.5956 0.25905 0.72241 0.0
C586 C 0.55966 0.27219 0.70506 0.0
C587 C 0.51148 0.26402 0.71147 0.0
H588 H 0.85149 0.22168 0.62725 0.0
H589 H 0.92549 0.31476 0.57461 0.0
H590 H 0.84762 0.34597 0.55994 0.0
H591 H 0.75124 0.19284 0.58763 0.0
H592 H 0.70923 0.19323 0.61332 0.0
H593 H 0.7704 0.17719 0.61889 0.0
H594 H 0.77723 0.24328 0.65273 0.0
H595 H 0.7159 0.25873 0.64763 0.0
H596 H 0.7614 0.30388 0.64473 0.0
H597 H 0.76129 0.36922 0.55271 0.0
H598 H 0.67576 0.38865 0.5565 0.0
H599 H 0.65882 0.27825 0.61308 0.0
C600 C 0.85157 0.24857 0.61255 0.0
C601 C 0.89472 0.26576 0.60202 0.0
C602 C 0.89297 0.30125 0.58302 0.0
C603 C 0.84888 0.31878 0.57444 0.0
C604 C 0.80702 0.30028 0.58499 0.0
C605 C 0.80816 0.26625 0.60382 0.0
C606 C 0.75855 0.25382 0.6131 0.0
C607 C 0.74667 0.20114 0.60792 0.0
C608 C 0.75296 0.26566 0.6412 0.0
C609 C 0.72895 0.2868 0.59687 0.0
C610 C 0.75753 0.31294 0.58056 0.0
C611 C 0.73864 0.3484 0.56509 0.0
C612 C 0.68995 0.35889 0.5672 0.0
C613 C 0.66054 0.33393 0.58451 0.0
C614 C 0.68004 0.29637 0.59891 0.0
H615 H 0.92403 0.30152 0.08833 0.0
H616 H 0.82065 0.37995 0.04416 0.0
H617 H 0.79852 0.30467 0.02256 0.0
H618 H 0.9577 0.21091 0.03962 0.0
H619 H 0.96212 0.16446 0.06307 0.0
H620 H 0.97612 0.22543 0.0711 0.0
H621 H 0.91452 0.22244 0.10753 0.0
H622 H 0.90098 0.16158 0.09979 0.0
H623 H 0.85399 0.20536 0.10088 0.0
H624 H 0.77816 0.21906 0.01174 0.0
H625 H 0.75774 0.1334 0.01499 0.0
H626 H 0.87577 0.11097 0.06547 0.0
C627 C 0.89754 0.30335 0.07364 0.0
C628 C 0.87418 0.34686 0.06787 0.0
C629 C 0.83935 0.34725 0.04875 0.0
C630 C 0.82673 0.30461 0.03635 0.0
C631 C 0.84973 0.26205 0.04305 0.0
C632 C 0.88463 0.26136 0.06123 0.0
C633 C 0.89994 0.21071 0.06748 0.0
C634 C 0.95207 0.2024 0.05986 0.0
C635 C 0.89183 0.19938 0.09556 0.0
C636 C 0.86652 0.18247 0.05091 0.0
C637 C 0.83855 0.21272 0.03651 0.0
C638 C 0.80085 0.19513 0.0223 0.0
C639 C 0.78981 0.14622 0.024 0.0
C640 C 0.8163 0.11528 0.03973 0.0
C641 C 0.85652 0.1333 0.05233 0.0
H642 H 0.45152 0.82756 0.37506 0.0
H643 H 0.44578 0.69644 0.41822 0.0
H644 H 0.36128 0.7115 0.42842 0.0
H645 H 0.35905 0.89768 0.41389 0.0
H646 H 0.33567 0.92439 0.38564 0.0
H647 H 0.39811 0.91011 0.38769 0.0
H648 H 0.39122 0.85994 0.34707 0.0
H649 H 0.32886 0.87321 0.3451 0.0
H650 H 0.34847 0.8119 0.3458 0.0
H651 H 0.27347 0.73134 0.42581 0.0
H652 H 0.19283 0.75674 0.41236 0.0
H653 H 0.25597 0.87516 0.37122 0.0
C654 C 0.43323 0.80389 0.38805 0.0
C655 C 0.45556 0.7618 0.39667 0.0
C656 C 0.42966 0.72972 0.41218 0.0
C657 C 0.38149 0.73784 0.41791 0.0
C658 C 0.35949 0.77833 0.40797 0.0
C659 C 0.38484 0.81136 0.39373 0.0
C660 C 0.35171 0.84815 0.38229 0.0
C661 C 0.36173 0.89804 0.39302 0.0
C662 C 0.35529 0.84825 0.35337 0.0
C663 C 0.30384 0.82935 0.39122 0.0
C664 C 0.30887 0.78949 0.40633 0.0
C665 C 0.26918 0.76333 0.41455 0.0
C666 C 0.22341 0.77794 0.40683 0.0
C667 C 0.21775 0.81816 0.39092 0.0
C668 C 0.25869 0.8446 0.38368 0.0
H669 H 0.21409 0.01847 0.88835 0.0
H670 H 0.29982 0.99258 0.95439 0.0
H671 H 0.27835 0.90696 0.95329 0.0
H672 H 0.11991 0.92354 0.90134 0.0
H673 H 0.11682 0.90873 0.86845 0.0
H674 H 0.13021 0.96908 0.87786 0.0
H675 H 0.20715 0.96671 0.85096 0.0
H676 H 0.19471 0.90617 0.84188 0.0
H677 H 0.25048 0.92048 0.85668 0.0
H678 H 0.25948 0.82205 0.94049 0.0
H679 H 0.23938 0.74639 0.91876 0.0
H680 H 0.16659 0.82773 0.86096 0.0
C681 C 0.2259 0.99522 0.90341 0.0
C682 C 0.2573 1.01233 0.92197 0.0
C683 C 0.2746 0.98031 0.94047 0.0
C684 C 0.26286 0.93154 0.93987 0.0
C685 C 0.23381 0.91514 0.92057 0.0
C686 C 0.21488 0.94619 0.90288 0.0
C687 C 0.18925 0.91885 0.88244 0.0
C688 C 0.13587 0.93075 0.88254 0.0
C689 C 0.21175 0.92864 0.85647 0.0
C690 C 0.19797 0.86777 0.89096 0.0
C691 C 0.22342 0.86623 0.91307 0.0
C692 C 0.23864 0.82285 0.92343 0.0
C693 C 0.22732 0.78002 0.91093 0.0
C694 C 0.20108 0.78091 0.88829 0.0
C695 C 0.18607 0.82554 0.87844 0.0
H696 H 0.35233 0.35148 0.63617 0.0
H697 H 0.43005 0.26893 0.58088 0.0
H698 H 0.35431 0.23227 0.56682 0.0
H699 H 0.26283 0.25602 0.65131 0.0
H700 H 0.21598 0.29913 0.6558 0.0
H701 H 0.27666 0.31496 0.66278 0.0
H702 H 0.26964 0.38767 0.63279 0.0
H703 H 0.20943 0.37129 0.62521 0.0
H704 H 0.25298 0.37831 0.60049 0.0
H705 H 0.26966 0.21345 0.55526 0.0
H706 H 0.18354 0.19914 0.55241 0.0
H707 H 0.15979 0.29059 0.61701 0.0
C708 C 0.35346 0.32437 0.62169 0.0
C709 C 0.397 0.31236 0.60978 0.0
C710 C 0.39725 0.27763 0.5906 0.0
C711 C 0.35431 0.25723 0.58231 0.0
C712 C 0.31172 0.27147 0.59372 0.0
C713 C 0.31108 0.30308 0.61357 0.0
C714 C 0.26046 0.3124 0.62257 0.0
C715 C 0.25358 0.29455 0.64972 0.0
C716 C 0.24739 0.36558 0.6201 0.0
C717 C 0.23248 0.28217 0.60418 0.0
C718 C 0.26287 0.25929 0.5876 0.0
C719 C 0.24569 0.23049 0.56843 0.0
C720 C 0.1965 0.22291 0.56688 0.0
C721 C 0.1646 0.24349 0.58455 0.0
C722 C 0.18294 0.27462 0.60307 0.0
H723 H 0.76245 0.60955 0.06422 0.0
H724 H 0.91427 0.60905 0.07865 0.0
H725 H 0.91643 0.6968 0.07333 0.0
H726 H 0.76435 0.70522 0.01664 0.0
H727 H 0.70869 0.73004 0.02732 0.0
H728 H 0.71997 0.66697 0.03079 0.0
H729 H 0.70309 0.67301 0.07861 0.0
H730 H 0.69184 0.73602 0.07529 0.0
H731 H 0.73614 0.71528 0.09716 0.0
H732 H 0.90025 0.78703 0.06956 0.0
H733 H 0.86726 0.86916 0.06662 0.0
H734 H 0.72724 0.80919 0.05307 0.0
C735 C 0.79634 0.62771 0.06583 0.0
C736 C 0.83811 0.60214 0.07206 0.0
C737 C 0.88158 0.62768 0.07424 0.0
C738 C 0.88324 0.67765 0.07112 0.0
C739 C 0.84121 0.7019 0.06555 0.0
C740 C 0.79866 0.67761 0.06271 0.0
C741 C 0.75819 0.71202 0.05758 0.0
C742 C 0.73653 0.70302 0.03154 0.0
C743 C 0.72009 0.70889 0.0784 0.0
C744 C 0.78438 0.75944 0.0583 0.0
C745 C 0.83227 0.75311 0.06289 0.0
C746 C 0.86286 0.79225 0.06561 0.0
C747 C 0.84387 0.83886 0.06385 0.0
C748 C 0.79472 0.84603 0.05934 0.0
C749 C 0.76509 0.80542 0.05623 0.0
H750 H 0.72777 0.81884 0.41061 0.0
H751 H 0.70968 0.73007 0.3447 0.0
H752 H 0.79607 0.72027 0.34127 0.0
H753 H 0.83569 0.87899 0.38799 0.0
H754 H 0.86295 0.88088 0.41857 0.0
H755 H 0.79907 0.88146 0.41586 0.0
H756 H 0.79405 0.80743 0.44515 0.0
H757 H 0.85798 0.80624 0.44762 0.0
H758 H 0.8264 0.75401 0.43702 0.0
H759 H 0.88441 0.71669 0.34555 0.0
H760 H 0.96975 0.7279 0.35439 0.0
H761 H 0.93369 0.82125 0.4166 0.0
C762 C 0.74211 0.79787 0.3953 0.0
C763 C 0.71144 0.7762 0.37753 0.0
C764 C 0.73187 0.74855 0.35799 0.0
C765 C 0.7812 0.74206 0.35611 0.0
C766 C 0.81031 0.76355 0.37387 0.0
C767 C 0.79178 0.79152 0.3929 0.0
C768 C 0.83166 0.81155 0.40905 0.0
C769 C 0.83238 0.86648 0.40779 0.0
C770 C 0.82724 0.79374 0.43633 0.0
C771 C 0.87517 0.79025 0.39613 0.0
C772 C 0.86182 0.76226 0.37605 0.0
C773 C 0.89533 0.73886 0.36112 0.0
C774 C 0.94385 0.74547 0.36629 0.0
C775 C 0.95879 0.77572 0.38604 0.0
C776 C 0.92368 0.79749 0.40149 0.0
H777 H 0.26889 0.30226 0.8628 0.0
H778 H 0.22909 0.27211 0.93986 0.0
H779 H 0.20898 0.35727 0.94607 0.0
H780 H 0.32626 0.40594 0.87304 0.0
H781 H 0.3069 0.43843 0.84561 0.0
H782 H 0.30884 0.37418 0.84512 0.0
H783 H 0.21974 0.37025 0.8331 0.0
H784 H 0.21794 0.43467 0.83269 0.0
H785 H 0.17646 0.40155 0.85195 0.0
H786 H 0.20936 0.44756 0.94634 0.0
H787 H 0.21547 0.53455 0.93847 0.0
H788 H 0.25092 0.50701 0.86045 0.0
C789 C 0.2529 0.31314 0.88043 0.0
C790 C 0.24857 0.28015 0.90058 0.0
C791 C 0.23061 0.29629 0.92391 0.0
C792 C 0.21981 0.34482 0.92769 0.0
C793 C 0.22676 0.37692 0.90784 0.0
C794 C 0.24138 0.36154 0.88437 0.0
C795 C 0.24918 0.40384 0.86674 0.0
C796 C 0.30086 0.40567 0.85707 0.0
C797 C 0.21371 0.40249 0.84483 0.0
C798 C 0.23866 0.44534 0.88423 0.0
C799 C 0.22595 0.42904 0.90788 0.0
C800 C 0.21822 0.46064 0.92773 0.0
C801 C 0.22236 0.51006 0.92316 0.0
C802 C 0.23367 0.52771 0.89887 0.0
C803 C 0.2419 0.49467 0.8792 0.0
loop_
_geom_bond_atom_site_label_1
_geom_bond_atom_site_label_2
_geom_bond_distance
_geom_bond_site_symmetry_2
_ccdc_geom_bond_type
C0 C1 1.351 . S
C0 N3 1.368 . S
C0 H5 0.931 1_455 S
C1 C0 1.351 . S
C1 N2 1.373 . S
C1 H29 0.936 . S
N2 C1 1.373 . S
N2 C4 1.340 . S
N3 C0 1.368 . S
N3 C4 1.321 . S
N3 Co6 2.135 . S
C4 N2 1.340 . S
C4 N3 1.321 . S
C4 H28 0.930 . S
H5 C0 0.931 1_655 S
Co6 N3 2.135 . S
Co6 N9 2.121 . S
Co6 O14 2.055 1_455 S
Co6 O17 2.039 . S
Co6 N20 2.140 . S
C7 O8 1.227 . S
C7 O17 1.265 . S
O8 C7 1.227 . S
N9 Co6 2.121 . S
N9 C11 1.375 . S
N9 C12 1.313 . S
C10 C11 1.338 . S
C10 N13 1.377 . S
C10 H30 0.930 . S
C11 N9 1.375 . S
C11 C10 1.338 . S
C11 H15 0.931 . S
C12 N9 1.313 . S
C12 N13 1.344 . S
C12 H16 0.930 1_455 S
N13 C10 1.377 . S
N13 C12 1.344 . S
O14 Co6 2.055 1_655 S
O14 C18 1.253 . S
H15 C11 0.931 . S
H16 C12 0.930 1_655 S
O17 Co6 2.039 . S
O17 C7 1.265 . S
C18 O14 1.253 . S
C18 O19 1.227 . S
O19 C18 1.227 . S
N20 Co6 2.140 . S
N20 C23 1.346 . S
N20 C24 1.345 . S
C21 C22 1.387 . S
C21 C25 1.391 . S
C22 C21 1.387 . S
C22 C23 1.369 . S
C22 H31 0.929 . S
C23 N20 1.346 . S
C23 C22 1.369 . S
C23 H26 0.928 . S
C24 N20 1.345 . S
C24 C25 1.371 . S
C24 H27 0.931 . S
C25 C21 1.391 . S
C25 C24 1.371 . S
C25 H32 0.930 . S
H26 C23 0.928 . S
H27 C24 0.931 . S
H28 C4 0.930 . S
H29 C1 0.936 . S
H30 C10 0.930 . S
H31 C22 0.929 . S
H32 C25 0.930 . S
C33 C34 1.351 . S
C33 N36 1.368 . S
C33 H38 0.931 . S
C34 C33 1.351 . S
C34 N35 1.373 . S
C34 H62 0.930 . S
N35 C34 1.373 . S
N35 C37 1.340 . S
N36 C33 1.368 . S
N36 C37 1.321 . S
N36 Co39 2.135 . S
C37 N35 1.340 . S
C37 N36 1.321 . S
C37 H61 0.930 . S
H38 C33 0.931 . S
Co39 N36 2.135 . S
Co39 N42 2.121 . S
Co39 O47 2.055 . S
Co39 O50 2.039 . S
Co39 N53 2.140 . S
C40 O41 1.227 . S
C40 O50 1.265 . S
O41 C40 1.227 . S
N42 Co39 2.121 . S
N42 C44 1.375 . S
N42 C45 1.313 . S
C43 C44 1.338 . S
C43 N46 1.377 . S
C43 H63 0.930 . S
C44 N42 1.375 . S
C44 C43 1.338 . S
C44 H48 0.931 . S
C45 N42 1.313 . S
C45 N46 1.344 . S
C45 H49 0.930 . S
N46 C43 1.377 . S
N46 C45 1.344 . S
O47 Co39 2.055 . S
O47 C51 1.253 . S
H48 C44 0.931 . S
H49 C45 0.930 . S
O50 Co39 2.039 . S
O50 C40 1.265 . S
C51 O47 1.253 . S
C51 O52 1.227 . S
O52 C51 1.227 . S
N53 Co39 2.140 . S
N53 C56 1.346 . S
N53 C57 1.345 . S
C54 C55 1.387 . S
C54 C58 1.391 . S
C55 C54 1.387 . S
C55 C56 1.369 . S
C55 H64 0.929 . S
C56 N53 1.346 . S
C56 C55 1.369 . S
C56 H59 0.928 . S
C57 N53 1.345 . S
C57 C58 1.371 . S
C57 H60 0.931 . S
C58 C54 1.391 . S
C58 C57 1.371 . S
C58 H65 0.930 . S
H59 C56 0.928 . S
H60 C57 0.931 . S
H61 C37 0.930 . S
H62 C34 0.930 . S
H63 C43 0.930 . S
H64 C55 0.929 . S
H65 C58 0.930 . S
C66 C67 1.351 . S
C66 N69 1.368 . S
C66 H71 0.931 . S
C67 C66 1.351 . S
C67 N68 1.373 . S
C67 H95 0.930 . S
N68 C67 1.373 . S
N68 C70 1.340 . S
N69 C66 1.368 . S
N69 C70 1.321 . S
N69 Co72 2.135 . S
C70 N68 1.340 . S
C70 N69 1.321 . S
C70 H94 0.930 . S
H71 C66 0.931 . S
Co72 N69 2.135 . S
Co72 N75 2.121 . S
Co72 O80 2.055 . S
Co72 O83 2.039 . S
Co72 N86 2.140 . S
C73 O74 1.227 . S
C73 O83 1.265 . S
O74 C73 1.227 . S
N75 Co72 2.121 . S
N75 C77 1.375 . S
N75 C78 1.313 . S
C76 C77 1.338 . S
C76 N79 1.377 . S
C76 H96 0.930 . S
C77 N75 1.375 . S
C77 C76 1.338 . S
C77 H81 0.931 . S
C78 N75 1.313 . S
C78 N79 1.344 . S
C78 H82 0.930 . S
N79 C76 1.377 . S
N79 C78 1.344 . S
O80 Co72 2.055 . S
O80 C84 1.253 . S
H81 C77 0.931 . S
H82 C78 0.930 . S
O83 Co72 2.039 . S
O83 C73 1.265 . S
C84 O80 1.253 . S
C84 O85 1.227 . S
O85 C84 1.227 . S
N86 Co72 2.140 . S
N86 C89 1.346 . S
N86 C90 1.345 . S
C87 C88 1.387 . S
C87 C91 1.391 . S
C88 C87 1.387 . S
C88 C89 1.369 . S
C88 H97 0.929 . S
C89 N86 1.346 . S
C89 C88 1.369 . S
C89 H92 0.928 . S
C90 N86 1.345 . S
C90 C91 1.371 . S
C90 H93 0.931 . S
C91 C87 1.391 . S
C91 C90 1.371 . S
C91 H98 0.930 . S
H92 C89 0.928 . S
H93 C90 0.931 . S
H94 C70 0.930 . S
H95 C67 0.930 . S
H96 C76 0.930 . S
H97 C88 0.929 . S
H98 C91 0.930 . S
C99 C100 1.351 . S
C99 N102 1.368 . S
C99 H104 0.931 . S
C100 C99 1.351 . S
C100 N101 1.373 . S
C100 H128 0.930 . S
N101 C100 1.373 . S
N101 C103 1.340 1_545 S
N102 C99 1.368 . S
N102 C103 1.321 1_545 S
N102 Co105 2.135 . S
C103 N101 1.340 1_565 S
C103 N102 1.321 1_565 S
C103 H127 0.930 . S
H104 C99 0.931 . S
Co105 N102 2.135 . S
Co105 N108 2.121 . S
Co105 O113 2.055 . S
Co105 O116 2.039 1_545 S
Co105 N119 2.140 . S
C106 O107 1.227 . S
C106 O116 1.265 . S
O107 C106 1.227 . S
N108 Co105 2.121 . S
N108 C110 1.375 1_545 S
N108 C111 1.313 . S
C109 C110 1.338 . S
C109 N112 1.377 1_565 S
C109 H129 0.930 . S
C110 N108 1.375 1_565 S
C110 C109 1.338 . S
C110 H114 0.931 . S
C111 N108 1.313 . S
C111 N112 1.344 . S
C111 H115 0.930 . S
N112 C109 1.377 1_545 S
N112 C111 1.344 . S
O113 Co105 2.055 . S
O113 C117 1.253 . S
H114 C110 0.931 . S
H115 C111 0.930 . S
O116 Co105 2.039 1_565 S
O116 C106 1.265 . S
C117 O113 1.253 . S
C117 O118 1.227 . S
O118 C117 1.227 . S
N119 Co105 2.140 . S
N119 C122 1.346 1_545 S
N119 C123 1.345 . S
C120 C121 1.387 . S
C120 C124 1.391 1_565 S
C121 C120 1.387 . S
C121 C122 1.369 . S
C121 H130 0.929 . S
C122 N119 1.346 1_565 S
C122 C121 1.369 . S
C122 H125 0.928 . S
C123 N119 1.345 . S
C123 C124 1.371 . S
C123 H126 0.931 . S
C124 C120 1.391 1_545 S
C124 C123 1.371 . S
C124 H131 0.930 . S
H125 C122 0.928 . S
H126 C123 0.931 . S
H127 C103 0.930 . S
H128 C100 0.930 . S
H129 C109 0.930 . S
H130 C121 0.929 . S
H131 C124 0.930 . S
C132 C133 1.351 . S
C132 N135 1.368 . S
C132 H137 0.931 . S
C133 C132 1.351 . S
C133 N134 1.373 . S
C133 H161 0.930 . S
N134 C133 1.373 . S
N134 C136 1.340 1_455 S
N135 C132 1.368 . S
N135 C136 1.321 1_455 S
N135 Co138 2.135 . S
C136 N134 1.340 1_655 S
C136 N135 1.321 1_655 S
C136 H160 0.930 . S
H137 C132 0.931 . S
Co138 N135 2.135 . S
Co138 N141 2.121 . S
Co138 O146 2.055 . S
Co138 O149 2.039 1_455 S
Co138 N152 2.140 . S
C139 O140 1.227 . S
C139 O149 1.265 . S
O140 C139 1.227 . S
N141 Co138 2.121 . S
N141 C143 1.375 1_455 S
N141 C144 1.313 . S
C142 C143 1.338 . S
C142 N145 1.377 1_655 S
C142 H162 0.930 . S
C143 N141 1.375 1_655 S
C143 C142 1.338 . S
C143 H147 0.931 . S
C144 N141 1.313 . S
C144 N145 1.344 . S
C144 H148 0.930 . S
N145 C142 1.377 1_455 S
N145 C144 1.344 . S
O146 Co138 2.055 . S
O146 C150 1.253 . S
H147 C143 0.931 . S
H148 C144 0.930 . S
O149 Co138 2.039 1_655 S
O149 C139 1.265 . S
C150 O146 1.253 . S
C150 O151 1.227 . S
O151 C150 1.227 . S
N152 Co138 2.140 . S
N152 C155 1.346 1_455 S
N152 C156 1.345 . S
C153 C154 1.387 . S
C153 C157 1.391 1_655 S
C154 C153 1.387 . S
C154 C155 1.369 . S
C154 H163 0.929 . S
C155 N152 1.346 1_655 S
C155 C154 1.369 . S
C155 H158 0.928 . S
C156 N152 1.345 . S
C156 C157 1.371 . S
C156 H159 0.931 . S
C157 C153 1.391 1_455 S
C157 C156 1.371 . S
C157 H164 0.930 . S
H158 C155 0.928 . S
H159 C156 0.931 . S
H160 C136 0.930 . S
H161 C133 0.930 . S
H162 C142 0.930 . S
H163 C154 0.929 . S
H164 C157 0.930 . S
C165 C166 1.351 . S
C165 N168 1.368 . S
C165 H170 0.931 . S
C166 C165 1.351 . S
C166 N167 1.373 . S
C166 H194 0.930 . S
N167 C166 1.373 . S
N167 C169 1.340 . S
N168 C165 1.368 . S
N168 C169 1.321 . S
N168 Co171 2.135 . S
C169 N167 1.340 . S
C169 N168 1.321 . S
C169 H193 0.930 . S
H170 C165 0.931 . S
Co171 N168 2.135 . S
Co171 N174 2.121 . S
Co171 O179 2.055 . S
Co171 O182 2.039 . S
Co171 N185 2.140 . S
C172 O173 1.227 . S
C172 O182 1.265 . S
O173 C172 1.227 . S
N174 Co171 2.121 . S
N174 C176 1.375 . S
N174 C177 1.313 . S
C175 C176 1.338 . S
C175 N178 1.377 . S
C175 H195 0.930 . S
C176 N174 1.375 . S
C176 C175 1.338 . S
C176 H180 0.931 . S
C177 N174 1.313 . S
C177 N178 1.344 . S
C177 H181 0.930 . S
N178 C175 1.377 . S
N178 C177 1.344 . S
O179 Co171 2.055 . S
O179 C183 1.253 . S
H180 C176 0.931 . S
H181 C177 0.930 . S
O182 Co171 2.039 . S
O182 C172 1.265 . S
C183 O179 1.253 . S
C183 O184 1.227 . S
O184 C183 1.227 . S
N185 Co171 2.140 . S
N185 C188 1.346 . S
N185 C189 1.345 . S
C186 C187 1.387 . S
C186 C190 1.391 . S
C187 C186 1.387 . S
C187 C188 1.369 . S
C187 H196 0.929 . S
C188 N185 1.346 . S
C188 C187 1.369 . S
C188 H191 0.928 . S
C189 N185 1.345 . S
C189 C190 1.371 . S
C189 H192 0.931 . S
C190 C186 1.391 . S
C190 C189 1.371 . S
C190 H197 0.930 . S
H191 C188 0.928 . S
H192 C189 0.931 . S
H193 C169 0.930 . S
H194 C166 0.930 . S
H195 C175 0.930 . S
H196 C187 0.929 . S
H197 C190 0.930 . S
C198 C199 1.351 . S
C198 N201 1.368 . S
C198 H203 0.931 . S
C199 C198 1.351 . S
C199 N200 1.373 . S
C199 H227 0.930 . S
N200 C199 1.373 . S
N200 C202 1.340 . S
N201 C198 1.368 . S
N201 C202 1.321 . S
N201 Co204 2.135 . S
C202 N200 1.340 . S
C202 N201 1.321 . S
C202 H226 0.930 . S
H203 C198 0.931 . S
Co204 N201 2.135 . S
Co204 N207 2.121 . S
Co204 O212 2.055 . S
Co204 O215 2.039 . S
Co204 N218 2.140 . S
C205 O206 1.227 . S
C205 O215 1.265 . S
O206 C205 1.227 . S
N207 Co204 2.121 . S
N207 C209 1.375 . S
N207 C210 1.313 . S
C208 C209 1.338 . S
C208 N211 1.377 . S
C208 H228 0.930 . S
C209 N207 1.375 . S
C209 C208 1.338 . S
C209 H213 0.931 . S
C210 N207 1.313 . S
C210 N211 1.344 . S
C210 H214 0.930 . S
N211 C208 1.377 . S
N211 C210 1.344 . S
O212 Co204 2.055 . S
O212 C216 1.253 . S
H213 C209 0.931 . S
H214 C210 0.930 . S
O215 Co204 2.039 . S
O215 C205 1.265 . S
C216 O212 1.253 . S
C216 O217 1.227 . S
O217 C216 1.227 . S
N218 Co204 2.140 . S
N218 C221 1.346 . S
N218 C222 1.345 . S
C219 C220 1.387 . S
C219 C223 1.391 . S
C220 C219 1.387 . S
C220 C221 1.369 . S
C220 H229 0.929 . S
C221 N218 1.346 . S
C221 C220 1.369 . S
C221 H224 0.928 . S
C222 N218 1.345 . S
C222 C223 1.371 . S
C222 H225 0.931 . S
C223 C219 1.391 . S
C223 C222 1.371 . S
C223 H230 0.930 . S
H224 C221 0.928 . S
H225 C222 0.931 . S
H226 C202 0.930 . S
H227 C199 0.930 . S
H228 C208 0.930 . S
H229 C220 0.929 . S
H230 C223 0.930 . S
C231 C232 1.351 . S
C231 N234 1.368 . S
C231 H236 0.931 1_545 S
C232 C231 1.351 . S
C232 N233 1.373 . S
C232 H260 0.924 1_545 S
N233 C232 1.373 . S
N233 C235 1.340 . S
N234 C231 1.368 . S
N234 C235 1.321 . S
N234 Co237 2.135 . S
C235 N233 1.340 . S
C235 N234 1.321 . S
C235 H259 0.930 . S
H236 C231 0.931 1_565 S
Co237 N234 2.135 . S
Co237 N240 2.121 . S
Co237 O245 2.055 1_545 S
Co237 O248 2.039 . S
Co237 N251 2.140 . S
C238 O239 1.227 . S
C238 O248 1.265 . S
O239 C238 1.227 . S
N240 Co237 2.121 . S
N240 C242 1.375 . S
N240 C243 1.313 . S
C241 C242 1.338 . S
C241 N244 1.377 . S
C241 H261 0.930 . S
C242 N240 1.375 . S
C242 C241 1.338 . S
C242 H246 0.931 . S
C243 N240 1.313 . S
C243 N244 1.344 . S
C243 H247 0.930 1_545 S
N244 C241 1.377 . S
N244 C243 1.344 . S
O245 Co237 2.055 1_565 S
O245 C249 1.253 . S
H246 C242 0.931 . S
H247 C243 0.930 1_565 S
O248 Co237 2.039 . S
O248 C238 1.265 . S
C249 O245 1.253 . S
C249 O250 1.227 . S
O250 C249 1.227 . S
N251 Co237 2.140 . S
N251 C254 1.346 . S
N251 C255 1.345 . S
C252 C253 1.387 . S
C252 C256 1.391 . S
C253 C252 1.387 . S
C253 C254 1.369 . S
C253 H262 0.929 . S
C254 N251 1.346 . S
C254 C253 1.369 . S
C254 H257 0.928 . S
C255 N251 1.345 . S
C255 C256 1.371 . S
C255 H258 0.931 . S
C256 C252 1.391 . S
C256 C255 1.371 . S
C256 H263 0.930 . S
H257 C254 0.928 . S
H258 C255 0.931 . S
H259 C235 0.930 . S
H260 C232 0.924 1_565 S
H261 C241 0.930 . S
H262 C253 0.929 . S
H263 C256 0.930 . S
H264 C276 0.930 . S
H265 C278 0.930 . S
H266 C279 0.930 . S
H267 C283 0.959 . S
H268 C283 0.959 . S
H269 C283 0.961 . S
H270 C284 0.960 . S
H271 C284 0.961 . S
H272 C284 0.959 . S
H273 C287 0.929 . S
H274 C288 0.931 . S
H275 C290 0.930 . S
C276 H264 0.930 . S
C276 C277 1.399 . S
C276 C281 1.399 1_565 S
C277 C276 1.399 . S
C277 C278 1.376 . S
C278 H265 0.930 . S
C278 C277 1.376 . S
C278 C279 1.388 . S
C279 H266 0.930 . S
C279 C278 1.388 . S
C279 C280 1.390 . S
C280 C279 1.390 . S
C280 C281 1.394 1_565 S
C280 C286 1.465 1_565 S
C281 C276 1.399 1_545 S
C281 C280 1.394 1_545 S
C281 C282 1.516 . S
C282 C281 1.516 . S
C282 C283 1.502 . S
C282 C284 1.561 1_455 S
C282 C285 1.526 . S
C283 H267 0.959 . S
C283 H268 0.959 . S
C283 H269 0.961 . S
C283 C282 1.502 . S
C284 H270 0.960 . S
C284 H271 0.961 . S
C284 H272 0.959 . S
C284 C282 1.561 1_655 S
C285 C282 1.526 . S
C285 C286 1.396 . S
C285 C290 1.390 . S
C286 C280 1.465 1_545 S
C286 C285 1.396 . S
C286 C287 1.399 . S
C287 H273 0.929 . S
C287 C286 1.399 . S
C287 C288 1.385 . S
C288 H274 0.931 . S
C288 C287 1.385 . S
C288 C289 1.389 . S
C289 C288 1.389 . S
C289 C290 1.387 . S
C290 H275 0.930 . S
C290 C285 1.390 . S
C290 C289 1.387 . S
H291 C303 0.930 . S
H292 C305 0.930 . S
H293 C306 0.930 . S
H294 C310 0.959 . S
H295 C310 0.959 . S
H296 C310 0.961 . S
H297 C311 0.960 1_655 S
H298 C311 0.961 . S
H299 C311 0.959 1_655 S
H300 C314 0.929 . S
H301 C315 0.931 . S
H302 C317 0.930 . S
C303 H291 0.930 . S
C303 C304 1.399 . S
C303 C308 1.399 1_655 S
C304 C303 1.399 . S
C304 C305 1.376 . S
C305 H292 0.930 . S
C305 C304 1.376 . S
C305 C306 1.388 . S
C306 H293 0.930 . S
C306 C305 1.388 . S
C306 C307 1.390 1_655 S
C307 C306 1.390 1_455 S
C307 C308 1.394 . S
C307 C313 1.465 1_554 S
C308 C303 1.399 1_455 S
C308 C307 1.394 . S
C308 C309 1.513 1_554 S
C309 C308 1.513 1_556 S
C309 C310 1.498 1_556 S
C309 C311 1.565 . S
C309 C312 1.529 . S
C310 H294 0.959 . S
C310 H295 0.959 . S
C310 H296 0.961 . S
C310 C309 1.498 1_554 S
C311 H297 0.960 1_455 S
C311 H298 0.961 . S
C311 H299 0.959 1_455 S
C311 C309 1.565 . S
C312 C309 1.529 . S
C312 C313 1.396 . S
C312 C317 1.390 . S
C313 C307 1.465 1_556 S
C313 C312 1.396 . S
C313 C314 1.399 . S
C314 H300 0.929 . S
C314 C313 1.399 . S
C314 C315 1.385 . S
C315 H301 0.931 . S
C315 C314 1.385 . S
C315 C316 1.389 . S
C316 C315 1.389 . S
C316 C317 1.387 . S
C317 H302 0.930 . S
C317 C312 1.390 . S
C317 C316 1.387 . S
H318 C330 0.930 . S
H319 C332 0.930 . S
H320 C333 0.930 . S
H321 C337 0.959 . S
H322 C337 0.959 . S
H323 C337 0.961 . S
H324 C338 0.960 . S
H325 C338 0.961 . S
H326 C338 0.959 . S
H327 C341 0.929 . S
H328 C342 0.931 . S
H329 C344 0.930 . S
C330 H318 0.930 . S
C330 C331 1.399 . S
C330 C335 1.399 . S
C331 C330 1.399 . S
C331 C332 1.376 . S
C332 H319 0.930 . S
C332 C331 1.376 . S
C332 C333 1.388 . S
C333 H320 0.930 . S
C333 C332 1.388 . S
C333 C334 1.390 . S
C334 C333 1.390 . S
C334 C335 1.394 . S
C334 C340 1.465 . S
C335 C330 1.399 . S
C335 C334 1.394 . S
C335 C336 1.516 . S
C336 C335 1.516 . S
C336 C337 1.502 . S
C336 C338 1.561 . S
C336 C339 1.526 . S
C337 H321 0.959 . S
C337 H322 0.959 . S
C337 H323 0.961 . S
C337 C336 1.502 . S
C338 H324 0.960 . S
C338 H325 0.961 . S
C338 H326 0.959 . S
C338 C336 1.561 . S
C339 C336 1.526 . S
C339 C340 1.396 . S
C339 C344 1.390 . S
C340 C334 1.465 . S
C340 C339 1.396 . S
C340 C341 1.399 . S
C341 H327 0.929 . S
C341 C340 1.399 . S
C341 C342 1.385 . S
C342 H328 0.931 . S
C342 C341 1.385 . S
C342 C343 1.389 . S
C343 C342 1.389 . S
C343 C344 1.387 . S
C344 H329 0.930 . S
C344 C339 1.390 . S
C344 C343 1.387 . S
H345 C357 0.930 . S
H346 C359 0.930 . S
H347 C360 0.930 1_554 S
H348 C364 0.959 . S
H349 C364 0.959 . S
H350 C364 0.961 . S
H351 C365 0.960 . S
H352 C365 0.961 . S
H353 C365 0.959 1_554 S
H354 C368 0.929 . S
H355 C369 0.931 1_565 S
H356 C371 0.930 . S
C357 H345 0.930 . S
C357 C358 1.399 . S
C357 C362 1.399 . S
C358 C357 1.399 . S
C358 C359 1.376 1_545 S
C359 H346 0.930 . S
C359 C358 1.376 1_565 S
C359 C360 1.388 . S
C360 H347 0.930 1_556 S
C360 C359 1.388 . S
C360 C361 1.390 1_565 S
C361 C360 1.390 1_545 S
C361 C362 1.394 . S
C361 C367 1.465 1_556 S
C362 C357 1.399 . S
C362 C361 1.394 . S
C362 C363 1.516 . S
C363 C362 1.516 . S
C363 C364 1.502 . S
C363 C365 1.561 . S
C363 C366 1.526 1_556 S
C364 H348 0.959 . S
C364 H349 0.959 . S
C364 H350 0.961 . S
C364 C363 1.502 . S
C365 H351 0.960 . S
C365 H352 0.961 . S
C365 H353 0.959 1_556 S
C365 C363 1.561 . S
C366 C363 1.526 1_554 S
C366 C367 1.396 . S
C366 C371 1.390 . S
C367 C361 1.465 1_554 S
C367 C366 1.396 . S
C367 C368 1.399 1_545 S
C368 H354 0.929 . S
C368 C367 1.399 1_565 S
C368 C369 1.385 1_565 S
C369 H355 0.931 1_545 S
C369 C368 1.385 1_545 S
C369 C370 1.389 . S
C370 C369 1.389 . S
C370 C371 1.387 . S
C371 H356 0.930 . S
C371 C366 1.390 . S
C371 C370 1.387 . S
H372 C384 0.930 . S
H373 C386 0.930 . S
H374 C387 0.930 . S
H375 C391 0.959 . S
H376 C391 0.959 . S
H377 C391 0.961 . S
H378 C392 0.960 1_565 S
H379 C392 0.961 . S
H380 C392 0.959 . S
H381 C395 0.929 . S
H382 C396 0.931 . S
H383 C398 0.930 . S
C384 H372 0.930 . S
C384 C385 1.399 . S
C384 C389 1.399 . S
C385 C384 1.399 . S
C385 C386 1.376 . S
C386 H373 0.930 . S
C386 C385 1.376 . S
C386 C387 1.388 . S
C387 H374 0.930 . S
C387 C386 1.388 . S
C387 C388 1.390 . S
C388 C387 1.390 . S
C388 C389 1.394 . S
C388 C394 1.465 . S
C389 C384 1.399 . S
C389 C388 1.394 . S
C389 C390 1.516 . S
C390 C389 1.516 . S
C390 C391 1.502 . S
C390 C392 1.561 . S
C390 C393 1.526 . S
C391 H375 0.959 . S
C391 H376 0.959 . S
C391 H377 0.961 . S
C391 C390 1.502 . S
C392 H378 0.960 1_545 S
C392 H379 0.961 . S
C392 H380 0.959 . S
C392 C390 1.561 . S
C393 C390 1.526 . S
C393 C394 1.396 . S
C393 C398 1.390 . S
C394 C388 1.465 . S
C394 C393 1.396 . S
C394 C395 1.399 . S
C395 H381 0.929 . S
C395 C394 1.399 . S
C395 C396 1.385 . S
C396 H382 0.931 . S
C396 C395 1.385 . S
C396 C397 1.389 . S
C397 C396 1.389 . S
C397 C398 1.387 . S
C398 H383 0.930 . S
C398 C393 1.390 . S
C398 C397 1.387 . S
H399 C411 0.930 . S
H400 C413 0.930 . S
H401 C414 0.930 . S
H402 C418 0.959 . S
H403 C418 0.959 . S
H404 C418 0.961 . S
H405 C419 0.960 . S
H406 C419 0.961 . S
H407 C419 0.959 . S
H408 C422 0.929 . S
H409 C423 0.931 . S
H410 C425 0.930 . S
C411 H399 0.930 . S
C411 C412 1.399 1_455 S
C411 C416 1.399 1_455 S
C412 C411 1.399 1_655 S
C412 C413 1.376 . S
C413 H400 0.930 . S
C413 C412 1.376 . S
C413 C414 1.388 . S
C414 H401 0.930 . S
C414 C413 1.388 . S
C414 C415 1.390 . S
C415 C414 1.390 . S
C415 C416 1.394 . S
C415 C421 1.465 . S
C416 C411 1.399 1_655 S
C416 C415 1.394 . S
C416 C417 1.516 1_655 S
C417 C416 1.516 1_455 S
C417 C418 1.502 . S
C417 C419 1.561 . S
C417 C420 1.526 1_455 S
C418 H402 0.959 . S
C418 H403 0.959 . S
C418 H404 0.961 . S
C418 C417 1.502 . S
C419 H405 0.960 . S
C419 H406 0.961 . S
C419 H407 0.959 . S
C419 C417 1.561 . S
C420 C417 1.526 1_655 S
C420 C421 1.396 . S
C420 C425 1.390 . S
C421 C415 1.465 . S
C421 C420 1.396 . S
C421 C422 1.399 . S
C422 H408 0.929 . S
C422 C421 1.399 . S
C422 C423 1.385 . S
C423 H409 0.931 . S
C423 C422 1.385 . S
C423 C424 1.389 . S
C424 C423 1.389 . S
C424 C425 1.387 . S
C425 H410 0.930 . S
C425 C420 1.390 . S
C425 C424 1.387 . S
H426 C438 0.930 . S
H427 C440 0.930 . S
H428 C441 0.930 . S
H429 C445 0.959 . S
H430 C445 0.959 . S
H431 C445 0.961 . S
H432 C446 0.960 . S
H433 C446 0.961 . S
H434 C446 0.959 . S
H435 C449 0.929 . S
H436 C450 0.931 . S
H437 C452 0.930 . S
C438 H426 0.930 . S
C438 C439 1.399 . S
C438 C443 1.399 . S
C439 C438 1.399 . S
C439 C440 1.376 . S
C440 H427 0.930 . S
C440 C439 1.376 . S
C440 C441 1.388 . S
C441 H428 0.930 . S
C441 C440 1.388 . S
C441 C442 1.390 . S
C442 C441 1.390 . S
C442 C443 1.394 . S
C442 C448 1.465 . S
C443 C438 1.399 . S
C443 C442 1.394 . S
C443 C444 1.516 . S
C444 C443 1.516 . S
C444 C445 1.502 . S
C444 C446 1.561 . S
C444 C447 1.526 . S
C445 H429 0.959 . S
C445 H430 0.959 . S
C445 H431 0.961 . S
C445 C444 1.502 . S
C446 H432 0.960 . S
C446 H433 0.961 . S
C446 H434 0.959 . S
C446 C444 1.561 . S
C447 C444 1.526 . S
C447 C448 1.396 . S
C447 C452 1.390 . S
C448 C442 1.465 . S
C448 C447 1.396 . S
C448 C449 1.399 . S
C449 H435 0.929 . S
C449 C448 1.399 . S
C449 C450 1.385 . S
C450 H436 0.931 . S
C450 C449 1.385 . S
C450 C451 1.389 . S
C451 C450 1.389 . S
C451 C452 1.387 . S
C452 H437 0.930 . S
C452 C447 1.390 . S
C452 C451 1.387 . S
H453 C465 0.930 . S
H454 C467 0.930 . S
H455 C468 0.930 . S
H456 C472 0.959 . S
H457 C472 0.959 . S
H458 C472 0.961 . S
H459 C473 0.960 . S
H460 C473 0.961 . S
H461 C473 0.959 . S
H462 C476 0.929 . S
H463 C477 0.931 . S
H464 C479 0.930 . S
C465 H453 0.930 . S
C465 C466 1.399 . S
C465 C470 1.399 . S
C466 C465 1.399 . S
C466 C467 1.376 . S
C467 H454 0.930 . S
C467 C466 1.376 . S
C467 C468 1.388 . S
C468 H455 0.930 . S
C468 C467 1.388 . S
C468 C469 1.390 . S
C469 C468 1.390 . S
C469 C470 1.394 . S
C469 C475 1.465 . S
C470 C465 1.399 . S
C470 C469 1.394 . S
C470 C471 1.516 . S
C471 C470 1.516 . S
C471 C472 1.502 . S
C471 C473 1.561 . S
C471 C474 1.526 . S
C472 H456 0.959 . S
C472 H457 0.959 . S
C472 H458 0.961 . S
C472 C471 1.502 . S
C473 H459 0.960 . S
C473 H460 0.961 . S
C473 H461 0.959 . S
C473 C471 1.561 . S
C474 C471 1.526 . S
C474 C475 1.396 . S
C474 C479 1.390 . S
C475 C469 1.465 . S
C475 C474 1.396 . S
C475 C476 1.399 1_565 S
C476 H462 0.929 . S
C476 C475 1.399 1_545 S
C476 C477 1.385 . S
C477 H463 0.931 . S
C477 C476 1.385 . S
C477 C478 1.389 1_545 S
C478 C477 1.389 1_565 S
C478 C479 1.387 . S
C479 H464 0.930 . S
C479 C474 1.390 . S
C479 C478 1.387 . S
H480 C492 0.930 . S
H481 C494 0.930 1_455 S
H482 C495 0.930 . S
H483 C499 0.959 1_565 S
H484 C499 0.959 . S
H485 C499 0.961 . S
H486 C500 0.960 . S
H487 C500 0.961 . S
H488 C500 0.959 . S
H489 C503 0.929 . S
H490 C504 0.931 . S
H491 C506 0.930 . S
C492 H480 0.930 . S
C492 C493 1.399 . S
C492 C497 1.399 . S
C493 C492 1.399 . S
C493 C494 1.376 . S
C494 H481 0.930 1_655 S
C494 C493 1.376 . S
C494 C495 1.388 . S
C495 H482 0.930 . S
C495 C494 1.388 . S
C495 C496 1.390 . S
C496 C495 1.390 . S
C496 C497 1.394 . S
C496 C502 1.465 . S
C497 C492 1.399 . S
C497 C496 1.394 . S
C497 C498 1.516 1_565 S
C498 C497 1.516 1_545 S
C498 C499 1.502 . S
C498 C500 1.561 . S
C498 C501 1.526 1_545 S
C499 H483 0.959 1_545 S
C499 H484 0.959 . S
C499 H485 0.961 . S
C499 C498 1.502 . S
C500 H486 0.960 . S
C500 H487 0.961 . S
C500 H488 0.959 . S
C500 C498 1.561 . S
C501 C498 1.526 1_565 S
C501 C502 1.396 . S
C501 C506 1.390 1_565 S
C502 C496 1.465 . S
C502 C501 1.396 . S
C502 C503 1.399 . S
C503 H489 0.929 . S
C503 C502 1.399 . S
C503 C504 1.385 . S
C504 H490 0.931 . S
C504 C503 1.385 . S
C504 C505 1.389 . S
C505 C504 1.389 . S
C505 C506 1.387 1_565 S
C506 H491 0.930 . S
C506 C501 1.390 1_545 S
C506 C505 1.387 1_545 S
H507 C519 0.930 . S
H508 C521 0.930 . S
H509 C522 0.930 . S
H510 C526 0.959 . S
H511 C526 0.959 . S
H512 C526 0.961 . S
H513 C527 0.960 . S
H514 C527 0.961 . S
H515 C527 0.959 . S
H516 C530 0.929 . S
H517 C531 0.931 . S
H518 C533 0.930 . S
C519 H507 0.930 . S
C519 C520 1.399 . S
C519 C524 1.399 . S
C520 C519 1.399 . S
C520 C521 1.376 . S
C521 H508 0.930 . S
C521 C520 1.376 . S
C521 C522 1.388 . S
C522 H509 0.930 . S
C522 C521 1.388 . S
C522 C523 1.390 . S
C523 C522 1.390 . S
C523 C524 1.394 . S
C523 C529 1.465 . S
C524 C519 1.399 . S
C524 C523 1.394 . S
C524 C525 1.516 . S
C525 C524 1.516 . S
C525 C526 1.502 . S
C525 C527 1.561 . S
C525 C528 1.526 . S
C526 H510 0.959 . S
C526 H511 0.959 . S
C526 H512 0.961 . S
C526 C525 1.502 . S
C527 H513 0.960 . S
C527 H514 0.961 . S
C527 H515 0.959 . S
C527 C525 1.561 . S
C528 C525 1.526 . S
C528 C529 1.396 . S
C528 C533 1.390 . S
C529 C523 1.465 . S
C529 C528 1.396 . S
C529 C530 1.399 . S
C530 H516 0.929 . S
C530 C529 1.399 . S
C530 C531 1.385 . S
C531 H517 0.931 . S
C531 C530 1.385 . S
C531 C532 1.389 . S
C532 C531 1.389 . S
C532 C533 1.387 . S
C533 H518 0.930 . S
C533 C528 1.390 . S
C533 C532 1.387 . S
H534 C546 0.930 . S
H535 C548 0.930 . S
H536 C549 0.930 . S
H537 C553 0.959 . S
H538 C553 0.959 . S
H539 C553 0.961 . S
H540 C554 0.960 . S
H541 C554 0.961 . S
H542 C554 0.959 . S
H543 C557 0.929 . S
H544 C558 0.931 . S
H545 C560 0.930 . S
C546 H534 0.930 . S
C546 C547 1.399 . S
C546 C551 1.399 . S
C547 C546 1.399 . S
C547 C548 1.376 . S
C548 H535 0.930 . S
C548 C547 1.376 . S
C548 C549 1.388 . S
C549 H536 0.930 . S
C549 C548 1.388 . S
C549 C550 1.390 . S
C550 C549 1.390 . S
C550 C551 1.394 . S
C550 C556 1.465 . S
C551 C546 1.399 . S
C551 C550 1.394 . S
C551 C552 1.516 . S
C552 C551 1.516 . S
C552 C553 1.502 . S
C552 C554 1.561 . S
C552 C555 1.526 . S
C553 H537 0.959 . S
C553 H538 0.959 . S
C553 H539 0.961 . S
C553 C552 1.502 . S
C554 H540 0.960 . S
C554 H541 0.961 . S
C554 H542 0.959 . S
C554 C552 1.561 . S
C555 C552 1.526 . S
C555 C556 1.396 . S
C555 C560 1.390 . S
C556 C550 1.465 . S
C556 C555 1.396 . S
C556 C557 1.399 . S
C557 H543 0.929 . S
C557 C556 1.399 . S
C557 C558 1.385 . S
C558 H544 0.931 . S
C558 C557 1.385 . S
C558 C559 1.389 . S
C559 C558 1.389 . S
C559 C560 1.387 . S
C560 H545 0.930 . S
C560 C555 1.390 . S
C560 C559 1.387 . S
H561 C573 0.930 . S
H562 C575 0.930 . S
H563 C576 0.930 . S
H564 C580 0.959 . S
H565 C580 0.959 . S
H566 C580 0.961 . S
H567 C581 0.960 . S
H568 C581 0.961 . S
H569 C581 0.959 . S
H570 C584 0.929 . S
H571 C585 0.931 . S
H572 C587 0.930 . S
C573 H561 0.930 . S
C573 C574 1.399 . S
C573 C578 1.399 . S
C574 C573 1.399 . S
C574 C575 1.376 . S
C575 H562 0.930 . S
C575 C574 1.376 . S
C575 C576 1.388 . S
C576 H563 0.930 . S
C576 C575 1.388 . S
C576 C577 1.390 . S
C577 C576 1.390 . S
C577 C578 1.394 . S
C577 C583 1.465 . S
C578 C573 1.399 . S
C578 C577 1.394 . S
C578 C579 1.516 . S
C579 C578 1.516 . S
C579 C580 1.502 . S
C579 C581 1.561 . S
C579 C582 1.526 . S
C580 H564 0.959 . S
C580 H565 0.959 . S
C580 H566 0.961 . S
C580 C579 1.502 . S
C581 H567 0.960 . S
C581 H568 0.961 . S
C581 H569 0.959 . S
C581 C579 1.561 . S
C582 C579 1.526 . S
C582 C583 1.396 . S
C582 C587 1.390 . S
C583 C577 1.465 . S
C583 C582 1.396 . S
C583 C584 1.399 . S
C584 H570 0.929 . S
C584 C583 1.399 . S
C584 C585 1.385 . S
C585 H571 0.931 . S
C585 C584 1.385 . S
C585 C586 1.389 . S
C586 C585 1.389 . S
C586 C587 1.387 . S
C587 H572 0.930 . S
C587 C582 1.390 . S
C587 C586 1.387 . S
H588 C600 0.930 . S
H589 C602 0.930 . S
H590 C603 0.930 . S
H591 C607 0.959 . S
H592 C607 0.959 . S
H593 C607 0.961 . S
H594 C608 0.960 . S
H595 C608 0.961 . S
H596 C608 0.959 . S
H597 C611 0.929 . S
H598 C612 0.931 . S
H599 C614 0.930 . S
C600 H588 0.930 . S
C600 C601 1.399 . S
C600 C605 1.399 . S
C601 C600 1.399 . S
C601 C602 1.376 . S
C602 H589 0.930 . S
C602 C601 1.376 . S
C602 C603 1.388 . S
C603 H590 0.930 . S
C603 C602 1.388 . S
C603 C604 1.390 . S
C604 C603 1.390 . S
C604 C605 1.394 . S
C604 C610 1.465 . S
C605 C600 1.399 . S
C605 C604 1.394 . S
C605 C606 1.516 . S
C606 C605 1.516 . S
C606 C607 1.502 . S
C606 C608 1.561 . S
C606 C609 1.526 . S
C607 H591 0.959 . S
C607 H592 0.959 . S
C607 H593 0.961 . S
C607 C606 1.502 . S
C608 H594 0.960 . S
C608 H595 0.961 . S
C608 H596 0.959 . S
C608 C606 1.561 . S
C609 C606 1.526 . S
C609 C610 1.396 . S
C609 C614 1.390 . S
C610 C604 1.465 . S
C610 C609 1.396 . S
C610 C611 1.399 . S
C611 H597 0.929 . S
C611 C610 1.399 . S
C611 C612 1.385 . S
C612 H598 0.931 . S
C612 C611 1.385 . S
C612 C613 1.389 . S
C613 C612 1.389 . S
C613 C614 1.387 . S
C614 H599 0.930 . S
C614 C609 1.390 . S
C614 C613 1.387 . S
H615 C627 0.930 . S
H616 C629 0.930 . S
H617 C630 0.930 . S
H618 C634 0.959 . S
H619 C634 0.959 . S
H620 C634 0.961 . S
H621 C635 0.960 . S
H622 C635 0.961 . S
H623 C635 0.959 . S
H624 C638 0.929 . S
H625 C639 0.931 . S
H626 C641 0.930 . S
C627 H615 0.930 . S
C627 C628 1.399 . S
C627 C632 1.399 . S
C628 C627 1.399 . S
C628 C629 1.376 . S
C629 H616 0.930 . S
C629 C628 1.376 . S
C629 C630 1.388 . S
C630 H617 0.930 . S
C630 C629 1.388 . S
C630 C631 1.390 . S
C631 C630 1.390 . S
C631 C632 1.394 . S
C631 C637 1.465 . S
C632 C627 1.399 . S
C632 C631 1.394 . S
C632 C633 1.516 . S
C633 C632 1.516 . S
C633 C634 1.502 . S
C633 C635 1.561 . S
C633 C636 1.526 . S
C634 H618 0.959 . S
C634 H619 0.959 . S
C634 H620 0.961 . S
C634 C633 1.502 . S
C635 H621 0.960 . S
C635 H622 0.961 . S
C635 H623 0.959 . S
C635 C633 1.561 . S
C636 C633 1.526 . S
C636 C637 1.396 . S
C636 C641 1.390 . S
C637 C631 1.465 . S
C637 C636 1.396 . S
C637 C638 1.399 . S
C638 H624 0.929 . S
C638 C637 1.399 . S
C638 C639 1.385 . S
C639 H625 0.931 . S
C639 C638 1.385 . S
C639 C640 1.389 . S
C640 C639 1.389 . S
C640 C641 1.387 . S
C641 H626 0.930 . S
C641 C636 1.390 . S
C641 C640 1.387 . S
H642 C654 0.930 . S
H643 C656 0.930 . S
H644 C657 0.930 . S
H645 C661 0.959 . S
H646 C661 0.959 . S
H647 C661 0.961 . S
H648 C662 0.960 . S
H649 C662 0.961 . S
H650 C662 0.959 . S
H651 C665 0.929 . S
H652 C666 0.931 . S
H653 C668 0.930 . S
C654 H642 0.930 . S
C654 C655 1.399 . S
C654 C659 1.399 . S
C655 C654 1.399 . S
C655 C656 1.376 . S
C656 H643 0.930 . S
C656 C655 1.376 . S
C656 C657 1.388 . S
C657 H644 0.930 . S
C657 C656 1.388 . S
C657 C658 1.390 . S
C658 C657 1.390 . S
C658 C659 1.394 . S
C658 C664 1.465 . S
C659 C654 1.399 . S
C659 C658 1.394 . S
C659 C660 1.516 . S
C660 C659 1.516 . S
C660 C661 1.502 . S
C660 C662 1.561 . S
C660 C663 1.526 . S
C661 H645 0.959 . S
C661 H646 0.959 . S
C661 H647 0.961 . S
C661 C660 1.502 . S
C662 H648 0.960 . S
C662 H649 0.961 . S
C662 H650 0.959 . S
C662 C660 1.561 . S
C663 C660 1.526 . S
C663 C664 1.396 . S
C663 C668 1.390 . S
C664 C658 1.465 . S
C664 C663 1.396 . S
C664 C665 1.399 . S
C665 H651 0.929 . S
C665 C664 1.399 . S
C665 C666 1.385 . S
C666 H652 0.931 . S
C666 C665 1.385 . S
C666 C667 1.389 . S
C667 C666 1.389 . S
C667 C668 1.387 . S
C668 H653 0.930 . S
C668 C663 1.390 . S
C668 C667 1.387 . S
H669 C681 0.930 . S
H670 C683 0.930 . S
H671 C684 0.930 . S
H672 C688 0.959 . S
H673 C688 0.959 . S
H674 C688 0.961 . S
H675 C689 0.960 . S
H676 C689 0.961 . S
H677 C689 0.959 . S
H678 C692 0.929 . S
H679 C693 0.931 . S
H680 C695 0.930 . S
C681 H669 0.930 . S
C681 C682 1.399 . S
C681 C686 1.399 . S
C682 C681 1.399 . S
C682 C683 1.376 . S
C683 H670 0.930 . S
C683 C682 1.376 . S
C683 C684 1.388 . S
C684 H671 0.930 . S
C684 C683 1.388 . S
C684 C685 1.390 . S
C685 C684 1.390 . S
C685 C686 1.394 . S
C685 C691 1.465 . S
C686 C681 1.399 . S
C686 C685 1.394 . S
C686 C687 1.516 . S
C687 C686 1.516 . S
C687 C688 1.502 . S
C687 C689 1.561 . S
C687 C690 1.526 . S
C688 H672 0.959 . S
C688 H673 0.959 . S
C688 H674 0.961 . S
C688 C687 1.502 . S
C689 H675 0.960 . S
C689 H676 0.961 . S
C689 H677 0.959 . S
C689 C687 1.561 . S
C690 C687 1.526 . S
C690 C691 1.396 . S
C690 C695 1.390 . S
C691 C685 1.465 . S
C691 C690 1.396 . S
C691 C692 1.399 . S
C692 H678 0.929 . S
C692 C691 1.399 . S
C692 C693 1.385 . S
C693 H679 0.931 . S
C693 C692 1.385 . S
C693 C694 1.389 . S
C694 C693 1.389 . S
C694 C695 1.387 . S
C695 H680 0.930 . S
C695 C690 1.390 . S
C695 C694 1.387 . S
H696 C708 0.930 . S
H697 C710 0.930 . S
H698 C711 0.930 . S
H699 C715 0.959 . S
H700 C715 0.959 . S
H701 C715 0.961 . S
H702 C716 0.960 . S
H703 C716 0.961 . S
H704 C716 0.959 . S
H705 C719 0.929 . S
H706 C720 0.931 . S
H707 C722 0.930 . S
C708 H696 0.930 . S
C708 C709 1.399 . S
C708 C713 1.399 . S
C709 C708 1.399 . S
C709 C710 1.376 . S
C710 H697 0.930 . S
C710 C709 1.376 . S
C710 C711 1.388 . S
C711 H698 0.930 . S
C711 C710 1.388 . S
C711 C712 1.390 . S
C712 C711 1.390 . S
C712 C713 1.394 . S
C712 C718 1.465 . S
C713 C708 1.399 . S
C713 C712 1.394 . S
C713 C714 1.516 . S
C714 C713 1.516 . S
C714 C715 1.502 . S
C714 C716 1.561 . S
C714 C717 1.526 . S
C715 H699 0.959 . S
C715 H700 0.959 . S
C715 H701 0.961 . S
C715 C714 1.502 . S
C716 H702 0.960 . S
C716 H703 0.961 . S
C716 H704 0.959 . S
C716 C714 1.561 . S
C717 C714 1.526 . S
C717 C718 1.396 . S
C717 C722 1.390 . S
C718 C712 1.465 . S
C718 C717 1.396 . S
C718 C719 1.399 . S
C719 H705 0.929 . S
C719 C718 1.399 . S
C719 C720 1.385 . S
C720 H706 0.931 . S
C720 C719 1.385 . S
C720 C721 1.389 . S
C721 C720 1.389 . S
C721 C722 1.387 . S
C722 H707 0.930 . S
C722 C717 1.390 . S
C722 C721 1.387 . S
H723 C735 0.930 . S
H724 C737 0.930 . S
H725 C738 0.930 . S
H726 C742 0.959 . S
H727 C742 0.959 . S
H728 C742 0.961 . S
H729 C743 0.960 . S
H730 C743 0.961 . S
H731 C743 0.959 . S
H732 C746 0.929 . S
H733 C747 0.931 . S
H734 C749 0.930 . S
C735 H723 0.930 . S
C735 C736 1.399 . S
C735 C740 1.399 . S
C736 C735 1.399 . S
C736 C737 1.376 . S
C737 H724 0.930 . S
C737 C736 1.376 . S
C737 C738 1.388 . S
C738 H725 0.930 . S
C738 C737 1.388 . S
C738 C739 1.390 . S
C739 C738 1.390 . S
C739 C740 1.394 . S
C739 C745 1.465 . S
C740 C735 1.399 . S
C740 C739 1.394 . S
C740 C741 1.516 . S
C741 C740 1.516 . S
C741 C742 1.502 . S
C741 C743 1.561 . S
C741 C744 1.526 . S
C742 H726 0.959 . S
C742 H727 0.959 . S
C742 H728 0.961 . S
C742 C741 1.502 . S
C743 H729 0.960 . S
C743 H730 0.961 . S
C743 H731 0.959 . S
C743 C741 1.561 . S
C744 C741 1.526 . S
C744 C745 1.396 . S
C744 C749 1.390 . S
C745 C739 1.465 . S
C745 C744 1.396 . S
C745 C746 1.399 . S
C746 H732 0.929 . S
C746 C745 1.399 . S
C746 C747 1.385 . S
C747 H733 0.931 . S
C747 C746 1.385 . S
C747 C748 1.389 . S
C748 C747 1.389 . S
C748 C749 1.387 . S
C749 H734 0.930 . S
C749 C744 1.390 . S
C749 C748 1.387 . S
H750 C762 0.930 . S
H751 C764 0.930 . S
H752 C765 0.930 . S
H753 C769 0.959 . S
H754 C769 0.959 . S
H755 C769 0.961 . S
H756 C770 0.960 . S
H757 C770 0.961 . S
H758 C770 0.959 . S
H759 C773 0.929 . S
H760 C774 0.931 . S
H761 C776 0.930 . S
C762 H750 0.930 . S
C762 C763 1.399 . S
C762 C767 1.399 . S
C763 C762 1.399 . S
C763 C764 1.376 . S
C764 H751 0.930 . S
C764 C763 1.376 . S
C764 C765 1.388 . S
C765 H752 0.930 . S
C765 C764 1.388 . S
C765 C766 1.390 . S
C766 C765 1.390 . S
C766 C767 1.394 . S
C766 C772 1.465 . S
C767 C762 1.399 . S
C767 C766 1.394 . S
C767 C768 1.516 . S
C768 C767 1.516 . S
C768 C769 1.502 . S
C768 C770 1.561 . S
C768 C771 1.526 . S
C769 H753 0.959 . S
C769 H754 0.959 . S
C769 H755 0.961 . S
C769 C768 1.502 . S
C770 H756 0.960 . S
C770 H757 0.961 . S
C770 H758 0.959 . S
C770 C768 1.561 . S
C771 C768 1.526 . S
C771 C772 1.396 . S
C771 C776 1.390 . S
C772 C766 1.465 . S
C772 C771 1.396 . S
C772 C773 1.399 . S
C773 H759 0.929 . S
C773 C772 1.399 . S
C773 C774 1.385 . S
C774 H760 0.931 . S
C774 C773 1.385 . S
C774 C775 1.389 . S
C775 C774 1.389 . S
C775 C776 1.387 . S
C776 H761 0.930 . S
C776 C771 1.390 . S
C776 C775 1.387 . S
H777 C789 0.930 . S
H778 C791 0.930 . S
H779 C792 0.930 . S
H780 C796 0.959 . S
H781 C796 0.959 . S
H782 C796 0.961 . S
H783 C797 0.960 . S
H784 C797 0.961 . S
H785 C797 0.959 . S
H786 C800 0.929 . S
H787 C801 0.931 . S
H788 C803 0.930 . S
C789 H777 0.930 . S
C789 C790 1.399 . S
C789 C794 1.399 . S
C790 C789 1.399 . S
C790 C791 1.376 . S
C791 H778 0.930 . S
C791 C790 1.376 . S
C791 C792 1.388 . S
C792 H779 0.930 . S
C792 C791 1.388 . S
C792 C793 1.390 . S
C793 C792 1.390 . S
C793 C794 1.394 . S
C793 C799 1.465 . S
C794 C789 1.399 . S
C794 C793 1.394 . S
C794 C795 1.516 . S
C795 C794 1.516 . S
C795 C796 1.502 . S
C795 C797 1.561 . S
C795 C798 1.526 . S
C796 H780 0.959 . S
C796 H781 0.959 . S
C796 H782 0.961 . S
C796 C795 1.502 . S
C797 H783 0.960 . S
C797 H784 0.961 . S
C797 H785 0.959 . S
C797 C795 1.561 . S
C798 C795 1.526 . S
C798 C799 1.396 . S
C798 C803 1.390 . S
C799 C793 1.465 . S
C799 C798 1.396 . S
C799 C800 1.399 . S
C800 H786 0.929 . S
C800 C799 1.399 . S
C800 C801 1.385 . S
C801 H787 0.931 . S
C801 C800 1.385 . S
C801 C802 1.389 . S
C802 C801 1.389 . S
C802 C803 1.387 . S
C803 H788 0.930 . S
C803 C798 1.390 . S
C803 C802 1.387 . S
C277 N145 1.604 . S
C289 N13 1.605 . S
C304 N46 1.577 . S
C316 N178 1.652 . S
C331 N79 1.579 . S
C343 N211 1.634 . S
C358 N244 1.634 . S
C370 N112 1.579 . S
C385 N233 0.765 . S
C397 C21 0.652 . S
C412 N134 0.770 1_655 S
C424 C54 0.629 . S
C439 N167 0.687 . S
C451 C87 0.741 . S
C466 N200 0.684 . S
C478 C120 0.744 . S
C493 C153 0.658 . S
C505 N101 0.767 1_565 S
C520 C186 0.754 . S
C532 N2 0.715 . S
C547 C219 0.647 . S
C559 N35 0.765 . S
C574 C252 0.757 . S
C586 N68 0.635 . S
C601 C18 1.546 . S
C613 C84 1.515 . S
C628 C51 1.550 . S
C640 C117 1.527 . S
C655 C216 1.525 . S
C667 C150 1.547 . S
C682 C249 1.518 . S
C694 C183 1.549 . S
C709 C73 1.014 . S
C721 C7 1.095 . S
C736 C40 1.005 . S
C748 C106 0.936 . S
C763 C205 0.932 . S
C775 C139 0.980 . S
C790 C238 1.095 . S
C802 C172 1.042 . S
