# Generated by pormake.
# Topology unw, (4)-cn, num edge types: 1
# Building blocks:
#     Node 0, Type 0, BuildingBlock: MUDLON_clean_sbu_0, # of connection points: 4
#     Node 1, Type 0, BuildingBlock: MUDLON_clean_sbu_0, # of connection points: 4
#     Node 2, Type 0, BuildingBlock: MUDLON_clean_sbu_0, # of connection points: 4
#     Node 3, Type 0, BuildingBlock: MUDLON_clean_sbu_0, # of connection points: 4
#     Node 4, Type 0, BuildingBlock: MUDLON_clean_sbu_0, # of connection points: 4
#     Node 5, Type 0, BuildingBlock: MUDLON_clean_sbu_0, # of connection points: 4
#     Node 6, Type 0, BuildingBlock: MUDLON_clean_sbu_0, # of connection points: 4
#     Node 7, Type 0, BuildingBlock: MUDLON_clean_sbu_0, # of connection points: 4
#     Node 8, Type 0, BuildingBlock: MUDLON_clean_sbu_0, # of connection points: 4
#     Node 9, Type 0, BuildingBlock: MUDLON_clean_sbu_0, # of connection points: 4
#     Node 10, Type 0, BuildingBlock: MUDLON_clean_sbu_0, # of connection points: 4
#     Node 11, Type 0, BuildingBlock: MUDLON_clean_sbu_0, # of connection points: 4
#     Node 12, Type 0, BuildingBlock: MUDLON_clean_sbu_0, # of connection points: 4
#     Node 13, Type 0, BuildingBlock: MUDLON_clean_sbu_0, # of connection points: 4
#     Node 14, Type 0, BuildingBlock: MUDLON_clean_sbu_0, # of connection points: 4
#     Node 15, Type 0, BuildingBlock: MUDLON_clean_sbu_0, # of connection points: 4
#     Node 16, Type 0, BuildingBlock: MUDLON_clean_sbu_0, # of connection points: 4
#     Node 17, Type 0, BuildingBlock: MUDLON_clean_sbu_0, # of connection points: 4
#     Node 18, Type 0, BuildingBlock: MUDLON_clean_sbu_0, # of connection points: 4
#     Node 19, Type 0, BuildingBlock: MUDLON_clean_sbu_0, # of connection points: 4
#     Node 20, Type 0, BuildingBlock: MUDLON_clean_sbu_0, # of connection points: 4
#     Node 21, Type 0, BuildingBlock: MUDLON_clean_sbu_0, # of connection points: 4
#     Node 22, Type 0, BuildingBlock: MUDLON_clean_sbu_0, # of connection points: 4
#     Node 23, Type 0, BuildingBlock: MUDLON_clean_sbu_0, # of connection points: 4
#     Edge 24, Type (0, 0), BuildingBlock: CIFDUS_clean_linker_0, # of connection points: 2
#     Edge 25, Type (0, 0), BuildingBlock: CIFDUS_clean_linker_0, # of connection points: 2
#     Edge 26, Type (0, 0), BuildingBlock: CIFDUS_clean_linker_0, # of connection points: 2
#     Edge 27, Type (0, 0), BuildingBlock: CIFDUS_clean_linker_0, # of connection points: 2
#     Edge 28, Type (0, 0), BuildingBlock: CIFDUS_clean_linker_0, # of connection points: 2
#     Edge 29, Type (0, 0), BuildingBlock: CIFDUS_clean_linker_0, # of connection points: 2
#     Edge 30, Type (0, 0), BuildingBlock: CIFDUS_clean_linker_0, # of connection points: 2
#     Edge 31, Type (0, 0), BuildingBlock: CIFDUS_clean_linker_0, # of connection points: 2
#     Edge 32, Type (0, 0), BuildingBlock: CIFDUS_clean_linker_0, # of connection points: 2
#     Edge 33, Type (0, 0), BuildingBlock: CIFDUS_clean_linker_0, # of connection points: 2
#     Edge 34, Type (0, 0), BuildingBlock: CIFDUS_clean_linker_0, # of connection points: 2
#     Edge 35, Type (0, 0), BuildingBlock: CIFDUS_clean_linker_0, # of connection points: 2
#     Edge 36, Type (0, 0), BuildingBlock: CIFDUS_clean_linker_0, # of connection points: 2
#     Edge 37, Type (0, 0), BuildingBlock: CIFDUS_clean_linker_0, # of connection points: 2
#     Edge 38, Type (0, 0), BuildingBlock: CIFDUS_clean_linker_0, # of connection points: 2
#     Edge 39, Type (0, 0), BuildingBlock: CIFDUS_clean_linker_0, # of connection points: 2
#     Edge 40, Type (0, 0), BuildingBlock: CIFDUS_clean_linker_0, # of connection points: 2
#     Edge 41, Type (0, 0), BuildingBlock: CIFDUS_clean_linker_0, # of connection points: 2
#     Edge 42, Type (0, 0), BuildingBlock: CIFDUS_clean_linker_0, # of connection points: 2
#     Edge 43, Type (0, 0), BuildingBlock: CIFDUS_clean_linker_0, # of connection points: 2
#     Edge 44, Type (0, 0), BuildingBlock: CIFDUS_clean_linker_0, # of connection points: 2
#     Edge 45, Type (0, 0), BuildingBlock: CIFDUS_clean_linker_0, # of connection points: 2
#     Edge 46, Type (0, 0), BuildingBlock: CIFDUS_clean_linker_0, # of connection points: 2
#     Edge 47, Type (0, 0), BuildingBlock: CIFDUS_clean_linker_0, # of connection points: 2
#     Edge 48, Type (0, 0), BuildingBlock: CIFDUS_clean_linker_0, # of connection points: 2
#     Edge 49, Type (0, 0), BuildingBlock: CIFDUS_clean_linker_0, # of connection points: 2
#     Edge 50, Type (0, 0), BuildingBlock: CIFDUS_clean_linker_0, # of connection points: 2
#     Edge 51, Type (0, 0), BuildingBlock: CIFDUS_clean_linker_0, # of connection points: 2
#     Edge 52, Type (0, 0), BuildingBlock: CIFDUS_clean_linker_0, # of connection points: 2
#     Edge 53, Type (0, 0), BuildingBlock: CIFDUS_clean_linker_0, # of connection points: 2
#     Edge 54, Type (0, 0), BuildingBlock: CIFDUS_clean_linker_0, # of connection points: 2
#     Edge 55, Type (0, 0), BuildingBlock: CIFDUS_clean_linker_0, # of connection points: 2
#     Edge 56, Type (0, 0), BuildingBlock: CIFDUS_clean_linker_0, # of connection points: 2
#     Edge 57, Type (0, 0), BuildingBlock: CIFDUS_clean_linker_0, # of connection points: 2
#     Edge 58, Type (0, 0), BuildingBlock: CIFDUS_clean_linker_0, # of connection points: 2
#     Edge 59, Type (0, 0), BuildingBlock: CIFDUS_clean_linker_0, # of connection points: 2
#     Edge 60, Type (0, 0), BuildingBlock: CIFDUS_clean_linker_0, # of connection points: 2
#     Edge 61, Type (0, 0), BuildingBlock: CIFDUS_clean_linker_0, # of connection points: 2
#     Edge 62, Type (0, 0), BuildingBlock: CIFDUS_clean_linker_0, # of connection points: 2
#     Edge 63, Type (0, 0), BuildingBlock: CIFDUS_clean_linker_0, # of connection points: 2
#     Edge 64, Type (0, 0), BuildingBlock: CIFDUS_clean_linker_0, # of connection points: 2
#     Edge 65, Type (0, 0), BuildingBlock: CIFDUS_clean_linker_0, # of connection points: 2
#     Edge 66, Type (0, 0), BuildingBlock: CIFDUS_clean_linker_0, # of connection points: 2
#     Edge 67, Type (0, 0), BuildingBlock: CIFDUS_clean_linker_0, # of connection points: 2
#     Edge 68, Type (0, 0), BuildingBlock: CIFDUS_clean_linker_0, # of connection points: 2
#     Edge 69, Type (0, 0), BuildingBlock: CIFDUS_clean_linker_0, # of connection points: 2
#     Edge 70, Type (0, 0), BuildingBlock: CIFDUS_clean_linker_0, # of connection points: 2
#     Edge 71, Type (0, 0), BuildingBlock: CIFDUS_clean_linker_0, # of connection points: 2
# Relax obj value: 0.471
# Max RMSD: 0.264
# Mean RMSD: 0.264
data_MOF--net-unw--node1-MUDLON_clean_sbu_0--edge1-CIFDUS_clean_linker_0
_symmetry_space_group_name_H-M    P1
_symmetry_Int_Tables_number       1
_symmetry_cell_setting            triclinic
loop_
_symmetry_equiv_pos_as_xyz
'x, y, z'
_cell_length_a     44.604405
_cell_length_b     42.972316
_cell_length_c     42.991718
_cell_angle_alpha  90.029909
_cell_angle_beta   89.899191
_cell_angle_gamma 90.057828
loop_
_atom_site_label
_atom_site_type_symbol
_atom_site_fract_x
_atom_site_fract_y
_atom_site_fract_z
_atom_type_partial_charge
Mg0 Mg 0.09304 0.36664 0.26973 0.0
C1 C 0.11402 0.30804 0.29647 0.0
O2 O 0.09306 0.29942 0.27682 0.0
C3 C 0.13861 0.41824 0.27307 0.0
O4 O 0.15413 0.39451 0.28357 0.0
C5 C 0.04325 0.35388 0.31432 0.0
O6 O 0.06656 0.35873 0.33233 0.0
O7 O 0.0465 0.35771 0.28506 0.0
O8 O 0.11938 0.33695 0.29982 0.0
O9 O 0.10663 0.34693 0.22525 0.0
C10 C 0.12101 0.3644 0.20654 0.0
O11 O 0.11821 0.39467 0.20912 0.0
O12 O 0.11062 0.4146 0.26823 0.0
Mg13 Mg 0.59112 0.17636 0.27438 0.0
C14 C 0.63937 0.19992 0.22757 0.0
O15 O 0.65058 0.17166 0.22808 0.0
C16 C 0.60717 0.11189 0.29681 0.0
O17 O 0.59943 0.12541 0.32304 0.0
C18 C 0.53763 0.17915 0.23495 0.0
O19 O 0.55606 0.16045 0.2201 0.0
O20 O 0.54502 0.18858 0.26195 0.0
O21 O 0.61532 0.20566 0.24225 0.0
O22 O 0.61114 0.19435 0.31703 0.0
C23 C 0.63885 0.18714 0.31684 0.0
O24 O 0.6487 0.16921 0.2943 0.0
O25 O 0.60402 0.12698 0.27145 0.0
Mg26 Mg 0.88586 0.66882 0.29895 0.0
C27 C 0.87517 0.72786 0.32652 0.0
O28 O 0.8931 0.73158 0.30251 0.0
C29 C 0.85118 0.6077 0.29259 0.0
O30 O 0.82873 0.62719 0.28988 0.0
C31 C 0.94515 0.66996 0.32889 0.0
O32 O 0.92943 0.65057 0.34604 0.0
O33 O 0.93353 0.68023 0.30391 0.0
O34 O 0.86708 0.70029 0.33363 0.0
O35 O 0.86338 0.68261 0.25602 0.0
C36 C 0.83606 0.69028 0.26015 0.0
O37 O 0.82595 0.69269 0.28874 0.0
O38 O 0.87695 0.61832 0.30007 0.0
Mg39 Mg 0.39604 0.86026 0.24101 0.0
C40 C 0.37739 0.80674 0.20599 0.0
O41 O 0.39629 0.7967 0.22714 0.0
C42 C 0.36185 0.92195 0.24374 0.0
O43 O 0.34139 0.90544 0.2293 0.0
C44 C 0.45116 0.84635 0.20556 0.0
O45 O 0.43299 0.85903 0.18516 0.0
O46 O 0.44279 0.84543 0.23395 0.0
O47 O 0.37302 0.83595 0.20375 0.0
O48 O 0.37231 0.8424 0.2819 0.0
C49 C 0.34412 0.8416 0.27707 0.0
O50 O 0.3342 0.84726 0.24896 0.0
O51 O 0.38803 0.91049 0.2472 0.0
Mg52 Mg 0.09587 0.68631 0.77159 0.0
C53 C 0.12098 0.75021 0.76035 0.0
O54 O 0.09496 0.75796 0.77245 0.0
C55 C 0.1464 0.63835 0.77375 0.0
O56 O 0.16204 0.66188 0.76285 0.0
C57 C 0.05228 0.70756 0.72026 0.0
O58 O 0.07282 0.72913 0.71662 0.0
O59 O 0.05647 0.68621 0.74045 0.0
O60 O 0.12735 0.72158 0.75688 0.0
O61 O 0.08183 0.69849 0.81846 0.0
C62 C 0.09897 0.70932 0.83953 0.0
O63 O 0.08742 0.71723 0.8665 0.0
O64 O 0.11821 0.64145 0.77729 0.0
Mg65 Mg 0.38705 0.18591 0.80087 0.0
C66 C 0.37723 0.24941 0.81962 0.0
O67 O 0.39589 0.25069 0.79596 0.0
C68 C 0.33414 0.14322 0.80206 0.0
O69 O 0.32124 0.17004 0.80797 0.0
C70 C 0.43844 0.18121 0.84391 0.0
O71 O 0.41552 0.17153 0.86055 0.0
O72 O 0.43427 0.18697 0.81517 0.0
O73 O 0.36786 0.22291 0.8286 0.0
O74 O 0.37517 0.19984 0.7542 0.0
C75 C 0.37094 0.17867 0.734 0.0
O76 O 0.38448 0.15178 0.73744 0.0
O77 O 0.36268 0.14173 0.80193 0.0
Mg78 Mg 0.88802 0.34928 0.73303 0.0
C79 C 0.87422 0.30304 0.6806 0.0
O80 O 0.90116 0.31019 0.67054 0.0
C81 C 0.85069 0.41009 0.7263 0.0
O82 O 0.83539 0.39394 0.70578 0.0
C83 C 0.94944 0.35307 0.70296 0.0
O84 O 0.9358 0.3762 0.68889 0.0
O85 O 0.93554 0.33859 0.72442 0.0
O86 O 0.86256 0.31877 0.70256 0.0
O87 O 0.87054 0.33224 0.77701 0.0
C88 C 0.84219 0.33591 0.77685 0.0
O89 O 0.82967 0.3476 0.75186 0.0
O90 O 0.8748 0.3986 0.73731 0.0
Mg91 Mg 0.59441 0.84989 0.75152 0.0
C92 C 0.6116 0.80754 0.80685 0.0
O93 O 0.58744 0.81845 0.82049 0.0
C94 C 0.62506 0.91115 0.77268 0.0
O95 O 0.63483 0.8937 0.7956 0.0
C96 C 0.53405 0.84884 0.78273 0.0
O97 O 0.54776 0.87185 0.797 0.0
O98 O 0.54732 0.83596 0.75984 0.0
O99 O 0.62005 0.81875 0.78095 0.0
O100 O 0.61586 0.83781 0.70764 0.0
C101 C 0.64336 0.84566 0.70996 0.0
O102 O 0.65239 0.85851 0.73602 0.0
O103 O 0.60595 0.89985 0.75381 0.0
Mg104 Mg 0.25087 0.11318 0.36615 0.0
C105 C 0.30822 0.15135 0.3422 0.0
O106 O 0.32312 0.14689 0.36814 0.0
C107 C 0.25865 0.14611 0.4294 0.0
O108 O 0.27718 0.16369 0.41339 0.0
C109 C 0.2872 0.05898 0.34421 0.0
O110 O 0.30786 0.07875 0.35336 0.0
O111 O 0.25973 0.06581 0.34904 0.0
O112 O 0.28183 0.14081 0.33915 0.0
O113 O 0.20967 0.13458 0.34917 0.0
C114 C 0.21068 0.16372 0.3546 0.0
O115 O 0.23433 0.17489 0.36887 0.0
O116 O 0.2479 0.12176 0.41662 0.0
Mg117 Mg 0.84335 0.27137 0.42859 0.0
C118 C 0.83535 0.34308 0.412 0.0
O119 O 0.82932 0.37151 0.42137 0.0
C120 C 0.82311 0.25822 0.49544 0.0
O121 O 0.81463 0.28744 0.49369 0.0
C122 C 0.90692 0.29055 0.41878 0.0
O123 O 0.90004 0.30383 0.44538 0.0
O124 O 0.88795 0.27216 0.40642 0.0
O125 O 0.83309 0.32107 0.43195 0.0
O126 O 0.80901 0.2482 0.40101 0.0
C127 C 0.7815 0.25346 0.40683 0.0
O128 O 0.77448 0.27315 0.42905 0.0
O129 O 0.83809 0.24654 0.47303 0.0
Mg130 Mg 0.72889 0.89622 0.35218 0.0
C131 C 0.79419 0.88623 0.36715 0.0
O132 O 0.78472 0.88893 0.3959 0.0
C133 C 0.69978 0.95522 0.32916 0.0
O134 O 0.70583 0.94089 0.30291 0.0
C135 C 0.72596 0.87759 0.42048 0.0
O136 O 0.72439 0.90797 0.42372 0.0
O137 O 0.72411 0.86625 0.39321 0.0
O138 O 0.77728 0.89522 0.34511 0.0
O139 O 0.71112 0.87336 0.3108 0.0
C140 C 0.72706 0.87373 0.28618 0.0
O141 O 0.75343 0.88731 0.28687 0.0
O142 O 0.70789 0.94252 0.35464 0.0
Mg143 Mg 0.14452 0.79224 0.40622 0.0
C144 C 0.15341 0.74965 0.35685 0.0
O145 O 0.13817 0.77374 0.34672 0.0
C146 C 0.16605 0.83054 0.46077 0.0
O147 O 0.17056 0.84956 0.43735 0.0
C148 C 0.08601 0.76201 0.39898 0.0
O149 O 0.1022 0.74251 0.41543 0.0
O150 O 0.09687 0.78892 0.39345 0.0
O151 O 0.16069 0.74892 0.38557 0.0
O152 O 0.17312 0.82213 0.37842 0.0
C153 C 0.20058 0.81573 0.38353 0.0
O154 O 0.20697 0.79557 0.40552 0.0
O155 O 0.15436 0.80388 0.45539 0.0
Mg156 Mg 0.24919 0.94452 0.67403 0.0
C157 C 0.21683 0.89461 0.70154 0.0
O158 O 0.23956 0.88299 0.68592 0.0
C159 C 0.25085 1.00881 0.7062 0.0
O160 O 0.22836 0.99743 0.72238 0.0
C161 C 0.21847 0.91525 0.61767 0.0
O162 O 0.1973 0.91217 0.63867 0.0
O163 O 0.24269 0.92941 0.62506 0.0
O164 O 0.21271 0.92395 0.70082 0.0
O165 O 0.28587 0.92042 0.69713 0.0
C166 C 0.28701 0.92642 0.72613 0.0
O167 O 0.27011 0.94891 0.73705 0.0
O168 O 0.2607 0.99341 0.68298 0.0
Mg169 Mg 0.16026 0.24049 0.63703 0.0
C170 C 0.1713 0.28743 0.68221 0.0
O171 O 0.15557 0.26523 0.69551 0.0
C172 C 0.19514 0.24057 0.57641 0.0
O173 O 0.20906 0.26302 0.59132 0.0
C174 C 0.10079 0.2713 0.64309 0.0
O175 O 0.11721 0.29192 0.62824 0.0
O176 O 0.11218 0.2446 0.64846 0.0
O177 O 0.17768 0.2847 0.65344 0.0
O178 O 0.18684 0.21081 0.66747 0.0
C179 C 0.20967 0.19666 0.65665 0.0
O180 O 0.21254 0.19379 0.6264 0.0
O181 O 0.17217 0.22819 0.58897 0.0
Mg182 Mg 0.73931 0.11778 0.67902 0.0
C183 C 0.80486 0.1323 0.67423 0.0
O184 O 0.802 0.1232 0.64526 0.0
C185 C 0.71476 0.06046 0.70903 0.0
O186 O 0.72424 0.07721 0.73263 0.0
C187 C 0.74757 0.13243 0.60934 0.0
O188 O 0.75058 0.10206 0.60745 0.0
O189 O 0.73937 0.14428 0.63515 0.0
O190 O 0.78559 0.12308 0.69408 0.0
O191 O 0.71641 0.14245 0.71616 0.0
C192 C 0.72892 0.16581 0.72883 0.0
O193 O 0.75293 0.17779 0.71577 0.0
O194 O 0.71955 0.07065 0.68154 0.0
Mg195 Mg 0.84503 0.77001 0.60037 0.0
C196 C 0.82359 0.70307 0.62864 0.0
O197 O 0.83354 0.68578 0.60564 0.0
C198 C 0.81482 0.76342 0.53476 0.0
O199 O 0.8063 0.73549 0.5435 0.0
C200 C 0.90457 0.74539 0.62109 0.0
O201 O 0.88891 0.71992 0.61667 0.0
O202 O 0.89273 0.77147 0.61396 0.0
O203 O 0.82607 0.73246 0.62746 0.0
O204 O 0.81755 0.80532 0.62249 0.0
C205 C 0.79005 0.80021 0.61622 0.0
O206 O 0.78349 0.77728 0.59719 0.0
O207 O 0.8326 0.77901 0.5519 0.0
Mg208 Mg 0.3439 0.29245 0.13967 0.0
C209 C 0.33935 0.25171 0.19114 0.0
O210 O 0.35122 0.27802 0.20071 0.0
C211 C 0.32878 0.32448 0.08146 0.0
O212 O 0.33045 0.34667 0.10242 0.0
C213 C 0.40413 0.26905 0.14884 0.0
O214 O 0.39065 0.24918 0.13027 0.0
O215 O 0.3909 0.29473 0.15459 0.0
O216 O 0.3319 0.24923 0.16264 0.0
O217 O 0.31003 0.32283 0.15988 0.0
C218 C 0.28425 0.31175 0.15344 0.0
O219 O 0.28283 0.28583 0.13726 0.0
O220 O 0.33558 0.29682 0.08958 0.0
Mg221 Mg 0.3303 0.73579 0.86573 0.0
C222 C 0.3184 0.80984 0.86501 0.0
O223 O 0.32259 0.81341 0.89504 0.0
C224 C 0.29956 0.71886 0.92608 0.0
O225 O 0.2765 0.72348 0.90768 0.0
C226 C 0.39127 0.75926 0.85437 0.0
O227 O 0.38022 0.77658 0.87681 0.0
O228 O 0.37613 0.7355 0.84578 0.0
O229 O 0.3195 0.783 0.85281 0.0
O230 O 0.29428 0.70902 0.84332 0.0
C231 C 0.27647 0.72337 0.82516 0.0
O232 O 0.28446 0.75074 0.81442 0.0
O233 O 0.32587 0.72408 0.91546 0.0
Mg234 Mg 0.25227 0.43508 0.86875 0.0
C235 C 0.22783 0.40529 0.81277 0.0
O236 O 0.24605 0.42646 0.80134 0.0
C237 C 0.25908 0.39321 0.92422 0.0
O238 O 0.26094 0.37309 0.90127 0.0
C239 C 0.20692 0.48438 0.85791 0.0
O240 O 0.19062 0.46083 0.86769 0.0
O241 O 0.23532 0.4814 0.85742 0.0
O242 O 0.22478 0.40335 0.84214 0.0
O243 O 0.29644 0.42495 0.85021 0.0
C244 C 0.31695 0.41555 0.86839 0.0
O245 O 0.31429 0.42072 0.89836 0.0
O246 O 0.25327 0.42157 0.91783 0.0
Mg247 Mg 0.65698 0.26543 0.92425 0.0
C248 C 0.662 0.20042 0.89717 0.0
O249 O 0.63283 0.19952 0.90089 0.0
C250 C 0.69089 0.28033 0.98477 0.0
O251 O 0.70994 0.26022 0.97308 0.0
C252 C 0.59008 0.24766 0.91941 0.0
O253 O 0.596 0.23327 0.94566 0.0
O254 O 0.61041 0.26455 0.90714 0.0
O255 O 0.67706 0.22101 0.9116 0.0
O256 O 0.68395 0.29449 0.89368 0.0
C257 C 0.71178 0.28785 0.89358 0.0
O258 O 0.72141 0.26568 0.91197 0.0
O259 O 0.66584 0.28456 0.97107 0.0
Mg260 Mg 0.75408 0.60834 0.84102 0.0
C261 C 0.78203 0.66115 0.80429 0.0
O262 O 0.76526 0.67832 0.82261 0.0
C263 C 0.73776 0.61334 0.90884 0.0
O264 O 0.71574 0.59606 0.89814 0.0
C265 C 0.79016 0.55122 0.8318 0.0
O266 O 0.80768 0.5694 0.84834 0.0
O267 O 0.76334 0.56011 0.82669 0.0
O268 O 0.78445 0.63225 0.80979 0.0
O269 O 0.71166 0.63029 0.82723 0.0
C270 C 0.70379 0.65401 0.84315 0.0
O271 O 0.71952 0.66159 0.86775 0.0
O272 O 0.75967 0.61941 0.8907 0.0
Mg273 Mg 0.64973 0.73784 0.11352 0.0
C274 C 0.69792 0.78589 0.1266 0.0
O275 O 0.71632 0.7631 0.11971 0.0
C276 C 0.67989 0.71723 0.05196 0.0
O277 O 0.70027 0.73753 0.06057 0.0
C278 C 0.59052 0.77032 0.11504 0.0
O279 O 0.60404 0.78388 0.09148 0.0
O280 O 0.60344 0.74742 0.12817 0.0
O281 O 0.67027 0.78312 0.12001 0.0
O282 O 0.67308 0.71178 0.14926 0.0
C283 C 0.69796 0.69864 0.14315 0.0
O284 O 0.70654 0.69617 0.11404 0.0
O285 O 0.65616 0.71428 0.06834 0.0
Mg286 Mg 0.2228 0.62419 0.14942 0.0
C287 C 0.2675 0.67001 0.15745 0.0
O288 O 0.24391 0.68267 0.14428 0.0
C289 C 0.21699 0.56106 0.18405 0.0
O290 O 0.24003 0.57153 0.19992 0.0
C291 C 0.24705 0.63733 0.08539 0.0
O292 O 0.27033 0.62529 0.09964 0.0
O293 O 0.22191 0.63786 0.09972 0.0
O294 O 0.26659 0.64106 0.16392 0.0
O295 O 0.19489 0.65244 0.18016 0.0
C296 C 0.20283 0.65062 0.2086 0.0
O297 O 0.22556 0.63264 0.21577 0.0
O298 O 0.20791 0.57647 0.16054 0.0
Mg299 Mg 0.79402 0.38547 0.18389 0.0
C300 C 0.83376 0.34871 0.22927 0.0
O301 O 0.81566 0.32545 0.22308 0.0
C302 C 0.76642 0.37907 0.1224 0.0
O303 O 0.74505 0.39023 0.14028 0.0
C304 C 0.81239 0.44785 0.2056 0.0
O305 O 0.83763 0.43401 0.19813 0.0
O306 O 0.78776 0.43383 0.19972 0.0
O307 O 0.83316 0.37264 0.21188 0.0
O308 O 0.75917 0.35231 0.19667 0.0
C309 C 0.76296 0.32613 0.18322 0.0
O310 O 0.78644 0.32237 0.16511 0.0
O311 O 0.79303 0.37815 0.13332 0.0
H312 H 0.22994 0.5237 0.23358 0.0
H313 H 0.16336 0.53843 0.1624 0.0
H314 H 0.13207 0.49755 0.18506 0.0
H315 H 0.12344 0.45737 0.2253 0.0
H316 H 0.19133 0.44121 0.29472 0.0
H317 H 0.22181 0.4832 0.27302 0.0
C318 C 0.20868 0.51791 0.22285 0.0
C319 C 0.19918 0.53424 0.1962 0.0
C320 C 0.19072 0.49433 0.23603 0.0
C321 C 0.17145 0.52625 0.18276 0.0
C322 C 0.15339 0.50295 0.19586 0.0
C323 C 0.14471 0.46333 0.23592 0.0
C324 C 0.1549 0.44633 0.26188 0.0
C325 C 0.16268 0.48693 0.22263 0.0
C326 C 0.18283 0.45402 0.27492 0.0
C327 C 0.20038 0.47794 0.26239 0.0
H328 H 0.50852 0.23497 0.24346 0.0
H329 H 0.5075 0.15109 0.18821 0.0
H330 H 0.46748 0.17221 0.15612 0.0
H331 H 0.43356 0.2144 0.1428 0.0
H332 H 0.43346 0.299 0.19687 0.0
H333 H 0.47347 0.27801 0.22988 0.0
C334 C 0.49918 0.2212 0.22468 0.0
C335 C 0.5109 0.19134 0.2184 0.0
C336 C 0.47637 0.23383 0.20571 0.0
C337 C 0.49891 0.17404 0.19362 0.0
C338 C 0.47609 0.18617 0.17512 0.0
C339 C 0.44233 0.22849 0.16165 0.0
C340 C 0.43053 0.25838 0.16714 0.0
C341 C 0.4649 0.21612 0.18071 0.0
C342 C 0.44227 0.27606 0.19185 0.0
C343 C 0.465 0.26393 0.21091 0.0
H344 H 0.86042 0.47298 0.23476 0.0
H345 H 0.76701 0.49021 0.21543 0.0
H346 H 0.77031 0.54028 0.2427 0.0
H347 H 0.80049 0.58005 0.26993 0.0
H348 H 0.89387 0.56201 0.28919 0.0
H349 H 0.88962 0.51106 0.26439 0.0
C350 C 0.84071 0.48766 0.23639 0.0
C351 C 0.81356 0.47799 0.22262 0.0
C352 C 0.84275 0.51618 0.25228 0.0
C353 C 0.7882 0.49713 0.22559 0.0
C354 C 0.79011 0.52575 0.24122 0.0
C355 C 0.81987 0.56487 0.26907 0.0
C356 C 0.84756 0.57508 0.28139 0.0
C357 C 0.81736 0.53563 0.25442 0.0
C358 C 0.87232 0.55492 0.27999 0.0
C359 C 0.86994 0.5258 0.26564 0.0
H360 H 0.56829 0.76762 0.17472 0.0
H361 H 0.54992 0.80476 0.08348 0.0
H362 H 0.50601 0.83183 0.10363 0.0
H363 H 0.4734 0.84603 0.1469 0.0
H364 H 0.49123 0.81061 0.23889 0.0
H365 H 0.5349 0.78224 0.21885 0.0
C366 C 0.55441 0.78132 0.15922 0.0
C367 C 0.56232 0.78394 0.12752 0.0
C368 C 0.52933 0.79752 0.17118 0.0
C369 C 0.54438 0.80225 0.1079 0.0
C370 C 0.51928 0.81786 0.11943 0.0
C371 C 0.48682 0.83222 0.16273 0.0
C372 C 0.47896 0.8306 0.19444 0.0
C373 C 0.51172 0.81592 0.15103 0.0
C374 C 0.49678 0.81249 0.21443 0.0
C375 C 0.52169 0.7961 0.20292 0.0
H376 H 0.23171 0.53164 0.82358 0.0
H377 H 0.14805 0.49996 0.86311 0.0
H378 H 0.12192 0.54381 0.83971 0.0
H379 H 0.12243 0.59101 0.80782 0.0
H380 H 0.20574 0.62316 0.76796 0.0
H381 H 0.23218 0.57929 0.7914 0.0
C382 C 0.20781 0.53448 0.82727 0.0
C383 C 0.19194 0.51249 0.84519 0.0
C384 C 0.19272 0.55972 0.8134 0.0
C385 C 0.1609 0.51645 0.84947 0.0
C386 C 0.14586 0.54152 0.83601 0.0
C387 C 0.14633 0.58832 0.80397 0.0
C388 C 0.16197 0.61034 0.78595 0.0
C389 C 0.16147 0.56318 0.81777 0.0
C390 C 0.19302 0.60651 0.78154 0.0
C391 C 0.20823 0.58147 0.79509 0.0
H392 H 0.54697 0.20548 0.93491 0.0
H393 H 0.57116 0.27134 0.8634 0.0
H394 H 0.52768 0.25533 0.83264 0.0
H395 H 0.4823 0.22252 0.82608 0.0
H396 H 0.45853 0.15738 0.89839 0.0
H397 H 0.50244 0.17283 0.92836 0.0
C398 C 0.5427 0.21656 0.9127 0.0
C399 C 0.56236 0.23976 0.90169 0.0
C400 C 0.51782 0.20703 0.89497 0.0
C401 C 0.55641 0.25357 0.87266 0.0
C402 C 0.53158 0.24429 0.85492 0.0
C403 C 0.487 0.21142 0.84818 0.0
C404 C 0.46717 0.18865 0.85983 0.0
C405 C 0.51216 0.2209 0.86575 0.0
C406 C 0.47337 0.1749 0.88879 0.0
C407 C 0.49845 0.18382 0.90606 0.0
H408 H 0.77127 0.52107 0.77889 0.0
H409 H 0.83937 0.51899 0.85 0.0
H410 H 0.86484 0.47659 0.8231 0.0
H411 H 0.86846 0.44036 0.77912 0.0
H412 H 0.80089 0.4422 0.70746 0.0
H413 H 0.77503 0.48449 0.73444 0.0
C414 C 0.79145 0.51104 0.78869 0.0
C415 C 0.80322 0.52315 0.81661 0.0
C416 C 0.80646 0.48686 0.77269 0.0
C417 C 0.82971 0.51015 0.82864 0.0
C418 C 0.84443 0.48594 0.81317 0.0
C419 C 0.84827 0.45019 0.76914 0.0
C420 C 0.83686 0.43808 0.74108 0.0
C421 C 0.83322 0.47429 0.78502 0.0
C422 C 0.81038 0.45105 0.72888 0.0
C423 C 0.79542 0.47518 0.74443 0.0
H424 H 0.50633 0.79203 0.77204 0.0
H425 H 0.49744 0.87764 0.82391 0.0
H426 H 0.45357 0.85716 0.85049 0.0
H427 H 0.41853 0.81509 0.86053 0.0
H428 H 0.4251 0.72905 0.80931 0.0
H429 H 0.46902 0.74943 0.78123 0.0
C430 C 0.49455 0.80631 0.78887 0.0
C431 C 0.5054 0.83646 0.79588 0.0
C432 C 0.46909 0.79418 0.80454 0.0
C433 C 0.48987 0.85443 0.818 0.0
C434 C 0.46472 0.84269 0.83336 0.0
C435 C 0.42953 0.80054 0.84336 0.0
C436 C 0.41856 0.77034 0.8374 0.0
C437 C 0.45436 0.81253 0.82713 0.0
C438 C 0.43309 0.75225 0.81462 0.0
C439 C 0.45818 0.76399 0.79848 0.0
H440 H 0.18458 0.18361 0.54981 0.0
H441 H 0.23695 0.26741 0.53886 0.0
H442 H 0.2623 0.24495 0.49383 0.0
H443 H 0.2697 0.20177 0.45742 0.0
H444 H 0.21776 0.11763 0.4679 0.0
H445 H 0.19262 0.13975 0.51343 0.0
C446 C 0.20133 0.19707 0.53738 0.0
C447 C 0.20864 0.22731 0.54765 0.0
C448 C 0.21624 0.18378 0.51162 0.0
C449 C 0.23076 0.24417 0.53149 0.0
C450 C 0.24538 0.23128 0.50576 0.0
C451 C 0.25311 0.18805 0.46978 0.0
C452 C 0.24579 0.15796 0.45915 0.0
C453 C 0.23843 0.20107 0.4957 0.0
C454 C 0.22402 0.14076 0.47553 0.0
C455 C 0.20947 0.15349 0.50151 0.0
H456 H 0.76171 0.19448 0.61217 0.0
H457 H 0.76308 0.11537 0.55029 0.0
H458 H 0.78847 0.14644 0.51067 0.0
H459 H 0.81041 0.19616 0.49327 0.0
H460 H 0.80773 0.27572 0.55435 0.0
H461 H 0.78341 0.24433 0.59465 0.0
C462 C 0.76716 0.18411 0.58987 0.0
C463 C 0.76013 0.15258 0.58423 0.0
C464 C 0.78206 0.20211 0.56714 0.0
C465 C 0.76796 0.13955 0.55531 0.0
C466 C 0.78267 0.15729 0.53263 0.0
C467 C 0.80484 0.20652 0.51555 0.0
C468 C 0.81115 0.23821 0.52086 0.0
C469 C 0.79002 0.18854 0.53832 0.0
C470 C 0.80323 0.25138 0.54967 0.0
C471 C 0.78916 0.23347 0.57268 0.0
H472 H 0.74272 0.81601 0.41926 0.0
H473 H 0.73842 0.89628 0.47963 0.0
H474 H 0.76652 0.86843 0.51932 0.0
H475 H 0.79435 0.82238 0.53627 0.0
H476 H 0.79669 0.74069 0.47818 0.0
H477 H 0.76768 0.76807 0.43808 0.0
C478 C 0.74747 0.82726 0.44129 0.0
C479 C 0.73845 0.85839 0.44625 0.0
C480 C 0.76383 0.81106 0.4642 0.0
C481 C 0.74499 0.87247 0.475 0.0
C482 C 0.76128 0.85661 0.49772 0.0
C483 C 0.78874 0.81065 0.51469 0.0
C484 C 0.79821 0.7798 0.50982 0.0
C485 C 0.77131 0.82616 0.49235 0.0
C486 C 0.78996 0.76457 0.48223 0.0
C487 C 0.77328 0.78019 0.45941 0.0
H488 H 0.20642 0.87514 0.47649 0.0
H489 H 0.14443 0.80931 0.51671 0.0
H490 H 0.15556 0.82963 0.56872 0.0
H491 H 0.1814 0.86752 0.60242 0.0
H492 H 0.24523 0.93162 0.56249 0.0
H493 H 0.23496 0.91048 0.51061 0.0
C494 C 0.19539 0.86513 0.49664 0.0
C495 C 0.17435 0.84089 0.49265 0.0
C496 C 0.20218 0.87672 0.52646 0.0
C497 C 0.16066 0.82792 0.51908 0.0
C498 C 0.16696 0.83964 0.54881 0.0
C499 C 0.19312 0.87688 0.58237 0.0
C500 C 0.21384 0.90143 0.58631 0.0
C501 C 0.18741 0.86427 0.55272 0.0
C502 C 0.22918 0.91284 0.56014 0.0
C503 C 0.22323 0.90078 0.53047 0.0
H504 H 0.6326 0.9395 0.71609 0.0
H505 H 0.65314 0.94965 0.81359 0.0
H506 H 0.68264 0.99626 0.80236 0.0
H507 H 0.70375 0.03331 0.765 0.0
H508 H 0.68523 0.02279 0.66709 0.0
H509 H 0.65416 0.97703 0.67827 0.0
C510 C 0.64316 0.9522 0.73492 0.0
C511 C 0.64032 0.94123 0.76576 0.0
C512 C 0.66084 0.97868 0.72816 0.0
C513 C 0.65476 0.95762 0.78974 0.0
C514 C 0.67176 0.98423 0.7833 0.0
C515 C 0.69301 0.02106 0.74598 0.0
C516 C 0.69697 0.03162 0.71517 0.0
C517 C 0.67522 0.99479 0.7526 0.0
C518 C 0.68278 1.01523 0.69098 0.0
C519 C 0.66486 0.98909 0.69741 0.0
H520 H 0.92744 0.69557 0.65166 0.0
H521 H 0.94812 0.79044 0.62663 0.0
H522 H 0.99604 0.78661 0.6542 0.0
H523 H 0.03148 0.75658 0.68634 0.0
H524 H 0.00928 0.66256 0.71325 0.0
H525 H 0.96246 0.66583 0.68394 0.0
C526 C 0.94246 0.71542 0.65199 0.0
C527 C 0.93418 0.74325 0.63686 0.0
C528 C 0.96966 0.7132 0.66833 0.0
C529 C 0.95388 0.76877 0.63798 0.0
C530 C 0.98128 0.76656 0.65377 0.0
C531 C 0.0165 0.7367 0.68569 0.0
C532 C 0.02403 0.70926 0.70195 0.0
C533 C 0.98934 0.73893 0.66916 0.0
C534 C 0.00412 0.68393 0.70103 0.0
C535 C 0.97733 0.68579 0.68424 0.0
H536 H 0.34798 0.10505 0.75373 0.0
H537 H 0.27822 0.12539 0.8201 0.0
H538 H 0.2456 0.08659 0.7956 0.0
H539 H 0.23694 0.0469 0.75512 0.0
H540 H 0.30571 0.02957 0.68648 0.0
H541 H 0.33824 0.06775 0.71145 0.0
C542 C 0.32579 0.10069 0.76306 0.0
C543 C 0.31577 0.11753 0.78916 0.0
C544 C 0.30674 0.0793 0.74804 0.0
C545 C 0.2866 0.11231 0.80038 0.0
C546 C 0.26788 0.09031 0.78622 0.0
C547 C 0.25893 0.05165 0.74541 0.0
C548 C 0.26878 0.03516 0.71894 0.0
C549 C 0.27765 0.07375 0.75992 0.0
C550 C 0.29737 0.04186 0.70671 0.0
C551 C 0.31616 0.06356 0.72116 0.0
H552 H 0.07333 0.3272 0.63663 0.0
H553 H 0.06172 0.23721 0.67946 0.0
H554 H 0.01459 0.25483 0.70306 0.0
H555 H 0.9765 0.29621 0.7115 0.0
H556 H 0.98901 0.38563 0.66761 0.0
H557 H 0.03606 0.36789 0.64488 0.0
C558 C 0.06052 0.31126 0.651 0.0
C559 C 0.07115 0.28081 0.6561 0.0
C560 C 0.03363 0.3216 0.66461 0.0
C561 C 0.0541 0.26069 0.67494 0.0
C562 C 0.02717 0.27083 0.68857 0.0
C563 C 0.98969 0.31189 0.69722 0.0
C564 C 0.97919 0.34233 0.69144 0.0
C565 C 0.01675 0.30133 0.68369 0.0
C566 C 0.99645 0.36215 0.67252 0.0
C567 C 0.02338 0.35199 0.6594 0.0
H568 H 0.67908 0.98629 0.27837 0.0
H569 H 0.68135 0.99086 0.37866 0.0
H570 H 0.65196 0.03889 0.37738 0.0
H571 H 0.62598 0.07976 0.34781 0.0
H572 H 0.62444 0.07553 0.2475 0.0
H573 H 0.65297 0.02699 0.24885 0.0
C574 C 0.67323 0.99775 0.30002 0.0
C575 C 0.68255 0.98488 0.32861 0.0
C576 C 0.65629 0.02535 0.29911 0.0
C577 C 0.67462 1.00018 0.35633 0.0
C578 C 0.65773 0.02764 0.35561 0.0
C579 C 0.63166 0.06816 0.32619 0.0
C580 C 0.62289 0.08134 0.29755 0.0
C581 C 0.64842 0.04042 0.32714 0.0
C582 C 0.63075 0.06597 0.26985 0.0
C583 C 0.64716 0.03822 0.27062 0.0
H584 H 0.97036 0.72759 0.31957 0.0
H585 H 0.98366 0.64035 0.36722 0.0
H586 H 0.02756 0.66149 0.39349 0.0
H587 H 0.06119 0.70477 0.40436 0.0
H588 H 0.04871 0.79287 0.3581 0.0
H589 H 0.00526 0.7716 0.3303 0.0
C590 C 0.98323 0.71311 0.3353 0.0
C591 C 0.97387 0.68229 0.34122 0.0
C592 C 0.00825 0.72574 0.35103 0.0
C593 C 0.9904 0.66404 0.36216 0.0
C594 C 0.01545 0.67618 0.37733 0.0
C595 C 0.04898 0.71952 0.38833 0.0
C596 C 0.05822 0.75051 0.38355 0.0
C597 C 0.02432 0.70707 0.37228 0.0
C598 C 0.04203 0.76903 0.36249 0.0
C599 C 0.01727 0.75679 0.34642 0.0
H600 H 0.30517 0.94084 0.25791 0.0
H601 H 0.39805 0.96639 0.26988 0.0
H602 H 0.38304 1.01039 0.30251 0.0
H603 H 0.34372 0.04098 0.32837 0.0
H604 H 0.25086 1.01483 0.3174 0.0
H605 H 0.26579 0.97139 0.28398 0.0
C606 C 0.32218 0.95623 0.2673 0.0
C607 C 0.35277 0.9504 0.26113 0.0
C608 C 0.3134 0.98112 0.28659 0.0
C609 C 0.3744 0.97037 0.27404 0.0
C610 C 0.36581 0.99547 0.29284 0.0
C611 C 0.32666 0.02574 0.31883 0.0
C612 C 0.29613 0.03124 0.32556 0.0
C613 C 0.33541 1.0009 0.29948 0.0
C614 C 0.27448 1.01117 0.31282 0.0
C615 C 0.28302 0.98638 0.29355 0.0
H616 H 0.03184 0.34367 0.37538 0.0
H617 H 0.99091 0.33601 0.28487 0.0
H618 H 0.94569 0.31369 0.30873 0.0
H619 H 0.91749 0.29672 0.35599 0.0
H620 H 0.95928 0.30643 0.44591 0.0
H621 H 0.00452 0.32703 0.42155 0.0
C622 C 0.01308 0.33722 0.36071 0.0
C623 C 0.0149 0.34166 0.32828 0.0
C624 C 0.98732 0.32435 0.37455 0.0
C625 C 0.99019 0.33304 0.30987 0.0
C626 C 0.96435 0.32011 0.32352 0.0
C627 C 0.93674 0.30287 0.37011 0.0
C628 C 0.93514 0.29966 0.40276 0.0
C629 C 0.96267 0.31554 0.3559 0.0
C630 C 0.95997 0.30847 0.42079 0.0
C631 C 0.98583 0.32039 0.40688 0.0
H632 H 0.68716 0.61681 0.94433 0.0
H633 H 0.77726 0.65298 0.93765 0.0
H634 H 0.76712 0.68849 0.98088 0.0
H635 H 0.7321 0.71065 0.01933 0.0
H636 H 0.64185 0.67477 0.02543 0.0
H637 H 0.65258 0.63808 0.98342 0.0
C638 C 0.70478 0.63214 0.95252 0.0
C639 C 0.73304 0.63202 0.93768 0.0
C640 C 0.69861 0.65294 0.97703 0.0
C641 C 0.75538 0.65237 0.94861 0.0
C642 C 0.74952 0.67285 0.97325 0.0
C643 C 0.71468 0.69492 1.01143 0.0
C644 C 0.68608 0.69572 0.02551 0.0
C645 C 0.72109 0.67366 0.98735 0.0
C646 C 0.66398 0.67486 1.01503 0.0
C647 C 0.67015 0.65376 0.99103 0.0
H648 H 0.29989 0.65201 0.05736 0.0
H649 H 0.20416 0.65841 0.04457 0.0
H650 H 0.21204 0.6849 0.99474 0.0
H651 H 0.2462 0.70579 0.95459 0.0
H652 H 0.34191 0.70015 0.9683 0.0
H653 H 0.33387 0.67409 0.01815 0.0
C654 C 0.28066 0.65901 0.04366 0.0
C655 C 0.25139 0.65287 0.05469 0.0
C656 C 0.28538 0.67459 1.01526 0.0
C657 C 0.22688 0.66263 0.03668 0.0
C658 C 0.2314 0.67785 1.00818 0.0
C659 C 0.26536 0.69903 0.96851 0.0
C660 C 0.2947 0.70498 0.9575 0.0
C661 C 0.26057 0.68395 0.99723 0.0
C662 C 0.31913 0.69601 0.97605 0.0
C663 C 0.31454 0.68097 1.00456 0.0
H664 H 0.28211 0.33738 0.94288 0.0
H665 H 0.2584 0.42865 0.97705 0.0
H666 H 0.27815 0.41527 0.02823 0.0
H667 H 0.30318 0.37848 0.06286 0.0
H668 H 0.32685 0.28697 0.02954 0.0
H669 H 0.30619 0.29977 0.9783 0.0
C670 C 0.28096 0.35428 0.96158 0.0
C671 C 0.26867 0.38403 0.95603 0.0
C672 C 0.29261 0.34651 0.991 0.0
C673 C 0.26763 0.40561 0.98058 0.0
C674 C 0.27903 0.39801 1.00986 0.0
C675 C 0.30397 0.36126 0.04443 0.0
C676 C 0.3168 0.33183 0.05005 0.0
C677 C 0.29183 0.36868 1.01524 0.0
C678 C 0.31724 0.30981 0.02587 0.0
C679 C 0.30537 0.31712 0.99659 0.0
H680 H 0.711 0.37413 0.09648 0.0
H681 H 0.80254 0.34399 0.08415 0.0
H682 H 0.78701 0.31032 0.04115 0.0
H683 H 0.74717 0.28806 1.00826 0.0
H684 H 0.65574 0.31858 0.02053 0.0
H685 H 0.67151 0.35316 0.06267 0.0
C686 C 0.7277 0.36048 0.08423 0.0
C687 C 0.758 0.36174 0.09365 0.0
C688 C 0.71853 0.34085 0.05979 0.0
C689 C 0.77916 0.34373 0.0774 0.0
C690 C 0.77023 0.32426 0.05292 0.0
C691 C 0.7306 0.30211 0.02025 0.0
C692 C 0.70017 0.30041 1.01134 0.0
C693 C 0.73992 0.32231 0.0442 0.0
C694 C 0.67921 0.31922 0.02693 0.0
C695 C 0.68825 0.3391 0.05098 0.0
H696 H 0.11128 0.24514 0.28936 0.0
H697 H 0.15794 0.3175 0.3396 0.0
H698 H 0.19038 0.2786 0.36345 0.0
H699 H 0.20719 0.22492 0.36782 0.0
H700 H 0.16213 0.15213 0.31676 0.0
H701 H 0.12696 0.1905 0.29561 0.0
C702 C 0.1284 0.25241 0.3057 0.0
C703 C 0.13228 0.28426 0.31255 0.0
C704 C 0.14723 0.22992 0.31907 0.0
C705 C 0.15454 0.29322 0.33381 0.0
C706 C 0.17312 0.27098 0.34744 0.0
C707 C 0.18961 0.21727 0.35217 0.0
C708 C 0.18744 0.18569 0.34366 0.0
C709 C 0.16992 0.23939 0.33988 0.0
C710 C 0.16432 0.17628 0.32362 0.0
C711 C 0.14431 0.19823 0.31147 0.0
H712 H 0.72085 0.26177 0.41088 0.0
H713 H 0.78886 0.20904 0.36236 0.0
H714 H 0.75035 0.18278 0.33208 0.0
H715 H 0.69814 0.17579 0.31822 0.0
H716 H 0.62923 0.22904 0.36452 0.0
H717 H 0.66746 0.25385 0.39725 0.0
C718 C 0.72723 0.24448 0.39373 0.0
C719 C 0.75776 0.23747 0.38886 0.0
C720 C 0.70488 0.22951 0.37613 0.0
C721 C 0.76561 0.215 0.36655 0.0
C722 C 0.74359 0.19991 0.34923 0.0
C723 C 0.69127 0.19269 0.33557 0.0
C724 C 0.66082 0.20059 0.33886 0.0
C725 C 0.71326 0.20713 0.3537 0.0
C726 C 0.6525 0.2225 0.36154 0.0
C727 C 0.67437 0.23677 0.38014 0.0
H728 H 0.87785 0.78698 0.30564 0.0
H729 H 0.84296 0.7313 0.38103 0.0
H730 H 0.81856 0.77746 0.40306 0.0
H731 H 0.8034 0.83228 0.39786 0.0
H732 H 0.83399 0.88585 0.31912 0.0
H733 H 0.86447 0.84183 0.30157 0.0
C734 C 0.86521 0.78488 0.32711 0.0
C735 C 0.86214 0.75569 0.34165 0.0
C736 C 0.85059 0.81118 0.33898 0.0
C737 C 0.84552 0.75346 0.36933 0.0
C738 C 0.83161 0.77984 0.3819 0.0
C739 C 0.81737 0.83457 0.37731 0.0
C740 C 0.81687 0.86237 0.35994 0.0
C741 C 0.83353 0.80867 0.36657 0.0
C742 C 0.83436 0.86478 0.33293 0.0
C743 C 0.85155 0.83956 0.32283 0.0
H744 H 0.28643 0.85934 0.27625 0.0
H745 H 0.35215 0.81439 0.33442 0.0
H746 H 0.31344 0.80464 0.37394 0.0
H747 H 0.2604 0.80603 0.38989 0.0
H748 H 0.19514 0.85084 0.33085 0.0
H749 H 0.23459 0.86393 0.29362 0.0
C750 C 0.29238 0.84736 0.29756 0.0
C751 C 0.32199 0.83706 0.30224 0.0
C752 C 0.27017 0.84194 0.31991 0.0
C753 C 0.32947 0.8223 0.33026 0.0
C754 C 0.30734 0.81673 0.35276 0.0
C755 C 0.2548 0.81893 0.36902 0.0
C756 C 0.22478 0.82722 0.363 0.0
C757 C 0.27754 0.82603 0.34756 0.0
C758 C 0.218 0.84414 0.336 0.0
C759 C 0.24052 0.85149 0.31465 0.0
H760 H 0.1119 0.81282 0.75658 0.0
H761 H 0.17948 0.74181 0.74473 0.0
H762 H 0.21552 0.78102 0.72807 0.0
H763 H 0.22702 0.83441 0.71409 0.0
H764 H 0.16001 0.90611 0.72402 0.0
H765 H 0.12453 0.86761 0.74477 0.0
C766 C 0.13455 0.80598 0.75045 0.0
C767 C 0.14288 0.77439 0.75144 0.0
C768 C 0.15517 0.82867 0.74059 0.0
C769 C 0.17235 0.76588 0.74366 0.0
C770 C 0.19301 0.78829 0.73426 0.0
C771 C 0.20468 0.84176 0.72085 0.0
C772 C 0.19598 0.87297 0.71717 0.0
C773 C 0.1845 0.81959 0.73215 0.0
C774 C 0.16716 0.88217 0.72657 0.0
C775 C 0.14688 0.86015 0.73827 0.0
H776 H 0.31797 0.2045 0.74984 0.0
H777 H 0.36183 0.15338 0.67649 0.0
H778 H 0.31484 0.15209 0.64687 0.0
H779 H 0.26165 0.1669 0.64153 0.0
H780 H 0.21765 0.21541 0.71684 0.0
H781 H 0.26421 0.21546 0.74644 0.0
C782 C 0.31736 0.19347 0.72715 0.0
C783 C 0.34352 0.17992 0.71482 0.0
C784 C 0.29013 0.19182 0.71095 0.0
C785 C 0.34211 0.16459 0.68604 0.0
C786 C 0.31522 0.16364 0.66928 0.0
C787 C 0.26212 0.17711 0.6646 0.0
C788 C 0.23616 0.19133 0.67679 0.0
C789 C 0.2891 0.17726 0.6815 0.0
C790 C 0.23718 0.20424 0.70684 0.0
C791 C 0.26391 0.20456 0.7237 0.0
H792 H 0.83116 0.17166 0.63241 0.0
H793 H 0.81502 0.15929 0.73076 0.0
H794 H 0.83324 0.21187 0.74081 0.0
H795 H 0.85157 0.26209 0.7216 0.0
H796 H 0.87074 0.27403 0.62405 0.0
H797 H 0.85284 0.22096 0.61355 0.0
C798 C 0.83216 0.18017 0.65615 0.0
C799 C 0.82153 0.16148 0.68081 0.0
C800 C 0.84252 0.21058 0.66177 0.0
C801 C 0.82297 0.17309 0.71135 0.0
C802 C 0.83317 0.20328 0.7171 0.0
C803 C 0.85152 0.25315 0.69799 0.0
C804 C 0.86175 0.27204 0.67347 0.0
C805 C 0.84239 0.2224 0.69244 0.0
C806 C 0.86252 0.25995 0.64315 0.0
C807 C 0.85252 0.22961 0.63724 0.0
H808 H 0.73039 0.79127 0.60836 0.0
H809 H 0.79425 0.84507 0.66136 0.0
H810 H 0.75344 0.86625 0.69296 0.0
H811 H 0.70073 0.86555 0.70844 0.0
H812 H 0.63701 0.80982 0.65733 0.0
H813 H 0.6769 0.79347 0.62163 0.0
C814 C 0.73544 0.80788 0.62662 0.0
C815 C 0.76542 0.81633 0.63273 0.0
C816 C 0.71197 0.81939 0.64505 0.0
C817 C 0.77145 0.83807 0.65628 0.0
C818 C 0.74813 0.85009 0.6744 0.0
C819 C 0.69541 0.84998 0.68936 0.0
C820 C 0.66598 0.83855 0.68578 0.0
C821 C 0.71846 0.84028 0.66946 0.0
C822 C 0.65947 0.81881 0.66067 0.0
C823 C 0.68229 0.80939 0.64036 0.0
H824 H 0.29049 0.14942 0.28223 0.0
H825 H 0.35511 0.19263 0.34321 0.0
H826 H 0.37224 0.22582 0.30038 0.0
H827 H 0.36558 0.2454 0.24724 0.0
H828 H 0.3006 0.20246 0.18652 0.0
H829 H 0.28699 0.1658 0.22781 0.0
C830 C 0.30846 0.16599 0.28616 0.0
C831 C 0.32122 0.16898 0.31598 0.0
C832 C 0.31797 0.18497 0.2616 0.0
C833 C 0.34486 0.19004 0.32053 0.0
C834 C 0.35455 0.20905 0.2961 0.0
C835 C 0.34856 0.22786 0.24295 0.0
C836 C 0.33373 0.22687 0.21407 0.0
C837 C 0.34076 0.20717 0.26679 0.0
C838 C 0.31221 0.2037 0.20859 0.0
C839 C 0.30435 0.18289 0.23222 0.0
H840 H 0.85031 0.38666 0.36843 0.0
H841 H 0.83786 0.28811 0.37924 0.0
H842 H 0.84193 0.28037 0.32388 0.0
H843 H 0.84116 0.30256 0.27152 0.0
H844 H 0.85242 0.40159 0.25953 0.0
H845 H 0.8575 0.40811 0.31568 0.0
C846 C 0.84886 0.36338 0.35878 0.0
C847 C 0.84299 0.33784 0.37854 0.0
C848 C 0.85096 0.3593 0.32632 0.0
C849 C 0.84185 0.30807 0.36527 0.0
C850 C 0.84421 0.30369 0.33323 0.0
C851 C 0.84548 0.3255 0.28109 0.0
C852 C 0.8458 0.35154 0.26132 0.0
C853 C 0.8476 0.32926 0.31345 0.0
C854 C 0.85187 0.38105 0.27413 0.0
C855 C 0.85448 0.38488 0.30635 0.0
H856 H 0.66292 0.80965 0.17226 0.0
H857 H 0.75342 0.81039 0.13671 0.0
H858 H 0.77014 0.83935 0.18261 0.0
H859 H 0.7597 0.86044 0.23458 0.0
H860 H 0.66992 0.8556 0.27192 0.0
H861 H 0.65224 0.83192 0.22359 0.0
C862 C 0.68618 0.81682 0.17417 0.0
C863 C 0.70689 0.80829 0.15094 0.0
C864 C 0.69581 0.83213 0.20121 0.0
C865 C 0.73706 0.81701 0.15416 0.0
C866 C 0.74664 0.83331 0.18048 0.0
C867 C 0.73621 0.85438 0.2321 0.0
C868 C 0.71616 0.85968 0.25687 0.0
C869 C 0.72634 0.84031 0.20448 0.0
C870 C 0.68585 0.85154 0.25332 0.0
C871 C 0.67571 0.83813 0.22564 0.0
H872 H 0.21506 0.64962 0.27047 0.0
H873 H 0.1579 0.69361 0.20248 0.0
H874 H 0.13629 0.72646 0.24318 0.0
H875 H 0.13559 0.74443 0.29709 0.0
H876 H 0.19339 0.70162 0.36517 0.0
H877 H 0.21264 0.66609 0.32521 0.0
C878 C 0.19776 0.66628 0.26449 0.0
C879 C 0.18825 0.66929 0.23334 0.0
C880 C 0.18562 0.68523 0.28796 0.0
C881 C 0.1657 0.69087 0.22617 0.0
C882 C 0.15336 0.70967 0.24943 0.0
C883 C 0.15231 0.72724 0.30336 0.0
C884 C 0.16324 0.72584 0.33409 0.0
C885 C 0.16346 0.70731 0.28027 0.0
C886 C 0.18463 0.7032 0.34174 0.0
C887 C 0.19571 0.683 0.31886 0.0
H888 H 0.32828 0.81051 0.80311 0.0
H889 H 0.30153 0.86968 0.87943 0.0
H890 H 0.29295 0.9126 0.8429 0.0
H891 H 0.28913 0.93143 0.78904 0.0
H892 H 0.31481 0.87119 0.71306 0.0
H893 H 0.32838 0.83052 0.75006 0.0
C894 C 0.32057 0.83279 0.81189 0.0
C895 C 0.31497 0.83677 0.84392 0.0
C896 C 0.31569 0.8571 0.79087 0.0
C897 C 0.30573 0.86599 0.85489 0.0
C898 C 0.30084 0.89046 0.83401 0.0
C899 C 0.29813 0.90958 0.78053 0.0
C900 C 0.30068 0.90426 0.74825 0.0
C901 C 0.30522 0.88605 0.8019 0.0
C902 C 0.31258 0.87591 0.73771 0.0
C903 C 0.32013 0.85256 0.75885 0.0
H904 H 0.23456 0.40001 0.75006 0.0
H905 H 0.1874 0.36018 0.82836 0.0
H906 H 0.16472 0.32138 0.79426 0.0
H907 H 0.15998 0.29751 0.74308 0.0
H908 H 0.2078 0.33594 0.66459 0.0
H909 H 0.22843 0.37686 0.69803 0.0
C910 C 0.21917 0.38297 0.75966 0.0
C911 C 0.21278 0.38293 0.79178 0.0
C912 C 0.20642 0.3605 0.73996 0.0
C913 C 0.19279 0.36068 0.80379 0.0
C914 C 0.17982 0.33847 0.78431 0.0
C915 C 0.17481 0.31488 0.73313 0.0
C916 C 0.18247 0.31357 0.70138 0.0
C917 C 0.18675 0.33798 0.75248 0.0
C918 C 0.20159 0.33639 0.68895 0.0
C919 C 0.21342 0.35973 0.70808 0.0
H920 H 0.68692 0.13939 0.76666 0.0
H921 H 0.75074 0.21492 0.76213 0.0
H922 H 0.73824 0.22984 0.81537 0.0
H923 H 0.70835 0.22238 0.86256 0.0
H924 H 0.64293 0.14846 0.86663 0.0
H925 H 0.65758 0.13137 0.81445 0.0
C926 C 0.69797 0.15925 0.77721 0.0
C927 C 0.71957 0.17615 0.76027 0.0
C928 C 0.69081 0.16761 0.80795 0.0
C929 C 0.73387 0.20162 0.7745 0.0
C930 C 0.72689 0.21006 0.80504 0.0
C931 C 0.69773 0.2021 0.85237 0.0
C932 C 0.67478 0.18648 0.86861 0.0
C933 C 0.70545 0.19319 0.82198 0.0
C934 C 0.66084 0.16067 0.85471 0.0
C935 C 0.669 0.1511 0.82478 0.0
H936 H 0.8065 0.73416 0.68041 0.0
H937 H 0.8222 0.64123 0.64572 0.0
H938 H 0.81273 0.62015 0.69782 0.0
H939 H 0.80026 0.62847 0.75319 0.0
H940 H 0.78512 0.7219 0.78682 0.0
H941 H 0.79504 0.74253 0.73498 0.0
C942 C 0.8078 0.70921 0.68401 0.0
C943 C 0.81504 0.68929 0.65904 0.0
C944 C 0.80295 0.69744 0.71393 0.0
C945 C 0.81651 0.65708 0.6644 0.0
C946 C 0.81132 0.64506 0.69424 0.0
C947 C 0.79956 0.65339 0.7493 0.0
C948 C 0.79209 0.67366 0.77395 0.0
C949 C 0.80477 0.66508 0.71923 0.0
C950 C 0.79091 0.70582 0.76836 0.0
C951 C 0.79639 0.71762 0.73867 0.0
H952 H 0.17468 0.3928 0.19939 0.0
H953 H 0.1279 0.30691 0.18063 0.0
H954 H 0.17452 0.28352 0.16157 0.0
H955 H 0.22871 0.28665 0.15319 0.0
H956 H 0.27642 0.37115 0.17558 0.0
H957 H 0.22913 0.39598 0.19072 0.0
C958 C 0.17456 0.36917 0.19049 0.0
C959 C 0.14781 0.35168 0.19087 0.0
C960 C 0.20163 0.35556 0.18082 0.0
C961 C 0.14816 0.32084 0.18018 0.0
C962 C 0.17481 0.30746 0.16952 0.0
C963 C 0.22883 0.31057 0.16127 0.0
C964 C 0.25607 0.32706 0.16326 0.0
C965 C 0.20172 0.32444 0.17025 0.0
C966 C 0.25579 0.35792 0.174 0.0
C967 C 0.22876 0.37214 0.18251 0.0
H968 H 0.22907 0.76165 0.81896 0.0
H969 H 0.25189 0.66477 0.82984 0.0
H970 H 0.19844 0.65142 0.8333 0.0
H971 H 0.14502 0.66802 0.83573 0.0
H972 H 0.12414 0.76576 0.83211 0.0
H973 H 0.17699 0.7782 0.82324 0.0
C974 C 0.22242 0.73749 0.82147 0.0
C975 C 0.24444 0.71416 0.82365 0.0
C976 C 0.19191 0.73025 0.82482 0.0
C977 C 0.23537 0.6831 0.82779 0.0
C978 C 0.20482 0.6755 0.82984 0.0
C979 C 0.15219 0.69192 0.83246 0.0
C980 C 0.13082 0.71595 0.83334 0.0
C981 C 0.18288 0.69895 0.82873 0.0
C982 C 0.14026 0.74696 0.83075 0.0
C983 C 0.17042 0.75404 0.82575 0.0
H984 H 0.32556 0.36121 0.89805 0.0
H985 H 0.34775 0.41072 0.81389 0.0
H986 H 0.37044 0.3635 0.79219 0.0
H987 H 0.37972 0.3074 0.79552 0.0
H988 H 0.35235 0.25665 0.87739 0.0
H989 H 0.33546 0.30515 0.90166 0.0
C990 C 0.33605 0.36182 0.87527 0.0
C991 C 0.33557 0.38941 0.8577 0.0
C992 C 0.34745 0.33426 0.86239 0.0
C993 C 0.34834 0.38976 0.82788 0.0
C994 C 0.36102 0.36276 0.81543 0.0
C995 C 0.37026 0.30696 0.81878 0.0
C996 C 0.36724 0.27851 0.83467 0.0
C997 C 0.36 0.33473 0.83219 0.0
C998 C 0.3547 0.27825 0.86464 0.0
C999 C 0.34518 0.30596 0.87855 0.0
H1000 H 0.77188 0.2793 0.89068 0.0
H1001 H 0.69923 0.32901 0.84683 0.0
H1002 H 0.73399 0.34947 0.80785 0.0
H1003 H 0.78404 0.35085 0.78486 0.0
H1004 H 0.85678 0.3007 0.82794 0.0
H1005 H 0.82272 0.28285 0.86905 0.0
C1006 C 0.76362 0.29477 0.87272 0.0
C1007 C 0.73294 0.30248 0.87152 0.0
C1008 C 0.78365 0.30621 0.85032 0.0
C1009 C 0.72269 0.32271 0.84824 0.0
C1010 C 0.74253 0.33432 0.82592 0.0
C1011 C 0.79256 0.33606 0.80327 0.0
C1012 C 0.82284 0.32681 0.80321 0.0
C1013 C 0.77291 0.32583 0.82652 0.0
C1014 C 0.83356 0.30805 0.82746 0.0
C1015 C 0.81409 0.2978 0.85086 0.0
H1016 H 0.67182 0.69509 0.87705 0.0
H1017 H 0.6883 0.66544 0.78269 0.0
H1018 H 0.66127 0.71097 0.76315 0.0
H1019 H 0.63659 0.76126 0.77304 0.0
H1020 H 0.61836 0.78986 0.86736 0.0
H1021 H 0.64288 0.74276 0.88693 0.0
C1022 C 0.669 0.69832 0.8522 0.0
C1023 C 0.68206 0.67702 0.83131 0.0
C1024 C 0.65373 0.72463 0.84121 0.0
C1025 C 0.67817 0.68133 0.79921 0.0
C1026 C 0.66306 0.70756 0.78805 0.0
C1027 C 0.63811 0.7572 0.7979 0.0
C1028 C 0.62631 0.77924 0.81884 0.0
C1029 C 0.65146 0.72975 0.80885 0.0
C1030 C 0.62761 0.77335 0.8509 0.0
C1031 C 0.64151 0.74643 0.86204 0.0
H1032 H 0.75804 0.68897 0.13759 0.0
H1033 H 0.68714 0.69794 0.20558 0.0
H1034 H 0.72397 0.69691 0.24743 0.0
H1035 H 0.77593 0.69563 0.26455 0.0
H1036 H 0.84743 0.68678 0.19731 0.0
H1037 H 0.81054 0.68609 0.15511 0.0
C1038 C 0.75058 0.69022 0.16158 0.0
C1039 C 0.71982 0.69346 0.16844 0.0
C1040 C 0.77195 0.6902 0.18555 0.0
C1041 C 0.71063 0.69537 0.19965 0.0
C1042 C 0.73169 0.69497 0.22359 0.0
C1043 C 0.78361 0.69369 0.24067 0.0
C1044 C 0.81446 0.69152 0.23408 0.0
C1045 C 0.76237 0.69291 0.21675 0.0
C1046 C 0.82384 0.68872 0.203 0.0
C1047 C 0.80275 0.68816 0.17891 0.0
H1048 H 0.37708 0.74396 0.21267 0.0
H1049 H 0.33396 0.81872 0.16275 0.0
H1050 H 0.29767 0.78192 0.14131 0.0
H1051 H 0.27575 0.72986 0.14054 0.0
H1052 H 0.31717 0.65532 0.1922 0.0
H1053 H 0.35692 0.69089 0.20911 0.0
C1054 C 0.35999 0.75221 0.19679 0.0
C1055 C 0.35808 0.78414 0.18951 0.0
C1056 C 0.33882 0.73106 0.18514 0.0
C1057 C 0.33586 0.79434 0.16882 0.0
C1058 C 0.31504 0.77333 0.15666 0.0
C1059 C 0.29355 0.72123 0.15537 0.0
C1060 C 0.29332 0.69005 0.16544 0.0
C1061 C 0.3159 0.74184 0.1653 0.0
C1062 C 0.31677 0.67923 0.18427 0.0
C1063 C 0.33942 0.69958 0.19397 0.0
H1064 H 0.70451 0.32747 0.20151 0.0
H1065 H 0.77628 0.26499 0.17653 0.0
H1066 H 0.74377 0.22027 0.18557 0.0
H1067 H 0.69565 0.19873 0.20286 0.0
H1068 H 0.62332 0.26117 0.22654 0.0
H1069 H 0.6551 0.30584 0.21518 0.0
C1070 C 0.71296 0.30405 0.19813 0.0
C1071 C 0.74276 0.29952 0.18872 0.0
C1072 C 0.69399 0.27835 0.2029 0.0
C1073 C 0.75337 0.26909 0.18387 0.0
C1074 C 0.73481 0.24346 0.189 0.0
C1075 C 0.68669 0.22207 0.20511 0.0
C1076 C 0.65724 0.22648 0.21582 0.0
C1077 C 0.70514 0.24779 0.19873 0.0
C1078 C 0.64598 0.25699 0.2185 0.0
C1079 C 0.66418 0.28265 0.21216 0.0
loop_
_geom_bond_atom_site_label_1
_geom_bond_atom_site_label_2
_geom_bond_distance
_geom_bond_site_symmetry_2
_ccdc_geom_bond_type
Mg0 O7 2.141 . S
Mg0 O8 2.048 . S
Mg0 O9 2.048 . S
Mg0 O12 2.141 . S
C1 O2 1.313 . S
C1 O8 1.195 . S
O2 C1 1.313 . S
C3 O4 1.245 . S
C3 O12 1.289 . S
O4 C3 1.245 . S
C5 O6 1.245 . S
C5 O7 1.289 . S
O6 C5 1.245 . S
O7 Mg0 2.141 . S
O7 C5 1.289 . S
O8 Mg0 2.048 . S
O8 C1 1.195 . S
O9 Mg0 2.048 . S
O9 C10 1.195 . S
C10 O9 1.195 . S
C10 O11 1.313 . S
O11 C10 1.313 . S
O12 Mg0 2.141 . S
O12 C3 1.289 . S
Mg13 O20 2.141 . S
Mg13 O21 2.048 . S
Mg13 O22 2.048 . S
Mg13 O25 2.141 . S
C14 O15 1.313 . S
C14 O21 1.195 . S
O15 C14 1.313 . S
C16 O17 1.245 . S
C16 O25 1.289 . S
O17 C16 1.245 . S
C18 O19 1.245 . S
C18 O20 1.289 . S
O19 C18 1.245 . S
O20 Mg13 2.141 . S
O20 C18 1.289 . S
O21 Mg13 2.048 . S
O21 C14 1.195 . S
O22 Mg13 2.048 . S
O22 C23 1.195 . S
C23 O22 1.195 . S
C23 O24 1.313 . S
O24 C23 1.313 . S
O25 Mg13 2.141 . S
O25 C16 1.289 . S
Mg26 O33 2.141 . S
Mg26 O34 2.048 . S
Mg26 O35 2.048 . S
Mg26 O38 2.141 . S
C27 O28 1.313 . S
C27 O34 1.195 . S
O28 C27 1.313 . S
C29 O30 1.245 . S
C29 O38 1.289 . S
O30 C29 1.245 . S
C31 O32 1.245 . S
C31 O33 1.289 . S
O32 C31 1.245 . S
O33 Mg26 2.141 . S
O33 C31 1.289 . S
O34 Mg26 2.048 . S
O34 C27 1.195 . S
O35 Mg26 2.048 . S
O35 C36 1.195 . S
C36 O35 1.195 . S
C36 O37 1.313 . S
O37 C36 1.313 . S
O38 Mg26 2.141 . S
O38 C29 1.289 . S
Mg39 O46 2.141 . S
Mg39 O47 2.048 . S
Mg39 O48 2.048 . S
Mg39 O51 2.141 . S
C40 O41 1.313 . S
C40 O47 1.195 . S
O41 C40 1.313 . S
C42 O43 1.245 . S
C42 O51 1.289 . S
O43 C42 1.245 . S
C44 O45 1.245 . S
C44 O46 1.289 . S
O45 C44 1.245 . S
O46 Mg39 2.141 . S
O46 C44 1.289 . S
O47 Mg39 2.048 . S
O47 C40 1.195 . S
O48 Mg39 2.048 . S
O48 C49 1.195 . S
C49 O48 1.195 . S
C49 O50 1.313 . S
O50 C49 1.313 . S
O51 Mg39 2.141 . S
O51 C42 1.289 . S
Mg52 O59 2.141 . S
Mg52 O60 2.048 . S
Mg52 O61 2.048 . S
Mg52 O64 2.141 . S
C53 O54 1.313 . S
C53 O60 1.195 . S
O54 C53 1.313 . S
C55 O56 1.245 . S
C55 O64 1.289 . S
O56 C55 1.245 . S
C57 O58 1.245 . S
C57 O59 1.289 . S
O58 C57 1.245 . S
O59 Mg52 2.141 . S
O59 C57 1.289 . S
O60 Mg52 2.048 . S
O60 C53 1.195 . S
O61 Mg52 2.048 . S
O61 C62 1.195 . S
C62 O61 1.195 . S
C62 O63 1.313 . S
O63 C62 1.313 . S
O64 Mg52 2.141 . S
O64 C55 1.289 . S
Mg65 O72 2.141 . S
Mg65 O73 2.048 . S
Mg65 O74 2.048 . S
Mg65 O77 2.141 . S
C66 O67 1.313 . S
C66 O73 1.195 . S
O67 C66 1.313 . S
C68 O69 1.245 . S
C68 O77 1.289 . S
O69 C68 1.245 . S
C70 O71 1.245 . S
C70 O72 1.289 . S
O71 C70 1.245 . S
O72 Mg65 2.141 . S
O72 C70 1.289 . S
O73 Mg65 2.048 . S
O73 C66 1.195 . S
O74 Mg65 2.048 . S
O74 C75 1.195 . S
C75 O74 1.195 . S
C75 O76 1.313 . S
O76 C75 1.313 . S
O77 Mg65 2.141 . S
O77 C68 1.289 . S
Mg78 O85 2.141 . S
Mg78 O86 2.048 . S
Mg78 O87 2.048 . S
Mg78 O90 2.141 . S
C79 O80 1.313 . S
C79 O86 1.195 . S
O80 C79 1.313 . S
C81 O82 1.245 . S
C81 O90 1.289 . S
O82 C81 1.245 . S
C83 O84 1.245 . S
C83 O85 1.289 . S
O84 C83 1.245 . S
O85 Mg78 2.141 . S
O85 C83 1.289 . S
O86 Mg78 2.048 . S
O86 C79 1.195 . S
O87 Mg78 2.048 . S
O87 C88 1.195 . S
C88 O87 1.195 . S
C88 O89 1.313 . S
O89 C88 1.313 . S
O90 Mg78 2.141 . S
O90 C81 1.289 . S
Mg91 O98 2.141 . S
Mg91 O99 2.048 . S
Mg91 O100 2.048 . S
Mg91 O103 2.141 . S
C92 O93 1.313 . S
C92 O99 1.195 . S
O93 C92 1.313 . S
C94 O95 1.245 . S
C94 O103 1.289 . S
O95 C94 1.245 . S
C96 O97 1.245 . S
C96 O98 1.289 . S
O97 C96 1.245 . S
O98 Mg91 2.141 . S
O98 C96 1.289 . S
O99 Mg91 2.048 . S
O99 C92 1.195 . S
O100 Mg91 2.048 . S
O100 C101 1.195 . S
C101 O100 1.195 . S
C101 O102 1.313 . S
O102 C101 1.313 . S
O103 Mg91 2.141 . S
O103 C94 1.289 . S
Mg104 O111 2.141 . S
Mg104 O112 2.048 . S
Mg104 O113 2.048 . S
Mg104 O116 2.141 . S
C105 O106 1.313 . S
C105 O112 1.195 . S
O106 C105 1.313 . S
C107 O108 1.245 . S
C107 O116 1.289 . S
O108 C107 1.245 . S
C109 O110 1.245 . S
C109 O111 1.289 . S
O110 C109 1.245 . S
O111 Mg104 2.141 . S
O111 C109 1.289 . S
O112 Mg104 2.048 . S
O112 C105 1.195 . S
O113 Mg104 2.048 . S
O113 C114 1.195 . S
C114 O113 1.195 . S
C114 O115 1.313 . S
O115 C114 1.313 . S
O116 Mg104 2.141 . S
O116 C107 1.289 . S
Mg117 O124 2.141 . S
Mg117 O125 2.048 . S
Mg117 O126 2.048 . S
Mg117 O129 2.141 . S
C118 O119 1.313 . S
C118 O125 1.195 . S
O119 C118 1.313 . S
C120 O121 1.245 . S
C120 O129 1.289 . S
O121 C120 1.245 . S
C122 O123 1.245 . S
C122 O124 1.289 . S
O123 C122 1.245 . S
O124 Mg117 2.141 . S
O124 C122 1.289 . S
O125 Mg117 2.048 . S
O125 C118 1.195 . S
O126 Mg117 2.048 . S
O126 C127 1.195 . S
C127 O126 1.195 . S
C127 O128 1.313 . S
O128 C127 1.313 . S
O129 Mg117 2.141 . S
O129 C120 1.289 . S
Mg130 O137 2.141 . S
Mg130 O138 2.048 . S
Mg130 O139 2.048 . S
Mg130 O142 2.141 . S
C131 O132 1.313 . S
C131 O138 1.195 . S
O132 C131 1.313 . S
C133 O134 1.245 . S
C133 O142 1.289 . S
O134 C133 1.245 . S
C135 O136 1.245 . S
C135 O137 1.289 . S
O136 C135 1.245 . S
O137 Mg130 2.141 . S
O137 C135 1.289 . S
O138 Mg130 2.048 . S
O138 C131 1.195 . S
O139 Mg130 2.048 . S
O139 C140 1.195 . S
C140 O139 1.195 . S
C140 O141 1.313 . S
O141 C140 1.313 . S
O142 Mg130 2.141 . S
O142 C133 1.289 . S
Mg143 O150 2.141 . S
Mg143 O151 2.048 . S
Mg143 O152 2.048 . S
Mg143 O155 2.141 . S
C144 O145 1.313 . S
C144 O151 1.195 . S
O145 C144 1.313 . S
C146 O147 1.245 . S
C146 O155 1.289 . S
O147 C146 1.245 . S
C148 O149 1.245 . S
C148 O150 1.289 . S
O149 C148 1.245 . S
O150 Mg143 2.141 . S
O150 C148 1.289 . S
O151 Mg143 2.048 . S
O151 C144 1.195 . S
O152 Mg143 2.048 . S
O152 C153 1.195 . S
C153 O152 1.195 . S
C153 O154 1.313 . S
O154 C153 1.313 . S
O155 Mg143 2.141 . S
O155 C146 1.289 . S
Mg156 O163 2.141 . S
Mg156 O164 2.048 . S
Mg156 O165 2.048 . S
Mg156 O168 2.141 . S
C157 O158 1.313 . S
C157 O164 1.195 . S
O158 C157 1.313 . S
C159 O160 1.245 . S
C159 O168 1.289 . S
O160 C159 1.245 . S
C161 O162 1.245 . S
C161 O163 1.289 . S
O162 C161 1.245 . S
O163 Mg156 2.141 . S
O163 C161 1.289 . S
O164 Mg156 2.048 . S
O164 C157 1.195 . S
O165 Mg156 2.048 . S
O165 C166 1.195 . S
C166 O165 1.195 . S
C166 O167 1.313 . S
O167 C166 1.313 . S
O168 Mg156 2.141 . S
O168 C159 1.289 . S
Mg169 O176 2.141 . S
Mg169 O177 2.048 . S
Mg169 O178 2.048 . S
Mg169 O181 2.141 . S
C170 O171 1.313 . S
C170 O177 1.195 . S
O171 C170 1.313 . S
C172 O173 1.245 . S
C172 O181 1.289 . S
O173 C172 1.245 . S
C174 O175 1.245 . S
C174 O176 1.289 . S
O175 C174 1.245 . S
O176 Mg169 2.141 . S
O176 C174 1.289 . S
O177 Mg169 2.048 . S
O177 C170 1.195 . S
O178 Mg169 2.048 . S
O178 C179 1.195 . S
C179 O178 1.195 . S
C179 O180 1.313 . S
O180 C179 1.313 . S
O181 Mg169 2.141 . S
O181 C172 1.289 . S
Mg182 O189 2.141 . S
Mg182 O190 2.048 . S
Mg182 O191 2.048 . S
Mg182 O194 2.141 . S
C183 O184 1.313 . S
C183 O190 1.195 . S
O184 C183 1.313 . S
C185 O186 1.245 . S
C185 O194 1.289 . S
O186 C185 1.245 . S
C187 O188 1.245 . S
C187 O189 1.289 . S
O188 C187 1.245 . S
O189 Mg182 2.141 . S
O189 C187 1.289 . S
O190 Mg182 2.048 . S
O190 C183 1.195 . S
O191 Mg182 2.048 . S
O191 C192 1.195 . S
C192 O191 1.195 . S
C192 O193 1.313 . S
O193 C192 1.313 . S
O194 Mg182 2.141 . S
O194 C185 1.289 . S
Mg195 O202 2.141 . S
Mg195 O203 2.048 . S
Mg195 O204 2.048 . S
Mg195 O207 2.141 . S
C196 O197 1.313 . S
C196 O203 1.195 . S
O197 C196 1.313 . S
C198 O199 1.245 . S
C198 O207 1.289 . S
O199 C198 1.245 . S
C200 O201 1.245 . S
C200 O202 1.289 . S
O201 C200 1.245 . S
O202 Mg195 2.141 . S
O202 C200 1.289 . S
O203 Mg195 2.048 . S
O203 C196 1.195 . S
O204 Mg195 2.048 . S
O204 C205 1.195 . S
C205 O204 1.195 . S
C205 O206 1.313 . S
O206 C205 1.313 . S
O207 Mg195 2.141 . S
O207 C198 1.289 . S
Mg208 O215 2.141 . S
Mg208 O216 2.048 . S
Mg208 O217 2.048 . S
Mg208 O220 2.141 . S
C209 O210 1.313 . S
C209 O216 1.195 . S
O210 C209 1.313 . S
C211 O212 1.245 . S
C211 O220 1.289 . S
O212 C211 1.245 . S
C213 O214 1.245 . S
C213 O215 1.289 . S
O214 C213 1.245 . S
O215 Mg208 2.141 . S
O215 C213 1.289 . S
O216 Mg208 2.048 . S
O216 C209 1.195 . S
O217 Mg208 2.048 . S
O217 C218 1.195 . S
C218 O217 1.195 . S
C218 O219 1.313 . S
O219 C218 1.313 . S
O220 Mg208 2.141 . S
O220 C211 1.289 . S
Mg221 O228 2.141 . S
Mg221 O229 2.048 . S
Mg221 O230 2.048 . S
Mg221 O233 2.141 . S
C222 O223 1.313 . S
C222 O229 1.195 . S
O223 C222 1.313 . S
C224 O225 1.245 . S
C224 O233 1.289 . S
O225 C224 1.245 . S
C226 O227 1.245 . S
C226 O228 1.289 . S
O227 C226 1.245 . S
O228 Mg221 2.141 . S
O228 C226 1.289 . S
O229 Mg221 2.048 . S
O229 C222 1.195 . S
O230 Mg221 2.048 . S
O230 C231 1.195 . S
C231 O230 1.195 . S
C231 O232 1.313 . S
O232 C231 1.313 . S
O233 Mg221 2.141 . S
O233 C224 1.289 . S
Mg234 O241 2.141 . S
Mg234 O242 2.048 . S
Mg234 O243 2.048 . S
Mg234 O246 2.141 . S
C235 O236 1.313 . S
C235 O242 1.195 . S
O236 C235 1.313 . S
C237 O238 1.245 . S
C237 O246 1.289 . S
O238 C237 1.245 . S
C239 O240 1.245 . S
C239 O241 1.289 . S
O240 C239 1.245 . S
O241 Mg234 2.141 . S
O241 C239 1.289 . S
O242 Mg234 2.048 . S
O242 C235 1.195 . S
O243 Mg234 2.048 . S
O243 C244 1.195 . S
C244 O243 1.195 . S
C244 O245 1.313 . S
O245 C244 1.313 . S
O246 Mg234 2.141 . S
O246 C237 1.289 . S
Mg247 O254 2.141 . S
Mg247 O255 2.048 . S
Mg247 O256 2.048 . S
Mg247 O259 2.141 . S
C248 O249 1.313 . S
C248 O255 1.195 . S
O249 C248 1.313 . S
C250 O251 1.245 . S
C250 O259 1.289 . S
O251 C250 1.245 . S
C252 O253 1.245 . S
C252 O254 1.289 . S
O253 C252 1.245 . S
O254 Mg247 2.141 . S
O254 C252 1.289 . S
O255 Mg247 2.048 . S
O255 C248 1.195 . S
O256 Mg247 2.048 . S
O256 C257 1.195 . S
C257 O256 1.195 . S
C257 O258 1.313 . S
O258 C257 1.313 . S
O259 Mg247 2.141 . S
O259 C250 1.289 . S
Mg260 O267 2.141 . S
Mg260 O268 2.048 . S
Mg260 O269 2.048 . S
Mg260 O272 2.141 . S
C261 O262 1.313 . S
C261 O268 1.195 . S
O262 C261 1.313 . S
C263 O264 1.245 . S
C263 O272 1.289 . S
O264 C263 1.245 . S
C265 O266 1.245 . S
C265 O267 1.289 . S
O266 C265 1.245 . S
O267 Mg260 2.141 . S
O267 C265 1.289 . S
O268 Mg260 2.048 . S
O268 C261 1.195 . S
O269 Mg260 2.048 . S
O269 C270 1.195 . S
C270 O269 1.195 . S
C270 O271 1.313 . S
O271 C270 1.313 . S
O272 Mg260 2.141 . S
O272 C263 1.289 . S
Mg273 O280 2.141 . S
Mg273 O281 2.048 . S
Mg273 O282 2.048 . S
Mg273 O285 2.141 . S
C274 O275 1.313 . S
C274 O281 1.195 . S
O275 C274 1.313 . S
C276 O277 1.245 . S
C276 O285 1.289 . S
O277 C276 1.245 . S
C278 O279 1.245 . S
C278 O280 1.289 . S
O279 C278 1.245 . S
O280 Mg273 2.141 . S
O280 C278 1.289 . S
O281 Mg273 2.048 . S
O281 C274 1.195 . S
O282 Mg273 2.048 . S
O282 C283 1.195 . S
C283 O282 1.195 . S
C283 O284 1.313 . S
O284 C283 1.313 . S
O285 Mg273 2.141 . S
O285 C276 1.289 . S
Mg286 O293 2.141 . S
Mg286 O294 2.048 . S
Mg286 O295 2.048 . S
Mg286 O298 2.141 . S
C287 O288 1.313 . S
C287 O294 1.195 . S
O288 C287 1.313 . S
C289 O290 1.245 . S
C289 O298 1.289 . S
O290 C289 1.245 . S
C291 O292 1.245 . S
C291 O293 1.289 . S
O292 C291 1.245 . S
O293 Mg286 2.141 . S
O293 C291 1.289 . S
O294 Mg286 2.048 . S
O294 C287 1.195 . S
O295 Mg286 2.048 . S
O295 C296 1.195 . S
C296 O295 1.195 . S
C296 O297 1.313 . S
O297 C296 1.313 . S
O298 Mg286 2.141 . S
O298 C289 1.289 . S
Mg299 O306 2.141 . S
Mg299 O307 2.048 . S
Mg299 O308 2.048 . S
Mg299 O311 2.141 . S
C300 O301 1.313 . S
C300 O307 1.195 . S
O301 C300 1.313 . S
C302 O303 1.245 . S
C302 O311 1.289 . S
O303 C302 1.245 . S
C304 O305 1.245 . S
C304 O306 1.289 . S
O305 C304 1.245 . S
O306 Mg299 2.141 . S
O306 C304 1.289 . S
O307 Mg299 2.048 . S
O307 C300 1.195 . S
O308 Mg299 2.048 . S
O308 C309 1.195 . S
C309 O308 1.195 . S
C309 O310 1.313 . S
O310 C309 1.313 . S
O311 Mg299 2.141 . S
O311 C302 1.289 . S
H312 C318 0.930 . S
H313 C321 0.930 . S
H314 C322 0.930 . S
H315 C323 0.930 . S
H316 C326 0.930 . S
H317 C327 0.930 . S
C318 H312 0.930 . S
C318 C319 1.355 . S
C318 C320 1.415 . S
C319 C318 1.355 . S
C319 C321 1.419 . S
C320 C318 1.415 . S
C320 C325 1.425 . S
C320 C327 1.409 . S
C321 H313 0.930 . S
C321 C319 1.419 . S
C321 C322 1.362 . S
C322 H314 0.930 . S
C322 C321 1.362 . S
C322 C325 1.409 . S
C323 H315 0.930 . S
C323 C324 1.355 . S
C323 C325 1.415 . S
C324 C323 1.355 . S
C324 C326 1.419 . S
C325 C320 1.425 . S
C325 C322 1.409 . S
C325 C323 1.415 . S
C326 H316 0.930 . S
C326 C324 1.419 . S
C326 C327 1.362 . S
C327 H317 0.930 . S
C327 C320 1.409 . S
C327 C326 1.362 . S
H328 C334 0.930 . S
H329 C337 0.930 . S
H330 C338 0.930 . S
H331 C339 0.930 . S
H332 C342 0.930 . S
H333 C343 0.930 . S
C334 H328 0.930 . S
C334 C335 1.355 . S
C334 C336 1.415 . S
C335 C334 1.355 . S
C335 C337 1.419 . S
C336 C334 1.415 . S
C336 C341 1.425 . S
C336 C343 1.409 . S
C337 H329 0.930 . S
C337 C335 1.419 . S
C337 C338 1.362 . S
C338 H330 0.930 . S
C338 C337 1.362 . S
C338 C341 1.409 . S
C339 H331 0.930 . S
C339 C340 1.355 . S
C339 C341 1.415 . S
C340 C339 1.355 . S
C340 C342 1.419 . S
C341 C336 1.425 . S
C341 C338 1.409 . S
C341 C339 1.415 . S
C342 H332 0.930 . S
C342 C340 1.419 . S
C342 C343 1.362 . S
C343 H333 0.930 . S
C343 C336 1.409 . S
C343 C342 1.362 . S
H344 C350 0.930 . S
H345 C353 0.930 . S
H346 C354 0.930 . S
H347 C355 0.930 . S
H348 C358 0.930 . S
H349 C359 0.930 . S
C350 H344 0.930 . S
C350 C351 1.355 . S
C350 C352 1.415 . S
C351 C350 1.355 . S
C351 C353 1.419 . S
C352 C350 1.415 . S
C352 C357 1.425 . S
C352 C359 1.409 . S
C353 H345 0.930 . S
C353 C351 1.419 . S
C353 C354 1.362 . S
C354 H346 0.930 . S
C354 C353 1.362 . S
C354 C357 1.409 . S
C355 H347 0.930 . S
C355 C356 1.355 . S
C355 C357 1.415 . S
C356 C355 1.355 . S
C356 C358 1.419 . S
C357 C352 1.425 . S
C357 C354 1.409 . S
C357 C355 1.415 . S
C358 H348 0.930 . S
C358 C356 1.419 . S
C358 C359 1.362 . S
C359 H349 0.930 . S
C359 C352 1.409 . S
C359 C358 1.362 . S
H360 C366 0.930 . S
H361 C369 0.930 . S
H362 C370 0.930 . S
H363 C371 0.930 . S
H364 C374 0.930 . S
H365 C375 0.930 . S
C366 H360 0.930 . S
C366 C367 1.355 . S
C366 C368 1.415 . S
C367 C366 1.355 . S
C367 C369 1.419 . S
C368 C366 1.415 . S
C368 C373 1.425 . S
C368 C375 1.409 . S
C369 H361 0.930 . S
C369 C367 1.419 . S
C369 C370 1.362 . S
C370 H362 0.930 . S
C370 C369 1.362 . S
C370 C373 1.409 . S
C371 H363 0.930 . S
C371 C372 1.355 . S
C371 C373 1.415 . S
C372 C371 1.355 . S
C372 C374 1.419 . S
C373 C368 1.425 . S
C373 C370 1.409 . S
C373 C371 1.415 . S
C374 H364 0.930 . S
C374 C372 1.419 . S
C374 C375 1.362 . S
C375 H365 0.930 . S
C375 C368 1.409 . S
C375 C374 1.362 . S
H376 C382 0.930 . S
H377 C385 0.930 . S
H378 C386 0.930 . S
H379 C387 0.930 . S
H380 C390 0.930 . S
H381 C391 0.930 . S
C382 H376 0.930 . S
C382 C383 1.355 . S
C382 C384 1.415 . S
C383 C382 1.355 . S
C383 C385 1.419 . S
C384 C382 1.415 . S
C384 C389 1.425 . S
C384 C391 1.409 . S
C385 H377 0.930 . S
C385 C383 1.419 . S
C385 C386 1.362 . S
C386 H378 0.930 . S
C386 C385 1.362 . S
C386 C389 1.409 . S
C387 H379 0.930 . S
C387 C388 1.355 . S
C387 C389 1.415 . S
C388 C387 1.355 . S
C388 C390 1.419 . S
C389 C384 1.425 . S
C389 C386 1.409 . S
C389 C387 1.415 . S
C390 H380 0.930 . S
C390 C388 1.419 . S
C390 C391 1.362 . S
C391 H381 0.930 . S
C391 C384 1.409 . S
C391 C390 1.362 . S
H392 C398 0.930 . S
H393 C401 0.930 . S
H394 C402 0.930 . S
H395 C403 0.930 . S
H396 C406 0.930 . S
H397 C407 0.930 . S
C398 H392 0.930 . S
C398 C399 1.355 . S
C398 C400 1.415 . S
C399 C398 1.355 . S
C399 C401 1.419 . S
C400 C398 1.415 . S
C400 C405 1.425 . S
C400 C407 1.409 . S
C401 H393 0.930 . S
C401 C399 1.419 . S
C401 C402 1.362 . S
C402 H394 0.930 . S
C402 C401 1.362 . S
C402 C405 1.409 . S
C403 H395 0.930 . S
C403 C404 1.355 . S
C403 C405 1.415 . S
C404 C403 1.355 . S
C404 C406 1.419 . S
C405 C400 1.425 . S
C405 C402 1.409 . S
C405 C403 1.415 . S
C406 H396 0.930 . S
C406 C404 1.419 . S
C406 C407 1.362 . S
C407 H397 0.930 . S
C407 C400 1.409 . S
C407 C406 1.362 . S
H408 C414 0.930 . S
H409 C417 0.930 . S
H410 C418 0.930 . S
H411 C419 0.930 . S
H412 C422 0.930 . S
H413 C423 0.930 . S
C414 H408 0.930 . S
C414 C415 1.355 . S
C414 C416 1.415 . S
C415 C414 1.355 . S
C415 C417 1.419 . S
C416 C414 1.415 . S
C416 C421 1.425 . S
C416 C423 1.409 . S
C417 H409 0.930 . S
C417 C415 1.419 . S
C417 C418 1.362 . S
C418 H410 0.930 . S
C418 C417 1.362 . S
C418 C421 1.409 . S
C419 H411 0.930 . S
C419 C420 1.355 . S
C419 C421 1.415 . S
C420 C419 1.355 . S
C420 C422 1.419 . S
C421 C416 1.425 . S
C421 C418 1.409 . S
C421 C419 1.415 . S
C422 H412 0.930 . S
C422 C420 1.419 . S
C422 C423 1.362 . S
C423 H413 0.930 . S
C423 C416 1.409 . S
C423 C422 1.362 . S
H424 C430 0.930 . S
H425 C433 0.930 . S
H426 C434 0.930 . S
H427 C435 0.930 . S
H428 C438 0.930 . S
H429 C439 0.930 . S
C430 H424 0.930 . S
C430 C431 1.355 . S
C430 C432 1.415 . S
C431 C430 1.355 . S
C431 C433 1.419 . S
C432 C430 1.415 . S
C432 C437 1.425 . S
C432 C439 1.409 . S
C433 H425 0.930 . S
C433 C431 1.419 . S
C433 C434 1.362 . S
C434 H426 0.930 . S
C434 C433 1.362 . S
C434 C437 1.409 . S
C435 H427 0.930 . S
C435 C436 1.355 . S
C435 C437 1.415 . S
C436 C435 1.355 . S
C436 C438 1.419 . S
C437 C432 1.425 . S
C437 C434 1.409 . S
C437 C435 1.415 . S
C438 H428 0.930 . S
C438 C436 1.419 . S
C438 C439 1.362 . S
C439 H429 0.930 . S
C439 C432 1.409 . S
C439 C438 1.362 . S
H440 C446 0.930 . S
H441 C449 0.930 . S
H442 C450 0.930 . S
H443 C451 0.930 . S
H444 C454 0.930 . S
H445 C455 0.930 . S
C446 H440 0.930 . S
C446 C447 1.355 . S
C446 C448 1.415 . S
C447 C446 1.355 . S
C447 C449 1.419 . S
C448 C446 1.415 . S
C448 C453 1.425 . S
C448 C455 1.409 . S
C449 H441 0.930 . S
C449 C447 1.419 . S
C449 C450 1.362 . S
C450 H442 0.930 . S
C450 C449 1.362 . S
C450 C453 1.409 . S
C451 H443 0.930 . S
C451 C452 1.355 . S
C451 C453 1.415 . S
C452 C451 1.355 . S
C452 C454 1.419 . S
C453 C448 1.425 . S
C453 C450 1.409 . S
C453 C451 1.415 . S
C454 H444 0.930 . S
C454 C452 1.419 . S
C454 C455 1.362 . S
C455 H445 0.930 . S
C455 C448 1.409 . S
C455 C454 1.362 . S
H456 C462 0.930 . S
H457 C465 0.930 . S
H458 C466 0.930 . S
H459 C467 0.930 . S
H460 C470 0.930 . S
H461 C471 0.930 . S
C462 H456 0.930 . S
C462 C463 1.355 . S
C462 C464 1.415 . S
C463 C462 1.355 . S
C463 C465 1.419 . S
C464 C462 1.415 . S
C464 C469 1.425 . S
C464 C471 1.409 . S
C465 H457 0.930 . S
C465 C463 1.419 . S
C465 C466 1.362 . S
C466 H458 0.930 . S
C466 C465 1.362 . S
C466 C469 1.409 . S
C467 H459 0.930 . S
C467 C468 1.355 . S
C467 C469 1.415 . S
C468 C467 1.355 . S
C468 C470 1.419 . S
C469 C464 1.425 . S
C469 C466 1.409 . S
C469 C467 1.415 . S
C470 H460 0.930 . S
C470 C468 1.419 . S
C470 C471 1.362 . S
C471 H461 0.930 . S
C471 C464 1.409 . S
C471 C470 1.362 . S
H472 C478 0.930 . S
H473 C481 0.930 . S
H474 C482 0.930 . S
H475 C483 0.930 . S
H476 C486 0.930 . S
H477 C487 0.930 . S
C478 H472 0.930 . S
C478 C479 1.355 . S
C478 C480 1.415 . S
C479 C478 1.355 . S
C479 C481 1.419 . S
C480 C478 1.415 . S
C480 C485 1.425 . S
C480 C487 1.409 . S
C481 H473 0.930 . S
C481 C479 1.419 . S
C481 C482 1.362 . S
C482 H474 0.930 . S
C482 C481 1.362 . S
C482 C485 1.409 . S
C483 H475 0.930 . S
C483 C484 1.355 . S
C483 C485 1.415 . S
C484 C483 1.355 . S
C484 C486 1.419 . S
C485 C480 1.425 . S
C485 C482 1.409 . S
C485 C483 1.415 . S
C486 H476 0.930 . S
C486 C484 1.419 . S
C486 C487 1.362 . S
C487 H477 0.930 . S
C487 C480 1.409 . S
C487 C486 1.362 . S
H488 C494 0.930 . S
H489 C497 0.930 . S
H490 C498 0.930 . S
H491 C499 0.930 . S
H492 C502 0.930 . S
H493 C503 0.930 . S
C494 H488 0.930 . S
C494 C495 1.355 . S
C494 C496 1.415 . S
C495 C494 1.355 . S
C495 C497 1.419 . S
C496 C494 1.415 . S
C496 C501 1.425 . S
C496 C503 1.409 . S
C497 H489 0.930 . S
C497 C495 1.419 . S
C497 C498 1.362 . S
C498 H490 0.930 . S
C498 C497 1.362 . S
C498 C501 1.409 . S
C499 H491 0.930 . S
C499 C500 1.355 . S
C499 C501 1.415 . S
C500 C499 1.355 . S
C500 C502 1.419 . S
C501 C496 1.425 . S
C501 C498 1.409 . S
C501 C499 1.415 . S
C502 H492 0.930 . S
C502 C500 1.419 . S
C502 C503 1.362 . S
C503 H493 0.930 . S
C503 C496 1.409 . S
C503 C502 1.362 . S
H504 C510 0.930 . S
H505 C513 0.930 . S
H506 C514 0.930 1_545 S
H507 C515 0.930 . S
H508 C518 0.930 . S
H509 C519 0.930 1_565 S
C510 H504 0.930 . S
C510 C511 1.355 . S
C510 C512 1.415 . S
C511 C510 1.355 . S
C511 C513 1.419 . S
C512 C510 1.415 . S
C512 C517 1.425 1_565 S
C512 C519 1.409 1_565 S
C513 H505 0.930 . S
C513 C511 1.419 . S
C513 C514 1.362 . S
C514 H506 0.930 1_565 S
C514 C513 1.362 . S
C514 C517 1.409 1_565 S
C515 H507 0.930 . S
C515 C516 1.355 . S
C515 C517 1.415 . S
C516 C515 1.355 . S
C516 C518 1.419 . S
C517 C512 1.425 1_545 S
C517 C514 1.409 1_545 S
C517 C515 1.415 . S
C518 H508 0.930 . S
C518 C516 1.419 . S
C518 C519 1.362 . S
C519 H509 0.930 1_545 S
C519 C512 1.409 1_545 S
C519 C518 1.362 . S
H520 C526 0.930 . S
H521 C529 0.930 . S
H522 C530 0.930 . S
H523 C531 0.930 . S
H524 C534 0.930 . S
H525 C535 0.930 . S
C526 H520 0.930 . S
C526 C527 1.355 . S
C526 C528 1.415 . S
C527 C526 1.355 . S
C527 C529 1.419 . S
C528 C526 1.415 . S
C528 C533 1.425 1_655 S
C528 C535 1.409 . S
C529 H521 0.930 . S
C529 C527 1.419 . S
C529 C530 1.362 1_655 S
C530 H522 0.930 . S
C530 C529 1.362 1_455 S
C530 C533 1.409 . S
C531 H523 0.930 . S
C531 C532 1.355 . S
C531 C533 1.415 . S
C532 C531 1.355 . S
C532 C534 1.419 . S
C533 C528 1.425 1_455 S
C533 C530 1.409 . S
C533 C531 1.415 . S
C534 H524 0.930 . S
C534 C532 1.419 . S
C534 C535 1.362 1_455 S
C535 H525 0.930 . S
C535 C528 1.409 . S
C535 C534 1.362 1_655 S
H536 C542 0.930 . S
H537 C545 0.930 . S
H538 C546 0.930 . S
H539 C547 0.930 . S
H540 C550 0.930 . S
H541 C551 0.930 . S
C542 H536 0.930 . S
C542 C543 1.355 . S
C542 C544 1.415 1_545 S
C543 C542 1.355 . S
C543 C545 1.419 . S
C544 C542 1.415 1_565 S
C544 C549 1.425 1_565 S
C544 C551 1.409 . S
C545 H537 0.930 . S
C545 C543 1.419 . S
C545 C546 1.362 . S
C546 H538 0.930 . S
C546 C545 1.362 . S
C546 C549 1.409 . S
C547 H539 0.930 . S
C547 C548 1.355 . S
C547 C549 1.415 1_565 S
C548 C547 1.355 . S
C548 C550 1.419 . S
C549 C544 1.425 1_545 S
C549 C546 1.409 . S
C549 C547 1.415 1_545 S
C550 H540 0.930 . S
C550 C548 1.419 . S
C550 C551 1.362 . S
C551 H541 0.930 . S
C551 C544 1.409 . S
C551 C550 1.362 . S
H552 C558 0.930 . S
H553 C561 0.930 . S
H554 C562 0.930 . S
H555 C563 0.930 . S
H556 C566 0.930 . S
H557 C567 0.930 . S
C558 H552 0.930 . S
C558 C559 1.355 . S
C558 C560 1.415 . S
C559 C558 1.355 . S
C559 C561 1.419 . S
C560 C558 1.415 . S
C560 C565 1.425 1_455 S
C560 C567 1.409 1_455 S
C561 H553 0.930 . S
C561 C559 1.419 . S
C561 C562 1.362 . S
C562 H554 0.930 . S
C562 C561 1.362 . S
C562 C565 1.409 1_455 S
C563 H555 0.930 . S
C563 C564 1.355 . S
C563 C565 1.415 . S
C564 C563 1.355 . S
C564 C566 1.419 . S
C565 C560 1.425 1_655 S
C565 C562 1.409 1_655 S
C565 C563 1.415 . S
C566 H556 0.930 . S
C566 C564 1.419 . S
C566 C567 1.362 . S
C567 H557 0.930 . S
C567 C560 1.409 1_655 S
C567 C566 1.362 . S
H568 C574 0.930 . S
H569 C577 0.930 . S
H570 C578 0.930 . S
H571 C579 0.930 . S
H572 C582 0.930 . S
H573 C583 0.930 . S
C574 H568 0.930 . S
C574 C575 1.355 . S
C574 C576 1.415 1_565 S
C575 C574 1.355 . S
C575 C577 1.419 . S
C576 C574 1.415 1_545 S
C576 C581 1.425 1_545 S
C576 C583 1.409 . S
C577 H569 0.930 . S
C577 C575 1.419 . S
C577 C578 1.362 . S
C578 H570 0.930 . S
C578 C577 1.362 . S
C578 C581 1.409 . S
C579 H571 0.930 . S
C579 C580 1.355 . S
C579 C581 1.415 1_545 S
C580 C579 1.355 . S
C580 C582 1.419 . S
C581 C576 1.425 1_565 S
C581 C578 1.409 . S
C581 C579 1.415 1_565 S
C582 H572 0.930 . S
C582 C580 1.419 . S
C582 C583 1.362 . S
C583 H573 0.930 . S
C583 C576 1.409 . S
C583 C582 1.362 . S
H584 C590 0.930 . S
H585 C593 0.930 . S
H586 C594 0.930 . S
H587 C595 0.930 . S
H588 C598 0.930 . S
H589 C599 0.930 . S
C590 H584 0.930 . S
C590 C591 1.355 . S
C590 C592 1.415 1_655 S
C591 C590 1.355 . S
C591 C593 1.419 . S
C592 C590 1.415 1_455 S
C592 C597 1.425 1_455 S
C592 C599 1.409 . S
C593 H585 0.930 . S
C593 C591 1.419 . S
C593 C594 1.362 . S
C594 H586 0.930 . S
C594 C593 1.362 . S
C594 C597 1.409 . S
C595 H587 0.930 . S
C595 C596 1.355 . S
C595 C597 1.415 1_455 S
C596 C595 1.355 . S
C596 C598 1.419 . S
C597 C592 1.425 1_655 S
C597 C594 1.409 . S
C597 C595 1.415 1_655 S
C598 H588 0.930 . S
C598 C596 1.419 . S
C598 C599 1.362 . S
C599 H589 0.930 . S
C599 C592 1.409 . S
C599 C598 1.362 . S
H600 C606 0.930 . S
H601 C609 0.930 . S
H602 C610 0.930 . S
H603 C611 0.930 . S
H604 C614 0.930 . S
H605 C615 0.930 . S
C606 H600 0.930 . S
C606 C607 1.355 . S
C606 C608 1.415 . S
C607 C606 1.355 . S
C607 C609 1.419 . S
C608 C606 1.415 . S
C608 C613 1.425 1_565 S
C608 C615 1.409 1_565 S
C609 H601 0.930 . S
C609 C607 1.419 . S
C609 C610 1.362 . S
C610 H602 0.930 . S
C610 C609 1.362 . S
C610 C613 1.409 1_565 S
C611 H603 0.930 . S
C611 C612 1.355 . S
C611 C613 1.415 . S
C612 C611 1.355 . S
C612 C614 1.419 . S
C613 C608 1.425 1_545 S
C613 C610 1.409 1_545 S
C613 C611 1.415 . S
C614 H604 0.930 . S
C614 C612 1.419 . S
C614 C615 1.362 . S
C615 H605 0.930 . S
C615 C608 1.409 1_545 S
C615 C614 1.362 . S
H616 C622 0.930 . S
H617 C625 0.930 . S
H618 C626 0.930 . S
H619 C627 0.930 . S
H620 C630 0.930 . S
H621 C631 0.930 . S
C622 H616 0.930 . S
C622 C623 1.355 . S
C622 C624 1.415 . S
C623 C622 1.355 . S
C623 C625 1.419 . S
C624 C622 1.415 . S
C624 C629 1.425 1_455 S
C624 C631 1.409 . S
C625 H617 0.930 . S
C625 C623 1.419 . S
C625 C626 1.362 1_455 S
C626 H618 0.930 . S
C626 C625 1.362 1_655 S
C626 C629 1.409 . S
C627 H619 0.930 . S
C627 C628 1.355 . S
C627 C629 1.415 . S
C628 C627 1.355 . S
C628 C630 1.419 . S
C629 C624 1.425 1_655 S
C629 C626 1.409 . S
C629 C627 1.415 . S
C630 H620 0.930 . S
C630 C628 1.419 . S
C630 C631 1.362 1_655 S
C631 H621 0.930 . S
C631 C624 1.409 . S
C631 C630 1.362 1_455 S
H632 C638 0.930 . S
H633 C641 0.930 . S
H634 C642 0.930 . S
H635 C643 0.930 . S
H636 C646 0.930 . S
H637 C647 0.930 . S
C638 H632 0.930 . S
C638 C639 1.355 . S
C638 C640 1.415 1_556 S
C639 C638 1.355 . S
C639 C641 1.419 . S
C640 C638 1.415 1_554 S
C640 C645 1.425 1_554 S
C640 C647 1.409 . S
C641 H633 0.930 . S
C641 C639 1.419 . S
C641 C642 1.362 . S
C642 H634 0.930 . S
C642 C641 1.362 . S
C642 C645 1.409 . S
C643 H635 0.930 . S
C643 C644 1.355 . S
C643 C645 1.415 1_554 S
C644 C643 1.355 . S
C644 C646 1.419 . S
C645 C640 1.425 1_556 S
C645 C642 1.409 . S
C645 C643 1.415 1_556 S
C646 H636 0.930 . S
C646 C644 1.419 . S
C646 C647 1.362 . S
C647 H637 0.930 . S
C647 C640 1.409 . S
C647 C646 1.362 . S
H648 C654 0.930 . S
H649 C657 0.930 . S
H650 C658 0.930 . S
H651 C659 0.930 . S
H652 C662 0.930 . S
H653 C663 0.930 . S
C654 H648 0.930 . S
C654 C655 1.355 . S
C654 C656 1.415 . S
C655 C654 1.355 . S
C655 C657 1.419 . S
C656 C654 1.415 . S
C656 C661 1.425 1_554 S
C656 C663 1.409 1_554 S
C657 H649 0.930 . S
C657 C655 1.419 . S
C657 C658 1.362 . S
C658 H650 0.930 . S
C658 C657 1.362 . S
C658 C661 1.409 1_554 S
C659 H651 0.930 . S
C659 C660 1.355 . S
C659 C661 1.415 . S
C660 C659 1.355 . S
C660 C662 1.419 . S
C661 C656 1.425 1_556 S
C661 C658 1.409 1_556 S
C661 C659 1.415 . S
C662 H652 0.930 . S
C662 C660 1.419 . S
C662 C663 1.362 . S
C663 H653 0.930 . S
C663 C656 1.409 1_556 S
C663 C662 1.362 . S
H664 C670 0.930 . S
H665 C673 0.930 . S
H666 C674 0.930 . S
H667 C675 0.930 . S
H668 C678 0.930 . S
H669 C679 0.930 . S
C670 H664 0.930 . S
C670 C671 1.355 . S
C670 C672 1.415 1_556 S
C671 C670 1.355 . S
C671 C673 1.419 . S
C672 C670 1.415 1_554 S
C672 C677 1.425 1_554 S
C672 C679 1.409 . S
C673 H665 0.930 . S
C673 C671 1.419 . S
C673 C674 1.362 . S
C674 H666 0.930 . S
C674 C673 1.362 . S
C674 C677 1.409 . S
C675 H667 0.930 . S
C675 C676 1.355 . S
C675 C677 1.415 1_554 S
C676 C675 1.355 . S
C676 C678 1.419 . S
C677 C672 1.425 1_556 S
C677 C674 1.409 . S
C677 C675 1.415 1_556 S
C678 H668 0.930 . S
C678 C676 1.419 . S
C678 C679 1.362 . S
C679 H669 0.930 . S
C679 C672 1.409 . S
C679 C678 1.362 . S
H680 C686 0.930 . S
H681 C689 0.930 . S
H682 C690 0.930 . S
H683 C691 0.930 . S
H684 C694 0.930 . S
H685 C695 0.930 . S
C686 H680 0.930 . S
C686 C687 1.355 . S
C686 C688 1.415 1_554 S
C687 C686 1.355 . S
C687 C689 1.419 . S
C688 C686 1.415 1_556 S
C688 C693 1.425 1_556 S
C688 C695 1.409 . S
C689 H681 0.930 . S
C689 C687 1.419 . S
C689 C690 1.362 . S
C690 H682 0.930 . S
C690 C689 1.362 . S
C690 C693 1.409 . S
C691 H683 0.930 . S
C691 C692 1.355 . S
C691 C693 1.415 1_556 S
C692 C691 1.355 . S
C692 C694 1.419 . S
C693 C688 1.425 1_554 S
C693 C690 1.409 . S
C693 C691 1.415 1_554 S
C694 H684 0.930 . S
C694 C692 1.419 . S
C694 C695 1.362 . S
C695 H685 0.930 . S
C695 C688 1.409 . S
C695 C694 1.362 . S
H696 C702 0.930 . S
H697 C705 0.930 . S
H698 C706 0.930 . S
H699 C707 0.930 . S
H700 C710 0.930 . S
H701 C711 0.930 . S
C702 H696 0.930 . S
C702 C703 1.355 . S
C702 C704 1.415 . S
C703 C702 1.355 . S
C703 C705 1.419 . S
C704 C702 1.415 . S
C704 C709 1.425 . S
C704 C711 1.409 . S
C705 H697 0.930 . S
C705 C703 1.419 . S
C705 C706 1.362 . S
C706 H698 0.930 . S
C706 C705 1.362 . S
C706 C709 1.409 . S
C707 H699 0.930 . S
C707 C708 1.355 . S
C707 C709 1.415 . S
C708 C707 1.355 . S
C708 C710 1.419 . S
C709 C704 1.425 . S
C709 C706 1.409 . S
C709 C707 1.415 . S
C710 H700 0.930 . S
C710 C708 1.419 . S
C710 C711 1.362 . S
C711 H701 0.930 . S
C711 C704 1.409 . S
C711 C710 1.362 . S
H712 C718 0.930 . S
H713 C721 0.930 . S
H714 C722 0.930 . S
H715 C723 0.930 . S
H716 C726 0.930 . S
H717 C727 0.930 . S
C718 H712 0.930 . S
C718 C719 1.355 . S
C718 C720 1.415 . S
C719 C718 1.355 . S
C719 C721 1.419 . S
C720 C718 1.415 . S
C720 C725 1.425 . S
C720 C727 1.409 . S
C721 H713 0.930 . S
C721 C719 1.419 . S
C721 C722 1.362 . S
C722 H714 0.930 . S
C722 C721 1.362 . S
C722 C725 1.409 . S
C723 H715 0.930 . S
C723 C724 1.355 . S
C723 C725 1.415 . S
C724 C723 1.355 . S
C724 C726 1.419 . S
C725 C720 1.425 . S
C725 C722 1.409 . S
C725 C723 1.415 . S
C726 H716 0.930 . S
C726 C724 1.419 . S
C726 C727 1.362 . S
C727 H717 0.930 . S
C727 C720 1.409 . S
C727 C726 1.362 . S
H728 C734 0.930 . S
H729 C737 0.930 . S
H730 C738 0.930 . S
H731 C739 0.930 . S
H732 C742 0.930 . S
H733 C743 0.930 . S
C734 H728 0.930 . S
C734 C735 1.355 . S
C734 C736 1.415 . S
C735 C734 1.355 . S
C735 C737 1.419 . S
C736 C734 1.415 . S
C736 C741 1.425 . S
C736 C743 1.409 . S
C737 H729 0.930 . S
C737 C735 1.419 . S
C737 C738 1.362 . S
C738 H730 0.930 . S
C738 C737 1.362 . S
C738 C741 1.409 . S
C739 H731 0.930 . S
C739 C740 1.355 . S
C739 C741 1.415 . S
C740 C739 1.355 . S
C740 C742 1.419 . S
C741 C736 1.425 . S
C741 C738 1.409 . S
C741 C739 1.415 . S
C742 H732 0.930 . S
C742 C740 1.419 . S
C742 C743 1.362 . S
C743 H733 0.930 . S
C743 C736 1.409 . S
C743 C742 1.362 . S
H744 C750 0.930 . S
H745 C753 0.930 . S
H746 C754 0.930 . S
H747 C755 0.930 . S
H748 C758 0.930 . S
H749 C759 0.930 . S
C750 H744 0.930 . S
C750 C751 1.355 . S
C750 C752 1.415 . S
C751 C750 1.355 . S
C751 C753 1.419 . S
C752 C750 1.415 . S
C752 C757 1.425 . S
C752 C759 1.409 . S
C753 H745 0.930 . S
C753 C751 1.419 . S
C753 C754 1.362 . S
C754 H746 0.930 . S
C754 C753 1.362 . S
C754 C757 1.409 . S
C755 H747 0.930 . S
C755 C756 1.355 . S
C755 C757 1.415 . S
C756 C755 1.355 . S
C756 C758 1.419 . S
C757 C752 1.425 . S
C757 C754 1.409 . S
C757 C755 1.415 . S
C758 H748 0.930 . S
C758 C756 1.419 . S
C758 C759 1.362 . S
C759 H749 0.930 . S
C759 C752 1.409 . S
C759 C758 1.362 . S
H760 C766 0.930 . S
H761 C769 0.930 . S
H762 C770 0.930 . S
H763 C771 0.930 . S
H764 C774 0.930 . S
H765 C775 0.930 . S
C766 H760 0.930 . S
C766 C767 1.355 . S
C766 C768 1.415 . S
C767 C766 1.355 . S
C767 C769 1.419 . S
C768 C766 1.415 . S
C768 C773 1.425 . S
C768 C775 1.409 . S
C769 H761 0.930 . S
C769 C767 1.419 . S
C769 C770 1.362 . S
C770 H762 0.930 . S
C770 C769 1.362 . S
C770 C773 1.409 . S
C771 H763 0.930 . S
C771 C772 1.355 . S
C771 C773 1.415 . S
C772 C771 1.355 . S
C772 C774 1.419 . S
C773 C768 1.425 . S
C773 C770 1.409 . S
C773 C771 1.415 . S
C774 H764 0.930 . S
C774 C772 1.419 . S
C774 C775 1.362 . S
C775 H765 0.930 . S
C775 C768 1.409 . S
C775 C774 1.362 . S
H776 C782 0.930 . S
H777 C785 0.930 . S
H778 C786 0.930 . S
H779 C787 0.930 . S
H780 C790 0.930 . S
H781 C791 0.930 . S
C782 H776 0.930 . S
C782 C783 1.355 . S
C782 C784 1.415 . S
C783 C782 1.355 . S
C783 C785 1.419 . S
C784 C782 1.415 . S
C784 C789 1.425 . S
C784 C791 1.409 . S
C785 H777 0.930 . S
C785 C783 1.419 . S
C785 C786 1.362 . S
C786 H778 0.930 . S
C786 C785 1.362 . S
C786 C789 1.409 . S
C787 H779 0.930 . S
C787 C788 1.355 . S
C787 C789 1.415 . S
C788 C787 1.355 . S
C788 C790 1.419 . S
C789 C784 1.425 . S
C789 C786 1.409 . S
C789 C787 1.415 . S
C790 H780 0.930 . S
C790 C788 1.419 . S
C790 C791 1.362 . S
C791 H781 0.930 . S
C791 C784 1.409 . S
C791 C790 1.362 . S
H792 C798 0.930 . S
H793 C801 0.930 . S
H794 C802 0.930 . S
H795 C803 0.930 . S
H796 C806 0.930 . S
H797 C807 0.930 . S
C798 H792 0.930 . S
C798 C799 1.355 . S
C798 C800 1.415 . S
C799 C798 1.355 . S
C799 C801 1.419 . S
C800 C798 1.415 . S
C800 C805 1.425 . S
C800 C807 1.409 . S
C801 H793 0.930 . S
C801 C799 1.419 . S
C801 C802 1.362 . S
C802 H794 0.930 . S
C802 C801 1.362 . S
C802 C805 1.409 . S
C803 H795 0.930 . S
C803 C804 1.355 . S
C803 C805 1.415 . S
C804 C803 1.355 . S
C804 C806 1.419 . S
C805 C800 1.425 . S
C805 C802 1.409 . S
C805 C803 1.415 . S
C806 H796 0.930 . S
C806 C804 1.419 . S
C806 C807 1.362 . S
C807 H797 0.930 . S
C807 C800 1.409 . S
C807 C806 1.362 . S
H808 C814 0.930 . S
H809 C817 0.930 . S
H810 C818 0.930 . S
H811 C819 0.930 . S
H812 C822 0.930 . S
H813 C823 0.930 . S
C814 H808 0.930 . S
C814 C815 1.355 . S
C814 C816 1.415 . S
C815 C814 1.355 . S
C815 C817 1.419 . S
C816 C814 1.415 . S
C816 C821 1.425 . S
C816 C823 1.409 . S
C817 H809 0.930 . S
C817 C815 1.419 . S
C817 C818 1.362 . S
C818 H810 0.930 . S
C818 C817 1.362 . S
C818 C821 1.409 . S
C819 H811 0.930 . S
C819 C820 1.355 . S
C819 C821 1.415 . S
C820 C819 1.355 . S
C820 C822 1.419 . S
C821 C816 1.425 . S
C821 C818 1.409 . S
C821 C819 1.415 . S
C822 H812 0.930 . S
C822 C820 1.419 . S
C822 C823 1.362 . S
C823 H813 0.930 . S
C823 C816 1.409 . S
C823 C822 1.362 . S
H824 C830 0.930 . S
H825 C833 0.930 . S
H826 C834 0.930 . S
H827 C835 0.930 . S
H828 C838 0.930 . S
H829 C839 0.930 . S
C830 H824 0.930 . S
C830 C831 1.355 . S
C830 C832 1.415 . S
C831 C830 1.355 . S
C831 C833 1.419 . S
C832 C830 1.415 . S
C832 C837 1.425 . S
C832 C839 1.409 . S
C833 H825 0.930 . S
C833 C831 1.419 . S
C833 C834 1.362 . S
C834 H826 0.930 . S
C834 C833 1.362 . S
C834 C837 1.409 . S
C835 H827 0.930 . S
C835 C836 1.355 . S
C835 C837 1.415 . S
C836 C835 1.355 . S
C836 C838 1.419 . S
C837 C832 1.425 . S
C837 C834 1.409 . S
C837 C835 1.415 . S
C838 H828 0.930 . S
C838 C836 1.419 . S
C838 C839 1.362 . S
C839 H829 0.930 . S
C839 C832 1.409 . S
C839 C838 1.362 . S
H840 C846 0.930 . S
H841 C849 0.930 . S
H842 C850 0.930 . S
H843 C851 0.930 . S
H844 C854 0.930 . S
H845 C855 0.930 . S
C846 H840 0.930 . S
C846 C847 1.355 . S
C846 C848 1.415 . S
C847 C846 1.355 . S
C847 C849 1.419 . S
C848 C846 1.415 . S
C848 C853 1.425 . S
C848 C855 1.409 . S
C849 H841 0.930 . S
C849 C847 1.419 . S
C849 C850 1.362 . S
C850 H842 0.930 . S
C850 C849 1.362 . S
C850 C853 1.409 . S
C851 H843 0.930 . S
C851 C852 1.355 . S
C851 C853 1.415 . S
C852 C851 1.355 . S
C852 C854 1.419 . S
C853 C848 1.425 . S
C853 C850 1.409 . S
C853 C851 1.415 . S
C854 H844 0.930 . S
C854 C852 1.419 . S
C854 C855 1.362 . S
C855 H845 0.930 . S
C855 C848 1.409 . S
C855 C854 1.362 . S
H856 C862 0.930 . S
H857 C865 0.930 . S
H858 C866 0.930 . S
H859 C867 0.930 . S
H860 C870 0.930 . S
H861 C871 0.930 . S
C862 H856 0.930 . S
C862 C863 1.355 . S
C862 C864 1.415 . S
C863 C862 1.355 . S
C863 C865 1.419 . S
C864 C862 1.415 . S
C864 C869 1.425 . S
C864 C871 1.409 . S
C865 H857 0.930 . S
C865 C863 1.419 . S
C865 C866 1.362 . S
C866 H858 0.930 . S
C866 C865 1.362 . S
C866 C869 1.409 . S
C867 H859 0.930 . S
C867 C868 1.355 . S
C867 C869 1.415 . S
C868 C867 1.355 . S
C868 C870 1.419 . S
C869 C864 1.425 . S
C869 C866 1.409 . S
C869 C867 1.415 . S
C870 H860 0.930 . S
C870 C868 1.419 . S
C870 C871 1.362 . S
C871 H861 0.930 . S
C871 C864 1.409 . S
C871 C870 1.362 . S
H872 C878 0.930 . S
H873 C881 0.930 . S
H874 C882 0.930 . S
H875 C883 0.930 . S
H876 C886 0.930 . S
H877 C887 0.930 . S
C878 H872 0.930 . S
C878 C879 1.355 . S
C878 C880 1.415 . S
C879 C878 1.355 . S
C879 C881 1.419 . S
C880 C878 1.415 . S
C880 C885 1.425 . S
C880 C887 1.409 . S
C881 H873 0.930 . S
C881 C879 1.419 . S
C881 C882 1.362 . S
C882 H874 0.930 . S
C882 C881 1.362 . S
C882 C885 1.409 . S
C883 H875 0.930 . S
C883 C884 1.355 . S
C883 C885 1.415 . S
C884 C883 1.355 . S
C884 C886 1.419 . S
C885 C880 1.425 . S
C885 C882 1.409 . S
C885 C883 1.415 . S
C886 H876 0.930 . S
C886 C884 1.419 . S
C886 C887 1.362 . S
C887 H877 0.930 . S
C887 C880 1.409 . S
C887 C886 1.362 . S
H888 C894 0.930 . S
H889 C897 0.930 . S
H890 C898 0.930 . S
H891 C899 0.930 . S
H892 C902 0.930 . S
H893 C903 0.930 . S
C894 H888 0.930 . S
C894 C895 1.355 . S
C894 C896 1.415 . S
C895 C894 1.355 . S
C895 C897 1.419 . S
C896 C894 1.415 . S
C896 C901 1.425 . S
C896 C903 1.409 . S
C897 H889 0.930 . S
C897 C895 1.419 . S
C897 C898 1.362 . S
C898 H890 0.930 . S
C898 C897 1.362 . S
C898 C901 1.409 . S
C899 H891 0.930 . S
C899 C900 1.355 . S
C899 C901 1.415 . S
C900 C899 1.355 . S
C900 C902 1.419 . S
C901 C896 1.425 . S
C901 C898 1.409 . S
C901 C899 1.415 . S
C902 H892 0.930 . S
C902 C900 1.419 . S
C902 C903 1.362 . S
C903 H893 0.930 . S
C903 C896 1.409 . S
C903 C902 1.362 . S
H904 C910 0.930 . S
H905 C913 0.930 . S
H906 C914 0.930 . S
H907 C915 0.930 . S
H908 C918 0.930 . S
H909 C919 0.930 . S
C910 H904 0.930 . S
C910 C911 1.355 . S
C910 C912 1.415 . S
C911 C910 1.355 . S
C911 C913 1.419 . S
C912 C910 1.415 . S
C912 C917 1.425 . S
C912 C919 1.409 . S
C913 H905 0.930 . S
C913 C911 1.419 . S
C913 C914 1.362 . S
C914 H906 0.930 . S
C914 C913 1.362 . S
C914 C917 1.409 . S
C915 H907 0.930 . S
C915 C916 1.355 . S
C915 C917 1.415 . S
C916 C915 1.355 . S
C916 C918 1.419 . S
C917 C912 1.425 . S
C917 C914 1.409 . S
C917 C915 1.415 . S
C918 H908 0.930 . S
C918 C916 1.419 . S
C918 C919 1.362 . S
C919 H909 0.930 . S
C919 C912 1.409 . S
C919 C918 1.362 . S
H920 C926 0.930 . S
H921 C929 0.930 . S
H922 C930 0.930 . S
H923 C931 0.930 . S
H924 C934 0.930 . S
H925 C935 0.930 . S
C926 H920 0.930 . S
C926 C927 1.355 . S
C926 C928 1.415 . S
C927 C926 1.355 . S
C927 C929 1.419 . S
C928 C926 1.415 . S
C928 C933 1.425 . S
C928 C935 1.409 . S
C929 H921 0.930 . S
C929 C927 1.419 . S
C929 C930 1.362 . S
C930 H922 0.930 . S
C930 C929 1.362 . S
C930 C933 1.409 . S
C931 H923 0.930 . S
C931 C932 1.355 . S
C931 C933 1.415 . S
C932 C931 1.355 . S
C932 C934 1.419 . S
C933 C928 1.425 . S
C933 C930 1.409 . S
C933 C931 1.415 . S
C934 H924 0.930 . S
C934 C932 1.419 . S
C934 C935 1.362 . S
C935 H925 0.930 . S
C935 C928 1.409 . S
C935 C934 1.362 . S
H936 C942 0.930 . S
H937 C945 0.930 . S
H938 C946 0.930 . S
H939 C947 0.930 . S
H940 C950 0.930 . S
H941 C951 0.930 . S
C942 H936 0.930 . S
C942 C943 1.355 . S
C942 C944 1.415 . S
C943 C942 1.355 . S
C943 C945 1.419 . S
C944 C942 1.415 . S
C944 C949 1.425 . S
C944 C951 1.409 . S
C945 H937 0.930 . S
C945 C943 1.419 . S
C945 C946 1.362 . S
C946 H938 0.930 . S
C946 C945 1.362 . S
C946 C949 1.409 . S
C947 H939 0.930 . S
C947 C948 1.355 . S
C947 C949 1.415 . S
C948 C947 1.355 . S
C948 C950 1.419 . S
C949 C944 1.425 . S
C949 C946 1.409 . S
C949 C947 1.415 . S
C950 H940 0.930 . S
C950 C948 1.419 . S
C950 C951 1.362 . S
C951 H941 0.930 . S
C951 C944 1.409 . S
C951 C950 1.362 . S
H952 C958 0.930 . S
H953 C961 0.930 . S
H954 C962 0.930 . S
H955 C963 0.930 . S
H956 C966 0.930 . S
H957 C967 0.930 . S
C958 H952 0.930 . S
C958 C959 1.355 . S
C958 C960 1.415 . S
C959 C958 1.355 . S
C959 C961 1.419 . S
C960 C958 1.415 . S
C960 C965 1.425 . S
C960 C967 1.409 . S
C961 H953 0.930 . S
C961 C959 1.419 . S
C961 C962 1.362 . S
C962 H954 0.930 . S
C962 C961 1.362 . S
C962 C965 1.409 . S
C963 H955 0.930 . S
C963 C964 1.355 . S
C963 C965 1.415 . S
C964 C963 1.355 . S
C964 C966 1.419 . S
C965 C960 1.425 . S
C965 C962 1.409 . S
C965 C963 1.415 . S
C966 H956 0.930 . S
C966 C964 1.419 . S
C966 C967 1.362 . S
C967 H957 0.930 . S
C967 C960 1.409 . S
C967 C966 1.362 . S
H968 C974 0.930 . S
H969 C977 0.930 . S
H970 C978 0.930 . S
H971 C979 0.930 . S
H972 C982 0.930 . S
H973 C983 0.930 . S
C974 H968 0.930 . S
C974 C975 1.355 . S
C974 C976 1.415 . S
C975 C974 1.355 . S
C975 C977 1.419 . S
C976 C974 1.415 . S
C976 C981 1.425 . S
C976 C983 1.409 . S
C977 H969 0.930 . S
C977 C975 1.419 . S
C977 C978 1.362 . S
C978 H970 0.930 . S
C978 C977 1.362 . S
C978 C981 1.409 . S
C979 H971 0.930 . S
C979 C980 1.355 . S
C979 C981 1.415 . S
C980 C979 1.355 . S
C980 C982 1.419 . S
C981 C976 1.425 . S
C981 C978 1.409 . S
C981 C979 1.415 . S
C982 H972 0.930 . S
C982 C980 1.419 . S
C982 C983 1.362 . S
C983 H973 0.930 . S
C983 C976 1.409 . S
C983 C982 1.362 . S
H984 C990 0.930 . S
H985 C993 0.930 . S
H986 C994 0.930 . S
H987 C995 0.930 . S
H988 C998 0.930 . S
H989 C999 0.930 . S
C990 H984 0.930 . S
C990 C991 1.355 . S
C990 C992 1.415 . S
C991 C990 1.355 . S
C991 C993 1.419 . S
C992 C990 1.415 . S
C992 C997 1.425 . S
C992 C999 1.409 . S
C993 H985 0.930 . S
C993 C991 1.419 . S
C993 C994 1.362 . S
C994 H986 0.930 . S
C994 C993 1.362 . S
C994 C997 1.409 . S
C995 H987 0.930 . S
C995 C996 1.355 . S
C995 C997 1.415 . S
C996 C995 1.355 . S
C996 C998 1.419 . S
C997 C992 1.425 . S
C997 C994 1.409 . S
C997 C995 1.415 . S
C998 H988 0.930 . S
C998 C996 1.419 . S
C998 C999 1.362 . S
C999 H989 0.930 . S
C999 C992 1.409 . S
C999 C998 1.362 . S
H1000 C1006 0.930 . S
H1001 C1009 0.930 . S
H1002 C1010 0.930 . S
H1003 C1011 0.930 . S
H1004 C1014 0.930 . S
H1005 C1015 0.930 . S
C1006 H1000 0.930 . S
C1006 C1007 1.355 . S
C1006 C1008 1.415 . S
C1007 C1006 1.355 . S
C1007 C1009 1.419 . S
C1008 C1006 1.415 . S
C1008 C1013 1.425 . S
C1008 C1015 1.409 . S
C1009 H1001 0.930 . S
C1009 C1007 1.419 . S
C1009 C1010 1.362 . S
C1010 H1002 0.930 . S
C1010 C1009 1.362 . S
C1010 C1013 1.409 . S
C1011 H1003 0.930 . S
C1011 C1012 1.355 . S
C1011 C1013 1.415 . S
C1012 C1011 1.355 . S
C1012 C1014 1.419 . S
C1013 C1008 1.425 . S
C1013 C1010 1.409 . S
C1013 C1011 1.415 . S
C1014 H1004 0.930 . S
C1014 C1012 1.419 . S
C1014 C1015 1.362 . S
C1015 H1005 0.930 . S
C1015 C1008 1.409 . S
C1015 C1014 1.362 . S
H1016 C1022 0.930 . S
H1017 C1025 0.930 . S
H1018 C1026 0.930 . S
H1019 C1027 0.930 . S
H1020 C1030 0.930 . S
H1021 C1031 0.930 . S
C1022 H1016 0.930 . S
C1022 C1023 1.355 . S
C1022 C1024 1.415 . S
C1023 C1022 1.355 . S
C1023 C1025 1.419 . S
C1024 C1022 1.415 . S
C1024 C1029 1.425 . S
C1024 C1031 1.409 . S
C1025 H1017 0.930 . S
C1025 C1023 1.419 . S
C1025 C1026 1.362 . S
C1026 H1018 0.930 . S
C1026 C1025 1.362 . S
C1026 C1029 1.409 . S
C1027 H1019 0.930 . S
C1027 C1028 1.355 . S
C1027 C1029 1.415 . S
C1028 C1027 1.355 . S
C1028 C1030 1.419 . S
C1029 C1024 1.425 . S
C1029 C1026 1.409 . S
C1029 C1027 1.415 . S
C1030 H1020 0.930 . S
C1030 C1028 1.419 . S
C1030 C1031 1.362 . S
C1031 H1021 0.930 . S
C1031 C1024 1.409 . S
C1031 C1030 1.362 . S
H1032 C1038 0.930 . S
H1033 C1041 0.930 . S
H1034 C1042 0.930 . S
H1035 C1043 0.930 . S
H1036 C1046 0.930 . S
H1037 C1047 0.930 . S
C1038 H1032 0.930 . S
C1038 C1039 1.355 . S
C1038 C1040 1.415 . S
C1039 C1038 1.355 . S
C1039 C1041 1.419 . S
C1040 C1038 1.415 . S
C1040 C1045 1.425 . S
C1040 C1047 1.409 . S
C1041 H1033 0.930 . S
C1041 C1039 1.419 . S
C1041 C1042 1.362 . S
C1042 H1034 0.930 . S
C1042 C1041 1.362 . S
C1042 C1045 1.409 . S
C1043 H1035 0.930 . S
C1043 C1044 1.355 . S
C1043 C1045 1.415 . S
C1044 C1043 1.355 . S
C1044 C1046 1.419 . S
C1045 C1040 1.425 . S
C1045 C1042 1.409 . S
C1045 C1043 1.415 . S
C1046 H1036 0.930 . S
C1046 C1044 1.419 . S
C1046 C1047 1.362 . S
C1047 H1037 0.930 . S
C1047 C1040 1.409 . S
C1047 C1046 1.362 . S
H1048 C1054 0.930 . S
H1049 C1057 0.930 . S
H1050 C1058 0.930 . S
H1051 C1059 0.930 . S
H1052 C1062 0.930 . S
H1053 C1063 0.930 . S
C1054 H1048 0.930 . S
C1054 C1055 1.355 . S
C1054 C1056 1.415 . S
C1055 C1054 1.355 . S
C1055 C1057 1.419 . S
C1056 C1054 1.415 . S
C1056 C1061 1.425 . S
C1056 C1063 1.409 . S
C1057 H1049 0.930 . S
C1057 C1055 1.419 . S
C1057 C1058 1.362 . S
C1058 H1050 0.930 . S
C1058 C1057 1.362 . S
C1058 C1061 1.409 . S
C1059 H1051 0.930 . S
C1059 C1060 1.355 . S
C1059 C1061 1.415 . S
C1060 C1059 1.355 . S
C1060 C1062 1.419 . S
C1061 C1056 1.425 . S
C1061 C1058 1.409 . S
C1061 C1059 1.415 . S
C1062 H1052 0.930 . S
C1062 C1060 1.419 . S
C1062 C1063 1.362 . S
C1063 H1053 0.930 . S
C1063 C1056 1.409 . S
C1063 C1062 1.362 . S
H1064 C1070 0.930 . S
H1065 C1073 0.930 . S
H1066 C1074 0.930 . S
H1067 C1075 0.930 . S
H1068 C1078 0.930 . S
H1069 C1079 0.930 . S
C1070 H1064 0.930 . S
C1070 C1071 1.355 . S
C1070 C1072 1.415 . S
C1071 C1070 1.355 . S
C1071 C1073 1.419 . S
C1072 C1070 1.415 . S
C1072 C1077 1.425 . S
C1072 C1079 1.409 . S
C1073 H1065 0.930 . S
C1073 C1071 1.419 . S
C1073 C1074 1.362 . S
C1074 H1066 0.930 . S
C1074 C1073 1.362 . S
C1074 C1077 1.409 . S
C1075 H1067 0.930 . S
C1075 C1076 1.355 . S
C1075 C1077 1.415 . S
C1076 C1075 1.355 . S
C1076 C1078 1.419 . S
C1077 C1072 1.425 . S
C1077 C1074 1.409 . S
C1077 C1075 1.415 . S
C1078 H1068 0.930 . S
C1078 C1076 1.419 . S
C1078 C1079 1.362 . S
C1079 H1069 0.930 . S
C1079 C1072 1.409 . S
C1079 C1078 1.362 . S
C319 C289 1.935 . S
C324 C3 1.886 . S
C335 C18 1.898 . S
C340 C213 1.895 . S
C351 C304 1.936 . S
C356 C29 1.934 . S
C367 C278 1.918 . S
C372 C44 1.906 . S
C383 C239 1.953 . S
C388 C55 1.910 . S
C399 C252 1.895 . S
C404 C70 1.898 . S
C415 C265 1.931 . S
C420 C81 1.873 . S
C431 C96 1.922 . S
C436 C226 1.910 . S
C447 C172 1.874 . S
C452 C107 1.902 . S
C463 C187 1.953 . S
C468 C120 1.916 . S
C479 C135 1.953 . S
C484 C198 1.905 . S
C495 C146 1.906 . S
C500 C161 1.898 . S
C511 C94 1.874 . S
C516 C185 1.931 . S
C527 C200 1.948 . S
C532 C57 1.953 . S
C543 C68 1.871 . S
C548 C159 1.908 . S
C559 C174 1.904 . S
C564 C83 1.915 . S
C575 C133 1.923 . S
C580 C16 1.869 . S
C591 C31 1.905 . S
C596 C148 1.897 . S
C607 C42 1.933 . S
C612 C109 1.923 . S
C623 C5 1.931 . S
C628 C122 1.943 . S
C639 C263 1.891 . S
C644 C276 1.881 . S
C655 C291 1.903 . S
C660 C224 1.917 . S
C671 C237 1.917 . S
C676 C211 1.869 . S
C687 C302 1.890 . S
C692 C250 1.882 . S
C703 C1 1.129 . S
C708 C114 1.111 . S
C719 C127 1.144 . S
C724 C23 1.083 . S
C735 C27 1.008 . S
C740 C131 1.032 . S
C751 C49 1.076 . S
C756 C153 1.089 . S
C767 C53 1.134 . S
C772 C157 1.110 . S
C783 C75 1.155 . S
C788 C179 1.104 . S
C799 C183 1.011 . S
C804 C79 1.041 . S
C815 C205 1.123 . S
C820 C101 1.070 . S
C831 C105 1.106 . S
C836 C209 1.063 . S
C847 C118 1.121 . S
C852 C300 1.136 . S
C863 C274 1.019 . S
C868 C140 1.075 . S
C879 C296 1.070 . S
C884 C144 1.061 . S
C895 C222 1.033 . S
C900 C166 1.070 . S
C911 C235 1.122 . S
C916 C170 1.085 . S
C927 C192 1.085 . S
C932 C248 1.101 . S
C943 C196 1.020 . S
C948 C261 1.007 . S
C959 C10 1.085 . S
C964 C218 1.079 . S
C975 C231 1.133 . S
C980 C62 1.074 . S
C991 C244 1.126 . S
C996 C66 1.025 . S
C1007 C257 1.070 . S
C1012 C88 1.122 . S
C1023 C270 1.071 . S
C1028 C92 1.066 . S
C1039 C283 1.075 . S
C1044 C36 1.134 . S
C1055 C40 1.048 . S
C1060 C287 1.014 . S
C1071 C309 1.099 . S
C1076 C14 1.119 . S
