# Generated by pormake.
# Topology lvt-a, (3)-cn, num edge types: 1
# Building blocks:
#     Node 0, Type 0, BuildingBlock: WUSLED_clean_sbu_0, # of connection points: 3
#     Node 1, Type 0, BuildingBlock: WUSLED_clean_sbu_0, # of connection points: 3
#     Node 2, Type 0, BuildingBlock: WUSLED_clean_sbu_0, # of connection points: 3
#     Node 3, Type 0, BuildingBlock: WUSLED_clean_sbu_0, # of connection points: 3
#     Node 4, Type 0, BuildingBlock: WUSLED_clean_sbu_0, # of connection points: 3
#     Node 5, Type 0, BuildingBlock: WUSLED_clean_sbu_0, # of connection points: 3
#     Node 6, Type 0, BuildingBlock: WUSLED_clean_sbu_0, # of connection points: 3
#     Node 7, Type 0, BuildingBlock: WUSLED_clean_sbu_0, # of connection points: 3
#     Node 8, Type 0, BuildingBlock: WUSLED_clean_sbu_0, # of connection points: 3
#     Node 9, Type 0, BuildingBlock: WUSLED_clean_sbu_0, # of connection points: 3
#     Node 10, Type 0, BuildingBlock: WUSLED_clean_sbu_0, # of connection points: 3
#     Node 11, Type 0, BuildingBlock: WUSLED_clean_sbu_0, # of connection points: 3
#     Node 12, Type 0, BuildingBlock: WUSLED_clean_sbu_0, # of connection points: 3
#     Node 13, Type 0, BuildingBlock: WUSLED_clean_sbu_0, # of connection points: 3
#     Node 14, Type 0, BuildingBlock: WUSLED_clean_sbu_0, # of connection points: 3
#     Node 15, Type 0, BuildingBlock: WUSLED_clean_sbu_0, # of connection points: 3
#     Node 16, Type 0, BuildingBlock: WUSLED_clean_sbu_0, # of connection points: 3
#     Node 17, Type 0, BuildingBlock: WUSLED_clean_sbu_0, # of connection points: 3
#     Node 18, Type 0, BuildingBlock: WUSLED_clean_sbu_0, # of connection points: 3
#     Node 19, Type 0, BuildingBlock: WUSLED_clean_sbu_0, # of connection points: 3
#     Node 20, Type 0, BuildingBlock: WUSLED_clean_sbu_0, # of connection points: 3
#     Node 21, Type 0, BuildingBlock: WUSLED_clean_sbu_0, # of connection points: 3
#     Node 22, Type 0, BuildingBlock: WUSLED_clean_sbu_0, # of connection points: 3
#     Node 23, Type 0, BuildingBlock: WUSLED_clean_sbu_0, # of connection points: 3
#     Node 24, Type 0, BuildingBlock: WUSLED_clean_sbu_0, # of connection points: 3
#     Node 25, Type 0, BuildingBlock: WUSLED_clean_sbu_0, # of connection points: 3
#     Node 26, Type 0, BuildingBlock: WUSLED_clean_sbu_0, # of connection points: 3
#     Node 27, Type 0, BuildingBlock: WUSLED_clean_sbu_0, # of connection points: 3
#     Node 28, Type 0, BuildingBlock: WUSLED_clean_sbu_0, # of connection points: 3
#     Node 29, Type 0, BuildingBlock: WUSLED_clean_sbu_0, # of connection points: 3
#     Node 30, Type 0, BuildingBlock: WUSLED_clean_sbu_0, # of connection points: 3
#     Node 31, Type 0, BuildingBlock: WUSLED_clean_sbu_0, # of connection points: 3
#     Edge 32, Type (0, 0), BuildingBlock: TEMPAE_clean_linker_10, # of connection points: 2
#     Edge 33, Type (0, 0), BuildingBlock: TEMPAE_clean_linker_10, # of connection points: 2
#     Edge 34, Type (0, 0), BuildingBlock: TEMPAE_clean_linker_10, # of connection points: 2
#     Edge 35, Type (0, 0), BuildingBlock: TEMPAE_clean_linker_10, # of connection points: 2
#     Edge 36, Type (0, 0), BuildingBlock: TEMPAE_clean_linker_10, # of connection points: 2
#     Edge 37, Type (0, 0), BuildingBlock: TEMPAE_clean_linker_10, # of connection points: 2
#     Edge 38, Type (0, 0), BuildingBlock: TEMPAE_clean_linker_10, # of connection points: 2
#     Edge 39, Type (0, 0), BuildingBlock: TEMPAE_clean_linker_10, # of connection points: 2
#     Edge 40, Type (0, 0), BuildingBlock: TEMPAE_clean_linker_10, # of connection points: 2
#     Edge 41, Type (0, 0), BuildingBlock: TEMPAE_clean_linker_10, # of connection points: 2
#     Edge 42, Type (0, 0), BuildingBlock: TEMPAE_clean_linker_10, # of connection points: 2
#     Edge 43, Type (0, 0), BuildingBlock: TEMPAE_clean_linker_10, # of connection points: 2
#     Edge 44, Type (0, 0), BuildingBlock: TEMPAE_clean_linker_10, # of connection points: 2
#     Edge 45, Type (0, 0), BuildingBlock: TEMPAE_clean_linker_10, # of connection points: 2
#     Edge 46, Type (0, 0), BuildingBlock: TEMPAE_clean_linker_10, # of connection points: 2
#     Edge 47, Type (0, 0), BuildingBlock: TEMPAE_clean_linker_10, # of connection points: 2
#     Edge 48, Type (0, 0), BuildingBlock: TEMPAE_clean_linker_10, # of connection points: 2
#     Edge 49, Type (0, 0), BuildingBlock: TEMPAE_clean_linker_10, # of connection points: 2
#     Edge 50, Type (0, 0), BuildingBlock: TEMPAE_clean_linker_10, # of connection points: 2
#     Edge 51, Type (0, 0), BuildingBlock: TEMPAE_clean_linker_10, # of connection points: 2
#     Edge 52, Type (0, 0), BuildingBlock: TEMPAE_clean_linker_10, # of connection points: 2
#     Edge 53, Type (0, 0), BuildingBlock: TEMPAE_clean_linker_10, # of connection points: 2
#     Edge 54, Type (0, 0), BuildingBlock: TEMPAE_clean_linker_10, # of connection points: 2
#     Edge 55, Type (0, 0), BuildingBlock: TEMPAE_clean_linker_10, # of connection points: 2
#     Edge 56, Type (0, 0), BuildingBlock: TEMPAE_clean_linker_10, # of connection points: 2
#     Edge 57, Type (0, 0), BuildingBlock: TEMPAE_clean_linker_10, # of connection points: 2
#     Edge 58, Type (0, 0), BuildingBlock: TEMPAE_clean_linker_10, # of connection points: 2
#     Edge 59, Type (0, 0), BuildingBlock: TEMPAE_clean_linker_10, # of connection points: 2
#     Edge 60, Type (0, 0), BuildingBlock: TEMPAE_clean_linker_10, # of connection points: 2
#     Edge 61, Type (0, 0), BuildingBlock: TEMPAE_clean_linker_10, # of connection points: 2
#     Edge 62, Type (0, 0), BuildingBlock: TEMPAE_clean_linker_10, # of connection points: 2
#     Edge 63, Type (0, 0), BuildingBlock: TEMPAE_clean_linker_10, # of connection points: 2
#     Edge 64, Type (0, 0), BuildingBlock: TEMPAE_clean_linker_10, # of connection points: 2
#     Edge 65, Type (0, 0), BuildingBlock: TEMPAE_clean_linker_10, # of connection points: 2
#     Edge 66, Type (0, 0), BuildingBlock: TEMPAE_clean_linker_10, # of connection points: 2
#     Edge 67, Type (0, 0), BuildingBlock: TEMPAE_clean_linker_10, # of connection points: 2
#     Edge 68, Type (0, 0), BuildingBlock: TEMPAE_clean_linker_10, # of connection points: 2
#     Edge 69, Type (0, 0), BuildingBlock: TEMPAE_clean_linker_10, # of connection points: 2
#     Edge 70, Type (0, 0), BuildingBlock: TEMPAE_clean_linker_10, # of connection points: 2
#     Edge 71, Type (0, 0), BuildingBlock: TEMPAE_clean_linker_10, # of connection points: 2
#     Edge 72, Type (0, 0), BuildingBlock: TEMPAE_clean_linker_10, # of connection points: 2
#     Edge 73, Type (0, 0), BuildingBlock: TEMPAE_clean_linker_10, # of connection points: 2
#     Edge 74, Type (0, 0), BuildingBlock: TEMPAE_clean_linker_10, # of connection points: 2
#     Edge 75, Type (0, 0), BuildingBlock: TEMPAE_clean_linker_10, # of connection points: 2
#     Edge 76, Type (0, 0), BuildingBlock: TEMPAE_clean_linker_10, # of connection points: 2
#     Edge 77, Type (0, 0), BuildingBlock: TEMPAE_clean_linker_10, # of connection points: 2
#     Edge 78, Type (0, 0), BuildingBlock: TEMPAE_clean_linker_10, # of connection points: 2
#     Edge 79, Type (0, 0), BuildingBlock: TEMPAE_clean_linker_10, # of connection points: 2
# Relax obj value: 0.111
# Max RMSD: 0.100
# Mean RMSD: 0.094
data_MOF--net-lvt-a--node1-WUSLED_clean_sbu_0--edge1-TEMPAE_clean_linker_10
_symmetry_space_group_name_H-M    P1
_symmetry_Int_Tables_number       1
_symmetry_cell_setting            triclinic
loop_
_symmetry_equiv_pos_as_xyz
'x, y, z'
_cell_length_a     91.201826
_cell_length_b     95.030609
_cell_length_c     155.85191
_cell_angle_alpha  90.007811
_cell_angle_beta   90.008541
_cell_angle_gamma 90.005508
loop_
_atom_site_label
_atom_site_type_symbol
_atom_site_fract_x
_atom_site_fract_y
_atom_site_fract_z
_atom_type_partial_charge
C0 C 0.15247 0.5114 0.0515 0.0
C1 C 0.14345 0.50214 0.04687 0.0
C2 C 0.15644 0.50783 0.03368 0.0
C3 C 0.14547 0.50032 0.03806 0.0
C4 C 0.16553 0.51702 0.03835 0.0
C5 C 0.16357 0.51877 0.0472 0.0
U6 U 0.12567 0.51156 0.0698 0.0
O7 O 0.12763 0.50572 0.08342 0.0
O8 O 0.12113 0.52718 0.07985 0.0
C9 C 0.12471 0.51854 0.08609 0.0
C10 C 0.14962 0.51412 0.06065 0.0
C11 C 0.13475 0.52437 0.09255 0.0
C12 C 0.15876 0.53294 0.09684 0.0
C13 C 0.1496 0.52673 0.0907 0.0
C14 C 0.1383 0.53431 0.10674 0.0
C15 C 0.15315 0.53695 0.1049 0.0
C16 C 0.1292 0.52807 0.10061 0.0
C17 C 0.08632 0.5003 0.0642 0.0
C18 C 0.06694 0.49313 0.07399 0.0
C19 C 0.06085 0.50183 0.05982 0.0
C20 C 0.07572 0.50365 0.05804 0.0
C21 C 0.05625 0.49649 0.0678 0.0
C22 C 0.08187 0.49507 0.07222 0.0
C23 C 0.10186 0.50262 0.06208 0.0
O24 O 0.14066 0.52466 0.06214 0.0
O25 O 0.14671 0.50294 0.06533 0.0
O26 O 0.11145 0.49412 0.06567 0.0
O27 O 0.10606 0.51584 0.06202 0.0
H28 H 0.13465 0.49652 0.05005 0.0
H29 H 0.13814 0.49334 0.03462 0.0
H30 H 0.17413 0.52289 0.03515 0.0
H31 H 0.17056 0.52605 0.05065 0.0
H32 H 0.17011 0.53495 0.09522 0.0
H33 H 0.15404 0.52397 0.08447 0.0
H34 H 0.1337 0.53709 0.11291 0.0
H35 H 0.11776 0.5263 0.10214 0.0
H36 H 0.06379 0.48892 0.08017 0.0
H37 H 0.05295 0.50483 0.05497 0.0
H38 H 0.07894 0.50781 0.05185 0.0
H39 H 0.08989 0.49248 0.07709 0.0
C40 C 0.73925 0.88528 0.30214 0.0
C41 C 0.74917 0.87634 0.29793 0.0
C42 C 0.74377 0.88763 0.28426 0.0
C43 C 0.75148 0.87756 0.28911 0.0
C44 C 0.73395 0.89668 0.28853 0.0
C45 C 0.73171 0.8955 0.29739 0.0
U46 U 0.73843 0.86105 0.32115 0.0
O47 O 0.74443 0.86385 0.33473 0.0
O48 O 0.72203 0.85756 0.33126 0.0
C49 C 0.73104 0.86131 0.33744 0.0
C50 C 0.73607 0.88331 0.31133 0.0
C51 C 0.72512 0.8713 0.34374 0.0
C52 C 0.71357 0.89356 0.34739 0.0
C53 C 0.71966 0.88449 0.34126 0.0
C54 C 0.71861 0.87641 0.35852 0.0
C55 C 0.7129 0.88958 0.35609 0.0
C56 C 0.72465 0.86738 0.3524 0.0
C57 C 0.75073 0.82306 0.31655 0.0
C58 C 0.74549 0.80272 0.32549 0.0
C59 C 0.76101 0.80028 0.31296 0.0
C60 C 0.75946 0.81462 0.31126 0.0
C61 C 0.75379 0.79409 0.31999 0.0
C62 C 0.74395 0.81711 0.32378 0.0
C63 C 0.74813 0.83777 0.31408 0.0
O64 O 0.72502 0.87484 0.31295 0.0
O65 O 0.74755 0.88091 0.31623 0.0
O66 O 0.75683 0.8472 0.31756 0.0
O67 O 0.73432 0.84168 0.31388 0.0
H68 H 0.75502 0.86828 0.30147 0.0
H69 H 0.75929 0.87056 0.28607 0.0
H70 H 0.72769 0.90444 0.28499 0.0
H71 H 0.72389 0.90239 0.30051 0.0
H72 H 0.70939 0.90367 0.34533 0.0
H73 H 0.71998 0.88769 0.3346 0.0
H74 H 0.71807 0.87292 0.36513 0.0
H75 H 0.72879 0.85721 0.35442 0.0
H76 H 0.73973 0.79826 0.33093 0.0
H77 H 0.76769 0.79397 0.30869 0.0
H78 H 0.76481 0.81907 0.30567 0.0
H79 H 0.73717 0.82351 0.32795 0.0
C80 C 0.35034 0.48811 0.55143 0.0
C81 C 0.36276 0.48937 0.54617 0.0
C82 C 0.34721 0.49128 0.53353 0.0
C83 C 0.36121 0.49089 0.53731 0.0
C84 C 0.33478 0.49023 0.53884 0.0
C85 C 0.33634 0.48861 0.54773 0.0
U86 U 0.37495 0.48972 0.57074 0.0
O87 O 0.37127 0.4966 0.58405 0.0
O88 O 0.37848 0.47499 0.5814 0.0
C89 C 0.37407 0.48406 0.58722 0.0
C90 C 0.35211 0.48627 0.56074 0.0
C91 C 0.36344 0.47861 0.59346 0.0
C92 C 0.3393 0.46954 0.59706 0.0
C93 C 0.34899 0.47539 0.59107 0.0
C94 C 0.35839 0.47027 0.60787 0.0
C95 C 0.34393 0.46681 0.60552 0.0
C96 C 0.36803 0.47611 0.60189 0.0
C97 C 0.41461 0.50124 0.56663 0.0
C98 C 0.43515 0.49658 0.57615 0.0
C99 C 0.43838 0.51168 0.56376 0.0
C100 C 0.42363 0.50985 0.56161 0.0
C101 C 0.44437 0.50487 0.57096 0.0
C102 C 0.42036 0.49481 0.57401 0.0
C103 C 0.39951 0.49852 0.5638 0.0
O104 O 0.36087 0.47592 0.56299 0.0
O105 O 0.35451 0.49791 0.56508 0.0
O106 O 0.38943 0.50712 0.56678 0.0
O107 O 0.39544 0.48525 0.56389 0.0
H108 H 0.37366 0.48914 0.54893 0.0
H109 H 0.37099 0.4919 0.53341 0.0
H110 H 0.32386 0.49044 0.53611 0.0
H111 H 0.32665 0.48768 0.55171 0.0
H112 H 0.32821 0.46712 0.59507 0.0
H113 H 0.34529 0.47725 0.58456 0.0
H114 H 0.36242 0.46809 0.61427 0.0
H115 H 0.37918 0.47846 0.60382 0.0
H116 H 0.43943 0.49132 0.58178 0.0
H117 H 0.44522 0.51798 0.55957 0.0
H118 H 0.41936 0.51487 0.55589 0.0
H119 H 0.41351 0.48818 0.578 0.0
C120 C 0.76219 0.1162 0.80246 0.0
C121 C 0.75232 0.12514 0.79822 0.0
C122 C 0.75695 0.11305 0.78471 0.0
C123 C 0.74967 0.12354 0.78944 0.0
C124 C 0.76677 0.10405 0.789 0.0
C125 C 0.76935 0.10561 0.79781 0.0
U126 U 0.76311 0.14056 0.82152 0.0
O127 O 0.75829 0.13739 0.83521 0.0
O128 O 0.78014 0.14455 0.83122 0.0
C129 C 0.77175 0.14044 0.8376 0.0
C130 C 0.7657 0.11845 0.81158 0.0
C131 C 0.77857 0.13072 0.84375 0.0
C132 C 0.78647 0.10732 0.84804 0.0
C133 C 0.77976 0.11626 0.84206 0.0
C134 C 0.79083 0.12724 0.85741 0.0
C135 C 0.79216 0.11274 0.85576 0.0
C136 C 0.7841 0.13612 0.85146 0.0
C137 C 0.74939 0.17818 0.8178 0.0
C138 C 0.75531 0.1982 0.82687 0.0
C139 C 0.73776 0.20077 0.81529 0.0
C140 C 0.73957 0.18659 0.81318 0.0
C141 C 0.7458 0.20681 0.82206 0.0
C142 C 0.75706 0.18398 0.82477 0.0
C143 C 0.75211 0.16368 0.81494 0.0
O144 O 0.77648 0.12733 0.81298 0.0
O145 O 0.75439 0.12049 0.81667 0.0
O146 O 0.74399 0.15388 0.81851 0.0
O147 O 0.76599 0.16013 0.81425 0.0
H148 H 0.74684 0.13353 0.80168 0.0
H149 H 0.74221 0.13077 0.78631 0.0
H150 H 0.77247 0.09582 0.78554 0.0
H151 H 0.77708 0.09867 0.80097 0.0
H152 H 0.78744 0.09622 0.84656 0.0
H153 H 0.77558 0.11192 0.83611 0.0
H154 H 0.79491 0.13172 0.86334 0.0
H155 H 0.78323 0.14726 0.85287 0.0
H156 H 0.76154 0.20252 0.83216 0.0
H157 H 0.73049 0.20714 0.8114 0.0
H158 H 0.73359 0.18228 0.80777 0.0
H159 H 0.76465 0.1776 0.82844 0.0
C160 C 0.15205 0.49341 0.9513 0.0
C161 C 0.14326 0.50338 0.95551 0.0
C162 C 0.1552 0.49801 0.96911 0.0
C163 C 0.14487 0.50572 0.96431 0.0
C164 C 0.16416 0.4882 0.96482 0.0
C165 C 0.16258 0.48593 0.956 0.0
U166 U 0.12614 0.49196 0.93248 0.0
O167 O 0.12904 0.49615 0.91871 0.0
O168 O 0.12192 0.47525 0.92303 0.0
C169 C 0.12604 0.4831 0.91652 0.0
C170 C 0.14948 0.48999 0.94222 0.0
C171 C 0.13628 0.47641 0.9105 0.0
C172 C 0.16092 0.46978 0.90613 0.0
C173 C 0.15148 0.47643 0.91195 0.0
C174 C 0.14005 0.46303 0.89743 0.0
C175 C 0.15528 0.46293 0.89884 0.0
C176 C 0.13066 0.46972 0.9032 0.0
C177 C 0.08675 0.50422 0.93628 0.0
C178 C 0.06582 0.49681 0.92776 0.0
C179 C 0.06293 0.51497 0.93855 0.0
C180 C 0.07783 0.51396 0.94055 0.0
C181 C 0.0567 0.50618 0.93227 0.0
C182 C 0.08075 0.49588 0.92973 0.0
C183 C 0.10197 0.50222 0.93913 0.0
O184 O 0.14038 0.47947 0.94095 0.0
O185 O 0.14701 0.50076 0.93711 0.0
O186 O 0.1119 0.51013 0.93537 0.0
O187 O 0.10609 0.48906 0.94003 0.0
H188 H 0.13495 0.50918 0.95202 0.0
H189 H 0.13794 0.51349 0.96737 0.0
H190 H 0.17207 0.48195 0.96833 0.0
H191 H 0.16934 0.47808 0.95287 0.0
H192 H 0.17259 0.46977 0.90742 0.0
H193 H 0.15599 0.4815 0.91759 0.0
H194 H 0.13539 0.45801 0.89181 0.0
H195 H 0.11896 0.46963 0.90199 0.0
H196 H 0.06134 0.49001 0.92284 0.0
H197 H 0.05616 0.52219 0.94219 0.0
H198 H 0.08229 0.52047 0.94563 0.0
H199 H 0.08751 0.48835 0.92631 0.0
C200 C 0.76279 0.88607 0.20207 0.0
C201 C 0.75265 0.87734 0.20626 0.0
C202 C 0.758 0.8888 0.21988 0.0
C203 C 0.75022 0.87874 0.21508 0.0
C204 C 0.76813 0.89756 0.21565 0.0
C205 C 0.77048 0.89621 0.20681 0.0
U206 U 0.76327 0.86228 0.18271 0.0
O207 O 0.75745 0.86588 0.16917 0.0
O208 O 0.77968 0.85899 0.1726 0.0
C209 C 0.77085 0.86333 0.16648 0.0
C210 C 0.76594 0.88412 0.19288 0.0
C211 C 0.77701 0.8736 0.16039 0.0
C212 C 0.79305 0.89329 0.15705 0.0
C213 C 0.78671 0.8842 0.16307 0.0
C214 C 0.7797 0.88157 0.14566 0.0
C215 C 0.7897 0.892 0.14827 0.0
C216 C 0.77345 0.87245 0.15167 0.0
C217 C 0.75033 0.8243 0.18635 0.0
C218 C 0.75603 0.80437 0.17716 0.0
C219 C 0.73896 0.80162 0.18896 0.0
C220 C 0.74075 0.8158 0.19108 0.0
C221 C 0.74677 0.79568 0.18207 0.0
C222 C 0.75777 0.8186 0.17927 0.0
C223 C 0.75307 0.83878 0.18924 0.0
O224 O 0.77682 0.87547 0.1912 0.0
O225 O 0.75444 0.88204 0.18794 0.0
O226 O 0.74457 0.84856 0.18596 0.0
O227 O 0.76693 0.8425 0.18964 0.0
H228 H 0.74676 0.86929 0.20274 0.0
H229 H 0.74251 0.87171 0.21817 0.0
H230 H 0.77421 0.90545 0.21918 0.0
H231 H 0.77841 0.90297 0.20369 0.0
H232 H 0.80058 0.90132 0.15926 0.0
H233 H 0.78953 0.88534 0.16979 0.0
H234 H 0.77702 0.88019 0.13895 0.0
H235 H 0.766 0.86432 0.14949 0.0
H236 H 0.76208 0.80013 0.17177 0.0
H237 H 0.7319 0.79518 0.19294 0.0
H238 H 0.73496 0.82003 0.19657 0.0
H239 H 0.76517 0.82504 0.17552 0.0
C240 C 0.34977 0.50932 0.45149 0.0
C241 C 0.36226 0.50763 0.45665 0.0
C242 C 0.34691 0.50534 0.46934 0.0
C243 C 0.36084 0.50571 0.46549 0.0
C244 C 0.33439 0.50675 0.46412 0.0
C245 C 0.33583 0.50878 0.45526 0.0
U246 U 0.37438 0.50973 0.43219 0.0
O247 O 0.37098 0.50398 0.41866 0.0
O248 O 0.37768 0.52548 0.42205 0.0
C249 C 0.37359 0.51683 0.41592 0.0
C250 C 0.35143 0.51186 0.44223 0.0
C251 C 0.36308 0.52263 0.40971 0.0
C252 C 0.33833 0.52899 0.40543 0.0
C253 C 0.34798 0.52306 0.41142 0.0
C254 C 0.35882 0.53408 0.39603 0.0
C255 C 0.34365 0.53461 0.39766 0.0
C256 C 0.36841 0.52813 0.40199 0.0
C257 C 0.41435 0.49892 0.43596 0.0
C258 C 0.43557 0.50666 0.4278 0.0
C259 C 0.4378 0.48719 0.43775 0.0
C260 C 0.42293 0.48843 0.43979 0.0
C261 C 0.44434 0.49649 0.43188 0.0
C262 C 0.42067 0.50782 0.42979 0.0
C263 C 0.39914 0.50093 0.43886 0.0
O264 O 0.35992 0.52258 0.44029 0.0
O265 O 0.35415 0.50062 0.43758 0.0
O266 O 0.38933 0.49235 0.43558 0.0
O267 O 0.39465 0.51405 0.43929 0.0
H268 H 0.37312 0.50791 0.45384 0.0
H269 H 0.37067 0.50443 0.46932 0.0
H270 H 0.32353 0.50656 0.46692 0.0
H271 H 0.32608 0.51005 0.45136 0.0
H272 H 0.32671 0.52915 0.40686 0.0
H273 H 0.3437 0.51888 0.41738 0.0
H274 H 0.36335 0.53855 0.39021 0.0
H275 H 0.38005 0.52796 0.4006 0.0
H276 H 0.44031 0.51388 0.42319 0.0
H277 H 0.44431 0.47934 0.44106 0.0
H278 H 0.41824 0.48147 0.44456 0.0
H279 H 0.41419 0.51592 0.42669 0.0
C280 C 0.7375 0.1155 0.70248 0.0
C281 C 0.74799 0.12401 0.70655 0.0
C282 C 0.74224 0.11328 0.72035 0.0
C283 C 0.7504 0.12285 0.71538 0.0
C284 C 0.73186 0.10465 0.71621 0.0
C285 C 0.72951 0.10576 0.70735 0.0
U286 U 0.73696 0.13961 0.68339 0.0
O287 O 0.74236 0.13661 0.66976 0.0
O288 O 0.72027 0.14354 0.67347 0.0
C289 C 0.72896 0.13955 0.6672 0.0
C290 C 0.73416 0.11751 0.69331 0.0
C291 C 0.72251 0.12986 0.66088 0.0
C292 C 0.71665 0.10631 0.65583 0.0
C293 C 0.72274 0.11522 0.66205 0.0
C294 C 0.70996 0.12663 0.64729 0.0
C295 C 0.71023 0.11192 0.64835 0.0
C296 C 0.71606 0.13548 0.65348 0.0
C297 C 0.75058 0.17725 0.68769 0.0
C298 C 0.74548 0.19765 0.67878 0.0
C299 C 0.76179 0.19975 0.69099 0.0
C300 C 0.75989 0.18547 0.69278 0.0
C301 C 0.75437 0.20608 0.68408 0.0
C302 C 0.74359 0.18333 0.68058 0.0
C303 C 0.74763 0.16265 0.69027 0.0
O304 O 0.72335 0.12629 0.69176 0.0
O305 O 0.74556 0.11952 0.68828 0.0
O306 O 0.75591 0.15294 0.68673 0.0
O307 O 0.73372 0.15913 0.69066 0.0
H308 H 0.75418 0.1317 0.70292 0.0
H309 H 0.75863 0.12951 0.7183 0.0
H310 H 0.72525 0.0973 0.71985 0.0
H311 H 0.72125 0.09923 0.70434 0.0
H312 H 0.71712 0.09504 0.65682 0.0
H313 H 0.72766 0.1107 0.66774 0.0
H314 H 0.70486 0.13133 0.64171 0.0
H315 H 0.71572 0.14676 0.6525 0.0
H316 H 0.73954 0.20223 0.67345 0.0
H317 H 0.76891 0.20589 0.6951 0.0
H318 H 0.76541 0.18092 0.69827 0.0
H319 H 0.73637 0.1771 0.67657 0.0
C320 C 0.85158 0.48536 0.95355 0.0
C321 C 0.86399 0.48577 0.95887 0.0
C322 C 0.84846 0.489 0.97141 0.0
C323 C 0.86244 0.48752 0.96772 0.0
C324 C 0.83605 0.48876 0.96604 0.0
C325 C 0.83761 0.48691 0.95717 0.0
U326 U 0.8765 0.48579 0.93438 0.0
O327 O 0.87948 0.47102 0.92371 0.0
O328 O 0.87325 0.49292 0.92105 0.0
C329 C 0.87529 0.48023 0.9179 0.0
C330 C 0.85335 0.48347 0.94424 0.0
C331 C 0.86416 0.47518 0.91181 0.0
C332 C 0.84245 0.46132 0.90861 0.0
C333 C 0.85218 0.4671 0.91458 0.0
C334 C 0.8562 0.47213 0.89705 0.0
C335 C 0.84448 0.46361 0.89977 0.0
C336 C 0.86597 0.47783 0.90303 0.0
C337 C 0.91694 0.49502 0.93927 0.0
C338 C 0.93628 0.50582 0.93076 0.0
C339 C 0.9425 0.49047 0.94262 0.0
C340 C 0.92764 0.48839 0.94429 0.0
C341 C 0.94703 0.49935 0.9359 0.0
C342 C 0.92135 0.50367 0.93242 0.0
C343 C 0.90139 0.49303 0.94158 0.0
O344 O 0.85648 0.49499 0.93996 0.0
O345 O 0.86153 0.47268 0.94201 0.0
O346 O 0.8966 0.48 0.94133 0.0
O347 O 0.89191 0.50223 0.93857 0.0
H348 H 0.87489 0.48474 0.95618 0.0
H349 H 0.87221 0.48789 0.97166 0.0
H350 H 0.82515 0.48982 0.96872 0.0
H351 H 0.82793 0.48667 0.95314 0.0
H352 H 0.83342 0.45493 0.91089 0.0
H353 H 0.85054 0.46501 0.92135 0.0
H354 H 0.85813 0.47398 0.89029 0.0
H355 H 0.87517 0.48403 0.90077 0.0
H356 H 0.9394 0.51278 0.92557 0.0
H357 H 0.95046 0.48508 0.94659 0.0
H358 H 0.92449 0.48165 0.94959 0.0
H359 H 0.9133 0.5089 0.92843 0.0
C360 C 0.26202 0.11749 0.70182 0.0
C361 C 0.25175 0.12624 0.7059 0.0
C362 C 0.2565 0.11469 0.71956 0.0
C363 C 0.24896 0.1248 0.71467 0.0
C364 C 0.26672 0.10588 0.71544 0.0
C365 C 0.26943 0.10727 0.70664 0.0
U366 U 0.26352 0.14165 0.68267 0.0
O367 O 0.28086 0.14538 0.6731 0.0
O368 O 0.259 0.13842 0.66896 0.0
C369 C 0.27259 0.14117 0.66669 0.0
C370 C 0.26573 0.11963 0.69272 0.0
C371 C 0.27949 0.13123 0.66067 0.0
C372 C 0.2831 0.10763 0.65499 0.0
C373 C 0.2766 0.11672 0.66096 0.0
C374 C 0.29558 0.12744 0.64847 0.0
C375 C 0.29268 0.11291 0.64868 0.0
C376 C 0.28903 0.13649 0.6544 0.0
C377 C 0.24994 0.1794 0.68625 0.0
C378 C 0.2561 0.19945 0.67727 0.0
C379 C 0.23836 0.20202 0.68874 0.0
C380 C 0.24007 0.18782 0.69083 0.0
C381 C 0.24655 0.20806 0.68203 0.0
C382 C 0.25775 0.18521 0.67934 0.0
C383 C 0.25255 0.16489 0.68912 0.0
O384 O 0.25455 0.12169 0.68754 0.0
O385 O 0.27661 0.12842 0.69137 0.0
O386 O 0.2664 0.16128 0.68989 0.0
O387 O 0.24444 0.15512 0.6855 0.0
H388 H 0.24607 0.13436 0.70232 0.0
H389 H 0.24119 0.13188 0.71768 0.0
H390 H 0.27263 0.09794 0.71903 0.0
H391 H 0.27747 0.1005 0.70362 0.0
H392 H 0.28077 0.09647 0.65536 0.0
H393 H 0.26932 0.11242 0.66579 0.0
H394 H 0.30276 0.13185 0.64363 0.0
H395 H 0.29136 0.14766 0.65405 0.0
H396 H 0.26245 0.20377 0.67202 0.0
H397 H 0.23107 0.2084 0.69261 0.0
H398 H 0.23398 0.18351 0.69619 0.0
H399 H 0.26538 0.17882 0.67571 0.0
C400 C 0.65026 0.51157 0.45223 0.0
C401 C 0.63794 0.51082 0.4576 0.0
C402 C 0.65368 0.50795 0.47007 0.0
C403 C 0.63963 0.50908 0.46643 0.0
C404 C 0.66603 0.50852 0.46466 0.0
C405 C 0.66432 0.51037 0.4558 0.0
U406 U 0.62477 0.51151 0.43337 0.0
O407 O 0.62166 0.52626 0.4227 0.0
O408 O 0.62738 0.50425 0.42001 0.0
C409 C 0.62543 0.51695 0.41687 0.0
C410 C 0.64831 0.51348 0.44294 0.0
C411 C 0.63637 0.52177 0.41059 0.0
C412 C 0.65826 0.53514 0.40705 0.0
C413 C 0.64872 0.5295 0.41318 0.0
C414 C 0.64357 0.52485 0.39572 0.0
C415 C 0.65566 0.53308 0.39823 0.0
C416 C 0.634 0.51929 0.40185 0.0
C417 C 0.5844 0.50301 0.43871 0.0
C418 C 0.56473 0.49366 0.42983 0.0
C419 C 0.559 0.50727 0.44254 0.0
C420 C 0.57392 0.50895 0.44419 0.0
C421 C 0.55419 0.49947 0.4354 0.0
C422 C 0.57973 0.49543 0.43147 0.0
C423 C 0.60003 0.50472 0.44088 0.0
O424 O 0.64483 0.502 0.4387 0.0
O425 O 0.64025 0.52439 0.44078 0.0
O426 O 0.60504 0.51767 0.44055 0.0
O427 O 0.60923 0.49536 0.43778 0.0
H428 H 0.62698 0.51159 0.45494 0.0
H429 H 0.62991 0.50843 0.47041 0.0
H430 H 0.67698 0.50774 0.4673 0.0
H431 H 0.67394 0.51087 0.45173 0.0
H432 H 0.66737 0.54152 0.40922 0.0
H433 H 0.65074 0.53151 0.41992 0.0
H434 H 0.64139 0.52285 0.389 0.0
H435 H 0.62456 0.51329 0.39974 0.0
H436 H 0.5614 0.48754 0.4243 0.0
H437 H 0.55121 0.51215 0.44686 0.0
H438 H 0.5773 0.51489 0.44979 0.0
H439 H 0.58762 0.49078 0.42712 0.0
C440 C 0.23654 0.88138 0.20166 0.0
C441 C 0.23929 0.86939 0.20666 0.0
C442 C 0.24148 0.88392 0.21946 0.0
C443 C 0.24169 0.87064 0.21548 0.0
C444 C 0.23893 0.89594 0.2144 0.0
C445 C 0.23643 0.89467 0.20556 0.0
U446 U 0.23643 0.85805 0.18224 0.0
O447 O 0.22021 0.85481 0.17199 0.0
O448 O 0.24258 0.86154 0.16876 0.0
C449 C 0.22928 0.8589 0.16593 0.0
C450 C 0.23374 0.87988 0.19241 0.0
C451 C 0.22326 0.86895 0.15969 0.0
C452 C 0.21599 0.89258 0.1555 0.0
C453 C 0.22201 0.88334 0.16156 0.0
C454 C 0.21246 0.8731 0.14569 0.0
C455 C 0.21112 0.88755 0.14749 0.0
C456 C 0.21848 0.86392 0.15172 0.0
C457 C 0.24892 0.81995 0.18613 0.0
C458 C 0.24324 0.79979 0.17712 0.0
C459 C 0.26067 0.79747 0.18878 0.0
C460 C 0.25874 0.81165 0.19082 0.0
C461 C 0.25276 0.7913 0.182 0.0
C462 C 0.24136 0.81403 0.17916 0.0
C463 C 0.24615 0.83448 0.18893 0.0
O464 O 0.24545 0.87763 0.18768 0.0
O465 O 0.22276 0.87151 0.19046 0.0
O466 O 0.23232 0.83832 0.18915 0.0
O467 O 0.25486 0.84416 0.18571 0.0
H468 H 0.23952 0.85905 0.20374 0.0
H469 H 0.24386 0.86121 0.21917 0.0
H470 H 0.23862 0.9063 0.2173 0.0
H471 H 0.23435 0.90403 0.20179 0.0
H472 H 0.21521 0.90366 0.15707 0.0
H473 H 0.22564 0.8874 0.1677 0.0
H474 H 0.20857 0.8688 0.13966 0.0
H475 H 0.21929 0.85282 0.1502 0.0
H476 H 0.23711 0.79537 0.17182 0.0
H477 H 0.26793 0.79119 0.19273 0.0
H478 H 0.26463 0.81605 0.19623 0.0
H479 H 0.23379 0.82032 0.17542 0.0
C480 C 0.85151 0.50913 0.05326 0.0
C481 C 0.86394 0.50669 0.04818 0.0
C482 C 0.84864 0.50491 0.03543 0.0
C483 C 0.86253 0.50463 0.03934 0.0
C484 C 0.83616 0.50712 0.04057 0.0
C485 C 0.83761 0.50926 0.04943 0.0
U486 U 0.87604 0.50985 0.07263 0.0
O487 O 0.87899 0.52553 0.08282 0.0
O488 O 0.87235 0.50399 0.08615 0.0
C489 C 0.87462 0.51689 0.08889 0.0
C490 C 0.85317 0.51174 0.0625 0.0
C491 C 0.86363 0.52256 0.09487 0.0
C492 C 0.84223 0.53701 0.09783 0.0
C493 C 0.85187 0.5308 0.09195 0.0
C494 C 0.85569 0.52636 0.10955 0.0
C495 C 0.84417 0.53504 0.10671 0.0
C496 C 0.86534 0.52021 0.10368 0.0
C497 C 0.91628 0.49941 0.06896 0.0
C498 C 0.93841 0.50837 0.07574 0.0
C499 C 0.9391 0.48631 0.06796 0.0
C500 C 0.92416 0.48763 0.06612 0.0
C501 C 0.94645 0.49685 0.07261 0.0
C502 C 0.92343 0.50962 0.07397 0.0
C503 C 0.90101 0.50133 0.0661 0.0
O504 O 0.85598 0.50053 0.06717 0.0
O505 O 0.86157 0.52252 0.06443 0.0
O506 O 0.89635 0.5144 0.06564 0.0
O507 O 0.89126 0.49263 0.06933 0.0
H508 H 0.87477 0.50647 0.05104 0.0
H509 H 0.87231 0.50273 0.03558 0.0
H510 H 0.82533 0.50746 0.03773 0.0
H511 H 0.8279 0.51113 0.05327 0.0
H512 H 0.83356 0.54373 0.09542 0.0
H513 H 0.85034 0.53271 0.08515 0.0
H514 H 0.85734 0.52441 0.11633 0.0
H515 H 0.87431 0.51382 0.10604 0.0
H516 H 0.94378 0.51657 0.07941 0.0
H517 H 0.94504 0.47738 0.06539 0.0
H518 H 0.91885 0.47965 0.06224 0.0
H519 H 0.91757 0.51876 0.07631 0.0
C520 C 0.23621 0.11721 0.80174 0.0
C521 C 0.24618 0.12625 0.79765 0.0
C522 C 0.2408 0.11538 0.78384 0.0
C523 C 0.24852 0.12529 0.78881 0.0
C524 C 0.23088 0.10627 0.78799 0.0
C525 C 0.22862 0.1072 0.79686 0.0
U526 U 0.23601 0.14026 0.82137 0.0
O527 O 0.21979 0.14327 0.83162 0.0
O528 O 0.24208 0.13629 0.83484 0.0
C529 C 0.22873 0.13878 0.83765 0.0
C530 C 0.23316 0.11876 0.81097 0.0
C531 C 0.22268 0.12837 0.84368 0.0
C532 C 0.20679 0.10854 0.84696 0.0
C533 C 0.21303 0.11776 0.84097 0.0
C534 C 0.22014 0.12017 0.85837 0.0
C535 C 0.21019 0.10972 0.85574 0.0
C536 C 0.2263 0.12941 0.8524 0.0
C537 C 0.24901 0.17833 0.81793 0.0
C538 C 0.24343 0.19829 0.82712 0.0
C539 C 0.26056 0.20093 0.81535 0.0
C540 C 0.25868 0.18677 0.81322 0.0
C541 C 0.25276 0.20693 0.82222 0.0
C542 C 0.24159 0.18408 0.82501 0.0
C543 C 0.24613 0.1639 0.81499 0.0
O544 O 0.24472 0.12064 0.81588 0.0
O545 O 0.2223 0.12733 0.81282 0.0
O546 O 0.23225 0.16023 0.81467 0.0
O547 O 0.25467 0.15404 0.81815 0.0
H548 H 0.25208 0.13415 0.80129 0.0
H549 H 0.25639 0.13232 0.78587 0.0
H550 H 0.22461 0.09865 0.78436 0.0
H551 H 0.22076 0.10023 0.79989 0.0
H552 H 0.19929 0.1005 0.84472 0.0
H553 H 0.21017 0.11672 0.83425 0.0
H554 H 0.22287 0.12147 0.86509 0.0
H555 H 0.23371 0.13755 0.85461 0.0
H556 H 0.23738 0.20257 0.8325 0.0
H557 H 0.26767 0.20733 0.81137 0.0
H558 H 0.26445 0.18251 0.80773 0.0
H559 H 0.23412 0.17768 0.82875 0.0
C560 C 0.64919 0.48796 0.55181 0.0
C561 C 0.63697 0.49 0.54649 0.0
C562 C 0.65285 0.49169 0.53399 0.0
C563 C 0.63877 0.4918 0.53766 0.0
C564 C 0.66511 0.48984 0.53936 0.0
C565 C 0.66328 0.48795 0.54821 0.0
U566 U 0.62399 0.48933 0.57083 0.0
O567 O 0.61987 0.47443 0.5813 0.0
O568 O 0.62745 0.49583 0.58425 0.0
C569 C 0.62456 0.48319 0.58723 0.0
C570 C 0.64712 0.48587 0.56107 0.0
C571 C 0.63532 0.47735 0.59329 0.0
C572 C 0.6566 0.46279 0.59631 0.0
C573 C 0.64705 0.46903 0.59041 0.0
C574 C 0.64313 0.47356 0.608 0.0
C575 C 0.65465 0.46487 0.60518 0.0
C576 C 0.63354 0.47971 0.6021 0.0
C577 C 0.5846 0.50148 0.56601 0.0
C578 C 0.56331 0.49721 0.57502 0.0
C579 C 0.56102 0.51147 0.56219 0.0
C580 C 0.57595 0.5097 0.56055 0.0
C581 C 0.55445 0.50499 0.56934 0.0
C582 C 0.57829 0.49546 0.57336 0.0
C583 C 0.59986 0.4986 0.56359 0.0
O584 O 0.64472 0.49742 0.56549 0.0
O585 O 0.63814 0.47557 0.5631 0.0
O586 O 0.60371 0.48527 0.56368 0.0
O587 O 0.60985 0.507 0.56687 0.0
H588 H 0.62601 0.49017 0.54917 0.0
H589 H 0.62914 0.49343 0.53372 0.0
H590 H 0.67608 0.48965 0.5367 0.0
H591 H 0.67283 0.48642 0.55224 0.0
H592 H 0.66548 0.45629 0.59395 0.0
H593 H 0.64867 0.46718 0.58362 0.0
H594 H 0.64127 0.47524 0.61479 0.0
H595 H 0.62454 0.4861 0.60443 0.0
H596 H 0.55855 0.49203 0.58055 0.0
H597 H 0.55455 0.51772 0.55779 0.0
H598 H 0.58067 0.51447 0.55486 0.0
H599 H 0.58484 0.48908 0.57766 0.0
C600 C 0.2657 0.88241 0.30114 0.0
C601 C 0.26516 0.87029 0.296 0.0
C602 C 0.2609 0.88464 0.2833 0.0
C603 C 0.26286 0.8714 0.28717 0.0
C604 C 0.26128 0.89676 0.28849 0.0
C605 C 0.2637 0.89565 0.29735 0.0
U606 U 0.26491 0.85988 0.32099 0.0
O607 O 0.28055 0.85716 0.33157 0.0
O608 O 0.25811 0.86427 0.3343 0.0
C609 C 0.2713 0.86187 0.33737 0.0
C610 C 0.26807 0.88117 0.31045 0.0
C611 C 0.27712 0.87248 0.34336 0.0
C612 C 0.29318 0.89219 0.34662 0.0
C613 C 0.28699 0.88291 0.34066 0.0
C614 C 0.27931 0.88104 0.358 0.0
C615 C 0.28953 0.89125 0.35538 0.0
C616 C 0.27319 0.87173 0.35204 0.0
C617 C 0.25238 0.82158 0.31761 0.0
C618 C 0.258 0.80144 0.32664 0.0
C619 C 0.24 0.79931 0.31528 0.0
C620 C 0.24216 0.81342 0.31312 0.0
C621 C 0.24808 0.79308 0.32196 0.0
C622 C 0.2601 0.8156 0.3245 0.0
C623 C 0.25538 0.83598 0.31464 0.0
O624 O 0.25615 0.87916 0.31503 0.0
O625 O 0.27895 0.87288 0.31271 0.0
O626 O 0.26925 0.83976 0.31456 0.0
O627 O 0.24658 0.84585 0.31753 0.0
H628 H 0.2665 0.85996 0.29883 0.0
H629 H 0.26239 0.86186 0.28337 0.0
H630 H 0.25988 0.9071 0.28569 0.0
H631 H 0.26401 0.9051 0.30122 0.0
H632 H 0.30089 0.90005 0.34439 0.0
H633 H 0.29009 0.88373 0.33396 0.0
H634 H 0.27638 0.87994 0.3647 0.0
H635 H 0.26561 0.86373 0.35425 0.0
H636 H 0.26427 0.79697 0.33188 0.0
H637 H 0.23243 0.79313 0.31147 0.0
H638 H 0.23612 0.81786 0.30778 0.0
H639 H 0.26799 0.82178 0.32808 0.0
C640 C 0.65116 0.02433 0.55057 0.0
C641 C 0.63875 0.02172 0.54549 0.0
C642 C 0.65427 0.01652 0.53319 0.0
C643 C 0.64028 0.0179 0.53688 0.0
C644 C 0.66671 0.01897 0.53833 0.0
C645 C 0.66515 0.02289 0.54696 0.0
U646 U 0.62581 0.02831 0.56928 0.0
O647 O 0.6282 0.02424 0.58311 0.0
O648 O 0.62235 0.04538 0.57857 0.0
C649 C 0.62567 0.03743 0.58519 0.0
C650 C 0.64931 0.02848 0.5596 0.0
C651 C 0.63566 0.04374 0.59151 0.0
C652 C 0.65961 0.05251 0.5958 0.0
C653 C 0.65056 0.04595 0.58972 0.0
C654 C 0.63893 0.05454 0.60549 0.0
C655 C 0.65383 0.05701 0.60372 0.0
C656 C 0.62995 0.04797 0.59944 0.0
C657 C 0.58594 0.0173 0.56487 0.0
C658 C 0.56461 0.02438 0.57316 0.0
C659 C 0.56217 0.00695 0.5619 0.0
C660 C 0.57716 0.00795 0.56021 0.0
C661 C 0.55565 0.01535 0.56828 0.0
C662 C 0.57966 0.02535 0.57147 0.0
C663 C 0.60139 0.01899 0.56241 0.0
O664 O 0.64102 0.03963 0.56079 0.0
O665 O 0.64617 0.01812 0.56488 0.0
O666 O 0.61082 0.01076 0.56634 0.0
O667 O 0.60599 0.03203 0.56163 0.0
H668 H 0.62784 0.02266 0.54818 0.0
H669 H 0.6305 0.01586 0.53315 0.0
H670 H 0.67763 0.01805 0.53565 0.0
H671 H 0.67485 0.02483 0.55079 0.0
H672 H 0.67101 0.05435 0.59424 0.0
H673 H 0.65513 0.04276 0.5836 0.0
H674 H 0.63419 0.05768 0.61157 0.0
H675 H 0.61847 0.04631 0.60093 0.0
H676 H 0.55992 0.03105 0.57808 0.0
H677 H 0.55563 0.9997 0.55814 0.0
H678 H 0.58185 0.0016 0.55512 0.0
H679 H 0.58631 0.03261 0.57515 0.0
C680 C 0.24008 0.40426 0.80219 0.0
C681 C 0.24235 0.39258 0.79685 0.0
C682 C 0.2447 0.40794 0.78442 0.0
C683 C 0.24457 0.39439 0.78806 0.0
C684 C 0.24251 0.41965 0.78982 0.0
C685 C 0.24021 0.41781 0.79864 0.0
U686 U 0.23989 0.37959 0.82097 0.0
O687 O 0.24638 0.3821 0.83448 0.0
O688 O 0.22382 0.37601 0.83125 0.0
C689 C 0.23305 0.37965 0.83733 0.0
C690 C 0.23749 0.40217 0.81141 0.0
C691 C 0.22733 0.38972 0.84364 0.0
C692 C 0.2195 0.41326 0.84765 0.0
C693 C 0.22553 0.404 0.84161 0.0
C694 C 0.21716 0.39404 0.85778 0.0
C695 C 0.21516 0.40836 0.8558 0.0
C696 C 0.22319 0.38483 0.85176 0.0
C697 C 0.2512 0.34151 0.81607 0.0
C698 C 0.24576 0.32127 0.82506 0.0
C699 C 0.26133 0.31863 0.81256 0.0
C700 C 0.25988 0.33297 0.81081 0.0
C701 C 0.25405 0.31255 0.8196 0.0
C702 C 0.24435 0.33566 0.82331 0.0
C703 C 0.24883 0.35626 0.81363 0.0
O704 O 0.22636 0.39391 0.81323 0.0
O705 O 0.24926 0.39931 0.81596 0.0
O706 O 0.25786 0.3655 0.81702 0.0
O707 O 0.2351 0.36046 0.8136 0.0
H708 H 0.24227 0.38203 0.79948 0.0
H709 H 0.24595 0.38513 0.78409 0.0
H710 H 0.2427 0.43023 0.78725 0.0
H711 H 0.23853 0.42694 0.80268 0.0
H712 H 0.21824 0.42424 0.84595 0.0
H713 H 0.22867 0.40793 0.83535 0.0
H714 H 0.21371 0.38984 0.86391 0.0
H715 H 0.22443 0.37381 0.8534 0.0
H716 H 0.23994 0.3169 0.8305 0.0
H717 H 0.268 0.31226 0.80833 0.0
H718 H 0.26531 0.33734 0.80523 0.0
H719 H 0.23762 0.34213 0.82746 0.0
C720 C 0.84811 0.98001 0.04986 0.0
C721 C 0.85765 0.98992 0.04619 0.0
C722 C 0.84533 0.98752 0.03239 0.0
C723 C 0.85622 0.9937 0.03757 0.0
C724 C 0.8357 0.97768 0.03612 0.0
C725 C 0.83709 0.97397 0.04479 0.0
U726 U 0.87363 0.97515 0.06855 0.0
O727 O 0.87113 0.97897 0.08242 0.0
O728 O 0.87668 0.95783 0.0777 0.0
C729 C 0.87314 0.96564 0.08436 0.0
C730 C 0.85022 0.9754 0.0588 0.0
C731 C 0.86258 0.95949 0.09045 0.0
C732 C 0.84209 0.94404 0.09376 0.0
C733 C 0.85132 0.95044 0.08774 0.0
C734 C 0.85495 0.95602 0.10524 0.0
C735 C 0.84389 0.94666 0.10259 0.0
C736 C 0.86421 0.96233 0.09922 0.0
C737 C 0.91363 0.98607 0.06446 0.0
C738 C 0.93453 0.9792 0.07318 0.0
C739 C 0.93777 0.99546 0.06135 0.0
C740 C 0.9228 0.99472 0.05955 0.0
C741 C 0.94387 0.9875 0.06807 0.0
C742 C 0.91951 0.97848 0.07138 0.0
C743 C 0.89821 0.98455 0.06191 0.0
O744 O 0.8586 0.96425 0.05971 0.0
O745 O 0.85329 0.98546 0.06432 0.0
O746 O 0.88877 0.99271 0.06589 0.0
O747 O 0.89357 0.97155 0.06098 0.0
H748 H 0.86632 0.99464 0.04997 0.0
H749 H 0.86368 0.00146 0.03496 0.0
H750 H 0.82732 0.97258 0.03231 0.0
H751 H 0.82972 0.9662 0.04749 0.0
H752 H 0.83356 0.937 0.09152 0.0
H753 H 0.8498 0.94816 0.08098 0.0
H754 H 0.85673 0.95814 0.11199 0.0
H755 H 0.87285 0.96927 0.10144 0.0
H756 H 0.93891 0.9729 0.07837 0.0
H757 H 0.94462 0.00214 0.05739 0.0
H758 H 0.91842 0.00069 0.05421 0.0
H759 H 0.91255 0.97175 0.07524 0.0
C760 C 0.25865 0.59573 0.30196 0.0
C761 C 0.24846 0.60415 0.29759 0.0
C762 C 0.25452 0.59253 0.28411 0.0
C763 C 0.24635 0.60251 0.28876 0.0
C764 C 0.26457 0.58396 0.28856 0.0
C765 C 0.2666 0.58556 0.29741 0.0
U766 U 0.25918 0.62078 0.32067 0.0
O767 O 0.25376 0.61823 0.33433 0.0
O768 O 0.27589 0.62488 0.33053 0.0
C769 C 0.26721 0.62104 0.33685 0.0
C770 C 0.26176 0.59823 0.31111 0.0
C771 C 0.27364 0.61117 0.34304 0.0
C772 C 0.28141 0.58766 0.34717 0.0
C773 C 0.27486 0.59676 0.34122 0.0
C774 C 0.28551 0.60732 0.35678 0.0
C775 C 0.28692 0.59288 0.35498 0.0
C776 C 0.27893 0.61637 0.35086 0.0
C777 C 0.24658 0.65852 0.31608 0.0
C778 C 0.25253 0.67879 0.32493 0.0
C779 C 0.23615 0.68136 0.31279 0.0
C780 C 0.23751 0.66702 0.31102 0.0
C781 C 0.24389 0.68749 0.31965 0.0
C782 C 0.25385 0.66441 0.32316 0.0
C783 C 0.24903 0.64382 0.31354 0.0
O784 O 0.27267 0.60694 0.31256 0.0
O785 O 0.25027 0.60068 0.31599 0.0
O786 O 0.24052 0.63438 0.31718 0.0
O787 O 0.26284 0.63994 0.31312 0.0
H788 H 0.24229 0.61217 0.30097 0.0
H789 H 0.23837 0.60914 0.28558 0.0
H790 H 0.27118 0.5763 0.28517 0.0
H791 H 0.27463 0.57908 0.30067 0.0
H792 H 0.28245 0.57661 0.34557 0.0
H793 H 0.27087 0.59259 0.33518 0.0
H794 H 0.28947 0.61163 0.36278 0.0
H795 H 0.27805 0.62747 0.35237 0.0
H796 H 0.25871 0.68319 0.33022 0.0
H797 H 0.2292 0.68772 0.30869 0.0
H798 H 0.23177 0.66262 0.30555 0.0
H799 H 0.26089 0.65797 0.32716 0.0
C800 C 0.65048 0.97664 0.45402 0.0
C801 C 0.63808 0.97923 0.45911 0.0
C802 C 0.65367 0.98512 0.47128 0.0
C803 C 0.63966 0.98338 0.46766 0.0
C804 C 0.66609 0.98272 0.46611 0.0
C805 C 0.66449 0.97847 0.45755 0.0
U806 U 0.62555 0.97157 0.43508 0.0
O807 O 0.62855 0.97456 0.4212 0.0
O808 O 0.62246 0.95376 0.42623 0.0
C809 C 0.62623 0.96119 0.41947 0.0
C810 C 0.64867 0.97198 0.44507 0.0
C811 C 0.63655 0.95436 0.41351 0.0
C812 C 0.66091 0.95117 0.40746 0.0
C813 C 0.65156 0.95768 0.4134 0.0
C814 C 0.64039 0.93789 0.40182 0.0
C815 C 0.65541 0.94119 0.40161 0.0
C816 C 0.63107 0.94442 0.4077 0.0
C817 C 0.58553 0.98284 0.43833 0.0
C818 C 0.56484 0.97495 0.42975 0.0
C819 C 0.56161 0.99358 0.4402 0.0
C820 C 0.57644 0.9927 0.44236 0.0
C821 C 0.55558 0.98458 0.43395 0.0
C822 C 0.57972 0.97412 0.4319 0.0
C823 C 0.60079 0.98141 0.44122 0.0
O824 O 0.64031 0.96083 0.44409 0.0
O825 O 0.64573 0.98203 0.43954 0.0
O826 O 0.61047 0.98934 0.43726 0.0
O827 O 0.60535 0.96846 0.44249 0.0
H828 H 0.62716 0.97799 0.45647 0.0
H829 H 0.62989 0.98537 0.47142 0.0
H830 H 0.67702 0.98391 0.46873 0.0
H831 H 0.67417 0.97654 0.4537 0.0
H832 H 0.67246 0.95384 0.40751 0.0
H833 H 0.65602 0.96529 0.41786 0.0
H834 H 0.63576 0.93041 0.39733 0.0
H835 H 0.61951 0.94177 0.40767 0.0
H836 H 0.56055 0.96798 0.42486 0.0
H837 H 0.55475 0.00098 0.44364 0.0
H838 H 0.58074 0.99949 0.44735 0.0
H839 H 0.58662 0.96649 0.42867 0.0
C840 C 0.26077 0.40505 0.70224 0.0
C841 C 0.25753 0.39341 0.70744 0.0
C842 C 0.25568 0.40862 0.71997 0.0
C843 C 0.25507 0.39517 0.71621 0.0
C844 C 0.25879 0.42029 0.7147 0.0
C845 C 0.26132 0.4185 0.7059 0.0
U846 U 0.26141 0.3805 0.6834 0.0
O847 O 0.25594 0.3832 0.66975 0.0
O848 O 0.2781 0.37654 0.6735 0.0
C849 C 0.26941 0.38048 0.66722 0.0
C850 C 0.26382 0.40296 0.69306 0.0
C851 C 0.27587 0.39038 0.66104 0.0
C852 C 0.28085 0.41413 0.65602 0.0
C853 C 0.27435 0.405 0.66197 0.0
C854 C 0.29051 0.3941 0.64824 0.0
C855 C 0.28909 0.40876 0.64913 0.0
C856 C 0.28395 0.38501 0.65413 0.0
C857 C 0.24887 0.34267 0.68799 0.0
C858 C 0.2545 0.32228 0.67917 0.0
C859 C 0.23808 0.31999 0.69132 0.0
C860 C 0.23967 0.33431 0.69307 0.0
C861 C 0.24571 0.31373 0.68446 0.0
C862 C 0.25607 0.33665 0.68093 0.0
C863 C 0.25141 0.35737 0.69049 0.0
O864 O 0.27483 0.39445 0.69145 0.0
O865 O 0.25225 0.40041 0.68827 0.0
O866 O 0.24285 0.3668 0.68689 0.0
O867 O 0.26522 0.36126 0.69085 0.0
H868 H 0.25709 0.38293 0.70472 0.0
H869 H 0.25297 0.38591 0.72008 0.0
H870 H 0.25918 0.43081 0.71736 0.0
H871 H 0.26377 0.4276 0.70196 0.0
H872 H 0.27968 0.42538 0.65691 0.0
H873 H 0.26822 0.40934 0.6673 0.0
H874 H 0.29664 0.38964 0.64294 0.0
H875 H 0.28523 0.37375 0.65332 0.0
H876 H 0.2606 0.31777 0.67388 0.0
H877 H 0.23102 0.31375 0.69541 0.0
H878 H 0.23398 0.33881 0.69852 0.0
H879 H 0.2632 0.34298 0.67693 0.0
C880 C 0.84772 0.02051 0.95202 0.0
C881 C 0.85628 0.00973 0.95562 0.0
C882 C 0.84384 0.01259 0.96934 0.0
C883 C 0.85429 0.00575 0.96418 0.0
C884 C 0.83522 0.02332 0.96569 0.0
C885 C 0.83713 0.02722 0.9571 0.0
U886 U 0.8746 0.02583 0.93402 0.0
O887 O 0.87312 0.02275 0.92006 0.0
O888 O 0.8784 0.04362 0.92526 0.0
C889 C 0.87549 0.03612 0.91839 0.0
C890 C 0.85054 0.02542 0.9432 0.0
C891 C 0.86556 0.04265 0.91212 0.0
C892 C 0.84124 0.04969 0.9074 0.0
C893 C 0.85038 0.04339 0.91352 0.0
C894 C 0.8624 0.05456 0.89848 0.0
C895 C 0.84716 0.05534 0.89979 0.0
C896 C 0.87149 0.04827 0.90458 0.0
C897 C 0.91419 0.01447 0.93872 0.0
C898 C 0.93561 0.02193 0.93064 0.0
C899 C 0.93804 0.00441 0.94184 0.0
C900 C 0.92299 0.00518 0.94342 0.0
C901 C 0.94458 0.01296 0.93555 0.0
C902 C 0.92051 0.02267 0.93221 0.0
C903 C 0.89865 0.01593 0.94103 0.0
O904 O 0.85908 0.03652 0.94266 0.0
O905 O 0.85387 0.01556 0.9376 0.0
O906 O 0.88938 0.00803 0.93673 0.0
O907 O 0.89402 0.02891 0.94211 0.0
H908 H 0.8647 0.00456 0.95187 0.0
H909 H 0.86126 0.99761 0.96683 0.0
H910 H 0.82704 0.02873 0.9695 0.0
H911 H 0.83051 0.03564 0.95446 0.0
H912 H 0.82955 0.05004 0.90858 0.0
H913 H 0.84563 0.03908 0.91933 0.0
H914 H 0.86737 0.05902 0.89278 0.0
H915 H 0.8832 0.04784 0.90342 0.0
H916 H 0.94032 0.02871 0.92578 0.0
H917 H 0.94459 0.99721 0.94563 0.0
H918 H 0.91826 0.99872 0.94844 0.0
H919 H 0.91385 0.02989 0.9285 0.0
C920 C 0.23961 0.59381 0.20177 0.0
C921 C 0.24946 0.60248 0.20623 0.0
C922 C 0.24387 0.59027 0.21957 0.0
C923 C 0.25163 0.60067 0.21504 0.0
C924 C 0.23411 0.58151 0.21505 0.0
C925 C 0.23202 0.58326 0.20621 0.0
U926 U 0.23906 0.61912 0.18321 0.0
O927 O 0.24441 0.61681 0.16953 0.0
O928 O 0.22229 0.6234 0.1734 0.0
C929 C 0.23095 0.61966 0.16705 0.0
C930 C 0.23644 0.59644 0.19265 0.0
C931 C 0.22449 0.60995 0.16076 0.0
C932 C 0.2186 0.58634 0.15583 0.0
C933 C 0.22492 0.59531 0.16194 0.0
C934 C 0.21132 0.60658 0.14739 0.0
C935 C 0.21173 0.59188 0.14847 0.0
C936 C 0.21766 0.6155 0.15347 0.0
C937 C 0.25198 0.65671 0.18799 0.0
C938 C 0.2465 0.67704 0.1791 0.0
C939 C 0.26247 0.67946 0.19144 0.0
C940 C 0.26092 0.66513 0.19318 0.0
C941 C 0.25503 0.68566 0.18449 0.0
C942 C 0.24498 0.66266 0.18084 0.0
C943 C 0.2494 0.642 0.19046 0.0
O944 O 0.22556 0.60521 0.19127 0.0
O945 O 0.24791 0.59892 0.18776 0.0
O946 O 0.25782 0.63255 0.18676 0.0
O947 O 0.23556 0.63821 0.19086 0.0
H948 H 0.25526 0.61084 0.20294 0.0
H949 H 0.25905 0.60773 0.21835 0.0
H950 H 0.22804 0.57335 0.21836 0.0
H951 H 0.22428 0.57655 0.20288 0.0
H952 H 0.21921 0.57508 0.15683 0.0
H953 H 0.23012 0.59084 0.16756 0.0
H954 H 0.20588 0.61123 0.1419 0.0
H955 H 0.21715 0.62678 0.15249 0.0
H956 H 0.24055 0.6815 0.17373 0.0
H957 H 0.26932 0.68576 0.19562 0.0
H958 H 0.26645 0.66067 0.1987 0.0
H959 H 0.23804 0.65628 0.17675 0.0
C960 C 0.34982 0.97822 0.45381 0.0
C961 C 0.36222 0.98181 0.45866 0.0
C962 C 0.34685 0.98655 0.47111 0.0
C963 C 0.36076 0.9859 0.46723 0.0
C964 C 0.33443 0.98294 0.46621 0.0
C965 C 0.33591 0.97881 0.45762 0.0
U966 U 0.3748 0.97348 0.43493 0.0
O967 O 0.37741 0.95641 0.42555 0.0
O968 O 0.37205 0.97775 0.42112 0.0
C969 C 0.37383 0.96446 0.41901 0.0
C970 C 0.35153 0.9739 0.4448 0.0
C971 C 0.36304 0.9586 0.41295 0.0
C972 C 0.34207 0.94368 0.40973 0.0
C973 C 0.35149 0.94993 0.41572 0.0
C974 C 0.35531 0.95507 0.39819 0.0
C975 C 0.34398 0.94607 0.40089 0.0
C976 C 0.36476 0.96124 0.40417 0.0
C977 C 0.41509 0.98372 0.43902 0.0
C978 C 0.43633 0.97621 0.43078 0.0
C979 C 0.439 0.99388 0.44188 0.0
C980 C 0.424 0.99309 0.44359 0.0
C981 C 0.4454 0.98525 0.43558 0.0
C982 C 0.42127 0.97544 0.43249 0.0
C983 C 0.39965 0.98224 0.44154 0.0
O984 O 0.35483 0.98414 0.43947 0.0
O985 O 0.3596 0.9626 0.44365 0.0
O986 O 0.39481 0.96928 0.44232 0.0
O987 O 0.3903 0.99068 0.43771 0.0
H988 H 0.37305 0.98139 0.45583 0.0
H989 H 0.37058 0.98837 0.47084 0.0
H990 H 0.32355 0.98346 0.46897 0.0
H991 H 0.32622 0.97611 0.45395 0.0
H992 H 0.33334 0.93692 0.41202 0.0
H993 H 0.34991 0.94782 0.42249 0.0
H994 H 0.35718 0.95701 0.39143 0.0
H995 H 0.37362 0.96787 0.40191 0.0
H996 H 0.44094 0.96937 0.42591 0.0
H997 H 0.44563 0.00113 0.44558 0.0
H998 H 0.41939 0.99961 0.44862 0.0
H999 H 0.41453 0.96816 0.42888 0.0
C1000 C 0.76205 0.59898 0.2024 0.0
C1001 C 0.76055 0.61082 0.2077 0.0
C1002 C 0.75829 0.59575 0.22025 0.0
C1003 C 0.75874 0.60923 0.21654 0.0
C1004 C 0.7596 0.58388 0.2149 0.0
C1005 C 0.76151 0.5855 0.20603 0.0
U1006 U 0.76089 0.62293 0.18326 0.0
O1007 O 0.7763 0.62636 0.17265 0.0
O1008 O 0.75375 0.6196 0.1699 0.0
C1009 C 0.76692 0.62206 0.16681 0.0
C1010 C 0.76412 0.6008 0.19312 0.0
C1011 C 0.77259 0.61161 0.1607 0.0
C1012 C 0.78703 0.59076 0.15753 0.0
C1013 C 0.78083 0.60001 0.16349 0.0
C1014 C 0.77636 0.60431 0.14593 0.0
C1015 C 0.78504 0.59291 0.14866 0.0
C1016 C 0.77022 0.61358 0.1519 0.0
C1017 C 0.74925 0.6611 0.18787 0.0
C1018 C 0.75447 0.68142 0.17891 0.0
C1019 C 0.73872 0.68382 0.19135 0.0
C1020 C 0.74036 0.6695 0.19309 0.0
C1021 C 0.74601 0.69002 0.18435 0.0
C1022 C 0.75609 0.66705 0.18066 0.0
C1023 C 0.75196 0.64643 0.1904 0.0
O1024 O 0.75206 0.60332 0.18875 0.0
O1025 O 0.77502 0.60913 0.19098 0.0
O1026 O 0.76574 0.64241 0.19026 0.0
O1027 O 0.7429 0.63698 0.18726 0.0
H1028 H 0.7608 0.62132 0.205 0.0
H1029 H 0.75752 0.61856 0.22047 0.0
H1030 H 0.75935 0.57337 0.21759 0.0
H1031 H 0.76261 0.57624 0.20202 0.0
H1032 H 0.79377 0.58218 0.15985 0.0
H1033 H 0.78275 0.59831 0.17028 0.0
H1034 H 0.77439 0.60614 0.13917 0.0
H1035 H 0.76382 0.62243 0.14963 0.0
H1036 H 0.7603 0.68589 0.1735 0.0
H1037 H 0.73191 0.6901 0.19556 0.0
H1038 H 0.73495 0.66505 0.19866 0.0
H1039 H 0.76298 0.66069 0.17654 0.0
C1040 C 0.14966 0.02202 0.9543 0.0
C1041 C 0.13716 0.01892 0.95919 0.0
C1042 C 0.15242 0.01362 0.97161 0.0
C1043 C 0.13852 0.01481 0.96776 0.0
C1044 C 0.16494 0.01673 0.96666 0.0
C1045 C 0.16356 0.02089 0.95807 0.0
U1046 U 0.12513 0.02663 0.93516 0.0
O1047 O 0.12271 0.0437 0.92577 0.0
O1048 O 0.12835 0.0224 0.92137 0.0
C1049 C 0.12652 0.03568 0.91926 0.0
C1050 C 0.14809 0.02633 0.94528 0.0
C1051 C 0.13735 0.04163 0.91326 0.0
C1052 C 0.15794 0.05704 0.91008 0.0
C1053 C 0.14856 0.05068 0.91604 0.0
C1054 C 0.14534 0.045 0.89853 0.0
C1055 C 0.15633 0.05439 0.90124 0.0
C1056 C 0.13594 0.03872 0.90448 0.0
C1057 C 0.0848 0.01619 0.93851 0.0
C1058 C 0.06399 0.024 0.93001 0.0
C1059 C 0.06097 0.00528 0.94042 0.0
C1060 C 0.07581 0.00625 0.94255 0.0
C1061 C 0.05483 0.01428 0.93421 0.0
C1062 C 0.07888 0.02492 0.93212 0.0
C1063 C 0.10007 0.01769 0.94139 0.0
O1064 O 0.14501 0.01606 0.93992 0.0
O1065 O 0.13996 0.03757 0.94405 0.0
O1066 O 0.10482 0.03066 0.9423 0.0
O1067 O 0.10967 0.00931 0.93773 0.0
H1068 H 0.12632 0.01974 0.95638 0.0
H1069 H 0.12863 0.01274 0.97139 0.0
H1070 H 0.17581 0.01578 0.96939 0.0
H1071 H 0.17333 0.02319 0.95437 0.0
H1072 H 0.1664 0.0641 0.91238 0.0
H1073 H 0.1499 0.05302 0.9228 0.0
H1074 H 0.1437 0.04286 0.89177 0.0
H1075 H 0.12733 0.0318 0.9022 0.0
H1076 H 0.05961 0.03098 0.92515 0.0
H1077 H 0.05419 0.99782 0.94386 0.0
H1078 H 0.08019 0.99945 0.9475 0.0
H1079 H 0.0857 0.03262 0.9289 0.0
C1080 C 0.73985 0.40212 0.70188 0.0
C1081 C 0.74992 0.39335 0.70609 0.0
C1082 C 0.74442 0.40473 0.71973 0.0
C1083 C 0.75225 0.39469 0.71492 0.0
C1084 C 0.73444 0.41359 0.71545 0.0
C1085 C 0.73219 0.41229 0.7066 0.0
U1086 U 0.73939 0.37834 0.68251 0.0
O1087 O 0.7228 0.37494 0.67252 0.0
O1088 O 0.74486 0.38215 0.66894 0.0
C1089 C 0.73139 0.3796 0.66636 0.0
C1090 C 0.73669 0.40014 0.6927 0.0
C1091 C 0.72492 0.39015 0.66058 0.0
C1092 C 0.70871 0.40998 0.65795 0.0
C1093 C 0.71535 0.40056 0.66365 0.0
C1094 C 0.72153 0.399 0.6461 0.0
C1095 C 0.71163 0.40922 0.6491 0.0
C1096 C 0.72808 0.38953 0.65179 0.0
C1097 C 0.75239 0.34037 0.68596 0.0
C1098 C 0.74626 0.32052 0.6768 0.0
C1099 C 0.76358 0.31757 0.68846 0.0
C1100 C 0.762 0.33177 0.6906 0.0
C1101 C 0.75551 0.31172 0.68164 0.0
C1102 C 0.74473 0.33476 0.67893 0.0
C1103 C 0.74977 0.35483 0.68892 0.0
O1104 O 0.74819 0.39811 0.68776 0.0
O1105 O 0.72586 0.39143 0.69106 0.0
O1106 O 0.73593 0.35856 0.68946 0.0
O1107 O 0.75819 0.36463 0.68557 0.0
H1108 H 0.75587 0.38534 0.70257 0.0
H1109 H 0.76017 0.38783 0.71797 0.0
H1110 H 0.72809 0.4213 0.71897 0.0
H1111 H 0.72426 0.41905 0.70347 0.0
H1112 H 0.70125 0.41785 0.66046 0.0
H1113 H 0.71287 0.4013 0.67044 0.0
H1114 H 0.72389 0.39806 0.63931 0.0
H1115 H 0.73544 0.38157 0.6493 0.0
H1116 H 0.74001 0.31634 0.67147 0.0
H1117 H 0.77065 0.31105 0.69238 0.0
H1118 H 0.76796 0.33593 0.69606 0.0
H1119 H 0.7373 0.34128 0.67525 0.0
C1120 C 0.35004 0.02173 0.55119 0.0
C1121 C 0.36245 0.01847 0.54626 0.0
C1122 C 0.347 0.0132 0.53392 0.0
C1123 C 0.36096 0.0143 0.53771 0.0
C1124 C 0.33456 0.01646 0.53891 0.0
C1125 C 0.33609 0.02069 0.54748 0.0
U1126 U 0.37515 0.0268 0.56997 0.0
O1127 O 0.37778 0.04404 0.57924 0.0
O1128 O 0.37263 0.02274 0.58381 0.0
C1129 C 0.37456 0.03604 0.58585 0.0
C1130 C 0.3518 0.02616 0.56017 0.0
C1131 C 0.36408 0.04198 0.59203 0.0
C1132 C 0.34073 0.05292 0.59549 0.0
C1133 C 0.35015 0.04667 0.58949 0.0
C1134 C 0.359 0.04959 0.60659 0.0
C1135 C 0.34509 0.05454 0.60411 0.0
C1136 C 0.36837 0.04338 0.60061 0.0
C1137 C 0.4154 0.01673 0.56615 0.0
C1138 C 0.43622 0.02467 0.5746 0.0
C1139 C 0.43937 0.00623 0.56402 0.0
C1140 C 0.42448 0.00702 0.56198 0.0
C1141 C 0.44546 0.01518 0.57026 0.0
C1142 C 0.42128 0.02541 0.57258 0.0
C1143 C 0.40003 0.01801 0.56342 0.0
O1144 O 0.35517 0.016 0.56555 0.0
O1145 O 0.35984 0.03751 0.56126 0.0
O1146 O 0.3951 0.03092 0.56251 0.0
O1147 O 0.39066 0.00958 0.56724 0.0
H1148 H 0.37333 0.01923 0.54902 0.0
H1149 H 0.37078 0.01211 0.53404 0.0
H1150 H 0.32365 0.0156 0.53621 0.0
H1151 H 0.32639 0.02312 0.55121 0.0
H1152 H 0.33004 0.05651 0.59338 0.0
H1153 H 0.34665 0.04563 0.58288 0.0
H1154 H 0.36282 0.05087 0.61313 0.0
H1155 H 0.37912 0.03986 0.60267 0.0
H1156 H 0.44057 0.03161 0.57949 0.0
H1157 H 0.44621 0.99894 0.56048 0.0
H1158 H 0.42011 1.00026 0.557 0.0
H1159 H 0.41439 0.03292 0.57592 0.0
C1160 C 0.73786 0.59806 0.30211 0.0
C1161 C 0.73931 0.61002 0.2969 0.0
C1162 C 0.74182 0.59521 0.28425 0.0
C1163 C 0.74121 0.60862 0.28806 0.0
C1164 C 0.74058 0.58323 0.28951 0.0
C1165 C 0.73857 0.58466 0.29838 0.0
U1166 U 0.73873 0.62147 0.32155 0.0
O1167 O 0.72317 0.62447 0.33213 0.0
O1168 O 0.7457 0.61767 0.3349 0.0
C1169 C 0.73249 0.62001 0.33796 0.0
C1170 C 0.73568 0.59966 0.3114 0.0
C1171 C 0.72678 0.60939 0.34395 0.0
C1172 C 0.71199 0.58869 0.34694 0.0
C1173 C 0.71822 0.59807 0.34106 0.0
C1174 C 0.72328 0.60156 0.35863 0.0
C1175 C 0.71427 0.59045 0.35582 0.0
C1176 C 0.72944 0.61094 0.35275 0.0
C1177 C 0.75033 0.65979 0.3177 0.0
C1178 C 0.74475 0.67959 0.32702 0.0
C1179 C 0.76127 0.68263 0.31498 0.0
C1180 C 0.75958 0.66844 0.31285 0.0
C1181 C 0.75367 0.68843 0.322 0.0
C1182 C 0.74312 0.66536 0.3249 0.0
C1183 C 0.74772 0.64527 0.31484 0.0
O1184 O 0.74768 0.60207 0.31585 0.0
O1185 O 0.72474 0.60792 0.31358 0.0
O1186 O 0.73395 0.6412 0.31481 0.0
O1187 O 0.75675 0.63568 0.31784 0.0
H1188 H 0.73893 0.62047 0.29969 0.0
H1189 H 0.74238 0.61803 0.2842 0.0
H1190 H 0.74094 0.57278 0.28675 0.0
H1191 H 0.73751 0.57532 0.30232 0.0
H1192 H 0.70501 0.58034 0.34456 0.0
H1193 H 0.71608 0.59668 0.33427 0.0
H1194 H 0.72547 0.60307 0.3654 0.0
H1195 H 0.7361 0.61958 0.35509 0.0
H1196 H 0.73887 0.68373 0.3325 0.0
H1197 H 0.76807 0.68918 0.31092 0.0
H1198 H 0.7652 0.66432 0.30727 0.0
H1199 H 0.73598 0.65879 0.32875 0.0
C1200 C 0.14901 0.97789 0.05159 0.0
C1201 C 0.13671 0.98187 0.04677 0.0
C1202 C 0.15219 0.98662 0.03437 0.0
C1203 C 0.13827 0.98615 0.03825 0.0
C1204 C 0.16453 0.98267 0.03925 0.0
C1205 C 0.16294 0.97833 0.0478 0.0
U1206 U 0.12382 0.9731 0.07034 0.0
O1207 O 0.1204 0.95551 0.07929 0.0
O1208 O 0.12653 0.97635 0.08423 0.0
C1209 C 0.12398 0.96305 0.08604 0.0
C1210 C 0.14715 0.97321 0.06052 0.0
C1211 C 0.13413 0.95633 0.09211 0.0
C1212 C 0.15859 0.9491 0.09647 0.0
C1213 C 0.14929 0.95583 0.0906 0.0
C1214 C 0.13763 0.9434 0.10537 0.0
C1215 C 0.15283 0.94272 0.1039 0.0
C1216 C 0.1284 0.95014 0.09953 0.0
C1217 C 0.08401 0.98472 0.06663 0.0
C1218 C 0.06318 0.97767 0.07535 0.0
C1219 C 0.06009 0.9951 0.06415 0.0
C1220 C 0.07497 0.99406 0.06213 0.0
C1221 C 0.05397 0.98678 0.0707 0.0
C1222 C 0.07811 0.97668 0.07335 0.0
C1223 C 0.09933 0.98307 0.06391 0.0
O1224 O 0.14423 0.98329 0.06604 0.0
O1225 O 0.13867 0.96213 0.06147 0.0
O1226 O 0.10376 0.97004 0.06279 0.0
O1227 O 0.10899 0.99097 0.06792 0.0
H1228 H 0.12585 0.98156 0.04959 0.0
H1229 H 0.12851 0.98888 0.03466 0.0
H1230 H 0.17542 0.98305 0.0365 0.0
H1231 H 0.17256 0.97533 0.05144 0.0
H1232 H 0.17024 0.94866 0.09513 0.0
H1233 H 0.15389 0.96053 0.08487 0.0
H1234 H 0.13287 0.93878 0.11108 0.0
H1235 H 0.11672 0.95048 0.10081 0.0
H1236 H 0.05882 0.97123 0.08048 0.0
H1237 H 0.05327 0.00206 0.06036 0.0
H1238 H 0.07934 0.00031 0.05692 0.0
H1239 H 0.08498 0.96945 0.07692 0.0
C1240 C 0.7613 0.4035 0.80198 0.0
C1241 C 0.75137 0.39475 0.79763 0.0
C1242 C 0.75699 0.40652 0.78416 0.0
C1243 C 0.74918 0.39629 0.78881 0.0
C1244 C 0.76688 0.41531 0.78855 0.0
C1245 C 0.76899 0.41382 0.79741 0.0
U1246 U 0.76119 0.37924 0.82108 0.0
O1247 O 0.77748 0.37544 0.8312 0.0
O1248 O 0.75536 0.38265 0.83465 0.0
C1249 C 0.76875 0.37998 0.83732 0.0
C1250 C 0.76427 0.40131 0.81117 0.0
C1251 C 0.77511 0.39038 0.84325 0.0
C1252 C 0.79129 0.41014 0.84617 0.0
C1253 C 0.78478 0.40084 0.84034 0.0
C1254 C 0.77815 0.39894 0.85783 0.0
C1255 C 0.78814 0.40921 0.85499 0.0
C1256 C 0.77174 0.38959 0.85201 0.0
C1257 C 0.74793 0.34145 0.8168 0.0
C1258 C 0.75338 0.32095 0.82557 0.0
C1259 C 0.73684 0.3189 0.81346 0.0
C1260 C 0.73858 0.33322 0.81174 0.0
C1261 C 0.74449 0.31252 0.82027 0.0
C1262 C 0.7551 0.33532 0.82385 0.0
C1263 C 0.75083 0.35605 0.81423 0.0
O1264 O 0.75265 0.39922 0.81601 0.0
O1265 O 0.77501 0.39252 0.81281 0.0
O1266 O 0.76473 0.35966 0.81393 0.0
O1267 O 0.74239 0.36575 0.81766 0.0
H1268 H 0.74549 0.38656 0.80103 0.0
H1269 H 0.74167 0.38922 0.78559 0.0
H1270 H 0.77299 0.42333 0.78514 0.0
H1271 H 0.77677 0.4206 0.80065 0.0
H1272 H 0.79881 0.41805 0.84378 0.0
H1273 H 0.78743 0.40172 0.83358 0.0
H1274 H 0.77562 0.39787 0.86459 0.0
H1275 H 0.76429 0.38159 0.85437 0.0
H1276 H 0.75948 0.31634 0.83083 0.0
H1277 H 0.72971 0.31275 0.80936 0.0
H1278 H 0.73292 0.3378 0.8063 0.0
H1279 H 0.76236 0.34154 0.82783 0.0
C1280 C 0.16985 0.49975 0.98277 0.0
C1281 C 0.1562 0.49983 0.97859 0.0
C1282 C 0.17083 0.50112 0.99173 0.0
C1283 C 0.15787 0.50269 0.99663 0.0
C1284 C 0.14408 0.50289 0.99246 0.0
C1285 C 0.14341 0.5014 0.98352 0.0
C1286 C 0.18573 0.50083 0.99595 0.0
C1287 C 0.13 0.50456 0.99746 0.0
C1288 C 0.15723 0.49316 0.02031 0.0
C1289 C 0.15793 0.50644 0.02422 0.0
C1290 C 0.15762 0.49176 0.01134 0.0
C1291 C 0.15863 0.50395 0.00615 0.0
C1292 C 0.15967 0.51736 0.01006 0.0
C1293 C 0.15935 0.51845 0.01905 0.0
C1294 C 0.15662 0.47726 0.00743 0.0
C1295 C 0.16065 0.53061 0.00474 0.0
H1296 H 0.17979 0.49871 0.97902 0.0
H1297 H 0.1328 0.50122 0.98039 0.0
H1298 H 0.18755 0.51071 0.99958 0.0
H1299 H 0.18626 0.49203 1.00062 0.0
H1300 H 0.19475 0.49954 0.99123 0.0
H1301 H 0.1202 0.50488 0.99323 0.0
H1302 H 0.12874 0.49569 1.00203 0.0
H1303 H 0.13035 0.51439 1.0013 0.0
H1304 H 0.15631 0.48384 0.02428 0.0
H1305 H 0.15972 0.52875 0.02202 0.0
H1306 H 0.16594 0.4755 0.00298 0.0
H1307 H 0.1464 0.47635 0.00361 0.0
H1308 H 0.15667 0.46881 0.01235 0.0
H1309 H 0.16992 0.52987 1.00016 0.0
H1310 H 0.16216 0.54016 0.00876 0.0
H1311 H 0.15048 0.53187 1.00091 0.0
C1312 C 0.74165 0.88948 0.23282 0.0
C1313 C 0.75582 0.88983 0.22932 0.0
C1314 C 0.73947 0.88977 0.24174 0.0
C1315 C 0.75174 0.89031 0.2473 0.0
C1316 C 0.76606 0.89087 0.2438 0.0
C1317 C 0.76792 0.89068 0.23485 0.0
C1318 C 0.72402 0.88929 0.24522 0.0
C1319 C 0.77943 0.89132 0.2495 0.0
C1320 C 0.74629 0.90145 0.27055 0.0
C1321 C 0.74575 0.88841 0.27477 0.0
C1322 C 0.74817 0.90224 0.26161 0.0
C1323 C 0.74963 0.88971 0.25677 0.0
C1324 C 0.74909 0.87652 0.26099 0.0
C1325 C 0.74709 0.87604 0.26991 0.0
C1326 C 0.74864 0.9165 0.25734 0.0
C1327 C 0.75062 0.86291 0.25607 0.0
H1328 H 0.73226 0.88899 0.22858 0.0
H1329 H 0.77889 0.89078 0.23218 0.0
H1330 H 0.72246 0.87956 0.24905 0.0
H1331 H 0.7221 0.89834 0.24958 0.0
H1332 H 0.71565 0.88951 0.24005 0.0
H1333 H 0.78977 0.89226 0.24578 0.0
H1334 H 0.77869 0.90033 0.254 0.0
H1335 H 0.77996 0.88159 0.25343 0.0
H1336 H 0.74543 0.91107 0.27425 0.0
H1337 H 0.74641 0.8659 0.27307 0.0
H1338 H 0.73996 0.91719 0.25237 0.0
H1339 H 0.75932 0.91795 0.25406 0.0
H1340 H 0.74709 0.92524 0.26199 0.0
H1341 H 0.74174 0.86205 0.25123 0.0
H1342 H 0.75015 0.85353 0.26032 0.0
H1343 H 0.76118 0.86277 0.25254 0.0
C1344 C 0.35463 0.48489 0.51856 0.0
C1345 C 0.34572 0.49282 0.52408 0.0
C1346 C 0.35394 0.4867 0.50964 0.0
C1347 C 0.34416 0.49674 0.50613 0.0
C1348 C 0.33491 0.50457 0.51165 0.0
C1349 C 0.33576 0.50248 0.52057 0.0
C1350 C 0.3639 0.47805 0.50397 0.0
C1351 C 0.32441 0.51544 0.50816 0.0
C1352 C 0.35463 0.51137 0.48431 0.0
C1353 C 0.34557 0.5036 0.47879 0.0
C1354 C 0.35402 0.50946 0.49323 0.0
C1355 C 0.34417 0.49948 0.49672 0.0
C1356 C 0.3348 0.49178 0.4912 0.0
C1357 C 0.33557 0.49397 0.48229 0.0
C1358 C 0.3641 0.51798 0.4989 0.0
C1359 C 0.32423 0.48097 0.49468 0.0
H1360 H 0.36219 0.47727 0.52124 0.0
H1361 H 0.32893 0.5087 0.52481 0.0
H1362 H 0.35736 0.47243 0.49904 0.0
H1363 H 0.37164 0.48507 0.50053 0.0
H1364 H 0.37034 0.4702 0.50767 0.0
H1365 H 0.31746 0.52014 0.51327 0.0
H1366 H 0.33066 0.52398 0.50498 0.0
H1367 H 0.31718 0.51064 0.50324 0.0
H1368 H 0.36222 0.51897 0.48164 0.0
H1369 H 0.32863 0.48787 0.47804 0.0
H1370 H 0.37174 0.51086 0.50234 0.0
H1371 H 0.35764 0.52369 0.50382 0.0
H1372 H 0.37066 0.52575 0.4952 0.0
H1373 H 0.33041 0.47239 0.49788 0.0
H1374 H 0.31727 0.47629 0.48957 0.0
H1375 H 0.31701 0.48581 0.49959 0.0
C1376 C 0.76663 0.11027 0.76974 0.0
C1377 C 0.75464 0.11186 0.77529 0.0
C1378 C 0.7647 0.10993 0.7608 0.0
C1379 C 0.75041 0.11112 0.75732 0.0
C1380 C 0.73822 0.1124 0.76289 0.0
C1381 C 0.74048 0.11281 0.7718 0.0
C1382 C 0.77799 0.10866 0.75507 0.0
C1383 C 0.7228 0.11358 0.75944 0.0
C1384 C 0.74638 0.12504 0.73458 0.0
C1385 C 0.74431 0.11263 0.72984 0.0
C1386 C 0.74843 0.12467 0.7435 0.0
C1387 C 0.74826 0.11159 0.74784 0.0
C1388 C 0.74607 0.09902 0.74312 0.0
C1389 C 0.74416 0.09969 0.73418 0.0
C1390 C 0.75074 0.13831 0.74829 0.0
C1391 C 0.74578 0.08488 0.74752 0.0
H1392 H 0.77761 0.10971 0.77238 0.0
H1393 H 0.73116 0.11387 0.77606 0.0
H1394 H 0.77671 0.0996 0.75065 0.0
H1395 H 0.77904 0.11825 0.75106 0.0
H1396 H 0.78828 0.10727 0.75879 0.0
H1397 H 0.71446 0.11391 0.76463 0.0
H1398 H 0.72174 0.12327 0.75552 0.0
H1399 H 0.72035 0.10453 0.75517 0.0
H1400 H 0.74623 0.13511 0.73132 0.0
H1401 H 0.74273 0.09004 0.73057 0.0
H1402 H 0.76133 0.13799 0.75179 0.0
H1403 H 0.74196 0.13975 0.75314 0.0
H1404 H 0.75077 0.14759 0.74395 0.0
H1405 H 0.75639 0.08297 0.75081 0.0
H1406 H 0.74373 0.07611 0.74296 0.0
H1407 H 0.73711 0.08474 0.75252 0.0
C1408 C 0.85694 0.50993 0.02043 0.0
C1409 C 0.84729 0.50296 0.026 0.0
C1410 C 0.85628 0.5078 0.01153 0.0
C1411 C 0.84573 0.49842 0.00811 0.0
C1412 C 0.83576 0.49154 0.01368 0.0
C1413 C 0.83663 0.49393 0.02256 0.0
C1414 C 0.86703 0.51541 0.00581 0.0
C1415 C 0.82442 0.48141 0.01027 0.0
C1416 C 0.83776 0.50132 0.98421 0.0
C1417 C 0.84697 0.49087 0.98084 0.0
C1418 C 0.837 0.50372 0.9931 0.0
C1419 C 0.84558 0.49541 0.99873 0.0
C1420 C 0.85458 0.4846 0.99537 0.0
C1421 C 0.85519 0.48248 0.98647 0.0
C1422 C 0.82735 0.5154 0.99644 0.0
C1423 C 0.8638 0.47544 1.00116 0.0
H1424 H 0.86505 0.51708 0.02305 0.0
H1425 H 0.82922 0.48844 0.02684 0.0
H1426 H 0.87411 0.50768 0.00246 0.0
H1427 H 0.86106 0.52144 1.00081 0.0
H1428 H 0.87415 0.52278 0.00945 0.0
H1429 H 0.81708 0.47739 0.0154 0.0
H1430 H 0.81763 0.48661 0.00528 0.0
H1431 H 0.82995 0.47234 0.00717 0.0
H1432 H 0.83149 0.5079 0.97988 0.0
H1433 H 0.86216 0.47426 0.9839 0.0
H1434 H 0.83422 0.52358 0.99955 0.0
H1435 H 0.81974 0.51129 1.00139 0.0
H1436 H 0.82081 0.52043 0.99126 0.0
H1437 H 0.87203 0.48199 0.00456 0.0
H1438 H 0.86965 0.46705 0.99757 0.0
H1439 H 0.85681 0.47043 0.00613 0.0
C1440 C 0.24342 0.10178 0.77006 0.0
C1441 C 0.24293 0.11476 0.77436 0.0
C1442 C 0.24546 0.10112 0.76113 0.0
C1443 C 0.24715 0.11372 0.75638 0.0
C1444 C 0.24666 0.12684 0.76067 0.0
C1445 C 0.24448 0.1272 0.76959 0.0
C1446 C 0.24588 0.08693 0.75677 0.0
C1447 C 0.24843 0.14051 0.75585 0.0
C1448 C 0.266 0.11274 0.73462 0.0
C1449 C 0.25405 0.11371 0.72898 0.0
C1450 C 0.2639 0.11254 0.74355 0.0
C1451 C 0.2495 0.11323 0.74692 0.0
C1452 C 0.23738 0.11392 0.74126 0.0
C1453 C 0.23981 0.11421 0.73236 0.0
C1454 C 0.27712 0.11193 0.74937 0.0
C1455 C 0.22186 0.11455 0.7446 0.0
H1456 H 0.24241 0.09211 0.77369 0.0
H1457 H 0.24385 0.13728 0.77281 0.0
H1458 H 0.23734 0.08641 0.75171 0.0
H1459 H 0.25663 0.08541 0.75358 0.0
H1460 H 0.24409 0.07813 0.76135 0.0
H1461 H 0.24794 0.14983 0.76015 0.0
H1462 H 0.25909 0.14062 0.75242 0.0
H1463 H 0.23969 0.14152 0.75093 0.0
H1464 H 0.27704 0.11253 0.73205 0.0
H1465 H 0.23053 0.1148 0.72803 0.0
H1466 H 0.27619 0.10286 0.75381 0.0
H1467 H 0.27761 0.12159 0.75336 0.0
H1468 H 0.28755 0.11098 0.74574 0.0
H1469 H 0.2197 0.10544 0.74888 0.0
H1470 H 0.21362 0.11451 0.73935 0.0
H1471 H 0.22032 0.12422 0.74848 0.0
C1472 C 0.64685 0.51418 0.48515 0.0
C1473 C 0.65531 0.50608 0.47949 0.0
C1474 C 0.6475 0.51198 0.49404 0.0
C1475 C 0.6568 0.50137 0.49736 0.0
C1476 C 0.66566 0.49339 0.4917 0.0
C1477 C 0.66484 0.49587 0.48283 0.0
C1478 C 0.63795 0.52078 0.49986 0.0
C1479 C 0.67566 0.48195 0.495 0.0
C1480 C 0.66513 0.50282 0.52127 0.0
C1481 C 0.65461 0.49353 0.52458 0.0
C1482 C 0.66622 0.50526 0.5124 0.0
C1483 C 0.65661 0.49817 0.50672 0.0
C1484 C 0.64625 0.48848 0.51001 0.0
C1485 C 0.64537 0.4863 0.51889 0.0
C1486 C 0.67734 0.51573 0.50913 0.0
C1487 C 0.63588 0.48062 0.50416 0.0
H1488 H 0.63963 0.52223 0.48261 0.0
H1489 H 0.67132 0.48951 0.47847 0.0
H1490 H 0.62986 0.51395 0.50316 0.0
H1491 H 0.64473 0.52586 0.5049 0.0
H1492 H 0.63191 0.52909 0.49631 0.0
H1493 H 0.68248 0.47728 0.48983 0.0
H1494 H 0.68302 0.48618 0.50005 0.0
H1495 H 0.66903 0.47347 0.49798 0.0
H1496 H 0.67223 0.50851 0.52564 0.0
H1497 H 0.63737 0.47894 0.52141 0.0
H1498 H 0.67161 0.52477 0.50612 0.0
H1499 H 0.68429 0.51083 0.50411 0.0
H1500 H 0.68455 0.51977 0.51432 0.0
H1501 H 0.62857 0.48819 0.50084 0.0
H1502 H 0.62898 0.47294 0.5077 0.0
H1503 H 0.64214 0.47491 0.49915 0.0
C1504 C 0.26692 0.87775 0.26819 0.0
C1505 C 0.25839 0.8857 0.2739 0.0
C1506 C 0.26431 0.87814 0.25932 0.0
C1507 C 0.25282 0.88662 0.25606 0.0
C1508 C 0.2443 0.89484 0.26178 0.0
C1509 C 0.24723 0.89432 0.27063 0.0
C1510 C 0.27372 0.86932 0.25344 0.0
C1511 C 0.23188 0.90392 0.25856 0.0
C1512 C 0.25337 0.89536 0.23222 0.0
C1513 C 0.24391 0.8851 0.22887 0.0
C1514 C 0.25624 0.89612 0.24108 0.0
C1515 C 0.2494 0.88644 0.24671 0.0
C1516 C 0.23959 0.87626 0.24338 0.0
C1517 C 0.237 0.87569 0.23451 0.0
C1518 C 0.26682 0.90707 0.24438 0.0
C1519 C 0.23199 0.86582 0.24918 0.0
H1520 H 0.27569 0.87122 0.27067 0.0
H1521 H 0.24051 0.90038 0.27502 0.0
H1522 H 0.26683 0.86138 0.25012 0.0
H1523 H 0.27876 0.87604 0.24842 0.0
H1524 H 0.2826 0.86374 0.25694 0.0
H1525 H 0.22665 0.91008 0.26379 0.0
H1526 H 0.23593 0.91133 0.2536 0.0
H1527 H 0.22341 0.89722 0.2555 0.0
H1528 H 0.25884 0.90258 0.22789 0.0
H1529 H 0.22951 0.86787 0.23198 0.0
H1530 H 0.27639 0.90182 0.24739 0.0
H1531 H 0.26149 0.91357 0.2494 0.0
H1532 H 0.27084 0.91412 0.2392 0.0
H1533 H 0.24024 0.85912 0.25244 0.0
H1534 H 0.22429 0.8589 0.24561 0.0
H1535 H 0.22579 0.87146 0.25425 0.0
C1536 C 0.66577 0.00211 0.52146 0.0
C1537 C 0.65573 0.01248 0.524 0.0
C1538 C 0.66653 0.9976 0.51288 0.0
C1539 C 0.65707 0.00367 0.50669 0.0
C1540 C 0.64721 0.01442 0.50918 0.0
C1541 C 0.64664 0.01867 0.5178 0.0
C1542 C 0.67714 0.98606 0.51048 0.0
C1543 C 0.63701 0.02125 0.50277 0.0
C1544 C 0.66511 0.99998 0.48282 0.0
C1545 C 0.65521 0.98939 0.48042 0.0
C1546 C 0.66605 0.00457 0.49138 0.0
C1547 C 0.65694 0.99836 0.49769 0.0
C1548 C 0.64719 0.98743 0.49533 0.0
C1549 C 0.64642 0.9831 0.48673 0.0
C1550 C 0.67652 0.01631 0.49363 0.0
C1551 C 0.63737 0.98045 0.50187 0.0
H1552 H 0.67274 0.99721 0.52624 0.0
H1553 H 0.63901 0.02684 0.5197 0.0
H1554 H 0.67098 0.97666 0.50828 0.0
H1555 H 0.68419 0.9895 0.50507 0.0
H1556 H 0.68427 0.98296 0.51594 0.0
H1557 H 0.6305 0.02992 0.50566 0.0
H1558 H 0.64337 0.02551 0.49729 0.0
H1559 H 0.62933 0.01327 0.50016 0.0
H1560 H 0.67185 0.00495 0.47795 0.0
H1561 H 0.6389 0.97477 0.48494 0.0
H1562 H 0.68388 0.01299 0.49892 0.0
H1563 H 0.67026 0.02558 0.49593 0.0
H1564 H 0.68334 0.01958 0.48806 0.0
H1565 H 0.64402 0.97626 0.50725 0.0
H1566 H 0.63087 0.97169 0.49907 0.0
H1567 H 0.62967 0.98831 0.5046 0.0
C1568 C 0.26228 0.41945 0.73419 0.0
C1569 C 0.25341 0.4103 0.72938 0.0
C1570 C 0.26089 0.42035 0.74315 0.0
C1571 C 0.25048 0.41181 0.74743 0.0
C1572 C 0.24123 0.40284 0.7426 0.0
C1573 C 0.24276 0.40225 0.73365 0.0
C1574 C 0.27087 0.43013 0.74807 0.0
C1575 C 0.23 0.39354 0.74691 0.0
C1576 C 0.25696 0.4012 0.7706 0.0
C1577 C 0.24688 0.40971 0.775 0.0
C1578 C 0.25843 0.40199 0.76166 0.0
C1579 C 0.24973 0.41164 0.75697 0.0
C1580 C 0.23989 0.42061 0.76139 0.0
C1581 C 0.23854 0.4195 0.77035 0.0
C1582 C 0.26904 0.39222 0.75719 0.0
C1583 C 0.23051 0.43111 0.75662 0.0
H1584 H 0.27064 0.42561 0.73097 0.0
H1585 H 0.23565 0.39536 0.72998 0.0
H1586 H 0.26434 0.43702 0.75237 0.0
H1587 H 0.27837 0.4239 0.75219 0.0
H1588 H 0.27758 0.43686 0.74376 0.0
H1589 H 0.22329 0.38755 0.74221 0.0
H1590 H 0.2356 0.38595 0.75121 0.0
H1591 H 0.22256 0.39998 0.75095 0.0
H1592 H 0.26367 0.39381 0.77416 0.0
H1593 H 0.23063 0.42604 0.77367 0.0
H1594 H 0.2769 0.39838 0.75326 0.0
H1595 H 0.26297 0.38517 0.75276 0.0
H1596 H 0.27533 0.38563 0.76179 0.0
H1597 H 0.23745 0.43781 0.75244 0.0
H1598 H 0.22419 0.438 0.76104 0.0
H1599 H 0.22268 0.42546 0.7524 0.0
C1600 C 0.85711 0.9929 0.0182 0.0
C1601 C 0.84431 0.99111 0.02309 0.0
C1602 C 0.85642 0.99642 0.00946 0.0
C1603 C 0.84259 0.99807 0.00546 0.0
C1604 C 0.82962 0.99616 0.01032 0.0
C1605 C 0.83064 0.99275 0.01908 0.0
C1606 C 0.87051 0.99837 0.00451 0.0
C1607 C 0.81468 0.99778 0.00627 0.0
C1608 C 0.84188 0.01944 0.98483 0.0
C1609 C 0.84243 0.00886 0.97857 0.0
C1610 C 0.84161 0.01608 0.99361 0.0
C1611 C 0.84179 0.00178 0.99618 0.0
C1612 C 0.84191 0.99105 0.98988 0.0
C1613 C 0.84229 0.99472 0.98115 0.0
C1614 C 0.84162 0.02783 1.00013 0.0
C1615 C 0.84196 0.97569 0.99235 0.0
H1616 H 0.86773 0.99139 0.02118 0.0
H1617 H 0.82069 0.99155 0.02281 0.0
H1618 H 0.87101 0.99074 0.99914 0.0
H1619 H 0.87088 0.00907 1.00168 0.0
H1620 H 0.88037 0.99691 0.0086 0.0
H1621 H 0.80566 0.99571 0.01088 0.0
H1622 H 0.8134 0.0086 0.0037 0.0
H1623 H 0.81356 0.99042 1.00078 0.0
H1624 H 0.84215 0.03038 0.98288 0.0
H1625 H 0.84254 0.9865 0.97633 0.0
H1626 H 0.85188 0.02743 0.00395 0.0
H1627 H 0.83235 0.02651 0.00467 0.0
H1628 H 0.84077 0.03837 0.99709 0.0
H1629 H 0.85216 0.97319 0.99592 0.0
H1630 H 0.84124 0.96864 0.98668 0.0
H1631 H 0.83261 0.97339 0.99669 0.0
C1632 C 0.25945 0.58971 0.23283 0.0
C1633 C 0.24553 0.58902 0.22903 0.0
C1634 C 0.2611 0.58947 0.24179 0.0
C1635 C 0.2485 0.58864 0.24708 0.0
C1636 C 0.23444 0.58763 0.24327 0.0
C1637 C 0.23312 0.5878 0.2343 0.0
C1638 C 0.27629 0.59044 0.24559 0.0
C1639 C 0.22074 0.58683 0.24869 0.0
C1640 C 0.25298 0.57826 0.27052 0.0
C1641 C 0.25289 0.59142 0.27462 0.0
C1642 C 0.2516 0.57717 0.26156 0.0
C1643 C 0.25 0.58953 0.25658 0.0
C1644 C 0.24985 0.60283 0.26066 0.0
C1645 C 0.25137 0.60362 0.26961 0.0
C1646 C 0.25184 0.5628 0.25743 0.0
C1647 C 0.24816 0.61627 0.25558 0.0
H1648 H 0.26908 0.59049 0.22878 0.0
H1649 H 0.22232 0.58743 0.2314 0.0
H1650 H 0.27736 0.60032 0.24933 0.0
H1651 H 0.27817 0.58157 0.25009 0.0
H1652 H 0.28499 0.59026 0.2406 0.0
H1653 H 0.2107 0.58538 0.24476 0.0
H1654 H 0.22156 0.578 0.25332 0.0
H1655 H 0.21956 0.59665 0.25249 0.0
H1656 H 0.25399 0.56877 0.27434 0.0
H1657 H 0.25156 0.61385 0.27268 0.0
H1658 H 0.26087 0.56223 0.25267 0.0
H1659 H 0.24144 0.56097 0.25391 0.0
H1660 H 0.25333 0.55423 0.2622 0.0
H1661 H 0.25731 0.6173 0.25093 0.0
H1662 H 0.24801 0.62575 0.25974 0.0
H1663 H 0.23783 0.61596 0.25182 0.0
C1664 C 0.35408 0.00185 0.48354 0.0
C1665 C 0.34544 0.99087 0.48027 0.0
C1666 C 0.35353 0.00555 0.49226 0.0
C1667 C 0.34403 0.99817 0.49785 0.0
C1668 C 0.33499 0.98732 0.49456 0.0
C1669 C 0.33582 0.98378 0.48582 0.0
C1670 C 0.36335 0.01719 0.49551 0.0
C1671 C 0.32468 0.97924 0.50032 0.0
C1672 C 0.35452 0.99812 0.52145 0.0
C1673 C 0.34555 0.00881 0.52478 0.0
C1674 C 0.35394 0.9944 0.51274 0.0
C1675 C 0.34406 0.00145 0.50721 0.0
C1676 C 0.33468 0.01198 0.51056 0.0
C1677 C 0.33556 0.01556 0.51929 0.0
C1678 C 0.36413 0.98311 0.50943 0.0
C1679 C 0.32397 0.01969 0.50487 0.0
H1680 H 0.36134 0.00757 0.47928 0.0
H1681 H 0.3292 0.9752 0.48337 0.0
H1682 H 0.35671 0.02542 0.49873 0.0
H1683 H 0.3711 0.01293 0.50034 0.0
H1684 H 0.36979 0.02219 0.49028 0.0
H1685 H 0.31778 0.97167 0.49669 0.0
H1686 H 0.33107 0.97333 0.50519 0.0
H1687 H 0.3174 0.98661 0.50383 0.0
H1688 H 0.36208 0.99267 0.52566 0.0
H1689 H 0.32868 0.02391 0.52178 0.0
H1690 H 0.37162 0.98763 0.50454 0.0
H1691 H 0.35774 0.97466 0.50624 0.0
H1692 H 0.37085 0.97834 0.51461 0.0
H1693 H 0.33003 0.02582 0.49996 0.0
H1694 H 0.31685 0.02701 0.50855 0.0
H1695 H 0.31691 0.01207 0.5014 0.0
C1696 C 0.73573 0.60244 0.26922 0.0
C1697 C 0.74378 0.59385 0.27482 0.0
C1698 C 0.73795 0.60184 0.26033 0.0
C1699 C 0.74854 0.59248 0.25693 0.0
C1700 C 0.75649 0.58357 0.26253 0.0
C1701 C 0.75399 0.58433 0.27142 0.0
C1702 C 0.72915 0.61144 0.25457 0.0
C1703 C 0.76794 0.57351 0.25916 0.0
C1704 C 0.7463 0.58454 0.23304 0.0
C1705 C 0.75641 0.5942 0.22967 0.0
C1706 C 0.74382 0.58364 0.24192 0.0
C1707 C 0.75171 0.59255 0.24756 0.0
C1708 C 0.76222 0.60203 0.24421 0.0
C1709 C 0.76442 0.60276 0.23531 0.0
C1710 C 0.73247 0.57345 0.24525 0.0
C1711 C 0.77095 0.61163 0.25001 0.0
H1712 H 0.72767 0.60966 0.27182 0.0
H1713 H 0.76032 0.57775 0.27572 0.0
H1714 H 0.7366 0.61887 0.25123 0.0
H1715 H 0.72344 0.6052 0.24957 0.0
H1716 H 0.72086 0.61763 0.25818 0.0
H1717 H 0.77265 0.5668 0.2643 0.0
H1718 H 0.76312 0.56661 0.25416 0.0
H1719 H 0.77696 0.57952 0.2561 0.0
H1720 H 0.74 0.57798 0.2287 0.0
H1721 H 0.7724 0.61009 0.23275 0.0
H1722 H 0.72339 0.57936 0.24833 0.0
H1723 H 0.73735 0.56654 0.25023 0.0
H1724 H 0.72783 0.56675 0.24008 0.0
H1725 H 0.76345 0.61897 0.25338 0.0
H1726 H 0.7792 0.61791 0.24642 0.0
H1727 H 0.7767 0.60537 0.25499 0.0
C1728 C 0.14464 0.99866 0.98408 0.0
C1729 C 0.15374 0.00925 0.98076 0.0
C1730 C 0.14517 0.99491 0.99279 0.0
C1731 C 0.15513 0.00184 0.99833 0.0
C1732 C 0.16462 0.01229 0.99499 0.0
C1733 C 0.16379 0.01589 0.98626 0.0
C1734 C 0.13486 0.98371 0.99608 0.0
C1735 C 0.17542 0.01987 1.00069 0.0
C1736 C 0.14519 0.00218 0.022 0.0
C1737 C 0.15369 0.99106 0.02524 0.0
C1738 C 0.14576 0.00594 0.0133 0.0
C1739 C 0.15515 0.9985 0.00767 0.0
C1740 C 0.16408 0.98753 0.01092 0.0
C1741 C 0.16322 0.98392 0.01966 0.0
C1742 C 0.13606 0.0177 0.0101 0.0
C1743 C 0.17428 0.97939 0.00513 0.0
H1744 H 0.13703 0.99328 0.97986 0.0
H1745 H 0.17077 0.02418 0.98378 0.0
H1746 H 0.14116 0.97516 0.99922 0.0
H1747 H 0.12746 0.98828 1.001 0.0
H1748 H 0.12804 0.97906 0.9909 0.0
H1749 H 0.18259 0.02716 0.99703 0.0
H1750 H 0.16943 0.02601 0.00563 0.0
H1751 H 0.18243 0.01216 0.00413 0.0
H1752 H 0.13801 0.00794 0.02629 0.0
H1753 H 0.16972 0.97523 0.02206 0.0
H1754 H 0.12825 0.01355 0.00526 0.0
H1755 H 0.14278 0.02588 0.00689 0.0
H1756 H 0.1297 0.02273 0.01535 0.0
H1757 H 0.16781 0.97356 1.00026 0.0
H1758 H 0.18112 0.97174 0.00874 0.0
H1759 H 0.18161 0.98671 1.00162 0.0
C1760 C 0.76743 0.40861 0.76934 0.0
C1761 C 0.75514 0.40763 0.77471 0.0
C1762 C 0.76589 0.40876 0.76037 0.0
C1763 C 0.75171 0.408 0.75669 0.0
C1764 C 0.73924 0.40736 0.76209 0.0
C1765 C 0.74111 0.40713 0.77103 0.0
C1766 C 0.77946 0.40933 0.75483 0.0
C1767 C 0.72394 0.40667 0.75842 0.0
C1768 C 0.74673 0.41876 0.73336 0.0
C1769 C 0.7464 0.40566 0.7292 0.0
C1770 C 0.74844 0.4197 0.7423 0.0
C1771 C 0.74995 0.40725 0.74721 0.0
C1772 C 0.74969 0.394 0.74306 0.0
C1773 C 0.74786 0.39336 0.73413 0.0
C1774 C 0.74861 0.43402 0.7465 0.0
C1775 C 0.75129 0.38047 0.74806 0.0
H1776 H 0.77831 0.40884 0.77214 0.0
H1777 H 0.73157 0.40654 0.77516 0.0
H1778 H 0.78031 0.39955 0.75097 0.0
H1779 H 0.77873 0.41825 0.75026 0.0
H1780 H 0.78964 0.41051 0.75868 0.0
H1781 H 0.71537 0.40688 0.76349 0.0
H1782 H 0.72207 0.41563 0.75399 0.0
H1783 H 0.72262 0.39687 0.75463 0.0
H1784 H 0.74579 0.42832 0.72961 0.0
H1785 H 0.74735 0.38318 0.73101 0.0
H1786 H 0.75914 0.43561 0.74994 0.0
H1787 H 0.73973 0.43471 0.75135 0.0
H1788 H 0.74718 0.44268 0.74179 0.0
H1789 H 0.76172 0.38056 0.75172 0.0
H1790 H 0.75115 0.37104 0.74385 0.0
H1791 H 0.74224 0.37952 0.75278 0.0
C1792 C 0.971 0.50826 0.07138 0.0
C1793 C 0.96264 0.49639 0.07351 0.0
C1794 C 0.98636 0.50768 0.07128 0.0
C1795 C 0.99354 0.49497 0.07347 0.0
C1796 C 0.98517 0.48312 0.076 0.0
C1797 C 0.96979 0.48394 0.07591 0.0
C1798 C 0.99487 0.5205 0.06844 0.0
C1799 C 0.99245 0.46947 0.07852 0.0
C1800 C 0.03081 0.49003 0.06314 0.0
C1801 C 0.04032 0.49474 0.06961 0.0
C1802 C 0.0156 0.48964 0.06442 0.0
C1803 C 0.00972 0.49385 0.07242 0.0
C1804 C 0.01927 0.49793 0.07914 0.0
C1805 C 0.03446 0.49841 0.07764 0.0
C1806 C 0.0058 0.48526 0.05707 0.0
C1807 C 0.01341 0.50228 0.0878 0.0
H1808 H 0.96551 0.51785 0.06941 0.0
H1809 H 0.96333 0.47478 0.07764 0.0
H1810 H 0.00328 0.52327 0.0733 0.0
H1811 H 0.00072 0.51816 0.06236 0.0
H1812 H 0.98768 0.52978 0.0674 0.0
H1813 H 0.9845 0.46176 0.08117 0.0
H1814 H 0.99783 0.46472 0.07284 0.0
H1815 H 0.00112 0.47143 0.08337 0.0
H1816 H 0.03525 0.48684 0.05699 0.0
H1817 H 0.04168 0.50214 0.08267 0.0
H1818 H 0.99875 0.49424 0.05514 0.0
H1819 H 0.99844 0.47659 0.05911 0.0
H1820 H 0.01214 0.48172 0.05138 0.0
H1821 H 0.00743 0.5124 0.08719 0.0
H1822 H 0.02229 0.50361 0.09261 0.0
H1823 H 0.00549 0.49435 0.09022 0.0
C1824 C 0.75267 0.76962 0.31416 0.0
C1825 C 0.7543 0.77859 0.32124 0.0
C1826 C 0.7529 0.75496 0.31513 0.0
C1827 C 0.75479 0.74908 0.3234 0.0
C1828 C 0.75645 0.75805 0.3306 0.0
C1829 C 0.75614 0.77272 0.32943 0.0
C1830 C 0.751 0.74577 0.3073 0.0
C1831 C 0.75854 0.75214 0.3395 0.0
C1832 C 0.74138 0.71141 0.32515 0.0
C1833 C 0.75431 0.70383 0.32362 0.0
C1834 C 0.74149 0.72617 0.32556 0.0
C1835 C 0.75486 0.73351 0.32442 0.0
C1836 C 0.76807 0.72588 0.32336 0.0
C1837 C 0.76763 0.71113 0.32295 0.0
C1838 C 0.72716 0.73391 0.3267 0.0
C1839 C 0.78257 0.73331 0.3222 0.0
H1840 H 0.75096 0.77407 0.30784 0.0
H1841 H 0.75751 0.77961 0.33492 0.0
H1842 H 0.76062 0.73873 0.30657 0.0
H1843 H 0.74119 0.73898 0.30807 0.0
H1844 H 0.74973 0.75201 0.30132 0.0
H1845 H 0.75977 0.76053 0.34441 0.0
H1846 H 0.74903 0.74546 0.34125 0.0
H1847 H 0.76841 0.74533 0.33967 0.0
H1848 H 0.73102 0.70586 0.3256 0.0
H1849 H 0.77769 0.7053 0.3219 0.0
H1850 H 0.72429 0.7394 0.32065 0.0
H1851 H 0.7282 0.74205 0.33177 0.0
H1852 H 0.71803 0.72671 0.32842 0.0
H1853 H 0.78266 0.73883 0.31592 0.0
H1854 H 0.79198 0.7259 0.32239 0.0
H1855 H 0.78411 0.74139 0.32726 0.0
C1856 C 0.53212 0.50793 0.57866 0.0
C1857 C 0.5383 0.50566 0.57053 0.0
C1858 C 0.51682 0.50832 0.57977 0.0
C1859 C 0.50753 0.50633 0.57259 0.0
C1860 C 0.51373 0.50405 0.56438 0.0
C1861 C 0.529 0.50374 0.56345 0.0
C1862 C 0.51059 0.51084 0.58861 0.0
C1863 C 0.50422 0.50179 0.55656 0.0
C1864 C 0.46834 0.49339 0.57447 0.0
C1865 C 0.46039 0.50566 0.57264 0.0
C1866 C 0.48371 0.4936 0.57494 0.0
C1867 C 0.4913 0.50639 0.57356 0.0
C1868 C 0.4833 0.51896 0.57219 0.0
C1869 C 0.46794 0.51844 0.57173 0.0
C1870 C 0.49183 0.47996 0.5764 0.0
C1871 C 0.49099 0.53284 0.57077 0.0
H1872 H 0.53925 0.50951 0.58414 0.0
H1873 H 0.53369 0.50173 0.55718 0.0
H1874 H 0.50342 0.52027 0.58854 0.0
H1875 H 0.50368 0.50178 0.59055 0.0
H1876 H 0.51929 0.51239 0.59351 0.0
H1877 H 0.51077 0.50027 0.55062 0.0
H1878 H 0.49717 0.4924 0.5575 0.0
H1879 H 0.49686 0.51095 0.55562 0.0
H1880 H 0.4626 0.48346 0.57511 0.0
H1881 H 0.46183 0.52799 0.57044 0.0
H1882 H 0.50024 0.48128 0.58148 0.0
H1883 H 0.49763 0.47688 0.57043 0.0
H1884 H 0.48435 0.47126 0.57828 0.0
H1885 H 0.49938 0.53462 0.57581 0.0
H1886 H 0.48323 0.54184 0.57076 0.0
H1887 H 0.49677 0.53262 0.5645 0.0
C1888 C 0.73151 0.22928 0.82336 0.0
C1889 C 0.74501 0.22221 0.82364 0.0
C1890 C 0.73082 0.24402 0.82378 0.0
C1891 C 0.74396 0.25188 0.82446 0.0
C1892 C 0.75755 0.24478 0.82518 0.0
C1893 C 0.75791 0.23003 0.82477 0.0
C1894 C 0.7161 0.2512 0.82307 0.0
C1895 C 0.77181 0.25278 0.82589 0.0
C1896 C 0.74486 0.28812 0.81429 0.0
C1897 C 0.74389 0.29701 0.82146 0.0
C1898 C 0.74475 0.27345 0.81521 0.0
C1899 C 0.74365 0.26746 0.8235 0.0
C1900 C 0.74257 0.27634 0.83077 0.0
C1901 C 0.74274 0.29103 0.82966 0.0
C1902 C 0.74602 0.26436 0.80728 0.0
C1903 C 0.74131 0.27032 0.8397 0.0
H1904 H 0.72148 0.22327 0.82261 0.0
H1905 H 0.76839 0.22466 0.82492 0.0
H1906 H 0.71486 0.25922 0.82819 0.0
H1907 H 0.71535 0.25675 0.81682 0.0
H1908 H 0.70686 0.24362 0.82352 0.0
H1909 H 0.78124 0.24574 0.82726 0.0
H1910 H 0.77398 0.25842 0.81979 0.0
H1911 H 0.7711 0.26081 0.83104 0.0
H1912 H 0.74603 0.29265 0.80795 0.0
H1913 H 0.74188 0.29785 0.83522 0.0
H1914 H 0.73647 0.25716 0.80685 0.0
H1915 H 0.75601 0.25774 0.8077 0.0
H1916 H 0.74657 0.27068 0.8013 0.0
H1917 H 0.73166 0.26326 0.8401 0.0
H1918 H 0.74023 0.27865 0.84466 0.0
H1919 H 0.75114 0.26388 0.84118 0.0
C1920 C 0.9724 0.50363 0.94145 0.0
C1921 C 0.96293 0.50191 0.93443 0.0
C1922 C 0.98755 0.50508 0.94029 0.0
C1923 C 0.99344 0.505 0.93189 0.0
C1924 C 0.98392 0.50382 0.92475 0.0
C1925 C 0.96877 0.50223 0.9261 0.0
C1926 C 0.99731 0.50633 0.94809 0.0
C1927 C 0.98979 0.50383 0.91569 0.0
C1928 C 0.03254 0.51855 0.93058 0.0
C1929 C 0.04056 0.50597 0.931 0.0
C1930 C 0.01714 0.5184 0.93038 0.0
C1931 C 0.00962 0.50537 0.93071 0.0
C1932 C 0.01769 0.49264 0.93076 0.0
C1933 C 0.03305 0.4931 0.93087 0.0
C1934 C 0.00893 0.53218 0.93018 0.0
C1935 C 0.01009 0.47853 0.93118 0.0
H1936 H 0.96795 0.50373 0.9479 0.0
H1937 H 0.96155 0.50085 0.92064 0.0
H1938 H 0.00497 0.49726 0.94834 0.0
H1939 H 0.00405 0.51602 0.94768 0.0
H1940 H 0.99096 0.50661 0.95417 0.0
H1941 H 0.98088 0.50409 0.91083 0.0
H1942 H 0.99706 0.51305 0.91467 0.0
H1943 H 0.99649 0.49425 0.91462 0.0
H1944 H 0.03832 0.52852 0.93058 0.0
H1945 H 0.03919 0.48335 0.93129 0.0
H1946 H 0.00342 0.5339 0.93645 0.0
H1947 H 0.00026 0.53193 0.92519 0.0
H1948 H 0.0163 0.54125 0.92891 0.0
H1949 H 0.0044 0.47747 0.93744 0.0
H1950 H 0.01789 0.46962 0.93048 0.0
H1951 H 0.00165 0.47771 0.92609 0.0
C1952 C 0.74684 0.71453 0.19015 0.0
C1953 C 0.74545 0.70552 0.18307 0.0
C1954 C 0.74666 0.72918 0.18914 0.0
C1955 C 0.74509 0.73502 0.18083 0.0
C1956 C 0.74364 0.72601 0.17365 0.0
C1957 C 0.74387 0.71135 0.17484 0.0
C1958 C 0.74832 0.73842 0.19697 0.0
C1959 C 0.74189 0.73187 0.1647 0.0
C1960 C 0.73262 0.7731 0.18101 0.0
C1961 C 0.74604 0.78027 0.18049 0.0
C1962 C 0.73204 0.75834 0.18065 0.0
C1963 C 0.74521 0.75058 0.17977 0.0
C1964 C 0.75869 0.75779 0.17878 0.0
C1965 C 0.75894 0.77254 0.17915 0.0
C1966 C 0.71743 0.75106 0.18165 0.0
C1967 C 0.77297 0.7499 0.17785 0.0
H1968 H 0.74835 0.71012 0.1965 0.0
H1969 H 0.74268 0.70443 0.16936 0.0
H1970 H 0.75823 0.7451 0.19632 0.0
H1971 H 0.73875 0.74556 0.19755 0.0
H1972 H 0.74927 0.73221 0.20299 0.0
H1973 H 0.74068 0.72346 0.1598 0.0
H1974 H 0.73212 0.73881 0.16442 0.0
H1975 H 0.75155 0.73841 0.16303 0.0
H1976 H 0.72258 0.77902 0.18191 0.0
H1977 H 0.76937 0.77799 0.17882 0.0
H1978 H 0.71704 0.7456 0.18794 0.0
H1979 H 0.716 0.74294 0.1766 0.0
H1980 H 0.7081 0.75855 0.18131 0.0
H1981 H 0.77556 0.74442 0.18395 0.0
H1982 H 0.78225 0.757 0.17624 0.0
H1983 H 0.77205 0.74175 0.17278 0.0
C1984 C 0.46801 0.48357 0.42952 0.0
C1985 C 0.46047 0.49631 0.43059 0.0
C1986 C 0.4834 0.48322 0.42927 0.0
C1987 C 0.4914 0.49588 0.43025 0.0
C1988 C 0.48383 0.50883 0.43098 0.0
C1989 C 0.46845 0.50889 0.43111 0.0
C1990 C 0.49109 0.46923 0.42833 0.0
C1991 C 0.49195 0.52256 0.43211 0.0
C1992 C 0.52879 0.49496 0.44084 0.0
C1993 C 0.53822 0.49744 0.43389 0.0
C1994 C 0.51358 0.4941 0.43969 0.0
C1995 C 0.5076 0.49555 0.43135 0.0
C1996 C 0.51706 0.49746 0.42425 0.0
C1997 C 0.53227 0.49844 0.4256 0.0
C1998 C 0.50388 0.49205 0.44745 0.0
C1999 C 0.51109 0.49888 0.41525 0.0
H2000 H 0.46185 0.47384 0.42903 0.0
H2001 H 0.46268 0.51875 0.43203 0.0
H2002 H 0.49971 0.46988 0.42332 0.0
H2003 H 0.49659 0.46647 0.43445 0.0
H2004 H 0.48337 0.46063 0.42663 0.0
H2005 H 0.48448 0.5318 0.43194 0.0
H2006 H 0.49778 0.52252 0.43836 0.0
H2007 H 0.50033 0.52383 0.42702 0.0
H2008 H 0.53331 0.49383 0.44723 0.0
H2009 H 0.53946 0.50043 0.42019 0.0
H2010 H 0.49679 0.48268 0.44655 0.0
H2011 H 0.49656 0.50129 0.44822 0.0
H2012 H 0.51029 0.49068 0.45345 0.0
H2013 H 0.50345 0.4901 0.41381 0.0
H2014 H 0.51993 0.49896 0.41035 0.0
H2015 H 0.50476 0.50881 0.4147 0.0
C2016 C 0.74288 0.28876 0.67889 0.0
C2017 C 0.75596 0.2963 0.68007 0.0
C2018 C 0.74288 0.27401 0.67855 0.0
C2019 C 0.75627 0.2666 0.67941 0.0
C2020 C 0.76959 0.27417 0.68013 0.0
C2021 C 0.76927 0.28893 0.68047 0.0
C2022 C 0.72843 0.26633 0.67779 0.0
C2023 C 0.7841 0.26666 0.68098 0.0
C2024 C 0.7543 0.23062 0.68986 0.0
C2025 C 0.75523 0.22156 0.68278 0.0
C2026 C 0.75475 0.24526 0.68883 0.0
C2027 C 0.75615 0.25104 0.6805 0.0
C2028 C 0.75717 0.24198 0.67331 0.0
C2029 C 0.75666 0.22733 0.67453 0.0
C2030 C 0.75354 0.25455 0.69666 0.0
C2031 C 0.75874 0.24778 0.66434 0.0
H2032 H 0.73254 0.29437 0.67866 0.0
H2033 H 0.77943 0.29471 0.68126 0.0
H2034 H 0.72905 0.25816 0.67272 0.0
H2035 H 0.72597 0.26091 0.68393 0.0
H2036 H 0.71922 0.27357 0.67628 0.0
H2037 H 0.79355 0.27401 0.68052 0.0
H2038 H 0.78461 0.26124 0.68728 0.0
H2039 H 0.78523 0.2585 0.67593 0.0
H2040 H 0.75291 0.22626 0.69623 0.0
H2041 H 0.7575 0.22037 0.66904 0.0
H2042 H 0.74373 0.2614 0.69612 0.0
H2043 H 0.76325 0.26154 0.69711 0.0
H2044 H 0.75269 0.24838 0.7027 0.0
H2045 H 0.74913 0.25444 0.66275 0.0
H2046 H 0.75967 0.23932 0.65944 0.0
H2047 H 0.76861 0.25458 0.66394 0.0
C2048 C 0.23241 0.23063 0.68078 0.0
C2049 C 0.24587 0.22349 0.6805 0.0
C2050 C 0.23182 0.24538 0.68045 0.0
C2051 C 0.24501 0.25317 0.67985 0.0
C2052 C 0.25856 0.24601 0.67912 0.0
C2053 C 0.25883 0.23125 0.67945 0.0
C2054 C 0.21714 0.25263 0.68117 0.0
C2055 C 0.27287 0.25393 0.67849 0.0
C2056 C 0.24399 0.29241 0.67492 0.0
C2057 C 0.24513 0.29824 0.68317 0.0
C2058 C 0.24378 0.27775 0.67371 0.0
C2059 C 0.2448 0.26874 0.68093 0.0
C2060 C 0.2459 0.27457 0.68926 0.0
C2061 C 0.24606 0.28922 0.69027 0.0
C2062 C 0.24254 0.2719 0.66474 0.0
C2063 C 0.24708 0.26533 0.69712 0.0
H2064 H 0.22234 0.22467 0.68147 0.0
H2065 H 0.26928 0.22583 0.67931 0.0
H2066 H 0.21638 0.25807 0.68746 0.0
H2067 H 0.21598 0.26075 0.67611 0.0
H2068 H 0.20785 0.24512 0.68064 0.0
H2069 H 0.28227 0.24686 0.67708 0.0
H2070 H 0.27224 0.26207 0.6734 0.0
H2071 H 0.27506 0.25943 0.68464 0.0
H2072 H 0.24315 0.29933 0.66941 0.0
H2073 H 0.24722 0.29363 0.69665 0.0
H2074 H 0.23282 0.26491 0.66427 0.0
H2075 H 0.25232 0.26541 0.66324 0.0
H2076 H 0.24156 0.28032 0.65983 0.0
H2077 H 0.23749 0.25817 0.69749 0.0
H2078 H 0.24764 0.27153 0.70315 0.0
H2079 H 0.25704 0.25866 0.69667 0.0
C2080 C 0.24092 0.76794 0.17931 0.0
C2081 C 0.25372 0.77589 0.18048 0.0
C2082 C 0.24142 0.75319 0.179 0.0
C2083 C 0.25506 0.74622 0.17988 0.0
C2084 C 0.26811 0.7542 0.18059 0.0
C2085 C 0.26728 0.76894 0.1809 0.0
C2086 C 0.22725 0.74506 0.17823 0.0
C2087 C 0.28287 0.74716 0.18147 0.0
C2088 C 0.25424 0.71018 0.1903 0.0
C2089 C 0.2555 0.70116 0.18321 0.0
C2090 C 0.25423 0.72482 0.18928 0.0
C2091 C 0.25548 0.73066 0.18096 0.0
C2092 C 0.25685 0.72166 0.17376 0.0
C2093 C 0.25681 0.70699 0.17497 0.0
C2094 C 0.25269 0.73406 0.19712 0.0
C2095 C 0.25826 0.72751 0.1648 0.0
H2096 H 0.23039 0.77322 0.17906 0.0
H2097 H 0.27724 0.77505 0.18168 0.0
H2098 H 0.22816 0.73692 0.17316 0.0
H2099 H 0.22498 0.73954 0.18436 0.0
H2100 H 0.21779 0.75199 0.17673 0.0
H2101 H 0.29206 0.75481 0.18103 0.0
H2102 H 0.28354 0.74175 0.18776 0.0
H2103 H 0.28431 0.73905 0.17642 0.0
H2104 H 0.25294 0.70576 0.19667 0.0
H2105 H 0.25791 0.70008 0.16948 0.0
H2106 H 0.24264 0.74057 0.19658 0.0
H2107 H 0.26215 0.74136 0.19758 0.0
H2108 H 0.25206 0.72785 0.20315 0.0
H2109 H 0.24842 0.73385 0.16319 0.0
H2110 H 0.25953 0.71911 0.1599 0.0
H2111 H 0.26786 0.73465 0.16442 0.0
C2112 C 0.26702 0.22946 0.82324 0.0
C2113 C 0.25357 0.22234 0.82379 0.0
C2114 C 0.26765 0.24421 0.82355 0.0
C2115 C 0.25452 0.25203 0.82441 0.0
C2116 C 0.24101 0.24488 0.82544 0.0
C2117 C 0.2407 0.23013 0.82512 0.0
C2118 C 0.28229 0.25143 0.8225 0.0
C2119 C 0.22677 0.25283 0.82637 0.0
C2120 C 0.25609 0.29131 0.82918 0.0
C2121 C 0.25449 0.29706 0.82094 0.0
C2122 C 0.25624 0.27665 0.83044 0.0
C2123 C 0.2547 0.26758 0.82328 0.0
C2124 C 0.25311 0.27334 0.81496 0.0
C2125 C 0.253 0.28798 0.8139 0.0
C2126 C 0.258 0.27088 0.8394 0.0
C2127 C 0.25137 0.26403 0.80716 0.0
H2128 H 0.27703 0.22348 0.82235 0.0
H2129 H 0.23025 0.22472 0.82547 0.0
H2130 H 0.28268 0.25681 0.81619 0.0
H2131 H 0.28378 0.25959 0.82752 0.0
H2132 H 0.29159 0.2439 0.82286 0.0
H2133 H 0.21747 0.24579 0.82802 0.0
H2134 H 0.22775 0.26104 0.8314 0.0
H2135 H 0.22417 0.25825 0.82025 0.0
H2136 H 0.25736 0.29827 0.83464 0.0
H2137 H 0.25148 0.29233 0.80753 0.0
H2138 H 0.26775 0.26391 0.8397 0.0
H2139 H 0.24832 0.26438 0.84111 0.0
H2140 H 0.25925 0.27934 0.84426 0.0
H2141 H 0.26091 0.25684 0.8066 0.0
H2142 H 0.25043 0.27018 0.80113 0.0
H2143 H 0.24143 0.2574 0.80786 0.0
C2144 C 0.24476 0.71199 0.31381 0.0
C2145 C 0.24366 0.703 0.32092 0.0
C2146 C 0.24504 0.72664 0.31483 0.0
C2147 C 0.24424 0.7325 0.32316 0.0
C2148 C 0.24303 0.72353 0.33038 0.0
C2149 C 0.24278 0.70886 0.32917 0.0
C2150 C 0.24641 0.73584 0.30696 0.0
C2151 C 0.2421 0.72942 0.33936 0.0
C2152 C 0.25958 0.76953 0.32455 0.0
C2153 C 0.24688 0.77769 0.32355 0.0
C2154 C 0.25881 0.75479 0.32489 0.0
C2155 C 0.24501 0.74805 0.32423 0.0
C2156 C 0.23209 0.75626 0.3237 0.0
C2157 C 0.23318 0.77099 0.32335 0.0
C2158 C 0.27285 0.74641 0.32547 0.0
C2159 C 0.21716 0.74948 0.32305 0.0
H2160 H 0.24572 0.70755 0.30743 0.0
H2161 H 0.24181 0.70198 0.33469 0.0
H2162 H 0.23707 0.74331 0.30665 0.0
H2163 H 0.2566 0.74217 0.30734 0.0
H2164 H 0.24664 0.72962 0.30092 0.0
H2165 H 0.24085 0.72104 0.34427 0.0
H2166 H 0.25214 0.73555 0.34082 0.0
H2167 H 0.23267 0.73674 0.33986 0.0
H2168 H 0.27022 0.77462 0.32463 0.0
H2169 H 0.22331 0.77726 0.3227 0.0
H2170 H 0.27476 0.74085 0.31931 0.0
H2171 H 0.272 0.7383 0.33056 0.0
H2172 H 0.2825 0.75319 0.32683 0.0
H2173 H 0.21611 0.74408 0.31676 0.0
H2174 H 0.20814 0.75728 0.32363 0.0
H2175 H 0.21579 0.74139 0.32811 0.0
C2176 C 0.46929 0.0024 0.57222 0.0
C2177 C 0.46154 0.01513 0.5718 0.0
C2178 C 0.48466 0.00223 0.57261 0.0
C2179 C 0.49248 0.0151 0.57256 0.0
C2180 C 0.48469 0.02799 0.57257 0.0
C2181 C 0.46931 0.02786 0.5722 0.0
C2182 C 0.49255 0.98826 0.57266 0.0
C2183 C 0.49262 0.04194 0.5725 0.0
C2184 C 0.53329 0.01528 0.57774 0.0
C2185 C 0.53948 0.01517 0.5695 0.0
C2186 C 0.51799 0.01522 0.57887 0.0
C2187 C 0.50871 0.01508 0.57159 0.0
C2188 C 0.51492 0.01499 0.56326 0.0
C2189 C 0.5302 0.01506 0.56233 0.0
C2190 C 0.51175 0.01528 0.58784 0.0
C2191 C 0.50541 0.01491 0.55532 0.0
H2192 H 0.46332 0.99254 0.57204 0.0
H2193 H 0.46341 0.03773 0.5718 0.0
H2194 H 0.4984 0.98681 0.56648 0.0
H2195 H 0.50091 0.98803 0.57783 0.0
H2196 H 0.48492 0.97928 0.57358 0.0
H2197 H 0.48502 0.05096 0.5734 0.0
H2198 H 0.50104 0.04225 0.57763 0.0
H2199 H 0.49838 0.04328 0.56629 0.0
H2200 H 0.5404 0.01526 0.58331 0.0
H2201 H 0.53489 0.01524 0.55594 0.0
H2202 H 0.50477 0.00586 0.58882 0.0
H2203 H 0.50466 0.02465 0.58875 0.0
H2204 H 0.52045 0.01538 0.59283 0.0
H2205 H 0.49815 0.00555 0.55537 0.0
H2206 H 0.51197 0.01478 0.54932 0.0
H2207 H 0.49826 0.02436 0.55526 0.0
C2208 C 0.03006 0.97441 0.07314 0.0
C2209 C 0.03788 0.98704 0.07223 0.0
C2210 C 0.01468 0.97436 0.07347 0.0
C2211 C 0.00694 0.98724 0.07287 0.0
C2212 C 0.0148 1.00007 0.07243 0.0
C2213 C 0.03017 0.99981 0.07211 0.0
C2214 C 0.0067 0.96046 0.07395 0.0
C2215 C 0.00696 0.01403 0.07185 0.0
C2216 C 0.96946 0.98651 0.06235 0.0
C2217 C 0.96001 0.9874 0.06943 0.0
C2218 C 0.98471 0.98642 0.06342 0.0
C2219 C 0.99073 0.98721 0.07178 0.0
C2220 C 0.98128 0.98801 0.07897 0.0
C2221 C 0.96601 0.98807 0.07771 0.0
C2222 C 0.9944 0.98548 0.05557 0.0
C2223 C 0.98731 0.98889 0.08798 0.0
H2224 H 0.03592 0.96449 0.07316 0.0
H2225 H 0.03617 0.00962 0.07156 0.0
H2226 H 0.99812 0.9608 0.07899 0.0
H2227 H 0.00113 0.95837 0.06775 0.0
H2228 H 0.01424 0.95157 0.07534 0.0
H2229 H 0.01461 0.02308 0.07244 0.0
H2230 H 0.00124 0.01481 0.06559 0.0
H2231 H 0.99851 0.01487 0.07695 0.0
H2232 H 0.96491 0.98571 0.05595 0.0
H2233 H 0.95876 0.98885 0.0832 0.0
H2234 H 0.0015 0.97602 0.056 0.0
H2235 H 0.00171 0.99479 0.05525 0.0
H2236 H 0.98798 0.9849 0.04953 0.0
H2237 H 0.99442 0.97967 0.0893 0.0
H2238 H 0.9785 0.98927 0.09289 0.0
H2239 H 0.99424 0.99842 0.08864 0.0
C2240 C 0.53186 0.99747 0.43179 0.0
C2241 C 0.53953 0.9847 0.43231 0.0
C2242 C 0.51649 0.99772 0.43132 0.0
C2243 C 0.5086 0.98489 0.43139 0.0
C2244 C 0.51631 0.97196 0.43146 0.0
C2245 C 0.53168 0.97202 0.43191 0.0
C2246 C 0.50868 0.01173 0.43119 0.0
C2247 C 0.5083 0.95805 0.43155 0.0
C2248 C 0.47083 0.98532 0.44156 0.0
C2249 C 0.46157 0.98521 0.43437 0.0
C2250 C 0.48612 0.98523 0.44065 0.0
C2251 C 0.49236 0.98501 0.43233 0.0
C2252 C 0.48311 0.98485 0.42504 0.0
C2253 C 0.4678 0.98493 0.42614 0.0
C2254 C 0.49559 0.98533 0.4486 0.0
C2255 C 0.48938 0.98465 0.41608 0.0
H2256 H 0.53788 0.0073 0.43196 0.0
H2257 H 0.53752 0.96211 0.43238 0.0
H2258 H 0.50036 0.01194 0.426 0.0
H2259 H 0.50282 0.0133 0.43735 0.0
H2260 H 0.51638 0.02066 0.43024 0.0
H2261 H 0.51585 0.94899 0.43068 0.0
H2262 H 0.50251 0.95678 0.43776 0.0
H2263 H 0.49989 0.95775 0.42641 0.0
H2264 H 0.46611 0.98526 0.44794 0.0
H2265 H 0.4607 0.98494 0.42056 0.0
H2266 H 0.5029 0.99466 0.44855 0.0
H2267 H 0.50269 0.97585 0.44871 0.0
H2268 H 0.489 0.98554 0.4546 0.0
H2269 H 0.4964 0.99404 0.41506 0.0
H2270 H 0.48071 0.98451 0.41107 0.0
H2271 H 0.49645 0.97525 0.41523 0.0
C2272 C 0.03121 0.00121 0.93206 0.0
C2273 C 0.03877 0.01404 0.9326 0.0
C2274 C 0.01585 0.00084 0.9316 0.0
C2275 C 0.00784 0.0136 0.93169 0.0
C2276 C 0.01544 0.0266 0.9318 0.0
C2277 C 0.03081 0.02666 0.93225 0.0
C2278 C 0.00816 0.98677 0.93142 0.0
C2279 C 0.00731 0.04044 0.93192 0.0
C2280 C 0.96713 0.01331 0.92624 0.0
C2281 C 0.96078 0.01298 0.93444 0.0
C2282 C 0.98245 0.01347 0.92521 0.0
C2283 C 0.99159 0.01335 0.93256 0.0
C2284 C 0.98523 0.01304 0.94084 0.0
C2285 C 0.96993 0.01288 0.94167 0.0
C2286 C 0.98886 0.01377 0.91629 0.0
C2287 C 0.99458 0.01295 0.94884 0.0
H2288 H 0.03732 0.99143 0.93219 0.0
H2289 H 0.03656 0.03662 0.93274 0.0
H2290 H 0.00222 0.98514 0.93755 0.0
H2291 H 0.99991 0.9865 0.92619 0.0
H2292 H 0.01594 0.9779 0.9305 0.0
H2293 H 0.01479 0.04957 0.93113 0.0
H2294 H 0.99897 0.04072 0.92674 0.0
H2295 H 0.00141 0.04159 0.93811 0.0
H2296 H 0.96013 0.01328 0.92062 0.0
H2297 H 0.96511 0.0129 0.94803 0.0
H2298 H 0.99601 0.00446 0.9153 0.0
H2299 H 0.99582 0.02325 0.91548 0.0
H2300 H 0.98026 0.01383 0.91124 0.0
H2301 H 0.00199 0.00369 0.94878 0.0
H2302 H 0.98791 0.01262 0.9548 0.0
H2303 H 0.00159 0.02249 0.94901 0.0
C2304 C 0.20579 0.58554 0.13323 0.0
C2305 C 0.20469 0.5825 0.14202 0.0
C2306 C 0.19824 0.57751 0.12709 0.0
C2307 C 0.18945 0.56606 0.1298 0.0
C2308 C 0.18875 0.56257 0.13862 0.0
C2309 C 0.19634 0.57086 0.14463 0.0
C2310 C 0.19929 0.58156 0.11775 0.0
C2311 C 0.17955 0.5504 0.14175 0.0
C2312 C 0.15715 0.55607 0.11569 0.0
C2313 C 0.16255 0.54428 0.11128 0.0
C2314 C 0.16579 0.56319 0.12174 0.0
C2315 C 0.18019 0.5584 0.12346 0.0
C2316 C 0.18572 0.54649 0.11906 0.0
C2317 C 0.17684 0.5396 0.11299 0.0
C2318 C 0.15952 0.57592 0.12624 0.0
C2319 C 0.20098 0.54102 0.12077 0.0
H2320 H 0.21245 0.59434 0.13113 0.0
H2321 H 0.19531 0.56849 0.1514 0.0
H2322 H 0.20264 0.57235 0.11384 0.0
H2323 H 0.18837 0.58498 0.1154 0.0
H2324 H 0.20724 0.59023 0.11665 0.0
H2325 H 0.18115 0.54833 0.14871 0.0
H2326 H 0.16778 0.55269 0.14061 0.0
H2327 H 0.18227 0.54071 0.13812 0.0
H2328 H 0.1462 0.55988 0.1143 0.0
H2329 H 0.18101 0.53042 0.10966 0.0
H2330 H 0.16641 0.58529 0.12488 0.0
H2331 H 0.15964 0.57426 0.13328 0.0
H2332 H 0.1481 0.57823 0.12421 0.0
H2333 H 0.20917 0.54933 0.11934 0.0
H2334 H 0.2036 0.53158 0.11686 0.0
H2335 H 0.20215 0.53829 0.12766 0.0
C2336 C 0.71188 0.90025 0.37083 0.0
C2337 C 0.70579 0.8988 0.36261 0.0
C2338 C 0.70464 0.9079 0.37727 0.0
C2339 C 0.69096 0.91428 0.37545 0.0
C2340 C 0.685 0.91329 0.36708 0.0
C2341 C 0.69248 0.90556 0.36076 0.0
C2342 C 0.71139 0.90878 0.3861 0.0
C2343 C 0.67045 0.91995 0.36488 0.0
C2344 C 0.66385 0.91977 0.39364 0.0
C2345 C 0.66517 0.93425 0.39523 0.0
C2346 C 0.67233 0.91314 0.38731 0.0
C2347 C 0.6824 0.92117 0.38243 0.0
C2348 C 0.68402 0.93574 0.38411 0.0
C2349 C 0.67539 0.9421 0.39051 0.0
C2350 C 0.67036 0.89756 0.38578 0.0
C2351 C 0.69462 0.94465 0.37903 0.0
H2352 H 0.72228 0.89526 0.37227 0.0
H2353 H 0.68761 0.90438 0.35446 0.0
H2354 H 0.71213 0.91991 0.3882 0.0
H2355 H 0.70432 0.90319 0.39079 0.0
H2356 H 0.72253 0.90405 0.38632 0.0
H2357 H 0.66784 0.91908 0.35793 0.0
H2358 H 0.66158 0.91476 0.36858 0.0
H2359 H 0.67046 0.93123 0.3667 0.0
H2360 H 0.65613 0.9136 0.39736 0.0
H2361 H 0.67637 0.95331 0.39165 0.0
H2362 H 0.68101 0.89205 0.38652 0.0
H2363 H 0.66655 0.89574 0.37911 0.0
H2364 H 0.66231 0.89277 0.39026 0.0
H2365 H 0.7058 0.9401 0.37939 0.0
H2366 H 0.69502 0.95569 0.38137 0.0
H2367 H 0.69136 0.94471 0.37217 0.0
C2368 C 0.32525 0.44842 0.6093 0.0
C2369 C 0.33404 0.45982 0.61182 0.0
C2370 C 0.31694 0.44087 0.61533 0.0
C2371 C 0.31748 0.44476 0.6241 0.0
C2372 C 0.32588 0.45658 0.62663 0.0
C2373 C 0.33402 0.46399 0.62046 0.0
C2374 C 0.30807 0.42837 0.61237 0.0
C2375 C 0.32671 0.46109 0.63591 0.0
C2376 C 0.28887 0.42982 0.63938 0.0
C2377 C 0.2964 0.41832 0.64291 0.0
C2378 C 0.29558 0.43858 0.63327 0.0
C2379 C 0.3102 0.43583 0.63069 0.0
C2380 C 0.31791 0.42437 0.63434 0.0
C2381 C 0.31091 0.41576 0.64039 0.0
C2382 C 0.28699 0.45064 0.62947 0.0
C2383 C 0.33356 0.42116 0.63184 0.0
H2384 H 0.3253 0.44503 0.60266 0.0
H2385 H 0.34057 0.47294 0.62243 0.0
H2386 H 0.31287 0.41856 0.61503 0.0
H2387 H 0.29666 0.42913 0.61479 0.0
H2388 H 0.30777 0.42746 0.60527 0.0
H2389 H 0.33288 0.47108 0.63674 0.0
H2390 H 0.31554 0.46247 0.63858 0.0
H2391 H 0.3322 0.45278 0.63973 0.0
H2392 H 0.27761 0.43177 0.64126 0.0
H2393 H 0.31685 0.40702 0.6432 0.0
H2394 H 0.28588 0.44916 0.62244 0.0
H2395 H 0.29293 0.46069 0.6305 0.0
H2396 H 0.27585 0.45157 0.63231 0.0
H2397 H 0.33417 0.41892 0.62486 0.0
H2398 H 0.33808 0.412 0.63538 0.0
H2399 H 0.34061 0.43045 0.6331 0.0
C2400 C 0.84023 0.06025 0.88449 0.0
C2401 C 0.83764 0.0623 0.89328 0.0
C2402 C 0.8322 0.06764 0.87826 0.0
C2403 C 0.82125 0.07727 0.88087 0.0
C2404 C 0.81818 0.079 0.88972 0.0
C2405 C 0.82642 0.07151 0.89582 0.0
C2406 C 0.83579 0.06546 0.86889 0.0
C2407 C 0.80654 0.08914 0.89276 0.0
C2408 C 0.81272 0.10785 0.86599 0.0
C2409 C 0.79966 0.10345 0.86207 0.0
C2410 C 0.81982 0.09943 0.8721 0.0
C2411 C 0.81372 0.08624 0.87438 0.0
C2412 C 0.80058 0.08167 0.87041 0.0
C2413 C 0.79372 0.09032 0.86428 0.0
C2414 C 0.83389 0.10464 0.87612 0.0
C2415 C 0.79372 0.06771 0.87269 0.0
H2416 H 0.84869 0.05296 0.88246 0.0
H2417 H 0.82442 0.07325 0.90259 0.0
H2418 H 0.82571 0.06277 0.86526 0.0
H2419 H 0.84019 0.07536 0.86614 0.0
H2420 H 0.84399 0.05697 0.8679 0.0
H2421 H 0.80469 0.08844 0.89979 0.0
H2422 H 0.80986 0.10006 0.89117 0.0
H2423 H 0.79602 0.08706 0.88941 0.0
H2424 H 0.81749 0.11789 0.86422 0.0
H2425 H 0.78356 0.08691 0.86134 0.0
H2426 H 0.84289 0.09708 0.87483 0.0
H2427 H 0.8326 0.10534 0.88319 0.0
H2428 H 0.83718 0.11514 0.87365 0.0
H2429 H 0.8016 0.05905 0.87146 0.0
H2430 H 0.78354 0.06564 0.86899 0.0
H2431 H 0.79106 0.06746 0.87964 0.0
C2432 C 0.17817 0.4618 0.88988 0.0
C2433 C 0.16514 0.45551 0.89274 0.0
C2434 C 0.18726 0.455 0.88389 0.0
C2435 C 0.18326 0.44156 0.88074 0.0
C2436 C 0.17022 0.43509 0.8837 0.0
C2437 C 0.16133 0.44214 0.88964 0.0
C2438 C 0.20103 0.46227 0.88085 0.0
C2439 C 0.16563 0.42071 0.88055 0.0
C2440 C 0.1974 0.42764 0.85944 0.0
C2441 C 0.20804 0.41792 0.86211 0.0
C2442 C 0.18965 0.43583 0.86542 0.0
C2443 C 0.19256 0.43421 0.87429 0.0
C2444 C 0.20365 0.4248 0.87701 0.0
C2445 C 0.21128 0.41681 0.8709 0.0
C2446 C 0.17795 0.4458 0.86226 0.0
C2447 C 0.2071 0.4228 0.88641 0.0
H2448 H 0.18109 0.47219 0.8922 0.0
H2449 H 0.15139 0.43713 0.89193 0.0
H2450 H 0.21072 0.4555 0.88209 0.0
H2451 H 0.20045 0.464 0.87382 0.0
H2452 H 0.20276 0.47257 0.88406 0.0
H2453 H 0.15527 0.41706 0.88357 0.0
H2454 H 0.1641 0.42091 0.87349 0.0
H2455 H 0.17436 0.41291 0.88196 0.0
H2456 H 0.19471 0.42848 0.85269 0.0
H2457 H 0.21967 0.40951 0.87301 0.0
H2458 H 0.17958 0.45641 0.86506 0.0
H2459 H 0.16702 0.44202 0.86437 0.0
H2460 H 0.17789 0.44672 0.85515 0.0
H2461 H 0.20936 0.43311 0.88949 0.0
H2462 H 0.2167 0.4158 0.88744 0.0
H2463 H 0.19748 0.41816 0.88972 0.0
C2464 C 0.78894 0.90691 0.13497 0.0
C2465 C 0.79699 0.9011 0.14178 0.0
C2466 C 0.79585 0.91489 0.12855 0.0
C2467 C 0.8112 0.91703 0.12891 0.0
C2468 C 0.81935 0.91138 0.13584 0.0
C2469 C 0.81215 0.90352 0.14219 0.0
C2470 C 0.78676 0.92085 0.12132 0.0
C2471 C 0.83575 0.91337 0.13643 0.0
C2472 C 0.83211 0.92478 0.10834 0.0
C2473 C 0.83471 0.93927 0.10907 0.0
C2474 C 0.82428 0.91746 0.11469 0.0
C2475 C 0.81885 0.92482 0.12192 0.0
C2476 C 0.82114 0.93952 0.1226 0.0
C2477 C 0.82908 0.94656 0.11617 0.0
C2478 C 0.82213 0.90177 0.11376 0.0
C2479 C 0.81541 0.94776 0.13017 0.0
H2480 H 0.7772 0.90522 0.13467 0.0
H2481 H 0.81846 0.89891 0.14737 0.0
H2482 H 0.78841 0.9324 0.12087 0.0
H2483 H 0.79037 0.91624 0.11513 0.0
H2484 H 0.77487 0.91871 0.12215 0.0
H2485 H 0.84042 0.90864 0.14235 0.0
H2486 H 0.84114 0.90848 0.13079 0.0
H2487 H 0.83849 0.92474 0.13633 0.0
H2488 H 0.83658 0.91905 0.10293 0.0
H2489 H 0.83091 0.95779 0.11672 0.0
H2490 H 0.8103 0.89914 0.11408 0.0
H2491 H 0.82762 0.89623 0.11914 0.0
H2492 H 0.82663 0.89769 0.10762 0.0
H2493 H 0.80342 0.94612 0.13085 0.0
H2494 H 0.81757 0.95922 0.12955 0.0
H2495 H 0.82063 0.94393 0.13616 0.0
C2496 C 0.28857 0.57023 0.36325 0.0
C2497 C 0.29445 0.58344 0.36118 0.0
C2498 C 0.29557 0.56137 0.36921 0.0
C2499 C 0.3088 0.56581 0.37312 0.0
C2500 C 0.31482 0.5791 0.37101 0.0
C2501 C 0.30756 0.58775 0.36508 0.0
C2502 C 0.28878 0.54732 0.37134 0.0
C2503 C 0.32897 0.58418 0.37498 0.0
C2504 C 0.32242 0.55047 0.39418 0.0
C2505 C 0.33363 0.54146 0.39138 0.0
C2506 C 0.3138 0.55801 0.38829 0.0
C2507 C 0.31653 0.55659 0.37939 0.0
C2508 C 0.32744 0.54712 0.37651 0.0
C2509 C 0.33581 0.53963 0.38253 0.0
C2510 C 0.3022 0.56794 0.39161 0.0
C2511 C 0.33068 0.54529 0.36707 0.0
H2512 H 0.27837 0.56691 0.36031 0.0
H2513 H 0.31228 0.59785 0.36341 0.0
H2514 H 0.29661 0.53872 0.36986 0.0
H2515 H 0.28639 0.54675 0.37832 0.0
H2516 H 0.27846 0.54542 0.36774 0.0
H2517 H 0.33218 0.59479 0.37265 0.0
H2518 H 0.32788 0.58457 0.38206 0.0
H2519 H 0.33795 0.57669 0.37348 0.0
H2520 H 0.32072 0.55205 0.401 0.0
H2521 H 0.34425 0.53248 0.3803 0.0
H2522 H 0.29161 0.56601 0.38831 0.0
H2523 H 0.30545 0.57896 0.39022 0.0
H2524 H 0.3005 0.56686 0.39864 0.0
H2525 H 0.32047 0.54277 0.36352 0.0
H2526 H 0.33883 0.53683 0.36586 0.0
H2527 H 0.33502 0.55529 0.36441 0.0
C2528 C 0.65761 0.07652 0.61429 0.0
C2529 C 0.6631 0.06458 0.61009 0.0
C2530 C 0.66597 0.08367 0.62047 0.0
C2531 C 0.68021 0.07876 0.62251 0.0
C2532 C 0.68588 0.06677 0.61825 0.0
C2533 C 0.67727 0.05984 0.61207 0.0
C2534 C 0.65956 0.09649 0.62479 0.0
C2535 C 0.70099 0.0612 0.62029 0.0
C2536 C 0.70531 0.10569 0.63295 0.0
C2537 C 0.70357 0.10261 0.64171 0.0
C2538 C 0.69816 0.09772 0.62662 0.0
C2539 C 0.68909 0.08633 0.62908 0.0
C2540 C 0.68774 0.08281 0.63788 0.0
C2541 C 0.69496 0.09101 0.64409 0.0
C2542 C 0.69992 0.10181 0.61732 0.0
C2543 C 0.67821 0.07071 0.64076 0.0
H2544 H 0.64676 0.08038 0.6127 0.0
H2545 H 0.68153 0.05055 0.60889 0.0
H2546 H 0.6591 0.09483 0.63183 0.0
H2547 H 0.66667 0.10576 0.62362 0.0
H2548 H 0.64833 0.09895 0.62246 0.0
H2549 H 0.70384 0.05183 0.61637 0.0
H2550 H 0.70932 0.0695 0.61915 0.0
H2551 H 0.70163 0.0583 0.62717 0.0
H2552 H 0.71218 0.11445 0.63104 0.0
H2553 H 0.69345 0.08861 0.65083 0.0
H2554 H 0.68922 0.10537 0.61471 0.0
H2555 H 0.70342 0.09258 0.61347 0.0
H2556 H 0.70805 0.11039 0.61643 0.0
H2557 H 0.66656 0.07308 0.63932 0.0
H2558 H 0.67927 0.06861 0.64775 0.0
H2559 H 0.68113 0.061 0.6372 0.0
C2560 C 0.81088 0.42055 0.86075 0.0
C2561 C 0.79568 0.4185 0.86126 0.0
C2562 C 0.81834 0.42854 0.86694 0.0
C2563 C 0.8104 0.43471 0.87378 0.0
C2564 C 0.795 0.433 0.87421 0.0
C2565 C 0.78783 0.42485 0.86796 0.0
C2566 C 0.83479 0.43002 0.86629 0.0
C2567 C 0.78613 0.43955 0.88135 0.0
C2568 C 0.83167 0.44215 0.89424 0.0
C2569 C 0.83493 0.4565 0.89336 0.0
C2570 C 0.82349 0.435 0.88798 0.0
C2571 C 0.81835 0.4424 0.88069 0.0
C2572 C 0.8213 0.45697 0.87987 0.0
C2573 C 0.82962 0.46384 0.8862 0.0
C2574 C 0.82068 0.41944 0.88906 0.0
C2575 C 0.81587 0.46525 0.87223 0.0
H2576 H 0.81702 0.41553 0.85564 0.0
H2577 H 0.77605 0.42342 0.86833 0.0
H2578 H 0.83791 0.44131 0.86628 0.0
H2579 H 0.84006 0.42511 0.87197 0.0
H2580 H 0.83927 0.42501 0.86041 0.0
H2581 H 0.77417 0.43789 0.88049 0.0
H2582 H 0.78946 0.43495 0.88759 0.0
H2583 H 0.78832 0.45102 0.88168 0.0
H2584 H 0.83591 0.43639 0.8997 0.0
H2585 H 0.832 0.47496 0.88554 0.0
H2586 H 0.82589 0.41355 0.88372 0.0
H2587 H 0.80874 0.41726 0.88878 0.0
H2588 H 0.82504 0.41533 0.89523 0.0
H2589 H 0.82096 0.46113 0.86628 0.0
H2590 H 0.81844 0.47664 0.87277 0.0
H2591 H 0.80383 0.46399 0.87155 0.0
C2592 C 0.29139 0.09302 0.63807 0.0
C2593 C 0.29965 0.10338 0.6423 0.0
C2594 C 0.29777 0.08438 0.63178 0.0
C2595 C 0.31279 0.08608 0.6297 0.0
C2596 C 0.32122 0.09638 0.63404 0.0
C2597 C 0.31454 0.1049 0.64027 0.0
C2598 C 0.28842 0.07357 0.62726 0.0
C2599 C 0.33729 0.09845 0.63208 0.0
C2600 C 0.33452 0.05692 0.61892 0.0
C2601 C 0.33556 0.06187 0.61045 0.0
C2602 C 0.32674 0.06445 0.62519 0.0
C2603 C 0.31976 0.07723 0.62294 0.0
C2604 C 0.32026 0.08201 0.61434 0.0
C2605 C 0.32817 0.07428 0.6082 0.0
C2606 C 0.32641 0.05897 0.63428 0.0
C2607 C 0.31293 0.09557 0.61168 0.0
H2608 H 0.27984 0.09189 0.63955 0.0
H2609 H 0.32103 0.11275 0.6436 0.0
H2610 H 0.28807 0.07588 0.62029 0.0
H2611 H 0.29329 0.06294 0.62801 0.0
H2612 H 0.27701 0.07334 0.62975 0.0
H2613 H 0.34234 0.10679 0.63611 0.0
H2614 H 0.34334 0.08847 0.63313 0.0
H2615 H 0.3387 0.10135 0.62523 0.0
H2616 H 0.33998 0.04721 0.62068 0.0
H2617 H 0.32902 0.07826 0.6017 0.0
H2618 H 0.31494 0.05829 0.63661 0.0
H2619 H 0.33231 0.06638 0.63856 0.0
H2620 H 0.33158 0.04843 0.63486 0.0
H2621 H 0.30129 0.0956 0.61375 0.0
H2622 H 0.31336 0.09726 0.60463 0.0
H2623 H 0.3184 0.10457 0.61489 0.0
C2624 C 0.70051 0.58694 0.36957 0.0
C2625 C 0.70674 0.58117 0.36213 0.0
C2626 C 0.69286 0.57851 0.37545 0.0
C2627 C 0.69131 0.56393 0.37383 0.0
C2628 C 0.69773 0.55797 0.3664 0.0
C2629 C 0.70538 0.56666 0.36064 0.0
C2630 C 0.68617 0.58527 0.38329 0.0
C2631 C 0.6963 0.54246 0.36447 0.0
C2632 C 0.68027 0.54112 0.39282 0.0
C2633 C 0.66503 0.54013 0.39169 0.0
C2634 C 0.68903 0.54854 0.38694 0.0
C2635 C 0.68241 0.5551 0.37976 0.0
C2636 C 0.66711 0.55383 0.37847 0.0
C2637 C 0.65861 0.54642 0.38446 0.0
C2638 C 0.70533 0.54965 0.38852 0.0
C2639 C 0.65962 0.56067 0.3709 0.0
H2640 H 0.70129 0.59817 0.37072 0.0
H2641 H 0.71031 0.56208 0.35496 0.0
H2642 H 0.67406 0.58419 0.38308 0.0
H2643 H 0.69002 0.57986 0.38918 0.0
H2644 H 0.68892 0.59663 0.38381 0.0
H2645 H 0.70239 0.53937 0.35859 0.0
H2646 H 0.70046 0.53616 0.36994 0.0
H2647 H 0.68457 0.53971 0.3636 0.0
H2648 H 0.68535 0.53614 0.39832 0.0
H2649 H 0.64683 0.54591 0.3836 0.0
H2650 H 0.70835 0.56081 0.38963 0.0
H2651 H 0.71148 0.54601 0.3828 0.0
H2652 H 0.70889 0.54336 0.39416 0.0
H2653 H 0.66074 0.57227 0.37134 0.0
H2654 H 0.64778 0.55801 0.37055 0.0
H2655 H 0.66495 0.55732 0.36483 0.0
C2656 C 0.15811 0.92214 0.11344 0.0
C2657 C 0.16247 0.93517 0.11007 0.0
C2658 C 0.16676 0.91502 0.11948 0.0
C2659 C 0.18014 0.92106 0.12225 0.0
C2660 C 0.18471 0.93415 0.11882 0.0
C2661 C 0.17584 0.94104 0.11275 0.0
C2662 C 0.16155 0.90102 0.12292 0.0
C2663 C 0.19887 0.94094 0.12164 0.0
C2664 C 0.19416 0.90745 0.14367 0.0
C2665 C 0.20425 0.89715 0.14108 0.0
C2666 C 0.18666 0.91572 0.13762 0.0
C2667 C 0.18925 0.91359 0.12875 0.0
C2668 C 0.1998 0.90358 0.1261 0.0
C2669 C 0.2072 0.89552 0.13229 0.0
C2670 C 0.17553 0.92633 0.14071 0.0
C2671 C 0.20291 0.90101 0.11672 0.0
H2672 H 0.14791 0.91744 0.1113 0.0
H2673 H 0.1792 0.95116 0.11022 0.0
H2674 H 0.16985 0.89277 0.12158 0.0
H2675 H 0.16022 0.90163 0.12998 0.0
H2676 H 0.15094 0.89771 0.12005 0.0
H2677 H 0.201 0.95102 0.11825 0.0
H2678 H 0.19854 0.94301 0.12864 0.0
H2679 H 0.2082 0.93371 0.12045 0.0
H2680 H 0.1917 0.90871 0.15043 0.0
H2681 H 0.21519 0.88778 0.13023 0.0
H2682 H 0.16437 0.92296 0.13874 0.0
H2683 H 0.1776 0.93673 0.13772 0.0
H2684 H 0.1757 0.92757 0.1478 0.0
H2685 H 0.19299 0.89667 0.11356 0.0
H2686 H 0.21212 0.89353 0.11573 0.0
H2687 H 0.20559 0.91106 0.11345 0.0
C2688 C 0.84087 0.54865 0.12035 0.0
C2689 C 0.83468 0.54252 0.113 0.0
C2690 C 0.83226 0.55623 0.1262 0.0
C2691 C 0.81705 0.55782 0.12465 0.0
C2692 C 0.81066 0.55151 0.11732 0.0
C2693 C 0.81955 0.54392 0.11159 0.0
C2694 C 0.8395 0.56281 0.13394 0.0
C2695 C 0.79449 0.55296 0.11546 0.0
C2696 C 0.79354 0.56913 0.14359 0.0
C2697 C 0.79253 0.58372 0.14229 0.0
C2698 C 0.80122 0.56051 0.13781 0.0
C2699 C 0.80803 0.5666 0.13054 0.0
C2700 C 0.80679 0.58126 0.12909 0.0
C2701 C 0.7991 0.58963 0.13499 0.0
C2702 C 0.80229 0.54492 0.13957 0.0
C2703 C 0.8139 0.58816 0.12142 0.0
H2704 H 0.85258 0.54783 0.12144 0.0
H2705 H 0.81464 0.53908 0.10598 0.0
H2706 H 0.83848 0.57443 0.13361 0.0
H2707 H 0.83392 0.55934 0.1399 0.0
H2708 H 0.85131 0.56007 0.13442 0.0
H2709 H 0.79111 0.54699 0.10966 0.0
H2710 H 0.78798 0.54918 0.12101 0.0
H2711 H 0.79171 0.56422 0.1145 0.0
H2712 H 0.78833 0.56445 0.14915 0.0
H2713 H 0.79859 0.6009 0.13398 0.0
H2714 H 0.81393 0.54195 0.1406 0.0
H2715 H 0.79831 0.53886 0.13395 0.0
H2716 H 0.79587 0.54173 0.1453 0.0
H2717 H 0.82598 0.58694 0.12181 0.0
H2718 H 0.81129 0.59956 0.12099 0.0
H2719 H 0.81025 0.58295 0.11542 0.0
C2720 C 0.16809 0.07635 0.89558 0.0
C2721 C 0.16556 0.06184 0.89482 0.0
C2722 C 0.17591 0.08374 0.88926 0.0
C2723 C 0.18139 0.07646 0.88201 0.0
C2724 C 0.17919 0.06175 0.8813 0.0
C2725 C 0.17127 0.05463 0.8877 0.0
C2726 C 0.17796 0.09943 0.89023 0.0
C2727 C 0.18498 0.05359 0.87372 0.0
C2728 C 0.18786 0.09796 0.86179 0.0
C2729 C 0.203 0.10049 0.8622 0.0
C2730 C 0.18074 0.08999 0.86813 0.0
C2731 C 0.18896 0.08434 0.87503 0.0
C2732 C 0.20429 0.08658 0.87538 0.0
C2733 C 0.21112 0.09466 0.86897 0.0
C2734 C 0.16436 0.08789 0.86755 0.0
C2735 C 0.21345 0.08063 0.88259 0.0
H2736 H 0.16356 0.08202 0.901 0.0
H2737 H 0.16951 0.04339 0.88713 0.0
H2738 H 0.18978 0.10214 0.88989 0.0
H2739 H 0.1724 0.10498 0.88488 0.0
H2740 H 0.17348 0.10345 0.89639 0.0
H2741 H 0.18292 0.0421 0.87432 0.0
H2742 H 0.17969 0.0574 0.86774 0.0
H2743 H 0.19695 0.05533 0.87302 0.0
H2744 H 0.18149 0.10258 0.85664 0.0
H2745 H 0.22285 0.09644 0.86927 0.0
H2746 H 0.15895 0.09272 0.8732 0.0
H2747 H 0.1617 0.0765 0.86763 0.0
H2748 H 0.15963 0.09262 0.86164 0.0
H2749 H 0.20984 0.08518 0.88879 0.0
H2750 H 0.22532 0.08285 0.88174 0.0
H2751 H 0.21188 0.06907 0.88301 0.0
C2752 C 0.68877 0.4207 0.64362 0.0
C2753 C 0.70395 0.41863 0.64296 0.0
C2754 C 0.68116 0.42881 0.63756 0.0
C2755 C 0.68894 0.4351 0.63069 0.0
C2756 C 0.70432 0.43336 0.63011 0.0
C2757 C 0.71164 0.42509 0.63623 0.0
C2758 C 0.66473 0.43033 0.63837 0.0
C2759 C 0.71301 0.44003 0.62294 0.0
C2760 C 0.66725 0.44314 0.61047 0.0
C2761 C 0.66415 0.4575 0.61149 0.0
C2762 C 0.67549 0.43579 0.61662 0.0
C2763 C 0.68084 0.44298 0.62393 0.0
C2764 C 0.67803 0.45755 0.6249 0.0
C2765 C 0.66965 0.46462 0.61869 0.0
C2766 C 0.67815 0.42023 0.61538 0.0
C2767 C 0.68369 0.46561 0.63257 0.0
H2768 H 0.68275 0.4156 0.64875 0.0
H2769 H 0.7234 0.42365 0.63575 0.0
H2770 H 0.66166 0.44162 0.6385 0.0
H2771 H 0.6593 0.42556 0.6327 0.0
H2772 H 0.6604 0.4252 0.64425 0.0
H2773 H 0.725 0.43829 0.62366 0.0
H2774 H 0.70947 0.43559 0.61669 0.0
H2775 H 0.7109 0.45152 0.62273 0.0
H2776 H 0.66286 0.43754 0.60498 0.0
H2777 H 0.66741 0.47575 0.61945 0.0
H2778 H 0.67306 0.41426 0.62072 0.0
H2779 H 0.69008 0.41798 0.61552 0.0
H2780 H 0.67358 0.41629 0.60922 0.0
H2781 H 0.67877 0.46133 0.63853 0.0
H2782 H 0.68112 0.47702 0.63217 0.0
H2783 H 0.69574 0.46432 0.63311 0.0
C2784 C 0.28869 0.90659 0.3685 0.0
C2785 C 0.2968 0.90044 0.36183 0.0
C2786 C 0.29559 0.91463 0.37491 0.0
C2787 C 0.31099 0.91649 0.37467 0.0
C2788 C 0.3192 0.9105 0.36787 0.0
C2789 C 0.31201 0.90259 0.36153 0.0
C2790 C 0.28644 0.92095 0.382 0.0
C2791 C 0.33565 0.91217 0.36741 0.0
C2792 C 0.32929 0.94596 0.38725 0.0
C2793 C 0.33465 0.93874 0.39445 0.0
C2794 C 0.32127 0.93893 0.38085 0.0
C2795 C 0.31862 0.92431 0.38165 0.0
C2796 C 0.32375 0.91702 0.38899 0.0
C2797 C 0.33166 0.92433 0.3953 0.0
C2798 C 0.31587 0.9471 0.37317 0.0
C2799 C 0.32121 0.90142 0.39006 0.0
H2800 H 0.27691 0.9051 0.36872 0.0
H2801 H 0.31837 0.89772 0.35646 0.0
H2802 H 0.28977 0.91642 0.38826 0.0
H2803 H 0.28833 0.93247 0.38235 0.0
H2804 H 0.27453 0.91902 0.38107 0.0
H2805 H 0.34038 0.90721 0.36158 0.0
H2806 H 0.33862 0.92349 0.36743 0.0
H2807 H 0.3408 0.90733 0.37314 0.0
H2808 H 0.33141 0.95713 0.3866 0.0
H2809 H 0.33592 0.91865 0.4008 0.0
H2810 H 0.30388 0.94564 0.37239 0.0
H2811 H 0.32118 0.94305 0.36726 0.0
H2812 H 0.31822 0.95853 0.37371 0.0
H2813 H 0.30933 0.89902 0.38964 0.0
H2814 H 0.32544 0.89741 0.39628 0.0
H2815 H 0.32673 0.89561 0.38479 0.0
loop_
_geom_bond_atom_site_label_1
_geom_bond_atom_site_label_2
_geom_bond_distance
_geom_bond_site_symmetry_2
_ccdc_geom_bond_type
C0 C1 1.264 . S
C0 C5 1.479 . S
C0 C10 1.465 . S
C1 C0 1.264 . S
C1 C3 1.339 . S
C1 H28 0.931 . S
C2 C3 1.395 . S
C2 C4 1.320 . S
C3 C1 1.339 . S
C3 C2 1.395 . S
C3 H29 0.929 . S
C4 C2 1.320 . S
C4 C5 1.405 . S
C4 H30 0.930 . S
C5 C0 1.479 . S
C5 C4 1.405 . S
C5 H31 0.931 . S
U6 O7 2.454 . S
U6 O8 2.458 . S
U6 C9 2.984 . S
U6 C10 2.847 . S
U6 C23 2.882 . S
U6 O24 2.441 . S
U6 O25 2.420 . S
U6 O26 2.455 . S
U6 O27 2.449 . S
O7 U6 2.454 . S
O7 C9 1.353 . S
O8 U6 2.458 . S
O8 C9 1.286 . S
C9 U6 2.984 . S
C9 O7 1.353 . S
C9 O8 1.286 . S
C9 C11 1.363 . S
C10 C0 1.465 . S
C10 U6 2.847 . S
C10 O24 1.249 . S
C10 O25 1.202 . S
C11 C9 1.363 . S
C11 C13 1.408 . S
C11 C16 1.342 . S
C12 C13 1.310 . S
C12 C15 1.461 . S
C12 H32 0.932 . S
C13 C11 1.408 . S
C13 C12 1.310 . S
C13 H33 0.930 . S
C14 C15 1.474 . S
C14 C16 1.285 . S
C14 H34 0.929 . S
C15 C12 1.461 . S
C15 C14 1.474 . S
C16 C11 1.342 . S
C16 C14 1.285 . S
C16 H35 0.930 . S
C17 C20 1.424 . S
C17 C22 1.245 . S
C17 C23 1.428 . S
C18 C21 1.260 . S
C18 C22 1.477 . S
C18 H36 0.932 . S
C19 C20 1.384 . S
C19 C21 1.479 . S
C19 H37 0.929 . S
C20 C17 1.424 . S
C20 C19 1.384 . S
C20 H38 0.928 . S
C21 C18 1.260 . S
C21 C19 1.479 . S
C22 C17 1.245 . S
C22 C18 1.477 . S
C22 H39 0.932 . S
C23 U6 2.882 . S
C23 C17 1.428 . S
C23 O26 1.301 . S
C23 O27 1.282 . S
O24 U6 2.441 . S
O24 C10 1.249 . S
O25 U6 2.420 . S
O25 C10 1.202 . S
O26 U6 2.455 . S
O26 C23 1.301 . S
O27 U6 2.449 . S
O27 C23 1.282 . S
H28 C1 0.931 . S
H29 C3 0.929 . S
H30 C4 0.930 . S
H31 C5 0.931 . S
H32 C12 0.932 . S
H33 C13 0.930 . S
H34 C14 0.929 . S
H35 C16 0.930 . S
H36 C18 0.932 . S
H37 C19 0.929 . S
H38 C20 0.928 . S
H39 C22 0.932 . S
C40 C41 1.264 . S
C40 C45 1.479 . S
C40 C50 1.465 . S
C41 C40 1.264 . S
C41 C43 1.339 . S
C41 H68 0.931 . S
C42 C43 1.395 . S
C42 C44 1.320 . S
C43 C41 1.339 . S
C43 C42 1.395 . S
C43 H69 0.929 . S
C44 C42 1.320 . S
C44 C45 1.405 . S
C44 H70 0.930 . S
C45 C40 1.479 . S
C45 C44 1.405 . S
C45 H71 0.931 . S
U46 O47 2.454 . S
U46 O48 2.458 . S
U46 C49 2.984 . S
U46 C50 2.847 . S
U46 C63 2.882 . S
U46 O64 2.441 . S
U46 O65 2.420 . S
U46 O66 2.455 . S
U46 O67 2.449 . S
O47 U46 2.454 . S
O47 C49 1.353 . S
O48 U46 2.458 . S
O48 C49 1.286 . S
C49 U46 2.984 . S
C49 O47 1.353 . S
C49 O48 1.286 . S
C49 C51 1.363 . S
C50 C40 1.465 . S
C50 U46 2.847 . S
C50 O64 1.249 . S
C50 O65 1.202 . S
C51 C49 1.363 . S
C51 C53 1.408 . S
C51 C56 1.342 . S
C52 C53 1.310 . S
C52 C55 1.461 . S
C52 H72 0.932 . S
C53 C51 1.408 . S
C53 C52 1.310 . S
C53 H73 0.930 . S
C54 C55 1.474 . S
C54 C56 1.285 . S
C54 H74 0.929 . S
C55 C52 1.461 . S
C55 C54 1.474 . S
C56 C51 1.342 . S
C56 C54 1.285 . S
C56 H75 0.930 . S
C57 C60 1.424 . S
C57 C62 1.245 . S
C57 C63 1.428 . S
C58 C61 1.260 . S
C58 C62 1.477 . S
C58 H76 0.932 . S
C59 C60 1.384 . S
C59 C61 1.479 . S
C59 H77 0.929 . S
C60 C57 1.424 . S
C60 C59 1.384 . S
C60 H78 0.928 . S
C61 C58 1.260 . S
C61 C59 1.479 . S
C62 C57 1.245 . S
C62 C58 1.477 . S
C62 H79 0.932 . S
C63 U46 2.882 . S
C63 C57 1.428 . S
C63 O66 1.301 . S
C63 O67 1.282 . S
O64 U46 2.441 . S
O64 C50 1.249 . S
O65 U46 2.420 . S
O65 C50 1.202 . S
O66 U46 2.455 . S
O66 C63 1.301 . S
O67 U46 2.449 . S
O67 C63 1.282 . S
H68 C41 0.931 . S
H69 C43 0.929 . S
H70 C44 0.930 . S
H71 C45 0.931 . S
H72 C52 0.932 . S
H73 C53 0.930 . S
H74 C54 0.929 . S
H75 C56 0.930 . S
H76 C58 0.932 . S
H77 C59 0.929 . S
H78 C60 0.928 . S
H79 C62 0.932 . S
C80 C81 1.264 . S
C80 C85 1.479 . S
C80 C90 1.465 . S
C81 C80 1.264 . S
C81 C83 1.339 . S
C81 H108 0.931 . S
C82 C83 1.395 . S
C82 C84 1.320 . S
C83 C81 1.339 . S
C83 C82 1.395 . S
C83 H109 0.929 . S
C84 C82 1.320 . S
C84 C85 1.405 . S
C84 H110 0.930 . S
C85 C80 1.479 . S
C85 C84 1.405 . S
C85 H111 0.931 . S
U86 O87 2.454 . S
U86 O88 2.458 . S
U86 C89 2.984 . S
U86 C90 2.847 . S
U86 C103 2.882 . S
U86 O104 2.441 . S
U86 O105 2.420 . S
U86 O106 2.455 . S
U86 O107 2.449 . S
O87 U86 2.454 . S
O87 C89 1.353 . S
O88 U86 2.458 . S
O88 C89 1.286 . S
C89 U86 2.984 . S
C89 O87 1.353 . S
C89 O88 1.286 . S
C89 C91 1.363 . S
C90 C80 1.465 . S
C90 U86 2.847 . S
C90 O104 1.249 . S
C90 O105 1.202 . S
C91 C89 1.363 . S
C91 C93 1.408 . S
C91 C96 1.342 . S
C92 C93 1.310 . S
C92 C95 1.461 . S
C92 H112 0.932 . S
C93 C91 1.408 . S
C93 C92 1.310 . S
C93 H113 0.930 . S
C94 C95 1.474 . S
C94 C96 1.285 . S
C94 H114 0.929 . S
C95 C92 1.461 . S
C95 C94 1.474 . S
C96 C91 1.342 . S
C96 C94 1.285 . S
C96 H115 0.930 . S
C97 C100 1.424 . S
C97 C102 1.245 . S
C97 C103 1.428 . S
C98 C101 1.260 . S
C98 C102 1.477 . S
C98 H116 0.932 . S
C99 C100 1.384 . S
C99 C101 1.479 . S
C99 H117 0.929 . S
C100 C97 1.424 . S
C100 C99 1.384 . S
C100 H118 0.928 . S
C101 C98 1.260 . S
C101 C99 1.479 . S
C102 C97 1.245 . S
C102 C98 1.477 . S
C102 H119 0.932 . S
C103 U86 2.882 . S
C103 C97 1.428 . S
C103 O106 1.301 . S
C103 O107 1.282 . S
O104 U86 2.441 . S
O104 C90 1.249 . S
O105 U86 2.420 . S
O105 C90 1.202 . S
O106 U86 2.455 . S
O106 C103 1.301 . S
O107 U86 2.449 . S
O107 C103 1.282 . S
H108 C81 0.931 . S
H109 C83 0.929 . S
H110 C84 0.930 . S
H111 C85 0.931 . S
H112 C92 0.932 . S
H113 C93 0.930 . S
H114 C94 0.929 . S
H115 C96 0.930 . S
H116 C98 0.932 . S
H117 C99 0.929 . S
H118 C100 0.928 . S
H119 C102 0.932 . S
C120 C121 1.264 . S
C120 C125 1.479 . S
C120 C130 1.465 . S
C121 C120 1.264 . S
C121 C123 1.339 . S
C121 H148 0.931 . S
C122 C123 1.395 . S
C122 C124 1.320 . S
C123 C121 1.339 . S
C123 C122 1.395 . S
C123 H149 0.929 . S
C124 C122 1.320 . S
C124 C125 1.405 . S
C124 H150 0.930 . S
C125 C120 1.479 . S
C125 C124 1.405 . S
C125 H151 0.931 . S
U126 O127 2.454 . S
U126 O128 2.458 . S
U126 C129 2.984 . S
U126 C130 2.847 . S
U126 C143 2.882 . S
U126 O144 2.441 . S
U126 O145 2.420 . S
U126 O146 2.455 . S
U126 O147 2.449 . S
O127 U126 2.454 . S
O127 C129 1.353 . S
O128 U126 2.458 . S
O128 C129 1.286 . S
C129 U126 2.984 . S
C129 O127 1.353 . S
C129 O128 1.286 . S
C129 C131 1.363 . S
C130 C120 1.465 . S
C130 U126 2.847 . S
C130 O144 1.249 . S
C130 O145 1.202 . S
C131 C129 1.363 . S
C131 C133 1.408 . S
C131 C136 1.342 . S
C132 C133 1.310 . S
C132 C135 1.461 . S
C132 H152 0.932 . S
C133 C131 1.408 . S
C133 C132 1.310 . S
C133 H153 0.930 . S
C134 C135 1.474 . S
C134 C136 1.285 . S
C134 H154 0.929 . S
C135 C132 1.461 . S
C135 C134 1.474 . S
C136 C131 1.342 . S
C136 C134 1.285 . S
C136 H155 0.930 . S
C137 C140 1.424 . S
C137 C142 1.245 . S
C137 C143 1.428 . S
C138 C141 1.260 . S
C138 C142 1.477 . S
C138 H156 0.932 . S
C139 C140 1.384 . S
C139 C141 1.479 . S
C139 H157 0.929 . S
C140 C137 1.424 . S
C140 C139 1.384 . S
C140 H158 0.928 . S
C141 C138 1.260 . S
C141 C139 1.479 . S
C142 C137 1.245 . S
C142 C138 1.477 . S
C142 H159 0.932 . S
C143 U126 2.882 . S
C143 C137 1.428 . S
C143 O146 1.301 . S
C143 O147 1.282 . S
O144 U126 2.441 . S
O144 C130 1.249 . S
O145 U126 2.420 . S
O145 C130 1.202 . S
O146 U126 2.455 . S
O146 C143 1.301 . S
O147 U126 2.449 . S
O147 C143 1.282 . S
H148 C121 0.931 . S
H149 C123 0.929 . S
H150 C124 0.930 . S
H151 C125 0.931 . S
H152 C132 0.932 . S
H153 C133 0.930 . S
H154 C134 0.929 . S
H155 C136 0.930 . S
H156 C138 0.932 . S
H157 C139 0.929 . S
H158 C140 0.928 . S
H159 C142 0.932 . S
C160 C161 1.264 . S
C160 C165 1.479 . S
C160 C170 1.465 . S
C161 C160 1.264 . S
C161 C163 1.339 . S
C161 H188 0.931 . S
C162 C163 1.395 . S
C162 C164 1.320 . S
C163 C161 1.339 . S
C163 C162 1.395 . S
C163 H189 0.929 . S
C164 C162 1.320 . S
C164 C165 1.405 . S
C164 H190 0.930 . S
C165 C160 1.479 . S
C165 C164 1.405 . S
C165 H191 0.931 . S
U166 O167 2.454 . S
U166 O168 2.458 . S
U166 C169 2.984 . S
U166 C170 2.847 . S
U166 C183 2.882 . S
U166 O184 2.441 . S
U166 O185 2.420 . S
U166 O186 2.455 . S
U166 O187 2.449 . S
O167 U166 2.454 . S
O167 C169 1.353 . S
O168 U166 2.458 . S
O168 C169 1.286 . S
C169 U166 2.984 . S
C169 O167 1.353 . S
C169 O168 1.286 . S
C169 C171 1.363 . S
C170 C160 1.465 . S
C170 U166 2.847 . S
C170 O184 1.249 . S
C170 O185 1.202 . S
C171 C169 1.363 . S
C171 C173 1.408 . S
C171 C176 1.342 . S
C172 C173 1.310 . S
C172 C175 1.461 . S
C172 H192 0.932 . S
C173 C171 1.408 . S
C173 C172 1.310 . S
C173 H193 0.930 . S
C174 C175 1.474 . S
C174 C176 1.285 . S
C174 H194 0.929 . S
C175 C172 1.461 . S
C175 C174 1.474 . S
C176 C171 1.342 . S
C176 C174 1.285 . S
C176 H195 0.930 . S
C177 C180 1.424 . S
C177 C182 1.245 . S
C177 C183 1.428 . S
C178 C181 1.260 . S
C178 C182 1.477 . S
C178 H196 0.932 . S
C179 C180 1.384 . S
C179 C181 1.479 . S
C179 H197 0.929 . S
C180 C177 1.424 . S
C180 C179 1.384 . S
C180 H198 0.928 . S
C181 C178 1.260 . S
C181 C179 1.479 . S
C182 C177 1.245 . S
C182 C178 1.477 . S
C182 H199 0.932 . S
C183 U166 2.882 . S
C183 C177 1.428 . S
C183 O186 1.301 . S
C183 O187 1.282 . S
O184 U166 2.441 . S
O184 C170 1.249 . S
O185 U166 2.420 . S
O185 C170 1.202 . S
O186 U166 2.455 . S
O186 C183 1.301 . S
O187 U166 2.449 . S
O187 C183 1.282 . S
H188 C161 0.931 . S
H189 C163 0.929 . S
H190 C164 0.930 . S
H191 C165 0.931 . S
H192 C172 0.932 . S
H193 C173 0.930 . S
H194 C174 0.929 . S
H195 C176 0.930 . S
H196 C178 0.932 . S
H197 C179 0.929 . S
H198 C180 0.928 . S
H199 C182 0.932 . S
C200 C201 1.264 . S
C200 C205 1.479 . S
C200 C210 1.465 . S
C201 C200 1.264 . S
C201 C203 1.339 . S
C201 H228 0.931 . S
C202 C203 1.395 . S
C202 C204 1.320 . S
C203 C201 1.339 . S
C203 C202 1.395 . S
C203 H229 0.929 . S
C204 C202 1.320 . S
C204 C205 1.405 . S
C204 H230 0.930 . S
C205 C200 1.479 . S
C205 C204 1.405 . S
C205 H231 0.931 . S
U206 O207 2.454 . S
U206 O208 2.458 . S
U206 C209 2.984 . S
U206 C210 2.847 . S
U206 C223 2.882 . S
U206 O224 2.441 . S
U206 O225 2.420 . S
U206 O226 2.455 . S
U206 O227 2.449 . S
O207 U206 2.454 . S
O207 C209 1.353 . S
O208 U206 2.458 . S
O208 C209 1.286 . S
C209 U206 2.984 . S
C209 O207 1.353 . S
C209 O208 1.286 . S
C209 C211 1.363 . S
C210 C200 1.465 . S
C210 U206 2.847 . S
C210 O224 1.249 . S
C210 O225 1.202 . S
C211 C209 1.363 . S
C211 C213 1.408 . S
C211 C216 1.342 . S
C212 C213 1.310 . S
C212 C215 1.461 . S
C212 H232 0.932 . S
C213 C211 1.408 . S
C213 C212 1.310 . S
C213 H233 0.930 . S
C214 C215 1.474 . S
C214 C216 1.285 . S
C214 H234 0.929 . S
C215 C212 1.461 . S
C215 C214 1.474 . S
C216 C211 1.342 . S
C216 C214 1.285 . S
C216 H235 0.930 . S
C217 C220 1.424 . S
C217 C222 1.245 . S
C217 C223 1.428 . S
C218 C221 1.260 . S
C218 C222 1.477 . S
C218 H236 0.932 . S
C219 C220 1.384 . S
C219 C221 1.479 . S
C219 H237 0.929 . S
C220 C217 1.424 . S
C220 C219 1.384 . S
C220 H238 0.928 . S
C221 C218 1.260 . S
C221 C219 1.479 . S
C222 C217 1.245 . S
C222 C218 1.477 . S
C222 H239 0.932 . S
C223 U206 2.882 . S
C223 C217 1.428 . S
C223 O226 1.301 . S
C223 O227 1.282 . S
O224 U206 2.441 . S
O224 C210 1.249 . S
O225 U206 2.420 . S
O225 C210 1.202 . S
O226 U206 2.455 . S
O226 C223 1.301 . S
O227 U206 2.449 . S
O227 C223 1.282 . S
H228 C201 0.931 . S
H229 C203 0.929 . S
H230 C204 0.930 . S
H231 C205 0.931 . S
H232 C212 0.932 . S
H233 C213 0.930 . S
H234 C214 0.929 . S
H235 C216 0.930 . S
H236 C218 0.932 . S
H237 C219 0.929 . S
H238 C220 0.928 . S
H239 C222 0.932 . S
C240 C241 1.264 . S
C240 C245 1.479 . S
C240 C250 1.465 . S
C241 C240 1.264 . S
C241 C243 1.339 . S
C241 H268 0.931 . S
C242 C243 1.395 . S
C242 C244 1.320 . S
C243 C241 1.339 . S
C243 C242 1.395 . S
C243 H269 0.929 . S
C244 C242 1.320 . S
C244 C245 1.405 . S
C244 H270 0.930 . S
C245 C240 1.479 . S
C245 C244 1.405 . S
C245 H271 0.931 . S
U246 O247 2.454 . S
U246 O248 2.458 . S
U246 C249 2.984 . S
U246 C250 2.847 . S
U246 C263 2.882 . S
U246 O264 2.441 . S
U246 O265 2.420 . S
U246 O266 2.455 . S
U246 O267 2.449 . S
O247 U246 2.454 . S
O247 C249 1.353 . S
O248 U246 2.458 . S
O248 C249 1.286 . S
C249 U246 2.984 . S
C249 O247 1.353 . S
C249 O248 1.286 . S
C249 C251 1.363 . S
C250 C240 1.465 . S
C250 U246 2.847 . S
C250 O264 1.249 . S
C250 O265 1.202 . S
C251 C249 1.363 . S
C251 C253 1.408 . S
C251 C256 1.342 . S
C252 C253 1.310 . S
C252 C255 1.461 . S
C252 H272 0.932 . S
C253 C251 1.408 . S
C253 C252 1.310 . S
C253 H273 0.930 . S
C254 C255 1.474 . S
C254 C256 1.285 . S
C254 H274 0.929 . S
C255 C252 1.461 . S
C255 C254 1.474 . S
C256 C251 1.342 . S
C256 C254 1.285 . S
C256 H275 0.930 . S
C257 C260 1.424 . S
C257 C262 1.245 . S
C257 C263 1.428 . S
C258 C261 1.260 . S
C258 C262 1.477 . S
C258 H276 0.932 . S
C259 C260 1.384 . S
C259 C261 1.479 . S
C259 H277 0.929 . S
C260 C257 1.424 . S
C260 C259 1.384 . S
C260 H278 0.928 . S
C261 C258 1.260 . S
C261 C259 1.479 . S
C262 C257 1.245 . S
C262 C258 1.477 . S
C262 H279 0.932 . S
C263 U246 2.882 . S
C263 C257 1.428 . S
C263 O266 1.301 . S
C263 O267 1.282 . S
O264 U246 2.441 . S
O264 C250 1.249 . S
O265 U246 2.420 . S
O265 C250 1.202 . S
O266 U246 2.455 . S
O266 C263 1.301 . S
O267 U246 2.449 . S
O267 C263 1.282 . S
H268 C241 0.931 . S
H269 C243 0.929 . S
H270 C244 0.930 . S
H271 C245 0.931 . S
H272 C252 0.932 . S
H273 C253 0.930 . S
H274 C254 0.929 . S
H275 C256 0.930 . S
H276 C258 0.932 . S
H277 C259 0.929 . S
H278 C260 0.928 . S
H279 C262 0.932 . S
C280 C281 1.264 . S
C280 C285 1.479 . S
C280 C290 1.465 . S
C281 C280 1.264 . S
C281 C283 1.339 . S
C281 H308 0.931 . S
C282 C283 1.395 . S
C282 C284 1.320 . S
C283 C281 1.339 . S
C283 C282 1.395 . S
C283 H309 0.929 . S
C284 C282 1.320 . S
C284 C285 1.405 . S
C284 H310 0.930 . S
C285 C280 1.479 . S
C285 C284 1.405 . S
C285 H311 0.931 . S
U286 O287 2.454 . S
U286 O288 2.458 . S
U286 C289 2.984 . S
U286 C290 2.847 . S
U286 C303 2.882 . S
U286 O304 2.441 . S
U286 O305 2.420 . S
U286 O306 2.455 . S
U286 O307 2.449 . S
O287 U286 2.454 . S
O287 C289 1.353 . S
O288 U286 2.458 . S
O288 C289 1.286 . S
C289 U286 2.984 . S
C289 O287 1.353 . S
C289 O288 1.286 . S
C289 C291 1.363 . S
C290 C280 1.465 . S
C290 U286 2.847 . S
C290 O304 1.249 . S
C290 O305 1.202 . S
C291 C289 1.363 . S
C291 C293 1.408 . S
C291 C296 1.342 . S
C292 C293 1.310 . S
C292 C295 1.461 . S
C292 H312 0.932 . S
C293 C291 1.408 . S
C293 C292 1.310 . S
C293 H313 0.930 . S
C294 C295 1.474 . S
C294 C296 1.285 . S
C294 H314 0.929 . S
C295 C292 1.461 . S
C295 C294 1.474 . S
C296 C291 1.342 . S
C296 C294 1.285 . S
C296 H315 0.930 . S
C297 C300 1.424 . S
C297 C302 1.245 . S
C297 C303 1.428 . S
C298 C301 1.260 . S
C298 C302 1.477 . S
C298 H316 0.932 . S
C299 C300 1.384 . S
C299 C301 1.479 . S
C299 H317 0.929 . S
C300 C297 1.424 . S
C300 C299 1.384 . S
C300 H318 0.928 . S
C301 C298 1.260 . S
C301 C299 1.479 . S
C302 C297 1.245 . S
C302 C298 1.477 . S
C302 H319 0.932 . S
C303 U286 2.882 . S
C303 C297 1.428 . S
C303 O306 1.301 . S
C303 O307 1.282 . S
O304 U286 2.441 . S
O304 C290 1.249 . S
O305 U286 2.420 . S
O305 C290 1.202 . S
O306 U286 2.455 . S
O306 C303 1.301 . S
O307 U286 2.449 . S
O307 C303 1.282 . S
H308 C281 0.931 . S
H309 C283 0.929 . S
H310 C284 0.930 . S
H311 C285 0.931 . S
H312 C292 0.932 . S
H313 C293 0.930 . S
H314 C294 0.929 . S
H315 C296 0.930 . S
H316 C298 0.932 . S
H317 C299 0.929 . S
H318 C300 0.928 . S
H319 C302 0.932 . S
C320 C321 1.264 . S
C320 C325 1.479 . S
C320 C330 1.465 . S
C321 C320 1.264 . S
C321 C323 1.339 . S
C321 H348 0.931 . S
C322 C323 1.395 . S
C322 C324 1.320 . S
C323 C321 1.339 . S
C323 C322 1.395 . S
C323 H349 0.929 . S
C324 C322 1.320 . S
C324 C325 1.405 . S
C324 H350 0.930 . S
C325 C320 1.479 . S
C325 C324 1.405 . S
C325 H351 0.931 . S
U326 O327 2.454 . S
U326 O328 2.458 . S
U326 C329 2.984 . S
U326 C330 2.847 . S
U326 C343 2.882 . S
U326 O344 2.441 . S
U326 O345 2.420 . S
U326 O346 2.455 . S
U326 O347 2.449 . S
O327 U326 2.454 . S
O327 C329 1.353 . S
O328 U326 2.458 . S
O328 C329 1.286 . S
C329 U326 2.984 . S
C329 O327 1.353 . S
C329 O328 1.286 . S
C329 C331 1.363 . S
C330 C320 1.465 . S
C330 U326 2.847 . S
C330 O344 1.249 . S
C330 O345 1.202 . S
C331 C329 1.363 . S
C331 C333 1.408 . S
C331 C336 1.342 . S
C332 C333 1.310 . S
C332 C335 1.461 . S
C332 H352 0.932 . S
C333 C331 1.408 . S
C333 C332 1.310 . S
C333 H353 0.930 . S
C334 C335 1.474 . S
C334 C336 1.285 . S
C334 H354 0.929 . S
C335 C332 1.461 . S
C335 C334 1.474 . S
C336 C331 1.342 . S
C336 C334 1.285 . S
C336 H355 0.930 . S
C337 C340 1.424 . S
C337 C342 1.245 . S
C337 C343 1.428 . S
C338 C341 1.260 . S
C338 C342 1.477 . S
C338 H356 0.932 . S
C339 C340 1.384 . S
C339 C341 1.479 . S
C339 H357 0.929 . S
C340 C337 1.424 . S
C340 C339 1.384 . S
C340 H358 0.928 . S
C341 C338 1.260 . S
C341 C339 1.479 . S
C342 C337 1.245 . S
C342 C338 1.477 . S
C342 H359 0.932 . S
C343 U326 2.882 . S
C343 C337 1.428 . S
C343 O346 1.301 . S
C343 O347 1.282 . S
O344 U326 2.441 . S
O344 C330 1.249 . S
O345 U326 2.420 . S
O345 C330 1.202 . S
O346 U326 2.455 . S
O346 C343 1.301 . S
O347 U326 2.449 . S
O347 C343 1.282 . S
H348 C321 0.931 . S
H349 C323 0.929 . S
H350 C324 0.930 . S
H351 C325 0.931 . S
H352 C332 0.932 . S
H353 C333 0.930 . S
H354 C334 0.929 . S
H355 C336 0.930 . S
H356 C338 0.932 . S
H357 C339 0.929 . S
H358 C340 0.928 . S
H359 C342 0.932 . S
C360 C361 1.264 . S
C360 C365 1.479 . S
C360 C370 1.465 . S
C361 C360 1.264 . S
C361 C363 1.339 . S
C361 H388 0.931 . S
C362 C363 1.395 . S
C362 C364 1.320 . S
C363 C361 1.339 . S
C363 C362 1.395 . S
C363 H389 0.929 . S
C364 C362 1.320 . S
C364 C365 1.405 . S
C364 H390 0.930 . S
C365 C360 1.479 . S
C365 C364 1.405 . S
C365 H391 0.931 . S
U366 O367 2.454 . S
U366 O368 2.458 . S
U366 C369 2.984 . S
U366 C370 2.847 . S
U366 C383 2.882 . S
U366 O384 2.441 . S
U366 O385 2.420 . S
U366 O386 2.455 . S
U366 O387 2.449 . S
O367 U366 2.454 . S
O367 C369 1.353 . S
O368 U366 2.458 . S
O368 C369 1.286 . S
C369 U366 2.984 . S
C369 O367 1.353 . S
C369 O368 1.286 . S
C369 C371 1.363 . S
C370 C360 1.465 . S
C370 U366 2.847 . S
C370 O384 1.249 . S
C370 O385 1.202 . S
C371 C369 1.363 . S
C371 C373 1.408 . S
C371 C376 1.342 . S
C372 C373 1.310 . S
C372 C375 1.461 . S
C372 H392 0.932 . S
C373 C371 1.408 . S
C373 C372 1.310 . S
C373 H393 0.930 . S
C374 C375 1.474 . S
C374 C376 1.285 . S
C374 H394 0.929 . S
C375 C372 1.461 . S
C375 C374 1.474 . S
C376 C371 1.342 . S
C376 C374 1.285 . S
C376 H395 0.930 . S
C377 C380 1.424 . S
C377 C382 1.245 . S
C377 C383 1.428 . S
C378 C381 1.260 . S
C378 C382 1.477 . S
C378 H396 0.932 . S
C379 C380 1.384 . S
C379 C381 1.479 . S
C379 H397 0.929 . S
C380 C377 1.424 . S
C380 C379 1.384 . S
C380 H398 0.928 . S
C381 C378 1.260 . S
C381 C379 1.479 . S
C382 C377 1.245 . S
C382 C378 1.477 . S
C382 H399 0.932 . S
C383 U366 2.882 . S
C383 C377 1.428 . S
C383 O386 1.301 . S
C383 O387 1.282 . S
O384 U366 2.441 . S
O384 C370 1.249 . S
O385 U366 2.420 . S
O385 C370 1.202 . S
O386 U366 2.455 . S
O386 C383 1.301 . S
O387 U366 2.449 . S
O387 C383 1.282 . S
H388 C361 0.931 . S
H389 C363 0.929 . S
H390 C364 0.930 . S
H391 C365 0.931 . S
H392 C372 0.932 . S
H393 C373 0.930 . S
H394 C374 0.929 . S
H395 C376 0.930 . S
H396 C378 0.932 . S
H397 C379 0.929 . S
H398 C380 0.928 . S
H399 C382 0.932 . S
C400 C401 1.264 . S
C400 C405 1.479 . S
C400 C410 1.465 . S
C401 C400 1.264 . S
C401 C403 1.339 . S
C401 H428 0.931 . S
C402 C403 1.395 . S
C402 C404 1.320 . S
C403 C401 1.339 . S
C403 C402 1.395 . S
C403 H429 0.929 . S
C404 C402 1.320 . S
C404 C405 1.405 . S
C404 H430 0.930 . S
C405 C400 1.479 . S
C405 C404 1.405 . S
C405 H431 0.931 . S
U406 O407 2.454 . S
U406 O408 2.458 . S
U406 C409 2.984 . S
U406 C410 2.847 . S
U406 C423 2.882 . S
U406 O424 2.441 . S
U406 O425 2.420 . S
U406 O426 2.455 . S
U406 O427 2.449 . S
O407 U406 2.454 . S
O407 C409 1.353 . S
O408 U406 2.458 . S
O408 C409 1.286 . S
C409 U406 2.984 . S
C409 O407 1.353 . S
C409 O408 1.286 . S
C409 C411 1.363 . S
C410 C400 1.465 . S
C410 U406 2.847 . S
C410 O424 1.249 . S
C410 O425 1.202 . S
C411 C409 1.363 . S
C411 C413 1.408 . S
C411 C416 1.342 . S
C412 C413 1.310 . S
C412 C415 1.461 . S
C412 H432 0.932 . S
C413 C411 1.408 . S
C413 C412 1.310 . S
C413 H433 0.930 . S
C414 C415 1.474 . S
C414 C416 1.285 . S
C414 H434 0.929 . S
C415 C412 1.461 . S
C415 C414 1.474 . S
C416 C411 1.342 . S
C416 C414 1.285 . S
C416 H435 0.930 . S
C417 C420 1.424 . S
C417 C422 1.245 . S
C417 C423 1.428 . S
C418 C421 1.260 . S
C418 C422 1.477 . S
C418 H436 0.932 . S
C419 C420 1.384 . S
C419 C421 1.479 . S
C419 H437 0.929 . S
C420 C417 1.424 . S
C420 C419 1.384 . S
C420 H438 0.928 . S
C421 C418 1.260 . S
C421 C419 1.479 . S
C422 C417 1.245 . S
C422 C418 1.477 . S
C422 H439 0.932 . S
C423 U406 2.882 . S
C423 C417 1.428 . S
C423 O426 1.301 . S
C423 O427 1.282 . S
O424 U406 2.441 . S
O424 C410 1.249 . S
O425 U406 2.420 . S
O425 C410 1.202 . S
O426 U406 2.455 . S
O426 C423 1.301 . S
O427 U406 2.449 . S
O427 C423 1.282 . S
H428 C401 0.931 . S
H429 C403 0.929 . S
H430 C404 0.930 . S
H431 C405 0.931 . S
H432 C412 0.932 . S
H433 C413 0.930 . S
H434 C414 0.929 . S
H435 C416 0.930 . S
H436 C418 0.932 . S
H437 C419 0.929 . S
H438 C420 0.928 . S
H439 C422 0.932 . S
C440 C441 1.264 . S
C440 C445 1.479 . S
C440 C450 1.465 . S
C441 C440 1.264 . S
C441 C443 1.339 . S
C441 H468 0.931 . S
C442 C443 1.395 . S
C442 C444 1.320 . S
C443 C441 1.339 . S
C443 C442 1.395 . S
C443 H469 0.929 . S
C444 C442 1.320 . S
C444 C445 1.405 . S
C444 H470 0.930 . S
C445 C440 1.479 . S
C445 C444 1.405 . S
C445 H471 0.931 . S
U446 O447 2.454 . S
U446 O448 2.458 . S
U446 C449 2.984 . S
U446 C450 2.847 . S
U446 C463 2.882 . S
U446 O464 2.441 . S
U446 O465 2.420 . S
U446 O466 2.455 . S
U446 O467 2.449 . S
O447 U446 2.454 . S
O447 C449 1.353 . S
O448 U446 2.458 . S
O448 C449 1.286 . S
C449 U446 2.984 . S
C449 O447 1.353 . S
C449 O448 1.286 . S
C449 C451 1.363 . S
C450 C440 1.465 . S
C450 U446 2.847 . S
C450 O464 1.249 . S
C450 O465 1.202 . S
C451 C449 1.363 . S
C451 C453 1.408 . S
C451 C456 1.342 . S
C452 C453 1.310 . S
C452 C455 1.461 . S
C452 H472 0.932 . S
C453 C451 1.408 . S
C453 C452 1.310 . S
C453 H473 0.930 . S
C454 C455 1.474 . S
C454 C456 1.285 . S
C454 H474 0.929 . S
C455 C452 1.461 . S
C455 C454 1.474 . S
C456 C451 1.342 . S
C456 C454 1.285 . S
C456 H475 0.930 . S
C457 C460 1.424 . S
C457 C462 1.245 . S
C457 C463 1.428 . S
C458 C461 1.260 . S
C458 C462 1.477 . S
C458 H476 0.932 . S
C459 C460 1.384 . S
C459 C461 1.479 . S
C459 H477 0.929 . S
C460 C457 1.424 . S
C460 C459 1.384 . S
C460 H478 0.928 . S
C461 C458 1.260 . S
C461 C459 1.479 . S
C462 C457 1.245 . S
C462 C458 1.477 . S
C462 H479 0.932 . S
C463 U446 2.882 . S
C463 C457 1.428 . S
C463 O466 1.301 . S
C463 O467 1.282 . S
O464 U446 2.441 . S
O464 C450 1.249 . S
O465 U446 2.420 . S
O465 C450 1.202 . S
O466 U446 2.455 . S
O466 C463 1.301 . S
O467 U446 2.449 . S
O467 C463 1.282 . S
H468 C441 0.931 . S
H469 C443 0.929 . S
H470 C444 0.930 . S
H471 C445 0.931 . S
H472 C452 0.932 . S
H473 C453 0.930 . S
H474 C454 0.929 . S
H475 C456 0.930 . S
H476 C458 0.932 . S
H477 C459 0.929 . S
H478 C460 0.928 . S
H479 C462 0.932 . S
C480 C481 1.264 . S
C480 C485 1.479 . S
C480 C490 1.465 . S
C481 C480 1.264 . S
C481 C483 1.339 . S
C481 H508 0.931 . S
C482 C483 1.395 . S
C482 C484 1.320 . S
C483 C481 1.339 . S
C483 C482 1.395 . S
C483 H509 0.929 . S
C484 C482 1.320 . S
C484 C485 1.405 . S
C484 H510 0.930 . S
C485 C480 1.479 . S
C485 C484 1.405 . S
C485 H511 0.931 . S
U486 O487 2.454 . S
U486 O488 2.458 . S
U486 C489 2.984 . S
U486 C490 2.847 . S
U486 C503 2.882 . S
U486 O504 2.441 . S
U486 O505 2.420 . S
U486 O506 2.455 . S
U486 O507 2.449 . S
O487 U486 2.454 . S
O487 C489 1.353 . S
O488 U486 2.458 . S
O488 C489 1.286 . S
C489 U486 2.984 . S
C489 O487 1.353 . S
C489 O488 1.286 . S
C489 C491 1.363 . S
C490 C480 1.465 . S
C490 U486 2.847 . S
C490 O504 1.249 . S
C490 O505 1.202 . S
C491 C489 1.363 . S
C491 C493 1.408 . S
C491 C496 1.342 . S
C492 C493 1.310 . S
C492 C495 1.461 . S
C492 H512 0.932 . S
C493 C491 1.408 . S
C493 C492 1.310 . S
C493 H513 0.930 . S
C494 C495 1.474 . S
C494 C496 1.285 . S
C494 H514 0.929 . S
C495 C492 1.461 . S
C495 C494 1.474 . S
C496 C491 1.342 . S
C496 C494 1.285 . S
C496 H515 0.930 . S
C497 C500 1.424 . S
C497 C502 1.245 . S
C497 C503 1.428 . S
C498 C501 1.260 . S
C498 C502 1.477 . S
C498 H516 0.932 . S
C499 C500 1.384 . S
C499 C501 1.479 . S
C499 H517 0.929 . S
C500 C497 1.424 . S
C500 C499 1.384 . S
C500 H518 0.928 . S
C501 C498 1.260 . S
C501 C499 1.479 . S
C502 C497 1.245 . S
C502 C498 1.477 . S
C502 H519 0.932 . S
C503 U486 2.882 . S
C503 C497 1.428 . S
C503 O506 1.301 . S
C503 O507 1.282 . S
O504 U486 2.441 . S
O504 C490 1.249 . S
O505 U486 2.420 . S
O505 C490 1.202 . S
O506 U486 2.455 . S
O506 C503 1.301 . S
O507 U486 2.449 . S
O507 C503 1.282 . S
H508 C481 0.931 . S
H509 C483 0.929 . S
H510 C484 0.930 . S
H511 C485 0.931 . S
H512 C492 0.932 . S
H513 C493 0.930 . S
H514 C494 0.929 . S
H515 C496 0.930 . S
H516 C498 0.932 . S
H517 C499 0.929 . S
H518 C500 0.928 . S
H519 C502 0.932 . S
C520 C521 1.264 . S
C520 C525 1.479 . S
C520 C530 1.465 . S
C521 C520 1.264 . S
C521 C523 1.339 . S
C521 H548 0.931 . S
C522 C523 1.395 . S
C522 C524 1.320 . S
C523 C521 1.339 . S
C523 C522 1.395 . S
C523 H549 0.929 . S
C524 C522 1.320 . S
C524 C525 1.405 . S
C524 H550 0.930 . S
C525 C520 1.479 . S
C525 C524 1.405 . S
C525 H551 0.931 . S
U526 O527 2.454 . S
U526 O528 2.458 . S
U526 C529 2.984 . S
U526 C530 2.847 . S
U526 C543 2.882 . S
U526 O544 2.441 . S
U526 O545 2.420 . S
U526 O546 2.455 . S
U526 O547 2.449 . S
O527 U526 2.454 . S
O527 C529 1.353 . S
O528 U526 2.458 . S
O528 C529 1.286 . S
C529 U526 2.984 . S
C529 O527 1.353 . S
C529 O528 1.286 . S
C529 C531 1.363 . S
C530 C520 1.465 . S
C530 U526 2.847 . S
C530 O544 1.249 . S
C530 O545 1.202 . S
C531 C529 1.363 . S
C531 C533 1.408 . S
C531 C536 1.342 . S
C532 C533 1.310 . S
C532 C535 1.461 . S
C532 H552 0.932 . S
C533 C531 1.408 . S
C533 C532 1.310 . S
C533 H553 0.930 . S
C534 C535 1.474 . S
C534 C536 1.285 . S
C534 H554 0.929 . S
C535 C532 1.461 . S
C535 C534 1.474 . S
C536 C531 1.342 . S
C536 C534 1.285 . S
C536 H555 0.930 . S
C537 C540 1.424 . S
C537 C542 1.245 . S
C537 C543 1.428 . S
C538 C541 1.260 . S
C538 C542 1.477 . S
C538 H556 0.932 . S
C539 C540 1.384 . S
C539 C541 1.479 . S
C539 H557 0.929 . S
C540 C537 1.424 . S
C540 C539 1.384 . S
C540 H558 0.928 . S
C541 C538 1.260 . S
C541 C539 1.479 . S
C542 C537 1.245 . S
C542 C538 1.477 . S
C542 H559 0.932 . S
C543 U526 2.882 . S
C543 C537 1.428 . S
C543 O546 1.301 . S
C543 O547 1.282 . S
O544 U526 2.441 . S
O544 C530 1.249 . S
O545 U526 2.420 . S
O545 C530 1.202 . S
O546 U526 2.455 . S
O546 C543 1.301 . S
O547 U526 2.449 . S
O547 C543 1.282 . S
H548 C521 0.931 . S
H549 C523 0.929 . S
H550 C524 0.930 . S
H551 C525 0.931 . S
H552 C532 0.932 . S
H553 C533 0.930 . S
H554 C534 0.929 . S
H555 C536 0.930 . S
H556 C538 0.932 . S
H557 C539 0.929 . S
H558 C540 0.928 . S
H559 C542 0.932 . S
C560 C561 1.264 . S
C560 C565 1.479 . S
C560 C570 1.465 . S
C561 C560 1.264 . S
C561 C563 1.339 . S
C561 H588 0.931 . S
C562 C563 1.395 . S
C562 C564 1.320 . S
C563 C561 1.339 . S
C563 C562 1.395 . S
C563 H589 0.929 . S
C564 C562 1.320 . S
C564 C565 1.405 . S
C564 H590 0.930 . S
C565 C560 1.479 . S
C565 C564 1.405 . S
C565 H591 0.931 . S
U566 O567 2.454 . S
U566 O568 2.458 . S
U566 C569 2.984 . S
U566 C570 2.847 . S
U566 C583 2.882 . S
U566 O584 2.441 . S
U566 O585 2.420 . S
U566 O586 2.455 . S
U566 O587 2.449 . S
O567 U566 2.454 . S
O567 C569 1.353 . S
O568 U566 2.458 . S
O568 C569 1.286 . S
C569 U566 2.984 . S
C569 O567 1.353 . S
C569 O568 1.286 . S
C569 C571 1.363 . S
C570 C560 1.465 . S
C570 U566 2.847 . S
C570 O584 1.249 . S
C570 O585 1.202 . S
C571 C569 1.363 . S
C571 C573 1.408 . S
C571 C576 1.342 . S
C572 C573 1.310 . S
C572 C575 1.461 . S
C572 H592 0.932 . S
C573 C571 1.408 . S
C573 C572 1.310 . S
C573 H593 0.930 . S
C574 C575 1.474 . S
C574 C576 1.285 . S
C574 H594 0.929 . S
C575 C572 1.461 . S
C575 C574 1.474 . S
C576 C571 1.342 . S
C576 C574 1.285 . S
C576 H595 0.930 . S
C577 C580 1.424 . S
C577 C582 1.245 . S
C577 C583 1.428 . S
C578 C581 1.260 . S
C578 C582 1.477 . S
C578 H596 0.932 . S
C579 C580 1.384 . S
C579 C581 1.479 . S
C579 H597 0.929 . S
C580 C577 1.424 . S
C580 C579 1.384 . S
C580 H598 0.928 . S
C581 C578 1.260 . S
C581 C579 1.479 . S
C582 C577 1.245 . S
C582 C578 1.477 . S
C582 H599 0.932 . S
C583 U566 2.882 . S
C583 C577 1.428 . S
C583 O586 1.301 . S
C583 O587 1.282 . S
O584 U566 2.441 . S
O584 C570 1.249 . S
O585 U566 2.420 . S
O585 C570 1.202 . S
O586 U566 2.455 . S
O586 C583 1.301 . S
O587 U566 2.449 . S
O587 C583 1.282 . S
H588 C561 0.931 . S
H589 C563 0.929 . S
H590 C564 0.930 . S
H591 C565 0.931 . S
H592 C572 0.932 . S
H593 C573 0.930 . S
H594 C574 0.929 . S
H595 C576 0.930 . S
H596 C578 0.932 . S
H597 C579 0.929 . S
H598 C580 0.928 . S
H599 C582 0.932 . S
C600 C601 1.264 . S
C600 C605 1.479 . S
C600 C610 1.465 . S
C601 C600 1.264 . S
C601 C603 1.339 . S
C601 H628 0.931 . S
C602 C603 1.395 . S
C602 C604 1.320 . S
C603 C601 1.339 . S
C603 C602 1.395 . S
C603 H629 0.929 . S
C604 C602 1.320 . S
C604 C605 1.405 . S
C604 H630 0.930 . S
C605 C600 1.479 . S
C605 C604 1.405 . S
C605 H631 0.931 . S
U606 O607 2.454 . S
U606 O608 2.458 . S
U606 C609 2.984 . S
U606 C610 2.847 . S
U606 C623 2.882 . S
U606 O624 2.441 . S
U606 O625 2.420 . S
U606 O626 2.455 . S
U606 O627 2.449 . S
O607 U606 2.454 . S
O607 C609 1.353 . S
O608 U606 2.458 . S
O608 C609 1.286 . S
C609 U606 2.984 . S
C609 O607 1.353 . S
C609 O608 1.286 . S
C609 C611 1.363 . S
C610 C600 1.465 . S
C610 U606 2.847 . S
C610 O624 1.249 . S
C610 O625 1.202 . S
C611 C609 1.363 . S
C611 C613 1.408 . S
C611 C616 1.342 . S
C612 C613 1.310 . S
C612 C615 1.461 . S
C612 H632 0.932 . S
C613 C611 1.408 . S
C613 C612 1.310 . S
C613 H633 0.930 . S
C614 C615 1.474 . S
C614 C616 1.285 . S
C614 H634 0.929 . S
C615 C612 1.461 . S
C615 C614 1.474 . S
C616 C611 1.342 . S
C616 C614 1.285 . S
C616 H635 0.930 . S
C617 C620 1.424 . S
C617 C622 1.245 . S
C617 C623 1.428 . S
C618 C621 1.260 . S
C618 C622 1.477 . S
C618 H636 0.932 . S
C619 C620 1.384 . S
C619 C621 1.479 . S
C619 H637 0.929 . S
C620 C617 1.424 . S
C620 C619 1.384 . S
C620 H638 0.928 . S
C621 C618 1.260 . S
C621 C619 1.479 . S
C622 C617 1.245 . S
C622 C618 1.477 . S
C622 H639 0.932 . S
C623 U606 2.882 . S
C623 C617 1.428 . S
C623 O626 1.301 . S
C623 O627 1.282 . S
O624 U606 2.441 . S
O624 C610 1.249 . S
O625 U606 2.420 . S
O625 C610 1.202 . S
O626 U606 2.455 . S
O626 C623 1.301 . S
O627 U606 2.449 . S
O627 C623 1.282 . S
H628 C601 0.931 . S
H629 C603 0.929 . S
H630 C604 0.930 . S
H631 C605 0.931 . S
H632 C612 0.932 . S
H633 C613 0.930 . S
H634 C614 0.929 . S
H635 C616 0.930 . S
H636 C618 0.932 . S
H637 C619 0.929 . S
H638 C620 0.928 . S
H639 C622 0.932 . S
C640 C641 1.264 . S
C640 C645 1.479 . S
C640 C650 1.465 . S
C641 C640 1.264 . S
C641 C643 1.339 . S
C641 H668 0.931 . S
C642 C643 1.395 . S
C642 C644 1.320 . S
C643 C641 1.339 . S
C643 C642 1.395 . S
C643 H669 0.929 . S
C644 C642 1.320 . S
C644 C645 1.405 . S
C644 H670 0.930 . S
C645 C640 1.479 . S
C645 C644 1.405 . S
C645 H671 0.931 . S
U646 O647 2.454 1_565 S
U646 O648 2.458 1_565 S
U646 C649 2.984 1_565 S
U646 C650 2.847 . S
U646 C663 2.882 . S
U646 O664 2.441 . S
U646 O665 2.420 . S
U646 O666 2.455 . S
U646 O667 2.449 . S
O647 U646 2.454 1_545 S
O647 C649 1.353 . S
O648 U646 2.458 1_545 S
O648 C649 1.286 . S
C649 U646 2.984 1_545 S
C649 O647 1.353 . S
C649 O648 1.286 . S
C649 C651 1.363 . S
C650 C640 1.465 . S
C650 U646 2.847 . S
C650 O664 1.249 . S
C650 O665 1.202 . S
C651 C649 1.363 . S
C651 C653 1.408 . S
C651 C656 1.342 . S
C652 C653 1.310 . S
C652 C655 1.461 . S
C652 H672 0.932 . S
C653 C651 1.408 . S
C653 C652 1.310 . S
C653 H673 0.930 . S
C654 C655 1.474 . S
C654 C656 1.285 . S
C654 H674 0.929 . S
C655 C652 1.461 . S
C655 C654 1.474 . S
C656 C651 1.342 . S
C656 C654 1.285 . S
C656 H675 0.930 . S
C657 C660 1.424 . S
C657 C662 1.245 . S
C657 C663 1.428 . S
C658 C661 1.260 . S
C658 C662 1.477 . S
C658 H676 0.932 . S
C659 C660 1.384 . S
C659 C661 1.479 . S
C659 H677 0.929 . S
C660 C657 1.424 . S
C660 C659 1.384 . S
C660 H678 0.928 . S
C661 C658 1.260 . S
C661 C659 1.479 . S
C662 C657 1.245 . S
C662 C658 1.477 . S
C662 H679 0.932 . S
C663 U646 2.882 . S
C663 C657 1.428 . S
C663 O666 1.301 . S
C663 O667 1.282 . S
O664 U646 2.441 . S
O664 C650 1.249 . S
O665 U646 2.420 . S
O665 C650 1.202 . S
O666 U646 2.455 . S
O666 C663 1.301 . S
O667 U646 2.449 . S
O667 C663 1.282 . S
H668 C641 0.931 . S
H669 C643 0.929 . S
H670 C644 0.930 . S
H671 C645 0.931 . S
H672 C652 0.932 . S
H673 C653 0.930 . S
H674 C654 0.929 . S
H675 C656 0.930 . S
H676 C658 0.932 . S
H677 C659 0.929 . S
H678 C660 0.928 . S
H679 C662 0.932 . S
C680 C681 1.264 . S
C680 C685 1.479 . S
C680 C690 1.465 . S
C681 C680 1.264 . S
C681 C683 1.339 . S
C681 H708 0.931 . S
C682 C683 1.395 . S
C682 C684 1.320 . S
C683 C681 1.339 . S
C683 C682 1.395 . S
C683 H709 0.929 . S
C684 C682 1.320 . S
C684 C685 1.405 . S
C684 H710 0.930 . S
C685 C680 1.479 . S
C685 C684 1.405 . S
C685 H711 0.931 . S
U686 O687 2.454 . S
U686 O688 2.458 . S
U686 C689 2.984 . S
U686 C690 2.847 . S
U686 C703 2.882 . S
U686 O704 2.441 . S
U686 O705 2.420 . S
U686 O706 2.455 . S
U686 O707 2.449 . S
O687 U686 2.454 . S
O687 C689 1.353 . S
O688 U686 2.458 . S
O688 C689 1.286 . S
C689 U686 2.984 . S
C689 O687 1.353 . S
C689 O688 1.286 . S
C689 C691 1.363 . S
C690 C680 1.465 . S
C690 U686 2.847 . S
C690 O704 1.249 . S
C690 O705 1.202 . S
C691 C689 1.363 . S
C691 C693 1.408 . S
C691 C696 1.342 . S
C692 C693 1.310 . S
C692 C695 1.461 . S
C692 H712 0.932 . S
C693 C691 1.408 . S
C693 C692 1.310 . S
C693 H713 0.930 . S
C694 C695 1.474 . S
C694 C696 1.285 . S
C694 H714 0.929 . S
C695 C692 1.461 . S
C695 C694 1.474 . S
C696 C691 1.342 . S
C696 C694 1.285 . S
C696 H715 0.930 . S
C697 C700 1.424 . S
C697 C702 1.245 . S
C697 C703 1.428 . S
C698 C701 1.260 . S
C698 C702 1.477 . S
C698 H716 0.932 . S
C699 C700 1.384 . S
C699 C701 1.479 . S
C699 H717 0.929 . S
C700 C697 1.424 . S
C700 C699 1.384 . S
C700 H718 0.928 . S
C701 C698 1.260 . S
C701 C699 1.479 . S
C702 C697 1.245 . S
C702 C698 1.477 . S
C702 H719 0.932 . S
C703 U686 2.882 . S
C703 C697 1.428 . S
C703 O706 1.301 . S
C703 O707 1.282 . S
O704 U686 2.441 . S
O704 C690 1.249 . S
O705 U686 2.420 . S
O705 C690 1.202 . S
O706 U686 2.455 . S
O706 C703 1.301 . S
O707 U686 2.449 . S
O707 C703 1.282 . S
H708 C681 0.931 . S
H709 C683 0.929 . S
H710 C684 0.930 . S
H711 C685 0.931 . S
H712 C692 0.932 . S
H713 C693 0.930 . S
H714 C694 0.929 . S
H715 C696 0.930 . S
H716 C698 0.932 . S
H717 C699 0.929 . S
H718 C700 0.928 . S
H719 C702 0.932 . S
C720 C721 1.264 . S
C720 C725 1.479 . S
C720 C730 1.465 . S
C721 C720 1.264 . S
C721 C723 1.339 . S
C721 H748 0.931 . S
C722 C723 1.395 . S
C722 C724 1.320 . S
C723 C721 1.339 . S
C723 C722 1.395 . S
C723 H749 0.929 . S
C724 C722 1.320 . S
C724 C725 1.405 . S
C724 H750 0.930 . S
C725 C720 1.479 . S
C725 C724 1.405 . S
C725 H751 0.931 . S
U726 O727 2.454 1_545 S
U726 O728 2.458 1_545 S
U726 C729 2.984 1_545 S
U726 C730 2.847 . S
U726 C743 2.882 . S
U726 O744 2.441 . S
U726 O745 2.420 . S
U726 O746 2.455 . S
U726 O747 2.449 . S
O727 U726 2.454 1_565 S
O727 C729 1.353 . S
O728 U726 2.458 1_565 S
O728 C729 1.286 . S
C729 U726 2.984 1_565 S
C729 O727 1.353 . S
C729 O728 1.286 . S
C729 C731 1.363 . S
C730 C720 1.465 . S
C730 U726 2.847 . S
C730 O744 1.249 . S
C730 O745 1.202 . S
C731 C729 1.363 . S
C731 C733 1.408 . S
C731 C736 1.342 . S
C732 C733 1.310 . S
C732 C735 1.461 . S
C732 H752 0.932 . S
C733 C731 1.408 . S
C733 C732 1.310 . S
C733 H753 0.930 . S
C734 C735 1.474 . S
C734 C736 1.285 . S
C734 H754 0.929 . S
C735 C732 1.461 . S
C735 C734 1.474 . S
C736 C731 1.342 . S
C736 C734 1.285 . S
C736 H755 0.930 . S
C737 C740 1.424 . S
C737 C742 1.245 . S
C737 C743 1.428 . S
C738 C741 1.260 . S
C738 C742 1.477 . S
C738 H756 0.932 . S
C739 C740 1.384 . S
C739 C741 1.479 . S
C739 H757 0.929 . S
C740 C737 1.424 . S
C740 C739 1.384 . S
C740 H758 0.928 . S
C741 C738 1.260 . S
C741 C739 1.479 . S
C742 C737 1.245 . S
C742 C738 1.477 . S
C742 H759 0.932 . S
C743 U726 2.882 . S
C743 C737 1.428 . S
C743 O746 1.301 . S
C743 O747 1.282 . S
O744 U726 2.441 . S
O744 C730 1.249 . S
O745 U726 2.420 . S
O745 C730 1.202 . S
O746 U726 2.455 . S
O746 C743 1.301 . S
O747 U726 2.449 . S
O747 C743 1.282 . S
H748 C721 0.931 . S
H749 C723 0.929 . S
H750 C724 0.930 . S
H751 C725 0.931 . S
H752 C732 0.932 . S
H753 C733 0.930 . S
H754 C734 0.929 . S
H755 C736 0.930 . S
H756 C738 0.932 . S
H757 C739 0.929 . S
H758 C740 0.928 . S
H759 C742 0.932 . S
C760 C761 1.264 . S
C760 C765 1.479 . S
C760 C770 1.465 . S
C761 C760 1.264 . S
C761 C763 1.339 . S
C761 H788 0.931 . S
C762 C763 1.395 . S
C762 C764 1.320 . S
C763 C761 1.339 . S
C763 C762 1.395 . S
C763 H789 0.929 . S
C764 C762 1.320 . S
C764 C765 1.405 . S
C764 H790 0.930 . S
C765 C760 1.479 . S
C765 C764 1.405 . S
C765 H791 0.931 . S
U766 O767 2.454 . S
U766 O768 2.458 . S
U766 C769 2.984 . S
U766 C770 2.847 . S
U766 C783 2.882 . S
U766 O784 2.441 . S
U766 O785 2.420 . S
U766 O786 2.455 . S
U766 O787 2.449 . S
O767 U766 2.454 . S
O767 C769 1.353 . S
O768 U766 2.458 . S
O768 C769 1.286 . S
C769 U766 2.984 . S
C769 O767 1.353 . S
C769 O768 1.286 . S
C769 C771 1.363 . S
C770 C760 1.465 . S
C770 U766 2.847 . S
C770 O784 1.249 . S
C770 O785 1.202 . S
C771 C769 1.363 . S
C771 C773 1.408 . S
C771 C776 1.342 . S
C772 C773 1.310 . S
C772 C775 1.461 . S
C772 H792 0.932 . S
C773 C771 1.408 . S
C773 C772 1.310 . S
C773 H793 0.930 . S
C774 C775 1.474 . S
C774 C776 1.285 . S
C774 H794 0.929 . S
C775 C772 1.461 . S
C775 C774 1.474 . S
C776 C771 1.342 . S
C776 C774 1.285 . S
C776 H795 0.930 . S
C777 C780 1.424 . S
C777 C782 1.245 . S
C777 C783 1.428 . S
C778 C781 1.260 . S
C778 C782 1.477 . S
C778 H796 0.932 . S
C779 C780 1.384 . S
C779 C781 1.479 . S
C779 H797 0.929 . S
C780 C777 1.424 . S
C780 C779 1.384 . S
C780 H798 0.928 . S
C781 C778 1.260 . S
C781 C779 1.479 . S
C782 C777 1.245 . S
C782 C778 1.477 . S
C782 H799 0.932 . S
C783 U766 2.882 . S
C783 C777 1.428 . S
C783 O786 1.301 . S
C783 O787 1.282 . S
O784 U766 2.441 . S
O784 C770 1.249 . S
O785 U766 2.420 . S
O785 C770 1.202 . S
O786 U766 2.455 . S
O786 C783 1.301 . S
O787 U766 2.449 . S
O787 C783 1.282 . S
H788 C761 0.931 . S
H789 C763 0.929 . S
H790 C764 0.930 . S
H791 C765 0.931 . S
H792 C772 0.932 . S
H793 C773 0.930 . S
H794 C774 0.929 . S
H795 C776 0.930 . S
H796 C778 0.932 . S
H797 C779 0.929 . S
H798 C780 0.928 . S
H799 C782 0.932 . S
C800 C801 1.264 . S
C800 C805 1.479 . S
C800 C810 1.465 . S
C801 C800 1.264 . S
C801 C803 1.339 . S
C801 H828 0.931 . S
C802 C803 1.395 . S
C802 C804 1.320 . S
C803 C801 1.339 . S
C803 C802 1.395 . S
C803 H829 0.929 . S
C804 C802 1.320 . S
C804 C805 1.405 . S
C804 H830 0.930 . S
C805 C800 1.479 . S
C805 C804 1.405 . S
C805 H831 0.931 . S
U806 O807 2.454 1_545 S
U806 O808 2.458 1_545 S
U806 C809 2.984 1_545 S
U806 C810 2.847 . S
U806 C823 2.882 . S
U806 O824 2.441 . S
U806 O825 2.420 . S
U806 O826 2.455 . S
U806 O827 2.449 . S
O807 U806 2.454 1_565 S
O807 C809 1.353 . S
O808 U806 2.458 1_565 S
O808 C809 1.286 . S
C809 U806 2.984 1_565 S
C809 O807 1.353 . S
C809 O808 1.286 . S
C809 C811 1.363 . S
C810 C800 1.465 . S
C810 U806 2.847 . S
C810 O824 1.249 . S
C810 O825 1.202 . S
C811 C809 1.363 . S
C811 C813 1.408 . S
C811 C816 1.342 . S
C812 C813 1.310 . S
C812 C815 1.461 . S
C812 H832 0.932 . S
C813 C811 1.408 . S
C813 C812 1.310 . S
C813 H833 0.930 . S
C814 C815 1.474 . S
C814 C816 1.285 . S
C814 H834 0.929 . S
C815 C812 1.461 . S
C815 C814 1.474 . S
C816 C811 1.342 . S
C816 C814 1.285 . S
C816 H835 0.930 . S
C817 C820 1.424 . S
C817 C822 1.245 . S
C817 C823 1.428 . S
C818 C821 1.260 . S
C818 C822 1.477 . S
C818 H836 0.932 . S
C819 C820 1.384 . S
C819 C821 1.479 . S
C819 H837 0.929 . S
C820 C817 1.424 . S
C820 C819 1.384 . S
C820 H838 0.928 . S
C821 C818 1.260 . S
C821 C819 1.479 . S
C822 C817 1.245 . S
C822 C818 1.477 . S
C822 H839 0.932 . S
C823 U806 2.882 . S
C823 C817 1.428 . S
C823 O826 1.301 . S
C823 O827 1.282 . S
O824 U806 2.441 . S
O824 C810 1.249 . S
O825 U806 2.420 . S
O825 C810 1.202 . S
O826 U806 2.455 . S
O826 C823 1.301 . S
O827 U806 2.449 . S
O827 C823 1.282 . S
H828 C801 0.931 . S
H829 C803 0.929 . S
H830 C804 0.930 . S
H831 C805 0.931 . S
H832 C812 0.932 . S
H833 C813 0.930 . S
H834 C814 0.929 . S
H835 C816 0.930 . S
H836 C818 0.932 . S
H837 C819 0.929 . S
H838 C820 0.928 . S
H839 C822 0.932 . S
C840 C841 1.264 . S
C840 C845 1.479 . S
C840 C850 1.465 . S
C841 C840 1.264 . S
C841 C843 1.339 . S
C841 H868 0.931 . S
C842 C843 1.395 . S
C842 C844 1.320 . S
C843 C841 1.339 . S
C843 C842 1.395 . S
C843 H869 0.929 . S
C844 C842 1.320 . S
C844 C845 1.405 . S
C844 H870 0.930 . S
C845 C840 1.479 . S
C845 C844 1.405 . S
C845 H871 0.931 . S
U846 O847 2.454 . S
U846 O848 2.458 . S
U846 C849 2.984 . S
U846 C850 2.847 . S
U846 C863 2.882 . S
U846 O864 2.441 . S
U846 O865 2.420 . S
U846 O866 2.455 . S
U846 O867 2.449 . S
O847 U846 2.454 . S
O847 C849 1.353 . S
O848 U846 2.458 . S
O848 C849 1.286 . S
C849 U846 2.984 . S
C849 O847 1.353 . S
C849 O848 1.286 . S
C849 C851 1.363 . S
C850 C840 1.465 . S
C850 U846 2.847 . S
C850 O864 1.249 . S
C850 O865 1.202 . S
C851 C849 1.363 . S
C851 C853 1.408 . S
C851 C856 1.342 . S
C852 C853 1.310 . S
C852 C855 1.461 . S
C852 H872 0.932 . S
C853 C851 1.408 . S
C853 C852 1.310 . S
C853 H873 0.930 . S
C854 C855 1.474 . S
C854 C856 1.285 . S
C854 H874 0.929 . S
C855 C852 1.461 . S
C855 C854 1.474 . S
C856 C851 1.342 . S
C856 C854 1.285 . S
C856 H875 0.930 . S
C857 C860 1.424 . S
C857 C862 1.245 . S
C857 C863 1.428 . S
C858 C861 1.260 . S
C858 C862 1.477 . S
C858 H876 0.932 . S
C859 C860 1.384 . S
C859 C861 1.479 . S
C859 H877 0.929 . S
C860 C857 1.424 . S
C860 C859 1.384 . S
C860 H878 0.928 . S
C861 C858 1.260 . S
C861 C859 1.479 . S
C862 C857 1.245 . S
C862 C858 1.477 . S
C862 H879 0.932 . S
C863 U846 2.882 . S
C863 C857 1.428 . S
C863 O866 1.301 . S
C863 O867 1.282 . S
O864 U846 2.441 . S
O864 C850 1.249 . S
O865 U846 2.420 . S
O865 C850 1.202 . S
O866 U846 2.455 . S
O866 C863 1.301 . S
O867 U846 2.449 . S
O867 C863 1.282 . S
H868 C841 0.931 . S
H869 C843 0.929 . S
H870 C844 0.930 . S
H871 C845 0.931 . S
H872 C852 0.932 . S
H873 C853 0.930 . S
H874 C854 0.929 . S
H875 C856 0.930 . S
H876 C858 0.932 . S
H877 C859 0.929 . S
H878 C860 0.928 . S
H879 C862 0.932 . S
C880 C881 1.264 . S
C880 C885 1.479 . S
C880 C890 1.465 . S
C881 C880 1.264 . S
C881 C883 1.339 . S
C881 H908 0.931 . S
C882 C883 1.395 . S
C882 C884 1.320 . S
C883 C881 1.339 . S
C883 C882 1.395 . S
C883 H909 0.929 . S
C884 C882 1.320 . S
C884 C885 1.405 . S
C884 H910 0.930 . S
C885 C880 1.479 . S
C885 C884 1.405 . S
C885 H911 0.931 . S
U886 O887 2.454 1_565 S
U886 O888 2.458 1_565 S
U886 C889 2.984 1_565 S
U886 C890 2.847 . S
U886 C903 2.882 . S
U886 O904 2.441 . S
U886 O905 2.420 . S
U886 O906 2.455 . S
U886 O907 2.449 . S
O887 U886 2.454 1_545 S
O887 C889 1.353 . S
O888 U886 2.458 1_545 S
O888 C889 1.286 . S
C889 U886 2.984 1_545 S
C889 O887 1.353 . S
C889 O888 1.286 . S
C889 C891 1.363 . S
C890 C880 1.465 . S
C890 U886 2.847 . S
C890 O904 1.249 . S
C890 O905 1.202 . S
C891 C889 1.363 . S
C891 C893 1.408 . S
C891 C896 1.342 . S
C892 C893 1.310 . S
C892 C895 1.461 . S
C892 H912 0.932 . S
C893 C891 1.408 . S
C893 C892 1.310 . S
C893 H913 0.930 . S
C894 C895 1.474 . S
C894 C896 1.285 . S
C894 H914 0.929 . S
C895 C892 1.461 . S
C895 C894 1.474 . S
C896 C891 1.342 . S
C896 C894 1.285 . S
C896 H915 0.930 . S
C897 C900 1.424 . S
C897 C902 1.245 . S
C897 C903 1.428 . S
C898 C901 1.260 . S
C898 C902 1.477 . S
C898 H916 0.932 . S
C899 C900 1.384 . S
C899 C901 1.479 . S
C899 H917 0.929 . S
C900 C897 1.424 . S
C900 C899 1.384 . S
C900 H918 0.928 . S
C901 C898 1.260 . S
C901 C899 1.479 . S
C902 C897 1.245 . S
C902 C898 1.477 . S
C902 H919 0.932 . S
C903 U886 2.882 . S
C903 C897 1.428 . S
C903 O906 1.301 . S
C903 O907 1.282 . S
O904 U886 2.441 . S
O904 C890 1.249 . S
O905 U886 2.420 . S
O905 C890 1.202 . S
O906 U886 2.455 . S
O906 C903 1.301 . S
O907 U886 2.449 . S
O907 C903 1.282 . S
H908 C881 0.931 . S
H909 C883 0.929 . S
H910 C884 0.930 . S
H911 C885 0.931 . S
H912 C892 0.932 . S
H913 C893 0.930 . S
H914 C894 0.929 . S
H915 C896 0.930 . S
H916 C898 0.932 . S
H917 C899 0.929 . S
H918 C900 0.928 . S
H919 C902 0.932 . S
C920 C921 1.264 . S
C920 C925 1.479 . S
C920 C930 1.465 . S
C921 C920 1.264 . S
C921 C923 1.339 . S
C921 H948 0.931 . S
C922 C923 1.395 . S
C922 C924 1.320 . S
C923 C921 1.339 . S
C923 C922 1.395 . S
C923 H949 0.929 . S
C924 C922 1.320 . S
C924 C925 1.405 . S
C924 H950 0.930 . S
C925 C920 1.479 . S
C925 C924 1.405 . S
C925 H951 0.931 . S
U926 O927 2.454 . S
U926 O928 2.458 . S
U926 C929 2.984 . S
U926 C930 2.847 . S
U926 C943 2.882 . S
U926 O944 2.441 . S
U926 O945 2.420 . S
U926 O946 2.455 . S
U926 O947 2.449 . S
O927 U926 2.454 . S
O927 C929 1.353 . S
O928 U926 2.458 . S
O928 C929 1.286 . S
C929 U926 2.984 . S
C929 O927 1.353 . S
C929 O928 1.286 . S
C929 C931 1.363 . S
C930 C920 1.465 . S
C930 U926 2.847 . S
C930 O944 1.249 . S
C930 O945 1.202 . S
C931 C929 1.363 . S
C931 C933 1.408 . S
C931 C936 1.342 . S
C932 C933 1.310 . S
C932 C935 1.461 . S
C932 H952 0.932 . S
C933 C931 1.408 . S
C933 C932 1.310 . S
C933 H953 0.930 . S
C934 C935 1.474 . S
C934 C936 1.285 . S
C934 H954 0.929 . S
C935 C932 1.461 . S
C935 C934 1.474 . S
C936 C931 1.342 . S
C936 C934 1.285 . S
C936 H955 0.930 . S
C937 C940 1.424 . S
C937 C942 1.245 . S
C937 C943 1.428 . S
C938 C941 1.260 . S
C938 C942 1.477 . S
C938 H956 0.932 . S
C939 C940 1.384 . S
C939 C941 1.479 . S
C939 H957 0.929 . S
C940 C937 1.424 . S
C940 C939 1.384 . S
C940 H958 0.928 . S
C941 C938 1.260 . S
C941 C939 1.479 . S
C942 C937 1.245 . S
C942 C938 1.477 . S
C942 H959 0.932 . S
C943 U926 2.882 . S
C943 C937 1.428 . S
C943 O946 1.301 . S
C943 O947 1.282 . S
O944 U926 2.441 . S
O944 C930 1.249 . S
O945 U926 2.420 . S
O945 C930 1.202 . S
O946 U926 2.455 . S
O946 C943 1.301 . S
O947 U926 2.449 . S
O947 C943 1.282 . S
H948 C921 0.931 . S
H949 C923 0.929 . S
H950 C924 0.930 . S
H951 C925 0.931 . S
H952 C932 0.932 . S
H953 C933 0.930 . S
H954 C934 0.929 . S
H955 C936 0.930 . S
H956 C938 0.932 . S
H957 C939 0.929 . S
H958 C940 0.928 . S
H959 C942 0.932 . S
C960 C961 1.292 . S
C960 C965 1.476 . S
C960 C970 1.440 1_545 S
C961 C960 1.292 . S
C961 C963 1.339 . S
C961 H988 0.931 . S
C962 C963 1.395 . S
C962 C964 1.320 . S
C963 C961 1.339 . S
C963 C962 1.395 . S
C963 H989 0.929 . S
C964 C962 1.320 . S
C964 C965 1.403 . S
C964 H990 0.930 . S
C965 C960 1.476 . S
C965 C964 1.403 . S
C965 H991 0.933 1_545 S
U966 O967 2.454 . S
U966 O968 2.458 . S
U966 C969 2.984 . S
U966 C970 2.847 . S
U966 C983 2.882 . S
U966 O984 2.441 . S
U966 O985 2.420 . S
U966 O986 2.455 . S
U966 O987 2.449 . S
O967 U966 2.454 . S
O967 C969 1.353 . S
O968 U966 2.458 . S
O968 C969 1.286 . S
C969 U966 2.984 . S
C969 O967 1.353 . S
C969 O968 1.286 . S
C969 C971 1.363 . S
C970 C960 1.440 1_565 S
C970 U966 2.847 . S
C970 O984 1.249 . S
C970 O985 1.202 . S
C971 C969 1.363 . S
C971 C973 1.408 . S
C971 C976 1.342 . S
C972 C973 1.310 . S
C972 C975 1.461 . S
C972 H992 0.932 . S
C973 C971 1.408 . S
C973 C972 1.310 . S
C973 H993 0.930 . S
C974 C975 1.474 . S
C974 C976 1.285 . S
C974 H994 0.929 . S
C975 C972 1.461 . S
C975 C974 1.474 . S
C976 C971 1.342 . S
C976 C974 1.285 . S
C976 H995 0.930 . S
C977 C980 1.422 . S
C977 C982 1.245 1_545 S
C977 C983 1.429 1_545 S
C978 C981 1.260 . S
C978 C982 1.472 1_545 S
C978 H996 0.932 . S
C979 C980 1.384 . S
C979 C981 1.479 . S
C979 H997 0.929 . S
C980 C977 1.422 . S
C980 C979 1.384 . S
C980 H998 0.928 . S
C981 C978 1.260 . S
C981 C979 1.479 . S
C982 C977 1.245 1_565 S
C982 C978 1.472 1_565 S
C982 H999 0.937 . S
C983 U966 2.882 . S
C983 C977 1.429 1_565 S
C983 O986 1.301 . S
C983 O987 1.282 . S
O984 U966 2.441 . S
O984 C970 1.249 . S
O985 U966 2.420 . S
O985 C970 1.202 . S
O986 U966 2.455 . S
O986 C983 1.301 . S
O987 U966 2.449 . S
O987 C983 1.282 . S
H988 C961 0.931 . S
H989 C963 0.929 . S
H990 C964 0.930 . S
H991 C965 0.933 1_565 S
H992 C972 0.932 . S
H993 C973 0.930 . S
H994 C974 0.929 . S
H995 C976 0.930 . S
H996 C978 0.932 . S
H997 C979 0.929 . S
H998 C980 0.928 . S
H999 C982 0.937 . S
C1000 C1001 1.264 . S
C1000 C1005 1.479 . S
C1000 C1010 1.465 . S
C1001 C1000 1.264 . S
C1001 C1003 1.339 . S
C1001 H1028 0.931 . S
C1002 C1003 1.395 . S
C1002 C1004 1.320 . S
C1003 C1001 1.339 . S
C1003 C1002 1.395 . S
C1003 H1029 0.929 . S
C1004 C1002 1.320 . S
C1004 C1005 1.405 . S
C1004 H1030 0.930 . S
C1005 C1000 1.479 . S
C1005 C1004 1.405 . S
C1005 H1031 0.931 . S
U1006 O1007 2.454 . S
U1006 O1008 2.458 . S
U1006 C1009 2.984 . S
U1006 C1010 2.847 . S
U1006 C1023 2.882 . S
U1006 O1024 2.441 . S
U1006 O1025 2.420 . S
U1006 O1026 2.455 . S
U1006 O1027 2.449 . S
O1007 U1006 2.454 . S
O1007 C1009 1.353 . S
O1008 U1006 2.458 . S
O1008 C1009 1.286 . S
C1009 U1006 2.984 . S
C1009 O1007 1.353 . S
C1009 O1008 1.286 . S
C1009 C1011 1.363 . S
C1010 C1000 1.465 . S
C1010 U1006 2.847 . S
C1010 O1024 1.249 . S
C1010 O1025 1.202 . S
C1011 C1009 1.363 . S
C1011 C1013 1.408 . S
C1011 C1016 1.342 . S
C1012 C1013 1.310 . S
C1012 C1015 1.461 . S
C1012 H1032 0.932 . S
C1013 C1011 1.408 . S
C1013 C1012 1.310 . S
C1013 H1033 0.930 . S
C1014 C1015 1.474 . S
C1014 C1016 1.285 . S
C1014 H1034 0.929 . S
C1015 C1012 1.461 . S
C1015 C1014 1.474 . S
C1016 C1011 1.342 . S
C1016 C1014 1.285 . S
C1016 H1035 0.930 . S
C1017 C1020 1.424 . S
C1017 C1022 1.245 . S
C1017 C1023 1.428 . S
C1018 C1021 1.260 . S
C1018 C1022 1.477 . S
C1018 H1036 0.932 . S
C1019 C1020 1.384 . S
C1019 C1021 1.479 . S
C1019 H1037 0.929 . S
C1020 C1017 1.424 . S
C1020 C1019 1.384 . S
C1020 H1038 0.928 . S
C1021 C1018 1.260 . S
C1021 C1019 1.479 . S
C1022 C1017 1.245 . S
C1022 C1018 1.477 . S
C1022 H1039 0.932 . S
C1023 U1006 2.882 . S
C1023 C1017 1.428 . S
C1023 O1026 1.301 . S
C1023 O1027 1.282 . S
O1024 U1006 2.441 . S
O1024 C1010 1.249 . S
O1025 U1006 2.420 . S
O1025 C1010 1.202 . S
O1026 U1006 2.455 . S
O1026 C1023 1.301 . S
O1027 U1006 2.449 . S
O1027 C1023 1.282 . S
H1028 C1001 0.931 . S
H1029 C1003 0.929 . S
H1030 C1004 0.930 . S
H1031 C1005 0.931 . S
H1032 C1012 0.932 . S
H1033 C1013 0.930 . S
H1034 C1014 0.929 . S
H1035 C1016 0.930 . S
H1036 C1018 0.932 . S
H1037 C1019 0.929 . S
H1038 C1020 0.928 . S
H1039 C1022 0.932 . S
C1040 C1041 1.292 . S
C1040 C1045 1.476 . S
C1040 C1050 1.440 1_565 S
C1041 C1040 1.292 . S
C1041 C1043 1.339 . S
C1041 H1068 0.931 . S
C1042 C1043 1.395 . S
C1042 C1044 1.320 . S
C1043 C1041 1.339 . S
C1043 C1042 1.395 . S
C1043 H1069 0.929 . S
C1044 C1042 1.320 . S
C1044 C1045 1.403 . S
C1044 H1070 0.930 . S
C1045 C1040 1.476 . S
C1045 C1044 1.403 . S
C1045 H1071 0.933 1_565 S
U1046 O1047 2.454 . S
U1046 O1048 2.458 . S
U1046 C1049 2.984 . S
U1046 C1050 2.847 . S
U1046 C1063 2.882 . S
U1046 O1064 2.441 . S
U1046 O1065 2.420 . S
U1046 O1066 2.455 . S
U1046 O1067 2.449 . S
O1047 U1046 2.454 . S
O1047 C1049 1.353 . S
O1048 U1046 2.458 . S
O1048 C1049 1.286 . S
C1049 U1046 2.984 . S
C1049 O1047 1.353 . S
C1049 O1048 1.286 . S
C1049 C1051 1.363 . S
C1050 C1040 1.440 1_545 S
C1050 U1046 2.847 . S
C1050 O1064 1.249 . S
C1050 O1065 1.202 . S
C1051 C1049 1.363 . S
C1051 C1053 1.408 . S
C1051 C1056 1.342 . S
C1052 C1053 1.310 . S
C1052 C1055 1.461 . S
C1052 H1072 0.932 . S
C1053 C1051 1.408 . S
C1053 C1052 1.310 . S
C1053 H1073 0.930 . S
C1054 C1055 1.474 . S
C1054 C1056 1.285 . S
C1054 H1074 0.929 . S
C1055 C1052 1.461 . S
C1055 C1054 1.474 . S
C1056 C1051 1.342 . S
C1056 C1054 1.285 . S
C1056 H1075 0.930 . S
C1057 C1060 1.422 . S
C1057 C1062 1.245 1_565 S
C1057 C1063 1.429 1_565 S
C1058 C1061 1.260 . S
C1058 C1062 1.472 1_565 S
C1058 H1076 0.932 . S
C1059 C1060 1.384 . S
C1059 C1061 1.479 . S
C1059 H1077 0.929 . S
C1060 C1057 1.422 . S
C1060 C1059 1.384 . S
C1060 H1078 0.928 . S
C1061 C1058 1.260 . S
C1061 C1059 1.479 . S
C1062 C1057 1.245 1_545 S
C1062 C1058 1.472 1_545 S
C1062 H1079 0.937 . S
C1063 U1046 2.882 . S
C1063 C1057 1.429 1_545 S
C1063 O1066 1.301 . S
C1063 O1067 1.282 . S
O1064 U1046 2.441 . S
O1064 C1050 1.249 . S
O1065 U1046 2.420 . S
O1065 C1050 1.202 . S
O1066 U1046 2.455 . S
O1066 C1063 1.301 . S
O1067 U1046 2.449 . S
O1067 C1063 1.282 . S
H1068 C1041 0.931 . S
H1069 C1043 0.929 . S
H1070 C1044 0.930 . S
H1071 C1045 0.933 1_545 S
H1072 C1052 0.932 . S
H1073 C1053 0.930 . S
H1074 C1054 0.929 . S
H1075 C1056 0.930 . S
H1076 C1058 0.932 . S
H1077 C1059 0.929 . S
H1078 C1060 0.928 . S
H1079 C1062 0.937 . S
C1080 C1081 1.264 . S
C1080 C1085 1.479 . S
C1080 C1090 1.465 . S
C1081 C1080 1.264 . S
C1081 C1083 1.339 . S
C1081 H1108 0.931 . S
C1082 C1083 1.395 . S
C1082 C1084 1.320 . S
C1083 C1081 1.339 . S
C1083 C1082 1.395 . S
C1083 H1109 0.929 . S
C1084 C1082 1.320 . S
C1084 C1085 1.405 . S
C1084 H1110 0.930 . S
C1085 C1080 1.479 . S
C1085 C1084 1.405 . S
C1085 H1111 0.931 . S
U1086 O1087 2.454 . S
U1086 O1088 2.458 . S
U1086 C1089 2.984 . S
U1086 C1090 2.847 . S
U1086 C1103 2.882 . S
U1086 O1104 2.441 . S
U1086 O1105 2.420 . S
U1086 O1106 2.455 . S
U1086 O1107 2.449 . S
O1087 U1086 2.454 . S
O1087 C1089 1.353 . S
O1088 U1086 2.458 . S
O1088 C1089 1.286 . S
C1089 U1086 2.984 . S
C1089 O1087 1.353 . S
C1089 O1088 1.286 . S
C1089 C1091 1.363 . S
C1090 C1080 1.465 . S
C1090 U1086 2.847 . S
C1090 O1104 1.249 . S
C1090 O1105 1.202 . S
C1091 C1089 1.363 . S
C1091 C1093 1.408 . S
C1091 C1096 1.342 . S
C1092 C1093 1.310 . S
C1092 C1095 1.461 . S
C1092 H1112 0.932 . S
C1093 C1091 1.408 . S
C1093 C1092 1.310 . S
C1093 H1113 0.930 . S
C1094 C1095 1.474 . S
C1094 C1096 1.285 . S
C1094 H1114 0.929 . S
C1095 C1092 1.461 . S
C1095 C1094 1.474 . S
C1096 C1091 1.342 . S
C1096 C1094 1.285 . S
C1096 H1115 0.930 . S
C1097 C1100 1.424 . S
C1097 C1102 1.245 . S
C1097 C1103 1.428 . S
C1098 C1101 1.260 . S
C1098 C1102 1.477 . S
C1098 H1116 0.932 . S
C1099 C1100 1.384 . S
C1099 C1101 1.479 . S
C1099 H1117 0.929 . S
C1100 C1097 1.424 . S
C1100 C1099 1.384 . S
C1100 H1118 0.928 . S
C1101 C1098 1.260 . S
C1101 C1099 1.479 . S
C1102 C1097 1.245 . S
C1102 C1098 1.477 . S
C1102 H1119 0.932 . S
C1103 U1086 2.882 . S
C1103 C1097 1.428 . S
C1103 O1106 1.301 . S
C1103 O1107 1.282 . S
O1104 U1086 2.441 . S
O1104 C1090 1.249 . S
O1105 U1086 2.420 . S
O1105 C1090 1.202 . S
O1106 U1086 2.455 . S
O1106 C1103 1.301 . S
O1107 U1086 2.449 . S
O1107 C1103 1.282 . S
H1108 C1081 0.931 . S
H1109 C1083 0.929 . S
H1110 C1084 0.930 . S
H1111 C1085 0.931 . S
H1112 C1092 0.932 . S
H1113 C1093 0.930 . S
H1114 C1094 0.929 . S
H1115 C1096 0.930 . S
H1116 C1098 0.932 . S
H1117 C1099 0.929 . S
H1118 C1100 0.928 . S
H1119 C1102 0.932 . S
C1120 C1121 1.292 . S
C1120 C1125 1.476 . S
C1120 C1130 1.440 1_565 S
C1121 C1120 1.292 . S
C1121 C1123 1.339 . S
C1121 H1148 0.931 . S
C1122 C1123 1.395 . S
C1122 C1124 1.320 . S
C1123 C1121 1.339 . S
C1123 C1122 1.395 . S
C1123 H1149 0.929 . S
C1124 C1122 1.320 . S
C1124 C1125 1.403 . S
C1124 H1150 0.930 . S
C1125 C1120 1.476 . S
C1125 C1124 1.403 . S
C1125 H1151 0.933 1_565 S
U1126 O1127 2.454 . S
U1126 O1128 2.458 . S
U1126 C1129 2.984 . S
U1126 C1130 2.847 . S
U1126 C1143 2.882 . S
U1126 O1144 2.441 . S
U1126 O1145 2.420 . S
U1126 O1146 2.455 . S
U1126 O1147 2.449 . S
O1127 U1126 2.454 . S
O1127 C1129 1.353 . S
O1128 U1126 2.458 . S
O1128 C1129 1.286 . S
C1129 U1126 2.984 . S
C1129 O1127 1.353 . S
C1129 O1128 1.286 . S
C1129 C1131 1.363 . S
C1130 C1120 1.440 1_545 S
C1130 U1126 2.847 . S
C1130 O1144 1.249 . S
C1130 O1145 1.202 . S
C1131 C1129 1.363 . S
C1131 C1133 1.408 . S
C1131 C1136 1.342 . S
C1132 C1133 1.310 . S
C1132 C1135 1.461 . S
C1132 H1152 0.932 . S
C1133 C1131 1.408 . S
C1133 C1132 1.310 . S
C1133 H1153 0.930 . S
C1134 C1135 1.474 . S
C1134 C1136 1.285 . S
C1134 H1154 0.929 . S
C1135 C1132 1.461 . S
C1135 C1134 1.474 . S
C1136 C1131 1.342 . S
C1136 C1134 1.285 . S
C1136 H1155 0.930 . S
C1137 C1140 1.422 . S
C1137 C1142 1.245 1_565 S
C1137 C1143 1.429 1_565 S
C1138 C1141 1.260 . S
C1138 C1142 1.472 1_565 S
C1138 H1156 0.932 . S
C1139 C1140 1.384 . S
C1139 C1141 1.479 . S
C1139 H1157 0.929 . S
C1140 C1137 1.422 . S
C1140 C1139 1.384 . S
C1140 H1158 0.928 . S
C1141 C1138 1.260 . S
C1141 C1139 1.479 . S
C1142 C1137 1.245 1_545 S
C1142 C1138 1.472 1_545 S
C1142 H1159 0.937 . S
C1143 U1126 2.882 . S
C1143 C1137 1.429 1_545 S
C1143 O1146 1.301 . S
C1143 O1147 1.282 . S
O1144 U1126 2.441 . S
O1144 C1130 1.249 . S
O1145 U1126 2.420 . S
O1145 C1130 1.202 . S
O1146 U1126 2.455 . S
O1146 C1143 1.301 . S
O1147 U1126 2.449 . S
O1147 C1143 1.282 . S
H1148 C1121 0.931 . S
H1149 C1123 0.929 . S
H1150 C1124 0.930 . S
H1151 C1125 0.933 1_545 S
H1152 C1132 0.932 . S
H1153 C1133 0.930 . S
H1154 C1134 0.929 . S
H1155 C1136 0.930 . S
H1156 C1138 0.932 . S
H1157 C1139 0.929 . S
H1158 C1140 0.928 . S
H1159 C1142 0.937 . S
C1160 C1161 1.264 . S
C1160 C1165 1.479 . S
C1160 C1170 1.465 . S
C1161 C1160 1.264 . S
C1161 C1163 1.339 . S
C1161 H1188 0.931 . S
C1162 C1163 1.395 . S
C1162 C1164 1.320 . S
C1163 C1161 1.339 . S
C1163 C1162 1.395 . S
C1163 H1189 0.929 . S
C1164 C1162 1.320 . S
C1164 C1165 1.405 . S
C1164 H1190 0.930 . S
C1165 C1160 1.479 . S
C1165 C1164 1.405 . S
C1165 H1191 0.931 . S
U1166 O1167 2.454 . S
U1166 O1168 2.458 . S
U1166 C1169 2.984 . S
U1166 C1170 2.847 . S
U1166 C1183 2.882 . S
U1166 O1184 2.441 . S
U1166 O1185 2.420 . S
U1166 O1186 2.455 . S
U1166 O1187 2.449 . S
O1167 U1166 2.454 . S
O1167 C1169 1.353 . S
O1168 U1166 2.458 . S
O1168 C1169 1.286 . S
C1169 U1166 2.984 . S
C1169 O1167 1.353 . S
C1169 O1168 1.286 . S
C1169 C1171 1.363 . S
C1170 C1160 1.465 . S
C1170 U1166 2.847 . S
C1170 O1184 1.249 . S
C1170 O1185 1.202 . S
C1171 C1169 1.363 . S
C1171 C1173 1.408 . S
C1171 C1176 1.342 . S
C1172 C1173 1.310 . S
C1172 C1175 1.461 . S
C1172 H1192 0.932 . S
C1173 C1171 1.408 . S
C1173 C1172 1.310 . S
C1173 H1193 0.930 . S
C1174 C1175 1.474 . S
C1174 C1176 1.285 . S
C1174 H1194 0.929 . S
C1175 C1172 1.461 . S
C1175 C1174 1.474 . S
C1176 C1171 1.342 . S
C1176 C1174 1.285 . S
C1176 H1195 0.930 . S
C1177 C1180 1.424 . S
C1177 C1182 1.245 . S
C1177 C1183 1.428 . S
C1178 C1181 1.260 . S
C1178 C1182 1.477 . S
C1178 H1196 0.932 . S
C1179 C1180 1.384 . S
C1179 C1181 1.479 . S
C1179 H1197 0.929 . S
C1180 C1177 1.424 . S
C1180 C1179 1.384 . S
C1180 H1198 0.928 . S
C1181 C1178 1.260 . S
C1181 C1179 1.479 . S
C1182 C1177 1.245 . S
C1182 C1178 1.477 . S
C1182 H1199 0.932 . S
C1183 U1166 2.882 . S
C1183 C1177 1.428 . S
C1183 O1186 1.301 . S
C1183 O1187 1.282 . S
O1184 U1166 2.441 . S
O1184 C1170 1.249 . S
O1185 U1166 2.420 . S
O1185 C1170 1.202 . S
O1186 U1166 2.455 . S
O1186 C1183 1.301 . S
O1187 U1166 2.449 . S
O1187 C1183 1.282 . S
H1188 C1161 0.931 . S
H1189 C1163 0.929 . S
H1190 C1164 0.930 . S
H1191 C1165 0.931 . S
H1192 C1172 0.932 . S
H1193 C1173 0.930 . S
H1194 C1174 0.929 . S
H1195 C1176 0.930 . S
H1196 C1178 0.932 . S
H1197 C1179 0.929 . S
H1198 C1180 0.928 . S
H1199 C1182 0.932 . S
C1200 C1201 1.292 . S
C1200 C1205 1.476 . S
C1200 C1210 1.440 1_545 S
C1201 C1200 1.292 . S
C1201 C1203 1.339 . S
C1201 H1228 0.931 . S
C1202 C1203 1.395 . S
C1202 C1204 1.320 . S
C1203 C1201 1.339 . S
C1203 C1202 1.395 . S
C1203 H1229 0.929 . S
C1204 C1202 1.320 . S
C1204 C1205 1.403 . S
C1204 H1230 0.930 . S
C1205 C1200 1.476 . S
C1205 C1204 1.403 . S
C1205 H1231 0.933 1_545 S
U1206 O1207 2.454 . S
U1206 O1208 2.458 . S
U1206 C1209 2.984 . S
U1206 C1210 2.847 . S
U1206 C1223 2.882 . S
U1206 O1224 2.441 . S
U1206 O1225 2.420 . S
U1206 O1226 2.455 . S
U1206 O1227 2.449 . S
O1207 U1206 2.454 . S
O1207 C1209 1.353 . S
O1208 U1206 2.458 . S
O1208 C1209 1.286 . S
C1209 U1206 2.984 . S
C1209 O1207 1.353 . S
C1209 O1208 1.286 . S
C1209 C1211 1.363 . S
C1210 C1200 1.440 1_565 S
C1210 U1206 2.847 . S
C1210 O1224 1.249 . S
C1210 O1225 1.202 . S
C1211 C1209 1.363 . S
C1211 C1213 1.408 . S
C1211 C1216 1.342 . S
C1212 C1213 1.310 . S
C1212 C1215 1.461 . S
C1212 H1232 0.932 . S
C1213 C1211 1.408 . S
C1213 C1212 1.310 . S
C1213 H1233 0.930 . S
C1214 C1215 1.474 . S
C1214 C1216 1.285 . S
C1214 H1234 0.929 . S
C1215 C1212 1.461 . S
C1215 C1214 1.474 . S
C1216 C1211 1.342 . S
C1216 C1214 1.285 . S
C1216 H1235 0.930 . S
C1217 C1220 1.422 . S
C1217 C1222 1.245 1_545 S
C1217 C1223 1.429 1_545 S
C1218 C1221 1.260 . S
C1218 C1222 1.472 1_545 S
C1218 H1236 0.932 . S
C1219 C1220 1.384 . S
C1219 C1221 1.479 . S
C1219 H1237 0.929 . S
C1220 C1217 1.422 . S
C1220 C1219 1.384 . S
C1220 H1238 0.928 . S
C1221 C1218 1.260 . S
C1221 C1219 1.479 . S
C1222 C1217 1.245 1_565 S
C1222 C1218 1.472 1_565 S
C1222 H1239 0.937 . S
C1223 U1206 2.882 . S
C1223 C1217 1.429 1_565 S
C1223 O1226 1.301 . S
C1223 O1227 1.282 . S
O1224 U1206 2.441 . S
O1224 C1210 1.249 . S
O1225 U1206 2.420 . S
O1225 C1210 1.202 . S
O1226 U1206 2.455 . S
O1226 C1223 1.301 . S
O1227 U1206 2.449 . S
O1227 C1223 1.282 . S
H1228 C1201 0.931 . S
H1229 C1203 0.929 . S
H1230 C1204 0.930 . S
H1231 C1205 0.933 1_565 S
H1232 C1212 0.932 . S
H1233 C1213 0.930 . S
H1234 C1214 0.929 . S
H1235 C1216 0.930 . S
H1236 C1218 0.932 . S
H1237 C1219 0.929 . S
H1238 C1220 0.928 . S
H1239 C1222 0.937 . S
C1240 C1241 1.264 . S
C1240 C1245 1.479 . S
C1240 C1250 1.465 . S
C1241 C1240 1.264 . S
C1241 C1243 1.339 . S
C1241 H1268 0.931 . S
C1242 C1243 1.395 . S
C1242 C1244 1.320 . S
C1243 C1241 1.339 . S
C1243 C1242 1.395 . S
C1243 H1269 0.929 . S
C1244 C1242 1.320 . S
C1244 C1245 1.405 . S
C1244 H1270 0.930 . S
C1245 C1240 1.479 . S
C1245 C1244 1.405 . S
C1245 H1271 0.931 . S
U1246 O1247 2.454 . S
U1246 O1248 2.458 . S
U1246 C1249 2.984 . S
U1246 C1250 2.847 . S
U1246 C1263 2.882 . S
U1246 O1264 2.441 . S
U1246 O1265 2.420 . S
U1246 O1266 2.455 . S
U1246 O1267 2.449 . S
O1247 U1246 2.454 . S
O1247 C1249 1.353 . S
O1248 U1246 2.458 . S
O1248 C1249 1.286 . S
C1249 U1246 2.984 . S
C1249 O1247 1.353 . S
C1249 O1248 1.286 . S
C1249 C1251 1.363 . S
C1250 C1240 1.465 . S
C1250 U1246 2.847 . S
C1250 O1264 1.249 . S
C1250 O1265 1.202 . S
C1251 C1249 1.363 . S
C1251 C1253 1.408 . S
C1251 C1256 1.342 . S
C1252 C1253 1.310 . S
C1252 C1255 1.461 . S
C1252 H1272 0.932 . S
C1253 C1251 1.408 . S
C1253 C1252 1.310 . S
C1253 H1273 0.930 . S
C1254 C1255 1.474 . S
C1254 C1256 1.285 . S
C1254 H1274 0.929 . S
C1255 C1252 1.461 . S
C1255 C1254 1.474 . S
C1256 C1251 1.342 . S
C1256 C1254 1.285 . S
C1256 H1275 0.930 . S
C1257 C1260 1.424 . S
C1257 C1262 1.245 . S
C1257 C1263 1.428 . S
C1258 C1261 1.260 . S
C1258 C1262 1.477 . S
C1258 H1276 0.932 . S
C1259 C1260 1.384 . S
C1259 C1261 1.479 . S
C1259 H1277 0.929 . S
C1260 C1257 1.424 . S
C1260 C1259 1.384 . S
C1260 H1278 0.928 . S
C1261 C1258 1.260 . S
C1261 C1259 1.479 . S
C1262 C1257 1.245 . S
C1262 C1258 1.477 . S
C1262 H1279 0.932 . S
C1263 U1246 2.882 . S
C1263 C1257 1.428 . S
C1263 O1266 1.301 . S
C1263 O1267 1.282 . S
O1264 U1246 2.441 . S
O1264 C1250 1.249 . S
O1265 U1246 2.420 . S
O1265 C1250 1.202 . S
O1266 U1246 2.455 . S
O1266 C1263 1.301 . S
O1267 U1246 2.449 . S
O1267 C1263 1.282 . S
H1268 C1241 0.931 . S
H1269 C1243 0.929 . S
H1270 C1244 0.930 . S
H1271 C1245 0.931 . S
H1272 C1252 0.932 . S
H1273 C1253 0.930 . S
H1274 C1254 0.929 . S
H1275 C1256 0.930 . S
H1276 C1258 0.932 . S
H1277 C1259 0.929 . S
H1278 C1260 0.928 . S
H1279 C1262 0.932 . S
C1280 C1281 1.391 . S
C1280 C1282 1.394 . S
C1280 H1296 0.931 . S
C1281 C1280 1.391 . S
C1281 C1285 1.376 . S
C1282 C1280 1.394 . S
C1282 C1283 1.369 . S
C1282 C1286 1.531 . S
C1283 C1282 1.369 . S
C1283 C1284 1.410 . S
C1283 C1291 1.503 1_556 S
C1284 C1283 1.410 . S
C1284 C1285 1.392 . S
C1284 C1287 1.511 . S
C1285 C1281 1.376 . S
C1285 C1284 1.392 . S
C1285 H1297 0.929 . S
C1286 C1282 1.531 . S
C1286 H1298 0.960 1_556 S
C1286 H1299 0.962 . S
C1286 H1300 0.960 . S
C1287 C1284 1.511 . S
C1287 H1301 0.961 . S
C1287 H1302 0.961 1_556 S
C1287 H1303 0.961 1_556 S
C1288 C1289 1.370 . S
C1288 C1290 1.363 . S
C1288 H1304 0.931 . S
C1289 C1288 1.370 . S
C1289 C1293 1.408 . S
C1290 C1288 1.363 . S
C1290 C1291 1.370 . S
C1290 C1294 1.524 1_554 S
C1291 C1283 1.503 1_554 S
C1291 C1290 1.370 . S
C1291 C1292 1.403 . S
C1292 C1291 1.403 . S
C1292 C1293 1.404 . S
C1292 C1295 1.539 . S
C1293 C1289 1.408 . S
C1293 C1292 1.404 . S
C1293 H1305 0.930 . S
C1294 C1290 1.524 1_556 S
C1294 H1306 0.956 . S
C1294 H1307 0.961 . S
C1294 H1308 0.961 . S
C1295 C1292 1.539 . S
C1295 H1309 0.958 . S
C1295 H1310 0.961 . S
C1295 H1311 0.960 . S
H1296 C1280 0.931 . S
H1297 C1285 0.929 . S
H1298 C1286 0.960 1_554 S
H1299 C1286 0.962 . S
H1300 C1286 0.960 . S
H1301 C1287 0.961 . S
H1302 C1287 0.961 1_554 S
H1303 C1287 0.961 1_554 S
H1304 C1288 0.931 . S
H1305 C1293 0.930 . S
H1306 C1294 0.956 . S
H1307 C1294 0.961 . S
H1308 C1294 0.961 . S
H1309 C1295 0.958 . S
H1310 C1295 0.961 . S
H1311 C1295 0.960 . S
C1312 C1313 1.391 . S
C1312 C1314 1.394 . S
C1312 H1328 0.931 . S
C1313 C1312 1.391 . S
C1313 C1317 1.376 . S
C1314 C1312 1.394 . S
C1314 C1315 1.369 . S
C1314 C1318 1.531 . S
C1315 C1314 1.369 . S
C1315 C1316 1.410 . S
C1315 C1323 1.503 . S
C1316 C1315 1.410 . S
C1316 C1317 1.392 . S
C1316 C1319 1.511 . S
C1317 C1313 1.376 . S
C1317 C1316 1.392 . S
C1317 H1329 0.929 . S
C1318 C1314 1.531 . S
C1318 H1330 0.960 . S
C1318 H1331 0.962 . S
C1318 H1332 0.960 . S
C1319 C1316 1.511 . S
C1319 H1333 0.961 . S
C1319 H1334 0.961 . S
C1319 H1335 0.961 . S
C1320 C1321 1.370 . S
C1320 C1322 1.363 . S
C1320 H1336 0.931 . S
C1321 C1320 1.370 . S
C1321 C1325 1.408 . S
C1322 C1320 1.363 . S
C1322 C1323 1.370 . S
C1322 C1326 1.524 . S
C1323 C1315 1.503 . S
C1323 C1322 1.370 . S
C1323 C1324 1.403 . S
C1324 C1323 1.403 . S
C1324 C1325 1.404 . S
C1324 C1327 1.539 . S
C1325 C1321 1.408 . S
C1325 C1324 1.404 . S
C1325 H1337 0.930 . S
C1326 C1322 1.524 . S
C1326 H1338 0.956 . S
C1326 H1339 0.961 . S
C1326 H1340 0.961 . S
C1327 C1324 1.539 . S
C1327 H1341 0.958 . S
C1327 H1342 0.961 . S
C1327 H1343 0.960 . S
H1328 C1312 0.931 . S
H1329 C1317 0.929 . S
H1330 C1318 0.960 . S
H1331 C1318 0.962 . S
H1332 C1318 0.960 . S
H1333 C1319 0.961 . S
H1334 C1319 0.961 . S
H1335 C1319 0.961 . S
H1336 C1320 0.931 . S
H1337 C1325 0.930 . S
H1338 C1326 0.956 . S
H1339 C1326 0.961 . S
H1340 C1326 0.961 . S
H1341 C1327 0.958 . S
H1342 C1327 0.961 . S
H1343 C1327 0.960 . S
C1344 C1345 1.391 . S
C1344 C1346 1.394 . S
C1344 H1360 0.931 . S
C1345 C1344 1.391 . S
C1345 C1349 1.376 . S
C1346 C1344 1.394 . S
C1346 C1347 1.369 . S
C1346 C1350 1.531 . S
C1347 C1346 1.369 . S
C1347 C1348 1.410 . S
C1347 C1355 1.503 . S
C1348 C1347 1.410 . S
C1348 C1349 1.392 . S
C1348 C1351 1.511 . S
C1349 C1345 1.376 . S
C1349 C1348 1.392 . S
C1349 H1361 0.929 . S
C1350 C1346 1.531 . S
C1350 H1362 0.960 . S
C1350 H1363 0.962 . S
C1350 H1364 0.960 . S
C1351 C1348 1.511 . S
C1351 H1365 0.961 . S
C1351 H1366 0.961 . S
C1351 H1367 0.961 . S
C1352 C1353 1.370 . S
C1352 C1354 1.363 . S
C1352 H1368 0.931 . S
C1353 C1352 1.370 . S
C1353 C1357 1.408 . S
C1354 C1352 1.363 . S
C1354 C1355 1.370 . S
C1354 C1358 1.524 . S
C1355 C1347 1.503 . S
C1355 C1354 1.370 . S
C1355 C1356 1.403 . S
C1356 C1355 1.403 . S
C1356 C1357 1.404 . S
C1356 C1359 1.539 . S
C1357 C1353 1.408 . S
C1357 C1356 1.404 . S
C1357 H1369 0.930 . S
C1358 C1354 1.524 . S
C1358 H1370 0.956 . S
C1358 H1371 0.961 . S
C1358 H1372 0.961 . S
C1359 C1356 1.539 . S
C1359 H1373 0.958 . S
C1359 H1374 0.961 . S
C1359 H1375 0.960 . S
H1360 C1344 0.931 . S
H1361 C1349 0.929 . S
H1362 C1350 0.960 . S
H1363 C1350 0.962 . S
H1364 C1350 0.960 . S
H1365 C1351 0.961 . S
H1366 C1351 0.961 . S
H1367 C1351 0.961 . S
H1368 C1352 0.931 . S
H1369 C1357 0.930 . S
H1370 C1358 0.956 . S
H1371 C1358 0.961 . S
H1372 C1358 0.961 . S
H1373 C1359 0.958 . S
H1374 C1359 0.961 . S
H1375 C1359 0.960 . S
C1376 C1377 1.391 . S
C1376 C1378 1.394 . S
C1376 H1392 0.931 . S
C1377 C1376 1.391 . S
C1377 C1381 1.376 . S
C1378 C1376 1.394 . S
C1378 C1379 1.369 . S
C1378 C1382 1.531 . S
C1379 C1378 1.369 . S
C1379 C1380 1.410 . S
C1379 C1387 1.503 . S
C1380 C1379 1.410 . S
C1380 C1381 1.392 . S
C1380 C1383 1.511 . S
C1381 C1377 1.376 . S
C1381 C1380 1.392 . S
C1381 H1393 0.929 . S
C1382 C1378 1.531 . S
C1382 H1394 0.960 . S
C1382 H1395 0.962 . S
C1382 H1396 0.960 . S
C1383 C1380 1.511 . S
C1383 H1397 0.961 . S
C1383 H1398 0.961 . S
C1383 H1399 0.961 . S
C1384 C1385 1.370 . S
C1384 C1386 1.363 . S
C1384 H1400 0.931 . S
C1385 C1384 1.370 . S
C1385 C1389 1.408 . S
C1386 C1384 1.363 . S
C1386 C1387 1.370 . S
C1386 C1390 1.524 . S
C1387 C1379 1.503 . S
C1387 C1386 1.370 . S
C1387 C1388 1.403 . S
C1388 C1387 1.403 . S
C1388 C1389 1.404 . S
C1388 C1391 1.539 . S
C1389 C1385 1.408 . S
C1389 C1388 1.404 . S
C1389 H1401 0.930 . S
C1390 C1386 1.524 . S
C1390 H1402 0.956 . S
C1390 H1403 0.961 . S
C1390 H1404 0.961 . S
C1391 C1388 1.539 . S
C1391 H1405 0.958 . S
C1391 H1406 0.961 . S
C1391 H1407 0.960 . S
H1392 C1376 0.931 . S
H1393 C1381 0.929 . S
H1394 C1382 0.960 . S
H1395 C1382 0.962 . S
H1396 C1382 0.960 . S
H1397 C1383 0.961 . S
H1398 C1383 0.961 . S
H1399 C1383 0.961 . S
H1400 C1384 0.931 . S
H1401 C1389 0.930 . S
H1402 C1390 0.956 . S
H1403 C1390 0.961 . S
H1404 C1390 0.961 . S
H1405 C1391 0.958 . S
H1406 C1391 0.961 . S
H1407 C1391 0.960 . S
C1408 C1409 1.391 . S
C1408 C1410 1.394 . S
C1408 H1424 0.931 . S
C1409 C1408 1.391 . S
C1409 C1413 1.376 . S
C1410 C1408 1.394 . S
C1410 C1411 1.369 . S
C1410 C1414 1.531 . S
C1411 C1410 1.369 . S
C1411 C1412 1.410 . S
C1411 C1419 1.503 1_554 S
C1412 C1411 1.410 . S
C1412 C1413 1.392 . S
C1412 C1415 1.565 . S
C1413 C1409 1.376 . S
C1413 C1412 1.392 . S
C1413 H1425 0.929 . S
C1414 C1410 1.531 . S
C1414 H1426 0.960 1_554 S
C1414 H1427 0.962 . S
C1414 H1428 0.960 . S
C1415 C1412 1.565 . S
C1415 H1429 1.021 . S
C1415 H1430 0.914 1_554 S
C1415 H1431 0.905 1_554 S
C1416 C1417 1.370 . S
C1416 C1418 1.363 . S
C1416 H1432 0.931 . S
C1417 C1416 1.370 . S
C1417 C1421 1.408 . S
C1418 C1416 1.363 . S
C1418 C1419 1.370 . S
C1418 C1422 1.524 1_556 S
C1419 C1411 1.503 1_556 S
C1419 C1418 1.370 . S
C1419 C1420 1.403 . S
C1420 C1419 1.403 . S
C1420 C1421 1.404 . S
C1420 C1423 1.539 . S
C1421 C1417 1.408 . S
C1421 C1420 1.404 . S
C1421 H1433 0.930 . S
C1422 C1418 1.524 1_554 S
C1422 H1434 0.956 . S
C1422 H1435 0.961 . S
C1422 H1436 0.961 . S
C1423 C1420 1.539 . S
C1423 H1437 0.958 . S
C1423 H1438 0.961 . S
C1423 H1439 0.960 . S
H1424 C1408 0.931 . S
H1425 C1413 0.929 . S
H1426 C1414 0.960 1_556 S
H1427 C1414 0.962 . S
H1428 C1414 0.960 . S
H1429 C1415 1.021 . S
H1430 C1415 0.914 1_556 S
H1431 C1415 0.905 1_556 S
H1432 C1416 0.931 . S
H1433 C1421 0.930 . S
H1434 C1422 0.956 . S
H1435 C1422 0.961 . S
H1436 C1422 0.961 . S
H1437 C1423 0.958 . S
H1438 C1423 0.961 . S
H1439 C1423 0.960 . S
C1440 C1441 1.391 . S
C1440 C1442 1.394 . S
C1440 H1456 0.931 . S
C1441 C1440 1.391 . S
C1441 C1445 1.376 . S
C1442 C1440 1.394 . S
C1442 C1443 1.369 . S
C1442 C1446 1.531 . S
C1443 C1442 1.369 . S
C1443 C1444 1.410 . S
C1443 C1451 1.503 . S
C1444 C1443 1.410 . S
C1444 C1445 1.392 . S
C1444 C1447 1.511 . S
C1445 C1441 1.376 . S
C1445 C1444 1.392 . S
C1445 H1457 0.929 . S
C1446 C1442 1.531 . S
C1446 H1458 0.960 . S
C1446 H1459 0.962 . S
C1446 H1460 0.960 . S
C1447 C1444 1.511 . S
C1447 H1461 0.961 . S
C1447 H1462 0.961 . S
C1447 H1463 0.961 . S
C1448 C1449 1.370 . S
C1448 C1450 1.363 . S
C1448 H1464 0.931 . S
C1449 C1448 1.370 . S
C1449 C1453 1.408 . S
C1450 C1448 1.363 . S
C1450 C1451 1.370 . S
C1450 C1454 1.524 . S
C1451 C1443 1.503 . S
C1451 C1450 1.370 . S
C1451 C1452 1.403 . S
C1452 C1451 1.403 . S
C1452 C1453 1.404 . S
C1452 C1455 1.539 . S
C1453 C1449 1.408 . S
C1453 C1452 1.404 . S
C1453 H1465 0.930 . S
C1454 C1450 1.524 . S
C1454 H1466 0.956 . S
C1454 H1467 0.961 . S
C1454 H1468 0.961 . S
C1455 C1452 1.539 . S
C1455 H1469 0.958 . S
C1455 H1470 0.961 . S
C1455 H1471 0.960 . S
H1456 C1440 0.931 . S
H1457 C1445 0.929 . S
H1458 C1446 0.960 . S
H1459 C1446 0.962 . S
H1460 C1446 0.960 . S
H1461 C1447 0.961 . S
H1462 C1447 0.961 . S
H1463 C1447 0.961 . S
H1464 C1448 0.931 . S
H1465 C1453 0.930 . S
H1466 C1454 0.956 . S
H1467 C1454 0.961 . S
H1468 C1454 0.961 . S
H1469 C1455 0.958 . S
H1470 C1455 0.961 . S
H1471 C1455 0.960 . S
C1472 C1473 1.391 . S
C1472 C1474 1.394 . S
C1472 H1488 0.931 . S
C1473 C1472 1.391 . S
C1473 C1477 1.376 . S
C1474 C1472 1.394 . S
C1474 C1475 1.369 . S
C1474 C1478 1.531 . S
C1475 C1474 1.369 . S
C1475 C1476 1.410 . S
C1475 C1483 1.503 . S
C1476 C1475 1.410 . S
C1476 C1477 1.392 . S
C1476 C1479 1.511 . S
C1477 C1473 1.376 . S
C1477 C1476 1.392 . S
C1477 H1489 0.929 . S
C1478 C1474 1.531 . S
C1478 H1490 0.960 . S
C1478 H1491 0.962 . S
C1478 H1492 0.960 . S
C1479 C1476 1.511 . S
C1479 H1493 0.961 . S
C1479 H1494 0.961 . S
C1479 H1495 0.961 . S
C1480 C1481 1.370 . S
C1480 C1482 1.363 . S
C1480 H1496 0.931 . S
C1481 C1480 1.370 . S
C1481 C1485 1.408 . S
C1482 C1480 1.363 . S
C1482 C1483 1.370 . S
C1482 C1486 1.524 . S
C1483 C1475 1.503 . S
C1483 C1482 1.370 . S
C1483 C1484 1.403 . S
C1484 C1483 1.403 . S
C1484 C1485 1.404 . S
C1484 C1487 1.539 . S
C1485 C1481 1.408 . S
C1485 C1484 1.404 . S
C1485 H1497 0.930 . S
C1486 C1482 1.524 . S
C1486 H1498 0.956 . S
C1486 H1499 0.961 . S
C1486 H1500 0.961 . S
C1487 C1484 1.539 . S
C1487 H1501 0.958 . S
C1487 H1502 0.961 . S
C1487 H1503 0.960 . S
H1488 C1472 0.931 . S
H1489 C1477 0.929 . S
H1490 C1478 0.960 . S
H1491 C1478 0.962 . S
H1492 C1478 0.960 . S
H1493 C1479 0.961 . S
H1494 C1479 0.961 . S
H1495 C1479 0.961 . S
H1496 C1480 0.931 . S
H1497 C1485 0.930 . S
H1498 C1486 0.956 . S
H1499 C1486 0.961 . S
H1500 C1486 0.961 . S
H1501 C1487 0.958 . S
H1502 C1487 0.961 . S
H1503 C1487 0.960 . S
C1504 C1505 1.391 . S
C1504 C1506 1.394 . S
C1504 H1520 0.931 . S
C1505 C1504 1.391 . S
C1505 C1509 1.376 . S
C1506 C1504 1.394 . S
C1506 C1507 1.369 . S
C1506 C1510 1.531 . S
C1507 C1506 1.369 . S
C1507 C1508 1.410 . S
C1507 C1515 1.503 . S
C1508 C1507 1.410 . S
C1508 C1509 1.392 . S
C1508 C1511 1.511 . S
C1509 C1505 1.376 . S
C1509 C1508 1.392 . S
C1509 H1521 0.929 . S
C1510 C1506 1.531 . S
C1510 H1522 0.960 . S
C1510 H1523 0.962 . S
C1510 H1524 0.960 . S
C1511 C1508 1.511 . S
C1511 H1525 0.961 . S
C1511 H1526 0.961 . S
C1511 H1527 0.961 . S
C1512 C1513 1.370 . S
C1512 C1514 1.363 . S
C1512 H1528 0.931 . S
C1513 C1512 1.370 . S
C1513 C1517 1.408 . S
C1514 C1512 1.363 . S
C1514 C1515 1.370 . S
C1514 C1518 1.524 . S
C1515 C1507 1.503 . S
C1515 C1514 1.370 . S
C1515 C1516 1.403 . S
C1516 C1515 1.403 . S
C1516 C1517 1.404 . S
C1516 C1519 1.539 . S
C1517 C1513 1.408 . S
C1517 C1516 1.404 . S
C1517 H1529 0.930 . S
C1518 C1514 1.524 . S
C1518 H1530 0.956 . S
C1518 H1531 0.961 . S
C1518 H1532 0.961 . S
C1519 C1516 1.539 . S
C1519 H1533 0.958 . S
C1519 H1534 0.961 . S
C1519 H1535 0.960 . S
H1520 C1504 0.931 . S
H1521 C1509 0.929 . S
H1522 C1510 0.960 . S
H1523 C1510 0.962 . S
H1524 C1510 0.960 . S
H1525 C1511 0.961 . S
H1526 C1511 0.961 . S
H1527 C1511 0.961 . S
H1528 C1512 0.931 . S
H1529 C1517 0.930 . S
H1530 C1518 0.956 . S
H1531 C1518 0.961 . S
H1532 C1518 0.961 . S
H1533 C1519 0.958 . S
H1534 C1519 0.961 . S
H1535 C1519 0.960 . S
C1536 C1537 1.391 . S
C1536 C1538 1.394 . S
C1536 H1552 0.931 . S
C1537 C1536 1.391 . S
C1537 C1541 1.376 . S
C1538 C1536 1.394 . S
C1538 C1539 1.369 . S
C1538 C1542 1.531 . S
C1539 C1538 1.369 . S
C1539 C1540 1.410 . S
C1539 C1547 1.505 1_565 S
C1540 C1539 1.410 . S
C1540 C1541 1.392 . S
C1540 C1543 1.511 1_565 S
C1541 C1537 1.376 . S
C1541 C1540 1.392 . S
C1541 H1553 0.929 . S
C1542 C1538 1.531 . S
C1542 H1554 0.960 . S
C1542 H1555 0.962 . S
C1542 H1556 0.960 . S
C1543 C1540 1.511 1_545 S
C1543 H1557 0.961 . S
C1543 H1558 0.961 . S
C1543 H1559 0.961 1_545 S
C1544 C1545 1.370 . S
C1544 C1546 1.363 . S
C1544 H1560 0.931 . S
C1545 C1544 1.370 . S
C1545 C1549 1.408 1_545 S
C1546 C1544 1.363 . S
C1546 C1547 1.366 . S
C1546 C1550 1.524 . S
C1547 C1539 1.505 1_545 S
C1547 C1546 1.366 . S
C1547 C1548 1.406 1_545 S
C1548 C1547 1.406 1_565 S
C1548 C1549 1.404 . S
C1548 C1551 1.539 . S
C1549 C1545 1.408 1_565 S
C1549 C1548 1.404 . S
C1549 H1561 0.930 . S
C1550 C1546 1.524 . S
C1550 H1562 0.956 . S
C1550 H1563 0.961 . S
C1550 H1564 0.961 . S
C1551 C1548 1.539 . S
C1551 H1565 0.958 . S
C1551 H1566 0.961 . S
C1551 H1567 0.960 . S
H1552 C1536 0.931 . S
H1553 C1541 0.929 . S
H1554 C1542 0.960 . S
H1555 C1542 0.962 . S
H1556 C1542 0.960 . S
H1557 C1543 0.961 . S
H1558 C1543 0.961 . S
H1559 C1543 0.961 1_565 S
H1560 C1544 0.931 . S
H1561 C1549 0.930 . S
H1562 C1550 0.956 . S
H1563 C1550 0.961 . S
H1564 C1550 0.961 . S
H1565 C1551 0.958 . S
H1566 C1551 0.961 . S
H1567 C1551 0.960 . S
C1568 C1569 1.391 . S
C1568 C1570 1.394 . S
C1568 H1584 0.931 . S
C1569 C1568 1.391 . S
C1569 C1573 1.376 . S
C1570 C1568 1.394 . S
C1570 C1571 1.369 . S
C1570 C1574 1.531 . S
C1571 C1570 1.369 . S
C1571 C1572 1.410 . S
C1571 C1579 1.503 . S
C1572 C1571 1.410 . S
C1572 C1573 1.392 . S
C1572 C1575 1.511 . S
C1573 C1569 1.376 . S
C1573 C1572 1.392 . S
C1573 H1585 0.929 . S
C1574 C1570 1.531 . S
C1574 H1586 0.960 . S
C1574 H1587 0.962 . S
C1574 H1588 0.960 . S
C1575 C1572 1.511 . S
C1575 H1589 0.961 . S
C1575 H1590 0.961 . S
C1575 H1591 0.961 . S
C1576 C1577 1.370 . S
C1576 C1578 1.363 . S
C1576 H1592 0.931 . S
C1577 C1576 1.370 . S
C1577 C1581 1.408 . S
C1578 C1576 1.363 . S
C1578 C1579 1.370 . S
C1578 C1582 1.524 . S
C1579 C1571 1.503 . S
C1579 C1578 1.370 . S
C1579 C1580 1.403 . S
C1580 C1579 1.403 . S
C1580 C1581 1.404 . S
C1580 C1583 1.539 . S
C1581 C1577 1.408 . S
C1581 C1580 1.404 . S
C1581 H1593 0.930 . S
C1582 C1578 1.524 . S
C1582 H1594 0.956 . S
C1582 H1595 0.961 . S
C1582 H1596 0.961 . S
C1583 C1580 1.539 . S
C1583 H1597 0.958 . S
C1583 H1598 0.961 . S
C1583 H1599 0.960 . S
H1584 C1568 0.931 . S
H1585 C1573 0.929 . S
H1586 C1574 0.960 . S
H1587 C1574 0.962 . S
H1588 C1574 0.960 . S
H1589 C1575 0.961 . S
H1590 C1575 0.961 . S
H1591 C1575 0.961 . S
H1592 C1576 0.931 . S
H1593 C1581 0.930 . S
H1594 C1582 0.956 . S
H1595 C1582 0.961 . S
H1596 C1582 0.961 . S
H1597 C1583 0.958 . S
H1598 C1583 0.961 . S
H1599 C1583 0.960 . S
C1600 C1601 1.391 . S
C1600 C1602 1.380 1_545 S
C1600 H1616 0.931 . S
C1601 C1600 1.391 . S
C1601 C1605 1.376 . S
C1602 C1600 1.380 1_565 S
C1602 C1603 1.371 . S
C1602 C1606 1.545 . S
C1603 C1602 1.371 . S
C1603 C1604 1.410 1_565 S
C1603 C1611 1.503 1_554 S
C1604 C1603 1.410 1_545 S
C1604 C1605 1.392 . S
C1604 C1607 1.511 . S
C1605 C1601 1.376 . S
C1605 C1604 1.392 . S
C1605 H1617 0.929 . S
C1606 C1602 1.545 . S
C1606 H1618 0.960 . S
C1606 H1619 0.962 1_565 S
C1606 H1620 0.960 . S
C1607 C1604 1.511 . S
C1607 H1621 0.961 . S
C1607 H1622 0.961 1_554 S
C1607 H1623 0.961 1_545 S
C1608 C1609 1.370 1_545 S
C1608 C1610 1.363 . S
C1608 H1624 0.931 . S
C1609 C1608 1.370 1_565 S
C1609 C1613 1.408 . S
C1610 C1608 1.363 . S
C1610 C1611 1.370 1_545 S
C1610 C1614 1.524 . S
C1611 C1603 1.503 1_556 S
C1611 C1610 1.370 1_565 S
C1611 C1612 1.403 . S
C1612 C1611 1.403 . S
C1612 C1613 1.404 . S
C1612 C1615 1.582 . S
C1613 C1609 1.408 . S
C1613 C1612 1.404 . S
C1613 H1625 0.930 . S
C1614 C1610 1.524 . S
C1614 H1626 0.956 . S
C1614 H1627 0.961 . S
C1614 H1628 0.961 . S
C1615 C1612 1.582 . S
C1615 H1629 0.943 1_556 S
C1615 H1630 0.991 . S
C1615 H1631 0.908 1_556 S
H1616 C1600 0.931 . S
H1617 C1605 0.929 . S
H1618 C1606 0.960 . S
H1619 C1606 0.962 1_545 S
H1620 C1606 0.960 . S
H1621 C1607 0.961 . S
H1622 C1607 0.961 1_556 S
H1623 C1607 0.961 1_565 S
H1624 C1608 0.931 . S
H1625 C1613 0.930 . S
H1626 C1614 0.956 . S
H1627 C1614 0.961 . S
H1628 C1614 0.961 . S
H1629 C1615 0.943 1_554 S
H1630 C1615 0.991 . S
H1631 C1615 0.908 1_554 S
C1632 C1633 1.391 . S
C1632 C1634 1.394 . S
C1632 H1648 0.931 . S
C1633 C1632 1.391 . S
C1633 C1637 1.376 . S
C1634 C1632 1.394 . S
C1634 C1635 1.369 . S
C1634 C1638 1.531 . S
C1635 C1634 1.369 . S
C1635 C1636 1.410 . S
C1635 C1643 1.503 . S
C1636 C1635 1.410 . S
C1636 C1637 1.392 . S
C1636 C1639 1.511 . S
C1637 C1633 1.376 . S
C1637 C1636 1.392 . S
C1637 H1649 0.929 . S
C1638 C1634 1.531 . S
C1638 H1650 0.960 . S
C1638 H1651 0.962 . S
C1638 H1652 0.960 . S
C1639 C1636 1.511 . S
C1639 H1653 0.961 . S
C1639 H1654 0.961 . S
C1639 H1655 0.961 . S
C1640 C1641 1.370 . S
C1640 C1642 1.363 . S
C1640 H1656 0.931 . S
C1641 C1640 1.370 . S
C1641 C1645 1.408 . S
C1642 C1640 1.363 . S
C1642 C1643 1.370 . S
C1642 C1646 1.524 . S
C1643 C1635 1.503 . S
C1643 C1642 1.370 . S
C1643 C1644 1.403 . S
C1644 C1643 1.403 . S
C1644 C1645 1.404 . S
C1644 C1647 1.539 . S
C1645 C1641 1.408 . S
C1645 C1644 1.404 . S
C1645 H1657 0.930 . S
C1646 C1642 1.524 . S
C1646 H1658 0.956 . S
C1646 H1659 0.961 . S
C1646 H1660 0.961 . S
C1647 C1644 1.539 . S
C1647 H1661 0.958 . S
C1647 H1662 0.961 . S
C1647 H1663 0.960 . S
H1648 C1632 0.931 . S
H1649 C1637 0.929 . S
H1650 C1638 0.960 . S
H1651 C1638 0.962 . S
H1652 C1638 0.960 . S
H1653 C1639 0.961 . S
H1654 C1639 0.961 . S
H1655 C1639 0.961 . S
H1656 C1640 0.931 . S
H1657 C1645 0.930 . S
H1658 C1646 0.956 . S
H1659 C1646 0.961 . S
H1660 C1646 0.961 . S
H1661 C1647 0.958 . S
H1662 C1647 0.961 . S
H1663 C1647 0.960 . S
C1664 C1665 1.391 . S
C1664 C1666 1.394 . S
C1664 H1680 0.931 . S
C1665 C1664 1.391 . S
C1665 C1669 1.376 1_545 S
C1666 C1664 1.394 . S
C1666 C1667 1.369 . S
C1666 C1670 1.531 . S
C1667 C1666 1.369 . S
C1667 C1668 1.410 1_545 S
C1667 C1675 1.503 1_545 S
C1668 C1667 1.410 1_565 S
C1668 C1669 1.392 . S
C1668 C1671 1.511 . S
C1669 C1665 1.376 1_565 S
C1669 C1668 1.392 . S
C1669 H1681 0.929 . S
C1670 C1666 1.531 . S
C1670 H1682 0.960 . S
C1670 H1683 0.962 . S
C1670 H1684 0.960 . S
C1671 C1668 1.511 . S
C1671 H1685 0.961 . S
C1671 H1686 0.961 . S
C1671 H1687 0.961 . S
C1672 C1673 1.370 . S
C1672 C1674 1.363 . S
C1672 H1688 0.931 . S
C1673 C1672 1.370 . S
C1673 C1677 1.408 . S
C1674 C1672 1.363 . S
C1674 C1675 1.370 . S
C1674 C1678 1.524 . S
C1675 C1667 1.503 1_565 S
C1675 C1674 1.370 . S
C1675 C1676 1.403 1_565 S
C1676 C1675 1.403 1_545 S
C1676 C1677 1.404 1_545 S
C1676 C1679 1.539 . S
C1677 C1673 1.408 . S
C1677 C1676 1.404 1_565 S
C1677 H1689 0.938 . S
C1678 C1674 1.524 . S
C1678 H1690 0.956 . S
C1678 H1691 0.961 . S
C1678 H1692 0.961 . S
C1679 C1676 1.539 . S
C1679 H1693 0.958 . S
C1679 H1694 0.961 . S
C1679 H1695 0.960 . S
H1680 C1664 0.931 . S
H1681 C1669 0.929 . S
H1682 C1670 0.960 . S
H1683 C1670 0.962 . S
H1684 C1670 0.960 . S
H1685 C1671 0.961 . S
H1686 C1671 0.961 . S
H1687 C1671 0.961 . S
H1688 C1672 0.931 . S
H1689 C1677 0.938 . S
H1690 C1678 0.956 . S
H1691 C1678 0.961 . S
H1692 C1678 0.961 . S
H1693 C1679 0.958 . S
H1694 C1679 0.961 . S
H1695 C1679 0.960 . S
C1696 C1697 1.391 . S
C1696 C1698 1.394 . S
C1696 H1712 0.931 . S
C1697 C1696 1.391 . S
C1697 C1701 1.376 . S
C1698 C1696 1.394 . S
C1698 C1699 1.369 . S
C1698 C1702 1.531 . S
C1699 C1698 1.369 . S
C1699 C1700 1.410 . S
C1699 C1707 1.503 . S
C1700 C1699 1.410 . S
C1700 C1701 1.392 . S
C1700 C1703 1.511 . S
C1701 C1697 1.376 . S
C1701 C1700 1.392 . S
C1701 H1713 0.929 . S
C1702 C1698 1.531 . S
C1702 H1714 0.960 . S
C1702 H1715 0.962 . S
C1702 H1716 0.960 . S
C1703 C1700 1.511 . S
C1703 H1717 0.961 . S
C1703 H1718 0.961 . S
C1703 H1719 0.961 . S
C1704 C1705 1.370 . S
C1704 C1706 1.363 . S
C1704 H1720 0.931 . S
C1705 C1704 1.370 . S
C1705 C1709 1.408 . S
C1706 C1704 1.363 . S
C1706 C1707 1.370 . S
C1706 C1710 1.524 . S
C1707 C1699 1.503 . S
C1707 C1706 1.370 . S
C1707 C1708 1.403 . S
C1708 C1707 1.403 . S
C1708 C1709 1.404 . S
C1708 C1711 1.539 . S
C1709 C1705 1.408 . S
C1709 C1708 1.404 . S
C1709 H1721 0.930 . S
C1710 C1706 1.524 . S
C1710 H1722 0.956 . S
C1710 H1723 0.961 . S
C1710 H1724 0.961 . S
C1711 C1708 1.539 . S
C1711 H1725 0.958 . S
C1711 H1726 0.961 . S
C1711 H1727 0.960 . S
H1712 C1696 0.931 . S
H1713 C1701 0.929 . S
H1714 C1702 0.960 . S
H1715 C1702 0.962 . S
H1716 C1702 0.960 . S
H1717 C1703 0.961 . S
H1718 C1703 0.961 . S
H1719 C1703 0.961 . S
H1720 C1704 0.931 . S
H1721 C1709 0.930 . S
H1722 C1710 0.956 . S
H1723 C1710 0.961 . S
H1724 C1710 0.961 . S
H1725 C1711 0.958 . S
H1726 C1711 0.961 . S
H1727 C1711 0.960 . S
C1728 C1729 1.391 . S
C1728 C1730 1.394 . S
C1728 H1744 0.931 . S
C1729 C1728 1.391 . S
C1729 C1733 1.362 1_565 S
C1730 C1728 1.394 . S
C1730 C1731 1.369 . S
C1730 C1734 1.563 . S
C1731 C1730 1.369 . S
C1731 C1732 1.410 1_565 S
C1731 C1739 1.484 1_566 S
C1732 C1731 1.410 1_545 S
C1732 C1733 1.397 . S
C1732 C1735 1.511 . S
C1733 C1729 1.362 1_545 S
C1733 C1732 1.397 . S
C1733 H1745 0.939 . S
C1734 C1730 1.563 . S
C1734 H1746 0.919 1_556 S
C1734 H1747 0.955 1_556 S
C1734 H1748 0.977 . S
C1735 C1732 1.511 . S
C1735 H1749 0.961 . S
C1735 H1750 0.961 . S
C1735 H1751 0.961 . S
C1736 C1737 1.370 . S
C1736 C1738 1.363 . S
C1736 H1752 0.931 . S
C1737 C1736 1.370 . S
C1737 C1741 1.418 . S
C1738 C1736 1.363 . S
C1738 C1739 1.413 . S
C1738 C1742 1.607 . S
C1739 C1731 1.484 1_544 S
C1739 C1738 1.413 . S
C1739 C1740 1.381 1_545 S
C1740 C1739 1.381 1_565 S
C1740 C1741 1.399 1_565 S
C1740 C1743 1.539 . S
C1741 C1737 1.418 . S
C1741 C1740 1.399 1_545 S
C1741 H1753 0.925 1_545 S
C1742 C1738 1.607 . S
C1742 H1754 0.925 1_554 S
C1742 H1755 0.869 1_554 S
C1742 H1756 1.019 . S
C1743 C1740 1.539 . S
C1743 H1757 0.958 . S
C1743 H1758 0.961 . S
C1743 H1759 0.960 . S
H1744 C1728 0.931 . S
H1745 C1733 0.939 . S
H1746 C1734 0.919 1_554 S
H1747 C1734 0.955 1_554 S
H1748 C1734 0.977 . S
H1749 C1735 0.961 . S
H1750 C1735 0.961 . S
H1751 C1735 0.961 . S
H1752 C1736 0.931 . S
H1753 C1741 0.925 1_565 S
H1754 C1742 0.925 1_556 S
H1755 C1742 0.869 1_556 S
H1756 C1742 1.019 . S
H1757 C1743 0.958 . S
H1758 C1743 0.961 . S
H1759 C1743 0.960 . S
C1760 C1761 1.391 . S
C1760 C1762 1.394 . S
C1760 H1776 0.931 . S
C1761 C1760 1.391 . S
C1761 C1765 1.376 . S
C1762 C1760 1.394 . S
C1762 C1763 1.369 . S
C1762 C1766 1.531 . S
C1763 C1762 1.369 . S
C1763 C1764 1.410 . S
C1763 C1771 1.503 . S
C1764 C1763 1.410 . S
C1764 C1765 1.392 . S
C1764 C1767 1.511 . S
C1765 C1761 1.376 . S
C1765 C1764 1.392 . S
C1765 H1777 0.929 . S
C1766 C1762 1.531 . S
C1766 H1778 0.960 . S
C1766 H1779 0.962 . S
C1766 H1780 0.960 . S
C1767 C1764 1.511 . S
C1767 H1781 0.961 . S
C1767 H1782 0.961 . S
C1767 H1783 0.961 . S
C1768 C1769 1.370 . S
C1768 C1770 1.363 . S
C1768 H1784 0.931 . S
C1769 C1768 1.370 . S
C1769 C1773 1.408 . S
C1770 C1768 1.363 . S
C1770 C1771 1.370 . S
C1770 C1774 1.524 . S
C1771 C1763 1.503 . S
C1771 C1770 1.370 . S
C1771 C1772 1.403 . S
C1772 C1771 1.403 . S
C1772 C1773 1.404 . S
C1772 C1775 1.539 . S
C1773 C1769 1.408 . S
C1773 C1772 1.404 . S
C1773 H1785 0.930 . S
C1774 C1770 1.524 . S
C1774 H1786 0.956 . S
C1774 H1787 0.961 . S
C1774 H1788 0.961 . S
C1775 C1772 1.539 . S
C1775 H1789 0.958 . S
C1775 H1790 0.961 . S
C1775 H1791 0.960 . S
H1776 C1760 0.931 . S
H1777 C1765 0.929 . S
H1778 C1766 0.960 . S
H1779 C1766 0.962 . S
H1780 C1766 0.960 . S
H1781 C1767 0.961 . S
H1782 C1767 0.961 . S
H1783 C1767 0.961 . S
H1784 C1768 0.931 . S
H1785 C1773 0.930 . S
H1786 C1774 0.956 . S
H1787 C1774 0.961 . S
H1788 C1774 0.961 . S
H1789 C1775 0.958 . S
H1790 C1775 0.961 . S
H1791 C1775 0.960 . S
C1792 C1793 1.391 . S
C1792 C1794 1.394 . S
C1792 H1808 0.931 . S
C1793 C1792 1.391 . S
C1793 C1797 1.376 . S
C1794 C1792 1.394 . S
C1794 C1795 1.369 . S
C1794 C1798 1.531 . S
C1795 C1794 1.369 . S
C1795 C1796 1.410 . S
C1795 C1803 1.503 1_655 S
C1796 C1795 1.410 . S
C1796 C1797 1.392 . S
C1796 C1799 1.511 . S
C1797 C1793 1.376 . S
C1797 C1796 1.392 . S
C1797 H1809 0.929 . S
C1798 C1794 1.531 . S
C1798 H1810 0.960 1_655 S
C1798 H1811 0.962 . S
C1798 H1812 0.960 . S
C1799 C1796 1.511 . S
C1799 H1813 0.961 . S
C1799 H1814 0.961 1_655 S
C1799 H1815 0.961 . S
C1800 C1801 1.370 . S
C1800 C1802 1.363 . S
C1800 H1816 0.931 . S
C1801 C1800 1.370 . S
C1801 C1805 1.408 . S
C1802 C1800 1.363 . S
C1802 C1803 1.370 . S
C1802 C1806 1.524 . S
C1803 C1795 1.503 1_455 S
C1803 C1802 1.370 . S
C1803 C1804 1.403 . S
C1804 C1803 1.403 . S
C1804 C1805 1.404 . S
C1804 C1807 1.539 . S
C1805 C1801 1.408 . S
C1805 C1804 1.404 . S
C1805 H1817 0.930 . S
C1806 C1802 1.524 . S
C1806 H1818 0.982 . S
C1806 H1819 0.918 1_455 S
C1806 H1820 0.961 . S
C1807 C1804 1.539 . S
C1807 H1821 0.958 . S
C1807 H1822 0.961 . S
C1807 H1823 0.967 . S
H1808 C1792 0.931 . S
H1809 C1797 0.929 . S
H1810 C1798 0.960 1_455 S
H1811 C1798 0.962 . S
H1812 C1798 0.960 . S
H1813 C1799 0.961 . S
H1814 C1799 0.961 1_455 S
H1815 C1799 0.961 . S
H1816 C1800 0.931 . S
H1817 C1805 0.930 . S
H1818 C1806 0.982 . S
H1819 C1806 0.918 1_655 S
H1820 C1806 0.961 . S
H1821 C1807 0.958 . S
H1822 C1807 0.961 . S
H1823 C1807 0.967 . S
C1824 C1825 1.391 . S
C1824 C1826 1.394 . S
C1824 H1840 0.931 . S
C1825 C1824 1.391 . S
C1825 C1829 1.376 . S
C1826 C1824 1.394 . S
C1826 C1827 1.369 . S
C1826 C1830 1.531 . S
C1827 C1826 1.369 . S
C1827 C1828 1.410 . S
C1827 C1835 1.503 . S
C1828 C1827 1.410 . S
C1828 C1829 1.392 . S
C1828 C1831 1.511 . S
C1829 C1825 1.376 . S
C1829 C1828 1.392 . S
C1829 H1841 0.929 . S
C1830 C1826 1.531 . S
C1830 H1842 0.960 . S
C1830 H1843 0.962 . S
C1830 H1844 0.960 . S
C1831 C1828 1.511 . S
C1831 H1845 0.961 . S
C1831 H1846 0.961 . S
C1831 H1847 0.961 . S
C1832 C1833 1.370 . S
C1832 C1834 1.363 . S
C1832 H1848 0.931 . S
C1833 C1832 1.370 . S
C1833 C1837 1.408 . S
C1834 C1832 1.363 . S
C1834 C1835 1.370 . S
C1834 C1838 1.524 . S
C1835 C1827 1.503 . S
C1835 C1834 1.370 . S
C1835 C1836 1.403 . S
C1836 C1835 1.403 . S
C1836 C1837 1.404 . S
C1836 C1839 1.539 . S
C1837 C1833 1.408 . S
C1837 C1836 1.404 . S
C1837 H1849 0.930 . S
C1838 C1834 1.524 . S
C1838 H1850 0.956 . S
C1838 H1851 0.961 . S
C1838 H1852 0.961 . S
C1839 C1836 1.539 . S
C1839 H1853 0.958 . S
C1839 H1854 0.961 . S
C1839 H1855 0.960 . S
H1840 C1824 0.931 . S
H1841 C1829 0.929 . S
H1842 C1830 0.960 . S
H1843 C1830 0.962 . S
H1844 C1830 0.960 . S
H1845 C1831 0.961 . S
H1846 C1831 0.961 . S
H1847 C1831 0.961 . S
H1848 C1832 0.931 . S
H1849 C1837 0.930 . S
H1850 C1838 0.956 . S
H1851 C1838 0.961 . S
H1852 C1838 0.961 . S
H1853 C1839 0.958 . S
H1854 C1839 0.961 . S
H1855 C1839 0.960 . S
C1856 C1857 1.391 . S
C1856 C1858 1.394 . S
C1856 H1872 0.931 . S
C1857 C1856 1.391 . S
C1857 C1861 1.376 . S
C1858 C1856 1.394 . S
C1858 C1859 1.369 . S
C1858 C1862 1.531 . S
C1859 C1858 1.369 . S
C1859 C1860 1.410 . S
C1859 C1867 1.503 . S
C1860 C1859 1.410 . S
C1860 C1861 1.392 . S
C1860 C1863 1.511 . S
C1861 C1857 1.376 . S
C1861 C1860 1.392 . S
C1861 H1873 0.929 . S
C1862 C1858 1.531 . S
C1862 H1874 0.960 . S
C1862 H1875 0.962 . S
C1862 H1876 0.960 . S
C1863 C1860 1.511 . S
C1863 H1877 0.961 . S
C1863 H1878 0.961 . S
C1863 H1879 0.961 . S
C1864 C1865 1.370 . S
C1864 C1866 1.363 . S
C1864 H1880 0.931 . S
C1865 C1864 1.370 . S
C1865 C1869 1.408 . S
C1866 C1864 1.363 . S
C1866 C1867 1.370 . S
C1866 C1870 1.524 . S
C1867 C1859 1.503 . S
C1867 C1866 1.370 . S
C1867 C1868 1.403 . S
C1868 C1867 1.403 . S
C1868 C1869 1.404 . S
C1868 C1871 1.539 . S
C1869 C1865 1.408 . S
C1869 C1868 1.404 . S
C1869 H1881 0.930 . S
C1870 C1866 1.524 . S
C1870 H1882 0.956 . S
C1870 H1883 0.961 . S
C1870 H1884 0.961 . S
C1871 C1868 1.539 . S
C1871 H1885 0.958 . S
C1871 H1886 0.961 . S
C1871 H1887 0.960 . S
H1872 C1856 0.931 . S
H1873 C1861 0.929 . S
H1874 C1862 0.960 . S
H1875 C1862 0.962 . S
H1876 C1862 0.960 . S
H1877 C1863 0.961 . S
H1878 C1863 0.961 . S
H1879 C1863 0.961 . S
H1880 C1864 0.931 . S
H1881 C1869 0.930 . S
H1882 C1870 0.956 . S
H1883 C1870 0.961 . S
H1884 C1870 0.961 . S
H1885 C1871 0.958 . S
H1886 C1871 0.961 . S
H1887 C1871 0.960 . S
C1888 C1889 1.391 . S
C1888 C1890 1.394 . S
C1888 H1904 0.931 . S
C1889 C1888 1.391 . S
C1889 C1893 1.376 . S
C1890 C1888 1.394 . S
C1890 C1891 1.369 . S
C1890 C1894 1.531 . S
C1891 C1890 1.369 . S
C1891 C1892 1.410 . S
C1891 C1899 1.503 . S
C1892 C1891 1.410 . S
C1892 C1893 1.392 . S
C1892 C1895 1.511 . S
C1893 C1889 1.376 . S
C1893 C1892 1.392 . S
C1893 H1905 0.929 . S
C1894 C1890 1.531 . S
C1894 H1906 0.960 . S
C1894 H1907 0.962 . S
C1894 H1908 0.960 . S
C1895 C1892 1.511 . S
C1895 H1909 0.961 . S
C1895 H1910 0.961 . S
C1895 H1911 0.961 . S
C1896 C1897 1.370 . S
C1896 C1898 1.363 . S
C1896 H1912 0.931 . S
C1897 C1896 1.370 . S
C1897 C1901 1.408 . S
C1898 C1896 1.363 . S
C1898 C1899 1.370 . S
C1898 C1902 1.524 . S
C1899 C1891 1.503 . S
C1899 C1898 1.370 . S
C1899 C1900 1.403 . S
C1900 C1899 1.403 . S
C1900 C1901 1.404 . S
C1900 C1903 1.539 . S
C1901 C1897 1.408 . S
C1901 C1900 1.404 . S
C1901 H1913 0.930 . S
C1902 C1898 1.524 . S
C1902 H1914 0.956 . S
C1902 H1915 0.961 . S
C1902 H1916 0.961 . S
C1903 C1900 1.539 . S
C1903 H1917 0.958 . S
C1903 H1918 0.961 . S
C1903 H1919 0.960 . S
H1904 C1888 0.931 . S
H1905 C1893 0.929 . S
H1906 C1894 0.960 . S
H1907 C1894 0.962 . S
H1908 C1894 0.960 . S
H1909 C1895 0.961 . S
H1910 C1895 0.961 . S
H1911 C1895 0.961 . S
H1912 C1896 0.931 . S
H1913 C1901 0.930 . S
H1914 C1902 0.956 . S
H1915 C1902 0.961 . S
H1916 C1902 0.961 . S
H1917 C1903 0.958 . S
H1918 C1903 0.961 . S
H1919 C1903 0.960 . S
C1920 C1921 1.391 . S
C1920 C1922 1.394 . S
C1920 H1936 0.931 . S
C1921 C1920 1.391 . S
C1921 C1925 1.376 . S
C1922 C1920 1.394 . S
C1922 C1923 1.369 . S
C1922 C1926 1.531 . S
C1923 C1922 1.369 . S
C1923 C1924 1.410 . S
C1923 C1931 1.503 1_655 S
C1924 C1923 1.410 . S
C1924 C1925 1.392 . S
C1924 C1927 1.511 . S
C1925 C1921 1.376 . S
C1925 C1924 1.392 . S
C1925 H1937 0.929 . S
C1926 C1922 1.531 . S
C1926 H1938 0.960 1_655 S
C1926 H1939 0.962 . S
C1926 H1940 0.960 . S
C1927 C1924 1.511 . S
C1927 H1941 0.961 . S
C1927 H1942 0.961 1_655 S
C1927 H1943 0.961 . S
C1928 C1929 1.370 . S
C1928 C1930 1.363 . S
C1928 H1944 0.931 . S
C1929 C1928 1.370 . S
C1929 C1933 1.408 . S
C1930 C1928 1.363 . S
C1930 C1931 1.370 . S
C1930 C1934 1.524 . S
C1931 C1923 1.503 1_455 S
C1931 C1930 1.370 . S
C1931 C1932 1.403 . S
C1932 C1931 1.403 . S
C1932 C1933 1.404 . S
C1932 C1935 1.539 . S
C1933 C1929 1.408 . S
C1933 C1932 1.404 . S
C1933 H1945 0.930 . S
C1934 C1930 1.524 . S
C1934 H1946 0.983 . S
C1934 H1947 0.919 1_455 S
C1934 H1948 0.961 . S
C1935 C1932 1.539 . S
C1935 H1949 0.958 . S
C1935 H1950 0.961 . S
C1935 H1951 0.967 . S
H1936 C1920 0.931 . S
H1937 C1925 0.929 . S
H1938 C1926 0.960 1_455 S
H1939 C1926 0.962 . S
H1940 C1926 0.960 . S
H1941 C1927 0.961 . S
H1942 C1927 0.961 1_455 S
H1943 C1927 0.961 . S
H1944 C1928 0.931 . S
H1945 C1933 0.930 . S
H1946 C1934 0.983 . S
H1947 C1934 0.919 1_655 S
H1948 C1934 0.961 . S
H1949 C1935 0.958 . S
H1950 C1935 0.961 . S
H1951 C1935 0.967 . S
C1952 C1953 1.391 . S
C1952 C1954 1.394 . S
C1952 H1968 0.931 . S
C1953 C1952 1.391 . S
C1953 C1957 1.376 . S
C1954 C1952 1.394 . S
C1954 C1955 1.369 . S
C1954 C1958 1.531 . S
C1955 C1954 1.369 . S
C1955 C1956 1.410 . S
C1955 C1963 1.503 . S
C1956 C1955 1.410 . S
C1956 C1957 1.392 . S
C1956 C1959 1.511 . S
C1957 C1953 1.376 . S
C1957 C1956 1.392 . S
C1957 H1969 0.929 . S
C1958 C1954 1.531 . S
C1958 H1970 0.960 . S
C1958 H1971 0.962 . S
C1958 H1972 0.960 . S
C1959 C1956 1.511 . S
C1959 H1973 0.961 . S
C1959 H1974 0.961 . S
C1959 H1975 0.961 . S
C1960 C1961 1.370 . S
C1960 C1962 1.363 . S
C1960 H1976 0.931 . S
C1961 C1960 1.370 . S
C1961 C1965 1.408 . S
C1962 C1960 1.363 . S
C1962 C1963 1.370 . S
C1962 C1966 1.524 . S
C1963 C1955 1.503 . S
C1963 C1962 1.370 . S
C1963 C1964 1.403 . S
C1964 C1963 1.403 . S
C1964 C1965 1.404 . S
C1964 C1967 1.539 . S
C1965 C1961 1.408 . S
C1965 C1964 1.404 . S
C1965 H1977 0.930 . S
C1966 C1962 1.524 . S
C1966 H1978 0.956 . S
C1966 H1979 0.961 . S
C1966 H1980 0.961 . S
C1967 C1964 1.539 . S
C1967 H1981 0.958 . S
C1967 H1982 0.961 . S
C1967 H1983 0.960 . S
H1968 C1952 0.931 . S
H1969 C1957 0.929 . S
H1970 C1958 0.960 . S
H1971 C1958 0.962 . S
H1972 C1958 0.960 . S
H1973 C1959 0.961 . S
H1974 C1959 0.961 . S
H1975 C1959 0.961 . S
H1976 C1960 0.931 . S
H1977 C1965 0.930 . S
H1978 C1966 0.956 . S
H1979 C1966 0.961 . S
H1980 C1966 0.961 . S
H1981 C1967 0.958 . S
H1982 C1967 0.961 . S
H1983 C1967 0.960 . S
C1984 C1985 1.391 . S
C1984 C1986 1.394 . S
C1984 H2000 0.931 . S
C1985 C1984 1.391 . S
C1985 C1989 1.376 . S
C1986 C1984 1.394 . S
C1986 C1987 1.369 . S
C1986 C1990 1.531 . S
C1987 C1986 1.369 . S
C1987 C1988 1.410 . S
C1987 C1995 1.503 . S
C1988 C1987 1.410 . S
C1988 C1989 1.392 . S
C1988 C1991 1.511 . S
C1989 C1985 1.376 . S
C1989 C1988 1.392 . S
C1989 H2001 0.929 . S
C1990 C1986 1.531 . S
C1990 H2002 0.960 . S
C1990 H2003 0.962 . S
C1990 H2004 0.960 . S
C1991 C1988 1.511 . S
C1991 H2005 0.961 . S
C1991 H2006 0.961 . S
C1991 H2007 0.961 . S
C1992 C1993 1.370 . S
C1992 C1994 1.363 . S
C1992 H2008 0.931 . S
C1993 C1992 1.370 . S
C1993 C1997 1.408 . S
C1994 C1992 1.363 . S
C1994 C1995 1.370 . S
C1994 C1998 1.524 . S
C1995 C1987 1.503 . S
C1995 C1994 1.370 . S
C1995 C1996 1.403 . S
C1996 C1995 1.403 . S
C1996 C1997 1.404 . S
C1996 C1999 1.539 . S
C1997 C1993 1.408 . S
C1997 C1996 1.404 . S
C1997 H2009 0.930 . S
C1998 C1994 1.524 . S
C1998 H2010 0.956 . S
C1998 H2011 0.961 . S
C1998 H2012 0.961 . S
C1999 C1996 1.539 . S
C1999 H2013 0.958 . S
C1999 H2014 0.961 . S
C1999 H2015 0.960 . S
H2000 C1984 0.931 . S
H2001 C1989 0.929 . S
H2002 C1990 0.960 . S
H2003 C1990 0.962 . S
H2004 C1990 0.960 . S
H2005 C1991 0.961 . S
H2006 C1991 0.961 . S
H2007 C1991 0.961 . S
H2008 C1992 0.931 . S
H2009 C1997 0.930 . S
H2010 C1998 0.956 . S
H2011 C1998 0.961 . S
H2012 C1998 0.961 . S
H2013 C1999 0.958 . S
H2014 C1999 0.961 . S
H2015 C1999 0.960 . S
C2016 C2017 1.391 . S
C2016 C2018 1.394 . S
C2016 H2032 0.931 . S
C2017 C2016 1.391 . S
C2017 C2021 1.376 . S
C2018 C2016 1.394 . S
C2018 C2019 1.369 . S
C2018 C2022 1.531 . S
C2019 C2018 1.369 . S
C2019 C2020 1.410 . S
C2019 C2027 1.503 . S
C2020 C2019 1.410 . S
C2020 C2021 1.392 . S
C2020 C2023 1.511 . S
C2021 C2017 1.376 . S
C2021 C2020 1.392 . S
C2021 H2033 0.929 . S
C2022 C2018 1.531 . S
C2022 H2034 0.960 . S
C2022 H2035 0.962 . S
C2022 H2036 0.960 . S
C2023 C2020 1.511 . S
C2023 H2037 0.961 . S
C2023 H2038 0.961 . S
C2023 H2039 0.961 . S
C2024 C2025 1.370 . S
C2024 C2026 1.363 . S
C2024 H2040 0.931 . S
C2025 C2024 1.370 . S
C2025 C2029 1.408 . S
C2026 C2024 1.363 . S
C2026 C2027 1.370 . S
C2026 C2030 1.524 . S
C2027 C2019 1.503 . S
C2027 C2026 1.370 . S
C2027 C2028 1.403 . S
C2028 C2027 1.403 . S
C2028 C2029 1.404 . S
C2028 C2031 1.539 . S
C2029 C2025 1.408 . S
C2029 C2028 1.404 . S
C2029 H2041 0.930 . S
C2030 C2026 1.524 . S
C2030 H2042 0.956 . S
C2030 H2043 0.961 . S
C2030 H2044 0.961 . S
C2031 C2028 1.539 . S
C2031 H2045 0.958 . S
C2031 H2046 0.961 . S
C2031 H2047 0.960 . S
H2032 C2016 0.931 . S
H2033 C2021 0.929 . S
H2034 C2022 0.960 . S
H2035 C2022 0.962 . S
H2036 C2022 0.960 . S
H2037 C2023 0.961 . S
H2038 C2023 0.961 . S
H2039 C2023 0.961 . S
H2040 C2024 0.931 . S
H2041 C2029 0.930 . S
H2042 C2030 0.956 . S
H2043 C2030 0.961 . S
H2044 C2030 0.961 . S
H2045 C2031 0.958 . S
H2046 C2031 0.961 . S
H2047 C2031 0.960 . S
C2048 C2049 1.391 . S
C2048 C2050 1.394 . S
C2048 H2064 0.931 . S
C2049 C2048 1.391 . S
C2049 C2053 1.376 . S
C2050 C2048 1.394 . S
C2050 C2051 1.369 . S
C2050 C2054 1.531 . S
C2051 C2050 1.369 . S
C2051 C2052 1.410 . S
C2051 C2059 1.503 . S
C2052 C2051 1.410 . S
C2052 C2053 1.392 . S
C2052 C2055 1.511 . S
C2053 C2049 1.376 . S
C2053 C2052 1.392 . S
C2053 H2065 0.929 . S
C2054 C2050 1.531 . S
C2054 H2066 0.960 . S
C2054 H2067 0.962 . S
C2054 H2068 0.960 . S
C2055 C2052 1.511 . S
C2055 H2069 0.961 . S
C2055 H2070 0.961 . S
C2055 H2071 0.961 . S
C2056 C2057 1.370 . S
C2056 C2058 1.363 . S
C2056 H2072 0.931 . S
C2057 C2056 1.370 . S
C2057 C2061 1.408 . S
C2058 C2056 1.363 . S
C2058 C2059 1.370 . S
C2058 C2062 1.524 . S
C2059 C2051 1.503 . S
C2059 C2058 1.370 . S
C2059 C2060 1.403 . S
C2060 C2059 1.403 . S
C2060 C2061 1.404 . S
C2060 C2063 1.539 . S
C2061 C2057 1.408 . S
C2061 C2060 1.404 . S
C2061 H2073 0.930 . S
C2062 C2058 1.524 . S
C2062 H2074 0.956 . S
C2062 H2075 0.961 . S
C2062 H2076 0.961 . S
C2063 C2060 1.539 . S
C2063 H2077 0.958 . S
C2063 H2078 0.961 . S
C2063 H2079 0.960 . S
H2064 C2048 0.931 . S
H2065 C2053 0.929 . S
H2066 C2054 0.960 . S
H2067 C2054 0.962 . S
H2068 C2054 0.960 . S
H2069 C2055 0.961 . S
H2070 C2055 0.961 . S
H2071 C2055 0.961 . S
H2072 C2056 0.931 . S
H2073 C2061 0.930 . S
H2074 C2062 0.956 . S
H2075 C2062 0.961 . S
H2076 C2062 0.961 . S
H2077 C2063 0.958 . S
H2078 C2063 0.961 . S
H2079 C2063 0.960 . S
C2080 C2081 1.391 . S
C2080 C2082 1.394 . S
C2080 H2096 0.931 . S
C2081 C2080 1.391 . S
C2081 C2085 1.376 . S
C2082 C2080 1.394 . S
C2082 C2083 1.369 . S
C2082 C2086 1.531 . S
C2083 C2082 1.369 . S
C2083 C2084 1.410 . S
C2083 C2091 1.503 . S
C2084 C2083 1.410 . S
C2084 C2085 1.392 . S
C2084 C2087 1.511 . S
C2085 C2081 1.376 . S
C2085 C2084 1.392 . S
C2085 H2097 0.929 . S
C2086 C2082 1.531 . S
C2086 H2098 0.960 . S
C2086 H2099 0.962 . S
C2086 H2100 0.960 . S
C2087 C2084 1.511 . S
C2087 H2101 0.961 . S
C2087 H2102 0.961 . S
C2087 H2103 0.961 . S
C2088 C2089 1.370 . S
C2088 C2090 1.363 . S
C2088 H2104 0.931 . S
C2089 C2088 1.370 . S
C2089 C2093 1.408 . S
C2090 C2088 1.363 . S
C2090 C2091 1.370 . S
C2090 C2094 1.524 . S
C2091 C2083 1.503 . S
C2091 C2090 1.370 . S
C2091 C2092 1.403 . S
C2092 C2091 1.403 . S
C2092 C2093 1.404 . S
C2092 C2095 1.539 . S
C2093 C2089 1.408 . S
C2093 C2092 1.404 . S
C2093 H2105 0.930 . S
C2094 C2090 1.524 . S
C2094 H2106 0.956 . S
C2094 H2107 0.961 . S
C2094 H2108 0.961 . S
C2095 C2092 1.539 . S
C2095 H2109 0.958 . S
C2095 H2110 0.961 . S
C2095 H2111 0.960 . S
H2096 C2080 0.931 . S
H2097 C2085 0.929 . S
H2098 C2086 0.960 . S
H2099 C2086 0.962 . S
H2100 C2086 0.960 . S
H2101 C2087 0.961 . S
H2102 C2087 0.961 . S
H2103 C2087 0.961 . S
H2104 C2088 0.931 . S
H2105 C2093 0.930 . S
H2106 C2094 0.956 . S
H2107 C2094 0.961 . S
H2108 C2094 0.961 . S
H2109 C2095 0.958 . S
H2110 C2095 0.961 . S
H2111 C2095 0.960 . S
C2112 C2113 1.391 . S
C2112 C2114 1.394 . S
C2112 H2128 0.931 . S
C2113 C2112 1.391 . S
C2113 C2117 1.376 . S
C2114 C2112 1.394 . S
C2114 C2115 1.369 . S
C2114 C2118 1.531 . S
C2115 C2114 1.369 . S
C2115 C2116 1.410 . S
C2115 C2123 1.503 . S
C2116 C2115 1.410 . S
C2116 C2117 1.392 . S
C2116 C2119 1.511 . S
C2117 C2113 1.376 . S
C2117 C2116 1.392 . S
C2117 H2129 0.929 . S
C2118 C2114 1.531 . S
C2118 H2130 0.960 . S
C2118 H2131 0.962 . S
C2118 H2132 0.960 . S
C2119 C2116 1.511 . S
C2119 H2133 0.961 . S
C2119 H2134 0.961 . S
C2119 H2135 0.961 . S
C2120 C2121 1.370 . S
C2120 C2122 1.363 . S
C2120 H2136 0.931 . S
C2121 C2120 1.370 . S
C2121 C2125 1.408 . S
C2122 C2120 1.363 . S
C2122 C2123 1.370 . S
C2122 C2126 1.524 . S
C2123 C2115 1.503 . S
C2123 C2122 1.370 . S
C2123 C2124 1.403 . S
C2124 C2123 1.403 . S
C2124 C2125 1.404 . S
C2124 C2127 1.539 . S
C2125 C2121 1.408 . S
C2125 C2124 1.404 . S
C2125 H2137 0.930 . S
C2126 C2122 1.524 . S
C2126 H2138 0.956 . S
C2126 H2139 0.961 . S
C2126 H2140 0.961 . S
C2127 C2124 1.539 . S
C2127 H2141 0.958 . S
C2127 H2142 0.961 . S
C2127 H2143 0.960 . S
H2128 C2112 0.931 . S
H2129 C2117 0.929 . S
H2130 C2118 0.960 . S
H2131 C2118 0.962 . S
H2132 C2118 0.960 . S
H2133 C2119 0.961 . S
H2134 C2119 0.961 . S
H2135 C2119 0.961 . S
H2136 C2120 0.931 . S
H2137 C2125 0.930 . S
H2138 C2126 0.956 . S
H2139 C2126 0.961 . S
H2140 C2126 0.961 . S
H2141 C2127 0.958 . S
H2142 C2127 0.961 . S
H2143 C2127 0.960 . S
C2144 C2145 1.391 . S
C2144 C2146 1.394 . S
C2144 H2160 0.931 . S
C2145 C2144 1.391 . S
C2145 C2149 1.376 . S
C2146 C2144 1.394 . S
C2146 C2147 1.369 . S
C2146 C2150 1.531 . S
C2147 C2146 1.369 . S
C2147 C2148 1.410 . S
C2147 C2155 1.503 . S
C2148 C2147 1.410 . S
C2148 C2149 1.392 . S
C2148 C2151 1.511 . S
C2149 C2145 1.376 . S
C2149 C2148 1.392 . S
C2149 H2161 0.929 . S
C2150 C2146 1.531 . S
C2150 H2162 0.960 . S
C2150 H2163 0.962 . S
C2150 H2164 0.960 . S
C2151 C2148 1.511 . S
C2151 H2165 0.961 . S
C2151 H2166 0.961 . S
C2151 H2167 0.961 . S
C2152 C2153 1.370 . S
C2152 C2154 1.363 . S
C2152 H2168 0.931 . S
C2153 C2152 1.370 . S
C2153 C2157 1.408 . S
C2154 C2152 1.363 . S
C2154 C2155 1.370 . S
C2154 C2158 1.524 . S
C2155 C2147 1.503 . S
C2155 C2154 1.370 . S
C2155 C2156 1.403 . S
C2156 C2155 1.403 . S
C2156 C2157 1.404 . S
C2156 C2159 1.539 . S
C2157 C2153 1.408 . S
C2157 C2156 1.404 . S
C2157 H2169 0.930 . S
C2158 C2154 1.524 . S
C2158 H2170 0.956 . S
C2158 H2171 0.961 . S
C2158 H2172 0.961 . S
C2159 C2156 1.539 . S
C2159 H2173 0.958 . S
C2159 H2174 0.961 . S
C2159 H2175 0.960 . S
H2160 C2144 0.931 . S
H2161 C2149 0.929 . S
H2162 C2150 0.960 . S
H2163 C2150 0.962 . S
H2164 C2150 0.960 . S
H2165 C2151 0.961 . S
H2166 C2151 0.961 . S
H2167 C2151 0.961 . S
H2168 C2152 0.931 . S
H2169 C2157 0.930 . S
H2170 C2158 0.956 . S
H2171 C2158 0.961 . S
H2172 C2158 0.961 . S
H2173 C2159 0.958 . S
H2174 C2159 0.961 . S
H2175 C2159 0.960 . S
C2176 C2177 1.391 . S
C2176 C2178 1.394 . S
C2176 H2192 0.931 . S
C2177 C2176 1.391 . S
C2177 C2181 1.376 . S
C2178 C2176 1.394 . S
C2178 C2179 1.369 . S
C2178 C2182 1.531 . S
C2179 C2178 1.369 . S
C2179 C2180 1.410 . S
C2179 C2187 1.503 . S
C2180 C2179 1.410 . S
C2180 C2181 1.392 . S
C2180 C2183 1.511 1_565 S
C2181 C2177 1.376 . S
C2181 C2180 1.392 . S
C2181 H2193 0.929 1_565 S
C2182 C2178 1.531 . S
C2182 H2194 0.960 . S
C2182 H2195 0.962 . S
C2182 H2196 0.960 . S
C2183 C2180 1.511 1_545 S
C2183 H2197 0.961 . S
C2183 H2198 0.961 . S
C2183 H2199 0.961 . S
C2184 C2185 1.370 . S
C2184 C2186 1.363 . S
C2184 H2200 0.931 . S
C2185 C2184 1.370 . S
C2185 C2189 1.408 . S
C2186 C2184 1.363 . S
C2186 C2187 1.370 . S
C2186 C2190 1.524 . S
C2187 C2179 1.503 . S
C2187 C2186 1.370 . S
C2187 C2188 1.403 . S
C2188 C2187 1.403 . S
C2188 C2189 1.404 . S
C2188 C2191 1.539 . S
C2189 C2185 1.408 . S
C2189 C2188 1.404 . S
C2189 H2201 0.930 . S
C2190 C2186 1.524 . S
C2190 H2202 0.956 . S
C2190 H2203 0.961 . S
C2190 H2204 0.961 . S
C2191 C2188 1.539 . S
C2191 H2205 0.958 . S
C2191 H2206 0.961 . S
C2191 H2207 0.960 . S
H2192 C2176 0.931 . S
H2193 C2181 0.929 1_545 S
H2194 C2182 0.960 . S
H2195 C2182 0.962 . S
H2196 C2182 0.960 . S
H2197 C2183 0.961 . S
H2198 C2183 0.961 . S
H2199 C2183 0.961 . S
H2200 C2184 0.931 . S
H2201 C2189 0.930 . S
H2202 C2190 0.956 . S
H2203 C2190 0.961 . S
H2204 C2190 0.961 . S
H2205 C2191 0.958 . S
H2206 C2191 0.961 . S
H2207 C2191 0.960 . S
C2208 C2209 1.391 . S
C2208 C2210 1.394 . S
C2208 H2224 0.931 . S
C2209 C2208 1.391 . S
C2209 C2213 1.376 . S
C2210 C2208 1.394 . S
C2210 C2211 1.369 . S
C2210 C2214 1.559 . S
C2211 C2210 1.369 . S
C2211 C2212 1.410 . S
C2211 C2219 1.503 1_455 S
C2212 C2211 1.410 . S
C2212 C2213 1.392 . S
C2212 C2215 1.511 . S
C2213 C2209 1.376 . S
C2213 C2212 1.392 . S
C2213 H2225 0.929 . S
C2214 C2210 1.559 . S
C2214 H2226 0.988 1_455 S
C2214 H2227 0.911 1_545 S
C2214 H2228 0.958 1_545 S
C2215 C2212 1.511 . S
C2215 H2229 0.961 . S
C2215 H2230 0.961 1_455 S
C2215 H2231 0.961 . S
C2216 C2217 1.370 . S
C2216 C2218 1.363 . S
C2216 H2232 0.931 1_545 S
C2217 C2216 1.370 . S
C2217 C2221 1.408 . S
C2218 C2216 1.363 . S
C2218 C2219 1.370 . S
C2218 C2222 1.524 1_545 S
C2219 C2211 1.503 1_655 S
C2219 C2218 1.370 . S
C2219 C2220 1.403 . S
C2220 C2219 1.403 . S
C2220 C2221 1.404 . S
C2220 C2223 1.539 . S
C2221 C2217 1.408 . S
C2221 C2220 1.404 . S
C2221 H2233 0.930 . S
C2222 C2218 1.524 1_565 S
C2222 H2234 0.982 . S
C2222 H2235 0.906 1_665 S
C2222 H2236 0.961 . S
C2223 C2220 1.539 . S
C2223 H2237 0.958 . S
C2223 H2238 0.961 . S
C2223 H2239 0.967 . S
H2224 C2208 0.931 . S
H2225 C2213 0.929 . S
H2226 C2214 0.988 1_655 S
H2227 C2214 0.911 1_565 S
H2228 C2214 0.958 1_565 S
H2229 C2215 0.961 . S
H2230 C2215 0.961 1_655 S
H2231 C2215 0.961 . S
H2232 C2216 0.931 1_565 S
H2233 C2221 0.930 . S
H2234 C2222 0.982 . S
H2235 C2222 0.906 1_445 S
H2236 C2222 0.961 . S
H2237 C2223 0.958 . S
H2238 C2223 0.961 . S
H2239 C2223 0.967 . S
C2240 C2241 1.391 . S
C2240 C2242 1.394 . S
C2240 H2256 0.931 . S
C2241 C2240 1.391 . S
C2241 C2245 1.376 . S
C2242 C2240 1.394 . S
C2242 C2243 1.369 . S
C2242 C2246 1.531 . S
C2243 C2242 1.369 . S
C2243 C2244 1.410 . S
C2243 C2251 1.503 . S
C2244 C2243 1.410 . S
C2244 C2245 1.392 . S
C2244 C2247 1.511 1_545 S
C2245 C2241 1.376 . S
C2245 C2244 1.392 . S
C2245 H2257 0.929 1_545 S
C2246 C2242 1.531 . S
C2246 H2258 0.960 . S
C2246 H2259 0.962 . S
C2246 H2260 0.960 . S
C2247 C2244 1.511 1_565 S
C2247 H2261 0.961 . S
C2247 H2262 0.961 . S
C2247 H2263 0.961 . S
C2248 C2249 1.370 . S
C2248 C2250 1.363 . S
C2248 H2264 0.931 . S
C2249 C2248 1.370 . S
C2249 C2253 1.408 . S
C2250 C2248 1.363 . S
C2250 C2251 1.370 . S
C2250 C2254 1.524 . S
C2251 C2243 1.503 . S
C2251 C2250 1.370 . S
C2251 C2252 1.403 . S
C2252 C2251 1.403 . S
C2252 C2253 1.404 . S
C2252 C2255 1.539 . S
C2253 C2249 1.408 . S
C2253 C2252 1.404 . S
C2253 H2265 0.930 . S
C2254 C2250 1.524 . S
C2254 H2266 0.956 . S
C2254 H2267 0.961 1_545 S
C2254 H2268 0.961 1_545 S
C2255 C2252 1.539 . S
C2255 H2269 0.958 . S
C2255 H2270 0.961 . S
C2255 H2271 0.960 . S
H2256 C2240 0.931 . S
H2257 C2245 0.929 1_565 S
H2258 C2246 0.960 . S
H2259 C2246 0.962 . S
H2260 C2246 0.960 . S
H2261 C2247 0.961 . S
H2262 C2247 0.961 . S
H2263 C2247 0.961 . S
H2264 C2248 0.931 . S
H2265 C2253 0.930 . S
H2266 C2254 0.956 . S
H2267 C2254 0.961 1_565 S
H2268 C2254 0.961 1_565 S
H2269 C2255 0.958 . S
H2270 C2255 0.961 . S
H2271 C2255 0.960 . S
C2272 C2273 1.391 . S
C2272 C2274 1.394 . S
C2272 H2288 0.931 . S
C2273 C2272 1.391 . S
C2273 C2277 1.376 . S
C2274 C2272 1.394 . S
C2274 C2275 1.369 . S
C2274 C2278 1.531 . S
C2275 C2274 1.369 . S
C2275 C2276 1.410 . S
C2275 C2283 1.503 1_455 S
C2276 C2275 1.410 . S
C2276 C2277 1.392 . S
C2276 C2279 1.511 1_565 S
C2277 C2273 1.376 . S
C2277 C2276 1.392 . S
C2277 H2289 0.929 1_565 S
C2278 C2274 1.531 . S
C2278 H2290 0.960 1_455 S
C2278 H2291 0.962 . S
C2278 H2292 0.960 . S
C2279 C2276 1.511 1_545 S
C2279 H2293 0.961 . S
C2279 H2294 0.961 1_455 S
C2279 H2295 0.961 . S
C2280 C2281 1.370 . S
C2280 C2282 1.363 . S
C2280 H2296 0.931 . S
C2281 C2280 1.370 . S
C2281 C2285 1.408 . S
C2282 C2280 1.363 . S
C2282 C2283 1.370 . S
C2282 C2286 1.524 . S
C2283 C2275 1.503 1_655 S
C2283 C2282 1.370 . S
C2283 C2284 1.403 . S
C2284 C2283 1.403 . S
C2284 C2285 1.404 . S
C2284 C2287 1.539 . S
C2285 C2281 1.408 . S
C2285 C2284 1.404 . S
C2285 H2297 0.930 . S
C2286 C2282 1.524 . S
C2286 H2298 0.982 . S
C2286 H2299 0.919 1_655 S
C2286 H2300 0.961 . S
C2287 C2284 1.539 . S
C2287 H2301 0.958 . S
C2287 H2302 0.961 . S
C2287 H2303 0.967 . S
H2288 C2272 0.931 . S
H2289 C2277 0.929 1_545 S
H2290 C2278 0.960 1_655 S
H2291 C2278 0.962 . S
H2292 C2278 0.960 . S
H2293 C2279 0.961 . S
H2294 C2279 0.961 1_655 S
H2295 C2279 0.961 . S
H2296 C2280 0.931 . S
H2297 C2285 0.930 . S
H2298 C2286 0.982 . S
H2299 C2286 0.919 1_455 S
H2300 C2286 0.961 . S
H2301 C2287 0.958 . S
H2302 C2287 0.961 . S
H2303 C2287 0.967 . S
C2304 C2305 1.391 . S
C2304 C2306 1.394 . S
C2304 H2320 0.931 . S
C2305 C2304 1.391 . S
C2305 C2309 1.376 . S
C2306 C2304 1.394 . S
C2306 C2307 1.369 . S
C2306 C2310 1.531 . S
C2307 C2306 1.369 . S
C2307 C2308 1.410 . S
C2307 C2315 1.503 . S
C2308 C2307 1.410 . S
C2308 C2309 1.392 . S
C2308 C2311 1.511 . S
C2309 C2305 1.376 . S
C2309 C2308 1.392 . S
C2309 H2321 0.929 . S
C2310 C2306 1.531 . S
C2310 H2322 0.960 . S
C2310 H2323 0.962 . S
C2310 H2324 0.960 . S
C2311 C2308 1.511 . S
C2311 H2325 0.961 . S
C2311 H2326 0.961 . S
C2311 H2327 0.961 . S
C2312 C2313 1.370 . S
C2312 C2314 1.363 . S
C2312 H2328 0.931 . S
C2313 C2312 1.370 . S
C2313 C2317 1.408 . S
C2314 C2312 1.363 . S
C2314 C2315 1.370 . S
C2314 C2318 1.524 . S
C2315 C2307 1.503 . S
C2315 C2314 1.370 . S
C2315 C2316 1.403 . S
C2316 C2315 1.403 . S
C2316 C2317 1.404 . S
C2316 C2319 1.539 . S
C2317 C2313 1.408 . S
C2317 C2316 1.404 . S
C2317 H2329 0.930 . S
C2318 C2314 1.524 . S
C2318 H2330 0.956 . S
C2318 H2331 0.961 . S
C2318 H2332 0.961 . S
C2319 C2316 1.539 . S
C2319 H2333 0.958 . S
C2319 H2334 0.961 . S
C2319 H2335 0.960 . S
H2320 C2304 0.931 . S
H2321 C2309 0.929 . S
H2322 C2310 0.960 . S
H2323 C2310 0.962 . S
H2324 C2310 0.960 . S
H2325 C2311 0.961 . S
H2326 C2311 0.961 . S
H2327 C2311 0.961 . S
H2328 C2312 0.931 . S
H2329 C2317 0.930 . S
H2330 C2318 0.956 . S
H2331 C2318 0.961 . S
H2332 C2318 0.961 . S
H2333 C2319 0.958 . S
H2334 C2319 0.961 . S
H2335 C2319 0.960 . S
C2336 C2337 1.391 . S
C2336 C2338 1.394 . S
C2336 H2352 0.931 . S
C2337 C2336 1.391 . S
C2337 C2341 1.376 . S
C2338 C2336 1.394 . S
C2338 C2339 1.369 . S
C2338 C2342 1.531 . S
C2339 C2338 1.369 . S
C2339 C2340 1.410 . S
C2339 C2347 1.503 . S
C2340 C2339 1.410 . S
C2340 C2341 1.392 . S
C2340 C2343 1.511 . S
C2341 C2337 1.376 . S
C2341 C2340 1.392 . S
C2341 H2353 0.929 . S
C2342 C2338 1.531 . S
C2342 H2354 0.960 . S
C2342 H2355 0.962 . S
C2342 H2356 0.960 . S
C2343 C2340 1.511 . S
C2343 H2357 0.961 . S
C2343 H2358 0.961 . S
C2343 H2359 0.961 . S
C2344 C2345 1.370 . S
C2344 C2346 1.363 . S
C2344 H2360 0.931 . S
C2345 C2344 1.370 . S
C2345 C2349 1.408 . S
C2346 C2344 1.363 . S
C2346 C2347 1.370 . S
C2346 C2350 1.524 . S
C2347 C2339 1.503 . S
C2347 C2346 1.370 . S
C2347 C2348 1.403 . S
C2348 C2347 1.403 . S
C2348 C2349 1.404 . S
C2348 C2351 1.539 . S
C2349 C2345 1.408 . S
C2349 C2348 1.404 . S
C2349 H2361 0.930 . S
C2350 C2346 1.524 . S
C2350 H2362 0.956 . S
C2350 H2363 0.961 . S
C2350 H2364 0.961 . S
C2351 C2348 1.539 . S
C2351 H2365 0.958 . S
C2351 H2366 0.961 . S
C2351 H2367 0.960 . S
H2352 C2336 0.931 . S
H2353 C2341 0.929 . S
H2354 C2342 0.960 . S
H2355 C2342 0.962 . S
H2356 C2342 0.960 . S
H2357 C2343 0.961 . S
H2358 C2343 0.961 . S
H2359 C2343 0.961 . S
H2360 C2344 0.931 . S
H2361 C2349 0.930 . S
H2362 C2350 0.956 . S
H2363 C2350 0.961 . S
H2364 C2350 0.961 . S
H2365 C2351 0.958 . S
H2366 C2351 0.961 . S
H2367 C2351 0.960 . S
C2368 C2369 1.391 . S
C2368 C2370 1.394 . S
C2368 H2384 0.931 . S
C2369 C2368 1.391 . S
C2369 C2373 1.376 . S
C2370 C2368 1.394 . S
C2370 C2371 1.369 . S
C2370 C2374 1.531 . S
C2371 C2370 1.369 . S
C2371 C2372 1.410 . S
C2371 C2379 1.503 . S
C2372 C2371 1.410 . S
C2372 C2373 1.392 . S
C2372 C2375 1.511 . S
C2373 C2369 1.376 . S
C2373 C2372 1.392 . S
C2373 H2385 0.929 . S
C2374 C2370 1.531 . S
C2374 H2386 0.960 . S
C2374 H2387 0.962 . S
C2374 H2388 0.960 . S
C2375 C2372 1.511 . S
C2375 H2389 0.961 . S
C2375 H2390 0.961 . S
C2375 H2391 0.961 . S
C2376 C2377 1.370 . S
C2376 C2378 1.363 . S
C2376 H2392 0.931 . S
C2377 C2376 1.370 . S
C2377 C2381 1.408 . S
C2378 C2376 1.363 . S
C2378 C2379 1.370 . S
C2378 C2382 1.524 . S
C2379 C2371 1.503 . S
C2379 C2378 1.370 . S
C2379 C2380 1.403 . S
C2380 C2379 1.403 . S
C2380 C2381 1.404 . S
C2380 C2383 1.539 . S
C2381 C2377 1.408 . S
C2381 C2380 1.404 . S
C2381 H2393 0.930 . S
C2382 C2378 1.524 . S
C2382 H2394 0.956 . S
C2382 H2395 0.961 . S
C2382 H2396 0.961 . S
C2383 C2380 1.539 . S
C2383 H2397 0.958 . S
C2383 H2398 0.961 . S
C2383 H2399 0.960 . S
H2384 C2368 0.931 . S
H2385 C2373 0.929 . S
H2386 C2374 0.960 . S
H2387 C2374 0.962 . S
H2388 C2374 0.960 . S
H2389 C2375 0.961 . S
H2390 C2375 0.961 . S
H2391 C2375 0.961 . S
H2392 C2376 0.931 . S
H2393 C2381 0.930 . S
H2394 C2382 0.956 . S
H2395 C2382 0.961 . S
H2396 C2382 0.961 . S
H2397 C2383 0.958 . S
H2398 C2383 0.961 . S
H2399 C2383 0.960 . S
C2400 C2401 1.391 . S
C2400 C2402 1.394 . S
C2400 H2416 0.931 . S
C2401 C2400 1.391 . S
C2401 C2405 1.376 . S
C2402 C2400 1.394 . S
C2402 C2403 1.369 . S
C2402 C2406 1.531 . S
C2403 C2402 1.369 . S
C2403 C2404 1.410 . S
C2403 C2411 1.503 . S
C2404 C2403 1.410 . S
C2404 C2405 1.392 . S
C2404 C2407 1.511 . S
C2405 C2401 1.376 . S
C2405 C2404 1.392 . S
C2405 H2417 0.929 . S
C2406 C2402 1.531 . S
C2406 H2418 0.960 . S
C2406 H2419 0.962 . S
C2406 H2420 0.960 . S
C2407 C2404 1.511 . S
C2407 H2421 0.961 . S
C2407 H2422 0.961 . S
C2407 H2423 0.961 . S
C2408 C2409 1.370 . S
C2408 C2410 1.363 . S
C2408 H2424 0.931 . S
C2409 C2408 1.370 . S
C2409 C2413 1.408 . S
C2410 C2408 1.363 . S
C2410 C2411 1.370 . S
C2410 C2414 1.524 . S
C2411 C2403 1.503 . S
C2411 C2410 1.370 . S
C2411 C2412 1.403 . S
C2412 C2411 1.403 . S
C2412 C2413 1.404 . S
C2412 C2415 1.539 . S
C2413 C2409 1.408 . S
C2413 C2412 1.404 . S
C2413 H2425 0.930 . S
C2414 C2410 1.524 . S
C2414 H2426 0.956 . S
C2414 H2427 0.961 . S
C2414 H2428 0.961 . S
C2415 C2412 1.539 . S
C2415 H2429 0.958 . S
C2415 H2430 0.961 . S
C2415 H2431 0.960 . S
H2416 C2400 0.931 . S
H2417 C2405 0.929 . S
H2418 C2406 0.960 . S
H2419 C2406 0.962 . S
H2420 C2406 0.960 . S
H2421 C2407 0.961 . S
H2422 C2407 0.961 . S
H2423 C2407 0.961 . S
H2424 C2408 0.931 . S
H2425 C2413 0.930 . S
H2426 C2414 0.956 . S
H2427 C2414 0.961 . S
H2428 C2414 0.961 . S
H2429 C2415 0.958 . S
H2430 C2415 0.961 . S
H2431 C2415 0.960 . S
C2432 C2433 1.391 . S
C2432 C2434 1.394 . S
C2432 H2448 0.931 . S
C2433 C2432 1.391 . S
C2433 C2437 1.376 . S
C2434 C2432 1.394 . S
C2434 C2435 1.369 . S
C2434 C2438 1.531 . S
C2435 C2434 1.369 . S
C2435 C2436 1.410 . S
C2435 C2443 1.503 . S
C2436 C2435 1.410 . S
C2436 C2437 1.392 . S
C2436 C2439 1.511 . S
C2437 C2433 1.376 . S
C2437 C2436 1.392 . S
C2437 H2449 0.929 . S
C2438 C2434 1.531 . S
C2438 H2450 0.960 . S
C2438 H2451 0.962 . S
C2438 H2452 0.960 . S
C2439 C2436 1.511 . S
C2439 H2453 0.961 . S
C2439 H2454 0.961 . S
C2439 H2455 0.961 . S
C2440 C2441 1.370 . S
C2440 C2442 1.363 . S
C2440 H2456 0.931 . S
C2441 C2440 1.370 . S
C2441 C2445 1.408 . S
C2442 C2440 1.363 . S
C2442 C2443 1.370 . S
C2442 C2446 1.524 . S
C2443 C2435 1.503 . S
C2443 C2442 1.370 . S
C2443 C2444 1.403 . S
C2444 C2443 1.403 . S
C2444 C2445 1.404 . S
C2444 C2447 1.539 . S
C2445 C2441 1.408 . S
C2445 C2444 1.404 . S
C2445 H2457 0.930 . S
C2446 C2442 1.524 . S
C2446 H2458 0.956 . S
C2446 H2459 0.961 . S
C2446 H2460 0.961 . S
C2447 C2444 1.539 . S
C2447 H2461 0.958 . S
C2447 H2462 0.961 . S
C2447 H2463 0.960 . S
H2448 C2432 0.931 . S
H2449 C2437 0.929 . S
H2450 C2438 0.960 . S
H2451 C2438 0.962 . S
H2452 C2438 0.960 . S
H2453 C2439 0.961 . S
H2454 C2439 0.961 . S
H2455 C2439 0.961 . S
H2456 C2440 0.931 . S
H2457 C2445 0.930 . S
H2458 C2446 0.956 . S
H2459 C2446 0.961 . S
H2460 C2446 0.961 . S
H2461 C2447 0.958 . S
H2462 C2447 0.961 . S
H2463 C2447 0.960 . S
C2464 C2465 1.391 . S
C2464 C2466 1.394 . S
C2464 H2480 0.931 . S
C2465 C2464 1.391 . S
C2465 C2469 1.376 . S
C2466 C2464 1.394 . S
C2466 C2467 1.369 . S
C2466 C2470 1.531 . S
C2467 C2466 1.369 . S
C2467 C2468 1.410 . S
C2467 C2475 1.503 . S
C2468 C2467 1.410 . S
C2468 C2469 1.392 . S
C2468 C2471 1.511 . S
C2469 C2465 1.376 . S
C2469 C2468 1.392 . S
C2469 H2481 0.929 . S
C2470 C2466 1.531 . S
C2470 H2482 0.960 . S
C2470 H2483 0.962 . S
C2470 H2484 0.960 . S
C2471 C2468 1.511 . S
C2471 H2485 0.961 . S
C2471 H2486 0.961 . S
C2471 H2487 0.961 . S
C2472 C2473 1.370 . S
C2472 C2474 1.363 . S
C2472 H2488 0.931 . S
C2473 C2472 1.370 . S
C2473 C2477 1.408 . S
C2474 C2472 1.363 . S
C2474 C2475 1.370 . S
C2474 C2478 1.524 . S
C2475 C2467 1.503 . S
C2475 C2474 1.370 . S
C2475 C2476 1.403 . S
C2476 C2475 1.403 . S
C2476 C2477 1.404 . S
C2476 C2479 1.539 . S
C2477 C2473 1.408 . S
C2477 C2476 1.404 . S
C2477 H2489 0.930 . S
C2478 C2474 1.524 . S
C2478 H2490 0.956 . S
C2478 H2491 0.961 . S
C2478 H2492 0.961 . S
C2479 C2476 1.539 . S
C2479 H2493 0.958 . S
C2479 H2494 0.961 . S
C2479 H2495 0.960 . S
H2480 C2464 0.931 . S
H2481 C2469 0.929 . S
H2482 C2470 0.960 . S
H2483 C2470 0.962 . S
H2484 C2470 0.960 . S
H2485 C2471 0.961 . S
H2486 C2471 0.961 . S
H2487 C2471 0.961 . S
H2488 C2472 0.931 . S
H2489 C2477 0.930 . S
H2490 C2478 0.956 . S
H2491 C2478 0.961 . S
H2492 C2478 0.961 . S
H2493 C2479 0.958 . S
H2494 C2479 0.961 . S
H2495 C2479 0.960 . S
C2496 C2497 1.391 . S
C2496 C2498 1.394 . S
C2496 H2512 0.931 . S
C2497 C2496 1.391 . S
C2497 C2501 1.376 . S
C2498 C2496 1.394 . S
C2498 C2499 1.369 . S
C2498 C2502 1.531 . S
C2499 C2498 1.369 . S
C2499 C2500 1.410 . S
C2499 C2507 1.503 . S
C2500 C2499 1.410 . S
C2500 C2501 1.392 . S
C2500 C2503 1.511 . S
C2501 C2497 1.376 . S
C2501 C2500 1.392 . S
C2501 H2513 0.929 . S
C2502 C2498 1.531 . S
C2502 H2514 0.960 . S
C2502 H2515 0.962 . S
C2502 H2516 0.960 . S
C2503 C2500 1.511 . S
C2503 H2517 0.961 . S
C2503 H2518 0.961 . S
C2503 H2519 0.961 . S
C2504 C2505 1.370 . S
C2504 C2506 1.363 . S
C2504 H2520 0.931 . S
C2505 C2504 1.370 . S
C2505 C2509 1.408 . S
C2506 C2504 1.363 . S
C2506 C2507 1.370 . S
C2506 C2510 1.524 . S
C2507 C2499 1.503 . S
C2507 C2506 1.370 . S
C2507 C2508 1.403 . S
C2508 C2507 1.403 . S
C2508 C2509 1.404 . S
C2508 C2511 1.539 . S
C2509 C2505 1.408 . S
C2509 C2508 1.404 . S
C2509 H2521 0.930 . S
C2510 C2506 1.524 . S
C2510 H2522 0.956 . S
C2510 H2523 0.961 . S
C2510 H2524 0.961 . S
C2511 C2508 1.539 . S
C2511 H2525 0.958 . S
C2511 H2526 0.961 . S
C2511 H2527 0.960 . S
H2512 C2496 0.931 . S
H2513 C2501 0.929 . S
H2514 C2502 0.960 . S
H2515 C2502 0.962 . S
H2516 C2502 0.960 . S
H2517 C2503 0.961 . S
H2518 C2503 0.961 . S
H2519 C2503 0.961 . S
H2520 C2504 0.931 . S
H2521 C2509 0.930 . S
H2522 C2510 0.956 . S
H2523 C2510 0.961 . S
H2524 C2510 0.961 . S
H2525 C2511 0.958 . S
H2526 C2511 0.961 . S
H2527 C2511 0.960 . S
C2528 C2529 1.391 . S
C2528 C2530 1.394 . S
C2528 H2544 0.931 . S
C2529 C2528 1.391 . S
C2529 C2533 1.376 . S
C2530 C2528 1.394 . S
C2530 C2531 1.369 . S
C2530 C2534 1.531 . S
C2531 C2530 1.369 . S
C2531 C2532 1.410 . S
C2531 C2539 1.503 . S
C2532 C2531 1.410 . S
C2532 C2533 1.392 . S
C2532 C2535 1.511 . S
C2533 C2529 1.376 . S
C2533 C2532 1.392 . S
C2533 H2545 0.929 . S
C2534 C2530 1.531 . S
C2534 H2546 0.960 . S
C2534 H2547 0.962 . S
C2534 H2548 0.960 . S
C2535 C2532 1.511 . S
C2535 H2549 0.961 . S
C2535 H2550 0.961 . S
C2535 H2551 0.961 . S
C2536 C2537 1.370 . S
C2536 C2538 1.363 . S
C2536 H2552 0.931 . S
C2537 C2536 1.370 . S
C2537 C2541 1.408 . S
C2538 C2536 1.363 . S
C2538 C2539 1.370 . S
C2538 C2542 1.524 . S
C2539 C2531 1.503 . S
C2539 C2538 1.370 . S
C2539 C2540 1.403 . S
C2540 C2539 1.403 . S
C2540 C2541 1.404 . S
C2540 C2543 1.539 . S
C2541 C2537 1.408 . S
C2541 C2540 1.404 . S
C2541 H2553 0.930 . S
C2542 C2538 1.524 . S
C2542 H2554 0.956 . S
C2542 H2555 0.961 . S
C2542 H2556 0.961 . S
C2543 C2540 1.539 . S
C2543 H2557 0.958 . S
C2543 H2558 0.961 . S
C2543 H2559 0.960 . S
H2544 C2528 0.931 . S
H2545 C2533 0.929 . S
H2546 C2534 0.960 . S
H2547 C2534 0.962 . S
H2548 C2534 0.960 . S
H2549 C2535 0.961 . S
H2550 C2535 0.961 . S
H2551 C2535 0.961 . S
H2552 C2536 0.931 . S
H2553 C2541 0.930 . S
H2554 C2542 0.956 . S
H2555 C2542 0.961 . S
H2556 C2542 0.961 . S
H2557 C2543 0.958 . S
H2558 C2543 0.961 . S
H2559 C2543 0.960 . S
C2560 C2561 1.391 . S
C2560 C2562 1.394 . S
C2560 H2576 0.931 . S
C2561 C2560 1.391 . S
C2561 C2565 1.376 . S
C2562 C2560 1.394 . S
C2562 C2563 1.369 . S
C2562 C2566 1.531 . S
C2563 C2562 1.369 . S
C2563 C2564 1.410 . S
C2563 C2571 1.503 . S
C2564 C2563 1.410 . S
C2564 C2565 1.392 . S
C2564 C2567 1.511 . S
C2565 C2561 1.376 . S
C2565 C2564 1.392 . S
C2565 H2577 0.929 . S
C2566 C2562 1.531 . S
C2566 H2578 0.960 . S
C2566 H2579 0.962 . S
C2566 H2580 0.960 . S
C2567 C2564 1.511 . S
C2567 H2581 0.961 . S
C2567 H2582 0.961 . S
C2567 H2583 0.961 . S
C2568 C2569 1.370 . S
C2568 C2570 1.363 . S
C2568 H2584 0.931 . S
C2569 C2568 1.370 . S
C2569 C2573 1.408 . S
C2570 C2568 1.363 . S
C2570 C2571 1.370 . S
C2570 C2574 1.524 . S
C2571 C2563 1.503 . S
C2571 C2570 1.370 . S
C2571 C2572 1.403 . S
C2572 C2571 1.403 . S
C2572 C2573 1.404 . S
C2572 C2575 1.539 . S
C2573 C2569 1.408 . S
C2573 C2572 1.404 . S
C2573 H2585 0.930 . S
C2574 C2570 1.524 . S
C2574 H2586 0.956 . S
C2574 H2587 0.961 . S
C2574 H2588 0.961 . S
C2575 C2572 1.539 . S
C2575 H2589 0.958 . S
C2575 H2590 0.961 . S
C2575 H2591 0.960 . S
H2576 C2560 0.931 . S
H2577 C2565 0.929 . S
H2578 C2566 0.960 . S
H2579 C2566 0.962 . S
H2580 C2566 0.960 . S
H2581 C2567 0.961 . S
H2582 C2567 0.961 . S
H2583 C2567 0.961 . S
H2584 C2568 0.931 . S
H2585 C2573 0.930 . S
H2586 C2574 0.956 . S
H2587 C2574 0.961 . S
H2588 C2574 0.961 . S
H2589 C2575 0.958 . S
H2590 C2575 0.961 . S
H2591 C2575 0.960 . S
C2592 C2593 1.391 . S
C2592 C2594 1.394 . S
C2592 H2608 0.931 . S
C2593 C2592 1.391 . S
C2593 C2597 1.376 . S
C2594 C2592 1.394 . S
C2594 C2595 1.369 . S
C2594 C2598 1.531 . S
C2595 C2594 1.369 . S
C2595 C2596 1.410 . S
C2595 C2603 1.503 . S
C2596 C2595 1.410 . S
C2596 C2597 1.392 . S
C2596 C2599 1.511 . S
C2597 C2593 1.376 . S
C2597 C2596 1.392 . S
C2597 H2609 0.929 . S
C2598 C2594 1.531 . S
C2598 H2610 0.960 . S
C2598 H2611 0.962 . S
C2598 H2612 0.960 . S
C2599 C2596 1.511 . S
C2599 H2613 0.961 . S
C2599 H2614 0.961 . S
C2599 H2615 0.961 . S
C2600 C2601 1.370 . S
C2600 C2602 1.363 . S
C2600 H2616 0.931 . S
C2601 C2600 1.370 . S
C2601 C2605 1.408 . S
C2602 C2600 1.363 . S
C2602 C2603 1.370 . S
C2602 C2606 1.524 . S
C2603 C2595 1.503 . S
C2603 C2602 1.370 . S
C2603 C2604 1.403 . S
C2604 C2603 1.403 . S
C2604 C2605 1.404 . S
C2604 C2607 1.539 . S
C2605 C2601 1.408 . S
C2605 C2604 1.404 . S
C2605 H2617 0.930 . S
C2606 C2602 1.524 . S
C2606 H2618 0.956 . S
C2606 H2619 0.961 . S
C2606 H2620 0.961 . S
C2607 C2604 1.539 . S
C2607 H2621 0.958 . S
C2607 H2622 0.961 . S
C2607 H2623 0.960 . S
H2608 C2592 0.931 . S
H2609 C2597 0.929 . S
H2610 C2598 0.960 . S
H2611 C2598 0.962 . S
H2612 C2598 0.960 . S
H2613 C2599 0.961 . S
H2614 C2599 0.961 . S
H2615 C2599 0.961 . S
H2616 C2600 0.931 . S
H2617 C2605 0.930 . S
H2618 C2606 0.956 . S
H2619 C2606 0.961 . S
H2620 C2606 0.961 . S
H2621 C2607 0.958 . S
H2622 C2607 0.961 . S
H2623 C2607 0.960 . S
C2624 C2625 1.391 . S
C2624 C2626 1.394 . S
C2624 H2640 0.931 . S
C2625 C2624 1.391 . S
C2625 C2629 1.376 . S
C2626 C2624 1.394 . S
C2626 C2627 1.369 . S
C2626 C2630 1.531 . S
C2627 C2626 1.369 . S
C2627 C2628 1.410 . S
C2627 C2635 1.503 . S
C2628 C2627 1.410 . S
C2628 C2629 1.392 . S
C2628 C2631 1.511 . S
C2629 C2625 1.376 . S
C2629 C2628 1.392 . S
C2629 H2641 0.929 . S
C2630 C2626 1.531 . S
C2630 H2642 0.960 . S
C2630 H2643 0.962 . S
C2630 H2644 0.960 . S
C2631 C2628 1.511 . S
C2631 H2645 0.961 . S
C2631 H2646 0.961 . S
C2631 H2647 0.961 . S
C2632 C2633 1.370 . S
C2632 C2634 1.363 . S
C2632 H2648 0.931 . S
C2633 C2632 1.370 . S
C2633 C2637 1.408 . S
C2634 C2632 1.363 . S
C2634 C2635 1.370 . S
C2634 C2638 1.524 . S
C2635 C2627 1.503 . S
C2635 C2634 1.370 . S
C2635 C2636 1.403 . S
C2636 C2635 1.403 . S
C2636 C2637 1.404 . S
C2636 C2639 1.539 . S
C2637 C2633 1.408 . S
C2637 C2636 1.404 . S
C2637 H2649 0.930 . S
C2638 C2634 1.524 . S
C2638 H2650 0.956 . S
C2638 H2651 0.961 . S
C2638 H2652 0.961 . S
C2639 C2636 1.539 . S
C2639 H2653 0.958 . S
C2639 H2654 0.961 . S
C2639 H2655 0.960 . S
H2640 C2624 0.931 . S
H2641 C2629 0.929 . S
H2642 C2630 0.960 . S
H2643 C2630 0.962 . S
H2644 C2630 0.960 . S
H2645 C2631 0.961 . S
H2646 C2631 0.961 . S
H2647 C2631 0.961 . S
H2648 C2632 0.931 . S
H2649 C2637 0.930 . S
H2650 C2638 0.956 . S
H2651 C2638 0.961 . S
H2652 C2638 0.961 . S
H2653 C2639 0.958 . S
H2654 C2639 0.961 . S
H2655 C2639 0.960 . S
C2656 C2657 1.391 . S
C2656 C2658 1.394 . S
C2656 H2672 0.931 . S
C2657 C2656 1.391 . S
C2657 C2661 1.376 . S
C2658 C2656 1.394 . S
C2658 C2659 1.369 . S
C2658 C2662 1.531 . S
C2659 C2658 1.369 . S
C2659 C2660 1.410 . S
C2659 C2667 1.503 . S
C2660 C2659 1.410 . S
C2660 C2661 1.392 . S
C2660 C2663 1.511 . S
C2661 C2657 1.376 . S
C2661 C2660 1.392 . S
C2661 H2673 0.929 . S
C2662 C2658 1.531 . S
C2662 H2674 0.960 . S
C2662 H2675 0.962 . S
C2662 H2676 0.960 . S
C2663 C2660 1.511 . S
C2663 H2677 0.961 . S
C2663 H2678 0.961 . S
C2663 H2679 0.961 . S
C2664 C2665 1.370 . S
C2664 C2666 1.363 . S
C2664 H2680 0.931 . S
C2665 C2664 1.370 . S
C2665 C2669 1.408 . S
C2666 C2664 1.363 . S
C2666 C2667 1.370 . S
C2666 C2670 1.524 . S
C2667 C2659 1.503 . S
C2667 C2666 1.370 . S
C2667 C2668 1.403 . S
C2668 C2667 1.403 . S
C2668 C2669 1.404 . S
C2668 C2671 1.539 . S
C2669 C2665 1.408 . S
C2669 C2668 1.404 . S
C2669 H2681 0.930 . S
C2670 C2666 1.524 . S
C2670 H2682 0.956 . S
C2670 H2683 0.961 . S
C2670 H2684 0.961 . S
C2671 C2668 1.539 . S
C2671 H2685 0.958 . S
C2671 H2686 0.961 . S
C2671 H2687 0.960 . S
H2672 C2656 0.931 . S
H2673 C2661 0.929 . S
H2674 C2662 0.960 . S
H2675 C2662 0.962 . S
H2676 C2662 0.960 . S
H2677 C2663 0.961 . S
H2678 C2663 0.961 . S
H2679 C2663 0.961 . S
H2680 C2664 0.931 . S
H2681 C2669 0.930 . S
H2682 C2670 0.956 . S
H2683 C2670 0.961 . S
H2684 C2670 0.961 . S
H2685 C2671 0.958 . S
H2686 C2671 0.961 . S
H2687 C2671 0.960 . S
C2688 C2689 1.391 . S
C2688 C2690 1.394 . S
C2688 H2704 0.931 . S
C2689 C2688 1.391 . S
C2689 C2693 1.376 . S
C2690 C2688 1.394 . S
C2690 C2691 1.369 . S
C2690 C2694 1.531 . S
C2691 C2690 1.369 . S
C2691 C2692 1.410 . S
C2691 C2699 1.503 . S
C2692 C2691 1.410 . S
C2692 C2693 1.392 . S
C2692 C2695 1.511 . S
C2693 C2689 1.376 . S
C2693 C2692 1.392 . S
C2693 H2705 0.929 . S
C2694 C2690 1.531 . S
C2694 H2706 0.960 . S
C2694 H2707 0.962 . S
C2694 H2708 0.960 . S
C2695 C2692 1.511 . S
C2695 H2709 0.961 . S
C2695 H2710 0.961 . S
C2695 H2711 0.961 . S
C2696 C2697 1.370 . S
C2696 C2698 1.363 . S
C2696 H2712 0.931 . S
C2697 C2696 1.370 . S
C2697 C2701 1.408 . S
C2698 C2696 1.363 . S
C2698 C2699 1.370 . S
C2698 C2702 1.524 . S
C2699 C2691 1.503 . S
C2699 C2698 1.370 . S
C2699 C2700 1.403 . S
C2700 C2699 1.403 . S
C2700 C2701 1.404 . S
C2700 C2703 1.539 . S
C2701 C2697 1.408 . S
C2701 C2700 1.404 . S
C2701 H2713 0.930 . S
C2702 C2698 1.524 . S
C2702 H2714 0.956 . S
C2702 H2715 0.961 . S
C2702 H2716 0.961 . S
C2703 C2700 1.539 . S
C2703 H2717 0.958 . S
C2703 H2718 0.961 . S
C2703 H2719 0.960 . S
H2704 C2688 0.931 . S
H2705 C2693 0.929 . S
H2706 C2694 0.960 . S
H2707 C2694 0.962 . S
H2708 C2694 0.960 . S
H2709 C2695 0.961 . S
H2710 C2695 0.961 . S
H2711 C2695 0.961 . S
H2712 C2696 0.931 . S
H2713 C2701 0.930 . S
H2714 C2702 0.956 . S
H2715 C2702 0.961 . S
H2716 C2702 0.961 . S
H2717 C2703 0.958 . S
H2718 C2703 0.961 . S
H2719 C2703 0.960 . S
C2720 C2721 1.391 . S
C2720 C2722 1.394 . S
C2720 H2736 0.931 . S
C2721 C2720 1.391 . S
C2721 C2725 1.376 . S
C2722 C2720 1.394 . S
C2722 C2723 1.369 . S
C2722 C2726 1.531 . S
C2723 C2722 1.369 . S
C2723 C2724 1.410 . S
C2723 C2731 1.503 . S
C2724 C2723 1.410 . S
C2724 C2725 1.392 . S
C2724 C2727 1.511 . S
C2725 C2721 1.376 . S
C2725 C2724 1.392 . S
C2725 H2737 0.929 . S
C2726 C2722 1.531 . S
C2726 H2738 0.960 . S
C2726 H2739 0.962 . S
C2726 H2740 0.960 . S
C2727 C2724 1.511 . S
C2727 H2741 0.961 . S
C2727 H2742 0.961 . S
C2727 H2743 0.961 . S
C2728 C2729 1.370 . S
C2728 C2730 1.363 . S
C2728 H2744 0.931 . S
C2729 C2728 1.370 . S
C2729 C2733 1.408 . S
C2730 C2728 1.363 . S
C2730 C2731 1.370 . S
C2730 C2734 1.524 . S
C2731 C2723 1.503 . S
C2731 C2730 1.370 . S
C2731 C2732 1.403 . S
C2732 C2731 1.403 . S
C2732 C2733 1.404 . S
C2732 C2735 1.539 . S
C2733 C2729 1.408 . S
C2733 C2732 1.404 . S
C2733 H2745 0.930 . S
C2734 C2730 1.524 . S
C2734 H2746 0.956 . S
C2734 H2747 0.961 . S
C2734 H2748 0.961 . S
C2735 C2732 1.539 . S
C2735 H2749 0.958 . S
C2735 H2750 0.961 . S
C2735 H2751 0.960 . S
H2736 C2720 0.931 . S
H2737 C2725 0.929 . S
H2738 C2726 0.960 . S
H2739 C2726 0.962 . S
H2740 C2726 0.960 . S
H2741 C2727 0.961 . S
H2742 C2727 0.961 . S
H2743 C2727 0.961 . S
H2744 C2728 0.931 . S
H2745 C2733 0.930 . S
H2746 C2734 0.956 . S
H2747 C2734 0.961 . S
H2748 C2734 0.961 . S
H2749 C2735 0.958 . S
H2750 C2735 0.961 . S
H2751 C2735 0.960 . S
C2752 C2753 1.391 . S
C2752 C2754 1.394 . S
C2752 H2768 0.931 . S
C2753 C2752 1.391 . S
C2753 C2757 1.376 . S
C2754 C2752 1.394 . S
C2754 C2755 1.369 . S
C2754 C2758 1.531 . S
C2755 C2754 1.369 . S
C2755 C2756 1.410 . S
C2755 C2763 1.503 . S
C2756 C2755 1.410 . S
C2756 C2757 1.392 . S
C2756 C2759 1.511 . S
C2757 C2753 1.376 . S
C2757 C2756 1.392 . S
C2757 H2769 0.929 . S
C2758 C2754 1.531 . S
C2758 H2770 0.960 . S
C2758 H2771 0.962 . S
C2758 H2772 0.960 . S
C2759 C2756 1.511 . S
C2759 H2773 0.961 . S
C2759 H2774 0.961 . S
C2759 H2775 0.961 . S
C2760 C2761 1.370 . S
C2760 C2762 1.363 . S
C2760 H2776 0.931 . S
C2761 C2760 1.370 . S
C2761 C2765 1.408 . S
C2762 C2760 1.363 . S
C2762 C2763 1.370 . S
C2762 C2766 1.524 . S
C2763 C2755 1.503 . S
C2763 C2762 1.370 . S
C2763 C2764 1.403 . S
C2764 C2763 1.403 . S
C2764 C2765 1.404 . S
C2764 C2767 1.539 . S
C2765 C2761 1.408 . S
C2765 C2764 1.404 . S
C2765 H2777 0.930 . S
C2766 C2762 1.524 . S
C2766 H2778 0.956 . S
C2766 H2779 0.961 . S
C2766 H2780 0.961 . S
C2767 C2764 1.539 . S
C2767 H2781 0.958 . S
C2767 H2782 0.961 . S
C2767 H2783 0.960 . S
H2768 C2752 0.931 . S
H2769 C2757 0.929 . S
H2770 C2758 0.960 . S
H2771 C2758 0.962 . S
H2772 C2758 0.960 . S
H2773 C2759 0.961 . S
H2774 C2759 0.961 . S
H2775 C2759 0.961 . S
H2776 C2760 0.931 . S
H2777 C2765 0.930 . S
H2778 C2766 0.956 . S
H2779 C2766 0.961 . S
H2780 C2766 0.961 . S
H2781 C2767 0.958 . S
H2782 C2767 0.961 . S
H2783 C2767 0.960 . S
C2784 C2785 1.391 . S
C2784 C2786 1.394 . S
C2784 H2800 0.931 . S
C2785 C2784 1.391 . S
C2785 C2789 1.376 . S
C2786 C2784 1.394 . S
C2786 C2787 1.369 . S
C2786 C2790 1.531 . S
C2787 C2786 1.369 . S
C2787 C2788 1.410 . S
C2787 C2795 1.503 . S
C2788 C2787 1.410 . S
C2788 C2789 1.392 . S
C2788 C2791 1.511 . S
C2789 C2785 1.376 . S
C2789 C2788 1.392 . S
C2789 H2801 0.929 . S
C2790 C2786 1.531 . S
C2790 H2802 0.960 . S
C2790 H2803 0.962 . S
C2790 H2804 0.960 . S
C2791 C2788 1.511 . S
C2791 H2805 0.961 . S
C2791 H2806 0.961 . S
C2791 H2807 0.961 . S
C2792 C2793 1.370 . S
C2792 C2794 1.363 . S
C2792 H2808 0.931 . S
C2793 C2792 1.370 . S
C2793 C2797 1.408 . S
C2794 C2792 1.363 . S
C2794 C2795 1.370 . S
C2794 C2798 1.524 . S
C2795 C2787 1.503 . S
C2795 C2794 1.370 . S
C2795 C2796 1.403 . S
C2796 C2795 1.403 . S
C2796 C2797 1.404 . S
C2796 C2799 1.539 . S
C2797 C2793 1.408 . S
C2797 C2796 1.404 . S
C2797 H2809 0.930 . S
C2798 C2794 1.524 . S
C2798 H2810 0.956 . S
C2798 H2811 0.961 . S
C2798 H2812 0.961 . S
C2799 C2796 1.539 . S
C2799 H2813 0.958 . S
C2799 H2814 0.961 . S
C2799 H2815 0.960 . S
H2800 C2784 0.931 . S
H2801 C2789 0.929 . S
H2802 C2790 0.960 . S
H2803 C2790 0.962 . S
H2804 C2790 0.960 . S
H2805 C2791 0.961 . S
H2806 C2791 0.961 . S
H2807 C2791 0.961 . S
H2808 C2792 0.931 . S
H2809 C2797 0.930 . S
H2810 C2798 0.956 . S
H2811 C2798 0.961 . S
H2812 C2798 0.961 . S
H2813 C2799 0.958 . S
H2814 C2799 0.961 . S
H2815 C2799 0.960 . S
C1281 C162 2.161 . S
C1289 C2 2.144 . S
C1313 C202 2.219 . S
C1321 C42 2.224 . S
C1345 C82 2.132 . S
C1353 C242 2.155 . S
C1377 C122 2.227 . S
C1385 C282 2.223 . S
C1409 C482 2.040 . S
C1417 C322 2.003 . S
C1441 C522 2.056 . S
C1449 C362 2.103 . S
C1473 C402 2.027 . S
C1481 C562 2.003 . S
C1505 C602 2.082 . S
C1513 C442 2.085 . S
C1537 C642 1.970 . S
C1545 C802 1.956 . S
C1569 C842 2.161 . S
C1577 C682 2.148 . S
C1601 C722 1.950 . S
C1609 C882 1.968 . S
C1633 C922 2.142 . S
C1641 C762 2.154 . S
C1665 C962 1.878 . S
C1673 C1122 1.860 . S
C1697 C1162 2.029 . S
C1705 C1002 2.009 . S
C1729 C1042 1.882 . S
C1737 C1202 1.857 . S
C1761 C1242 2.006 . S
C1769 C1082 2.016 . S
C1793 C501 1.853 . S
C1801 C21 1.923 . S
C1825 C61 1.894 . S
C1833 C1181 1.847 . S
C1857 C581 1.847 . S
C1865 C101 1.914 . S
C1889 C141 1.915 . S
C1897 C1261 1.854 . S
C1921 C341 1.821 . S
C1929 C181 1.917 . S
C1953 C1021 1.835 . S
C1961 C221 1.913 . S
C1985 C261 1.924 . S
C1993 C421 1.852 . S
C2017 C1101 1.867 . S
C2025 C301 1.912 . S
C2049 C381 1.820 . S
C2057 C861 1.907 . S
C2081 C461 1.862 . S
C2089 C941 1.915 . S
C2113 C541 1.811 . S
C2121 C701 1.908 . S
C2145 C781 1.905 . S
C2153 C621 1.852 . S
C2177 C1141 1.711 . S
C2185 C661 1.780 . S
C2209 C1221 1.755 . S
C2217 C741 1.786 . S
C2241 C821 1.788 . S
C2249 C981 1.742 . S
C2273 C1061 1.710 . S
C2281 C901 1.781 . S
C2305 C935 1.821 . S
C2313 C15 1.811 . S
C2337 C55 1.722 . S
C2345 C815 1.729 . S
C2369 C95 1.793 . S
C2377 C855 1.803 . S
C2401 C895 1.736 . S
C2409 C135 1.714 . S
C2433 C175 1.785 . S
C2441 C695 1.813 . S
C2465 C215 1.709 . S
C2473 C735 1.731 . S
C2497 C775 1.785 . S
C2505 C255 1.812 . S
C2529 C655 1.741 . S
C2537 C295 1.705 . S
C2561 C1255 1.795 . S
C2569 C335 1.810 . S
C2593 C375 1.718 . S
C2601 C1135 1.711 . S
C2625 C1175 1.776 . S
C2633 C415 1.805 . S
C2657 C1215 1.702 . S
C2665 C455 1.708 . S
C2689 C495 1.774 . S
C2697 C1015 1.805 . S
C2721 C1055 1.722 . S
C2729 C535 1.709 . S
C2753 C1095 1.790 . S
C2761 C575 1.810 . S
C2785 C615 1.714 . S
C2793 C975 1.711 . S
