# Generated by pormake.
# Topology sma, (6)-cn, num edge types: 1
# Building blocks:
#     Node 0, Type 0, BuildingBlock: PAMTUU_clean_sbu_0, # of connection points: 6
#     Node 1, Type 0, BuildingBlock: PAMTUU_clean_sbu_0, # of connection points: 6
#     Node 2, Type 0, BuildingBlock: PAMTUU_clean_sbu_0, # of connection points: 6
#     Edge 3, Type (0, 0), BuildingBlock: FUNLAD_clean_linker_1, # of connection points: 2
#     Edge 4, Type (0, 0), BuildingBlock: FUNLAD_clean_linker_1, # of connection points: 2
#     Edge 5, Type (0, 0), BuildingBlock: FUNLAD_clean_linker_1, # of connection points: 2
#     Edge 6, Type (0, 0), BuildingBlock: FUNLAD_clean_linker_1, # of connection points: 2
#     Edge 7, Type (0, 0), BuildingBlock: FUNLAD_clean_linker_1, # of connection points: 2
#     Edge 8, Type (0, 0), BuildingBlock: FUNLAD_clean_linker_1, # of connection points: 2
#     Edge 9, Type (0, 0), BuildingBlock: FUNLAD_clean_linker_1, # of connection points: 2
#     Edge 10, Type (0, 0), BuildingBlock: FUNLAD_clean_linker_1, # of connection points: 2
#     Edge 11, Type (0, 0), BuildingBlock: FUNLAD_clean_linker_1, # of connection points: 2
# Relax obj value: 0.068
# Max RMSD: 0.178
# Mean RMSD: 0.173
data_MOF--net-sma--node1-PAMTUU_clean_sbu_0--edge1-FUNLAD_clean_linker_1
_symmetry_space_group_name_H-M    P1
_symmetry_Int_Tables_number       1
_symmetry_cell_setting            triclinic
loop_
_symmetry_equiv_pos_as_xyz
'x, y, z'
_cell_length_a     40.408765
_cell_length_b     40.944152
_cell_length_c     14.295201
_cell_angle_alpha  98.078117
_cell_angle_beta   90.044743
_cell_angle_gamma 119.96753
loop_
_atom_site_label
_atom_site_type_symbol
_atom_site_fract_x
_atom_site_fract_y
_atom_site_fract_z
_atom_type_partial_charge
Tb0 Tb 1.03718 0.55952 0.18757 0.0
Tb1 Tb 0.08568 0.51351 0.13793 0.0
C2 C 1.03147 0.51331 -0.00869 0.0
C3 C 0.96219 0.58692 0.17812 0.0
C4 C 0.89134 0.57535 0.10583 0.0
C5 C 0.90601 0.55236 0.06518 0.0
C6 C 0.94113 0.55811 0.10079 0.0
C7 C 0.94767 0.60975 0.21956 0.0
C8 C 0.91254 0.60402 0.18413 0.0
C9 C 0.99899 0.59312 0.21685 0.0
O10 O 0.99553 0.49897 0.17642 0.0
O11 O 1.03533 0.47554 0.20766 0.0
O12 O 0.11024 0.54763 0.27509 0.0
O13 O 0.05875 0.55422 0.31994 0.0
O14 O 0.10728 0.49235 0.02728 0.0
O15 O 0.11539 0.48601 0.17151 0.0
O16 O 0.11803 0.57033 0.09807 0.0
O17 O 0.09752 0.60277 0.20361 0.0
O18 O 1.03675 0.54594 0.03557 0.0
O19 O 1.0373 0.49082 0.03604 0.0
C20 C 1.0012 0.47265 0.20392 0.0
O21 O 0.99695 0.56755 0.26523 0.0
O22 O 1.02596 0.60214 0.15873 0.0
C23 C 0.09036 0.55379 0.33995 0.0
C24 C 0.16445 0.49444 0.06945 0.0
C25 C 0.24077 0.51858 0.02593 0.0
C26 C 0.23093 0.54488 0.07203 0.0
C27 C 0.19307 0.533 0.09305 0.0
C28 C 0.17421 0.46795 0.02552 0.0
C29 C 0.21197 0.47978 0.00422 0.0
C30 C 0.12399 0.48178 0.08427 0.0
C31 C 0.12345 0.60219 0.14915 0.0
H32 H 0.89027 0.52986 0.00549 0.0
H33 H 0.95182 0.54003 0.06819 0.0
H34 H 0.96342 0.6319 0.27992 0.0
H35 H 0.90202 0.62172 0.21965 0.0
H36 H 0.25248 0.57483 0.09051 0.0
H37 H 0.18602 0.55395 0.12654 0.0
H38 H 0.15248 0.43806 0.00675 0.0
H39 H 0.21839 0.45832 -0.02837 0.0
Tb40 Tb 0.52913 1.01985 0.52337 0.0
Tb41 Tb 0.62417 0.07483 0.50253 0.0
C42 C 0.56769 1.0203 0.33853 0.0
C43 C 0.42616 0.93785 0.49308 0.0
C44 C 0.36231 0.86538 0.42118 0.0
C45 C 0.39509 0.88172 0.36988 0.0
C46 C 0.42677 0.91767 0.40574 0.0
C47 C 0.39391 0.92144 0.54463 0.0
C48 C 0.36239 0.8857 0.50912 0.0
C49 C 0.45778 0.97659 0.53087 0.0
O50 O 0.55384 0.98331 0.52609 0.0
O51 O 0.61818 1.02729 0.56757 0.0
O52 O 0.61792 0.09636 0.64402 0.0
O53 O 0.55459 0.05141 0.66367 0.0
O54 O 0.66301 0.09832 0.40089 0.0
O55 O 0.68329 0.10478 0.5462 0.0
O56 O 0.59718 0.1076 0.4721 0.0
O57 O 0.5397 0.0776 0.54107 0.0
O58 O 0.5401 1.02387 0.37658 0.0
O59 O 0.59655 1.02567 0.39192 0.0
C60 C 0.58829 0.99252 0.56007 0.0
O61 O 0.48385 0.97917 0.59002 0.0
O62 O 0.47275 1.00047 0.47101 0.0
C63 C 0.58838 0.08126 0.69493 0.0
C64 C 0.72354 0.15352 0.45691 0.0
C65 C 0.78694 0.22455 0.42957 0.0
C66 C 0.79031 0.20355 0.49498 0.0
C67 C 0.75911 0.16839 0.50802 0.0
C68 C 0.71951 0.17517 0.39423 0.0
C69 C 0.75081 0.21035 0.38089 0.0
C70 C 0.69281 0.1139 0.4624 0.0
C71 C 0.56656 0.10685 0.50661 0.0
H72 H 0.3964 0.86745 0.30162 0.0
H73 H 0.45146 0.92991 0.36476 0.0
H74 H 0.39286 0.93656 0.61214 0.0
H75 H 0.33775 0.87402 0.5505 0.0
H76 H 0.81755 0.2138 0.53422 0.0
H77 H 0.76313 0.15224 0.55624 0.0
H78 H 0.69244 0.1646 0.35381 0.0
H79 H 0.74648 0.22604 0.33204 0.0
Tb80 Tb 0.55407 0.50728 0.84662 0.0
Tb81 Tb 0.58426 0.59924 0.8344 0.0
C82 C 0.58736 0.5434 0.67114 0.0
C83 C 0.54555 0.4111 0.80099 0.0
C84 C 0.56703 0.35829 0.71773 0.0
C85 C 0.52909 0.34575 0.74108 0.0
C86 C 0.51854 0.37196 0.78211 0.0
C87 C 0.58335 0.42383 0.77748 0.0
C88 C 0.59401 0.39761 0.73686 0.0
C89 C 0.53384 0.43798 0.84632 0.0
O90 O 0.61633 0.53654 0.85422 0.0
O91 O 0.63128 0.59866 0.90839 0.0
O92 O 0.56256 0.59328 -0.02843 0.0
O93 O 0.55887 0.536 -0.01052 0.0
O94 O 0.59158 0.63606 0.73835 0.0
O95 O 0.61048 0.65822 0.88693 0.0
O96 O 0.52224 0.56703 0.79668 0.0
O97 O 0.50377 0.51259 0.86274 0.0
O98 O 0.55754 0.51532 0.70025 0.0
O99 O 0.60757 0.57629 0.72598 0.0
C100 C 0.6403 0.57161 0.89677 0.0
O101 O 0.55863 0.46619 0.90941 0.0
O102 O 0.51756 0.44925 0.79004 0.0
C103 C 0.55866 0.56762 0.0227 0.0
C104 C 0.59297 0.69408 0.79988 0.0
C105 C 0.58002 0.7544 0.77668 0.0
C106 C 0.59969 0.75607 0.85978 0.0
C107 C 0.60664 0.72648 0.87065 0.0
C108 C 0.57103 0.69139 0.71956 0.0
C109 C 0.56497 0.7214 0.70758 0.0
C110 C 0.60603 0.66622 0.80421 0.0
C111 C 0.49608 0.53654 0.82946 0.0
H112 H 0.50765 0.31571 0.73038 0.0
H113 H 0.48929 0.36157 0.80025 0.0
H114 H 0.60471 0.45398 0.7913 0.0
H115 H 0.62346 0.40808 0.7205 0.0
H116 H 0.61124 0.78109 0.9144 0.0
H117 H 0.62382 0.72954 0.93304 0.0
H118 H 0.55945 0.6666 0.66442 0.0
H119 H 0.54879 0.71891 0.64388 0.0
H120 H 0.30349 0.55954 0.04329 0.0
C121 C 0.28134 0.53237 0.00404 0.0
H122 H 0.27038 0.48779 0.89153 0.0
H123 H 0.42266 0.56869 0.69406 0.0
H124 H 0.37784 0.56944 0.58235 0.0
H125 H 0.31227 0.55172 0.62302 0.0
H126 H 0.29096 0.53295 0.77542 0.0
C127 C 0.29188 0.51339 0.93721 0.0
C128 C 0.33281 0.52789 0.91731 0.0
C129 C 0.34506 0.53926 0.82836 0.0
C130 C 0.38307 0.54993 0.8052 0.0
C131 C 0.39421 0.56054 0.71535 0.0
C132 C 0.36879 0.56111 0.65061 0.0
C133 C 0.33185 0.55109 0.67349 0.0
C134 C 0.31995 0.54026 0.76113 0.0
H135 H 0.43494 0.50107 0.8493 0.0
C136 C 0.45659 0.52931 0.8367 0.0
H137 H 0.46871 0.58566 0.83274 0.0
H138 H 0.31876 0.50597 0.09271 0.0
H139 H 0.36488 0.50954 0.20786 0.0
H140 H 0.43214 0.5333 0.17268 0.0
H141 H 0.4534 0.55276 0.02113 0.0
C142 C 0.44757 0.55698 0.84344 0.0
C143 C 0.40892 0.54932 0.87098 0.0
C144 C 0.3974 0.54012 0.96213 0.0
C145 C 0.35908 0.52839 -0.01563 0.0
C146 C 0.34781 0.51668 0.0733 0.0
C147 C 0.37398 0.51836 0.14004 0.0
C148 C 0.4118 0.53158 0.1201 0.0
C149 C 0.42354 0.54238 0.03242 0.0
H150 H 0.8464 0.27301 0.46599 0.0
C151 C 0.82187 0.26066 0.41399 0.0
H152 H 0.80313 0.26449 0.2798 0.0
H153 H 0.95331 0.43973 0.41236 0.0
H154 H 0.91754 0.44599 0.54254 0.0
H155 H 0.85564 0.39127 0.57024 0.0
H156 H 0.82955 0.32979 0.4689 0.0
C157 C 0.82581 0.27741 0.33675 0.0
C158 C 0.86297 0.31117 0.32003 0.0
C159 C 0.87721 0.34739 0.37796 0.0
C160 C 0.91224 0.37942 0.35962 0.0
C161 C 0.92639 0.41477 0.42099 0.0
C162 C 0.90621 0.41874 0.49639 0.0
C163 C 0.87144 0.3879 0.51218 0.0
C164 C 0.8569 0.35265 0.45372 0.0
H165 H 0.9397 0.43742 0.22215 0.0
C166 C 0.96707 0.43848 0.22821 0.0
H167 H 0.99496 0.40923 0.26218 0.0
H168 H 0.84488 0.24582 0.19736 0.0
H169 H 0.88041 0.23978 0.06604 0.0
H170 H 0.9399 0.29564 0.0314 0.0
H171 H 0.96436 0.35789 0.12813 0.0
C172 C 0.9682 0.40941 0.25848 0.0
C173 C 0.93247 0.37558 0.28152 0.0
C174 C 0.91843 0.33932 0.22433 0.0
C175 C 0.88375 0.30717 0.24354 0.0
C176 C 0.8707 0.27132 0.18533 0.0
C177 C 0.89088 0.2674 0.1098 0.0
C178 C 0.9244 0.29884 0.09037 0.0
C179 C 0.93815 0.33442 0.14663 0.0
H180 H 0.62354 0.96677 0.58628 0.0
C181 C 0.59457 0.96203 0.58474 0.0
H182 H 0.53683 0.92486 0.60553 0.0
H183 H 0.52839 0.76736 0.54656 0.0
H184 H 0.48452 0.75956 0.4186 0.0
H185 H 0.4802 0.8145 0.38231 0.0
H186 H 0.51938 0.87745 0.47442 0.0
C187 C 0.56572 0.92933 0.60695 0.0
C188 C 0.57082 0.89707 0.62659 0.0
C189 C 0.54834 0.86045 0.57042 0.0
C190 C 0.55166 0.82894 0.5895 0.0
C191 C 0.52784 0.79254 0.534 0.0
C192 C 0.50235 0.78756 0.46038 0.0
C193 C 0.49986 0.81847 0.4401 0.0
C194 C 0.52248 0.8545 0.49406 0.0
H195 H 0.57046 0.80286 0.82309 0.0
C196 C 0.57605 0.78756 0.76255 0.0
H197 H 0.58867 0.786 0.6196 0.0
H198 H 0.61439 0.96155 0.75819 0.0
H199 H 0.66117 0.97029 0.87911 0.0
H200 H 0.67298 0.91794 0.89807 0.0
H201 H 0.63696 0.85615 0.79839 0.0
C202 C 0.58214 0.8008 0.67939 0.0
C203 C 0.57825 0.83409 0.66309 0.0
C204 C 0.60159 0.87097 0.71759 0.0
C205 C 0.5968 0.90206 0.70186 0.0
C206 C 0.61811 0.93751 0.76312 0.0
C207 C 0.64499 0.94289 0.8335 0.0
C208 C 0.65149 0.91337 0.84451 0.0
C209 C 0.63025 0.87784 0.78729 0.0
H210 H 0.69792 0.61001 0.97084 0.0
C211 C 0.67916 0.58151 0.93168 0.0
H212 H 0.67272 0.52747 0.88102 0.0
H213 H 0.86241 0.64022 0.96978 0.0
H214 H 0.85875 0.67397 0.84736 0.0
H215 H 0.79624 0.6577 0.77252 0.0
H216 H 0.73705 0.60789 0.82018 0.0
C217 C 0.6916 0.55635 0.91792 0.0
C218 C 0.72975 0.56554 0.95961 0.0
C219 C 0.76419 0.59445 0.92978 0.0
C220 C 0.80032 0.60328 -0.02847 0.0
C221 C 0.83421 0.63235 0.94063 0.0
C222 C 0.83254 0.65188 0.87015 0.0
C223 C 0.79735 0.64277 0.82814 0.0
C224 C 0.76352 0.61429 0.85687 0.0
H225 H 0.83565 0.54064 0.0195 0.0
C226 C 0.85342 0.56758 0.06649 0.0
H227 H 0.85778 0.62026 0.12505 0.0
H228 H 0.66942 0.50739 0.03039 0.0
H229 H 0.67334 0.47249 0.14942 0.0
H230 H 0.73581 0.48879 0.22407 0.0
H231 H 0.79492 0.53933 0.17814 0.0
C232 C 0.84014 0.592 0.08409 0.0
C233 C 0.80209 0.5826 0.04122 0.0
C234 C 0.76767 0.55343 0.07034 0.0
C235 C 0.73153 0.54464 0.0288 0.0
C236 C 0.69768 0.51525 0.05907 0.0
C237 C 0.69945 0.49512 0.12791 0.0
C238 C 0.73465 0.50419 0.16968 0.0
C239 C 0.76842 0.53312 0.14202 0.0
H240 H 0.30214 0.82029 0.42718 0.0
C241 C 0.32697 0.82801 0.38627 0.0
H242 H 0.3468 0.80899 0.26476 0.0
H243 H 0.19069 0.6536 0.36758 0.0
H244 H 0.2289 0.66226 0.50961 0.0
H245 H 0.29428 0.71777 0.54667 0.0
H246 H 0.32164 0.76519 0.44252 0.0
C247 C 0.32342 0.80292 0.30945 0.0
C248 C 0.28618 0.76656 0.28082 0.0
C249 C 0.271 0.73848 0.34115 0.0
C250 C 0.23361 0.70601 0.31866 0.0
C251 C 0.2189 0.67884 0.38118 0.0
C252 C 0.24058 0.68336 0.46281 0.0
C253 C 0.27736 0.71464 0.48375 0.0
C254 C 0.2926 0.74185 0.42373 0.0
H255 H 0.18258 0.63595 0.10775 0.0
C256 C 0.16143 0.63711 0.15287 0.0
H257 H 0.15115 0.66933 0.26548 0.0
H258 H 0.30798 0.81284 0.14523 0.0
H259 H 0.2708 0.80261 -0.00036 0.0
H260 H 0.20626 0.74596 0.96006 0.0
H261 H 0.17847 0.69918 0.06585 0.0
C262 C 0.1715 0.66866 0.21671 0.0
C263 C 0.21183 0.70098 0.23453 0.0
C264 C 0.22783 0.72783 0.17143 0.0
C265 C 0.26508 0.7606 0.19451 0.0
C266 C 0.27998 0.78737 0.13113 0.0
C267 C 0.25891 0.78188 0.04735 0.0
C268 C 0.22257 0.74998 0.02504 0.0
C269 C 0.20699 0.72327 0.08627 0.0
H270 H 0.6102 0.34051 0.68924 0.0
C271 C 0.57987 0.33107 0.67902 0.0
H272 H 0.52604 0.28591 0.61541 0.0
H273 H 0.58507 0.19431 0.34695 0.0
H274 H 0.56939 0.22433 0.23284 0.0
H275 H 0.55392 0.27479 0.28633 0.0
H276 H 0.55395 0.29557 0.45415 0.0
C277 C 0.55593 0.29542 0.63322 0.0
C278 C 0.56934 0.26797 0.60161 0.0
C279 C 0.5696 0.25644 0.50335 0.0
C280 C 0.57871 0.22746 0.47234 0.0
C281 C 0.57833 0.21619 0.37395 0.0
C282 C 0.56945 0.23321 0.30787 0.0
C283 C 0.56073 0.26162 0.33801 0.0
C284 C 0.56076 0.27322 0.43449 0.0
H285 H 0.53588 0.13811 0.53951 0.0
C286 C 0.56263 0.14104 0.51538 0.0
H287 H 0.61903 0.18037 0.48581 0.0
H288 H 0.5706 0.28218 0.79565 0.0
H289 H 0.58869 0.2538 0.90851 0.0
H290 H 0.60762 0.206 0.85435 0.0
H291 H 0.60808 0.18598 0.6866 0.0
C292 C 0.59157 0.17604 0.50774 0.0
C293 C 0.58738 0.20996 0.5395 0.0
C294 C 0.589 0.22275 0.63782 0.0
C295 C 0.57933 0.25128 0.66901 0.0
C296 C 0.57889 0.26164 0.76766 0.0
C297 C 0.58902 0.24538 0.83342 0.0
C298 C 0.59958 0.2184 0.80295 0.0
C299 C 0.59957 0.20706 0.70644 0.0
H300 H 1.02555 0.52648 0.8518 0.0
C301 C 1.03129 0.50808 0.88867 0.0
H302 H 0.05532 0.47194 0.88017 0.0
H303 H 1.03715 0.47043 0.42974 0.0
H304 H 0.99607 0.40252 0.43606 0.0
H305 H 0.98418 0.37895 0.58886 0.0
H306 H 1.01508 0.42284 0.73689 0.0
C307 C 1.04803 0.48961 0.84492 0.0
C308 C 0.06384 0.49972 0.75425 0.0
C309 C 1.04561 0.47377 0.67013 0.0
C310 C 1.0516 0.48762 0.58297 0.0
C311 C 1.03308 0.46136 0.49848 0.0
C312 C 1.00946 0.42246 0.50107 0.0
C313 C 1.00287 0.4091 0.58725 0.0
C314 C 1.02055 0.43444 0.67138 0.0
H315 H 0.12616 0.5529 0.45452 0.0
C316 C 0.09968 0.55242 0.43725 0.0
H317 H 1.04481 0.53918 0.47883 0.0
H318 H 0.11345 0.55241 0.90092 0.0
H319 H 0.15956 0.61933 0.8953 0.0
H320 H 0.16702 0.64494 0.74527 0.0
H321 H 0.129 0.60381 0.60042 0.0
C322 C 0.07259 0.54273 0.49814 0.0
C323 C 0.07529 0.52733 0.58238 0.0
C324 C 0.09794 0.55217 0.66485 0.0
C325 C 0.09284 0.53788 0.75121 0.0
C326 C 0.11571 0.56255 0.83394 0.0
C327 C 0.14231 0.60078 0.83139 0.0
C328 C 0.14654 0.61517 0.7469 0.0
C329 C 0.12458 0.59128 0.66428 0.0
H330 H 0.59419 1.01614 0.20726 0.0
C331 C 0.57297 1.02234 0.23837 0.0
H332 H 0.54004 0.04872 0.22516 0.0
H333 H 0.654 0.1588 0.96411 0.0
H334 H 0.66521 0.203 0.10971 0.0
H335 H 0.63601 0.17906 0.25514 0.0
H336 H 0.59503 0.11112 0.25571 0.0
C337 C 0.5587 0.03932 0.19184 0.0
C338 C 0.57525 0.05349 0.1043 0.0
C339 C 0.5994 0.09337 0.10635 0.0
C340 C 0.61664 0.10719 0.02338 0.0
C341 C 0.64021 0.14703 0.0258 0.0
C342 C 0.64696 0.17259 0.1088 0.0
C343 C 0.63051 0.15912 0.19067 0.0
C344 C 0.60699 0.12001 0.18995 0.0
H345 H 0.56869 0.09357 0.82932 0.0
C346 C 0.59363 0.09528 0.79613 0.0
H347 H 0.6437 0.0923 0.81521 0.0
H348 H 0.52858 0.97555 0.07648 0.0
H349 H 0.51874 0.93166 0.9323 0.0
H350 H 0.55127 0.95546 0.79058 0.0
H351 H 0.5946 1.02323 0.79246 0.0
C352 C 0.62072 0.09482 0.84866 0.0
C353 C 0.61 0.08108 0.93993 0.0
C354 C 0.58716 0.04112 0.9391 0.0
C355 C 0.56898 1.02733 0.021 0.0
C356 C 0.54407 0.9875 0.01684 0.0
C357 C 0.53794 0.96199 0.93436 0.0
C358 C 0.55631 0.9754 0.85453 0.0
C359 C 0.58084 1.01442 0.85649 0.0
H360 H 0.57189 0.51637 0.52295 0.0
C361 C 0.59444 0.54028 0.57133 0.0
H362 H 0.64547 0.59401 0.58514 0.0
H363 H 0.57667 0.50617 0.1348 0.0
H364 H 0.60853 0.47072 0.15591 0.0
H365 H 0.6447 0.48188 0.30775 0.0
H366 H 0.64956 0.52956 0.43886 0.0
C367 C 0.62329 0.56957 0.53748 0.0
C368 C 0.61712 0.57378 0.43963 0.0
C369 C 0.61451 0.54619 0.36442 0.0
C370 C 0.59306 0.53941 0.2785 0.0
C371 C 0.59165 0.51205 0.20318 0.0
C372 C 0.61006 0.49155 0.21413 0.0
C373 C 0.63042 0.49783 0.29951 0.0
C374 C 0.63276 0.52491 0.37414 0.0
H375 H 0.58225 0.6083 0.15327 0.0
C376 C 0.56238 0.57845 0.12499 0.0
H377 H 0.53099 0.52201 0.15057 0.0
H378 H 0.62886 0.63756 0.55924 0.0
H379 H 0.59994 0.67602 0.53808 0.0
H380 H 0.5542 0.65841 0.40007 0.0
H381 H 0.53971 0.60424 0.2787 0.0
C382 C 0.55064 0.55172 0.18064 0.0
C383 C 0.57355 0.55985 0.27009 0.0
C384 C 0.57887 0.58969 0.34327 0.0
C385 C 0.60263 0.59799 0.42618 0.0
C386 C 0.60982 0.62935 0.49629 0.0
C387 C 0.59328 0.65148 0.48525 0.0
C388 C 0.5679 0.64182 0.40697 0.0
C389 C 0.56026 0.61098 0.33714 0.0
loop_
_geom_bond_atom_site_label_1
_geom_bond_atom_site_label_2
_geom_bond_distance
_geom_bond_site_symmetry_2
_ccdc_geom_bond_type
Tb0 C9 2.764 . S
Tb0 O10 2.325 . S
Tb0 O13 2.303 1_655 S
Tb0 O17 2.322 1_655 S
Tb0 O18 2.349 1_554 S
Tb0 O21 2.415 . S
Tb0 O22 2.399 . S
Tb1 O11 2.322 1_455 S
Tb1 O12 2.349 . S
Tb1 O14 2.415 . S
Tb1 O15 2.399 . S
Tb1 O16 2.325 . S
Tb1 O19 2.303 . S
Tb1 C30 2.764 . S
C2 O18 1.261 1_455 S
C2 O19 1.257 1_556 S
C3 C6 1.358 . S
C3 C7 1.332 . S
C3 C9 1.504 . S
C4 C5 1.373 . S
C4 C8 1.308 . S
C5 C4 1.373 . S
C5 C6 1.429 . S
C5 H32 0.932 . S
C6 C3 1.358 . S
C6 C5 1.429 . S
C6 H33 0.930 . S
C7 C3 1.332 . S
C7 C8 1.394 . S
C7 H34 0.932 . S
C8 C4 1.308 . S
C8 C7 1.394 . S
C8 H35 0.929 . S
C9 Tb0 2.764 . S
C9 C3 1.504 . S
C9 O21 1.239 . S
C9 O22 1.263 . S
O10 Tb0 2.325 . S
O10 C20 1.236 . S
O11 Tb1 2.322 1_655 S
O11 C20 1.257 . S
O12 Tb1 2.349 . S
O12 C23 1.261 . S
O13 Tb0 2.303 1_455 S
O13 C23 1.257 . S
O14 Tb1 2.415 . S
O14 C30 1.239 . S
O15 Tb1 2.399 . S
O15 C30 1.263 . S
O16 Tb1 2.325 . S
O16 C31 1.236 . S
O17 Tb0 2.322 1_455 S
O17 C31 1.257 . S
O18 Tb0 2.349 1_556 S
O18 C2 1.261 1_655 S
O19 Tb1 2.303 . S
O19 C2 1.257 1_554 S
C20 O10 1.236 . S
C20 O11 1.257 . S
O21 Tb0 2.415 . S
O21 C9 1.239 . S
O22 Tb0 2.399 . S
O22 C9 1.263 . S
C23 O12 1.261 . S
C23 O13 1.257 . S
C24 C27 1.358 . S
C24 C28 1.332 . S
C24 C30 1.504 . S
C25 C26 1.373 . S
C25 C29 1.308 . S
C26 C25 1.373 . S
C26 C27 1.429 . S
C26 H36 0.932 . S
C27 C24 1.358 . S
C27 C26 1.429 . S
C27 H37 0.930 . S
C28 C24 1.332 . S
C28 C29 1.394 . S
C28 H38 0.932 . S
C29 C25 1.308 . S
C29 C28 1.394 . S
C29 H39 0.929 1_554 S
C30 Tb1 2.764 . S
C30 O14 1.239 . S
C30 O15 1.263 . S
C30 C24 1.504 . S
C31 O16 1.236 . S
C31 O17 1.257 . S
H32 C5 0.932 . S
H33 C6 0.930 . S
H34 C7 0.932 . S
H35 C8 0.929 . S
H36 C26 0.932 . S
H37 C27 0.930 . S
H38 C28 0.932 . S
H39 C29 0.929 1_556 S
Tb40 C49 2.764 . S
Tb40 O50 2.325 . S
Tb40 O53 2.303 1_565 S
Tb40 O57 2.322 1_565 S
Tb40 O58 2.349 . S
Tb40 O61 2.415 . S
Tb40 O62 2.399 . S
Tb41 O51 2.322 1_545 S
Tb41 O52 2.349 . S
Tb41 O54 2.415 . S
Tb41 O55 2.399 . S
Tb41 O56 2.325 . S
Tb41 O59 2.303 . S
Tb41 C70 2.764 . S
C42 O58 1.261 1_545 S
C42 O59 1.257 . S
C43 C46 1.358 . S
C43 C47 1.332 . S
C43 C49 1.504 . S
C44 C45 1.373 . S
C44 C48 1.308 . S
C45 C44 1.373 . S
C45 C46 1.429 . S
C45 H72 0.932 . S
C46 C43 1.358 . S
C46 C45 1.429 . S
C46 H73 0.930 . S
C47 C43 1.332 . S
C47 C48 1.394 . S
C47 H74 0.932 . S
C48 C44 1.308 . S
C48 C47 1.394 . S
C48 H75 0.929 . S
C49 Tb40 2.764 . S
C49 C43 1.504 . S
C49 O61 1.239 . S
C49 O62 1.263 . S
O50 Tb40 2.325 . S
O50 C60 1.236 . S
O51 Tb41 2.322 1_565 S
O51 C60 1.257 . S
O52 Tb41 2.349 . S
O52 C63 1.261 . S
O53 Tb40 2.303 1_545 S
O53 C63 1.257 . S
O54 Tb41 2.415 . S
O54 C70 1.239 . S
O55 Tb41 2.399 . S
O55 C70 1.263 . S
O56 Tb41 2.325 . S
O56 C71 1.236 . S
O57 Tb40 2.322 1_545 S
O57 C71 1.257 . S
O58 Tb40 2.349 . S
O58 C42 1.261 1_565 S
O59 Tb41 2.303 . S
O59 C42 1.257 . S
C60 O50 1.236 . S
C60 O51 1.257 . S
O61 Tb40 2.415 . S
O61 C49 1.239 . S
O62 Tb40 2.399 . S
O62 C49 1.263 . S
C63 O52 1.261 . S
C63 O53 1.257 . S
C64 C67 1.358 . S
C64 C68 1.332 . S
C64 C70 1.504 . S
C65 C66 1.373 . S
C65 C69 1.308 . S
C66 C65 1.373 . S
C66 C67 1.429 . S
C66 H76 0.932 . S
C67 C64 1.358 . S
C67 C66 1.429 . S
C67 H77 0.930 . S
C68 C64 1.332 . S
C68 C69 1.394 . S
C68 H78 0.932 . S
C69 C65 1.308 . S
C69 C68 1.394 . S
C69 H79 0.929 . S
C70 Tb41 2.764 . S
C70 O54 1.239 . S
C70 O55 1.263 . S
C70 C64 1.504 . S
C71 O56 1.236 . S
C71 O57 1.257 . S
H72 C45 0.932 . S
H73 C46 0.930 . S
H74 C47 0.932 . S
H75 C48 0.929 . S
H76 C66 0.932 . S
H77 C67 0.930 . S
H78 C68 0.932 . S
H79 C69 0.929 . S
Tb80 C89 2.764 . S
Tb80 O90 2.325 . S
Tb80 O93 2.303 . S
Tb80 O97 2.322 . S
Tb80 O98 2.349 . S
Tb80 O101 2.415 . S
Tb80 O102 2.399 . S
Tb81 O91 2.322 . S
Tb81 O92 2.349 1_556 S
Tb81 O94 2.415 . S
Tb81 O95 2.399 . S
Tb81 O96 2.325 . S
Tb81 O99 2.303 . S
Tb81 C110 2.764 . S
C82 O98 1.261 . S
C82 O99 1.257 . S
C83 C86 1.358 . S
C83 C87 1.332 . S
C83 C89 1.504 . S
C84 C85 1.373 . S
C84 C88 1.308 . S
C85 C84 1.373 . S
C85 C86 1.429 . S
C85 H112 0.932 . S
C86 C83 1.358 . S
C86 C85 1.429 . S
C86 H113 0.930 . S
C87 C83 1.332 . S
C87 C88 1.394 . S
C87 H114 0.932 . S
C88 C84 1.308 . S
C88 C87 1.394 . S
C88 H115 0.929 . S
C89 Tb80 2.764 . S
C89 C83 1.504 . S
C89 O101 1.239 . S
C89 O102 1.263 . S
O90 Tb80 2.325 . S
O90 C100 1.236 . S
O91 Tb81 2.322 . S
O91 C100 1.257 . S
O92 Tb81 2.349 1_554 S
O92 C103 1.261 . S
O93 Tb80 2.303 . S
O93 C103 1.257 1_556 S
O94 Tb81 2.415 . S
O94 C110 1.239 . S
O95 Tb81 2.399 . S
O95 C110 1.263 . S
O96 Tb81 2.325 . S
O96 C111 1.236 . S
O97 Tb80 2.322 . S
O97 C111 1.257 . S
O98 Tb80 2.349 . S
O98 C82 1.261 . S
O99 Tb81 2.303 . S
O99 C82 1.257 . S
C100 O90 1.236 . S
C100 O91 1.257 . S
O101 Tb80 2.415 . S
O101 C89 1.239 . S
O102 Tb80 2.399 . S
O102 C89 1.263 . S
C103 O92 1.261 . S
C103 O93 1.257 1_554 S
C104 C107 1.358 . S
C104 C108 1.332 . S
C104 C110 1.504 . S
C105 C106 1.373 . S
C105 C109 1.308 . S
C106 C105 1.373 . S
C106 C107 1.429 . S
C106 H116 0.932 . S
C107 C104 1.358 . S
C107 C106 1.429 . S
C107 H117 0.930 . S
C108 C104 1.332 . S
C108 C109 1.394 . S
C108 H118 0.932 . S
C109 C105 1.308 . S
C109 C108 1.394 . S
C109 H119 0.929 . S
C110 Tb81 2.764 . S
C110 O94 1.239 . S
C110 O95 1.263 . S
C110 C104 1.504 . S
C111 O96 1.236 . S
C111 O97 1.257 . S
H112 C85 0.932 . S
H113 C86 0.930 . S
H114 C87 0.932 . S
H115 C88 0.929 . S
H116 C106 0.932 . S
H117 C107 0.930 . S
H118 C108 0.932 . S
H119 C109 0.929 . S
H120 C121 0.951 . S
C121 H120 0.951 . S
C121 C127 1.265 . S
H122 C127 0.950 1_556 S
H123 C131 0.949 . S
H124 C132 0.950 . S
H125 C133 0.951 . S
H126 C134 0.951 . S
C127 C121 1.265 . S
C127 H122 0.950 1_554 S
C127 C128 1.478 1_554 S
C128 C127 1.478 1_556 S
C128 C129 1.397 . S
C128 C145 1.394 . S
C129 C128 1.397 . S
C129 C130 1.438 . S
C129 C134 1.429 . S
C130 C129 1.438 . S
C130 C131 1.428 . S
C130 C143 1.394 . S
C131 H123 0.949 . S
C131 C130 1.428 . S
C131 C132 1.345 . S
C132 H124 0.950 . S
C132 C131 1.345 . S
C132 C133 1.424 . S
C133 H125 0.951 . S
C133 C132 1.424 . S
C133 C134 1.347 . S
C134 H126 0.951 . S
C134 C129 1.429 . S
C134 C133 1.347 . S
H135 C136 0.951 . S
C136 H135 0.951 . S
C136 C142 1.265 . S
H137 C142 0.950 . S
H138 C146 0.949 . S
H139 C147 0.950 . S
H140 C148 0.951 . S
H141 C149 0.951 . S
C142 C136 1.265 . S
C142 H137 0.950 . S
C142 C143 1.478 . S
C143 C130 1.394 . S
C143 C142 1.478 . S
C143 C144 1.397 . S
C144 C143 1.397 . S
C144 C145 1.438 . S
C144 C149 1.429 . S
C145 C128 1.394 . S
C145 C144 1.438 . S
C145 C146 1.428 1_556 S
C146 H138 0.949 . S
C146 C145 1.428 1_554 S
C146 C147 1.345 . S
C147 H139 0.950 . S
C147 C146 1.345 . S
C147 C148 1.424 . S
C148 H140 0.951 . S
C148 C147 1.424 . S
C148 C149 1.347 1_554 S
C149 H141 0.951 . S
C149 C144 1.429 . S
C149 C148 1.347 1_556 S
H150 C151 0.951 . S
C151 H150 0.951 . S
C151 C157 1.265 . S
H152 C157 0.950 . S
H153 C161 0.949 . S
H154 C162 0.950 . S
H155 C163 0.951 . S
H156 C164 0.951 . S
C157 C151 1.265 . S
C157 H152 0.950 . S
C157 C158 1.478 . S
C158 C157 1.478 . S
C158 C159 1.397 . S
C158 C175 1.394 . S
C159 C158 1.397 . S
C159 C160 1.438 . S
C159 C164 1.429 . S
C160 C159 1.438 . S
C160 C161 1.428 . S
C160 C173 1.394 . S
C161 H153 0.949 . S
C161 C160 1.428 . S
C161 C162 1.345 . S
C162 H154 0.950 . S
C162 C161 1.345 . S
C162 C163 1.424 . S
C163 H155 0.951 . S
C163 C162 1.424 . S
C163 C164 1.347 . S
C164 H156 0.951 . S
C164 C159 1.429 . S
C164 C163 1.347 . S
H165 C166 0.951 . S
C166 H165 0.951 . S
C166 C172 1.265 . S
H167 C172 0.950 . S
H168 C176 0.949 . S
H169 C177 0.950 . S
H170 C178 0.951 . S
H171 C179 0.951 . S
C172 C166 1.265 . S
C172 H167 0.950 . S
C172 C173 1.478 . S
C173 C160 1.394 . S
C173 C172 1.478 . S
C173 C174 1.397 . S
C174 C173 1.397 . S
C174 C175 1.438 . S
C174 C179 1.429 . S
C175 C158 1.394 . S
C175 C174 1.438 . S
C175 C176 1.428 . S
C176 H168 0.949 . S
C176 C175 1.428 . S
C176 C177 1.345 . S
C177 H169 0.950 . S
C177 C176 1.345 . S
C177 C178 1.424 . S
C178 H170 0.951 . S
C178 C177 1.424 . S
C178 C179 1.347 . S
C179 H171 0.951 . S
C179 C174 1.429 . S
C179 C178 1.347 . S
H180 C181 0.951 . S
C181 H180 0.951 . S
C181 C187 1.265 . S
H182 C187 0.950 . S
H183 C191 0.949 . S
H184 C192 0.950 . S
H185 C193 0.951 . S
H186 C194 0.951 . S
C187 C181 1.265 . S
C187 H182 0.950 . S
C187 C188 1.478 . S
C188 C187 1.478 . S
C188 C189 1.397 . S
C188 C205 1.394 . S
C189 C188 1.397 . S
C189 C190 1.438 . S
C189 C194 1.429 . S
C190 C189 1.438 . S
C190 C191 1.428 . S
C190 C203 1.394 . S
C191 H183 0.949 . S
C191 C190 1.428 . S
C191 C192 1.345 . S
C192 H184 0.950 . S
C192 C191 1.345 . S
C192 C193 1.424 . S
C193 H185 0.951 . S
C193 C192 1.424 . S
C193 C194 1.347 . S
C194 H186 0.951 . S
C194 C189 1.429 . S
C194 C193 1.347 . S
H195 C196 0.951 . S
C196 H195 0.951 . S
C196 C202 1.265 . S
H197 C202 0.950 . S
H198 C206 0.949 . S
H199 C207 0.950 . S
H200 C208 0.951 . S
H201 C209 0.951 . S
C202 C196 1.265 . S
C202 H197 0.950 . S
C202 C203 1.478 . S
C203 C190 1.394 . S
C203 C202 1.478 . S
C203 C204 1.397 . S
C204 C203 1.397 . S
C204 C205 1.438 . S
C204 C209 1.429 . S
C205 C188 1.394 . S
C205 C204 1.438 . S
C205 C206 1.428 . S
C206 H198 0.949 . S
C206 C205 1.428 . S
C206 C207 1.345 . S
C207 H199 0.950 . S
C207 C206 1.345 . S
C207 C208 1.424 . S
C208 H200 0.951 . S
C208 C207 1.424 . S
C208 C209 1.347 . S
C209 H201 0.951 . S
C209 C204 1.429 . S
C209 C208 1.347 . S
H210 C211 0.951 . S
C211 H210 0.951 . S
C211 C217 1.265 . S
H212 C217 0.950 . S
H213 C221 0.949 . S
H214 C222 0.950 . S
H215 C223 0.951 . S
H216 C224 0.951 . S
C217 C211 1.265 . S
C217 H212 0.950 . S
C217 C218 1.478 . S
C218 C217 1.478 . S
C218 C219 1.397 . S
C218 C235 1.394 1_556 S
C219 C218 1.397 . S
C219 C220 1.438 1_556 S
C219 C224 1.429 . S
C220 C219 1.438 1_554 S
C220 C221 1.428 . S
C220 C233 1.394 . S
C221 H213 0.949 . S
C221 C220 1.428 . S
C221 C222 1.345 . S
C222 H214 0.950 . S
C222 C221 1.345 . S
C222 C223 1.424 1_554 S
C223 H215 0.951 . S
C223 C222 1.424 1_556 S
C223 C224 1.347 . S
C224 H216 0.951 . S
C224 C219 1.429 . S
C224 C223 1.347 . S
H225 C226 0.951 . S
C226 H225 0.951 . S
C226 C232 1.265 . S
H227 C232 0.950 . S
H228 C236 0.949 1_556 S
H229 C237 0.950 . S
H230 C238 0.951 . S
H231 C239 0.951 . S
C232 C226 1.265 . S
C232 H227 0.950 . S
C232 C233 1.478 . S
C233 C220 1.394 . S
C233 C232 1.478 . S
C233 C234 1.397 . S
C234 C233 1.397 . S
C234 C235 1.438 . S
C234 C239 1.429 . S
C235 C218 1.394 1_554 S
C235 C234 1.438 . S
C235 C236 1.428 . S
C236 H228 0.949 1_554 S
C236 C235 1.428 . S
C236 C237 1.345 . S
C237 H229 0.950 . S
C237 C236 1.345 . S
C237 C238 1.424 . S
C238 H230 0.951 . S
C238 C237 1.424 . S
C238 C239 1.347 . S
C239 H231 0.951 . S
C239 C234 1.429 . S
C239 C238 1.347 . S
H240 C241 0.951 . S
C241 H240 0.951 . S
C241 C247 1.265 . S
H242 C247 0.950 . S
H243 C251 0.949 . S
H244 C252 0.950 . S
H245 C253 0.951 . S
H246 C254 0.951 . S
C247 C241 1.265 . S
C247 H242 0.950 . S
C247 C248 1.478 . S
C248 C247 1.478 . S
C248 C249 1.397 . S
C248 C265 1.394 . S
C249 C248 1.397 . S
C249 C250 1.438 . S
C249 C254 1.429 . S
C250 C249 1.438 . S
C250 C251 1.428 . S
C250 C263 1.394 . S
C251 H243 0.949 . S
C251 C250 1.428 . S
C251 C252 1.345 . S
C252 H244 0.950 . S
C252 C251 1.345 . S
C252 C253 1.424 . S
C253 H245 0.951 . S
C253 C252 1.424 . S
C253 C254 1.347 . S
C254 H246 0.951 . S
C254 C249 1.429 . S
C254 C253 1.347 . S
H255 C256 0.951 . S
C256 H255 0.951 . S
C256 C262 1.265 . S
H257 C262 0.950 . S
H258 C266 0.949 . S
H259 C267 0.950 . S
H260 C268 0.951 . S
H261 C269 0.951 . S
C262 C256 1.265 . S
C262 H257 0.950 . S
C262 C263 1.478 . S
C263 C250 1.394 . S
C263 C262 1.478 . S
C263 C264 1.397 . S
C264 C263 1.397 . S
C264 C265 1.438 . S
C264 C269 1.429 . S
C265 C248 1.394 . S
C265 C264 1.438 . S
C265 C266 1.428 . S
C266 H258 0.949 . S
C266 C265 1.428 . S
C266 C267 1.345 . S
C267 H259 0.950 . S
C267 C266 1.345 . S
C267 C268 1.424 . S
C268 H260 0.951 . S
C268 C267 1.424 . S
C268 C269 1.347 . S
C269 H261 0.951 . S
C269 C264 1.429 . S
C269 C268 1.347 . S
H270 C271 0.951 . S
C271 H270 0.951 . S
C271 C277 1.265 . S
H272 C277 0.950 . S
H273 C281 0.949 . S
H274 C282 0.950 . S
H275 C283 0.951 . S
H276 C284 0.951 . S
C277 C271 1.265 . S
C277 H272 0.950 . S
C277 C278 1.478 . S
C278 C277 1.478 . S
C278 C279 1.397 . S
C278 C295 1.394 . S
C279 C278 1.397 . S
C279 C280 1.438 . S
C279 C284 1.429 . S
C280 C279 1.438 . S
C280 C281 1.428 . S
C280 C293 1.394 . S
C281 H273 0.949 . S
C281 C280 1.428 . S
C281 C282 1.345 . S
C282 H274 0.950 . S
C282 C281 1.345 . S
C282 C283 1.424 . S
C283 H275 0.951 . S
C283 C282 1.424 . S
C283 C284 1.347 . S
C284 H276 0.951 . S
C284 C279 1.429 . S
C284 C283 1.347 . S
H285 C286 0.951 . S
C286 H285 0.951 . S
C286 C292 1.265 . S
H287 C292 0.950 . S
H288 C296 0.949 . S
H289 C297 0.950 1_554 S
H290 C298 0.951 . S
H291 C299 0.951 . S
C292 C286 1.265 . S
C292 H287 0.950 . S
C292 C293 1.478 . S
C293 C280 1.394 . S
C293 C292 1.478 . S
C293 C294 1.397 . S
C294 C293 1.397 . S
C294 C295 1.438 . S
C294 C299 1.429 . S
C295 C278 1.394 . S
C295 C294 1.438 . S
C295 C296 1.428 . S
C296 H288 0.949 . S
C296 C295 1.428 . S
C296 C297 1.345 . S
C297 H289 0.950 1_556 S
C297 C296 1.345 . S
C297 C298 1.424 . S
C298 H290 0.951 . S
C298 C297 1.424 . S
C298 C299 1.347 . S
C299 H291 0.951 . S
C299 C294 1.429 . S
C299 C298 1.347 . S
H300 C301 0.951 1_655 S
C301 H300 0.951 1_455 S
C301 C307 1.265 . S
H302 C307 0.950 . S
H303 C311 0.956 . S
H304 C312 0.950 . S
H305 C313 0.951 . S
H306 C314 0.951 . S
C307 C301 1.265 . S
C307 H302 0.950 . S
C307 C308 1.478 . S
C308 C307 1.478 . S
C308 C309 1.397 . S
C308 C325 1.394 . S
C309 C308 1.397 . S
C309 C310 1.438 . S
C309 C314 1.429 . S
C310 C309 1.438 . S
C310 C311 1.432 1_455 S
C310 C323 1.394 . S
C311 H303 0.956 . S
C311 C310 1.432 1_655 S
C311 C312 1.334 . S
C312 H304 0.950 . S
C312 C311 1.334 . S
C312 C313 1.424 1_655 S
C313 H305 0.951 . S
C313 C312 1.424 1_455 S
C313 C314 1.347 . S
C314 H306 0.951 . S
C314 C309 1.429 . S
C314 C313 1.347 . S
H315 C316 0.951 . S
C316 H315 0.951 . S
C316 C322 1.288 . S
H317 C322 0.913 1_655 S
H318 C326 0.949 . S
H319 C327 0.950 . S
H320 C328 0.951 . S
H321 C329 0.951 . S
C322 C316 1.288 . S
C322 H317 0.913 1_455 S
C322 C323 1.489 . S
C323 C310 1.394 . S
C323 C322 1.489 . S
C323 C324 1.397 . S
C324 C323 1.397 . S
C324 C325 1.438 . S
C324 C329 1.429 . S
C325 C308 1.394 . S
C325 C324 1.438 . S
C325 C326 1.428 . S
C326 H318 0.949 . S
C326 C325 1.428 . S
C326 C327 1.345 . S
C327 H319 0.950 . S
C327 C326 1.345 . S
C327 C328 1.424 . S
C328 H320 0.951 . S
C328 C327 1.424 . S
C328 C329 1.347 . S
C329 H321 0.951 . S
C329 C324 1.429 . S
C329 C328 1.347 . S
H330 C331 0.951 . S
C331 H330 0.951 . S
C331 C337 1.265 . S
H332 C337 0.950 . S
H333 C341 0.949 . S
H334 C342 0.950 . S
H335 C343 0.951 . S
H336 C344 0.951 . S
C337 C331 1.265 . S
C337 H332 0.950 . S
C337 C338 1.478 . S
C338 C337 1.478 . S
C338 C339 1.397 . S
C338 C355 1.394 1_545 S
C339 C338 1.397 . S
C339 C340 1.438 1_554 S
C339 C344 1.429 . S
C340 C339 1.438 1_556 S
C340 C341 1.428 . S
C340 C353 1.394 . S
C341 H333 0.949 . S
C341 C340 1.428 . S
C341 C342 1.345 . S
C342 H334 0.950 . S
C342 C341 1.345 . S
C342 C343 1.424 1_556 S
C343 H335 0.951 . S
C343 C342 1.424 1_554 S
C343 C344 1.347 . S
C344 H336 0.951 . S
C344 C339 1.429 . S
C344 C343 1.347 . S
H345 C346 0.951 . S
C346 H345 0.951 . S
C346 C352 1.265 . S
H347 C352 0.950 . S
H348 C356 0.949 . S
H349 C357 0.950 . S
H350 C358 0.951 . S
H351 C359 0.951 . S
C352 C346 1.265 . S
C352 H347 0.950 . S
C352 C353 1.478 . S
C353 C340 1.394 . S
C353 C352 1.478 . S
C353 C354 1.397 1_545 S
C354 C353 1.397 1_565 S
C354 C355 1.438 1_556 S
C354 C359 1.429 . S
C355 C338 1.394 1_565 S
C355 C354 1.438 1_554 S
C355 C356 1.428 . S
C356 H348 0.949 . S
C356 C355 1.428 . S
C356 C357 1.345 . S
C357 H349 0.950 . S
C357 C356 1.345 . S
C357 C358 1.424 1_554 S
C358 H350 0.951 . S
C358 C357 1.424 1_556 S
C358 C359 1.347 . S
C359 H351 0.951 . S
C359 C354 1.429 . S
C359 C358 1.347 . S
H360 C361 0.951 . S
C361 H360 0.951 . S
C361 C367 1.265 . S
H362 C367 0.950 . S
H363 C371 0.949 . S
H364 C372 0.950 . S
H365 C373 0.951 . S
H366 C374 0.951 . S
C367 C361 1.265 . S
C367 H362 0.950 . S
C367 C368 1.478 . S
C368 C367 1.478 . S
C368 C369 1.397 . S
C368 C385 1.394 . S
C369 C368 1.397 . S
C369 C370 1.438 . S
C369 C374 1.429 . S
C370 C369 1.438 . S
C370 C371 1.428 . S
C370 C383 1.394 . S
C371 H363 0.949 . S
C371 C370 1.428 . S
C371 C372 1.345 . S
C372 H364 0.950 . S
C372 C371 1.345 . S
C372 C373 1.424 . S
C373 H365 0.951 . S
C373 C372 1.424 . S
C373 C374 1.347 . S
C374 H366 0.951 . S
C374 C369 1.429 . S
C374 C373 1.347 . S
H375 C376 0.951 . S
C376 H375 0.951 . S
C376 C382 1.265 . S
H377 C382 0.950 . S
H378 C386 0.949 . S
H379 C387 0.950 . S
H380 C388 0.951 . S
H381 C389 0.951 . S
C382 C376 1.265 . S
C382 H377 0.950 . S
C382 C383 1.478 . S
C383 C370 1.394 . S
C383 C382 1.478 . S
C383 C384 1.397 . S
C384 C383 1.397 . S
C384 C385 1.438 . S
C384 C389 1.429 . S
C385 C368 1.394 . S
C385 C384 1.438 . S
C385 C386 1.428 . S
C386 H378 0.949 . S
C386 C385 1.428 . S
C386 C387 1.345 . S
C387 H379 0.950 . S
C387 C386 1.345 . S
C387 C388 1.424 . S
C388 H380 0.951 . S
C388 C387 1.424 . S
C388 C389 1.347 . S
C389 H381 0.951 . S
C389 C384 1.429 . S
C389 C388 1.347 . S
C121 C25 1.856 . S
C136 C111 1.824 . S
C151 C65 2.037 . S
C166 C20 2.058 . S
C181 C60 2.069 . S
C196 C105 2.046 . S
C211 C100 2.031 . S
C226 C4 1.969 . S
C241 C44 1.770 . S
C256 C31 1.746 . S
C271 C84 1.760 . S
C286 C71 1.733 . S
C301 C2 0.408 . S
C316 C23 0.408 . S
C331 C42 0.592 . S
C346 C63 0.592 . S
C361 C82 0.561 . S
C376 C103 0.561 . S
