# Generated by pormake.
# Topology sne, (6)-cn, num edge types: 1
# Building blocks:
#     Node 0, Type 0, BuildingBlock: OJICUG_clean_sbu_0, # of connection points: 6
#     Node 1, Type 0, BuildingBlock: OJICUG_clean_sbu_0, # of connection points: 6
#     Node 2, Type 0, BuildingBlock: OJICUG_clean_sbu_0, # of connection points: 6
#     Node 3, Type 0, BuildingBlock: OJICUG_clean_sbu_0, # of connection points: 6
#     Node 4, Type 0, BuildingBlock: OJICUG_clean_sbu_0, # of connection points: 6
#     Node 5, Type 0, BuildingBlock: OJICUG_clean_sbu_0, # of connection points: 6
#     Node 6, Type 0, BuildingBlock: OJICUG_clean_sbu_0, # of connection points: 6
#     Node 7, Type 0, BuildingBlock: OJICUG_clean_sbu_0, # of connection points: 6
#     Edge 8, Type (0, 0), BuildingBlock: KIFKEQ_clean_linker_1, # of connection points: 2
#     Edge 9, Type (0, 0), BuildingBlock: KIFKEQ_clean_linker_1, # of connection points: 2
#     Edge 10, Type (0, 0), BuildingBlock: KIFKEQ_clean_linker_1, # of connection points: 2
#     Edge 11, Type (0, 0), BuildingBlock: KIFKEQ_clean_linker_1, # of connection points: 2
#     Edge 12, Type (0, 0), BuildingBlock: KIFKEQ_clean_linker_1, # of connection points: 2
#     Edge 13, Type (0, 0), BuildingBlock: KIFKEQ_clean_linker_1, # of connection points: 2
#     Edge 14, Type (0, 0), BuildingBlock: KIFKEQ_clean_linker_1, # of connection points: 2
#     Edge 15, Type (0, 0), BuildingBlock: KIFKEQ_clean_linker_1, # of connection points: 2
#     Edge 16, Type (0, 0), BuildingBlock: KIFKEQ_clean_linker_1, # of connection points: 2
#     Edge 17, Type (0, 0), BuildingBlock: KIFKEQ_clean_linker_1, # of connection points: 2
#     Edge 18, Type (0, 0), BuildingBlock: KIFKEQ_clean_linker_1, # of connection points: 2
#     Edge 19, Type (0, 0), BuildingBlock: KIFKEQ_clean_linker_1, # of connection points: 2
#     Edge 20, Type (0, 0), BuildingBlock: KIFKEQ_clean_linker_1, # of connection points: 2
#     Edge 21, Type (0, 0), BuildingBlock: KIFKEQ_clean_linker_1, # of connection points: 2
#     Edge 22, Type (0, 0), BuildingBlock: KIFKEQ_clean_linker_1, # of connection points: 2
#     Edge 23, Type (0, 0), BuildingBlock: KIFKEQ_clean_linker_1, # of connection points: 2
#     Edge 24, Type (0, 0), BuildingBlock: KIFKEQ_clean_linker_1, # of connection points: 2
#     Edge 25, Type (0, 0), BuildingBlock: KIFKEQ_clean_linker_1, # of connection points: 2
#     Edge 26, Type (0, 0), BuildingBlock: KIFKEQ_clean_linker_1, # of connection points: 2
#     Edge 27, Type (0, 0), BuildingBlock: KIFKEQ_clean_linker_1, # of connection points: 2
#     Edge 28, Type (0, 0), BuildingBlock: KIFKEQ_clean_linker_1, # of connection points: 2
#     Edge 29, Type (0, 0), BuildingBlock: KIFKEQ_clean_linker_1, # of connection points: 2
#     Edge 30, Type (0, 0), BuildingBlock: KIFKEQ_clean_linker_1, # of connection points: 2
#     Edge 31, Type (0, 0), BuildingBlock: KIFKEQ_clean_linker_1, # of connection points: 2
# Relax obj value: 0.189
# Max RMSD: 0.224
# Mean RMSD: 0.224
data_MOF--net-sne--node1-OJICUG_clean_sbu_0--edge1-KIFKEQ_clean_linker_1
_symmetry_space_group_name_H-M    P1
_symmetry_Int_Tables_number       1
_symmetry_cell_setting            triclinic
loop_
_symmetry_equiv_pos_as_xyz
'x, y, z'
_cell_length_a     35.430138
_cell_length_b     35.470446
_cell_length_c     29.245221
_cell_angle_alpha  90.151182
_cell_angle_beta   89.802277
_cell_angle_gamma 90.155394
loop_
_atom_site_label
_atom_site_type_symbol
_atom_site_fract_x
_atom_site_fract_y
_atom_site_fract_z
_atom_type_partial_charge
Sc0 Sc 0.25257 0.11181 0.37213 0.0
Sc1 Sc 0.17294 0.12018 0.30515 0.0
Sc2 Sc 0.22284 0.20112 0.33874 0.0
O3 O 0.21639 0.1448 0.33822 0.0
C4 C 0.25271 0.18411 0.43759 0.0
C5 C 0.17982 0.07038 0.39544 0.0
C6 C 0.13528 0.18661 0.35985 0.0
C7 C 0.23389 0.0629 0.28173 0.0
C8 C 0.30584 0.16791 0.31982 0.0
C9 C 0.18897 0.19102 0.24053 0.0
O10 O 0.26303 0.1508 0.42778 0.0
O11 O 0.16783 0.07493 0.35484 0.0
O12 O 0.16346 0.20904 0.35621 0.0
O13 O 0.2477 0.06668 0.32174 0.0
O14 O 0.28255 0.19542 0.32183 0.0
O15 O 0.17094 0.16107 0.25026 0.0
O16 O 0.29828 0.13495 0.3343 0.0
O17 O 0.21029 0.08605 0.26524 0.0
O18 O 0.21198 0.2063 0.26784 0.0
O19 O 0.20754 0.08878 0.41131 0.0
O20 O 0.23467 0.20447 0.40986 0.0
O21 O 0.13504 0.15289 0.34504 0.0
Sc22 Sc 0.12799 0.7792 0.63902 0.0
Sc23 Sc 0.14226 0.69241 0.58307 0.0
Sc24 Sc 0.21771 0.75664 0.59672 0.0
O25 O 0.16259 0.74264 0.60625 0.0
C26 C 0.17546 0.83241 0.57265 0.0
C27 C 0.07449 0.74704 0.56026 0.0
C28 C 0.20081 0.71114 0.50458 0.0
C29 C 0.09883 0.7011 0.67843 0.0
C30 C 0.20286 0.79242 0.69509 0.0
C31 C 0.2221 0.67143 0.62643 0.0
O32 O 0.14864 0.82576 0.60038 0.0
O33 O 0.09285 0.71681 0.55394 0.0
O34 O 0.22076 0.7318 0.53035 0.0
O35 O 0.1036 0.73648 0.68066 0.0
O36 O 0.22404 0.78327 0.66195 0.0
O37 O 0.18992 0.6634 0.60997 0.0
O38 O 0.16718 0.79007 0.6932 0.0
O39 O 0.11128 0.68102 0.64557 0.0
O40 O 0.23595 0.70458 0.62771 0.0
O41 O 0.08421 0.77223 0.58895 0.0
O42 O 0.2023 0.80936 0.56501 0.0
O43 O 0.16961 0.69688 0.51733 0.0
Sc44 Sc 0.74519 0.77926 0.37508 0.0
Sc45 Sc 0.79161 0.86338 0.34495 0.0
Sc46 Sc 0.70834 0.86717 0.40836 0.0
O47 O 0.74825 0.83633 0.37595 0.0
C48 C 0.66047 0.80559 0.3553 0.0
C49 C 0.78283 0.79228 0.27854 0.0
C50 C 0.72605 0.91578 0.31732 0.0
C51 C 0.83186 0.79765 0.39801 0.0
C52 C 0.71358 0.79631 0.47499 0.0
C53 C 0.77798 0.91563 0.43284 0.0
O54 O 0.68658 0.78086 0.35349 0.0
O55 O 0.79676 0.82399 0.2894 0.0
O56 O 0.70853 0.90982 0.35486 0.0
O57 O 0.80397 0.77471 0.39605 0.0
O58 O 0.70368 0.82988 0.46622 0.0
O59 O 0.79414 0.90822 0.39505 0.0
O60 O 0.72951 0.77527 0.44568 0.0
O61 O 0.8306 0.83137 0.38346 0.0
O62 O 0.74896 0.89812 0.44665 0.0
O63 O 0.76076 0.77413 0.30462 0.0
O64 O 0.66456 0.83795 0.37333 0.0
O65 O 0.75446 0.89659 0.30479 0.0
Sc66 Sc 0.86177 0.21787 0.63746 0.0
Sc67 Sc 0.84744 0.30563 0.58447 0.0
Sc68 Sc 0.77006 0.24663 0.61084 0.0
O69 O 0.82649 0.25682 0.61089 0.0
C70 C 0.8021 0.16694 0.58407 0.0
C71 C 0.9066 0.24527 0.5489 0.0
C72 C 0.77987 0.29018 0.51614 0.0
C73 C 0.9018 0.29397 0.66968 0.0
C74 C 0.79407 0.21128 0.70684 0.0
C75 C 0.77469 0.33215 0.64028 0.0
O76 O 0.83199 0.17207 0.607 0.0
O77 O 0.89155 0.27767 0.54798 0.0
O78 O 0.76124 0.27106 0.54502 0.0
O79 O 0.89582 0.25876 0.67138 0.0
O80 O 0.77018 0.2208 0.67686 0.0
O81 O 0.80522 0.33803 0.61851 0.0
O82 O 0.82944 0.21198 0.69956 0.0
O83 O 0.8855 0.31549 0.64118 0.0
O84 O 0.75906 0.29994 0.64401 0.0
O85 O 0.89772 0.21989 0.57776 0.0
O86 O 0.77744 0.19246 0.57791 0.0
O87 O 0.81296 0.30243 0.52397 0.0
Sc88 Sc 0.23029 0.29086 0.84372 0.0
Sc89 Sc 0.29485 0.3639 0.81966 0.0
Sc90 Sc 0.20836 0.38449 0.8732 0.0
O91 O 0.24449 0.34635 0.8455 0.0
C92 C 0.15416 0.33301 0.8134 0.0
C93 C 0.27371 0.29867 0.74888 0.0
C94 C 0.24426 0.43122 0.78954 0.0
C95 C 0.31696 0.28935 0.87304 0.0
C96 C 0.19288 0.31376 0.93799 0.0
C97 C 0.28566 0.41462 0.91075 0.0
O98 O 0.17504 0.30373 0.81557 0.0
O99 O 0.29156 0.32862 0.75919 0.0
O100 O 0.22103 0.42714 0.82246 0.0
O101 O 0.28427 0.27418 0.87265 0.0
O102 O 0.19081 0.34874 0.9293 0.0
O103 O 0.30458 0.4027 0.87644 0.0
O104 O 0.2077 0.29031 0.91083 0.0
O105 O 0.32436 0.32119 0.85549 0.0
O106 O 0.25096 0.40704 0.91667 0.0
O107 O 0.25077 0.28279 0.77598 0.0
O108 O 0.16305 0.36445 0.83145 0.0
O109 O 0.27032 0.4079 0.78103 0.0
Sc110 Sc 0.38896 0.70788 0.1365 0.0
Sc111 Sc 0.38359 0.7919 0.07614 0.0
Sc112 Sc 0.30214 0.73776 0.09524 0.0
O113 O 0.35792 0.74589 0.10239 0.0
C114 C 0.33927 0.65649 0.07366 0.0
C115 C 0.44692 0.73597 0.05868 0.0
C116 C 0.32115 0.77514 0.00038 0.0
C117 C 0.42479 0.78016 0.17295 0.0
C118 C 0.31164 0.70311 0.19257 0.0
C119 C 0.30961 0.82597 0.11963 0.0
O120 O 0.37147 0.66433 0.09048 0.0
O121 O 0.42404 0.75855 0.03999 0.0
O122 O 0.3035 0.75136 0.02463 0.0
O123 O 0.40678 0.75039 0.18329 0.0
O124 O 0.29358 0.7236 0.16501 0.0
O125 O 0.3446 0.82815 0.11016 0.0
O126 O 0.34519 0.6923 0.18474 0.0
O127 O 0.42206 0.79594 0.13393 0.0
O128 O 0.28994 0.79603 0.11419 0.0
O129 O 0.43898 0.71842 0.09541 0.0
O130 O 0.31096 0.67881 0.07621 0.0
O131 O 0.34944 0.79362 0.01501 0.0
Sc132 Sc 0.80704 0.6092 0.908 0.0
Sc133 Sc 0.71777 0.62862 0.86506 0.0
Sc134 Sc 0.78242 0.70245 0.88054 0.0
O135 O 0.7693 0.64691 0.88432 0.0
C136 C 0.82163 0.67997 0.97344 0.0
C137 C 0.73518 0.57332 0.94933 0.0
C138 C 0.69904 0.70037 0.92337 0.0
C139 C 0.76731 0.56566 0.82399 0.0
C140 C 0.85819 0.66143 0.84608 0.0
C141 C 0.73244 0.69492 0.79266 0.0
O142 O 0.82605 0.64541 0.96311 0.0
O143 O 0.71463 0.58436 0.91638 0.0
O144 O 0.72822 0.71889 0.91066 0.0
O145 O 0.79101 0.56752 0.85674 0.0
O146 O 0.83777 0.69078 0.85114 0.0
O147 O 0.71249 0.6684 0.80925 0.0
O148 O 0.84953 0.62957 0.86278 0.0
O149 O 0.74156 0.58989 0.81801 0.0
O150 O 0.76119 0.70807 0.81283 0.0
O151 O 0.76828 0.58568 0.95558 0.0
O152 O 0.80514 0.70324 0.94759 0.0
O153 O 0.69252 0.66643 0.91206 0.0
Sc154 Sc 0.60239 0.27916 0.13322 0.0
Sc155 Sc 0.60844 0.1917 0.08048 0.0
Sc156 Sc 0.69064 0.23816 0.1152 0.0
O157 O 0.6341 0.23629 0.10955 0.0
C158 C 0.6668 0.32142 0.08216 0.0
C159 C 0.55514 0.25241 0.04512 0.0
C160 C 0.6827 0.19972 0.01864 0.0
C161 C 0.55514 0.21205 0.16646 0.0
C162 C 0.66984 0.27912 0.20581 0.0
C163 C 0.66969 0.15289 0.14204 0.0
O164 O 0.63163 0.31717 0.0893 0.0
O165 O 0.57795 0.22641 0.03439 0.0
O166 O 0.6991 0.22214 0.04592 0.0
O167 O 0.57262 0.24202 0.17737 0.0
O168 O 0.68865 0.25422 0.18485 0.0
O169 O 0.63698 0.15423 0.12469 0.0
O170 O 0.63977 0.29332 0.18973 0.0
O171 O 0.56237 0.19354 0.12994 0.0
O172 O 0.6937 0.17969 0.1384 0.0
O173 O 0.55865 0.27153 0.08179 0.0
O174 O 0.69174 0.29721 0.0937 0.0
O175 O 0.6509 0.18462 0.02752 0.0
H176 H 0.25828 -0.00429 0.3152 0.0
H177 H 0.22838 0.05171 0.18936 0.0
H178 H 0.27041 0.93765 0.27278 0.0
H179 H 0.24105 0.99346 0.1469 0.0
H180 H 0.3254 0.89807 0.0964 0.0
H181 H 0.30289 0.95548 0.13341 0.0
H182 H 0.2323 0.88895 0.22297 0.0
H183 H 0.25452 0.8311 0.18524 0.0
C184 C 0.25454 -0.0043 0.27845 0.0
C185 C 0.24272 0.02837 0.25551 0.0
C186 C 0.26099 0.96233 0.25433 0.0
C187 C 0.25634 0.96112 0.20673 0.0
C188 C 0.24473 0.99376 0.18366 0.0
C189 C 0.23761 0.02701 0.2079 0.0
C190 C 0.3046 0.89573 0.12351 0.0
C191 C 0.29179 0.86023 0.13821 0.0
C192 C 0.29162 0.92857 0.14447 0.0
C193 C 0.26607 0.92652 0.18108 0.0
C194 C 0.25219 0.89112 0.19488 0.0
C195 C 0.26466 0.85816 0.1732 0.0
H196 H 0.08295 0.7265 0.76407 0.0
H197 H 0.05234 0.64035 0.66612 0.0
H198 H 0.02553 0.71359 0.80731 0.0
H199 H 0.99465 0.62765 0.70933 0.0
H200 H 0.89683 0.7252 0.82086 0.0
H201 H 0.9593 0.72869 0.78569 0.0
H202 H 0.96511 0.6071 0.78232 0.0
H203 H 0.90263 0.60342 0.81674 0.0
C204 C 0.06446 0.70406 0.7525 0.0
C205 C 0.0718 0.68482 0.71135 0.0
C206 C 0.03142 0.69699 0.77698 0.0
C207 C 0.00518 0.67047 0.76086 0.0
C208 C 0.01434 0.64844 0.72237 0.0
C209 C 0.04751 0.65551 0.69779 0.0
C210 C 0.91128 0.69924 0.81233 0.0
C211 C 0.89476 0.66411 0.82177 0.0
C212 C 0.94723 0.7012 0.7927 0.0
C213 C 0.96723 0.6681 0.78193 0.0
C214 C 0.95036 0.63302 0.79032 0.0
C215 C 0.91457 0.63103 0.81013 0.0
H216 H 0.76262 0.9428 0.24166 0.0
H217 H 0.66735 0.96478 0.33073 0.0
H218 H 0.75014 0.00101 0.20064 0.0
H219 H 0.65519 0.02317 0.2896 0.0
H220 H 0.62078 0.09863 0.17038 0.0
H221 H 0.63434 0.04141 0.21191 0.0
H222 H 0.75252 0.07132 0.21586 0.0
H223 H 0.73907 0.12925 0.17331 0.0
C224 C 0.73881 0.95981 0.25232 0.0
C225 C 0.71588 0.94899 0.2895 0.0
C226 C 0.73202 0.99339 0.22908 0.0
C227 C 0.70197 0.01669 0.24222 0.0
C228 C 0.67851 0.00558 0.27867 0.0
C229 C 0.68543 0.97211 0.30215 0.0
C230 C 0.64979 0.09322 0.17988 0.0
C231 C 0.67895 0.11854 0.16823 0.0
C232 C 0.65741 0.06046 0.20406 0.0
C233 C 0.69439 0.052 0.21717 0.0
C234 C 0.72373 0.07715 0.20578 0.0
C235 C 0.71604 0.11032 0.18169 0.0
H236 H 0.10686 0.39082 0.79068 0.0
H237 H 0.11653 0.26932 0.78599 0.0
H238 H 0.04306 0.38638 0.7602 0.0
H239 H 0.05285 0.26512 0.75507 0.0
H240 H 0.92733 0.26493 0.74953 0.0
H241 H 0.98807 0.27735 0.78513 0.0
H242 H 0.00901 0.36697 0.68857 0.0
H243 H 0.94781 0.35466 0.65284 0.0
C244 C 0.09552 0.36316 0.78291 0.0
C245 C 0.11678 0.33035 0.79109 0.0
C246 C 0.05899 0.36072 0.76533 0.0
C247 C 0.04283 0.32544 0.7559 0.0
C248 C 0.06437 0.2927 0.76293 0.0
C249 C 0.10099 0.29512 0.78021 0.0
C250 C 0.94449 0.28787 0.7365 0.0
C251 C 0.93304 0.30851 0.69801 0.0
C252 C 0.9794 0.29472 0.75663 0.0
C253 C 0.00364 0.32239 0.73879 0.0
C254 C 0.99091 0.3453 0.70285 0.0
C255 C 0.9558 0.33843 0.68259 0.0
H256 H 0.2734 0.6215 0.04912 0.0
H257 H 0.39458 0.60711 0.04741 0.0
H258 H 0.26585 0.55945 0.01432 0.0
H259 H 0.3868 0.54493 0.01273 0.0
H260 H 0.34738 0.45992 0.89563 0.0
H261 H 0.36352 0.51731 0.93783 0.0
H262 H 0.27668 0.49214 0.03716 0.0
H263 H 0.26051 0.43503 -0.00467 0.0
C264 C 0.29842 0.60519 0.0413 0.0
C265 C 0.33456 0.6193 0.0512 0.0
C266 C 0.29408 0.5695 0.02173 0.0
C267 C 0.32576 0.54723 0.01129 0.0
C268 C 0.36192 0.5615 0.02043 0.0
C269 C 0.36628 0.59707 0.04042 0.0
C270 C 0.33252 0.46603 0.92721 0.0
C271 C 0.30227 0.44322 0.94171 0.0
C272 C 0.34166 0.49898 0.95126 0.0
C273 C 0.32068 0.50958 -0.0099 0.0
C274 C 0.29266 0.48511 0.00666 0.0
C275 C 0.28362 0.45226 0.98283 0.0
H276 H 0.674 0.67267 0.00268 0.0
H277 H 0.65864 0.76482 0.90876 0.0
H278 H 0.6144 0.68705 0.03925 0.0
H279 H 0.59863 0.78049 0.94648 0.0
H280 H 0.4724 0.74887 0.97167 0.0
H281 H 0.53791 0.74978 0.94536 0.0
H282 H 0.57522 0.72618 0.08298 0.0
H283 H 0.50998 0.72342 0.10849 0.0
C284 C 0.65839 0.69712 -0.00876 0.0
C285 C 0.67062 0.71768 0.95309 0.0
C286 C 0.62417 0.70546 0.01219 0.0
C287 C 0.60137 0.73463 -0.00459 0.0
C288 C 0.61527 0.75739 0.95963 0.0
C289 C 0.64981 0.74893 0.93854 0.0
C290 C 0.4947 0.74357 -0.00394 0.0
C291 C 0.48612 0.73502 0.04176 0.0
C292 C 0.53224 0.74473 0.98123 0.0
C293 C 0.56189 0.73802 0.01206 0.0
C294 C 0.55312 0.73074 0.05812 0.0
C295 C 0.51569 0.72888 0.07268 0.0
H296 H 0.63489 0.35834 0.01132 0.0
H297 H 0.72415 0.36642 0.11075 0.0
H298 H 0.65033 0.42106 0.98328 0.0
H299 H 0.73802 0.43039 0.08558 0.0
H300 H 0.78047 0.5262 -0.00297 0.0
H301 H 0.76444 0.46584 0.0292 0.0
H302 H 0.64679 0.48489 -0.00258 0.0
H303 H 0.66365 0.54478 0.96175 0.0
C304 C 0.65789 0.37376 0.02709 0.0
C305 C 0.67877 0.35759 0.06261 0.0
C306 C 0.66638 0.40998 0.01163 0.0
C307 C 0.69524 0.43129 0.03233 0.0
C308 C 0.7161 0.41479 0.06804 0.0
C309 C 0.70827 0.37811 0.08257 0.0
C310 C 0.75102 0.51791 -0.00255 0.0
C311 C 0.72331 0.54028 0.97655 0.0
C312 C 0.74174 0.48308 0.01622 0.0
C313 C 0.7043 0.46996 0.01572 0.0
C314 C 0.67614 0.49345 -0.0027 0.0
C315 C 0.68563 0.52805 0.97738 0.0
H316 H 0.53957 0.21904 0.96303 0.0
H317 H 0.49168 0.29324 0.06538 0.0
H318 H 0.47988 0.21871 0.92227 0.0
H319 H 0.43209 0.29339 0.02384 0.0
H320 H 0.32033 0.26341 0.96066 0.0
H321 H 0.37861 0.25048 0.00306 0.0
H322 H 0.44319 0.26401 0.87849 0.0
H323 H 0.38536 0.27653 0.83673 0.0
C324 C 0.51648 0.23565 0.97661 0.0
C325 C 0.52053 0.25634 0.01741 0.0
C326 C 0.48222 0.23529 0.95329 0.0
C327 C 0.4512 0.25561 0.97018 0.0
C328 C 0.45531 0.2768 0.01055 0.0
C329 C 0.48965 0.27723 0.03389 0.0
C330 C 0.34692 0.26208 0.94232 0.0
C331 C 0.34865 0.27071 0.89562 0.0
C332 C 0.38023 0.25532 0.96655 0.0
C333 C 0.41546 0.2568 0.94414 0.0
C334 C 0.41655 0.26248 0.89668 0.0
C335 C 0.38348 0.26956 0.87274 0.0
H336 H 0.80287 0.49827 0.83771 0.0
H337 H 0.72777 0.55613 0.74513 0.0
H338 H 0.79459 0.44033 0.79364 0.0
H339 H 0.719 0.49814 0.70204 0.0
H340 H 0.76652 0.4023 0.60749 0.0
H341 H 0.75999 0.45952 0.65273 0.0
H342 H 0.74398 0.39246 0.77452 0.0
H343 H 0.75078 0.33481 0.72871 0.0
C344 C 0.78488 0.49873 0.80785 0.0
C345 C 0.76616 0.53181 0.79478 0.0
C346 C 0.77959 0.46543 0.78318 0.0
C347 C 0.75567 0.46476 0.74497 0.0
C348 C 0.7375 0.49794 0.73146 0.0
C349 C 0.7427 0.53113 0.75607 0.0
C350 C 0.7603 0.39988 0.64368 0.0
C351 C 0.75928 0.3645 0.66491 0.0
C352 C 0.75658 0.43254 0.66956 0.0
C353 C 0.75213 0.43027 0.71715 0.0
C354 C 0.74798 0.39478 0.73789 0.0
C355 C 0.7513 0.36193 0.71176 0.0
H356 H 0.50567 0.15394 0.15155 0.0
H357 H 0.52927 0.24645 0.24409 0.0
H358 H 0.44595 0.14281 0.19084 0.0
H359 H 0.4697 0.23499 0.28323 0.0
H360 H 0.33905 0.2346 0.29402 0.0
H361 H 0.40166 0.24304 0.26017 0.0
H362 H 0.4204 0.12291 0.26663 0.0
H363 H 0.35817 0.1142 0.29975 0.0
C364 C 0.49849 0.17147 0.18066 0.0
C365 C 0.52208 0.20131 0.19435 0.0
C366 C 0.4643 0.16509 0.20313 0.0
C367 C 0.45313 0.18843 0.23958 0.0
C368 C 0.47742 0.21709 0.25464 0.0
C369 C 0.51165 0.22339 0.23238 0.0
C370 C 0.35653 0.21003 0.28821 0.0
C371 C 0.34358 0.17379 0.29958 0.0
C372 C 0.3924 0.21488 0.26918 0.0
C373 C 0.41573 0.18356 0.26095 0.0
C374 C 0.40282 0.14743 0.27232 0.0
C375 C 0.36719 0.14258 0.2915 0.0
H376 H 0.24711 0.66707 0.71384 0.0
H377 H 0.2387 0.60509 0.58715 0.0
H378 H 0.25875 0.60802 0.75486 0.0
H379 H 0.2501 0.5464 0.62757 0.0
H380 H 0.28516 0.44704 0.71278 0.0
H381 H 0.29182 0.50756 0.67484 0.0
H382 H 0.21127 0.55641 0.76889 0.0
H383 H 0.20506 0.49597 0.80778 0.0
C384 C 0.2495 0.641 0.69464 0.0
C385 C 0.24211 0.64019 0.64763 0.0
C386 C 0.25554 0.60729 0.71804 0.0
C387 C 0.25457 0.57271 0.69441 0.0
C388 C 0.25108 0.57261 0.64663 0.0
C389 C 0.24469 0.60613 0.62346 0.0
C390 C 0.26869 0.47059 0.72536 0.0
C391 C 0.2444 0.46663 0.76324 0.0
C392 C 0.27272 0.50527 0.70371 0.0
C393 C 0.25255 0.53671 0.71941 0.0
C394 C 0.22786 0.53276 0.75681 0.0
C395 C 0.22376 0.498 0.77851 0.0
H396 H 0.59197 0.83066 0.38289 0.0
H397 H 0.64712 0.76498 0.27762 0.0
H398 H 0.53277 0.82744 0.34058 0.0
H399 H 0.58771 0.76214 0.23495 0.0
H400 H 0.49175 0.81191 0.14871 0.0
H401 H 0.54837 0.81618 0.19578 0.0
H402 H 0.48527 0.77592 0.31246 0.0
H403 H 0.42854 0.77118 0.26532 0.0
C404 C 0.59121 0.81508 0.35098 0.0
C405 C 0.62399 0.79808 0.33335 0.0
C406 C 0.55743 0.8133 0.32688 0.0
C407 C 0.55604 0.79503 0.28441 0.0
C408 C 0.58841 0.77682 0.26747 0.0
C409 C 0.62214 0.77803 0.29202 0.0
C410 C 0.48967 0.80499 0.1847 0.0
C411 C 0.45578 0.7913 0.20348 0.0
C412 C 0.52217 0.80686 0.21135 0.0
C413 C 0.5211 0.79571 0.25732 0.0
C414 C 0.4867 0.78446 0.27695 0.0
C415 C 0.45432 0.78196 0.25012 0.0
H416 H 0.76663 0.14825 0.50406 0.0
H417 H 0.82694 0.10103 0.61858 0.0
H418 H 0.76473 0.08565 0.46802 0.0
H419 H 0.82486 0.03902 0.58284 0.0
H420 H 0.76697 0.93052 0.5232 0.0
H421 H 0.77265 0.99178 0.56083 0.0
H422 H 0.81703 0.03984 0.43619 0.0
H423 H 0.81167 0.97853 0.39845 0.0
C424 C 0.77899 0.12447 0.52166 0.0
C425 C 0.79699 0.12934 0.56389 0.0
C426 C 0.77829 0.08892 0.50094 0.0
C427 C 0.79499 0.05786 0.52267 0.0
C428 C 0.81185 0.06259 0.56552 0.0
C429 C 0.81304 0.09804 0.58582 0.0
C430 C 0.7787 0.95398 0.50417 0.0
C431 C 0.78886 0.94986 0.45797 0.0
C432 C 0.78181 0.98896 0.52561 0.0
C433 C 0.79464 0.0204 0.501 0.0
C434 C 0.80649 0.01598 0.4555 0.0
C435 C 0.80394 0.98085 0.43422 0.0
H436 H 0.09574 0.25284 0.35521 0.0
H437 H 0.10099 0.14575 0.42455 0.0
H438 H 0.03733 0.26782 0.39664 0.0
H439 H 0.04471 0.16118 0.46776 0.0
H440 H 0.92608 0.17827 0.50994 0.0
H441 H 0.97984 0.16599 0.46 0.0
H442 H 0.01213 0.28359 0.46849 0.0
H443 H 0.95702 0.29602 0.51585 0.0
C444 C 0.08458 0.23289 0.37982 0.0
C445 C 0.10228 0.19812 0.38658 0.0
C446 C 0.0513 0.24135 0.40358 0.0
C447 C 0.0359 0.2154 0.43506 0.0
C448 C 0.05482 0.18127 0.44271 0.0
C449 C 0.08733 0.17257 0.41835 0.0
C450 C 0.94455 0.20142 0.50063 0.0
C451 C 0.93765 0.23795 0.51679 0.0
C452 C 0.9755 0.19447 0.47233 0.0
C453 C 0.00075 0.22373 0.46078 0.0
C454 C 0.99313 0.26048 0.47614 0.0
C455 C 0.96167 0.26757 0.50352 0.0
H456 H 0.13522 0.89473 0.59556 0.0
H457 H 0.21068 0.85045 0.49206 0.0
H458 H 0.12805 0.95239 0.55175 0.0
H459 H 0.20355 0.90872 0.4483 0.0
H460 H 0.15537 0.00286 0.36254 0.0
H461 H 0.15057 0.94415 0.40584 0.0
H462 H 0.17272 0.00535 0.53084 0.0
H463 H 0.1776 0.06389 0.48773 0.0
C464 C 0.15036 0.89733 0.56347 0.0
C465 C 0.17364 0.8681 0.54723 0.0
C466 C 0.14617 0.93033 0.53848 0.0
C467 C 0.16493 0.93467 0.49662 0.0
C468 C 0.18832 0.90563 0.48026 0.0
C469 C 0.19281 0.87261 0.50552 0.0
C470 C 0.15795 0.00389 0.39943 0.0
C471 C 0.16702 0.03772 0.42194 0.0
C472 C 0.15572 0.97031 0.42401 0.0
C473 C 0.1619 0.97036 0.47138 0.0
C474 C 0.16786 0.00465 0.49429 0.0
C475 C 0.1706 0.03808 0.4697 0.0
H476 H 0.0346 0.81203 0.55025 0.0
H477 H 0.03454 0.69392 0.51268 0.0
H478 H 0.97551 0.8205 0.50946 0.0
H479 H 0.97527 0.70274 0.47162 0.0
H480 H 0.84574 0.73629 0.45297 0.0
H481 H 0.90547 0.72132 0.49115 0.0
H482 H 0.95855 0.81657 0.42524 0.0
H483 H 0.89988 0.83154 0.38746 0.0
C484 C 0.02205 0.78792 0.53324 0.0
C485 C 0.03934 0.75239 0.53442 0.0
C486 C 0.98831 0.79279 0.50985 0.0
C487 C 0.97112 0.76223 0.48744 0.0
C488 C 0.98802 0.7266 0.48891 0.0
C489 C 0.02204 0.72175 0.51202 0.0
C490 C 0.87032 0.75368 0.44634 0.0
C491 C 0.86792 0.78547 0.41795 0.0
C492 C 0.90436 0.74511 0.46805 0.0
C493 C 0.93616 0.76828 0.46156 0.0
C494 C 0.93414 0.79882 0.4315 0.0
C495 C 0.90046 0.8073 0.4099 0.0
H496 H 0.17338 0.24157 0.95734 0.0
H497 H 0.18164 0.35247 0.01824 0.0
H498 H 0.16352 0.21409 0.03217 0.0
H499 H 0.17067 0.3248 0.09369 0.0
H500 H 0.22493 0.25346 0.20842 0.0
H501 H 0.2146 0.28616 0.13728 0.0
H502 H 0.12653 0.20683 0.10207 0.0
H503 H 0.13727 0.17321 0.1738 0.0
C504 C 0.17228 0.26021 -0.01328 0.0
C505 C 0.17928 0.29907 0.98216 0.0
C506 C 0.16615 0.24445 0.02959 0.0
C507 C 0.16689 0.26721 0.06883 0.0
C508 C 0.17062 0.30653 0.06395 0.0
C509 C 0.17671 0.32239 0.02084 0.0
C510 C 0.20317 0.24289 0.1858 0.0
C511 C 0.18216 0.21039 0.19668 0.0
C512 C 0.19689 0.26208 0.1452 0.0
C513 C 0.16946 0.24935 0.11432 0.0
C514 C 0.14792 0.21722 0.12531 0.0
C515 C 0.1542 0.1979 0.1662 0.0
H516 H 0.25965 0.74291 0.96101 0.0
H517 H 0.34764 0.82535 0.93596 0.0
H518 H 0.2316 0.75744 0.88811 0.0
H519 H 0.31889 0.83987 0.86189 0.0
H520 H 0.2783 0.79997 0.7126 0.0
H521 H 0.30807 0.80348 0.78735 0.0
H522 H 0.1984 0.81191 0.85136 0.0
H523 H 0.16832 0.80779 0.77679 0.0
C524 C 0.27309 0.76422 0.94002 0.0
C525 C 0.30596 0.78302 0.95447 0.0
C526 C 0.25665 0.77283 0.89838 0.0
C527 C 0.27266 0.80031 0.86992 0.0
C528 C 0.30591 0.81876 0.88358 0.0
C529 C 0.32237 0.81033 0.92576 0.0
C530 C 0.26047 0.80333 0.74249 0.0
C531 C 0.22086 0.80255 0.73887 0.0
C532 C 0.27763 0.80567 0.78524 0.0
C533 C 0.25544 0.80727 0.82494 0.0
C534 C 0.21604 0.81002 0.8211 0.0
C535 C 0.19886 0.80769 0.77842 0.0
H536 H 0.83986 0.81461 0.22144 0.0
H537 H 0.7536 0.72916 0.23807 0.0
H538 H 0.86103 0.78398 0.15133 0.0
H539 H 0.77417 0.69921 0.16746 0.0
H540 H 0.82634 0.63886 0.05225 0.0
H541 H 0.82499 0.66438 0.12998 0.0
H542 H 0.83537 0.7772 0.07572 0.0
H543 H 0.83772 0.75178 -0.00123 0.0
C544 C 0.82525 0.78945 0.21003 0.0
C545 C 0.79476 0.77455 0.23511 0.0
C546 C 0.83753 0.77181 0.16998 0.0
C547 C 0.81945 0.73906 0.15403 0.0
C548 C 0.78925 0.72394 0.17937 0.0
C549 C 0.7771 0.74143 0.21952 0.0
C550 C 0.82972 0.66896 0.05716 0.0
C551 C 0.83145 0.69343 0.01956 0.0
C552 C 0.82851 0.6836 0.10156 0.0
C553 C 0.82922 0.72283 0.10884 0.0
C554 C 0.83478 0.74687 0.07137 0.0
C555 C 0.83592 0.7323 0.02718 0.0
H556 H 0.72043 0.20556 0.73322 0.0
H557 H 0.83431 0.19148 0.78322 0.0
H558 H 0.69583 0.19382 0.80909 0.0
H559 H 0.80929 0.17853 0.85949 0.0
H560 H 0.75167 0.22491 -0.00932 0.0
H561 H 0.7802 0.21873 0.9159 0.0
H562 H 0.68618 0.15018 0.87126 0.0
H563 H 0.65668 0.15729 0.94642 0.0
C564 C 0.7403 0.19938 0.76027 0.0
C565 C 0.77947 0.20015 0.75226 0.0
C566 C 0.72605 0.19217 0.80377 0.0
C567 C 0.75058 0.18539 0.84036 0.0
C568 C 0.7897 0.18419 0.832 0.0
C569 C 0.80404 0.19154 0.78834 0.0
C570 C 0.73705 0.20817 0.96519 0.0
C571 C 0.70148 0.19212 0.97436 0.0
C572 C 0.75376 0.20427 0.92236 0.0
C573 C 0.73543 0.18407 0.88759 0.0
C574 C 0.70075 0.16634 0.8973 0.0
C575 C 0.68388 0.17034 0.94032 0.0
H576 H 0.71947 0.72321 0.50323 0.0
H577 H 0.69538 0.83563 0.55276 0.0
H578 H 0.71714 0.69954 0.58123 0.0
H579 H 0.69282 0.81166 0.6309 0.0
H580 H 0.75556 0.76207 0.75731 0.0
H581 H 0.74384 0.78686 0.68133 0.0
H582 H 0.67517 0.68949 0.64979 0.0
H583 H 0.68704 0.66431 0.72627 0.0
C584 C 0.7132 0.74282 0.53067 0.0
C585 C 0.70804 0.78142 0.52178 0.0
C586 C 0.71155 0.72914 0.57533 0.0
C587 C 0.70497 0.75379 0.6121 0.0
C588 C 0.69829 0.79211 0.60315 0.0
C589 C 0.69962 0.80577 0.5584 0.0
C590 C 0.7377 0.746 0.7344 0.0
C591 C 0.72249 0.71103 0.7477 0.0
C592 C 0.7307 0.76043 0.69098 0.0
C593 C 0.70858 0.74012 0.65969 0.0
C594 C 0.6925 0.70561 0.67324 0.0
C595 C 0.69918 0.6913 0.71701 0.0
H596 H 0.70885 0.27055 0.48898 0.0
H597 H 0.80977 0.32803 0.44261 0.0
H598 H 0.68075 0.27855 0.41418 0.0
H599 H 0.78102 0.33668 0.36765 0.0
H600 H 0.74266 0.27804 0.23269 0.0
H601 H 0.76761 0.29033 0.30818 0.0
H602 H 0.65636 0.32198 0.3554 0.0
H603 H 0.63096 0.30898 0.27894 0.0
C604 C 0.72492 0.28534 0.46303 0.0
C605 C 0.76193 0.298 0.47158 0.0
C606 C 0.70852 0.29037 0.42027 0.0
C607 C 0.7287 0.30815 0.38503 0.0
C608 C 0.76496 0.32251 0.39413 0.0
C609 C 0.78144 0.31748 0.437 0.0
C610 C 0.72349 0.28802 0.25897 0.0
C611 C 0.68471 0.29188 0.25023 0.0
C612 C 0.73793 0.29556 0.30215 0.0
C613 C 0.71395 0.30701 0.33777 0.0
C614 C 0.67542 0.31287 0.32855 0.0
C615 C 0.66091 0.30559 0.28491 0.0
H616 H 0.25592 0.22692 0.72439 0.0
H617 H 0.30342 0.33025 0.67082 0.0
H618 H 0.25777 0.199 0.64873 0.0
H619 H 0.30579 0.30173 0.59449 0.0
H620 H 0.24245 0.25672 0.46567 0.0
H621 H 0.25539 0.28378 0.54021 0.0
H622 H 0.29864 0.17669 0.58621 0.0
H623 H 0.28517 0.1491 0.51132 0.0
C624 C 0.26719 0.24359 0.69649 0.0
C625 C 0.27901 0.28106 0.70348 0.0
C626 C 0.26863 0.22735 0.65317 0.0
C627 C 0.28181 0.24819 0.61568 0.0
C628 C 0.29516 0.28515 0.62282 0.0
C629 C 0.29395 0.30141 0.66645 0.0
C630 C 0.25488 0.23883 0.49148 0.0
C631 C 0.26233 0.20054 0.48264 0.0
C632 C 0.26273 0.25456 0.5341 0.0
C633 C 0.2781 0.2324 0.56899 0.0
C634 C 0.28654 0.19437 0.55995 0.0
C635 C 0.27882 0.17859 0.51711 0.0
H636 H 0.238 0.71387 0.21652 0.0
H637 H 0.34368 0.67061 0.26795 0.0
H638 H 0.20996 0.7074 0.29197 0.0
H639 H 0.31512 0.66352 0.34351 0.0
H640 H 0.16447 0.67722 0.43223 0.0
H641 H 0.1903 0.66522 0.35574 0.0
H642 H 0.29672 0.71398 0.39724 0.0
H643 H 0.27154 0.72552 0.47289 0.0
C644 C 0.25509 0.70233 0.24372 0.0
C645 C 0.29335 0.6935 0.23647 0.0
C646 C 0.23882 0.69826 0.28686 0.0
C647 C 0.26048 0.68534 0.32363 0.0
C648 C 0.29797 0.67405 0.31577 0.0
C649 C 0.31427 0.67804 0.27252 0.0
C650 C 0.19344 0.68508 0.425 0.0
C651 C 0.21577 0.7027 0.45849 0.0
C652 C 0.20819 0.67819 0.38134 0.0
C653 C 0.24558 0.68843 0.37074 0.0
C654 C 0.26805 0.70512 0.40461 0.0
C655 C 0.25335 0.71221 0.44787 0.0
loop_
_geom_bond_atom_site_label_1
_geom_bond_atom_site_label_2
_geom_bond_distance
_geom_bond_site_symmetry_2
_ccdc_geom_bond_type
Sc0 O3 2.025 . S
Sc0 O10 2.105 . S
Sc0 O13 2.105 . S
Sc0 O16 2.105 . S
Sc0 O19 2.105 . S
Sc1 O3 2.025 . S
Sc1 O11 2.105 . S
Sc1 O15 2.105 . S
Sc1 O17 2.105 . S
Sc1 O21 2.105 . S
Sc2 O3 2.025 . S
Sc2 O12 2.105 . S
Sc2 O14 2.105 . S
Sc2 O18 2.105 . S
Sc2 O20 2.105 . S
O3 Sc0 2.025 . S
O3 Sc1 2.025 . S
O3 Sc2 2.025 . S
C4 O10 1.268 . S
C4 O20 1.268 . S
C5 O11 1.268 . S
C5 O19 1.268 . S
C6 O12 1.268 . S
C6 O21 1.268 . S
C7 O13 1.268 . S
C7 O17 1.268 . S
C8 O14 1.268 . S
C8 O16 1.268 . S
C9 O15 1.268 . S
C9 O18 1.268 . S
O10 Sc0 2.105 . S
O10 C4 1.268 . S
O11 Sc1 2.105 . S
O11 C5 1.268 . S
O12 Sc2 2.105 . S
O12 C6 1.268 . S
O13 Sc0 2.105 . S
O13 C7 1.268 . S
O14 Sc2 2.105 . S
O14 C8 1.268 . S
O15 Sc1 2.105 . S
O15 C9 1.268 . S
O16 Sc0 2.105 . S
O16 C8 1.268 . S
O17 Sc1 2.105 . S
O17 C7 1.268 . S
O18 Sc2 2.105 . S
O18 C9 1.268 . S
O19 Sc0 2.105 . S
O19 C5 1.268 . S
O20 Sc2 2.105 . S
O20 C4 1.268 . S
O21 Sc1 2.105 . S
O21 C6 1.268 . S
Sc22 O25 2.025 . S
Sc22 O32 2.105 . S
Sc22 O35 2.105 . S
Sc22 O38 2.105 . S
Sc22 O41 2.105 . S
Sc23 O25 2.025 . S
Sc23 O33 2.105 . S
Sc23 O37 2.105 . S
Sc23 O39 2.105 . S
Sc23 O43 2.105 . S
Sc24 O25 2.025 . S
Sc24 O34 2.105 . S
Sc24 O36 2.105 . S
Sc24 O40 2.105 . S
Sc24 O42 2.105 . S
O25 Sc22 2.025 . S
O25 Sc23 2.025 . S
O25 Sc24 2.025 . S
C26 O32 1.268 . S
C26 O42 1.268 . S
C27 O33 1.268 . S
C27 O41 1.268 . S
C28 O34 1.268 . S
C28 O43 1.268 . S
C29 O35 1.268 . S
C29 O39 1.268 . S
C30 O36 1.268 . S
C30 O38 1.268 . S
C31 O37 1.268 . S
C31 O40 1.268 . S
O32 Sc22 2.105 . S
O32 C26 1.268 . S
O33 Sc23 2.105 . S
O33 C27 1.268 . S
O34 Sc24 2.105 . S
O34 C28 1.268 . S
O35 Sc22 2.105 . S
O35 C29 1.268 . S
O36 Sc24 2.105 . S
O36 C30 1.268 . S
O37 Sc23 2.105 . S
O37 C31 1.268 . S
O38 Sc22 2.105 . S
O38 C30 1.268 . S
O39 Sc23 2.105 . S
O39 C29 1.268 . S
O40 Sc24 2.105 . S
O40 C31 1.268 . S
O41 Sc22 2.105 . S
O41 C27 1.268 . S
O42 Sc24 2.105 . S
O42 C26 1.268 . S
O43 Sc23 2.105 . S
O43 C28 1.268 . S
Sc44 O47 2.025 . S
Sc44 O54 2.105 . S
Sc44 O57 2.105 . S
Sc44 O60 2.105 . S
Sc44 O63 2.105 . S
Sc45 O47 2.025 . S
Sc45 O55 2.105 . S
Sc45 O59 2.105 . S
Sc45 O61 2.105 . S
Sc45 O65 2.105 . S
Sc46 O47 2.025 . S
Sc46 O56 2.105 . S
Sc46 O58 2.105 . S
Sc46 O62 2.105 . S
Sc46 O64 2.105 . S
O47 Sc44 2.025 . S
O47 Sc45 2.025 . S
O47 Sc46 2.025 . S
C48 O54 1.268 . S
C48 O64 1.268 . S
C49 O55 1.268 . S
C49 O63 1.268 . S
C50 O56 1.268 . S
C50 O65 1.268 . S
C51 O57 1.268 . S
C51 O61 1.268 . S
C52 O58 1.268 . S
C52 O60 1.268 . S
C53 O59 1.268 . S
C53 O62 1.268 . S
O54 Sc44 2.105 . S
O54 C48 1.268 . S
O55 Sc45 2.105 . S
O55 C49 1.268 . S
O56 Sc46 2.105 . S
O56 C50 1.268 . S
O57 Sc44 2.105 . S
O57 C51 1.268 . S
O58 Sc46 2.105 . S
O58 C52 1.268 . S
O59 Sc45 2.105 . S
O59 C53 1.268 . S
O60 Sc44 2.105 . S
O60 C52 1.268 . S
O61 Sc45 2.105 . S
O61 C51 1.268 . S
O62 Sc46 2.105 . S
O62 C53 1.268 . S
O63 Sc44 2.105 . S
O63 C49 1.268 . S
O64 Sc46 2.105 . S
O64 C48 1.268 . S
O65 Sc45 2.105 . S
O65 C50 1.268 . S
Sc66 O69 2.025 . S
Sc66 O76 2.105 . S
Sc66 O79 2.105 . S
Sc66 O82 2.105 . S
Sc66 O85 2.105 . S
Sc67 O69 2.025 . S
Sc67 O77 2.105 . S
Sc67 O81 2.105 . S
Sc67 O83 2.105 . S
Sc67 O87 2.105 . S
Sc68 O69 2.025 . S
Sc68 O78 2.105 . S
Sc68 O80 2.105 . S
Sc68 O84 2.105 . S
Sc68 O86 2.105 . S
O69 Sc66 2.025 . S
O69 Sc67 2.025 . S
O69 Sc68 2.025 . S
C70 O76 1.268 . S
C70 O86 1.268 . S
C71 O77 1.268 . S
C71 O85 1.268 . S
C72 O78 1.268 . S
C72 O87 1.268 . S
C73 O79 1.268 . S
C73 O83 1.268 . S
C74 O80 1.268 . S
C74 O82 1.268 . S
C75 O81 1.268 . S
C75 O84 1.268 . S
O76 Sc66 2.105 . S
O76 C70 1.268 . S
O77 Sc67 2.105 . S
O77 C71 1.268 . S
O78 Sc68 2.105 . S
O78 C72 1.268 . S
O79 Sc66 2.105 . S
O79 C73 1.268 . S
O80 Sc68 2.105 . S
O80 C74 1.268 . S
O81 Sc67 2.105 . S
O81 C75 1.268 . S
O82 Sc66 2.105 . S
O82 C74 1.268 . S
O83 Sc67 2.105 . S
O83 C73 1.268 . S
O84 Sc68 2.105 . S
O84 C75 1.268 . S
O85 Sc66 2.105 . S
O85 C71 1.268 . S
O86 Sc68 2.105 . S
O86 C70 1.268 . S
O87 Sc67 2.105 . S
O87 C72 1.268 . S
Sc88 O91 2.025 . S
Sc88 O98 2.105 . S
Sc88 O101 2.105 . S
Sc88 O104 2.105 . S
Sc88 O107 2.105 . S
Sc89 O91 2.025 . S
Sc89 O99 2.105 . S
Sc89 O103 2.105 . S
Sc89 O105 2.105 . S
Sc89 O109 2.105 . S
Sc90 O91 2.025 . S
Sc90 O100 2.105 . S
Sc90 O102 2.105 . S
Sc90 O106 2.105 . S
Sc90 O108 2.105 . S
O91 Sc88 2.025 . S
O91 Sc89 2.025 . S
O91 Sc90 2.025 . S
C92 O98 1.268 . S
C92 O108 1.268 . S
C93 O99 1.268 . S
C93 O107 1.268 . S
C94 O100 1.268 . S
C94 O109 1.268 . S
C95 O101 1.268 . S
C95 O105 1.268 . S
C96 O102 1.268 . S
C96 O104 1.268 . S
C97 O103 1.268 . S
C97 O106 1.268 . S
O98 Sc88 2.105 . S
O98 C92 1.268 . S
O99 Sc89 2.105 . S
O99 C93 1.268 . S
O100 Sc90 2.105 . S
O100 C94 1.268 . S
O101 Sc88 2.105 . S
O101 C95 1.268 . S
O102 Sc90 2.105 . S
O102 C96 1.268 . S
O103 Sc89 2.105 . S
O103 C97 1.268 . S
O104 Sc88 2.105 . S
O104 C96 1.268 . S
O105 Sc89 2.105 . S
O105 C95 1.268 . S
O106 Sc90 2.105 . S
O106 C97 1.268 . S
O107 Sc88 2.105 . S
O107 C93 1.268 . S
O108 Sc90 2.105 . S
O108 C92 1.268 . S
O109 Sc89 2.105 . S
O109 C94 1.268 . S
Sc110 O113 2.025 . S
Sc110 O120 2.105 . S
Sc110 O123 2.105 . S
Sc110 O126 2.105 . S
Sc110 O129 2.105 . S
Sc111 O113 2.025 . S
Sc111 O121 2.105 . S
Sc111 O125 2.105 . S
Sc111 O127 2.105 . S
Sc111 O131 2.105 . S
Sc112 O113 2.025 . S
Sc112 O122 2.105 . S
Sc112 O124 2.105 . S
Sc112 O128 2.105 . S
Sc112 O130 2.105 . S
O113 Sc110 2.025 . S
O113 Sc111 2.025 . S
O113 Sc112 2.025 . S
C114 O120 1.268 . S
C114 O130 1.268 . S
C115 O121 1.268 . S
C115 O129 1.268 . S
C116 O122 1.268 . S
C116 O131 1.268 . S
C117 O123 1.268 . S
C117 O127 1.268 . S
C118 O124 1.268 . S
C118 O126 1.268 . S
C119 O125 1.268 . S
C119 O128 1.268 . S
O120 Sc110 2.105 . S
O120 C114 1.268 . S
O121 Sc111 2.105 . S
O121 C115 1.268 . S
O122 Sc112 2.105 . S
O122 C116 1.268 . S
O123 Sc110 2.105 . S
O123 C117 1.268 . S
O124 Sc112 2.105 . S
O124 C118 1.268 . S
O125 Sc111 2.105 . S
O125 C119 1.268 . S
O126 Sc110 2.105 . S
O126 C118 1.268 . S
O127 Sc111 2.105 . S
O127 C117 1.268 . S
O128 Sc112 2.105 . S
O128 C119 1.268 . S
O129 Sc110 2.105 . S
O129 C115 1.268 . S
O130 Sc112 2.105 . S
O130 C114 1.268 . S
O131 Sc111 2.105 . S
O131 C116 1.268 . S
Sc132 O135 2.025 . S
Sc132 O142 2.105 . S
Sc132 O145 2.105 . S
Sc132 O148 2.105 . S
Sc132 O151 2.105 . S
Sc133 O135 2.025 . S
Sc133 O143 2.105 . S
Sc133 O147 2.105 . S
Sc133 O149 2.105 . S
Sc133 O153 2.105 . S
Sc134 O135 2.025 . S
Sc134 O144 2.105 . S
Sc134 O146 2.105 . S
Sc134 O150 2.105 . S
Sc134 O152 2.105 . S
O135 Sc132 2.025 . S
O135 Sc133 2.025 . S
O135 Sc134 2.025 . S
C136 O142 1.268 . S
C136 O152 1.268 . S
C137 O143 1.268 . S
C137 O151 1.268 . S
C138 O144 1.268 . S
C138 O153 1.268 . S
C139 O145 1.268 . S
C139 O149 1.268 . S
C140 O146 1.268 . S
C140 O148 1.268 . S
C141 O147 1.268 . S
C141 O150 1.268 . S
O142 Sc132 2.105 . S
O142 C136 1.268 . S
O143 Sc133 2.105 . S
O143 C137 1.268 . S
O144 Sc134 2.105 . S
O144 C138 1.268 . S
O145 Sc132 2.105 . S
O145 C139 1.268 . S
O146 Sc134 2.105 . S
O146 C140 1.268 . S
O147 Sc133 2.105 . S
O147 C141 1.268 . S
O148 Sc132 2.105 . S
O148 C140 1.268 . S
O149 Sc133 2.105 . S
O149 C139 1.268 . S
O150 Sc134 2.105 . S
O150 C141 1.268 . S
O151 Sc132 2.105 . S
O151 C137 1.268 . S
O152 Sc134 2.105 . S
O152 C136 1.268 . S
O153 Sc133 2.105 . S
O153 C138 1.268 . S
Sc154 O157 2.025 . S
Sc154 O164 2.105 . S
Sc154 O167 2.105 . S
Sc154 O170 2.105 . S
Sc154 O173 2.105 . S
Sc155 O157 2.025 . S
Sc155 O165 2.105 . S
Sc155 O169 2.105 . S
Sc155 O171 2.105 . S
Sc155 O175 2.105 . S
Sc156 O157 2.025 . S
Sc156 O166 2.105 . S
Sc156 O168 2.105 . S
Sc156 O172 2.105 . S
Sc156 O174 2.105 . S
O157 Sc154 2.025 . S
O157 Sc155 2.025 . S
O157 Sc156 2.025 . S
C158 O164 1.268 . S
C158 O174 1.268 . S
C159 O165 1.268 . S
C159 O173 1.268 . S
C160 O166 1.268 . S
C160 O175 1.268 . S
C161 O167 1.268 . S
C161 O171 1.268 . S
C162 O168 1.268 . S
C162 O170 1.268 . S
C163 O169 1.268 . S
C163 O172 1.268 . S
O164 Sc154 2.105 . S
O164 C158 1.268 . S
O165 Sc155 2.105 . S
O165 C159 1.268 . S
O166 Sc156 2.105 . S
O166 C160 1.268 . S
O167 Sc154 2.105 . S
O167 C161 1.268 . S
O168 Sc156 2.105 . S
O168 C162 1.268 . S
O169 Sc155 2.105 . S
O169 C163 1.268 . S
O170 Sc154 2.105 . S
O170 C162 1.268 . S
O171 Sc155 2.105 . S
O171 C161 1.268 . S
O172 Sc156 2.105 . S
O172 C163 1.268 . S
O173 Sc154 2.105 . S
O173 C159 1.268 . S
O174 Sc156 2.105 . S
O174 C158 1.268 . S
O175 Sc155 2.105 . S
O175 C160 1.268 . S
H176 C184 0.950 . S
H177 C189 0.950 . S
H178 C186 0.950 . S
H179 C188 0.950 . S
H180 C190 0.950 . S
H181 C192 0.950 . S
H182 C194 0.950 . S
H183 C195 0.950 . S
C184 H176 0.950 . S
C184 C185 1.386 . S
C184 C186 1.391 1_545 S
C185 C184 1.386 . S
C185 C189 1.393 . S
C186 H178 0.950 . S
C186 C184 1.391 1_565 S
C186 C187 1.400 . S
C187 C186 1.400 . S
C187 C188 1.398 1_565 S
C187 C193 1.491 . S
C188 H179 0.950 . S
C188 C187 1.398 1_545 S
C188 C189 1.391 . S
C189 H177 0.950 . S
C189 C185 1.393 . S
C189 C188 1.391 . S
C190 H180 0.950 . S
C190 C191 1.386 . S
C190 C192 1.391 . S
C191 C190 1.386 . S
C191 C195 1.393 . S
C192 H181 0.950 . S
C192 C190 1.391 . S
C192 C193 1.400 . S
C193 C187 1.491 . S
C193 C192 1.400 . S
C193 C194 1.398 . S
C194 H182 0.950 . S
C194 C193 1.398 . S
C194 C195 1.391 . S
C195 H183 0.950 . S
C195 C191 1.393 . S
C195 C194 1.391 . S
H196 C204 0.950 . S
H197 C209 0.950 . S
H198 C206 0.950 . S
H199 C208 0.950 . S
H200 C210 0.950 . S
H201 C212 0.950 . S
H202 C214 0.950 . S
H203 C215 0.950 . S
C204 H196 0.950 . S
C204 C205 1.386 . S
C204 C206 1.391 1_455 S
C205 C204 1.386 . S
C205 C209 1.393 . S
C206 H198 0.950 . S
C206 C204 1.391 1_655 S
C206 C207 1.400 . S
C207 C206 1.400 . S
C207 C208 1.398 . S
C207 C213 1.491 . S
C208 H199 0.950 . S
C208 C207 1.398 . S
C208 C209 1.391 1_655 S
C209 H197 0.950 . S
C209 C205 1.393 . S
C209 C208 1.391 1_455 S
C210 H200 0.950 . S
C210 C211 1.386 . S
C210 C212 1.391 . S
C211 C210 1.386 . S
C211 C215 1.393 . S
C212 H201 0.950 . S
C212 C210 1.391 . S
C212 C213 1.400 . S
C213 C207 1.491 . S
C213 C212 1.400 . S
C213 C214 1.398 . S
C214 H202 0.950 . S
C214 C213 1.398 . S
C214 C215 1.391 . S
C215 H203 0.950 . S
C215 C211 1.393 . S
C215 C214 1.391 . S
H216 C224 0.950 . S
H217 C229 0.950 . S
H218 C226 0.950 . S
H219 C228 0.950 . S
H220 C230 0.950 . S
H221 C232 0.950 . S
H222 C234 0.950 . S
H223 C235 0.950 . S
C224 H216 0.950 . S
C224 C225 1.386 . S
C224 C226 1.391 1_565 S
C225 C224 1.386 . S
C225 C229 1.393 . S
C226 H218 0.950 . S
C226 C224 1.391 1_545 S
C226 C227 1.400 . S
C227 C226 1.400 . S
C227 C228 1.398 . S
C227 C233 1.491 . S
C228 H219 0.950 . S
C228 C227 1.398 . S
C228 C229 1.391 1_545 S
C229 H217 0.950 . S
C229 C225 1.393 . S
C229 C228 1.391 1_565 S
C230 H220 0.950 . S
C230 C231 1.386 . S
C230 C232 1.391 . S
C231 C230 1.386 . S
C231 C235 1.393 . S
C232 H221 0.950 . S
C232 C230 1.391 . S
C232 C233 1.400 . S
C233 C227 1.491 . S
C233 C232 1.400 . S
C233 C234 1.398 . S
C234 H222 0.950 . S
C234 C233 1.398 . S
C234 C235 1.391 . S
C235 H223 0.950 . S
C235 C231 1.393 . S
C235 C234 1.391 . S
H236 C244 0.950 . S
H237 C249 0.950 . S
H238 C246 0.950 . S
H239 C248 0.950 . S
H240 C250 0.950 . S
H241 C252 0.950 . S
H242 C254 0.950 . S
H243 C255 0.950 . S
C244 H236 0.950 . S
C244 C245 1.386 . S
C244 C246 1.391 . S
C245 C244 1.386 . S
C245 C249 1.393 . S
C246 H238 0.950 . S
C246 C244 1.391 . S
C246 C247 1.400 . S
C247 C246 1.400 . S
C247 C248 1.398 . S
C247 C253 1.491 . S
C248 H239 0.950 . S
C248 C247 1.398 . S
C248 C249 1.391 . S
C249 H237 0.950 . S
C249 C245 1.393 . S
C249 C248 1.391 . S
C250 H240 0.950 . S
C250 C251 1.386 . S
C250 C252 1.391 1_655 S
C251 C250 1.386 . S
C251 C255 1.393 . S
C252 H241 0.950 . S
C252 C250 1.391 1_455 S
C252 C253 1.400 . S
C253 C247 1.491 . S
C253 C252 1.400 . S
C253 C254 1.398 . S
C254 H242 0.950 . S
C254 C253 1.398 . S
C254 C255 1.391 1_455 S
C255 H243 0.950 . S
C255 C251 1.393 . S
C255 C254 1.391 1_655 S
H256 C264 0.950 . S
H257 C269 0.950 . S
H258 C266 0.950 . S
H259 C268 0.950 1_556 S
H260 C270 0.950 . S
H261 C272 0.950 . S
H262 C274 0.950 . S
H263 C275 0.950 . S
C264 H256 0.950 . S
C264 C265 1.386 . S
C264 C266 1.391 . S
C265 C264 1.386 . S
C265 C269 1.393 . S
C266 H258 0.950 . S
C266 C264 1.391 . S
C266 C267 1.400 . S
C267 C266 1.400 . S
C267 C268 1.398 . S
C267 C273 1.491 . S
C268 H259 0.950 1_554 S
C268 C267 1.398 . S
C268 C269 1.391 . S
C269 H257 0.950 . S
C269 C265 1.393 . S
C269 C268 1.391 . S
C270 H260 0.950 . S
C270 C271 1.386 . S
C270 C272 1.391 . S
C271 C270 1.386 . S
C271 C275 1.393 1_556 S
C272 H261 0.950 . S
C272 C270 1.391 . S
C272 C273 1.400 1_556 S
C273 C267 1.491 . S
C273 C272 1.400 1_554 S
C273 C274 1.398 . S
C274 H262 0.950 . S
C274 C273 1.398 . S
C274 C275 1.391 . S
C275 H263 0.950 . S
C275 C271 1.393 1_554 S
C275 C274 1.391 . S
H276 C284 0.950 . S
H277 C289 0.950 . S
H278 C286 0.950 . S
H279 C288 0.950 . S
H280 C290 0.950 . S
H281 C292 0.950 1_556 S
H282 C294 0.950 . S
H283 C295 0.950 . S
C284 H276 0.950 . S
C284 C285 1.386 . S
C284 C286 1.391 . S
C285 C284 1.386 . S
C285 C289 1.393 . S
C286 H278 0.950 . S
C286 C284 1.391 . S
C286 C287 1.400 . S
C287 C286 1.400 . S
C287 C288 1.398 . S
C287 C293 1.491 . S
C288 H279 0.950 . S
C288 C287 1.398 . S
C288 C289 1.391 . S
C289 H277 0.950 . S
C289 C285 1.393 . S
C289 C288 1.391 . S
C290 H280 0.950 . S
C290 C291 1.386 . S
C290 C292 1.391 . S
C291 C290 1.386 . S
C291 C295 1.393 . S
C292 H281 0.950 1_554 S
C292 C290 1.391 . S
C292 C293 1.400 1_554 S
C293 C287 1.491 . S
C293 C292 1.400 1_556 S
C293 C294 1.398 . S
C294 H282 0.950 . S
C294 C293 1.398 . S
C294 C295 1.391 1_556 S
C295 H283 0.950 . S
C295 C291 1.393 . S
C295 C294 1.391 1_554 S
H296 C304 0.950 . S
H297 C309 0.950 . S
H298 C306 0.950 . S
H299 C308 0.950 . S
H300 C310 0.950 . S
H301 C312 0.950 . S
H302 C314 0.957 . S
H303 C315 0.950 . S
C304 H296 0.950 . S
C304 C305 1.386 . S
C304 C306 1.391 . S
C305 C304 1.386 . S
C305 C309 1.393 . S
C306 H298 0.950 . S
C306 C304 1.391 . S
C306 C307 1.400 . S
C307 C306 1.400 . S
C307 C308 1.398 . S
C307 C313 1.491 . S
C308 H299 0.950 . S
C308 C307 1.398 . S
C308 C309 1.391 . S
C309 H297 0.950 . S
C309 C305 1.393 . S
C309 C308 1.391 . S
C310 H300 0.950 . S
C310 C311 1.386 . S
C310 C312 1.391 . S
C311 C310 1.386 . S
C311 C315 1.393 . S
C312 H301 0.950 . S
C312 C310 1.391 . S
C312 C313 1.400 1_556 S
C313 C307 1.491 . S
C313 C312 1.400 1_554 S
C313 C314 1.402 . S
C314 H302 0.957 . S
C314 C313 1.402 . S
C314 C315 1.380 1_554 S
C315 H303 0.950 . S
C315 C311 1.393 . S
C315 C314 1.380 1_556 S
H316 C324 0.950 . S
H317 C329 0.950 . S
H318 C326 0.950 . S
H319 C328 0.950 . S
H320 C330 0.950 . S
H321 C332 0.950 1_554 S
H322 C334 0.950 . S
H323 C335 0.950 . S
C324 H316 0.950 . S
C324 C325 1.386 1_556 S
C324 C326 1.391 . S
C325 C324 1.386 1_554 S
C325 C329 1.393 . S
C326 H318 0.950 . S
C326 C324 1.391 . S
C326 C327 1.400 . S
C327 C326 1.400 . S
C327 C328 1.398 1_556 S
C327 C333 1.491 . S
C328 H319 0.950 . S
C328 C327 1.398 1_554 S
C328 C329 1.391 . S
C329 H317 0.950 . S
C329 C325 1.393 . S
C329 C328 1.391 . S
C330 H320 0.950 . S
C330 C331 1.386 . S
C330 C332 1.391 . S
C331 C330 1.386 . S
C331 C335 1.393 . S
C332 H321 0.950 1_556 S
C332 C330 1.391 . S
C332 C333 1.400 . S
C333 C327 1.491 . S
C333 C332 1.400 . S
C333 C334 1.398 . S
C334 H322 0.950 . S
C334 C333 1.398 . S
C334 C335 1.391 . S
C335 H323 0.950 . S
C335 C331 1.393 . S
C335 C334 1.391 . S
H336 C344 0.950 . S
H337 C349 0.950 . S
H338 C346 0.950 . S
H339 C348 0.950 . S
H340 C350 0.950 . S
H341 C352 0.950 . S
H342 C354 0.950 . S
H343 C355 0.950 . S
C344 H336 0.950 . S
C344 C345 1.386 . S
C344 C346 1.391 . S
C345 C344 1.386 . S
C345 C349 1.393 . S
C346 H338 0.950 . S
C346 C344 1.391 . S
C346 C347 1.400 . S
C347 C346 1.400 . S
C347 C348 1.398 . S
C347 C353 1.491 . S
C348 H339 0.950 . S
C348 C347 1.398 . S
C348 C349 1.391 . S
C349 H337 0.950 . S
C349 C345 1.393 . S
C349 C348 1.391 . S
C350 H340 0.950 . S
C350 C351 1.386 . S
C350 C352 1.391 . S
C351 C350 1.386 . S
C351 C355 1.393 . S
C352 H341 0.950 . S
C352 C350 1.391 . S
C352 C353 1.400 . S
C353 C347 1.491 . S
C353 C352 1.400 . S
C353 C354 1.398 . S
C354 H342 0.950 . S
C354 C353 1.398 . S
C354 C355 1.391 . S
C355 H343 0.950 . S
C355 C351 1.393 . S
C355 C354 1.391 . S
H356 C364 0.950 . S
H357 C369 0.950 . S
H358 C366 0.950 . S
H359 C368 0.950 . S
H360 C370 0.950 . S
H361 C372 0.950 . S
H362 C374 0.950 . S
H363 C375 0.950 . S
C364 H356 0.950 . S
C364 C365 1.386 . S
C364 C366 1.391 . S
C365 C364 1.386 . S
C365 C369 1.393 . S
C366 H358 0.950 . S
C366 C364 1.391 . S
C366 C367 1.400 . S
C367 C366 1.400 . S
C367 C368 1.398 . S
C367 C373 1.491 . S
C368 H359 0.950 . S
C368 C367 1.398 . S
C368 C369 1.391 . S
C369 H357 0.950 . S
C369 C365 1.393 . S
C369 C368 1.391 . S
C370 H360 0.950 . S
C370 C371 1.386 . S
C370 C372 1.391 . S
C371 C370 1.386 . S
C371 C375 1.393 . S
C372 H361 0.950 . S
C372 C370 1.391 . S
C372 C373 1.400 . S
C373 C367 1.491 . S
C373 C372 1.400 . S
C373 C374 1.398 . S
C374 H362 0.950 . S
C374 C373 1.398 . S
C374 C375 1.391 . S
C375 H363 0.950 . S
C375 C371 1.393 . S
C375 C374 1.391 . S
H376 C384 0.950 . S
H377 C389 0.950 . S
H378 C386 0.950 . S
H379 C388 0.950 . S
H380 C390 0.950 . S
H381 C392 0.950 . S
H382 C394 0.950 . S
H383 C395 0.950 . S
C384 H376 0.950 . S
C384 C385 1.386 . S
C384 C386 1.391 . S
C385 C384 1.386 . S
C385 C389 1.393 . S
C386 H378 0.950 . S
C386 C384 1.391 . S
C386 C387 1.400 . S
C387 C386 1.400 . S
C387 C388 1.398 . S
C387 C393 1.491 . S
C388 H379 0.950 . S
C388 C387 1.398 . S
C388 C389 1.391 . S
C389 H377 0.950 . S
C389 C385 1.393 . S
C389 C388 1.391 . S
C390 H380 0.950 . S
C390 C391 1.386 . S
C390 C392 1.391 . S
C391 C390 1.386 . S
C391 C395 1.393 . S
C392 H381 0.950 . S
C392 C390 1.391 . S
C392 C393 1.400 . S
C393 C387 1.491 . S
C393 C392 1.400 . S
C393 C394 1.398 . S
C394 H382 0.950 . S
C394 C393 1.398 . S
C394 C395 1.391 . S
C395 H383 0.950 . S
C395 C391 1.393 . S
C395 C394 1.391 . S
H396 C404 0.950 . S
H397 C409 0.950 . S
H398 C406 0.950 . S
H399 C408 0.950 . S
H400 C410 0.950 . S
H401 C412 0.950 . S
H402 C414 0.950 . S
H403 C415 0.950 . S
C404 H396 0.950 . S
C404 C405 1.386 . S
C404 C406 1.391 . S
C405 C404 1.386 . S
C405 C409 1.393 . S
C406 H398 0.950 . S
C406 C404 1.391 . S
C406 C407 1.400 . S
C407 C406 1.400 . S
C407 C408 1.398 . S
C407 C413 1.491 . S
C408 H399 0.950 . S
C408 C407 1.398 . S
C408 C409 1.391 . S
C409 H397 0.950 . S
C409 C405 1.393 . S
C409 C408 1.391 . S
C410 H400 0.950 . S
C410 C411 1.386 . S
C410 C412 1.391 . S
C411 C410 1.386 . S
C411 C415 1.393 . S
C412 H401 0.950 . S
C412 C410 1.391 . S
C412 C413 1.400 . S
C413 C407 1.491 . S
C413 C412 1.400 . S
C413 C414 1.398 . S
C414 H402 0.950 . S
C414 C413 1.398 . S
C414 C415 1.391 . S
C415 H403 0.950 . S
C415 C411 1.393 . S
C415 C414 1.391 . S
H416 C424 0.950 . S
H417 C429 0.950 . S
H418 C426 0.950 . S
H419 C428 0.950 . S
H420 C430 0.950 . S
H421 C432 0.948 1_545 S
H422 C434 0.950 . S
H423 C435 0.950 . S
C424 H416 0.950 . S
C424 C425 1.386 . S
C424 C426 1.391 . S
C425 C424 1.386 . S
C425 C429 1.393 . S
C426 H418 0.950 . S
C426 C424 1.391 . S
C426 C427 1.400 . S
C427 C426 1.400 . S
C427 C428 1.398 . S
C427 C433 1.491 . S
C428 H419 0.950 . S
C428 C427 1.398 . S
C428 C429 1.391 . S
C429 H417 0.950 . S
C429 C425 1.393 . S
C429 C428 1.391 . S
C430 H420 0.950 . S
C430 C431 1.386 . S
C430 C432 1.407 . S
C431 C430 1.386 . S
C431 C435 1.393 . S
C432 H421 0.948 1_565 S
C432 C430 1.407 . S
C432 C433 1.386 1_565 S
C433 C427 1.491 . S
C433 C432 1.386 1_545 S
C433 C434 1.398 . S
C434 H422 0.950 . S
C434 C433 1.398 . S
C434 C435 1.391 1_545 S
C435 H423 0.950 . S
C435 C431 1.393 . S
C435 C434 1.391 1_565 S
H436 C444 0.950 . S
H437 C449 0.950 . S
H438 C446 0.950 . S
H439 C448 0.950 . S
H440 C450 0.950 . S
H441 C452 0.950 . S
H442 C454 0.950 . S
H443 C455 0.950 . S
C444 H436 0.950 . S
C444 C445 1.386 . S
C444 C446 1.391 . S
C445 C444 1.386 . S
C445 C449 1.393 . S
C446 H438 0.950 . S
C446 C444 1.391 . S
C446 C447 1.400 . S
C447 C446 1.400 . S
C447 C448 1.398 . S
C447 C453 1.491 . S
C448 H439 0.950 . S
C448 C447 1.398 . S
C448 C449 1.391 . S
C449 H437 0.950 . S
C449 C445 1.393 . S
C449 C448 1.391 . S
C450 H440 0.950 . S
C450 C451 1.386 . S
C450 C452 1.391 1_655 S
C451 C450 1.386 . S
C451 C455 1.393 . S
C452 H441 0.950 . S
C452 C450 1.391 1_455 S
C452 C453 1.400 . S
C453 C447 1.491 . S
C453 C452 1.400 . S
C453 C454 1.398 . S
C454 H442 0.950 . S
C454 C453 1.398 . S
C454 C455 1.391 1_455 S
C455 H443 0.950 . S
C455 C451 1.393 . S
C455 C454 1.391 1_655 S
H456 C464 0.950 . S
H457 C469 0.950 . S
H458 C466 0.950 . S
H459 C468 0.950 . S
H460 C470 0.950 . S
H461 C472 0.950 . S
H462 C474 0.950 . S
H463 C475 0.950 . S
C464 H456 0.950 . S
C464 C465 1.386 . S
C464 C466 1.391 . S
C465 C464 1.386 . S
C465 C469 1.393 . S
C466 H458 0.950 . S
C466 C464 1.391 . S
C466 C467 1.400 . S
C467 C466 1.400 . S
C467 C468 1.398 . S
C467 C473 1.491 . S
C468 H459 0.950 . S
C468 C467 1.398 . S
C468 C469 1.391 . S
C469 H457 0.950 . S
C469 C465 1.393 . S
C469 C468 1.391 . S
C470 H460 0.950 . S
C470 C471 1.386 . S
C470 C472 1.391 1_545 S
C471 C470 1.386 . S
C471 C475 1.393 . S
C472 H461 0.950 . S
C472 C470 1.391 1_565 S
C472 C473 1.400 . S
C473 C467 1.491 . S
C473 C472 1.400 . S
C473 C474 1.398 . S
C474 H462 0.950 . S
C474 C473 1.398 . S
C474 C475 1.391 1_565 S
C475 H463 0.950 . S
C475 C471 1.393 . S
C475 C474 1.391 1_545 S
H476 C484 0.950 . S
H477 C489 0.950 . S
H478 C486 0.950 . S
H479 C488 0.950 . S
H480 C490 0.950 . S
H481 C492 0.950 . S
H482 C494 0.950 . S
H483 C495 0.950 . S
C484 H476 0.950 . S
C484 C485 1.386 . S
C484 C486 1.391 1_455 S
C485 C484 1.386 . S
C485 C489 1.393 . S
C486 H478 0.950 . S
C486 C484 1.391 1_655 S
C486 C487 1.400 . S
C487 C486 1.400 . S
C487 C488 1.398 . S
C487 C493 1.491 . S
C488 H479 0.950 . S
C488 C487 1.398 . S
C488 C489 1.391 1_655 S
C489 H477 0.950 . S
C489 C485 1.393 . S
C489 C488 1.391 1_455 S
C490 H480 0.950 . S
C490 C491 1.386 . S
C490 C492 1.391 . S
C491 C490 1.386 . S
C491 C495 1.393 . S
C492 H481 0.950 . S
C492 C490 1.391 . S
C492 C493 1.400 . S
C493 C487 1.491 . S
C493 C492 1.400 . S
C493 C494 1.398 . S
C494 H482 0.950 . S
C494 C493 1.398 . S
C494 C495 1.391 . S
C495 H483 0.950 . S
C495 C491 1.393 . S
C495 C494 1.391 . S
H496 C504 0.950 . S
H497 C509 0.950 . S
H498 C506 0.950 . S
H499 C508 0.950 . S
H500 C510 0.950 . S
H501 C512 0.950 . S
H502 C514 0.950 . S
H503 C515 0.950 . S
C504 H496 0.950 . S
C504 C505 1.386 . S
C504 C506 1.391 . S
C505 C504 1.386 . S
C505 C509 1.393 . S
C506 H498 0.950 . S
C506 C504 1.391 . S
C506 C507 1.400 . S
C507 C506 1.400 . S
C507 C508 1.398 . S
C507 C513 1.491 . S
C508 H499 0.950 . S
C508 C507 1.398 . S
C508 C509 1.391 . S
C509 H497 0.950 . S
C509 C505 1.393 . S
C509 C508 1.391 . S
C510 H500 0.950 . S
C510 C511 1.386 . S
C510 C512 1.391 . S
C511 C510 1.386 . S
C511 C515 1.393 . S
C512 H501 0.950 . S
C512 C510 1.391 . S
C512 C513 1.400 . S
C513 C507 1.491 . S
C513 C512 1.400 . S
C513 C514 1.398 . S
C514 H502 0.950 . S
C514 C513 1.398 . S
C514 C515 1.391 . S
C515 H503 0.950 . S
C515 C511 1.393 . S
C515 C514 1.391 . S
H516 C524 0.942 1_554 S
H517 C529 0.950 . S
H518 C526 0.950 . S
H519 C528 0.950 . S
H520 C530 0.950 . S
H521 C532 0.950 . S
H522 C534 0.950 . S
H523 C535 0.950 . S
C524 H516 0.942 1_556 S
C524 C525 1.386 . S
C524 C526 1.391 . S
C525 C524 1.386 . S
C525 C529 1.393 . S
C526 H518 0.950 . S
C526 C524 1.391 . S
C526 C527 1.400 . S
C527 C526 1.400 . S
C527 C528 1.398 . S
C527 C533 1.491 . S
C528 H519 0.950 . S
C528 C527 1.398 . S
C528 C529 1.391 . S
C529 H517 0.950 . S
C529 C525 1.393 . S
C529 C528 1.391 . S
C530 H520 0.950 . S
C530 C531 1.386 . S
C530 C532 1.391 . S
C531 C530 1.386 . S
C531 C535 1.393 . S
C532 H521 0.950 . S
C532 C530 1.391 . S
C532 C533 1.400 . S
C533 C527 1.491 . S
C533 C532 1.400 . S
C533 C534 1.398 . S
C534 H522 0.950 . S
C534 C533 1.398 . S
C534 C535 1.391 . S
C535 H523 0.950 . S
C535 C531 1.393 . S
C535 C534 1.391 . S
H536 C544 0.950 . S
H537 C549 0.950 . S
H538 C546 0.950 . S
H539 C548 0.950 . S
H540 C550 0.950 . S
H541 C552 0.950 . S
H542 C554 0.950 . S
H543 C555 0.950 1_556 S
C544 H536 0.950 . S
C544 C545 1.386 . S
C544 C546 1.391 . S
C545 C544 1.386 . S
C545 C549 1.393 . S
C546 H538 0.950 . S
C546 C544 1.391 . S
C546 C547 1.400 . S
C547 C546 1.400 . S
C547 C548 1.398 . S
C547 C553 1.491 . S
C548 H539 0.950 . S
C548 C547 1.398 . S
C548 C549 1.391 . S
C549 H537 0.950 . S
C549 C545 1.393 . S
C549 C548 1.391 . S
C550 H540 0.950 . S
C550 C551 1.386 . S
C550 C552 1.391 . S
C551 C550 1.386 . S
C551 C555 1.393 . S
C552 H541 0.950 . S
C552 C550 1.391 . S
C552 C553 1.400 . S
C553 C547 1.491 . S
C553 C552 1.400 . S
C553 C554 1.398 . S
C554 H542 0.950 . S
C554 C553 1.398 . S
C554 C555 1.391 . S
C555 H543 0.950 1_554 S
C555 C551 1.393 . S
C555 C554 1.391 . S
H556 C564 0.950 . S
H557 C569 0.950 . S
H558 C566 0.950 . S
H559 C568 0.950 . S
H560 C570 0.950 1_554 S
H561 C572 0.950 . S
H562 C574 0.950 . S
H563 C575 0.950 . S
C564 H556 0.950 . S
C564 C565 1.386 . S
C564 C566 1.391 . S
C565 C564 1.386 . S
C565 C569 1.393 . S
C566 H558 0.950 . S
C566 C564 1.391 . S
C566 C567 1.400 . S
C567 C566 1.400 . S
C567 C568 1.398 . S
C567 C573 1.491 . S
C568 H559 0.950 . S
C568 C567 1.398 . S
C568 C569 1.391 . S
C569 H557 0.950 . S
C569 C565 1.393 . S
C569 C568 1.391 . S
C570 H560 0.950 1_556 S
C570 C571 1.386 . S
C570 C572 1.391 . S
C571 C570 1.386 . S
C571 C575 1.393 . S
C572 H561 0.950 . S
C572 C570 1.391 . S
C572 C573 1.400 . S
C573 C567 1.491 . S
C573 C572 1.400 . S
C573 C574 1.398 . S
C574 H562 0.950 . S
C574 C573 1.398 . S
C574 C575 1.391 . S
C575 H563 0.950 . S
C575 C571 1.393 . S
C575 C574 1.391 . S
H576 C584 0.950 . S
H577 C589 0.950 . S
H578 C586 0.950 . S
H579 C588 0.950 . S
H580 C590 0.950 . S
H581 C592 0.950 . S
H582 C594 0.950 . S
H583 C595 0.950 . S
C584 H576 0.950 . S
C584 C585 1.386 . S
C584 C586 1.391 . S
C585 C584 1.386 . S
C585 C589 1.393 . S
C586 H578 0.950 . S
C586 C584 1.391 . S
C586 C587 1.400 . S
C587 C586 1.400 . S
C587 C588 1.398 . S
C587 C593 1.491 . S
C588 H579 0.950 . S
C588 C587 1.398 . S
C588 C589 1.391 . S
C589 H577 0.950 . S
C589 C585 1.393 . S
C589 C588 1.391 . S
C590 H580 0.950 . S
C590 C591 1.386 . S
C590 C592 1.391 . S
C591 C590 1.386 . S
C591 C595 1.393 . S
C592 H581 0.950 . S
C592 C590 1.391 . S
C592 C593 1.400 . S
C593 C587 1.491 . S
C593 C592 1.400 . S
C593 C594 1.398 . S
C594 H582 0.950 . S
C594 C593 1.398 . S
C594 C595 1.391 . S
C595 H583 0.950 . S
C595 C591 1.393 . S
C595 C594 1.391 . S
H596 C604 0.950 . S
H597 C609 0.950 . S
H598 C606 0.950 . S
H599 C608 0.950 . S
H600 C610 0.950 . S
H601 C612 0.950 . S
H602 C614 0.950 . S
H603 C615 0.950 . S
C604 H596 0.950 . S
C604 C605 1.386 . S
C604 C606 1.391 . S
C605 C604 1.386 . S
C605 C609 1.393 . S
C606 H598 0.950 . S
C606 C604 1.391 . S
C606 C607 1.400 . S
C607 C606 1.400 . S
C607 C608 1.398 . S
C607 C613 1.491 . S
C608 H599 0.950 . S
C608 C607 1.398 . S
C608 C609 1.391 . S
C609 H597 0.950 . S
C609 C605 1.393 . S
C609 C608 1.391 . S
C610 H600 0.950 . S
C610 C611 1.386 . S
C610 C612 1.391 . S
C611 C610 1.386 . S
C611 C615 1.393 . S
C612 H601 0.950 . S
C612 C610 1.391 . S
C612 C613 1.400 . S
C613 C607 1.491 . S
C613 C612 1.400 . S
C613 C614 1.398 . S
C614 H602 0.950 . S
C614 C613 1.398 . S
C614 C615 1.391 . S
C615 H603 0.950 . S
C615 C611 1.393 . S
C615 C614 1.391 . S
H616 C624 0.950 . S
H617 C629 0.950 . S
H618 C626 0.950 . S
H619 C628 0.950 . S
H620 C630 0.950 . S
H621 C632 0.950 . S
H622 C634 0.950 . S
H623 C635 0.950 . S
C624 H616 0.950 . S
C624 C625 1.386 . S
C624 C626 1.391 . S
C625 C624 1.386 . S
C625 C629 1.393 . S
C626 H618 0.950 . S
C626 C624 1.391 . S
C626 C627 1.400 . S
C627 C626 1.400 . S
C627 C628 1.398 . S
C627 C633 1.491 . S
C628 H619 0.950 . S
C628 C627 1.398 . S
C628 C629 1.391 . S
C629 H617 0.950 . S
C629 C625 1.393 . S
C629 C628 1.391 . S
C630 H620 0.950 . S
C630 C631 1.386 . S
C630 C632 1.391 . S
C631 C630 1.386 . S
C631 C635 1.393 . S
C632 H621 0.950 . S
C632 C630 1.391 . S
C632 C633 1.400 . S
C633 C627 1.491 . S
C633 C632 1.400 . S
C633 C634 1.398 . S
C634 H622 0.950 . S
C634 C633 1.398 . S
C634 C635 1.391 . S
C635 H623 0.950 . S
C635 C631 1.393 . S
C635 C634 1.391 . S
H636 C644 0.950 . S
H637 C649 0.950 . S
H638 C646 0.950 . S
H639 C648 0.950 . S
H640 C650 0.950 . S
H641 C652 0.950 . S
H642 C654 0.950 . S
H643 C655 0.950 . S
C644 H636 0.950 . S
C644 C645 1.386 . S
C644 C646 1.391 . S
C645 C644 1.386 . S
C645 C649 1.393 . S
C646 H638 0.950 . S
C646 C644 1.391 . S
C646 C647 1.400 . S
C647 C646 1.400 . S
C647 C648 1.398 . S
C647 C653 1.491 . S
C648 H639 0.950 . S
C648 C647 1.398 . S
C648 C649 1.391 . S
C649 H637 0.950 . S
C649 C645 1.393 . S
C649 C648 1.391 . S
C650 H640 0.950 . S
C650 C651 1.386 . S
C650 C652 1.391 . S
C651 C650 1.386 . S
C651 C655 1.393 . S
C652 H641 0.950 . S
C652 C650 1.391 . S
C652 C653 1.400 . S
C653 C647 1.491 . S
C653 C652 1.400 . S
C653 C654 1.398 . S
C654 H642 0.950 . S
C654 C653 1.398 . S
C654 C655 1.391 . S
C655 H643 0.950 . S
C655 C651 1.393 . S
C655 C654 1.391 . S
C185 C7 1.147 . S
C191 C119 1.182 . S
C205 C29 1.126 . S
C211 C140 1.178 . S
C225 C50 1.160 . S
C231 C163 1.186 . S
C245 C92 1.186 . S
C251 C73 1.160 . S
C265 C114 1.186 . S
C271 C97 1.160 . S
C285 C138 1.185 . S
C291 C115 1.156 . S
C305 C158 1.181 . S
C311 C137 1.133 . S
C325 C159 1.140 . S
C331 C95 1.181 . S
C345 C139 1.133 . S
C351 C75 1.179 . S
C365 C161 1.159 . S
C371 C8 1.186 . S
C385 C31 1.179 . S
C391 C94 1.134 . S
C405 C48 1.181 . S
C411 C117 1.144 . S
C425 C70 1.178 . S
C431 C53 1.127 . S
C445 C6 1.181 . S
C451 C71 1.132 . S
C465 C26 1.182 . S
C471 C5 1.138 . S
C485 C27 1.158 . S
C491 C51 1.186 . S
C505 C96 1.428 1_554 S
C511 C9 1.427 . S
C525 C116 1.429 1_556 S
C531 C30 1.431 . S
C545 C49 1.437 . S
C551 C136 1.440 1_554 S
C565 C74 1.430 . S
C571 C160 1.434 1_556 S
C585 C52 1.445 . S
C591 C141 1.443 . S
C605 C72 1.445 . S
C611 C162 1.443 . S
C625 C93 1.426 . S
C631 C4 1.427 . S
C645 C118 1.427 . S
C651 C28 1.426 . S
