# Generated by pormake.
# Topology mmt, (4)-cn, num edge types: 1
# Building blocks:
#     Node 0, Type 0, BuildingBlock: TATPOV_clean_sbu_0, # of connection points: 4
#     Node 1, Type 0, BuildingBlock: TATPOV_clean_sbu_0, # of connection points: 4
#     Node 2, Type 0, BuildingBlock: TATPOV_clean_sbu_0, # of connection points: 4
#     Node 3, Type 0, BuildingBlock: TATPOV_clean_sbu_0, # of connection points: 4
#     Node 4, Type 0, BuildingBlock: TATPOV_clean_sbu_0, # of connection points: 4
#     Node 5, Type 0, BuildingBlock: TATPOV_clean_sbu_0, # of connection points: 4
#     Node 6, Type 0, BuildingBlock: TATPOV_clean_sbu_0, # of connection points: 4
#     Node 7, Type 0, BuildingBlock: TATPOV_clean_sbu_0, # of connection points: 4
#     Edge 8, Type (0, 0), BuildingBlock: TEMPAE_clean_linker_10, # of connection points: 2
#     Edge 9, Type (0, 0), BuildingBlock: TEMPAE_clean_linker_10, # of connection points: 2
#     Edge 10, Type (0, 0), BuildingBlock: TEMPAE_clean_linker_10, # of connection points: 2
#     Edge 11, Type (0, 0), BuildingBlock: TEMPAE_clean_linker_10, # of connection points: 2
#     Edge 12, Type (0, 0), BuildingBlock: TEMPAE_clean_linker_10, # of connection points: 2
#     Edge 13, Type (0, 0), BuildingBlock: TEMPAE_clean_linker_10, # of connection points: 2
#     Edge 14, Type (0, 0), BuildingBlock: TEMPAE_clean_linker_10, # of connection points: 2
#     Edge 15, Type (0, 0), BuildingBlock: TEMPAE_clean_linker_10, # of connection points: 2
#     Edge 16, Type (0, 0), BuildingBlock: TEMPAE_clean_linker_10, # of connection points: 2
#     Edge 17, Type (0, 0), BuildingBlock: TEMPAE_clean_linker_10, # of connection points: 2
#     Edge 18, Type (0, 0), BuildingBlock: TEMPAE_clean_linker_10, # of connection points: 2
#     Edge 19, Type (0, 0), BuildingBlock: TEMPAE_clean_linker_10, # of connection points: 2
#     Edge 20, Type (0, 0), BuildingBlock: TEMPAE_clean_linker_10, # of connection points: 2
#     Edge 21, Type (0, 0), BuildingBlock: TEMPAE_clean_linker_10, # of connection points: 2
#     Edge 22, Type (0, 0), BuildingBlock: TEMPAE_clean_linker_10, # of connection points: 2
#     Edge 23, Type (0, 0), BuildingBlock: TEMPAE_clean_linker_10, # of connection points: 2
# Relax obj value: 0.064
# Max RMSD: 0.111
# Mean RMSD: 0.111
data_MOF--net-mmt--node1-TATPOV_clean_sbu_0--edge1-TEMPAE_clean_linker_10
_symmetry_space_group_name_H-M    P1
_symmetry_Int_Tables_number       1
_symmetry_cell_setting            triclinic
loop_
_symmetry_equiv_pos_as_xyz
'x, y, z'
_cell_length_a     21.940166
_cell_length_b     40.104131
_cell_length_c     41.032008
_cell_angle_alpha  90.150316
_cell_angle_beta   89.954302
_cell_angle_gamma 89.961186
loop_
_atom_site_label
_atom_site_type_symbol
_atom_site_fract_x
_atom_site_fract_y
_atom_site_fract_z
_atom_type_partial_charge
Zn0 Zn 0.2273 0.50449 0.36106 0.0
Zn1 Zn 0.22237 0.57144 0.35896 0.0
O2 O 0.17191 0.55869 0.39967 0.0
O3 O 0.17719 0.50385 0.40217 0.0
O4 O 0.23145 0.62185 0.36162 0.0
O5 O 0.31834 0.50241 0.36277 0.0
O6 O 0.31184 0.55621 0.35324 0.0
C7 C 0.15782 0.53127 0.41345 0.0
C8 C 0.16678 0.53331 0.30357 0.0
O9 O 0.17425 0.56129 0.31776 0.0
O10 O 0.18645 0.5066 0.31631 0.0
C11 C 0.19314 0.64296 0.35086 0.0
O12 O 0.14272 0.63219 0.33717 0.0
C13 C 0.34376 0.52974 0.35577 0.0
Zn14 Zn 0.26206 0.02495 0.35992 0.0
Zn15 Zn 0.28481 0.95934 0.35267 0.0
O16 O 0.32695 0.97208 0.39597 0.0
O17 O 0.3073 0.02558 0.40262 0.0
O18 O 0.28962 0.9088 0.35009 0.0
O19 O 0.17126 0.01928 0.35819 0.0
O20 O 0.19314 0.96748 0.34504 0.0
C21 C 0.33255 0.99902 0.41232 0.0
C22 C 0.33606 1.00649 0.30283 0.0
O23 O 0.33367 0.97703 0.31431 0.0
O24 O 0.30843 0.03031 0.31694 0.0
C25 C 0.26157 0.89187 0.3716 0.0
O26 O 0.23361 0.90781 0.39531 0.0
C27 C 0.15425 0.99087 0.34836 0.0
Zn28 Zn 0.72969 0.52847 0.14193 0.0
Zn29 Zn 0.72129 0.46332 0.13618 0.0
O30 O 0.67374 0.4806 0.09586 0.0
O31 O 0.67069 0.53472 0.10509 0.0
O32 O 0.72817 0.4131 0.12984 0.0
O33 O 0.82047 0.53021 0.13576 0.0
O34 O 0.8113 0.47625 0.1432 0.0
C35 C 0.65463 0.50967 0.0884 0.0
C36 C 0.67134 0.49633 0.19669 0.0
O37 O 0.67259 0.47065 0.17831 0.0
O38 O 0.69644 0.52323 0.18773 0.0
C39 C 0.69001 0.39159 0.13996 0.0
O40 O 0.6405 0.4018 0.15501 0.0
C41 C 0.84466 0.50219 0.1414 0.0
Zn42 Zn 0.76209 1.01016 0.12704 0.0
Zn43 Zn 0.78493 0.07574 0.13388 0.0
O44 O 0.82735 0.06271 0.09065 0.0
O45 O 0.80755 1.00919 0.08439 0.0
O46 O 0.7896 0.1263 0.13635 0.0
O47 O 0.6713 1.01587 0.12863 0.0
O48 O 0.69322 0.06771 0.14151 0.0
C49 C 0.83294 0.03563 0.07452 0.0
C50 C 0.8359 0.02881 0.18402 0.0
O51 O 0.83364 0.0582 0.17235 0.0
O52 O 0.80822 1.00495 0.17006 0.0
C53 C 0.76208 0.14332 0.11472 0.0
O54 O 0.73481 0.1275 0.09074 0.0
C55 C 0.65429 0.04436 0.1383 0.0
Zn56 Zn 0.76177 0.52457 0.64082 0.0
Zn57 Zn 0.77414 0.45971 0.63638 0.0
O58 O 0.81954 0.47715 0.59536 0.0
O59 O 0.81977 0.53145 0.60363 0.0
O60 O 0.77232 0.40925 0.63105 0.0
O61 O 0.67088 0.52429 0.63512 0.0
O62 O 0.6833 0.47074 0.64395 0.0
C63 C 0.83689 0.50636 0.58726 0.0
C64 C 0.82323 0.495 0.69584 0.0
O65 O 0.82336 0.46893 0.67796 0.0
O66 O 0.79605 0.52118 0.68653 0.0
C67 C 0.7551 0.39102 0.65469 0.0
O68 O 0.74124 0.40534 0.68257 0.0
C69 C 0.64843 0.49607 0.64171 0.0
Zn70 Zn 0.72511 1.00608 0.64043 0.0
Zn71 Zn 0.71803 0.0713 0.63725 0.0
O72 O 0.66716 0.05669 0.59699 0.0
O73 O 0.66248 1.00242 0.60501 0.0
O74 O 0.72531 0.1218 0.63525 0.0
O75 O 0.81487 1.00374 0.63133 0.0
O76 O 0.8085 0.05758 0.64056 0.0
C77 C 0.64623 0.02803 0.58929 0.0
C78 C 0.67208 0.03572 0.69752 0.0
O79 O 0.67226 0.06188 0.67991 0.0
O80 O 0.69657 1.00907 0.68729 0.0
C81 C 0.68141 0.14248 0.63373 0.0
O82 O 0.62526 0.13118 0.6325 0.0
C83 C 0.84068 0.03137 0.63673 0.0
Zn84 Zn 0.26463 0.5054 0.86281 0.0
Zn85 Zn 0.27179 0.57201 0.85845 0.0
O86 O 0.32073 0.56025 0.89996 0.0
O87 O 0.31363 0.5056 0.90422 0.0
O88 O 0.26352 0.62253 0.85935 0.0
O89 O 0.17354 0.50403 0.86389 0.0
O90 O 0.18209 0.55733 0.85245 0.0
C91 C 0.33361 0.53319 0.91472 0.0
C92 C 0.32783 0.53147 0.80481 0.0
O93 O 0.32096 0.56006 0.81794 0.0
O94 O 0.30679 0.5055 0.81836 0.0
C95 C 0.30736 0.64316 0.86165 0.0
O96 O 0.36346 0.63177 0.86315 0.0
C97 C 0.14923 0.5313 0.85565 0.0
Zn98 Zn 0.22607 0.02519 0.84646 0.0
Zn99 Zn 0.2177 0.96005 0.84982 0.0
O100 O 0.16745 0.97507 0.89025 0.0
O101 O 0.16339 0.02929 0.88186 0.0
O102 O 0.22066 0.90933 0.85057 0.0
O103 O 0.31571 0.02636 0.85576 0.0
O104 O 0.3089 0.9725 0.8466 0.0
C105 C 0.14689 1.00388 0.8978 0.0
C106 C 0.17251 0.99653 0.78959 0.0
O107 O 0.17228 0.9705 0.80735 0.0
O108 O 0.19777 0.02303 0.79956 0.0
C109 C 0.23055 0.89211 0.87604 0.0
O110 O 0.23671 0.90746 0.90418 0.0
C111 C 0.34129 0.99862 0.85049 0.0
C112 C 0.42346 0.55136 0.31846 0.0
C113 C 0.40679 0.52906 0.34314 0.0
C114 C 0.47481 0.54534 0.29901 0.0
C115 C 0.51142 0.51694 0.30516 0.0
C116 C 0.49873 0.49652 0.3324 0.0
C117 C 0.44584 0.5025 0.3508 0.0
C118 C 0.48632 0.56759 0.26999 0.0
C119 C 0.53837 0.46698 0.34069 0.0
C120 C 0.5797 0.4799 0.22845 0.0
C121 C 0.63582 0.49635 0.22715 0.0
C122 C 0.53974 0.48517 0.25465 0.0
C123 C 0.55744 0.50653 0.28057 0.0
C124 C 0.61637 0.5208 0.28067 0.0
C125 C 0.65448 0.51608 0.25358 0.0
C126 C 0.47689 0.46987 0.25336 0.0
C127 C 0.63795 0.54248 0.30847 0.0
H128 H 0.3934 0.57188 0.31236 0.0
H129 H 0.43341 0.48537 0.3701 0.0
H130 H 0.53436 0.5761 0.26965 0.0
H131 H 0.4783 0.55329 0.24719 0.0
H132 H 0.45618 0.58986 0.26992 0.0
H133 H 0.53043 0.4583 0.36603 0.0
H134 H 0.52797 0.44607 0.32385 0.0
H135 H 0.58734 0.47323 0.33776 0.0
H136 H 0.56525 0.46478 0.20792 0.0
H137 H 0.69831 0.52853 0.25267 0.0
H138 H 0.44217 0.48992 0.25142 0.0
H139 H 0.46738 0.4559 0.27607 0.0
H140 H 0.47134 0.45266 0.23231 0.0
H141 H 0.61648 0.56745 0.30666 0.0
H142 H 0.68822 0.54579 0.3081 0.0
H143 H 0.62448 0.53164 0.33226 0.0
C144 C 0.85596 0.99674 0.23499 0.0
C145 C 0.87293 0.02198 0.2132 0.0
C146 C 0.89271 0.98886 0.2619 0.0
C147 C 0.94868 1.00579 0.26625 0.0
C148 C 0.96547 0.03163 0.24451 0.0
C149 C 0.92682 0.03978 0.21855 0.0
C150 C 0.87222 0.96209 0.28526 0.0
C151 C 0.02542 0.04984 0.24788 0.0
C152 C 0.04657 1.00989 0.34179 0.0
C153 C 0.09334 0.98761 0.33343 0.0
C154 C 0.9953 1.01363 0.32168 0.0
C155 C 0.99206 0.99545 0.29211 0.0
C156 C 0.03643 0.9708 0.28512 0.0
C157 C 0.08609 0.96679 0.30621 0.0
C158 C 0.94741 0.03904 0.33073 0.0
C159 C 0.03528 0.95122 0.25363 0.0
H160 H 0.81384 0.98321 0.23102 0.0
H161 H 0.94005 0.05917 0.2016 0.0
H162 H 0.9015 0.93972 0.28242 0.0
H163 H 0.87698 0.97084 0.31081 0.0
H164 H 0.82412 0.95462 0.28102 0.0
H165 H 0.03174 0.06911 0.22877 0.0
H166 H 0.02817 0.06213 0.27207 0.0
H167 H 0.06372 0.03182 0.24627 0.0
H168 H 0.05172 0.02578 0.36303 0.0
H169 H 0.12214 0.94955 0.29957 0.0
H170 H 0.9011 0.02963 0.32495 0.0
H171 H 0.95473 0.06212 0.31641 0.0
H172 H 0.94939 0.04561 0.35703 0.0
H173 H 0.98928 0.94083 0.24903 0.0
H174 H 0.06874 0.93041 0.25364 0.0
H175 H 0.04635 0.9681 0.23306 0.0
C176 C 0.92159 0.47849 0.17895 0.0
C177 C 0.90746 0.50128 0.15423 0.0
C178 C 0.97242 0.48332 0.19902 0.0
C179 C 0.01134 0.51086 0.19332 0.0
C180 C 0.00144 0.5315 0.1659 0.0
C181 C 0.94875 0.52689 0.147 0.0
C182 C 0.98057 0.46102 0.22832 0.0
C183 C 0.04382 0.55995 0.15796 0.0
C184 C 0.07656 0.54857 0.27042 0.0
C185 C 0.13164 0.53129 0.27315 0.0
C186 C 0.03783 0.543 0.24381 0.0
C187 C 0.05604 0.52064 0.21878 0.0
C188 C 0.11395 0.50517 0.22027 0.0
C189 C 0.15052 0.51004 0.24793 0.0
C190 C 0.97581 0.5594 0.24359 0.0
C191 C 0.13629 0.48251 0.19337 0.0
H192 H 0.88975 0.4587 0.18473 0.0
H193 H 0.93825 0.54437 0.12768 0.0
H194 H 0.02797 0.45158 0.22963 0.0
H195 H 0.97188 0.4756 0.25089 0.0
H196 H 0.94906 0.43935 0.22793 0.0
H197 H 0.03821 0.5684 0.13237 0.0
H198 H 0.03387 0.58136 0.17429 0.0
H199 H 0.09205 0.55262 0.16188 0.0
H200 H 0.06207 0.56487 0.29009 0.0
H201 H 0.19363 0.49698 0.25 0.0
H202 H 0.93977 0.54 0.24433 0.0
H203 H 0.96943 0.57378 0.22082 0.0
H204 H 0.96917 0.5765 0.26464 0.0
H205 H 0.11357 0.45791 0.19533 0.0
H206 H 0.18633 0.47848 0.19475 0.0
H207 H 0.12494 0.49298 0.16911 0.0
C208 C 0.54654 0.02554 0.1449 0.0
C209 C 0.59335 0.04776 0.15323 0.0
C210 C 0.49527 0.02188 0.16506 0.0
C211 C 0.49207 0.04005 0.19463 0.0
C212 C 0.53648 0.06466 0.20157 0.0
C213 C 0.58614 0.06861 0.18044 0.0
C214 C 0.44734 0.99652 0.15606 0.0
C215 C 0.53539 0.08424 0.23307 0.0
C216 C 0.3561 0.03873 0.25196 0.0
C217 C 0.37312 1.01343 0.27366 0.0
C218 C 0.3928 0.04666 0.22502 0.0
C219 C 0.44878 0.02972 0.22056 0.0
C220 C 0.46565 1.00384 0.24224 0.0
C221 C 0.42703 0.99564 0.26822 0.0
C222 C 0.37224 0.07348 0.20173 0.0
C223 C 0.52562 0.9856 0.23875 0.0
H224 H 0.55167 1.00963 0.12367 0.0
H225 H 0.62224 0.08579 0.18704 0.0
H226 H 0.45469 0.97342 0.17034 0.0
H227 H 0.40104 1.00596 0.16193 0.0
H228 H 0.44925 0.98998 0.12975 0.0
H229 H 0.5688 0.10505 0.23299 0.0
H230 H 0.48939 0.09462 0.23776 0.0
H231 H 0.5466 0.06736 0.25361 0.0
H232 H 0.31395 0.05227 0.25601 0.0
H233 H 0.4403 0.97619 0.28511 0.0
H234 H 0.37686 0.06475 0.17616 0.0
H235 H 0.40156 0.09581 0.20452 0.0
H236 H 0.32417 0.081 0.20608 0.0
H237 H 0.52829 0.97332 0.21455 0.0
H238 H 0.53204 0.96634 0.25785 0.0
H239 H 0.5639 1.00362 0.24028 0.0
C240 C 0.3449 0.5051 0.75053 0.0
C241 C 0.36329 0.52786 0.77457 0.0
C242 C 0.38147 0.49895 0.72308 0.0
C243 C 0.43887 0.51479 0.72056 0.0
C244 C 0.4567 0.53854 0.7444 0.0
C245 C 0.41801 0.54526 0.77083 0.0
C246 C 0.3596 0.47469 0.69746 0.0
C247 C 0.51817 0.55544 0.74305 0.0
C248 C 0.57403 0.47275 0.68096 0.0
C249 C 0.58608 0.49463 0.65516 0.0
C250 C 0.52366 0.47775 0.7014 0.0
C251 C 0.4832 0.50448 0.69505 0.0
C252 C 0.49106 0.52402 0.66668 0.0
C253 C 0.54323 0.51929 0.64735 0.0
C254 C 0.51765 0.45664 0.73168 0.0
C255 C 0.44709 0.55157 0.65812 0.0
H256 H 0.3021 0.49191 0.75337 0.0
H257 H 0.43219 0.56271 0.78957 0.0
H258 H 0.36925 0.48431 0.67265 0.0
H259 H 0.38416 0.45067 0.70009 0.0
H260 H 0.30995 0.46973 0.69964 0.0
H261 H 0.52472 0.5735 0.76332 0.0
H262 H 0.55486 0.53641 0.7443 0.0
H263 H 0.52355 0.56887 0.71965 0.0
H264 H 0.60711 0.45371 0.68719 0.0
H265 H 0.55215 0.53606 0.62722 0.0
H266 H 0.4706 0.44695 0.73414 0.0
H267 H 0.52715 0.47222 0.75349 0.0
H268 H 0.54973 0.43519 0.73162 0.0
H269 H 0.39935 0.5437 0.66266 0.0
H270 H 0.45166 0.55919 0.63222 0.0
H271 H 0.4563 0.57367 0.67367 0.0
C272 C 0.92451 0.05414 0.67056 0.0
C273 C 0.90531 0.0314 0.64671 0.0
C274 C 0.97771 0.04839 0.68853 0.0
C275 C 0.01361 0.01989 0.68155 0.0
C276 C -0.0013 0.99938 0.6546 0.0
C277 C 0.94392 1.005 0.63781 0.0
C278 C 0.99153 0.07078 0.71726 0.0
C279 C 0.03781 0.96993 0.6452 0.0
C280 C 0.15672 0.01734 0.73299 0.0
C281 C 0.13739 0.99744 0.75906 0.0
C282 C 0.11893 0.02255 0.70588 0.0
C283 C 0.05959 1.00878 0.70575 0.0
C284 C 0.04119 0.98731 0.73135 0.0
C285 C 0.0809 0.98141 0.75743 0.0
C286 C 0.14143 0.04419 0.67835 0.0
C287 C 0.97786 0.97256 0.73251 0.0
H288 H 0.89494 0.07464 0.67751 0.0
H289 H 0.92963 0.98762 0.61904 0.0
H290 H 0.98446 0.05672 0.74023 0.0
H291 H 0.03976 0.07893 0.71673 0.0
H292 H 0.96198 0.09328 0.7178 0.0
H293 H 0.02876 0.96177 0.61976 0.0
H294 H 0.08694 0.97602 0.64768 0.0
H295 H 0.02782 0.94872 0.66164 0.0
H296 H 0.20084 0.02946 0.73414 0.0
H297 H 0.06593 0.96615 0.77769 0.0
H298 H 0.12388 0.06992 0.68159 0.0
H299 H 0.12494 0.03481 0.65447 0.0
H300 H 0.19202 0.04537 0.67782 0.0
H301 H 0.94365 0.99291 0.7342 0.0
H302 H 0.97147 0.95563 0.75362 0.0
H303 H 0.96835 0.95839 0.70986 0.0
C304 C 0.0711 0.55264 0.81723 0.0
C305 C 0.08657 0.53079 0.84252 0.0
C306 C 0.02011 0.54658 0.79756 0.0
C307 C 0.9827 0.5186 0.80406 0.0
C308 C 0.99421 0.4987 0.83181 0.0
C309 C 0.04669 0.50472 0.85048 0.0
C310 C 0.00983 0.56827 0.76802 0.0
C311 C 0.95374 0.46961 0.84041 0.0
C312 C 0.84034 0.51687 0.75197 0.0
C313 C 0.85907 0.49629 0.72616 0.0
C314 C 0.87829 0.52239 0.77895 0.0
C315 C 0.93711 0.50795 0.77939 0.0
C316 C 0.95499 0.48586 0.75408 0.0
C317 C 0.91523 0.47988 0.72797 0.0
C318 C 0.85659 0.54495 0.80609 0.0
C319 C 0.01773 0.47033 0.75339 0.0
H320 H 0.10178 0.5728 0.8109 0.0
H321 H 0.05816 0.48795 0.87023 0.0
H322 H 0.01853 0.55348 0.74558 0.0
H323 H 0.96189 0.57693 0.76706 0.0
H324 H 0.04018 0.59043 0.76781 0.0
H325 H 0.96108 0.46125 0.8659 0.0
H326 H 0.90498 0.47621 0.83723 0.0
H327 H 0.96384 0.44837 0.8239 0.0
H328 H 0.79649 0.5293 0.75071 0.0
H329 H 0.92978 0.46408 0.70793 0.0
H330 H 0.87884 0.56966 0.80386 0.0
H331 H 0.86915 0.53457 0.83021 0.0
H332 H 0.80643 0.54871 0.80532 0.0
H333 H 0.05267 0.49021 0.75124 0.0
H334 H 0.02354 0.45267 0.73271 0.0
H335 H 0.02663 0.4568 0.77642 0.0
C336 C 0.42491 0.97636 0.81609 0.0
C337 C 0.40595 0.99853 0.84053 0.0
C338 C 0.4779 0.98255 0.79804 0.0
C339 C 0.51379 1.01091 0.8055 0.0
C340 C 0.49915 0.03076 0.83297 0.0
C341 C 0.44462 0.0247 0.84987 0.0
C342 C 0.49151 0.96084 0.76878 0.0
C343 C 0.53819 0.06004 0.84284 0.0
C344 C 0.6568 1.01445 0.75396 0.0
C345 C 0.63737 0.03477 0.72821 0.0
C346 C 0.61907 1.00875 0.78101 0.0
C347 C 0.5597 0.02252 0.78144 0.0
C348 C 0.54128 0.04451 0.75627 0.0
C349 C 0.58092 0.05084 0.73021 0.0
C350 C 0.64158 0.98656 0.8081 0.0
C351 C 0.47796 0.05933 0.75549 0.0
H352 H 0.39524 0.95607 0.80878 0.0
H353 H 0.43047 0.04166 0.86906 0.0
H354 H 0.48406 0.97541 0.74615 0.0
H355 H 0.5398 0.95274 0.76891 0.0
H356 H 0.46209 0.93832 0.76788 0.0
H357 H 0.5294 0.06762 0.86848 0.0
H358 H 0.58733 0.05409 0.84001 0.0
H359 H 0.52785 0.08161 0.8269 0.0
H360 H 0.70089 1.00229 0.75252 0.0
H361 H 0.56587 0.06641 0.7102 0.0
H362 H 0.62351 0.96098 0.80457 0.0
H363 H 0.62555 0.99566 0.83219 0.0
H364 H 0.69215 0.98507 0.80839 0.0
H365 H 0.44377 0.03905 0.75328 0.0
H366 H 0.47164 0.07682 0.73481 0.0
H367 H 0.46838 0.0729 0.7785 0.0
C368 C 0.06181 0.55101 0.43957 0.0
C369 C 0.11376 0.53072 0.44059 0.0
C370 C 0.01512 0.54743 0.46273 0.0
C371 C 0.02174 0.52382 0.48812 0.0
C372 C 0.07538 0.50425 0.48995 0.0
C373 C 0.12023 0.50747 0.46576 0.0
C374 C 0.95791 0.56809 0.45943 0.0
C375 C 0.08523 0.47973 0.51732 0.0
C376 C 0.92608 0.53631 0.56423 0.0
C377 C 0.88216 0.51111 0.56102 0.0
C378 C 0.97198 0.54052 0.54084 0.0
C379 C 0.97281 0.51974 0.51294 0.0
C380 C 0.92764 0.49474 0.50913 0.0
C381 C 0.88343 0.49029 0.53359 0.0
C382 C 0.02045 0.56666 0.54641 0.0
C383 C 0.926 0.47276 0.47922 0.0
H384 H 0.05638 0.56858 0.41973 0.0
H385 H 0.16045 0.49176 0.46646 0.0
H386 H 0.91781 0.55142 0.45687 0.0
H387 H 0.95069 0.58333 0.48169 0.0
H388 H 0.95958 0.585 0.43804 0.0
H389 H 0.13107 0.46798 0.51632 0.0
H390 H 0.07996 0.49247 0.5412 0.0
H391 H 0.05034 0.45977 0.51616 0.0
H392 H 0.92572 0.55216 0.58569 0.0
H393 H 0.8494 0.47087 0.53107 0.0
H394 H 0.02031 0.58494 0.52618 0.0
H395 H 0.06612 0.55474 0.5467 0.0
H396 H 0.01387 0.58035 0.56972 0.0
H397 H 0.92488 0.48837 0.45693 0.0
H398 H 0.88584 0.45591 0.47905 0.0
H399 H 0.96792 0.45734 0.478 0.0
C400 C 0.42766 0.98137 0.44069 0.0
C401 C 0.37436 1.00064 0.44046 0.0
C402 C 0.47231 0.98614 0.46474 0.0
C403 C 0.46248 1.01004 0.48969 0.0
C404 C 0.40755 0.02859 0.4903 0.0
C405 C 0.36457 0.02405 0.46536 0.0
C406 C 0.53081 0.96636 0.46288 0.0
C407 C 0.39444 0.05345 0.51711 0.0
C408 C 0.55507 0.99929 0.56693 0.0
C409 C 0.5994 0.02427 0.56369 0.0
C410 C 0.50958 0.9949 0.54337 0.0
C411 C 0.50942 1.01533 0.51535 0.0
C412 C 0.55428 0.04053 0.51181 0.0
C413 C 0.59826 0.04508 0.53636 0.0
C414 C 0.4615 0.96849 0.5486 0.0
C415 C 0.55636 0.06228 0.48186 0.0
H416 H 0.43576 0.96363 0.42117 0.0
H417 H 0.32334 0.03897 0.4652 0.0
H418 H 0.5702 0.98361 0.46104 0.0
H419 H 0.53699 0.95156 0.48543 0.0
H420 H 0.53174 0.94911 0.44166 0.0
H421 H 0.34818 0.06451 0.515 0.0
H422 H 0.39847 0.04122 0.54125 0.0
H423 H 0.42846 0.07387 0.51643 0.0
H424 H 0.55531 0.98345 0.5883 0.0
H425 H 0.6326 0.06433 0.53381 0.0
H426 H 0.46414 0.94949 0.52897 0.0
H427 H 0.41543 0.97986 0.54742 0.0
H428 H 0.46652 0.95572 0.57245 0.0
H429 H 0.5609 0.04649 0.45974 0.0
H430 H 0.59486 0.08025 0.48251 0.0
H431 H 0.51317 0.07646 0.47952 0.0
C432 C 0.60797 0.49355 0.03482 0.0
C433 C 0.60894 0.51424 0.06235 0.0
C434 C 0.56357 0.49789 0.01048 0.0
C435 C 0.51798 0.52267 0.01448 0.0
C436 C 0.51847 0.54329 0.04249 0.0
C437 C 0.5645 0.53918 0.06579 0.0
C438 C 0.56548 0.47605 0.98048 0.0
C439 C 0.46957 0.56919 0.04824 0.0
C440 C 0.42878 0.55366 0.94111 0.0
C441 C 0.37722 0.5331 0.94205 0.0
C442 C 0.47531 0.55034 0.96437 0.0
C443 C 0.46898 0.52667 0.98973 0.0
C444 C 0.41566 0.50687 0.99153 0.0
C445 C 0.37093 0.50989 0.96729 0.0
C446 C 0.53215 0.57129 0.96115 0.0
C447 C 0.40614 0.48225 0.01884 0.0
H448 H 0.64239 0.47434 0.03212 0.0
H449 H 0.56463 0.55492 0.08731 0.0
H450 H 0.52372 0.46054 0.97921 0.0
H451 H 0.56646 0.49176 0.95825 0.0
H452 H 0.60582 0.45929 0.98021 0.0
H453 H 0.47595 0.5828 0.0716 0.0
H454 H 0.46938 0.58757 0.02809 0.0
H455 H 0.42411 0.55708 0.04853 0.0
H456 H 0.4341 0.57122 0.92126 0.0
H457 H 0.33101 0.49398 0.96796 0.0
H458 H 0.57251 0.55482 0.95838 0.0
H459 H 0.53917 0.58636 0.98352 0.0
H460 H 0.53011 0.58838 0.93991 0.0
H461 H 0.44128 0.4624 0.01758 0.0
H462 H 0.36045 0.47037 0.01786 0.0
H463 H 0.41127 0.49494 0.04276 0.0
C464 C 0.05621 0.03324 0.92007 0.0
C465 C 0.10014 1.00805 0.92343 0.0
C466 C 0.01078 0.03804 0.94363 0.0
C467 C 0.01028 0.01779 0.97178 0.0
C468 C 0.05476 0.99238 0.97546 0.0
C469 C 0.09869 0.98743 0.9509 0.0
C470 C 0.96311 0.06467 0.93826 0.0
C471 C 0.05646 0.97081 0.00553 0.0
C472 C 0.92849 0.05265 0.04615 0.0
C473 C 0.87491 0.03367 0.04642 0.0
C474 C 0.97328 0.04748 0.0222 0.0
C475 C 0.9633 0.02346 0.99739 0.0
C476 C 0.90809 1.0052 0.99682 0.0
C477 C 0.86498 1.01014 0.02166 0.0
C478 C 0.03205 0.06697 0.024 0.0
C479 C 0.89482 0.98022 0.97015 0.0
H480 H 0.05669 0.04894 0.8986 0.0
H481 H 0.13272 0.96801 0.95354 0.0
H482 H 0.91688 0.05354 0.93947 0.0
H483 H 0.96593 0.08375 0.95781 0.0
H484 H 0.96842 0.0773 0.91436 0.0
H485 H 0.09474 0.95267 0.00499 0.0
H486 H 0.06113 0.98673 0.02756 0.0
H487 H 0.01309 0.95685 0.00795 0.0
H488 H 0.9367 0.07047 0.06557 0.0
H489 H 0.82353 0.99543 0.02186 0.0
H490 H 0.03859 0.0816 0.00138 0.0
H491 H 0.07117 0.04953 0.02599 0.0
H492 H 0.03309 0.08434 0.04513 0.0
H493 H 0.89914 0.99227 0.94594 0.0
H494 H 0.8484 0.96939 0.97229 0.0
H495 H 0.92857 0.95965 0.97099 0.0
C496 C 0.25989 0.69089 0.36773 0.0
C497 C 0.20556 0.67933 0.35358 0.0
C498 C 0.27207 0.7252 0.37057 0.0
C499 C 0.22892 0.74863 0.35901 0.0
C500 C 0.1742 0.73715 0.34453 0.0
C501 C 0.16319 0.7027 0.34199 0.0
C502 C 0.33092 0.73639 0.38618 0.0
C503 C 0.12697 0.76129 0.33192 0.0
C504 C 0.22794 0.83671 0.39378 0.0
C505 C 0.25664 0.85498 0.36899 0.0
C506 C 0.21959 0.80209 0.39106 0.0
C507 C 0.24018 0.78517 0.36279 0.0
C508 C 0.27014 0.80332 0.3379 0.0
C509 C 0.27814 0.83798 0.34132 0.0
C510 C 0.18778 0.78368 0.41826 0.0
C511 C 0.29272 0.78623 0.30737 0.0
H512 H 0.29303 0.6731 0.37671 0.0
H513 H 0.12114 0.6941 0.33099 0.0
H514 H 0.35675 0.75251 0.36913 0.0
H515 H 0.32095 0.75152 0.40823 0.0
H516 H 0.36033 0.71506 0.39331 0.0
H517 H 0.0874 0.74838 0.32069 0.0
H518 H 0.11019 0.77723 0.35217 0.0
H519 H 0.14769 0.77803 0.31351 0.0
H520 H 0.21133 0.84953 0.41531 0.0
H521 H 0.30027 0.85183 0.32201 0.0
H522 H 0.21708 0.76311 0.42725 0.0
H523 H 0.1451 0.77228 0.409 0.0
H524 H 0.17628 0.80027 0.43911 0.0
H525 H 0.32418 0.76561 0.3138 0.0
H526 H 0.31679 0.80365 0.29076 0.0
H527 H 0.25372 0.77504 0.29407 0.0
C528 C 0.77663 0.19695 0.14568 0.0
C529 C 0.75669 0.18019 0.11758 0.0
C530 C 0.76788 0.23152 0.1494 0.0
C531 C 0.73879 0.24986 0.12435 0.0
C532 C 0.71989 0.2332 0.09562 0.0
C533 C 0.72893 0.19864 0.09262 0.0
C534 C 0.78866 0.24833 0.18042 0.0
C535 C 0.68909 0.25181 0.06823 0.0
C536 C 0.65968 0.33156 0.14608 0.0
C537 C 0.70232 0.35535 0.13568 0.0
C538 C 0.67108 0.29722 0.14263 0.0
C539 C 0.72656 0.28627 0.1285 0.0
C540 C 0.76982 0.31013 0.11796 0.0
C541 C 0.75718 0.34432 0.12163 0.0
C542 C 0.62364 0.27263 0.15409 0.0
C543 C 0.82949 0.29951 0.10278 0.0
H544 H 0.79802 0.18296 0.16513 0.0
H545 H 0.71355 0.186 0.07074 0.0
H546 H 0.81993 0.26923 0.17466 0.0
H547 H 0.7488 0.25908 0.19338 0.0
H548 H 0.81237 0.23082 0.19709 0.0
H549 H 0.6791 0.23546 0.04701 0.0
H550 H 0.64566 0.2628 0.07705 0.0
H551 H 0.71833 0.2727 0.05996 0.0
H552 H 0.61718 0.33975 0.15695 0.0
H553 H 0.79055 0.36243 0.11357 0.0
H554 H 0.64359 0.25578 0.17265 0.0
H555 H 0.60853 0.25684 0.13338 0.0
H556 H 0.58307 0.28513 0.16479 0.0
H557 H 0.85517 0.28347 0.11996 0.0
H558 H 0.85854 0.32112 0.09609 0.0
H559 H 0.82074 0.28447 0.08054 0.0
C560 C 0.7533 0.19096 0.63883 0.0
C561 C 0.69363 0.17898 0.63471 0.0
C562 C 0.76533 0.22532 0.6411 0.0
C563 C 0.71663 0.24842 0.63906 0.0
C564 C 0.65646 0.23655 0.63433 0.0
C565 C 0.64568 0.20203 0.63228 0.0
C566 C 0.83009 0.23689 0.64627 0.0
C567 C 0.60328 0.26032 0.63188 0.0
C568 C 0.73496 0.33425 0.67772 0.0
C569 C 0.74774 0.35437 0.65062 0.0
C570 C 0.72548 0.29977 0.67432 0.0
C571 C 0.72831 0.28492 0.643 0.0
C572 C 0.74168 0.305 0.61555 0.0
C573 C 0.75149 0.33944 0.61969 0.0
C574 C 0.71196 0.27925 0.70427 0.0
C575 C 0.74479 0.29018 0.58173 0.0
H576 H 0.79074 0.17343 0.64074 0.0
H577 H 0.59946 0.19311 0.62902 0.0
H578 H 0.8434 0.25462 0.62683 0.0
H579 H 0.83363 0.25038 0.66984 0.0
H580 H 0.86307 0.21586 0.64638 0.0
H581 H 0.55963 0.24723 0.62694 0.0
H582 H 0.59857 0.27458 0.65496 0.0
H583 H 0.61149 0.27865 0.61215 0.0
H584 H 0.73216 0.34547 0.70173 0.0
H585 H 0.76112 0.35475 0.59859 0.0
H586 H 0.74583 0.25884 0.70659 0.0
H587 H 0.66641 0.26749 0.70196 0.0
H588 H 0.71276 0.29441 0.72696 0.0
H589 H 0.77941 0.27002 0.58093 0.0
H590 H 0.75643 0.30906 0.56296 0.0
H591 H 0.70028 0.2788 0.57535 0.0
C592 C 0.3432 0.70259 0.86471 0.0
C593 C 0.295 0.67963 0.8632 0.0
C594 C 0.3321 0.7371 0.86655 0.0
C595 C 0.27132 0.74906 0.86702 0.0
C596 C 0.22247 0.72604 0.86544 0.0
C597 C 0.23487 0.69168 0.86349 0.0
C598 C 0.3855 0.76078 0.86805 0.0
C599 C 0.15703 0.73771 0.86599 0.0
C600 C 0.24377 0.83593 0.902 0.0
C601 C 0.23849 0.85532 0.87372 0.0
C602 C 0.25364 0.80131 0.90018 0.0
C603 C 0.25892 0.78564 0.86932 0.0
C604 C 0.25312 0.80502 0.84067 0.0
C605 C 0.24273 0.83954 0.8432 0.0
C606 C 0.25895 0.78154 0.93131 0.0
C607 C 0.25877 0.78935 0.8073 0.0
H608 H 0.3898 0.69362 0.86447 0.0
H609 H 0.19724 0.67422 0.86237 0.0
H610 H 0.38325 0.77862 0.84746 0.0
H611 H 0.3835 0.7756 0.89089 0.0
H612 H 0.42999 0.74757 0.86706 0.0
H613 H 0.12422 0.71667 0.86453 0.0
H614 H 0.14801 0.75195 0.88871 0.0
H615 H 0.14848 0.7548 0.84527 0.0
H616 H 0.24037 0.84781 0.92569 0.0
H617 H 0.23892 0.85427 0.82119 0.0
H618 H 0.3046 0.76972 0.93272 0.0
H619 H 0.22472 0.76118 0.93152 0.0
H620 H 0.25217 0.79726 0.95335 0.0
H621 H 0.30441 0.77773 0.80456 0.0
H622 H 0.25236 0.80775 0.78741 0.0
H623 H 0.22449 0.76924 0.80441 0.0
loop_
_geom_bond_atom_site_label_1
_geom_bond_atom_site_label_2
_geom_bond_distance
_geom_bond_site_symmetry_2
_ccdc_geom_bond_type
Zn0 O3 2.031 . S
Zn0 O5 2.049 . S
Zn0 O10 2.067 . S
Zn1 O2 1.962 . S
Zn1 O4 1.986 . S
Zn1 O6 1.996 . S
Zn1 O9 1.943 . S
O2 Zn1 1.962 . S
O2 C7 1.254 . S
O3 Zn0 2.031 . S
O3 C7 1.269 . S
O4 Zn1 1.986 . S
O4 C11 1.262 . S
O5 Zn0 2.049 . S
O5 C13 1.260 . S
O6 Zn1 1.996 . S
O6 C13 1.257 . S
C7 O2 1.254 . S
C7 O3 1.269 . S
C8 O9 1.249 . S
C8 O10 1.270 . S
O9 Zn1 1.943 . S
O9 C8 1.249 . S
O10 Zn0 2.067 . S
O10 C8 1.270 . S
C11 O4 1.262 . S
C11 O12 1.232 . S
O12 C11 1.232 . S
C13 O5 1.260 . S
C13 O6 1.257 . S
Zn14 O17 2.031 1_545 S
Zn14 O19 2.049 . S
Zn14 O24 2.067 1_545 S
Zn15 O16 1.962 . S
Zn15 O18 1.986 . S
Zn15 O20 1.996 . S
Zn15 O23 1.943 . S
O16 Zn15 1.962 . S
O16 C21 1.254 . S
O17 Zn14 2.031 1_565 S
O17 C21 1.269 . S
O18 Zn15 1.986 . S
O18 C25 1.262 . S
O19 Zn14 2.049 . S
O19 C27 1.260 1_545 S
O20 Zn15 1.996 . S
O20 C27 1.257 . S
C21 O16 1.254 . S
C21 O17 1.269 . S
C22 O23 1.249 . S
C22 O24 1.270 . S
O23 Zn15 1.943 . S
O23 C22 1.249 . S
O24 Zn14 2.067 1_565 S
O24 C22 1.270 . S
C25 O18 1.262 . S
C25 O26 1.232 . S
O26 C25 1.232 . S
C27 O19 1.260 1_565 S
C27 O20 1.257 . S
Zn28 O31 2.031 . S
Zn28 O33 2.049 . S
Zn28 O38 2.067 . S
Zn29 O30 1.962 . S
Zn29 O32 1.986 . S
Zn29 O34 1.996 . S
Zn29 O37 1.943 . S
O30 Zn29 1.962 . S
O30 C35 1.254 . S
O31 Zn28 2.031 . S
O31 C35 1.269 . S
O32 Zn29 1.986 . S
O32 C39 1.262 . S
O33 Zn28 2.049 . S
O33 C41 1.260 . S
O34 Zn29 1.996 . S
O34 C41 1.257 . S
C35 O30 1.254 . S
C35 O31 1.269 . S
C36 O37 1.249 . S
C36 O38 1.270 . S
O37 Zn29 1.943 . S
O37 C36 1.249 . S
O38 Zn28 2.067 . S
O38 C36 1.270 . S
C39 O32 1.262 . S
C39 O40 1.232 . S
O40 C39 1.232 . S
C41 O33 1.260 . S
C41 O34 1.257 . S
Zn42 O45 2.031 1_565 S
Zn42 O47 2.049 . S
Zn42 O52 2.067 1_565 S
Zn43 O44 1.962 . S
Zn43 O46 1.986 . S
Zn43 O48 1.996 . S
Zn43 O51 1.943 . S
O44 Zn43 1.962 . S
O44 C49 1.254 . S
O45 Zn42 2.031 1_545 S
O45 C49 1.269 . S
O46 Zn43 1.986 . S
O46 C53 1.262 . S
O47 Zn42 2.049 . S
O47 C55 1.260 1_565 S
O48 Zn43 1.996 . S
O48 C55 1.257 . S
C49 O44 1.254 . S
C49 O45 1.269 . S
C50 O51 1.249 . S
C50 O52 1.270 . S
O51 Zn43 1.943 . S
O51 C50 1.249 . S
O52 Zn42 2.067 1_545 S
O52 C50 1.270 . S
C53 O46 1.262 . S
C53 O54 1.232 . S
O54 C53 1.232 . S
C55 O47 1.260 1_545 S
C55 O48 1.257 . S
Zn56 O59 2.031 . S
Zn56 O61 2.049 . S
Zn56 O66 2.067 . S
Zn57 O58 1.962 . S
Zn57 O60 1.986 . S
Zn57 O62 1.996 . S
Zn57 O65 1.943 . S
O58 Zn57 1.962 . S
O58 C63 1.254 . S
O59 Zn56 2.031 . S
O59 C63 1.269 . S
O60 Zn57 1.986 . S
O60 C67 1.262 . S
O61 Zn56 2.049 . S
O61 C69 1.260 . S
O62 Zn57 1.996 . S
O62 C69 1.257 . S
C63 O58 1.254 . S
C63 O59 1.269 . S
C64 O65 1.249 . S
C64 O66 1.270 . S
O65 Zn57 1.943 . S
O65 C64 1.249 . S
O66 Zn56 2.067 . S
O66 C64 1.270 . S
C67 O60 1.262 . S
C67 O68 1.232 . S
O68 C67 1.232 . S
C69 O61 1.260 . S
C69 O62 1.257 . S
Zn70 O73 2.031 1_565 S
Zn70 O75 2.049 . S
Zn70 O80 2.067 1_565 S
Zn71 O72 1.962 . S
Zn71 O74 1.986 . S
Zn71 O76 1.996 . S
Zn71 O79 1.943 . S
O72 Zn71 1.962 . S
O72 C77 1.254 . S
O73 Zn70 2.031 1_545 S
O73 C77 1.269 . S
O74 Zn71 1.986 . S
O74 C81 1.262 . S
O75 Zn70 2.049 . S
O75 C83 1.260 1_565 S
O76 Zn71 1.996 . S
O76 C83 1.257 . S
C77 O72 1.254 . S
C77 O73 1.269 . S
C78 O79 1.249 . S
C78 O80 1.270 . S
O79 Zn71 1.943 . S
O79 C78 1.249 . S
O80 Zn70 2.067 1_545 S
O80 C78 1.270 . S
C81 O74 1.262 . S
C81 O82 1.232 . S
O82 C81 1.232 . S
C83 O75 1.260 1_545 S
C83 O76 1.257 . S
Zn84 O87 2.031 . S
Zn84 O89 2.049 . S
Zn84 O94 2.067 . S
Zn85 O86 1.962 . S
Zn85 O88 1.986 . S
Zn85 O90 1.996 . S
Zn85 O93 1.943 . S
O86 Zn85 1.962 . S
O86 C91 1.254 . S
O87 Zn84 2.031 . S
O87 C91 1.269 . S
O88 Zn85 1.986 . S
O88 C95 1.262 . S
O89 Zn84 2.049 . S
O89 C97 1.260 . S
O90 Zn85 1.996 . S
O90 C97 1.257 . S
C91 O86 1.254 . S
C91 O87 1.269 . S
C92 O93 1.249 . S
C92 O94 1.270 . S
O93 Zn85 1.943 . S
O93 C92 1.249 . S
O94 Zn84 2.067 . S
O94 C92 1.270 . S
C95 O88 1.262 . S
C95 O96 1.232 . S
O96 C95 1.232 . S
C97 O89 1.260 . S
C97 O90 1.257 . S
Zn98 O101 2.031 1_545 S
Zn98 O103 2.049 . S
Zn98 O108 2.067 1_545 S
Zn99 O100 1.962 . S
Zn99 O102 1.986 . S
Zn99 O104 1.996 . S
Zn99 O107 1.943 . S
O100 Zn99 1.962 . S
O100 C105 1.254 . S
O101 Zn98 2.031 1_565 S
O101 C105 1.269 . S
O102 Zn99 1.986 . S
O102 C109 1.262 . S
O103 Zn98 2.049 . S
O103 C111 1.260 1_545 S
O104 Zn99 1.996 . S
O104 C111 1.257 . S
C105 O100 1.254 . S
C105 O101 1.269 . S
C106 O107 1.249 . S
C106 O108 1.270 . S
O107 Zn99 1.943 . S
O107 C106 1.249 . S
O108 Zn98 2.067 1_565 S
O108 C106 1.270 . S
C109 O102 1.262 . S
C109 O110 1.232 . S
O110 C109 1.232 . S
C111 O103 1.260 1_565 S
C111 O104 1.257 . S
C112 C113 1.391 . S
C112 C114 1.394 . S
C112 H128 0.931 . S
C113 C112 1.391 . S
C113 C117 1.376 . S
C114 C112 1.394 . S
C114 C115 1.369 . S
C114 C118 1.531 . S
C115 C114 1.369 . S
C115 C116 1.410 . S
C115 C123 1.503 . S
C116 C115 1.410 . S
C116 C117 1.392 . S
C116 C119 1.511 . S
C117 C113 1.376 . S
C117 C116 1.392 . S
C117 H129 0.929 . S
C118 C114 1.531 . S
C118 H130 0.960 . S
C118 H131 0.962 . S
C118 H132 0.960 . S
C119 C116 1.511 . S
C119 H133 0.961 . S
C119 H134 0.961 . S
C119 H135 0.961 . S
C120 C121 1.370 . S
C120 C122 1.363 . S
C120 H136 0.931 . S
C121 C120 1.370 . S
C121 C125 1.408 . S
C122 C120 1.363 . S
C122 C123 1.370 . S
C122 C126 1.524 . S
C123 C115 1.503 . S
C123 C122 1.370 . S
C123 C124 1.403 . S
C124 C123 1.403 . S
C124 C125 1.404 . S
C124 C127 1.539 . S
C125 C121 1.408 . S
C125 C124 1.404 . S
C125 H137 0.930 . S
C126 C122 1.524 . S
C126 H138 0.956 . S
C126 H139 0.961 . S
C126 H140 0.961 . S
C127 C124 1.539 . S
C127 H141 0.958 . S
C127 H142 0.961 . S
C127 H143 0.960 . S
H128 C112 0.931 . S
H129 C117 0.929 . S
H130 C118 0.960 . S
H131 C118 0.962 . S
H132 C118 0.960 . S
H133 C119 0.961 . S
H134 C119 0.961 . S
H135 C119 0.961 . S
H136 C120 0.931 . S
H137 C125 0.930 . S
H138 C126 0.956 . S
H139 C126 0.961 . S
H140 C126 0.961 . S
H141 C127 0.958 . S
H142 C127 0.961 . S
H143 C127 0.960 . S
C144 C145 1.391 . S
C144 C146 1.386 1_645 S
C144 H160 0.931 . S
C145 C144 1.391 . S
C145 C149 1.376 1_655 S
C146 C144 1.386 1_465 S
C146 C147 1.363 1_565 S
C146 C150 1.544 1_455 S
C147 C146 1.363 1_545 S
C147 C148 1.410 . S
C147 C155 1.503 1_545 S
C148 C147 1.410 . S
C148 C149 1.392 . S
C148 C151 1.511 . S
C149 C145 1.376 1_455 S
C149 C148 1.392 . S
C149 H161 0.929 . S
C150 C146 1.544 1_655 S
C150 H162 0.960 1_655 S
C150 H163 0.962 . S
C150 H164 0.960 . S
C151 C148 1.511 . S
C151 H165 0.961 . S
C151 H166 0.961 . S
C151 H167 0.961 . S
C152 C153 1.343 1_545 S
C152 C154 1.376 . S
C152 H168 0.947 . S
C153 C152 1.343 1_565 S
C153 C157 1.408 . S
C154 C152 1.376 . S
C154 C155 1.370 1_545 S
C154 C158 1.524 . S
C155 C147 1.503 1_565 S
C155 C154 1.370 1_565 S
C155 C156 1.403 . S
C156 C155 1.403 . S
C156 C157 1.404 . S
C156 C159 1.539 . S
C157 C153 1.408 . S
C157 C156 1.404 . S
C157 H169 0.930 . S
C158 C154 1.524 . S
C158 H170 0.956 . S
C158 H171 0.961 . S
C158 H172 0.961 . S
C159 C156 1.539 . S
C159 H173 0.958 . S
C159 H174 0.961 . S
C159 H175 0.960 . S
H160 C144 0.931 . S
H161 C149 0.929 . S
H162 C150 0.960 1_455 S
H163 C150 0.962 . S
H164 C150 0.960 . S
H165 C151 0.961 . S
H166 C151 0.961 . S
H167 C151 0.961 . S
H168 C152 0.947 . S
H169 C157 0.930 . S
H170 C158 0.956 . S
H171 C158 0.961 . S
H172 C158 0.961 . S
H173 C159 0.958 . S
H174 C159 0.961 . S
H175 C159 0.960 . S
C176 C177 1.391 . S
C176 C178 1.394 . S
C176 H192 0.931 . S
C177 C176 1.391 . S
C177 C181 1.376 . S
C178 C176 1.394 . S
C178 C179 1.369 . S
C178 C182 1.531 . S
C179 C178 1.369 . S
C179 C180 1.410 . S
C179 C187 1.503 . S
C180 C179 1.410 . S
C180 C181 1.392 . S
C180 C183 1.511 . S
C181 C177 1.376 . S
C181 C180 1.392 . S
C181 H193 0.929 . S
C182 C178 1.531 . S
C182 H194 0.960 . S
C182 H195 0.962 . S
C182 H196 0.960 . S
C183 C180 1.511 . S
C183 H197 0.961 . S
C183 H198 0.961 . S
C183 H199 0.961 . S
C184 C185 1.370 1_655 S
C184 C186 1.363 . S
C184 H200 0.931 . S
C185 C184 1.370 1_455 S
C185 C189 1.408 . S
C186 C184 1.363 . S
C186 C187 1.370 . S
C186 C190 1.524 . S
C187 C179 1.503 . S
C187 C186 1.370 . S
C187 C188 1.403 . S
C188 C187 1.403 . S
C188 C189 1.404 1_655 S
C188 C191 1.539 . S
C189 C185 1.408 . S
C189 C188 1.404 1_455 S
C189 H201 0.930 . S
C190 C186 1.524 . S
C190 H202 0.956 . S
C190 H203 0.961 . S
C190 H204 0.961 . S
C191 C188 1.539 . S
C191 H205 0.958 . S
C191 H206 0.961 . S
C191 H207 0.960 . S
H192 C176 0.931 . S
H193 C181 0.929 . S
H194 C182 0.960 . S
H195 C182 0.962 . S
H196 C182 0.960 . S
H197 C183 0.961 . S
H198 C183 0.961 . S
H199 C183 0.961 . S
H200 C184 0.931 . S
H201 C189 0.930 . S
H202 C190 0.956 . S
H203 C190 0.961 . S
H204 C190 0.961 . S
H205 C191 0.958 . S
H206 C191 0.961 . S
H207 C191 0.960 . S
C208 C209 1.391 . S
C208 C210 1.394 1_545 S
C208 H224 0.928 1_545 S
C209 C208 1.391 . S
C209 C213 1.376 . S
C210 C208 1.394 1_565 S
C210 C211 1.369 . S
C210 C214 1.531 . S
C211 C210 1.369 . S
C211 C212 1.410 1_565 S
C211 C219 1.503 . S
C212 C211 1.410 1_545 S
C212 C213 1.392 . S
C212 C215 1.511 . S
C213 C209 1.376 . S
C213 C212 1.392 . S
C213 H225 0.929 . S
C214 C210 1.531 . S
C214 H226 0.960 . S
C214 H227 0.962 . S
C214 H228 0.960 . S
C215 C212 1.511 . S
C215 H229 0.961 . S
C215 H230 0.961 . S
C215 H231 0.961 1_545 S
C216 C217 1.370 . S
C216 C218 1.363 . S
C216 H232 0.917 1_565 S
C217 C216 1.370 . S
C217 C221 1.408 . S
C218 C216 1.363 . S
C218 C219 1.370 . S
C218 C222 1.524 1_565 S
C219 C211 1.503 . S
C219 C218 1.370 . S
C219 C220 1.403 . S
C220 C219 1.403 . S
C220 C221 1.404 . S
C220 C223 1.539 . S
C221 C217 1.408 . S
C221 C220 1.404 . S
C221 H233 0.930 . S
C222 C218 1.524 1_545 S
C222 H234 0.956 . S
C222 H235 0.961 . S
C222 H236 0.961 . S
C223 C220 1.539 . S
C223 H237 0.958 . S
C223 H238 0.961 . S
C223 H239 0.960 . S
H224 C208 0.928 1_565 S
H225 C213 0.929 . S
H226 C214 0.960 . S
H227 C214 0.962 . S
H228 C214 0.960 . S
H229 C215 0.961 . S
H230 C215 0.961 . S
H231 C215 0.961 1_565 S
H232 C216 0.917 1_545 S
H233 C221 0.930 . S
H234 C222 0.956 . S
H235 C222 0.961 . S
H236 C222 0.961 . S
H237 C223 0.958 . S
H238 C223 0.961 . S
H239 C223 0.960 . S
C240 C241 1.391 . S
C240 C242 1.394 . S
C240 H256 0.931 . S
C241 C240 1.391 . S
C241 C245 1.376 . S
C242 C240 1.394 . S
C242 C243 1.369 . S
C242 C246 1.531 . S
C243 C242 1.369 . S
C243 C244 1.410 . S
C243 C251 1.503 . S
C244 C243 1.410 . S
C244 C245 1.392 . S
C244 C247 1.511 . S
C245 C241 1.376 . S
C245 C244 1.392 . S
C245 H257 0.929 . S
C246 C242 1.531 . S
C246 H258 0.960 . S
C246 H259 0.962 . S
C246 H260 0.960 . S
C247 C244 1.511 . S
C247 H261 0.961 . S
C247 H262 0.961 . S
C247 H263 0.961 . S
C248 C249 1.370 . S
C248 C250 1.363 . S
C248 H264 0.931 . S
C249 C248 1.370 . S
C249 C253 1.408 . S
C250 C248 1.363 . S
C250 C251 1.370 . S
C250 C254 1.524 . S
C251 C243 1.503 . S
C251 C250 1.370 . S
C251 C252 1.403 . S
C252 C251 1.403 . S
C252 C253 1.404 . S
C252 C255 1.539 . S
C253 C249 1.408 . S
C253 C252 1.404 . S
C253 H265 0.930 . S
C254 C250 1.524 . S
C254 H266 0.956 . S
C254 H267 0.961 . S
C254 H268 0.961 . S
C255 C252 1.539 . S
C255 H269 0.958 . S
C255 H270 0.961 . S
C255 H271 0.960 . S
H256 C240 0.931 . S
H257 C245 0.929 . S
H258 C246 0.960 . S
H259 C246 0.962 . S
H260 C246 0.960 . S
H261 C247 0.961 . S
H262 C247 0.961 . S
H263 C247 0.961 . S
H264 C248 0.931 . S
H265 C253 0.930 . S
H266 C254 0.956 . S
H267 C254 0.961 . S
H268 C254 0.961 . S
H269 C255 0.958 . S
H270 C255 0.961 . S
H271 C255 0.960 . S
C272 C273 1.391 . S
C272 C274 1.394 . S
C272 H288 0.931 . S
C273 C272 1.391 . S
C273 C277 1.376 . S
C274 C272 1.394 . S
C274 C275 1.369 . S
C274 C278 1.531 . S
C275 C274 1.369 . S
C275 C276 1.410 1_545 S
C275 C283 1.503 1_545 S
C276 C275 1.410 1_565 S
C276 C277 1.392 1_565 S
C276 C279 1.511 . S
C277 C273 1.376 . S
C277 C276 1.392 1_545 S
C277 H289 0.929 1_545 S
C278 C274 1.531 . S
C278 H290 0.960 . S
C278 H291 0.962 . S
C278 H292 0.960 . S
C279 C276 1.511 . S
C279 H293 0.961 . S
C279 H294 0.961 . S
C279 H295 0.961 . S
C280 C281 1.370 . S
C280 C282 1.363 1_455 S
C280 H296 0.931 . S
C281 C280 1.370 . S
C281 C285 1.408 1_455 S
C282 C280 1.363 1_655 S
C282 C283 1.370 . S
C282 C286 1.524 . S
C283 C275 1.503 1_565 S
C283 C282 1.370 . S
C283 C284 1.403 1_565 S
C284 C283 1.403 1_545 S
C284 C285 1.404 1_545 S
C284 C287 1.539 . S
C285 C281 1.408 1_655 S
C285 C284 1.404 1_565 S
C285 H297 0.926 1_655 S
C286 C282 1.524 . S
C286 H298 0.956 . S
C286 H299 0.961 . S
C286 H300 0.961 . S
C287 C284 1.539 . S
C287 H301 0.958 . S
C287 H302 0.961 . S
C287 H303 0.960 . S
H288 C272 0.931 . S
H289 C277 0.929 1_565 S
H290 C278 0.960 . S
H291 C278 0.962 . S
H292 C278 0.960 . S
H293 C279 0.961 . S
H294 C279 0.961 . S
H295 C279 0.961 . S
H296 C280 0.931 . S
H297 C285 0.926 1_455 S
H298 C286 0.956 . S
H299 C286 0.961 . S
H300 C286 0.961 . S
H301 C287 0.958 . S
H302 C287 0.961 . S
H303 C287 0.960 . S
C304 C305 1.391 . S
C304 C306 1.394 . S
C304 H320 0.931 . S
C305 C304 1.391 . S
C305 C309 1.376 . S
C306 C304 1.394 . S
C306 C307 1.369 . S
C306 C310 1.531 . S
C307 C306 1.369 . S
C307 C308 1.410 . S
C307 C315 1.503 . S
C308 C307 1.410 . S
C308 C309 1.392 . S
C308 C311 1.511 . S
C309 C305 1.376 . S
C309 C308 1.392 . S
C309 H321 0.929 . S
C310 C306 1.531 . S
C310 H322 0.960 . S
C310 H323 0.962 . S
C310 H324 0.960 . S
C311 C308 1.511 . S
C311 H325 0.961 . S
C311 H326 0.961 . S
C311 H327 0.961 . S
C312 C313 1.370 . S
C312 C314 1.363 1_655 S
C312 H328 0.931 . S
C313 C312 1.370 . S
C313 C317 1.408 1_655 S
C314 C312 1.363 1_455 S
C314 C315 1.370 . S
C314 C318 1.524 . S
C315 C307 1.503 . S
C315 C314 1.370 . S
C315 C316 1.403 . S
C316 C315 1.403 . S
C316 C317 1.404 . S
C316 C319 1.539 . S
C317 C313 1.408 1_455 S
C317 C316 1.404 . S
C317 H329 0.930 . S
C318 C314 1.524 . S
C318 H330 0.956 . S
C318 H331 0.961 . S
C318 H332 0.946 1_455 S
C319 C316 1.539 . S
C319 H333 0.958 . S
C319 H334 0.961 . S
C319 H335 0.960 . S
H320 C304 0.931 . S
H321 C309 0.929 . S
H322 C310 0.960 . S
H323 C310 0.962 . S
H324 C310 0.960 . S
H325 C311 0.961 . S
H326 C311 0.961 . S
H327 C311 0.961 . S
H328 C312 0.931 . S
H329 C317 0.930 . S
H330 C318 0.956 . S
H331 C318 0.961 . S
H332 C318 0.946 1_655 S
H333 C319 0.958 . S
H334 C319 0.961 . S
H335 C319 0.960 . S
C336 C337 1.391 . S
C336 C338 1.394 1_565 S
C336 H352 0.931 . S
C337 C336 1.391 . S
C337 C341 1.376 . S
C338 C336 1.394 1_545 S
C338 C339 1.369 . S
C338 C342 1.531 . S
C339 C338 1.369 . S
C339 C340 1.410 1_545 S
C339 C347 1.503 . S
C340 C339 1.410 1_565 S
C340 C341 1.392 . S
C340 C343 1.511 . S
C341 C337 1.376 . S
C341 C340 1.392 . S
C341 H353 0.929 . S
C342 C338 1.531 . S
C342 H354 0.960 . S
C342 H355 0.962 . S
C342 H356 0.960 . S
C343 C340 1.511 . S
C343 H357 0.961 . S
C343 H358 0.961 . S
C343 H359 0.961 1_565 S
C344 C345 1.370 . S
C344 C346 1.361 1_545 S
C344 H360 0.931 1_545 S
C345 C344 1.370 . S
C345 C349 1.408 . S
C346 C344 1.361 1_565 S
C346 C347 1.366 1_565 S
C346 C350 1.531 . S
C347 C339 1.503 . S
C347 C346 1.366 1_545 S
C347 C348 1.403 . S
C348 C347 1.403 . S
C348 C349 1.404 . S
C348 C351 1.539 . S
C349 C345 1.408 . S
C349 C348 1.404 . S
C349 H361 0.930 . S
C350 C346 1.531 . S
C350 H362 0.956 . S
C350 H363 0.961 . S
C350 H364 0.961 . S
C351 C348 1.539 . S
C351 H365 0.958 . S
C351 H366 0.961 . S
C351 H367 0.960 . S
H352 C336 0.931 . S
H353 C341 0.929 . S
H354 C342 0.960 . S
H355 C342 0.962 . S
H356 C342 0.960 . S
H357 C343 0.961 . S
H358 C343 0.961 . S
H359 C343 0.961 1_545 S
H360 C344 0.931 1_565 S
H361 C349 0.930 . S
H362 C350 0.956 . S
H363 C350 0.961 . S
H364 C350 0.961 . S
H365 C351 0.958 . S
H366 C351 0.961 . S
H367 C351 0.960 . S
C368 C369 1.391 . S
C368 C370 1.394 1_455 S
C368 H384 0.931 1_455 S
C369 C368 1.391 . S
C369 C373 1.376 . S
C370 C368 1.394 1_655 S
C370 C371 1.369 1_655 S
C370 C374 1.531 . S
C371 C370 1.369 1_455 S
C371 C372 1.410 . S
C371 C379 1.503 1_455 S
C372 C371 1.410 . S
C372 C373 1.392 . S
C372 C375 1.511 . S
C373 C369 1.376 . S
C373 C372 1.392 . S
C373 H385 0.929 . S
C374 C370 1.531 . S
C374 H386 0.960 . S
C374 H387 0.962 . S
C374 H388 0.960 . S
C375 C372 1.511 . S
C375 H389 0.961 . S
C375 H390 0.961 . S
C375 H391 0.961 . S
C376 C377 1.370 . S
C376 C378 1.363 . S
C376 H392 0.931 . S
C377 C376 1.370 . S
C377 C381 1.408 . S
C378 C376 1.363 . S
C378 C379 1.370 . S
C378 C382 1.532 . S
C379 C371 1.503 1_655 S
C379 C378 1.370 . S
C379 C380 1.403 . S
C380 C379 1.403 . S
C380 C381 1.404 . S
C380 C383 1.539 . S
C381 C377 1.408 . S
C381 C380 1.404 . S
C381 H393 0.930 . S
C382 C378 1.532 . S
C382 H394 0.965 . S
C382 H395 0.942 1_655 S
C382 H396 0.963 . S
C383 C380 1.539 . S
C383 H397 0.958 . S
C383 H398 0.961 . S
C383 H399 0.960 1_655 S
H384 C368 0.931 1_655 S
H385 C373 0.929 . S
H386 C374 0.960 . S
H387 C374 0.962 . S
H388 C374 0.960 . S
H389 C375 0.961 . S
H390 C375 0.961 . S
H391 C375 0.961 . S
H392 C376 0.931 . S
H393 C381 0.930 . S
H394 C382 0.965 . S
H395 C382 0.942 1_455 S
H396 C382 0.963 . S
H397 C383 0.958 . S
H398 C383 0.961 . S
H399 C383 0.960 1_455 S
C400 C401 1.391 . S
C400 C402 1.394 . S
C400 H416 0.931 . S
C401 C400 1.391 . S
C401 C405 1.376 . S
C402 C400 1.394 . S
C402 C403 1.365 1_565 S
C402 C406 1.531 . S
C403 C402 1.365 1_545 S
C403 C404 1.410 . S
C403 C411 1.506 . S
C404 C403 1.410 . S
C404 C405 1.392 1_545 S
C404 C407 1.511 . S
C405 C401 1.376 . S
C405 C404 1.392 1_565 S
C405 H417 0.929 . S
C406 C402 1.531 . S
C406 H418 0.960 1_565 S
C406 H419 0.962 . S
C406 H420 0.960 . S
C407 C404 1.511 . S
C407 H421 0.961 . S
C407 H422 0.961 . S
C407 H423 0.961 . S
C408 C409 1.362 1_565 S
C408 C410 1.366 . S
C408 H424 0.936 . S
C409 C408 1.362 1_545 S
C409 C413 1.408 . S
C410 C408 1.366 . S
C410 C411 1.370 1_565 S
C410 C414 1.524 . S
C411 C403 1.506 . S
C411 C410 1.370 1_545 S
C411 C412 1.403 . S
C412 C411 1.403 . S
C412 C413 1.404 . S
C412 C415 1.539 . S
C413 C409 1.408 . S
C413 C412 1.404 . S
C413 H425 0.930 . S
C414 C410 1.524 . S
C414 H426 0.956 . S
C414 H427 0.961 . S
C414 H428 0.961 . S
C415 C412 1.539 . S
C415 H429 0.958 . S
C415 H430 0.961 . S
C415 H431 0.960 . S
H416 C400 0.931 . S
H417 C405 0.929 . S
H418 C406 0.960 1_545 S
H419 C406 0.962 . S
H420 C406 0.960 . S
H421 C407 0.961 . S
H422 C407 0.961 . S
H423 C407 0.961 . S
H424 C408 0.936 . S
H425 C413 0.930 . S
H426 C414 0.956 . S
H427 C414 0.961 . S
H428 C414 0.961 . S
H429 C415 0.958 . S
H430 C415 0.961 . S
H431 C415 0.960 . S
C432 C433 1.391 . S
C432 C434 1.394 . S
C432 H448 0.931 . S
C433 C432 1.391 . S
C433 C437 1.376 . S
C434 C432 1.394 . S
C434 C435 1.369 . S
C434 C438 1.531 1_554 S
C435 C434 1.369 . S
C435 C436 1.410 . S
C435 C443 1.503 1_554 S
C436 C435 1.410 . S
C436 C437 1.392 . S
C436 C439 1.511 . S
C437 C433 1.376 . S
C437 C436 1.392 . S
C437 H449 0.929 . S
C438 C434 1.531 1_556 S
C438 H450 0.960 . S
C438 H451 0.962 . S
C438 H452 0.960 . S
C439 C436 1.511 . S
C439 H453 0.961 . S
C439 H454 0.961 . S
C439 H455 0.961 . S
C440 C441 1.370 . S
C440 C442 1.363 . S
C440 H456 0.931 . S
C441 C440 1.370 . S
C441 C445 1.408 . S
C442 C440 1.363 . S
C442 C443 1.370 . S
C442 C446 1.517 1_556 S
C443 C435 1.503 1_556 S
C443 C442 1.370 . S
C443 C444 1.403 . S
C444 C443 1.403 . S
C444 C445 1.404 . S
C444 C447 1.539 . S
C445 C441 1.408 . S
C445 C444 1.404 . S
C445 H457 0.930 . S
C446 C442 1.517 1_554 S
C446 H458 0.955 1_554 S
C446 H459 0.973 . S
C446 H460 0.957 1_554 S
C447 C444 1.539 . S
C447 H461 0.958 . S
C447 H462 0.961 . S
C447 H463 0.960 . S
H448 C432 0.931 . S
H449 C437 0.929 . S
H450 C438 0.960 . S
H451 C438 0.962 . S
H452 C438 0.960 . S
H453 C439 0.961 . S
H454 C439 0.961 . S
H455 C439 0.961 . S
H456 C440 0.931 . S
H457 C445 0.930 . S
H458 C446 0.955 1_556 S
H459 C446 0.973 . S
H460 C446 0.957 1_556 S
H461 C447 0.958 . S
H462 C447 0.961 . S
H463 C447 0.960 . S
C464 C465 1.359 1_545 S
C464 C466 1.405 . S
C464 H480 0.952 . S
C465 C464 1.359 1_565 S
C465 C469 1.376 . S
C466 C464 1.405 . S
C466 C467 1.369 1_545 S
C466 C470 1.531 1_455 S
C467 C466 1.369 1_565 S
C467 C468 1.410 . S
C467 C475 1.503 1_466 S
C468 C467 1.410 . S
C468 C469 1.392 . S
C468 C471 1.511 1_556 S
C469 C465 1.376 . S
C469 C468 1.392 . S
C469 H481 0.929 . S
C470 C466 1.531 1_655 S
C470 H482 0.960 . S
C470 H483 0.962 1_655 S
C470 H484 0.960 . S
C471 C468 1.511 1_554 S
C471 H485 0.961 . S
C471 H486 0.961 . S
C471 H487 0.961 1_455 S
C472 C473 1.370 . S
C472 C474 1.363 1_655 S
C472 H488 0.931 1_655 S
C473 C472 1.370 . S
C473 C477 1.408 . S
C474 C472 1.363 1_455 S
C474 C475 1.370 1_455 S
C474 C478 1.524 . S
C475 C467 1.503 1_644 S
C475 C474 1.370 1_655 S
C475 C476 1.403 . S
C476 C475 1.403 . S
C476 C477 1.404 . S
C476 C479 1.539 1_544 S
C477 C473 1.408 . S
C477 C476 1.404 . S
C477 H489 0.930 . S
C478 C474 1.524 . S
C478 H490 0.956 . S
C478 H491 0.961 1_545 S
C478 H492 0.961 . S
C479 C476 1.539 1_566 S
C479 H493 0.958 1_565 S
C479 H494 0.961 . S
C479 H495 0.960 . S
H480 C464 0.952 . S
H481 C469 0.929 . S
H482 C470 0.960 . S
H483 C470 0.962 1_455 S
H484 C470 0.960 . S
H485 C471 0.961 . S
H486 C471 0.961 . S
H487 C471 0.961 1_655 S
H488 C472 0.931 1_455 S
H489 C477 0.930 . S
H490 C478 0.956 . S
H491 C478 0.961 1_565 S
H492 C478 0.961 . S
H493 C479 0.958 1_545 S
H494 C479 0.961 . S
H495 C479 0.960 . S
C496 C497 1.391 . S
C496 C498 1.394 . S
C496 H512 0.931 . S
C497 C496 1.391 . S
C497 C501 1.376 . S
C498 C496 1.394 . S
C498 C499 1.369 . S
C498 C502 1.531 . S
C499 C498 1.369 . S
C499 C500 1.410 . S
C499 C507 1.503 . S
C500 C499 1.410 . S
C500 C501 1.392 . S
C500 C503 1.511 . S
C501 C497 1.376 . S
C501 C500 1.392 . S
C501 H513 0.929 . S
C502 C498 1.531 . S
C502 H514 0.960 . S
C502 H515 0.962 . S
C502 H516 0.960 . S
C503 C500 1.511 . S
C503 H517 0.961 . S
C503 H518 0.961 . S
C503 H519 0.961 . S
C504 C505 1.370 . S
C504 C506 1.363 . S
C504 H520 0.931 . S
C505 C504 1.370 . S
C505 C509 1.408 . S
C506 C504 1.363 . S
C506 C507 1.370 . S
C506 C510 1.524 . S
C507 C499 1.503 . S
C507 C506 1.370 . S
C507 C508 1.403 . S
C508 C507 1.403 . S
C508 C509 1.404 . S
C508 C511 1.539 . S
C509 C505 1.408 . S
C509 C508 1.404 . S
C509 H521 0.930 . S
C510 C506 1.524 . S
C510 H522 0.956 . S
C510 H523 0.961 . S
C510 H524 0.961 . S
C511 C508 1.539 . S
C511 H525 0.958 . S
C511 H526 0.961 . S
C511 H527 0.960 . S
H512 C496 0.931 . S
H513 C501 0.929 . S
H514 C502 0.960 . S
H515 C502 0.962 . S
H516 C502 0.960 . S
H517 C503 0.961 . S
H518 C503 0.961 . S
H519 C503 0.961 . S
H520 C504 0.931 . S
H521 C509 0.930 . S
H522 C510 0.956 . S
H523 C510 0.961 . S
H524 C510 0.961 . S
H525 C511 0.958 . S
H526 C511 0.961 . S
H527 C511 0.960 . S
C528 C529 1.391 . S
C528 C530 1.394 . S
C528 H544 0.931 . S
C529 C528 1.391 . S
C529 C533 1.376 . S
C530 C528 1.394 . S
C530 C531 1.369 . S
C530 C534 1.531 . S
C531 C530 1.369 . S
C531 C532 1.410 . S
C531 C539 1.503 . S
C532 C531 1.410 . S
C532 C533 1.392 . S
C532 C535 1.511 . S
C533 C529 1.376 . S
C533 C532 1.392 . S
C533 H545 0.929 . S
C534 C530 1.531 . S
C534 H546 0.960 . S
C534 H547 0.962 . S
C534 H548 0.960 . S
C535 C532 1.511 . S
C535 H549 0.961 . S
C535 H550 0.961 . S
C535 H551 0.961 . S
C536 C537 1.370 . S
C536 C538 1.363 . S
C536 H552 0.931 . S
C537 C536 1.370 . S
C537 C541 1.408 . S
C538 C536 1.363 . S
C538 C539 1.370 . S
C538 C542 1.524 . S
C539 C531 1.503 . S
C539 C538 1.370 . S
C539 C540 1.403 . S
C540 C539 1.403 . S
C540 C541 1.404 . S
C540 C543 1.539 . S
C541 C537 1.408 . S
C541 C540 1.404 . S
C541 H553 0.930 . S
C542 C538 1.524 . S
C542 H554 0.956 . S
C542 H555 0.961 . S
C542 H556 0.961 . S
C543 C540 1.539 . S
C543 H557 0.958 . S
C543 H558 0.961 . S
C543 H559 0.960 . S
H544 C528 0.931 . S
H545 C533 0.929 . S
H546 C534 0.960 . S
H547 C534 0.962 . S
H548 C534 0.960 . S
H549 C535 0.961 . S
H550 C535 0.961 . S
H551 C535 0.961 . S
H552 C536 0.931 . S
H553 C541 0.930 . S
H554 C542 0.956 . S
H555 C542 0.961 . S
H556 C542 0.961 . S
H557 C543 0.958 . S
H558 C543 0.961 . S
H559 C543 0.960 . S
C560 C561 1.391 . S
C560 C562 1.394 . S
C560 H576 0.931 . S
C561 C560 1.391 . S
C561 C565 1.376 . S
C562 C560 1.394 . S
C562 C563 1.369 . S
C562 C566 1.531 . S
C563 C562 1.369 . S
C563 C564 1.410 . S
C563 C571 1.503 . S
C564 C563 1.410 . S
C564 C565 1.392 . S
C564 C567 1.511 . S
C565 C561 1.376 . S
C565 C564 1.392 . S
C565 H577 0.929 . S
C566 C562 1.531 . S
C566 H578 0.960 . S
C566 H579 0.962 . S
C566 H580 0.960 . S
C567 C564 1.511 . S
C567 H581 0.961 . S
C567 H582 0.961 . S
C567 H583 0.961 . S
C568 C569 1.370 . S
C568 C570 1.363 . S
C568 H584 0.931 . S
C569 C568 1.370 . S
C569 C573 1.408 . S
C570 C568 1.363 . S
C570 C571 1.370 . S
C570 C574 1.524 . S
C571 C563 1.503 . S
C571 C570 1.370 . S
C571 C572 1.403 . S
C572 C571 1.403 . S
C572 C573 1.404 . S
C572 C575 1.539 . S
C573 C569 1.408 . S
C573 C572 1.404 . S
C573 H585 0.930 . S
C574 C570 1.524 . S
C574 H586 0.956 . S
C574 H587 0.961 . S
C574 H588 0.961 . S
C575 C572 1.539 . S
C575 H589 0.958 . S
C575 H590 0.961 . S
C575 H591 0.960 . S
H576 C560 0.931 . S
H577 C565 0.929 . S
H578 C566 0.960 . S
H579 C566 0.962 . S
H580 C566 0.960 . S
H581 C567 0.961 . S
H582 C567 0.961 . S
H583 C567 0.961 . S
H584 C568 0.931 . S
H585 C573 0.930 . S
H586 C574 0.956 . S
H587 C574 0.961 . S
H588 C574 0.961 . S
H589 C575 0.958 . S
H590 C575 0.961 . S
H591 C575 0.960 . S
C592 C593 1.391 . S
C592 C594 1.394 . S
C592 H608 0.931 . S
C593 C592 1.391 . S
C593 C597 1.376 . S
C594 C592 1.394 . S
C594 C595 1.369 . S
C594 C598 1.531 . S
C595 C594 1.369 . S
C595 C596 1.410 . S
C595 C603 1.503 . S
C596 C595 1.410 . S
C596 C597 1.392 . S
C596 C599 1.511 . S
C597 C593 1.376 . S
C597 C596 1.392 . S
C597 H609 0.929 . S
C598 C594 1.531 . S
C598 H610 0.960 . S
C598 H611 0.962 . S
C598 H612 0.960 . S
C599 C596 1.511 . S
C599 H613 0.961 . S
C599 H614 0.961 . S
C599 H615 0.961 . S
C600 C601 1.370 . S
C600 C602 1.363 . S
C600 H616 0.931 . S
C601 C600 1.370 . S
C601 C605 1.408 . S
C602 C600 1.363 . S
C602 C603 1.370 . S
C602 C606 1.524 . S
C603 C595 1.503 . S
C603 C602 1.370 . S
C603 C604 1.403 . S
C604 C603 1.403 . S
C604 C605 1.404 . S
C604 C607 1.539 . S
C605 C601 1.408 . S
C605 C604 1.404 . S
C605 H617 0.930 . S
C606 C602 1.524 . S
C606 H618 0.956 . S
C606 H619 0.961 . S
C606 H620 0.961 . S
C607 C604 1.539 . S
C607 H621 0.958 . S
C607 H622 0.961 . S
C607 H623 0.960 . S
H608 C592 0.931 . S
H609 C597 0.929 . S
H610 C598 0.960 . S
H611 C598 0.962 . S
H612 C598 0.960 . S
H613 C599 0.961 . S
H614 C599 0.961 . S
H615 C599 0.961 . S
H616 C600 0.931 . S
H617 C605 0.930 . S
H618 C606 0.956 . S
H619 C606 0.961 . S
H620 C606 0.961 . S
H621 C607 0.958 . S
H622 C607 0.961 . S
H623 C607 0.960 . S
C113 C13 1.121 . S
C121 C36 1.173 . S
C145 C50 1.156 . S
C153 C27 1.159 . S
C177 C41 1.123 . S
C185 C8 1.172 . S
C209 C55 1.101 . S
C217 C22 1.183 . S
C241 C92 1.149 . S
C249 C69 1.147 . S
C273 C83 1.176 . S
C281 C106 1.165 . S
C305 C97 1.100 . S
C313 C64 1.180 . S
C337 C111 1.105 . S
C345 C78 1.175 . S
C369 C7 1.494 . S
C377 C63 1.518 . S
C401 C21 1.494 . S
C409 C77 1.518 . S
C433 C35 1.518 . S
C441 C91 1.510 . S
C465 C105 1.501 . S
C473 C49 1.515 . S
C497 C11 1.518 . S
C505 C25 1.512 . S
C529 C53 1.518 . S
C537 C39 1.512 . S
C561 C81 1.507 . S
C569 C67 1.508 . S
C593 C95 1.517 . S
C601 C109 1.515 . S
