# Generated by pormake.
# Topology ukj, (4)-cn, num edge types: 1
# Building blocks:
#     Node 0, Type 0, BuildingBlock: MUDLON_clean_sbu_0, # of connection points: 4
#     Node 1, Type 0, BuildingBlock: MUDLON_clean_sbu_0, # of connection points: 4
#     Node 2, Type 0, BuildingBlock: MUDLON_clean_sbu_0, # of connection points: 4
#     Node 3, Type 0, BuildingBlock: MUDLON_clean_sbu_0, # of connection points: 4
#     Node 4, Type 0, BuildingBlock: MUDLON_clean_sbu_0, # of connection points: 4
#     Node 5, Type 0, BuildingBlock: MUDLON_clean_sbu_0, # of connection points: 4
#     Node 6, Type 0, BuildingBlock: MUDLON_clean_sbu_0, # of connection points: 4
#     Node 7, Type 0, BuildingBlock: MUDLON_clean_sbu_0, # of connection points: 4
#     Node 8, Type 0, BuildingBlock: MUDLON_clean_sbu_0, # of connection points: 4
#     Node 9, Type 0, BuildingBlock: MUDLON_clean_sbu_0, # of connection points: 4
#     Node 10, Type 0, BuildingBlock: MUDLON_clean_sbu_0, # of connection points: 4
#     Node 11, Type 0, BuildingBlock: MUDLON_clean_sbu_0, # of connection points: 4
#     Node 12, Type 0, BuildingBlock: MUDLON_clean_sbu_0, # of connection points: 4
#     Node 13, Type 0, BuildingBlock: MUDLON_clean_sbu_0, # of connection points: 4
#     Node 14, Type 0, BuildingBlock: MUDLON_clean_sbu_0, # of connection points: 4
#     Node 15, Type 0, BuildingBlock: MUDLON_clean_sbu_0, # of connection points: 4
#     Node 16, Type 0, BuildingBlock: MUDLON_clean_sbu_0, # of connection points: 4
#     Node 17, Type 0, BuildingBlock: MUDLON_clean_sbu_0, # of connection points: 4
#     Node 18, Type 0, BuildingBlock: MUDLON_clean_sbu_0, # of connection points: 4
#     Node 19, Type 0, BuildingBlock: MUDLON_clean_sbu_0, # of connection points: 4
#     Node 20, Type 0, BuildingBlock: MUDLON_clean_sbu_0, # of connection points: 4
#     Node 21, Type 0, BuildingBlock: MUDLON_clean_sbu_0, # of connection points: 4
#     Node 22, Type 0, BuildingBlock: MUDLON_clean_sbu_0, # of connection points: 4
#     Node 23, Type 0, BuildingBlock: MUDLON_clean_sbu_0, # of connection points: 4
#     Node 24, Type 0, BuildingBlock: MUDLON_clean_sbu_0, # of connection points: 4
#     Node 25, Type 0, BuildingBlock: MUDLON_clean_sbu_0, # of connection points: 4
#     Node 26, Type 0, BuildingBlock: MUDLON_clean_sbu_0, # of connection points: 4
#     Node 27, Type 0, BuildingBlock: MUDLON_clean_sbu_0, # of connection points: 4
#     Node 28, Type 0, BuildingBlock: MUDLON_clean_sbu_0, # of connection points: 4
#     Node 29, Type 0, BuildingBlock: MUDLON_clean_sbu_0, # of connection points: 4
#     Node 30, Type 0, BuildingBlock: MUDLON_clean_sbu_0, # of connection points: 4
#     Node 31, Type 0, BuildingBlock: MUDLON_clean_sbu_0, # of connection points: 4
#     Edge 32, Type (0, 0), None
#     Edge 33, Type (0, 0), None
#     Edge 34, Type (0, 0), None
#     Edge 35, Type (0, 0), None
#     Edge 36, Type (0, 0), None
#     Edge 37, Type (0, 0), None
#     Edge 38, Type (0, 0), None
#     Edge 39, Type (0, 0), None
#     Edge 40, Type (0, 0), None
#     Edge 41, Type (0, 0), None
#     Edge 42, Type (0, 0), None
#     Edge 43, Type (0, 0), None
#     Edge 44, Type (0, 0), None
#     Edge 45, Type (0, 0), None
#     Edge 46, Type (0, 0), None
#     Edge 47, Type (0, 0), None
#     Edge 48, Type (0, 0), None
#     Edge 49, Type (0, 0), None
#     Edge 50, Type (0, 0), None
#     Edge 51, Type (0, 0), None
#     Edge 52, Type (0, 0), None
#     Edge 53, Type (0, 0), None
#     Edge 54, Type (0, 0), None
#     Edge 55, Type (0, 0), None
#     Edge 56, Type (0, 0), None
#     Edge 57, Type (0, 0), None
#     Edge 58, Type (0, 0), None
#     Edge 59, Type (0, 0), None
#     Edge 60, Type (0, 0), None
#     Edge 61, Type (0, 0), None
#     Edge 62, Type (0, 0), None
#     Edge 63, Type (0, 0), None
#     Edge 64, Type (0, 0), None
#     Edge 65, Type (0, 0), None
#     Edge 66, Type (0, 0), None
#     Edge 67, Type (0, 0), None
#     Edge 68, Type (0, 0), None
#     Edge 69, Type (0, 0), None
#     Edge 70, Type (0, 0), None
#     Edge 71, Type (0, 0), None
#     Edge 72, Type (0, 0), None
#     Edge 73, Type (0, 0), None
#     Edge 74, Type (0, 0), None
#     Edge 75, Type (0, 0), None
#     Edge 76, Type (0, 0), None
#     Edge 77, Type (0, 0), None
#     Edge 78, Type (0, 0), None
#     Edge 79, Type (0, 0), None
#     Edge 80, Type (0, 0), None
#     Edge 81, Type (0, 0), None
#     Edge 82, Type (0, 0), None
#     Edge 83, Type (0, 0), None
#     Edge 84, Type (0, 0), None
#     Edge 85, Type (0, 0), None
#     Edge 86, Type (0, 0), None
#     Edge 87, Type (0, 0), None
#     Edge 88, Type (0, 0), None
#     Edge 89, Type (0, 0), None
#     Edge 90, Type (0, 0), None
#     Edge 91, Type (0, 0), None
#     Edge 92, Type (0, 0), None
#     Edge 93, Type (0, 0), None
#     Edge 94, Type (0, 0), None
#     Edge 95, Type (0, 0), None
# Relax obj value: 0.028
# Max RMSD: 0.219
# Mean RMSD: 0.217
data_MOF--net-ukj--node1-MUDLON_clean_sbu_0--edge1-none
_symmetry_space_group_name_H-M    P1
_symmetry_Int_Tables_number       1
_symmetry_cell_setting            triclinic
loop_
_symmetry_equiv_pos_as_xyz
'x, y, z'
_cell_length_a     15.719809
_cell_length_b     28.728071
_cell_length_c     27.634563
_cell_angle_alpha  90.709194
_cell_angle_beta   90.321278
_cell_angle_gamma 89.974037
loop_
_atom_site_label
_atom_site_type_symbol
_atom_site_fract_x
_atom_site_fract_y
_atom_site_fract_z
_atom_type_partial_charge
Mg0 Mg 0.2034 0.32321 0.275 0.0
C1 C 0.19308 0.37041 0.17738 0.0
O2 O 0.27535 0.37583 0.18349 0.0
C3 C 0.16413 0.34057 0.37748 0.0
O4 O 0.17169 0.29505 0.37683 0.0
C5 C 0.06208 0.25344 0.27937 0.0
O6 O 1.01864 0.29231 0.27573 0.0
O7 O 0.14309 0.25501 0.28036 0.0
O8 O 0.14892 0.35299 0.21088 0.0
O9 O 0.34214 0.32101 0.27106 0.0
C10 C 0.38541 0.3583 0.27597 0.0
O11 O 0.34606 0.39816 0.28282 0.0
O12 O 0.17182 0.36297 0.3385 0.0
Mg13 Mg 0.1578 0.88047 0.27403 0.0
C14 C 0.14466 0.86005 0.1699 0.0
O15 O 0.0715 0.88049 0.17849 0.0
C16 C 0.18246 0.85777 0.37485 0.0
O17 O 0.1709 0.90306 0.37602 0.0
C18 C 0.2084 0.98194 0.26432 0.0
O19 O 0.13334 -0.0155 0.24342 0.0
O20 O 0.23312 0.9436 0.28182 0.0
O21 O 0.19425 0.85136 0.20501 0.0
O22 O 1.02029 0.89052 0.27584 0.0
C23 C 0.97437 0.85413 0.27201 0.0
O24 O 1.01116 0.81335 0.26661 0.0
O25 O 0.18518 0.83664 0.33432 0.0
Mg26 Mg 0.18601 0.90379 1.0214 0.0
C27 C 0.17731 0.85935 0.12058 0.0
O28 O 0.25744 0.84914 0.11264 0.0
C29 C 0.14038 0.87795 0.92029 0.0
O30 O 0.14021 0.9235 0.91694 0.0
C31 C 0.05045 0.97509 1.01932 0.0
O32 O 1.00722 0.93799 0.03158 0.0
O33 O 0.12977 0.97168 1.0115 0.0
O34 O 0.13349 0.87893 0.08797 0.0
O35 O 0.32338 0.90788 0.02608 0.0
C36 C 0.36563 0.87039 1.02143 0.0
O37 O 0.3253 0.83085 1.01431 0.0
O38 O 0.15452 0.85929 0.96091 0.0
Mg39 Mg 0.16446 0.34003 0.02686 0.0
C40 C 0.15679 0.3705 0.12866 0.0
O41 O 0.08023 0.35328 0.12198 0.0
C42 C 0.19952 0.3484 0.92437 0.0
O43 O 0.19177 0.30324 0.92967 0.0
C44 C 0.20324 0.23608 0.03453 0.0
O45 O 0.12207 0.23246 0.04476 0.0
O46 O 0.235 0.27556 0.02556 0.0
O47 O 0.2058 0.3744 0.09263 0.0
O48 O 1.02748 0.33047 0.02606 0.0
C49 C 0.98146 0.36686 0.02747 0.0
O50 O 1.01786 0.40797 0.03014 0.0
O51 O 0.19448 0.37513 0.96118 0.0
Mg52 Mg 0.85846 0.63397 0.78533 0.0
C53 C 0.94443 0.59142 0.87649 0.0
O54 O 1.00709 0.58059 0.84721 0.0
C55 C 0.91291 0.61877 0.68303 0.0
O56 O 0.90114 0.66402 0.68419 0.0
C57 C 0.99384 0.70631 0.78728 0.0
O58 O 0.04013 0.66874 0.79324 0.0
O59 O 0.91364 0.70271 0.78291 0.0
O60 O 0.8775 0.60994 0.85946 0.0
O61 O 0.72262 0.63783 0.77596 0.0
C62 C 0.68088 0.60018 0.77115 0.0
O63 O 0.72105 0.5601 0.77133 0.0
O64 O 0.90432 0.59564 0.72187 0.0
Mg65 Mg 0.93008 0.0828 0.7788 0.0
C66 C 0.85412 0.13161 0.87016 0.0
O67 O 0.79099 0.14306 0.84134 0.0
C68 C 0.87908 0.0986 0.67671 0.0
O69 O 0.89225 0.05346 0.67651 0.0
C70 C 0.79228 0.01151 0.77957 0.0
O71 O 0.74613 0.04936 0.78459 0.0
O72 O 0.87255 0.01474 0.77631 0.0
O73 O 0.9176 0.10982 0.8529 0.0
O74 O 0.06431 0.0766 0.7664 0.0
C75 C 0.10686 0.11413 0.7675 0.0
O76 O 0.06807 0.1538 0.77636 0.0
O77 O 0.88457 0.12137 0.71654 0.0
Mg78 Mg 0.87042 0.09149 1.02356 0.0
C79 C 0.84274 0.13391 0.92308 0.0
O80 O 0.76693 0.14303 0.94037 0.0
C81 C 0.91211 0.10412 0.12898 0.0
O82 O 0.90437 0.05867 0.12604 0.0
C83 C 1.0077 0.0202 1.0163 0.0
O84 O 0.05083 0.05757 1.0048 0.0
O85 O 0.92909 0.0236 0.02613 0.0
O86 O 0.90005 0.11769 0.95108 0.0
O87 O 0.73395 0.08444 0.02687 0.0
C88 C 0.68874 0.11987 0.03708 0.0
O89 O 0.72549 0.16005 0.04646 0.0
O90 O 0.90627 0.12814 0.0905 0.0
Mg91 Mg 0.93426 0.63798 0.02979 0.0
C92 C 0.95921 0.59256 0.92923 0.0
O93 O 0.03643 0.5854 0.94572 0.0
C94 C 0.88952 0.62774 0.13464 0.0
O95 O 0.9019 0.67288 0.13292 0.0
C96 C 0.80427 0.71292 1.02196 0.0
O97 O 0.75715 0.67647 1.01113 0.0
O98 O 0.88265 0.70753 0.03166 0.0
O99 O 0.90282 0.60951 0.95747 0.0
O100 O 0.07079 0.64182 0.03527 0.0
C101 C 0.11215 0.60478 0.04362 0.0
O102 O 0.07117 0.56546 0.04961 0.0
O103 O 0.89374 0.60345 0.09571 0.0
Mg104 Mg 0.16934 0.8232 0.77515 0.0
C105 C 0.16364 0.8503 0.67103 0.0
O106 O 0.24622 0.8453 0.67597 0.0
C107 C 0.13922 0.84902 0.87655 0.0
O108 O 0.1525 0.80401 0.87965 0.0
C109 C 0.03481 0.75178 0.78352 0.0
O110 O 0.98884 0.78907 0.77534 0.0
O111 O 0.11521 0.75523 0.78636 0.0
O112 O 0.11609 0.84649 0.70769 0.0
O113 O 0.30667 0.81948 0.77212 0.0
C114 C 0.34808 0.85744 0.7725 0.0
O115 O 0.30684 0.8972 0.77372 0.0
O116 O 0.13846 0.86793 0.83533 0.0
Mg117 Mg 0.16093 0.37455 0.77291 0.0
C118 C 0.15035 0.3365 0.67299 0.0
O119 O 0.07083 0.34871 0.67979 0.0
C120 C 0.19899 0.36783 0.87596 0.0
O121 O 0.19181 0.413 0.8705 0.0
C122 C 0.20582 0.4742 0.74833 0.0
O123 O 0.1339 0.47249 0.72398 0.0
O124 O 0.2301 0.43931 0.7724 0.0
O125 O 0.20207 0.33846 0.70834 0.0
O126 O 1.02404 0.38446 0.77335 0.0
C127 C 0.97757 0.34828 0.7742 0.0
O128 O 1.0134 0.30697 0.77398 0.0
O129 O 0.19245 0.34093 0.83933 0.0
Mg130 Mg 0.18142 0.38458 0.52692 0.0
C131 C 0.18394 0.33695 0.62389 0.0
O132 O 0.26655 0.33718 0.61732 0.0
C133 C 0.15941 0.36565 0.42352 0.0
O134 O 0.16426 0.41129 0.42459 0.0
C135 C 0.11965 0.48386 0.54602 0.0
O136 O 0.1887 0.48587 0.57293 0.0
O137 O 0.10347 0.44714 0.52165 0.0
O138 O 0.13487 0.35065 0.59039 0.0
O139 O 0.31837 0.39648 0.53249 0.0
C140 C 0.36804 0.3619 0.52612 0.0
O141 O 0.33572 0.32058 0.5168 0.0
O142 O 0.16162 0.34337 0.46281 0.0
Mg143 Mg 0.12189 0.81272 0.52009 0.0
C144 C 0.12548 0.84789 0.62279 0.0
O145 O 0.04305 0.84191 0.61822 0.0
C146 C 0.17628 0.83143 0.41944 0.0
O147 O 0.17355 0.78576 0.41763 0.0
C148 C 0.25839 0.74123 0.51564 0.0
O149 O 0.303 0.77955 0.52146 0.0
O150 O 0.17762 0.74371 0.51333 0.0
O151 O 0.17329 0.84112 0.58657 0.0
O152 O 0.98318 0.8133 0.52094 0.0
C153 C 0.94452 0.85227 0.52128 0.0
O154 O 0.98879 0.89103 0.5218 0.0
O155 O 0.16023 0.85271 0.45885 0.0
Mg156 Mg 0.87084 0.14037 0.28157 0.0
C157 C 0.83339 0.09717 0.38067 0.0
O158 O 0.75836 0.09019 0.36098 0.0
C159 C 0.91182 0.12711 0.1769 0.0
O160 O 0.90172 0.17243 0.17974 0.0
C161 C 1.01694 0.2087 0.28159 0.0
O162 O 0.06009 0.16968 0.28454 0.0
O163 O 0.93595 0.20742 0.27995 0.0
O164 O 0.89389 0.11267 0.35473 0.0
O165 O 0.73333 0.14648 0.27482 0.0
C166 C 0.69045 0.10996 0.26471 0.0
O167 O 0.73019 0.0704 0.25675 0.0
O168 O 0.90778 0.10311 0.21543 0.0
Mg169 Mg 0.92387 0.58801 0.28526 0.0
C170 C 0.97905 0.6254 0.38525 0.0
O171 O 0.05359 0.62686 0.36428 0.0
C172 C 0.8866 0.60473 0.18185 0.0
O173 O 0.89241 0.55917 0.18344 0.0
C174 C 0.76245 0.53261 0.27553 0.0
O175 O 0.73203 0.57486 0.27043 0.0
O176 O 0.84204 0.52686 0.28212 0.0
O177 O 0.91311 0.61574 0.35984 0.0
O178 O 0.05824 0.57305 0.27518 0.0
C179 C 0.10418 0.60742 0.26296 0.0
O180 O 0.0682 0.648 0.25553 0.0
O181 O 0.89202 0.62837 0.22119 0.0
Mg182 Mg 0.89938 0.57848 0.52976 0.0
C183 C 0.97606 0.62244 0.43848 0.0
O184 O 0.0475 0.62024 0.46322 0.0
C185 C 0.92121 0.59472 0.63599 0.0
O186 O 0.91574 0.54913 0.63382 0.0
C187 C 0.06009 0.52332 0.54552 0.0
O188 O 0.0835 0.56359 0.5642 0.0
O189 O 0.98493 0.51852 0.5287 0.0
O190 O 0.90692 0.6114 0.45885 0.0
O191 O 0.76476 0.56273 0.53342 0.0
C192 C 0.71827 0.59883 0.52955 0.0
O193 O 0.75462 0.63964 0.52456 0.0
O194 O 0.92109 0.61779 0.5968 0.0
Mg195 Mg 0.91235 0.14264 0.52785 0.0
C196 C 0.84028 0.09827 0.43392 0.0
O197 O 0.7718 0.09225 0.46011 0.0
C198 C 0.87518 0.12331 0.63053 0.0
O199 O 0.88109 0.1689 0.63063 0.0
C200 C 0.75325 0.19933 0.54047 0.0
O201 O 0.72402 0.15801 0.5515 0.0
O202 O 0.83136 0.20407 0.52956 0.0
O203 O 0.90685 0.11468 0.45389 0.0
O204 O 0.04692 0.15541 0.53834 0.0
C205 C 0.09138 0.11838 0.53698 0.0
O206 O 0.05326 0.07812 0.53026 0.0
O207 O 0.88052 0.10094 0.59047 0.0
Mg208 Mg 0.70185 0.32155 0.77669 0.0
C209 C 0.68127 0.36856 0.67896 0.0
O210 O 0.76198 0.37917 0.68454 0.0
C211 C 0.67068 0.34385 0.87915 0.0
O212 O 0.67689 0.29831 0.88067 0.0
C213 C 0.56539 0.25132 0.78252 0.0
O214 O 0.52157 0.28935 0.77418 0.0
O215 O 0.64581 0.25366 0.78642 0.0
O216 O 0.64216 0.34787 0.71241 0.0
O217 O 0.83873 0.31621 0.77034 0.0
C218 C 0.88474 0.35233 0.77537 0.0
O219 O 0.84877 0.39305 0.78275 0.0
O220 O 0.67569 0.36428 0.83887 0.0
Mg221 Mg 0.61967 0.89288 0.77261 0.0
C222 C 0.62575 0.85946 0.67008 0.0
O223 O 0.54348 0.86633 0.6739 0.0
C224 C 0.67059 0.87547 0.87385 0.0
O225 O 0.66964 0.92117 0.87415 0.0
C226 C 0.75153 0.96584 0.77668 0.0
O227 O 0.79792 0.92822 0.77056 0.0
O228 O 0.67124 0.96224 0.77949 0.0
O229 O 0.67295 0.86452 0.7071 0.0
O230 O 0.48222 0.89495 0.76999 0.0
C231 C 0.44115 0.85698 0.77209 0.0
O232 O 0.48264 0.81739 0.7746 0.0
O233 O 0.65521 0.8533 0.83481 0.0
Mg234 Mg 0.67398 0.89413 0.5209 0.0
C235 C 0.66488 0.85914 0.62232 0.0
O236 O 0.74789 0.86235 0.6187 0.0
C237 C 0.64599 0.87375 0.4184 0.0
O238 O 0.66654 0.91805 0.41794 0.0
C239 C 0.54179 0.96867 0.51943 0.0
O240 O 0.495 0.93198 0.52856 0.0
O241 O 0.62158 0.96383 0.51365 0.0
O242 O 0.61847 0.86713 0.58571 0.0
O243 O 0.81254 0.89299 0.52432 0.0
C244 C 0.85114 0.85412 0.52089 0.0
O245 O 0.80685 0.81553 0.51654 0.0
O246 O 0.63947 0.85321 0.45853 0.0
Mg247 Mg 0.64748 0.34228 0.52806 0.0
C248 C 0.64279 0.36799 0.63074 0.0
O249 O 0.56916 0.34715 0.62443 0.0
C250 C 0.6887 0.35468 0.42637 0.0
O251 O 0.68542 0.30915 0.42959 0.0
C252 C 0.69613 0.23974 0.5414 0.0
O253 O 0.61905 0.23615 0.55903 0.0
O254 O 0.72171 0.2785 0.52554 0.0
O255 O 0.68868 0.37589 0.59418 0.0
O256 O 0.50977 0.33244 0.52651 0.0
C257 C 0.46081 0.36773 0.52913 0.0
O258 O 0.49377 0.40953 0.53407 0.0
O259 O 0.67805 0.37974 0.464 0.0
Mg260 Mg 0.37923 0.63411 0.26721 0.0
C261 C 0.46167 0.58621 0.35707 0.0
O262 O 0.52496 0.57567 0.32812 0.0
C263 C 0.42833 0.61738 0.16383 0.0
O264 O 0.42301 0.663 0.16478 0.0
C265 C 0.52005 0.70559 0.27392 0.0
O266 O 0.56513 0.66811 0.28265 0.0
O267 O 0.44047 0.70199 0.26606 0.0
O268 O 0.39665 0.60681 0.34023 0.0
O269 O 0.24249 0.64027 0.25946 0.0
C270 C 0.19718 0.6038 0.26322 0.0
O271 O 0.23405 0.56356 0.27117 0.0
O272 O 0.41878 0.59495 0.20302 0.0
Mg273 Mg 0.41905 0.08232 0.27815 0.0
C274 C 0.34044 0.12726 0.36938 0.0
O275 O 0.27297 0.13139 0.34153 0.0
C276 C 0.37987 0.09749 0.17481 0.0
O277 O 0.39211 0.0523 0.17603 0.0
C278 C 0.26421 0.02288 0.26611 0.0
O279 O 0.2338 0.06377 0.25418 0.0
O280 O 0.3425 0.01907 0.27758 0.0
O281 O 0.40909 0.1119 0.35125 0.0
O282 O 0.55469 0.07313 0.26793 0.0
C283 C 0.59736 0.11082 0.26766 0.0
O284 O 0.55772 0.15073 0.27349 0.0
O285 O 0.38241 0.12111 0.21421 0.0
Mg286 Mg 0.36495 0.08825 0.52277 0.0
C287 C 0.33065 0.12893 0.42242 0.0
O288 O 0.25417 0.13438 0.44031 0.0
C289 C 0.41257 0.10106 0.62721 0.0
O290 O 0.4023 0.05574 0.62468 0.0
C291 C 0.50201 0.01484 0.51713 0.0
O292 O 0.54856 0.05178 0.50868 0.0
O293 O 0.42252 0.01942 0.52429 0.0
O294 O 0.39087 0.11513 0.44993 0.0
O295 O 0.22765 0.08385 0.52919 0.0
C296 C 0.18447 0.12023 0.53899 0.0
O297 O 0.22351 0.16011 0.54643 0.0
O298 O 0.40613 0.12494 0.58868 0.0
Mg299 Mg 0.44356 0.62614 0.51149 0.0
C300 C 0.47392 0.5845 0.40997 0.0
O301 O 0.55046 0.57698 0.42734 0.0
C302 C 0.39405 0.61382 0.61475 0.0
O303 O 0.40332 0.65918 0.61308 0.0
C304 C 0.30189 0.69613 0.51225 0.0
O305 O 0.25756 0.65763 0.50716 0.0
O306 O 0.38265 0.694 0.51495 0.0
O307 O 0.41583 0.59976 0.43806 0.0
O308 O 0.58088 0.63136 0.51865 0.0
C309 C 0.62523 0.5955 0.52831 0.0
O310 O 0.58761 0.55523 0.53456 0.0
O311 O 0.40249 0.58954 0.57605 0.0
Mg312 Mg 0.69793 0.82382 0.27254 0.0
C313 C 0.68555 0.86378 0.17239 0.0
O314 O 0.76885 0.86402 0.17608 0.0
C315 C 0.64629 0.84669 0.37345 0.0
O316 O 0.6381 0.80123 0.37451 0.0
C317 C 0.56163 0.75125 0.27211 0.0
O318 O 0.51665 0.78845 0.26199 0.0
O319 O 0.64134 0.75513 0.2794 0.0
O320 O 0.64111 0.85177 0.20824 0.0
O321 O 0.83612 0.82071 0.26758 0.0
C322 C 0.88116 0.85717 0.27369 0.0
O323 O 0.8439 0.89737 0.28206 0.0
O324 O 0.66777 0.86623 0.33451 0.0
Mg325 Mg 0.66099 0.38761 0.27611 0.0
C326 C 0.65734 0.35499 0.17439 0.0
O327 O 0.57941 0.37071 0.17933 0.0
C328 C 0.69016 0.37616 0.37895 0.0
O329 O 0.67892 0.42128 0.37535 0.0
C330 C 0.70489 0.49238 0.27297 0.0
O331 O 0.62393 0.49802 0.26269 0.0
O332 O 0.73391 0.45187 0.28032 0.0
O333 O 0.70574 0.35349 0.21119 0.0
O334 O 0.52249 0.3942 0.27532 0.0
C335 C 0.47886 0.35681 0.27462 0.0
O336 O 0.51816 0.31647 0.27308 0.0
O337 O 0.68969 0.35083 0.341 0.0
Mg338 Mg 0.70576 0.39402 0.02592 0.0
C339 C 0.6946 0.35311 0.12612 0.0
O340 O 0.7772 0.34847 0.12125 0.0
C341 C 0.67153 0.37117 0.92389 0.0
O342 O 0.67828 0.41668 0.92228 0.0
C343 C 0.56669 0.4629 1.01634 0.0
O344 O 0.52347 0.42416 1.02134 0.0
O345 O 0.64747 0.46151 1.01609 0.0
O346 O 0.65023 0.36777 0.09103 0.0
O347 O 0.84297 0.39954 0.03133 0.0
C348 C 0.88853 0.36327 0.02607 0.0
O349 O 0.8519 0.3227 1.01869 0.0
O350 O 0.67744 0.3508 0.9642 0.0
Mg351 Mg 0.63768 0.83467 1.02169 0.0
C352 C 0.64521 0.86434 0.1247 0.0
O353 O 0.56411 0.854 0.12065 0.0
C354 C 0.67242 0.85057 0.91943 0.0
O355 O 0.65883 0.80547 0.9196 0.0
C356 C 0.76643 0.7594 1.02379 0.0
O357 O 0.81366 0.79569 0.03501 0.0
O358 O 0.6876 0.76487 1.01539 0.0
O359 O 0.69159 0.86318 0.08736 0.0
O360 O 0.5001 0.83312 1.02302 0.0
C361 C 0.45868 0.8711 1.02349 0.0
O362 O 0.49976 0.91089 0.02494 0.0
O363 O 0.67212 0.87329 0.95904 0.0
Mg364 Mg 0.37905 0.13762 0.78055 0.0
C365 C 0.34357 0.0903 0.87772 0.0
O366 O 0.27011 0.08097 0.85711 0.0
C367 C 0.41562 0.12428 0.67499 0.0
O368 O 0.40804 0.16975 0.67781 0.0
C369 C 0.52172 0.20651 0.78546 0.0
O370 O 0.56513 0.16817 0.79293 0.0
O371 O 0.44171 0.20442 0.77923 0.0
O372 O 0.40272 0.10857 0.85281 0.0
O373 O 0.24351 0.14772 0.77596 0.0
C374 C 0.19929 0.11263 0.76328 0.0
O375 O 0.23738 0.07331 0.75192 0.0
O376 O 0.41179 0.10044 0.71363 0.0
Mg377 Mg 0.40963 0.57761 0.76788 0.0
C378 C 0.32216 0.60512 0.86129 0.0
O379 O 0.25523 0.59224 0.83584 0.0
C380 C 0.38825 0.59115 0.66202 0.0
O381 O 0.39745 0.54581 0.6645 0.0
C382 C 0.25887 0.51597 0.74772 0.0
O383 O 0.22944 0.55462 0.72906 0.0
O384 O 0.3335 0.51497 0.76571 0.0
O385 O 0.39354 0.60809 0.8403 0.0
O386 O 0.54448 0.56445 0.76619 0.0
C387 C 0.58809 0.60168 0.76798 0.0
O388 O 0.54879 0.64203 0.76936 0.0
O389 O 0.38625 0.61536 0.70106 0.0
Mg390 Mg 0.37746 0.57531 1.01476 0.0
C391 C 0.31762 0.604 0.91456 0.0
O392 O 0.24442 0.59383 0.93434 0.0
C393 C 0.427 0.59252 0.11697 0.0
O394 O 0.41322 0.54744 0.11607 0.0
C395 C 0.52181 0.50742 1.01308 0.0
O396 O 0.56474 0.54644 1.0097 0.0
O397 O 0.44115 0.50861 1.01538 0.0
O398 O 0.3851 0.60275 0.94049 0.0
O399 O 0.24453 0.56719 0.03148 0.0
C400 C 0.20466 0.60492 0.03958 0.0
O401 O 0.24564 0.64468 0.03765 0.0
O402 O 0.42321 0.61502 0.07747 0.0
Mg403 Mg 0.41685 0.13798 0.02528 0.0
C404 C 0.34906 0.09099 0.931 0.0
O405 O 0.28092 0.08229 0.95664 0.0
C406 C 0.37829 0.12099 0.12794 0.0
O407 O 0.38425 0.16655 0.12682 0.0
C408 C 0.25813 0.19494 0.03373 0.0
O409 O 0.22592 0.15348 0.04106 0.0
O410 O 0.33748 0.19936 0.02631 0.0
O411 O 0.41309 0.10976 0.95146 0.0
O412 O 0.54987 0.1528 0.03642 0.0
C413 C 0.5961 0.11655 0.03415 0.0
O414 O 0.5602 0.07589 0.02607 0.0
O415 O 0.38442 0.09757 0.08857 0.0
loop_
_geom_bond_atom_site_label_1
_geom_bond_atom_site_label_2
_geom_bond_distance
_geom_bond_site_symmetry_2
_ccdc_geom_bond_type
Mg0 O7 2.141 . S
Mg0 O8 2.048 . S
Mg0 O9 2.048 . S
Mg0 O12 2.141 . S
C1 O2 1.313 . S
C1 O8 1.195 . S
O2 C1 1.313 . S
C3 O4 1.245 . S
C3 O12 1.289 . S
O4 C3 1.245 . S
C5 O6 1.245 . S
C5 O7 1.289 . S
O6 C5 1.245 . S
O7 Mg0 2.141 . S
O7 C5 1.289 . S
O8 Mg0 2.048 . S
O8 C1 1.195 . S
O9 Mg0 2.048 . S
O9 C10 1.195 . S
C10 O9 1.195 . S
C10 O11 1.313 . S
O11 C10 1.313 . S
O12 Mg0 2.141 . S
O12 C3 1.289 . S
Mg13 O20 2.141 . S
Mg13 O21 2.048 . S
Mg13 O22 2.048 . S
Mg13 O25 2.141 . S
C14 O15 1.313 . S
C14 O21 1.195 . S
O15 C14 1.313 . S
C16 O17 1.245 . S
C16 O25 1.289 . S
O17 C16 1.245 . S
C18 O19 1.245 . S
C18 O20 1.289 . S
O19 C18 1.245 . S
O20 Mg13 2.141 . S
O20 C18 1.289 . S
O21 Mg13 2.048 . S
O21 C14 1.195 . S
O22 Mg13 2.048 . S
O22 C23 1.195 1_455 S
C23 O22 1.195 1_655 S
C23 O24 1.313 . S
O24 C23 1.313 . S
O25 Mg13 2.141 . S
O25 C16 1.289 . S
Mg26 O33 2.141 1_554 S
Mg26 O34 2.056 . S
Mg26 O35 2.048 . S
Mg26 O38 2.133 1_554 S
C27 O28 1.313 . S
C27 O34 1.195 . S
O28 C27 1.313 . S
C29 O30 1.245 . S
C29 O38 1.289 . S
O30 C29 1.245 . S
C31 O32 1.245 . S
C31 O33 1.289 . S
O32 C31 1.245 . S
O33 Mg26 2.141 1_556 S
O33 C31 1.289 . S
O34 Mg26 2.056 . S
O34 C27 1.195 . S
O35 Mg26 2.048 . S
O35 C36 1.195 . S
C36 O35 1.195 . S
C36 O37 1.313 . S
O37 C36 1.313 . S
O38 Mg26 2.133 1_556 S
O38 C29 1.289 . S
Mg39 O46 2.141 1_554 S
Mg39 O47 2.056 . S
Mg39 O48 2.048 . S
Mg39 O51 2.133 1_554 S
C40 O41 1.313 . S
C40 O47 1.195 . S
O41 C40 1.313 . S
C42 O43 1.245 . S
C42 O51 1.289 . S
O43 C42 1.245 . S
C44 O45 1.245 . S
C44 O46 1.289 . S
O45 C44 1.245 . S
O46 Mg39 2.141 1_556 S
O46 C44 1.289 . S
O47 Mg39 2.056 . S
O47 C40 1.195 . S
O48 Mg39 2.048 . S
O48 C49 1.195 1_455 S
C49 O48 1.195 1_655 S
C49 O50 1.313 . S
O50 C49 1.313 . S
O51 Mg39 2.133 1_556 S
O51 C42 1.289 . S
Mg52 O59 2.141 . S
Mg52 O60 2.048 . S
Mg52 O61 2.048 . S
Mg52 O64 2.141 . S
C53 O54 1.313 . S
C53 O60 1.195 . S
O54 C53 1.313 . S
C55 O56 1.245 . S
C55 O64 1.289 . S
O56 C55 1.245 . S
C57 O58 1.245 . S
C57 O59 1.289 1_455 S
O58 C57 1.245 . S
O59 Mg52 2.141 . S
O59 C57 1.289 1_655 S
O60 Mg52 2.048 . S
O60 C53 1.195 . S
O61 Mg52 2.048 . S
O61 C62 1.195 . S
C62 O61 1.195 . S
C62 O63 1.313 . S
O63 C62 1.313 . S
O64 Mg52 2.141 . S
O64 C55 1.289 . S
Mg65 O72 2.141 . S
Mg65 O73 2.048 . S
Mg65 O74 2.048 1_655 S
Mg65 O77 2.141 . S
C66 O67 1.313 . S
C66 O73 1.195 . S
O67 C66 1.313 . S
C68 O69 1.245 . S
C68 O77 1.289 . S
O69 C68 1.245 . S
C70 O71 1.245 . S
C70 O72 1.289 . S
O71 C70 1.245 . S
O72 Mg65 2.141 . S
O72 C70 1.289 . S
O73 Mg65 2.048 . S
O73 C66 1.195 . S
O74 Mg65 2.048 1_455 S
O74 C75 1.195 . S
C75 O74 1.195 . S
C75 O76 1.313 . S
O76 C75 1.313 . S
O77 Mg65 2.141 . S
O77 C68 1.289 . S
Mg78 O85 2.141 . S
Mg78 O86 2.048 1_554 S
Mg78 O87 2.048 . S
Mg78 O90 2.141 . S
C79 O80 1.313 . S
C79 O86 1.195 . S
O80 C79 1.313 . S
C81 O82 1.245 . S
C81 O90 1.289 . S
O82 C81 1.245 . S
C83 O84 1.245 1_554 S
C83 O85 1.289 1_455 S
O84 C83 1.245 1_556 S
O85 Mg78 2.141 . S
O85 C83 1.289 1_655 S
O86 Mg78 2.048 1_556 S
O86 C79 1.195 . S
O87 Mg78 2.048 . S
O87 C88 1.190 1_554 S
C88 O87 1.190 1_556 S
C88 O89 1.313 . S
O89 C88 1.313 . S
O90 Mg78 2.141 . S
O90 C81 1.289 . S
Mg91 O98 2.141 . S
Mg91 O99 2.048 1_554 S
Mg91 O100 2.048 1_655 S
Mg91 O103 2.141 . S
C92 O93 1.313 . S
C92 O99 1.195 . S
O93 C92 1.313 . S
C94 O95 1.245 . S
C94 O103 1.289 . S
O95 C94 1.245 . S
C96 O97 1.245 1_554 S
C96 O98 1.289 . S
O97 C96 1.245 1_556 S
O98 Mg91 2.141 . S
O98 C96 1.289 . S
O99 Mg91 2.048 1_556 S
O99 C92 1.195 . S
O100 Mg91 2.048 1_455 S
O100 C101 1.190 1_554 S
C101 O100 1.190 1_556 S
C101 O102 1.313 . S
O102 C101 1.313 . S
O103 Mg91 2.141 . S
O103 C94 1.289 . S
Mg104 O111 2.141 . S
Mg104 O112 2.048 . S
Mg104 O113 2.048 . S
Mg104 O116 2.141 . S
C105 O106 1.313 . S
C105 O112 1.195 . S
O106 C105 1.313 . S
C107 O108 1.245 . S
C107 O116 1.289 . S
O108 C107 1.245 . S
C109 O110 1.245 . S
C109 O111 1.289 . S
O110 C109 1.245 . S
O111 Mg104 2.141 . S
O111 C109 1.289 . S
O112 Mg104 2.048 . S
O112 C105 1.195 . S
O113 Mg104 2.048 . S
O113 C114 1.195 . S
C114 O113 1.195 . S
C114 O115 1.313 . S
O115 C114 1.313 . S
O116 Mg104 2.141 . S
O116 C107 1.289 . S
Mg117 O124 2.141 . S
Mg117 O125 2.048 . S
Mg117 O126 2.048 . S
Mg117 O129 2.141 . S
C118 O119 1.313 . S
C118 O125 1.195 . S
O119 C118 1.313 . S
C120 O121 1.245 . S
C120 O129 1.289 . S
O121 C120 1.245 . S
C122 O123 1.245 . S
C122 O124 1.289 . S
O123 C122 1.245 . S
O124 Mg117 2.141 . S
O124 C122 1.289 . S
O125 Mg117 2.048 . S
O125 C118 1.195 . S
O126 Mg117 2.048 . S
O126 C127 1.195 1_455 S
C127 O126 1.195 1_655 S
C127 O128 1.313 . S
O128 C127 1.313 . S
O129 Mg117 2.141 . S
O129 C120 1.289 . S
Mg130 O137 2.141 . S
Mg130 O138 2.048 . S
Mg130 O139 2.048 . S
Mg130 O142 2.141 . S
C131 O132 1.313 . S
C131 O138 1.195 . S
O132 C131 1.313 . S
C133 O134 1.245 . S
C133 O142 1.289 . S
O134 C133 1.245 . S
C135 O136 1.245 . S
C135 O137 1.289 . S
O136 C135 1.245 . S
O137 Mg130 2.141 . S
O137 C135 1.289 . S
O138 Mg130 2.048 . S
O138 C131 1.195 . S
O139 Mg130 2.048 . S
O139 C140 1.195 . S
C140 O139 1.195 . S
C140 O141 1.313 . S
O141 C140 1.313 . S
O142 Mg130 2.141 . S
O142 C133 1.289 . S
Mg143 O150 2.141 . S
Mg143 O151 2.048 . S
Mg143 O152 2.048 . S
Mg143 O155 2.141 . S
C144 O145 1.313 . S
C144 O151 1.195 . S
O145 C144 1.313 . S
C146 O147 1.245 . S
C146 O155 1.289 . S
O147 C146 1.245 . S
C148 O149 1.245 . S
C148 O150 1.289 . S
O149 C148 1.245 . S
O150 Mg143 2.141 . S
O150 C148 1.289 . S
O151 Mg143 2.048 . S
O151 C144 1.195 . S
O152 Mg143 2.048 . S
O152 C153 1.195 1_455 S
C153 O152 1.195 1_655 S
C153 O154 1.313 . S
O154 C153 1.313 . S
O155 Mg143 2.141 . S
O155 C146 1.289 . S
Mg156 O163 2.141 . S
Mg156 O164 2.048 . S
Mg156 O165 2.048 . S
Mg156 O168 2.141 . S
C157 O158 1.313 . S
C157 O164 1.195 . S
O158 C157 1.313 . S
C159 O160 1.245 . S
C159 O168 1.289 . S
O160 C159 1.245 . S
C161 O162 1.245 . S
C161 O163 1.289 1_455 S
O162 C161 1.245 . S
O163 Mg156 2.141 . S
O163 C161 1.289 1_655 S
O164 Mg156 2.048 . S
O164 C157 1.195 . S
O165 Mg156 2.048 . S
O165 C166 1.195 . S
C166 O165 1.195 . S
C166 O167 1.313 . S
O167 C166 1.313 . S
O168 Mg156 2.141 . S
O168 C159 1.289 . S
Mg169 O176 2.141 . S
Mg169 O177 2.048 . S
Mg169 O178 2.048 1_655 S
Mg169 O181 2.141 . S
C170 O171 1.313 . S
C170 O177 1.195 . S
O171 C170 1.313 . S
C172 O173 1.245 . S
C172 O181 1.289 . S
O173 C172 1.245 . S
C174 O175 1.245 . S
C174 O176 1.289 . S
O175 C174 1.245 . S
O176 Mg169 2.141 . S
O176 C174 1.289 . S
O177 Mg169 2.048 . S
O177 C170 1.195 . S
O178 Mg169 2.048 1_455 S
O178 C179 1.195 . S
C179 O178 1.195 . S
C179 O180 1.313 . S
O180 C179 1.313 . S
O181 Mg169 2.141 . S
O181 C172 1.289 . S
Mg182 O189 2.141 . S
Mg182 O190 2.048 . S
Mg182 O191 2.048 . S
Mg182 O194 2.141 . S
C183 O184 1.313 . S
C183 O190 1.195 . S
O184 C183 1.313 . S
C185 O186 1.245 . S
C185 O194 1.289 . S
O186 C185 1.245 . S
C187 O188 1.245 . S
C187 O189 1.289 1_455 S
O188 C187 1.245 . S
O189 Mg182 2.141 . S
O189 C187 1.289 1_655 S
O190 Mg182 2.048 . S
O190 C183 1.195 . S
O191 Mg182 2.048 . S
O191 C192 1.195 . S
C192 O191 1.195 . S
C192 O193 1.313 . S
O193 C192 1.313 . S
O194 Mg182 2.141 . S
O194 C185 1.289 . S
Mg195 O202 2.141 . S
Mg195 O203 2.048 . S
Mg195 O204 2.048 1_655 S
Mg195 O207 2.141 . S
C196 O197 1.313 . S
C196 O203 1.195 . S
O197 C196 1.313 . S
C198 O199 1.245 . S
C198 O207 1.289 . S
O199 C198 1.245 . S
C200 O201 1.245 . S
C200 O202 1.289 . S
O201 C200 1.245 . S
O202 Mg195 2.141 . S
O202 C200 1.289 . S
O203 Mg195 2.048 . S
O203 C196 1.195 . S
O204 Mg195 2.048 1_455 S
O204 C205 1.195 . S
C205 O204 1.195 . S
C205 O206 1.313 . S
O206 C205 1.313 . S
O207 Mg195 2.141 . S
O207 C198 1.289 . S
Mg208 O215 2.141 . S
Mg208 O216 2.048 . S
Mg208 O217 2.048 . S
Mg208 O220 2.141 . S
C209 O210 1.313 . S
C209 O216 1.195 . S
O210 C209 1.313 . S
C211 O212 1.245 . S
C211 O220 1.289 . S
O212 C211 1.245 . S
C213 O214 1.245 . S
C213 O215 1.289 . S
O214 C213 1.245 . S
O215 Mg208 2.141 . S
O215 C213 1.289 . S
O216 Mg208 2.048 . S
O216 C209 1.195 . S
O217 Mg208 2.048 . S
O217 C218 1.195 . S
C218 O217 1.195 . S
C218 O219 1.313 . S
O219 C218 1.313 . S
O220 Mg208 2.141 . S
O220 C211 1.289 . S
Mg221 O228 2.141 . S
Mg221 O229 2.048 . S
Mg221 O230 2.048 . S
Mg221 O233 2.141 . S
C222 O223 1.313 . S
C222 O229 1.195 . S
O223 C222 1.313 . S
C224 O225 1.245 . S
C224 O233 1.289 . S
O225 C224 1.245 . S
C226 O227 1.245 . S
C226 O228 1.289 . S
O227 C226 1.245 . S
O228 Mg221 2.141 . S
O228 C226 1.289 . S
O229 Mg221 2.048 . S
O229 C222 1.195 . S
O230 Mg221 2.048 . S
O230 C231 1.195 . S
C231 O230 1.195 . S
C231 O232 1.313 . S
O232 C231 1.313 . S
O233 Mg221 2.141 . S
O233 C224 1.289 . S
Mg234 O241 2.141 . S
Mg234 O242 2.048 . S
Mg234 O243 2.048 . S
Mg234 O246 2.141 . S
C235 O236 1.313 . S
C235 O242 1.195 . S
O236 C235 1.313 . S
C237 O238 1.245 . S
C237 O246 1.289 . S
O238 C237 1.245 . S
C239 O240 1.245 . S
C239 O241 1.289 . S
O240 C239 1.245 . S
O241 Mg234 2.141 . S
O241 C239 1.289 . S
O242 Mg234 2.048 . S
O242 C235 1.195 . S
O243 Mg234 2.048 . S
O243 C244 1.195 . S
C244 O243 1.195 . S
C244 O245 1.313 . S
O245 C244 1.313 . S
O246 Mg234 2.141 . S
O246 C237 1.289 . S
Mg247 O254 2.141 . S
Mg247 O255 2.048 . S
Mg247 O256 2.048 . S
Mg247 O259 2.141 . S
C248 O249 1.313 . S
C248 O255 1.195 . S
O249 C248 1.313 . S
C250 O251 1.245 . S
C250 O259 1.289 . S
O251 C250 1.245 . S
C252 O253 1.245 . S
C252 O254 1.289 . S
O253 C252 1.245 . S
O254 Mg247 2.141 . S
O254 C252 1.289 . S
O255 Mg247 2.048 . S
O255 C248 1.195 . S
O256 Mg247 2.048 . S
O256 C257 1.195 . S
C257 O256 1.195 . S
C257 O258 1.313 . S
O258 C257 1.313 . S
O259 Mg247 2.141 . S
O259 C250 1.289 . S
Mg260 O267 2.141 . S
Mg260 O268 2.048 . S
Mg260 O269 2.048 . S
Mg260 O272 2.141 . S
C261 O262 1.313 . S
C261 O268 1.195 . S
O262 C261 1.313 . S
C263 O264 1.245 . S
C263 O272 1.289 . S
O264 C263 1.245 . S
C265 O266 1.245 . S
C265 O267 1.289 . S
O266 C265 1.245 . S
O267 Mg260 2.141 . S
O267 C265 1.289 . S
O268 Mg260 2.048 . S
O268 C261 1.195 . S
O269 Mg260 2.048 . S
O269 C270 1.195 . S
C270 O269 1.195 . S
C270 O271 1.313 . S
O271 C270 1.313 . S
O272 Mg260 2.141 . S
O272 C263 1.289 . S
Mg273 O280 2.141 . S
Mg273 O281 2.048 . S
Mg273 O282 2.048 . S
Mg273 O285 2.141 . S
C274 O275 1.313 . S
C274 O281 1.195 . S
O275 C274 1.313 . S
C276 O277 1.245 . S
C276 O285 1.289 . S
O277 C276 1.245 . S
C278 O279 1.245 . S
C278 O280 1.289 . S
O279 C278 1.245 . S
O280 Mg273 2.141 . S
O280 C278 1.289 . S
O281 Mg273 2.048 . S
O281 C274 1.195 . S
O282 Mg273 2.048 . S
O282 C283 1.195 . S
C283 O282 1.195 . S
C283 O284 1.313 . S
O284 C283 1.313 . S
O285 Mg273 2.141 . S
O285 C276 1.289 . S
Mg286 O293 2.141 . S
Mg286 O294 2.048 . S
Mg286 O295 2.048 . S
Mg286 O298 2.141 . S
C287 O288 1.313 . S
C287 O294 1.195 . S
O288 C287 1.313 . S
C289 O290 1.245 . S
C289 O298 1.289 . S
O290 C289 1.245 . S
C291 O292 1.245 . S
C291 O293 1.289 . S
O292 C291 1.245 . S
O293 Mg286 2.141 . S
O293 C291 1.289 . S
O294 Mg286 2.048 . S
O294 C287 1.195 . S
O295 Mg286 2.048 . S
O295 C296 1.195 . S
C296 O295 1.195 . S
C296 O297 1.313 . S
O297 C296 1.313 . S
O298 Mg286 2.141 . S
O298 C289 1.289 . S
Mg299 O306 2.141 . S
Mg299 O307 2.048 . S
Mg299 O308 2.048 . S
Mg299 O311 2.141 . S
C300 O301 1.313 . S
C300 O307 1.195 . S
O301 C300 1.313 . S
C302 O303 1.245 . S
C302 O311 1.289 . S
O303 C302 1.245 . S
C304 O305 1.245 . S
C304 O306 1.289 . S
O305 C304 1.245 . S
O306 Mg299 2.141 . S
O306 C304 1.289 . S
O307 Mg299 2.048 . S
O307 C300 1.195 . S
O308 Mg299 2.048 . S
O308 C309 1.195 . S
C309 O308 1.195 . S
C309 O310 1.313 . S
O310 C309 1.313 . S
O311 Mg299 2.141 . S
O311 C302 1.289 . S
Mg312 O319 2.141 . S
Mg312 O320 2.048 . S
Mg312 O321 2.048 . S
Mg312 O324 2.141 . S
C313 O314 1.313 . S
C313 O320 1.195 . S
O314 C313 1.313 . S
C315 O316 1.245 . S
C315 O324 1.289 . S
O316 C315 1.245 . S
C317 O318 1.245 . S
C317 O319 1.289 . S
O318 C317 1.245 . S
O319 Mg312 2.141 . S
O319 C317 1.289 . S
O320 Mg312 2.048 . S
O320 C313 1.195 . S
O321 Mg312 2.048 . S
O321 C322 1.195 . S
C322 O321 1.195 . S
C322 O323 1.313 . S
O323 C322 1.313 . S
O324 Mg312 2.141 . S
O324 C315 1.289 . S
Mg325 O332 2.141 . S
Mg325 O333 2.048 . S
Mg325 O334 2.048 . S
Mg325 O337 2.141 . S
C326 O327 1.313 . S
C326 O333 1.195 . S
O327 C326 1.313 . S
C328 O329 1.245 . S
C328 O337 1.289 . S
O329 C328 1.245 . S
C330 O331 1.245 . S
C330 O332 1.289 . S
O331 C330 1.245 . S
O332 Mg325 2.141 . S
O332 C330 1.289 . S
O333 Mg325 2.048 . S
O333 C326 1.195 . S
O334 Mg325 2.048 . S
O334 C335 1.195 . S
C335 O334 1.195 . S
C335 O336 1.313 . S
O336 C335 1.313 . S
O337 Mg325 2.141 . S
O337 C328 1.289 . S
Mg338 O345 2.141 1_554 S
Mg338 O346 2.056 . S
Mg338 O347 2.048 . S
Mg338 O350 2.133 1_554 S
C339 O340 1.313 . S
C339 O346 1.195 . S
O340 C339 1.313 . S
C341 O342 1.245 . S
C341 O350 1.289 . S
O342 C341 1.245 . S
C343 O344 1.245 . S
C343 O345 1.289 . S
O344 C343 1.245 . S
O345 Mg338 2.141 1_556 S
O345 C343 1.289 . S
O346 Mg338 2.056 . S
O346 C339 1.195 . S
O347 Mg338 2.048 . S
O347 C348 1.195 . S
C348 O347 1.195 . S
C348 O349 1.313 . S
O349 C348 1.313 . S
O350 Mg338 2.133 1_556 S
O350 C341 1.289 . S
Mg351 O358 2.141 1_554 S
Mg351 O359 2.056 . S
Mg351 O360 2.048 . S
Mg351 O363 2.133 1_554 S
C352 O353 1.313 . S
C352 O359 1.195 . S
O353 C352 1.313 . S
C354 O355 1.245 . S
C354 O363 1.289 . S
O355 C354 1.245 . S
C356 O357 1.245 . S
C356 O358 1.289 . S
O357 C356 1.245 . S
O358 Mg351 2.141 1_556 S
O358 C356 1.289 . S
O359 Mg351 2.056 . S
O359 C352 1.195 . S
O360 Mg351 2.048 . S
O360 C361 1.195 . S
C361 O360 1.195 . S
C361 O362 1.313 . S
O362 C361 1.313 . S
O363 Mg351 2.133 1_556 S
O363 C354 1.289 . S
Mg364 O371 2.141 . S
Mg364 O372 2.048 . S
Mg364 O373 2.048 . S
Mg364 O376 2.141 . S
C365 O366 1.313 . S
C365 O372 1.195 . S
O366 C365 1.313 . S
C367 O368 1.245 . S
C367 O376 1.289 . S
O368 C367 1.245 . S
C369 O370 1.245 . S
C369 O371 1.289 . S
O370 C369 1.245 . S
O371 Mg364 2.141 . S
O371 C369 1.289 . S
O372 Mg364 2.048 . S
O372 C365 1.195 . S
O373 Mg364 2.048 . S
O373 C374 1.195 . S
C374 O373 1.195 . S
C374 O375 1.313 . S
O375 C374 1.313 . S
O376 Mg364 2.141 . S
O376 C367 1.289 . S
Mg377 O384 2.141 . S
Mg377 O385 2.048 . S
Mg377 O386 2.048 . S
Mg377 O389 2.141 . S
C378 O379 1.313 . S
C378 O385 1.195 . S
O379 C378 1.313 . S
C380 O381 1.245 . S
C380 O389 1.289 . S
O381 C380 1.245 . S
C382 O383 1.245 . S
C382 O384 1.289 . S
O383 C382 1.245 . S
O384 Mg377 2.141 . S
O384 C382 1.289 . S
O385 Mg377 2.048 . S
O385 C378 1.195 . S
O386 Mg377 2.048 . S
O386 C387 1.195 . S
C387 O386 1.195 . S
C387 O388 1.313 . S
O388 C387 1.313 . S
O389 Mg377 2.141 . S
O389 C380 1.289 . S
Mg390 O397 2.141 . S
Mg390 O398 2.048 1_554 S
Mg390 O399 2.048 . S
Mg390 O402 2.141 . S
C391 O392 1.313 . S
C391 O398 1.195 . S
O392 C391 1.313 . S
C393 O394 1.245 . S
C393 O402 1.289 . S
O394 C393 1.245 . S
C395 O396 1.245 1_554 S
C395 O397 1.289 . S
O396 C395 1.245 1_556 S
O397 Mg390 2.141 . S
O397 C395 1.289 . S
O398 Mg390 2.048 1_556 S
O398 C391 1.195 . S
O399 Mg390 2.048 . S
O399 C400 1.190 1_554 S
C400 O399 1.190 1_556 S
C400 O401 1.313 . S
O401 C400 1.313 . S
O402 Mg390 2.141 . S
O402 C393 1.289 . S
Mg403 O410 2.141 . S
Mg403 O411 2.048 1_554 S
Mg403 O412 2.048 . S
Mg403 O415 2.141 . S
C404 O405 1.313 . S
C404 O411 1.195 . S
O405 C404 1.313 . S
C406 O407 1.245 . S
C406 O415 1.289 . S
O407 C406 1.245 . S
C408 O409 1.245 1_554 S
C408 O410 1.289 . S
O409 C408 1.245 1_556 S
O410 Mg403 2.141 . S
O410 C408 1.289 . S
O411 Mg403 2.048 1_556 S
O411 C404 1.195 . S
O412 Mg403 2.048 . S
O412 C413 1.190 1_554 S
C413 O412 1.190 1_556 S
C413 O414 1.313 . S
O414 C413 1.313 . S
O415 Mg403 2.141 . S
O415 C406 1.289 . S
C1 C40 1.799 . S
C27 C14 1.799 . S
C53 C92 1.623 . S
C79 C66 1.623 . S
C105 C144 1.751 . S
C131 C118 1.751 . S
C157 C196 1.571 . S
C170 C183 1.571 . S
C248 C209 1.751 . S
C222 C235 1.751 . S
C261 C300 1.572 . S
C287 C274 1.571 . S
C313 C352 1.799 . S
C339 C326 1.799 . S
C365 C404 1.623 . S
C378 C391 1.623 . S
C161 C5 2.548 . S
C18 C278 2.548 1_565 S
C31 C83 2.445 1_566 S
C408 C44 2.445 1_554 S
C57 C109 2.549 . S
C226 C70 2.549 1_565 S
C356 C96 2.445 1_556 S
C382 C122 2.549 . S
C187 C135 2.449 . S
C304 C148 2.449 . S
C174 C330 2.548 . S
C252 C200 2.449 . S
C369 C213 2.549 . S
C291 C239 2.449 1_545 S
C317 C265 2.548 . S
C343 C395 2.445 1_556 S
C133 C3 1.943 . S
C16 C146 1.943 . S
C107 C29 1.915 . S
C120 C42 1.915 . S
C55 C185 1.644 . S
C68 C198 1.644 . S
C159 C81 1.602 . S
C94 C172 1.602 . S
C341 C211 1.915 . S
C354 C224 1.915 . S
C237 C315 1.943 . S
C250 C328 1.943 . S
C263 C393 1.601 . S
C276 C406 1.602 . S
C367 C289 1.644 . S
C380 C302 1.644 . S
C10 C335 2.473 . S
C322 C23 2.473 . S
C36 C361 2.363 . S
C49 C348 2.363 . S
C62 C387 2.926 . S
C75 C374 2.926 . S
C413 C88 2.808 . S
C400 C101 2.808 . S
C231 C114 2.462 . S
C218 C127 2.462 . S
C140 C257 2.372 . S
C153 C244 2.372 . S
C283 C166 2.914 . S
C179 C270 2.914 . S
C192 C309 2.817 . S
C205 C296 2.817 . S
