# Generated by pormake.
# Topology ukt, (4)-cn, num edge types: 1
# Building blocks:
#     Node 0, Type 0, BuildingBlock: GALJAG_clean_sbu_0, # of connection points: 4
#     Node 1, Type 0, BuildingBlock: GALJAG_clean_sbu_0, # of connection points: 4
#     Node 2, Type 0, BuildingBlock: GALJAG_clean_sbu_0, # of connection points: 4
#     Node 3, Type 0, BuildingBlock: GALJAG_clean_sbu_0, # of connection points: 4
#     Node 4, Type 0, BuildingBlock: GALJAG_clean_sbu_0, # of connection points: 4
#     Node 5, Type 0, BuildingBlock: GALJAG_clean_sbu_0, # of connection points: 4
#     Node 6, Type 0, BuildingBlock: GALJAG_clean_sbu_0, # of connection points: 4
#     Node 7, Type 0, BuildingBlock: GALJAG_clean_sbu_0, # of connection points: 4
#     Node 8, Type 0, BuildingBlock: GALJAG_clean_sbu_0, # of connection points: 4
#     Node 9, Type 0, BuildingBlock: GALJAG_clean_sbu_0, # of connection points: 4
#     Node 10, Type 0, BuildingBlock: GALJAG_clean_sbu_0, # of connection points: 4
#     Node 11, Type 0, BuildingBlock: GALJAG_clean_sbu_0, # of connection points: 4
#     Node 12, Type 0, BuildingBlock: GALJAG_clean_sbu_0, # of connection points: 4
#     Node 13, Type 0, BuildingBlock: GALJAG_clean_sbu_0, # of connection points: 4
#     Node 14, Type 0, BuildingBlock: GALJAG_clean_sbu_0, # of connection points: 4
#     Node 15, Type 0, BuildingBlock: GALJAG_clean_sbu_0, # of connection points: 4
#     Edge 16, Type (0, 0), BuildingBlock: XIVTED_clean_linker_0, # of connection points: 2
#     Edge 17, Type (0, 0), BuildingBlock: XIVTED_clean_linker_0, # of connection points: 2
#     Edge 18, Type (0, 0), BuildingBlock: XIVTED_clean_linker_0, # of connection points: 2
#     Edge 19, Type (0, 0), BuildingBlock: XIVTED_clean_linker_0, # of connection points: 2
#     Edge 20, Type (0, 0), BuildingBlock: XIVTED_clean_linker_0, # of connection points: 2
#     Edge 21, Type (0, 0), BuildingBlock: XIVTED_clean_linker_0, # of connection points: 2
#     Edge 22, Type (0, 0), BuildingBlock: XIVTED_clean_linker_0, # of connection points: 2
#     Edge 23, Type (0, 0), BuildingBlock: XIVTED_clean_linker_0, # of connection points: 2
#     Edge 24, Type (0, 0), BuildingBlock: XIVTED_clean_linker_0, # of connection points: 2
#     Edge 25, Type (0, 0), BuildingBlock: XIVTED_clean_linker_0, # of connection points: 2
#     Edge 26, Type (0, 0), BuildingBlock: XIVTED_clean_linker_0, # of connection points: 2
#     Edge 27, Type (0, 0), BuildingBlock: XIVTED_clean_linker_0, # of connection points: 2
#     Edge 28, Type (0, 0), BuildingBlock: XIVTED_clean_linker_0, # of connection points: 2
#     Edge 29, Type (0, 0), BuildingBlock: XIVTED_clean_linker_0, # of connection points: 2
#     Edge 30, Type (0, 0), BuildingBlock: XIVTED_clean_linker_0, # of connection points: 2
#     Edge 31, Type (0, 0), BuildingBlock: XIVTED_clean_linker_0, # of connection points: 2
#     Edge 32, Type (0, 0), BuildingBlock: XIVTED_clean_linker_0, # of connection points: 2
#     Edge 33, Type (0, 0), BuildingBlock: XIVTED_clean_linker_0, # of connection points: 2
#     Edge 34, Type (0, 0), BuildingBlock: XIVTED_clean_linker_0, # of connection points: 2
#     Edge 35, Type (0, 0), BuildingBlock: XIVTED_clean_linker_0, # of connection points: 2
#     Edge 36, Type (0, 0), BuildingBlock: XIVTED_clean_linker_0, # of connection points: 2
#     Edge 37, Type (0, 0), BuildingBlock: XIVTED_clean_linker_0, # of connection points: 2
#     Edge 38, Type (0, 0), BuildingBlock: XIVTED_clean_linker_0, # of connection points: 2
#     Edge 39, Type (0, 0), BuildingBlock: XIVTED_clean_linker_0, # of connection points: 2
#     Edge 40, Type (0, 0), BuildingBlock: XIVTED_clean_linker_0, # of connection points: 2
#     Edge 41, Type (0, 0), BuildingBlock: XIVTED_clean_linker_0, # of connection points: 2
#     Edge 42, Type (0, 0), BuildingBlock: XIVTED_clean_linker_0, # of connection points: 2
#     Edge 43, Type (0, 0), BuildingBlock: XIVTED_clean_linker_0, # of connection points: 2
#     Edge 44, Type (0, 0), BuildingBlock: XIVTED_clean_linker_0, # of connection points: 2
#     Edge 45, Type (0, 0), BuildingBlock: XIVTED_clean_linker_0, # of connection points: 2
#     Edge 46, Type (0, 0), BuildingBlock: XIVTED_clean_linker_0, # of connection points: 2
#     Edge 47, Type (0, 0), BuildingBlock: XIVTED_clean_linker_0, # of connection points: 2
# Relax obj value: 0.210
# Max RMSD: 0.110
# Mean RMSD: 0.110
data_MOF--net-ukt--node1-GALJAG_clean_sbu_0--edge1-XIVTED_clean_linker_0
_symmetry_space_group_name_H-M    P1
_symmetry_Int_Tables_number       1
_symmetry_cell_setting            triclinic
loop_
_symmetry_equiv_pos_as_xyz
'x, y, z'
_cell_length_a     42.496934
_cell_length_b     42.422846
_cell_length_c     34.652358
_cell_angle_alpha  89.805232
_cell_angle_beta   89.864957
_cell_angle_gamma 90.059026
loop_
_atom_site_label
_atom_site_type_symbol
_atom_site_fract_x
_atom_site_fract_y
_atom_site_fract_z
_atom_type_partial_charge
In0 In 0.52872 0.15801 0.09319 0.0
O1 O 0.57943 0.14585 0.11106 0.0
O2 O 0.57148 0.16372 0.05468 0.0
C3 C 0.50297 0.17204 0.16199 0.0
C4 C 0.5072 0.10138 0.07033 0.0
C5 C 0.51905 0.21216 0.05502 0.0
O6 O 0.53137 0.16401 0.15818 0.0
O7 O 0.48714 0.17193 0.13125 0.0
O8 O 0.51227 0.18569 0.04055 0.0
O9 O 0.53013 0.21116 0.08882 0.0
C10 C 0.59107 0.15366 0.07889 0.0
O11 O 0.49629 0.12686 0.05722 0.0
O12 O 0.52771 0.10459 0.09613 0.0
In13 In 0.35651 0.54058 0.12338 0.0
O14 O 0.37941 0.58943 0.13183 0.0
O15 O 0.36424 0.5754 0.07589 0.0
C16 C 0.34313 0.51677 0.1933 0.0
C17 C 0.40573 0.50972 0.09379 0.0
C18 C 0.29715 0.5471 0.0993 0.0
O19 O 0.35521 0.54384 0.18891 0.0
O20 O 0.33967 0.50118 0.16259 0.0
O21 O 0.31556 0.52715 0.08425 0.0
O22 O 0.30867 0.56312 0.12649 0.0
C23 C 0.37759 0.59598 0.09619 0.0
O24 O 0.37809 0.50585 0.08117 0.0
O25 O 0.40769 0.5263 0.12386 0.0
In26 In 0.94621 0.32097 0.02716 0.0
O27 O 0.90741 0.35569 0.04366 0.0
O28 O 0.8939 0.31232 0.01827 0.0
C29 C 0.95822 0.28164 0.0869 0.0
C30 C 0.97591 0.37684 0.02192 0.0
C31 C 0.95472 0.28893 0.96091 0.0
O32 O 0.93179 0.28392 0.07085 0.0
O33 O 0.9791 0.2998 0.07336 0.0
O34 O 0.97194 0.28446 0.99012 0.0
O35 O 0.93461 0.3105 0.96478 0.0
C36 C 0.88535 0.33864 0.03134 0.0
O37 O 0.97497 0.35756 0.9943 0.0
O38 O 0.96408 0.3668 0.05307 0.0
In39 In 0.14675 0.9588 0.0566 0.0
O40 O 0.12099 0.98378 0.00831 0.0
O41 O 0.11124 -0.0021 0.06596 0.0
C42 C 0.18715 0.92707 0.01127 0.0
C43 C 0.10644 0.91243 0.07669 0.0
C44 C 0.18551 0.989 0.10536 0.0
O45 O 0.17737 0.95428 0.00251 0.0
O46 O 0.1762 0.91601 0.04235 0.0
O47 O 0.16076 0.97531 0.1167 0.0
O48 O 0.19014 0.98821 0.06945 0.0
C49 C 0.10444 0.00042 0.03066 0.0
O50 O 0.13022 0.91903 0.097 0.0
O51 O 0.10329 0.92913 0.04684 0.0
In52 In 0.53911 0.3466 0.4323 0.0
O53 O 0.58079 0.35893 0.39245 0.0
O54 O 0.56853 0.39089 0.43702 0.0
C55 C 0.5074 0.31005 0.38204 0.0
C56 C 0.49988 0.38963 0.46221 0.0
C57 C 0.56815 0.30555 0.47977 0.0
O58 O 0.52019 0.33568 0.37211 0.0
O59 O 0.50991 0.30336 0.41731 0.0
O60 O 0.54054 0.3153 0.48601 0.0
O61 O 0.58108 0.31677 0.44993 0.0
C62 C 0.58654 0.38471 0.4092 0.0
O63 O 0.51783 0.37292 0.48278 0.0
O64 O 0.50007 0.38291 0.42675 0.0
In65 In 0.16169 0.5328 0.47127 0.0
O66 O 0.16511 0.58211 0.44449 0.0
O67 O 0.12082 0.567 0.46592 0.0
C68 C 0.20299 0.51075 0.41822 0.0
C69 C 0.1128 0.49404 0.48584 0.0
C70 C 0.19346 0.5479 0.53566 0.0
O71 O 0.17518 0.51837 0.40978 0.0
O72 O 0.20966 0.51338 0.45342 0.0
O73 O 0.19238 0.51989 0.52324 0.0
O74 O 0.178 0.56763 0.51613 0.0
C75 C 0.13664 0.58887 0.45071 0.0
O76 O 0.12876 0.50659 0.51226 0.0
O77 O 0.12328 0.49882 0.45228 0.0
In78 In 0.94907 0.12599 0.39157 0.0
O79 O 0.98788 0.11087 0.43274 0.0
O80 O 0.97603 0.08029 0.38641 0.0
C81 C 0.92898 0.18017 0.42277 0.0
C82 C 0.9006 0.0908 0.41657 0.0
C83 C 0.96507 0.14519 0.32007 0.0
O84 O 0.95635 0.16971 0.42925 0.0
O85 O 0.91269 0.1638 0.40003 0.0
O86 O 0.94285 0.12606 0.32649 0.0
O87 O 0.98019 0.15354 0.34967 0.0
C88 C 0.99134 0.08416 0.41723 0.0
O89 O 0.90351 0.098 0.38124 0.0
O90 O 0.92176 0.10147 0.43831 0.0
In91 In 0.35307 0.95878 0.38138 0.0
O92 O 0.38698 0.91729 0.37774 0.0
O93 O 0.33816 0.90708 0.37731 0.0
C94 C 0.3342 0.98599 0.3151 0.0
C95 C 0.40308 0.98984 0.40945 0.0
C96 C 0.30589 0.95876 0.43317 0.0
O97 O 0.34547 0.9585 0.31632 0.0
O98 O 0.33345 6e-05 0.34705 0.0
O99 O 0.33312 0.94898 0.44129 0.0
O100 O 0.30264 0.96888 0.39913 0.0
C101 C 0.36585 0.89646 0.37759 0.0
O102 O 0.37699 0.98888 0.42673 0.0
O103 O 0.40344 0.9766 0.37696 0.0
In104 In 0.45392 0.83907 0.91432 0.0
O105 O 0.40609 0.85335 0.8889 0.0
O106 O 0.40785 0.83826 0.94732 0.0
C107 C 0.48383 0.82394 0.84837 0.0
C108 C 0.47699 0.89428 0.93995 0.0
C109 C 0.45511 0.78441 0.95336 0.0
O110 O 0.45623 0.83474 0.84927 0.0
O111 O 0.49699 0.82158 0.88086 0.0
O112 O 0.46377 0.81006 0.9685 0.0
O113 O 0.44673 0.78642 0.91847 0.0
C114 C 0.39121 0.84803 0.91979 0.0
O115 O 0.48591 0.8682 0.95361 0.0
O116 O 0.45784 0.89224 0.91248 0.0
In117 In 0.63221 0.44747 0.89984 0.0
O118 O 0.60171 0.40376 0.88858 0.0
O119 O 0.60427 0.42226 0.9456 0.0
C120 C 0.65382 0.45981 0.82831 0.0
C121 C 0.59202 0.49216 0.92299 0.0
C122 C 0.68441 0.42695 0.93561 0.0
O123 O 0.63513 0.43742 0.83565 0.0
O124 O 0.66058 0.47691 0.85686 0.0
O125 O 0.6755 0.45529 0.93802 0.0
O126 O 0.66748 0.40967 0.91467 0.0
C127 C 0.59285 0.40178 0.92341 0.0
O128 O 0.61838 0.48795 0.93899 0.0
O129 O 0.58795 0.47649 0.89248 0.0
In130 In 0.04277 0.65871 0.97297 0.0
O131 O 0.09153 0.63797 0.96091 0.0
O132 O 0.07246 0.63437 0.01771 0.0
C133 C 0.04451 0.69251 0.90698 0.0
C134 C 0.00762 0.60598 0.97131 0.0
C135 C 0.03431 0.70592 0.02386 0.0
O136 O 0.06882 0.68624 0.92639 0.0
O137 O 0.01925 0.68121 0.92046 0.0
O138 O 0.01254 0.6973 0.00146 0.0
O139 O 0.05945 0.69053 0.02073 0.0
C140 C 0.09502 0.62832 0.99523 0.0
O141 O 0.00499 0.62611 0.99787 0.0
O142 O 0.02584 0.61391 0.94424 0.0
In143 In 0.83455 0.05715 0.91632 0.0
O144 O 0.86788 0.05863 0.9672 0.0
O145 O 0.87049 0.01912 0.92971 0.0
C146 C 0.79185 0.08452 0.9627 0.0
C147 C 0.86678 0.10263 0.8782 0.0
C148 C 0.80238 0.0168 0.87078 0.0
O149 O 0.80552 0.05913 0.97179 0.0
O150 O 0.79994 0.096 0.9305 0.0
O151 O 0.82492 0.03335 0.85855 0.0
O152 O 0.79646 0.02004 0.90611 0.0
C153 C 0.88193 0.03353 0.95828 0.0
O154 O 0.83762 0.10459 0.88477 0.0
O155 O 0.87912 0.07717 0.8891 0.0
In156 In 0.43666 0.66281 0.57365 0.0
O157 O 0.43631 0.62648 0.52592 0.0
O158 O 0.47269 0.62319 0.56764 0.0
C159 C 0.42105 0.70277 0.51651 0.0
C160 C 0.38447 0.64094 0.60946 0.0
C161 C 0.47347 0.69374 0.62488 0.0
O162 O 0.44849 0.6916 0.51989 0.0
O163 O 0.40164 0.69369 0.5419 0.0
O164 O 0.45999 0.66809 0.63273 0.0
O165 O 0.46889 0.70354 0.59109 0.0
C166 C 0.45957 0.61127 0.53848 0.0
O167 O 0.38815 0.66978 0.60152 0.0
O168 O 0.40745 0.62373 0.60062 0.0
In169 In 0.82532 0.44156 0.52992 0.0
O170 O 0.86456 0.4645 0.49501 0.0
O171 O 0.87002 0.46205 0.55585 0.0
C172 C 0.78768 0.45819 0.47073 0.0
C173 C 0.84224 0.38043 0.52717 0.0
C174 C 0.7889 0.44882 0.5931 0.0
O175 O 0.80667 0.43544 0.46919 0.0
O176 O 0.78906 0.47401 0.5015 0.0
O177 O 0.79145 0.42312 0.57525 0.0
O178 O 0.80539 0.47109 0.57966 0.0
C179 C 0.88216 0.46907 0.5237 0.0
O180 O 0.85841 0.40086 0.54451 0.0
O181 O 0.817 0.39061 0.51274 0.0
In182 In 0.06995 0.84613 0.59437 0.0
O183 O 0.03031 0.86728 0.55918 0.0
O184 O 0.04813 0.89422 0.60586 0.0
C185 C 0.07795 0.79452 0.55022 0.0
C186 C 0.12014 0.88036 0.57292 0.0
C187 C 0.06019 0.82266 0.66599 0.0
O188 O 0.051 0.80552 0.55741 0.0
O189 O 0.10032 0.8089 0.56612 0.0
O190 O 0.08567 0.83546 0.65576 0.0
O191 O 0.03908 0.82259 0.64045 0.0
C192 C 0.03046 0.89334 0.57665 0.0
O193 O 0.11809 0.86845 0.60637 0.0
O194 O 0.09738 0.87446 0.55084 0.0
In195 In 0.65251 0.04213 0.59365 0.0
O196 O 0.63005 0.08861 0.61351 0.0
O197 O 0.66428 0.09067 0.56919 0.0
C198 C 0.66433 0.01128 0.66008 0.0
C199 C 0.59898 0.02132 0.56119 0.0
C200 C 0.70666 0.03413 0.55524 0.0
O201 O 0.65909 0.04049 0.65851 0.0
O202 O 0.66278 -0.00276 0.62813 0.0
O203 O 0.68016 0.02994 0.53957 0.0
O204 O 0.70575 0.04213 0.59036 0.0
C205 C 0.64506 0.10553 0.58988 0.0
O206 O 0.62567 0.016 0.54682 0.0
O207 O 0.59942 0.03563 0.59293 0.0
H208 H 0.51583 0.21935 0.97661 0.0
H209 H 0.56236 0.40092 0.9921 0.0
H210 H 0.52132 0.27194 0.08274 0.0
H211 H 0.57611 0.346 0.88886 0.0
H212 H 0.53424 0.35685 0.02125 0.0
H213 H 0.52501 0.26828 0.94032 0.0
C214 C 0.51825 0.24131 0.99219 0.0
C215 C 0.5183 0.24168 0.03268 0.0
C216 C 0.54309 0.35445 0.99207 0.0
C217 C 0.52882 0.29735 0.99161 0.0
C218 C 0.55918 0.3796 0.97542 0.0
C219 C 0.57209 0.37677 0.93834 0.0
C220 C 0.54015 0.3261 0.97168 0.0
C221 C 0.56677 0.34891 0.91772 0.0
C222 C 0.52363 0.26913 0.97151 0.0
C223 C 0.52155 0.27063 0.05153 0.0
N224 N 0.55157 0.32434 0.93494 0.0
N225 N 0.52698 0.29726 0.03084 0.0
H226 H 0.14558 0.60746 0.95284 0.0
H227 H 0.2488 0.57383 0.13827 0.0
H228 H 0.10899 0.6121 0.069 0.0
H229 H 0.27351 0.53506 0.02735 0.0
H230 H 0.19792 0.5897 0.11237 0.0
H231 H 0.19355 0.58258 0.97809 0.0
C232 C 0.1476 0.60311 0.98356 0.0
C233 C 0.12348 0.61205 0.00895 0.0
C234 C 0.21427 0.5774 0.09374 0.0
C235 C 0.17791 0.58392 0.03781 0.0
C236 C 0.24331 0.56839 0.10851 0.0
C237 C 0.26526 0.55322 0.08483 0.0
C238 C 0.20739 0.57176 0.05477 0.0
C239 C 0.25705 0.54664 0.04651 0.0
C240 C 0.17482 0.58881 0.99788 0.0
C241 C 0.12709 0.60575 0.04843 0.0
N242 N 0.22882 0.55638 0.0324 0.0
N243 N 0.15392 0.59235 0.06167 0.0
H244 H 0.93086 0.10701 0.87655 0.0
H245 H 0.91632 0.29172 0.89805 0.0
H246 H 0.84664 0.16116 0.85587 0.0
H247 H 0.98841 0.23452 0.95073 0.0
H248 H 0.90141 0.24709 0.85772 0.0
H249 H 0.96124 0.1559 0.87831 0.0
C250 C 0.91889 0.12911 0.87113 0.0
C251 C 0.88604 0.13017 0.86714 0.0
C252 C 0.92108 0.24458 0.87732 0.0
C253 C 0.92062 0.18602 0.86935 0.0
C254 C 0.92969 0.27006 0.90029 0.0
C255 C 0.953 0.26644 0.9286 0.0
C256 C 0.93584 0.21535 0.88285 0.0
C257 C 0.96985 0.23807 0.92982 0.0
C258 C 0.93626 0.15701 0.87227 0.0
C259 C 0.87184 0.15938 0.85982 0.0
N260 N 0.96044 0.2133 0.9079 0.0
N261 N 0.88913 0.18626 0.86196 0.0
H262 H 0.35342 0.88659 0.87632 0.0
H263 H 0.21011 0.86824 0.02458 0.0
H264 H 0.3525 0.82422 0.9749 0.0
H265 H 0.22052 0.94831 0.94842 0.0
H266 H 0.25614 0.84413 0.99481 0.0
H267 H 0.29898 0.90191 0.89138 0.0
C268 C 0.34155 0.87575 0.90069 0.0
C269 C 0.35744 0.85443 0.92473 0.0
C270 C 0.24818 0.86682 0.98429 0.0
C271 C 0.29562 0.87159 0.94188 0.0
C272 C 0.22187 0.88058 0.00121 0.0
C273 C 0.21184 0.91053 0.98933 0.0
C274 C 0.26469 0.88316 0.95534 0.0
C275 C 0.22773 0.92529 0.95865 0.0
C276 C 0.31063 0.88456 0.90933 0.0
C277 C 0.34116 0.84105 0.95594 0.0
N278 N 0.25369 0.91161 0.94295 0.0
N279 N 0.31121 0.84997 0.96373 0.0
H280 H 0.62751 0.28206 0.47226 0.0
H281 H 0.59718 0.1407 0.62059 0.0
H282 H 0.5432 0.2731 0.5411 0.0
H283 H 0.67685 0.14658 0.54346 0.0
H284 H 0.58146 0.19385 0.60063 0.0
H285 H 0.65014 0.23728 0.50667 0.0
C286 C 0.61389 0.27085 0.49494 0.0
C287 C 0.5833 0.28102 0.50355 0.0
C288 C 0.60262 0.18366 0.58849 0.0
C289 C 0.60895 0.22958 0.5429 0.0
C290 C 0.61166 0.15341 0.59999 0.0
C291 C 0.63813 0.13915 0.58329 0.0
C292 C 0.62022 0.19965 0.56014 0.0
C293 C 0.65608 0.1566 0.55676 0.0
C294 C 0.62681 0.24526 0.51457 0.0
C295 C 0.56679 0.26581 0.53338 0.0
N296 N 0.64662 0.1858 0.54573 0.0
N297 N 0.5797 0.24059 0.55174 0.0
H298 H 0.32828 0.67142 0.61949 0.0
H299 H 0.23952 0.51364 0.57178 0.0
H300 H 0.37092 0.57924 0.62422 0.0
H301 H 0.1969 0.60586 0.56881 0.0
H302 H 0.28313 0.53536 0.60919 0.0
H303 H 0.27639 0.64659 0.61984 0.0
C304 C 0.3267 0.64598 0.62165 0.0
C305 C 0.35386 0.6273 0.62074 0.0
C306 C 0.26388 0.55072 0.60115 0.0
C307 C 0.29473 0.59871 0.62033 0.0
C308 C 0.23893 0.53827 0.57989 0.0
C309 C 0.21507 0.55819 0.56636 0.0
C310 C 0.26497 0.5833 0.60848 0.0
C311 C 0.21526 0.58984 0.57796 0.0
C312 C 0.29706 0.63177 0.62171 0.0
C313 C 0.35051 0.59449 0.62403 0.0
N314 N 0.24018 0.60157 0.59766 0.0
N315 N 0.32147 0.58118 0.62276 0.0
H316 H 0.89974 0.35545 0.5453 0.0
H317 H 0.86962 0.20291 0.41619 0.0
H318 H 0.81119 0.3327 0.49133 0.0
H319 H 0.95842 0.22153 0.47193 0.0
H320 H 0.84739 0.24912 0.44711 0.0
H321 H 0.92089 0.30482 0.52352 0.0
C322 C 0.88461 0.33956 0.52943 0.0
C323 C 0.85376 0.3483 0.51981 0.0
C324 C 0.87173 0.24318 0.45275 0.0
C325 C 0.87783 0.29076 0.4945 0.0
C326 C 0.88451 0.21682 0.43493 0.0
C327 C 0.91599 0.20853 0.44131 0.0
C328 C 0.89057 0.26161 0.47707 0.0
C329 C 0.93407 0.22726 0.46611 0.0
C330 C 0.89673 0.31078 0.51685 0.0
C331 C 0.83517 0.32696 0.49916 0.0
N332 N 0.92112 0.25311 0.48302 0.0
N333 N 0.84759 0.29931 0.48692 0.0
H334 H 0.17907 0.88437 0.60488 0.0
H335 H 0.24569 0.97876 0.42218 0.0
H336 H 0.12269 0.91844 0.51014 0.0
H337 H 0.30523 0.93157 0.50488 0.0
H338 H 0.20009 0.96666 0.46242 0.0
H339 H 0.22512 0.91084 0.57649 0.0
C340 C 0.17635 0.89777 0.57844 0.0
C341 C 0.1473 0.89887 0.55943 0.0
C342 C 0.22316 0.95923 0.47203 0.0
C343 C 0.1994 0.92909 0.52707 0.0
C344 C 0.24919 0.96619 0.44909 0.0
C345 C 0.27914 0.95569 0.45997 0.0
C346 C 0.22708 0.94146 0.50596 0.0
C347 C 0.28243 0.93978 0.4953 0.0
C348 C 0.20255 0.91278 0.56224 0.0
C349 C 0.14484 0.9166 0.52537 0.0
N350 N 0.25659 0.93275 0.51686 0.0
N351 N 0.1706 0.93081 0.51015 0.0
H352 H 0.44417 0.72586 0.92519 0.0
H353 H 0.40685 0.64693 0.13063 0.0
H354 H 0.45614 0.77642 0.032 0.0
H355 H 0.38108 0.60848 0.01989 0.0
H356 H 0.4313 0.69213 0.09707 0.0
H357 H 0.42909 0.67915 0.96166 0.0
C358 C 0.44396 0.72698 0.95642 0.0
C359 C 0.45105 0.75506 0.97563 0.0
C360 C 0.42028 0.67368 0.08032 0.0
C361 C 0.43319 0.7018 0.01773 0.0
C362 C 0.40628 0.64804 0.09941 0.0
C363 C 0.39173 0.6241 0.07801 0.0
C364 C 0.41988 0.67495 0.03975 0.0
C365 C 0.3918 0.62647 0.03764 0.0
C366 C 0.4352 0.70035 0.97729 0.0
C367 C 0.45069 0.75516 0.01616 0.0
N368 N 0.40564 0.65134 0.01994 0.0
N369 N 0.44149 0.72896 0.03598 0.0
H370 H 0.72817 0.45916 0.97845 0.0
H371 H 0.83379 0.30529 0.00904 0.0
H372 H 0.70331 0.36594 0.93931 0.0
H373 H 0.86327 0.39829 0.04388 0.0
H374 H 0.78235 0.32648 0.99208 0.0
H375 H 0.77486 0.43694 0.00998 0.0
C376 C 0.73249 0.43405 0.97664 0.0
C377 C 0.71212 0.41439 0.95592 0.0
C378 C 0.79991 0.34226 0.00381 0.0
C379 C 0.76505 0.38888 0.99195 0.0
C380 C 0.82924 0.33012 0.01364 0.0
C381 C 0.85285 0.35015 0.02745 0.0
C382 C 0.79425 0.37475 0.00747 0.0
C383 C 0.84569 0.38209 0.03309 0.0
C384 C 0.75904 0.42138 0.99468 0.0
C385 C 0.71859 0.38201 0.95464 0.0
N386 N 0.81709 0.39353 0.02259 0.0
N387 N 0.74454 0.37032 0.97223 0.0
H388 H 0.07002 0.71968 0.08639 0.0
H389 H 0.04952 0.90002 0.04433 0.0
H390 H -0.00331 0.75769 0.0142 0.0
H391 H 0.11699 0.8623 0.12496 0.0
H392 H 0.02162 0.84977 0.04523 0.0
H393 H 0.07866 0.77193 0.11346 0.0
C394 C 0.05517 0.73897 0.07698 0.0
C395 C 0.03306 0.73463 0.04751 0.0
C396 C 0.04213 0.85259 0.06338 0.0
C397 C 0.04337 0.79464 0.07753 0.0
C398 C 0.05811 0.88129 0.06283 0.0
C399 C 0.08598 0.88498 0.08393 0.0
C400 C 0.05447 0.82726 0.08465 0.0
C401 C 0.0958 0.86023 0.10786 0.0
C402 C 0.06015 0.76884 0.09238 0.0
C403 C 0.01419 0.7602 0.03664 0.0
N404 N 0.08043 0.83212 0.10693 0.0
N405 N 0.02032 0.78936 0.05098 0.0
H406 H 0.62281 0.18149 0.02001 0.0
H407 H 0.76689 0.06262 0.03077 0.0
H408 H 0.63477 0.11558 0.11388 0.0
H409 H 0.75969 0.13873 0.94832 0.0
H410 H 0.72128 0.08397 0.06532 0.0
H411 H 0.67551 0.16896 0.99712 0.0
C412 C 0.63676 0.1646 0.03606 0.0
C413 C 0.62441 0.1493 0.06862 0.0
C414 C 0.72996 0.09619 0.03995 0.0
C415 C 0.68465 0.13438 0.04226 0.0
C416 C 0.75594 0.08401 0.02023 0.0
C417 C 0.76678 0.09873 0.98639 0.0
C418 C 0.71472 0.12313 0.02552 0.0
C419 C 0.75188 0.12644 0.97406 0.0
C420 C 0.66688 0.15744 0.02301 0.0
C421 C 0.64351 0.12782 0.08856 0.0
N422 N 0.72644 0.13754 0.99339 0.0
N423 N 0.6726 0.12059 0.0747 0.0
H424 H 0.46022 0.73308 0.46571 0.0
H425 H 0.32436 0.84865 0.3924 0.0
H426 H 0.36268 0.72549 0.4994 0.0
H427 H 0.42353 0.86814 0.37962 0.0
H428 H 0.33725 0.79638 0.41772 0.0
H429 H 0.44621 0.77577 0.42122 0.0
C430 C 0.43581 0.74014 0.46338 0.0
C431 C 0.41262 0.72608 0.48661 0.0
C432 C 0.35618 0.81191 0.40877 0.0
C433 C 0.39645 0.7747 0.43584 0.0
C434 C 0.34883 0.84166 0.39409 0.0
C435 C 0.37295 0.86288 0.38444 0.0
C436 C 0.38784 0.80337 0.41378 0.0
C437 C 0.40423 0.85259 0.38714 0.0
C438 C 0.42784 0.7645 0.43804 0.0
C439 C 0.38134 0.73599 0.48234 0.0
N440 N 0.41081 0.82369 0.40204 0.0
N441 N 0.37421 0.75987 0.45769 0.0
H442 H 0.73712 0.49802 0.47432 0.0
H443 H 0.63753 0.3706 0.36372 0.0
H444 H 0.77717 0.42317 0.4061 0.0
H445 H 0.59868 0.44372 0.43568 0.0
H446 H 0.68771 0.39903 0.36241 0.0
H447 H 0.68645 0.48901 0.44321 0.0
C448 C 0.73551 0.48035 0.45191 0.0
C449 C 0.76109 0.46066 0.4436 0.0
C450 C 0.668 0.40922 0.37778 0.0
C451 C 0.70309 0.44965 0.40866 0.0
C452 C 0.63936 0.393 0.37847 0.0
C453 C 0.61428 0.40445 0.40067 0.0
C454 C 0.67146 0.4369 0.39964 0.0
C455 C 0.61773 0.4337 0.41894 0.0
C456 C 0.70649 0.47505 0.4343 0.0
C457 C 0.75779 0.4384 0.41401 0.0
N458 N 0.64597 0.44863 0.41861 0.0
N459 N 0.72907 0.43291 0.3983 0.0
H460 H 0.16934 0.6427 0.43398 0.0
H461 H 0.03482 0.75156 0.52379 0.0
H462 H 0.07655 0.60891 0.4637 0.0
H463 H 0.13347 0.7755 0.51925 0.0
H464 H 0.04599 0.7039 0.48617 0.0
H465 H 0.15208 0.69646 0.44758 0.0
C466 C 0.14511 0.64669 0.4424 0.0
C467 C 0.12451 0.62134 0.44852 0.0
C468 C 0.06508 0.71983 0.49306 0.0
C469 C 0.1048 0.68253 0.46471 0.0
C470 C 0.05873 0.74693 0.51454 0.0
C471 C 0.08337 0.76708 0.52517 0.0
C472 C 0.0962 0.71318 0.48197 0.0
C473 C 0.11388 0.76024 0.51222 0.0
C474 C 0.13533 0.67733 0.45042 0.0
C475 C 0.09331 0.62782 0.45923 0.0
N476 N 0.11947 0.73376 0.49153 0.0
N477 N 0.08452 0.65778 0.46765 0.0
H478 H 0.76622 0.03368 0.58387 0.0
H479 H 0.84433 0.0763 0.38174 0.0
H480 H 0.71447 0.03236 0.47691 0.0
H481 H 0.89574 0.06562 0.48822 0.0
H482 H 0.7976 0.05409 0.41364 0.0
H483 H 0.81502 0.03913 0.54743 0.0
C484 C 0.76521 0.03418 0.55263 0.0
C485 C 0.73634 0.03298 0.53334 0.0
C486 C 0.81928 0.05618 0.42979 0.0
C487 C 0.79202 0.03968 0.49133 0.0
C488 C 0.84589 0.06879 0.41158 0.0
C489 C 0.87366 0.07325 0.43261 0.0
C490 C 0.82065 0.04816 0.46918 0.0
C491 C 0.8746 0.06308 0.47113 0.0
C492 C 0.79308 0.03727 0.53178 0.0
C493 C 0.73632 0.03342 0.49284 0.0
N494 N 0.8484 0.05135 0.48826 0.0
N495 N 0.76376 0.03725 0.47311 0.0
H496 H 0.51249 0.90523 0.00437 0.0
H497 H 0.46919 0.08882 0.00884 0.0
H498 H 0.45812 0.95248 0.91647 0.0
H499 H 0.52942 0.04391 0.09269 0.0
H500 H 0.46302 0.03826 0.9762 0.0
H501 H 0.51886 0.95562 0.03769 0.0
C502 C 0.50226 0.92628 0.99186 0.0
C503 C 0.48474 0.92475 0.9577 0.0
C504 C 0.47746 0.03942 0.00186 0.0
C505 C 0.49141 0.98217 0.99583 0.0
C506 C 0.48078 0.06822 0.02064 0.0
C507 C 0.49986 0.07049 0.05343 0.0
C508 C 0.49336 0.01276 0.01601 0.0
C509 C 0.51449 0.04313 0.06744 0.0
C510 C 0.50571 0.95496 0.01098 0.0
C511 C 0.47181 0.95263 0.94279 0.0
N512 N 0.51104 0.01538 0.04854 0.0
N513 N 0.47526 0.98017 0.96206 0.0
H514 H 0.40763 0.48635 0.02043 0.0
H515 H 0.59197 0.51792 0.99521 0.0
H516 H 0.46729 0.51988 0.11222 0.0
H517 H 0.53029 0.49265 0.90146 0.0
H518 H 0.54632 0.52156 0.03788 0.0
H519 H 0.45281 0.48739 0.97675 0.0
C520 C 0.43039 0.49326 0.03162 0.0
C521 C 0.43373 0.50302 0.07001 0.0
C522 C 0.54271 0.5157 0.00783 0.0
C523 C 0.48531 0.50516 0.01995 0.0
C524 C 0.56874 0.51405 0.9833 0.0
C525 C 0.56496 0.50464 0.94481 0.0
C526 C 0.51279 0.50772 0.99374 0.0
C527 C 0.53432 0.49981 0.931 0.0
C528 C 0.45608 0.49431 0.00652 0.0
C529 C 0.46369 0.5121 0.08284 0.0
N530 N 0.50944 0.5009 0.95561 0.0
N531 N 0.4883 0.51313 0.0578 0.0
H532 H 0.01086 0.55872 0.91833 0.0
H533 H 0.97204 0.42468 0.07428 0.0
H534 H 0.98103 0.57836 0.03492 0.0
H535 H -0.00348 0.40536 0.95575 0.0
H536 H 0.97628 0.48111 0.0608 0.0
H537 H 0.00401 0.50248 0.93086 0.0
C538 C 0.00224 0.55122 0.94634 0.0
C539 C -0.0034 0.57321 0.97568 0.0
C540 C 0.98092 0.46453 0.03779 0.0
C541 C 0.98951 0.50885 0.99056 0.0
C542 C 0.97884 0.43231 0.04558 0.0
C543 C 0.98398 0.41033 0.01608 0.0
C544 C 0.98817 0.47482 0.00024 0.0
C545 C 0.99245 0.42151 0.97936 0.0
C546 C -0.00138 0.51908 0.9536 0.0
C547 C 0.98558 0.56219 0.01146 0.0
N548 N 0.99414 0.453 0.97243 0.0
N549 N 0.98272 0.53072 0.01805 0.0
H550 H 0.06249 0.03457 0.07344 0.0
H551 H 0.92366 0.99033 0.93098 0.0
H552 H 0.07705 0.99518 0.96008 0.0
H553 H 0.91198 0.06108 0.01911 0.0
H554 H 0.97933 0.98668 0.94738 0.0
H555 H 0.00694 0.04277 0.05765 0.0
C556 C 0.05419 0.02842 0.0449 0.0
C557 C 0.07427 0.01391 0.01813 0.0
C558 C 0.96453 0.00288 0.96327 0.0
C559 C 0.01092 0.02218 0.00054 0.0
C560 C 0.93268 0.00462 0.95433 0.0
C561 C 0.91328 0.02611 0.97366 0.0
C562 C 0.97695 0.02254 0.99196 0.0
C563 C 0.92623 0.04423 0.00351 0.0
C564 C 0.02248 0.03283 0.03608 0.0
C565 C 0.06235 0.00632 0.98163 0.0
N566 N 0.95739 0.04212 0.01172 0.0
N567 N 0.03128 0.01002 0.97415 0.0
H568 H 0.437 0.58256 0.47395 0.0
H569 H 0.50512 0.41419 0.53449 0.0
H570 H 0.49716 0.56706 0.57236 0.0
H571 H 0.46563 0.43329 0.42216 0.0
H572 H 0.4947 0.46866 0.55295 0.0
H573 H 0.44227 0.52691 0.457 0.0
C574 C 0.45169 0.56752 0.49165 0.0
C575 C 0.46678 0.57938 0.52451 0.0
C576 C 0.48801 0.46083 0.5244 0.0
C577 C 0.47221 0.51571 0.50591 0.0
C578 C 0.49359 0.42965 0.514 0.0
C579 C 0.48648 0.41934 0.47662 0.0
C580 C 0.47513 0.48175 0.49726 0.0
C581 C 0.4716 0.44036 0.45123 0.0
C582 C 0.45449 0.53575 0.48213 0.0
C583 C 0.48533 0.55889 0.54663 0.0
N584 N 0.46668 0.47074 0.4619 0.0
N585 N 0.48734 0.52795 0.53707 0.0
H586 H 0.07037 0.47391 0.43231 0.0
H587 H 0.92591 0.47635 0.58071 0.0
H588 H 0.08146 0.48928 0.55459 0.0
H589 H 0.91564 0.47503 0.45684 0.0
H590 H 0.98309 0.47786 0.57263 0.0
H591 H 0.0138 0.46785 0.44204 0.0
C592 C 0.06099 0.47528 0.46135 0.0
C593 C 0.08058 0.48235 0.49265 0.0
C594 C 0.96831 0.47746 0.54723 0.0
C595 C 0.01581 0.47623 0.50388 0.0
C596 C 0.93568 0.4769 0.55182 0.0
C597 C 0.91604 0.47565 0.51938 0.0
C598 C 0.98132 0.47653 0.50996 0.0
C599 C 0.92992 0.47612 0.48263 0.0
C600 C 0.02863 0.47221 0.46683 0.0
C601 C 0.06716 0.48395 0.52963 0.0
N602 N 0.96173 0.47632 0.47892 0.0
N603 N 0.03551 0.48126 0.53418 0.0
H604 H 0.03642 0.9542 0.60171 0.0
H605 H -0.00419 0.02331 0.39294 0.0
H606 H 0.00029 0.89858 0.5076 0.0
H607 H 0.01376 0.08282 0.49126 0.0
H608 H 0.00295 0.97703 0.43384 0.0
H609 H 0.0301 0.00172 0.56221 0.0
C610 C 0.02642 0.95207 0.57311 0.0
C611 C 0.01897 0.92237 0.55786 0.0
C612 C 0.00562 0.0002 0.44644 0.0
C613 C 0.01268 0.97639 0.5122 0.0
C614 C 0.002 0.02665 0.42296 0.0
C615 C 0.00404 0.05697 0.43876 0.0
C616 C 0.0114 0.00405 0.48603 0.0
C617 C 0.01199 0.05986 0.4779 0.0
C618 C 0.02319 0.97914 0.55043 0.0
C619 C 0.00637 0.92096 0.52052 0.0
N620 N 0.0151 0.0337 0.50033 0.0
N621 N 0.00399 0.94753 0.49882 0.0
H622 H 0.53897 0.03289 0.58525 0.0
H623 H 0.46322 0.98713 0.38196 0.0
H624 H 0.59246 -0.00278 0.48878 0.0
H625 H 0.40868 0.01526 0.48127 0.0
H626 H 0.51134 0.99523 0.41902 0.0
H627 H 0.49108 0.0289 0.54676 0.0
C628 C 0.54055 0.02388 0.55609 0.0
C629 C 0.56963 0.0153 0.54013 0.0
C630 C 0.48886 -9e-05 0.4326 0.0
C631 C 0.51516 0.01121 0.49578 0.0
C632 C 0.46142 0.99556 0.41136 0.0
C633 C 0.432 0.00036 0.42872 0.0
C634 C 0.48677 0.00907 0.47142 0.0
C635 C 0.43094 0.01119 0.46688 0.0
C636 C 0.51327 0.02181 0.53406 0.0
C637 C 0.57045 0.00396 0.5022 0.0
N638 N 0.45796 0.01493 0.4871 0.0
N639 N 0.54358 0.00236 0.48122 0.0
H640 H 0.49854 0.24692 0.39145 0.0
H641 H 0.45829 0.2175 0.16993 0.0
H642 H 0.48757 0.32217 0.30848 0.0
H643 H 0.52206 0.1592 0.23534 0.0
H644 H 0.44883 0.24935 0.22782 0.0
H645 H 0.48685 0.20863 0.34065 0.0
C646 C 0.49287 0.25542 0.36279 0.0
C647 C 0.49446 0.28766 0.35386 0.0
C648 C 0.46419 0.22904 0.22961 0.0
C649 C 0.48073 0.24419 0.29622 0.0
C650 C 0.46945 0.21078 0.1968 0.0
C651 C 0.49123 0.18598 0.19801 0.0
C652 C 0.48032 0.22188 0.26378 0.0
C653 C 0.50533 0.17836 0.23331 0.0
C654 C 0.4863 0.23358 0.33393 0.0
C655 C 0.48696 0.29745 0.31632 0.0
N656 N 0.49981 0.19644 0.26486 0.0
N657 N 0.48062 0.27572 0.28868 0.0
H658 H 0.26683 0.51412 0.42475 0.0
H659 H 0.29902 0.47096 0.20426 0.0
H660 H 0.19312 0.4902 0.34458 0.0
H661 H 0.35363 0.54033 0.26563 0.0
H662 H 0.26736 0.46225 0.26245 0.0
H663 H 0.30561 0.50838 0.37267 0.0
C664 C 0.2589 0.50705 0.39638 0.0
C665 C 0.22675 0.5029 0.38874 0.0
C666 C 0.28669 0.47891 0.2633 0.0
C667 C 0.27084 0.49597 0.32958 0.0
C668 C 0.3049 0.48375 0.23027 0.0
C669 C 0.32878 0.50663 0.23011 0.0
C670 C 0.29278 0.49667 0.29649 0.0
C671 C 0.33527 0.52265 0.26453 0.0
C672 C 0.28098 0.50392 0.36677 0.0
C673 C 0.21768 0.49387 0.35151 0.0
N674 N 0.3172 0.51751 0.29637 0.0
N675 N 0.23964 0.49078 0.32321 0.0
H676 H 0.00841 0.27842 0.1369 0.0
H677 H 0.93348 0.13303 0.25338 0.0
H678 H 0.92055 0.23306 0.1086 0.0
H679 H 0.00743 0.19128 0.29999 0.0
H680 H 0.93579 0.16331 0.19348 0.0
H681 H 0.01486 0.24123 0.19097 0.0
C682 C 0.99064 0.26054 0.14192 0.0
C683 C 0.96377 0.25897 0.11856 0.0
C684 C 0.95175 0.16931 0.21665 0.0
C685 C 0.97112 0.21638 0.17965 0.0
C686 C 0.95055 0.15191 0.2508 0.0
C687 C 0.97005 0.15988 0.28184 0.0
C688 C 0.97257 0.19494 0.21347 0.0
C689 C 0.99183 0.1845 0.2768 0.0
C690 C 0.99431 0.23939 0.1727 0.0
C691 C 0.94147 0.23534 0.12615 0.0
N692 N 0.9923 0.20141 0.24336 0.0
N693 N 0.94563 0.21505 0.15602 0.0
H694 H 0.28825 0.03057 0.31229 0.0
H695 H 0.24803 -0.00242 0.09164 0.0
H696 H 0.34315 0.96874 0.24007 0.0
H697 H 0.17727 0.00665 0.18041 0.0
H698 H 0.28886 0.00718 0.14007 0.0
H699 H 0.25389 0.04191 0.25724 0.0
C700 C 0.29362 0.02013 0.28456 0.0
C701 C 0.31823 -0.00164 0.28066 0.0
C702 C 0.26433 0.00778 0.14862 0.0
C703 C 0.27944 0.01146 0.21803 0.0
C704 C 0.24106 0.00244 0.12112 0.0
C705 C 0.20935 0.00091 0.13233 0.0
C706 C 0.25566 0.01224 0.18726 0.0
C707 C 0.20153 0.00727 0.17082 0.0
C708 C 0.27395 0.02651 0.25335 0.0
C709 C 0.32415 0.98537 0.24424 0.0
N710 N 0.22461 0.01246 0.19708 0.0
N711 N 0.30467 0.99193 0.21427 0.0
H712 H 0.52841 0.7778 0.84221 0.0
H713 H 0.49354 0.67492 0.6961 0.0
H714 H 0.46841 0.83816 0.77424 0.0
H715 H 0.4888 0.7561 0.62102 0.0
H716 H 0.50957 0.70921 0.74901 0.0
H717 H 0.53923 0.74629 0.78444 0.0
C718 C 0.5182 0.78489 0.81491 0.0
C719 C 0.49698 0.81015 0.81295 0.0
C720 C 0.50615 0.71943 0.72066 0.0
C721 C 0.50872 0.77414 0.74744 0.0
C722 C 0.49671 0.69987 0.69055 0.0
C723 C 0.48946 0.71281 0.65438 0.0
C724 C 0.50777 0.75216 0.71459 0.0
C725 C 0.49397 0.74524 0.6486 0.0
C726 C 0.52409 0.76672 0.78214 0.0
C727 C 0.48446 0.81847 0.77699 0.0
N728 N 0.50202 0.76397 0.67872 0.0
N729 N 0.49025 0.80027 0.74566 0.0
H730 H 0.74534 0.40674 0.61875 0.0
H731 H 0.69741 0.50398 0.80595 0.0
H732 H 0.78312 0.49912 0.64237 0.0
H733 H 0.64676 0.42246 0.76513 0.0
H734 H 0.72874 0.50375 0.74646 0.0
H735 H 0.70947 0.41243 0.67314 0.0
C736 C 0.7461 0.42825 0.63547 0.0
C737 C 0.76733 0.45244 0.6262 0.0
C738 C 0.7105 0.48618 0.75036 0.0
C739 C 0.72621 0.45917 0.68864 0.0
C740 C 0.69257 0.48634 0.78422 0.0
C741 C 0.66961 0.46306 0.79054 0.0
C742 C 0.70557 0.46238 0.72293 0.0
C743 C 0.66431 0.44075 0.76152 0.0
C744 C 0.72547 0.43158 0.66642 0.0
C745 C 0.76714 0.47989 0.64868 0.0
N746 N 0.68238 0.44077 0.72919 0.0
N747 N 0.747 0.48245 0.67911 0.0
H748 H 0.1038 0.8171 0.72317 0.0
H749 H -0.00391 0.70737 0.85808 0.0
H750 H 0.0085 0.79133 0.69417 0.0
H751 H 0.09528 0.72306 0.87632 0.0
H752 H -0.00141 0.74117 0.80065 0.0
H753 H 0.09927 0.78655 0.78271 0.0
C754 C 0.0818 0.80522 0.72952 0.0
C755 C 0.05652 0.80666 0.70365 0.0
C756 C 0.01979 0.73719 0.81723 0.0
C757 C 0.05123 0.77139 0.77169 0.0
C758 C 0.01839 0.71789 0.84996 0.0
C759 C 0.04555 0.71234 0.87188 0.0
C760 C 0.04853 0.75114 0.80654 0.0
C761 C 0.0738 0.72662 0.86017 0.0
C762 C 0.07927 0.78765 0.76345 0.0
C763 C 0.02858 0.79079 0.71333 0.0
N764 N 0.07454 0.74537 0.82835 0.0
N765 N 0.02671 0.7737 0.74655 0.0
H766 H 0.70411 0.96098 0.66484 0.0
H767 H 0.81615 0.99434 0.79911 0.0
H768 H 0.65437 0.02876 0.73451 0.0
H769 H 0.74097 0.00106 0.88249 0.0
H770 H 0.77804 0.97777 0.75055 0.0
H771 H 0.73652 0.94725 0.72097 0.0
C772 C 0.69934 0.9722 0.69227 0.0
C773 C 0.6771 -0.0035 0.69508 0.0
C774 C 0.77001 0.98165 0.77983 0.0
C775 C 0.71396 0.98122 0.75867 0.0
C776 C 0.79173 0.99136 0.80743 0.0
C777 C 0.78153 -0.00058 0.84456 0.0
C778 C 0.73786 0.98083 0.78933 0.0
C779 C 0.74969 0.9952 0.85402 0.0
C780 C 0.71799 0.96456 0.72407 0.0
C781 C 0.67174 0.01031 0.73114 0.0
N782 N 0.72875 0.98716 0.82618 0.0
N783 N 0.69037 0.00274 0.76152 0.0
loop_
_geom_bond_atom_site_label_1
_geom_bond_atom_site_label_2
_geom_bond_distance
_geom_bond_site_symmetry_2
_ccdc_geom_bond_type
In0 O1 2.294 . S
In0 O2 2.326 . S
In0 O6 2.266 . S
In0 O7 2.326 . S
In0 O8 2.266 . S
In0 O9 2.326 . S
In0 O11 2.294 . S
In0 O12 2.326 . S
O1 In0 2.294 . S
O1 C10 1.240 . S
O2 In0 2.326 . S
O2 C10 1.252 . S
C3 O6 1.252 . S
C3 O7 1.260 . S
C4 O11 1.240 . S
C4 O12 1.252 . S
C5 O8 1.252 . S
C5 O9 1.260 . S
O6 In0 2.266 . S
O6 C3 1.252 . S
O7 In0 2.326 . S
O7 C3 1.260 . S
O8 In0 2.266 . S
O8 C5 1.252 . S
O9 In0 2.326 . S
O9 C5 1.260 . S
C10 O1 1.240 . S
C10 O2 1.252 . S
O11 In0 2.294 . S
O11 C4 1.240 . S
O12 In0 2.326 . S
O12 C4 1.252 . S
In13 O14 2.294 . S
In13 O15 2.326 . S
In13 O19 2.266 . S
In13 O20 2.326 . S
In13 O21 2.266 . S
In13 O22 2.326 . S
In13 O24 2.294 . S
In13 O25 2.326 . S
O14 In13 2.294 . S
O14 C23 1.240 . S
O15 In13 2.326 . S
O15 C23 1.252 . S
C16 O19 1.252 . S
C16 O20 1.260 . S
C17 O24 1.240 . S
C17 O25 1.252 . S
C18 O21 1.252 . S
C18 O22 1.260 . S
O19 In13 2.266 . S
O19 C16 1.252 . S
O20 In13 2.326 . S
O20 C16 1.260 . S
O21 In13 2.266 . S
O21 C18 1.252 . S
O22 In13 2.326 . S
O22 C18 1.260 . S
C23 O14 1.240 . S
C23 O15 1.252 . S
O24 In13 2.294 . S
O24 C17 1.240 . S
O25 In13 2.326 . S
O25 C17 1.252 . S
In26 O27 2.294 . S
In26 O28 2.326 . S
In26 O32 2.266 . S
In26 O33 2.326 1_655 S
In26 O34 2.266 . S
In26 O35 2.326 . S
In26 O37 2.294 1_655 S
In26 O38 2.326 . S
O27 In26 2.294 . S
O27 C36 1.240 . S
O28 In26 2.326 . S
O28 C36 1.252 . S
C29 O32 1.252 . S
C29 O33 1.260 1_655 S
C30 O37 1.240 . S
C30 O38 1.252 1_455 S
C31 O34 1.252 . S
C31 O35 1.260 . S
O32 In26 2.266 . S
O32 C29 1.252 . S
O33 In26 2.326 1_455 S
O33 C29 1.260 1_455 S
O34 In26 2.266 . S
O34 C31 1.252 . S
O35 In26 2.326 . S
O35 C31 1.260 . S
C36 O27 1.240 . S
C36 O28 1.252 . S
O37 In26 2.294 1_455 S
O37 C30 1.240 . S
O38 In26 2.326 . S
O38 C30 1.252 1_655 S
In39 O40 2.294 1_565 S
In39 O41 2.326 . S
In39 O45 2.266 . S
In39 O46 2.326 . S
In39 O47 2.266 . S
In39 O48 2.326 1_565 S
In39 O50 2.294 . S
In39 O51 2.326 . S
O40 In39 2.294 1_545 S
O40 C49 1.240 . S
O41 In39 2.326 . S
O41 C49 1.252 1_565 S
C42 O45 1.252 . S
C42 O46 1.260 . S
C43 O50 1.240 . S
C43 O51 1.252 . S
C44 O47 1.252 . S
C44 O48 1.260 1_565 S
O45 In39 2.266 . S
O45 C42 1.252 . S
O46 In39 2.326 . S
O46 C42 1.260 . S
O47 In39 2.266 . S
O47 C44 1.252 . S
O48 In39 2.326 1_545 S
O48 C44 1.260 1_545 S
C49 O40 1.240 . S
C49 O41 1.252 1_545 S
O50 In39 2.294 . S
O50 C43 1.240 . S
O51 In39 2.326 . S
O51 C43 1.252 . S
In52 O53 2.294 . S
In52 O54 2.326 . S
In52 O58 2.266 . S
In52 O59 2.326 . S
In52 O60 2.266 . S
In52 O61 2.326 . S
In52 O63 2.294 . S
In52 O64 2.326 . S
O53 In52 2.294 . S
O53 C62 1.240 . S
O54 In52 2.326 . S
O54 C62 1.252 . S
C55 O58 1.252 . S
C55 O59 1.260 . S
C56 O63 1.240 . S
C56 O64 1.252 . S
C57 O60 1.252 . S
C57 O61 1.260 . S
O58 In52 2.266 . S
O58 C55 1.252 . S
O59 In52 2.326 . S
O59 C55 1.260 . S
O60 In52 2.266 . S
O60 C57 1.252 . S
O61 In52 2.326 . S
O61 C57 1.260 . S
C62 O53 1.240 . S
C62 O54 1.252 . S
O63 In52 2.294 . S
O63 C56 1.240 . S
O64 In52 2.326 . S
O64 C56 1.252 . S
In65 O66 2.294 . S
In65 O67 2.326 . S
In65 O71 2.266 . S
In65 O72 2.326 . S
In65 O73 2.266 . S
In65 O74 2.326 . S
In65 O76 2.294 . S
In65 O77 2.326 . S
O66 In65 2.294 . S
O66 C75 1.240 . S
O67 In65 2.326 . S
O67 C75 1.252 . S
C68 O71 1.252 . S
C68 O72 1.260 . S
C69 O76 1.240 . S
C69 O77 1.252 . S
C70 O73 1.252 . S
C70 O74 1.260 . S
O71 In65 2.266 . S
O71 C68 1.252 . S
O72 In65 2.326 . S
O72 C68 1.260 . S
O73 In65 2.266 . S
O73 C70 1.252 . S
O74 In65 2.326 . S
O74 C70 1.260 . S
C75 O66 1.240 . S
C75 O67 1.252 . S
O76 In65 2.294 . S
O76 C69 1.240 . S
O77 In65 2.326 . S
O77 C69 1.252 . S
In78 O79 2.294 1_655 S
In78 O80 2.326 . S
In78 O84 2.266 . S
In78 O85 2.326 . S
In78 O86 2.266 . S
In78 O87 2.326 1_655 S
In78 O89 2.294 . S
In78 O90 2.326 . S
O79 In78 2.294 1_455 S
O79 C88 1.240 . S
O80 In78 2.326 . S
O80 C88 1.252 1_655 S
C81 O84 1.252 . S
C81 O85 1.260 . S
C82 O89 1.240 . S
C82 O90 1.252 . S
C83 O86 1.252 . S
C83 O87 1.260 1_655 S
O84 In78 2.266 . S
O84 C81 1.252 . S
O85 In78 2.326 . S
O85 C81 1.260 . S
O86 In78 2.266 . S
O86 C83 1.252 . S
O87 In78 2.326 1_455 S
O87 C83 1.260 1_455 S
C88 O79 1.240 . S
C88 O80 1.252 1_455 S
O89 In78 2.294 . S
O89 C82 1.240 . S
O90 In78 2.326 . S
O90 C82 1.252 . S
In91 O92 2.294 . S
In91 O93 2.326 . S
In91 O97 2.266 . S
In91 O98 2.326 1_565 S
In91 O99 2.266 . S
In91 O100 2.326 . S
In91 O102 2.294 1_565 S
In91 O103 2.326 . S
O92 In91 2.294 . S
O92 C101 1.240 . S
O93 In91 2.326 . S
O93 C101 1.252 . S
C94 O97 1.252 . S
C94 O98 1.260 1_565 S
C95 O102 1.240 . S
C95 O103 1.252 1_545 S
C96 O99 1.252 . S
C96 O100 1.260 . S
O97 In91 2.266 . S
O97 C94 1.252 . S
O98 In91 2.326 1_545 S
O98 C94 1.260 1_545 S
O99 In91 2.266 . S
O99 C96 1.252 . S
O100 In91 2.326 . S
O100 C96 1.260 . S
C101 O92 1.240 . S
C101 O93 1.252 . S
O102 In91 2.294 1_545 S
O102 C95 1.240 . S
O103 In91 2.326 . S
O103 C95 1.252 1_565 S
In104 O105 2.294 . S
In104 O106 2.326 . S
In104 O110 2.266 . S
In104 O111 2.326 . S
In104 O112 2.266 . S
In104 O113 2.326 . S
In104 O115 2.294 . S
In104 O116 2.326 . S
O105 In104 2.294 . S
O105 C114 1.240 . S
O106 In104 2.326 . S
O106 C114 1.252 . S
C107 O110 1.252 . S
C107 O111 1.260 . S
C108 O115 1.240 . S
C108 O116 1.252 . S
C109 O112 1.252 . S
C109 O113 1.260 . S
O110 In104 2.266 . S
O110 C107 1.252 . S
O111 In104 2.326 . S
O111 C107 1.260 . S
O112 In104 2.266 . S
O112 C109 1.252 . S
O113 In104 2.326 . S
O113 C109 1.260 . S
C114 O105 1.240 . S
C114 O106 1.252 . S
O115 In104 2.294 . S
O115 C108 1.240 . S
O116 In104 2.326 . S
O116 C108 1.252 . S
In117 O118 2.294 . S
In117 O119 2.326 . S
In117 O123 2.266 . S
In117 O124 2.326 . S
In117 O125 2.266 . S
In117 O126 2.326 . S
In117 O128 2.294 . S
In117 O129 2.326 . S
O118 In117 2.294 . S
O118 C127 1.240 . S
O119 In117 2.326 . S
O119 C127 1.252 . S
C120 O123 1.252 . S
C120 O124 1.260 . S
C121 O128 1.240 . S
C121 O129 1.252 . S
C122 O125 1.252 . S
C122 O126 1.260 . S
O123 In117 2.266 . S
O123 C120 1.252 . S
O124 In117 2.326 . S
O124 C120 1.260 . S
O125 In117 2.266 . S
O125 C122 1.252 . S
O126 In117 2.326 . S
O126 C122 1.260 . S
C127 O118 1.240 . S
C127 O119 1.252 . S
O128 In117 2.294 . S
O128 C121 1.240 . S
O129 In117 2.326 . S
O129 C121 1.252 . S
In130 O131 2.294 . S
In130 O132 2.326 . S
In130 O136 2.266 . S
In130 O137 2.326 1_455 S
In130 O138 2.266 . S
In130 O139 2.326 . S
In130 O141 2.294 1_455 S
In130 O142 2.326 . S
O131 In130 2.294 . S
O131 C140 1.240 . S
O132 In130 2.326 . S
O132 C140 1.252 . S
C133 O136 1.252 . S
C133 O137 1.260 1_455 S
C134 O141 1.240 . S
C134 O142 1.252 1_655 S
C135 O138 1.252 . S
C135 O139 1.260 . S
O136 In130 2.266 . S
O136 C133 1.252 . S
O137 In130 2.326 1_655 S
O137 C133 1.260 1_655 S
O138 In130 2.266 . S
O138 C135 1.252 . S
O139 In130 2.326 . S
O139 C135 1.260 . S
C140 O131 1.240 . S
C140 O132 1.252 . S
O141 In130 2.294 1_655 S
O141 C134 1.240 . S
O142 In130 2.326 . S
O142 C134 1.252 1_455 S
In143 O144 2.294 1_545 S
In143 O145 2.326 . S
In143 O149 2.266 . S
In143 O150 2.326 . S
In143 O151 2.266 . S
In143 O152 2.326 1_545 S
In143 O154 2.294 . S
In143 O155 2.326 . S
O144 In143 2.294 1_565 S
O144 C153 1.240 . S
O145 In143 2.326 . S
O145 C153 1.252 1_545 S
C146 O149 1.252 . S
C146 O150 1.260 . S
C147 O154 1.240 . S
C147 O155 1.252 . S
C148 O151 1.252 . S
C148 O152 1.260 1_545 S
O149 In143 2.266 . S
O149 C146 1.252 . S
O150 In143 2.326 . S
O150 C146 1.260 . S
O151 In143 2.266 . S
O151 C148 1.252 . S
O152 In143 2.326 1_565 S
O152 C148 1.260 1_565 S
C153 O144 1.240 . S
C153 O145 1.252 1_565 S
O154 In143 2.294 . S
O154 C147 1.240 . S
O155 In143 2.326 . S
O155 C147 1.252 . S
In156 O157 2.294 . S
In156 O158 2.326 . S
In156 O162 2.266 . S
In156 O163 2.326 . S
In156 O164 2.266 . S
In156 O165 2.326 . S
In156 O167 2.294 . S
In156 O168 2.326 . S
O157 In156 2.294 . S
O157 C166 1.240 . S
O158 In156 2.326 . S
O158 C166 1.252 . S
C159 O162 1.252 . S
C159 O163 1.260 . S
C160 O167 1.240 . S
C160 O168 1.252 . S
C161 O164 1.252 . S
C161 O165 1.260 . S
O162 In156 2.266 . S
O162 C159 1.252 . S
O163 In156 2.326 . S
O163 C159 1.260 . S
O164 In156 2.266 . S
O164 C161 1.252 . S
O165 In156 2.326 . S
O165 C161 1.260 . S
C166 O157 1.240 . S
C166 O158 1.252 . S
O167 In156 2.294 . S
O167 C160 1.240 . S
O168 In156 2.326 . S
O168 C160 1.252 . S
In169 O170 2.294 . S
In169 O171 2.326 . S
In169 O175 2.266 . S
In169 O176 2.326 . S
In169 O177 2.266 . S
In169 O178 2.326 . S
In169 O180 2.294 . S
In169 O181 2.326 . S
O170 In169 2.294 . S
O170 C179 1.240 . S
O171 In169 2.326 . S
O171 C179 1.252 . S
C172 O175 1.252 . S
C172 O176 1.260 . S
C173 O180 1.240 . S
C173 O181 1.252 . S
C174 O177 1.252 . S
C174 O178 1.260 . S
O175 In169 2.266 . S
O175 C172 1.252 . S
O176 In169 2.326 . S
O176 C172 1.260 . S
O177 In169 2.266 . S
O177 C174 1.252 . S
O178 In169 2.326 . S
O178 C174 1.260 . S
C179 O170 1.240 . S
C179 O171 1.252 . S
O180 In169 2.294 . S
O180 C173 1.240 . S
O181 In169 2.326 . S
O181 C173 1.252 . S
In182 O183 2.294 1_455 S
In182 O184 2.326 . S
In182 O188 2.266 . S
In182 O189 2.326 . S
In182 O190 2.266 . S
In182 O191 2.326 1_455 S
In182 O193 2.294 . S
In182 O194 2.326 . S
O183 In182 2.294 1_655 S
O183 C192 1.240 . S
O184 In182 2.326 . S
O184 C192 1.252 1_455 S
C185 O188 1.252 . S
C185 O189 1.260 . S
C186 O193 1.240 . S
C186 O194 1.252 . S
C187 O190 1.252 . S
C187 O191 1.260 1_455 S
O188 In182 2.266 . S
O188 C185 1.252 . S
O189 In182 2.326 . S
O189 C185 1.260 . S
O190 In182 2.266 . S
O190 C187 1.252 . S
O191 In182 2.326 1_655 S
O191 C187 1.260 1_655 S
C192 O183 1.240 . S
C192 O184 1.252 1_655 S
O193 In182 2.294 . S
O193 C186 1.240 . S
O194 In182 2.326 . S
O194 C186 1.252 . S
In195 O196 2.294 . S
In195 O197 2.326 . S
In195 O201 2.266 . S
In195 O202 2.326 1_545 S
In195 O203 2.266 . S
In195 O204 2.326 . S
In195 O206 2.294 1_545 S
In195 O207 2.326 . S
O196 In195 2.294 . S
O196 C205 1.240 . S
O197 In195 2.326 . S
O197 C205 1.252 . S
C198 O201 1.252 . S
C198 O202 1.260 1_545 S
C199 O206 1.240 . S
C199 O207 1.252 1_565 S
C200 O203 1.252 . S
C200 O204 1.260 . S
O201 In195 2.266 . S
O201 C198 1.252 . S
O202 In195 2.326 1_565 S
O202 C198 1.260 1_565 S
O203 In195 2.266 . S
O203 C200 1.252 . S
O204 In195 2.326 . S
O204 C200 1.260 . S
C205 O196 1.240 . S
C205 O197 1.252 . S
O206 In195 2.294 1_565 S
O206 C199 1.240 . S
O207 In195 2.326 . S
O207 C199 1.252 1_545 S
H208 C214 0.930 . S
H209 C218 0.930 . S
H210 C223 0.929 . S
H211 C221 0.929 . S
H212 C216 0.929 . S
H213 C222 0.929 . S
C214 H208 0.930 . S
C214 C215 1.367 1_556 S
C214 C222 1.378 . S
C215 C214 1.367 1_554 S
C215 C223 1.433 . S
C216 H212 0.929 . S
C216 C218 1.378 . S
C216 C220 1.350 1_554 S
C217 C220 1.463 1_554 S
C217 C222 1.350 1_554 S
C217 N225 1.427 . S
C218 H209 0.930 . S
C218 C216 1.378 . S
C218 C219 1.367 1_554 S
C219 C218 1.367 1_556 S
C219 C221 1.433 . S
C220 C216 1.350 1_556 S
C220 C217 1.463 1_556 S
C220 N224 1.427 . S
C221 H211 0.929 . S
C221 C219 1.433 . S
C221 N224 1.384 . S
C222 H213 0.929 . S
C222 C214 1.378 . S
C222 C217 1.350 1_556 S
C223 H210 0.929 . S
C223 C215 1.433 . S
C223 N225 1.384 . S
N224 C220 1.427 . S
N224 C221 1.384 . S
N225 C217 1.427 . S
N225 C223 1.384 . S
H226 C232 0.930 . S
H227 C236 0.930 . S
H228 C241 0.929 . S
H229 C239 0.929 . S
H230 C234 0.929 . S
H231 C240 0.929 . S
C232 H226 0.930 . S
C232 C233 1.367 . S
C232 C240 1.378 . S
C233 C232 1.367 . S
C233 C241 1.433 1_556 S
C234 H230 0.929 . S
C234 C236 1.378 . S
C234 C238 1.350 . S
C235 C238 1.463 1_556 S
C235 C240 1.350 . S
C235 N243 1.427 1_556 S
C236 H227 0.930 . S
C236 C234 1.378 . S
C236 C237 1.367 . S
C237 C236 1.367 . S
C237 C239 1.433 1_554 S
C238 C234 1.350 . S
C238 C235 1.463 1_554 S
C238 N242 1.427 1_554 S
C239 H229 0.929 . S
C239 C237 1.433 1_556 S
C239 N242 1.384 . S
C240 H231 0.929 . S
C240 C232 1.378 . S
C240 C235 1.350 . S
C241 H228 0.929 . S
C241 C233 1.433 1_554 S
C241 N243 1.384 . S
N242 C238 1.427 1_556 S
N242 C239 1.384 . S
N243 C235 1.427 1_554 S
N243 C241 1.384 . S
H244 C250 0.930 . S
H245 C254 0.930 . S
H246 C259 0.929 . S
H247 C257 0.929 . S
H248 C252 0.929 . S
H249 C258 0.929 . S
C250 H244 0.930 . S
C250 C251 1.367 1_554 S
C250 C258 1.378 . S
C251 C250 1.367 1_556 S
C251 C259 1.433 . S
C252 H248 0.929 . S
C252 C254 1.378 . S
C252 C256 1.350 1_556 S
C253 C256 1.463 1_556 S
C253 C258 1.350 1_556 S
C253 N261 1.427 . S
C254 H245 0.930 . S
C254 C252 1.378 . S
C254 C255 1.367 1_556 S
C255 C254 1.367 1_554 S
C255 C257 1.433 . S
C256 C252 1.350 1_554 S
C256 C253 1.463 1_554 S
C256 N260 1.427 . S
C257 H247 0.929 . S
C257 C255 1.433 . S
C257 N260 1.384 . S
C258 H249 0.929 . S
C258 C250 1.378 . S
C258 C253 1.350 1_554 S
C259 H246 0.929 . S
C259 C251 1.433 . S
C259 N261 1.384 . S
N260 C256 1.427 . S
N260 C257 1.384 . S
N261 C253 1.427 . S
N261 C259 1.384 . S
H262 C268 0.930 . S
H263 C272 0.930 . S
H264 C277 0.929 . S
H265 C275 0.929 . S
H266 C270 0.929 . S
H267 C276 0.929 . S
C268 H262 0.930 . S
C268 C269 1.367 . S
C268 C276 1.378 . S
C269 C268 1.367 . S
C269 C277 1.433 1_556 S
C270 H266 0.929 . S
C270 C272 1.378 . S
C270 C274 1.350 . S
C271 C274 1.463 1_556 S
C271 C276 1.350 . S
C271 N279 1.427 1_556 S
C272 H263 0.930 . S
C272 C270 1.378 . S
C272 C273 1.367 . S
C273 C272 1.367 . S
C273 C275 1.433 1_554 S
C274 C270 1.350 . S
C274 C271 1.463 1_554 S
C274 N278 1.427 1_554 S
C275 H265 0.929 . S
C275 C273 1.433 1_556 S
C275 N278 1.384 . S
C276 H267 0.929 . S
C276 C268 1.378 . S
C276 C271 1.350 . S
C277 H264 0.929 . S
C277 C269 1.433 1_554 S
C277 N279 1.384 . S
N278 C274 1.427 1_556 S
N278 C275 1.384 . S
N279 C271 1.427 1_554 S
N279 C277 1.384 . S
H280 C286 0.930 . S
H281 C290 0.930 . S
H282 C295 0.929 . S
H283 C293 0.929 . S
H284 C288 0.929 . S
H285 C294 0.929 . S
C286 H280 0.930 . S
C286 C287 1.367 . S
C286 C294 1.378 . S
C287 C286 1.367 . S
C287 C295 1.433 . S
C288 H284 0.929 . S
C288 C290 1.378 . S
C288 C292 1.350 . S
C289 C292 1.463 . S
C289 C294 1.350 . S
C289 N297 1.427 . S
C290 H281 0.930 . S
C290 C288 1.378 . S
C290 C291 1.367 . S
C291 C290 1.367 . S
C291 C293 1.433 . S
C292 C288 1.350 . S
C292 C289 1.463 . S
C292 N296 1.427 . S
C293 H283 0.929 . S
C293 C291 1.433 . S
C293 N296 1.384 . S
C294 H285 0.929 . S
C294 C286 1.378 . S
C294 C289 1.350 . S
C295 H282 0.929 . S
C295 C287 1.433 . S
C295 N297 1.384 . S
N296 C292 1.427 . S
N296 C293 1.384 . S
N297 C289 1.427 . S
N297 C295 1.384 . S
H298 C304 0.930 . S
H299 C308 0.930 . S
H300 C313 0.929 . S
H301 C311 0.929 . S
H302 C306 0.929 . S
H303 C312 0.929 . S
C304 H298 0.930 . S
C304 C305 1.367 . S
C304 C312 1.378 . S
C305 C304 1.367 . S
C305 C313 1.433 . S
C306 H302 0.929 . S
C306 C308 1.378 . S
C306 C310 1.350 . S
C307 C310 1.463 . S
C307 C312 1.350 . S
C307 N315 1.427 . S
C308 H299 0.930 . S
C308 C306 1.378 . S
C308 C309 1.367 . S
C309 C308 1.367 . S
C309 C311 1.433 . S
C310 C306 1.350 . S
C310 C307 1.463 . S
C310 N314 1.427 . S
C311 H301 0.929 . S
C311 C309 1.433 . S
C311 N314 1.384 . S
C312 H303 0.929 . S
C312 C304 1.378 . S
C312 C307 1.350 . S
C313 H300 0.929 . S
C313 C305 1.433 . S
C313 N315 1.384 . S
N314 C310 1.427 . S
N314 C311 1.384 . S
N315 C307 1.427 . S
N315 C313 1.384 . S
H316 C322 0.930 . S
H317 C326 0.930 . S
H318 C331 0.929 . S
H319 C329 0.929 . S
H320 C324 0.929 . S
H321 C330 0.929 . S
C322 H316 0.930 . S
C322 C323 1.367 . S
C322 C330 1.378 . S
C323 C322 1.367 . S
C323 C331 1.433 . S
C324 H320 0.929 . S
C324 C326 1.378 . S
C324 C328 1.350 . S
C325 C328 1.463 . S
C325 C330 1.350 . S
C325 N333 1.427 . S
C326 H317 0.930 . S
C326 C324 1.378 . S
C326 C327 1.367 . S
C327 C326 1.367 . S
C327 C329 1.433 . S
C328 C324 1.350 . S
C328 C325 1.463 . S
C328 N332 1.427 . S
C329 H319 0.929 . S
C329 C327 1.433 . S
C329 N332 1.384 . S
C330 H321 0.929 . S
C330 C322 1.378 . S
C330 C325 1.350 . S
C331 H318 0.929 . S
C331 C323 1.433 . S
C331 N333 1.384 . S
N332 C328 1.427 . S
N332 C329 1.384 . S
N333 C325 1.427 . S
N333 C331 1.384 . S
H334 C340 0.930 . S
H335 C344 0.930 . S
H336 C349 0.929 . S
H337 C347 0.929 . S
H338 C342 0.929 . S
H339 C348 0.929 . S
C340 H334 0.930 . S
C340 C341 1.367 . S
C340 C348 1.378 . S
C341 C340 1.367 . S
C341 C349 1.433 . S
C342 H338 0.929 . S
C342 C344 1.378 . S
C342 C346 1.350 . S
C343 C346 1.463 . S
C343 C348 1.350 . S
C343 N351 1.427 . S
C344 H335 0.930 . S
C344 C342 1.378 . S
C344 C345 1.367 . S
C345 C344 1.367 . S
C345 C347 1.433 . S
C346 C342 1.350 . S
C346 C343 1.463 . S
C346 N350 1.427 . S
C347 H337 0.929 . S
C347 C345 1.433 . S
C347 N350 1.384 . S
C348 H339 0.929 . S
C348 C340 1.378 . S
C348 C343 1.350 . S
C349 H336 0.929 . S
C349 C341 1.433 . S
C349 N351 1.384 . S
N350 C346 1.427 . S
N350 C347 1.384 . S
N351 C343 1.427 . S
N351 C349 1.384 . S
H352 C358 0.930 . S
H353 C362 0.930 . S
H354 C367 0.929 . S
H355 C365 0.929 . S
H356 C360 0.929 . S
H357 C366 0.929 . S
C358 H352 0.930 . S
C358 C359 1.367 . S
C358 C366 1.378 . S
C359 C358 1.367 . S
C359 C367 1.433 1_556 S
C360 H356 0.929 . S
C360 C362 1.378 . S
C360 C364 1.350 . S
C361 C364 1.463 1_556 S
C361 C366 1.350 . S
C361 N369 1.427 1_556 S
C362 H353 0.930 . S
C362 C360 1.378 . S
C362 C363 1.367 . S
C363 C362 1.367 . S
C363 C365 1.433 1_554 S
C364 C360 1.350 . S
C364 C361 1.463 1_554 S
C364 N368 1.427 1_554 S
C365 H355 0.929 . S
C365 C363 1.433 1_556 S
C365 N368 1.384 . S
C366 H357 0.929 . S
C366 C358 1.378 . S
C366 C361 1.350 . S
C367 H354 0.929 . S
C367 C359 1.433 1_554 S
C367 N369 1.384 . S
N368 C364 1.427 1_556 S
N368 C365 1.384 . S
N369 C361 1.427 1_554 S
N369 C367 1.384 . S
H370 C376 0.932 . S
H371 C380 0.930 . S
H372 C385 0.929 . S
H373 C383 0.929 . S
H374 C378 0.929 . S
H375 C384 0.929 . S
C376 H370 0.932 . S
C376 C377 1.367 . S
C376 C384 1.378 1_556 S
C377 C376 1.367 . S
C377 C385 1.433 . S
C378 H374 0.929 . S
C378 C380 1.378 1_556 S
C378 C382 1.350 1_556 S
C379 C382 1.463 1_556 S
C379 C384 1.350 1_556 S
C379 N387 1.427 . S
C380 H371 0.930 . S
C380 C378 1.378 1_554 S
C380 C381 1.367 . S
C381 C380 1.367 . S
C381 C383 1.433 . S
C382 C378 1.350 1_554 S
C382 C379 1.463 1_554 S
C382 N386 1.427 . S
C383 H373 0.929 . S
C383 C381 1.433 . S
C383 N386 1.384 . S
C384 H375 0.929 . S
C384 C376 1.378 1_554 S
C384 C379 1.350 1_554 S
C385 H372 0.929 . S
C385 C377 1.433 . S
C385 N387 1.384 . S
N386 C382 1.427 . S
N386 C383 1.384 . S
N387 C379 1.427 . S
N387 C385 1.384 . S
H388 C394 0.930 . S
H389 C398 0.930 . S
H390 C403 0.929 . S
H391 C401 0.929 . S
H392 C396 0.929 . S
H393 C402 0.929 . S
C394 H388 0.930 . S
C394 C395 1.367 1_554 S
C394 C402 1.378 . S
C395 C394 1.367 1_556 S
C395 C403 1.433 . S
C396 H392 0.929 . S
C396 C398 1.378 . S
C396 C400 1.350 1_556 S
C397 C400 1.463 1_556 S
C397 C402 1.350 1_556 S
C397 N405 1.427 . S
C398 H389 0.930 . S
C398 C396 1.378 . S
C398 C399 1.367 1_556 S
C399 C398 1.367 1_554 S
C399 C401 1.433 . S
C400 C396 1.350 1_554 S
C400 C397 1.463 1_554 S
C400 N404 1.427 . S
C401 H391 0.929 . S
C401 C399 1.433 . S
C401 N404 1.384 . S
C402 H393 0.929 . S
C402 C394 1.378 . S
C402 C397 1.350 1_554 S
C403 H390 0.929 . S
C403 C395 1.433 . S
C403 N405 1.384 . S
N404 C400 1.427 . S
N404 C401 1.384 . S
N405 C397 1.427 . S
N405 C403 1.384 . S
H406 C412 0.930 . S
H407 C416 0.930 . S
H408 C421 0.929 . S
H409 C419 0.929 . S
H410 C414 0.929 . S
H411 C420 0.929 . S
C412 H406 0.930 . S
C412 C413 1.367 1_556 S
C412 C420 1.378 . S
C413 C412 1.367 1_554 S
C413 C421 1.433 . S
C414 H410 0.929 . S
C414 C416 1.378 . S
C414 C418 1.350 1_554 S
C415 C418 1.463 1_554 S
C415 C420 1.350 1_554 S
C415 N423 1.427 . S
C416 H407 0.930 . S
C416 C414 1.378 . S
C416 C417 1.367 1_554 S
C417 C416 1.367 1_556 S
C417 C419 1.433 . S
C418 C414 1.350 1_556 S
C418 C415 1.463 1_556 S
C418 N422 1.427 . S
C419 H409 0.929 . S
C419 C417 1.433 . S
C419 N422 1.384 . S
C420 H411 0.929 . S
C420 C412 1.378 . S
C420 C415 1.350 1_556 S
C421 H408 0.929 . S
C421 C413 1.433 . S
C421 N423 1.384 . S
N422 C418 1.427 . S
N422 C419 1.384 . S
N423 C415 1.427 . S
N423 C421 1.384 . S
H424 C430 0.930 . S
H425 C434 0.930 . S
H426 C439 0.929 . S
H427 C437 0.929 . S
H428 C432 0.929 . S
H429 C438 0.929 . S
C430 H424 0.930 . S
C430 C431 1.367 . S
C430 C438 1.378 . S
C431 C430 1.367 . S
C431 C439 1.433 . S
C432 H428 0.929 . S
C432 C434 1.378 . S
C432 C436 1.350 . S
C433 C436 1.463 . S
C433 C438 1.350 . S
C433 N441 1.427 . S
C434 H425 0.930 . S
C434 C432 1.378 . S
C434 C435 1.367 . S
C435 C434 1.367 . S
C435 C437 1.433 . S
C436 C432 1.350 . S
C436 C433 1.463 . S
C436 N440 1.427 . S
C437 H427 0.929 . S
C437 C435 1.433 . S
C437 N440 1.384 . S
C438 H429 0.929 . S
C438 C430 1.378 . S
C438 C433 1.350 . S
C439 H426 0.929 . S
C439 C431 1.433 . S
C439 N441 1.384 . S
N440 C436 1.427 . S
N440 C437 1.384 . S
N441 C433 1.427 . S
N441 C439 1.384 . S
H442 C448 0.930 . S
H443 C452 0.930 . S
H444 C457 0.929 . S
H445 C455 0.929 . S
H446 C450 0.929 . S
H447 C456 0.929 . S
C448 H442 0.930 . S
C448 C449 1.367 . S
C448 C456 1.378 . S
C449 C448 1.367 . S
C449 C457 1.433 . S
C450 H446 0.929 . S
C450 C452 1.378 . S
C450 C454 1.350 . S
C451 C454 1.463 . S
C451 C456 1.350 . S
C451 N459 1.427 . S
C452 H443 0.930 . S
C452 C450 1.378 . S
C452 C453 1.367 . S
C453 C452 1.367 . S
C453 C455 1.433 . S
C454 C450 1.350 . S
C454 C451 1.463 . S
C454 N458 1.427 . S
C455 H445 0.929 . S
C455 C453 1.433 . S
C455 N458 1.384 . S
C456 H447 0.929 . S
C456 C448 1.378 . S
C456 C451 1.350 . S
C457 H444 0.929 . S
C457 C449 1.433 . S
C457 N459 1.384 . S
N458 C454 1.427 . S
N458 C455 1.384 . S
N459 C451 1.427 . S
N459 C457 1.384 . S
H460 C466 0.930 . S
H461 C470 0.930 . S
H462 C475 0.929 . S
H463 C473 0.929 . S
H464 C468 0.929 . S
H465 C474 0.929 . S
C466 H460 0.930 . S
C466 C467 1.367 . S
C466 C474 1.378 . S
C467 C466 1.367 . S
C467 C475 1.433 . S
C468 H464 0.929 . S
C468 C470 1.378 . S
C468 C472 1.350 . S
C469 C472 1.463 . S
C469 C474 1.350 . S
C469 N477 1.427 . S
C470 H461 0.930 . S
C470 C468 1.378 . S
C470 C471 1.367 . S
C471 C470 1.367 . S
C471 C473 1.433 . S
C472 C468 1.350 . S
C472 C469 1.463 . S
C472 N476 1.427 . S
C473 H463 0.929 . S
C473 C471 1.433 . S
C473 N476 1.384 . S
C474 H465 0.929 . S
C474 C466 1.378 . S
C474 C469 1.350 . S
C475 H462 0.929 . S
C475 C467 1.433 . S
C475 N477 1.384 . S
N476 C472 1.427 . S
N476 C473 1.384 . S
N477 C469 1.427 . S
N477 C475 1.384 . S
H478 C484 0.930 . S
H479 C488 0.930 . S
H480 C493 0.929 . S
H481 C491 0.929 . S
H482 C486 0.929 . S
H483 C492 0.929 . S
C484 H478 0.930 . S
C484 C485 1.367 . S
C484 C492 1.378 . S
C485 C484 1.367 . S
C485 C493 1.433 . S
C486 H482 0.929 . S
C486 C488 1.378 . S
C486 C490 1.350 . S
C487 C490 1.463 . S
C487 C492 1.350 . S
C487 N495 1.427 . S
C488 H479 0.930 . S
C488 C486 1.378 . S
C488 C489 1.367 . S
C489 C488 1.367 . S
C489 C491 1.433 . S
C490 C486 1.350 . S
C490 C487 1.463 . S
C490 N494 1.427 . S
C491 H481 0.929 . S
C491 C489 1.433 . S
C491 N494 1.384 . S
C492 H483 0.929 . S
C492 C484 1.378 . S
C492 C487 1.350 . S
C493 H480 0.929 . S
C493 C485 1.433 . S
C493 N495 1.384 . S
N494 C490 1.427 . S
N494 C491 1.384 . S
N495 C487 1.427 . S
N495 C493 1.384 . S
H496 C502 0.930 . S
H497 C506 0.930 . S
H498 C511 0.929 . S
H499 C509 0.929 . S
H500 C504 0.929 . S
H501 C510 0.929 . S
C502 H496 0.930 . S
C502 C503 1.367 1_554 S
C502 C510 1.378 . S
C503 C502 1.367 1_556 S
C503 C511 1.433 . S
C504 H500 0.929 . S
C504 C506 1.378 . S
C504 C508 1.350 1_556 S
C505 C508 1.463 1_566 S
C505 C510 1.350 1_556 S
C505 N513 1.427 . S
C506 H497 0.930 . S
C506 C504 1.378 . S
C506 C507 1.367 1_556 S
C507 C506 1.367 1_554 S
C507 C509 1.433 . S
C508 C504 1.350 1_554 S
C508 C505 1.463 1_544 S
C508 N512 1.427 . S
C509 H499 0.929 . S
C509 C507 1.433 . S
C509 N512 1.384 . S
C510 H501 0.929 . S
C510 C502 1.378 . S
C510 C505 1.350 1_554 S
C511 H498 0.929 . S
C511 C503 1.433 . S
C511 N513 1.384 . S
N512 C508 1.427 . S
N512 C509 1.384 . S
N513 C505 1.427 . S
N513 C511 1.384 . S
H514 C520 0.930 . S
H515 C524 0.930 . S
H516 C529 0.929 . S
H517 C527 0.929 . S
H518 C522 0.929 . S
H519 C528 0.929 . S
C520 H514 0.930 . S
C520 C521 1.367 1_556 S
C520 C528 1.378 . S
C521 C520 1.367 1_554 S
C521 C529 1.433 . S
C522 H518 0.929 . S
C522 C524 1.378 . S
C522 C526 1.350 1_554 S
C523 C526 1.463 1_554 S
C523 C528 1.350 1_554 S
C523 N531 1.427 . S
C524 H515 0.930 . S
C524 C522 1.378 . S
C524 C525 1.367 1_554 S
C525 C524 1.367 1_556 S
C525 C527 1.433 . S
C526 C522 1.350 1_556 S
C526 C523 1.463 1_556 S
C526 N530 1.427 . S
C527 H517 0.929 . S
C527 C525 1.433 . S
C527 N530 1.384 . S
C528 H519 0.929 . S
C528 C520 1.378 . S
C528 C523 1.350 1_556 S
C529 H516 0.929 . S
C529 C521 1.433 . S
C529 N531 1.384 . S
N530 C526 1.427 . S
N530 C527 1.384 . S
N531 C523 1.427 . S
N531 C529 1.384 . S
H532 C538 0.930 . S
H533 C542 0.930 . S
H534 C547 0.929 . S
H535 C545 0.929 . S
H536 C540 0.929 . S
H537 C546 0.929 . S
C538 H532 0.930 . S
C538 C539 1.367 1_455 S
C538 C546 1.378 . S
C539 C538 1.367 1_655 S
C539 C547 1.433 1_556 S
C540 H536 0.929 . S
C540 C542 1.378 . S
C540 C544 1.350 1_655 S
C541 C544 1.463 1_656 S
C541 C546 1.350 1_655 S
C541 N549 1.427 1_556 S
C542 H533 0.930 . S
C542 C540 1.378 . S
C542 C543 1.367 1_655 S
C543 C542 1.367 1_455 S
C543 C545 1.433 1_554 S
C544 C540 1.350 1_455 S
C544 C541 1.463 1_454 S
C544 N548 1.427 1_554 S
C545 H535 0.929 . S
C545 C543 1.433 1_556 S
C545 N548 1.384 . S
C546 H537 0.929 . S
C546 C538 1.378 . S
C546 C541 1.350 1_455 S
C547 H534 0.929 . S
C547 C539 1.433 1_554 S
C547 N549 1.384 . S
N548 C544 1.427 1_556 S
N548 C545 1.384 . S
N549 C541 1.427 1_554 S
N549 C547 1.384 . S
H550 C556 0.930 . S
H551 C560 0.930 . S
H552 C565 0.929 1_556 S
H553 C563 0.929 1_554 S
H554 C558 0.929 . S
H555 C564 0.929 . S
C556 H550 0.930 . S
C556 C557 1.367 . S
C556 C564 1.378 . S
C557 C556 1.367 . S
C557 C565 1.433 1_545 S
C558 H554 0.929 . S
C558 C560 1.378 . S
C558 C562 1.350 . S
C559 C562 1.463 1_444 S
C559 C564 1.350 . S
C559 N567 1.427 1_544 S
C560 H551 0.930 . S
C560 C558 1.378 . S
C560 C561 1.367 . S
C561 C560 1.367 . S
C561 C563 1.433 1_565 S
C562 C558 1.350 . S
C562 C559 1.463 1_666 S
C562 N566 1.427 1_566 S
C563 H553 0.929 1_556 S
C563 C561 1.433 1_545 S
C563 N566 1.384 1_556 S
C564 H555 0.929 . S
C564 C556 1.378 . S
C564 C559 1.350 . S
C565 H552 0.929 1_554 S
C565 C557 1.433 1_565 S
C565 N567 1.384 1_554 S
N566 C562 1.427 1_544 S
N566 C563 1.384 1_554 S
N567 C559 1.427 1_566 S
N567 C565 1.384 1_556 S
H568 C574 0.930 . S
H569 C578 0.930 . S
H570 C583 0.929 . S
H571 C581 0.929 . S
H572 C576 0.929 . S
H573 C582 0.929 . S
C574 H568 0.930 . S
C574 C575 1.367 . S
C574 C582 1.378 . S
C575 C574 1.367 . S
C575 C583 1.433 . S
C576 H572 0.929 . S
C576 C578 1.378 . S
C576 C580 1.350 . S
C577 C580 1.463 . S
C577 C582 1.350 . S
C577 N585 1.427 . S
C578 H569 0.930 . S
C578 C576 1.378 . S
C578 C579 1.367 . S
C579 C578 1.367 . S
C579 C581 1.433 . S
C580 C576 1.350 . S
C580 C577 1.463 . S
C580 N584 1.427 . S
C581 H571 0.929 . S
C581 C579 1.433 . S
C581 N584 1.384 . S
C582 H573 0.929 . S
C582 C574 1.378 . S
C582 C577 1.350 . S
C583 H570 0.929 . S
C583 C575 1.433 . S
C583 N585 1.384 . S
N584 C580 1.427 . S
N584 C581 1.384 . S
N585 C577 1.427 . S
N585 C583 1.384 . S
H586 C592 0.930 . S
H587 C596 0.930 . S
H588 C601 0.929 . S
H589 C599 0.929 . S
H590 C594 0.929 . S
H591 C600 0.929 . S
C592 H586 0.930 . S
C592 C593 1.367 . S
C592 C600 1.378 . S
C593 C592 1.367 . S
C593 C601 1.433 . S
C594 H590 0.929 . S
C594 C596 1.378 . S
C594 C598 1.350 . S
C595 C598 1.463 1_455 S
C595 C600 1.350 . S
C595 N603 1.427 . S
C596 H587 0.930 . S
C596 C594 1.378 . S
C596 C597 1.367 . S
C597 C596 1.367 . S
C597 C599 1.433 . S
C598 C594 1.350 . S
C598 C595 1.463 1_655 S
C598 N602 1.427 . S
C599 H589 0.929 . S
C599 C597 1.433 . S
C599 N602 1.384 . S
C600 H591 0.929 . S
C600 C592 1.378 . S
C600 C595 1.350 . S
C601 H588 0.929 . S
C601 C593 1.433 . S
C601 N603 1.384 . S
N602 C598 1.427 . S
N602 C599 1.384 . S
N603 C595 1.427 . S
N603 C601 1.384 . S
H604 C610 0.930 . S
H605 C614 0.930 . S
H606 C619 0.929 . S
H607 C617 0.929 . S
H608 C612 0.929 . S
H609 C618 0.929 . S
C610 H604 0.930 . S
C610 C611 1.367 . S
C610 C618 1.378 . S
C611 C610 1.367 . S
C611 C619 1.433 . S
C612 H608 0.929 . S
C612 C614 1.378 . S
C612 C616 1.350 . S
C613 C616 1.463 1_665 S
C613 C618 1.350 . S
C613 N621 1.427 . S
C614 H605 0.930 . S
C614 C612 1.378 . S
C614 C615 1.367 . S
C615 C614 1.367 . S
C615 C617 1.433 . S
C616 C612 1.350 . S
C616 C613 1.463 1_445 S
C616 N620 1.427 . S
C617 H607 0.929 . S
C617 C615 1.433 . S
C617 N620 1.384 . S
C618 H609 0.929 . S
C618 C610 1.378 . S
C618 C613 1.350 . S
C619 H606 0.929 . S
C619 C611 1.433 . S
C619 N621 1.384 . S
N620 C616 1.427 . S
N620 C617 1.384 . S
N621 C613 1.427 . S
N621 C619 1.384 . S
H622 C628 0.930 . S
H623 C632 0.930 . S
H624 C637 0.929 . S
H625 C635 0.929 . S
H626 C630 0.929 . S
H627 C636 0.929 . S
C628 H622 0.930 . S
C628 C629 1.367 . S
C628 C636 1.378 . S
C629 C628 1.367 . S
C629 C637 1.433 1_565 S
C630 H626 0.929 . S
C630 C632 1.378 . S
C630 C634 1.350 . S
C631 C634 1.463 1_565 S
C631 C636 1.350 . S
C631 N639 1.427 1_565 S
C632 H623 0.930 . S
C632 C630 1.378 . S
C632 C633 1.367 . S
C633 C632 1.367 . S
C633 C635 1.433 1_545 S
C634 C630 1.350 . S
C634 C631 1.463 1_545 S
C634 N638 1.427 1_545 S
C635 H625 0.929 . S
C635 C633 1.433 1_565 S
C635 N638 1.384 . S
C636 H627 0.929 . S
C636 C628 1.378 . S
C636 C631 1.350 . S
C637 H624 0.929 . S
C637 C629 1.433 1_545 S
C637 N639 1.384 . S
N638 C634 1.427 1_565 S
N638 C635 1.384 . S
N639 C631 1.427 1_545 S
N639 C637 1.384 . S
H640 C646 0.930 . S
H641 C650 0.930 . S
H642 C655 0.929 . S
H643 C653 0.929 . S
H644 C648 0.929 . S
H645 C654 0.929 . S
C646 H640 0.930 . S
C646 C647 1.367 . S
C646 C654 1.378 . S
C647 C646 1.367 . S
C647 C655 1.433 . S
C648 H644 0.929 . S
C648 C650 1.378 . S
C648 C652 1.350 . S
C649 C652 1.463 . S
C649 C654 1.350 . S
C649 N657 1.427 . S
C650 H641 0.930 . S
C650 C648 1.378 . S
C650 C651 1.367 . S
C651 C650 1.367 . S
C651 C653 1.433 . S
C652 C648 1.350 . S
C652 C649 1.463 . S
C652 N656 1.427 . S
C653 H643 0.929 . S
C653 C651 1.433 . S
C653 N656 1.384 . S
C654 H645 0.929 . S
C654 C646 1.378 . S
C654 C649 1.350 . S
C655 H642 0.929 . S
C655 C647 1.433 . S
C655 N657 1.384 . S
N656 C652 1.427 . S
N656 C653 1.384 . S
N657 C649 1.427 . S
N657 C655 1.384 . S
H658 C664 0.930 . S
H659 C668 0.930 . S
H660 C673 0.929 . S
H661 C671 0.929 . S
H662 C666 0.929 . S
H663 C672 0.929 . S
C664 H658 0.930 . S
C664 C665 1.367 . S
C664 C672 1.378 . S
C665 C664 1.367 . S
C665 C673 1.433 . S
C666 H662 0.929 . S
C666 C668 1.378 . S
C666 C670 1.350 . S
C667 C670 1.463 . S
C667 C672 1.350 . S
C667 N675 1.427 . S
C668 H659 0.930 . S
C668 C666 1.378 . S
C668 C669 1.367 . S
C669 C668 1.367 . S
C669 C671 1.433 . S
C670 C666 1.350 . S
C670 C667 1.463 . S
C670 N674 1.427 . S
C671 H661 0.929 . S
C671 C669 1.433 . S
C671 N674 1.384 . S
C672 H663 0.929 . S
C672 C664 1.378 . S
C672 C667 1.350 . S
C673 H660 0.929 . S
C673 C665 1.433 . S
C673 N675 1.384 . S
N674 C670 1.427 . S
N674 C671 1.384 . S
N675 C667 1.427 . S
N675 C673 1.384 . S
H676 C682 0.930 . S
H677 C686 0.930 . S
H678 C691 0.929 . S
H679 C689 0.929 . S
H680 C684 0.929 . S
H681 C690 0.929 . S
C682 H676 0.930 . S
C682 C683 1.367 1_455 S
C682 C690 1.378 . S
C683 C682 1.367 1_655 S
C683 C691 1.433 . S
C684 H680 0.929 . S
C684 C686 1.378 . S
C684 C688 1.350 . S
C685 C688 1.463 . S
C685 C690 1.350 1_655 S
C685 N693 1.427 . S
C686 H677 0.930 . S
C686 C684 1.378 . S
C686 C687 1.367 . S
C687 C686 1.367 . S
C687 C689 1.433 1_655 S
C688 C684 1.350 . S
C688 C685 1.463 . S
C688 N692 1.427 1_655 S
C689 H679 0.929 . S
C689 C687 1.433 1_455 S
C689 N692 1.384 . S
C690 H681 0.929 . S
C690 C682 1.378 . S
C690 C685 1.350 1_455 S
C691 H678 0.929 . S
C691 C683 1.433 . S
C691 N693 1.384 . S
N692 C688 1.427 1_455 S
N692 C689 1.384 . S
N693 C685 1.427 . S
N693 C691 1.384 . S
H694 C700 0.936 . S
H695 C704 0.930 . S
H696 C709 0.929 . S
H697 C707 0.936 . S
H698 C702 0.929 . S
H699 C708 0.935 . S
C700 H694 0.936 . S
C700 C701 1.361 1_545 S
C700 C708 1.378 . S
C701 C700 1.361 1_565 S
C701 C709 1.433 . S
C702 H698 0.929 . S
C702 C704 1.378 . S
C702 C706 1.350 . S
C703 C706 1.463 . S
C703 C708 1.344 1_565 S
C703 N711 1.427 . S
C704 H695 0.930 . S
C704 C702 1.378 . S
C704 C705 1.367 . S
C705 C704 1.367 . S
C705 C707 1.427 1_565 S
C706 C702 1.350 . S
C706 C703 1.463 . S
C706 N710 1.422 1_565 S
C707 H697 0.936 . S
C707 C705 1.427 1_545 S
C707 N710 1.384 . S
C708 H699 0.935 . S
C708 C700 1.378 . S
C708 C703 1.344 1_545 S
C709 H696 0.929 . S
C709 C701 1.433 . S
C709 N711 1.384 . S
N710 C706 1.422 1_545 S
N710 C707 1.384 . S
N711 C703 1.427 . S
N711 C709 1.384 . S
H712 C718 0.930 . S
H713 C722 0.930 . S
H714 C727 0.929 . S
H715 C725 0.929 . S
H716 C720 0.929 . S
H717 C726 0.929 . S
C718 H712 0.930 . S
C718 C719 1.367 . S
C718 C726 1.378 . S
C719 C718 1.367 . S
C719 C727 1.433 . S
C720 H716 0.929 . S
C720 C722 1.378 . S
C720 C724 1.350 . S
C721 C724 1.463 . S
C721 C726 1.350 . S
C721 N729 1.427 . S
C722 H713 0.930 . S
C722 C720 1.378 . S
C722 C723 1.367 . S
C723 C722 1.367 . S
C723 C725 1.433 . S
C724 C720 1.350 . S
C724 C721 1.463 . S
C724 N728 1.427 . S
C725 H715 0.929 . S
C725 C723 1.433 . S
C725 N728 1.384 . S
C726 H717 0.929 . S
C726 C718 1.378 . S
C726 C721 1.350 . S
C727 H714 0.929 . S
C727 C719 1.433 . S
C727 N729 1.384 . S
N728 C724 1.427 . S
N728 C725 1.384 . S
N729 C721 1.427 . S
N729 C727 1.384 . S
H730 C736 0.930 . S
H731 C740 0.930 . S
H732 C745 0.929 . S
H733 C743 0.929 . S
H734 C738 0.929 . S
H735 C744 0.929 . S
C736 H730 0.930 . S
C736 C737 1.367 . S
C736 C744 1.378 . S
C737 C736 1.367 . S
C737 C745 1.433 . S
C738 H734 0.929 . S
C738 C740 1.378 . S
C738 C742 1.350 . S
C739 C742 1.463 . S
C739 C744 1.350 . S
C739 N747 1.427 . S
C740 H731 0.930 . S
C740 C738 1.378 . S
C740 C741 1.367 . S
C741 C740 1.367 . S
C741 C743 1.433 . S
C742 C738 1.350 . S
C742 C739 1.463 . S
C742 N746 1.427 . S
C743 H733 0.929 . S
C743 C741 1.433 . S
C743 N746 1.384 . S
C744 H735 0.929 . S
C744 C736 1.378 . S
C744 C739 1.350 . S
C745 H732 0.929 . S
C745 C737 1.433 . S
C745 N747 1.384 . S
N746 C742 1.427 . S
N746 C743 1.384 . S
N747 C739 1.427 . S
N747 C745 1.384 . S
H748 C754 0.930 . S
H749 C758 0.930 . S
H750 C763 0.929 . S
H751 C761 0.929 . S
H752 C756 0.929 . S
H753 C762 0.929 . S
C754 H748 0.930 . S
C754 C755 1.367 . S
C754 C762 1.378 . S
C755 C754 1.367 . S
C755 C763 1.433 1_455 S
C756 H752 0.929 . S
C756 C758 1.378 . S
C756 C760 1.350 1_655 S
C757 C760 1.463 . S
C757 C762 1.350 . S
C757 N765 1.427 1_455 S
C758 H749 0.930 . S
C758 C756 1.378 . S
C758 C759 1.367 1_655 S
C759 C758 1.367 1_455 S
C759 C761 1.433 . S
C760 C756 1.350 1_455 S
C760 C757 1.463 . S
C760 N764 1.427 . S
C761 H751 0.929 . S
C761 C759 1.433 . S
C761 N764 1.384 . S
C762 H753 0.929 . S
C762 C754 1.378 . S
C762 C757 1.350 . S
C763 H750 0.929 . S
C763 C755 1.433 1_655 S
C763 N765 1.384 . S
N764 C760 1.427 . S
N764 C761 1.384 . S
N765 C757 1.427 1_655 S
N765 C763 1.384 . S
H766 C772 0.930 . S
H767 C776 0.930 . S
H768 C781 0.929 . S
H769 C779 0.929 . S
H770 C774 0.929 . S
H771 C780 0.929 . S
C772 H766 0.930 . S
C772 C773 1.367 1_565 S
C772 C780 1.378 . S
C773 C772 1.367 1_545 S
C773 C781 1.433 . S
C774 H770 0.929 . S
C774 C776 1.378 . S
C774 C778 1.350 . S
C775 C778 1.463 . S
C775 C780 1.350 1_545 S
C775 N783 1.427 . S
C776 H767 0.930 . S
C776 C774 1.378 . S
C776 C777 1.367 . S
C777 C776 1.367 . S
C777 C779 1.433 1_545 S
C778 C774 1.350 . S
C778 C775 1.463 . S
C778 N782 1.427 1_545 S
C779 H769 0.929 . S
C779 C777 1.433 1_565 S
C779 N782 1.384 . S
C780 H771 0.929 . S
C780 C772 1.378 . S
C780 C775 1.350 1_565 S
C781 H768 0.929 . S
C781 C773 1.433 . S
C781 N783 1.384 . S
N782 C778 1.427 1_565 S
N782 C779 1.384 . S
N783 C775 1.427 . S
N783 C781 1.384 . S
C215 C5 1.208 . S
C219 C127 1.239 . S
C233 C140 1.233 . S
C237 C18 1.194 . S
C251 C147 1.237 . S
C255 C31 1.196 . S
C269 C114 1.233 . S
C273 C42 1.194 . S
C287 C57 1.191 . S
C291 C205 1.234 . S
C305 C160 1.235 . S
C309 C70 1.204 . S
C323 C173 1.234 . S
C327 C81 1.192 . S
C341 C186 1.234 . S
C345 C96 1.191 . S
C359 C109 1.199 . S
C363 C23 1.234 . S
C377 C122 1.208 . S
C381 C36 1.237 . S
C395 C135 1.197 . S
C399 C43 1.237 . S
C413 C10 1.239 . S
C417 C146 1.205 . S
C431 C159 1.208 . S
C435 C101 1.238 . S
C449 C172 1.194 . S
C453 C62 1.233 . S
C467 C75 1.236 . S
C471 C185 1.207 . S
C485 C200 1.193 . S
C489 C82 1.233 . S
C503 C108 1.656 . S
C507 C4 1.656 . S
C521 C17 1.651 . S
C525 C121 1.651 . S
C539 C134 1.644 . S
C543 C30 1.644 . S
C557 C49 1.657 . S
C561 C153 1.657 . S
C575 C166 1.654 . S
C579 C56 1.654 . S
C593 C69 1.647 . S
C597 C179 1.647 . S
C611 C192 1.650 . S
C615 C88 1.650 . S
C629 C199 1.658 . S
C633 C95 1.658 . S
C647 C55 1.723 . S
C651 C3 1.724 . S
C665 C68 1.726 . S
C669 C16 1.722 . S
C683 C29 1.728 . S
C687 C83 1.721 . S
C701 C94 1.724 . S
C705 C44 1.723 . S
C719 C107 1.729 . S
C723 C161 1.724 . S
C737 C174 1.723 . S
C741 C120 1.729 . S
C755 C187 1.721 . S
C759 C133 1.726 . S
C773 C198 1.728 . S
C777 C148 1.721 . S
