# Generated by pormake.
# Topology wgb, (5)-cn, num edge types: 1
# Building blocks:
#     Node 0, Type 0, BuildingBlock: BEQFEK_clean_sbu_0, # of connection points: 5
#     Node 1, Type 0, BuildingBlock: BEQFEK_clean_sbu_0, # of connection points: 5
#     Node 2, Type 0, BuildingBlock: BEQFEK_clean_sbu_0, # of connection points: 5
#     Node 3, Type 0, BuildingBlock: BEQFEK_clean_sbu_0, # of connection points: 5
#     Node 4, Type 0, BuildingBlock: BEQFEK_clean_sbu_0, # of connection points: 5
#     Node 5, Type 0, BuildingBlock: BEQFEK_clean_sbu_0, # of connection points: 5
#     Node 6, Type 0, BuildingBlock: BEQFEK_clean_sbu_0, # of connection points: 5
#     Node 7, Type 0, BuildingBlock: BEQFEK_clean_sbu_0, # of connection points: 5
#     Node 8, Type 0, BuildingBlock: BEQFEK_clean_sbu_0, # of connection points: 5
#     Node 9, Type 0, BuildingBlock: BEQFEK_clean_sbu_0, # of connection points: 5
#     Node 10, Type 0, BuildingBlock: BEQFEK_clean_sbu_0, # of connection points: 5
#     Node 11, Type 0, BuildingBlock: BEQFEK_clean_sbu_0, # of connection points: 5
#     Node 12, Type 0, BuildingBlock: BEQFEK_clean_sbu_0, # of connection points: 5
#     Node 13, Type 0, BuildingBlock: BEQFEK_clean_sbu_0, # of connection points: 5
#     Node 14, Type 0, BuildingBlock: BEQFEK_clean_sbu_0, # of connection points: 5
#     Node 15, Type 0, BuildingBlock: BEQFEK_clean_sbu_0, # of connection points: 5
#     Edge 16, Type (0, 0), BuildingBlock: TEMPAE_clean_linker_10, # of connection points: 2
#     Edge 17, Type (0, 0), BuildingBlock: TEMPAE_clean_linker_10, # of connection points: 2
#     Edge 18, Type (0, 0), BuildingBlock: TEMPAE_clean_linker_10, # of connection points: 2
#     Edge 19, Type (0, 0), BuildingBlock: TEMPAE_clean_linker_10, # of connection points: 2
#     Edge 20, Type (0, 0), BuildingBlock: TEMPAE_clean_linker_10, # of connection points: 2
#     Edge 21, Type (0, 0), BuildingBlock: TEMPAE_clean_linker_10, # of connection points: 2
#     Edge 22, Type (0, 0), BuildingBlock: TEMPAE_clean_linker_10, # of connection points: 2
#     Edge 23, Type (0, 0), BuildingBlock: TEMPAE_clean_linker_10, # of connection points: 2
#     Edge 24, Type (0, 0), BuildingBlock: TEMPAE_clean_linker_10, # of connection points: 2
#     Edge 25, Type (0, 0), BuildingBlock: TEMPAE_clean_linker_10, # of connection points: 2
#     Edge 26, Type (0, 0), BuildingBlock: TEMPAE_clean_linker_10, # of connection points: 2
#     Edge 27, Type (0, 0), BuildingBlock: TEMPAE_clean_linker_10, # of connection points: 2
#     Edge 28, Type (0, 0), BuildingBlock: TEMPAE_clean_linker_10, # of connection points: 2
#     Edge 29, Type (0, 0), BuildingBlock: TEMPAE_clean_linker_10, # of connection points: 2
#     Edge 30, Type (0, 0), BuildingBlock: TEMPAE_clean_linker_10, # of connection points: 2
#     Edge 31, Type (0, 0), BuildingBlock: TEMPAE_clean_linker_10, # of connection points: 2
#     Edge 32, Type (0, 0), BuildingBlock: TEMPAE_clean_linker_10, # of connection points: 2
#     Edge 33, Type (0, 0), BuildingBlock: TEMPAE_clean_linker_10, # of connection points: 2
#     Edge 34, Type (0, 0), BuildingBlock: TEMPAE_clean_linker_10, # of connection points: 2
#     Edge 35, Type (0, 0), BuildingBlock: TEMPAE_clean_linker_10, # of connection points: 2
#     Edge 36, Type (0, 0), BuildingBlock: TEMPAE_clean_linker_10, # of connection points: 2
#     Edge 37, Type (0, 0), BuildingBlock: TEMPAE_clean_linker_10, # of connection points: 2
#     Edge 38, Type (0, 0), BuildingBlock: TEMPAE_clean_linker_10, # of connection points: 2
#     Edge 39, Type (0, 0), BuildingBlock: TEMPAE_clean_linker_10, # of connection points: 2
#     Edge 40, Type (0, 0), BuildingBlock: TEMPAE_clean_linker_10, # of connection points: 2
#     Edge 41, Type (0, 0), BuildingBlock: TEMPAE_clean_linker_10, # of connection points: 2
#     Edge 42, Type (0, 0), BuildingBlock: TEMPAE_clean_linker_10, # of connection points: 2
#     Edge 43, Type (0, 0), BuildingBlock: TEMPAE_clean_linker_10, # of connection points: 2
#     Edge 44, Type (0, 0), BuildingBlock: TEMPAE_clean_linker_10, # of connection points: 2
#     Edge 45, Type (0, 0), BuildingBlock: TEMPAE_clean_linker_10, # of connection points: 2
#     Edge 46, Type (0, 0), BuildingBlock: TEMPAE_clean_linker_10, # of connection points: 2
#     Edge 47, Type (0, 0), BuildingBlock: TEMPAE_clean_linker_10, # of connection points: 2
#     Edge 48, Type (0, 0), BuildingBlock: TEMPAE_clean_linker_10, # of connection points: 2
#     Edge 49, Type (0, 0), BuildingBlock: TEMPAE_clean_linker_10, # of connection points: 2
#     Edge 50, Type (0, 0), BuildingBlock: TEMPAE_clean_linker_10, # of connection points: 2
#     Edge 51, Type (0, 0), BuildingBlock: TEMPAE_clean_linker_10, # of connection points: 2
#     Edge 52, Type (0, 0), BuildingBlock: TEMPAE_clean_linker_10, # of connection points: 2
#     Edge 53, Type (0, 0), BuildingBlock: TEMPAE_clean_linker_10, # of connection points: 2
#     Edge 54, Type (0, 0), BuildingBlock: TEMPAE_clean_linker_10, # of connection points: 2
#     Edge 55, Type (0, 0), BuildingBlock: TEMPAE_clean_linker_10, # of connection points: 2
# Relax obj value: 0.140
# Max RMSD: 0.139
# Mean RMSD: 0.139
data_MOF--net-wgb--node1-BEQFEK_clean_sbu_0--edge1-TEMPAE_clean_linker_10
_symmetry_space_group_name_H-M    P1
_symmetry_Int_Tables_number       1
_symmetry_cell_setting            triclinic
loop_
_symmetry_equiv_pos_as_xyz
'x, y, z'
_cell_length_a     64.511745
_cell_length_b     64.466067
_cell_length_c     20.494989
_cell_angle_alpha  90.018675
_cell_angle_beta   89.990384
_cell_angle_gamma 89.981151
loop_
_atom_site_label
_atom_site_type_symbol
_atom_site_fract_x
_atom_site_fract_y
_atom_site_fract_z
_atom_type_partial_charge
Co0 Co 0.34612 0.06798 0.11862 0.0
Co1 Co 0.3345 0.11465 0.14936 0.0
C2 C 0.31678 0.09189 0.03259 0.0
O3 O 0.32758 0.07551 0.04256 0.0
O4 O 0.31852 0.10778 0.06939 0.0
C5 C 0.34773 0.02392 0.12764 0.0
O6 O 0.32778 0.02644 0.13788 0.0
C7 C 0.32993 0.16031 0.13625 0.0
C8 C 0.32973 0.16962 0.24009 0.0
C9 C 0.32909 0.17747 0.17728 0.0
N10 N 0.33116 0.14314 0.17336 0.0
N11 N 0.33073 0.14884 0.23531 0.0
C12 C 0.33135 0.16021 0.06344 0.0
H13 H 0.33908 0.14582 0.04626 0.0
H14 H 0.33993 0.17403 0.04579 0.0
H15 H 0.31546 0.16066 0.04275 0.0
C16 C 0.38763 0.08455 0.15408 0.0
N17 N 0.36767 0.08758 0.13646 0.0
N18 N 0.36291 0.10723 0.14529 0.0
C19 C 0.3798 0.1174 0.16705 0.0
C20 C 0.39597 0.10338 0.1747 0.0
C21 C 0.3972 0.06352 0.16135 0.0
H22 H 0.38735 0.05389 0.19378 0.0
H23 H 0.39778 0.05584 0.11293 0.0
H24 H 0.41306 0.06428 0.18201 0.0
O25 O 0.32753 0.06617 0.19468 0.0
O26 O 0.32135 0.09905 0.22027 0.0
H27 H 0.37251 0.14224 0.23228 0.0
H28 H 0.39629 0.14587 0.18748 0.0
C29 C 0.38017 0.13995 0.18439 0.0
H30 H 0.37169 0.14899 0.14697 0.0
H31 H 0.3317 0.13853 0.27445 0.0
O32 O 0.35856 0.03963 0.11175 0.0
C33 C 0.31921 0.07977 0.23104 0.0
Co34 Co 0.06705 0.66672 0.87109 0.0
Co35 Co 0.11446 0.67696 0.84727 0.0
C36 C 0.09111 0.69465 0.96249 0.0
O37 O 0.07455 0.68441 0.94986 0.0
O38 O 0.10737 0.69261 0.92755 0.0
C39 C 0.02747 0.64301 0.89984 0.0
O40 O 0.03677 0.63176 0.94452 0.0
C41 C 0.16034 0.68038 0.8624 0.0
C42 C 0.16981 0.68019 0.75872 0.0
C43 C 0.17759 0.68072 0.82162 0.0
N44 N 0.1432 0.67951 0.825 0.0
N45 N 0.14903 0.6797 0.76317 0.0
C46 C 0.16008 0.67914 0.93523 0.0
H47 H 0.14542 0.67196 0.95238 0.0
H48 H 0.17356 0.6701 0.95325 0.0
H49 H 0.16107 0.69506 0.9556 0.0
C50 C 0.08314 0.62478 0.82967 0.0
N51 N 0.08605 0.64444 0.85129 0.0
N52 N 0.106 0.64873 0.84826 0.0
C53 C 0.11637 0.63177 0.82782 0.0
C54 C 0.10229 0.61611 0.81417 0.0
C55 C 0.06244 0.61578 0.81281 0.0
H56 H 0.05185 0.62813 0.79544 0.0
H57 H 0.05571 0.60841 0.85684 0.0
H58 H 0.0638 0.60375 0.77431 0.0
O59 O 0.06683 0.68632 0.79817 0.0
O60 O 0.1001 0.69142 0.77604 0.0
H61 H 0.14357 0.63806 0.77159 0.0
H62 H 0.14489 0.61445 0.8184 0.0
C63 C 0.13937 0.63076 0.81873 0.0
H64 H 0.14721 0.63919 0.85882 0.0
H65 H 0.13878 0.67893 0.72384 0.0
O66 O 0.0375 0.65721 0.87051 0.0
C67 C 0.08104 0.69451 0.76402 0.0
Co68 Co 0.66338 0.94089 0.11219 0.0
Co69 Co 0.67558 0.8942 0.14054 0.0
C70 C 0.69313 0.91814 0.02521 0.0
O71 O 0.68195 0.93425 0.03523 0.0
O72 O 0.6916 0.90217 0.06164 0.0
C73 C 0.66179 0.98488 0.12279 0.0
O74 O 0.6818 0.98226 0.13158 0.0
C75 C 0.67963 0.84848 0.12306 0.0
C76 C 0.68578 0.83891 0.22476 0.0
C77 C 0.68336 0.83119 0.16216 0.0
N78 N 0.67962 0.86549 0.16127 0.0
N79 N 0.68338 0.8596 0.22188 0.0
C80 C 0.67682 0.84909 0.05063 0.0
H81 H 0.68098 0.86457 0.03116 0.0
H82 H 0.66029 0.84617 0.03888 0.0
H83 H 0.68639 0.83697 0.02671 0.0
C84 C 0.62211 0.92361 0.14779 0.0
N85 N 0.64204 0.92088 0.12921 0.0
N86 N 0.64709 0.90128 0.13763 0.0
C87 C 0.63049 0.89088 0.16051 0.0
C88 C 0.61413 0.90466 0.16888 0.0
C89 C 0.61233 0.94451 0.15584 0.0
H90 H 0.62201 0.95407 0.18899 0.0
H91 H 0.61182 0.95243 0.1078 0.0
H92 H 0.59643 0.94352 0.17608 0.0
O93 O 0.68211 0.94234 0.18812 0.0
O94 O 0.68846 0.9094 0.21271 0.0
H95 H 0.63988 0.8664 0.2244 0.0
H96 H 0.61487 0.86233 0.18667 0.0
C97 C 0.63077 0.86841 0.17894 0.0
H98 H 0.63824 0.8593 0.13964 0.0
H99 H 0.68427 0.86974 0.26148 0.0
O100 O 0.65078 0.96923 0.10756 0.0
C101 C 0.6905 0.92867 0.22408 0.0
Co102 Co 0.94182 0.34507 0.87051 0.0
Co103 Co 0.8939 0.33598 0.88243 0.0
C104 C 0.92182 0.3201 0.98321 0.0
O105 O 0.93729 0.32719 0.9509 0.0
O106 O 0.90319 0.32412 0.96641 0.0
C107 C 0.98168 0.36792 0.89285 0.0
O108 O 0.97331 0.3775 0.94293 0.0
C109 C 0.84777 0.3351 0.90369 0.0
C110 C 0.83821 0.32608 0.80413 0.0
C111 C 0.83032 0.33107 0.86502 0.0
N112 N 0.86484 0.3327 0.86649 0.0
N113 N 0.85891 0.3272 0.80731 0.0
C114 C 0.84856 0.34228 0.97302 0.0
H115 H 0.86405 0.34883 0.98444 0.0
H116 H 0.83641 0.35413 0.98207 0.0
H117 H 0.84581 0.32887 0.00583 0.0
C118 C 0.92488 0.38683 0.83563 0.0
N119 N 0.92256 0.36748 0.85997 0.0
N120 N 0.90264 0.36381 0.86811 0.0
C121 C 0.89179 0.3809 0.85131 0.0
C122 C 0.90549 0.39604 0.83019 0.0
C123 C 0.94499 0.39561 0.81197 0.0
H124 H 0.95398 0.40131 0.85441 0.0
H125 H 0.94254 0.40883 0.77823 0.0
H126 H 0.95415 0.38339 0.78701 0.0
O127 O 0.93867 0.32592 0.7972 0.0
O128 O 0.90594 0.31759 0.81589 0.0
H129 H 0.86305 0.39762 0.83516 0.0
H130 H 0.86185 0.37686 0.89407 0.0
C131 C 0.86865 0.38179 0.84697 0.0
H132 H 0.86327 0.371 0.80839 0.0
H133 H 0.86902 0.32449 0.76851 0.0
O134 O 0.97113 0.35458 0.86145 0.0
C135 C 0.92279 0.31499 0.785 0.0
Co136 Co 0.34657 0.43961 0.1309 0.0
Co137 Co 0.33413 0.39322 0.09964 0.0
C138 C 0.31612 0.41667 0.21516 0.0
O139 O 0.32737 0.43278 0.20595 0.0
O140 O 0.31771 0.40074 0.17841 0.0
C141 C 0.34906 0.48384 0.1239 0.0
O142 O 0.32888 0.48206 0.11728 0.0
C143 C 0.32946 0.34763 0.1141 0.0
C144 C 0.32808 0.33812 0.01054 0.0
C145 C 0.32815 0.33039 0.07353 0.0
N146 N 0.33028 0.36473 0.07654 0.0
N147 N 0.32913 0.35891 0.01479 0.0
C148 C 0.33177 0.34788 0.18668 0.0
H149 H 0.33933 0.36248 0.20276 0.0
H150 H 0.34092 0.33429 0.20334 0.0
H151 H 0.31617 0.34702 0.20933 0.0
C152 C 0.38823 0.42164 0.10378 0.0
N153 N 0.3678 0.41936 0.1163 0.0
N154 N 0.36266 0.39985 0.10643 0.0
C155 C 0.37971 0.38909 0.08876 0.0
C156 C 0.39646 0.40253 0.08623 0.0
C157 C 0.39911 0.4421 0.10128 0.0
H158 H 0.39681 0.45039 0.14817 0.0
H159 H 0.41595 0.44017 0.09204 0.0
H160 H 0.39221 0.45168 0.06189 0.0
O161 O 0.3285 0.44166 0.05356 0.0
O162 O 0.32195 0.40892 0.02733 0.0
H163 H 0.39537 0.36109 0.05701 0.0
H164 H 0.37162 0.35719 0.10186 0.0
C165 C 0.37947 0.36711 0.06531 0.0
H166 H 0.37074 0.36623 0.01881 0.0
H167 H 0.32969 0.36913 0.97535 0.0
O168 O 0.35965 0.46767 0.13657 0.0
C169 C 0.32021 0.42824 0.0165 0.0
Co170 Co 0.44119 0.66494 0.87262 0.0
Co171 Co 0.39389 0.67536 0.89798 0.0
C172 C 0.41738 0.69336 0.78304 0.0
O173 O 0.43389 0.68293 0.79476 0.0
O174 O 0.4012 0.69138 0.81843 0.0
C175 C 0.48151 0.64232 0.84198 0.0
O176 O 0.47325 0.6324 0.79241 0.0
C177 C 0.34806 0.67895 0.88187 0.0
C178 C 0.33835 0.67888 0.98532 0.0
C179 C 0.33072 0.67944 0.92225 0.0
N180 N 0.36511 0.67798 0.91966 0.0
N181 N 0.35914 0.67824 0.98136 0.0
C182 C 0.34849 0.67773 0.80904 0.0
H183 H 0.36312 0.67038 0.79225 0.0
H184 H 0.33495 0.66885 0.79065 0.0
H185 H 0.34773 0.69366 0.78873 0.0
C186 C 0.42479 0.6225 0.90603 0.0
N187 N 0.42202 0.64265 0.88957 0.0
N188 N 0.40213 0.64707 0.89454 0.0
C189 C 0.39167 0.62977 0.91137 0.0
C190 C 0.40562 0.61367 0.91936 0.0
C191 C 0.44542 0.61251 0.91695 0.0
H192 H 0.45208 0.60798 0.86918 0.0
H193 H 0.44401 0.59832 0.9473 0.0
H194 H 0.45609 0.62357 0.94113 0.0
O195 O 0.44135 0.68417 0.94669 0.0
O196 O 0.40821 0.68928 0.97028 0.0
H197 H 0.36337 0.61288 0.93129 0.0
H198 H 0.36011 0.63729 0.88937 0.0
C199 C 0.36906 0.62909 0.92757 0.0
H200 H 0.36646 0.63689 0.97506 0.0
H201 H 0.36928 0.67744 0.02093 0.0
O202 O 0.47067 0.65526 0.87411 0.0
C203 C 0.42732 0.69224 0.98182 0.0
Co204 Co 0.66559 0.56847 0.12153 0.0
Co205 Co 0.67842 0.6147 0.08948 0.0
C206 C 0.6949 0.59172 0.20842 0.0
O207 O 0.68373 0.57557 0.19909 0.0
O208 O 0.69372 0.60732 0.17032 0.0
C209 C 0.66305 0.52415 0.11754 0.0
O210 O 0.68331 0.52576 0.11318 0.0
C211 C 0.68218 0.66044 0.10445 0.0
C212 C 0.68905 0.66956 0.0028 0.0
C213 C 0.68594 0.67758 0.06474 0.0
N214 N 0.68275 0.64324 0.06719 0.0
N215 N 0.68698 0.64885 0.00662 0.0
C216 C 0.67872 0.66019 0.17664 0.0
H217 H 0.68323 0.64499 0.19746 0.0
H218 H 0.662 0.66262 0.18677 0.0
H219 H 0.68766 0.67276 0.20066 0.0
C220 C 0.62447 0.58603 0.08471 0.0
N221 N 0.64454 0.58859 0.10198 0.0
N222 N 0.64985 0.60801 0.09148 0.0
C223 C 0.63331 0.61846 0.06826 0.0
C224 C 0.61668 0.60488 0.06224 0.0
C225 C 0.61427 0.56525 0.07945 0.0
H226 H 0.62343 0.55531 0.04595 0.0
H227 H 0.61415 0.55772 0.12812 0.0
H228 H 0.59818 0.56635 0.06079 0.0
O229 O 0.6848 0.56602 0.04688 0.0
O230 O 0.69164 0.59865 0.01953 0.0
H231 H 0.64321 0.64236 0.00298 0.0
H232 H 0.61801 0.64692 0.03901 0.0
C233 C 0.63381 0.64076 0.04802 0.0
H234 H 0.64109 0.65014 0.087 0.0
H235 H 0.68831 0.63851 0.96765 0.0
O236 O 0.65241 0.54048 0.12748 0.0
C237 C 0.69358 0.57925 0.01016 0.0
Co238 Co 0.5692 0.34484 0.86564 0.0
Co239 Co 0.61385 0.32952 0.90596 0.0
C240 C 0.59154 0.31407 0.78324 0.0
O241 O 0.57586 0.32609 0.78946 0.0
O242 O 0.60648 0.31458 0.82406 0.0
C243 C 0.52513 0.34917 0.86649 0.0
O244 O 0.52596 0.3288 0.86616 0.0
C245 C 0.65963 0.3284 0.89858 0.0
C246 C 0.66727 0.31024 0.98685 0.0
C247 C 0.67604 0.32054 0.93454 0.0
N248 N 0.64187 0.32319 0.92877 0.0
N249 N 0.64658 0.31226 0.98132 0.0
C250 C 0.66074 0.33958 0.83476 0.0
H251 H 0.64507 0.34463 0.81892 0.0
H252 H 0.67114 0.35321 0.83887 0.0
H253 H 0.66748 0.32908 0.79741 0.0
C254 C 0.5892 0.38554 0.89492 0.0
N255 N 0.59043 0.36488 0.88456 0.0
N256 N 0.6089 0.3584 0.90296 0.0
C257 C 0.61969 0.37459 0.9272 0.0
C258 C 0.6077 0.39234 0.92205 0.0
C259 C 0.56983 0.39802 0.8872 0.0
H260 H 0.56233 0.39422 0.83997 0.0
H261 H 0.57313 0.4149 0.8895 0.0
H262 H 0.55893 0.39394 0.92704 0.0
O263 O 0.56503 0.32608 0.94133 0.0
O264 O 0.59668 0.31776 0.97476 0.0
H265 H 0.6428 0.38638 0.99458 0.0
H266 H 0.65266 0.3717 0.92722 0.0
C267 C 0.63985 0.37272 0.96301 0.0
H268 H 0.63989 0.35852 0.99346 0.0
H269 H 0.63565 0.30623 0.01372 0.0
O270 O 0.54189 0.35936 0.85962 0.0
C271 C 0.57712 0.317 0.98105 0.0
Co272 Co 0.84377 0.56914 0.61899 0.0
Co273 Co 0.83068 0.61532 0.65136 0.0
C274 C 0.81432 0.5922 0.53231 0.0
O275 O 0.82561 0.57613 0.54149 0.0
O276 O 0.8154 0.6078 0.57049 0.0
C277 C 0.84664 0.5248 0.62398 0.0
O278 O 0.82639 0.52628 0.62921 0.0
C279 C 0.82701 0.66107 0.63588 0.0
C280 C 0.81958 0.67032 0.73704 0.0
C281 C 0.82304 0.67826 0.6752 0.0
N282 N 0.82623 0.64391 0.67328 0.0
N283 N 0.82168 0.6496 0.73355 0.0
C284 C 0.83086 0.6607 0.5639 0.0
H285 H 0.82657 0.64543 0.54309 0.0
H286 H 0.84762 0.66322 0.55463 0.0
H287 H 0.82197 0.67318 0.53922 0.0
C288 C 0.88482 0.58688 0.65542 0.0
N289 N 0.86472 0.58937 0.63842 0.0
N290 N 0.85929 0.60873 0.64955 0.0
C291 C 0.87576 0.61919 0.6732 0.0
C292 C 0.89248 0.6057 0.67857 0.0
C293 C 0.89522 0.56618 0.65973 0.0
H294 H 0.88641 0.55617 0.69393 0.0
H295 H 0.89499 0.55866 0.61103 0.0
H296 H 0.91144 0.5674 0.67705 0.0
O297 O 0.82456 0.56668 0.69368 0.0
O298 O 0.81752 0.59926 0.72132 0.0
H299 H 0.86536 0.64265 0.73935 0.0
H300 H 0.89079 0.64748 0.70535 0.0
C301 C 0.87508 0.64136 0.69488 0.0
H302 H 0.86803 0.65096 0.65603 0.0
H303 H 0.82012 0.63931 0.77255 0.0
O304 O 0.8571 0.54118 0.61315 0.0
C305 C 0.8157 0.57984 0.7305 0.0
Co306 Co 0.56882 0.16691 0.36721 0.0
Co307 Co 0.61459 0.18044 0.33202 0.0
C308 C 0.59221 0.1959 0.45411 0.0
O309 O 0.57614 0.18457 0.4454 0.0
O310 O 0.60752 0.19518 0.41462 0.0
C311 C 0.52917 0.14293 0.40117 0.0
O312 O 0.53704 0.13412 0.45337 0.0
C313 C 0.66056 0.18368 0.34285 0.0
C314 C 0.6685 0.19239 0.2416 0.0
C315 C 0.67723 0.18801 0.30176 0.0
N316 N 0.64293 0.18512 0.30795 0.0
N317 N 0.64785 0.19046 0.24765 0.0
C318 C 0.66113 0.17893 0.41429 0.0
H319 H 0.64618 0.18309 0.43755 0.0
H320 H 0.66364 0.16205 0.42123 0.0
H321 H 0.67401 0.18742 0.4383 0.0
C322 C 0.58719 0.12543 0.33194 0.0
N323 N 0.589 0.14587 0.34601 0.0
N324 N 0.60812 0.15175 0.33283 0.0
C325 C 0.61893 0.13534 0.31022 0.0
C326 C 0.6061 0.11814 0.30907 0.0
C327 C 0.5672 0.11369 0.33212 0.0
H328 H 0.56208 0.11146 0.38322 0.0
H329 H 0.56889 0.09824 0.30883 0.0
H330 H 0.55518 0.12269 0.30579 0.0
O331 O 0.56622 0.18672 0.29435 0.0
O332 O 0.59834 0.19394 0.26356 0.0
H333 H 0.64121 0.1474 0.24288 0.0
H334 H 0.64636 0.12106 0.26838 0.0
C335 C 0.64063 0.13645 0.28456 0.0
H336 H 0.65103 0.14228 0.32338 0.0
H337 H 0.63708 0.19261 0.21027 0.0
O338 O 0.54007 0.15547 0.36779 0.0
C339 C 0.57888 0.19579 0.25652 0.0
Co340 Co 0.16884 0.44213 0.62835 0.0
Co341 Co 0.17961 0.39482 0.65346 0.0
C342 C 0.19592 0.41831 0.53562 0.0
O343 O 0.18561 0.43486 0.54769 0.0
O344 O 0.19438 0.40236 0.57213 0.0
C345 C 0.14532 0.48177 0.59849 0.0
O346 O 0.13577 0.47304 0.54899 0.0
C347 C 0.18244 0.34885 0.63554 0.0
C348 C 0.18801 0.3392 0.7375 0.0
C349 C 0.18559 0.33149 0.67489 0.0
N350 N 0.18275 0.3659 0.67362 0.0
N351 N 0.18616 0.35994 0.73438 0.0
C352 C 0.17991 0.34941 0.56301 0.0
H353 H 0.18466 0.36469 0.54336 0.0
H354 H 0.16334 0.34698 0.55071 0.0
H355 H 0.18916 0.33692 0.53966 0.0
C356 C 0.1271 0.42584 0.66954 0.0
N357 N 0.14689 0.42295 0.64949 0.0
N358 N 0.15142 0.40309 0.65487 0.0
C359 C 0.13458 0.39272 0.67614 0.0
C360 C 0.11864 0.40676 0.68699 0.0
C361 C 0.11762 0.44665 0.68222 0.0
H362 H 0.12937 0.45729 0.703 0.0
H363 H 0.11187 0.45318 0.63559 0.0
H364 H 0.1044 0.4456 0.7167 0.0
O365 O 0.18932 0.44244 0.69934 0.0
O366 O 0.19456 0.4093 0.72348 0.0
H367 H 0.14269 0.36633 0.73389 0.0
H368 H 0.11791 0.36409 0.69336 0.0
C369 C 0.13404 0.36985 0.68846 0.0
H370 H 0.14154 0.36159 0.64739 0.0
H371 H 0.18719 0.37008 0.77395 0.0
O372 O 0.15869 0.47146 0.63061 0.0
C373 C 0.19783 0.42846 0.73374 0.0
Co374 Co 0.44124 0.84281 0.37545 0.0
Co375 Co 0.39425 0.83137 0.34827 0.0
C376 C 0.41813 0.81433 0.46498 0.0
O377 O 0.43446 0.82515 0.45447 0.0
O378 O 0.40224 0.81588 0.42819 0.0
C379 C 0.48178 0.86575 0.40334 0.0
O380 O 0.47431 0.87506 0.45528 0.0
C381 C 0.34839 0.82868 0.36618 0.0
C382 C 0.33884 0.82143 0.26515 0.0
C383 C 0.33108 0.82487 0.32721 0.0
N384 N 0.36544 0.82776 0.32835 0.0
N385 N 0.35955 0.82334 0.26817 0.0
C386 C 0.34894 0.83238 0.43821 0.0
H387 H 0.3643 0.82811 0.4584 0.0
H388 H 0.34634 0.84911 0.44793 0.0
H389 H 0.33658 0.82337 0.46303 0.0
C390 C 0.42398 0.88494 0.3416 0.0
N391 N 0.42157 0.86471 0.35762 0.0
N392 N 0.40192 0.85971 0.34937 0.0
C393 C 0.39133 0.87652 0.3289 0.0
C394 C 0.40489 0.89304 0.3234 0.0
C395 C 0.44445 0.89561 0.33476 0.0
H396 H 0.45545 0.88543 0.30824 0.0
H397 H 0.45077 0.89882 0.38398 0.0
H398 H 0.44294 0.91054 0.30826 0.0
O399 O 0.44165 0.82296 0.30236 0.0
O400 O 0.40871 0.81761 0.2766 0.0
H401 H 0.36738 0.86605 0.26478 0.0
H402 H 0.36348 0.89205 0.29533 0.0
C403 C 0.36911 0.87628 0.30795 0.0
H404 H 0.35942 0.87005 0.34797 0.0
H405 H 0.36971 0.8217 0.22887 0.0
O406 O 0.47051 0.85311 0.37158 0.0
C407 C 0.42789 0.81472 0.26649 0.0
Co408 Co 0.84144 0.94225 0.61439 0.0
Co409 Co 0.83065 0.89497 0.59004 0.0
C410 C 0.81399 0.91906 0.70685 0.0
O411 O 0.82448 0.9355 0.69494 0.0
O412 O 0.81559 0.90303 0.67066 0.0
C413 C 0.86358 0.983 0.64315 0.0
O414 O 0.87192 0.97579 0.69705 0.0
C415 C 0.82776 0.84917 0.61059 0.0
C416 C 0.82201 0.83892 0.50931 0.0
C417 C 0.82446 0.83158 0.57234 0.0
N418 N 0.82747 0.86597 0.57149 0.0
N419 N 0.82397 0.85966 0.51115 0.0
C420 C 0.8304 0.85021 0.68304 0.0
H421 H 0.82587 0.86569 0.7017 0.0
H422 H 0.84696 0.84766 0.69525 0.0
H423 H 0.82102 0.83802 0.70736 0.0
C424 C 0.88323 0.92593 0.57481 0.0
N425 N 0.86343 0.92298 0.59466 0.0
N426 N 0.85888 0.90316 0.58857 0.0
C427 C 0.87567 0.89288 0.56642 0.0
C428 C 0.89163 0.90693 0.55604 0.0
C429 C 0.89274 0.94683 0.56405 0.0
H430 H 0.8815 0.95709 0.53891 0.0
H431 H 0.8966 0.9538 0.61197 0.0
H432 H 0.90707 0.9459 0.5343 0.0
O433 O 0.82111 0.94221 0.54296 0.0
O434 O 0.81595 0.90906 0.5189 0.0
H435 H 0.86711 0.86705 0.50681 0.0
H436 H 0.89214 0.86436 0.54549 0.0
C437 C 0.87606 0.87012 0.55198 0.0
H438 H 0.86879 0.86152 0.59274 0.0
H439 H 0.82293 0.86955 0.471 0.0
O440 O 0.85155 0.9715 0.60986 0.0
C441 C 0.81272 0.9282 0.50839 0.0
Co442 Co 0.94288 0.1676 0.38148 0.0
Co443 Co 0.89493 0.17608 0.36695 0.0
C444 C 0.92299 0.1928 0.26872 0.0
O445 O 0.93831 0.18593 0.30209 0.0
O446 O 0.90431 0.18831 0.28362 0.0
C447 C 0.98188 0.14372 0.36073 0.0
O448 O 0.97234 0.13297 0.31531 0.0
C449 C 0.84886 0.17934 0.34426 0.0
C450 C 0.83887 0.18227 0.44707 0.0
C451 C 0.83141 0.18176 0.38382 0.0
N452 N 0.86574 0.17838 0.38293 0.0
N453 N 0.85954 0.18013 0.44415 0.0
C454 C 0.84966 0.17891 0.27136 0.0
H455 H 0.86508 0.184 0.25373 0.0
H456 H 0.84705 0.16277 0.25436 0.0
H457 H 0.83739 0.18897 0.25037 0.0
C458 C 0.92617 0.12591 0.41781 0.0
N459 N 0.92392 0.14498 0.39121 0.0
N460 N 0.90407 0.14839 0.38082 0.0
C461 C 0.89322 0.13137 0.39792 0.0
C462 C 0.90677 0.11661 0.4228 0.0
C463 C 0.94577 0.11828 0.44871 0.0
H464 H 0.95513 0.13152 0.46669 0.0
H465 H 0.95491 0.10957 0.41195 0.0
H466 H 0.94244 0.1077 0.4901 0.0
O467 O 0.93919 0.18633 0.45524 0.0
O468 O 0.9065 0.19458 0.43457 0.0
H469 H 0.86293 0.13708 0.4362 0.0
H470 H 0.86526 0.11308 0.39173 0.0
C471 C 0.87014 0.12958 0.39312 0.0
H472 H 0.86459 0.13752 0.34845 0.0
H473 H 0.86952 0.17994 0.48422 0.0
O474 O 0.97229 0.15833 0.38955 0.0
C475 C 0.92318 0.19717 0.46653 0.0
Co476 Co 0.16858 0.0675 0.62221 0.0
Co477 Co 0.17969 0.11467 0.59605 0.0
C478 C 0.19627 0.09108 0.71345 0.0
O479 O 0.18573 0.07463 0.7021 0.0
O480 O 0.19474 0.107 0.67676 0.0
C481 C 0.14507 0.02774 0.65197 0.0
O482 O 0.13552 0.03626 0.70185 0.0
C483 C 0.18267 0.1606 0.61408 0.0
C484 C 0.18852 0.17028 0.51231 0.0
C485 C 0.18595 0.17796 0.57488 0.0
N486 N 0.18304 0.14357 0.57594 0.0
N487 N 0.18662 0.14954 0.51529 0.0
C488 C 0.17994 0.16001 0.68655 0.0
H489 H 0.18461 0.1447 0.7062 0.0
H490 H 0.16335 0.16247 0.69846 0.0
H491 H 0.18916 0.17245 0.7102 0.0
C492 C 0.12682 0.08414 0.58272 0.0
N493 N 0.14672 0.08688 0.60195 0.0
N494 N 0.15143 0.10667 0.59578 0.0
C495 C 0.13464 0.11714 0.57457 0.0
C496 C 0.11853 0.10324 0.56481 0.0
C497 C 0.11706 0.06341 0.57113 0.0
H498 H 0.12854 0.05265 0.54939 0.0
H499 H 0.11171 0.05697 0.61836 0.0
H500 H 0.10353 0.06454 0.53794 0.0
O501 O 0.18873 0.06703 0.55032 0.0
O502 O 0.19416 0.10007 0.52537 0.0
H503 H 0.14321 0.14305 0.51533 0.0
H504 H 0.11829 0.14581 0.55473 0.0
C505 C 0.13435 0.13992 0.56064 0.0
H506 H 0.14175 0.14839 0.60143 0.0
H507 H 0.18773 0.13942 0.47571 0.0
O508 O 0.15833 0.03821 0.61996 0.0
C509 C 0.19718 0.08086 0.51524 0.0
Co510 Co 0.0669 0.84457 0.36922 0.0
Co511 Co 0.11417 0.8338 0.39398 0.0
C512 C 0.0905 0.81641 0.2783 0.0
O513 O 0.07406 0.82696 0.28996 0.0
O514 O 0.10659 0.81822 0.31405 0.0
C515 C 0.02723 0.86828 0.34013 0.0
O516 O 0.03612 0.87878 0.29287 0.0
C517 C 0.16016 0.83043 0.37834 0.0
C518 C 0.16919 0.82552 0.48122 0.0
C519 C 0.17725 0.8274 0.41889 0.0
N520 N 0.14293 0.83056 0.4155 0.0
N521 N 0.14852 0.82755 0.47681 0.0
C522 C 0.16 0.8324 0.30562 0.0
H523 H 0.14475 0.8277 0.28562 0.0
H524 H 0.16271 0.84885 0.29221 0.0
H525 H 0.17246 0.8228 0.28362 0.0
C526 C 0.08335 0.88626 0.41115 0.0
N527 N 0.08617 0.86662 0.38933 0.0
N528 N 0.10604 0.86207 0.39366 0.0
C529 C 0.11646 0.87877 0.41579 0.0
C530 C 0.10248 0.8946 0.42866 0.0
C531 C 0.06261 0.89553 0.42608 0.0
H532 H 0.05204 0.88346 0.44541 0.0
H533 H 0.05591 0.90199 0.38062 0.0
H534 H 0.06383 0.90824 0.46239 0.0
O535 O 0.0665 0.82476 0.44186 0.0
O536 O 0.09967 0.81962 0.46519 0.0
H537 H 0.14276 0.87059 0.47381 0.0
H538 H 0.14513 0.8953 0.43308 0.0
C539 C 0.13932 0.87917 0.42821 0.0
H540 H 0.14756 0.87158 0.38726 0.0
H541 H 0.13817 0.82692 0.51589 0.0
O542 O 0.03751 0.85453 0.3707 0.0
C543 C 0.08057 0.81657 0.47657 0.0
C544 C 0.28982 0.05763 0.26523 0.0
C545 C 0.30406 0.07332 0.28023 0.0
C546 C 0.27204 0.0548 0.30347 0.0
C547 C 0.26895 0.06762 0.35862 0.0
C548 C 0.28438 0.08205 0.37743 0.0
C549 C 0.30164 0.085 0.33719 0.0
C550 C 0.25578 0.03952 0.28131 0.0
C551 C 0.28194 0.09549 0.43732 0.0
C552 C 0.21644 0.08668 0.41212 0.0
C553 C 0.21314 0.07474 0.46806 0.0
C554 C 0.23387 0.08331 0.37292 0.0
C555 C 0.24859 0.06814 0.39172 0.0
C556 C 0.24474 0.05528 0.44623 0.0
C557 C 0.22683 0.05857 0.48342 0.0
C558 C 0.23715 0.09687 0.31372 0.0
C559 C 0.26028 0.03925 0.46846 0.0
H560 H 0.29166 0.04874 0.22067 0.0
H561 H 0.31279 0.09704 0.34873 0.0
H562 H 0.24942 0.03069 0.32317 0.0
H563 H 0.24272 0.04812 0.25868 0.0
H564 H 0.26199 0.0284 0.24479 0.0
H565 H 0.29659 0.10355 0.45033 0.0
H566 H 0.26985 0.1074 0.42828 0.0
H567 H 0.27685 0.08604 0.47963 0.0
H568 H 0.20573 0.09909 0.40023 0.0
H569 H 0.22432 0.04946 0.5272 0.0
H570 H 0.24171 0.08732 0.271 0.0
H571 H 0.24993 0.10797 0.32336 0.0
H572 H 0.22303 0.10587 0.30098 0.0
H573 H 0.2662 0.03011 0.42657 0.0
H574 H 0.25357 0.02844 0.50499 0.0
H575 H 0.27374 0.04722 0.49099 0.0
C576 C 0.0868 0.79837 0.58115 0.0
C577 C 0.07491 0.80079 0.52468 0.0
C578 C 0.0841 0.78105 0.62128 0.0
C579 C 0.0697 0.76554 0.60281 0.0
C580 C 0.05688 0.76846 0.54763 0.0
C581 C 0.05945 0.7863 0.50956 0.0
C582 C 0.09754 0.77875 0.68118 0.0
C583 C 0.04172 0.75204 0.52571 0.0
C584 C 0.08777 0.71309 0.66029 0.0
C585 C 0.07548 0.71031 0.71576 0.0
C586 C 0.08488 0.73035 0.61998 0.0
C587 C 0.06987 0.74542 0.63727 0.0
C588 C 0.05671 0.74212 0.69142 0.0
C589 C 0.0595 0.72435 0.72966 0.0
C590 C 0.09873 0.73306 0.56116 0.0
C591 C 0.04088 0.75808 0.71211 0.0
H592 H 0.09868 0.8097 0.59271 0.0
H593 H 0.05043 0.78814 0.46529 0.0
H594 H 0.08805 0.77399 0.72378 0.0
H595 H 0.10927 0.76644 0.67272 0.0
H596 H 0.1058 0.79336 0.69343 0.0
H597 H 0.03095 0.75792 0.48767 0.0
H598 H 0.05042 0.73868 0.50526 0.0
H599 H 0.03249 0.74618 0.56746 0.0
H600 H 0.10004 0.7021 0.6496 0.0
H601 H 0.05014 0.72224 0.77313 0.0
H602 H 0.10999 0.74572 0.57049 0.0
H603 H 0.08944 0.73751 0.51781 0.0
H604 H 0.10754 0.7187 0.54962 0.0
H605 H 0.04901 0.77172 0.73306 0.0
H606 H 0.03002 0.75191 0.74942 0.0
H607 H 0.03179 0.76363 0.66965 0.0
C608 C 0.78275 0.95007 0.4769 0.0
C609 C 0.7966 0.93405 0.46145 0.0
C610 C 0.76477 0.95316 0.43984 0.0
C611 C 0.76103 0.94026 0.38532 0.0
C612 C 0.77588 0.9252 0.36652 0.0
C613 C 0.79337 0.92202 0.40563 0.0
C614 C 0.74908 0.96904 0.46213 0.0
C615 C 0.77272 0.91161 0.30731 0.0
C616 C 0.70808 0.92326 0.33012 0.0
C617 C 0.70564 0.93504 0.2734 0.0
C618 C 0.72531 0.92619 0.37047 0.0
C619 C 0.74072 0.94069 0.35198 0.0
C620 C 0.73762 0.95358 0.29701 0.0
C621 C 0.71986 0.95078 0.2587 0.0
C622 C 0.72776 0.91268 0.43017 0.0
C623 C 0.75387 0.96892 0.27515 0.0
H624 H 0.78519 0.95923 0.52061 0.0
H625 H 0.8042 0.90973 0.39369 0.0
H626 H 0.74318 0.97822 0.42031 0.0
H627 H 0.73563 0.96094 0.48423 0.0
H628 H 0.75565 0.97983 0.499 0.0
H629 H 0.78691 0.90269 0.29465 0.0
H630 H 0.76 0.90044 0.31686 0.0
H631 H 0.76814 0.92113 0.26457 0.0
H632 H 0.69695 0.91117 0.3414 0.0
H633 H 0.71801 0.95974 0.21431 0.0
H634 H 0.73279 0.92209 0.47265 0.0
H635 H 0.7399 0.90083 0.42103 0.0
H636 H 0.71313 0.90455 0.44296 0.0
H637 H 0.76008 0.97781 0.31714 0.0
H638 H 0.74769 0.98 0.23846 0.0
H639 H 0.76702 0.96038 0.25288 0.0
C640 C 0.93906 0.29802 0.68808 0.0
C641 C 0.92411 0.29792 0.73762 0.0
C642 C 0.94026 0.28161 0.64331 0.0
C643 C 0.92646 0.26465 0.64955 0.0
C644 C 0.91168 0.26429 0.70042 0.0
C645 C 0.91053 0.28106 0.74342 0.0
C646 C 0.95591 0.28261 0.58863 0.0
C647 C 0.89694 0.24628 0.70914 0.0
C648 C 0.91184 0.23183 0.50442 0.0
C649 C 0.92429 0.21428 0.51368 0.0
C650 C 0.91302 0.2487 0.54705 0.0
C651 C 0.92661 0.2477 0.60107 0.0
C652 C 0.93927 0.23003 0.61071 0.0
C653 C 0.93815 0.21355 0.5662 0.0
C654 C 0.89958 0.26749 0.53463 0.0
C655 C 0.95357 0.22833 0.66878 0.0
H656 H 0.94956 0.31107 0.68365 0.0
H657 H 0.89914 0.2808 0.78232 0.0
H658 H 0.96597 0.26866 0.58948 0.0
H659 H 0.94776 0.2827 0.54095 0.0
H660 H 0.96587 0.29663 0.59171 0.0
H661 H 0.88728 0.24785 0.75375 0.0
H662 H 0.88649 0.24514 0.66631 0.0
H663 H 0.90574 0.23152 0.71212 0.0
H664 H 0.90137 0.23254 0.46309 0.0
H665 H 0.94779 0.19995 0.57317 0.0
H666 H 0.90921 0.28174 0.53385 0.0
H667 H 0.88815 0.26927 0.57471 0.0
H668 H 0.89101 0.26638 0.48775 0.0
H669 H 0.96429 0.24177 0.67023 0.0
H670 H 0.96287 0.21383 0.66796 0.0
H671 H 0.94435 0.22869 0.71448 0.0
C672 C 0.30283 0.42324 0.90989 0.0
C673 C 0.30534 0.43495 0.96675 0.0
C674 C 0.28562 0.42632 0.86954 0.0
C675 C 0.27032 0.44093 0.8881 0.0
C676 C 0.27355 0.45382 0.94302 0.0
C677 C 0.29128 0.45085 0.98137 0.0
C678 C 0.28305 0.4128 0.80989 0.0
C679 C 0.25743 0.4693 0.96493 0.0
C680 C 0.22797 0.45027 0.76411 0.0
C681 C 0.2141 0.43433 0.78016 0.0
C682 C 0.24606 0.45335 0.80064 0.0
C683 C 0.24992 0.44052 0.85522 0.0
C684 C 0.23507 0.42554 0.87461 0.0
C685 C 0.21746 0.42237 0.83603 0.0
C686 C 0.26173 0.46914 0.77775 0.0
C687 C 0.23835 0.41202 0.93389 0.0
H688 H 0.31384 0.41102 0.89863 0.0
H689 H 0.29317 0.45978 0.02584 0.0
H690 H 0.27091 0.40097 0.81928 0.0
H691 H 0.27795 0.4222 0.76749 0.0
H692 H 0.29764 0.40463 0.79687 0.0
H693 H 0.26375 0.48043 0.00125 0.0
H694 H 0.25116 0.47813 0.92292 0.0
H695 H 0.24429 0.46088 0.98771 0.0
H696 H 0.22543 0.45938 0.72035 0.0
H697 H 0.20662 0.41013 0.84843 0.0
H698 H 0.27507 0.46097 0.75522 0.0
H699 H 0.26781 0.47832 0.81931 0.0
H700 H 0.25507 0.47993 0.74105 0.0
H701 H 0.25104 0.40081 0.92417 0.0
H702 H 0.22419 0.40314 0.94697 0.0
H703 H 0.24304 0.42158 0.97642 0.0
C704 C 0.42246 0.79647 0.16154 0.0
C705 C 0.43397 0.79894 0.21878 0.0
C706 C 0.42526 0.77899 0.12212 0.0
C707 C 0.43936 0.76338 0.14204 0.0
C708 C 0.45187 0.76638 0.19787 0.0
C709 C 0.44921 0.78437 0.23527 0.0
C710 C 0.41215 0.77661 0.06152 0.0
C711 C 0.46673 0.74989 0.22128 0.0
C712 C 0.4207 0.71104 0.0854 0.0
C713 C 0.43311 0.70791 0.03036 0.0
C714 C 0.42375 0.72834 0.12547 0.0
C715 C 0.43909 0.7431 0.10842 0.0
C716 C 0.45242 0.73939 0.05494 0.0
C717 C 0.44944 0.7216 0.01692 0.0
C718 C 0.40969 0.73148 0.18358 0.0
C719 C 0.46864 0.75498 0.03456 0.0
H720 H 0.41074 0.80785 0.14894 0.0
H721 H 0.45793 0.78624 0.28012 0.0
H722 H 0.42183 0.77154 0.01969 0.0
H723 H 0.40021 0.76451 0.06979 0.0
H724 H 0.40417 0.79129 0.04817 0.0
H725 H 0.47746 0.75587 0.25929 0.0
H726 H 0.45778 0.73681 0.24232 0.0
H727 H 0.47601 0.74361 0.18022 0.0
H728 H 0.40817 0.70033 0.09582 0.0
H729 H 0.45892 0.71923 0.97384 0.0
H730 H 0.39866 0.74427 0.17329 0.0
H731 H 0.41886 0.73597 0.22717 0.0
H732 H 0.40064 0.7173 0.19526 0.0
H733 H 0.46087 0.76863 0.01235 0.0
H734 H 0.47965 0.74843 0.99832 0.0
H735 H 0.47753 0.76062 0.07733 0.0
C736 C 0.72258 0.55614 0.97811 0.0
C737 C 0.70889 0.57223 0.96206 0.0
C738 C 0.74051 0.55271 0.94096 0.0
C739 C 0.74435 0.56537 0.88592 0.0
C740 C 0.72943 0.58019 0.86595 0.0
C741 C 0.712 0.58369 0.90502 0.0
C742 C 0.75616 0.53697 0.96425 0.0
C743 C 0.73265 0.59351 0.80619 0.0
C744 C 0.79716 0.58414 0.83553 0.0
C745 C 0.80042 0.5727 0.77851 0.0
C746 C 0.77976 0.58047 0.87455 0.0
C747 C 0.76501 0.56548 0.85455 0.0
C748 C 0.76901 0.55286 0.79951 0.0
C749 C 0.78691 0.55647 0.76241 0.0
C750 C 0.77637 0.59377 0.9343 0.0
C751 C 0.75354 0.53694 0.77619 0.0
H752 H 0.72021 0.54738 0.02265 0.0
H753 H 0.70127 0.59603 0.89257 0.0
H754 H 0.76284 0.52818 0.92275 0.0
H755 H 0.7691 0.54516 0.98894 0.0
H756 H 0.74924 0.52583 -0.00058 0.0
H757 H 0.71832 0.60197 0.79214 0.0
H758 H 0.74499 0.60508 0.81604 0.0
H759 H 0.73777 0.58389 0.76427 0.0
H760 H 0.80776 0.59659 0.84803 0.0
H761 H 0.78939 0.54772 0.71789 0.0
H762 H 0.77136 0.5841 0.97622 0.0
H763 H 0.76389 0.60519 0.92443 0.0
H764 H 0.79059 0.6024 0.94836 0.0
H765 H 0.74696 0.52808 0.81767 0.0
H766 H 0.76058 0.52588 0.741 0.0
H767 H 0.74051 0.54499 0.75152 0.0
C768 C 0.58255 0.21529 0.153 0.0
C769 C 0.5711 0.21104 0.20931 0.0
C770 C 0.57801 0.23266 0.11477 0.0
C771 C 0.56199 0.24632 0.13465 0.0
C772 C 0.54932 0.2412 0.18855 0.0
C773 C 0.55392 0.2234 0.22507 0.0
C774 C 0.5915 0.23728 0.0563 0.0
C775 C 0.53221 0.25542 0.21143 0.0
C776 C 0.57886 0.29999 0.0889 0.0
C777 C 0.56865 0.30255 0.02932 0.0
C778 C 0.57498 0.28262 0.12777 0.0
C779 C 0.56104 0.26724 0.10515 0.0
C780 C 0.54922 0.27077 0.0481 0.0
C781 C 0.55303 0.28863 0.01095 0.0
C782 C 0.5874 0.27974 0.18959 0.0
C783 C 0.53427 0.25474 0.02239 0.0
H784 H 0.59569 0.20556 0.14052 0.0
H785 H 0.54507 0.22011 0.26887 0.0
H786 H 0.58185 0.24188 0.01388 0.0
H787 H 0.60196 0.25045 0.06778 0.0
H788 H 0.60118 0.22375 0.04215 0.0
H789 H 0.52108 0.24722 0.2438 0.0
H790 H 0.5391 0.26847 0.23926 0.0
H791 H 0.52361 0.26213 0.16959 0.0
H792 H 0.59081 0.31093 0.10311 0.0
H793 H 0.5452 0.29063 0.96455 0.0
H794 H 0.59973 0.26803 0.18111 0.0
H795 H 0.57738 0.27394 0.22963 0.0
H796 H 0.59488 0.2944 0.20561 0.0
H797 H 0.54311 0.2424 0.99682 0.0
H798 H 0.5231 0.26161 0.98723 0.0
H799 H 0.52551 0.2473 0.06263 0.0
C800 C 0.31589 0.30034 0.14069 0.0
C801 C 0.32849 0.30814 0.09079 0.0
C802 C 0.31547 0.27899 0.15459 0.0
C803 C 0.32825 0.26527 0.11846 0.0
C804 C 0.34119 0.27318 0.06856 0.0
C805 C 0.34094 0.29449 0.05479 0.0
C806 C 0.30116 0.27107 0.20729 0.0
C807 C 0.3554 0.25916 0.02995 0.0
C808 C 0.3419 0.21341 0.19511 0.0
C809 C 0.3291 0.19976 0.16041 0.0
C810 C 0.3419 0.23474 0.18157 0.0
C811 C 0.32835 0.24266 0.13329 0.0
C812 C 0.3152 0.22893 0.09857 0.0
C813 C 0.31587 0.20757 0.11216 0.0
C814 C 0.3565 0.24876 0.2186 0.0
C815 C 0.30026 0.23685 0.04766 0.0
H816 H 0.30594 0.31084 0.16763 0.0
H817 H 0.35072 0.30055 0.01622 0.0
H818 H 0.29039 0.25938 0.18659 0.0
H819 H 0.31027 0.26324 0.246 0.0
H820 H 0.29191 0.2837 0.22995 0.0
H821 H 0.36482 0.26785 0.99375 0.0
H822 H 0.36603 0.25083 0.06347 0.0
H823 H 0.34618 0.24727 0.00374 0.0
H824 H 0.35215 0.20734 0.23243 0.0
H825 H 0.30566 0.19706 0.08628 0.0
H826 H 0.34757 0.26066 0.24579 0.0
H827 H 0.36675 0.25709 0.18393 0.0
H828 H 0.36632 0.24008 0.25376 0.0
H829 H 0.28975 0.24856 0.06963 0.0
H830 H 0.29073 0.22423 0.02618 0.0
H831 H 0.30889 0.24466 0.00783 0.0
C832 C 0.20799 0.69304 0.8873 0.0
C833 C 0.19987 0.68019 0.83851 0.0
C834 C 0.22939 0.69334 0.90039 0.0
C835 C 0.24286 0.68021 0.8645 0.0
C836 C 0.23463 0.66703 0.81574 0.0
C837 C 0.21328 0.66737 0.80283 0.0
C838 C 0.23763 0.70788 0.95198 0.0
C839 C 0.24836 0.65248 0.77737 0.0
C840 C 0.30061 0.69221 0.85609 0.0
C841 C 0.30847 0.67921 0.90489 0.0
C842 C 0.27923 0.69288 0.8428 0.0
C843 C 0.26552 0.67998 0.87851 0.0
C844 C 0.27348 0.66662 0.92721 0.0
C845 C 0.29482 0.66659 0.94032 0.0
C846 C 0.27128 0.7076 0.79129 0.0
C847 C 0.25947 0.6523 0.96539 0.0
H848 H 0.19771 0.70329 0.91393 0.0
H849 H 0.207 0.6574 0.76508 0.0
H850 H 0.24555 0.69891 0.99084 0.0
H851 H 0.2493 0.71846 0.93022 0.0
H852 H 0.22517 0.71735 0.97467 0.0
H853 H 0.23946 0.64294 0.74196 0.0
H854 H 0.26024 0.66145 0.75027 0.0
H855 H 0.25672 0.64194 0.81113 0.0
H856 H 0.31108 0.70231 0.82966 0.0
H857 H 0.3009 0.65651 0.97809 0.0
H858 H 0.25984 0.71843 0.81314 0.0
H859 H 0.26315 0.69882 0.75243 0.0
H860 H 0.28392 0.71681 0.76859 0.0
H861 H 0.24779 0.66148 0.99267 0.0
H862 H 0.26819 0.64254 0.00062 0.0
H863 H 0.2509 0.64198 0.93149 0.0
C864 C 0.67167 0.80035 0.0965 0.0
C865 C 0.68457 0.8089 0.14453 0.0
C866 C 0.6721 0.779 0.08275 0.0
C867 C 0.68555 0.76586 0.1185 0.0
C868 C 0.69859 0.77441 0.16703 0.0
C869 C 0.69791 0.79579 0.1795 0.0
C870 C 0.65791 0.77044 0.03072 0.0
C871 C 0.71311 0.76092 0.20631 0.0
C872 C 0.67261 0.70837 0.1274 0.0
C873 C 0.68629 0.69999 0.08122 0.0
C874 C 0.67232 0.72976 0.14041 0.0
C875 C 0.68582 0.74312 0.10573 0.0
C876 C 0.69958 0.73476 0.05882 0.0
C877 C 0.69961 0.71332 0.04707 0.0
C878 C 0.65737 0.73811 0.1907 0.0
C879 C 0.71417 0.7485 0.02071 0.0
H880 H 0.66075 0.81016 0.07096 0.0
H881 H 0.70784 0.80229 0.21696 0.0
H882 H 0.66706 0.76188 0.99362 0.0
H883 H 0.64689 0.75924 0.05276 0.0
H884 H 0.6489 0.78281 0.0058 0.0
H885 H 0.72244 0.77003 0.24174 0.0
H886 H 0.70411 0.74908 0.2335 0.0
H887 H 0.72383 0.75251 0.17325 0.0
H888 H 0.66168 0.69837 0.15212 0.0
H889 H 0.71012 0.70695 0.01095 0.0
H890 H 0.64647 0.74917 0.16741 0.0
H891 H 0.66595 0.74677 0.2289 0.0
H892 H 0.64825 0.72561 0.21452 0.0
H893 H 0.7052 0.7602 0.9928 0.0
H894 H 0.72396 0.73955 0.98607 0.0
H895 H 0.72447 0.75708 0.05465 0.0
C896 C 0.79371 0.33386 0.82718 0.0
C897 C 0.80769 0.33195 0.8795 0.0
C898 C 0.77224 0.33285 0.83673 0.0
C899 C 0.76435 0.33031 0.90051 0.0
C900 C 0.7782 0.3291 0.954 0.0
C901 C 0.79972 0.32959 0.94278 0.0
C902 C 0.75805 0.3338 0.77815 0.0
C903 C 0.7703 0.32674 0.02293 0.0
C904 C 0.70723 0.34298 0.92312 0.0
C905 C 0.69842 0.32315 0.92339 0.0
C906 C 0.72877 0.34557 0.91743 0.0
C907 C 0.74162 0.32788 0.91037 0.0
C908 C 0.73266 0.30782 0.91003 0.0
C909 C 0.71115 0.30569 0.91767 0.0
C910 C 0.73779 0.36716 0.91963 0.0
C911 C 0.74574 0.28861 0.90078 0.0
H912 H 0.79954 0.33578 0.77796 0.0
H913 H 0.81008 0.32741 0.98353 0.0
H914 H 0.74904 0.31918 0.77443 0.0
H915 H 0.74674 0.34664 0.78379 0.0
H916 H 0.76667 0.33611 0.73179 0.0
H917 H 0.78289 0.32822 0.0596 0.0
H918 H 0.75829 0.33862 0.03335 0.0
H919 H 0.76292 0.31132 0.02881 0.0
H920 H 0.69731 0.35643 0.9292 0.0
H921 H 0.70421 0.29037 0.91842 0.0
H922 H 0.74584 0.37064 0.87309 0.0
H923 H 0.74951 0.36819 0.95912 0.0
H924 H 0.72576 0.3792 0.92802 0.0
H925 H 0.75424 0.28956 0.85379 0.0
H926 H 0.73632 0.27419 0.90092 0.0
H927 H 0.75749 0.28751 0.94012 0.0
C928 C 0.81052 0.79589 0.55626 0.0
C929 C 0.82354 0.80936 0.59107 0.0
C930 C 0.81009 0.77456 0.56972 0.0
C931 C 0.82307 0.76643 0.61911 0.0
C932 C 0.8362 0.77993 0.65471 0.0
C933 C 0.83637 0.80123 0.63998 0.0
C934 C 0.79591 0.76069 0.53055 0.0
C935 C 0.85031 0.77183 0.70766 0.0
C936 C 0.8092 0.71402 0.69179 0.0
C937 C 0.82272 0.70066 0.65843 0.0
C938 C 0.80916 0.73544 0.67954 0.0
C939 C 0.82304 0.74375 0.63293 0.0
C940 C 0.83679 0.73037 0.5992 0.0
C941 C 0.83655 0.709 0.61268 0.0
C942 C 0.79431 0.74918 0.71665 0.0
C943 C 0.85187 0.73866 0.54926 0.0
H944 H 0.80062 0.80206 0.51816 0.0
H945 H 0.84704 0.81132 0.66547 0.0
H946 H 0.80517 0.74882 0.5043 0.0
H947 H 0.78517 0.75232 0.56361 0.0
H948 H 0.7866 0.76949 0.49431 0.0
H949 H 0.85905 0.78444 0.73232 0.0
H950 H 0.84114 0.76333 0.74483 0.0
H951 H 0.86157 0.76068 0.68656 0.0
H952 H 0.79857 0.70769 0.72759 0.0
H953 H 0.84763 0.69899 0.5886 0.0
H954 H 0.78399 0.75746 0.68204 0.0
H955 H 0.80306 0.76114 0.74418 0.0
H956 H 0.78455 0.7403 0.75149 0.0
H957 H 0.84336 0.747 0.51022 0.0
H958 H 0.86129 0.72617 0.52652 0.0
H959 H 0.86249 0.74999 0.57253 0.0
C960 C 0.79636 0.19635 0.40511 0.0
C961 C 0.8092 0.18379 0.36646 0.0
C962 C 0.77494 0.1974 0.39409 0.0
C963 C 0.76606 0.1855 0.34333 0.0
C964 C 0.77895 0.17296 0.30351 0.0
C965 C 0.80039 0.1722 0.31568 0.0
C966 C 0.76178 0.21102 0.43752 0.0
C967 C 0.77001 0.15998 0.24904 0.0
C968 C 0.70861 0.17288 0.3568 0.0
C969 C 0.69982 0.18769 0.31507 0.0
C970 C 0.73016 0.17194 0.36628 0.0
C971 C 0.74323 0.18602 0.33275 0.0
C972 C 0.73445 0.20091 0.29027 0.0
C973 C 0.71287 0.20151 0.28182 0.0
C974 C 0.73897 0.15578 0.41183 0.0
C975 C 0.74784 0.21621 0.25376 0.0
H976 H 0.80308 0.20532 0.44455 0.0
H977 H 0.81008 0.16198 0.28691 0.0
H978 H 0.753 0.22234 0.40756 0.0
H979 H 0.75027 0.20139 0.46398 0.0
H980 H 0.77117 0.21968 0.47388 0.0
H981 H 0.78219 0.15168 0.22097 0.0
H982 H 0.75909 0.14838 0.26944 0.0
H983 H 0.76106 0.16992 0.21501 0.0
H984 H 0.69877 0.16162 0.38069 0.0
H985 H 0.70617 0.2129 0.24911 0.0
H986 H 0.74789 0.16341 0.4514 0.0
H987 H 0.74988 0.14558 0.38496 0.0
H988 H 0.72672 0.14598 0.43424 0.0
H989 H 0.75675 0.22582 0.28884 0.0
H990 H 0.7386 0.22667 0.22198 0.0
H991 H 0.75925 0.20781 0.22306 0.0
C992 C 0.17312 0.30084 0.60982 0.0
C993 C 0.1863 0.30917 0.65745 0.0
C994 C 0.17308 0.27946 0.59625 0.0
C995 C 0.18643 0.26609 0.63157 0.0
C996 C 0.19975 0.27442 0.67972 0.0
C997 C 0.19947 0.29583 0.6922 0.0
C998 C 0.15857 0.27113 0.54474 0.0
C999 C 0.21422 0.26071 0.71839 0.0
C1000 C 0.17322 0.20859 0.63964 0.0
C1001 C 0.18657 0.20029 0.59239 0.0
C1002 C 0.17308 0.22997 0.65318 0.0
C1003 C 0.18648 0.24337 0.61823 0.0
C1004 C 0.19998 0.23506 0.57047 0.0
C1005 C 0.1998 0.21366 0.55801 0.0
C1006 C 0.15838 0.23826 0.70426 0.0
C1007 C 0.21452 0.2488 0.53221 0.0
H1008 H 0.16236 0.31086 0.58443 0.0
H1009 H 0.20962 0.30216 0.72934 0.0
H1010 H 0.16749 0.26268 0.50684 0.0
H1011 H 0.14764 0.25989 0.56698 0.0
H1012 H 0.14947 0.28362 0.52075 0.0
H1013 H 0.22372 0.26965 0.75382 0.0
H1014 H 0.20518 0.24888 0.74549 0.0
H1015 H 0.22479 0.25229 0.68488 0.0
H1016 H 0.16241 0.19854 0.66472 0.0
H1017 H 0.21008 0.20735 0.52115 0.0
H1018 H 0.14748 0.24948 0.6817 0.0
H1019 H 0.16716 0.24674 0.74241 0.0
H1020 H 0.14925 0.22576 0.72801 0.0
H1021 H 0.20552 0.26061 0.50483 0.0
H1022 H 0.22415 0.23989 0.49707 0.0
H1023 H 0.22496 0.25726 0.56601 0.0
C1024 C 0.30036 0.83841 0.38976 0.0
C1025 C 0.30874 0.82451 0.34424 0.0
C1026 C 0.27894 0.83887 0.40229 0.0
C1027 C 0.2656 0.82523 0.36802 0.0
C1028 C 0.274 0.81114 0.32215 0.0
C1029 C 0.29543 0.811 0.31072 0.0
C1030 C 0.27055 0.85416 0.45144 0.0
C1031 C 0.26031 0.79633 0.28467 0.0
C1032 C 0.21264 0.8134 0.43979 0.0
C1033 C 0.19965 0.82633 0.4029 0.0
C1034 C 0.23409 0.81286 0.42886 0.0
C1035 C 0.24284 0.82565 0.38003 0.0
C1036 C 0.22983 0.83875 0.34253 0.0
C1037 C 0.20839 0.839 0.35463 0.0
C1038 C 0.24742 0.79867 0.46983 0.0
C1039 C 0.23861 0.85269 0.29018 0.0
H1040 H 0.31038 0.84942 0.41413 0.0
H1041 H 0.30181 0.80028 0.27522 0.0
H1042 H 0.25964 0.86499 0.42715 0.0
H1043 H 0.26171 0.84586 0.48986 0.0
H1044 H 0.28302 0.86336 0.4751 0.0
H1045 H 0.2693 0.78622 0.25109 0.0
H1046 H 0.25154 0.78635 0.31905 0.0
H1047 H 0.24878 0.80516 0.25566 0.0
H1048 H 0.20598 0.80365 0.47744 0.0
H1049 H 0.19862 0.84959 0.32756 0.0
H1050 H 0.25918 0.80789 0.49665 0.0
H1051 H 0.25592 0.78765 0.43796 0.0
H1052 H 0.23819 0.78964 0.50572 0.0
H1053 H 0.24983 0.86372 0.31203 0.0
H1054 H 0.22638 0.86168 0.26458 0.0
H1055 H 0.24718 0.84331 0.25366 0.0
C1056 C 0.28243 0.10469 0.99269 0.0
C1057 C 0.29967 0.09165 0.98365 0.0
C1058 C 0.26511 0.10372 0.95126 0.0
C1059 C 0.26508 0.08977 0.89792 0.0
C1060 C 0.28254 0.07675 0.88776 0.0
C1061 C 0.29948 0.07761 0.9313 0.0
C1062 C 0.24673 0.11759 0.96495 0.0
C1063 C 0.28343 0.06209 0.83042 0.0
C1064 C 0.21347 0.07662 0.81491 0.0
C1065 C 0.21304 0.09104 0.76363 0.0
C1066 C 0.23022 0.07604 0.85928 0.0
C1067 C 0.24724 0.08976 0.85103 0.0
C1068 C 0.24694 0.10415 0.79893 0.0
C1069 C 0.22982 0.1048 0.75671 0.0
C1070 C 0.22965 0.06085 0.91525 0.0
C1071 C 0.26486 0.11877 0.7872 0.0
H1072 H 0.28217 0.11535 0.03358 0.0
H1073 H 0.31265 0.06742 0.92406 0.0
H1074 H 0.2445 0.12862 0.92402 0.0
H1075 H 0.2324 0.10815 0.96878 0.0
H1076 H 0.24863 0.12663 0.01071 0.0
H1077 H 0.29808 0.05304 0.82912 0.0
H1078 H 0.27021 0.05112 0.83236 0.0
H1079 H 0.28201 0.07096 0.78424 0.0
H1080 H 0.20067 0.06588 0.82057 0.0
H1081 H 0.22992 0.11581 0.71675 0.0
H1082 H 0.23089 0.06932 0.96224 0.0
H1083 H 0.24311 0.05019 0.91227 0.0
H1084 H 0.2152 0.05149 0.91567 0.0
H1085 H 0.2667 0.12935 0.82948 0.0
H1086 H 0.26271 0.12831 0.74257 0.0
H1087 H 0.27949 0.10985 0.78235 0.0
C1088 C 0.10338 0.7821 0.23825 0.0
C1089 C 0.0902 0.79925 0.22929 0.0
C1090 C 0.10255 0.76472 0.19694 0.0
C1091 C 0.08862 0.76453 0.14362 0.0
C1092 C 0.07544 0.78189 0.1335 0.0
C1093 C 0.07614 0.7989 0.17706 0.0
C1094 C 0.11656 0.74646 0.21079 0.0
C1095 C 0.06079 0.78261 0.0762 0.0
C1096 C 0.10426 0.7287 0.00405 0.0
C1097 C 0.09074 0.71176 0.01168 0.0
C1098 C 0.10324 0.74611 0.0452 0.0
C1099 C 0.08874 0.74654 0.09703 0.0
C1100 C 0.07524 0.72937 0.10589 0.0
C1101 C 0.07616 0.71234 0.0625 0.0
C1102 C 0.11764 0.76416 0.03276 0.0
C1103 C 0.05998 0.72889 0.16165 0.0
H1104 H 0.11406 0.78193 0.27906 0.0
H1105 H 0.06583 0.81198 0.16988 0.0
H1106 H 0.10725 0.73204 0.21473 0.0
H1107 H 0.12762 0.74428 0.16991 0.0
H1108 H 0.12557 0.74847 0.25656 0.0
H1109 H 0.05168 0.79723 0.0747 0.0
H1110 H 0.06966 0.78115 0.03002 0.0
H1111 H 0.04989 0.76933 0.07837 0.0
H1112 H 0.11536 0.72868 0.96432 0.0
H1113 H 0.06559 0.69943 0.06865 0.0
H1114 H 0.12827 0.7662 0.07478 0.0
H1115 H 0.10857 0.7787 0.02777 0.0
H1116 H 0.1271 0.76199 0.98798 0.0
H1117 H 0.06838 0.73027 0.20872 0.0
H1118 H 0.05067 0.71439 0.1623 0.0
H1119 H 0.04928 0.74231 0.15827 0.0
C1120 C 0.72794 0.90617 0.98673 0.0
C1121 C 0.7104 0.91874 0.97677 0.0
C1122 C 0.74528 0.90726 0.94539 0.0
C1123 C 0.74504 0.92084 0.89116 0.0
C1124 C 0.72733 0.93346 0.88024 0.0
C1125 C 0.71036 0.9325 0.92373 0.0
C1126 C 0.76392 0.89385 0.95999 0.0
C1127 C 0.72618 0.94773 0.82202 0.0
C1128 C 0.79652 0.93407 0.8072 0.0
C1129 C 0.79719 0.91925 0.75703 0.0
C1130 C 0.77972 0.9348 0.8514 0.0
C1131 C 0.76287 0.9208 0.84413 0.0
C1132 C 0.76342 0.90601 0.79315 0.0
C1133 C 0.78059 0.90523 0.75108 0.0
C1134 C 0.78005 0.95043 0.90618 0.0
C1135 C 0.74571 0.89104 0.7825 0.0
H1136 H 0.72838 0.89574 0.02819 0.0
H1137 H 0.69696 0.94234 0.91579 0.0
H1138 H 0.76628 0.8825 0.91999 0.0
H1139 H 0.77809 0.90356 0.96282 0.0
H1140 H 0.76223 0.88518 0.00653 0.0
H1141 H 0.71142 0.9566 0.82042 0.0
H1142 H 0.73927 0.95886 0.82299 0.0
H1143 H 0.72762 0.93856 0.7764 0.0
H1144 H 0.80917 0.94502 0.81211 0.0
H1145 H 0.78066 0.8939 0.712 0.0
H1146 H 0.77898 0.94231 0.95381 0.0
H1147 H 0.7664 0.96083 0.90252 0.0
H1148 H 0.79433 0.96005 0.90579 0.0
H1149 H 0.74406 0.88072 0.82547 0.0
H1150 H 0.74798 0.88124 0.73848 0.0
H1151 H 0.73094 0.8997 0.7772 0.0
C1152 C 0.93961 0.22643 0.23982 0.0
C1153 C 0.92649 0.21002 0.22194 0.0
C1154 C 0.94022 0.24495 0.20357 0.0
C1155 C 0.92802 0.24687 0.14644 0.0
C1156 C 0.91556 0.22988 0.12626 0.0
C1157 C 0.91455 0.21187 0.16512 0.0
C1158 C 0.95306 0.26286 0.22847 0.0
C1159 C 0.90292 0.23091 0.06441 0.0
C1160 C 0.91073 0.29968 0.0817 0.0
C1161 C 0.92529 0.30344 0.03226 0.0
C1162 C 0.91197 0.2818 0.12103 0.0
C1163 C 0.92768 0.26687 0.1091 0.0
C1164 C 0.94269 0.27082 0.06016 0.0
C1165 C 0.9415 0.28917 0.02315 0.0
C1166 C 0.89609 0.27863 0.17421 0.0
C1167 C 0.95933 0.25513 0.04436 0.0
H1168 H 0.94846 0.2253 0.28466 0.0
H1169 H 0.90423 0.19932 0.15153 0.0
H1170 H 0.96393 0.26828 0.19021 0.0
H1171 H 0.94273 0.27609 0.2406 0.0
H1172 H 0.96212 0.25871 0.27267 0.0
H1173 H 0.89586 0.21571 0.05188 0.0
H1174 H 0.89032 0.24248 0.07009 0.0
H1175 H 0.91276 0.23605 0.02304 0.0
H1176 H 0.8981 0.31055 0.08878 0.0
H1177 H 0.95258 0.29171 0.98418 0.0
H1178 H 0.90389 0.27477 0.22091 0.0
H1179 H 0.88589 0.26539 0.1615 0.0
H1180 H 0.88626 0.29258 0.1817 0.0
H1181 H 0.96829 0.25116 0.0888 0.0
H1182 H 0.97026 0.26082 0.00649 0.0
H1183 H 0.95202 0.2406 0.0266 0.0
C1184 C 0.2291 0.40422 0.49065 0.0
C1185 C 0.21251 0.41826 0.48479 0.0
C1186 C 0.24612 0.4048 0.44798 0.0
C1187 C 0.2465 0.4194 0.39648 0.0
C1188 C 0.22963 0.43338 0.38921 0.0
C1189 C 0.21299 0.43286 0.43403 0.0
C1190 C 0.26387 0.38988 0.45866 0.0
C1191 C 0.22913 0.4488 0.33388 0.0
C1192 C 0.29886 0.43109 0.31636 0.0
C1193 C 0.29886 0.41722 0.26357 0.0
C1194 C 0.28192 0.43209 0.35988 0.0
C1195 C 0.26427 0.41938 0.3493 0.0
C1196 C 0.26407 0.40565 0.29538 0.0
C1197 C 0.28139 0.40454 0.25394 0.0
C1198 C 0.28303 0.44652 0.41775 0.0
C1199 C 0.24549 0.39212 0.28125 0.0
H1200 H 0.22917 0.39305 0.53018 0.0
H1201 H 0.20033 0.44381 0.42917 0.0
H1202 H 0.26551 0.37949 0.41583 0.0
H1203 H 0.27862 0.39858 0.46371 0.0
H1204 H 0.26168 0.38015 0.50285 0.0
H1205 H 0.21477 0.45831 0.33407 0.0
H1206 H 0.2427 0.45932 0.3371 0.0
H1207 H 0.23023 0.44052 0.28652 0.0
H1208 H 0.31221 0.441 0.32406 0.0
H1209 H 0.28099 0.39401 0.21271 0.0
H1210 H 0.28166 0.43747 0.4636 0.0
H1211 H 0.26988 0.45759 0.41658 0.0
H1212 H 0.29775 0.45546 0.41907 0.0
H1213 H 0.2432 0.38088 0.32158 0.0
H1214 H 0.2472 0.38331 0.23495 0.0
H1215 H 0.23127 0.40176 0.27822 0.0
C1216 C 0.43231 0.79711 0.56682 0.0
C1217 C 0.41832 0.79732 0.5144 0.0
C1218 C 0.43294 0.78025 0.61085 0.0
C1219 C 0.41972 0.76291 0.60112 0.0
C1220 C 0.40581 0.76297 0.54773 0.0
C1221 C 0.40509 0.78019 0.50584 0.0
C1222 C 0.44758 0.78108 0.66818 0.0
C1223 C 0.39174 0.74472 0.5344 0.0
C1224 C 0.43221 0.7109 0.68282 0.0
C1225 C 0.4177 0.71043 0.73385 0.0
C1226 C 0.4331 0.72784 0.63921 0.0
C1227 C 0.41961 0.74503 0.64799 0.0
C1228 C 0.40518 0.74472 0.69999 0.0
C1229 C 0.40421 0.7274 0.74146 0.0
C1230 C 0.4483 0.72725 0.5833 0.0
C1231 C 0.39079 0.7628 0.71225 0.0
H1232 H 0.44265 0.81018 0.57372 0.0
H1233 H 0.39444 0.77993 0.46495 0.0
H1234 H 0.4387 0.77973 0.71437 0.0
H1235 H 0.45847 0.76779 0.66628 0.0
H1236 H 0.4567 0.79569 0.6694 0.0
H1237 H 0.38267 0.74667 0.48874 0.0
H1238 H 0.40102 0.73028 0.53055 0.0
H1239 H 0.38075 0.74265 0.57549 0.0
H1240 H 0.44276 0.69795 0.67668 0.0
H1241 H 0.39316 0.72745 0.78133 0.0
H1242 H 0.45899 0.74069 0.58632 0.0
H1243 H 0.43986 0.72852 0.53629 0.0
H1244 H 0.45763 0.71276 0.58284 0.0
H1245 H 0.39987 0.77735 0.71702 0.0
H1246 H 0.38134 0.76071 0.75708 0.0
H1247 H 0.38015 0.7648 0.67023 0.0
C1248 C 0.71189 0.57736 0.31036 0.0
C1249 C 0.7117 0.59161 0.25858 0.0
C1250 C 0.72856 0.57671 0.355 0.0
C1251 C 0.74575 0.59021 0.3467 0.0
C1252 C 0.7457 0.60442 0.29409 0.0
C1253 C 0.72867 0.60513 0.25146 0.0
C1254 C 0.72772 0.56169 0.41139 0.0
C1255 C 0.76378 0.61885 0.2824 0.0
C1256 C 0.78029 0.60517 0.48998 0.0
C1257 C 0.79748 0.59197 0.48229 0.0
C1258 C 0.76324 0.60431 0.44743 0.0
C1259 C 0.76341 0.59027 0.39434 0.0
C1260 C 0.78082 0.57708 0.3855 0.0
C1261 C 0.79751 0.57787 0.43007 0.0
C1262 C 0.74492 0.61839 0.4597 0.0
C1263 C 0.78189 0.56226 0.3286 0.0
H1264 H 0.69895 0.5668 0.31623 0.0
H1265 H 0.72895 0.61601 0.21117 0.0
H1266 H 0.74118 0.551 0.40938 0.0
H1267 H 0.72875 0.57031 0.45817 0.0
H1268 H 0.71325 0.55234 0.41146 0.0
H1269 H 0.76186 0.62822 0.23733 0.0
H1270 H 0.76556 0.62958 0.32434 0.0
H1271 H 0.77836 0.6098 0.27841 0.0
H1272 H 0.77985 0.61592 0.53063 0.0
H1273 H 0.81062 0.56755 0.42378 0.0
H1274 H 0.7305 0.60909 0.46336 0.0
H1275 H 0.74295 0.62925 0.41818 0.0
H1276 H 0.74669 0.62763 0.50513 0.0
H1277 H 0.7686 0.55136 0.33024 0.0
H1278 H 0.7965 0.55313 0.32821 0.0
H1279 H 0.78073 0.57101 0.28212 0.0
C1280 C 0.6045 0.27991 0.74144 0.0
C1281 C 0.5916 0.2973 0.73289 0.0
C1282 C 0.60398 0.26302 0.6981 0.0
C1283 C 0.59056 0.26353 0.6435 0.0
C1284 C 0.57767 0.28112 0.63388 0.0
C1285 C 0.57814 0.29767 0.67908 0.0
C1286 C 0.61774 0.24452 0.71113 0.0
C1287 C 0.56348 0.28253 0.57552 0.0
C1288 C 0.60612 0.22912 0.50032 0.0
C1289 C 0.59227 0.21235 0.50554 0.0
C1290 C 0.6054 0.24595 0.54386 0.0
C1291 C 0.59077 0.24599 0.59535 0.0
C1292 C 0.57699 0.22896 0.6019 0.0
C1293 C 0.57772 0.21248 0.55652 0.0
C1294 C 0.62019 0.26385 0.53419 0.0
C1295 C 0.5615 0.22812 0.657 0.0
H1296 H 0.61477 0.2792 0.78324 0.0
H1297 H 0.56807 0.31094 0.67207 0.0
H1298 H 0.60826 0.23018 0.71362 0.0
H1299 H 0.62893 0.24252 0.67052 0.0
H1300 H 0.62658 0.24608 0.75739 0.0
H1301 H 0.55452 0.29724 0.57468 0.0
H1302 H 0.5727 0.28142 0.52993 0.0
H1303 H 0.55245 0.26934 0.57562 0.0
H1304 H 0.61728 0.22944 0.46078 0.0
H1305 H 0.56691 0.19969 0.56099 0.0
H1306 H 0.63042 0.26544 0.5774 0.0
H1307 H 0.61138 0.27856 0.52938 0.0
H1308 H 0.63006 0.26187 0.49022 0.0
H1309 H 0.56969 0.22901 0.70452 0.0
H1310 H 0.55206 0.21371 0.656 0.0
H1311 H 0.55093 0.24166 0.6543 0.0
C1312 C 0.34582 0.98748 0.16922 0.0
C1313 C 0.35786 1.00402 0.14587 0.0
C1314 C 0.35508 0.96953 0.19484 0.0
C1315 C 0.37696 0.96795 0.19699 0.0
C1316 C 0.38923 0.98422 0.17123 0.0
C1317 C 0.37954 1.00208 0.14603 0.0
C1318 C 0.34139 0.95254 0.22164 0.0
C1319 C 0.4126 0.98303 0.17202 0.0
C1320 C 0.39776 0.93106 0.32638 0.0
C1321 C 0.40058 0.91291 0.29013 0.0
C1322 C 0.39084 0.94938 0.29618 0.0
C1323 C 0.38681 0.94948 0.22812 0.0
C1324 C 0.3906 0.93132 0.191 0.0
C1325 C 0.39731 0.9132 0.22261 0.0
C1326 C 0.38688 0.96833 0.33761 0.0
C1327 C 0.38672 0.93078 0.1184 0.0
H1328 H 0.32907 0.98877 0.16929 0.0
H1329 H 0.38901 0.01475 0.12817 0.0
H1330 H 0.34511 0.93755 0.19774 0.0
H1331 H 0.34433 0.95061 0.27464 0.0
H1332 H 0.32465 0.95584 0.21442 0.0
H1333 H 0.41989 0.99637 0.1465 0.0
H1334 H 0.4182 0.98278 0.22318 0.0
H1335 H 0.41788 0.96844 0.14858 0.0
H1336 H 0.40019 0.93067 0.37872 0.0
H1337 H 0.39946 0.89903 0.19489 0.0
H1338 H 0.37003 0.97182 0.33814 0.0
H1339 H 0.39486 0.98203 0.3166 0.0
H1340 H 0.39219 0.96621 0.38874 0.0
H1341 H 0.36984 0.9321 0.10885 0.0
H1342 H 0.39244 0.91621 0.09569 0.0
H1343 H 0.39436 0.94414 0.09425 0.0
C1344 C 0.93132 0.60539 0.68578 0.0
C1345 C 0.91209 0.60945 0.71476 0.0
C1346 C 0.94993 0.60983 0.71885 0.0
C1347 C 0.94924 0.6187 0.78218 0.0
C1348 C 0.92979 0.62239 0.81209 0.0
C1349 C 0.91149 0.61759 0.77819 0.0
C1350 C 0.97032 0.6055 0.6854 0.0
C1351 C 0.9283 0.63191 0.87925 0.0
C1352 C 0.9981 0.61763 0.88735 0.0
C1353 C 0.00656 0.6373 0.8751 0.0
C1354 C 0.97939 0.61137 0.85784 0.0
C1355 C 0.96878 0.62518 0.81563 0.0
C1356 C 0.97695 0.64526 0.80473 0.0
C1357 C 0.99573 0.65102 0.83427 0.0
C1358 C 0.97126 0.58979 0.87046 0.0
C1359 C 0.96603 0.66059 0.76085 0.0
H1360 H 0.93179 0.5991 0.63674 0.0
H1361 H 0.89661 0.62043 0.80111 0.0
H1362 H 0.9786 0.62029 0.67633 0.0
H1363 H 0.98036 0.59589 0.71732 0.0
H1364 H 0.96824 0.59734 0.63809 0.0
H1365 H 0.91203 0.63305 0.89666 0.0
H1366 H 0.93732 0.62258 0.91477 0.0
H1367 H 0.93514 0.6477 0.87863 0.0
H1368 H 0.00642 0.60685 0.91833 0.0
H1369 H 1.00209 0.66628 0.82461 0.0
H1370 H 0.97075 0.58094 0.82403 0.0
H1371 H 0.95518 0.59056 0.88946 0.0
H1372 H 0.98099 0.58112 0.90593 0.0
H1373 H 0.96515 0.65431 0.71053 0.0
H1374 H 0.97403 0.67584 0.75918 0.0
H1375 H 0.94989 0.66305 0.77794 0.0
C1376 C 0.63029 0.00713 0.14206 0.0
C1377 C 0.65195 1.00495 0.14085 0.0
C1378 C 0.62093 0.0253 0.16631 0.0
C1379 C 0.63351 0.04166 0.19008 0.0
C1380 C 0.65536 0.03977 0.18717 0.0
C1381 C 0.66429 0.02151 0.16249 0.0
C1382 C 0.59759 0.0268 0.16799 0.0
C1383 C 0.66937 0.05683 0.21191 0.0
C1384 C 0.61382 0.0969 0.21041 0.0
C1385 C 0.61064 0.09795 0.27791 0.0
C1386 C 0.62033 0.07838 0.18063 0.0
C1387 C 0.62401 0.0606 0.21956 0.0
C1388 C 0.62012 0.06148 0.28765 0.0
C1389 C 0.61335 0.08017 0.31599 0.0
C1390 C 0.62403 0.07808 0.10791 0.0
C1391 C 0.62401 0.04296 0.331 0.0
H1392 H 0.62061 0.99444 0.12559 0.0
H1393 H 0.68102 0.02004 0.16179 0.0
H1394 H 0.59221 0.02776 0.21932 0.0
H1395 H 0.59239 0.04115 0.14303 0.0
H1396 H 0.59002 0.01325 0.14442 0.0
H1397 H 0.68604 0.05318 0.20469 0.0
H1398 H 0.66582 0.0716 0.18654 0.0
H1399 H 0.66657 0.05937 0.26474 0.0
H1400 H 0.61167 0.11075 0.18118 0.0
H1401 H 0.61093 0.08112 0.36826 0.0
H1402 H 0.61604 0.06462 0.08539 0.0
H1403 H 0.64084 0.0763 0.09804 0.0
H1404 H 0.61853 0.09251 0.08385 0.0
H1405 H 0.61575 0.02915 0.31185 0.0
H1406 H 0.61894 0.04574 0.38207 0.0
H1407 H 0.64081 0.03925 0.33119 0.0
C1408 C 0.07997 0.40995 0.6949 0.0
C1409 C 0.0987 0.40273 0.72093 0.0
C1410 C 0.06097 0.40539 0.72537 0.0
C1411 C 0.06073 0.39323 0.78303 0.0
C1412 C 0.07969 0.38639 0.81033 0.0
C1413 C 0.09843 0.39134 0.7792 0.0
C1414 C 0.04111 0.41313 0.69499 0.0
C1415 C 0.08017 0.37336 0.87154 0.0
C1416 C 0.01216 0.39223 0.88928 0.0
C1417 C 1.00242 0.374 0.86778 0.0
C1418 C 0.03112 0.39875 0.86212 0.0
C1419 C 0.04065 0.38666 0.81273 0.0
C1420 C 0.03106 0.36807 0.79173 0.0
C1421 C 0.01208 0.36203 0.81926 0.0
C1422 C 0.04081 0.41871 0.88557 0.0
C1423 C 0.04079 0.35459 0.73977 0.0
H1424 H 0.08019 0.41882 0.64997 0.0
H1425 H 0.11294 0.38615 0.80026 0.0
H1426 H 0.03169 0.39977 0.67814 0.0
H1427 H 0.03176 0.42165 0.73173 0.0
H1428 H 0.044 0.42354 0.65276 0.0
H1429 H 0.09624 0.36995 0.8879 0.0
H1430 H 0.07185 0.3814 0.91159 0.0
H1431 H 0.07206 0.35845 0.86272 0.0
H1432 H 0.00476 0.40165 0.92639 0.0
H1433 H 0.00473 0.3479 0.80238 0.0
H1434 H 0.04239 0.42969 0.84418 0.0
H1435 H 0.05663 0.41568 0.90451 0.0
H1436 H 0.03154 0.42626 0.9246 0.0
H1437 H 0.04245 0.36353 0.69381 0.0
H1438 H 0.03151 0.34045 0.72955 0.0
H1439 H 0.05657 0.34979 0.75512 0.0
C1440 C 0.39314 0.57712 0.91603 0.0
C1441 C 0.40121 0.5937 0.95188 0.0
C1442 C 0.38631 0.55899 0.94749 0.0
C1443 C 0.38735 0.55761 0.01649 0.0
C1444 C 0.39604 0.57422 0.05263 0.0
C1445 C 0.40288 0.59209 0.01978 0.0
C1446 C 0.3773 0.54162 0.90705 0.0
C1447 C 0.39729 0.57347 0.12612 0.0
C1448 C 0.34773 0.52146 0.09368 0.0
C1449 C 0.35949 0.5035 0.10496 0.0
C1450 C 0.35679 0.53939 0.06713 0.0
C1451 C 0.37812 0.53937 0.05076 0.0
C1452 C 0.39027 0.52158 0.06431 0.0
C1453 C 0.38085 0.50391 0.09162 0.0
C1454 C 0.34332 0.55813 0.05442 0.0
C1455 C 0.41303 0.52088 0.04739 0.0
H1456 H 0.39167 0.57859 0.86353 0.0
H1457 H 0.4089 0.60514 0.04729 0.0
H1458 H 0.38499 0.52673 0.9193 0.0
H1459 H 0.36057 0.53985 0.91836 0.0
H1460 H 0.379 0.54446 0.85385 0.0
H1461 H 0.40585 0.58694 0.14656 0.0
H1462 H 0.38142 0.57337 0.14697 0.0
H1463 H 0.40505 0.55899 0.1422 0.0
H1464 H 0.33125 0.52136 0.10408 0.0
H1465 H 0.39009 0.49014 0.10002 0.0
H1466 H 0.34227 0.56096 0.00112 0.0
H1467 H 0.35032 0.57215 0.07679 0.0
H1468 H 0.32738 0.55619 0.07398 0.0
H1469 H 0.41495 0.52187 0.99367 0.0
H1470 H 0.42061 0.50643 0.06481 0.0
H1471 H 0.42119 0.53439 0.06893 0.0
C1472 C 0.57784 0.60393 0.05462 0.0
C1473 C 0.59701 0.60869 0.02634 0.0
C1474 C 0.55917 0.60834 0.02183 0.0
C1475 C 0.55974 0.61798 0.95964 0.0
C1476 C 0.57912 0.62244 0.93046 0.0
C1477 C 0.59749 0.61757 0.9639 0.0
C1478 C 0.53885 0.60311 0.05436 0.0
C1479 C 0.58048 0.63286 0.86463 0.0
C1480 C 0.51127 0.61731 0.85261 0.0
C1481 C 0.50233 0.6366 0.86732 0.0
C1482 C 0.52996 0.61101 0.88215 0.0
C1483 C 0.5401 0.62444 0.9267 0.0
C1484 C 0.53142 0.64416 0.94018 0.0
C1485 C 0.51262 0.64992 0.91075 0.0
C1486 C 0.5386 0.58979 0.86698 0.0
C1487 C 0.54186 0.65912 0.98643 0.0
H1488 H 0.57745 0.59708 0.10291 0.0
H1489 H 0.61233 0.62092 0.9414 0.0
H1490 H 0.53024 0.61759 0.06543 0.0
H1491 H 0.52905 0.59377 0.02098 0.0
H1492 H 0.54106 0.59434 0.1005 0.0
H1493 H 0.59675 0.63469 0.84777 0.0
H1494 H 0.57181 0.62376 0.8277 0.0
H1495 H 0.5732 0.64844 0.86715 0.0
H1496 H 0.50333 0.60684 0.81966 0.0
H1497 H 0.50586 0.66488 0.92227 0.0
H1498 H 0.53931 0.58041 0.91231 0.0
H1499 H 0.55466 0.59116 0.84815 0.0
H1500 H 0.52909 0.58134 0.83044 0.0
H1501 H 0.54277 0.65217 0.03587 0.0
H1502 H 0.53349 0.67414 0.98999 0.0
H1503 H 0.55797 0.66218 0.97012 0.0
C1504 C 0.66444 0.48618 0.09193 0.0
C1505 C 0.65272 0.50437 0.09936 0.0
C1506 C 0.65557 0.46801 0.06639 0.0
C1507 C 0.63449 0.46803 0.04702 0.0
C1508 C 0.62237 0.48609 0.05657 0.0
C1509 C 0.63158 0.50399 0.08306 0.0
C1510 C 0.66898 0.44898 0.05803 0.0
C1511 C 0.59988 0.48679 0.03634 0.0
C1512 C 0.62068 0.42867 0.91553 0.0
C1513 C 0.61212 0.41262 0.95259 0.0
C1514 C 0.62738 0.44711 0.94544 0.0
C1515 C 0.62553 0.44942 0.01404 0.0
C1516 C 0.61621 0.43342 0.05123 0.0
C1517 C 0.60962 0.41517 0.01997 0.0
C1518 C 0.63715 0.4638 0.90394 0.0
C1519 C 0.61396 0.43521 0.12431 0.0
H1520 H 0.68075 0.48627 0.10468 0.0
H1521 H 0.62236 0.51793 0.08853 0.0
H1522 H 0.66151 0.43536 0.08126 0.0
H1523 H 0.67073 0.44541 0.00535 0.0
H1524 H 0.68466 0.45104 0.07952 0.0
H1525 H 0.59224 0.50156 0.05061 0.0
H1526 H 0.59871 0.48504 0.9826 0.0
H1527 H 0.59125 0.47369 0.05857 0.0
H1528 H 0.62269 0.42651 0.86344 0.0
H1529 H 0.6031 0.40257 0.04839 0.0
H1530 H 0.65371 0.46559 0.91737 0.0
H1531 H 0.62945 0.47892 0.91301 0.0
H1532 H 0.63619 0.46021 0.851 0.0
H1533 H 0.62953 0.43549 0.14728 0.0
H1534 H 0.605 0.42212 0.1454 0.0
H1535 H 0.60612 0.44997 0.1373 0.0
C1536 C 0.43165 0.38655 0.08484 0.0
C1537 C 0.41644 0.39833 0.05344 0.0
C1538 C 0.44966 0.38032 0.05157 0.0
C1539 C 0.45226 0.38568 0.98494 0.0
C1540 C 0.43704 0.398 0.95354 0.0
C1541 C 0.41933 0.40427 0.98837 0.0
C1542 C 0.46562 0.36747 0.08719 0.0
C1543 C 0.43903 0.4038 0.88248 0.0
C1544 C 0.50653 0.37993 0.91367 0.0
C1545 C 0.50582 0.35976 0.88784 0.0
C1546 C 0.48908 0.38881 0.94399 0.0
C1547 C 0.47035 0.37742 0.94754 0.0
C1548 C 0.46922 0.35753 0.9183 0.0
C1549 C 0.48699 0.34889 0.88933 0.0
C1550 C 0.49102 0.40996 0.97508 0.0
C1551 C 0.44944 0.34503 0.91976 0.0
H1552 H 0.42921 0.38185 0.13506 0.0
H1553 H 0.40733 0.41317 0.96409 0.0
H1554 H 0.46632 0.35171 0.06554 0.0
H1555 H 0.48121 0.37452 0.08179 0.0
H1556 H 0.46205 0.36596 0.14001 0.0
H1557 H 0.42652 0.4145 0.86642 0.0
H1558 H 0.45422 0.41129 0.87325 0.0
H1559 H 0.43839 0.38958 0.85203 0.0
H1560 H 0.52099 0.38845 0.91303 0.0
H1561 H 0.48626 0.33335 0.86924 0.0
H1562 H 0.48937 0.4085 0.02878 0.0
H1563 H 0.47842 0.42031 0.95788 0.0
H1564 H 0.50617 0.4174 0.96428 0.0
H1565 H 0.44572 0.34067 0.9708 0.0
H1566 H 0.4506 0.33063 0.89018 0.0
H1567 H 0.43631 0.35444 0.90116 0.0
C1568 C 0.90189 0.41715 0.72865 0.0
C1569 C 0.89994 0.41556 0.79651 0.0
C1570 C 0.89462 0.43476 0.69522 0.0
C1571 C 0.88527 0.45115 0.73073 0.0
C1572 C 0.88382 0.44976 0.79965 0.0
C1573 C 0.89105 0.43189 0.83164 0.0
C1574 C 0.89629 0.4355 0.62181 0.0
C1575 C 0.87413 0.46692 0.83946 0.0
C1576 C 0.87851 0.50493 0.65662 0.0
C1577 C 0.85722 0.50516 0.64237 0.0
C1578 C 0.88802 0.48727 0.68369 0.0
C1579 C 0.87603 0.46929 0.69597 0.0
C1580 C 0.85479 0.46906 0.67843 0.0
C1581 C 0.84564 0.487 0.65222 0.0
C1582 C 0.91067 0.48821 0.70195 0.0
C1583 C 0.84151 0.45011 0.68971 0.0
H1584 H 0.90854 0.40431 0.7016 0.0
H1585 H 0.88943 0.43049 0.88412 0.0
H1586 H 0.88054 0.4355 0.60006 0.0
H1587 H 0.90403 0.45004 0.60621 0.0
H1588 H 0.90508 0.4221 0.60185 0.0
H1589 H 0.87534 0.46403 0.89276 0.0
H1590 H 0.88172 0.48194 0.82819 0.0
H1591 H 0.8575 0.46848 0.82654 0.0
H1592 H 0.88763 0.51883 0.64919 0.0
H1593 H 0.82921 0.48696 0.64105 0.0
H1594 H 0.91913 0.47483 0.68073 0.0
H1595 H 0.91227 0.48717 0.75576 0.0
H1596 H 0.91817 0.50277 0.68517 0.0
H1597 H 0.84893 0.43623 0.66781 0.0
H1598 H 0.82572 0.45186 0.66877 0.0
H1599 H 0.84002 0.4472 0.74286 0.0
C1600 C 0.49983 0.11739 0.39153 0.0
C1601 C 0.50869 0.13655 0.37495 0.0
C1602 C 0.48148 0.11049 0.36127 0.0
C1603 C 0.47162 0.12318 0.31407 0.0
C1604 C 0.48022 0.14277 0.29856 0.0
C1605 C 0.49866 0.14913 0.3288 0.0
C1606 C 0.47288 0.08944 0.3787 0.0
C1607 C 0.47005 0.15696 0.24941 0.0
C1608 C 0.4347 0.10142 0.18597 0.0
C1609 C 0.4154 0.1069 0.21203 0.0
C1610 C 0.45315 0.10588 0.21988 0.0
C1611 C 0.45221 0.11624 0.2809 0.0
C1612 C 0.43267 0.12126 0.30808 0.0
C1613 C 0.41453 0.11638 0.27357 0.0
C1614 C 0.47365 0.10005 0.18954 0.0
C1615 C 0.43093 0.13244 0.37261 0.0
H1616 H 0.50759 0.10749 0.42661 0.0
H1617 H 0.50535 0.164 0.31585 0.0
H1618 H 0.45669 0.09097 0.39631 0.0
H1619 H 0.4725 0.07944 0.33463 0.0
H1620 H 0.4822 0.08156 0.41693 0.0
H1621 H 0.47843 0.17192 0.24402 0.0
H1622 H 0.46943 0.14925 0.20106 0.0
H1623 H 0.45385 0.16028 0.26429 0.0
H1624 H 0.43537 0.09408 0.13842 0.0
H1625 H 0.39958 0.12024 0.29445 0.0
H1626 H 0.48324 0.09126 0.225 0.0
H1627 H 0.48236 0.11431 0.17661 0.0
H1628 H 0.4717 0.09052 0.14479 0.0
H1629 H 0.43949 0.12386 0.41099 0.0
H1630 H 0.41457 0.13435 0.38848 0.0
H1631 H 0.4381 0.14803 0.36859 0.0
C1632 C 0.12038 0.51185 0.60149 0.0
C1633 C 0.13861 0.50233 0.62395 0.0
C1634 C 0.11311 0.53042 0.62969 0.0
C1635 C 0.12437 0.53974 0.68134 0.0
C1636 C 0.14295 0.53039 0.70333 0.0
C1637 C 0.1498 0.51185 0.67453 0.0
C1638 C 0.09322 0.5399 0.60491 0.0
C1639 C 0.15556 0.53988 0.75782 0.0
C1640 C 0.11851 0.59709 0.72078 0.0
C1641 C 0.10653 0.5966 0.77786 0.0
C1642 C 0.12392 0.57877 0.68787 0.0
C1643 C 0.11701 0.55942 0.71222 0.0
C1644 C 0.1042 0.5589 0.76847 0.0
C1645 C 0.0991 0.57752 0.80064 0.0
C1646 C 0.13755 0.5801 0.62811 0.0
C1647 C 0.09642 0.53861 0.79583 0.0
H1648 H 0.11154 0.50458 0.56281 0.0
H1649 H 0.16391 0.50468 0.6923 0.0
H1650 H 0.08171 0.54074 0.64505 0.0
H1651 H 0.09607 0.55601 0.58813 0.0
H1652 H 0.0864 0.5309 0.56397 0.0
H1653 H 0.16975 0.53077 0.76891 0.0
H1654 H 0.16021 0.5559 0.74458 0.0
H1655 H 0.14603 0.54092 0.80278 0.0
H1656 H 0.12383 0.61188 0.70207 0.0
H1657 H 0.08974 0.57714 0.84457 0.0
H1658 H 0.13018 0.57191 0.58656 0.0
H1659 H 0.15257 0.5723 0.63785 0.0
H1660 H 0.14069 0.59639 0.61345 0.0
H1661 H 0.08859 0.52948 0.75712 0.0
H1662 H 0.08542 0.54092 0.8369 0.0
H1663 H 0.10971 0.52925 0.81352 0.0
C1664 C 0.5754 0.90612 0.18144 0.0
C1665 C 0.59485 0.90089 0.2069 0.0
C1666 C 0.5571 0.90158 0.2161 0.0
C1667 C 0.55831 0.89136 0.27729 0.0
C1668 C 0.578 0.8865 0.30372 0.0
C1669 C 0.59599 0.89149 0.26851 0.0
C1670 C 0.53644 0.90727 0.18652 0.0
C1671 C 0.58006 0.87546 0.36838 0.0
C1672 C 0.51129 0.89098 0.39066 0.0
C1673 C 0.50217 0.87182 0.37538 0.0
C1674 C 0.52953 0.8976 0.35909 0.0
C1675 C 0.53904 0.88464 0.31186 0.0
C1676 C 0.53017 0.86507 0.29762 0.0
C1677 C 0.51182 0.85898 0.32912 0.0
C1678 C 0.53837 0.91867 0.37518 0.0
C1679 C 0.53997 0.85059 0.24853 0.0
H1680 H 0.5745 0.91339 0.13384 0.0
H1681 H 0.61104 0.8878 0.28892 0.0
H1682 H 0.52764 0.89296 0.17487 0.0
H1683 H 0.52707 0.91628 0.22201 0.0
H1684 H 0.53817 0.91653 0.14115 0.0
H1685 H 0.59649 0.87343 0.38323 0.0
H1686 H 0.57184 0.88423 0.40709 0.0
H1687 H 0.5727 0.85993 0.36524 0.0
H1688 H 0.50382 0.90109 0.4258 0.0
H1689 H 0.50493 0.84413 0.31712 0.0
H1690 H 0.53862 0.92845 0.33066 0.0
H1691 H 0.55462 0.91709 0.3921 0.0
H1692 H 0.52929 0.9268 0.41349 0.0
H1693 H 0.54035 0.85807 0.19981 0.0
H1694 H 0.53147 0.83566 0.24432 0.0
H1695 H 0.55624 0.84725 0.26259 0.0
C1696 C 0.88602 0.09773 0.50723 0.0
C1697 C 0.90134 0.09734 0.45871 0.0
C1698 C 0.88035 0.07962 0.54086 0.0
C1699 C 0.89031 0.06063 0.52583 0.0
C1700 C 0.90617 0.06026 0.47793 0.0
C1701 C 0.91153 0.07866 0.44503 0.0
C1702 C 0.86344 0.08076 0.59169 0.0
C1703 C 0.91716 0.04035 0.46039 0.0
C1704 C 0.88562 0.0153 0.64488 0.0
C1705 C 0.86987 1.00345 0.61586 0.0
C1706 C 0.89243 0.03398 0.61635 0.0
C1707 C 0.88326 0.04099 0.55747 0.0
C1708 C 0.86718 0.02924 0.52855 0.0
C1709 C 0.86069 0.01069 0.558 0.0
C1710 C 0.90958 0.0461 0.64877 0.0
C1711 C 0.85691 0.03615 0.46597 0.0
H1712 H 0.87849 0.11228 0.51914 0.0
H1713 H 0.92344 0.07837 0.40771 0.0
H1714 H 0.8501 0.07105 0.57635 0.0
H1715 H 0.86912 0.07447 0.63878 0.0
H1716 H 0.85788 0.09687 0.59967 0.0
H1717 H 0.92985 0.04286 0.42463 0.0
H1718 H 0.92374 0.03306 0.50482 0.0
H1719 H 0.90591 0.02921 0.43923 0.0
H1720 H 0.89287 0.00983 0.68937 0.0
H1721 H 0.8485 1.00173 0.53503 0.0
H1722 H 0.90424 0.06209 0.65966 0.0
H1723 H 0.92301 0.04742 0.61517 0.0
H1724 H 0.91489 0.03876 0.69486 0.0
H1725 H 0.85002 0.05179 0.47247 0.0
H1726 H 0.84453 0.02532 0.44992 0.0
H1727 H 0.86864 0.03735 0.42654 0.0
C1728 C 0.0798 0.10103 0.55838 0.0
C1729 C 0.09862 0.10736 0.53088 0.0
C1730 C 0.06083 0.10585 0.52807 0.0
C1731 C 0.06077 0.11728 0.46893 0.0
C1732 C 0.07983 0.12312 0.44008 0.0
C1733 C 0.09852 0.118 0.47125 0.0
C1734 C 0.04086 0.09922 0.56022 0.0
C1735 C 0.0805 0.13528 0.37715 0.0
C1736 C 0.01164 0.11854 0.36544 0.0
C1737 C 1.00267 0.13739 0.38489 0.0
C1738 C 0.03056 0.11177 0.39222 0.0
C1739 C 0.04081 0.12419 0.43927 0.0
C1740 C 0.03201 0.1434 0.45812 0.0
C1741 C 0.01308 0.14972 0.43086 0.0
C1742 C 0.03945 0.09118 0.37093 0.0
C1743 C 0.04249 0.15721 0.50769 0.0
H1744 H 0.07991 0.09272 0.60436 0.0
H1745 H 0.11311 0.1225 0.44922 0.0
H1746 H 0.03197 0.11313 0.57561 0.0
H1747 H 0.03107 0.09056 0.52503 0.0
H1748 H 0.04357 0.0893 0.60369 0.0
H1749 H 0.09659 0.13778 0.35952 0.0
H1750 H 0.07162 0.12708 0.33866 0.0
H1751 H 0.07306 0.15063 0.38439 0.0
H1752 H 1.00368 0.10884 0.33027 0.0
H1753 H 0.00632 0.16433 0.44619 0.0
H1754 H 0.04077 0.08067 0.41359 0.0
H1755 H 0.0553 0.09338 0.35113 0.0
H1756 H 0.02977 0.0835 0.33317 0.0
H1757 H 0.04408 0.14885 0.55475 0.0
H1758 H 0.03378 0.17181 0.51641 0.0
H1759 H 0.05835 0.16121 0.49093 0.0
C1760 C 0.11784 0.91299 0.5247 0.0
C1761 C 0.10663 0.91391 0.46615 0.0
C1762 C 0.12321 0.9311 0.55879 0.0
C1763 C 0.11702 0.95066 0.53418 0.0
C1764 C 0.10495 0.95162 0.47639 0.0
C1765 C 0.0999 0.9332 0.44301 0.0
C1766 C 0.13607 0.92931 0.62009 0.0
C1767 C 0.09791 0.97214 0.44874 0.0
C1768 C 0.11987 0.99794 0.64625 0.0
C1769 C 0.13845 0.00724 0.62589 0.0
C1770 C 0.11266 0.97953 0.61698 0.0
C1771 C 0.12437 0.9701 0.56649 0.0
C1772 C 0.14335 0.97918 0.54682 0.0
C1773 C 0.1501 0.99761 0.57654 0.0
C1774 C 0.09233 0.97035 0.63922 0.0
C1775 C 0.15645 0.96956 0.49373 0.0
H1776 H 0.12263 0.89803 0.54355 0.0
H1777 H 0.09114 0.9339 0.39793 0.0
H1778 H 0.15135 0.93681 0.61237 0.0
H1779 H 0.12837 0.93756 0.66097 0.0
H1780 H 0.13869 0.91292 0.63465 0.0
H1781 H 0.08737 0.97017 0.40631 0.0
H1782 H 0.0898 0.98132 0.48676 0.0
H1783 H 0.11159 0.98127 0.43291 0.0
H1784 H 0.11067 0.00533 0.68393 0.0
H1785 H 0.1645 1.0046 0.56047 0.0
H1786 H 0.09468 0.95412 0.65565 0.0
H1787 H 0.08127 0.9699 0.59781 0.0
H1788 H 0.08523 0.97933 0.67974 0.0
H1789 H 0.16057 0.9534 0.50705 0.0
H1790 H 0.17097 0.97837 0.48477 0.0
H1791 H 0.1475 0.96887 0.44755 0.0
C1792 C 0.99702 0.89298 0.34671 0.0
C1793 C 0.0064 0.87423 0.36517 0.0
C1794 C 0.97823 0.8995 0.37517 0.0
C1795 C 0.9685 0.8869 0.42286 0.0
C1796 C 0.97766 0.86775 0.44051 0.0
C1797 C 0.99646 0.8617 0.41166 0.0
C1798 C 0.96898 0.92004 0.35514 0.0
C1799 C 0.96773 0.85372 0.4906 0.0
C1800 C 0.93035 0.90939 0.54631 0.0
C1801 C 0.91131 0.90305 0.52029 0.0
C1802 C 0.94908 0.90482 0.51409 0.0
C1803 C 0.94872 0.89358 0.45458 0.0
C1804 C 0.92944 0.88765 0.42735 0.0
C1805 C 0.911 0.89256 0.46035 0.0
C1806 C 0.96929 0.91154 0.5446 0.0
C1807 C 0.9283 0.87564 0.36421 0.0
H1808 H 1.00463 0.90285 0.31123 0.0
H1809 H 1.00351 0.84715 0.42623 0.0
H1810 H 0.95294 0.91776 0.33701 0.0
H1811 H 0.96804 0.93048 0.39809 0.0
H1812 H 0.9782 0.92783 0.31649 0.0
H1813 H 0.97661 0.83914 0.49798 0.0
H1814 H 0.96657 0.86192 0.53806 0.0
H1815 H 0.95174 0.84968 0.47527 0.0
H1816 H 0.93059 0.91755 0.59257 0.0
H1817 H 0.89625 0.88801 0.43946 0.0
H1818 H 0.97869 0.92036 0.50876 0.0
H1819 H 0.97842 0.89767 0.55884 0.0
H1820 H 0.96688 0.92134 0.58855 0.0
H1821 H 0.93674 0.88402 0.32511 0.0
H1822 H 0.91208 0.87302 0.34803 0.0
H1823 H 0.93595 0.86034 0.37033 0.0
loop_
_geom_bond_atom_site_label_1
_geom_bond_atom_site_label_2
_geom_bond_distance
_geom_bond_site_symmetry_2
_ccdc_geom_bond_type
Co0 O3 1.970 . S
Co0 N17 1.989 . S
Co0 O25 1.967 . S
Co0 O32 1.920 . S
Co1 O4 1.966 . S
Co1 N10 2.022 . S
Co1 N18 1.993 . S
Co1 O26 1.941 . S
C2 O3 1.258 . S
C2 O4 1.263 . S
O3 Co0 1.970 . S
O3 C2 1.258 . S
O4 Co1 1.966 . S
O4 C2 1.263 . S
C5 O6 1.235 . S
C5 O32 1.289 . S
O6 C5 1.235 . S
C7 C9 1.400 . S
C7 N10 1.351 . S
C7 C12 1.501 . S
C8 C9 1.387 . S
C8 N11 1.341 . S
C9 C7 1.400 . S
C9 C8 1.387 . S
N10 Co1 2.022 . S
N10 C7 1.351 . S
N10 N11 1.365 . S
N11 C8 1.341 . S
N11 N10 1.365 . S
N11 H31 0.862 . S
C12 C7 1.501 . S
C12 H13 0.961 . S
C12 H14 0.956 1_554 S
C12 H15 0.960 . S
H13 C12 0.961 . S
H14 C12 0.956 1_556 S
H15 C12 0.960 . S
C16 N17 1.342 . S
C16 C20 1.401 . S
C16 C21 1.499 . S
N17 Co0 1.989 . S
N17 C16 1.342 . S
N17 N18 1.388 . S
N18 Co1 1.993 . S
N18 N17 1.388 . S
N18 C19 1.346 . S
C19 N18 1.346 . S
C19 C20 1.396 . S
C19 C29 1.510 . S
C20 C16 1.401 . S
C20 C19 1.396 . S
C21 C16 1.499 . S
C21 H22 0.959 . S
C21 H23 0.960 . S
C21 H24 0.961 . S
H22 C21 0.959 . S
H23 C21 0.960 . S
H24 C21 0.961 . S
O25 Co0 1.967 . S
O25 C33 1.258 . S
O26 Co1 1.941 . S
O26 C33 1.266 . S
H27 C29 0.959 . S
H28 C29 0.961 . S
C29 C19 1.510 . S
C29 H27 0.959 . S
C29 H28 0.961 . S
C29 H30 0.960 . S
H30 C29 0.960 . S
H31 N11 0.862 . S
O32 Co0 1.920 . S
O32 C5 1.289 . S
C33 O25 1.258 . S
C33 O26 1.266 . S
Co34 O37 1.970 . S
Co34 N51 1.989 . S
Co34 O59 1.967 . S
Co34 O66 1.920 . S
Co35 O38 1.966 . S
Co35 N44 2.022 . S
Co35 N52 1.993 . S
Co35 O60 1.941 . S
C36 O37 1.258 . S
C36 O38 1.263 . S
O37 Co34 1.970 . S
O37 C36 1.258 . S
O38 Co35 1.966 . S
O38 C36 1.263 . S
C39 O40 1.235 . S
C39 O66 1.289 . S
O40 C39 1.235 . S
C41 C43 1.400 . S
C41 N44 1.351 . S
C41 C46 1.501 . S
C42 C43 1.387 . S
C42 N45 1.341 . S
C43 C41 1.400 . S
C43 C42 1.387 . S
N44 Co35 2.022 . S
N44 C41 1.351 . S
N44 N45 1.365 . S
N45 C42 1.341 . S
N45 N44 1.365 . S
N45 H65 0.862 . S
C46 C41 1.501 . S
C46 H47 0.961 . S
C46 H48 0.956 1_556 S
C46 H49 0.960 . S
H47 C46 0.961 . S
H48 C46 0.956 1_554 S
H49 C46 0.960 . S
C50 N51 1.342 . S
C50 C54 1.401 . S
C50 C55 1.499 . S
N51 Co34 1.989 . S
N51 C50 1.342 . S
N51 N52 1.388 . S
N52 Co35 1.993 . S
N52 N51 1.388 . S
N52 C53 1.346 . S
C53 N52 1.346 . S
C53 C54 1.396 . S
C53 C63 1.510 . S
C54 C50 1.401 . S
C54 C53 1.396 . S
C55 C50 1.499 . S
C55 H56 0.959 . S
C55 H57 0.960 . S
C55 H58 0.961 . S
H56 C55 0.959 . S
H57 C55 0.960 . S
H58 C55 0.961 . S
O59 Co34 1.967 . S
O59 C67 1.258 . S
O60 Co35 1.941 . S
O60 C67 1.266 . S
H61 C63 0.959 . S
H62 C63 0.961 . S
C63 C53 1.510 . S
C63 H61 0.959 . S
C63 H62 0.961 . S
C63 H64 0.960 . S
H64 C63 0.960 . S
H65 N45 0.862 . S
O66 Co34 1.920 . S
O66 C39 1.289 . S
C67 O59 1.258 . S
C67 O60 1.266 . S
Co68 O71 1.970 . S
Co68 N85 1.989 . S
Co68 O93 1.967 . S
Co68 O100 1.920 . S
Co69 O72 1.966 . S
Co69 N78 2.022 . S
Co69 N86 1.993 . S
Co69 O94 1.941 . S
C70 O71 1.258 . S
C70 O72 1.263 . S
O71 Co68 1.970 . S
O71 C70 1.258 . S
O72 Co69 1.966 . S
O72 C70 1.263 . S
C73 O74 1.235 . S
C73 O100 1.289 . S
O74 C73 1.235 . S
C75 C77 1.400 . S
C75 N78 1.351 . S
C75 C80 1.501 . S
C76 C77 1.387 . S
C76 N79 1.341 . S
C77 C75 1.400 . S
C77 C76 1.387 . S
N78 Co69 2.022 . S
N78 C75 1.351 . S
N78 N79 1.365 . S
N79 C76 1.341 . S
N79 N78 1.365 . S
N79 H99 0.862 . S
C80 C75 1.501 . S
C80 H81 0.961 . S
C80 H82 0.956 1_554 S
C80 H83 0.960 . S
H81 C80 0.961 . S
H82 C80 0.956 1_556 S
H83 C80 0.960 . S
C84 N85 1.342 . S
C84 C88 1.401 . S
C84 C89 1.499 . S
N85 Co68 1.989 . S
N85 C84 1.342 . S
N85 N86 1.388 . S
N86 Co69 1.993 . S
N86 N85 1.388 . S
N86 C87 1.346 . S
C87 N86 1.346 . S
C87 C88 1.396 . S
C87 C97 1.510 . S
C88 C84 1.401 . S
C88 C87 1.396 . S
C89 C84 1.499 . S
C89 H90 0.959 . S
C89 H91 0.960 . S
C89 H92 0.961 . S
H90 C89 0.959 . S
H91 C89 0.960 . S
H92 C89 0.961 . S
O93 Co68 1.967 . S
O93 C101 1.258 . S
O94 Co69 1.941 . S
O94 C101 1.266 . S
H95 C97 0.959 . S
H96 C97 0.961 . S
C97 C87 1.510 . S
C97 H95 0.959 . S
C97 H96 0.961 . S
C97 H98 0.960 . S
H98 C97 0.960 . S
H99 N79 0.862 . S
O100 Co68 1.920 . S
O100 C73 1.289 . S
C101 O93 1.258 . S
C101 O94 1.266 . S
Co102 O105 1.970 . S
Co102 N119 1.989 . S
Co102 O127 1.967 . S
Co102 O134 1.920 . S
Co103 O106 1.966 . S
Co103 N112 2.022 . S
Co103 N120 1.993 . S
Co103 O128 1.941 . S
C104 O105 1.258 . S
C104 O106 1.263 . S
O105 Co102 1.970 . S
O105 C104 1.258 . S
O106 Co103 1.966 . S
O106 C104 1.263 . S
C107 O108 1.235 . S
C107 O134 1.289 . S
O108 C107 1.235 . S
C109 C111 1.400 . S
C109 N112 1.351 . S
C109 C114 1.501 . S
C110 C111 1.387 . S
C110 N113 1.341 . S
C111 C109 1.400 . S
C111 C110 1.387 . S
N112 Co103 2.022 . S
N112 C109 1.351 . S
N112 N113 1.365 . S
N113 C110 1.341 . S
N113 N112 1.365 . S
N113 H133 0.862 . S
C114 C109 1.501 . S
C114 H115 0.961 . S
C114 H116 0.956 1_556 S
C114 H117 0.960 . S
H115 C114 0.961 . S
H116 C114 0.956 1_554 S
H117 C114 0.960 . S
C118 N119 1.342 . S
C118 C122 1.401 . S
C118 C123 1.499 . S
N119 Co102 1.989 . S
N119 C118 1.342 . S
N119 N120 1.388 . S
N120 Co103 1.993 . S
N120 N119 1.388 . S
N120 C121 1.346 . S
C121 N120 1.346 . S
C121 C122 1.396 . S
C121 C131 1.510 . S
C122 C118 1.401 . S
C122 C121 1.396 . S
C123 C118 1.499 . S
C123 H124 0.959 . S
C123 H125 0.960 . S
C123 H126 0.961 . S
H124 C123 0.959 . S
H125 C123 0.960 . S
H126 C123 0.961 . S
O127 Co102 1.967 . S
O127 C135 1.258 . S
O128 Co103 1.941 . S
O128 C135 1.266 . S
H129 C131 0.959 . S
H130 C131 0.961 . S
C131 C121 1.510 . S
C131 H129 0.959 . S
C131 H130 0.961 . S
C131 H132 0.960 . S
H132 C131 0.960 . S
H133 N113 0.862 . S
O134 Co102 1.920 . S
O134 C107 1.289 . S
C135 O127 1.258 . S
C135 O128 1.266 . S
Co136 O139 1.970 . S
Co136 N153 1.989 . S
Co136 O161 1.967 . S
Co136 O168 1.920 . S
Co137 O140 1.966 . S
Co137 N146 2.022 . S
Co137 N154 1.993 . S
Co137 O162 1.941 . S
C138 O139 1.258 . S
C138 O140 1.263 . S
O139 Co136 1.970 . S
O139 C138 1.258 . S
O140 Co137 1.966 . S
O140 C138 1.263 . S
C141 O142 1.235 . S
C141 O168 1.289 . S
O142 C141 1.235 . S
C143 C145 1.400 . S
C143 N146 1.351 . S
C143 C148 1.501 . S
C144 C145 1.387 . S
C144 N147 1.341 . S
C145 C143 1.400 . S
C145 C144 1.387 . S
N146 Co137 2.022 . S
N146 C143 1.351 . S
N146 N147 1.365 . S
N147 C144 1.341 . S
N147 N146 1.365 . S
N147 H167 0.862 . S
C148 C143 1.501 . S
C148 H149 0.961 . S
C148 H150 0.961 . S
C148 H151 0.960 . S
H149 C148 0.961 . S
H150 C148 0.961 . S
H151 C148 0.960 . S
C152 N153 1.342 . S
C152 C156 1.401 . S
C152 C157 1.499 . S
N153 Co136 1.989 . S
N153 C152 1.342 . S
N153 N154 1.388 . S
N154 Co137 1.993 . S
N154 N153 1.388 . S
N154 C155 1.346 . S
C155 N154 1.346 . S
C155 C156 1.396 . S
C155 C165 1.510 . S
C156 C152 1.401 . S
C156 C155 1.396 . S
C157 C152 1.499 . S
C157 H158 0.959 . S
C157 H159 0.960 . S
C157 H160 0.961 1_554 S
H158 C157 0.959 . S
H159 C157 0.960 . S
H160 C157 0.961 1_556 S
O161 Co136 1.967 . S
O161 C169 1.258 . S
O162 Co137 1.941 . S
O162 C169 1.266 . S
H163 C165 0.959 . S
H164 C165 0.961 . S
C165 C155 1.510 . S
C165 H163 0.959 . S
C165 H164 0.961 . S
C165 H166 0.960 . S
H166 C165 0.960 . S
H167 N147 0.862 . S
O168 Co136 1.920 . S
O168 C141 1.289 . S
C169 O161 1.258 . S
C169 O162 1.266 . S
Co170 O173 1.970 . S
Co170 N187 1.989 . S
Co170 O195 1.967 . S
Co170 O202 1.920 . S
Co171 O174 1.966 . S
Co171 N180 2.022 . S
Co171 N188 1.993 . S
Co171 O196 1.941 . S
C172 O173 1.258 . S
C172 O174 1.263 . S
O173 Co170 1.970 . S
O173 C172 1.258 . S
O174 Co171 1.966 . S
O174 C172 1.263 . S
C175 O176 1.235 . S
C175 O202 1.289 . S
O176 C175 1.235 . S
C177 C179 1.400 . S
C177 N180 1.351 . S
C177 C182 1.501 . S
C178 C179 1.387 . S
C178 N181 1.341 . S
C179 C177 1.400 . S
C179 C178 1.387 . S
N180 Co171 2.022 . S
N180 C177 1.351 . S
N180 N181 1.365 . S
N181 C178 1.341 . S
N181 N180 1.365 . S
N181 H201 0.862 . S
C182 C177 1.501 . S
C182 H183 0.961 . S
C182 H184 0.961 . S
C182 H185 0.960 . S
H183 C182 0.961 . S
H184 C182 0.961 . S
H185 C182 0.960 . S
C186 N187 1.342 . S
C186 C190 1.401 . S
C186 C191 1.499 . S
N187 Co170 1.989 . S
N187 C186 1.342 . S
N187 N188 1.388 . S
N188 Co171 1.993 . S
N188 N187 1.388 . S
N188 C189 1.346 . S
C189 N188 1.346 . S
C189 C190 1.396 . S
C189 C199 1.510 . S
C190 C186 1.401 . S
C190 C189 1.396 . S
C191 C186 1.499 . S
C191 H192 0.959 . S
C191 H193 0.960 . S
C191 H194 0.961 1_556 S
H192 C191 0.959 . S
H193 C191 0.960 . S
H194 C191 0.961 1_554 S
O195 Co170 1.967 . S
O195 C203 1.258 . S
O196 Co171 1.941 . S
O196 C203 1.266 . S
H197 C199 0.959 . S
H198 C199 0.961 . S
C199 C189 1.510 . S
C199 H197 0.959 . S
C199 H198 0.961 . S
C199 H200 0.960 . S
H200 C199 0.960 . S
H201 N181 0.862 . S
O202 Co170 1.920 . S
O202 C175 1.289 . S
C203 O195 1.258 . S
C203 O196 1.266 . S
Co204 O207 1.970 . S
Co204 N221 1.989 . S
Co204 O229 1.967 . S
Co204 O236 1.920 . S
Co205 O208 1.966 . S
Co205 N214 2.022 . S
Co205 N222 1.993 . S
Co205 O230 1.941 . S
C206 O207 1.258 . S
C206 O208 1.263 . S
O207 Co204 1.970 . S
O207 C206 1.258 . S
O208 Co205 1.966 . S
O208 C206 1.263 . S
C209 O210 1.235 . S
C209 O236 1.289 . S
O210 C209 1.235 . S
C211 C213 1.400 . S
C211 N214 1.351 . S
C211 C216 1.501 . S
C212 C213 1.387 . S
C212 N215 1.341 . S
C213 C211 1.400 . S
C213 C212 1.387 . S
N214 Co205 2.022 . S
N214 C211 1.351 . S
N214 N215 1.365 . S
N215 C212 1.341 . S
N215 N214 1.365 . S
N215 H235 0.862 . S
C216 C211 1.501 . S
C216 H217 0.961 . S
C216 H218 0.961 . S
C216 H219 0.960 . S
H217 C216 0.961 . S
H218 C216 0.961 . S
H219 C216 0.960 . S
C220 N221 1.342 . S
C220 C224 1.401 . S
C220 C225 1.499 . S
N221 Co204 1.989 . S
N221 C220 1.342 . S
N221 N222 1.388 . S
N222 Co205 1.993 . S
N222 N221 1.388 . S
N222 C223 1.346 . S
C223 N222 1.346 . S
C223 C224 1.396 . S
C223 C233 1.510 . S
C224 C220 1.401 . S
C224 C223 1.396 . S
C225 C220 1.499 . S
C225 H226 0.959 . S
C225 H227 0.960 . S
C225 H228 0.961 1_554 S
H226 C225 0.959 . S
H227 C225 0.960 . S
H228 C225 0.961 1_556 S
O229 Co204 1.967 . S
O229 C237 1.258 . S
O230 Co205 1.941 . S
O230 C237 1.266 . S
H231 C233 0.959 . S
H232 C233 0.961 . S
C233 C223 1.510 . S
C233 H231 0.959 . S
C233 H232 0.961 . S
C233 H234 0.960 . S
H234 C233 0.960 . S
H235 N215 0.862 . S
O236 Co204 1.920 . S
O236 C209 1.289 . S
C237 O229 1.258 . S
C237 O230 1.266 . S
Co238 O241 1.970 . S
Co238 N255 1.989 . S
Co238 O263 1.967 . S
Co238 O270 1.920 . S
Co239 O242 1.966 . S
Co239 N248 2.022 . S
Co239 N256 1.993 . S
Co239 O264 1.941 . S
C240 O241 1.258 . S
C240 O242 1.263 . S
O241 Co238 1.970 . S
O241 C240 1.258 . S
O242 Co239 1.966 . S
O242 C240 1.263 . S
C243 O244 1.235 . S
C243 O270 1.289 . S
O244 C243 1.235 . S
C245 C247 1.400 . S
C245 N248 1.351 . S
C245 C250 1.501 . S
C246 C247 1.387 . S
C246 N249 1.341 . S
C247 C245 1.400 . S
C247 C246 1.387 . S
N248 Co239 2.022 . S
N248 C245 1.351 . S
N248 N249 1.365 . S
N249 C246 1.341 . S
N249 N248 1.365 . S
N249 H269 0.862 . S
C250 C245 1.501 . S
C250 H251 0.961 . S
C250 H252 0.961 . S
C250 H253 0.960 . S
H251 C250 0.961 . S
H252 C250 0.961 . S
H253 C250 0.960 . S
C254 N255 1.342 . S
C254 C258 1.401 . S
C254 C259 1.499 . S
N255 Co238 1.989 . S
N255 C254 1.342 . S
N255 N256 1.388 . S
N256 Co239 1.993 . S
N256 N255 1.388 . S
N256 C257 1.346 . S
C257 N256 1.346 . S
C257 C258 1.396 . S
C257 C267 1.510 . S
C258 C254 1.401 . S
C258 C257 1.396 . S
C259 C254 1.499 . S
C259 H260 0.959 . S
C259 H261 0.960 . S
C259 H262 0.961 1_556 S
H260 C259 0.959 . S
H261 C259 0.960 . S
H262 C259 0.961 1_554 S
O263 Co238 1.967 . S
O263 C271 1.258 . S
O264 Co239 1.941 . S
O264 C271 1.266 . S
H265 C267 0.959 . S
H266 C267 0.961 . S
C267 C257 1.510 . S
C267 H265 0.959 . S
C267 H266 0.961 . S
C267 H268 0.960 . S
H268 C267 0.960 . S
H269 N249 0.862 . S
O270 Co238 1.920 . S
O270 C243 1.289 . S
C271 O263 1.258 . S
C271 O264 1.266 . S
Co272 O275 1.970 . S
Co272 N289 1.989 . S
Co272 O297 1.967 . S
Co272 O304 1.920 . S
Co273 O276 1.966 . S
Co273 N282 2.022 . S
Co273 N290 1.993 . S
Co273 O298 1.941 . S
C274 O275 1.258 . S
C274 O276 1.263 . S
O275 Co272 1.970 . S
O275 C274 1.258 . S
O276 Co273 1.966 . S
O276 C274 1.263 . S
C277 O278 1.235 . S
C277 O304 1.289 . S
O278 C277 1.235 . S
C279 C281 1.400 . S
C279 N282 1.351 . S
C279 C284 1.501 . S
C280 C281 1.387 . S
C280 N283 1.341 . S
C281 C279 1.400 . S
C281 C280 1.387 . S
N282 Co273 2.022 . S
N282 C279 1.351 . S
N282 N283 1.365 . S
N283 C280 1.341 . S
N283 N282 1.365 . S
N283 H303 0.862 . S
C284 C279 1.501 . S
C284 H285 0.961 . S
C284 H286 0.961 . S
C284 H287 0.960 . S
H285 C284 0.961 . S
H286 C284 0.961 . S
H287 C284 0.960 . S
C288 N289 1.342 . S
C288 C292 1.401 . S
C288 C293 1.499 . S
N289 Co272 1.989 . S
N289 C288 1.342 . S
N289 N290 1.388 . S
N290 Co273 1.993 . S
N290 N289 1.388 . S
N290 C291 1.346 . S
C291 N290 1.346 . S
C291 C292 1.396 . S
C291 C301 1.510 . S
C292 C288 1.401 . S
C292 C291 1.396 . S
C293 C288 1.499 . S
C293 H294 0.959 . S
C293 H295 0.960 . S
C293 H296 0.961 . S
H294 C293 0.959 . S
H295 C293 0.960 . S
H296 C293 0.961 . S
O297 Co272 1.967 . S
O297 C305 1.258 . S
O298 Co273 1.941 . S
O298 C305 1.266 . S
H299 C301 0.959 . S
H300 C301 0.961 . S
C301 C291 1.510 . S
C301 H299 0.959 . S
C301 H300 0.961 . S
C301 H302 0.960 . S
H302 C301 0.960 . S
H303 N283 0.862 . S
O304 Co272 1.920 . S
O304 C277 1.289 . S
C305 O297 1.258 . S
C305 O298 1.266 . S
Co306 O309 1.970 . S
Co306 N323 1.989 . S
Co306 O331 1.967 . S
Co306 O338 1.920 . S
Co307 O310 1.966 . S
Co307 N316 2.022 . S
Co307 N324 1.993 . S
Co307 O332 1.941 . S
C308 O309 1.258 . S
C308 O310 1.263 . S
O309 Co306 1.970 . S
O309 C308 1.258 . S
O310 Co307 1.966 . S
O310 C308 1.263 . S
C311 O312 1.235 . S
C311 O338 1.289 . S
O312 C311 1.235 . S
C313 C315 1.400 . S
C313 N316 1.351 . S
C313 C318 1.501 . S
C314 C315 1.387 . S
C314 N317 1.341 . S
C315 C313 1.400 . S
C315 C314 1.387 . S
N316 Co307 2.022 . S
N316 C313 1.351 . S
N316 N317 1.365 . S
N317 C314 1.341 . S
N317 N316 1.365 . S
N317 H337 0.862 . S
C318 C313 1.501 . S
C318 H319 0.961 . S
C318 H320 0.961 . S
C318 H321 0.960 . S
H319 C318 0.961 . S
H320 C318 0.961 . S
H321 C318 0.960 . S
C322 N323 1.342 . S
C322 C326 1.401 . S
C322 C327 1.499 . S
N323 Co306 1.989 . S
N323 C322 1.342 . S
N323 N324 1.388 . S
N324 Co307 1.993 . S
N324 N323 1.388 . S
N324 C325 1.346 . S
C325 N324 1.346 . S
C325 C326 1.396 . S
C325 C335 1.510 . S
C326 C322 1.401 . S
C326 C325 1.396 . S
C327 C322 1.499 . S
C327 H328 0.959 . S
C327 H329 0.960 . S
C327 H330 0.961 . S
H328 C327 0.959 . S
H329 C327 0.960 . S
H330 C327 0.961 . S
O331 Co306 1.967 . S
O331 C339 1.258 . S
O332 Co307 1.941 . S
O332 C339 1.266 . S
H333 C335 0.959 . S
H334 C335 0.961 . S
C335 C325 1.510 . S
C335 H333 0.959 . S
C335 H334 0.961 . S
C335 H336 0.960 . S
H336 C335 0.960 . S
H337 N317 0.862 . S
O338 Co306 1.920 . S
O338 C311 1.289 . S
C339 O331 1.258 . S
C339 O332 1.266 . S
Co340 O343 1.970 . S
Co340 N357 1.989 . S
Co340 O365 1.967 . S
Co340 O372 1.920 . S
Co341 O344 1.966 . S
Co341 N350 2.022 . S
Co341 N358 1.993 . S
Co341 O366 1.941 . S
C342 O343 1.258 . S
C342 O344 1.263 . S
O343 Co340 1.970 . S
O343 C342 1.258 . S
O344 Co341 1.966 . S
O344 C342 1.263 . S
C345 O346 1.235 . S
C345 O372 1.289 . S
O346 C345 1.235 . S
C347 C349 1.400 . S
C347 N350 1.351 . S
C347 C352 1.501 . S
C348 C349 1.387 . S
C348 N351 1.341 . S
C349 C347 1.400 . S
C349 C348 1.387 . S
N350 Co341 2.022 . S
N350 C347 1.351 . S
N350 N351 1.365 . S
N351 C348 1.341 . S
N351 N350 1.365 . S
N351 H371 0.862 . S
C352 C347 1.501 . S
C352 H353 0.961 . S
C352 H354 0.961 . S
C352 H355 0.960 . S
H353 C352 0.961 . S
H354 C352 0.961 . S
H355 C352 0.960 . S
C356 N357 1.342 . S
C356 C360 1.401 . S
C356 C361 1.499 . S
N357 Co340 1.989 . S
N357 C356 1.342 . S
N357 N358 1.388 . S
N358 Co341 1.993 . S
N358 N357 1.388 . S
N358 C359 1.346 . S
C359 N358 1.346 . S
C359 C360 1.396 . S
C359 C369 1.510 . S
C360 C356 1.401 . S
C360 C359 1.396 . S
C361 C356 1.499 . S
C361 H362 0.959 . S
C361 H363 0.960 . S
C361 H364 0.961 . S
H362 C361 0.959 . S
H363 C361 0.960 . S
H364 C361 0.961 . S
O365 Co340 1.967 . S
O365 C373 1.258 . S
O366 Co341 1.941 . S
O366 C373 1.266 . S
H367 C369 0.959 . S
H368 C369 0.961 . S
C369 C359 1.510 . S
C369 H367 0.959 . S
C369 H368 0.961 . S
C369 H370 0.960 . S
H370 C369 0.960 . S
H371 N351 0.862 . S
O372 Co340 1.920 . S
O372 C345 1.289 . S
C373 O365 1.258 . S
C373 O366 1.266 . S
Co374 O377 1.970 . S
Co374 N391 1.989 . S
Co374 O399 1.967 . S
Co374 O406 1.920 . S
Co375 O378 1.966 . S
Co375 N384 2.022 . S
Co375 N392 1.993 . S
Co375 O400 1.941 . S
C376 O377 1.258 . S
C376 O378 1.263 . S
O377 Co374 1.970 . S
O377 C376 1.258 . S
O378 Co375 1.966 . S
O378 C376 1.263 . S
C379 O380 1.235 . S
C379 O406 1.289 . S
O380 C379 1.235 . S
C381 C383 1.400 . S
C381 N384 1.351 . S
C381 C386 1.501 . S
C382 C383 1.387 . S
C382 N385 1.341 . S
C383 C381 1.400 . S
C383 C382 1.387 . S
N384 Co375 2.022 . S
N384 C381 1.351 . S
N384 N385 1.365 . S
N385 C382 1.341 . S
N385 N384 1.365 . S
N385 H405 0.862 . S
C386 C381 1.501 . S
C386 H387 0.961 . S
C386 H388 0.961 . S
C386 H389 0.960 . S
H387 C386 0.961 . S
H388 C386 0.961 . S
H389 C386 0.960 . S
C390 N391 1.342 . S
C390 C394 1.401 . S
C390 C395 1.499 . S
N391 Co374 1.989 . S
N391 C390 1.342 . S
N391 N392 1.388 . S
N392 Co375 1.993 . S
N392 N391 1.388 . S
N392 C393 1.346 . S
C393 N392 1.346 . S
C393 C394 1.396 . S
C393 C403 1.510 . S
C394 C390 1.401 . S
C394 C393 1.396 . S
C395 C390 1.499 . S
C395 H396 0.959 . S
C395 H397 0.960 . S
C395 H398 0.961 . S
H396 C395 0.959 . S
H397 C395 0.960 . S
H398 C395 0.961 . S
O399 Co374 1.967 . S
O399 C407 1.258 . S
O400 Co375 1.941 . S
O400 C407 1.266 . S
H401 C403 0.959 . S
H402 C403 0.961 . S
C403 C393 1.510 . S
C403 H401 0.959 . S
C403 H402 0.961 . S
C403 H404 0.960 . S
H404 C403 0.960 . S
H405 N385 0.862 . S
O406 Co374 1.920 . S
O406 C379 1.289 . S
C407 O399 1.258 . S
C407 O400 1.266 . S
Co408 O411 1.970 . S
Co408 N425 1.989 . S
Co408 O433 1.967 . S
Co408 O440 1.920 . S
Co409 O412 1.966 . S
Co409 N418 2.022 . S
Co409 N426 1.993 . S
Co409 O434 1.941 . S
C410 O411 1.258 . S
C410 O412 1.263 . S
O411 Co408 1.970 . S
O411 C410 1.258 . S
O412 Co409 1.966 . S
O412 C410 1.263 . S
C413 O414 1.235 . S
C413 O440 1.289 . S
O414 C413 1.235 . S
C415 C417 1.400 . S
C415 N418 1.351 . S
C415 C420 1.501 . S
C416 C417 1.387 . S
C416 N419 1.341 . S
C417 C415 1.400 . S
C417 C416 1.387 . S
N418 Co409 2.022 . S
N418 C415 1.351 . S
N418 N419 1.365 . S
N419 C416 1.341 . S
N419 N418 1.365 . S
N419 H439 0.862 . S
C420 C415 1.501 . S
C420 H421 0.961 . S
C420 H422 0.961 . S
C420 H423 0.960 . S
H421 C420 0.961 . S
H422 C420 0.961 . S
H423 C420 0.960 . S
C424 N425 1.342 . S
C424 C428 1.401 . S
C424 C429 1.499 . S
N425 Co408 1.989 . S
N425 C424 1.342 . S
N425 N426 1.388 . S
N426 Co409 1.993 . S
N426 N425 1.388 . S
N426 C427 1.346 . S
C427 N426 1.346 . S
C427 C428 1.396 . S
C427 C437 1.510 . S
C428 C424 1.401 . S
C428 C427 1.396 . S
C429 C424 1.499 . S
C429 H430 0.959 . S
C429 H431 0.960 . S
C429 H432 0.961 . S
H430 C429 0.959 . S
H431 C429 0.960 . S
H432 C429 0.961 . S
O433 Co408 1.967 . S
O433 C441 1.258 . S
O434 Co409 1.941 . S
O434 C441 1.266 . S
H435 C437 0.959 . S
H436 C437 0.961 . S
C437 C427 1.510 . S
C437 H435 0.959 . S
C437 H436 0.961 . S
C437 H438 0.960 . S
H438 C437 0.960 . S
H439 N419 0.862 . S
O440 Co408 1.920 . S
O440 C413 1.289 . S
C441 O433 1.258 . S
C441 O434 1.266 . S
Co442 O445 1.970 . S
Co442 N459 1.989 . S
Co442 O467 1.967 . S
Co442 O474 1.920 . S
Co443 O446 1.966 . S
Co443 N452 2.022 . S
Co443 N460 1.993 . S
Co443 O468 1.941 . S
C444 O445 1.258 . S
C444 O446 1.263 . S
O445 Co442 1.970 . S
O445 C444 1.258 . S
O446 Co443 1.966 . S
O446 C444 1.263 . S
C447 O448 1.235 . S
C447 O474 1.289 . S
O448 C447 1.235 . S
C449 C451 1.400 . S
C449 N452 1.351 . S
C449 C454 1.501 . S
C450 C451 1.387 . S
C450 N453 1.341 . S
C451 C449 1.400 . S
C451 C450 1.387 . S
N452 Co443 2.022 . S
N452 C449 1.351 . S
N452 N453 1.365 . S
N453 C450 1.341 . S
N453 N452 1.365 . S
N453 H473 0.862 . S
C454 C449 1.501 . S
C454 H455 0.961 . S
C454 H456 0.961 . S
C454 H457 0.960 . S
H455 C454 0.961 . S
H456 C454 0.961 . S
H457 C454 0.960 . S
C458 N459 1.342 . S
C458 C462 1.401 . S
C458 C463 1.499 . S
N459 Co442 1.989 . S
N459 C458 1.342 . S
N459 N460 1.388 . S
N460 Co443 1.993 . S
N460 N459 1.388 . S
N460 C461 1.346 . S
C461 N460 1.346 . S
C461 C462 1.396 . S
C461 C471 1.510 . S
C462 C458 1.401 . S
C462 C461 1.396 . S
C463 C458 1.499 . S
C463 H464 0.959 . S
C463 H465 0.960 . S
C463 H466 0.961 . S
H464 C463 0.959 . S
H465 C463 0.960 . S
H466 C463 0.961 . S
O467 Co442 1.967 . S
O467 C475 1.258 . S
O468 Co443 1.941 . S
O468 C475 1.266 . S
H469 C471 0.959 . S
H470 C471 0.961 . S
C471 C461 1.510 . S
C471 H469 0.959 . S
C471 H470 0.961 . S
C471 H472 0.960 . S
H472 C471 0.960 . S
H473 N453 0.862 . S
O474 Co442 1.920 . S
O474 C447 1.289 . S
C475 O467 1.258 . S
C475 O468 1.266 . S
Co476 O479 1.970 . S
Co476 N493 1.989 . S
Co476 O501 1.967 . S
Co476 O508 1.920 . S
Co477 O480 1.966 . S
Co477 N486 2.022 . S
Co477 N494 1.993 . S
Co477 O502 1.941 . S
C478 O479 1.258 . S
C478 O480 1.263 . S
O479 Co476 1.970 . S
O479 C478 1.258 . S
O480 Co477 1.966 . S
O480 C478 1.263 . S
C481 O482 1.235 . S
C481 O508 1.289 . S
O482 C481 1.235 . S
C483 C485 1.400 . S
C483 N486 1.351 . S
C483 C488 1.501 . S
C484 C485 1.387 . S
C484 N487 1.341 . S
C485 C483 1.400 . S
C485 C484 1.387 . S
N486 Co477 2.022 . S
N486 C483 1.351 . S
N486 N487 1.365 . S
N487 C484 1.341 . S
N487 N486 1.365 . S
N487 H507 0.862 . S
C488 C483 1.501 . S
C488 H489 0.961 . S
C488 H490 0.961 . S
C488 H491 0.960 . S
H489 C488 0.961 . S
H490 C488 0.961 . S
H491 C488 0.960 . S
C492 N493 1.342 . S
C492 C496 1.401 . S
C492 C497 1.499 . S
N493 Co476 1.989 . S
N493 C492 1.342 . S
N493 N494 1.388 . S
N494 Co477 1.993 . S
N494 N493 1.388 . S
N494 C495 1.346 . S
C495 N494 1.346 . S
C495 C496 1.396 . S
C495 C505 1.510 . S
C496 C492 1.401 . S
C496 C495 1.396 . S
C497 C492 1.499 . S
C497 H498 0.959 . S
C497 H499 0.960 . S
C497 H500 0.961 . S
H498 C497 0.959 . S
H499 C497 0.960 . S
H500 C497 0.961 . S
O501 Co476 1.967 . S
O501 C509 1.258 . S
O502 Co477 1.941 . S
O502 C509 1.266 . S
H503 C505 0.959 . S
H504 C505 0.961 . S
C505 C495 1.510 . S
C505 H503 0.959 . S
C505 H504 0.961 . S
C505 H506 0.960 . S
H506 C505 0.960 . S
H507 N487 0.862 . S
O508 Co476 1.920 . S
O508 C481 1.289 . S
C509 O501 1.258 . S
C509 O502 1.266 . S
Co510 O513 1.970 . S
Co510 N527 1.989 . S
Co510 O535 1.967 . S
Co510 O542 1.920 . S
Co511 O514 1.966 . S
Co511 N520 2.022 . S
Co511 N528 1.993 . S
Co511 O536 1.941 . S
C512 O513 1.258 . S
C512 O514 1.263 . S
O513 Co510 1.970 . S
O513 C512 1.258 . S
O514 Co511 1.966 . S
O514 C512 1.263 . S
C515 O516 1.235 . S
C515 O542 1.289 . S
O516 C515 1.235 . S
C517 C519 1.400 . S
C517 N520 1.351 . S
C517 C522 1.501 . S
C518 C519 1.387 . S
C518 N521 1.341 . S
C519 C517 1.400 . S
C519 C518 1.387 . S
N520 Co511 2.022 . S
N520 C517 1.351 . S
N520 N521 1.365 . S
N521 C518 1.341 . S
N521 N520 1.365 . S
N521 H541 0.862 . S
C522 C517 1.501 . S
C522 H523 0.961 . S
C522 H524 0.961 . S
C522 H525 0.960 . S
H523 C522 0.961 . S
H524 C522 0.961 . S
H525 C522 0.960 . S
C526 N527 1.342 . S
C526 C530 1.401 . S
C526 C531 1.499 . S
N527 Co510 1.989 . S
N527 C526 1.342 . S
N527 N528 1.388 . S
N528 Co511 1.993 . S
N528 N527 1.388 . S
N528 C529 1.346 . S
C529 N528 1.346 . S
C529 C530 1.396 . S
C529 C539 1.510 . S
C530 C526 1.401 . S
C530 C529 1.396 . S
C531 C526 1.499 . S
C531 H532 0.959 . S
C531 H533 0.960 . S
C531 H534 0.961 . S
H532 C531 0.959 . S
H533 C531 0.960 . S
H534 C531 0.961 . S
O535 Co510 1.967 . S
O535 C543 1.258 . S
O536 Co511 1.941 . S
O536 C543 1.266 . S
H537 C539 0.959 . S
H538 C539 0.961 . S
C539 C529 1.510 . S
C539 H537 0.959 . S
C539 H538 0.961 . S
C539 H540 0.960 . S
H540 C539 0.960 . S
H541 N521 0.862 . S
O542 Co510 1.920 . S
O542 C515 1.289 . S
C543 O535 1.258 . S
C543 O536 1.266 . S
C544 C545 1.391 . S
C544 C546 1.394 . S
C544 H560 0.931 . S
C545 C544 1.391 . S
C545 C549 1.376 . S
C546 C544 1.394 . S
C546 C547 1.369 . S
C546 C550 1.531 . S
C547 C546 1.369 . S
C547 C548 1.410 . S
C547 C555 1.503 . S
C548 C547 1.410 . S
C548 C549 1.392 . S
C548 C551 1.511 . S
C549 C545 1.376 . S
C549 C548 1.392 . S
C549 H561 0.929 . S
C550 C546 1.531 . S
C550 H562 0.960 . S
C550 H563 0.962 . S
C550 H564 0.960 . S
C551 C548 1.511 . S
C551 H565 0.961 . S
C551 H566 0.961 . S
C551 H567 0.961 . S
C552 C553 1.370 . S
C552 C554 1.363 . S
C552 H568 0.931 . S
C553 C552 1.370 . S
C553 C557 1.408 . S
C554 C552 1.363 . S
C554 C555 1.370 . S
C554 C558 1.524 . S
C555 C547 1.503 . S
C555 C554 1.370 . S
C555 C556 1.403 . S
C556 C555 1.403 . S
C556 C557 1.404 . S
C556 C559 1.539 . S
C557 C553 1.408 . S
C557 C556 1.404 . S
C557 H569 0.930 . S
C558 C554 1.524 . S
C558 H570 0.956 . S
C558 H571 0.961 . S
C558 H572 0.961 . S
C559 C556 1.539 . S
C559 H573 0.958 . S
C559 H574 0.961 . S
C559 H575 0.960 . S
H560 C544 0.931 . S
H561 C549 0.929 . S
H562 C550 0.960 . S
H563 C550 0.962 . S
H564 C550 0.960 . S
H565 C551 0.961 . S
H566 C551 0.961 . S
H567 C551 0.961 . S
H568 C552 0.931 . S
H569 C557 0.930 . S
H570 C558 0.956 . S
H571 C558 0.961 . S
H572 C558 0.961 . S
H573 C559 0.958 . S
H574 C559 0.961 . S
H575 C559 0.960 . S
C576 C577 1.391 . S
C576 C578 1.394 . S
C576 H592 0.931 . S
C577 C576 1.391 . S
C577 C581 1.376 . S
C578 C576 1.394 . S
C578 C579 1.369 . S
C578 C582 1.531 . S
C579 C578 1.369 . S
C579 C580 1.410 . S
C579 C587 1.503 . S
C580 C579 1.410 . S
C580 C581 1.392 . S
C580 C583 1.511 . S
C581 C577 1.376 . S
C581 C580 1.392 . S
C581 H593 0.929 . S
C582 C578 1.531 . S
C582 H594 0.960 . S
C582 H595 0.962 . S
C582 H596 0.960 . S
C583 C580 1.511 . S
C583 H597 0.961 . S
C583 H598 0.961 . S
C583 H599 0.961 . S
C584 C585 1.370 . S
C584 C586 1.363 . S
C584 H600 0.931 . S
C585 C584 1.370 . S
C585 C589 1.408 . S
C586 C584 1.363 . S
C586 C587 1.370 . S
C586 C590 1.524 . S
C587 C579 1.503 . S
C587 C586 1.370 . S
C587 C588 1.403 . S
C588 C587 1.403 . S
C588 C589 1.404 . S
C588 C591 1.539 . S
C589 C585 1.408 . S
C589 C588 1.404 . S
C589 H601 0.930 . S
C590 C586 1.524 . S
C590 H602 0.956 . S
C590 H603 0.961 . S
C590 H604 0.961 . S
C591 C588 1.539 . S
C591 H605 0.958 . S
C591 H606 0.961 . S
C591 H607 0.960 . S
H592 C576 0.931 . S
H593 C581 0.929 . S
H594 C582 0.960 . S
H595 C582 0.962 . S
H596 C582 0.960 . S
H597 C583 0.961 . S
H598 C583 0.961 . S
H599 C583 0.961 . S
H600 C584 0.931 . S
H601 C589 0.930 . S
H602 C590 0.956 . S
H603 C590 0.961 . S
H604 C590 0.961 . S
H605 C591 0.958 . S
H606 C591 0.961 . S
H607 C591 0.960 . S
C608 C609 1.391 . S
C608 C610 1.394 . S
C608 H624 0.931 . S
C609 C608 1.391 . S
C609 C613 1.376 . S
C610 C608 1.394 . S
C610 C611 1.369 . S
C610 C614 1.531 . S
C611 C610 1.369 . S
C611 C612 1.410 . S
C611 C619 1.503 . S
C612 C611 1.410 . S
C612 C613 1.392 . S
C612 C615 1.511 . S
C613 C609 1.376 . S
C613 C612 1.392 . S
C613 H625 0.929 . S
C614 C610 1.531 . S
C614 H626 0.960 . S
C614 H627 0.962 . S
C614 H628 0.960 . S
C615 C612 1.511 . S
C615 H629 0.961 . S
C615 H630 0.961 . S
C615 H631 0.961 . S
C616 C617 1.370 . S
C616 C618 1.363 . S
C616 H632 0.931 . S
C617 C616 1.370 . S
C617 C621 1.408 . S
C618 C616 1.363 . S
C618 C619 1.370 . S
C618 C622 1.524 . S
C619 C611 1.503 . S
C619 C618 1.370 . S
C619 C620 1.403 . S
C620 C619 1.403 . S
C620 C621 1.404 . S
C620 C623 1.539 . S
C621 C617 1.408 . S
C621 C620 1.404 . S
C621 H633 0.930 . S
C622 C618 1.524 . S
C622 H634 0.956 . S
C622 H635 0.961 . S
C622 H636 0.961 . S
C623 C620 1.539 . S
C623 H637 0.958 . S
C623 H638 0.961 . S
C623 H639 0.960 . S
H624 C608 0.931 . S
H625 C613 0.929 . S
H626 C614 0.960 . S
H627 C614 0.962 . S
H628 C614 0.960 . S
H629 C615 0.961 . S
H630 C615 0.961 . S
H631 C615 0.961 . S
H632 C616 0.931 . S
H633 C621 0.930 . S
H634 C622 0.956 . S
H635 C622 0.961 . S
H636 C622 0.961 . S
H637 C623 0.958 . S
H638 C623 0.961 . S
H639 C623 0.960 . S
C640 C641 1.391 . S
C640 C642 1.394 . S
C640 H656 0.931 . S
C641 C640 1.391 . S
C641 C645 1.376 . S
C642 C640 1.394 . S
C642 C643 1.369 . S
C642 C646 1.531 . S
C643 C642 1.369 . S
C643 C644 1.410 . S
C643 C651 1.503 . S
C644 C643 1.410 . S
C644 C645 1.392 . S
C644 C647 1.511 . S
C645 C641 1.376 . S
C645 C644 1.392 . S
C645 H657 0.929 . S
C646 C642 1.531 . S
C646 H658 0.960 . S
C646 H659 0.962 . S
C646 H660 0.960 . S
C647 C644 1.511 . S
C647 H661 0.961 . S
C647 H662 0.961 . S
C647 H663 0.961 . S
C648 C649 1.370 . S
C648 C650 1.363 . S
C648 H664 0.931 . S
C649 C648 1.370 . S
C649 C653 1.408 . S
C650 C648 1.363 . S
C650 C651 1.370 . S
C650 C654 1.524 . S
C651 C643 1.503 . S
C651 C650 1.370 . S
C651 C652 1.403 . S
C652 C651 1.403 . S
C652 C653 1.404 . S
C652 C655 1.539 . S
C653 C649 1.408 . S
C653 C652 1.404 . S
C653 H665 0.930 . S
C654 C650 1.524 . S
C654 H666 0.956 . S
C654 H667 0.961 . S
C654 H668 0.961 . S
C655 C652 1.539 . S
C655 H669 0.958 . S
C655 H670 0.961 . S
C655 H671 0.960 . S
H656 C640 0.931 . S
H657 C645 0.929 . S
H658 C646 0.960 . S
H659 C646 0.962 . S
H660 C646 0.960 . S
H661 C647 0.961 . S
H662 C647 0.961 . S
H663 C647 0.961 . S
H664 C648 0.931 . S
H665 C653 0.930 . S
H666 C654 0.956 . S
H667 C654 0.961 . S
H668 C654 0.961 . S
H669 C655 0.958 . S
H670 C655 0.961 . S
H671 C655 0.960 . S
C672 C673 1.391 . S
C672 C674 1.394 . S
C672 H688 0.931 . S
C673 C672 1.391 . S
C673 C677 1.376 . S
C674 C672 1.394 . S
C674 C675 1.369 . S
C674 C678 1.531 . S
C675 C674 1.369 . S
C675 C676 1.410 . S
C675 C683 1.503 . S
C676 C675 1.410 . S
C676 C677 1.392 . S
C676 C679 1.511 . S
C677 C673 1.376 . S
C677 C676 1.392 . S
C677 H689 0.929 1_556 S
C678 C674 1.531 . S
C678 H690 0.960 . S
C678 H691 0.962 . S
C678 H692 0.960 . S
C679 C676 1.511 . S
C679 H693 0.961 1_556 S
C679 H694 0.961 . S
C679 H695 0.961 1_556 S
C680 C681 1.370 . S
C680 C682 1.363 . S
C680 H696 0.931 . S
C681 C680 1.370 . S
C681 C685 1.408 . S
C682 C680 1.363 . S
C682 C683 1.370 . S
C682 C686 1.524 . S
C683 C675 1.503 . S
C683 C682 1.370 . S
C683 C684 1.403 . S
C684 C683 1.403 . S
C684 C685 1.404 . S
C684 C687 1.539 . S
C685 C681 1.408 . S
C685 C684 1.404 . S
C685 H697 0.930 . S
C686 C682 1.524 . S
C686 H698 0.956 . S
C686 H699 0.961 . S
C686 H700 0.961 . S
C687 C684 1.539 . S
C687 H701 0.958 . S
C687 H702 0.961 . S
C687 H703 0.960 . S
H688 C672 0.931 . S
H689 C677 0.929 1_554 S
H690 C678 0.960 . S
H691 C678 0.962 . S
H692 C678 0.960 . S
H693 C679 0.961 1_554 S
H694 C679 0.961 . S
H695 C679 0.961 1_554 S
H696 C680 0.931 . S
H697 C685 0.930 . S
H698 C686 0.956 . S
H699 C686 0.961 . S
H700 C686 0.961 . S
H701 C687 0.958 . S
H702 C687 0.961 . S
H703 C687 0.960 . S
C704 C705 1.391 . S
C704 C706 1.394 . S
C704 H720 0.931 . S
C705 C704 1.391 . S
C705 C709 1.376 . S
C706 C704 1.394 . S
C706 C707 1.369 . S
C706 C710 1.531 . S
C707 C706 1.369 . S
C707 C708 1.410 . S
C707 C715 1.503 . S
C708 C707 1.410 . S
C708 C709 1.392 . S
C708 C711 1.511 . S
C709 C705 1.376 . S
C709 C708 1.392 . S
C709 H721 0.929 . S
C710 C706 1.531 . S
C710 H722 0.960 . S
C710 H723 0.962 . S
C710 H724 0.960 . S
C711 C708 1.511 . S
C711 H725 0.961 . S
C711 H726 0.961 . S
C711 H727 0.961 . S
C712 C713 1.370 . S
C712 C714 1.363 . S
C712 H728 0.931 . S
C713 C712 1.370 . S
C713 C717 1.408 . S
C714 C712 1.363 . S
C714 C715 1.370 . S
C714 C718 1.524 . S
C715 C707 1.503 . S
C715 C714 1.370 . S
C715 C716 1.403 . S
C716 C715 1.403 . S
C716 C717 1.404 . S
C716 C719 1.539 . S
C717 C713 1.408 . S
C717 C716 1.404 . S
C717 H729 0.930 . S
C718 C714 1.524 . S
C718 H730 0.956 . S
C718 H731 0.961 . S
C718 H732 0.961 . S
C719 C716 1.539 . S
C719 H733 0.958 . S
C719 H734 0.961 . S
C719 H735 0.960 . S
H720 C704 0.931 . S
H721 C709 0.929 . S
H722 C710 0.960 . S
H723 C710 0.962 . S
H724 C710 0.960 . S
H725 C711 0.961 . S
H726 C711 0.961 . S
H727 C711 0.961 . S
H728 C712 0.931 . S
H729 C717 0.930 . S
H730 C718 0.956 . S
H731 C718 0.961 . S
H732 C718 0.961 . S
H733 C719 0.958 . S
H734 C719 0.961 . S
H735 C719 0.960 . S
C736 C737 1.391 . S
C736 C738 1.394 . S
C736 H752 0.940 . S
C737 C736 1.391 . S
C737 C741 1.376 . S
C738 C736 1.394 . S
C738 C739 1.369 . S
C738 C742 1.531 . S
C739 C738 1.369 . S
C739 C740 1.410 . S
C739 C747 1.503 . S
C740 C739 1.410 . S
C740 C741 1.392 . S
C740 C743 1.511 . S
C741 C737 1.376 . S
C741 C740 1.392 . S
C741 H753 0.929 . S
C742 C738 1.531 . S
C742 H754 0.960 . S
C742 H755 0.962 . S
C742 H756 0.960 . S
C743 C740 1.511 . S
C743 H757 0.961 . S
C743 H758 0.961 . S
C743 H759 0.961 . S
C744 C745 1.370 . S
C744 C746 1.363 . S
C744 H760 0.931 . S
C745 C744 1.370 . S
C745 C749 1.408 . S
C746 C744 1.363 . S
C746 C747 1.370 . S
C746 C750 1.524 . S
C747 C739 1.503 . S
C747 C746 1.370 . S
C747 C748 1.403 . S
C748 C747 1.403 . S
C748 C749 1.404 . S
C748 C751 1.539 . S
C749 C745 1.408 . S
C749 C748 1.404 . S
C749 H761 0.930 . S
C750 C746 1.524 . S
C750 H762 0.956 . S
C750 H763 0.961 . S
C750 H764 0.961 . S
C751 C748 1.539 . S
C751 H765 0.958 . S
C751 H766 0.961 . S
C751 H767 0.960 . S
H752 C736 0.940 . S
H753 C741 0.929 . S
H754 C742 0.960 . S
H755 C742 0.962 . S
H756 C742 0.960 . S
H757 C743 0.961 . S
H758 C743 0.961 . S
H759 C743 0.961 . S
H760 C744 0.931 . S
H761 C749 0.930 . S
H762 C750 0.956 . S
H763 C750 0.961 . S
H764 C750 0.961 . S
H765 C751 0.958 . S
H766 C751 0.961 . S
H767 C751 0.960 . S
C768 C769 1.391 . S
C768 C770 1.394 . S
C768 H784 0.931 . S
C769 C768 1.391 . S
C769 C773 1.376 . S
C770 C768 1.394 . S
C770 C771 1.369 . S
C770 C774 1.531 . S
C771 C770 1.369 . S
C771 C772 1.410 . S
C771 C779 1.503 . S
C772 C771 1.410 . S
C772 C773 1.392 . S
C772 C775 1.511 . S
C773 C769 1.376 . S
C773 C772 1.392 . S
C773 H785 0.929 . S
C774 C770 1.531 . S
C774 H786 0.960 . S
C774 H787 0.962 . S
C774 H788 0.960 . S
C775 C772 1.511 . S
C775 H789 0.961 . S
C775 H790 0.961 . S
C775 H791 0.961 . S
C776 C777 1.370 . S
C776 C778 1.363 . S
C776 H792 0.931 . S
C777 C776 1.370 . S
C777 C781 1.408 . S
C778 C776 1.363 . S
C778 C779 1.370 . S
C778 C782 1.524 . S
C779 C771 1.503 . S
C779 C778 1.370 . S
C779 C780 1.403 . S
C780 C779 1.403 . S
C780 C781 1.403 . S
C780 C783 1.539 . S
C781 C777 1.408 . S
C781 C780 1.403 . S
C781 H793 0.931 1_554 S
C782 C778 1.524 . S
C782 H794 0.956 . S
C782 H795 0.961 . S
C782 H796 0.961 . S
C783 C780 1.539 . S
C783 H797 0.958 1_554 S
C783 H798 0.961 1_554 S
C783 H799 0.960 . S
H784 C768 0.931 . S
H785 C773 0.929 . S
H786 C774 0.960 . S
H787 C774 0.962 . S
H788 C774 0.960 . S
H789 C775 0.961 . S
H790 C775 0.961 . S
H791 C775 0.961 . S
H792 C776 0.931 . S
H793 C781 0.931 1_556 S
H794 C782 0.956 . S
H795 C782 0.961 . S
H796 C782 0.961 . S
H797 C783 0.958 1_556 S
H798 C783 0.961 1_556 S
H799 C783 0.960 . S
C800 C801 1.391 . S
C800 C802 1.394 . S
C800 H816 0.931 . S
C801 C800 1.391 . S
C801 C805 1.376 . S
C802 C800 1.394 . S
C802 C803 1.369 . S
C802 C806 1.531 . S
C803 C802 1.369 . S
C803 C804 1.410 . S
C803 C811 1.503 . S
C804 C803 1.410 . S
C804 C805 1.392 . S
C804 C807 1.511 . S
C805 C801 1.376 . S
C805 C804 1.392 . S
C805 H817 0.929 . S
C806 C802 1.531 . S
C806 H818 0.960 . S
C806 H819 0.962 . S
C806 H820 0.960 . S
C807 C804 1.511 . S
C807 H821 0.961 . S
C807 H822 0.961 . S
C807 H823 0.961 1_554 S
C808 C809 1.370 . S
C808 C810 1.363 . S
C808 H824 0.931 . S
C809 C808 1.370 . S
C809 C813 1.408 . S
C810 C808 1.363 . S
C810 C811 1.370 . S
C810 C814 1.524 . S
C811 C803 1.503 . S
C811 C810 1.370 . S
C811 C812 1.403 . S
C812 C811 1.403 . S
C812 C813 1.404 . S
C812 C815 1.539 . S
C813 C809 1.408 . S
C813 C812 1.404 . S
C813 H825 0.930 . S
C814 C810 1.524 . S
C814 H826 0.956 . S
C814 H827 0.961 . S
C814 H828 0.961 . S
C815 C812 1.539 . S
C815 H829 0.958 . S
C815 H830 0.961 . S
C815 H831 0.960 . S
H816 C800 0.931 . S
H817 C805 0.929 . S
H818 C806 0.960 . S
H819 C806 0.962 . S
H820 C806 0.960 . S
H821 C807 0.961 . S
H822 C807 0.961 . S
H823 C807 0.961 1_556 S
H824 C808 0.931 . S
H825 C813 0.930 . S
H826 C814 0.956 . S
H827 C814 0.961 . S
H828 C814 0.961 . S
H829 C815 0.958 . S
H830 C815 0.961 . S
H831 C815 0.960 . S
C832 C833 1.391 . S
C832 C834 1.394 . S
C832 H848 0.931 . S
C833 C832 1.391 . S
C833 C837 1.376 . S
C834 C832 1.394 . S
C834 C835 1.369 . S
C834 C838 1.531 . S
C835 C834 1.369 . S
C835 C836 1.410 . S
C835 C843 1.503 . S
C836 C835 1.410 . S
C836 C837 1.392 . S
C836 C839 1.511 . S
C837 C833 1.376 . S
C837 C836 1.392 . S
C837 H849 0.929 . S
C838 C834 1.531 . S
C838 H850 0.960 . S
C838 H851 0.962 . S
C838 H852 0.960 . S
C839 C836 1.511 . S
C839 H853 0.961 . S
C839 H854 0.961 . S
C839 H855 0.961 . S
C840 C841 1.370 . S
C840 C842 1.363 . S
C840 H856 0.931 . S
C841 C840 1.370 . S
C841 C845 1.408 . S
C842 C840 1.363 . S
C842 C843 1.370 . S
C842 C846 1.524 . S
C843 C835 1.503 . S
C843 C842 1.370 . S
C843 C844 1.403 . S
C844 C843 1.403 . S
C844 C845 1.404 . S
C844 C847 1.539 . S
C845 C841 1.408 . S
C845 C844 1.404 . S
C845 H857 0.930 . S
C846 C842 1.524 . S
C846 H858 0.956 . S
C846 H859 0.961 . S
C846 H860 0.961 . S
C847 C844 1.539 . S
C847 H861 0.958 1_556 S
C847 H862 0.961 . S
C847 H863 0.960 . S
H848 C832 0.931 . S
H849 C837 0.929 . S
H850 C838 0.960 . S
H851 C838 0.962 . S
H852 C838 0.960 . S
H853 C839 0.961 . S
H854 C839 0.961 . S
H855 C839 0.961 . S
H856 C840 0.931 . S
H857 C845 0.930 . S
H858 C846 0.956 . S
H859 C846 0.961 . S
H860 C846 0.961 . S
H861 C847 0.958 1_554 S
H862 C847 0.961 . S
H863 C847 0.960 . S
C864 C865 1.391 . S
C864 C866 1.394 . S
C864 H880 0.931 . S
C865 C864 1.391 . S
C865 C869 1.376 . S
C866 C864 1.394 . S
C866 C867 1.369 . S
C866 C870 1.531 . S
C867 C866 1.369 . S
C867 C868 1.410 . S
C867 C875 1.503 . S
C868 C867 1.410 . S
C868 C869 1.392 . S
C868 C871 1.511 . S
C869 C865 1.376 . S
C869 C868 1.392 . S
C869 H881 0.929 . S
C870 C866 1.531 . S
C870 H882 0.960 . S
C870 H883 0.962 . S
C870 H884 0.960 . S
C871 C868 1.511 . S
C871 H885 0.961 . S
C871 H886 0.961 . S
C871 H887 0.961 . S
C872 C873 1.370 . S
C872 C874 1.363 . S
C872 H888 0.931 . S
C873 C872 1.370 . S
C873 C877 1.408 . S
C874 C872 1.363 . S
C874 C875 1.370 . S
C874 C878 1.524 . S
C875 C867 1.503 . S
C875 C874 1.370 . S
C875 C876 1.403 . S
C876 C875 1.403 . S
C876 C877 1.404 . S
C876 C879 1.539 . S
C877 C873 1.408 . S
C877 C876 1.404 . S
C877 H889 0.930 . S
C878 C874 1.524 . S
C878 H890 0.956 . S
C878 H891 0.961 . S
C878 H892 0.961 . S
C879 C876 1.539 . S
C879 H893 0.958 1_554 S
C879 H894 0.961 1_554 S
C879 H895 0.960 . S
H880 C864 0.931 . S
H881 C869 0.929 . S
H882 C870 0.960 . S
H883 C870 0.962 . S
H884 C870 0.960 . S
H885 C871 0.961 . S
H886 C871 0.961 . S
H887 C871 0.961 . S
H888 C872 0.931 . S
H889 C877 0.930 . S
H890 C878 0.956 . S
H891 C878 0.961 . S
H892 C878 0.961 . S
H893 C879 0.958 1_556 S
H894 C879 0.961 1_556 S
H895 C879 0.960 . S
C896 C897 1.391 . S
C896 C898 1.394 . S
C896 H912 0.931 . S
C897 C896 1.391 . S
C897 C901 1.376 . S
C898 C896 1.394 . S
C898 C899 1.369 . S
C898 C902 1.531 . S
C899 C898 1.369 . S
C899 C900 1.410 . S
C899 C907 1.503 . S
C900 C899 1.410 . S
C900 C901 1.392 . S
C900 C903 1.511 . S
C901 C897 1.376 . S
C901 C900 1.392 . S
C901 H913 0.929 . S
C902 C898 1.531 . S
C902 H914 0.960 . S
C902 H915 0.962 . S
C902 H916 0.960 . S
C903 C900 1.511 . S
C903 H917 0.961 1_556 S
C903 H918 0.961 . S
C903 H919 0.961 . S
C904 C905 1.370 . S
C904 C906 1.363 . S
C904 H920 0.931 . S
C905 C904 1.370 . S
C905 C909 1.408 . S
C906 C904 1.363 . S
C906 C907 1.370 . S
C906 C910 1.524 . S
C907 C899 1.503 . S
C907 C906 1.370 . S
C907 C908 1.403 . S
C908 C907 1.403 . S
C908 C909 1.404 . S
C908 C911 1.539 . S
C909 C905 1.408 . S
C909 C908 1.404 . S
C909 H921 0.930 . S
C910 C906 1.524 . S
C910 H922 0.956 . S
C910 H923 0.961 . S
C910 H924 0.961 . S
C911 C908 1.539 . S
C911 H925 0.958 . S
C911 H926 0.961 . S
C911 H927 0.960 . S
H912 C896 0.931 . S
H913 C901 0.929 . S
H914 C902 0.960 . S
H915 C902 0.962 . S
H916 C902 0.960 . S
H917 C903 0.961 1_554 S
H918 C903 0.961 . S
H919 C903 0.961 . S
H920 C904 0.931 . S
H921 C909 0.930 . S
H922 C910 0.956 . S
H923 C910 0.961 . S
H924 C910 0.961 . S
H925 C911 0.958 . S
H926 C911 0.961 . S
H927 C911 0.960 . S
C928 C929 1.391 . S
C928 C930 1.394 . S
C928 H944 0.931 . S
C929 C928 1.391 . S
C929 C933 1.376 . S
C930 C928 1.394 . S
C930 C931 1.369 . S
C930 C934 1.531 . S
C931 C930 1.369 . S
C931 C932 1.410 . S
C931 C939 1.503 . S
C932 C931 1.410 . S
C932 C933 1.392 . S
C932 C935 1.511 . S
C933 C929 1.376 . S
C933 C932 1.392 . S
C933 H945 0.929 . S
C934 C930 1.531 . S
C934 H946 0.960 . S
C934 H947 0.962 . S
C934 H948 0.960 . S
C935 C932 1.511 . S
C935 H949 0.961 . S
C935 H950 0.961 . S
C935 H951 0.961 . S
C936 C937 1.370 . S
C936 C938 1.363 . S
C936 H952 0.931 . S
C937 C936 1.370 . S
C937 C941 1.408 . S
C938 C936 1.363 . S
C938 C939 1.370 . S
C938 C942 1.524 . S
C939 C931 1.503 . S
C939 C938 1.370 . S
C939 C940 1.403 . S
C940 C939 1.403 . S
C940 C941 1.404 . S
C940 C943 1.539 . S
C941 C937 1.408 . S
C941 C940 1.404 . S
C941 H953 0.930 . S
C942 C938 1.524 . S
C942 H954 0.956 . S
C942 H955 0.961 . S
C942 H956 0.961 . S
C943 C940 1.539 . S
C943 H957 0.958 . S
C943 H958 0.961 . S
C943 H959 0.960 . S
H944 C928 0.931 . S
H945 C933 0.929 . S
H946 C934 0.960 . S
H947 C934 0.962 . S
H948 C934 0.960 . S
H949 C935 0.961 . S
H950 C935 0.961 . S
H951 C935 0.961 . S
H952 C936 0.931 . S
H953 C941 0.930 . S
H954 C942 0.956 . S
H955 C942 0.961 . S
H956 C942 0.961 . S
H957 C943 0.958 . S
H958 C943 0.961 . S
H959 C943 0.960 . S
C960 C961 1.391 . S
C960 C962 1.394 . S
C960 H976 0.931 . S
C961 C960 1.391 . S
C961 C965 1.376 . S
C962 C960 1.394 . S
C962 C963 1.369 . S
C962 C966 1.531 . S
C963 C962 1.369 . S
C963 C964 1.410 . S
C963 C971 1.503 . S
C964 C963 1.410 . S
C964 C965 1.392 . S
C964 C967 1.511 . S
C965 C961 1.376 . S
C965 C964 1.392 . S
C965 H977 0.929 . S
C966 C962 1.531 . S
C966 H978 0.960 . S
C966 H979 0.962 . S
C966 H980 0.960 . S
C967 C964 1.511 . S
C967 H981 0.961 . S
C967 H982 0.961 . S
C967 H983 0.961 . S
C968 C969 1.370 . S
C968 C970 1.363 . S
C968 H984 0.931 . S
C969 C968 1.370 . S
C969 C973 1.408 . S
C970 C968 1.363 . S
C970 C971 1.370 . S
C970 C974 1.524 . S
C971 C963 1.503 . S
C971 C970 1.370 . S
C971 C972 1.403 . S
C972 C971 1.403 . S
C972 C973 1.404 . S
C972 C975 1.539 . S
C973 C969 1.408 . S
C973 C972 1.404 . S
C973 H985 0.930 . S
C974 C970 1.524 . S
C974 H986 0.956 . S
C974 H987 0.961 . S
C974 H988 0.961 . S
C975 C972 1.539 . S
C975 H989 0.958 . S
C975 H990 0.961 . S
C975 H991 0.960 . S
H976 C960 0.931 . S
H977 C965 0.929 . S
H978 C966 0.960 . S
H979 C966 0.962 . S
H980 C966 0.960 . S
H981 C967 0.961 . S
H982 C967 0.961 . S
H983 C967 0.961 . S
H984 C968 0.931 . S
H985 C973 0.930 . S
H986 C974 0.956 . S
H987 C974 0.961 . S
H988 C974 0.961 . S
H989 C975 0.958 . S
H990 C975 0.961 . S
H991 C975 0.960 . S
C992 C993 1.391 . S
C992 C994 1.394 . S
C992 H1008 0.931 . S
C993 C992 1.391 . S
C993 C997 1.376 . S
C994 C992 1.394 . S
C994 C995 1.369 . S
C994 C998 1.531 . S
C995 C994 1.369 . S
C995 C996 1.410 . S
C995 C1003 1.503 . S
C996 C995 1.410 . S
C996 C997 1.392 . S
C996 C999 1.511 . S
C997 C993 1.376 . S
C997 C996 1.392 . S
C997 H1009 0.929 . S
C998 C994 1.531 . S
C998 H1010 0.960 . S
C998 H1011 0.962 . S
C998 H1012 0.960 . S
C999 C996 1.511 . S
C999 H1013 0.961 . S
C999 H1014 0.961 . S
C999 H1015 0.961 . S
C1000 C1001 1.370 . S
C1000 C1002 1.363 . S
C1000 H1016 0.931 . S
C1001 C1000 1.370 . S
C1001 C1005 1.408 . S
C1002 C1000 1.363 . S
C1002 C1003 1.370 . S
C1002 C1006 1.524 . S
C1003 C995 1.503 . S
C1003 C1002 1.370 . S
C1003 C1004 1.403 . S
C1004 C1003 1.403 . S
C1004 C1005 1.404 . S
C1004 C1007 1.539 . S
C1005 C1001 1.408 . S
C1005 C1004 1.404 . S
C1005 H1017 0.930 . S
C1006 C1002 1.524 . S
C1006 H1018 0.956 . S
C1006 H1019 0.961 . S
C1006 H1020 0.961 . S
C1007 C1004 1.539 . S
C1007 H1021 0.958 . S
C1007 H1022 0.961 . S
C1007 H1023 0.960 . S
H1008 C992 0.931 . S
H1009 C997 0.929 . S
H1010 C998 0.960 . S
H1011 C998 0.962 . S
H1012 C998 0.960 . S
H1013 C999 0.961 . S
H1014 C999 0.961 . S
H1015 C999 0.961 . S
H1016 C1000 0.931 . S
H1017 C1005 0.930 . S
H1018 C1006 0.956 . S
H1019 C1006 0.961 . S
H1020 C1006 0.961 . S
H1021 C1007 0.958 . S
H1022 C1007 0.961 . S
H1023 C1007 0.960 . S
C1024 C1025 1.391 . S
C1024 C1026 1.394 . S
C1024 H1040 0.931 . S
C1025 C1024 1.391 . S
C1025 C1029 1.376 . S
C1026 C1024 1.394 . S
C1026 C1027 1.369 . S
C1026 C1030 1.531 . S
C1027 C1026 1.369 . S
C1027 C1028 1.410 . S
C1027 C1035 1.503 . S
C1028 C1027 1.410 . S
C1028 C1029 1.392 . S
C1028 C1031 1.511 . S
C1029 C1025 1.376 . S
C1029 C1028 1.392 . S
C1029 H1041 0.929 . S
C1030 C1026 1.531 . S
C1030 H1042 0.960 . S
C1030 H1043 0.962 . S
C1030 H1044 0.960 . S
C1031 C1028 1.511 . S
C1031 H1045 0.961 . S
C1031 H1046 0.961 . S
C1031 H1047 0.961 . S
C1032 C1033 1.370 . S
C1032 C1034 1.363 . S
C1032 H1048 0.931 . S
C1033 C1032 1.370 . S
C1033 C1037 1.408 . S
C1034 C1032 1.363 . S
C1034 C1035 1.370 . S
C1034 C1038 1.524 . S
C1035 C1027 1.503 . S
C1035 C1034 1.370 . S
C1035 C1036 1.403 . S
C1036 C1035 1.403 . S
C1036 C1037 1.404 . S
C1036 C1039 1.539 . S
C1037 C1033 1.408 . S
C1037 C1036 1.404 . S
C1037 H1049 0.930 . S
C1038 C1034 1.524 . S
C1038 H1050 0.956 . S
C1038 H1051 0.961 . S
C1038 H1052 0.961 . S
C1039 C1036 1.539 . S
C1039 H1053 0.958 . S
C1039 H1054 0.961 . S
C1039 H1055 0.960 . S
H1040 C1024 0.931 . S
H1041 C1029 0.929 . S
H1042 C1030 0.960 . S
H1043 C1030 0.962 . S
H1044 C1030 0.960 . S
H1045 C1031 0.961 . S
H1046 C1031 0.961 . S
H1047 C1031 0.961 . S
H1048 C1032 0.931 . S
H1049 C1037 0.930 . S
H1050 C1038 0.956 . S
H1051 C1038 0.961 . S
H1052 C1038 0.961 . S
H1053 C1039 0.958 . S
H1054 C1039 0.961 . S
H1055 C1039 0.960 . S
C1056 C1057 1.391 . S
C1056 C1058 1.394 . S
C1056 H1072 0.931 1_556 S
C1057 C1056 1.391 . S
C1057 C1061 1.376 . S
C1058 C1056 1.394 . S
C1058 C1059 1.369 . S
C1058 C1062 1.531 . S
C1059 C1058 1.369 . S
C1059 C1060 1.410 . S
C1059 C1067 1.503 . S
C1060 C1059 1.410 . S
C1060 C1061 1.392 . S
C1060 C1063 1.511 . S
C1061 C1057 1.376 . S
C1061 C1060 1.392 . S
C1061 H1073 0.929 . S
C1062 C1058 1.531 . S
C1062 H1074 0.960 . S
C1062 H1075 0.962 . S
C1062 H1076 0.960 . S
C1063 C1060 1.511 . S
C1063 H1077 0.961 . S
C1063 H1078 0.961 . S
C1063 H1079 0.961 . S
C1064 C1065 1.370 . S
C1064 C1066 1.363 . S
C1064 H1080 0.931 . S
C1065 C1064 1.370 . S
C1065 C1069 1.408 . S
C1066 C1064 1.363 . S
C1066 C1067 1.370 . S
C1066 C1070 1.524 . S
C1067 C1059 1.503 . S
C1067 C1066 1.370 . S
C1067 C1068 1.403 . S
C1068 C1067 1.403 . S
C1068 C1069 1.404 . S
C1068 C1071 1.539 . S
C1069 C1065 1.408 . S
C1069 C1068 1.404 . S
C1069 H1081 0.930 . S
C1070 C1066 1.524 . S
C1070 H1082 0.956 . S
C1070 H1083 0.961 . S
C1070 H1084 0.961 . S
C1071 C1068 1.539 . S
C1071 H1085 0.958 . S
C1071 H1086 0.961 . S
C1071 H1087 0.960 . S
H1072 C1056 0.931 1_554 S
H1073 C1061 0.929 . S
H1074 C1062 0.960 . S
H1075 C1062 0.962 . S
H1076 C1062 0.960 . S
H1077 C1063 0.961 . S
H1078 C1063 0.961 . S
H1079 C1063 0.961 . S
H1080 C1064 0.931 . S
H1081 C1069 0.930 . S
H1082 C1070 0.956 . S
H1083 C1070 0.961 . S
H1084 C1070 0.961 . S
H1085 C1071 0.958 . S
H1086 C1071 0.961 . S
H1087 C1071 0.960 . S
C1088 C1089 1.391 . S
C1088 C1090 1.394 . S
C1088 H1104 0.931 . S
C1089 C1088 1.391 . S
C1089 C1093 1.376 . S
C1090 C1088 1.394 . S
C1090 C1091 1.369 . S
C1090 C1094 1.531 . S
C1091 C1090 1.369 . S
C1091 C1092 1.410 . S
C1091 C1099 1.503 . S
C1092 C1091 1.410 . S
C1092 C1093 1.392 . S
C1092 C1095 1.511 . S
C1093 C1089 1.376 . S
C1093 C1092 1.392 . S
C1093 H1105 0.929 . S
C1094 C1090 1.531 . S
C1094 H1106 0.960 . S
C1094 H1107 0.962 . S
C1094 H1108 0.960 . S
C1095 C1092 1.511 . S
C1095 H1109 0.961 . S
C1095 H1110 0.961 . S
C1095 H1111 0.961 . S
C1096 C1097 1.370 . S
C1096 C1098 1.363 . S
C1096 H1112 0.931 1_554 S
C1097 C1096 1.370 . S
C1097 C1101 1.408 . S
C1098 C1096 1.363 . S
C1098 C1099 1.370 . S
C1098 C1102 1.524 . S
C1099 C1091 1.503 . S
C1099 C1098 1.370 . S
C1099 C1100 1.403 . S
C1100 C1099 1.403 . S
C1100 C1101 1.404 . S
C1100 C1103 1.539 . S
C1101 C1097 1.408 . S
C1101 C1100 1.404 . S
C1101 H1113 0.930 . S
C1102 C1098 1.524 . S
C1102 H1114 0.956 . S
C1102 H1115 0.961 . S
C1102 H1116 0.961 1_554 S
C1103 C1100 1.539 . S
C1103 H1117 0.958 . S
C1103 H1118 0.961 . S
C1103 H1119 0.960 . S
H1104 C1088 0.931 . S
H1105 C1093 0.929 . S
H1106 C1094 0.960 . S
H1107 C1094 0.962 . S
H1108 C1094 0.960 . S
H1109 C1095 0.961 . S
H1110 C1095 0.961 . S
H1111 C1095 0.961 . S
H1112 C1096 0.931 1_556 S
H1113 C1101 0.930 . S
H1114 C1102 0.956 . S
H1115 C1102 0.961 . S
H1116 C1102 0.961 1_556 S
H1117 C1103 0.958 . S
H1118 C1103 0.961 . S
H1119 C1103 0.960 . S
C1120 C1121 1.391 1_554 S
C1120 C1122 1.394 1_554 S
C1120 H1136 0.931 . S
C1121 C1120 1.391 1_556 S
C1121 C1125 1.376 . S
C1122 C1120 1.394 1_556 S
C1122 C1123 1.369 . S
C1122 C1126 1.531 . S
C1123 C1122 1.369 . S
C1123 C1124 1.410 . S
C1123 C1131 1.503 . S
C1124 C1123 1.410 . S
C1124 C1125 1.392 . S
C1124 C1127 1.511 . S
C1125 C1121 1.376 . S
C1125 C1124 1.392 . S
C1125 H1137 0.929 . S
C1126 C1122 1.531 . S
C1126 H1138 0.960 . S
C1126 H1139 0.962 . S
C1126 H1140 0.960 1_556 S
C1127 C1124 1.511 . S
C1127 H1141 0.961 . S
C1127 H1142 0.961 . S
C1127 H1143 0.961 . S
C1128 C1129 1.370 . S
C1128 C1130 1.363 . S
C1128 H1144 0.931 . S
C1129 C1128 1.370 . S
C1129 C1133 1.408 . S
C1130 C1128 1.363 . S
C1130 C1131 1.370 . S
C1130 C1134 1.524 . S
C1131 C1123 1.503 . S
C1131 C1130 1.370 . S
C1131 C1132 1.403 . S
C1132 C1131 1.403 . S
C1132 C1133 1.404 . S
C1132 C1135 1.539 . S
C1133 C1129 1.408 . S
C1133 C1132 1.404 . S
C1133 H1145 0.930 . S
C1134 C1130 1.524 . S
C1134 H1146 0.956 . S
C1134 H1147 0.961 . S
C1134 H1148 0.961 . S
C1135 C1132 1.539 . S
C1135 H1149 0.958 . S
C1135 H1150 0.961 . S
C1135 H1151 0.960 . S
H1136 C1120 0.931 . S
H1137 C1125 0.929 . S
H1138 C1126 0.960 . S
H1139 C1126 0.962 . S
H1140 C1126 0.960 1_554 S
H1141 C1127 0.961 . S
H1142 C1127 0.961 . S
H1143 C1127 0.961 . S
H1144 C1128 0.931 . S
H1145 C1133 0.930 . S
H1146 C1134 0.956 . S
H1147 C1134 0.961 . S
H1148 C1134 0.961 . S
H1149 C1135 0.958 . S
H1150 C1135 0.961 . S
H1151 C1135 0.960 . S
C1152 C1153 1.391 . S
C1152 C1154 1.394 . S
C1152 H1168 0.931 . S
C1153 C1152 1.391 . S
C1153 C1157 1.376 . S
C1154 C1152 1.394 . S
C1154 C1155 1.369 . S
C1154 C1158 1.531 . S
C1155 C1154 1.369 . S
C1155 C1156 1.410 . S
C1155 C1163 1.503 . S
C1156 C1155 1.410 . S
C1156 C1157 1.392 . S
C1156 C1159 1.511 . S
C1157 C1153 1.376 . S
C1157 C1156 1.392 . S
C1157 H1169 0.929 . S
C1158 C1154 1.531 . S
C1158 H1170 0.960 . S
C1158 H1171 0.962 . S
C1158 H1172 0.960 . S
C1159 C1156 1.511 . S
C1159 H1173 0.961 . S
C1159 H1174 0.961 . S
C1159 H1175 0.961 . S
C1160 C1161 1.370 . S
C1160 C1162 1.363 . S
C1160 H1176 0.931 1_554 S
C1161 C1160 1.370 . S
C1161 C1165 1.408 . S
C1162 C1160 1.363 . S
C1162 C1163 1.370 . S
C1162 C1166 1.524 . S
C1163 C1155 1.503 . S
C1163 C1162 1.370 . S
C1163 C1164 1.403 . S
C1164 C1163 1.403 . S
C1164 C1165 1.404 . S
C1164 C1167 1.539 . S
C1165 C1161 1.408 . S
C1165 C1164 1.404 . S
C1165 H1177 0.930 . S
C1166 C1162 1.524 . S
C1166 H1178 0.956 . S
C1166 H1179 0.961 . S
C1166 H1180 0.961 . S
C1167 C1164 1.539 . S
C1167 H1181 0.958 . S
C1167 H1182 0.961 . S
C1167 H1183 0.960 . S
H1168 C1152 0.931 . S
H1169 C1157 0.929 . S
H1170 C1158 0.960 . S
H1171 C1158 0.962 . S
H1172 C1158 0.960 . S
H1173 C1159 0.961 . S
H1174 C1159 0.961 . S
H1175 C1159 0.961 . S
H1176 C1160 0.931 1_556 S
H1177 C1165 0.930 . S
H1178 C1166 0.956 . S
H1179 C1166 0.961 . S
H1180 C1166 0.961 . S
H1181 C1167 0.958 . S
H1182 C1167 0.961 . S
H1183 C1167 0.960 . S
C1184 C1185 1.391 . S
C1184 C1186 1.394 . S
C1184 H1200 0.931 . S
C1185 C1184 1.391 . S
C1185 C1189 1.376 . S
C1186 C1184 1.394 . S
C1186 C1187 1.369 . S
C1186 C1190 1.531 . S
C1187 C1186 1.369 . S
C1187 C1188 1.410 . S
C1187 C1195 1.503 . S
C1188 C1187 1.410 . S
C1188 C1189 1.392 . S
C1188 C1191 1.511 . S
C1189 C1185 1.376 . S
C1189 C1188 1.392 . S
C1189 H1201 0.929 . S
C1190 C1186 1.531 . S
C1190 H1202 0.960 . S
C1190 H1203 0.962 . S
C1190 H1204 0.960 . S
C1191 C1188 1.511 . S
C1191 H1205 0.961 . S
C1191 H1206 0.961 . S
C1191 H1207 0.961 . S
C1192 C1193 1.370 . S
C1192 C1194 1.363 . S
C1192 H1208 0.931 . S
C1193 C1192 1.370 . S
C1193 C1197 1.408 . S
C1194 C1192 1.363 . S
C1194 C1195 1.370 . S
C1194 C1198 1.524 . S
C1195 C1187 1.503 . S
C1195 C1194 1.370 . S
C1195 C1196 1.403 . S
C1196 C1195 1.403 . S
C1196 C1197 1.404 . S
C1196 C1199 1.539 . S
C1197 C1193 1.408 . S
C1197 C1196 1.404 . S
C1197 H1209 0.930 . S
C1198 C1194 1.524 . S
C1198 H1210 0.956 . S
C1198 H1211 0.961 . S
C1198 H1212 0.961 . S
C1199 C1196 1.539 . S
C1199 H1213 0.958 . S
C1199 H1214 0.961 . S
C1199 H1215 0.960 . S
H1200 C1184 0.931 . S
H1201 C1189 0.929 . S
H1202 C1190 0.960 . S
H1203 C1190 0.962 . S
H1204 C1190 0.960 . S
H1205 C1191 0.961 . S
H1206 C1191 0.961 . S
H1207 C1191 0.961 . S
H1208 C1192 0.931 . S
H1209 C1197 0.930 . S
H1210 C1198 0.956 . S
H1211 C1198 0.961 . S
H1212 C1198 0.961 . S
H1213 C1199 0.958 . S
H1214 C1199 0.961 . S
H1215 C1199 0.960 . S
C1216 C1217 1.391 . S
C1216 C1218 1.394 . S
C1216 H1232 0.931 . S
C1217 C1216 1.391 . S
C1217 C1221 1.376 . S
C1218 C1216 1.394 . S
C1218 C1219 1.369 . S
C1218 C1222 1.531 . S
C1219 C1218 1.369 . S
C1219 C1220 1.410 . S
C1219 C1227 1.503 . S
C1220 C1219 1.410 . S
C1220 C1221 1.392 . S
C1220 C1223 1.511 . S
C1221 C1217 1.376 . S
C1221 C1220 1.392 . S
C1221 H1233 0.929 . S
C1222 C1218 1.531 . S
C1222 H1234 0.960 . S
C1222 H1235 0.962 . S
C1222 H1236 0.960 . S
C1223 C1220 1.511 . S
C1223 H1237 0.961 . S
C1223 H1238 0.961 . S
C1223 H1239 0.961 . S
C1224 C1225 1.370 . S
C1224 C1226 1.363 . S
C1224 H1240 0.931 . S
C1225 C1224 1.370 . S
C1225 C1229 1.408 . S
C1226 C1224 1.363 . S
C1226 C1227 1.370 . S
C1226 C1230 1.524 . S
C1227 C1219 1.503 . S
C1227 C1226 1.370 . S
C1227 C1228 1.403 . S
C1228 C1227 1.403 . S
C1228 C1229 1.404 . S
C1228 C1231 1.539 . S
C1229 C1225 1.408 . S
C1229 C1228 1.404 . S
C1229 H1241 0.930 . S
C1230 C1226 1.524 . S
C1230 H1242 0.956 . S
C1230 H1243 0.961 . S
C1230 H1244 0.961 . S
C1231 C1228 1.539 . S
C1231 H1245 0.958 . S
C1231 H1246 0.961 . S
C1231 H1247 0.960 . S
H1232 C1216 0.931 . S
H1233 C1221 0.929 . S
H1234 C1222 0.960 . S
H1235 C1222 0.962 . S
H1236 C1222 0.960 . S
H1237 C1223 0.961 . S
H1238 C1223 0.961 . S
H1239 C1223 0.961 . S
H1240 C1224 0.931 . S
H1241 C1229 0.930 . S
H1242 C1230 0.956 . S
H1243 C1230 0.961 . S
H1244 C1230 0.961 . S
H1245 C1231 0.958 . S
H1246 C1231 0.961 . S
H1247 C1231 0.960 . S
C1248 C1249 1.391 . S
C1248 C1250 1.394 . S
C1248 H1264 0.931 . S
C1249 C1248 1.391 . S
C1249 C1253 1.376 . S
C1250 C1248 1.394 . S
C1250 C1251 1.369 . S
C1250 C1254 1.531 . S
C1251 C1250 1.369 . S
C1251 C1252 1.410 . S
C1251 C1259 1.503 . S
C1252 C1251 1.410 . S
C1252 C1253 1.392 . S
C1252 C1255 1.511 . S
C1253 C1249 1.376 . S
C1253 C1252 1.392 . S
C1253 H1265 0.929 . S
C1254 C1250 1.531 . S
C1254 H1266 0.960 . S
C1254 H1267 0.962 . S
C1254 H1268 0.960 . S
C1255 C1252 1.511 . S
C1255 H1269 0.961 . S
C1255 H1270 0.961 . S
C1255 H1271 0.961 . S
C1256 C1257 1.370 . S
C1256 C1258 1.363 . S
C1256 H1272 0.931 . S
C1257 C1256 1.370 . S
C1257 C1261 1.408 . S
C1258 C1256 1.363 . S
C1258 C1259 1.370 . S
C1258 C1262 1.524 . S
C1259 C1251 1.503 . S
C1259 C1258 1.370 . S
C1259 C1260 1.403 . S
C1260 C1259 1.403 . S
C1260 C1261 1.404 . S
C1260 C1263 1.539 . S
C1261 C1257 1.408 . S
C1261 C1260 1.404 . S
C1261 H1273 0.930 . S
C1262 C1258 1.524 . S
C1262 H1274 0.956 . S
C1262 H1275 0.961 . S
C1262 H1276 0.961 . S
C1263 C1260 1.539 . S
C1263 H1277 0.958 . S
C1263 H1278 0.961 . S
C1263 H1279 0.960 . S
H1264 C1248 0.931 . S
H1265 C1253 0.929 . S
H1266 C1254 0.960 . S
H1267 C1254 0.962 . S
H1268 C1254 0.960 . S
H1269 C1255 0.961 . S
H1270 C1255 0.961 . S
H1271 C1255 0.961 . S
H1272 C1256 0.931 . S
H1273 C1261 0.930 . S
H1274 C1262 0.956 . S
H1275 C1262 0.961 . S
H1276 C1262 0.961 . S
H1277 C1263 0.958 . S
H1278 C1263 0.961 . S
H1279 C1263 0.960 . S
C1280 C1281 1.391 . S
C1280 C1282 1.394 . S
C1280 H1296 0.931 . S
C1281 C1280 1.391 . S
C1281 C1285 1.376 . S
C1282 C1280 1.394 . S
C1282 C1283 1.369 . S
C1282 C1286 1.531 . S
C1283 C1282 1.369 . S
C1283 C1284 1.410 . S
C1283 C1291 1.503 . S
C1284 C1283 1.410 . S
C1284 C1285 1.392 . S
C1284 C1287 1.511 . S
C1285 C1281 1.376 . S
C1285 C1284 1.392 . S
C1285 H1297 0.929 . S
C1286 C1282 1.531 . S
C1286 H1298 0.960 . S
C1286 H1299 0.962 . S
C1286 H1300 0.960 . S
C1287 C1284 1.511 . S
C1287 H1301 0.961 . S
C1287 H1302 0.961 . S
C1287 H1303 0.961 . S
C1288 C1289 1.370 . S
C1288 C1290 1.363 . S
C1288 H1304 0.931 . S
C1289 C1288 1.370 . S
C1289 C1293 1.408 . S
C1290 C1288 1.363 . S
C1290 C1291 1.370 . S
C1290 C1294 1.524 . S
C1291 C1283 1.503 . S
C1291 C1290 1.370 . S
C1291 C1292 1.403 . S
C1292 C1291 1.403 . S
C1292 C1293 1.404 . S
C1292 C1295 1.539 . S
C1293 C1289 1.408 . S
C1293 C1292 1.404 . S
C1293 H1305 0.930 . S
C1294 C1290 1.524 . S
C1294 H1306 0.956 . S
C1294 H1307 0.961 . S
C1294 H1308 0.961 . S
C1295 C1292 1.539 . S
C1295 H1309 0.958 . S
C1295 H1310 0.961 . S
C1295 H1311 0.960 . S
H1296 C1280 0.931 . S
H1297 C1285 0.929 . S
H1298 C1286 0.960 . S
H1299 C1286 0.962 . S
H1300 C1286 0.960 . S
H1301 C1287 0.961 . S
H1302 C1287 0.961 . S
H1303 C1287 0.961 . S
H1304 C1288 0.931 . S
H1305 C1293 0.930 . S
H1306 C1294 0.956 . S
H1307 C1294 0.961 . S
H1308 C1294 0.961 . S
H1309 C1295 0.958 . S
H1310 C1295 0.961 . S
H1311 C1295 0.960 . S
C1312 C1313 1.391 1_565 S
C1312 C1314 1.394 . S
C1312 H1328 0.931 . S
C1313 C1312 1.391 1_545 S
C1313 C1317 1.376 . S
C1314 C1312 1.394 . S
C1314 C1315 1.369 . S
C1314 C1318 1.531 . S
C1315 C1314 1.369 . S
C1315 C1316 1.410 . S
C1315 C1323 1.503 . S
C1316 C1315 1.410 . S
C1316 C1317 1.392 1_565 S
C1316 C1319 1.511 . S
C1317 C1313 1.376 . S
C1317 C1316 1.392 1_545 S
C1317 H1329 0.929 . S
C1318 C1314 1.531 . S
C1318 H1330 0.960 . S
C1318 H1331 0.962 . S
C1318 H1332 0.960 . S
C1319 C1316 1.511 . S
C1319 H1333 0.961 . S
C1319 H1334 0.961 . S
C1319 H1335 0.961 . S
C1320 C1321 1.370 . S
C1320 C1322 1.363 . S
C1320 H1336 0.931 . S
C1321 C1320 1.370 . S
C1321 C1325 1.408 . S
C1322 C1320 1.363 . S
C1322 C1323 1.370 . S
C1322 C1326 1.524 . S
C1323 C1315 1.503 . S
C1323 C1322 1.370 . S
C1323 C1324 1.403 . S
C1324 C1323 1.403 . S
C1324 C1325 1.404 . S
C1324 C1327 1.539 . S
C1325 C1321 1.408 . S
C1325 C1324 1.404 . S
C1325 H1337 0.930 . S
C1326 C1322 1.524 . S
C1326 H1338 0.956 . S
C1326 H1339 0.961 . S
C1326 H1340 0.961 . S
C1327 C1324 1.539 . S
C1327 H1341 0.958 . S
C1327 H1342 0.961 . S
C1327 H1343 0.960 . S
H1328 C1312 0.931 . S
H1329 C1317 0.929 . S
H1330 C1318 0.960 . S
H1331 C1318 0.962 . S
H1332 C1318 0.960 . S
H1333 C1319 0.961 . S
H1334 C1319 0.961 . S
H1335 C1319 0.961 . S
H1336 C1320 0.931 . S
H1337 C1325 0.930 . S
H1338 C1326 0.956 . S
H1339 C1326 0.961 . S
H1340 C1326 0.961 . S
H1341 C1327 0.958 . S
H1342 C1327 0.961 . S
H1343 C1327 0.960 . S
C1344 C1345 1.391 . S
C1344 C1346 1.394 . S
C1344 H1360 0.931 . S
C1345 C1344 1.391 . S
C1345 C1349 1.376 . S
C1346 C1344 1.394 . S
C1346 C1347 1.369 . S
C1346 C1350 1.531 . S
C1347 C1346 1.369 . S
C1347 C1348 1.410 . S
C1347 C1355 1.503 . S
C1348 C1347 1.410 . S
C1348 C1349 1.392 . S
C1348 C1351 1.511 . S
C1349 C1345 1.376 . S
C1349 C1348 1.392 . S
C1349 H1361 0.929 . S
C1350 C1346 1.531 . S
C1350 H1362 0.960 . S
C1350 H1363 0.962 . S
C1350 H1364 0.960 . S
C1351 C1348 1.511 . S
C1351 H1365 0.961 . S
C1351 H1366 0.961 . S
C1351 H1367 0.961 . S
C1352 C1353 1.370 1_655 S
C1352 C1354 1.363 . S
C1352 H1368 0.931 1_655 S
C1353 C1352 1.370 1_455 S
C1353 C1357 1.408 1_455 S
C1354 C1352 1.363 . S
C1354 C1355 1.370 . S
C1354 C1358 1.524 . S
C1355 C1347 1.503 . S
C1355 C1354 1.370 . S
C1355 C1356 1.403 . S
C1356 C1355 1.403 . S
C1356 C1357 1.404 . S
C1356 C1359 1.539 . S
C1357 C1353 1.408 1_655 S
C1357 C1356 1.404 . S
C1357 H1369 0.930 1_655 S
C1358 C1354 1.524 . S
C1358 H1370 0.956 . S
C1358 H1371 0.961 . S
C1358 H1372 0.961 . S
C1359 C1356 1.539 . S
C1359 H1373 0.958 . S
C1359 H1374 0.961 . S
C1359 H1375 0.960 . S
H1360 C1344 0.931 . S
H1361 C1349 0.929 . S
H1362 C1350 0.960 . S
H1363 C1350 0.962 . S
H1364 C1350 0.960 . S
H1365 C1351 0.961 . S
H1366 C1351 0.961 . S
H1367 C1351 0.961 . S
H1368 C1352 0.931 1_455 S
H1369 C1357 0.930 1_455 S
H1370 C1358 0.956 . S
H1371 C1358 0.961 . S
H1372 C1358 0.961 . S
H1373 C1359 0.958 . S
H1374 C1359 0.961 . S
H1375 C1359 0.960 . S
C1376 C1377 1.391 . S
C1376 C1378 1.394 1_565 S
C1376 H1392 0.931 . S
C1377 C1376 1.391 . S
C1377 C1381 1.376 1_565 S
C1378 C1376 1.394 1_545 S
C1378 C1379 1.369 . S
C1378 C1382 1.531 . S
C1379 C1378 1.369 . S
C1379 C1380 1.410 . S
C1379 C1387 1.503 . S
C1380 C1379 1.410 . S
C1380 C1381 1.392 . S
C1380 C1383 1.511 . S
C1381 C1377 1.376 1_545 S
C1381 C1380 1.392 . S
C1381 H1393 0.929 . S
C1382 C1378 1.531 . S
C1382 H1394 0.960 . S
C1382 H1395 0.962 . S
C1382 H1396 0.960 . S
C1383 C1380 1.511 . S
C1383 H1397 0.961 . S
C1383 H1398 0.961 . S
C1383 H1399 0.961 . S
C1384 C1385 1.370 . S
C1384 C1386 1.363 . S
C1384 H1400 0.931 . S
C1385 C1384 1.370 . S
C1385 C1389 1.408 . S
C1386 C1384 1.363 . S
C1386 C1387 1.370 . S
C1386 C1390 1.524 . S
C1387 C1379 1.503 . S
C1387 C1386 1.370 . S
C1387 C1388 1.403 . S
C1388 C1387 1.403 . S
C1388 C1389 1.404 . S
C1388 C1391 1.539 . S
C1389 C1385 1.408 . S
C1389 C1388 1.404 . S
C1389 H1401 0.930 . S
C1390 C1386 1.524 . S
C1390 H1402 0.956 . S
C1390 H1403 0.961 . S
C1390 H1404 0.961 . S
C1391 C1388 1.539 . S
C1391 H1405 0.958 . S
C1391 H1406 0.961 . S
C1391 H1407 0.960 . S
H1392 C1376 0.931 . S
H1393 C1381 0.929 . S
H1394 C1382 0.960 . S
H1395 C1382 0.962 . S
H1396 C1382 0.960 . S
H1397 C1383 0.961 . S
H1398 C1383 0.961 . S
H1399 C1383 0.961 . S
H1400 C1384 0.931 . S
H1401 C1389 0.930 . S
H1402 C1390 0.956 . S
H1403 C1390 0.961 . S
H1404 C1390 0.961 . S
H1405 C1391 0.958 . S
H1406 C1391 0.961 . S
H1407 C1391 0.960 . S
C1408 C1409 1.391 . S
C1408 C1410 1.394 . S
C1408 H1424 0.931 . S
C1409 C1408 1.391 . S
C1409 C1413 1.376 . S
C1410 C1408 1.394 . S
C1410 C1411 1.369 . S
C1410 C1414 1.531 . S
C1411 C1410 1.369 . S
C1411 C1412 1.410 . S
C1411 C1419 1.503 . S
C1412 C1411 1.410 . S
C1412 C1413 1.392 . S
C1412 C1415 1.511 . S
C1413 C1409 1.376 . S
C1413 C1412 1.392 . S
C1413 H1425 0.929 . S
C1414 C1410 1.531 . S
C1414 H1426 0.960 . S
C1414 H1427 0.962 . S
C1414 H1428 0.960 . S
C1415 C1412 1.511 . S
C1415 H1429 0.961 . S
C1415 H1430 0.961 . S
C1415 H1431 0.961 . S
C1416 C1417 1.370 1_455 S
C1416 C1418 1.363 . S
C1416 H1432 0.931 . S
C1417 C1416 1.370 1_655 S
C1417 C1421 1.408 . S
C1418 C1416 1.363 . S
C1418 C1419 1.370 . S
C1418 C1422 1.524 . S
C1419 C1411 1.503 . S
C1419 C1418 1.370 . S
C1419 C1420 1.403 . S
C1420 C1419 1.403 . S
C1420 C1421 1.404 1_455 S
C1420 C1423 1.539 . S
C1421 C1417 1.408 . S
C1421 C1420 1.404 1_655 S
C1421 H1433 0.930 . S
C1422 C1418 1.524 . S
C1422 H1434 0.956 . S
C1422 H1435 0.961 . S
C1422 H1436 0.961 . S
C1423 C1420 1.539 . S
C1423 H1437 0.958 . S
C1423 H1438 0.961 . S
C1423 H1439 0.960 . S
H1424 C1408 0.931 . S
H1425 C1413 0.929 . S
H1426 C1414 0.960 . S
H1427 C1414 0.962 . S
H1428 C1414 0.960 . S
H1429 C1415 0.961 . S
H1430 C1415 0.961 . S
H1431 C1415 0.961 . S
H1432 C1416 0.931 . S
H1433 C1421 0.930 . S
H1434 C1422 0.956 . S
H1435 C1422 0.961 . S
H1436 C1422 0.961 . S
H1437 C1423 0.958 . S
H1438 C1423 0.961 . S
H1439 C1423 0.960 . S
C1440 C1441 1.391 . S
C1440 C1442 1.394 . S
C1440 H1456 0.931 . S
C1441 C1440 1.391 . S
C1441 C1445 1.376 1_556 S
C1442 C1440 1.394 . S
C1442 C1443 1.369 1_556 S
C1442 C1446 1.531 . S
C1443 C1442 1.369 1_554 S
C1443 C1444 1.410 . S
C1443 C1451 1.503 . S
C1444 C1443 1.410 . S
C1444 C1445 1.392 . S
C1444 C1447 1.511 . S
C1445 C1441 1.376 1_554 S
C1445 C1444 1.392 . S
C1445 H1457 0.929 . S
C1446 C1442 1.531 . S
C1446 H1458 0.960 . S
C1446 H1459 0.962 . S
C1446 H1460 0.960 . S
C1447 C1444 1.511 . S
C1447 H1461 0.961 . S
C1447 H1462 0.961 . S
C1447 H1463 0.961 . S
C1448 C1449 1.370 . S
C1448 C1450 1.363 . S
C1448 H1464 0.931 . S
C1449 C1448 1.370 . S
C1449 C1453 1.408 . S
C1450 C1448 1.363 . S
C1450 C1451 1.370 . S
C1450 C1454 1.524 . S
C1451 C1443 1.503 . S
C1451 C1450 1.370 . S
C1451 C1452 1.403 . S
C1452 C1451 1.403 . S
C1452 C1453 1.404 . S
C1452 C1455 1.539 1_554 S
C1453 C1449 1.408 . S
C1453 C1452 1.404 . S
C1453 H1465 0.930 . S
C1454 C1450 1.524 . S
C1454 H1466 0.956 . S
C1454 H1467 0.961 . S
C1454 H1468 0.961 . S
C1455 C1452 1.539 1_556 S
C1455 H1469 0.958 . S
C1455 H1470 0.961 . S
C1455 H1471 0.960 . S
H1456 C1440 0.931 . S
H1457 C1445 0.929 . S
H1458 C1446 0.960 . S
H1459 C1446 0.962 . S
H1460 C1446 0.960 . S
H1461 C1447 0.961 . S
H1462 C1447 0.961 . S
H1463 C1447 0.961 . S
H1464 C1448 0.931 . S
H1465 C1453 0.930 . S
H1466 C1454 0.956 . S
H1467 C1454 0.961 . S
H1468 C1454 0.961 . S
H1469 C1455 0.958 . S
H1470 C1455 0.961 . S
H1471 C1455 0.960 . S
C1472 C1473 1.391 . S
C1472 C1474 1.394 . S
C1472 H1488 0.931 . S
C1473 C1472 1.391 . S
C1473 C1477 1.376 1_554 S
C1474 C1472 1.394 . S
C1474 C1475 1.369 1_554 S
C1474 C1478 1.531 . S
C1475 C1474 1.369 1_556 S
C1475 C1476 1.410 . S
C1475 C1483 1.503 . S
C1476 C1475 1.410 . S
C1476 C1477 1.392 . S
C1476 C1479 1.511 . S
C1477 C1473 1.376 1_556 S
C1477 C1476 1.392 . S
C1477 H1489 0.929 . S
C1478 C1474 1.531 . S
C1478 H1490 0.960 . S
C1478 H1491 0.962 . S
C1478 H1492 0.960 . S
C1479 C1476 1.511 . S
C1479 H1493 0.961 . S
C1479 H1494 0.961 . S
C1479 H1495 0.961 . S
C1480 C1481 1.370 . S
C1480 C1482 1.363 . S
C1480 H1496 0.931 . S
C1481 C1480 1.370 . S
C1481 C1485 1.408 . S
C1482 C1480 1.363 . S
C1482 C1483 1.370 . S
C1482 C1486 1.524 . S
C1483 C1475 1.503 . S
C1483 C1482 1.370 . S
C1483 C1484 1.403 . S
C1484 C1483 1.403 . S
C1484 C1485 1.404 . S
C1484 C1487 1.539 . S
C1485 C1481 1.408 . S
C1485 C1484 1.404 . S
C1485 H1497 0.930 . S
C1486 C1482 1.524 . S
C1486 H1498 0.956 . S
C1486 H1499 0.961 . S
C1486 H1500 0.961 . S
C1487 C1484 1.539 . S
C1487 H1501 0.958 1_556 S
C1487 H1502 0.961 . S
C1487 H1503 0.960 . S
H1488 C1472 0.931 . S
H1489 C1477 0.929 . S
H1490 C1478 0.960 . S
H1491 C1478 0.962 . S
H1492 C1478 0.960 . S
H1493 C1479 0.961 . S
H1494 C1479 0.961 . S
H1495 C1479 0.961 . S
H1496 C1480 0.931 . S
H1497 C1485 0.930 . S
H1498 C1486 0.956 . S
H1499 C1486 0.961 . S
H1500 C1486 0.961 . S
H1501 C1487 0.958 1_554 S
H1502 C1487 0.961 . S
H1503 C1487 0.960 . S
C1504 C1505 1.391 . S
C1504 C1506 1.394 . S
C1504 H1520 0.931 . S
C1505 C1504 1.391 . S
C1505 C1509 1.376 . S
C1506 C1504 1.394 . S
C1506 C1507 1.369 . S
C1506 C1510 1.531 . S
C1507 C1506 1.369 . S
C1507 C1508 1.410 . S
C1507 C1515 1.503 . S
C1508 C1507 1.410 . S
C1508 C1509 1.392 . S
C1508 C1511 1.511 1_554 S
C1509 C1505 1.376 . S
C1509 C1508 1.392 . S
C1509 H1521 0.929 . S
C1510 C1506 1.531 . S
C1510 H1522 0.960 . S
C1510 H1523 0.962 . S
C1510 H1524 0.960 . S
C1511 C1508 1.511 1_556 S
C1511 H1525 0.961 . S
C1511 H1526 0.961 . S
C1511 H1527 0.961 . S
C1512 C1513 1.370 . S
C1512 C1514 1.363 . S
C1512 H1528 0.931 . S
C1513 C1512 1.370 . S
C1513 C1517 1.408 1_556 S
C1514 C1512 1.363 . S
C1514 C1515 1.370 1_556 S
C1514 C1518 1.524 . S
C1515 C1507 1.503 . S
C1515 C1514 1.370 1_554 S
C1515 C1516 1.403 . S
C1516 C1515 1.403 . S
C1516 C1517 1.404 . S
C1516 C1519 1.539 . S
C1517 C1513 1.408 1_554 S
C1517 C1516 1.404 . S
C1517 H1529 0.930 . S
C1518 C1514 1.524 . S
C1518 H1530 0.956 . S
C1518 H1531 0.961 . S
C1518 H1532 0.961 . S
C1519 C1516 1.539 . S
C1519 H1533 0.958 . S
C1519 H1534 0.961 . S
C1519 H1535 0.960 . S
H1520 C1504 0.931 . S
H1521 C1509 0.929 . S
H1522 C1510 0.960 . S
H1523 C1510 0.962 . S
H1524 C1510 0.960 . S
H1525 C1511 0.961 . S
H1526 C1511 0.961 . S
H1527 C1511 0.961 . S
H1528 C1512 0.931 . S
H1529 C1517 0.930 . S
H1530 C1518 0.956 . S
H1531 C1518 0.961 . S
H1532 C1518 0.961 . S
H1533 C1519 0.958 . S
H1534 C1519 0.961 . S
H1535 C1519 0.960 . S
C1536 C1537 1.391 . S
C1536 C1538 1.394 . S
C1536 H1552 0.931 . S
C1537 C1536 1.391 . S
C1537 C1541 1.376 1_554 S
C1538 C1536 1.394 . S
C1538 C1539 1.369 1_554 S
C1538 C1542 1.531 . S
C1539 C1538 1.369 1_556 S
C1539 C1540 1.410 . S
C1539 C1547 1.503 . S
C1540 C1539 1.410 . S
C1540 C1541 1.392 . S
C1540 C1543 1.511 . S
C1541 C1537 1.376 1_556 S
C1541 C1540 1.392 . S
C1541 H1553 0.929 . S
C1542 C1538 1.531 . S
C1542 H1554 0.960 1_554 S
C1542 H1555 0.962 . S
C1542 H1556 0.960 . S
C1543 C1540 1.511 . S
C1543 H1557 0.961 . S
C1543 H1558 0.961 . S
C1543 H1559 0.961 . S
C1544 C1545 1.370 . S
C1544 C1546 1.363 . S
C1544 H1560 0.929 1_556 S
C1545 C1544 1.370 . S
C1545 C1549 1.408 . S
C1546 C1544 1.363 . S
C1546 C1547 1.370 . S
C1546 C1550 1.524 1_556 S
C1547 C1539 1.503 . S
C1547 C1546 1.370 . S
C1547 C1548 1.403 . S
C1548 C1547 1.403 . S
C1548 C1549 1.404 . S
C1548 C1551 1.539 . S
C1549 C1545 1.408 . S
C1549 C1548 1.404 . S
C1549 H1561 0.930 . S
C1550 C1546 1.524 1_554 S
C1550 H1562 0.956 . S
C1550 H1563 0.961 . S
C1550 H1564 0.961 . S
C1551 C1548 1.539 . S
C1551 H1565 0.958 . S
C1551 H1566 0.961 . S
C1551 H1567 0.960 . S
H1552 C1536 0.931 . S
H1553 C1541 0.929 . S
H1554 C1542 0.960 1_556 S
H1555 C1542 0.962 . S
H1556 C1542 0.960 . S
H1557 C1543 0.961 . S
H1558 C1543 0.961 . S
H1559 C1543 0.961 . S
H1560 C1544 0.929 1_554 S
H1561 C1549 0.930 . S
H1562 C1550 0.956 . S
H1563 C1550 0.961 . S
H1564 C1550 0.961 . S
H1565 C1551 0.958 . S
H1566 C1551 0.961 . S
H1567 C1551 0.960 . S
C1568 C1569 1.391 . S
C1568 C1570 1.394 . S
C1568 H1584 0.931 . S
C1569 C1568 1.391 . S
C1569 C1573 1.376 . S
C1570 C1568 1.394 . S
C1570 C1571 1.369 . S
C1570 C1574 1.531 . S
C1571 C1570 1.369 . S
C1571 C1572 1.410 . S
C1571 C1579 1.503 . S
C1572 C1571 1.410 . S
C1572 C1573 1.392 . S
C1572 C1575 1.511 . S
C1573 C1569 1.376 . S
C1573 C1572 1.392 . S
C1573 H1585 0.929 . S
C1574 C1570 1.531 . S
C1574 H1586 0.960 . S
C1574 H1587 0.962 . S
C1574 H1588 0.960 . S
C1575 C1572 1.511 . S
C1575 H1589 0.961 . S
C1575 H1590 0.961 . S
C1575 H1591 0.961 . S
C1576 C1577 1.370 . S
C1576 C1578 1.363 . S
C1576 H1592 0.931 . S
C1577 C1576 1.370 . S
C1577 C1581 1.408 . S
C1578 C1576 1.363 . S
C1578 C1579 1.370 . S
C1578 C1582 1.524 . S
C1579 C1571 1.503 . S
C1579 C1578 1.370 . S
C1579 C1580 1.403 . S
C1580 C1579 1.403 . S
C1580 C1581 1.404 . S
C1580 C1583 1.539 . S
C1581 C1577 1.408 . S
C1581 C1580 1.404 . S
C1581 H1593 0.930 . S
C1582 C1578 1.524 . S
C1582 H1594 0.956 . S
C1582 H1595 0.961 . S
C1582 H1596 0.961 . S
C1583 C1580 1.539 . S
C1583 H1597 0.958 . S
C1583 H1598 0.961 . S
C1583 H1599 0.960 . S
H1584 C1568 0.931 . S
H1585 C1573 0.929 . S
H1586 C1574 0.960 . S
H1587 C1574 0.962 . S
H1588 C1574 0.960 . S
H1589 C1575 0.961 . S
H1590 C1575 0.961 . S
H1591 C1575 0.961 . S
H1592 C1576 0.931 . S
H1593 C1581 0.930 . S
H1594 C1582 0.956 . S
H1595 C1582 0.961 . S
H1596 C1582 0.961 . S
H1597 C1583 0.958 . S
H1598 C1583 0.961 . S
H1599 C1583 0.960 . S
C1600 C1601 1.391 . S
C1600 C1602 1.394 . S
C1600 H1616 0.931 . S
C1601 C1600 1.391 . S
C1601 C1605 1.376 . S
C1602 C1600 1.394 . S
C1602 C1603 1.369 . S
C1602 C1606 1.531 . S
C1603 C1602 1.369 . S
C1603 C1604 1.410 . S
C1603 C1611 1.503 . S
C1604 C1603 1.410 . S
C1604 C1605 1.392 . S
C1604 C1607 1.511 . S
C1605 C1601 1.376 . S
C1605 C1604 1.392 . S
C1605 H1617 0.929 . S
C1606 C1602 1.531 . S
C1606 H1618 0.960 . S
C1606 H1619 0.962 . S
C1606 H1620 0.960 . S
C1607 C1604 1.511 . S
C1607 H1621 0.961 . S
C1607 H1622 0.961 . S
C1607 H1623 0.961 . S
C1608 C1609 1.370 . S
C1608 C1610 1.363 . S
C1608 H1624 0.931 . S
C1609 C1608 1.370 . S
C1609 C1613 1.408 . S
C1610 C1608 1.363 . S
C1610 C1611 1.370 . S
C1610 C1614 1.524 . S
C1611 C1603 1.503 . S
C1611 C1610 1.370 . S
C1611 C1612 1.403 . S
C1612 C1611 1.403 . S
C1612 C1613 1.404 . S
C1612 C1615 1.539 . S
C1613 C1609 1.408 . S
C1613 C1612 1.404 . S
C1613 H1625 0.930 . S
C1614 C1610 1.524 . S
C1614 H1626 0.956 . S
C1614 H1627 0.961 . S
C1614 H1628 0.961 . S
C1615 C1612 1.539 . S
C1615 H1629 0.958 . S
C1615 H1630 0.961 . S
C1615 H1631 0.960 . S
H1616 C1600 0.931 . S
H1617 C1605 0.929 . S
H1618 C1606 0.960 . S
H1619 C1606 0.962 . S
H1620 C1606 0.960 . S
H1621 C1607 0.961 . S
H1622 C1607 0.961 . S
H1623 C1607 0.961 . S
H1624 C1608 0.931 . S
H1625 C1613 0.930 . S
H1626 C1614 0.956 . S
H1627 C1614 0.961 . S
H1628 C1614 0.961 . S
H1629 C1615 0.958 . S
H1630 C1615 0.961 . S
H1631 C1615 0.960 . S
C1632 C1633 1.391 . S
C1632 C1634 1.394 . S
C1632 H1648 0.931 . S
C1633 C1632 1.391 . S
C1633 C1637 1.376 . S
C1634 C1632 1.394 . S
C1634 C1635 1.369 . S
C1634 C1638 1.531 . S
C1635 C1634 1.369 . S
C1635 C1636 1.410 . S
C1635 C1643 1.503 . S
C1636 C1635 1.410 . S
C1636 C1637 1.392 . S
C1636 C1639 1.511 . S
C1637 C1633 1.376 . S
C1637 C1636 1.392 . S
C1637 H1649 0.929 . S
C1638 C1634 1.531 . S
C1638 H1650 0.960 . S
C1638 H1651 0.962 . S
C1638 H1652 0.960 . S
C1639 C1636 1.511 . S
C1639 H1653 0.961 . S
C1639 H1654 0.961 . S
C1639 H1655 0.961 . S
C1640 C1641 1.370 . S
C1640 C1642 1.363 . S
C1640 H1656 0.931 . S
C1641 C1640 1.370 . S
C1641 C1645 1.408 . S
C1642 C1640 1.363 . S
C1642 C1643 1.370 . S
C1642 C1646 1.524 . S
C1643 C1635 1.503 . S
C1643 C1642 1.370 . S
C1643 C1644 1.403 . S
C1644 C1643 1.403 . S
C1644 C1645 1.404 . S
C1644 C1647 1.539 . S
C1645 C1641 1.408 . S
C1645 C1644 1.404 . S
C1645 H1657 0.930 . S
C1646 C1642 1.524 . S
C1646 H1658 0.956 . S
C1646 H1659 0.961 . S
C1646 H1660 0.961 . S
C1647 C1644 1.539 . S
C1647 H1661 0.958 . S
C1647 H1662 0.961 . S
C1647 H1663 0.960 . S
H1648 C1632 0.931 . S
H1649 C1637 0.929 . S
H1650 C1638 0.960 . S
H1651 C1638 0.962 . S
H1652 C1638 0.960 . S
H1653 C1639 0.961 . S
H1654 C1639 0.961 . S
H1655 C1639 0.961 . S
H1656 C1640 0.931 . S
H1657 C1645 0.930 . S
H1658 C1646 0.956 . S
H1659 C1646 0.961 . S
H1660 C1646 0.961 . S
H1661 C1647 0.958 . S
H1662 C1647 0.961 . S
H1663 C1647 0.960 . S
C1664 C1665 1.391 . S
C1664 C1666 1.394 . S
C1664 H1680 0.931 . S
C1665 C1664 1.391 . S
C1665 C1669 1.376 . S
C1666 C1664 1.394 . S
C1666 C1667 1.369 . S
C1666 C1670 1.531 . S
C1667 C1666 1.369 . S
C1667 C1668 1.410 . S
C1667 C1675 1.503 . S
C1668 C1667 1.410 . S
C1668 C1669 1.392 . S
C1668 C1671 1.511 . S
C1669 C1665 1.376 . S
C1669 C1668 1.392 . S
C1669 H1681 0.929 . S
C1670 C1666 1.531 . S
C1670 H1682 0.960 . S
C1670 H1683 0.962 . S
C1670 H1684 0.960 . S
C1671 C1668 1.511 . S
C1671 H1685 0.961 . S
C1671 H1686 0.961 . S
C1671 H1687 0.961 . S
C1672 C1673 1.370 . S
C1672 C1674 1.363 . S
C1672 H1688 0.931 . S
C1673 C1672 1.370 . S
C1673 C1677 1.408 . S
C1674 C1672 1.363 . S
C1674 C1675 1.370 . S
C1674 C1678 1.524 . S
C1675 C1667 1.503 . S
C1675 C1674 1.370 . S
C1675 C1676 1.403 . S
C1676 C1675 1.403 . S
C1676 C1677 1.404 . S
C1676 C1679 1.539 . S
C1677 C1673 1.408 . S
C1677 C1676 1.404 . S
C1677 H1689 0.930 . S
C1678 C1674 1.524 . S
C1678 H1690 0.956 . S
C1678 H1691 0.961 . S
C1678 H1692 0.961 . S
C1679 C1676 1.539 . S
C1679 H1693 0.958 . S
C1679 H1694 0.961 . S
C1679 H1695 0.960 . S
H1680 C1664 0.931 . S
H1681 C1669 0.929 . S
H1682 C1670 0.960 . S
H1683 C1670 0.962 . S
H1684 C1670 0.960 . S
H1685 C1671 0.961 . S
H1686 C1671 0.961 . S
H1687 C1671 0.961 . S
H1688 C1672 0.931 . S
H1689 C1677 0.930 . S
H1690 C1678 0.956 . S
H1691 C1678 0.961 . S
H1692 C1678 0.961 . S
H1693 C1679 0.958 . S
H1694 C1679 0.961 . S
H1695 C1679 0.960 . S
C1696 C1697 1.391 . S
C1696 C1698 1.394 . S
C1696 H1712 0.931 . S
C1697 C1696 1.391 . S
C1697 C1701 1.376 . S
C1698 C1696 1.394 . S
C1698 C1699 1.369 . S
C1698 C1702 1.531 . S
C1699 C1698 1.369 . S
C1699 C1700 1.410 . S
C1699 C1707 1.503 . S
C1700 C1699 1.410 . S
C1700 C1701 1.392 . S
C1700 C1703 1.511 . S
C1701 C1697 1.376 . S
C1701 C1700 1.392 . S
C1701 H1713 0.929 . S
C1702 C1698 1.531 . S
C1702 H1714 0.960 . S
C1702 H1715 0.962 . S
C1702 H1716 0.960 . S
C1703 C1700 1.511 . S
C1703 H1717 0.961 . S
C1703 H1718 0.961 . S
C1703 H1719 0.961 . S
C1704 C1705 1.370 1_545 S
C1704 C1706 1.363 . S
C1704 H1720 0.931 1_545 S
C1705 C1704 1.370 1_565 S
C1705 C1709 1.408 1_565 S
C1706 C1704 1.363 . S
C1706 C1707 1.370 . S
C1706 C1710 1.524 . S
C1707 C1699 1.503 . S
C1707 C1706 1.370 . S
C1707 C1708 1.403 . S
C1708 C1707 1.403 . S
C1708 C1709 1.404 . S
C1708 C1711 1.539 . S
C1709 C1705 1.408 1_545 S
C1709 C1708 1.404 . S
C1709 H1721 0.930 1_545 S
C1710 C1706 1.524 . S
C1710 H1722 0.956 . S
C1710 H1723 0.961 . S
C1710 H1724 0.961 . S
C1711 C1708 1.539 . S
C1711 H1725 0.958 . S
C1711 H1726 0.961 . S
C1711 H1727 0.960 . S
H1712 C1696 0.931 . S
H1713 C1701 0.929 . S
H1714 C1702 0.960 . S
H1715 C1702 0.962 . S
H1716 C1702 0.960 . S
H1717 C1703 0.961 . S
H1718 C1703 0.961 . S
H1719 C1703 0.961 . S
H1720 C1704 0.931 1_565 S
H1721 C1709 0.930 1_565 S
H1722 C1710 0.956 . S
H1723 C1710 0.961 . S
H1724 C1710 0.961 . S
H1725 C1711 0.958 . S
H1726 C1711 0.961 . S
H1727 C1711 0.960 . S
C1728 C1729 1.391 . S
C1728 C1730 1.394 . S
C1728 H1744 0.931 . S
C1729 C1728 1.391 . S
C1729 C1733 1.376 . S
C1730 C1728 1.394 . S
C1730 C1731 1.369 . S
C1730 C1734 1.531 . S
C1731 C1730 1.369 . S
C1731 C1732 1.410 . S
C1731 C1739 1.503 . S
C1732 C1731 1.410 . S
C1732 C1733 1.392 . S
C1732 C1735 1.511 . S
C1733 C1729 1.376 . S
C1733 C1732 1.392 . S
C1733 H1745 0.929 . S
C1734 C1730 1.531 . S
C1734 H1746 0.960 . S
C1734 H1747 0.962 . S
C1734 H1748 0.960 . S
C1735 C1732 1.511 . S
C1735 H1749 0.961 . S
C1735 H1750 0.961 . S
C1735 H1751 0.961 . S
C1736 C1737 1.370 1_455 S
C1736 C1738 1.363 . S
C1736 H1752 0.931 . S
C1737 C1736 1.370 1_655 S
C1737 C1741 1.408 . S
C1738 C1736 1.363 . S
C1738 C1739 1.370 . S
C1738 C1742 1.524 . S
C1739 C1731 1.503 . S
C1739 C1738 1.370 . S
C1739 C1740 1.403 . S
C1740 C1739 1.403 . S
C1740 C1741 1.404 1_455 S
C1740 C1743 1.539 . S
C1741 C1737 1.408 . S
C1741 C1740 1.404 1_655 S
C1741 H1753 0.930 . S
C1742 C1738 1.524 . S
C1742 H1754 0.956 . S
C1742 H1755 0.961 . S
C1742 H1756 0.961 . S
C1743 C1740 1.539 . S
C1743 H1757 0.958 . S
C1743 H1758 0.961 . S
C1743 H1759 0.960 . S
H1744 C1728 0.931 . S
H1745 C1733 0.929 . S
H1746 C1734 0.960 . S
H1747 C1734 0.962 . S
H1748 C1734 0.960 . S
H1749 C1735 0.961 . S
H1750 C1735 0.961 . S
H1751 C1735 0.961 . S
H1752 C1736 0.931 . S
H1753 C1741 0.930 . S
H1754 C1742 0.956 . S
H1755 C1742 0.961 . S
H1756 C1742 0.961 . S
H1757 C1743 0.958 . S
H1758 C1743 0.961 . S
H1759 C1743 0.960 . S
C1760 C1761 1.391 . S
C1760 C1762 1.394 . S
C1760 H1776 0.931 . S
C1761 C1760 1.391 . S
C1761 C1765 1.376 . S
C1762 C1760 1.394 . S
C1762 C1763 1.369 . S
C1762 C1766 1.531 . S
C1763 C1762 1.369 . S
C1763 C1764 1.410 . S
C1763 C1771 1.503 . S
C1764 C1763 1.410 . S
C1764 C1765 1.392 . S
C1764 C1767 1.511 . S
C1765 C1761 1.376 . S
C1765 C1764 1.392 . S
C1765 H1777 0.929 . S
C1766 C1762 1.531 . S
C1766 H1778 0.960 . S
C1766 H1779 0.962 . S
C1766 H1780 0.960 . S
C1767 C1764 1.511 . S
C1767 H1781 0.961 . S
C1767 H1782 0.961 . S
C1767 H1783 0.961 . S
C1768 C1769 1.370 1_565 S
C1768 C1770 1.363 . S
C1768 H1784 0.931 . S
C1769 C1768 1.370 1_545 S
C1769 C1773 1.408 . S
C1770 C1768 1.363 . S
C1770 C1771 1.370 . S
C1770 C1774 1.524 . S
C1771 C1763 1.503 . S
C1771 C1770 1.370 . S
C1771 C1772 1.403 . S
C1772 C1771 1.403 . S
C1772 C1773 1.404 1_565 S
C1772 C1775 1.539 . S
C1773 C1769 1.408 . S
C1773 C1772 1.404 1_545 S
C1773 H1785 0.930 . S
C1774 C1770 1.524 . S
C1774 H1786 0.956 . S
C1774 H1787 0.961 . S
C1774 H1788 0.961 . S
C1775 C1772 1.539 . S
C1775 H1789 0.958 . S
C1775 H1790 0.961 . S
C1775 H1791 0.960 . S
H1776 C1760 0.931 . S
H1777 C1765 0.929 . S
H1778 C1766 0.960 . S
H1779 C1766 0.962 . S
H1780 C1766 0.960 . S
H1781 C1767 0.961 . S
H1782 C1767 0.961 . S
H1783 C1767 0.961 . S
H1784 C1768 0.931 . S
H1785 C1773 0.930 . S
H1786 C1774 0.956 . S
H1787 C1774 0.961 . S
H1788 C1774 0.961 . S
H1789 C1775 0.958 . S
H1790 C1775 0.961 . S
H1791 C1775 0.960 . S
C1792 C1793 1.391 1_655 S
C1792 C1794 1.394 . S
C1792 H1808 0.931 1_655 S
C1793 C1792 1.391 1_455 S
C1793 C1797 1.376 1_455 S
C1794 C1792 1.394 . S
C1794 C1795 1.369 . S
C1794 C1798 1.531 . S
C1795 C1794 1.369 . S
C1795 C1796 1.410 . S
C1795 C1803 1.503 . S
C1796 C1795 1.410 . S
C1796 C1797 1.392 . S
C1796 C1799 1.511 . S
C1797 C1793 1.376 1_655 S
C1797 C1796 1.392 . S
C1797 H1809 0.941 . S
C1798 C1794 1.531 . S
C1798 H1810 0.960 . S
C1798 H1811 0.962 . S
C1798 H1812 0.960 . S
C1799 C1796 1.511 . S
C1799 H1813 0.961 . S
C1799 H1814 0.961 . S
C1799 H1815 0.961 . S
C1800 C1801 1.370 . S
C1800 C1802 1.363 . S
C1800 H1816 0.931 . S
C1801 C1800 1.370 . S
C1801 C1805 1.408 . S
C1802 C1800 1.363 . S
C1802 C1803 1.370 . S
C1802 C1806 1.524 . S
C1803 C1795 1.503 . S
C1803 C1802 1.370 . S
C1803 C1804 1.403 . S
C1804 C1803 1.403 . S
C1804 C1805 1.404 . S
C1804 C1807 1.539 . S
C1805 C1801 1.408 . S
C1805 C1804 1.404 . S
C1805 H1817 0.930 . S
C1806 C1802 1.524 . S
C1806 H1818 0.956 . S
C1806 H1819 0.961 . S
C1806 H1820 0.961 . S
C1807 C1804 1.539 . S
C1807 H1821 0.958 . S
C1807 H1822 0.961 . S
C1807 H1823 0.960 . S
H1808 C1792 0.931 1_455 S
H1809 C1797 0.941 . S
H1810 C1798 0.960 . S
H1811 C1798 0.962 . S
H1812 C1798 0.960 . S
H1813 C1799 0.961 . S
H1814 C1799 0.961 . S
H1815 C1799 0.961 . S
H1816 C1800 0.931 . S
H1817 C1805 0.930 . S
H1818 C1806 0.956 . S
H1819 C1806 0.961 . S
H1820 C1806 0.961 . S
H1821 C1807 0.958 . S
H1822 C1807 0.961 . S
H1823 C1807 0.960 . S
C545 C33 0.930 . S
C553 C509 0.918 . S
C577 C543 0.938 . S
C585 C67 0.916 . S
C609 C441 0.937 . S
C617 C101 0.913 . S
C641 C135 0.896 . S
C649 C475 0.925 . S
C673 C169 0.888 1_556 S
C681 C373 0.918 . S
C705 C407 0.931 . S
C713 C203 0.920 1_554 S
C737 C237 0.940 1_556 S
C745 C305 0.908 . S
C769 C339 0.940 . S
C777 C271 0.912 1_554 S
C801 C145 1.085 . S
C809 C9 1.146 . S
C833 C43 1.190 . S
C841 C179 1.114 . S
C865 C77 1.183 . S
C873 C213 1.106 . S
C897 C111 1.097 . S
C905 C247 1.132 . S
C929 C417 1.093 . S
C937 C281 1.151 . S
C961 C451 1.190 . S
C969 C315 1.105 . S
C993 C349 1.158 . S
C1001 C485 1.115 . S
C1025 C383 1.133 . S
C1033 C519 1.144 . S
C1057 C2 1.953 1_556 S
C1065 C478 1.950 . S
C1089 C512 1.944 . S
C1097 C36 1.958 1_554 S
C1121 C70 1.949 1_556 S
C1129 C410 1.951 . S
C1153 C444 1.949 . S
C1161 C104 1.957 1_554 S
C1185 C342 1.947 . S
C1193 C138 1.952 . S
C1217 C376 1.957 . S
C1225 C172 1.950 . S
C1249 C206 1.942 . S
C1257 C274 1.958 . S
C1281 C240 1.942 . S
C1289 C308 1.958 . S
C1313 C5 1.640 . S
C1321 C394 1.663 . S
C1345 C292 1.649 . S
C1353 C39 1.653 . S
C1377 C73 1.654 . S
C1385 C326 1.658 . S
C1409 C360 1.653 . S
C1417 C107 1.649 . S
C1441 C190 1.662 . S
C1449 C141 1.641 . S
C1473 C224 1.649 . S
C1481 C175 1.653 . S
C1505 C209 1.634 . S
C1513 C258 1.664 . S
C1537 C156 1.654 . S
C1545 C243 1.650 . S
C1569 C122 1.654 . S
C1577 C277 1.652 . S
C1601 C311 1.652 . S
C1609 C20 1.660 . S
C1633 C345 1.643 . S
C1641 C54 1.659 . S
C1665 C88 1.650 . S
C1673 C379 1.652 . S
C1697 C462 1.649 . S
C1705 C413 1.650 . S
C1729 C496 1.655 . S
C1737 C447 1.647 . S
C1761 C530 1.652 . S
C1769 C481 1.647 . S
C1793 C515 1.655 . S
C1801 C428 1.659 . S
