# Generated by pormake.
# Topology sml, (6)-cn, num edge types: 1
# Building blocks:
#     Node 0, Type 0, BuildingBlock: PAMTUU_clean_sbu_0, # of connection points: 6
#     Node 1, Type 0, BuildingBlock: PAMTUU_clean_sbu_0, # of connection points: 6
#     Node 2, Type 0, BuildingBlock: PAMTUU_clean_sbu_0, # of connection points: 6
#     Node 3, Type 0, BuildingBlock: PAMTUU_clean_sbu_0, # of connection points: 6
#     Node 4, Type 0, BuildingBlock: PAMTUU_clean_sbu_0, # of connection points: 6
#     Node 5, Type 0, BuildingBlock: PAMTUU_clean_sbu_0, # of connection points: 6
#     Edge 6, Type (0, 0), BuildingBlock: XUDNAN_clean_linker_2, # of connection points: 2
#     Edge 7, Type (0, 0), BuildingBlock: XUDNAN_clean_linker_2, # of connection points: 2
#     Edge 8, Type (0, 0), BuildingBlock: XUDNAN_clean_linker_2, # of connection points: 2
#     Edge 9, Type (0, 0), BuildingBlock: XUDNAN_clean_linker_2, # of connection points: 2
#     Edge 10, Type (0, 0), BuildingBlock: XUDNAN_clean_linker_2, # of connection points: 2
#     Edge 11, Type (0, 0), BuildingBlock: XUDNAN_clean_linker_2, # of connection points: 2
#     Edge 12, Type (0, 0), BuildingBlock: XUDNAN_clean_linker_2, # of connection points: 2
#     Edge 13, Type (0, 0), BuildingBlock: XUDNAN_clean_linker_2, # of connection points: 2
#     Edge 14, Type (0, 0), BuildingBlock: XUDNAN_clean_linker_2, # of connection points: 2
#     Edge 15, Type (0, 0), BuildingBlock: XUDNAN_clean_linker_2, # of connection points: 2
#     Edge 16, Type (0, 0), BuildingBlock: XUDNAN_clean_linker_2, # of connection points: 2
#     Edge 17, Type (0, 0), BuildingBlock: XUDNAN_clean_linker_2, # of connection points: 2
#     Edge 18, Type (0, 0), BuildingBlock: XUDNAN_clean_linker_2, # of connection points: 2
#     Edge 19, Type (0, 0), BuildingBlock: XUDNAN_clean_linker_2, # of connection points: 2
#     Edge 20, Type (0, 0), BuildingBlock: XUDNAN_clean_linker_2, # of connection points: 2
#     Edge 21, Type (0, 0), BuildingBlock: XUDNAN_clean_linker_2, # of connection points: 2
#     Edge 22, Type (0, 0), BuildingBlock: XUDNAN_clean_linker_2, # of connection points: 2
#     Edge 23, Type (0, 0), BuildingBlock: XUDNAN_clean_linker_2, # of connection points: 2
# Relax obj value: 0.193
# Max RMSD: 0.234
# Mean RMSD: 0.234
data_MOF--net-sml--node1-PAMTUU_clean_sbu_0--edge1-XUDNAN_clean_linker_2
_symmetry_space_group_name_H-M    P1
_symmetry_Int_Tables_number       1
_symmetry_cell_setting            triclinic
loop_
_symmetry_equiv_pos_as_xyz
'x, y, z'
_cell_length_a     33.240561
_cell_length_b     33.105132
_cell_length_c     24.87712
_cell_angle_alpha  89.803395
_cell_angle_beta   89.952134
_cell_angle_gamma 120.32112
loop_
_atom_site_label
_atom_site_type_symbol
_atom_site_fract_x
_atom_site_fract_y
_atom_site_fract_z
_atom_type_partial_charge
Tb0 Tb 0.23955 0.4215 0.08763 0.0
Tb1 Tb 0.17179 0.40721 0.98109 0.0
C2 C 0.28026 0.4711 0.97758 0.0
C3 C 0.27704 0.43117 0.23068 0.0
C4 C 0.26274 0.43409 0.34275 0.0
C5 C 0.30649 0.44442 0.32224 0.0
C6 C 0.31352 0.44305 0.26694 0.0
C7 C 0.23292 0.41967 0.25071 0.0
C8 C 0.22579 0.42098 0.30625 0.0
C9 C 0.2862 0.43276 0.17228 0.0
O10 O 0.19316 0.44584 0.11042 0.0
O11 O 0.17709 0.46567 0.02785 0.0
O12 O 0.12251 0.37051 0.04537 0.0
O13 O 0.17157 0.35925 0.10161 0.0
O14 O 0.15671 0.44034 0.91869 0.0
O15 O 0.12358 0.36528 0.92162 0.0
O16 O 0.18245 0.34775 0.98692 0.0
O17 O 0.25373 0.3821 0.02902 0.0
O18 O 0.28219 0.47743 0.02991 0.0
O19 O 0.24288 0.43817 0.9544 0.0
C20 C 0.17773 0.46769 0.08066 0.0
O21 O 0.26394 0.39322 0.14641 0.0
O22 O 0.28627 0.46682 0.14565 0.0
C23 C 0.12965 0.35024 0.08706 0.0
C24 C 0.14652 0.4021 0.83604 0.0
C25 C 0.17893 0.41317 0.72845 0.0
C26 C 0.13316 0.40289 0.73968 0.0
C27 C 0.11723 0.39772 0.79305 0.0
C28 C 0.19144 0.41029 0.82473 0.0
C29 C 0.20753 0.41598 0.77168 0.0
C30 C 0.13175 0.40148 0.89242 0.0
C31 C 0.22189 0.34952 0.99827 0.0
H32 H 0.33555 0.4538 0.34901 0.0
H33 H 0.34776 0.45188 0.2524 0.0
H34 H 0.20424 0.41045 0.22334 0.0
H35 H 0.19176 0.41309 0.32041 0.0
H36 H 0.11034 0.40071 0.70737 0.0
H37 H 0.08247 0.39147 0.80079 0.0
H38 H 0.21458 0.41341 0.85702 0.0
H39 H 0.24272 0.42321 0.76451 0.0
Tb40 Tb 0.81252 0.24966 0.41117 0.0
Tb41 Tb 0.74592 0.19664 0.30372 0.0
C42 C 0.81569 0.30564 0.30913 0.0
C43 C 0.83782 0.26865 0.5561 0.0
C44 C 0.81002 0.23951 0.66374 0.0
C45 C 0.84974 0.28324 0.65236 0.0
C46 C 0.86349 0.29765 0.59898 0.0
C47 C 0.79774 0.22549 0.56734 0.0
C48 C 0.78382 0.21125 0.62039 0.0
C49 C 0.85313 0.28265 0.49985 0.0
O50 O 0.75066 0.25568 0.40959 0.0
O51 O 0.69884 0.18702 0.36994 0.0
O52 O 0.75175 0.14396 0.34997 0.0
O53 O 0.76341 0.17785 0.43299 0.0
O54 O 0.69784 0.19322 0.24621 0.0
O55 O 0.72303 0.14465 0.24456 0.0
O56 O 0.81719 0.22247 0.27882 0.0
O57 O 0.85187 0.22793 0.36092 0.0
O58 O 0.84079 0.30242 0.34793 0.0
O59 O 0.77356 0.27162 0.29717 0.0
C60 C 0.70853 0.2195 0.40601 0.0
O61 O 0.85793 0.2523 0.47149 0.0
O62 O 0.83128 0.29954 0.47283 0.0
C63 C 0.75173 0.14135 0.40264 0.0
C64 C 0.70833 0.16786 0.16096 0.0
C65 C 0.72782 0.17628 0.04939 0.0
C66 C 0.68607 0.13877 0.06991 0.0
C67 C 0.67649 0.13464 0.12505 0.0
C68 C 0.74958 0.20612 0.14079 0.0
C69 C 0.75914 0.21044 0.08539 0.0
C70 C 0.69927 0.16023 0.21926 0.0
C71 C 0.85159 0.22568 0.30806 0.0
H72 H 0.87094 0.30577 0.68465 0.0
H73 H 0.89456 0.33109 0.59122 0.0
H74 H 0.77727 0.20252 0.53503 0.0
H75 H 0.75246 0.1779 0.62741 0.0
H76 H 0.6609 0.11223 0.04329 0.0
H77 H 0.64453 0.10487 0.1398 0.0
H78 H 0.7748 0.23202 0.16798 0.0
H79 H 0.79173 0.23954 0.07098 0.0
Tb80 Tb 0.57146 0.8153 0.73284 0.0
Tb81 Tb 0.56535 0.7504 0.62622 0.0
C82 C 0.50922 0.80344 0.6312 0.0
C83 C 0.57729 0.84013 0.87717 0.0
C84 C 0.57345 0.80649 0.98333 0.0
C85 C 0.56362 0.84255 0.97313 0.0
C86 C 0.56543 0.85908 0.92058 0.0
C87 C 0.588 0.80484 0.8872 0.0
C88 C 0.5863 0.78837 0.93958 0.0
C89 C 0.57525 0.85455 0.82128 0.0
O90 O 0.53676 0.74307 0.7588 0.0
O91 O 0.50759 0.70444 0.679 0.0
O92 O 0.59977 0.73489 0.69008 0.0
O93 O 0.63202 0.80675 0.73025 0.0
O94 O 0.52587 0.70208 0.5663 0.0
O95 O 0.60051 0.73212 0.5694 0.0
O96 O 0.62501 0.82065 0.61687 0.0
O97 O 0.60432 0.86541 0.66789 0.0
O98 O 0.51387 0.80851 0.68379 0.0
O99 O 0.53272 0.78948 0.60206 0.0
C100 C 0.50733 0.70585 0.73187 0.0
O101 O 0.61154 0.86586 0.79099 0.0
O102 O 0.53661 0.82724 0.7959 0.0
C103 C 0.63051 0.76694 0.72213 0.0
C104 C 0.56542 0.71614 0.48304 0.0
C105 C 0.56538 0.72808 0.36998 0.0
C106 C 0.57786 0.69683 0.39258 0.0
C107 C 0.57775 0.69089 0.44835 0.0
C108 C 0.55438 0.74855 0.46104 0.0
C109 C 0.55434 0.75446 0.40507 0.0
C110 C 0.56267 0.70685 0.54161 0.0
C111 C 0.62766 0.86079 0.62792 0.0
H112 H 0.55307 0.85702 1.00549 0.0
H113 H 0.55656 0.88599 0.9137 0.0
H114 H 0.59702 0.78944 0.85433 0.0
H115 H 0.59487 0.76118 0.94565 0.0
H116 H 0.58755 0.67663 0.3671 0.0
H117 H 0.58671 0.66597 0.46438 0.0
H118 H 0.54495 0.76865 0.48707 0.0
H119 H 0.54432 0.77863 0.38931 0.0
Tb120 Tb 0.74951 0.5763 0.07038 0.0
Tb121 Tb 0.81204 0.58223 0.96212 0.0
C122 C 0.70363 0.52038 0.96568 0.0
C123 C 0.71479 0.57079 0.21396 0.0
C124 C 0.72774 0.56403 0.32533 0.0
C125 C 0.68664 0.56126 0.30589 0.0
C126 C 0.68026 0.56456 0.25084 0.0
C127 C 0.75642 0.57469 0.23297 0.0
C128 C 0.76292 0.5715 0.28826 0.0
C129 C 0.70562 0.57047 0.15591 0.0
O130 O 0.79289 0.54831 0.09402 0.0
O131 O 0.80522 0.52457 1.01206 0.0
O132 O 0.8624 0.61763 0.02491 0.0
O133 O 0.81822 0.63879 0.07651 0.0
O134 O 0.8239 0.54598 0.90092 0.0
O135 O 0.86164 0.62137 0.90221 0.0
O136 O 0.80259 0.64264 0.96265 0.0
O137 O 0.73318 0.61202 1.00871 0.0
O138 O 0.70418 0.51767 0.01834 0.0
O139 O 0.7402 0.55057 0.93835 0.0
C140 C 0.80512 0.52334 0.06499 0.0
O141 O 0.73109 0.60945 0.12958 0.0
O142 O 0.70117 0.53449 0.12953 0.0
C143 C 0.85838 0.64309 0.06255 0.0
C144 C 0.83729 0.58427 0.81768 0.0
C145 C 0.8061 0.57505 0.71021 0.0
C146 C 0.85033 0.58128 0.72175 0.0
C147 C 0.86567 0.58558 0.77513 0.0
C148 C 0.79399 0.58001 0.8061 0.0
C149 C 0.7785 0.5753 0.75301 0.0
C150 C 0.85113 0.58414 0.87406 0.0
C151 C 0.76383 0.64214 0.9745 0.0
H152 H 0.65914 0.55623 0.33331 0.0
H153 H 0.64793 0.56146 0.23697 0.0
H154 H 0.78345 0.57929 0.20502 0.0
H155 H 0.79481 0.57343 0.3018 0.0
H156 H 0.8723 0.58103 0.68973 0.0
H157 H 0.89917 0.58877 0.78323 0.0
H158 H 0.77163 0.57923 0.83824 0.0
H159 H 0.74457 0.57127 0.74549 0.0
Tb160 Tb 0.17103 0.75647 0.40206 0.0
Tb161 Tb 0.23193 0.81682 0.29302 0.0
C162 C 0.18281 0.70824 0.30043 0.0
C163 C 0.13585 0.72313 0.54498 0.0
C164 C 0.15129 0.73478 0.65714 0.0
C165 C 0.10951 0.69766 0.63647 0.0
C166 C 0.10199 0.69187 0.58104 0.0
C167 C 0.17682 0.76146 0.56514 0.0
C168 C 0.18444 0.76731 0.62079 0.0
C169 C 0.12913 0.71348 0.48683 0.0
O170 O 0.24191 0.79953 0.4276 0.0
O171 O 0.28101 0.81132 0.34724 0.0
O172 O 0.24632 0.87001 0.35191 0.0
O173 O 0.18359 0.82729 0.40939 0.0
O174 O 0.2791 0.82423 0.2322 0.0
O175 O 0.24687 0.86665 0.23191 0.0
O176 O 0.16345 0.8101 0.29074 0.0
O177 O 0.12119 0.74163 0.33859 0.0
O178 O 0.18429 0.70994 0.35318 0.0
O179 O 0.19025 0.74424 0.27122 0.0
C180 C 0.28005 0.81215 0.40018 0.0
O181 O 0.11727 0.73902 0.45838 0.0
O182 O 0.1612 0.70837 0.46289 0.0
C183 C 0.21895 0.86696 0.3918 0.0
C184 C 0.25606 0.83853 0.14841 0.0
C185 C 0.22899 0.80693 0.04176 0.0
C186 C 0.27176 0.84791 0.05213 0.0
C187 C 0.28524 0.86345 0.10506 0.0
C188 C 0.21286 0.79839 0.13812 0.0
C189 C 0.19949 0.78274 0.08546 0.0
C190 C 0.27119 0.85294 0.20435 0.0
C191 C 0.12389 0.77257 0.30352 0.0
H192 H 0.08277 0.67253 0.6632 0.0
H193 H 0.07007 0.66225 0.56629 0.0
H194 H 0.20342 0.78607 0.53787 0.0
H195 H 0.21701 0.7962 0.63519 0.0
H196 H 0.29543 0.86716 0.01951 0.0
H197 H 0.31876 0.89445 0.11218 0.0
H198 H 0.18965 0.77875 0.17095 0.0
H199 H 0.16601 0.75151 0.07899 0.0
Tb200 Tb 0.40157 0.15964 0.75864 0.0
Tb201 Tb 0.40421 0.22193 0.65079 0.0
C202 C 0.46537 0.17583 0.6582 0.0
C203 C 0.39741 0.13224 0.90179 0.0
C204 C 0.40223 0.16455 1.00828 0.0
C205 C 0.41009 0.12733 0.99748 0.0
C206 C 0.40786 0.11146 0.94467 0.0
C207 C 0.3884 0.16854 0.91253 0.0
C208 C 0.39064 0.1844 0.96509 0.0
C209 C 0.39918 0.11877 0.84564 0.0
O210 O 0.43703 0.23229 0.78341 0.0
O211 O 0.46193 0.26957 0.70132 0.0
O212 O 0.37312 0.24145 0.71465 0.0
O213 O 0.34368 0.17255 0.7627 0.0
O214 O 0.44154 0.2697 0.58903 0.0
O215 O 0.36648 0.23497 0.59203 0.0
O216 O 0.34137 0.15453 0.65505 0.0
O217 O 0.36865 0.1104 0.69284 0.0
O218 O 0.46277 0.17496 0.711 0.0
O219 O 0.43634 0.18165 0.62813 0.0
C220 C 0.46382 0.26951 0.75416 0.0
O221 O 0.3625 0.1076 0.81632 0.0
O222 O 0.43744 0.14694 0.8198 0.0
C223 C 0.34488 0.21187 0.75109 0.0
C224 C 0.40205 0.25198 0.50587 0.0
C225 C 0.40489 0.23984 0.39356 0.0
C226 C 0.39238 0.27152 0.41437 0.0
C227 C 0.39106 0.27753 0.46983 0.0
C228 C 0.41303 0.21907 0.48564 0.0
C229 C 0.41433 0.21297 0.42993 0.0
C230 C 0.40384 0.26183 0.56397 0.0
C231 C 0.34197 0.11545 0.65773 0.0
H232 H 0.41952 0.1115 0.02956 0.0
H233 H 0.41532 0.08367 0.93718 0.0
H234 H 0.38043 0.18525 0.88004 0.0
H235 H 0.38358 0.21255 0.9718 0.0
H236 H 0.38398 0.29212 0.38769 0.0
H237 H 0.38223 0.30285 0.48459 0.0
H238 H 0.42154 0.19885 0.51283 0.0
H239 H 0.42424 0.18841 0.41536 0.0
H240 H 0.37385 0.29561 0.79828 0.0
H241 H 0.25488 0.15566 0.78165 0.0
H242 H 0.21057 0.17469 0.84681 0.0
H243 H 0.36165 0.30143 0.94001 0.0
H244 H 0.38039 0.3629 0.94035 0.0
H245 H 0.40158 0.33977 0.88931 0.0
H246 H 0.37138 0.37256 0.81438 0.0
H247 H 0.35151 0.39688 0.8654 0.0
H248 H 0.31134 0.35822 0.81553 0.0
H249 H 0.17907 0.20985 0.91099 0.0
H250 H 0.16276 0.2585 0.97252 0.0
H251 H 0.30523 0.37234 0.95403 0.0
C252 C 0.33808 0.26949 0.80755 0.0
C253 C 0.317 0.22467 0.78447 0.0
C254 C 0.27096 0.19045 0.7987 0.0
C255 C 0.24577 0.20086 0.83566 0.0
C256 C 0.26779 0.2452 0.85863 0.0
C257 C 0.31296 0.2789 0.84538 0.0
C258 C 0.32934 0.32295 0.87786 0.0
C259 C 0.37068 0.33228 0.91402 0.0
C260 C 0.34158 0.36512 0.84108 0.0
C261 C 0.28594 0.30908 0.91064 0.0
C262 C 0.25078 0.26418 0.89876 0.0
C263 C 0.20644 0.24478 0.92131 0.0
C264 C 0.19753 0.27247 0.95614 0.0
C265 C 0.23308 0.31848 0.96851 0.0
C266 C 0.27797 0.33666 0.94633 0.0
H267 H 0.03757 0.32337 0.07341 0.0
H268 H 0.13222 0.30918 0.18176 0.0
H269 H 0.06821 0.2672 0.24658 0.0
H270 H 0.97961 0.34851 0.17052 0.0
H271 H 0.92277 0.31656 0.14017 0.0
H272 H 0.97414 0.33959 0.09883 0.0
H273 H 0.94616 0.25667 0.06092 0.0
H274 H 0.89448 0.23349 0.1021 0.0
H275 H 0.93196 0.2089 0.10665 0.0
H276 H -0.00242 0.23743 0.30497 0.0
H277 H 0.92395 0.21855 0.35047 0.0
H278 H 0.87463 0.24874 0.20261 0.0
C279 C 0.04463 0.31039 0.1101 0.0
C280 C 0.08992 0.31946 0.12227 0.0
C281 C 0.09777 0.30244 0.17121 0.0
C282 C 0.06161 0.27848 0.20838 0.0
C283 C 0.01769 0.27127 0.19577 0.0
C284 C 0.00888 0.28619 0.14753 0.0
C285 C 0.95954 0.27721 0.14551 0.0
C286 C 0.95902 0.3232 0.13836 0.0
C287 C 0.93137 0.24196 0.10117 0.0
C288 C 0.94257 0.25633 0.20079 0.0
C289 C 0.97649 0.25299 0.22913 0.0
C290 C 0.97032 0.23889 0.28284 0.0
C291 C 0.92852 0.22843 0.3084 0.0
C292 C 0.89351 0.232 0.28006 0.0
C293 C 0.90043 0.24512 0.22527 0.0
H294 H 0.71914 0.11513 0.50512 0.0
H295 H 0.75158 0.06557 0.3592 0.0
H296 H 0.72886 0.99029 0.40413 0.0
H297 H 0.75792 0.05882 0.60064 0.0
H298 H 0.71086 0.04468 0.647 0.0
H299 H 0.73243 0.09556 0.60432 0.0
H300 H 0.64909 0.06507 0.56749 0.0
H301 H 0.62733 0.01414 0.61 0.0
H302 H 0.61763 0.00742 0.5385 0.0
H303 H 0.70224 0.92093 0.46407 0.0
H304 H 0.66624 0.85841 0.53192 0.0
H305 H 0.64815 0.95205 0.6382 0.0
C306 C 0.72189 0.0886 0.48277 0.0
C307 C 0.73743 0.09614 0.42884 0.0
C308 C 0.7397 0.06035 0.40055 0.0
C309 C 0.72719 0.01769 0.42582 0.0
C310 C 0.71221 0.01146 0.47912 0.0
C311 C 0.70901 0.04569 0.50712 0.0
C312 C 0.68913 0.02906 0.56292 0.0
C313 C 0.72472 0.05879 0.60628 0.0
C314 C 0.64306 0.0289 0.57012 0.0
C315 C 0.68124 0.97987 0.56175 0.0
C316 C 0.69547 0.97078 0.51332 0.0
C317 C 0.69109 0.92761 0.50222 0.0
C318 C 0.6707 0.89237 0.54124 0.0
C319 C 0.65443 0.90032 0.59057 0.0
C320 C 0.66043 0.94493 0.60108 0.0
H321 H 0.6032 0.68682 0.77769 0.0
H322 H 0.72224 0.82407 0.74484 0.0
H323 H 0.7696 0.80829 0.8092 0.0
H324 H 0.62391 0.69047 0.91904 0.0
H325 H 0.60403 0.6289 0.92487 0.0
H326 H 0.5805 0.64945 0.87343 0.0
H327 H 0.60471 0.61034 0.79977 0.0
H328 H 0.62713 0.58876 0.85125 0.0
H329 H 0.6643 0.62339 0.79657 0.0
H330 H 0.80406 0.776 0.87407 0.0
H331 H 0.82277 0.73057 0.93832 0.0
H332 H 0.67862 0.61825 0.93544 0.0
C333 C 0.63955 0.71302 0.78333 0.0
C334 C 0.65981 0.75611 0.75579 0.0
C335 C 0.70673 0.79057 0.76532 0.0
C336 C 0.73366 0.78198 0.80178 0.0
C337 C 0.71249 0.7393 0.82905 0.0
C338 C 0.66643 0.70553 0.82061 0.0
C339 C 0.65133 0.66366 0.85705 0.0
C340 C 0.61267 0.6578 0.89589 0.0
C341 C 0.636 0.61891 0.82418 0.0
C342 C 0.69647 0.67867 0.88643 0.0
C343 C 0.73138 0.7223 0.86952 0.0
C344 C 0.77692 0.74215 0.88831 0.0
C345 C 0.7872 0.71627 0.92468 0.0
C346 C 0.75185 0.67162 0.94231 0.0
C347 C 0.70586 0.65299 0.92368 0.0
H348 H 0.06453 0.68973 0.25798 0.0
H349 H 0.09336 0.83213 0.27539 0.0
H350 H 0.02682 0.81449 0.21553 0.0
H351 H 0.04069 0.68312 0.1188 0.0
H352 H -0.00393 0.62217 0.12017 0.0
H353 H 0.04243 0.64447 0.16876 0.0
H354 H 0.98192 0.61386 0.24647 0.0
H355 H 0.93537 0.59104 0.19808 0.0
H356 H 0.93835 0.63097 0.24909 0.0
H357 H 0.95583 0.7799 0.15578 0.0
H358 H 0.88987 0.73297 0.09395 0.0
H359 H 0.91517 0.61716 0.10824 0.0
C360 C 0.05603 0.71678 0.25004 0.0
C361 C 0.08282 0.76184 0.27181 0.0
C362 C 0.07238 0.7972 0.25927 0.0
C363 C 0.03485 0.7875 0.2255 0.0
C364 C 0.00927 0.74268 0.20399 0.0
C365 C 0.01974 0.70807 0.21534 0.0
C366 C 0.98947 0.66403 0.18387 0.0
C367 C 0.01893 0.65282 0.14563 0.0
C368 C 0.95951 0.62255 0.22164 0.0
C369 C 0.96007 0.67913 0.1533 0.0
C370 C 0.9714 0.7243 0.16602 0.0
C371 C 0.94704 0.74477 0.14487 0.0
C372 C 0.9099 0.7181 0.10994 0.0
C373 C 0.89878 0.67232 0.09585 0.0
C374 C 0.92424 0.65276 0.11744 0.0
H375 H 0.30559 0.01989 0.65672 0.0
H376 H 0.33265 0.13881 0.55652 0.0
H377 H 0.3011 0.08749 0.47821 0.0
H378 H 0.33369 0.95937 0.55767 0.0
H379 H 0.2876 0.902 0.57733 0.0
H380 H 0.31266 0.94833 0.62606 0.0
H381 H 0.23018 0.93483 0.64691 0.0
H382 H 0.20537 0.88888 0.59763 0.0
H383 H 0.19541 0.9375 0.59293 0.0
H384 H 0.27322 0.02583 0.40947 0.0
H385 H 0.24388 0.95393 0.35486 0.0
H386 H 0.22734 0.87357 0.49962 0.0
C387 C 0.30447 0.0348 0.61832 0.0
C388 C 0.32112 0.08305 0.61265 0.0
C389 C 0.31937 0.1017 0.56188 0.0
C390 C 0.30171 0.07295 0.51703 0.0
C391 C 0.28526 0.02552 0.52379 0.0
C392 C 0.28589 0.00628 0.57307 0.0
C393 C 0.26559 0.95395 0.56879 0.0
C394 C 0.30208 0.94014 0.5833 0.0
C395 C 0.22151 0.92723 0.60363 0.0
C396 C 0.25404 0.94727 0.50947 0.0
C397 C 0.26622 0.98912 0.4842 0.0
C398 C 0.26251 0.99255 0.42875 0.0
C399 C 0.24594 0.95185 0.39816 0.0
C400 C 0.23251 0.9087 0.42359 0.0
C401 C 0.23613 0.90623 0.4798 0.0
H402 H 0.13852 0.36497 0.63423 0.0
H403 H 0.26283 0.48599 0.6961 0.0
H404 H 0.29628 0.50483 0.60472 0.0
H405 H 0.19831 0.33248 0.53773 0.0
H406 H 0.15365 0.31394 0.4872 0.0
H407 H 0.13851 0.31033 0.55731 0.0
H408 H 0.10019 0.36043 0.53914 0.0
H409 H 0.11527 0.36423 0.46898 0.0
H410 H 0.13378 0.41687 0.5072 0.0
H411 H 0.31671 0.51099 0.50729 0.0
H412 H 0.32402 0.50298 0.40998 0.0
H413 H 0.18773 0.37684 0.40923 0.0
C414 C 0.17263 0.39559 0.62838 0.0
C415 C 0.19812 0.42393 0.67254 0.0
C416 C 0.24287 0.46342 0.6632 0.0
C417 C 0.26208 0.47458 0.61132 0.0
C418 C 0.23631 0.44586 0.56883 0.0
C419 C 0.19265 0.40705 0.57664 0.0
C420 C 0.17312 0.38141 0.52391 0.0
C421 C 0.16545 0.33159 0.52672 0.0
C422 C 0.12791 0.38071 0.50893 0.0
C423 C 0.21251 0.41205 0.48535 0.0
C424 C 0.24851 0.44904 0.5123 0.0
C425 C 0.28885 0.482 0.48581 0.0
C426 C 0.29279 0.47692 0.43043 0.0
C427 C 0.25675 0.43901 0.40163 0.0
C428 C 0.21585 0.40639 0.42975 0.0
H429 H 0.76483 0.25237 0.97983 0.0
H430 H 0.71699 0.10382 0.98706 0.0
H431 H 0.73366 0.10453 0.89042 0.0
H432 H 0.71744 0.25077 0.84931 0.0
H433 H 0.76571 0.30641 0.8283 0.0
H434 H 0.75108 0.29488 0.89857 0.0
H435 H 0.83529 0.31434 0.9196 0.0
H436 H 0.85019 0.32596 0.84938 0.0
H437 H 0.85928 0.2836 0.88469 0.0
H438 H 0.75463 0.12048 0.79339 0.0
H439 H 0.77832 0.15062 0.70126 0.0
H440 H 0.81198 0.28903 0.75455 0.0
C441 C 0.75824 0.22012 0.96111 0.0
C442 C 0.73928 0.17793 0.99112 0.0
C443 C 0.73079 0.13639 0.9649 0.0
C444 C 0.74041 0.13648 0.91003 0.0
C445 C 0.75857 0.1784 0.88155 0.0
C446 C 0.76744 0.2195 0.906 0.0
C447 C 0.78623 0.25947 0.86551 0.0
C448 C 0.75314 0.27903 0.86012 0.0
C449 C 0.83569 0.29813 0.88071 0.0
C450 C 0.78657 0.23434 0.81465 0.0
C451 C 0.77048 0.18761 0.82502 0.0
C452 C 0.76714 0.15699 0.78471 0.0
C453 C 0.7804 0.17445 0.73231 0.0
C454 C 0.79674 0.22219 0.72022 0.0
C455 C 0.80003 0.25248 0.76233 0.0
H456 H 0.59114 0.80696 0.30671 0.0
H457 H 0.53162 0.6564 0.29731 0.0
H458 H 0.52757 0.66055 0.19883 0.0
H459 H 0.52097 0.81525 0.19973 0.0
H460 H 0.5675 0.87012 0.1742 0.0
H461 H 0.56586 0.85572 0.24439 0.0
H462 H 0.64911 0.86824 0.23682 0.0
H463 H 0.65098 0.88261 0.16661 0.0
H464 H 0.66115 0.83623 0.18708 0.0
H465 H 0.53047 0.68037 0.10132 0.0
H466 H 0.5391 0.7145 1.01115 0.0
H467 H 0.59617 0.85255 0.08165 0.0
C468 C 0.5769 0.7748 0.28402 0.0
C469 C 0.56218 0.73135 0.31019 0.0
C470 C 0.5441 0.69025 0.27856 0.0
C471 C 0.54131 0.69216 0.22244 0.0
C472 C 0.5565 0.73543 0.19801 0.0
C473 C 0.57382 0.77604 0.22765 0.0
C474 C 0.58796 0.818 0.19098 0.0
C475 C 0.55883 0.84113 0.20305 0.0
C476 C 0.64042 0.85335 0.19566 0.0
C477 C 0.57601 0.79455 0.13622 0.0
C478 C 0.55792 0.7469 0.14139 0.0
C479 C 0.54465 0.71768 0.09678 0.0
C480 C 0.54999 0.73755 0.0455 0.0
C481 C 0.56848 0.78638 0.0387 0.0
C482 C 0.5815 0.81509 0.0851 0.0
H483 H 0.85035 0.62058 0.61585 0.0
H484 H 0.71938 0.50781 0.67824 0.0
H485 H 0.68663 0.49167 0.58674 0.0
H486 H 0.79972 0.6619 0.51832 0.0
H487 H 0.84391 0.67584 0.46797 0.0
H488 H 0.85802 0.67779 0.53816 0.0
H489 H 0.88751 0.61993 0.52117 0.0
H490 H 0.87343 0.61777 0.45091 0.0
H491 H 0.84938 0.56446 0.48974 0.0
H492 H 0.66725 0.48813 0.48951 0.0
H493 H 0.66175 0.4984 0.39217 0.0
H494 H 0.80461 0.614 0.3909 0.0
C495 C 0.81493 0.59226 0.61009 0.0
C496 C 0.78735 0.56558 0.65436 0.0
C497 C 0.74097 0.52913 0.64518 0.0
C498 C 0.72213 0.51949 0.59327 0.0
C499 C 0.75 0.54659 0.55066 0.0
C500 C 0.79536 0.5823 0.55833 0.0
C501 C 0.81712 0.60695 0.50551 0.0
C502 C 0.83047 0.65868 0.50764 0.0
C503 C 0.85936 0.60196 0.49098 0.0
C504 C 0.77688 0.57947 0.4671 0.0
C505 C 0.73861 0.54477 0.49416 0.0
C506 C 0.69696 0.51525 0.46789 0.0
C507 C 0.6941 0.52156 0.41258 0.0
C508 C 0.73257 0.55723 0.3838 0.0
C509 C 0.77469 0.58622 0.41159 0.0
H510 H 0.1929 0.81333 0.72247 0.0
H511 H 0.13221 0.66238 0.72537 0.0
H512 H 0.14624 0.6651 0.82273 0.0
H513 H 0.28394 0.83882 0.82039 0.0
H514 H 0.28013 0.88597 0.85125 0.0
H515 H 0.26568 0.87267 0.78128 0.0
H516 H 0.18451 0.8631 0.79868 0.0
H517 H 0.19866 0.87634 0.86869 0.0
H518 H 0.14715 0.82265 0.84967 0.0
H519 H 0.16577 0.68317 0.91947 0.0
H520 H 0.18985 0.71581 1.0103 0.0
H521 H 0.23852 0.85538 0.94695 0.0
C522 C 0.18289 0.78091 0.74353 0.0
C523 C 0.16092 0.73753 0.71607 0.0
C524 C 0.14814 0.69593 0.74541 0.0
C525 C 0.1563 0.69711 0.80077 0.0
C526 C 0.17753 0.7402 0.8266 0.0
C527 C 0.19078 0.78141 0.79912 0.0
C528 C 0.2126 0.82292 0.83711 0.0
C529 C 0.26362 0.85711 0.82157 0.0
C530 C 0.18401 0.8477 0.83862 0.0
C531 C 0.20929 0.79845 0.89013 0.0
C532 C 0.18897 0.75074 0.88292 0.0
C533 C 0.18161 0.72048 0.92566 0.0
C534 C 0.19512 0.73935 0.97727 0.0
C535 C 0.21572 0.78812 0.9861 0.0
C536 C 0.22315 0.81801 0.9416 0.0
H537 H 0.37741 0.16096 0.33077 0.0
H538 H 0.44481 0.31241 0.32186 0.0
H539 H 0.4521 0.30917 0.2237 0.0
H540 H 0.44784 0.14882 0.22638 0.0
H541 H 0.39995 0.09572 0.1997 0.0
H542 H 0.40058 0.10957 0.26981 0.0
H543 H 0.31979 0.10254 0.2595 0.0
H544 H 0.31892 0.08874 0.18939 0.0
H545 H 0.31178 0.1371 0.2091 0.0
H546 H 0.45145 0.29029 0.12673 0.0
H547 H 0.44281 0.25678 0.03642 0.0
H548 H 0.3754 0.11711 0.1059 0.0
C549 C 0.39408 0.19345 0.3082 0.0
C550 C 0.41015 0.23696 0.33425 0.0
C551 C 0.43142 0.27859 0.30299 0.0
C552 C 0.43605 0.27717 0.24713 0.0
C553 C 0.41942 0.23384 0.22271 0.0
C554 C 0.39894 0.19268 0.25208 0.0
C555 C 0.3834 0.15079 0.21534 0.0
C556 C 0.40951 0.12469 0.2286 0.0
C557 C 0.33032 0.11786 0.21853 0.0
C558 C 0.39807 0.17492 0.16084 0.0
C559 C 0.41891 0.22285 0.16625 0.0
C560 C 0.43506 0.25278 0.12195 0.0
C561 C 0.42964 0.23331 0.07066 0.0
C562 C 0.40801 0.1842 0.06364 0.0
C563 C 0.39235 0.15476 0.1097 0.0
H564 H 0.19319 0.55618 0.06138 0.0
H565 H 0.12245 0.43633 0.16786 0.0
H566 H 0.1074 0.48348 0.23219 0.0
H567 H 0.25307 0.63582 0.15571 0.0
H568 H 0.24848 0.684 0.12892 0.0
H569 H 0.24422 0.63923 0.0847 0.0
H570 H 0.16426 0.62406 0.05099 0.0
H571 H 0.16782 0.66878 0.09529 0.0
H572 H 0.11815 0.61042 0.09862 0.0
H573 H 0.1153 0.54589 0.2928 0.0
H574 H 0.13688 0.61906 0.34146 0.0
H575 H 0.20057 0.69871 0.19581 0.0
C576 C 0.17252 0.53955 0.09696 0.0
C577 C 0.15868 0.49282 0.10978 0.0
C578 C 0.13314 0.47222 0.15752 0.0
C579 C 0.12435 0.49864 0.19424 0.0
C580 C 0.14088 0.54548 0.1823 0.0
C581 C 0.16342 0.56565 0.13427 0.0
C582 C 0.18192 0.6179 0.13425 0.0
C583 C 0.23506 0.64584 0.1254 0.0
C584 C 0.15651 0.63103 0.09227 0.0
C585 C 0.16898 0.62406 0.19077 0.0
C586 C 0.14479 0.58182 0.21757 0.0
C587 C 0.13308 0.57914 0.27186 0.0
C588 C 0.14592 0.62082 0.29934 0.0
C589 C 0.1701 0.66435 0.27232 0.0
C590 C 0.18142 0.66579 0.2173 0.0
H591 H 0.61272 0.17934 0.40372 0.0
H592 H 0.73238 0.2411 0.50976 0.0
H593 H 0.68101 0.22562 0.58766 0.0
H594 H 0.5564 0.23274 0.46845 0.0
H595 H 0.4981 0.18422 0.45933 0.0
H596 H 0.54331 0.19358 0.4125 0.0
H597 H 0.52625 0.10911 0.43009 0.0
H598 H 0.48117 0.09971 0.47738 0.0
H599 H 0.52805 0.09068 0.49788 0.0
H600 H 0.61824 0.20685 0.65353 0.0
H601 H 0.54887 0.19661 0.70197 0.0
H602 H 0.46989 0.1535 0.5534 0.0
C603 C 0.62777 0.18897 0.4435 0.0
C604 C 0.67635 0.21073 0.45104 0.0
C605 C 0.69518 0.22399 0.50334 0.0
C606 C 0.66627 0.2151 0.54788 0.0
C607 C 0.61855 0.19378 0.53937 0.0
C608 C 0.59934 0.18169 0.48848 0.0
C609 C 0.54755 0.16439 0.49016 0.0
C610 C 0.53567 0.19561 0.45557 0.0
C611 C 0.51908 0.11291 0.47285 0.0
C612 C 0.54117 0.16968 0.54958 0.0
C613 C 0.58233 0.18545 0.57736 0.0
C614 C 0.58564 0.19429 0.63239 0.0
C615 C 0.54605 0.18821 0.6596 0.0
C616 C 0.50416 0.17439 0.63141 0.0
C617 C 0.50152 0.16407 0.57596 0.0
H618 H 0.34851 0.56474 0.98386 0.0
H619 H 0.30212 0.43883 0.88955 0.0
H620 H 0.35871 0.48456 0.81884 0.0
H621 H 0.36026 0.63739 0.87795 0.0
H622 H 0.41236 0.68874 0.90084 0.0
H623 H 0.37346 0.6459 0.94873 0.0
H624 H 0.44124 0.63693 0.98616 0.0
H625 H 0.4804 0.68015 0.93853 0.0
H626 H 0.47504 0.62322 0.94089 0.0
H627 H 0.41088 0.54421 0.75254 0.0
H628 H 0.46312 0.61449 0.69875 0.0
H629 H 0.47852 0.70217 0.83563 0.0
C630 C 0.35161 0.54677 0.94922 0.0
C631 C 0.32098 0.49832 0.94217 0.0
C632 C 0.32515 0.47602 0.89565 0.0
C633 C 0.35725 0.50164 0.8552 0.0
C634 C 0.38546 0.54963 0.86194 0.0
C635 C 0.38381 0.57203 0.90812 0.0
C636 C 0.41607 0.62451 0.90312 0.0
C637 C 0.38889 0.65065 0.90793 0.0
C638 C 0.45552 0.64221 0.94467 0.0
C639 C 0.43462 0.62788 0.84653 0.0
C640 C 0.41659 0.58427 0.82358 0.0
C641 C 0.42607 0.5786 0.77037 0.0
C642 C 0.4554 0.61866 0.73997 0.0
C643 C 0.47506 0.66366 0.76305 0.0
C644 C 0.46448 0.66813 0.81707 0.0
H645 H 0.81796 0.3884 0.32023 0.0
H646 H 0.85359 0.30875 0.21282 0.0
H647 H 0.86658 0.36408 0.13898 0.0
H648 H 0.75164 0.40646 0.2353 0.0
H649 H 0.7687 0.46556 0.25398 0.0
H650 H 0.77402 0.42771 0.30164 0.0
H651 H 0.86182 0.48795 0.31342 0.0
H652 H 0.85668 0.52647 0.2661 0.0
H653 H 0.89934 0.50898 0.25522 0.0
H654 H 0.85871 0.41697 0.07334 0.0
H655 H 0.83693 0.46757 0.02273 0.0
H656 H 0.80767 0.51357 0.17353 0.0
C657 C 0.83107 0.38445 0.28193 0.0
C658 C 0.83628 0.34553 0.27215 0.0
C659 C 0.85097 0.33942 0.22104 0.0
C660 C 0.85821 0.37055 0.17892 0.0
C661 C 0.85087 0.40772 0.1889 0.0
C662 C 0.83862 0.41546 0.23952 0.0
C663 C 0.82733 0.45438 0.23809 0.0
C664 C 0.77747 0.43747 0.25841 0.0
C665 C 0.86346 0.49697 0.27009 0.0
C666 C 0.8319 0.46486 0.17845 0.0
C667 C 0.84633 0.43832 0.15077 0.0
C668 C 0.84859 0.43889 0.09469 0.0
C669 C 0.83581 0.46742 0.06624 0.0
C670 C 0.82061 0.49456 0.09403 0.0
C671 C 0.81945 0.49358 0.15086 0.0
H672 H 0.34884 0.79033 0.38773 0.0
H673 H 0.30452 0.86839 0.48662 0.0
H674 H 0.36431 0.8816 0.55378 0.0
H675 H 0.36165 0.72969 0.48997 0.0
H676 H 0.41263 0.72991 0.46479 0.0
H677 H 0.37355 0.73467 0.41877 0.0
H678 H 0.44157 0.81202 0.38034 0.0
H679 H 0.4811 0.80697 0.42568 0.0
H680 H 0.47718 0.85932 0.42537 0.0
H681 H 0.41861 0.87458 0.61691 0.0
H682 H 0.46958 0.85383 0.66799 0.0
H683 H 0.47836 0.78025 0.52831 0.0
C684 C 0.35335 0.81197 0.42234 0.0
C685 C 0.32266 0.82876 0.43201 0.0
C686 C 0.3281 0.85549 0.47863 0.0
C687 C 0.36193 0.86321 0.51695 0.0
C688 C 0.39019 0.84413 0.50787 0.0
C689 C 0.38692 0.81975 0.46132 0.0
C690 C 0.41812 0.79877 0.46417 0.0
C691 C 0.38977 0.74509 0.45915 0.0
C692 C 0.4568 0.82059 0.42135 0.0
C693 C 0.43776 0.81358 0.52018 0.0
C694 C 0.42164 0.84007 0.54459 0.0
C695 C 0.43235 0.85471 0.59787 0.0
C696 C 0.46091 0.84242 0.62673 0.0
C697 C 0.47819 0.81574 0.6021 0.0
C698 C 0.46635 0.80133 0.54814 0.0
H699 H 0.63451 0.42945 0.98559 0.0
H700 H 0.67759 0.54607 0.87522 0.0
H701 H 0.61413 0.49572 0.81384 0.0
H702 H 0.61312 0.3472 0.89058 0.0
H703 H 0.56215 0.29907 0.92112 0.0
H704 H 0.6046 0.34557 0.96233 0.0
H705 H 0.54051 0.36009 1.0007 0.0
H706 H 0.49768 0.3132 0.95984 0.0
H707 H 0.50456 0.37069 0.95526 0.0
H708 H 0.5566 0.43189 0.75794 0.0
H709 H 0.50318 0.35781 0.71261 0.0
H710 H 0.4951 0.28107 0.85808 0.0
C711 C 0.6293 0.44454 0.94944 0.0
C712 C 0.66071 0.49147 0.93504 0.0
C713 C 0.65388 0.51004 0.88679 0.0
C714 C 0.61781 0.48182 0.85178 0.0
C715 C 0.58863 0.43515 0.86572 0.0
C716 C 0.59333 0.41658 0.91367 0.0
C717 C 0.56008 0.36412 0.91593 0.0
C718 C 0.58659 0.33745 0.92288 0.0
C719 C 0.52355 0.35129 0.96059 0.0
C720 C 0.53803 0.35611 0.86079 0.0
C721 C 0.55458 0.39769 0.83292 0.0
C722 C 0.5425 0.39911 0.77965 0.0
C723 C 0.51252 0.35683 0.75409 0.0
C724 C 0.49499 0.31377 0.78185 0.0
C725 C 0.50754 0.31356 0.83609 0.0
loop_
_geom_bond_atom_site_label_1
_geom_bond_atom_site_label_2
_geom_bond_distance
_geom_bond_site_symmetry_2
_ccdc_geom_bond_type
Tb0 C9 2.764 . S
Tb0 O10 2.325 . S
Tb0 O13 2.303 . S
Tb0 O17 2.322 1_554 S
Tb0 O18 2.349 . S
Tb0 O21 2.415 . S
Tb0 O22 2.399 . S
Tb1 O11 2.322 1_556 S
Tb1 O12 2.349 . S
Tb1 O14 2.415 . S
Tb1 O15 2.399 . S
Tb1 O16 2.325 . S
Tb1 O19 2.303 . S
Tb1 C30 2.764 . S
C2 O18 1.261 1_556 S
C2 O19 1.257 . S
C3 C6 1.358 . S
C3 C7 1.332 . S
C3 C9 1.504 . S
C4 C5 1.373 . S
C4 C8 1.308 . S
C5 C4 1.373 . S
C5 C6 1.429 . S
C5 H32 0.932 . S
C6 C3 1.358 . S
C6 C5 1.429 . S
C6 H33 0.930 . S
C7 C3 1.332 . S
C7 C8 1.394 . S
C7 H34 0.932 . S
C8 C4 1.308 . S
C8 C7 1.394 . S
C8 H35 0.929 . S
C9 Tb0 2.764 . S
C9 C3 1.504 . S
C9 O21 1.239 . S
C9 O22 1.263 . S
O10 Tb0 2.325 . S
O10 C20 1.236 . S
O11 Tb1 2.322 1_554 S
O11 C20 1.257 . S
O12 Tb1 2.349 . S
O12 C23 1.261 1_556 S
O13 Tb0 2.303 . S
O13 C23 1.257 . S
O14 Tb1 2.415 . S
O14 C30 1.239 . S
O15 Tb1 2.399 . S
O15 C30 1.263 . S
O16 Tb1 2.325 . S
O16 C31 1.236 . S
O17 Tb0 2.322 1_556 S
O17 C31 1.257 . S
O18 Tb0 2.349 . S
O18 C2 1.261 1_554 S
O19 Tb1 2.303 . S
O19 C2 1.257 . S
C20 O10 1.236 . S
C20 O11 1.257 . S
O21 Tb0 2.415 . S
O21 C9 1.239 . S
O22 Tb0 2.399 . S
O22 C9 1.263 . S
C23 O12 1.261 1_554 S
C23 O13 1.257 . S
C24 C27 1.358 . S
C24 C28 1.332 . S
C24 C30 1.504 . S
C25 C26 1.373 . S
C25 C29 1.308 . S
C26 C25 1.373 . S
C26 C27 1.429 . S
C26 H36 0.932 . S
C27 C24 1.358 . S
C27 C26 1.429 . S
C27 H37 0.930 . S
C28 C24 1.332 . S
C28 C29 1.394 . S
C28 H38 0.932 . S
C29 C25 1.308 . S
C29 C28 1.394 . S
C29 H39 0.929 . S
C30 Tb1 2.764 . S
C30 O14 1.239 . S
C30 O15 1.263 . S
C30 C24 1.504 . S
C31 O16 1.236 . S
C31 O17 1.257 . S
H32 C5 0.932 . S
H33 C6 0.930 . S
H34 C7 0.932 . S
H35 C8 0.929 . S
H36 C26 0.932 . S
H37 C27 0.930 . S
H38 C28 0.932 . S
H39 C29 0.929 . S
Tb40 C49 2.764 . S
Tb40 O50 2.325 . S
Tb40 O53 2.303 . S
Tb40 O57 2.322 . S
Tb40 O58 2.349 . S
Tb40 O61 2.415 . S
Tb40 O62 2.399 . S
Tb41 O51 2.322 . S
Tb41 O52 2.349 . S
Tb41 O54 2.415 . S
Tb41 O55 2.399 . S
Tb41 O56 2.325 . S
Tb41 O59 2.303 . S
Tb41 C70 2.764 . S
C42 O58 1.261 . S
C42 O59 1.257 . S
C43 C46 1.358 . S
C43 C47 1.332 . S
C43 C49 1.504 . S
C44 C45 1.373 . S
C44 C48 1.308 . S
C45 C44 1.373 . S
C45 C46 1.429 . S
C45 H72 0.932 . S
C46 C43 1.358 . S
C46 C45 1.429 . S
C46 H73 0.930 . S
C47 C43 1.332 . S
C47 C48 1.394 . S
C47 H74 0.932 . S
C48 C44 1.308 . S
C48 C47 1.394 . S
C48 H75 0.929 . S
C49 Tb40 2.764 . S
C49 C43 1.504 . S
C49 O61 1.239 . S
C49 O62 1.263 . S
O50 Tb40 2.325 . S
O50 C60 1.236 . S
O51 Tb41 2.322 . S
O51 C60 1.257 . S
O52 Tb41 2.349 . S
O52 C63 1.261 . S
O53 Tb40 2.303 . S
O53 C63 1.257 . S
O54 Tb41 2.415 . S
O54 C70 1.239 . S
O55 Tb41 2.399 . S
O55 C70 1.263 . S
O56 Tb41 2.325 . S
O56 C71 1.236 . S
O57 Tb40 2.322 . S
O57 C71 1.257 . S
O58 Tb40 2.349 . S
O58 C42 1.261 . S
O59 Tb41 2.303 . S
O59 C42 1.257 . S
C60 O50 1.236 . S
C60 O51 1.257 . S
O61 Tb40 2.415 . S
O61 C49 1.239 . S
O62 Tb40 2.399 . S
O62 C49 1.263 . S
C63 O52 1.261 . S
C63 O53 1.257 . S
C64 C67 1.358 . S
C64 C68 1.332 . S
C64 C70 1.504 . S
C65 C66 1.373 . S
C65 C69 1.308 . S
C66 C65 1.373 . S
C66 C67 1.429 . S
C66 H76 0.932 . S
C67 C64 1.358 . S
C67 C66 1.429 . S
C67 H77 0.930 . S
C68 C64 1.332 . S
C68 C69 1.394 . S
C68 H78 0.932 . S
C69 C65 1.308 . S
C69 C68 1.394 . S
C69 H79 0.929 . S
C70 Tb41 2.764 . S
C70 O54 1.239 . S
C70 O55 1.263 . S
C70 C64 1.504 . S
C71 O56 1.236 . S
C71 O57 1.257 . S
H72 C45 0.932 . S
H73 C46 0.930 . S
H74 C47 0.932 . S
H75 C48 0.929 . S
H76 C66 0.932 . S
H77 C67 0.930 . S
H78 C68 0.932 . S
H79 C69 0.929 . S
Tb80 C89 2.764 . S
Tb80 O90 2.325 . S
Tb80 O93 2.303 . S
Tb80 O97 2.322 . S
Tb80 O98 2.349 . S
Tb80 O101 2.415 . S
Tb80 O102 2.399 . S
Tb81 O91 2.322 . S
Tb81 O92 2.349 . S
Tb81 O94 2.415 . S
Tb81 O95 2.399 . S
Tb81 O96 2.325 . S
Tb81 O99 2.303 . S
Tb81 C110 2.764 . S
C82 O98 1.261 . S
C82 O99 1.257 . S
C83 C86 1.358 . S
C83 C87 1.332 . S
C83 C89 1.504 . S
C84 C85 1.373 1_554 S
C84 C88 1.308 1_554 S
C85 C84 1.373 1_556 S
C85 C86 1.429 . S
C85 H112 0.932 . S
C86 C83 1.358 . S
C86 C85 1.429 . S
C86 H113 0.930 . S
C87 C83 1.332 . S
C87 C88 1.394 . S
C87 H114 0.932 . S
C88 C84 1.308 1_556 S
C88 C87 1.394 . S
C88 H115 0.929 1_556 S
C89 Tb80 2.764 . S
C89 C83 1.504 . S
C89 O101 1.239 . S
C89 O102 1.263 . S
O90 Tb80 2.325 . S
O90 C100 1.236 . S
O91 Tb81 2.322 . S
O91 C100 1.257 . S
O92 Tb81 2.349 . S
O92 C103 1.261 . S
O93 Tb80 2.303 . S
O93 C103 1.257 . S
O94 Tb81 2.415 . S
O94 C110 1.239 . S
O95 Tb81 2.399 . S
O95 C110 1.263 . S
O96 Tb81 2.325 . S
O96 C111 1.236 . S
O97 Tb80 2.322 . S
O97 C111 1.257 . S
O98 Tb80 2.349 . S
O98 C82 1.261 . S
O99 Tb81 2.303 . S
O99 C82 1.257 . S
C100 O90 1.236 . S
C100 O91 1.257 . S
O101 Tb80 2.415 . S
O101 C89 1.239 . S
O102 Tb80 2.399 . S
O102 C89 1.263 . S
C103 O92 1.261 . S
C103 O93 1.257 . S
C104 C107 1.358 . S
C104 C108 1.332 . S
C104 C110 1.504 . S
C105 C106 1.373 . S
C105 C109 1.308 . S
C106 C105 1.373 . S
C106 C107 1.429 . S
C106 H116 0.932 . S
C107 C104 1.358 . S
C107 C106 1.429 . S
C107 H117 0.930 . S
C108 C104 1.332 . S
C108 C109 1.394 . S
C108 H118 0.932 . S
C109 C105 1.308 . S
C109 C108 1.394 . S
C109 H119 0.929 . S
C110 Tb81 2.764 . S
C110 O94 1.239 . S
C110 O95 1.263 . S
C110 C104 1.504 . S
C111 O96 1.236 . S
C111 O97 1.257 . S
H112 C85 0.932 . S
H113 C86 0.930 . S
H114 C87 0.932 . S
H115 C88 0.929 1_554 S
H116 C106 0.932 . S
H117 C107 0.930 . S
H118 C108 0.932 . S
H119 C109 0.929 . S
Tb120 C129 2.764 . S
Tb120 O130 2.325 . S
Tb120 O133 2.303 . S
Tb120 O137 2.322 1_554 S
Tb120 O138 2.349 . S
Tb120 O141 2.415 . S
Tb120 O142 2.399 . S
Tb121 O131 2.322 1_556 S
Tb121 O132 2.349 . S
Tb121 O134 2.415 . S
Tb121 O135 2.399 . S
Tb121 O136 2.325 . S
Tb121 O139 2.303 . S
Tb121 C150 2.764 . S
C122 O138 1.261 1_556 S
C122 O139 1.257 . S
C123 C126 1.358 . S
C123 C127 1.332 . S
C123 C129 1.504 . S
C124 C125 1.373 . S
C124 C128 1.308 . S
C125 C124 1.373 . S
C125 C126 1.429 . S
C125 H152 0.932 . S
C126 C123 1.358 . S
C126 C125 1.429 . S
C126 H153 0.930 . S
C127 C123 1.332 . S
C127 C128 1.394 . S
C127 H154 0.932 . S
C128 C124 1.308 . S
C128 C127 1.394 . S
C128 H155 0.929 . S
C129 Tb120 2.764 . S
C129 C123 1.504 . S
C129 O141 1.239 . S
C129 O142 1.263 . S
O130 Tb120 2.325 . S
O130 C140 1.236 . S
O131 Tb121 2.322 1_554 S
O131 C140 1.257 . S
O132 Tb121 2.349 . S
O132 C143 1.261 1_556 S
O133 Tb120 2.303 . S
O133 C143 1.257 . S
O134 Tb121 2.415 . S
O134 C150 1.239 . S
O135 Tb121 2.399 . S
O135 C150 1.263 . S
O136 Tb121 2.325 . S
O136 C151 1.236 . S
O137 Tb120 2.322 1_556 S
O137 C151 1.257 . S
O138 Tb120 2.349 . S
O138 C122 1.261 1_554 S
O139 Tb121 2.303 . S
O139 C122 1.257 . S
C140 O130 1.236 . S
C140 O131 1.257 . S
O141 Tb120 2.415 . S
O141 C129 1.239 . S
O142 Tb120 2.399 . S
O142 C129 1.263 . S
C143 O132 1.261 1_554 S
C143 O133 1.257 . S
C144 C147 1.358 . S
C144 C148 1.332 . S
C144 C150 1.504 . S
C145 C146 1.373 . S
C145 C149 1.308 . S
C146 C145 1.373 . S
C146 C147 1.429 . S
C146 H156 0.932 . S
C147 C144 1.358 . S
C147 C146 1.429 . S
C147 H157 0.930 . S
C148 C144 1.332 . S
C148 C149 1.394 . S
C148 H158 0.932 . S
C149 C145 1.308 . S
C149 C148 1.394 . S
C149 H159 0.929 . S
C150 Tb121 2.764 . S
C150 O134 1.239 . S
C150 O135 1.263 . S
C150 C144 1.504 . S
C151 O136 1.236 . S
C151 O137 1.257 . S
H152 C125 0.932 . S
H153 C126 0.930 . S
H154 C127 0.932 . S
H155 C128 0.929 . S
H156 C146 0.932 . S
H157 C147 0.930 . S
H158 C148 0.932 . S
H159 C149 0.929 . S
Tb160 C169 2.764 . S
Tb160 O170 2.325 . S
Tb160 O173 2.303 . S
Tb160 O177 2.322 . S
Tb160 O178 2.349 . S
Tb160 O181 2.415 . S
Tb160 O182 2.399 . S
Tb161 O171 2.322 . S
Tb161 O172 2.349 . S
Tb161 O174 2.415 . S
Tb161 O175 2.399 . S
Tb161 O176 2.325 . S
Tb161 O179 2.303 . S
Tb161 C190 2.764 . S
C162 O178 1.261 . S
C162 O179 1.257 . S
C163 C166 1.358 . S
C163 C167 1.332 . S
C163 C169 1.504 . S
C164 C165 1.373 . S
C164 C168 1.308 . S
C165 C164 1.373 . S
C165 C166 1.429 . S
C165 H192 0.932 . S
C166 C163 1.358 . S
C166 C165 1.429 . S
C166 H193 0.930 . S
C167 C163 1.332 . S
C167 C168 1.394 . S
C167 H194 0.932 . S
C168 C164 1.308 . S
C168 C167 1.394 . S
C168 H195 0.929 . S
C169 Tb160 2.764 . S
C169 C163 1.504 . S
C169 O181 1.239 . S
C169 O182 1.263 . S
O170 Tb160 2.325 . S
O170 C180 1.236 . S
O171 Tb161 2.322 . S
O171 C180 1.257 . S
O172 Tb161 2.349 . S
O172 C183 1.261 . S
O173 Tb160 2.303 . S
O173 C183 1.257 . S
O174 Tb161 2.415 . S
O174 C190 1.239 . S
O175 Tb161 2.399 . S
O175 C190 1.263 . S
O176 Tb161 2.325 . S
O176 C191 1.236 . S
O177 Tb160 2.322 . S
O177 C191 1.257 . S
O178 Tb160 2.349 . S
O178 C162 1.261 . S
O179 Tb161 2.303 . S
O179 C162 1.257 . S
C180 O170 1.236 . S
C180 O171 1.257 . S
O181 Tb160 2.415 . S
O181 C169 1.239 . S
O182 Tb160 2.399 . S
O182 C169 1.263 . S
C183 O172 1.261 . S
C183 O173 1.257 . S
C184 C187 1.358 . S
C184 C188 1.332 . S
C184 C190 1.504 . S
C185 C186 1.373 . S
C185 C189 1.308 . S
C186 C185 1.373 . S
C186 C187 1.429 . S
C186 H196 0.932 . S
C187 C184 1.358 . S
C187 C186 1.429 . S
C187 H197 0.930 . S
C188 C184 1.332 . S
C188 C189 1.394 . S
C188 H198 0.932 . S
C189 C185 1.308 . S
C189 C188 1.394 . S
C189 H199 0.929 . S
C190 Tb161 2.764 . S
C190 O174 1.239 . S
C190 O175 1.263 . S
C190 C184 1.504 . S
C191 O176 1.236 . S
C191 O177 1.257 . S
H192 C165 0.932 . S
H193 C166 0.930 . S
H194 C167 0.932 . S
H195 C168 0.929 . S
H196 C186 0.932 . S
H197 C187 0.930 . S
H198 C188 0.932 . S
H199 C189 0.929 . S
Tb200 C209 2.764 . S
Tb200 O210 2.325 . S
Tb200 O213 2.303 . S
Tb200 O217 2.322 . S
Tb200 O218 2.349 . S
Tb200 O221 2.415 . S
Tb200 O222 2.399 . S
Tb201 O211 2.322 . S
Tb201 O212 2.349 . S
Tb201 O214 2.415 . S
Tb201 O215 2.399 . S
Tb201 O216 2.325 . S
Tb201 O219 2.303 . S
Tb201 C230 2.764 . S
C202 O218 1.261 . S
C202 O219 1.257 . S
C203 C206 1.358 . S
C203 C207 1.332 . S
C203 C209 1.504 . S
C204 C205 1.373 1_554 S
C204 C208 1.308 1_554 S
C205 C204 1.373 1_556 S
C205 C206 1.429 . S
C205 H232 0.932 . S
C206 C203 1.358 . S
C206 C205 1.429 . S
C206 H233 0.930 . S
C207 C203 1.332 . S
C207 C208 1.394 . S
C207 H234 0.932 . S
C208 C204 1.308 1_556 S
C208 C207 1.394 . S
C208 H235 0.929 1_556 S
C209 Tb200 2.764 . S
C209 C203 1.504 . S
C209 O221 1.239 . S
C209 O222 1.263 . S
O210 Tb200 2.325 . S
O210 C220 1.236 . S
O211 Tb201 2.322 . S
O211 C220 1.257 . S
O212 Tb201 2.349 . S
O212 C223 1.261 . S
O213 Tb200 2.303 . S
O213 C223 1.257 . S
O214 Tb201 2.415 . S
O214 C230 1.239 . S
O215 Tb201 2.399 . S
O215 C230 1.263 . S
O216 Tb201 2.325 . S
O216 C231 1.236 . S
O217 Tb200 2.322 . S
O217 C231 1.257 . S
O218 Tb200 2.349 . S
O218 C202 1.261 . S
O219 Tb201 2.303 . S
O219 C202 1.257 . S
C220 O210 1.236 . S
C220 O211 1.257 . S
O221 Tb200 2.415 . S
O221 C209 1.239 . S
O222 Tb200 2.399 . S
O222 C209 1.263 . S
C223 O212 1.261 . S
C223 O213 1.257 . S
C224 C227 1.358 . S
C224 C228 1.332 . S
C224 C230 1.504 . S
C225 C226 1.373 . S
C225 C229 1.308 . S
C226 C225 1.373 . S
C226 C227 1.429 . S
C226 H236 0.932 . S
C227 C224 1.358 . S
C227 C226 1.429 . S
C227 H237 0.930 . S
C228 C224 1.332 . S
C228 C229 1.394 . S
C228 H238 0.932 . S
C229 C225 1.308 . S
C229 C228 1.394 . S
C229 H239 0.929 . S
C230 Tb201 2.764 . S
C230 O214 1.239 . S
C230 O215 1.263 . S
C230 C224 1.504 . S
C231 O216 1.236 . S
C231 O217 1.257 . S
H232 C205 0.932 . S
H233 C206 0.930 . S
H234 C207 0.932 . S
H235 C208 0.929 1_554 S
H236 C226 0.932 . S
H237 C227 0.930 . S
H238 C228 0.932 . S
H239 C229 0.929 . S
H240 C252 0.930 . S
H241 C254 0.930 . S
H242 C255 0.930 . S
H243 C259 0.959 . S
H244 C259 0.959 . S
H245 C259 0.961 . S
H246 C260 0.960 . S
H247 C260 0.961 . S
H248 C260 0.959 . S
H249 C263 0.929 . S
H250 C264 0.931 . S
H251 C266 0.930 . S
C252 H240 0.930 . S
C252 C253 1.399 . S
C252 C257 1.399 . S
C253 C252 1.399 . S
C253 C254 1.376 . S
C254 H241 0.930 . S
C254 C253 1.376 . S
C254 C255 1.388 . S
C255 H242 0.930 . S
C255 C254 1.388 . S
C255 C256 1.390 . S
C256 C255 1.390 . S
C256 C257 1.394 . S
C256 C262 1.465 . S
C257 C252 1.399 . S
C257 C256 1.394 . S
C257 C258 1.516 . S
C258 C257 1.516 . S
C258 C259 1.502 . S
C258 C260 1.561 . S
C258 C261 1.526 . S
C259 H243 0.959 . S
C259 H244 0.959 . S
C259 H245 0.961 . S
C259 C258 1.502 . S
C260 H246 0.960 . S
C260 H247 0.961 . S
C260 H248 0.959 . S
C260 C258 1.561 . S
C261 C258 1.526 . S
C261 C262 1.396 . S
C261 C266 1.390 . S
C262 C256 1.465 . S
C262 C261 1.396 . S
C262 C263 1.399 . S
C263 H249 0.929 . S
C263 C262 1.399 . S
C263 C264 1.385 . S
C264 H250 0.931 . S
C264 C263 1.385 . S
C264 C265 1.389 . S
C265 C264 1.389 . S
C265 C266 1.387 . S
C266 H251 0.930 . S
C266 C261 1.390 . S
C266 C265 1.387 . S
H267 C279 0.930 . S
H268 C281 0.930 . S
H269 C282 0.930 . S
H270 C286 0.959 . S
H271 C286 0.959 . S
H272 C286 0.961 . S
H273 C287 0.960 . S
H274 C287 0.961 . S
H275 C287 0.959 . S
H276 C290 0.929 1_455 S
H277 C291 0.931 . S
H278 C293 0.930 . S
C279 H267 0.930 . S
C279 C280 1.399 . S
C279 C284 1.399 . S
C280 C279 1.399 . S
C280 C281 1.376 . S
C281 H268 0.930 . S
C281 C280 1.376 . S
C281 C282 1.388 . S
C282 H269 0.930 . S
C282 C281 1.388 . S
C282 C283 1.390 . S
C283 C282 1.390 . S
C283 C284 1.394 . S
C283 C289 1.465 1_455 S
C284 C279 1.399 . S
C284 C283 1.394 . S
C284 C285 1.516 1_455 S
C285 C284 1.516 1_655 S
C285 C286 1.502 . S
C285 C287 1.561 . S
C285 C288 1.526 . S
C286 H270 0.959 . S
C286 H271 0.959 . S
C286 H272 0.961 . S
C286 C285 1.502 . S
C287 H273 0.960 . S
C287 H274 0.961 . S
C287 H275 0.959 . S
C287 C285 1.561 . S
C288 C285 1.526 . S
C288 C289 1.396 . S
C288 C293 1.390 . S
C289 C283 1.465 1_655 S
C289 C288 1.396 . S
C289 C290 1.399 . S
C290 H276 0.929 1_655 S
C290 C289 1.399 . S
C290 C291 1.385 . S
C291 H277 0.931 . S
C291 C290 1.385 . S
C291 C292 1.389 . S
C292 C291 1.389 . S
C292 C293 1.387 . S
C293 H278 0.930 . S
C293 C288 1.390 . S
C293 C292 1.387 . S
H294 C306 0.930 . S
H295 C308 0.930 . S
H296 C309 0.930 1_565 S
H297 C313 0.959 . S
H298 C313 0.959 . S
H299 C313 0.961 . S
H300 C314 0.960 . S
H301 C314 0.961 . S
H302 C314 0.959 . S
H303 C317 0.929 . S
H304 C318 0.931 . S
H305 C320 0.930 . S
C306 H294 0.930 . S
C306 C307 1.399 . S
C306 C311 1.399 . S
C307 C306 1.399 . S
C307 C308 1.376 . S
C308 H295 0.930 . S
C308 C307 1.376 . S
C308 C309 1.388 . S
C309 H296 0.930 1_545 S
C309 C308 1.388 . S
C309 C310 1.388 . S
C310 C309 1.388 . S
C310 C311 1.409 . S
C310 C316 1.454 1_545 S
C311 C306 1.399 . S
C311 C310 1.409 . S
C311 C312 1.516 . S
C312 C311 1.516 . S
C312 C313 1.502 . S
C312 C314 1.561 . S
C312 C315 1.526 1_545 S
C313 H297 0.959 . S
C313 H298 0.959 . S
C313 H299 0.961 . S
C313 C312 1.502 . S
C314 H300 0.960 . S
C314 H301 0.961 . S
C314 H302 0.959 . S
C314 C312 1.561 . S
C315 C312 1.526 1_565 S
C315 C316 1.396 . S
C315 C320 1.390 . S
C316 C310 1.454 1_565 S
C316 C315 1.396 . S
C316 C317 1.399 . S
C317 H303 0.929 . S
C317 C316 1.399 . S
C317 C318 1.385 . S
C318 H304 0.931 . S
C318 C317 1.385 . S
C318 C319 1.389 . S
C319 C318 1.389 . S
C319 C320 1.387 . S
C320 H305 0.930 . S
C320 C315 1.390 . S
C320 C319 1.387 . S
H321 C333 0.930 . S
H322 C335 0.930 . S
H323 C336 0.930 . S
H324 C340 0.959 . S
H325 C340 0.959 . S
H326 C340 0.961 . S
H327 C341 0.960 . S
H328 C341 0.961 . S
H329 C341 0.959 . S
H330 C344 0.929 . S
H331 C345 0.931 . S
H332 C347 0.930 . S
C333 H321 0.930 . S
C333 C334 1.399 . S
C333 C338 1.399 . S
C334 C333 1.399 . S
C334 C335 1.376 . S
C335 H322 0.930 . S
C335 C334 1.376 . S
C335 C336 1.388 . S
C336 H323 0.930 . S
C336 C335 1.388 . S
C336 C337 1.390 . S
C337 C336 1.390 . S
C337 C338 1.394 . S
C337 C343 1.465 . S
C338 C333 1.399 . S
C338 C337 1.394 . S
C338 C339 1.516 . S
C339 C338 1.516 . S
C339 C340 1.502 . S
C339 C341 1.561 . S
C339 C342 1.526 . S
C340 H324 0.959 . S
C340 H325 0.959 . S
C340 H326 0.961 . S
C340 C339 1.502 . S
C341 H327 0.960 . S
C341 H328 0.961 . S
C341 H329 0.959 . S
C341 C339 1.561 . S
C342 C339 1.526 . S
C342 C343 1.396 . S
C342 C347 1.390 . S
C343 C337 1.465 . S
C343 C342 1.396 . S
C343 C344 1.399 . S
C344 H330 0.929 . S
C344 C343 1.399 . S
C344 C345 1.385 . S
C345 H331 0.931 . S
C345 C344 1.385 . S
C345 C346 1.389 . S
C346 C345 1.389 . S
C346 C347 1.387 . S
C347 H332 0.930 . S
C347 C342 1.390 . S
C347 C346 1.387 . S
H348 C360 0.930 . S
H349 C362 0.930 . S
H350 C363 0.930 . S
H351 C367 0.959 . S
H352 C367 0.959 1_655 S
H353 C367 0.961 . S
H354 C368 0.960 . S
H355 C368 0.961 . S
H356 C368 0.959 . S
H357 C371 0.929 . S
H358 C372 0.931 . S
H359 C374 0.930 . S
C360 H348 0.930 . S
C360 C361 1.399 . S
C360 C365 1.399 . S
C361 C360 1.399 . S
C361 C362 1.376 . S
C362 H349 0.930 . S
C362 C361 1.376 . S
C362 C363 1.388 . S
C363 H350 0.930 . S
C363 C362 1.388 . S
C363 C364 1.390 . S
C364 C363 1.390 . S
C364 C365 1.394 . S
C364 C370 1.465 1_455 S
C365 C360 1.399 . S
C365 C364 1.394 . S
C365 C366 1.516 1_455 S
C366 C365 1.516 1_655 S
C366 C367 1.502 1_655 S
C366 C368 1.561 . S
C366 C369 1.526 . S
C367 H351 0.959 . S
C367 H352 0.959 1_455 S
C367 H353 0.961 . S
C367 C366 1.502 1_455 S
C368 H354 0.960 . S
C368 H355 0.961 . S
C368 H356 0.959 . S
C368 C366 1.561 . S
C369 C366 1.526 . S
C369 C370 1.396 . S
C369 C374 1.390 . S
C370 C364 1.465 1_655 S
C370 C369 1.396 . S
C370 C371 1.399 . S
C371 H357 0.929 . S
C371 C370 1.399 . S
C371 C372 1.385 . S
C372 H358 0.931 . S
C372 C371 1.385 . S
C372 C373 1.389 . S
C373 C372 1.389 . S
C373 C374 1.387 . S
C374 H359 0.930 . S
C374 C369 1.390 . S
C374 C373 1.387 . S
H375 C387 0.930 . S
H376 C389 0.930 . S
H377 C390 0.930 . S
H378 C394 0.959 . S
H379 C394 0.959 . S
H380 C394 0.961 . S
H381 C395 0.960 . S
H382 C395 0.961 . S
H383 C395 0.959 . S
H384 C398 0.934 . S
H385 C399 0.931 . S
H386 C401 0.930 . S
C387 H375 0.930 . S
C387 C388 1.399 . S
C387 C392 1.399 . S
C388 C387 1.399 . S
C388 C389 1.376 . S
C389 H376 0.930 . S
C389 C388 1.376 . S
C389 C390 1.388 . S
C390 H377 0.930 . S
C390 C389 1.388 . S
C390 C391 1.390 . S
C391 C390 1.390 . S
C391 C392 1.394 . S
C391 C397 1.448 1_545 S
C392 C387 1.399 . S
C392 C391 1.394 . S
C392 C393 1.516 1_545 S
C393 C392 1.516 1_565 S
C393 C394 1.502 . S
C393 C395 1.561 . S
C393 C396 1.526 . S
C394 H378 0.959 . S
C394 H379 0.959 . S
C394 H380 0.961 . S
C394 C393 1.502 . S
C395 H381 0.960 . S
C395 H382 0.961 . S
C395 H383 0.959 . S
C395 C393 1.561 . S
C396 C393 1.526 . S
C396 C397 1.418 . S
C396 C401 1.390 . S
C397 C391 1.448 1_565 S
C397 C396 1.418 . S
C397 C398 1.397 1_565 S
C398 H384 0.934 . S
C398 C397 1.397 1_545 S
C398 C399 1.381 1_545 S
C399 H385 0.931 . S
C399 C398 1.381 1_565 S
C399 C400 1.389 . S
C400 C399 1.389 . S
C400 C401 1.387 . S
C401 H386 0.930 . S
C401 C396 1.390 . S
C401 C400 1.387 . S
H402 C414 0.930 . S
H403 C416 0.930 . S
H404 C417 0.930 . S
H405 C421 0.959 . S
H406 C421 0.959 . S
H407 C421 0.961 . S
H408 C422 0.960 . S
H409 C422 0.961 . S
H410 C422 0.959 . S
H411 C425 0.929 . S
H412 C426 0.931 . S
H413 C428 0.930 . S
C414 H402 0.930 . S
C414 C415 1.399 . S
C414 C419 1.399 . S
C415 C414 1.399 . S
C415 C416 1.376 . S
C416 H403 0.930 . S
C416 C415 1.376 . S
C416 C417 1.388 . S
C417 H404 0.930 . S
C417 C416 1.388 . S
C417 C418 1.390 . S
C418 C417 1.390 . S
C418 C419 1.394 . S
C418 C424 1.465 . S
C419 C414 1.399 . S
C419 C418 1.394 . S
C419 C420 1.516 . S
C420 C419 1.516 . S
C420 C421 1.502 . S
C420 C422 1.561 . S
C420 C423 1.526 . S
C421 H405 0.959 . S
C421 H406 0.959 . S
C421 H407 0.961 . S
C421 C420 1.502 . S
C422 H408 0.960 . S
C422 H409 0.961 . S
C422 H410 0.959 . S
C422 C420 1.561 . S
C423 C420 1.526 . S
C423 C424 1.396 . S
C423 C428 1.390 . S
C424 C418 1.465 . S
C424 C423 1.396 . S
C424 C425 1.399 . S
C425 H411 0.929 . S
C425 C424 1.399 . S
C425 C426 1.385 . S
C426 H412 0.931 . S
C426 C425 1.385 . S
C426 C427 1.389 . S
C427 C426 1.389 . S
C427 C428 1.387 . S
C428 H413 0.930 . S
C428 C423 1.390 . S
C428 C427 1.387 . S
H429 C441 0.930 . S
H430 C443 0.930 . S
H431 C444 0.930 . S
H432 C448 0.959 . S
H433 C448 0.959 . S
H434 C448 0.961 . S
H435 C449 0.960 . S
H436 C449 0.961 . S
H437 C449 0.959 . S
H438 C452 0.929 . S
H439 C453 0.931 . S
H440 C455 0.930 . S
C441 H429 0.930 . S
C441 C442 1.399 . S
C441 C446 1.399 . S
C442 C441 1.399 . S
C442 C443 1.376 . S
C443 H430 0.930 . S
C443 C442 1.376 . S
C443 C444 1.388 . S
C444 H431 0.930 . S
C444 C443 1.388 . S
C444 C445 1.390 . S
C445 C444 1.390 . S
C445 C446 1.394 . S
C445 C451 1.465 . S
C446 C441 1.399 . S
C446 C445 1.394 . S
C446 C447 1.516 . S
C447 C446 1.516 . S
C447 C448 1.502 . S
C447 C449 1.561 . S
C447 C450 1.526 . S
C448 H432 0.959 . S
C448 H433 0.959 . S
C448 H434 0.961 . S
C448 C447 1.502 . S
C449 H435 0.960 . S
C449 H436 0.961 . S
C449 H437 0.959 . S
C449 C447 1.561 . S
C450 C447 1.526 . S
C450 C451 1.396 . S
C450 C455 1.390 . S
C451 C445 1.465 . S
C451 C450 1.396 . S
C451 C452 1.399 . S
C452 H438 0.929 . S
C452 C451 1.399 . S
C452 C453 1.385 . S
C453 H439 0.931 . S
C453 C452 1.385 . S
C453 C454 1.389 . S
C454 C453 1.389 . S
C454 C455 1.387 . S
C455 H440 0.930 . S
C455 C450 1.390 . S
C455 C454 1.387 . S
H456 C468 0.930 . S
H457 C470 0.930 . S
H458 C471 0.930 . S
H459 C475 0.959 . S
H460 C475 0.959 . S
H461 C475 0.961 . S
H462 C476 0.960 . S
H463 C476 0.961 . S
H464 C476 0.959 . S
H465 C479 0.929 . S
H466 C480 0.931 . S
H467 C482 0.930 . S
C468 H456 0.930 . S
C468 C469 1.399 . S
C468 C473 1.399 . S
C469 C468 1.399 . S
C469 C470 1.376 . S
C470 H457 0.930 . S
C470 C469 1.376 . S
C470 C471 1.388 . S
C471 H458 0.930 . S
C471 C470 1.388 . S
C471 C472 1.390 . S
C472 C471 1.390 . S
C472 C473 1.394 . S
C472 C478 1.465 . S
C473 C468 1.399 . S
C473 C472 1.394 . S
C473 C474 1.516 . S
C474 C473 1.516 . S
C474 C475 1.502 . S
C474 C476 1.561 . S
C474 C477 1.526 . S
C475 H459 0.959 . S
C475 H460 0.959 . S
C475 H461 0.961 . S
C475 C474 1.502 . S
C476 H462 0.960 . S
C476 H463 0.961 . S
C476 H464 0.959 . S
C476 C474 1.561 . S
C477 C474 1.526 . S
C477 C478 1.396 . S
C477 C482 1.390 . S
C478 C472 1.465 . S
C478 C477 1.396 . S
C478 C479 1.399 . S
C479 H465 0.929 . S
C479 C478 1.399 . S
C479 C480 1.385 . S
C480 H466 0.931 . S
C480 C479 1.385 . S
C480 C481 1.389 . S
C481 C480 1.389 . S
C481 C482 1.387 . S
C482 H467 0.930 . S
C482 C477 1.390 . S
C482 C481 1.387 . S
H483 C495 0.930 . S
H484 C497 0.930 . S
H485 C498 0.930 . S
H486 C502 0.959 . S
H487 C502 0.959 . S
H488 C502 0.961 . S
H489 C503 0.960 . S
H490 C503 0.961 . S
H491 C503 0.959 . S
H492 C506 0.929 . S
H493 C507 0.931 . S
H494 C509 0.930 . S
C495 H483 0.930 . S
C495 C496 1.399 . S
C495 C500 1.399 . S
C496 C495 1.399 . S
C496 C497 1.376 . S
C497 H484 0.930 . S
C497 C496 1.376 . S
C497 C498 1.388 . S
C498 H485 0.930 . S
C498 C497 1.388 . S
C498 C499 1.390 . S
C499 C498 1.390 . S
C499 C500 1.394 . S
C499 C505 1.465 . S
C500 C495 1.399 . S
C500 C499 1.394 . S
C500 C501 1.516 . S
C501 C500 1.516 . S
C501 C502 1.502 . S
C501 C503 1.561 . S
C501 C504 1.526 . S
C502 H486 0.959 . S
C502 H487 0.959 . S
C502 H488 0.961 . S
C502 C501 1.502 . S
C503 H489 0.960 . S
C503 H490 0.961 . S
C503 H491 0.959 . S
C503 C501 1.561 . S
C504 C501 1.526 . S
C504 C505 1.396 . S
C504 C509 1.390 . S
C505 C499 1.465 . S
C505 C504 1.396 . S
C505 C506 1.399 . S
C506 H492 0.929 . S
C506 C505 1.399 . S
C506 C507 1.385 . S
C507 H493 0.931 . S
C507 C506 1.385 . S
C507 C508 1.389 . S
C508 C507 1.389 . S
C508 C509 1.387 . S
C509 H494 0.930 . S
C509 C504 1.390 . S
C509 C508 1.387 . S
H510 C522 0.930 . S
H511 C524 0.930 . S
H512 C525 0.930 . S
H513 C529 0.959 . S
H514 C529 0.959 . S
H515 C529 0.961 . S
H516 C530 0.960 . S
H517 C530 0.961 . S
H518 C530 0.959 . S
H519 C533 0.929 . S
H520 C534 0.931 1_554 S
H521 C536 0.930 . S
C522 H510 0.930 . S
C522 C523 1.399 . S
C522 C527 1.399 . S
C523 C522 1.399 . S
C523 C524 1.376 . S
C524 H511 0.930 . S
C524 C523 1.376 . S
C524 C525 1.388 . S
C525 H512 0.930 . S
C525 C524 1.388 . S
C525 C526 1.390 . S
C526 C525 1.390 . S
C526 C527 1.394 . S
C526 C532 1.465 . S
C527 C522 1.399 . S
C527 C526 1.394 . S
C527 C528 1.516 . S
C528 C527 1.516 . S
C528 C529 1.502 . S
C528 C530 1.561 . S
C528 C531 1.526 . S
C529 H513 0.959 . S
C529 H514 0.959 . S
C529 H515 0.961 . S
C529 C528 1.502 . S
C530 H516 0.960 . S
C530 H517 0.961 . S
C530 H518 0.959 . S
C530 C528 1.561 . S
C531 C528 1.526 . S
C531 C532 1.396 . S
C531 C536 1.390 . S
C532 C526 1.465 . S
C532 C531 1.396 . S
C532 C533 1.399 . S
C533 H519 0.929 . S
C533 C532 1.399 . S
C533 C534 1.385 . S
C534 H520 0.931 1_556 S
C534 C533 1.385 . S
C534 C535 1.389 . S
C535 C534 1.389 . S
C535 C536 1.387 . S
C536 H521 0.930 . S
C536 C531 1.390 . S
C536 C535 1.387 . S
H537 C549 0.930 . S
H538 C551 0.930 . S
H539 C552 0.930 . S
H540 C556 0.959 . S
H541 C556 0.959 . S
H542 C556 0.961 . S
H543 C557 0.960 . S
H544 C557 0.961 . S
H545 C557 0.959 . S
H546 C560 0.929 . S
H547 C561 0.931 . S
H548 C563 0.930 . S
C549 H537 0.930 . S
C549 C550 1.399 . S
C549 C554 1.399 . S
C550 C549 1.399 . S
C550 C551 1.376 . S
C551 H538 0.930 . S
C551 C550 1.376 . S
C551 C552 1.388 . S
C552 H539 0.930 . S
C552 C551 1.388 . S
C552 C553 1.390 . S
C553 C552 1.390 . S
C553 C554 1.394 . S
C553 C559 1.465 . S
C554 C549 1.399 . S
C554 C553 1.394 . S
C554 C555 1.516 . S
C555 C554 1.516 . S
C555 C556 1.502 . S
C555 C557 1.561 . S
C555 C558 1.526 . S
C556 H540 0.959 . S
C556 H541 0.959 . S
C556 H542 0.961 . S
C556 C555 1.502 . S
C557 H543 0.960 . S
C557 H544 0.961 . S
C557 H545 0.959 . S
C557 C555 1.561 . S
C558 C555 1.526 . S
C558 C559 1.396 . S
C558 C563 1.390 . S
C559 C553 1.465 . S
C559 C558 1.396 . S
C559 C560 1.399 . S
C560 H546 0.929 . S
C560 C559 1.399 . S
C560 C561 1.385 . S
C561 H547 0.931 . S
C561 C560 1.385 . S
C561 C562 1.389 . S
C562 C561 1.389 . S
C562 C563 1.387 . S
C563 H548 0.930 . S
C563 C558 1.390 . S
C563 C562 1.387 . S
H564 C576 0.930 . S
H565 C578 0.930 . S
H566 C579 0.930 . S
H567 C583 0.959 . S
H568 C583 0.959 . S
H569 C583 0.961 . S
H570 C584 0.960 . S
H571 C584 0.961 . S
H572 C584 0.959 . S
H573 C587 0.929 . S
H574 C588 0.931 . S
H575 C590 0.930 . S
C576 H564 0.930 . S
C576 C577 1.399 . S
C576 C581 1.399 . S
C577 C576 1.399 . S
C577 C578 1.376 . S
C578 H565 0.930 . S
C578 C577 1.376 . S
C578 C579 1.388 . S
C579 H566 0.930 . S
C579 C578 1.388 . S
C579 C580 1.390 . S
C580 C579 1.390 . S
C580 C581 1.394 . S
C580 C586 1.465 . S
C581 C576 1.399 . S
C581 C580 1.394 . S
C581 C582 1.516 . S
C582 C581 1.516 . S
C582 C583 1.502 . S
C582 C584 1.561 . S
C582 C585 1.526 . S
C583 H567 0.959 . S
C583 H568 0.959 . S
C583 H569 0.961 . S
C583 C582 1.502 . S
C584 H570 0.960 . S
C584 H571 0.961 . S
C584 H572 0.959 . S
C584 C582 1.561 . S
C585 C582 1.526 . S
C585 C586 1.396 . S
C585 C590 1.390 . S
C586 C580 1.465 . S
C586 C585 1.396 . S
C586 C587 1.399 . S
C587 H573 0.929 . S
C587 C586 1.399 . S
C587 C588 1.385 . S
C588 H574 0.931 . S
C588 C587 1.385 . S
C588 C589 1.389 . S
C589 C588 1.389 . S
C589 C590 1.387 . S
C590 H575 0.930 . S
C590 C585 1.390 . S
C590 C589 1.387 . S
H591 C603 0.930 . S
H592 C605 0.930 . S
H593 C606 0.930 . S
H594 C610 0.959 . S
H595 C610 0.959 . S
H596 C610 0.961 . S
H597 C611 0.960 . S
H598 C611 0.961 . S
H599 C611 0.959 . S
H600 C614 0.929 . S
H601 C615 0.931 . S
H602 C617 0.930 . S
C603 H591 0.930 . S
C603 C604 1.399 . S
C603 C608 1.399 . S
C604 C603 1.399 . S
C604 C605 1.376 . S
C605 H592 0.930 . S
C605 C604 1.376 . S
C605 C606 1.388 . S
C606 H593 0.930 . S
C606 C605 1.388 . S
C606 C607 1.390 . S
C607 C606 1.390 . S
C607 C608 1.394 . S
C607 C613 1.465 . S
C608 C603 1.399 . S
C608 C607 1.394 . S
C608 C609 1.516 . S
C609 C608 1.516 . S
C609 C610 1.502 . S
C609 C611 1.561 . S
C609 C612 1.526 . S
C610 H594 0.959 . S
C610 H595 0.959 . S
C610 H596 0.961 . S
C610 C609 1.502 . S
C611 H597 0.960 . S
C611 H598 0.961 . S
C611 H599 0.959 . S
C611 C609 1.561 . S
C612 C609 1.526 . S
C612 C613 1.396 . S
C612 C617 1.390 . S
C613 C607 1.465 . S
C613 C612 1.396 . S
C613 C614 1.399 . S
C614 H600 0.929 . S
C614 C613 1.399 . S
C614 C615 1.385 . S
C615 H601 0.931 . S
C615 C614 1.385 . S
C615 C616 1.389 . S
C616 C615 1.389 . S
C616 C617 1.387 . S
C617 H602 0.930 . S
C617 C612 1.390 . S
C617 C616 1.387 . S
H618 C630 0.930 . S
H619 C632 0.930 . S
H620 C633 0.930 . S
H621 C637 0.959 . S
H622 C637 0.959 . S
H623 C637 0.961 . S
H624 C638 0.960 . S
H625 C638 0.961 . S
H626 C638 0.959 . S
H627 C641 0.929 . S
H628 C642 0.931 . S
H629 C644 0.930 . S
C630 H618 0.930 . S
C630 C631 1.399 . S
C630 C635 1.399 . S
C631 C630 1.399 . S
C631 C632 1.376 . S
C632 H619 0.930 . S
C632 C631 1.376 . S
C632 C633 1.388 . S
C633 H620 0.930 . S
C633 C632 1.388 . S
C633 C634 1.390 . S
C634 C633 1.390 . S
C634 C635 1.394 . S
C634 C640 1.465 . S
C635 C630 1.399 . S
C635 C634 1.394 . S
C635 C636 1.516 . S
C636 C635 1.516 . S
C636 C637 1.502 . S
C636 C638 1.561 . S
C636 C639 1.526 . S
C637 H621 0.959 . S
C637 H622 0.959 . S
C637 H623 0.961 . S
C637 C636 1.502 . S
C638 H624 0.960 . S
C638 H625 0.961 . S
C638 H626 0.959 . S
C638 C636 1.561 . S
C639 C636 1.526 . S
C639 C640 1.396 . S
C639 C644 1.390 . S
C640 C634 1.465 . S
C640 C639 1.396 . S
C640 C641 1.399 . S
C641 H627 0.929 . S
C641 C640 1.399 . S
C641 C642 1.385 . S
C642 H628 0.931 . S
C642 C641 1.385 . S
C642 C643 1.389 . S
C643 C642 1.389 . S
C643 C644 1.387 . S
C644 H629 0.930 . S
C644 C639 1.390 . S
C644 C643 1.387 . S
H645 C657 0.930 . S
H646 C659 0.930 . S
H647 C660 0.930 . S
H648 C664 0.959 . S
H649 C664 0.959 . S
H650 C664 0.961 . S
H651 C665 0.960 . S
H652 C665 0.961 . S
H653 C665 0.959 . S
H654 C668 0.929 . S
H655 C669 0.931 . S
H656 C671 0.930 . S
C657 H645 0.930 . S
C657 C658 1.399 . S
C657 C662 1.399 . S
C658 C657 1.399 . S
C658 C659 1.376 . S
C659 H646 0.930 . S
C659 C658 1.376 . S
C659 C660 1.388 . S
C660 H647 0.930 . S
C660 C659 1.388 . S
C660 C661 1.390 . S
C661 C660 1.390 . S
C661 C662 1.394 . S
C661 C667 1.465 . S
C662 C657 1.399 . S
C662 C661 1.394 . S
C662 C663 1.516 . S
C663 C662 1.516 . S
C663 C664 1.502 . S
C663 C665 1.561 . S
C663 C666 1.526 . S
C664 H648 0.959 . S
C664 H649 0.959 . S
C664 H650 0.961 . S
C664 C663 1.502 . S
C665 H651 0.960 . S
C665 H652 0.961 . S
C665 H653 0.959 . S
C665 C663 1.561 . S
C666 C663 1.526 . S
C666 C667 1.396 . S
C666 C671 1.390 . S
C667 C661 1.465 . S
C667 C666 1.396 . S
C667 C668 1.399 . S
C668 H654 0.929 . S
C668 C667 1.399 . S
C668 C669 1.385 . S
C669 H655 0.931 . S
C669 C668 1.385 . S
C669 C670 1.389 . S
C670 C669 1.389 . S
C670 C671 1.387 . S
C671 H656 0.930 . S
C671 C666 1.390 . S
C671 C670 1.387 . S
H672 C684 0.930 . S
H673 C686 0.930 . S
H674 C687 0.930 . S
H675 C691 0.959 . S
H676 C691 0.959 . S
H677 C691 0.961 . S
H678 C692 0.960 . S
H679 C692 0.961 . S
H680 C692 0.959 . S
H681 C695 0.929 . S
H682 C696 0.931 . S
H683 C698 0.930 . S
C684 H672 0.930 . S
C684 C685 1.399 . S
C684 C689 1.399 . S
C685 C684 1.399 . S
C685 C686 1.376 . S
C686 H673 0.930 . S
C686 C685 1.376 . S
C686 C687 1.388 . S
C687 H674 0.930 . S
C687 C686 1.388 . S
C687 C688 1.390 . S
C688 C687 1.390 . S
C688 C689 1.394 . S
C688 C694 1.465 . S
C689 C684 1.399 . S
C689 C688 1.394 . S
C689 C690 1.516 . S
C690 C689 1.516 . S
C690 C691 1.502 . S
C690 C692 1.561 . S
C690 C693 1.526 . S
C691 H675 0.959 . S
C691 H676 0.959 . S
C691 H677 0.961 . S
C691 C690 1.502 . S
C692 H678 0.960 . S
C692 H679 0.961 . S
C692 H680 0.959 . S
C692 C690 1.561 . S
C693 C690 1.526 . S
C693 C694 1.396 . S
C693 C698 1.390 . S
C694 C688 1.465 . S
C694 C693 1.396 . S
C694 C695 1.399 . S
C695 H681 0.929 . S
C695 C694 1.399 . S
C695 C696 1.385 . S
C696 H682 0.931 . S
C696 C695 1.385 . S
C696 C697 1.389 . S
C697 C696 1.389 . S
C697 C698 1.387 . S
C698 H683 0.930 . S
C698 C693 1.390 . S
C698 C697 1.387 . S
H699 C711 0.930 . S
H700 C713 0.930 . S
H701 C714 0.930 . S
H702 C718 0.959 . S
H703 C718 0.959 . S
H704 C718 0.961 . S
H705 C719 0.960 . S
H706 C719 0.961 . S
H707 C719 0.959 . S
H708 C722 0.929 . S
H709 C723 0.931 . S
H710 C725 0.930 . S
C711 H699 0.930 . S
C711 C712 1.399 . S
C711 C716 1.399 . S
C712 C711 1.399 . S
C712 C713 1.376 . S
C713 H700 0.930 . S
C713 C712 1.376 . S
C713 C714 1.388 . S
C714 H701 0.930 . S
C714 C713 1.388 . S
C714 C715 1.390 . S
C715 C714 1.390 . S
C715 C716 1.394 . S
C715 C721 1.465 . S
C716 C711 1.399 . S
C716 C715 1.394 . S
C716 C717 1.516 . S
C717 C716 1.516 . S
C717 C718 1.502 . S
C717 C719 1.561 . S
C717 C720 1.526 . S
C718 H702 0.959 . S
C718 H703 0.959 . S
C718 H704 0.961 . S
C718 C717 1.502 . S
C719 H705 0.960 . S
C719 H706 0.961 . S
C719 H707 0.959 . S
C719 C717 1.561 . S
C720 C717 1.526 . S
C720 C721 1.396 . S
C720 C725 1.390 . S
C721 C715 1.465 . S
C721 C720 1.396 . S
C721 C722 1.399 . S
C722 H708 0.929 . S
C722 C721 1.399 . S
C722 C723 1.385 . S
C723 H709 0.931 . S
C723 C722 1.385 . S
C723 C724 1.389 . S
C724 C723 1.389 . S
C724 C725 1.387 . S
C725 H710 0.930 . S
C725 C720 1.390 . S
C725 C724 1.387 . S
C253 C223 1.392 . S
C265 C31 1.407 . S
C280 C23 1.393 . S
C292 C71 1.407 . S
C307 C63 1.379 . S
C319 C111 1.401 . S
C334 C103 1.397 . S
C346 C151 1.410 . S
C361 C191 1.417 . S
C373 C143 1.413 . S
C388 C231 1.404 . S
C400 C183 1.387 . S
C415 C25 1.459 . S
C427 C4 1.473 . S
C442 C65 1.482 1_556 S
C454 C44 1.420 . S
C469 C105 1.504 . S
C481 C84 1.422 . S
C496 C145 1.471 . S
C508 C124 1.461 . S
C523 C164 1.508 . S
C535 C185 1.403 1_556 S
C550 C225 1.511 . S
C562 C204 1.408 . S
C577 C20 1.641 . S
C589 C162 1.638 . S
C604 C60 1.615 . S
C616 C202 1.639 . S
C631 C2 1.646 . S
C643 C100 1.647 . S
C658 C42 1.649 . S
C670 C140 1.637 . S
C685 C180 1.648 . S
C697 C82 1.645 . S
C712 C122 1.644 . S
C724 C220 1.648 . S
