# Generated by pormake.
# Topology ato, (4)-cn, num edge types: 1
# Building blocks:
#     Node 0, Type 0, BuildingBlock: AZAVOO_clean_sbu_0, # of connection points: 4
#     Node 1, Type 0, BuildingBlock: AZAVOO_clean_sbu_0, # of connection points: 4
#     Node 2, Type 0, BuildingBlock: AZAVOO_clean_sbu_0, # of connection points: 4
#     Node 3, Type 0, BuildingBlock: AZAVOO_clean_sbu_0, # of connection points: 4
#     Node 4, Type 0, BuildingBlock: AZAVOO_clean_sbu_0, # of connection points: 4
#     Node 5, Type 0, BuildingBlock: AZAVOO_clean_sbu_0, # of connection points: 4
#     Node 6, Type 0, BuildingBlock: AZAVOO_clean_sbu_0, # of connection points: 4
#     Node 7, Type 0, BuildingBlock: AZAVOO_clean_sbu_0, # of connection points: 4
#     Node 8, Type 0, BuildingBlock: AZAVOO_clean_sbu_0, # of connection points: 4
#     Node 9, Type 0, BuildingBlock: AZAVOO_clean_sbu_0, # of connection points: 4
#     Node 10, Type 0, BuildingBlock: AZAVOO_clean_sbu_0, # of connection points: 4
#     Node 11, Type 0, BuildingBlock: AZAVOO_clean_sbu_0, # of connection points: 4
#     Node 12, Type 0, BuildingBlock: AZAVOO_clean_sbu_0, # of connection points: 4
#     Node 13, Type 0, BuildingBlock: AZAVOO_clean_sbu_0, # of connection points: 4
#     Node 14, Type 0, BuildingBlock: AZAVOO_clean_sbu_0, # of connection points: 4
#     Node 15, Type 0, BuildingBlock: AZAVOO_clean_sbu_0, # of connection points: 4
#     Node 16, Type 0, BuildingBlock: AZAVOO_clean_sbu_0, # of connection points: 4
#     Node 17, Type 0, BuildingBlock: AZAVOO_clean_sbu_0, # of connection points: 4
#     Node 18, Type 0, BuildingBlock: AZAVOO_clean_sbu_0, # of connection points: 4
#     Node 19, Type 0, BuildingBlock: AZAVOO_clean_sbu_0, # of connection points: 4
#     Node 20, Type 0, BuildingBlock: AZAVOO_clean_sbu_0, # of connection points: 4
#     Node 21, Type 0, BuildingBlock: AZAVOO_clean_sbu_0, # of connection points: 4
#     Node 22, Type 0, BuildingBlock: AZAVOO_clean_sbu_0, # of connection points: 4
#     Node 23, Type 0, BuildingBlock: AZAVOO_clean_sbu_0, # of connection points: 4
#     Node 24, Type 0, BuildingBlock: AZAVOO_clean_sbu_0, # of connection points: 4
#     Node 25, Type 0, BuildingBlock: AZAVOO_clean_sbu_0, # of connection points: 4
#     Node 26, Type 0, BuildingBlock: AZAVOO_clean_sbu_0, # of connection points: 4
#     Node 27, Type 0, BuildingBlock: AZAVOO_clean_sbu_0, # of connection points: 4
#     Node 28, Type 0, BuildingBlock: AZAVOO_clean_sbu_0, # of connection points: 4
#     Node 29, Type 0, BuildingBlock: AZAVOO_clean_sbu_0, # of connection points: 4
#     Node 30, Type 0, BuildingBlock: AZAVOO_clean_sbu_0, # of connection points: 4
#     Node 31, Type 0, BuildingBlock: AZAVOO_clean_sbu_0, # of connection points: 4
#     Node 32, Type 0, BuildingBlock: AZAVOO_clean_sbu_0, # of connection points: 4
#     Node 33, Type 0, BuildingBlock: AZAVOO_clean_sbu_0, # of connection points: 4
#     Node 34, Type 0, BuildingBlock: AZAVOO_clean_sbu_0, # of connection points: 4
#     Node 35, Type 0, BuildingBlock: AZAVOO_clean_sbu_0, # of connection points: 4
#     Edge 36, Type (0, 0), BuildingBlock: XUDNAN_clean_linker_2, # of connection points: 2
#     Edge 37, Type (0, 0), BuildingBlock: XUDNAN_clean_linker_2, # of connection points: 2
#     Edge 38, Type (0, 0), BuildingBlock: XUDNAN_clean_linker_2, # of connection points: 2
#     Edge 39, Type (0, 0), BuildingBlock: XUDNAN_clean_linker_2, # of connection points: 2
#     Edge 40, Type (0, 0), BuildingBlock: XUDNAN_clean_linker_2, # of connection points: 2
#     Edge 41, Type (0, 0), BuildingBlock: XUDNAN_clean_linker_2, # of connection points: 2
#     Edge 42, Type (0, 0), BuildingBlock: XUDNAN_clean_linker_2, # of connection points: 2
#     Edge 43, Type (0, 0), BuildingBlock: XUDNAN_clean_linker_2, # of connection points: 2
#     Edge 44, Type (0, 0), BuildingBlock: XUDNAN_clean_linker_2, # of connection points: 2
#     Edge 45, Type (0, 0), BuildingBlock: XUDNAN_clean_linker_2, # of connection points: 2
#     Edge 46, Type (0, 0), BuildingBlock: XUDNAN_clean_linker_2, # of connection points: 2
#     Edge 47, Type (0, 0), BuildingBlock: XUDNAN_clean_linker_2, # of connection points: 2
#     Edge 48, Type (0, 0), BuildingBlock: XUDNAN_clean_linker_2, # of connection points: 2
#     Edge 49, Type (0, 0), BuildingBlock: XUDNAN_clean_linker_2, # of connection points: 2
#     Edge 50, Type (0, 0), BuildingBlock: XUDNAN_clean_linker_2, # of connection points: 2
#     Edge 51, Type (0, 0), BuildingBlock: XUDNAN_clean_linker_2, # of connection points: 2
#     Edge 52, Type (0, 0), BuildingBlock: XUDNAN_clean_linker_2, # of connection points: 2
#     Edge 53, Type (0, 0), BuildingBlock: XUDNAN_clean_linker_2, # of connection points: 2
#     Edge 54, Type (0, 0), BuildingBlock: XUDNAN_clean_linker_2, # of connection points: 2
#     Edge 55, Type (0, 0), BuildingBlock: XUDNAN_clean_linker_2, # of connection points: 2
#     Edge 56, Type (0, 0), BuildingBlock: XUDNAN_clean_linker_2, # of connection points: 2
#     Edge 57, Type (0, 0), BuildingBlock: XUDNAN_clean_linker_2, # of connection points: 2
#     Edge 58, Type (0, 0), BuildingBlock: XUDNAN_clean_linker_2, # of connection points: 2
#     Edge 59, Type (0, 0), BuildingBlock: XUDNAN_clean_linker_2, # of connection points: 2
#     Edge 60, Type (0, 0), BuildingBlock: XUDNAN_clean_linker_2, # of connection points: 2
#     Edge 61, Type (0, 0), BuildingBlock: XUDNAN_clean_linker_2, # of connection points: 2
#     Edge 62, Type (0, 0), BuildingBlock: XUDNAN_clean_linker_2, # of connection points: 2
#     Edge 63, Type (0, 0), BuildingBlock: XUDNAN_clean_linker_2, # of connection points: 2
#     Edge 64, Type (0, 0), BuildingBlock: XUDNAN_clean_linker_2, # of connection points: 2
#     Edge 65, Type (0, 0), BuildingBlock: XUDNAN_clean_linker_2, # of connection points: 2
#     Edge 66, Type (0, 0), BuildingBlock: XUDNAN_clean_linker_2, # of connection points: 2
#     Edge 67, Type (0, 0), BuildingBlock: XUDNAN_clean_linker_2, # of connection points: 2
#     Edge 68, Type (0, 0), BuildingBlock: XUDNAN_clean_linker_2, # of connection points: 2
#     Edge 69, Type (0, 0), BuildingBlock: XUDNAN_clean_linker_2, # of connection points: 2
#     Edge 70, Type (0, 0), BuildingBlock: XUDNAN_clean_linker_2, # of connection points: 2
#     Edge 71, Type (0, 0), BuildingBlock: XUDNAN_clean_linker_2, # of connection points: 2
#     Edge 72, Type (0, 0), BuildingBlock: XUDNAN_clean_linker_2, # of connection points: 2
#     Edge 73, Type (0, 0), BuildingBlock: XUDNAN_clean_linker_2, # of connection points: 2
#     Edge 74, Type (0, 0), BuildingBlock: XUDNAN_clean_linker_2, # of connection points: 2
#     Edge 75, Type (0, 0), BuildingBlock: XUDNAN_clean_linker_2, # of connection points: 2
#     Edge 76, Type (0, 0), BuildingBlock: XUDNAN_clean_linker_2, # of connection points: 2
#     Edge 77, Type (0, 0), BuildingBlock: XUDNAN_clean_linker_2, # of connection points: 2
#     Edge 78, Type (0, 0), BuildingBlock: XUDNAN_clean_linker_2, # of connection points: 2
#     Edge 79, Type (0, 0), BuildingBlock: XUDNAN_clean_linker_2, # of connection points: 2
#     Edge 80, Type (0, 0), BuildingBlock: XUDNAN_clean_linker_2, # of connection points: 2
#     Edge 81, Type (0, 0), BuildingBlock: XUDNAN_clean_linker_2, # of connection points: 2
#     Edge 82, Type (0, 0), BuildingBlock: XUDNAN_clean_linker_2, # of connection points: 2
#     Edge 83, Type (0, 0), BuildingBlock: XUDNAN_clean_linker_2, # of connection points: 2
#     Edge 84, Type (0, 0), BuildingBlock: XUDNAN_clean_linker_2, # of connection points: 2
#     Edge 85, Type (0, 0), BuildingBlock: XUDNAN_clean_linker_2, # of connection points: 2
#     Edge 86, Type (0, 0), BuildingBlock: XUDNAN_clean_linker_2, # of connection points: 2
#     Edge 87, Type (0, 0), BuildingBlock: XUDNAN_clean_linker_2, # of connection points: 2
#     Edge 88, Type (0, 0), BuildingBlock: XUDNAN_clean_linker_2, # of connection points: 2
#     Edge 89, Type (0, 0), BuildingBlock: XUDNAN_clean_linker_2, # of connection points: 2
#     Edge 90, Type (0, 0), BuildingBlock: XUDNAN_clean_linker_2, # of connection points: 2
#     Edge 91, Type (0, 0), BuildingBlock: XUDNAN_clean_linker_2, # of connection points: 2
#     Edge 92, Type (0, 0), BuildingBlock: XUDNAN_clean_linker_2, # of connection points: 2
#     Edge 93, Type (0, 0), BuildingBlock: XUDNAN_clean_linker_2, # of connection points: 2
#     Edge 94, Type (0, 0), BuildingBlock: XUDNAN_clean_linker_2, # of connection points: 2
#     Edge 95, Type (0, 0), BuildingBlock: XUDNAN_clean_linker_2, # of connection points: 2
#     Edge 96, Type (0, 0), BuildingBlock: XUDNAN_clean_linker_2, # of connection points: 2
#     Edge 97, Type (0, 0), BuildingBlock: XUDNAN_clean_linker_2, # of connection points: 2
#     Edge 98, Type (0, 0), BuildingBlock: XUDNAN_clean_linker_2, # of connection points: 2
#     Edge 99, Type (0, 0), BuildingBlock: XUDNAN_clean_linker_2, # of connection points: 2
#     Edge 100, Type (0, 0), BuildingBlock: XUDNAN_clean_linker_2, # of connection points: 2
#     Edge 101, Type (0, 0), BuildingBlock: XUDNAN_clean_linker_2, # of connection points: 2
#     Edge 102, Type (0, 0), BuildingBlock: XUDNAN_clean_linker_2, # of connection points: 2
#     Edge 103, Type (0, 0), BuildingBlock: XUDNAN_clean_linker_2, # of connection points: 2
#     Edge 104, Type (0, 0), BuildingBlock: XUDNAN_clean_linker_2, # of connection points: 2
#     Edge 105, Type (0, 0), BuildingBlock: XUDNAN_clean_linker_2, # of connection points: 2
#     Edge 106, Type (0, 0), BuildingBlock: XUDNAN_clean_linker_2, # of connection points: 2
#     Edge 107, Type (0, 0), BuildingBlock: XUDNAN_clean_linker_2, # of connection points: 2
# Relax obj value: 0.065
# Max RMSD: 0.093
# Mean RMSD: 0.093
data_MOF--net-ato--node1-AZAVOO_clean_sbu_0--edge1-XUDNAN_clean_linker_2
_symmetry_space_group_name_H-M    P1
_symmetry_Int_Tables_number       1
_symmetry_cell_setting            triclinic
loop_
_symmetry_equiv_pos_as_xyz
'x, y, z'
_cell_length_a     101.05287
_cell_length_b     101.02093
_cell_length_c     24.920618
_cell_angle_alpha  90.064033
_cell_angle_beta   89.996818
_cell_angle_gamma 120.0294
loop_
_atom_site_label
_atom_site_type_symbol
_atom_site_fract_x
_atom_site_fract_y
_atom_site_fract_z
_atom_type_partial_charge
Mg0 Mg 0.24781 0.04488 0.24181 0.0
O1 O 0.2698 0.04921 0.19816 0.0
O2 O 0.26725 0.02655 0.17683 0.0
Mg3 Mg 0.24544 0.00764 0.21385 0.0
C4 C 0.27471 0.04112 0.17568 0.0
C5 C 0.24877 0.07428 0.27443 0.0
O6 O 0.23499 0.06347 0.28812 0.0
O7 O 0.25653 0.04108 0.32263 0.0
O8 O 0.25311 0.01877 0.29389 0.0
O9 O 0.23557 0.04006 0.16197 0.0
O10 O 0.23572 0.02244 0.21337 0.0
C11 C 0.25695 0.02879 0.33051 0.0
C12 C 0.23161 0.02589 0.16978 0.0
O13 O 0.25797 0.07043 0.25485 0.0
Mg14 Mg 0.9488 0.19686 0.23358 0.0
O15 O 0.93623 0.21035 0.22351 0.0
O16 O 0.95405 0.23507 0.22832 0.0
Mg17 Mg 0.97757 0.23775 0.23868 0.0
C18 C 0.94017 0.22449 0.22303 0.0
C19 C 0.92593 0.16365 0.22023 0.0
O20 O 0.93777 0.16623 0.19074 0.0
O21 O 0.95221 0.20193 0.32319 0.0
O22 O 0.9707 0.22651 0.32055 0.0
O23 O 0.95342 0.19821 0.14507 0.0
O24 O 0.96881 0.21496 0.20489 0.0
C25 C 0.96186 0.21434 0.34645 0.0
C26 C 0.966 0.21074 0.15577 0.0
O27 O 0.92636 0.17476 0.24564 0.0
Mg28 Mg 0.80318 0.75216 0.22816 0.0
O29 O 0.78972 0.72586 0.22206 0.0
O30 O 0.76547 0.71922 0.20464 0.0
Mg31 Mg 0.76358 0.74067 0.19435 0.0
C32 C 0.77578 0.71573 0.21356 0.0
C33 C 0.8337 0.76449 0.28552 0.0
O34 O 0.83152 0.77626 0.28497 0.0
O35 O 0.79246 0.75241 0.30831 0.0
O36 O 0.7689 0.74678 0.28318 0.0
O37 O 0.80808 0.75378 0.14049 0.0
O38 O 0.78814 0.75384 0.1768 0.0
C39 C 0.77926 0.75055 0.31884 0.0
C40 C 0.79558 0.75422 0.13447 0.0
O41 O 0.82332 0.7518 0.26678 0.0
Mg42 Mg 0.04562 0.24445 0.75912 0.0
O43 O 0.05644 0.27031 0.7688 0.0
O44 O 0.03778 0.27566 0.78292 0.0
Mg45 Mg 0.01508 0.25312 0.78376 0.0
C46 C 0.0519 0.27982 0.77779 0.0
C47 C 0.07275 0.24 0.74976 0.0
O48 O 0.06454 0.23082 0.78881 0.0
O49 O 0.03635 0.24405 0.67606 0.0
O50 O 0.01718 0.24836 0.6955 0.0
O51 O 0.04742 0.24303 0.84762 0.0
O52 O 0.02715 0.2408 0.80483 0.0
C53 C 0.02493 0.24539 0.66211 0.0
C54 C 0.03388 0.24141 0.84922 0.0
O55 O 0.06794 0.24791 0.72629 0.0
Mg56 Mg 0.75184 0.79747 0.74993 0.0
O57 O 0.72664 0.78333 0.77306 0.0
O58 O 0.71983 0.75864 0.76863 0.0
Mg59 Mg 0.74132 0.75715 0.75191 0.0
C60 C 0.71664 0.7692 0.77666 0.0
C61 C 0.7559 0.82989 0.76213 0.0
O62 O 0.76557 0.83059 0.7988 0.0
O63 O 0.74727 0.79015 0.66227 0.0
O64 O 0.74296 0.76617 0.66683 0.0
O65 O 0.75863 0.79853 0.83629 0.0
O66 O 0.7563 0.78094 0.7781 0.0
C67 C 0.74487 0.77775 0.63992 0.0
C68 C 0.75947 0.78641 0.8258 0.0
O69 O 0.74843 0.8177 0.73501 0.0
Mg70 Mg 0.19985 0.95227 0.75576 0.0
O71 O 0.21978 0.94821 0.77577 0.0
O72 O 0.23913 0.97118 0.7998 0.0
Mg73 Mg 0.23138 0.98892 0.80238 0.0
C74 C 0.23364 0.95693 0.79043 0.0
C75 C 0.17246 0.92417 0.72821 0.0
O76 O 0.16916 0.93266 0.75914 0.0
O77 O 0.21201 0.96453 0.67936 0.0
O78 O 0.22937 0.9876 0.71112 0.0
O79 O 0.19179 0.9472 0.84083 0.0
O80 O 0.20798 0.97014 0.80917 0.0
C81 C 0.22252 0.9784 0.6724 0.0
C82 C 0.20087 0.96163 0.84949 0.0
O83 O 0.18625 0.92926 0.71428 0.0
Mg84 Mg 0.75185 0.95469 0.75462 0.0
O85 O 0.72677 0.94607 0.7762 0.0
O86 O 0.7241 0.96676 0.77949 0.0
Mg87 Mg 0.7474 0.98838 0.77164 0.0
C88 C 0.71857 0.95232 0.78158 0.0
C89 C 0.75467 0.92635 0.75846 0.0
O90 O 0.76529 0.93597 0.79141 0.0
O91 O 0.74741 0.95991 0.66944 0.0
O92 O 0.74705 0.98169 0.68451 0.0
O93 O 0.75913 0.95802 0.84128 0.0
O94 O 0.7589 0.97557 0.78939 0.0
C95 C 0.74657 0.97147 0.65315 0.0
C96 C 0.76184 0.97188 0.83508 0.0
O97 O 0.74633 0.93056 0.73426 0.0
Mg98 Mg 0.04539 0.80081 0.7533 0.0
O99 O 0.05557 0.78544 0.76788 0.0
O100 O 0.03641 0.76192 0.78582 0.0
Mg101 Mg 0.01418 0.76284 0.78976 0.0
C102 C 0.0506 0.77138 0.77848 0.0
C103 C 0.0748 0.83082 0.74056 0.0
O104 O 0.06856 0.83243 0.78447 0.0
O105 O 0.03525 0.78913 0.67442 0.0
O106 O 0.01487 0.76699 0.69887 0.0
O107 O 0.04819 0.80722 0.83962 0.0
O108 O 0.02748 0.78767 0.80505 0.0
C109 C 0.02313 0.77662 0.66295 0.0
C110 C 0.03467 0.79558 0.84663 0.0
O111 O 0.06766 0.81849 0.71397 0.0
Mg112 Mg 0.19793 0.24227 0.74364 0.0
O113 O 0.20978 0.26733 0.76922 0.0
O114 O 0.23383 0.27387 0.7899 0.0
Mg115 Mg 0.2362 0.25252 0.78949 0.0
C116 C 0.2233 0.27719 0.7836 0.0
C117 C 0.16623 0.23461 0.71726 0.0
O118 O 0.16494 0.22329 0.74699 0.0
O119 O 0.21183 0.24753 0.66736 0.0
O120 O 0.23396 0.25036 0.69761 0.0
O121 O 0.18908 0.23486 0.82611 0.0
O122 O 0.2112 0.23816 0.79655 0.0
C123 C 0.22503 0.24915 0.65927 0.0
C124 C 0.20163 0.23478 0.83534 0.0
O125 O 0.17946 0.24506 0.70355 0.0
Mg126 Mg 0.94981 0.7547 0.23228 0.0
O127 O 0.93652 0.72957 0.20513 0.0
O128 O 0.95424 0.72319 0.18547 0.0
Mg129 Mg 0.97799 0.74447 0.18528 0.0
C130 C 0.94035 0.71979 0.19123 0.0
C131 C 0.93054 0.76561 0.28838 0.0
O132 O 0.94432 0.77767 0.28727 0.0
O133 O 0.95825 0.74917 0.31022 0.0
O134 O 0.97775 0.74738 0.27548 0.0
O135 O 0.9501 0.76339 0.1488 0.0
O136 O 0.96769 0.75894 0.18251 0.0
C137 C 0.9705 0.74852 0.31554 0.0
C138 C 0.96284 0.76343 0.14314 0.0
O139 O 0.92865 0.753 0.27048 0.0
Mg140 Mg 0.25068 0.20009 0.22478 0.0
O141 O 0.27469 0.21656 0.19454 0.0
O142 O 0.27698 0.23964 0.18503 0.0
Mg143 Mg 0.25324 0.23684 0.19681 0.0
C144 C 0.28257 0.23078 0.18385 0.0
C145 C 0.24918 0.17105 0.27154 0.0
O146 O 0.23506 0.16796 0.27972 0.0
O147 O 0.25552 0.212 0.30535 0.0
O148 O 0.25417 0.23303 0.28739 0.0
O149 O 0.2423 0.19242 0.14215 0.0
O150 O 0.24228 0.21193 0.1832 0.0
C151 C 0.25533 0.22399 0.32043 0.0
C152 C 0.23954 0.20363 0.14092 0.0
O153 O 0.25874 0.18391 0.25173 0.0
Mg154 Mg 0.80313 0.04645 0.24399 0.0
O155 O 0.79039 0.05834 0.21183 0.0
O156 O 0.76842 0.03987 0.17707 0.0
Mg157 Mg 0.7676 0.01698 0.18186 0.0
C158 C 0.77751 0.05385 0.18903 0.0
C159 C 0.83229 0.06637 0.29232 0.0
O160 O 0.83012 0.05243 0.28929 0.0
O161 O 0.78667 0.03659 0.31475 0.0
O162 O 0.7661 0.018 0.27267 0.0
O163 O 0.81413 0.04902 0.16422 0.0
O164 O 0.79239 0.02891 0.18997 0.0
C165 C 0.77301 0.02519 0.31523 0.0
C166 C 0.80243 0.0358 0.15326 0.0
O167 O 0.8208 0.06812 0.28547 0.0
Mg168 Mg 0.90669 0.37724 0.57711 0.0
O169 O 0.93107 0.38762 0.54679 0.0
O170 O 0.93466 0.36876 0.5169 0.0
Mg171 Mg 0.91187 0.34624 0.52339 0.0
C172 C 0.93947 0.38286 0.52643 0.0
C173 C 0.90562 0.40573 0.59747 0.0
O174 O 0.89436 0.39739 0.56436 0.0
O175 O 0.91225 0.36769 0.65109 0.0
O176 O 0.91273 0.34759 0.61465 0.0
O177 O 0.89993 0.37967 0.49412 0.0
O178 O 0.89955 0.35892 0.52448 0.0
C179 C 0.91321 0.35559 0.65505 0.0
C180 C 0.89799 0.36621 0.48511 0.0
O181 O 0.91336 0.40009 0.6166 0.0
Mg182 Mg 0.6193 0.5329 0.56698 0.0
O183 O 0.60685 0.54662 0.55453 0.0
O184 O 0.62386 0.56902 0.51783 0.0
Mg185 Mg 0.64687 0.57013 0.50975 0.0
C186 C 0.61049 0.55973 0.53523 0.0
C187 C 0.60063 0.50259 0.62142 0.0
O188 O 0.61402 0.50388 0.61187 0.0
O189 O 0.63154 0.5474 0.64105 0.0
O190 O 0.6485 0.56939 0.6017 0.0
O191 O 0.61442 0.52359 0.48348 0.0
O192 O 0.63497 0.54516 0.50686 0.0
C193 C 0.64273 0.56115 0.64352 0.0
C194 C 0.62718 0.5355 0.46981 0.0
O195 O 0.59899 0.51407 0.61234 0.0
Mg196 Mg 0.47096 0.0877 0.5529 0.0
O197 O 0.455 0.06149 0.55354 0.0
O198 O 0.43108 0.05743 0.54986 0.0
Mg199 Mg 0.43148 0.08007 0.54186 0.0
C200 C 0.44053 0.05257 0.55265 0.0
C201 C 0.50095 0.09587 0.61028 0.0
O202 O 0.49879 0.10719 0.62445 0.0
O203 O 0.46446 0.09014 0.63886 0.0
O204 O 0.4408 0.08635 0.6273 0.0
O205 O 0.4717 0.08756 0.46295 0.0
O206 O 0.45481 0.0902 0.51164 0.0
C207 C 0.45231 0.08949 0.65697 0.0
C208 C 0.45959 0.08883 0.4655 0.0
O209 O 0.49107 0.08531 0.58061 0.0
Mg210 Mg 0.7112 0.57297 0.07816 0.0
O211 O 0.72381 0.59769 0.111 0.0
O212 O 0.70582 0.60352 0.13183 0.0
Mg213 Mg 0.68216 0.58323 0.11385 0.0
C214 C 0.71982 0.60704 0.12894 0.0
C215 C 0.73253 0.5617 0.05214 0.0
O216 O 0.7193 0.54998 0.06619 0.0
O217 O 0.70601 0.58072 -0.00166 0.0
O218 O 0.68739 0.58538 0.02353 0.0
O219 O 0.70803 0.56289 0.16057 0.0
O220 O 0.6916 0.56803 0.1206 0.0
C221 C 0.69594 0.58447 0.98767 0.0
C222 C 0.69533 0.56308 0.16193 0.0
O223 O 0.73367 0.57481 0.05008 0.0
Mg224 Mg 0.41477 0.13083 0.09528 0.0
O225 O 0.38976 0.1116 0.08881 0.0
O226 O 0.38953 0.08937 0.09491 0.0
Mg227 Mg 0.41376 0.09418 0.11055 0.0
C228 C 0.3827 0.097 0.08868 0.0
C229 C 0.4188 0.16172 0.06218 0.0
O230 O 0.433 0.16496 0.069 0.0
O231 O 0.42037 0.12583 0.01083 0.0
O232 O 0.42035 0.10392 0.02605 0.0
O233 O 0.4126 0.13127 0.18437 0.0
O234 O 0.41982 0.11691 0.13991 0.0
C235 C 0.42221 0.11479 -0.00485 0.0
C236 C 0.4164 0.12079 0.18453 0.0
O237 O 0.40809 0.14799 0.06727 0.0
Mg238 Mg 0.86065 0.28667 0.07723 0.0
O239 O 0.87452 0.27578 0.10856 0.0
O240 O 0.89789 0.29418 0.13387 0.0
Mg241 Mg 0.90126 0.3174 0.11028 0.0
C242 C 0.88768 0.28009 0.12898 0.0
C243 C 0.82921 0.26423 0.03549 0.0
O244 O 0.8312 0.27782 0.02431 0.0
O245 O 0.87056 0.28914 0.99124 0.0
O246 O 0.89051 0.30628 0.03414 0.0
O247 O 0.8567 0.29182 0.16238 0.0
O248 O 0.87648 0.30777 0.11381 0.0
C249 C 0.88439 0.29994 0.9904 0.0
C250 C 0.8692 0.30481 0.15799 0.0
O251 O 0.84004 0.26339 0.05804 0.0
Mg252 Mg 0.42571 0.28919 0.0862 0.0
O253 O 0.40117 0.28238 0.10284 0.0
O254 O 0.39888 0.30211 0.13075 0.0
Mg255 Mg 0.42333 0.32281 0.12759 0.0
C256 C 0.39306 0.28798 0.11889 0.0
C257 C 0.42537 0.26066 0.0359 0.0
O258 O 0.44003 0.27051 0.03054 0.0
O259 O 0.42416 0.29933 0.00658 0.0
O260 O 0.42415 0.32033 0.03654 0.0
O261 O 0.42898 0.28638 0.17302 0.0
O262 O 0.43347 0.30813 0.13562 0.0
C263 C 0.42417 0.31183 -0.0014 0.0
C264 C 0.43276 0.3006 0.17801 0.0
O265 O 0.4166 0.26529 0.05329 0.0
Mg266 Mg 0.71453 0.13619 0.09082 0.0
O267 O 0.72612 0.12197 0.10637 0.0
O268 O 0.70747 0.0985 0.12782 0.0
Mg269 Mg 0.68457 0.09786 0.13022 0.0
C270 C 0.72156 0.10812 0.11935 0.0
C271 C 0.73435 0.16535 0.02856 0.0
O272 O 0.72046 0.16315 0.02276 0.0
O273 O 0.70442 0.12407 0.01176 0.0
O274 O 0.68491 0.10156 0.03869 0.0
O275 O 0.71685 0.14345 0.1761 0.0
O276 O 0.69696 0.12271 0.1429 0.0
C277 C 0.69263 0.11111 0.00179 0.0
C278 C 0.70367 0.13134 0.18355 0.0
O279 O 0.73604 0.15521 0.05254 0.0
Mg280 Mg 0.86067 0.57491 0.08506 0.0
O281 O 0.87329 0.60067 0.10421 0.0
O282 O 0.89548 0.60593 0.14222 0.0
Mg283 Mg 0.89713 0.58424 0.14944 0.0
C284 C 0.88616 0.61007 0.12539 0.0
C285 C 0.83014 0.56295 0.03913 0.0
O286 O 0.83176 0.55158 0.0568 0.0
O287 O 0.87659 0.57883 0.01294 0.0
O288 O 0.897 0.58163 0.05828 0.0
O289 O 0.85 0.56834 0.16718 0.0
O290 O 0.87239 0.57109 0.14563 0.0
C291 C 0.88986 0.58007 0.0143 0.0
C292 C 0.86215 0.56805 0.18137 0.0
O293 O 0.84185 0.57627 0.0389 0.0
Mg294 Mg 0.6173 0.08561 0.56718 0.0
O295 O 0.60829 0.06073 0.53926 0.0
O296 O 0.62927 0.05929 0.52103 0.0
Mg297 Mg 0.65091 0.08203 0.53757 0.0
C298 C 0.61477 0.05333 0.52326 0.0
C299 C 0.59469 0.09054 0.63032 0.0
O300 O 0.60817 0.10141 0.64654 0.0
O301 O 0.62456 0.08123 0.64806 0.0
O302 O 0.6463 0.08145 0.62876 0.0
O303 O 0.61788 0.09355 0.48349 0.0
O304 O 0.63709 0.09283 0.52334 0.0
C305 C 0.63656 0.08101 0.66253 0.0
C306 C 0.63158 0.09561 0.48115 0.0
O307 O 0.59406 0.08053 0.59783 0.0
Mg308 Mg 0.91238 0.53377 0.56624 0.0
O309 O 0.93587 0.55211 0.53348 0.0
O310 O 0.93319 0.57228 0.51466 0.0
Mg311 Mg 0.9088 0.56714 0.53134 0.0
C312 C 0.94128 0.56581 0.51656 0.0
C313 C 0.91421 0.50558 0.57791 0.0
O314 O 0.90242 0.50247 0.54728 0.0
O315 O 0.91668 0.54675 0.64534 0.0
O316 O 0.91182 0.5653 0.62184 0.0
O317 O 0.90387 0.52482 0.48287 0.0
O318 O 0.90156 0.54306 0.52281 0.0
C319 C 0.91482 0.55803 0.65727 0.0
C320 C 0.89949 0.53482 0.4811 0.0
O321 O 0.92207 0.51901 0.59686 0.0
Mg322 Mg 0.4707 0.38457 0.5731 0.0
O323 O 0.45678 0.39682 0.55944 0.0
O324 O 0.43226 0.37968 0.53993 0.0
Mg325 Mg 0.42818 0.35565 0.55356 0.0
C326 C 0.4432 0.3934 0.54602 0.0
C327 C 0.50406 0.40527 0.60071 0.0
O328 O 0.50191 0.39132 0.60135 0.0
O329 O 0.46436 0.38091 0.66374 0.0
O330 O 0.44323 0.36582 0.62316 0.0
O331 O 0.47124 0.38015 0.48392 0.0
O332 O 0.45261 0.36436 0.53677 0.0
C333 C 0.45048 0.37035 0.66654 0.0
C334 C 0.45852 0.36744 0.48998 0.0
O335 O 0.49272 0.40703 0.59019 0.0
Mg336 Mg 0.57397 0.71026 0.90604 0.0
O337 O 0.59872 0.72133 0.87671 0.0
O338 O 0.60169 0.70374 0.83254 0.0
Mg339 Mg 0.57879 0.68127 0.83317 0.0
C340 C 0.60698 0.71731 0.85054 0.0
C341 C 0.57116 0.7368 0.94115 0.0
O342 O 0.55899 0.72786 0.91249 0.0
O343 O 0.57934 0.69801 0.97321 0.0
O344 O 0.58011 0.67972 0.92464 0.0
O345 O 0.566 0.71483 0.82733 0.0
O346 O 0.56669 0.69382 0.84587 0.0
C347 C 0.58043 0.68592 0.96974 0.0
C348 C 0.56387 0.70168 0.81223 0.0
O349 O 0.58025 0.73202 0.95352 0.0
Mg350 Mg 0.28412 0.86775 0.89803 0.0
O351 O 0.28028 0.88786 0.87446 0.0
O352 O 0.30238 0.90518 0.83711 0.0
Mg353 Mg 0.31983 0.89726 0.83653 0.0
C354 C 0.28869 0.9008 0.85174 0.0
C355 C 0.25762 0.8404 0.93053 0.0
O356 O 0.26811 0.83815 0.90806 0.0
O357 O 0.29851 0.88126 0.97227 0.0
O358 O 0.31959 0.89756 0.92725 0.0
O359 O 0.2774 0.85837 0.81402 0.0
O360 O 0.30101 0.87407 0.84092 0.0
C361 C 0.31241 0.89229 0.97124 0.0
C362 C 0.29174 0.86669 0.80283 0.0
O363 O 0.261 0.85412 0.9404 0.0
Mg364 Mg 0.13684 0.42349 0.89093 0.0
O365 O 0.12092 0.39749 0.88371 0.0
O366 O 0.09855 0.39424 0.85445 0.0
Mg367 Mg 0.09972 0.41726 0.84447 0.0
C368 C 0.1071 0.38887 0.86839 0.0
C369 C 0.16683 0.43469 0.93753 0.0
O370 O 0.16478 0.44622 0.92557 0.0
O371 O 0.12536 0.42474 0.96845 0.0
O372 O 0.10406 0.42299 0.93359 0.0
O373 O 0.14311 0.42435 0.80409 0.0
O374 O 0.12424 0.42732 0.8355 0.0
C375 C 0.11292 0.42506 0.97312 0.0
C376 C 0.13157 0.42628 0.79538 0.0
O377 O 0.15551 0.42123 0.9328 0.0
Mg378 Mg 0.37818 0.91145 0.42418 0.0
O379 O 0.3887 0.93671 0.45053 0.0
O380 O 0.36841 0.93959 0.4659 0.0
Mg381 Mg 0.34582 0.91764 0.44987 0.0
C382 C 0.38282 0.9448 0.46509 0.0
C383 C 0.39925 0.90084 0.39663 0.0
O384 O 0.3854 0.88926 0.40456 0.0
O385 O 0.37211 0.91651 0.34079 0.0
O386 O 0.3509 0.9173 0.36118 0.0
O387 O 0.37631 0.90415 0.51085 0.0
O388 O 0.3585 0.90599 0.46561 0.0
C389 C 0.36025 0.91718 0.32709 0.0
C390 C 0.36327 0.90364 0.51022 0.0
O391 O 0.40114 0.91426 0.3984 0.0
Mg392 Mg 0.08353 0.4655 0.4218 0.0
O393 O 0.05749 0.452 0.43223 0.0
O394 O 0.05096 0.42735 0.43969 0.0
Mg395 Mg 0.07197 0.42472 0.43057 0.0
C396 C 0.04756 0.43794 0.43917 0.0
C397 C 0.09323 0.49867 0.42835 0.0
O398 O 0.10258 0.49653 0.45897 0.0
O399 O 0.08151 0.45808 0.33432 0.0
O400 O 0.0763 0.43396 0.34504 0.0
O401 O 0.08709 0.46666 0.51102 0.0
O402 O 0.08541 0.44817 0.45907 0.0
C403 C 0.07937 0.44541 0.31517 0.0
C404 C 0.08678 0.45375 0.50631 0.0
O405 O 0.08296 0.48731 0.40251 0.0
Mg406 Mg 0.53433 0.62299 0.41145 0.0
O407 O 0.54936 0.61501 0.45214 0.0
O408 O 0.57117 0.63541 0.47873 0.0
Mg409 Mg 0.56988 0.65673 0.45468 0.0
C410 C 0.56243 0.62097 0.47445 0.0
C411 C 0.50547 0.59322 0.36837 0.0
O412 O 0.50102 0.60282 0.35312 0.0
O413 O 0.54932 0.62965 0.33663 0.0
O414 O 0.56943 0.65166 0.36434 0.0
O415 O 0.52397 0.62381 0.48947 0.0
O416 O 0.54476 0.64335 0.45542 0.0
C417 C 0.56202 0.64186 0.32761 0.0
C418 C 0.53511 0.63772 0.49423 0.0
O419 O 0.51894 0.59839 0.38623 0.0
Mg420 Mg 0.08321 0.61544 0.42217 0.0
O421 O 0.05805 0.60883 0.43973 0.0
O422 O 0.06001 0.63097 0.46587 0.0
Mg423 Mg 0.08467 0.64998 0.47667 0.0
C424 C 0.05201 0.61682 0.45371 0.0
C425 C 0.09006 0.59362 0.37522 0.0
O426 O 0.1023 0.6073 0.376 0.0
O427 O 0.08379 0.62876 0.34509 0.0
O428 O 0.08756 0.65007 0.38674 0.0
O429 O 0.08792 0.61105 0.50775 0.0
O430 O 0.09155 0.63299 0.4768 0.0
C431 C 0.08691 0.64275 0.34414 0.0
C432 C 0.09255 0.62534 0.51571 0.0
O433 O 0.07718 0.59272 0.38262 0.0
Mg434 Mg 0.37908 0.47152 0.42117 0.0
O435 O 0.39173 0.45878 0.44357 0.0
O436 O 0.37479 0.43374 0.4478 0.0
Mg437 Mg 0.35106 0.43041 0.43231 0.0
C438 C 0.38839 0.44499 0.45128 0.0
C439 C 0.41164 0.49683 0.44056 0.0
O440 O 0.40757 0.48903 0.48559 0.0
O441 O 0.37523 0.46295 0.33492 0.0
O442 O 0.35677 0.4386 0.34553 0.0
O443 O 0.37527 0.47391 0.50779 0.0
O444 O 0.35956 0.45424 0.45691 0.0
C445 C 0.36537 0.44997 0.3157 0.0
C446 C 0.36323 0.46051 0.50348 0.0
O447 O 0.402 0.49264 0.40245 0.0
Mg448 Mg 0.52736 0.90975 0.43922 0.0
O449 O 0.54397 0.93562 0.4452 0.0
O450 O 0.56722 0.9383 0.45657 0.0
Mg451 Mg 0.56535 0.9148 0.46309 0.0
C452 C 0.55843 0.94389 0.45098 0.0
C453 C 0.4957 0.89965 0.41469 0.0
O454 O 0.49734 0.88828 0.43218 0.0
O455 O 0.53619 0.90966 0.35464 0.0
O456 O 0.55829 0.91057 0.37444 0.0
O457 O 0.52402 0.90851 0.52777 0.0
O458 O 0.54151 0.90515 0.48673 0.0
C459 C 0.54822 0.90939 0.3408 0.0
C460 C 0.53548 0.90618 0.53081 0.0
O461 O 0.50765 0.91266 0.40906 0.0
Mg462 Mg 0.28278 0.42094 0.89898 0.0
O463 O 0.27022 0.39472 0.88861 0.0
O464 O 0.28881 0.38924 0.87378 0.0
Mg465 Mg 0.3123 0.41046 0.87625 0.0
C466 C 0.27471 0.38518 0.87834 0.0
C467 C 0.26296 0.43379 0.92068 0.0
O468 O 0.27604 0.44468 0.90166 0.0
O469 O 0.29091 0.41986 0.98299 0.0
O470 O 0.30975 0.41494 0.96476 0.0
O471 O 0.28223 0.42404 0.81074 0.0
O472 O 0.30086 0.42308 0.85428 0.0
C473 C 0.30196 0.41797 -0.0022 0.0
C474 C 0.29496 0.42389 0.80973 0.0
O475 O 0.26136 0.42062 0.92787 0.0
Mg476 Mg 0.58063 0.86771 0.92835 0.0
O477 O 0.60477 0.8848 0.89433 0.0
O478 O 0.60445 0.90579 0.866 0.0
Mg479 Mg 0.58653 0.90627 0.91955 0.0
C480 C 0.61059 0.89738 0.86799 0.0
C481 C 0.58371 0.83895 0.90993 0.0
O482 O 0.57665 0.83906 0.86583 0.0
O483 O 0.586 0.87633 0.01504 0.0
O484 O 0.59809 0.89922 0.98153 0.0
O485 O 0.57156 0.86454 0.84402 0.0
O486 O 0.57212 0.88173 0.90015 0.0
C487 C 0.59133 0.89061 0.0211 0.0
C488 C 0.56931 0.8759 0.85283 0.0
O489 O 0.58763 0.84974 0.94359 0.0
Mg490 Mg 0.13324 0.7111 0.89978 0.0
O491 O 0.11831 0.72059 0.87035 0.0
O492 O 0.09509 0.70117 0.85124 0.0
Mg493 Mg 0.09568 0.6789 0.86353 0.0
C494 C 0.10459 0.71549 0.85472 0.0
C495 C 0.16391 0.74035 0.91361 0.0
O496 O 0.16687 0.73178 0.88171 0.0
O497 O 0.12022 0.70358 0.97841 0.0
O498 O 0.09862 0.68235 0.95492 0.0
O499 O 0.14096 0.71052 0.81637 0.0
O500 O 0.12075 0.69132 0.85451 0.0
C501 C 0.10759 0.69163 0.99048 0.0
C502 C 0.12937 0.69679 0.813 0.0
O503 O 0.15041 0.7349 0.93159 0.0
H504 H 0.22918 0.00594 0.63079 0.0
H505 H 0.22789 0.96339 0.59261 0.0
H506 H 0.24026 0.97415 0.50538 0.0
H507 H 0.21952 0.0119 0.49582 0.0
H508 H 0.23132 0.03241 0.49964 0.0
H509 H 0.22301 0.02148 0.55969 0.0
H510 H 0.25005 0.03364 0.6021 0.0
H511 H 0.25843 0.04428 0.54144 0.0
H512 H 0.26484 0.03187 0.56813 0.0
H513 H 0.25505 0.99011 0.42957 0.0
H514 H 0.26393 0.00695 0.35165 0.0
H515 H 0.25196 0.03797 0.43035 0.0
C516 C 0.23146 0.99891 0.60373 0.0
C517 C 0.22785 0.98396 0.6181 0.0
C518 C 0.23065 0.97488 0.58191 0.0
C519 C 0.23781 0.98096 0.53283 0.0
C520 C 0.24176 0.99595 0.52066 0.0
C521 C 0.23817 0.00463 0.55387 0.0
C522 C 0.24246 0.01992 0.52855 0.0
C523 C 0.22823 0.02151 0.5204 0.0
C524 C 0.25467 0.03321 0.56207 0.0
C525 C 0.24901 0.01842 0.47566 0.0
C526 C 0.24899 0.00472 0.47344 0.0
C527 C 0.25491 0.00075 0.4303 0.0
C528 C 0.26005 0.01051 0.38641 0.0
C529 C 0.25828 0.02359 0.38433 0.0
C530 C 0.25347 0.02809 0.43072 0.0
H531 H 0.01336 0.2581 0.59381 0.0
H532 H 0.01958 0.21899 0.61553 0.0
H533 H 0.00071 0.20515 0.54384 0.0
H534 H 0.97437 0.23899 0.5692 0.0
H535 H 0.97471 0.2513 0.51625 0.0
H536 H 0.98935 0.25874 0.56706 0.0
H537 H 0.01068 0.26747 0.49515 0.0
H538 H 0.99614 0.26089 0.44412 0.0
H539 H 0.00948 0.25397 0.44526 0.0
H540 H 0.97922 0.19471 0.47697 0.0
H541 H 0.96268 0.19116 0.39896 0.0
H542 H 0.97151 0.23756 0.41817 0.0
C543 C 0.01108 0.24682 0.58213 0.0
C544 C 0.01787 0.23957 0.60967 0.0
C545 C 0.01462 0.22477 0.59402 0.0
C546 C 0.00373 0.21674 0.55414 0.0
C547 C 0.99652 0.22386 0.52988 0.0
C548 C 0.00055 0.2388 0.54154 0.0
C549 C 0.99174 0.24411 0.50742 0.0
C550 C 0.98196 0.24854 0.54209 0.0
C551 C 0.00265 0.25739 0.47081 0.0
C552 C 0.98188 0.2297 0.47561 0.0
C553 C 0.98457 0.21805 0.48992 0.0
C554 C 0.97708 0.20377 0.46506 0.0
C555 C 0.96749 0.20176 0.42142 0.0
C556 C 0.96586 0.2141 0.40286 0.0
C557 C 0.97246 0.22791 0.43211 0.0
H558 H 0.75433 0.73671 0.38507 0.0
H559 H 0.79844 0.77771 0.36495 0.0
H560 H 0.79206 0.79044 0.43686 0.0
H561 H 0.73222 0.75415 0.41524 0.0
H562 H 0.72095 0.74089 0.46726 0.0
H563 H 0.72858 0.73477 0.41348 0.0
H564 H 0.74232 0.72627 0.48146 0.0
H565 H 0.73412 0.7317 0.53526 0.0
H566 H 0.75453 0.73958 0.53198 0.0
H567 H 0.78007 0.7994 0.50442 0.0
H568 H 0.76718 0.80161 0.585 0.0
H569 H 0.73202 0.754 0.56853 0.0
C570 C 0.76273 0.74825 0.39679 0.0
C571 C 0.77687 0.75628 0.36987 0.0
C572 C 0.78763 0.77135 0.38581 0.0
C573 C 0.78401 0.77874 0.42583 0.0
C574 C 0.7697 0.77076 0.45007 0.0
C575 C 0.7595 0.75564 0.4379 0.0
C576 C 0.7455 0.7493 0.47353 0.0
C577 C 0.73096 0.74449 0.44037 0.0
C578 C 0.74404 0.73593 0.50759 0.0
C579 C 0.74948 0.76323 0.50764 0.0
C580 C 0.76322 0.77562 0.492 0.0
C581 C 0.76935 0.78976 0.51744 0.0
C582 C 0.76182 0.79097 0.5627 0.0
C583 C 0.74862 0.77797 0.58281 0.0
C584 C 0.74201 0.76413 0.55353 0.0
H585 H 0.77188 0.99017 0.59906 0.0
H586 H 0.72281 0.96181 0.58299 0.0
H587 H 0.72397 0.97386 0.49493 0.0
H588 H 0.77413 0.02342 0.55058 0.0
H589 H 0.79207 0.03034 0.51602 0.0
H590 H 0.78777 0.01816 0.57376 0.0
H591 H 0.7919 0.99869 0.51882 0.0
H592 H 0.79693 0.01117 0.46164 0.0
H593 H 0.78189 0.99151 0.45617 0.0
H594 H 0.73062 0.99037 0.41221 0.0
H595 H 0.74246 0.00759 0.33487 0.0
H596 H 0.78706 0.02606 0.40954 0.0
C597 C 0.7615 0.98609 0.57573 0.0
C598 C 0.74733 0.97481 0.59614 0.0
C599 C 0.7338 0.97012 0.56648 0.0
C600 C 0.73435 0.97704 0.51708 0.0
C601 C 0.74851 0.98869 0.49903 0.0
C602 C 0.76186 0.99299 0.52707 0.0
C603 C 0.7755 0.00624 0.50064 0.0
C604 C 0.78279 0.02037 0.53746 0.0
C605 C 0.78724 0.00162 0.48326 0.0
C606 C 0.7678 0.00872 0.45297 0.0
C607 C 0.75222 0.99856 0.45287 0.0
C608 C 0.74279 0.99836 0.41184 0.0
C609 C 0.7496 0.00825 0.36835 0.0
C610 C 0.76566 0.01818 0.3665 0.0
C611 C 0.77474 0.01881 0.41035 0.0
H612 H 0.99569 0.75361 0.62346 0.0
H613 H 0.0384 0.79354 0.57527 0.0
H614 H 0.02883 0.79049 0.48287 0.0
H615 H 0.99 0.7318 0.50076 0.0
H616 H 0.96957 0.72388 0.50048 0.0
H617 H 0.97986 0.72883 0.56313 0.0
H618 H 0.96857 0.74614 0.58702 0.0
H619 H 0.95837 0.74137 0.52421 0.0
H620 H 0.97119 0.7611 0.54139 0.0
H621 H 0.01513 0.78391 0.39797 0.0
H622 H 0.99803 0.77324 0.32037 0.0
H623 H 0.96349 0.73752 0.42054 0.0
C624 C 0.00311 0.76161 0.59335 0.0
C625 C 0.01784 0.77381 0.60668 0.0
C626 C 0.02711 0.78409 0.56616 0.0
C627 C 0.02176 0.78249 0.51354 0.0
C628 C 0.00714 0.77056 0.50208 0.0
C629 C 0.99793 0.7602 0.54043 0.0
C630 C 0.98262 0.74847 0.51679 0.0
C631 C 0.98039 0.73229 0.52051 0.0
C632 C 0.96941 0.74933 0.54397 0.0
C633 C 0.98471 0.75393 0.45908 0.0
C634 C 0.999 0.76671 0.45202 0.0
C635 C 0.00395 0.77389 0.40278 0.0
C636 C 0.99416 0.76773 0.35905 0.0
C637 C 0.97956 0.75455 0.3647 0.0
C638 C 0.9746 0.74763 0.41548 0.0
H639 H 0.26596 0.25005 0.38248 0.0
H640 H 0.23677 0.20068 0.38476 0.0
H641 H 0.22577 0.20241 0.47059 0.0
H642 H 0.27267 0.25289 0.53285 0.0
H643 H 0.27336 0.27104 0.53656 0.0
H644 H 0.2798 0.26589 0.47682 0.0
H645 H 0.26103 0.27063 0.42061 0.0
H646 H 0.25418 0.27532 0.48027 0.0
H647 H 0.24092 0.2603 0.43648 0.0
H648 H 0.21469 0.20948 0.54463 0.0
H649 H 0.20878 0.22084 0.62186 0.0
H650 H 0.24728 0.26537 0.58254 0.0
C651 C 0.25763 0.23962 0.40216 0.0
C652 C 0.25221 0.22522 0.37725 0.0
C653 C 0.24122 0.21178 0.4036 0.0
C654 C 0.23477 0.21265 0.45203 0.0
C655 C 0.23983 0.22701 0.47442 0.0
C656 C 0.25147 0.24021 0.45195 0.0
C657 C 0.25492 0.25408 0.486 0.0
C658 C 0.27115 0.2614 0.50946 0.0
C659 C 0.25262 0.26576 0.4539 0.0
C660 C 0.2429 0.24658 0.52952 0.0
C661 C 0.23419 0.23099 0.52103 0.0
C662 C 0.22165 0.22159 0.55274 0.0
C663 C 0.21827 0.22817 0.59596 0.0
C664 C 0.22758 0.24389 0.60768 0.0
C665 C 0.24003 0.2533 0.57405 0.0
H666 H 0.89178 0.32787 0.68902 0.0
H667 H 0.93284 0.36896 0.7395 0.0
H668 H 0.93142 0.35702 0.82802 0.0
H669 H 0.87251 0.32215 0.8126 0.0
H670 H 0.86276 0.30157 0.80892 0.0
H671 H 0.8682 0.31271 0.74828 0.0
H672 H 0.88312 0.29927 0.71752 0.0
H673 H 0.87782 0.28824 0.77856 0.0
H674 H 0.89769 0.29974 0.76053 0.0
H675 H 0.92545 0.3408 0.90888 0.0
H676 H 0.91327 0.32374 0.98488 0.0
H677 H 0.87423 0.29396 0.88502 0.0
C678 C 0.90056 0.33423 0.71868 0.0
C679 C 0.91256 0.34914 0.70797 0.0
C680 C 0.92366 0.35745 0.74751 0.0
C681 C 0.92299 0.35072 0.79736 0.0
C682 C 0.91102 0.33586 0.80655 0.0
C683 C 0.89982 0.32784 0.76879 0.0
C684 C 0.88725 0.3128 0.79077 0.0
C685 C 0.87177 0.31229 0.79012 0.0
C686 C 0.88643 0.29921 0.76 0.0
C687 C 0.89302 0.31364 0.84729 0.0
C688 C 0.90696 0.32686 0.85479 0.0
C689 C 0.91456 0.33044 0.90354 0.0
C690 C 0.90748 0.32059 0.94646 0.0
C691 C 0.89268 0.30753 0.94098 0.0
C692 C 0.88555 0.30376 0.89028 0.0
H693 H 0.64639 0.5458 0.72751 0.0
H694 H 0.65711 0.59101 0.67495 0.0
H695 H 0.67299 0.60231 0.75593 0.0
H696 H 0.64523 0.55212 0.8716 0.0
H697 H 0.65403 0.54095 0.88864 0.0
H698 H 0.64255 0.53655 0.82889 0.0
H699 H 0.66535 0.53919 0.77278 0.0
H700 H 0.67703 0.544 0.83215 0.0
H701 H 0.68342 0.55678 0.77545 0.0
H702 H 0.68762 0.60862 0.84343 0.0
H703 H 0.69955 0.6092 0.93119 0.0
H704 H 0.68123 0.5603 0.92154 0.0
C705 C 0.6518 0.55803 0.73372 0.0
C706 C 0.65039 0.56753 0.69538 0.0
C707 C 0.65798 0.58354 0.7041 0.0
C708 C 0.66706 0.59006 0.74984 0.0
C709 C 0.6686 0.58043 0.78609 0.0
C710 C 0.66116 0.56476 0.77861 0.0
C711 C 0.66519 0.55703 0.82245 0.0
C712 C 0.6509 0.54602 0.85481 0.0
C713 C 0.67323 0.54876 0.7993 0.0
C714 C 0.67608 0.57077 0.85566 0.0
C715 C 0.67781 0.58417 0.83436 0.0
C716 C 0.68656 0.59823 0.86003 0.0
C717 C 0.69339 0.59851 0.90945 0.0
C718 C 0.69172 0.58489 0.93164 0.0
C719 C 0.68316 0.57093 0.90406 0.0
H720 H 0.42898 0.07582 0.72826 0.0
H721 H 0.47444 0.11481 0.70774 0.0
H722 H 0.47119 0.12642 0.79083 0.0
H723 H 0.41086 0.09491 0.77468 0.0
H724 H 0.39916 0.08097 0.82433 0.0
H725 H 0.40538 0.07509 0.76588 0.0
H726 H 0.41785 0.0633 0.82545 0.0
H727 H 0.41116 0.06861 0.88413 0.0
H728 H 0.43118 0.07479 0.87708 0.0
H729 H 0.46136 0.13509 0.86959 0.0
H730 H 0.44823 0.1375 0.95003 0.0
H731 H 0.41018 0.09189 0.92189 0.0
C732 C 0.43839 0.08659 0.74223 0.0
C733 C 0.45196 0.09445 0.71211 0.0
C734 C 0.46404 0.10857 0.73097 0.0
C735 C 0.46222 0.1153 0.77765 0.0
C736 C 0.44839 0.10756 0.80526 0.0
C737 C 0.43691 0.09326 0.78926 0.0
C738 C 0.42325 0.08718 0.8263 0.0
C739 C 0.40882 0.08438 0.79596 0.0
C740 C 0.42072 0.07261 0.85495 0.0
C741 C 0.42865 0.10045 0.86487 0.0
C742 C 0.44307 0.11221 0.85169 0.0
C743 C 0.45015 0.12588 0.88065 0.0
C744 C 0.44254 0.12725 0.92567 0.0
C745 C 0.42819 0.11494 0.94137 0.0
C746 C 0.4211 0.10151 0.91014 0.0
H747 H 0.46372 0.3728 0.76581 0.0
H748 H 0.42131 0.34719 0.67663 0.0
H749 H 0.41027 0.32891 0.75065 0.0
H750 H 0.46404 0.34106 0.82296 0.0
H751 H 0.47115 0.34973 0.88764 0.0
H752 H 0.47585 0.36153 0.82869 0.0
H753 H 0.4647 0.37716 0.87225 0.0
H754 H 0.46024 0.36563 0.93184 0.0
H755 H 0.44542 0.36733 0.89779 0.0
H756 H 0.40442 0.31205 0.83036 0.0
H757 H 0.40299 0.29993 0.9185 0.0
H758 H 0.44827 0.33701 0.95799 0.0
C759 C 0.45201 0.36356 0.76248 0.0
C760 C 0.44343 0.36142 0.71543 0.0
C761 C 0.42816 0.34908 0.71232 0.0
C762 C 0.42176 0.33855 0.75403 0.0
C763 C 0.43067 0.34062 0.79903 0.0
C764 C 0.44532 0.35298 0.8042 0.0
C765 C 0.45235 0.35248 0.85717 0.0
C766 C 0.4667 0.35112 0.84856 0.0
C767 C 0.45588 0.36648 0.89181 0.0
C768 C 0.43939 0.33792 0.88049 0.0
C769 C 0.42707 0.33113 0.84598 0.0
C770 C 0.41393 0.31731 0.85808 0.0
C771 C 0.41324 0.31045 0.9077 0.0
C772 C 0.42554 0.31761 0.9441 0.0
C773 C 0.43877 0.33139 0.93028 0.0
H774 H 0.68366 0.0872 0.92979 0.0
H775 H 0.68436 0.12995 0.95736 0.0
H776 H 0.6678 0.12505 0.87852 0.0
H777 H 0.68621 0.09146 0.78284 0.0
H778 H 0.67424 0.07126 0.77061 0.0
H779 H 0.68568 0.07781 0.83062 0.0
H780 H 0.66128 0.06195 0.88757 0.0
H781 H 0.64971 0.0557 0.82773 0.0
H782 H 0.64538 0.06519 0.88033 0.0
H783 H 0.64927 0.11453 0.80431 0.0
H784 H 0.63557 0.10291 0.7203 0.0
H785 H 0.64971 0.06886 0.72945 0.0
C786 C 0.68049 0.09559 0.9184 0.0
C787 C 0.68523 0.10897 0.94928 0.0
C788 C 0.68093 0.11973 0.93367 0.0
C789 C 0.67138 0.11696 0.88947 0.0
C790 C 0.66655 0.10352 0.86055 0.0
C791 C 0.67139 0.09328 0.87282 0.0
C792 C 0.66542 0.0804 0.83186 0.0
C793 C 0.67868 0.08023 0.80221 0.0
C794 C 0.65482 0.06489 0.85848 0.0
C795 C 0.65651 0.08508 0.79492 0.0
C796 C 0.6569 0.09815 0.81375 0.0
C797 C 0.64904 0.10443 0.78857 0.0
C798 C 0.64114 0.09763 0.74124 0.0
C799 C 0.64158 0.085 0.71861 0.0
C800 C 0.64917 0.07848 0.74619 0.0
H801 H 0.90163 0.57356 0.70019 0.0
H802 H 0.92704 0.55094 0.74342 0.0
H803 H 0.92482 0.55592 0.83923 0.0
H804 H 0.91653 0.6027 0.80682 0.0
H805 H 0.89834 0.6016 0.8167 0.0
H806 H 0.90341 0.5978 0.75145 0.0
H807 H 0.87861 0.57137 0.74998 0.0
H808 H 0.8735 0.57503 0.81524 0.0
H809 H 0.87487 0.55812 0.8041 0.0
H810 H 0.91916 0.56254 0.92943 0.0
H811 H 0.90904 0.56866 0.00939 0.0
H812 H 0.88563 0.58548 0.90825 0.0
C813 C 0.90703 0.56994 0.72967 0.0
C814 C 0.91471 0.56204 0.7143 0.0
C815 C 0.92123 0.55712 0.75426 0.0
C816 C 0.92005 0.55992 0.8087 0.0
C817 C 0.91222 0.56755 0.82241 0.0
C818 C 0.90576 0.57243 0.78412 0.0
C819 C 0.89697 0.57935 0.8097 0.0
C820 C 0.90425 0.59637 0.79531 0.0
C821 C 0.87998 0.57043 0.79381 0.0
C822 C 0.89919 0.57726 0.86854 0.0
C823 C 0.90831 0.57075 0.87477 0.0
C824 C 0.91207 0.5677 0.92507 0.0
C825 C 0.90628 0.57129 0.97027 0.0
C826 C 0.89657 0.57762 0.96512 0.0
C827 C 0.89301 0.58066 0.91343 0.0
H828 H 0.57553 0.67021 0.28389 0.0
H829 H 0.5593 0.62268 0.24486 0.0
H830 H 0.56559 0.62971 0.14918 0.0
H831 H 0.55846 0.67684 0.17503 0.0
H832 H 0.57333 0.69633 0.16418 0.0
H833 H 0.57032 0.68812 0.23014 0.0
H834 H 0.59862 0.69473 0.23404 0.0
H835 H 0.60175 0.70306 0.16804 0.0
H836 H 0.60615 0.68815 0.18135 0.0
H837 H 0.57191 0.64167 0.05786 0.0
H838 H 0.57519 0.65672 0.97653 0.0
H839 H 0.58522 0.69624 0.07464 0.0
C840 C 0.57377 0.66135 0.25544 0.0
C841 C 0.56727 0.64595 0.2717 0.0
C842 C 0.56449 0.63457 0.23312 0.0
C843 C 0.56807 0.63848 0.17887 0.0
C844 C 0.57421 0.65377 0.16402 0.0
C845 C 0.57691 0.66501 0.20116 0.0
C846 C 0.58166 0.68019 0.17421 0.0
C847 C 0.57026 0.68568 0.18662 0.0
C848 C 0.59802 0.69224 0.19038 0.0
C849 C 0.58089 0.67569 0.11588 0.0
C850 C 0.57695 0.6605 0.11102 0.0
C851 C 0.57509 0.65358 0.06121 0.0
C852 C 0.57701 0.66229 0.01517 0.0
C853 C 0.58046 0.67772 0.01905 0.0
C854 C 0.58264 0.68452 0.07025 0.0
H855 H 0.33191 0.90003 0.28517 0.0
H856 H 0.37898 0.93159 0.24134 0.0
H857 H 0.37112 0.92983 0.14605 0.0
H858 H 0.32382 0.87555 0.17139 0.0
H859 H 0.30429 0.87125 0.16497 0.0
H860 H 0.31344 0.8759 0.22971 0.0
H861 H 0.30714 0.89767 0.24031 0.0
H862 H 0.29805 0.89314 0.17542 0.0
H863 H 0.3133 0.91227 0.1895 0.0
H864 H 0.3582 0.92495 0.05764 0.0
H865 H 0.34207 0.91507 0.97795 0.0
H866 H 0.30323 0.88482 0.07766 0.0
C867 C 0.34052 0.90669 0.25545 0.0
C868 C 0.35601 0.91615 0.27021 0.0
C869 C 0.36707 0.92437 0.23049 0.0
C870 C 0.36269 0.92349 0.17659 0.0
C871 C 0.34728 0.91411 0.16344 0.0
C872 C 0.3364 0.90565 0.20153 0.0
C873 C 0.32083 0.89558 0.17624 0.0
C874 C 0.31527 0.87856 0.18616 0.0
C875 C 0.30914 0.89993 0.19658 0.0
C876 C 0.32464 0.89972 0.11768 0.0
C877 C 0.33991 0.91061 0.11163 0.0
C878 C 0.34626 0.91636 0.06179 0.0
C879 C 0.3369 0.91061 0.01666 0.0
C880 C 0.3213 0.89899 0.02119 0.0
C881 C 0.31506 0.89364 0.0727 0.0
H882 H 0.07969 0.4215 0.26487 0.0
H883 H 0.08759 0.46736 0.23696 0.0
H884 H 0.09747 0.46707 0.14655 0.0
H885 H 0.11336 0.42709 0.20432 0.0
H886 H 0.10501 0.40821 0.17562 0.0
H887 H 0.09713 0.41126 0.23604 0.0
H888 H 0.07045 0.39964 0.19135 0.0
H889 H 0.07816 0.3962 0.1312 0.0
H890 H 0.06854 0.40714 0.12804 0.0
H891 H 0.10773 0.46235 0.06192 0.0
H892 H 0.11598 0.45277 0.98503 0.0
H893 H 0.1023 0.41039 0.06963 0.0
C894 C 0.08318 0.4314 0.23952 0.0
C895 C 0.08281 0.44447 0.25808 0.0
C896 C 0.08768 0.4572 0.2236 0.0
C897 C 0.09338 0.45717 0.17232 0.0
C898 C 0.09414 0.44433 0.15634 0.0
C899 C 0.08901 0.43162 0.18864 0.0
C900 C 0.09157 0.41949 0.16281 0.0
C901 C 0.10241 0.41634 0.19673 0.0
C902 C 0.07627 0.40475 0.15274 0.0
C903 C 0.09902 0.4274 0.11081 0.0
C904 C 0.10038 0.44173 0.10799 0.0
C905 C 0.10673 0.45118 0.06368 0.0
C906 C 0.11146 0.44571 0.02052 0.0
C907 C 0.10993 0.43102 0.02231 0.0
C908 C 0.10382 0.42179 0.06811 0.0
H909 H 0.0773 0.63348 0.23861 0.0
H910 H 0.10714 0.67279 0.33717 0.0
H911 H 0.11408 0.68948 0.25873 0.0
H912 H 0.10185 0.64579 0.12047 0.0
H913 H 0.08621 0.63893 0.0735 0.0
H914 H 0.08347 0.62972 0.13767 0.0
H915 H 0.06077 0.63414 0.15669 0.0
H916 H 0.06364 0.64362 0.09296 0.0
H917 H 0.06371 0.65326 0.15395 0.0
H918 H 0.11801 0.70224 0.17222 0.0
H919 H 0.1203 0.71014 0.07765 0.0
H920 H 0.08795 0.66324 0.03234 0.0
C921 C 0.08536 0.64556 0.24333 0.0
C922 C 0.0915 0.65184 0.29419 0.0
C923 C 0.10204 0.66773 0.29884 0.0
C924 C 0.10611 0.67737 0.25451 0.0
C925 C 0.09956 0.67101 0.20542 0.0
C926 C 0.08954 0.65551 0.19906 0.0
C927 C 0.08445 0.65187 0.14098 0.0
C928 C 0.08929 0.64093 0.11673 0.0
C929 C 0.06711 0.64534 0.13587 0.0
C930 C 0.0933 0.66772 0.11628 0.0
C931 C 0.10184 0.67855 0.15447 0.0
C932 C 0.11136 0.6939 0.14172 0.0
C933 C 0.11256 0.69829 0.08793 0.0
C934 C 0.10428 0.68736 0.04762 0.0
C935 C 0.09426 0.67193 0.06231 0.0
H936 H 0.35376 0.42512 0.24869 0.0
H937 H 0.36471 0.47243 0.25856 0.0
H938 H 0.34796 0.46843 0.18113 0.0
H939 H 0.35177 0.42334 0.09683 0.0
H940 H 0.33662 0.40367 0.09846 0.0
H941 H 0.35087 0.411 0.15064 0.0
H942 H 0.32913 0.40181 0.22083 0.0
H943 H 0.31486 0.39522 0.16881 0.0
H944 H 0.31593 0.40889 0.21771 0.0
H945 H 0.32626 0.45799 0.11639 0.0
H946 H 0.30764 0.44442 0.04405 0.0
H947 H 0.31277 0.4047 0.06807 0.0
C948 C 0.35315 0.43479 0.23296 0.0
C949 C 0.36049 0.44907 0.25955 0.0
C950 C 0.35933 0.46145 0.23839 0.0
C951 C 0.34965 0.45922 0.19497 0.0
C952 C 0.34164 0.44469 0.17232 0.0
C953 C 0.34387 0.43289 0.18861 0.0
C954 C 0.33397 0.41846 0.15661 0.0
C955 C 0.3439 0.41385 0.12366 0.0
C956 C 0.32281 0.40533 0.1932 0.0
C957 C 0.32556 0.42394 0.12087 0.0
C958 C 0.32987 0.43898 0.13178 0.0
C959 C 0.32305 0.44633 0.10647 0.0
C960 C 0.31229 0.43844 0.06617 0.0
C961 C 0.30881 0.42355 0.05081 0.0
C962 C 0.31521 0.41606 0.07944 0.0
H963 H 0.54942 0.88566 0.29646 0.0
H964 H 0.5544 0.92981 0.25996 0.0
H965 H 0.56491 0.92932 0.1704 0.0
H966 H 0.58264 0.89141 0.24227 0.0
H967 H 0.57548 0.87258 0.21418 0.0
H968 H 0.56615 0.87519 0.27129 0.0
H969 H 0.54034 0.86278 0.22014 0.0
H970 H 0.54951 0.85973 0.16324 0.0
H971 H 0.53936 0.87004 0.15509 0.0
H972 H 0.57863 0.92566 0.09201 0.0
H973 H 0.59126 0.91771 0.02498 0.0
H974 H 0.57625 0.87534 0.11204 0.0
C975 C 0.55222 0.89493 0.26866 0.0
C976 C 0.55098 0.90768 0.28418 0.0
C977 C 0.55503 0.91984 0.24786 0.0
C978 C 0.56107 0.91967 0.19725 0.0
C979 C 0.56268 0.90713 0.18374 0.0
C980 C 0.55798 0.89479 0.21787 0.0
C981 C 0.56159 0.88307 0.19517 0.0
C982 C 0.57209 0.88042 0.23299 0.0
C983 C 0.54682 0.86801 0.18266 0.0
C984 C 0.5698 0.89107 0.14428 0.0
C985 C 0.57024 0.90489 0.13815 0.0
C986 C 0.57805 0.91472 0.09582 0.0
C987 C 0.58531 0.91015 0.0582 0.0
C988 C 0.58464 0.89583 0.06305 0.0
C989 C 0.57683 0.88627 0.10691 0.0
H990 H 0.21611 0.99178 0.87546 0.0
H991 H 0.19186 0.94642 0.94574 0.0
H992 H 0.19689 0.95805 0.0364 0.0
H993 H 0.24556 0.00845 0.97692 0.0
H994 H 0.24657 0.02676 0.97394 0.0
H995 H 0.2412 0.01476 0.91519 0.0
H996 H 0.2161 0.0158 0.90789 0.0
H997 H 0.22136 0.02775 0.96669 0.0
H998 H 0.20333 0.01012 0.96461 0.0
H999 H 0.20481 0.97485 0.11858 0.0
H1000 H 0.21464 0.99537 0.18652 0.0
H1001 H 0.23346 0.02957 0.06074 0.0
C1002 C 0.21198 0.98423 0.90979 0.0
C1003 C 0.20371 0.96821 0.90375 0.0
C1004 C 0.19825 0.95875 0.94969 0.0
C1005 C 0.20108 0.96525 0.00117 0.0
C1006 C 0.20933 0.98115 0.00553 0.0
C1007 C 0.21472 0.99049 0.96104 0.0
C1008 C 0.22324 0.00721 0.9762 0.0
C1009 C 0.24014 0.01474 0.95958 0.0
C1010 C 0.21554 0.01571 0.95242 0.0
C1011 C 0.2215 0.00591 0.03629 0.0
C1012 C 0.21361 0.99078 0.0525 0.0
C1013 C 0.2109 0.98671 0.1063 0.0
C1014 C 0.21648 0.99845 0.14443 0.0
C1015 C 0.22455 0.01402 0.12846 0.0
C1016 C 0.22701 0.01778 0.07377 0.0
H1017 H 0.96328 0.20648 0.04663 0.0
H1018 H 0.99471 0.23466 0.17189 0.0
H1019 H 0.01515 0.24728 0.10528 0.0
H1020 H 0.98872 0.1996 0.97777 0.0
H1021 H 0.98223 0.20053 0.91126 0.0
H1022 H 0.96925 0.19509 0.96703 0.0
H1023 H 0.9637 0.21691 0.94479 0.0
H1024 H 0.97652 0.2223 0.88834 0.0
H1025 H 0.97936 0.23625 0.93893 0.0
H1026 H 0.03318 0.25373 0.02904 0.0
H1027 H 0.04684 0.25573 0.94404 0.0
H1028 H 0.00362 0.22464 0.86777 0.0
C1029 C 0.97434 0.21559 0.05971 0.0
C1030 C 0.97736 0.21964 0.1143 0.0
C1031 C 0.99204 0.23147 0.13014 0.0
C1032 C 0.00379 0.23871 0.09265 0.0
C1033 C 0.0006 0.23413 0.03941 0.0
C1034 C 0.98618 0.22306 0.02265 0.0
C1035 C 0.98608 0.21961 0.96361 0.0
C1036 C 0.98129 0.20271 0.95443 0.0
C1037 C 0.97581 0.22404 0.93206 0.0
C1038 C 0.00277 0.23008 0.9505 0.0
C1039 C 0.01098 0.23834 -0.00526 0.0
C1040 C 0.02685 0.24764 0.99363 0.0
C1041 C 0.03451 0.24861 0.94562 0.0
C1042 C 0.02618 0.24048 0.89981 0.0
C1043 C 0.01016 0.23122 0.90222 0.0
H1044 H 0.75495 0.78395 0.93493 0.0
H1045 H 0.77671 0.77357 0.80439 0.0
H1046 H 0.78742 0.76289 0.86871 0.0
H1047 H 0.78406 0.79474 0.03184 0.0
H1048 H 0.77127 0.78559 0.08742 0.0
H1049 H 0.76506 0.79214 0.03089 0.0
H1050 H 0.74177 0.7649 0.01852 0.0
H1051 H 0.74799 0.75823 0.0749 0.0
H1052 H 0.74486 0.7489 0.01067 0.0
H1053 H 0.79749 0.75537 0.94737 0.0
H1054 H 0.80491 0.74997 0.03582 0.0
H1055 H 0.77487 0.76321 0.11393 0.0
C1056 C 0.7619 0.77934 0.92014 0.0
C1057 C 0.76506 0.77955 0.86504 0.0
C1058 C 0.77409 0.77336 0.84665 0.0
C1059 C 0.78024 0.76731 0.88277 0.0
C1060 C 0.77693 0.76721 0.93692 0.0
C1061 C 0.76779 0.77285 0.95556 0.0
C1062 C 0.7659 0.77119 0.01576 0.0
C1063 C 0.77194 0.78685 0.04306 0.0
C1064 C 0.74913 0.76015 0.03084 0.0
C1065 C 0.77586 0.76432 0.02804 0.0
C1066 C 0.78211 0.76209 0.98207 0.0
C1067 C 0.79246 0.75679 0.98371 0.0
C1068 C 0.79662 0.75377 0.03395 0.0
C1069 C 0.7903 0.75598 0.08143 0.0
C1070 C 0.77965 0.76111 0.07819 0.0
H1071 H 0.76215 0.96788 0.94408 0.0
H1072 H 0.77813 0.00244 0.81925 0.0
H1073 H 0.79195 0.02256 0.88663 0.0
H1074 H 0.75542 0.99028 0.04112 0.0
H1075 H 0.76124 0.98323 0.09751 0.0
H1076 H 0.75321 0.97143 0.03892 0.0
H1077 H 0.77729 0.96863 0.03115 0.0
H1078 H 0.78548 0.98061 0.08932 0.0
H1079 H 0.79591 0.98554 0.02696 0.0
H1080 H 0.80447 0.03895 0.96676 0.0
H1081 H 0.81195 0.05073 0.05709 0.0
H1082 H 0.78661 0.00574 0.12934 0.0
C1083 C 0.76858 0.97968 0.93112 0.0
C1084 C 0.76915 0.98363 0.8767 0.0
C1085 C 0.77751 0.99919 0.861 0.0
C1086 C 0.7855 0.0107 0.8988 0.0
C1087 C 0.78485 0.00646 0.95213 0.0
C1088 C 0.77639 0.99138 0.96853 0.0
C1089 C 0.77682 0.99006 0.02878 0.0
C1090 C 0.76072 0.98336 0.05299 0.0
C1091 C 0.78433 0.98065 0.04498 0.0
C1092 C 0.78681 0.00673 0.04339 0.0
C1093 C 0.79154 0.016 -0.00138 0.0
C1094 C 0.80083 0.03184 0.00227 0.0
C1095 C 0.80507 0.03842 0.05345 0.0
C1096 C 0.79974 0.0291 0.0996 0.0
C1097 C 0.79073 0.01309 0.09441 0.0
H1098 H 0.00907 0.76941 0.87901 0.0
H1099 H 0.0429 0.81493 0.93224 0.0
H1100 H 0.02745 0.8117 0.01304 0.0
H1101 H 0.97681 0.77042 0.91653 0.0
H1102 H 0.96607 0.751 0.94034 0.0
H1103 H 0.9804 0.75597 0.8893 0.0
H1104 H 0.99446 0.74557 0.94746 0.0
H1105 H 0.97984 0.74 -0.00216 0.0
H1106 H -0.00036 0.75222 0.01555 0.0
H1107 H 0.00703 0.8048 0.08136 0.0
H1108 H 0.98505 0.79265 0.14348 0.0
H1109 H 0.96498 0.75128 0.04778 0.0
C1110 C 0.0134 0.77858 0.90811 0.0
C1111 C 0.02709 0.79247 0.89919 0.0
C1112 C 0.03243 0.80418 0.9384 0.0
C1113 C 0.02369 0.80249 0.98419 0.0
C1114 C 0.00985 0.78894 0.99033 0.0
C1115 C 0.00495 0.77699 0.95431 0.0
C1116 C 0.98959 0.76365 0.97022 0.0
C1117 C 0.97751 0.76006 0.92648 0.0
C1118 C 0.99097 0.74953 0.98358 0.0
C1119 C 0.98636 0.77016 0.01988 0.0
C1120 C 0.99818 0.7848 0.03052 0.0
C1121 C 0.99776 0.79332 0.07369 0.0
C1122 C 0.98519 0.78644 0.10818 0.0
C1123 C 0.97332 0.77128 0.09912 0.0
C1124 C 0.97378 0.76305 0.05431 0.0
H1125 H 0.25058 0.22795 0.0728 0.0
H1126 H 0.21094 0.18394 0.10815 0.0
H1127 H 0.19623 0.1882 0.03759 0.0
H1128 H 0.23118 0.24842 0.04169 0.0
H1129 H 0.24339 0.25885 0.98616 0.0
H1130 H 0.25077 0.2527 0.04059 0.0
H1131 H 0.25887 0.23835 0.9738 0.0
H1132 H 0.25182 0.24472 0.91911 0.0
H1133 H 0.2449 0.2246 0.92812 0.0
H1134 H 0.18551 0.19804 0.96843 0.0
H1135 H 0.1807 0.21026 0.89075 0.0
H1136 H 0.22811 0.2465 0.8931 0.0
C1137 C 0.23884 0.21924 0.0651 0.0
C1138 C 0.23173 0.20567 0.09534 0.0
C1139 C 0.21645 0.19436 0.08471 0.0
C1140 C 0.20802 0.19674 0.04524 0.0
C1141 C 0.21524 0.21036 0.01643 0.0
C1142 C 0.23041 0.22123 0.0247 0.0
C1143 C 0.23567 0.23437 0.98563 0.0
C1144 C 0.24054 0.24948 0.0153 0.0
C1145 C 0.24857 0.23557 0.94952 0.0
C1146 C 0.22107 0.22919 0.95427 0.0
C1147 C 0.20933 0.21552 0.9737 0.0
C1148 C 0.19462 0.20866 0.95242 0.0
C1149 C 0.19198 0.21572 0.90875 0.0
C1150 C 0.20408 0.2292 0.88633 0.0
C1151 C 0.21873 0.23613 0.90967 0.0
H1152 H 0.88323 0.3362 0.45787 0.0
H1153 H 0.90748 0.38191 0.39068 0.0
H1154 H 0.9041 0.37086 0.29955 0.0
H1155 H 0.89717 0.31822 0.36453 0.0
H1156 H 0.8791 0.30065 0.36129 0.0
H1157 H 0.88446 0.3121 0.42144 0.0
H1158 H 0.85941 0.31326 0.41658 0.0
H1159 H 0.85396 0.30176 0.35666 0.0
H1160 H 0.85501 0.32011 0.35618 0.0
H1161 H 0.8982 0.35491 0.21707 0.0
H1162 H 0.88766 0.33527 0.14633 0.0
H1163 H 0.8655 0.29986 0.26689 0.0
C1164 C 0.88788 0.34386 0.4239 0.0
C1165 C 0.89563 0.35986 0.43081 0.0
C1166 C 0.90143 0.3696 0.38578 0.0
C1167 C 0.89968 0.36344 0.33415 0.0
C1168 C 0.89195 0.34757 0.32868 0.0
C1169 C 0.88598 0.33791 0.37221 0.0
C1170 C 0.87728 0.3213 0.35511 0.0
C1171 C 0.88497 0.31256 0.37689 0.0
C1172 C 0.86041 0.31367 0.37215 0.0
C1173 C 0.87898 0.32313 0.29495 0.0
C1174 C 0.88781 0.33836 0.28075 0.0
C1175 C 0.89119 0.34297 0.22764 0.0
C1176 C 0.88514 0.33172 0.18787 0.0
C1177 C 0.8756 0.31611 0.20144 0.0
C1178 C 0.87256 0.31174 0.25563 0.0
H1179 H 0.68945 0.57793 0.24177 0.0
H1180 H 0.67657 0.53305 0.17928 0.0
H1181 H 0.65571 0.52115 0.24619 0.0
H1182 H 0.68319 0.56643 0.38143 0.0
H1183 H 0.67627 0.57923 0.39871 0.0
H1184 H 0.6897 0.58398 0.34462 0.0
H1185 H 0.67089 0.5867 0.281 0.0
H1186 H 0.65723 0.58156 0.33466 0.0
H1187 H 0.65174 0.57084 0.27284 0.0
H1188 H 0.63583 0.51433 0.31762 0.0
H1189 H 0.62123 0.51252 0.3995 0.0
H1190 H 0.64808 0.56175 0.41885 0.0
C1191 C 0.68231 0.5656 0.2429 0.0
C1192 C 0.68452 0.55629 0.20621 0.0
C1193 C 0.67502 0.54024 0.20791 0.0
C1194 C 0.66309 0.53344 0.24524 0.0
C1195 C 0.66099 0.54291 0.28062 0.0
C1196 C 0.67053 0.55861 0.28062 0.0
C1197 C 0.66635 0.56608 0.32502 0.0
C1198 C 0.67967 0.57442 0.3648 0.0
C1199 C 0.66125 0.57694 0.30198 0.0
C1200 C 0.65306 0.55212 0.35021 0.0
C1201 C 0.64993 0.53891 0.32323 0.0
C1202 C 0.63821 0.52459 0.33925 0.0
C1203 C 0.6299 0.52369 0.38552 0.0
C1204 C 0.6336 0.53699 0.41562 0.0
C1205 C 0.64505 0.5514 0.39684 0.0
H1206 H 0.43984 0.13397 0.25315 0.0
H1207 H 0.39748 0.09208 0.22132 0.0
H1208 H 0.40405 0.07872 0.29076 0.0
H1209 H 0.46196 0.11707 0.26076 0.0
H1210 H 0.47462 0.12914 0.31291 0.0
H1211 H 0.46549 0.1363 0.26906 0.0
H1212 H 0.45358 0.14272 0.35001 0.0
H1213 H 0.46327 0.13628 0.39437 0.0
H1214 H 0.44286 0.12817 0.39926 0.0
H1215 H 0.41628 0.06979 0.35938 0.0
H1216 H 0.43263 0.06635 0.42582 0.0
H1217 H 0.46797 0.11353 0.40401 0.0
C1218 C 0.43169 0.12217 0.26276 0.0
C1219 C 0.41798 0.11406 0.2339 0.0
C1220 C 0.40783 0.09845 0.24476 0.0
C1221 C 0.41154 0.0908 0.28358 0.0
C1222 C 0.42555 0.09895 0.30989 0.0
C1223 C 0.4354 0.11433 0.3003 0.0
C1224 C 0.45034 0.12016 0.32995 0.0
C1225 C 0.4639 0.12601 0.29082 0.0
C1226 C 0.45263 0.13256 0.37084 0.0
C1227 C 0.44744 0.10564 0.35741 0.0
C1228 C 0.43304 0.09355 0.34579 0.0
C1229 C 0.42762 0.07912 0.3684 0.0
C1230 C 0.43699 0.0772 0.40536 0.0
C1231 C 0.45163 0.08955 0.41794 0.0
C1232 C 0.45701 0.10381 0.39312 0.0
H1233 H 0.45205 0.33023 0.2027 0.0
H1234 H 0.41719 0.28726 0.27039 0.0
H1235 H 0.4186 0.30047 0.35594 0.0
H1236 H 0.47478 0.34368 0.32299 0.0
H1237 H 0.48038 0.36339 0.31101 0.0
H1238 H 0.47608 0.3505 0.2553 0.0
H1239 H 0.45599 0.3574 0.22153 0.0
H1240 H 0.46002 0.37008 0.27778 0.0
H1241 H 0.44075 0.35487 0.26559 0.0
H1242 H 0.42358 0.31837 0.43219 0.0
H1243 H 0.43407 0.33873 0.49975 0.0
H1244 H 0.46658 0.37014 0.38322 0.0
C1245 C 0.44476 0.32362 0.23571 0.0
C1246 C 0.43449 0.3078 0.23048 0.0
C1247 C 0.42521 0.29939 0.27422 0.0
C1248 C 0.42583 0.30682 0.32252 0.0
C1249 C 0.43595 0.32253 0.3261 0.0
C1250 C 0.44546 0.33077 0.28427 0.0
C1251 C 0.45594 0.34734 0.29943 0.0
C1252 C 0.47279 0.35147 0.29705 0.0
C1253 C 0.45299 0.35805 0.26397 0.0
C1254 C 0.45084 0.34719 0.35651 0.0
C1255 C 0.43914 0.3328 0.37069 0.0
C1256 C 0.43271 0.32968 0.42157 0.0
C1257 C 0.43872 0.34142 0.45956 0.0
C1258 C 0.45112 0.35612 0.44665 0.0
C1259 C 0.45705 0.35908 0.39411 0.0
H1260 H 0.69043 0.10616 0.24886 0.0
H1261 H 0.6972 0.15172 0.22723 0.0
H1262 H 0.67862 0.14701 0.29953 0.0
H1263 H 0.65143 0.08673 0.27724 0.0
H1264 H 0.65195 0.07483 0.33011 0.0
H1265 H 0.66623 0.08173 0.27813 0.0
H1266 H 0.68783 0.09405 0.34908 0.0
H1267 H 0.67362 0.08682 0.40141 0.0
H1268 H 0.68741 0.10695 0.39822 0.0
H1269 H 0.65688 0.13611 0.36377 0.0
H1270 H 0.63765 0.12205 0.43425 0.0
H1271 H 0.64739 0.08493 0.42395 0.0
C1272 C 0.68821 0.11521 0.2605 0.0
C1273 C 0.69513 0.12929 0.2331 0.0
C1274 C 0.69205 0.14093 0.24859 0.0
C1275 C 0.68145 0.13832 0.2891 0.0
C1276 C 0.67443 0.12416 0.31449 0.0
C1277 C 0.67808 0.113 0.30239 0.0
C1278 C 0.66928 0.09904 0.33758 0.0
C1279 C 0.65912 0.08474 0.30372 0.0
C1280 C 0.68019 0.09658 0.37372 0.0
C1281 C 0.65978 0.10394 0.36999 0.0
C1282 C 0.66273 0.11835 0.35513 0.0
C1283 C 0.65469 0.12497 0.3767 0.0
C1284 C 0.64373 0.11688 0.41613 0.0
C1285 C 0.64125 0.10257 0.43418 0.0
C1286 C 0.64925 0.09594 0.41071 0.0
H1287 H 0.90993 0.55994 0.41794 0.0
H1288 H 0.87197 0.51401 0.44071 0.0
H1289 H 0.85704 0.51869 0.37192 0.0
H1290 H 0.88895 0.5788 0.39644 0.0
H1291 H 0.90108 0.59117 0.34388 0.0
H1292 H 0.9089 0.58432 0.39453 0.0
H1293 H 0.91851 0.57279 0.32167 0.0
H1294 H 0.91124 0.58012 0.27081 0.0
H1295 H 0.90529 0.56006 0.27197 0.0
H1296 H 0.84571 0.52925 0.30631 0.0
H1297 H 0.84088 0.54246 0.23172 0.0
H1298 H 0.88706 0.58063 0.24673 0.0
C1299 C 0.89857 0.55084 0.40757 0.0
C1300 C 0.89197 0.53665 0.43399 0.0
C1301 C 0.87714 0.5249 0.42008 0.0
C1302 C 0.86856 0.52753 0.3817 0.0
C1303 C 0.87519 0.54186 0.35736 0.0
C1304 C 0.89004 0.55313 0.36839 0.0
C1305 C 0.8948 0.56718 0.33434 0.0
C1306 C 0.89866 0.5812 0.36941 0.0
C1307 C 0.90825 0.57021 0.29751 0.0
C1308 C 0.88027 0.5621 0.30267 0.0
C1309 C 0.86897 0.54761 0.31749 0.0
C1310 C 0.8545 0.54055 0.29404 0.0
C1311 C 0.85179 0.54819 0.2523 0.0
C1312 C 0.86362 0.56249 0.23399 0.0
C1313 C 0.87786 0.5697 0.26036 0.0
H1314 H 0.56138 0.65978 0.54176 0.0
H1315 H 0.51199 0.63622 0.5548 0.0
H1316 H 0.51418 0.65278 0.63155 0.0
H1317 H 0.56857 0.66269 0.68165 0.0
H1318 H 0.58566 0.68115 0.6774 0.0
H1319 H 0.57991 0.66824 0.62124 0.0
H1320 H 0.58031 0.68931 0.56061 0.0
H1321 H 0.58573 0.70216 0.61708 0.0
H1322 H 0.5689 0.69777 0.57868 0.0
H1323 H 0.5218 0.67189 0.70635 0.0
H1324 H 0.53425 0.68883 0.78442 0.0
H1325 H 0.57857 0.69857 0.72598 0.0
C1326 C 0.55104 0.65824 0.56025 0.0
C1327 C 0.53652 0.64694 0.54193 0.0
C1328 C 0.52323 0.64489 0.56832 0.0
C1329 C 0.52436 0.65433 0.61147 0.0
C1330 C 0.53887 0.66559 0.62794 0.0
C1331 C 0.55198 0.66736 0.60389 0.0
C1332 C 0.56621 0.67936 0.63226 0.0
C1333 C 0.57563 0.67244 0.65446 0.0
C1334 C 0.57586 0.69295 0.59493 0.0
C1335 C 0.55906 0.68385 0.67682 0.0
C1336 C 0.54328 0.6761 0.67264 0.0
C1337 C 0.53413 0.67808 0.7099 0.0
C1338 C 0.54126 0.68777 0.75374 0.0
C1339 C 0.55728 0.69506 0.7601 0.0
C1340 C 0.56631 0.69332 0.72091 0.0
H1341 H 0.30639 0.85524 0.74491 0.0
H1342 H 0.29117 0.88841 0.74256 0.0
H1343 H 0.30946 0.90247 0.66981 0.0
H1344 H 0.34426 0.87933 0.72692 0.0
H1345 H 0.34813 0.86783 0.68124 0.0
H1346 H 0.3324 0.8588 0.72753 0.0
H1347 H 0.31323 0.84523 0.64987 0.0
H1348 H 0.32902 0.85354 0.60351 0.0
H1349 H 0.31292 0.85635 0.59385 0.0
H1350 H 0.33198 0.91503 0.61041 0.0
H1351 H 0.35299 0.92204 0.54631 0.0
H1352 H 0.35277 0.87991 0.5814 0.0
C1353 C 0.30638 0.86498 0.72683 0.0
C1354 C 0.29732 0.8707 0.74812 0.0
C1355 C 0.29786 0.88377 0.72552 0.0
C1356 C 0.30834 0.89191 0.68486 0.0
C1357 C 0.31784 0.88653 0.6669 0.0
C1358 C 0.31653 0.87303 0.68529 0.0
C1359 C 0.32828 0.86994 0.65926 0.0
C1360 C 0.33889 0.86892 0.70127 0.0
C1361 C 0.32039 0.85541 0.62455 0.0
C1362 C 0.33676 0.88413 0.625 0.0
C1363 C 0.33061 0.89358 0.63067 0.0
C1364 C 0.33664 0.90754 0.60442 0.0
C1365 C 0.34858 0.91145 0.56833 0.0
C1366 C 0.35421 0.90138 0.5586 0.0
C1367 C 0.34868 0.88783 0.58868 0.0
H1368 H 0.1364 0.45186 0.74745 0.0
H1369 H 0.11361 0.40271 0.72889 0.0
H1370 H 0.09826 0.40419 0.65379 0.0
H1371 H 0.10434 0.45511 0.73046 0.0
H1372 H 0.11355 0.47295 0.69431 0.0
H1373 H 0.12438 0.46845 0.74072 0.0
H1374 H 0.14383 0.47185 0.66648 0.0
H1375 H 0.13352 0.47714 0.6205 0.0
H1376 H 0.13694 0.46174 0.60382 0.0
H1377 H 0.08388 0.41109 0.58754 0.0
H1378 H 0.07419 0.42311 0.52465 0.0
H1379 H 0.10612 0.46776 0.58954 0.0
C1380 C 0.12867 0.44154 0.72571 0.0
C1381 C 0.12643 0.42725 0.74195 0.0
C1382 C 0.11577 0.41378 0.71504 0.0
C1383 C 0.10689 0.41453 0.67317 0.0
C1384 C 0.10887 0.42881 0.65963 0.0
C1385 C 0.11973 0.4421 0.68437 0.0
C1386 C 0.11913 0.45591 0.66454 0.0
C1387 C 0.11511 0.46355 0.71024 0.0
C1388 C 0.13425 0.46733 0.63718 0.0
C1389 C 0.10623 0.44836 0.62458 0.0
C1390 C 0.10039 0.43272 0.62262 0.0
C1391 C 0.08851 0.42334 0.5882 0.0
C1392 C 0.08309 0.43026 0.55264 0.0
C1393 C 0.08959 0.44635 0.55194 0.0
C1394 C 0.10086 0.45542 0.58977 0.0
H1395 H 0.10367 0.66962 0.78798 0.0
H1396 H 0.14887 0.70241 0.72911 0.0
H1397 H 0.14522 0.68533 0.65267 0.0
H1398 H 0.10388 0.63527 0.74993 0.0
H1399 H 0.0841 0.62525 0.72962 0.0
H1400 H 0.09044 0.6396 0.78149 0.0
H1401 H 0.07991 0.65439 0.7281 0.0
H1402 H 0.07318 0.63986 0.67699 0.0
H1403 H 0.08572 0.6596 0.65934 0.0
H1404 H 0.13681 0.66506 0.58349 0.0
H1405 H 0.12246 0.64499 0.51616 0.0
H1406 H 0.08225 0.62575 0.61741 0.0
C1407 C 0.11281 0.67327 0.75907 0.0
C1408 C 0.1266 0.68732 0.76467 0.0
C1409 C 0.13821 0.69169 0.72558 0.0
C1410 C 0.1363 0.68201 0.68238 0.0
C1411 C 0.1227 0.66807 0.67884 0.0
C1412 C 0.11102 0.66384 0.71542 0.0
C1413 C 0.09709 0.64877 0.70017 0.0
C1414 C 0.09368 0.6365 0.74285 0.0
C1415 C 0.08316 0.65079 0.69056 0.0
C1416 C 0.10267 0.64531 0.64855 0.0
C1417 C 0.11763 0.65644 0.63789 0.0
C1418 C 0.12516 0.65622 0.59155 0.0
C1419 C 0.11698 0.64475 0.55384 0.0
C1420 C 0.10145 0.63377 0.56257 0.0
C1421 C 0.09427 0.63376 0.61097 0.0
H1422 H 0.30867 0.44903 0.74835 0.0
H1423 H 0.30048 0.40282 0.76313 0.0
H1424 H 0.31757 0.40717 0.68541 0.0
H1425 H 0.31203 0.45263 0.6032 0.0
H1426 H 0.3274 0.47218 0.60621 0.0
H1427 H 0.31334 0.46464 0.65888 0.0
H1428 H 0.33505 0.4726 0.72883 0.0
H1429 H 0.34915 0.47986 0.67625 0.0
H1430 H 0.34824 0.46561 0.72194 0.0
H1431 H 0.33552 0.41681 0.60657 0.0
H1432 H 0.35355 0.43117 0.53318 0.0
H1433 H 0.35182 0.4718 0.577 0.0
C1434 C 0.3102 0.43975 0.73404 0.0
C1435 C 0.30309 0.42549 0.75987 0.0
C1436 C 0.3057 0.4137 0.74237 0.0
C1437 C 0.31539 0.4161 0.69873 0.0
C1438 C 0.32255 0.43047 0.6745 0.0
C1439 C 0.32013 0.44211 0.6917 0.0
C1440 C 0.32999 0.45678 0.6615 0.0
C1441 C 0.3201 0.46185 0.6306 0.0
C1442 C 0.34127 0.46945 0.6994 0.0
C1443 C 0.33818 0.45154 0.62396 0.0
C1444 C 0.33367 0.43631 0.63181 0.0
C1445 C 0.3392 0.42876 0.60021 0.0
C1446 C 0.34937 0.43695 0.55873 0.0
C1447 C 0.35399 0.4525 0.55019 0.0
C1448 C 0.34859 0.45996 0.58371 0.0
H1449 H 0.5657 0.86891 0.74484 0.0
H1450 H 0.56246 0.89864 0.86374 0.0
H1451 H 0.55485 0.91054 0.79343 0.0
H1452 H 0.58057 0.89651 0.63636 0.0
H1453 H 0.56949 0.88269 0.58535 0.0
H1454 H 0.57524 0.87673 0.64479 0.0
H1455 H 0.54697 0.85661 0.66419 0.0
H1456 H 0.54114 0.86247 0.60478 0.0
H1457 H 0.53297 0.86263 0.66889 0.0
H1458 H 0.5459 0.91809 0.71211 0.0
H1459 H 0.53699 0.92132 0.62315 0.0
H1460 H 0.54701 0.8877 0.55585 0.0
C1461 C 0.56347 0.87798 0.75597 0.0
C1462 C 0.5648 0.88291 0.80977 0.0
C1463 C 0.56169 0.89475 0.82277 0.0
C1464 C 0.55732 0.90159 0.78311 0.0
C1465 C 0.5561 0.89649 0.73055 0.0
C1466 C 0.55911 0.88499 0.71676 0.0
C1467 C 0.5565 0.88138 0.65738 0.0
C1468 C 0.57134 0.88452 0.62932 0.0
C1469 C 0.54363 0.86479 0.64829 0.0
C1470 C 0.55162 0.89268 0.64012 0.0
C1471 C 0.55134 0.90119 0.68309 0.0
C1472 C 0.54625 0.91165 0.67794 0.0
C1473 C 0.54118 0.91339 0.62748 0.0
C1474 C 0.54152 0.90489 0.58295 0.0
C1475 C 0.54696 0.89455 0.58923 0.0
H1476 H 0.36239 0.1036 0.1367 0.0
H1477 H 0.36543 0.07083 0.03257 0.0
H1478 H 0.33732 0.05455 0.03405 0.0
H1479 H 0.33528 0.07668 0.22062 0.0
H1480 H 0.32493 0.0866 0.23343 0.0
H1481 H 0.34485 0.09723 0.2159 0.0
H1482 H 0.33868 0.1097 0.13623 0.0
H1483 H 0.3187 0.09919 0.15378 0.0
H1484 H 0.3247 0.09772 0.087 0.0
H1485 H 0.3098 0.04036 0.05627 0.0
H1486 H 0.28436 0.02883 0.09823 0.0
H1487 H 0.29883 0.07032 0.19061 0.0
C1488 C 0.35703 0.09325 0.11277 0.0
C1489 C 0.36594 0.08849 0.08388 0.0
C1490 C 0.35871 0.07464 0.05462 0.0
C1491 C 0.34278 0.06539 0.05505 0.0
C1492 C 0.33429 0.07012 0.08532 0.0
C1493 C 0.34113 0.08373 0.11362 0.0
C1494 C 0.32958 0.08518 0.14829 0.0
C1495 C 0.33392 0.08649 0.20808 0.0
C1496 C 0.32781 0.09876 0.13022 0.0
C1497 C 0.3153 0.07008 0.13619 0.0
C1498 C 0.31826 0.06169 0.09917 0.0
C1499 C 0.30725 0.0469 0.08463 0.0
C1500 C 0.29287 0.04042 0.10897 0.0
C1501 C 0.2896 0.04869 0.14757 0.0
C1502 C 0.30091 0.06382 0.16058 0.0
H1503 H 0.91307 0.2849 0.18415 0.0
H1504 H 0.87137 0.24901 0.11167 0.0
H1505 H 0.87915 0.23009 0.13503 0.0
H1506 H 0.93725 0.27236 0.13712 0.0
H1507 H 0.94888 0.27746 0.19679 0.0
H1508 H 0.93922 0.28774 0.1794 0.0
H1509 H 0.92602 0.28146 0.27255 0.0
H1510 H 0.93567 0.27116 0.29031 0.0
H1511 H 0.91513 0.26183 0.29408 0.0
H1512 H 0.89269 0.2155 0.16041 0.0
H1513 H 0.91089 0.20678 0.18426 0.0
H1514 H 0.94334 0.25258 0.23935 0.0
C1515 C 0.90543 0.27304 0.17372 0.0
C1516 C 0.89159 0.26845 0.14612 0.0
C1517 C 0.88199 0.2528 0.13311 0.0
C1518 C 0.88631 0.24196 0.14626 0.0
C1519 C 0.90016 0.24697 0.1728 0.0
C1520 C 0.90951 0.26214 0.1866 0.0
C1521 C 0.9242 0.26483 0.21223 0.0
C1522 C 0.93821 0.27626 0.1794 0.0
C1523 C 0.92531 0.27013 0.27077 0.0
C1524 C 0.92189 0.24889 0.20923 0.0
C1525 C 0.9079 0.23866 0.18707 0.0
C1526 C 0.90361 0.22338 0.17838 0.0
C1527 C 0.914 0.21853 0.1921 0.0
C1528 C 0.92853 0.229 0.21364 0.0
C1529 C 0.93233 0.24428 0.22297 0.0
H1530 H 0.71557 0.62766 0.18651 0.0
H1531 H 0.75081 0.62182 0.10927 0.0
H1532 H 0.76994 0.64856 0.1321 0.0
H1533 H 0.72717 0.66399 0.14099 0.0
H1534 H 0.72282 0.67069 0.20191 0.0
H1535 H 0.71252 0.65067 0.18567 0.0
H1536 H 0.72031 0.64437 0.27712 0.0
H1537 H 0.73068 0.66444 0.29368 0.0
H1538 H 0.74024 0.65343 0.29508 0.0
H1539 H 0.78477 0.67681 0.15716 0.0
H1540 H 0.79346 0.70393 0.17814 0.0
H1541 H 0.74815 0.69088 0.23679 0.0
C1542 C 0.72734 0.63189 0.17495 0.0
C1543 C 0.73167 0.62261 0.14602 0.0
C1544 C 0.74722 0.62866 0.13174 0.0
C1545 C 0.75818 0.64383 0.14463 0.0
C1546 C 0.75343 0.65273 0.17245 0.0
C1547 C 0.73838 0.64691 0.18769 0.0
C1548 C 0.73592 0.65899 0.21421 0.0
C1549 C 0.72391 0.66121 0.18385 0.0
C1550 C 0.73153 0.65507 0.27354 0.0
C1551 C 0.75174 0.67276 0.20888 0.0
C1552 C 0.76183 0.66889 0.18605 0.0
C1553 C 0.777 0.67991 0.17564 0.0
C1554 C 0.78185 0.69526 0.18786 0.0
C1555 C 0.77147 0.69946 0.20916 0.0
C1556 C 0.75634 0.68798 0.22063 0.0
H1557 H 0.04988 0.30532 0.7569 0.0
H1558 H 0.07943 0.29035 0.82723 0.0
H1559 H 0.09698 0.31669 0.85876 0.0
H1560 H 0.08164 0.34294 0.71278 0.0
H1561 H 0.07073 0.3523 0.72514 0.0
H1562 H 0.06114 0.33245 0.70578 0.0
H1563 H 0.04414 0.32558 0.7907 0.0
H1564 H 0.05383 0.34535 0.8108 0.0
H1565 H 0.05303 0.33102 0.85588 0.0
H1566 H 0.11029 0.34442 0.88819 0.0
H1567 H 0.11953 0.3718 0.90577 0.0
H1568 H 0.08139 0.3684 0.81406 0.0
C1569 C 0.06017 0.30766 0.77821 0.0
C1570 C 0.06335 0.29587 0.78959 0.0
C1571 C 0.07691 0.29931 0.81753 0.0
C1572 C 0.08688 0.3142 0.8359 0.0
C1573 C 0.08325 0.32553 0.82502 0.0
C1574 C 0.07039 0.3225 0.79584 0.0
C1575 C 0.06914 0.33671 0.78913 0.0
C1576 C 0.07076 0.34137 0.72969 0.0
C1577 C 0.05415 0.33452 0.81309 0.0
C1578 C 0.08288 0.34803 0.82129 0.0
C1579 C 0.09098 0.34145 0.84129 0.0
C1580 C 0.1041 0.34974 0.87234 0.0
C1581 C 0.10923 0.36526 0.88229 0.0
C1582 C 0.10117 0.37226 0.86157 0.0
C1583 C 0.08776 0.36341 0.83104 0.0
H1584 H 0.69024 0.74681 0.7324 0.0
H1585 H 0.70777 0.78187 0.85541 0.0
H1586 H 0.68129 0.77349 0.88485 0.0
H1587 H 0.65645 0.75092 0.70156 0.0
H1588 H 0.64459 0.73083 0.68732 0.0
H1589 H 0.66485 0.74027 0.67445 0.0
H1590 H 0.66703 0.72047 0.73438 0.0
H1591 H 0.64683 0.711 0.74744 0.0
H1592 H 0.66018 0.71768 0.80259 0.0
H1593 H 0.65287 0.75997 0.90419 0.0
H1594 H 0.62495 0.74267 0.91152 0.0
H1595 H 0.62621 0.71699 0.77382 0.0
C1596 C 0.68845 0.75277 0.76524 0.0
C1597 C 0.70092 0.7649 0.7919 0.0
C1598 C 0.69826 0.77259 0.83438 0.0
C1599 C 0.6833 0.76791 0.8513 0.0
C1600 C 0.67119 0.75581 0.82431 0.0
C1601 C 0.67361 0.7485 0.78168 0.0
C1602 C 0.65869 0.73581 0.75948 0.0
C1603 C 0.65599 0.73969 0.70231 0.0
C1604 C 0.65816 0.72033 0.76113 0.0
C1605 C 0.64754 0.73636 0.79862 0.0
C1606 C 0.65491 0.7482 0.83496 0.0
C1607 C 0.64697 0.75077 0.87556 0.0
C1608 C 0.63111 0.7409 0.87936 0.0
C1609 C 0.62342 0.72847 0.84329 0.0
C1610 C 0.63178 0.72635 0.8021 0.0
H1611 H 0.22642 0.92773 0.81988 0.0
H1612 H 0.26422 0.97197 0.77309 0.0
H1613 H 0.28201 0.96214 0.78307 0.0
H1614 H 0.24745 0.92049 0.92152 0.0
H1615 H 0.23834 0.90024 0.90846 0.0
H1616 H 0.22823 0.91039 0.89548 0.0
H1617 H 0.22367 0.90082 0.79711 0.0
H1618 H 0.23371 0.8906 0.8098 0.0
H1619 H 0.23976 0.90429 0.7559 0.0
H1620 H 0.29567 0.948 0.79764 0.0
H1621 H 0.305 0.93038 0.81842 0.0
H1622 H 0.25883 0.89505 0.8598 0.0
C1623 C 0.23843 0.93527 0.81135 0.0
C1624 C 0.24397 0.95061 0.79554 0.0
C1625 C 0.25977 0.96022 0.78548 0.0
C1626 C 0.26995 0.95473 0.79088 0.0
C1627 C 0.26419 0.93965 0.80703 0.0
C1628 C 0.24885 0.93003 0.81748 0.0
C1629 C 0.2459 0.91448 0.83624 0.0
C1630 C 0.23961 0.91121 0.89385 0.0
C1631 C 0.23512 0.9018 0.79743 0.0
C1632 C 0.26197 0.91686 0.83406 0.0
C1633 C 0.27227 0.93148 0.81694 0.0
C1634 C 0.28775 0.93652 0.8112 0.0
C1635 C 0.29292 0.92637 0.82315 0.0
C1636 C 0.28268 0.91128 0.84093 0.0
C1637 C 0.26697 0.90651 0.84662 0.0
H1638 H 0.70042 0.93128 0.85743 0.0
H1639 H 0.69939 0.95194 0.70634 0.0
H1640 H 0.67118 0.9369 0.70606 0.0
H1641 H 0.66606 0.89301 0.83495 0.0
H1642 H 0.65963 0.89152 0.90331 0.0
H1643 H 0.67977 0.90211 0.88825 0.0
H1644 H 0.68198 0.92601 0.93533 0.0
H1645 H 0.6619 0.91549 0.95074 0.0
H1646 H 0.66971 0.93323 0.91429 0.0
H1647 H 0.64368 0.92248 0.72671 0.0
H1648 H 0.61811 0.90985 0.76869 0.0
H1649 H 0.63625 0.89808 0.90668 0.0
C1650 C 0.69417 0.93231 0.82392 0.0
C1651 C 0.70189 0.94259 0.78166 0.0
C1652 C 0.69352 0.94405 0.73894 0.0
C1653 C 0.67756 0.9355 0.73829 0.0
C1654 C 0.67016 0.92562 0.78091 0.0
C1655 C 0.67813 0.92399 0.8231 0.0
C1656 C 0.6673 0.91386 0.86661 0.0
C1657 C 0.66825 0.89925 0.87367 0.0
C1658 C 0.67041 0.92268 0.91987 0.0
C1659 C 0.65208 0.91035 0.84265 0.0
C1660 C 0.65403 0.91715 0.79295 0.0
C1661 C 0.64193 0.91685 0.76511 0.0
C1662 C 0.62749 0.90972 0.78924 0.0
C1663 C 0.62528 0.90289 0.84039 0.0
C1664 C 0.63763 0.90288 0.86685 0.0
H1665 H 0.0454 0.74211 0.76893 0.0
H1666 H 0.08089 0.78865 0.80394 0.0
H1667 H 0.09903 0.77957 0.82234 0.0
H1668 H 0.05428 0.72364 0.86813 0.0
H1669 H 0.05077 0.70737 0.82778 0.0
H1670 H 0.04093 0.71765 0.81302 0.0
H1671 H 0.05113 0.72209 0.71542 0.0
H1672 H 0.06094 0.71172 0.72977 0.0
H1673 H 0.07141 0.73091 0.70379 0.0
H1674 H 0.1126 0.76518 0.84431 0.0
H1675 H 0.12103 0.74669 0.86475 0.0
H1676 H 0.07686 0.70951 0.81331 0.0
C1677 C 0.05704 0.7504 0.77994 0.0
C1678 C 0.06173 0.76607 0.78519 0.0
C1679 C 0.07707 0.7766 0.79937 0.0
C1680 C 0.08746 0.77155 0.80997 0.0
C1681 C 0.08239 0.75599 0.80523 0.0
C1682 C 0.06761 0.7456 0.78981 0.0
C1683 C 0.065 0.72948 0.78863 0.0
C1684 C 0.05198 0.71892 0.82668 0.0
C1685 C 0.06194 0.72318 0.73098 0.0
C1686 C 0.08036 0.73232 0.80859 0.0
C1687 C 0.0903 0.74772 0.81716 0.0
C1688 C 0.10498 0.75311 0.83716 0.0
C1689 C 0.10964 0.74248 0.84878 0.0
C1690 C 0.09961 0.7266 0.84072 0.0
C1691 C 0.08481 0.72154 0.81995 0.0
H1692 H 0.2494 0.30334 0.75931 0.0
H1693 H 0.20533 0.28625 0.83586 0.0
H1694 H 0.21283 0.31259 0.86507 0.0
H1695 H 0.27184 0.32974 0.85367 0.0
H1696 H 0.28446 0.34418 0.80696 0.0
H1697 H 0.27491 0.32437 0.78777 0.0
H1698 H 0.26324 0.33029 0.70481 0.0
H1699 H 0.2729 0.3502 0.72348 0.0
H1700 H 0.25248 0.33995 0.71387 0.0
H1701 H 0.22657 0.34087 0.8928 0.0
H1702 H 0.24477 0.36823 0.91288 0.0
H1703 H 0.27916 0.36586 0.81579 0.0
C1704 C 0.24126 0.30521 0.78151 0.0
C1705 C 0.22685 0.29289 0.79556 0.0
C1706 C 0.2164 0.29566 0.82442 0.0
C1707 C 0.22057 0.31054 0.8412 0.0
C1708 C 0.23507 0.32247 0.82757 0.0
C1709 C 0.24511 0.31994 0.79746 0.0
C1710 C 0.2601 0.33449 0.78888 0.0
C1711 C 0.27361 0.3331 0.81066 0.0
C1712 C 0.26231 0.339 0.72923 0.0
C1713 C 0.25737 0.34543 0.8218 0.0
C1714 C 0.2428 0.33847 0.84303 0.0
C1715 C 0.23796 0.34646 0.87588 0.0
C1716 C 0.24835 0.36194 0.8872 0.0
C1717 C 0.2634 0.36908 0.86643 0.0
C1718 C 0.2678 0.36068 0.83298 0.0
H1719 H 0.93617 0.69415 0.24079 0.0
H1720 H 0.91841 0.71008 0.11376 0.0
H1721 H 0.90086 0.68323 0.08581 0.0
H1722 H 0.93703 0.66501 0.17392 0.0
H1723 H 0.9306 0.65164 0.22894 0.0
H1724 H 0.94032 0.67184 0.24224 0.0
H1725 H 0.91746 0.66848 0.29978 0.0
H1726 H 0.9077 0.64818 0.2871 0.0
H1727 H 0.89853 0.65908 0.27126 0.0
H1728 H 0.88706 0.65456 0.06727 0.0
H1729 H 0.87787 0.62679 0.0611 0.0
H1730 H 0.9047 0.63012 0.20159 0.0
C1731 C 0.92831 0.69189 0.20791 0.0
C1732 C 0.92843 0.704 0.17955 0.0
C1733 C 0.9182 0.70082 0.13636 0.0
C1734 C 0.90826 0.68565 0.12022 0.0
C1735 C 0.90854 0.67389 0.1486 0.0
C1736 C 0.91813 0.67687 0.19216 0.0
C1737 C 0.91663 0.66232 0.21502 0.0
C1738 C 0.93206 0.66274 0.21496 0.0
C1739 C 0.90967 0.65934 0.27165 0.0
C1740 C 0.90552 0.65078 0.17535 0.0
C1741 C 0.90068 0.65756 0.13804 0.0
C1742 C 0.89063 0.64912 0.09674 0.0
C1743 C 0.88547 0.63337 0.09353 0.0
C1744 C 0.89061 0.62635 0.13078 0.0
C1745 C 0.90064 0.6352 0.17237 0.0
H1746 H 0.37229 0.29023 0.1844 0.0
H1747 H 0.37622 0.26221 0.06022 0.0
H1748 H 0.34847 0.2444 0.06455 0.0
H1749 H 0.34307 0.25767 0.26066 0.0
H1750 H 0.33321 0.2676 0.2808 0.0
H1751 H 0.35352 0.27815 0.26882 0.0
H1752 H 0.34978 0.29517 0.19981 0.0
H1753 H 0.32948 0.28468 0.21153 0.0
H1754 H 0.33679 0.28633 0.14438 0.0
H1755 H 0.32052 0.22947 0.08241 0.0
H1756 H 0.29363 0.21882 0.11106 0.0
H1757 H 0.30744 0.25666 0.22166 0.0
C1758 C 0.36726 0.28039 0.158 0.0
C1759 C 0.37637 0.27762 0.12186 0.0
C1760 C 0.36945 0.2645 0.08843 0.0
C1761 C 0.3537 0.25431 0.09054 0.0
C1762 C 0.34504 0.2573 0.12673 0.0
C1763 C 0.35153 0.26995 0.16005 0.0
C1764 C 0.33957 0.27029 0.19579 0.0
C1765 C 0.34252 0.26831 0.25502 0.0
C1766 C 0.33886 0.28499 0.18732 0.0
C1767 C 0.3253 0.25632 0.17529 0.0
C1768 C 0.32878 0.24879 0.13638 0.0
C1769 C 0.31761 0.23527 0.11272 0.0
C1770 C 0.30243 0.22931 0.12921 0.0
C1771 C 0.29859 0.23705 0.168 0.0
C1772 C 0.31014 0.25071 0.19129 0.0
H1773 H 0.71626 0.08039 0.15621 0.0
H1774 H 0.75252 0.12426 0.09889 0.0
H1775 H 0.7712 0.11551 0.11231 0.0
H1776 H 0.73862 0.07534 0.25851 0.0
H1777 H 0.72943 0.05497 0.24829 0.0
H1778 H 0.71913 0.06491 0.23519 0.0
H1779 H 0.7135 0.05412 0.13818 0.0
H1780 H 0.72376 0.04416 0.15101 0.0
H1781 H 0.72915 0.0572 0.09525 0.0
H1782 H 0.786 0.10175 0.13387 0.0
H1783 H 0.79508 0.08369 0.15661 0.0
H1784 H 0.74868 0.04901 0.19598 0.0
C1785 C 0.72811 0.08821 0.14628 0.0
C1786 C 0.73289 0.10302 0.12639 0.0
C1787 C 0.74856 0.11286 0.11425 0.0
C1788 C 0.75927 0.10801 0.12182 0.0
C1789 C 0.75412 0.09332 0.14168 0.0
C1790 C 0.73888 0.08359 0.1536 0.0
C1791 C 0.73614 0.06834 0.17398 0.0
C1792 C 0.7305 0.06574 0.23245 0.0
C1793 C 0.72498 0.05519 0.13739 0.0
C1794 C 0.75214 0.07082 0.17032 0.0
C1795 C 0.76245 0.08537 0.15258 0.0
C1796 C 0.778 0.09032 0.14758 0.0
C1797 C 0.78307 0.08004 0.16069 0.0
C1798 C 0.77253 0.06498 0.17749 0.0
C1799 C 0.75693 0.06041 0.18247 0.0
H1800 H 0.02926 0.41908 0.5171 0.0
H1801 H 0.03008 0.44703 0.38404 0.0
H1802 H 0.00238 0.43749 0.39677 0.0
H1803 H 0.99509 0.38708 0.49375 0.0
H1804 H 0.98887 0.38305 0.56262 0.0
H1805 H 0.00893 0.39354 0.54741 0.0
H1806 H 0.01233 0.41581 0.60852 0.0
H1807 H 0.99223 0.4053 0.62444 0.0
H1808 H 0.00061 0.42436 0.59747 0.0
H1809 H 0.97415 0.42281 0.41895 0.0
H1810 H 0.94782 0.40456 0.44968 0.0
H1811 H 0.96589 0.38637 0.56781 0.0
C1812 C 0.02361 0.42333 0.49121 0.0
C1813 C 0.0316 0.43365 0.44941 0.0
C1814 C 0.02403 0.43915 0.41642 0.0
C1815 C 0.00836 0.43381 0.42344 0.0
C1816 C 0.00068 0.42335 0.46453 0.0
C1817 C 0.00814 0.4184 0.49849 0.0
C1818 C 0.99728 0.40679 0.53845 0.0
C1819 C 0.99756 0.39173 0.53529 0.0
C1820 C 0.00082 0.41347 0.5956 0.0
C1821 C 0.98231 0.40492 0.51867 0.0
C1822 C 0.98453 0.41493 0.47717 0.0
C1823 C 0.97231 0.41508 0.45182 0.0
C1824 C 0.95746 0.4047 0.46932 0.0
C1825 C 0.95505 0.39417 0.5107 0.0
C1826 C 0.96758 0.39434 0.53588 0.0
H1827 H 0.59737 0.56612 0.45118 0.0
H1828 H 0.59997 0.56665 0.62463 0.0
H1829 H 0.58619 0.58116 0.62895 0.0
H1830 H 0.6038 0.60224 0.43172 0.0
H1831 H 0.5902 0.59795 0.37835 0.0
H1832 H 0.59839 0.58594 0.38878 0.0
H1833 H 0.5714 0.56217 0.39804 0.0
H1834 H 0.56305 0.57406 0.3866 0.0
H1835 H 0.55814 0.56237 0.44599 0.0
H1836 H 0.57652 0.59952 0.61297 0.0
H1837 H 0.56779 0.61692 0.57851 0.0
H1838 H 0.56909 0.60233 0.41612 0.0
C1839 C 0.59453 0.56886 0.48998 0.0
C1840 C 0.59951 0.56522 0.53766 0.0
C1841 C 0.59595 0.56917 0.58786 0.0
C1842 C 0.58822 0.57746 0.5906 0.0
C1843 C 0.58384 0.58133 0.54274 0.0
C1844 C 0.58644 0.57675 0.49341 0.0
C1845 C 0.58097 0.58277 0.44795 0.0
C1846 C 0.59413 0.59282 0.40947 0.0
C1847 C 0.56759 0.56955 0.41788 0.0
C1848 C 0.57569 0.59215 0.47918 0.0
C1849 C 0.57745 0.5912 0.53383 0.0
C1850 C 0.5747 0.60003 0.57041 0.0
C1851 C 0.56988 0.60994 0.55061 0.0
C1852 C 0.56768 0.61074 0.49498 0.0
C1853 C 0.57049 0.60166 0.45896 0.0
H1854 H 0.44348 0.03407 0.47907 0.0
H1855 H 0.42224 0.03387 0.63026 0.0
H1856 H 0.40765 0.00565 0.6289 0.0
H1857 H 0.41071 0.00569 0.41991 0.0
H1858 H 0.41938 0.99662 0.38315 0.0
H1859 H 0.43052 0.01656 0.40031 0.0
H1860 H 0.45043 0.01172 0.44827 0.0
H1861 H 0.43942 0.99174 0.43079 0.0
H1862 H 0.44425 0.99735 0.49993 0.0
H1863 H 0.39268 0.97853 0.60543 0.0
H1864 H 0.37829 0.95328 0.56216 0.0
H1865 H 0.40874 0.96999 0.42507 0.0
C1866 C 0.4362 0.02797 0.51275 0.0
C1867 C 0.43416 0.03596 0.5555 0.0
C1868 C 0.42407 0.02781 0.59784 0.0
C1869 C 0.41578 0.01183 0.59735 0.0
C1870 C 0.41765 0.0042 0.55397 0.0
C1871 C 0.42765 0.01192 0.51248 0.0
C1872 C 0.4261 0.00096 0.46783 0.0
C1873 C 0.4214 0.00522 0.41468 0.0
C1874 C 0.44093 0.00041 0.46134 0.0
C1875 C 0.41331 0.986 0.49 0.0
C1876 C 0.40877 0.98821 0.54002 0.0
C1877 C 0.39631 0.97657 0.56684 0.0
C1878 C 0.38816 0.96232 0.54184 0.0
C1879 C 0.39252 0.95975 0.49067 0.0
C1880 C 0.40542 0.97165 0.46471 0.0
H1881 H 0.59193 0.02769 0.5725 0.0
H1882 H 0.61721 0.04433 0.42391 0.0
H1883 H 0.60336 0.01825 0.38587 0.0
H1884 H 0.59387 0.99377 0.57511 0.0
H1885 H 0.57519 0.98195 0.60386 0.0
H1886 H 0.58551 0.00218 0.61716 0.0
H1887 H 0.56269 0.00451 0.58124 0.0
H1888 H 0.55228 0.98425 0.56792 0.0
H1889 H 0.55539 0.99761 0.51483 0.0
H1890 H 0.58881 0.99043 0.3668 0.0
H1891 H 0.57457 0.96213 0.36856 0.0
H1892 H 0.5588 0.96295 0.5295 0.0
C1893 C 0.59421 0.0258 0.53158 0.0
C1894 C 0.60543 0.03792 0.50065 0.0
C1895 C 0.60856 0.03511 0.44787 0.0
C1896 C 0.60073 0.02038 0.42594 0.0
C1897 C 0.58992 0.00857 0.45761 0.0
C1898 C 0.58666 0.01105 0.50936 0.0
C1899 C 0.57561 0.99607 0.5364 0.0
C1900 C 0.58299 0.99334 0.58606 0.0
C1901 C 0.5606 0.99558 0.55094 0.0
C1902 C 0.57324 0.98484 0.49188 0.0
C1903 C 0.58155 0.99233 0.4467 0.0
C1904 C 0.58206 0.98443 0.40158 0.0
C1905 C 0.57399 0.96842 0.40286 0.0
C1906 C 0.5655 0.96057 0.44873 0.0
C1907 C 0.56497 0.96882 0.49356 0.0
H1908 H 0.96419 0.55838 0.52546 0.0
H1909 H 0.95496 0.59338 0.46567 0.0
H1910 H 0.98172 0.60887 0.43762 0.0
H1911 H 0.00078 0.58375 0.57909 0.0
H1912 H 0.00932 0.57245 0.56042 0.0
H1913 H 0.98907 0.56328 0.57251 0.0
H1914 H 0.98377 0.551 0.47799 0.0
H1915 H 0.00404 0.56013 0.46559 0.0
H1916 H 0.99189 0.56303 0.41991 0.0
H1917 H 0.00935 0.62159 0.42242 0.0
H1918 H 0.03697 0.63094 0.41947 0.0
H1919 H 0.02931 0.58799 0.48609 0.0
C1920 C 0.96777 0.56922 0.50591 0.0
C1921 C 0.95739 0.57463 0.498 0.0
C1922 C 0.96261 0.58895 0.47256 0.0
C1923 C 0.97781 0.59785 0.45618 0.0
C1924 C 0.98774 0.5923 0.46513 0.0
C1925 C 0.98301 0.57833 0.48914 0.0
C1926 C 0.99636 0.57551 0.49593 0.0
C1927 C 0.99904 0.57364 0.55553 0.0
C1928 C 0.99386 0.56159 0.46287 0.0
C1929 C 0.00934 0.59026 0.47306 0.0
C1930 C 0.00398 0.59969 0.45537 0.0
C1931 C 0.01369 0.61427 0.43551 0.0
C1932 C 0.02936 0.61949 0.43421 0.0
C1933 C 0.03524 0.61017 0.45231 0.0
C1934 C 0.02507 0.59524 0.4712 0.0
H1935 H 0.40363 0.43323 0.39744 0.0
H1936 H 0.39873 0.44935 0.55306 0.0
H1937 H 0.41574 0.44095 0.59319 0.0
H1938 H 0.40177 0.40035 0.43654 0.0
H1939 H 0.4162 0.40107 0.39215 0.0
H1940 H 0.40603 0.41076 0.37421 0.0
H1941 H 0.43165 0.43626 0.36441 0.0
H1942 H 0.44195 0.42658 0.3821 0.0
H1943 H 0.44499 0.44314 0.41954 0.0
H1944 H 0.43026 0.42775 0.61798 0.0
H1945 H 0.44092 0.41042 0.62558 0.0
H1946 H 0.43623 0.40281 0.45396 0.0
C1947 C 0.40659 0.43537 0.43956 0.0
C1948 C 0.40018 0.44205 0.47235 0.0
C1949 C 0.40387 0.44446 0.5275 0.0
C1950 C 0.4135 0.43976 0.55048 0.0
C1951 C 0.41952 0.43295 0.51734 0.0
C1952 C 0.41638 0.43095 0.46289 0.0
C1953 C 0.4233 0.42226 0.43701 0.0
C1954 C 0.41109 0.40775 0.40835 0.0
C1955 C 0.43624 0.43268 0.39847 0.0
C1956 C 0.42964 0.41852 0.48602 0.0
C1957 C 0.42784 0.42524 0.53172 0.0
C1958 C 0.43207 0.42273 0.58233 0.0
C1959 C 0.43811 0.41293 0.58633 0.0
C1960 C 0.43956 0.40564 0.54017 0.0
C1961 C 0.43546 0.40858 0.48948 0.0
H1962 H 0.23104 0.0857 0.3115 0.0
H1963 H 0.27563 0.09955 0.24321 0.0
H1964 H 0.28156 0.12645 0.24308 0.0
H1965 H 0.22347 0.11011 0.23503 0.0
H1966 H 0.21387 0.11417 0.28801 0.0
H1967 H 0.21383 0.09635 0.28768 0.0
H1968 H 0.22543 0.10203 0.38348 0.0
H1969 H 0.22554 0.11993 0.38396 0.0
H1970 H 0.24297 0.11964 0.39627 0.0
H1971 H 0.28189 0.15153 0.24492 0.0
H1972 H 0.27624 0.17262 0.24488 0.0
H1973 H 0.23128 0.14212 0.31112 0.0
C1974 C 0.24216 0.0944 0.29733 0.0
C1975 C 0.25292 0.09053 0.27778 0.0
C1976 C 0.26726 0.10225 0.25886 0.0
C1977 C 0.27074 0.11756 0.2587 0.0
C1978 C 0.2598 0.12094 0.27786 0.0
C1979 C 0.24581 0.10968 0.29685 0.0
C1980 C 0.23565 0.11614 0.31206 0.0
C1981 C 0.22084 0.10876 0.27868 0.0
C1982 C 0.2322 0.11433 0.37254 0.0
C1983 C 0.24595 0.13273 0.29722 0.0
C1984 C 0.25991 0.13533 0.27832 0.0
C1985 C 0.27106 0.14966 0.26012 0.0
C1986 C 0.26773 0.16158 0.26031 0.0
C1987 C 0.25331 0.15903 0.27804 0.0
C1988 C 0.24244 0.14447 0.29762 0.0
H1989 H 0.84423 0.09668 0.32165 0.0
H1990 H 0.8551 0.06536 0.23957 0.0
H1991 H 0.8798 0.0869 0.21154 0.0
H1992 H 0.86108 0.12727 0.22945 0.0
H1993 H 0.86919 0.14233 0.27888 0.0
H1994 H 0.85228 0.12447 0.29456 0.0
H1995 H 0.86572 0.12116 0.37774 0.0
H1996 H 0.88262 0.13912 0.36273 0.0
H1997 H 0.88387 0.12202 0.36972 0.0
H1998 H 0.90214 0.1114 0.18619 0.0
H1999 H 0.92306 0.13785 0.17469 0.0
H2000 H 0.89922 0.1539 0.27746 0.0
C2001 C 0.85195 0.09441 0.29853 0.0
C2002 C 0.84779 0.07936 0.28299 0.0
C2003 C 0.85813 0.07677 0.25261 0.0
C2004 C 0.87215 0.08894 0.23606 0.0
C2005 C 0.87584 0.10363 0.25117 0.0
C2006 C 0.86628 0.10647 0.28273 0.0
C2007 C 0.87343 0.12344 0.29435 0.0
C2008 C 0.86339 0.12974 0.27301 0.0
C2009 C 0.8766 0.12662 0.35472 0.0
C2010 C 0.88821 0.12963 0.26285 0.0
C2011 C 0.88926 0.11795 0.23818 0.0
C2012 C 0.9016 0.12067 0.20589 0.0
C2013 C 0.91341 0.13576 0.19951 0.0
C2014 C 0.91286 0.14795 0.22554 0.0
C2015 C 0.9 0.14482 0.25729 0.0
H2016 H 0.90008 0.74418 0.27983 0.0
H2017 H 0.93107 0.79108 0.32829 0.0
H2018 H 0.90912 0.79502 0.34227 0.0
H2019 H 0.87586 0.75172 0.20451 0.0
H2020 H 0.85846 0.7346 0.22282 0.0
H2021 H 0.87633 0.73475 0.2238 0.0
H2022 H 0.8719 0.72622 0.32337 0.0
H2023 H 0.85394 0.72599 0.32267 0.0
H2024 H 0.86826 0.73724 0.37202 0.0
H2025 H 0.88427 0.79476 0.34144 0.0
H2026 H 0.85824 0.79029 0.3259 0.0
H2027 H 0.84338 0.74356 0.27805 0.0
C2028 C 0.90223 0.75516 0.29472 0.0
C2029 C 0.91729 0.76729 0.30329 0.0
C2030 C 0.91963 0.78158 0.32175 0.0
C2031 C 0.90723 0.78393 0.32992 0.0
C2032 C 0.89256 0.77184 0.31986 0.0
C2033 C 0.88999 0.7577 0.303 0.0
C2034 C 0.87323 0.747 0.29099 0.0
C2035 C 0.87084 0.74172 0.23204 0.0
C2036 C 0.86643 0.7333 0.32958 0.0
C2037 C 0.86687 0.75748 0.30202 0.0
C2038 C 0.87818 0.7717 0.31929 0.0
C2039 C 0.87526 0.78359 0.32879 0.0
C2040 C 0.86044 0.78095 0.31977 0.0
C2041 C 0.84874 0.76655 0.30105 0.0
C2042 C 0.85201 0.75462 0.29304 0.0
H2043 H 0.08655 0.22583 0.7973 0.0
H2044 H 0.0919 0.25666 0.66714 0.0
H2045 H 0.1163 0.25815 0.64181 0.0
H2046 H 0.12617 0.24451 0.83391 0.0
H2047 H 0.12559 0.22687 0.85046 0.0
H2048 H 0.10866 0.22837 0.85755 0.0
H2049 H 0.09386 0.20474 0.79567 0.0
H2050 H 0.11078 0.20325 0.78805 0.0
H2051 H 0.10116 0.20483 0.72956 0.0
H2052 H 0.14063 0.25669 0.63294 0.0
H2053 H 0.16255 0.25223 0.64133 0.0
H2054 H 0.14008 0.22172 0.77533 0.0
C2055 C 0.09278 0.23286 0.7633 0.0
C2056 C 0.08731 0.24107 0.73404 0.0
C2057 C 0.0959 0.25024 0.69008 0.0
C2058 C 0.10974 0.25116 0.67538 0.0
C2059 C 0.11477 0.24283 0.7051 0.0
C2060 C 0.10653 0.2339 0.7482 0.0
C2061 C 0.11442 0.22624 0.77432 0.0
C2062 C 0.11898 0.23184 0.83249 0.0
C2063 C 0.10446 0.20873 0.7717 0.0
C2064 C 0.12827 0.23202 0.73864 0.0
C2065 C 0.12842 0.24172 0.69925 0.0
C2066 C 0.14056 0.24901 0.66332 0.0
C2067 C 0.15292 0.24641 0.6683 0.0
C2068 C 0.15286 0.23647 0.70845 0.0
C2069 C 0.14029 0.22911 0.74348 0.0
H2070 H 0.76885 0.85701 0.81713 0.0
H2071 H 0.73794 0.83261 0.68555 0.0
H2072 H 0.73418 0.85465 0.67003 0.0
H2073 H 0.74812 0.87468 0.86753 0.0
H2074 H 0.76509 0.89233 0.88498 0.0
H2075 H 0.76539 0.87466 0.88543 0.0
H2076 H 0.78836 0.88626 0.81972 0.0
H2077 H 0.78814 0.90397 0.81915 0.0
H2078 H 0.78679 0.89423 0.75697 0.0
H2079 H 0.73362 0.87932 0.66952 0.0
H2080 H 0.73666 0.90495 0.68341 0.0
H2081 H 0.76804 0.91298 0.81482 0.0
C2082 C 0.7613 0.85629 0.78498 0.0
C2083 C 0.75369 0.84309 0.75257 0.0
C2084 C 0.74388 0.8426 0.71098 0.0
C2085 C 0.74167 0.85506 0.70182 0.0
C2086 C 0.74933 0.86788 0.73463 0.0
C2087 C 0.75895 0.86858 0.77534 0.0
C2088 C 0.76579 0.88364 0.80505 0.0
C2089 C 0.76079 0.88117 0.86424 0.0
C2090 C 0.78331 0.89255 0.79988 0.0
C2091 C 0.75858 0.89135 0.77446 0.0
C2092 C 0.74907 0.88207 0.73414 0.0
C2093 C 0.74105 0.88671 0.70093 0.0
C2094 C 0.74282 0.90125 0.70916 0.0
C2095 C 0.7526 0.91096 0.75007 0.0
C2096 C 0.76053 0.90587 0.78301 0.0
H2097 H 0.15413 0.904 0.80124 0.0
H2098 H 0.16354 0.90942 0.6308 0.0
H2099 H 0.14013 0.88429 0.61406 0.0
H2100 H 0.13758 0.86153 0.80413 0.0
H2101 H 0.12405 0.85951 0.85513 0.0
H2102 H 0.14258 0.87656 0.85264 0.0
H2103 H 0.12951 0.89304 0.84819 0.0
H2104 H 0.111 0.87612 0.8498 0.0
H2105 H 0.11591 0.88956 0.79553 0.0
H2106 H 0.11373 0.85972 0.6172 0.0
H2107 H 0.08782 0.83831 0.63985 0.0
H2108 H 0.09676 0.85023 0.80828 0.0
C2109 C 0.15145 0.89967 0.76053 0.0
C2110 C 0.16051 0.9084 0.71727 0.0
C2111 C 0.15674 0.90263 0.66439 0.0
C2112 C 0.14349 0.88844 0.65466 0.0
C2113 C 0.13447 0.88023 0.69846 0.0
C2114 C 0.13851 0.88559 0.75043 0.0
C2115 C 0.12665 0.87533 0.79058 0.0
C2116 C 0.1331 0.86779 0.82781 0.0
C2117 C 0.1204 0.88404 0.82286 0.0
C2118 C 0.11479 0.86379 0.75309 0.0
C2119 C 0.11952 0.8665 0.70016 0.0
C2120 C 0.11004 0.85741 0.6586 0.0
C2121 C 0.09537 0.84533 0.67172 0.0
C2122 C 0.09036 0.84276 0.72572 0.0
C2123 C 0.10028 0.85203 0.7666 0.0
H2124 H 0.90225 0.42373 0.52583 0.0
H2125 H 0.92003 0.42438 0.68465 0.0
H2126 H 0.92694 0.45161 0.69507 0.0
H2127 H 0.93144 0.4631 0.49036 0.0
H2128 H 0.91788 0.46594 0.45242 0.0
H2129 H 0.9157 0.44715 0.45704 0.0
H2130 H 0.88817 0.43643 0.4937 0.0
H2131 H 0.89024 0.45511 0.48901 0.0
H2132 H 0.88513 0.4451 0.5522 0.0
H2133 H 0.92973 0.47848 0.68908 0.0
H2134 H 0.9276 0.50142 0.66814 0.0
H2135 H 0.90845 0.48208 0.51265 0.0
C2136 C 0.90765 0.42959 0.56282 0.0
C2137 C 0.91045 0.422 0.60474 0.0
C2138 C 0.91778 0.43009 0.65213 0.0
C2139 C 0.92178 0.44552 0.65823 0.0
C2140 C 0.91867 0.45265 0.61598 0.0
C2141 C 0.91192 0.4449 0.569 0.0
C2142 C 0.90924 0.4547 0.52993 0.0
C2143 C 0.91916 0.45791 0.47946 0.0
C2144 C 0.89219 0.4474 0.51542 0.0
C2145 C 0.91468 0.46894 0.56326 0.0
C2146 C 0.92041 0.46781 0.61237 0.0
C2147 C 0.92544 0.47952 0.65047 0.0
C2148 C 0.92423 0.4925 0.63829 0.0
C2149 C 0.91781 0.49341 0.58892 0.0
C2150 C 0.91336 0.48164 0.5508 0.0
H2151 H 0.5136 0.43609 0.59398 0.0
H2152 H 0.52948 0.40435 0.63116 0.0
H2153 H 0.55531 0.42598 0.64802 0.0
H2154 H 0.54708 0.46295 0.52378 0.0
H2155 H 0.54671 0.47955 0.5484 0.0
H2156 H 0.52918 0.46157 0.54225 0.0
H2157 H 0.52334 0.46303 0.64263 0.0
H2158 H 0.54095 0.48097 0.64923 0.0
H2159 H 0.53714 0.46522 0.69282 0.0
H2160 H 0.57956 0.4507 0.6574 0.0
H2161 H 0.60117 0.47712 0.65368 0.0
H2162 H 0.57001 0.49324 0.6106 0.0
C2163 C 0.52248 0.4337 0.60621 0.0
C2164 C 0.51945 0.41849 0.61165 0.0
C2165 C 0.53145 0.41587 0.62698 0.0
C2166 C 0.54619 0.42809 0.63684 0.0
C2167 C 0.54878 0.44291 0.6313 0.0
C2168 C 0.53732 0.44581 0.61611 0.0
C2169 C 0.54344 0.46286 0.61061 0.0
C2170 C 0.54149 0.46697 0.55283 0.0
C2171 C 0.53576 0.46834 0.65125 0.0
C2172 C 0.56015 0.46904 0.62433 0.0
C2173 C 0.56291 0.45731 0.6366 0.0
C2174 C 0.57753 0.46001 0.64831 0.0
C2175 C 0.58974 0.47508 0.64616 0.0
C2176 C 0.58729 0.48728 0.63222 0.0
C2177 C 0.57222 0.48421 0.6223 0.0
H2178 H 0.56582 0.0733 0.58812 0.0
H2179 H 0.59252 0.11035 0.69948 0.0
H2180 H 0.57063 0.11447 0.71143 0.0
H2181 H 0.54841 0.09093 0.52263 0.0
H2182 H 0.53009 0.07388 0.51382 0.0
H2183 H 0.54712 0.0725 0.51874 0.0
H2184 H 0.53539 0.05361 0.59826 0.0
H2185 H 0.51823 0.05482 0.59324 0.0
H2186 H 0.52841 0.059 0.65604 0.0
H2187 H 0.54702 0.1164 0.70417 0.0
H2188 H 0.52275 0.11529 0.68092 0.0
H2189 H 0.51125 0.07688 0.57482 0.0
C2190 C 0.56695 0.08203 0.61606 0.0
C2191 C 0.58088 0.09146 0.64304 0.0
C2192 C 0.58195 0.10293 0.67852 0.0
C2193 C 0.56958 0.10537 0.68562 0.0
C2194 C 0.55617 0.09616 0.65726 0.0
C2195 C 0.5547 0.08462 0.62359 0.0
C2196 C 0.53937 0.07699 0.5953 0.0
C2197 C 0.54138 0.07869 0.53401 0.0
C2198 C 0.52978 0.0601 0.61171 0.0
C2199 C 0.53261 0.08629 0.61737 0.0
C2200 C 0.54245 0.09723 0.65328 0.0
C2201 C 0.5391 0.10773 0.67675 0.0
C2202 C 0.52531 0.10703 0.66316 0.0
C2203 C 0.51506 0.09593 0.62637 0.0
C2204 C 0.51875 0.08537 0.60361 0.0
H2205 H 0.76313 0.58356 0.03847 0.0
H2206 H 0.73179 0.53454 0.04476 0.0
H2207 H 0.7533 0.52995 0.03402 0.0
H2208 H 0.78977 0.58208 0.9398 0.0
H2209 H 0.80652 0.59718 0.97199 0.0
H2210 H 0.78857 0.59692 0.97586 0.0
H2211 H 0.79026 0.59773 0.07963 0.0
H2212 H 0.8082 0.59805 0.07605 0.0
H2213 H 0.79265 0.58344 0.11453 0.0
H2214 H 0.77769 0.53026 0.02735 0.0
H2215 H 0.80417 0.53548 0.0296 0.0
H2216 H 0.82066 0.58431 0.02869 0.0
C2217 C 0.7608 0.57188 0.03665 0.0
C2218 C 0.74571 0.55941 0.04202 0.0
C2219 C 0.74318 0.54429 0.04044 0.0
C2220 C 0.75534 0.54154 0.03418 0.0
C2221 C 0.77003 0.554 0.02933 0.0
C2222 C 0.7729 0.56888 0.03054 0.0
C2223 C 0.78998 0.58012 0.02737 0.0
C2224 C 0.79394 0.58964 0.97568 0.0
C2225 C 0.7956 0.59044 0.07738 0.0
C2226 C 0.79619 0.56918 0.0257 0.0
C2227 C 0.7844 0.55419 0.02606 0.0
C2228 C 0.78705 0.54194 0.02657 0.0
C2229 C 0.80217 0.54506 0.02782 0.0
C2230 C 0.81454 0.5603 0.02905 0.0
C2231 C 0.81148 0.57254 0.02696 0.0
H2232 H 0.43656 0.18883 0.01179 0.0
H2233 H 0.39352 0.16264 0.09576 0.0
H2234 H 0.38903 0.18454 0.08947 0.0
H2235 H 0.44848 0.22386 0.07063 0.0
H2236 H 0.45644 0.23502 0.01061 0.0
H2237 H 0.45531 0.21677 0.01722 0.0
H2238 H 0.43996 0.20776 0.92822 0.0
H2239 H 0.44098 0.22602 0.92151 0.0
H2240 H 0.42268 0.20867 0.92095 0.0
H2241 H 0.39059 0.21014 0.08121 0.0
H2242 H 0.39815 0.23736 0.07334 0.0
H2243 H 0.43998 0.24651 0.99281 0.0
C2244 C 0.42608 0.18764 0.02799 0.0
C2245 C 0.41534 0.17409 0.05389 0.0
C2246 C 0.40176 0.17289 0.07497 0.0
C2247 C 0.39914 0.18526 0.07163 0.0
C2248 C 0.41004 0.19854 0.04601 0.0
C2249 C 0.42315 0.19973 0.02405 0.0
C2250 C 0.43335 0.21541 0.00046 0.0
C2251 C 0.44933 0.22322 0.02632 0.0
C2252 C 0.4343 0.21441 0.93915 0.0
C2253 C 0.42447 0.22323 0.01579 0.0
C2254 C 0.41087 0.21322 0.04087 0.0
C2255 C 0.40109 0.21802 0.06088 0.0
C2256 C 0.40549 0.23352 0.05612 0.0
C2257 C 0.41967 0.24406 0.03233 0.0
C2258 C 0.42906 0.23872 0.01089 0.0
H2259 H 0.76438 0.17632 0.0568 0.0
H2260 H 0.73443 0.18857 0.97244 0.0
H2261 H 0.75596 0.21481 0.96065 0.0
H2262 H 0.78431 0.21032 0.1295 0.0
H2263 H 0.80268 0.21147 0.12592 0.0
H2264 H 0.78545 0.19315 0.1227 0.0
H2265 H 0.79414 0.18733 0.03225 0.0
H2266 H 0.8115 0.20559 0.03544 0.0
H2267 H 0.79924 0.20067 0.9775 0.0
H2268 H 0.77984 0.24009 0.96491 0.0
H2269 H 0.805 0.26278 0.98184 0.0
H2270 H 0.81969 0.23439 0.06375 0.0
C2271 C 0.76243 0.18442 0.0347 0.0
C2272 C 0.74773 0.18037 0.01527 0.0
C2273 C 0.7456 0.19138 0.98748 0.0
C2274 C 0.75775 0.20633 0.98058 0.0
C2275 C 0.77199 0.21006 0.00149 0.0
C2276 C 0.77444 0.19942 0.0276 0.0
C2277 C 0.79065 0.20667 0.04891 0.0
C2278 C 0.79077 0.20532 0.1104 0.0
C2279 C 0.7994 0.19965 0.0219 0.0
C2280 C 0.79682 0.22309 0.03151 0.0
C2281 C 0.78587 0.22475 0.00399 0.0
C2282 C 0.78859 0.23891 0.98576 0.0
C2283 C 0.80293 0.25175 -0.00429 0.0
C2284 C 0.81438 0.25037 0.02375 0.0
C2285 C 0.81125 0.2358 0.04165 0.0
H2286 H 0.56603 0.75383 0.87017 0.0
H2287 H 0.58674 0.7564 0.02496 0.0
H2288 H 0.59368 0.7837 0.03283 0.0
H2289 H 0.59483 0.79199 0.82686 0.0
H2290 H 0.58111 0.79498 0.79066 0.0
H2291 H 0.57818 0.77595 0.79784 0.0
H2292 H 0.55153 0.76691 0.83994 0.0
H2293 H 0.55434 0.78586 0.83268 0.0
H2294 H 0.54999 0.77683 0.89767 0.0
H2295 H 0.59674 0.81047 0.02451 0.0
H2296 H 0.59628 0.83402 0.00052 0.0
H2297 H 0.5747 0.81342 0.84873 0.0
C2298 C 0.57198 0.76011 0.9059 0.0
C2299 C 0.57566 0.75303 0.94742 0.0
C2300 C 0.58377 0.76168 0.99291 0.0
C2301 C 0.58776 0.77714 -0.00243 0.0
C2302 C 0.58387 0.78377 0.95571 0.0
C2303 C 0.57632 0.7755 0.91049 0.0
C2304 C 0.57352 0.7851 0.87068 0.0
C2305 C 0.58244 0.78712 0.81843 0.0
C2306 C 0.55633 0.77827 0.85965 0.0
C2307 C 0.58004 0.79995 0.9014 0.0
C2308 C 0.5861 0.79908 0.95016 0.0
C2309 C 0.59219 0.8113 0.98616 0.0
C2310 C 0.59187 0.82463 0.97217 0.0
C2311 C 0.58548 0.82559 0.92267 0.0
C2312 C 0.57975 0.81313 0.88672 0.0
H2313 H 0.1927 0.7553 0.87273 0.0
H2314 H 0.16249 0.76147 0.98048 0.0
H2315 H 0.18298 0.78823 -0.0028 0.0
H2316 H 0.22702 0.77679 0.94636 0.0
H2317 H 0.23863 0.78458 0.88718 0.0
H2318 H 0.22146 0.7662 0.88423 0.0
H2319 H 0.21149 0.7757 0.80577 0.0
H2320 H 0.22862 0.79413 0.80859 0.0
H2321 H 0.21018 0.79272 0.81437 0.0
H2322 H 0.2076 0.81499 0.00043 0.0
H2323 H 0.23349 0.83799 0.99168 0.0
H2324 H 0.24636 0.81283 0.8827 0.0
C2325 C 0.19033 0.7622 0.90006 0.0
C2326 C 0.176 0.75626 0.92544 0.0
C2327 C 0.17341 0.76578 0.96063 0.0
C2328 C 0.18497 0.78099 0.97027 0.0
C2329 C 0.199 0.78648 0.94427 0.0
C2330 C 0.20162 0.77728 0.90989 0.0
C2331 C 0.2175 0.78565 0.88649 0.0
C2332 C 0.22669 0.77784 0.90203 0.0
C2333 C 0.21691 0.78714 0.82519 0.0
C2334 C 0.22362 0.80094 0.91386 0.0
C2335 C 0.21284 0.80141 0.94662 0.0
C2336 C 0.21612 0.81467 0.97503 0.0
C2337 C 0.23082 0.82767 0.96988 0.0
C2338 C 0.24201 0.82715 0.93714 0.0
C2339 C 0.2382 0.81359 0.90883 0.0
H2340 H 0.17617 0.41356 0.95402 0.0
H2341 H 0.19304 0.46225 0.93759 0.0
H2342 H 0.21942 0.4672 0.93728 0.0
H2343 H 0.20817 0.41787 0.04134 0.0
H2344 H 0.20845 0.40187 0.01042 0.0
H2345 H 0.19078 0.40215 0.01488 0.0
H2346 H 0.18731 0.39831 0.91197 0.0
H2347 H 0.20502 0.39818 0.90709 0.0
H2348 H 0.20223 0.4116 0.86801 0.0
H2349 H 0.24353 0.46688 0.92855 0.0
H2350 H 0.26454 0.46145 0.91821 0.0
H2351 H 0.23274 0.41307 0.94282 0.0
C2352 C 0.18543 0.42528 0.95171 0.0
C2353 C 0.18251 0.43751 0.94593 0.0
C2354 C 0.19495 0.45268 0.94232 0.0
C2355 C 0.21001 0.45564 0.94204 0.0
C2356 C 0.2125 0.44333 0.94628 0.0
C2357 C 0.20063 0.42848 0.95187 0.0
C2358 C 0.20657 0.41735 0.95352 0.0
C2359 C 0.2033 0.40934 0.00831 0.0
C2360 C 0.19989 0.40568 0.90739 0.0
C2361 C 0.22355 0.42826 0.94598 0.0
C2362 C 0.22666 0.44319 0.94226 0.0
C2363 C 0.24131 0.45528 0.93242 0.0
C2364 C 0.25317 0.45205 0.92645 0.0
C2365 C 0.25032 0.43686 0.93027 0.0
C2366 C 0.2353 0.42482 0.94053 0.0
H2367 H 0.43004 0.9217 0.37972 0.0
H2368 H 0.39785 0.87343 0.40519 0.0
H2369 H 0.419 0.86813 0.40678 0.0
H2370 H 0.45645 0.91525 0.2931 0.0
H2371 H 0.47331 0.93152 0.32004 0.0
H2372 H 0.45556 0.93167 0.31658 0.0
H2373 H 0.45722 0.9373 0.41852 0.0
H2374 H 0.4749 0.93709 0.42234 0.0
H2375 H 0.45908 0.92462 0.46485 0.0
H2376 H 0.44297 0.86789 0.41287 0.0
H2377 H 0.46916 0.87262 0.42072 0.0
H2378 H 0.48688 0.92096 0.38993 0.0
C2379 C 0.42746 0.91001 0.38477 0.0
C2380 C 0.41223 0.89799 0.39227 0.0
C2381 C 0.40935 0.88284 0.39911 0.0
C2382 C 0.4213 0.87968 0.40007 0.0
C2383 C 0.43613 0.89173 0.3934 0.0
C2384 C 0.43934 0.90657 0.38531 0.0
C2385 C 0.45649 0.91735 0.38071 0.0
C2386 C 0.4607 0.92436 0.32425 0.0
C2387 C 0.46225 0.92982 0.42422 0.0
C2388 C 0.46233 0.90628 0.38994 0.0
C2389 C 0.45029 0.89156 0.39642 0.0
C2390 C 0.45253 0.87933 0.40719 0.0
C2391 C 0.4675 0.88217 0.41167 0.0
C2392 C 0.48013 0.89715 0.4057 0.0
C2393 C 0.47748 0.90936 0.39419 0.0
H2394 H 0.07482 0.56404 0.33394 0.0
H2395 H 0.10979 0.59371 0.44735 0.0
H2396 H 0.11391 0.57258 0.47332 0.0
H2397 H 0.05906 0.52919 0.41171 0.0
H2398 H 0.05652 0.51698 0.35519 0.0
H2399 H 0.05581 0.53429 0.34569 0.0
H2400 H 0.07716 0.54329 0.27399 0.0
H2401 H 0.07793 0.526 0.28334 0.0
H2402 H 0.09501 0.54435 0.29104 0.0
H2403 H 0.11451 0.54892 0.48777 0.0
H2404 H 0.11206 0.52349 0.48859 0.0
H2405 H 0.07729 0.50838 0.36429 0.0
C2406 C 0.08329 0.56598 0.36422 0.0
C2407 C 0.09206 0.5805 0.38849 0.0
C2408 C 0.10311 0.58272 0.42779 0.0
C2409 C 0.10548 0.57078 0.44304 0.0
C2410 C 0.09685 0.55668 0.41817 0.0
C2411 C 0.08606 0.55416 0.37934 0.0
C2412 C 0.07885 0.5379 0.35797 0.0
C2413 C 0.06153 0.52907 0.36828 0.0
C2414 C 0.08245 0.53789 0.29802 0.0
C2415 C 0.08706 0.53171 0.39177 0.0
C2416 C 0.09741 0.54283 0.42602 0.0
C2417 C 0.10648 0.54009 0.46105 0.0
C2418 C 0.10501 0.52558 0.46111 0.0
C2419 C 0.09451 0.51392 0.42643 0.0
C2420 C 0.0854 0.51705 0.3913 0.0
H2421 H 0.47857 0.57446 0.31481 0.0
H2422 H 0.50612 0.57627 0.45136 0.0
H2423 H 0.48543 0.55131 0.48199 0.0
H2424 H 0.44325 0.55788 0.37708 0.0
H2425 H 0.43235 0.54507 0.32334 0.0
H2426 H 0.44975 0.56255 0.30867 0.0
H2427 H 0.46059 0.54728 0.26032 0.0
H2428 H 0.44311 0.52973 0.2743 0.0
H2429 H 0.46119 0.53197 0.2952 0.0
H2430 H 0.46111 0.52811 0.50414 0.0
H2431 H 0.43514 0.50599 0.51133 0.0
H2432 H 0.42335 0.51773 0.35784 0.0
C2433 C 0.48032 0.56938 0.35041 0.0
C2434 C 0.49396 0.57723 0.38053 0.0
C2435 C 0.49587 0.57035 0.42717 0.0
C2436 C 0.48415 0.5562 0.44512 0.0
C2437 C 0.47074 0.54889 0.41526 0.0
C2438 C 0.46886 0.55499 0.36821 0.0
C2439 C 0.45318 0.54464 0.34416 0.0
C2440 C 0.4441 0.55304 0.33799 0.0
C2441 C 0.4546 0.53802 0.2903 0.0
C2442 C 0.4463 0.53231 0.3868 0.0
C2443 C 0.45672 0.53498 0.42716 0.0
C2444 C 0.45292 0.52569 0.47229 0.0
C2445 C 0.4381 0.51319 0.47609 0.0
C2446 C 0.42723 0.51006 0.43498 0.0
C2447 C 0.43145 0.51974 0.38964 0.0
loop_
_geom_bond_atom_site_label_1
_geom_bond_atom_site_label_2
_geom_bond_distance
_geom_bond_site_symmetry_2
_ccdc_geom_bond_type
Mg0 O1 2.028 . S
Mg0 O7 1.986 . S
Mg0 O9 2.114 . S
Mg0 O10 2.251 . S
Mg0 O13 2.010 . S
O1 Mg0 2.028 . S
O1 C4 1.250 . S
O2 Mg3 2.028 . S
O2 C4 1.248 . S
Mg3 O2 2.028 . S
Mg3 O8 2.032 . S
Mg3 O10 2.079 . S
C4 O1 1.250 . S
C4 O2 1.248 . S
C5 O6 1.264 . S
C5 O13 1.249 . S
O6 C5 1.264 . S
O7 Mg0 1.986 . S
O7 C11 1.246 . S
O8 Mg3 2.032 . S
O8 C11 1.259 . S
O9 Mg0 2.114 . S
O9 C12 1.252 . S
O10 Mg0 2.251 . S
O10 Mg3 2.079 . S
O10 C12 1.273 . S
C11 O7 1.246 . S
C11 O8 1.259 . S
C12 O9 1.252 . S
C12 O10 1.273 . S
O13 Mg0 2.010 . S
O13 C5 1.249 . S
Mg14 O15 2.028 . S
Mg14 O21 1.986 . S
Mg14 O23 2.114 . S
Mg14 O24 2.251 . S
Mg14 O27 2.010 . S
O15 Mg14 2.028 . S
O15 C18 1.250 . S
O16 Mg17 2.028 . S
O16 C18 1.248 . S
Mg17 O16 2.028 . S
Mg17 O22 2.032 . S
Mg17 O24 2.079 . S
C18 O15 1.250 . S
C18 O16 1.248 . S
C19 O20 1.264 . S
C19 O27 1.249 . S
O20 C19 1.264 . S
O21 Mg14 1.986 . S
O21 C25 1.246 . S
O22 Mg17 2.032 . S
O22 C25 1.259 . S
O23 Mg14 2.114 . S
O23 C26 1.252 . S
O24 Mg14 2.251 . S
O24 Mg17 2.079 . S
O24 C26 1.273 . S
C25 O21 1.246 . S
C25 O22 1.259 . S
C26 O23 1.252 . S
C26 O24 1.273 . S
O27 Mg14 2.010 . S
O27 C19 1.249 . S
Mg28 O29 2.028 . S
Mg28 O35 1.986 . S
Mg28 O37 2.114 . S
Mg28 O38 2.251 . S
Mg28 O41 2.010 . S
O29 Mg28 2.028 . S
O29 C32 1.250 . S
O30 Mg31 2.028 . S
O30 C32 1.248 . S
Mg31 O30 2.028 . S
Mg31 O36 2.032 . S
Mg31 O38 2.079 . S
C32 O29 1.250 . S
C32 O30 1.248 . S
C33 O34 1.264 . S
C33 O41 1.249 . S
O34 C33 1.264 . S
O35 Mg28 1.986 . S
O35 C39 1.246 . S
O36 Mg31 2.032 . S
O36 C39 1.259 . S
O37 Mg28 2.114 . S
O37 C40 1.252 . S
O38 Mg28 2.251 . S
O38 Mg31 2.079 . S
O38 C40 1.273 . S
C39 O35 1.246 . S
C39 O36 1.259 . S
C40 O37 1.252 . S
C40 O38 1.273 . S
O41 Mg28 2.010 . S
O41 C33 1.249 . S
Mg42 O43 2.028 . S
Mg42 O49 1.986 . S
Mg42 O51 2.114 . S
Mg42 O52 2.251 . S
Mg42 O55 2.010 . S
O43 Mg42 2.028 . S
O43 C46 1.250 . S
O44 Mg45 2.028 . S
O44 C46 1.248 . S
Mg45 O44 2.028 . S
Mg45 O50 2.032 . S
Mg45 O52 2.079 . S
C46 O43 1.250 . S
C46 O44 1.248 . S
C47 O48 1.264 . S
C47 O55 1.249 . S
O48 C47 1.264 . S
O49 Mg42 1.986 . S
O49 C53 1.246 . S
O50 Mg45 2.032 . S
O50 C53 1.259 . S
O51 Mg42 2.114 . S
O51 C54 1.252 . S
O52 Mg42 2.251 . S
O52 Mg45 2.079 . S
O52 C54 1.273 . S
C53 O49 1.246 . S
C53 O50 1.259 . S
C54 O51 1.252 . S
C54 O52 1.273 . S
O55 Mg42 2.010 . S
O55 C47 1.249 . S
Mg56 O57 2.028 . S
Mg56 O63 1.986 . S
Mg56 O65 2.114 . S
Mg56 O66 2.251 . S
Mg56 O69 2.010 . S
O57 Mg56 2.028 . S
O57 C60 1.250 . S
O58 Mg59 2.028 . S
O58 C60 1.248 . S
Mg59 O58 2.028 . S
Mg59 O64 2.032 . S
Mg59 O66 2.079 . S
C60 O57 1.250 . S
C60 O58 1.248 . S
C61 O62 1.264 . S
C61 O69 1.249 . S
O62 C61 1.264 . S
O63 Mg56 1.986 . S
O63 C67 1.246 . S
O64 Mg59 2.032 . S
O64 C67 1.259 . S
O65 Mg56 2.114 . S
O65 C68 1.252 . S
O66 Mg56 2.251 . S
O66 Mg59 2.079 . S
O66 C68 1.273 . S
C67 O63 1.246 . S
C67 O64 1.259 . S
C68 O65 1.252 . S
C68 O66 1.273 . S
O69 Mg56 2.010 . S
O69 C61 1.249 . S
Mg70 O71 2.028 . S
Mg70 O77 1.986 . S
Mg70 O79 2.114 . S
Mg70 O80 2.251 . S
Mg70 O83 2.010 . S
O71 Mg70 2.028 . S
O71 C74 1.250 . S
O72 Mg73 2.028 . S
O72 C74 1.248 . S
Mg73 O72 2.028 . S
Mg73 O78 2.032 . S
Mg73 O80 2.079 . S
C74 O71 1.250 . S
C74 O72 1.248 . S
C75 O76 1.264 . S
C75 O83 1.249 . S
O76 C75 1.264 . S
O77 Mg70 1.986 . S
O77 C81 1.246 . S
O78 Mg73 2.032 . S
O78 C81 1.259 . S
O79 Mg70 2.114 . S
O79 C82 1.252 . S
O80 Mg70 2.251 . S
O80 Mg73 2.079 . S
O80 C82 1.273 . S
C81 O77 1.246 . S
C81 O78 1.259 . S
C82 O79 1.252 . S
C82 O80 1.273 . S
O83 Mg70 2.010 . S
O83 C75 1.249 . S
Mg84 O85 2.028 . S
Mg84 O91 1.986 . S
Mg84 O93 2.114 . S
Mg84 O94 2.251 . S
Mg84 O97 2.010 . S
O85 Mg84 2.028 . S
O85 C88 1.250 . S
O86 Mg87 2.028 . S
O86 C88 1.248 . S
Mg87 O86 2.028 . S
Mg87 O92 2.032 . S
Mg87 O94 2.079 . S
C88 O85 1.250 . S
C88 O86 1.248 . S
C89 O90 1.264 . S
C89 O97 1.249 . S
O90 C89 1.264 . S
O91 Mg84 1.986 . S
O91 C95 1.246 . S
O92 Mg87 2.032 . S
O92 C95 1.259 . S
O93 Mg84 2.114 . S
O93 C96 1.252 . S
O94 Mg84 2.251 . S
O94 Mg87 2.079 . S
O94 C96 1.273 . S
C95 O91 1.246 . S
C95 O92 1.259 . S
C96 O93 1.252 . S
C96 O94 1.273 . S
O97 Mg84 2.010 . S
O97 C89 1.249 . S
Mg98 O99 2.028 . S
Mg98 O105 1.986 . S
Mg98 O107 2.114 . S
Mg98 O108 2.251 . S
Mg98 O111 2.010 . S
O99 Mg98 2.028 . S
O99 C102 1.250 . S
O100 Mg101 2.028 . S
O100 C102 1.248 . S
Mg101 O100 2.028 . S
Mg101 O106 2.032 . S
Mg101 O108 2.079 . S
C102 O99 1.250 . S
C102 O100 1.248 . S
C103 O104 1.264 . S
C103 O111 1.249 . S
O104 C103 1.264 . S
O105 Mg98 1.986 . S
O105 C109 1.246 . S
O106 Mg101 2.032 . S
O106 C109 1.259 . S
O107 Mg98 2.114 . S
O107 C110 1.252 . S
O108 Mg98 2.251 . S
O108 Mg101 2.079 . S
O108 C110 1.273 . S
C109 O105 1.246 . S
C109 O106 1.259 . S
C110 O107 1.252 . S
C110 O108 1.273 . S
O111 Mg98 2.010 . S
O111 C103 1.249 . S
Mg112 O113 2.028 . S
Mg112 O119 1.986 . S
Mg112 O121 2.114 . S
Mg112 O122 2.251 . S
Mg112 O125 2.010 . S
O113 Mg112 2.028 . S
O113 C116 1.250 . S
O114 Mg115 2.028 . S
O114 C116 1.248 . S
Mg115 O114 2.028 . S
Mg115 O120 2.032 . S
Mg115 O122 2.079 . S
C116 O113 1.250 . S
C116 O114 1.248 . S
C117 O118 1.264 . S
C117 O125 1.249 . S
O118 C117 1.264 . S
O119 Mg112 1.986 . S
O119 C123 1.246 . S
O120 Mg115 2.032 . S
O120 C123 1.259 . S
O121 Mg112 2.114 . S
O121 C124 1.252 . S
O122 Mg112 2.251 . S
O122 Mg115 2.079 . S
O122 C124 1.273 . S
C123 O119 1.246 . S
C123 O120 1.259 . S
C124 O121 1.252 . S
C124 O122 1.273 . S
O125 Mg112 2.010 . S
O125 C117 1.249 . S
Mg126 O127 2.028 . S
Mg126 O133 1.986 . S
Mg126 O135 2.114 . S
Mg126 O136 2.251 . S
Mg126 O139 2.010 . S
O127 Mg126 2.028 . S
O127 C130 1.250 . S
O128 Mg129 2.028 . S
O128 C130 1.248 . S
Mg129 O128 2.028 . S
Mg129 O134 2.032 . S
Mg129 O136 2.079 . S
C130 O127 1.250 . S
C130 O128 1.248 . S
C131 O132 1.264 . S
C131 O139 1.249 . S
O132 C131 1.264 . S
O133 Mg126 1.986 . S
O133 C137 1.246 . S
O134 Mg129 2.032 . S
O134 C137 1.259 . S
O135 Mg126 2.114 . S
O135 C138 1.252 . S
O136 Mg126 2.251 . S
O136 Mg129 2.079 . S
O136 C138 1.273 . S
C137 O133 1.246 . S
C137 O134 1.259 . S
C138 O135 1.252 . S
C138 O136 1.273 . S
O139 Mg126 2.010 . S
O139 C131 1.249 . S
Mg140 O141 2.028 . S
Mg140 O147 1.986 . S
Mg140 O149 2.114 . S
Mg140 O150 2.251 . S
Mg140 O153 2.010 . S
O141 Mg140 2.028 . S
O141 C144 1.250 . S
O142 Mg143 2.028 . S
O142 C144 1.248 . S
Mg143 O142 2.028 . S
Mg143 O148 2.032 . S
Mg143 O150 2.079 . S
C144 O141 1.250 . S
C144 O142 1.248 . S
C145 O146 1.264 . S
C145 O153 1.249 . S
O146 C145 1.264 . S
O147 Mg140 1.986 . S
O147 C151 1.246 . S
O148 Mg143 2.032 . S
O148 C151 1.259 . S
O149 Mg140 2.114 . S
O149 C152 1.252 . S
O150 Mg140 2.251 . S
O150 Mg143 2.079 . S
O150 C152 1.273 . S
C151 O147 1.246 . S
C151 O148 1.259 . S
C152 O149 1.252 . S
C152 O150 1.273 . S
O153 Mg140 2.010 . S
O153 C145 1.249 . S
Mg154 O155 2.028 . S
Mg154 O161 1.986 . S
Mg154 O163 2.114 . S
Mg154 O164 2.251 . S
Mg154 O167 2.010 . S
O155 Mg154 2.028 . S
O155 C158 1.250 . S
O156 Mg157 2.028 . S
O156 C158 1.248 . S
Mg157 O156 2.028 . S
Mg157 O162 2.032 . S
Mg157 O164 2.079 . S
C158 O155 1.250 . S
C158 O156 1.248 . S
C159 O160 1.264 . S
C159 O167 1.249 . S
O160 C159 1.264 . S
O161 Mg154 1.986 . S
O161 C165 1.246 . S
O162 Mg157 2.032 . S
O162 C165 1.259 . S
O163 Mg154 2.114 . S
O163 C166 1.252 . S
O164 Mg154 2.251 . S
O164 Mg157 2.079 . S
O164 C166 1.273 . S
C165 O161 1.246 . S
C165 O162 1.259 . S
C166 O163 1.252 . S
C166 O164 1.273 . S
O167 Mg154 2.010 . S
O167 C159 1.249 . S
Mg168 O169 2.028 . S
Mg168 O175 1.986 . S
Mg168 O177 2.114 . S
Mg168 O178 2.251 . S
Mg168 O181 2.010 . S
O169 Mg168 2.028 . S
O169 C172 1.250 . S
O170 Mg171 2.028 . S
O170 C172 1.248 . S
Mg171 O170 2.028 . S
Mg171 O176 2.032 . S
Mg171 O178 2.079 . S
C172 O169 1.250 . S
C172 O170 1.248 . S
C173 O174 1.264 . S
C173 O181 1.249 . S
O174 C173 1.264 . S
O175 Mg168 1.986 . S
O175 C179 1.246 . S
O176 Mg171 2.032 . S
O176 C179 1.259 . S
O177 Mg168 2.114 . S
O177 C180 1.252 . S
O178 Mg168 2.251 . S
O178 Mg171 2.079 . S
O178 C180 1.273 . S
C179 O175 1.246 . S
C179 O176 1.259 . S
C180 O177 1.252 . S
C180 O178 1.273 . S
O181 Mg168 2.010 . S
O181 C173 1.249 . S
Mg182 O183 2.028 . S
Mg182 O189 1.986 . S
Mg182 O191 2.114 . S
Mg182 O192 2.251 . S
Mg182 O195 2.010 . S
O183 Mg182 2.028 . S
O183 C186 1.250 . S
O184 Mg185 2.028 . S
O184 C186 1.248 . S
Mg185 O184 2.028 . S
Mg185 O190 2.032 . S
Mg185 O192 2.079 . S
C186 O183 1.250 . S
C186 O184 1.248 . S
C187 O188 1.264 . S
C187 O195 1.249 . S
O188 C187 1.264 . S
O189 Mg182 1.986 . S
O189 C193 1.246 . S
O190 Mg185 2.032 . S
O190 C193 1.259 . S
O191 Mg182 2.114 . S
O191 C194 1.252 . S
O192 Mg182 2.251 . S
O192 Mg185 2.079 . S
O192 C194 1.273 . S
C193 O189 1.246 . S
C193 O190 1.259 . S
C194 O191 1.252 . S
C194 O192 1.273 . S
O195 Mg182 2.010 . S
O195 C187 1.249 . S
Mg196 O197 2.028 . S
Mg196 O203 1.986 . S
Mg196 O205 2.114 . S
Mg196 O206 2.251 . S
Mg196 O209 2.010 . S
O197 Mg196 2.028 . S
O197 C200 1.250 . S
O198 Mg199 2.028 . S
O198 C200 1.248 . S
Mg199 O198 2.028 . S
Mg199 O204 2.032 . S
Mg199 O206 2.079 . S
C200 O197 1.250 . S
C200 O198 1.248 . S
C201 O202 1.264 . S
C201 O209 1.249 . S
O202 C201 1.264 . S
O203 Mg196 1.986 . S
O203 C207 1.246 . S
O204 Mg199 2.032 . S
O204 C207 1.259 . S
O205 Mg196 2.114 . S
O205 C208 1.252 . S
O206 Mg196 2.251 . S
O206 Mg199 2.079 . S
O206 C208 1.273 . S
C207 O203 1.246 . S
C207 O204 1.259 . S
C208 O205 1.252 . S
C208 O206 1.273 . S
O209 Mg196 2.010 . S
O209 C201 1.249 . S
Mg210 O211 2.028 . S
Mg210 O217 1.986 . S
Mg210 O219 2.114 . S
Mg210 O220 2.251 . S
Mg210 O223 2.010 . S
O211 Mg210 2.028 . S
O211 C214 1.250 . S
O212 Mg213 2.028 . S
O212 C214 1.248 . S
Mg213 O212 2.028 . S
Mg213 O218 2.032 . S
Mg213 O220 2.079 . S
C214 O211 1.250 . S
C214 O212 1.248 . S
C215 O216 1.264 . S
C215 O223 1.249 . S
O216 C215 1.264 . S
O217 Mg210 1.986 . S
O217 C221 1.246 . S
O218 Mg213 2.032 . S
O218 C221 1.259 . S
O219 Mg210 2.114 . S
O219 C222 1.252 . S
O220 Mg210 2.251 . S
O220 Mg213 2.079 . S
O220 C222 1.273 . S
C221 O217 1.246 . S
C221 O218 1.259 . S
C222 O219 1.252 . S
C222 O220 1.273 . S
O223 Mg210 2.010 . S
O223 C215 1.249 . S
Mg224 O225 2.028 . S
Mg224 O231 1.986 . S
Mg224 O233 2.114 . S
Mg224 O234 2.251 . S
Mg224 O237 2.010 . S
O225 Mg224 2.028 . S
O225 C228 1.250 . S
O226 Mg227 2.028 . S
O226 C228 1.248 . S
Mg227 O226 2.028 . S
Mg227 O232 2.032 . S
Mg227 O234 2.079 . S
C228 O225 1.250 . S
C228 O226 1.248 . S
C229 O230 1.264 . S
C229 O237 1.249 . S
O230 C229 1.264 . S
O231 Mg224 1.986 . S
O231 C235 1.246 . S
O232 Mg227 2.032 . S
O232 C235 1.259 . S
O233 Mg224 2.114 . S
O233 C236 1.252 . S
O234 Mg224 2.251 . S
O234 Mg227 2.079 . S
O234 C236 1.273 . S
C235 O231 1.246 . S
C235 O232 1.259 . S
C236 O233 1.252 . S
C236 O234 1.273 . S
O237 Mg224 2.010 . S
O237 C229 1.249 . S
Mg238 O239 2.028 . S
Mg238 O245 1.986 . S
Mg238 O247 2.114 . S
Mg238 O248 2.251 . S
Mg238 O251 2.010 . S
O239 Mg238 2.028 . S
O239 C242 1.250 . S
O240 Mg241 2.028 . S
O240 C242 1.248 . S
Mg241 O240 2.028 . S
Mg241 O246 2.032 . S
Mg241 O248 2.079 . S
C242 O239 1.250 . S
C242 O240 1.248 . S
C243 O244 1.264 . S
C243 O251 1.249 . S
O244 C243 1.264 . S
O245 Mg238 1.986 . S
O245 C249 1.246 . S
O246 Mg241 2.032 . S
O246 C249 1.259 . S
O247 Mg238 2.114 . S
O247 C250 1.252 . S
O248 Mg238 2.251 . S
O248 Mg241 2.079 . S
O248 C250 1.273 . S
C249 O245 1.246 . S
C249 O246 1.259 . S
C250 O247 1.252 . S
C250 O248 1.273 . S
O251 Mg238 2.010 . S
O251 C243 1.249 . S
Mg252 O253 2.028 . S
Mg252 O259 1.986 . S
Mg252 O261 2.114 . S
Mg252 O262 2.251 . S
Mg252 O265 2.010 . S
O253 Mg252 2.028 . S
O253 C256 1.250 . S
O254 Mg255 2.028 . S
O254 C256 1.248 . S
Mg255 O254 2.028 . S
Mg255 O260 2.032 . S
Mg255 O262 2.079 . S
C256 O253 1.250 . S
C256 O254 1.248 . S
C257 O258 1.264 . S
C257 O265 1.249 . S
O258 C257 1.264 . S
O259 Mg252 1.986 . S
O259 C263 1.246 . S
O260 Mg255 2.032 . S
O260 C263 1.259 . S
O261 Mg252 2.114 . S
O261 C264 1.252 . S
O262 Mg252 2.251 . S
O262 Mg255 2.079 . S
O262 C264 1.273 . S
C263 O259 1.246 . S
C263 O260 1.259 . S
C264 O261 1.252 . S
C264 O262 1.273 . S
O265 Mg252 2.010 . S
O265 C257 1.249 . S
Mg266 O267 2.028 . S
Mg266 O273 1.986 . S
Mg266 O275 2.114 . S
Mg266 O276 2.251 . S
Mg266 O279 2.010 . S
O267 Mg266 2.028 . S
O267 C270 1.250 . S
O268 Mg269 2.028 . S
O268 C270 1.248 . S
Mg269 O268 2.028 . S
Mg269 O274 2.032 . S
Mg269 O276 2.079 . S
C270 O267 1.250 . S
C270 O268 1.248 . S
C271 O272 1.264 . S
C271 O279 1.249 . S
O272 C271 1.264 . S
O273 Mg266 1.986 . S
O273 C277 1.246 . S
O274 Mg269 2.032 . S
O274 C277 1.259 . S
O275 Mg266 2.114 . S
O275 C278 1.252 . S
O276 Mg266 2.251 . S
O276 Mg269 2.079 . S
O276 C278 1.273 . S
C277 O273 1.246 . S
C277 O274 1.259 . S
C278 O275 1.252 . S
C278 O276 1.273 . S
O279 Mg266 2.010 . S
O279 C271 1.249 . S
Mg280 O281 2.028 . S
Mg280 O287 1.986 . S
Mg280 O289 2.114 . S
Mg280 O290 2.251 . S
Mg280 O293 2.010 . S
O281 Mg280 2.028 . S
O281 C284 1.250 . S
O282 Mg283 2.028 . S
O282 C284 1.248 . S
Mg283 O282 2.028 . S
Mg283 O288 2.032 . S
Mg283 O290 2.079 . S
C284 O281 1.250 . S
C284 O282 1.248 . S
C285 O286 1.264 . S
C285 O293 1.249 . S
O286 C285 1.264 . S
O287 Mg280 1.986 . S
O287 C291 1.246 . S
O288 Mg283 2.032 . S
O288 C291 1.259 . S
O289 Mg280 2.114 . S
O289 C292 1.252 . S
O290 Mg280 2.251 . S
O290 Mg283 2.079 . S
O290 C292 1.273 . S
C291 O287 1.246 . S
C291 O288 1.259 . S
C292 O289 1.252 . S
C292 O290 1.273 . S
O293 Mg280 2.010 . S
O293 C285 1.249 . S
Mg294 O295 2.028 . S
Mg294 O301 1.986 . S
Mg294 O303 2.114 . S
Mg294 O304 2.251 . S
Mg294 O307 2.010 . S
O295 Mg294 2.028 . S
O295 C298 1.250 . S
O296 Mg297 2.028 . S
O296 C298 1.248 . S
Mg297 O296 2.028 . S
Mg297 O302 2.032 . S
Mg297 O304 2.079 . S
C298 O295 1.250 . S
C298 O296 1.248 . S
C299 O300 1.264 . S
C299 O307 1.249 . S
O300 C299 1.264 . S
O301 Mg294 1.986 . S
O301 C305 1.246 . S
O302 Mg297 2.032 . S
O302 C305 1.259 . S
O303 Mg294 2.114 . S
O303 C306 1.252 . S
O304 Mg294 2.251 . S
O304 Mg297 2.079 . S
O304 C306 1.273 . S
C305 O301 1.246 . S
C305 O302 1.259 . S
C306 O303 1.252 . S
C306 O304 1.273 . S
O307 Mg294 2.010 . S
O307 C299 1.249 . S
Mg308 O309 2.028 . S
Mg308 O315 1.986 . S
Mg308 O317 2.114 . S
Mg308 O318 2.251 . S
Mg308 O321 2.010 . S
O309 Mg308 2.028 . S
O309 C312 1.250 . S
O310 Mg311 2.028 . S
O310 C312 1.248 . S
Mg311 O310 2.028 . S
Mg311 O316 2.032 . S
Mg311 O318 2.079 . S
C312 O309 1.250 . S
C312 O310 1.248 . S
C313 O314 1.264 . S
C313 O321 1.249 . S
O314 C313 1.264 . S
O315 Mg308 1.986 . S
O315 C319 1.246 . S
O316 Mg311 2.032 . S
O316 C319 1.259 . S
O317 Mg308 2.114 . S
O317 C320 1.252 . S
O318 Mg308 2.251 . S
O318 Mg311 2.079 . S
O318 C320 1.273 . S
C319 O315 1.246 . S
C319 O316 1.259 . S
C320 O317 1.252 . S
C320 O318 1.273 . S
O321 Mg308 2.010 . S
O321 C313 1.249 . S
Mg322 O323 2.028 . S
Mg322 O329 1.986 . S
Mg322 O331 2.114 . S
Mg322 O332 2.251 . S
Mg322 O335 2.010 . S
O323 Mg322 2.028 . S
O323 C326 1.250 . S
O324 Mg325 2.028 . S
O324 C326 1.248 . S
Mg325 O324 2.028 . S
Mg325 O330 2.032 . S
Mg325 O332 2.079 . S
C326 O323 1.250 . S
C326 O324 1.248 . S
C327 O328 1.264 . S
C327 O335 1.249 . S
O328 C327 1.264 . S
O329 Mg322 1.986 . S
O329 C333 1.246 . S
O330 Mg325 2.032 . S
O330 C333 1.259 . S
O331 Mg322 2.114 . S
O331 C334 1.252 . S
O332 Mg322 2.251 . S
O332 Mg325 2.079 . S
O332 C334 1.273 . S
C333 O329 1.246 . S
C333 O330 1.259 . S
C334 O331 1.252 . S
C334 O332 1.273 . S
O335 Mg322 2.010 . S
O335 C327 1.249 . S
Mg336 O337 2.028 . S
Mg336 O343 1.986 . S
Mg336 O345 2.114 . S
Mg336 O346 2.251 . S
Mg336 O349 2.010 . S
O337 Mg336 2.028 . S
O337 C340 1.250 . S
O338 Mg339 2.028 . S
O338 C340 1.248 . S
Mg339 O338 2.028 . S
Mg339 O344 2.032 . S
Mg339 O346 2.079 . S
C340 O337 1.250 . S
C340 O338 1.248 . S
C341 O342 1.264 . S
C341 O349 1.249 . S
O342 C341 1.264 . S
O343 Mg336 1.986 . S
O343 C347 1.246 . S
O344 Mg339 2.032 . S
O344 C347 1.259 . S
O345 Mg336 2.114 . S
O345 C348 1.252 . S
O346 Mg336 2.251 . S
O346 Mg339 2.079 . S
O346 C348 1.273 . S
C347 O343 1.246 . S
C347 O344 1.259 . S
C348 O345 1.252 . S
C348 O346 1.273 . S
O349 Mg336 2.010 . S
O349 C341 1.249 . S
Mg350 O351 2.028 . S
Mg350 O357 1.986 . S
Mg350 O359 2.114 . S
Mg350 O360 2.251 . S
Mg350 O363 2.010 . S
O351 Mg350 2.028 . S
O351 C354 1.250 . S
O352 Mg353 2.028 . S
O352 C354 1.248 . S
Mg353 O352 2.028 . S
Mg353 O358 2.032 . S
Mg353 O360 2.079 . S
C354 O351 1.250 . S
C354 O352 1.248 . S
C355 O356 1.264 . S
C355 O363 1.249 . S
O356 C355 1.264 . S
O357 Mg350 1.986 . S
O357 C361 1.246 . S
O358 Mg353 2.032 . S
O358 C361 1.259 . S
O359 Mg350 2.114 . S
O359 C362 1.252 . S
O360 Mg350 2.251 . S
O360 Mg353 2.079 . S
O360 C362 1.273 . S
C361 O357 1.246 . S
C361 O358 1.259 . S
C362 O359 1.252 . S
C362 O360 1.273 . S
O363 Mg350 2.010 . S
O363 C355 1.249 . S
Mg364 O365 2.028 . S
Mg364 O371 1.986 . S
Mg364 O373 2.114 . S
Mg364 O374 2.251 . S
Mg364 O377 2.010 . S
O365 Mg364 2.028 . S
O365 C368 1.250 . S
O366 Mg367 2.028 . S
O366 C368 1.248 . S
Mg367 O366 2.028 . S
Mg367 O372 2.032 . S
Mg367 O374 2.079 . S
C368 O365 1.250 . S
C368 O366 1.248 . S
C369 O370 1.264 . S
C369 O377 1.249 . S
O370 C369 1.264 . S
O371 Mg364 1.986 . S
O371 C375 1.246 . S
O372 Mg367 2.032 . S
O372 C375 1.259 . S
O373 Mg364 2.114 . S
O373 C376 1.252 . S
O374 Mg364 2.251 . S
O374 Mg367 2.079 . S
O374 C376 1.273 . S
C375 O371 1.246 . S
C375 O372 1.259 . S
C376 O373 1.252 . S
C376 O374 1.273 . S
O377 Mg364 2.010 . S
O377 C369 1.249 . S
Mg378 O379 2.028 . S
Mg378 O385 1.986 . S
Mg378 O387 2.114 . S
Mg378 O388 2.251 . S
Mg378 O391 2.010 . S
O379 Mg378 2.028 . S
O379 C382 1.250 . S
O380 Mg381 2.028 . S
O380 C382 1.248 . S
Mg381 O380 2.028 . S
Mg381 O386 2.032 . S
Mg381 O388 2.079 . S
C382 O379 1.250 . S
C382 O380 1.248 . S
C383 O384 1.264 . S
C383 O391 1.249 . S
O384 C383 1.264 . S
O385 Mg378 1.986 . S
O385 C389 1.246 . S
O386 Mg381 2.032 . S
O386 C389 1.259 . S
O387 Mg378 2.114 . S
O387 C390 1.252 . S
O388 Mg378 2.251 . S
O388 Mg381 2.079 . S
O388 C390 1.273 . S
C389 O385 1.246 . S
C389 O386 1.259 . S
C390 O387 1.252 . S
C390 O388 1.273 . S
O391 Mg378 2.010 . S
O391 C383 1.249 . S
Mg392 O393 2.028 . S
Mg392 O399 1.986 . S
Mg392 O401 2.114 . S
Mg392 O402 2.251 . S
Mg392 O405 2.010 . S
O393 Mg392 2.028 . S
O393 C396 1.250 . S
O394 Mg395 2.028 . S
O394 C396 1.248 . S
Mg395 O394 2.028 . S
Mg395 O400 2.032 . S
Mg395 O402 2.079 . S
C396 O393 1.250 . S
C396 O394 1.248 . S
C397 O398 1.264 . S
C397 O405 1.249 . S
O398 C397 1.264 . S
O399 Mg392 1.986 . S
O399 C403 1.246 . S
O400 Mg395 2.032 . S
O400 C403 1.259 . S
O401 Mg392 2.114 . S
O401 C404 1.252 . S
O402 Mg392 2.251 . S
O402 Mg395 2.079 . S
O402 C404 1.273 . S
C403 O399 1.246 . S
C403 O400 1.259 . S
C404 O401 1.252 . S
C404 O402 1.273 . S
O405 Mg392 2.010 . S
O405 C397 1.249 . S
Mg406 O407 2.028 . S
Mg406 O413 1.986 . S
Mg406 O415 2.114 . S
Mg406 O416 2.251 . S
Mg406 O419 2.010 . S
O407 Mg406 2.028 . S
O407 C410 1.250 . S
O408 Mg409 2.028 . S
O408 C410 1.248 . S
Mg409 O408 2.028 . S
Mg409 O414 2.032 . S
Mg409 O416 2.079 . S
C410 O407 1.250 . S
C410 O408 1.248 . S
C411 O412 1.264 . S
C411 O419 1.249 . S
O412 C411 1.264 . S
O413 Mg406 1.986 . S
O413 C417 1.246 . S
O414 Mg409 2.032 . S
O414 C417 1.259 . S
O415 Mg406 2.114 . S
O415 C418 1.252 . S
O416 Mg406 2.251 . S
O416 Mg409 2.079 . S
O416 C418 1.273 . S
C417 O413 1.246 . S
C417 O414 1.259 . S
C418 O415 1.252 . S
C418 O416 1.273 . S
O419 Mg406 2.010 . S
O419 C411 1.249 . S
Mg420 O421 2.028 . S
Mg420 O427 1.986 . S
Mg420 O429 2.114 . S
Mg420 O430 2.251 . S
Mg420 O433 2.010 . S
O421 Mg420 2.028 . S
O421 C424 1.250 . S
O422 Mg423 2.028 . S
O422 C424 1.248 . S
Mg423 O422 2.028 . S
Mg423 O428 2.032 . S
Mg423 O430 2.079 . S
C424 O421 1.250 . S
C424 O422 1.248 . S
C425 O426 1.264 . S
C425 O433 1.249 . S
O426 C425 1.264 . S
O427 Mg420 1.986 . S
O427 C431 1.246 . S
O428 Mg423 2.032 . S
O428 C431 1.259 . S
O429 Mg420 2.114 . S
O429 C432 1.252 . S
O430 Mg420 2.251 . S
O430 Mg423 2.079 . S
O430 C432 1.273 . S
C431 O427 1.246 . S
C431 O428 1.259 . S
C432 O429 1.252 . S
C432 O430 1.273 . S
O433 Mg420 2.010 . S
O433 C425 1.249 . S
Mg434 O435 2.028 . S
Mg434 O441 1.986 . S
Mg434 O443 2.114 . S
Mg434 O444 2.251 . S
Mg434 O447 2.010 . S
O435 Mg434 2.028 . S
O435 C438 1.250 . S
O436 Mg437 2.028 . S
O436 C438 1.248 . S
Mg437 O436 2.028 . S
Mg437 O442 2.032 . S
Mg437 O444 2.079 . S
C438 O435 1.250 . S
C438 O436 1.248 . S
C439 O440 1.264 . S
C439 O447 1.249 . S
O440 C439 1.264 . S
O441 Mg434 1.986 . S
O441 C445 1.246 . S
O442 Mg437 2.032 . S
O442 C445 1.259 . S
O443 Mg434 2.114 . S
O443 C446 1.252 . S
O444 Mg434 2.251 . S
O444 Mg437 2.079 . S
O444 C446 1.273 . S
C445 O441 1.246 . S
C445 O442 1.259 . S
C446 O443 1.252 . S
C446 O444 1.273 . S
O447 Mg434 2.010 . S
O447 C439 1.249 . S
Mg448 O449 2.028 . S
Mg448 O455 1.986 . S
Mg448 O457 2.114 . S
Mg448 O458 2.251 . S
Mg448 O461 2.010 . S
O449 Mg448 2.028 . S
O449 C452 1.250 . S
O450 Mg451 2.028 . S
O450 C452 1.248 . S
Mg451 O450 2.028 . S
Mg451 O456 2.032 . S
Mg451 O458 2.079 . S
C452 O449 1.250 . S
C452 O450 1.248 . S
C453 O454 1.264 . S
C453 O461 1.249 . S
O454 C453 1.264 . S
O455 Mg448 1.986 . S
O455 C459 1.246 . S
O456 Mg451 2.032 . S
O456 C459 1.259 . S
O457 Mg448 2.114 . S
O457 C460 1.252 . S
O458 Mg448 2.251 . S
O458 Mg451 2.079 . S
O458 C460 1.273 . S
C459 O455 1.246 . S
C459 O456 1.259 . S
C460 O457 1.252 . S
C460 O458 1.273 . S
O461 Mg448 2.010 . S
O461 C453 1.249 . S
Mg462 O463 2.028 . S
Mg462 O469 1.986 . S
Mg462 O471 2.114 . S
Mg462 O472 2.251 . S
Mg462 O475 2.010 . S
O463 Mg462 2.028 . S
O463 C466 1.250 . S
O464 Mg465 2.028 . S
O464 C466 1.248 . S
Mg465 O464 2.028 . S
Mg465 O470 2.032 . S
Mg465 O472 2.079 . S
C466 O463 1.250 . S
C466 O464 1.248 . S
C467 O468 1.264 . S
C467 O475 1.249 . S
O468 C467 1.264 . S
O469 Mg462 1.986 . S
O469 C473 1.246 . S
O470 Mg465 2.032 . S
O470 C473 1.259 . S
O471 Mg462 2.114 . S
O471 C474 1.252 . S
O472 Mg462 2.251 . S
O472 Mg465 2.079 . S
O472 C474 1.273 . S
C473 O469 1.246 . S
C473 O470 1.259 . S
C474 O471 1.252 . S
C474 O472 1.273 . S
O475 Mg462 2.010 . S
O475 C467 1.249 . S
Mg476 O477 2.028 . S
Mg476 O483 1.986 . S
Mg476 O485 2.114 . S
Mg476 O486 2.251 . S
Mg476 O489 2.010 . S
O477 Mg476 2.028 . S
O477 C480 1.250 . S
O478 Mg479 2.028 . S
O478 C480 1.248 . S
Mg479 O478 2.028 . S
Mg479 O484 2.032 . S
Mg479 O486 2.079 . S
C480 O477 1.250 . S
C480 O478 1.248 . S
C481 O482 1.264 . S
C481 O489 1.249 . S
O482 C481 1.264 . S
O483 Mg476 1.986 . S
O483 C487 1.246 . S
O484 Mg479 2.032 . S
O484 C487 1.259 . S
O485 Mg476 2.114 . S
O485 C488 1.252 . S
O486 Mg476 2.251 . S
O486 Mg479 2.079 . S
O486 C488 1.273 . S
C487 O483 1.246 . S
C487 O484 1.259 . S
C488 O485 1.252 . S
C488 O486 1.273 . S
O489 Mg476 2.010 . S
O489 C481 1.249 . S
Mg490 O491 2.028 . S
Mg490 O497 1.986 . S
Mg490 O499 2.114 . S
Mg490 O500 2.251 . S
Mg490 O503 2.010 . S
O491 Mg490 2.028 . S
O491 C494 1.250 . S
O492 Mg493 2.028 . S
O492 C494 1.248 . S
Mg493 O492 2.028 . S
Mg493 O498 2.032 . S
Mg493 O500 2.079 . S
C494 O491 1.250 . S
C494 O492 1.248 . S
C495 O496 1.264 . S
C495 O503 1.249 . S
O496 C495 1.264 . S
O497 Mg490 1.986 . S
O497 C501 1.246 . S
O498 Mg493 2.032 . S
O498 C501 1.259 . S
O499 Mg490 2.114 . S
O499 C502 1.252 . S
O500 Mg490 2.251 . S
O500 Mg493 2.079 . S
O500 C502 1.273 . S
C501 O497 1.246 . S
C501 O498 1.259 . S
C502 O499 1.252 . S
C502 O500 1.273 . S
O503 Mg490 2.010 . S
O503 C495 1.249 . S
H504 C516 0.930 . S
H505 C518 0.930 . S
H506 C519 0.930 . S
H507 C523 0.959 . S
H508 C523 0.959 . S
H509 C523 0.961 . S
H510 C524 0.960 . S
H511 C524 0.961 . S
H512 C524 0.959 . S
H513 C527 0.929 . S
H514 C528 0.931 . S
H515 C530 0.930 . S
C516 H504 0.930 . S
C516 C517 1.399 . S
C516 C521 1.399 . S
C517 C516 1.399 . S
C517 C518 1.376 . S
C518 H505 0.930 . S
C518 C517 1.376 . S
C518 C519 1.388 . S
C519 H506 0.930 . S
C519 C518 1.388 . S
C519 C520 1.390 . S
C520 C519 1.390 . S
C520 C521 1.394 . S
C520 C526 1.444 1_565 S
C521 C516 1.399 . S
C521 C520 1.394 . S
C521 C522 1.516 1_565 S
C522 C521 1.516 1_545 S
C522 C523 1.502 . S
C522 C524 1.561 . S
C522 C525 1.526 . S
C523 H507 0.959 . S
C523 H508 0.959 . S
C523 H509 0.961 . S
C523 C522 1.502 . S
C524 H510 0.960 . S
C524 H511 0.961 . S
C524 H512 0.959 . S
C524 C522 1.561 . S
C525 C522 1.526 . S
C525 C526 1.441 . S
C525 C530 1.390 . S
C526 C520 1.444 1_545 S
C526 C525 1.441 . S
C526 C527 1.383 1_545 S
C527 H513 0.929 . S
C527 C526 1.383 1_565 S
C527 C528 1.385 1_565 S
C528 H514 0.931 . S
C528 C527 1.385 1_545 S
C528 C529 1.389 . S
C529 C528 1.389 . S
C529 C530 1.387 . S
C530 H515 0.930 . S
C530 C525 1.390 . S
C530 C529 1.387 . S
H531 C543 0.930 . S
H532 C545 0.930 . S
H533 C546 0.930 . S
H534 C550 0.977 . S
H535 C550 0.971 . S
H536 C550 0.954 1_455 S
H537 C551 0.960 . S
H538 C551 0.961 . S
H539 C551 0.959 . S
H540 C554 0.929 . S
H541 C555 0.931 . S
H542 C557 0.930 . S
C543 H531 0.930 . S
C543 C544 1.399 . S
C543 C548 1.399 . S
C544 C543 1.399 . S
C544 C545 1.376 . S
C545 H532 0.930 . S
C545 C544 1.376 . S
C545 C546 1.388 . S
C546 H533 0.930 . S
C546 C545 1.388 . S
C546 C547 1.390 . S
C547 C546 1.390 . S
C547 C548 1.394 . S
C547 C553 1.465 1_455 S
C548 C543 1.399 . S
C548 C547 1.394 . S
C548 C549 1.516 . S
C549 C548 1.516 . S
C549 C550 1.481 1_455 S
C549 C551 1.561 . S
C549 C552 1.526 1_455 S
C550 H534 0.977 . S
C550 H535 0.971 . S
C550 H536 0.954 1_655 S
C550 C549 1.481 1_655 S
C551 H537 0.960 . S
C551 H538 0.961 . S
C551 H539 0.959 . S
C551 C549 1.561 . S
C552 C549 1.526 1_655 S
C552 C553 1.396 . S
C552 C557 1.390 . S
C553 C547 1.465 1_655 S
C553 C552 1.396 . S
C553 C554 1.399 . S
C554 H540 0.929 . S
C554 C553 1.399 . S
C554 C555 1.385 . S
C555 H541 0.931 . S
C555 C554 1.385 . S
C555 C556 1.389 . S
C556 C555 1.389 . S
C556 C557 1.387 . S
C557 H542 0.930 . S
C557 C552 1.390 . S
C557 C556 1.387 . S
H558 C570 0.930 . S
H559 C572 0.930 . S
H560 C573 0.930 . S
H561 C577 0.959 . S
H562 C577 0.959 . S
H563 C577 0.961 . S
H564 C578 0.960 . S
H565 C578 0.961 . S
H566 C578 0.959 . S
H567 C581 0.929 . S
H568 C582 0.931 . S
H569 C584 0.930 . S
C570 H558 0.930 . S
C570 C571 1.399 . S
C570 C575 1.399 . S
C571 C570 1.399 . S
C571 C572 1.376 . S
C572 H559 0.930 . S
C572 C571 1.376 . S
C572 C573 1.388 . S
C573 H560 0.930 . S
C573 C572 1.388 . S
C573 C574 1.390 . S
C574 C573 1.390 . S
C574 C575 1.394 . S
C574 C580 1.465 . S
C575 C570 1.399 . S
C575 C574 1.394 . S
C575 C576 1.516 . S
C576 C575 1.516 . S
C576 C577 1.502 . S
C576 C578 1.561 . S
C576 C579 1.526 . S
C577 H561 0.959 . S
C577 H562 0.959 . S
C577 H563 0.961 . S
C577 C576 1.502 . S
C578 H564 0.960 . S
C578 H565 0.961 . S
C578 H566 0.959 . S
C578 C576 1.561 . S
C579 C576 1.526 . S
C579 C580 1.396 . S
C579 C584 1.390 . S
C580 C574 1.465 . S
C580 C579 1.396 . S
C580 C581 1.399 . S
C581 H567 0.929 . S
C581 C580 1.399 . S
C581 C582 1.385 . S
C582 H568 0.931 . S
C582 C581 1.385 . S
C582 C583 1.389 . S
C583 C582 1.389 . S
C583 C584 1.387 . S
C584 H569 0.930 . S
C584 C579 1.390 . S
C584 C583 1.387 . S
H585 C597 0.930 . S
H586 C599 0.930 . S
H587 C600 0.930 . S
H588 C604 0.959 . S
H589 C604 0.959 . S
H590 C604 0.961 . S
H591 C605 0.960 . S
H592 C605 0.961 . S
H593 C605 0.959 1_565 S
H594 C608 0.929 . S
H595 C609 0.931 . S
H596 C611 0.930 . S
C597 H585 0.930 . S
C597 C598 1.399 . S
C597 C602 1.399 . S
C598 C597 1.399 . S
C598 C599 1.376 . S
C599 H586 0.930 . S
C599 C598 1.376 . S
C599 C600 1.388 . S
C600 H587 0.930 . S
C600 C599 1.388 . S
C600 C601 1.390 . S
C601 C600 1.390 . S
C601 C602 1.394 . S
C601 C607 1.465 . S
C602 C597 1.399 . S
C602 C601 1.394 . S
C602 C603 1.516 1_565 S
C603 C602 1.516 1_545 S
C603 C604 1.502 . S
C603 C605 1.561 . S
C603 C606 1.526 . S
C604 H588 0.959 . S
C604 H589 0.959 . S
C604 H590 0.961 . S
C604 C603 1.502 . S
C605 H591 0.960 . S
C605 H592 0.961 . S
C605 H593 0.959 1_545 S
C605 C603 1.561 . S
C606 C603 1.526 . S
C606 C607 1.396 1_545 S
C606 C611 1.390 . S
C607 C601 1.465 . S
C607 C606 1.396 1_565 S
C607 C608 1.399 . S
C608 H594 0.929 . S
C608 C607 1.399 . S
C608 C609 1.385 1_565 S
C609 H595 0.931 . S
C609 C608 1.385 1_545 S
C609 C610 1.389 . S
C610 C609 1.389 . S
C610 C611 1.387 . S
C611 H596 0.930 . S
C611 C606 1.390 . S
C611 C610 1.387 . S
H612 C624 0.930 . S
H613 C626 0.930 . S
H614 C627 0.930 . S
H615 C631 0.959 . S
H616 C631 0.959 . S
H617 C631 0.961 . S
H618 C632 0.960 . S
H619 C632 0.961 . S
H620 C632 0.959 . S
H621 C635 0.929 . S
H622 C636 0.931 . S
H623 C638 0.930 . S
C624 H612 0.930 . S
C624 C625 1.399 . S
C624 C629 1.399 . S
C625 C624 1.399 . S
C625 C626 1.376 . S
C626 H613 0.930 . S
C626 C625 1.376 . S
C626 C627 1.388 . S
C627 H614 0.930 . S
C627 C626 1.388 . S
C627 C628 1.390 . S
C628 C627 1.390 . S
C628 C629 1.394 . S
C628 C634 1.485 . S
C629 C624 1.399 . S
C629 C628 1.394 . S
C629 C630 1.516 1_455 S
C630 C629 1.516 1_655 S
C630 C631 1.502 . S
C630 C632 1.561 . S
C630 C633 1.526 . S
C631 H615 0.959 . S
C631 H616 0.959 . S
C631 H617 0.961 . S
C631 C630 1.502 . S
C632 H618 0.960 . S
C632 H619 0.961 . S
C632 H620 0.959 . S
C632 C630 1.561 . S
C633 C630 1.526 . S
C633 C634 1.375 1_655 S
C633 C638 1.390 . S
C634 C628 1.485 . S
C634 C633 1.375 1_455 S
C634 C635 1.399 . S
C635 H621 0.929 . S
C635 C634 1.399 . S
C635 C636 1.385 1_455 S
C636 H622 0.931 . S
C636 C635 1.385 1_655 S
C636 C637 1.389 . S
C637 C636 1.389 . S
C637 C638 1.387 . S
C638 H623 0.930 . S
C638 C633 1.390 . S
C638 C637 1.387 . S
H639 C651 0.930 . S
H640 C653 0.930 . S
H641 C654 0.930 . S
H642 C658 0.959 . S
H643 C658 0.959 . S
H644 C658 0.961 . S
H645 C659 0.960 . S
H646 C659 0.961 . S
H647 C659 0.959 . S
H648 C662 0.929 . S
H649 C663 0.931 . S
H650 C665 0.930 . S
C651 H639 0.930 . S
C651 C652 1.399 . S
C651 C656 1.399 . S
C652 C651 1.399 . S
C652 C653 1.376 . S
C653 H640 0.930 . S
C653 C652 1.376 . S
C653 C654 1.388 . S
C654 H641 0.930 . S
C654 C653 1.388 . S
C654 C655 1.390 . S
C655 C654 1.390 . S
C655 C656 1.394 . S
C655 C661 1.465 . S
C656 C651 1.399 . S
C656 C655 1.394 . S
C656 C657 1.516 . S
C657 C656 1.516 . S
C657 C658 1.502 . S
C657 C659 1.561 . S
C657 C660 1.526 . S
C658 H642 0.959 . S
C658 H643 0.959 . S
C658 H644 0.961 . S
C658 C657 1.502 . S
C659 H645 0.960 . S
C659 H646 0.961 . S
C659 H647 0.959 . S
C659 C657 1.561 . S
C660 C657 1.526 . S
C660 C661 1.396 . S
C660 C665 1.390 . S
C661 C655 1.465 . S
C661 C660 1.396 . S
C661 C662 1.399 . S
C662 H648 0.929 . S
C662 C661 1.399 . S
C662 C663 1.385 . S
C663 H649 0.931 . S
C663 C662 1.385 . S
C663 C664 1.389 . S
C664 C663 1.389 . S
C664 C665 1.387 . S
C665 H650 0.930 . S
C665 C660 1.390 . S
C665 C664 1.387 . S
H666 C678 0.930 . S
H667 C680 0.930 . S
H668 C681 0.930 . S
H669 C685 0.959 . S
H670 C685 0.959 . S
H671 C685 0.961 . S
H672 C686 0.960 . S
H673 C686 0.961 . S
H674 C686 0.959 . S
H675 C689 0.929 . S
H676 C690 0.931 . S
H677 C692 0.930 . S
C678 H666 0.930 . S
C678 C679 1.399 . S
C678 C683 1.399 . S
C679 C678 1.399 . S
C679 C680 1.376 . S
C680 H667 0.930 . S
C680 C679 1.376 . S
C680 C681 1.388 . S
C681 H668 0.930 . S
C681 C680 1.388 . S
C681 C682 1.390 . S
C682 C681 1.390 . S
C682 C683 1.394 . S
C682 C688 1.465 . S
C683 C678 1.399 . S
C683 C682 1.394 . S
C683 C684 1.516 . S
C684 C683 1.516 . S
C684 C685 1.502 . S
C684 C686 1.561 . S
C684 C687 1.526 . S
C685 H669 0.959 . S
C685 H670 0.959 . S
C685 H671 0.961 . S
C685 C684 1.502 . S
C686 H672 0.960 . S
C686 H673 0.961 . S
C686 H674 0.959 . S
C686 C684 1.561 . S
C687 C684 1.526 . S
C687 C688 1.396 . S
C687 C692 1.390 . S
C688 C682 1.465 . S
C688 C687 1.396 . S
C688 C689 1.399 . S
C689 H675 0.929 . S
C689 C688 1.399 . S
C689 C690 1.385 . S
C690 H676 0.931 . S
C690 C689 1.385 . S
C690 C691 1.389 . S
C691 C690 1.389 . S
C691 C692 1.387 . S
C692 H677 0.930 . S
C692 C687 1.390 . S
C692 C691 1.387 . S
H693 C705 0.930 . S
H694 C707 0.930 . S
H695 C708 0.930 . S
H696 C712 0.959 . S
H697 C712 0.959 . S
H698 C712 0.961 . S
H699 C713 0.960 . S
H700 C713 0.961 . S
H701 C713 0.959 . S
H702 C716 0.929 . S
H703 C717 0.931 . S
H704 C719 0.930 . S
C705 H693 0.930 . S
C705 C706 1.399 . S
C705 C710 1.399 . S
C706 C705 1.399 . S
C706 C707 1.376 . S
C707 H694 0.930 . S
C707 C706 1.376 . S
C707 C708 1.388 . S
C708 H695 0.930 . S
C708 C707 1.388 . S
C708 C709 1.390 . S
C709 C708 1.390 . S
C709 C710 1.394 . S
C709 C715 1.465 . S
C710 C705 1.399 . S
C710 C709 1.394 . S
C710 C711 1.516 . S
C711 C710 1.516 . S
C711 C712 1.502 . S
C711 C713 1.561 . S
C711 C714 1.526 . S
C712 H696 0.959 . S
C712 H697 0.959 . S
C712 H698 0.961 . S
C712 C711 1.502 . S
C713 H699 0.960 . S
C713 H700 0.961 . S
C713 H701 0.959 . S
C713 C711 1.561 . S
C714 C711 1.526 . S
C714 C715 1.396 . S
C714 C719 1.390 . S
C715 C709 1.465 . S
C715 C714 1.396 . S
C715 C716 1.399 . S
C716 H702 0.929 . S
C716 C715 1.399 . S
C716 C717 1.385 . S
C717 H703 0.931 . S
C717 C716 1.385 . S
C717 C718 1.389 . S
C718 C717 1.389 . S
C718 C719 1.387 . S
C719 H704 0.930 . S
C719 C714 1.390 . S
C719 C718 1.387 . S
H720 C732 0.930 . S
H721 C734 0.930 . S
H722 C735 0.930 . S
H723 C739 0.959 . S
H724 C739 0.959 . S
H725 C739 0.961 . S
H726 C740 0.960 . S
H727 C740 0.961 . S
H728 C740 0.959 . S
H729 C743 0.929 . S
H730 C744 0.931 . S
H731 C746 0.930 . S
C732 H720 0.930 . S
C732 C733 1.399 . S
C732 C737 1.399 . S
C733 C732 1.399 . S
C733 C734 1.376 . S
C734 H721 0.930 . S
C734 C733 1.376 . S
C734 C735 1.388 . S
C735 H722 0.930 . S
C735 C734 1.388 . S
C735 C736 1.390 . S
C736 C735 1.390 . S
C736 C737 1.394 . S
C736 C742 1.465 . S
C737 C732 1.399 . S
C737 C736 1.394 . S
C737 C738 1.516 . S
C738 C737 1.516 . S
C738 C739 1.502 . S
C738 C740 1.561 . S
C738 C741 1.526 . S
C739 H723 0.959 . S
C739 H724 0.959 . S
C739 H725 0.961 . S
C739 C738 1.502 . S
C740 H726 0.960 . S
C740 H727 0.961 . S
C740 H728 0.959 . S
C740 C738 1.561 . S
C741 C738 1.526 . S
C741 C742 1.396 . S
C741 C746 1.390 . S
C742 C736 1.465 . S
C742 C741 1.396 . S
C742 C743 1.399 . S
C743 H729 0.929 . S
C743 C742 1.399 . S
C743 C744 1.385 . S
C744 H730 0.931 . S
C744 C743 1.385 . S
C744 C745 1.389 . S
C745 C744 1.389 . S
C745 C746 1.387 . S
C746 H731 0.930 . S
C746 C741 1.390 . S
C746 C745 1.387 . S
H747 C759 0.930 . S
H748 C761 0.930 . S
H749 C762 0.930 . S
H750 C766 0.959 . S
H751 C766 0.959 . S
H752 C766 0.961 . S
H753 C767 0.960 . S
H754 C767 0.961 . S
H755 C767 0.959 . S
H756 C770 0.929 . S
H757 C771 0.931 . S
H758 C773 0.930 . S
C759 H747 0.930 . S
C759 C760 1.399 . S
C759 C764 1.399 . S
C760 C759 1.399 . S
C760 C761 1.376 . S
C761 H748 0.930 . S
C761 C760 1.376 . S
C761 C762 1.388 . S
C762 H749 0.930 . S
C762 C761 1.388 . S
C762 C763 1.390 . S
C763 C762 1.390 . S
C763 C764 1.394 . S
C763 C769 1.465 . S
C764 C759 1.399 . S
C764 C763 1.394 . S
C764 C765 1.516 . S
C765 C764 1.516 . S
C765 C766 1.502 . S
C765 C767 1.561 . S
C765 C768 1.526 . S
C766 H750 0.959 . S
C766 H751 0.959 . S
C766 H752 0.961 . S
C766 C765 1.502 . S
C767 H753 0.960 . S
C767 H754 0.961 . S
C767 H755 0.959 . S
C767 C765 1.561 . S
C768 C765 1.526 . S
C768 C769 1.396 . S
C768 C773 1.390 . S
C769 C763 1.465 . S
C769 C768 1.396 . S
C769 C770 1.399 . S
C770 H756 0.929 . S
C770 C769 1.399 . S
C770 C771 1.385 . S
C771 H757 0.931 . S
C771 C770 1.385 . S
C771 C772 1.389 . S
C772 C771 1.389 . S
C772 C773 1.387 . S
C773 H758 0.930 . S
C773 C768 1.390 . S
C773 C772 1.387 . S
H774 C786 0.930 . S
H775 C788 0.930 . S
H776 C789 0.930 . S
H777 C793 0.959 . S
H778 C793 0.959 . S
H779 C793 0.961 . S
H780 C794 0.960 . S
H781 C794 0.961 . S
H782 C794 0.959 . S
H783 C797 0.929 . S
H784 C798 0.931 . S
H785 C800 0.930 . S
C786 H774 0.930 . S
C786 C787 1.399 . S
C786 C791 1.399 . S
C787 C786 1.399 . S
C787 C788 1.376 . S
C788 H775 0.930 . S
C788 C787 1.376 . S
C788 C789 1.388 . S
C789 H776 0.930 . S
C789 C788 1.388 . S
C789 C790 1.390 . S
C790 C789 1.390 . S
C790 C791 1.394 . S
C790 C796 1.465 . S
C791 C786 1.399 . S
C791 C790 1.394 . S
C791 C792 1.516 . S
C792 C791 1.516 . S
C792 C793 1.502 . S
C792 C794 1.561 . S
C792 C795 1.526 . S
C793 H777 0.959 . S
C793 H778 0.959 . S
C793 H779 0.961 . S
C793 C792 1.502 . S
C794 H780 0.960 . S
C794 H781 0.961 . S
C794 H782 0.959 . S
C794 C792 1.561 . S
C795 C792 1.526 . S
C795 C796 1.396 . S
C795 C800 1.390 . S
C796 C790 1.465 . S
C796 C795 1.396 . S
C796 C797 1.399 . S
C797 H783 0.929 . S
C797 C796 1.399 . S
C797 C798 1.385 . S
C798 H784 0.931 . S
C798 C797 1.385 . S
C798 C799 1.389 . S
C799 C798 1.389 . S
C799 C800 1.387 . S
C800 H785 0.930 . S
C800 C795 1.390 . S
C800 C799 1.387 . S
H801 C813 0.930 . S
H802 C815 0.930 . S
H803 C816 0.930 . S
H804 C820 0.959 . S
H805 C820 0.959 . S
H806 C820 0.961 . S
H807 C821 0.960 . S
H808 C821 0.961 . S
H809 C821 0.959 . S
H810 C824 0.929 . S
H811 C825 0.924 1_554 S
H812 C827 0.930 . S
C813 H801 0.930 . S
C813 C814 1.399 . S
C813 C818 1.399 . S
C814 C813 1.399 . S
C814 C815 1.376 . S
C815 H802 0.930 . S
C815 C814 1.376 . S
C815 C816 1.388 . S
C816 H803 0.930 . S
C816 C815 1.388 . S
C816 C817 1.390 . S
C817 C816 1.390 . S
C817 C818 1.394 . S
C817 C823 1.465 . S
C818 C813 1.399 . S
C818 C817 1.394 . S
C818 C819 1.516 . S
C819 C818 1.516 . S
C819 C820 1.502 . S
C819 C821 1.561 . S
C819 C822 1.526 . S
C820 H804 0.959 . S
C820 H805 0.959 . S
C820 H806 0.961 . S
C820 C819 1.502 . S
C821 H807 0.960 . S
C821 H808 0.961 . S
C821 H809 0.959 . S
C821 C819 1.561 . S
C822 C819 1.526 . S
C822 C823 1.396 . S
C822 C827 1.390 . S
C823 C817 1.465 . S
C823 C822 1.396 . S
C823 C824 1.399 . S
C824 H810 0.929 . S
C824 C823 1.399 . S
C824 C825 1.385 . S
C825 H811 0.924 1_556 S
C825 C824 1.385 . S
C825 C826 1.389 . S
C826 C825 1.389 . S
C826 C827 1.387 . S
C827 H812 0.930 . S
C827 C822 1.390 . S
C827 C826 1.387 . S
H828 C840 0.930 . S
H829 C842 0.930 . S
H830 C843 0.930 . S
H831 C847 0.959 . S
H832 C847 0.959 . S
H833 C847 0.961 . S
H834 C848 0.960 . S
H835 C848 0.961 . S
H836 C848 0.959 . S
H837 C851 0.929 . S
H838 C852 0.931 1_556 S
H839 C854 0.930 . S
C840 H828 0.930 . S
C840 C841 1.399 . S
C840 C845 1.399 . S
C841 C840 1.399 . S
C841 C842 1.376 . S
C842 H829 0.930 . S
C842 C841 1.376 . S
C842 C843 1.388 . S
C843 H830 0.930 . S
C843 C842 1.388 . S
C843 C844 1.390 . S
C844 C843 1.390 . S
C844 C845 1.394 . S
C844 C850 1.465 . S
C845 C840 1.399 . S
C845 C844 1.394 . S
C845 C846 1.516 . S
C846 C845 1.516 . S
C846 C847 1.502 . S
C846 C848 1.561 . S
C846 C849 1.526 . S
C847 H831 0.959 . S
C847 H832 0.959 . S
C847 H833 0.961 . S
C847 C846 1.502 . S
C848 H834 0.960 . S
C848 H835 0.961 . S
C848 H836 0.959 . S
C848 C846 1.561 . S
C849 C846 1.526 . S
C849 C850 1.396 . S
C849 C854 1.390 . S
C850 C844 1.465 . S
C850 C849 1.396 . S
C850 C851 1.399 . S
C851 H837 0.929 . S
C851 C850 1.399 . S
C851 C852 1.385 . S
C852 H838 0.931 1_554 S
C852 C851 1.385 . S
C852 C853 1.389 . S
C853 C852 1.389 . S
C853 C854 1.387 . S
C854 H839 0.930 . S
C854 C849 1.390 . S
C854 C853 1.387 . S
H855 C867 0.930 . S
H856 C869 0.930 . S
H857 C870 0.930 . S
H858 C874 0.959 . S
H859 C874 0.959 . S
H860 C874 0.961 . S
H861 C875 0.960 . S
H862 C875 0.961 . S
H863 C875 0.959 . S
H864 C878 0.929 . S
H865 C879 0.931 1_556 S
H866 C881 0.930 . S
C867 H855 0.930 . S
C867 C868 1.399 . S
C867 C872 1.399 . S
C868 C867 1.399 . S
C868 C869 1.376 . S
C869 H856 0.930 . S
C869 C868 1.376 . S
C869 C870 1.388 . S
C870 H857 0.930 . S
C870 C869 1.388 . S
C870 C871 1.390 . S
C871 C870 1.390 . S
C871 C872 1.394 . S
C871 C877 1.465 . S
C872 C867 1.399 . S
C872 C871 1.394 . S
C872 C873 1.516 . S
C873 C872 1.516 . S
C873 C874 1.502 . S
C873 C875 1.561 . S
C873 C876 1.526 . S
C874 H858 0.959 . S
C874 H859 0.959 . S
C874 H860 0.961 . S
C874 C873 1.502 . S
C875 H861 0.960 . S
C875 H862 0.961 . S
C875 H863 0.959 . S
C875 C873 1.561 . S
C876 C873 1.526 . S
C876 C877 1.396 . S
C876 C881 1.390 . S
C877 C871 1.465 . S
C877 C876 1.396 . S
C877 C878 1.399 . S
C878 H864 0.929 . S
C878 C877 1.399 . S
C878 C879 1.385 . S
C879 H865 0.931 1_554 S
C879 C878 1.385 . S
C879 C880 1.389 . S
C880 C879 1.389 . S
C880 C881 1.387 . S
C881 H866 0.930 . S
C881 C876 1.390 . S
C881 C880 1.387 . S
H882 C894 0.930 . S
H883 C896 0.930 . S
H884 C897 0.930 . S
H885 C901 0.959 . S
H886 C901 0.959 . S
H887 C901 0.961 . S
H888 C902 0.960 . S
H889 C902 0.961 . S
H890 C902 0.959 . S
H891 C905 0.929 . S
H892 C906 0.931 . S
H893 C908 0.930 . S
C894 H882 0.930 . S
C894 C895 1.399 . S
C894 C899 1.399 . S
C895 C894 1.399 . S
C895 C896 1.376 . S
C896 H883 0.930 . S
C896 C895 1.376 . S
C896 C897 1.388 . S
C897 H884 0.930 . S
C897 C896 1.388 . S
C897 C898 1.390 . S
C898 C897 1.390 . S
C898 C899 1.394 . S
C898 C904 1.465 . S
C899 C894 1.399 . S
C899 C898 1.394 . S
C899 C900 1.516 . S
C900 C899 1.516 . S
C900 C901 1.502 . S
C900 C902 1.561 . S
C900 C903 1.526 . S
C901 H885 0.959 . S
C901 H886 0.959 . S
C901 H887 0.961 . S
C901 C900 1.502 . S
C902 H888 0.960 . S
C902 H889 0.961 . S
C902 H890 0.959 . S
C902 C900 1.561 . S
C903 C900 1.526 . S
C903 C904 1.396 . S
C903 C908 1.390 . S
C904 C898 1.465 . S
C904 C903 1.396 . S
C904 C905 1.399 . S
C905 H891 0.929 . S
C905 C904 1.399 . S
C905 C906 1.385 . S
C906 H892 0.931 . S
C906 C905 1.385 . S
C906 C907 1.389 . S
C907 C906 1.389 . S
C907 C908 1.387 . S
C908 H893 0.930 . S
C908 C903 1.390 . S
C908 C907 1.387 . S
H909 C921 0.930 . S
H910 C923 0.930 . S
H911 C924 0.930 . S
H912 C928 0.959 . S
H913 C928 0.959 . S
H914 C928 0.961 . S
H915 C929 0.960 . S
H916 C929 0.961 . S
H917 C929 0.959 . S
H918 C932 0.929 . S
H919 C933 0.931 . S
H920 C935 0.930 . S
C921 H909 0.930 . S
C921 C922 1.399 . S
C921 C926 1.399 . S
C922 C921 1.399 . S
C922 C923 1.376 . S
C923 H910 0.930 . S
C923 C922 1.376 . S
C923 C924 1.388 . S
C924 H911 0.930 . S
C924 C923 1.388 . S
C924 C925 1.390 . S
C925 C924 1.390 . S
C925 C926 1.394 . S
C925 C931 1.465 . S
C926 C921 1.399 . S
C926 C925 1.394 . S
C926 C927 1.516 . S
C927 C926 1.516 . S
C927 C928 1.502 . S
C927 C929 1.561 . S
C927 C930 1.526 . S
C928 H912 0.959 . S
C928 H913 0.959 . S
C928 H914 0.961 . S
C928 C927 1.502 . S
C929 H915 0.960 . S
C929 H916 0.961 . S
C929 H917 0.959 . S
C929 C927 1.561 . S
C930 C927 1.526 . S
C930 C931 1.396 . S
C930 C935 1.390 . S
C931 C925 1.465 . S
C931 C930 1.396 . S
C931 C932 1.399 . S
C932 H918 0.929 . S
C932 C931 1.399 . S
C932 C933 1.385 . S
C933 H919 0.931 . S
C933 C932 1.385 . S
C933 C934 1.389 . S
C934 C933 1.389 . S
C934 C935 1.387 . S
C935 H920 0.930 . S
C935 C930 1.390 . S
C935 C934 1.387 . S
H936 C948 0.930 . S
H937 C950 0.930 . S
H938 C951 0.930 . S
H939 C955 0.959 . S
H940 C955 0.959 . S
H941 C955 0.961 . S
H942 C956 0.960 . S
H943 C956 0.961 . S
H944 C956 0.959 . S
H945 C959 0.929 . S
H946 C960 0.931 . S
H947 C962 0.930 . S
C948 H936 0.930 . S
C948 C949 1.399 . S
C948 C953 1.399 . S
C949 C948 1.399 . S
C949 C950 1.376 . S
C950 H937 0.930 . S
C950 C949 1.376 . S
C950 C951 1.388 . S
C951 H938 0.930 . S
C951 C950 1.388 . S
C951 C952 1.390 . S
C952 C951 1.390 . S
C952 C953 1.394 . S
C952 C958 1.465 . S
C953 C948 1.399 . S
C953 C952 1.394 . S
C953 C954 1.516 . S
C954 C953 1.516 . S
C954 C955 1.502 . S
C954 C956 1.561 . S
C954 C957 1.526 . S
C955 H939 0.959 . S
C955 H940 0.959 . S
C955 H941 0.961 . S
C955 C954 1.502 . S
C956 H942 0.960 . S
C956 H943 0.961 . S
C956 H944 0.959 . S
C956 C954 1.561 . S
C957 C954 1.526 . S
C957 C958 1.396 . S
C957 C962 1.390 . S
C958 C952 1.465 . S
C958 C957 1.396 . S
C958 C959 1.399 . S
C959 H945 0.929 . S
C959 C958 1.399 . S
C959 C960 1.385 . S
C960 H946 0.931 . S
C960 C959 1.385 . S
C960 C961 1.389 . S
C961 C960 1.389 . S
C961 C962 1.387 . S
C962 H947 0.930 . S
C962 C957 1.390 . S
C962 C961 1.387 . S
H963 C975 0.930 . S
H964 C977 0.930 . S
H965 C978 0.930 . S
H966 C982 0.959 . S
H967 C982 0.959 . S
H968 C982 0.961 . S
H969 C983 0.960 . S
H970 C983 0.961 . S
H971 C983 0.959 . S
H972 C986 0.929 . S
H973 C987 0.931 . S
H974 C989 0.930 . S
C975 H963 0.930 . S
C975 C976 1.399 . S
C975 C980 1.399 . S
C976 C975 1.399 . S
C976 C977 1.376 . S
C977 H964 0.930 . S
C977 C976 1.376 . S
C977 C978 1.388 . S
C978 H965 0.930 . S
C978 C977 1.388 . S
C978 C979 1.390 . S
C979 C978 1.390 . S
C979 C980 1.394 . S
C979 C985 1.465 . S
C980 C975 1.399 . S
C980 C979 1.394 . S
C980 C981 1.516 . S
C981 C980 1.516 . S
C981 C982 1.502 . S
C981 C983 1.561 . S
C981 C984 1.526 . S
C982 H966 0.959 . S
C982 H967 0.959 . S
C982 H968 0.961 . S
C982 C981 1.502 . S
C983 H969 0.960 . S
C983 H970 0.961 . S
C983 H971 0.959 . S
C983 C981 1.561 . S
C984 C981 1.526 . S
C984 C985 1.396 . S
C984 C989 1.390 . S
C985 C979 1.465 . S
C985 C984 1.396 . S
C985 C986 1.399 . S
C986 H972 0.929 . S
C986 C985 1.399 . S
C986 C987 1.385 . S
C987 H973 0.931 . S
C987 C986 1.385 . S
C987 C988 1.389 . S
C988 C987 1.389 . S
C988 C989 1.387 . S
C989 H974 0.930 . S
C989 C984 1.390 . S
C989 C988 1.387 . S
H990 C1002 0.930 . S
H991 C1004 0.930 . S
H992 C1005 0.930 1_554 S
H993 C1009 0.959 . S
H994 C1009 0.959 . S
H995 C1009 0.961 . S
H996 C1010 0.960 . S
H997 C1010 0.961 . S
H998 C1010 0.959 . S
H999 C1013 0.929 . S
H1000 C1014 0.931 . S
H1001 C1016 0.930 . S
C1002 H990 0.930 . S
C1002 C1003 1.399 . S
C1002 C1007 1.399 . S
C1003 C1002 1.399 . S
C1003 C1004 1.376 . S
C1004 H991 0.930 . S
C1004 C1003 1.376 . S
C1004 C1005 1.388 . S
C1005 H992 0.930 1_556 S
C1005 C1004 1.388 . S
C1005 C1006 1.390 . S
C1006 C1005 1.390 . S
C1006 C1007 1.394 . S
C1006 C1012 1.509 1_556 S
C1007 C1002 1.399 . S
C1007 C1006 1.394 . S
C1007 C1008 1.516 1_565 S
C1008 C1007 1.516 1_545 S
C1008 C1009 1.502 . S
C1008 C1010 1.561 . S
C1008 C1011 1.526 1_556 S
C1009 H993 0.959 . S
C1009 H994 0.959 . S
C1009 H995 0.961 . S
C1009 C1008 1.502 . S
C1010 H996 0.960 . S
C1010 H997 0.961 . S
C1010 H998 0.959 . S
C1010 C1008 1.561 . S
C1011 C1008 1.526 1_554 S
C1011 C1012 1.342 1_545 S
C1011 C1016 1.390 . S
C1012 C1006 1.509 1_554 S
C1012 C1011 1.342 1_565 S
C1012 C1013 1.408 . S
C1013 H999 0.929 . S
C1013 C1012 1.408 . S
C1013 C1014 1.385 1_565 S
C1014 H1000 0.931 . S
C1014 C1013 1.385 1_545 S
C1014 C1015 1.389 . S
C1015 C1014 1.389 . S
C1015 C1016 1.387 . S
C1016 H1001 0.930 . S
C1016 C1011 1.390 . S
C1016 C1015 1.387 . S
H1017 C1029 0.930 . S
H1018 C1031 0.930 . S
H1019 C1032 0.968 . S
H1020 C1036 0.959 . S
H1021 C1036 0.959 . S
H1022 C1036 0.961 . S
H1023 C1037 0.960 . S
H1024 C1037 0.961 . S
H1025 C1037 0.959 . S
H1026 C1040 0.929 1_554 S
H1027 C1041 0.931 . S
H1028 C1043 0.930 . S
C1029 H1017 0.930 . S
C1029 C1030 1.399 . S
C1029 C1034 1.399 . S
C1030 C1029 1.399 . S
C1030 C1031 1.376 . S
C1031 H1018 0.930 . S
C1031 C1030 1.376 . S
C1031 C1032 1.343 1_655 S
C1032 H1019 0.968 . S
C1032 C1031 1.343 1_455 S
C1032 C1033 1.418 1_455 S
C1033 C1032 1.418 1_655 S
C1033 C1034 1.417 . S
C1033 C1039 1.436 1_654 S
C1034 C1029 1.399 . S
C1034 C1033 1.417 . S
C1034 C1035 1.516 1_554 S
C1035 C1034 1.516 1_556 S
C1035 C1036 1.502 . S
C1035 C1037 1.561 . S
C1035 C1038 1.526 1_655 S
C1036 H1020 0.959 . S
C1036 H1021 0.959 . S
C1036 H1022 0.961 . S
C1036 C1035 1.502 . S
C1037 H1023 0.960 . S
C1037 H1024 0.961 . S
C1037 H1025 0.959 . S
C1037 C1035 1.561 . S
C1038 C1035 1.526 1_455 S
C1038 C1039 1.396 . S
C1038 C1043 1.390 . S
C1039 C1033 1.436 1_456 S
C1039 C1038 1.396 . S
C1039 C1040 1.399 . S
C1040 H1026 0.929 1_556 S
C1040 C1039 1.399 . S
C1040 C1041 1.385 . S
C1041 H1027 0.931 . S
C1041 C1040 1.385 . S
C1041 C1042 1.389 . S
C1042 C1041 1.389 . S
C1042 C1043 1.387 . S
C1043 H1028 0.930 . S
C1043 C1038 1.390 . S
C1043 C1042 1.387 . S
H1044 C1056 0.930 . S
H1045 C1058 0.930 . S
H1046 C1059 0.930 . S
H1047 C1063 0.959 . S
H1048 C1063 0.959 . S
H1049 C1063 0.961 . S
H1050 C1064 0.960 . S
H1051 C1064 0.961 . S
H1052 C1064 0.959 . S
H1053 C1067 0.929 1_556 S
H1054 C1068 0.931 . S
H1055 C1070 0.930 . S
C1056 H1044 0.930 . S
C1056 C1057 1.399 . S
C1056 C1061 1.399 . S
C1057 C1056 1.399 . S
C1057 C1058 1.376 . S
C1058 H1045 0.930 . S
C1058 C1057 1.376 . S
C1058 C1059 1.388 . S
C1059 H1046 0.930 . S
C1059 C1058 1.388 . S
C1059 C1060 1.390 . S
C1060 C1059 1.390 . S
C1060 C1061 1.394 . S
C1060 C1066 1.465 1_556 S
C1061 C1056 1.399 . S
C1061 C1060 1.394 . S
C1061 C1062 1.516 1_556 S
C1062 C1061 1.516 1_554 S
C1062 C1063 1.502 . S
C1062 C1064 1.561 . S
C1062 C1065 1.526 . S
C1063 H1047 0.959 . S
C1063 H1048 0.959 . S
C1063 H1049 0.961 . S
C1063 C1062 1.502 . S
C1064 H1050 0.960 . S
C1064 H1051 0.961 . S
C1064 H1052 0.959 . S
C1064 C1062 1.561 . S
C1065 C1062 1.526 . S
C1065 C1066 1.396 . S
C1065 C1070 1.390 . S
C1066 C1060 1.465 1_554 S
C1066 C1065 1.396 . S
C1066 C1067 1.399 . S
C1067 H1053 0.929 1_554 S
C1067 C1066 1.399 . S
C1067 C1068 1.385 . S
C1068 H1054 0.931 . S
C1068 C1067 1.385 . S
C1068 C1069 1.389 . S
C1069 C1068 1.389 . S
C1069 C1070 1.387 . S
C1070 H1055 0.930 . S
C1070 C1065 1.390 . S
C1070 C1069 1.387 . S
H1071 C1083 0.930 . S
H1072 C1085 0.930 . S
H1073 C1086 0.930 . S
H1074 C1090 0.959 . S
H1075 C1090 0.959 . S
H1076 C1090 0.961 . S
H1077 C1091 0.960 . S
H1078 C1091 0.961 . S
H1079 C1091 0.959 . S
H1080 C1094 0.929 1_556 S
H1081 C1095 0.931 . S
H1082 C1097 0.930 . S
C1083 H1071 0.930 . S
C1083 C1084 1.399 . S
C1083 C1088 1.399 . S
C1084 C1083 1.399 . S
C1084 C1085 1.376 . S
C1085 H1072 0.930 . S
C1085 C1084 1.376 . S
C1085 C1086 1.388 1_565 S
C1086 H1073 0.930 . S
C1086 C1085 1.388 1_545 S
C1086 C1087 1.390 . S
C1087 C1086 1.390 . S
C1087 C1088 1.394 1_545 S
C1087 C1093 1.465 1_556 S
C1088 C1083 1.399 . S
C1088 C1087 1.394 1_565 S
C1088 C1089 1.516 1_556 S
C1089 C1088 1.516 1_554 S
C1089 C1090 1.502 . S
C1089 C1091 1.561 . S
C1089 C1092 1.526 1_565 S
C1090 H1074 0.959 . S
C1090 H1075 0.959 . S
C1090 H1076 0.961 . S
C1090 C1089 1.502 . S
C1091 H1077 0.960 . S
C1091 H1078 0.961 . S
C1091 H1079 0.959 . S
C1091 C1089 1.561 . S
C1092 C1089 1.526 1_545 S
C1092 C1093 1.396 . S
C1092 C1097 1.390 . S
C1093 C1087 1.465 1_554 S
C1093 C1092 1.396 . S
C1093 C1094 1.399 . S
C1094 H1080 0.929 1_554 S
C1094 C1093 1.399 . S
C1094 C1095 1.385 . S
C1095 H1081 0.931 . S
C1095 C1094 1.385 . S
C1095 C1096 1.389 . S
C1096 C1095 1.389 . S
C1096 C1097 1.387 . S
C1097 H1082 0.930 . S
C1097 C1092 1.390 . S
C1097 C1096 1.387 . S
H1098 C1110 0.930 . S
H1099 C1112 0.930 . S
H1100 C1113 0.930 1_554 S
H1101 C1117 0.959 . S
H1102 C1117 0.959 . S
H1103 C1117 0.961 . S
H1104 C1118 0.960 . S
H1105 C1118 0.967 . S
H1106 C1118 0.959 1_454 S
H1107 C1121 0.929 . S
H1108 C1122 0.931 . S
H1109 C1124 0.930 . S
C1110 H1098 0.930 . S
C1110 C1111 1.399 . S
C1110 C1115 1.399 . S
C1111 C1110 1.399 . S
C1111 C1112 1.376 . S
C1112 H1099 0.930 . S
C1112 C1111 1.376 . S
C1112 C1113 1.388 . S
C1113 H1100 0.930 1_556 S
C1113 C1112 1.388 . S
C1113 C1114 1.390 . S
C1114 C1113 1.390 . S
C1114 C1115 1.394 . S
C1114 C1120 1.499 1_556 S
C1115 C1110 1.399 . S
C1115 C1114 1.394 . S
C1115 C1116 1.516 1_455 S
C1116 C1115 1.516 1_655 S
C1116 C1117 1.502 . S
C1116 C1118 1.561 . S
C1116 C1119 1.526 1_556 S
C1117 H1101 0.959 . S
C1117 H1102 0.959 . S
C1117 H1103 0.961 . S
C1117 C1116 1.502 . S
C1118 H1104 0.960 . S
C1118 H1105 0.967 . S
C1118 H1106 0.959 1_656 S
C1118 C1116 1.561 . S
C1119 C1116 1.526 1_554 S
C1119 C1120 1.375 1_655 S
C1119 C1124 1.390 . S
C1120 C1114 1.499 1_554 S
C1120 C1119 1.375 1_455 S
C1120 C1121 1.388 . S
C1121 H1107 0.929 . S
C1121 C1120 1.388 . S
C1121 C1122 1.385 1_455 S
C1122 H1108 0.931 . S
C1122 C1121 1.385 1_655 S
C1122 C1123 1.389 . S
C1123 C1122 1.389 . S
C1123 C1124 1.387 . S
C1124 H1109 0.930 . S
C1124 C1119 1.390 . S
C1124 C1123 1.387 . S
H1125 C1137 0.930 . S
H1126 C1139 0.930 . S
H1127 C1140 0.930 . S
H1128 C1144 0.959 . S
H1129 C1144 0.959 1_556 S
H1130 C1144 0.961 . S
H1131 C1145 0.960 . S
H1132 C1145 0.961 . S
H1133 C1145 0.959 . S
H1134 C1148 0.929 . S
H1135 C1149 0.931 . S
H1136 C1151 0.930 . S
C1137 H1125 0.930 . S
C1137 C1138 1.399 . S
C1137 C1142 1.399 . S
C1138 C1137 1.399 . S
C1138 C1139 1.376 . S
C1139 H1126 0.930 . S
C1139 C1138 1.376 . S
C1139 C1140 1.388 . S
C1140 H1127 0.930 . S
C1140 C1139 1.388 . S
C1140 C1141 1.390 . S
C1141 C1140 1.390 . S
C1141 C1142 1.394 . S
C1141 C1147 1.465 1_554 S
C1142 C1137 1.399 . S
C1142 C1141 1.394 . S
C1142 C1143 1.516 1_554 S
C1143 C1142 1.516 1_556 S
C1143 C1144 1.502 1_556 S
C1143 C1145 1.561 . S
C1143 C1146 1.526 . S
C1144 H1128 0.959 . S
C1144 H1129 0.959 1_554 S
C1144 H1130 0.961 . S
C1144 C1143 1.502 1_554 S
C1145 H1131 0.960 . S
C1145 H1132 0.961 . S
C1145 H1133 0.959 . S
C1145 C1143 1.561 . S
C1146 C1143 1.526 . S
C1146 C1147 1.396 . S
C1146 C1151 1.390 . S
C1147 C1141 1.465 1_556 S
C1147 C1146 1.396 . S
C1147 C1148 1.399 . S
C1148 H1134 0.929 . S
C1148 C1147 1.399 . S
C1148 C1149 1.385 . S
C1149 H1135 0.931 . S
C1149 C1148 1.385 . S
C1149 C1150 1.389 . S
C1150 C1149 1.389 . S
C1150 C1151 1.387 . S
C1151 H1136 0.930 . S
C1151 C1146 1.390 . S
C1151 C1150 1.387 . S
H1152 C1164 0.930 . S
H1153 C1166 0.930 . S
H1154 C1167 0.930 . S
H1155 C1171 0.959 . S
H1156 C1171 0.959 . S
H1157 C1171 0.961 . S
H1158 C1172 0.960 . S
H1159 C1172 0.961 . S
H1160 C1172 0.959 . S
H1161 C1175 0.929 . S
H1162 C1176 0.931 . S
H1163 C1178 0.930 . S
C1164 H1152 0.930 . S
C1164 C1165 1.399 . S
C1164 C1169 1.399 . S
C1165 C1164 1.399 . S
C1165 C1166 1.376 . S
C1166 H1153 0.930 . S
C1166 C1165 1.376 . S
C1166 C1167 1.388 . S
C1167 H1154 0.930 . S
C1167 C1166 1.388 . S
C1167 C1168 1.390 . S
C1168 C1167 1.390 . S
C1168 C1169 1.394 . S
C1168 C1174 1.465 . S
C1169 C1164 1.399 . S
C1169 C1168 1.394 . S
C1169 C1170 1.516 . S
C1170 C1169 1.516 . S
C1170 C1171 1.502 . S
C1170 C1172 1.561 . S
C1170 C1173 1.526 . S
C1171 H1155 0.959 . S
C1171 H1156 0.959 . S
C1171 H1157 0.961 . S
C1171 C1170 1.502 . S
C1172 H1158 0.960 . S
C1172 H1159 0.961 . S
C1172 H1160 0.959 . S
C1172 C1170 1.561 . S
C1173 C1170 1.526 . S
C1173 C1174 1.396 . S
C1173 C1178 1.390 . S
C1174 C1168 1.465 . S
C1174 C1173 1.396 . S
C1174 C1175 1.399 . S
C1175 H1161 0.929 . S
C1175 C1174 1.399 . S
C1175 C1176 1.385 . S
C1176 H1162 0.931 . S
C1176 C1175 1.385 . S
C1176 C1177 1.389 . S
C1177 C1176 1.389 . S
C1177 C1178 1.387 . S
C1178 H1163 0.930 . S
C1178 C1173 1.390 . S
C1178 C1177 1.387 . S
H1179 C1191 0.930 . S
H1180 C1193 0.930 . S
H1181 C1194 0.930 . S
H1182 C1198 0.959 . S
H1183 C1198 0.959 . S
H1184 C1198 0.961 . S
H1185 C1199 0.960 . S
H1186 C1199 0.961 . S
H1187 C1199 0.959 . S
H1188 C1202 0.929 . S
H1189 C1203 0.931 . S
H1190 C1205 0.930 . S
C1191 H1179 0.930 . S
C1191 C1192 1.399 . S
C1191 C1196 1.399 . S
C1192 C1191 1.399 . S
C1192 C1193 1.376 . S
C1193 H1180 0.930 . S
C1193 C1192 1.376 . S
C1193 C1194 1.388 . S
C1194 H1181 0.930 . S
C1194 C1193 1.388 . S
C1194 C1195 1.390 . S
C1195 C1194 1.390 . S
C1195 C1196 1.394 . S
C1195 C1201 1.465 . S
C1196 C1191 1.399 . S
C1196 C1195 1.394 . S
C1196 C1197 1.516 . S
C1197 C1196 1.516 . S
C1197 C1198 1.502 . S
C1197 C1199 1.561 . S
C1197 C1200 1.526 . S
C1198 H1182 0.959 . S
C1198 H1183 0.959 . S
C1198 H1184 0.961 . S
C1198 C1197 1.502 . S
C1199 H1185 0.960 . S
C1199 H1186 0.961 . S
C1199 H1187 0.959 . S
C1199 C1197 1.561 . S
C1200 C1197 1.526 . S
C1200 C1201 1.396 . S
C1200 C1205 1.390 . S
C1201 C1195 1.465 . S
C1201 C1200 1.396 . S
C1201 C1202 1.399 . S
C1202 H1188 0.929 . S
C1202 C1201 1.399 . S
C1202 C1203 1.385 . S
C1203 H1189 0.931 . S
C1203 C1202 1.385 . S
C1203 C1204 1.389 . S
C1204 C1203 1.389 . S
C1204 C1205 1.387 . S
C1205 H1190 0.930 . S
C1205 C1200 1.390 . S
C1205 C1204 1.387 . S
H1206 C1218 0.930 . S
H1207 C1220 0.930 . S
H1208 C1221 0.930 . S
H1209 C1225 0.959 . S
H1210 C1225 0.959 . S
H1211 C1225 0.961 . S
H1212 C1226 0.960 . S
H1213 C1226 0.961 . S
H1214 C1226 0.959 . S
H1215 C1229 0.929 . S
H1216 C1230 0.931 . S
H1217 C1232 0.930 . S
C1218 H1206 0.930 . S
C1218 C1219 1.399 . S
C1218 C1223 1.399 . S
C1219 C1218 1.399 . S
C1219 C1220 1.376 . S
C1220 H1207 0.930 . S
C1220 C1219 1.376 . S
C1220 C1221 1.388 . S
C1221 H1208 0.930 . S
C1221 C1220 1.388 . S
C1221 C1222 1.390 . S
C1222 C1221 1.390 . S
C1222 C1223 1.394 . S
C1222 C1228 1.465 . S
C1223 C1218 1.399 . S
C1223 C1222 1.394 . S
C1223 C1224 1.516 . S
C1224 C1223 1.516 . S
C1224 C1225 1.502 . S
C1224 C1226 1.561 . S
C1224 C1227 1.526 . S
C1225 H1209 0.959 . S
C1225 H1210 0.959 . S
C1225 H1211 0.961 . S
C1225 C1224 1.502 . S
C1226 H1212 0.960 . S
C1226 H1213 0.961 . S
C1226 H1214 0.959 . S
C1226 C1224 1.561 . S
C1227 C1224 1.526 . S
C1227 C1228 1.396 . S
C1227 C1232 1.390 . S
C1228 C1222 1.465 . S
C1228 C1227 1.396 . S
C1228 C1229 1.399 . S
C1229 H1215 0.929 . S
C1229 C1228 1.399 . S
C1229 C1230 1.385 . S
C1230 H1216 0.931 . S
C1230 C1229 1.385 . S
C1230 C1231 1.389 . S
C1231 C1230 1.389 . S
C1231 C1232 1.387 . S
C1232 H1217 0.930 . S
C1232 C1227 1.390 . S
C1232 C1231 1.387 . S
H1233 C1245 0.930 . S
H1234 C1247 0.930 . S
H1235 C1248 0.930 . S
H1236 C1252 0.959 . S
H1237 C1252 0.959 . S
H1238 C1252 0.961 . S
H1239 C1253 0.960 . S
H1240 C1253 0.961 . S
H1241 C1253 0.959 . S
H1242 C1256 0.929 . S
H1243 C1257 0.931 . S
H1244 C1259 0.930 . S
C1245 H1233 0.930 . S
C1245 C1246 1.399 . S
C1245 C1250 1.399 . S
C1246 C1245 1.399 . S
C1246 C1247 1.376 . S
C1247 H1234 0.930 . S
C1247 C1246 1.376 . S
C1247 C1248 1.388 . S
C1248 H1235 0.930 . S
C1248 C1247 1.388 . S
C1248 C1249 1.390 . S
C1249 C1248 1.390 . S
C1249 C1250 1.394 . S
C1249 C1255 1.465 . S
C1250 C1245 1.399 . S
C1250 C1249 1.394 . S
C1250 C1251 1.516 . S
C1251 C1250 1.516 . S
C1251 C1252 1.502 . S
C1251 C1253 1.561 . S
C1251 C1254 1.526 . S
C1252 H1236 0.959 . S
C1252 H1237 0.959 . S
C1252 H1238 0.961 . S
C1252 C1251 1.502 . S
C1253 H1239 0.960 . S
C1253 H1240 0.961 . S
C1253 H1241 0.959 . S
C1253 C1251 1.561 . S
C1254 C1251 1.526 . S
C1254 C1255 1.396 . S
C1254 C1259 1.390 . S
C1255 C1249 1.465 . S
C1255 C1254 1.396 . S
C1255 C1256 1.399 . S
C1256 H1242 0.929 . S
C1256 C1255 1.399 . S
C1256 C1257 1.385 . S
C1257 H1243 0.931 . S
C1257 C1256 1.385 . S
C1257 C1258 1.389 . S
C1258 C1257 1.389 . S
C1258 C1259 1.387 . S
C1259 H1244 0.930 . S
C1259 C1254 1.390 . S
C1259 C1258 1.387 . S
H1260 C1272 0.930 . S
H1261 C1274 0.930 . S
H1262 C1275 0.930 . S
H1263 C1279 0.959 . S
H1264 C1279 0.959 . S
H1265 C1279 0.961 . S
H1266 C1280 0.960 . S
H1267 C1280 0.961 . S
H1268 C1280 0.959 . S
H1269 C1283 0.929 . S
H1270 C1284 0.931 . S
H1271 C1286 0.930 . S
C1272 H1260 0.930 . S
C1272 C1273 1.399 . S
C1272 C1277 1.399 . S
C1273 C1272 1.399 . S
C1273 C1274 1.376 . S
C1274 H1261 0.930 . S
C1274 C1273 1.376 . S
C1274 C1275 1.388 . S
C1275 H1262 0.930 . S
C1275 C1274 1.388 . S
C1275 C1276 1.390 . S
C1276 C1275 1.390 . S
C1276 C1277 1.394 . S
C1276 C1282 1.465 . S
C1277 C1272 1.399 . S
C1277 C1276 1.394 . S
C1277 C1278 1.516 . S
C1278 C1277 1.516 . S
C1278 C1279 1.502 . S
C1278 C1280 1.561 . S
C1278 C1281 1.526 . S
C1279 H1263 0.959 . S
C1279 H1264 0.959 . S
C1279 H1265 0.961 . S
C1279 C1278 1.502 . S
C1280 H1266 0.960 . S
C1280 H1267 0.961 . S
C1280 H1268 0.959 . S
C1280 C1278 1.561 . S
C1281 C1278 1.526 . S
C1281 C1282 1.396 . S
C1281 C1286 1.390 . S
C1282 C1276 1.465 . S
C1282 C1281 1.396 . S
C1282 C1283 1.399 . S
C1283 H1269 0.929 . S
C1283 C1282 1.399 . S
C1283 C1284 1.385 . S
C1284 H1270 0.931 . S
C1284 C1283 1.385 . S
C1284 C1285 1.389 . S
C1285 C1284 1.389 . S
C1285 C1286 1.387 . S
C1286 H1271 0.930 . S
C1286 C1281 1.390 . S
C1286 C1285 1.387 . S
H1287 C1299 0.930 . S
H1288 C1301 0.930 . S
H1289 C1302 0.930 . S
H1290 C1306 0.959 . S
H1291 C1306 0.959 . S
H1292 C1306 0.961 . S
H1293 C1307 0.960 . S
H1294 C1307 0.961 . S
H1295 C1307 0.959 . S
H1296 C1310 0.929 . S
H1297 C1311 0.931 . S
H1298 C1313 0.930 . S
C1299 H1287 0.930 . S
C1299 C1300 1.399 . S
C1299 C1304 1.399 . S
C1300 C1299 1.399 . S
C1300 C1301 1.376 . S
C1301 H1288 0.930 . S
C1301 C1300 1.376 . S
C1301 C1302 1.388 . S
C1302 H1289 0.930 . S
C1302 C1301 1.388 . S
C1302 C1303 1.390 . S
C1303 C1302 1.390 . S
C1303 C1304 1.394 . S
C1303 C1309 1.465 . S
C1304 C1299 1.399 . S
C1304 C1303 1.394 . S
C1304 C1305 1.516 . S
C1305 C1304 1.516 . S
C1305 C1306 1.502 . S
C1305 C1307 1.561 . S
C1305 C1308 1.526 . S
C1306 H1290 0.959 . S
C1306 H1291 0.959 . S
C1306 H1292 0.961 . S
C1306 C1305 1.502 . S
C1307 H1293 0.960 . S
C1307 H1294 0.961 . S
C1307 H1295 0.959 . S
C1307 C1305 1.561 . S
C1308 C1305 1.526 . S
C1308 C1309 1.396 . S
C1308 C1313 1.390 . S
C1309 C1303 1.465 . S
C1309 C1308 1.396 . S
C1309 C1310 1.399 . S
C1310 H1296 0.929 . S
C1310 C1309 1.399 . S
C1310 C1311 1.385 . S
C1311 H1297 0.931 . S
C1311 C1310 1.385 . S
C1311 C1312 1.389 . S
C1312 C1311 1.389 . S
C1312 C1313 1.387 . S
C1313 H1298 0.930 . S
C1313 C1308 1.390 . S
C1313 C1312 1.387 . S
H1314 C1326 0.930 . S
H1315 C1328 0.930 . S
H1316 C1329 0.930 . S
H1317 C1333 0.959 . S
H1318 C1333 0.959 . S
H1319 C1333 0.961 . S
H1320 C1334 0.960 . S
H1321 C1334 0.961 . S
H1322 C1334 0.959 . S
H1323 C1337 0.929 . S
H1324 C1338 0.931 . S
H1325 C1340 0.930 . S
C1326 H1314 0.930 . S
C1326 C1327 1.399 . S
C1326 C1331 1.399 . S
C1327 C1326 1.399 . S
C1327 C1328 1.376 . S
C1328 H1315 0.930 . S
C1328 C1327 1.376 . S
C1328 C1329 1.388 . S
C1329 H1316 0.930 . S
C1329 C1328 1.388 . S
C1329 C1330 1.390 . S
C1330 C1329 1.390 . S
C1330 C1331 1.394 . S
C1330 C1336 1.465 . S
C1331 C1326 1.399 . S
C1331 C1330 1.394 . S
C1331 C1332 1.516 . S
C1332 C1331 1.516 . S
C1332 C1333 1.502 . S
C1332 C1334 1.561 . S
C1332 C1335 1.526 . S
C1333 H1317 0.959 . S
C1333 H1318 0.959 . S
C1333 H1319 0.961 . S
C1333 C1332 1.502 . S
C1334 H1320 0.960 . S
C1334 H1321 0.961 . S
C1334 H1322 0.959 . S
C1334 C1332 1.561 . S
C1335 C1332 1.526 . S
C1335 C1336 1.396 . S
C1335 C1340 1.390 . S
C1336 C1330 1.465 . S
C1336 C1335 1.396 . S
C1336 C1337 1.399 . S
C1337 H1323 0.929 . S
C1337 C1336 1.399 . S
C1337 C1338 1.385 . S
C1338 H1324 0.931 . S
C1338 C1337 1.385 . S
C1338 C1339 1.389 . S
C1339 C1338 1.389 . S
C1339 C1340 1.387 . S
C1340 H1325 0.930 . S
C1340 C1335 1.390 . S
C1340 C1339 1.387 . S
H1341 C1353 0.930 . S
H1342 C1355 0.930 . S
H1343 C1356 0.930 . S
H1344 C1360 0.959 . S
H1345 C1360 0.959 . S
H1346 C1360 0.961 . S
H1347 C1361 0.960 . S
H1348 C1361 0.961 . S
H1349 C1361 0.959 . S
H1350 C1364 0.929 . S
H1351 C1365 0.931 . S
H1352 C1367 0.930 . S
C1353 H1341 0.930 . S
C1353 C1354 1.399 . S
C1353 C1358 1.399 . S
C1354 C1353 1.399 . S
C1354 C1355 1.376 . S
C1355 H1342 0.930 . S
C1355 C1354 1.376 . S
C1355 C1356 1.388 . S
C1356 H1343 0.930 . S
C1356 C1355 1.388 . S
C1356 C1357 1.390 . S
C1357 C1356 1.390 . S
C1357 C1358 1.394 . S
C1357 C1363 1.465 . S
C1358 C1353 1.399 . S
C1358 C1357 1.394 . S
C1358 C1359 1.516 . S
C1359 C1358 1.516 . S
C1359 C1360 1.502 . S
C1359 C1361 1.561 . S
C1359 C1362 1.526 . S
C1360 H1344 0.959 . S
C1360 H1345 0.959 . S
C1360 H1346 0.961 . S
C1360 C1359 1.502 . S
C1361 H1347 0.960 . S
C1361 H1348 0.961 . S
C1361 H1349 0.959 . S
C1361 C1359 1.561 . S
C1362 C1359 1.526 . S
C1362 C1363 1.396 . S
C1362 C1367 1.390 . S
C1363 C1357 1.465 . S
C1363 C1362 1.396 . S
C1363 C1364 1.399 . S
C1364 H1350 0.929 . S
C1364 C1363 1.399 . S
C1364 C1365 1.385 . S
C1365 H1351 0.931 . S
C1365 C1364 1.385 . S
C1365 C1366 1.389 . S
C1366 C1365 1.389 . S
C1366 C1367 1.387 . S
C1367 H1352 0.930 . S
C1367 C1362 1.390 . S
C1367 C1366 1.387 . S
H1368 C1380 0.930 . S
H1369 C1382 0.930 . S
H1370 C1383 0.930 . S
H1371 C1387 0.959 . S
H1372 C1387 0.959 . S
H1373 C1387 0.961 . S
H1374 C1388 0.960 . S
H1375 C1388 0.961 . S
H1376 C1388 0.959 . S
H1377 C1391 0.929 . S
H1378 C1392 0.931 . S
H1379 C1394 0.930 . S
C1380 H1368 0.930 . S
C1380 C1381 1.399 . S
C1380 C1385 1.399 . S
C1381 C1380 1.399 . S
C1381 C1382 1.376 . S
C1382 H1369 0.930 . S
C1382 C1381 1.376 . S
C1382 C1383 1.388 . S
C1383 H1370 0.930 . S
C1383 C1382 1.388 . S
C1383 C1384 1.390 . S
C1384 C1383 1.390 . S
C1384 C1385 1.394 . S
C1384 C1390 1.465 . S
C1385 C1380 1.399 . S
C1385 C1384 1.394 . S
C1385 C1386 1.516 . S
C1386 C1385 1.516 . S
C1386 C1387 1.502 . S
C1386 C1388 1.561 . S
C1386 C1389 1.526 . S
C1387 H1371 0.959 . S
C1387 H1372 0.959 . S
C1387 H1373 0.961 . S
C1387 C1386 1.502 . S
C1388 H1374 0.960 . S
C1388 H1375 0.961 . S
C1388 H1376 0.959 . S
C1388 C1386 1.561 . S
C1389 C1386 1.526 . S
C1389 C1390 1.396 . S
C1389 C1394 1.390 . S
C1390 C1384 1.465 . S
C1390 C1389 1.396 . S
C1390 C1391 1.399 . S
C1391 H1377 0.929 . S
C1391 C1390 1.399 . S
C1391 C1392 1.385 . S
C1392 H1378 0.931 . S
C1392 C1391 1.385 . S
C1392 C1393 1.389 . S
C1393 C1392 1.389 . S
C1393 C1394 1.387 . S
C1394 H1379 0.930 . S
C1394 C1389 1.390 . S
C1394 C1393 1.387 . S
H1395 C1407 0.930 . S
H1396 C1409 0.930 . S
H1397 C1410 0.930 . S
H1398 C1414 0.959 . S
H1399 C1414 0.959 . S
H1400 C1414 0.961 . S
H1401 C1415 0.960 . S
H1402 C1415 0.961 . S
H1403 C1415 0.959 . S
H1404 C1418 0.929 . S
H1405 C1419 0.931 . S
H1406 C1421 0.930 . S
C1407 H1395 0.930 . S
C1407 C1408 1.399 . S
C1407 C1412 1.399 . S
C1408 C1407 1.399 . S
C1408 C1409 1.376 . S
C1409 H1396 0.930 . S
C1409 C1408 1.376 . S
C1409 C1410 1.388 . S
C1410 H1397 0.930 . S
C1410 C1409 1.388 . S
C1410 C1411 1.390 . S
C1411 C1410 1.390 . S
C1411 C1412 1.394 . S
C1411 C1417 1.465 . S
C1412 C1407 1.399 . S
C1412 C1411 1.394 . S
C1412 C1413 1.516 . S
C1413 C1412 1.516 . S
C1413 C1414 1.502 . S
C1413 C1415 1.561 . S
C1413 C1416 1.526 . S
C1414 H1398 0.959 . S
C1414 H1399 0.959 . S
C1414 H1400 0.961 . S
C1414 C1413 1.502 . S
C1415 H1401 0.960 . S
C1415 H1402 0.961 . S
C1415 H1403 0.959 . S
C1415 C1413 1.561 . S
C1416 C1413 1.526 . S
C1416 C1417 1.396 . S
C1416 C1421 1.390 . S
C1417 C1411 1.465 . S
C1417 C1416 1.396 . S
C1417 C1418 1.399 . S
C1418 H1404 0.929 . S
C1418 C1417 1.399 . S
C1418 C1419 1.385 . S
C1419 H1405 0.931 . S
C1419 C1418 1.385 . S
C1419 C1420 1.389 . S
C1420 C1419 1.389 . S
C1420 C1421 1.387 . S
C1421 H1406 0.930 . S
C1421 C1416 1.390 . S
C1421 C1420 1.387 . S
H1422 C1434 0.930 . S
H1423 C1436 0.930 . S
H1424 C1437 0.930 . S
H1425 C1441 0.959 . S
H1426 C1441 0.959 . S
H1427 C1441 0.961 . S
H1428 C1442 0.960 . S
H1429 C1442 0.961 . S
H1430 C1442 0.959 . S
H1431 C1445 0.929 . S
H1432 C1446 0.931 . S
H1433 C1448 0.930 . S
C1434 H1422 0.930 . S
C1434 C1435 1.399 . S
C1434 C1439 1.399 . S
C1435 C1434 1.399 . S
C1435 C1436 1.376 . S
C1436 H1423 0.930 . S
C1436 C1435 1.376 . S
C1436 C1437 1.388 . S
C1437 H1424 0.930 . S
C1437 C1436 1.388 . S
C1437 C1438 1.390 . S
C1438 C1437 1.390 . S
C1438 C1439 1.394 . S
C1438 C1444 1.465 . S
C1439 C1434 1.399 . S
C1439 C1438 1.394 . S
C1439 C1440 1.516 . S
C1440 C1439 1.516 . S
C1440 C1441 1.502 . S
C1440 C1442 1.561 . S
C1440 C1443 1.526 . S
C1441 H1425 0.959 . S
C1441 H1426 0.959 . S
C1441 H1427 0.961 . S
C1441 C1440 1.502 . S
C1442 H1428 0.960 . S
C1442 H1429 0.961 . S
C1442 H1430 0.959 . S
C1442 C1440 1.561 . S
C1443 C1440 1.526 . S
C1443 C1444 1.396 . S
C1443 C1448 1.390 . S
C1444 C1438 1.465 . S
C1444 C1443 1.396 . S
C1444 C1445 1.399 . S
C1445 H1431 0.929 . S
C1445 C1444 1.399 . S
C1445 C1446 1.385 . S
C1446 H1432 0.931 . S
C1446 C1445 1.385 . S
C1446 C1447 1.389 . S
C1447 C1446 1.389 . S
C1447 C1448 1.387 . S
C1448 H1433 0.930 . S
C1448 C1443 1.390 . S
C1448 C1447 1.387 . S
H1449 C1461 0.930 . S
H1450 C1463 0.930 . S
H1451 C1464 0.930 . S
H1452 C1468 0.959 . S
H1453 C1468 0.959 . S
H1454 C1468 0.961 . S
H1455 C1469 0.960 . S
H1456 C1469 0.961 . S
H1457 C1469 0.959 . S
H1458 C1472 0.929 . S
H1459 C1473 0.931 . S
H1460 C1475 0.930 . S
C1461 H1449 0.930 . S
C1461 C1462 1.399 . S
C1461 C1466 1.399 . S
C1462 C1461 1.399 . S
C1462 C1463 1.376 . S
C1463 H1450 0.930 . S
C1463 C1462 1.376 . S
C1463 C1464 1.388 . S
C1464 H1451 0.930 . S
C1464 C1463 1.388 . S
C1464 C1465 1.390 . S
C1465 C1464 1.390 . S
C1465 C1466 1.394 . S
C1465 C1471 1.465 . S
C1466 C1461 1.399 . S
C1466 C1465 1.394 . S
C1466 C1467 1.516 . S
C1467 C1466 1.516 . S
C1467 C1468 1.502 . S
C1467 C1469 1.561 . S
C1467 C1470 1.526 . S
C1468 H1452 0.959 . S
C1468 H1453 0.959 . S
C1468 H1454 0.961 . S
C1468 C1467 1.502 . S
C1469 H1455 0.960 . S
C1469 H1456 0.961 . S
C1469 H1457 0.959 . S
C1469 C1467 1.561 . S
C1470 C1467 1.526 . S
C1470 C1471 1.396 . S
C1470 C1475 1.390 . S
C1471 C1465 1.465 . S
C1471 C1470 1.396 . S
C1471 C1472 1.399 . S
C1472 H1458 0.929 . S
C1472 C1471 1.399 . S
C1472 C1473 1.385 . S
C1473 H1459 0.931 . S
C1473 C1472 1.385 . S
C1473 C1474 1.389 . S
C1474 C1473 1.389 . S
C1474 C1475 1.387 . S
C1475 H1460 0.930 . S
C1475 C1470 1.390 . S
C1475 C1474 1.387 . S
H1476 C1488 0.930 . S
H1477 C1490 0.930 . S
H1478 C1491 0.930 . S
H1479 C1495 0.959 . S
H1480 C1495 0.959 . S
H1481 C1495 0.961 . S
H1482 C1496 0.960 . S
H1483 C1496 0.961 . S
H1484 C1496 0.959 . S
H1485 C1499 0.929 . S
H1486 C1500 0.931 . S
H1487 C1502 0.930 . S
C1488 H1476 0.930 . S
C1488 C1489 1.399 . S
C1488 C1493 1.399 . S
C1489 C1488 1.399 . S
C1489 C1490 1.376 . S
C1490 H1477 0.930 . S
C1490 C1489 1.376 . S
C1490 C1491 1.388 . S
C1491 H1478 0.930 . S
C1491 C1490 1.388 . S
C1491 C1492 1.390 . S
C1492 C1491 1.390 . S
C1492 C1493 1.394 . S
C1492 C1498 1.465 . S
C1493 C1488 1.399 . S
C1493 C1492 1.394 . S
C1493 C1494 1.516 . S
C1494 C1493 1.516 . S
C1494 C1495 1.502 . S
C1494 C1496 1.561 . S
C1494 C1497 1.526 . S
C1495 H1479 0.959 . S
C1495 H1480 0.959 . S
C1495 H1481 0.961 . S
C1495 C1494 1.502 . S
C1496 H1482 0.960 . S
C1496 H1483 0.961 . S
C1496 H1484 0.959 . S
C1496 C1494 1.561 . S
C1497 C1494 1.526 . S
C1497 C1498 1.396 . S
C1497 C1502 1.390 . S
C1498 C1492 1.465 . S
C1498 C1497 1.396 . S
C1498 C1499 1.399 . S
C1499 H1485 0.929 . S
C1499 C1498 1.399 . S
C1499 C1500 1.385 . S
C1500 H1486 0.931 . S
C1500 C1499 1.385 . S
C1500 C1501 1.389 . S
C1501 C1500 1.389 . S
C1501 C1502 1.387 . S
C1502 H1487 0.930 . S
C1502 C1497 1.390 . S
C1502 C1501 1.387 . S
H1503 C1515 0.930 . S
H1504 C1517 0.930 . S
H1505 C1518 0.930 . S
H1506 C1522 0.959 . S
H1507 C1522 0.959 . S
H1508 C1522 0.961 . S
H1509 C1523 0.960 . S
H1510 C1523 0.961 . S
H1511 C1523 0.959 . S
H1512 C1526 0.929 . S
H1513 C1527 0.931 . S
H1514 C1529 0.930 . S
C1515 H1503 0.930 . S
C1515 C1516 1.399 . S
C1515 C1520 1.399 . S
C1516 C1515 1.399 . S
C1516 C1517 1.376 . S
C1517 H1504 0.930 . S
C1517 C1516 1.376 . S
C1517 C1518 1.388 . S
C1518 H1505 0.930 . S
C1518 C1517 1.388 . S
C1518 C1519 1.390 . S
C1519 C1518 1.390 . S
C1519 C1520 1.394 . S
C1519 C1525 1.465 . S
C1520 C1515 1.399 . S
C1520 C1519 1.394 . S
C1520 C1521 1.516 . S
C1521 C1520 1.516 . S
C1521 C1522 1.502 . S
C1521 C1523 1.561 . S
C1521 C1524 1.526 . S
C1522 H1506 0.959 . S
C1522 H1507 0.959 . S
C1522 H1508 0.961 . S
C1522 C1521 1.502 . S
C1523 H1509 0.960 . S
C1523 H1510 0.961 . S
C1523 H1511 0.959 . S
C1523 C1521 1.561 . S
C1524 C1521 1.526 . S
C1524 C1525 1.396 . S
C1524 C1529 1.390 . S
C1525 C1519 1.465 . S
C1525 C1524 1.396 . S
C1525 C1526 1.399 . S
C1526 H1512 0.929 . S
C1526 C1525 1.399 . S
C1526 C1527 1.385 . S
C1527 H1513 0.931 . S
C1527 C1526 1.385 . S
C1527 C1528 1.389 . S
C1528 C1527 1.389 . S
C1528 C1529 1.387 . S
C1529 H1514 0.930 . S
C1529 C1524 1.390 . S
C1529 C1528 1.387 . S
H1530 C1542 0.930 . S
H1531 C1544 0.930 . S
H1532 C1545 0.930 . S
H1533 C1549 0.959 . S
H1534 C1549 0.959 . S
H1535 C1549 0.961 . S
H1536 C1550 0.960 . S
H1537 C1550 0.961 . S
H1538 C1550 0.959 . S
H1539 C1553 0.929 . S
H1540 C1554 0.931 . S
H1541 C1556 0.930 . S
C1542 H1530 0.930 . S
C1542 C1543 1.399 . S
C1542 C1547 1.399 . S
C1543 C1542 1.399 . S
C1543 C1544 1.376 . S
C1544 H1531 0.930 . S
C1544 C1543 1.376 . S
C1544 C1545 1.388 . S
C1545 H1532 0.930 . S
C1545 C1544 1.388 . S
C1545 C1546 1.390 . S
C1546 C1545 1.390 . S
C1546 C1547 1.394 . S
C1546 C1552 1.465 . S
C1547 C1542 1.399 . S
C1547 C1546 1.394 . S
C1547 C1548 1.516 . S
C1548 C1547 1.516 . S
C1548 C1549 1.502 . S
C1548 C1550 1.561 . S
C1548 C1551 1.526 . S
C1549 H1533 0.959 . S
C1549 H1534 0.959 . S
C1549 H1535 0.961 . S
C1549 C1548 1.502 . S
C1550 H1536 0.960 . S
C1550 H1537 0.961 . S
C1550 H1538 0.959 . S
C1550 C1548 1.561 . S
C1551 C1548 1.526 . S
C1551 C1552 1.396 . S
C1551 C1556 1.390 . S
C1552 C1546 1.465 . S
C1552 C1551 1.396 . S
C1552 C1553 1.399 . S
C1553 H1539 0.929 . S
C1553 C1552 1.399 . S
C1553 C1554 1.385 . S
C1554 H1540 0.931 . S
C1554 C1553 1.385 . S
C1554 C1555 1.389 . S
C1555 C1554 1.389 . S
C1555 C1556 1.387 . S
C1556 H1541 0.930 . S
C1556 C1551 1.390 . S
C1556 C1555 1.387 . S
H1557 C1569 0.930 . S
H1558 C1571 0.930 . S
H1559 C1572 0.930 . S
H1560 C1576 0.959 . S
H1561 C1576 0.959 . S
H1562 C1576 0.961 . S
H1563 C1577 0.960 . S
H1564 C1577 0.961 . S
H1565 C1577 0.959 . S
H1566 C1580 0.929 . S
H1567 C1581 0.931 . S
H1568 C1583 0.930 . S
C1569 H1557 0.930 . S
C1569 C1570 1.399 . S
C1569 C1574 1.399 . S
C1570 C1569 1.399 . S
C1570 C1571 1.376 . S
C1571 H1558 0.930 . S
C1571 C1570 1.376 . S
C1571 C1572 1.388 . S
C1572 H1559 0.930 . S
C1572 C1571 1.388 . S
C1572 C1573 1.390 . S
C1573 C1572 1.390 . S
C1573 C1574 1.394 . S
C1573 C1579 1.465 . S
C1574 C1569 1.399 . S
C1574 C1573 1.394 . S
C1574 C1575 1.516 . S
C1575 C1574 1.516 . S
C1575 C1576 1.502 . S
C1575 C1577 1.561 . S
C1575 C1578 1.526 . S
C1576 H1560 0.959 . S
C1576 H1561 0.959 . S
C1576 H1562 0.961 . S
C1576 C1575 1.502 . S
C1577 H1563 0.960 . S
C1577 H1564 0.961 . S
C1577 H1565 0.959 . S
C1577 C1575 1.561 . S
C1578 C1575 1.526 . S
C1578 C1579 1.396 . S
C1578 C1583 1.390 . S
C1579 C1573 1.465 . S
C1579 C1578 1.396 . S
C1579 C1580 1.399 . S
C1580 H1566 0.929 . S
C1580 C1579 1.399 . S
C1580 C1581 1.385 . S
C1581 H1567 0.931 . S
C1581 C1580 1.385 . S
C1581 C1582 1.389 . S
C1582 C1581 1.389 . S
C1582 C1583 1.387 . S
C1583 H1568 0.930 . S
C1583 C1578 1.390 . S
C1583 C1582 1.387 . S
H1584 C1596 0.930 . S
H1585 C1598 0.930 . S
H1586 C1599 0.930 . S
H1587 C1603 0.959 . S
H1588 C1603 0.959 . S
H1589 C1603 0.961 . S
H1590 C1604 0.960 . S
H1591 C1604 0.961 . S
H1592 C1604 0.959 . S
H1593 C1607 0.929 . S
H1594 C1608 0.931 . S
H1595 C1610 0.930 . S
C1596 H1584 0.930 . S
C1596 C1597 1.399 . S
C1596 C1601 1.399 . S
C1597 C1596 1.399 . S
C1597 C1598 1.376 . S
C1598 H1585 0.930 . S
C1598 C1597 1.376 . S
C1598 C1599 1.388 . S
C1599 H1586 0.930 . S
C1599 C1598 1.388 . S
C1599 C1600 1.390 . S
C1600 C1599 1.390 . S
C1600 C1601 1.394 . S
C1600 C1606 1.465 . S
C1601 C1596 1.399 . S
C1601 C1600 1.394 . S
C1601 C1602 1.516 . S
C1602 C1601 1.516 . S
C1602 C1603 1.502 . S
C1602 C1604 1.561 . S
C1602 C1605 1.526 . S
C1603 H1587 0.959 . S
C1603 H1588 0.959 . S
C1603 H1589 0.961 . S
C1603 C1602 1.502 . S
C1604 H1590 0.960 . S
C1604 H1591 0.961 . S
C1604 H1592 0.959 . S
C1604 C1602 1.561 . S
C1605 C1602 1.526 . S
C1605 C1606 1.396 . S
C1605 C1610 1.390 . S
C1606 C1600 1.465 . S
C1606 C1605 1.396 . S
C1606 C1607 1.399 . S
C1607 H1593 0.929 . S
C1607 C1606 1.399 . S
C1607 C1608 1.385 . S
C1608 H1594 0.931 . S
C1608 C1607 1.385 . S
C1608 C1609 1.389 . S
C1609 C1608 1.389 . S
C1609 C1610 1.387 . S
C1610 H1595 0.930 . S
C1610 C1605 1.390 . S
C1610 C1609 1.387 . S
H1611 C1623 0.930 . S
H1612 C1625 0.930 . S
H1613 C1626 0.930 . S
H1614 C1630 0.959 . S
H1615 C1630 0.959 . S
H1616 C1630 0.961 . S
H1617 C1631 0.960 . S
H1618 C1631 0.961 . S
H1619 C1631 0.959 . S
H1620 C1634 0.929 . S
H1621 C1635 0.931 . S
H1622 C1637 0.930 . S
C1623 H1611 0.930 . S
C1623 C1624 1.399 . S
C1623 C1628 1.399 . S
C1624 C1623 1.399 . S
C1624 C1625 1.376 . S
C1625 H1612 0.930 . S
C1625 C1624 1.376 . S
C1625 C1626 1.388 . S
C1626 H1613 0.930 . S
C1626 C1625 1.388 . S
C1626 C1627 1.390 . S
C1627 C1626 1.390 . S
C1627 C1628 1.394 . S
C1627 C1633 1.465 . S
C1628 C1623 1.399 . S
C1628 C1627 1.394 . S
C1628 C1629 1.516 . S
C1629 C1628 1.516 . S
C1629 C1630 1.502 . S
C1629 C1631 1.561 . S
C1629 C1632 1.526 . S
C1630 H1614 0.959 . S
C1630 H1615 0.959 . S
C1630 H1616 0.961 . S
C1630 C1629 1.502 . S
C1631 H1617 0.960 . S
C1631 H1618 0.961 . S
C1631 H1619 0.959 . S
C1631 C1629 1.561 . S
C1632 C1629 1.526 . S
C1632 C1633 1.396 . S
C1632 C1637 1.390 . S
C1633 C1627 1.465 . S
C1633 C1632 1.396 . S
C1633 C1634 1.399 . S
C1634 H1620 0.929 . S
C1634 C1633 1.399 . S
C1634 C1635 1.385 . S
C1635 H1621 0.931 . S
C1635 C1634 1.385 . S
C1635 C1636 1.389 . S
C1636 C1635 1.389 . S
C1636 C1637 1.387 . S
C1637 H1622 0.930 . S
C1637 C1632 1.390 . S
C1637 C1636 1.387 . S
H1638 C1650 0.930 . S
H1639 C1652 0.930 . S
H1640 C1653 0.930 . S
H1641 C1657 0.959 . S
H1642 C1657 0.959 . S
H1643 C1657 0.961 . S
H1644 C1658 0.960 . S
H1645 C1658 0.961 . S
H1646 C1658 0.959 . S
H1647 C1661 0.929 . S
H1648 C1662 0.931 . S
H1649 C1664 0.930 . S
C1650 H1638 0.930 . S
C1650 C1651 1.399 . S
C1650 C1655 1.399 . S
C1651 C1650 1.399 . S
C1651 C1652 1.376 . S
C1652 H1639 0.930 . S
C1652 C1651 1.376 . S
C1652 C1653 1.388 . S
C1653 H1640 0.930 . S
C1653 C1652 1.388 . S
C1653 C1654 1.390 . S
C1654 C1653 1.390 . S
C1654 C1655 1.394 . S
C1654 C1660 1.465 . S
C1655 C1650 1.399 . S
C1655 C1654 1.394 . S
C1655 C1656 1.516 . S
C1656 C1655 1.516 . S
C1656 C1657 1.502 . S
C1656 C1658 1.561 . S
C1656 C1659 1.526 . S
C1657 H1641 0.959 . S
C1657 H1642 0.959 . S
C1657 H1643 0.961 . S
C1657 C1656 1.502 . S
C1658 H1644 0.960 . S
C1658 H1645 0.961 . S
C1658 H1646 0.959 . S
C1658 C1656 1.561 . S
C1659 C1656 1.526 . S
C1659 C1660 1.396 . S
C1659 C1664 1.390 . S
C1660 C1654 1.465 . S
C1660 C1659 1.396 . S
C1660 C1661 1.399 . S
C1661 H1647 0.929 . S
C1661 C1660 1.399 . S
C1661 C1662 1.385 . S
C1662 H1648 0.931 . S
C1662 C1661 1.385 . S
C1662 C1663 1.389 . S
C1663 C1662 1.389 . S
C1663 C1664 1.387 . S
C1664 H1649 0.930 . S
C1664 C1659 1.390 . S
C1664 C1663 1.387 . S
H1665 C1677 0.930 . S
H1666 C1679 0.930 . S
H1667 C1680 0.930 . S
H1668 C1684 0.959 . S
H1669 C1684 0.959 . S
H1670 C1684 0.961 . S
H1671 C1685 0.960 . S
H1672 C1685 0.961 . S
H1673 C1685 0.959 . S
H1674 C1688 0.929 . S
H1675 C1689 0.931 . S
H1676 C1691 0.930 . S
C1677 H1665 0.930 . S
C1677 C1678 1.399 . S
C1677 C1682 1.399 . S
C1678 C1677 1.399 . S
C1678 C1679 1.376 . S
C1679 H1666 0.930 . S
C1679 C1678 1.376 . S
C1679 C1680 1.388 . S
C1680 H1667 0.930 . S
C1680 C1679 1.388 . S
C1680 C1681 1.390 . S
C1681 C1680 1.390 . S
C1681 C1682 1.394 . S
C1681 C1687 1.465 . S
C1682 C1677 1.399 . S
C1682 C1681 1.394 . S
C1682 C1683 1.516 . S
C1683 C1682 1.516 . S
C1683 C1684 1.502 . S
C1683 C1685 1.561 . S
C1683 C1686 1.526 . S
C1684 H1668 0.959 . S
C1684 H1669 0.959 . S
C1684 H1670 0.961 . S
C1684 C1683 1.502 . S
C1685 H1671 0.960 . S
C1685 H1672 0.961 . S
C1685 H1673 0.959 . S
C1685 C1683 1.561 . S
C1686 C1683 1.526 . S
C1686 C1687 1.396 . S
C1686 C1691 1.390 . S
C1687 C1681 1.465 . S
C1687 C1686 1.396 . S
C1687 C1688 1.399 . S
C1688 H1674 0.929 . S
C1688 C1687 1.399 . S
C1688 C1689 1.385 . S
C1689 H1675 0.931 . S
C1689 C1688 1.385 . S
C1689 C1690 1.389 . S
C1690 C1689 1.389 . S
C1690 C1691 1.387 . S
C1691 H1676 0.930 . S
C1691 C1686 1.390 . S
C1691 C1690 1.387 . S
H1692 C1704 0.930 . S
H1693 C1706 0.930 . S
H1694 C1707 0.930 . S
H1695 C1711 0.959 . S
H1696 C1711 0.959 . S
H1697 C1711 0.961 . S
H1698 C1712 0.960 . S
H1699 C1712 0.961 . S
H1700 C1712 0.959 . S
H1701 C1715 0.929 . S
H1702 C1716 0.931 . S
H1703 C1718 0.930 . S
C1704 H1692 0.930 . S
C1704 C1705 1.399 . S
C1704 C1709 1.399 . S
C1705 C1704 1.399 . S
C1705 C1706 1.376 . S
C1706 H1693 0.930 . S
C1706 C1705 1.376 . S
C1706 C1707 1.388 . S
C1707 H1694 0.930 . S
C1707 C1706 1.388 . S
C1707 C1708 1.390 . S
C1708 C1707 1.390 . S
C1708 C1709 1.394 . S
C1708 C1714 1.465 . S
C1709 C1704 1.399 . S
C1709 C1708 1.394 . S
C1709 C1710 1.516 . S
C1710 C1709 1.516 . S
C1710 C1711 1.502 . S
C1710 C1712 1.561 . S
C1710 C1713 1.526 . S
C1711 H1695 0.959 . S
C1711 H1696 0.959 . S
C1711 H1697 0.961 . S
C1711 C1710 1.502 . S
C1712 H1698 0.960 . S
C1712 H1699 0.961 . S
C1712 H1700 0.959 . S
C1712 C1710 1.561 . S
C1713 C1710 1.526 . S
C1713 C1714 1.396 . S
C1713 C1718 1.390 . S
C1714 C1708 1.465 . S
C1714 C1713 1.396 . S
C1714 C1715 1.399 . S
C1715 H1701 0.929 . S
C1715 C1714 1.399 . S
C1715 C1716 1.385 . S
C1716 H1702 0.931 . S
C1716 C1715 1.385 . S
C1716 C1717 1.389 . S
C1717 C1716 1.389 . S
C1717 C1718 1.387 . S
C1718 H1703 0.930 . S
C1718 C1713 1.390 . S
C1718 C1717 1.387 . S
H1719 C1731 0.930 . S
H1720 C1733 0.930 . S
H1721 C1734 0.930 . S
H1722 C1738 0.959 . S
H1723 C1738 0.959 . S
H1724 C1738 0.961 . S
H1725 C1739 0.960 . S
H1726 C1739 0.961 . S
H1727 C1739 0.959 . S
H1728 C1742 0.929 . S
H1729 C1743 0.931 . S
H1730 C1745 0.930 . S
C1731 H1719 0.930 . S
C1731 C1732 1.399 . S
C1731 C1736 1.399 . S
C1732 C1731 1.399 . S
C1732 C1733 1.376 . S
C1733 H1720 0.930 . S
C1733 C1732 1.376 . S
C1733 C1734 1.388 . S
C1734 H1721 0.930 . S
C1734 C1733 1.388 . S
C1734 C1735 1.390 . S
C1735 C1734 1.390 . S
C1735 C1736 1.394 . S
C1735 C1741 1.465 . S
C1736 C1731 1.399 . S
C1736 C1735 1.394 . S
C1736 C1737 1.516 . S
C1737 C1736 1.516 . S
C1737 C1738 1.502 . S
C1737 C1739 1.561 . S
C1737 C1740 1.526 . S
C1738 H1722 0.959 . S
C1738 H1723 0.959 . S
C1738 H1724 0.961 . S
C1738 C1737 1.502 . S
C1739 H1725 0.960 . S
C1739 H1726 0.961 . S
C1739 H1727 0.959 . S
C1739 C1737 1.561 . S
C1740 C1737 1.526 . S
C1740 C1741 1.396 . S
C1740 C1745 1.390 . S
C1741 C1735 1.465 . S
C1741 C1740 1.396 . S
C1741 C1742 1.399 . S
C1742 H1728 0.929 . S
C1742 C1741 1.399 . S
C1742 C1743 1.385 . S
C1743 H1729 0.931 . S
C1743 C1742 1.385 . S
C1743 C1744 1.389 . S
C1744 C1743 1.389 . S
C1744 C1745 1.387 . S
C1745 H1730 0.930 . S
C1745 C1740 1.390 . S
C1745 C1744 1.387 . S
H1746 C1758 0.930 . S
H1747 C1760 0.930 . S
H1748 C1761 0.930 . S
H1749 C1765 0.959 . S
H1750 C1765 0.959 . S
H1751 C1765 0.961 . S
H1752 C1766 0.960 . S
H1753 C1766 0.961 . S
H1754 C1766 0.959 . S
H1755 C1769 0.929 . S
H1756 C1770 0.931 . S
H1757 C1772 0.930 . S
C1758 H1746 0.930 . S
C1758 C1759 1.399 . S
C1758 C1763 1.399 . S
C1759 C1758 1.399 . S
C1759 C1760 1.376 . S
C1760 H1747 0.930 . S
C1760 C1759 1.376 . S
C1760 C1761 1.388 . S
C1761 H1748 0.930 . S
C1761 C1760 1.388 . S
C1761 C1762 1.390 . S
C1762 C1761 1.390 . S
C1762 C1763 1.394 . S
C1762 C1768 1.465 . S
C1763 C1758 1.399 . S
C1763 C1762 1.394 . S
C1763 C1764 1.516 . S
C1764 C1763 1.516 . S
C1764 C1765 1.502 . S
C1764 C1766 1.561 . S
C1764 C1767 1.526 . S
C1765 H1749 0.959 . S
C1765 H1750 0.959 . S
C1765 H1751 0.961 . S
C1765 C1764 1.502 . S
C1766 H1752 0.960 . S
C1766 H1753 0.961 . S
C1766 H1754 0.959 . S
C1766 C1764 1.561 . S
C1767 C1764 1.526 . S
C1767 C1768 1.396 . S
C1767 C1772 1.390 . S
C1768 C1762 1.465 . S
C1768 C1767 1.396 . S
C1768 C1769 1.399 . S
C1769 H1755 0.929 . S
C1769 C1768 1.399 . S
C1769 C1770 1.385 . S
C1770 H1756 0.931 . S
C1770 C1769 1.385 . S
C1770 C1771 1.389 . S
C1771 C1770 1.389 . S
C1771 C1772 1.387 . S
C1772 H1757 0.930 . S
C1772 C1767 1.390 . S
C1772 C1771 1.387 . S
H1773 C1785 0.930 . S
H1774 C1787 0.930 . S
H1775 C1788 0.930 . S
H1776 C1792 0.959 . S
H1777 C1792 0.959 . S
H1778 C1792 0.961 . S
H1779 C1793 0.960 . S
H1780 C1793 0.961 . S
H1781 C1793 0.959 . S
H1782 C1796 0.929 . S
H1783 C1797 0.931 . S
H1784 C1799 0.930 . S
C1785 H1773 0.930 . S
C1785 C1786 1.399 . S
C1785 C1790 1.399 . S
C1786 C1785 1.399 . S
C1786 C1787 1.376 . S
C1787 H1774 0.930 . S
C1787 C1786 1.376 . S
C1787 C1788 1.388 . S
C1788 H1775 0.930 . S
C1788 C1787 1.388 . S
C1788 C1789 1.390 . S
C1789 C1788 1.390 . S
C1789 C1790 1.394 . S
C1789 C1795 1.465 . S
C1790 C1785 1.399 . S
C1790 C1789 1.394 . S
C1790 C1791 1.516 . S
C1791 C1790 1.516 . S
C1791 C1792 1.502 . S
C1791 C1793 1.561 . S
C1791 C1794 1.526 . S
C1792 H1776 0.959 . S
C1792 H1777 0.959 . S
C1792 H1778 0.961 . S
C1792 C1791 1.502 . S
C1793 H1779 0.960 . S
C1793 H1780 0.961 . S
C1793 H1781 0.959 . S
C1793 C1791 1.561 . S
C1794 C1791 1.526 . S
C1794 C1795 1.396 . S
C1794 C1799 1.390 . S
C1795 C1789 1.465 . S
C1795 C1794 1.396 . S
C1795 C1796 1.399 . S
C1796 H1782 0.929 . S
C1796 C1795 1.399 . S
C1796 C1797 1.385 . S
C1797 H1783 0.931 . S
C1797 C1796 1.385 . S
C1797 C1798 1.389 . S
C1798 C1797 1.389 . S
C1798 C1799 1.387 . S
C1799 H1784 0.930 . S
C1799 C1794 1.390 . S
C1799 C1798 1.387 . S
H1800 C1812 0.930 . S
H1801 C1814 0.930 . S
H1802 C1815 0.930 . S
H1803 C1819 0.959 . S
H1804 C1819 0.959 . S
H1805 C1819 0.961 . S
H1806 C1820 0.960 . S
H1807 C1820 0.961 . S
H1808 C1820 0.959 . S
H1809 C1823 0.929 . S
H1810 C1824 0.931 . S
H1811 C1826 0.930 . S
C1812 H1800 0.930 . S
C1812 C1813 1.399 . S
C1812 C1817 1.399 . S
C1813 C1812 1.399 . S
C1813 C1814 1.376 . S
C1814 H1801 0.930 . S
C1814 C1813 1.376 . S
C1814 C1815 1.388 . S
C1815 H1802 0.930 . S
C1815 C1814 1.388 . S
C1815 C1816 1.390 . S
C1816 C1815 1.390 . S
C1816 C1817 1.394 . S
C1816 C1822 1.465 1_455 S
C1817 C1812 1.399 . S
C1817 C1816 1.394 . S
C1817 C1818 1.516 . S
C1818 C1817 1.516 . S
C1818 C1819 1.502 . S
C1818 C1820 1.561 . S
C1818 C1821 1.526 1_455 S
C1819 H1803 0.959 . S
C1819 H1804 0.959 . S
C1819 H1805 0.961 . S
C1819 C1818 1.502 . S
C1820 H1806 0.960 . S
C1820 H1807 0.961 . S
C1820 H1808 0.959 . S
C1820 C1818 1.561 . S
C1821 C1818 1.526 1_655 S
C1821 C1822 1.396 . S
C1821 C1826 1.390 . S
C1822 C1816 1.465 1_655 S
C1822 C1821 1.396 . S
C1822 C1823 1.399 . S
C1823 H1809 0.929 . S
C1823 C1822 1.399 . S
C1823 C1824 1.385 . S
C1824 H1810 0.931 . S
C1824 C1823 1.385 . S
C1824 C1825 1.389 . S
C1825 C1824 1.389 . S
C1825 C1826 1.387 . S
C1826 H1811 0.930 . S
C1826 C1821 1.390 . S
C1826 C1825 1.387 . S
H1827 C1839 0.930 . S
H1828 C1841 0.930 . S
H1829 C1842 0.930 . S
H1830 C1846 0.959 . S
H1831 C1846 0.959 . S
H1832 C1846 0.961 . S
H1833 C1847 0.960 . S
H1834 C1847 0.961 . S
H1835 C1847 0.959 . S
H1836 C1850 0.929 . S
H1837 C1851 0.931 . S
H1838 C1853 0.930 . S
C1839 H1827 0.930 . S
C1839 C1840 1.399 . S
C1839 C1844 1.399 . S
C1840 C1839 1.399 . S
C1840 C1841 1.376 . S
C1841 H1828 0.930 . S
C1841 C1840 1.376 . S
C1841 C1842 1.388 . S
C1842 H1829 0.930 . S
C1842 C1841 1.388 . S
C1842 C1843 1.390 . S
C1843 C1842 1.390 . S
C1843 C1844 1.394 . S
C1843 C1849 1.465 . S
C1844 C1839 1.399 . S
C1844 C1843 1.394 . S
C1844 C1845 1.516 . S
C1845 C1844 1.516 . S
C1845 C1846 1.502 . S
C1845 C1847 1.561 . S
C1845 C1848 1.526 . S
C1846 H1830 0.959 . S
C1846 H1831 0.959 . S
C1846 H1832 0.961 . S
C1846 C1845 1.502 . S
C1847 H1833 0.960 . S
C1847 H1834 0.961 . S
C1847 H1835 0.959 . S
C1847 C1845 1.561 . S
C1848 C1845 1.526 . S
C1848 C1849 1.396 . S
C1848 C1853 1.390 . S
C1849 C1843 1.465 . S
C1849 C1848 1.396 . S
C1849 C1850 1.399 . S
C1850 H1836 0.929 . S
C1850 C1849 1.399 . S
C1850 C1851 1.385 . S
C1851 H1837 0.931 . S
C1851 C1850 1.385 . S
C1851 C1852 1.389 . S
C1852 C1851 1.389 . S
C1852 C1853 1.387 . S
C1853 H1838 0.930 . S
C1853 C1848 1.390 . S
C1853 C1852 1.387 . S
H1854 C1866 0.930 . S
H1855 C1868 0.930 . S
H1856 C1869 0.930 . S
H1857 C1873 0.959 . S
H1858 C1873 0.959 . S
H1859 C1873 0.961 . S
H1860 C1874 0.960 . S
H1861 C1874 0.961 1_565 S
H1862 C1874 1.001 . S
H1863 C1877 0.929 . S
H1864 C1878 0.931 . S
H1865 C1880 0.930 . S
C1866 H1854 0.930 . S
C1866 C1867 1.399 . S
C1866 C1871 1.399 . S
C1867 C1866 1.399 . S
C1867 C1868 1.376 . S
C1868 H1855 0.930 . S
C1868 C1867 1.376 . S
C1868 C1869 1.388 . S
C1869 H1856 0.930 . S
C1869 C1868 1.388 . S
C1869 C1870 1.390 . S
C1870 C1869 1.390 . S
C1870 C1871 1.394 . S
C1870 C1876 1.465 1_545 S
C1871 C1866 1.399 . S
C1871 C1870 1.394 . S
C1871 C1872 1.516 . S
C1872 C1871 1.516 . S
C1872 C1873 1.502 . S
C1872 C1874 1.561 . S
C1872 C1875 1.526 1_545 S
C1873 H1857 0.959 . S
C1873 H1858 0.959 . S
C1873 H1859 0.961 . S
C1873 C1872 1.502 . S
C1874 H1860 0.960 . S
C1874 H1861 0.961 1_545 S
C1874 H1862 1.001 . S
C1874 C1872 1.561 . S
C1875 C1872 1.526 1_565 S
C1875 C1876 1.396 . S
C1875 C1880 1.390 . S
C1876 C1870 1.465 1_565 S
C1876 C1875 1.396 . S
C1876 C1877 1.399 . S
C1877 H1863 0.929 . S
C1877 C1876 1.399 . S
C1877 C1878 1.385 . S
C1878 H1864 0.931 . S
C1878 C1877 1.385 . S
C1878 C1879 1.389 . S
C1879 C1878 1.389 . S
C1879 C1880 1.387 . S
C1880 H1865 0.930 . S
C1880 C1875 1.390 . S
C1880 C1879 1.387 . S
H1881 C1893 0.930 . S
H1882 C1895 0.930 . S
H1883 C1896 0.930 . S
H1884 C1900 0.959 . S
H1885 C1900 0.959 . S
H1886 C1900 0.961 . S
H1887 C1901 0.918 1_545 S
H1888 C1901 0.961 . S
H1889 C1901 0.959 . S
H1890 C1904 0.929 . S
H1891 C1905 0.931 . S
H1892 C1907 0.930 . S
C1893 H1881 0.930 . S
C1893 C1894 1.399 . S
C1893 C1898 1.399 . S
C1894 C1893 1.399 . S
C1894 C1895 1.376 . S
C1895 H1882 0.930 . S
C1895 C1894 1.376 . S
C1895 C1896 1.388 . S
C1896 H1883 0.930 . S
C1896 C1895 1.388 . S
C1896 C1897 1.390 . S
C1897 C1896 1.390 . S
C1897 C1898 1.394 . S
C1897 C1903 1.465 1_545 S
C1898 C1893 1.399 . S
C1898 C1897 1.394 . S
C1898 C1899 1.516 1_545 S
C1899 C1898 1.516 1_565 S
C1899 C1900 1.502 . S
C1899 C1901 1.561 . S
C1899 C1902 1.526 . S
C1900 H1884 0.959 . S
C1900 H1885 0.959 . S
C1900 H1886 0.961 . S
C1900 C1899 1.502 . S
C1901 H1887 0.918 1_565 S
C1901 H1888 0.961 . S
C1901 H1889 0.959 . S
C1901 C1899 1.561 . S
C1902 C1899 1.526 . S
C1902 C1903 1.396 . S
C1902 C1907 1.390 . S
C1903 C1897 1.465 1_565 S
C1903 C1902 1.396 . S
C1903 C1904 1.399 . S
C1904 H1890 0.929 . S
C1904 C1903 1.399 . S
C1904 C1905 1.385 . S
C1905 H1891 0.931 . S
C1905 C1904 1.385 . S
C1905 C1906 1.389 . S
C1906 C1905 1.389 . S
C1906 C1907 1.387 . S
C1907 H1892 0.930 . S
C1907 C1902 1.390 . S
C1907 C1906 1.387 . S
H1908 C1920 0.930 . S
H1909 C1922 0.930 . S
H1910 C1923 0.930 . S
H1911 C1927 0.959 . S
H1912 C1927 0.959 . S
H1913 C1927 0.961 1_655 S
H1914 C1928 0.960 . S
H1915 C1928 0.961 1_455 S
H1916 C1928 0.959 . S
H1917 C1931 0.929 . S
H1918 C1932 0.931 . S
H1919 C1934 0.930 . S
C1920 H1908 0.930 . S
C1920 C1921 1.399 . S
C1920 C1925 1.399 . S
C1921 C1920 1.399 . S
C1921 C1922 1.376 . S
C1922 H1909 0.930 . S
C1922 C1921 1.376 . S
C1922 C1923 1.388 . S
C1923 H1910 0.930 . S
C1923 C1922 1.388 . S
C1923 C1924 1.390 . S
C1924 C1923 1.390 . S
C1924 C1925 1.394 . S
C1924 C1930 1.465 1_655 S
C1925 C1920 1.399 . S
C1925 C1924 1.394 . S
C1925 C1926 1.438 1_655 S
C1926 C1925 1.438 1_455 S
C1926 C1927 1.541 . S
C1926 C1928 1.576 1_455 S
C1926 C1929 1.551 . S
C1927 H1911 0.959 . S
C1927 H1912 0.959 . S
C1927 H1913 0.961 1_455 S
C1927 C1926 1.541 . S
C1928 H1914 0.960 . S
C1928 H1915 0.961 1_655 S
C1928 H1916 0.959 . S
C1928 C1926 1.576 1_655 S
C1929 C1926 1.551 . S
C1929 C1930 1.396 . S
C1929 C1934 1.390 . S
C1930 C1924 1.465 1_455 S
C1930 C1929 1.396 . S
C1930 C1931 1.399 . S
C1931 H1917 0.929 . S
C1931 C1930 1.399 . S
C1931 C1932 1.385 . S
C1932 H1918 0.931 . S
C1932 C1931 1.385 . S
C1932 C1933 1.389 . S
C1933 C1932 1.389 . S
C1933 C1934 1.387 . S
C1934 H1919 0.930 . S
C1934 C1929 1.390 . S
C1934 C1933 1.387 . S
H1935 C1947 0.930 . S
H1936 C1949 0.930 . S
H1937 C1950 0.930 . S
H1938 C1954 0.959 . S
H1939 C1954 0.959 . S
H1940 C1954 0.961 . S
H1941 C1955 0.960 . S
H1942 C1955 0.961 . S
H1943 C1955 0.959 . S
H1944 C1958 0.929 . S
H1945 C1959 0.931 . S
H1946 C1961 0.930 . S
C1947 H1935 0.930 . S
C1947 C1948 1.399 . S
C1947 C1952 1.399 . S
C1948 C1947 1.399 . S
C1948 C1949 1.376 . S
C1949 H1936 0.930 . S
C1949 C1948 1.376 . S
C1949 C1950 1.388 . S
C1950 H1937 0.930 . S
C1950 C1949 1.388 . S
C1950 C1951 1.390 . S
C1951 C1950 1.390 . S
C1951 C1952 1.394 . S
C1951 C1957 1.465 . S
C1952 C1947 1.399 . S
C1952 C1951 1.394 . S
C1952 C1953 1.516 . S
C1953 C1952 1.516 . S
C1953 C1954 1.502 . S
C1953 C1955 1.561 . S
C1953 C1956 1.526 . S
C1954 H1938 0.959 . S
C1954 H1939 0.959 . S
C1954 H1940 0.961 . S
C1954 C1953 1.502 . S
C1955 H1941 0.960 . S
C1955 H1942 0.961 . S
C1955 H1943 0.959 . S
C1955 C1953 1.561 . S
C1956 C1953 1.526 . S
C1956 C1957 1.396 . S
C1956 C1961 1.390 . S
C1957 C1951 1.465 . S
C1957 C1956 1.396 . S
C1957 C1958 1.399 . S
C1958 H1944 0.929 . S
C1958 C1957 1.399 . S
C1958 C1959 1.385 . S
C1959 H1945 0.931 . S
C1959 C1958 1.385 . S
C1959 C1960 1.389 . S
C1960 C1959 1.389 . S
C1960 C1961 1.387 . S
C1961 H1946 0.930 . S
C1961 C1956 1.390 . S
C1961 C1960 1.387 . S
H1962 C1974 0.930 . S
H1963 C1976 0.930 . S
H1964 C1977 0.930 . S
H1965 C1981 0.959 . S
H1966 C1981 0.959 . S
H1967 C1981 0.961 . S
H1968 C1982 0.960 . S
H1969 C1982 0.961 . S
H1970 C1982 0.959 . S
H1971 C1985 0.929 . S
H1972 C1986 0.931 . S
H1973 C1988 0.930 . S
C1974 H1962 0.930 . S
C1974 C1975 1.399 . S
C1974 C1979 1.399 . S
C1975 C1974 1.399 . S
C1975 C1976 1.376 . S
C1976 H1963 0.930 . S
C1976 C1975 1.376 . S
C1976 C1977 1.388 . S
C1977 H1964 0.930 . S
C1977 C1976 1.388 . S
C1977 C1978 1.390 . S
C1978 C1977 1.390 . S
C1978 C1979 1.394 . S
C1978 C1984 1.465 . S
C1979 C1974 1.399 . S
C1979 C1978 1.394 . S
C1979 C1980 1.516 . S
C1980 C1979 1.516 . S
C1980 C1981 1.502 . S
C1980 C1982 1.561 . S
C1980 C1983 1.526 . S
C1981 H1965 0.959 . S
C1981 H1966 0.959 . S
C1981 H1967 0.961 . S
C1981 C1980 1.502 . S
C1982 H1968 0.960 . S
C1982 H1969 0.961 . S
C1982 H1970 0.959 . S
C1982 C1980 1.561 . S
C1983 C1980 1.526 . S
C1983 C1984 1.396 . S
C1983 C1988 1.390 . S
C1984 C1978 1.465 . S
C1984 C1983 1.396 . S
C1984 C1985 1.399 . S
C1985 H1971 0.929 . S
C1985 C1984 1.399 . S
C1985 C1986 1.385 . S
C1986 H1972 0.931 . S
C1986 C1985 1.385 . S
C1986 C1987 1.389 . S
C1987 C1986 1.389 . S
C1987 C1988 1.387 . S
C1988 H1973 0.930 . S
C1988 C1983 1.390 . S
C1988 C1987 1.387 . S
H1989 C2001 0.930 . S
H1990 C2003 0.930 . S
H1991 C2004 0.930 . S
H1992 C2008 0.959 . S
H1993 C2008 0.959 . S
H1994 C2008 0.961 . S
H1995 C2009 0.960 . S
H1996 C2009 0.961 . S
H1997 C2009 0.959 . S
H1998 C2012 0.929 . S
H1999 C2013 0.931 . S
H2000 C2015 0.930 . S
C2001 H1989 0.930 . S
C2001 C2002 1.399 . S
C2001 C2006 1.399 . S
C2002 C2001 1.399 . S
C2002 C2003 1.376 . S
C2003 H1990 0.930 . S
C2003 C2002 1.376 . S
C2003 C2004 1.388 . S
C2004 H1991 0.930 . S
C2004 C2003 1.388 . S
C2004 C2005 1.390 . S
C2005 C2004 1.390 . S
C2005 C2006 1.394 . S
C2005 C2011 1.465 . S
C2006 C2001 1.399 . S
C2006 C2005 1.394 . S
C2006 C2007 1.516 . S
C2007 C2006 1.516 . S
C2007 C2008 1.502 . S
C2007 C2009 1.561 . S
C2007 C2010 1.526 . S
C2008 H1992 0.959 . S
C2008 H1993 0.959 . S
C2008 H1994 0.961 . S
C2008 C2007 1.502 . S
C2009 H1995 0.960 . S
C2009 H1996 0.961 . S
C2009 H1997 0.959 . S
C2009 C2007 1.561 . S
C2010 C2007 1.526 . S
C2010 C2011 1.396 . S
C2010 C2015 1.390 . S
C2011 C2005 1.465 . S
C2011 C2010 1.396 . S
C2011 C2012 1.399 . S
C2012 H1998 0.929 . S
C2012 C2011 1.399 . S
C2012 C2013 1.385 . S
C2013 H1999 0.931 . S
C2013 C2012 1.385 . S
C2013 C2014 1.389 . S
C2014 C2013 1.389 . S
C2014 C2015 1.387 . S
C2015 H2000 0.930 . S
C2015 C2010 1.390 . S
C2015 C2014 1.387 . S
H2016 C2028 0.930 . S
H2017 C2030 0.930 . S
H2018 C2031 0.930 . S
H2019 C2035 0.959 . S
H2020 C2035 0.959 . S
H2021 C2035 0.961 . S
H2022 C2036 0.960 . S
H2023 C2036 0.961 . S
H2024 C2036 0.959 . S
H2025 C2039 0.929 . S
H2026 C2040 0.931 . S
H2027 C2042 0.930 . S
C2028 H2016 0.930 . S
C2028 C2029 1.399 . S
C2028 C2033 1.399 . S
C2029 C2028 1.399 . S
C2029 C2030 1.376 . S
C2030 H2017 0.930 . S
C2030 C2029 1.376 . S
C2030 C2031 1.388 . S
C2031 H2018 0.930 . S
C2031 C2030 1.388 . S
C2031 C2032 1.390 . S
C2032 C2031 1.390 . S
C2032 C2033 1.394 . S
C2032 C2038 1.465 . S
C2033 C2028 1.399 . S
C2033 C2032 1.394 . S
C2033 C2034 1.516 . S
C2034 C2033 1.516 . S
C2034 C2035 1.502 . S
C2034 C2036 1.561 . S
C2034 C2037 1.526 . S
C2035 H2019 0.959 . S
C2035 H2020 0.959 . S
C2035 H2021 0.961 . S
C2035 C2034 1.502 . S
C2036 H2022 0.960 . S
C2036 H2023 0.961 . S
C2036 H2024 0.959 . S
C2036 C2034 1.561 . S
C2037 C2034 1.526 . S
C2037 C2038 1.396 . S
C2037 C2042 1.390 . S
C2038 C2032 1.465 . S
C2038 C2037 1.396 . S
C2038 C2039 1.399 . S
C2039 H2025 0.929 . S
C2039 C2038 1.399 . S
C2039 C2040 1.385 . S
C2040 H2026 0.931 . S
C2040 C2039 1.385 . S
C2040 C2041 1.389 . S
C2041 C2040 1.389 . S
C2041 C2042 1.387 . S
C2042 H2027 0.930 . S
C2042 C2037 1.390 . S
C2042 C2041 1.387 . S
H2043 C2055 0.930 . S
H2044 C2057 0.930 . S
H2045 C2058 0.930 . S
H2046 C2062 0.959 . S
H2047 C2062 0.959 . S
H2048 C2062 0.961 . S
H2049 C2063 0.960 . S
H2050 C2063 0.961 . S
H2051 C2063 0.959 . S
H2052 C2066 0.929 . S
H2053 C2067 0.931 . S
H2054 C2069 0.930 . S
C2055 H2043 0.930 . S
C2055 C2056 1.399 . S
C2055 C2060 1.399 . S
C2056 C2055 1.399 . S
C2056 C2057 1.376 . S
C2057 H2044 0.930 . S
C2057 C2056 1.376 . S
C2057 C2058 1.388 . S
C2058 H2045 0.930 . S
C2058 C2057 1.388 . S
C2058 C2059 1.390 . S
C2059 C2058 1.390 . S
C2059 C2060 1.394 . S
C2059 C2065 1.465 . S
C2060 C2055 1.399 . S
C2060 C2059 1.394 . S
C2060 C2061 1.516 . S
C2061 C2060 1.516 . S
C2061 C2062 1.502 . S
C2061 C2063 1.561 . S
C2061 C2064 1.526 . S
C2062 H2046 0.959 . S
C2062 H2047 0.959 . S
C2062 H2048 0.961 . S
C2062 C2061 1.502 . S
C2063 H2049 0.960 . S
C2063 H2050 0.961 . S
C2063 H2051 0.959 . S
C2063 C2061 1.561 . S
C2064 C2061 1.526 . S
C2064 C2065 1.396 . S
C2064 C2069 1.390 . S
C2065 C2059 1.465 . S
C2065 C2064 1.396 . S
C2065 C2066 1.399 . S
C2066 H2052 0.929 . S
C2066 C2065 1.399 . S
C2066 C2067 1.385 . S
C2067 H2053 0.931 . S
C2067 C2066 1.385 . S
C2067 C2068 1.389 . S
C2068 C2067 1.389 . S
C2068 C2069 1.387 . S
C2069 H2054 0.930 . S
C2069 C2064 1.390 . S
C2069 C2068 1.387 . S
H2070 C2082 0.930 . S
H2071 C2084 0.930 . S
H2072 C2085 0.930 . S
H2073 C2089 0.959 . S
H2074 C2089 0.959 . S
H2075 C2089 0.961 . S
H2076 C2090 0.960 . S
H2077 C2090 0.961 . S
H2078 C2090 0.959 . S
H2079 C2093 0.929 . S
H2080 C2094 0.931 . S
H2081 C2096 0.930 . S
C2082 H2070 0.930 . S
C2082 C2083 1.399 . S
C2082 C2087 1.399 . S
C2083 C2082 1.399 . S
C2083 C2084 1.376 . S
C2084 H2071 0.930 . S
C2084 C2083 1.376 . S
C2084 C2085 1.388 . S
C2085 H2072 0.930 . S
C2085 C2084 1.388 . S
C2085 C2086 1.390 . S
C2086 C2085 1.390 . S
C2086 C2087 1.394 . S
C2086 C2092 1.465 . S
C2087 C2082 1.399 . S
C2087 C2086 1.394 . S
C2087 C2088 1.516 . S
C2088 C2087 1.516 . S
C2088 C2089 1.502 . S
C2088 C2090 1.561 . S
C2088 C2091 1.526 . S
C2089 H2073 0.959 . S
C2089 H2074 0.959 . S
C2089 H2075 0.961 . S
C2089 C2088 1.502 . S
C2090 H2076 0.960 . S
C2090 H2077 0.961 . S
C2090 H2078 0.959 . S
C2090 C2088 1.561 . S
C2091 C2088 1.526 . S
C2091 C2092 1.396 . S
C2091 C2096 1.390 . S
C2092 C2086 1.465 . S
C2092 C2091 1.396 . S
C2092 C2093 1.399 . S
C2093 H2079 0.929 . S
C2093 C2092 1.399 . S
C2093 C2094 1.385 . S
C2094 H2080 0.931 . S
C2094 C2093 1.385 . S
C2094 C2095 1.389 . S
C2095 C2094 1.389 . S
C2095 C2096 1.387 . S
C2096 H2081 0.930 . S
C2096 C2091 1.390 . S
C2096 C2095 1.387 . S
H2097 C2109 0.930 . S
H2098 C2111 0.930 . S
H2099 C2112 0.930 . S
H2100 C2116 0.959 . S
H2101 C2116 0.959 . S
H2102 C2116 0.961 . S
H2103 C2117 0.960 . S
H2104 C2117 0.961 . S
H2105 C2117 0.959 . S
H2106 C2120 0.929 . S
H2107 C2121 0.931 . S
H2108 C2123 0.930 . S
C2109 H2097 0.930 . S
C2109 C2110 1.399 . S
C2109 C2114 1.399 . S
C2110 C2109 1.399 . S
C2110 C2111 1.376 . S
C2111 H2098 0.930 . S
C2111 C2110 1.376 . S
C2111 C2112 1.388 . S
C2112 H2099 0.930 . S
C2112 C2111 1.388 . S
C2112 C2113 1.390 . S
C2113 C2112 1.390 . S
C2113 C2114 1.394 . S
C2113 C2119 1.465 . S
C2114 C2109 1.399 . S
C2114 C2113 1.394 . S
C2114 C2115 1.516 . S
C2115 C2114 1.516 . S
C2115 C2116 1.502 . S
C2115 C2117 1.561 . S
C2115 C2118 1.526 . S
C2116 H2100 0.959 . S
C2116 H2101 0.959 . S
C2116 H2102 0.961 . S
C2116 C2115 1.502 . S
C2117 H2103 0.960 . S
C2117 H2104 0.961 . S
C2117 H2105 0.959 . S
C2117 C2115 1.561 . S
C2118 C2115 1.526 . S
C2118 C2119 1.396 . S
C2118 C2123 1.390 . S
C2119 C2113 1.465 . S
C2119 C2118 1.396 . S
C2119 C2120 1.399 . S
C2120 H2106 0.929 . S
C2120 C2119 1.399 . S
C2120 C2121 1.385 . S
C2121 H2107 0.931 . S
C2121 C2120 1.385 . S
C2121 C2122 1.389 . S
C2122 C2121 1.389 . S
C2122 C2123 1.387 . S
C2123 H2108 0.930 . S
C2123 C2118 1.390 . S
C2123 C2122 1.387 . S
H2124 C2136 0.930 . S
H2125 C2138 0.930 . S
H2126 C2139 0.930 . S
H2127 C2143 0.959 . S
H2128 C2143 0.959 . S
H2129 C2143 0.961 . S
H2130 C2144 0.960 . S
H2131 C2144 0.961 . S
H2132 C2144 0.959 . S
H2133 C2147 0.929 . S
H2134 C2148 0.931 . S
H2135 C2150 0.930 . S
C2136 H2124 0.930 . S
C2136 C2137 1.399 . S
C2136 C2141 1.399 . S
C2137 C2136 1.399 . S
C2137 C2138 1.376 . S
C2138 H2125 0.930 . S
C2138 C2137 1.376 . S
C2138 C2139 1.388 . S
C2139 H2126 0.930 . S
C2139 C2138 1.388 . S
C2139 C2140 1.390 . S
C2140 C2139 1.390 . S
C2140 C2141 1.394 . S
C2140 C2146 1.465 . S
C2141 C2136 1.399 . S
C2141 C2140 1.394 . S
C2141 C2142 1.516 . S
C2142 C2141 1.516 . S
C2142 C2143 1.502 . S
C2142 C2144 1.561 . S
C2142 C2145 1.526 . S
C2143 H2127 0.959 . S
C2143 H2128 0.959 . S
C2143 H2129 0.961 . S
C2143 C2142 1.502 . S
C2144 H2130 0.960 . S
C2144 H2131 0.961 . S
C2144 H2132 0.959 . S
C2144 C2142 1.561 . S
C2145 C2142 1.526 . S
C2145 C2146 1.396 . S
C2145 C2150 1.390 . S
C2146 C2140 1.465 . S
C2146 C2145 1.396 . S
C2146 C2147 1.399 . S
C2147 H2133 0.929 . S
C2147 C2146 1.399 . S
C2147 C2148 1.385 . S
C2148 H2134 0.931 . S
C2148 C2147 1.385 . S
C2148 C2149 1.389 . S
C2149 C2148 1.389 . S
C2149 C2150 1.387 . S
C2150 H2135 0.930 . S
C2150 C2145 1.390 . S
C2150 C2149 1.387 . S
H2151 C2163 0.930 . S
H2152 C2165 0.930 . S
H2153 C2166 0.930 . S
H2154 C2170 0.959 . S
H2155 C2170 0.959 . S
H2156 C2170 0.961 . S
H2157 C2171 0.960 . S
H2158 C2171 0.961 . S
H2159 C2171 0.959 . S
H2160 C2174 0.929 . S
H2161 C2175 0.931 . S
H2162 C2177 0.930 . S
C2163 H2151 0.930 . S
C2163 C2164 1.399 . S
C2163 C2168 1.399 . S
C2164 C2163 1.399 . S
C2164 C2165 1.376 . S
C2165 H2152 0.930 . S
C2165 C2164 1.376 . S
C2165 C2166 1.388 . S
C2166 H2153 0.930 . S
C2166 C2165 1.388 . S
C2166 C2167 1.390 . S
C2167 C2166 1.390 . S
C2167 C2168 1.394 . S
C2167 C2173 1.465 . S
C2168 C2163 1.399 . S
C2168 C2167 1.394 . S
C2168 C2169 1.516 . S
C2169 C2168 1.516 . S
C2169 C2170 1.502 . S
C2169 C2171 1.561 . S
C2169 C2172 1.526 . S
C2170 H2154 0.959 . S
C2170 H2155 0.959 . S
C2170 H2156 0.961 . S
C2170 C2169 1.502 . S
C2171 H2157 0.960 . S
C2171 H2158 0.961 . S
C2171 H2159 0.959 . S
C2171 C2169 1.561 . S
C2172 C2169 1.526 . S
C2172 C2173 1.396 . S
C2172 C2177 1.390 . S
C2173 C2167 1.465 . S
C2173 C2172 1.396 . S
C2173 C2174 1.399 . S
C2174 H2160 0.929 . S
C2174 C2173 1.399 . S
C2174 C2175 1.385 . S
C2175 H2161 0.931 . S
C2175 C2174 1.385 . S
C2175 C2176 1.389 . S
C2176 C2175 1.389 . S
C2176 C2177 1.387 . S
C2177 H2162 0.930 . S
C2177 C2172 1.390 . S
C2177 C2176 1.387 . S
H2178 C2190 0.930 . S
H2179 C2192 0.930 . S
H2180 C2193 0.930 . S
H2181 C2197 0.959 . S
H2182 C2197 0.959 . S
H2183 C2197 0.961 . S
H2184 C2198 0.960 . S
H2185 C2198 0.961 . S
H2186 C2198 0.959 . S
H2187 C2201 0.929 . S
H2188 C2202 0.931 . S
H2189 C2204 0.930 . S
C2190 H2178 0.930 . S
C2190 C2191 1.399 . S
C2190 C2195 1.399 . S
C2191 C2190 1.399 . S
C2191 C2192 1.376 . S
C2192 H2179 0.930 . S
C2192 C2191 1.376 . S
C2192 C2193 1.388 . S
C2193 H2180 0.930 . S
C2193 C2192 1.388 . S
C2193 C2194 1.390 . S
C2194 C2193 1.390 . S
C2194 C2195 1.394 . S
C2194 C2200 1.465 . S
C2195 C2190 1.399 . S
C2195 C2194 1.394 . S
C2195 C2196 1.516 . S
C2196 C2195 1.516 . S
C2196 C2197 1.502 . S
C2196 C2198 1.561 . S
C2196 C2199 1.526 . S
C2197 H2181 0.959 . S
C2197 H2182 0.959 . S
C2197 H2183 0.961 . S
C2197 C2196 1.502 . S
C2198 H2184 0.960 . S
C2198 H2185 0.961 . S
C2198 H2186 0.959 . S
C2198 C2196 1.561 . S
C2199 C2196 1.526 . S
C2199 C2200 1.396 . S
C2199 C2204 1.390 . S
C2200 C2194 1.465 . S
C2200 C2199 1.396 . S
C2200 C2201 1.399 . S
C2201 H2187 0.929 . S
C2201 C2200 1.399 . S
C2201 C2202 1.385 . S
C2202 H2188 0.931 . S
C2202 C2201 1.385 . S
C2202 C2203 1.389 . S
C2203 C2202 1.389 . S
C2203 C2204 1.387 . S
C2204 H2189 0.930 . S
C2204 C2199 1.390 . S
C2204 C2203 1.387 . S
H2205 C2217 0.930 . S
H2206 C2219 0.930 . S
H2207 C2220 0.930 . S
H2208 C2224 0.959 . S
H2209 C2224 0.959 . S
H2210 C2224 0.961 . S
H2211 C2225 0.960 . S
H2212 C2225 0.961 . S
H2213 C2225 0.959 . S
H2214 C2228 0.929 . S
H2215 C2229 0.931 . S
H2216 C2231 0.930 . S
C2217 H2205 0.930 . S
C2217 C2218 1.399 . S
C2217 C2222 1.399 . S
C2218 C2217 1.399 . S
C2218 C2219 1.376 . S
C2219 H2206 0.930 . S
C2219 C2218 1.376 . S
C2219 C2220 1.388 . S
C2220 H2207 0.930 . S
C2220 C2219 1.388 . S
C2220 C2221 1.390 . S
C2221 C2220 1.390 . S
C2221 C2222 1.394 . S
C2221 C2227 1.465 . S
C2222 C2217 1.399 . S
C2222 C2221 1.394 . S
C2222 C2223 1.516 . S
C2223 C2222 1.516 . S
C2223 C2224 1.502 . S
C2223 C2225 1.561 . S
C2223 C2226 1.526 . S
C2224 H2208 0.959 . S
C2224 H2209 0.959 . S
C2224 H2210 0.961 . S
C2224 C2223 1.502 . S
C2225 H2211 0.960 . S
C2225 H2212 0.961 . S
C2225 H2213 0.959 . S
C2225 C2223 1.561 . S
C2226 C2223 1.526 . S
C2226 C2227 1.396 . S
C2226 C2231 1.390 . S
C2227 C2221 1.465 . S
C2227 C2226 1.396 . S
C2227 C2228 1.399 . S
C2228 H2214 0.929 . S
C2228 C2227 1.399 . S
C2228 C2229 1.385 . S
C2229 H2215 0.931 . S
C2229 C2228 1.385 . S
C2229 C2230 1.389 . S
C2230 C2229 1.389 . S
C2230 C2231 1.387 . S
C2231 H2216 0.930 . S
C2231 C2226 1.390 . S
C2231 C2230 1.387 . S
H2232 C2244 0.930 . S
H2233 C2246 0.930 . S
H2234 C2247 0.930 . S
H2235 C2251 0.959 . S
H2236 C2251 0.959 . S
H2237 C2251 0.961 . S
H2238 C2252 0.960 . S
H2239 C2252 0.961 . S
H2240 C2252 0.959 . S
H2241 C2255 0.929 . S
H2242 C2256 0.931 . S
H2243 C2258 0.930 . S
C2244 H2232 0.930 . S
C2244 C2245 1.399 . S
C2244 C2249 1.399 . S
C2245 C2244 1.399 . S
C2245 C2246 1.376 . S
C2246 H2233 0.930 . S
C2246 C2245 1.376 . S
C2246 C2247 1.388 . S
C2247 H2234 0.930 . S
C2247 C2246 1.388 . S
C2247 C2248 1.390 . S
C2248 C2247 1.390 . S
C2248 C2249 1.394 . S
C2248 C2254 1.465 . S
C2249 C2244 1.399 . S
C2249 C2248 1.394 . S
C2249 C2250 1.516 . S
C2250 C2249 1.516 . S
C2250 C2251 1.502 . S
C2250 C2252 1.561 1_554 S
C2250 C2253 1.526 . S
C2251 H2235 0.959 . S
C2251 H2236 0.959 . S
C2251 H2237 0.961 . S
C2251 C2250 1.502 . S
C2252 H2238 0.960 . S
C2252 H2239 0.961 . S
C2252 H2240 0.959 . S
C2252 C2250 1.561 1_556 S
C2253 C2250 1.526 . S
C2253 C2254 1.396 . S
C2253 C2258 1.390 . S
C2254 C2248 1.465 . S
C2254 C2253 1.396 . S
C2254 C2255 1.399 . S
C2255 H2241 0.929 . S
C2255 C2254 1.399 . S
C2255 C2256 1.385 . S
C2256 H2242 0.931 . S
C2256 C2255 1.385 . S
C2256 C2257 1.389 . S
C2257 C2256 1.389 . S
C2257 C2258 1.387 . S
C2258 H2243 0.930 . S
C2258 C2253 1.390 . S
C2258 C2257 1.387 . S
H2259 C2271 0.930 . S
H2260 C2273 0.930 . S
H2261 C2274 0.930 . S
H2262 C2278 0.959 . S
H2263 C2278 0.959 . S
H2264 C2278 0.961 . S
H2265 C2279 0.960 . S
H2266 C2279 0.961 . S
H2267 C2279 0.959 . S
H2268 C2282 0.929 . S
H2269 C2283 0.931 . S
H2270 C2285 0.930 . S
C2271 H2259 0.930 . S
C2271 C2272 1.399 . S
C2271 C2276 1.399 . S
C2272 C2271 1.399 . S
C2272 C2273 1.376 . S
C2273 H2260 0.930 . S
C2273 C2272 1.376 . S
C2273 C2274 1.388 . S
C2274 H2261 0.930 . S
C2274 C2273 1.388 . S
C2274 C2275 1.390 . S
C2275 C2274 1.390 . S
C2275 C2276 1.394 . S
C2275 C2281 1.465 . S
C2276 C2271 1.399 . S
C2276 C2275 1.394 . S
C2276 C2277 1.516 . S
C2277 C2276 1.516 . S
C2277 C2278 1.502 . S
C2277 C2279 1.561 . S
C2277 C2280 1.526 . S
C2278 H2262 0.959 . S
C2278 H2263 0.959 . S
C2278 H2264 0.961 . S
C2278 C2277 1.502 . S
C2279 H2265 0.960 . S
C2279 H2266 0.961 . S
C2279 H2267 0.959 . S
C2279 C2277 1.561 . S
C2280 C2277 1.526 . S
C2280 C2281 1.396 . S
C2280 C2285 1.390 . S
C2281 C2275 1.465 . S
C2281 C2280 1.396 . S
C2281 C2282 1.399 . S
C2282 H2268 0.929 . S
C2282 C2281 1.399 . S
C2282 C2283 1.385 . S
C2283 H2269 0.931 . S
C2283 C2282 1.385 . S
C2283 C2284 1.389 . S
C2284 C2283 1.389 . S
C2284 C2285 1.387 . S
C2285 H2270 0.930 . S
C2285 C2280 1.390 . S
C2285 C2284 1.387 . S
H2286 C2298 0.930 . S
H2287 C2300 0.930 . S
H2288 C2301 0.930 1_554 S
H2289 C2305 0.959 . S
H2290 C2305 0.959 . S
H2291 C2305 0.961 . S
H2292 C2306 0.960 . S
H2293 C2306 0.961 . S
H2294 C2306 0.959 . S
H2295 C2309 0.929 1_554 S
H2296 C2310 0.931 . S
H2297 C2312 0.930 . S
C2298 H2286 0.930 . S
C2298 C2299 1.399 . S
C2298 C2303 1.399 . S
C2299 C2298 1.399 . S
C2299 C2300 1.376 . S
C2300 H2287 0.930 . S
C2300 C2299 1.376 . S
C2300 C2301 1.388 . S
C2301 H2288 0.930 1_556 S
C2301 C2300 1.388 . S
C2301 C2302 1.390 . S
C2302 C2301 1.390 . S
C2302 C2303 1.394 . S
C2302 C2308 1.465 . S
C2303 C2298 1.399 . S
C2303 C2302 1.394 . S
C2303 C2304 1.516 . S
C2304 C2303 1.516 . S
C2304 C2305 1.502 . S
C2304 C2306 1.561 . S
C2304 C2307 1.526 . S
C2305 H2289 0.959 . S
C2305 H2290 0.959 . S
C2305 H2291 0.961 . S
C2305 C2304 1.502 . S
C2306 H2292 0.960 . S
C2306 H2293 0.961 . S
C2306 H2294 0.959 . S
C2306 C2304 1.561 . S
C2307 C2304 1.526 . S
C2307 C2308 1.396 . S
C2307 C2312 1.390 . S
C2308 C2302 1.465 . S
C2308 C2307 1.396 . S
C2308 C2309 1.399 . S
C2309 H2295 0.929 1_556 S
C2309 C2308 1.399 . S
C2309 C2310 1.385 . S
C2310 H2296 0.931 . S
C2310 C2309 1.385 . S
C2310 C2311 1.389 . S
C2311 C2310 1.389 . S
C2311 C2312 1.387 . S
C2312 H2297 0.930 . S
C2312 C2307 1.390 . S
C2312 C2311 1.387 . S
H2313 C2325 0.930 . S
H2314 C2327 0.930 . S
H2315 C2328 0.930 . S
H2316 C2332 0.959 . S
H2317 C2332 0.959 . S
H2318 C2332 0.961 . S
H2319 C2333 0.960 . S
H2320 C2333 0.961 . S
H2321 C2333 0.959 . S
H2322 C2336 0.929 . S
H2323 C2337 0.931 . S
H2324 C2339 0.930 . S
C2325 H2313 0.930 . S
C2325 C2326 1.399 . S
C2325 C2330 1.399 . S
C2326 C2325 1.399 . S
C2326 C2327 1.376 . S
C2327 H2314 0.930 . S
C2327 C2326 1.376 . S
C2327 C2328 1.388 . S
C2328 H2315 0.930 . S
C2328 C2327 1.388 . S
C2328 C2329 1.390 . S
C2329 C2328 1.390 . S
C2329 C2330 1.394 . S
C2329 C2335 1.465 . S
C2330 C2325 1.399 . S
C2330 C2329 1.394 . S
C2330 C2331 1.516 . S
C2331 C2330 1.516 . S
C2331 C2332 1.502 . S
C2331 C2333 1.561 . S
C2331 C2334 1.526 . S
C2332 H2316 0.959 . S
C2332 H2317 0.959 . S
C2332 H2318 0.961 . S
C2332 C2331 1.502 . S
C2333 H2319 0.960 . S
C2333 H2320 0.961 . S
C2333 H2321 0.959 . S
C2333 C2331 1.561 . S
C2334 C2331 1.526 . S
C2334 C2335 1.396 . S
C2334 C2339 1.390 . S
C2335 C2329 1.465 . S
C2335 C2334 1.396 . S
C2335 C2336 1.399 . S
C2336 H2322 0.929 . S
C2336 C2335 1.399 . S
C2336 C2337 1.385 . S
C2337 H2323 0.931 . S
C2337 C2336 1.385 . S
C2337 C2338 1.389 . S
C2338 C2337 1.389 . S
C2338 C2339 1.387 . S
C2339 H2324 0.930 . S
C2339 C2334 1.390 . S
C2339 C2338 1.387 . S
H2340 C2352 0.930 . S
H2341 C2354 0.930 . S
H2342 C2355 0.930 . S
H2343 C2359 0.956 1_554 S
H2344 C2359 0.959 . S
H2345 C2359 0.961 . S
H2346 C2360 0.960 . S
H2347 C2360 0.961 . S
H2348 C2360 0.959 . S
H2349 C2363 0.929 . S
H2350 C2364 0.931 . S
H2351 C2366 0.930 . S
C2352 H2340 0.930 . S
C2352 C2353 1.399 . S
C2352 C2357 1.399 . S
C2353 C2352 1.399 . S
C2353 C2354 1.376 . S
C2354 H2341 0.930 . S
C2354 C2353 1.376 . S
C2354 C2355 1.388 . S
C2355 H2342 0.930 . S
C2355 C2354 1.388 . S
C2355 C2356 1.390 . S
C2356 C2355 1.390 . S
C2356 C2357 1.394 . S
C2356 C2362 1.465 . S
C2357 C2352 1.399 . S
C2357 C2356 1.394 . S
C2357 C2358 1.516 . S
C2358 C2357 1.516 . S
C2358 C2359 1.502 . S
C2358 C2360 1.561 . S
C2358 C2361 1.526 . S
C2359 H2343 0.956 1_556 S
C2359 H2344 0.959 . S
C2359 H2345 0.961 . S
C2359 C2358 1.502 . S
C2360 H2346 0.960 . S
C2360 H2347 0.961 . S
C2360 H2348 0.959 . S
C2360 C2358 1.561 . S
C2361 C2358 1.526 . S
C2361 C2362 1.396 . S
C2361 C2366 1.390 . S
C2362 C2356 1.465 . S
C2362 C2361 1.396 . S
C2362 C2363 1.399 . S
C2363 H2349 0.929 . S
C2363 C2362 1.399 . S
C2363 C2364 1.385 . S
C2364 H2350 0.931 . S
C2364 C2363 1.385 . S
C2364 C2365 1.389 . S
C2365 C2364 1.389 . S
C2365 C2366 1.387 . S
C2366 H2351 0.930 . S
C2366 C2361 1.390 . S
C2366 C2365 1.387 . S
H2367 C2379 0.930 . S
H2368 C2381 0.930 . S
H2369 C2382 0.930 . S
H2370 C2386 0.959 . S
H2371 C2386 0.959 . S
H2372 C2386 0.961 . S
H2373 C2387 0.960 . S
H2374 C2387 0.961 . S
H2375 C2387 0.959 . S
H2376 C2390 0.929 . S
H2377 C2391 0.931 . S
H2378 C2393 0.930 . S
C2379 H2367 0.930 . S
C2379 C2380 1.399 . S
C2379 C2384 1.399 . S
C2380 C2379 1.399 . S
C2380 C2381 1.376 . S
C2381 H2368 0.930 . S
C2381 C2380 1.376 . S
C2381 C2382 1.388 . S
C2382 H2369 0.930 . S
C2382 C2381 1.388 . S
C2382 C2383 1.390 . S
C2383 C2382 1.390 . S
C2383 C2384 1.394 . S
C2383 C2389 1.465 . S
C2384 C2379 1.399 . S
C2384 C2383 1.394 . S
C2384 C2385 1.516 . S
C2385 C2384 1.516 . S
C2385 C2386 1.502 . S
C2385 C2387 1.561 . S
C2385 C2388 1.526 . S
C2386 H2370 0.959 . S
C2386 H2371 0.959 . S
C2386 H2372 0.961 . S
C2386 C2385 1.502 . S
C2387 H2373 0.960 . S
C2387 H2374 0.961 . S
C2387 H2375 0.959 . S
C2387 C2385 1.561 . S
C2388 C2385 1.526 . S
C2388 C2389 1.396 . S
C2388 C2393 1.390 . S
C2389 C2383 1.465 . S
C2389 C2388 1.396 . S
C2389 C2390 1.399 . S
C2390 H2376 0.929 . S
C2390 C2389 1.399 . S
C2390 C2391 1.385 . S
C2391 H2377 0.931 . S
C2391 C2390 1.385 . S
C2391 C2392 1.389 . S
C2392 C2391 1.389 . S
C2392 C2393 1.387 . S
C2393 H2378 0.930 . S
C2393 C2388 1.390 . S
C2393 C2392 1.387 . S
H2394 C2406 0.930 . S
H2395 C2408 0.930 . S
H2396 C2409 0.930 . S
H2397 C2413 0.959 . S
H2398 C2413 0.959 . S
H2399 C2413 0.961 . S
H2400 C2414 0.960 . S
H2401 C2414 0.961 . S
H2402 C2414 0.959 . S
H2403 C2417 0.929 . S
H2404 C2418 0.931 . S
H2405 C2420 0.930 . S
C2406 H2394 0.930 . S
C2406 C2407 1.399 . S
C2406 C2411 1.399 . S
C2407 C2406 1.399 . S
C2407 C2408 1.376 . S
C2408 H2395 0.930 . S
C2408 C2407 1.376 . S
C2408 C2409 1.388 . S
C2409 H2396 0.930 . S
C2409 C2408 1.388 . S
C2409 C2410 1.390 . S
C2410 C2409 1.390 . S
C2410 C2411 1.394 . S
C2410 C2416 1.465 . S
C2411 C2406 1.399 . S
C2411 C2410 1.394 . S
C2411 C2412 1.516 . S
C2412 C2411 1.516 . S
C2412 C2413 1.502 . S
C2412 C2414 1.561 . S
C2412 C2415 1.526 . S
C2413 H2397 0.959 . S
C2413 H2398 0.959 . S
C2413 H2399 0.961 . S
C2413 C2412 1.502 . S
C2414 H2400 0.960 . S
C2414 H2401 0.961 . S
C2414 H2402 0.959 . S
C2414 C2412 1.561 . S
C2415 C2412 1.526 . S
C2415 C2416 1.396 . S
C2415 C2420 1.390 . S
C2416 C2410 1.465 . S
C2416 C2415 1.396 . S
C2416 C2417 1.399 . S
C2417 H2403 0.929 . S
C2417 C2416 1.399 . S
C2417 C2418 1.385 . S
C2418 H2404 0.931 . S
C2418 C2417 1.385 . S
C2418 C2419 1.389 . S
C2419 C2418 1.389 . S
C2419 C2420 1.387 . S
C2420 H2405 0.930 . S
C2420 C2415 1.390 . S
C2420 C2419 1.387 . S
H2421 C2433 0.930 . S
H2422 C2435 0.930 . S
H2423 C2436 0.930 . S
H2424 C2440 0.959 . S
H2425 C2440 0.959 . S
H2426 C2440 0.961 . S
H2427 C2441 0.960 . S
H2428 C2441 0.961 . S
H2429 C2441 0.959 . S
H2430 C2444 0.929 . S
H2431 C2445 0.931 . S
H2432 C2447 0.930 . S
C2433 H2421 0.930 . S
C2433 C2434 1.399 . S
C2433 C2438 1.399 . S
C2434 C2433 1.399 . S
C2434 C2435 1.376 . S
C2435 H2422 0.930 . S
C2435 C2434 1.376 . S
C2435 C2436 1.388 . S
C2436 H2423 0.930 . S
C2436 C2435 1.388 . S
C2436 C2437 1.390 . S
C2437 C2436 1.390 . S
C2437 C2438 1.394 . S
C2437 C2443 1.465 . S
C2438 C2433 1.399 . S
C2438 C2437 1.394 . S
C2438 C2439 1.516 . S
C2439 C2438 1.516 . S
C2439 C2440 1.502 . S
C2439 C2441 1.561 . S
C2439 C2442 1.526 . S
C2440 H2424 0.959 . S
C2440 H2425 0.959 . S
C2440 H2426 0.961 . S
C2440 C2439 1.502 . S
C2441 H2427 0.960 . S
C2441 H2428 0.961 . S
C2441 H2429 0.959 . S
C2441 C2439 1.561 . S
C2442 C2439 1.526 . S
C2442 C2443 1.396 . S
C2442 C2447 1.390 . S
C2443 C2437 1.465 . S
C2443 C2442 1.396 . S
C2443 C2444 1.399 . S
C2444 H2430 0.929 . S
C2444 C2443 1.399 . S
C2444 C2445 1.385 . S
C2445 H2431 0.931 . S
C2445 C2444 1.385 . S
C2445 C2446 1.389 . S
C2446 C2445 1.389 . S
C2446 C2447 1.387 . S
C2447 H2432 0.930 . S
C2447 C2442 1.390 . S
C2447 C2446 1.387 . S
C517 C81 1.549 . S
C529 C11 1.533 . S
C544 C53 1.577 . S
C556 C25 1.579 . S
C571 C39 1.582 . S
C583 C67 1.570 . S
C598 C95 1.571 . S
C610 C165 1.534 . S
C625 C109 1.583 . S
C637 C137 1.554 . S
C652 C151 1.568 . S
C664 C123 1.576 . S
C679 C179 1.553 . S
C691 C249 1.533 1_556 S
C706 C193 1.533 . S
C718 C221 1.555 1_556 S
C733 C207 1.582 . S
C745 C235 1.572 1_556 S
C760 C333 1.535 . S
C772 C263 1.556 1_556 S
C787 C277 1.564 1_556 S
C799 C305 1.578 . S
C814 C319 1.583 . S
C826 C291 1.550 1_556 S
C841 C417 1.565 . S
C853 C347 1.537 1_554 S
C868 C389 1.560 . S
C880 C361 1.535 1_554 S
C895 C403 1.579 . S
C907 C375 1.551 1_554 S
C922 C431 1.535 . S
C934 C501 1.576 1_554 S
C949 C445 1.567 . S
C961 C473 1.577 1_554 S
C976 C459 1.573 . S
C988 C487 1.534 1_554 S
C1003 C82 1.045 . S
C1015 C12 1.054 . S
C1030 C26 1.038 . S
C1042 C54 1.032 . S
C1057 C68 1.052 . S
C1069 C40 1.042 . S
C1084 C96 1.054 . S
C1096 C166 1.039 . S
C1111 C110 1.040 . S
C1123 C138 1.055 . S
C1138 C152 1.050 . S
C1150 C124 1.054 . S
C1165 C180 1.039 . S
C1177 C250 1.050 . S
C1192 C222 1.055 . S
C1204 C194 1.047 . S
C1219 C236 1.032 . S
C1231 C208 1.035 . S
C1246 C264 1.032 . S
C1258 C334 1.040 . S
C1273 C278 1.050 . S
C1285 C306 1.053 . S
C1300 C320 1.048 . S
C1312 C292 1.055 . S
C1327 C418 1.050 . S
C1339 C348 1.055 . S
C1354 C362 1.032 . S
C1366 C390 1.035 . S
C1381 C376 1.033 . S
C1393 C404 1.041 . S
C1408 C502 1.036 . S
C1420 C432 1.053 . S
C1435 C474 1.038 . S
C1447 C446 1.033 . S
C1462 C488 1.047 . S
C1474 C460 1.033 . S
C1489 C228 1.492 . S
C1501 C4 1.468 . S
C1516 C242 1.521 . S
C1528 C18 1.511 . S
C1543 C214 1.522 . S
C1555 C32 1.500 . S
C1570 C46 1.481 . S
C1582 C368 1.513 . S
C1597 C60 1.472 . S
C1609 C340 1.503 . S
C1624 C74 1.483 . S
C1636 C354 1.467 . S
C1651 C88 1.486 . S
C1663 C480 1.473 . S
C1678 C102 1.517 . S
C1690 C494 1.522 . S
C1705 C116 1.506 . S
C1717 C466 1.518 . S
C1732 C130 1.496 . S
C1744 C284 1.512 . S
C1759 C256 1.498 . S
C1771 C144 1.483 . S
C1786 C270 1.515 . S
C1798 C158 1.500 . S
C1813 C396 1.519 . S
C1825 C172 1.491 . S
C1840 C186 1.512 . S
C1852 C410 1.481 . S
C1867 C200 1.507 . S
C1879 C382 1.476 . S
C1894 C298 1.489 . S
C1906 C452 1.505 . S
C1921 C312 1.467 . S
C1933 C424 1.477 . S
C1948 C438 1.486 . S
C1960 C326 1.502 . S
C1975 C5 1.337 . S
C1987 C145 1.326 . S
C2002 C159 1.206 . S
C2014 C19 1.222 . S
C2029 C131 1.205 . S
C2041 C33 1.200 . S
C2056 C47 1.274 . S
C2068 C117 1.295 . S
C2083 C61 1.267 . S
C2095 C89 1.289 . S
C2110 C75 1.203 . S
C2122 C103 1.216 . S
C2137 C173 1.224 . S
C2149 C313 1.244 . S
C2164 C327 1.206 . S
C2176 C187 1.200 . S
C2191 C299 1.229 . S
C2203 C201 1.214 . S
C2218 C215 1.220 . S
C2230 C285 1.208 . S
C2245 C229 1.336 . S
C2257 C257 1.325 . S
C2272 C271 1.222 . S
C2284 C243 1.209 . S
C2299 C341 1.233 . S
C2311 C481 1.255 . S
C2326 C495 1.338 . S
C2338 C355 1.327 . S
C2353 C369 1.228 . S
C2365 C467 1.213 . S
C2380 C383 1.229 . S
C2392 C453 1.214 . S
C2407 C425 1.218 . S
C2419 C397 1.238 . S
C2434 C411 1.324 . S
C2446 C439 1.307 . S
