# Generated by pormake.
# Topology zfn, (5)-cn, num edge types: 1
# Building blocks:
#     Node 0, Type 0, BuildingBlock: XOMCOT_clean_sbu_0, # of connection points: 5
#     Node 1, Type 0, BuildingBlock: XOMCOT_clean_sbu_0, # of connection points: 5
#     Node 2, Type 0, BuildingBlock: XOMCOT_clean_sbu_0, # of connection points: 5
#     Node 3, Type 0, BuildingBlock: XOMCOT_clean_sbu_0, # of connection points: 5
#     Node 4, Type 0, BuildingBlock: XOMCOT_clean_sbu_0, # of connection points: 5
#     Node 5, Type 0, BuildingBlock: XOMCOT_clean_sbu_0, # of connection points: 5
#     Node 6, Type 0, BuildingBlock: XOMCOT_clean_sbu_0, # of connection points: 5
#     Node 7, Type 0, BuildingBlock: XOMCOT_clean_sbu_0, # of connection points: 5
#     Node 8, Type 0, BuildingBlock: XOMCOT_clean_sbu_0, # of connection points: 5
#     Node 9, Type 0, BuildingBlock: XOMCOT_clean_sbu_0, # of connection points: 5
#     Node 10, Type 0, BuildingBlock: XOMCOT_clean_sbu_0, # of connection points: 5
#     Node 11, Type 0, BuildingBlock: XOMCOT_clean_sbu_0, # of connection points: 5
#     Node 12, Type 0, BuildingBlock: XOMCOT_clean_sbu_0, # of connection points: 5
#     Node 13, Type 0, BuildingBlock: XOMCOT_clean_sbu_0, # of connection points: 5
#     Node 14, Type 0, BuildingBlock: XOMCOT_clean_sbu_0, # of connection points: 5
#     Node 15, Type 0, BuildingBlock: XOMCOT_clean_sbu_0, # of connection points: 5
#     Edge 16, Type (0, 0), BuildingBlock: XIVTED_clean_linker_0, # of connection points: 2
#     Edge 17, Type (0, 0), BuildingBlock: XIVTED_clean_linker_0, # of connection points: 2
#     Edge 18, Type (0, 0), BuildingBlock: XIVTED_clean_linker_0, # of connection points: 2
#     Edge 19, Type (0, 0), BuildingBlock: XIVTED_clean_linker_0, # of connection points: 2
#     Edge 20, Type (0, 0), BuildingBlock: XIVTED_clean_linker_0, # of connection points: 2
#     Edge 21, Type (0, 0), BuildingBlock: XIVTED_clean_linker_0, # of connection points: 2
#     Edge 22, Type (0, 0), BuildingBlock: XIVTED_clean_linker_0, # of connection points: 2
#     Edge 23, Type (0, 0), BuildingBlock: XIVTED_clean_linker_0, # of connection points: 2
#     Edge 24, Type (0, 0), BuildingBlock: XIVTED_clean_linker_0, # of connection points: 2
#     Edge 25, Type (0, 0), BuildingBlock: XIVTED_clean_linker_0, # of connection points: 2
#     Edge 26, Type (0, 0), BuildingBlock: XIVTED_clean_linker_0, # of connection points: 2
#     Edge 27, Type (0, 0), BuildingBlock: XIVTED_clean_linker_0, # of connection points: 2
#     Edge 28, Type (0, 0), BuildingBlock: XIVTED_clean_linker_0, # of connection points: 2
#     Edge 29, Type (0, 0), BuildingBlock: XIVTED_clean_linker_0, # of connection points: 2
#     Edge 30, Type (0, 0), BuildingBlock: XIVTED_clean_linker_0, # of connection points: 2
#     Edge 31, Type (0, 0), BuildingBlock: XIVTED_clean_linker_0, # of connection points: 2
#     Edge 32, Type (0, 0), BuildingBlock: XIVTED_clean_linker_0, # of connection points: 2
#     Edge 33, Type (0, 0), BuildingBlock: XIVTED_clean_linker_0, # of connection points: 2
#     Edge 34, Type (0, 0), BuildingBlock: XIVTED_clean_linker_0, # of connection points: 2
#     Edge 35, Type (0, 0), BuildingBlock: XIVTED_clean_linker_0, # of connection points: 2
#     Edge 36, Type (0, 0), BuildingBlock: XIVTED_clean_linker_0, # of connection points: 2
#     Edge 37, Type (0, 0), BuildingBlock: XIVTED_clean_linker_0, # of connection points: 2
#     Edge 38, Type (0, 0), BuildingBlock: XIVTED_clean_linker_0, # of connection points: 2
#     Edge 39, Type (0, 0), BuildingBlock: XIVTED_clean_linker_0, # of connection points: 2
#     Edge 40, Type (0, 0), BuildingBlock: XIVTED_clean_linker_0, # of connection points: 2
#     Edge 41, Type (0, 0), BuildingBlock: XIVTED_clean_linker_0, # of connection points: 2
#     Edge 42, Type (0, 0), BuildingBlock: XIVTED_clean_linker_0, # of connection points: 2
#     Edge 43, Type (0, 0), BuildingBlock: XIVTED_clean_linker_0, # of connection points: 2
#     Edge 44, Type (0, 0), BuildingBlock: XIVTED_clean_linker_0, # of connection points: 2
#     Edge 45, Type (0, 0), BuildingBlock: XIVTED_clean_linker_0, # of connection points: 2
#     Edge 46, Type (0, 0), BuildingBlock: XIVTED_clean_linker_0, # of connection points: 2
#     Edge 47, Type (0, 0), BuildingBlock: XIVTED_clean_linker_0, # of connection points: 2
#     Edge 48, Type (0, 0), BuildingBlock: XIVTED_clean_linker_0, # of connection points: 2
#     Edge 49, Type (0, 0), BuildingBlock: XIVTED_clean_linker_0, # of connection points: 2
#     Edge 50, Type (0, 0), BuildingBlock: XIVTED_clean_linker_0, # of connection points: 2
#     Edge 51, Type (0, 0), BuildingBlock: XIVTED_clean_linker_0, # of connection points: 2
#     Edge 52, Type (0, 0), BuildingBlock: XIVTED_clean_linker_0, # of connection points: 2
#     Edge 53, Type (0, 0), BuildingBlock: XIVTED_clean_linker_0, # of connection points: 2
#     Edge 54, Type (0, 0), BuildingBlock: XIVTED_clean_linker_0, # of connection points: 2
#     Edge 55, Type (0, 0), BuildingBlock: XIVTED_clean_linker_0, # of connection points: 2
# Relax obj value: 0.133
# Max RMSD: 0.137
# Mean RMSD: 0.137
data_MOF--net-zfn--node1-XOMCOT_clean_sbu_0--edge1-XIVTED_clean_linker_0
_symmetry_space_group_name_H-M    P1
_symmetry_Int_Tables_number       1
_symmetry_cell_setting            triclinic
loop_
_symmetry_equiv_pos_as_xyz
'x, y, z'
_cell_length_a     75.644663
_cell_length_b     75.61384
_cell_length_c     17.738679
_cell_angle_alpha  90.019268
_cell_angle_beta   90.039216
_cell_angle_gamma 90.001255
loop_
_atom_site_label
_atom_site_type_symbol
_atom_site_fract_x
_atom_site_fract_y
_atom_site_fract_z
_atom_type_partial_charge
Co0 Co 0.01889 0.33831 0.19895 0.0
C1 C 0.02096 0.34055 0.36752 0.0
C2 C 0.04608 0.34402 0.31419 0.0
C3 C 0.04859 0.34418 0.39095 0.0
N4 N 0.02867 0.34228 0.29916 0.0
N5 N 0.03277 0.34195 0.42444 0.0
H6 H 0.00722 0.33752 0.37616 0.0
H7 H 0.0564 0.34447 0.27207 0.0
C8 C 0.04025 0.37096 0.18223 0.0
O9 O 0.03257 0.37653 0.24431 0.0
N10 N 0.00964 0.33382 0.09943 0.0
C11 C 0.99287 0.32942 0.08237 0.0
C12 C 0.99138 0.32802 1.0053 0.0
C13 C 0.01817 0.33501 0.03295 0.0
N14 N 0.00728 0.33157 0.97422 0.0
C15 C 0.98763 0.35465 0.26174 0.0
C16 C 0.98647 0.38256 0.16146 0.0
C17 C 0.97331 0.38126 0.21663 0.0
C18 C 0.97394 0.36701 0.26705 0.0
C19 C -0.00012 0.36996 0.15833 0.0
N20 N 0.00092 0.35666 0.2104 0.0
H21 H 0.98691 0.34299 0.29626 0.0
H22 H 0.00915 0.37068 0.11222 0.0
H23 H 0.98238 0.32769 0.12313 0.0
H24 H 0.03203 0.33832 0.02781 0.0
O25 O 0.0057 0.31843 0.2366 0.0
O26 O 0.03312 0.31717 0.19226 0.0
O27 O 0.03637 0.35576 0.15534 0.0
C28 C 0.01958 0.30895 0.22107 0.0
H29 H 0.06118 0.345 0.4197 0.0
H30 H 0.97936 0.32512 0.97458 0.0
H31 H 0.98636 0.39314 0.12032 0.0
H32 H 0.96356 0.36502 0.30821 0.0
Co33 Co 0.14967 0.02442 0.70746 0.0
C34 C 0.14825 0.02717 0.8759 0.0
C35 C 0.14799 0.05246 0.82167 0.0
C36 C 0.14809 0.05508 0.89851 0.0
N37 N 0.14772 0.03494 0.80731 0.0
N38 N 0.14831 0.03914 0.9325 0.0
H39 H 0.14898 0.01314 0.88507 0.0
H40 H 0.14844 0.06266 0.77898 0.0
C41 C 0.11735 0.04682 0.69965 0.0
O42 O 0.11304 0.04066 0.76644 0.0
N43 N 0.15205 0.01435 0.6081 0.0
C44 C 0.15514 -0.00272 0.59123 0.0
C45 C 0.15599 -0.0044 0.51404 0.0
C46 C 0.15114 0.02286 0.54143 0.0
N47 N 0.15347 0.01169 0.48268 0.0
C48 C 0.13611 0.99272 0.77631 0.0
C49 C 0.10402 0.99246 0.70198 0.0
C50 C 0.10779 0.97894 0.75326 0.0
C51 C 0.12419 0.97897 0.78975 0.0
C52 C 0.11645 0.00574 0.68917 0.0
N53 N 0.13186 0.00643 0.72954 0.0
H54 H 0.14904 0.99192 0.80168 0.0
H55 H 0.11384 0.01504 0.64448 0.0
H56 H 0.15661 0.98679 0.63219 0.0
H57 H 0.14905 0.03696 0.53631 0.0
O58 O 0.17049 0.01186 0.74027 0.0
O59 O 0.17038 0.03871 0.6893 0.0
O60 O 0.13147 0.04149 0.66734 0.0
C61 C 0.17932 0.02567 0.71819 0.0
H62 H 0.14861 0.06772 0.92699 0.0
H63 H 0.15803 0.98337 0.48354 0.0
H64 H 0.09186 0.99237 0.66966 0.0
H65 H 0.12785 0.96836 0.82775 0.0
Co66 Co 0.46536 0.15046 0.19281 0.0
C67 C 0.46315 0.1484 0.36138 0.0
C68 C 0.43811 0.14461 0.30756 0.0
C69 C 0.43555 0.14446 0.3843 0.0
N70 N 0.45551 0.14656 0.29288 0.0
N71 N 0.45132 0.14689 0.41809 0.0
H72 H 0.47685 0.15153 0.37028 0.0
H73 H 0.42785 0.14396 0.2652 0.0
C74 C 0.44455 0.11739 0.17615 0.0
O75 O 0.45202 0.11202 0.23904 0.0
N76 N 0.47466 0.15483 0.09334 0.0
C77 C 0.4914 0.15933 0.07634 0.0
C78 C 0.49288 0.16067 0.99924 0.0
C79 C 0.46613 0.15356 0.02682 0.0
N80 N 0.47699 0.15702 0.9681 0.0
C81 C 0.49692 0.13509 0.25697 0.0
C82 C 0.49878 0.1068 0.15876 0.0
C83 C 0.51195 0.10872 0.21366 0.0
C84 C 0.51094 0.12313 0.2631 0.0
C85 C 0.48502 0.11901 0.15481 0.0
N86 N 0.48366 0.13251 0.20583 0.0
H87 H 0.49737 0.14692 0.29053 0.0
H88 H 0.47579 0.11787 0.10866 0.0
H89 H 0.50187 0.16117 0.11714 0.0
H90 H 0.45228 0.1502 0.02166 0.0
O91 O 0.47812 0.17069 0.22985 0.0
O92 O 0.45075 0.17131 0.1845 0.0
O93 O 0.44831 0.13261 0.14925 0.0
C94 C 0.46411 0.17987 0.21313 0.0
H95 H 0.42295 0.14347 0.41282 0.0
H96 H 0.50487 0.16365 0.96856 0.0
H97 H 0.4992 0.09608 0.1183 0.0
H98 H 0.5213 0.1256 0.30395 0.0
Co99 Co 0.3392 0.47145 0.68982 0.0
C100 C 0.34134 0.4696 0.8554 0.0
C101 C 0.3498 0.44529 0.8043 0.0
C102 C 0.35041 0.44338 0.88157 0.0
N103 N 0.34418 0.46175 0.78824 0.0
N104 N 0.345 0.45866 0.91358 0.0
H105 H 0.33655 0.48301 0.86131 0.0
H106 H 0.35279 0.43523 0.76289 0.0
C107 C 0.37031 0.46105 0.59835 0.0
O108 O 0.37124 0.47776 0.5782 0.0
N109 N 0.33349 0.48072 0.58963 0.0
C110 C 0.32438 0.4955 0.57147 0.0
C111 C 0.32234 0.49629 0.49442 0.0
C112 C 0.33565 0.47221 0.52313 0.0
N113 N 0.32961 0.48169 0.46393 0.0
C114 C 0.35105 0.50752 0.70679 0.0
C115 C 0.38544 0.49941 0.74649 0.0
C116 C 0.38081 0.51713 0.73468 0.0
C117 C 0.36325 0.52116 0.71674 0.0
C118 C 0.37283 0.48618 0.73517 0.0
N119 N 0.35618 0.49025 0.71051 0.0
H120 H 0.33747 0.51095 0.69727 0.0
H121 H 0.37663 0.47256 0.74417 0.0
H122 H 0.31871 0.50476 0.61083 0.0
H123 H 0.34105 0.45904 0.51808 0.0
O124 O 0.31846 0.4826 0.72975 0.0
O125 O 0.31922 0.45558 0.68069 0.0
O126 O 0.35825 0.45598 0.6441 0.0
C127 C 0.31005 0.46819 0.71208 0.0
H128 H 0.35395 0.43145 0.91169 0.0
H129 H 0.31593 0.50683 0.46353 0.0
H130 H 0.3988 0.49575 0.76197 0.0
H131 H 0.35894 0.53475 0.7108 0.0
Co132 Co 0.01494 0.14878 0.32751 0.0
C133 C 0.01761 0.14722 0.1616 0.0
C134 C 0.04241 0.14101 0.21419 0.0
C135 C 0.04459 0.14057 0.13698 0.0
N136 N 0.02548 0.14512 0.22936 0.0
N137 N 0.02899 0.14454 0.10388 0.0
H138 H 0.00382 0.15069 0.15498 0.0
H139 H 0.05255 0.13884 0.25621 0.0
C140 C 0.02716 0.11885 0.42183 0.0
O141 O 0.01048 0.11695 0.44108 0.0
N142 N 0.00469 0.15309 0.42724 0.0
C143 C 0.98819 0.15839 0.44543 0.0
C144 C 0.98703 0.16034 0.52248 0.0
C145 C 0.01351 0.1529 0.49377 0.0
N146 N 0.00294 0.15671 0.55305 0.0
C147 C 0.9802 0.13475 0.29536 0.0
C148 C 0.99113 0.10034 0.27153 0.0
C149 C 0.97302 0.10404 0.27358 0.0
C150 C 0.96757 0.12161 0.28226 0.0
C151 C 0.00325 0.11393 0.28363 0.0
N152 N -0.00233 0.13055 0.30243 0.0
H153 H 0.97589 0.14828 0.29908 0.0
H154 H 0.01718 0.11092 0.27986 0.0
H155 H 0.97769 0.16126 0.40635 0.0
H156 H 0.02749 0.15012 0.49868 0.0
O157 O 0.00258 0.16906 0.2888 0.0
O158 O 0.02928 0.16968 0.34091 0.0
O159 O 0.03155 0.13076 0.37399 0.0
C160 C 0.0163 0.17825 0.30932 0.0
H161 H 0.05688 0.13804 0.10769 0.0
H162 H 0.97527 0.164 0.55346 0.0
H163 H -0.00413 0.08703 0.26145 0.0
H164 H 0.95368 0.1251 0.2812 0.0
Co165 Co 0.33953 0.02072 0.79275 0.0
C166 C 0.34065 0.02342 0.62742 0.0
C167 C 0.34711 0.04827 0.67915 0.0
C168 C 0.34745 0.05032 0.60183 0.0
N169 N 0.34289 0.03139 0.6948 0.0
N170 N 0.34337 0.03467 0.56928 0.0
H171 H 0.33675 0.00973 0.6215 0.0
H172 H 0.34962 0.05839 0.72089 0.0
C173 C 0.37105 0.03146 0.88101 0.0
O174 O 0.37271 0.01464 0.8986 0.0
N175 N 0.33546 0.01035 0.89243 0.0
C176 C 0.32789 0.99472 0.91008 0.0
C177 C 0.32626 0.99346 0.98721 0.0
C178 C 0.33716 0.01879 0.95947 0.0
N179 N 0.33222 0.00859 0.01836 0.0
C180 C 0.35245 0.98531 0.76393 0.0
C181 C 0.38629 -0.00456 0.72464 0.0
C182 C 0.38258 0.97738 0.73263 0.0
C183 C 0.36519 0.97235 0.74973 0.0
C184 C 0.37318 0.0079 0.73964 0.0
N185 N 0.35688 0.00279 0.76478 0.0
H186 H 0.33905 0.98122 0.7736 0.0
H187 H 0.37631 0.02176 0.73299 0.0
H188 H 0.32279 0.98519 0.8705 0.0
H189 H 0.34181 0.03224 0.96508 0.0
O190 O 0.31846 0.00944 0.75511 0.0
O191 O 0.31945 0.03583 0.81053 0.0
O192 O 0.35857 0.03642 0.8371 0.0
C193 C 0.31013 0.02346 0.77846 0.0
H194 H 0.35056 0.06242 0.57214 0.0
H195 H 0.32048 0.9825 0.01769 0.0
H196 H 0.39929 -4e-05 0.70783 0.0
H197 H 0.3615 0.95856 0.75418 0.0
Co198 Co 0.46705 0.34046 0.30822 0.0
C199 C 0.46474 0.34138 0.13988 0.0
C200 C 0.43995 0.34688 0.19282 0.0
C201 C 0.43739 0.34659 0.11607 0.0
N202 N 0.45724 0.34422 0.20796 0.0
N203 N 0.45301 0.3431 0.08289 0.0
H204 H 0.4782 0.33726 0.13165 0.0
H205 H 0.4297 0.34826 0.23485 0.0
C206 C 0.44648 0.37364 0.3246 0.0
O207 O 0.45422 0.37903 0.26237 0.0
N208 N 0.47626 0.33616 0.40781 0.0
C209 C 0.493 0.33181 0.42576 0.0
C210 C 0.49424 0.33044 0.50296 0.0
C211 C 0.46751 0.3373 0.47372 0.0
N212 N 0.47822 0.33394 0.53303 0.0
C213 C 0.49803 0.35657 0.24163 0.0
C214 C 0.50024 0.3843 0.34263 0.0
C215 C 0.5127 0.38313 0.28462 0.0
C216 C 0.51157 0.369 0.23387 0.0
C217 C 0.4868 0.37175 0.34759 0.0
N218 N 0.48525 0.35853 0.2953 0.0
H219 H 0.49846 0.34494 0.20692 0.0
H220 H 0.47788 0.37246 0.39497 0.0
H221 H 0.5036 0.33008 0.38555 0.0
H222 H 0.45361 0.34049 0.47799 0.0
O223 O 0.47993 0.32025 0.27174 0.0
O224 O 0.45251 0.31958 0.31648 0.0
O225 O 0.44996 0.35832 0.35123 0.0
C226 C 0.46592 0.31105 0.28821 0.0
H227 H 0.42486 0.34803 0.08723 0.0
H228 H 0.50615 0.32757 0.53447 0.0
H229 H 0.50093 0.39477 0.38425 0.0
H230 H 0.5215 0.36716 0.19059 0.0
Co231 Co 0.14992 0.46588 0.81145 0.0
C232 C 0.14816 0.46332 0.64554 0.0
C233 C 0.1408 0.43884 0.69813 0.0
C234 C 0.14033 0.43664 0.62097 0.0
N235 N 0.14568 0.45557 0.71328 0.0
N236 N 0.14502 0.45203 0.58779 0.0
H237 H 0.15266 0.47681 0.63905 0.0
H238 H 0.13804 0.42886 0.74015 0.0
C239 C 0.11895 0.45512 0.90288 0.0
O240 O 0.11775 0.47187 0.92213 0.0
N241 N 0.15482 0.4759 0.91136 0.0
C242 C 0.16239 0.49158 0.92836 0.0
C243 C 0.16417 0.49299 1.00532 0.0
C244 C 0.15326 0.46759 0.97879 0.0
N245 N 0.15825 0.47795 0.03726 0.0
C246 C 0.13806 0.50136 0.7829 0.0
C247 C 0.10327 0.493 0.75173 0.0
C248 C 0.1082 0.51085 0.75623 0.0
C249 C 0.12601 0.5149 0.76912 0.0
C250 C 0.11585 0.47985 0.7655 0.0
N251 N 0.13268 0.48418 0.78699 0.0
H252 H 0.15177 0.50476 0.78872 0.0
H253 H 0.11192 0.46616 0.76065 0.0
H254 H 0.16721 0.50115 0.88842 0.0
H255 H 0.14847 0.4542 0.98506 0.0
O256 O 0.17053 0.47738 0.77258 0.0
O257 O 0.17035 0.45063 0.82411 0.0
O258 O 0.13107 0.45013 0.85716 0.0
C259 C 0.17931 0.46342 0.79287 0.0
H260 H 0.13682 0.42457 0.59184 0.0
H261 H 0.16987 0.50409 0.03517 0.0
H262 H 0.08975 0.4892 0.7398 0.0
H263 H 0.13066 0.52845 0.76837 0.0
Co264 Co 0.97248 0.64948 0.8081 0.0
C265 C 0.97014 0.64798 0.64257 0.0
C266 C 0.9455 0.64071 0.69403 0.0
C267 C 0.94347 0.64032 0.61674 0.0
N268 N 0.96224 0.64546 0.70986 0.0
N269 N 0.95896 0.64497 0.58446 0.0
H270 H 0.98379 0.65202 0.63658 0.0
H271 H 0.93539 0.63809 0.73563 0.0
C272 C 0.96138 0.61883 0.90052 0.0
O273 O 0.9781 0.61754 0.92002 0.0
N274 N 0.98239 0.65414 0.90808 0.0
C275 C -0.00152 0.66048 0.92708 0.0
C276 C -0.00064 0.66238 1.00421 0.0
C277 C 0.97346 0.65332 0.97411 0.0
N278 N 0.98365 0.65769 0.03387 0.0
C279 C 0.0078 0.63723 0.77802 0.0
C280 C -0.00108 0.60241 0.74983 0.0
C281 C 0.01683 0.60709 0.75344 0.0
C282 C 0.02116 0.62492 0.76471 0.0
C283 C 0.98599 0.61522 0.76313 0.0
N284 N 0.99059 0.63206 0.78349 0.0
H285 H 0.01136 0.65095 0.78256 0.0
H286 H 0.97225 0.61146 0.75883 0.0
H287 H 0.00882 0.66416 0.88856 0.0
H288 H 0.95965 0.64975 0.9783 0.0
O289 O 0.98415 0.67017 0.77007 0.0
O290 O 0.95736 0.66992 0.82114 0.0
O291 O 0.95654 0.63076 0.85353 0.0
C292 C 0.97016 0.67892 0.79037 0.0
H293 H 0.93134 0.63739 0.58684 0.0
H294 H 0.01079 0.66676 0.03584 0.0
H295 H -0.00512 0.5889 0.73912 0.0
H296 H 0.03477 0.62936 0.7632 0.0
Co297 Co 0.83793 0.96388 0.32814 0.0
C298 C 0.83955 0.96131 0.15941 0.0
C299 C 0.83762 0.93609 0.21368 0.0
C300 C 0.83757 0.93345 0.13701 0.0
N301 N 0.83919 0.95354 0.22796 0.0
N302 N 0.83878 0.94934 0.10287 0.0
H303 H 0.83957 0.97537 0.1503 0.0
H304 H 0.83642 0.92596 0.25641 0.0
C305 C 0.86917 0.94014 0.33214 0.0
O306 O 0.8733 0.94657 0.2656 0.0
N307 N 0.83618 0.97377 0.42792 0.0
C308 C 0.83377 0.99096 0.44496 0.0
C309 C 0.8338 0.99276 0.52212 0.0
C310 C 0.83748 0.9653 0.4945 0.0
N311 N 0.83615 0.97663 0.55318 0.0
C312 C 0.85341 -0.00503 0.26129 0.0
C313 C 0.88479 0.99366 0.34066 0.0
C314 C 0.88192 0.00786 0.29133 0.0
C315 C 0.86589 0.00842 0.25156 0.0
C316 C 0.87183 0.98076 0.34982 0.0
N317 N 0.85672 0.98091 0.30751 0.0
H318 H 0.84071 -0.00358 0.2344 0.0
H319 H 0.8738 0.97108 0.39361 0.0
H320 H 0.83223 0.00145 0.40406 0.0
H321 H 0.83967 0.95121 0.49978 0.0
O322 O 0.81792 0.97784 0.29723 0.0
O323 O 0.81636 0.95073 0.34464 0.0
O324 O 0.85533 0.94566 0.3662 0.0
C325 C 0.8082 0.96449 0.31748 0.0
H326 H 0.83665 0.92079 0.10882 0.0
H327 H 0.83205 0.005 0.55291 0.0
H328 H 0.8968 0.99259 0.37351 0.0
H329 H 0.86263 0.01951 0.21556 0.0
Co330 Co 0.51832 0.8398 0.81941 0.0
C331 C 0.521 0.8405 0.65392 0.0
C332 C 0.54578 0.84717 0.70574 0.0
C333 C 0.54789 0.84741 0.6285 0.0
N334 N 0.5289 0.84292 0.7213 0.0
N335 N 0.53229 0.84316 0.59602 0.0
H336 H 0.50722 0.83695 0.64771 0.0
H337 H 0.55589 0.84968 0.74753 0.0
C338 C 0.52957 0.87115 0.9072 0.0
O339 O 0.51281 0.87283 0.92551 0.0
N340 N 0.50808 0.83601 0.91934 0.0
C341 C 0.4922 0.82911 0.93786 0.0
C342 C 0.49117 0.82743 0.01502 0.0
C343 C 0.5168 0.83736 0.98579 0.0
N344 N 0.50663 0.83276 0.04524 0.0
C345 C 0.48315 0.85294 0.78843 0.0
C346 C 0.49353 0.88667 0.74838 0.0
C347 C 0.47543 0.88288 0.75299 0.0
C348 C 0.4703 0.86557 0.77104 0.0
C349 C 0.50588 0.87365 0.76636 0.0
N350 N 0.50061 0.85738 0.79148 0.0
H351 H 0.479 0.83954 0.79791 0.0
H352 H 0.51976 0.87675 0.76097 0.0
H353 H 0.48224 0.82463 0.89892 0.0
H354 H 0.53053 0.84118 0.99044 0.0
O355 O 0.5065 0.81894 0.78337 0.0
O356 O 0.53315 0.81936 0.83608 0.0
O357 O 0.5344 0.85866 0.86298 0.0
C358 C 0.52039 0.81024 0.80558 0.0
H359 H 0.56008 0.85007 0.59873 0.0
H360 H 0.4799 0.82253 0.04617 0.0
H361 H 0.49816 0.8996 0.73101 0.0
H362 H 0.45649 0.86184 0.77302 0.0
Co363 Co 0.65095 0.51925 0.32444 0.0
C364 C 0.64887 0.52131 0.15878 0.0
C365 C 0.64134 0.54586 0.21036 0.0
C366 C 0.64075 0.54785 0.13315 0.0
N367 N 0.64639 0.52921 0.22611 0.0
N368 N 0.64555 0.53241 0.10067 0.0
H369 H 0.65353 0.50785 0.15285 0.0
H370 H 0.63857 0.55594 0.25198 0.0
C371 C 0.61972 0.53009 0.41457 0.0
O372 O 0.61841 0.51339 0.43437 0.0
N373 N 0.65622 0.50964 0.4246 0.0
C374 C 0.66504 0.49465 0.44204 0.0
C375 C 0.66694 0.49352 0.51902 0.0
C376 C 0.65409 0.51795 0.49166 0.0
N377 N 0.65991 0.50814 0.55031 0.0
C378 C 0.63886 0.48341 0.30461 0.0
C379 C 0.60445 0.49177 0.26639 0.0
C380 C 0.60901 0.47401 0.27767 0.0
C381 C 0.62661 0.46986 0.29447 0.0
C382 C 0.61715 0.50492 0.27779 0.0
N383 N 0.63379 0.5007 0.30218 0.0
H384 H 0.65244 0.4799 0.31348 0.0
H385 H 0.61343 0.51858 0.26931 0.0
H386 H 0.67074 0.48551 0.40226 0.0
H387 H 0.64851 0.53103 0.49764 0.0
O388 O 0.67165 0.50784 0.2853 0.0
O389 O 0.67114 0.53477 0.33539 0.0
O390 O 0.63203 0.53497 0.36963 0.0
C391 C 0.68023 0.52204 0.30442 0.0
H392 H 0.63711 0.55981 0.10349 0.0
H393 H 0.67356 0.48301 0.54932 0.0
H394 H 0.59107 0.49551 0.25155 0.0
H395 H 0.63087 0.45624 0.29975 0.0
Co396 Co 0.97329 0.83971 0.70315 0.0
C397 C 0.97096 0.84147 0.86868 0.0
C398 C 0.94594 0.84724 0.81711 0.0
C399 C 0.9439 0.84757 0.8944 0.0
N400 N 0.96291 0.84344 0.80133 0.0
N401 N 0.95965 0.8439 0.92684 0.0
H402 H 0.98471 0.8378 0.87464 0.0
H403 H 0.9357 0.84932 0.77546 0.0
C404 C 0.96068 0.8697 0.60912 0.0
O405 O 0.97719 0.87174 0.58761 0.0
N406 N 0.98351 0.83541 0.60352 0.0
C407 C 0.00014 0.83049 0.5858 0.0
C408 C 0.00149 0.82874 0.50881 0.0
C409 C 0.97479 0.83558 0.53677 0.0
N410 N 0.98558 0.83215 0.47773 0.0
C411 C 0.0081 0.85258 0.73906 0.0
C412 C -0.00123 0.88757 0.75874 0.0
C413 C 0.01674 0.88298 0.76177 0.0
C414 C 0.0212 0.86504 0.75473 0.0
C415 C 0.98608 0.87458 0.74443 0.0
N416 N 0.99096 0.8576 0.72819 0.0
H417 H 0.01177 0.83884 0.7373 0.0
H418 H 0.97231 0.87831 0.74554 0.0
H419 H 0.01062 0.82778 0.62515 0.0
H420 H 0.96087 0.83858 0.53147 0.0
O421 O 0.98539 0.81922 0.74122 0.0
O422 O 0.95865 0.81898 0.68956 0.0
O423 O 0.95673 0.85785 0.65778 0.0
C424 C 0.97156 0.81021 0.72072 0.0
H425 H 0.93172 0.85028 0.92417 0.0
H426 H 0.0133 0.82499 0.47834 0.0
H427 H 0.99445 0.90111 0.76575 0.0
H428 H 0.0347 0.86056 0.76172 0.0
Co429 Co 0.6485 0.96935 0.20097 0.0
C430 C 0.64626 0.96774 0.36907 0.0
C431 C 0.64077 0.94283 0.3169 0.0
C432 C 0.64067 0.9405 0.39372 0.0
N433 N 0.64371 0.96005 0.30115 0.0
N434 N 0.64418 0.95618 0.42643 0.0
H435 H 0.65049 0.98119 0.37693 0.0
H436 H 0.63958 0.93245 0.27527 0.0
C437 C 0.615 0.94947 0.18215 0.0
O438 O 0.60945 0.95772 0.24295 0.0
N439 N 0.65382 0.9781 0.10157 0.0
C440 C 0.65906 0.9946 0.08388 0.0
C441 C 0.66054 -0.00419 1.00674 0.0
C442 C 0.65226 0.96945 0.03554 0.0
N443 N 0.6562 0.98 0.97642 0.0
C444 C 0.63283 0.00122 0.26195 0.0
C445 C 0.60585 0.00339 0.1573 0.0
C446 C 0.60708 0.01642 0.21312 0.0
C447 C 0.62086 0.01529 0.26574 0.0
C448 C 0.61803 0.98959 0.15577 0.0
N449 N 0.63084 0.98807 0.20986 0.0
H450 H 0.64416 0.0015 0.29845 0.0
H451 H 0.61736 0.98033 0.10954 0.0
H452 H 0.6612 0.00512 0.12418 0.0
H453 H 0.64821 0.95577 0.03097 0.0
O454 O 0.66874 0.98185 0.23974 0.0
O455 O 0.66904 0.95424 0.19687 0.0
O456 O 0.63053 0.95247 0.15674 0.0
C457 C 0.67768 0.96751 0.22585 0.0
H458 H 0.63908 0.92804 0.42301 0.0
H459 H 0.66396 0.0076 0.97544 0.0
H460 H 0.59562 0.00386 0.11461 0.0
H461 H 0.62278 0.02554 0.30762 0.0
Co462 Co 0.52402 0.64948 0.71799 0.0
C463 C 0.52627 0.64846 0.8863 0.0
C464 C 0.55094 0.64238 0.83353 0.0
C465 C 0.55348 0.64263 0.91028 0.0
N466 N 0.53371 0.64541 0.81826 0.0
N467 N 0.53794 0.64649 0.94337 0.0
H468 H 0.51292 0.65295 0.8944 0.0
H469 H 0.56119 0.64081 0.79162 0.0
C470 C 0.54433 0.6162 0.69986 0.0
O471 O 0.53641 0.61071 0.76151 0.0
N472 N 0.51494 0.65412 0.61842 0.0
C473 C 0.49827 0.6587 0.60041 0.0
C474 C 0.49708 0.66018 0.52323 0.0
C475 C 0.52371 0.65296 0.55256 0.0
N476 N 0.51307 0.65652 0.49323 0.0
C477 C 0.49307 0.63312 0.78353 0.0
C478 C 0.49047 0.60612 0.67912 0.0
C479 C 0.478 0.60709 0.73717 0.0
C480 C 0.47935 0.62083 0.78974 0.0
C481 C 0.50408 0.61852 0.67568 0.0
N482 N 0.50578 0.6314 0.72942 0.0
H483 H 0.49281 0.64447 0.81983 0.0
H484 H 0.51302 0.61798 0.62831 0.0
H485 H 0.48766 0.66047 0.64055 0.0
H486 H 0.53756 0.64958 0.5483 0.0
O487 O 0.51106 0.66952 0.75534 0.0
O488 O 0.53853 0.67046 0.71138 0.0
O489 O 0.54113 0.63168 0.67426 0.0
C490 C 0.52503 0.67885 0.73972 0.0
H491 H 0.56597 0.64095 0.93917 0.0
H492 H 0.48521 0.66321 0.49167 0.0
H493 H 0.48964 0.59594 0.63628 0.0
H494 H 0.46946 0.62251 0.8333 0.0
Co495 Co 0.84034 0.52428 0.20013 0.0
C496 C 0.84284 0.52604 0.36826 0.0
C497 C 0.84732 0.55112 0.3159 0.0
C498 C 0.84761 0.55344 0.39278 0.0
N499 N 0.84485 0.53383 0.30024 0.0
N500 N 0.84478 0.53763 0.42567 0.0
H501 H 0.8387 0.51257 0.37626 0.0
H502 H 0.84828 0.5615 0.27418 0.0
C503 C 0.87355 0.54468 0.18169 0.0
O504 O 0.87913 0.53681 0.24338 0.0
N505 N 0.83533 0.51523 0.10077 0.0
C506 C 0.8302 0.49864 0.0839 0.0
C507 C 0.82909 0.49706 1.00678 0.0
C508 C 0.83715 0.52358 0.03412 0.0
N509 N 0.83352 0.51273 0.97555 0.0
C510 C 0.85594 0.49253 0.26193 0.0
C511 C 0.88336 0.49044 0.15958 0.0
C512 C 0.88179 0.47727 0.21461 0.0
C513 C 0.86782 0.4784 0.26617 0.0
C514 C 0.87126 0.50432 0.15757 0.0
N515 N 0.85819 0.50577 0.21049 0.0
H516 H 0.84443 0.49218 0.29732 0.0
H517 H 0.87214 0.51361 0.11155 0.0
H518 H 0.8278 0.48832 0.12484 0.0
H519 H 0.84158 0.53712 0.02859 0.0
O520 O 0.82025 0.5116 0.23854 0.0
O521 O 0.81955 0.53909 0.19464 0.0
O522 O 0.85813 0.54129 0.15592 0.0
C523 C 0.81108 0.52572 0.22357 0.0
H524 H 0.84944 0.56588 0.42192 0.0
H525 H 0.82537 0.48525 0.9762 0.0
H526 H 0.89375 0.48996 0.11763 0.0
H527 H 0.86561 0.46805 0.30732 0.0
H528 H 0.95809 0.39673 0.34075 0.0
H529 H 0.89439 0.45849 0.09428 0.0
H530 H 0.95501 0.39534 0.09786 0.0
H531 H 0.89722 0.46123 0.33702 0.0
H532 H 0.91566 0.43431 0.09592 0.0
H533 H 0.93469 0.41914 0.34215 0.0
C534 C 0.95241 0.40105 0.2878 0.0
C535 C 0.95864 0.39429 0.21905 0.0
C536 C 0.91164 0.44016 0.14895 0.0
C537 C 0.93198 0.41995 0.22017 0.0
C538 C 0.89956 0.45406 0.148 0.0
C539 C 0.89417 0.46205 0.21558 0.0
C540 C 0.91846 0.43415 0.21799 0.0
C541 C 0.90098 0.45542 0.28362 0.0
C542 C 0.93912 0.41389 0.2886 0.0
C543 C 0.95088 0.40043 0.1521 0.0
N544 N 0.91286 0.44192 0.28309 0.0
N545 N 0.93802 0.41293 0.15437 0.0
H546 H 0.11418 0.94343 0.74581 0.0
H547 H 0.0153 0.91449 0.84088 0.0
H548 H 0.07257 0.9813 0.78525 0.0
H549 H 0.0503 0.88306 0.70241 0.0
H550 H 0.03781 0.93763 0.84558 0.0
H551 H 0.09247 0.91946 0.7561 0.0
C552 C 0.1005 0.94665 0.75757 0.0
C553 C 0.09509 0.96431 0.76449 0.0
C554 C 0.04051 0.92559 0.81459 0.0
C555 C 0.07032 0.93709 0.77654 0.0
C556 C 0.02763 0.91238 0.81137 0.0
C557 C 0.03073 0.89673 0.77059 0.0
C558 C 0.05673 0.92305 0.77788 0.0
C559 C 0.04728 0.89469 0.73549 0.0
C560 C 0.08814 0.93302 0.76296 0.0
C561 C 0.0772 0.96783 0.779 0.0
N562 N 0.05963 0.90768 0.73997 0.0
N563 N 0.06542 0.95432 0.78471 0.0
H564 H 0.59457 0.03537 0.09315 0.0
H565 H 0.5278 0.09408 0.33819 0.0
H566 H 0.59086 0.03168 0.33541 0.0
H567 H 0.53069 0.09515 0.09525 0.0
H568 H 0.55221 0.07276 0.34017 0.0
H569 H 0.57241 0.05874 0.09457 0.0
C570 C 0.58904 0.03945 0.14671 0.0
C571 C 0.59441 0.0314 0.2142 0.0
C572 C 0.54751 0.0777 0.28649 0.0
C573 C 0.56908 0.05834 0.21636 0.0
C574 C 0.53364 0.08991 0.28535 0.0
C575 C 0.52708 0.09626 0.21642 0.0
C576 C 0.55491 0.07188 0.21821 0.0
C577 C 0.53507 0.09035 0.14962 0.0
C578 C 0.57644 0.05287 0.14754 0.0
C579 C 0.58711 0.03755 0.28209 0.0
N580 N 0.54851 0.07848 0.15222 0.0
N581 N 0.57472 0.05059 0.28143 0.0
H582 H 0.38591 0.544 0.63489 0.0
H583 H 0.46587 0.58865 0.8594 0.0
H584 H 0.40646 0.52231 0.84211 0.0
H585 H 0.45635 0.59681 0.62217 0.0
H586 H 0.44148 0.56722 0.86211 0.0
H587 H 0.40899 0.56661 0.63783 0.0
C588 C 0.3952 0.54412 0.68141 0.0
C589 C 0.39431 0.53129 0.73834 0.0
C590 C 0.44477 0.57371 0.80956 0.0
C591 C 0.42077 0.55704 0.74187 0.0
C592 C 0.45858 0.58597 0.80807 0.0
C593 C 0.46315 0.59438 0.74036 0.0
C594 C 0.43532 0.57011 0.74312 0.0
C595 C 0.45338 0.59042 0.6753 0.0
C596 C 0.40843 0.55693 0.68276 0.0
C597 C 0.40681 0.5319 0.79681 0.0
N598 N 0.43988 0.57862 0.67834 0.0
N599 N 0.41952 0.54461 0.79722 0.0
H600 H 0.8903 0.02812 0.16675 0.0
H601 H 0.973 0.07425 0.35849 0.0
H602 H 0.90368 0.02114 0.4019 0.0
H603 H 0.94341 0.10095 0.18453 0.0
H604 H 0.95075 0.0508 0.36014 0.0
H605 H 0.91238 0.05178 0.15901 0.0
C606 C 0.89776 0.03153 0.21678 0.0
C607 C 0.89515 0.02238 0.28495 0.0
C608 C 0.94916 0.06177 0.32145 0.0
C609 C 0.92069 0.04908 0.27546 0.0
C610 C 0.96189 0.07505 0.32008 0.0
C611 C 0.95999 0.08949 0.27127 0.0
C612 C 0.93457 0.06278 0.27284 0.0
C613 C 0.94525 0.09003 0.22321 0.0
C614 C 0.9104 0.04497 0.21205 0.0
C615 C 0.90547 0.02733 0.34747 0.0
N616 N 0.93308 0.07677 0.22486 0.0
N617 N 0.91785 0.04021 0.341 0.0
H618 H 0.44332 0.88075 0.67995 0.0
H619 H 0.41647 0.98011 0.78452 0.0
H620 H 0.47703 0.91725 0.79996 0.0
H621 H 0.38139 0.94411 0.66886 0.0
H622 H 0.4395 0.95768 0.78184 0.0
H623 H 0.42102 0.90405 0.66831 0.0
C624 C 0.44605 0.89364 0.70382 0.0
C625 C 0.46208 0.89701 0.74117 0.0
C626 C 0.4268 0.95468 0.75664 0.0
C627 C 0.43669 0.92376 0.7275 0.0
C628 C 0.41366 0.96756 0.75759 0.0
C629 C 0.39692 0.96403 0.72681 0.0
C630 C 0.42326 0.93804 0.72497 0.0
C631 C 0.394 0.94735 0.69415 0.0
C632 C 0.43335 0.90696 0.69679 0.0
C633 C 0.46499 0.91408 0.76987 0.0
N634 N 0.40702 0.93494 0.69431 0.0
N635 N 0.45241 0.92675 0.76269 0.0
H636 H 0.60428 0.44738 0.37866 0.0
H637 H 0.52435 0.40119 0.16047 0.0
H638 H 0.58285 0.46869 0.17233 0.0
H639 H 0.53432 0.39427 0.39807 0.0
H640 H 0.54837 0.42305 0.15541 0.0
H641 H 0.58134 0.42466 0.37787 0.0
C642 C 0.59482 0.44716 0.33279 0.0
C643 C 0.59545 0.4599 0.27541 0.0
C644 C 0.54526 0.41673 0.20855 0.0
C645 C 0.56913 0.434 0.27435 0.0
C646 C 0.53166 0.40424 0.21137 0.0
C647 C 0.52733 0.39605 0.27988 0.0
C648 C 0.55473 0.42077 0.27445 0.0
C649 C 0.53712 0.40046 0.34435 0.0
C650 C 0.58167 0.43428 0.33267 0.0
C651 C 0.58272 0.45917 0.21787 0.0
N652 N 0.5504 0.41247 0.34001 0.0
N653 N 0.57008 0.44637 0.21861 0.0
H654 H 0.04728 0.60529 0.83551 0.0
H655 H 0.07949 0.51316 0.66066 0.0
H656 H 0.01843 0.57772 0.6613 0.0
H657 H 0.1065 0.54125 0.83869 0.0
H658 H 0.05745 0.5369 0.65578 0.0
H659 H 0.06985 0.58242 0.83171 0.0
C660 C 0.04578 0.59452 0.79574 0.0
C661 C 0.03093 0.59348 0.7485 0.0
C662 C 0.06826 0.53787 0.69563 0.0
C663 C 0.05667 0.56694 0.74486 0.0
C664 C 0.08079 0.52429 0.69872 0.0
C665 C 0.09491 0.52523 0.75002 0.0
C666 C 0.06986 0.55243 0.74436 0.0
C667 C 0.09603 0.54007 0.79735 0.0
C668 C 0.05863 0.58136 0.79402 0.0
C669 C 0.02955 0.57897 0.69932 0.0
N670 N 0.08368 0.55303 0.79343 0.0
N671 N 0.04226 0.56624 0.69885 0.0
H672 H 0.04872 0.405 0.21755 0.0
H673 H 0.11597 0.41935 0.87536 0.0
H674 H 0.05916 0.36426 0.05276 0.0
H675 H 0.09518 0.46128 0.01487 0.0
H676 H 0.09696 0.39824 0.94251 0.0
H677 H 0.06778 0.42504 0.14781 0.0
C678 C 0.05507 0.40022 0.16674 0.0
C679 C 0.05231 0.38291 0.14098 0.0
C680 C 0.09656 0.41209 0.958 0.0
C681 C 0.07422 0.40591 0.06039 0.0
C682 C 0.10739 0.42413 0.91979 0.0
C683 C 0.10718 0.44211 0.93953 0.0
C684 C 0.08561 0.41811 0.01663 0.0
C685 C 0.09581 0.44757 0.99752 0.0
C686 C 0.06592 0.41172 0.12671 0.0
C687 C 0.06092 0.37751 0.07464 0.0
N688 N 0.08558 0.43563 0.03408 0.0
N689 N 0.07152 0.38899 0.03656 0.0
H690 H 0.12197 0.06283 0.56207 0.0
H691 H 0.02256 0.09787 0.54473 0.0
H692 H 0.08421 0.05691 0.74279 0.0
H693 H 0.0626 0.11563 0.38872 0.0
H694 H 0.04483 0.08094 0.61207 0.0
H695 H 0.10036 0.08069 0.49279 0.0
C696 C 0.10918 0.06534 0.58735 0.0
C697 C 0.10488 0.05833 0.65837 0.0
C698 C 0.0488 0.08852 0.56315 0.0
C699 C 0.08012 0.07859 0.57916 0.0
C700 C 0.03605 0.09814 0.52427 0.0
C701 C 0.04071 0.10816 0.46078 0.0
C702 C 0.06639 0.08876 0.53827 0.0
C703 C 0.05844 0.10808 0.43744 0.0
C704 C 0.09688 0.07554 0.54777 0.0
C705 C 0.08812 0.06201 0.68831 0.0
N706 N 0.07067 0.09846 0.47611 0.0
N707 N 0.07635 0.0718 0.6484 0.0
H708 H 0.43716 0.08291 0.20861 0.0
H709 H 0.37271 0.06741 0.85763 0.0
H710 H 0.42621 0.12378 0.04508 0.0
H711 H 0.39505 0.02548 0.99268 0.0
H712 H 0.39045 0.08887 0.92884 0.0
H713 H 0.41954 0.06232 0.13458 0.0
C714 C 0.43099 0.0876 0.15725 0.0
C715 C 0.43319 0.10511 0.13302 0.0
C716 C 0.39149 0.07495 0.94243 0.0
C717 C 0.41297 0.0815 0.04761 0.0
C718 C 0.38139 0.06271 0.90187 0.0
C719 C 0.38238 0.04462 0.91927 0.0
C720 C 0.40248 0.06904 1.00115 0.0
C721 C 0.39384 0.03926 0.97714 0.0
C722 C 0.42097 0.07578 0.11476 0.0
C723 C 0.42486 0.11038 0.06585 0.0
N724 N 0.40334 0.05141 0.01617 0.0
N725 N 0.41509 0.09862 0.02543 0.0
H726 H 0.39346 0.46707 0.48372 0.0
H727 H 0.42795 0.36737 0.4552 0.0
H728 H 0.37376 0.42546 0.62773 0.0
H729 H 0.43852 0.40784 0.28949 0.0
H730 H 0.40946 0.38844 0.52463 0.0
H731 H 0.41178 0.44559 0.41844 0.0
C732 C 0.39305 0.45341 0.502 0.0
C733 C 0.38203 0.44806 0.56136 0.0
C734 C 0.4158 0.39264 0.47293 0.0
C735 C 0.40304 0.42328 0.4862 0.0
C736 C 0.42634 0.38064 0.43325 0.0
C737 C 0.43478 0.38585 0.36633 0.0
C738 C 0.41382 0.40997 0.44569 0.0
C739 C 0.43227 0.40321 0.34069 0.0
C740 C 0.40348 0.44111 0.46434 0.0
C741 C 0.38205 0.43014 0.58216 0.0
N742 N 0.42208 0.41463 0.38049 0.0
N743 N 0.39241 0.41836 0.54459 0.0
H744 H 0.86697 0.56349 0.05195 0.0
H745 H 0.96725 0.59561 0.01492 0.0
H746 H 0.90802 0.55201 0.21399 0.0
H747 H 0.92556 0.61629 0.87378 0.0
H748 H 0.94563 0.57788 0.08205 0.0
H749 H 0.88807 0.58157 0.98069 0.0
C750 C 0.88037 0.56482 0.07271 0.0
C751 C 0.88574 0.55622 0.13909 0.0
C752 C 0.94115 0.58627 0.0364 0.0
C753 C 0.90988 0.57671 0.05767 0.0
C754 C 0.95353 0.59637 0.99765 0.0
C755 C 0.94822 0.60748 0.93852 0.0
C756 C 0.92326 0.58716 0.01592 0.0
C757 C 0.93022 0.60791 0.91909 0.0
C758 C 0.89239 0.57512 0.032 0.0
C759 C 0.90326 0.55838 0.16325 0.0
N760 N 0.91835 0.59787 0.95774 0.0
N761 N 0.91469 0.56834 0.12246 0.0
H762 H 0.92557 0.87237 0.64779 0.0
H763 H 0.90156 0.92938 0.28261 0.0
H764 H 0.96382 0.89053 0.48465 0.0
H765 H 0.86594 0.9246 0.47172 0.0
H766 H 0.92339 0.91203 0.351 0.0
H767 H 0.90253 0.88885 0.58013 0.0
C768 C 0.92913 0.87986 0.59801 0.0
C769 C 0.94665 0.88012 0.57192 0.0
C770 C 0.91079 0.91474 0.37761 0.0
C771 C 0.92042 0.89873 0.49412 0.0
C772 C 0.89826 0.9246 0.33841 0.0
C773 C 0.8819 0.92853 0.37158 0.0
C774 C 0.90697 0.90864 0.45051 0.0
C775 C 0.87841 0.92192 0.44408 0.0
C776 C 0.91599 0.88924 0.55952 0.0
C777 C 0.95053 0.89001 0.50712 0.0
N778 N 0.89087 0.91229 0.48126 0.0
N779 N 0.93752 0.89883 0.47035 0.0
H780 H 0.58056 0.94245 0.21552 0.0
H781 H 0.56539 0.87334 0.88027 0.0
H782 H 0.62153 0.92955 0.05521 0.0
H783 H 0.52373 0.8956 0.01696 0.0
H784 H 0.58677 0.89233 0.94609 0.0
H785 H 0.56019 0.92353 0.14675 0.0
C786 C 0.58531 0.9356 0.16588 0.0
C787 C 0.60279 0.93761 0.14114 0.0
C788 C 0.57293 0.89306 0.96126 0.0
C789 C 0.57941 0.91584 0.06165 0.0
C790 C 0.56074 0.88224 0.9238 0.0
C791 C 0.54275 0.88288 0.94311 0.0
C792 C 0.56705 0.90443 0.01869 0.0
C793 C 0.53744 0.89465 0.99993 0.0
C794 C 0.57362 0.92482 0.12639 0.0
C795 C 0.60815 0.92837 0.07628 0.0
N796 N 0.54953 0.90487 0.03578 0.0
N797 N 0.59649 0.91785 0.03872 0.0
H798 H 0.61775 0.56597 0.38859 0.0
H799 H 0.55129 0.58167 0.73233 0.0
H800 H 0.59544 0.5243 0.52511 0.0
H801 H 0.56342 0.62259 0.57063 0.0
H802 H 0.56932 0.56108 0.66052 0.0
H803 H 0.59945 0.58748 0.45686 0.0
C804 C 0.60897 0.56133 0.43255 0.0
C805 C 0.60816 0.5433 0.45125 0.0
C806 C 0.56806 0.57455 0.64056 0.0
C807 C 0.5874 0.56778 0.52969 0.0
C808 C 0.5578 0.58637 0.6818 0.0
C809 C 0.55583 0.60391 0.65753 0.0
C810 C 0.57655 0.58027 0.57454 0.0
C811 C 0.56459 0.60919 0.59142 0.0
C812 C 0.59855 0.5736 0.47143 0.0
C813 C 0.59654 0.53803 0.50864 0.0
N814 N 0.57462 0.5974 0.55218 0.0
N815 N 0.58672 0.55021 0.54595 0.0
H816 H 0.04799 0.28644 0.22002 0.0
H817 H 0.989 0.19997 0.27197 0.0
H818 H 0.9915 0.2878 0.25368 0.0
H819 H 0.04499 0.2003 0.31877 0.0
H820 H 0.99006 0.23185 0.25111 0.0
H821 H 0.04758 0.25443 0.2428 0.0
C822 C 0.03552 0.28 0.23213 0.0
C823 C 0.01975 0.28974 0.23498 0.0
C824 C 0.00211 0.22497 0.26614 0.0
C825 C 0.01918 0.25329 0.2604 0.0
C826 C 0.00153 0.20677 0.27779 0.0
C827 C 0.01693 0.19752 0.29722 0.0
C828 C 0.01826 0.23397 0.273 0.0
C829 C 0.03281 0.20698 0.30416 0.0
C830 C 0.03531 0.26178 0.24537 0.0
C831 C 0.00397 0.28079 0.25113 0.0
N832 N 0.03309 0.22473 0.29165 0.0
N833 N 0.00407 0.26306 0.26281 0.0
H834 H 0.28659 0.03698 0.87902 0.0
H835 H 0.20314 0.03933 0.61903 0.0
H836 H 0.29029 0.01358 0.65787 0.0
H837 H 0.19903 0.01392 0.8359 0.0
H838 H 0.23558 0.0396 0.63276 0.0
H839 H 0.25421 0.03829 0.86475 0.0
C840 C 0.28056 0.03232 0.82729 0.0
C841 C 0.29093 0.02511 0.76955 0.0
C842 C 0.22747 0.03408 0.67724 0.0
C843 C 0.25443 0.027 0.75243 0.0
C844 C 0.2091 0.03398 0.66967 0.0
C845 C 0.19859 0.02651 0.72634 0.0
C846 C 0.23515 0.02725 0.74299 0.0
C847 C 0.2068 0.01965 0.79085 0.0
C848 C 0.26222 0.033 0.81942 0.0
C849 C 0.28261 0.01912 0.70369 0.0
N850 N 0.22467 0.02035 0.79794 0.0
N851 N 0.26477 0.02036 0.69645 0.0
H852 H 0.4936 0.28938 0.25539 0.0
H853 H 0.4355 0.20208 0.20686 0.0
H854 H 0.43726 0.2889 0.29375 0.0
H855 H 0.49183 0.2015 0.24571 0.0
H856 H 0.43554 0.23425 0.22511 0.0
H857 H 0.49288 0.25739 0.23717 0.0
C858 C 0.48106 0.28253 0.2598 0.0
C859 C 0.46547 0.29177 0.27625 0.0
C860 C 0.44786 0.22703 0.22981 0.0
C861 C 0.46455 0.25519 0.25518 0.0
C862 C 0.44786 0.20872 0.21921 0.0
C863 C 0.46369 0.19915 0.22483 0.0
C864 C 0.46385 0.23578 0.24502 0.0
C865 C 0.47932 0.20837 0.2411 0.0
C866 C 0.48068 0.26427 0.24968 0.0
C867 C 0.44959 0.28224 0.28144 0.0
N868 N 0.47902 0.22618 0.25022 0.0
N869 N 0.44952 0.26443 0.27064 0.0
H870 H 0.28772 0.49438 0.75451 0.0
H871 H 0.20163 0.4346 0.80071 0.0
H872 H 0.28888 0.4386 0.70257 0.0
H873 H 0.2009 0.49094 0.76162 0.0
H874 H 0.23394 0.43481 0.78216 0.0
H875 H 0.2561 0.49234 0.77662 0.0
C876 C 0.28131 0.48166 0.74789 0.0
C877 C 0.29092 0.46665 0.72629 0.0
C878 C 0.2266 0.44706 0.77758 0.0
C879 C 0.25459 0.46422 0.75175 0.0
C880 C 0.20825 0.44696 0.78839 0.0
C881 C 0.19862 0.46277 0.78254 0.0
C882 C 0.23523 0.46312 0.76225 0.0
C883 C 0.20777 0.47843 0.76631 0.0
C884 C 0.26322 0.48052 0.7603 0.0
C885 C 0.28189 0.45051 0.7187 0.0
N886 N 0.22553 0.4782 0.75714 0.0
N887 N 0.26415 0.44968 0.73161 0.0
H888 H -0.00119 0.78843 0.75663 0.0
H889 H 0.94121 0.70082 0.80046 0.0
H890 H 0.94279 0.78815 0.71036 0.0
H891 H -0.00263 0.70096 0.75751 0.0
H892 H 0.94087 0.73312 0.78345 0.0
H893 H -0.00211 0.7565 0.77439 0.0
C894 C 0.98629 0.78164 0.75035 0.0
C895 C 0.97086 0.79091 0.73177 0.0
C896 C 0.95321 0.726 0.77762 0.0
C897 C 0.9697 0.75434 0.75239 0.0
C898 C 0.95343 0.70764 0.78755 0.0
C899 C 0.96933 0.69825 0.78029 0.0
C900 C 0.96906 0.73492 0.76167 0.0
C901 C 0.98479 0.70766 0.76334 0.0
C902 C 0.98579 0.7634 0.76023 0.0
C903 C 0.955 0.78143 0.72427 0.0
N904 N 0.98428 0.72547 0.75505 0.0
N905 N 0.95479 0.7636 0.73493 0.0
H906 H 0.78756 0.99322 0.28926 0.0
H907 H 0.69896 0.93819 0.22525 0.0
H908 H 0.78488 0.9368 0.32399 0.0
H909 H 0.69978 0.99457 0.26332 0.0
H910 H 0.73078 0.93715 0.25127 0.0
H911 H 0.75563 0.99378 0.26954 0.0
C912 C 0.78023 0.98094 0.29288 0.0
C913 C 0.78884 0.96493 0.30826 0.0
C914 C 0.72395 0.94972 0.25418 0.0
C915 C 0.75233 0.96546 0.28517 0.0
C916 C 0.70584 0.95034 0.23907 0.0
C917 C 0.69677 0.9665 0.24203 0.0
C918 C 0.73303 0.96541 0.27135 0.0
C919 C 0.70627 0.98182 0.26049 0.0
C920 C 0.762 0.98128 0.28183 0.0
C921 C 0.77871 0.94943 0.3125 0.0
N922 N 0.72391 0.98092 0.27401 0.0
N923 N 0.76096 0.95004 0.30047 0.0
H924 H 0.49345 0.78772 0.77289 0.0
H925 H 0.55336 0.70153 0.73501 0.0
H926 H 0.54948 0.78876 0.81882 0.0
H927 H 0.49698 0.70002 0.77186 0.0
H928 H 0.55272 0.73375 0.75292 0.0
H929 H 0.49497 0.75569 0.75851 0.0
C930 C 0.5061 0.78119 0.77984 0.0
C931 C 0.52137 0.79088 0.79712 0.0
C932 C 0.54054 0.7263 0.75735 0.0
C933 C 0.52321 0.75421 0.78039 0.0
C934 C 0.54088 0.70797 0.74693 0.0
C935 C 0.52519 0.69814 0.75191 0.0
C936 C 0.52436 0.73478 0.77165 0.0
C937 C 0.50939 0.70709 0.76766 0.0
C938 C 0.50694 0.7629 0.77193 0.0
C939 C 0.53739 0.78174 0.80574 0.0
N940 N 0.50936 0.72491 0.77647 0.0
N941 N 0.53793 0.76387 0.79686 0.0
H942 H 0.78873 0.55436 0.21947 0.0
H943 H 0.7025 0.49515 0.26974 0.0
H944 H 0.78976 0.49805 0.25913 0.0
H945 H 0.70176 0.55133 0.31299 0.0
H946 H 0.73432 0.4966 0.25123 0.0
H947 H 0.75662 0.55417 0.24069 0.0
C948 C 0.78221 0.54199 0.23268 0.0
C949 C 0.79188 0.52619 0.23745 0.0
C950 C 0.72724 0.50863 0.26493 0.0
C951 C 0.75537 0.52588 0.26099 0.0
C952 C 0.70905 0.50783 0.27519 0.0
C953 C 0.69949 0.52315 0.29299 0.0
C954 C 0.73601 0.5249 0.27165 0.0
C955 C 0.70868 0.53921 0.29957 0.0
C956 C 0.76395 0.54191 0.24499 0.0
C957 C 0.78284 0.51054 0.25496 0.0
N958 N 0.72649 0.5397 0.28852 0.0
N959 N 0.7651 0.51077 0.2656 0.0
H960 H 0.99034 0.31463 0.86001 0.0
H961 H 0.05173 0.35646 0.53867 0.0
H962 H 0.03364 0.35021 0.90621 0.0
H963 H 0.00625 0.32371 0.49305 0.0
H964 H 0.04609 0.35343 0.67366 0.0
H965 H -0.00335 0.317 0.72566 0.0
C966 C 0.00115 0.32299 0.84204 0.0
C967 C 0.0114 0.3323 0.89483 0.0
C968 C 0.03733 0.34691 0.63411 0.0
C969 C 0.01884 0.33495 0.74049 0.0
C970 C 0.04061 0.34856 0.55698 0.0
C971 C 0.02945 0.34035 0.50423 0.0
C972 C 0.02282 0.33691 0.65892 0.0
C973 C 0.01507 0.33049 0.53137 0.0
C974 C 0.0048 0.32428 0.76516 0.0
C975 C 0.02547 0.34266 0.86791 0.0
N976 N 0.01219 0.32903 0.60675 0.0
N977 N 0.02873 0.34374 0.79266 0.0
H978 H 0.13596 0.05978 0.04633 0.0
H979 H 0.16865 0.99312 0.36843 0.0
H980 H 0.16275 0.01049 1.0019 0.0
H981 H 0.1378 0.03993 0.41424 0.0
H982 H 0.16748 -6e-05 0.23437 0.0
H983 H 0.13756 0.05353 0.18151 0.0
C984 C 0.14225 0.04768 0.06493 0.0
C985 C 0.14918 0.03563 0.01244 0.0
C986 C 0.16096 0.00873 0.27369 0.0
C987 C 0.15097 0.02833 0.16727 0.0
C988 C 0.16154 0.00479 0.35049 0.0
C989 C 0.15324 0.0159 0.4032 0.0
C990 C 0.15203 0.02394 0.24887 0.0
C991 C 0.14455 0.03106 0.37609 0.0
C992 C 0.14307 0.04408 0.14214 0.0
C993 C 0.15698 0.02005 0.03995 0.0
N994 N 0.14415 0.0346 0.30089 0.0
N995 N 0.15769 0.01688 0.11531 0.0
H996 H 0.49384 0.17404 0.85399 0.0
H997 H 0.43239 0.13227 0.53214 0.0
H998 H 0.45064 0.13834 0.89995 0.0
H999 H 0.47771 0.16527 0.48711 0.0
H1000 H 0.43807 0.13523 0.66722 0.0
H1001 H 0.48743 0.17175 0.71967 0.0
C1002 C 0.48304 0.16566 0.83597 0.0
C1003 C 0.47284 0.1563 0.8887 0.0
C1004 C 0.44678 0.14182 0.62776 0.0
C1005 C 0.46529 0.15375 0.73435 0.0
C1006 C 0.44349 0.1402 0.55059 0.0
C1007 C 0.4546 0.1485 0.49796 0.0
C1008 C 0.46126 0.15186 0.65275 0.0
C1009 C 0.46893 0.15842 0.5253 0.0
C1010 C 0.47933 0.16443 0.7591 0.0
C1011 C 0.45877 0.14593 0.8617 0.0
N1012 N 0.47182 0.15984 0.6007 0.0
N1013 N 0.45545 0.1449 0.78645 0.0
H1014 H 0.32201 0.48176 0.97838 0.0
H1015 H 0.35375 0.4598 0.39876 0.0
H1016 H 0.36244 0.44342 0.03078 0.0
H1017 H 0.30977 0.49412 0.34708 0.0
H1018 H 0.35735 0.45386 0.26451 0.0
H1019 H 0.31793 0.4871 0.11301 0.0
C1020 C 0.33013 0.47455 0.01808 0.0
C1021 C 0.34263 0.46213 0.99298 0.0
C1022 C 0.34686 0.46264 0.28256 0.0
C1023 C 0.33787 0.46806 0.14773 0.0
C1024 C 0.3447 0.46595 0.35948 0.0
C1025 C 0.33138 0.47747 0.3848 0.0
C1026 C 0.33568 0.47094 0.23015 0.0
C1027 C 0.32033 0.48532 0.33053 0.0
C1028 C 0.3277 0.47751 0.0951 0.0
C1029 C 0.35254 0.45297 0.04742 0.0
N1030 N 0.32275 0.48193 0.25593 0.0
N1031 N 0.34998 0.45614 0.1221 0.0
H1032 H 0.98671 0.174 0.66855 0.0
H1033 H 0.04687 0.12908 0.98803 0.0
H1034 H 0.02903 0.13744 0.62018 0.0
H1035 H 0.00316 0.16398 0.03584 0.0
H1036 H 0.04113 0.13261 0.8533 0.0
H1037 H 0.9931 0.1711 0.8029 0.0
C1038 C -0.00265 0.16535 0.68599 0.0
C1039 C 0.0073 0.15594 0.63247 0.0
C1040 C 0.03278 0.13949 0.89326 0.0
C1041 C 0.01479 0.15262 0.78711 0.0
C1042 C 0.0361 0.13754 0.97041 0.0
C1043 C 0.0255 0.14624 0.02391 0.0
C1044 C 0.01877 0.15027 0.86891 0.0
C1045 C 0.01157 0.15683 0.99714 0.0
C1046 C 0.00104 0.16375 0.76293 0.0
C1047 C 0.02112 0.14514 0.65894 0.0
N1048 N 0.00864 0.15856 0.92176 0.0
N1049 N 0.0244 0.14374 0.73422 0.0
H1050 H 0.33267 0.04125 0.08397 0.0
H1051 H 0.34518 0.00242 0.50094 0.0
H1052 H 0.33468 0.9855 0.13528 0.0
H1053 H 0.33817 0.05801 0.45398 0.0
H1054 H 0.34209 -0.00386 0.36685 0.0
H1055 H 0.33558 0.0478 0.21838 0.0
C1056 C 0.33376 0.03037 0.12325 0.0
C1057 C 0.33339 0.01276 0.09781 0.0
C1058 C 0.34121 0.00972 0.38586 0.0
C1059 C 0.33666 0.02021 0.25238 0.0
C1060 C 0.34289 0.01333 0.46278 0.0
C1061 C 0.34188 0.0308 0.48956 0.0
C1062 C 0.33854 0.02365 0.33471 0.0
C1063 C 0.33924 0.04436 0.43641 0.0
C1064 C 0.33534 0.03413 0.2002 0.0
C1065 C 0.33464 -0.00075 0.15198 0.0
N1066 N 0.33765 0.0405 0.36174 0.0
N1067 N 0.33627 0.00325 0.22641 0.0
H1068 H 0.45167 0.35271 0.59864 0.0
H1069 H 0.47859 0.32314 0.01645 0.0
H1070 H 0.49456 0.31691 0.64852 0.0
H1071 H 0.435 0.35811 0.9671 0.0
H1072 H 0.48438 0.32043 0.88176 0.0
H1073 H 0.44487 0.35431 0.73293 0.0
C1074 C 0.45958 0.34506 0.63762 0.0
C1075 C 0.47374 0.33467 0.61199 0.0
C1076 C 0.47353 0.32868 0.90034 0.0
C1077 C 0.46615 0.33662 0.76628 0.0
C1078 C 0.47028 0.33033 0.97743 0.0
C1079 C 0.45632 0.34096 1.00336 0.0
C1080 C 0.46279 0.33775 0.84856 0.0
C1081 C 0.44578 0.34965 0.94973 0.0
C1082 C 0.45575 0.34607 0.71447 0.0
C1083 C 0.48369 0.32528 0.66559 0.0
N1084 N 0.44927 0.3479 0.87495 0.0
N1085 N 0.47972 0.3265 0.74008 0.0
H1086 H 0.15607 0.50172 0.15199 0.0
H1087 H 0.14952 0.42794 0.4747 0.0
H1088 H 0.1568 0.44566 0.10619 0.0
H1089 H 0.14496 0.48401 0.51659 0.0
H1090 H 0.15278 0.43407 0.34043 0.0
H1091 H 0.15304 0.49537 0.28597 0.0
C1092 C 0.15576 0.48805 0.16992 0.0
C1093 C 0.1568 0.47422 0.1171 0.0
C1094 C 0.15106 0.44503 0.37902 0.0
C1095 C 0.15304 0.46683 0.27158 0.0
C1096 C 0.14908 0.44154 0.45599 0.0
C1097 C 0.14692 0.45546 0.50784 0.0
C1098 C 0.15092 0.46258 0.35316 0.0
C1099 C 0.1468 0.47283 0.47946 0.0
C1100 C 0.15389 0.48444 0.2467 0.0
C1101 C 0.15592 0.45677 0.14433 0.0
N1102 N 0.14877 0.47587 0.4043 0.0
N1103 N 0.15413 0.45359 0.21954 0.0
H1104 H 0.98381 0.66602 0.51918 0.0
H1105 H 0.95863 0.6367 0.09837 0.0
H1106 H 0.94224 0.62888 0.46712 0.0
H1107 H -0.00154 0.6757 0.15089 0.0
H1108 H 0.95219 0.63386 0.23271 0.0
H1109 H 0.98947 0.66952 0.38461 0.0
C1110 C 0.97593 0.65849 0.47962 0.0
C1111 C 0.96253 0.64708 0.50492 0.0
C1112 C 0.9623 0.64309 0.21484 0.0
C1113 C 0.96885 0.65122 0.34997 0.0
C1114 C 0.9659 0.64483 0.13791 0.0
C1115 C 0.97911 0.6565 0.11287 0.0
C1116 C 0.97198 0.65305 0.26748 0.0
C1117 C 0.98831 0.66639 0.16732 0.0
C1118 C 0.9791 0.66061 0.40256 0.0
C1119 C 0.95257 0.63795 0.45047 0.0
N1120 N 0.98459 0.66443 0.24186 0.0
N1121 N 0.95595 0.64018 0.37574 0.0
H1122 H 0.82579 0.9283 0.99108 0.0
H1123 H 0.84728 -0.00177 0.66574 0.0
H1124 H 0.85154 0.97841 0.03079 0.0
H1125 H 0.82743 0.94572 0.62198 0.0
H1126 H 0.84819 0.99143 0.80009 0.0
H1127 H 0.82576 0.93456 0.85624 0.0
C1128 C 0.83154 0.94057 0.97167 0.0
C1129 C 0.83867 0.95285 0.02286 0.0
C1130 C 0.84366 0.98137 0.76116 0.0
C1131 C 0.83846 0.96019 0.86802 0.0
C1132 C 0.84303 0.98528 0.68439 0.0
C1133 C 0.83718 0.97256 0.63243 0.0
C1134 C 0.83831 0.96462 0.78651 0.0
C1135 C 0.83216 0.95588 0.65988 0.0
C1136 C 0.83144 0.94417 0.89449 0.0
C1137 C 0.84567 0.96866 0.99393 0.0
N1138 N 0.83276 0.95242 0.73507 0.0
N1139 N 0.84536 0.97187 0.91857 0.0
H1140 H 0.50698 0.82282 0.52996 0.0
H1141 H 0.53149 0.85378 0.11094 0.0
H1142 H 0.54923 0.85928 0.47949 0.0
H1143 H 0.49202 0.81428 0.1614 0.0
H1144 H 0.53817 0.85605 0.24528 0.0
H1145 H 0.50099 0.81997 0.39529 0.0
C1146 C 0.51494 0.83032 0.49071 0.0
C1147 C 0.52862 0.84135 0.51643 0.0
C1148 C 0.52809 0.84685 0.22692 0.0
C1149 C 0.52193 0.83799 0.36146 0.0
C1150 C 0.52433 0.84544 0.14998 0.0
C1151 C 0.51116 0.83379 0.12433 0.0
C1152 C 0.51859 0.83657 0.27897 0.0
C1153 C 0.50212 0.8236 0.17823 0.0
C1154 C 0.51159 0.82859 0.41361 0.0
C1155 C 0.53868 0.85049 0.46243 0.0
N1156 N 0.50598 0.82525 0.25279 0.0
N1157 N 0.53511 0.84864 0.38765 0.0
H1158 H 0.64562 0.50023 0.03141 0.0
H1159 H 0.65721 0.54057 0.61677 0.0
H1160 H 0.64991 0.55619 0.98656 0.0
H1161 H 0.65876 0.48471 0.66616 0.0
H1162 H 0.65349 0.54664 0.75121 0.0
H1163 H 0.64953 0.49438 0.89729 0.0
C1164 C 0.64746 0.51131 0.9937 0.0
C1165 C 0.64747 0.52876 0.02102 0.0
C1166 C 0.6547 0.53305 0.7326 0.0
C1167 C 0.65176 0.5221 0.86637 0.0
C1168 C 0.65675 0.52957 0.65567 0.0
C1169 C 0.65835 0.51208 0.62976 0.0
C1170 C 0.65413 0.51896 0.78419 0.0
C1171 C 0.65785 0.4984 0.68334 0.0
C1172 C 0.64962 0.50794 0.91682 0.0
C1173 C 0.64959 0.54254 0.96854 0.0
N1174 N 0.65574 0.50212 0.75776 0.0
N1175 N 0.65166 0.53892 0.89394 0.0
H1176 H 0.95318 0.82939 0.41058 0.0
H1177 H 0.99164 0.84703 0.99608 0.0
H1178 H 0.00846 0.83771 0.36181 0.0
H1179 H 0.93646 0.83701 0.04087 0.0
H1180 H -0.0021 0.8437 0.13019 0.0
H1181 H 0.94662 0.83236 0.27612 0.0
C1182 C 0.96395 0.83184 0.37192 0.0
C1183 C 0.98144 0.83323 0.39816 0.0
C1184 C 0.98441 0.84223 0.11074 0.0
C1185 C 0.97398 0.83659 0.24355 0.0
C1186 C 0.98083 0.84404 0.03384 0.0
C1187 C 0.96348 0.84227 1.00651 0.0
C1188 C 0.97057 0.83861 0.16125 0.0
C1189 C 0.95 0.8387 0.059 0.0
C1190 C 0.96019 0.83347 0.29493 0.0
C1191 C -0.00517 0.83625 0.34469 0.0
N1192 N 0.95383 0.83697 0.13364 0.0
N1193 N 0.99082 0.83785 0.27029 0.0
H1194 H 0.63584 0.95462 0.91086 0.0
H1195 H 0.66478 0.98133 0.49228 0.0
H1196 H 0.67369 -0.00432 0.86062 0.0
H1197 H 0.62876 0.93868 0.54241 0.0
H1198 H 0.66811 0.98685 0.62701 0.0
H1199 H 0.63332 0.94833 0.77641 0.0
C1200 C 0.64375 0.96222 0.87177 0.0
C1201 C 0.65499 0.97573 0.89735 0.0
C1202 C 0.65948 0.97626 0.60859 0.0
C1203 C 0.65196 0.96874 0.74288 0.0
C1204 C 0.65747 0.97319 0.53151 0.0
C1205 C 0.6464 0.95955 0.50584 0.0
C1206 C 0.65033 0.96567 0.66057 0.0
C1207 C 0.63755 0.94921 0.55964 0.0
C1208 C 0.64221 0.95869 0.79482 0.0
C1209 C 0.66468 0.98532 0.8436 0.0
N1210 N 0.63967 0.95251 0.63439 0.0
N1211 N 0.66292 0.98166 0.769 0.0
H1212 H 0.5128 0.66705 0.00962 0.0
H1213 H 0.53932 0.63732 0.42771 0.0
H1214 H 0.55563 0.63118 0.05931 0.0
H1215 H 0.49702 0.67379 0.37769 0.0
H1216 H 0.54605 0.63552 0.29341 0.0
H1217 H 0.50713 0.67002 0.14433 0.0
C1218 C 0.52097 0.65971 0.04872 0.0
C1219 C 0.53468 0.64876 0.02288 0.0
C1220 C 0.53532 0.64396 0.31184 0.0
C1221 C 0.52835 0.65227 0.17768 0.0
C1222 C 0.53153 0.64508 0.38869 0.0
C1223 C 0.51755 0.65572 0.41427 0.0
C1224 C 0.52505 0.65353 0.25997 0.0
C1225 C 0.50775 0.66524 0.36064 0.0
C1226 C 0.51779 0.66151 0.12582 0.0
C1227 C 0.54505 0.63989 0.0766 0.0
N1228 N 0.51167 0.6639 0.28612 0.0
N1229 N 0.54163 0.64179 0.15137 0.0
H1230 H 0.84977 0.50611 0.49593 0.0
H1231 H 0.83061 0.54489 0.90798 0.0
H1232 H 0.8363 0.56071 0.53808 0.0
H1233 H 0.83994 0.48964 0.8615 0.0
H1234 H 0.83352 0.55122 0.77338 0.0
H1235 H 0.84681 0.50003 0.63026 0.0
C1236 C 0.84608 0.51682 0.53322 0.0
C1237 C 0.84322 0.53395 0.50523 0.0
C1238 C 0.83489 0.53771 0.79269 0.0
C1239 C 0.84004 0.52711 0.65984 0.0
C1240 C 0.83332 0.53409 0.86962 0.0
C1241 C 0.83499 0.51669 0.89627 0.0
C1242 C 0.83823 0.52383 0.74197 0.0
C1243 C 0.83829 0.50321 0.84364 0.0
C1244 C 0.84449 0.51335 0.61014 0.0
C1245 C 0.83882 0.54735 0.55687 0.0
N1246 N 0.83983 0.50707 0.76917 0.0
N1247 N 0.83736 0.54364 0.63159 0.0
loop_
_geom_bond_atom_site_label_1
_geom_bond_atom_site_label_2
_geom_bond_distance
_geom_bond_site_symmetry_2
_ccdc_geom_bond_type
Co0 N4 2.148 . S
Co0 N10 2.128 . S
Co0 N20 2.194 . S
Co0 O25 2.351 . S
Co0 O26 2.155 . S
Co0 O27 2.096 . S
C1 N4 1.301 . S
C1 N5 1.328 . S
C1 H6 0.930 . S
C2 C3 1.333 . S
C2 N4 1.317 . S
C2 H7 0.930 . S
C3 C2 1.333 . S
C3 N5 1.350 . S
C3 H29 0.931 . S
N4 Co0 2.148 . S
N4 C1 1.301 . S
N4 C2 1.317 . S
N5 C1 1.328 . S
N5 C3 1.350 . S
H6 C1 0.930 . S
H7 C2 0.930 . S
C8 O9 1.224 . S
C8 O27 1.247 . S
O9 C8 1.224 . S
N10 Co0 2.128 . S
N10 C11 1.355 1_554 S
N10 C13 1.311 1_554 S
C11 N10 1.355 1_556 S
C11 C12 1.363 . S
C11 H23 0.929 1_456 S
C12 C11 1.363 . S
C12 N14 1.375 . S
C12 H30 0.931 1_455 S
C13 N10 1.311 1_556 S
C13 N14 1.347 . S
C13 H24 0.929 . S
N14 C12 1.375 . S
N14 C13 1.347 . S
C15 C18 1.365 . S
C15 N20 1.328 1_655 S
C15 H21 0.929 . S
C16 C17 1.362 . S
C16 C19 1.378 1_655 S
C16 H31 0.929 . S
C17 C16 1.362 . S
C17 C18 1.366 . S
C18 C15 1.365 . S
C18 C17 1.366 . S
C18 H32 0.930 . S
C19 C16 1.378 1_455 S
C19 N20 1.315 . S
C19 H22 0.930 . S
N20 Co0 2.194 . S
N20 C15 1.328 1_455 S
N20 C19 1.315 . S
H21 C15 0.929 . S
H22 C19 0.930 . S
H23 C11 0.929 1_654 S
H24 C13 0.929 . S
O25 Co0 2.351 . S
O25 C28 1.244 . S
O26 Co0 2.155 . S
O26 C28 1.240 . S
O27 Co0 2.096 . S
O27 C8 1.247 . S
C28 O25 1.244 . S
C28 O26 1.240 . S
H29 C3 0.931 . S
H30 C12 0.931 1_655 S
H31 C16 0.929 . S
H32 C18 0.930 . S
Co33 N37 2.148 . S
Co33 N43 2.128 . S
Co33 N53 2.194 . S
Co33 O58 2.351 . S
Co33 O59 2.155 . S
Co33 O60 2.096 . S
C34 N37 1.301 . S
C34 N38 1.328 . S
C34 H39 0.930 . S
C35 C36 1.333 . S
C35 N37 1.317 . S
C35 H40 0.930 . S
C36 C35 1.333 . S
C36 N38 1.350 . S
C36 H62 0.931 . S
N37 Co33 2.148 . S
N37 C34 1.301 . S
N37 C35 1.317 . S
N38 C34 1.328 . S
N38 C36 1.350 . S
H39 C34 0.930 . S
H40 C35 0.930 . S
C41 O42 1.224 . S
C41 O60 1.247 . S
O42 C41 1.224 . S
N43 Co33 2.128 . S
N43 C44 1.355 . S
N43 C46 1.311 . S
C44 N43 1.355 . S
C44 C45 1.363 . S
C44 H56 0.929 1_545 S
C45 C44 1.363 . S
C45 N47 1.375 . S
C45 H63 0.931 1_545 S
C46 N43 1.311 . S
C46 N47 1.347 . S
C46 H57 0.929 . S
N47 C45 1.375 . S
N47 C46 1.347 . S
C48 C51 1.365 . S
C48 N53 1.328 1_565 S
C48 H54 0.929 . S
C49 C50 1.362 . S
C49 C52 1.378 1_565 S
C49 H64 0.929 . S
C50 C49 1.362 . S
C50 C51 1.366 . S
C51 C48 1.365 . S
C51 C50 1.366 . S
C51 H65 0.930 . S
C52 C49 1.378 1_545 S
C52 N53 1.315 . S
C52 H55 0.930 . S
N53 Co33 2.194 . S
N53 C48 1.328 1_545 S
N53 C52 1.315 . S
H54 C48 0.929 . S
H55 C52 0.930 . S
H56 C44 0.929 1_565 S
H57 C46 0.929 . S
O58 Co33 2.351 . S
O58 C61 1.244 . S
O59 Co33 2.155 . S
O59 C61 1.240 . S
O60 Co33 2.096 . S
O60 C41 1.247 . S
C61 O58 1.244 . S
C61 O59 1.240 . S
H62 C36 0.931 . S
H63 C45 0.931 1_565 S
H64 C49 0.929 . S
H65 C51 0.930 . S
Co66 N70 2.148 . S
Co66 N76 2.128 . S
Co66 N86 2.194 . S
Co66 O91 2.351 . S
Co66 O92 2.155 . S
Co66 O93 2.096 . S
C67 N70 1.301 . S
C67 N71 1.328 . S
C67 H72 0.930 . S
C68 C69 1.333 . S
C68 N70 1.317 . S
C68 H73 0.930 . S
C69 C68 1.333 . S
C69 N71 1.350 . S
C69 H95 0.931 . S
N70 Co66 2.148 . S
N70 C67 1.301 . S
N70 C68 1.317 . S
N71 C67 1.328 . S
N71 C69 1.350 . S
H72 C67 0.930 . S
H73 C68 0.930 . S
C74 O75 1.224 . S
C74 O93 1.247 . S
O75 C74 1.224 . S
N76 Co66 2.128 . S
N76 C77 1.355 1_554 S
N76 C79 1.311 1_554 S
C77 N76 1.355 1_556 S
C77 C78 1.363 . S
C77 H89 0.929 1_556 S
C78 C77 1.363 . S
C78 N80 1.375 . S
C78 H96 0.931 . S
C79 N76 1.311 1_556 S
C79 N80 1.347 . S
C79 H90 0.929 . S
N80 C78 1.375 . S
N80 C79 1.347 . S
C81 C84 1.365 . S
C81 N86 1.328 . S
C81 H87 0.929 . S
C82 C83 1.362 . S
C82 C85 1.378 . S
C82 H97 0.929 . S
C83 C82 1.362 . S
C83 C84 1.366 . S
C84 C81 1.365 . S
C84 C83 1.366 . S
C84 H98 0.930 . S
C85 C82 1.378 . S
C85 N86 1.315 . S
C85 H88 0.930 . S
N86 Co66 2.194 . S
N86 C81 1.328 . S
N86 C85 1.315 . S
H87 C81 0.929 . S
H88 C85 0.930 . S
H89 C77 0.929 1_554 S
H90 C79 0.929 . S
O91 Co66 2.351 . S
O91 C94 1.244 . S
O92 Co66 2.155 . S
O92 C94 1.240 . S
O93 Co66 2.096 . S
O93 C74 1.247 . S
C94 O91 1.244 . S
C94 O92 1.240 . S
H95 C69 0.931 . S
H96 C78 0.931 . S
H97 C82 0.929 . S
H98 C84 0.930 . S
Co99 N103 2.148 . S
Co99 N109 2.128 . S
Co99 N119 2.194 . S
Co99 O124 2.351 . S
Co99 O125 2.155 . S
Co99 O126 2.096 . S
C100 N103 1.301 . S
C100 N104 1.328 . S
C100 H105 0.930 . S
C101 C102 1.333 . S
C101 N103 1.317 . S
C101 H106 0.930 . S
C102 C101 1.333 . S
C102 N104 1.350 . S
C102 H128 0.931 . S
N103 Co99 2.148 . S
N103 C100 1.301 . S
N103 C101 1.317 . S
N104 C100 1.328 . S
N104 C102 1.350 . S
H105 C100 0.930 . S
H106 C101 0.930 . S
C107 O108 1.224 . S
C107 O126 1.247 . S
O108 C107 1.224 . S
N109 Co99 2.128 . S
N109 C110 1.355 . S
N109 C112 1.311 . S
C110 N109 1.355 . S
C110 C111 1.363 . S
C110 H122 0.929 . S
C111 C110 1.363 . S
C111 N113 1.375 . S
C111 H129 0.931 . S
C112 N109 1.311 . S
C112 N113 1.347 . S
C112 H123 0.929 . S
N113 C111 1.375 . S
N113 C112 1.347 . S
C114 C117 1.365 . S
C114 N119 1.328 . S
C114 H120 0.929 . S
C115 C116 1.362 . S
C115 C118 1.378 . S
C115 H130 0.929 . S
C116 C115 1.362 . S
C116 C117 1.366 . S
C117 C114 1.365 . S
C117 C116 1.366 . S
C117 H131 0.930 . S
C118 C115 1.378 . S
C118 N119 1.315 . S
C118 H121 0.930 . S
N119 Co99 2.194 . S
N119 C114 1.328 . S
N119 C118 1.315 . S
H120 C114 0.929 . S
H121 C118 0.930 . S
H122 C110 0.929 . S
H123 C112 0.929 . S
O124 Co99 2.351 . S
O124 C127 1.244 . S
O125 Co99 2.155 . S
O125 C127 1.240 . S
O126 Co99 2.096 . S
O126 C107 1.247 . S
C127 O124 1.244 . S
C127 O125 1.240 . S
H128 C102 0.931 . S
H129 C111 0.931 . S
H130 C115 0.929 . S
H131 C117 0.930 . S
Co132 N136 2.148 . S
Co132 N142 2.128 . S
Co132 N152 2.194 . S
Co132 O157 2.351 . S
Co132 O158 2.155 . S
Co132 O159 2.096 . S
C133 N136 1.301 . S
C133 N137 1.328 . S
C133 H138 0.930 . S
C134 C135 1.333 . S
C134 N136 1.317 . S
C134 H139 0.930 . S
C135 C134 1.333 . S
C135 N137 1.350 . S
C135 H161 0.931 . S
N136 Co132 2.148 . S
N136 C133 1.301 . S
N136 C134 1.317 . S
N137 C133 1.328 . S
N137 C135 1.350 . S
H138 C133 0.930 . S
H139 C134 0.930 . S
C140 O141 1.224 . S
C140 O159 1.247 . S
O141 C140 1.224 . S
N142 Co132 2.128 . S
N142 C143 1.355 . S
N142 C145 1.311 . S
C143 N142 1.355 . S
C143 C144 1.363 . S
C143 H155 0.929 1_455 S
C144 C143 1.363 . S
C144 N146 1.375 . S
C144 H162 0.931 1_455 S
C145 N142 1.311 . S
C145 N146 1.347 . S
C145 H156 0.929 . S
N146 C144 1.375 . S
N146 C145 1.347 . S
C147 C150 1.365 . S
C147 N152 1.328 1_655 S
C147 H153 0.929 . S
C148 C149 1.362 . S
C148 C151 1.378 1_655 S
C148 H163 0.929 . S
C149 C148 1.362 . S
C149 C150 1.366 . S
C150 C147 1.365 . S
C150 C149 1.366 . S
C150 H164 0.930 . S
C151 C148 1.378 1_455 S
C151 N152 1.315 . S
C151 H154 0.930 . S
N152 Co132 2.194 . S
N152 C147 1.328 1_455 S
N152 C151 1.315 . S
H153 C147 0.929 . S
H154 C151 0.930 . S
H155 C143 0.929 1_655 S
H156 C145 0.929 . S
O157 Co132 2.351 . S
O157 C160 1.244 . S
O158 Co132 2.155 . S
O158 C160 1.240 . S
O159 Co132 2.096 . S
O159 C140 1.247 . S
C160 O157 1.244 . S
C160 O158 1.240 . S
H161 C135 0.931 . S
H162 C144 0.931 1_655 S
H163 C148 0.929 . S
H164 C150 0.930 . S
Co165 N169 2.148 . S
Co165 N175 2.128 . S
Co165 N185 2.194 . S
Co165 O190 2.351 . S
Co165 O191 2.155 . S
Co165 O192 2.096 . S
C166 N169 1.301 . S
C166 N170 1.328 . S
C166 H171 0.930 . S
C167 C168 1.333 . S
C167 N169 1.317 . S
C167 H172 0.930 . S
C168 C167 1.333 . S
C168 N170 1.350 . S
C168 H194 0.931 . S
N169 Co165 2.148 . S
N169 C166 1.301 . S
N169 C167 1.317 . S
N170 C166 1.328 . S
N170 C168 1.350 . S
H171 C166 0.930 . S
H172 C167 0.930 . S
C173 O174 1.224 . S
C173 O192 1.247 . S
O174 C173 1.224 . S
N175 Co165 2.128 . S
N175 C176 1.355 1_556 S
N175 C178 1.311 1_556 S
C176 N175 1.355 1_554 S
C176 C177 1.363 . S
C176 H188 0.929 1_544 S
C177 C176 1.363 . S
C177 N179 1.375 . S
C177 H195 0.931 1_545 S
C178 N175 1.311 1_554 S
C178 N179 1.347 . S
C178 H189 0.929 . S
N179 C177 1.375 . S
N179 C178 1.347 . S
C180 C183 1.365 . S
C180 N185 1.328 1_565 S
C180 H186 0.929 . S
C181 C182 1.362 . S
C181 C184 1.378 1_565 S
C181 H196 0.929 . S
C182 C181 1.362 . S
C182 C183 1.366 . S
C183 C180 1.365 . S
C183 C182 1.366 . S
C183 H197 0.930 . S
C184 C181 1.378 1_545 S
C184 N185 1.315 . S
C184 H187 0.930 . S
N185 Co165 2.194 . S
N185 C180 1.328 1_545 S
N185 C184 1.315 . S
H186 C180 0.929 . S
H187 C184 0.930 . S
H188 C176 0.929 1_566 S
H189 C178 0.929 . S
O190 Co165 2.351 . S
O190 C193 1.244 . S
O191 Co165 2.155 . S
O191 C193 1.240 . S
O192 Co165 2.096 . S
O192 C173 1.247 . S
C193 O190 1.244 . S
C193 O191 1.240 . S
H194 C168 0.931 . S
H195 C177 0.931 1_565 S
H196 C181 0.929 . S
H197 C183 0.930 . S
Co198 N202 2.148 . S
Co198 N208 2.128 . S
Co198 N218 2.194 . S
Co198 O223 2.351 . S
Co198 O224 2.155 . S
Co198 O225 2.096 . S
C199 N202 1.301 . S
C199 N203 1.328 . S
C199 H204 0.930 . S
C200 C201 1.333 . S
C200 N202 1.317 . S
C200 H205 0.930 . S
C201 C200 1.333 . S
C201 N203 1.350 . S
C201 H227 0.931 . S
N202 Co198 2.148 . S
N202 C199 1.301 . S
N202 C200 1.317 . S
N203 C199 1.328 . S
N203 C201 1.350 . S
H204 C199 0.930 . S
H205 C200 0.930 . S
C206 O207 1.224 . S
C206 O225 1.247 . S
O207 C206 1.224 . S
N208 Co198 2.128 . S
N208 C209 1.355 . S
N208 C211 1.311 . S
C209 N208 1.355 . S
C209 C210 1.363 . S
C209 H221 0.929 . S
C210 C209 1.363 . S
C210 N212 1.375 . S
C210 H228 0.931 . S
C211 N208 1.311 . S
C211 N212 1.347 . S
C211 H222 0.929 . S
N212 C210 1.375 . S
N212 C211 1.347 . S
C213 C216 1.365 . S
C213 N218 1.328 . S
C213 H219 0.929 . S
C214 C215 1.362 . S
C214 C217 1.378 . S
C214 H229 0.929 . S
C215 C214 1.362 . S
C215 C216 1.366 . S
C216 C213 1.365 . S
C216 C215 1.366 . S
C216 H230 0.930 . S
C217 C214 1.378 . S
C217 N218 1.315 . S
C217 H220 0.930 . S
N218 Co198 2.194 . S
N218 C213 1.328 . S
N218 C217 1.315 . S
H219 C213 0.929 . S
H220 C217 0.930 . S
H221 C209 0.929 . S
H222 C211 0.929 . S
O223 Co198 2.351 . S
O223 C226 1.244 . S
O224 Co198 2.155 . S
O224 C226 1.240 . S
O225 Co198 2.096 . S
O225 C206 1.247 . S
C226 O223 1.244 . S
C226 O224 1.240 . S
H227 C201 0.931 . S
H228 C210 0.931 . S
H229 C214 0.929 . S
H230 C216 0.930 . S
Co231 N235 2.148 . S
Co231 N241 2.128 . S
Co231 N251 2.194 . S
Co231 O256 2.351 . S
Co231 O257 2.155 . S
Co231 O258 2.096 . S
C232 N235 1.301 . S
C232 N236 1.328 . S
C232 H237 0.930 . S
C233 C234 1.333 . S
C233 N235 1.317 . S
C233 H238 0.930 . S
C234 C233 1.333 . S
C234 N236 1.350 . S
C234 H260 0.931 . S
N235 Co231 2.148 . S
N235 C232 1.301 . S
N235 C233 1.317 . S
N236 C232 1.328 . S
N236 C234 1.350 . S
H237 C232 0.930 . S
H238 C233 0.930 . S
C239 O240 1.224 . S
C239 O258 1.247 . S
O240 C239 1.224 . S
N241 Co231 2.128 . S
N241 C242 1.355 1_556 S
N241 C244 1.311 1_556 S
C242 N241 1.355 1_554 S
C242 C243 1.363 . S
C242 H254 0.929 1_554 S
C243 C242 1.363 . S
C243 N245 1.375 . S
C243 H261 0.931 . S
C244 N241 1.311 1_554 S
C244 N245 1.347 . S
C244 H255 0.929 . S
N245 C243 1.375 . S
N245 C244 1.347 . S
C246 C249 1.365 . S
C246 N251 1.328 . S
C246 H252 0.929 . S
C247 C248 1.362 . S
C247 C250 1.378 . S
C247 H262 0.929 . S
C248 C247 1.362 . S
C248 C249 1.366 . S
C249 C246 1.365 . S
C249 C248 1.366 . S
C249 H263 0.930 . S
C250 C247 1.378 . S
C250 N251 1.315 . S
C250 H253 0.930 . S
N251 Co231 2.194 . S
N251 C246 1.328 . S
N251 C250 1.315 . S
H252 C246 0.929 . S
H253 C250 0.930 . S
H254 C242 0.929 1_556 S
H255 C244 0.929 . S
O256 Co231 2.351 . S
O256 C259 1.244 . S
O257 Co231 2.155 . S
O257 C259 1.240 . S
O258 Co231 2.096 . S
O258 C239 1.247 . S
C259 O256 1.244 . S
C259 O257 1.240 . S
H260 C234 0.931 . S
H261 C243 0.931 . S
H262 C247 0.929 . S
H263 C249 0.930 . S
Co264 N268 2.148 . S
Co264 N274 2.128 . S
Co264 N284 2.194 . S
Co264 O289 2.351 . S
Co264 O290 2.155 . S
Co264 O291 2.096 . S
C265 N268 1.301 . S
C265 N269 1.328 . S
C265 H270 0.930 . S
C266 C267 1.333 . S
C266 N268 1.317 . S
C266 H271 0.930 . S
C267 C266 1.333 . S
C267 N269 1.350 . S
C267 H293 0.931 . S
N268 Co264 2.148 . S
N268 C265 1.301 . S
N268 C266 1.317 . S
N269 C265 1.328 . S
N269 C267 1.350 . S
H270 C265 0.930 . S
H271 C266 0.930 . S
C272 O273 1.224 . S
C272 O291 1.247 . S
O273 C272 1.224 . S
N274 Co264 2.128 . S
N274 C275 1.355 1_556 S
N274 C277 1.311 1_556 S
C275 N274 1.355 1_554 S
C275 C276 1.363 . S
C275 H287 0.929 1_654 S
C276 C275 1.363 . S
C276 N278 1.375 . S
C276 H294 0.931 1_655 S
C277 N274 1.311 1_554 S
C277 N278 1.347 . S
C277 H288 0.929 . S
N278 C276 1.375 . S
N278 C277 1.347 . S
C279 C282 1.365 . S
C279 N284 1.328 1_455 S
C279 H285 0.929 . S
C280 C281 1.362 . S
C280 C283 1.378 1_455 S
C280 H295 0.929 . S
C281 C280 1.362 . S
C281 C282 1.366 . S
C282 C279 1.365 . S
C282 C281 1.366 . S
C282 H296 0.930 . S
C283 C280 1.378 1_655 S
C283 N284 1.315 . S
C283 H286 0.930 . S
N284 Co264 2.194 . S
N284 C279 1.328 1_655 S
N284 C283 1.315 . S
H285 C279 0.929 . S
H286 C283 0.930 . S
H287 C275 0.929 1_456 S
H288 C277 0.929 . S
O289 Co264 2.351 . S
O289 C292 1.244 . S
O290 Co264 2.155 . S
O290 C292 1.240 . S
O291 Co264 2.096 . S
O291 C272 1.247 . S
C292 O289 1.244 . S
C292 O290 1.240 . S
H293 C267 0.931 . S
H294 C276 0.931 1_455 S
H295 C280 0.929 . S
H296 C282 0.930 . S
Co297 N301 2.148 . S
Co297 N307 2.128 . S
Co297 N317 2.194 . S
Co297 O322 2.351 . S
Co297 O323 2.155 . S
Co297 O324 2.096 . S
C298 N301 1.301 . S
C298 N302 1.328 . S
C298 H303 0.930 . S
C299 C300 1.333 . S
C299 N301 1.317 . S
C299 H304 0.930 . S
C300 C299 1.333 . S
C300 N302 1.350 . S
C300 H326 0.931 . S
N301 Co297 2.148 . S
N301 C298 1.301 . S
N301 C299 1.317 . S
N302 C298 1.328 . S
N302 C300 1.350 . S
H303 C298 0.930 . S
H304 C299 0.930 . S
C305 O306 1.224 . S
C305 O324 1.247 . S
O306 C305 1.224 . S
N307 Co297 2.128 . S
N307 C308 1.355 . S
N307 C310 1.311 . S
C308 N307 1.355 . S
C308 C309 1.363 . S
C308 H320 0.929 1_565 S
C309 C308 1.363 . S
C309 N311 1.375 . S
C309 H327 0.931 1_565 S
C310 N307 1.311 . S
C310 N311 1.347 . S
C310 H321 0.929 . S
N311 C309 1.375 . S
N311 C310 1.347 . S
C312 C315 1.365 . S
C312 N317 1.328 1_545 S
C312 H318 0.929 . S
C313 C314 1.362 . S
C313 C316 1.378 1_545 S
C313 H328 0.929 . S
C314 C313 1.362 . S
C314 C315 1.366 . S
C315 C312 1.365 . S
C315 C314 1.366 . S
C315 H329 0.930 . S
C316 C313 1.378 1_565 S
C316 N317 1.315 . S
C316 H319 0.930 . S
N317 Co297 2.194 . S
N317 C312 1.328 1_565 S
N317 C316 1.315 . S
H318 C312 0.929 . S
H319 C316 0.930 . S
H320 C308 0.929 1_545 S
H321 C310 0.929 . S
O322 Co297 2.351 . S
O322 C325 1.244 . S
O323 Co297 2.155 . S
O323 C325 1.240 . S
O324 Co297 2.096 . S
O324 C305 1.247 . S
C325 O322 1.244 . S
C325 O323 1.240 . S
H326 C300 0.931 . S
H327 C309 0.931 1_545 S
H328 C313 0.929 . S
H329 C315 0.930 . S
Co330 N334 2.148 . S
Co330 N340 2.128 . S
Co330 N350 2.194 . S
Co330 O355 2.351 . S
Co330 O356 2.155 . S
Co330 O357 2.096 . S
C331 N334 1.301 . S
C331 N335 1.328 . S
C331 H336 0.930 . S
C332 C333 1.333 . S
C332 N334 1.317 . S
C332 H337 0.930 . S
C333 C332 1.333 . S
C333 N335 1.350 . S
C333 H359 0.931 . S
N334 Co330 2.148 . S
N334 C331 1.301 . S
N334 C332 1.317 . S
N335 C331 1.328 . S
N335 C333 1.350 . S
H336 C331 0.930 . S
H337 C332 0.930 . S
C338 O339 1.224 . S
C338 O357 1.247 . S
O339 C338 1.224 . S
N340 Co330 2.128 . S
N340 C341 1.355 1_556 S
N340 C343 1.311 1_556 S
C341 N340 1.355 1_554 S
C341 C342 1.363 . S
C341 H353 0.929 1_554 S
C342 C341 1.363 . S
C342 N344 1.375 . S
C342 H360 0.931 . S
C343 N340 1.311 1_554 S
C343 N344 1.347 . S
C343 H354 0.929 . S
N344 C342 1.375 . S
N344 C343 1.347 . S
C345 C348 1.365 . S
C345 N350 1.328 . S
C345 H351 0.929 . S
C346 C347 1.362 . S
C346 C349 1.378 . S
C346 H361 0.929 . S
C347 C346 1.362 . S
C347 C348 1.366 . S
C348 C345 1.365 . S
C348 C347 1.366 . S
C348 H362 0.930 . S
C349 C346 1.378 . S
C349 N350 1.315 . S
C349 H352 0.930 . S
N350 Co330 2.194 . S
N350 C345 1.328 . S
N350 C349 1.315 . S
H351 C345 0.929 . S
H352 C349 0.930 . S
H353 C341 0.929 1_556 S
H354 C343 0.929 . S
O355 Co330 2.351 . S
O355 C358 1.244 . S
O356 Co330 2.155 . S
O356 C358 1.240 . S
O357 Co330 2.096 . S
O357 C338 1.247 . S
C358 O355 1.244 . S
C358 O356 1.240 . S
H359 C333 0.931 . S
H360 C342 0.931 . S
H361 C346 0.929 . S
H362 C348 0.930 . S
Co363 N367 2.148 . S
Co363 N373 2.128 . S
Co363 N383 2.194 . S
Co363 O388 2.351 . S
Co363 O389 2.155 . S
Co363 O390 2.096 . S
C364 N367 1.301 . S
C364 N368 1.328 . S
C364 H369 0.930 . S
C365 C366 1.333 . S
C365 N367 1.317 . S
C365 H370 0.930 . S
C366 C365 1.333 . S
C366 N368 1.350 . S
C366 H392 0.931 . S
N367 Co363 2.148 . S
N367 C364 1.301 . S
N367 C365 1.317 . S
N368 C364 1.328 . S
N368 C366 1.350 . S
H369 C364 0.930 . S
H370 C365 0.930 . S
C371 O372 1.224 . S
C371 O390 1.247 . S
O372 C371 1.224 . S
N373 Co363 2.128 . S
N373 C374 1.355 . S
N373 C376 1.311 . S
C374 N373 1.355 . S
C374 C375 1.363 . S
C374 H386 0.929 . S
C375 C374 1.363 . S
C375 N377 1.375 . S
C375 H393 0.931 . S
C376 N373 1.311 . S
C376 N377 1.347 . S
C376 H387 0.929 . S
N377 C375 1.375 . S
N377 C376 1.347 . S
C378 C381 1.365 . S
C378 N383 1.328 . S
C378 H384 0.929 . S
C379 C380 1.362 . S
C379 C382 1.378 . S
C379 H394 0.929 . S
C380 C379 1.362 . S
C380 C381 1.366 . S
C381 C378 1.365 . S
C381 C380 1.366 . S
C381 H395 0.930 . S
C382 C379 1.378 . S
C382 N383 1.315 . S
C382 H385 0.930 . S
N383 Co363 2.194 . S
N383 C378 1.328 . S
N383 C382 1.315 . S
H384 C378 0.929 . S
H385 C382 0.930 . S
H386 C374 0.929 . S
H387 C376 0.929 . S
O388 Co363 2.351 . S
O388 C391 1.244 . S
O389 Co363 2.155 . S
O389 C391 1.240 . S
O390 Co363 2.096 . S
O390 C371 1.247 . S
C391 O388 1.244 . S
C391 O389 1.240 . S
H392 C366 0.931 . S
H393 C375 0.931 . S
H394 C379 0.929 . S
H395 C381 0.930 . S
Co396 N400 2.148 . S
Co396 N406 2.128 . S
Co396 N416 2.194 . S
Co396 O421 2.351 . S
Co396 O422 2.155 . S
Co396 O423 2.096 . S
C397 N400 1.301 . S
C397 N401 1.328 . S
C397 H402 0.930 . S
C398 C399 1.333 . S
C398 N400 1.317 . S
C398 H403 0.930 . S
C399 C398 1.333 . S
C399 N401 1.350 . S
C399 H425 0.931 . S
N400 Co396 2.148 . S
N400 C397 1.301 . S
N400 C398 1.317 . S
N401 C397 1.328 . S
N401 C399 1.350 . S
H402 C397 0.930 . S
H403 C398 0.930 . S
C404 O405 1.224 . S
C404 O423 1.247 . S
O405 C404 1.224 . S
N406 Co396 2.128 . S
N406 C407 1.355 . S
N406 C409 1.311 . S
C407 N406 1.355 . S
C407 C408 1.363 . S
C407 H419 0.929 1_655 S
C408 C407 1.363 . S
C408 N410 1.375 . S
C408 H426 0.931 1_655 S
C409 N406 1.311 . S
C409 N410 1.347 . S
C409 H420 0.929 . S
N410 C408 1.375 . S
N410 C409 1.347 . S
C411 C414 1.365 . S
C411 N416 1.328 1_455 S
C411 H417 0.929 . S
C412 C413 1.362 . S
C412 C415 1.378 1_455 S
C412 H427 0.929 . S
C413 C412 1.362 . S
C413 C414 1.366 . S
C414 C411 1.365 . S
C414 C413 1.366 . S
C414 H428 0.930 . S
C415 C412 1.378 1_655 S
C415 N416 1.315 . S
C415 H418 0.930 . S
N416 Co396 2.194 . S
N416 C411 1.328 1_655 S
N416 C415 1.315 . S
H417 C411 0.929 . S
H418 C415 0.930 . S
H419 C407 0.929 1_455 S
H420 C409 0.929 . S
O421 Co396 2.351 . S
O421 C424 1.244 . S
O422 Co396 2.155 . S
O422 C424 1.240 . S
O423 Co396 2.096 . S
O423 C404 1.247 . S
C424 O421 1.244 . S
C424 O422 1.240 . S
H425 C399 0.931 . S
H426 C408 0.931 1_455 S
H427 C412 0.929 . S
H428 C414 0.930 . S
Co429 N433 2.148 . S
Co429 N439 2.128 . S
Co429 N449 2.194 . S
Co429 O454 2.351 . S
Co429 O455 2.155 . S
Co429 O456 2.096 . S
C430 N433 1.301 . S
C430 N434 1.328 . S
C430 H435 0.930 . S
C431 C432 1.333 . S
C431 N433 1.317 . S
C431 H436 0.930 . S
C432 C431 1.333 . S
C432 N434 1.350 . S
C432 H458 0.931 . S
N433 Co429 2.148 . S
N433 C430 1.301 . S
N433 C431 1.317 . S
N434 C430 1.328 . S
N434 C432 1.350 . S
H435 C430 0.930 . S
H436 C431 0.930 . S
C437 O438 1.224 . S
C437 O456 1.247 . S
O438 C437 1.224 . S
N439 Co429 2.128 . S
N439 C440 1.355 1_554 S
N439 C442 1.311 1_554 S
C440 N439 1.355 1_556 S
C440 C441 1.363 . S
C440 H452 0.929 1_566 S
C441 C440 1.363 . S
C441 N443 1.375 . S
C441 H459 0.931 1_565 S
C442 N439 1.311 1_556 S
C442 N443 1.347 . S
C442 H453 0.929 . S
N443 C441 1.375 . S
N443 C442 1.347 . S
C444 C447 1.365 . S
C444 N449 1.328 1_545 S
C444 H450 0.929 . S
C445 C446 1.362 . S
C445 C448 1.378 1_545 S
C445 H460 0.929 . S
C446 C445 1.362 . S
C446 C447 1.366 . S
C447 C444 1.365 . S
C447 C446 1.366 . S
C447 H461 0.930 . S
C448 C445 1.378 1_565 S
C448 N449 1.315 . S
C448 H451 0.930 . S
N449 Co429 2.194 . S
N449 C444 1.328 1_565 S
N449 C448 1.315 . S
H450 C444 0.929 . S
H451 C448 0.930 . S
H452 C440 0.929 1_544 S
H453 C442 0.929 . S
O454 Co429 2.351 . S
O454 C457 1.244 . S
O455 Co429 2.155 . S
O455 C457 1.240 . S
O456 Co429 2.096 . S
O456 C437 1.247 . S
C457 O454 1.244 . S
C457 O455 1.240 . S
H458 C432 0.931 . S
H459 C441 0.931 1_545 S
H460 C445 0.929 . S
H461 C447 0.930 . S
Co462 N466 2.148 . S
Co462 N472 2.128 . S
Co462 N482 2.194 . S
Co462 O487 2.351 . S
Co462 O488 2.155 . S
Co462 O489 2.096 . S
C463 N466 1.301 . S
C463 N467 1.328 . S
C463 H468 0.930 . S
C464 C465 1.333 . S
C464 N466 1.317 . S
C464 H469 0.930 . S
C465 C464 1.333 . S
C465 N467 1.350 . S
C465 H491 0.931 . S
N466 Co462 2.148 . S
N466 C463 1.301 . S
N466 C464 1.317 . S
N467 C463 1.328 . S
N467 C465 1.350 . S
H468 C463 0.930 . S
H469 C464 0.930 . S
C470 O471 1.224 . S
C470 O489 1.247 . S
O471 C470 1.224 . S
N472 Co462 2.128 . S
N472 C473 1.355 . S
N472 C475 1.311 . S
C473 N472 1.355 . S
C473 C474 1.363 . S
C473 H485 0.929 . S
C474 C473 1.363 . S
C474 N476 1.375 . S
C474 H492 0.931 . S
C475 N472 1.311 . S
C475 N476 1.347 . S
C475 H486 0.929 . S
N476 C474 1.375 . S
N476 C475 1.347 . S
C477 C480 1.365 . S
C477 N482 1.328 . S
C477 H483 0.929 . S
C478 C479 1.362 . S
C478 C481 1.378 . S
C478 H493 0.929 . S
C479 C478 1.362 . S
C479 C480 1.366 . S
C480 C477 1.365 . S
C480 C479 1.366 . S
C480 H494 0.930 . S
C481 C478 1.378 . S
C481 N482 1.315 . S
C481 H484 0.930 . S
N482 Co462 2.194 . S
N482 C477 1.328 . S
N482 C481 1.315 . S
H483 C477 0.929 . S
H484 C481 0.930 . S
H485 C473 0.929 . S
H486 C475 0.929 . S
O487 Co462 2.351 . S
O487 C490 1.244 . S
O488 Co462 2.155 . S
O488 C490 1.240 . S
O489 Co462 2.096 . S
O489 C470 1.247 . S
C490 O487 1.244 . S
C490 O488 1.240 . S
H491 C465 0.931 . S
H492 C474 0.931 . S
H493 C478 0.929 . S
H494 C480 0.930 . S
Co495 N499 2.148 . S
Co495 N505 2.128 . S
Co495 N515 2.194 . S
Co495 O520 2.351 . S
Co495 O521 2.155 . S
Co495 O522 2.096 . S
C496 N499 1.301 . S
C496 N500 1.328 . S
C496 H501 0.930 . S
C497 C498 1.333 . S
C497 N499 1.317 . S
C497 H502 0.930 . S
C498 C497 1.333 . S
C498 N500 1.350 . S
C498 H524 0.931 . S
N499 Co495 2.148 . S
N499 C496 1.301 . S
N499 C497 1.317 . S
N500 C496 1.328 . S
N500 C498 1.350 . S
H501 C496 0.930 . S
H502 C497 0.930 . S
C503 O504 1.224 . S
C503 O522 1.247 . S
O504 C503 1.224 . S
N505 Co495 2.128 . S
N505 C506 1.355 1_554 S
N505 C508 1.311 1_554 S
C506 N505 1.355 1_556 S
C506 C507 1.363 . S
C506 H518 0.929 1_556 S
C507 C506 1.363 . S
C507 N509 1.375 . S
C507 H525 0.931 . S
C508 N505 1.311 1_556 S
C508 N509 1.347 . S
C508 H519 0.929 . S
N509 C507 1.375 . S
N509 C508 1.347 . S
C510 C513 1.365 . S
C510 N515 1.328 . S
C510 H516 0.929 . S
C511 C512 1.362 . S
C511 C514 1.378 . S
C511 H526 0.929 . S
C512 C511 1.362 . S
C512 C513 1.366 . S
C513 C510 1.365 . S
C513 C512 1.366 . S
C513 H527 0.930 . S
C514 C511 1.378 . S
C514 N515 1.315 . S
C514 H517 0.930 . S
N515 Co495 2.194 . S
N515 C510 1.328 . S
N515 C514 1.315 . S
H516 C510 0.929 . S
H517 C514 0.930 . S
H518 C506 0.929 1_554 S
H519 C508 0.929 . S
O520 Co495 2.351 . S
O520 C523 1.244 . S
O521 Co495 2.155 . S
O521 C523 1.240 . S
O522 Co495 2.096 . S
O522 C503 1.247 . S
C523 O520 1.244 . S
C523 O521 1.240 . S
H524 C498 0.931 . S
H525 C507 0.931 . S
H526 C511 0.929 . S
H527 C513 0.930 . S
H528 C534 0.930 . S
H529 C538 0.930 . S
H530 C543 0.929 . S
H531 C541 0.929 . S
H532 C536 0.929 . S
H533 C542 0.929 . S
C534 H528 0.930 . S
C534 C535 1.367 . S
C534 C542 1.378 . S
C535 C534 1.367 . S
C535 C543 1.433 . S
C536 H532 0.929 . S
C536 C538 1.378 . S
C536 C540 1.350 . S
C537 C540 1.463 . S
C537 C542 1.350 . S
C537 N545 1.427 . S
C538 H529 0.930 . S
C538 C536 1.378 . S
C538 C539 1.367 . S
C539 C538 1.367 . S
C539 C541 1.433 . S
C540 C536 1.350 . S
C540 C537 1.463 . S
C540 N544 1.427 . S
C541 H531 0.929 . S
C541 C539 1.433 . S
C541 N544 1.384 . S
C542 H533 0.929 . S
C542 C534 1.378 . S
C542 C537 1.350 . S
C543 H530 0.929 . S
C543 C535 1.433 . S
C543 N545 1.384 . S
N544 C540 1.427 . S
N544 C541 1.384 . S
N545 C537 1.427 . S
N545 C543 1.384 . S
H546 C552 0.930 . S
H547 C556 0.930 . S
H548 C561 0.929 . S
H549 C559 0.929 . S
H550 C554 0.929 . S
H551 C560 0.929 . S
C552 H546 0.930 . S
C552 C553 1.367 . S
C552 C560 1.378 . S
C553 C552 1.367 . S
C553 C561 1.433 . S
C554 H550 0.929 . S
C554 C556 1.378 . S
C554 C558 1.350 . S
C555 C558 1.463 . S
C555 C560 1.350 . S
C555 N563 1.427 . S
C556 H547 0.930 . S
C556 C554 1.378 . S
C556 C557 1.367 . S
C557 C556 1.367 . S
C557 C559 1.433 . S
C558 C554 1.350 . S
C558 C555 1.463 . S
C558 N562 1.427 . S
C559 H549 0.929 . S
C559 C557 1.433 . S
C559 N562 1.384 . S
C560 H551 0.929 . S
C560 C552 1.378 . S
C560 C555 1.350 . S
C561 H548 0.929 . S
C561 C553 1.433 . S
C561 N563 1.384 . S
N562 C558 1.427 . S
N562 C559 1.384 . S
N563 C555 1.427 . S
N563 C561 1.384 . S
H564 C570 0.930 . S
H565 C574 0.930 . S
H566 C579 0.929 . S
H567 C577 0.929 . S
H568 C572 0.929 . S
H569 C578 0.929 . S
C570 H564 0.930 . S
C570 C571 1.367 . S
C570 C578 1.378 . S
C571 C570 1.367 . S
C571 C579 1.433 . S
C572 H568 0.929 . S
C572 C574 1.378 . S
C572 C576 1.350 . S
C573 C576 1.463 . S
C573 C578 1.350 . S
C573 N581 1.427 . S
C574 H565 0.930 . S
C574 C572 1.378 . S
C574 C575 1.367 . S
C575 C574 1.367 . S
C575 C577 1.433 . S
C576 C572 1.350 . S
C576 C573 1.463 . S
C576 N580 1.427 . S
C577 H567 0.929 . S
C577 C575 1.433 . S
C577 N580 1.384 . S
C578 H569 0.929 . S
C578 C570 1.378 . S
C578 C573 1.350 . S
C579 H566 0.929 . S
C579 C571 1.433 . S
C579 N581 1.384 . S
N580 C576 1.427 . S
N580 C577 1.384 . S
N581 C573 1.427 . S
N581 C579 1.384 . S
H582 C588 0.930 . S
H583 C592 0.930 . S
H584 C597 0.929 . S
H585 C595 0.929 . S
H586 C590 0.929 . S
H587 C596 0.929 . S
C588 H582 0.930 . S
C588 C589 1.367 . S
C588 C596 1.378 . S
C589 C588 1.367 . S
C589 C597 1.433 . S
C590 H586 0.929 . S
C590 C592 1.378 . S
C590 C594 1.350 . S
C591 C594 1.463 . S
C591 C596 1.350 . S
C591 N599 1.427 . S
C592 H583 0.930 . S
C592 C590 1.378 . S
C592 C593 1.367 . S
C593 C592 1.367 . S
C593 C595 1.433 . S
C594 C590 1.350 . S
C594 C591 1.463 . S
C594 N598 1.427 . S
C595 H585 0.929 . S
C595 C593 1.433 . S
C595 N598 1.384 . S
C596 H587 0.929 . S
C596 C588 1.378 . S
C596 C591 1.350 . S
C597 H584 0.929 . S
C597 C589 1.433 . S
C597 N599 1.384 . S
N598 C594 1.427 . S
N598 C595 1.384 . S
N599 C591 1.427 . S
N599 C597 1.384 . S
H600 C606 0.930 . S
H601 C610 0.930 . S
H602 C615 0.929 . S
H603 C613 0.929 . S
H604 C608 0.929 . S
H605 C614 0.929 . S
C606 H600 0.930 . S
C606 C607 1.367 . S
C606 C614 1.378 . S
C607 C606 1.367 . S
C607 C615 1.433 . S
C608 H604 0.929 . S
C608 C610 1.378 . S
C608 C612 1.350 . S
C609 C612 1.463 . S
C609 C614 1.350 . S
C609 N617 1.427 . S
C610 H601 0.930 . S
C610 C608 1.378 . S
C610 C611 1.367 . S
C611 C610 1.367 . S
C611 C613 1.433 . S
C612 C608 1.350 . S
C612 C609 1.463 . S
C612 N616 1.427 . S
C613 H603 0.929 . S
C613 C611 1.433 . S
C613 N616 1.384 . S
C614 H605 0.929 . S
C614 C606 1.378 . S
C614 C609 1.350 . S
C615 H602 0.929 . S
C615 C607 1.433 . S
C615 N617 1.384 . S
N616 C612 1.427 . S
N616 C613 1.384 . S
N617 C609 1.427 . S
N617 C615 1.384 . S
H618 C624 0.930 . S
H619 C628 0.930 . S
H620 C633 0.929 . S
H621 C631 0.929 . S
H622 C626 0.929 . S
H623 C632 0.929 . S
C624 H618 0.930 . S
C624 C625 1.367 . S
C624 C632 1.378 . S
C625 C624 1.367 . S
C625 C633 1.433 . S
C626 H622 0.929 . S
C626 C628 1.378 . S
C626 C630 1.350 . S
C627 C630 1.463 . S
C627 C632 1.350 . S
C627 N635 1.427 . S
C628 H619 0.930 . S
C628 C626 1.378 . S
C628 C629 1.367 . S
C629 C628 1.367 . S
C629 C631 1.433 . S
C630 C626 1.350 . S
C630 C627 1.463 . S
C630 N634 1.427 . S
C631 H621 0.929 . S
C631 C629 1.433 . S
C631 N634 1.384 . S
C632 H623 0.929 . S
C632 C624 1.378 . S
C632 C627 1.350 . S
C633 H620 0.929 . S
C633 C625 1.433 . S
C633 N635 1.384 . S
N634 C630 1.427 . S
N634 C631 1.384 . S
N635 C627 1.427 . S
N635 C633 1.384 . S
H636 C642 0.930 . S
H637 C646 0.930 . S
H638 C651 0.929 . S
H639 C649 0.929 . S
H640 C644 0.929 . S
H641 C650 0.929 . S
C642 H636 0.930 . S
C642 C643 1.367 . S
C642 C650 1.378 . S
C643 C642 1.367 . S
C643 C651 1.433 . S
C644 H640 0.929 . S
C644 C646 1.378 . S
C644 C648 1.350 . S
C645 C648 1.463 . S
C645 C650 1.350 . S
C645 N653 1.427 . S
C646 H637 0.930 . S
C646 C644 1.378 . S
C646 C647 1.367 . S
C647 C646 1.367 . S
C647 C649 1.433 . S
C648 C644 1.350 . S
C648 C645 1.463 . S
C648 N652 1.427 . S
C649 H639 0.929 . S
C649 C647 1.433 . S
C649 N652 1.384 . S
C650 H641 0.929 . S
C650 C642 1.378 . S
C650 C645 1.350 . S
C651 H638 0.929 . S
C651 C643 1.433 . S
C651 N653 1.384 . S
N652 C648 1.427 . S
N652 C649 1.384 . S
N653 C645 1.427 . S
N653 C651 1.384 . S
H654 C660 0.930 . S
H655 C664 0.930 . S
H656 C669 0.929 . S
H657 C667 0.929 . S
H658 C662 0.929 . S
H659 C668 0.929 . S
C660 H654 0.930 . S
C660 C661 1.367 . S
C660 C668 1.378 . S
C661 C660 1.367 . S
C661 C669 1.433 . S
C662 H658 0.929 . S
C662 C664 1.378 . S
C662 C666 1.350 . S
C663 C666 1.463 . S
C663 C668 1.350 . S
C663 N671 1.427 . S
C664 H655 0.930 . S
C664 C662 1.378 . S
C664 C665 1.367 . S
C665 C664 1.367 . S
C665 C667 1.433 . S
C666 C662 1.350 . S
C666 C663 1.463 . S
C666 N670 1.427 . S
C667 H657 0.929 . S
C667 C665 1.433 . S
C667 N670 1.384 . S
C668 H659 0.929 . S
C668 C660 1.378 . S
C668 C663 1.350 . S
C669 H656 0.929 . S
C669 C661 1.433 . S
C669 N671 1.384 . S
N670 C666 1.427 . S
N670 C667 1.384 . S
N671 C663 1.427 . S
N671 C669 1.384 . S
H672 C678 0.930 . S
H673 C682 0.930 . S
H674 C687 0.929 1_556 S
H675 C685 0.929 1_554 S
H676 C680 0.929 . S
H677 C686 0.929 . S
C678 H672 0.930 . S
C678 C679 1.367 . S
C678 C686 1.378 . S
C679 C678 1.367 . S
C679 C687 1.433 . S
C680 H676 0.929 . S
C680 C682 1.378 . S
C680 C684 1.350 . S
C681 C684 1.463 1_554 S
C681 C686 1.350 . S
C681 N689 1.427 1_554 S
C682 H673 0.930 . S
C682 C680 1.378 . S
C682 C683 1.367 . S
C683 C682 1.367 . S
C683 C685 1.433 . S
C684 C680 1.350 . S
C684 C681 1.463 1_556 S
C684 N688 1.427 1_556 S
C685 H675 0.929 1_556 S
C685 C683 1.433 . S
C685 N688 1.384 1_556 S
C686 H677 0.929 . S
C686 C678 1.378 . S
C686 C681 1.350 . S
C687 H674 0.929 1_554 S
C687 C679 1.433 . S
C687 N689 1.384 1_554 S
N688 C684 1.427 1_554 S
N688 C685 1.384 1_554 S
N689 C681 1.427 1_556 S
N689 C687 1.384 1_556 S
H690 C696 0.930 . S
H691 C700 0.930 . S
H692 C705 0.929 . S
H693 C703 0.929 . S
H694 C698 0.929 . S
H695 C704 0.929 . S
C696 H690 0.930 . S
C696 C697 1.367 . S
C696 C704 1.378 . S
C697 C696 1.367 . S
C697 C705 1.433 . S
C698 H694 0.929 . S
C698 C700 1.378 . S
C698 C702 1.350 . S
C699 C702 1.463 . S
C699 C704 1.350 . S
C699 N707 1.427 . S
C700 H691 0.930 . S
C700 C698 1.378 . S
C700 C701 1.367 . S
C701 C700 1.367 . S
C701 C703 1.433 . S
C702 C698 1.350 . S
C702 C699 1.463 . S
C702 N706 1.427 . S
C703 H693 0.929 . S
C703 C701 1.433 . S
C703 N706 1.384 . S
C704 H695 0.929 . S
C704 C696 1.378 . S
C704 C699 1.350 . S
C705 H692 0.929 . S
C705 C697 1.433 . S
C705 N707 1.384 . S
N706 C702 1.427 . S
N706 C703 1.384 . S
N707 C699 1.427 . S
N707 C705 1.384 . S
H708 C714 0.930 . S
H709 C718 0.930 . S
H710 C723 0.929 1_556 S
H711 C721 0.929 1_554 S
H712 C716 0.929 . S
H713 C722 0.929 . S
C714 H708 0.930 . S
C714 C715 1.367 . S
C714 C722 1.378 . S
C715 C714 1.367 . S
C715 C723 1.433 . S
C716 H712 0.929 . S
C716 C718 1.378 . S
C716 C720 1.350 . S
C717 C720 1.463 1_554 S
C717 C722 1.350 . S
C717 N725 1.427 1_554 S
C718 H709 0.930 . S
C718 C716 1.378 . S
C718 C719 1.367 . S
C719 C718 1.367 . S
C719 C721 1.433 . S
C720 C716 1.350 . S
C720 C717 1.463 1_556 S
C720 N724 1.427 1_556 S
C721 H711 0.929 1_556 S
C721 C719 1.433 . S
C721 N724 1.384 1_556 S
C722 H713 0.929 . S
C722 C714 1.378 . S
C722 C717 1.350 . S
C723 H710 0.929 1_554 S
C723 C715 1.433 . S
C723 N725 1.384 1_554 S
N724 C720 1.427 1_554 S
N724 C721 1.384 1_554 S
N725 C717 1.427 1_556 S
N725 C723 1.384 1_556 S
H726 C732 0.930 . S
H727 C736 0.930 . S
H728 C741 0.929 . S
H729 C739 0.929 . S
H730 C734 0.929 . S
H731 C740 0.929 . S
C732 H726 0.930 . S
C732 C733 1.367 . S
C732 C740 1.378 . S
C733 C732 1.367 . S
C733 C741 1.433 . S
C734 H730 0.929 . S
C734 C736 1.378 . S
C734 C738 1.350 . S
C735 C738 1.463 . S
C735 C740 1.350 . S
C735 N743 1.427 . S
C736 H727 0.930 . S
C736 C734 1.378 . S
C736 C737 1.367 . S
C737 C736 1.367 . S
C737 C739 1.433 . S
C738 C734 1.350 . S
C738 C735 1.463 . S
C738 N742 1.427 . S
C739 H729 0.929 . S
C739 C737 1.433 . S
C739 N742 1.384 . S
C740 H731 0.929 . S
C740 C732 1.378 . S
C740 C735 1.350 . S
C741 H728 0.929 . S
C741 C733 1.433 . S
C741 N743 1.384 . S
N742 C738 1.427 . S
N742 C739 1.384 . S
N743 C735 1.427 . S
N743 C741 1.384 . S
H744 C750 0.930 . S
H745 C754 0.930 . S
H746 C759 0.929 . S
H747 C757 0.929 . S
H748 C752 0.929 . S
H749 C758 0.929 . S
C750 H744 0.930 . S
C750 C751 1.367 1_556 S
C750 C758 1.378 . S
C751 C750 1.367 1_554 S
C751 C759 1.433 . S
C752 H748 0.929 . S
C752 C754 1.378 . S
C752 C756 1.350 1_554 S
C753 C756 1.463 1_554 S
C753 C758 1.350 1_554 S
C753 N761 1.427 . S
C754 H745 0.930 . S
C754 C752 1.378 . S
C754 C755 1.367 1_554 S
C755 C754 1.367 1_556 S
C755 C757 1.433 . S
C756 C752 1.350 1_556 S
C756 C753 1.463 1_556 S
C756 N760 1.427 . S
C757 H747 0.929 . S
C757 C755 1.433 . S
C757 N760 1.384 . S
C758 H749 0.929 . S
C758 C750 1.378 . S
C758 C753 1.350 1_556 S
C759 H746 0.929 . S
C759 C751 1.433 . S
C759 N761 1.384 . S
N760 C756 1.427 . S
N760 C757 1.384 . S
N761 C753 1.427 . S
N761 C759 1.384 . S
H762 C768 0.930 . S
H763 C772 0.930 . S
H764 C777 0.929 . S
H765 C775 0.929 . S
H766 C770 0.929 . S
H767 C776 0.929 . S
C768 H762 0.930 . S
C768 C769 1.367 . S
C768 C776 1.378 . S
C769 C768 1.367 . S
C769 C777 1.433 . S
C770 H766 0.929 . S
C770 C772 1.378 . S
C770 C774 1.350 . S
C771 C774 1.463 . S
C771 C776 1.350 . S
C771 N779 1.427 . S
C772 H763 0.930 . S
C772 C770 1.378 . S
C772 C773 1.367 . S
C773 C772 1.367 . S
C773 C775 1.433 . S
C774 C770 1.350 . S
C774 C771 1.463 . S
C774 N778 1.427 . S
C775 H765 0.929 . S
C775 C773 1.433 . S
C775 N778 1.384 . S
C776 H767 0.929 . S
C776 C768 1.378 . S
C776 C771 1.350 . S
C777 H764 0.929 . S
C777 C769 1.433 . S
C777 N779 1.384 . S
N778 C774 1.427 . S
N778 C775 1.384 . S
N779 C771 1.427 . S
N779 C777 1.384 . S
H780 C786 0.930 . S
H781 C790 0.930 . S
H782 C795 0.929 . S
H783 C793 0.929 . S
H784 C788 0.929 . S
H785 C794 0.929 . S
C786 H780 0.930 . S
C786 C787 1.367 . S
C786 C794 1.378 . S
C787 C786 1.367 . S
C787 C795 1.433 1_554 S
C788 H784 0.929 . S
C788 C790 1.378 . S
C788 C792 1.350 . S
C789 C792 1.463 1_554 S
C789 C794 1.350 . S
C789 N797 1.427 1_554 S
C790 H781 0.930 . S
C790 C788 1.378 . S
C790 C791 1.367 . S
C791 C790 1.367 . S
C791 C793 1.433 1_556 S
C792 C788 1.350 . S
C792 C789 1.463 1_556 S
C792 N796 1.427 1_556 S
C793 H783 0.929 . S
C793 C791 1.433 1_554 S
C793 N796 1.384 . S
C794 H785 0.929 . S
C794 C786 1.378 . S
C794 C789 1.350 . S
C795 H782 0.929 . S
C795 C787 1.433 1_556 S
C795 N797 1.384 . S
N796 C792 1.427 1_554 S
N796 C793 1.384 . S
N797 C789 1.427 1_556 S
N797 C795 1.384 . S
H798 C804 0.930 . S
H799 C808 0.930 . S
H800 C813 0.929 . S
H801 C811 0.929 . S
H802 C806 0.929 . S
H803 C812 0.929 . S
C804 H798 0.930 . S
C804 C805 1.367 . S
C804 C812 1.378 . S
C805 C804 1.367 . S
C805 C813 1.433 . S
C806 H802 0.929 . S
C806 C808 1.378 . S
C806 C810 1.350 . S
C807 C810 1.463 . S
C807 C812 1.350 . S
C807 N815 1.427 . S
C808 H799 0.930 . S
C808 C806 1.378 . S
C808 C809 1.367 . S
C809 C808 1.367 . S
C809 C811 1.433 . S
C810 C806 1.350 . S
C810 C807 1.463 . S
C810 N814 1.427 . S
C811 H801 0.929 . S
C811 C809 1.433 . S
C811 N814 1.384 . S
C812 H803 0.929 . S
C812 C804 1.378 . S
C812 C807 1.350 . S
C813 H800 0.929 . S
C813 C805 1.433 . S
C813 N815 1.384 . S
N814 C810 1.427 . S
N814 C811 1.384 . S
N815 C807 1.427 . S
N815 C813 1.384 . S
H816 C822 0.930 . S
H817 C826 0.888 1_655 S
H818 C831 0.929 1_655 S
H819 C829 0.929 . S
H820 C824 0.886 1_655 S
H821 C830 0.929 . S
C822 H816 0.930 . S
C822 C823 1.367 . S
C822 C830 1.378 . S
C823 C822 1.367 . S
C823 C831 1.433 . S
C824 H820 0.886 1_455 S
C824 C826 1.378 . S
C824 C828 1.350 . S
C825 C828 1.463 . S
C825 C830 1.350 . S
C825 N833 1.427 . S
C826 H817 0.888 1_455 S
C826 C824 1.378 . S
C826 C827 1.367 . S
C827 C826 1.367 . S
C827 C829 1.433 . S
C828 C824 1.350 . S
C828 C825 1.463 . S
C828 N832 1.427 . S
C829 H819 0.929 . S
C829 C827 1.433 . S
C829 N832 1.384 . S
C830 H821 0.929 . S
C830 C822 1.378 . S
C830 C825 1.350 . S
C831 H818 0.929 1_455 S
C831 C823 1.433 . S
C831 N833 1.384 . S
N832 C828 1.427 . S
N832 C829 1.384 . S
N833 C825 1.427 . S
N833 C831 1.384 . S
H834 C840 0.930 . S
H835 C844 0.930 . S
H836 C849 0.929 . S
H837 C847 0.929 . S
H838 C842 0.929 . S
H839 C848 0.929 . S
C840 H834 0.930 . S
C840 C841 1.367 . S
C840 C848 1.378 . S
C841 C840 1.367 . S
C841 C849 1.433 . S
C842 H838 0.929 . S
C842 C844 1.378 . S
C842 C846 1.350 . S
C843 C846 1.463 . S
C843 C848 1.350 . S
C843 N851 1.427 . S
C844 H835 0.930 . S
C844 C842 1.378 . S
C844 C845 1.367 . S
C845 C844 1.367 . S
C845 C847 1.433 . S
C846 C842 1.350 . S
C846 C843 1.463 . S
C846 N850 1.427 . S
C847 H837 0.929 . S
C847 C845 1.433 . S
C847 N850 1.384 . S
C848 H839 0.929 . S
C848 C840 1.378 . S
C848 C843 1.350 . S
C849 H836 0.929 . S
C849 C841 1.433 . S
C849 N851 1.384 . S
N850 C846 1.427 . S
N850 C847 1.384 . S
N851 C843 1.427 . S
N851 C849 1.384 . S
H852 C858 0.930 . S
H853 C862 0.930 . S
H854 C867 0.929 . S
H855 C865 0.929 . S
H856 C860 0.929 . S
H857 C866 0.929 . S
C858 H852 0.930 . S
C858 C859 1.367 . S
C858 C866 1.378 . S
C859 C858 1.367 . S
C859 C867 1.433 . S
C860 H856 0.929 . S
C860 C862 1.378 . S
C860 C864 1.350 . S
C861 C864 1.463 . S
C861 C866 1.350 . S
C861 N869 1.427 . S
C862 H853 0.930 . S
C862 C860 1.378 . S
C862 C863 1.367 . S
C863 C862 1.367 . S
C863 C865 1.433 . S
C864 C860 1.350 . S
C864 C861 1.463 . S
C864 N868 1.427 . S
C865 H855 0.929 . S
C865 C863 1.433 . S
C865 N868 1.384 . S
C866 H857 0.929 . S
C866 C858 1.378 . S
C866 C861 1.350 . S
C867 H854 0.929 . S
C867 C859 1.433 . S
C867 N869 1.384 . S
N868 C864 1.427 . S
N868 C865 1.384 . S
N869 C861 1.427 . S
N869 C867 1.384 . S
H870 C876 0.930 . S
H871 C880 0.930 . S
H872 C885 0.929 . S
H873 C883 0.929 . S
H874 C878 0.929 . S
H875 C884 0.929 . S
C876 H870 0.930 . S
C876 C877 1.367 . S
C876 C884 1.378 . S
C877 C876 1.367 . S
C877 C885 1.433 . S
C878 H874 0.929 . S
C878 C880 1.378 . S
C878 C882 1.350 . S
C879 C882 1.463 . S
C879 C884 1.350 . S
C879 N887 1.427 . S
C880 H871 0.930 . S
C880 C878 1.378 . S
C880 C881 1.367 . S
C881 C880 1.367 . S
C881 C883 1.433 . S
C882 C878 1.350 . S
C882 C879 1.463 . S
C882 N886 1.427 . S
C883 H873 0.929 . S
C883 C881 1.433 . S
C883 N886 1.384 . S
C884 H875 0.929 . S
C884 C876 1.378 . S
C884 C879 1.350 . S
C885 H872 0.929 . S
C885 C877 1.433 . S
C885 N887 1.384 . S
N886 C882 1.427 . S
N886 C883 1.384 . S
N887 C879 1.427 . S
N887 C885 1.384 . S
H888 C894 0.930 1_455 S
H889 C898 0.930 . S
H890 C903 0.929 . S
H891 C901 0.929 1_455 S
H892 C896 0.929 . S
H893 C902 0.929 1_455 S
C894 H888 0.930 1_655 S
C894 C895 1.367 . S
C894 C902 1.378 . S
C895 C894 1.367 . S
C895 C903 1.433 . S
C896 H892 0.929 . S
C896 C898 1.378 . S
C896 C900 1.350 . S
C897 C900 1.463 . S
C897 C902 1.350 . S
C897 N905 1.427 . S
C898 H889 0.930 . S
C898 C896 1.378 . S
C898 C899 1.367 . S
C899 C898 1.367 . S
C899 C901 1.433 . S
C900 C896 1.350 . S
C900 C897 1.463 . S
C900 N904 1.427 . S
C901 H891 0.929 1_655 S
C901 C899 1.433 . S
C901 N904 1.384 . S
C902 H893 0.929 1_655 S
C902 C894 1.378 . S
C902 C897 1.350 . S
C903 H890 0.929 . S
C903 C895 1.433 . S
C903 N905 1.384 . S
N904 C900 1.427 . S
N904 C901 1.384 . S
N905 C897 1.427 . S
N905 C903 1.384 . S
H906 C912 0.930 1_545 S
H907 C916 0.930 . S
H908 C921 0.929 . S
H909 C919 0.929 1_545 S
H910 C914 0.929 . S
H911 C920 0.929 1_545 S
C912 H906 0.930 1_565 S
C912 C913 1.367 . S
C912 C920 1.378 . S
C913 C912 1.367 . S
C913 C921 1.433 . S
C914 H910 0.929 . S
C914 C916 1.378 . S
C914 C918 1.350 . S
C915 C918 1.463 . S
C915 C920 1.350 . S
C915 N923 1.427 . S
C916 H907 0.930 . S
C916 C914 1.378 . S
C916 C917 1.367 . S
C917 C916 1.367 . S
C917 C919 1.433 . S
C918 C914 1.350 . S
C918 C915 1.463 . S
C918 N922 1.427 . S
C919 H909 0.929 1_565 S
C919 C917 1.433 . S
C919 N922 1.384 . S
C920 H911 0.929 1_565 S
C920 C912 1.378 . S
C920 C915 1.350 . S
C921 H908 0.929 . S
C921 C913 1.433 . S
C921 N923 1.384 . S
N922 C918 1.427 . S
N922 C919 1.384 . S
N923 C915 1.427 . S
N923 C921 1.384 . S
H924 C930 0.930 . S
H925 C934 0.930 . S
H926 C939 0.929 . S
H927 C937 0.929 . S
H928 C932 0.929 . S
H929 C938 0.929 . S
C930 H924 0.930 . S
C930 C931 1.367 . S
C930 C938 1.378 . S
C931 C930 1.367 . S
C931 C939 1.433 . S
C932 H928 0.929 . S
C932 C934 1.378 . S
C932 C936 1.350 . S
C933 C936 1.463 . S
C933 C938 1.350 . S
C933 N941 1.427 . S
C934 H925 0.930 . S
C934 C932 1.378 . S
C934 C935 1.367 . S
C935 C934 1.367 . S
C935 C937 1.433 . S
C936 C932 1.350 . S
C936 C933 1.463 . S
C936 N940 1.427 . S
C937 H927 0.929 . S
C937 C935 1.433 . S
C937 N940 1.384 . S
C938 H929 0.929 . S
C938 C930 1.378 . S
C938 C933 1.350 . S
C939 H926 0.929 . S
C939 C931 1.433 . S
C939 N941 1.384 . S
N940 C936 1.427 . S
N940 C937 1.384 . S
N941 C933 1.427 . S
N941 C939 1.384 . S
H942 C948 0.930 . S
H943 C952 0.930 . S
H944 C957 0.929 . S
H945 C955 0.929 . S
H946 C950 0.929 . S
H947 C956 0.929 . S
C948 H942 0.930 . S
C948 C949 1.367 . S
C948 C956 1.378 . S
C949 C948 1.367 . S
C949 C957 1.433 . S
C950 H946 0.929 . S
C950 C952 1.378 . S
C950 C954 1.350 . S
C951 C954 1.463 . S
C951 C956 1.350 . S
C951 N959 1.427 . S
C952 H943 0.930 . S
C952 C950 1.378 . S
C952 C953 1.367 . S
C953 C952 1.367 . S
C953 C955 1.433 . S
C954 C950 1.350 . S
C954 C951 1.463 . S
C954 N958 1.427 . S
C955 H945 0.929 . S
C955 C953 1.433 . S
C955 N958 1.384 . S
C956 H947 0.929 . S
C956 C948 1.378 . S
C956 C951 1.350 . S
C957 H944 0.929 . S
C957 C949 1.433 . S
C957 N959 1.384 . S
N958 C954 1.427 . S
N958 C955 1.384 . S
N959 C951 1.427 . S
N959 C957 1.384 . S
H960 C966 0.930 . S
H961 C970 0.930 . S
H962 C975 0.929 . S
H963 C973 0.929 . S
H964 C968 0.929 . S
H965 C974 0.929 . S
C966 H960 0.930 . S
C966 C967 1.367 . S
C966 C974 1.378 . S
C967 C966 1.367 . S
C967 C975 1.433 . S
C968 H964 0.929 . S
C968 C970 1.378 . S
C968 C972 1.350 . S
C969 C972 1.463 . S
C969 C974 1.350 . S
C969 N977 1.427 . S
C970 H961 0.930 . S
C970 C968 1.378 . S
C970 C971 1.367 . S
C971 C970 1.367 . S
C971 C973 1.433 . S
C972 C968 1.350 . S
C972 C969 1.463 . S
C972 N976 1.427 . S
C973 H963 0.929 . S
C973 C971 1.433 . S
C973 N976 1.384 . S
C974 H965 0.929 . S
C974 C966 1.378 . S
C974 C969 1.350 . S
C975 H962 0.929 . S
C975 C967 1.433 . S
C975 N977 1.384 . S
N976 C972 1.427 . S
N976 C973 1.384 . S
N977 C969 1.427 . S
N977 C975 1.384 . S
H978 C984 0.930 . S
H979 C988 0.930 1_565 S
H980 C993 0.929 . S
H981 C991 0.929 . S
H982 C986 0.935 . S
H983 C992 0.929 . S
C984 H978 0.930 . S
C984 C985 1.367 . S
C984 C992 1.378 1_556 S
C985 C984 1.367 . S
C985 C993 1.433 . S
C986 H982 0.935 . S
C986 C988 1.378 . S
C986 C990 1.350 . S
C987 C990 1.463 . S
C987 C992 1.350 . S
C987 N995 1.427 . S
C988 H979 0.930 1_545 S
C988 C986 1.378 . S
C988 C989 1.367 . S
C989 C988 1.367 . S
C989 C991 1.433 . S
C990 C986 1.350 . S
C990 C987 1.463 . S
C990 N994 1.427 . S
C991 H981 0.929 . S
C991 C989 1.433 . S
C991 N994 1.384 . S
C992 H983 0.929 . S
C992 C984 1.378 1_554 S
C992 C987 1.350 . S
C993 H980 0.929 . S
C993 C985 1.433 . S
C993 N995 1.384 1_556 S
N994 C990 1.427 . S
N994 C991 1.384 . S
N995 C987 1.427 . S
N995 C993 1.384 1_554 S
H996 C1002 0.930 . S
H997 C1006 0.930 . S
H998 C1011 0.929 . S
H999 C1009 0.929 . S
H1000 C1004 0.929 . S
H1001 C1010 0.929 . S
C1002 H996 0.930 . S
C1002 C1003 1.367 . S
C1002 C1010 1.378 . S
C1003 C1002 1.367 . S
C1003 C1011 1.433 . S
C1004 H1000 0.929 . S
C1004 C1006 1.378 . S
C1004 C1008 1.350 . S
C1005 C1008 1.463 . S
C1005 C1010 1.350 . S
C1005 N1013 1.427 . S
C1006 H997 0.930 . S
C1006 C1004 1.378 . S
C1006 C1007 1.367 . S
C1007 C1006 1.367 . S
C1007 C1009 1.433 . S
C1008 C1004 1.350 . S
C1008 C1005 1.463 . S
C1008 N1012 1.427 . S
C1009 H999 0.929 . S
C1009 C1007 1.433 . S
C1009 N1012 1.384 . S
C1010 H1001 0.929 . S
C1010 C1002 1.378 . S
C1010 C1005 1.350 . S
C1011 H998 0.929 . S
C1011 C1003 1.433 . S
C1011 N1013 1.384 . S
N1012 C1008 1.427 . S
N1012 C1009 1.384 . S
N1013 C1005 1.427 . S
N1013 C1011 1.384 . S
H1014 C1020 0.930 . S
H1015 C1024 0.930 . S
H1016 C1029 0.929 . S
H1017 C1027 0.929 . S
H1018 C1022 0.929 . S
H1019 C1028 0.929 . S
C1020 H1014 0.930 . S
C1020 C1021 1.367 . S
C1020 C1028 1.378 1_556 S
C1021 C1020 1.367 . S
C1021 C1029 1.433 . S
C1022 H1018 0.929 . S
C1022 C1024 1.378 . S
C1022 C1026 1.350 . S
C1023 C1026 1.463 . S
C1023 C1028 1.350 . S
C1023 N1031 1.427 . S
C1024 H1015 0.930 . S
C1024 C1022 1.378 . S
C1024 C1025 1.367 . S
C1025 C1024 1.367 . S
C1025 C1027 1.433 . S
C1026 C1022 1.350 . S
C1026 C1023 1.463 . S
C1026 N1030 1.427 . S
C1027 H1017 0.929 . S
C1027 C1025 1.433 . S
C1027 N1030 1.384 . S
C1028 H1019 0.929 . S
C1028 C1020 1.378 1_554 S
C1028 C1023 1.350 . S
C1029 H1016 0.929 . S
C1029 C1021 1.433 . S
C1029 N1031 1.384 1_556 S
N1030 C1026 1.427 . S
N1030 C1027 1.384 . S
N1031 C1023 1.427 . S
N1031 C1029 1.384 1_554 S
H1032 C1038 0.930 . S
H1033 C1042 0.930 . S
H1034 C1047 0.929 . S
H1035 C1045 0.929 . S
H1036 C1040 0.929 . S
H1037 C1046 0.929 . S
C1038 H1032 0.930 . S
C1038 C1039 1.367 . S
C1038 C1046 1.378 . S
C1039 C1038 1.367 . S
C1039 C1047 1.433 . S
C1040 H1036 0.929 . S
C1040 C1042 1.378 1_556 S
C1040 C1044 1.350 . S
C1041 C1044 1.463 . S
C1041 C1046 1.350 . S
C1041 N1049 1.427 . S
C1042 H1033 0.930 . S
C1042 C1040 1.378 1_554 S
C1042 C1043 1.367 . S
C1043 C1042 1.367 . S
C1043 C1045 1.433 . S
C1044 C1040 1.350 . S
C1044 C1041 1.463 . S
C1044 N1048 1.427 . S
C1045 H1035 0.929 . S
C1045 C1043 1.433 . S
C1045 N1048 1.384 1_554 S
C1046 H1037 0.929 . S
C1046 C1038 1.378 . S
C1046 C1041 1.350 . S
C1047 H1034 0.929 . S
C1047 C1039 1.433 . S
C1047 N1049 1.384 . S
N1048 C1044 1.427 . S
N1048 C1045 1.384 1_556 S
N1049 C1041 1.427 . S
N1049 C1047 1.384 . S
H1050 C1056 0.930 . S
H1051 C1060 0.930 . S
H1052 C1065 0.929 . S
H1053 C1063 0.929 . S
H1054 C1058 0.929 . S
H1055 C1064 0.929 . S
C1056 H1050 0.930 . S
C1056 C1057 1.367 . S
C1056 C1064 1.378 . S
C1057 C1056 1.367 . S
C1057 C1065 1.433 . S
C1058 H1054 0.929 . S
C1058 C1060 1.378 . S
C1058 C1062 1.350 . S
C1059 C1062 1.463 . S
C1059 C1064 1.350 . S
C1059 N1067 1.427 . S
C1060 H1051 0.930 . S
C1060 C1058 1.378 . S
C1060 C1061 1.367 . S
C1061 C1060 1.367 . S
C1061 C1063 1.433 . S
C1062 C1058 1.350 . S
C1062 C1059 1.463 . S
C1062 N1066 1.427 . S
C1063 H1053 0.929 . S
C1063 C1061 1.433 . S
C1063 N1066 1.384 . S
C1064 H1055 0.929 . S
C1064 C1056 1.378 . S
C1064 C1059 1.350 . S
C1065 H1052 0.929 . S
C1065 C1057 1.433 . S
C1065 N1067 1.384 . S
N1066 C1062 1.427 . S
N1066 C1063 1.384 . S
N1067 C1059 1.427 . S
N1067 C1065 1.384 . S
H1068 C1074 0.930 . S
H1069 C1078 0.930 . S
H1070 C1083 0.929 . S
H1071 C1081 0.929 . S
H1072 C1076 0.929 . S
H1073 C1082 0.929 . S
C1074 H1068 0.930 . S
C1074 C1075 1.367 . S
C1074 C1082 1.378 . S
C1075 C1074 1.367 . S
C1075 C1083 1.433 . S
C1076 H1072 0.929 . S
C1076 C1078 1.378 1_556 S
C1076 C1080 1.350 . S
C1077 C1080 1.463 . S
C1077 C1082 1.350 . S
C1077 N1085 1.427 . S
C1078 H1069 0.930 . S
C1078 C1076 1.378 1_554 S
C1078 C1079 1.367 . S
C1079 C1078 1.367 . S
C1079 C1081 1.433 . S
C1080 C1076 1.350 . S
C1080 C1077 1.463 . S
C1080 N1084 1.427 . S
C1081 H1071 0.929 . S
C1081 C1079 1.433 . S
C1081 N1084 1.384 1_554 S
C1082 H1073 0.929 . S
C1082 C1074 1.378 . S
C1082 C1077 1.350 . S
C1083 H1070 0.929 . S
C1083 C1075 1.433 . S
C1083 N1085 1.384 . S
N1084 C1080 1.427 . S
N1084 C1081 1.384 1_556 S
N1085 C1077 1.427 . S
N1085 C1083 1.384 . S
H1086 C1092 0.930 . S
H1087 C1096 0.930 . S
H1088 C1101 0.929 . S
H1089 C1099 0.929 . S
H1090 C1094 0.929 . S
H1091 C1100 0.929 . S
C1092 H1086 0.930 . S
C1092 C1093 1.367 . S
C1092 C1100 1.378 . S
C1093 C1092 1.367 . S
C1093 C1101 1.433 . S
C1094 H1090 0.929 . S
C1094 C1096 1.378 . S
C1094 C1098 1.350 . S
C1095 C1098 1.463 . S
C1095 C1100 1.350 . S
C1095 N1103 1.427 . S
C1096 H1087 0.930 . S
C1096 C1094 1.378 . S
C1096 C1097 1.367 . S
C1097 C1096 1.367 . S
C1097 C1099 1.433 . S
C1098 C1094 1.350 . S
C1098 C1095 1.463 . S
C1098 N1102 1.427 . S
C1099 H1089 0.929 . S
C1099 C1097 1.433 . S
C1099 N1102 1.384 . S
C1100 H1091 0.929 . S
C1100 C1092 1.378 . S
C1100 C1095 1.350 . S
C1101 H1088 0.929 . S
C1101 C1093 1.433 . S
C1101 N1103 1.384 . S
N1102 C1098 1.427 . S
N1102 C1099 1.384 . S
N1103 C1095 1.427 . S
N1103 C1101 1.384 . S
H1104 C1110 0.930 . S
H1105 C1114 0.930 . S
H1106 C1119 0.929 . S
H1107 C1117 0.929 . S
H1108 C1112 0.929 . S
H1109 C1118 0.929 . S
C1110 H1104 0.930 . S
C1110 C1111 1.367 . S
C1110 C1118 1.378 . S
C1111 C1110 1.367 . S
C1111 C1119 1.433 . S
C1112 H1108 0.929 . S
C1112 C1114 1.378 . S
C1112 C1116 1.350 . S
C1113 C1116 1.463 . S
C1113 C1118 1.350 . S
C1113 N1121 1.427 . S
C1114 H1105 0.930 . S
C1114 C1112 1.378 . S
C1114 C1115 1.367 . S
C1115 C1114 1.367 . S
C1115 C1117 1.433 . S
C1116 C1112 1.350 . S
C1116 C1113 1.463 . S
C1116 N1120 1.427 . S
C1117 H1107 0.929 . S
C1117 C1115 1.433 . S
C1117 N1120 1.384 . S
C1118 H1109 0.929 . S
C1118 C1110 1.378 . S
C1118 C1113 1.350 . S
C1119 H1106 0.929 . S
C1119 C1111 1.433 . S
C1119 N1121 1.384 . S
N1120 C1116 1.427 . S
N1120 C1117 1.384 . S
N1121 C1113 1.427 . S
N1121 C1119 1.384 . S
H1122 C1128 0.930 . S
H1123 C1132 0.930 1_545 S
H1124 C1137 0.929 . S
H1125 C1135 0.929 . S
H1126 C1130 0.929 1_545 S
H1127 C1136 0.929 . S
C1128 H1122 0.930 . S
C1128 C1129 1.367 . S
C1128 C1136 1.378 1_554 S
C1129 C1128 1.367 . S
C1129 C1137 1.433 . S
C1130 H1126 0.929 1_565 S
C1130 C1132 1.378 . S
C1130 C1134 1.350 . S
C1131 C1134 1.463 . S
C1131 C1136 1.350 . S
C1131 N1139 1.427 . S
C1132 H1123 0.930 1_565 S
C1132 C1130 1.378 . S
C1132 C1133 1.367 . S
C1133 C1132 1.367 . S
C1133 C1135 1.433 . S
C1134 C1130 1.350 . S
C1134 C1131 1.463 . S
C1134 N1138 1.427 . S
C1135 H1125 0.929 . S
C1135 C1133 1.433 . S
C1135 N1138 1.384 . S
C1136 H1127 0.929 . S
C1136 C1128 1.378 1_556 S
C1136 C1131 1.350 . S
C1137 H1124 0.929 . S
C1137 C1129 1.433 . S
C1137 N1139 1.384 1_554 S
N1138 C1134 1.427 . S
N1138 C1135 1.384 . S
N1139 C1131 1.427 . S
N1139 C1137 1.384 1_556 S
H1140 C1146 0.930 . S
H1141 C1150 0.930 . S
H1142 C1155 0.929 . S
H1143 C1153 0.929 . S
H1144 C1148 0.929 . S
H1145 C1154 0.929 . S
C1146 H1140 0.930 . S
C1146 C1147 1.367 . S
C1146 C1154 1.378 . S
C1147 C1146 1.367 . S
C1147 C1155 1.433 . S
C1148 H1144 0.929 . S
C1148 C1150 1.378 . S
C1148 C1152 1.350 . S
C1149 C1152 1.463 . S
C1149 C1154 1.350 . S
C1149 N1157 1.427 . S
C1150 H1141 0.930 . S
C1150 C1148 1.378 . S
C1150 C1151 1.367 . S
C1151 C1150 1.367 . S
C1151 C1153 1.433 . S
C1152 C1148 1.350 . S
C1152 C1149 1.463 . S
C1152 N1156 1.427 . S
C1153 H1143 0.929 . S
C1153 C1151 1.433 . S
C1153 N1156 1.384 . S
C1154 H1145 0.929 . S
C1154 C1146 1.378 . S
C1154 C1149 1.350 . S
C1155 H1142 0.929 . S
C1155 C1147 1.433 . S
C1155 N1157 1.384 . S
N1156 C1152 1.427 . S
N1156 C1153 1.384 . S
N1157 C1149 1.427 . S
N1157 C1155 1.384 . S
H1158 C1164 0.930 . S
H1159 C1168 0.930 . S
H1160 C1173 0.929 . S
H1161 C1171 0.929 . S
H1162 C1166 0.929 . S
H1163 C1172 0.929 . S
C1164 H1158 0.930 . S
C1164 C1165 1.367 . S
C1164 C1172 1.378 1_554 S
C1165 C1164 1.367 . S
C1165 C1173 1.433 . S
C1166 H1162 0.929 . S
C1166 C1168 1.378 . S
C1166 C1170 1.350 . S
C1167 C1170 1.463 . S
C1167 C1172 1.350 . S
C1167 N1175 1.427 . S
C1168 H1159 0.930 . S
C1168 C1166 1.378 . S
C1168 C1169 1.367 . S
C1169 C1168 1.367 . S
C1169 C1171 1.433 . S
C1170 C1166 1.350 . S
C1170 C1167 1.463 . S
C1170 N1174 1.427 . S
C1171 H1161 0.929 . S
C1171 C1169 1.433 . S
C1171 N1174 1.384 . S
C1172 H1163 0.929 . S
C1172 C1164 1.378 1_556 S
C1172 C1167 1.350 . S
C1173 H1160 0.929 . S
C1173 C1165 1.433 . S
C1173 N1175 1.384 1_554 S
N1174 C1170 1.427 . S
N1174 C1171 1.384 . S
N1175 C1167 1.427 . S
N1175 C1173 1.384 1_556 S
H1176 C1182 0.930 . S
H1177 C1186 0.930 . S
H1178 C1191 0.929 . S
H1179 C1189 0.929 . S
H1180 C1184 0.929 . S
H1181 C1190 0.929 . S
C1182 H1176 0.930 . S
C1182 C1183 1.367 . S
C1182 C1190 1.378 . S
C1183 C1182 1.367 . S
C1183 C1191 1.433 . S
C1184 H1180 0.929 . S
C1184 C1186 1.378 1_554 S
C1184 C1188 1.350 . S
C1185 C1188 1.463 . S
C1185 C1190 1.350 . S
C1185 N1193 1.427 . S
C1186 H1177 0.930 . S
C1186 C1184 1.378 1_556 S
C1186 C1187 1.367 . S
C1187 C1186 1.367 . S
C1187 C1189 1.433 . S
C1188 C1184 1.350 . S
C1188 C1185 1.463 . S
C1188 N1192 1.427 . S
C1189 H1179 0.929 . S
C1189 C1187 1.433 . S
C1189 N1192 1.384 1_556 S
C1190 H1181 0.929 . S
C1190 C1182 1.378 . S
C1190 C1185 1.350 . S
C1191 H1178 0.929 . S
C1191 C1183 1.433 . S
C1191 N1193 1.384 . S
N1192 C1188 1.427 . S
N1192 C1189 1.384 1_554 S
N1193 C1185 1.427 . S
N1193 C1191 1.384 . S
H1194 C1200 0.930 . S
H1195 C1204 0.930 . S
H1196 C1209 0.929 . S
H1197 C1207 0.929 . S
H1198 C1202 0.929 . S
H1199 C1208 0.929 . S
C1200 H1194 0.930 . S
C1200 C1201 1.367 . S
C1200 C1208 1.378 . S
C1201 C1200 1.367 . S
C1201 C1209 1.433 . S
C1202 H1198 0.929 . S
C1202 C1204 1.378 . S
C1202 C1206 1.350 . S
C1203 C1206 1.463 . S
C1203 C1208 1.350 . S
C1203 N1211 1.427 . S
C1204 H1195 0.930 . S
C1204 C1202 1.378 . S
C1204 C1205 1.367 . S
C1205 C1204 1.367 . S
C1205 C1207 1.433 . S
C1206 C1202 1.350 . S
C1206 C1203 1.463 . S
C1206 N1210 1.427 . S
C1207 H1197 0.929 . S
C1207 C1205 1.433 . S
C1207 N1210 1.384 . S
C1208 H1199 0.929 . S
C1208 C1200 1.378 . S
C1208 C1203 1.350 . S
C1209 H1196 0.929 . S
C1209 C1201 1.433 . S
C1209 N1211 1.384 . S
N1210 C1206 1.427 . S
N1210 C1207 1.384 . S
N1211 C1203 1.427 . S
N1211 C1209 1.384 . S
H1212 C1218 0.930 . S
H1213 C1222 0.930 . S
H1214 C1227 0.929 . S
H1215 C1225 0.929 . S
H1216 C1220 0.929 . S
H1217 C1226 0.929 . S
C1218 H1212 0.930 . S
C1218 C1219 1.367 . S
C1218 C1226 1.378 1_556 S
C1219 C1218 1.367 . S
C1219 C1227 1.433 . S
C1220 H1216 0.929 . S
C1220 C1222 1.378 . S
C1220 C1224 1.350 . S
C1221 C1224 1.463 . S
C1221 C1226 1.350 . S
C1221 N1229 1.427 . S
C1222 H1213 0.930 . S
C1222 C1220 1.378 . S
C1222 C1223 1.367 . S
C1223 C1222 1.367 . S
C1223 C1225 1.433 . S
C1224 C1220 1.350 . S
C1224 C1221 1.463 . S
C1224 N1228 1.427 . S
C1225 H1215 0.929 . S
C1225 C1223 1.433 . S
C1225 N1228 1.384 . S
C1226 H1217 0.929 . S
C1226 C1218 1.378 1_554 S
C1226 C1221 1.350 . S
C1227 H1214 0.929 . S
C1227 C1219 1.433 . S
C1227 N1229 1.384 1_556 S
N1228 C1224 1.427 . S
N1228 C1225 1.384 . S
N1229 C1221 1.427 . S
N1229 C1227 1.384 1_554 S
H1230 C1236 0.930 . S
H1231 C1240 0.930 . S
H1232 C1245 0.929 . S
H1233 C1243 0.929 . S
H1234 C1238 0.929 . S
H1235 C1244 0.929 . S
C1236 H1230 0.930 . S
C1236 C1237 1.367 . S
C1236 C1244 1.378 . S
C1237 C1236 1.367 . S
C1237 C1245 1.433 . S
C1238 H1234 0.929 . S
C1238 C1240 1.378 . S
C1238 C1242 1.350 . S
C1239 C1242 1.463 . S
C1239 C1244 1.350 . S
C1239 N1247 1.427 . S
C1240 H1231 0.930 . S
C1240 C1238 1.378 . S
C1240 C1241 1.367 . S
C1241 C1240 1.367 . S
C1241 C1243 1.433 . S
C1242 C1238 1.350 . S
C1242 C1239 1.463 . S
C1242 N1246 1.427 . S
C1243 H1233 0.929 . S
C1243 C1241 1.433 . S
C1243 N1246 1.384 . S
C1244 H1235 0.929 . S
C1244 C1236 1.378 . S
C1244 C1239 1.350 . S
C1245 H1232 0.929 . S
C1245 C1237 1.433 . S
C1245 N1247 1.384 . S
N1246 C1242 1.427 . S
N1246 C1243 1.384 . S
N1247 C1239 1.427 . S
N1247 C1245 1.384 . S
C535 C17 1.521 . S
C539 C512 1.518 . S
C553 C50 1.523 . S
C557 C413 1.516 . S
C571 C446 1.519 . S
C575 C83 1.520 . S
C589 C116 1.522 . S
C593 C479 1.517 . S
C607 C314 1.518 . S
C611 C149 1.521 . S
C625 C347 1.520 . S
C629 C182 1.519 . S
C643 C380 1.521 . S
C647 C215 1.518 . S
C661 C281 1.522 . S
C665 C248 1.517 . S
C679 C8 1.365 . S
C683 C239 1.358 . S
C697 C41 1.356 . S
C701 C140 1.362 . S
C715 C74 1.365 . S
C719 C173 1.359 . S
C733 C107 1.356 . S
C737 C206 1.365 . S
C751 C503 1.357 . S
C755 C272 1.360 . S
C769 C404 1.360 . S
C773 C305 1.364 . S
C787 C437 1.363 . S
C791 C338 1.361 . S
C805 C371 1.357 . S
C809 C470 1.366 . S
C823 C28 1.020 . S
C827 C160 1.022 . S
C841 C193 1.022 . S
C845 C61 1.022 . S
C859 C226 1.019 . S
C863 C94 1.018 . S
C877 C127 1.021 . S
C881 C259 1.018 . S
C895 C424 1.022 . S
C899 C292 1.019 . S
C913 C325 1.021 . S
C917 C457 1.019 . S
C931 C358 1.022 . S
C935 C490 1.021 . S
C949 C523 1.022 . S
C953 C391 1.022 . S
C967 N14 1.364 . S
C971 N5 1.368 . S
C985 N38 1.368 . S
C989 N47 1.363 . S
C1003 N80 1.364 . S
C1007 N71 1.369 . S
C1021 N104 1.374 . S
C1025 N113 1.369 . S
C1039 N146 1.364 . S
C1043 N137 1.369 . S
C1057 N179 1.370 . S
C1061 N170 1.374 . S
C1075 N212 1.371 . S
C1079 N203 1.376 . S
C1093 N245 1.366 . S
C1097 N236 1.371 . S
C1111 N269 1.377 . S
C1115 N278 1.373 . S
C1129 N302 1.370 . S
C1133 N311 1.365 . S
C1147 N335 1.376 . S
C1151 N344 1.371 . S
C1165 N368 1.376 . S
C1169 N377 1.372 . S
C1183 N410 1.370 . S
C1187 N401 1.373 . S
C1201 N443 1.371 . S
C1205 N434 1.376 . S
C1219 N467 1.375 . S
C1223 N476 1.371 . S
C1237 N500 1.375 . S
C1241 N509 1.371 . S
