# Generated by pormake.
# Topology unl, (4)-cn, num edge types: 1
# Building blocks:
#     Node 0, Type 0, BuildingBlock: AZAVOO_clean_sbu_0, # of connection points: 4
#     Node 1, Type 0, BuildingBlock: AZAVOO_clean_sbu_0, # of connection points: 4
#     Node 2, Type 0, BuildingBlock: AZAVOO_clean_sbu_0, # of connection points: 4
#     Node 3, Type 0, BuildingBlock: AZAVOO_clean_sbu_0, # of connection points: 4
#     Node 4, Type 0, BuildingBlock: AZAVOO_clean_sbu_0, # of connection points: 4
#     Node 5, Type 0, BuildingBlock: AZAVOO_clean_sbu_0, # of connection points: 4
#     Node 6, Type 0, BuildingBlock: AZAVOO_clean_sbu_0, # of connection points: 4
#     Node 7, Type 0, BuildingBlock: AZAVOO_clean_sbu_0, # of connection points: 4
#     Node 8, Type 0, BuildingBlock: AZAVOO_clean_sbu_0, # of connection points: 4
#     Node 9, Type 0, BuildingBlock: AZAVOO_clean_sbu_0, # of connection points: 4
#     Node 10, Type 0, BuildingBlock: AZAVOO_clean_sbu_0, # of connection points: 4
#     Node 11, Type 0, BuildingBlock: AZAVOO_clean_sbu_0, # of connection points: 4
#     Node 12, Type 0, BuildingBlock: AZAVOO_clean_sbu_0, # of connection points: 4
#     Node 13, Type 0, BuildingBlock: AZAVOO_clean_sbu_0, # of connection points: 4
#     Node 14, Type 0, BuildingBlock: AZAVOO_clean_sbu_0, # of connection points: 4
#     Node 15, Type 0, BuildingBlock: AZAVOO_clean_sbu_0, # of connection points: 4
#     Node 16, Type 0, BuildingBlock: AZAVOO_clean_sbu_0, # of connection points: 4
#     Node 17, Type 0, BuildingBlock: AZAVOO_clean_sbu_0, # of connection points: 4
#     Node 18, Type 0, BuildingBlock: AZAVOO_clean_sbu_0, # of connection points: 4
#     Node 19, Type 0, BuildingBlock: AZAVOO_clean_sbu_0, # of connection points: 4
#     Node 20, Type 0, BuildingBlock: AZAVOO_clean_sbu_0, # of connection points: 4
#     Node 21, Type 0, BuildingBlock: AZAVOO_clean_sbu_0, # of connection points: 4
#     Node 22, Type 0, BuildingBlock: AZAVOO_clean_sbu_0, # of connection points: 4
#     Node 23, Type 0, BuildingBlock: AZAVOO_clean_sbu_0, # of connection points: 4
#     Node 24, Type 0, BuildingBlock: AZAVOO_clean_sbu_0, # of connection points: 4
#     Node 25, Type 0, BuildingBlock: AZAVOO_clean_sbu_0, # of connection points: 4
#     Node 26, Type 0, BuildingBlock: AZAVOO_clean_sbu_0, # of connection points: 4
#     Node 27, Type 0, BuildingBlock: AZAVOO_clean_sbu_0, # of connection points: 4
#     Node 28, Type 0, BuildingBlock: AZAVOO_clean_sbu_0, # of connection points: 4
#     Node 29, Type 0, BuildingBlock: AZAVOO_clean_sbu_0, # of connection points: 4
#     Node 30, Type 0, BuildingBlock: AZAVOO_clean_sbu_0, # of connection points: 4
#     Node 31, Type 0, BuildingBlock: AZAVOO_clean_sbu_0, # of connection points: 4
#     Node 32, Type 0, BuildingBlock: AZAVOO_clean_sbu_0, # of connection points: 4
#     Node 33, Type 0, BuildingBlock: AZAVOO_clean_sbu_0, # of connection points: 4
#     Node 34, Type 0, BuildingBlock: AZAVOO_clean_sbu_0, # of connection points: 4
#     Node 35, Type 0, BuildingBlock: AZAVOO_clean_sbu_0, # of connection points: 4
#     Edge 36, Type (0, 0), BuildingBlock: UVAHIK_clean_linker_0, # of connection points: 2
#     Edge 37, Type (0, 0), BuildingBlock: UVAHIK_clean_linker_0, # of connection points: 2
#     Edge 38, Type (0, 0), BuildingBlock: UVAHIK_clean_linker_0, # of connection points: 2
#     Edge 39, Type (0, 0), BuildingBlock: UVAHIK_clean_linker_0, # of connection points: 2
#     Edge 40, Type (0, 0), BuildingBlock: UVAHIK_clean_linker_0, # of connection points: 2
#     Edge 41, Type (0, 0), BuildingBlock: UVAHIK_clean_linker_0, # of connection points: 2
#     Edge 42, Type (0, 0), BuildingBlock: UVAHIK_clean_linker_0, # of connection points: 2
#     Edge 43, Type (0, 0), BuildingBlock: UVAHIK_clean_linker_0, # of connection points: 2
#     Edge 44, Type (0, 0), BuildingBlock: UVAHIK_clean_linker_0, # of connection points: 2
#     Edge 45, Type (0, 0), BuildingBlock: UVAHIK_clean_linker_0, # of connection points: 2
#     Edge 46, Type (0, 0), BuildingBlock: UVAHIK_clean_linker_0, # of connection points: 2
#     Edge 47, Type (0, 0), BuildingBlock: UVAHIK_clean_linker_0, # of connection points: 2
#     Edge 48, Type (0, 0), BuildingBlock: UVAHIK_clean_linker_0, # of connection points: 2
#     Edge 49, Type (0, 0), BuildingBlock: UVAHIK_clean_linker_0, # of connection points: 2
#     Edge 50, Type (0, 0), BuildingBlock: UVAHIK_clean_linker_0, # of connection points: 2
#     Edge 51, Type (0, 0), BuildingBlock: UVAHIK_clean_linker_0, # of connection points: 2
#     Edge 52, Type (0, 0), BuildingBlock: UVAHIK_clean_linker_0, # of connection points: 2
#     Edge 53, Type (0, 0), BuildingBlock: UVAHIK_clean_linker_0, # of connection points: 2
#     Edge 54, Type (0, 0), BuildingBlock: UVAHIK_clean_linker_0, # of connection points: 2
#     Edge 55, Type (0, 0), BuildingBlock: UVAHIK_clean_linker_0, # of connection points: 2
#     Edge 56, Type (0, 0), BuildingBlock: UVAHIK_clean_linker_0, # of connection points: 2
#     Edge 57, Type (0, 0), BuildingBlock: UVAHIK_clean_linker_0, # of connection points: 2
#     Edge 58, Type (0, 0), BuildingBlock: UVAHIK_clean_linker_0, # of connection points: 2
#     Edge 59, Type (0, 0), BuildingBlock: UVAHIK_clean_linker_0, # of connection points: 2
#     Edge 60, Type (0, 0), BuildingBlock: UVAHIK_clean_linker_0, # of connection points: 2
#     Edge 61, Type (0, 0), BuildingBlock: UVAHIK_clean_linker_0, # of connection points: 2
#     Edge 62, Type (0, 0), BuildingBlock: UVAHIK_clean_linker_0, # of connection points: 2
#     Edge 63, Type (0, 0), BuildingBlock: UVAHIK_clean_linker_0, # of connection points: 2
#     Edge 64, Type (0, 0), BuildingBlock: UVAHIK_clean_linker_0, # of connection points: 2
#     Edge 65, Type (0, 0), BuildingBlock: UVAHIK_clean_linker_0, # of connection points: 2
#     Edge 66, Type (0, 0), BuildingBlock: UVAHIK_clean_linker_0, # of connection points: 2
#     Edge 67, Type (0, 0), BuildingBlock: UVAHIK_clean_linker_0, # of connection points: 2
#     Edge 68, Type (0, 0), BuildingBlock: UVAHIK_clean_linker_0, # of connection points: 2
#     Edge 69, Type (0, 0), BuildingBlock: UVAHIK_clean_linker_0, # of connection points: 2
#     Edge 70, Type (0, 0), BuildingBlock: UVAHIK_clean_linker_0, # of connection points: 2
#     Edge 71, Type (0, 0), BuildingBlock: UVAHIK_clean_linker_0, # of connection points: 2
#     Edge 72, Type (0, 0), BuildingBlock: UVAHIK_clean_linker_0, # of connection points: 2
#     Edge 73, Type (0, 0), BuildingBlock: UVAHIK_clean_linker_0, # of connection points: 2
#     Edge 74, Type (0, 0), BuildingBlock: UVAHIK_clean_linker_0, # of connection points: 2
#     Edge 75, Type (0, 0), BuildingBlock: UVAHIK_clean_linker_0, # of connection points: 2
#     Edge 76, Type (0, 0), BuildingBlock: UVAHIK_clean_linker_0, # of connection points: 2
#     Edge 77, Type (0, 0), BuildingBlock: UVAHIK_clean_linker_0, # of connection points: 2
#     Edge 78, Type (0, 0), BuildingBlock: UVAHIK_clean_linker_0, # of connection points: 2
#     Edge 79, Type (0, 0), BuildingBlock: UVAHIK_clean_linker_0, # of connection points: 2
#     Edge 80, Type (0, 0), BuildingBlock: UVAHIK_clean_linker_0, # of connection points: 2
#     Edge 81, Type (0, 0), BuildingBlock: UVAHIK_clean_linker_0, # of connection points: 2
#     Edge 82, Type (0, 0), BuildingBlock: UVAHIK_clean_linker_0, # of connection points: 2
#     Edge 83, Type (0, 0), BuildingBlock: UVAHIK_clean_linker_0, # of connection points: 2
#     Edge 84, Type (0, 0), BuildingBlock: UVAHIK_clean_linker_0, # of connection points: 2
#     Edge 85, Type (0, 0), BuildingBlock: UVAHIK_clean_linker_0, # of connection points: 2
#     Edge 86, Type (0, 0), BuildingBlock: UVAHIK_clean_linker_0, # of connection points: 2
#     Edge 87, Type (0, 0), BuildingBlock: UVAHIK_clean_linker_0, # of connection points: 2
#     Edge 88, Type (0, 0), BuildingBlock: UVAHIK_clean_linker_0, # of connection points: 2
#     Edge 89, Type (0, 0), BuildingBlock: UVAHIK_clean_linker_0, # of connection points: 2
#     Edge 90, Type (0, 0), BuildingBlock: UVAHIK_clean_linker_0, # of connection points: 2
#     Edge 91, Type (0, 0), BuildingBlock: UVAHIK_clean_linker_0, # of connection points: 2
#     Edge 92, Type (0, 0), BuildingBlock: UVAHIK_clean_linker_0, # of connection points: 2
#     Edge 93, Type (0, 0), BuildingBlock: UVAHIK_clean_linker_0, # of connection points: 2
#     Edge 94, Type (0, 0), BuildingBlock: UVAHIK_clean_linker_0, # of connection points: 2
#     Edge 95, Type (0, 0), BuildingBlock: UVAHIK_clean_linker_0, # of connection points: 2
#     Edge 96, Type (0, 0), BuildingBlock: UVAHIK_clean_linker_0, # of connection points: 2
#     Edge 97, Type (0, 0), BuildingBlock: UVAHIK_clean_linker_0, # of connection points: 2
#     Edge 98, Type (0, 0), BuildingBlock: UVAHIK_clean_linker_0, # of connection points: 2
#     Edge 99, Type (0, 0), BuildingBlock: UVAHIK_clean_linker_0, # of connection points: 2
#     Edge 100, Type (0, 0), BuildingBlock: UVAHIK_clean_linker_0, # of connection points: 2
#     Edge 101, Type (0, 0), BuildingBlock: UVAHIK_clean_linker_0, # of connection points: 2
#     Edge 102, Type (0, 0), BuildingBlock: UVAHIK_clean_linker_0, # of connection points: 2
#     Edge 103, Type (0, 0), BuildingBlock: UVAHIK_clean_linker_0, # of connection points: 2
#     Edge 104, Type (0, 0), BuildingBlock: UVAHIK_clean_linker_0, # of connection points: 2
#     Edge 105, Type (0, 0), BuildingBlock: UVAHIK_clean_linker_0, # of connection points: 2
#     Edge 106, Type (0, 0), BuildingBlock: UVAHIK_clean_linker_0, # of connection points: 2
#     Edge 107, Type (0, 0), BuildingBlock: UVAHIK_clean_linker_0, # of connection points: 2
# Relax obj value: 0.207
# Max RMSD: 0.223
# Mean RMSD: 0.217
data_MOF--net-unl--node1-AZAVOO_clean_sbu_0--edge1-UVAHIK_clean_linker_0
_symmetry_space_group_name_H-M    P1
_symmetry_Int_Tables_number       1
_symmetry_cell_setting            triclinic
loop_
_symmetry_equiv_pos_as_xyz
'x, y, z'
_cell_length_a     82.594925
_cell_length_b     81.899487
_cell_length_c     48.503997
_cell_angle_alpha  90.68147
_cell_angle_beta   90.005581
_cell_angle_gamma 120.29307
loop_
_atom_site_label
_atom_site_type_symbol
_atom_site_fract_x
_atom_site_fract_y
_atom_site_fract_z
_atom_type_partial_charge
Mg0 Mg 0.20032 0.09315 0.08327 0.0
O1 O 0.18116 0.08752 0.12054 0.0
O2 O 0.15136 0.07158 0.10614 0.0
Mg3 Mg 0.15134 0.06766 0.05957 0.0
C4 C 0.1636 0.07938 0.12529 0.0
C5 C 0.2291 0.11461 0.13006 0.0
O6 O 0.21852 0.12234 0.13138 0.0
O7 O 0.1931 0.06221 0.08082 0.0
O8 O 0.16372 0.04845 0.06459 0.0
O9 O 0.20083 0.12029 0.07544 0.0
O10 O 0.17979 0.09269 0.05753 0.0
C11 C 0.17807 0.04762 0.07224 0.0
C12 C 0.18583 0.11049 0.06068 0.0
O13 O 0.22514 0.10152 0.11234 0.0
Mg14 Mg 0.93031 0.10975 0.17249 0.0
O15 O 0.90601 0.08354 0.15168 0.0
O16 O 0.88634 0.06428 0.18355 0.0
Mg17 Mg 0.89732 0.07948 0.22511 0.0
C18 C 0.8913 0.06822 0.15845 0.0
C19 C 0.95149 0.14014 0.12628 0.0
O20 O 0.9586 0.15159 0.14771 0.0
O21 O 0.91095 0.12179 0.17843 0.0
O22 O 0.89148 0.10266 0.21065 0.0
O23 O 0.94521 0.09364 0.17768 0.0
O24 O 0.92599 0.09457 0.20857 0.0
C25 C 0.8969 0.11659 0.19434 0.0
C26 C 0.93586 0.08733 0.20028 0.0
O27 O 0.93945 0.12284 0.1301 0.0
Mg28 Mg 0.90941 0.81788 0.15872 0.0
O29 O 0.92962 0.8174 0.12657 0.0
O30 O 0.94805 0.80852 0.14734 0.0
Mg31 Mg 0.93926 0.80271 0.19241 0.0
C32 C 0.94294 0.81375 0.12595 0.0
C33 C 0.90028 0.83405 0.10752 0.0
O34 O 0.9185 0.84536 0.10985 0.0
O35 O 0.892 0.78562 0.15672 0.0
O36 O 0.91076 0.77783 0.17895 0.0
O37 O 0.93044 0.84771 0.17019 0.0
O38 O 0.929 0.8228 0.18973 0.0
C39 C 0.89539 0.77323 0.1665 0.0
C40 C 0.93762 0.84091 0.18705 0.0
O41 O 0.892 0.82065 0.12453 0.0
Mg42 Mg 0.09863 0.18367 0.35041 0.0
O43 O 0.11882 0.18461 0.38386 0.0
O44 O 0.1463 0.19308 0.36391 0.0
Mg45 Mg 0.1439 0.1979 0.31821 0.0
C46 C 0.1358 0.18828 0.38511 0.0
C47 C 0.06084 0.16948 0.379 0.0
O48 O 0.05614 0.1597 0.35577 0.0
O49 O 0.11363 0.21598 0.35077 0.0
O50 O 0.1403 0.22313 0.3294 0.0
O51 O 0.08977 0.15358 0.34069 0.0
O52 O 0.11352 0.17798 0.32067 0.0
C53 C 0.1295 0.22808 0.34087 0.0
C54 C 0.10389 0.15994 0.32412 0.0
O55 O 0.07801 0.18156 0.38343 0.0
Mg56 Mg 0.81115 0.87896 0.32073 0.0
O57 O 0.81579 0.90586 0.34326 0.0
O58 O 0.81468 0.92535 0.31242 0.0
Mg59 Mg 0.80789 0.91026 0.27049 0.0
C60 C 0.81684 0.9215 0.33711 0.0
C61 C 0.8185 0.85761 0.36597 0.0
O62 O 0.8295 0.85826 0.34591 0.0
O63 O 0.77986 0.86867 0.3184 0.0
O64 O 0.77912 0.88817 0.28723 0.0
O65 O 0.84182 0.8935 0.31235 0.0
O66 O 0.821 0.89414 0.28442 0.0
C67 C 0.77085 0.87444 0.30392 0.0
C68 C 0.83832 0.90041 0.29079 0.0
O69 O 0.80818 0.86479 0.36214 0.0
Mg70 Mg 0.1053 0.90345 0.42176 0.0
O71 O 0.08994 0.90916 0.3872 0.0
O72 O 0.07548 0.9236 0.40525 0.0
Mg73 Mg 0.08132 0.92692 0.45151 0.0
C74 C 0.07971 0.91666 0.38469 0.0
C75 C 0.11114 0.88266 0.37261 0.0
O76 O 0.09278 0.87452 0.37327 0.0
O77 O 0.12837 0.93469 0.424 0.0
O78 O 0.11242 0.9472 0.44343 0.0
O79 O 0.07925 0.87585 0.43011 0.0
O80 O 0.0863 0.90294 0.4504 0.0
C81 C 0.12755 0.94883 0.43376 0.0
C82 C 0.07456 0.8852 0.44679 0.0
O83 O 0.12086 0.89599 0.38973 0.0
Mg84 Mg 0.78796 0.91132 0.88944 0.0
O85 O 0.79866 0.89409 0.91216 0.0
O86 O 0.79678 0.87145 0.88395 0.0
Mg87 Mg 0.78299 0.87294 0.84404 0.0
C88 C 0.80125 0.88024 0.90711 0.0
C89 C 0.79825 0.9445 0.92848 0.0
O90 O 0.80391 0.95235 0.90426 0.0
O91 O 0.75746 0.888 0.89609 0.0
O92 O 0.75627 0.8655 0.86799 0.0
O93 O 0.81657 0.92882 0.87161 0.0
O94 O 0.79361 0.90318 0.85153 0.0
C95 C 0.74867 0.87139 0.88535 0.0
C96 C 0.8109 0.91643 0.85175 0.0
O97 O 0.78968 0.92657 0.92987 0.0
Mg98 Mg 0.08286 0.88068 0.8386 0.0
O99 O 0.1048 0.90309 0.86791 0.0
O100 O 0.13024 0.92248 0.84371 0.0
Mg101 Mg 0.12428 0.91274 0.79851 0.0
C102 C 0.12145 0.91721 0.86651 0.0
C103 C 0.04878 0.85939 0.87571 0.0
O104 O 0.04193 0.86351 0.85418 0.0
O105 O 0.1001 0.86586 0.8374 0.0
O106 O 0.12406 0.88579 0.81104 0.0
O107 O 0.07161 0.89988 0.82957 0.0
O108 O 0.09402 0.89914 0.80579 0.0
C109 C 0.1154 0.87054 0.82476 0.0
C110 C 0.08401 0.90686 0.81027 0.0
O111 O 0.06596 0.864 0.87567 0.0
Mg112 Mg 0.08327 0.19201 0.83491 0.0
O113 O 0.06139 0.18972 0.86585 0.0
O114 O 0.04063 0.19548 0.84543 0.0
Mg115 Mg 0.04978 0.20188 0.80026 0.0
C116 C 0.04679 0.19127 0.86671 0.0
C117 C 0.09228 0.17689 0.88612 0.0
O118 O 0.07454 0.16465 0.88103 0.0
O119 O 0.09743 0.2241 0.83659 0.0
O120 O 0.07679 0.22901 0.81368 0.0
O121 O 0.06477 0.16171 0.82312 0.0
O122 O 0.0642 0.18544 0.80277 0.0
C123 C 0.09242 0.2352 0.8264 0.0
C124 C 0.05717 0.16748 0.8053 0.0
O125 O 0.10081 0.19112 0.87057 0.0
Mg126 Mg 0.88638 0.80181 0.66516 0.0
O127 O 0.86781 0.80385 0.63203 0.0
O128 O 0.84091 0.79843 0.65087 0.0
Mg129 Mg 0.8422 0.79205 0.69652 0.0
C130 C 0.85172 0.80238 0.63011 0.0
C131 C 0.92272 0.81548 0.63428 0.0
O132 O 0.92752 0.82643 0.65636 0.0
O133 O 0.86859 0.7698 0.6638 0.0
O134 O 0.84232 0.76468 0.68466 0.0
O135 O 0.89786 0.83219 0.67577 0.0
O136 O 0.8731 0.80873 0.69575 0.0
C137 C 0.85222 0.7586 0.67309 0.0
C138 C 0.88414 0.82666 0.69295 0.0
O139 O 0.90579 0.80229 0.63153 0.0
Mg140 Mg 0.20339 0.11488 0.66911 0.0
O141 O 0.20288 0.09391 0.63666 0.0
O142 O 0.20904 0.07358 0.65814 0.0
Mg143 Mg 0.21204 0.08058 0.70435 0.0
C144 C 0.20559 0.07985 0.63624 0.0
C145 C 0.19167 0.13865 0.63514 0.0
O146 O 0.17994 0.13329 0.6559 0.0
O147 O 0.23538 0.1291 0.67066 0.0
O148 O 0.2391 0.10795 0.69432 0.0
O149 O 0.17272 0.09602 0.6766 0.0
O150 O 0.19505 0.09397 0.69863 0.0
C151 C 0.24586 0.12379 0.68213 0.0
C152 C 0.17746 0.08704 0.6935 0.0
O153 O 0.20421 0.134 0.63481 0.0
Mg154 Mg 0.87554 0.08412 0.60483 0.0
O155 O 0.90332 0.10324 0.58274 0.0
O156 O 0.92318 0.12684 0.61045 0.0
Mg157 Mg 0.90691 0.12412 0.64991 0.0
C158 C 0.9193 0.11787 0.58748 0.0
C159 C 0.87342 0.06218 0.55267 0.0
O160 O 0.88957 0.06657 0.56407 0.0
O161 O 0.86613 0.10567 0.59704 0.0
O162 O 0.88618 0.12914 0.62513 0.0
O163 O 0.88822 0.0684 0.62367 0.0
O164 O 0.88913 0.09344 0.64295 0.0
C165 C 0.87272 0.12224 0.60757 0.0
C166 C 0.89428 0.081 0.64325 0.0
O167 O 0.8633 0.06789 0.56427 0.0
Mg168 Mg 0.87446 0.4442 0.40627 0.0
O169 O 0.8526 0.43826 0.43985 0.0
O170 O 0.82507 0.42952 0.41946 0.0
Mg171 Mg 0.8293 0.43047 0.37292 0.0
C172 C 0.83517 0.43291 0.44105 0.0
C173 C 0.89853 0.45656 0.45896 0.0
O174 O 0.88928 0.46569 0.46083 0.0
O175 O 0.86167 0.41234 0.39776 0.0
O176 O 0.83521 0.4062 0.37623 0.0
O177 O 0.88158 0.4744 0.40413 0.0
O178 O 0.85916 0.45114 0.37944 0.0
C179 C 0.84637 0.40094 0.38522 0.0
C180 C 0.86778 0.46869 0.38688 0.0
O181 O 0.8951 0.44527 0.43864 0.0
Mg182 Mg 0.59699 0.44604 0.49682 0.0
O183 O 0.57386 0.41928 0.47513 0.0
O184 O 0.55339 0.40007 0.50632 0.0
Mg185 Mg 0.56334 0.41491 0.54827 0.0
C186 C 0.55904 0.40392 0.48147 0.0
C187 C 0.61047 0.45057 0.43692 0.0
O188 O 0.60694 0.43349 0.443 0.0
O189 O 0.57633 0.45665 0.50088 0.0
O190 O 0.55681 0.43742 0.53298 0.0
O191 O 0.61316 0.43146 0.5036 0.0
O192 O 0.59227 0.43071 0.53286 0.0
C193 C 0.56199 0.45112 0.5163 0.0
C194 C 0.60324 0.42452 0.52557 0.0
O195 O 0.60744 0.46005 0.45503 0.0
Mg196 Mg 0.57463 0.15075 0.48981 0.0
O197 O 0.59807 0.15335 0.46173 0.0
O198 O 0.61549 0.14409 0.48458 0.0
Mg199 Mg 0.60312 0.13569 0.52786 0.0
C200 C 0.61179 0.15035 0.46292 0.0
C201 C 0.55518 0.16714 0.4548 0.0
O202 O 0.55866 0.17683 0.47799 0.0
O203 O 0.55868 0.11859 0.48413 0.0
O204 O 0.57649 0.11082 0.50913 0.0
O205 O 0.59406 0.18004 0.50624 0.0
O206 O 0.59083 0.15393 0.52432 0.0
C207 C 0.56205 0.10623 0.49414 0.0
C208 C 0.59927 0.17209 0.52436 0.0
O209 O 0.56 0.15469 0.45274 0.0
Mg210 Mg 0.76216 0.51572 0.68585 0.0
O211 O 0.78255 0.51656 0.71883 0.0
O212 O 0.81016 0.52583 0.69871 0.0
Mg213 Mg 0.80748 0.53086 0.65309 0.0
C214 C 0.79965 0.52061 0.71993 0.0
C215 C 0.72437 0.50098 0.71483 0.0
O216 O 0.71955 0.49135 0.69146 0.0
O217 O 0.77687 0.54795 0.68705 0.0
O218 O 0.80354 0.55583 0.66504 0.0
O219 O 0.75346 0.48579 0.6749 0.0
O220 O 0.77723 0.51078 0.65586 0.0
C221 C 0.79257 0.56036 0.67706 0.0
C222 C 0.76769 0.49269 0.65848 0.0
O223 O 0.74156 0.51305 0.71915 0.0
Mg224 Mg 0.48552 0.21958 0.65597 0.0
O225 O 0.48932 0.24489 0.68206 0.0
O226 O 0.48812 0.26586 0.6543 0.0
Mg227 Mg 0.48204 0.25317 0.6107 0.0
C228 C 0.49006 0.26067 0.67819 0.0
C229 C 0.49244 0.19537 0.69627 0.0
O230 O 0.50255 0.19634 0.67477 0.0
O231 O 0.45423 0.20893 0.65391 0.0
O232 O 0.4532 0.2298 0.62575 0.0
O233 O 0.51619 0.23485 0.64813 0.0
O234 O 0.49545 0.23674 0.62155 0.0
C235 C 0.44507 0.21518 0.6409 0.0
C236 C 0.51275 0.24271 0.62772 0.0
O237 O 0.48263 0.20331 0.69515 0.0
Mg238 Mg 0.77459 0.23122 0.75158 0.0
O239 O 0.75409 0.23523 0.72439 0.0
O240 O 0.73914 0.24565 0.75128 0.0
Mg241 Mg 0.75053 0.24926 0.79506 0.0
C242 C 0.74207 0.24053 0.72775 0.0
C243 C 0.77852 0.21256 0.69776 0.0
O244 O 0.76058 0.20156 0.70283 0.0
O245 O 0.79515 0.26321 0.75298 0.0
O246 O 0.77912 0.27247 0.77992 0.0
O247 O 0.75144 0.20208 0.76231 0.0
O248 O 0.7585 0.22795 0.78627 0.0
C249 C 0.79345 0.27608 0.76547 0.0
C250 C 0.74777 0.21003 0.78267 0.0
O251 O 0.78819 0.22683 0.71343 0.0
Mg252 Mg 0.45819 0.24543 0.21383 0.0
O253 O 0.46778 0.22758 0.23687 0.0
O254 O 0.46421 0.20351 0.21048 0.0
Mg255 Mg 0.45098 0.20551 0.17005 0.0
C256 C 0.46932 0.213 0.23304 0.0
C257 C 0.46179 0.27672 0.25582 0.0
O258 O 0.45925 0.28394 0.23331 0.0
O259 O 0.4274 0.22321 0.22117 0.0
O260 O 0.42443 0.20003 0.19298 0.0
O261 O 0.48672 0.26175 0.19516 0.0
O262 O 0.46297 0.2362 0.17621 0.0
C263 C 0.41753 0.20677 0.21021 0.0
C264 C 0.48042 0.24905 0.17569 0.0
O265 O 0.46101 0.26084 0.25439 0.0
Mg266 Mg 0.75145 0.21298 0.17135 0.0
O267 O 0.77227 0.2385 0.19741 0.0
O268 O 0.79631 0.25881 0.17165 0.0
Mg269 Mg 0.79158 0.24512 0.12873 0.0
C270 C 0.78776 0.25396 0.19466 0.0
C271 C 0.72937 0.20823 0.22355 0.0
O272 O 0.73259 0.22435 0.21324 0.0
O273 O 0.77127 0.20118 0.17496 0.0
O274 O 0.79453 0.22127 0.14774 0.0
O275 O 0.73759 0.22893 0.15691 0.0
O276 O 0.7612 0.22905 0.13554 0.0
C277 C 0.78715 0.2069 0.16344 0.0
C278 C 0.74997 0.23557 0.1376 0.0
O279 O 0.7358 0.19898 0.21104 0.0
Mg280 Mg 0.75871 0.53084 0.16324 0.0
O281 O 0.73529 0.5264 0.19262 0.0
O282 O 0.71367 0.52998 0.17036 0.0
Mg283 Mg 0.72421 0.53776 0.12596 0.0
C284 C 0.71985 0.5264 0.19223 0.0
C285 C 0.7929 0.54401 0.20523 0.0
O286 O 0.80206 0.55772 0.18765 0.0
O287 O 0.77047 0.56251 0.16517 0.0
O288 O 0.74947 0.5661 0.14098 0.0
O289 O 0.74233 0.50041 0.15151 0.0
O290 O 0.74032 0.52302 0.12994 0.0
C291 C 0.76478 0.57298 0.15477 0.0
C292 C 0.73428 0.50525 0.13301 0.0
O293 O 0.77585 0.53173 0.20045 0.0
Mg294 Mg 0.56071 0.13734 0.99713 0.0
O295 O 0.54381 0.13954 0.96123 0.0
O296 O 0.51644 0.13467 0.97766 0.0
Mg297 Mg 0.51582 0.12918 0.02391 0.0
C298 C 0.52785 0.13824 0.95779 0.0
C299 C 0.59828 0.14589 0.97276 0.0
O300 O 0.60319 0.15566 0.99601 0.0
O301 O 0.54198 0.10541 0.99654 0.0
O302 O 0.51539 0.10126 0.0149 0.0
O303 O 0.57333 0.16813 0.00638 0.0
O304 O 0.5467 0.14579 0.02409 0.0
C305 C 0.52528 0.09465 0.00497 0.0
C306 C 0.55855 0.16353 0.02095 0.0
O307 O 0.58096 0.13589 0.96681 0.0
Mg308 Mg 0.86783 0.44481 0.99896 0.0
O309 O 0.86732 0.42585 0.96335 0.0
O310 O 0.87318 0.40409 0.98041 0.0
Mg311 Mg 0.87665 0.40863 0.02721 0.0
C312 C 0.86975 0.41173 0.96012 0.0
C313 C 0.85559 0.46953 0.96798 0.0
O314 O 0.84307 0.46254 0.98768 0.0
O315 O 0.8998 0.45911 0.00036 0.0
O316 O 0.9037 0.43668 0.0197 0.0
O317 O 0.83717 0.42536 0.00584 0.0
O318 O 0.85956 0.42222 0.02561 0.0
C319 C 0.91036 0.45325 0.00989 0.0
C320 C 0.84195 0.4155 0.02081 0.0
O321 O 0.86868 0.46566 0.96754 0.0
Mg322 Mg 0.54473 0.41567 0.95143 0.0
O323 O 0.57136 0.43394 0.92652 0.0
O324 O 0.59203 0.45801 0.95293 0.0
Mg325 Mg 0.5779 0.45593 0.9943 0.0
C326 C 0.58741 0.44874 0.93016 0.0
C327 C 0.52199 0.38125 0.91457 0.0
O328 O 0.52096 0.37418 0.93913 0.0
O329 O 0.53535 0.43736 0.94511 0.0
O330 O 0.55603 0.46078 0.97253 0.0
O331 O 0.55817 0.40002 0.96802 0.0
O332 O 0.56 0.42527 0.98814 0.0
C333 C 0.54204 0.45386 0.95593 0.0
C334 C 0.56518 0.41285 0.98727 0.0
O335 O 0.53038 0.39911 0.9122 0.0
Mg336 Mg 0.53289 0.76359 0.75011 0.0
O337 O 0.51188 0.75782 0.78489 0.0
O338 O 0.48364 0.74724 0.76559 0.0
Mg339 Mg 0.4866 0.74704 0.71889 0.0
C340 C 0.49431 0.75172 0.78675 0.0
C341 C 0.5707 0.77055 0.77199 0.0
O342 O 0.57328 0.77192 0.74519 0.0
O343 O 0.52127 0.73182 0.7432 0.0
O344 O 0.494 0.72382 0.72266 0.0
O345 O 0.53861 0.79326 0.7471 0.0
O346 O 0.51622 0.76896 0.72382 0.0
C347 C 0.50595 0.71959 0.73152 0.0
C348 C 0.52425 0.7866 0.7307 0.0
O349 O 0.55464 0.76613 0.78127 0.0
Mg350 Mg 0.26423 0.7808 0.83743 0.0
O351 O 0.24209 0.75387 0.8149 0.0
O352 O 0.22211 0.73387 0.84591 0.0
Mg353 Mg 0.23079 0.74859 0.88808 0.0
C354 C 0.22776 0.73803 0.8211 0.0
C355 C 0.29246 0.80442 0.79323 0.0
O356 O 0.30304 0.80512 0.81398 0.0
O357 O 0.2427 0.79028 0.84117 0.0
O358 O 0.2232 0.77033 0.87264 0.0
O359 O 0.28112 0.76692 0.84436 0.0
O360 O 0.25974 0.76541 0.87331 0.0
C361 C 0.2281 0.7841 0.85618 0.0
C362 C 0.2711 0.75969 0.86617 0.0
O363 O 0.27477 0.79546 0.79618 0.0
Mg364 Mg 0.24032 0.47874 0.81744 0.0
O365 O 0.26252 0.48026 0.78768 0.0
O366 O 0.28045 0.47113 0.80939 0.0
Mg367 Mg 0.26967 0.46391 0.85363 0.0
C368 C 0.2761 0.477 0.78793 0.0
C369 C 0.21931 0.49424 0.78422 0.0
O370 O 0.22309 0.5039 0.80749 0.0
O371 O 0.22384 0.44651 0.81342 0.0
O372 O 0.24219 0.43887 0.83726 0.0
O373 O 0.26057 0.50828 0.83189 0.0
O374 O 0.25776 0.48253 0.85066 0.0
C375 C 0.22729 0.43419 0.82338 0.0
C376 C 0.26638 0.50068 0.84969 0.0
O377 O 0.2245 0.48211 0.78144 0.0
Mg378 Mg 0.4248 0.85021 0.01268 0.0
O379 O 0.44369 0.84914 0.0465 0.0
O380 O 0.47167 0.85775 0.02808 0.0
Mg381 Mg 0.47048 0.86381 0.98248 0.0
C382 C 0.4605 0.85238 0.04855 0.0
C383 C 0.38682 0.83567 0.04162 0.0
O384 O 0.38197 0.8248 0.01945 0.0
O385 O 0.44085 0.88246 0.015 0.0
O386 O 0.46778 0.88948 0.99456 0.0
O387 O 0.41493 0.82016 0.00149 0.0
O388 O 0.43989 0.84455 0.98347 0.0
C389 C 0.45704 0.89452 0.00607 0.0
C390 C 0.42956 0.82648 0.98597 0.0
O391 O 0.40393 0.8483 0.04503 0.0
Mg392 Mg 0.15109 0.55541 0.9972 0.0
O393 O 0.15464 0.58062 0.02326 0.0
O394 O 0.15365 0.60168 0.99546 0.0
Mg395 Mg 0.14808 0.58919 0.95175 0.0
C396 C 0.15539 0.59639 0.0194 0.0
C397 C 0.15797 0.53158 0.03857 0.0
O398 O 0.16896 0.53316 0.01795 0.0
O399 O 0.1198 0.54474 0.99438 0.0
O400 O 0.11908 0.56574 0.96614 0.0
O401 O 0.18186 0.57071 0.98991 0.0
O402 O 0.16137 0.5727 0.96291 0.0
C403 C 0.11078 0.55105 0.98111 0.0
C404 C 0.17861 0.5786 0.96933 0.0
O405 O 0.14772 0.53899 0.03646 0.0
Mg406 Mg 0.44525 0.57574 0.07766 0.0
O407 O 0.42679 0.58131 0.04699 0.0
O408 O 0.40995 0.59113 0.07103 0.0
Mg409 Mg 0.42673 0.60313 0.11037 0.0
C410 C 0.41354 0.58515 0.04869 0.0
C411 C 0.45449 0.54931 0.04777 0.0
O412 O 0.44704 0.54141 0.07139 0.0
O413 O 0.47119 0.60595 0.07821 0.0
O414 O 0.45012 0.61398 0.07943 0.0
O415 O 0.41896 0.54998 0.08995 0.0
O416 O 0.42965 0.57752 0.11153 0.0
C417 C 0.46681 0.61827 0.08465 0.0
C418 C 0.41672 0.56005 0.10864 0.0
O419 O 0.4564 0.56538 0.04261 0.0
Mg420 Mg 0.12548 0.57908 0.54967 0.0
O421 O 0.13337 0.55937 0.57155 0.0
O422 O 0.13028 0.53629 0.5433 0.0
Mg423 Mg 0.11823 0.54024 0.50304 0.0
C424 C 0.13473 0.54478 0.56668 0.0
C425 C 0.14385 0.59956 0.6032 0.0
O426 O 0.15578 0.59531 0.59207 0.0
O427 O 0.09433 0.55725 0.55532 0.0
O428 O 0.09161 0.53483 0.52571 0.0
O429 O 0.15443 0.59529 0.53274 0.0
O430 O 0.1309 0.57073 0.51158 0.0
C431 C 0.08452 0.54117 0.54328 0.0
C432 C 0.14848 0.58317 0.51254 0.0
O433 O 0.12835 0.59429 0.59085 0.0
Mg434 Mg 0.41827 0.54953 0.4993 0.0
O435 O 0.43944 0.57105 0.53038 0.0
O436 O 0.46533 0.59194 0.50824 0.0
Mg437 Mg 0.46094 0.58338 0.46251 0.0
C438 C 0.45589 0.58558 0.53033 0.0
C439 C 0.39488 0.54076 0.55062 0.0
O440 O 0.40007 0.55829 0.54448 0.0
O441 O 0.43587 0.53513 0.49814 0.0
O442 O 0.46051 0.55615 0.47395 0.0
O443 O 0.40645 0.5683 0.49082 0.0
O444 O 0.43056 0.57005 0.4686 0.0
C445 C 0.4516 0.54043 0.48647 0.0
C446 C 0.42005 0.57715 0.47376 0.0
O447 O 0.40052 0.53182 0.53553 0.0
Mg448 Mg 0.42477 0.86408 0.50529 0.0
O449 O 0.40208 0.86149 0.53483 0.0
O450 O 0.38041 0.86486 0.51234 0.0
Mg451 Mg 0.39033 0.8709 0.46743 0.0
C452 C 0.38686 0.86191 0.53446 0.0
C453 C 0.43473 0.8527 0.56005 0.0
O454 O 0.41707 0.83959 0.55648 0.0
O455 O 0.43746 0.89597 0.50499 0.0
O456 O 0.41629 0.89918 0.48054 0.0
O457 O 0.40749 0.83328 0.49471 0.0
O458 O 0.40613 0.85599 0.47249 0.0
C459 C 0.43185 0.90628 0.49373 0.0
C460 C 0.39983 0.83821 0.47573 0.0
O461 O 0.44255 0.86555 0.54214 0.0
Mg462 Mg 0.22936 0.47097 0.33082 0.0
O463 O 0.21083 0.47334 0.29779 0.0
O464 O 0.18405 0.46784 0.31722 0.0
Mg465 Mg 0.18519 0.461 0.3626 0.0
C466 C 0.19474 0.47193 0.2963 0.0
C467 C 0.26643 0.48395 0.30366 0.0
O468 O 0.27034 0.4925 0.32788 0.0
O469 O 0.21152 0.43888 0.32868 0.0
O470 O 0.18534 0.43388 0.34974 0.0
O471 O 0.24081 0.50125 0.34205 0.0
O472 O 0.21598 0.47757 0.36158 0.0
C473 C 0.1951 0.42773 0.33788 0.0
C474 C 0.22698 0.49553 0.35905 0.0
O475 O 0.24941 0.47226 0.29766 0.0
Mg476 Mg 0.53071 0.78512 0.34279 0.0
O477 O 0.52511 0.75961 0.31579 0.0
O478 O 0.5304 0.73981 0.34028 0.0
Mg479 Mg 0.53913 0.75261 0.38368 0.0
C480 C 0.52576 0.74443 0.31784 0.0
C481 C 0.51302 0.79144 0.29216 0.0
O482 O 0.4998 0.77545 0.30236 0.0
O483 O 0.56232 0.79679 0.33833 0.0
O484 O 0.56587 0.77682 0.36525 0.0
O485 O 0.50109 0.7694 0.3576 0.0
O486 O 0.52451 0.76853 0.37798 0.0
C487 C 0.57265 0.79122 0.34966 0.0
C488 C 0.50676 0.76217 0.37612 0.0
O489 O 0.52898 0.79988 0.30405 0.0
Mg490 Mg 0.21315 0.75466 0.28757 0.0
O491 O 0.23804 0.77275 0.25904 0.0
O492 O 0.25863 0.79868 0.28252 0.0
Mg493 Mg 0.24713 0.7973 0.32577 0.0
C494 C 0.25353 0.78845 0.26062 0.0
C495 C 0.189 0.71861 0.25398 0.0
O496 O 0.18961 0.71232 0.27853 0.0
O497 O 0.20207 0.77507 0.28201 0.0
O498 O 0.22306 0.79983 0.3071 0.0
O499 O 0.22798 0.74006 0.30305 0.0
O500 O 0.2311 0.76634 0.32147 0.0
C501 C 0.20828 0.79169 0.2921 0.0
C502 C 0.23642 0.75401 0.32037 0.0
O503 O 0.1967 0.73635 0.25067 0.0
C504 C 0.19383 0.0306 0.05397 0.0
C505 C 0.17795 0.02991 0.06572 0.0
C506 C 0.19197 0.01519 0.03852 0.0
C507 C 0.15825 0.96567 0.01549 0.0
H508 H 0.17604 0.98571 0.94268 0.0
C509 C 0.12062 0.92496 0.91649 0.0
C510 C 0.13092 0.92769 0.8922 0.0
C511 C 0.12944 0.93521 0.94051 0.0
C512 C 0.17129 0.9797 0.96288 0.0
H513 H 0.14834 0.01186 0.07388 0.0
H514 H 0.14514 0.98498 0.04744 0.0
H515 H 0.1872 0.00678 0.98248 0.0
H516 H 0.15874 0.94278 0.87449 0.0
H517 H 0.17418 0.96035 0.91651 0.0
H518 H 0.14183 0.93865 0.99565 0.0
C519 C 0.15897 0.99735 0.04974 0.0
C520 C 0.17777 0.99184 0.98581 0.0
C521 C 0.16078 0.01278 0.06487 0.0
C522 C 0.15034 0.94051 0.89273 0.0
C523 C 0.15919 0.95062 0.91685 0.0
C524 C 0.15187 0.95346 0.99254 0.0
C525 C 0.17427 0.99882 0.03496 0.0
C526 C 0.17082 0.9851 0.01224 0.0
C527 C 0.14882 0.94831 0.94096 0.0
C528 C 0.1578 0.96047 0.96582 0.0
H529 H 0.20724 0.04364 0.05426 0.0
H530 H 0.20406 0.0166 0.02766 0.0
H531 H 0.15277 0.96004 0.03565 0.0
H532 H 0.10564 0.9152 0.91682 0.0
H533 H 0.12089 0.93327 0.95847 0.0
C534 C 0.95239 0.13382 0.07584 0.0
C535 C 0.9588 0.14668 0.09821 0.0
C536 C 0.96057 0.13937 0.04991 0.0
C537 C 0.99015 0.18051 0.00643 0.0
H538 H 0.00387 0.14631 0.97175 0.0
C539 C 0.02125 0.19048 0.89601 0.0
C540 C 0.03651 0.18748 0.89311 0.0
C541 C 0.01127 0.18625 0.92076 0.0
C542 C 0.00018 0.15603 0.98121 0.0
H543 H 0.97824 0.17573 0.11051 0.0
H544 H 0.99253 0.18542 0.06509 0.0
H545 H 0.98683 0.13765 0.0151 0.0
H546 H 0.05339 0.17796 0.91425 0.0
H547 H 0.03598 0.17054 0.95711 0.0
H548 H 0.00378 0.19899 0.97251 0.0
C549 C 0.98115 0.17104 0.0677 0.0
C550 C 0.99024 0.15099 0.00588 0.0
C551 C 0.97301 0.16546 0.09374 0.0
C552 C 0.04169 0.18039 0.91563 0.0
C553 C 0.03165 0.17604 0.9402 0.0
C554 C -2e-05 0.1855 0.98153 0.0
C555 C 0.97528 0.15793 0.04568 0.0
C556 C 0.98521 0.1632 0.01887 0.0
C557 C 0.01625 0.17877 0.94297 0.0
C558 C 0.00524 0.17337 0.96883 0.0
H559 H 0.94137 0.11928 0.07848 0.0
H560 H 0.95555 0.12903 0.03322 0.0
H561 H 0.98637 0.19015 0.01591 0.0
H562 H 0.0169 0.19596 0.87912 0.0
H563 H -0.0006 0.18841 0.92228 0.0
C564 C 0.81551 0.88394 0.95416 0.0
C565 C 0.81016 0.87447 0.92849 0.0
C566 C 0.82449 0.87891 0.97392 0.0
C567 C 0.83312 0.84043 0.99387 0.0
H568 H 0.8754 0.88061 0.03383 0.0
C569 C 0.86989 0.82642 0.08477 0.0
C570 C 0.88954 0.83754 0.08628 0.0
C571 C 0.85979 0.83038 0.06548 0.0
C572 C 0.8637 0.86921 0.02272 0.0
H573 H 0.80989 0.85208 0.90369 0.0
H574 H 0.82567 0.84348 0.93802 0.0
H575 H 0.85848 0.88849 0.00042 0.0
H576 H 0.91402 0.86128 0.06822 0.0
H577 H 0.89645 0.86803 0.03446 0.0
H578 H 0.83863 0.82118 0.01579 0.0
C579 C 0.82274 0.85465 0.94299 0.0
C580 C 0.85385 0.87373 0.00381 0.0
C581 C 0.81377 0.85968 0.92323 0.0
C582 C 0.89888 0.85249 0.06775 0.0
C583 C 0.8888 0.85645 0.04849 0.0
C584 C 0.84297 0.83591 0.01283 0.0
C585 C 0.82832 0.86429 0.9685 0.0
C586 C 0.83848 0.8594 0.98909 0.0
C587 C 0.86913 0.84557 0.04728 0.0
C588 C 0.85844 0.85026 0.02738 0.0
H589 H 0.8129 0.89535 0.95899 0.0
H590 H 0.82837 0.88645 0.99351 0.0
H591 H 0.82123 0.82904 0.98307 0.0
H592 H 0.86226 0.81481 0.09877 0.0
H593 H 0.84463 0.82182 0.06524 0.0
C594 C 0.95214 0.13943 0.5709 0.0
C595 C 0.93388 0.12426 0.56585 0.0
C596 C 0.96599 0.14502 0.55074 0.0
C597 C 0.9778 0.12725 0.48792 0.0
H598 H 0.01339 0.18027 0.47558 0.0
C599 C 0.02764 0.15163 0.39525 0.0
C600 C 0.04641 0.16565 0.40011 0.0
C601 C 0.01409 0.14724 0.41549 0.0
C602 C 0.00366 0.1654 0.47898 0.0
H603 H 0.91586 0.10332 0.5353 0.0
H604 H 0.93989 0.11323 0.50016 0.0
H605 H 0.98933 0.17136 0.51082 0.0
H606 H 0.06559 0.18635 0.42993 0.0
H607 H 0.04185 0.17862 0.46538 0.0
H608 H 0.99204 0.12126 0.45608 0.0
C609 C 0.9436 0.1206 0.51988 0.0
C610 C 0.98988 0.16029 0.49918 0.0
C611 C 0.92977 0.11499 0.54002 0.0
C612 C 0.05125 0.17547 0.42552 0.0
C613 C 0.03764 0.1711 0.44579 0.0
C614 C 0.99152 0.13235 0.46772 0.0
C615 C 0.96192 0.13559 0.52505 0.0
C616 C 0.97673 0.14114 0.5038 0.0
C617 C 0.01894 0.15678 0.4411 0.0
C618 C 0.00456 0.15148 0.46292 0.0
H619 H 0.95583 0.14687 0.59057 0.0
H620 H 0.98 0.15648 0.55552 0.0
H621 H 0.96815 0.11236 0.4913 0.0
H622 H 0.0234 0.14384 0.37587 0.0
H623 H -0.00025 0.13635 0.41105 0.0
C624 C 0.8316 0.84304 0.39732 0.0
C625 C 0.81897 0.8495 0.3929 0.0
C626 C 0.83278 0.83613 0.42295 0.0
C627 C 0.82257 0.83796 0.49669 0.0
H628 H 0.83291 0.79684 0.50129 0.0
C629 C 0.82991 0.808 0.60079 0.0
C630 C 0.84565 0.80573 0.60302 0.0
C631 C 0.82472 0.81186 0.5753 0.0
C632 C 0.83009 0.80838 0.50032 0.0
H633 H 0.79737 0.85342 0.41189 0.0
H634 H 0.79922 0.84105 0.45665 0.0
H635 H 0.82693 0.80596 0.45646 0.0
H636 H 0.86804 0.80541 0.58 0.0
H637 H 0.85891 0.81203 0.53569 0.0
H638 H 0.82583 0.84037 0.54064 0.0
C639 C 0.80844 0.84161 0.44034 0.0
C640 C 0.8267 0.81365 0.47464 0.0
C641 C 0.8073 0.8486 0.41464 0.0
C642 C 0.85586 0.8071 0.57909 0.0
C643 C 0.85056 0.81077 0.55362 0.0
C644 C 0.82585 0.8326 0.52243 0.0
C645 C 0.82129 0.8354 0.44485 0.0
C646 C 0.82324 0.82874 0.47242 0.0
C647 C 0.83501 0.81332 0.55146 0.0
C648 C 0.82997 0.81797 0.52446 0.0
H649 H 0.84086 0.84359 0.38108 0.0
H650 H 0.84307 0.8318 0.42577 0.0
H651 H 0.82017 0.84978 0.49576 0.0
H652 H 0.82175 0.80706 0.6188 0.0
H653 H 0.81259 0.81363 0.57421 0.0
C654 C 0.14387 0.98368 0.44059 0.0
C655 C 0.14489 0.96709 0.43875 0.0
C656 C 0.15785 -0.00033 0.45432 0.0
C657 C 0.18636 0.0073 0.51436 0.0
H658 H 0.19999 0.05966 0.50526 0.0
C659 C 0.21236 0.05861 0.60701 0.0
C660 C 0.20463 0.07041 0.60957 0.0
C661 C 0.21075 0.04899 0.58226 0.0
C662 C 0.19626 0.04508 0.50816 0.0
H663 H 0.16236 0.95491 0.44685 0.0
H664 H 0.18687 0.98292 0.47101 0.0
H665 H 0.18827 0.03789 0.4657 0.0
H666 H 0.18961 0.08176 0.58787 0.0
H667 H 0.1861 0.06441 0.54509 0.0
H668 H 0.19301 0.01393 0.55698 0.0
C669 C 0.17516 0.98348 0.46201 0.0
C670 C 0.1897 0.03267 0.48544 0.0
C671 C 0.16121 0.96751 0.44797 0.0
C672 C 0.19571 0.07278 0.58657 0.0
C673 C 0.19387 0.06294 0.56192 0.0
C674 C 0.19275 0.01962 0.53706 0.0
C675 C 0.17304 -0.0007 0.4667 0.0
C676 C 0.18412 0.0135 0.48851 0.0
C677 C 0.20112 0.05068 0.55957 0.0
C678 C 0.19721 0.03853 0.53448 0.0
H679 H 0.13147 0.98376 0.43349 0.0
H680 H 0.15575 0.01158 0.45756 0.0
H681 H 0.18187 0.99255 0.5176 0.0
H682 H 0.2196 0.05671 0.62421 0.0
H683 H 0.21684 0.03999 0.58108 0.0
C684 C 0.88232 0.06032 0.10868 0.0
C685 C 0.87953 0.05474 0.13639 0.0
C686 C 0.87115 0.04777 0.08782 0.0
C687 C 0.8424 0.99744 0.07079 0.0
H688 H 0.8231 0.01496 0.01234 0.0
C689 C 0.79899 0.94835 0.98005 0.0
C690 C 0.80372 0.95646 0.95377 0.0
C691 C 0.80576 0.95974 0.00382 0.0
C692 C 0.82849 0.00986 0.02839 0.0
H693 H 0.86285 0.0315 0.16386 0.0
H694 H 0.84347 0.00949 0.12725 0.0
H695 H 0.84013 0.03604 0.05098 0.0
H696 H 0.81881 0.98293 0.9319 0.0
H697 H 0.83081 0.00263 0.97306 0.0
H698 H 0.83137 0.9715 0.04782 0.0
C699 C 0.8543 0.02363 0.12179 0.0
C700 C 0.83821 0.02194 0.05054 0.0
C701 C 0.86535 0.03626 0.14273 0.0
C702 C 0.81485 0.97621 0.9518 0.0
C703 C 0.82166 0.98755 0.97548 0.0
C704 C 0.8328 0.98539 0.04851 0.0
C705 C 0.85704 0.02929 0.09414 0.0
C706 C 0.84552 0.01596 0.07175 0.0
C707 C 0.81742 0.97946 0.0018 0.0
C708 C 0.82599 0.99157 0.02679 0.0
H709 H 0.89309 0.07444 0.10304 0.0
H710 H 0.87375 0.05245 0.06665 0.0
H711 H 0.84801 0.99251 0.08675 0.0
H712 H 0.79039 0.93318 0.98227 0.0
H713 H 0.802 0.95307 0.02377 0.0
C714 C 0.94685 0.82002 0.07513 0.0
C715 C 0.95307 0.81601 0.09976 0.0
C716 C 0.95672 0.8226 0.05062 0.0
C717 C 0.00362 0.83651 0.02498 0.0
H718 H 0.97774 0.81477 0.95575 0.0
C719 C 0.04427 0.84695 0.92386 0.0
C720 C 0.03709 0.85116 0.90046 0.0
C721 C 0.03363 0.84058 0.9479 0.0
C722 C 0.98518 0.82107 0.97487 0.0
H723 H 0.97449 0.8114 0.11779 0.0
H724 H 0.99168 0.81599 0.07505 0.0
H725 H 0.95983 0.80791 0.9983 0.0
H726 H 0.01291 0.85154 0.88375 0.0
H727 H 0.99457 0.84084 0.92565 0.0
H728 H 0.0289 0.85008 0.00162 0.0
C729 C 0.97922 0.81721 0.07478 0.0
C730 C 0.9749 0.81712 0.99923 0.0
C731 C 0.96929 0.81449 0.09924 0.0
C732 C 0.01886 0.84839 0.90138 0.0
C733 C 0.00827 0.84212 0.92541 0.0
C734 C 0.01388 0.84056 0.00061 0.0
C735 C 0.97309 0.82137 0.05025 0.0
C736 C 0.98401 0.82491 0.02451 0.0
C737 C 0.0156 0.83837 0.94909 0.0
C738 C 0.00478 0.83303 0.97521 0.0
H739 H 0.93442 0.82129 0.07477 0.0
H740 H 0.95176 0.82598 0.03208 0.0
H741 H 0.011 0.84291 0.04411 0.0
H742 H 0.05824 0.84885 0.92377 0.0
H743 H 0.03958 0.83753 0.96562 0.0
C744 C 0.12135 0.18578 0.91401 0.0
C745 C 0.10234 0.17301 0.90796 0.0
C746 C 0.13104 0.18104 0.93302 0.0
C747 C 0.13078 0.13953 0.95806 0.0
H748 H 0.16035 0.16998 0.02054 0.0
C749 C 0.15783 0.10818 0.03716 0.0
C750 C 0.17615 0.1194 0.04739 0.0
C751 C 0.14927 0.1162 0.02219 0.0
C752 C 0.15234 0.16144 0.00296 0.0
H753 H 0.07842 0.14568 0.91804 0.0
H754 H 0.09539 0.13742 0.95068 0.0
H755 H 0.1449 0.18188 0.99024 0.0
H756 H 0.19968 0.14806 0.05076 0.0
H757 H 0.18489 0.16209 0.02373 0.0
H758 H 0.13836 0.1193 0.96992 0.0
C759 C 0.10278 0.15101 0.94069 0.0
C760 C 0.14349 0.16824 0.98573 0.0
C761 C 0.09308 0.15579 0.92202 0.0
C762 C 0.18551 0.13903 0.04315 0.0
C763 C 0.17702 0.14707 0.02774 0.0
C764 C 0.13974 0.13287 0.97497 0.0
C765 C 0.12191 0.1634 0.94595 0.0
C766 C 0.13236 0.15714 0.96345 0.0
C767 C 0.15893 0.13564 0.01654 0.0
C768 C 0.15032 0.14353 0.99797 0.0
H769 H 0.12883 0.1992 0.9036 0.0
H770 H 0.14582 0.19081 0.93676 0.0
H771 H 0.12257 0.13089 0.94066 0.0
H772 H 0.15008 0.09311 0.04029 0.0
H773 H 0.13511 0.10703 0.01465 0.0
C774 C 0.93255 0.80723 0.58962 0.0
C775 C 0.93642 0.81982 0.61195 0.0
C776 C 0.9453 0.81212 0.5679 0.0
C777 C 0.9815 0.85341 0.53285 0.0
H778 H 0.00395 0.82339 0.5121 0.0
C779 C 0.05266 0.88633 0.481 0.0
C780 C 0.05627 0.87613 0.46091 0.0
C781 C 0.03583 0.87785 0.49533 0.0
C782 C 0.99753 0.83174 0.51719 0.0
H783 H 0.95674 0.84726 0.62918 0.0
H784 H 0.97867 0.85581 0.59122 0.0
H785 H 0.97817 0.81094 0.54522 0.0
H786 H 0.04496 0.84897 0.43992 0.0
H787 H 0.01526 0.83407 0.46504 0.0
H788 H 0.00083 0.87431 0.50533 0.0
C789 C 0.96584 0.8422 0.59051 0.0
C790 C 0.98283 0.82463 0.53618 0.0
C791 C 0.95332 0.83723 0.61232 0.0
C792 C 0.04256 0.85721 0.45529 0.0
C793 C 0.0256 0.84866 0.46972 0.0
C794 C 0.99599 0.86042 0.51374 0.0
C795 C 0.96188 0.8298 0.56801 0.0
C796 C 0.97517 0.83571 0.54483 0.0
C797 C 0.02209 0.85892 0.48994 0.0
C798 C 0.00465 0.84999 0.50647 0.0
H799 H 0.91965 0.7937 0.58882 0.0
H800 H 0.94201 0.80233 0.55074 0.0
H801 H 0.97557 0.86207 0.5389 0.0
H802 H 0.06302 0.90082 0.4862 0.0
H803 H 0.0338 0.88604 0.51123 0.0
C804 C 0.13277 0.18207 0.436 0.0
C805 C 0.14344 0.18637 0.41176 0.0
C806 C 0.13975 0.17948 0.46082 0.0
C807 C 0.17281 0.16589 0.48726 0.0
H808 H 0.16643 0.18554 0.55699 0.0
C809 C 0.20103 0.15339 0.58851 0.0
C810 C 0.1889 0.14803 0.61118 0.0
C811 C 0.19729 0.16054 0.56484 0.0
C812 C 0.1682 0.17984 0.53771 0.0
H813 H 0.17002 0.19173 0.39486 0.0
H814 H 0.18209 0.18721 0.43811 0.0
H815 H 0.15612 0.19312 0.51429 0.0
H816 H 0.16367 0.14659 0.62714 0.0
H817 H 0.15697 0.15868 0.58581 0.0
H818 H 0.1844 0.15219 0.51053 0.0
C819 C 0.16828 0.18569 0.43783 0.0
C820 C 0.16231 0.1842 0.51327 0.0
C821 C 0.16137 0.18837 0.41307 0.0
C822 C 0.17333 0.1506 0.61005 0.0
C823 C 0.16953 0.15765 0.58636 0.0
C824 C 0.1786 0.16145 0.51166 0.0
C825 C 0.15749 0.18105 0.46191 0.0
C826 C 0.16443 0.17715 0.48781 0.0
C827 C 0.18129 0.1624 0.56328 0.0
C828 C 0.17624 0.16824 0.53723 0.0
H829 H 0.11893 0.18046 0.43577 0.0
H830 H 0.13104 0.17575 0.479 0.0
H831 H 0.17438 0.16002 0.46799 0.0
H832 H 0.21323 0.1517 0.58879 0.0
H833 H 0.20682 0.16438 0.54762 0.0
C834 C 0.84791 0.04031 0.51968 0.0
C835 C 0.86679 0.0495 0.52818 0.0
C836 C 0.84155 0.02678 0.4983 0.0
C837 C 0.85403 0.99425 0.46386 0.0
H838 H 0.81814 0.98919 0.40802 0.0
C839 C 0.82221 0.93159 0.38693 0.0
C840 C 0.82091 0.93573 0.35925 0.0
C841 C 0.82652 0.94517 0.40769 0.0
C842 C 0.82824 0.99049 0.42341 0.0
H843 H 0.894 0.05255 0.51987 0.0
H844 H 0.88302 0.02935 0.48252 0.0
H845 H 0.82863 0.01429 0.44302 0.0
H846 H 0.82287 0.95742 0.33182 0.0
H847 H 0.83066 0.98116 0.36799 0.0
H848 H 0.85408 0.97086 0.44402 0.0
C849 C 0.87299 0.03214 0.49277 0.0
C850 C 0.8341 0.00474 0.44361 0.0
C851 C 0.8793 0.04554 0.5141 0.0
C852 C 0.82374 0.95371 0.35291 0.0
C853 C 0.82808 0.9673 0.37368 0.0
C854 C 0.84819 0.98005 0.44374 0.0
C855 C 0.85398 0.02227 0.48503 0.0
C856 C 0.8472 0.00688 0.46391 0.0
C857 C 0.82968 0.96325 0.40129 0.0
C858 C 0.8353 0.97803 0.42318 0.0
H859 H 0.83794 0.04307 0.53016 0.0
H860 H 0.8268 0.01939 0.49286 0.0
H861 H 0.86391 0.99531 0.47946 0.0
H862 H 0.81999 0.91786 0.39262 0.0
H863 H 0.82735 0.94149 0.4288 0.0
C864 C 0.80945 0.28568 0.21611 0.0
C865 C 0.79613 0.26645 0.21912 0.0
C866 C 0.8169 0.29754 0.23926 0.0
C867 C 0.80638 0.30055 0.31286 0.0
H868 H 0.85544 0.34577 0.31067 0.0
C869 C 0.82327 0.36794 0.37097 0.0
C870 C 0.84183 0.38147 0.37806 0.0
C871 C 0.81915 0.35097 0.35812 0.0
C872 C 0.84188 0.33302 0.31206 0.0
H873 H 0.78077 0.24437 0.24884 0.0
H874 H 0.79422 0.26483 0.28919 0.0
H875 H 0.8463 0.32181 0.27463 0.0
H876 H 0.87042 0.3871 0.37952 0.0
H877 H 0.86316 0.35711 0.35734 0.0
H878 H 0.80206 0.31164 0.35045 0.0
C879 C 0.79851 0.27097 0.26897 0.0
C880 C 0.83647 0.31939 0.29103 0.0
C881 C 0.79082 0.2592 0.24581 0.0
C882 C 0.85599 0.37696 0.37421 0.0
C883 C 0.85185 0.35987 0.36124 0.0
C884 C 0.8119 0.31402 0.33408 0.0
C885 C 0.81146 0.29038 0.26604 0.0
C886 C 0.81836 0.30335 0.29055 0.0
C887 C 0.83347 0.34701 0.35208 0.0
C888 C 0.82939 0.33082 0.33334 0.0
H889 H 0.81377 0.29171 0.19581 0.0
H890 H 0.82651 0.31244 0.23602 0.0
H891 H 0.79231 0.28845 0.31333 0.0
H892 H 0.812 0.37091 0.37391 0.0
H893 H 0.80488 0.34161 0.35122 0.0
C894 C 0.62663 0.4783 0.40525 0.0
C895 C 0.61922 0.45894 0.41022 0.0
C896 C 0.63646 0.48634 0.38094 0.0
C897 C 0.66353 0.47801 0.32805 0.0
H898 H 0.6604 0.51682 0.28739 0.0
C899 C 0.7158 0.5187 0.24246 0.0
C900 C 0.70848 0.52121 0.21772 0.0
C901 C 0.70475 0.51241 0.26604 0.0
C902 C 0.66134 0.50593 0.29847 0.0
H903 H 0.6154 0.43265 0.39292 0.0
H904 H 0.63222 0.44658 0.35058 0.0
H905 H 0.64034 0.50262 0.32752 0.0
H906 H 0.68393 0.51965 0.19874 0.0
H907 H 0.66455 0.50841 0.23997 0.0
H908 H 0.68421 0.48097 0.29895 0.0
C909 C 0.63087 0.45566 0.36567 0.0
C910 C 0.64999 0.49792 0.32157 0.0
C911 C 0.62113 0.44766 0.38991 0.0
C912 C 0.69002 0.51786 0.21743 0.0
C913 C 0.67892 0.5115 0.2411 0.0
C914 C 0.67486 0.48601 0.30508 0.0
C915 C 0.63902 0.47516 0.36115 0.0
C916 C 0.65092 0.48381 0.33655 0.0
C917 C 0.68608 0.50837 0.26552 0.0
C918 C 0.67395 0.50008 0.29003 0.0
H919 H 0.62537 0.48736 0.4205 0.0
H920 H 0.64263 0.50143 0.37814 0.0
H921 H 0.66482 0.46739 0.33933 0.0
H922 H 0.73002 0.52134 0.24358 0.0
H923 H 0.71082 0.51052 0.28468 0.0
C924 C 0.54162 0.18538 0.43365 0.0
C925 C 0.54611 0.17099 0.4314 0.0
C926 C 0.53338 0.18936 0.41156 0.0
C927 C 0.50631 0.16913 0.34733 0.0
H928 H 0.52398 0.22165 0.33064 0.0
C929 C 0.48099 0.19217 0.25149 0.0
C930 C 0.47765 0.20727 0.25535 0.0
C931 C 0.48938 0.18725 0.27239 0.0
C932 C 0.51874 0.20691 0.33519 0.0
H933 H 0.54528 0.14936 0.40419 0.0
H934 H 0.53091 0.15638 0.3655 0.0
H935 H 0.53853 0.21397 0.36806 0.0
H936 H 0.48024 0.2288 0.28452 0.0
H937 H 0.49456 0.22008 0.32087 0.0
H938 H 0.48639 0.1621 0.31453 0.0
C939 C 0.53368 0.16449 0.38448 0.0
C940 C 0.52709 0.20251 0.35664 0.0
C941 C 0.54199 0.16054 0.4066 0.0
C942 C 0.48269 0.21716 0.2807 0.0
C943 C 0.49103 0.21224 0.30154 0.0
C944 C 0.4979 0.17354 0.32586 0.0
C945 C 0.52939 0.17903 0.38667 0.0
C946 C 0.52088 0.18358 0.36314 0.0
C947 C 0.49461 0.19733 0.2976 0.0
C948 C 0.50391 0.1925 0.31971 0.0
H949 H 0.54452 0.19366 0.45248 0.0
H950 H 0.52999 0.20045 0.41408 0.0
H951 H 0.50108 0.15441 0.352 0.0
H952 H 0.47734 0.18426 0.23222 0.0
H953 H 0.49209 0.17579 0.2686 0.0
C954 C 0.59629 0.44574 0.88167 0.0
C955 C 0.60121 0.45511 0.90744 0.0
C956 C 0.60943 0.4514 0.86049 0.0
C957 C 0.65485 0.49129 0.83733 0.0
H958 H 0.65642 0.45239 0.79304 0.0
C959 C 0.71515 0.50678 0.76168 0.0
C960 C 0.71011 0.49702 0.73623 0.0
C961 C 0.70174 0.50232 0.78225 0.0
C962 C 0.65603 0.46344 0.805 0.0
H963 H 0.62385 0.47791 0.93098 0.0
H964 H 0.64681 0.48757 0.89415 0.0
H965 H 0.63328 0.44337 0.82946 0.0
H966 H 0.68693 0.47521 0.71223 0.0
H967 H 0.66359 0.46755 0.74799 0.0
H968 H 0.67777 0.51135 0.81292 0.0
C969 C 0.6327 0.47602 0.89021 0.0
C970 C 0.64274 0.45827 0.82588 0.0
C971 C 0.61954 0.47039 0.91139 0.0
C972 C 0.69132 0.48295 0.73164 0.0
C973 C 0.67794 0.47847 0.7522 0.0
C974 C 0.66818 0.49647 0.81646 0.0
C975 C 0.62783 0.46652 0.86456 0.0
C976 C 0.64196 0.47212 0.84227 0.0
C977 C 0.68302 0.48797 0.77783 0.0
C978 C 0.66889 0.48259 0.80003 0.0
H979 H 0.58228 0.43398 0.87781 0.0
H980 H 0.60513 0.44396 0.84085 0.0
H981 H 0.65448 0.50233 0.84933 0.0
H982 H 0.72951 0.51768 0.76588 0.0
H983 H 0.70612 0.50979 0.80187 0.0
C984 C 0.50646 0.17991 0.72383 0.0
C985 C 0.49381 0.18658 0.722 0.0
C986 C 0.50895 0.17295 0.74863 0.0
C987 C 0.48763 0.15399 0.81598 0.0
H988 H 0.5391 0.17332 0.83948 0.0
C989 C 0.50726 0.14427 0.92657 0.0
C990 C 0.52268 0.14161 0.93005 0.0
C991 C 0.50295 0.14842 0.90067 0.0
C992 C 0.52464 0.16751 0.83308 0.0
H993 H 0.47335 0.19056 0.74457 0.0
H994 H 0.47769 0.17831 0.78797 0.0
H995 H 0.53271 0.18261 0.79519 0.0
H996 H 0.54528 0.14063 0.90876 0.0
H997 H 0.5375 0.14742 0.86352 0.0
H998 H 0.47954 0.13879 0.85383 0.0
C999 C 0.48565 0.17847 0.77013 0.0
C1000 C 0.52098 0.17289 0.8077 0.0
C1001 C 0.48323 0.18555 0.74532 0.0
C1002 C 0.53341 0.14276 0.90688 0.0
C1003 C 0.52901 0.14676 0.88094 0.0
C1004 C 0.49128 0.14847 0.84133 0.0
C1005 C 0.49877 0.1724 0.77214 0.0
C1006 C 0.50246 0.16625 0.7989 0.0
C1007 C 0.51386 0.14988 0.87756 0.0
C1008 C 0.50984 0.15522 0.85025 0.0
H1009 H 0.51477 0.1804 0.70625 0.0
H1010 H 0.51897 0.16812 0.74946 0.0
H1011 H 0.47321 0.1485 0.8096 0.0
H1012 H 0.49874 0.14358 0.94398 0.0
H1013 H 0.49135 0.15099 0.89895 0.0
C1014 C 0.86129 0.40952 0.90996 0.0
C1015 C 0.86804 0.40361 0.93206 0.0
C1016 C 0.85828 0.40079 0.88403 0.0
C1017 C 0.86776 0.36885 0.84087 0.0
H1018 H 0.81692 0.34971 0.81483 0.0
C1019 C 0.82564 0.29907 0.78122 0.0
C1020 C 0.80932 0.29553 0.76723 0.0
C1021 C 0.83756 0.31694 0.79286 0.0
C1022 C 0.83138 0.35531 0.82103 0.0
H1023 H 0.87789 0.38458 0.94376 0.0
H1024 H 0.87252 0.36932 0.89861 0.0
H1025 H 0.82903 0.3726 0.85222 0.0
H1026 H 0.79374 0.3081 0.75122 0.0
H1027 H 0.81524 0.33966 0.76961 0.0
H1028 H 0.86993 0.35112 0.81005 0.0
C1029 C 0.86965 0.38076 0.9013 0.0
C1030 C 0.8383 0.36844 0.84271 0.0
C1031 C 0.87253 0.38939 0.92728 0.0
C1032 C 0.8063 0.31058 0.76198 0.0
C1033 C 0.81848 0.32856 0.77293 0.0
C1034 C 0.86092 0.35584 0.81885 0.0
C1035 C 0.8621 0.38608 0.87958 0.0
C1036 C 0.85631 0.37486 0.8535 0.0
C1037 C 0.83345 0.33161 0.79026 0.0
C1038 C 0.84237 0.34836 0.80929 0.0
H1039 H 0.85779 0.42051 0.91283 0.0
H1040 H 0.85256 0.40525 0.86759 0.0
H1041 H 0.88182 0.37378 0.84856 0.0
H1042 H 0.82807 0.28756 0.78581 0.0
H1043 H 0.84888 0.3186 0.80605 0.0
C1044 C 0.55588 0.39147 0.43313 0.0
C1045 C 0.54796 0.39026 0.45922 0.0
C1046 C 0.54544 0.37859 0.41212 0.0
C1047 C 0.49766 0.3469 0.38758 0.0
H1048 H 0.5197 0.32185 0.34709 0.0
C1049 C 0.46866 0.30542 0.28407 0.0
C1050 C 0.46825 0.28809 0.28165 0.0
C1051 C 0.47678 0.31712 0.30726 0.0
C1052 C 0.51333 0.32867 0.35833 0.0
H1053 H 0.52275 0.37471 0.48355 0.0
H1054 H 0.50444 0.35238 0.44659 0.0
H1055 H 0.53745 0.3441 0.3844 0.0
H1056 H 0.47539 0.26912 0.30222 0.0
H1057 H 0.48972 0.28964 0.34239 0.0
H1058 H 0.47363 0.33162 0.36113 0.0
C1059 C 0.51877 0.36327 0.44256 0.0
C1060 C 0.52354 0.34149 0.37949 0.0
C1061 C 0.5293 0.37598 0.46373 0.0
C1062 C 0.4755 0.28239 0.30336 0.0
C1063 C 0.48381 0.29417 0.32632 0.0
C1064 C 0.48754 0.33426 0.36609 0.0
C1065 C 0.52678 0.36441 0.41662 0.0
C1066 C 0.51581 0.35072 0.39432 0.0
C1067 C 0.48484 0.31179 0.32826 0.0
C1068 C 0.49527 0.32499 0.35133 0.0
H1069 H 0.57021 0.40229 0.42896 0.0
H1070 H 0.55191 0.37985 0.39223 0.0
H1071 H 0.49144 0.35392 0.39863 0.0
H1072 H 0.46315 0.31019 0.26774 0.0
H1073 H 0.47746 0.33067 0.30823 0.0
C1074 C 0.71711 0.18601 0.26368 0.0
C1075 C 0.71807 0.20112 0.24889 0.0
C1076 C 0.70655 0.17983 0.28792 0.0
C1077 C 0.68469 0.19576 0.341 0.0
H1078 H 0.65479 0.14241 0.35763 0.0
C1079 C 0.62415 0.16687 0.41818 0.0
C1080 C 0.62415 0.15487 0.43866 0.0
C1081 C 0.63635 0.17189 0.39588 0.0
C1082 C 0.66322 0.15736 0.35331 0.0
H1083 H 0.70834 0.22125 0.24749 0.0
H1084 H 0.68967 0.21023 0.28883 0.0
H1085 H 0.67495 0.15238 0.31698 0.0
H1086 H 0.63664 0.13832 0.45134 0.0
H1087 H 0.65777 0.14688 0.41186 0.0
H1088 H 0.67244 0.20065 0.37673 0.0
C1089 C 0.69746 0.20347 0.28246 0.0
C1090 C 0.67482 0.16309 0.33012 0.0
C1091 C 0.7081 0.20972 0.25854 0.0
C1092 C 0.63636 0.14766 0.43597 0.0
C1093 C 0.64838 0.15246 0.41336 0.0
C1094 C 0.67294 0.19001 0.36386 0.0
C1095 C 0.69668 0.18859 0.29767 0.0
C1096 C 0.68546 0.18237 0.32343 0.0
C1097 C 0.64864 0.16482 0.39333 0.0
C1098 C 0.6619 0.17076 0.37002 0.0
H1099 H 0.72468 0.17913 0.25675 0.0
H1100 H 0.70637 0.16842 0.29921 0.0
H1101 H 0.69307 0.21075 0.33699 0.0
H1102 H 0.61496 0.1727 0.41962 0.0
H1103 H 0.63616 0.18131 0.38055 0.0
C1104 C 0.87533 0.50057 0.37055 0.0
C1105 C 0.86192 0.48172 0.37632 0.0
C1106 C 0.86996 0.5123 0.35756 0.0
C1107 C 0.82905 0.51724 0.3405 0.0
H1108 H 0.85447 0.53777 0.27143 0.0
C1109 C 0.79231 0.52739 0.24837 0.0
C1110 C 0.80243 0.54211 0.22978 0.0
C1111 C 0.80134 0.52457 0.2705 0.0
C1112 C 0.84746 0.53258 0.29094 0.0
H1113 H 0.8323 0.46086 0.37525 0.0
H1114 H 0.82292 0.48119 0.35272 0.0
H1115 H 0.86741 0.52479 0.3039 0.0
H1116 H 0.82989 0.56591 0.22054 0.0
H1117 H 0.84571 0.56101 0.25948 0.0
H1118 H 0.80878 0.52446 0.32725 0.0
C1119 C 0.83758 0.4869 0.35789 0.0
C1120 C 0.85489 0.52512 0.30954 0.0
C1121 C 0.84298 0.47514 0.37043 0.0
C1122 C 0.82171 0.55437 0.2344 0.0
C1123 C 0.83079 0.55153 0.25664 0.0
C1124 C 0.8217 0.52481 0.32203 0.0
C1125 C 0.85105 0.50545 0.35073 0.0
C1126 C 0.84536 0.51674 0.334 0.0
C1127 C 0.82073 0.53642 0.27471 0.0
C1128 C 0.83042 0.53188 0.29654 0.0
H1129 H 0.89004 0.50597 0.37499 0.0
H1130 H 0.88061 0.52657 0.35235 0.0
H1131 H 0.82158 0.51111 0.35943 0.0
H1132 H 0.77743 0.5177 0.24549 0.0
H1133 H 0.79319 0.51259 0.28368 0.0
C1134 C 0.6318 0.16024 0.9589 0.0
C1135 C 0.61277 0.1476 0.95316 0.0
C1136 C 0.64552 0.16291 0.93982 0.0
C1137 C 0.65202 0.15832 0.86554 0.0
H1138 H 0.70176 0.17112 0.89029 0.0
C1139 C 0.71631 0.18169 0.79281 0.0
C1140 C 0.73156 0.19931 0.80089 0.0
C1141 C 0.70097 0.17198 0.81041 0.0
C1142 C 0.68789 0.16744 0.88308 0.0
H1143 H 0.59325 0.12736 0.92318 0.0
H1144 H 0.61733 0.1318 0.88995 0.0
H1145 H 0.6762 0.15953 0.92334 0.0
H1146 H 0.74293 0.22042 0.83375 0.0
H1147 H 0.71646 0.20335 0.86448 0.0
H1148 H 0.66398 0.1665 0.82525 0.0
C1149 C 0.62158 0.13989 0.90906 0.0
C1150 C 0.67327 0.16092 0.902 0.0
C1151 C 0.6078 0.13728 0.92816 0.0
C1152 C 0.73134 0.2069 0.82691 0.0
C1153 C 0.71627 0.19708 0.84459 0.0
C1154 C 0.66665 0.16465 0.84652 0.0
C1155 C 0.64061 0.1529 0.91455 0.0
C1156 C 0.65531 0.15691 0.89366 0.0
C1157 C 0.70092 0.17958 0.83652 0.0
C1158 C 0.68482 0.16984 0.85535 0.0
H1159 H 0.63612 0.16847 0.9779 0.0
H1160 H 0.65997 0.17332 0.94458 0.0
H1161 H 0.63841 0.1555 0.85841 0.0
H1162 H 0.71612 0.17555 0.77282 0.0
H1163 H 0.68924 0.1585 0.80377 0.0
C1164 C 0.83704 0.48148 0.94344 0.0
C1165 C 0.85305 0.47965 0.9448 0.0
C1166 C 0.83342 0.489 0.92012 0.0
C1167 C 0.84406 0.49512 0.846 0.0
H1168 H 0.81926 0.52462 0.84926 0.0
C1169 C 0.82569 0.52156 0.74784 0.0
C1170 C 0.80745 0.51877 0.74649 0.0
C1171 C 0.83279 0.51905 0.77257 0.0
C1172 C 0.82611 0.51631 0.84805 0.0
H1173 H 0.87835 0.48523 0.92334 0.0
H1174 H 0.8722 0.49869 0.88283 0.0
H1175 H 0.82957 0.51692 0.89186 0.0
H1176 H 0.78255 0.51158 0.77038 0.0
H1177 H 0.79495 0.50714 0.81346 0.0
H1178 H 0.84044 0.49433 0.80225 0.0
C1179 C 0.86222 0.49391 0.89956 0.0
C1180 C 0.83201 0.5119 0.87244 0.0
C1181 C 0.86581 0.48632 0.92286 0.0
C1182 C 0.79664 0.51382 0.77063 0.0
C1183 C 0.80379 0.51139 0.79539 0.0
C1184 C 0.83824 0.4996 0.82165 0.0
C1185 C 0.84577 0.49496 0.89765 0.0
C1186 C 0.84086 0.50104 0.87172 0.0
C1187 C 0.82187 0.51379 0.79655 0.0
C1188 C 0.829 0.51005 0.82241 0.0
H1189 H 0.82692 0.47649 0.95998 0.0
H1190 H 0.82052 0.4894 0.91927 0.0
H1191 H 0.85051 0.48644 0.84467 0.0
H1192 H 0.83446 0.52545 0.72971 0.0
H1193 H 0.84686 0.52122 0.77289 0.0
C1194 C 0.51804 0.37604 0.86327 0.0
C1195 C 0.51572 0.36865 0.88994 0.0
C1196 C 0.51398 0.36425 0.84006 0.0
C1197 C 0.51195 0.32017 0.81905 0.0
H1198 H 0.48558 0.3224 0.7544 0.0
C1199 C 0.49158 0.26656 0.72924 0.0
C1200 C 0.4929 0.27318 0.70226 0.0
C1201 C 0.49382 0.2782 0.75194 0.0
C1202 C 0.49319 0.32177 0.77215 0.0
H1203 H 0.50651 0.34295 0.91311 0.0
H1204 H 0.49947 0.3225 0.87271 0.0
H1205 H 0.48996 0.34278 0.79427 0.0
H1206 H 0.49785 0.29737 0.67803 0.0
H1207 H 0.50222 0.3178 0.7176 0.0
H1208 H 0.51556 0.2995 0.79699 0.0
C1209 C 0.50464 0.33742 0.86975 0.0
C1210 C 0.49563 0.3334 0.795 0.0
C1211 C 0.50858 0.34914 0.89289 0.0
C1212 C 0.49664 0.29177 0.69853 0.0
C1213 C 0.49903 0.30346 0.72124 0.0
C1214 C 0.50965 0.30866 0.79619 0.0
C1215 C 0.50763 0.34489 0.8431 0.0
C1216 C 0.50495 0.33264 0.81873 0.0
C1217 C 0.49761 0.29682 0.74824 0.0
C1218 C 0.50017 0.30924 0.77247 0.0
H1219 H 0.52351 0.391 0.86029 0.0
H1220 H 0.51648 0.3704 0.81976 0.0
H1221 H 0.51951 0.31952 0.83687 0.0
H1222 H 0.48856 0.25227 0.7329 0.0
H1223 H 0.49233 0.27249 0.77241 0.0
C1224 C 0.47813 0.6147 0.55706 0.0
C1225 C 0.46414 0.59554 0.55674 0.0
C1226 C 0.48512 0.62445 0.58202 0.0
C1227 C 0.47181 0.62191 0.65548 0.0
H1228 H 0.52046 0.66764 0.65924 0.0
C1229 C 0.48429 0.68619 0.71723 0.0
C1230 C 0.50247 0.7004 0.72487 0.0
C1231 C 0.48128 0.66959 0.70438 0.0
C1232 C 0.50701 0.65468 0.65906 0.0
H1233 H 0.44718 0.57127 0.5823 0.0
H1234 H 0.4599 0.58804 0.62589 0.0
H1235 H 0.51312 0.6457 0.62091 0.0
H1236 H 0.53148 0.70745 0.72779 0.0
H1237 H 0.52616 0.67809 0.70578 0.0
H1238 H 0.46581 0.63075 0.69385 0.0
C1239 C 0.46506 0.59578 0.60691 0.0
C1240 C 0.50263 0.64223 0.63666 0.0
C1241 C 0.4578 0.58612 0.58191 0.0
C1242 C 0.51733 0.69681 0.72193 0.0
C1243 C 0.51429 0.68007 0.70907 0.0
C1244 C 0.47632 0.63416 0.67814 0.0
C1245 C 0.47856 0.6152 0.60735 0.0
C1246 C 0.48462 0.6262 0.63382 0.0
C1247 C 0.49635 0.66665 0.69897 0.0
C1248 C 0.49358 0.65124 0.67945 0.0
H1249 H 0.48322 0.62237 0.53799 0.0
H1250 H 0.49515 0.63945 0.58132 0.0
H1251 H 0.4578 0.60974 0.65425 0.0
H1252 H 0.47248 0.6884 0.71954 0.0
H1253 H 0.46728 0.6598 0.69682 0.0
C1254 C 0.35769 0.85462 0.56058 0.0
C1255 C 0.37634 0.85851 0.56055 0.0
C1256 C 0.34766 0.85065 0.58525 0.0
C1257 C 0.35386 0.85661 0.66069 0.0
H1258 H 0.30462 0.81164 0.66401 0.0
C1259 C 0.32062 0.82161 0.7633 0.0
C1260 C 0.30112 0.81299 0.76654 0.0
C1261 C 0.3289 0.82887 0.73788 0.0
C1262 C 0.3182 0.82444 0.66338 0.0
H1263 H 0.39915 0.86162 0.58658 0.0
H1264 H 0.38174 0.85486 0.6294 0.0
H1265 H 0.32072 0.82143 0.61988 0.0
H1266 H 0.27502 0.80562 0.7457 0.0
H1267 H 0.28954 0.81858 0.70129 0.0
H1268 H 0.35149 0.85962 0.70411 0.0
C1269 C 0.37488 0.85492 0.6104 0.0
C1270 C 0.32743 0.83002 0.63808 0.0
C1271 C 0.38482 0.85868 0.58579 0.0
C1272 C 0.29009 0.81212 0.74386 0.0
C1273 C 0.2984 0.81946 0.71837 0.0
C1274 C 0.3446 0.85112 0.68592 0.0
C1275 C 0.35616 0.85074 0.6104 0.0
C1276 C 0.34553 0.84593 0.6366 0.0
C1277 C 0.31791 0.8278 0.71503 0.0
C1278 C 0.32683 0.83473 0.68771 0.0
H1279 H 0.35072 0.85434 0.54151 0.0
H1280 H 0.33327 0.84756 0.58468 0.0
H1281 H 0.36767 0.86912 0.66009 0.0
H1282 H 0.32955 0.82247 0.78028 0.0
H1283 H 0.3439 0.83487 0.73601 0.0
C1284 C 0.14624 0.5465 0.61506 0.0
C1285 C 0.14206 0.53782 0.58879 0.0
C1286 C 0.15349 0.5403 0.63582 0.0
C1287 C 0.17915 0.51498 0.64708 0.0
H1288 H 0.16183 0.51178 0.7222 0.0
C1289 C 0.20537 0.48763 0.73647 0.0
C1290 C 0.20943 0.49774 0.76158 0.0
C1291 C 0.19626 0.49123 0.71509 0.0
C1292 C 0.16694 0.51276 0.70137 0.0
H1293 H 0.14221 0.51571 0.56387 0.0
H1294 H 0.15483 0.50485 0.60026 0.0
H1295 H 0.14751 0.52036 0.68545 0.0
H1296 H 0.20709 0.51958 0.78387 0.0
H1297 H 0.19146 0.52599 0.74663 0.0
H1298 H 0.19877 0.50763 0.6631 0.0
C1299 C 0.1526 0.51656 0.60464 0.0
C1300 C 0.15872 0.51766 0.68031 0.0
C1301 C 0.14526 0.52272 0.58385 0.0
C1302 C 0.20412 0.51147 0.76486 0.0
C1303 C 0.19503 0.51506 0.74353 0.0
C1304 C 0.18741 0.5101 0.66819 0.0
C1305 C 0.1568 0.52529 0.63087 0.0
C1306 C 0.16487 0.51904 0.65296 0.0
C1307 C 0.19099 0.50501 0.71838 0.0
C1308 C 0.18155 0.50915 0.69565 0.0
H1309 H 0.14402 0.5582 0.61965 0.0
H1310 H 0.15683 0.54752 0.65566 0.0
H1311 H 0.18434 0.51612 0.62627 0.0
H1312 H 0.20924 0.47693 0.73329 0.0
H1313 H 0.19319 0.4831 0.69608 0.0
C1314 C 0.37771 0.84409 0.08664 0.0
C1315 C 0.3727 0.83253 0.06288 0.0
C1316 C 0.36452 0.84051 0.10723 0.0
C1317 C 0.31335 0.81473 0.12102 0.0
H1318 H 0.32943 0.81829 0.19706 0.0
C1319 C 0.26159 0.78393 0.21218 0.0
C1320 C 0.26643 0.79473 0.23675 0.0
C1321 C 0.27424 0.78945 0.1903 0.0
C1322 C 0.32476 0.81745 0.17595 0.0
H1323 H 0.34982 0.8083 0.04193 0.0
H1324 H 0.32695 0.8019 0.07796 0.0
H1325 H 0.35212 0.82646 0.16017 0.0
H1326 H 0.28828 0.82007 0.25719 0.0
H1327 H 0.31017 0.82966 0.21904 0.0
H1328 H 0.28588 0.80542 0.13693 0.0
C1329 C 0.34098 0.8139 0.08055 0.0
C1330 C 0.33778 0.82217 0.15479 0.0
C1331 C 0.35415 0.81751 0.05995 0.0
C1332 C 0.28407 0.81134 0.23866 0.0
C1333 C 0.2967 0.81681 0.21685 0.0
C1334 C 0.3003 0.80995 0.14222 0.0
C1335 C 0.34603 0.82525 0.10456 0.0
C1336 C 0.33224 0.82082 0.12705 0.0
C1337 C 0.29201 0.80584 0.19252 0.0
C1338 C 0.30586 0.81122 0.16992 0.0
H1339 H 0.39186 0.85583 0.08947 0.0
H1340 H 0.36881 0.84971 0.12526 0.0
H1341 H 0.30865 0.81378 0.09991 0.0
H1342 H 0.24814 0.77105 0.20997 0.0
H1343 H 0.27027 0.7806 0.1719 0.0
C1344 C 0.17144 0.51612 0.06733 0.0
C1345 C 0.1586 0.52248 0.06443 0.0
C1346 C 0.17301 0.5086 0.09219 0.0
C1347 C 0.16367 0.50879 0.16658 0.0
H1348 H 0.17528 0.46845 0.16773 0.0
C1349 C 0.17251 0.47749 0.26806 0.0
C1350 C 0.18847 0.47556 0.26958 0.0
C1351 C 0.16704 0.48162 0.24302 0.0
C1352 C 0.17211 0.47977 0.16771 0.0
H1353 H 0.13692 0.5254 0.08518 0.0
H1354 H 0.13942 0.51193 0.12852 0.0
H1355 H 0.16844 0.47809 0.12392 0.0
H1356 H 0.21098 0.4761 0.24575 0.0
H1357 H 0.20138 0.48321 0.20215 0.0
H1358 H 0.16742 0.51047 0.21043 0.0
C1359 C 0.14854 0.5131 0.11168 0.0
C1360 C 0.16823 0.48533 0.14262 0.0
C1361 C 0.14702 0.52071 0.08678 0.0
C1362 C 0.19863 0.47751 0.24537 0.0
C1363 C 0.19307 0.48147 0.22032 0.0
C1364 C 0.16743 0.50314 0.1917 0.0
C1365 C 0.1617 0.50714 0.11478 0.0
C1366 C 0.16426 0.50013 0.14168 0.0
C1367 C 0.17731 0.48371 0.21891 0.0
C1368 C 0.17198 0.48877 0.19248 0.0
H1369 H 0.18063 0.51732 0.05057 0.0
H1370 H 0.18351 0.50445 0.09391 0.0
H1371 H 0.16093 0.52041 0.16663 0.0
H1372 H 0.16435 0.47608 0.28629 0.0
H1373 H 0.15474 0.48311 0.24251 0.0
C1374 C 0.52658 0.71813 0.29199 0.0
C1375 C 0.52122 0.73192 0.29326 0.0
C1376 C 0.52239 0.70644 0.26867 0.0
C1377 C 0.4886 0.68566 0.21256 0.0
H1378 H 0.52552 0.67667 0.17691 0.0
C1379 C 0.46732 0.62516 0.13472 0.0
C1380 C 0.47605 0.63036 0.10895 0.0
C1381 C 0.47435 0.63768 0.15711 0.0
C1382 C 0.51513 0.67912 0.18666 0.0
H1383 H 0.50728 0.74426 0.27099 0.0
H1384 H 0.49964 0.72355 0.23057 0.0
H1385 H 0.53487 0.69888 0.2162 0.0
H1386 H 0.49953 0.6521 0.08651 0.0
H1387 H 0.51222 0.67413 0.12619 0.0
H1388 H 0.4688 0.66576 0.18347 0.0
C1389 C 0.50718 0.72191 0.24758 0.0
C1390 C 0.52042 0.6917 0.20916 0.0
C1391 C 0.5116 0.73378 0.27069 0.0
C1392 C 0.49261 0.64785 0.10627 0.0
C1393 C 0.49981 0.66039 0.12887 0.0
C1394 C 0.48326 0.67291 0.19044 0.0
C1395 C 0.51252 0.70812 0.24636 0.0
C1396 C 0.50718 0.69508 0.22228 0.0
C1397 C 0.49039 0.65559 0.15425 0.0
C1398 C 0.49644 0.66946 0.17734 0.0
H1399 H 0.5341 0.71641 0.30895 0.0
H1400 H 0.52653 0.69582 0.26832 0.0
H1401 H 0.47809 0.68791 0.22241 0.0
H1402 H 0.4548 0.61155 0.13743 0.0
H1403 H 0.46704 0.63351 0.17659 0.0
C1404 C 0.16552 0.61508 0.64301 0.0
C1405 C 0.14947 0.61172 0.62823 0.0
C1406 C 0.17243 0.62819 0.6647 0.0
C1407 C 0.16119 0.65582 0.7136 0.0
H1408 H 0.21518 0.68913 0.71389 0.0
C1409 C 0.2022 0.70602 0.80501 0.0
C1410 C 0.21744 0.72397 0.79883 0.0
C1411 C 0.19281 0.69259 0.78409 0.0
C1412 C 0.20008 0.6801 0.71398 0.0
H1413 H 0.12755 0.61883 0.62544 0.0
H1414 H 0.13979 0.642 0.66347 0.0
H1415 H 0.20049 0.66488 0.67818 0.0
H1416 H 0.23439 0.74201 0.76558 0.0
H1417 H 0.21791 0.71866 0.72915 0.0
H1418 H 0.16086 0.67131 0.74934 0.0
C1419 C 0.14695 0.63436 0.65823 0.0
C1420 C 0.19166 0.66601 0.69371 0.0
C1421 C 0.13996 0.62113 0.63646 0.0
C1422 C 0.22283 0.72829 0.77116 0.0
C1423 C 0.21342 0.71487 0.75025 0.0
C1424 C 0.16964 0.66994 0.73399 0.0
C1425 C 0.16354 0.63835 0.67212 0.0
C1426 C 0.17216 0.6536 0.69341 0.0
C1427 C 0.19842 0.69681 0.7565 0.0
C1428 C 0.1892 0.68218 0.73445 0.0
H1429 H 0.17304 0.60786 0.63746 0.0
H1430 H 0.18497 0.63058 0.67543 0.0
H1431 H 0.14614 0.64644 0.71395 0.0
H1432 H 0.19766 0.70219 0.82609 0.0
H1433 H 0.18145 0.67874 0.78963 0.0
C1434 C 0.28727 0.49291 0.74255 0.0
C1435 C 0.2877 0.48105 0.7629 0.0
C1436 C 0.2991 0.49789 0.71983 0.0
C1437 C 0.3258 0.48427 0.67557 0.0
H1438 H 0.35651 0.53812 0.663 0.0
C1439 C 0.38083 0.51591 0.58729 0.0
C1440 C 0.38242 0.53193 0.57441 0.0
C1441 C 0.36968 0.50859 0.61081 0.0
C1442 C 0.34788 0.52302 0.66593 0.0
H1443 H 0.30037 0.46451 0.77474 0.0
H1444 H 0.32086 0.47299 0.73445 0.0
H1445 H 0.33569 0.52701 0.70245 0.0
H1446 H 0.3729 0.55225 0.57517 0.0
H1447 H 0.35315 0.53923 0.61511 0.0
H1448 H 0.3375 0.48025 0.63841 0.0
C1449 C 0.31143 0.47851 0.73644 0.0
C1450 C 0.33604 0.51669 0.68863 0.0
C1451 C 0.29979 0.47376 0.75949 0.0
C1452 C 0.37223 0.54008 0.58488 0.0
C1453 C 0.36098 0.53268 0.60798 0.0
C1454 C 0.3375 0.49061 0.65249 0.0
C1455 C 0.31141 0.49089 0.7167 0.0
C1456 C 0.3247 0.49729 0.69345 0.0
C1457 C 0.35981 0.51708 0.62163 0.0
C1458 C 0.34843 0.51008 0.64714 0.0
H1459 H 0.27814 0.49879 0.74452 0.0
H1460 H 0.29874 0.50735 0.70473 0.0
H1461 H 0.31715 0.46922 0.67893 0.0
H1462 H 0.38855 0.50936 0.57963 0.0
H1463 H 0.36914 0.4966 0.62086 0.0
C1464 C 0.4976 0.79092 0.71696 0.0
C1465 C 0.51693 0.7986 0.72091 0.0
C1466 C 0.4907 0.80173 0.70543 0.0
C1467 C 0.5038 0.83923 0.65668 0.0
H1468 H 0.45713 0.83562 0.67954 0.0
C1469 C 0.46477 0.86479 0.58677 0.0
C1470 C 0.44552 0.8517 0.58364 0.0
C1471 C 0.47514 0.86278 0.60791 0.0
C1472 C 0.47018 0.83678 0.67288 0.0
H1473 H 0.54421 0.82383 0.7172 0.0
H1474 H 0.53211 0.84277 0.69634 0.0
H1475 H 0.47261 0.8239 0.70962 0.0
H1476 H 0.42191 0.82672 0.60092 0.0
H1477 H 0.43993 0.82301 0.63725 0.0
H1478 H 0.50088 0.85107 0.61927 0.0
C1479 C 0.52234 0.82836 0.70225 0.0
C1480 C 0.47906 0.83014 0.69015 0.0
C1481 C 0.52923 0.81758 0.71422 0.0
C1482 C 0.43673 0.83702 0.60268 0.0
C1483 C 0.44705 0.835 0.62373 0.0
C1484 C 0.49485 0.84575 0.6393 0.0
C1485 C 0.50301 0.82041 0.69739 0.0
C1486 C 0.49562 0.83072 0.6818 0.0
C1487 C 0.46644 0.84766 0.62635 0.0
C1488 C 0.47759 0.84399 0.64679 0.0
H1489 H 0.48776 0.77652 0.72259 0.0
H1490 H 0.47574 0.79517 0.70177 0.0
H1491 H 0.51648 0.83971 0.64962 0.0
H1492 H 0.47194 0.87634 0.57253 0.0
H1493 H 0.49001 0.87289 0.60956 0.0
C1494 C 0.27795 0.47995 0.25749 0.0
C1495 C 0.28148 0.48931 0.28316 0.0
C1496 C 0.29214 0.48597 0.23776 0.0
C1497 C 0.34394 0.51605 0.23002 0.0
H1498 H 0.33172 0.5177 0.15327 0.0
C1499 C 0.39981 0.56118 0.15061 0.0
C1500 C 0.39999 0.55172 0.12637 0.0
C1501 C 0.38474 0.55261 0.16873 0.0
C1502 C 0.33527 0.51718 0.17462 0.0
H1503 H 0.30269 0.51226 0.3083 0.0
H1504 H 0.32708 0.52301 0.27393 0.0
H1505 H 0.30661 0.50383 0.18726 0.0
H1506 H 0.38422 0.52623 0.1015 0.0
H1507 H 0.35763 0.51142 0.13306 0.0
H1508 H 0.37264 0.53002 0.21745 0.0
C1509 C 0.31358 0.51073 0.2691 0.0
C1510 C 0.32091 0.50914 0.19408 0.0
C1511 C 0.29951 0.50462 0.28882 0.0
C1512 C 0.38448 0.53382 0.12009 0.0
C1513 C 0.36926 0.52537 0.13806 0.0
C1514 C 0.35826 0.5243 0.21067 0.0
C1515 C 0.3101 0.50156 0.24327 0.0
C1516 C 0.32511 0.50871 0.22211 0.0
C1517 C 0.36945 0.53455 0.16278 0.0
C1518 C 0.35408 0.52513 0.18288 0.0
H1519 H 0.2642 0.46807 0.25256 0.0
H1520 H 0.28903 0.47842 0.21822 0.0
H1521 H 0.34768 0.51555 0.25126 0.0
H1522 H 0.41155 0.57499 0.15599 0.0
H1523 H 0.3851 0.56006 0.18754 0.0
C1524 C 0.52328 0.8139 0.25238 0.0
C1525 C 0.50891 0.79937 0.26772 0.0
C1526 C 0.51897 0.82077 0.22883 0.0
C1527 C 0.48032 0.80729 0.17811 0.0
H1528 H 0.50777 0.86045 0.15958 0.0
C1529 C 0.45392 0.83802 0.09546 0.0
C1530 C 0.46695 0.84878 0.07508 0.0
C1531 C 0.45978 0.83317 0.11944 0.0
C1532 C 0.50007 0.84556 0.1645 0.0
H1533 H 0.47876 0.78115 0.27099 0.0
H1534 H 0.47128 0.79343 0.23084 0.0
H1535 H 0.51679 0.84961 0.2005 0.0
H1536 H 0.49648 0.8636 0.06451 0.0
H1537 H 0.5067 0.85528 0.10668 0.0
H1538 H 0.46337 0.80332 0.1425 0.0
C1539 C 0.4859 0.79915 0.23622 0.0
C1540 C 0.50527 0.83932 0.18782 0.0
C1541 C 0.4902 0.79217 0.25943 0.0
C1542 C 0.48607 0.8552 0.07973 0.0
C1543 C 0.49195 0.85054 0.10391 0.0
C1544 C 0.475 0.81356 0.15509 0.0
C1545 C 0.50021 0.81335 0.22036 0.0
C1546 C 0.49534 0.82011 0.19503 0.0
C1547 C 0.47881 0.83917 0.12372 0.0
C1548 C 0.48473 0.83275 0.14815 0.0
H1549 H 0.53784 0.8197 0.25827 0.0
H1550 H 0.53036 0.83161 0.21699 0.0
H1551 H 0.47266 0.79233 0.18254 0.0
H1552 H 0.43909 0.83285 0.09257 0.0
H1553 H 0.44939 0.82454 0.13455 0.0
C1554 C 0.1754 0.68607 0.23368 0.0
C1555 C 0.18191 0.70541 0.23003 0.0
C1556 C 0.1709 0.6739 0.21095 0.0
C1557 C 0.15972 0.66835 0.1366 0.0
H1558 H 0.18105 0.63564 0.13778 0.0
C1559 C 0.16117 0.62719 0.03987 0.0
C1560 C 0.15796 0.60878 0.04352 0.0
C1561 C 0.16335 0.63878 0.06263 0.0
C1562 C 0.17475 0.64446 0.13723 0.0
H1563 H 0.18794 0.72694 0.19964 0.0
H1564 H 0.18 0.7056 0.15987 0.0
H1565 H 0.1852 0.65585 0.17749 0.0
H1566 H 0.15437 0.58809 0.07409 0.0
H1567 H 0.15783 0.60813 0.11368 0.0
H1568 H 0.14919 0.65688 0.09635 0.0
C1569 C 0.17839 0.69989 0.18038 0.0
C1570 C 0.17715 0.65606 0.16001 0.0
C1571 C 0.18298 0.71213 0.20316 0.0
C1572 C 0.15696 0.60223 0.07048 0.0
C1573 C 0.15903 0.61377 0.09322 0.0
C1574 C 0.15721 0.65663 0.11383 0.0
C1575 C 0.17272 0.68074 0.18404 0.0
C1576 C 0.16968 0.66815 0.15995 0.0
C1577 C 0.16228 0.63221 0.0896 0.0
C1578 C 0.16474 0.64457 0.11385 0.0
H1579 H 0.17429 0.68039 0.25409 0.0
H1580 H 0.16626 0.65914 0.21442 0.0
H1581 H 0.15368 0.6774 0.13607 0.0
H1582 H 0.16211 0.63274 0.0194 0.0
H1583 H 0.16613 0.65299 0.05905 0.0
C1584 C 0.12699 0.1541 0.29891 0.0
C1585 C 0.10915 0.14702 0.31054 0.0
C1586 C 0.13176 0.14207 0.28525 0.0
C1587 C 0.11183 0.10054 0.24267 0.0
H1588 H 0.15983 0.1035 0.25279 0.0
C1589 C 0.13839 0.06898 0.16079 0.0
C1590 C 0.15719 0.08079 0.15322 0.0
C1591 C 0.13161 0.07231 0.18533 0.0
C1592 C 0.14639 0.10253 0.24959 0.0
H1593 H 0.08231 0.12161 0.31711 0.0
H1594 H 0.09052 0.10058 0.29215 0.0
H1595 H 0.14947 0.11876 0.28627 0.0
H1596 H 0.18389 0.10464 0.16625 0.0
H1597 H 0.172 0.11093 0.2083 0.0
H1598 H 0.10923 0.08567 0.20502 0.0
C1599 C 0.10086 0.11548 0.29419 0.0
C1600 C 0.14043 0.11115 0.26889 0.0
C1601 C 0.09621 0.12751 0.30843 0.0
C1602 C 0.16933 0.09526 0.17149 0.0
C1603 C 0.16249 0.09879 0.19579 0.0
C1604 C 0.1179 0.09218 0.22312 0.0
C1605 C 0.11868 0.12271 0.28242 0.0
C1606 C 0.12335 0.11068 0.26514 0.0
C1607 C 0.14339 0.08772 0.20263 0.0
C1608 C 0.13555 0.09359 0.22586 0.0
H1609 H 0.13732 0.16894 0.30004 0.0
H1610 H 0.1455 0.14804 0.27599 0.0
H1611 H 0.09867 0.10014 0.2392 0.0
H1612 H 0.12875 0.05753 0.14731 0.0
H1613 H 0.11695 0.06318 0.19024 0.0
C1614 C 0.87085 0.92855 0.29029 0.0
C1615 C 0.85328 0.91747 0.27739 0.0
C1616 C 0.88352 0.94657 0.28044 0.0
C1617 C 0.88092 0.98457 0.24898 0.0
H1618 H 0.93459 0.00897 0.23718 0.0
C1619 C 0.93753 0.05761 0.19829 0.0
C1620 C 0.93325 0.06986 0.21295 0.0
C1621 C 0.93133 0.03933 0.20783 0.0
C1622 C 0.91962 0.00226 0.24051 0.0
H1623 H 0.83609 0.91563 0.24236 0.0
H1624 H 0.85801 0.94714 0.22556 0.0
H1625 H 0.91662 0.97503 0.24805 0.0
H1626 H 0.92105 0.07341 0.25052 0.0
H1627 H 0.91001 0.04149 0.26684 0.0
H1628 H 0.88372 0.01155 0.24188 0.0
C1629 C 0.86186 0.94202 0.24346 0.0
C1630 C 0.9094 0.98296 0.24671 0.0
C1631 C 0.8493 0.92403 0.25316 0.0
C1632 C 0.92416 0.06413 0.23845 0.0
C1633 C 0.9179 0.0459 0.24785 0.0
C1634 C 0.89111 0.00378 0.2433 0.0
C1635 C 0.87873 0.95371 0.25763 0.0
C1636 C 0.88993 0.97397 0.25074 0.0
C1637 C 0.92075 0.03311 0.23207 0.0
C1638 C 0.91052 0.01282 0.239 0.0
H1639 H 0.87436 0.92383 0.30894 0.0
H1640 H 0.89646 0.95536 0.29171 0.0
H1641 H 0.86597 0.97802 0.25236 0.0
H1642 H 0.94459 0.06167 0.17862 0.0
H1643 H 0.93368 0.02969 0.19531 0.0
C1644 C 0.96554 0.84584 0.21424 0.0
C1645 C 0.95555 0.85343 0.20156 0.0
C1646 C 0.9823 0.85753 0.22823 0.0
C1647 C 0.00475 0.89818 0.271 0.0
H1648 H 0.04983 0.89578 0.25783 0.0
C1649 C 0.06357 0.92741 0.35209 0.0
C1650 C 0.071 0.91568 0.35764 0.0
C1651 C 0.05304 0.92468 0.32814 0.0
C1652 C 0.03735 0.89657 0.26191 0.0
H1653 H 0.95533 0.87936 0.19381 0.0
H1654 H 0.98445 0.89979 0.21955 0.0
H1655 H 0.02394 0.88131 0.22467 0.0
H1656 H 0.07402 0.8925 0.34182 0.0
H1657 H 0.0551 0.88716 0.30086 0.0
H1658 H 0.0172 0.9119 0.30924 0.0
C1659 C 0.97936 0.88477 0.2179 0.0
C1660 C 0.02264 0.88844 0.24277 0.0
C1661 C 0.96274 0.87308 0.20326 0.0
C1662 C 0.06853 0.90181 0.3381 0.0
C1663 C 0.05773 0.89885 0.31442 0.0
C1664 C 0.01929 0.90598 0.29043 0.0
C1665 C 0.98925 0.87703 0.2304 0.0
C1666 C 0.00605 0.88874 0.24757 0.0
C1667 C 0.04942 0.90992 0.30946 0.0
C1668 C 0.03555 0.90473 0.28658 0.0
H1669 H 0.96048 0.83087 0.21364 0.0
H1670 H 0.98956 0.85122 0.23812 0.0
H1671 H 0.99198 0.8984 0.27521 0.0
H1672 H 0.06547 0.9384 0.36661 0.0
H1673 H 0.04729 0.9338 0.32471 0.0
C1674 C 0.86898 0.83456 0.73116 0.0
C1675 C 0.88089 0.8404 0.70824 0.0
C1676 C 0.86612 0.84753 0.74609 0.0
C1677 C 0.86491 0.89072 0.73938 0.0
H1678 H 0.86468 0.89015 0.81936 0.0
C1679 C 0.84284 0.92218 0.83985 0.0
C1680 C 0.82409 0.91549 0.83229 0.0
C1681 C 0.85427 0.91822 0.8231 0.0
C1682 C 0.86506 0.8908 0.79706 0.0
H1683 H 0.89908 0.86435 0.68283 0.0
H1684 H 0.89362 0.887 0.70869 0.0
H1685 H 0.87629 0.87232 0.79375 0.0
H1686 H 0.80296 0.90075 0.8006 0.0
H1687 H 0.82293 0.89413 0.77125 0.0
H1688 H 0.85271 0.90838 0.74271 0.0
C1689 C 0.88671 0.87241 0.71517 0.0
C1690 C 0.87152 0.88045 0.78244 0.0
C1691 C 0.88982 0.85946 0.70044 0.0
C1692 C 0.81735 0.90599 0.80693 0.0
C1693 C 0.82883 0.90233 0.79003 0.0
C1694 C 0.85823 0.9009 0.75402 0.0
C1695 C 0.87491 0.86655 0.73821 0.0
C1696 C 0.87096 0.87987 0.75349 0.0
C1697 C 0.84719 0.90786 0.79837 0.0
C1698 C 0.85774 0.90056 0.78298 0.0
H1699 H 0.86197 0.81999 0.73772 0.0
H1700 H 0.85672 0.8426 0.76354 0.0
H1701 H 0.86431 0.89046 0.71706 0.0
H1702 H 0.84833 0.92949 0.85937 0.0
H1703 H 0.8684 0.92266 0.82993 0.0
C1704 C 0.16723 0.05346 0.70291 0.0
C1705 C 0.16342 0.06831 0.70362 0.0
C1706 C 0.15398 0.03558 0.71205 0.0
C1707 C 0.11814 0.01107 0.76093 0.0
H1708 H 0.10431 0.96721 0.71405 0.0
C1709 C 0.08003 0.93507 0.804 0.0
C1710 C 0.08788 0.92411 0.79545 0.0
C1711 C 0.08483 0.95201 0.79073 0.0
C1712 C 0.10803 0.97929 0.72744 0.0
H1713 H 0.14279 0.07624 0.71411 0.0
H1714 H 0.11964 0.04478 0.73135 0.0
H1715 H 0.12146 0.99882 0.69465 0.0
H1716 H 0.10619 0.92185 0.76552 0.0
H1717 H 0.11493 0.95137 0.74311 0.0
H1718 H 0.10599 0.99172 0.79421 0.0
C1719 C 0.13286 0.04708 0.72334 0.0
C1720 C 0.11771 0.99733 0.71626 0.0
C1721 C 0.14603 0.06496 0.71353 0.0
C1722 C 0.10008 0.93007 0.77288 0.0
C1723 C 0.10489 0.94692 0.75972 0.0
C1724 C 0.10867 0.99299 0.77226 0.0
C1725 C 0.13675 0.03226 0.72249 0.0
C1726 C 0.12336 0.01336 0.7331 0.0
C1727 C 0.09749 0.95822 0.76861 0.0
C1728 C 0.10415 0.97694 0.75582 0.0
H1729 H 0.1803 0.05552 0.69476 0.0
H1730 H 0.15729 0.02435 0.71133 0.0
H1731 H 0.12248 0.0233 0.77429 0.0
H1732 H 0.07049 0.93077 0.82126 0.0
H1733 H 0.07876 0.96031 0.79793 0.0
C1734 C 0.92012 0.07516 0.657 0.0
C1735 C 0.90868 0.08287 0.66303 0.0
C1736 C 0.93531 0.07913 0.67417 0.0
C1737 C 0.95645 0.09772 0.74282 0.0
H1738 H 0.00376 0.12178 0.70386 0.0
C1739 C 0.03534 0.16009 0.76562 0.0
C1740 C 0.04036 0.15405 0.78942 0.0
C1741 C 0.01938 0.14759 0.75052 0.0
C1742 C 0.99064 0.11488 0.71498 0.0
H1743 H 0.90332 0.09966 0.69251 0.0
H1744 H 0.92967 0.1064 0.72257 0.0
H1745 H 0.97437 0.10537 0.67779 0.0
H1746 H 0.03269 0.13021 0.81613 0.0
H1747 H 0.00432 0.10838 0.78994 0.0
H1748 H 0.97279 0.10796 0.77998 0.0
C1749 C 0.92698 0.09737 0.70462 0.0
C1750 C 0.97385 0.10538 0.70011 0.0
C1751 C 0.912 0.09365 0.68729 0.0
C1752 C 0.02914 0.13522 0.79782 0.0
C1753 C 0.01294 0.12276 0.78293 0.0
C1754 C 0.97327 0.10704 0.75772 0.0
C1755 C 0.93907 0.09057 0.69785 0.0
C1756 C 0.9566 0.09726 0.71385 0.0
C1757 C 0.00797 0.12887 0.75913 0.0
C1758 C 0.99047 0.11624 0.74384 0.0
H1759 H 0.91786 0.06681 0.6384 0.0
H1760 H 0.94442 0.07368 0.66857 0.0
H1761 H 0.9433 0.09149 0.75387 0.0
H1762 H 0.04376 0.1745 0.7586 0.0
H1763 H 0.0157 0.15271 0.73244 0.0
C1764 C 0.79175 0.48659 0.63752 0.0
C1765 C 0.77289 0.48032 0.64336 0.0
C1766 C 0.79657 0.47584 0.6206 0.0
C1767 C 0.77839 0.44458 0.56178 0.0
H1768 H 0.82182 0.43888 0.57232 0.0
C1769 C 0.80705 0.42147 0.47128 0.0
C1770 C 0.82662 0.43183 0.46823 0.0
C1771 C 0.79881 0.42224 0.49605 0.0
C1772 C 0.80969 0.44042 0.56898 0.0
H1773 H 0.74429 0.45747 0.63741 0.0
H1774 H 0.75271 0.43876 0.60707 0.0
H1775 H 0.81036 0.4498 0.61066 0.0
H1776 H 0.85295 0.45042 0.48916 0.0
H1777 H 0.83865 0.45242 0.53185 0.0
H1778 H 0.77834 0.43656 0.5198 0.0
C1779 C 0.76374 0.45199 0.61574 0.0
C1780 C 0.80308 0.44655 0.591 0.0
C1781 C 0.75895 0.46264 0.63311 0.0
C1782 C 0.83783 0.44225 0.49087 0.0
C1783 C 0.82958 0.44327 0.51549 0.0
C1784 C 0.78513 0.43871 0.53968 0.0
C1785 C 0.78259 0.4587 0.60891 0.0
C1786 C 0.78766 0.44913 0.58739 0.0
C1787 C 0.80994 0.43365 0.51817 0.0
C1788 C 0.80119 0.43705 0.54277 0.0
H1789 H 0.80281 0.49993 0.64569 0.0
H1790 H 0.8112 0.4814 0.61556 0.0
H1791 H 0.76661 0.44668 0.55832 0.0
H1792 H 0.79805 0.41307 0.45432 0.0
H1793 H 0.78368 0.41425 0.49756 0.0
C1794 C 0.54567 0.27008 0.62739 0.0
C1795 C 0.52789 0.25987 0.61483 0.0
C1796 C 0.55914 0.28764 0.61715 0.0
C1797 C 0.57646 0.32957 0.60502 0.0
H1798 H 0.58102 0.34122 0.52718 0.0
C1799 C 0.59223 0.40123 0.56377 0.0
C1800 C 0.60197 0.40779 0.53889 0.0
C1801 C 0.58844 0.38386 0.57424 0.0
C1802 C 0.58027 0.33823 0.54898 0.0
H1803 H 0.51074 0.25936 0.58063 0.0
H1804 H 0.53406 0.28997 0.56297 0.0
H1805 H 0.5647 0.30835 0.54148 0.0
H1806 H 0.61658 0.40201 0.50652 0.0
H1807 H 0.61005 0.37168 0.52497 0.0
H1808 H 0.59161 0.35947 0.61253 0.0
C1809 C 0.53769 0.28447 0.58065 0.0
C1810 C 0.57073 0.31939 0.55717 0.0
C1811 C 0.52423 0.26701 0.59095 0.0
C1812 C 0.60893 0.39726 0.52565 0.0
C1813 C 0.6051 0.37984 0.53612 0.0
C1814 C 0.58601 0.34843 0.59683 0.0
C1815 C 0.55513 0.2952 0.59402 0.0
C1816 C 0.56816 0.31487 0.58528 0.0
C1817 C 0.59433 0.37271 0.56009 0.0
C1818 C 0.58745 0.35296 0.56875 0.0
H1819 H 0.54893 0.2649 0.6458 0.0
H1820 H 0.57253 0.2955 0.6277 0.0
H1821 H 0.57465 0.32657 0.62685 0.0
H1822 H 0.58694 0.40916 0.57466 0.0
H1823 H 0.57998 0.37874 0.59264 0.0
C1824 C 0.61675 0.17436 0.56725 0.0
C1825 C 0.6149 0.18317 0.54379 0.0
C1826 C 0.6314 0.18441 0.5859 0.0
C1827 C 0.67897 0.22322 0.59256 0.0
H1828 H 0.66757 0.21795 0.67065 0.0
C1829 C 0.73135 0.2319 0.67852 0.0
C1830 C 0.73034 0.23967 0.70403 0.0
C1831 C 0.71878 0.2292 0.65723 0.0
C1832 C 0.67103 0.21985 0.64895 0.0
H1833 H 0.62699 0.20942 0.52128 0.0
H1834 H 0.65309 0.22706 0.55396 0.0
H1835 H 0.64211 0.20525 0.63697 0.0
H1836 H 0.71611 0.25186 0.72646 0.0
H1837 H 0.69428 0.24714 0.68936 0.0
H1838 H 0.70796 0.23729 0.60466 0.0
C1839 C 0.643 0.21235 0.55783 0.0
C1840 C 0.65644 0.21244 0.62969 0.0
C1841 C 0.62808 0.20231 0.53927 0.0
C1842 C 0.71715 0.24561 0.70723 0.0
C1843 C 0.7046 0.24289 0.68599 0.0
C1844 C 0.69364 0.23051 0.6119 0.0
C1845 C 0.64468 0.20347 0.58139 0.0
C1846 C 0.66025 0.21368 0.60136 0.0
C1847 C 0.70494 0.23419 0.66104 0.0
C1848 C 0.68978 0.22858 0.6403 0.0
H1849 H 0.60678 0.15965 0.57137 0.0
H1850 H 0.6325 0.17717 0.60373 0.0
H1851 H 0.68224 0.22427 0.57079 0.0
H1852 H 0.74138 0.22725 0.67529 0.0
H1853 H 0.71929 0.22232 0.6383 0.0
C1854 C 0.53649 0.17492 0.03234 0.0
C1855 C 0.55483 0.17812 0.03204 0.0
C1856 C 0.53278 0.18839 0.04369 0.0
C1857 C 0.54816 0.22367 0.09725 0.0
H1858 H 0.51352 0.23602 0.0623 0.0
C1859 C 0.5125 0.25752 0.15898 0.0
C1860 C 0.49295 0.24778 0.15517 0.0
C1861 C 0.52391 0.25452 0.14069 0.0
C1862 C 0.52327 0.23278 0.07233 0.0
H1863 H 0.58381 0.19801 0.04265 0.0
H1864 H 0.57717 0.2215 0.06354 0.0
H1865 H 0.52659 0.21998 0.03566 0.0
H1866 H 0.47014 0.2282 0.12845 0.0
H1867 H 0.48979 0.22277 0.09709 0.0
H1868 H 0.54382 0.23521 0.13445 0.0
C1869 C 0.56575 0.20861 0.05468 0.0
C1870 C 0.53078 0.22367 0.05704 0.0
C1871 C 0.56952 0.19523 0.04275 0.0
C1872 C 0.48514 0.23576 0.13211 0.0
C1873 C 0.49647 0.23284 0.11389 0.0
C1874 C 0.54048 0.23262 0.11267 0.0
C1875 C 0.54731 0.20523 0.05531 0.0
C1876 C 0.5427 0.21839 0.06965 0.0
C1877 C 0.51595 0.24188 0.1182 0.0
C1878 C 0.52732 0.23653 0.10064 0.0
H1879 H 0.52498 0.16208 0.02365 0.0
H1880 H 0.51841 0.18538 0.04413 0.0
H1881 H 0.55728 0.21966 0.10745 0.0
H1882 H 0.51891 0.26693 0.17655 0.0
H1883 H 0.5389 0.26179 0.14444 0.0
C1884 C 0.83179 0.38156 0.0271 0.0
C1885 C 0.8279 0.39632 0.02945 0.0
C1886 C 0.81864 0.36337 0.03535 0.0
C1887 C 0.78224 0.33801 0.08425 0.0
H1888 H 0.77074 0.29446 0.038 0.0
C1889 C 0.7445 0.26248 0.12804 0.0
C1890 C 0.75297 0.25184 0.12093 0.0
C1891 C 0.74909 0.27906 0.11388 0.0
C1892 C 0.77382 0.30645 0.05122 0.0
H1893 H 0.80719 0.40373 0.04173 0.0
H1894 H 0.78424 0.37175 0.05727 0.0
H1895 H 0.78783 0.32613 0.0188 0.0
H1896 H 0.77192 0.24954 0.09233 0.0
H1897 H 0.78031 0.27849 0.06836 0.0
H1898 H 0.76943 0.31856 0.11721 0.0
C1899 C 0.79744 0.37434 0.04874 0.0
C1900 C 0.7835 0.32454 0.04015 0.0
C1901 C 0.8105 0.39254 0.03988 0.0
C1902 C 0.76536 0.25757 0.0986 0.0
C1903 C 0.76998 0.27409 0.08456 0.0
C1904 C 0.77276 0.3199 0.09547 0.0
C1905 C 0.80143 0.35962 0.04648 0.0
C1906 C 0.78829 0.3405 0.05679 0.0
C1907 C 0.76219 0.28526 0.09232 0.0
C1908 C 0.76902 0.30396 0.07931 0.0
H1909 H 0.84486 0.38395 0.01849 0.0
H1910 H 0.82209 0.35227 0.03356 0.0
H1911 H 0.78588 0.35013 0.0975 0.0
H1912 H 0.7348 0.25835 0.14507 0.0
H1913 H 0.74265 0.28719 0.12015 0.0
C1914 C 0.58499 0.426 0.02944 0.0
C1915 C 0.58063 0.41508 0.00512 0.0
C1916 C 0.60095 0.43023 0.04476 0.0
C1917 C 0.64787 0.43932 0.03413 0.0
H1918 H 0.65084 0.44293 0.114 0.0
C1919 C 0.70722 0.47223 0.12693 0.0
C1920 C 0.71764 0.49093 0.11763 0.0
C1921 C 0.6908 0.45908 0.11314 0.0
C1922 C 0.65023 0.44172 0.09171 0.0
H1923 H 0.58902 0.39931 0.97833 0.0
H1924 H 0.61728 0.40707 0.00499 0.0
H1925 H 0.62019 0.42548 0.0912 0.0
H1926 H 0.7195 0.51035 0.08612 0.0
H1927 H 0.691 0.48737 0.06191 0.0
H1928 H 0.67784 0.45637 0.03461 0.0
C1929 C 0.60823 0.41223 0.01219 0.0
C1930 C 0.63272 0.43185 0.07869 0.0
C1931 C 0.59206 0.40775 0.99703 0.0
C1932 C 0.7117 0.49606 0.09383 0.0
C1933 C 0.69548 0.48287 0.07984 0.0
C1934 C 0.66536 0.44936 0.04714 0.0
C1935 C 0.613 0.42381 0.0359 0.0
C1936 C 0.63137 0.43103 0.04977 0.0
C1937 C 0.68475 0.46433 0.08955 0.0
C1938 C 0.66665 0.45111 0.07601 0.0
H1939 H 0.57636 0.43174 0.03622 0.0
H1940 H 0.60438 0.43936 0.06278 0.0
H1941 H 0.64724 0.43904 0.01181 0.0
H1942 H 0.71148 0.4679 0.14526 0.0
H1943 H 0.68274 0.44485 0.121 0.0
C1944 C 0.42047 0.79496 0.96501 0.0
C1945 C 0.43453 0.81338 0.97245 0.0
C1946 C 0.425 0.78301 0.95035 0.0
C1947 C 0.46406 0.77566 0.93082 0.0
H1948 H 0.43812 0.75853 0.86059 0.0
C1949 C 0.49769 0.76376 0.83523 0.0
C1950 C 0.48626 0.7516 0.814 0.0
C1951 C 0.48969 0.76622 0.85913 0.0
C1952 C 0.44524 0.76267 0.88036 0.0
H1953 H 0.46445 0.83318 0.97214 0.0
H1954 H 0.47235 0.81243 0.94672 0.0
H1955 H 0.42686 0.77209 0.89502 0.0
H1956 H 0.45766 0.73108 0.80223 0.0
H1957 H 0.44375 0.7348 0.84438 0.0
H1958 H 0.48269 0.76658 0.91602 0.0
C1959 C 0.45783 0.80726 0.95199 0.0
C1960 C 0.43877 0.77052 0.90009 0.0
C1961 C 0.45326 0.81928 0.96621 0.0
C1962 C 0.46681 0.7408 0.81808 0.0
C1963 C 0.45883 0.74302 0.84218 0.0
C1964 C 0.47041 0.76756 0.91122 0.0
C1965 C 0.44372 0.78916 0.94343 0.0
C1966 C 0.4485 0.77768 0.92508 0.0
C1967 C 0.4701 0.75634 0.86251 0.0
C1968 C 0.46148 0.7616 0.88534 0.0
H1969 H 0.4059 0.79002 0.96968 0.0
H1970 H 0.41387 0.76908 0.94402 0.0
H1971 H 0.47167 0.78089 0.95012 0.0
H1972 H 0.51274 0.7723 0.83267 0.0
H1973 H 0.49886 0.77676 0.87412 0.0
C1974 C 0.26067 0.73665 0.90458 0.0
C1975 C 0.27003 0.74303 0.8794 0.0
C1976 C 0.25681 0.71926 0.91501 0.0
C1977 C 0.24736 0.67328 0.8895 0.0
H1978 H 0.24243 0.66188 0.96745 0.0
C1979 C 0.21182 0.60547 0.96864 0.0
C1980 C 0.19393 0.5956 0.95633 0.0
C1981 C 0.22556 0.62282 0.95814 0.0
C1982 C 0.24403 0.66478 0.94558 0.0
H1983 H 0.28392 0.73687 0.84636 0.0
H1984 H 0.27724 0.70644 0.86471 0.0
H1985 H 0.26001 0.69469 0.95284 0.0
H1986 H 0.17684 0.59548 0.92231 0.0
H1987 H 0.2006 0.62574 0.90428 0.0
H1988 H 0.23099 0.6434 0.88226 0.0
C1989 C 0.27267 0.7148 0.87617 0.0
C1990 C 0.25395 0.6836 0.93724 0.0
C1991 C 0.27659 0.73227 0.86577 0.0
C1992 C 0.1904 0.60287 0.93247 0.0
C1993 C 0.20412 0.62013 0.92194 0.0
C1994 C 0.23746 0.65446 0.89784 0.0
C1995 C 0.26224 0.70786 0.90048 0.0
C1996 C 0.25513 0.68807 0.90915 0.0
C1997 C 0.22171 0.63053 0.93502 0.0
C1998 C 0.23511 0.65005 0.926 0.0
H1999 H 0.25566 0.74475 0.91574 0.0
H2000 H 0.24862 0.7143 0.93366 0.0
H2001 H 0.24791 0.67621 0.8677 0.0
H2002 H 0.21499 0.60018 0.987 0.0
H2003 H 0.23905 0.63041 0.96849 0.0
C2004 C 0.38664 0.58578 0.02606 0.0
C2005 C 0.40113 0.58153 0.02452 0.0
C2006 C 0.37353 0.58046 0.00475 0.0
C2007 C 0.34046 0.55277 0.96998 0.0
H2008 H 0.35084 0.55583 0.89161 0.0
C2009 C 0.28579 0.5038 0.89079 0.0
C2010 C 0.28277 0.51216 0.86772 0.0
C2011 C 0.30094 0.51441 0.90844 0.0
C2012 C 0.34779 0.55506 0.91344 0.0
H2013 H 0.41383 0.56935 0.99849 0.0
H2014 H 0.39076 0.55996 0.96125 0.0
H2015 H 0.37689 0.57158 0.92481 0.0
H2016 H 0.29343 0.53809 0.84472 0.0
H2017 H 0.32034 0.5567 0.87567 0.0
H2018 H 0.31149 0.53589 0.95882 0.0
C2019 C 0.38966 0.56748 0.97901 0.0
C2020 C 0.36265 0.56393 0.93238 0.0
C2021 C 0.4028 0.57276 0.00042 0.0
C2022 C 0.29541 0.53133 0.86242 0.0
C2023 C 0.3108 0.54192 0.87998 0.0
C2024 C 0.3257 0.54378 0.95115 0.0
C2025 C 0.3746 0.57081 0.98135 0.0
C2026 C 0.3591 0.56271 0.96085 0.0
C2027 C 0.31354 0.53356 0.9033 0.0
C2028 C 0.32923 0.54461 0.92275 0.0
H2029 H 0.38502 0.59272 0.04412 0.0
H2030 H 0.36223 0.58347 0.0069 0.0
H2031 H 0.33728 0.5514 0.99179 0.0
H2032 H 0.27629 0.48909 0.89549 0.0
H2033 H 0.30285 0.50759 0.92614 0.0
C2034 C 0.18048 0.58896 0.50105 0.0
C2035 C 0.1616 0.58166 0.49357 0.0
C2036 C 0.19211 0.58505 0.48475 0.0
C2037 C 0.20432 0.55841 0.46031 0.0
H2038 H 0.20331 0.55652 0.38032 0.0
C2039 C 0.21141 0.50308 0.397 0.0
C2040 C 0.22329 0.50905 0.37405 0.0
C2041 C 0.20783 0.51575 0.41137 0.0
C2042 C 0.20398 0.55724 0.40264 0.0
H2043 H 0.14043 0.56576 0.46236 0.0
H2044 H 0.16074 0.55909 0.43385 0.0
H2045 H 0.19031 0.57357 0.4049 0.0
H2046 H 0.24073 0.53292 0.34805 0.0
H2047 H 0.23399 0.55505 0.37293 0.0
H2048 H 0.21708 0.54125 0.4581 0.0
C2049 C 0.16656 0.56777 0.45226 0.0
C2050 C 0.19648 0.5669 0.41666 0.0
C2051 C 0.1549 0.57144 0.4687 0.0
C2052 C 0.23153 0.52796 0.36571 0.0
C2053 C 0.22769 0.54059 0.37986 0.0
C2054 C 0.2116 0.54858 0.44631 0.0
C2055 C 0.18511 0.57405 0.46053 0.0
C2056 C 0.19612 0.56711 0.44563 0.0
C2057 C 0.21584 0.53457 0.40286 0.0
C2058 C 0.21099 0.54746 0.4174 0.0
H2059 H 0.186 0.59689 0.52014 0.0
H2060 H 0.20638 0.59009 0.4915 0.0
H2061 H 0.20408 0.5582 0.48264 0.0
H2062 H 0.20493 0.48862 0.40396 0.0
H2063 H 0.19844 0.5107 0.42882 0.0
C2064 C 0.41097 0.60029 0.45732 0.0
C2065 C 0.42501 0.59615 0.46441 0.0
C2066 C 0.41578 0.61869 0.44997 0.0
C2067 C 0.45091 0.66757 0.46206 0.0
H2068 H 0.44344 0.67859 0.38719 0.0
C2069 C 0.4998 0.73836 0.4126 0.0
C2070 C 0.49334 0.74523 0.39148 0.0
C2071 C 0.48779 0.72103 0.4247 0.0
C2072 C 0.44523 0.67582 0.40841 0.0
H2073 H 0.45489 0.60813 0.47052 0.0
H2074 H 0.46321 0.64006 0.45811 0.0
H2075 H 0.42857 0.64577 0.40207 0.0
H2076 H 0.46887 0.73998 0.36775 0.0
H2077 H 0.4477 0.70979 0.38936 0.0
H2078 H 0.46776 0.69743 0.46854 0.0
C2079 C 0.44857 0.62905 0.4577 0.0
C2080 C 0.43675 0.65702 0.41683 0.0
C2081 C 0.44382 0.61069 0.46439 0.0
C2082 C 0.47429 0.73497 0.38387 0.0
C2083 C 0.4622 0.71761 0.3961 0.0
C2084 C 0.45913 0.68634 0.45383 0.0
C2085 C 0.43462 0.63322 0.4505 0.0
C2086 C 0.44015 0.65279 0.44337 0.0
C2087 C 0.46894 0.71022 0.41618 0.0
C2088 C 0.45707 0.69068 0.42655 0.0
H2089 H 0.39634 0.58931 0.45742 0.0
H2090 H 0.40482 0.62165 0.44443 0.0
H2091 H 0.45354 0.66457 0.48275 0.0
H2092 H 0.51431 0.74607 0.41927 0.0
H2093 H 0.49359 0.71575 0.43984 0.0
C2094 C 0.37877 0.83 0.43504 0.0
C2095 C 0.38389 0.82413 0.4589 0.0
C2096 C 0.36362 0.81711 0.419 0.0
C2097 C 0.31891 0.7738 0.42291 0.0
H2098 H 0.32118 0.77954 0.34348 0.0
C2099 C 0.25378 0.74214 0.34829 0.0
C2100 C 0.25326 0.75713 0.33533 0.0
C2101 C 0.26993 0.74544 0.36262 0.0
C2102 C 0.3204 0.77752 0.36558 0.0
H2103 H 0.37731 0.8001 0.48461 0.0
H2104 H 0.35034 0.7774 0.45649 0.0
H2105 H 0.35014 0.79421 0.37057 0.0
H2106 H 0.26938 0.78691 0.3258 0.0
H2107 H 0.29742 0.79261 0.35028 0.0
H2108 H 0.28899 0.75788 0.41781 0.0
C2109 C 0.35824 0.79203 0.45027 0.0
C2110 C 0.33691 0.78595 0.38108 0.0
C2111 C 0.37364 0.80499 0.46628 0.0
C2112 C 0.26919 0.77523 0.33617 0.0
C2113 C 0.28535 0.77843 0.34985 0.0
C2114 C 0.30233 0.76523 0.4073 0.0
C2115 C 0.35313 0.79802 0.42645 0.0
C2116 C 0.33627 0.78502 0.40999 0.0
C2117 C 0.28585 0.76362 0.36329 0.0
C2118 C 0.30296 0.76785 0.37869 0.0
H2119 H 0.38644 0.84462 0.42871 0.0
H2120 H 0.35981 0.82224 0.40107 0.0
H2121 H 0.31802 0.77289 0.44517 0.0
H2122 H 0.24163 0.72802 0.34774 0.0
H2123 H 0.27005 0.73385 0.37294 0.0
C2124 C 0.25139 0.13778 0.16509 0.0
C2125 C 0.24617 0.1221 0.14751 0.0
C2126 C 0.2683 0.14592 0.17981 0.0
C2127 C 0.30658 0.13799 0.20285 0.0
H2128 H 0.33772 0.19231 0.19537 0.0
C2129 C 0.38674 0.17673 0.20601 0.0
C2130 C 0.39704 0.19569 0.21503 0.0
C2131 C 0.3672 0.16706 0.20567 0.0
C2132 C 0.32912 0.17721 0.19832 0.0
H2133 H 0.25424 0.10217 0.13254 0.0
H2134 H 0.28378 0.11644 0.15813 0.0
H2135 H 0.30531 0.17645 0.17955 0.0
H2136 H 0.39479 0.21889 0.23279 0.0
H2137 H 0.3605 0.20186 0.23247 0.0
H2138 H 0.33058 0.13871 0.22092 0.0
C2139 C 0.27475 0.12238 0.16066 0.0
C2140 C 0.31051 0.16809 0.18915 0.0
C2141 C 0.25787 0.11427 0.14584 0.0
C2142 C 0.38729 0.20433 0.22559 0.0
C2143 C 0.36765 0.19462 0.22519 0.0
C2144 C 0.32518 0.14713 0.21216 0.0
C2145 C 0.28032 0.13851 0.17741 0.0
C2146 C 0.29919 0.14832 0.1906 0.0
C2147 C 0.35739 0.17607 0.21439 0.0
C2148 C 0.33684 0.16678 0.20925 0.0
H2149 H 0.24265 0.14409 0.16701 0.0
H2150 H 0.2721 0.15821 0.19279 0.0
H2151 H 0.2981 0.12278 0.20469 0.0
H2152 H 0.39378 0.16956 0.19796 0.0
H2153 H 0.35984 0.15287 0.19699 0.0
C2154 C 0.79145 0.18207 0.1871 0.0
C2155 C 0.79775 0.19702 0.16838 0.0
C2156 C 0.80199 0.1733 0.19187 0.0
C2157 C 0.85015 0.18145 0.1846 0.0
H2158 H 0.82605 0.12686 0.18835 0.0
C2159 C 0.89125 0.14185 0.17585 0.0
C2160 C 0.88605 0.1265 0.19347 0.0
C2161 C 0.88052 0.15065 0.17449 0.0
C2162 C 0.83297 0.14214 0.18768 0.0
H2163 H 0.81996 0.21419 0.13965 0.0
H2164 H 0.83799 0.19884 0.1477 0.0
H2165 H 0.80691 0.14164 0.18331 0.0
H2166 H 0.86556 0.10855 0.22375 0.0
H2167 H 0.84701 0.12398 0.22141 0.0
H2168 H 0.8762 0.18196 0.1886 0.0
C2169 C 0.82515 0.19411 0.15913 0.0
C2170 C 0.822 0.15059 0.18484 0.0
C2171 C 0.81468 0.20283 0.15439 0.0
C2172 C 0.86999 0.1203 0.20988 0.0
C2173 C 0.85925 0.12906 0.20845 0.0
C2174 C 0.8611 0.173 0.18737 0.0
C2175 C 0.81903 0.17934 0.17804 0.0
C2176 C 0.83049 0.17033 0.18294 0.0
C2177 C 0.86433 0.14426 0.19065 0.0
C2178 C 0.85265 0.15325 0.18867 0.0
H2179 H 0.77849 0.17727 0.19825 0.0
H2180 H 0.79697 0.16201 0.20669 0.0
H2181 H 0.8571 0.19672 0.18373 0.0
H2182 H 0.9035 0.14697 0.16289 0.0
H2183 H 0.88468 0.16222 0.16036 0.0
C2184 C 0.79434 0.60181 0.1708 0.0
C2185 C 0.77681 0.5938 0.15745 0.0
C2186 C 0.80636 0.62138 0.17144 0.0
C2187 C 0.80843 0.66709 0.16334 0.0
H2188 H 0.86075 0.6851 0.14747 0.0
C2189 C 0.86375 0.74671 0.15091 0.0
C2190 C 0.88117 0.75286 0.16386 0.0
C2191 C 0.85042 0.7274 0.149 0.0
C2192 C 0.84622 0.68031 0.15217 0.0
H2193 H 0.75794 0.60022 0.13514 0.0
H2194 H 0.779 0.6344 0.13627 0.0
H2195 H 0.83845 0.65127 0.14745 0.0
H2196 H 0.89812 0.74342 0.18504 0.0
H2197 H 0.87496 0.71006 0.18194 0.0
H2198 H 0.81632 0.69623 0.1683 0.0
C2199 C 0.78338 0.62549 0.14628 0.0
C2200 C 0.83345 0.66093 0.15219 0.0
C2201 C 0.77135 0.60589 0.14555 0.0
C2202 C 0.88493 0.73927 0.17479 0.0
C2203 C 0.87166 0.72007 0.17287 0.0
C2204 C 0.82125 0.68655 0.16338 0.0
C2205 C 0.80113 0.63341 0.15883 0.0
C2206 C 0.81446 0.65408 0.1581 0.0
C2207 C 0.85428 0.71388 0.15992 0.0
C2208 C 0.84033 0.69335 0.15813 0.0
H2209 H 0.79898 0.59298 0.18035 0.0
H2210 H 0.81983 0.62709 0.18171 0.0
H2211 H 0.79389 0.66222 0.16809 0.0
H2212 H 0.86039 0.75679 0.14227 0.0
H2213 H 0.83718 0.72304 0.13872 0.0
C2214 C 0.19821 0.39955 0.32563 0.0
C2215 C 0.18737 0.407 0.33611 0.0
C2216 C 0.19136 0.38008 0.3259 0.0
C2217 C 0.14797 0.33359 0.33176 0.0
H2218 H 0.18223 0.31712 0.35547 0.0
C2219 C 0.12393 0.25494 0.35235 0.0
C2220 C 0.13567 0.24851 0.34198 0.0
C2221 C 0.12981 0.27425 0.35237 0.0
C2222 C 0.17252 0.32148 0.34858 0.0
H2223 H 0.16054 0.39967 0.35433 0.0
H2224 H 0.14873 0.3658 0.35489 0.0
H2225 H 0.19322 0.35079 0.35265 0.0
H2226 H 0.16286 0.25745 0.32369 0.0
H2227 H 0.1729 0.29082 0.32357 0.0
H2228 H 0.12728 0.30421 0.32763 0.0
C2229 C 0.16247 0.375 0.34633 0.0
C2230 C 0.17884 0.34077 0.3469 0.0
C2231 C 0.16931 0.39446 0.34612 0.0
C2232 C 0.15343 0.26183 0.33191 0.0
C2233 C 0.15928 0.28104 0.33198 0.0
C2234 C 0.14164 0.31425 0.33343 0.0
C2235 C 0.17351 0.36762 0.33658 0.0
C2236 C 0.16668 0.34706 0.3383 0.0
C2237 C 0.14755 0.2875 0.34215 0.0
C2238 C 0.1539 0.30799 0.34167 0.0
H2239 H 0.21213 0.40876 0.31765 0.0
H2240 H 0.20009 0.37478 0.31782 0.0
H2241 H 0.1383 0.33798 0.32485 0.0
H2242 H 0.11017 0.24508 0.36026 0.0
H2243 H 0.12052 0.27882 0.36057 0.0
C2244 C 0.60452 0.79614 0.35926 0.0
C2245 C 0.59313 0.80133 0.34463 0.0
C2246 C 0.62372 0.80506 0.35449 0.0
C2247 C 0.65951 0.83169 0.30276 0.0
H2248 H 0.69357 0.84371 0.36473 0.0
C2249 C 0.7402 0.87182 0.2913 0.0
C2250 C 0.75028 0.86563 0.30721 0.0
C2251 C 0.721 0.86435 0.29526 0.0
C2252 C 0.68423 0.84025 0.34719 0.0
H2253 H 0.59315 0.82015 0.31352 0.0
H2254 H 0.62696 0.83588 0.3052 0.0
H2255 H 0.66027 0.831 0.37303 0.0
H2256 H 0.74791 0.84637 0.33938 0.0
H2257 H 0.71434 0.83318 0.34608 0.0
H2258 H 0.68351 0.84083 0.27691 0.0
C2259 C 0.62083 0.82475 0.32028 0.0
C2260 C 0.66516 0.83302 0.35194 0.0
C2261 C 0.60151 0.81582 0.32515 0.0
C2262 C 0.74062 0.85151 0.32683 0.0
C2263 C 0.7214 0.84405 0.33081 0.0
C2264 C 0.67862 0.83893 0.29799 0.0
C2265 C 0.63212 0.81944 0.33495 0.0
C2266 C 0.65255 0.82846 0.32978 0.0
C2267 C 0.71142 0.85051 0.31523 0.0
C2268 C 0.69116 0.8431 0.32016 0.0
H2269 H 0.59862 0.78504 0.37442 0.0
H2270 H 0.63195 0.80042 0.36581 0.0
H2271 H 0.65011 0.8281 0.28526 0.0
H2272 H 0.74715 0.88268 0.27599 0.0
H2273 H 0.71377 0.86975 0.28312 0.0
C2274 C 0.1788 0.79192 0.27956 0.0
C2275 C 0.19767 0.80166 0.28817 0.0
C2276 C 0.16826 0.80101 0.27991 0.0
C2277 C 0.17224 0.84838 0.28801 0.0
H2278 H 0.12477 0.82016 0.32575 0.0
C2279 C 0.13976 0.88325 0.35397 0.0
C2280 C 0.12016 0.87502 0.3543 0.0
C2281 C 0.14809 0.87481 0.3389 0.0
C2282 C 0.13781 0.82816 0.3147 0.0
H2283 H 0.22058 0.82892 0.30198 0.0
H2284 H 0.20231 0.84451 0.30289 0.0
H2285 H 0.14131 0.8041 0.31071 0.0
H2286 H 0.094 0.85196 0.33792 0.0
H2287 H 0.10858 0.83723 0.31173 0.0
H2288 H 0.16909 0.87265 0.29328 0.0
C2289 C 0.19557 0.82996 0.29572 0.0
C2290 C 0.14729 0.81893 0.30599 0.0
C2291 C 0.20603 0.82091 0.29546 0.0
C2292 C 0.10914 0.85861 0.33828 0.0
C2293 C 0.11747 0.85012 0.32334 0.0
C2294 C 0.1628 0.85763 0.29686 0.0
C2295 C 0.17643 0.82001 0.28867 0.0
C2296 C 0.16489 0.82905 0.29328 0.0
C2297 C 0.13701 0.85792 0.32392 0.0
C2298 C 0.14574 0.84772 0.31097 0.0
H2299 H 0.17195 0.7771 0.27373 0.0
H2300 H 0.15359 0.79302 0.27402 0.0
H2301 H 0.1856 0.85651 0.2778 0.0
H2302 H 0.14865 0.89591 0.36602 0.0
H2303 H 0.16318 0.88107 0.34 0.0
C2304 C 0.71621 0.86608 0.88783 0.0
C2305 C 0.72845 0.85898 0.89011 0.0
C2306 C 0.69697 0.85367 0.88393 0.0
C2307 C 0.65555 0.82438 0.87727 0.0
H2308 H 0.64828 0.78504 0.82493 0.0
C2309 C 0.58498 0.778 0.81952 0.0
C2310 C 0.58678 0.77625 0.79095 0.0
C2311 C 0.60071 0.78528 0.8369 0.0
C2312 C 0.65003 0.79592 0.83956 0.0
H2313 H 0.7302 0.83358 0.89342 0.0
H2314 H 0.69659 0.81192 0.88822 0.0
H2315 H 0.67827 0.80349 0.84803 0.0
H2316 H 0.60638 0.78013 0.75841 0.0
H2317 H 0.63367 0.79287 0.7885 0.0
H2318 H 0.62752 0.81747 0.86713 0.0
C2319 C 0.70178 0.82699 0.88815 0.0
C2320 C 0.6672 0.80636 0.85321 0.0
C2321 C 0.721 0.83937 0.89144 0.0
C2322 C 0.60448 0.78128 0.7803 0.0
C2323 C 0.62014 0.78849 0.79763 0.0
C2324 C 0.63834 0.81395 0.86343 0.0
C2325 C 0.68966 0.83397 0.88267 0.0
C2326 C 0.67038 0.82107 0.87176 0.0
C2327 C 0.61852 0.79083 0.82608 0.0
C2328 C 0.6356 0.79997 0.84381 0.0
H2329 H 0.72167 0.88117 0.88653 0.0
H2330 H 0.68813 0.85962 0.8797 0.0
H2331 H 0.6574 0.83542 0.89165 0.0
H2332 H 0.57152 0.77423 0.82838 0.0
H2333 H 0.59897 0.78674 0.85876 0.0
C2334 C 0.20015 0.78627 0.87085 0.0
C2335 C 0.2159 0.79245 0.85375 0.0
C2336 C 0.18803 0.79334 0.86776 0.0
C2337 C 0.17285 0.81605 0.81709 0.0
H2338 H 0.15421 0.83022 0.88101 0.0
C2339 C 0.13929 0.86232 0.80953 0.0
C2340 C 0.1241 0.8586 0.82665 0.0
C2341 C 0.14866 0.85228 0.81234 0.0
C2342 C 0.15902 0.82601 0.86298 0.0
H2343 H 0.23135 0.81119 0.82024 0.0
H2344 H 0.21023 0.82364 0.81502 0.0
H2345 H 0.17485 0.81727 0.88737 0.0
H2346 H 0.1065 0.84097 0.8597 0.0
H2347 H 0.12296 0.82327 0.86456 0.0
H2348 H 0.15721 0.82495 0.79268 0.0
C2349 C 0.20718 0.81312 0.83059 0.0
C2350 C 0.1709 0.81867 0.86662 0.0
C2351 C 0.21937 0.80609 0.83374 0.0
C2352 C 0.11816 0.84418 0.8462 0.0
C2353 C 0.12764 0.83414 0.84911 0.0
C2354 C 0.16096 0.82335 0.81346 0.0
C2355 C 0.19131 0.80672 0.84744 0.0
C2356 C 0.17815 0.81386 0.84369 0.0
C2357 C 0.14312 0.83824 0.83236 0.0
C2358 C 0.15415 0.82868 0.83634 0.0
H2359 H 0.19702 0.77577 0.88649 0.0
H2360 H 0.17584 0.78802 0.8809 0.0
H2361 H 0.17789 0.8121 0.79905 0.0
H2362 H 0.14423 0.87327 0.79416 0.0
H2363 H 0.16067 0.85597 0.79937 0.0
C2364 C 0.1954 0.40759 0.80915 0.0
C2365 C 0.21337 0.41379 0.82011 0.0
C2366 C 0.18195 0.3883 0.80823 0.0
C2367 C 0.17669 0.34069 0.81195 0.0
H2368 H 0.12635 0.32518 0.83663 0.0
C2369 C 0.12383 0.26335 0.83809 0.0
C2370 C 0.10551 0.2559 0.82773 0.0
C2371 C 0.13663 0.28275 0.83705 0.0
C2372 C 0.1403 0.3293 0.82944 0.0
H2373 H 0.23143 0.40446 0.83793 0.0
H2374 H 0.20808 0.37109 0.83651 0.0
H2375 H 0.14942 0.35879 0.83293 0.0
H2376 H 0.08611 0.26318 0.80903 0.0
H2377 H 0.10846 0.29695 0.80721 0.0
H2378 H 0.16765 0.31124 0.8087 0.0
C2379 C 0.20437 0.38104 0.82841 0.0
C2380 C 0.15349 0.34854 0.82722 0.0
C2381 C 0.21774 0.40024 0.82939 0.0
C2382 C 0.10012 0.2684 0.81715 0.0
C2383 C 0.1129 0.28779 0.8162 0.0
C2384 C 0.16353 0.32148 0.81422 0.0
C2385 C 0.18626 0.37484 0.81812 0.0
C2386 C 0.17188 0.35444 0.81868 0.0
C2387 C 0.13137 0.29514 0.82575 0.0
C2388 C 0.14524 0.31558 0.82321 0.0
H2389 H 0.19157 0.41764 0.8018 0.0
H2390 H 0.16817 0.38392 0.79989 0.0
H2391 H 0.19065 0.34478 0.80487 0.0
H2392 H 0.12845 0.25416 0.84647 0.0
H2393 H 0.1507 0.28805 0.84499 0.0
C2394 C 0.85587 0.73076 0.66098 0.0
C2395 C 0.84488 0.73793 0.67185 0.0
C2396 C 0.84955 0.71142 0.66173 0.0
C2397 C 0.80723 0.66442 0.66958 0.0
H2398 H 0.84321 0.64979 0.69171 0.0
C2399 C 0.78618 0.5865 0.68961 0.0
C2400 C 0.79822 0.58065 0.6786 0.0
C2401 C 0.79144 0.60565 0.68988 0.0
C2402 C 0.83303 0.65363 0.68527 0.0
H2403 H 0.81831 0.7302 0.69129 0.0
H2404 H 0.80737 0.69648 0.69266 0.0
H2405 H 0.85302 0.68317 0.6888 0.0
H2406 H 0.82533 0.59045 0.65949 0.0
H2407 H 0.83432 0.62358 0.6598 0.0
H2408 H 0.78726 0.6348 0.6659 0.0
C2409 C 0.82084 0.70584 0.68345 0.0
C2410 C 0.83866 0.67276 0.68355 0.0
C2411 C 0.82717 0.7252 0.68275 0.0
C2412 C 0.81569 0.59439 0.6682 0.0
C2413 C 0.82093 0.61346 0.66851 0.0
C2414 C 0.80159 0.64524 0.67127 0.0
C2415 C 0.83208 0.69878 0.67331 0.0
C2416 C 0.82588 0.67838 0.67546 0.0
C2417 C 0.80886 0.61932 0.67926 0.0
C2418 C 0.81448 0.63964 0.6789 0.0
H2419 H 0.86953 0.74011 0.65229 0.0
H2420 H 0.85839 0.70636 0.65331 0.0
H2421 H 0.7971 0.66831 0.66308 0.0
H2422 H 0.77263 0.57631 0.6978 0.0
H2423 H 0.78192 0.60977 0.69855 0.0
C2424 C 0.27497 0.15068 0.66153 0.0
C2425 C 0.26651 0.13547 0.67987 0.0
C2426 C 0.29439 0.16021 0.65749 0.0
C2427 C 0.33433 0.15231 0.66349 0.0
H2428 H 0.36496 0.20675 0.65725 0.0
C2429 C 0.41504 0.19058 0.66238 0.0
C2430 C 0.42446 0.20574 0.6442 0.0
C2431 C 0.39572 0.18227 0.66627 0.0
C2432 C 0.35654 0.1915 0.65862 0.0
H2433 H 0.272 0.1191 0.70945 0.0
H2434 H 0.30566 0.13579 0.7026 0.0
H2435 H 0.33131 0.19233 0.66537 0.0
H2436 H 0.42081 0.22385 0.61555 0.0
H2437 H 0.38713 0.20917 0.62211 0.0
H2438 H 0.35943 0.15139 0.65669 0.0
C2439 C 0.29729 0.14007 0.69087 0.0
C2440 C 0.33729 0.18327 0.6633 0.0
C2441 C 0.27797 0.13057 0.69489 0.0
C2442 C 0.41405 0.21224 0.62979 0.0
C2443 C 0.39474 0.20392 0.63368 0.0
C2444 C 0.35352 0.16051 0.65879 0.0
C2445 C 0.30567 0.1547 0.6717 0.0
C2446 C 0.32602 0.16359 0.66601 0.0
C2447 C 0.38537 0.1889 0.65206 0.0
C2448 C 0.36488 0.18021 0.65648 0.0
H2449 H 0.26654 0.1548 0.64963 0.0
H2450 H 0.30047 0.17142 0.64253 0.0
H2451 H 0.32594 0.13706 0.66492 0.0
H2452 H 0.42261 0.18527 0.67391 0.0
H2453 H 0.38895 0.17086 0.68083 0.0
C2454 C 0.8441 0.12469 0.59898 0.0
C2455 C 0.86366 0.13346 0.60185 0.0
C2456 C 0.83529 0.13549 0.60052 0.0
C2457 C 0.84438 0.17974 0.63392 0.0
H2458 H 0.79724 0.16845 0.60021 0.0
C2459 C 0.80704 0.21845 0.67141 0.0
C2460 C 0.78789 0.20674 0.67706 0.0
C2461 C 0.81654 0.21176 0.65524 0.0
C2462 C 0.81041 0.17176 0.6098 0.0
H2463 H 0.88949 0.16042 0.60546 0.0
H2464 H 0.87425 0.17925 0.6071 0.0
H2465 H 0.81356 0.15232 0.58343 0.0
H2466 H 0.76341 0.17926 0.66859 0.0
H2467 H 0.78004 0.16746 0.64103 0.0
H2468 H 0.84105 0.19853 0.66095 0.0
C2469 C 0.8656 0.16404 0.60472 0.0
C2470 C 0.81975 0.16253 0.60019 0.0
C2471 C 0.87435 0.15328 0.6036 0.0
C2472 C 0.77819 0.18864 0.66474 0.0
C2473 C 0.78772 0.18189 0.64875 0.0
C2474 C 0.83509 0.1889 0.6435 0.0
C2475 C 0.84594 0.15522 0.60464 0.0
C2476 C 0.83674 0.16624 0.61241 0.0
C2477 C 0.80715 0.19315 0.64457 0.0
C2478 C 0.81785 0.18486 0.63189 0.0
H2479 H 0.83554 0.10943 0.59772 0.0
H2480 H 0.82011 0.12822 0.60043 0.0
H2481 H 0.85719 0.18265 0.64433 0.0
H2482 H 0.81488 0.23256 0.68028 0.0
H2483 H 0.83142 0.22097 0.6519 0.0
C2484 C 0.05421 0.538 0.56004 0.0
C2485 C 0.06397 0.52996 0.54755 0.0
C2486 C 0.03455 0.52825 0.55974 0.0
C2487 C 0.99215 0.48138 0.54252 0.0
H2488 H 0.9721 0.51238 0.5171 0.0
C2489 C 0.9259 0.45354 0.47449 0.0
C2490 C 0.91434 0.4614 0.47811 0.0
C2491 C 0.94226 0.46011 0.49027 0.0
C2492 C 0.97734 0.50352 0.52471 0.0
H2493 H 0.0607 0.50477 0.52695 0.0
H2494 H 0.02681 0.48813 0.52599 0.0
H2495 H 0.00445 0.52741 0.53288 0.0
H2496 H 0.91026 0.48145 0.50243 0.0
H2497 H 0.93877 0.49288 0.52983 0.0
H2498 H 0.96518 0.45743 0.53285 0.0
C2499 C 0.03414 0.50182 0.53621 0.0
C2500 C 0.99592 0.51216 0.53387 0.0
C2501 C 0.05368 0.51151 0.53652 0.0
C2502 C 0.91894 0.47521 0.49889 0.0
C2503 C 0.93531 0.48182 0.51456 0.0
C2504 C 0.97358 0.47273 0.53315 0.0
C2505 C 0.02431 0.51028 0.54703 0.0
C2506 C 0.00373 0.50119 0.54215 0.0
C2507 C 0.94741 0.47471 0.50992 0.0
C2508 C 0.96613 0.4837 0.52349 0.0
H2509 H 0.0617 0.55214 0.56887 0.0
H2510 H 0.0274 0.53506 0.56867 0.0
H2511 H 0.9976 0.47251 0.54925 0.0
H2512 H 0.92273 0.44284 0.45873 0.0
H2513 H 0.95137 0.45444 0.48606 0.0
C2514 C 0.47612 0.53298 0.4717 0.0
C2515 C 0.46044 0.52861 0.48811 0.0
C2516 C 0.48552 0.52294 0.47428 0.0
C2517 C 0.49477 0.49522 0.52368 0.0
H2518 H 0.51459 0.48261 0.45956 0.0
C2519 C 0.53446 0.45408 0.5308 0.0
C2520 C 0.55034 0.46011 0.51404 0.0
C2521 C 0.5228 0.46169 0.52779 0.0
C2522 C 0.50931 0.48622 0.47768 0.0
H2523 H 0.44205 0.50989 0.51964 0.0
H2524 H 0.45857 0.49223 0.52412 0.0
H2525 H 0.49439 0.49604 0.4534 0.0
H2526 H 0.56655 0.47919 0.48127 0.0
H2527 H 0.54627 0.49265 0.47626 0.0
H2528 H 0.50988 0.4856 0.54797 0.0
C2529 C 0.4636 0.50358 0.5094 0.0
C2530 C 0.49768 0.49383 0.47415 0.0
C2531 C 0.45408 0.5136 0.50671 0.0
C2532 C 0.55444 0.47419 0.49449 0.0
C2533 C 0.54273 0.4818 0.49146 0.0
C2534 C 0.50641 0.48759 0.52722 0.0
C2535 C 0.47952 0.50829 0.49336 0.0
C2536 C 0.49047 0.49863 0.49711 0.0
C2537 C 0.5267 0.47552 0.50794 0.0
C2538 C 0.51398 0.4832 0.50425 0.0
H2539 H 0.4814 0.5444 0.45707 0.0
H2540 H 0.49787 0.52708 0.46187 0.0
H2541 H 0.48964 0.49901 0.54178 0.0
H2542 H 0.53084 0.44324 0.54607 0.0
H2543 H 0.51047 0.45642 0.54062 0.0
C2544 C 0.53081 0.07953 0.47765 0.0
C2545 C 0.54855 0.08583 0.48959 0.0
C2546 C 0.5177 0.06017 0.47562 0.0
C2547 C 0.51347 0.01292 0.4783 0.0
H2548 H 0.46241 0.9958 0.50105 0.0
C2549 C 0.4625 0.93541 0.5053 0.0
C2550 C 0.44423 0.92711 0.4944 0.0
C2551 C 0.4747 0.95491 0.50378 0.0
C2552 C 0.47656 0.00038 0.49438 0.0
H2553 H 0.56656 0.07662 0.50796 0.0
H2554 H 0.54379 0.04316 0.50463 0.0
H2555 H 0.48482 0.02966 0.49807 0.0
H2556 H 0.42427 0.93298 0.47418 0.0
H2557 H 0.4456 0.96699 0.4716 0.0
H2558 H 0.50533 0.9837 0.47505 0.0
C2559 C 0.54001 0.05308 0.4966 0.0
C2560 C 0.48938 0.01976 0.49256 0.0
C2561 C 0.55304 0.07234 0.49868 0.0
C2562 C 0.43826 0.93886 0.48274 0.0
C2563 C 0.45045 0.95838 0.48133 0.0
C2564 C 0.5007 0.99359 0.48021 0.0
C2565 C 0.52212 0.04675 0.48533 0.0
C2566 C 0.50804 0.02624 0.48486 0.0
C2567 C 0.46888 0.96656 0.49145 0.0
C2568 C 0.48219 0.98711 0.48861 0.0
H2569 H 0.52691 0.08954 0.47042 0.0
H2570 H 0.50408 0.0557 0.46657 0.0
H2571 H 0.52765 0.01745 0.47183 0.0
H2572 H 0.46757 0.92682 0.51452 0.0
H2573 H 0.48874 0.96087 0.51218 0.0
C2574 C 0.52818 0.06611 0.99491 0.0
C2575 C 0.51738 0.07389 0.00433 0.0
C2576 C 0.52111 0.04663 0.99578 0.0
C2577 C 0.47725 0.00061 0.00053 0.0
H2578 H 0.51054 0.98327 0.0256 0.0
C2579 C 0.45186 0.92146 0.01853 0.0
C2580 C 0.46361 0.915 0.00831 0.0
C2581 C 0.45802 0.94082 0.01945 0.0
C2582 C 0.5011 0.98788 0.01835 0.0
H2583 H 0.49044 0.06712 0.02151 0.0
H2584 H 0.47819 0.03316 0.02312 0.0
H2585 H 0.52196 0.01706 0.02346 0.0
H2586 H 0.49115 0.92394 0.99135 0.0
H2587 H 0.50171 0.95746 0.99278 0.0
H2588 H 0.45642 0.97137 0.99525 0.0
C2589 C 0.49209 0.04215 0.0149 0.0
C2590 C 0.50766 0.00724 0.01707 0.0
C2591 C 0.49917 0.06165 0.01408 0.0
C2592 C 0.4817 0.92835 0.9994 0.0
C2593 C 0.48783 0.94763 0.00037 0.0
C2594 C 0.47068 0.98121 0.00179 0.0
C2595 C 0.50306 0.03445 0.00604 0.0
C2596 C 0.49587 0.01383 0.00791 0.0
C2597 C 0.47606 0.9541 0.01028 0.0
C2598 C 0.4826 0.97464 0.01047 0.0
H2599 H 0.54222 0.07508 0.98716 0.0
H2600 H 0.52979 0.04108 0.98837 0.0
H2601 H 0.46787 0.00525 0.99315 0.0
H2602 H 0.43785 0.91157 0.02558 0.0
H2603 H 0.44868 0.9454 0.02745 0.0
C2604 C 0.94255 0.46004 0.02236 0.0
C2605 C 0.93102 0.46552 0.00883 0.0
C2606 C 0.962 0.4708 0.02028 0.0
C2607 C 0.99912 0.50446 0.97523 0.0
H2608 H 0.0311 0.51173 0.03826 0.0
C2609 C 0.07999 0.54869 0.97014 0.0
C2610 C 0.09012 0.54156 0.98382 0.0
C2611 C 0.06063 0.54027 0.97342 0.0
C2612 C 0.02236 0.50966 0.0204 0.0
H2613 H 0.93099 0.48693 0.98293 0.0
H2614 H 0.96516 0.50583 0.97933 0.0
H2615 H 0.99725 0.49632 0.04427 0.0
H2616 H 0.08766 0.51979 0.01146 0.0
H2617 H 0.05382 0.50496 0.01689 0.0
H2618 H 0.02421 0.51757 0.95129 0.0
C2619 C 0.959 0.49305 0.99139 0.0
C2620 C 0.00298 0.50089 0.02387 0.0
C2621 C 0.93946 0.4823 0.99359 0.0
C2622 C 0.08035 0.52568 0.00066 0.0
C2623 C 0.06096 0.51726 0.00394 0.0
C2624 C 0.01852 0.51322 0.97176 0.0
C2625 C 0.97046 0.48732 0.00457 0.0
C2626 C 0.99113 0.498 0.00126 0.0
C2627 C 0.0509 0.52452 0.99047 0.0
C2628 C 0.03034 0.51573 0.99426 0.0
H2629 H 0.93656 0.44723 0.03434 0.0
H2630 H 0.9704 0.46586 0.03039 0.0
H2631 H 0.99034 0.50221 0.95735 0.0
H2632 H 0.08704 0.56093 0.95707 0.0
H2633 H 0.05333 0.54633 0.963 0.0
C2634 C 0.54099 0.48367 0.96137 0.0
C2635 C 0.53268 0.46501 0.95115 0.0
C2636 C 0.53124 0.49344 0.96104 0.0
C2637 C 0.50991 0.51394 0.95478 0.0
H2638 H 0.45914 0.48335 0.98143 0.0
C2639 C 0.46957 0.54787 0.0033 0.0
C2640 C 0.46077 0.5396 0.02827 0.0
C2641 C 0.47611 0.53871 0.98583 0.0
C2642 C 0.47329 0.49212 0.97392 0.0
H2643 H 0.50808 0.44254 0.93049 0.0
H2644 H 0.49105 0.45978 0.92955 0.0
H2645 H 0.4758 0.46802 0.96409 0.0
H2646 H 0.45153 0.51503 0.0541 0.0
H2647 H 0.46317 0.49944 0.0243 0.0
H2648 H 0.50789 0.53806 0.96683 0.0
C2649 C 0.50504 0.46668 0.93837 0.0
C2650 C 0.48277 0.4833 0.96355 0.0
C2651 C 0.51483 0.45683 0.93876 0.0
C2652 C 0.45825 0.52185 0.03505 0.0
C2653 C 0.46476 0.51275 0.01772 0.0
C2654 C 0.50048 0.52277 0.96544 0.0
C2655 C 0.51291 0.4849 0.95033 0.0
C2656 C 0.5015 0.49411 0.95499 0.0
C2657 C 0.47392 0.5211 0.993 0.0
C2658 C 0.48235 0.51194 0.97628 0.0
H2659 H 0.5548 0.49053 0.97083 0.0
H2660 H 0.53774 0.5073 0.97077 0.0
H2661 H 0.52417 0.52271 0.94772 0.0
H2662 H 0.47163 0.56151 0.99743 0.0
H2663 H 0.48301 0.54548 0.96686 0.0
loop_
_geom_bond_atom_site_label_1
_geom_bond_atom_site_label_2
_geom_bond_distance
_geom_bond_site_symmetry_2
_ccdc_geom_bond_type
Mg0 O1 2.028 . S
Mg0 O7 1.986 . S
Mg0 O9 2.114 . S
Mg0 O10 2.251 . S
Mg0 O13 2.010 . S
O1 Mg0 2.028 . S
O1 C4 1.250 . S
O2 Mg3 2.028 . S
O2 C4 1.248 . S
Mg3 O2 2.028 . S
Mg3 O8 2.032 . S
Mg3 O10 2.079 . S
C4 O1 1.250 . S
C4 O2 1.248 . S
C5 O6 1.264 . S
C5 O13 1.249 . S
O6 C5 1.264 . S
O7 Mg0 1.986 . S
O7 C11 1.246 . S
O8 Mg3 2.032 . S
O8 C11 1.259 . S
O9 Mg0 2.114 . S
O9 C12 1.252 . S
O10 Mg0 2.251 . S
O10 Mg3 2.079 . S
O10 C12 1.273 . S
C11 O7 1.246 . S
C11 O8 1.259 . S
C12 O9 1.252 . S
C12 O10 1.273 . S
O13 Mg0 2.010 . S
O13 C5 1.249 . S
Mg14 O15 2.028 . S
Mg14 O21 1.986 . S
Mg14 O23 2.114 . S
Mg14 O24 2.251 . S
Mg14 O27 2.010 . S
O15 Mg14 2.028 . S
O15 C18 1.250 . S
O16 Mg17 2.028 . S
O16 C18 1.248 . S
Mg17 O16 2.028 . S
Mg17 O22 2.032 . S
Mg17 O24 2.079 . S
C18 O15 1.250 . S
C18 O16 1.248 . S
C19 O20 1.264 . S
C19 O27 1.249 . S
O20 C19 1.264 . S
O21 Mg14 1.986 . S
O21 C25 1.246 . S
O22 Mg17 2.032 . S
O22 C25 1.259 . S
O23 Mg14 2.114 . S
O23 C26 1.252 . S
O24 Mg14 2.251 . S
O24 Mg17 2.079 . S
O24 C26 1.273 . S
C25 O21 1.246 . S
C25 O22 1.259 . S
C26 O23 1.252 . S
C26 O24 1.273 . S
O27 Mg14 2.010 . S
O27 C19 1.249 . S
Mg28 O29 2.028 . S
Mg28 O35 1.986 . S
Mg28 O37 2.114 . S
Mg28 O38 2.251 . S
Mg28 O41 2.010 . S
O29 Mg28 2.028 . S
O29 C32 1.250 . S
O30 Mg31 2.028 . S
O30 C32 1.248 . S
Mg31 O30 2.028 . S
Mg31 O36 2.032 . S
Mg31 O38 2.079 . S
C32 O29 1.250 . S
C32 O30 1.248 . S
C33 O34 1.264 . S
C33 O41 1.249 . S
O34 C33 1.264 . S
O35 Mg28 1.986 . S
O35 C39 1.246 . S
O36 Mg31 2.032 . S
O36 C39 1.259 . S
O37 Mg28 2.114 . S
O37 C40 1.252 . S
O38 Mg28 2.251 . S
O38 Mg31 2.079 . S
O38 C40 1.273 . S
C39 O35 1.246 . S
C39 O36 1.259 . S
C40 O37 1.252 . S
C40 O38 1.273 . S
O41 Mg28 2.010 . S
O41 C33 1.249 . S
Mg42 O43 2.028 . S
Mg42 O49 1.986 . S
Mg42 O51 2.114 . S
Mg42 O52 2.251 . S
Mg42 O55 2.010 . S
O43 Mg42 2.028 . S
O43 C46 1.250 . S
O44 Mg45 2.028 . S
O44 C46 1.248 . S
Mg45 O44 2.028 . S
Mg45 O50 2.032 . S
Mg45 O52 2.079 . S
C46 O43 1.250 . S
C46 O44 1.248 . S
C47 O48 1.264 . S
C47 O55 1.249 . S
O48 C47 1.264 . S
O49 Mg42 1.986 . S
O49 C53 1.246 . S
O50 Mg45 2.032 . S
O50 C53 1.259 . S
O51 Mg42 2.114 . S
O51 C54 1.252 . S
O52 Mg42 2.251 . S
O52 Mg45 2.079 . S
O52 C54 1.273 . S
C53 O49 1.246 . S
C53 O50 1.259 . S
C54 O51 1.252 . S
C54 O52 1.273 . S
O55 Mg42 2.010 . S
O55 C47 1.249 . S
Mg56 O57 2.028 . S
Mg56 O63 1.986 . S
Mg56 O65 2.114 . S
Mg56 O66 2.251 . S
Mg56 O69 2.010 . S
O57 Mg56 2.028 . S
O57 C60 1.250 . S
O58 Mg59 2.028 . S
O58 C60 1.248 . S
Mg59 O58 2.028 . S
Mg59 O64 2.032 . S
Mg59 O66 2.079 . S
C60 O57 1.250 . S
C60 O58 1.248 . S
C61 O62 1.264 . S
C61 O69 1.249 . S
O62 C61 1.264 . S
O63 Mg56 1.986 . S
O63 C67 1.246 . S
O64 Mg59 2.032 . S
O64 C67 1.259 . S
O65 Mg56 2.114 . S
O65 C68 1.252 . S
O66 Mg56 2.251 . S
O66 Mg59 2.079 . S
O66 C68 1.273 . S
C67 O63 1.246 . S
C67 O64 1.259 . S
C68 O65 1.252 . S
C68 O66 1.273 . S
O69 Mg56 2.010 . S
O69 C61 1.249 . S
Mg70 O71 2.028 . S
Mg70 O77 1.986 . S
Mg70 O79 2.114 . S
Mg70 O80 2.251 . S
Mg70 O83 2.010 . S
O71 Mg70 2.028 . S
O71 C74 1.250 . S
O72 Mg73 2.028 . S
O72 C74 1.248 . S
Mg73 O72 2.028 . S
Mg73 O78 2.032 . S
Mg73 O80 2.079 . S
C74 O71 1.250 . S
C74 O72 1.248 . S
C75 O76 1.264 . S
C75 O83 1.249 . S
O76 C75 1.264 . S
O77 Mg70 1.986 . S
O77 C81 1.246 . S
O78 Mg73 2.032 . S
O78 C81 1.259 . S
O79 Mg70 2.114 . S
O79 C82 1.252 . S
O80 Mg70 2.251 . S
O80 Mg73 2.079 . S
O80 C82 1.273 . S
C81 O77 1.246 . S
C81 O78 1.259 . S
C82 O79 1.252 . S
C82 O80 1.273 . S
O83 Mg70 2.010 . S
O83 C75 1.249 . S
Mg84 O85 2.028 . S
Mg84 O91 1.986 . S
Mg84 O93 2.114 . S
Mg84 O94 2.251 . S
Mg84 O97 2.010 . S
O85 Mg84 2.028 . S
O85 C88 1.250 . S
O86 Mg87 2.028 . S
O86 C88 1.248 . S
Mg87 O86 2.028 . S
Mg87 O92 2.032 . S
Mg87 O94 2.079 . S
C88 O85 1.250 . S
C88 O86 1.248 . S
C89 O90 1.264 . S
C89 O97 1.249 . S
O90 C89 1.264 . S
O91 Mg84 1.986 . S
O91 C95 1.246 . S
O92 Mg87 2.032 . S
O92 C95 1.259 . S
O93 Mg84 2.114 . S
O93 C96 1.252 . S
O94 Mg84 2.251 . S
O94 Mg87 2.079 . S
O94 C96 1.273 . S
C95 O91 1.246 . S
C95 O92 1.259 . S
C96 O93 1.252 . S
C96 O94 1.273 . S
O97 Mg84 2.010 . S
O97 C89 1.249 . S
Mg98 O99 2.028 . S
Mg98 O105 1.986 . S
Mg98 O107 2.114 . S
Mg98 O108 2.251 . S
Mg98 O111 2.010 . S
O99 Mg98 2.028 . S
O99 C102 1.250 . S
O100 Mg101 2.028 . S
O100 C102 1.248 . S
Mg101 O100 2.028 . S
Mg101 O106 2.032 . S
Mg101 O108 2.079 . S
C102 O99 1.250 . S
C102 O100 1.248 . S
C103 O104 1.264 . S
C103 O111 1.249 . S
O104 C103 1.264 . S
O105 Mg98 1.986 . S
O105 C109 1.246 . S
O106 Mg101 2.032 . S
O106 C109 1.259 . S
O107 Mg98 2.114 . S
O107 C110 1.252 . S
O108 Mg98 2.251 . S
O108 Mg101 2.079 . S
O108 C110 1.273 . S
C109 O105 1.246 . S
C109 O106 1.259 . S
C110 O107 1.252 . S
C110 O108 1.273 . S
O111 Mg98 2.010 . S
O111 C103 1.249 . S
Mg112 O113 2.028 . S
Mg112 O119 1.986 . S
Mg112 O121 2.114 . S
Mg112 O122 2.251 . S
Mg112 O125 2.010 . S
O113 Mg112 2.028 . S
O113 C116 1.250 . S
O114 Mg115 2.028 . S
O114 C116 1.248 . S
Mg115 O114 2.028 . S
Mg115 O120 2.032 . S
Mg115 O122 2.079 . S
C116 O113 1.250 . S
C116 O114 1.248 . S
C117 O118 1.264 . S
C117 O125 1.249 . S
O118 C117 1.264 . S
O119 Mg112 1.986 . S
O119 C123 1.246 . S
O120 Mg115 2.032 . S
O120 C123 1.259 . S
O121 Mg112 2.114 . S
O121 C124 1.252 . S
O122 Mg112 2.251 . S
O122 Mg115 2.079 . S
O122 C124 1.273 . S
C123 O119 1.246 . S
C123 O120 1.259 . S
C124 O121 1.252 . S
C124 O122 1.273 . S
O125 Mg112 2.010 . S
O125 C117 1.249 . S
Mg126 O127 2.028 . S
Mg126 O133 1.986 . S
Mg126 O135 2.114 . S
Mg126 O136 2.251 . S
Mg126 O139 2.010 . S
O127 Mg126 2.028 . S
O127 C130 1.250 . S
O128 Mg129 2.028 . S
O128 C130 1.248 . S
Mg129 O128 2.028 . S
Mg129 O134 2.032 . S
Mg129 O136 2.079 . S
C130 O127 1.250 . S
C130 O128 1.248 . S
C131 O132 1.264 . S
C131 O139 1.249 . S
O132 C131 1.264 . S
O133 Mg126 1.986 . S
O133 C137 1.246 . S
O134 Mg129 2.032 . S
O134 C137 1.259 . S
O135 Mg126 2.114 . S
O135 C138 1.252 . S
O136 Mg126 2.251 . S
O136 Mg129 2.079 . S
O136 C138 1.273 . S
C137 O133 1.246 . S
C137 O134 1.259 . S
C138 O135 1.252 . S
C138 O136 1.273 . S
O139 Mg126 2.010 . S
O139 C131 1.249 . S
Mg140 O141 2.028 . S
Mg140 O147 1.986 . S
Mg140 O149 2.114 . S
Mg140 O150 2.251 . S
Mg140 O153 2.010 . S
O141 Mg140 2.028 . S
O141 C144 1.250 . S
O142 Mg143 2.028 . S
O142 C144 1.248 . S
Mg143 O142 2.028 . S
Mg143 O148 2.032 . S
Mg143 O150 2.079 . S
C144 O141 1.250 . S
C144 O142 1.248 . S
C145 O146 1.264 . S
C145 O153 1.249 . S
O146 C145 1.264 . S
O147 Mg140 1.986 . S
O147 C151 1.246 . S
O148 Mg143 2.032 . S
O148 C151 1.259 . S
O149 Mg140 2.114 . S
O149 C152 1.252 . S
O150 Mg140 2.251 . S
O150 Mg143 2.079 . S
O150 C152 1.273 . S
C151 O147 1.246 . S
C151 O148 1.259 . S
C152 O149 1.252 . S
C152 O150 1.273 . S
O153 Mg140 2.010 . S
O153 C145 1.249 . S
Mg154 O155 2.028 . S
Mg154 O161 1.986 . S
Mg154 O163 2.114 . S
Mg154 O164 2.251 . S
Mg154 O167 2.010 . S
O155 Mg154 2.028 . S
O155 C158 1.250 . S
O156 Mg157 2.028 . S
O156 C158 1.248 . S
Mg157 O156 2.028 . S
Mg157 O162 2.032 . S
Mg157 O164 2.079 . S
C158 O155 1.250 . S
C158 O156 1.248 . S
C159 O160 1.264 . S
C159 O167 1.249 . S
O160 C159 1.264 . S
O161 Mg154 1.986 . S
O161 C165 1.246 . S
O162 Mg157 2.032 . S
O162 C165 1.259 . S
O163 Mg154 2.114 . S
O163 C166 1.252 . S
O164 Mg154 2.251 . S
O164 Mg157 2.079 . S
O164 C166 1.273 . S
C165 O161 1.246 . S
C165 O162 1.259 . S
C166 O163 1.252 . S
C166 O164 1.273 . S
O167 Mg154 2.010 . S
O167 C159 1.249 . S
Mg168 O169 2.028 . S
Mg168 O175 1.986 . S
Mg168 O177 2.114 . S
Mg168 O178 2.251 . S
Mg168 O181 2.010 . S
O169 Mg168 2.028 . S
O169 C172 1.250 . S
O170 Mg171 2.028 . S
O170 C172 1.248 . S
Mg171 O170 2.028 . S
Mg171 O176 2.032 . S
Mg171 O178 2.079 . S
C172 O169 1.250 . S
C172 O170 1.248 . S
C173 O174 1.264 . S
C173 O181 1.249 . S
O174 C173 1.264 . S
O175 Mg168 1.986 . S
O175 C179 1.246 . S
O176 Mg171 2.032 . S
O176 C179 1.259 . S
O177 Mg168 2.114 . S
O177 C180 1.252 . S
O178 Mg168 2.251 . S
O178 Mg171 2.079 . S
O178 C180 1.273 . S
C179 O175 1.246 . S
C179 O176 1.259 . S
C180 O177 1.252 . S
C180 O178 1.273 . S
O181 Mg168 2.010 . S
O181 C173 1.249 . S
Mg182 O183 2.028 . S
Mg182 O189 1.986 . S
Mg182 O191 2.114 . S
Mg182 O192 2.251 . S
Mg182 O195 2.010 . S
O183 Mg182 2.028 . S
O183 C186 1.250 . S
O184 Mg185 2.028 . S
O184 C186 1.248 . S
Mg185 O184 2.028 . S
Mg185 O190 2.032 . S
Mg185 O192 2.079 . S
C186 O183 1.250 . S
C186 O184 1.248 . S
C187 O188 1.264 . S
C187 O195 1.249 . S
O188 C187 1.264 . S
O189 Mg182 1.986 . S
O189 C193 1.246 . S
O190 Mg185 2.032 . S
O190 C193 1.259 . S
O191 Mg182 2.114 . S
O191 C194 1.252 . S
O192 Mg182 2.251 . S
O192 Mg185 2.079 . S
O192 C194 1.273 . S
C193 O189 1.246 . S
C193 O190 1.259 . S
C194 O191 1.252 . S
C194 O192 1.273 . S
O195 Mg182 2.010 . S
O195 C187 1.249 . S
Mg196 O197 2.028 . S
Mg196 O203 1.986 . S
Mg196 O205 2.114 . S
Mg196 O206 2.251 . S
Mg196 O209 2.010 . S
O197 Mg196 2.028 . S
O197 C200 1.250 . S
O198 Mg199 2.028 . S
O198 C200 1.248 . S
Mg199 O198 2.028 . S
Mg199 O204 2.032 . S
Mg199 O206 2.079 . S
C200 O197 1.250 . S
C200 O198 1.248 . S
C201 O202 1.264 . S
C201 O209 1.249 . S
O202 C201 1.264 . S
O203 Mg196 1.986 . S
O203 C207 1.246 . S
O204 Mg199 2.032 . S
O204 C207 1.259 . S
O205 Mg196 2.114 . S
O205 C208 1.252 . S
O206 Mg196 2.251 . S
O206 Mg199 2.079 . S
O206 C208 1.273 . S
C207 O203 1.246 . S
C207 O204 1.259 . S
C208 O205 1.252 . S
C208 O206 1.273 . S
O209 Mg196 2.010 . S
O209 C201 1.249 . S
Mg210 O211 2.028 . S
Mg210 O217 1.986 . S
Mg210 O219 2.114 . S
Mg210 O220 2.251 . S
Mg210 O223 2.010 . S
O211 Mg210 2.028 . S
O211 C214 1.250 . S
O212 Mg213 2.028 . S
O212 C214 1.248 . S
Mg213 O212 2.028 . S
Mg213 O218 2.032 . S
Mg213 O220 2.079 . S
C214 O211 1.250 . S
C214 O212 1.248 . S
C215 O216 1.264 . S
C215 O223 1.249 . S
O216 C215 1.264 . S
O217 Mg210 1.986 . S
O217 C221 1.246 . S
O218 Mg213 2.032 . S
O218 C221 1.259 . S
O219 Mg210 2.114 . S
O219 C222 1.252 . S
O220 Mg210 2.251 . S
O220 Mg213 2.079 . S
O220 C222 1.273 . S
C221 O217 1.246 . S
C221 O218 1.259 . S
C222 O219 1.252 . S
C222 O220 1.273 . S
O223 Mg210 2.010 . S
O223 C215 1.249 . S
Mg224 O225 2.028 . S
Mg224 O231 1.986 . S
Mg224 O233 2.114 . S
Mg224 O234 2.251 . S
Mg224 O237 2.010 . S
O225 Mg224 2.028 . S
O225 C228 1.250 . S
O226 Mg227 2.028 . S
O226 C228 1.248 . S
Mg227 O226 2.028 . S
Mg227 O232 2.032 . S
Mg227 O234 2.079 . S
C228 O225 1.250 . S
C228 O226 1.248 . S
C229 O230 1.264 . S
C229 O237 1.249 . S
O230 C229 1.264 . S
O231 Mg224 1.986 . S
O231 C235 1.246 . S
O232 Mg227 2.032 . S
O232 C235 1.259 . S
O233 Mg224 2.114 . S
O233 C236 1.252 . S
O234 Mg224 2.251 . S
O234 Mg227 2.079 . S
O234 C236 1.273 . S
C235 O231 1.246 . S
C235 O232 1.259 . S
C236 O233 1.252 . S
C236 O234 1.273 . S
O237 Mg224 2.010 . S
O237 C229 1.249 . S
Mg238 O239 2.028 . S
Mg238 O245 1.986 . S
Mg238 O247 2.114 . S
Mg238 O248 2.251 . S
Mg238 O251 2.010 . S
O239 Mg238 2.028 . S
O239 C242 1.250 . S
O240 Mg241 2.028 . S
O240 C242 1.248 . S
Mg241 O240 2.028 . S
Mg241 O246 2.032 . S
Mg241 O248 2.079 . S
C242 O239 1.250 . S
C242 O240 1.248 . S
C243 O244 1.264 . S
C243 O251 1.249 . S
O244 C243 1.264 . S
O245 Mg238 1.986 . S
O245 C249 1.246 . S
O246 Mg241 2.032 . S
O246 C249 1.259 . S
O247 Mg238 2.114 . S
O247 C250 1.252 . S
O248 Mg238 2.251 . S
O248 Mg241 2.079 . S
O248 C250 1.273 . S
C249 O245 1.246 . S
C249 O246 1.259 . S
C250 O247 1.252 . S
C250 O248 1.273 . S
O251 Mg238 2.010 . S
O251 C243 1.249 . S
Mg252 O253 2.028 . S
Mg252 O259 1.986 . S
Mg252 O261 2.114 . S
Mg252 O262 2.251 . S
Mg252 O265 2.010 . S
O253 Mg252 2.028 . S
O253 C256 1.250 . S
O254 Mg255 2.028 . S
O254 C256 1.248 . S
Mg255 O254 2.028 . S
Mg255 O260 2.032 . S
Mg255 O262 2.079 . S
C256 O253 1.250 . S
C256 O254 1.248 . S
C257 O258 1.264 . S
C257 O265 1.249 . S
O258 C257 1.264 . S
O259 Mg252 1.986 . S
O259 C263 1.246 . S
O260 Mg255 2.032 . S
O260 C263 1.259 . S
O261 Mg252 2.114 . S
O261 C264 1.252 . S
O262 Mg252 2.251 . S
O262 Mg255 2.079 . S
O262 C264 1.273 . S
C263 O259 1.246 . S
C263 O260 1.259 . S
C264 O261 1.252 . S
C264 O262 1.273 . S
O265 Mg252 2.010 . S
O265 C257 1.249 . S
Mg266 O267 2.028 . S
Mg266 O273 1.986 . S
Mg266 O275 2.114 . S
Mg266 O276 2.251 . S
Mg266 O279 2.010 . S
O267 Mg266 2.028 . S
O267 C270 1.250 . S
O268 Mg269 2.028 . S
O268 C270 1.248 . S
Mg269 O268 2.028 . S
Mg269 O274 2.032 . S
Mg269 O276 2.079 . S
C270 O267 1.250 . S
C270 O268 1.248 . S
C271 O272 1.264 . S
C271 O279 1.249 . S
O272 C271 1.264 . S
O273 Mg266 1.986 . S
O273 C277 1.246 . S
O274 Mg269 2.032 . S
O274 C277 1.259 . S
O275 Mg266 2.114 . S
O275 C278 1.252 . S
O276 Mg266 2.251 . S
O276 Mg269 2.079 . S
O276 C278 1.273 . S
C277 O273 1.246 . S
C277 O274 1.259 . S
C278 O275 1.252 . S
C278 O276 1.273 . S
O279 Mg266 2.010 . S
O279 C271 1.249 . S
Mg280 O281 2.028 . S
Mg280 O287 1.986 . S
Mg280 O289 2.114 . S
Mg280 O290 2.251 . S
Mg280 O293 2.010 . S
O281 Mg280 2.028 . S
O281 C284 1.250 . S
O282 Mg283 2.028 . S
O282 C284 1.248 . S
Mg283 O282 2.028 . S
Mg283 O288 2.032 . S
Mg283 O290 2.079 . S
C284 O281 1.250 . S
C284 O282 1.248 . S
C285 O286 1.264 . S
C285 O293 1.249 . S
O286 C285 1.264 . S
O287 Mg280 1.986 . S
O287 C291 1.246 . S
O288 Mg283 2.032 . S
O288 C291 1.259 . S
O289 Mg280 2.114 . S
O289 C292 1.252 . S
O290 Mg280 2.251 . S
O290 Mg283 2.079 . S
O290 C292 1.273 . S
C291 O287 1.246 . S
C291 O288 1.259 . S
C292 O289 1.252 . S
C292 O290 1.273 . S
O293 Mg280 2.010 . S
O293 C285 1.249 . S
Mg294 O295 2.028 . S
Mg294 O301 1.986 . S
Mg294 O303 2.114 . S
Mg294 O304 2.251 . S
Mg294 O307 2.010 . S
O295 Mg294 2.028 . S
O295 C298 1.250 . S
O296 Mg297 2.028 . S
O296 C298 1.248 . S
Mg297 O296 2.028 . S
Mg297 O302 2.032 . S
Mg297 O304 2.079 . S
C298 O295 1.250 . S
C298 O296 1.248 . S
C299 O300 1.264 . S
C299 O307 1.249 . S
O300 C299 1.264 . S
O301 Mg294 1.986 . S
O301 C305 1.246 . S
O302 Mg297 2.032 . S
O302 C305 1.259 . S
O303 Mg294 2.114 . S
O303 C306 1.265 . S
O304 Mg294 2.251 . S
O304 Mg297 2.079 . S
O304 C306 1.280 . S
C305 O301 1.246 . S
C305 O302 1.259 . S
C306 O303 1.265 . S
C306 O304 1.280 . S
O307 Mg294 2.010 . S
O307 C299 1.249 . S
Mg308 O309 2.028 . S
Mg308 O315 1.986 . S
Mg308 O317 2.114 . S
Mg308 O318 2.251 . S
Mg308 O321 2.010 . S
O309 Mg308 2.028 . S
O309 C312 1.250 . S
O310 Mg311 2.028 . S
O310 C312 1.248 . S
Mg311 O310 2.028 . S
Mg311 O316 2.032 . S
Mg311 O318 2.079 . S
C312 O309 1.250 . S
C312 O310 1.248 . S
C313 O314 1.264 . S
C313 O321 1.249 . S
O314 C313 1.264 . S
O315 Mg308 1.986 . S
O315 C319 1.246 . S
O316 Mg311 2.032 . S
O316 C319 1.259 . S
O317 Mg308 2.114 . S
O317 C320 1.252 . S
O318 Mg308 2.251 . S
O318 Mg311 2.079 . S
O318 C320 1.273 . S
C319 O315 1.246 . S
C319 O316 1.259 . S
C320 O317 1.252 . S
C320 O318 1.273 . S
O321 Mg308 2.010 . S
O321 C313 1.249 . S
Mg322 O323 2.028 . S
Mg322 O329 1.986 . S
Mg322 O331 2.114 . S
Mg322 O332 2.251 . S
Mg322 O335 2.010 . S
O323 Mg322 2.028 . S
O323 C326 1.250 . S
O324 Mg325 2.028 . S
O324 C326 1.248 . S
Mg325 O324 2.028 . S
Mg325 O330 2.032 . S
Mg325 O332 2.079 . S
C326 O323 1.250 . S
C326 O324 1.248 . S
C327 O328 1.264 . S
C327 O335 1.249 . S
O328 C327 1.264 . S
O329 Mg322 1.986 . S
O329 C333 1.246 . S
O330 Mg325 2.032 . S
O330 C333 1.259 . S
O331 Mg322 2.114 . S
O331 C334 1.252 . S
O332 Mg322 2.251 . S
O332 Mg325 2.079 . S
O332 C334 1.273 . S
C333 O329 1.246 . S
C333 O330 1.259 . S
C334 O331 1.252 . S
C334 O332 1.273 . S
O335 Mg322 2.010 . S
O335 C327 1.249 . S
Mg336 O337 2.028 . S
Mg336 O343 1.986 . S
Mg336 O345 2.114 . S
Mg336 O346 2.251 . S
Mg336 O349 2.010 . S
O337 Mg336 2.028 . S
O337 C340 1.250 . S
O338 Mg339 2.028 . S
O338 C340 1.248 . S
Mg339 O338 2.028 . S
Mg339 O344 2.032 . S
Mg339 O346 2.079 . S
C340 O337 1.250 . S
C340 O338 1.248 . S
C341 O342 1.264 . S
C341 O349 1.249 . S
O342 C341 1.264 . S
O343 Mg336 1.986 . S
O343 C347 1.246 . S
O344 Mg339 2.032 . S
O344 C347 1.259 . S
O345 Mg336 2.114 . S
O345 C348 1.252 . S
O346 Mg336 2.251 . S
O346 Mg339 2.079 . S
O346 C348 1.273 . S
C347 O343 1.246 . S
C347 O344 1.259 . S
C348 O345 1.252 . S
C348 O346 1.273 . S
O349 Mg336 2.010 . S
O349 C341 1.249 . S
Mg350 O351 2.028 . S
Mg350 O357 1.986 . S
Mg350 O359 2.114 . S
Mg350 O360 2.251 . S
Mg350 O363 2.010 . S
O351 Mg350 2.028 . S
O351 C354 1.250 . S
O352 Mg353 2.028 . S
O352 C354 1.248 . S
Mg353 O352 2.028 . S
Mg353 O358 2.032 . S
Mg353 O360 2.079 . S
C354 O351 1.250 . S
C354 O352 1.248 . S
C355 O356 1.264 . S
C355 O363 1.249 . S
O356 C355 1.264 . S
O357 Mg350 1.986 . S
O357 C361 1.246 . S
O358 Mg353 2.032 . S
O358 C361 1.259 . S
O359 Mg350 2.114 . S
O359 C362 1.252 . S
O360 Mg350 2.251 . S
O360 Mg353 2.079 . S
O360 C362 1.273 . S
C361 O357 1.246 . S
C361 O358 1.259 . S
C362 O359 1.252 . S
C362 O360 1.273 . S
O363 Mg350 2.010 . S
O363 C355 1.249 . S
Mg364 O365 2.028 . S
Mg364 O371 1.986 . S
Mg364 O373 2.114 . S
Mg364 O374 2.251 . S
Mg364 O377 2.010 . S
O365 Mg364 2.028 . S
O365 C368 1.250 . S
O366 Mg367 2.028 . S
O366 C368 1.248 . S
Mg367 O366 2.028 . S
Mg367 O372 2.032 . S
Mg367 O374 2.079 . S
C368 O365 1.250 . S
C368 O366 1.248 . S
C369 O370 1.264 . S
C369 O377 1.249 . S
O370 C369 1.264 . S
O371 Mg364 1.986 . S
O371 C375 1.246 . S
O372 Mg367 2.032 . S
O372 C375 1.259 . S
O373 Mg364 2.114 . S
O373 C376 1.252 . S
O374 Mg364 2.251 . S
O374 Mg367 2.079 . S
O374 C376 1.273 . S
C375 O371 1.246 . S
C375 O372 1.259 . S
C376 O373 1.252 . S
C376 O374 1.273 . S
O377 Mg364 2.010 . S
O377 C369 1.249 . S
Mg378 O379 2.028 . S
Mg378 O385 1.986 . S
Mg378 O387 2.114 . S
Mg378 O388 2.251 . S
Mg378 O391 2.010 . S
O379 Mg378 2.028 . S
O379 C382 1.250 . S
O380 Mg381 2.028 . S
O380 C382 1.248 . S
Mg381 O380 2.028 . S
Mg381 O386 2.032 . S
Mg381 O388 2.079 . S
C382 O379 1.250 . S
C382 O380 1.248 . S
C383 O384 1.264 . S
C383 O391 1.249 . S
O384 C383 1.264 . S
O385 Mg378 1.986 . S
O385 C389 1.246 . S
O386 Mg381 2.032 . S
O386 C389 1.259 . S
O387 Mg378 2.114 . S
O387 C390 1.252 1_554 S
O388 Mg378 2.251 . S
O388 Mg381 2.079 . S
O388 C390 1.273 1_554 S
C389 O385 1.246 . S
C389 O386 1.259 . S
C390 O387 1.252 1_556 S
C390 O388 1.273 1_556 S
O391 Mg378 2.010 . S
O391 C383 1.249 . S
Mg392 O393 2.028 . S
Mg392 O399 1.986 . S
Mg392 O401 2.114 . S
Mg392 O402 2.251 . S
Mg392 O405 2.010 . S
O393 Mg392 2.028 . S
O393 C396 1.250 . S
O394 Mg395 2.028 . S
O394 C396 1.248 . S
Mg395 O394 2.028 . S
Mg395 O400 2.032 . S
Mg395 O402 2.079 . S
C396 O393 1.250 . S
C396 O394 1.248 . S
C397 O398 1.264 . S
C397 O405 1.249 . S
O398 C397 1.264 . S
O399 Mg392 1.986 . S
O399 C403 1.246 . S
O400 Mg395 2.032 . S
O400 C403 1.259 . S
O401 Mg392 2.114 . S
O401 C404 1.250 1_554 S
O402 Mg392 2.251 . S
O402 Mg395 2.079 . S
O402 C404 1.272 1_554 S
C403 O399 1.246 . S
C403 O400 1.259 . S
C404 O401 1.250 1_556 S
C404 O402 1.272 1_556 S
O405 Mg392 2.010 . S
O405 C397 1.249 . S
Mg406 O407 2.028 . S
Mg406 O413 1.986 . S
Mg406 O415 2.114 . S
Mg406 O416 2.251 . S
Mg406 O419 2.010 . S
O407 Mg406 2.028 . S
O407 C410 1.250 . S
O408 Mg409 2.028 . S
O408 C410 1.248 . S
Mg409 O408 2.028 . S
Mg409 O414 2.032 . S
Mg409 O416 2.079 . S
C410 O407 1.250 . S
C410 O408 1.248 . S
C411 O412 1.264 . S
C411 O419 1.249 . S
O412 C411 1.264 . S
O413 Mg406 1.986 . S
O413 C417 1.246 . S
O414 Mg409 2.032 . S
O414 C417 1.259 . S
O415 Mg406 2.114 . S
O415 C418 1.252 . S
O416 Mg406 2.251 . S
O416 Mg409 2.079 . S
O416 C418 1.273 . S
C417 O413 1.246 . S
C417 O414 1.259 . S
C418 O415 1.252 . S
C418 O416 1.273 . S
O419 Mg406 2.010 . S
O419 C411 1.249 . S
Mg420 O421 2.028 . S
Mg420 O427 1.986 . S
Mg420 O429 2.114 . S
Mg420 O430 2.251 . S
Mg420 O433 2.010 . S
O421 Mg420 2.028 . S
O421 C424 1.250 . S
O422 Mg423 2.028 . S
O422 C424 1.248 . S
Mg423 O422 2.028 . S
Mg423 O428 2.032 . S
Mg423 O430 2.079 . S
C424 O421 1.250 . S
C424 O422 1.248 . S
C425 O426 1.264 . S
C425 O433 1.249 . S
O426 C425 1.264 . S
O427 Mg420 1.986 . S
O427 C431 1.246 . S
O428 Mg423 2.032 . S
O428 C431 1.259 . S
O429 Mg420 2.114 . S
O429 C432 1.252 . S
O430 Mg420 2.251 . S
O430 Mg423 2.079 . S
O430 C432 1.273 . S
C431 O427 1.246 . S
C431 O428 1.259 . S
C432 O429 1.252 . S
C432 O430 1.273 . S
O433 Mg420 2.010 . S
O433 C425 1.249 . S
Mg434 O435 2.028 . S
Mg434 O441 1.986 . S
Mg434 O443 2.114 . S
Mg434 O444 2.251 . S
Mg434 O447 2.010 . S
O435 Mg434 2.028 . S
O435 C438 1.250 . S
O436 Mg437 2.028 . S
O436 C438 1.248 . S
Mg437 O436 2.028 . S
Mg437 O442 2.032 . S
Mg437 O444 2.079 . S
C438 O435 1.250 . S
C438 O436 1.248 . S
C439 O440 1.264 . S
C439 O447 1.249 . S
O440 C439 1.264 . S
O441 Mg434 1.986 . S
O441 C445 1.246 . S
O442 Mg437 2.032 . S
O442 C445 1.259 . S
O443 Mg434 2.114 . S
O443 C446 1.252 . S
O444 Mg434 2.251 . S
O444 Mg437 2.079 . S
O444 C446 1.273 . S
C445 O441 1.246 . S
C445 O442 1.259 . S
C446 O443 1.252 . S
C446 O444 1.273 . S
O447 Mg434 2.010 . S
O447 C439 1.249 . S
Mg448 O449 2.028 . S
Mg448 O455 1.986 . S
Mg448 O457 2.114 . S
Mg448 O458 2.251 . S
Mg448 O461 2.010 . S
O449 Mg448 2.028 . S
O449 C452 1.250 . S
O450 Mg451 2.028 . S
O450 C452 1.248 . S
Mg451 O450 2.028 . S
Mg451 O456 2.032 . S
Mg451 O458 2.079 . S
C452 O449 1.250 . S
C452 O450 1.248 . S
C453 O454 1.264 . S
C453 O461 1.249 . S
O454 C453 1.264 . S
O455 Mg448 1.986 . S
O455 C459 1.246 . S
O456 Mg451 2.032 . S
O456 C459 1.259 . S
O457 Mg448 2.114 . S
O457 C460 1.252 . S
O458 Mg448 2.251 . S
O458 Mg451 2.079 . S
O458 C460 1.273 . S
C459 O455 1.246 . S
C459 O456 1.259 . S
C460 O457 1.252 . S
C460 O458 1.273 . S
O461 Mg448 2.010 . S
O461 C453 1.249 . S
Mg462 O463 2.028 . S
Mg462 O469 1.986 . S
Mg462 O471 2.114 . S
Mg462 O472 2.251 . S
Mg462 O475 2.010 . S
O463 Mg462 2.028 . S
O463 C466 1.250 . S
O464 Mg465 2.028 . S
O464 C466 1.248 . S
Mg465 O464 2.028 . S
Mg465 O470 2.032 . S
Mg465 O472 2.079 . S
C466 O463 1.250 . S
C466 O464 1.248 . S
C467 O468 1.264 . S
C467 O475 1.249 . S
O468 C467 1.264 . S
O469 Mg462 1.986 . S
O469 C473 1.246 . S
O470 Mg465 2.032 . S
O470 C473 1.259 . S
O471 Mg462 2.114 . S
O471 C474 1.252 . S
O472 Mg462 2.251 . S
O472 Mg465 2.079 . S
O472 C474 1.273 . S
C473 O469 1.246 . S
C473 O470 1.259 . S
C474 O471 1.252 . S
C474 O472 1.273 . S
O475 Mg462 2.010 . S
O475 C467 1.249 . S
Mg476 O477 2.028 . S
Mg476 O483 1.986 . S
Mg476 O485 2.114 . S
Mg476 O486 2.251 . S
Mg476 O489 2.010 . S
O477 Mg476 2.028 . S
O477 C480 1.250 . S
O478 Mg479 2.028 . S
O478 C480 1.248 . S
Mg479 O478 2.028 . S
Mg479 O484 2.032 . S
Mg479 O486 2.079 . S
C480 O477 1.250 . S
C480 O478 1.248 . S
C481 O482 1.264 . S
C481 O489 1.249 . S
O482 C481 1.264 . S
O483 Mg476 1.986 . S
O483 C487 1.246 . S
O484 Mg479 2.032 . S
O484 C487 1.259 . S
O485 Mg476 2.114 . S
O485 C488 1.252 . S
O486 Mg476 2.251 . S
O486 Mg479 2.079 . S
O486 C488 1.273 . S
C487 O483 1.246 . S
C487 O484 1.259 . S
C488 O485 1.252 . S
C488 O486 1.273 . S
O489 Mg476 2.010 . S
O489 C481 1.249 . S
Mg490 O491 2.028 . S
Mg490 O497 1.986 . S
Mg490 O499 2.114 . S
Mg490 O500 2.251 . S
Mg490 O503 2.010 . S
O491 Mg490 2.028 . S
O491 C494 1.250 . S
O492 Mg493 2.028 . S
O492 C494 1.248 . S
Mg493 O492 2.028 . S
Mg493 O498 2.032 . S
Mg493 O500 2.079 . S
C494 O491 1.250 . S
C494 O492 1.248 . S
C495 O496 1.264 . S
C495 O503 1.249 . S
O496 C495 1.264 . S
O497 Mg490 1.986 . S
O497 C501 1.246 . S
O498 Mg493 2.032 . S
O498 C501 1.259 . S
O499 Mg490 2.114 . S
O499 C502 1.252 . S
O500 Mg490 2.251 . S
O500 Mg493 2.079 . S
O500 C502 1.273 . S
C501 O497 1.246 . S
C501 O498 1.259 . S
C502 O499 1.252 . S
C502 O500 1.273 . S
O503 Mg490 2.010 . S
O503 C495 1.249 . S
C504 C505 1.349 . S
C504 C506 1.327 . S
C504 H529 0.950 . S
C505 C504 1.349 . S
C505 C521 1.349 . S
C506 C504 1.327 . S
C506 C525 1.429 . S
C506 H530 0.950 . S
C507 C524 1.574 . S
C507 C526 1.368 1_565 S
C507 H531 0.949 . S
H508 C512 0.949 . S
C509 C510 1.349 . S
C509 C511 1.327 . S
C509 H532 0.950 . S
C510 C509 1.349 . S
C510 C522 1.349 . S
C511 C509 1.327 . S
C511 C527 1.429 . S
C511 H533 0.950 . S
C512 H508 0.949 . S
C512 C520 1.574 1_566 S
C512 C528 1.368 . S
H513 C521 0.950 . S
H514 C519 0.950 . S
H515 C520 0.949 . S
H516 C522 0.950 . S
H517 C523 0.950 . S
H518 C524 0.949 . S
C519 H514 0.950 . S
C519 C521 1.327 . S
C519 C525 1.429 . S
C520 C512 1.574 1_544 S
C520 H515 0.949 . S
C520 C526 1.368 . S
C521 C505 1.349 . S
C521 H513 0.950 . S
C521 C519 1.327 . S
C522 C510 1.349 . S
C522 H516 0.950 . S
C522 C523 1.327 . S
C523 H517 0.950 . S
C523 C522 1.327 . S
C523 C527 1.429 . S
C524 C507 1.574 . S
C524 H518 0.949 . S
C524 C528 1.368 1_554 S
C525 C506 1.429 . S
C525 C519 1.429 . S
C525 C526 1.523 . S
C526 C507 1.368 1_545 S
C526 C520 1.368 . S
C526 C525 1.523 . S
C527 C511 1.429 . S
C527 C523 1.429 . S
C527 C528 1.523 . S
C528 C512 1.368 . S
C528 C524 1.368 1_556 S
C528 C527 1.523 . S
H529 C504 0.950 . S
H530 C506 0.950 . S
H531 C507 0.949 . S
H532 C509 0.950 . S
H533 C511 0.950 . S
C534 C535 1.349 . S
C534 C536 1.327 . S
C534 H559 0.950 . S
C535 C534 1.349 . S
C535 C551 1.349 . S
C536 C534 1.327 . S
C536 C555 1.429 . S
C536 H560 0.950 . S
C537 C554 1.574 . S
C537 C556 1.368 1_455 S
C537 H561 0.949 . S
H538 C542 0.949 . S
C539 C540 1.349 . S
C539 C541 1.327 . S
C539 H562 0.950 . S
C540 C539 1.349 . S
C540 C552 1.349 . S
C541 C539 1.327 . S
C541 C557 1.429 . S
C541 H563 0.950 . S
C542 H538 0.949 . S
C542 C550 1.574 1_456 S
C542 C558 1.368 . S
H543 C551 0.950 . S
H544 C549 0.950 . S
H545 C550 0.952 . S
H546 C552 0.950 . S
H547 C553 0.950 . S
H548 C554 0.949 . S
C549 H544 0.950 . S
C549 C551 1.327 . S
C549 C555 1.429 . S
C550 C542 1.574 1_654 S
C550 H545 0.952 . S
C550 C556 1.368 . S
C551 C535 1.349 . S
C551 H543 0.950 . S
C551 C549 1.327 . S
C552 C540 1.349 . S
C552 H546 0.950 . S
C552 C553 1.327 . S
C553 H547 0.950 . S
C553 C552 1.327 . S
C553 C557 1.429 . S
C554 C537 1.574 . S
C554 H548 0.949 . S
C554 C558 1.368 1_554 S
C555 C536 1.429 . S
C555 C549 1.429 . S
C555 C556 1.523 . S
C556 C537 1.368 1_655 S
C556 C550 1.368 . S
C556 C555 1.523 . S
C557 C541 1.429 . S
C557 C553 1.429 . S
C557 C558 1.523 . S
C558 C542 1.368 . S
C558 C554 1.368 1_556 S
C558 C557 1.523 . S
H559 C534 0.950 . S
H560 C536 0.950 . S
H561 C537 0.949 . S
H562 C539 0.950 . S
H563 C541 0.950 . S
C564 C565 1.349 . S
C564 C566 1.327 . S
C564 H589 0.950 . S
C565 C564 1.349 . S
C565 C581 1.349 . S
C566 C564 1.327 . S
C566 C585 1.429 . S
C566 H590 0.950 1_556 S
C567 C584 1.574 1_556 S
C567 C586 1.368 . S
C567 H591 0.949 . S
H568 C572 0.949 . S
C569 C570 1.349 . S
C569 C571 1.327 . S
C569 H592 0.950 . S
C570 C569 1.349 . S
C570 C582 1.349 . S
C571 C569 1.327 . S
C571 C587 1.429 . S
C571 H593 0.950 . S
C572 H568 0.949 . S
C572 C580 1.574 . S
C572 C588 1.368 . S
H573 C581 0.950 . S
H574 C579 0.950 . S
H575 C580 0.949 . S
H576 C582 0.950 . S
H577 C583 0.950 . S
H578 C584 0.949 . S
C579 H574 0.950 . S
C579 C581 1.327 . S
C579 C585 1.429 . S
C580 C572 1.574 . S
C580 H575 0.949 . S
C580 C586 1.368 1_554 S
C581 C565 1.349 . S
C581 H573 0.950 . S
C581 C579 1.327 . S
C582 C570 1.349 . S
C582 H576 0.950 . S
C582 C583 1.327 . S
C583 H577 0.950 . S
C583 C582 1.327 . S
C583 C587 1.429 . S
C584 C567 1.574 1_554 S
C584 H578 0.949 . S
C584 C588 1.368 . S
C585 C566 1.429 . S
C585 C579 1.429 . S
C585 C586 1.523 . S
C586 C567 1.368 . S
C586 C580 1.368 1_556 S
C586 C585 1.523 . S
C587 C571 1.429 . S
C587 C583 1.429 . S
C587 C588 1.523 . S
C588 C572 1.368 . S
C588 C584 1.368 . S
C588 C587 1.523 . S
H589 C564 0.950 . S
H590 C566 0.950 1_554 S
H591 C567 0.949 . S
H592 C569 0.950 . S
H593 C571 0.950 . S
C594 C595 1.349 . S
C594 C596 1.327 . S
C594 H619 0.950 . S
C595 C594 1.349 . S
C595 C611 1.349 . S
C596 C594 1.327 . S
C596 C615 1.429 . S
C596 H620 0.950 . S
C597 C614 1.574 . S
C597 C616 1.368 . S
C597 H621 0.949 . S
H598 C602 0.949 . S
C599 C600 1.349 . S
C599 C601 1.327 . S
C599 H622 0.950 . S
C600 C599 1.349 . S
C600 C612 1.349 . S
C601 C599 1.327 . S
C601 C617 1.429 . S
C601 H623 0.950 . S
C602 H598 0.949 . S
C602 C610 1.574 1_455 S
C602 C618 1.368 . S
H603 C611 0.950 . S
H604 C609 0.950 . S
H605 C610 0.949 . S
H606 C612 0.950 . S
H607 C613 0.950 . S
H608 C614 0.949 . S
C609 H604 0.950 . S
C609 C611 1.327 . S
C609 C615 1.429 . S
C610 C602 1.574 1_655 S
C610 H605 0.949 . S
C610 C616 1.368 . S
C611 C595 1.349 . S
C611 H603 0.950 . S
C611 C609 1.327 . S
C612 C600 1.349 . S
C612 H606 0.950 . S
C612 C613 1.327 . S
C613 H607 0.950 . S
C613 C612 1.327 . S
C613 C617 1.429 . S
C614 C597 1.574 . S
C614 H608 0.949 . S
C614 C618 1.368 1_655 S
C615 C596 1.429 . S
C615 C609 1.429 . S
C615 C616 1.523 . S
C616 C597 1.368 . S
C616 C610 1.368 . S
C616 C615 1.523 . S
C617 C601 1.429 . S
C617 C613 1.429 . S
C617 C618 1.523 . S
C618 C602 1.368 . S
C618 C614 1.368 1_455 S
C618 C617 1.523 . S
H619 C594 0.950 . S
H620 C596 0.950 . S
H621 C597 0.949 . S
H622 C599 0.950 . S
H623 C601 0.950 . S
C624 C625 1.349 . S
C624 C626 1.327 . S
C624 H649 0.950 . S
C625 C624 1.349 . S
C625 C641 1.349 . S
C626 C624 1.327 . S
C626 C645 1.429 . S
C626 H650 0.950 . S
C627 C644 1.574 . S
C627 C646 1.368 . S
C627 H651 0.949 . S
H628 C632 0.949 . S
C629 C630 1.349 . S
C629 C631 1.327 . S
C629 H652 0.950 . S
C630 C629 1.349 . S
C630 C642 1.349 . S
C631 C629 1.327 . S
C631 C647 1.429 . S
C631 H653 0.950 . S
C632 H628 0.949 . S
C632 C640 1.574 . S
C632 C648 1.368 . S
H633 C641 0.950 . S
H634 C639 0.950 . S
H635 C640 0.949 . S
H636 C642 0.950 . S
H637 C643 0.950 . S
H638 C644 0.949 . S
C639 H634 0.950 . S
C639 C641 1.327 . S
C639 C645 1.429 . S
C640 C632 1.574 . S
C640 H635 0.949 . S
C640 C646 1.368 . S
C641 C625 1.349 . S
C641 H633 0.950 . S
C641 C639 1.327 . S
C642 C630 1.349 . S
C642 H636 0.950 . S
C642 C643 1.327 . S
C643 H637 0.950 . S
C643 C642 1.327 . S
C643 C647 1.429 . S
C644 C627 1.574 . S
C644 H638 0.949 . S
C644 C648 1.368 . S
C645 C626 1.429 . S
C645 C639 1.429 . S
C645 C646 1.523 . S
C646 C627 1.368 . S
C646 C640 1.368 . S
C646 C645 1.523 . S
C647 C631 1.429 . S
C647 C643 1.429 . S
C647 C648 1.523 . S
C648 C632 1.368 . S
C648 C644 1.368 . S
C648 C647 1.523 . S
H649 C624 0.950 . S
H650 C626 0.950 . S
H651 C627 0.949 . S
H652 C629 0.950 . S
H653 C631 0.950 . S
C654 C655 1.349 . S
C654 C656 1.327 . S
C654 H679 0.950 . S
C655 C654 1.349 . S
C655 C671 1.349 . S
C656 C654 1.327 . S
C656 C675 1.429 . S
C656 H680 0.950 . S
C657 C674 1.574 1_565 S
C657 C676 1.368 . S
C657 H681 0.949 . S
H658 C662 0.949 . S
C659 C660 1.349 . S
C659 C661 1.327 . S
C659 H682 0.950 . S
C660 C659 1.349 . S
C660 C672 1.349 . S
C661 C659 1.327 . S
C661 C677 1.429 . S
C661 H683 0.950 . S
C662 H658 0.949 . S
C662 C670 1.574 . S
C662 C678 1.368 . S
H663 C671 0.950 . S
H664 C669 0.950 . S
H665 C670 0.949 . S
H666 C672 0.950 . S
H667 C673 0.950 . S
H668 C674 0.949 . S
C669 H664 0.950 . S
C669 C671 1.327 . S
C669 C675 1.429 . S
C670 C662 1.574 . S
C670 H665 0.949 . S
C670 C676 1.368 1_545 S
C671 C655 1.349 . S
C671 H663 0.950 . S
C671 C669 1.327 . S
C672 C660 1.349 . S
C672 H666 0.950 . S
C672 C673 1.327 . S
C673 H667 0.950 . S
C673 C672 1.327 . S
C673 C677 1.429 . S
C674 C657 1.574 1_545 S
C674 H668 0.949 . S
C674 C678 1.368 . S
C675 C656 1.429 . S
C675 C669 1.429 . S
C675 C676 1.523 . S
C676 C657 1.368 . S
C676 C670 1.368 1_565 S
C676 C675 1.523 . S
C677 C661 1.429 . S
C677 C673 1.429 . S
C677 C678 1.523 . S
C678 C662 1.368 . S
C678 C674 1.368 . S
C678 C677 1.523 . S
H679 C654 0.950 . S
H680 C656 0.950 . S
H681 C657 0.949 . S
H682 C659 0.950 . S
H683 C661 0.950 . S
C684 C685 1.349 . S
C684 C686 1.327 . S
C684 H709 0.950 . S
C685 C684 1.349 . S
C685 C701 1.349 . S
C686 C684 1.327 . S
C686 C705 1.429 . S
C686 H710 0.950 . S
C687 C704 1.574 1_545 S
C687 C706 1.368 . S
C687 H711 0.949 . S
H688 C692 0.949 . S
C689 C690 1.349 . S
C689 C691 1.327 . S
C689 H712 0.950 . S
C690 C689 1.349 . S
C690 C702 1.349 . S
C691 C689 1.327 . S
C691 C707 1.429 . S
C691 H713 0.950 . S
C692 H688 0.949 . S
C692 C700 1.574 . S
C692 C708 1.368 1_545 S
H693 C701 0.950 . S
H694 C699 0.950 . S
H695 C700 0.949 . S
H696 C702 0.950 . S
H697 C703 0.950 . S
H698 C704 0.949 . S
C699 H694 0.950 . S
C699 C701 1.327 . S
C699 C705 1.429 . S
C700 C692 1.574 . S
C700 H695 0.949 . S
C700 C706 1.368 1_556 S
C701 C685 1.349 . S
C701 H693 0.950 . S
C701 C699 1.327 . S
C702 C690 1.349 . S
C702 H696 0.950 . S
C702 C703 1.327 . S
C703 H697 0.950 . S
C703 C702 1.327 . S
C703 C707 1.429 . S
C704 C687 1.574 1_565 S
C704 H698 0.949 . S
C704 C708 1.368 1_554 S
C705 C686 1.429 . S
C705 C699 1.429 . S
C705 C706 1.523 . S
C706 C687 1.368 . S
C706 C700 1.368 1_554 S
C706 C705 1.523 . S
C707 C691 1.429 . S
C707 C703 1.429 . S
C707 C708 1.523 . S
C708 C692 1.368 1_565 S
C708 C704 1.368 1_556 S
C708 C707 1.523 . S
H709 C684 0.950 . S
H710 C686 0.950 . S
H711 C687 0.949 . S
H712 C689 0.950 . S
H713 C691 0.950 . S
C714 C715 1.349 . S
C714 C716 1.327 . S
C714 H739 0.950 . S
C715 C714 1.349 . S
C715 C731 1.349 . S
C716 C714 1.327 . S
C716 C735 1.429 . S
C716 H740 0.950 . S
C717 C734 1.574 1_655 S
C717 C736 1.368 . S
C717 H741 0.949 1_655 S
H718 C722 0.949 . S
C719 C720 1.349 . S
C719 C721 1.327 . S
C719 H742 0.950 . S
C720 C719 1.349 . S
C720 C732 1.349 . S
C721 C719 1.327 . S
C721 C737 1.429 . S
C721 H743 0.950 . S
C722 H718 0.949 . S
C722 C730 1.574 . S
C722 C738 1.368 1_655 S
H723 C731 0.950 . S
H724 C729 0.950 . S
H725 C730 0.949 . S
H726 C732 0.950 . S
H727 C733 0.950 . S
H728 C734 0.949 . S
C729 H724 0.950 . S
C729 C731 1.327 . S
C729 C735 1.429 . S
C730 C722 1.574 . S
C730 H725 0.949 . S
C730 C736 1.368 1_556 S
C731 C715 1.349 . S
C731 H723 0.950 . S
C731 C729 1.327 . S
C732 C720 1.349 . S
C732 H726 0.950 . S
C732 C733 1.327 . S
C733 H727 0.950 . S
C733 C732 1.327 . S
C733 C737 1.429 . S
C734 C717 1.574 1_455 S
C734 H728 0.949 . S
C734 C738 1.368 1_554 S
C735 C716 1.429 . S
C735 C729 1.429 . S
C735 C736 1.523 . S
C736 C717 1.368 . S
C736 C730 1.368 1_554 S
C736 C735 1.523 . S
C737 C721 1.429 . S
C737 C733 1.429 . S
C737 C738 1.523 . S
C738 C722 1.368 1_455 S
C738 C734 1.368 1_556 S
C738 C737 1.523 . S
H739 C714 0.950 . S
H740 C716 0.950 . S
H741 C717 0.949 1_455 S
H742 C719 0.950 . S
H743 C721 0.950 . S
C744 C745 1.349 . S
C744 C746 1.327 . S
C744 H769 0.950 . S
C745 C744 1.349 . S
C745 C761 1.349 . S
C746 C744 1.327 . S
C746 C765 1.429 . S
C746 H770 0.950 . S
C747 C764 1.574 . S
C747 C766 1.368 . S
C747 H771 0.949 . S
H748 C752 0.949 . S
C749 C750 1.349 . S
C749 C751 1.327 . S
C749 H772 0.950 . S
C750 C749 1.349 . S
C750 C762 1.349 . S
C751 C749 1.327 . S
C751 C767 1.429 . S
C751 H773 0.950 . S
C752 H748 0.949 . S
C752 C760 1.574 1_554 S
C752 C768 1.368 . S
H753 C761 0.950 . S
H754 C759 0.950 . S
H755 C760 0.949 . S
H756 C762 0.950 . S
H757 C763 0.950 . S
H758 C764 0.949 . S
C759 H754 0.950 . S
C759 C761 1.327 . S
C759 C765 1.429 . S
C760 C752 1.574 1_556 S
C760 H755 0.949 . S
C760 C766 1.368 . S
C761 C745 1.349 . S
C761 H753 0.950 . S
C761 C759 1.327 . S
C762 C750 1.349 . S
C762 H756 0.950 . S
C762 C763 1.327 . S
C763 H757 0.950 . S
C763 C762 1.327 . S
C763 C767 1.429 . S
C764 C747 1.574 . S
C764 H758 0.949 . S
C764 C768 1.368 1_556 S
C765 C746 1.429 . S
C765 C759 1.429 . S
C765 C766 1.523 . S
C766 C747 1.368 . S
C766 C760 1.368 . S
C766 C765 1.523 . S
C767 C751 1.429 . S
C767 C763 1.429 . S
C767 C768 1.523 . S
C768 C752 1.368 . S
C768 C764 1.368 1_554 S
C768 C767 1.523 . S
H769 C744 0.950 . S
H770 C746 0.950 . S
H771 C747 0.949 . S
H772 C749 0.950 . S
H773 C751 0.950 . S
C774 C775 1.349 . S
C774 C776 1.327 . S
C774 H799 0.950 . S
C775 C774 1.349 . S
C775 C791 1.349 . S
C776 C774 1.327 . S
C776 C795 1.429 . S
C776 H800 0.950 . S
C777 C794 1.592 . S
C777 C796 1.364 1_455 S
C777 H801 0.922 1_455 S
H778 C782 0.949 . S
C779 C780 1.349 . S
C779 C781 1.327 . S
C779 H802 0.950 . S
C780 C779 1.349 . S
C780 C792 1.349 . S
C781 C779 1.327 . S
C781 C797 1.429 . S
C781 H803 0.950 . S
C782 H778 0.949 . S
C782 C790 1.574 1_455 S
C782 C798 1.368 . S
H783 C791 0.950 . S
H784 C789 0.950 . S
H785 C790 0.949 . S
H786 C792 0.950 . S
H787 C793 0.950 . S
H788 C794 0.949 . S
C789 H784 0.950 . S
C789 C791 1.327 . S
C789 C795 1.429 . S
C790 C782 1.574 1_655 S
C790 H785 0.949 . S
C790 C796 1.368 . S
C791 C775 1.349 . S
C791 H783 0.950 . S
C791 C789 1.327 . S
C792 C780 1.349 . S
C792 H786 0.950 . S
C792 C793 1.327 . S
C793 H787 0.950 . S
C793 C792 1.327 . S
C793 C797 1.429 . S
C794 C777 1.592 . S
C794 H788 0.949 . S
C794 C798 1.368 . S
C795 C776 1.429 . S
C795 C789 1.429 . S
C795 C796 1.523 . S
C796 C777 1.364 1_655 S
C796 C790 1.368 . S
C796 C795 1.523 . S
C797 C781 1.429 . S
C797 C793 1.429 . S
C797 C798 1.523 . S
C798 C782 1.368 . S
C798 C794 1.368 . S
C798 C797 1.523 . S
H799 C774 0.950 . S
H800 C776 0.950 . S
H801 C777 0.922 1_655 S
H802 C779 0.950 . S
H803 C781 0.950 . S
C804 C805 1.349 . S
C804 C806 1.327 . S
C804 H829 0.950 . S
C805 C804 1.349 . S
C805 C821 1.349 . S
C806 C804 1.327 . S
C806 C825 1.429 . S
C806 H830 0.950 . S
C807 C824 1.574 . S
C807 C826 1.368 . S
C807 H831 0.949 . S
H808 C812 0.949 . S
C809 C810 1.349 . S
C809 C811 1.327 . S
C809 H832 0.950 . S
C810 C809 1.349 . S
C810 C822 1.349 . S
C811 C809 1.327 . S
C811 C827 1.429 . S
C811 H833 0.950 . S
C812 H808 0.949 . S
C812 C820 1.574 . S
C812 C828 1.368 . S
H813 C821 0.950 . S
H814 C819 0.950 . S
H815 C820 0.949 . S
H816 C822 0.950 . S
H817 C823 0.950 . S
H818 C824 0.949 . S
C819 H814 0.950 . S
C819 C821 1.327 . S
C819 C825 1.429 . S
C820 C812 1.574 . S
C820 H815 0.949 . S
C820 C826 1.368 . S
C821 C805 1.349 . S
C821 H813 0.950 . S
C821 C819 1.327 . S
C822 C810 1.349 . S
C822 H816 0.950 . S
C822 C823 1.327 . S
C823 H817 0.950 . S
C823 C822 1.327 . S
C823 C827 1.429 . S
C824 C807 1.574 . S
C824 H818 0.949 . S
C824 C828 1.368 . S
C825 C806 1.429 . S
C825 C819 1.429 . S
C825 C826 1.523 . S
C826 C807 1.368 . S
C826 C820 1.368 . S
C826 C825 1.523 . S
C827 C811 1.429 . S
C827 C823 1.429 . S
C827 C828 1.523 . S
C828 C812 1.368 . S
C828 C824 1.368 . S
C828 C827 1.523 . S
H829 C804 0.950 . S
H830 C806 0.950 . S
H831 C807 0.949 . S
H832 C809 0.950 . S
H833 C811 0.950 . S
C834 C835 1.349 . S
C834 C836 1.327 . S
C834 H859 0.950 . S
C835 C834 1.349 . S
C835 C851 1.349 . S
C836 C834 1.327 . S
C836 C855 1.429 . S
C836 H860 0.950 . S
C837 C854 1.574 . S
C837 C856 1.368 1_565 S
C837 H861 0.949 . S
H838 C842 0.949 . S
C839 C840 1.349 . S
C839 C841 1.327 . S
C839 H862 0.950 . S
C840 C839 1.349 . S
C840 C852 1.349 . S
C841 C839 1.327 . S
C841 C857 1.429 . S
C841 H863 0.950 . S
C842 H838 0.949 . S
C842 C850 1.574 1_565 S
C842 C858 1.368 . S
H843 C851 0.950 . S
H844 C849 0.950 . S
H845 C850 0.949 . S
H846 C852 0.950 . S
H847 C853 0.950 . S
H848 C854 0.949 . S
C849 H844 0.950 . S
C849 C851 1.327 . S
C849 C855 1.429 . S
C850 C842 1.574 1_545 S
C850 H845 0.949 . S
C850 C856 1.368 . S
C851 C835 1.349 . S
C851 H843 0.950 . S
C851 C849 1.327 . S
C852 C840 1.349 . S
C852 H846 0.950 . S
C852 C853 1.327 . S
C853 H847 0.950 . S
C853 C852 1.327 . S
C853 C857 1.429 . S
C854 C837 1.574 . S
C854 H848 0.949 . S
C854 C858 1.368 . S
C855 C836 1.429 . S
C855 C849 1.429 . S
C855 C856 1.523 . S
C856 C837 1.368 1_545 S
C856 C850 1.368 . S
C856 C855 1.523 . S
C857 C841 1.429 . S
C857 C853 1.429 . S
C857 C858 1.523 . S
C858 C842 1.368 . S
C858 C854 1.368 . S
C858 C857 1.523 . S
H859 C834 0.950 . S
H860 C836 0.950 . S
H861 C837 0.949 . S
H862 C839 0.950 . S
H863 C841 0.950 . S
C864 C865 1.349 . S
C864 C866 1.327 . S
C864 H889 0.950 . S
C865 C864 1.349 . S
C865 C881 1.349 . S
C866 C864 1.327 . S
C866 C885 1.429 . S
C866 H890 0.950 . S
C867 C884 1.574 . S
C867 C886 1.368 . S
C867 H891 0.949 . S
H868 C872 0.949 . S
C869 C870 1.349 . S
C869 C871 1.327 . S
C869 H892 0.950 . S
C870 C869 1.349 . S
C870 C882 1.349 . S
C871 C869 1.327 . S
C871 C887 1.429 . S
C871 H893 0.950 . S
C872 H868 0.949 . S
C872 C880 1.574 . S
C872 C888 1.368 . S
H873 C881 0.950 . S
H874 C879 0.950 . S
H875 C880 0.949 . S
H876 C882 0.950 . S
H877 C883 0.950 . S
H878 C884 0.949 . S
C879 H874 0.950 . S
C879 C881 1.327 . S
C879 C885 1.429 . S
C880 C872 1.574 . S
C880 H875 0.949 . S
C880 C886 1.368 . S
C881 C865 1.349 . S
C881 H873 0.950 . S
C881 C879 1.327 . S
C882 C870 1.349 . S
C882 H876 0.950 . S
C882 C883 1.327 . S
C883 H877 0.950 . S
C883 C882 1.327 . S
C883 C887 1.429 . S
C884 C867 1.574 . S
C884 H878 0.949 . S
C884 C888 1.368 . S
C885 C866 1.429 . S
C885 C879 1.429 . S
C885 C886 1.523 . S
C886 C867 1.368 . S
C886 C880 1.368 . S
C886 C885 1.523 . S
C887 C871 1.429 . S
C887 C883 1.429 . S
C887 C888 1.523 . S
C888 C872 1.368 . S
C888 C884 1.368 . S
C888 C887 1.523 . S
H889 C864 0.950 . S
H890 C866 0.950 . S
H891 C867 0.949 . S
H892 C869 0.950 . S
H893 C871 0.950 . S
C894 C895 1.349 . S
C894 C896 1.327 . S
C894 H919 0.950 . S
C895 C894 1.349 . S
C895 C911 1.349 . S
C896 C894 1.327 . S
C896 C915 1.429 . S
C896 H920 0.950 . S
C897 C914 1.574 . S
C897 C916 1.368 . S
C897 H921 0.949 . S
H898 C902 0.949 . S
C899 C900 1.349 . S
C899 C901 1.327 . S
C899 H922 0.950 . S
C900 C899 1.349 . S
C900 C912 1.349 . S
C901 C899 1.327 . S
C901 C917 1.429 . S
C901 H923 0.950 . S
C902 H898 0.949 . S
C902 C910 1.574 . S
C902 C918 1.368 . S
H903 C911 0.950 . S
H904 C909 0.950 . S
H905 C910 0.949 . S
H906 C912 0.950 . S
H907 C913 0.950 . S
H908 C914 0.949 . S
C909 H904 0.950 . S
C909 C911 1.327 . S
C909 C915 1.429 . S
C910 C902 1.574 . S
C910 H905 0.949 . S
C910 C916 1.368 . S
C911 C895 1.349 . S
C911 H903 0.950 . S
C911 C909 1.327 . S
C912 C900 1.349 . S
C912 H906 0.950 . S
C912 C913 1.327 . S
C913 H907 0.950 . S
C913 C912 1.327 . S
C913 C917 1.429 . S
C914 C897 1.574 . S
C914 H908 0.949 . S
C914 C918 1.368 . S
C915 C896 1.429 . S
C915 C909 1.429 . S
C915 C916 1.523 . S
C916 C897 1.368 . S
C916 C910 1.368 . S
C916 C915 1.523 . S
C917 C901 1.429 . S
C917 C913 1.429 . S
C917 C918 1.523 . S
C918 C902 1.368 . S
C918 C914 1.368 . S
C918 C917 1.523 . S
H919 C894 0.950 . S
H920 C896 0.950 . S
H921 C897 0.949 . S
H922 C899 0.950 . S
H923 C901 0.950 . S
C924 C925 1.349 . S
C924 C926 1.327 . S
C924 H949 0.950 . S
C925 C924 1.349 . S
C925 C941 1.349 . S
C926 C924 1.327 . S
C926 C945 1.429 . S
C926 H950 0.950 . S
C927 C944 1.574 . S
C927 C946 1.368 . S
C927 H951 0.949 . S
H928 C932 0.949 . S
C929 C930 1.349 . S
C929 C931 1.327 . S
C929 H952 0.950 . S
C930 C929 1.349 . S
C930 C942 1.349 . S
C931 C929 1.327 . S
C931 C947 1.429 . S
C931 H953 0.950 . S
C932 H928 0.949 . S
C932 C940 1.574 . S
C932 C948 1.368 . S
H933 C941 0.950 . S
H934 C939 0.950 . S
H935 C940 0.949 . S
H936 C942 0.950 . S
H937 C943 0.950 . S
H938 C944 0.949 . S
C939 H934 0.950 . S
C939 C941 1.327 . S
C939 C945 1.429 . S
C940 C932 1.574 . S
C940 H935 0.949 . S
C940 C946 1.368 . S
C941 C925 1.349 . S
C941 H933 0.950 . S
C941 C939 1.327 . S
C942 C930 1.349 . S
C942 H936 0.950 . S
C942 C943 1.327 . S
C943 H937 0.950 . S
C943 C942 1.327 . S
C943 C947 1.429 . S
C944 C927 1.574 . S
C944 H938 0.949 . S
C944 C948 1.368 . S
C945 C926 1.429 . S
C945 C939 1.429 . S
C945 C946 1.523 . S
C946 C927 1.368 . S
C946 C940 1.368 . S
C946 C945 1.523 . S
C947 C931 1.429 . S
C947 C943 1.429 . S
C947 C948 1.523 . S
C948 C932 1.368 . S
C948 C944 1.368 . S
C948 C947 1.523 . S
H949 C924 0.950 . S
H950 C926 0.950 . S
H951 C927 0.949 . S
H952 C929 0.950 . S
H953 C931 0.950 . S
C954 C955 1.349 . S
C954 C956 1.327 . S
C954 H979 0.950 . S
C955 C954 1.349 . S
C955 C971 1.349 . S
C956 C954 1.327 . S
C956 C975 1.429 . S
C956 H980 0.950 . S
C957 C974 1.574 . S
C957 C976 1.368 . S
C957 H981 0.949 . S
H958 C962 0.949 . S
C959 C960 1.349 . S
C959 C961 1.327 . S
C959 H982 0.950 . S
C960 C959 1.349 . S
C960 C972 1.349 . S
C961 C959 1.327 . S
C961 C977 1.429 . S
C961 H983 0.950 . S
C962 H958 0.949 . S
C962 C970 1.574 . S
C962 C978 1.368 . S
H963 C971 0.950 . S
H964 C969 0.950 . S
H965 C970 0.949 . S
H966 C972 0.950 . S
H967 C973 0.950 . S
H968 C974 0.949 . S
C969 H964 0.950 . S
C969 C971 1.327 . S
C969 C975 1.429 . S
C970 C962 1.574 . S
C970 H965 0.949 . S
C970 C976 1.368 . S
C971 C955 1.349 . S
C971 H963 0.950 . S
C971 C969 1.327 . S
C972 C960 1.349 . S
C972 H966 0.950 . S
C972 C973 1.327 . S
C973 H967 0.950 . S
C973 C972 1.327 . S
C973 C977 1.429 . S
C974 C957 1.574 . S
C974 H968 0.949 . S
C974 C978 1.368 . S
C975 C956 1.429 . S
C975 C969 1.429 . S
C975 C976 1.523 . S
C976 C957 1.368 . S
C976 C970 1.368 . S
C976 C975 1.523 . S
C977 C961 1.429 . S
C977 C973 1.429 . S
C977 C978 1.523 . S
C978 C962 1.368 . S
C978 C974 1.368 . S
C978 C977 1.523 . S
H979 C954 0.950 . S
H980 C956 0.950 . S
H981 C957 0.949 . S
H982 C959 0.950 . S
H983 C961 0.950 . S
C984 C985 1.349 . S
C984 C986 1.327 . S
C984 H1009 0.950 . S
C985 C984 1.349 . S
C985 C1001 1.349 . S
C986 C984 1.327 . S
C986 C1005 1.429 . S
C986 H1010 0.950 . S
C987 C1004 1.574 . S
C987 C1006 1.368 . S
C987 H1011 0.949 . S
H988 C992 0.949 . S
C989 C990 1.349 . S
C989 C991 1.327 . S
C989 H1012 0.950 . S
C990 C989 1.349 . S
C990 C1002 1.349 . S
C991 C989 1.327 . S
C991 C1007 1.429 . S
C991 H1013 0.950 . S
C992 H988 0.949 . S
C992 C1000 1.574 . S
C992 C1008 1.368 . S
H993 C1001 0.950 . S
H994 C999 0.950 . S
H995 C1000 0.949 . S
H996 C1002 0.950 . S
H997 C1003 0.950 . S
H998 C1004 0.949 . S
C999 H994 0.950 . S
C999 C1001 1.327 . S
C999 C1005 1.429 . S
C1000 C992 1.574 . S
C1000 H995 0.949 . S
C1000 C1006 1.368 . S
C1001 C985 1.349 . S
C1001 H993 0.950 . S
C1001 C999 1.327 . S
C1002 C990 1.349 . S
C1002 H996 0.950 . S
C1002 C1003 1.327 . S
C1003 H997 0.950 . S
C1003 C1002 1.327 . S
C1003 C1007 1.429 . S
C1004 C987 1.574 . S
C1004 H998 0.949 . S
C1004 C1008 1.368 . S
C1005 C986 1.429 . S
C1005 C999 1.429 . S
C1005 C1006 1.523 . S
C1006 C987 1.368 . S
C1006 C1000 1.368 . S
C1006 C1005 1.523 . S
C1007 C991 1.429 . S
C1007 C1003 1.429 . S
C1007 C1008 1.523 . S
C1008 C992 1.368 . S
C1008 C1004 1.368 . S
C1008 C1007 1.523 . S
H1009 C984 0.950 . S
H1010 C986 0.950 . S
H1011 C987 0.949 . S
H1012 C989 0.950 . S
H1013 C991 0.950 . S
C1014 C1015 1.349 . S
C1014 C1016 1.327 . S
C1014 H1039 0.950 . S
C1015 C1014 1.349 . S
C1015 C1031 1.349 . S
C1016 C1014 1.327 . S
C1016 C1035 1.429 . S
C1016 H1040 0.950 . S
C1017 C1034 1.574 . S
C1017 C1036 1.368 . S
C1017 H1041 0.949 . S
H1018 C1022 0.949 . S
C1019 C1020 1.349 . S
C1019 C1021 1.327 . S
C1019 H1042 0.950 . S
C1020 C1019 1.349 . S
C1020 C1032 1.349 . S
C1021 C1019 1.327 . S
C1021 C1037 1.429 . S
C1021 H1043 0.950 . S
C1022 H1018 0.949 . S
C1022 C1030 1.574 . S
C1022 C1038 1.368 . S
H1023 C1031 0.950 . S
H1024 C1029 0.950 . S
H1025 C1030 0.949 . S
H1026 C1032 0.950 . S
H1027 C1033 0.950 . S
H1028 C1034 0.949 . S
C1029 H1024 0.950 . S
C1029 C1031 1.327 . S
C1029 C1035 1.429 . S
C1030 C1022 1.574 . S
C1030 H1025 0.949 . S
C1030 C1036 1.368 . S
C1031 C1015 1.349 . S
C1031 H1023 0.950 . S
C1031 C1029 1.327 . S
C1032 C1020 1.349 . S
C1032 H1026 0.950 . S
C1032 C1033 1.327 . S
C1033 H1027 0.950 . S
C1033 C1032 1.327 . S
C1033 C1037 1.429 . S
C1034 C1017 1.574 . S
C1034 H1028 0.949 . S
C1034 C1038 1.368 . S
C1035 C1016 1.429 . S
C1035 C1029 1.429 . S
C1035 C1036 1.523 . S
C1036 C1017 1.368 . S
C1036 C1030 1.368 . S
C1036 C1035 1.523 . S
C1037 C1021 1.429 . S
C1037 C1033 1.429 . S
C1037 C1038 1.523 . S
C1038 C1022 1.368 . S
C1038 C1034 1.368 . S
C1038 C1037 1.523 . S
H1039 C1014 0.950 . S
H1040 C1016 0.950 . S
H1041 C1017 0.949 . S
H1042 C1019 0.950 . S
H1043 C1021 0.950 . S
C1044 C1045 1.349 . S
C1044 C1046 1.327 . S
C1044 H1069 0.950 . S
C1045 C1044 1.349 . S
C1045 C1061 1.349 . S
C1046 C1044 1.327 . S
C1046 C1065 1.429 . S
C1046 H1070 0.950 . S
C1047 C1064 1.574 . S
C1047 C1066 1.368 . S
C1047 H1071 0.949 . S
H1048 C1052 0.949 . S
C1049 C1050 1.349 . S
C1049 C1051 1.327 . S
C1049 H1072 0.950 . S
C1050 C1049 1.349 . S
C1050 C1062 1.349 . S
C1051 C1049 1.327 . S
C1051 C1067 1.429 . S
C1051 H1073 0.950 . S
C1052 H1048 0.949 . S
C1052 C1060 1.574 . S
C1052 C1068 1.368 . S
H1053 C1061 0.950 . S
H1054 C1059 0.950 . S
H1055 C1060 0.949 . S
H1056 C1062 0.950 . S
H1057 C1063 0.950 . S
H1058 C1064 0.949 . S
C1059 H1054 0.950 . S
C1059 C1061 1.327 . S
C1059 C1065 1.429 . S
C1060 C1052 1.574 . S
C1060 H1055 0.949 . S
C1060 C1066 1.368 . S
C1061 C1045 1.349 . S
C1061 H1053 0.950 . S
C1061 C1059 1.327 . S
C1062 C1050 1.349 . S
C1062 H1056 0.950 . S
C1062 C1063 1.327 . S
C1063 H1057 0.950 . S
C1063 C1062 1.327 . S
C1063 C1067 1.429 . S
C1064 C1047 1.574 . S
C1064 H1058 0.949 . S
C1064 C1068 1.368 . S
C1065 C1046 1.429 . S
C1065 C1059 1.429 . S
C1065 C1066 1.523 . S
C1066 C1047 1.368 . S
C1066 C1060 1.368 . S
C1066 C1065 1.523 . S
C1067 C1051 1.429 . S
C1067 C1063 1.429 . S
C1067 C1068 1.523 . S
C1068 C1052 1.368 . S
C1068 C1064 1.368 . S
C1068 C1067 1.523 . S
H1069 C1044 0.950 . S
H1070 C1046 0.950 . S
H1071 C1047 0.949 . S
H1072 C1049 0.950 . S
H1073 C1051 0.950 . S
C1074 C1075 1.349 . S
C1074 C1076 1.327 . S
C1074 H1099 0.950 . S
C1075 C1074 1.349 . S
C1075 C1091 1.349 . S
C1076 C1074 1.327 . S
C1076 C1095 1.429 . S
C1076 H1100 0.950 . S
C1077 C1094 1.574 . S
C1077 C1096 1.368 . S
C1077 H1101 0.949 . S
H1078 C1082 0.949 . S
C1079 C1080 1.349 . S
C1079 C1081 1.327 . S
C1079 H1102 0.950 . S
C1080 C1079 1.349 . S
C1080 C1092 1.349 . S
C1081 C1079 1.327 . S
C1081 C1097 1.429 . S
C1081 H1103 0.950 . S
C1082 H1078 0.949 . S
C1082 C1090 1.574 . S
C1082 C1098 1.368 . S
H1083 C1091 0.950 . S
H1084 C1089 0.950 . S
H1085 C1090 0.949 . S
H1086 C1092 0.950 . S
H1087 C1093 0.950 . S
H1088 C1094 0.949 . S
C1089 H1084 0.950 . S
C1089 C1091 1.327 . S
C1089 C1095 1.429 . S
C1090 C1082 1.574 . S
C1090 H1085 0.949 . S
C1090 C1096 1.368 . S
C1091 C1075 1.349 . S
C1091 H1083 0.950 . S
C1091 C1089 1.327 . S
C1092 C1080 1.349 . S
C1092 H1086 0.950 . S
C1092 C1093 1.327 . S
C1093 H1087 0.950 . S
C1093 C1092 1.327 . S
C1093 C1097 1.429 . S
C1094 C1077 1.574 . S
C1094 H1088 0.949 . S
C1094 C1098 1.368 . S
C1095 C1076 1.429 . S
C1095 C1089 1.429 . S
C1095 C1096 1.523 . S
C1096 C1077 1.368 . S
C1096 C1090 1.368 . S
C1096 C1095 1.523 . S
C1097 C1081 1.429 . S
C1097 C1093 1.429 . S
C1097 C1098 1.523 . S
C1098 C1082 1.368 . S
C1098 C1094 1.368 . S
C1098 C1097 1.523 . S
H1099 C1074 0.950 . S
H1100 C1076 0.950 . S
H1101 C1077 0.949 . S
H1102 C1079 0.950 . S
H1103 C1081 0.950 . S
C1104 C1105 1.349 . S
C1104 C1106 1.327 . S
C1104 H1129 0.950 . S
C1105 C1104 1.349 . S
C1105 C1121 1.349 . S
C1106 C1104 1.327 . S
C1106 C1125 1.429 . S
C1106 H1130 0.950 . S
C1107 C1124 1.574 . S
C1107 C1126 1.368 . S
C1107 H1131 0.949 . S
H1108 C1112 0.949 . S
C1109 C1110 1.349 . S
C1109 C1111 1.327 . S
C1109 H1132 0.950 . S
C1110 C1109 1.349 . S
C1110 C1122 1.349 . S
C1111 C1109 1.327 . S
C1111 C1127 1.429 . S
C1111 H1133 0.950 . S
C1112 H1108 0.949 . S
C1112 C1120 1.574 . S
C1112 C1128 1.368 . S
H1113 C1121 0.950 . S
H1114 C1119 0.950 . S
H1115 C1120 0.949 . S
H1116 C1122 0.950 . S
H1117 C1123 0.950 . S
H1118 C1124 0.949 . S
C1119 H1114 0.950 . S
C1119 C1121 1.327 . S
C1119 C1125 1.429 . S
C1120 C1112 1.574 . S
C1120 H1115 0.949 . S
C1120 C1126 1.368 . S
C1121 C1105 1.349 . S
C1121 H1113 0.950 . S
C1121 C1119 1.327 . S
C1122 C1110 1.349 . S
C1122 H1116 0.950 . S
C1122 C1123 1.327 . S
C1123 H1117 0.950 . S
C1123 C1122 1.327 . S
C1123 C1127 1.429 . S
C1124 C1107 1.574 . S
C1124 H1118 0.949 . S
C1124 C1128 1.368 . S
C1125 C1106 1.429 . S
C1125 C1119 1.429 . S
C1125 C1126 1.523 . S
C1126 C1107 1.368 . S
C1126 C1120 1.368 . S
C1126 C1125 1.523 . S
C1127 C1111 1.429 . S
C1127 C1123 1.429 . S
C1127 C1128 1.523 . S
C1128 C1112 1.368 . S
C1128 C1124 1.368 . S
C1128 C1127 1.523 . S
H1129 C1104 0.950 . S
H1130 C1106 0.950 . S
H1131 C1107 0.949 . S
H1132 C1109 0.950 . S
H1133 C1111 0.950 . S
C1134 C1135 1.349 . S
C1134 C1136 1.327 . S
C1134 H1159 0.950 . S
C1135 C1134 1.349 . S
C1135 C1151 1.349 . S
C1136 C1134 1.327 . S
C1136 C1155 1.429 . S
C1136 H1160 0.950 . S
C1137 C1154 1.574 . S
C1137 C1156 1.368 . S
C1137 H1161 0.949 . S
H1138 C1142 0.949 . S
C1139 C1140 1.349 . S
C1139 C1141 1.327 . S
C1139 H1162 0.950 . S
C1140 C1139 1.349 . S
C1140 C1152 1.349 . S
C1141 C1139 1.327 . S
C1141 C1157 1.429 . S
C1141 H1163 0.950 . S
C1142 H1138 0.949 . S
C1142 C1150 1.574 . S
C1142 C1158 1.368 . S
H1143 C1151 0.950 . S
H1144 C1149 0.950 . S
H1145 C1150 0.949 . S
H1146 C1152 0.950 . S
H1147 C1153 0.950 . S
H1148 C1154 0.949 . S
C1149 H1144 0.950 . S
C1149 C1151 1.327 . S
C1149 C1155 1.429 . S
C1150 C1142 1.574 . S
C1150 H1145 0.949 . S
C1150 C1156 1.368 . S
C1151 C1135 1.349 . S
C1151 H1143 0.950 . S
C1151 C1149 1.327 . S
C1152 C1140 1.349 . S
C1152 H1146 0.950 . S
C1152 C1153 1.327 . S
C1153 H1147 0.950 . S
C1153 C1152 1.327 . S
C1153 C1157 1.429 . S
C1154 C1137 1.574 . S
C1154 H1148 0.949 . S
C1154 C1158 1.368 . S
C1155 C1136 1.429 . S
C1155 C1149 1.429 . S
C1155 C1156 1.523 . S
C1156 C1137 1.368 . S
C1156 C1150 1.368 . S
C1156 C1155 1.523 . S
C1157 C1141 1.429 . S
C1157 C1153 1.429 . S
C1157 C1158 1.523 . S
C1158 C1142 1.368 . S
C1158 C1154 1.368 . S
C1158 C1157 1.523 . S
H1159 C1134 0.950 . S
H1160 C1136 0.950 . S
H1161 C1137 0.949 . S
H1162 C1139 0.950 . S
H1163 C1141 0.950 . S
C1164 C1165 1.349 . S
C1164 C1166 1.327 . S
C1164 H1189 0.950 . S
C1165 C1164 1.349 . S
C1165 C1181 1.349 . S
C1166 C1164 1.327 . S
C1166 C1185 1.429 . S
C1166 H1190 0.950 . S
C1167 C1184 1.574 . S
C1167 C1186 1.368 . S
C1167 H1191 0.949 . S
H1168 C1172 0.949 . S
C1169 C1170 1.349 . S
C1169 C1171 1.327 . S
C1169 H1192 0.950 . S
C1170 C1169 1.349 . S
C1170 C1182 1.349 . S
C1171 C1169 1.327 . S
C1171 C1187 1.429 . S
C1171 H1193 0.950 . S
C1172 H1168 0.949 . S
C1172 C1180 1.574 . S
C1172 C1188 1.368 . S
H1173 C1181 0.950 . S
H1174 C1179 0.950 . S
H1175 C1180 0.949 . S
H1176 C1182 0.950 . S
H1177 C1183 0.950 . S
H1178 C1184 0.949 . S
C1179 H1174 0.950 . S
C1179 C1181 1.327 . S
C1179 C1185 1.429 . S
C1180 C1172 1.574 . S
C1180 H1175 0.949 . S
C1180 C1186 1.368 . S
C1181 C1165 1.349 . S
C1181 H1173 0.950 . S
C1181 C1179 1.327 . S
C1182 C1170 1.349 . S
C1182 H1176 0.950 . S
C1182 C1183 1.327 . S
C1183 H1177 0.950 . S
C1183 C1182 1.327 . S
C1183 C1187 1.429 . S
C1184 C1167 1.574 . S
C1184 H1178 0.949 . S
C1184 C1188 1.368 . S
C1185 C1166 1.429 . S
C1185 C1179 1.429 . S
C1185 C1186 1.523 . S
C1186 C1167 1.368 . S
C1186 C1180 1.368 . S
C1186 C1185 1.523 . S
C1187 C1171 1.429 . S
C1187 C1183 1.429 . S
C1187 C1188 1.523 . S
C1188 C1172 1.368 . S
C1188 C1184 1.368 . S
C1188 C1187 1.523 . S
H1189 C1164 0.950 . S
H1190 C1166 0.950 . S
H1191 C1167 0.949 . S
H1192 C1169 0.950 . S
H1193 C1171 0.950 . S
C1194 C1195 1.349 . S
C1194 C1196 1.327 . S
C1194 H1219 0.950 . S
C1195 C1194 1.349 . S
C1195 C1211 1.349 . S
C1196 C1194 1.327 . S
C1196 C1215 1.429 . S
C1196 H1220 0.950 . S
C1197 C1214 1.574 . S
C1197 C1216 1.368 . S
C1197 H1221 0.949 . S
H1198 C1202 0.949 . S
C1199 C1200 1.349 . S
C1199 C1201 1.327 . S
C1199 H1222 0.950 . S
C1200 C1199 1.349 . S
C1200 C1212 1.349 . S
C1201 C1199 1.327 . S
C1201 C1217 1.429 . S
C1201 H1223 0.950 . S
C1202 H1198 0.949 . S
C1202 C1210 1.574 . S
C1202 C1218 1.368 . S
H1203 C1211 0.950 . S
H1204 C1209 0.950 . S
H1205 C1210 0.949 . S
H1206 C1212 0.950 . S
H1207 C1213 0.950 . S
H1208 C1214 0.949 . S
C1209 H1204 0.950 . S
C1209 C1211 1.327 . S
C1209 C1215 1.429 . S
C1210 C1202 1.574 . S
C1210 H1205 0.949 . S
C1210 C1216 1.368 . S
C1211 C1195 1.349 . S
C1211 H1203 0.950 . S
C1211 C1209 1.327 . S
C1212 C1200 1.349 . S
C1212 H1206 0.950 . S
C1212 C1213 1.327 . S
C1213 H1207 0.950 . S
C1213 C1212 1.327 . S
C1213 C1217 1.429 . S
C1214 C1197 1.574 . S
C1214 H1208 0.949 . S
C1214 C1218 1.368 . S
C1215 C1196 1.429 . S
C1215 C1209 1.429 . S
C1215 C1216 1.523 . S
C1216 C1197 1.368 . S
C1216 C1210 1.368 . S
C1216 C1215 1.523 . S
C1217 C1201 1.429 . S
C1217 C1213 1.429 . S
C1217 C1218 1.523 . S
C1218 C1202 1.368 . S
C1218 C1214 1.368 . S
C1218 C1217 1.523 . S
H1219 C1194 0.950 . S
H1220 C1196 0.950 . S
H1221 C1197 0.949 . S
H1222 C1199 0.950 . S
H1223 C1201 0.950 . S
C1224 C1225 1.349 . S
C1224 C1226 1.327 . S
C1224 H1249 0.950 . S
C1225 C1224 1.349 . S
C1225 C1241 1.349 . S
C1226 C1224 1.327 . S
C1226 C1245 1.429 . S
C1226 H1250 0.950 . S
C1227 C1244 1.574 . S
C1227 C1246 1.368 . S
C1227 H1251 0.949 . S
H1228 C1232 0.949 . S
C1229 C1230 1.349 . S
C1229 C1231 1.327 . S
C1229 H1252 0.950 . S
C1230 C1229 1.349 . S
C1230 C1242 1.349 . S
C1231 C1229 1.327 . S
C1231 C1247 1.429 . S
C1231 H1253 0.950 . S
C1232 H1228 0.949 . S
C1232 C1240 1.574 . S
C1232 C1248 1.368 . S
H1233 C1241 0.950 . S
H1234 C1239 0.950 . S
H1235 C1240 0.949 . S
H1236 C1242 0.950 . S
H1237 C1243 0.950 . S
H1238 C1244 0.949 . S
C1239 H1234 0.950 . S
C1239 C1241 1.327 . S
C1239 C1245 1.429 . S
C1240 C1232 1.574 . S
C1240 H1235 0.949 . S
C1240 C1246 1.368 . S
C1241 C1225 1.349 . S
C1241 H1233 0.950 . S
C1241 C1239 1.327 . S
C1242 C1230 1.349 . S
C1242 H1236 0.950 . S
C1242 C1243 1.327 . S
C1243 H1237 0.950 . S
C1243 C1242 1.327 . S
C1243 C1247 1.429 . S
C1244 C1227 1.574 . S
C1244 H1238 0.949 . S
C1244 C1248 1.368 . S
C1245 C1226 1.429 . S
C1245 C1239 1.429 . S
C1245 C1246 1.523 . S
C1246 C1227 1.368 . S
C1246 C1240 1.368 . S
C1246 C1245 1.523 . S
C1247 C1231 1.429 . S
C1247 C1243 1.429 . S
C1247 C1248 1.523 . S
C1248 C1232 1.368 . S
C1248 C1244 1.368 . S
C1248 C1247 1.523 . S
H1249 C1224 0.950 . S
H1250 C1226 0.950 . S
H1251 C1227 0.949 . S
H1252 C1229 0.950 . S
H1253 C1231 0.950 . S
C1254 C1255 1.349 . S
C1254 C1256 1.327 . S
C1254 H1279 0.950 . S
C1255 C1254 1.349 . S
C1255 C1271 1.349 . S
C1256 C1254 1.327 . S
C1256 C1275 1.429 . S
C1256 H1280 0.950 . S
C1257 C1274 1.574 . S
C1257 C1276 1.368 . S
C1257 H1281 0.949 . S
H1258 C1262 0.949 . S
C1259 C1260 1.349 . S
C1259 C1261 1.327 . S
C1259 H1282 0.950 . S
C1260 C1259 1.349 . S
C1260 C1272 1.349 . S
C1261 C1259 1.327 . S
C1261 C1277 1.429 . S
C1261 H1283 0.950 . S
C1262 H1258 0.949 . S
C1262 C1270 1.574 . S
C1262 C1278 1.368 . S
H1263 C1271 0.950 . S
H1264 C1269 0.950 . S
H1265 C1270 0.949 . S
H1266 C1272 0.950 . S
H1267 C1273 0.950 . S
H1268 C1274 0.949 . S
C1269 H1264 0.950 . S
C1269 C1271 1.327 . S
C1269 C1275 1.429 . S
C1270 C1262 1.574 . S
C1270 H1265 0.949 . S
C1270 C1276 1.368 . S
C1271 C1255 1.349 . S
C1271 H1263 0.950 . S
C1271 C1269 1.327 . S
C1272 C1260 1.349 . S
C1272 H1266 0.950 . S
C1272 C1273 1.327 . S
C1273 H1267 0.950 . S
C1273 C1272 1.327 . S
C1273 C1277 1.429 . S
C1274 C1257 1.574 . S
C1274 H1268 0.949 . S
C1274 C1278 1.368 . S
C1275 C1256 1.429 . S
C1275 C1269 1.429 . S
C1275 C1276 1.523 . S
C1276 C1257 1.368 . S
C1276 C1270 1.368 . S
C1276 C1275 1.523 . S
C1277 C1261 1.429 . S
C1277 C1273 1.429 . S
C1277 C1278 1.523 . S
C1278 C1262 1.368 . S
C1278 C1274 1.368 . S
C1278 C1277 1.523 . S
H1279 C1254 0.950 . S
H1280 C1256 0.950 . S
H1281 C1257 0.949 . S
H1282 C1259 0.950 . S
H1283 C1261 0.950 . S
C1284 C1285 1.349 . S
C1284 C1286 1.327 . S
C1284 H1309 0.950 . S
C1285 C1284 1.349 . S
C1285 C1301 1.349 . S
C1286 C1284 1.327 . S
C1286 C1305 1.429 . S
C1286 H1310 0.950 . S
C1287 C1304 1.574 . S
C1287 C1306 1.368 . S
C1287 H1311 0.949 . S
H1288 C1292 0.949 . S
C1289 C1290 1.349 . S
C1289 C1291 1.327 . S
C1289 H1312 0.950 . S
C1290 C1289 1.349 . S
C1290 C1302 1.349 . S
C1291 C1289 1.327 . S
C1291 C1307 1.429 . S
C1291 H1313 0.950 . S
C1292 H1288 0.949 . S
C1292 C1300 1.574 . S
C1292 C1308 1.368 . S
H1293 C1301 0.950 . S
H1294 C1299 0.950 . S
H1295 C1300 0.949 . S
H1296 C1302 0.950 . S
H1297 C1303 0.950 . S
H1298 C1304 0.949 . S
C1299 H1294 0.950 . S
C1299 C1301 1.327 . S
C1299 C1305 1.429 . S
C1300 C1292 1.574 . S
C1300 H1295 0.949 . S
C1300 C1306 1.368 . S
C1301 C1285 1.349 . S
C1301 H1293 0.950 . S
C1301 C1299 1.327 . S
C1302 C1290 1.349 . S
C1302 H1296 0.950 . S
C1302 C1303 1.327 . S
C1303 H1297 0.950 . S
C1303 C1302 1.327 . S
C1303 C1307 1.429 . S
C1304 C1287 1.574 . S
C1304 H1298 0.949 . S
C1304 C1308 1.368 . S
C1305 C1286 1.429 . S
C1305 C1299 1.429 . S
C1305 C1306 1.523 . S
C1306 C1287 1.368 . S
C1306 C1300 1.368 . S
C1306 C1305 1.523 . S
C1307 C1291 1.429 . S
C1307 C1303 1.429 . S
C1307 C1308 1.523 . S
C1308 C1292 1.368 . S
C1308 C1304 1.368 . S
C1308 C1307 1.523 . S
H1309 C1284 0.950 . S
H1310 C1286 0.950 . S
H1311 C1287 0.949 . S
H1312 C1289 0.950 . S
H1313 C1291 0.950 . S
C1314 C1315 1.349 . S
C1314 C1316 1.327 . S
C1314 H1339 0.950 . S
C1315 C1314 1.349 . S
C1315 C1331 1.349 . S
C1316 C1314 1.327 . S
C1316 C1335 1.429 . S
C1316 H1340 0.950 . S
C1317 C1334 1.574 . S
C1317 C1336 1.368 . S
C1317 H1341 0.949 . S
H1318 C1322 0.949 . S
C1319 C1320 1.349 . S
C1319 C1321 1.327 . S
C1319 H1342 0.950 . S
C1320 C1319 1.349 . S
C1320 C1332 1.349 . S
C1321 C1319 1.327 . S
C1321 C1337 1.429 . S
C1321 H1343 0.950 . S
C1322 H1318 0.949 . S
C1322 C1330 1.574 . S
C1322 C1338 1.368 . S
H1323 C1331 0.950 . S
H1324 C1329 0.950 . S
H1325 C1330 0.949 . S
H1326 C1332 0.950 . S
H1327 C1333 0.950 . S
H1328 C1334 0.949 . S
C1329 H1324 0.950 . S
C1329 C1331 1.327 . S
C1329 C1335 1.429 . S
C1330 C1322 1.574 . S
C1330 H1325 0.949 . S
C1330 C1336 1.368 . S
C1331 C1315 1.349 . S
C1331 H1323 0.950 . S
C1331 C1329 1.327 . S
C1332 C1320 1.349 . S
C1332 H1326 0.950 . S
C1332 C1333 1.327 . S
C1333 H1327 0.950 . S
C1333 C1332 1.327 . S
C1333 C1337 1.429 . S
C1334 C1317 1.574 . S
C1334 H1328 0.949 . S
C1334 C1338 1.368 . S
C1335 C1316 1.429 . S
C1335 C1329 1.429 . S
C1335 C1336 1.523 . S
C1336 C1317 1.368 . S
C1336 C1330 1.368 . S
C1336 C1335 1.523 . S
C1337 C1321 1.429 . S
C1337 C1333 1.429 . S
C1337 C1338 1.523 . S
C1338 C1322 1.368 . S
C1338 C1334 1.368 . S
C1338 C1337 1.523 . S
H1339 C1314 0.950 . S
H1340 C1316 0.950 . S
H1341 C1317 0.949 . S
H1342 C1319 0.950 . S
H1343 C1321 0.950 . S
C1344 C1345 1.349 . S
C1344 C1346 1.327 . S
C1344 H1369 0.950 . S
C1345 C1344 1.349 . S
C1345 C1361 1.349 . S
C1346 C1344 1.327 . S
C1346 C1365 1.429 . S
C1346 H1370 0.950 . S
C1347 C1364 1.574 . S
C1347 C1366 1.368 . S
C1347 H1371 0.949 . S
H1348 C1352 0.949 . S
C1349 C1350 1.349 . S
C1349 C1351 1.327 . S
C1349 H1372 0.950 . S
C1350 C1349 1.349 . S
C1350 C1362 1.349 . S
C1351 C1349 1.327 . S
C1351 C1367 1.429 . S
C1351 H1373 0.950 . S
C1352 H1348 0.949 . S
C1352 C1360 1.574 . S
C1352 C1368 1.368 . S
H1353 C1361 0.950 . S
H1354 C1359 0.950 . S
H1355 C1360 0.949 . S
H1356 C1362 0.950 . S
H1357 C1363 0.950 . S
H1358 C1364 0.949 . S
C1359 H1354 0.950 . S
C1359 C1361 1.327 . S
C1359 C1365 1.429 . S
C1360 C1352 1.574 . S
C1360 H1355 0.949 . S
C1360 C1366 1.368 . S
C1361 C1345 1.349 . S
C1361 H1353 0.950 . S
C1361 C1359 1.327 . S
C1362 C1350 1.349 . S
C1362 H1356 0.950 . S
C1362 C1363 1.327 . S
C1363 H1357 0.950 . S
C1363 C1362 1.327 . S
C1363 C1367 1.429 . S
C1364 C1347 1.574 . S
C1364 H1358 0.949 . S
C1364 C1368 1.368 . S
C1365 C1346 1.429 . S
C1365 C1359 1.429 . S
C1365 C1366 1.523 . S
C1366 C1347 1.368 . S
C1366 C1360 1.368 . S
C1366 C1365 1.523 . S
C1367 C1351 1.429 . S
C1367 C1363 1.429 . S
C1367 C1368 1.523 . S
C1368 C1352 1.368 . S
C1368 C1364 1.368 . S
C1368 C1367 1.523 . S
H1369 C1344 0.950 . S
H1370 C1346 0.950 . S
H1371 C1347 0.949 . S
H1372 C1349 0.950 . S
H1373 C1351 0.950 . S
C1374 C1375 1.349 . S
C1374 C1376 1.327 . S
C1374 H1399 0.950 . S
C1375 C1374 1.349 . S
C1375 C1391 1.349 . S
C1376 C1374 1.327 . S
C1376 C1395 1.429 . S
C1376 H1400 0.950 . S
C1377 C1394 1.574 . S
C1377 C1396 1.368 . S
C1377 H1401 0.949 . S
H1378 C1382 0.949 . S
C1379 C1380 1.349 . S
C1379 C1381 1.327 . S
C1379 H1402 0.950 . S
C1380 C1379 1.349 . S
C1380 C1392 1.349 . S
C1381 C1379 1.327 . S
C1381 C1397 1.429 . S
C1381 H1403 0.950 . S
C1382 H1378 0.949 . S
C1382 C1390 1.574 . S
C1382 C1398 1.368 . S
H1383 C1391 0.950 . S
H1384 C1389 0.950 . S
H1385 C1390 0.949 . S
H1386 C1392 0.950 . S
H1387 C1393 0.950 . S
H1388 C1394 0.949 . S
C1389 H1384 0.950 . S
C1389 C1391 1.327 . S
C1389 C1395 1.429 . S
C1390 C1382 1.574 . S
C1390 H1385 0.949 . S
C1390 C1396 1.368 . S
C1391 C1375 1.349 . S
C1391 H1383 0.950 . S
C1391 C1389 1.327 . S
C1392 C1380 1.349 . S
C1392 H1386 0.950 . S
C1392 C1393 1.327 . S
C1393 H1387 0.950 . S
C1393 C1392 1.327 . S
C1393 C1397 1.429 . S
C1394 C1377 1.574 . S
C1394 H1388 0.949 . S
C1394 C1398 1.368 . S
C1395 C1376 1.429 . S
C1395 C1389 1.429 . S
C1395 C1396 1.523 . S
C1396 C1377 1.368 . S
C1396 C1390 1.368 . S
C1396 C1395 1.523 . S
C1397 C1381 1.429 . S
C1397 C1393 1.429 . S
C1397 C1398 1.523 . S
C1398 C1382 1.368 . S
C1398 C1394 1.368 . S
C1398 C1397 1.523 . S
H1399 C1374 0.950 . S
H1400 C1376 0.950 . S
H1401 C1377 0.949 . S
H1402 C1379 0.950 . S
H1403 C1381 0.950 . S
C1404 C1405 1.349 . S
C1404 C1406 1.327 . S
C1404 H1429 0.950 . S
C1405 C1404 1.349 . S
C1405 C1421 1.349 . S
C1406 C1404 1.327 . S
C1406 C1425 1.429 . S
C1406 H1430 0.950 . S
C1407 C1424 1.574 . S
C1407 C1426 1.368 . S
C1407 H1431 0.949 . S
H1408 C1412 0.949 . S
C1409 C1410 1.349 . S
C1409 C1411 1.327 . S
C1409 H1432 0.950 . S
C1410 C1409 1.349 . S
C1410 C1422 1.349 . S
C1411 C1409 1.327 . S
C1411 C1427 1.429 . S
C1411 H1433 0.950 . S
C1412 H1408 0.949 . S
C1412 C1420 1.574 . S
C1412 C1428 1.368 . S
H1413 C1421 0.950 . S
H1414 C1419 0.950 . S
H1415 C1420 0.949 . S
H1416 C1422 0.950 . S
H1417 C1423 0.950 . S
H1418 C1424 0.949 . S
C1419 H1414 0.950 . S
C1419 C1421 1.327 . S
C1419 C1425 1.429 . S
C1420 C1412 1.574 . S
C1420 H1415 0.949 . S
C1420 C1426 1.368 . S
C1421 C1405 1.349 . S
C1421 H1413 0.950 . S
C1421 C1419 1.327 . S
C1422 C1410 1.349 . S
C1422 H1416 0.950 . S
C1422 C1423 1.327 . S
C1423 H1417 0.950 . S
C1423 C1422 1.327 . S
C1423 C1427 1.429 . S
C1424 C1407 1.574 . S
C1424 H1418 0.949 . S
C1424 C1428 1.368 . S
C1425 C1406 1.429 . S
C1425 C1419 1.429 . S
C1425 C1426 1.523 . S
C1426 C1407 1.368 . S
C1426 C1420 1.368 . S
C1426 C1425 1.523 . S
C1427 C1411 1.429 . S
C1427 C1423 1.429 . S
C1427 C1428 1.523 . S
C1428 C1412 1.368 . S
C1428 C1424 1.368 . S
C1428 C1427 1.523 . S
H1429 C1404 0.950 . S
H1430 C1406 0.950 . S
H1431 C1407 0.949 . S
H1432 C1409 0.950 . S
H1433 C1411 0.950 . S
C1434 C1435 1.349 . S
C1434 C1436 1.327 . S
C1434 H1459 0.950 . S
C1435 C1434 1.349 . S
C1435 C1451 1.349 . S
C1436 C1434 1.327 . S
C1436 C1455 1.429 . S
C1436 H1460 0.950 . S
C1437 C1454 1.574 . S
C1437 C1456 1.368 . S
C1437 H1461 0.949 . S
H1438 C1442 0.949 . S
C1439 C1440 1.349 . S
C1439 C1441 1.327 . S
C1439 H1462 0.950 . S
C1440 C1439 1.349 . S
C1440 C1452 1.349 . S
C1441 C1439 1.327 . S
C1441 C1457 1.429 . S
C1441 H1463 0.950 . S
C1442 H1438 0.949 . S
C1442 C1450 1.574 . S
C1442 C1458 1.368 . S
H1443 C1451 0.950 . S
H1444 C1449 0.950 . S
H1445 C1450 0.949 . S
H1446 C1452 0.950 . S
H1447 C1453 0.950 . S
H1448 C1454 0.949 . S
C1449 H1444 0.950 . S
C1449 C1451 1.327 . S
C1449 C1455 1.429 . S
C1450 C1442 1.574 . S
C1450 H1445 0.949 . S
C1450 C1456 1.368 . S
C1451 C1435 1.349 . S
C1451 H1443 0.950 . S
C1451 C1449 1.327 . S
C1452 C1440 1.349 . S
C1452 H1446 0.950 . S
C1452 C1453 1.327 . S
C1453 H1447 0.950 . S
C1453 C1452 1.327 . S
C1453 C1457 1.429 . S
C1454 C1437 1.574 . S
C1454 H1448 0.949 . S
C1454 C1458 1.368 . S
C1455 C1436 1.429 . S
C1455 C1449 1.429 . S
C1455 C1456 1.523 . S
C1456 C1437 1.368 . S
C1456 C1450 1.368 . S
C1456 C1455 1.523 . S
C1457 C1441 1.429 . S
C1457 C1453 1.429 . S
C1457 C1458 1.523 . S
C1458 C1442 1.368 . S
C1458 C1454 1.368 . S
C1458 C1457 1.523 . S
H1459 C1434 0.950 . S
H1460 C1436 0.950 . S
H1461 C1437 0.949 . S
H1462 C1439 0.950 . S
H1463 C1441 0.950 . S
C1464 C1465 1.349 . S
C1464 C1466 1.327 . S
C1464 H1489 0.950 . S
C1465 C1464 1.349 . S
C1465 C1481 1.349 . S
C1466 C1464 1.327 . S
C1466 C1485 1.429 . S
C1466 H1490 0.950 . S
C1467 C1484 1.574 . S
C1467 C1486 1.368 . S
C1467 H1491 0.949 . S
H1468 C1472 0.949 . S
C1469 C1470 1.349 . S
C1469 C1471 1.327 . S
C1469 H1492 0.950 . S
C1470 C1469 1.349 . S
C1470 C1482 1.349 . S
C1471 C1469 1.327 . S
C1471 C1487 1.429 . S
C1471 H1493 0.950 . S
C1472 H1468 0.949 . S
C1472 C1480 1.574 . S
C1472 C1488 1.368 . S
H1473 C1481 0.950 . S
H1474 C1479 0.950 . S
H1475 C1480 0.949 . S
H1476 C1482 0.950 . S
H1477 C1483 0.950 . S
H1478 C1484 0.949 . S
C1479 H1474 0.950 . S
C1479 C1481 1.327 . S
C1479 C1485 1.429 . S
C1480 C1472 1.574 . S
C1480 H1475 0.949 . S
C1480 C1486 1.368 . S
C1481 C1465 1.349 . S
C1481 H1473 0.950 . S
C1481 C1479 1.327 . S
C1482 C1470 1.349 . S
C1482 H1476 0.950 . S
C1482 C1483 1.327 . S
C1483 H1477 0.950 . S
C1483 C1482 1.327 . S
C1483 C1487 1.429 . S
C1484 C1467 1.574 . S
C1484 H1478 0.949 . S
C1484 C1488 1.368 . S
C1485 C1466 1.429 . S
C1485 C1479 1.429 . S
C1485 C1486 1.523 . S
C1486 C1467 1.368 . S
C1486 C1480 1.368 . S
C1486 C1485 1.523 . S
C1487 C1471 1.429 . S
C1487 C1483 1.429 . S
C1487 C1488 1.523 . S
C1488 C1472 1.368 . S
C1488 C1484 1.368 . S
C1488 C1487 1.523 . S
H1489 C1464 0.950 . S
H1490 C1466 0.950 . S
H1491 C1467 0.949 . S
H1492 C1469 0.950 . S
H1493 C1471 0.950 . S
C1494 C1495 1.349 . S
C1494 C1496 1.327 . S
C1494 H1519 0.950 . S
C1495 C1494 1.349 . S
C1495 C1511 1.349 . S
C1496 C1494 1.327 . S
C1496 C1515 1.429 . S
C1496 H1520 0.950 . S
C1497 C1514 1.574 . S
C1497 C1516 1.368 . S
C1497 H1521 0.949 . S
H1498 C1502 0.949 . S
C1499 C1500 1.349 . S
C1499 C1501 1.327 . S
C1499 H1522 0.950 . S
C1500 C1499 1.349 . S
C1500 C1512 1.349 . S
C1501 C1499 1.327 . S
C1501 C1517 1.429 . S
C1501 H1523 0.950 . S
C1502 H1498 0.949 . S
C1502 C1510 1.574 . S
C1502 C1518 1.368 . S
H1503 C1511 0.950 . S
H1504 C1509 0.950 . S
H1505 C1510 0.949 . S
H1506 C1512 0.950 . S
H1507 C1513 0.950 . S
H1508 C1514 0.949 . S
C1509 H1504 0.950 . S
C1509 C1511 1.327 . S
C1509 C1515 1.429 . S
C1510 C1502 1.574 . S
C1510 H1505 0.949 . S
C1510 C1516 1.368 . S
C1511 C1495 1.349 . S
C1511 H1503 0.950 . S
C1511 C1509 1.327 . S
C1512 C1500 1.349 . S
C1512 H1506 0.950 . S
C1512 C1513 1.327 . S
C1513 H1507 0.950 . S
C1513 C1512 1.327 . S
C1513 C1517 1.429 . S
C1514 C1497 1.574 . S
C1514 H1508 0.949 . S
C1514 C1518 1.368 . S
C1515 C1496 1.429 . S
C1515 C1509 1.429 . S
C1515 C1516 1.523 . S
C1516 C1497 1.368 . S
C1516 C1510 1.368 . S
C1516 C1515 1.523 . S
C1517 C1501 1.429 . S
C1517 C1513 1.429 . S
C1517 C1518 1.523 . S
C1518 C1502 1.368 . S
C1518 C1514 1.368 . S
C1518 C1517 1.523 . S
H1519 C1494 0.950 . S
H1520 C1496 0.950 . S
H1521 C1497 0.949 . S
H1522 C1499 0.950 . S
H1523 C1501 0.950 . S
C1524 C1525 1.349 . S
C1524 C1526 1.327 . S
C1524 H1549 0.950 . S
C1525 C1524 1.349 . S
C1525 C1541 1.349 . S
C1526 C1524 1.327 . S
C1526 C1545 1.429 . S
C1526 H1550 0.950 . S
C1527 C1544 1.574 . S
C1527 C1546 1.368 . S
C1527 H1551 0.949 . S
H1528 C1532 0.949 . S
C1529 C1530 1.349 . S
C1529 C1531 1.327 . S
C1529 H1552 0.950 . S
C1530 C1529 1.349 . S
C1530 C1542 1.349 . S
C1531 C1529 1.327 . S
C1531 C1547 1.429 . S
C1531 H1553 0.950 . S
C1532 H1528 0.949 . S
C1532 C1540 1.574 . S
C1532 C1548 1.368 . S
H1533 C1541 0.950 . S
H1534 C1539 0.950 . S
H1535 C1540 0.949 . S
H1536 C1542 0.950 . S
H1537 C1543 0.950 . S
H1538 C1544 0.949 . S
C1539 H1534 0.950 . S
C1539 C1541 1.327 . S
C1539 C1545 1.429 . S
C1540 C1532 1.574 . S
C1540 H1535 0.949 . S
C1540 C1546 1.368 . S
C1541 C1525 1.349 . S
C1541 H1533 0.950 . S
C1541 C1539 1.327 . S
C1542 C1530 1.349 . S
C1542 H1536 0.950 . S
C1542 C1543 1.327 . S
C1543 H1537 0.950 . S
C1543 C1542 1.327 . S
C1543 C1547 1.429 . S
C1544 C1527 1.574 . S
C1544 H1538 0.949 . S
C1544 C1548 1.368 . S
C1545 C1526 1.429 . S
C1545 C1539 1.429 . S
C1545 C1546 1.523 . S
C1546 C1527 1.368 . S
C1546 C1540 1.368 . S
C1546 C1545 1.523 . S
C1547 C1531 1.429 . S
C1547 C1543 1.429 . S
C1547 C1548 1.523 . S
C1548 C1532 1.368 . S
C1548 C1544 1.368 . S
C1548 C1547 1.523 . S
H1549 C1524 0.950 . S
H1550 C1526 0.950 . S
H1551 C1527 0.949 . S
H1552 C1529 0.950 . S
H1553 C1531 0.950 . S
C1554 C1555 1.349 . S
C1554 C1556 1.327 . S
C1554 H1579 0.950 . S
C1555 C1554 1.349 . S
C1555 C1571 1.349 . S
C1556 C1554 1.327 . S
C1556 C1575 1.429 . S
C1556 H1580 0.950 . S
C1557 C1574 1.574 . S
C1557 C1576 1.368 . S
C1557 H1581 0.949 . S
H1558 C1562 0.949 . S
C1559 C1560 1.349 . S
C1559 C1561 1.327 . S
C1559 H1582 0.950 . S
C1560 C1559 1.349 . S
C1560 C1572 1.349 . S
C1561 C1559 1.327 . S
C1561 C1577 1.429 . S
C1561 H1583 0.950 . S
C1562 H1558 0.949 . S
C1562 C1570 1.574 . S
C1562 C1578 1.368 . S
H1563 C1571 0.950 . S
H1564 C1569 0.950 . S
H1565 C1570 0.949 . S
H1566 C1572 0.950 . S
H1567 C1573 0.950 . S
H1568 C1574 0.949 . S
C1569 H1564 0.950 . S
C1569 C1571 1.327 . S
C1569 C1575 1.429 . S
C1570 C1562 1.574 . S
C1570 H1565 0.949 . S
C1570 C1576 1.368 . S
C1571 C1555 1.349 . S
C1571 H1563 0.950 . S
C1571 C1569 1.327 . S
C1572 C1560 1.349 . S
C1572 H1566 0.950 . S
C1572 C1573 1.327 . S
C1573 H1567 0.950 . S
C1573 C1572 1.327 . S
C1573 C1577 1.429 . S
C1574 C1557 1.574 . S
C1574 H1568 0.949 . S
C1574 C1578 1.368 . S
C1575 C1556 1.429 . S
C1575 C1569 1.429 . S
C1575 C1576 1.523 . S
C1576 C1557 1.368 . S
C1576 C1570 1.368 . S
C1576 C1575 1.523 . S
C1577 C1561 1.429 . S
C1577 C1573 1.429 . S
C1577 C1578 1.523 . S
C1578 C1562 1.368 . S
C1578 C1574 1.368 . S
C1578 C1577 1.523 . S
H1579 C1554 0.950 . S
H1580 C1556 0.950 . S
H1581 C1557 0.949 . S
H1582 C1559 0.950 . S
H1583 C1561 0.950 . S
C1584 C1585 1.349 . S
C1584 C1586 1.327 . S
C1584 H1609 0.950 . S
C1585 C1584 1.349 . S
C1585 C1601 1.349 . S
C1586 C1584 1.327 . S
C1586 C1605 1.429 . S
C1586 H1610 0.950 . S
C1587 C1604 1.574 . S
C1587 C1606 1.368 . S
C1587 H1611 0.949 . S
H1588 C1592 0.949 . S
C1589 C1590 1.349 . S
C1589 C1591 1.327 . S
C1589 H1612 0.950 . S
C1590 C1589 1.349 . S
C1590 C1602 1.349 . S
C1591 C1589 1.327 . S
C1591 C1607 1.429 . S
C1591 H1613 0.950 . S
C1592 H1588 0.949 . S
C1592 C1600 1.574 . S
C1592 C1608 1.368 . S
H1593 C1601 0.950 . S
H1594 C1599 0.950 . S
H1595 C1600 0.949 . S
H1596 C1602 0.950 . S
H1597 C1603 0.950 . S
H1598 C1604 0.949 . S
C1599 H1594 0.950 . S
C1599 C1601 1.327 . S
C1599 C1605 1.429 . S
C1600 C1592 1.574 . S
C1600 H1595 0.949 . S
C1600 C1606 1.368 . S
C1601 C1585 1.349 . S
C1601 H1593 0.950 . S
C1601 C1599 1.327 . S
C1602 C1590 1.349 . S
C1602 H1596 0.950 . S
C1602 C1603 1.327 . S
C1603 H1597 0.950 . S
C1603 C1602 1.327 . S
C1603 C1607 1.429 . S
C1604 C1587 1.574 . S
C1604 H1598 0.949 . S
C1604 C1608 1.368 . S
C1605 C1586 1.429 . S
C1605 C1599 1.429 . S
C1605 C1606 1.523 . S
C1606 C1587 1.368 . S
C1606 C1600 1.368 . S
C1606 C1605 1.523 . S
C1607 C1591 1.429 . S
C1607 C1603 1.429 . S
C1607 C1608 1.523 . S
C1608 C1592 1.368 . S
C1608 C1604 1.368 . S
C1608 C1607 1.523 . S
H1609 C1584 0.950 . S
H1610 C1586 0.950 . S
H1611 C1587 0.949 . S
H1612 C1589 0.950 . S
H1613 C1591 0.950 . S
C1614 C1615 1.349 . S
C1614 C1616 1.327 . S
C1614 H1639 0.950 . S
C1615 C1614 1.349 . S
C1615 C1631 1.349 . S
C1616 C1614 1.327 . S
C1616 C1635 1.429 . S
C1616 H1640 0.950 . S
C1617 C1634 1.598 . S
C1617 C1636 1.368 . S
C1617 H1641 0.949 . S
H1618 C1622 0.949 . S
C1619 C1620 1.349 . S
C1619 C1621 1.327 . S
C1619 H1642 0.950 . S
C1620 C1619 1.349 . S
C1620 C1632 1.349 . S
C1621 C1619 1.327 . S
C1621 C1637 1.429 . S
C1621 H1643 0.950 . S
C1622 H1618 0.949 . S
C1622 C1630 1.599 . S
C1622 C1638 1.368 . S
H1623 C1631 0.950 . S
H1624 C1629 0.950 . S
H1625 C1630 0.949 . S
H1626 C1632 0.950 . S
H1627 C1633 0.950 . S
H1628 C1634 0.949 . S
C1629 H1624 0.950 . S
C1629 C1631 1.327 . S
C1629 C1635 1.429 . S
C1630 C1622 1.599 . S
C1630 H1625 0.949 . S
C1630 C1636 1.347 1_545 S
C1631 C1615 1.349 . S
C1631 H1623 0.950 . S
C1631 C1629 1.327 . S
C1632 C1620 1.349 . S
C1632 H1626 0.950 . S
C1632 C1633 1.327 . S
C1633 H1627 0.950 . S
C1633 C1632 1.327 . S
C1633 C1637 1.429 . S
C1634 C1617 1.598 . S
C1634 H1628 0.949 . S
C1634 C1638 1.347 1_565 S
C1635 C1616 1.429 . S
C1635 C1629 1.429 . S
C1635 C1636 1.523 . S
C1636 C1617 1.368 . S
C1636 C1630 1.347 1_565 S
C1636 C1635 1.523 . S
C1637 C1621 1.429 . S
C1637 C1633 1.429 . S
C1637 C1638 1.523 . S
C1638 C1622 1.368 . S
C1638 C1634 1.347 1_545 S
C1638 C1637 1.523 . S
H1639 C1614 0.950 . S
H1640 C1616 0.950 . S
H1641 C1617 0.949 . S
H1642 C1619 0.950 . S
H1643 C1621 0.950 . S
C1644 C1645 1.349 . S
C1644 C1646 1.327 . S
C1644 H1669 0.950 . S
C1645 C1644 1.349 . S
C1645 C1661 1.349 . S
C1646 C1644 1.327 . S
C1646 C1665 1.429 . S
C1646 H1670 0.950 . S
C1647 C1664 1.574 1_655 S
C1647 C1666 1.368 . S
C1647 H1671 0.949 . S
H1648 C1652 0.949 . S
C1649 C1650 1.349 . S
C1649 C1651 1.327 . S
C1649 H1672 0.950 . S
C1650 C1649 1.349 . S
C1650 C1662 1.349 . S
C1651 C1649 1.327 . S
C1651 C1667 1.429 . S
C1651 H1673 0.950 . S
C1652 H1648 0.949 . S
C1652 C1660 1.574 1_455 S
C1652 C1668 1.368 . S
H1653 C1661 0.950 . S
H1654 C1659 0.950 . S
H1655 C1660 0.949 . S
H1656 C1662 0.950 . S
H1657 C1663 0.950 . S
H1658 C1664 0.949 . S
C1659 H1654 0.950 . S
C1659 C1661 1.327 . S
C1659 C1665 1.429 . S
C1660 C1652 1.574 1_655 S
C1660 H1655 0.949 . S
C1660 C1666 1.368 . S
C1661 C1645 1.349 . S
C1661 H1653 0.950 . S
C1661 C1659 1.327 . S
C1662 C1650 1.349 . S
C1662 H1656 0.950 . S
C1662 C1663 1.327 . S
C1663 H1657 0.950 . S
C1663 C1662 1.327 . S
C1663 C1667 1.429 . S
C1664 C1647 1.574 1_455 S
C1664 H1658 0.949 . S
C1664 C1668 1.368 . S
C1665 C1646 1.429 . S
C1665 C1659 1.429 . S
C1665 C1666 1.523 . S
C1666 C1647 1.368 . S
C1666 C1660 1.368 . S
C1666 C1665 1.523 . S
C1667 C1651 1.429 . S
C1667 C1663 1.429 . S
C1667 C1668 1.523 . S
C1668 C1652 1.368 . S
C1668 C1664 1.368 . S
C1668 C1667 1.523 . S
H1669 C1644 0.950 . S
H1670 C1646 0.950 . S
H1671 C1647 0.949 . S
H1672 C1649 0.950 . S
H1673 C1651 0.950 . S
C1674 C1675 1.349 . S
C1674 C1676 1.327 . S
C1674 H1699 0.950 . S
C1675 C1674 1.349 . S
C1675 C1691 1.349 . S
C1676 C1674 1.327 . S
C1676 C1695 1.429 . S
C1676 H1700 0.950 . S
C1677 C1694 1.574 . S
C1677 C1696 1.368 . S
C1677 H1701 0.949 . S
H1678 C1682 0.949 . S
C1679 C1680 1.349 . S
C1679 C1681 1.327 . S
C1679 H1702 0.950 . S
C1680 C1679 1.349 . S
C1680 C1692 1.349 . S
C1681 C1679 1.327 . S
C1681 C1697 1.429 . S
C1681 H1703 0.950 . S
C1682 H1678 0.949 . S
C1682 C1690 1.574 . S
C1682 C1698 1.368 . S
H1683 C1691 0.950 . S
H1684 C1689 0.950 . S
H1685 C1690 0.949 . S
H1686 C1692 0.950 . S
H1687 C1693 0.950 . S
H1688 C1694 0.949 . S
C1689 H1684 0.950 . S
C1689 C1691 1.327 . S
C1689 C1695 1.429 . S
C1690 C1682 1.574 . S
C1690 H1685 0.949 . S
C1690 C1696 1.368 . S
C1691 C1675 1.349 . S
C1691 H1683 0.950 . S
C1691 C1689 1.327 . S
C1692 C1680 1.349 . S
C1692 H1686 0.950 . S
C1692 C1693 1.327 . S
C1693 H1687 0.950 . S
C1693 C1692 1.327 . S
C1693 C1697 1.429 . S
C1694 C1677 1.574 . S
C1694 H1688 0.949 . S
C1694 C1698 1.368 . S
C1695 C1676 1.429 . S
C1695 C1689 1.429 . S
C1695 C1696 1.523 . S
C1696 C1677 1.368 . S
C1696 C1690 1.368 . S
C1696 C1695 1.523 . S
C1697 C1681 1.429 . S
C1697 C1693 1.429 . S
C1697 C1698 1.523 . S
C1698 C1682 1.368 . S
C1698 C1694 1.368 . S
C1698 C1697 1.523 . S
H1699 C1674 0.950 . S
H1700 C1676 0.950 . S
H1701 C1677 0.949 . S
H1702 C1679 0.950 . S
H1703 C1681 0.950 . S
C1704 C1705 1.349 . S
C1704 C1706 1.327 . S
C1704 H1729 0.950 . S
C1705 C1704 1.349 . S
C1705 C1721 1.349 . S
C1706 C1704 1.327 . S
C1706 C1725 1.429 . S
C1706 H1730 0.950 . S
C1707 C1724 1.574 . S
C1707 C1726 1.368 . S
C1707 H1731 0.949 . S
H1708 C1712 0.949 . S
C1709 C1710 1.349 . S
C1709 C1711 1.327 . S
C1709 H1732 0.950 . S
C1710 C1709 1.349 . S
C1710 C1722 1.349 . S
C1711 C1709 1.327 . S
C1711 C1727 1.429 . S
C1711 H1733 0.950 . S
C1712 H1708 0.949 . S
C1712 C1720 1.574 . S
C1712 C1728 1.368 . S
H1713 C1721 0.950 . S
H1714 C1719 0.950 . S
H1715 C1720 0.949 . S
H1716 C1722 0.950 . S
H1717 C1723 0.950 . S
H1718 C1724 0.949 . S
C1719 H1714 0.950 . S
C1719 C1721 1.327 . S
C1719 C1725 1.429 . S
C1720 C1712 1.574 . S
C1720 H1715 0.949 . S
C1720 C1726 1.368 1_565 S
C1721 C1705 1.349 . S
C1721 H1713 0.950 . S
C1721 C1719 1.327 . S
C1722 C1710 1.349 . S
C1722 H1716 0.950 . S
C1722 C1723 1.327 . S
C1723 H1717 0.950 . S
C1723 C1722 1.327 . S
C1723 C1727 1.429 . S
C1724 C1707 1.574 . S
C1724 H1718 0.949 . S
C1724 C1728 1.368 1_545 S
C1725 C1706 1.429 . S
C1725 C1719 1.429 . S
C1725 C1726 1.523 . S
C1726 C1707 1.368 . S
C1726 C1720 1.368 1_545 S
C1726 C1725 1.523 . S
C1727 C1711 1.429 . S
C1727 C1723 1.429 . S
C1727 C1728 1.523 . S
C1728 C1712 1.368 . S
C1728 C1724 1.368 1_565 S
C1728 C1727 1.523 . S
H1729 C1704 0.950 . S
H1730 C1706 0.950 . S
H1731 C1707 0.949 . S
H1732 C1709 0.950 . S
H1733 C1711 0.950 . S
C1734 C1735 1.349 . S
C1734 C1736 1.327 . S
C1734 H1759 0.950 . S
C1735 C1734 1.349 . S
C1735 C1751 1.349 . S
C1736 C1734 1.327 . S
C1736 C1755 1.429 . S
C1736 H1760 0.950 . S
C1737 C1754 1.574 1_655 S
C1737 C1756 1.368 . S
C1737 H1761 0.949 . S
H1738 C1742 0.949 . S
C1739 C1740 1.349 . S
C1739 C1741 1.327 . S
C1739 H1762 0.950 . S
C1740 C1739 1.349 . S
C1740 C1752 1.349 . S
C1741 C1739 1.327 . S
C1741 C1757 1.429 . S
C1741 H1763 0.950 . S
C1742 H1738 0.949 . S
C1742 C1750 1.574 1_455 S
C1742 C1758 1.368 . S
H1743 C1751 0.950 . S
H1744 C1749 0.950 . S
H1745 C1750 0.949 . S
H1746 C1752 0.950 . S
H1747 C1753 0.950 . S
H1748 C1754 0.949 . S
C1749 H1744 0.950 . S
C1749 C1751 1.327 . S
C1749 C1755 1.429 . S
C1750 C1742 1.574 1_655 S
C1750 H1745 0.949 . S
C1750 C1756 1.368 . S
C1751 C1735 1.349 . S
C1751 H1743 0.950 . S
C1751 C1749 1.327 . S
C1752 C1740 1.349 . S
C1752 H1746 0.950 . S
C1752 C1753 1.327 . S
C1753 H1747 0.950 . S
C1753 C1752 1.327 . S
C1753 C1757 1.429 . S
C1754 C1737 1.574 1_455 S
C1754 H1748 0.949 . S
C1754 C1758 1.368 . S
C1755 C1736 1.429 . S
C1755 C1749 1.429 . S
C1755 C1756 1.523 . S
C1756 C1737 1.368 . S
C1756 C1750 1.368 . S
C1756 C1755 1.523 . S
C1757 C1741 1.429 . S
C1757 C1753 1.429 . S
C1757 C1758 1.523 . S
C1758 C1742 1.368 . S
C1758 C1754 1.368 . S
C1758 C1757 1.523 . S
H1759 C1734 0.950 . S
H1760 C1736 0.950 . S
H1761 C1737 0.949 . S
H1762 C1739 0.950 . S
H1763 C1741 0.950 . S
C1764 C1765 1.349 . S
C1764 C1766 1.327 . S
C1764 H1789 0.950 . S
C1765 C1764 1.349 . S
C1765 C1781 1.349 . S
C1766 C1764 1.327 . S
C1766 C1785 1.429 . S
C1766 H1790 0.950 . S
C1767 C1784 1.574 . S
C1767 C1786 1.368 . S
C1767 H1791 0.949 . S
H1768 C1772 0.949 . S
C1769 C1770 1.349 . S
C1769 C1771 1.327 . S
C1769 H1792 0.950 . S
C1770 C1769 1.349 . S
C1770 C1782 1.349 . S
C1771 C1769 1.327 . S
C1771 C1787 1.429 . S
C1771 H1793 0.950 . S
C1772 H1768 0.949 . S
C1772 C1780 1.574 . S
C1772 C1788 1.368 . S
H1773 C1781 0.950 . S
H1774 C1779 0.950 . S
H1775 C1780 0.949 . S
H1776 C1782 0.950 . S
H1777 C1783 0.950 . S
H1778 C1784 0.949 . S
C1779 H1774 0.950 . S
C1779 C1781 1.327 . S
C1779 C1785 1.429 . S
C1780 C1772 1.574 . S
C1780 H1775 0.949 . S
C1780 C1786 1.368 . S
C1781 C1765 1.349 . S
C1781 H1773 0.950 . S
C1781 C1779 1.327 . S
C1782 C1770 1.349 . S
C1782 H1776 0.950 . S
C1782 C1783 1.327 . S
C1783 H1777 0.950 . S
C1783 C1782 1.327 . S
C1783 C1787 1.429 . S
C1784 C1767 1.574 . S
C1784 H1778 0.949 . S
C1784 C1788 1.368 . S
C1785 C1766 1.429 . S
C1785 C1779 1.429 . S
C1785 C1786 1.523 . S
C1786 C1767 1.368 . S
C1786 C1780 1.368 . S
C1786 C1785 1.523 . S
C1787 C1771 1.429 . S
C1787 C1783 1.429 . S
C1787 C1788 1.523 . S
C1788 C1772 1.368 . S
C1788 C1784 1.368 . S
C1788 C1787 1.523 . S
H1789 C1764 0.950 . S
H1790 C1766 0.950 . S
H1791 C1767 0.949 . S
H1792 C1769 0.950 . S
H1793 C1771 0.950 . S
C1794 C1795 1.349 . S
C1794 C1796 1.327 . S
C1794 H1819 0.950 . S
C1795 C1794 1.349 . S
C1795 C1811 1.349 . S
C1796 C1794 1.327 . S
C1796 C1815 1.429 . S
C1796 H1820 0.950 . S
C1797 C1814 1.574 . S
C1797 C1816 1.368 . S
C1797 H1821 0.949 . S
H1798 C1802 0.949 . S
C1799 C1800 1.349 . S
C1799 C1801 1.327 . S
C1799 H1822 0.950 . S
C1800 C1799 1.349 . S
C1800 C1812 1.349 . S
C1801 C1799 1.327 . S
C1801 C1817 1.429 . S
C1801 H1823 0.950 . S
C1802 H1798 0.949 . S
C1802 C1810 1.574 . S
C1802 C1818 1.368 . S
H1803 C1811 0.950 . S
H1804 C1809 0.950 . S
H1805 C1810 0.949 . S
H1806 C1812 0.950 . S
H1807 C1813 0.950 . S
H1808 C1814 0.949 . S
C1809 H1804 0.950 . S
C1809 C1811 1.327 . S
C1809 C1815 1.429 . S
C1810 C1802 1.574 . S
C1810 H1805 0.949 . S
C1810 C1816 1.368 . S
C1811 C1795 1.349 . S
C1811 H1803 0.950 . S
C1811 C1809 1.327 . S
C1812 C1800 1.349 . S
C1812 H1806 0.950 . S
C1812 C1813 1.327 . S
C1813 H1807 0.950 . S
C1813 C1812 1.327 . S
C1813 C1817 1.429 . S
C1814 C1797 1.574 . S
C1814 H1808 0.949 . S
C1814 C1818 1.368 . S
C1815 C1796 1.429 . S
C1815 C1809 1.429 . S
C1815 C1816 1.523 . S
C1816 C1797 1.368 . S
C1816 C1810 1.368 . S
C1816 C1815 1.523 . S
C1817 C1801 1.429 . S
C1817 C1813 1.429 . S
C1817 C1818 1.523 . S
C1818 C1802 1.368 . S
C1818 C1814 1.368 . S
C1818 C1817 1.523 . S
H1819 C1794 0.950 . S
H1820 C1796 0.950 . S
H1821 C1797 0.949 . S
H1822 C1799 0.950 . S
H1823 C1801 0.950 . S
C1824 C1825 1.349 . S
C1824 C1826 1.327 . S
C1824 H1849 0.950 . S
C1825 C1824 1.349 . S
C1825 C1841 1.349 . S
C1826 C1824 1.327 . S
C1826 C1845 1.429 . S
C1826 H1850 0.950 . S
C1827 C1844 1.574 . S
C1827 C1846 1.368 . S
C1827 H1851 0.949 . S
H1828 C1832 0.949 . S
C1829 C1830 1.349 . S
C1829 C1831 1.327 . S
C1829 H1852 0.950 . S
C1830 C1829 1.349 . S
C1830 C1842 1.349 . S
C1831 C1829 1.327 . S
C1831 C1847 1.429 . S
C1831 H1853 0.950 . S
C1832 H1828 0.949 . S
C1832 C1840 1.574 . S
C1832 C1848 1.368 . S
H1833 C1841 0.950 . S
H1834 C1839 0.950 . S
H1835 C1840 0.949 . S
H1836 C1842 0.950 . S
H1837 C1843 0.950 . S
H1838 C1844 0.949 . S
C1839 H1834 0.950 . S
C1839 C1841 1.327 . S
C1839 C1845 1.429 . S
C1840 C1832 1.574 . S
C1840 H1835 0.949 . S
C1840 C1846 1.368 . S
C1841 C1825 1.349 . S
C1841 H1833 0.950 . S
C1841 C1839 1.327 . S
C1842 C1830 1.349 . S
C1842 H1836 0.950 . S
C1842 C1843 1.327 . S
C1843 H1837 0.950 . S
C1843 C1842 1.327 . S
C1843 C1847 1.429 . S
C1844 C1827 1.574 . S
C1844 H1838 0.949 . S
C1844 C1848 1.368 . S
C1845 C1826 1.429 . S
C1845 C1839 1.429 . S
C1845 C1846 1.523 . S
C1846 C1827 1.368 . S
C1846 C1840 1.368 . S
C1846 C1845 1.523 . S
C1847 C1831 1.429 . S
C1847 C1843 1.429 . S
C1847 C1848 1.523 . S
C1848 C1832 1.368 . S
C1848 C1844 1.368 . S
C1848 C1847 1.523 . S
H1849 C1824 0.950 . S
H1850 C1826 0.950 . S
H1851 C1827 0.949 . S
H1852 C1829 0.950 . S
H1853 C1831 0.950 . S
C1854 C1855 1.349 . S
C1854 C1856 1.327 . S
C1854 H1879 0.950 1_554 S
C1855 C1854 1.349 . S
C1855 C1871 1.349 . S
C1856 C1854 1.327 . S
C1856 C1875 1.429 . S
C1856 H1880 0.950 . S
C1857 C1874 1.574 . S
C1857 C1876 1.368 . S
C1857 H1881 0.949 . S
H1858 C1862 0.949 . S
C1859 C1860 1.349 . S
C1859 C1861 1.327 . S
C1859 H1882 0.950 . S
C1860 C1859 1.349 . S
C1860 C1872 1.349 . S
C1861 C1859 1.327 . S
C1861 C1877 1.429 . S
C1861 H1883 0.950 . S
C1862 H1858 0.949 . S
C1862 C1870 1.574 . S
C1862 C1878 1.368 . S
H1863 C1871 0.950 . S
H1864 C1869 0.950 . S
H1865 C1870 0.949 . S
H1866 C1872 0.950 . S
H1867 C1873 0.950 . S
H1868 C1874 0.949 . S
C1869 H1864 0.950 . S
C1869 C1871 1.327 . S
C1869 C1875 1.429 . S
C1870 C1862 1.574 . S
C1870 H1865 0.949 . S
C1870 C1876 1.368 . S
C1871 C1855 1.349 . S
C1871 H1863 0.950 . S
C1871 C1869 1.327 . S
C1872 C1860 1.349 . S
C1872 H1866 0.950 . S
C1872 C1873 1.327 . S
C1873 H1867 0.950 . S
C1873 C1872 1.327 . S
C1873 C1877 1.429 . S
C1874 C1857 1.574 . S
C1874 H1868 0.949 . S
C1874 C1878 1.368 . S
C1875 C1856 1.429 . S
C1875 C1869 1.429 . S
C1875 C1876 1.523 . S
C1876 C1857 1.368 . S
C1876 C1870 1.368 . S
C1876 C1875 1.523 . S
C1877 C1861 1.429 . S
C1877 C1873 1.429 . S
C1877 C1878 1.523 . S
C1878 C1862 1.368 . S
C1878 C1874 1.368 . S
C1878 C1877 1.523 . S
H1879 C1854 0.950 1_556 S
H1880 C1856 0.950 . S
H1881 C1857 0.949 . S
H1882 C1859 0.950 . S
H1883 C1861 0.950 . S
C1884 C1885 1.349 . S
C1884 C1886 1.327 . S
C1884 H1909 0.950 1_554 S
C1885 C1884 1.349 . S
C1885 C1901 1.349 . S
C1886 C1884 1.327 . S
C1886 C1905 1.429 . S
C1886 H1910 0.950 . S
C1887 C1904 1.574 . S
C1887 C1906 1.368 . S
C1887 H1911 0.949 . S
H1888 C1892 0.949 . S
C1889 C1890 1.349 . S
C1889 C1891 1.327 . S
C1889 H1912 0.950 . S
C1890 C1889 1.349 . S
C1890 C1902 1.349 . S
C1891 C1889 1.327 . S
C1891 C1907 1.429 . S
C1891 H1913 0.950 . S
C1892 H1888 0.949 . S
C1892 C1900 1.574 . S
C1892 C1908 1.368 . S
H1893 C1901 0.950 . S
H1894 C1899 0.950 . S
H1895 C1900 0.949 . S
H1896 C1902 0.950 . S
H1897 C1903 0.950 . S
H1898 C1904 0.949 . S
C1899 H1894 0.950 . S
C1899 C1901 1.327 . S
C1899 C1905 1.429 . S
C1900 C1892 1.574 . S
C1900 H1895 0.949 . S
C1900 C1906 1.368 . S
C1901 C1885 1.349 . S
C1901 H1893 0.950 . S
C1901 C1899 1.327 . S
C1902 C1890 1.349 . S
C1902 H1896 0.950 . S
C1902 C1903 1.327 . S
C1903 H1897 0.950 . S
C1903 C1902 1.327 . S
C1903 C1907 1.429 . S
C1904 C1887 1.574 . S
C1904 H1898 0.949 . S
C1904 C1908 1.368 . S
C1905 C1886 1.429 . S
C1905 C1899 1.429 . S
C1905 C1906 1.523 . S
C1906 C1887 1.368 . S
C1906 C1900 1.368 . S
C1906 C1905 1.523 . S
C1907 C1891 1.429 . S
C1907 C1903 1.429 . S
C1907 C1908 1.523 . S
C1908 C1892 1.368 . S
C1908 C1904 1.368 . S
C1908 C1907 1.523 . S
H1909 C1884 0.950 1_556 S
H1910 C1886 0.950 . S
H1911 C1887 0.949 . S
H1912 C1889 0.950 . S
H1913 C1891 0.950 . S
C1914 C1915 1.349 . S
C1914 C1916 1.327 . S
C1914 H1939 0.950 1_554 S
C1915 C1914 1.349 . S
C1915 C1931 1.349 . S
C1916 C1914 1.327 . S
C1916 C1935 1.429 . S
C1916 H1940 0.950 . S
C1917 C1934 1.574 . S
C1917 C1936 1.368 . S
C1917 H1941 0.949 . S
H1918 C1922 0.949 . S
C1919 C1920 1.349 . S
C1919 C1921 1.327 . S
C1919 H1942 0.950 . S
C1920 C1919 1.349 . S
C1920 C1932 1.349 . S
C1921 C1919 1.327 . S
C1921 C1937 1.429 . S
C1921 H1943 0.950 . S
C1922 H1918 0.949 . S
C1922 C1930 1.574 . S
C1922 C1938 1.368 . S
H1923 C1931 0.950 . S
H1924 C1929 0.950 . S
H1925 C1930 0.949 . S
H1926 C1932 0.950 . S
H1927 C1933 0.950 . S
H1928 C1934 0.949 . S
C1929 H1924 0.950 . S
C1929 C1931 1.327 . S
C1929 C1935 1.429 . S
C1930 C1922 1.574 . S
C1930 H1925 0.949 . S
C1930 C1936 1.368 . S
C1931 C1915 1.349 . S
C1931 H1923 0.950 . S
C1931 C1929 1.327 . S
C1932 C1920 1.349 . S
C1932 H1926 0.950 . S
C1932 C1933 1.327 . S
C1933 H1927 0.950 . S
C1933 C1932 1.327 . S
C1933 C1937 1.429 . S
C1934 C1917 1.574 . S
C1934 H1928 0.949 . S
C1934 C1938 1.368 . S
C1935 C1916 1.429 . S
C1935 C1929 1.429 . S
C1935 C1936 1.523 . S
C1936 C1917 1.368 . S
C1936 C1930 1.368 . S
C1936 C1935 1.523 . S
C1937 C1921 1.429 . S
C1937 C1933 1.429 . S
C1937 C1938 1.523 . S
C1938 C1922 1.368 . S
C1938 C1934 1.368 . S
C1938 C1937 1.523 . S
H1939 C1914 0.950 1_556 S
H1940 C1916 0.950 . S
H1941 C1917 0.949 . S
H1942 C1919 0.950 . S
H1943 C1921 0.950 . S
C1944 C1945 1.349 . S
C1944 C1946 1.327 . S
C1944 H1969 0.950 . S
C1945 C1944 1.349 . S
C1945 C1961 1.349 . S
C1946 C1944 1.327 . S
C1946 C1965 1.429 . S
C1946 H1970 0.950 . S
C1947 C1964 1.574 . S
C1947 C1966 1.368 . S
C1947 H1971 0.949 . S
H1948 C1952 0.949 . S
C1949 C1950 1.349 . S
C1949 C1951 1.327 . S
C1949 H1972 0.950 . S
C1950 C1949 1.349 . S
C1950 C1962 1.349 . S
C1951 C1949 1.327 . S
C1951 C1967 1.429 . S
C1951 H1973 0.950 . S
C1952 H1948 0.949 . S
C1952 C1960 1.574 . S
C1952 C1968 1.368 . S
H1953 C1961 0.950 . S
H1954 C1959 0.950 . S
H1955 C1960 0.949 . S
H1956 C1962 0.950 . S
H1957 C1963 0.950 . S
H1958 C1964 0.949 . S
C1959 H1954 0.950 . S
C1959 C1961 1.327 . S
C1959 C1965 1.429 . S
C1960 C1952 1.574 . S
C1960 H1955 0.949 . S
C1960 C1966 1.368 . S
C1961 C1945 1.349 . S
C1961 H1953 0.950 . S
C1961 C1959 1.327 . S
C1962 C1950 1.349 . S
C1962 H1956 0.950 . S
C1962 C1963 1.327 . S
C1963 H1957 0.950 . S
C1963 C1962 1.327 . S
C1963 C1967 1.429 . S
C1964 C1947 1.574 . S
C1964 H1958 0.949 . S
C1964 C1968 1.368 . S
C1965 C1946 1.429 . S
C1965 C1959 1.429 . S
C1965 C1966 1.523 . S
C1966 C1947 1.368 . S
C1966 C1960 1.368 . S
C1966 C1965 1.523 . S
C1967 C1951 1.429 . S
C1967 C1963 1.429 . S
C1967 C1968 1.523 . S
C1968 C1952 1.368 . S
C1968 C1964 1.368 . S
C1968 C1967 1.523 . S
H1969 C1944 0.950 . S
H1970 C1946 0.950 . S
H1971 C1947 0.949 . S
H1972 C1949 0.950 . S
H1973 C1951 0.950 . S
C1974 C1975 1.349 . S
C1974 C1976 1.327 . S
C1974 H1999 0.950 . S
C1975 C1974 1.349 . S
C1975 C1991 1.349 . S
C1976 C1974 1.327 . S
C1976 C1995 1.429 . S
C1976 H2000 0.950 . S
C1977 C1994 1.574 . S
C1977 C1996 1.368 . S
C1977 H2001 0.949 . S
H1978 C1982 0.949 . S
C1979 C1980 1.349 . S
C1979 C1981 1.327 . S
C1979 H2002 0.950 . S
C1980 C1979 1.349 . S
C1980 C1992 1.349 . S
C1981 C1979 1.327 . S
C1981 C1997 1.429 . S
C1981 H2003 0.950 . S
C1982 H1978 0.949 . S
C1982 C1990 1.574 . S
C1982 C1998 1.368 . S
H1983 C1991 0.950 . S
H1984 C1989 0.950 . S
H1985 C1990 0.949 . S
H1986 C1992 0.950 1_554 S
H1987 C1993 0.950 . S
H1988 C1994 0.949 . S
C1989 H1984 0.950 . S
C1989 C1991 1.327 . S
C1989 C1995 1.429 . S
C1990 C1982 1.574 . S
C1990 H1985 0.949 . S
C1990 C1996 1.368 . S
C1991 C1975 1.349 . S
C1991 H1983 0.950 . S
C1991 C1989 1.327 . S
C1992 C1980 1.349 . S
C1992 H1986 0.950 1_556 S
C1992 C1993 1.327 . S
C1993 H1987 0.950 . S
C1993 C1992 1.327 . S
C1993 C1997 1.429 . S
C1994 C1977 1.574 . S
C1994 H1988 0.949 . S
C1994 C1998 1.368 . S
C1995 C1976 1.429 . S
C1995 C1989 1.429 . S
C1995 C1996 1.523 . S
C1996 C1977 1.368 . S
C1996 C1990 1.368 . S
C1996 C1995 1.523 . S
C1997 C1981 1.429 . S
C1997 C1993 1.429 . S
C1997 C1998 1.523 . S
C1998 C1982 1.368 . S
C1998 C1994 1.368 . S
C1998 C1997 1.523 . S
H1999 C1974 0.950 . S
H2000 C1976 0.950 . S
H2001 C1977 0.949 . S
H2002 C1979 0.950 . S
H2003 C1981 0.950 . S
C2004 C2005 1.349 . S
C2004 C2006 1.327 . S
C2004 H2029 0.950 . S
C2005 C2004 1.349 . S
C2005 C2021 1.349 . S
C2006 C2004 1.327 . S
C2006 C2025 1.429 . S
C2006 H2030 0.950 . S
C2007 C2024 1.574 . S
C2007 C2026 1.368 . S
C2007 H2031 0.949 . S
H2008 C2012 0.949 . S
C2009 C2010 1.349 . S
C2009 C2011 1.327 . S
C2009 H2032 0.950 . S
C2010 C2009 1.349 . S
C2010 C2022 1.349 . S
C2011 C2009 1.327 . S
C2011 C2027 1.429 . S
C2011 H2033 0.950 . S
C2012 H2008 0.949 . S
C2012 C2020 1.574 . S
C2012 C2028 1.368 . S
H2013 C2021 0.950 1_554 S
H2014 C2019 0.950 . S
H2015 C2020 0.949 . S
H2016 C2022 0.950 . S
H2017 C2023 0.950 . S
H2018 C2024 0.949 . S
C2019 H2014 0.950 . S
C2019 C2021 1.327 . S
C2019 C2025 1.429 . S
C2020 C2012 1.574 . S
C2020 H2015 0.949 . S
C2020 C2026 1.368 . S
C2021 C2005 1.349 . S
C2021 H2013 0.950 1_556 S
C2021 C2019 1.327 . S
C2022 C2010 1.349 . S
C2022 H2016 0.950 . S
C2022 C2023 1.327 . S
C2023 H2017 0.950 . S
C2023 C2022 1.327 . S
C2023 C2027 1.429 . S
C2024 C2007 1.574 . S
C2024 H2018 0.949 . S
C2024 C2028 1.368 . S
C2025 C2006 1.429 . S
C2025 C2019 1.429 . S
C2025 C2026 1.523 . S
C2026 C2007 1.368 . S
C2026 C2020 1.368 . S
C2026 C2025 1.523 . S
C2027 C2011 1.429 . S
C2027 C2023 1.429 . S
C2027 C2028 1.523 . S
C2028 C2012 1.368 . S
C2028 C2024 1.368 . S
C2028 C2027 1.523 . S
H2029 C2004 0.950 . S
H2030 C2006 0.950 . S
H2031 C2007 0.949 . S
H2032 C2009 0.950 . S
H2033 C2011 0.950 . S
C2034 C2035 1.349 . S
C2034 C2036 1.327 . S
C2034 H2059 0.950 . S
C2035 C2034 1.349 . S
C2035 C2051 1.349 . S
C2036 C2034 1.327 . S
C2036 C2055 1.429 . S
C2036 H2060 0.950 . S
C2037 C2054 1.574 . S
C2037 C2056 1.368 . S
C2037 H2061 0.949 . S
H2038 C2042 0.949 . S
C2039 C2040 1.349 . S
C2039 C2041 1.327 . S
C2039 H2062 0.950 . S
C2040 C2039 1.349 . S
C2040 C2052 1.349 . S
C2041 C2039 1.327 . S
C2041 C2057 1.429 . S
C2041 H2063 0.950 . S
C2042 H2038 0.949 . S
C2042 C2050 1.574 . S
C2042 C2058 1.368 . S
H2043 C2051 0.950 . S
H2044 C2049 0.950 . S
H2045 C2050 0.949 . S
H2046 C2052 0.950 . S
H2047 C2053 0.950 . S
H2048 C2054 0.949 . S
C2049 H2044 0.950 . S
C2049 C2051 1.327 . S
C2049 C2055 1.429 . S
C2050 C2042 1.574 . S
C2050 H2045 0.949 . S
C2050 C2056 1.368 . S
C2051 C2035 1.349 . S
C2051 H2043 0.950 . S
C2051 C2049 1.327 . S
C2052 C2040 1.349 . S
C2052 H2046 0.950 . S
C2052 C2053 1.327 . S
C2053 H2047 0.950 . S
C2053 C2052 1.327 . S
C2053 C2057 1.429 . S
C2054 C2037 1.574 . S
C2054 H2048 0.949 . S
C2054 C2058 1.368 . S
C2055 C2036 1.429 . S
C2055 C2049 1.429 . S
C2055 C2056 1.523 . S
C2056 C2037 1.368 . S
C2056 C2050 1.368 . S
C2056 C2055 1.523 . S
C2057 C2041 1.429 . S
C2057 C2053 1.429 . S
C2057 C2058 1.523 . S
C2058 C2042 1.368 . S
C2058 C2054 1.368 . S
C2058 C2057 1.523 . S
H2059 C2034 0.950 . S
H2060 C2036 0.950 . S
H2061 C2037 0.949 . S
H2062 C2039 0.950 . S
H2063 C2041 0.950 . S
C2064 C2065 1.349 . S
C2064 C2066 1.327 . S
C2064 H2089 0.950 . S
C2065 C2064 1.349 . S
C2065 C2081 1.349 . S
C2066 C2064 1.327 . S
C2066 C2085 1.429 . S
C2066 H2090 0.950 . S
C2067 C2084 1.574 . S
C2067 C2086 1.368 . S
C2067 H2091 0.949 . S
H2068 C2072 0.949 . S
C2069 C2070 1.349 . S
C2069 C2071 1.327 . S
C2069 H2092 0.950 . S
C2070 C2069 1.349 . S
C2070 C2082 1.349 . S
C2071 C2069 1.327 . S
C2071 C2087 1.429 . S
C2071 H2093 0.950 . S
C2072 H2068 0.949 . S
C2072 C2080 1.574 . S
C2072 C2088 1.368 . S
H2073 C2081 0.950 . S
H2074 C2079 0.950 . S
H2075 C2080 0.949 . S
H2076 C2082 0.950 . S
H2077 C2083 0.950 . S
H2078 C2084 0.949 . S
C2079 H2074 0.950 . S
C2079 C2081 1.327 . S
C2079 C2085 1.429 . S
C2080 C2072 1.574 . S
C2080 H2075 0.949 . S
C2080 C2086 1.368 . S
C2081 C2065 1.349 . S
C2081 H2073 0.950 . S
C2081 C2079 1.327 . S
C2082 C2070 1.349 . S
C2082 H2076 0.950 . S
C2082 C2083 1.327 . S
C2083 H2077 0.950 . S
C2083 C2082 1.327 . S
C2083 C2087 1.429 . S
C2084 C2067 1.574 . S
C2084 H2078 0.949 . S
C2084 C2088 1.368 . S
C2085 C2066 1.429 . S
C2085 C2079 1.429 . S
C2085 C2086 1.523 . S
C2086 C2067 1.368 . S
C2086 C2080 1.368 . S
C2086 C2085 1.523 . S
C2087 C2071 1.429 . S
C2087 C2083 1.429 . S
C2087 C2088 1.523 . S
C2088 C2072 1.368 . S
C2088 C2084 1.368 . S
C2088 C2087 1.523 . S
H2089 C2064 0.950 . S
H2090 C2066 0.950 . S
H2091 C2067 0.949 . S
H2092 C2069 0.950 . S
H2093 C2071 0.950 . S
C2094 C2095 1.349 . S
C2094 C2096 1.327 . S
C2094 H2119 0.950 . S
C2095 C2094 1.349 . S
C2095 C2111 1.349 . S
C2096 C2094 1.327 . S
C2096 C2115 1.429 . S
C2096 H2120 0.950 . S
C2097 C2114 1.574 . S
C2097 C2116 1.368 . S
C2097 H2121 0.949 . S
H2098 C2102 0.949 . S
C2099 C2100 1.349 . S
C2099 C2101 1.327 . S
C2099 H2122 0.950 . S
C2100 C2099 1.349 . S
C2100 C2112 1.349 . S
C2101 C2099 1.327 . S
C2101 C2117 1.429 . S
C2101 H2123 0.950 . S
C2102 H2098 0.949 . S
C2102 C2110 1.574 . S
C2102 C2118 1.368 . S
H2103 C2111 0.950 . S
H2104 C2109 0.950 . S
H2105 C2110 0.949 . S
H2106 C2112 0.950 . S
H2107 C2113 0.950 . S
H2108 C2114 0.949 . S
C2109 H2104 0.950 . S
C2109 C2111 1.327 . S
C2109 C2115 1.429 . S
C2110 C2102 1.574 . S
C2110 H2105 0.949 . S
C2110 C2116 1.368 . S
C2111 C2095 1.349 . S
C2111 H2103 0.950 . S
C2111 C2109 1.327 . S
C2112 C2100 1.349 . S
C2112 H2106 0.950 . S
C2112 C2113 1.327 . S
C2113 H2107 0.950 . S
C2113 C2112 1.327 . S
C2113 C2117 1.429 . S
C2114 C2097 1.574 . S
C2114 H2108 0.949 . S
C2114 C2118 1.368 . S
C2115 C2096 1.429 . S
C2115 C2109 1.429 . S
C2115 C2116 1.523 . S
C2116 C2097 1.368 . S
C2116 C2110 1.368 . S
C2116 C2115 1.523 . S
C2117 C2101 1.429 . S
C2117 C2113 1.429 . S
C2117 C2118 1.523 . S
C2118 C2102 1.368 . S
C2118 C2114 1.368 . S
C2118 C2117 1.523 . S
H2119 C2094 0.950 . S
H2120 C2096 0.950 . S
H2121 C2097 0.949 . S
H2122 C2099 0.950 . S
H2123 C2101 0.950 . S
C2124 C2125 1.349 . S
C2124 C2126 1.327 . S
C2124 H2149 0.950 . S
C2125 C2124 1.349 . S
C2125 C2141 1.349 . S
C2126 C2124 1.327 . S
C2126 C2145 1.429 . S
C2126 H2150 0.950 . S
C2127 C2144 1.574 . S
C2127 C2146 1.368 . S
C2127 H2151 0.949 . S
H2128 C2132 0.949 . S
C2129 C2130 1.349 . S
C2129 C2131 1.327 . S
C2129 H2152 0.950 . S
C2130 C2129 1.349 . S
C2130 C2142 1.349 . S
C2131 C2129 1.327 . S
C2131 C2147 1.429 . S
C2131 H2153 0.950 . S
C2132 H2128 0.949 . S
C2132 C2140 1.574 . S
C2132 C2148 1.368 . S
H2133 C2141 0.950 . S
H2134 C2139 0.950 . S
H2135 C2140 0.949 . S
H2136 C2142 0.950 . S
H2137 C2143 0.950 . S
H2138 C2144 0.949 . S
C2139 H2134 0.950 . S
C2139 C2141 1.327 . S
C2139 C2145 1.429 . S
C2140 C2132 1.574 . S
C2140 H2135 0.949 . S
C2140 C2146 1.368 . S
C2141 C2125 1.349 . S
C2141 H2133 0.950 . S
C2141 C2139 1.327 . S
C2142 C2130 1.349 . S
C2142 H2136 0.950 . S
C2142 C2143 1.327 . S
C2143 H2137 0.950 . S
C2143 C2142 1.327 . S
C2143 C2147 1.429 . S
C2144 C2127 1.574 . S
C2144 H2138 0.949 . S
C2144 C2148 1.368 . S
C2145 C2126 1.429 . S
C2145 C2139 1.429 . S
C2145 C2146 1.523 . S
C2146 C2127 1.368 . S
C2146 C2140 1.368 . S
C2146 C2145 1.523 . S
C2147 C2131 1.429 . S
C2147 C2143 1.429 . S
C2147 C2148 1.523 . S
C2148 C2132 1.368 . S
C2148 C2144 1.368 . S
C2148 C2147 1.523 . S
H2149 C2124 0.950 . S
H2150 C2126 0.950 . S
H2151 C2127 0.949 . S
H2152 C2129 0.950 . S
H2153 C2131 0.950 . S
C2154 C2155 1.349 . S
C2154 C2156 1.327 . S
C2154 H2179 0.950 . S
C2155 C2154 1.349 . S
C2155 C2171 1.349 . S
C2156 C2154 1.327 . S
C2156 C2175 1.429 . S
C2156 H2180 0.950 . S
C2157 C2174 1.574 . S
C2157 C2176 1.368 . S
C2157 H2181 0.949 . S
H2158 C2162 0.949 . S
C2159 C2160 1.349 . S
C2159 C2161 1.327 . S
C2159 H2182 0.950 . S
C2160 C2159 1.349 . S
C2160 C2172 1.349 . S
C2161 C2159 1.327 . S
C2161 C2177 1.429 . S
C2161 H2183 0.950 . S
C2162 H2158 0.949 . S
C2162 C2170 1.574 . S
C2162 C2178 1.368 . S
H2163 C2171 0.950 . S
H2164 C2169 0.950 . S
H2165 C2170 0.949 . S
H2166 C2172 0.950 . S
H2167 C2173 0.950 . S
H2168 C2174 0.949 . S
C2169 H2164 0.950 . S
C2169 C2171 1.327 . S
C2169 C2175 1.429 . S
C2170 C2162 1.574 . S
C2170 H2165 0.949 . S
C2170 C2176 1.368 . S
C2171 C2155 1.349 . S
C2171 H2163 0.950 . S
C2171 C2169 1.327 . S
C2172 C2160 1.349 . S
C2172 H2166 0.950 . S
C2172 C2173 1.327 . S
C2173 H2167 0.950 . S
C2173 C2172 1.327 . S
C2173 C2177 1.429 . S
C2174 C2157 1.574 . S
C2174 H2168 0.949 . S
C2174 C2178 1.368 . S
C2175 C2156 1.429 . S
C2175 C2169 1.429 . S
C2175 C2176 1.523 . S
C2176 C2157 1.368 . S
C2176 C2170 1.368 . S
C2176 C2175 1.523 . S
C2177 C2161 1.429 . S
C2177 C2173 1.429 . S
C2177 C2178 1.523 . S
C2178 C2162 1.368 . S
C2178 C2174 1.368 . S
C2178 C2177 1.523 . S
H2179 C2154 0.950 . S
H2180 C2156 0.950 . S
H2181 C2157 0.949 . S
H2182 C2159 0.950 . S
H2183 C2161 0.950 . S
C2184 C2185 1.349 . S
C2184 C2186 1.327 . S
C2184 H2209 0.950 . S
C2185 C2184 1.349 . S
C2185 C2201 1.349 . S
C2186 C2184 1.327 . S
C2186 C2205 1.429 . S
C2186 H2210 0.950 . S
C2187 C2204 1.574 . S
C2187 C2206 1.368 . S
C2187 H2211 0.949 . S
H2188 C2192 0.949 . S
C2189 C2190 1.349 . S
C2189 C2191 1.327 . S
C2189 H2212 0.950 . S
C2190 C2189 1.349 . S
C2190 C2202 1.349 . S
C2191 C2189 1.327 . S
C2191 C2207 1.429 . S
C2191 H2213 0.950 . S
C2192 H2188 0.949 . S
C2192 C2200 1.574 . S
C2192 C2208 1.368 . S
H2193 C2201 0.950 . S
H2194 C2199 0.950 . S
H2195 C2200 0.949 . S
H2196 C2202 0.950 . S
H2197 C2203 0.950 . S
H2198 C2204 0.949 . S
C2199 H2194 0.950 . S
C2199 C2201 1.327 . S
C2199 C2205 1.429 . S
C2200 C2192 1.574 . S
C2200 H2195 0.949 . S
C2200 C2206 1.368 . S
C2201 C2185 1.349 . S
C2201 H2193 0.950 . S
C2201 C2199 1.327 . S
C2202 C2190 1.349 . S
C2202 H2196 0.950 . S
C2202 C2203 1.327 . S
C2203 H2197 0.950 . S
C2203 C2202 1.327 . S
C2203 C2207 1.429 . S
C2204 C2187 1.574 . S
C2204 H2198 0.949 . S
C2204 C2208 1.368 . S
C2205 C2186 1.429 . S
C2205 C2199 1.429 . S
C2205 C2206 1.523 . S
C2206 C2187 1.368 . S
C2206 C2200 1.368 . S
C2206 C2205 1.523 . S
C2207 C2191 1.429 . S
C2207 C2203 1.429 . S
C2207 C2208 1.523 . S
C2208 C2192 1.368 . S
C2208 C2204 1.368 . S
C2208 C2207 1.523 . S
H2209 C2184 0.950 . S
H2210 C2186 0.950 . S
H2211 C2187 0.949 . S
H2212 C2189 0.950 . S
H2213 C2191 0.950 . S
C2214 C2215 1.349 . S
C2214 C2216 1.327 . S
C2214 H2239 0.950 . S
C2215 C2214 1.349 . S
C2215 C2231 1.349 . S
C2216 C2214 1.327 . S
C2216 C2235 1.429 . S
C2216 H2240 0.950 . S
C2217 C2234 1.574 . S
C2217 C2236 1.368 . S
C2217 H2241 0.949 . S
H2218 C2222 0.949 . S
C2219 C2220 1.349 . S
C2219 C2221 1.327 . S
C2219 H2242 0.950 . S
C2220 C2219 1.349 . S
C2220 C2232 1.349 . S
C2221 C2219 1.327 . S
C2221 C2237 1.429 . S
C2221 H2243 0.950 . S
C2222 H2218 0.949 . S
C2222 C2230 1.574 . S
C2222 C2238 1.368 . S
H2223 C2231 0.950 . S
H2224 C2229 0.950 . S
H2225 C2230 0.949 . S
H2226 C2232 0.950 . S
H2227 C2233 0.950 . S
H2228 C2234 0.949 . S
C2229 H2224 0.950 . S
C2229 C2231 1.327 . S
C2229 C2235 1.429 . S
C2230 C2222 1.574 . S
C2230 H2225 0.949 . S
C2230 C2236 1.368 . S
C2231 C2215 1.349 . S
C2231 H2223 0.950 . S
C2231 C2229 1.327 . S
C2232 C2220 1.349 . S
C2232 H2226 0.950 . S
C2232 C2233 1.327 . S
C2233 H2227 0.950 . S
C2233 C2232 1.327 . S
C2233 C2237 1.429 . S
C2234 C2217 1.574 . S
C2234 H2228 0.949 . S
C2234 C2238 1.368 . S
C2235 C2216 1.429 . S
C2235 C2229 1.429 . S
C2235 C2236 1.523 . S
C2236 C2217 1.368 . S
C2236 C2230 1.368 . S
C2236 C2235 1.523 . S
C2237 C2221 1.429 . S
C2237 C2233 1.429 . S
C2237 C2238 1.523 . S
C2238 C2222 1.368 . S
C2238 C2234 1.368 . S
C2238 C2237 1.523 . S
H2239 C2214 0.950 . S
H2240 C2216 0.950 . S
H2241 C2217 0.949 . S
H2242 C2219 0.950 . S
H2243 C2221 0.950 . S
C2244 C2245 1.349 . S
C2244 C2246 1.327 . S
C2244 H2269 0.950 . S
C2245 C2244 1.349 . S
C2245 C2261 1.349 . S
C2246 C2244 1.327 . S
C2246 C2265 1.429 . S
C2246 H2270 0.950 . S
C2247 C2264 1.574 . S
C2247 C2266 1.368 . S
C2247 H2271 0.949 . S
H2248 C2252 0.949 . S
C2249 C2250 1.349 . S
C2249 C2251 1.327 . S
C2249 H2272 0.950 . S
C2250 C2249 1.349 . S
C2250 C2262 1.349 . S
C2251 C2249 1.327 . S
C2251 C2267 1.429 . S
C2251 H2273 0.950 . S
C2252 H2248 0.949 . S
C2252 C2260 1.574 . S
C2252 C2268 1.368 . S
H2253 C2261 0.950 . S
H2254 C2259 0.950 . S
H2255 C2260 0.949 . S
H2256 C2262 0.950 . S
H2257 C2263 0.950 . S
H2258 C2264 0.949 . S
C2259 H2254 0.950 . S
C2259 C2261 1.327 . S
C2259 C2265 1.429 . S
C2260 C2252 1.574 . S
C2260 H2255 0.949 . S
C2260 C2266 1.368 . S
C2261 C2245 1.349 . S
C2261 H2253 0.950 . S
C2261 C2259 1.327 . S
C2262 C2250 1.349 . S
C2262 H2256 0.950 . S
C2262 C2263 1.327 . S
C2263 H2257 0.950 . S
C2263 C2262 1.327 . S
C2263 C2267 1.429 . S
C2264 C2247 1.574 . S
C2264 H2258 0.949 . S
C2264 C2268 1.368 . S
C2265 C2246 1.429 . S
C2265 C2259 1.429 . S
C2265 C2266 1.523 . S
C2266 C2247 1.368 . S
C2266 C2260 1.368 . S
C2266 C2265 1.523 . S
C2267 C2251 1.429 . S
C2267 C2263 1.429 . S
C2267 C2268 1.523 . S
C2268 C2252 1.368 . S
C2268 C2264 1.368 . S
C2268 C2267 1.523 . S
H2269 C2244 0.950 . S
H2270 C2246 0.950 . S
H2271 C2247 0.949 . S
H2272 C2249 0.950 . S
H2273 C2251 0.950 . S
C2274 C2275 1.349 . S
C2274 C2276 1.327 . S
C2274 H2299 0.950 . S
C2275 C2274 1.349 . S
C2275 C2291 1.349 . S
C2276 C2274 1.327 . S
C2276 C2295 1.429 . S
C2276 H2300 0.950 . S
C2277 C2294 1.574 . S
C2277 C2296 1.368 . S
C2277 H2301 0.949 . S
H2278 C2282 0.949 . S
C2279 C2280 1.349 . S
C2279 C2281 1.327 . S
C2279 H2302 0.950 . S
C2280 C2279 1.349 . S
C2280 C2292 1.349 . S
C2281 C2279 1.327 . S
C2281 C2297 1.429 . S
C2281 H2303 0.950 . S
C2282 H2278 0.949 . S
C2282 C2290 1.574 . S
C2282 C2298 1.368 . S
H2283 C2291 0.950 . S
H2284 C2289 0.950 . S
H2285 C2290 0.949 . S
H2286 C2292 0.950 . S
H2287 C2293 0.950 . S
H2288 C2294 0.949 . S
C2289 H2284 0.950 . S
C2289 C2291 1.327 . S
C2289 C2295 1.429 . S
C2290 C2282 1.574 . S
C2290 H2285 0.949 . S
C2290 C2296 1.368 . S
C2291 C2275 1.349 . S
C2291 H2283 0.950 . S
C2291 C2289 1.327 . S
C2292 C2280 1.349 . S
C2292 H2286 0.950 . S
C2292 C2293 1.327 . S
C2293 H2287 0.950 . S
C2293 C2292 1.327 . S
C2293 C2297 1.429 . S
C2294 C2277 1.574 . S
C2294 H2288 0.949 . S
C2294 C2298 1.368 . S
C2295 C2276 1.429 . S
C2295 C2289 1.429 . S
C2295 C2296 1.523 . S
C2296 C2277 1.368 . S
C2296 C2290 1.368 . S
C2296 C2295 1.523 . S
C2297 C2281 1.429 . S
C2297 C2293 1.429 . S
C2297 C2298 1.523 . S
C2298 C2282 1.368 . S
C2298 C2294 1.368 . S
C2298 C2297 1.523 . S
H2299 C2274 0.950 . S
H2300 C2276 0.950 . S
H2301 C2277 0.949 . S
H2302 C2279 0.950 . S
H2303 C2281 0.950 . S
C2304 C2305 1.349 . S
C2304 C2306 1.327 . S
C2304 H2329 0.950 . S
C2305 C2304 1.349 . S
C2305 C2321 1.349 . S
C2306 C2304 1.327 . S
C2306 C2325 1.429 . S
C2306 H2330 0.950 . S
C2307 C2324 1.574 . S
C2307 C2326 1.368 . S
C2307 H2331 0.949 . S
H2308 C2312 0.949 . S
C2309 C2310 1.349 . S
C2309 C2311 1.327 . S
C2309 H2332 0.950 . S
C2310 C2309 1.349 . S
C2310 C2322 1.349 . S
C2311 C2309 1.327 . S
C2311 C2327 1.429 . S
C2311 H2333 0.950 . S
C2312 H2308 0.949 . S
C2312 C2320 1.574 . S
C2312 C2328 1.368 . S
H2313 C2321 0.950 . S
H2314 C2319 0.950 . S
H2315 C2320 0.949 . S
H2316 C2322 0.950 . S
H2317 C2323 0.950 . S
H2318 C2324 0.949 . S
C2319 H2314 0.950 . S
C2319 C2321 1.327 . S
C2319 C2325 1.429 . S
C2320 C2312 1.574 . S
C2320 H2315 0.949 . S
C2320 C2326 1.368 . S
C2321 C2305 1.349 . S
C2321 H2313 0.950 . S
C2321 C2319 1.327 . S
C2322 C2310 1.349 . S
C2322 H2316 0.950 . S
C2322 C2323 1.327 . S
C2323 H2317 0.950 . S
C2323 C2322 1.327 . S
C2323 C2327 1.429 . S
C2324 C2307 1.574 . S
C2324 H2318 0.949 . S
C2324 C2328 1.368 . S
C2325 C2306 1.429 . S
C2325 C2319 1.429 . S
C2325 C2326 1.523 . S
C2326 C2307 1.368 . S
C2326 C2320 1.368 . S
C2326 C2325 1.523 . S
C2327 C2311 1.429 . S
C2327 C2323 1.429 . S
C2327 C2328 1.523 . S
C2328 C2312 1.368 . S
C2328 C2324 1.368 . S
C2328 C2327 1.523 . S
H2329 C2304 0.950 . S
H2330 C2306 0.950 . S
H2331 C2307 0.949 . S
H2332 C2309 0.950 . S
H2333 C2311 0.950 . S
C2334 C2335 1.349 . S
C2334 C2336 1.327 . S
C2334 H2359 0.950 . S
C2335 C2334 1.349 . S
C2335 C2351 1.349 . S
C2336 C2334 1.327 . S
C2336 C2355 1.429 . S
C2336 H2360 0.950 . S
C2337 C2354 1.574 . S
C2337 C2356 1.368 . S
C2337 H2361 0.949 . S
H2338 C2342 0.949 . S
C2339 C2340 1.349 . S
C2339 C2341 1.327 . S
C2339 H2362 0.950 . S
C2340 C2339 1.349 . S
C2340 C2352 1.349 . S
C2341 C2339 1.327 . S
C2341 C2357 1.429 . S
C2341 H2363 0.950 . S
C2342 H2338 0.949 . S
C2342 C2350 1.574 . S
C2342 C2358 1.368 . S
H2343 C2351 0.950 . S
H2344 C2349 0.950 . S
H2345 C2350 0.949 . S
H2346 C2352 0.950 . S
H2347 C2353 0.950 . S
H2348 C2354 0.949 . S
C2349 H2344 0.950 . S
C2349 C2351 1.327 . S
C2349 C2355 1.429 . S
C2350 C2342 1.574 . S
C2350 H2345 0.949 . S
C2350 C2356 1.368 . S
C2351 C2335 1.349 . S
C2351 H2343 0.950 . S
C2351 C2349 1.327 . S
C2352 C2340 1.349 . S
C2352 H2346 0.950 . S
C2352 C2353 1.327 . S
C2353 H2347 0.950 . S
C2353 C2352 1.327 . S
C2353 C2357 1.429 . S
C2354 C2337 1.574 . S
C2354 H2348 0.949 . S
C2354 C2358 1.368 . S
C2355 C2336 1.429 . S
C2355 C2349 1.429 . S
C2355 C2356 1.523 . S
C2356 C2337 1.368 . S
C2356 C2350 1.368 . S
C2356 C2355 1.523 . S
C2357 C2341 1.429 . S
C2357 C2353 1.429 . S
C2357 C2358 1.523 . S
C2358 C2342 1.368 . S
C2358 C2354 1.368 . S
C2358 C2357 1.523 . S
H2359 C2334 0.950 . S
H2360 C2336 0.950 . S
H2361 C2337 0.949 . S
H2362 C2339 0.950 . S
H2363 C2341 0.950 . S
C2364 C2365 1.349 . S
C2364 C2366 1.327 . S
C2364 H2389 0.950 . S
C2365 C2364 1.349 . S
C2365 C2381 1.349 . S
C2366 C2364 1.327 . S
C2366 C2385 1.429 . S
C2366 H2390 0.950 . S
C2367 C2384 1.574 . S
C2367 C2386 1.368 . S
C2367 H2391 0.949 . S
H2368 C2372 0.949 . S
C2369 C2370 1.349 . S
C2369 C2371 1.327 . S
C2369 H2392 0.950 . S
C2370 C2369 1.349 . S
C2370 C2382 1.349 . S
C2371 C2369 1.327 . S
C2371 C2387 1.429 . S
C2371 H2393 0.950 . S
C2372 H2368 0.949 . S
C2372 C2380 1.574 . S
C2372 C2388 1.368 . S
H2373 C2381 0.950 . S
H2374 C2379 0.950 . S
H2375 C2380 0.949 . S
H2376 C2382 0.950 . S
H2377 C2383 0.950 . S
H2378 C2384 0.949 . S
C2379 H2374 0.950 . S
C2379 C2381 1.327 . S
C2379 C2385 1.429 . S
C2380 C2372 1.574 . S
C2380 H2375 0.949 . S
C2380 C2386 1.368 . S
C2381 C2365 1.349 . S
C2381 H2373 0.950 . S
C2381 C2379 1.327 . S
C2382 C2370 1.349 . S
C2382 H2376 0.950 . S
C2382 C2383 1.327 . S
C2383 H2377 0.950 . S
C2383 C2382 1.327 . S
C2383 C2387 1.429 . S
C2384 C2367 1.574 . S
C2384 H2378 0.949 . S
C2384 C2388 1.368 . S
C2385 C2366 1.429 . S
C2385 C2379 1.429 . S
C2385 C2386 1.523 . S
C2386 C2367 1.368 . S
C2386 C2380 1.368 . S
C2386 C2385 1.523 . S
C2387 C2371 1.429 . S
C2387 C2383 1.429 . S
C2387 C2388 1.523 . S
C2388 C2372 1.368 . S
C2388 C2384 1.368 . S
C2388 C2387 1.523 . S
H2389 C2364 0.950 . S
H2390 C2366 0.950 . S
H2391 C2367 0.949 . S
H2392 C2369 0.950 . S
H2393 C2371 0.950 . S
C2394 C2395 1.349 . S
C2394 C2396 1.327 . S
C2394 H2419 0.950 . S
C2395 C2394 1.349 . S
C2395 C2411 1.349 . S
C2396 C2394 1.327 . S
C2396 C2415 1.429 . S
C2396 H2420 0.950 . S
C2397 C2414 1.574 . S
C2397 C2416 1.368 . S
C2397 H2421 0.949 . S
H2398 C2402 0.949 . S
C2399 C2400 1.349 . S
C2399 C2401 1.327 . S
C2399 H2422 0.950 . S
C2400 C2399 1.349 . S
C2400 C2412 1.349 . S
C2401 C2399 1.327 . S
C2401 C2417 1.429 . S
C2401 H2423 0.950 . S
C2402 H2398 0.949 . S
C2402 C2410 1.574 . S
C2402 C2418 1.368 . S
H2403 C2411 0.950 . S
H2404 C2409 0.950 . S
H2405 C2410 0.949 . S
H2406 C2412 0.950 . S
H2407 C2413 0.950 . S
H2408 C2414 0.949 . S
C2409 H2404 0.950 . S
C2409 C2411 1.327 . S
C2409 C2415 1.429 . S
C2410 C2402 1.574 . S
C2410 H2405 0.949 . S
C2410 C2416 1.368 . S
C2411 C2395 1.349 . S
C2411 H2403 0.950 . S
C2411 C2409 1.327 . S
C2412 C2400 1.349 . S
C2412 H2406 0.950 . S
C2412 C2413 1.327 . S
C2413 H2407 0.950 . S
C2413 C2412 1.327 . S
C2413 C2417 1.429 . S
C2414 C2397 1.574 . S
C2414 H2408 0.949 . S
C2414 C2418 1.368 . S
C2415 C2396 1.429 . S
C2415 C2409 1.429 . S
C2415 C2416 1.523 . S
C2416 C2397 1.368 . S
C2416 C2410 1.368 . S
C2416 C2415 1.523 . S
C2417 C2401 1.429 . S
C2417 C2413 1.429 . S
C2417 C2418 1.523 . S
C2418 C2402 1.368 . S
C2418 C2414 1.368 . S
C2418 C2417 1.523 . S
H2419 C2394 0.950 . S
H2420 C2396 0.950 . S
H2421 C2397 0.949 . S
H2422 C2399 0.950 . S
H2423 C2401 0.950 . S
C2424 C2425 1.349 . S
C2424 C2426 1.327 . S
C2424 H2449 0.950 . S
C2425 C2424 1.349 . S
C2425 C2441 1.349 . S
C2426 C2424 1.327 . S
C2426 C2445 1.429 . S
C2426 H2450 0.950 . S
C2427 C2444 1.574 . S
C2427 C2446 1.368 . S
C2427 H2451 0.949 . S
H2428 C2432 0.949 . S
C2429 C2430 1.349 . S
C2429 C2431 1.327 . S
C2429 H2452 0.950 . S
C2430 C2429 1.349 . S
C2430 C2442 1.349 . S
C2431 C2429 1.327 . S
C2431 C2447 1.429 . S
C2431 H2453 0.950 . S
C2432 H2428 0.949 . S
C2432 C2440 1.574 . S
C2432 C2448 1.368 . S
H2433 C2441 0.950 . S
H2434 C2439 0.950 . S
H2435 C2440 0.949 . S
H2436 C2442 0.950 . S
H2437 C2443 0.950 . S
H2438 C2444 0.949 . S
C2439 H2434 0.950 . S
C2439 C2441 1.327 . S
C2439 C2445 1.429 . S
C2440 C2432 1.574 . S
C2440 H2435 0.949 . S
C2440 C2446 1.368 . S
C2441 C2425 1.349 . S
C2441 H2433 0.950 . S
C2441 C2439 1.327 . S
C2442 C2430 1.349 . S
C2442 H2436 0.950 . S
C2442 C2443 1.327 . S
C2443 H2437 0.950 . S
C2443 C2442 1.327 . S
C2443 C2447 1.429 . S
C2444 C2427 1.574 . S
C2444 H2438 0.949 . S
C2444 C2448 1.368 . S
C2445 C2426 1.429 . S
C2445 C2439 1.429 . S
C2445 C2446 1.523 . S
C2446 C2427 1.368 . S
C2446 C2440 1.368 . S
C2446 C2445 1.523 . S
C2447 C2431 1.429 . S
C2447 C2443 1.429 . S
C2447 C2448 1.523 . S
C2448 C2432 1.368 . S
C2448 C2444 1.368 . S
C2448 C2447 1.523 . S
H2449 C2424 0.950 . S
H2450 C2426 0.950 . S
H2451 C2427 0.949 . S
H2452 C2429 0.950 . S
H2453 C2431 0.950 . S
C2454 C2455 1.349 . S
C2454 C2456 1.327 . S
C2454 H2479 0.950 . S
C2455 C2454 1.349 . S
C2455 C2471 1.349 . S
C2456 C2454 1.327 . S
C2456 C2475 1.429 . S
C2456 H2480 0.950 . S
C2457 C2474 1.574 . S
C2457 C2476 1.368 . S
C2457 H2481 0.949 . S
H2458 C2462 0.949 . S
C2459 C2460 1.349 . S
C2459 C2461 1.327 . S
C2459 H2482 0.950 . S
C2460 C2459 1.349 . S
C2460 C2472 1.349 . S
C2461 C2459 1.327 . S
C2461 C2477 1.429 . S
C2461 H2483 0.950 . S
C2462 H2458 0.949 . S
C2462 C2470 1.574 . S
C2462 C2478 1.368 . S
H2463 C2471 0.950 . S
H2464 C2469 0.950 . S
H2465 C2470 0.949 . S
H2466 C2472 0.950 . S
H2467 C2473 0.950 . S
H2468 C2474 0.949 . S
C2469 H2464 0.950 . S
C2469 C2471 1.327 . S
C2469 C2475 1.429 . S
C2470 C2462 1.574 . S
C2470 H2465 0.949 . S
C2470 C2476 1.368 . S
C2471 C2455 1.349 . S
C2471 H2463 0.950 . S
C2471 C2469 1.327 . S
C2472 C2460 1.349 . S
C2472 H2466 0.950 . S
C2472 C2473 1.327 . S
C2473 H2467 0.950 . S
C2473 C2472 1.327 . S
C2473 C2477 1.429 . S
C2474 C2457 1.574 . S
C2474 H2468 0.949 . S
C2474 C2478 1.368 . S
C2475 C2456 1.429 . S
C2475 C2469 1.429 . S
C2475 C2476 1.523 . S
C2476 C2457 1.368 . S
C2476 C2470 1.368 . S
C2476 C2475 1.523 . S
C2477 C2461 1.429 . S
C2477 C2473 1.429 . S
C2477 C2478 1.523 . S
C2478 C2462 1.368 . S
C2478 C2474 1.368 . S
C2478 C2477 1.523 . S
H2479 C2454 0.950 . S
H2480 C2456 0.950 . S
H2481 C2457 0.949 . S
H2482 C2459 0.950 . S
H2483 C2461 0.950 . S
C2484 C2485 1.349 . S
C2484 C2486 1.327 . S
C2484 H2509 0.950 . S
C2485 C2484 1.349 . S
C2485 C2501 1.349 . S
C2486 C2484 1.327 . S
C2486 C2505 1.429 . S
C2486 H2510 0.950 . S
C2487 C2504 1.574 1_455 S
C2487 C2506 1.368 . S
C2487 H2511 0.949 . S
H2488 C2492 0.949 . S
C2489 C2490 1.349 . S
C2489 C2491 1.327 . S
C2489 H2512 0.950 . S
C2490 C2489 1.349 . S
C2490 C2502 1.349 . S
C2491 C2489 1.327 . S
C2491 C2507 1.429 . S
C2491 H2513 0.950 . S
C2492 H2488 0.949 . S
C2492 C2500 1.574 1_655 S
C2492 C2508 1.368 . S
H2493 C2501 0.950 . S
H2494 C2499 0.950 . S
H2495 C2500 0.949 . S
H2496 C2502 0.950 . S
H2497 C2503 0.950 . S
H2498 C2504 0.949 . S
C2499 H2494 0.950 . S
C2499 C2501 1.327 . S
C2499 C2505 1.429 . S
C2500 C2492 1.574 1_455 S
C2500 H2495 0.949 . S
C2500 C2506 1.368 . S
C2501 C2485 1.349 . S
C2501 H2493 0.950 . S
C2501 C2499 1.327 . S
C2502 C2490 1.349 . S
C2502 H2496 0.950 . S
C2502 C2503 1.327 . S
C2503 H2497 0.950 . S
C2503 C2502 1.327 . S
C2503 C2507 1.429 . S
C2504 C2487 1.574 1_655 S
C2504 H2498 0.949 . S
C2504 C2508 1.368 . S
C2505 C2486 1.429 . S
C2505 C2499 1.429 . S
C2505 C2506 1.523 . S
C2506 C2487 1.368 . S
C2506 C2500 1.368 . S
C2506 C2505 1.523 . S
C2507 C2491 1.429 . S
C2507 C2503 1.429 . S
C2507 C2508 1.523 . S
C2508 C2492 1.368 . S
C2508 C2504 1.368 . S
C2508 C2507 1.523 . S
H2509 C2484 0.950 . S
H2510 C2486 0.950 . S
H2511 C2487 0.949 . S
H2512 C2489 0.950 . S
H2513 C2491 0.950 . S
C2514 C2515 1.349 . S
C2514 C2516 1.327 . S
C2514 H2539 0.950 . S
C2515 C2514 1.349 . S
C2515 C2531 1.349 . S
C2516 C2514 1.327 . S
C2516 C2535 1.429 . S
C2516 H2540 0.950 . S
C2517 C2534 1.574 . S
C2517 C2536 1.368 . S
C2517 H2541 0.949 . S
H2518 C2522 0.949 . S
C2519 C2520 1.349 . S
C2519 C2521 1.327 . S
C2519 H2542 0.950 . S
C2520 C2519 1.349 . S
C2520 C2532 1.349 . S
C2521 C2519 1.327 . S
C2521 C2537 1.429 . S
C2521 H2543 0.950 . S
C2522 H2518 0.949 . S
C2522 C2530 1.574 . S
C2522 C2538 1.368 . S
H2523 C2531 0.950 . S
H2524 C2529 0.950 . S
H2525 C2530 0.949 . S
H2526 C2532 0.950 . S
H2527 C2533 0.950 . S
H2528 C2534 0.949 . S
C2529 H2524 0.950 . S
C2529 C2531 1.327 . S
C2529 C2535 1.429 . S
C2530 C2522 1.574 . S
C2530 H2525 0.949 . S
C2530 C2536 1.368 . S
C2531 C2515 1.349 . S
C2531 H2523 0.950 . S
C2531 C2529 1.327 . S
C2532 C2520 1.349 . S
C2532 H2526 0.950 . S
C2532 C2533 1.327 . S
C2533 H2527 0.950 . S
C2533 C2532 1.327 . S
C2533 C2537 1.429 . S
C2534 C2517 1.574 . S
C2534 H2528 0.949 . S
C2534 C2538 1.368 . S
C2535 C2516 1.429 . S
C2535 C2529 1.429 . S
C2535 C2536 1.523 . S
C2536 C2517 1.368 . S
C2536 C2530 1.368 . S
C2536 C2535 1.523 . S
C2537 C2521 1.429 . S
C2537 C2533 1.429 . S
C2537 C2538 1.523 . S
C2538 C2522 1.368 . S
C2538 C2534 1.368 . S
C2538 C2537 1.523 . S
H2539 C2514 0.950 . S
H2540 C2516 0.950 . S
H2541 C2517 0.949 . S
H2542 C2519 0.950 . S
H2543 C2521 0.950 . S
C2544 C2545 1.349 . S
C2544 C2546 1.327 . S
C2544 H2569 0.950 . S
C2545 C2544 1.349 . S
C2545 C2561 1.349 . S
C2546 C2544 1.327 . S
C2546 C2565 1.429 . S
C2546 H2570 0.950 . S
C2547 C2564 1.574 1_545 S
C2547 C2566 1.368 . S
C2547 H2571 0.949 . S
H2548 C2552 0.949 . S
C2549 C2550 1.349 . S
C2549 C2551 1.327 . S
C2549 H2572 0.950 . S
C2550 C2549 1.349 . S
C2550 C2562 1.349 . S
C2551 C2549 1.327 . S
C2551 C2567 1.429 . S
C2551 H2573 0.950 . S
C2552 H2548 0.949 . S
C2552 C2560 1.574 1_565 S
C2552 C2568 1.368 . S
H2553 C2561 0.950 . S
H2554 C2559 0.950 . S
H2555 C2560 0.949 . S
H2556 C2562 0.950 . S
H2557 C2563 0.950 . S
H2558 C2564 0.949 . S
C2559 H2554 0.950 . S
C2559 C2561 1.327 . S
C2559 C2565 1.429 . S
C2560 C2552 1.574 1_545 S
C2560 H2555 0.949 . S
C2560 C2566 1.368 . S
C2561 C2545 1.349 . S
C2561 H2553 0.950 . S
C2561 C2559 1.327 . S
C2562 C2550 1.349 . S
C2562 H2556 0.950 . S
C2562 C2563 1.327 . S
C2563 H2557 0.950 . S
C2563 C2562 1.327 . S
C2563 C2567 1.429 . S
C2564 C2547 1.574 1_565 S
C2564 H2558 0.949 . S
C2564 C2568 1.368 . S
C2565 C2546 1.429 . S
C2565 C2559 1.429 . S
C2565 C2566 1.523 . S
C2566 C2547 1.368 . S
C2566 C2560 1.368 . S
C2566 C2565 1.523 . S
C2567 C2551 1.429 . S
C2567 C2563 1.429 . S
C2567 C2568 1.523 . S
C2568 C2552 1.368 . S
C2568 C2564 1.368 . S
C2568 C2567 1.523 . S
H2569 C2544 0.950 . S
H2570 C2546 0.950 . S
H2571 C2547 0.949 . S
H2572 C2549 0.950 . S
H2573 C2551 0.950 . S
C2574 C2575 1.349 . S
C2574 C2576 1.327 . S
C2574 H2599 0.950 . S
C2575 C2574 1.349 . S
C2575 C2591 1.349 . S
C2576 C2574 1.327 . S
C2576 C2595 1.429 . S
C2576 H2600 0.950 . S
C2577 C2594 1.574 1_545 S
C2577 C2596 1.368 1_554 S
C2577 H2601 0.949 . S
H2578 C2582 0.949 . S
C2579 C2580 1.349 . S
C2579 C2581 1.327 . S
C2579 H2602 0.950 . S
C2580 C2579 1.349 . S
C2580 C2592 1.349 . S
C2581 C2579 1.327 . S
C2581 C2597 1.429 . S
C2581 H2603 0.950 . S
C2582 H2578 0.949 . S
C2582 C2590 1.574 1_565 S
C2582 C2598 1.368 1_556 S
H2583 C2591 0.971 . S
H2584 C2589 0.950 1_554 S
H2585 C2590 0.949 . S
H2586 C2592 0.950 1_556 S
H2587 C2593 0.958 . S
H2588 C2594 0.949 . S
C2589 H2584 0.950 1_556 S
C2589 C2591 1.327 . S
C2589 C2595 1.429 . S
C2590 C2582 1.574 1_545 S
C2590 H2585 0.949 . S
C2590 C2596 1.368 . S
C2591 C2575 1.349 . S
C2591 H2583 0.971 . S
C2591 C2589 1.327 . S
C2592 C2580 1.349 . S
C2592 H2586 0.950 1_554 S
C2592 C2593 1.324 1_554 S
C2593 H2587 0.958 . S
C2593 C2592 1.324 1_556 S
C2593 C2597 1.423 1_556 S
C2594 C2577 1.574 1_565 S
C2594 H2588 0.949 . S
C2594 C2598 1.368 . S
C2595 C2576 1.429 . S
C2595 C2589 1.429 . S
C2595 C2596 1.523 . S
C2596 C2577 1.368 1_556 S
C2596 C2590 1.368 . S
C2596 C2595 1.523 . S
C2597 C2581 1.429 . S
C2597 C2593 1.423 1_554 S
C2597 C2598 1.523 . S
C2598 C2582 1.368 1_554 S
C2598 C2594 1.368 . S
C2598 C2597 1.523 . S
H2599 C2574 0.950 . S
H2600 C2576 0.950 . S
H2601 C2577 0.949 . S
H2602 C2579 0.950 . S
H2603 C2581 0.950 . S
C2604 C2605 1.349 . S
C2604 C2606 1.327 . S
C2604 H2629 0.950 . S
C2605 C2604 1.349 . S
C2605 C2621 1.349 . S
C2606 C2604 1.327 . S
C2606 C2625 1.429 . S
C2606 H2630 0.950 . S
C2607 C2624 1.574 1_655 S
C2607 C2626 1.368 . S
C2607 H2631 0.949 . S
H2608 C2612 0.949 . S
C2609 C2610 1.349 . S
C2609 C2611 1.327 . S
C2609 H2632 0.950 . S
C2610 C2609 1.349 . S
C2610 C2622 1.349 . S
C2611 C2609 1.327 . S
C2611 C2627 1.429 . S
C2611 H2633 0.950 . S
C2612 H2608 0.949 . S
C2612 C2620 1.574 1_454 S
C2612 C2628 1.368 . S
H2613 C2621 0.950 . S
H2614 C2619 0.950 . S
H2615 C2620 0.949 . S
H2616 C2622 0.950 . S
H2617 C2623 0.950 . S
H2618 C2624 0.949 . S
C2619 H2614 0.950 . S
C2619 C2621 1.327 . S
C2619 C2625 1.429 . S
C2620 C2612 1.574 1_656 S
C2620 H2615 0.949 . S
C2620 C2626 1.368 . S
C2621 C2605 1.349 . S
C2621 H2613 0.950 . S
C2621 C2619 1.327 . S
C2622 C2610 1.349 . S
C2622 H2616 0.950 . S
C2622 C2623 1.327 . S
C2623 H2617 0.950 . S
C2623 C2622 1.327 . S
C2623 C2627 1.429 . S
C2624 C2607 1.574 1_455 S
C2624 H2618 0.949 . S
C2624 C2628 1.368 1_556 S
C2625 C2606 1.429 . S
C2625 C2619 1.429 . S
C2625 C2626 1.523 . S
C2626 C2607 1.368 . S
C2626 C2620 1.368 . S
C2626 C2625 1.523 . S
C2627 C2611 1.429 . S
C2627 C2623 1.429 . S
C2627 C2628 1.523 . S
C2628 C2612 1.368 . S
C2628 C2624 1.368 1_554 S
C2628 C2627 1.523 . S
H2629 C2604 0.950 . S
H2630 C2606 0.950 . S
H2631 C2607 0.949 . S
H2632 C2609 0.950 . S
H2633 C2611 0.950 . S
C2634 C2635 1.349 . S
C2634 C2636 1.327 . S
C2634 H2659 0.950 . S
C2635 C2634 1.349 . S
C2635 C2651 1.349 . S
C2636 C2634 1.327 . S
C2636 C2655 1.429 . S
C2636 H2660 0.950 1_556 S
C2637 C2654 1.574 . S
C2637 C2656 1.368 . S
C2637 H2661 0.949 . S
H2638 C2642 0.949 . S
C2639 C2640 1.349 . S
C2639 C2641 1.327 1_554 S
C2639 H2662 0.950 1_554 S
C2640 C2639 1.349 . S
C2640 C2652 1.349 . S
C2641 C2639 1.327 1_556 S
C2641 C2657 1.429 1_556 S
C2641 H2663 0.950 . S
C2642 H2638 0.949 . S
C2642 C2650 1.574 . S
C2642 C2658 1.368 . S
H2643 C2651 0.950 . S
H2644 C2649 0.950 . S
H2645 C2650 0.949 . S
H2646 C2652 0.950 . S
H2647 C2653 0.950 . S
H2648 C2654 0.949 . S
C2649 H2644 0.950 . S
C2649 C2651 1.327 . S
C2649 C2655 1.429 . S
C2650 C2642 1.574 . S
C2650 H2645 0.949 . S
C2650 C2656 1.368 1_554 S
C2651 C2635 1.349 . S
C2651 H2643 0.950 . S
C2651 C2649 1.327 . S
C2652 C2640 1.349 . S
C2652 H2646 0.950 . S
C2652 C2653 1.327 . S
C2653 H2647 0.950 . S
C2653 C2652 1.327 . S
C2653 C2657 1.429 . S
C2654 C2637 1.574 . S
C2654 H2648 0.949 . S
C2654 C2658 1.368 1_556 S
C2655 C2636 1.429 . S
C2655 C2649 1.429 . S
C2655 C2656 1.523 . S
C2656 C2637 1.368 . S
C2656 C2650 1.368 1_556 S
C2656 C2655 1.523 . S
C2657 C2641 1.429 1_554 S
C2657 C2653 1.429 . S
C2657 C2658 1.523 . S
C2658 C2642 1.368 . S
C2658 C2654 1.368 1_554 S
C2658 C2657 1.523 . S
H2659 C2634 0.950 . S
H2660 C2636 0.950 1_554 S
H2661 C2637 0.949 . S
H2662 C2639 0.950 1_556 S
H2663 C2641 0.950 . S
C505 C11 0.927 . S
C510 C102 0.945 . S
C535 C19 0.993 . S
C540 C116 1.044 . S
C565 C88 0.988 . S
C570 C33 0.942 . S
C595 C158 0.989 . S
C600 C47 0.942 . S
C625 C61 0.992 . S
C630 C130 1.043 . S
C655 C81 0.927 . S
C660 C144 0.945 . S
C685 C18 0.863 . S
C690 C89 0.838 . S
C715 C32 0.991 . S
C720 C103 0.945 . S
C745 C117 0.853 . S
C750 C12 0.888 . S
C775 C131 0.853 . S
C780 C82 0.889 . S
C805 C46 0.991 . S
C810 C145 0.945 . S
C835 C159 0.838 . S
C840 C60 0.863 . S
C865 C270 0.945 . S
C870 C179 0.927 . S
C895 C187 0.992 . S
C900 C284 1.044 . S
C925 C201 0.942 . S
C930 C256 0.989 . S
C955 C326 0.989 . S
C960 C215 0.942 . S
C985 C229 0.992 . S
C990 C298 1.043 . S
C1015 C312 0.946 . S
C1020 C249 0.927 . S
C1045 C186 0.863 . S
C1050 C257 0.838 . S
C1075 C271 0.946 . S
C1080 C200 0.991 . S
C1105 C180 0.888 . S
C1110 C285 0.853 . S
C1135 C299 0.853 . S
C1140 C250 0.889 . S
C1165 C313 0.945 . S
C1170 C214 0.991 . S
C1195 C327 0.838 . S
C1200 C228 0.863 . S
C1225 C438 0.946 . S
C1230 C347 0.927 . S
C1255 C452 1.043 . S
C1260 C355 0.992 . S
C1285 C424 0.989 . S
C1290 C369 0.942 . S
C1315 C383 0.942 . S
C1320 C494 0.989 . S
C1345 C397 0.992 . S
C1350 C466 1.043 . S
C1375 C480 0.946 . S
C1380 C417 0.927 . S
C1405 C425 0.838 . S
C1410 C354 0.863 . S
C1435 C368 0.990 . S
C1440 C439 0.945 . S
C1465 C348 0.888 . S
C1470 C453 0.853 . S
C1495 C467 0.853 . S
C1500 C418 0.889 . S
C1525 C481 0.945 . S
C1530 C382 0.990 . S
C1555 C495 0.838 . S
C1560 C396 0.863 . S
C1585 C54 1.373 . S
C1590 C4 1.312 . S
C1615 C68 1.349 . S
C1620 C26 1.349 . S
C1645 C40 1.373 . S
C1650 C74 1.312 . S
C1675 C138 1.299 . S
C1680 C96 1.297 . S
C1705 C152 1.385 . S
C1710 C110 1.385 . S
C1735 C166 1.297 . S
C1740 C124 1.299 . S
C1765 C222 1.373 . S
C1770 C172 1.312 . S
C1795 C236 1.349 . S
C1800 C194 1.349 . S
C1825 C208 1.373 . S
C1830 C242 1.312 . S
C1855 C306 1.280 1_554 S
C1860 C264 1.297 . S
C1885 C320 1.385 1_554 S
C1890 C278 1.385 . S
C1915 C334 1.297 1_554 S
C1920 C292 1.299 . S
C1945 C390 1.373 . S
C1950 C340 1.312 . S
C1975 C362 1.349 . S
C1980 C404 1.351 . S
C2005 C410 1.312 1_556 S
C2010 C376 1.373 . S
C2035 C432 1.297 . S
C2040 C474 1.299 . S
C2065 C446 1.385 . S
C2070 C488 1.385 . S
C2095 C460 1.299 . S
C2100 C502 1.297 . S
C2125 C5 1.211 . S
C2130 C263 1.367 . S
C2155 C277 1.388 . S
C2160 C25 1.389 . S
C2185 C291 1.395 . S
C2190 C39 1.394 . S
C2215 C473 1.395 . S
C2220 C53 1.393 . S
C2245 C487 1.388 . S
C2250 C67 1.390 . S
C2275 C501 1.367 . S
C2280 C75 1.210 . S
C2305 C95 1.367 . S
C2310 C341 1.211 . S
C2335 C361 1.390 . S
C2340 C109 1.388 . S
C2365 C375 1.394 . S
C2370 C123 1.395 . S
C2395 C137 1.395 . S
C2400 C221 1.394 . S
C2425 C151 1.388 . S
C2430 C235 1.390 . S
C2455 C165 1.367 . S
C2460 C243 1.210 . S
C2485 C431 1.367 . S
C2490 C173 1.211 . S
C2515 C445 1.388 . S
C2520 C193 1.389 . S
C2545 C207 1.394 . S
C2550 C459 1.395 . S
C2575 C305 1.395 . S
C2580 C389 1.394 . S
C2605 C319 1.388 . S
C2610 C403 1.390 . S
C2635 C333 1.367 . S
C2640 C411 1.210 . S
