# Generated by pormake.
# Topology uob, (4)-cn, num edge types: 1
# Building blocks:
#     Node 0, Type 0, BuildingBlock: CEKHIL_clean_sbu_0, # of connection points: 4
#     Node 1, Type 0, BuildingBlock: CEKHIL_clean_sbu_0, # of connection points: 4
#     Node 2, Type 0, BuildingBlock: CEKHIL_clean_sbu_0, # of connection points: 4
#     Node 3, Type 0, BuildingBlock: CEKHIL_clean_sbu_0, # of connection points: 4
#     Node 4, Type 0, BuildingBlock: CEKHIL_clean_sbu_0, # of connection points: 4
#     Node 5, Type 0, BuildingBlock: CEKHIL_clean_sbu_0, # of connection points: 4
#     Node 6, Type 0, BuildingBlock: CEKHIL_clean_sbu_0, # of connection points: 4
#     Node 7, Type 0, BuildingBlock: CEKHIL_clean_sbu_0, # of connection points: 4
#     Node 8, Type 0, BuildingBlock: CEKHIL_clean_sbu_0, # of connection points: 4
#     Node 9, Type 0, BuildingBlock: CEKHIL_clean_sbu_0, # of connection points: 4
#     Node 10, Type 0, BuildingBlock: CEKHIL_clean_sbu_0, # of connection points: 4
#     Node 11, Type 0, BuildingBlock: CEKHIL_clean_sbu_0, # of connection points: 4
#     Node 12, Type 0, BuildingBlock: CEKHIL_clean_sbu_0, # of connection points: 4
#     Node 13, Type 0, BuildingBlock: CEKHIL_clean_sbu_0, # of connection points: 4
#     Node 14, Type 0, BuildingBlock: CEKHIL_clean_sbu_0, # of connection points: 4
#     Node 15, Type 0, BuildingBlock: CEKHIL_clean_sbu_0, # of connection points: 4
#     Edge 16, Type (0, 0), BuildingBlock: EZIPEK_clean_linker_0, # of connection points: 2
#     Edge 17, Type (0, 0), BuildingBlock: EZIPEK_clean_linker_0, # of connection points: 2
#     Edge 18, Type (0, 0), BuildingBlock: EZIPEK_clean_linker_0, # of connection points: 2
#     Edge 19, Type (0, 0), BuildingBlock: EZIPEK_clean_linker_0, # of connection points: 2
#     Edge 20, Type (0, 0), BuildingBlock: EZIPEK_clean_linker_0, # of connection points: 2
#     Edge 21, Type (0, 0), BuildingBlock: EZIPEK_clean_linker_0, # of connection points: 2
#     Edge 22, Type (0, 0), BuildingBlock: EZIPEK_clean_linker_0, # of connection points: 2
#     Edge 23, Type (0, 0), BuildingBlock: EZIPEK_clean_linker_0, # of connection points: 2
#     Edge 24, Type (0, 0), BuildingBlock: EZIPEK_clean_linker_0, # of connection points: 2
#     Edge 25, Type (0, 0), BuildingBlock: EZIPEK_clean_linker_0, # of connection points: 2
#     Edge 26, Type (0, 0), BuildingBlock: EZIPEK_clean_linker_0, # of connection points: 2
#     Edge 27, Type (0, 0), BuildingBlock: EZIPEK_clean_linker_0, # of connection points: 2
#     Edge 28, Type (0, 0), BuildingBlock: EZIPEK_clean_linker_0, # of connection points: 2
#     Edge 29, Type (0, 0), BuildingBlock: EZIPEK_clean_linker_0, # of connection points: 2
#     Edge 30, Type (0, 0), BuildingBlock: EZIPEK_clean_linker_0, # of connection points: 2
#     Edge 31, Type (0, 0), BuildingBlock: EZIPEK_clean_linker_0, # of connection points: 2
#     Edge 32, Type (0, 0), BuildingBlock: EZIPEK_clean_linker_0, # of connection points: 2
#     Edge 33, Type (0, 0), BuildingBlock: EZIPEK_clean_linker_0, # of connection points: 2
#     Edge 34, Type (0, 0), BuildingBlock: EZIPEK_clean_linker_0, # of connection points: 2
#     Edge 35, Type (0, 0), BuildingBlock: EZIPEK_clean_linker_0, # of connection points: 2
#     Edge 36, Type (0, 0), BuildingBlock: EZIPEK_clean_linker_0, # of connection points: 2
#     Edge 37, Type (0, 0), BuildingBlock: EZIPEK_clean_linker_0, # of connection points: 2
#     Edge 38, Type (0, 0), BuildingBlock: EZIPEK_clean_linker_0, # of connection points: 2
#     Edge 39, Type (0, 0), BuildingBlock: EZIPEK_clean_linker_0, # of connection points: 2
#     Edge 40, Type (0, 0), BuildingBlock: EZIPEK_clean_linker_0, # of connection points: 2
#     Edge 41, Type (0, 0), BuildingBlock: EZIPEK_clean_linker_0, # of connection points: 2
#     Edge 42, Type (0, 0), BuildingBlock: EZIPEK_clean_linker_0, # of connection points: 2
#     Edge 43, Type (0, 0), BuildingBlock: EZIPEK_clean_linker_0, # of connection points: 2
#     Edge 44, Type (0, 0), BuildingBlock: EZIPEK_clean_linker_0, # of connection points: 2
#     Edge 45, Type (0, 0), BuildingBlock: EZIPEK_clean_linker_0, # of connection points: 2
#     Edge 46, Type (0, 0), BuildingBlock: EZIPEK_clean_linker_0, # of connection points: 2
#     Edge 47, Type (0, 0), BuildingBlock: EZIPEK_clean_linker_0, # of connection points: 2
# Relax obj value: 0.168
# Max RMSD: 0.198
# Mean RMSD: 0.198
data_MOF--net-uob--node1-CEKHIL_clean_sbu_0--edge1-EZIPEK_clean_linker_0
_symmetry_space_group_name_H-M    P1
_symmetry_Int_Tables_number       1
_symmetry_cell_setting            triclinic
loop_
_symmetry_equiv_pos_as_xyz
'x, y, z'
_cell_length_a     38.936422
_cell_length_b     39.151434
_cell_length_c     19.08189
_cell_angle_alpha  90.021502
_cell_angle_beta   90.250287
_cell_angle_gamma 90.099876
loop_
_atom_site_label
_atom_site_type_symbol
_atom_site_fract_x
_atom_site_fract_y
_atom_site_fract_z
_atom_type_partial_charge
Co0 Co 0.15663 0.05987 0.27921 0.0
O1 O 0.20183 0.07632 0.30594 0.0
O2 O 0.18475 0.02328 0.32082 0.0
C3 C 0.15241 0.08578 0.17419 0.0
O4 O 0.1102 0.03624 0.25726 0.0
Co5 Co 0.10183 0.11808 0.26888 0.0
O6 O 0.07047 0.07858 0.25367 0.0
C7 C 0.12895 0.09718 0.40333 0.0
C8 C 0.20839 0.04647 0.3315 0.0
C9 C 0.07872 0.04703 0.25081 0.0
O10 O 0.13868 0.06967 0.3744 0.0
O11 O 0.12061 0.12324 0.3667 0.0
O12 O 0.1698 0.05751 0.17966 0.0
O13 O 0.14376 0.09925 0.23281 0.0
Co14 Co 0.95595 0.64137 0.53916 0.0
O15 O 0.93756 0.6866 0.55324 0.0
O16 O 0.98821 0.67002 0.59183 0.0
C17 C 0.94054 0.6357 0.42493 0.0
O18 O 0.98309 0.59637 0.53654 0.0
Co19 Co 0.90589 0.58139 0.50027 0.0
O20 O 0.94842 0.55339 0.50083 0.0
C21 C 0.90482 0.61288 0.63948 0.0
C22 C 0.96479 0.69373 0.58999 0.0
C23 C 0.97759 0.56465 0.52113 0.0
O24 O 0.93412 0.62678 0.62849 0.0
O25 O 0.88698 0.59806 0.59185 0.0
O26 O 0.96876 0.65186 0.44121 0.0
O27 O 0.92196 0.62654 0.47695 0.0
Co28 Co 0.35864 0.44982 0.7586 0.0
O29 O 0.3112 0.43792 0.77881 0.0
O30 O 0.33693 0.48493 0.81582 0.0
C31 C 0.36013 0.4362 0.64405 0.0
O32 O 0.40704 0.47076 0.74872 0.0
Co33 Co 0.41034 0.39245 0.71285 0.0
O34 O 0.44454 0.43028 0.71365 0.0
C35 C 0.38843 0.39734 0.85804 0.0
C36 C 0.30963 0.4657 0.8159 0.0
C37 C 0.4377 0.46084 0.73219 0.0
O38 O 0.37404 0.42607 0.84525 0.0
O39 O 0.40082 0.37759 0.81124 0.0
O40 O 0.34647 0.46503 0.66363 0.0
O41 O 0.36733 0.41533 0.69393 0.0
Co42 Co 0.57023 0.88384 0.04904 0.0
O43 O 0.58753 0.83777 0.06131 0.0
O44 O 0.53463 0.85382 0.08616 0.0
C45 C 0.59358 0.89435 0.94277 0.0
O46 O 0.54319 0.92913 0.0445 0.0
Co47 Co 0.62187 0.94454 0.04224 0.0
O48 O 0.58011 0.97302 0.0301 0.0
C49 C 0.61189 0.9073 0.17299 0.0
C50 C 0.55802 0.83008 0.08856 0.0
C51 C 0.54969 0.96133 0.0363 0.0
O52 O 0.58481 0.89382 0.14675 0.0
O53 O 0.63254 0.92622 0.13832 0.0
O54 O 0.56473 0.87758 0.94722 0.0
O55 O 0.60855 0.90102 0.00148 0.0
Co56 Co 0.13915 0.45097 0.04431 0.0
O57 O 0.18777 0.44329 0.03147 0.0
O58 O 0.15968 0.48738 0.98804 0.0
C59 C 0.13625 0.43786 0.15902 0.0
O60 O 0.08854 0.46677 0.04841 0.0
Co61 Co 0.09338 0.38827 0.08192 0.0
O62 O 0.05512 0.42181 0.0776 0.0
C63 C 0.12655 0.39253 0.94632 0.0
C64 C 0.18821 0.47002 0.99142 0.0
C65 C 0.05884 0.45333 0.06229 0.0
O66 O 0.13026 0.42469 0.95619 0.0
O67 O 0.11672 0.372 0.99432 0.0
O68 O 0.14648 0.4682 0.14011 0.0
O69 O 0.13241 0.41615 0.10898 0.0
Co70 Co 0.58395 0.65114 0.28631 0.0
O71 O 0.59531 0.69921 0.27655 0.0
O72 O 0.54539 0.67648 0.24691 0.0
C73 C 0.60482 0.64104 0.39781 0.0
O74 O 0.56293 0.60316 0.28818 0.0
Co75 Co 0.64287 0.60054 0.2872 0.0
O76 O 0.60627 0.56514 0.29235 0.0
C77 C 0.62572 0.63095 0.15502 0.0
C78 C 0.56549 0.70309 0.24676 0.0
C79 C 0.57441 0.57231 0.29077 0.0
O80 O 0.5997 0.64354 0.18666 0.0
O81 O 0.6496 0.61513 0.1874 0.0
O82 O 0.57501 0.65511 0.38716 0.0
O83 O 0.62324 0.63836 0.34127 0.0
Co84 Co 0.38724 0.05647 0.54357 0.0
O85 O 0.34068 0.07234 0.52967 0.0
O86 O 0.35776 0.01989 0.50755 0.0
C87 C 0.39707 0.08113 0.64949 0.0
O88 O 0.43357 0.03108 0.54957 0.0
Co89 Co 0.44647 0.11009 0.54953 0.0
O90 O 0.47635 0.06956 0.56311 0.0
C91 C 0.40872 0.09788 0.41932 0.0
C92 C 0.33343 0.04261 0.50317 0.0
C93 C 0.46569 0.03883 0.55775 0.0
O94 O 0.39696 0.07017 0.44539 0.0
O95 O 0.42653 0.11958 0.45408 0.0
O96 O 0.38098 0.05197 0.64564 0.0
O97 O 0.40334 0.09555 0.59031 0.0
Co98 Co 0.94202 0.87693 0.77767 0.0
O99 O 0.92242 0.83155 0.76901 0.0
O100 O 0.9775 0.84284 0.75798 0.0
C101 C 0.91217 0.895 0.87216 0.0
O102 O 0.97076 0.92119 0.78485 0.0
Co103 Co 0.89375 0.93682 0.74525 0.0
O104 O 0.93451 0.96539 0.76701 0.0
C105 C 0.91194 0.88986 0.63549 0.0
C106 C 0.95259 0.82067 0.75156 0.0
C107 C 0.96414 0.95357 0.78126 0.0
O108 O 0.93759 0.88263 0.67422 0.0
O109 O 0.8884 0.91008 0.65635 0.0
O110 O 0.93923 0.87576 0.87971 0.0
O111 O 0.90145 0.89834 0.80831 0.0
Co112 Co 0.62741 0.57402 0.81143 0.0
O113 O 0.67041 0.59249 0.84304 0.0
O114 O 0.65644 0.53747 0.84741 0.0
C115 C 0.62776 0.59858 0.69093 0.0
O116 O 0.58276 0.54856 0.78361 0.0
Co117 Co 0.56494 0.63384 0.74674 0.0
O118 O 0.54309 0.5867 0.74026 0.0
C119 C 0.59529 0.63938 0.85838 0.0
C120 C 0.67857 0.56168 0.86271 0.0
C121 C 0.55261 0.55646 0.75834 0.0
O122 O 0.60474 0.61876 0.80966 0.0
O123 O 0.5723 0.65999 0.83842 0.0
O124 O 0.64531 0.57312 0.71112 0.0
O125 O 0.61199 0.61114 0.74364 0.0
Co126 Co 0.44181 0.15324 0.02689 0.0
O127 O 0.42812 0.20024 0.04382 0.0
O128 O 0.47571 0.17703 0.08507 0.0
C129 C 0.42991 0.14909 0.91136 0.0
O130 O 0.464 0.10555 0.02054 0.0
Co131 Co 0.38475 0.10053 0.98305 0.0
O132 O 0.42328 0.06733 0.98839 0.0
C133 C 0.3905 0.12192 0.12847 0.0
C134 C 0.45542 0.20341 0.08255 0.0
C135 C 0.45401 0.07466 0.00656 0.0
O136 O 0.41799 0.13832 0.11381 0.0
O137 O 0.37082 0.10808 0.08278 0.0
O138 O 0.45806 0.16415 0.93201 0.0
O139 O 0.40817 0.14265 0.96025 0.0
Co140 Co 0.87892 0.94895 0.26272 0.0
O141 O 0.8322 0.93607 0.28531 0.0
O142 O 0.85865 0.98143 0.32835 0.0
C143 C 0.87506 0.93909 0.14621 0.0
O144 O 0.92736 0.96972 0.25134 0.0
Co145 Co 0.92828 0.89327 0.20041 0.0
O146 O 0.9625 0.93096 0.20072 0.0
C147 C 0.90658 0.89045 0.34656 0.0
C148 C 0.83144 0.962 0.32752 0.0
C149 C 0.95701 0.96029 0.22753 0.0
O150 O 0.89575 0.92124 0.34267 0.0
O151 O 0.91652 0.87287 0.29391 0.0
O152 O 0.8638 0.96774 0.17211 0.0
O153 O 0.88505 0.91714 0.19196 0.0
Co154 Co 0.08036 0.3711 0.53908 0.0
O155 O 0.09159 0.32334 0.53972 0.0
O156 O 0.04361 0.34354 0.58139 0.0
C157 C 0.09715 0.38369 0.42926 0.0
O158 O 0.06068 0.4199 0.54413 0.0
Co159 Co 0.14168 0.42179 0.53024 0.0
O160 O 0.10492 0.45683 0.53151 0.0
C161 C 0.13278 0.3808 0.65595 0.0
C162 C 0.06303 0.31683 0.57161 0.0
C163 C 0.07291 0.4506 0.53775 0.0
O164 O 0.10192 0.3755 0.63439 0.0
O165 O 0.15457 0.39696 0.61866 0.0
O166 O 0.06742 0.36931 0.43968 0.0
O167 O 0.11698 0.38507 0.48358 0.0
Co168 Co 0.66349 0.94223 0.56748 0.0
O169 O 0.71128 0.93136 0.55009 0.0
O170 O 0.68501 0.97742 0.51015 0.0
C171 C 0.66036 0.93004 0.68243 0.0
O172 O 0.61428 0.9612 0.57413 0.0
Co173 Co 0.61434 0.88214 0.60938 0.0
O174 O 0.5785 0.9182 0.60462 0.0
C175 C 0.63534 0.88973 0.46434 0.0
C176 C 0.71255 0.95856 0.51129 0.0
C177 C 0.58393 0.94925 0.58751 0.0
O178 O 0.64991 0.91802 0.48001 0.0
O179 O 0.62273 0.86909 0.50931 0.0
O180 O 0.67378 0.95889 0.66233 0.0
O181 O 0.65513 0.90805 0.63329 0.0
Co182 Co 0.07405 0.14614 0.81013 0.0
O183 O 0.09171 0.19183 0.79635 0.0
O184 O 0.04137 0.17507 0.75863 0.0
C185 C 0.09154 0.14043 0.92293 0.0
O186 O 0.04774 0.1004 0.81341 0.0
Co187 Co 0.12735 0.08794 0.8433 0.0
O188 O 0.08584 0.05827 0.83694 0.0
C189 C 0.122 0.11613 0.70305 0.0
C190 C 0.06436 0.19934 0.76092 0.0
C191 C 0.05555 0.0685 0.82198 0.0
O192 O 0.09387 0.13104 0.71953 0.0
O193 O 0.14269 0.10334 0.74809 0.0
O194 O 0.06284 0.15625 0.90921 0.0
O195 O 0.10914 0.13178 0.86935 0.0
Co196 Co 0.86274 0.56633 0.06115 0.0
O197 O 0.81699 0.58623 0.05743 0.0
O198 O 0.82885 0.53363 0.02501 0.0
C199 C 0.87932 0.58718 0.16689 0.0
O200 O 0.90727 0.5375 0.05657 0.0
Co201 Co 0.92562 0.61571 0.05989 0.0
O202 O 0.95256 0.57303 0.07048 0.0
C203 C 0.88472 0.60589 0.93217 0.0
C204 C 0.80646 0.55836 0.02738 0.0
C205 C 0.94001 0.54316 0.06233 0.0
O206 O 0.8701 0.58098 0.9629 0.0
O207 O 0.90678 0.62497 0.96328 0.0
O208 O 0.8603 0.55977 0.16346 0.0
O209 O 0.88396 0.60262 0.10816 0.0
Co210 Co 0.44984 0.38609 0.27724 0.0
O211 O 0.42947 0.34109 0.26349 0.0
O212 O 0.48408 0.35327 0.24556 0.0
C213 C 0.42429 0.4 0.38033 0.0
O214 O 0.48069 0.42877 0.28521 0.0
Co215 Co 0.40421 0.45058 0.27211 0.0
O216 O 0.44859 0.47569 0.26527 0.0
C217 C 0.41179 0.40866 0.14946 0.0
C218 C 0.45923 0.33111 0.24069 0.0
C219 C 0.47743 0.46133 0.27621 0.0
O220 O 0.43911 0.39657 0.17738 0.0
O221 O 0.39094 0.42807 0.18194 0.0
O222 O 0.45142 0.38049 0.3797 0.0
O223 O 0.41166 0.40709 0.31952 0.0
C224 C 0.29841 0.02054 0.39701 0.0
C225 C 0.30009 0.03724 0.46371 0.0
C226 C 0.24267 0.06086 0.44151 0.0
C227 C 0.2392 0.04138 0.37864 0.0
N228 N 0.26227 0.99754 0.30386 0.0
N229 N 0.2681 0.06346 0.55714 0.0
C230 C 0.26639 0.01915 0.35944 0.0
C231 C 0.27037 0.0542 0.48828 0.0
N232 N 0.32758 0.00854 0.3661 0.0
N233 N 0.22041 0.08673 0.45639 0.0
H234 H 0.28705 0.0574 0.59391 0.0
H235 H 0.24568 0.07327 0.57901 0.0
H236 H 0.1995 0.09299 0.42505 0.0
H237 H 0.2244 0.10379 0.49762 0.0
H238 H 0.32818 0.99974 0.31458 0.0
H239 H 0.35191 0.0105 0.38836 0.0
H240 H 0.27981 0.97834 0.29194 0.0
H241 H 0.24005 0.99704 0.27318 0.0
C242 C 0.94006 0.78276 0.64633 0.0
C243 C 0.9568 0.78748 0.71223 0.0
C244 C 0.97966 0.72892 0.70087 0.0
C245 C 0.96684 0.72678 0.6306 0.0
N246 N 0.94555 0.75834 0.53096 0.0
N247 N 0.99714 0.76584 0.79737 0.0
C248 C 0.95052 0.75583 0.60169 0.0
C249 C 0.97849 0.76099 0.73747 0.0
N250 N 0.91322 0.80285 0.62615 0.0
N251 N 0.99056 0.70027 0.73509 0.0
H252 H 0.99532 0.78799 0.82753 0.0
H253 H 0.01602 0.74883 0.8142 0.0
H254 H 0.99017 0.67601 0.71297 0.0
H255 H 0.99668 0.70006 0.7883 0.0
H256 H 0.89881 0.79792 0.58105 0.0
H257 H 0.90261 0.82166 0.65748 0.0
H258 H 0.93618 0.78047 0.50722 0.0
H259 H 0.95489 0.74022 0.49578 0.0
C260 C 0.28189 0.47186 0.93527 0.0
C261 C 0.27903 0.47315 0.86096 0.0
C262 C 0.21606 0.47754 0.87148 0.0
C263 C 0.21897 0.47694 0.94607 0.0
N264 N 0.25515 0.48248 0.04795 0.0
N265 N 0.24447 0.48516 0.75924 0.0
C266 C 0.25212 0.47695 0.97747 0.0
C267 C 0.24641 0.4786 0.82949 0.0
N268 N 0.31266 0.46384 0.96581 0.0
N269 N 0.18454 0.47459 0.84017 0.0
H270 H 0.26612 0.48598 0.72722 0.0
H271 H 0.22203 0.49291 0.73402 0.0
H272 H 0.1616 0.47337 0.86774 0.0
H273 H 0.18116 0.47053 0.78666 0.0
H274 H 0.31539 0.45811 0.01883 0.0
H275 H 0.33516 0.46028 0.93743 0.0
H276 H 0.27861 0.48609 0.07331 0.0
H277 H 0.23394 0.487 0.0799 0.0
C278 C 0.55165 0.79799 0.20325 0.0
C279 C 0.55349 0.79735 0.12862 0.0
C280 C 0.55467 0.73434 0.13214 0.0
C281 C 0.5572 0.73516 0.20675 0.0
N282 N 0.55953 0.76776 0.31359 0.0
N283 N 0.55912 0.76515 0.02189 0.0
C284 C 0.55591 0.76704 0.24227 0.0
C285 C 0.55546 0.76553 0.09314 0.0
N286 N 0.54589 0.82822 0.23713 0.0
N287 N 0.55153 0.70375 0.09808 0.0
H288 H 0.55746 0.78713 0.9912 0.0
H289 H 0.56571 0.74345 0.99342 0.0
H290 H 0.55219 0.68024 0.12334 0.0
H291 H 0.54578 0.70153 0.04496 0.0
H292 H 0.54077 0.83013 0.29046 0.0
H293 H 0.54355 0.8515 0.21137 0.0
H294 H 0.56366 0.78999 0.34236 0.0
H295 H 0.5601 0.7457 0.34422 0.0
C296 C 0.74133 0.57443 0.87922 0.0
C297 C 0.71208 0.55577 0.9012 0.0
C298 C 0.74647 0.53434 0.00168 0.0
C299 C 0.77344 0.55754 0.98533 0.0
N300 N 0.79185 0.60562 0.91414 0.0
N301 N 0.68573 0.52097 0.99092 0.0
C302 C 0.76943 0.57941 0.92602 0.0
C303 C 0.71439 0.53617 0.96417 0.0
N304 N 0.74299 0.58649 0.81209 0.0
N305 N 0.75111 0.51093 0.05387 0.0
H306 H 0.66184 0.5218 0.9664 0.0
H307 H 0.68497 0.5099 0.04052 0.0
H308 H 0.77325 0.51013 0.08479 0.0
H309 H 0.73403 0.49094 0.06317 0.0
H310 H 0.76514 0.59736 0.79112 0.0
H311 H 0.72386 0.58168 0.77489 0.0
H312 H 0.7877 0.62413 0.87578 0.0
H313 H 0.81276 0.61108 0.94608 0.0
C314 C 0.47015 0.29745 0.12894 0.0
C315 C 0.46312 0.29773 0.2023 0.0
C316 C 0.45403 0.23528 0.19847 0.0
C317 C 0.46143 0.23508 0.12544 0.0
N318 N 0.4832 0.26441 0.02437 0.0
N319 N 0.4545 0.26638 0.30911 0.0
C320 C 0.47151 0.26575 0.09178 0.0
C321 C 0.45684 0.26641 0.23764 0.0
N322 N 0.47378 0.32761 0.09363 0.0
N323 N 0.4431 0.20589 0.22999 0.0
H324 H 0.45658 0.28861 0.33904 0.0
H325 H 0.45337 0.24429 0.33934 0.0
H326 H 0.44235 0.18244 0.20422 0.0
H327 H 0.43307 0.20488 0.28041 0.0
H328 H 0.47391 0.32948 0.03921 0.0
H329 H 0.47453 0.35127 0.11828 0.0
H330 H 0.49458 0.28499 -0.00113 0.0
H331 H 0.48434 0.24172 -0.00425 0.0
C332 C 0.80573 0.96429 0.44954 0.0
C333 C 0.80153 0.96707 0.37562 0.0
C334 C 0.7387 0.96598 0.39047 0.0
C335 C 0.74284 0.96509 0.46469 0.0
N336 N 0.78027 0.97064 0.56482 0.0
N337 N 0.76427 0.97819 0.27736 0.0
C338 C 0.7764 0.96651 0.49411 0.0
C339 C 0.76805 0.97034 0.34675 0.0
N340 N 0.83742 0.95748 0.47726 0.0
N341 N 0.7071 0.96041 0.36105 0.0
H342 H 0.78515 0.98184 0.24408 0.0
H343 H 0.74074 0.98439 0.25455 0.0
H344 H 0.68485 0.95684 0.39018 0.0
H345 H 0.70335 0.95631 0.30762 0.0
H346 H 0.84136 0.95079 0.5295 0.0
H347 H 0.85957 0.95572 0.44707 0.0
H348 H 0.80388 0.97527 0.58891 0.0
H349 H 0.75943 0.97277 0.59873 0.0
C350 C 0.087 0.26129 0.61594 0.0
C351 C 0.05794 0.28269 0.60854 0.0
C352 C 0.03003 0.24759 0.70076 0.0
C353 C 0.06212 0.23142 0.71616 0.0
N354 N 0.12415 0.23796 0.70352 0.0
N355 N 0.99895 0.29292 0.63973 0.0
C356 C 0.09157 0.24276 0.67873 0.0
C357 C 0.02848 0.27486 0.64983 0.0
N358 N 0.11052 0.25848 0.56349 0.0
N359 N 1.00126 0.2376 0.73596 0.0
H360 H 0.99512 0.30837 0.59593 0.0
H361 H 0.97818 0.29227 0.67386 0.0
H362 H 1.00219 0.22156 0.77951 0.0
H363 H 0.97649 0.24489 0.72183 0.0
H364 H 0.13224 0.24303 0.56768 0.0
H365 H 0.1055 0.26722 0.51283 0.0
H366 H 0.14557 0.24781 0.67773 0.0
H367 H 0.12981 0.22946 0.75378 0.0
C368 C 0.0241 0.02898 0.18867 0.0
C369 C 0.04924 0.02254 0.2418 0.0
C370 C 0.01347 0.97514 0.28547 0.0
C371 C 0.9875 0.98324 0.23545 0.0
N372 N 0.96579 0.02055 0.14576 0.0
N373 N 0.06387 0.99389 0.35001 0.0
C374 C 0.99215 0.01105 0.18908 0.0
C375 C 0.04303 0.99657 0.29238 0.0
N376 N 0.03115 0.05173 0.13638 0.0
N377 N 1.00979 0.94692 0.32694 0.0
H378 H 0.08518 0.00946 0.35868 0.0
H379 H 0.05836 0.97831 0.39272 0.0
H380 H 0.98742 0.93226 0.32786 0.0
H381 H 0.02958 0.93692 0.35755 0.0
H382 H 0.01567 0.05518 0.09239 0.0
H383 H 0.05403 0.06538 0.1338 0.0
H384 H 0.96569 0.04288 0.1162 0.0
H385 H 0.94257 1.00737 0.14355 0.0
C386 C 0.99958 0.51211 0.583 0.0
C387 C 1.00502 0.53862 0.5332 0.0
C388 C 0.0538 0.50703 0.48524 0.0
C389 C 0.04921 0.48077 0.53641 0.0
N390 N 0.0235 0.46382 0.64597 0.0
N391 N 0.04403 0.56612 0.45348 0.0
C392 C 0.02361 0.48476 0.58862 0.0
C393 C 0.0343 0.53766 0.4897 0.0
N394 N 0.97157 0.51331 0.62578 0.0
N395 N 0.07558 0.50235 0.43008 0.0
H396 H 0.0313 0.58937 0.45781 0.0
H397 H 0.06706 0.56787 0.42613 0.0
H398 H 0.09018 0.48044 0.42281 0.0
H399 H 0.07665 0.51888 0.38736 0.0
H400 H 0.96343 0.49275 0.65614 0.0
H401 H 0.95568 0.53464 0.6289 0.0
H402 H 1.00771 0.46762 0.68916 0.0
H403 H 0.04165 0.44467 0.6541 0.0
C404 C 0.491 0.48939 0.68268 0.0
C405 C 0.46736 0.4852 0.7389 0.0
C406 C 0.50003 0.52739 0.80785 0.0
C407 C 0.52514 0.52964 0.75406 0.0
N408 N 0.54685 0.50962 0.64381 0.0
N409 N 0.45534 0.49353 0.86186 0.0
C410 C 0.52135 0.50948 0.69268 0.0
C411 C 0.47352 0.50235 0.80341 0.0
N412 N 0.48379 0.47532 0.61871 0.0
N413 N 0.5007 0.54994 0.8625 0.0
H414 H 0.43648 0.4746 0.86206 0.0
H415 H 0.46148 0.50239 0.91187 0.0
H416 H 0.51942 0.56875 0.86803 0.0
H417 H 0.48089 0.55198 0.8988 0.0
H418 H 0.49807 0.48008 0.57387 0.0
H419 H 0.46184 0.46087 0.60862 0.0
H420 H 0.54778 0.49299 0.60129 0.0
H421 H 0.56866 0.5248 0.64907 0.0
C422 C 0.52068 0.01348 0.0861 0.0
C423 C 0.52127 0.98704 0.03491 0.0
C424 C 0.48021 0.01939 0.9631 0.0
C425 C 0.47833 0.04527 0.01553 0.0
N426 N 0.48949 0.06108 0.13605 0.0
N427 N 0.49323 0.96038 0.93605 0.0
C428 C 0.4966 0.04076 0.07964 0.0
C429 C 0.49834 0.98853 0.97708 0.0
N430 N 0.54304 0.01247 0.14146 0.0
N431 N 0.46584 0.0247 0.89856 0.0
H432 H 0.50484 0.93696 0.94623 0.0
H433 H 0.47449 0.95911 0.89701 0.0
H434 H 0.4528 0.04695 0.88524 0.0
H435 H 0.46979 0.00848 0.85606 0.0
H436 H 0.54701 0.03303 0.17523 0.0
H437 H 0.55887 0.99157 0.15174 0.0
H438 H 0.49917 0.05652 0.18614 0.0
H439 H 0.47111 0.08037 0.13508 0.0
C440 C 0.01999 0.49566 -0.00058 0.0
C441 C 0.0268 0.47478 0.05889 0.0
C442 C 0.96925 0.48912 0.10423 0.0
C443 C 0.96578 0.51505 0.05314 0.0
N444 N 0.98747 0.54254 0.94922 0.0
N445 N 1.00845 0.45519 0.1734 0.0
C446 C 0.99112 0.51814 -0.0001 0.0
C447 C 1.00145 0.47228 0.11258 0.0
N448 N 0.03979 0.49263 0.94074 0.0
N449 N 0.94166 0.47984 0.14375 0.0
H450 H 0.03167 0.44301 0.18339 0.0
H451 H 0.99242 0.45603 0.21696 0.0
H452 H 0.91728 0.49 0.13551 0.0
H453 H 0.94196 0.4591 0.17795 0.0
H454 H 0.03402 0.50463 0.89345 0.0
H455 H 0.05993 0.47527 0.93656 0.0
H456 H 1.00707 0.54937 0.91495 0.0
H457 H 0.9651 0.55692 0.94319 0.0
C458 C 0.51596 0.49921 0.34836 0.0
C459 C 0.50769 0.48441 0.28249 0.0
C460 C 0.54151 0.5284 0.22256 0.0
C461 C 0.55001 0.54318 0.28835 0.0
N462 N 0.55025 0.54014 0.41446 0.0
N463 N 0.52007 0.4786 0.16015 0.0
C464 C 0.53871 0.52778 0.35155 0.0
C465 C 0.5228 0.49716 0.22049 0.0
N466 N 0.50142 0.48628 0.40766 0.0
N467 N 0.55064 0.5447 0.16206 0.0
H468 H 0.50844 0.45459 0.15937 0.0
H469 H 0.53253 0.48487 0.11374 0.0
H470 H 0.56415 0.56773 0.16174 0.0
H471 H 0.54247 0.53701 0.11247 0.0
H472 H 0.50193 0.49873 0.45581 0.0
H473 H 0.48793 0.46324 0.40788 0.0
H474 H 0.54618 0.52798 0.46222 0.0
H475 H 0.56567 0.56187 0.41864 0.0
C476 C 0.49523 0.98909 0.61706 0.0
C477 C 0.49263 0.01163 0.55917 0.0
C478 C 0.54742 0.98919 0.5142 0.0
C479 C 0.55296 0.97154 0.57841 0.0
N480 N 0.53294 0.95799 0.69509 0.0
N481 N 0.51679 0.0338 0.45211 0.0
C482 C 0.52698 0.97226 0.63084 0.0
C483 C 0.51898 0.01189 0.5077 0.0
N484 N 0.46728 0.98307 0.65824 0.0
N485 N 0.56796 0.98274 0.45775 0.0
H486 H 0.49511 0.04862 0.44188 0.0
H487 H 0.53713 0.03843 0.41809 0.0
H488 H 0.58811 0.96527 0.45881 0.0
H489 H 0.56281 0.99192 0.40757 0.0
H490 H 0.46684 0.96455 0.69741 0.0
H491 H 0.44325 0.99364 0.64808 0.0
H492 H 0.51674 0.96147 0.73781 0.0
H493 H 0.55555 0.94529 0.70793 0.0
C494 C 1.00384 0.03338 0.85642 0.0
C495 C 0.02975 0.04106 0.80707 0.0
C496 C 0.01441 0.98891 0.74097 0.0
C497 C 0.99123 0.97964 0.79486 0.0
N498 N 0.96949 0.98918 0.91097 0.0
N499 N 0.0602 0.0264 0.70156 0.0
C500 C 0.98777 1.00074 0.85484 0.0
C501 C 0.03526 0.01872 0.74921 0.0
N502 N 0.99329 0.05778 0.90252 0.0
N503 N 0.0154 0.97002 0.68074 0.0
H504 H 0.07296 0.04983 0.70135 0.0
H505 H 0.06881 0.00943 0.66351 0.0
H506 H 1.00146 0.94744 0.6743 0.0
H507 H 0.02861 0.97741 0.63593 0.0
H508 H 0.97283 0.05438 0.93683 0.0
H509 H 1.00186 0.08294 0.8994 0.0
H510 H 0.96855 1.00201 0.95878 0.0
H511 H 0.95857 0.96483 0.91199 0.0
C512 C 0.11711 0.13622 0.58068 0.0
C513 C 0.12813 0.1107 0.62771 0.0
C514 C 0.14206 0.07416 0.52802 0.0
C515 C 0.12649 0.09872 0.48147 0.0
N516 N 0.08318 0.14341 0.47722 0.0
N517 N 0.14 0.0503 0.64422 0.0
C518 C 0.10922 0.12701 0.51155 0.0
C519 C 0.1376 0.07819 0.60126 0.0
N520 N 0.11346 0.16916 0.602 0.0
N521 N 0.16111 0.04701 0.50535 0.0
H522 H 0.13524 0.0507 0.69776 0.0
H523 H 0.14266 0.02551 0.62499 0.0
H524 H 0.16471 0.03927 0.45418 0.0
H525 H 0.17639 0.03277 0.53957 0.0
H526 H 0.10628 0.18851 0.56748 0.0
H527 H 0.12154 0.17718 0.65147 0.0
H528 H 0.06917 0.16308 0.50035 0.0
H529 H 0.07189 0.13375 0.43168 0.0
C530 C 0.8837 0.58114 0.74389 0.0
C531 C 0.8921 0.61259 0.71173 0.0
C532 C 0.88433 0.64248 0.82322 0.0
C533 C 0.87819 0.61041 0.85564 0.0
N534 N 0.85145 0.55483 0.83579 0.0
N535 N 0.89077 0.67416 0.71446 0.0
C536 C 0.87123 0.58141 0.8129 0.0
C537 C 0.88942 0.64373 0.74951 0.0
N538 N 0.88914 0.55071 0.71056 0.0
N539 N 0.88439 0.67157 0.86275 0.0
H540 H 0.89281 0.67559 0.66007 0.0
H541 H 0.88704 0.69786 0.73782 0.0
H542 H 0.87521 0.67196 0.91405 0.0
H543 H 0.89318 0.69513 0.84501 0.0
H544 H 0.88702 0.52725 0.73609 0.0
H545 H 0.89887 0.54867 0.66004 0.0
H546 H 0.84438 0.53451 0.80343 0.0
H547 H 0.83707 0.55557 0.88144 0.0
C548 C 0.37626 0.38507 0.05141 0.0
C549 C 0.40625 0.40235 0.07466 0.0
C550 C 0.42883 0.40287 0.95598 0.0
C551 C 0.39669 0.39087 0.93139 0.0
N552 N 0.33873 0.37232 0.95309 0.0
N553 N 0.45778 0.434 0.04778 0.0
C554 C 0.37009 0.38219 0.97842 0.0
C555 C 0.43193 0.41262 0.02677 0.0
N556 N 0.35425 0.37085 0.0988 0.0
N557 N 0.45599 0.40611 0.91127 0.0
H558 H 0.45919 0.44401 0.09828 0.0
H559 H 0.4753 0.44504 0.0134 0.0
H560 H 0.45451 0.39996 0.85821 0.0
H561 H 0.48082 0.41181 0.92822 0.0
H562 H 0.33368 0.35525 0.08449 0.0
H563 H 0.35821 0.37227 0.15283 0.0
H564 H 0.31704 0.36976 0.98441 0.0
H565 H 0.33415 0.36833 0.89975 0.0
C566 C 0.59506 0.89591 0.36576 0.0
C567 C 0.62769 0.88501 0.38984 0.0
C568 C 0.6492 0.88479 0.26977 0.0
C569 C 0.61832 0.90082 0.2477 0.0
N570 N 0.56425 0.92737 0.27686 0.0
N571 N 0.68689 0.87137 0.3673 0.0
C572 C 0.59173 0.9077 0.29616 0.0
C573 C 0.65509 0.87993 0.34246 0.0
N574 N 0.56745 0.89585 0.40979 0.0
N575 N 0.67223 0.87312 0.22153 0.0
H576 H 0.69143 0.86569 0.41998 0.0
H577 H 0.7089 0.87167 0.33646 0.0
H578 H 0.66855 0.87561 0.16762 0.0
H579 H 0.69349 0.85832 0.23473 0.0
H580 H 0.54241 0.9004 0.39279 0.0
H581 H 0.56888 0.88805 0.46188 0.0
H582 H 0.54601 0.93627 0.3122 0.0
H583 H 0.56154 0.93797 0.22702 0.0
C584 C 0.11582 0.35244 0.76738 0.0
C585 C 0.14076 0.37154 0.73057 0.0
C586 C 0.16567 0.38777 0.84356 0.0
C587 C 0.13387 0.37939 0.87559 0.0
N588 N 0.07781 0.35252 0.86619 0.0
N589 N 0.19722 0.39735 0.736 0.0
C590 C 0.10887 0.36067 0.83766 0.0
C591 C 0.16843 0.38604 0.76924 0.0
N592 N 0.09968 0.32586 0.73528 0.0
N593 N 0.19334 0.39573 0.88466 0.0
H594 H 0.20332 0.39008 0.68507 0.0
H595 H 0.21575 0.41266 0.75995 0.0
H596 H 0.19215 0.39483 0.93922 0.0
H597 H 0.21801 0.39966 0.86546 0.0
H598 H 0.0826 0.30965 0.76101 0.0
H599 H 0.10781 0.31772 0.68613 0.0
H600 H 0.05798 0.34164 0.83678 0.0
H601 H 0.0707 0.3591 0.91695 0.0
C602 C 0.61727 0.60221 0.03897 0.0
C603 C 0.62534 0.63229 0.07707 0.0
C604 C 0.61987 0.66595 0.9686 0.0
C605 C 0.60692 0.63667 0.9331 0.0
N606 N 0.58699 0.57846 0.93979 0.0
N607 N 0.63295 0.69334 0.07988 0.0
C608 C 0.60445 0.60505 0.96937 0.0
C609 C 0.62635 0.66434 0.04223 0.0
N610 N 0.62077 0.57087 0.06974 0.0
N611 N 0.627 0.69497 0.93158 0.0
H612 H 0.63996 0.69284 0.13272 0.0
H613 H 0.62969 0.71788 0.05992 0.0
H614 H 0.62321 0.69688 0.87758 0.0
H615 H 0.63948 0.7161 0.95298 0.0
H616 H 0.61829 0.54798 0.0424 0.0
H617 H 0.62883 0.56745 0.12135 0.0
H618 H 0.58097 0.55594 0.96605 0.0
H619 H 0.57475 0.58067 0.89171 0.0
C620 C 0.3826 0.13308 0.32348 0.0
C621 C 0.40167 0.10395 0.34474 0.0
C622 C 0.40026 0.08176 0.22534 0.0
C623 C 0.38622 0.11319 0.20244 0.0
N624 N 0.36521 0.16965 0.22711 0.0
N625 N 0.43341 0.05305 0.31475 0.0
C626 C 0.37751 0.13909 0.25087 0.0
C627 C 0.41152 0.07874 0.29549 0.0
N628 N 0.36845 0.15423 0.37246 0.0
N629 N 0.40352 0.05501 0.17973 0.0
H630 H 0.44336 0.05056 0.36529 0.0
H631 H 0.44451 0.03623 0.27916 0.0
H632 H 0.39615 0.05633 0.12728 0.0
H633 H 0.41048 0.03049 0.19542 0.0
H634 H 0.35155 0.17392 0.35997 0.0
H635 H 0.37122 0.15037 0.42626 0.0
H636 H 0.36239 0.19109 0.25889 0.0
H637 H 0.35945 0.17395 0.17436 0.0
C638 C 0.94086 0.86849 0.52423 0.0
C639 C 0.91052 0.87616 0.56267 0.0
C640 C 0.87668 0.87376 0.4549 0.0
C641 C 0.90776 0.87566 0.4168 0.0
N642 N 0.96963 0.87287 0.41274 0.0
N643 N 0.84943 0.86711 0.56819 0.0
C644 C 0.93989 0.87151 0.45047 0.0
C645 C 0.87817 0.87288 0.52901 0.0
N646 N 0.96974 0.85634 0.55658 0.0
N647 N 0.846 0.87475 0.41984 0.0
H648 H 0.85067 0.86315 0.62223 0.0
H649 H 0.82517 0.86252 0.54715 0.0
H650 H 0.84449 0.8732 0.36528 0.0
H651 H 0.82234 0.87806 0.44401 0.0
H652 H 0.99132 0.84815 0.52929 0.0
H653 H 0.97062 0.84874 0.60864 0.0
H654 H 0.9938 0.87555 0.43573 0.0
H655 H 0.97012 0.87318 0.35818 0.0
C656 C 0.12779 0.1489 0.03037 0.0
C657 C 0.10285 0.12947 0.99365 0.0
C658 C 0.11596 0.07939 0.06594 0.0
C659 C 0.1388 0.0995 0.10712 0.0
N660 N 0.16524 0.15408 0.13182 0.0
N661 N 0.06729 0.07978 0.98667 0.0
C662 C 0.1442 0.13456 0.09045 0.0
C663 C 0.09535 0.09569 0.01445 0.0
N664 N 0.13646 0.18065 0.00639 0.0
N665 N 0.11336 0.04492 0.07621 0.0
H666 H 0.05002 0.09315 0.95547 0.0
H667 H 0.05906 0.05538 0.00021 0.0
H668 H 0.12612 0.03173 0.11568 0.0
H669 H 0.10016 0.02872 0.04217 0.0
H670 H 0.15728 0.19468 0.02522 0.0
H671 H 0.12355 0.19241 0.96488 0.0
H672 H 0.1669 0.18055 0.12809 0.0
H673 H 0.18031 0.14387 0.17197 0.0
C674 C 0.90115 0.64511 0.32251 0.0
C675 C 0.92937 0.62732 0.35234 0.0
C676 C 0.92263 0.58181 0.26502 0.0
C677 C 0.89534 0.60017 0.2329 0.0
N678 N 0.86112 0.6514 0.22542 0.0
N679 N 0.972 0.5834 0.3429 0.0
C680 C 0.88553 0.63261 0.25973 0.0
C681 C 0.94169 0.59713 0.32053 0.0
N682 N 0.88871 0.67348 0.35556 0.0
N683 N 0.92987 0.54937 0.24364 0.0
H684 H 0.98673 0.59496 0.38187 0.0
H685 H 0.98423 0.56307 0.3183 0.0
H686 H 0.91622 0.53736 0.20378 0.0
H687 H 0.9471 0.5333 0.26928 0.0
H688 H 0.86567 0.68529 0.3422 0.0
H689 H 0.90088 0.68448 0.39891 0.0
H690 H 0.85577 0.67682 0.23701 0.0
H691 H 0.84715 0.64212 0.18271 0.0
C692 C 0.3922 0.45355 0.53459 0.0
C693 C 0.37251 0.42908 0.57188 0.0
C694 C 0.38809 0.38516 0.48525 0.0
C695 C 0.40625 0.41008 0.4461 0.0
N696 N 0.41753 0.46975 0.4249 0.0
N697 N 0.34437 0.37416 0.57256 0.0
C698 C 0.40554 0.44481 0.46791 0.0
C699 C 0.36836 0.39557 0.54421 0.0
N700 N 0.40045 0.48437 0.56406 0.0
N701 N 0.38949 0.35154 0.4661 0.0
H702 H 0.32831 0.38151 0.61351 0.0
H703 H 0.33776 0.35064 0.55085 0.0
H704 H 0.40187 0.34307 0.42099 0.0
H705 H 0.38023 0.33179 0.49734 0.0
H706 H 0.41815 0.5012 0.54212 0.0
H707 H 0.39292 0.49203 0.61377 0.0
H708 H 0.41368 0.49575 0.43357 0.0
H709 H 0.42885 0.4641 0.37762 0.0
C710 C 0.65597 0.89314 0.78913 0.0
C711 C 0.64672 0.92384 0.75399 0.0
C712 C 0.60202 0.9344 0.84156 0.0
C713 C 0.6102 0.90323 0.87518 0.0
N714 N 0.64258 0.85098 0.87886 0.0
N715 N 0.61209 0.97581 0.75338 0.0
C716 C 0.63671 0.88211 0.84856 0.0
C717 C 0.6207 0.94517 0.78229 0.0
N718 N 0.6842 0.87543 0.76713 0.0
N719 N 0.57532 0.95374 0.86487 0.0
H720 H 0.62364 0.98661 0.70952 0.0
H721 H 0.62364 0.98661 0.70952 0.0
H722 H 0.55909 0.94529 0.90415 0.0
H723 H 0.56849 0.97712 0.84254 0.0
H724 H 0.69445 0.85443 0.79314 0.0
H725 H 0.69943 0.88356 0.72546 0.0
H726 H 0.65907 0.83264 0.85864 0.0
H727 H 0.62899 0.84231 0.9224 0.0
C728 C 0.08766 0.42425 0.32818 0.0
C729 C 0.10761 0.39813 0.36039 0.0
C730 C 0.14862 0.40067 0.26271 0.0
C731 C 0.1294 0.42777 0.23259 0.0
N732 N 0.08559 0.47071 0.24433 0.0
N733 N 0.15829 0.3626 0.36116 0.0
C734 C 0.10049 0.44125 0.26778 0.0
C735 C 0.13862 0.38688 0.32868 0.0
N736 N 0.05611 0.43259 0.35423 0.0
N737 N 0.17618 0.38773 0.22728 0.0
H738 H 0.15017 0.34891 0.4049 0.0
H739 H 0.18324 0.35657 0.34634 0.0
H740 H 0.18606 0.39907 0.18217 0.0
H741 H 0.18869 0.36519 0.24076 0.0
H742 H 0.03862 0.44799 0.32759 0.0
H743 H 0.04637 0.42292 0.40086 0.0
H744 H 0.06696 0.48399 0.27226 0.0
H745 H 0.09358 0.48351 0.19943 0.0
C746 C 0.62016 0.6455 0.59844 0.0
C747 C 0.62403 0.6102 0.61536 0.0
C748 C 0.62731 0.59806 0.48854 0.0
C749 C 0.61673 0.6318 0.47155 0.0
N750 N 0.60322 0.68841 0.51317 0.0
N751 N 0.62429 0.55193 0.57173 0.0
C752 C 0.61291 0.65563 0.52756 0.0
C753 C 0.62569 0.58626 0.55913 0.0
N754 N 0.62567 0.66974 0.64885 0.0
N755 N 0.64035 0.57726 0.43817 0.0
H756 H 0.62233 0.54128 0.62135 0.0
H757 H 0.62114 0.53397 0.53185 0.0
H758 H 0.64582 0.58611 0.38854 0.0
H759 H 0.6509 0.55335 0.44878 0.0
H760 H 0.62654 0.69582 0.63832 0.0
H761 H 0.6334 0.66393 0.69977 0.0
H762 H 0.59516 0.70548 0.5516 0.0
H763 H 0.60218 0.69824 0.46242 0.0
C764 C 0.38316 0.12375 0.74364 0.0
C765 C 0.40565 0.09847 0.71689 0.0
C766 C 0.44752 0.11106 0.81051 0.0
C767 C 0.42431 0.13522 0.83943 0.0
N768 N 0.37364 0.16982 0.82695 0.0
N769 N 0.45615 0.06393 0.73012 0.0
C770 C 0.39302 0.14292 0.80415 0.0
C771 C 0.43717 0.09128 0.75137 0.0
N772 N 0.35175 0.12833 0.71261 0.0
N773 N 0.47949 0.10684 0.83921 0.0
H774 H 0.44799 0.04802 0.68993 0.0
H775 H 0.4779 0.05485 0.75582 0.0
H776 H 0.48773 0.11862 0.88507 0.0
H777 H 0.49908 0.09314 0.81528 0.0
H778 H 0.33241 0.14366 0.73291 0.0
H779 H 0.34388 0.11486 0.66816 0.0
H780 H 0.35203 0.17906 0.80104 0.0
H781 H 0.38087 0.18509 0.86936 0.0
C782 C 0.88555 0.95416 0.01797 0.0
C783 C 0.87572 0.9303 0.07027 0.0
C784 C 0.88172 0.88352 0.98553 0.0
C785 C 0.89256 0.90727 0.93426 0.0
N786 N 0.88716 0.96531 0.89389 0.0
N787 N 0.85026 0.87511 0.09325 0.0
C788 C 0.88893 0.94269 0.9478 0.0
C789 C 0.86938 0.89576 0.05076 0.0
N790 N 0.89313 0.98726 0.03445 0.0
N791 N 0.88301 0.84929 0.97193 0.0
H792 H 0.83846 0.88409 0.13864 0.0
H793 H 0.84259 0.85053 0.07916 0.0
H794 H 0.88874 0.83951 0.92246 0.0
H795 H 0.87959 0.83074 0.01043 0.0
H796 H 0.90438 1.00405 -0.00114 0.0
H797 H 0.89064 0.99758 0.08426 0.0
H798 H 0.88244 0.99129 0.90074 0.0
H799 H 0.88461 0.95703 0.84265 0.0
loop_
_geom_bond_atom_site_label_1
_geom_bond_atom_site_label_2
_geom_bond_distance
_geom_bond_site_symmetry_2
_ccdc_geom_bond_type
Co0 O1 2.216 . S
Co0 O2 2.091 . S
Co0 O4 2.004 . S
Co0 O10 2.021 . S
Co0 O12 2.137 . S
Co0 O13 2.244 . S
O1 Co0 2.216 . S
O1 C8 1.247 . S
O2 Co0 2.091 . S
O2 C8 1.261 . S
C3 O12 1.247 . S
C3 O13 1.272 . S
O4 Co0 2.004 . S
O4 C9 1.259 . S
Co5 O6 2.061 . S
Co5 O11 2.052 . S
Co5 O13 2.135 . S
O6 Co5 2.061 . S
O6 C9 1.235 . S
C7 O10 1.238 . S
C7 O11 1.241 . S
C8 O1 1.247 . S
C8 O2 1.261 . S
C9 O4 1.259 . S
C9 O6 1.235 . S
O10 Co0 2.021 . S
O10 C7 1.238 . S
O11 Co5 2.052 . S
O11 C7 1.241 . S
O12 Co0 2.137 . S
O12 C3 1.247 . S
O13 Co0 2.244 . S
O13 C3 1.272 . S
O13 Co5 2.135 . S
Co14 O15 2.216 . S
Co14 O16 2.091 . S
Co14 O18 2.004 . S
Co14 O24 2.021 . S
Co14 O26 2.137 . S
Co14 O27 2.244 . S
O15 Co14 2.216 . S
O15 C22 1.247 . S
O16 Co14 2.091 . S
O16 C22 1.261 . S
C17 O26 1.247 . S
C17 O27 1.272 . S
O18 Co14 2.004 . S
O18 C23 1.259 . S
Co19 O20 2.061 . S
Co19 O25 2.052 . S
Co19 O27 2.135 . S
O20 Co19 2.061 . S
O20 C23 1.235 . S
C21 O24 1.238 . S
C21 O25 1.241 . S
C22 O15 1.247 . S
C22 O16 1.261 . S
C23 O18 1.259 . S
C23 O20 1.235 . S
O24 Co14 2.021 . S
O24 C21 1.238 . S
O25 Co19 2.052 . S
O25 C21 1.241 . S
O26 Co14 2.137 . S
O26 C17 1.247 . S
O27 Co14 2.244 . S
O27 C17 1.272 . S
O27 Co19 2.135 . S
Co28 O29 2.216 . S
Co28 O30 2.091 . S
Co28 O32 2.004 . S
Co28 O38 2.021 . S
Co28 O40 2.137 . S
Co28 O41 2.244 . S
O29 Co28 2.216 . S
O29 C36 1.247 . S
O30 Co28 2.091 . S
O30 C36 1.261 . S
C31 O40 1.247 . S
C31 O41 1.272 . S
O32 Co28 2.004 . S
O32 C37 1.259 . S
Co33 O34 2.061 . S
Co33 O39 2.052 . S
Co33 O41 2.135 . S
O34 Co33 2.061 . S
O34 C37 1.235 . S
C35 O38 1.238 . S
C35 O39 1.241 . S
C36 O29 1.247 . S
C36 O30 1.261 . S
C37 O32 1.259 . S
C37 O34 1.235 . S
O38 Co28 2.021 . S
O38 C35 1.238 . S
O39 Co33 2.052 . S
O39 C35 1.241 . S
O40 Co28 2.137 . S
O40 C31 1.247 . S
O41 Co28 2.244 . S
O41 C31 1.272 . S
O41 Co33 2.135 . S
Co42 O43 2.216 . S
Co42 O44 2.091 . S
Co42 O46 2.004 . S
Co42 O52 2.021 . S
Co42 O54 2.137 1_554 S
Co42 O55 2.244 1_554 S
O43 Co42 2.216 . S
O43 C50 1.247 . S
O44 Co42 2.091 . S
O44 C50 1.261 . S
C45 O54 1.247 . S
C45 O55 1.272 . S
O46 Co42 2.004 . S
O46 C51 1.259 . S
Co47 O48 2.061 . S
Co47 O53 2.052 . S
Co47 O55 2.135 1_554 S
O48 Co47 2.061 . S
O48 C51 1.235 . S
C49 O52 1.238 . S
C49 O53 1.241 . S
C50 O43 1.247 . S
C50 O44 1.261 . S
C51 O46 1.259 . S
C51 O48 1.235 . S
O52 Co42 2.021 . S
O52 C49 1.238 . S
O53 Co47 2.052 . S
O53 C49 1.241 . S
O54 Co42 2.137 1_556 S
O54 C45 1.247 . S
O55 Co42 2.244 1_556 S
O55 C45 1.272 . S
O55 Co47 2.135 1_556 S
Co56 O57 2.216 . S
Co56 O58 2.091 1_554 S
Co56 O60 2.004 . S
Co56 O66 2.021 1_554 S
Co56 O68 2.137 . S
Co56 O69 2.244 . S
O57 Co56 2.216 . S
O57 C64 1.247 1_554 S
O58 Co56 2.091 1_556 S
O58 C64 1.261 . S
C59 O68 1.247 . S
C59 O69 1.272 . S
O60 Co56 2.004 . S
O60 C65 1.259 . S
Co61 O62 2.061 . S
Co61 O67 2.052 1_554 S
Co61 O69 2.135 . S
O62 Co61 2.061 . S
O62 C65 1.235 . S
C63 O66 1.238 . S
C63 O67 1.241 . S
C64 O57 1.247 1_556 S
C64 O58 1.261 . S
C65 O60 1.259 . S
C65 O62 1.235 . S
O66 Co56 2.021 1_556 S
O66 C63 1.238 . S
O67 Co61 2.052 1_556 S
O67 C63 1.241 . S
O68 Co56 2.137 . S
O68 C59 1.247 . S
O69 Co56 2.244 . S
O69 C59 1.272 . S
O69 Co61 2.135 . S
Co70 O71 2.216 . S
Co70 O72 2.091 . S
Co70 O74 2.004 . S
Co70 O80 2.021 . S
Co70 O82 2.137 . S
Co70 O83 2.244 . S
O71 Co70 2.216 . S
O71 C78 1.247 . S
O72 Co70 2.091 . S
O72 C78 1.261 . S
C73 O82 1.247 . S
C73 O83 1.272 . S
O74 Co70 2.004 . S
O74 C79 1.259 . S
Co75 O76 2.061 . S
Co75 O81 2.052 . S
Co75 O83 2.135 . S
O76 Co75 2.061 . S
O76 C79 1.235 . S
C77 O80 1.238 . S
C77 O81 1.241 . S
C78 O71 1.247 . S
C78 O72 1.261 . S
C79 O74 1.259 . S
C79 O76 1.235 . S
O80 Co70 2.021 . S
O80 C77 1.238 . S
O81 Co75 2.052 . S
O81 C77 1.241 . S
O82 Co70 2.137 . S
O82 C73 1.247 . S
O83 Co70 2.244 . S
O83 C73 1.272 . S
O83 Co75 2.135 . S
Co84 O85 2.216 . S
Co84 O86 2.091 . S
Co84 O88 2.004 . S
Co84 O94 2.021 . S
Co84 O96 2.137 . S
Co84 O97 2.244 . S
O85 Co84 2.216 . S
O85 C92 1.247 . S
O86 Co84 2.091 . S
O86 C92 1.261 . S
C87 O96 1.247 . S
C87 O97 1.272 . S
O88 Co84 2.004 . S
O88 C93 1.259 . S
Co89 O90 2.061 . S
Co89 O95 2.052 . S
Co89 O97 2.135 . S
O90 Co89 2.061 . S
O90 C93 1.235 . S
C91 O94 1.238 . S
C91 O95 1.241 . S
C92 O85 1.247 . S
C92 O86 1.261 . S
C93 O88 1.259 . S
C93 O90 1.235 . S
O94 Co84 2.021 . S
O94 C91 1.238 . S
O95 Co89 2.052 . S
O95 C91 1.241 . S
O96 Co84 2.137 . S
O96 C87 1.247 . S
O97 Co84 2.244 . S
O97 C87 1.272 . S
O97 Co89 2.135 . S
Co98 O99 2.216 . S
Co98 O100 2.091 . S
Co98 O102 2.004 . S
Co98 O108 2.021 . S
Co98 O110 2.137 . S
Co98 O111 2.244 . S
O99 Co98 2.216 . S
O99 C106 1.247 . S
O100 Co98 2.091 . S
O100 C106 1.261 . S
C101 O110 1.247 . S
C101 O111 1.272 . S
O102 Co98 2.004 . S
O102 C107 1.259 . S
Co103 O104 2.061 . S
Co103 O109 2.052 . S
Co103 O111 2.135 . S
O104 Co103 2.061 . S
O104 C107 1.235 . S
C105 O108 1.238 . S
C105 O109 1.241 . S
C106 O99 1.247 . S
C106 O100 1.261 . S
C107 O102 1.259 . S
C107 O104 1.235 . S
O108 Co98 2.021 . S
O108 C105 1.238 . S
O109 Co103 2.052 . S
O109 C105 1.241 . S
O110 Co98 2.137 . S
O110 C101 1.247 . S
O111 Co98 2.244 . S
O111 C101 1.272 . S
O111 Co103 2.135 . S
Co112 O113 2.216 . S
Co112 O114 2.091 . S
Co112 O116 2.004 . S
Co112 O122 2.021 . S
Co112 O124 2.137 . S
Co112 O125 2.244 . S
O113 Co112 2.216 . S
O113 C120 1.247 . S
O114 Co112 2.091 . S
O114 C120 1.261 . S
C115 O124 1.247 . S
C115 O125 1.272 . S
O116 Co112 2.004 . S
O116 C121 1.259 . S
Co117 O118 2.061 . S
Co117 O123 2.052 . S
Co117 O125 2.135 . S
O118 Co117 2.061 . S
O118 C121 1.235 . S
C119 O122 1.238 . S
C119 O123 1.241 . S
C120 O113 1.247 . S
C120 O114 1.261 . S
C121 O116 1.259 . S
C121 O118 1.235 . S
O122 Co112 2.021 . S
O122 C119 1.238 . S
O123 Co117 2.052 . S
O123 C119 1.241 . S
O124 Co112 2.137 . S
O124 C115 1.247 . S
O125 Co112 2.244 . S
O125 C115 1.272 . S
O125 Co117 2.135 . S
Co126 O127 2.216 . S
Co126 O128 2.091 . S
Co126 O130 2.004 . S
Co126 O136 2.021 . S
Co126 O138 2.137 1_554 S
Co126 O139 2.244 1_554 S
O127 Co126 2.216 . S
O127 C134 1.247 . S
O128 Co126 2.091 . S
O128 C134 1.261 . S
C129 O138 1.247 . S
C129 O139 1.272 . S
O130 Co126 2.004 . S
O130 C135 1.259 . S
Co131 O132 2.061 . S
Co131 O137 2.052 . S
Co131 O139 2.135 1_554 S
O132 Co131 2.061 . S
O132 C135 1.235 . S
C133 O136 1.238 . S
C133 O137 1.241 . S
C134 O127 1.247 . S
C134 O128 1.261 . S
C135 O130 1.259 . S
C135 O132 1.235 . S
O136 Co126 2.021 . S
O136 C133 1.238 . S
O137 Co131 2.052 . S
O137 C133 1.241 . S
O138 Co126 2.137 1_556 S
O138 C129 1.247 . S
O139 Co126 2.244 1_556 S
O139 C129 1.272 . S
O139 Co131 2.135 1_556 S
Co140 O141 2.216 . S
Co140 O142 2.091 . S
Co140 O144 2.004 . S
Co140 O150 2.021 . S
Co140 O152 2.137 . S
Co140 O153 2.244 . S
O141 Co140 2.216 . S
O141 C148 1.247 . S
O142 Co140 2.091 . S
O142 C148 1.261 . S
C143 O152 1.247 . S
C143 O153 1.272 . S
O144 Co140 2.004 . S
O144 C149 1.259 . S
Co145 O146 2.061 . S
Co145 O151 2.052 . S
Co145 O153 2.135 . S
O146 Co145 2.061 . S
O146 C149 1.235 . S
C147 O150 1.238 . S
C147 O151 1.241 . S
C148 O141 1.247 . S
C148 O142 1.261 . S
C149 O144 1.259 . S
C149 O146 1.235 . S
O150 Co140 2.021 . S
O150 C147 1.238 . S
O151 Co145 2.052 . S
O151 C147 1.241 . S
O152 Co140 2.137 . S
O152 C143 1.247 . S
O153 Co140 2.244 . S
O153 C143 1.272 . S
O153 Co145 2.135 . S
Co154 O155 2.216 . S
Co154 O156 2.091 . S
Co154 O158 2.004 . S
Co154 O164 2.021 . S
Co154 O166 2.137 . S
Co154 O167 2.244 . S
O155 Co154 2.216 . S
O155 C162 1.247 . S
O156 Co154 2.091 . S
O156 C162 1.261 . S
C157 O166 1.247 . S
C157 O167 1.272 . S
O158 Co154 2.004 . S
O158 C163 1.259 . S
Co159 O160 2.061 . S
Co159 O165 2.052 . S
Co159 O167 2.135 . S
O160 Co159 2.061 . S
O160 C163 1.235 . S
C161 O164 1.238 . S
C161 O165 1.241 . S
C162 O155 1.247 . S
C162 O156 1.261 . S
C163 O158 1.259 . S
C163 O160 1.235 . S
O164 Co154 2.021 . S
O164 C161 1.238 . S
O165 Co159 2.052 . S
O165 C161 1.241 . S
O166 Co154 2.137 . S
O166 C157 1.247 . S
O167 Co154 2.244 . S
O167 C157 1.272 . S
O167 Co159 2.135 . S
Co168 O169 2.216 . S
Co168 O170 2.091 . S
Co168 O172 2.004 . S
Co168 O178 2.021 . S
Co168 O180 2.137 . S
Co168 O181 2.244 . S
O169 Co168 2.216 . S
O169 C176 1.247 . S
O170 Co168 2.091 . S
O170 C176 1.261 . S
C171 O180 1.247 . S
C171 O181 1.272 . S
O172 Co168 2.004 . S
O172 C177 1.259 . S
Co173 O174 2.061 . S
Co173 O179 2.052 . S
Co173 O181 2.135 . S
O174 Co173 2.061 . S
O174 C177 1.235 . S
C175 O178 1.238 . S
C175 O179 1.241 . S
C176 O169 1.247 . S
C176 O170 1.261 . S
C177 O172 1.259 . S
C177 O174 1.235 . S
O178 Co168 2.021 . S
O178 C175 1.238 . S
O179 Co173 2.052 . S
O179 C175 1.241 . S
O180 Co168 2.137 . S
O180 C171 1.247 . S
O181 Co168 2.244 . S
O181 C171 1.272 . S
O181 Co173 2.135 . S
Co182 O183 2.216 . S
Co182 O184 2.091 . S
Co182 O186 2.004 . S
Co182 O192 2.021 . S
Co182 O194 2.137 . S
Co182 O195 2.244 . S
O183 Co182 2.216 . S
O183 C190 1.247 . S
O184 Co182 2.091 . S
O184 C190 1.261 . S
C185 O194 1.247 . S
C185 O195 1.272 . S
O186 Co182 2.004 . S
O186 C191 1.259 . S
Co187 O188 2.061 . S
Co187 O193 2.052 . S
Co187 O195 2.135 . S
O188 Co187 2.061 . S
O188 C191 1.235 . S
C189 O192 1.238 . S
C189 O193 1.241 . S
C190 O183 1.247 . S
C190 O184 1.261 . S
C191 O186 1.259 . S
C191 O188 1.235 . S
O192 Co182 2.021 . S
O192 C189 1.238 . S
O193 Co187 2.052 . S
O193 C189 1.241 . S
O194 Co182 2.137 . S
O194 C185 1.247 . S
O195 Co182 2.244 . S
O195 C185 1.272 . S
O195 Co187 2.135 . S
Co196 O197 2.216 . S
Co196 O198 2.091 1_554 S
Co196 O200 2.004 . S
Co196 O206 2.021 1_554 S
Co196 O208 2.137 . S
Co196 O209 2.244 . S
O197 Co196 2.216 . S
O197 C204 1.247 1_554 S
O198 Co196 2.091 1_556 S
O198 C204 1.261 . S
C199 O208 1.247 . S
C199 O209 1.272 . S
O200 Co196 2.004 . S
O200 C205 1.259 . S
Co201 O202 2.061 . S
Co201 O207 2.052 1_554 S
Co201 O209 2.135 . S
O202 Co201 2.061 . S
O202 C205 1.235 . S
C203 O206 1.238 . S
C203 O207 1.241 . S
C204 O197 1.247 1_556 S
C204 O198 1.261 . S
C205 O200 1.259 . S
C205 O202 1.235 . S
O206 Co196 2.021 1_556 S
O206 C203 1.238 . S
O207 Co201 2.052 1_556 S
O207 C203 1.241 . S
O208 Co196 2.137 . S
O208 C199 1.247 . S
O209 Co196 2.244 . S
O209 C199 1.272 . S
O209 Co201 2.135 . S
Co210 O211 2.216 . S
Co210 O212 2.091 . S
Co210 O214 2.004 . S
Co210 O220 2.021 . S
Co210 O222 2.137 . S
Co210 O223 2.244 . S
O211 Co210 2.216 . S
O211 C218 1.247 . S
O212 Co210 2.091 . S
O212 C218 1.261 . S
C213 O222 1.247 . S
C213 O223 1.272 . S
O214 Co210 2.004 . S
O214 C219 1.259 . S
Co215 O216 2.061 . S
Co215 O221 2.052 . S
Co215 O223 2.135 . S
O216 Co215 2.061 . S
O216 C219 1.235 . S
C217 O220 1.238 . S
C217 O221 1.241 . S
C218 O211 1.247 . S
C218 O212 1.261 . S
C219 O214 1.259 . S
C219 O216 1.235 . S
O220 Co210 2.021 . S
O220 C217 1.238 . S
O221 Co215 2.052 . S
O221 C217 1.241 . S
O222 Co210 2.137 . S
O222 C213 1.247 . S
O223 Co210 2.244 . S
O223 C213 1.272 . S
O223 Co215 2.135 . S
C224 C225 1.363 . S
C224 C230 1.379 . S
C224 N232 1.356 . S
C225 C224 1.363 . S
C225 C231 1.363 . S
C226 C227 1.363 . S
C226 C231 1.379 . S
C226 N233 1.356 . S
C227 C226 1.363 . S
C227 C230 1.363 . S
N228 C230 1.356 . S
N228 H240 0.984 . S
N228 H241 0.985 . S
N229 C231 1.356 . S
N229 H234 0.984 . S
N229 H235 0.985 . S
C230 C224 1.379 . S
C230 C227 1.363 . S
C230 N228 1.356 . S
C231 C225 1.363 . S
C231 C226 1.379 . S
C231 N229 1.356 . S
N232 C224 1.356 . S
N232 H238 0.984 . S
N232 H239 0.984 . S
N233 C226 1.356 . S
N233 H236 0.984 . S
N233 H237 0.985 . S
H234 N229 0.984 . S
H235 N229 0.985 . S
H236 N233 0.984 . S
H237 N233 0.985 . S
H238 N232 0.984 . S
H239 N232 0.984 . S
H240 N228 0.984 . S
H241 N228 0.985 . S
C242 C243 1.363 . S
C242 C248 1.379 . S
C242 N250 1.356 . S
C243 C242 1.363 . S
C243 C249 1.363 . S
C244 C245 1.363 . S
C244 C249 1.379 . S
C244 N251 1.356 . S
C245 C244 1.363 . S
C245 C248 1.363 . S
N246 C248 1.356 . S
N246 H258 0.984 . S
N246 H259 0.985 . S
N247 C249 1.356 . S
N247 H252 0.984 . S
N247 H253 0.985 . S
C248 C242 1.379 . S
C248 C245 1.363 . S
C248 N246 1.356 . S
C249 C243 1.363 . S
C249 C244 1.379 . S
C249 N247 1.356 . S
N250 C242 1.356 . S
N250 H256 0.984 . S
N250 H257 0.984 . S
N251 C244 1.356 . S
N251 H254 0.984 . S
N251 H255 0.985 . S
H252 N247 0.984 . S
H253 N247 0.985 . S
H254 N251 0.984 . S
H255 N251 0.985 . S
H256 N250 0.984 . S
H257 N250 0.984 . S
H258 N246 0.984 . S
H259 N246 0.985 . S
C260 C261 1.363 . S
C260 C266 1.379 . S
C260 N268 1.356 . S
C261 C260 1.363 . S
C261 C267 1.363 . S
C262 C263 1.363 . S
C262 C267 1.379 . S
C262 N269 1.356 1_556 S
C263 C262 1.363 . S
C263 C266 1.363 . S
N264 C266 1.356 . S
N264 H276 0.984 . S
N264 H277 0.985 . S
N265 C267 1.356 . S
N265 H270 0.984 . S
N265 H271 0.985 . S
C266 C260 1.379 . S
C266 C263 1.363 . S
C266 N264 1.356 . S
C267 C261 1.363 . S
C267 C262 1.379 . S
C267 N265 1.356 . S
N268 C260 1.356 . S
N268 H274 0.984 . S
N268 H275 0.984 . S
N269 C262 1.356 1_554 S
N269 H272 0.984 . S
N269 H273 0.985 . S
H270 N265 0.984 . S
H271 N265 0.985 . S
H272 N269 0.984 . S
H273 N269 0.985 . S
H274 N268 0.984 . S
H275 N268 0.984 . S
H276 N264 0.984 . S
H277 N264 0.985 . S
C278 C279 1.363 . S
C278 C284 1.379 . S
C278 N286 1.356 . S
C279 C278 1.363 . S
C279 C285 1.363 . S
C280 C281 1.363 . S
C280 C285 1.379 . S
C280 N287 1.356 . S
C281 C280 1.363 . S
C281 C284 1.363 . S
N282 C284 1.356 . S
N282 H294 0.984 . S
N282 H295 0.985 . S
N283 C285 1.356 . S
N283 H288 0.984 . S
N283 H289 0.985 . S
C284 C278 1.379 . S
C284 C281 1.363 . S
C284 N282 1.356 . S
C285 C279 1.363 . S
C285 C280 1.379 . S
C285 N283 1.356 . S
N286 C278 1.356 . S
N286 H292 0.984 . S
N286 H293 0.984 . S
N287 C280 1.356 . S
N287 H290 0.984 . S
N287 H291 0.985 . S
H288 N283 0.984 . S
H289 N283 0.985 . S
H290 N287 0.984 . S
H291 N287 0.985 . S
H292 N286 0.984 . S
H293 N286 0.984 . S
H294 N282 0.984 . S
H295 N282 0.985 . S
C296 C297 1.363 . S
C296 C302 1.379 . S
C296 N304 1.356 . S
C297 C296 1.363 . S
C297 C303 1.363 . S
C298 C299 1.363 . S
C298 C303 1.379 . S
C298 N305 1.356 1_556 S
C299 C298 1.363 . S
C299 C302 1.363 . S
N300 C302 1.356 . S
N300 H312 0.984 . S
N300 H313 0.985 . S
N301 C303 1.356 . S
N301 H306 0.984 . S
N301 H307 0.985 . S
C302 C296 1.379 . S
C302 C299 1.363 . S
C302 N300 1.356 . S
C303 C297 1.363 . S
C303 C298 1.379 . S
C303 N301 1.356 . S
N304 C296 1.356 . S
N304 H310 0.984 . S
N304 H311 0.984 . S
N305 C298 1.356 1_554 S
N305 H308 0.984 . S
N305 H309 0.985 . S
H306 N301 0.984 . S
H307 N301 0.985 . S
H308 N305 0.984 . S
H309 N305 0.985 . S
H310 N304 0.984 . S
H311 N304 0.984 . S
H312 N300 0.984 . S
H313 N300 0.985 . S
C314 C315 1.363 . S
C314 C320 1.379 . S
C314 N322 1.356 . S
C315 C314 1.363 . S
C315 C321 1.363 . S
C316 C317 1.363 . S
C316 C321 1.379 . S
C316 N323 1.356 . S
C317 C316 1.363 . S
C317 C320 1.363 . S
N318 C320 1.356 . S
N318 H330 0.984 . S
N318 H331 0.985 . S
N319 C321 1.356 . S
N319 H324 0.984 . S
N319 H325 0.985 . S
C320 C314 1.379 . S
C320 C317 1.363 . S
C320 N318 1.356 . S
C321 C315 1.363 . S
C321 C316 1.379 . S
C321 N319 1.356 . S
N322 C314 1.356 . S
N322 H328 0.984 . S
N322 H329 0.984 . S
N323 C316 1.356 . S
N323 H326 0.984 . S
N323 H327 0.985 . S
H324 N319 0.984 . S
H325 N319 0.985 . S
H326 N323 0.984 . S
H327 N323 0.985 . S
H328 N322 0.984 . S
H329 N322 0.984 . S
H330 N318 0.984 . S
H331 N318 0.985 . S
C332 C333 1.363 . S
C332 C338 1.379 . S
C332 N340 1.356 . S
C333 C332 1.363 . S
C333 C339 1.363 . S
C334 C335 1.363 . S
C334 C339 1.379 . S
C334 N341 1.356 . S
C335 C334 1.363 . S
C335 C338 1.363 . S
N336 C338 1.356 . S
N336 H348 0.984 . S
N336 H349 0.985 . S
N337 C339 1.356 . S
N337 H342 0.984 . S
N337 H343 0.985 . S
C338 C332 1.379 . S
C338 C335 1.363 . S
C338 N336 1.356 . S
C339 C333 1.363 . S
C339 C334 1.379 . S
C339 N337 1.356 . S
N340 C332 1.356 . S
N340 H346 0.984 . S
N340 H347 0.984 . S
N341 C334 1.356 . S
N341 H344 0.984 . S
N341 H345 0.985 . S
H342 N337 0.984 . S
H343 N337 0.985 . S
H344 N341 0.984 . S
H345 N341 0.985 . S
H346 N340 0.984 . S
H347 N340 0.984 . S
H348 N336 0.984 . S
H349 N336 0.985 . S
C350 C351 1.363 . S
C350 C356 1.379 . S
C350 N358 1.356 . S
C351 C350 1.363 . S
C351 C357 1.363 . S
C352 C353 1.363 . S
C352 C357 1.379 . S
C352 N359 1.356 . S
C353 C352 1.363 . S
C353 C356 1.363 . S
N354 C356 1.356 . S
N354 H366 0.984 . S
N354 H367 0.985 . S
N355 C357 1.356 . S
N355 H360 0.984 . S
N355 H361 0.985 1_455 S
C356 C350 1.379 . S
C356 C353 1.363 . S
C356 N354 1.356 . S
C357 C351 1.363 . S
C357 C352 1.379 . S
C357 N355 1.356 . S
N358 C350 1.356 . S
N358 H364 0.984 . S
N358 H365 0.984 . S
N359 C352 1.356 . S
N359 H362 0.984 . S
N359 H363 0.985 1_455 S
H360 N355 0.984 . S
H361 N355 0.985 1_655 S
H362 N359 0.984 . S
H363 N359 0.985 1_655 S
H364 N358 0.984 . S
H365 N358 0.984 . S
H366 N354 0.984 . S
H367 N354 0.985 . S
C368 C369 1.363 . S
C368 C374 1.379 1_455 S
C368 N376 1.356 . S
C369 C368 1.363 . S
C369 C375 1.363 1_545 S
C370 C371 1.363 . S
C370 C375 1.379 1_655 S
C370 N377 1.356 . S
C371 C370 1.363 . S
C371 C374 1.363 1_565 S
N372 C374 1.356 . S
N372 H384 0.984 . S
N372 H385 0.994 . S
N373 C375 1.356 . S
N373 H378 0.994 . S
N373 H379 0.985 . S
C374 C368 1.379 1_655 S
C374 C371 1.363 1_545 S
C374 N372 1.356 . S
C375 C369 1.363 1_565 S
C375 C370 1.379 1_455 S
C375 N373 1.356 . S
N376 C368 1.356 . S
N376 H382 0.984 . S
N376 H383 0.984 . S
N377 C370 1.356 . S
N377 H380 0.984 . S
N377 H381 0.985 . S
H378 N373 0.994 . S
H379 N373 0.985 . S
H380 N377 0.984 . S
H381 N377 0.985 . S
H382 N376 0.984 . S
H383 N376 0.984 . S
H384 N372 0.984 . S
H385 N372 0.994 . S
C386 C387 1.363 1_455 S
C386 C392 1.379 . S
C386 N394 1.356 . S
C387 C386 1.363 1_655 S
C387 C393 1.363 . S
C388 C389 1.363 1_655 S
C388 C393 1.379 . S
C388 N395 1.356 . S
C389 C388 1.363 1_455 S
C389 C392 1.363 . S
N390 C392 1.356 . S
N390 H402 0.984 . S
N390 H403 0.985 . S
N391 C393 1.356 . S
N391 H396 0.984 . S
N391 H397 0.985 . S
C392 C386 1.379 . S
C392 C389 1.363 . S
C392 N390 1.356 . S
C393 C387 1.363 . S
C393 C388 1.379 . S
C393 N391 1.356 . S
N394 C386 1.356 . S
N394 H400 0.984 . S
N394 H401 0.993 . S
N395 C388 1.356 . S
N395 H398 0.993 . S
N395 H399 0.985 . S
H396 N391 0.984 . S
H397 N391 0.985 . S
H398 N395 0.993 . S
H399 N395 0.985 . S
H400 N394 0.984 . S
H401 N394 0.993 . S
H402 N390 0.984 . S
H403 N390 0.985 . S
C404 C405 1.363 . S
C404 C410 1.379 . S
C404 N412 1.356 . S
C405 C404 1.363 . S
C405 C411 1.363 . S
C406 C407 1.363 . S
C406 C411 1.379 . S
C406 N413 1.356 . S
C407 C406 1.363 . S
C407 C410 1.363 . S
N408 C410 1.356 . S
N408 H420 0.984 . S
N408 H421 0.985 . S
N409 C411 1.356 . S
N409 H414 0.984 . S
N409 H415 0.985 . S
C410 C404 1.379 . S
C410 C407 1.363 . S
C410 N408 1.356 . S
C411 C405 1.363 . S
C411 C406 1.379 . S
C411 N409 1.356 . S
N412 C404 1.356 . S
N412 H418 0.984 . S
N412 H419 0.984 . S
N413 C406 1.356 . S
N413 H416 0.984 . S
N413 H417 0.985 . S
H414 N409 0.984 . S
H415 N409 0.985 . S
H416 N413 0.984 . S
H417 N413 0.985 . S
H418 N412 0.984 . S
H419 N412 0.984 . S
H420 N408 0.984 . S
H421 N408 0.985 . S
C422 C423 1.363 . S
C422 C428 1.379 1_565 S
C422 N430 1.356 . S
C423 C422 1.363 . S
C423 C429 1.363 . S
C424 C425 1.363 . S
C424 C429 1.379 1_545 S
C424 N431 1.356 1_554 S
C425 C424 1.363 . S
C425 C428 1.363 . S
N426 C428 1.356 . S
N426 H438 0.984 . S
N426 H439 0.985 . S
N427 C429 1.356 1_556 S
N427 H432 0.984 . S
N427 H433 0.985 . S
C428 C422 1.379 1_545 S
C428 C425 1.363 . S
C428 N426 1.356 . S
C429 C423 1.363 . S
C429 C424 1.379 1_565 S
C429 N427 1.356 1_554 S
N430 C422 1.356 . S
N430 H436 0.984 . S
N430 H437 0.984 . S
N431 C424 1.356 1_556 S
N431 H434 0.984 . S
N431 H435 0.985 . S
H432 N427 0.984 . S
H433 N427 0.985 . S
H434 N431 0.984 . S
H435 N431 0.985 . S
H436 N430 0.984 . S
H437 N430 0.984 . S
H438 N426 0.984 . S
H439 N426 0.985 . S
C440 C441 1.363 1_556 S
C440 C446 1.379 1_455 S
C440 N448 1.356 . S
C441 C440 1.363 1_554 S
C441 C447 1.363 . S
C442 C443 1.363 . S
C442 C447 1.379 1_655 S
C442 N449 1.356 . S
C443 C442 1.363 . S
C443 C446 1.363 1_554 S
N444 C446 1.356 . S
N444 H456 0.984 . S
N444 H457 0.985 . S
N445 C447 1.356 . S
N445 H450 0.984 . S
N445 H451 0.985 . S
C446 C440 1.379 1_655 S
C446 C443 1.363 1_556 S
C446 N444 1.356 . S
C447 C441 1.363 . S
C447 C442 1.379 1_455 S
C447 N445 1.356 . S
N448 C440 1.356 . S
N448 H454 0.984 . S
N448 H455 0.984 . S
N449 C442 1.356 . S
N449 H452 0.984 . S
N449 H453 0.985 . S
H450 N445 0.984 . S
H451 N445 0.985 . S
H452 N449 0.984 . S
H453 N449 0.985 . S
H454 N448 0.984 . S
H455 N448 0.984 . S
H456 N444 0.984 . S
H457 N444 0.985 . S
C458 C459 1.363 . S
C458 C464 1.379 . S
C458 N466 1.356 . S
C459 C458 1.363 . S
C459 C465 1.363 . S
C460 C461 1.363 . S
C460 C465 1.379 . S
C460 N467 1.356 . S
C461 C460 1.363 . S
C461 C464 1.363 . S
N462 C464 1.356 . S
N462 H474 0.984 . S
N462 H475 0.985 . S
N463 C465 1.356 . S
N463 H468 0.984 . S
N463 H469 0.985 . S
C464 C458 1.379 . S
C464 C461 1.363 . S
C464 N462 1.356 . S
C465 C459 1.363 . S
C465 C460 1.379 . S
C465 N463 1.356 . S
N466 C458 1.356 . S
N466 H472 0.984 . S
N466 H473 0.984 . S
N467 C460 1.356 . S
N467 H470 0.984 . S
N467 H471 0.985 . S
H468 N463 0.984 . S
H469 N463 0.985 . S
H470 N467 0.984 . S
H471 N467 0.985 . S
H472 N466 0.984 . S
H473 N466 0.984 . S
H474 N462 0.984 . S
H475 N462 0.985 . S
C476 C477 1.363 . S
C476 C482 1.379 . S
C476 N484 1.356 . S
C477 C476 1.363 . S
C477 C483 1.363 1_545 S
C478 C479 1.363 . S
C478 C483 1.379 . S
C478 N485 1.356 . S
C479 C478 1.363 . S
C479 C482 1.363 1_565 S
N480 C482 1.356 . S
N480 H492 0.984 . S
N480 H493 0.993 . S
N481 C483 1.356 . S
N481 H486 0.993 . S
N481 H487 0.985 . S
C482 C476 1.379 . S
C482 C479 1.363 1_545 S
C482 N480 1.356 . S
C483 C477 1.363 1_565 S
C483 C478 1.379 . S
C483 N481 1.356 . S
N484 C476 1.356 . S
N484 H490 0.984 . S
N484 H491 0.984 . S
N485 C478 1.356 . S
N485 H488 0.984 . S
N485 H489 0.985 . S
H486 N481 0.993 . S
H487 N481 0.985 . S
H488 N485 0.984 . S
H489 N485 0.985 . S
H490 N484 0.984 . S
H491 N484 0.984 . S
H492 N480 0.984 . S
H493 N480 0.993 . S
C494 C495 1.363 . S
C494 C500 1.379 1_545 S
C494 N502 1.356 . S
C495 C494 1.363 . S
C495 C501 1.363 1_455 S
C496 C497 1.363 . S
C496 C501 1.379 1_565 S
C496 N503 1.356 . S
C497 C496 1.363 . S
C497 C500 1.363 1_655 S
N498 C500 1.356 . S
N498 H510 0.984 . S
N498 H511 0.995 . S
N499 C501 1.356 . S
N499 H504 0.995 . S
N499 H505 0.985 . S
C500 C494 1.379 1_565 S
C500 C497 1.363 1_455 S
C500 N498 1.356 . S
C501 C495 1.363 1_655 S
C501 C496 1.379 1_545 S
C501 N499 1.356 . S
N502 C494 1.356 . S
N502 H508 0.984 . S
N502 H509 0.984 . S
N503 C496 1.356 . S
N503 H506 0.984 . S
N503 H507 0.985 . S
H504 N499 0.995 . S
H505 N499 0.985 . S
H506 N503 0.984 . S
H507 N503 0.985 . S
H508 N502 0.984 . S
H509 N502 0.984 . S
H510 N498 0.984 . S
H511 N498 0.995 . S
C512 C513 1.363 . S
C512 C518 1.379 . S
C512 N520 1.356 . S
C513 C512 1.363 . S
C513 C519 1.363 . S
C514 C515 1.363 . S
C514 C519 1.379 . S
C514 N521 1.356 . S
C515 C514 1.363 . S
C515 C518 1.363 . S
N516 C518 1.356 . S
N516 H528 0.984 . S
N516 H529 0.985 . S
N517 C519 1.356 . S
N517 H522 0.984 . S
N517 H523 0.985 . S
C518 C512 1.379 . S
C518 C515 1.363 . S
C518 N516 1.356 . S
C519 C513 1.363 . S
C519 C514 1.379 . S
C519 N517 1.356 . S
N520 C512 1.356 . S
N520 H526 0.984 . S
N520 H527 0.984 . S
N521 C514 1.356 . S
N521 H524 0.984 . S
N521 H525 0.985 . S
H522 N517 0.984 . S
H523 N517 0.985 . S
H524 N521 0.984 . S
H525 N521 0.985 . S
H526 N520 0.984 . S
H527 N520 0.984 . S
H528 N516 0.984 . S
H529 N516 0.985 . S
C530 C531 1.363 . S
C530 C536 1.379 . S
C530 N538 1.356 . S
C531 C530 1.363 . S
C531 C537 1.363 . S
C532 C533 1.363 . S
C532 C537 1.379 . S
C532 N539 1.356 . S
C533 C532 1.363 . S
C533 C536 1.363 . S
N534 C536 1.356 . S
N534 H546 0.984 . S
N534 H547 0.985 . S
N535 C537 1.356 . S
N535 H540 0.984 . S
N535 H541 0.985 . S
C536 C530 1.379 . S
C536 C533 1.363 . S
C536 N534 1.356 . S
C537 C531 1.363 . S
C537 C532 1.379 . S
C537 N535 1.356 . S
N538 C530 1.356 . S
N538 H544 0.984 . S
N538 H545 0.984 . S
N539 C532 1.356 . S
N539 H542 0.984 . S
N539 H543 0.985 . S
H540 N535 0.984 . S
H541 N535 0.985 . S
H542 N539 0.984 . S
H543 N539 0.985 . S
H544 N538 0.984 . S
H545 N538 0.984 . S
H546 N534 0.984 . S
H547 N534 0.985 . S
C548 C549 1.363 . S
C548 C554 1.379 1_554 S
C548 N556 1.356 . S
C549 C548 1.363 . S
C549 C555 1.363 . S
C550 C551 1.363 1_554 S
C550 C555 1.379 . S
C550 N557 1.356 1_554 S
C551 C550 1.363 1_556 S
C551 C554 1.363 . S
N552 C554 1.356 . S
N552 H564 0.984 . S
N552 H565 0.985 . S
N553 C555 1.356 . S
N553 H558 0.984 . S
N553 H559 0.985 . S
C554 C548 1.379 1_556 S
C554 C551 1.363 . S
C554 N552 1.356 . S
C555 C549 1.363 . S
C555 C550 1.379 . S
C555 N553 1.356 . S
N556 C548 1.356 . S
N556 H562 0.984 . S
N556 H563 0.984 . S
N557 C550 1.356 1_556 S
N557 H560 0.984 . S
N557 H561 0.985 1_556 S
H558 N553 0.984 . S
H559 N553 0.985 . S
H560 N557 0.984 . S
H561 N557 0.985 1_554 S
H562 N556 0.984 . S
H563 N556 0.984 . S
H564 N552 0.984 . S
H565 N552 0.985 . S
C566 C567 1.363 . S
C566 C572 1.379 . S
C566 N574 1.356 . S
C567 C566 1.363 . S
C567 C573 1.363 . S
C568 C569 1.363 . S
C568 C573 1.379 . S
C568 N575 1.356 . S
C569 C568 1.363 . S
C569 C572 1.363 . S
N570 C572 1.356 . S
N570 H582 0.984 . S
N570 H583 0.985 . S
N571 C573 1.356 . S
N571 H576 0.984 . S
N571 H577 0.985 . S
C572 C566 1.379 . S
C572 C569 1.363 . S
C572 N570 1.356 . S
C573 C567 1.363 . S
C573 C568 1.379 . S
C573 N571 1.356 . S
N574 C566 1.356 . S
N574 H580 0.984 . S
N574 H581 0.984 . S
N575 C568 1.356 . S
N575 H578 0.984 . S
N575 H579 0.985 . S
H576 N571 0.984 . S
H577 N571 0.985 . S
H578 N575 0.984 . S
H579 N575 0.985 . S
H580 N574 0.984 . S
H581 N574 0.984 . S
H582 N570 0.984 . S
H583 N570 0.985 . S
C584 C585 1.363 . S
C584 C590 1.379 . S
C584 N592 1.356 . S
C585 C584 1.363 . S
C585 C591 1.363 . S
C586 C587 1.363 . S
C586 C591 1.379 . S
C586 N593 1.356 . S
C587 C586 1.363 . S
C587 C590 1.363 . S
N588 C590 1.356 . S
N588 H600 0.984 . S
N588 H601 0.985 . S
N589 C591 1.356 . S
N589 H594 0.984 . S
N589 H595 0.985 . S
C590 C584 1.379 . S
C590 C587 1.363 . S
C590 N588 1.356 . S
C591 C585 1.363 . S
C591 C586 1.379 . S
C591 N589 1.356 . S
N592 C584 1.356 . S
N592 H598 0.984 . S
N592 H599 0.984 . S
N593 C586 1.356 . S
N593 H596 0.984 . S
N593 H597 0.985 . S
H594 N589 0.984 . S
H595 N589 0.985 . S
H596 N593 0.984 . S
H597 N593 0.985 . S
H598 N592 0.984 . S
H599 N592 0.984 . S
H600 N588 0.984 . S
H601 N588 0.985 . S
C602 C603 1.363 . S
C602 C608 1.379 1_554 S
C602 N610 1.356 . S
C603 C602 1.363 . S
C603 C609 1.363 . S
C604 C605 1.363 1_554 S
C604 C609 1.379 . S
C604 N611 1.356 1_554 S
C605 C604 1.363 1_556 S
C605 C608 1.363 . S
N606 C608 1.356 . S
N606 H618 0.984 . S
N606 H619 0.985 . S
N607 C609 1.356 . S
N607 H612 0.984 . S
N607 H613 0.985 . S
C608 C602 1.379 1_556 S
C608 C605 1.363 . S
C608 N606 1.356 . S
C609 C603 1.363 . S
C609 C604 1.379 . S
C609 N607 1.356 . S
N610 C602 1.356 . S
N610 H616 0.984 . S
N610 H617 0.984 . S
N611 C604 1.356 1_556 S
N611 H614 0.984 . S
N611 H615 0.985 1_556 S
H612 N607 0.984 . S
H613 N607 0.985 . S
H614 N611 0.984 . S
H615 N611 0.985 1_554 S
H616 N610 0.984 . S
H617 N610 0.984 . S
H618 N606 0.984 . S
H619 N606 0.985 . S
C620 C621 1.363 . S
C620 C626 1.379 . S
C620 N628 1.356 . S
C621 C620 1.363 . S
C621 C627 1.363 . S
C622 C623 1.363 . S
C622 C627 1.379 . S
C622 N629 1.356 . S
C623 C622 1.363 . S
C623 C626 1.363 . S
N624 C626 1.356 . S
N624 H636 0.984 . S
N624 H637 0.985 . S
N625 C627 1.356 . S
N625 H630 0.984 . S
N625 H631 0.985 . S
C626 C620 1.379 . S
C626 C623 1.363 . S
C626 N624 1.356 . S
C627 C621 1.363 . S
C627 C622 1.379 . S
C627 N625 1.356 . S
N628 C620 1.356 . S
N628 H634 0.984 . S
N628 H635 0.984 . S
N629 C622 1.356 . S
N629 H632 0.984 . S
N629 H633 0.985 . S
H630 N625 0.984 . S
H631 N625 0.985 . S
H632 N629 0.984 . S
H633 N629 0.985 . S
H634 N628 0.984 . S
H635 N628 0.984 . S
H636 N624 0.984 . S
H637 N624 0.985 . S
C638 C639 1.363 . S
C638 C644 1.379 . S
C638 N646 1.356 . S
C639 C638 1.363 . S
C639 C645 1.363 . S
C640 C641 1.363 . S
C640 C645 1.379 . S
C640 N647 1.356 . S
C641 C640 1.363 . S
C641 C644 1.363 . S
N642 C644 1.356 . S
N642 H654 0.984 . S
N642 H655 0.985 . S
N643 C645 1.356 . S
N643 H648 0.984 . S
N643 H649 0.985 . S
C644 C638 1.379 . S
C644 C641 1.363 . S
C644 N642 1.356 . S
C645 C639 1.363 . S
C645 C640 1.379 . S
C645 N643 1.356 . S
N646 C638 1.356 . S
N646 H652 0.984 . S
N646 H653 0.984 . S
N647 C640 1.356 . S
N647 H650 0.984 . S
N647 H651 0.985 . S
H648 N643 0.984 . S
H649 N643 0.985 . S
H650 N647 0.984 . S
H651 N647 0.985 . S
H652 N646 0.984 . S
H653 N646 0.984 . S
H654 N642 0.984 . S
H655 N642 0.985 . S
C656 C657 1.363 1_554 S
C656 C662 1.379 . S
C656 N664 1.356 1_554 S
C657 C656 1.363 1_556 S
C657 C663 1.363 1_556 S
C658 C659 1.363 . S
C658 C663 1.379 . S
C658 N665 1.356 . S
C659 C658 1.363 . S
C659 C662 1.363 . S
N660 C662 1.356 . S
N660 H672 0.984 . S
N660 H673 0.985 . S
N661 C663 1.356 1_556 S
N661 H666 0.984 . S
N661 H667 0.985 . S
C662 C656 1.379 . S
C662 C659 1.363 . S
C662 N660 1.356 . S
C663 C657 1.363 1_554 S
C663 C658 1.379 . S
C663 N661 1.356 1_554 S
N664 C656 1.356 1_556 S
N664 H670 0.984 . S
N664 H671 0.984 . S
N665 C658 1.356 . S
N665 H668 0.984 . S
N665 H669 0.985 . S
H666 N661 0.984 . S
H667 N661 0.985 . S
H668 N665 0.984 . S
H669 N665 0.985 . S
H670 N664 0.984 . S
H671 N664 0.984 . S
H672 N660 0.984 . S
H673 N660 0.985 . S
C674 C675 1.363 . S
C674 C680 1.379 . S
C674 N682 1.356 . S
C675 C674 1.363 . S
C675 C681 1.363 . S
C676 C677 1.363 . S
C676 C681 1.379 . S
C676 N683 1.356 . S
C677 C676 1.363 . S
C677 C680 1.363 . S
N678 C680 1.356 . S
N678 H690 0.984 . S
N678 H691 0.985 . S
N679 C681 1.356 . S
N679 H684 0.984 . S
N679 H685 0.985 . S
C680 C674 1.379 . S
C680 C677 1.363 . S
C680 N678 1.356 . S
C681 C675 1.363 . S
C681 C676 1.379 . S
C681 N679 1.356 . S
N682 C674 1.356 . S
N682 H688 0.984 . S
N682 H689 0.984 . S
N683 C676 1.356 . S
N683 H686 0.984 . S
N683 H687 0.985 . S
H684 N679 0.984 . S
H685 N679 0.985 . S
H686 N683 0.984 . S
H687 N683 0.985 . S
H688 N682 0.984 . S
H689 N682 0.984 . S
H690 N678 0.984 . S
H691 N678 0.985 . S
C692 C693 1.363 . S
C692 C698 1.379 . S
C692 N700 1.356 . S
C693 C692 1.363 . S
C693 C699 1.363 . S
C694 C695 1.363 . S
C694 C699 1.379 . S
C694 N701 1.356 . S
C695 C694 1.363 . S
C695 C698 1.363 . S
N696 C698 1.356 . S
N696 H708 0.984 . S
N696 H709 0.985 . S
N697 C699 1.356 . S
N697 H702 0.984 . S
N697 H703 0.985 . S
C698 C692 1.379 . S
C698 C695 1.363 . S
C698 N696 1.356 . S
C699 C693 1.363 . S
C699 C694 1.379 . S
C699 N697 1.356 . S
N700 C692 1.356 . S
N700 H706 0.984 . S
N700 H707 0.984 . S
N701 C694 1.356 . S
N701 H704 0.984 . S
N701 H705 0.985 . S
H702 N697 0.984 . S
H703 N697 0.985 . S
H704 N701 0.984 . S
H705 N701 0.985 . S
H706 N700 0.984 . S
H707 N700 0.984 . S
H708 N696 0.984 . S
H709 N696 0.985 . S
C710 C711 1.363 . S
C710 C716 1.379 . S
C710 N718 1.356 . S
C711 C710 1.363 . S
C711 C717 1.363 . S
C712 C713 1.363 . S
C712 C717 1.379 . S
C712 N719 1.356 . S
C713 C712 1.363 . S
C713 C716 1.363 . S
N714 C716 1.356 . S
N714 H726 0.984 . S
N714 H727 0.985 . S
N715 C717 1.356 . S
N715 H720 0.984 . S
N715 H721 0.985 . S
C716 C710 1.379 . S
C716 C713 1.363 . S
C716 N714 1.356 . S
C717 C711 1.363 . S
C717 C712 1.379 . S
C717 N715 1.356 . S
N718 C710 1.356 . S
N718 H724 0.984 . S
N718 H725 0.984 . S
N719 C712 1.356 . S
N719 H722 0.984 . S
N719 H723 0.985 . S
H720 N715 0.984 . S
H721 N715 0.985 . S
H722 N719 0.984 . S
H723 N719 0.985 . S
H724 N718 0.984 . S
H725 N718 0.984 . S
H726 N714 0.984 . S
H727 N714 0.985 . S
C728 C729 1.363 . S
C728 C734 1.379 . S
C728 N736 1.356 . S
C729 C728 1.363 . S
C729 C735 1.363 . S
C730 C731 1.363 . S
C730 C735 1.379 . S
C730 N737 1.356 . S
C731 C730 1.363 . S
C731 C734 1.363 . S
N732 C734 1.356 . S
N732 H744 0.984 . S
N732 H745 0.985 . S
N733 C735 1.356 . S
N733 H738 0.984 . S
N733 H739 0.985 . S
C734 C728 1.379 . S
C734 C731 1.363 . S
C734 N732 1.356 . S
C735 C729 1.363 . S
C735 C730 1.379 . S
C735 N733 1.356 . S
N736 C728 1.356 . S
N736 H742 0.984 . S
N736 H743 0.984 . S
N737 C730 1.356 . S
N737 H740 0.984 . S
N737 H741 0.985 . S
H738 N733 0.984 . S
H739 N733 0.985 . S
H740 N737 0.984 . S
H741 N737 0.985 . S
H742 N736 0.984 . S
H743 N736 0.984 . S
H744 N732 0.984 . S
H745 N732 0.985 . S
C746 C747 1.363 . S
C746 C752 1.379 . S
C746 N754 1.356 . S
C747 C746 1.363 . S
C747 C753 1.363 . S
C748 C749 1.363 . S
C748 C753 1.379 . S
C748 N755 1.356 . S
C749 C748 1.363 . S
C749 C752 1.363 . S
N750 C752 1.356 . S
N750 H762 0.984 . S
N750 H763 0.985 . S
N751 C753 1.356 . S
N751 H756 0.984 . S
N751 H757 0.985 . S
C752 C746 1.379 . S
C752 C749 1.363 . S
C752 N750 1.356 . S
C753 C747 1.363 . S
C753 C748 1.379 . S
C753 N751 1.356 . S
N754 C746 1.356 . S
N754 H760 0.984 . S
N754 H761 0.984 . S
N755 C748 1.356 . S
N755 H758 0.984 . S
N755 H759 0.985 . S
H756 N751 0.984 . S
H757 N751 0.985 . S
H758 N755 0.984 . S
H759 N755 0.985 . S
H760 N754 0.984 . S
H761 N754 0.984 . S
H762 N750 0.984 . S
H763 N750 0.985 . S
C764 C765 1.363 . S
C764 C770 1.379 . S
C764 N772 1.356 . S
C765 C764 1.363 . S
C765 C771 1.363 . S
C766 C767 1.363 . S
C766 C771 1.379 . S
C766 N773 1.356 . S
C767 C766 1.363 . S
C767 C770 1.363 . S
N768 C770 1.356 . S
N768 H780 0.984 . S
N768 H781 0.985 . S
N769 C771 1.356 . S
N769 H774 0.984 . S
N769 H775 0.985 . S
C770 C764 1.379 . S
C770 C767 1.363 . S
C770 N768 1.356 . S
C771 C765 1.363 . S
C771 C766 1.379 . S
C771 N769 1.356 . S
N772 C764 1.356 . S
N772 H778 0.984 . S
N772 H779 0.984 . S
N773 C766 1.356 . S
N773 H776 0.984 . S
N773 H777 0.985 . S
H774 N769 0.984 . S
H775 N769 0.985 . S
H776 N773 0.984 . S
H777 N773 0.985 . S
H778 N772 0.984 . S
H779 N772 0.984 . S
H780 N768 0.984 . S
H781 N768 0.985 . S
C782 C783 1.363 . S
C782 C788 1.369 1_554 S
C782 N790 1.356 . S
C783 C782 1.363 . S
C783 C789 1.363 . S
C784 C785 1.363 1_554 S
C784 C789 1.379 . S
C784 N791 1.356 1_554 S
C785 C784 1.363 1_556 S
C785 C788 1.368 . S
N786 C788 1.364 . S
N786 H798 0.984 . S
N786 H799 0.985 . S
N787 C789 1.356 . S
N787 H792 0.984 . S
N787 H793 0.985 . S
C788 C782 1.369 1_556 S
C788 C785 1.368 . S
C788 N786 1.364 . S
C789 C783 1.363 . S
C789 C784 1.379 . S
C789 N787 1.356 . S
N790 C782 1.356 . S
N790 H796 0.984 . S
N790 H797 0.984 . S
N791 C784 1.356 1_556 S
N791 H794 0.984 . S
N791 H795 0.985 . S
H792 N787 0.984 . S
H793 N787 0.985 . S
H794 N791 0.984 . S
H795 N791 0.985 . S
H796 N790 0.984 . S
H797 N790 0.984 . S
H798 N786 0.984 . S
H799 N786 0.985 . S
C225 C92 1.581 . S
C227 C8 1.581 . S
C243 C106 1.581 . S
C245 C22 1.581 . S
C261 C36 1.581 . S
C263 C64 1.581 . S
C279 C50 1.581 . S
C281 C78 1.581 . S
C297 C120 1.581 . S
C299 C204 1.581 . S
C315 C218 1.581 . S
C317 C134 1.581 . S
C333 C148 1.581 . S
C335 C176 1.581 . S
C351 C162 1.581 . S
C353 C190 1.581 . S
C369 C9 1.438 . S
C371 C149 1.438 . S
C387 C23 1.438 . S
C389 C163 1.438 . S
C405 C37 1.438 . S
C407 C121 1.438 . S
C423 C51 1.438 . S
C425 C135 1.438 . S
C441 C65 1.438 . S
C443 C205 1.438 . S
C459 C219 1.438 . S
C461 C79 1.438 . S
C477 C93 1.438 . S
C479 C177 1.438 . S
C495 C191 1.438 . S
C497 C107 1.438 . S
C513 C189 0.847 . S
C515 C7 0.847 . S
C531 C21 0.847 . S
C533 C203 0.847 . S
C549 C217 0.847 . S
C551 C35 0.847 . S
C567 C175 0.847 . S
C569 C49 0.847 . S
C585 C161 0.847 . S
C587 C63 0.847 . S
C603 C77 0.847 . S
C605 C119 0.847 . S
C621 C91 0.847 . S
C623 C133 0.847 . S
C639 C105 0.847 . S
C641 C147 0.847 . S
C657 C185 1.514 . S
C659 C3 1.514 . S
C675 C17 1.514 . S
C677 C199 1.514 . S
C693 C31 1.514 . S
C695 C213 1.514 . S
C711 C171 1.514 . S
C713 C45 1.514 . S
C729 C157 1.514 . S
C731 C59 1.514 . S
C747 C115 1.514 . S
C749 C73 1.514 . S
C765 C87 1.514 . S
C767 C129 1.514 . S
C783 C143 1.514 . S
C785 C101 1.514 . S
