# Generated by pormake.
# Topology wjd, (6)-cn, num edge types: 1
# Building blocks:
#     Node 0, Type 0, BuildingBlock: JUFBIX_clean_sbu_0, # of connection points: 6
#     Node 1, Type 0, BuildingBlock: JUFBIX_clean_sbu_0, # of connection points: 6
#     Node 2, Type 0, BuildingBlock: JUFBIX_clean_sbu_0, # of connection points: 6
#     Node 3, Type 0, BuildingBlock: JUFBIX_clean_sbu_0, # of connection points: 6
#     Node 4, Type 0, BuildingBlock: JUFBIX_clean_sbu_0, # of connection points: 6
#     Node 5, Type 0, BuildingBlock: JUFBIX_clean_sbu_0, # of connection points: 6
#     Node 6, Type 0, BuildingBlock: JUFBIX_clean_sbu_0, # of connection points: 6
#     Node 7, Type 0, BuildingBlock: JUFBIX_clean_sbu_0, # of connection points: 6
#     Node 8, Type 0, BuildingBlock: JUFBIX_clean_sbu_0, # of connection points: 6
#     Node 9, Type 0, BuildingBlock: JUFBIX_clean_sbu_0, # of connection points: 6
#     Node 10, Type 0, BuildingBlock: JUFBIX_clean_sbu_0, # of connection points: 6
#     Node 11, Type 0, BuildingBlock: JUFBIX_clean_sbu_0, # of connection points: 6
#     Edge 12, Type (0, 0), BuildingBlock: ZUJKAS_clean_linker_0, # of connection points: 2
#     Edge 13, Type (0, 0), BuildingBlock: ZUJKAS_clean_linker_0, # of connection points: 2
#     Edge 14, Type (0, 0), BuildingBlock: ZUJKAS_clean_linker_0, # of connection points: 2
#     Edge 15, Type (0, 0), BuildingBlock: ZUJKAS_clean_linker_0, # of connection points: 2
#     Edge 16, Type (0, 0), BuildingBlock: ZUJKAS_clean_linker_0, # of connection points: 2
#     Edge 17, Type (0, 0), BuildingBlock: ZUJKAS_clean_linker_0, # of connection points: 2
#     Edge 18, Type (0, 0), BuildingBlock: ZUJKAS_clean_linker_0, # of connection points: 2
#     Edge 19, Type (0, 0), BuildingBlock: ZUJKAS_clean_linker_0, # of connection points: 2
#     Edge 20, Type (0, 0), BuildingBlock: ZUJKAS_clean_linker_0, # of connection points: 2
#     Edge 21, Type (0, 0), BuildingBlock: ZUJKAS_clean_linker_0, # of connection points: 2
#     Edge 22, Type (0, 0), BuildingBlock: ZUJKAS_clean_linker_0, # of connection points: 2
#     Edge 23, Type (0, 0), BuildingBlock: ZUJKAS_clean_linker_0, # of connection points: 2
#     Edge 24, Type (0, 0), BuildingBlock: ZUJKAS_clean_linker_0, # of connection points: 2
#     Edge 25, Type (0, 0), BuildingBlock: ZUJKAS_clean_linker_0, # of connection points: 2
#     Edge 26, Type (0, 0), BuildingBlock: ZUJKAS_clean_linker_0, # of connection points: 2
#     Edge 27, Type (0, 0), BuildingBlock: ZUJKAS_clean_linker_0, # of connection points: 2
#     Edge 28, Type (0, 0), BuildingBlock: ZUJKAS_clean_linker_0, # of connection points: 2
#     Edge 29, Type (0, 0), BuildingBlock: ZUJKAS_clean_linker_0, # of connection points: 2
#     Edge 30, Type (0, 0), BuildingBlock: ZUJKAS_clean_linker_0, # of connection points: 2
#     Edge 31, Type (0, 0), BuildingBlock: ZUJKAS_clean_linker_0, # of connection points: 2
#     Edge 32, Type (0, 0), BuildingBlock: ZUJKAS_clean_linker_0, # of connection points: 2
#     Edge 33, Type (0, 0), BuildingBlock: ZUJKAS_clean_linker_0, # of connection points: 2
#     Edge 34, Type (0, 0), BuildingBlock: ZUJKAS_clean_linker_0, # of connection points: 2
#     Edge 35, Type (0, 0), BuildingBlock: ZUJKAS_clean_linker_0, # of connection points: 2
#     Edge 36, Type (0, 0), BuildingBlock: ZUJKAS_clean_linker_0, # of connection points: 2
#     Edge 37, Type (0, 0), BuildingBlock: ZUJKAS_clean_linker_0, # of connection points: 2
#     Edge 38, Type (0, 0), BuildingBlock: ZUJKAS_clean_linker_0, # of connection points: 2
#     Edge 39, Type (0, 0), BuildingBlock: ZUJKAS_clean_linker_0, # of connection points: 2
#     Edge 40, Type (0, 0), BuildingBlock: ZUJKAS_clean_linker_0, # of connection points: 2
#     Edge 41, Type (0, 0), BuildingBlock: ZUJKAS_clean_linker_0, # of connection points: 2
#     Edge 42, Type (0, 0), BuildingBlock: ZUJKAS_clean_linker_0, # of connection points: 2
#     Edge 43, Type (0, 0), BuildingBlock: ZUJKAS_clean_linker_0, # of connection points: 2
#     Edge 44, Type (0, 0), BuildingBlock: ZUJKAS_clean_linker_0, # of connection points: 2
#     Edge 45, Type (0, 0), BuildingBlock: ZUJKAS_clean_linker_0, # of connection points: 2
#     Edge 46, Type (0, 0), BuildingBlock: ZUJKAS_clean_linker_0, # of connection points: 2
#     Edge 47, Type (0, 0), BuildingBlock: ZUJKAS_clean_linker_0, # of connection points: 2
# Relax obj value: 0.292
# Max RMSD: 0.234
# Mean RMSD: 0.234
data_MOF--net-wjd--node1-JUFBIX_clean_sbu_0--edge1-ZUJKAS_clean_linker_0
_symmetry_space_group_name_H-M    P1
_symmetry_Int_Tables_number       1
_symmetry_cell_setting            triclinic
loop_
_symmetry_equiv_pos_as_xyz
'x, y, z'
_cell_length_a     41.575894
_cell_length_b     41.584705
_cell_length_c     73.417542
_cell_angle_alpha  89.930166
_cell_angle_beta   89.982726
_cell_angle_gamma 120.02634
loop_
_atom_site_label
_atom_site_type_symbol
_atom_site_fract_x
_atom_site_fract_y
_atom_site_fract_z
_atom_type_partial_charge
Co0 Co 0.32473 0.14284 0.1335 0.0
C1 C 0.35587 0.14868 0.16816 0.0
Co2 Co 0.35511 0.11259 0.13662 0.0
C3 C 0.26544 0.15997 0.12887 0.0
C4 C 0.31813 0.20751 0.13504 0.0
N5 N 0.30145 0.17067 0.13184 0.0
N6 N 0.25916 0.18879 0.13009 0.0
C7 C 0.29233 0.21871 0.13391 0.0
H8 H 0.24417 0.13151 0.1263 0.0
H9 H 0.34701 0.225 0.1387 0.0
C10 C 0.32286 0.10508 0.10224 0.0
N11 N 0.38018 0.08659 0.13849 0.0
C12 C 0.41588 0.10122 0.14361 0.0
C13 C 0.37 0.05214 0.13255 0.0
N14 N 0.429 0.07791 0.14063 0.0
C15 C 0.40008 0.04677 0.13377 0.0
C16 C 0.28017 0.07132 0.14525 0.0
O17 O 0.31022 0.12466 0.10913 0.0
O18 O 0.34442 0.09834 0.11173 0.0
O19 O 0.30965 0.06948 0.14339 0.0
O20 O 0.28117 0.10187 0.1423 0.0
O21 O 0.3653 0.12647 0.16147 0.0
H22 H 0.34325 0.03313 0.12665 0.0
H23 H 0.43286 0.1297 0.14805 0.0
O24 O 0.33894 0.1603 0.15805 0.0
O25 O 0.3682 0.18355 0.12449 0.0
O26 O 0.40051 0.15634 0.12979 0.0
C27 C 0.39909 0.18462 0.12449 0.0
H28 H 0.29729 0.24639 0.13666 0.0
H29 H 0.40109 0.02263 0.12907 0.0
Co30 Co 0.76394 0.68229 0.38051 0.0
C31 C 0.78459 0.65035 0.35332 0.0
Co32 Co 0.78775 0.64936 0.39145 0.0
C33 C 0.75751 0.74654 0.37708 0.0
C34 C 0.72344 0.70643 0.35715 0.0
N35 N 0.74575 0.71156 0.3715 0.0
N36 N 0.74409 0.76387 0.36672 0.0
C37 C 0.72256 0.73878 0.35409 0.0
H38 H 0.77761 0.75991 0.38788 0.0
H39 H 0.71019 0.68153 0.34894 0.0
C40 C 0.76629 0.68289 0.41825 0.0
N41 N 0.80791 0.62176 0.40076 0.0
C42 C 0.81006 0.59338 0.39308 0.0
C43 C 0.82694 0.62864 0.41651 0.0
N44 N 0.82969 0.58237 0.40345 0.0
C45 C 0.84017 0.60444 0.41823 0.0
C46 C 0.84092 0.72177 0.38517 0.0
O47 O 0.75804 0.69518 0.40431 0.0
O48 O 0.77945 0.66129 0.41604 0.0
O49 O 0.83516 0.69095 0.39137 0.0
O50 O 0.81355 0.72453 0.37945 0.0
O51 O 0.79548 0.63822 0.36654 0.0
H52 H 0.83208 0.65074 0.42589 0.0
H53 H 0.79788 0.58132 0.38005 0.0
O54 O 0.76963 0.66975 0.3568 0.0
O55 O 0.7148 0.63931 0.38153 0.0
O56 O 0.74034 0.60744 0.39156 0.0
C57 C 0.71153 0.60856 0.38684 0.0
H58 H 0.70816 0.74378 0.34315 0.0
H59 H 0.85744 0.60414 0.42919 0.0
Co60 Co 0.85693 0.18116 0.12988 0.0
C61 C 0.85059 0.20486 0.16486 0.0
Co62 Co 0.88601 0.24156 0.13341 0.0
C63 C 0.84235 0.10579 0.12479 0.0
C64 C 0.79377 0.10886 0.13129 0.0
N65 N 0.83053 0.1301 0.12804 0.0
N66 N 0.81429 0.07027 0.12586 0.0
C67 C 0.78372 0.0722 0.12989 0.0
H68 H 0.87105 0.11397 0.12212 0.0
H69 H 0.77556 0.11928 0.13516 0.0
C70 C 0.89394 0.21833 0.0987 0.0
N71 N 0.91015 0.29254 0.13541 0.0
C72 C 0.89384 0.31119 0.1418 0.0
C73 C 0.94125 0.31829 0.12701 0.0
N74 N 0.91202 0.3473 0.13683 0.0
C75 C 0.94244 0.35198 0.12781 0.0
C76 C 0.92907 0.21 0.14139 0.0
O77 O 0.8752 0.18584 0.10545 0.0
O78 O 0.89983 0.24609 0.10838 0.0
O79 O 0.93018 0.24102 0.13969 0.0
O80 O 0.89882 0.18007 0.13847 0.0
O81 O 0.87253 0.23684 0.15838 0.0
H82 H 0.95974 0.31229 0.11925 0.0
H83 H 0.86721 0.29737 0.14857 0.0
O84 O 0.83929 0.17675 0.1545 0.0
O85 O 0.81528 0.18244 0.12112 0.0
O86 O 0.84117 0.24154 0.12709 0.0
C87 C 0.81326 0.21171 0.12166 0.0
H88 H 0.75638 0.04878 0.13261 0.0
H89 H 0.96229 0.37688 0.12069 0.0
Co90 Co 0.31232 0.07798 0.38744 0.0
C91 C 0.34428 0.13129 0.36051 0.0
Co92 Co 0.34525 0.13454 0.39869 0.0
C93 C 0.24643 0.00966 0.38238 0.0
C94 C 0.2882 0.0131 0.3642 0.0
N95 N 0.2826 0.03092 0.3781 0.0
N96 N 0.2287 0.98 0.37139 0.0
C97 C 0.25491 0.98154 0.36005 0.0
H98 H 0.23281 0.01687 0.39285 0.0
H99 H 0.31407 0.02359 0.35681 0.0
C100 C 0.31165 0.07864 0.42522 0.0
N101 N 0.37314 0.18219 0.40822 0.0
C102 C 0.39986 0.21349 0.40016 0.0
C103 C 0.36631 0.19377 0.42418 0.0
N104 N 0.40944 0.24403 0.41034 0.0
C105 C 0.38854 0.23159 0.42552 0.0
C106 C 0.27327 0.11602 0.39253 0.0
O107 O 0.29975 0.0583 0.41118 0.0
O108 O 0.33259 0.11357 0.42314 0.0
O109 O 0.30411 0.14106 0.39866 0.0
O110 O 0.27043 0.08586 0.3869 0.0
O111 O 0.35689 0.15394 0.37384 0.0
H112 H 0.34518 0.17618 0.43387 0.0
H113 H 0.41062 0.2142 0.38665 0.0
O114 O 0.32449 0.09688 0.36383 0.0
O115 O 0.3549 0.07158 0.38783 0.0
O116 O 0.38686 0.12837 0.3987 0.0
C117 C 0.38562 0.09868 0.39338 0.0
H118 H 0.24989 0.96274 0.34883 0.0
H119 H 0.38864 0.2487 0.43665 0.0
Co120 Co 0.81941 0.67621 0.12594 0.0
C121 C 0.79468 0.64405 0.16041 0.0
Co122 Co 0.75869 0.6455 0.12907 0.0
C123 C 0.89555 0.73697 0.12262 0.0
C124 C 0.89147 0.68399 0.12622 0.0
N125 N 0.87069 0.70038 0.12413 0.0
N126 N 0.93091 0.74393 0.12374 0.0
C127 C 0.92832 0.71056 0.1259 0.0
H128 H 0.88784 0.75816 0.12131 0.0
H129 H 0.88062 0.65473 0.12876 0.0
C130 C 0.7829 0.67895 0.09494 0.0
N131 N 0.70769 0.61969 0.1312 0.0
C132 C 0.68762 0.58427 0.13692 0.0
C133 C 0.68248 0.6286 0.12521 0.0
N134 N 0.65092 0.57007 0.13432 0.0
C135 C 0.64744 0.59798 0.12702 0.0
C136 C 0.79165 0.71968 0.13844 0.0
O137 O 0.81521 0.69112 0.10167 0.0
O138 O 0.75464 0.65726 0.10445 0.0
O139 O 0.76044 0.6901 0.13656 0.0
O140 O 0.82132 0.71917 0.13507 0.0
O141 O 0.76294 0.63431 0.15372 0.0
H142 H 0.68927 0.65481 0.11895 0.0
H143 H 0.70004 0.56823 0.14156 0.0
O144 O 0.82324 0.6617 0.15036 0.0
O145 O 0.81711 0.63317 0.11669 0.0
O146 O 0.7574 0.60087 0.12149 0.0
C147 C 0.78719 0.60233 0.11634 0.0
H148 H 0.95132 0.70582 0.12824 0.0
H149 H 0.62171 0.59591 0.12249 0.0
Co150 Co 0.9173 0.22841 0.38405 0.0
C151 C 0.86419 0.20613 0.35709 0.0
Co152 Co 0.86072 0.20419 0.39527 0.0
C153 C 0.98607 0.23187 0.3795 0.0
C154 C 0.98259 0.26966 0.36094 0.0
N155 N 0.9645 0.24618 0.37483 0.0
N156 N 0.01622 0.24426 0.3688 0.0
C157 C 0.01468 0.2686 0.35721 0.0
H158 H 0.97883 0.21123 0.39009 0.0
H159 H 0.97206 0.28475 0.35335 0.0
C160 C 0.9163 0.2275 0.42183 0.0
N161 N 0.8132 0.18445 0.40475 0.0
C162 C 0.78259 0.18198 0.39699 0.0
C163 C 0.80117 0.16593 0.42067 0.0
N164 N 0.75203 0.1626 0.40743 0.0
C165 C 0.76371 0.15265 0.42238 0.0
C166 C 0.87991 0.15115 0.38948 0.0
O167 O 0.93679 0.23601 0.40783 0.0
O168 O 0.88135 0.21297 0.41972 0.0
O169 O 0.85463 0.15668 0.39554 0.0
O170 O 0.90992 0.17865 0.38373 0.0
O171 O 0.84142 0.19589 0.37041 0.0
H172 H 0.8182 0.1611 0.43016 0.0
H173 H 0.78261 0.19371 0.38382 0.0
O174 O 0.89862 0.22126 0.36042 0.0
O175 O 0.92322 0.27731 0.38419 0.0
O176 O 0.86636 0.25177 0.39503 0.0
C177 C 0.89582 0.28048 0.38968 0.0
H178 H 0.03395 0.28266 0.34616 0.0
H179 H 0.74618 0.13565 0.43343 0.0
Co180 Co 0.09908 0.3518 0.6298 0.0
C181 C 0.10228 0.32306 0.59566 0.0
Co182 Co 0.12814 0.31988 0.62967 0.0
C183 C 0.08746 0.41322 0.63397 0.0
C184 C 0.04422 0.37039 0.61801 0.0
N185 N 0.0738 0.37781 0.62847 0.0
N186 N 0.06873 0.42882 0.62676 0.0
C187 C 0.04126 0.40191 0.61679 0.0
H188 H 0.11322 0.42862 0.64144 0.0
H189 H 0.02816 0.34503 0.61036 0.0
C190 C 0.12251 0.34743 0.66403 0.0
N191 N 0.15632 0.29683 0.63104 0.0
C192 C 0.15147 0.26446 0.62432 0.0
C193 C 0.1899 0.31287 0.63921 0.0
N194 N 0.18116 0.26035 0.62779 0.0
C195 C 0.20522 0.29069 0.63718 0.0
C196 C 0.17409 0.39532 0.62331 0.0
O197 O 0.10376 0.35882 0.65532 0.0
O198 O 0.13679 0.33118 0.65532 0.0
O199 O 0.17168 0.36386 0.6236 0.0
O200 O 0.14529 0.39758 0.62637 0.0
O201 O 0.11812 0.30809 0.60422 0.0
H202 H 0.20268 0.33937 0.64614 0.0
H203 H 0.12711 0.24471 0.61683 0.0
O204 O 0.09399 0.34447 0.60421 0.0
O205 O 0.0534 0.30544 0.63317 0.0
O206 O 0.08486 0.27596 0.63539 0.0
C207 C 0.05399 0.27531 0.63557 0.0
H208 H 0.02224 0.40559 0.60815 0.0
H209 H 0.23177 0.2961 0.64248 0.0
Co210 Co 0.19782 0.89377 0.89649 0.0
C211 C 0.23377 0.89554 0.86356 0.0
Co212 Co 0.25703 0.90979 0.89907 0.0
C213 C 0.11599 0.85392 0.89814 0.0
C214 C 0.13973 0.89973 0.87952 0.0
N215 N 0.14895 0.88205 0.8921 0.0
N216 N 0.08685 0.8534 0.88961 0.0
C217 C 0.10188 0.88241 0.87802 0.0
H218 H 0.11346 0.83334 0.90796 0.0
H219 H 0.15935 0.92306 0.87138 0.0
C220 C 0.22184 0.90998 0.93187 0.0
N221 N 0.3059 0.92168 0.90303 0.0
C222 C 0.32352 0.90338 0.89767 0.0
C223 C 0.33025 0.94887 0.9141 0.0
N224 N 0.35761 0.91778 0.90521 0.0
C225 C 0.36193 0.94643 0.91552 0.0
C226 C 0.24744 0.9701 0.89383 0.0
O227 O 0.1932 0.90042 0.92202 0.0
O228 O 0.25109 0.91336 0.92453 0.0
O229 O 0.27243 0.96158 0.89665 0.0
O230 O 0.21376 0.94451 0.89287 0.0
O231 O 0.26257 0.90649 0.87341 0.0
H232 H 0.32474 0.96834 0.92125 0.0
H233 H 0.31089 0.87885 0.88916 0.0
O234 O 0.20327 0.88807 0.87111 0.0
O235 O 0.18239 0.84293 0.90015 0.0
O236 O 0.24101 0.85806 0.90157 0.0
C237 C 0.20679 0.8332 0.90169 0.0
H238 H 0.08659 0.89034 0.86889 0.0
H239 H 0.38604 0.96394 0.92376 0.0
Co240 Co 0.64016 0.73975 0.62778 0.0
C241 C 0.66841 0.76719 0.59312 0.0
Co242 Co 0.67198 0.80079 0.62617 0.0
C243 C 0.57918 0.66829 0.63523 0.0
C244 C 0.62087 0.66365 0.62032 0.0
N245 N 0.61387 0.68849 0.62853 0.0
N246 N 0.5635 0.63197 0.63109 0.0
C247 C 0.5898 0.62881 0.6218 0.0
H248 H 0.56453 0.6806 0.64169 0.0
H249 H 0.64588 0.67074 0.61274 0.0
C250 C 0.64474 0.77183 0.66109 0.0
N251 N 0.69587 0.85232 0.62587 0.0
C252 C 0.73066 0.87865 0.62106 0.0
C253 C 0.67945 0.87148 0.63161 0.0
N254 N 0.73602 0.91328 0.62335 0.0
C255 C 0.70383 0.90871 0.62997 0.0
C256 C 0.59664 0.77049 0.61958 0.0
O257 O 0.63316 0.74102 0.65304 0.0
O258 O 0.66147 0.80168 0.65181 0.0
O259 O 0.62796 0.79977 0.61965 0.0
O260 O 0.5946 0.7398 0.62335 0.0
O261 O 0.68283 0.799 0.60074 0.0
H262 H 0.65159 0.85918 0.63706 0.0
H263 H 0.7516 0.8726 0.61613 0.0
O264 O 0.64756 0.73837 0.60246 0.0
O265 O 0.68609 0.74058 0.63212 0.0
O266 O 0.71582 0.80167 0.63231 0.0
C267 C 0.7163 0.77149 0.63373 0.0
H268 H 0.58622 0.60358 0.61566 0.0
H269 H 0.69876 0.93082 0.63403 0.0
Co270 Co 0.11095 0.30917 0.89445 0.0
C271 C 0.10775 0.33939 0.86038 0.0
Co272 Co 0.09292 0.35105 0.89533 0.0
C273 C 0.15178 0.26823 0.89768 0.0
C274 C 0.10501 0.24358 0.8797 0.0
N275 N 0.1233 0.27215 0.89135 0.0
N276 N 0.15187 0.23849 0.89021 0.0
C277 C 0.12223 0.22291 0.87905 0.0
H278 H 0.17275 0.28753 0.90697 0.0
H279 H 0.08114 0.2386 0.87167 0.0
C280 C 0.09399 0.31953 0.92924 0.0
N281 N 0.07992 0.38761 0.89788 0.0
C282 C 0.09976 0.42397 0.89333 0.0
C283 C 0.0493 0.38377 0.90623 0.0
N284 N 0.08279 0.44298 0.89858 0.0
C285 C 0.05091 0.41761 0.90663 0.0
C286 C 0.03398 0.27994 0.89212 0.0
O287 O 0.10588 0.30136 0.92024 0.0
O288 O 0.08839 0.34323 0.92098 0.0
O289 O 0.04136 0.31351 0.89272 0.0
O290 O 0.06047 0.27316 0.89223 0.0
O291 O 0.09709 0.35822 0.86961 0.0
H292 H 0.02772 0.35824 0.91221 0.0
H293 H 0.12641 0.43635 0.88652 0.0
O294 O 0.11507 0.31691 0.86864 0.0
O295 O 0.16154 0.34568 0.89697 0.0
O296 O 0.14451 0.38778 0.89797 0.0
C297 C 0.17019 0.37956 0.89816 0.0
H298 H 0.11365 0.19834 0.87083 0.0
H299 H 0.03087 0.42332 0.91305 0.0
Co300 Co 0.25259 0.8956 0.63226 0.0
C301 C 0.21908 0.89171 0.59879 0.0
Co302 Co 0.19192 0.87101 0.63394 0.0
C303 C 0.3236 0.90202 0.63578 0.0
C304 C 0.32767 0.94849 0.62123 0.0
N305 N 0.3035 0.91751 0.63031 0.0
N306 N 0.35916 0.92136 0.63011 0.0
C307 C 0.36196 0.95087 0.62102 0.0
H308 H 0.31161 0.87549 0.64268 0.0
H309 H 0.32035 0.96696 0.61434 0.0
C310 C 0.22702 0.87773 0.66756 0.0
N311 N 0.14082 0.84675 0.63631 0.0
C312 C 0.11444 0.8516 0.62814 0.0
C313 C 0.12184 0.81601 0.64668 0.0
N314 N 0.07995 0.82455 0.63286 0.0
C315 C 0.08458 0.8023 0.64454 0.0
C316 C 0.21503 0.81939 0.62883 0.0
O317 O 0.25629 0.89197 0.65791 0.0
O318 O 0.19589 0.86615 0.65972 0.0
O319 O 0.18779 0.82472 0.63018 0.0
O320 O 0.2477 0.84716 0.62914 0.0
O321 O 0.18901 0.87749 0.60801 0.0
H322 H 0.13436 0.80381 0.65506 0.0
H323 H 0.12031 0.87375 0.6186 0.0
O324 O 0.24926 0.89977 0.6068 0.0
O325 O 0.2563 0.94348 0.63516 0.0
O326 O 0.19557 0.91673 0.6377 0.0
C327 C 0.22717 0.94602 0.6373 0.0
H328 H 0.38651 0.97178 0.61403 0.0
H329 H 0.06248 0.77792 0.65114 0.0
Co330 Co 0.69666 0.80668 0.88953 0.0
C331 C 0.66111 0.77158 0.85688 0.0
Co332 Co 0.65325 0.74762 0.89245 0.0
C333 C 0.74137 0.88811 0.89244 0.0
C334 C 0.75982 0.86439 0.87195 0.0
N335 N 0.73414 0.85525 0.88517 0.0
N336 N 0.77079 0.91722 0.88428 0.0
C337 C 0.78225 0.90214 0.87139 0.0
H338 H 0.72527 0.8906 0.90336 0.0
H339 H 0.76155 0.84482 0.86289 0.0
C340 C 0.68988 0.78206 0.92494 0.0
N341 N 0.61593 0.69874 0.89628 0.0
C342 C 0.57926 0.68269 0.89251 0.0
C343 C 0.61958 0.67231 0.90512 0.0
N344 N 0.55984 0.64743 0.89882 0.0
C345 C 0.5853 0.64084 0.90668 0.0
C346 C 0.72281 0.75674 0.88635 0.0
O347 O 0.70831 0.8108 0.91502 0.0
O348 O 0.66386 0.75268 0.91779 0.0
O349 O 0.68923 0.73182 0.88916 0.0
O350 O 0.73104 0.79045 0.88561 0.0
O351 O 0.64316 0.74285 0.86681 0.0
H352 H 0.64539 0.67602 0.91057 0.0
H353 H 0.56685 0.69714 0.88592 0.0
O354 O 0.68507 0.80176 0.86428 0.0
O355 O 0.66188 0.82268 0.89344 0.0
O356 O 0.61814 0.76427 0.89591 0.0
C357 C 0.62784 0.79856 0.89571 0.0
H358 H 0.80456 0.91736 0.86177 0.0
H359 H 0.5796 0.61523 0.91328 0.0
H360 H 0.00101 0.26664 0.13892 0.0
H361 H 0.05672 0.26072 0.13859 0.0
H362 H 0.98981 0.14379 0.15056 0.0
H363 H 0.934 0.14922 0.1506 0.0
H364 H 0.08912 0.23417 0.16385 0.0
H365 H 0.0392 0.14609 0.10181 0.0
H366 H 0.01815 0.17213 0.11007 0.0
H367 H 0.00763 0.12903 0.12075 0.0
C368 C 0.99827 0.23983 0.14181 0.0
C369 C 0.96316 0.20831 0.14456 0.0
C370 C 0.03005 0.23647 0.14157 0.0
C371 C 0.02708 0.20164 0.1441 0.0
C372 C 0.99243 0.1707 0.14813 0.0
H373 H 0.19167 0.13093 0.13946 0.0
H374 H 0.13378 0.13247 0.14261 0.0
C375 C 0.96066 0.17394 0.14826 0.0
C376 C 0.0599 0.1973 0.14162 0.0
H377 H 0.09497 0.15482 0.11497 0.0
C378 C 0.09045 0.21683 0.15319 0.0
C379 C 0.06142 0.17472 0.12761 0.0
C380 C 0.03002 0.15453 0.11423 0.0
C381 C 0.12254 0.21417 0.15119 0.0
C382 C 0.12405 0.19169 0.13718 0.0
C383 C 0.09343 0.17186 0.12573 0.0
C384 C 0.15786 0.18961 0.13385 0.0
C385 C 0.15461 0.23526 0.1641 0.0
C386 C 0.18986 0.2208 0.12724 0.0
C387 C 0.22272 0.21991 0.12526 0.0
C388 C 0.22411 0.18782 0.12989 0.0
C389 C 0.19143 0.15596 0.13568 0.0
C390 C 0.15846 0.15686 0.13761 0.0
H391 H 0.14622 0.24496 0.17635 0.0
H392 H 0.16635 0.2177 0.16853 0.0
H393 H 0.17691 0.25995 0.15699 0.0
H394 H 0.18956 0.24605 0.12395 0.0
H395 H 0.24723 0.24459 0.12041 0.0
H396 H 0.17652 -0.00087 0.37753 0.0
H397 H 0.10939 0.95802 0.37821 0.0
H398 H 0.1234 0.86553 0.36322 0.0
H399 H 0.19128 0.90695 0.36254 0.0
H400 H 0.06353 0.86982 0.3447 0.0
H401 H 0.05958 0.88167 0.41998 0.0
H402 H 0.08238 0.92516 0.40797 0.0
H403 H 0.10207 0.89532 0.40764 0.0
C404 C 0.1654 0.97 0.37449 0.0
C405 C 0.18911 0.95596 0.3704 0.0
C406 C 0.12704 0.94663 0.37478 0.0
C407 C 0.11161 0.90873 0.37111 0.0
C408 C 0.13497 0.89477 0.3662 0.0
H409 H 0.90199 0.72552 0.40052 0.0
H410 H 0.96657 0.77336 0.39638 0.0
C411 C 0.17357 0.91831 0.36581 0.0
C412 C 0.0712 0.88361 0.37321 0.0
H413 H 0.0018 0.84948 0.40488 0.0
C414 C 0.04992 0.86533 0.35782 0.0
C415 C 0.05376 0.87786 0.39039 0.0
C416 C 0.07558 0.89575 0.40749 0.0
C417 C 0.0114 0.84122 0.3592 0.0
C418 C 0.99395 0.83575 0.37637 0.0
C419 C 0.01528 0.8542 0.39171 0.0
C420 C 0.95433 0.80805 0.37912 0.0
C421 C 0.98983 0.82091 0.34244 0.0
C422 C 0.92595 0.81219 0.37108 0.0
C423 C 0.88868 0.78475 0.37346 0.0
C424 C 0.87951 0.75288 0.38387 0.0
C425 C 0.90808 0.74959 0.39231 0.0
C426 C 0.94505 0.77691 0.38999 0.0
H427 H 0.00837 0.82353 0.33094 0.0
H428 H 0.97122 0.79097 0.34548 0.0
H429 H 0.97222 0.83258 0.33804 0.0
H430 H 0.93266 0.83643 0.36288 0.0
H431 H 0.86723 0.78802 0.36682 0.0
H432 H 0.76031 0.00236 0.11545 0.0
H433 H 0.76032 0.94403 0.11899 0.0
H434 H 0.87344 0.00402 0.13824 0.0
H435 H 0.87316 0.06256 0.13536 0.0
H436 H 0.80486 0.91877 0.10435 0.0
H437 H 0.81805 0.93098 0.1798 0.0
H438 H 0.80719 0.96041 0.16614 0.0
H439 H 0.85406 0.96914 0.16724 0.0
C440 C 0.78519 0.00314 0.12043 0.0
C441 C 0.81651 0.03692 0.1254 0.0
C442 C 0.78522 0.96986 0.12235 0.0
C443 C 0.81658 0.96979 0.12926 0.0
C444 C 0.8487 0.00358 0.13326 0.0
H445 H 0.85324 0.78531 0.14701 0.0
H446 H 0.85913 0.84678 0.14659 0.0
C447 C 0.84866 0.03698 0.13139 0.0
C448 C 0.81486 0.93403 0.13267 0.0
H449 H 0.81604 0.87824 0.16652 0.0
C450 C 0.80738 0.90991 0.11792 0.0
C451 C 0.81798 0.92265 0.15044 0.0
C452 C 0.82445 0.94695 0.16687 0.0
C453 C 0.80288 0.87455 0.12047 0.0
C454 C 0.80565 0.8631 0.13824 0.0
C455 C 0.81375 0.88732 0.15296 0.0
C456 C 0.80079 0.82607 0.14155 0.0
C457 C 0.79535 0.84966 0.10418 0.0
C458 C 0.7657 0.79432 0.13964 0.0
C459 C 0.76213 0.75913 0.13995 0.0
C460 C 0.79373 0.75546 0.14205 0.0
C461 C 0.82843 0.78732 0.14523 0.0
C462 C 0.83189 0.82242 0.14502 0.0
H463 H 0.80027 0.86495 0.09112 0.0
H464 H 0.81317 0.83678 0.10457 0.0
H465 H 0.76594 0.82693 0.1045 0.0
H466 H 0.74141 0.79688 0.13708 0.0
H467 H 0.73507 0.73508 0.13746 0.0
H468 H 0.20792 0.07622 0.37366 0.0
H469 H 0.16077 0.09427 0.36819 0.0
H470 H 0.22271 0.19162 0.40152 0.0
H471 H 0.2694 0.17384 0.40719 0.0
H472 H 0.14574 0.15247 0.40839 0.0
H473 H 0.17922 0.18294 0.33474 0.0
H474 H 0.1684 0.1375 0.34241 0.0
H475 H 0.20968 0.17769 0.35047 0.0
C476 C 0.21117 0.10121 0.37998 0.0
C477 C 0.24246 0.12376 0.39074 0.0
C478 C 0.18446 0.11162 0.37671 0.0
C479 C 0.18876 0.1446 0.3842 0.0
C480 C 0.21911 0.16622 0.39553 0.0
H481 H 0.09009 0.28156 0.36164 0.0
H482 H 0.1326 0.25656 0.36411 0.0
C483 C 0.24574 0.15597 0.39874 0.0
C484 C 0.16207 0.15729 0.38025 0.0
H485 H 0.13123 0.19172 0.3465 0.0
C486 C 0.14237 0.16085 0.39486 0.0
C487 C 0.15839 0.16879 0.36261 0.0
C488 C 0.1802 0.16689 0.34663 0.0
C489 C 0.11891 0.17559 0.3923 0.0
C490 C 0.11475 0.18655 0.37463 0.0
C491 C 0.13452 0.18314 0.36 0.0
C492 C 0.08932 0.20097 0.3712 0.0
C493 C 0.09927 0.17997 0.4086 0.0
C494 C 0.05112 0.17763 0.37378 0.0
C495 C 0.02715 0.19176 0.37244 0.0
C496 C 0.04092 0.22951 0.36842 0.0
C497 C 0.07896 0.25246 0.36483 0.0
C498 C 0.10311 0.23825 0.36625 0.0
H499 H 0.11204 0.17845 0.42163 0.0
H500 H 0.0997 0.20687 0.40804 0.0
H501 H 0.06983 0.15733 0.40858 0.0
H502 H 0.03995 0.14862 0.37725 0.0
H503 H 0.99779 0.17318 0.37475 0.0
H504 H 0.26347 -0.00091 0.14239 0.0
H505 H 0.20128 0.9443 0.14132 0.0
H506 H 0.15307 0.01247 0.15394 0.0
H507 H 0.21497 0.06747 0.15466 0.0
H508 H 0.14084 0.91063 0.1654 0.0
H509 H 0.10834 0.96817 0.10422 0.0
H510 H 0.15478 0.98768 0.1132 0.0
H511 H 0.12185 0.99758 0.12394 0.0
C512 C 0.23968 0.00229 0.14531 0.0
C513 C 0.244 0.03758 0.14836 0.0
C514 C 0.20421 0.97102 0.14464 0.0
C515 C 0.1727 0.97464 0.14709 0.0
C516 C 0.17709 0.00936 0.15156 0.0
H517 H 0.93773 0.80849 0.13632 0.0
H518 H 0.99591 0.86636 0.14215 0.0
C519 C 0.21246 0.04066 0.15209 0.0
C520 C 0.13535 0.94258 0.14378 0.0
H521 H 0.06039 0.91085 0.11548 0.0
C522 C 0.12317 0.91069 0.15455 0.0
C523 C 0.11255 0.94283 0.12951 0.0
C524 C 0.12507 0.97574 0.11693 0.0
C525 C 0.08866 0.87889 0.1514 0.0
C526 C 0.06611 0.8791 0.13706 0.0
C527 C 0.07789 0.91111 0.1265 0.0
C528 C 0.03102 0.84551 0.13228 0.0
C529 C 0.07654 0.84515 0.1633 0.0
C530 C 0.03183 0.81545 0.12422 0.0
C531 C -0.00119 0.78266 0.12067 0.0
C532 C 0.96442 0.77934 0.1252 0.0
C533 C 0.9637 0.81022 0.13255 0.0
C534 C 0.99686 0.84316 0.13602 0.0
H535 H 0.09363 0.85178 0.17585 0.0
H536 H 0.0469 0.833 0.16724 0.0
H537 H 0.07935 0.82375 0.15558 0.0
H538 H 0.05807 0.81717 0.12097 0.0
H539 H 0.00023 0.75964 0.11467 0.0
H540 H 0.76166 0.80553 0.39712 0.0
H541 H 0.78791 0.87275 0.39884 0.0
H542 H 0.77945 0.87772 0.34047 0.0
H543 H 0.75306 0.81022 0.33868 0.0
H544 H 0.85371 0.92679 0.38208 0.0
H545 H 0.73088 0.93621 0.35958 0.0
H546 H 0.72736 0.89303 0.36675 0.0
H547 H 0.74522 0.91161 0.34456 0.0
C548 C 0.76518 0.82092 0.38467 0.0
C549 C 0.75536 0.80266 0.36777 0.0
C550 C 0.78019 0.85928 0.38566 0.0
C551 C 0.78558 0.88016 0.3698 0.0
C552 C 0.77505 0.862 0.3529 0.0
H553 H 0.91744 0.12504 0.36906 0.0
H554 H 0.8981 0.05963 0.36326 0.0
C555 C 0.75985 0.82347 0.3519 0.0
C556 C 0.80304 0.92102 0.3711 0.0
H557 H 0.78578 0.99246 0.36573 0.0
C558 C 0.83902 0.94128 0.3784 0.0
C559 C 0.78367 0.93966 0.36633 0.0
C560 C 0.74454 0.9191 0.359 0.0
C561 C 0.85586 0.97967 0.38145 0.0
C562 C 0.8363 0.99819 0.37687 0.0
C563 C 0.80071 0.97809 0.36915 0.0
C564 C 0.85062 0.03773 0.38136 0.0
C565 C 0.89373 -0.00016 0.3902 0.0
C566 C 0.83064 0.04694 0.39359 0.0
C567 C 0.84142 0.08395 0.39684 0.0
C568 C 0.87246 0.11262 0.38789 0.0
C569 C 0.89352 0.10351 0.37621 0.0
C570 C 0.88252 0.06622 0.37289 0.0
H571 H 0.90221 0.98036 0.3958 0.0
H572 H 0.91459 0.0177 0.37988 0.0
H573 H 0.89418 0.01806 0.40136 0.0
H574 H 0.80608 0.02535 0.40033 0.0
H575 H 0.82473 0.09003 0.406 0.0
H576 H 0.17176 0.95912 0.64677 0.0
H577 H 0.16962 0.016 0.64222 0.0
H578 H 0.28294 0.07178 0.62318 0.0
H579 H 0.28544 0.0144 0.6276 0.0
H580 H 0.25836 0.11145 0.65022 0.0
H581 H 0.16995 0.05522 0.5886 0.0
H582 H 0.15553 0.02466 0.608 0.0
H583 H 0.19889 0.03741 0.597 0.0
C584 C 0.19647 0.98354 0.64181 0.0
C585 C 0.22872 0.98222 0.63739 0.0
C586 C 0.19508 0.01593 0.63915 0.0
C587 C 0.22583 0.04761 0.63203 0.0
C588 C 0.25884 0.04728 0.62853 0.0
H589 H 0.24484 0.26442 0.617 0.0
H590 H 0.25745 0.213 0.61539 0.0
C591 C 0.26029 0.01466 0.63117 0.0
C592 C 0.22259 0.08059 0.62799 0.0
H593 H 0.17439 0.10971 0.60165 0.0
C594 C 0.24055 0.11149 0.63944 0.0
C595 C 0.19904 0.08009 0.61398 0.0
C596 C 0.17991 0.04771 0.60106 0.0
C597 C 0.23428 0.1415 0.63773 0.0
C598 C 0.21005 0.1407 0.62395 0.0
C599 C 0.1929 0.11016 0.61218 0.0
C600 C 0.20121 0.1708 0.62207 0.0
C601 C 0.25233 0.173 0.65122 0.0
C602 C 0.16487 0.16367 0.6252 0.0
C603 C 0.15753 0.19301 0.6259 0.0
C604 C 0.18651 0.22969 0.62356 0.0
C605 C 0.22223 0.23635 0.61915 0.0
C606 C 0.22947 0.20711 0.61829 0.0
H607 H 0.26293 0.16529 0.66338 0.0
H608 H 0.2762 0.19716 0.6446 0.0
H609 H 0.23245 0.18179 0.65582 0.0
H610 H 0.14264 0.13569 0.628 0.0
H611 H 0.12984 0.18731 0.62936 0.0
H612 H 0.04938 0.8167 0.92017 0.0
H613 H 0.9815 0.77798 0.92343 0.0
H614 H 0.9686 0.79324 0.8663 0.0
H615 H 0.03556 0.83039 0.86296 0.0
H616 H 0.93369 0.80206 0.91843 0.0
H617 H 0.89366 0.68564 0.8712 0.0
H618 H 0.94102 0.71446 0.87878 0.0
H619 H 0.92361 0.7282 0.85954 0.0
C620 C 0.03196 0.81083 0.90827 0.0
C621 C 0.04775 0.82691 0.89136 0.0
C622 C 0.99324 0.78882 0.91013 0.0
C623 C 0.96982 0.78211 0.89504 0.0
C624 C 0.98587 0.79702 0.87806 0.0
H625 H 0.78841 0.79574 0.86876 0.0
H626 H 0.84423 0.79128 0.87303 0.0
C627 C 0.02427 0.81889 0.87622 0.0
C628 C 0.92881 0.76421 0.89715 0.0
H629 H 0.84819 0.70718 0.87446 0.0
C630 C 0.91482 0.78034 0.90927 0.0
C631 C 0.90388 0.73558 0.88535 0.0
C632 C 0.91638 0.71476 0.87315 0.0
C633 C 0.87747 0.77129 0.90859 0.0
C634 C 0.85369 0.74575 0.8954 0.0
C635 C 0.86666 0.72709 0.88443 0.0
C636 C 0.81798 0.74352 0.89085 0.0
C637 C 0.8642 0.79114 0.92102 0.0
C638 C 0.78439 0.71714 0.89895 0.0
C639 C 0.7521 0.7194 0.89637 0.0
C640 C 0.75336 0.74831 0.88584 0.0
C641 C 0.78662 0.77322 0.87697 0.0
C642 C 0.81854 0.77075 0.8794 0.0
H643 H 0.88394 0.80549 0.93236 0.0
H644 H 0.86111 0.81214 0.91306 0.0
H645 H 0.83657 0.77121 0.92682 0.0
H646 H 0.78359 0.69601 0.90788 0.0
H647 H 0.72693 0.70012 0.90354 0.0
H648 H 0.80658 0.92929 0.63017 0.0
H649 H 0.86162 0.99179 0.63153 0.0
H650 H 0.7956 0.03899 0.61314 0.0
H651 H 0.74084 0.97693 0.61181 0.0
H652 H 0.89694 0.05135 0.60506 0.0
H653 H 0.83608 0.08788 0.66335 0.0
H654 H 0.81835 0.04062 0.65588 0.0
H655 H 0.80683 0.07088 0.64358 0.0
C656 C 0.80414 0.95298 0.62605 0.0
C657 C 0.76947 0.94847 0.62113 0.0
C658 C 0.83542 0.98858 0.62693 0.0
C659 C 0.8323 0.01993 0.62288 0.0
C660 C 0.79829 0.01518 0.61676 0.0
H661 H 0.98285 0.25887 0.62753 0.0
H662 H 0.92801 0.19663 0.62478 0.0
C663 C 0.76714 0.97978 0.61595 0.0
C664 C 0.864 0.05777 0.62578 0.0
H665 H 0.89184 0.13655 0.65081 0.0
C666 C 0.89596 0.06996 0.6151 0.0
C667 C 0.86243 0.08191 0.63888 0.0
C668 C 0.82923 0.06967 0.65121 0.0
C669 C 0.92633 0.10603 0.61697 0.0
C670 C 0.92478 0.13014 0.63009 0.0
C671 C 0.89279 0.11797 0.64074 0.0
C672 C 0.95667 0.16773 0.63327 0.0
C673 C 0.95961 0.11828 0.60469 0.0
C674 C 0.99026 0.1719 0.63968 0.0
C675 C 0.02138 0.20716 0.64131 0.0
C676 C 0.01944 0.23898 0.63666 0.0
C677 C 0.98516 0.23488 0.63124 0.0
C678 C 0.95393 0.19941 0.62957 0.0
H679 H 0.95274 0.10025 0.59249 0.0
H680 H 0.97073 0.14744 0.60015 0.0
H681 H 0.98184 0.11674 0.61232 0.0
H682 H 0.99263 0.14778 0.64301 0.0
H683 H 0.04729 0.20936 0.64569 0.0
H684 H 0.17184 0.2043 0.86521 0.0
H685 H 0.20786 0.17379 0.87029 0.0
H686 H 0.22979 0.21454 0.92552 0.0
H687 H 0.19183 0.24405 0.92066 0.0
H688 H 0.27822 0.19441 0.88005 0.0
H689 H 0.17853 0.10351 0.93348 0.0
H690 H 0.16931 0.13357 0.91944 0.0
H691 H 0.2026 0.15267 0.93761 0.0
C692 C 0.1842 0.20679 0.87848 0.0
C693 C 0.17808 0.22572 0.89269 0.0
C694 C 0.20524 0.18967 0.8813 0.0
C695 C 0.22096 0.19116 0.89839 0.0
C696 C 0.21722 0.21229 0.91232 0.0
H697 H 0.30173 0.0304 0.91218 0.0
H698 H 0.30617 0.09157 0.91533 0.0
C699 C 0.19583 0.22942 0.9095 0.0
C700 C 0.23809 0.16766 0.90154 0.0
H701 H 0.21986 0.08626 0.92187 0.0
C702 C 0.26619 0.17134 0.88957 0.0
C703 C 0.22229 0.13739 0.91391 0.0
C704 C 0.19137 0.1312 0.92679 0.0
C705 C 0.27679 0.14416 0.8887 0.0
C706 C 0.25917 0.11283 0.90018 0.0
C707 C 0.23339 0.11059 0.91316 0.0
C708 C 0.26128 0.07898 0.89658 0.0
C709 C 0.30471 0.1475 0.87463 0.0
C710 C 0.2352 0.05231 0.88474 0.0
C711 C 0.2324 0.01763 0.88306 0.0
C712 C 0.25591 0.00904 0.89307 0.0
C713 C 0.28359 0.03653 0.90415 0.0
C714 C 0.28603 0.07129 0.90603 0.0
H715 H 0.31984 0.17575 0.86854 0.0
H716 H 0.3251 0.1409 0.88082 0.0
H717 H 0.29011 0.12708 0.86359 0.0
H718 H 0.21582 0.05777 0.87739 0.0
H719 H 0.21083 0.99697 0.87443 0.0
H720 H 0.01963 0.76026 0.62375 0.0
H721 H 0.95641 0.74927 0.6204 0.0
H722 H 0.99726 0.86654 0.62715 0.0
H723 H 0.06085 0.87756 0.63014 0.0
H724 H 0.92287 0.76384 0.6483 0.0
H725 H 0.92209 0.83973 0.58629 0.0
H726 H 0.95822 0.82875 0.59082 0.0
H727 H 0.95895 0.86774 0.60181 0.0
C728 C 0.01509 0.78373 0.62405 0.0
C729 C 0.04478 0.81968 0.6273 0.0
C730 C 0.9791 0.77746 0.62214 0.0
C731 C 0.97218 0.80706 0.62351 0.0
C732 C 0.00211 0.84339 0.62572 0.0
H733 H 0.783 0.83224 0.6413 0.0
H734 H 0.84413 0.83795 0.6392 0.0
C735 C 0.03833 0.84971 0.62744 0.0
C736 C 0.93345 0.79918 0.62491 0.0
H737 H 0.87083 0.82029 0.60672 0.0
C738 C 0.91131 0.77582 0.63908 0.0
C739 C 0.9186 0.81495 0.61289 0.0
C740 C 0.94056 0.83891 0.59699 0.0
C741 C 0.87497 0.76861 0.64187 0.0
C742 C 0.86041 0.78497 0.63008 0.0
C743 C 0.88228 0.80788 0.61574 0.0
C744 C 0.82309 0.78007 0.63282 0.0
C745 C 0.85282 0.74459 0.65773 0.0
C746 C 0.79105 0.74532 0.63032 0.0
C747 C 0.75587 0.74184 0.63159 0.0
C748 C 0.75245 0.77316 0.63525 0.0
C749 C 0.78468 0.80757 0.63841 0.0
C750 C 0.81965 0.81097 0.63716 0.0
H751 H 0.87046 0.73976 0.66745 0.0
H752 H 0.8389 0.75751 0.66516 0.0
H753 H 0.83094 0.71723 0.65256 0.0
H754 H 0.7933 0.72124 0.62679 0.0
H755 H 0.73155 0.71507 0.62894 0.0
H756 H 0.96806 0.27704 0.88262 0.0
H757 H 0.90514 0.22178 0.8838 0.0
H758 H 0.9513 0.15716 0.90549 0.0
H759 H 0.01313 0.21099 0.90413 0.0
H760 H 0.88504 0.15116 0.86525 0.0
H761 H 0.86146 0.13182 0.93944 0.0
H762 H 0.89283 0.17641 0.92925 0.0
H763 H 0.90784 0.14325 0.9334 0.0
C764 C 0.96453 0.25103 0.88775 0.0
C765 C 0.99554 0.24825 0.8931 0.0
C766 C 0.9287 0.21964 0.88848 0.0
C767 C 0.92358 0.18561 0.89507 0.0
C768 C 0.9545 0.18328 0.90072 0.0
H769 H 0.84178 0.97074 0.87841 0.0
H770 H 0.86782 0.03747 0.88101 0.0
C771 C 0.98996 0.21408 0.89971 0.0
C772 C 0.88711 0.15093 0.89455 0.0
H773 H 0.83519 0.07482 0.92121 0.0
C774 C 0.87301 0.1349 0.8775 0.0
C775 C 0.87119 0.12979 0.91053 0.0
C776 C 0.88389 0.14637 0.92921 0.0
C777 C 0.84659 0.097 0.87599 0.0
C778 C 0.83427 0.07483 0.8919 0.0
C779 C 0.84499 0.0918 0.90902 0.0
C780 C 0.81711 0.03398 0.89078 0.0
C781 C 0.83435 0.08025 0.85731 0.0
C782 C 0.78016 0.00978 0.896 0.0
C783 C 0.7649 0.97118 0.89436 0.0
C784 C 0.78658 0.95646 0.88762 0.0
C785 C 0.82398 0.98103 0.88317 0.0
C786 C 0.83898 0.01924 0.88469 0.0
H787 H 0.8371 0.10139 0.84721 0.0
H788 H 0.85216 0.0689 0.85277 0.0
H789 H 0.80507 0.05717 0.85753 0.0
H790 H 0.76302 0.02074 0.90096 0.0
H791 H 0.736 0.95302 0.89786 0.0
H792 H 0.38592 0.20251 0.34634 0.0
H793 H 0.39436 0.22037 0.31385 0.0
H794 H 0.32645 0.10532 0.29881 0.0
H795 H 0.31791 0.08739 0.33063 0.0
H796 H 0.423 0.19345 0.28396 0.0
H797 H 0.27757 0.1591 0.27288 0.0
H798 H 0.29835 0.16745 0.29525 0.0
H799 H 0.28098 0.12292 0.28452 0.0
C800 C 0.37284 0.18113 0.33607 0.0
C801 C 0.35106 0.14356 0.34116 0.0
C802 C 0.37769 0.19134 0.31755 0.0
C803 C 0.36049 0.16417 0.30394 0.0
C804 C 0.33941 0.1268 0.30905 0.0
H805 H 0.38701 0.12477 0.19374 0.0
H806 H 0.39249 0.1368 0.22641 0.0
C807 C 0.33471 0.11663 0.32735 0.0
C808 C 0.36426 0.17375 0.28426 0.0
H809 H 0.31137 0.15916 0.24627 0.0
C810 C 0.3988 0.18677 0.27571 0.0
C811 C 0.33281 0.1655 0.27352 0.0
C812 C 0.29539 0.15331 0.28202 0.0
C813 C 0.40216 0.18936 0.25661 0.0
C814 C 0.37 0.17799 0.24579 0.0
C815 C 0.33601 0.16746 0.25446 0.0
C816 C 0.37014 0.17394 0.22562 0.0
C817 C 0.44003 0.20367 0.24821 0.0
C818 C 0.35519 0.19028 0.21417 0.0
C819 C 0.35154 0.18303 0.19542 0.0
C820 C 0.36261 0.1591 0.18772 0.0
C821 C 0.37836 0.14348 0.19915 0.0
C822 C 0.38186 0.15063 0.21788 0.0
H823 H 0.46231 0.22306 0.25758 0.0
H824 H 0.44455 0.17995 0.24559 0.0
H825 H 0.44266 0.21819 0.23512 0.0
H826 H 0.34566 0.20813 0.21981 0.0
H827 H 0.33928 0.19552 0.18703 0.0
H828 H 0.75926 0.66993 0.32372 0.0
H829 H 0.76869 0.66245 0.29177 0.0
H830 H 0.83034 0.60814 0.30621 0.0
H831 H 0.82083 0.61545 0.33879 0.0
H832 H 0.8398 0.6918 0.27443 0.0
H833 H 0.75115 0.53831 0.26751 0.0
H834 H 0.74558 0.56329 0.28622 0.0
H835 H 0.78488 0.5565 0.28562 0.0
C836 C 0.77474 0.65618 0.32027 0.0
C837 C 0.78942 0.64339 0.33392 0.0
C838 C 0.78011 0.65197 0.3019 0.0
C839 C 0.80015 0.63474 0.29657 0.0
C840 C 0.8145 0.62129 0.31004 0.0
H841 H 0.85836 0.6624 0.17955 0.0
H842 H 0.86438 0.65682 0.21245 0.0
C843 C 0.80912 0.62554 0.32863 0.0
C844 C 0.80642 0.63241 0.27679 0.0
H845 H 0.77572 0.57282 0.24061 0.0
C846 C 0.82643 0.66575 0.26703 0.0
C847 C 0.78858 0.59842 0.2672 0.0
C848 C 0.76614 0.56196 0.27705 0.0
C849 C 0.82771 0.66623 0.2479 0.0
C850 C 0.809 0.63229 0.23822 0.0
C851 C 0.79021 0.59878 0.24803 0.0
C852 C 0.80551 0.63148 0.21802 0.0
C853 C 0.84718 0.70326 0.23823 0.0
C854 C 0.77032 0.6176 0.21007 0.0
C855 C 0.76676 0.62045 0.19127 0.0
C856 C 0.79835 0.63728 0.17998 0.0
C857 C 0.83348 0.64958 0.18785 0.0
C858 C 0.83699 0.64656 0.20668 0.0
H859 H 0.85359 0.72672 0.24757 0.0
H860 H 0.87377 0.70772 0.23246 0.0
H861 H 0.82994 0.70393 0.22685 0.0
H862 H 0.74562 0.60577 0.2185 0.0
H863 H 0.73926 0.61049 0.1857 0.0
H864 H 0.80368 0.14059 0.18323 0.0
H865 H 0.79016 0.13309 0.21594 0.0
H866 H 0.86099 0.25107 0.2235 0.0
H867 H 0.8739 0.2589 0.1909 0.0
H868 H 0.83809 0.14685 0.24267 0.0
H869 H 0.77371 0.23328 0.25423 0.0
H870 H 0.77937 0.21937 0.23171 0.0
H871 H 0.8172 0.25921 0.24256 0.0
C872 C 0.81588 0.16503 0.19182 0.0
C873 C 0.83989 0.20036 0.18441 0.0
C874 C 0.8081 0.16069 0.21053 0.0
C875 C 0.824 0.19157 0.22222 0.0
C876 C 0.84747 0.22691 0.21477 0.0
H877 H 0.90831 0.22312 0.32729 0.0
H878 H 0.89073 0.21393 0.29546 0.0
C879 C 0.85514 0.2313 0.19609 0.0
C880 C 0.81929 0.18665 0.24234 0.0
H881 H 0.80281 0.223 0.28064 0.0
C882 C 0.82956 0.16292 0.25091 0.0
C883 C 0.80758 0.20705 0.25323 0.0
C884 C 0.79345 0.23082 0.24492 0.0
C885 C 0.83101 0.1611 0.26997 0.0
C886 C 0.82253 0.18401 0.2808 0.0
C887 C 0.80969 0.20573 0.27233 0.0
C888 C 0.83184 0.18944 0.3005 0.0
C889 C 0.84296 0.1356 0.27837 0.0
C890 C 0.80455 0.17958 0.31407 0.0
C891 C 0.81456 0.18484 0.3326 0.0
C892 C 0.85206 0.20044 0.33774 0.0
C893 C 0.87912 0.21084 0.32398 0.0
C894 C 0.86914 0.20546 0.30567 0.0
H895 H 0.8371 0.11212 0.26915 0.0
H896 H 0.87335 0.15143 0.28086 0.0
H897 H 0.82871 0.12425 0.29158 0.0
H898 H 0.77558 0.16745 0.31032 0.0
H899 H 0.7931 0.1767 0.34284 0.0
H900 H 0.15372 0.31919 0.68738 0.0
H901 H 0.15386 0.3206 0.72073 0.0
H902 H 0.09802 0.38434 0.71974 0.0
H903 H 0.09785 0.38324 0.68641 0.0
H904 H 0.15852 0.41005 0.74542 0.0
H905 H 0.05869 0.25875 0.75166 0.0
H906 H 0.09887 0.27094 0.73782 0.0
H907 H 0.06563 0.28392 0.73062 0.0
C908 C 0.14171 0.33376 0.69423 0.0
C909 C 0.12554 0.35088 0.68419 0.0
C910 C 0.14164 0.33436 0.71331 0.0
C911 C 0.12542 0.35207 0.72273 0.0
C912 C 0.11049 0.37034 0.71276 0.0
H913 H 0.09011 0.38097 0.83774 0.0
H914 H 0.09497 0.3853 0.80446 0.0
C915 C 0.1104 0.36964 0.69369 0.0
C916 C 0.12326 0.35086 0.74296 0.0
H917 H 0.08481 0.2915 0.77897 0.0
C918 C 0.14236 0.38417 0.75278 0.0
C919 C 0.1021 0.31708 0.75252 0.0
C920 C 0.07986 0.28061 0.74267 0.0
C921 C 0.14153 0.3845 0.77195 0.0
C922 C 0.12031 0.35068 0.78153 0.0
C923 C 0.10111 0.31742 0.77166 0.0
C924 C 0.11795 0.34891 0.8018 0.0
C925 C 0.16417 0.42096 0.78175 0.0
C926 C 0.12837 0.32635 0.8114 0.0
C927 C 0.12523 0.3235 0.83038 0.0
C928 C 0.1115 0.3431 0.84024 0.0
C929 C 0.10103 0.3657 0.8306 0.0
C930 C 0.10404 0.3684 0.81157 0.0
H931 H 0.18647 0.44206 0.77291 0.0
H932 H 0.14575 0.4319 0.78579 0.0
H933 H 0.17706 0.41735 0.79425 0.0
H934 H 0.13901 0.3109 0.80419 0.0
H935 H 0.13353 0.30579 0.83732 0.0
H936 H 0.29462 0.91308 0.842 0.0
H937 H 0.29642 0.9099 0.80863 0.0
H938 H 0.17816 0.86666 0.80648 0.0
H939 H 0.17613 0.87022 0.83956 0.0
H940 H 0.25923 0.8497 0.78451 0.0
H941 H 0.21825 0.95584 0.77227 0.0
H942 H 0.2334 0.94915 0.79427 0.0
H943 H 0.18648 0.91876 0.78682 0.0
C944 C 0.26902 0.90289 0.83441 0.0
C945 C 0.2353 0.89223 0.84347 0.0
C946 C 0.27008 0.90106 0.81535 0.0
C947 C 0.23753 0.88872 0.80503 0.0
C948 C 0.20376 0.8771 0.8141 0.0
H949 H 0.17012 0.85322 0.69222 0.0
H950 H 0.17437 0.85495 0.72547 0.0
C951 C 0.20266 0.87898 0.83307 0.0
C952 C 0.23852 0.88789 0.78479 0.0
H953 H 0.21606 0.91967 0.74666 0.0
C954 C 0.25013 0.86525 0.77621 0.0
C955 C 0.22672 0.90828 0.77396 0.0
C956 C 0.21585 0.93467 0.78227 0.0
C957 C 0.24903 0.86146 0.75713 0.0
C958 C 0.2364 0.88119 0.74637 0.0
C959 C 0.22544 0.90432 0.75494 0.0
C960 C 0.23395 0.87811 0.72618 0.0
C961 C 0.26031 0.83554 0.74867 0.0
C962 C 0.26605 0.8905 0.7155 0.0
C963 C 0.26374 0.8896 0.69646 0.0
C964 C 0.22926 0.8764 0.68771 0.0
C965 C 0.1971 0.8635 0.69847 0.0
C966 C 0.19948 0.86451 0.7175 0.0
H967 H 0.26121 0.81624 0.75887 0.0
H968 H 0.24084 0.81896 0.73761 0.0
H969 H 0.28844 0.8521 0.74264 0.0
H970 H 0.29303 0.9017 0.72189 0.0
H971 H 0.28907 0.89988 0.6886 0.0
H972 H 0.67749 0.83179 0.68421 0.0
H973 H 0.67599 0.83068 0.71764 0.0
H974 H 0.60155 0.71224 0.71674 0.0
H975 H 0.60333 0.71295 0.68351 0.0
H976 H 0.61808 0.80647 0.7431 0.0
H977 H 0.68711 0.72197 0.74784 0.0
H978 H 0.6854 0.74391 0.72693 0.0
H979 H 0.64568 0.70118 0.73427 0.0
C980 C 0.66056 0.80557 0.69114 0.0
C981 C 0.64087 0.77242 0.68118 0.0
C982 C 0.65977 0.80497 0.71024 0.0
C983 C 0.63934 0.77124 0.71971 0.0
C984 C 0.61828 0.73844 0.70976 0.0
H985 H 0.61602 0.71134 0.83541 0.0
H986 H 0.60802 0.71054 0.80223 0.0
C987 C 0.61918 0.73897 0.69073 0.0
C988 C 0.64058 0.7701 0.73995 0.0
H989 H 0.66436 0.7327 0.77539 0.0
C990 C 0.62827 0.79042 0.75016 0.0
C991 C 0.65383 0.74908 0.74918 0.0
C992 C 0.66909 0.72806 0.73902 0.0
C993 C 0.62848 0.78995 0.76932 0.0
C994 C 0.64184 0.76903 0.77852 0.0
C995 C 0.65388 0.74851 0.76832 0.0
C996 C 0.64535 0.76954 0.79869 0.0
C997 C 0.61396 0.8115 0.77956 0.0
C998 C 0.66923 0.80284 0.80769 0.0
C999 C 0.67394 0.80336 0.82655 0.0
C1000 C 0.65496 0.77052 0.8369 0.0
C1001 C 0.63095 0.73712 0.82787 0.0
C1002 C 0.62637 0.73662 0.80892 0.0
H1003 H 0.59553 0.81733 0.77092 0.0
H1004 H 0.59834 0.79619 0.79191 0.0
H1005 H 0.63772 0.8385 0.78395 0.0
H1006 H 0.68478 0.82842 0.80006 0.0
H1007 H 0.69279 0.82959 0.83299 0.0
H1008 H 0.17666 0.93121 0.94915 0.0
H1009 H 0.18902 0.96442 0.97828 0.0
H1010 H 0.28456 0.95148 0.98662 0.0
H1011 H 0.27283 0.91898 0.9576 0.0
H1012 H 0.19839 0.94863 0.01509 0.0
H1013 H 0.32877 0.06443 0.98692 0.0
H1014 H 0.2938 0.02849 0.97276 0.0
H1015 H 0.32634 0.02023 0.98514 0.0
C1016 C 0.19979 0.93472 0.9574 0.0
C1017 C 0.22392 0.92269 0.95096 0.0
C1018 C 0.20695 0.95389 0.97399 0.0
C1019 C 0.2383 0.96131 0.9844 0.0
C1020 C 0.26077 0.94695 0.97861 0.0
H1021 H 0.3512 0.06933 0.08253 0.0
H1022 H 0.32845 0.03619 0.05375 0.0
C1023 C 0.25382 0.92807 0.96205 0.0
C1024 C 0.2489 0.9855 1.00082 0.0
H1025 H 0.32056 0.0646 0.01907 0.0
C1026 C 0.22488 0.97422 0.01591 0.0
C1027 C 0.28337 0.01911 1.00183 0.0
C1028 C 0.30941 0.03404 0.98574 0.0
C1029 C 0.23522 0.99473 0.03225 0.0
C1030 C 0.2703 0.02754 0.03344 0.0
C1031 C 0.29377 0.03936 0.01818 0.0
C1032 C 0.28421 0.04882 0.05071 0.0
C1033 C 0.20924 0.98044 0.04836 0.0
C1034 C 0.26741 0.06772 0.05841 0.0
C1035 C 0.28061 0.08708 0.07488 0.0
C1036 C 0.31077 0.08777 0.08396 0.0
C1037 C 0.32792 0.06942 0.07595 0.0
C1038 C 0.31491 0.05037 0.05949 0.0
H1039 H 0.186 0.95166 0.0462 0.0
H1040 H 0.22454 0.981 0.06087 0.0
H1041 H 0.19728 0.9987 0.0507 0.0
H1042 H 0.24403 0.06737 0.05172 0.0
H1043 H 0.26668 0.1008 0.08068 0.0
H1044 H 0.74753 0.73533 0.42601 0.0
H1045 H 0.73427 0.75259 0.45552 0.0
H1046 H 0.75641 0.67286 0.48178 0.0
H1047 H 0.77053 0.65569 0.45202 0.0
H1048 H 0.67952 0.70911 0.47887 0.0
H1049 H 0.81621 0.76501 0.51303 0.0
H1050 H 0.81039 0.75666 0.48881 0.0
H1051 H 0.79765 0.71871 0.50434 0.0
C1052 C 0.7499 0.72151 0.43803 0.0
C1053 C 0.76005 0.69397 0.43659 0.0
C1054 C 0.74228 0.7315 0.45495 0.0
C1055 C 0.7446 0.71433 0.47095 0.0
C1056 C 0.7551 0.68704 0.46967 0.0
H1057 H 0.63619 0.70388 0.5729 0.0
H1058 H 0.65511 0.69326 0.54317 0.0
C1059 C 0.76296 0.67708 0.45264 0.0
C1060 C 0.73404 0.72395 0.48868 0.0
H1061 H 0.7658 0.75768 0.5314 0.0
C1062 C 0.69848 0.71982 0.49032 0.0
C1063 C 0.75889 0.7385 0.50357 0.0
C1064 C 0.79805 0.74536 0.50238 0.0
C1065 C 0.6869 0.72921 0.50645 0.0
C1066 C 0.71126 0.74254 0.52155 0.0
C1067 C 0.74708 0.74734 0.51985 0.0
C1068 C 0.69936 0.74997 0.53944 0.0
C1069 C 0.64875 0.72514 0.50708 0.0
C1070 C 0.71812 0.78545 0.54741 0.0
C1071 C 0.7073 0.79173 0.56457 0.0
C1072 C 0.67777 0.7625 0.57412 0.0
C1073 C 0.6589 0.72717 0.56593 0.0
C1074 C 0.66962 0.72099 0.54886 0.0
H1075 H 0.63818 0.7253 0.4932 0.0
H1076 H 0.6291 0.69825 0.5136 0.0
H1077 H 0.6489 0.74777 0.51516 0.0
H1078 H 0.74127 0.80821 0.54041 0.0
H1079 H 0.72267 0.81915 0.57054 0.0
H1080 H 0.07761 0.25588 0.94804 0.0
H1081 H 0.04379 0.23481 0.97702 0.0
H1082 H 0.04631 0.33926 0.98243 0.0
H1083 H 0.07933 0.36017 0.95348 0.0
H1084 H 0.0561 0.26131 0.01299 0.0
H1085 H 0.93531 0.2642 0.98303 0.0
H1086 H 0.97317 0.26807 0.96936 0.0
H1087 H 0.97761 0.30796 0.98121 0.0
C1088 C 0.07167 0.27466 0.95561 0.0
C1089 C 0.08095 0.30962 0.94836 0.0
C1090 C 0.05213 0.26249 0.97212 0.0
C1091 C 0.04158 0.28505 0.98166 0.0
C1092 C 0.0532 0.32094 0.97508 0.0
H1093 H 0.92682 0.28269 0.07903 0.0
H1094 H 0.96108 0.29521 0.05041 0.0
C1095 C 0.07242 0.33299 0.95858 0.0
C1096 C 0.01712 0.27081 0.99802 0.0
H1097 H 0.93485 0.25732 0.01532 0.0
C1098 C 0.02941 0.26003 0.01345 0.0
C1099 C 0.98206 0.26876 0.99857 0.0
C1100 C 0.96603 0.27748 0.9821 0.0
C1101 C 0.00834 0.24888 0.02964 0.0
C1102 C 0.97398 0.24821 0.03035 0.0
C1103 C 0.96127 0.25802 0.01478 0.0
C1104 C 0.95179 0.23948 0.0474 0.0
C1105 C 0.02352 0.23919 0.04609 0.0
C1106 C 0.93437 0.20367 0.05504 0.0
C1107 C 0.91433 0.19625 0.07139 0.0
C1108 C 0.91154 0.22461 0.08043 0.0
C1109 C 0.92837 0.26018 0.07247 0.0
C1110 C 0.94805 0.26745 0.0561 0.0
H1111 H 0.05294 0.24655 0.0442 0.0
H1112 H 0.02153 0.25373 0.05835 0.0
H1113 H 0.00672 0.20887 0.04869 0.0
H1114 H 0.93648 0.18154 0.04842 0.0
H1115 H 0.90187 0.16861 0.07717 0.0
H1116 H 0.28019 0.00511 0.43322 0.0
H1117 H 0.26075 0.9747 0.46272 0.0
H1118 H 0.29759 0.0807 0.48841 0.0
H1119 H 0.31848 0.11177 0.4587 0.0
H1120 H 0.31761 0.04059 0.50814 0.0
H1121 H 0.16961 0.9504 0.49102 0.0
H1122 H 0.19846 0.94337 0.47528 0.0
H1123 H 0.20113 0.98796 0.47641 0.0
C1124 C 0.28412 0.02211 0.4451 0.0
C1125 C 0.30071 0.06096 0.44353 0.0
C1126 C 0.27259 0.00453 0.462 0.0
C1127 C 0.27656 0.02512 0.47782 0.0
C1128 C 0.29376 0.06406 0.4764 0.0
H1129 H 0.17381 0.91264 0.5815 0.0
H1130 H 0.18613 0.9458 0.55231 0.0
C1131 C 0.30577 0.08184 0.45942 0.0
C1132 C 0.26416 0.00586 0.49581 0.0
H1133 H 0.19158 0.93185 0.51716 0.0
C1134 C 0.2899 0.01709 0.51014 0.0
C1135 C 0.22774 0.97559 0.49871 0.0
C1136 C 0.19757 0.96392 0.48459 0.0
C1137 C 0.28083 0.99805 0.52689 0.0
C1138 C 0.24535 0.96602 0.52927 0.0
C1139 C 0.21903 0.95581 0.51527 0.0
C1140 C 0.23542 0.94267 0.54609 0.0
C1141 C 0.3094 0.01279 0.54193 0.0
C1142 C 0.25778 0.92816 0.55192 0.0
C1143 C 0.25093 0.90949 0.56857 0.0
C1144 C 0.22098 0.90405 0.57964 0.0
C1145 C 0.19689 0.91609 0.57321 0.0
C1146 C 0.20411 0.93531 0.55659 0.0
H1147 H 0.32914 0.043 0.54024 0.0
H1148 H 0.2961 0.00812 0.55553 0.0
H1149 H 0.32575 0.99835 0.54149 0.0
H1150 H 0.28129 0.9322 0.54381 0.0
H1151 H 0.26989 0.90038 0.57309 0.0
H1152 H 0.83518 0.7343 0.07303 0.0
H1153 H 0.82412 0.75928 0.04488 0.0
H1154 H 0.70751 0.67791 0.04795 0.0
H1155 H 0.7181 0.6533 0.07605 0.0
H1156 H 0.79445 0.72741 0.01133 0.0
H1157 H 0.70538 0.77429 0.04432 0.0
H1158 H 0.73367 0.76072 0.0572 0.0
H1159 H 0.68927 0.72604 0.04842 0.0
C1160 C 0.80724 0.72157 0.06763 0.0
C1161 C 0.77751 0.69193 0.0769 0.0
C1162 C 0.80094 0.73595 0.05156 0.0
C1163 C 0.76482 0.72109 0.04452 0.0
C1164 C 0.73544 0.69056 0.05336 0.0
H1165 H 0.64928 0.73083 0.95097 0.0
H1166 H 0.67076 0.72139 0.98038 0.0
C1167 C 0.74165 0.6763 0.06939 0.0
C1168 C 0.75747 0.73711 0.02792 0.0
H1169 H 0.70269 0.77055 0.01172 0.0
C1170 C 0.77484 0.73739 0.01146 0.0
C1171 C 0.73206 0.75043 0.02809 0.0
C1172 C 0.71431 0.75326 0.04549 0.0
C1173 C 0.76601 0.74876 0.99503 0.0
C1174 C 0.73939 0.76051 0.99511 0.0
C1175 C 0.72299 0.76143 0.01166 0.0
C1176 C 0.726 0.769 0.97797 0.0
C1177 C 0.78396 0.74657 0.97757 0.0
C1178 C 0.74954 0.79974 0.96708 0.0
C1179 C 0.73717 0.8055 0.95024 0.0
C1180 C 0.70112 0.78045 0.94398 0.0
C1181 C 0.67721 0.75067 0.95534 0.0
C1182 C 0.68946 0.74516 0.97217 0.0
H1183 H 0.79966 0.73166 0.9794 0.0
H1184 H 0.76263 0.73227 0.96684 0.0
H1185 H 0.80354 0.77508 0.97265 0.0
H1186 H 0.77771 0.81878 0.97141 0.0
H1187 H 0.75636 0.82855 0.94179 0.0
H1188 H 0.08344 0.25829 0.57756 0.0
H1189 H 0.05133 0.23823 0.5482 0.0
H1190 H 0.05941 0.34514 0.54152 0.0
H1191 H 0.08997 0.36458 0.57108 0.0
H1192 H 0.99141 0.29263 0.53503 0.0
H1193 H 0.08596 0.25952 0.49663 0.0
H1194 H 0.06988 0.23418 0.5176 0.0
H1195 H 0.09897 0.28393 0.51805 0.0
C1196 C 0.07916 0.27777 0.56959 0.0
C1197 C 0.08945 0.3131 0.57658 0.0
C1198 C 0.06077 0.26629 0.55278 0.0
C1199 C 0.05309 0.29023 0.54246 0.0
C1200 C 0.06479 0.32603 0.54917 0.0
H1201 H 0.98936 0.2723 0.42988 0.0
H1202 H 0.01954 0.28503 0.45948 0.0
C1203 C 0.08253 0.33724 0.56604 0.0
C1204 C 0.03105 0.27771 0.52524 0.0
H1205 H 0.02798 0.24231 0.48287 0.0
C1206 C -0.00051 0.28168 0.52361 0.0
C1207 C 0.04152 0.26353 0.51026 0.0
C1208 C 0.07612 0.26034 0.51061 0.0
C1209 C 0.97864 0.27261 0.50743 0.0
C1210 C 0.98875 0.25788 0.49254 0.0
C1211 C 0.01994 0.2533 0.49428 0.0
C1212 C 0.96926 0.24964 0.4746 0.0
C1213 C 0.94692 0.2804 0.50626 0.0
C1214 C 0.93067 0.22537 0.47304 0.0
C1215 C 0.91305 0.21846 0.456 0.0
C1216 C 0.93382 0.23509 0.44015 0.0
C1217 C 0.97243 0.25893 0.44177 0.0
C1218 C 0.98984 0.26619 0.45874 0.0
H1219 H 0.94922 0.30068 0.51675 0.0
H1220 H 0.94583 0.29146 0.49264 0.0
H1221 H 0.92034 0.25422 0.50856 0.0
H1222 H 0.9142 0.21147 0.48497 0.0
H1223 H 0.88335 0.19967 0.45519 0.0
H1224 H 0.75831 0.16342 0.09953 0.0
H1225 H 0.69289 0.14571 0.10133 0.0
H1226 H 0.71978 0.23293 0.14044 0.0
H1227 H 0.78565 0.25152 0.13825 0.0
H1228 H 0.65772 0.11983 0.13383 0.0
H1229 H 0.64012 0.23687 0.10991 0.0
H1230 H 0.68062 0.23338 0.10442 0.0
H1231 H 0.67625 0.24952 0.12648 0.0
C1232 C 0.75042 0.17973 0.10797 0.0
C1233 C 0.77686 0.20869 0.11882 0.0
C1234 C 0.71307 0.16949 0.10905 0.0
C1235 C 0.70147 0.18786 0.12107 0.0
C1236 C 0.72819 0.21873 0.13087 0.0
H1237 H 0.48278 0.12834 0.16259 0.0
H1238 H 0.54979 0.1543 0.15899 0.0
C1239 C 0.76581 0.22936 0.1296 0.0
C1240 C 0.66145 0.1712 0.12523 0.0
H1241 H 0.58873 0.18741 0.12526 0.0
C1242 C 0.64259 0.13455 0.13185 0.0
C1243 C 0.64197 0.19065 0.12287 0.0
C1244 C 0.66064 0.22968 0.11539 0.0
C1245 C 0.60468 0.11672 0.13609 0.0
C1246 C 0.58512 0.13597 0.13352 0.0
C1247 C 0.60399 0.17281 0.1272 0.0
C1248 C 0.54474 0.11797 0.13678 0.0
C1249 C 0.58592 0.07759 0.14347 0.0
C1250 C 0.51989 0.08848 0.12571 0.0
C1251 C 0.48163 0.0737 0.12767 0.0
C1252 C 0.46766 0.08839 0.14067 0.0
C1253 C 0.49272 0.11681 0.15229 0.0
C1254 C 0.53094 0.13165 0.15027 0.0
H1255 H 0.60636 0.07004 0.14869 0.0
H1256 H 0.56632 0.07403 0.15461 0.0
H1257 H 0.56979 0.05792 0.13241 0.0
H1258 H 0.53013 0.07787 0.11508 0.0
H1259 H 0.46321 0.05223 0.11834 0.0
H1260 H 0.64281 0.59618 0.37554 0.0
H1261 H 0.58315 0.53737 0.37757 0.0
H1262 H 0.63896 0.4844 0.40209 0.0
H1263 H 0.69784 0.54206 0.40019 0.0
H1264 H 0.56579 0.46233 0.36292 0.0
H1265 H 0.55272 0.46646 0.43791 0.0
H1266 H 0.58143 0.50749 0.42447 0.0
H1267 H 0.5979 0.47628 0.43043 0.0
C1268 C 0.64223 0.57197 0.38139 0.0
C1269 C 0.67506 0.5739 0.38779 0.0
C1270 C 0.60824 0.53848 0.38249 0.0
C1271 C 0.60676 0.5068 0.39016 0.0
C1272 C 0.6395 0.50869 0.39634 0.0
H1273 H 0.47126 0.27128 0.38935 0.0
H1274 H 0.51502 0.33674 0.38263 0.0
C1275 C 0.6732 0.54177 0.39519 0.0
C1276 C 0.57144 0.47123 0.3919 0.0
H1277 H 0.5177 0.40694 0.42377 0.0
C1278 C 0.55469 0.45037 0.37618 0.0
C1279 C 0.55693 0.45593 0.4092 0.0
C1280 C 0.57293 0.4778 0.42648 0.0
C1281 C 0.52494 0.41367 0.3774 0.0
C1282 C 0.51221 0.39744 0.39479 0.0
C1283 C 0.52768 0.41917 0.41043 0.0
C1284 C 0.48403 0.35764 0.39727 0.0
C1285 C 0.50775 0.39255 0.36008 0.0
C1286 C 0.45238 0.34761 0.40793 0.0
C1287 C 0.42772 0.31036 0.41197 0.0
C1288 C 0.43417 0.28228 0.40546 0.0
C1289 C 0.46541 0.29226 0.39442 0.0
C1290 C 0.49028 0.32965 0.39048 0.0
H1291 H 0.5119 0.4117 0.3486 0.0
H1292 H 0.52126 0.37626 0.35633 0.0
H1293 H 0.47752 0.37304 0.3618 0.0
H1294 H 0.44703 0.36871 0.41335 0.0
H1295 H 0.40357 0.30356 0.42023 0.0
H1296 H 0.9479 0.42111 0.12829 0.0
H1297 H 0.91932 0.45937 0.1233 0.0
H1298 H 0.81319 0.36846 0.13995 0.0
H1299 H 0.84048 0.32977 0.14457 0.0
H1300 H 0.85241 0.43378 0.09797 0.0
H1301 H 0.82987 0.46312 0.16944 0.0
H1302 H 0.86526 0.45187 0.16346 0.0
H1303 H 0.81734 0.41613 0.16387 0.0
C1304 C 0.91854 0.40911 0.13098 0.0
C1305 C 0.89676 0.37185 0.1366 0.0
C1306 C 0.90231 0.43113 0.12816 0.0
C1307 C 0.86424 0.41652 0.13124 0.0
C1308 C 0.84272 0.38017 0.13762 0.0
H1309 H 0.73683 0.53071 0.12589 0.0
H1310 H 0.74844 0.47842 0.12645 0.0
C1311 C 0.85872 0.35807 0.14031 0.0
C1312 C 0.84638 0.43847 0.12682 0.0
H1313 H 0.80701 0.48497 0.14609 0.0
C1314 C 0.84239 0.44498 0.10845 0.0
C1315 C 0.83269 0.45214 0.14056 0.0
C1316 C 0.83655 0.44575 0.16048 0.0
C1317 C 0.82559 0.46566 0.10342 0.0
C1318 C 0.8133 0.48076 0.11718 0.0
C1319 C 0.81623 0.47313 0.13555 0.0
C1320 C 0.80198 0.50848 0.11311 0.0
C1321 C 0.82132 0.47126 0.08345 0.0
C1322 C 0.8276 0.54208 0.10484 0.0
C1323 C 0.82104 0.57175 0.10448 0.0
C1324 C 0.78888 0.56847 0.11253 0.0
C1325 C 0.76179 0.53394 0.11953 0.0
C1326 C 0.76846 0.50414 0.11993 0.0
H1327 H 0.81902 0.44782 0.0752 0.0
H1328 H 0.79647 0.47401 0.08092 0.0
H1329 H 0.84627 0.49699 0.07869 0.0
H1330 H 0.85396 0.54631 0.09983 0.0
H1331 H 0.84236 0.59803 0.09894 0.0
H1332 H 0.39941 0.04736 0.37675 0.0
H1333 H 0.45966 0.0497 0.37463 0.0
H1334 H 0.51006 0.14916 0.40729 0.0
H1335 H 0.45086 0.14731 0.40935 0.0
H1336 H 0.54777 0.15399 0.37398 0.0
H1337 H 0.51742 0.02969 0.4156 0.0
H1338 H 0.48602 0.02418 0.3974 0.0
H1339 H 0.48909 0.05127 0.41699 0.0
C1340 C 0.4233 0.06942 0.38363 0.0
C1341 C 0.4204 0.0972 0.39316 0.0
C1342 C 0.45762 0.07072 0.38241 0.0
C1343 C 0.48922 0.09965 0.3908 0.0
C1344 C 0.48604 0.12675 0.40063 0.0
H1345 H 0.69776 0.15071 0.4313 0.0
H1346 H 0.63323 0.13158 0.42431 0.0
C1347 C 0.45208 0.12556 0.40181 0.0
C1348 C 0.52627 0.10308 0.3892 0.0
H1349 H 0.57914 0.06845 0.40623 0.0
C1350 C 0.55464 0.13498 0.38073 0.0
C1351 C 0.53493 0.07825 0.39811 0.0
C1352 C 0.50544 0.04394 0.40765 0.0
C1353 C 0.59187 0.14385 0.38177 0.0
C1354 C 0.60076 0.11974 0.39128 0.0
C1355 C 0.57213 0.08682 0.39894 0.0
C1356 C 0.63974 0.13015 0.39513 0.0
C1357 C 0.62152 0.18006 0.37367 0.0
C1358 C 0.66479 0.13564 0.38102 0.0
C1359 C 0.70184 0.14684 0.385 0.0
C1360 C 0.71428 0.1523 0.40316 0.0
C1361 C 0.68895 0.14641 0.41721 0.0
C1362 C 0.65208 0.13546 0.41323 0.0
H1363 H 0.6105 0.19857 0.36982 0.0
H1364 H 0.64473 0.19506 0.38343 0.0
H1365 H 0.63289 0.17427 0.36123 0.0
H1366 H 0.65566 0.13111 0.36697 0.0
H1367 H 0.72054 0.1505 0.37391 0.0
H1368 H 0.4667 0.21281 0.14099 0.0
H1369 H 0.51439 0.27888 0.14208 0.0
H1370 H 0.45425 0.30315 0.10165 0.0
H1371 H 0.40628 0.23765 0.10086 0.0
H1372 H 0.56027 0.33756 0.11634 0.0
H1373 H 0.44989 0.35636 0.14848 0.0
H1374 H 0.44551 0.31129 0.14541 0.0
H1375 H 0.43732 0.33407 0.12664 0.0
C1376 C 0.46446 0.2321 0.13187 0.0
C1377 C 0.43275 0.22044 0.121 0.0
C1378 C 0.49153 0.26978 0.13258 0.0
C1379 C 0.48713 0.29581 0.12231 0.0
C1380 C 0.4576 0.28348 0.10996 0.0
H1381 H 0.58961 0.5327 0.11316 0.0
H1382 H 0.54935 0.46526 0.11156 0.0
C1383 C 0.43041 0.2461 0.10943 0.0
C1384 C 0.51056 0.33595 0.12589 0.0
H1385 H 0.50585 0.41134 0.14064 0.0
C1386 C 0.54855 0.35372 0.12177 0.0
C1387 C 0.49505 0.35673 0.13317 0.0
C1388 C 0.45479 0.33864 0.13886 0.0
C1389 C 0.57127 0.39221 0.12411 0.0
C1390 C 0.55546 0.41305 0.1309 0.0
C1391 C 0.51767 0.39515 0.13534 0.0
C1392 C 0.57763 0.45369 0.13309 0.0
C1393 C 0.61176 0.41053 0.1189 0.0
C1394 C 0.60564 0.46927 0.14627 0.0
C1395 C 0.62832 0.50774 0.14739 0.0
C1396 C 0.62347 0.53123 0.13528 0.0
C1397 C 0.59395 0.51548 0.12277 0.0
C1398 C 0.57115 0.47696 0.12172 0.0
H1399 H 0.6181 0.39167 0.11093 0.0
H1400 H 0.61999 0.43603 0.11076 0.0
H1401 H 0.62897 0.41882 0.13143 0.0
H1402 H 0.61043 0.45165 0.15543 0.0
H1403 H 0.65037 0.51909 0.1574 0.0
H1404 H 0.84046 0.56152 0.36999 0.0
H1405 H 0.85955 0.51573 0.36329 0.0
H1406 H 0.86087 0.49494 0.42078 0.0
H1407 H 0.84206 0.54064 0.42754 0.0
H1408 H 0.92335 0.50332 0.40254 0.0
H1409 H 0.79277 0.40323 0.36705 0.0
H1410 H 0.81674 0.44963 0.35801 0.0
H1411 H 0.79646 0.44139 0.38034 0.0
C1412 C 0.84443 0.54688 0.38117 0.0
C1413 C 0.83962 0.55459 0.3993 0.0
C1414 C 0.85546 0.52083 0.37733 0.0
C1415 C 0.86139 0.50177 0.39154 0.0
C1416 C 0.85664 0.50949 0.40961 0.0
H1417 H 0.84622 0.29587 0.40555 0.0
H1418 H 0.84339 0.35269 0.40363 0.0
C1419 C 0.84588 0.5356 0.41346 0.0
C1420 C 0.87186 0.47317 0.38784 0.0
H1421 H 0.83794 0.38575 0.37085 0.0
C1422 C 0.90497 0.47778 0.39539 0.0
C1423 C 0.84775 0.43991 0.37853 0.0
C1424 C 0.81129 0.43292 0.37061 0.0
C1425 C 0.91382 0.44934 0.39457 0.0
C1426 C 0.88909 0.41567 0.38579 0.0
C1427 C 0.8569 0.41175 0.37749 0.0
C1428 C 0.89307 0.38231 0.38726 0.0
C1429 C 0.94838 0.45461 0.40398 0.0
C1430 C 0.9224 0.38028 0.37888 0.0
C1431 C 0.92427 0.34755 0.38002 0.0
C1432 C 0.89666 0.31648 0.38945 0.0
C1433 C 0.86787 0.31913 0.39808 0.0
C1434 C 0.86611 0.35161 0.39698 0.0
H1435 H 0.96225 0.48067 0.41205 0.0
H1436 H 0.9415 0.4308 0.41318 0.0
H1437 H 0.96835 0.45565 0.39363 0.0
H1438 H 0.94331 0.40364 0.37117 0.0
H1439 H 0.94665 0.34625 0.37316 0.0
H1440 H 0.25506 0.79151 0.61161 0.0
H1441 H 0.23547 0.72516 0.60778 0.0
H1442 H 0.13881 0.69503 0.64098 0.0
H1443 H 0.15737 0.76008 0.64438 0.0
H1444 H 0.21906 0.66683 0.6322 0.0
H1445 H 0.09332 0.639 0.59407 0.0
H1446 H 0.13105 0.6855 0.59823 0.0
H1447 H 0.09591 0.66131 0.61534 0.0
C1448 C 0.22983 0.77056 0.61814 0.0
C1449 C 0.20731 0.78076 0.62796 0.0
C1450 C 0.21864 0.73283 0.61593 0.0
C1451 C 0.18505 0.70523 0.62363 0.0
C1452 C 0.1641 0.71577 0.6344 0.0
H1453 H 0.09942 0.47832 0.654 0.0
H1454 H 0.13003 0.54608 0.65147 0.0
C1455 C 0.17487 0.75302 0.63639 0.0
C1456 C 0.1708 0.66517 0.62048 0.0
H1457 H 0.0914 0.58596 0.60862 0.0
C1458 C 0.19144 0.64912 0.62674 0.0
C1459 C 0.1351 0.64218 0.61295 0.0
C1460 C 0.11277 0.65797 0.60458 0.0
C1461 C 0.17629 0.61039 0.62673 0.0
C1462 C 0.13916 0.58724 0.62084 0.0
C1463 C 0.11953 0.60354 0.61351 0.0
C1464 C 0.11968 0.54616 0.62255 0.0
C1465 C 0.20026 0.5948 0.63308 0.0
C1466 C 0.10169 0.52356 0.60743 0.0
C1467 C 0.08323 0.48489 0.60902 0.0
C1468 C 0.08265 0.46813 0.62574 0.0
C1469 C 0.09968 0.4907 0.64097 0.0
C1470 C 0.11762 0.52934 0.63945 0.0
H1471 H 0.2302 0.61499 0.63085 0.0
H1472 H 0.19608 0.58904 0.64791 0.0
H1473 H 0.19315 0.56858 0.6259 0.0
H1474 H 0.10257 0.53585 0.59429 0.0
H1475 H 0.07082 0.46815 0.59701 0.0
H1476 H 0.39824 0.91266 0.93245 0.0
H1477 H 0.44273 0.89069 0.9304 0.0
H1478 H 0.41977 0.87021 0.87294 0.0
H1479 H 0.37377 0.8907 0.87525 0.0
H1480 H 0.42638 0.81637 0.88727 0.0
H1481 H 0.54543 0.94816 0.91125 0.0
H1482 H 0.50895 0.92941 0.92785 0.0
H1483 H 0.50114 0.94386 0.90592 0.0
C1484 C 0.40284 0.90359 0.91938 0.0
C1485 C 0.383 0.90382 0.90395 0.0
C1486 C 0.42843 0.89124 0.91818 0.0
C1487 C 0.43559 0.87986 0.9014 0.0
C1488 C 0.41504 0.87916 0.88602 0.0
H1489 H 0.63459 0.86427 0.8847 0.0
H1490 H 0.5872 0.88253 0.88517 0.0
C1491 C 0.3888 0.89083 0.88732 0.0
C1492 C 0.46427 0.86848 0.89999 0.0
H1493 H 0.5542 0.89563 0.91083 0.0
C1494 C 0.45443 0.83385 0.89228 0.0
C1495 C 0.50117 0.89151 0.90618 0.0
C1496 C 0.51491 0.93045 0.91306 0.0
C1497 C 0.48013 0.82134 0.89092 0.0
C1498 C 0.51638 0.84344 0.89813 0.0
C1499 C 0.52634 0.87833 0.90554 0.0
C1500 C 0.54484 0.83162 0.89771 0.0
C1501 C 0.46831 0.78503 0.88133 0.0
C1502 C 0.5372 0.79706 0.9048 0.0
C1503 C 0.56413 0.78624 0.9042 0.0
C1504 C 0.5996 0.81023 0.897 0.0
C1505 C 0.60758 0.84522 0.89042 0.0
C1506 C 0.58044 0.85567 0.89066 0.0
H1507 H 0.44523 0.77813 0.87164 0.0
H1508 H 0.49174 0.78578 0.8737 0.0
H1509 H 0.45816 0.76235 0.89155 0.0
H1510 H 0.51049 0.77847 0.9109 0.0
H1511 H 0.55727 0.75922 0.90951 0.0
H1512 H 0.51581 0.62997 0.65679 0.0
H1513 H 0.44804 0.59194 0.65624 0.0
H1514 H 0.45451 0.53552 0.60836 0.0
H1515 H 0.52218 0.57396 0.60854 0.0
H1516 H 0.40304 0.58983 0.62506 0.0
H1517 H 0.38292 0.45152 0.64396 0.0
H1518 H 0.42507 0.4944 0.64904 0.0
H1519 H 0.41677 0.47563 0.62639 0.0
C1520 C 0.50285 0.60927 0.64622 0.0
C1521 C 0.52445 0.60524 0.63262 0.0
C1522 C 0.46416 0.58758 0.64595 0.0
C1523 C 0.44641 0.56106 0.63226 0.0
C1524 C 0.46783 0.55568 0.61915 0.0
H1525 H 0.22681 0.40229 0.59979 0.0
H1526 H 0.29293 0.44795 0.60117 0.0
C1527 C 0.50654 0.57752 0.61934 0.0
C1528 C 0.40546 0.54036 0.63104 0.0
H1529 H 0.33045 0.453 0.63243 0.0
C1530 C 0.38699 0.55993 0.62679 0.0
C1531 C 0.38485 0.50149 0.63337 0.0
C1532 C 0.40327 0.47944 0.63859 0.0
C1533 C 0.34835 0.5413 0.62411 0.0
C1534 C 0.32783 0.50226 0.62604 0.0
C1535 C 0.34632 0.48293 0.63079 0.0
C1536 C 0.28731 0.48023 0.62273 0.0
C1537 C 0.33002 0.5633 0.61864 0.0
C1538 C 0.26196 0.48436 0.63378 0.0
C1539 C 0.22386 0.45857 0.63273 0.0
C1540 C 0.21103 0.42814 0.62087 0.0
C1541 C 0.23614 0.42562 0.60901 0.0
C1542 C 0.27389 0.45154 0.60986 0.0
H1543 H 0.35055 0.59142 0.61356 0.0
H1544 H 0.30885 0.54859 0.60791 0.0
H1545 H 0.31581 0.56668 0.63066 0.0
H1546 H 0.27178 0.50596 0.644 0.0
H1547 H 0.205 0.46065 0.6422 0.0
H1548 H 0.13628 0.77334 0.90214 0.0
H1549 H 0.11778 0.70752 0.90158 0.0
H1550 H 0.23295 0.73663 0.90187 0.0
H1551 H 0.25177 0.80256 0.90269 0.0
H1552 H 0.13496 0.67093 0.87497 0.0
H1553 H 0.18867 0.65904 0.9424 0.0
H1554 H 0.18325 0.69814 0.93631 0.0
H1555 H 0.2224 0.69521 0.92803 0.0
C1556 C 0.15772 0.76579 0.9023 0.0
C1557 C 0.19553 0.79327 0.90254 0.0
C1558 C 0.14707 0.72813 0.90193 0.0
C1559 C 0.17395 0.71711 0.90188 0.0
C1560 C 0.21171 0.74443 0.90226 0.0
H1561 H 0.15504 0.49817 0.89731 0.0
H1562 H 0.17836 0.56516 0.89679 0.0
C1563 C 0.22241 0.78214 0.90265 0.0
C1564 C 0.16234 0.67708 0.90068 0.0
H1565 H 0.16554 0.60661 0.92303 0.0
C1566 C 0.14158 0.65685 0.88549 0.0
C1567 C 0.17122 0.6588 0.91436 0.0
C1568 C 0.19233 0.67875 0.93128 0.0
C1569 C 0.12955 0.61888 0.88358 0.0
C1570 C 0.13798 0.60047 0.89738 0.0
C1571 C 0.15917 0.62079 0.91245 0.0
C1572 C 0.12389 0.55987 0.89678 0.0
C1573 C 0.10831 0.5989 0.86669 0.0
C1574 C 0.08554 0.53465 0.89697 0.0
C1575 C 0.07214 0.4964 0.89717 0.0
C1576 C 0.09679 0.48247 0.8973 0.0
C1577 C 0.13525 0.50785 0.89695 0.0
C1578 C 0.14865 0.54617 0.89679 0.0
H1579 H 0.11325 0.61857 0.85535 0.0
H1580 H 0.11611 0.5783 0.86207 0.0
H1581 H 0.07812 0.58388 0.86978 0.0
H1582 H 0.06591 0.54456 0.89727 0.0
H1583 H 0.0424 0.47772 0.89729 0.0
H1584 H 0.3632 0.8758 0.65526 0.0
H1585 H 0.40096 0.84592 0.65341 0.0
H1586 H 0.45233 0.90709 0.60428 0.0
H1587 H 0.41408 0.93641 0.60572 0.0
H1588 H 0.40075 0.80231 0.62133 0.0
H1589 H 0.5395 0.92179 0.6387 0.0
H1590 H 0.49662 0.92011 0.64489 0.0
H1591 H 0.51349 0.93081 0.62191 0.0
C1592 C 0.38263 0.88303 0.64409 0.0
C1593 C 0.38538 0.90831 0.63056 0.0
C1594 C 0.40418 0.86598 0.64309 0.0
C1595 C 0.42924 0.87431 0.6287 0.0
C1596 C 0.43325 0.90058 0.61557 0.0
H1597 H 0.58933 0.81535 0.59555 0.0
H1598 H 0.54303 0.835 0.59652 0.0
C1599 C 0.41154 0.9175 0.61649 0.0
C1600 C 0.45018 0.85446 0.62696 0.0
H1601 H 0.53787 0.86773 0.62749 0.0
C1602 C 0.43073 0.81642 0.62275 0.0
C1603 C 0.48913 0.8731 0.62889 0.0
C1604 C 0.51103 0.91365 0.63399 0.0
C1605 C 0.44955 0.79671 0.61981 0.0
C1606 C 0.48865 0.81555 0.62145 0.0
C1607 C 0.50788 0.85342 0.62607 0.0
C1608 C 0.5108 0.79723 0.61821 0.0
C1609 C 0.42765 0.75633 0.61447 0.0
C1610 C 0.50688 0.76807 0.62944 0.0
C1611 C 0.53301 0.75622 0.62862 0.0
C1612 C 0.56359 0.77401 0.61683 0.0
C1613 C 0.56589 0.80123 0.60474 0.0
C1614 C 0.53959 0.81257 0.60534 0.0
H1615 H 0.39953 0.74863 0.60938 0.0
H1616 H 0.44242 0.7498 0.60379 0.0
H1617 H 0.42422 0.73885 0.62656 0.0
H1618 H 0.48521 0.75627 0.63967 0.0
H1619 H 0.53109 0.73557 0.63826 0.0
H1620 H 0.51067 0.64681 0.87422 0.0
H1621 H 0.44318 0.60507 0.87392 0.0
H1622 H 0.45139 0.55002 0.92201 0.0
H1623 H 0.51839 0.592 0.92269 0.0
H1624 H 0.40383 0.52717 0.87147 0.0
H1625 H 0.3702 0.57435 0.93558 0.0
H1626 H 0.41415 0.60101 0.924 0.0
H1627 H 0.4058 0.56227 0.93816 0.0
C1628 C 0.49807 0.62611 0.88484 0.0
C1629 C 0.52007 0.62284 0.89848 0.0
C1630 C 0.45952 0.60216 0.8846 0.0
C1631 C 0.4422 0.57479 0.89809 0.0
C1632 C 0.46406 0.57136 0.91165 0.0
H1633 H 0.23138 0.37122 0.89787 0.0
H1634 H 0.29666 0.41994 0.8974 0.0
C1635 C 0.50251 0.59514 0.91187 0.0
C1636 C 0.40145 0.54887 0.89773 0.0
H1637 H 0.32251 0.51703 0.92326 0.0
C1638 C 0.38598 0.52516 0.88272 0.0
C1639 C 0.3781 0.54659 0.91231 0.0
C1640 C 0.39278 0.57265 0.92836 0.0
C1641 C 0.34803 0.49834 0.88218 0.0
C1642 C 0.32505 0.49484 0.89717 0.0
C1643 C 0.34024 0.51945 0.91188 0.0
C1644 C 0.28535 0.46538 0.89793 0.0
C1645 C 0.33283 0.47404 0.86554 0.0
C1646 C 0.25729 0.47471 0.899 0.0
C1647 C 0.21984 0.44687 0.89937 0.0
C1648 C 0.2098 0.40915 0.89883 0.0
C1649 C 0.23807 0.39995 0.89822 0.0
C1650 C 0.27544 0.42778 0.89782 0.0
H1651 H 0.35115 0.48666 0.85351 0.0
H1652 H 0.33087 0.44687 0.86829 0.0
H1653 H 0.3046 0.46888 0.86215 0.0
H1654 H 0.26436 0.50357 0.89924 0.0
H1655 H 0.1988 0.45494 0.89987 0.0
loop_
_geom_bond_atom_site_label_1
_geom_bond_atom_site_label_2
_geom_bond_distance
_geom_bond_site_symmetry_2
_ccdc_geom_bond_type
Co0 N5 2.057 . S
Co0 O17 2.021 . S
Co0 O20 2.062 . S
Co0 O24 2.117 . S
Co0 O25 2.020 . S
C1 O21 1.259 . S
C1 O24 1.258 . S
Co2 N11 2.057 . S
Co2 O18 2.117 . S
Co2 O19 2.020 . S
Co2 O21 2.021 . S
Co2 O26 2.062 . S
C3 N5 1.316 . S
C3 N6 1.347 . S
C3 H8 0.931 . S
C4 N5 1.375 . S
C4 C7 1.350 . S
C4 H9 0.930 . S
N5 Co0 2.057 . S
N5 C3 1.316 . S
N5 C4 1.375 . S
N6 C3 1.347 . S
N6 C7 1.373 . S
C7 C4 1.350 . S
C7 N6 1.373 . S
C7 H28 0.931 . S
H8 C3 0.931 . S
H9 C4 0.930 . S
C10 O17 1.259 . S
C10 O18 1.258 . S
N11 Co2 2.057 . S
N11 C12 1.316 . S
N11 C13 1.375 . S
C12 N11 1.316 . S
C12 N14 1.347 . S
C12 H23 0.931 . S
C13 N11 1.375 . S
C13 C15 1.350 . S
C13 H22 0.930 . S
N14 C12 1.347 . S
N14 C15 1.373 . S
C15 C13 1.350 . S
C15 N14 1.373 . S
C15 H29 0.931 . S
C16 O19 1.256 . S
C16 O20 1.255 . S
O17 Co0 2.021 . S
O17 C10 1.259 . S
O18 Co2 2.117 . S
O18 C10 1.258 . S
O19 Co2 2.020 . S
O19 C16 1.256 . S
O20 Co0 2.062 . S
O20 C16 1.255 . S
O21 C1 1.259 . S
O21 Co2 2.021 . S
H22 C13 0.930 . S
H23 C12 0.931 . S
O24 Co0 2.117 . S
O24 C1 1.258 . S
O25 Co0 2.020 . S
O25 C27 1.256 . S
O26 Co2 2.062 . S
O26 C27 1.255 . S
C27 O25 1.256 . S
C27 O26 1.255 . S
H28 C7 0.931 . S
H29 C15 0.931 . S
Co30 N35 2.057 . S
Co30 O47 2.021 . S
Co30 O50 2.062 . S
Co30 O54 2.117 . S
Co30 O55 2.020 . S
C31 O51 1.259 . S
C31 O54 1.258 . S
Co32 N41 2.057 . S
Co32 O48 2.117 . S
Co32 O49 2.020 . S
Co32 O51 2.021 . S
Co32 O56 2.062 . S
C33 N35 1.316 . S
C33 N36 1.347 . S
C33 H38 0.931 . S
C34 N35 1.375 . S
C34 C37 1.350 . S
C34 H39 0.930 . S
N35 Co30 2.057 . S
N35 C33 1.316 . S
N35 C34 1.375 . S
N36 C33 1.347 . S
N36 C37 1.373 . S
C37 C34 1.350 . S
C37 N36 1.373 . S
C37 H58 0.931 . S
H38 C33 0.931 . S
H39 C34 0.930 . S
C40 O47 1.259 . S
C40 O48 1.258 . S
N41 Co32 2.057 . S
N41 C42 1.316 . S
N41 C43 1.375 . S
C42 N41 1.316 . S
C42 N44 1.347 . S
C42 H53 0.931 . S
C43 N41 1.375 . S
C43 C45 1.350 . S
C43 H52 0.930 . S
N44 C42 1.347 . S
N44 C45 1.373 . S
C45 C43 1.350 . S
C45 N44 1.373 . S
C45 H59 0.931 . S
C46 O49 1.256 . S
C46 O50 1.255 . S
O47 Co30 2.021 . S
O47 C40 1.259 . S
O48 Co32 2.117 . S
O48 C40 1.258 . S
O49 Co32 2.020 . S
O49 C46 1.256 . S
O50 Co30 2.062 . S
O50 C46 1.255 . S
O51 C31 1.259 . S
O51 Co32 2.021 . S
H52 C43 0.930 . S
H53 C42 0.931 . S
O54 Co30 2.117 . S
O54 C31 1.258 . S
O55 Co30 2.020 . S
O55 C57 1.256 . S
O56 Co32 2.062 . S
O56 C57 1.255 . S
C57 O55 1.256 . S
C57 O56 1.255 . S
H58 C37 0.931 . S
H59 C45 0.931 . S
Co60 N65 2.057 . S
Co60 O77 2.021 . S
Co60 O80 2.062 . S
Co60 O84 2.117 . S
Co60 O85 2.020 . S
C61 O81 1.259 . S
C61 O84 1.258 . S
Co62 N71 2.057 . S
Co62 O78 2.117 . S
Co62 O79 2.020 . S
Co62 O81 2.021 . S
Co62 O86 2.062 . S
C63 N65 1.316 . S
C63 N66 1.347 . S
C63 H68 0.931 . S
C64 N65 1.375 . S
C64 C67 1.350 . S
C64 H69 0.930 . S
N65 Co60 2.057 . S
N65 C63 1.316 . S
N65 C64 1.375 . S
N66 C63 1.347 . S
N66 C67 1.373 . S
C67 C64 1.350 . S
C67 N66 1.373 . S
C67 H88 0.931 . S
H68 C63 0.931 . S
H69 C64 0.930 . S
C70 O77 1.259 . S
C70 O78 1.258 . S
N71 Co62 2.057 . S
N71 C72 1.316 . S
N71 C73 1.375 . S
C72 N71 1.316 . S
C72 N74 1.347 . S
C72 H83 0.931 . S
C73 N71 1.375 . S
C73 C75 1.350 . S
C73 H82 0.930 . S
N74 C72 1.347 . S
N74 C75 1.373 . S
C75 C73 1.350 . S
C75 N74 1.373 . S
C75 H89 0.931 . S
C76 O79 1.256 . S
C76 O80 1.255 . S
O77 Co60 2.021 . S
O77 C70 1.259 . S
O78 Co62 2.117 . S
O78 C70 1.258 . S
O79 Co62 2.020 . S
O79 C76 1.256 . S
O80 Co60 2.062 . S
O80 C76 1.255 . S
O81 C61 1.259 . S
O81 Co62 2.021 . S
H82 C73 0.930 . S
H83 C72 0.931 . S
O84 Co60 2.117 . S
O84 C61 1.258 . S
O85 Co60 2.020 . S
O85 C87 1.256 . S
O86 Co62 2.062 . S
O86 C87 1.255 . S
C87 O85 1.256 . S
C87 O86 1.255 . S
H88 C67 0.931 . S
H89 C75 0.931 . S
Co90 N95 2.057 . S
Co90 O107 2.021 . S
Co90 O110 2.062 . S
Co90 O114 2.117 . S
Co90 O115 2.020 . S
C91 O111 1.259 . S
C91 O114 1.258 . S
Co92 N101 2.057 . S
Co92 O108 2.117 . S
Co92 O109 2.020 . S
Co92 O111 2.021 . S
Co92 O116 2.062 . S
C93 N95 1.316 . S
C93 N96 1.347 1_545 S
C93 H98 0.931 . S
C94 N95 1.375 . S
C94 C97 1.350 1_545 S
C94 H99 0.930 . S
N95 Co90 2.057 . S
N95 C93 1.316 . S
N95 C94 1.375 . S
N96 C93 1.347 1_565 S
N96 C97 1.373 . S
C97 C94 1.350 1_565 S
C97 N96 1.373 . S
C97 H118 0.931 . S
H98 C93 0.931 . S
H99 C94 0.930 . S
C100 O107 1.259 . S
C100 O108 1.258 . S
N101 Co92 2.057 . S
N101 C102 1.316 . S
N101 C103 1.375 . S
C102 N101 1.316 . S
C102 N104 1.347 . S
C102 H113 0.931 . S
C103 N101 1.375 . S
C103 C105 1.350 . S
C103 H112 0.930 . S
N104 C102 1.347 . S
N104 C105 1.373 . S
C105 C103 1.350 . S
C105 N104 1.373 . S
C105 H119 0.931 . S
C106 O109 1.256 . S
C106 O110 1.255 . S
O107 Co90 2.021 . S
O107 C100 1.259 . S
O108 Co92 2.117 . S
O108 C100 1.258 . S
O109 Co92 2.020 . S
O109 C106 1.256 . S
O110 Co90 2.062 . S
O110 C106 1.255 . S
O111 C91 1.259 . S
O111 Co92 2.021 . S
H112 C103 0.930 . S
H113 C102 0.931 . S
O114 Co90 2.117 . S
O114 C91 1.258 . S
O115 Co90 2.020 . S
O115 C117 1.256 . S
O116 Co92 2.062 . S
O116 C117 1.255 . S
C117 O115 1.256 . S
C117 O116 1.255 . S
H118 C97 0.931 . S
H119 C105 0.931 . S
Co120 N125 2.057 . S
Co120 O137 2.021 . S
Co120 O140 2.062 . S
Co120 O144 2.117 . S
Co120 O145 2.020 . S
C121 O141 1.259 . S
C121 O144 1.258 . S
Co122 N131 2.057 . S
Co122 O138 2.117 . S
Co122 O139 2.020 . S
Co122 O141 2.021 . S
Co122 O146 2.062 . S
C123 N125 1.316 . S
C123 N126 1.347 . S
C123 H128 0.931 . S
C124 N125 1.375 . S
C124 C127 1.350 . S
C124 H129 0.930 . S
N125 Co120 2.057 . S
N125 C123 1.316 . S
N125 C124 1.375 . S
N126 C123 1.347 . S
N126 C127 1.373 . S
C127 C124 1.350 . S
C127 N126 1.373 . S
C127 H148 0.931 . S
H128 C123 0.931 . S
H129 C124 0.930 . S
C130 O137 1.259 . S
C130 O138 1.258 . S
N131 Co122 2.057 . S
N131 C132 1.316 . S
N131 C133 1.375 . S
C132 N131 1.316 . S
C132 N134 1.347 . S
C132 H143 0.931 . S
C133 N131 1.375 . S
C133 C135 1.350 . S
C133 H142 0.930 . S
N134 C132 1.347 . S
N134 C135 1.373 . S
C135 C133 1.350 . S
C135 N134 1.373 . S
C135 H149 0.931 . S
C136 O139 1.256 . S
C136 O140 1.255 . S
O137 Co120 2.021 . S
O137 C130 1.259 . S
O138 Co122 2.117 . S
O138 C130 1.258 . S
O139 Co122 2.020 . S
O139 C136 1.256 . S
O140 Co120 2.062 . S
O140 C136 1.255 . S
O141 C121 1.259 . S
O141 Co122 2.021 . S
H142 C133 0.930 . S
H143 C132 0.931 . S
O144 Co120 2.117 . S
O144 C121 1.258 . S
O145 Co120 2.020 . S
O145 C147 1.256 . S
O146 Co122 2.062 . S
O146 C147 1.255 . S
C147 O145 1.256 . S
C147 O146 1.255 . S
H148 C127 0.931 . S
H149 C135 0.931 . S
Co150 N155 2.057 . S
Co150 O167 2.021 . S
Co150 O170 2.062 . S
Co150 O174 2.117 . S
Co150 O175 2.020 . S
C151 O171 1.259 . S
C151 O174 1.258 . S
Co152 N161 2.057 . S
Co152 O168 2.117 . S
Co152 O169 2.020 . S
Co152 O171 2.021 . S
Co152 O176 2.062 . S
C153 N155 1.316 . S
C153 N156 1.347 1_655 S
C153 H158 0.931 . S
C154 N155 1.375 . S
C154 C157 1.350 1_655 S
C154 H159 0.930 . S
N155 Co150 2.057 . S
N155 C153 1.316 . S
N155 C154 1.375 . S
N156 C153 1.347 1_455 S
N156 C157 1.373 . S
C157 C154 1.350 1_455 S
C157 N156 1.373 . S
C157 H178 0.931 . S
H158 C153 0.931 . S
H159 C154 0.930 . S
C160 O167 1.259 . S
C160 O168 1.258 . S
N161 Co152 2.057 . S
N161 C162 1.316 . S
N161 C163 1.375 . S
C162 N161 1.316 . S
C162 N164 1.347 . S
C162 H173 0.931 . S
C163 N161 1.375 . S
C163 C165 1.350 . S
C163 H172 0.930 . S
N164 C162 1.347 . S
N164 C165 1.373 . S
C165 C163 1.350 . S
C165 N164 1.373 . S
C165 H179 0.931 . S
C166 O169 1.256 . S
C166 O170 1.255 . S
O167 Co150 2.021 . S
O167 C160 1.259 . S
O168 Co152 2.117 . S
O168 C160 1.258 . S
O169 Co152 2.020 . S
O169 C166 1.256 . S
O170 Co150 2.062 . S
O170 C166 1.255 . S
O171 C151 1.259 . S
O171 Co152 2.021 . S
H172 C163 0.930 . S
H173 C162 0.931 . S
O174 Co150 2.117 . S
O174 C151 1.258 . S
O175 Co150 2.020 . S
O175 C177 1.256 . S
O176 Co152 2.062 . S
O176 C177 1.255 . S
C177 O175 1.256 . S
C177 O176 1.255 . S
H178 C157 0.931 . S
H179 C165 0.931 . S
Co180 N185 2.057 . S
Co180 O197 2.021 . S
Co180 O200 2.062 . S
Co180 O204 2.117 . S
Co180 O205 2.020 . S
C181 O201 1.259 . S
C181 O204 1.258 . S
Co182 N191 2.057 . S
Co182 O198 2.117 . S
Co182 O199 2.020 . S
Co182 O201 2.021 . S
Co182 O206 2.062 . S
C183 N185 1.316 . S
C183 N186 1.347 . S
C183 H188 0.931 . S
C184 N185 1.375 . S
C184 C187 1.350 . S
C184 H189 0.930 . S
N185 Co180 2.057 . S
N185 C183 1.316 . S
N185 C184 1.375 . S
N186 C183 1.347 . S
N186 C187 1.373 . S
C187 C184 1.350 . S
C187 N186 1.373 . S
C187 H208 0.931 . S
H188 C183 0.931 . S
H189 C184 0.930 . S
C190 O197 1.259 . S
C190 O198 1.258 . S
N191 Co182 2.057 . S
N191 C192 1.316 . S
N191 C193 1.375 . S
C192 N191 1.316 . S
C192 N194 1.347 . S
C192 H203 0.931 . S
C193 N191 1.375 . S
C193 C195 1.350 . S
C193 H202 0.930 . S
N194 C192 1.347 . S
N194 C195 1.373 . S
C195 C193 1.350 . S
C195 N194 1.373 . S
C195 H209 0.931 . S
C196 O199 1.256 . S
C196 O200 1.255 . S
O197 Co180 2.021 . S
O197 C190 1.259 . S
O198 Co182 2.117 . S
O198 C190 1.258 . S
O199 Co182 2.020 . S
O199 C196 1.256 . S
O200 Co180 2.062 . S
O200 C196 1.255 . S
O201 C181 1.259 . S
O201 Co182 2.021 . S
H202 C193 0.930 . S
H203 C192 0.931 . S
O204 Co180 2.117 . S
O204 C181 1.258 . S
O205 Co180 2.020 . S
O205 C207 1.256 . S
O206 Co182 2.062 . S
O206 C207 1.255 . S
C207 O205 1.256 . S
C207 O206 1.255 . S
H208 C187 0.931 . S
H209 C195 0.931 . S
Co210 N215 2.057 . S
Co210 O227 2.021 . S
Co210 O230 2.062 . S
Co210 O234 2.117 . S
Co210 O235 2.020 . S
C211 O231 1.259 . S
C211 O234 1.258 . S
Co212 N221 2.057 . S
Co212 O228 2.117 . S
Co212 O229 2.020 . S
Co212 O231 2.021 . S
Co212 O236 2.062 . S
C213 N215 1.316 . S
C213 N216 1.347 . S
C213 H218 0.931 . S
C214 N215 1.375 . S
C214 C217 1.350 . S
C214 H219 0.930 . S
N215 Co210 2.057 . S
N215 C213 1.316 . S
N215 C214 1.375 . S
N216 C213 1.347 . S
N216 C217 1.373 . S
C217 C214 1.350 . S
C217 N216 1.373 . S
C217 H238 0.931 . S
H218 C213 0.931 . S
H219 C214 0.930 . S
C220 O227 1.259 . S
C220 O228 1.258 . S
N221 Co212 2.057 . S
N221 C222 1.316 . S
N221 C223 1.375 . S
C222 N221 1.316 . S
C222 N224 1.347 . S
C222 H233 0.931 . S
C223 N221 1.375 . S
C223 C225 1.350 . S
C223 H232 0.930 . S
N224 C222 1.347 . S
N224 C225 1.373 . S
C225 C223 1.350 . S
C225 N224 1.373 . S
C225 H239 0.931 . S
C226 O229 1.256 . S
C226 O230 1.255 . S
O227 Co210 2.021 . S
O227 C220 1.259 . S
O228 Co212 2.117 . S
O228 C220 1.258 . S
O229 Co212 2.020 . S
O229 C226 1.256 . S
O230 Co210 2.062 . S
O230 C226 1.255 . S
O231 C211 1.259 . S
O231 Co212 2.021 . S
H232 C223 0.930 . S
H233 C222 0.931 . S
O234 Co210 2.117 . S
O234 C211 1.258 . S
O235 Co210 2.020 . S
O235 C237 1.256 . S
O236 Co212 2.062 . S
O236 C237 1.255 . S
C237 O235 1.256 . S
C237 O236 1.255 . S
H238 C217 0.931 . S
H239 C225 0.931 . S
Co240 N245 2.057 . S
Co240 O257 2.021 . S
Co240 O260 2.062 . S
Co240 O264 2.117 . S
Co240 O265 2.020 . S
C241 O261 1.259 . S
C241 O264 1.258 . S
Co242 N251 2.057 . S
Co242 O258 2.117 . S
Co242 O259 2.020 . S
Co242 O261 2.021 . S
Co242 O266 2.062 . S
C243 N245 1.316 . S
C243 N246 1.347 . S
C243 H248 0.931 . S
C244 N245 1.375 . S
C244 C247 1.350 . S
C244 H249 0.930 . S
N245 Co240 2.057 . S
N245 C243 1.316 . S
N245 C244 1.375 . S
N246 C243 1.347 . S
N246 C247 1.373 . S
C247 C244 1.350 . S
C247 N246 1.373 . S
C247 H268 0.931 . S
H248 C243 0.931 . S
H249 C244 0.930 . S
C250 O257 1.259 . S
C250 O258 1.258 . S
N251 Co242 2.057 . S
N251 C252 1.316 . S
N251 C253 1.375 . S
C252 N251 1.316 . S
C252 N254 1.347 . S
C252 H263 0.931 . S
C253 N251 1.375 . S
C253 C255 1.350 . S
C253 H262 0.930 . S
N254 C252 1.347 . S
N254 C255 1.373 . S
C255 C253 1.350 . S
C255 N254 1.373 . S
C255 H269 0.931 . S
C256 O259 1.256 . S
C256 O260 1.255 . S
O257 Co240 2.021 . S
O257 C250 1.259 . S
O258 Co242 2.117 . S
O258 C250 1.258 . S
O259 Co242 2.020 . S
O259 C256 1.256 . S
O260 Co240 2.062 . S
O260 C256 1.255 . S
O261 C241 1.259 . S
O261 Co242 2.021 . S
H262 C253 0.930 . S
H263 C252 0.931 . S
O264 Co240 2.117 . S
O264 C241 1.258 . S
O265 Co240 2.020 . S
O265 C267 1.256 . S
O266 Co242 2.062 . S
O266 C267 1.255 . S
C267 O265 1.256 . S
C267 O266 1.255 . S
H268 C247 0.931 . S
H269 C255 0.931 . S
Co270 N275 2.057 . S
Co270 O287 2.021 . S
Co270 O290 2.062 . S
Co270 O294 2.117 . S
Co270 O295 2.020 . S
C271 O291 1.259 . S
C271 O294 1.258 . S
Co272 N281 2.057 . S
Co272 O288 2.117 . S
Co272 O289 2.020 . S
Co272 O291 2.021 . S
Co272 O296 2.062 . S
C273 N275 1.316 . S
C273 N276 1.347 . S
C273 H278 0.931 . S
C274 N275 1.375 . S
C274 C277 1.350 . S
C274 H279 0.930 . S
N275 Co270 2.057 . S
N275 C273 1.316 . S
N275 C274 1.375 . S
N276 C273 1.347 . S
N276 C277 1.373 . S
C277 C274 1.350 . S
C277 N276 1.373 . S
C277 H298 0.931 . S
H278 C273 0.931 . S
H279 C274 0.930 . S
C280 O287 1.259 . S
C280 O288 1.258 . S
N281 Co272 2.057 . S
N281 C282 1.316 . S
N281 C283 1.375 . S
C282 N281 1.316 . S
C282 N284 1.347 . S
C282 H293 0.931 . S
C283 N281 1.375 . S
C283 C285 1.350 . S
C283 H292 0.930 . S
N284 C282 1.347 . S
N284 C285 1.373 . S
C285 C283 1.350 . S
C285 N284 1.373 . S
C285 H299 0.931 . S
C286 O289 1.256 . S
C286 O290 1.255 . S
O287 Co270 2.021 . S
O287 C280 1.259 . S
O288 Co272 2.117 . S
O288 C280 1.258 . S
O289 Co272 2.020 . S
O289 C286 1.256 . S
O290 Co270 2.062 . S
O290 C286 1.255 . S
O291 C271 1.259 . S
O291 Co272 2.021 . S
H292 C283 0.930 . S
H293 C282 0.931 . S
O294 Co270 2.117 . S
O294 C271 1.258 . S
O295 Co270 2.020 . S
O295 C297 1.256 . S
O296 Co272 2.062 . S
O296 C297 1.255 . S
C297 O295 1.256 . S
C297 O296 1.255 . S
H298 C277 0.931 . S
H299 C285 0.931 . S
Co300 N305 2.057 . S
Co300 O317 2.021 . S
Co300 O320 2.062 . S
Co300 O324 2.117 . S
Co300 O325 2.020 . S
C301 O321 1.259 . S
C301 O324 1.258 . S
Co302 N311 2.057 . S
Co302 O318 2.117 . S
Co302 O319 2.020 . S
Co302 O321 2.021 . S
Co302 O326 2.062 . S
C303 N305 1.316 . S
C303 N306 1.347 . S
C303 H308 0.931 . S
C304 N305 1.375 . S
C304 C307 1.350 . S
C304 H309 0.930 . S
N305 Co300 2.057 . S
N305 C303 1.316 . S
N305 C304 1.375 . S
N306 C303 1.347 . S
N306 C307 1.373 . S
C307 C304 1.350 . S
C307 N306 1.373 . S
C307 H328 0.931 . S
H308 C303 0.931 . S
H309 C304 0.930 . S
C310 O317 1.259 . S
C310 O318 1.258 . S
N311 Co302 2.057 . S
N311 C312 1.316 . S
N311 C313 1.375 . S
C312 N311 1.316 . S
C312 N314 1.347 . S
C312 H323 0.931 . S
C313 N311 1.375 . S
C313 C315 1.350 . S
C313 H322 0.930 . S
N314 C312 1.347 . S
N314 C315 1.373 . S
C315 C313 1.350 . S
C315 N314 1.373 . S
C315 H329 0.931 . S
C316 O319 1.256 . S
C316 O320 1.255 . S
O317 Co300 2.021 . S
O317 C310 1.259 . S
O318 Co302 2.117 . S
O318 C310 1.258 . S
O319 Co302 2.020 . S
O319 C316 1.256 . S
O320 Co300 2.062 . S
O320 C316 1.255 . S
O321 C301 1.259 . S
O321 Co302 2.021 . S
H322 C313 0.930 . S
H323 C312 0.931 . S
O324 Co300 2.117 . S
O324 C301 1.258 . S
O325 Co300 2.020 . S
O325 C327 1.256 . S
O326 Co302 2.062 . S
O326 C327 1.255 . S
C327 O325 1.256 . S
C327 O326 1.255 . S
H328 C307 0.931 . S
H329 C315 0.931 . S
Co330 N335 2.057 . S
Co330 O347 2.021 . S
Co330 O350 2.062 . S
Co330 O354 2.117 . S
Co330 O355 2.020 . S
C331 O351 1.259 . S
C331 O354 1.258 . S
Co332 N341 2.057 . S
Co332 O348 2.117 . S
Co332 O349 2.020 . S
Co332 O351 2.021 . S
Co332 O356 2.062 . S
C333 N335 1.316 . S
C333 N336 1.347 . S
C333 H338 0.931 . S
C334 N335 1.375 . S
C334 C337 1.350 . S
C334 H339 0.930 . S
N335 Co330 2.057 . S
N335 C333 1.316 . S
N335 C334 1.375 . S
N336 C333 1.347 . S
N336 C337 1.373 . S
C337 C334 1.350 . S
C337 N336 1.373 . S
C337 H358 0.931 . S
H338 C333 0.931 . S
H339 C334 0.930 . S
C340 O347 1.259 . S
C340 O348 1.258 . S
N341 Co332 2.057 . S
N341 C342 1.316 . S
N341 C343 1.375 . S
C342 N341 1.316 . S
C342 N344 1.347 . S
C342 H353 0.931 . S
C343 N341 1.375 . S
C343 C345 1.350 . S
C343 H352 0.930 . S
N344 C342 1.347 . S
N344 C345 1.373 . S
C345 C343 1.350 . S
C345 N344 1.373 . S
C345 H359 0.931 . S
C346 O349 1.256 . S
C346 O350 1.255 . S
O347 Co330 2.021 . S
O347 C340 1.259 . S
O348 Co332 2.117 . S
O348 C340 1.258 . S
O349 Co332 2.020 . S
O349 C346 1.256 . S
O350 Co330 2.062 . S
O350 C346 1.255 . S
O351 C331 1.259 . S
O351 Co332 2.021 . S
H352 C343 0.930 . S
H353 C342 0.931 . S
O354 Co330 2.117 . S
O354 C331 1.258 . S
O355 Co330 2.020 . S
O355 C357 1.256 . S
O356 Co332 2.062 . S
O356 C357 1.255 . S
C357 O355 1.256 . S
C357 O356 1.255 . S
H358 C337 0.931 . S
H359 C345 0.931 . S
H360 C368 0.929 . S
H361 C370 0.930 . S
H362 C372 0.930 . S
H363 C375 0.929 . S
H364 C378 0.930 . S
H365 C380 0.960 . S
H366 C380 0.960 1_655 S
H367 C380 0.960 1_655 S
C368 H360 0.929 . S
C368 C369 1.377 . S
C368 C370 1.384 1_655 S
C369 C368 1.377 . S
C369 C375 1.390 . S
C370 H361 0.930 . S
C370 C368 1.384 1_455 S
C370 C371 1.372 . S
C371 C370 1.372 . S
C371 C372 1.400 1_455 S
C371 C376 1.490 . S
C372 H362 0.930 . S
C372 C371 1.400 1_655 S
C372 C375 1.386 . S
H373 C389 0.930 . S
H374 C390 0.931 . S
C375 H363 0.929 . S
C375 C369 1.390 . S
C375 C372 1.386 . S
C376 C371 1.490 . S
C376 C378 1.395 . S
C376 C379 1.403 . S
H377 C383 0.930 . S
C378 H364 0.930 . S
C378 C376 1.395 . S
C378 C381 1.403 . S
C379 C376 1.403 . S
C379 C380 1.524 . S
C379 C383 1.400 . S
C380 H365 0.960 . S
C380 H366 0.960 1_455 S
C380 H367 0.960 1_455 S
C380 C379 1.524 . S
C381 C378 1.403 . S
C381 C382 1.392 . S
C381 C385 1.495 . S
C382 C381 1.392 . S
C382 C383 1.385 . S
C382 C384 1.478 . S
C383 H377 0.930 . S
C383 C379 1.400 . S
C383 C382 1.385 . S
C384 C382 1.478 . S
C384 C386 1.381 . S
C384 C390 1.383 . S
C385 C381 1.495 . S
C385 H391 0.959 . S
C385 H392 0.961 . S
C385 H393 0.960 . S
C386 C384 1.381 . S
C386 C387 1.394 . S
C386 H394 0.930 . S
C387 C386 1.394 . S
C387 C388 1.383 . S
C387 H395 0.929 . S
C388 C387 1.383 . S
C388 C389 1.377 . S
C389 H373 0.930 . S
C389 C388 1.377 . S
C389 C390 1.379 . S
C390 H374 0.931 . S
C390 C384 1.383 . S
C390 C389 1.379 . S
H391 C385 0.959 . S
H392 C385 0.961 . S
H393 C385 0.960 . S
H394 C386 0.930 . S
H395 C387 0.929 . S
H396 C404 0.929 1_545 S
H397 C406 0.930 . S
H398 C408 0.930 . S
H399 C411 0.929 . S
H400 C414 0.930 . S
H401 C416 0.960 . S
H402 C416 0.960 . S
H403 C416 0.960 . S
C404 H396 0.929 1_565 S
C404 C405 1.377 . S
C404 C406 1.384 . S
C405 C404 1.377 . S
C405 C411 1.390 . S
C406 H397 0.930 . S
C406 C404 1.384 . S
C406 C407 1.372 . S
C407 C406 1.372 . S
C407 C408 1.400 . S
C407 C412 1.490 . S
C408 H398 0.930 . S
C408 C407 1.400 . S
C408 C411 1.386 . S
H409 C425 0.930 . S
H410 C426 0.931 . S
C411 H399 0.929 . S
C411 C405 1.390 . S
C411 C408 1.386 . S
C412 C407 1.490 . S
C412 C414 1.395 . S
C412 C415 1.403 . S
H413 C419 0.930 . S
C414 H400 0.930 . S
C414 C412 1.395 . S
C414 C417 1.403 . S
C415 C412 1.403 . S
C415 C416 1.524 . S
C415 C419 1.400 . S
C416 H401 0.960 . S
C416 H402 0.960 . S
C416 H403 0.960 . S
C416 C415 1.524 . S
C417 C414 1.403 . S
C417 C418 1.392 . S
C417 C421 1.495 1_455 S
C418 C417 1.392 . S
C418 C419 1.385 . S
C418 C420 1.478 1_455 S
C419 H413 0.930 . S
C419 C415 1.400 . S
C419 C418 1.385 . S
C420 C418 1.478 1_655 S
C420 C422 1.381 . S
C420 C426 1.383 . S
C421 C417 1.495 1_655 S
C421 H427 0.959 1_655 S
C421 H428 0.961 . S
C421 H429 0.960 . S
C422 C420 1.381 . S
C422 C423 1.394 . S
C422 H430 0.930 . S
C423 C422 1.394 . S
C423 C424 1.383 . S
C423 H431 0.929 . S
C424 C423 1.383 . S
C424 C425 1.377 . S
C425 H409 0.930 . S
C425 C424 1.377 . S
C425 C426 1.379 . S
C426 H410 0.931 . S
C426 C420 1.383 . S
C426 C425 1.379 . S
H427 C421 0.959 1_455 S
H428 C421 0.961 . S
H429 C421 0.960 . S
H430 C422 0.930 . S
H431 C423 0.929 . S
H432 C440 0.929 . S
H433 C442 0.930 . S
H434 C444 0.930 . S
H435 C447 0.929 . S
H436 C450 0.930 . S
H437 C452 0.960 . S
H438 C452 0.960 . S
H439 C452 0.960 . S
C440 H432 0.929 . S
C440 C441 1.377 . S
C440 C442 1.384 1_545 S
C441 C440 1.377 . S
C441 C447 1.390 . S
C442 H433 0.930 . S
C442 C440 1.384 1_565 S
C442 C443 1.372 . S
C443 C442 1.372 . S
C443 C444 1.400 . S
C443 C448 1.490 . S
C444 H434 0.930 . S
C444 C443 1.400 . S
C444 C447 1.386 1_565 S
H445 C461 0.930 . S
H446 C462 0.931 . S
C447 H435 0.929 . S
C447 C441 1.390 . S
C447 C444 1.386 1_545 S
C448 C443 1.490 . S
C448 C450 1.395 . S
C448 C451 1.403 . S
H449 C455 0.930 . S
C450 H436 0.930 . S
C450 C448 1.395 . S
C450 C453 1.403 . S
C451 C448 1.403 . S
C451 C452 1.524 . S
C451 C455 1.400 . S
C452 H437 0.960 . S
C452 H438 0.960 . S
C452 H439 0.960 . S
C452 C451 1.524 . S
C453 C450 1.403 . S
C453 C454 1.392 . S
C453 C457 1.495 . S
C454 C453 1.392 . S
C454 C455 1.385 . S
C454 C456 1.478 . S
C455 H449 0.930 . S
C455 C451 1.400 . S
C455 C454 1.385 . S
C456 C454 1.478 . S
C456 C458 1.381 . S
C456 C462 1.383 . S
C457 C453 1.495 . S
C457 H463 0.959 . S
C457 H464 0.961 . S
C457 H465 0.960 . S
C458 C456 1.381 . S
C458 C459 1.394 . S
C458 H466 0.930 . S
C459 C458 1.394 . S
C459 C460 1.383 . S
C459 H467 0.929 . S
C460 C459 1.383 . S
C460 C461 1.377 . S
C461 H445 0.930 . S
C461 C460 1.377 . S
C461 C462 1.379 . S
C462 H446 0.931 . S
C462 C456 1.383 . S
C462 C461 1.379 . S
H463 C457 0.959 . S
H464 C457 0.961 . S
H465 C457 0.960 . S
H466 C458 0.930 . S
H467 C459 0.929 . S
H468 C476 0.929 . S
H469 C478 0.930 . S
H470 C480 0.930 . S
H471 C483 0.929 . S
H472 C486 0.930 . S
H473 C488 0.960 . S
H474 C488 0.960 . S
H475 C488 0.960 . S
C476 H468 0.929 . S
C476 C477 1.377 . S
C476 C478 1.384 . S
C477 C476 1.377 . S
C477 C483 1.390 . S
C478 H469 0.930 . S
C478 C476 1.384 . S
C478 C479 1.372 . S
C479 C478 1.372 . S
C479 C480 1.400 . S
C479 C484 1.490 . S
C480 H470 0.930 . S
C480 C479 1.400 . S
C480 C483 1.386 . S
H481 C497 0.930 . S
H482 C498 0.931 . S
C483 H471 0.929 . S
C483 C477 1.390 . S
C483 C480 1.386 . S
C484 C479 1.490 . S
C484 C486 1.395 . S
C484 C487 1.403 . S
H485 C491 0.930 . S
C486 H472 0.930 . S
C486 C484 1.395 . S
C486 C489 1.403 . S
C487 C484 1.403 . S
C487 C488 1.524 . S
C487 C491 1.400 . S
C488 H473 0.960 . S
C488 H474 0.960 . S
C488 H475 0.960 . S
C488 C487 1.524 . S
C489 C486 1.403 . S
C489 C490 1.392 . S
C489 C493 1.495 . S
C490 C489 1.392 . S
C490 C491 1.385 . S
C490 C492 1.478 . S
C491 H485 0.930 . S
C491 C487 1.400 . S
C491 C490 1.385 . S
C492 C490 1.478 . S
C492 C494 1.381 . S
C492 C498 1.383 . S
C493 C489 1.495 . S
C493 H499 0.959 . S
C493 H500 0.961 . S
C493 H501 0.960 . S
C494 C492 1.381 . S
C494 C495 1.394 . S
C494 H502 0.930 . S
C495 C494 1.394 . S
C495 C496 1.383 . S
C495 H503 0.925 1_455 S
C496 C495 1.383 . S
C496 C497 1.377 . S
C497 H481 0.930 . S
C497 C496 1.377 . S
C497 C498 1.379 . S
C498 H482 0.931 . S
C498 C492 1.383 . S
C498 C497 1.379 . S
H499 C493 0.959 . S
H500 C493 0.961 . S
H501 C493 0.960 . S
H502 C494 0.930 . S
H503 C495 0.925 1_655 S
H504 C512 0.929 . S
H505 C514 0.930 . S
H506 C516 0.930 . S
H507 C519 0.929 . S
H508 C522 0.930 . S
H509 C524 0.960 . S
H510 C524 0.960 . S
H511 C524 0.960 1_545 S
C512 H504 0.929 . S
C512 C513 1.377 . S
C512 C514 1.384 1_545 S
C513 C512 1.377 . S
C513 C519 1.390 . S
C514 H505 0.930 . S
C514 C512 1.384 1_565 S
C514 C515 1.372 . S
C515 C514 1.372 . S
C515 C516 1.400 1_565 S
C515 C520 1.490 . S
C516 H506 0.930 . S
C516 C515 1.400 1_545 S
C516 C519 1.386 . S
H517 C533 0.930 . S
H518 C534 0.931 . S
C519 H507 0.929 . S
C519 C513 1.390 . S
C519 C516 1.386 . S
C520 C515 1.490 . S
C520 C522 1.395 . S
C520 C523 1.403 . S
H521 C527 0.930 . S
C522 H508 0.930 . S
C522 C520 1.395 . S
C522 C525 1.403 . S
C523 C520 1.403 . S
C523 C524 1.524 . S
C523 C527 1.400 . S
C524 H509 0.960 . S
C524 H510 0.960 . S
C524 H511 0.960 1_565 S
C524 C523 1.524 . S
C525 C522 1.403 . S
C525 C526 1.392 . S
C525 C529 1.495 . S
C526 C525 1.392 . S
C526 C527 1.385 . S
C526 C528 1.478 . S
C527 H521 0.930 . S
C527 C523 1.400 . S
C527 C526 1.385 . S
C528 C526 1.478 . S
C528 C530 1.381 . S
C528 C534 1.383 . S
C529 C525 1.495 . S
C529 H535 0.959 . S
C529 H536 0.961 . S
C529 H537 0.960 . S
C530 C528 1.381 . S
C530 C531 1.394 1_455 S
C530 H538 0.930 . S
C531 C530 1.394 1_655 S
C531 C532 1.383 . S
C531 H539 0.929 . S
C532 C531 1.383 . S
C532 C533 1.377 . S
C533 H517 0.930 . S
C533 C532 1.377 . S
C533 C534 1.379 1_655 S
C534 H518 0.931 . S
C534 C528 1.383 . S
C534 C533 1.379 1_455 S
H535 C529 0.959 . S
H536 C529 0.961 . S
H537 C529 0.960 . S
H538 C530 0.930 . S
H539 C531 0.929 . S
H540 C548 0.929 . S
H541 C550 0.930 . S
H542 C552 0.930 . S
H543 C555 0.929 . S
H544 C558 0.930 . S
H545 C560 0.960 . S
H546 C560 0.960 . S
H547 C560 0.960 . S
C548 H540 0.929 . S
C548 C549 1.377 . S
C548 C550 1.384 . S
C549 C548 1.377 . S
C549 C555 1.390 . S
C550 H541 0.930 . S
C550 C548 1.384 . S
C550 C551 1.372 . S
C551 C550 1.372 . S
C551 C552 1.400 . S
C551 C556 1.490 . S
C552 H542 0.930 . S
C552 C551 1.400 . S
C552 C555 1.386 . S
H553 C569 0.930 . S
H554 C570 0.931 . S
C555 H543 0.929 . S
C555 C549 1.390 . S
C555 C552 1.386 . S
C556 C551 1.490 . S
C556 C558 1.395 . S
C556 C559 1.403 . S
H557 C563 0.930 . S
C558 H544 0.930 . S
C558 C556 1.395 . S
C558 C561 1.403 . S
C559 C556 1.403 . S
C559 C560 1.524 . S
C559 C563 1.400 . S
C560 H545 0.960 . S
C560 H546 0.960 . S
C560 H547 0.960 . S
C560 C559 1.524 . S
C561 C558 1.403 . S
C561 C562 1.392 . S
C561 C565 1.495 . S
C562 C561 1.392 . S
C562 C563 1.385 . S
C562 C564 1.478 1_565 S
C563 H557 0.930 . S
C563 C559 1.400 . S
C563 C562 1.385 . S
C564 C562 1.478 1_545 S
C564 C566 1.381 . S
C564 C570 1.383 . S
C565 C561 1.495 . S
C565 H571 0.959 . S
C565 H572 0.961 1_565 S
C565 H573 0.960 . S
C566 C564 1.381 . S
C566 C567 1.394 . S
C566 H574 0.930 . S
C567 C566 1.394 . S
C567 C568 1.383 . S
C567 H575 0.929 . S
C568 C567 1.383 . S
C568 C569 1.377 . S
C569 H553 0.930 . S
C569 C568 1.377 . S
C569 C570 1.379 . S
C570 H554 0.931 . S
C570 C564 1.383 . S
C570 C569 1.379 . S
H571 C565 0.959 . S
H572 C565 0.961 1_545 S
H573 C565 0.960 . S
H574 C566 0.930 . S
H575 C567 0.929 . S
H576 C584 0.929 . S
H577 C586 0.930 . S
H578 C588 0.930 . S
H579 C591 0.929 . S
H580 C594 0.930 . S
H581 C596 0.960 . S
H582 C596 0.960 1_565 S
H583 C596 0.960 1_565 S
C584 H576 0.929 . S
C584 C585 1.377 . S
C584 C586 1.384 1_565 S
C585 C584 1.377 . S
C585 C591 1.390 . S
C586 H577 0.930 . S
C586 C584 1.384 1_545 S
C586 C587 1.372 . S
C587 C586 1.372 . S
C587 C588 1.400 1_545 S
C587 C592 1.490 . S
C588 H578 0.930 . S
C588 C587 1.400 1_565 S
C588 C591 1.386 . S
H589 C605 0.930 . S
H590 C606 0.931 . S
C591 H579 0.929 . S
C591 C585 1.390 . S
C591 C588 1.386 . S
C592 C587 1.490 . S
C592 C594 1.395 . S
C592 C595 1.403 . S
H593 C599 0.930 . S
C594 H580 0.930 . S
C594 C592 1.395 . S
C594 C597 1.403 . S
C595 C592 1.403 . S
C595 C596 1.524 . S
C595 C599 1.400 . S
C596 H581 0.960 . S
C596 H582 0.960 1_545 S
C596 H583 0.960 1_545 S
C596 C595 1.524 . S
C597 C594 1.403 . S
C597 C598 1.392 . S
C597 C601 1.495 . S
C598 C597 1.392 . S
C598 C599 1.385 . S
C598 C600 1.478 . S
C599 H593 0.930 . S
C599 C595 1.400 . S
C599 C598 1.385 . S
C600 C598 1.478 . S
C600 C602 1.381 . S
C600 C606 1.383 . S
C601 C597 1.495 . S
C601 H607 0.959 . S
C601 H608 0.961 . S
C601 H609 0.960 . S
C602 C600 1.381 . S
C602 C603 1.394 . S
C602 H610 0.930 . S
C603 C602 1.394 . S
C603 C604 1.383 . S
C603 H611 0.929 . S
C604 C603 1.383 . S
C604 C605 1.377 . S
C605 H589 0.930 . S
C605 C604 1.377 . S
C605 C606 1.379 . S
C606 H590 0.931 . S
C606 C600 1.383 . S
C606 C605 1.379 . S
H607 C601 0.959 . S
H608 C601 0.961 . S
H609 C601 0.960 . S
H610 C602 0.930 . S
H611 C603 0.929 . S
H612 C620 0.929 . S
H613 C622 0.930 . S
H614 C624 0.930 . S
H615 C627 0.929 . S
H616 C630 0.930 . S
H617 C632 0.960 . S
H618 C632 0.960 . S
H619 C632 0.960 . S
C620 H612 0.929 . S
C620 C621 1.377 . S
C620 C622 1.384 1_455 S
C621 C620 1.377 . S
C621 C627 1.390 . S
C622 H613 0.930 . S
C622 C620 1.384 1_655 S
C622 C623 1.372 . S
C623 C622 1.372 . S
C623 C624 1.400 . S
C623 C628 1.490 . S
C624 H614 0.930 . S
C624 C623 1.400 . S
C624 C627 1.386 1_655 S
H625 C641 0.930 . S
H626 C642 0.931 . S
C627 H615 0.929 . S
C627 C621 1.390 . S
C627 C624 1.386 1_455 S
C628 C623 1.490 . S
C628 C630 1.395 . S
C628 C631 1.403 . S
H629 C635 0.930 . S
C630 H616 0.930 . S
C630 C628 1.395 . S
C630 C633 1.403 . S
C631 C628 1.403 . S
C631 C632 1.524 . S
C631 C635 1.400 . S
C632 H617 0.960 . S
C632 H618 0.960 . S
C632 H619 0.960 . S
C632 C631 1.524 . S
C633 C630 1.403 . S
C633 C634 1.392 . S
C633 C637 1.495 . S
C634 C633 1.392 . S
C634 C635 1.385 . S
C634 C636 1.478 . S
C635 H629 0.930 . S
C635 C631 1.400 . S
C635 C634 1.385 . S
C636 C634 1.478 . S
C636 C638 1.381 . S
C636 C642 1.383 . S
C637 C633 1.495 . S
C637 H643 0.959 . S
C637 H644 0.961 . S
C637 H645 0.960 . S
C638 C636 1.381 . S
C638 C639 1.394 . S
C638 H646 0.930 . S
C639 C638 1.394 . S
C639 C640 1.383 . S
C639 H647 0.929 . S
C640 C639 1.383 . S
C640 C641 1.377 . S
C641 H625 0.930 . S
C641 C640 1.377 . S
C641 C642 1.379 . S
C642 H626 0.931 . S
C642 C636 1.383 . S
C642 C641 1.379 . S
H643 C637 0.959 . S
H644 C637 0.961 . S
H645 C637 0.960 . S
H646 C638 0.930 . S
H647 C639 0.929 . S
H648 C656 0.929 . S
H649 C658 0.930 . S
H650 C660 0.930 . S
H651 C663 0.929 . S
H652 C666 0.930 . S
H653 C668 0.960 . S
H654 C668 0.960 . S
H655 C668 0.960 . S
C656 H648 0.929 . S
C656 C657 1.377 . S
C656 C658 1.384 1_565 S
C657 C656 1.377 . S
C657 C663 1.390 . S
C658 H649 0.930 . S
C658 C656 1.384 1_545 S
C658 C659 1.372 . S
C659 C658 1.372 . S
C659 C660 1.400 . S
C659 C664 1.490 . S
C660 H650 0.930 . S
C660 C659 1.400 . S
C660 C663 1.386 1_545 S
H661 C677 0.930 . S
H662 C678 0.942 . S
C663 H651 0.929 . S
C663 C657 1.390 . S
C663 C660 1.386 1_565 S
C664 C659 1.490 . S
C664 C666 1.395 . S
C664 C667 1.403 . S
H665 C671 0.930 . S
C666 H652 0.930 . S
C666 C664 1.395 . S
C666 C669 1.403 . S
C667 C664 1.403 . S
C667 C668 1.524 . S
C667 C671 1.400 . S
C668 H653 0.960 . S
C668 H654 0.960 . S
C668 H655 0.960 . S
C668 C667 1.524 . S
C669 C666 1.403 . S
C669 C670 1.392 . S
C669 C673 1.495 1_655 S
C670 C669 1.392 . S
C670 C671 1.385 . S
C670 C672 1.478 . S
C671 H665 0.930 . S
C671 C667 1.400 . S
C671 C670 1.385 . S
C672 C670 1.478 . S
C672 C674 1.381 1_655 S
C672 C678 1.379 . S
C673 C669 1.495 1_455 S
C673 H679 0.959 1_455 S
C673 H680 0.961 . S
C673 H681 0.960 . S
C674 C672 1.381 1_455 S
C674 C675 1.394 . S
C674 H682 0.930 . S
C675 C674 1.394 . S
C675 C676 1.383 . S
C675 H683 0.929 . S
C676 C675 1.383 . S
C676 C677 1.377 . S
C677 H661 0.930 . S
C677 C676 1.377 . S
C677 C678 1.373 1_455 S
C678 H662 0.942 . S
C678 C672 1.379 . S
C678 C677 1.373 1_655 S
H679 C673 0.959 1_655 S
H680 C673 0.961 . S
H681 C673 0.960 . S
H682 C674 0.930 . S
H683 C675 0.929 . S
H684 C692 0.929 . S
H685 C694 0.930 . S
H686 C696 0.930 . S
H687 C699 0.929 . S
H688 C702 0.930 . S
H689 C704 0.960 . S
H690 C704 0.960 . S
H691 C704 0.960 . S
C692 H684 0.929 . S
C692 C693 1.377 . S
C692 C694 1.384 . S
C693 C692 1.377 . S
C693 C699 1.390 . S
C694 H685 0.930 . S
C694 C692 1.384 . S
C694 C695 1.372 . S
C695 C694 1.372 . S
C695 C696 1.400 . S
C695 C700 1.490 . S
C696 H686 0.930 . S
C696 C695 1.400 . S
C696 C699 1.386 . S
H697 C713 0.930 . S
H698 C714 0.931 . S
C699 H687 0.929 . S
C699 C693 1.390 . S
C699 C696 1.386 . S
C700 C695 1.490 . S
C700 C702 1.395 . S
C700 C703 1.403 . S
H701 C707 0.930 . S
C702 H688 0.930 . S
C702 C700 1.395 . S
C702 C705 1.403 . S
C703 C700 1.403 . S
C703 C704 1.524 . S
C703 C707 1.400 . S
C704 H689 0.960 . S
C704 H690 0.960 . S
C704 H691 0.960 . S
C704 C703 1.524 . S
C705 C702 1.403 . S
C705 C706 1.392 . S
C705 C709 1.495 . S
C706 C705 1.392 . S
C706 C707 1.385 . S
C706 C708 1.478 . S
C707 H701 0.930 . S
C707 C703 1.400 . S
C707 C706 1.385 . S
C708 C706 1.478 . S
C708 C710 1.381 . S
C708 C714 1.383 1_545 S
C709 C705 1.495 . S
C709 H715 0.959 . S
C709 H716 0.961 . S
C709 H717 0.960 . S
C710 C708 1.381 . S
C710 C711 1.394 1_545 S
C710 H718 0.930 . S
C711 C710 1.394 1_565 S
C711 C712 1.383 . S
C711 H719 0.929 . S
C712 C711 1.383 . S
C712 C713 1.377 . S
C713 H697 0.930 . S
C713 C712 1.377 . S
C713 C714 1.379 . S
C714 H698 0.931 . S
C714 C708 1.383 1_565 S
C714 C713 1.379 . S
H715 C709 0.959 . S
H716 C709 0.961 . S
H717 C709 0.960 . S
H718 C710 0.930 . S
H719 C711 0.929 . S
H720 C728 0.929 . S
H721 C730 0.930 . S
H722 C732 0.930 . S
H723 C735 0.929 . S
H724 C738 0.930 . S
H725 C740 0.960 . S
H726 C740 0.960 . S
H727 C740 0.960 . S
C728 H720 0.929 . S
C728 C729 1.377 . S
C728 C730 1.384 1_455 S
C729 C728 1.377 . S
C729 C735 1.390 . S
C730 H721 0.930 . S
C730 C728 1.384 1_655 S
C730 C731 1.372 . S
C731 C730 1.372 . S
C731 C732 1.400 . S
C731 C736 1.490 . S
C732 H722 0.930 . S
C732 C731 1.400 . S
C732 C735 1.386 1_655 S
H733 C749 0.930 . S
H734 C750 0.931 . S
C735 H723 0.929 . S
C735 C729 1.390 . S
C735 C732 1.386 1_455 S
C736 C731 1.490 . S
C736 C738 1.395 . S
C736 C739 1.403 . S
H737 C743 0.930 . S
C738 H724 0.930 . S
C738 C736 1.395 . S
C738 C741 1.403 . S
C739 C736 1.403 . S
C739 C740 1.524 . S
C739 C743 1.400 . S
C740 H725 0.960 . S
C740 H726 0.960 . S
C740 H727 0.960 . S
C740 C739 1.524 . S
C741 C738 1.403 . S
C741 C742 1.392 . S
C741 C745 1.495 . S
C742 C741 1.392 . S
C742 C743 1.385 . S
C742 C744 1.478 . S
C743 H737 0.930 . S
C743 C739 1.400 . S
C743 C742 1.385 . S
C744 C742 1.478 . S
C744 C746 1.381 . S
C744 C750 1.383 . S
C745 C741 1.495 . S
C745 H751 0.959 . S
C745 H752 0.961 . S
C745 H753 0.960 . S
C746 C744 1.381 . S
C746 C747 1.394 . S
C746 H754 0.930 . S
C747 C746 1.394 . S
C747 C748 1.383 . S
C747 H755 0.929 . S
C748 C747 1.383 . S
C748 C749 1.377 . S
C749 H733 0.930 . S
C749 C748 1.377 . S
C749 C750 1.379 . S
C750 H734 0.931 . S
C750 C744 1.383 . S
C750 C749 1.379 . S
H751 C745 0.959 . S
H752 C745 0.961 . S
H753 C745 0.960 . S
H754 C746 0.930 . S
H755 C747 0.929 . S
H756 C764 0.929 . S
H757 C766 0.930 . S
H758 C768 0.930 . S
H759 C771 0.929 . S
H760 C774 0.930 . S
H761 C776 0.960 . S
H762 C776 0.960 . S
H763 C776 0.960 . S
C764 H756 0.929 . S
C764 C765 1.377 . S
C764 C766 1.384 1_455 S
C765 C764 1.377 . S
C765 C771 1.390 . S
C766 H757 0.930 . S
C766 C764 1.384 1_655 S
C766 C767 1.372 . S
C767 C766 1.372 . S
C767 C768 1.400 1_655 S
C767 C772 1.490 . S
C768 H758 0.930 . S
C768 C767 1.400 1_455 S
C768 C771 1.386 . S
H769 C785 0.930 . S
H770 C786 0.931 . S
C771 H759 0.929 . S
C771 C765 1.390 . S
C771 C768 1.386 . S
C772 C767 1.490 . S
C772 C774 1.395 . S
C772 C775 1.403 . S
H773 C779 0.930 . S
C774 H760 0.930 . S
C774 C772 1.395 . S
C774 C777 1.403 . S
C775 C772 1.403 . S
C775 C776 1.524 . S
C775 C779 1.400 . S
C776 H761 0.960 . S
C776 H762 0.960 . S
C776 H763 0.960 . S
C776 C775 1.524 . S
C777 C774 1.403 . S
C777 C778 1.392 . S
C777 C781 1.495 . S
C778 C777 1.392 . S
C778 C779 1.385 . S
C778 C780 1.478 . S
C779 H773 0.930 . S
C779 C775 1.400 . S
C779 C778 1.385 . S
C780 C778 1.478 . S
C780 C782 1.381 . S
C780 C786 1.383 . S
C781 C777 1.495 . S
C781 H787 0.959 . S
C781 H788 0.961 . S
C781 H789 0.960 . S
C782 C780 1.381 . S
C782 C783 1.394 1_545 S
C782 H790 0.930 . S
C783 C782 1.394 1_565 S
C783 C784 1.383 . S
C783 H791 0.929 . S
C784 C783 1.383 . S
C784 C785 1.377 . S
C785 H769 0.930 . S
C785 C784 1.377 . S
C785 C786 1.379 1_565 S
C786 H770 0.931 . S
C786 C780 1.383 . S
C786 C785 1.379 1_545 S
H787 C781 0.959 . S
H788 C781 0.961 . S
H789 C781 0.960 . S
H790 C782 0.930 . S
H791 C783 0.929 . S
H792 C800 0.929 . S
H793 C802 0.930 . S
H794 C804 0.930 . S
H795 C807 0.929 . S
H796 C810 0.930 . S
H797 C812 0.960 . S
H798 C812 0.960 . S
H799 C812 0.960 . S
C800 H792 0.929 . S
C800 C801 1.377 . S
C800 C802 1.384 . S
C801 C800 1.377 . S
C801 C807 1.390 . S
C802 H793 0.930 . S
C802 C800 1.384 . S
C802 C803 1.372 . S
C803 C802 1.372 . S
C803 C804 1.400 . S
C803 C808 1.490 . S
C804 H794 0.930 . S
C804 C803 1.400 . S
C804 C807 1.386 . S
H805 C821 0.930 . S
H806 C822 0.931 . S
C807 H795 0.929 . S
C807 C801 1.390 . S
C807 C804 1.386 . S
C808 C803 1.490 . S
C808 C810 1.395 . S
C808 C811 1.403 . S
H809 C815 0.930 . S
C810 H796 0.930 . S
C810 C808 1.395 . S
C810 C813 1.403 . S
C811 C808 1.403 . S
C811 C812 1.524 . S
C811 C815 1.400 . S
C812 H797 0.960 . S
C812 H798 0.960 . S
C812 H799 0.960 . S
C812 C811 1.524 . S
C813 C810 1.403 . S
C813 C814 1.392 . S
C813 C817 1.495 . S
C814 C813 1.392 . S
C814 C815 1.385 . S
C814 C816 1.478 . S
C815 H809 0.930 . S
C815 C811 1.400 . S
C815 C814 1.385 . S
C816 C814 1.478 . S
C816 C818 1.381 . S
C816 C822 1.383 . S
C817 C813 1.495 . S
C817 H823 0.959 . S
C817 H824 0.961 . S
C817 H825 0.960 . S
C818 C816 1.381 . S
C818 C819 1.394 . S
C818 H826 0.930 . S
C819 C818 1.394 . S
C819 C820 1.383 . S
C819 H827 0.929 . S
C820 C819 1.383 . S
C820 C821 1.377 . S
C821 H805 0.930 . S
C821 C820 1.377 . S
C821 C822 1.379 . S
C822 H806 0.931 . S
C822 C816 1.383 . S
C822 C821 1.379 . S
H823 C817 0.959 . S
H824 C817 0.961 . S
H825 C817 0.960 . S
H826 C818 0.930 . S
H827 C819 0.929 . S
H828 C836 0.929 . S
H829 C838 0.930 . S
H830 C840 0.930 . S
H831 C843 0.929 . S
H832 C846 0.930 . S
H833 C848 0.960 . S
H834 C848 0.960 . S
H835 C848 0.960 . S
C836 H828 0.929 . S
C836 C837 1.377 . S
C836 C838 1.384 . S
C837 C836 1.377 . S
C837 C843 1.390 . S
C838 H829 0.930 . S
C838 C836 1.384 . S
C838 C839 1.372 . S
C839 C838 1.372 . S
C839 C840 1.400 . S
C839 C844 1.490 . S
C840 H830 0.930 . S
C840 C839 1.400 . S
C840 C843 1.386 . S
H841 C857 0.930 . S
H842 C858 0.931 . S
C843 H831 0.929 . S
C843 C837 1.390 . S
C843 C840 1.386 . S
C844 C839 1.490 . S
C844 C846 1.395 . S
C844 C847 1.403 . S
H845 C851 0.930 . S
C846 H832 0.930 . S
C846 C844 1.395 . S
C846 C849 1.403 . S
C847 C844 1.403 . S
C847 C848 1.524 . S
C847 C851 1.400 . S
C848 H833 0.960 . S
C848 H834 0.960 . S
C848 H835 0.960 . S
C848 C847 1.524 . S
C849 C846 1.403 . S
C849 C850 1.392 . S
C849 C853 1.495 . S
C850 C849 1.392 . S
C850 C851 1.385 . S
C850 C852 1.478 . S
C851 H845 0.930 . S
C851 C847 1.400 . S
C851 C850 1.385 . S
C852 C850 1.478 . S
C852 C854 1.381 . S
C852 C858 1.383 . S
C853 C849 1.495 . S
C853 H859 0.959 . S
C853 H860 0.961 . S
C853 H861 0.960 . S
C854 C852 1.381 . S
C854 C855 1.394 . S
C854 H862 0.930 . S
C855 C854 1.394 . S
C855 C856 1.383 . S
C855 H863 0.929 . S
C856 C855 1.383 . S
C856 C857 1.377 . S
C857 H841 0.930 . S
C857 C856 1.377 . S
C857 C858 1.379 . S
C858 H842 0.931 . S
C858 C852 1.383 . S
C858 C857 1.379 . S
H859 C853 0.959 . S
H860 C853 0.961 . S
H861 C853 0.960 . S
H862 C854 0.930 . S
H863 C855 0.929 . S
H864 C872 0.929 . S
H865 C874 0.930 . S
H866 C876 0.930 . S
H867 C879 0.929 . S
H868 C882 0.930 . S
H869 C884 0.960 . S
H870 C884 0.960 . S
H871 C884 0.960 . S
C872 H864 0.929 . S
C872 C873 1.377 . S
C872 C874 1.384 . S
C873 C872 1.377 . S
C873 C879 1.390 . S
C874 H865 0.930 . S
C874 C872 1.384 . S
C874 C875 1.372 . S
C875 C874 1.372 . S
C875 C876 1.400 . S
C875 C880 1.490 . S
C876 H866 0.930 . S
C876 C875 1.400 . S
C876 C879 1.386 . S
H877 C893 0.930 . S
H878 C894 0.931 . S
C879 H867 0.929 . S
C879 C873 1.390 . S
C879 C876 1.386 . S
C880 C875 1.490 . S
C880 C882 1.395 . S
C880 C883 1.403 . S
H881 C887 0.930 . S
C882 H868 0.930 . S
C882 C880 1.395 . S
C882 C885 1.403 . S
C883 C880 1.403 . S
C883 C884 1.524 . S
C883 C887 1.400 . S
C884 H869 0.960 . S
C884 H870 0.960 . S
C884 H871 0.960 . S
C884 C883 1.524 . S
C885 C882 1.403 . S
C885 C886 1.392 . S
C885 C889 1.495 . S
C886 C885 1.392 . S
C886 C887 1.385 . S
C886 C888 1.478 . S
C887 H881 0.930 . S
C887 C883 1.400 . S
C887 C886 1.385 . S
C888 C886 1.478 . S
C888 C890 1.381 . S
C888 C894 1.383 . S
C889 C885 1.495 . S
C889 H895 0.959 . S
C889 H896 0.961 . S
C889 H897 0.960 . S
C890 C888 1.381 . S
C890 C891 1.394 . S
C890 H898 0.930 . S
C891 C890 1.394 . S
C891 C892 1.383 . S
C891 H899 0.929 . S
C892 C891 1.383 . S
C892 C893 1.377 . S
C893 H877 0.930 . S
C893 C892 1.377 . S
C893 C894 1.379 . S
C894 H878 0.931 . S
C894 C888 1.383 . S
C894 C893 1.379 . S
H895 C889 0.959 . S
H896 C889 0.961 . S
H897 C889 0.960 . S
H898 C890 0.930 . S
H899 C891 0.929 . S
H900 C908 0.929 . S
H901 C910 0.930 . S
H902 C912 0.930 . S
H903 C915 0.929 . S
H904 C918 0.930 . S
H905 C920 0.960 . S
H906 C920 0.960 . S
H907 C920 0.960 . S
C908 H900 0.929 . S
C908 C909 1.377 . S
C908 C910 1.384 . S
C909 C908 1.377 . S
C909 C915 1.390 . S
C910 H901 0.930 . S
C910 C908 1.384 . S
C910 C911 1.372 . S
C911 C910 1.372 . S
C911 C912 1.400 . S
C911 C916 1.490 . S
C912 H902 0.930 . S
C912 C911 1.400 . S
C912 C915 1.386 . S
H913 C929 0.930 . S
H914 C930 0.931 . S
C915 H903 0.929 . S
C915 C909 1.390 . S
C915 C912 1.386 . S
C916 C911 1.490 . S
C916 C918 1.395 . S
C916 C919 1.403 . S
H917 C923 0.930 . S
C918 H904 0.930 . S
C918 C916 1.395 . S
C918 C921 1.403 . S
C919 C916 1.403 . S
C919 C920 1.524 . S
C919 C923 1.400 . S
C920 H905 0.960 . S
C920 H906 0.960 . S
C920 H907 0.960 . S
C920 C919 1.524 . S
C921 C918 1.403 . S
C921 C922 1.392 . S
C921 C925 1.495 . S
C922 C921 1.392 . S
C922 C923 1.385 . S
C922 C924 1.478 . S
C923 H917 0.930 . S
C923 C919 1.400 . S
C923 C922 1.385 . S
C924 C922 1.478 . S
C924 C926 1.381 . S
C924 C930 1.383 . S
C925 C921 1.495 . S
C925 H931 0.959 . S
C925 H932 0.961 . S
C925 H933 0.960 . S
C926 C924 1.381 . S
C926 C927 1.394 . S
C926 H934 0.930 . S
C927 C926 1.394 . S
C927 C928 1.383 . S
C927 H935 0.929 . S
C928 C927 1.383 . S
C928 C929 1.377 . S
C929 H913 0.930 . S
C929 C928 1.377 . S
C929 C930 1.379 . S
C930 H914 0.931 . S
C930 C924 1.383 . S
C930 C929 1.379 . S
H931 C925 0.959 . S
H932 C925 0.961 . S
H933 C925 0.960 . S
H934 C926 0.930 . S
H935 C927 0.929 . S
H936 C944 0.929 . S
H937 C946 0.930 . S
H938 C948 0.930 . S
H939 C951 0.929 . S
H940 C954 0.930 . S
H941 C956 0.960 . S
H942 C956 0.960 . S
H943 C956 0.960 . S
C944 H936 0.929 . S
C944 C945 1.377 . S
C944 C946 1.384 . S
C945 C944 1.377 . S
C945 C951 1.390 . S
C946 H937 0.930 . S
C946 C944 1.384 . S
C946 C947 1.372 . S
C947 C946 1.372 . S
C947 C948 1.400 . S
C947 C952 1.490 . S
C948 H938 0.930 . S
C948 C947 1.400 . S
C948 C951 1.386 . S
H949 C965 0.930 . S
H950 C966 0.931 . S
C951 H939 0.929 . S
C951 C945 1.390 . S
C951 C948 1.386 . S
C952 C947 1.490 . S
C952 C954 1.395 . S
C952 C955 1.403 . S
H953 C959 0.930 . S
C954 H940 0.930 . S
C954 C952 1.395 . S
C954 C957 1.403 . S
C955 C952 1.403 . S
C955 C956 1.524 . S
C955 C959 1.400 . S
C956 H941 0.960 . S
C956 H942 0.960 . S
C956 H943 0.960 . S
C956 C955 1.524 . S
C957 C954 1.403 . S
C957 C958 1.392 . S
C957 C961 1.495 . S
C958 C957 1.392 . S
C958 C959 1.385 . S
C958 C960 1.478 . S
C959 H953 0.930 . S
C959 C955 1.400 . S
C959 C958 1.385 . S
C960 C958 1.478 . S
C960 C962 1.381 . S
C960 C966 1.383 . S
C961 C957 1.495 . S
C961 H967 0.959 . S
C961 H968 0.961 . S
C961 H969 0.960 . S
C962 C960 1.381 . S
C962 C963 1.394 . S
C962 H970 0.930 . S
C963 C962 1.394 . S
C963 C964 1.383 . S
C963 H971 0.929 . S
C964 C963 1.383 . S
C964 C965 1.377 . S
C965 H949 0.930 . S
C965 C964 1.377 . S
C965 C966 1.379 . S
C966 H950 0.931 . S
C966 C960 1.383 . S
C966 C965 1.379 . S
H967 C961 0.959 . S
H968 C961 0.961 . S
H969 C961 0.960 . S
H970 C962 0.930 . S
H971 C963 0.929 . S
H972 C980 0.929 . S
H973 C982 0.930 . S
H974 C984 0.930 . S
H975 C987 0.929 . S
H976 C990 0.930 . S
H977 C992 0.960 . S
H978 C992 0.960 . S
H979 C992 0.960 . S
C980 H972 0.929 . S
C980 C981 1.377 . S
C980 C982 1.384 . S
C981 C980 1.377 . S
C981 C987 1.390 . S
C982 H973 0.930 . S
C982 C980 1.384 . S
C982 C983 1.372 . S
C983 C982 1.372 . S
C983 C984 1.400 . S
C983 C988 1.490 . S
C984 H974 0.930 . S
C984 C983 1.400 . S
C984 C987 1.386 . S
H985 C1001 0.930 . S
H986 C1002 0.931 . S
C987 H975 0.929 . S
C987 C981 1.390 . S
C987 C984 1.386 . S
C988 C983 1.490 . S
C988 C990 1.395 . S
C988 C991 1.403 . S
H989 C995 0.930 . S
C990 H976 0.930 . S
C990 C988 1.395 . S
C990 C993 1.403 . S
C991 C988 1.403 . S
C991 C992 1.524 . S
C991 C995 1.400 . S
C992 H977 0.960 . S
C992 H978 0.960 . S
C992 H979 0.960 . S
C992 C991 1.524 . S
C993 C990 1.403 . S
C993 C994 1.392 . S
C993 C997 1.495 . S
C994 C993 1.392 . S
C994 C995 1.385 . S
C994 C996 1.478 . S
C995 H989 0.930 . S
C995 C991 1.400 . S
C995 C994 1.385 . S
C996 C994 1.478 . S
C996 C998 1.381 . S
C996 C1002 1.383 . S
C997 C993 1.495 . S
C997 H1003 0.959 . S
C997 H1004 0.961 . S
C997 H1005 0.960 . S
C998 C996 1.381 . S
C998 C999 1.394 . S
C998 H1006 0.930 . S
C999 C998 1.394 . S
C999 C1000 1.383 . S
C999 H1007 0.929 . S
C1000 C999 1.383 . S
C1000 C1001 1.377 . S
C1001 H985 0.930 . S
C1001 C1000 1.377 . S
C1001 C1002 1.379 . S
C1002 H986 0.931 . S
C1002 C996 1.383 . S
C1002 C1001 1.379 . S
H1003 C997 0.959 . S
H1004 C997 0.961 . S
H1005 C997 0.960 . S
H1006 C998 0.930 . S
H1007 C999 0.929 . S
H1008 C1016 0.929 . S
H1009 C1018 0.930 . S
H1010 C1020 0.930 . S
H1011 C1023 0.929 . S
H1012 C1026 0.930 . S
H1013 C1028 0.960 . S
H1014 C1028 0.960 . S
H1015 C1028 0.960 . S
C1016 H1008 0.929 . S
C1016 C1017 1.377 . S
C1016 C1018 1.384 . S
C1017 C1016 1.377 . S
C1017 C1023 1.390 . S
C1018 H1009 0.930 . S
C1018 C1016 1.384 . S
C1018 C1019 1.372 . S
C1019 C1018 1.372 . S
C1019 C1020 1.400 . S
C1019 C1024 1.490 . S
C1020 H1010 0.930 . S
C1020 C1019 1.400 . S
C1020 C1023 1.386 . S
H1021 C1037 0.930 . S
H1022 C1038 0.931 . S
C1023 H1011 0.929 . S
C1023 C1017 1.390 . S
C1023 C1020 1.386 . S
C1024 C1019 1.490 . S
C1024 C1026 1.395 1_556 S
C1024 C1027 1.403 1_565 S
H1025 C1031 0.929 1_556 S
C1026 H1012 0.930 . S
C1026 C1024 1.395 1_554 S
C1026 C1029 1.403 . S
C1027 C1024 1.403 1_545 S
C1027 C1028 1.524 . S
C1027 C1031 1.380 1_556 S
C1028 H1013 0.960 . S
C1028 H1014 0.960 . S
C1028 H1015 0.960 . S
C1028 C1027 1.524 . S
C1029 C1026 1.403 . S
C1029 C1030 1.392 1_565 S
C1029 C1033 1.495 . S
C1030 C1029 1.392 1_545 S
C1030 C1031 1.406 . S
C1030 C1032 1.478 . S
C1031 H1025 0.929 1_554 S
C1031 C1027 1.380 1_554 S
C1031 C1030 1.406 . S
C1032 C1030 1.478 . S
C1032 C1034 1.381 . S
C1032 C1038 1.383 . S
C1033 C1029 1.495 . S
C1033 H1039 0.959 . S
C1033 H1040 0.961 . S
C1033 H1041 0.960 . S
C1034 C1032 1.381 . S
C1034 C1035 1.394 . S
C1034 H1042 0.930 . S
C1035 C1034 1.394 . S
C1035 C1036 1.383 . S
C1035 H1043 0.929 . S
C1036 C1035 1.383 . S
C1036 C1037 1.377 . S
C1037 H1021 0.930 . S
C1037 C1036 1.377 . S
C1037 C1038 1.379 . S
C1038 H1022 0.931 . S
C1038 C1032 1.383 . S
C1038 C1037 1.379 . S
H1039 C1033 0.959 . S
H1040 C1033 0.961 . S
H1041 C1033 0.960 . S
H1042 C1034 0.930 . S
H1043 C1035 0.929 . S
H1044 C1052 0.929 . S
H1045 C1054 0.930 . S
H1046 C1056 0.930 . S
H1047 C1059 0.929 . S
H1048 C1062 0.930 . S
H1049 C1064 0.960 . S
H1050 C1064 0.960 . S
H1051 C1064 0.960 . S
C1052 H1044 0.929 . S
C1052 C1053 1.377 . S
C1052 C1054 1.384 . S
C1053 C1052 1.377 . S
C1053 C1059 1.390 . S
C1054 H1045 0.930 . S
C1054 C1052 1.384 . S
C1054 C1055 1.372 . S
C1055 C1054 1.372 . S
C1055 C1056 1.400 . S
C1055 C1060 1.490 . S
C1056 H1046 0.930 . S
C1056 C1055 1.400 . S
C1056 C1059 1.386 . S
H1057 C1073 0.930 . S
H1058 C1074 0.931 . S
C1059 H1047 0.929 . S
C1059 C1053 1.390 . S
C1059 C1056 1.386 . S
C1060 C1055 1.490 . S
C1060 C1062 1.395 . S
C1060 C1063 1.403 . S
H1061 C1067 0.930 . S
C1062 H1048 0.930 . S
C1062 C1060 1.395 . S
C1062 C1065 1.403 . S
C1063 C1060 1.403 . S
C1063 C1064 1.524 . S
C1063 C1067 1.400 . S
C1064 H1049 0.960 . S
C1064 H1050 0.960 . S
C1064 H1051 0.960 . S
C1064 C1063 1.524 . S
C1065 C1062 1.403 . S
C1065 C1066 1.392 . S
C1065 C1069 1.495 . S
C1066 C1065 1.392 . S
C1066 C1067 1.385 . S
C1066 C1068 1.478 . S
C1067 H1061 0.930 . S
C1067 C1063 1.400 . S
C1067 C1066 1.385 . S
C1068 C1066 1.478 . S
C1068 C1070 1.381 . S
C1068 C1074 1.383 . S
C1069 C1065 1.495 . S
C1069 H1075 0.959 . S
C1069 H1076 0.961 . S
C1069 H1077 0.960 . S
C1070 C1068 1.381 . S
C1070 C1071 1.394 . S
C1070 H1078 0.930 . S
C1071 C1070 1.394 . S
C1071 C1072 1.383 . S
C1071 H1079 0.929 . S
C1072 C1071 1.383 . S
C1072 C1073 1.377 . S
C1073 H1057 0.930 . S
C1073 C1072 1.377 . S
C1073 C1074 1.379 . S
C1074 H1058 0.931 . S
C1074 C1068 1.383 . S
C1074 C1073 1.379 . S
H1075 C1069 0.959 . S
H1076 C1069 0.961 . S
H1077 C1069 0.960 . S
H1078 C1070 0.930 . S
H1079 C1071 0.929 . S
H1080 C1088 0.929 . S
H1081 C1090 0.930 . S
H1082 C1092 0.930 . S
H1083 C1095 0.929 . S
H1084 C1098 0.930 . S
H1085 C1100 0.960 . S
H1086 C1100 0.960 . S
H1087 C1100 0.960 . S
C1088 H1080 0.929 . S
C1088 C1089 1.377 . S
C1088 C1090 1.384 . S
C1089 C1088 1.377 . S
C1089 C1095 1.390 . S
C1090 H1081 0.930 . S
C1090 C1088 1.384 . S
C1090 C1091 1.372 . S
C1091 C1090 1.372 . S
C1091 C1092 1.400 . S
C1091 C1096 1.490 . S
C1092 H1082 0.930 . S
C1092 C1091 1.400 . S
C1092 C1095 1.386 . S
H1093 C1109 0.930 . S
H1094 C1110 0.931 . S
C1095 H1083 0.929 . S
C1095 C1089 1.390 . S
C1095 C1092 1.386 . S
C1096 C1091 1.490 . S
C1096 C1098 1.343 1_556 S
C1096 C1099 1.403 1_455 S
H1097 C1103 0.930 . S
C1098 H1084 0.930 . S
C1098 C1096 1.343 1_554 S
C1098 C1101 1.457 . S
C1099 C1096 1.403 1_655 S
C1099 C1100 1.524 . S
C1099 C1103 1.400 1_556 S
C1100 H1085 0.960 . S
C1100 H1086 0.960 . S
C1100 H1087 0.960 . S
C1100 C1099 1.524 . S
C1101 C1098 1.457 . S
C1101 C1102 1.392 1_455 S
C1101 C1105 1.495 . S
C1102 C1101 1.392 1_655 S
C1102 C1103 1.385 . S
C1102 C1104 1.478 . S
C1103 H1097 0.930 . S
C1103 C1099 1.400 1_554 S
C1103 C1102 1.385 . S
C1104 C1102 1.478 . S
C1104 C1106 1.381 . S
C1104 C1110 1.383 . S
C1105 C1101 1.495 . S
C1105 H1111 0.959 . S
C1105 H1112 0.961 . S
C1105 H1113 0.960 . S
C1106 C1104 1.381 . S
C1106 C1107 1.394 . S
C1106 H1114 0.930 . S
C1107 C1106 1.394 . S
C1107 C1108 1.383 . S
C1107 H1115 0.929 . S
C1108 C1107 1.383 . S
C1108 C1109 1.377 . S
C1109 H1093 0.930 . S
C1109 C1108 1.377 . S
C1109 C1110 1.379 . S
C1110 H1094 0.931 . S
C1110 C1104 1.383 . S
C1110 C1109 1.379 . S
H1111 C1105 0.959 . S
H1112 C1105 0.961 . S
H1113 C1105 0.960 . S
H1114 C1106 0.930 . S
H1115 C1107 0.929 . S
H1116 C1124 0.929 . S
H1117 C1126 0.930 . S
H1118 C1128 0.930 . S
H1119 C1131 0.929 . S
H1120 C1134 0.930 . S
H1121 C1136 0.961 . S
H1122 C1136 0.961 . S
H1123 C1136 0.957 1_545 S
C1124 H1116 0.929 . S
C1124 C1125 1.377 . S
C1124 C1126 1.384 . S
C1125 C1124 1.377 . S
C1125 C1131 1.390 . S
C1126 H1117 0.930 . S
C1126 C1124 1.384 . S
C1126 C1127 1.372 . S
C1127 C1126 1.372 . S
C1127 C1128 1.400 . S
C1127 C1132 1.490 . S
C1128 H1118 0.930 . S
C1128 C1127 1.400 . S
C1128 C1131 1.386 . S
H1129 C1145 0.930 . S
H1130 C1146 0.931 . S
C1131 H1119 0.929 . S
C1131 C1125 1.390 . S
C1131 C1128 1.386 . S
C1132 C1127 1.490 . S
C1132 C1134 1.395 . S
C1132 C1135 1.406 . S
H1133 C1139 0.930 . S
C1134 H1120 0.930 . S
C1134 C1132 1.395 . S
C1134 C1137 1.403 1_545 S
C1135 C1132 1.406 . S
C1135 C1136 1.540 1_545 S
C1135 C1139 1.380 1_545 S
C1136 H1121 0.961 . S
C1136 H1122 0.961 . S
C1136 H1123 0.957 1_565 S
C1136 C1135 1.540 1_565 S
C1137 C1134 1.403 1_565 S
C1137 C1138 1.392 . S
C1137 C1141 1.495 . S
C1138 C1137 1.392 . S
C1138 C1139 1.385 . S
C1138 C1140 1.478 . S
C1139 H1133 0.930 . S
C1139 C1135 1.380 1_565 S
C1139 C1138 1.385 . S
C1140 C1138 1.478 . S
C1140 C1142 1.381 . S
C1140 C1146 1.383 . S
C1141 C1137 1.495 . S
C1141 H1147 0.959 1_565 S
C1141 H1148 0.961 1_565 S
C1141 H1149 0.960 . S
C1142 C1140 1.381 . S
C1142 C1143 1.394 . S
C1142 H1150 0.930 . S
C1143 C1142 1.394 . S
C1143 C1144 1.383 . S
C1143 H1151 0.929 . S
C1144 C1143 1.383 . S
C1144 C1145 1.377 . S
C1145 H1129 0.930 . S
C1145 C1144 1.377 . S
C1145 C1146 1.379 . S
C1146 H1130 0.931 . S
C1146 C1140 1.383 . S
C1146 C1145 1.379 . S
H1147 C1141 0.959 1_545 S
H1148 C1141 0.961 1_545 S
H1149 C1141 0.960 . S
H1150 C1142 0.930 . S
H1151 C1143 0.929 . S
H1152 C1160 0.929 . S
H1153 C1162 0.930 . S
H1154 C1164 0.930 . S
H1155 C1167 0.929 . S
H1156 C1170 0.930 . S
H1157 C1172 0.960 . S
H1158 C1172 0.960 . S
H1159 C1172 0.960 . S
C1160 H1152 0.929 . S
C1160 C1161 1.377 . S
C1160 C1162 1.384 . S
C1161 C1160 1.377 . S
C1161 C1167 1.390 . S
C1162 H1153 0.930 . S
C1162 C1160 1.384 . S
C1162 C1163 1.372 . S
C1163 C1162 1.372 . S
C1163 C1164 1.400 . S
C1163 C1168 1.490 . S
C1164 H1154 0.930 . S
C1164 C1163 1.400 . S
C1164 C1167 1.386 . S
H1165 C1181 0.930 . S
H1166 C1182 0.931 . S
C1167 H1155 0.929 . S
C1167 C1161 1.390 . S
C1167 C1164 1.386 . S
C1168 C1163 1.490 . S
C1168 C1170 1.395 . S
C1168 C1171 1.403 . S
H1169 C1175 0.930 . S
C1170 H1156 0.930 . S
C1170 C1168 1.395 . S
C1170 C1173 1.403 1_554 S
C1171 C1168 1.403 . S
C1171 C1172 1.524 . S
C1171 C1175 1.400 1_554 S
C1172 H1157 0.960 . S
C1172 H1158 0.960 . S
C1172 H1159 0.960 . S
C1172 C1171 1.524 . S
C1173 C1170 1.403 1_556 S
C1173 C1174 1.392 . S
C1173 C1177 1.495 . S
C1174 C1173 1.392 . S
C1174 C1175 1.385 . S
C1174 C1176 1.478 . S
C1175 H1169 0.930 . S
C1175 C1171 1.400 1_556 S
C1175 C1174 1.385 . S
C1176 C1174 1.478 . S
C1176 C1178 1.381 . S
C1176 C1182 1.383 . S
C1177 C1173 1.495 . S
C1177 H1183 0.959 . S
C1177 H1184 0.961 . S
C1177 H1185 0.960 . S
C1178 C1176 1.381 . S
C1178 C1179 1.394 . S
C1178 H1186 0.930 . S
C1179 C1178 1.394 . S
C1179 C1180 1.383 . S
C1179 H1187 0.929 . S
C1180 C1179 1.383 . S
C1180 C1181 1.377 . S
C1181 H1165 0.930 . S
C1181 C1180 1.377 . S
C1181 C1182 1.379 . S
C1182 H1166 0.931 . S
C1182 C1176 1.383 . S
C1182 C1181 1.379 . S
H1183 C1177 0.959 . S
H1184 C1177 0.961 . S
H1185 C1177 0.960 . S
H1186 C1178 0.930 . S
H1187 C1179 0.929 . S
H1188 C1196 0.929 . S
H1189 C1198 0.930 . S
H1190 C1200 0.930 . S
H1191 C1203 0.929 . S
H1192 C1206 0.930 . S
H1193 C1208 0.960 . S
H1194 C1208 0.960 . S
H1195 C1208 0.960 . S
C1196 H1188 0.929 . S
C1196 C1197 1.377 . S
C1196 C1198 1.384 . S
C1197 C1196 1.377 . S
C1197 C1203 1.390 . S
C1198 H1189 0.930 . S
C1198 C1196 1.384 . S
C1198 C1199 1.372 . S
C1199 C1198 1.372 . S
C1199 C1200 1.400 . S
C1199 C1204 1.490 . S
C1200 H1190 0.930 . S
C1200 C1199 1.400 . S
C1200 C1203 1.386 . S
H1201 C1217 0.930 . S
H1202 C1218 0.931 . S
C1203 H1191 0.929 . S
C1203 C1197 1.390 . S
C1203 C1200 1.386 . S
C1204 C1199 1.490 . S
C1204 C1206 1.395 1_455 S
C1204 C1207 1.403 . S
H1205 C1211 0.930 . S
C1206 H1192 0.930 . S
C1206 C1204 1.395 1_655 S
C1206 C1209 1.403 . S
C1207 C1204 1.403 . S
C1207 C1208 1.524 . S
C1207 C1211 1.400 . S
C1208 H1193 0.960 . S
C1208 H1194 0.960 . S
C1208 H1195 0.960 . S
C1208 C1207 1.524 . S
C1209 C1206 1.403 . S
C1209 C1210 1.392 . S
C1209 C1213 1.495 . S
C1210 C1209 1.392 . S
C1210 C1211 1.385 1_655 S
C1210 C1212 1.478 . S
C1211 H1205 0.930 . S
C1211 C1207 1.400 . S
C1211 C1210 1.385 1_455 S
C1212 C1210 1.478 . S
C1212 C1214 1.381 . S
C1212 C1218 1.383 . S
C1213 C1209 1.495 . S
C1213 H1219 0.959 . S
C1213 H1220 0.961 . S
C1213 H1221 0.960 . S
C1214 C1212 1.381 . S
C1214 C1215 1.394 . S
C1214 H1222 0.930 . S
C1215 C1214 1.394 . S
C1215 C1216 1.383 . S
C1215 H1223 0.929 . S
C1216 C1215 1.383 . S
C1216 C1217 1.377 . S
C1217 H1201 0.930 . S
C1217 C1216 1.377 . S
C1217 C1218 1.379 . S
C1218 H1202 0.931 . S
C1218 C1212 1.383 . S
C1218 C1217 1.379 . S
H1219 C1213 0.959 . S
H1220 C1213 0.961 . S
H1221 C1213 0.960 . S
H1222 C1214 0.930 . S
H1223 C1215 0.929 . S
H1224 C1232 0.929 . S
H1225 C1234 0.930 . S
H1226 C1236 0.930 . S
H1227 C1239 0.929 . S
H1228 C1242 0.930 . S
H1229 C1244 0.960 . S
H1230 C1244 0.960 . S
H1231 C1244 0.960 . S
C1232 H1224 0.929 . S
C1232 C1233 1.377 . S
C1232 C1234 1.384 . S
C1233 C1232 1.377 . S
C1233 C1239 1.390 . S
C1234 H1225 0.930 . S
C1234 C1232 1.384 . S
C1234 C1235 1.372 . S
C1235 C1234 1.372 . S
C1235 C1236 1.400 . S
C1235 C1240 1.490 . S
C1236 H1226 0.930 . S
C1236 C1235 1.400 . S
C1236 C1239 1.386 . S
H1237 C1253 0.930 . S
H1238 C1254 0.931 . S
C1239 H1227 0.929 . S
C1239 C1233 1.390 . S
C1239 C1236 1.386 . S
C1240 C1235 1.490 . S
C1240 C1242 1.395 . S
C1240 C1243 1.403 . S
H1241 C1247 0.930 . S
C1242 H1228 0.930 . S
C1242 C1240 1.395 . S
C1242 C1245 1.403 . S
C1243 C1240 1.403 . S
C1243 C1244 1.524 . S
C1243 C1247 1.400 . S
C1244 H1229 0.960 . S
C1244 H1230 0.960 . S
C1244 H1231 0.960 . S
C1244 C1243 1.524 . S
C1245 C1242 1.403 . S
C1245 C1246 1.392 . S
C1245 C1249 1.495 . S
C1246 C1245 1.392 . S
C1246 C1247 1.385 . S
C1246 C1248 1.478 . S
C1247 H1241 0.930 . S
C1247 C1243 1.400 . S
C1247 C1246 1.385 . S
C1248 C1246 1.478 . S
C1248 C1250 1.381 . S
C1248 C1254 1.383 . S
C1249 C1245 1.495 . S
C1249 H1255 0.959 . S
C1249 H1256 0.961 . S
C1249 H1257 0.960 . S
C1250 C1248 1.381 . S
C1250 C1251 1.394 . S
C1250 H1258 0.930 . S
C1251 C1250 1.394 . S
C1251 C1252 1.383 . S
C1251 H1259 0.929 . S
C1252 C1251 1.383 . S
C1252 C1253 1.377 . S
C1253 H1237 0.930 . S
C1253 C1252 1.377 . S
C1253 C1254 1.379 . S
C1254 H1238 0.931 . S
C1254 C1248 1.383 . S
C1254 C1253 1.379 . S
H1255 C1249 0.959 . S
H1256 C1249 0.961 . S
H1257 C1249 0.960 . S
H1258 C1250 0.930 . S
H1259 C1251 0.929 . S
H1260 C1268 0.929 . S
H1261 C1270 0.930 . S
H1262 C1272 0.930 . S
H1263 C1275 0.929 . S
H1264 C1278 0.930 . S
H1265 C1280 0.960 . S
H1266 C1280 0.960 . S
H1267 C1280 0.960 . S
C1268 H1260 0.929 . S
C1268 C1269 1.377 . S
C1268 C1270 1.384 . S
C1269 C1268 1.377 . S
C1269 C1275 1.390 . S
C1270 H1261 0.930 . S
C1270 C1268 1.384 . S
C1270 C1271 1.372 . S
C1271 C1270 1.372 . S
C1271 C1272 1.400 . S
C1271 C1276 1.490 . S
C1272 H1262 0.930 . S
C1272 C1271 1.400 . S
C1272 C1275 1.386 . S
H1273 C1289 0.930 . S
H1274 C1290 0.931 . S
C1275 H1263 0.929 . S
C1275 C1269 1.390 . S
C1275 C1272 1.386 . S
C1276 C1271 1.490 . S
C1276 C1278 1.395 . S
C1276 C1279 1.403 . S
H1277 C1283 0.930 . S
C1278 H1264 0.930 . S
C1278 C1276 1.395 . S
C1278 C1281 1.403 . S
C1279 C1276 1.403 . S
C1279 C1280 1.524 . S
C1279 C1283 1.400 . S
C1280 H1265 0.960 . S
C1280 H1266 0.960 . S
C1280 H1267 0.960 . S
C1280 C1279 1.524 . S
C1281 C1278 1.403 . S
C1281 C1282 1.392 . S
C1281 C1285 1.495 . S
C1282 C1281 1.392 . S
C1282 C1283 1.385 . S
C1282 C1284 1.478 . S
C1283 H1277 0.930 . S
C1283 C1279 1.400 . S
C1283 C1282 1.385 . S
C1284 C1282 1.478 . S
C1284 C1286 1.381 . S
C1284 C1290 1.383 . S
C1285 C1281 1.495 . S
C1285 H1291 0.959 . S
C1285 H1292 0.961 . S
C1285 H1293 0.960 . S
C1286 C1284 1.381 . S
C1286 C1287 1.394 . S
C1286 H1294 0.930 . S
C1287 C1286 1.394 . S
C1287 C1288 1.383 . S
C1287 H1295 0.929 . S
C1288 C1287 1.383 . S
C1288 C1289 1.377 . S
C1289 H1273 0.930 . S
C1289 C1288 1.377 . S
C1289 C1290 1.379 . S
C1290 H1274 0.931 . S
C1290 C1284 1.383 . S
C1290 C1289 1.379 . S
H1291 C1285 0.959 . S
H1292 C1285 0.961 . S
H1293 C1285 0.960 . S
H1294 C1286 0.930 . S
H1295 C1287 0.929 . S
H1296 C1304 0.929 . S
H1297 C1306 0.930 . S
H1298 C1308 0.930 . S
H1299 C1311 0.929 . S
H1300 C1314 0.930 . S
H1301 C1316 0.960 . S
H1302 C1316 0.960 . S
H1303 C1316 0.960 . S
C1304 H1296 0.929 . S
C1304 C1305 1.377 . S
C1304 C1306 1.384 . S
C1305 C1304 1.377 . S
C1305 C1311 1.390 . S
C1306 H1297 0.930 . S
C1306 C1304 1.384 . S
C1306 C1307 1.372 . S
C1307 C1306 1.372 . S
C1307 C1308 1.400 . S
C1307 C1312 1.490 . S
C1308 H1298 0.930 . S
C1308 C1307 1.400 . S
C1308 C1311 1.386 . S
H1309 C1325 0.930 . S
H1310 C1326 0.931 . S
C1311 H1299 0.929 . S
C1311 C1305 1.390 . S
C1311 C1308 1.386 . S
C1312 C1307 1.490 . S
C1312 C1314 1.395 . S
C1312 C1315 1.403 . S
H1313 C1319 0.930 . S
C1314 H1300 0.930 . S
C1314 C1312 1.395 . S
C1314 C1317 1.403 . S
C1315 C1312 1.403 . S
C1315 C1316 1.524 . S
C1315 C1319 1.400 . S
C1316 H1301 0.960 . S
C1316 H1302 0.960 . S
C1316 H1303 0.960 . S
C1316 C1315 1.524 . S
C1317 C1314 1.403 . S
C1317 C1318 1.392 . S
C1317 C1321 1.495 . S
C1318 C1317 1.392 . S
C1318 C1319 1.385 . S
C1318 C1320 1.478 . S
C1319 H1313 0.930 . S
C1319 C1315 1.400 . S
C1319 C1318 1.385 . S
C1320 C1318 1.478 . S
C1320 C1322 1.381 . S
C1320 C1326 1.383 . S
C1321 C1317 1.495 . S
C1321 H1327 0.959 . S
C1321 H1328 0.961 . S
C1321 H1329 0.960 . S
C1322 C1320 1.381 . S
C1322 C1323 1.394 . S
C1322 H1330 0.930 . S
C1323 C1322 1.394 . S
C1323 C1324 1.383 . S
C1323 H1331 0.929 . S
C1324 C1323 1.383 . S
C1324 C1325 1.377 . S
C1325 H1309 0.930 . S
C1325 C1324 1.377 . S
C1325 C1326 1.379 . S
C1326 H1310 0.931 . S
C1326 C1320 1.383 . S
C1326 C1325 1.379 . S
H1327 C1321 0.959 . S
H1328 C1321 0.961 . S
H1329 C1321 0.960 . S
H1330 C1322 0.930 . S
H1331 C1323 0.929 . S
H1332 C1340 0.929 . S
H1333 C1342 0.930 . S
H1334 C1344 0.930 . S
H1335 C1347 0.929 . S
H1336 C1350 0.930 . S
H1337 C1352 0.960 . S
H1338 C1352 0.960 . S
H1339 C1352 0.960 . S
C1340 H1332 0.929 . S
C1340 C1341 1.377 . S
C1340 C1342 1.384 . S
C1341 C1340 1.377 . S
C1341 C1347 1.390 . S
C1342 H1333 0.930 . S
C1342 C1340 1.384 . S
C1342 C1343 1.372 . S
C1343 C1342 1.372 . S
C1343 C1344 1.400 . S
C1343 C1348 1.490 . S
C1344 H1334 0.930 . S
C1344 C1343 1.400 . S
C1344 C1347 1.386 . S
H1345 C1361 0.930 . S
H1346 C1362 0.931 . S
C1347 H1335 0.929 . S
C1347 C1341 1.390 . S
C1347 C1344 1.386 . S
C1348 C1343 1.490 . S
C1348 C1350 1.395 . S
C1348 C1351 1.403 . S
H1349 C1355 0.930 . S
C1350 H1336 0.930 . S
C1350 C1348 1.395 . S
C1350 C1353 1.403 . S
C1351 C1348 1.403 . S
C1351 C1352 1.524 . S
C1351 C1355 1.400 . S
C1352 H1337 0.960 . S
C1352 H1338 0.960 . S
C1352 H1339 0.960 . S
C1352 C1351 1.524 . S
C1353 C1350 1.403 . S
C1353 C1354 1.392 . S
C1353 C1357 1.495 . S
C1354 C1353 1.392 . S
C1354 C1355 1.385 . S
C1354 C1356 1.478 . S
C1355 H1349 0.930 . S
C1355 C1351 1.400 . S
C1355 C1354 1.385 . S
C1356 C1354 1.478 . S
C1356 C1358 1.381 . S
C1356 C1362 1.383 . S
C1357 C1353 1.495 . S
C1357 H1363 0.959 . S
C1357 H1364 0.961 . S
C1357 H1365 0.960 . S
C1358 C1356 1.381 . S
C1358 C1359 1.394 . S
C1358 H1366 0.930 . S
C1359 C1358 1.394 . S
C1359 C1360 1.383 . S
C1359 H1367 0.929 . S
C1360 C1359 1.383 . S
C1360 C1361 1.377 . S
C1361 H1345 0.930 . S
C1361 C1360 1.377 . S
C1361 C1362 1.379 . S
C1362 H1346 0.931 . S
C1362 C1356 1.383 . S
C1362 C1361 1.379 . S
H1363 C1357 0.959 . S
H1364 C1357 0.961 . S
H1365 C1357 0.960 . S
H1366 C1358 0.930 . S
H1367 C1359 0.929 . S
H1368 C1376 0.929 . S
H1369 C1378 0.930 . S
H1370 C1380 0.930 . S
H1371 C1383 0.929 . S
H1372 C1386 0.930 . S
H1373 C1388 0.960 . S
H1374 C1388 0.960 . S
H1375 C1388 0.960 . S
C1376 H1368 0.929 . S
C1376 C1377 1.377 . S
C1376 C1378 1.384 . S
C1377 C1376 1.377 . S
C1377 C1383 1.390 . S
C1378 H1369 0.930 . S
C1378 C1376 1.384 . S
C1378 C1379 1.372 . S
C1379 C1378 1.372 . S
C1379 C1380 1.400 . S
C1379 C1384 1.490 . S
C1380 H1370 0.930 . S
C1380 C1379 1.400 . S
C1380 C1383 1.386 . S
H1381 C1397 0.930 . S
H1382 C1398 0.931 . S
C1383 H1371 0.929 . S
C1383 C1377 1.390 . S
C1383 C1380 1.386 . S
C1384 C1379 1.490 . S
C1384 C1386 1.395 . S
C1384 C1387 1.403 . S
H1385 C1391 0.930 . S
C1386 H1372 0.930 . S
C1386 C1384 1.395 . S
C1386 C1389 1.403 . S
C1387 C1384 1.403 . S
C1387 C1388 1.524 . S
C1387 C1391 1.400 . S
C1388 H1373 0.960 . S
C1388 H1374 0.960 . S
C1388 H1375 0.960 . S
C1388 C1387 1.524 . S
C1389 C1386 1.403 . S
C1389 C1390 1.392 . S
C1389 C1393 1.495 . S
C1390 C1389 1.392 . S
C1390 C1391 1.385 . S
C1390 C1392 1.478 . S
C1391 H1385 0.930 . S
C1391 C1387 1.400 . S
C1391 C1390 1.385 . S
C1392 C1390 1.478 . S
C1392 C1394 1.381 . S
C1392 C1398 1.383 . S
C1393 C1389 1.495 . S
C1393 H1399 0.959 . S
C1393 H1400 0.961 . S
C1393 H1401 0.960 . S
C1394 C1392 1.381 . S
C1394 C1395 1.394 . S
C1394 H1402 0.930 . S
C1395 C1394 1.394 . S
C1395 C1396 1.383 . S
C1395 H1403 0.929 . S
C1396 C1395 1.383 . S
C1396 C1397 1.377 . S
C1397 H1381 0.930 . S
C1397 C1396 1.377 . S
C1397 C1398 1.379 . S
C1398 H1382 0.931 . S
C1398 C1392 1.383 . S
C1398 C1397 1.379 . S
H1399 C1393 0.959 . S
H1400 C1393 0.961 . S
H1401 C1393 0.960 . S
H1402 C1394 0.930 . S
H1403 C1395 0.929 . S
H1404 C1412 0.929 . S
H1405 C1414 0.930 . S
H1406 C1416 0.930 . S
H1407 C1419 0.929 . S
H1408 C1422 0.930 . S
H1409 C1424 0.960 . S
H1410 C1424 0.960 . S
H1411 C1424 0.960 . S
C1412 H1404 0.929 . S
C1412 C1413 1.377 . S
C1412 C1414 1.384 . S
C1413 C1412 1.377 . S
C1413 C1419 1.390 . S
C1414 H1405 0.930 . S
C1414 C1412 1.384 . S
C1414 C1415 1.372 . S
C1415 C1414 1.372 . S
C1415 C1416 1.400 . S
C1415 C1420 1.490 . S
C1416 H1406 0.930 . S
C1416 C1415 1.400 . S
C1416 C1419 1.386 . S
H1417 C1433 0.930 . S
H1418 C1434 0.931 . S
C1419 H1407 0.929 . S
C1419 C1413 1.390 . S
C1419 C1416 1.386 . S
C1420 C1415 1.490 . S
C1420 C1422 1.395 . S
C1420 C1423 1.403 . S
H1421 C1427 0.930 . S
C1422 H1408 0.930 . S
C1422 C1420 1.395 . S
C1422 C1425 1.403 . S
C1423 C1420 1.403 . S
C1423 C1424 1.524 . S
C1423 C1427 1.400 . S
C1424 H1409 0.960 . S
C1424 H1410 0.960 . S
C1424 H1411 0.960 . S
C1424 C1423 1.524 . S
C1425 C1422 1.403 . S
C1425 C1426 1.392 . S
C1425 C1429 1.495 . S
C1426 C1425 1.392 . S
C1426 C1427 1.385 . S
C1426 C1428 1.478 . S
C1427 H1421 0.930 . S
C1427 C1423 1.400 . S
C1427 C1426 1.385 . S
C1428 C1426 1.478 . S
C1428 C1430 1.381 . S
C1428 C1434 1.383 . S
C1429 C1425 1.495 . S
C1429 H1435 0.959 . S
C1429 H1436 0.961 . S
C1429 H1437 0.960 . S
C1430 C1428 1.381 . S
C1430 C1431 1.394 . S
C1430 H1438 0.930 . S
C1431 C1430 1.394 . S
C1431 C1432 1.383 . S
C1431 H1439 0.929 . S
C1432 C1431 1.383 . S
C1432 C1433 1.377 . S
C1433 H1417 0.930 . S
C1433 C1432 1.377 . S
C1433 C1434 1.379 . S
C1434 H1418 0.931 . S
C1434 C1428 1.383 . S
C1434 C1433 1.379 . S
H1435 C1429 0.959 . S
H1436 C1429 0.961 . S
H1437 C1429 0.960 . S
H1438 C1430 0.930 . S
H1439 C1431 0.929 . S
H1440 C1448 0.929 . S
H1441 C1450 0.930 . S
H1442 C1452 0.930 . S
H1443 C1455 0.929 . S
H1444 C1458 0.930 . S
H1445 C1460 0.960 . S
H1446 C1460 0.960 . S
H1447 C1460 0.960 . S
C1448 H1440 0.929 . S
C1448 C1449 1.377 . S
C1448 C1450 1.384 . S
C1449 C1448 1.377 . S
C1449 C1455 1.390 . S
C1450 H1441 0.930 . S
C1450 C1448 1.384 . S
C1450 C1451 1.372 . S
C1451 C1450 1.372 . S
C1451 C1452 1.400 . S
C1451 C1456 1.490 . S
C1452 H1442 0.930 . S
C1452 C1451 1.400 . S
C1452 C1455 1.386 . S
H1453 C1469 0.930 . S
H1454 C1470 0.931 . S
C1455 H1443 0.929 . S
C1455 C1449 1.390 . S
C1455 C1452 1.386 . S
C1456 C1451 1.490 . S
C1456 C1458 1.395 . S
C1456 C1459 1.403 . S
H1457 C1463 0.930 . S
C1458 H1444 0.930 . S
C1458 C1456 1.395 . S
C1458 C1461 1.403 . S
C1459 C1456 1.403 . S
C1459 C1460 1.524 . S
C1459 C1463 1.400 . S
C1460 H1445 0.960 . S
C1460 H1446 0.960 . S
C1460 H1447 0.960 . S
C1460 C1459 1.524 . S
C1461 C1458 1.403 . S
C1461 C1462 1.392 . S
C1461 C1465 1.495 . S
C1462 C1461 1.392 . S
C1462 C1463 1.385 . S
C1462 C1464 1.478 . S
C1463 H1457 0.930 . S
C1463 C1459 1.400 . S
C1463 C1462 1.385 . S
C1464 C1462 1.478 . S
C1464 C1466 1.381 . S
C1464 C1470 1.383 . S
C1465 C1461 1.495 . S
C1465 H1471 0.959 . S
C1465 H1472 0.961 . S
C1465 H1473 0.960 . S
C1466 C1464 1.381 . S
C1466 C1467 1.394 . S
C1466 H1474 0.930 . S
C1467 C1466 1.394 . S
C1467 C1468 1.383 . S
C1467 H1475 0.929 . S
C1468 C1467 1.383 . S
C1468 C1469 1.377 . S
C1469 H1453 0.930 . S
C1469 C1468 1.377 . S
C1469 C1470 1.379 . S
C1470 H1454 0.931 . S
C1470 C1464 1.383 . S
C1470 C1469 1.379 . S
H1471 C1465 0.959 . S
H1472 C1465 0.961 . S
H1473 C1465 0.960 . S
H1474 C1466 0.930 . S
H1475 C1467 0.929 . S
H1476 C1484 0.929 . S
H1477 C1486 0.930 . S
H1478 C1488 0.930 . S
H1479 C1491 0.929 . S
H1480 C1494 0.930 . S
H1481 C1496 0.960 . S
H1482 C1496 0.960 . S
H1483 C1496 0.960 . S
C1484 H1476 0.929 . S
C1484 C1485 1.377 . S
C1484 C1486 1.384 . S
C1485 C1484 1.377 . S
C1485 C1491 1.390 . S
C1486 H1477 0.930 . S
C1486 C1484 1.384 . S
C1486 C1487 1.372 . S
C1487 C1486 1.372 . S
C1487 C1488 1.400 . S
C1487 C1492 1.490 . S
C1488 H1478 0.930 . S
C1488 C1487 1.400 . S
C1488 C1491 1.386 . S
H1489 C1505 0.930 . S
H1490 C1506 0.931 . S
C1491 H1479 0.929 . S
C1491 C1485 1.390 . S
C1491 C1488 1.386 . S
C1492 C1487 1.490 . S
C1492 C1494 1.395 . S
C1492 C1495 1.403 . S
H1493 C1499 0.930 . S
C1494 H1480 0.930 . S
C1494 C1492 1.395 . S
C1494 C1497 1.403 . S
C1495 C1492 1.403 . S
C1495 C1496 1.524 . S
C1495 C1499 1.400 . S
C1496 H1481 0.960 . S
C1496 H1482 0.960 . S
C1496 H1483 0.960 . S
C1496 C1495 1.524 . S
C1497 C1494 1.403 . S
C1497 C1498 1.392 . S
C1497 C1501 1.495 . S
C1498 C1497 1.392 . S
C1498 C1499 1.385 . S
C1498 C1500 1.478 . S
C1499 H1493 0.930 . S
C1499 C1495 1.400 . S
C1499 C1498 1.385 . S
C1500 C1498 1.478 . S
C1500 C1502 1.381 . S
C1500 C1506 1.383 . S
C1501 C1497 1.495 . S
C1501 H1507 0.959 . S
C1501 H1508 0.961 . S
C1501 H1509 0.960 . S
C1502 C1500 1.381 . S
C1502 C1503 1.394 . S
C1502 H1510 0.930 . S
C1503 C1502 1.394 . S
C1503 C1504 1.383 . S
C1503 H1511 0.929 . S
C1504 C1503 1.383 . S
C1504 C1505 1.377 . S
C1505 H1489 0.930 . S
C1505 C1504 1.377 . S
C1505 C1506 1.379 . S
C1506 H1490 0.931 . S
C1506 C1500 1.383 . S
C1506 C1505 1.379 . S
H1507 C1501 0.959 . S
H1508 C1501 0.961 . S
H1509 C1501 0.960 . S
H1510 C1502 0.930 . S
H1511 C1503 0.929 . S
H1512 C1520 0.929 . S
H1513 C1522 0.930 . S
H1514 C1524 0.930 . S
H1515 C1527 0.929 . S
H1516 C1530 0.930 . S
H1517 C1532 0.960 . S
H1518 C1532 0.960 . S
H1519 C1532 0.960 . S
C1520 H1512 0.929 . S
C1520 C1521 1.377 . S
C1520 C1522 1.384 . S
C1521 C1520 1.377 . S
C1521 C1527 1.390 . S
C1522 H1513 0.930 . S
C1522 C1520 1.384 . S
C1522 C1523 1.372 . S
C1523 C1522 1.372 . S
C1523 C1524 1.400 . S
C1523 C1528 1.490 . S
C1524 H1514 0.930 . S
C1524 C1523 1.400 . S
C1524 C1527 1.386 . S
H1525 C1541 0.930 . S
H1526 C1542 0.931 . S
C1527 H1515 0.929 . S
C1527 C1521 1.390 . S
C1527 C1524 1.386 . S
C1528 C1523 1.490 . S
C1528 C1530 1.395 . S
C1528 C1531 1.403 . S
H1529 C1535 0.930 . S
C1530 H1516 0.930 . S
C1530 C1528 1.395 . S
C1530 C1533 1.403 . S
C1531 C1528 1.403 . S
C1531 C1532 1.524 . S
C1531 C1535 1.400 . S
C1532 H1517 0.960 . S
C1532 H1518 0.960 . S
C1532 H1519 0.960 . S
C1532 C1531 1.524 . S
C1533 C1530 1.403 . S
C1533 C1534 1.392 . S
C1533 C1537 1.495 . S
C1534 C1533 1.392 . S
C1534 C1535 1.385 . S
C1534 C1536 1.478 . S
C1535 H1529 0.930 . S
C1535 C1531 1.400 . S
C1535 C1534 1.385 . S
C1536 C1534 1.478 . S
C1536 C1538 1.381 . S
C1536 C1542 1.383 . S
C1537 C1533 1.495 . S
C1537 H1543 0.959 . S
C1537 H1544 0.961 . S
C1537 H1545 0.960 . S
C1538 C1536 1.381 . S
C1538 C1539 1.394 . S
C1538 H1546 0.930 . S
C1539 C1538 1.394 . S
C1539 C1540 1.383 . S
C1539 H1547 0.929 . S
C1540 C1539 1.383 . S
C1540 C1541 1.377 . S
C1541 H1525 0.930 . S
C1541 C1540 1.377 . S
C1541 C1542 1.379 . S
C1542 H1526 0.931 . S
C1542 C1536 1.383 . S
C1542 C1541 1.379 . S
H1543 C1537 0.959 . S
H1544 C1537 0.961 . S
H1545 C1537 0.960 . S
H1546 C1538 0.930 . S
H1547 C1539 0.929 . S
H1548 C1556 0.929 . S
H1549 C1558 0.930 . S
H1550 C1560 0.930 . S
H1551 C1563 0.929 . S
H1552 C1566 0.930 . S
H1553 C1568 0.960 . S
H1554 C1568 0.960 . S
H1555 C1568 0.960 . S
C1556 H1548 0.929 . S
C1556 C1557 1.377 . S
C1556 C1558 1.384 . S
C1557 C1556 1.377 . S
C1557 C1563 1.390 . S
C1558 H1549 0.930 . S
C1558 C1556 1.384 . S
C1558 C1559 1.372 . S
C1559 C1558 1.372 . S
C1559 C1560 1.400 . S
C1559 C1564 1.490 . S
C1560 H1550 0.930 . S
C1560 C1559 1.400 . S
C1560 C1563 1.386 . S
H1561 C1577 0.930 . S
H1562 C1578 0.931 . S
C1563 H1551 0.929 . S
C1563 C1557 1.390 . S
C1563 C1560 1.386 . S
C1564 C1559 1.490 . S
C1564 C1566 1.395 . S
C1564 C1567 1.403 . S
H1565 C1571 0.930 . S
C1566 H1552 0.930 . S
C1566 C1564 1.395 . S
C1566 C1569 1.403 . S
C1567 C1564 1.403 . S
C1567 C1568 1.524 . S
C1567 C1571 1.400 . S
C1568 H1553 0.960 . S
C1568 H1554 0.960 . S
C1568 H1555 0.960 . S
C1568 C1567 1.524 . S
C1569 C1566 1.403 . S
C1569 C1570 1.392 . S
C1569 C1573 1.495 . S
C1570 C1569 1.392 . S
C1570 C1571 1.385 . S
C1570 C1572 1.478 . S
C1571 H1565 0.930 . S
C1571 C1567 1.400 . S
C1571 C1570 1.385 . S
C1572 C1570 1.478 . S
C1572 C1574 1.381 . S
C1572 C1578 1.383 . S
C1573 C1569 1.495 . S
C1573 H1579 0.959 . S
C1573 H1580 0.961 . S
C1573 H1581 0.960 . S
C1574 C1572 1.381 . S
C1574 C1575 1.394 . S
C1574 H1582 0.930 . S
C1575 C1574 1.394 . S
C1575 C1576 1.383 . S
C1575 H1583 0.929 . S
C1576 C1575 1.383 . S
C1576 C1577 1.377 . S
C1577 H1561 0.930 . S
C1577 C1576 1.377 . S
C1577 C1578 1.379 . S
C1578 H1562 0.931 . S
C1578 C1572 1.383 . S
C1578 C1577 1.379 . S
H1579 C1573 0.959 . S
H1580 C1573 0.961 . S
H1581 C1573 0.960 . S
H1582 C1574 0.930 . S
H1583 C1575 0.929 . S
H1584 C1592 0.929 . S
H1585 C1594 0.930 . S
H1586 C1596 0.930 . S
H1587 C1599 0.929 . S
H1588 C1602 0.930 . S
H1589 C1604 0.960 . S
H1590 C1604 0.960 . S
H1591 C1604 0.960 . S
C1592 H1584 0.929 . S
C1592 C1593 1.377 . S
C1592 C1594 1.384 . S
C1593 C1592 1.377 . S
C1593 C1599 1.390 . S
C1594 H1585 0.930 . S
C1594 C1592 1.384 . S
C1594 C1595 1.372 . S
C1595 C1594 1.372 . S
C1595 C1596 1.400 . S
C1595 C1600 1.490 . S
C1596 H1586 0.930 . S
C1596 C1595 1.400 . S
C1596 C1599 1.386 . S
H1597 C1613 0.930 . S
H1598 C1614 0.931 . S
C1599 H1587 0.929 . S
C1599 C1593 1.390 . S
C1599 C1596 1.386 . S
C1600 C1595 1.490 . S
C1600 C1602 1.395 . S
C1600 C1603 1.403 . S
H1601 C1607 0.930 . S
C1602 H1588 0.930 . S
C1602 C1600 1.395 . S
C1602 C1605 1.403 . S
C1603 C1600 1.403 . S
C1603 C1604 1.524 . S
C1603 C1607 1.400 . S
C1604 H1589 0.960 . S
C1604 H1590 0.960 . S
C1604 H1591 0.960 . S
C1604 C1603 1.524 . S
C1605 C1602 1.403 . S
C1605 C1606 1.392 . S
C1605 C1609 1.495 . S
C1606 C1605 1.392 . S
C1606 C1607 1.385 . S
C1606 C1608 1.478 . S
C1607 H1601 0.930 . S
C1607 C1603 1.400 . S
C1607 C1606 1.385 . S
C1608 C1606 1.478 . S
C1608 C1610 1.381 . S
C1608 C1614 1.383 . S
C1609 C1605 1.495 . S
C1609 H1615 0.959 . S
C1609 H1616 0.961 . S
C1609 H1617 0.960 . S
C1610 C1608 1.381 . S
C1610 C1611 1.394 . S
C1610 H1618 0.930 . S
C1611 C1610 1.394 . S
C1611 C1612 1.383 . S
C1611 H1619 0.929 . S
C1612 C1611 1.383 . S
C1612 C1613 1.377 . S
C1613 H1597 0.930 . S
C1613 C1612 1.377 . S
C1613 C1614 1.379 . S
C1614 H1598 0.931 . S
C1614 C1608 1.383 . S
C1614 C1613 1.379 . S
H1615 C1609 0.959 . S
H1616 C1609 0.961 . S
H1617 C1609 0.960 . S
H1618 C1610 0.930 . S
H1619 C1611 0.929 . S
H1620 C1628 0.929 . S
H1621 C1630 0.930 . S
H1622 C1632 0.930 . S
H1623 C1635 0.929 . S
H1624 C1638 0.930 . S
H1625 C1640 0.960 . S
H1626 C1640 0.960 . S
H1627 C1640 0.960 . S
C1628 H1620 0.929 . S
C1628 C1629 1.377 . S
C1628 C1630 1.384 . S
C1629 C1628 1.377 . S
C1629 C1635 1.390 . S
C1630 H1621 0.930 . S
C1630 C1628 1.384 . S
C1630 C1631 1.372 . S
C1631 C1630 1.372 . S
C1631 C1632 1.400 . S
C1631 C1636 1.490 . S
C1632 H1622 0.930 . S
C1632 C1631 1.400 . S
C1632 C1635 1.386 . S
H1633 C1649 0.930 . S
H1634 C1650 0.931 . S
C1635 H1623 0.929 . S
C1635 C1629 1.390 . S
C1635 C1632 1.386 . S
C1636 C1631 1.490 . S
C1636 C1638 1.395 . S
C1636 C1639 1.403 . S
H1637 C1643 0.930 . S
C1638 H1624 0.930 . S
C1638 C1636 1.395 . S
C1638 C1641 1.403 . S
C1639 C1636 1.403 . S
C1639 C1640 1.524 . S
C1639 C1643 1.400 . S
C1640 H1625 0.960 . S
C1640 H1626 0.960 . S
C1640 H1627 0.960 . S
C1640 C1639 1.524 . S
C1641 C1638 1.403 . S
C1641 C1642 1.392 . S
C1641 C1645 1.495 . S
C1642 C1641 1.392 . S
C1642 C1643 1.385 . S
C1642 C1644 1.478 . S
C1643 H1637 0.930 . S
C1643 C1639 1.400 . S
C1643 C1642 1.385 . S
C1644 C1642 1.478 . S
C1644 C1646 1.381 . S
C1644 C1650 1.383 . S
C1645 C1641 1.495 . S
C1645 H1651 0.959 . S
C1645 H1652 0.961 . S
C1645 H1653 0.960 . S
C1646 C1644 1.381 . S
C1646 C1647 1.394 . S
C1646 H1654 0.930 . S
C1647 C1646 1.394 . S
C1647 C1648 1.383 . S
C1647 H1655 0.929 . S
C1648 C1647 1.383 . S
C1648 C1649 1.377 . S
C1649 H1633 0.930 . S
C1649 C1648 1.377 . S
C1649 C1650 1.379 . S
C1650 H1634 0.931 . S
C1650 C1644 1.383 . S
C1650 C1649 1.379 . S
H1651 C1645 0.959 . S
H1652 C1645 0.961 . S
H1653 C1645 0.960 . S
H1654 C1646 0.930 . S
H1655 C1647 0.929 . S
C369 C76 0.611 . S
C388 N6 0.604 . S
C405 N96 0.722 . S
C424 C46 0.714 . S
C441 N66 0.621 . S
C460 C136 0.595 . S
C477 C106 0.720 . S
C496 N156 0.746 . S
C513 C16 0.617 . S
C532 N126 0.572 . S
C549 N36 0.724 . S
C568 C166 0.733 . S
C585 C327 0.616 . S
C604 N194 0.591 . S
C621 N216 0.638 . S
C640 C346 0.584 . S
C657 N254 0.617 . S
C676 C207 0.578 . S
C693 N276 0.621 . S
C712 C226 0.651 . S
C729 N314 0.641 . S
C748 C267 0.663 . S
C765 C286 0.627 . S
C784 N336 0.603 . S
C801 C91 1.718 . S
C820 C1 1.702 . S
C837 C31 1.718 . S
C856 C121 1.693 . S
C873 C61 1.705 . S
C892 C151 1.713 . S
C909 C190 1.706 . S
C928 C271 1.697 . S
C945 C211 1.701 . S
C964 C310 1.703 . S
C981 C250 1.701 . S
C1000 C331 1.709 . S
C1017 C220 1.966 . S
C1036 C10 1.949 . S
C1053 C40 1.911 . S
C1072 C241 1.980 . S
C1089 C280 1.965 . S
C1108 C70 1.949 . S
C1125 C100 1.907 . S
C1144 C301 1.963 . S
C1161 C130 1.965 . S
C1180 C340 1.953 . S
C1197 C181 1.969 . S
C1216 C160 1.929 . S
C1233 C87 1.120 . S
C1252 N14 1.110 . S
C1269 C57 1.017 . S
C1288 N104 1.026 . S
C1305 N74 1.100 . S
C1324 C147 1.115 . S
C1341 C117 1.020 . S
C1360 N164 1.035 . S
C1377 C27 1.114 . S
C1396 N134 1.093 . S
C1413 N44 1.024 . S
C1432 C177 1.038 . S
C1449 C316 1.119 . S
C1468 N186 1.081 . S
C1485 N224 1.089 . S
C1504 C357 1.119 . S
C1521 N246 1.099 . S
C1540 C196 1.112 . S
C1557 C237 1.119 . S
C1576 N284 1.112 . S
C1593 N306 1.101 . S
C1612 C256 1.120 . S
C1629 N344 1.096 . S
C1648 C297 1.104 . S
