# Generated by pormake.
# Topology smm, (6)-cn, num edge types: 1
# Building blocks:
#     Node 0, Type 0, BuildingBlock: MIFKUJ_clean_sbu_0, # of connection points: 6
#     Node 1, Type 0, BuildingBlock: MIFKUJ_clean_sbu_0, # of connection points: 6
#     Node 2, Type 0, BuildingBlock: MIFKUJ_clean_sbu_0, # of connection points: 6
#     Node 3, Type 0, BuildingBlock: MIFKUJ_clean_sbu_0, # of connection points: 6
#     Node 4, Type 0, BuildingBlock: MIFKUJ_clean_sbu_0, # of connection points: 6
#     Node 5, Type 0, BuildingBlock: MIFKUJ_clean_sbu_0, # of connection points: 6
#     Node 6, Type 0, BuildingBlock: MIFKUJ_clean_sbu_0, # of connection points: 6
#     Node 7, Type 0, BuildingBlock: MIFKUJ_clean_sbu_0, # of connection points: 6
#     Node 8, Type 0, BuildingBlock: MIFKUJ_clean_sbu_0, # of connection points: 6
#     Edge 9, Type (0, 0), BuildingBlock: XIVTED_clean_linker_0, # of connection points: 2
#     Edge 10, Type (0, 0), BuildingBlock: XIVTED_clean_linker_0, # of connection points: 2
#     Edge 11, Type (0, 0), BuildingBlock: XIVTED_clean_linker_0, # of connection points: 2
#     Edge 12, Type (0, 0), BuildingBlock: XIVTED_clean_linker_0, # of connection points: 2
#     Edge 13, Type (0, 0), BuildingBlock: XIVTED_clean_linker_0, # of connection points: 2
#     Edge 14, Type (0, 0), BuildingBlock: XIVTED_clean_linker_0, # of connection points: 2
#     Edge 15, Type (0, 0), BuildingBlock: XIVTED_clean_linker_0, # of connection points: 2
#     Edge 16, Type (0, 0), BuildingBlock: XIVTED_clean_linker_0, # of connection points: 2
#     Edge 17, Type (0, 0), BuildingBlock: XIVTED_clean_linker_0, # of connection points: 2
#     Edge 18, Type (0, 0), BuildingBlock: XIVTED_clean_linker_0, # of connection points: 2
#     Edge 19, Type (0, 0), BuildingBlock: XIVTED_clean_linker_0, # of connection points: 2
#     Edge 20, Type (0, 0), BuildingBlock: XIVTED_clean_linker_0, # of connection points: 2
#     Edge 21, Type (0, 0), BuildingBlock: XIVTED_clean_linker_0, # of connection points: 2
#     Edge 22, Type (0, 0), BuildingBlock: XIVTED_clean_linker_0, # of connection points: 2
#     Edge 23, Type (0, 0), BuildingBlock: XIVTED_clean_linker_0, # of connection points: 2
#     Edge 24, Type (0, 0), BuildingBlock: XIVTED_clean_linker_0, # of connection points: 2
#     Edge 25, Type (0, 0), BuildingBlock: XIVTED_clean_linker_0, # of connection points: 2
#     Edge 26, Type (0, 0), BuildingBlock: XIVTED_clean_linker_0, # of connection points: 2
#     Edge 27, Type (0, 0), BuildingBlock: XIVTED_clean_linker_0, # of connection points: 2
#     Edge 28, Type (0, 0), BuildingBlock: XIVTED_clean_linker_0, # of connection points: 2
#     Edge 29, Type (0, 0), BuildingBlock: XIVTED_clean_linker_0, # of connection points: 2
#     Edge 30, Type (0, 0), BuildingBlock: XIVTED_clean_linker_0, # of connection points: 2
#     Edge 31, Type (0, 0), BuildingBlock: XIVTED_clean_linker_0, # of connection points: 2
#     Edge 32, Type (0, 0), BuildingBlock: XIVTED_clean_linker_0, # of connection points: 2
#     Edge 33, Type (0, 0), BuildingBlock: XIVTED_clean_linker_0, # of connection points: 2
#     Edge 34, Type (0, 0), BuildingBlock: XIVTED_clean_linker_0, # of connection points: 2
#     Edge 35, Type (0, 0), BuildingBlock: XIVTED_clean_linker_0, # of connection points: 2
# Relax obj value: 0.036
# Max RMSD: 0.128
# Mean RMSD: 0.112
data_MOF--net-smm--node1-MIFKUJ_clean_sbu_0--edge1-XIVTED_clean_linker_0
_symmetry_space_group_name_H-M    P1
_symmetry_Int_Tables_number       1
_symmetry_cell_setting            triclinic
loop_
_symmetry_equiv_pos_as_xyz
'x, y, z'
_cell_length_a     60.862341
_cell_length_b     62.421659
_cell_length_c     13.664666
_cell_angle_alpha  92.234035
_cell_angle_beta   92.355008
_cell_angle_gamma 119.93178
loop_
_atom_site_label
_atom_site_type_symbol
_atom_site_fract_x
_atom_site_fract_y
_atom_site_fract_z
_atom_type_partial_charge
Zn0 Zn 0.99548 0.13417 0.08527 0.0
Zn1 Zn 0.01158 0.20738 0.0407 0.0
C2 C 0.0445 0.14092 0.14085 0.0
O3 O 0.05171 0.15987 0.08621 0.0
C4 C 0.96424 0.20449 0.09266 0.0
O5 O 0.96703 0.1936 0.1686 0.0
O6 O 0.96043 0.10393 0.07646 0.0
O7 O 0.99881 0.16594 0.13037 0.0
O8 O 0.01819 0.20423 0.18395 0.0
C9 C 0.95346 0.08718 0.13718 0.0
O10 O 0.96823 0.09098 0.21645 0.0
O11 O 0.02105 0.12755 0.15468 0.0
C12 C 0.04152 0.24835 0.92312 0.0
O13 O 0.02416 0.23431 0.85313 0.0
O14 O 0.04024 0.24029 0.00783 0.0
O15 O 0.01146 0.17944 0.95239 0.0
O16 O 0.00474 0.14089 0.94574 0.0
O17 O 0.97965 0.20996 0.02516 0.0
C18 C 0.01092 0.18198 0.20061 0.0
C19 C 0.01079 0.161 0.90497 0.0
Zn20 Zn 0.8692 0.86968 0.01416 0.0
Zn21 Zn 0.80839 0.79652 0.05674 0.0
C22 C 0.91944 0.87624 0.01102 0.0
O23 O 0.91108 0.8599 0.07781 0.0
C24 C 0.76523 0.8011 -0.01264 0.0
O25 O 0.7799 0.81241 0.91663 0.0
O26 O 0.8595 0.89595 -0.00011 0.0
O27 O 0.84465 0.83561 0.95475 0.0
O28 O 0.81701 0.79704 0.91468 0.0
C29 C 0.86795 0.91142 0.93407 0.0
O30 O 0.87971 0.90765 0.86272 0.0
O31 O 0.90445 0.88243 0.97049 0.0
C32 C 0.79126 0.7557 0.18165 0.0
O33 O 0.77918 0.76613 0.22028 0.0
O34 O 0.80537 0.76572 0.1118 0.0
O35 O 0.83746 0.82765 0.12874 0.0
O36 O 0.87026 0.86497 0.15896 0.0
O37 O 0.77404 0.79434 0.05828 0.0
C38 C 0.83458 0.81777 0.88994 0.0
C39 C 0.85424 0.84422 0.1896 0.0
Zn40 Zn 0.15604 0.02637 0.04158 0.0
Zn41 Zn 0.1954 0.99428 0.9639 0.0
C42 C 0.10443 0.99625 -0.00546 0.0
O43 O 0.11051 0.01562 0.94345 0.0
C44 C 0.24556 0.02427 0.02935 0.0
O45 O 0.23808 0.00377 0.07439 0.0
O46 O 0.15507 0.05585 0.1033 0.0
O47 O 0.18467 0.02101 0.08831 0.0
O48 O 0.1882 0.98828 0.10567 0.0
C49 C 0.14007 0.05246 0.1708 0.0
O50 O 0.12822 0.03063 0.20721 0.0
O51 O 0.1217 0.9959 0.0489 0.0
C52 C 0.21036 0.97066 0.8195 0.0
O53 O 0.22018 0.99276 0.78543 0.0
O54 O 0.19753 0.96624 0.89483 0.0
O55 O 0.16597 0.99829 0.91352 0.0
O56 O 0.16105 0.03025 0.89751 0.0
O57 O 0.22993 0.02549 0.96823 0.0
C58 C 0.18234 0.00377 0.14091 0.0
C59 C 0.16691 0.01492 0.86055 0.0
Zn60 Zn 0.68669 0.47655 0.2224 0.0
Zn61 Zn 0.67463 0.5361 0.30539 0.0
C62 C 0.63489 0.43669 0.18091 0.0
O63 O 0.63048 0.4472 0.25686 0.0
C64 C 0.72439 0.57942 0.29022 0.0
O65 O 0.72574 0.56614 0.21621 0.0
O66 O 0.71934 0.47654 0.19841 0.0
O67 O 0.6857 0.50683 0.19464 0.0
O68 O 0.67103 0.53061 0.15631 0.0
C69 C 0.7196 0.46269 0.12805 0.0
O70 O 0.69936 0.45052 0.06688 0.0
O71 O 0.65718 0.4466 0.15136 0.0
C72 C 0.64562 0.54764 0.43378 0.0
O73 O 0.66506 0.55304 0.49568 0.0
O74 O 0.64488 0.53885 0.34748 0.0
O75 O 0.67566 0.50719 0.36957 0.0
O76 O 0.68116 0.47471 0.36796 0.0
O77 O 0.70543 0.56954 0.34257 0.0
C78 C 0.67675 0.51452 0.12875 0.0
C79 C 0.67597 0.48971 0.41376 0.0
Zn80 Zn 0.53388 0.21178 0.16445 0.0
Zn81 Zn 0.47631 0.1395 0.21363 0.0
C82 C 0.57536 0.20193 0.15312 0.0
O83 O 0.564 0.18707 0.22268 0.0
C84 C 0.43066 0.1405 0.14547 0.0
O85 O 0.44394 0.15149 0.07115 0.0
O86 O 0.53313 0.24298 0.13542 0.0
O87 O 0.50343 0.18011 0.12005 0.0
O88 O 0.48551 0.14146 0.07192 0.0
C89 C 0.5468 0.25652 0.07016 0.0
O90 O 0.55929 0.24876 0.01699 0.0
O91 O 0.56535 0.21356 0.115 0.0
C92 C 0.46584 0.10191 0.34812 0.0
O93 O 0.46187 0.11685 0.40551 0.0
O94 O 0.473 0.10811 0.26255 0.0
O95 O 0.50383 0.16978 0.3005 0.0
O96 O 0.5352 0.20893 0.31116 0.0
O97 O 0.44123 0.13553 0.2164 0.0
C98 C 0.49976 0.16382 0.05347 0.0
C99 C 0.52102 0.18887 0.35165 0.0
Zn100 Zn 0.80737 0.32647 0.22928 0.0
Zn101 Zn 0.88149 0.34819 0.30749 0.0
C102 C 0.81599 0.37641 0.21425 0.0
O103 O 0.8321 0.3818 0.2907 0.0
C104 C 0.89452 0.31598 0.21064 0.0
O105 O 0.90459 0.33544 0.15816 0.0
O106 O 0.77451 0.29435 0.19346 0.0
O107 O 0.83846 0.32738 0.18983 0.0
O108 O 0.87613 0.35855 0.17629 0.0
C109 C 0.76049 0.29307 0.11913 0.0
O110 O 0.76884 0.31179 0.06284 0.0
O111 O 0.8042 0.35442 0.17505 0.0
C112 C 0.92452 0.37637 0.45264 0.0
O113 O 0.90954 0.36108 0.51494 0.0
O114 O 0.91621 0.37436 0.36389 0.0
O115 O 0.85415 0.34504 0.39911 0.0
O116 O 0.81278 0.33271 0.3758 0.0
O117 O 0.88249 0.31631 0.28429 0.0
C118 C 0.85345 0.34519 0.14136 0.0
C119 C 0.83303 0.34081 0.43181 0.0
Zn120 Zn 0.33857 0.81542 0.69502 0.0
Zn121 Zn 0.35118 0.88798 0.64364 0.0
C122 C 0.38195 0.80889 0.69754 0.0
O123 O 0.3791 0.81063 0.60302 0.0
C124 C 0.3005 0.87979 0.67376 0.0
O125 O 0.3004 0.865 0.73977 0.0
O126 O 0.30443 0.78487 0.70573 0.0
O127 O 0.34264 0.84771 0.73825 0.0
O128 O 0.35652 0.88558 0.78968 0.0
C129 C 0.30156 0.76872 0.76562 0.0
O130 O 0.32018 0.77368 0.83114 0.0
O131 O 0.36682 0.81067 0.75439 0.0
C132 C 0.38006 0.92671 0.51846 0.0
O133 O 0.36207 0.91123 0.45312 0.0
O134 O 0.3799 0.92042 0.60587 0.0
O135 O 0.3499 0.85875 0.56172 0.0
O136 O 0.34318 0.82031 0.55108 0.0
O137 O 0.31936 0.89014 0.6211 0.0
C138 C 0.35147 0.86398 0.80893 0.0
C139 C 0.34903 0.84055 0.512 0.0
Zn140 Zn 0.20431 0.54367 0.68212 0.0
Zn141 Zn 0.15641 0.47052 0.71457 0.0
C142 C 0.25129 0.54317 0.67216 0.0
O143 O 0.24123 0.52631 0.73632 0.0
C144 C 0.11098 0.4631 0.60972 0.0
O145 O 0.12286 0.46099 0.53512 0.0
O146 O 0.20067 0.57397 0.67528 0.0
O147 O 0.17628 0.5127 0.61939 0.0
O148 O 0.17336 0.47707 0.58838 0.0
C149 C 0.21198 0.5896 0.61202 0.0
O150 O 0.22344 0.5843 0.54374 0.0
O151 O 0.23821 0.55185 0.63409 0.0
C152 C 0.14357 0.42893 0.83292 0.0
O153 O 0.14492 0.44429 0.90458 0.0
O154 O 0.14854 0.43648 0.7473 0.0
O155 O 0.17918 0.49599 0.82652 0.0
O156 O 0.2054 0.53693 0.82344 0.0
O157 O 0.12207 0.46837 0.69546 0.0
C158 C 0.18154 0.49909 0.56586 0.0
C159 C 0.19515 0.51714 0.86902 0.0
Zn160 Zn 0.48851 0.68952 0.74803 0.0
Zn161 Zn 0.53608 0.66327 0.70731 0.0
C162 C 0.43708 0.66204 0.70797 0.0
O163 O 0.44468 0.6807 0.65149 0.0
C164 C 0.57997 0.69716 0.82856 0.0
O165 O 0.56857 0.67922 0.88751 0.0
O166 O 0.48972 0.72188 0.78178 0.0
O167 O 0.51563 0.68531 0.80903 0.0
O168 O 0.51686 0.65166 0.82725 0.0
C169 C 0.47552 0.72281 0.84565 0.0
O170 O 0.4625 0.70342 0.89626 0.0
O171 O 0.45339 0.66138 0.76711 0.0
C172 C 0.54806 0.63275 0.57761 0.0
O173 O 0.54345 0.64388 0.50674 0.0
O174 O 0.54567 0.63794 0.66593 0.0
O175 O 0.51502 0.6672 0.59531 0.0
O176 O 0.49134 0.68546 0.60467 0.0
O177 O 0.56926 0.6952 0.74405 0.0
C178 C 0.50911 0.6661 0.85516 0.0
C179 C 0.50054 0.67434 0.55574 0.0
H180 H 0.05307 0.27065 0.749 0.0
H181 H 0.13364 0.40651 0.00693 0.0
H182 H 0.0735 0.28503 0.06065 0.0
H183 H 0.12994 0.39084 0.69421 0.0
H184 H 0.11243 0.36204 0.02858 0.0
H185 H 0.08186 0.31453 0.72678 0.0
C186 C 0.06376 0.28299 0.81263 0.0
C187 C 0.06069 0.2742 0.90691 0.0
C188 C 0.11652 0.36835 0.95534 0.0
C189 C 0.09347 0.32443 0.88218 0.0
C190 C 0.12859 0.39374 0.94293 0.0
C191 C 0.13336 0.4024 0.84857 0.0
C192 C 0.10887 0.3515 0.87267 0.0
C193 C 0.12652 0.385 0.76831 0.0
C194 C 0.08023 0.30802 0.79989 0.0
C195 C 0.07517 0.291 0.98665 0.0
N196 N 0.11435 0.36038 0.78208 0.0
N197 N 0.0907 0.31535 0.97262 0.0
H198 H 0.72917 0.77749 0.11875 0.0
H199 H 0.61362 0.73307 0.71475 0.0
H200 H 0.7382 0.8038 0.82742 0.0
H201 H 0.60573 0.70817 0.00826 0.0
H202 H 0.6583 0.76348 0.76074 0.0
H203 H 0.68313 0.75677 0.0866 0.0
C204 C 0.72149 0.77921 0.04847 0.0
C205 C 0.73761 0.79213 0.97523 0.0
C206 C 0.64669 0.75155 0.81536 0.0
C207 C 0.68478 0.76809 0.93725 0.0
C208 C 0.62116 0.73421 0.78916 0.0
C209 C 0.60599 0.7178 0.85734 0.0
C210 C 0.65707 0.75244 0.91034 0.0
C211 C 0.61677 0.72019 0.9528 0.0
C212 C 0.69515 0.7673 0.03 0.0
C213 C 0.72652 0.79387 0.88582 0.0
N214 N 0.64166 0.73697 0.9761 0.0
N215 N 0.70081 0.78169 0.86883 0.0
H216 H 0.19834 0.92538 0.88572 0.0
H217 H 0.29675 0.91239 0.5549 0.0
H218 H 0.23822 0.97477 0.6618 0.0
H219 H 0.26082 0.86596 0.79169 0.0
H220 H 0.26964 0.9306 0.57333 0.0
H221 H 0.21518 0.89886 0.83278 0.0
C222 C 0.21036 0.93049 0.82456 0.0
C223 C 0.21721 0.95256 0.77921 0.0
C224 C 0.26746 0.91621 0.62049 0.0
C225 C 0.23669 0.92234 0.71861 0.0
C226 C 0.28291 0.90574 0.60986 0.0
C227 C 0.28136 0.88787 0.67288 0.0
C228 C 0.25037 0.90885 0.69494 0.0
C229 C 0.26289 0.87987 0.74215 0.0
C230 C 0.22002 0.91535 0.79448 0.0
C231 C 0.2327 0.95811 0.69984 0.0
N232 N 0.24836 0.89063 0.75214 0.0
N233 N 0.24214 0.94326 0.67284 0.0
H234 H 0.40052 0.14105 -0.00849 0.0
H235 H 0.27525 0.03312 0.19605 0.0
H236 H 0.39686 0.11437 0.28056 0.0
H237 H 0.27487 0.06325 0.91759 0.0
H238 H 0.31908 0.06573 0.23286 0.0
H239 H 0.35416 0.11632 0.96848 0.0
C240 C 0.38998 0.13035 0.05085 0.0
C241 C 0.40268 0.12949 0.1376 0.0
C242 C 0.30948 0.06543 0.16388 0.0
C243 C 0.34963 0.10098 0.11117 0.0
C244 C 0.28443 0.0467 0.14258 0.0
C245 C 0.27151 0.04532 0.05311 0.0
C246 C 0.32202 0.08281 0.0946 0.0
C247 C 0.28422 0.06364 0.98732 0.0
C248 C 0.36349 0.11617 0.03744 0.0
C249 C 0.38797 0.11539 0.212 0.0
N250 N 0.30896 0.0815 0.00882 0.0
N251 N 0.36231 0.10148 0.19656 0.0
H252 H 0.886 0.2768 0.32109 0.0
H253 H 0.95584 0.23092 0.95492 0.0
H254 H 0.91269 0.30744 0.04377 0.0
H255 H 0.93387 0.20237 0.23917 0.0
H256 H 0.93364 0.25413 0.97559 0.0
H257 H 0.89743 0.24499 0.2829 0.0
C258 C 0.89397 0.27668 0.25181 0.0
C259 C 0.89869 0.29501 0.18613 0.0
C260 C 0.93341 0.24257 0.03306 0.0
C261 C 0.91179 0.25874 0.14194 0.0
C262 C 0.94602 0.22921 0.02107 0.0
C263 C 0.94707 0.21493 0.09599 0.0
C264 C 0.92186 0.24181 0.12088 0.0
C265 C 0.93381 0.21333 0.17981 0.0
C266 C 0.90053 0.25854 0.23007 0.0
C267 C 0.90901 0.2939 0.09729 0.0
N268 N 0.92205 0.22687 0.19058 0.0
N269 N 0.91535 0.27624 0.07821 0.0
H270 H 0.81031 0.72725 0.10832 0.0
H271 H 0.72371 0.61317 0.42285 0.0
H272 H 0.76313 0.72966 0.33097 0.0
H273 H 0.76295 0.60797 0.17489 0.0
H274 H 0.74518 0.65803 0.41291 0.0
H275 H 0.79986 0.68588 0.15333 0.0
C276 C 0.79794 0.7192 0.16732 0.0
C277 C 0.78726 0.7318 0.2149 0.0
C278 C 0.74936 0.64711 0.36151 0.0
C279 C 0.77522 0.68441 0.26676 0.0
C280 C 0.73718 0.62147 0.36737 0.0
C281 C 0.74116 0.60669 0.29836 0.0
C282 C 0.7656 0.65806 0.28604 0.0
C283 C 0.75903 0.61856 0.22882 0.0
C284 C 0.79199 0.69556 0.19298 0.0
C285 C 0.77154 0.72051 0.2914 0.0
N286 N 0.77031 0.64351 0.22356 0.0
N287 N 0.76581 0.69737 0.31432 0.0
H288 H 0.07562 0.45128 0.74741 0.0
H289 H 0.96106 0.4081 0.33774 0.0
H290 H 0.08468 0.45867 0.43675 0.0
H291 H 0.94985 0.38506 0.63419 0.0
H292 H 0.00645 0.43387 0.38161 0.0
H293 H 0.02972 0.43418 0.71511 0.0
C294 C 0.06804 0.44969 0.67268 0.0
C295 C 0.08396 0.45617 0.59448 0.0
C296 C 0.99406 0.42334 0.43737 0.0
C297 C 0.03162 0.43663 0.55722 0.0
C298 C 0.96808 0.40862 0.41243 0.0
C299 C 0.95161 0.39409 0.48203 0.0
C300 C 0.00377 0.42364 0.53271 0.0
C301 C 0.96188 0.39574 0.57788 0.0
C302 C 0.04184 0.43981 0.6543 0.0
C303 C 0.0731 0.45367 0.49917 0.0
N304 N 0.98736 0.41009 0.60025 0.0
N305 N 0.04763 0.44399 0.48322 0.0
H306 H 0.55182 0.61407 0.39806 0.0
H307 H 0.63913 0.56333 0.61445 0.0
H308 H 0.56725 0.61322 0.7087 0.0
H309 H 0.6095 0.54892 0.31182 0.0
H310 H 0.61168 0.58033 0.65143 0.0
H311 H 0.57174 0.58908 0.36493 0.0
C312 C 0.55923 0.60849 0.4593 0.0
C313 C 0.55807 0.61593 0.55624 0.0
C314 C 0.61096 0.57319 0.57714 0.0
C315 C 0.58102 0.58749 0.5189 0.0
C316 C 0.62665 0.5635 0.55598 0.0
C317 C 0.6268 0.55493 0.45971 0.0
C318 C 0.59554 0.57461 0.50125 0.0
C319 C 0.61011 0.55544 0.387 0.0
C320 C 0.57054 0.59416 0.44037 0.0
C321 C 0.56783 0.60801 0.63276 0.0
N322 N 0.59539 0.56543 0.40901 0.0
N323 N 0.57912 0.59446 0.6124 0.0
H324 H 0.45641 0.08475 0.5319 0.0
H325 H 0.39138 0.94406 0.33598 0.0
H326 H 0.4597 0.06221 0.23272 0.0
H327 H 0.40984 0.9674 0.64425 0.0
H328 H 0.4173 0.98722 0.29659 0.0
H329 H 0.44037 0.04208 0.57583 0.0
C330 C 0.454 0.07088 0.47566 0.0
C331 C 0.45913 0.07699 0.37827 0.0
C332 C 0.41595 0.98287 0.37283 0.0
C333 C 0.44054 0.02812 0.42778 0.0
C334 C 0.4011 0.95824 0.39535 0.0
C335 C 0.39822 0.95217 0.49353 0.0
C336 C 0.42765 0.00161 0.44908 0.0
C337 C 0.41143 0.97127 0.56752 0.0
C338 C 0.44491 0.04654 0.50085 0.0
C339 C 0.45587 0.05831 0.3086 0.0
N340 N 0.42526 0.99518 0.54382 0.0
N341 N 0.44643 0.03465 0.3344 0.0
H342 H 0.15656 0.09765 0.09448 0.0
H343 H 0.03715 0.10499 0.26566 0.0
H344 H 0.10478 0.04892 0.29688 0.0
H345 H 0.09305 0.15829 0.08688 0.0
H346 H 0.06481 0.08768 0.29603 0.0
H347 H 0.1371 0.12357 0.10906 0.0
C348 C 0.14141 0.09262 0.14335 0.0
C349 C 0.13203 0.07083 0.19325 0.0
C350 C 0.0712 0.10337 0.25121 0.0
C351 C 0.10943 0.10028 0.20935 0.0
C352 C 0.05539 0.11326 0.23379 0.0
C353 C 0.06263 0.13287 0.1724 0.0
C354 C 0.0943 0.11298 0.20602 0.0
C355 C 0.0866 0.14303 0.134 0.0
C356 C 0.13025 0.10742 0.15149 0.0
C357 C 0.11244 0.06536 0.25599 0.0
N358 N 0.1014 0.13272 0.15022 0.0
N359 N 0.10155 0.07977 0.26108 0.0
H360 H 0.88477 0.94952 0.81145 0.0
H361 H 0.92901 0.04849 0.25366 0.0
H362 H 0.85803 0.93014 0.10041 0.0
H363 H 0.93011 0.06808 0.95375 0.0
H364 H 0.90023 0.00507 0.19863 0.0
H365 H 0.89842 0.9928 0.85836 0.0
C366 C 0.88126 0.95425 0.88401 0.0
C367 C 0.87065 0.93621 0.9526 0.0
C368 C 0.90635 0.01892 0.14506 0.0
C369 C 0.88666 0.98576 0.00733 0.0
C370 C 0.92282 0.04372 0.17649 0.0
C371 C 0.93223 0.0619 0.10814 0.0
C372 C 0.89969 0.01219 0.0443 0.0
C373 C 0.92345 0.05467 0.00903 0.0
C374 C 0.88907 0.97899 0.91079 0.0
C375 C 0.8664 0.94343 0.04537 0.0
N376 N 0.9081 0.03031 0.97979 0.0
N377 N 0.87493 0.96771 0.07071 0.0
H378 H 0.94257 0.90945 0.87256 0.0
H379 H 0.08312 0.95559 0.10502 0.0
H380 H 0.9586 0.87477 0.11093 0.0
H381 H 0.06511 0.99019 0.87169 0.0
H382 H 0.03823 0.92316 0.09843 0.0
H383 H 0.98808 0.93614 0.8595 0.0
C384 C 0.95567 0.90727 0.92156 0.0
C385 C 0.94677 0.89005 -0.00628 0.0
C386 C 0.04419 0.93778 0.0483 0.0
C387 C 0.999 0.92079 0.97994 0.0
C388 C 0.06978 0.95628 0.05208 0.0
C389 C 0.07782 0.97573 -0.0106 0.0
C390 C 0.02661 0.93878 0.98128 0.0
C391 C 0.05976 0.97569 0.92207 0.0
C392 C 0.98169 0.92257 0.91422 0.0
C393 C 0.96464 0.8879 0.0546 0.0
N394 N 0.03504 0.9576 0.92015 0.0
N395 N 0.98993 0.9033 0.04707 0.0
H396 H 0.76067 0.47781 0.26052 0.0
H397 H 0.78786 0.37353 0.0479 0.0
H398 H 0.72548 0.43375 -0.01149 0.0
H399 H 0.82673 0.42017 0.31124 0.0
H400 H 0.76983 0.39981 0.01192 0.0
H401 H 0.78988 0.46161 0.26746 0.0
C402 C 0.75936 0.46508 0.20136 0.0
C403 C 0.7403 0.4568 0.12469 0.0
C404 C 0.78256 0.40453 0.07695 0.0
C405 C 0.7735 0.43801 0.13267 0.0
C406 C 0.79286 0.3895 0.09754 0.0
C407 C 0.80849 0.39443 0.18356 0.0
C408 C 0.78767 0.42448 0.14342 0.0
C409 C 0.81459 0.41555 0.24452 0.0
C410 C 0.77602 0.45578 0.20548 0.0
C411 C 0.73961 0.44038 0.04982 0.0
N412 N 0.80384 0.42958 0.2241 0.0
N413 N 0.75571 0.43127 0.05641 0.0
H414 H 0.63593 0.41149 0.01469 0.0
H415 H 0.53125 0.28199 0.19045 0.0
H416 H 0.59041 0.40419 0.25885 0.0
H417 H 0.57517 0.2901 0.94011 0.0
H418 H 0.54713 0.32658 0.19917 0.0
H419 H 0.60848 0.36742 0.96858 0.0
C420 C 0.61991 0.40068 0.05776 0.0
C421 C 0.61572 0.41142 0.14181 0.0
C422 C 0.55298 0.31854 0.14135 0.0
C423 C 0.58439 0.36084 0.0902 0.0
C424 C 0.54386 0.29305 0.13621 0.0
C425 C 0.55227 0.28235 0.06556 0.0
C426 C 0.57068 0.33341 0.07566 0.0
C427 C 0.56849 0.29759 -0.00317 0.0
C428 C 0.60424 0.37548 0.03143 0.0
C429 C 0.59449 0.39661 0.19407 0.0
N430 N 0.57745 0.32238 0.00448 0.0
N431 N 0.57987 0.37196 0.16841 0.0
H432 H 0.60778 0.19065 0.25347 0.0
H433 H 0.7262 0.28454 0.96617 0.0
H434 H 0.6024 0.22812 0.00249 0.0
H435 H 0.73332 0.25632 0.24195 0.0
H436 H 0.68036 0.2566 0.95891 0.0
H437 H 0.65296 0.2073 0.23062 0.0
C438 C 0.61598 0.20201 0.1925 0.0
C439 C 0.6014 0.20833 0.13067 0.0
C440 C 0.69196 0.25628 0.02044 0.0
C441 C 0.65305 0.22747 0.1044 0.0
C442 C 0.71818 0.27221 0.02459 0.0
C443 C 0.7336 0.27309 0.10569 0.0
C444 C 0.68101 0.24117 0.09816 0.0
C445 C 0.72214 0.25644 0.17852 0.0
C446 C 0.6418 0.21157 0.17975 0.0
C447 C 0.61302 0.22306 0.05275 0.0
N448 N 0.69647 0.24139 0.17373 0.0
N449 N 0.6382 0.23233 0.04246 0.0
H450 H 0.44705 0.73133 0.97479 0.0
H451 H 0.42016 0.80973 0.59851 0.0
H452 H 0.48899 0.75946 0.7182 0.0
H453 H 0.38769 0.79431 0.87997 0.0
H454 H 0.4488 0.79521 0.65098 0.0
H455 H 0.42908 0.75835 0.9538 0.0
C456 C 0.45286 0.74353 0.9151 0.0
C457 C 0.46916 0.74278 0.84698 0.0
C458 C 0.43571 0.7953 0.70208 0.0
C459 C 0.44842 0.77346 0.82187 0.0
C460 C 0.41924 0.80353 0.67196 0.0
C461 C 0.40126 0.80292 0.73449 0.0
C462 C 0.43405 0.78605 0.79511 0.0
C463 C 0.40113 0.7949 0.82914 0.0
C464 C 0.44257 0.75894 0.90316 0.0
C465 C 0.47627 0.75919 0.77184 0.0
N466 N 0.41704 0.78641 0.85615 0.0
N467 N 0.4655 0.77352 0.76031 0.0
H468 H 0.22865 0.62541 0.48039 0.0
H469 H 0.26809 0.74829 0.60331 0.0
H470 H 0.2075 0.61237 0.77913 0.0
H471 H 0.28712 0.73018 0.88433 0.0
H472 H 0.23941 0.70414 0.55993 0.0
H473 H 0.24415 0.6695 0.51575 0.0
C474 C 0.2267 0.63174 0.55274 0.0
C475 C 0.21683 0.61521 0.62696 0.0
C476 C 0.24974 0.70989 0.6313 0.0
C477 C 0.23457 0.66563 0.66806 0.0
C478 C 0.26592 0.73509 0.65665 0.0
C479 C 0.28041 0.74291 0.74698 0.0
C480 C 0.24794 0.69244 0.697 0.0
C481 C 0.27662 0.72495 0.81333 0.0
C482 C 0.2354 0.65691 0.57272 0.0
C483 C 0.21491 0.62446 0.71964 0.0
N484 N 0.26088 0.7005 0.7867 0.0
N485 N 0.22425 0.64917 0.73822 0.0
H486 H 0.41302 0.62146 0.81791 0.0
H487 H 0.27757 0.57565 0.53559 0.0
H488 H 0.40009 0.65681 0.57443 0.0
H489 H 0.28792 0.54008 0.78381 0.0
H490 H 0.32353 0.60218 0.5367 0.0
H491 H 0.36814 0.58883 0.7979 0.0
C492 C 0.40079 0.62233 0.76026 0.0
C493 C 0.41025 0.64198 0.69831 0.0
C494 C 0.31581 0.58842 0.59042 0.0
C495 C 0.35916 0.60476 0.67446 0.0
C496 C 0.28955 0.57319 0.5895 0.0
C497 C 0.2789 0.55586 0.66051 0.0
C498 C 0.33157 0.5865 0.66346 0.0
C499 C 0.29534 0.55331 0.72803 0.0
C500 C 0.37523 0.60369 0.74866 0.0
C501 C 0.39362 0.64215 0.62452 0.0
N502 N 0.32088 0.56873 0.72876 0.0
N503 N 0.36894 0.62391 0.61492 0.0
H504 H 0.04133 0.20265 0.81275 0.0
H505 H 0.98817 0.13731 0.2826 0.0
H506 H 0.99422 0.12338 0.76168 0.0
H507 H 0.04827 0.21316 0.33718 0.0
H508 H 0.99381 0.13011 0.45449 0.0
H509 H 0.04753 0.20585 0.63755 0.0
C510 C 0.03229 0.18592 0.76442 0.0
C511 C 0.01671 0.16282 0.80108 0.0
C512 C 0.00615 0.14818 0.42832 0.0
C513 C 0.02373 0.16621 0.60049 0.0
C514 C 0.00303 0.15219 0.33011 0.0
C515 C 0.01755 0.17586 0.29627 0.0
C516 C 0.0237 0.16814 0.4928 0.0
C517 C 0.03636 0.1947 0.36087 0.0
C518 C 0.03603 0.18769 0.66452 0.0
C519 C 0.00613 0.1416 0.73595 0.0
N520 N 0.03863 0.19054 0.4564 0.0
N521 N 0.00946 0.14383 0.63835 0.0
H522 H 0.87117 0.85973 0.81481 0.0
H523 H 0.83029 0.79962 0.26931 0.0
H524 H 0.81808 0.78226 0.73901 0.0
H525 H 0.88338 0.87706 0.34288 0.0
H526 H 0.83123 0.79157 0.44176 0.0
H527 H 0.88191 0.86509 0.64423 0.0
C528 C 0.862 0.8438 0.76247 0.0
C529 C 0.84335 0.82065 0.79039 0.0
C530 C 0.84283 0.81032 0.42031 0.0
C531 C 0.85531 0.82664 0.59549 0.0
C532 C 0.84208 0.81491 0.32197 0.0
C533 C 0.85611 0.83907 0.29247 0.0
C534 C 0.85761 0.83016 0.48971 0.0
C535 C 0.87185 0.85819 0.36301 0.0
C536 C 0.86814 0.84685 0.66513 0.0
C537 C 0.83224 0.80054 0.72005 0.0
N538 N 0.87192 0.85337 0.45889 0.0
N539 N 0.83815 0.80408 0.62535 0.0
H540 H 0.16704 0.97731 0.75318 0.0
H541 H 0.17784 0.03924 0.24494 0.0
H542 H 0.17135 0.048 0.72664 0.0
H543 H 0.17326 0.96844 0.27051 0.0
H544 H 0.1725 0.0414 0.4198 0.0
H545 H 0.16807 0.97314 0.57585 0.0
C546 C 0.16856 0.99213 0.71009 0.0
C547 C 0.16945 0.0132 0.75462 0.0
C548 C 0.17241 0.02526 0.38714 0.0
C549 C 0.16995 0.00823 0.55151 0.0
C550 C 0.17518 0.0239 0.28705 0.0
C551 C 0.17586 0.00357 0.24325 0.0
C552 C 0.1706 0.00629 0.44395 0.0
C553 C 0.17288 0.98446 0.30159 0.0
C554 C 0.16886 0.9896 0.60873 0.0
C555 C 0.17078 0.03153 0.69514 0.0
N556 N 0.17056 0.98637 0.39938 0.0
N557 N 0.17099 0.02862 0.59638 0.0
H558 H 0.64683 0.50389 0.51109 0.0
H559 H 0.69694 0.48981 0.03528 0.0
H560 H 0.69189 0.46881 0.55184 0.0
H561 H 0.64399 0.51586 -0.00978 0.0
H562 H 0.69107 0.47673 0.86043 0.0
H563 H 0.64141 0.50365 0.68682 0.0
C564 C 0.65562 0.49618 0.5574 0.0
C565 C 0.67045 0.48706 0.5178 0.0
C566 C 0.68036 0.48488 0.88902 0.0
C567 C 0.66425 0.48651 0.71885 0.0
C568 C 0.68357 0.49212 -0.01114 0.0
C569 C 0.67095 0.50384 0.02683 0.0
C570 C 0.66466 0.48977 0.82686 0.0
C571 C 0.65431 0.50711 0.96351 0.0
C572 C 0.65234 0.49581 0.65757 0.0
C573 C 0.68062 0.47637 0.58006 0.0
N574 N 0.65186 0.50035 0.86638 0.0
N575 N 0.67768 0.47675 0.67807 0.0
H576 H 0.53979 0.22672 0.49542 0.0
H577 H 0.508 0.13436 0.92514 0.0
H578 H 0.51136 0.14826 0.4494 0.0
H579 H 0.51709 0.20721 0.96594 0.0
H580 H 0.52015 0.14269 0.75649 0.0
H581 H 0.5422 0.22312 0.67327 0.0
C582 C 0.5342 0.20878 0.52281 0.0
C583 C 0.52459 0.18758 0.45815 0.0
C584 C 0.51999 0.15706 0.80295 0.0
C585 C 0.52757 0.18339 0.66031 0.0
C586 C 0.51312 0.15234 0.89916 0.0
C587 C 0.51165 0.17022 0.95931 0.0
C588 C 0.52515 0.17973 0.76649 0.0
C589 C 0.51851 0.19319 0.92231 0.0
C590 C 0.53558 0.20674 0.62406 0.0
C591 C 0.51796 0.16486 0.49708 0.0
N592 N 0.52468 0.19722 0.82772 0.0
N593 N 0.5194 0.16332 0.59567 0.0
H594 H 0.79215 0.31899 0.5444 0.0
H595 H 0.87723 0.38694 0.04041 0.0
H596 H 0.87192 0.37398 0.55914 0.0
H597 H 0.81154 0.3135 0.02336 0.0
H598 H 0.86822 0.39038 0.86737 0.0
H599 H 0.7926 0.32486 0.72337 0.0
C600 C 0.80965 0.33249 0.58515 0.0
C601 C 0.8322 0.3456 0.53761 0.0
C602 C 0.85544 0.37377 0.90239 0.0
C603 C 0.83267 0.35267 0.74057 0.0
C604 C 0.86053 0.3718 0.00094 0.0
C605 C 0.84515 0.34981 0.04576 0.0
C606 C 0.83489 0.3536 0.84868 0.0
C607 C 0.82368 0.33084 -0.00835 0.0
C608 C 0.80986 0.33583 0.68689 0.0
C609 C 0.85429 0.36304 0.59343 0.0
N610 N 0.81934 0.33301 0.89531 0.0
N611 N 0.85401 0.36597 0.69214 0.0
H612 H 0.38193 0.88227 0.42685 0.0
H613 H 0.33247 0.81917 0.88723 0.0
H614 H 0.33066 0.80399 0.36408 0.0
H615 H 0.38381 0.89726 0.95418 0.0
H616 H 0.33785 0.81173 0.0587 0.0
H617 H 0.38887 0.88682 0.25251 0.0
C618 C 0.37199 0.8661 0.37588 0.0
C619 C 0.35496 0.84295 0.40867 0.0
C620 C 0.3483 0.83044 0.03555 0.0
C621 C 0.36303 0.84778 0.20977 0.0
C622 C 0.34532 0.83463 0.93769 0.0
C623 C 0.35745 0.85882 0.90731 0.0
C624 C 0.3634 0.8507 0.10303 0.0
C625 C 0.37374 0.87834 0.9753 0.0
C626 C 0.37618 0.86859 0.27664 0.0
C627 C 0.34356 0.82227 0.34095 0.0
N628 N 0.37601 0.87388 0.07035 0.0
N629 N 0.34746 0.82523 0.2441 0.0
H630 H 0.21217 0.55726 0.00065 0.0
H631 H 0.20242 0.47741 0.45504 0.0
H632 H 0.19382 0.48086 0.97749 0.0
H633 H 0.19029 0.53986 0.47046 0.0
H634 H 0.215 0.48635 0.28719 0.0
H635 H 0.21904 0.55804 0.17917 0.0
C636 C 0.20989 0.54076 0.03303 0.0
C637 C 0.20176 0.51874 0.97489 0.0
C638 C 0.21019 0.49845 0.32836 0.0
C639 C 0.21 0.5197 0.17752 0.0
C640 C 0.20306 0.4934 0.42404 0.0
C641 C 0.19503 0.50779 0.47602 0.0
C642 C 0.20917 0.51793 0.28467 0.0
C643 C 0.19647 0.52842 0.43292 0.0
C644 C 0.21385 0.54126 0.13458 0.0
C645 C 0.19936 0.49798 0.02014 0.0
N646 N 0.20299 0.53268 0.33888 0.0
N647 N 0.20328 0.49891 0.11899 0.0
H648 H 0.4977 0.63639 0.44028 0.0
H649 H 0.50098 0.69927 0.9583 0.0
H650 H 0.4863 0.69922 0.43145 0.0
H651 H 0.48801 0.62476 0.95958 0.0
H652 H 0.4885 0.69664 0.12611 0.0
H653 H 0.4887 0.62906 0.26289 0.0
C654 C 0.49342 0.64871 0.40072 0.0
C655 C 0.49365 0.66897 0.44971 0.0
C656 C 0.48766 0.68057 0.08902 0.0
C657 C 0.48295 0.66051 0.24722 0.0
C658 C 0.49453 0.68199 -0.00736 0.0
C659 C 0.49566 0.66228 0.94538 0.0
C660 C 0.4827 0.65957 0.1391 0.0
C661 C 0.48777 0.64054 -0.00584 0.0
C662 C 0.48787 0.64429 0.29971 0.0
C663 C 0.48686 0.68371 0.39587 0.0
N664 N 0.48217 0.63996 0.08943 0.0
N665 N 0.48226 0.67948 0.29697 0.0
loop_
_geom_bond_atom_site_label_1
_geom_bond_atom_site_label_2
_geom_bond_distance
_geom_bond_site_symmetry_2
_ccdc_geom_bond_type
Zn0 O6 1.969 1_455 S
Zn0 O7 1.965 1_455 S
Zn0 O11 2.024 . S
Zn0 O16 1.969 1_554 S
Zn1 O8 1.969 . S
Zn1 O14 1.969 . S
Zn1 O15 1.965 1_554 S
Zn1 O17 2.024 1_455 S
C2 O3 1.229 1_554 S
C2 O11 1.058 . S
O3 C2 1.229 1_556 S
C4 O5 1.229 . S
C4 O17 1.058 . S
O5 C4 1.229 . S
O6 Zn0 1.969 1_655 S
O6 C9 1.267 . S
O7 Zn0 1.965 1_655 S
O7 C18 1.260 1_655 S
O8 Zn1 1.969 . S
O8 C18 1.258 . S
C9 O6 1.267 . S
C9 O10 1.228 . S
O10 C9 1.228 . S
O11 Zn0 2.024 . S
O11 C2 1.058 . S
C12 O13 1.228 . S
C12 O14 1.267 1_556 S
O13 C12 1.228 . S
O14 Zn1 1.969 . S
O14 C12 1.267 1_554 S
O15 Zn1 1.965 1_556 S
O15 C19 1.260 . S
O16 Zn0 1.969 1_556 S
O16 C19 1.258 . S
O17 Zn1 2.024 1_655 S
O17 C4 1.058 . S
C18 O7 1.260 1_455 S
C18 O8 1.258 . S
C19 O15 1.260 . S
C19 O16 1.258 . S
Zn20 O26 1.969 . S
Zn20 O27 1.965 1_554 S
Zn20 O31 2.024 . S
Zn20 O36 1.969 . S
Zn21 O28 1.969 1_554 S
Zn21 O34 1.969 . S
Zn21 O35 1.965 . S
Zn21 O37 2.024 . S
C22 O23 1.229 . S
C22 O31 1.058 . S
O23 C22 1.229 . S
C24 O25 1.229 1_554 S
C24 O37 1.058 . S
O25 C24 1.229 1_556 S
O26 Zn20 1.969 . S
O26 C29 1.263 1_554 S
O27 Zn20 1.965 1_556 S
O27 C38 1.260 . S
O28 Zn21 1.969 1_556 S
O28 C38 1.258 . S
C29 O26 1.263 1_556 S
C29 O30 1.232 . S
O30 C29 1.232 . S
O31 Zn20 2.024 . S
O31 C22 1.058 . S
C32 O33 1.228 . S
C32 O34 1.267 . S
O33 C32 1.228 . S
O34 Zn21 1.969 . S
O34 C32 1.267 . S
O35 Zn21 1.965 . S
O35 C39 1.260 . S
O36 Zn20 1.969 . S
O36 C39 1.258 . S
O37 Zn21 2.024 . S
O37 C24 1.058 . S
C38 O27 1.260 . S
C38 O28 1.258 . S
C39 O35 1.260 . S
C39 O36 1.258 . S
Zn40 O46 1.970 . S
Zn40 O47 1.958 1_556 S
Zn40 O51 2.021 1_546 S
Zn40 O56 1.979 . S
Zn41 O48 1.969 . S
Zn41 O54 1.969 1_545 S
Zn41 O55 1.965 1_544 S
Zn41 O57 2.024 1_554 S
C42 O43 1.229 . S
C42 O51 1.058 1_556 S
O43 C42 1.229 . S
C44 O45 1.229 . S
C44 O57 1.058 1_554 S
O45 C44 1.229 . S
O46 Zn40 1.970 . S
O46 C49 1.267 1_556 S
O47 Zn40 1.958 1_554 S
O47 C58 1.260 . S
O48 Zn41 1.969 . S
O48 C58 1.258 . S
C49 O46 1.267 1_554 S
C49 O50 1.228 . S
O50 C49 1.228 . S
O51 Zn40 2.021 1_564 S
O51 C42 1.058 1_554 S
C52 O53 1.228 . S
C52 O54 1.267 1_556 S
O53 C52 1.228 . S
O54 Zn41 1.969 1_565 S
O54 C52 1.267 1_554 S
O55 Zn41 1.965 1_566 S
O55 C59 1.260 1_565 S
O56 Zn40 1.979 . S
O56 C59 1.258 . S
O57 Zn41 2.024 1_556 S
O57 C44 1.058 1_556 S
C58 O47 1.260 . S
C58 O48 1.258 . S
C59 O55 1.260 1_545 S
C59 O56 1.258 . S
Zn60 O66 1.969 . S
Zn60 O67 1.965 . S
Zn60 O71 2.024 . S
Zn60 O76 1.969 . S
Zn61 O68 1.969 . S
Zn61 O74 1.969 . S
Zn61 O75 1.965 . S
Zn61 O77 2.024 . S
C62 O63 1.229 . S
C62 O71 1.058 . S
O63 C62 1.229 . S
C64 O65 1.229 . S
C64 O77 1.058 . S
O65 C64 1.229 . S
O66 Zn60 1.969 . S
O66 C69 1.267 . S
O67 Zn60 1.965 . S
O67 C78 1.260 . S
O68 Zn61 1.969 . S
O68 C78 1.258 . S
C69 O66 1.267 . S
C69 O70 1.228 . S
O70 C69 1.228 . S
O71 Zn60 2.024 . S
O71 C62 1.058 . S
C72 O73 1.228 . S
C72 O74 1.267 . S
O73 C72 1.228 . S
O74 Zn61 1.969 . S
O74 C72 1.267 . S
O75 Zn61 1.965 . S
O75 C79 1.260 . S
O76 Zn60 1.969 . S
O76 C79 1.258 . S
O77 Zn61 2.024 . S
O77 C64 1.058 . S
C78 O67 1.260 . S
C78 O68 1.258 . S
C79 O75 1.260 . S
C79 O76 1.258 . S
Zn80 O86 1.969 . S
Zn80 O87 1.965 . S
Zn80 O91 2.024 . S
Zn80 O96 1.969 . S
Zn81 O88 1.969 . S
Zn81 O94 1.969 . S
Zn81 O95 1.965 . S
Zn81 O97 2.024 . S
C82 O83 1.229 . S
C82 O91 1.058 . S
O83 C82 1.229 . S
C84 O85 1.229 . S
C84 O97 1.058 . S
O85 C84 1.229 . S
O86 Zn80 1.969 . S
O86 C89 1.267 . S
O87 Zn80 1.965 . S
O87 C98 1.260 . S
O88 Zn81 1.969 . S
O88 C98 1.258 . S
C89 O86 1.267 . S
C89 O90 1.228 . S
O90 C89 1.228 . S
O91 Zn80 2.024 . S
O91 C82 1.058 . S
C92 O93 1.228 . S
C92 O94 1.267 . S
O93 C92 1.228 . S
O94 Zn81 1.969 . S
O94 C92 1.267 . S
O95 Zn81 1.965 . S
O95 C99 1.260 . S
O96 Zn80 1.969 . S
O96 C99 1.258 . S
O97 Zn81 2.024 . S
O97 C84 1.058 . S
C98 O87 1.260 . S
C98 O88 1.258 . S
C99 O95 1.260 . S
C99 O96 1.258 . S
Zn100 O106 1.969 . S
Zn100 O107 1.965 . S
Zn100 O111 2.024 . S
Zn100 O116 1.969 . S
Zn101 O108 1.969 . S
Zn101 O114 1.969 . S
Zn101 O115 1.965 . S
Zn101 O117 2.024 . S
C102 O103 1.229 . S
C102 O111 1.058 . S
O103 C102 1.229 . S
C104 O105 1.229 . S
C104 O117 1.058 . S
O105 C104 1.229 . S
O106 Zn100 1.969 . S
O106 C109 1.267 . S
O107 Zn100 1.965 . S
O107 C118 1.260 . S
O108 Zn101 1.969 . S
O108 C118 1.258 . S
C109 O106 1.267 . S
C109 O110 1.228 . S
O110 C109 1.228 . S
O111 Zn100 2.024 . S
O111 C102 1.058 . S
C112 O113 1.228 . S
C112 O114 1.267 . S
O113 C112 1.228 . S
O114 Zn101 1.969 . S
O114 C112 1.267 . S
O115 Zn101 1.965 . S
O115 C119 1.260 . S
O116 Zn100 1.969 . S
O116 C119 1.258 . S
O117 Zn101 2.024 . S
O117 C104 1.058 . S
C118 O107 1.260 . S
C118 O108 1.258 . S
C119 O115 1.260 . S
C119 O116 1.258 . S
Zn120 O126 1.969 . S
Zn120 O127 1.965 . S
Zn120 O131 2.024 . S
Zn120 O136 1.969 . S
Zn121 O128 1.969 . S
Zn121 O134 1.969 . S
Zn121 O135 1.965 . S
Zn121 O137 2.024 . S
C122 O123 1.229 . S
C122 O131 1.058 . S
O123 C122 1.229 . S
C124 O125 1.229 . S
C124 O137 1.058 . S
O125 C124 1.229 . S
O126 Zn120 1.969 . S
O126 C129 1.267 . S
O127 Zn120 1.965 . S
O127 C138 1.260 . S
O128 Zn121 1.969 . S
O128 C138 1.258 . S
C129 O126 1.267 . S
C129 O130 1.228 . S
O130 C129 1.228 . S
O131 Zn120 2.024 . S
O131 C122 1.058 . S
C132 O133 1.228 . S
C132 O134 1.267 . S
O133 C132 1.228 . S
O134 Zn121 1.969 . S
O134 C132 1.267 . S
O135 Zn121 1.965 . S
O135 C139 1.260 . S
O136 Zn120 1.969 . S
O136 C139 1.258 . S
O137 Zn121 2.024 . S
O137 C124 1.058 . S
C138 O127 1.260 . S
C138 O128 1.258 . S
C139 O135 1.260 . S
C139 O136 1.258 . S
Zn140 O146 1.969 . S
Zn140 O147 1.965 . S
Zn140 O151 2.024 . S
Zn140 O156 1.969 . S
Zn141 O148 1.969 . S
Zn141 O154 1.969 . S
Zn141 O155 1.965 . S
Zn141 O157 2.024 . S
C142 O143 1.229 . S
C142 O151 1.058 . S
O143 C142 1.229 . S
C144 O145 1.229 . S
C144 O157 1.058 . S
O145 C144 1.229 . S
O146 Zn140 1.969 . S
O146 C149 1.267 . S
O147 Zn140 1.965 . S
O147 C158 1.260 . S
O148 Zn141 1.969 . S
O148 C158 1.258 . S
C149 O146 1.267 . S
C149 O150 1.228 . S
O150 C149 1.228 . S
O151 Zn140 2.024 . S
O151 C142 1.058 . S
C152 O153 1.228 . S
C152 O154 1.267 . S
O153 C152 1.228 . S
O154 Zn141 1.969 . S
O154 C152 1.267 . S
O155 Zn141 1.965 . S
O155 C159 1.260 . S
O156 Zn140 1.969 . S
O156 C159 1.258 . S
O157 Zn141 2.024 . S
O157 C144 1.058 . S
C158 O147 1.260 . S
C158 O148 1.258 . S
C159 O155 1.260 . S
C159 O156 1.258 . S
Zn160 O166 1.969 . S
Zn160 O167 1.965 . S
Zn160 O171 2.024 . S
Zn160 O176 1.969 . S
Zn161 O168 1.969 . S
Zn161 O174 1.969 . S
Zn161 O175 1.965 . S
Zn161 O177 2.024 . S
C162 O163 1.229 . S
C162 O171 1.058 . S
O163 C162 1.229 . S
C164 O165 1.229 . S
C164 O177 1.058 . S
O165 C164 1.229 . S
O166 Zn160 1.969 . S
O166 C169 1.267 . S
O167 Zn160 1.965 . S
O167 C178 1.260 . S
O168 Zn161 1.969 . S
O168 C178 1.258 . S
C169 O166 1.267 . S
C169 O170 1.228 . S
O170 C169 1.228 . S
O171 Zn160 2.024 . S
O171 C162 1.058 . S
C172 O173 1.228 . S
C172 O174 1.267 . S
O173 C172 1.228 . S
O174 Zn161 1.969 . S
O174 C172 1.267 . S
O175 Zn161 1.965 . S
O175 C179 1.260 . S
O176 Zn160 1.969 . S
O176 C179 1.258 . S
O177 Zn161 2.024 . S
O177 C164 1.058 . S
C178 O167 1.260 . S
C178 O168 1.258 . S
C179 O175 1.260 . S
C179 O176 1.258 . S
H180 C186 0.930 . S
H181 C190 0.930 . S
H182 C195 0.929 . S
H183 C193 0.929 . S
H184 C188 0.929 . S
H185 C194 0.929 . S
C186 H180 0.930 . S
C186 C187 1.367 . S
C186 C194 1.378 . S
C187 C186 1.367 . S
C187 C195 1.433 1_556 S
C188 H184 0.929 . S
C188 C190 1.378 . S
C188 C192 1.350 . S
C189 C192 1.463 . S
C189 C194 1.350 . S
C189 N197 1.427 . S
C190 H181 0.930 . S
C190 C188 1.378 . S
C190 C191 1.367 . S
C191 C190 1.367 . S
C191 C193 1.433 . S
C192 C188 1.350 . S
C192 C189 1.463 . S
C192 N196 1.427 . S
C193 H183 0.929 . S
C193 C191 1.433 . S
C193 N196 1.384 . S
C194 H185 0.929 . S
C194 C186 1.378 . S
C194 C189 1.350 . S
C195 H182 0.929 . S
C195 C187 1.433 1_554 S
C195 N197 1.384 1_554 S
N196 C192 1.427 . S
N196 C193 1.384 . S
N197 C189 1.427 . S
N197 C195 1.384 1_556 S
H198 C204 0.930 . S
H199 C208 0.930 . S
H200 C213 0.929 . S
H201 C211 0.929 . S
H202 C206 0.929 . S
H203 C212 0.929 1_554 S
C204 H198 0.930 . S
C204 C205 1.367 1_554 S
C204 C212 1.378 1_554 S
C205 C204 1.367 1_556 S
C205 C213 1.433 . S
C206 H202 0.929 . S
C206 C208 1.378 . S
C206 C210 1.350 . S
C207 C210 1.463 . S
C207 C212 1.350 . S
C207 N215 1.427 . S
C208 H199 0.930 . S
C208 C206 1.378 . S
C208 C209 1.367 . S
C209 C208 1.367 . S
C209 C211 1.433 . S
C210 C206 1.350 . S
C210 C207 1.463 . S
C210 N214 1.427 . S
C211 H201 0.929 . S
C211 C209 1.433 . S
C211 N214 1.384 . S
C212 H203 0.929 1_556 S
C212 C204 1.378 1_556 S
C212 C207 1.350 . S
C213 H200 0.929 . S
C213 C205 1.433 . S
C213 N215 1.384 . S
N214 C210 1.427 . S
N214 C211 1.384 . S
N215 C207 1.427 . S
N215 C213 1.384 . S
H216 C222 0.930 . S
H217 C226 0.930 . S
H218 C231 0.929 . S
H219 C229 0.929 . S
H220 C224 0.929 . S
H221 C230 0.929 . S
C222 H216 0.930 . S
C222 C223 1.367 . S
C222 C230 1.378 . S
C223 C222 1.367 . S
C223 C231 1.433 . S
C224 H220 0.929 . S
C224 C226 1.378 . S
C224 C228 1.350 . S
C225 C228 1.463 . S
C225 C230 1.350 . S
C225 N233 1.427 . S
C226 H217 0.930 . S
C226 C224 1.378 . S
C226 C227 1.367 . S
C227 C226 1.367 . S
C227 C229 1.433 . S
C228 C224 1.350 . S
C228 C225 1.463 . S
C228 N232 1.427 . S
C229 H219 0.929 . S
C229 C227 1.433 . S
C229 N232 1.384 . S
C230 H221 0.929 . S
C230 C222 1.378 . S
C230 C225 1.350 . S
C231 H218 0.929 . S
C231 C223 1.433 . S
C231 N233 1.384 . S
N232 C228 1.427 . S
N232 C229 1.384 . S
N233 C225 1.427 . S
N233 C231 1.384 . S
H234 C240 0.930 . S
H235 C244 0.930 . S
H236 C249 0.929 . S
H237 C247 0.929 . S
H238 C242 0.929 . S
H239 C248 0.929 . S
C240 H234 0.930 . S
C240 C241 1.367 . S
C240 C248 1.378 . S
C241 C240 1.367 . S
C241 C249 1.433 . S
C242 H238 0.929 . S
C242 C244 1.378 . S
C242 C246 1.350 . S
C243 C246 1.463 . S
C243 C248 1.350 . S
C243 N251 1.427 . S
C244 H235 0.930 . S
C244 C242 1.378 . S
C244 C245 1.367 . S
C245 C244 1.367 . S
C245 C247 1.433 1_554 S
C246 C242 1.350 . S
C246 C243 1.463 . S
C246 N250 1.427 . S
C247 H237 0.929 . S
C247 C245 1.433 1_556 S
C247 N250 1.384 1_556 S
C248 H239 0.929 . S
C248 C240 1.378 . S
C248 C243 1.350 . S
C249 H236 0.929 . S
C249 C241 1.433 . S
C249 N251 1.384 . S
N250 C246 1.427 . S
N250 C247 1.384 1_554 S
N251 C243 1.427 . S
N251 C249 1.384 . S
H252 C258 0.930 . S
H253 C262 0.930 1_556 S
H254 C267 0.929 . S
H255 C265 0.929 . S
H256 C260 0.929 . S
H257 C266 0.929 . S
C258 H252 0.930 . S
C258 C259 1.367 . S
C258 C266 1.378 . S
C259 C258 1.367 . S
C259 C267 1.433 . S
C260 H256 0.929 . S
C260 C262 1.378 . S
C260 C264 1.350 . S
C261 C264 1.463 . S
C261 C266 1.350 . S
C261 N269 1.427 . S
C262 H253 0.930 1_554 S
C262 C260 1.378 . S
C262 C263 1.367 . S
C263 C262 1.367 . S
C263 C265 1.433 . S
C264 C260 1.350 . S
C264 C261 1.463 . S
C264 N268 1.427 . S
C265 H255 0.929 . S
C265 C263 1.433 . S
C265 N268 1.384 . S
C266 H257 0.929 . S
C266 C258 1.378 . S
C266 C261 1.350 . S
C267 H254 0.929 . S
C267 C259 1.433 . S
C267 N269 1.384 . S
N268 C264 1.427 . S
N268 C265 1.384 . S
N269 C261 1.427 . S
N269 C267 1.384 . S
H270 C276 0.930 1_556 S
H271 C280 0.930 . S
H272 C285 0.929 . S
H273 C283 0.929 . S
H274 C278 0.929 . S
H275 C284 0.929 . S
C276 H270 0.930 1_554 S
C276 C277 1.367 . S
C276 C284 1.378 . S
C277 C276 1.367 . S
C277 C285 1.433 . S
C278 H274 0.929 . S
C278 C280 1.378 . S
C278 C282 1.350 . S
C279 C282 1.463 . S
C279 C284 1.350 . S
C279 N287 1.427 . S
C280 H271 0.930 . S
C280 C278 1.378 . S
C280 C281 1.367 . S
C281 C280 1.367 . S
C281 C283 1.433 . S
C282 C278 1.350 . S
C282 C279 1.463 . S
C282 N286 1.427 . S
C283 H273 0.929 . S
C283 C281 1.433 . S
C283 N286 1.384 . S
C284 H275 0.929 . S
C284 C276 1.378 . S
C284 C279 1.350 . S
C285 H272 0.929 . S
C285 C277 1.433 . S
C285 N287 1.384 . S
N286 C282 1.427 . S
N286 C283 1.384 . S
N287 C279 1.427 . S
N287 C285 1.384 . S
H288 C294 0.930 . S
H289 C298 0.930 . S
H290 C303 0.929 . S
H291 C301 0.929 . S
H292 C296 0.929 . S
H293 C302 0.929 . S
C294 H288 0.930 . S
C294 C295 1.367 . S
C294 C302 1.378 . S
C295 C294 1.367 . S
C295 C303 1.433 . S
C296 H292 0.929 . S
C296 C298 1.378 1_455 S
C296 C300 1.350 . S
C297 C300 1.463 . S
C297 C302 1.350 . S
C297 N305 1.427 . S
C298 H289 0.930 . S
C298 C296 1.378 1_655 S
C298 C299 1.367 . S
C299 C298 1.367 . S
C299 C301 1.433 . S
C300 C296 1.350 . S
C300 C297 1.463 . S
C300 N304 1.427 1_455 S
C301 H291 0.929 . S
C301 C299 1.433 . S
C301 N304 1.384 . S
C302 H293 0.929 . S
C302 C294 1.378 . S
C302 C297 1.350 . S
C303 H290 0.929 . S
C303 C295 1.433 . S
C303 N305 1.384 . S
N304 C300 1.427 1_655 S
N304 C301 1.384 . S
N305 C297 1.427 . S
N305 C303 1.384 . S
H306 C312 0.930 . S
H307 C316 0.930 . S
H308 C321 0.929 . S
H309 C319 0.929 . S
H310 C314 0.929 . S
H311 C320 0.929 . S
C312 H306 0.930 . S
C312 C313 1.367 . S
C312 C320 1.378 . S
C313 C312 1.367 . S
C313 C321 1.433 . S
C314 H310 0.929 . S
C314 C316 1.378 . S
C314 C318 1.350 . S
C315 C318 1.463 . S
C315 C320 1.350 . S
C315 N323 1.427 . S
C316 H307 0.930 . S
C316 C314 1.378 . S
C316 C317 1.367 . S
C317 C316 1.367 . S
C317 C319 1.433 . S
C318 C314 1.350 . S
C318 C315 1.463 . S
C318 N322 1.427 . S
C319 H309 0.929 . S
C319 C317 1.433 . S
C319 N322 1.384 . S
C320 H311 0.929 . S
C320 C312 1.378 . S
C320 C315 1.350 . S
C321 H308 0.929 . S
C321 C313 1.433 . S
C321 N323 1.384 . S
N322 C318 1.427 . S
N322 C319 1.384 . S
N323 C315 1.427 . S
N323 C321 1.384 . S
H324 C330 0.930 . S
H325 C334 0.930 . S
H326 C339 0.929 . S
H327 C337 0.929 . S
H328 C332 0.929 . S
H329 C338 0.929 . S
C330 H324 0.930 . S
C330 C331 1.367 . S
C330 C338 1.378 . S
C331 C330 1.367 . S
C331 C339 1.433 . S
C332 H328 0.929 . S
C332 C334 1.378 . S
C332 C336 1.379 . S
C333 C336 1.437 1_545 S
C333 C338 1.350 . S
C333 N341 1.427 . S
C334 H325 0.930 . S
C334 C332 1.378 . S
C334 C335 1.367 . S
C335 C334 1.367 . S
C335 C337 1.433 . S
C336 C332 1.379 . S
C336 C333 1.437 1_565 S
C336 N340 1.425 . S
C337 H327 0.929 . S
C337 C335 1.433 . S
C337 N340 1.399 . S
C338 H329 0.929 . S
C338 C330 1.378 . S
C338 C333 1.350 . S
C339 H326 0.929 . S
C339 C331 1.433 . S
C339 N341 1.384 . S
N340 C336 1.425 . S
N340 C337 1.399 . S
N341 C333 1.427 . S
N341 C339 1.384 . S
H342 C348 0.930 . S
H343 C352 0.930 . S
H344 C357 0.929 . S
H345 C355 0.929 . S
H346 C350 0.929 . S
H347 C356 0.929 . S
C348 H342 0.930 . S
C348 C349 1.367 1_556 S
C348 C356 1.378 . S
C349 C348 1.367 1_554 S
C349 C357 1.433 . S
C350 H346 0.929 . S
C350 C352 1.378 . S
C350 C354 1.350 . S
C351 C354 1.463 . S
C351 C356 1.350 1_554 S
C351 N359 1.427 . S
C352 H343 0.930 . S
C352 C350 1.378 . S
C352 C353 1.367 . S
C353 C352 1.367 . S
C353 C355 1.433 1_554 S
C354 C350 1.350 . S
C354 C351 1.463 . S
C354 N358 1.427 1_554 S
C355 H345 0.929 . S
C355 C353 1.433 1_556 S
C355 N358 1.384 . S
C356 H347 0.929 . S
C356 C348 1.378 . S
C356 C351 1.350 1_556 S
C357 H344 0.929 . S
C357 C349 1.433 . S
C357 N359 1.384 . S
N358 C354 1.427 1_556 S
N358 C355 1.384 . S
N359 C351 1.427 . S
N359 C357 1.384 . S
H360 C366 0.930 . S
H361 C370 0.930 . S
H362 C375 0.929 . S
H363 C373 0.929 1_556 S
H364 C368 0.929 . S
H365 C374 0.929 . S
C366 H360 0.930 . S
C366 C367 1.367 1_556 S
C366 C374 1.378 . S
C367 C366 1.367 1_554 S
C367 C375 1.433 . S
C368 H364 0.929 . S
C368 C370 1.378 . S
C368 C372 1.350 . S
C369 C372 1.463 1_565 S
C369 C374 1.350 1_554 S
C369 N377 1.427 . S
C370 H361 0.930 . S
C370 C368 1.378 . S
C370 C371 1.367 . S
C371 C370 1.367 . S
C371 C373 1.433 . S
C372 C368 1.350 . S
C372 C369 1.463 1_545 S
C372 N376 1.427 1_554 S
C373 H363 0.929 1_554 S
C373 C371 1.433 . S
C373 N376 1.384 1_554 S
C374 H365 0.929 . S
C374 C366 1.378 . S
C374 C369 1.350 1_556 S
C375 H362 0.929 . S
C375 C367 1.433 . S
C375 N377 1.384 . S
N376 C372 1.427 1_556 S
N376 C373 1.384 1_556 S
N377 C369 1.427 . S
N377 C375 1.384 . S
H378 C384 0.930 1_556 S
H379 C388 0.930 . S
H380 C393 0.929 . S
H381 C391 0.929 . S
H382 C386 0.929 . S
H383 C392 0.929 1_556 S
C384 H378 0.930 1_554 S
C384 C385 1.367 . S
C384 C392 1.378 . S
C385 C384 1.367 . S
C385 C393 1.433 . S
C386 H382 0.929 . S
C386 C388 1.378 . S
C386 C390 1.350 . S
C387 C390 1.463 1_655 S
C387 C392 1.350 . S
C387 N395 1.427 . S
C388 H379 0.930 . S
C388 C386 1.378 . S
C388 C389 1.367 1_554 S
C389 C388 1.367 1_556 S
C389 C391 1.433 . S
C390 C386 1.350 . S
C390 C387 1.463 1_455 S
C390 N394 1.427 1_554 S
C391 H381 0.929 . S
C391 C389 1.433 . S
C391 N394 1.384 . S
C392 H383 0.929 1_554 S
C392 C384 1.378 . S
C392 C387 1.350 . S
C393 H380 0.929 . S
C393 C385 1.433 . S
C393 N395 1.384 . S
N394 C390 1.427 1_556 S
N394 C391 1.384 . S
N395 C387 1.427 . S
N395 C393 1.384 . S
H396 C402 0.930 . S
H397 C406 0.930 . S
H398 C411 0.929 . S
H399 C409 0.929 . S
H400 C404 0.929 . S
H401 C410 0.929 . S
C402 H396 0.930 . S
C402 C403 1.367 . S
C402 C410 1.378 . S
C403 C402 1.367 . S
C403 C411 1.433 . S
C404 H400 0.929 . S
C404 C406 1.378 . S
C404 C408 1.350 . S
C405 C408 1.463 . S
C405 C410 1.350 . S
C405 N413 1.427 . S
C406 H397 0.930 . S
C406 C404 1.378 . S
C406 C407 1.367 . S
C407 C406 1.367 . S
C407 C409 1.433 . S
C408 C404 1.350 . S
C408 C405 1.463 . S
C408 N412 1.427 . S
C409 H399 0.929 . S
C409 C407 1.433 . S
C409 N412 1.384 . S
C410 H401 0.929 . S
C410 C402 1.378 . S
C410 C405 1.350 . S
C411 H398 0.929 . S
C411 C403 1.433 . S
C411 N413 1.384 . S
N412 C408 1.427 . S
N412 C409 1.384 . S
N413 C405 1.427 . S
N413 C411 1.384 . S
H414 C420 0.930 . S
H415 C424 0.930 . S
H416 C429 0.929 . S
H417 C427 0.929 . S
H418 C422 0.929 . S
H419 C428 0.929 . S
C420 H414 0.930 . S
C420 C421 1.367 . S
C420 C428 1.378 . S
C421 C420 1.367 . S
C421 C429 1.433 . S
C422 H418 0.929 . S
C422 C424 1.378 . S
C422 C426 1.350 . S
C423 C426 1.463 . S
C423 C428 1.350 . S
C423 N431 1.427 . S
C424 H415 0.930 . S
C424 C422 1.378 . S
C424 C425 1.367 . S
C425 C424 1.367 . S
C425 C427 1.433 . S
C426 C422 1.350 . S
C426 C423 1.463 . S
C426 N430 1.427 . S
C427 H417 0.929 . S
C427 C425 1.433 . S
C427 N430 1.384 . S
C428 H419 0.929 . S
C428 C420 1.378 . S
C428 C423 1.350 . S
C429 H416 0.929 . S
C429 C421 1.433 . S
C429 N431 1.384 . S
N430 C426 1.427 . S
N430 C427 1.384 . S
N431 C423 1.427 . S
N431 C429 1.384 . S
H432 C438 0.930 . S
H433 C442 0.930 . S
H434 C447 0.929 . S
H435 C445 0.929 . S
H436 C440 0.929 . S
H437 C446 0.929 . S
C438 H432 0.930 . S
C438 C439 1.367 . S
C438 C446 1.378 . S
C439 C438 1.367 . S
C439 C447 1.433 . S
C440 H436 0.929 . S
C440 C442 1.378 . S
C440 C444 1.350 . S
C441 C444 1.463 . S
C441 C446 1.350 . S
C441 N449 1.427 . S
C442 H433 0.930 . S
C442 C440 1.378 . S
C442 C443 1.367 . S
C443 C442 1.367 . S
C443 C445 1.433 . S
C444 C440 1.350 . S
C444 C441 1.463 . S
C444 N448 1.427 . S
C445 H435 0.929 . S
C445 C443 1.433 . S
C445 N448 1.384 . S
C446 H437 0.929 . S
C446 C438 1.378 . S
C446 C441 1.350 . S
C447 H434 0.929 . S
C447 C439 1.433 . S
C447 N449 1.384 . S
N448 C444 1.427 . S
N448 C445 1.384 . S
N449 C441 1.427 . S
N449 C447 1.384 . S
H450 C456 0.930 . S
H451 C460 0.930 . S
H452 C465 0.929 . S
H453 C463 0.929 . S
H454 C458 0.929 . S
H455 C464 0.929 . S
C456 H450 0.930 . S
C456 C457 1.367 . S
C456 C464 1.378 . S
C457 C456 1.367 . S
C457 C465 1.433 . S
C458 H454 0.929 . S
C458 C460 1.378 . S
C458 C462 1.350 . S
C459 C462 1.463 . S
C459 C464 1.350 . S
C459 N467 1.427 . S
C460 H451 0.930 . S
C460 C458 1.378 . S
C460 C461 1.367 . S
C461 C460 1.367 . S
C461 C463 1.433 . S
C462 C458 1.350 . S
C462 C459 1.463 . S
C462 N466 1.427 . S
C463 H453 0.929 . S
C463 C461 1.433 . S
C463 N466 1.384 . S
C464 H455 0.929 . S
C464 C456 1.378 . S
C464 C459 1.350 . S
C465 H452 0.929 . S
C465 C457 1.433 . S
C465 N467 1.384 . S
N466 C462 1.427 . S
N466 C463 1.384 . S
N467 C459 1.427 . S
N467 C465 1.384 . S
H468 C474 0.930 . S
H469 C478 0.930 . S
H470 C483 0.929 . S
H471 C481 0.929 . S
H472 C476 0.929 . S
H473 C482 0.929 . S
C474 H468 0.930 . S
C474 C475 1.367 . S
C474 C482 1.378 . S
C475 C474 1.367 . S
C475 C483 1.433 . S
C476 H472 0.929 . S
C476 C478 1.378 . S
C476 C480 1.350 . S
C477 C480 1.463 . S
C477 C482 1.350 . S
C477 N485 1.427 . S
C478 H469 0.930 . S
C478 C476 1.378 . S
C478 C479 1.367 . S
C479 C478 1.367 . S
C479 C481 1.433 . S
C480 C476 1.350 . S
C480 C477 1.463 . S
C480 N484 1.427 . S
C481 H471 0.929 . S
C481 C479 1.433 . S
C481 N484 1.384 . S
C482 H473 0.929 . S
C482 C474 1.378 . S
C482 C477 1.350 . S
C483 H470 0.929 . S
C483 C475 1.433 . S
C483 N485 1.384 . S
N484 C480 1.427 . S
N484 C481 1.384 . S
N485 C477 1.427 . S
N485 C483 1.384 . S
H486 C492 0.930 . S
H487 C496 0.930 . S
H488 C501 0.929 . S
H489 C499 0.929 . S
H490 C494 0.929 . S
H491 C500 0.929 . S
C492 H486 0.930 . S
C492 C493 1.367 . S
C492 C500 1.378 . S
C493 C492 1.367 . S
C493 C501 1.433 . S
C494 H490 0.929 . S
C494 C496 1.378 . S
C494 C498 1.350 . S
C495 C498 1.463 . S
C495 C500 1.350 . S
C495 N503 1.427 . S
C496 H487 0.930 . S
C496 C494 1.378 . S
C496 C497 1.367 . S
C497 C496 1.367 . S
C497 C499 1.433 . S
C498 C494 1.350 . S
C498 C495 1.463 . S
C498 N502 1.427 . S
C499 H489 0.929 . S
C499 C497 1.433 . S
C499 N502 1.384 . S
C500 H491 0.929 . S
C500 C492 1.378 . S
C500 C495 1.350 . S
C501 H488 0.929 . S
C501 C493 1.433 . S
C501 N503 1.384 . S
N502 C498 1.427 . S
N502 C499 1.384 . S
N503 C495 1.427 . S
N503 C501 1.384 . S
H504 C510 0.930 . S
H505 C514 0.930 . S
H506 C519 0.929 . S
H507 C517 0.929 . S
H508 C512 0.929 . S
H509 C518 0.929 . S
C510 H504 0.930 . S
C510 C511 1.367 . S
C510 C518 1.378 . S
C511 C510 1.367 . S
C511 C519 1.433 1_455 S
C512 H508 0.929 . S
C512 C514 1.378 . S
C512 C516 1.350 1_655 S
C513 C516 1.463 . S
C513 C518 1.350 . S
C513 N521 1.427 1_455 S
C514 H505 0.930 . S
C514 C512 1.378 . S
C514 C515 1.367 1_655 S
C515 C514 1.367 1_455 S
C515 C517 1.433 . S
C516 C512 1.350 1_455 S
C516 C513 1.463 . S
C516 N520 1.427 . S
C517 H507 0.929 . S
C517 C515 1.433 . S
C517 N520 1.384 . S
C518 H509 0.929 . S
C518 C510 1.378 . S
C518 C513 1.350 . S
C519 H506 0.929 . S
C519 C511 1.433 1_655 S
C519 N521 1.384 . S
N520 C516 1.427 . S
N520 C517 1.384 . S
N521 C513 1.427 1_655 S
N521 C519 1.384 . S
H522 C528 0.930 . S
H523 C532 0.930 . S
H524 C537 0.929 . S
H525 C535 0.929 . S
H526 C530 0.929 . S
H527 C536 0.929 . S
C528 H522 0.930 . S
C528 C529 1.367 . S
C528 C536 1.378 . S
C529 C528 1.367 . S
C529 C537 1.433 . S
C530 H526 0.929 . S
C530 C532 1.378 . S
C530 C534 1.350 . S
C531 C534 1.463 . S
C531 C536 1.350 . S
C531 N539 1.427 . S
C532 H523 0.930 . S
C532 C530 1.378 . S
C532 C533 1.367 . S
C533 C532 1.367 . S
C533 C535 1.433 . S
C534 C530 1.350 . S
C534 C531 1.463 . S
C534 N538 1.427 . S
C535 H525 0.929 . S
C535 C533 1.433 . S
C535 N538 1.384 . S
C536 H527 0.929 . S
C536 C528 1.378 . S
C536 C531 1.350 . S
C537 H524 0.929 . S
C537 C529 1.433 . S
C537 N539 1.384 . S
N538 C534 1.427 . S
N538 C535 1.384 . S
N539 C531 1.427 . S
N539 C537 1.384 . S
H540 C546 0.930 . S
H541 C550 0.930 . S
H542 C555 0.929 . S
H543 C553 0.929 . S
H544 C548 0.929 . S
H545 C554 0.929 . S
C546 H540 0.930 . S
C546 C547 1.367 1_565 S
C546 C554 1.378 . S
C547 C546 1.367 1_545 S
C547 C555 1.433 . S
C548 H544 0.929 . S
C548 C550 1.378 . S
C548 C552 1.350 . S
C549 C552 1.463 . S
C549 C554 1.350 1_545 S
C549 N557 1.427 . S
C550 H541 0.930 . S
C550 C548 1.378 . S
C550 C551 1.367 . S
C551 C550 1.367 . S
C551 C553 1.433 1_545 S
C552 C548 1.350 . S
C552 C549 1.463 . S
C552 N556 1.427 1_545 S
C553 H543 0.929 . S
C553 C551 1.433 1_565 S
C553 N556 1.384 . S
C554 H545 0.929 . S
C554 C546 1.378 . S
C554 C549 1.350 1_565 S
C555 H542 0.929 . S
C555 C547 1.433 . S
C555 N557 1.384 . S
N556 C552 1.427 1_565 S
N556 C553 1.384 . S
N557 C549 1.427 . S
N557 C555 1.384 . S
H558 C564 0.930 . S
H559 C568 0.930 1_554 S
H560 C573 0.929 . S
H561 C571 0.929 . S
H562 C566 0.929 . S
H563 C572 0.929 . S
C564 H558 0.930 . S
C564 C565 1.367 . S
C564 C572 1.378 . S
C565 C564 1.367 . S
C565 C573 1.433 . S
C566 H562 0.929 . S
C566 C568 1.378 . S
C566 C570 1.350 . S
C567 C570 1.463 . S
C567 C572 1.350 . S
C567 N575 1.427 . S
C568 H559 0.930 1_556 S
C568 C566 1.378 . S
C568 C569 1.367 1_556 S
C569 C568 1.367 1_554 S
C569 C571 1.433 . S
C570 C566 1.350 . S
C570 C567 1.463 . S
C570 N574 1.427 . S
C571 H561 0.929 . S
C571 C569 1.433 . S
C571 N574 1.384 1_554 S
C572 H563 0.929 . S
C572 C564 1.378 . S
C572 C567 1.350 . S
C573 H560 0.929 . S
C573 C565 1.433 . S
C573 N575 1.384 . S
N574 C570 1.427 . S
N574 C571 1.384 1_556 S
N575 C567 1.427 . S
N575 C573 1.384 . S
H576 C582 0.930 . S
H577 C586 0.930 . S
H578 C591 0.929 . S
H579 C589 0.929 1_554 S
H580 C584 0.929 . S
H581 C590 0.929 . S
C582 H576 0.930 . S
C582 C583 1.367 . S
C582 C590 1.378 . S
C583 C582 1.367 . S
C583 C591 1.433 . S
C584 H580 0.929 . S
C584 C586 1.378 . S
C584 C588 1.350 . S
C585 C588 1.463 . S
C585 C590 1.350 . S
C585 N593 1.427 . S
C586 H577 0.930 . S
C586 C584 1.378 . S
C586 C587 1.367 1_556 S
C587 C586 1.367 1_554 S
C587 C589 1.433 1_554 S
C588 C584 1.350 . S
C588 C585 1.463 . S
C588 N592 1.427 . S
C589 H579 0.929 1_556 S
C589 C587 1.433 1_556 S
C589 N592 1.384 . S
C590 H581 0.929 . S
C590 C582 1.378 . S
C590 C585 1.350 . S
C591 H578 0.929 . S
C591 C583 1.433 . S
C591 N593 1.384 . S
N592 C588 1.427 . S
N592 C589 1.384 . S
N593 C585 1.427 . S
N593 C591 1.384 . S
H594 C600 0.930 . S
H595 C604 0.930 . S
H596 C609 0.929 . S
H597 C607 0.929 1_554 S
H598 C602 0.929 . S
H599 C608 0.929 . S
C600 H594 0.930 . S
C600 C601 1.367 . S
C600 C608 1.378 . S
C601 C600 1.367 . S
C601 C609 1.433 . S
C602 H598 0.929 . S
C602 C604 1.378 1_556 S
C602 C606 1.350 . S
C603 C606 1.463 . S
C603 C608 1.350 . S
C603 N611 1.427 . S
C604 H595 0.930 . S
C604 C602 1.378 1_554 S
C604 C605 1.367 . S
C605 C604 1.367 . S
C605 C607 1.433 1_554 S
C606 C602 1.350 . S
C606 C603 1.463 . S
C606 N610 1.427 . S
C607 H597 0.929 1_556 S
C607 C605 1.433 1_556 S
C607 N610 1.384 . S
C608 H599 0.929 . S
C608 C600 1.378 . S
C608 C603 1.350 . S
C609 H596 0.929 . S
C609 C601 1.433 . S
C609 N611 1.384 . S
N610 C606 1.427 . S
N610 C607 1.384 . S
N611 C603 1.427 . S
N611 C609 1.384 . S
H612 C618 0.930 . S
H613 C622 0.930 . S
H614 C627 0.929 . S
H615 C625 0.929 . S
H616 C620 0.929 . S
H617 C626 0.929 . S
C618 H612 0.930 . S
C618 C619 1.367 . S
C618 C626 1.378 . S
C619 C618 1.367 . S
C619 C627 1.433 . S
C620 H616 0.929 . S
C620 C622 1.378 1_554 S
C620 C624 1.350 . S
C621 C624 1.463 . S
C621 C626 1.350 . S
C621 N629 1.427 . S
C622 H613 0.930 . S
C622 C620 1.378 1_556 S
C622 C623 1.367 . S
C623 C622 1.367 . S
C623 C625 1.433 . S
C624 C620 1.350 . S
C624 C621 1.463 . S
C624 N628 1.427 . S
C625 H615 0.929 . S
C625 C623 1.433 . S
C625 N628 1.384 1_556 S
C626 H617 0.929 . S
C626 C618 1.378 . S
C626 C621 1.350 . S
C627 H614 0.929 . S
C627 C619 1.433 . S
C627 N629 1.384 . S
N628 C624 1.427 . S
N628 C625 1.384 1_554 S
N629 C621 1.427 . S
N629 C627 1.384 . S
H630 C636 0.930 1_556 S
H631 C640 0.930 . S
H632 C645 0.929 . S
H633 C643 0.929 . S
H634 C638 0.929 . S
H635 C644 0.929 . S
C636 H630 0.930 1_554 S
C636 C637 1.367 1_554 S
C636 C644 1.378 . S
C637 C636 1.367 1_556 S
C637 C645 1.433 . S
C638 H634 0.929 . S
C638 C640 1.378 . S
C638 C642 1.350 . S
C639 C642 1.463 . S
C639 C644 1.350 . S
C639 N647 1.427 . S
C640 H631 0.930 . S
C640 C638 1.378 . S
C640 C641 1.367 . S
C641 C640 1.367 . S
C641 C643 1.433 . S
C642 C638 1.350 . S
C642 C639 1.463 . S
C642 N646 1.427 . S
C643 H633 0.929 . S
C643 C641 1.433 . S
C643 N646 1.384 . S
C644 H635 0.929 . S
C644 C636 1.378 . S
C644 C639 1.350 . S
C645 H632 0.929 . S
C645 C637 1.433 . S
C645 N647 1.384 1_556 S
N646 C642 1.427 . S
N646 C643 1.384 . S
N647 C639 1.427 . S
N647 C645 1.384 1_554 S
H648 C654 0.930 . S
H649 C658 0.930 1_556 S
H650 C663 0.929 . S
H651 C661 0.929 . S
H652 C656 0.929 . S
H653 C662 0.929 . S
C654 H648 0.930 . S
C654 C655 1.367 . S
C654 C662 1.378 . S
C655 C654 1.367 . S
C655 C663 1.433 . S
C656 H652 0.929 . S
C656 C658 1.378 . S
C656 C660 1.350 . S
C657 C660 1.463 . S
C657 C662 1.350 . S
C657 N665 1.427 . S
C658 H649 0.930 1_554 S
C658 C656 1.378 . S
C658 C659 1.367 1_554 S
C659 C658 1.367 1_556 S
C659 C661 1.433 . S
C660 C656 1.350 . S
C660 C657 1.463 . S
C660 N664 1.427 . S
C661 H651 0.929 . S
C661 C659 1.433 . S
C661 N664 1.384 1_556 S
C662 H653 0.929 . S
C662 C654 1.378 . S
C662 C657 1.350 . S
C663 H650 0.929 . S
C663 C655 1.433 . S
C663 N665 1.384 . S
N664 C660 1.427 . S
N664 C661 1.384 1_554 S
N665 C657 1.427 . S
N665 C663 1.384 . S
C187 C12 1.517 . S
C191 C152 1.514 . S
C205 C24 1.540 1_556 S
C209 C164 1.532 . S
C223 C52 1.555 . S
C227 C124 1.491 . S
C241 C84 1.437 . S
C245 C44 1.436 . S
C259 C104 1.498 . S
C263 C4 1.489 . S
C277 C32 1.583 . S
C281 C64 1.513 . S
C295 C144 1.496 . S
C299 C112 1.550 . S
C313 C172 1.569 . S
C317 C72 1.560 . S
C331 C92 1.626 . S
C335 C132 1.627 . S
C349 C49 1.414 . S
C353 C2 1.353 . S
C367 C29 1.411 1_554 S
C371 C9 1.390 . S
C385 C22 1.493 . S
C389 C42 1.527 . S
C403 C69 1.450 . S
C407 C102 1.417 . S
C421 C62 1.430 . S
C425 C89 1.468 . S
C439 C82 1.403 . S
C443 C109 1.448 . S
C457 C169 1.522 . S
C461 C122 1.447 . S
C475 C149 1.335 . S
C479 C129 1.335 . S
C493 C162 1.455 . S
C497 C142 1.430 . S
C511 C19 1.182 . S
C515 C18 1.182 . S
C529 C38 1.188 . S
C533 C39 1.188 . S
C547 C59 1.177 . S
C551 C58 1.177 . S
C565 C79 1.189 . S
C569 C78 1.189 . S
C583 C99 1.183 . S
C587 C98 1.183 . S
C601 C119 1.187 . S
C605 C118 1.187 . S
C619 C139 1.178 . S
C623 C138 1.178 . S
C637 C159 1.184 . S
C641 C158 1.184 . S
C655 C179 1.176 . S
C659 C178 1.176 . S
