# Generated by pormake.
# Topology dia, (4)-cn, num edge types: 1
# Building blocks:
#     Node 0, Type 0, BuildingBlock: GALJAG_clean_sbu_0, # of connection points: 4
#     Node 1, Type 0, BuildingBlock: GALJAG_clean_sbu_0, # of connection points: 4
#     Node 2, Type 0, BuildingBlock: GALJAG_clean_sbu_0, # of connection points: 4
#     Node 3, Type 0, BuildingBlock: GALJAG_clean_sbu_0, # of connection points: 4
#     Node 4, Type 0, BuildingBlock: GALJAG_clean_sbu_0, # of connection points: 4
#     Node 5, Type 0, BuildingBlock: GALJAG_clean_sbu_0, # of connection points: 4
#     Node 6, Type 0, BuildingBlock: GALJAG_clean_sbu_0, # of connection points: 4
#     Node 7, Type 0, BuildingBlock: GALJAG_clean_sbu_0, # of connection points: 4
#     Edge 8, Type (0, 0), BuildingBlock: FUNLAD_clean_linker_0, # of connection points: 2
#     Edge 9, Type (0, 0), BuildingBlock: FUNLAD_clean_linker_0, # of connection points: 2
#     Edge 10, Type (0, 0), BuildingBlock: FUNLAD_clean_linker_0, # of connection points: 2
#     Edge 11, Type (0, 0), BuildingBlock: FUNLAD_clean_linker_0, # of connection points: 2
#     Edge 12, Type (0, 0), BuildingBlock: FUNLAD_clean_linker_0, # of connection points: 2
#     Edge 13, Type (0, 0), BuildingBlock: FUNLAD_clean_linker_0, # of connection points: 2
#     Edge 14, Type (0, 0), BuildingBlock: FUNLAD_clean_linker_0, # of connection points: 2
#     Edge 15, Type (0, 0), BuildingBlock: FUNLAD_clean_linker_0, # of connection points: 2
#     Edge 16, Type (0, 0), BuildingBlock: FUNLAD_clean_linker_0, # of connection points: 2
#     Edge 17, Type (0, 0), BuildingBlock: FUNLAD_clean_linker_0, # of connection points: 2
#     Edge 18, Type (0, 0), BuildingBlock: FUNLAD_clean_linker_0, # of connection points: 2
#     Edge 19, Type (0, 0), BuildingBlock: FUNLAD_clean_linker_0, # of connection points: 2
#     Edge 20, Type (0, 0), BuildingBlock: FUNLAD_clean_linker_0, # of connection points: 2
#     Edge 21, Type (0, 0), BuildingBlock: FUNLAD_clean_linker_0, # of connection points: 2
#     Edge 22, Type (0, 0), BuildingBlock: FUNLAD_clean_linker_0, # of connection points: 2
#     Edge 23, Type (0, 0), BuildingBlock: FUNLAD_clean_linker_0, # of connection points: 2
# Relax obj value: 0.058
# Max RMSD: 0.096
# Mean RMSD: 0.096
data_MOF--net-dia--node1-GALJAG_clean_sbu_0--edge1-FUNLAD_clean_linker_0
_symmetry_space_group_name_H-M    P1
_symmetry_Int_Tables_number       1
_symmetry_cell_setting            triclinic
loop_
_symmetry_equiv_pos_as_xyz
'x, y, z'
_cell_length_a     26.979789
_cell_length_b     46.557979
_cell_length_c     46.326018
_cell_angle_alpha  90.218187
_cell_angle_beta   90.184627
_cell_angle_gamma 90.352437
loop_
_atom_site_label
_atom_site_type_symbol
_atom_site_fract_x
_atom_site_fract_y
_atom_site_fract_z
_atom_type_partial_charge
In0 In 0.11249 0.12611 0.62755 0.0
O1 O 0.17746 0.15238 0.6097 0.0
O2 O 0.10585 0.15757 0.5908 0.0
C3 C 0.14973 0.08809 0.66516 0.0
C4 C 0.07189 0.16292 0.66548 0.0
C5 C 0.07882 0.08786 0.5885 0.0
O6 O 0.1775 0.10325 0.64922 0.0
O7 O 0.10386 0.09219 0.66187 0.0
O8 O 0.04955 0.10277 0.6037 0.0
O9 O 0.12433 0.0923 0.59328 0.0
C10 C 0.15101 0.16476 0.59092 0.0
O11 O 0.04533 0.14787 0.64855 0.0
O12 O 0.11795 0.15935 0.66289 0.0
In13 In 0.84909 0.37234 0.87714 0.0
O14 O 0.91354 0.34943 0.85496 0.0
O15 O 0.84028 0.34223 0.83903 0.0
C16 C 0.88853 0.40663 0.91814 0.0
C17 C 0.81498 0.41383 0.84228 0.0
C18 C 0.80645 0.33273 0.91121 0.0
O19 O 0.91537 0.39289 0.90054 0.0
O20 O 0.8425 0.4027 0.91507 0.0
O21 O 0.78107 0.35059 0.89697 0.0
O22 O 0.85277 0.33501 0.9081 0.0
C23 C 0.88586 0.33681 0.83672 0.0
O24 O 0.78596 0.3971 0.85568 0.0
O25 O 0.8605 0.40943 0.84657 0.0
In26 In 0.61411 0.11977 0.12865 0.0
O27 O 0.55022 0.14348 0.15042 0.0
O28 O 0.62402 0.15301 0.16403 0.0
C29 C 0.5706 0.08431 0.09004 0.0
C30 C 0.65717 0.15662 0.09164 0.0
C31 C 0.64969 0.08084 0.16605 0.0
O32 O 0.54567 0.10039 0.10651 0.0
O33 O 0.61696 0.08613 0.09329 0.0
O34 O 0.678 0.09616 0.15064 0.0
O35 O 0.604 0.08516 0.16233 0.0
C36 C 0.57837 0.15791 0.16695 0.0
O37 O 0.68231 0.13929 0.10665 0.0
O38 O 0.61096 0.15522 0.09549 0.0
In39 In 0.87201 0.87055 0.37638 0.0
O40 O 0.80666 0.89211 0.35372 0.0
O41 O 0.88019 0.90401 0.3416 0.0
C42 C 0.83561 0.83282 0.41469 0.0
C43 C 0.9084 0.8326 0.33822 0.0
C44 C 0.90763 0.90932 0.41437 0.0
O45 O 0.80751 0.8477 0.39877 0.0
O46 O 0.88143 0.83707 0.41106 0.0
O47 O 0.93623 0.89405 0.3991 0.0
O48 O 0.86196 0.90492 0.41019 0.0
C49 C 0.83424 0.90736 0.33775 0.0
O50 O 0.93672 0.84813 0.35371 0.0
O51 O 0.86266 0.83627 0.34234 0.0
In52 In 0.11791 0.62278 0.1218 0.0
O53 O 0.18654 0.64332 0.10158 0.0
O54 O 0.1154 0.65918 0.08965 0.0
C55 C 0.15147 0.58151 0.15706 0.0
C56 C 0.08283 0.65928 0.1619 0.0
C57 C 0.07755 0.58822 0.08134 0.0
O58 O 0.18066 0.59818 0.14375 0.0
O59 O 0.10601 0.58582 0.15249 0.0
O60 O 0.05101 0.60255 0.09864 0.0
O61 O 0.12368 0.59169 0.08449 0.0
C62 C 0.16181 0.6609 0.08663 0.0
O63 O 0.05434 0.64634 0.14431 0.0
O64 O 0.12826 0.65375 0.159 0.0
In65 In 0.35144 0.37051 0.3732 0.0
O66 O 0.41785 0.34835 0.35236 0.0
O67 O 0.34574 0.34099 0.33459 0.0
C68 C 0.38981 0.40472 0.41467 0.0
C69 C 0.31733 0.41042 0.33652 0.0
C70 C 0.30627 0.33098 0.40626 0.0
O71 O 0.41724 0.39013 0.39811 0.0
O72 O 0.34395 0.40152 0.41041 0.0
O73 O 0.28353 0.35269 0.39678 0.0
O74 O 0.35114 0.32929 0.39898 0.0
C75 C 0.39159 0.33584 0.33331 0.0
O76 O 0.28877 0.39226 0.34826 0.0
O77 O 0.36241 0.40833 0.34346 0.0
In78 In 0.36675 0.87272 0.872 0.0
O79 O 0.42946 0.84801 0.85009 0.0
O80 O 0.35488 0.83691 0.83949 0.0
C81 C 0.41168 0.9092 0.90905 0.0
C82 C 0.33182 0.9105 0.83322 0.0
C83 C 0.32233 0.83864 0.91101 0.0
O84 O 0.43601 0.89185 0.89359 0.0
O85 O 0.36532 0.90812 0.90553 0.0
O86 O 0.29782 0.85476 0.89438 0.0
O87 O 0.36871 0.83977 0.90774 0.0
C88 C 0.40034 0.8322 0.83551 0.0
O89 O 0.30337 0.89635 0.84961 0.0
O90 O 0.37739 0.90554 0.83656 0.0
In91 In 0.61178 0.62045 0.62261 0.0
O92 O 0.54697 0.6442 0.64356 0.0
O93 O 0.62085 0.6566 0.65475 0.0
C94 C 0.57498 0.58031 0.58661 0.0
C95 C 0.65049 0.65575 0.58279 0.0
C96 C 0.64616 0.5843 0.66288 0.0
O97 O 0.54701 0.59698 0.60074 0.0
O98 O 0.62083 0.58422 0.59064 0.0
O99 O 0.67524 0.59883 0.64711 0.0
O100 O 0.60063 0.58832 0.65824 0.0
C101 C 0.57504 0.66061 0.65826 0.0
O102 O 0.67771 0.64165 0.59993 0.0
O103 O 0.60447 0.65183 0.58591 0.0
C104 C 0.24772 0.3174 0.44563 0.0
C105 C 0.28304 0.30937 0.425 0.0
C106 C 0.22878 0.29704 0.46486 0.0
C107 C 0.24391 0.26826 0.46309 0.0
C108 C 0.27778 0.26008 0.44177 0.0
C109 C 0.29796 0.28058 0.42322 0.0
C110 C 0.22417 0.24635 0.483 0.0
C111 C 0.22386 0.25041 0.51173 0.0
C112 C 0.20562 0.22802 0.53171 0.0
C113 C 0.23078 0.22305 0.55777 0.0
C114 C 0.21389 0.20192 0.57685 0.0
C115 C 0.17069 0.18613 0.57049 0.0
H116 H 0.14202 0.21582 0.50558 0.0
C117 C 0.14513 0.19147 0.54462 0.0
C118 C 0.16265 0.21203 0.52528 0.0
H119 H 0.11162 0.17964 0.53925 0.0
H120 H 0.23588 0.33953 0.44741 0.0
H121 H 0.20208 0.30368 0.48094 0.0
H122 H 0.28958 0.23794 0.43996 0.0
H123 H 0.32508 0.27393 0.40738 0.0
H124 H 0.21318 0.22567 0.47399 0.0
H125 H 0.23996 0.2699 0.52087 0.0
H126 H 0.26382 0.23528 0.5632 0.0
H127 H 0.23398 0.19835 0.59678 0.0
C128 C 0.71392 0.56019 0.69085 0.0
C129 C 0.66329 0.56368 0.68485 0.0
C130 C 0.7294 0.54024 0.71149 0.0
C131 C 0.69435 0.52346 0.72652 0.0
C132 C 0.64388 0.52691 0.72026 0.0
C133 C 0.62846 0.54688 0.69981 0.0
C134 C 0.70868 0.50134 0.74796 0.0
C135 C 0.75138 0.50213 0.76307 0.0
C136 C 0.76601 0.47957 0.78401 0.0
C137 C 0.81653 0.47607 0.79016 0.0
C138 C 0.83225 0.4548 0.80919 0.0
C139 C 0.79768 0.43667 0.82273 0.0
H140 H 0.6918 0.46444 0.7948 0.0
C141 C 0.74698 0.44053 0.81722 0.0
C142 C 0.73121 0.46182 0.7981 0.0
H143 H 0.71949 0.42707 0.82761 0.0
H144 H 0.74157 0.5727 0.67947 0.0
H145 H 0.76875 0.53763 0.71503 0.0
H146 H 0.61614 0.51414 0.7313 0.0
H147 H 0.58914 0.54897 0.69558 0.0
H148 H 0.68246 0.48394 0.75143 0.0
H149 H 0.77759 0.51955 0.75956 0.0
H150 H 0.8441 0.48959 0.77989 0.0
H151 H 0.87161 0.45249 0.81316 0.0
C152 C 0.57794 0.04817 0.05036 0.0
C153 C 0.5478 0.06495 0.06836 0.0
C154 C 0.5569 0.02996 0.0296 0.0
C155 C 0.50507 0.02794 0.02654 0.0
C156 C 0.47503 0.045 0.04437 0.0
C157 C 0.49613 0.06324 0.06515 0.0
C158 C 0.48096 0.00907 0.00457 0.0
C159 C 0.50282 0.98582 0.9928 0.0
C160 C 0.47844 0.96673 0.97108 0.0
C161 C 0.50815 0.94903 0.9537 0.0
C162 C 0.4867 0.93041 0.93336 0.0
C163 C 0.435 0.92903 0.93011 0.0
H164 H 0.40203 0.97742 0.98148 0.0
C165 C 0.40522 0.94652 0.94761 0.0
C166 C 0.42658 0.96504 0.96795 0.0
H167 H 0.36519 0.9457 0.94584 0.0
H168 H 0.61795 0.04926 0.05212 0.0
H169 H 0.58159 0.01804 0.01574 0.0
H170 H 0.43503 0.04409 0.04233 0.0
H171 H 0.47198 0.07602 0.07863 0.0
H172 H 0.44346 0.01461 0.99831 0.0
H173 H 0.54034 0.98031 -0.00093 0.0
H174 H 0.54815 0.94966 0.9558 0.0
H175 H 0.51058 0.91708 0.92025 0.0
C176 C 0.97734 0.80722 0.3124 0.0
C177 C 0.92647 0.81194 0.31641 0.0
C178 C -0.00638 0.78783 0.2913 0.0
C179 C 0.95917 0.77279 0.27387 0.0
C180 C 0.90845 0.7778 0.27785 0.0
C181 C 0.89226 0.79698 0.29895 0.0
C182 C 0.97424 0.75252 0.25068 0.0
C183 C 0.01756 0.7383 0.25066 0.0
C184 C 0.03259 0.71796 0.22746 0.0
C185 C 0.08314 0.71184 0.22431 0.0
C186 C 0.09925 0.69287 0.20297 0.0
C187 C 0.06509 0.67935 0.18434 0.0
H188 H 0.95878 0.70737 0.21122 0.0
C189 C 0.0144 0.68507 0.1876 0.0
C190 C -0.00179 0.7041 0.209 0.0
H191 H 0.98721 0.67472 0.17374 0.0
H192 H 0.00454 0.81863 0.3254 0.0
H193 H 0.0331 0.78526 0.28837 0.0
H194 H 0.88112 0.7667 0.26465 0.0
H195 H 0.85277 0.80022 0.3014 0.0
H196 H 0.94785 0.74899 0.23329 0.0
H197 H 0.04381 0.74187 0.26813 0.0
H198 H 0.11043 0.72195 0.23831 0.0
H199 H 0.13861 0.68881 0.2011 0.0
C200 C 0.26273 0.93633 0.80832 0.0
C201 C 0.31364 0.93127 0.81168 0.0
C202 C 0.24588 0.95604 0.78786 0.0
C203 C 0.27978 0.97125 0.77047 0.0
C204 C 0.33059 0.96579 0.77364 0.0
C205 C 0.34739 0.94613 0.79408 0.0
C206 C 0.26381 0.99232 0.74831 0.0
C207 C 0.22032 0.00633 0.74936 0.0
C208 C 0.20392 0.02725 0.72718 0.0
C209 C 0.153 0.03247 0.7243 0.0
C210 C 0.1356 0.05209 0.70403 0.0
C211 C 0.16882 0.06721 0.68632 0.0
H212 H 0.27697 0.03987 0.71169 0.0
C213 C 0.21987 0.06232 0.68931 0.0
C214 C 0.23735 0.04256 0.70958 0.0
H215 H 0.24633 0.07387 0.6761 0.0
H216 H 0.23585 0.92495 0.82139 0.0
H217 H 0.20631 0.9588 0.78548 0.0
H218 H 0.3575 0.97695 0.76039 0.0
H219 H 0.38689 0.94258 0.79607 0.0
H220 H 0.28942 -0.00343 0.7308 0.0
H221 H 0.19481 0.00212 0.76692 0.0
H222 H 0.12645 0.02118 0.73768 0.0
H223 H 0.09601 0.05547 0.70234 0.0
C224 C 0.95933 0.43367 0.94088 0.0
C225 C 0.90867 0.42665 0.94011 0.0
C226 C 0.97745 0.45378 0.96089 0.0
C227 C 0.9451 0.46728 0.98048 0.0
C228 C 0.89479 0.45952 0.98018 0.0
C229 C 0.87669 0.43958 0.96012 0.0
C230 C 0.96228 0.48908 0.00186 0.0
C231 C 0.00267 0.50575 0.99799 0.0
C232 C 0.02006 0.5275 0.01937 0.0
C233 C 0.07041 0.53516 0.01953 0.0
C234 C 0.08878 0.55508 0.0395 0.0
C235 C 0.05703 0.56814 0.05956 0.0
H236 H 0.94858 0.53648 0.03899 0.0
C237 C 0.00632 0.56119 0.05895 0.0
C238 C -0.01207 0.54105 0.03904 0.0
H239 H 0.98095 0.57109 0.07403 0.0
H240 H 0.9849 0.42385 0.92586 0.0
H241 H 0.0168 0.45838 0.96107 0.0
H242 H 0.86916 0.46929 0.99521 0.0
H243 H 0.83746 0.43447 0.96019 0.0
H244 H 0.93997 0.49176 0.02113 0.0
H245 H 0.02492 0.50309 0.9787 0.0
H246 H 0.09587 0.52533 0.00444 0.0
H247 H 0.12802 0.56012 0.03929 0.0
C248 C 0.46283 0.30951 0.31102 0.0
C249 C 0.41216 0.31618 0.31137 0.0
C250 C 0.48153 0.2903 0.2905 0.0
C251 C 0.4497 0.27729 0.27002 0.0
C252 C 0.3993 0.28451 0.27013 0.0
C253 C 0.38068 0.30361 0.29061 0.0
C254 C 0.46725 0.25649 0.2479 0.0
C255 C 0.50895 0.24096 0.25059 0.0
C256 C 0.5254 0.21972 0.22863 0.0
C257 C 0.57599 0.2132 0.22694 0.0
C258 C 0.5931 0.19321 0.20682 0.0
C259 C 0.55982 0.17901 0.18815 0.0
H260 H 0.45244 0.20891 0.2114 0.0
C261 C 0.50906 0.18513 0.19006 0.0
C262 C 0.49193 0.20525 0.21014 0.0
H263 H 0.48252 0.17432 0.17612 0.0
H264 H 0.48803 0.31909 0.32661 0.0
H265 H 0.52089 0.2861 0.29064 0.0
H266 H 0.374 0.27506 0.2545 0.0
H267 H 0.34145 0.30843 0.29022 0.0
H268 H 0.44395 0.25353 0.22896 0.0
H269 H 0.53264 0.24392 0.26934 0.0
H270 H 0.60251 0.22379 0.24108 0.0
H271 H 0.63246 0.18884 0.20597 0.0
C272 C 0.76595 0.8065 0.43892 0.0
C273 C 0.81692 0.81196 0.43606 0.0
C274 C 0.7488 0.78659 0.45918 0.0
C275 C 0.78245 0.77168 0.47691 0.0
C276 C 0.83327 0.77756 0.47427 0.0
C277 C 0.85037 0.79734 0.45398 0.0
C278 C 0.76616 0.75055 0.49897 0.0
C279 C 0.72323 0.73572 0.49722 0.0
C280 C 0.70634 0.71487 0.5194 0.0
C281 C 0.65549 0.70876 0.52129 0.0
C282 C 0.63759 0.68953 0.54184 0.0
C283 C 0.67024 0.67567 0.56084 0.0
H284 H 0.77888 0.70397 0.53682 0.0
C285 C 0.72129 0.68125 0.5587 0.0
C286 C 0.73926 0.70063 0.53814 0.0
H287 H 0.74734 0.67068 0.57291 0.0
H288 H 0.7393 0.81765 0.42558 0.0
H289 H 0.70921 0.78343 0.46118 0.0
H290 H 0.85996 0.76664 0.4878 0.0
H291 H 0.88991 0.8012 0.45241 0.0
H292 H 0.79109 0.74696 0.51701 0.0
H293 H 0.69848 0.7393 0.47908 0.0
H294 H 0.62934 0.71918 0.507 0.0
H295 H 0.59802 0.68557 0.54284 0.0
C296 C 0.21895 0.55606 0.18383 0.0
C297 C 0.16856 0.5588 0.17681 0.0
C298 C 0.23444 0.53492 0.2032 0.0
C299 C 0.19968 0.51618 0.21593 0.0
C300 C 0.14956 0.51855 0.20826 0.0
C301 C 0.13408 0.53973 0.18908 0.0
C302 C 0.21414 0.49362 0.23683 0.0
C303 C 0.25426 0.49583 0.25408 0.0
C304 C 0.26878 0.47356 0.27533 0.0
C305 C 0.31835 0.47267 0.28446 0.0
C306 C 0.33392 0.45219 0.30437 0.0
C307 C 0.30009 0.43227 0.31585 0.0
H308 H 0.19573 0.45441 0.28151 0.0
C309 C 0.25023 0.43338 0.30721 0.0
C310 C 0.23462 0.45387 0.28718 0.0
H311 H 0.22327 0.41844 0.31591 0.0
H312 H 0.24638 0.5703 0.17448 0.0
H313 H 0.27365 0.53316 0.20778 0.0
H314 H 0.1221 0.50422 0.21749 0.0
H315 H 0.09499 0.54118 0.18391 0.0
H316 H 0.18992 0.475 0.23841 0.0
H317 H 0.27822 0.51457 0.25246 0.0
H318 H 0.34534 0.48771 0.27593 0.0
H319 H 0.3726 0.45196 0.31072 0.0
C320 C 0.8148 0.29132 0.94488 0.0
C321 C 0.78426 0.31096 0.93044 0.0
C322 C 0.7945 0.27101 0.9636 0.0
C323 C 0.74307 0.27006 0.96851 0.0
C324 C 0.71247 0.28932 0.95354 0.0
C325 C 0.73283 0.30965 0.93477 0.0
C326 C 0.71986 0.24904 0.98854 0.0
C327 C 0.74436 0.23646 0.01053 0.0
C328 C 0.72093 0.21595 0.03099 0.0
C329 C 0.75134 0.19708 0.04659 0.0
C330 C 0.73085 0.17772 0.06633 0.0
C331 C 0.67948 0.177 0.07099 0.0
H332 H 0.6448 0.2302 0.02536 0.0
C333 C 0.6491 0.19608 0.05569 0.0
C334 C 0.66952 0.21542 0.03602 0.0
H335 H 0.60938 0.19624 0.05904 0.0
H336 H 0.85457 0.29157 0.9417 0.0
H337 H 0.81934 0.25594 0.97376 0.0
H338 H 0.67269 0.28888 0.95666 0.0
H339 H 0.70835 0.32443 0.92381 0.0
H340 H 0.68084 0.24436 0.98514 0.0
H341 H 0.78339 0.24114 0.01391 0.0
H342 H 0.79111 0.1972 0.04338 0.0
H343 H 0.7552 0.16333 0.07789 0.0
C344 C 0.76373 0.93133 0.3121 0.0
C345 C 0.8149 0.92742 0.31586 0.0
C346 C 0.74602 0.95029 0.29113 0.0
C347 C 0.7793 0.96579 0.27359 0.0
C348 C 0.83036 0.9615 0.27722 0.0
C349 C 0.84799 0.94267 0.29818 0.0
C350 C 0.76269 0.98606 0.25083 0.0
C351 C 0.71834 -0.00082 0.25098 0.0
C352 C 0.70228 0.01988 0.22847 0.0
C353 C 0.65135 0.02448 0.2246 0.0
C354 C 0.63441 0.04408 0.20414 0.0
C355 C 0.6681 0.05975 0.18722 0.0
H356 H 0.7757 0.03359 0.2145 0.0
C357 C 0.71911 0.0554 0.19114 0.0
C358 C 0.73611 0.03573 0.21161 0.0
H359 H 0.74593 0.06739 0.17859 0.0
H360 H 0.73737 0.91965 0.32525 0.0
H361 H 0.70635 0.95223 0.28848 0.0
H362 H 0.85683 0.97293 0.26391 0.0
H363 H 0.88767 0.94001 0.30043 0.0
H364 H 0.78881 0.99062 0.23366 0.0
H365 H 0.69213 0.99458 0.26809 0.0
H366 H 0.62447 0.01279 0.2374 0.0
H367 H 0.59483 0.04704 0.20171 0.0
C368 C 0.97621 0.93568 0.44027 0.0
C369 C 0.92539 0.93056 0.43589 0.0
C370 C -0.00777 0.95568 0.46102 0.0
C371 C 0.95757 0.971 0.47772 0.0
C372 C 0.9069 0.9656 0.47337 0.0
C373 C 0.89096 0.94575 0.45265 0.0
C374 C 0.97227 0.99205 0.50048 0.0
C375 C 0.01626 0.00589 0.50112 0.0
C376 C 0.03063 0.02694 0.52397 0.0
C377 C 0.08122 0.03218 0.52888 0.0
C378 C 0.09666 0.05182 0.54994 0.0
C379 C 0.0618 0.06694 0.56646 0.0
H380 H 0.95623 0.03971 0.53662 0.0
C381 C 0.0111 0.06208 0.5614 0.0
C382 C -0.00441 0.04233 0.54032 0.0
H383 H 0.98341 0.07364 0.57361 0.0
H384 H 0.00358 0.92411 0.42783 0.0
H385 H 0.03168 0.95852 0.46423 0.0
H386 H 0.87938 0.97688 0.486 0.0
H387 H 0.8515 0.94223 0.44989 0.0
H388 H 0.94509 -0.00355 0.51711 0.0
H389 H 0.04356 0.00146 0.48457 0.0
H390 H 0.10902 0.02087 0.51649 0.0
H391 H 0.13605 0.0552 0.5532 0.0
C392 C 0.95532 0.31037 0.81278 0.0
C393 C 0.90471 0.31694 0.81441 0.0
C394 C 0.97259 0.2912 0.79182 0.0
C395 C 0.9394 0.27807 0.77216 0.0
C396 C 0.889 0.28515 0.77354 0.0
C397 C 0.87178 0.30425 0.79449 0.0
C398 C 0.95583 0.25751 0.7495 0.0
C399 C -0.00248 0.2419 0.75162 0.0
C400 C 0.01476 0.22168 0.72892 0.0
C401 C 0.06543 0.21531 0.72777 0.0
C402 C 0.08369 0.19638 0.70705 0.0
C403 C 0.05156 0.18301 0.68713 0.0
H404 H 0.9428 0.21179 0.70981 0.0
C405 C 0.00065 0.18894 0.68841 0.0
C406 C 0.98233 0.20813 0.70911 0.0
H407 H 0.97501 0.17875 0.67346 0.0
H408 H 0.98162 0.32006 0.82767 0.0
H409 H 0.01199 0.28718 0.79092 0.0
H410 H 0.86268 0.27564 0.75853 0.0
H411 H 0.83254 0.30901 0.79508 0.0
H412 H 0.93211 0.25502 0.73067 0.0
H413 H 0.0211 0.24432 0.77051 0.0
H414 H 0.09118 0.22522 0.74287 0.0
H415 H 0.12312 0.19213 0.70676 0.0
C416 C 0.50558 0.68564 0.68381 0.0
C417 C 0.55646 0.68273 0.67837 0.0
C418 C 0.48876 0.70637 0.70339 0.0
C419 C 0.5227 0.72452 0.71793 0.0
C420 C 0.57339 0.72186 0.71196 0.0
C421 C 0.59014 0.70113 0.69256 0.0
C422 C 0.50709 0.74691 0.73892 0.0
C423 C 0.4643 0.74583 0.75378 0.0
C424 C 0.44938 0.76817 0.775 0.0
C425 C 0.39879 0.77174 0.78077 0.0
C426 C 0.383 0.79252 0.80044 0.0
C427 C 0.41757 0.81001 0.81507 0.0
H428 H 0.52356 0.78264 0.78702 0.0
C429 C 0.46831 0.80612 0.80982 0.0
C430 C 0.48414 0.78537 0.79004 0.0
H431 H 0.49579 0.81911 0.821 0.0
H432 H 0.47877 0.67189 0.67299 0.0
H433 H 0.44925 0.70829 0.70664 0.0
H434 H 0.60031 0.73568 0.72261 0.0
H435 H 0.62961 0.69953 0.68871 0.0
H436 H 0.5327 0.76463 0.74257 0.0
H437 H 0.43847 0.72822 0.7501 0.0
H438 H 0.37126 0.75862 0.76976 0.0
H439 H 0.34361 0.79489 0.80414 0.0
C440 C 0.1551 0.69982 0.04994 0.0
C441 C 0.18493 0.68163 0.06665 0.0
C442 C 0.17642 0.71909 0.03051 0.0
C443 C 0.22827 0.72076 0.02751 0.0
C444 C 0.25801 0.70245 0.04418 0.0
C445 C 0.23662 0.68314 0.06362 0.0
C446 C 0.25271 0.74038 0.00656 0.0
C447 C 0.23101 0.76391 0.99537 0.0
C448 C 0.25545 0.78303 0.97399 0.0
C449 C 0.22577 0.80002 0.95593 0.0
C450 C 0.2473 0.81815 0.93541 0.0
C451 C 0.29904 0.81978 0.93272 0.0
H452 H 0.33173 0.77334 0.98574 0.0
C453 C 0.3288 0.80322 0.95111 0.0
C454 C 0.30734 0.78515 0.9716 0.0
H455 H 0.36885 0.8043 0.94978 0.0
H456 H 0.11507 0.69896 0.05161 0.0
H457 H 0.15187 0.73201 0.01751 0.0
H458 H 0.298 0.70309 0.04217 0.0
H459 H 0.26054 0.6693 0.07613 0.0
H460 H 0.2902 0.73495 0.00025 0.0
H461 H 0.19347 0.76937 0.0015 0.0
H462 H 0.18573 0.79905 0.95749 0.0
H463 H 0.22344 0.8308 0.92163 0.0
C464 C 0.46017 0.42953 0.44041 0.0
C465 C 0.40905 0.42513 0.43654 0.0
C466 C 0.47757 0.45007 0.46022 0.0
C467 C 0.444 0.4665 0.47659 0.0
C468 C 0.39301 0.4619 0.47268 0.0
C469 C 0.37571 0.44139 0.45303 0.0
C470 C 0.46016 0.48953 0.49691 0.0
C471 C 0.50512 0.49048 0.50959 0.0
C472 C 0.52137 0.51387 0.52952 0.0
C473 C 0.57237 0.51838 0.53361 0.0
C474 C 0.58959 0.54005 0.55203 0.0
C475 C 0.55614 0.55763 0.567 0.0
H476 H 0.44817 0.52797 0.54314 0.0
C477 C 0.50507 0.553 0.5633 0.0
C478 C 0.48777 0.53126 0.54483 0.0
H479 H 0.47845 0.56602 0.57482 0.0
H480 H 0.48668 0.41748 0.42779 0.0
H481 H 0.51715 0.45347 0.46193 0.0
H482 H 0.36632 0.47432 0.48483 0.0
H483 H 0.33604 0.43858 0.45049 0.0
H484 H 0.43337 0.50618 0.50158 0.0
H485 H 0.53187 0.47381 0.50487 0.0
H486 H 0.5991 0.50521 0.52233 0.0
H487 H 0.62923 0.54298 0.55455 0.0
loop_
_geom_bond_atom_site_label_1
_geom_bond_atom_site_label_2
_geom_bond_distance
_geom_bond_site_symmetry_2
_ccdc_geom_bond_type
In0 O1 2.294 . S
In0 O2 2.326 . S
In0 O6 2.266 . S
In0 O7 2.326 . S
In0 O8 2.266 . S
In0 O9 2.326 . S
In0 O11 2.294 . S
In0 O12 2.326 . S
O1 In0 2.294 . S
O1 C10 1.240 . S
O2 In0 2.326 . S
O2 C10 1.252 . S
C3 O6 1.252 . S
C3 O7 1.260 . S
C4 O11 1.240 . S
C4 O12 1.252 . S
C5 O8 1.252 . S
C5 O9 1.260 . S
O6 In0 2.266 . S
O6 C3 1.252 . S
O7 In0 2.326 . S
O7 C3 1.260 . S
O8 In0 2.266 . S
O8 C5 1.252 . S
O9 In0 2.326 . S
O9 C5 1.260 . S
C10 O1 1.240 . S
C10 O2 1.252 . S
O11 In0 2.294 . S
O11 C4 1.240 . S
O12 In0 2.326 . S
O12 C4 1.252 . S
In13 O14 2.294 . S
In13 O15 2.326 . S
In13 O19 2.266 . S
In13 O20 2.326 . S
In13 O21 2.266 . S
In13 O22 2.326 . S
In13 O24 2.294 . S
In13 O25 2.326 . S
O14 In13 2.294 . S
O14 C23 1.240 . S
O15 In13 2.326 . S
O15 C23 1.252 . S
C16 O19 1.252 . S
C16 O20 1.260 . S
C17 O24 1.240 . S
C17 O25 1.252 . S
C18 O21 1.252 . S
C18 O22 1.260 . S
O19 In13 2.266 . S
O19 C16 1.252 . S
O20 In13 2.326 . S
O20 C16 1.260 . S
O21 In13 2.266 . S
O21 C18 1.252 . S
O22 In13 2.326 . S
O22 C18 1.260 . S
C23 O14 1.240 . S
C23 O15 1.252 . S
O24 In13 2.294 . S
O24 C17 1.240 . S
O25 In13 2.326 . S
O25 C17 1.252 . S
In26 O27 2.294 . S
In26 O28 2.326 . S
In26 O32 2.266 . S
In26 O33 2.326 . S
In26 O34 2.266 . S
In26 O35 2.326 . S
In26 O37 2.294 . S
In26 O38 2.326 . S
O27 In26 2.294 . S
O27 C36 1.240 . S
O28 In26 2.326 . S
O28 C36 1.252 . S
C29 O32 1.252 . S
C29 O33 1.260 . S
C30 O37 1.240 . S
C30 O38 1.252 . S
C31 O34 1.252 . S
C31 O35 1.260 . S
O32 In26 2.266 . S
O32 C29 1.252 . S
O33 In26 2.326 . S
O33 C29 1.260 . S
O34 In26 2.266 . S
O34 C31 1.252 . S
O35 In26 2.326 . S
O35 C31 1.260 . S
C36 O27 1.240 . S
C36 O28 1.252 . S
O37 In26 2.294 . S
O37 C30 1.240 . S
O38 In26 2.326 . S
O38 C30 1.252 . S
In39 O40 2.294 . S
In39 O41 2.326 . S
In39 O45 2.266 . S
In39 O46 2.326 . S
In39 O47 2.266 . S
In39 O48 2.326 . S
In39 O50 2.294 . S
In39 O51 2.326 . S
O40 In39 2.294 . S
O40 C49 1.240 . S
O41 In39 2.326 . S
O41 C49 1.252 . S
C42 O45 1.252 . S
C42 O46 1.260 . S
C43 O50 1.240 . S
C43 O51 1.252 . S
C44 O47 1.252 . S
C44 O48 1.260 . S
O45 In39 2.266 . S
O45 C42 1.252 . S
O46 In39 2.326 . S
O46 C42 1.260 . S
O47 In39 2.266 . S
O47 C44 1.252 . S
O48 In39 2.326 . S
O48 C44 1.260 . S
C49 O40 1.240 . S
C49 O41 1.252 . S
O50 In39 2.294 . S
O50 C43 1.240 . S
O51 In39 2.326 . S
O51 C43 1.252 . S
In52 O53 2.294 . S
In52 O54 2.326 . S
In52 O58 2.266 . S
In52 O59 2.326 . S
In52 O60 2.266 . S
In52 O61 2.326 . S
In52 O63 2.294 . S
In52 O64 2.326 . S
O53 In52 2.294 . S
O53 C62 1.240 . S
O54 In52 2.326 . S
O54 C62 1.252 . S
C55 O58 1.252 . S
C55 O59 1.260 . S
C56 O63 1.240 . S
C56 O64 1.252 . S
C57 O60 1.252 . S
C57 O61 1.260 . S
O58 In52 2.266 . S
O58 C55 1.252 . S
O59 In52 2.326 . S
O59 C55 1.260 . S
O60 In52 2.266 . S
O60 C57 1.252 . S
O61 In52 2.326 . S
O61 C57 1.260 . S
C62 O53 1.240 . S
C62 O54 1.252 . S
O63 In52 2.294 . S
O63 C56 1.240 . S
O64 In52 2.326 . S
O64 C56 1.252 . S
In65 O66 2.294 . S
In65 O67 2.326 . S
In65 O71 2.266 . S
In65 O72 2.326 . S
In65 O73 2.266 . S
In65 O74 2.326 . S
In65 O76 2.294 . S
In65 O77 2.326 . S
O66 In65 2.294 . S
O66 C75 1.240 . S
O67 In65 2.326 . S
O67 C75 1.252 . S
C68 O71 1.252 . S
C68 O72 1.260 . S
C69 O76 1.240 . S
C69 O77 1.252 . S
C70 O73 1.252 . S
C70 O74 1.260 . S
O71 In65 2.266 . S
O71 C68 1.252 . S
O72 In65 2.326 . S
O72 C68 1.260 . S
O73 In65 2.266 . S
O73 C70 1.252 . S
O74 In65 2.326 . S
O74 C70 1.260 . S
C75 O66 1.240 . S
C75 O67 1.252 . S
O76 In65 2.294 . S
O76 C69 1.240 . S
O77 In65 2.326 . S
O77 C69 1.252 . S
In78 O79 2.294 . S
In78 O80 2.326 . S
In78 O84 2.266 . S
In78 O85 2.326 . S
In78 O86 2.266 . S
In78 O87 2.326 . S
In78 O89 2.294 . S
In78 O90 2.326 . S
O79 In78 2.294 . S
O79 C88 1.240 . S
O80 In78 2.326 . S
O80 C88 1.252 . S
C81 O84 1.252 . S
C81 O85 1.260 . S
C82 O89 1.240 . S
C82 O90 1.252 . S
C83 O86 1.252 . S
C83 O87 1.260 . S
O84 In78 2.266 . S
O84 C81 1.252 . S
O85 In78 2.326 . S
O85 C81 1.260 . S
O86 In78 2.266 . S
O86 C83 1.252 . S
O87 In78 2.326 . S
O87 C83 1.260 . S
C88 O79 1.240 . S
C88 O80 1.252 . S
O89 In78 2.294 . S
O89 C82 1.240 . S
O90 In78 2.326 . S
O90 C82 1.252 . S
In91 O92 2.294 . S
In91 O93 2.326 . S
In91 O97 2.266 . S
In91 O98 2.326 . S
In91 O99 2.266 . S
In91 O100 2.326 . S
In91 O102 2.294 . S
In91 O103 2.326 . S
O92 In91 2.294 . S
O92 C101 1.240 . S
O93 In91 2.326 . S
O93 C101 1.252 . S
C94 O97 1.252 . S
C94 O98 1.260 . S
C95 O102 1.240 . S
C95 O103 1.252 . S
C96 O99 1.252 . S
C96 O100 1.260 . S
O97 In91 2.266 . S
O97 C94 1.252 . S
O98 In91 2.326 . S
O98 C94 1.260 . S
O99 In91 2.266 . S
O99 C96 1.252 . S
O100 In91 2.326 . S
O100 C96 1.260 . S
C101 O92 1.240 . S
C101 O93 1.252 . S
O102 In91 2.294 . S
O102 C95 1.240 . S
O103 In91 2.326 . S
O103 C95 1.252 . S
C104 C105 1.386 . S
C104 C106 1.383 . S
C104 H120 0.951 . S
C105 C104 1.386 . S
C105 C109 1.383 . S
C106 C104 1.383 . S
C106 C107 1.402 . S
C106 H121 0.951 . S
C107 C106 1.402 . S
C107 C108 1.375 . S
C107 C110 1.481 . S
C108 C107 1.375 . S
C108 C109 1.367 . S
C108 H122 0.951 . S
C109 C105 1.383 . S
C109 C108 1.367 . S
C109 H123 0.950 . S
C110 C107 1.481 . S
C110 C111 1.297 . S
C110 H124 0.950 . S
C111 C110 1.297 . S
C111 C112 1.479 . S
C111 H125 0.950 . S
C112 C111 1.479 . S
C112 C113 1.375 . S
C112 C118 1.404 . S
C113 C112 1.375 . S
C113 C114 1.369 . S
C113 H126 0.950 . S
C114 C113 1.369 . S
C114 C115 1.392 . S
C114 H127 0.951 . S
C115 C114 1.392 . S
C115 C117 1.384 . S
H116 C118 0.949 . S
C117 C115 1.384 . S
C117 C118 1.385 . S
C117 H119 0.950 . S
C118 C112 1.404 . S
C118 H116 0.949 . S
C118 C117 1.385 . S
H119 C117 0.950 . S
H120 C104 0.951 . S
H121 C106 0.951 . S
H122 C108 0.951 . S
H123 C109 0.950 . S
H124 C110 0.950 . S
H125 C111 0.950 . S
H126 C113 0.950 . S
H127 C114 0.951 . S
C128 C129 1.386 . S
C128 C130 1.383 . S
C128 H144 0.951 . S
C129 C128 1.386 . S
C129 C133 1.383 . S
C130 C128 1.383 . S
C130 C131 1.402 . S
C130 H145 0.951 . S
C131 C130 1.402 . S
C131 C132 1.375 . S
C131 C134 1.481 . S
C132 C131 1.375 . S
C132 C133 1.367 . S
C132 H146 0.951 . S
C133 C129 1.383 . S
C133 C132 1.367 . S
C133 H147 0.950 . S
C134 C131 1.481 . S
C134 C135 1.297 . S
C134 H148 0.950 . S
C135 C134 1.297 . S
C135 C136 1.479 . S
C135 H149 0.950 . S
C136 C135 1.479 . S
C136 C137 1.375 . S
C136 C142 1.404 . S
C137 C136 1.375 . S
C137 C138 1.369 . S
C137 H150 0.950 . S
C138 C137 1.369 . S
C138 C139 1.392 . S
C138 H151 0.951 . S
C139 C138 1.392 . S
C139 C141 1.384 . S
H140 C142 0.949 . S
C141 C139 1.384 . S
C141 C142 1.385 . S
C141 H143 0.950 . S
C142 C136 1.404 . S
C142 H140 0.949 . S
C142 C141 1.385 . S
H143 C141 0.950 . S
H144 C128 0.951 . S
H145 C130 0.951 . S
H146 C132 0.951 . S
H147 C133 0.950 . S
H148 C134 0.950 . S
H149 C135 0.950 . S
H150 C137 0.950 . S
H151 C138 0.951 . S
C152 C153 1.386 . S
C152 C154 1.383 . S
C152 H168 0.951 . S
C153 C152 1.386 . S
C153 C157 1.383 . S
C154 C152 1.383 . S
C154 C155 1.402 . S
C154 H169 0.951 . S
C155 C154 1.402 . S
C155 C156 1.375 . S
C155 C158 1.481 1_545 S
C156 C155 1.375 . S
C156 C157 1.367 . S
C156 H170 0.951 . S
C157 C153 1.383 . S
C157 C156 1.367 . S
C157 H171 0.950 . S
C158 C155 1.481 1_565 S
C158 C159 1.297 1_554 S
C158 H172 0.950 . S
C159 C158 1.297 1_556 S
C159 C160 1.479 . S
C159 H173 0.950 . S
C160 C159 1.479 . S
C160 C161 1.375 . S
C160 C166 1.404 . S
C161 C160 1.375 . S
C161 C162 1.369 . S
C161 H174 0.950 . S
C162 C161 1.369 . S
C162 C163 1.392 . S
C162 H175 0.951 . S
C163 C162 1.392 . S
C163 C165 1.384 . S
H164 C166 0.949 1_554 S
C165 C163 1.384 . S
C165 C166 1.385 . S
C165 H167 0.950 . S
C166 C160 1.404 . S
C166 H164 0.949 1_556 S
C166 C165 1.385 . S
H167 C165 0.950 . S
H168 C152 0.951 . S
H169 C154 0.951 . S
H170 C156 0.951 . S
H171 C157 0.950 . S
H172 C158 0.950 . S
H173 C159 0.950 . S
H174 C161 0.950 . S
H175 C162 0.951 . S
C176 C177 1.386 . S
C176 C178 1.383 . S
C176 H192 0.951 . S
C177 C176 1.386 . S
C177 C181 1.383 . S
C178 C176 1.383 . S
C178 C179 1.402 . S
C178 H193 0.951 1_655 S
C179 C178 1.402 . S
C179 C180 1.375 . S
C179 C182 1.481 . S
C180 C179 1.375 . S
C180 C181 1.367 . S
C180 H194 0.951 . S
C181 C177 1.383 . S
C181 C180 1.367 . S
C181 H195 0.950 . S
C182 C179 1.481 . S
C182 C183 1.297 1_655 S
C182 H196 0.950 . S
C183 C182 1.297 1_455 S
C183 C184 1.479 . S
C183 H197 0.950 . S
C184 C183 1.479 . S
C184 C185 1.375 . S
C184 C190 1.404 . S
C185 C184 1.375 . S
C185 C186 1.369 . S
C185 H198 0.950 . S
C186 C185 1.369 . S
C186 C187 1.392 . S
C186 H199 0.951 . S
C187 C186 1.392 . S
C187 C189 1.384 . S
H188 C190 0.949 . S
C189 C187 1.384 . S
C189 C190 1.385 . S
C189 H191 0.950 . S
C190 C184 1.404 . S
C190 H188 0.949 . S
C190 C189 1.385 . S
H191 C189 0.950 . S
H192 C176 0.951 . S
H193 C178 0.951 1_455 S
H194 C180 0.951 . S
H195 C181 0.950 . S
H196 C182 0.950 . S
H197 C183 0.950 . S
H198 C185 0.950 . S
H199 C186 0.951 . S
C200 C201 1.386 . S
C200 C202 1.383 . S
C200 H216 0.951 . S
C201 C200 1.386 . S
C201 C205 1.383 . S
C202 C200 1.383 . S
C202 C203 1.402 . S
C202 H217 0.951 . S
C203 C202 1.402 . S
C203 C204 1.375 . S
C203 C206 1.481 . S
C204 C203 1.375 . S
C204 C205 1.367 . S
C204 H218 0.951 . S
C205 C201 1.383 . S
C205 C204 1.367 . S
C205 H219 0.950 . S
C206 C203 1.481 . S
C206 C207 1.297 1_565 S
C206 H220 0.950 1_565 S
C207 C206 1.297 1_545 S
C207 C208 1.479 . S
C207 H221 0.950 . S
C208 C207 1.479 . S
C208 C209 1.375 . S
C208 C214 1.404 . S
C209 C208 1.375 . S
C209 C210 1.369 . S
C209 H222 0.950 . S
C210 C209 1.369 . S
C210 C211 1.392 . S
C210 H223 0.951 . S
C211 C210 1.392 . S
C211 C213 1.384 . S
H212 C214 0.949 . S
C213 C211 1.384 . S
C213 C214 1.385 . S
C213 H215 0.950 . S
C214 C208 1.404 . S
C214 H212 0.949 . S
C214 C213 1.385 . S
H215 C213 0.950 . S
H216 C200 0.951 . S
H217 C202 0.951 . S
H218 C204 0.951 . S
H219 C205 0.950 . S
H220 C206 0.950 1_545 S
H221 C207 0.950 . S
H222 C209 0.950 . S
H223 C210 0.951 . S
C224 C225 1.386 . S
C224 C226 1.383 . S
C224 H240 0.951 1_655 S
C225 C224 1.386 . S
C225 C229 1.383 . S
C226 C224 1.383 . S
C226 C227 1.402 . S
C226 H241 0.951 1_655 S
C227 C226 1.402 . S
C227 C228 1.375 . S
C227 C230 1.481 . S
C228 C227 1.375 . S
C228 C229 1.367 . S
C228 H242 0.951 . S
C229 C225 1.383 . S
C229 C228 1.367 . S
C229 H243 0.950 . S
C230 C227 1.481 . S
C230 C231 1.295 1_656 S
C230 H244 0.950 1_556 S
C231 C230 1.295 1_454 S
C231 C232 1.488 . S
C231 H245 0.942 1_554 S
C232 C231 1.488 . S
C232 C233 1.375 . S
C232 C238 1.404 1_455 S
C233 C232 1.375 . S
C233 C234 1.369 . S
C233 H246 0.950 . S
C234 C233 1.369 . S
C234 C235 1.392 . S
C234 H247 0.951 . S
C235 C234 1.392 . S
C235 C237 1.384 . S
H236 C238 0.949 . S
C237 C235 1.384 . S
C237 C238 1.385 1_455 S
C237 H239 0.950 1_455 S
C238 C232 1.404 1_655 S
C238 H236 0.949 . S
C238 C237 1.385 1_655 S
H239 C237 0.950 1_655 S
H240 C224 0.951 1_455 S
H241 C226 0.951 1_455 S
H242 C228 0.951 . S
H243 C229 0.950 . S
H244 C230 0.950 1_554 S
H245 C231 0.942 1_556 S
H246 C233 0.950 . S
H247 C234 0.951 . S
C248 C249 1.386 . S
C248 C250 1.383 . S
C248 H264 0.951 . S
C249 C248 1.386 . S
C249 C253 1.383 . S
C250 C248 1.383 . S
C250 C251 1.402 . S
C250 H265 0.951 . S
C251 C250 1.402 . S
C251 C252 1.375 . S
C251 C254 1.481 . S
C252 C251 1.375 . S
C252 C253 1.367 . S
C252 H266 0.951 . S
C253 C249 1.383 . S
C253 C252 1.367 . S
C253 H267 0.950 . S
C254 C251 1.481 . S
C254 C255 1.297 . S
C254 H268 0.950 . S
C255 C254 1.297 . S
C255 C256 1.479 . S
C255 H269 0.950 . S
C256 C255 1.479 . S
C256 C257 1.375 . S
C256 C262 1.404 . S
C257 C256 1.375 . S
C257 C258 1.369 . S
C257 H270 0.950 . S
C258 C257 1.369 . S
C258 C259 1.392 . S
C258 H271 0.951 . S
C259 C258 1.392 . S
C259 C261 1.384 . S
H260 C262 0.949 . S
C261 C259 1.384 . S
C261 C262 1.385 . S
C261 H263 0.950 . S
C262 C256 1.404 . S
C262 H260 0.949 . S
C262 C261 1.385 . S
H263 C261 0.950 . S
H264 C248 0.951 . S
H265 C250 0.951 . S
H266 C252 0.951 . S
H267 C253 0.950 . S
H268 C254 0.950 . S
H269 C255 0.950 . S
H270 C257 0.950 . S
H271 C258 0.951 . S
C272 C273 1.386 . S
C272 C274 1.383 . S
C272 H288 0.951 . S
C273 C272 1.386 . S
C273 C277 1.383 . S
C274 C272 1.383 . S
C274 C275 1.402 . S
C274 H289 0.951 . S
C275 C274 1.402 . S
C275 C276 1.375 . S
C275 C278 1.481 . S
C276 C275 1.375 . S
C276 C277 1.367 . S
C276 H290 0.951 . S
C277 C273 1.383 . S
C277 C276 1.367 . S
C277 H291 0.950 . S
C278 C275 1.481 . S
C278 C279 1.297 . S
C278 H292 0.950 . S
C279 C278 1.297 . S
C279 C280 1.479 . S
C279 H293 0.950 . S
C280 C279 1.479 . S
C280 C281 1.375 . S
C280 C286 1.404 . S
C281 C280 1.375 . S
C281 C282 1.369 . S
C281 H294 0.950 . S
C282 C281 1.369 . S
C282 C283 1.392 . S
C282 H295 0.951 . S
C283 C282 1.392 . S
C283 C285 1.384 . S
H284 C286 0.949 . S
C285 C283 1.384 . S
C285 C286 1.385 . S
C285 H287 0.950 . S
C286 C280 1.404 . S
C286 H284 0.949 . S
C286 C285 1.385 . S
H287 C285 0.950 . S
H288 C272 0.951 . S
H289 C274 0.951 . S
H290 C276 0.951 . S
H291 C277 0.950 . S
H292 C278 0.950 . S
H293 C279 0.950 . S
H294 C281 0.950 . S
H295 C282 0.951 . S
C296 C297 1.386 . S
C296 C298 1.383 . S
C296 H312 0.951 . S
C297 C296 1.386 . S
C297 C301 1.383 . S
C298 C296 1.383 . S
C298 C299 1.402 . S
C298 H313 0.951 . S
C299 C298 1.402 . S
C299 C300 1.375 . S
C299 C302 1.481 . S
C300 C299 1.375 . S
C300 C301 1.367 . S
C300 H314 0.951 . S
C301 C297 1.383 . S
C301 C300 1.367 . S
C301 H315 0.950 . S
C302 C299 1.481 . S
C302 C303 1.297 . S
C302 H316 0.950 . S
C303 C302 1.297 . S
C303 C304 1.479 . S
C303 H317 0.950 . S
C304 C303 1.479 . S
C304 C305 1.375 . S
C304 C310 1.404 . S
C305 C304 1.375 . S
C305 C306 1.369 . S
C305 H318 0.950 . S
C306 C305 1.369 . S
C306 C307 1.392 . S
C306 H319 0.951 . S
C307 C306 1.392 . S
C307 C309 1.384 . S
H308 C310 0.949 . S
C309 C307 1.384 . S
C309 C310 1.385 . S
C309 H311 0.950 . S
C310 C304 1.404 . S
C310 H308 0.949 . S
C310 C309 1.385 . S
H311 C309 0.950 . S
H312 C296 0.951 . S
H313 C298 0.951 . S
H314 C300 0.951 . S
H315 C301 0.950 . S
H316 C302 0.950 . S
H317 C303 0.950 . S
H318 C305 0.950 . S
H319 C306 0.951 . S
C320 C321 1.386 . S
C320 C322 1.383 . S
C320 H336 0.951 . S
C321 C320 1.386 . S
C321 C325 1.383 . S
C322 C320 1.383 . S
C322 C323 1.402 . S
C322 H337 0.951 . S
C323 C322 1.402 . S
C323 C324 1.375 . S
C323 C326 1.481 1_556 S
C324 C323 1.375 . S
C324 C325 1.367 . S
C324 H338 0.951 . S
C325 C321 1.383 . S
C325 C324 1.367 . S
C325 H339 0.950 . S
C326 C323 1.481 1_554 S
C326 C327 1.297 . S
C326 H340 0.950 1_554 S
C327 C326 1.297 . S
C327 C328 1.479 . S
C327 H341 0.950 . S
C328 C327 1.479 . S
C328 C329 1.375 . S
C328 C334 1.404 . S
C329 C328 1.375 . S
C329 C330 1.369 . S
C329 H342 0.950 . S
C330 C329 1.369 . S
C330 C331 1.392 . S
C330 H343 0.951 . S
C331 C330 1.392 . S
C331 C333 1.384 . S
H332 C334 0.949 . S
C333 C331 1.384 . S
C333 C334 1.385 . S
C333 H335 0.950 . S
C334 C328 1.404 . S
C334 H332 0.949 . S
C334 C333 1.385 . S
H335 C333 0.950 . S
H336 C320 0.951 . S
H337 C322 0.951 . S
H338 C324 0.951 . S
H339 C325 0.950 . S
H340 C326 0.950 1_556 S
H341 C327 0.950 . S
H342 C329 0.950 . S
H343 C330 0.951 . S
C344 C345 1.386 . S
C344 C346 1.383 . S
C344 H360 0.951 . S
C345 C344 1.386 . S
C345 C349 1.383 . S
C346 C344 1.383 . S
C346 C347 1.402 . S
C346 H361 0.951 . S
C347 C346 1.402 . S
C347 C348 1.375 . S
C347 C350 1.481 . S
C348 C347 1.375 . S
C348 C349 1.367 . S
C348 H362 0.951 . S
C349 C345 1.383 . S
C349 C348 1.367 . S
C349 H363 0.950 . S
C350 C347 1.481 . S
C350 C351 1.297 1_565 S
C350 H364 0.950 1_565 S
C351 C350 1.297 1_545 S
C351 C352 1.479 . S
C351 H365 0.950 1_545 S
C352 C351 1.479 . S
C352 C353 1.375 . S
C352 C358 1.404 . S
C353 C352 1.375 . S
C353 C354 1.369 . S
C353 H366 0.950 . S
C354 C353 1.369 . S
C354 C355 1.392 . S
C354 H367 0.951 . S
C355 C354 1.392 . S
C355 C357 1.384 . S
H356 C358 0.949 . S
C357 C355 1.384 . S
C357 C358 1.385 . S
C357 H359 0.950 . S
C358 C352 1.404 . S
C358 H356 0.949 . S
C358 C357 1.385 . S
H359 C357 0.950 . S
H360 C344 0.951 . S
H361 C346 0.951 . S
H362 C348 0.951 . S
H363 C349 0.950 . S
H364 C350 0.950 1_545 S
H365 C351 0.950 1_565 S
H366 C353 0.950 . S
H367 C354 0.951 . S
C368 C369 1.386 . S
C368 C370 1.383 . S
C368 H384 0.951 1_655 S
C369 C368 1.386 . S
C369 C373 1.383 . S
C370 C368 1.383 . S
C370 C371 1.402 . S
C370 H385 0.951 1_655 S
C371 C370 1.402 . S
C371 C372 1.375 . S
C371 C374 1.481 . S
C372 C371 1.375 . S
C372 C373 1.367 . S
C372 H386 0.951 . S
C373 C369 1.383 . S
C373 C372 1.367 . S
C373 H387 0.950 . S
C374 C371 1.481 . S
C374 C375 1.297 1_665 S
C374 H388 0.950 . S
C375 C374 1.297 1_445 S
C375 C376 1.479 . S
C375 H389 0.950 . S
C376 C375 1.479 . S
C376 C377 1.375 . S
C376 C382 1.404 1_455 S
C377 C376 1.375 . S
C377 C378 1.369 . S
C377 H390 0.950 . S
C378 C377 1.369 . S
C378 C379 1.392 . S
C378 H391 0.951 . S
C379 C378 1.392 . S
C379 C381 1.384 . S
H380 C382 0.949 . S
C381 C379 1.384 . S
C381 C382 1.385 1_455 S
C381 H383 0.950 1_455 S
C382 C376 1.404 1_655 S
C382 H380 0.949 . S
C382 C381 1.385 1_655 S
H383 C381 0.950 1_655 S
H384 C368 0.951 1_455 S
H385 C370 0.951 1_455 S
H386 C372 0.951 . S
H387 C373 0.950 . S
H388 C374 0.950 . S
H389 C375 0.950 . S
H390 C377 0.950 . S
H391 C378 0.951 . S
C392 C393 1.386 . S
C392 C394 1.383 . S
C392 H408 0.951 . S
C393 C392 1.386 . S
C393 C397 1.383 . S
C394 C392 1.383 . S
C394 C395 1.402 . S
C394 H409 0.951 . S
C395 C394 1.402 . S
C395 C396 1.375 . S
C395 C398 1.481 . S
C396 C395 1.375 . S
C396 C397 1.367 . S
C396 H410 0.951 . S
C397 C393 1.383 . S
C397 C396 1.367 . S
C397 H411 0.950 . S
C398 C395 1.481 . S
C398 C399 1.297 . S
C398 H412 0.950 . S
C399 C398 1.297 . S
C399 C400 1.479 1_655 S
C399 H413 0.948 1_655 S
C400 C399 1.479 1_455 S
C400 C401 1.375 . S
C400 C406 1.404 1_455 S
C401 C400 1.375 . S
C401 C402 1.369 . S
C401 H414 0.950 . S
C402 C401 1.369 . S
C402 C403 1.392 . S
C402 H415 0.951 . S
C403 C402 1.392 . S
C403 C405 1.384 . S
H404 C406 0.949 . S
C405 C403 1.384 . S
C405 C406 1.385 1_455 S
C405 H407 0.950 . S
C406 C400 1.404 1_655 S
C406 H404 0.949 . S
C406 C405 1.385 1_655 S
H407 C405 0.950 . S
H408 C392 0.951 . S
H409 C394 0.951 . S
H410 C396 0.951 . S
H411 C397 0.950 . S
H412 C398 0.950 . S
H413 C399 0.948 1_455 S
H414 C401 0.950 . S
H415 C402 0.951 . S
C416 C417 1.386 . S
C416 C418 1.383 . S
C416 H432 0.951 . S
C417 C416 1.386 . S
C417 C421 1.383 . S
C418 C416 1.383 . S
C418 C419 1.402 . S
C418 H433 0.951 . S
C419 C418 1.402 . S
C419 C420 1.375 . S
C419 C422 1.481 . S
C420 C419 1.375 . S
C420 C421 1.367 . S
C420 H434 0.951 . S
C421 C417 1.383 . S
C421 C420 1.367 . S
C421 H435 0.950 . S
C422 C419 1.481 . S
C422 C423 1.297 . S
C422 H436 0.950 . S
C423 C422 1.297 . S
C423 C424 1.479 . S
C423 H437 0.950 . S
C424 C423 1.479 . S
C424 C425 1.375 . S
C424 C430 1.404 . S
C425 C424 1.375 . S
C425 C426 1.369 . S
C425 H438 0.950 . S
C426 C425 1.369 . S
C426 C427 1.392 . S
C426 H439 0.951 . S
C427 C426 1.392 . S
C427 C429 1.384 . S
H428 C430 0.949 . S
C429 C427 1.384 . S
C429 C430 1.385 . S
C429 H431 0.950 . S
C430 C424 1.404 . S
C430 H428 0.949 . S
C430 C429 1.385 . S
H431 C429 0.950 . S
H432 C416 0.951 . S
H433 C418 0.951 . S
H434 C420 0.951 . S
H435 C421 0.950 . S
H436 C422 0.950 . S
H437 C423 0.950 . S
H438 C425 0.950 . S
H439 C426 0.951 . S
C440 C441 1.386 . S
C440 C442 1.383 . S
C440 H456 0.951 . S
C441 C440 1.386 . S
C441 C445 1.383 . S
C442 C440 1.383 . S
C442 C443 1.402 . S
C442 H457 0.951 . S
C443 C442 1.402 . S
C443 C444 1.375 . S
C443 C446 1.481 . S
C444 C443 1.375 . S
C444 C445 1.367 . S
C444 H458 0.951 . S
C445 C441 1.383 . S
C445 C444 1.367 . S
C445 H459 0.950 . S
C446 C443 1.481 . S
C446 C447 1.297 1_554 S
C446 H460 0.950 . S
C447 C446 1.297 1_556 S
C447 C448 1.479 . S
C447 H461 0.950 . S
C448 C447 1.479 . S
C448 C449 1.375 . S
C448 C454 1.404 . S
C449 C448 1.375 . S
C449 C450 1.369 . S
C449 H462 0.950 . S
C450 C449 1.369 . S
C450 C451 1.392 . S
C450 H463 0.951 . S
C451 C450 1.392 . S
C451 C453 1.384 . S
H452 C454 0.949 1_554 S
C453 C451 1.384 . S
C453 C454 1.385 . S
C453 H455 0.950 . S
C454 C448 1.404 . S
C454 H452 0.949 1_556 S
C454 C453 1.385 . S
H455 C453 0.950 . S
H456 C440 0.951 . S
H457 C442 0.951 . S
H458 C444 0.951 . S
H459 C445 0.950 . S
H460 C446 0.950 . S
H461 C447 0.950 . S
H462 C449 0.950 . S
H463 C450 0.951 . S
C464 C465 1.386 . S
C464 C466 1.383 . S
C464 H480 0.951 . S
C465 C464 1.386 . S
C465 C469 1.383 . S
C466 C464 1.383 . S
C466 C467 1.402 . S
C466 H481 0.951 . S
C467 C466 1.402 . S
C467 C468 1.375 . S
C467 C470 1.481 . S
C468 C467 1.375 . S
C468 C469 1.367 . S
C468 H482 0.951 . S
C469 C465 1.383 . S
C469 C468 1.367 . S
C469 H483 0.950 . S
C470 C467 1.481 . S
C470 C471 1.297 . S
C470 H484 0.950 . S
C471 C470 1.297 . S
C471 C472 1.479 . S
C471 H485 0.950 . S
C472 C471 1.479 . S
C472 C473 1.375 . S
C472 C478 1.404 . S
C473 C472 1.375 . S
C473 C474 1.369 . S
C473 H486 0.950 . S
C474 C473 1.369 . S
C474 C475 1.392 . S
C474 H487 0.951 . S
C475 C474 1.392 . S
C475 C477 1.384 . S
H476 C478 0.949 . S
C477 C475 1.384 . S
C477 C478 1.385 . S
C477 H479 0.950 . S
C478 C472 1.404 . S
C478 H476 0.949 . S
C478 C477 1.385 . S
H479 C477 0.950 . S
H480 C464 0.951 . S
H481 C466 0.951 . S
H482 C468 0.951 . S
H483 C469 0.950 . S
H484 C470 0.950 . S
H485 C471 0.950 . S
H486 C473 0.950 . S
H487 C474 0.951 . S
C105 C70 1.508 . S
C115 C10 1.501 . S
C129 C96 1.508 . S
C139 C17 1.501 . S
C153 C29 1.515 . S
C163 C81 1.510 . S
C177 C43 1.508 . S
C187 C56 1.499 . S
C201 C82 1.509 . S
C211 C3 1.496 . S
C225 C16 1.506 . S
C235 C57 1.495 . S
C249 C75 1.508 . S
C259 C36 1.499 . S
C273 C42 1.508 . S
C283 C95 1.501 . S
C297 C55 1.511 . S
C307 C69 1.504 . S
C321 C18 1.514 . S
C331 C30 1.507 . S
C345 C49 1.509 . S
C355 C31 1.494 . S
C369 C44 1.507 . S
C379 C5 1.497 . S
C393 C23 1.510 . S
C403 C4 1.502 . S
C417 C101 1.509 . S
C427 C88 1.500 . S
C441 C62 1.513 . S
C451 C83 1.510 . S
C465 C68 1.508 . S
C475 C94 1.498 . S
