# Generated by pormake.
# Topology rac, (4)-cn, num edge types: 1
# Building blocks:
#     Node 0, Type 0, BuildingBlock: AZAVOO_clean_sbu_0, # of connection points: 4
#     Node 1, Type 0, BuildingBlock: AZAVOO_clean_sbu_0, # of connection points: 4
#     Node 2, Type 0, BuildingBlock: AZAVOO_clean_sbu_0, # of connection points: 4
#     Node 3, Type 0, BuildingBlock: AZAVOO_clean_sbu_0, # of connection points: 4
#     Node 4, Type 0, BuildingBlock: AZAVOO_clean_sbu_0, # of connection points: 4
#     Node 5, Type 0, BuildingBlock: AZAVOO_clean_sbu_0, # of connection points: 4
#     Node 6, Type 0, BuildingBlock: AZAVOO_clean_sbu_0, # of connection points: 4
#     Node 7, Type 0, BuildingBlock: AZAVOO_clean_sbu_0, # of connection points: 4
#     Edge 8, Type (0, 0), BuildingBlock: FUNLAD_clean_linker_1, # of connection points: 2
#     Edge 9, Type (0, 0), BuildingBlock: FUNLAD_clean_linker_1, # of connection points: 2
#     Edge 10, Type (0, 0), BuildingBlock: FUNLAD_clean_linker_1, # of connection points: 2
#     Edge 11, Type (0, 0), BuildingBlock: FUNLAD_clean_linker_1, # of connection points: 2
#     Edge 12, Type (0, 0), BuildingBlock: FUNLAD_clean_linker_1, # of connection points: 2
#     Edge 13, Type (0, 0), BuildingBlock: FUNLAD_clean_linker_1, # of connection points: 2
#     Edge 14, Type (0, 0), BuildingBlock: FUNLAD_clean_linker_1, # of connection points: 2
#     Edge 15, Type (0, 0), BuildingBlock: FUNLAD_clean_linker_1, # of connection points: 2
#     Edge 16, Type (0, 0), BuildingBlock: FUNLAD_clean_linker_1, # of connection points: 2
#     Edge 17, Type (0, 0), BuildingBlock: FUNLAD_clean_linker_1, # of connection points: 2
#     Edge 18, Type (0, 0), BuildingBlock: FUNLAD_clean_linker_1, # of connection points: 2
#     Edge 19, Type (0, 0), BuildingBlock: FUNLAD_clean_linker_1, # of connection points: 2
#     Edge 20, Type (0, 0), BuildingBlock: FUNLAD_clean_linker_1, # of connection points: 2
#     Edge 21, Type (0, 0), BuildingBlock: FUNLAD_clean_linker_1, # of connection points: 2
#     Edge 22, Type (0, 0), BuildingBlock: FUNLAD_clean_linker_1, # of connection points: 2
#     Edge 23, Type (0, 0), BuildingBlock: FUNLAD_clean_linker_1, # of connection points: 2
# Relax obj value: 0.239
# Max RMSD: 0.131
# Mean RMSD: 0.131
data_MOF--net-rac--node1-AZAVOO_clean_sbu_0--edge1-FUNLAD_clean_linker_1
_symmetry_space_group_name_H-M    P1
_symmetry_Int_Tables_number       1
_symmetry_cell_setting            triclinic
loop_
_symmetry_equiv_pos_as_xyz
'x, y, z'
_cell_length_a     40.18132
_cell_length_b     20.378544
_cell_length_c     47.609899
_cell_angle_alpha  90.01478
_cell_angle_beta   90.145082
_cell_angle_gamma 89.983509
loop_
_atom_site_label
_atom_site_type_symbol
_atom_site_fract_x
_atom_site_fract_y
_atom_site_fract_z
_atom_type_partial_charge
Mg0 Mg 0.39245 0.21264 0.06304 0.0
O1 O 0.34559 0.27214 0.07402 0.0
O2 O 0.30927 0.20635 0.09576 0.0
Mg3 Mg 0.33404 0.10578 0.10025 0.0
C4 C 0.31746 0.26207 0.08572 0.0
C5 C 0.4386 0.31021 0.03138 0.0
O6 O 0.44321 0.25717 0.01617 0.0
O7 O 0.40945 0.21857 0.10883 0.0
O8 O 0.37301 0.15174 0.12978 0.0
O9 O 0.36817 0.18122 0.02291 0.0
O10 O 0.36448 0.12662 0.06291 0.0
C11 C 0.39806 0.19037 0.13072 0.0
C12 C 0.35525 0.13357 0.03715 0.0
O13 O 0.4193 0.30788 0.05242 0.0
Mg14 Mg 0.11701 0.77178 0.0929 0.0
O15 O 0.1626 0.70337 0.09531 0.0
O16 O 0.20411 0.75752 0.11652 0.0
Mg17 Mg 0.18454 0.85818 0.12975 0.0
C18 C 0.19252 0.70656 0.1044 0.0
C19 C 0.05418 0.69603 0.07268 0.0
O20 O 0.04072 0.75173 0.08056 0.0
O21 O 0.10568 0.75117 0.13966 0.0
O22 O 0.14782 0.80721 0.15917 0.0
O23 O 0.13759 0.81631 0.05333 0.0
O24 O 0.14769 0.8537 0.09607 0.0
C25 C 0.12175 0.7718 0.16119 0.0
C26 C 0.15345 0.85649 0.06961 0.0
O27 O 0.08516 0.68687 0.0766 0.0
Mg28 Mg 0.38356 0.28716 0.40382 0.0
O29 O 0.34331 0.20749 0.4053 0.0
O30 O 0.29656 0.24486 0.38541 0.0
Mg31 Mg 0.30764 0.34858 0.36942 0.0
C32 C 0.31304 0.19991 0.39792 0.0
C33 C 0.4162 0.18169 0.44172 0.0
O34 O 0.38894 0.19523 0.45578 0.0
O35 O 0.39243 0.26401 0.35706 0.0
O36 O 0.34529 0.30477 0.33873 0.0
O37 O 0.36299 0.33224 0.4435 0.0
O38 O 0.34741 0.35971 0.40057 0.0
C39 C 0.37354 0.27683 0.33607 0.0
C40 C 0.34368 0.36589 0.42716 0.0
O41 O 0.42175 0.2113 0.4187 0.0
Mg42 Mg 0.09599 0.70252 0.43525 0.0
O43 O 0.13664 0.77946 0.42818 0.0
O44 O 0.17944 0.73397 0.40545 0.0
Mg45 Mg 0.16517 0.62678 0.39703 0.0
C46 C 0.16544 0.78314 0.41713 0.0
C47 C 0.04236 0.77455 0.4702 0.0
O48 O 0.04105 0.71562 0.48126 0.0
O49 O 0.08029 0.71191 0.38897 0.0
O50 O 0.1232 0.66234 0.36786 0.0
O51 O 0.12138 0.67085 0.47494 0.0
O52 O 0.13124 0.62756 0.43322 0.0
C53 C 0.09503 0.69148 0.36686 0.0
C54 C 0.1385 0.631 0.45954 0.0
O55 O 0.06157 0.78497 0.4495 0.0
Mg56 Mg 0.61687 0.79433 0.90995 0.0
O57 O 0.66357 0.73276 0.90082 0.0
O58 O 0.70164 0.79669 0.88033 0.0
Mg59 Mg 0.67752 0.89705 0.87389 0.0
C60 C 0.69249 0.74165 0.89041 0.0
C61 C 0.56982 0.69782 0.94144 0.0
O62 O 0.56555 0.75074 0.95679 0.0
O63 O 0.60079 0.78763 0.86366 0.0
O64 O 0.63953 0.85142 0.844 0.0
O65 O 0.64111 0.82521 0.95028 0.0
O66 O 0.64552 0.88022 0.91049 0.0
C67 C 0.61395 0.81471 0.84218 0.0
C68 C 0.65456 0.87259 0.93625 0.0
O69 O 0.58915 0.69994 0.92041 0.0
Mg70 Mg 0.89862 0.24565 0.92534 0.0
O71 O 0.85334 0.31175 0.9159 0.0
O72 O 0.81418 0.24973 0.89549 0.0
Mg73 Mg 0.83539 0.14703 0.88928 0.0
C74 C 0.82437 0.30451 0.90517 0.0
C75 C 0.96033 0.32811 0.94194 0.0
O76 O 0.97438 0.27292 0.93411 0.0
O77 O 0.91436 0.2532 0.87868 0.0
O78 O 0.87421 0.1907 0.85989 0.0
O79 O 0.87371 0.21397 0.96541 0.0
O80 O 0.86878 0.16178 0.92498 0.0
C81 C 0.90018 0.22618 0.8575 0.0
C82 C 0.86022 0.16747 0.95084 0.0
O83 O 0.92905 0.33486 0.93908 0.0
Mg84 Mg 0.60205 0.73856 0.57236 0.0
O85 O 0.64129 0.81603 0.58377 0.0
O86 O 0.68088 0.76944 0.61016 0.0
Mg87 Mg 0.66505 0.66295 0.61773 0.0
C88 C 0.66863 0.81901 0.59739 0.0
C89 C 0.538 0.80875 0.5508 0.0
O90 O 0.52545 0.75193 0.55827 0.0
O91 O 0.57941 0.74825 0.6165 0.0
O92 O 0.61956 0.7001 0.6418 0.0
O93 O 0.63418 0.7069 0.53617 0.0
O94 O 0.63622 0.66291 0.57856 0.0
C95 C 0.59136 0.72883 0.63999 0.0
C96 C 0.64788 0.66607 0.5535 0.0
O97 O 0.56886 0.81951 0.5545 0.0
Mg98 Mg 0.90089 0.29152 0.58507 0.0
O99 O 0.86084 0.21531 0.59532 0.0
O100 O 0.82051 0.26195 0.62065 0.0
Mg101 Mg 0.83729 0.36768 0.62914 0.0
C102 C 0.83296 0.21254 0.60797 0.0
C103 C 0.95086 0.21906 0.54637 0.0
O104 O 0.95209 0.27843 0.53575 0.0
O105 O 0.92253 0.28158 0.62961 0.0
O106 O 0.88219 0.33008 0.65437 0.0
O107 O 0.87036 0.32302 0.54807 0.0
O108 O 0.86666 0.36805 0.5902 0.0
C109 C 0.91036 0.30112 0.65294 0.0
C110 C 0.85582 0.36394 0.56479 0.0
O111 O 0.93297 0.20842 0.56788 0.0
H112 H 0.31713 0.10846 0.00522 0.0
C113 C 0.32744 0.09478 0.02551 0.0
H114 H 0.32448 0.03054 0.06011 0.0
H115 H 0.16734 0.01382 0.02563 0.0
H116 H 0.16499 0.13226 0.03185 0.0
H117 H 0.21639 0.1964 0.03906 0.0
H118 H 0.27019 0.14334 0.03948 0.0
C119 C 0.31328 0.04645 0.04048 0.0
C120 C 0.28257 0.01149 0.03146 0.0
C121 C 0.25128 0.04398 0.03171 0.0
C122 C 0.22151 0.00684 0.02885 0.0
C123 C 0.19055 0.03994 0.02861 0.0
C124 C 0.18888 0.10772 0.03203 0.0
C125 C 0.21783 0.14383 0.03599 0.0
C126 C 0.24869 0.11262 0.036 0.0
H127 H 0.19128 0.93251 0.07495 0.0
C128 C 0.18012 0.89974 0.05953 0.0
H129 H 0.18329 0.86326 0.01802 0.0
H130 H 0.33833 0.93598 0.02564 0.0
H131 H 0.34012 0.81766 0.01931 0.0
H132 H 0.28828 0.75308 0.01634 0.0
H133 H 0.23434 0.80641 0.01946 0.0
C134 C 0.19275 0.8978 0.03348 0.0
C135 C 0.22297 0.93747 0.02722 0.0
C136 C 0.25414 0.90576 0.02458 0.0
C137 C 0.284 0.94288 0.02666 0.0
C138 C 0.31491 0.90987 0.02458 0.0
C139 C 0.31627 0.8421 0.02085 0.0
C140 C 0.28708 0.80574 0.01916 0.0
C141 C 0.2563 0.83692 0.02103 0.0
H142 H 0.17589 0.60716 0.49231 0.0
C143 C 0.16755 0.59581 0.47113 0.0
H144 H 0.17504 0.53808 0.43493 0.0
H145 H 0.32989 0.52453 0.47232 0.0
H146 H 0.33103 0.64332 0.46686 0.0
H147 H 0.27895 0.70576 0.46025 0.0
H148 H 0.2256 0.65044 0.45942 0.0
C149 C 0.18422 0.55176 0.45559 0.0
C150 C 0.21482 0.51795 0.46554 0.0
C151 C 0.24571 0.55168 0.46612 0.0
C152 C 0.27582 0.51566 0.46913 0.0
C153 C 0.30644 0.54989 0.46951 0.0
C154 C 0.30739 0.61786 0.4665 0.0
C155 C 0.27806 0.65301 0.46284 0.0
C156 C 0.24753 0.62058 0.46251 0.0
H157 H 0.30289 0.43559 0.42184 0.0
C158 C 0.31617 0.40672 0.4375 0.0
H159 H 0.31704 0.37729 0.48017 0.0
H160 H 0.15972 0.4402 0.46999 0.0
H161 H 0.15903 0.32177 0.47635 0.0
H162 H 0.21148 0.25937 0.48052 0.0
H163 H 0.26496 0.31508 0.47853 0.0
C164 C 0.30556 0.40788 0.46417 0.0
C165 C 0.27502 0.44627 0.4707 0.0
C166 C 0.24414 0.41338 0.47288 0.0
C167 C 0.21396 0.44928 0.47023 0.0
C168 C 0.18337 0.41502 0.47159 0.0
C169 C 0.18265 0.3472 0.47532 0.0
C170 C 0.21218 0.31206 0.47768 0.0
C171 C 0.24267 0.34451 0.47644 0.0
H172 H 0.69888 0.88396 0.96335 0.0
C173 C 0.68374 0.90809 0.94748 0.0
H174 H 0.67771 0.98991 0.92113 0.0
H175 H 0.80737 0.06041 0.00647 0.0
H176 H 0.76834 0.05361 0.04526 0.0
H177 H 0.70995 0.0212 0.0371 0.0
H178 H 0.69027 0.99489 0.9902 0.0
C179 C 0.69334 0.96617 0.93677 0.0
C180 C 0.72729 0.99372 0.94199 0.0
C181 C 0.73818 0.01044 0.96948 0.0
C182 C 0.77153 0.03186 0.97405 0.0
C183 C 0.78201 0.04634 0.00176 0.0
C184 C 0.75994 0.04216 0.0242 0.0
C185 C 0.72709 0.02361 0.01962 0.0
C186 C 0.71618 0.00804 0.99263 0.0
H187 H 0.8105 0.15878 0.96979 0.0
C188 C 0.83112 0.13097 0.9611 0.0
H189 H 0.84874 0.04086 0.94613 0.0
H190 H 0.71343 0.97917 0.88589 0.0
H191 H 0.75244 0.98222 0.84751 0.0
H192 H 0.81163 0.00728 0.85611 0.0
H193 H 0.83148 0.03049 0.90286 0.0
C194 C 0.82745 0.06726 0.95449 0.0
C195 C 0.79382 0.03729 0.95111 0.0
C196 C 0.78317 0.01882 0.92378 0.0
C197 C 0.74953 1.00046 0.91903 0.0
C198 C 0.73897 0.9889 0.89106 0.0
C199 C 0.76112 0.99151 0.86869 0.0
C200 C 0.79434 0.0059 0.87351 0.0
C201 C 0.80534 0.01958 0.90061 0.0
H202 H 0.6986 0.65737 0.53603 0.0
C203 C 0.6788 0.63094 0.54663 0.0
H204 H 0.66302 0.54452 0.56636 0.0
H205 H 0.81702 0.48516 0.51518 0.0
H206 H 0.79533 0.51276 0.46912 0.0
H207 H 0.73711 0.54873 0.46317 0.0
H208 H 0.70057 0.55918 0.50338 0.0
C209 C 0.68364 0.56963 0.55626 0.0
C210 C 0.71733 0.53913 0.55855 0.0
C211 C 0.73772 0.52939 0.53459 0.0
C212 C 0.77059 0.50411 0.53779 0.0
C213 C 0.79128 0.50026 0.51381 0.0
C214 C 0.77923 0.51657 0.48725 0.0
C215 C 0.74652 0.53717 0.48392 0.0
C216 C 0.72589 0.54355 0.50722 0.0
H217 H 0.80931 0.37573 0.54039 0.0
C218 C 0.82509 0.39819 0.55627 0.0
H219 H 0.83226 0.47672 0.58423 0.0
H220 H 0.68474 0.54952 0.60919 0.0
H221 H 0.70533 0.51652 0.65461 0.0
H222 H 0.76107 0.46733 0.65972 0.0
H223 H 0.7964 0.45182 0.61939 0.0
C224 C 0.81595 0.45478 0.56858 0.0
C225 C 0.78221 0.48427 0.56468 0.0
C226 C 0.7615 0.49263 0.58854 0.0
C227 C 0.72916 0.52013 0.58551 0.0
C228 C 0.70938 0.52855 0.60992 0.0
C229 C 0.72089 0.50973 0.6363 0.0
C230 C 0.75223 0.48212 0.63918 0.0
C231 C 0.77233 0.47353 0.61572 0.0
H232 H 0.43551 0.23589 0.15895 0.0
C233 C 0.41339 0.20524 0.15827 0.0
H234 H 0.37753 0.15339 0.18174 0.0
H235 H 0.43636 0.12165 0.29953 0.0
H236 H 0.4432 0.01067 0.28164 0.0
H237 H 0.43673 0.98712 0.23107 0.0
H238 H 0.42307 0.07419 0.19809 0.0
C239 C 0.39921 0.18526 0.18237 0.0
C240 C 0.41189 0.20313 0.21079 0.0
C241 C 0.42111 0.15223 0.22962 0.0
C242 C 0.42531 0.16584 0.25872 0.0
C243 C 0.43302 0.11372 0.27723 0.0
C244 C 0.43709 0.04997 0.26722 0.0
C245 C 0.43342 0.03669 0.23874 0.0
C246 C 0.42547 0.087 0.22007 0.0
H247 H 0.3646 0.26736 0.29102 0.0
C248 C 0.38351 0.26054 0.30718 0.0
H249 H 0.43364 0.23315 0.31472 0.0
H250 H 0.39563 0.31459 0.18071 0.0
H251 H 0.39466 0.42578 0.19826 0.0
H252 H 0.40753 0.44962 0.24793 0.0
H253 H 0.42054 0.36119 0.2805 0.0
C254 C 0.41411 0.24156 0.29932 0.0
C255 C 0.42054 0.23036 0.26883 0.0
C256 C 0.41582 0.28253 0.24953 0.0
C257 C 0.4103 0.26893 0.22059 0.0
C258 C 0.4018 0.3217 0.20256 0.0
C259 C 0.40088 0.38607 0.21243 0.0
C260 C 0.408 0.39949 0.24041 0.0
C261 C 0.41525 0.34845 0.25887 0.0
H262 H 0.0551 0.72595 0.338 0.0
C263 C 0.07948 0.70294 0.33903 0.0
H264 H 0.11951 0.66253 0.31624 0.0
H265 H 0.06881 0.60389 0.19839 0.0
H266 H 0.0695 0.49372 0.21801 0.0
H267 H 0.07501 0.47654 0.26912 0.0
H268 H 0.08014 0.56937 0.30095 0.0
C269 C 0.09558 0.68729 0.31515 0.0
C270 C 0.08214 0.69893 0.28637 0.0
C271 C 0.07783 0.64441 0.26815 0.0
C272 C 0.0742 0.65423 0.23871 0.0
C273 C 0.07152 0.5989 0.22091 0.0
C274 C 0.07179 0.53554 0.2319 0.0
C275 C 0.07492 0.52587 0.26069 0.0
C276 C 0.07798 0.57947 0.2787 0.0
H277 H 0.12822 0.77014 0.20671 0.0
C278 C 0.11109 0.75607 0.19 0.0
H279 H 0.06419 0.71308 0.18123 0.0
H280 H 0.08706 0.81597 0.31516 0.0
H281 H 0.08065 0.92483 0.29572 0.0
H282 H 0.06948 0.94066 0.2452 0.0
H283 H 0.06554 0.8469 0.21369 0.0
C284 C 0.08185 0.72895 0.19715 0.0
C285 C 0.07465 0.71854 0.22761 0.0
C286 C 0.07425 0.77304 0.24616 0.0
C287 C 0.07902 0.76355 0.2755 0.0
C288 C 0.08204 0.81957 0.29295 0.0
C289 C 0.07858 0.88264 0.28201 0.0
C290 C 0.0724 0.89159 0.25355 0.0
C291 C 0.07037 0.83758 0.23571 0.0
H292 H 0.61594 0.82156 0.79647 0.0
C293 C 0.60079 0.80332 0.81371 0.0
H294 H 0.55673 0.75234 0.82433 0.0
H295 H 0.57267 0.85603 0.68942 0.0
H296 H 0.56464 0.96515 0.70824 0.0
H297 H 0.55386 0.98197 0.75874 0.0
H298 H 0.55198 0.88894 0.79085 0.0
C299 C 0.57209 0.77247 0.80769 0.0
C300 C 0.56327 0.761 0.77759 0.0
C301 C 0.56158 0.8148 0.75874 0.0
C302 C 0.56625 0.80465 0.72946 0.0
C303 C 0.56803 0.86016 0.71165 0.0
C304 C 0.56355 0.92334 0.72223 0.0
C305 C 0.55757 0.93285 0.75067 0.0
C306 C 0.55669 0.87934 0.76884 0.0
H307 H 0.54788 0.76233 0.6651 0.0
C308 C 0.57266 0.74111 0.66625 0.0
H309 H 0.61108 0.70531 0.69233 0.0
H310 H 0.55834 0.64672 0.80737 0.0
H311 H 0.55978 0.53618 0.78823 0.0
H312 H 0.56513 0.51791 0.73718 0.0
H313 H 0.56935 0.61027 0.70496 0.0
C314 C 0.58666 0.72817 0.69138 0.0
C315 C 0.57061 0.73995 0.71907 0.0
C316 C 0.56656 0.68584 0.73747 0.0
C317 C 0.56303 0.69632 0.76684 0.0
C318 C 0.56093 0.64135 0.78488 0.0
C319 C 0.56164 0.57772 0.77415 0.0
C320 C 0.56468 0.56743 0.74541 0.0
C321 C 0.56722 0.62069 0.72719 0.0
H322 H 0.95441 0.27061 0.67816 0.0
C323 C 0.92931 0.29028 0.6793 0.0
H324 H 0.89088 0.32527 0.70537 0.0
H325 H 0.9623 0.15545 0.80448 0.0
H326 H 0.96091 0.05984 0.77375 0.0
H327 H 0.94529 0.07112 0.72382 0.0
H328 H 0.93192 0.17735 0.70415 0.0
C329 C 0.91563 0.30385 0.70445 0.0
C330 C 0.93288 0.29594 0.73201 0.0
C331 C 0.94014 0.23276 0.743 0.0
C332 C 0.94755 0.22558 0.77209 0.0
C333 C 0.95546 0.16264 0.78268 0.0
C334 C 0.95489 0.1077 0.76529 0.0
C335 C 0.94619 0.11412 0.73716 0.0
C336 C 0.9387 0.17569 0.72607 0.0
H337 H 0.89653 0.2153 0.81209 0.0
C338 C 0.91206 0.23634 0.82857 0.0
H339 H 0.95487 0.29368 0.83672 0.0
H340 H 0.92843 0.42453 0.71641 0.0
H341 H 0.93181 0.5195 0.74725 0.0
H342 H 0.9417 0.50586 0.7981 0.0
H343 H 0.9486 0.39729 0.8184 0.0
C344 C 0.93931 0.27009 0.82101 0.0
C345 C 0.94555 0.28046 0.79035 0.0
C346 C 0.94253 0.34412 0.77881 0.0
C347 C 0.93633 0.35185 0.74957 0.0
C348 C 0.93261 0.41599 0.73859 0.0
C349 C 0.93464 0.4708 0.75601 0.0
C350 C 0.94023 0.46312 0.78465 0.0
C351 C 0.94405 0.40059 0.79605 0.0
H352 H 0.44952 0.4156 0.03676 0.0
C353 C 0.45494 0.37263 0.02402 0.0
H354 H 0.48068 0.33596 0.98871 0.0
H355 H 0.49107 0.61285 0.92942 0.0
H356 H 0.45141 0.55727 0.89928 0.0
H357 H 0.42921 0.4485 0.91206 0.0
H358 H 0.4464 0.39489 0.95517 0.0
C359 C 0.47583 0.37799 0.00215 0.0
C360 C 0.49054 0.44235 0.99412 0.0
C361 C 0.48077 0.47242 0.96853 0.0
C362 C 0.49401 0.53466 0.96092 0.0
C363 C 0.48267 0.56475 0.93583 0.0
C364 C 0.45968 0.5336 0.91842 0.0
C365 C 0.44715 0.47241 0.92563 0.0
C366 C 0.45733 0.4421 0.95042 0.0
H367 H 0.55848 0.59264 0.93592 0.0
C368 C 0.5532 0.63561 0.9487 0.0
H369 H 0.52762 0.6724 0.98407 0.0
H370 H 0.51703 0.39557 0.04335 0.0
H371 H 0.55671 0.45112 0.07347 0.0
H372 H 0.57892 0.55987 0.06069 0.0
H373 H 0.56172 0.6135 0.01759 0.0
C374 C 0.53233 0.63038 0.97059 0.0
C375 C 0.51756 0.56608 0.97864 0.0
C376 C 0.52732 0.53601 0.00423 0.0
C377 C 0.51409 0.47377 0.01185 0.0
C378 C 0.52542 0.44367 0.03693 0.0
C379 C 0.54843 0.4748 0.05434 0.0
C380 C 0.56097 0.53598 0.04712 0.0
C381 C 0.55078 0.5663 0.02234 0.0
H382 H 0.00731 0.65764 0.05492 0.0
C383 C 0.03388 0.64837 0.05675 0.0
H384 H 0.07382 0.58749 0.04429 0.0
H385 H 0.9795 0.34812 0.01269 0.0
H386 H 0.00423 0.30795 0.05585 0.0
H387 H 0.03963 0.37973 0.08503 0.0
H388 H 0.05032 0.49238 0.07129 0.0
C389 C 0.04736 0.59789 0.04258 0.0
C390 C 0.02668 0.55438 0.02437 0.0
C391 C 0.02124 0.48826 0.03235 0.0
C392 C 0.00126 0.44654 0.01524 0.0
C393 C 0.9952 0.38149 0.02439 0.0
C394 C 0.00907 0.35788 0.04925 0.0
C395 C 0.02897 0.3983 0.0657 0.0
C396 C 0.03496 0.46284 0.05753 0.0
H397 H 0.00717 0.36952 0.95841 0.0
C398 C 0.98045 0.37736 0.95713 0.0
H399 H 0.94006 0.43593 0.97061 0.0
H400 H 0.0347 0.67675 0.00135 0.0
H401 H 0.00995 0.71686 0.95819 0.0
H402 H 0.97436 0.64518 0.92912 0.0
H403 H 0.96356 0.5326 0.94297 0.0
C404 C 0.9667 0.42701 0.97164 0.0
C405 C 0.98731 0.47067 0.98983 0.0
C406 C 0.99274 0.53677 0.98185 0.0
C407 C 0.01275 0.57848 0.99893 0.0
C408 C 0.01891 0.64344 0.98971 0.0
C409 C 0.00504 0.66701 0.96484 0.0
C410 C 0.98504 0.62662 0.94845 0.0
C411 C 0.97899 0.56215 0.95668 0.0
H412 H 0.48997 0.84655 0.53519 0.0
C413 C 0.51628 0.85799 0.5373 0.0
H414 H 0.55402 0.92781 0.5294 0.0
H415 H 0.43141 0.00595 0.44028 0.0
H416 H 0.44491 0.90381 0.4169 0.0
H417 H 0.48716 0.82886 0.43659 0.0
H418 H 0.51567 0.85512 0.4801 0.0
C419 C 0.52794 0.91483 0.52692 0.0
C420 C 0.50529 0.96316 0.51321 0.0
C421 C 0.4899 0.94842 0.48709 0.0
C422 C 0.46666 0.9931 0.47505 0.0
C423 C 0.45021 0.97521 0.44983 0.0
C424 C 0.45758 0.91645 0.43625 0.0
C425 C 0.48128 0.87415 0.44738 0.0
C426 C 0.49732 0.88966 0.47249 0.0
H427 H 0.463 0.12445 0.44074 0.0
C428 C 0.44035 0.13325 0.4526 0.0
H429 H 0.41295 0.11037 0.4891 0.0
H430 H 0.53133 0.00755 0.56288 0.0
H431 H 0.51975 0.11198 0.58527 0.0
H432 H 0.48109 0.19127 0.56355 0.0
H433 H 0.45363 0.16653 0.51939 0.0
C434 C 0.43503 0.10038 0.47667 0.0
C435 C 0.45995 0.05378 0.48854 0.0
C436 C 0.47613 0.06931 0.51422 0.0
C437 C 0.49877 0.02396 0.52656 0.0
C438 C 0.51416 0.04042 0.55243 0.0
C439 C 0.50771 0.10019 0.56554 0.0
C440 C 0.48592 0.1448 0.55333 0.0
C441 C 0.47026 0.12986 0.52798 0.0
H442 H 0.98401 0.17726 0.51414 0.0
C443 C 0.96828 0.16503 0.53193 0.0
H444 H 0.94858 0.08859 0.55687 0.0
H445 H 0.98821 0.93188 0.43923 0.0
H446 H 0.94335 0.99436 0.41794 0.0
H447 H 0.91426 0.08073 0.44464 0.0
H448 H 0.92997 0.10551 0.49265 0.0
C449 C 0.96381 0.10177 0.53891 0.0
C450 C 0.98031 0.04802 0.52294 0.0
C451 C 0.97044 0.03359 0.49495 0.0
C452 C 0.98679 0.98294 0.4797 0.0
C453 C 0.97659 0.96976 0.45177 0.0
C454 C 0.95084 0.00515 0.43931 0.0
C455 C 0.93449 0.05384 0.45433 0.0
C456 C 0.94395 0.0679 0.48185 0.0
H457 H 0.00772 0.81678 0.50116 0.0
C458 C 0.02406 0.82872 0.48373 0.0
H459 H 0.0448 0.90492 0.45923 0.0
H460 H 0.00466 0.06213 0.57632 0.0
H461 H 0.04951 0.99964 0.59758 0.0
H462 H 0.07851 0.91313 0.5709 0.0
H463 H 0.06271 0.88826 0.52292 0.0
C464 C 0.02886 0.8919 0.47677 0.0
C465 C 0.0124 0.94582 0.49264 0.0
C466 C 0.02229 0.96028 0.52062 0.0
C467 C 0.00596 0.01095 0.53586 0.0
C468 C 0.01622 0.02419 0.56378 0.0
C469 C 0.04198 0.9888 0.57623 0.0
C470 C 0.05827 0.94004 0.56122 0.0
C471 C 0.04877 0.92594 0.53372 0.0
H472 H 0.24054 0.65502 0.10833 0.0
C473 C 0.2149 0.64958 0.10132 0.0
H474 H 0.17952 0.5854 0.0832 0.0
H475 H 0.28642 0.39784 0.02799 0.0
H476 H 0.26143 0.44801 0.98683 0.0
H477 H 0.22135 0.53903 0.99158 0.0
H478 H 0.2058 0.58015 0.03752 0.0
C479 C 0.20478 0.59152 0.09097 0.0
C480 C 0.22835 0.53533 0.08834 0.0
C481 C 0.2373 0.51209 0.06132 0.0
C482 C 0.2608 0.46024 0.05856 0.0
C483 C 0.26901 0.4376 0.03131 0.0
C484 C 0.25481 0.46588 0.00749 0.0
C485 C 0.23222 0.51708 0.01017 0.0
C486 C 0.22349 0.54016 0.03669 0.0
H487 H 0.26955 0.3063 0.09816 0.0
C488 C 0.2934 0.31651 0.08833 0.0
H489 H 0.32345 0.38872 0.06908 0.0
H490 H 0.21316 0.56129 0.14337 0.0
H491 H 0.23971 0.51423 0.18445 0.0
H492 H 0.28403 0.43124 0.17957 0.0
H493 H 0.30146 0.39375 0.13361 0.0
C494 C 0.30016 0.37785 0.07967 0.0
C495 C 0.27545 0.43188 0.08282 0.0
C496 C 0.26663 0.45536 0.10987 0.0
C497 C 0.24238 0.50583 0.11265 0.0
C498 C 0.23255 0.52536 0.13996 0.0
C499 C 0.24741 0.49837 0.16376 0.0
C500 C 0.27225 0.45145 0.16101 0.0
C501 C 0.28186 0.43003 0.13446 0.0
H502 H 0.31272 0.0972 0.41253 0.0
C503 C 0.29741 0.13559 0.40328 0.0
H504 H 0.25034 0.15946 0.38628 0.0
H505 H 0.2111 0.87109 0.35266 0.0
H506 H 0.21819 0.92215 0.3071 0.0
H507 H 0.24122 0.03391 0.30304 0.0
H508 H 0.257 0.09553 0.34452 0.0
C509 C 0.26567 0.12232 0.39637 0.0
C510 C 0.25183 0.05481 0.3992 0.0
C511 C 0.24309 0.0191 0.37469 0.0
C512 C 0.23038 0.95419 0.377 0.0
C513 C 0.22131 0.92018 0.35216 0.0
C514 C 0.2252 0.94894 0.32584 0.0
C515 C 0.23812 0.01189 0.32356 0.0
C516 C 0.24702 0.04677 0.34759 0.0
H517 H 0.16884 0.88896 0.42635 0.0
C518 C 0.18216 0.84763 0.41727 0.0
H519 H 0.22553 0.81736 0.39589 0.0
H520 H 0.2624 0.11201 0.45059 0.0
H521 H 0.25745 0.05942 0.49606 0.0
H522 H 0.23981 0.94381 0.49982 0.0
H523 H 0.22635 0.88057 0.45816 0.0
C524 C 0.21232 0.85754 0.40592 0.0
C525 C 0.22665 0.92481 0.4038 0.0
C526 C 0.23587 0.96012 0.42832 0.0
C527 C 0.24767 0.02576 0.42606 0.0
C528 C 0.25473 0.06116 0.45098 0.0
C529 C 0.25176 0.0317 0.47725 0.0
C530 C 0.2417 0.9667 0.47937 0.0
C531 C 0.23383 0.93109 0.45528 0.0
H532 H 0.74138 0.69668 0.88177 0.0
C533 C 0.71689 0.68747 0.8906 0.0
H534 H 0.68638 0.61919 0.91178 0.0
H535 H 0.80804 0.4363 0.85658 0.0
H536 H 0.78596 0.46835 0.81117 0.0
H537 H 0.73989 0.548 0.80761 0.0
H538 H 0.71615 0.59706 0.84938 0.0
C539 C 0.71027 0.62846 0.90189 0.0
C540 C 0.73629 0.57653 0.90379 0.0
C541 C 0.7489 0.54628 0.87915 0.0
C542 C 0.77428 0.49782 0.88128 0.0
C543 C 0.78775 0.47118 0.85628 0.0
C544 C 0.77547 0.4895 0.83004 0.0
C545 C 0.74963 0.53453 0.82803 0.0
C546 C 0.73638 0.56269 0.85221 0.0
H547 H 0.77666 0.35203 0.89485 0.0
C548 C 0.80146 0.36092 0.90322 0.0
H549 H 0.83442 0.43223 0.91965 0.0
H550 H 0.71824 0.62582 0.95508 0.0
H551 H 0.73922 0.59123 1.00052 0.0
H552 H 0.78149 0.50384 0.00425 0.0
H553 H 0.80322 0.45079 0.96254 0.0
C554 C 0.81009 0.42225 0.9106 0.0
C555 C 0.78579 0.47722 0.90808 0.0
C556 C 0.77327 0.50757 0.93266 0.0
C557 C 0.74854 0.55733 0.93052 0.0
C558 C 0.73671 0.5872 0.95545 0.0
C559 C 0.74859 0.56791 0.9817 0.0
C560 C 0.77241 0.51876 0.9838 0.0
C561 C 0.78468 0.48874 0.95966 0.0
H562 H 0.67442 0.92461 0.58835 0.0
C563 C 0.68631 0.88252 0.59819 0.0
H564 H 0.72825 0.84876 0.62082 0.0
H565 H 0.77626 0.13182 0.56184 0.0
H566 H 0.76792 0.07736 0.51714 0.0
H567 H 0.74539 0.96488 0.51502 0.0
H568 H 0.73025 0.907 0.55754 0.0
C569 C 0.71639 0.88987 0.61025 0.0
C570 C 0.73328 0.95499 0.61137 0.0
C571 C 0.7437 0.98669 0.58634 0.0
C572 C 0.75864 0.04993 0.58766 0.0
C573 C 0.76648 0.08242 0.56221 0.0
C574 C 0.76155 0.05193 0.53635 0.0
C575 C 0.74872 0.98875 0.53515 0.0
C576 C 0.73988 0.95626 0.55976 0.0
H577 H 0.82719 0.10745 0.5981 0.0
C578 C 0.81464 0.14978 0.60712 0.0
H579 H 0.7702 0.18506 0.62534 0.0
H580 H 0.71591 0.90846 0.66328 0.0
H581 H 0.72659 0.96091 0.70811 0.0
H582 H 0.75541 0.06762 0.71054 0.0
H583 H 0.77347 0.12284 0.66814 0.0
C584 C 0.783 0.14366 0.61585 0.0
C585 C 0.76518 0.07956 0.61411 0.0
C586 C 0.75507 0.04757 0.63912 0.0
C587 C 0.73897 0.98544 0.63774 0.0
C588 C 0.72868 0.9552 0.66307 0.0
C589 C 0.73458 0.98482 0.68897 0.0
C590 C 0.75077 0.04494 0.69034 0.0
C591 C 0.76097 0.07615 0.66581 0.0
loop_
_geom_bond_atom_site_label_1
_geom_bond_atom_site_label_2
_geom_bond_distance
_geom_bond_site_symmetry_2
_ccdc_geom_bond_type
Mg0 O1 2.028 . S
Mg0 O7 1.986 . S
Mg0 O9 2.114 . S
Mg0 O10 2.251 . S
Mg0 O13 2.010 . S
O1 Mg0 2.028 . S
O1 C4 1.250 . S
O2 Mg3 2.028 . S
O2 C4 1.248 . S
Mg3 O2 2.028 . S
Mg3 O8 2.032 . S
Mg3 O10 2.079 . S
C4 O1 1.250 . S
C4 O2 1.248 . S
C5 O6 1.264 . S
C5 O13 1.249 . S
O6 C5 1.264 . S
O7 Mg0 1.986 . S
O7 C11 1.246 . S
O8 Mg3 2.032 . S
O8 C11 1.259 . S
O9 Mg0 2.114 . S
O9 C12 1.252 . S
O10 Mg0 2.251 . S
O10 Mg3 2.079 . S
O10 C12 1.273 . S
C11 O7 1.246 . S
C11 O8 1.259 . S
C12 O9 1.252 . S
C12 O10 1.273 . S
O13 Mg0 2.010 . S
O13 C5 1.249 . S
Mg14 O15 2.028 . S
Mg14 O21 1.986 . S
Mg14 O23 2.114 . S
Mg14 O24 2.251 . S
Mg14 O27 2.010 . S
O15 Mg14 2.028 . S
O15 C18 1.250 . S
O16 Mg17 2.028 . S
O16 C18 1.248 . S
Mg17 O16 2.028 . S
Mg17 O22 2.032 . S
Mg17 O24 2.079 . S
C18 O15 1.250 . S
C18 O16 1.248 . S
C19 O20 1.264 . S
C19 O27 1.249 . S
O20 C19 1.264 . S
O21 Mg14 1.986 . S
O21 C25 1.246 . S
O22 Mg17 2.032 . S
O22 C25 1.259 . S
O23 Mg14 2.114 . S
O23 C26 1.252 . S
O24 Mg14 2.251 . S
O24 Mg17 2.079 . S
O24 C26 1.273 . S
C25 O21 1.246 . S
C25 O22 1.259 . S
C26 O23 1.252 . S
C26 O24 1.273 . S
O27 Mg14 2.010 . S
O27 C19 1.249 . S
Mg28 O29 2.028 . S
Mg28 O35 1.986 . S
Mg28 O37 2.114 . S
Mg28 O38 2.251 . S
Mg28 O41 2.010 . S
O29 Mg28 2.028 . S
O29 C32 1.250 . S
O30 Mg31 2.028 . S
O30 C32 1.248 . S
Mg31 O30 2.028 . S
Mg31 O36 2.032 . S
Mg31 O38 2.079 . S
C32 O29 1.250 . S
C32 O30 1.248 . S
C33 O34 1.264 . S
C33 O41 1.249 . S
O34 C33 1.264 . S
O35 Mg28 1.986 . S
O35 C39 1.246 . S
O36 Mg31 2.032 . S
O36 C39 1.259 . S
O37 Mg28 2.114 . S
O37 C40 1.252 . S
O38 Mg28 2.251 . S
O38 Mg31 2.079 . S
O38 C40 1.273 . S
C39 O35 1.246 . S
C39 O36 1.259 . S
C40 O37 1.252 . S
C40 O38 1.273 . S
O41 Mg28 2.010 . S
O41 C33 1.249 . S
Mg42 O43 2.028 . S
Mg42 O49 1.986 . S
Mg42 O51 2.114 . S
Mg42 O52 2.251 . S
Mg42 O55 2.010 . S
O43 Mg42 2.028 . S
O43 C46 1.250 . S
O44 Mg45 2.028 . S
O44 C46 1.248 . S
Mg45 O44 2.028 . S
Mg45 O50 2.032 . S
Mg45 O52 2.079 . S
C46 O43 1.250 . S
C46 O44 1.248 . S
C47 O48 1.264 . S
C47 O55 1.249 . S
O48 C47 1.264 . S
O49 Mg42 1.986 . S
O49 C53 1.246 . S
O50 Mg45 2.032 . S
O50 C53 1.259 . S
O51 Mg42 2.114 . S
O51 C54 1.252 . S
O52 Mg42 2.251 . S
O52 Mg45 2.079 . S
O52 C54 1.273 . S
C53 O49 1.246 . S
C53 O50 1.259 . S
C54 O51 1.252 . S
C54 O52 1.273 . S
O55 Mg42 2.010 . S
O55 C47 1.249 . S
Mg56 O57 2.028 . S
Mg56 O63 1.986 . S
Mg56 O65 2.114 . S
Mg56 O66 2.251 . S
Mg56 O69 2.010 . S
O57 Mg56 2.028 . S
O57 C60 1.250 . S
O58 Mg59 2.028 . S
O58 C60 1.248 . S
Mg59 O58 2.028 . S
Mg59 O64 2.032 . S
Mg59 O66 2.079 . S
C60 O57 1.250 . S
C60 O58 1.248 . S
C61 O62 1.264 . S
C61 O69 1.249 . S
O62 C61 1.264 . S
O63 Mg56 1.986 . S
O63 C67 1.246 . S
O64 Mg59 2.032 . S
O64 C67 1.259 . S
O65 Mg56 2.114 . S
O65 C68 1.252 . S
O66 Mg56 2.251 . S
O66 Mg59 2.079 . S
O66 C68 1.273 . S
C67 O63 1.246 . S
C67 O64 1.259 . S
C68 O65 1.252 . S
C68 O66 1.273 . S
O69 Mg56 2.010 . S
O69 C61 1.249 . S
Mg70 O71 2.028 . S
Mg70 O77 1.986 . S
Mg70 O79 2.114 . S
Mg70 O80 2.251 . S
Mg70 O83 2.010 . S
O71 Mg70 2.028 . S
O71 C74 1.250 . S
O72 Mg73 2.028 . S
O72 C74 1.248 . S
Mg73 O72 2.028 . S
Mg73 O78 2.032 . S
Mg73 O80 2.079 . S
C74 O71 1.250 . S
C74 O72 1.248 . S
C75 O76 1.264 . S
C75 O83 1.249 . S
O76 C75 1.264 . S
O77 Mg70 1.986 . S
O77 C81 1.246 . S
O78 Mg73 2.032 . S
O78 C81 1.259 . S
O79 Mg70 2.114 . S
O79 C82 1.252 . S
O80 Mg70 2.251 . S
O80 Mg73 2.079 . S
O80 C82 1.273 . S
C81 O77 1.246 . S
C81 O78 1.259 . S
C82 O79 1.252 . S
C82 O80 1.273 . S
O83 Mg70 2.010 . S
O83 C75 1.249 . S
Mg84 O85 2.028 . S
Mg84 O91 1.986 . S
Mg84 O93 2.114 . S
Mg84 O94 2.251 . S
Mg84 O97 2.010 . S
O85 Mg84 2.028 . S
O85 C88 1.250 . S
O86 Mg87 2.028 . S
O86 C88 1.248 . S
Mg87 O86 2.028 . S
Mg87 O92 2.032 . S
Mg87 O94 2.079 . S
C88 O85 1.250 . S
C88 O86 1.248 . S
C89 O90 1.264 . S
C89 O97 1.249 . S
O90 C89 1.264 . S
O91 Mg84 1.986 . S
O91 C95 1.246 . S
O92 Mg87 2.032 . S
O92 C95 1.259 . S
O93 Mg84 2.114 . S
O93 C96 1.252 . S
O94 Mg84 2.251 . S
O94 Mg87 2.079 . S
O94 C96 1.273 . S
C95 O91 1.246 . S
C95 O92 1.259 . S
C96 O93 1.252 . S
C96 O94 1.273 . S
O97 Mg84 2.010 . S
O97 C89 1.249 . S
Mg98 O99 2.028 . S
Mg98 O105 1.986 . S
Mg98 O107 2.114 . S
Mg98 O108 2.251 . S
Mg98 O111 2.010 . S
O99 Mg98 2.028 . S
O99 C102 1.250 . S
O100 Mg101 2.028 . S
O100 C102 1.248 . S
Mg101 O100 2.028 . S
Mg101 O106 2.032 . S
Mg101 O108 2.079 . S
C102 O99 1.250 . S
C102 O100 1.248 . S
C103 O104 1.264 . S
C103 O111 1.249 . S
O104 C103 1.264 . S
O105 Mg98 1.986 . S
O105 C109 1.246 . S
O106 Mg101 2.032 . S
O106 C109 1.259 . S
O107 Mg98 2.114 . S
O107 C110 1.252 . S
O108 Mg98 2.251 . S
O108 Mg101 2.079 . S
O108 C110 1.273 . S
C109 O105 1.246 . S
C109 O106 1.259 . S
C110 O107 1.252 . S
C110 O108 1.273 . S
O111 Mg98 2.010 . S
O111 C103 1.249 . S
H112 C113 0.951 . S
C113 H112 0.951 . S
C113 C119 1.265 . S
H114 C119 0.950 . S
H115 C123 0.949 . S
H116 C124 0.950 . S
H117 C125 0.951 . S
H118 C126 0.951 . S
C119 C113 1.265 . S
C119 H114 0.950 . S
C119 C120 1.478 . S
C120 C119 1.478 . S
C120 C121 1.397 . S
C120 C137 1.394 . S
C121 C120 1.397 . S
C121 C122 1.438 1_545 S
C121 C126 1.429 . S
C122 C121 1.438 1_565 S
C122 C123 1.428 . S
C122 C135 1.394 . S
C123 H115 0.949 . S
C123 C122 1.428 . S
C123 C124 1.345 1_554 S
C124 H116 0.950 . S
C124 C123 1.345 1_556 S
C124 C125 1.424 1_565 S
C125 H117 0.951 . S
C125 C124 1.424 1_545 S
C125 C126 1.347 1_556 S
C126 H118 0.951 . S
C126 C121 1.429 . S
C126 C125 1.347 1_554 S
H127 C128 0.951 . S
C128 H127 0.951 . S
C128 C134 1.265 . S
H129 C134 0.950 . S
H130 C138 0.949 . S
H131 C139 0.950 . S
H132 C140 0.951 . S
H133 C141 0.951 . S
C134 C128 1.265 . S
C134 H129 0.950 . S
C134 C135 1.478 . S
C135 C122 1.394 . S
C135 C134 1.478 . S
C135 C136 1.397 . S
C136 C135 1.397 . S
C136 C137 1.438 1_565 S
C136 C141 1.429 . S
C137 C120 1.394 . S
C137 C136 1.438 1_545 S
C137 C138 1.428 . S
C138 H130 0.949 . S
C138 C137 1.428 . S
C138 C139 1.345 . S
C139 H131 0.950 . S
C139 C138 1.345 . S
C139 C140 1.424 1_545 S
C140 H132 0.951 . S
C140 C139 1.424 1_565 S
C140 C141 1.347 . S
C141 H133 0.951 . S
C141 C136 1.429 . S
C141 C140 1.347 . S
H142 C143 0.951 . S
C143 H142 0.951 . S
C143 C149 1.265 . S
H144 C149 0.950 . S
H145 C153 0.949 . S
H146 C154 0.950 . S
H147 C155 0.951 . S
H148 C156 0.951 . S
C149 C143 1.265 . S
C149 H144 0.950 . S
C149 C150 1.478 . S
C150 C149 1.478 . S
C150 C151 1.397 . S
C150 C167 1.394 . S
C151 C150 1.397 . S
C151 C152 1.438 . S
C151 C156 1.429 . S
C152 C151 1.438 . S
C152 C153 1.428 . S
C152 C165 1.394 . S
C153 H145 0.949 . S
C153 C152 1.428 . S
C153 C154 1.345 . S
C154 H146 0.950 . S
C154 C153 1.345 . S
C154 C155 1.424 . S
C155 H147 0.951 . S
C155 C154 1.424 . S
C155 C156 1.347 . S
C156 H148 0.951 . S
C156 C151 1.429 . S
C156 C155 1.347 . S
H157 C158 0.951 . S
C158 H157 0.951 . S
C158 C164 1.265 . S
H159 C164 0.950 . S
H160 C168 0.949 . S
H161 C169 0.950 . S
H162 C170 0.951 . S
H163 C171 0.951 . S
C164 C158 1.265 . S
C164 H159 0.950 . S
C164 C165 1.478 . S
C165 C152 1.394 . S
C165 C164 1.478 . S
C165 C166 1.397 . S
C166 C165 1.397 . S
C166 C167 1.438 . S
C166 C171 1.429 . S
C167 C150 1.394 . S
C167 C166 1.438 . S
C167 C168 1.428 . S
C168 H160 0.949 . S
C168 C167 1.428 . S
C168 C169 1.345 . S
C169 H161 0.950 . S
C169 C168 1.345 . S
C169 C170 1.424 . S
C170 H162 0.951 . S
C170 C169 1.424 . S
C170 C171 1.347 . S
C171 H163 0.951 . S
C171 C166 1.429 . S
C171 C170 1.347 . S
H172 C173 0.951 . S
C173 H172 0.951 . S
C173 C179 1.265 . S
H174 C179 0.950 . S
H175 C183 0.949 . S
H176 C184 0.950 . S
H177 C185 0.951 . S
H178 C186 0.951 1_565 S
C179 C173 1.265 . S
C179 H174 0.950 . S
C179 C180 1.478 . S
C180 C179 1.478 . S
C180 C181 1.397 1_565 S
C180 C197 1.394 . S
C181 C180 1.397 1_545 S
C181 C182 1.438 . S
C181 C186 1.429 . S
C182 C181 1.438 . S
C182 C183 1.428 . S
C182 C195 1.394 . S
C183 H175 0.949 . S
C183 C182 1.428 . S
C183 C184 1.345 1_556 S
C184 H176 0.950 . S
C184 C183 1.345 1_554 S
C184 C185 1.424 . S
C185 H177 0.951 . S
C185 C184 1.424 . S
C185 C186 1.347 1_554 S
C186 H178 0.951 1_545 S
C186 C181 1.429 . S
C186 C185 1.347 1_556 S
H187 C188 0.951 . S
C188 H187 0.951 . S
C188 C194 1.265 . S
H189 C194 0.950 . S
H190 C198 0.949 . S
H191 C199 0.950 . S
H192 C200 0.951 . S
H193 C201 0.951 1_545 S
C194 C188 1.265 . S
C194 H189 0.950 . S
C194 C195 1.478 . S
C195 C182 1.394 . S
C195 C194 1.478 . S
C195 C196 1.397 1_545 S
C196 C195 1.397 1_565 S
C196 C197 1.438 . S
C196 C201 1.429 . S
C197 C180 1.394 . S
C197 C196 1.438 . S
C197 C198 1.428 . S
C198 H190 0.949 . S
C198 C197 1.428 . S
C198 C199 1.345 . S
C199 H191 0.950 . S
C199 C198 1.345 . S
C199 C200 1.424 . S
C200 H192 0.951 . S
C200 C199 1.424 . S
C200 C201 1.347 . S
C201 H193 0.951 1_565 S
C201 C196 1.429 . S
C201 C200 1.347 . S
H202 C203 0.951 . S
C203 H202 0.951 . S
C203 C209 1.265 . S
H204 C209 0.950 . S
H205 C213 0.949 . S
H206 C214 0.950 . S
H207 C215 0.951 . S
H208 C216 0.951 . S
C209 C203 1.265 . S
C209 H204 0.950 . S
C209 C210 1.478 . S
C210 C209 1.478 . S
C210 C211 1.397 . S
C210 C227 1.394 . S
C211 C210 1.397 . S
C211 C212 1.438 . S
C211 C216 1.429 . S
C212 C211 1.438 . S
C212 C213 1.428 . S
C212 C225 1.394 . S
C213 H205 0.949 . S
C213 C212 1.428 . S
C213 C214 1.345 . S
C214 H206 0.950 . S
C214 C213 1.345 . S
C214 C215 1.424 . S
C215 H207 0.951 . S
C215 C214 1.424 . S
C215 C216 1.347 . S
C216 H208 0.951 . S
C216 C211 1.429 . S
C216 C215 1.347 . S
H217 C218 0.951 . S
C218 H217 0.951 . S
C218 C224 1.265 . S
H219 C224 0.950 . S
H220 C228 0.949 . S
H221 C229 0.950 . S
H222 C230 0.951 . S
H223 C231 0.951 . S
C224 C218 1.265 . S
C224 H219 0.950 . S
C224 C225 1.478 . S
C225 C212 1.394 . S
C225 C224 1.478 . S
C225 C226 1.397 . S
C226 C225 1.397 . S
C226 C227 1.438 . S
C226 C231 1.429 . S
C227 C210 1.394 . S
C227 C226 1.438 . S
C227 C228 1.428 . S
C228 H220 0.949 . S
C228 C227 1.428 . S
C228 C229 1.345 . S
C229 H221 0.950 . S
C229 C228 1.345 . S
C229 C230 1.424 . S
C230 H222 0.951 . S
C230 C229 1.424 . S
C230 C231 1.347 . S
C231 H223 0.951 . S
C231 C226 1.429 . S
C231 C230 1.347 . S
H232 C233 0.951 . S
C233 H232 0.951 . S
C233 C239 1.265 . S
H234 C239 0.950 . S
H235 C243 0.949 . S
H236 C244 0.950 . S
H237 C245 0.951 . S
H238 C246 0.951 . S
C239 C233 1.265 . S
C239 H234 0.950 . S
C239 C240 1.478 . S
C240 C239 1.478 . S
C240 C241 1.397 . S
C240 C257 1.394 . S
C241 C240 1.397 . S
C241 C242 1.438 . S
C241 C246 1.429 . S
C242 C241 1.438 . S
C242 C243 1.428 . S
C242 C255 1.394 . S
C243 H235 0.949 . S
C243 C242 1.428 . S
C243 C244 1.345 . S
C244 H236 0.950 . S
C244 C243 1.345 . S
C244 C245 1.424 . S
C245 H237 0.951 . S
C245 C244 1.424 . S
C245 C246 1.347 . S
C246 H238 0.951 . S
C246 C241 1.429 . S
C246 C245 1.347 . S
H247 C248 0.951 . S
C248 H247 0.951 . S
C248 C254 1.265 . S
H249 C254 0.950 . S
H250 C258 0.949 . S
H251 C259 0.950 . S
H252 C260 0.951 . S
H253 C261 0.951 . S
C254 C248 1.265 . S
C254 H249 0.950 . S
C254 C255 1.478 . S
C255 C242 1.394 . S
C255 C254 1.478 . S
C255 C256 1.397 . S
C256 C255 1.397 . S
C256 C257 1.438 . S
C256 C261 1.429 . S
C257 C240 1.394 . S
C257 C256 1.438 . S
C257 C258 1.428 . S
C258 H250 0.949 . S
C258 C257 1.428 . S
C258 C259 1.345 . S
C259 H251 0.950 . S
C259 C258 1.345 . S
C259 C260 1.424 . S
C260 H252 0.951 . S
C260 C259 1.424 . S
C260 C261 1.347 . S
C261 H253 0.951 . S
C261 C256 1.429 . S
C261 C260 1.347 . S
H262 C263 0.951 . S
C263 H262 0.951 . S
C263 C269 1.265 . S
H264 C269 0.950 . S
H265 C273 0.949 . S
H266 C274 0.950 . S
H267 C275 0.951 . S
H268 C276 0.951 . S
C269 C263 1.265 . S
C269 H264 0.950 . S
C269 C270 1.478 . S
C270 C269 1.478 . S
C270 C271 1.397 . S
C270 C287 1.394 . S
C271 C270 1.397 . S
C271 C272 1.438 . S
C271 C276 1.429 . S
C272 C271 1.438 . S
C272 C273 1.428 . S
C272 C285 1.394 . S
C273 H265 0.949 . S
C273 C272 1.428 . S
C273 C274 1.345 . S
C274 H266 0.950 . S
C274 C273 1.345 . S
C274 C275 1.424 . S
C275 H267 0.951 . S
C275 C274 1.424 . S
C275 C276 1.347 . S
C276 H268 0.951 . S
C276 C271 1.429 . S
C276 C275 1.347 . S
H277 C278 0.951 . S
C278 H277 0.951 . S
C278 C284 1.265 . S
H279 C284 0.950 . S
H280 C288 0.949 . S
H281 C289 0.950 . S
H282 C290 0.951 . S
H283 C291 0.951 . S
C284 C278 1.265 . S
C284 H279 0.950 . S
C284 C285 1.478 . S
C285 C272 1.394 . S
C285 C284 1.478 . S
C285 C286 1.397 . S
C286 C285 1.397 . S
C286 C287 1.438 . S
C286 C291 1.429 . S
C287 C270 1.394 . S
C287 C286 1.438 . S
C287 C288 1.428 . S
C288 H280 0.949 . S
C288 C287 1.428 . S
C288 C289 1.345 . S
C289 H281 0.950 . S
C289 C288 1.345 . S
C289 C290 1.424 . S
C290 H282 0.951 . S
C290 C289 1.424 . S
C290 C291 1.347 . S
C291 H283 0.951 . S
C291 C286 1.429 . S
C291 C290 1.347 . S
H292 C293 0.951 . S
C293 H292 0.951 . S
C293 C299 1.265 . S
H294 C299 0.950 . S
H295 C303 0.949 . S
H296 C304 0.950 . S
H297 C305 0.951 . S
H298 C306 0.951 . S
C299 C293 1.265 . S
C299 H294 0.950 . S
C299 C300 1.478 . S
C300 C299 1.478 . S
C300 C301 1.397 . S
C300 C317 1.394 . S
C301 C300 1.397 . S
C301 C302 1.438 . S
C301 C306 1.429 . S
C302 C301 1.438 . S
C302 C303 1.428 . S
C302 C315 1.394 . S
C303 H295 0.949 . S
C303 C302 1.428 . S
C303 C304 1.345 . S
C304 H296 0.950 . S
C304 C303 1.345 . S
C304 C305 1.424 . S
C305 H297 0.951 . S
C305 C304 1.424 . S
C305 C306 1.347 . S
C306 H298 0.951 . S
C306 C301 1.429 . S
C306 C305 1.347 . S
H307 C308 0.951 . S
C308 H307 0.951 . S
C308 C314 1.265 . S
H309 C314 0.950 . S
H310 C318 0.949 . S
H311 C319 0.950 . S
H312 C320 0.951 . S
H313 C321 0.951 . S
C314 C308 1.265 . S
C314 H309 0.950 . S
C314 C315 1.478 . S
C315 C302 1.394 . S
C315 C314 1.478 . S
C315 C316 1.397 . S
C316 C315 1.397 . S
C316 C317 1.438 . S
C316 C321 1.429 . S
C317 C300 1.394 . S
C317 C316 1.438 . S
C317 C318 1.428 . S
C318 H310 0.949 . S
C318 C317 1.428 . S
C318 C319 1.345 . S
C319 H311 0.950 . S
C319 C318 1.345 . S
C319 C320 1.424 . S
C320 H312 0.951 . S
C320 C319 1.424 . S
C320 C321 1.347 . S
C321 H313 0.951 . S
C321 C316 1.429 . S
C321 C320 1.347 . S
H322 C323 0.951 . S
C323 H322 0.951 . S
C323 C329 1.265 . S
H324 C329 0.950 . S
H325 C333 0.949 . S
H326 C334 0.950 . S
H327 C335 0.951 . S
H328 C336 0.951 . S
C329 C323 1.265 . S
C329 H324 0.950 . S
C329 C330 1.478 . S
C330 C329 1.478 . S
C330 C331 1.397 . S
C330 C347 1.394 . S
C331 C330 1.397 . S
C331 C332 1.438 . S
C331 C336 1.429 . S
C332 C331 1.438 . S
C332 C333 1.428 . S
C332 C345 1.394 . S
C333 H325 0.949 . S
C333 C332 1.428 . S
C333 C334 1.345 . S
C334 H326 0.950 . S
C334 C333 1.345 . S
C334 C335 1.424 . S
C335 H327 0.951 . S
C335 C334 1.424 . S
C335 C336 1.347 . S
C336 H328 0.951 . S
C336 C331 1.429 . S
C336 C335 1.347 . S
H337 C338 0.951 . S
C338 H337 0.951 . S
C338 C344 1.265 . S
H339 C344 0.950 . S
H340 C348 0.949 . S
H341 C349 0.950 . S
H342 C350 0.951 . S
H343 C351 0.951 . S
C344 C338 1.265 . S
C344 H339 0.950 . S
C344 C345 1.478 . S
C345 C332 1.394 . S
C345 C344 1.478 . S
C345 C346 1.397 . S
C346 C345 1.397 . S
C346 C347 1.438 . S
C346 C351 1.429 . S
C347 C330 1.394 . S
C347 C346 1.438 . S
C347 C348 1.428 . S
C348 H340 0.949 . S
C348 C347 1.428 . S
C348 C349 1.345 . S
C349 H341 0.950 . S
C349 C348 1.345 . S
C349 C350 1.424 . S
C350 H342 0.951 . S
C350 C349 1.424 . S
C350 C351 1.347 . S
C351 H343 0.951 . S
C351 C346 1.429 . S
C351 C350 1.347 . S
H352 C353 0.951 . S
C353 H352 0.951 . S
C353 C359 1.265 . S
H354 C359 0.950 . S
H355 C363 0.949 . S
H356 C364 0.950 . S
H357 C365 0.951 . S
H358 C366 0.951 . S
C359 C353 1.265 . S
C359 H354 0.950 . S
C359 C360 1.478 . S
C360 C359 1.478 . S
C360 C361 1.397 1_554 S
C360 C377 1.394 . S
C361 C360 1.397 1_556 S
C361 C362 1.438 . S
C361 C366 1.429 . S
C362 C361 1.438 . S
C362 C363 1.428 . S
C362 C375 1.394 . S
C363 H355 0.949 . S
C363 C362 1.428 . S
C363 C364 1.345 . S
C364 H356 0.950 . S
C364 C363 1.345 . S
C364 C365 1.424 . S
C365 H357 0.951 . S
C365 C364 1.424 . S
C365 C366 1.347 . S
C366 H358 0.951 . S
C366 C361 1.429 . S
C366 C365 1.347 . S
H367 C368 0.951 . S
C368 H367 0.951 . S
C368 C374 1.265 . S
H369 C374 0.950 . S
H370 C378 0.949 . S
H371 C379 0.950 . S
H372 C380 0.951 . S
H373 C381 0.951 . S
C374 C368 1.265 . S
C374 H369 0.950 . S
C374 C375 1.478 . S
C375 C362 1.394 . S
C375 C374 1.478 . S
C375 C376 1.397 1_556 S
C376 C375 1.397 1_554 S
C376 C377 1.438 . S
C376 C381 1.429 . S
C377 C360 1.394 . S
C377 C376 1.438 . S
C377 C378 1.428 . S
C378 H370 0.949 . S
C378 C377 1.428 . S
C378 C379 1.345 . S
C379 H371 0.950 . S
C379 C378 1.345 . S
C379 C380 1.424 . S
C380 H372 0.951 . S
C380 C379 1.424 . S
C380 C381 1.347 . S
C381 H373 0.951 . S
C381 C376 1.429 . S
C381 C380 1.347 . S
H382 C383 0.951 . S
C383 H382 0.951 . S
C383 C389 1.265 . S
H384 C389 0.950 . S
H385 C393 0.949 . S
H386 C394 0.950 . S
H387 C395 0.951 . S
H388 C396 0.951 . S
C389 C383 1.265 . S
C389 H384 0.950 . S
C389 C390 1.478 . S
C390 C389 1.478 . S
C390 C391 1.397 . S
C390 C407 1.394 1_554 S
C391 C390 1.397 . S
C391 C392 1.438 1_455 S
C391 C396 1.429 . S
C392 C391 1.438 1_655 S
C392 C393 1.428 . S
C392 C405 1.394 1_554 S
C393 H385 0.949 . S
C393 C392 1.428 . S
C393 C394 1.345 1_655 S
C394 H386 0.950 . S
C394 C393 1.345 1_455 S
C394 C395 1.424 . S
C395 H387 0.951 . S
C395 C394 1.424 . S
C395 C396 1.347 . S
C396 H388 0.951 . S
C396 C391 1.429 . S
C396 C395 1.347 . S
H397 C398 0.951 . S
C398 H397 0.951 . S
C398 C404 1.265 . S
H399 C404 0.950 . S
H400 C408 0.949 . S
H401 C409 0.950 . S
H402 C410 0.951 . S
H403 C411 0.951 . S
C404 C398 1.265 . S
C404 H399 0.950 . S
C404 C405 1.478 . S
C405 C392 1.394 1_556 S
C405 C404 1.478 . S
C405 C406 1.397 . S
C406 C405 1.397 . S
C406 C407 1.438 1_655 S
C406 C411 1.429 . S
C407 C390 1.394 1_556 S
C407 C406 1.438 1_455 S
C407 C408 1.428 . S
C408 H400 0.949 . S
C408 C407 1.428 . S
C408 C409 1.345 1_455 S
C409 H401 0.950 . S
C409 C408 1.345 1_655 S
C409 C410 1.424 . S
C410 H402 0.951 . S
C410 C409 1.424 . S
C410 C411 1.347 . S
C411 H403 0.951 . S
C411 C406 1.429 . S
C411 C410 1.347 . S
H412 C413 0.951 . S
C413 H412 0.951 . S
C413 C419 1.265 . S
H414 C419 0.950 . S
H415 C423 0.949 . S
H416 C424 0.950 . S
H417 C425 0.951 . S
H418 C426 0.951 . S
C419 C413 1.265 . S
C419 H414 0.950 . S
C419 C420 1.478 . S
C420 C419 1.478 . S
C420 C421 1.397 . S
C420 C437 1.394 . S
C421 C420 1.397 . S
C421 C422 1.438 1_565 S
C421 C426 1.429 . S
C422 C421 1.438 1_545 S
C422 C423 1.428 . S
C422 C435 1.394 . S
C423 H415 0.949 . S
C423 C422 1.428 . S
C423 C424 1.345 1_545 S
C424 H416 0.950 . S
C424 C423 1.345 1_565 S
C424 C425 1.424 . S
C425 H417 0.951 . S
C425 C424 1.424 . S
C425 C426 1.347 . S
C426 H418 0.951 . S
C426 C421 1.429 . S
C426 C425 1.347 . S
H427 C428 0.951 . S
C428 H427 0.951 . S
C428 C434 1.265 . S
H429 C434 0.950 . S
H430 C438 0.949 . S
H431 C439 0.950 . S
H432 C440 0.951 . S
H433 C441 0.951 . S
C434 C428 1.265 . S
C434 H429 0.950 . S
C434 C435 1.478 . S
C435 C422 1.394 . S
C435 C434 1.478 . S
C435 C436 1.397 . S
C436 C435 1.397 . S
C436 C437 1.438 1_545 S
C436 C441 1.429 . S
C437 C420 1.394 . S
C437 C436 1.438 1_565 S
C437 C438 1.428 . S
C438 H430 0.949 . S
C438 C437 1.428 . S
C438 C439 1.345 1_565 S
C439 H431 0.950 . S
C439 C438 1.345 1_545 S
C439 C440 1.424 . S
C440 H432 0.951 . S
C440 C439 1.424 . S
C440 C441 1.347 . S
C441 H433 0.951 . S
C441 C436 1.429 . S
C441 C440 1.347 . S
H442 C443 0.951 . S
C443 H442 0.951 . S
C443 C449 1.265 . S
H444 C449 0.950 . S
H445 C453 0.949 . S
H446 C454 0.950 . S
H447 C455 0.951 . S
H448 C456 0.951 . S
C449 C443 1.265 . S
C449 H444 0.950 . S
C449 C450 1.478 . S
C450 C449 1.478 . S
C450 C451 1.397 . S
C450 C467 1.394 . S
C451 C450 1.397 . S
C451 C452 1.438 1_645 S
C451 C456 1.429 . S
C452 C451 1.438 1_465 S
C452 C453 1.428 . S
C452 C465 1.394 . S
C453 H445 0.949 . S
C453 C452 1.428 . S
C453 C454 1.345 1_455 S
C454 H446 0.950 . S
C454 C453 1.345 1_655 S
C454 C455 1.424 1_565 S
C455 H447 0.951 . S
C455 C454 1.424 1_545 S
C455 C456 1.347 . S
C456 H448 0.951 . S
C456 C451 1.429 . S
C456 C455 1.347 . S
H457 C458 0.951 . S
C458 H457 0.951 . S
C458 C464 1.265 . S
H459 C464 0.950 . S
H460 C468 0.949 . S
H461 C469 0.950 . S
H462 C470 0.951 . S
H463 C471 0.951 . S
C464 C458 1.265 . S
C464 H459 0.950 . S
C464 C465 1.478 . S
C465 C452 1.394 . S
C465 C464 1.478 . S
C465 C466 1.397 . S
C466 C465 1.397 . S
C466 C467 1.438 1_465 S
C466 C471 1.429 . S
C467 C450 1.394 . S
C467 C466 1.438 1_645 S
C467 C468 1.428 . S
C468 H460 0.949 . S
C468 C467 1.428 . S
C468 C469 1.345 1_655 S
C469 H461 0.950 . S
C469 C468 1.345 1_455 S
C469 C470 1.424 1_545 S
C470 H462 0.951 . S
C470 C469 1.424 1_565 S
C470 C471 1.347 . S
C471 H463 0.951 . S
C471 C466 1.429 . S
C471 C470 1.347 . S
H472 C473 0.951 . S
C473 H472 0.951 . S
C473 C479 1.265 . S
H474 C479 0.950 . S
H475 C483 0.949 . S
H476 C484 0.950 1_556 S
H477 C485 0.951 1_556 S
H478 C486 0.951 . S
C479 C473 1.265 . S
C479 H474 0.950 . S
C479 C480 1.478 . S
C480 C479 1.478 . S
C480 C481 1.397 . S
C480 C497 1.394 . S
C481 C480 1.397 . S
C481 C482 1.438 . S
C481 C486 1.429 . S
C482 C481 1.438 . S
C482 C483 1.428 . S
C482 C495 1.394 . S
C483 H475 0.949 . S
C483 C482 1.428 . S
C483 C484 1.345 . S
C484 H476 0.950 1_554 S
C484 C483 1.345 . S
C484 C485 1.424 . S
C485 H477 0.951 1_554 S
C485 C484 1.424 . S
C485 C486 1.347 . S
C486 H478 0.951 . S
C486 C481 1.429 . S
C486 C485 1.347 . S
H487 C488 0.951 . S
C488 H487 0.951 . S
C488 C494 1.265 . S
H489 C494 0.950 . S
H490 C498 0.949 . S
H491 C499 0.950 . S
H492 C500 0.951 . S
H493 C501 0.951 . S
C494 C488 1.265 . S
C494 H489 0.950 . S
C494 C495 1.478 . S
C495 C482 1.394 . S
C495 C494 1.478 . S
C495 C496 1.397 . S
C496 C495 1.397 . S
C496 C497 1.438 . S
C496 C501 1.429 . S
C497 C480 1.394 . S
C497 C496 1.438 . S
C497 C498 1.428 . S
C498 H490 0.949 . S
C498 C497 1.428 . S
C498 C499 1.345 . S
C499 H491 0.950 . S
C499 C498 1.345 . S
C499 C500 1.424 . S
C500 H492 0.951 . S
C500 C499 1.424 . S
C500 C501 1.347 . S
C501 H493 0.951 . S
C501 C496 1.429 . S
C501 C500 1.347 . S
H502 C503 0.951 . S
C503 H502 0.951 . S
C503 C509 1.265 . S
H504 C509 0.950 . S
H505 C513 0.949 . S
H506 C514 0.950 1_565 S
H507 C515 0.951 . S
H508 C516 0.951 . S
C509 C503 1.265 . S
C509 H504 0.950 . S
C509 C510 1.478 . S
C510 C509 1.478 . S
C510 C511 1.397 . S
C510 C527 1.394 . S
C511 C510 1.397 . S
C511 C512 1.438 1_545 S
C511 C516 1.429 . S
C512 C511 1.438 1_565 S
C512 C513 1.428 . S
C512 C525 1.394 . S
C513 H505 0.949 . S
C513 C512 1.428 . S
C513 C514 1.345 1_565 S
C514 H506 0.950 1_545 S
C514 C513 1.345 1_545 S
C514 C515 1.424 . S
C515 H507 0.951 . S
C515 C514 1.424 . S
C515 C516 1.347 . S
C516 H508 0.951 . S
C516 C511 1.429 . S
C516 C515 1.347 . S
H517 C518 0.951 . S
C518 H517 0.951 . S
C518 C524 1.265 . S
H519 C524 0.950 . S
H520 C528 0.949 . S
H521 C529 0.950 1_545 S
H522 C530 0.951 . S
H523 C531 0.951 . S
C524 C518 1.265 . S
C524 H519 0.950 . S
C524 C525 1.478 . S
C525 C512 1.394 . S
C525 C524 1.478 . S
C525 C526 1.397 . S
C526 C525 1.397 . S
C526 C527 1.438 1_565 S
C526 C531 1.429 . S
C527 C510 1.394 . S
C527 C526 1.438 1_545 S
C527 C528 1.428 . S
C528 H520 0.949 . S
C528 C527 1.428 . S
C528 C529 1.345 1_545 S
C529 H521 0.950 1_565 S
C529 C528 1.345 1_565 S
C529 C530 1.424 . S
C530 H522 0.951 . S
C530 C529 1.424 . S
C530 C531 1.347 . S
C531 H523 0.951 . S
C531 C526 1.429 . S
C531 C530 1.347 . S
H532 C533 0.951 . S
C533 H532 0.951 . S
C533 C539 1.265 . S
H534 C539 0.950 . S
H535 C543 0.949 . S
H536 C544 0.950 . S
H537 C545 0.951 . S
H538 C546 0.951 . S
C539 C533 1.265 . S
C539 H534 0.950 . S
C539 C540 1.478 . S
C540 C539 1.478 . S
C540 C541 1.397 . S
C540 C557 1.394 . S
C541 C540 1.397 . S
C541 C542 1.438 . S
C541 C546 1.429 . S
C542 C541 1.438 . S
C542 C543 1.428 . S
C542 C555 1.394 . S
C543 H535 0.949 . S
C543 C542 1.428 . S
C543 C544 1.345 . S
C544 H536 0.950 . S
C544 C543 1.345 . S
C544 C545 1.424 . S
C545 H537 0.951 . S
C545 C544 1.424 . S
C545 C546 1.347 . S
C546 H538 0.951 . S
C546 C541 1.429 . S
C546 C545 1.347 . S
H547 C548 0.951 . S
C548 H547 0.951 . S
C548 C554 1.265 . S
H549 C554 0.950 . S
H550 C558 0.949 . S
H551 C559 0.950 1_554 S
H552 C560 0.951 1_554 S
H553 C561 0.951 . S
C554 C548 1.265 . S
C554 H549 0.950 . S
C554 C555 1.478 . S
C555 C542 1.394 . S
C555 C554 1.478 . S
C555 C556 1.397 . S
C556 C555 1.397 . S
C556 C557 1.438 . S
C556 C561 1.429 . S
C557 C540 1.394 . S
C557 C556 1.438 . S
C557 C558 1.428 . S
C558 H550 0.949 . S
C558 C557 1.428 . S
C558 C559 1.345 . S
C559 H551 0.950 1_556 S
C559 C558 1.345 . S
C559 C560 1.424 . S
C560 H552 0.951 1_556 S
C560 C559 1.424 . S
C560 C561 1.347 . S
C561 H553 0.951 . S
C561 C556 1.429 . S
C561 C560 1.347 . S
H562 C563 0.951 . S
C563 H562 0.951 . S
C563 C569 1.265 . S
H564 C569 0.950 . S
H565 C573 0.949 . S
H566 C574 0.950 . S
H567 C575 0.951 . S
H568 C576 0.951 . S
C569 C563 1.265 . S
C569 H564 0.950 . S
C569 C570 1.478 . S
C570 C569 1.478 . S
C570 C571 1.397 . S
C570 C587 1.394 . S
C571 C570 1.397 . S
C571 C572 1.438 1_565 S
C571 C576 1.429 . S
C572 C571 1.438 1_545 S
C572 C573 1.428 . S
C572 C585 1.394 . S
C573 H565 0.949 . S
C573 C572 1.428 . S
C573 C574 1.345 1_545 S
C574 H566 0.950 . S
C574 C573 1.345 1_565 S
C574 C575 1.424 . S
C575 H567 0.951 . S
C575 C574 1.424 . S
C575 C576 1.347 . S
C576 H568 0.951 . S
C576 C571 1.429 . S
C576 C575 1.347 . S
H577 C578 0.951 . S
C578 H577 0.951 . S
C578 C584 1.265 . S
H579 C584 0.950 . S
H580 C588 0.949 . S
H581 C589 0.950 . S
H582 C590 0.951 . S
H583 C591 0.951 . S
C584 C578 1.265 . S
C584 H579 0.950 . S
C584 C585 1.478 . S
C585 C572 1.394 . S
C585 C584 1.478 . S
C585 C586 1.397 . S
C586 C585 1.397 . S
C586 C587 1.438 1_545 S
C586 C591 1.429 . S
C587 C570 1.394 . S
C587 C586 1.438 1_565 S
C587 C588 1.428 . S
C588 H580 0.949 . S
C588 C587 1.428 . S
C588 C589 1.345 1_565 S
C589 H581 0.950 . S
C589 C588 1.345 1_545 S
C589 C590 1.424 . S
C590 H582 0.951 . S
C590 C589 1.424 . S
C590 C591 1.347 . S
C591 H583 0.951 . S
C591 C586 1.429 . S
C591 C590 1.347 . S
C113 C12 1.264 . S
C128 C26 1.282 . S
C143 C54 1.273 . S
C158 C40 1.276 . S
C173 C68 1.188 . S
C188 C82 1.190 . S
C203 C96 1.187 . S
C218 C110 1.190 . S
C233 C11 1.484 . S
C248 C39 1.385 . S
C263 C53 1.484 . S
C278 C25 1.387 . S
C293 C67 1.386 . S
C308 C95 1.485 . S
C323 C109 1.484 . S
C338 C81 1.385 . S
C353 C5 1.492 . S
C368 C61 1.492 . S
C383 C19 1.378 . S
C398 C75 1.378 . S
C413 C89 1.380 . S
C428 C33 1.380 . S
C443 C103 1.378 . S
C458 C47 1.378 . S
C473 C18 0.758 . S
C488 C4 0.761 . S
C503 C32 0.882 . S
C518 C46 0.878 . S
C533 C60 0.767 . S
C548 C74 0.753 . S
C563 C88 0.881 . S
C578 C102 0.878 . S
