# Generated by pormake.
# Topology une, (4)-cn, num edge types: 1
# Building blocks:
#     Node 0, Type 0, BuildingBlock: QUQFOY_clean_sbu_1, # of connection points: 4
#     Node 1, Type 0, BuildingBlock: QUQFOY_clean_sbu_1, # of connection points: 4
#     Node 2, Type 0, BuildingBlock: QUQFOY_clean_sbu_1, # of connection points: 4
#     Node 3, Type 0, BuildingBlock: QUQFOY_clean_sbu_1, # of connection points: 4
#     Node 4, Type 0, BuildingBlock: QUQFOY_clean_sbu_1, # of connection points: 4
#     Node 5, Type 0, BuildingBlock: QUQFOY_clean_sbu_1, # of connection points: 4
#     Node 6, Type 0, BuildingBlock: QUQFOY_clean_sbu_1, # of connection points: 4
#     Node 7, Type 0, BuildingBlock: QUQFOY_clean_sbu_1, # of connection points: 4
#     Node 8, Type 0, BuildingBlock: QUQFOY_clean_sbu_1, # of connection points: 4
#     Node 9, Type 0, BuildingBlock: QUQFOY_clean_sbu_1, # of connection points: 4
#     Node 10, Type 0, BuildingBlock: QUQFOY_clean_sbu_1, # of connection points: 4
#     Node 11, Type 0, BuildingBlock: QUQFOY_clean_sbu_1, # of connection points: 4
#     Node 12, Type 0, BuildingBlock: QUQFOY_clean_sbu_1, # of connection points: 4
#     Node 13, Type 0, BuildingBlock: QUQFOY_clean_sbu_1, # of connection points: 4
#     Node 14, Type 0, BuildingBlock: QUQFOY_clean_sbu_1, # of connection points: 4
#     Node 15, Type 0, BuildingBlock: QUQFOY_clean_sbu_1, # of connection points: 4
#     Node 16, Type 0, BuildingBlock: QUQFOY_clean_sbu_1, # of connection points: 4
#     Node 17, Type 0, BuildingBlock: QUQFOY_clean_sbu_1, # of connection points: 4
#     Edge 18, Type (0, 0), BuildingBlock: XIVTED_clean_linker_0, # of connection points: 2
#     Edge 19, Type (0, 0), BuildingBlock: XIVTED_clean_linker_0, # of connection points: 2
#     Edge 20, Type (0, 0), BuildingBlock: XIVTED_clean_linker_0, # of connection points: 2
#     Edge 21, Type (0, 0), BuildingBlock: XIVTED_clean_linker_0, # of connection points: 2
#     Edge 22, Type (0, 0), BuildingBlock: XIVTED_clean_linker_0, # of connection points: 2
#     Edge 23, Type (0, 0), BuildingBlock: XIVTED_clean_linker_0, # of connection points: 2
#     Edge 24, Type (0, 0), BuildingBlock: XIVTED_clean_linker_0, # of connection points: 2
#     Edge 25, Type (0, 0), BuildingBlock: XIVTED_clean_linker_0, # of connection points: 2
#     Edge 26, Type (0, 0), BuildingBlock: XIVTED_clean_linker_0, # of connection points: 2
#     Edge 27, Type (0, 0), BuildingBlock: XIVTED_clean_linker_0, # of connection points: 2
#     Edge 28, Type (0, 0), BuildingBlock: XIVTED_clean_linker_0, # of connection points: 2
#     Edge 29, Type (0, 0), BuildingBlock: XIVTED_clean_linker_0, # of connection points: 2
#     Edge 30, Type (0, 0), BuildingBlock: XIVTED_clean_linker_0, # of connection points: 2
#     Edge 31, Type (0, 0), BuildingBlock: XIVTED_clean_linker_0, # of connection points: 2
#     Edge 32, Type (0, 0), BuildingBlock: XIVTED_clean_linker_0, # of connection points: 2
#     Edge 33, Type (0, 0), BuildingBlock: XIVTED_clean_linker_0, # of connection points: 2
#     Edge 34, Type (0, 0), BuildingBlock: XIVTED_clean_linker_0, # of connection points: 2
#     Edge 35, Type (0, 0), BuildingBlock: XIVTED_clean_linker_0, # of connection points: 2
#     Edge 36, Type (0, 0), BuildingBlock: XIVTED_clean_linker_0, # of connection points: 2
#     Edge 37, Type (0, 0), BuildingBlock: XIVTED_clean_linker_0, # of connection points: 2
#     Edge 38, Type (0, 0), BuildingBlock: XIVTED_clean_linker_0, # of connection points: 2
#     Edge 39, Type (0, 0), BuildingBlock: XIVTED_clean_linker_0, # of connection points: 2
#     Edge 40, Type (0, 0), BuildingBlock: XIVTED_clean_linker_0, # of connection points: 2
#     Edge 41, Type (0, 0), BuildingBlock: XIVTED_clean_linker_0, # of connection points: 2
#     Edge 42, Type (0, 0), BuildingBlock: XIVTED_clean_linker_0, # of connection points: 2
#     Edge 43, Type (0, 0), BuildingBlock: XIVTED_clean_linker_0, # of connection points: 2
#     Edge 44, Type (0, 0), BuildingBlock: XIVTED_clean_linker_0, # of connection points: 2
#     Edge 45, Type (0, 0), BuildingBlock: XIVTED_clean_linker_0, # of connection points: 2
#     Edge 46, Type (0, 0), BuildingBlock: XIVTED_clean_linker_0, # of connection points: 2
#     Edge 47, Type (0, 0), BuildingBlock: XIVTED_clean_linker_0, # of connection points: 2
#     Edge 48, Type (0, 0), BuildingBlock: XIVTED_clean_linker_0, # of connection points: 2
#     Edge 49, Type (0, 0), BuildingBlock: XIVTED_clean_linker_0, # of connection points: 2
#     Edge 50, Type (0, 0), BuildingBlock: XIVTED_clean_linker_0, # of connection points: 2
#     Edge 51, Type (0, 0), BuildingBlock: XIVTED_clean_linker_0, # of connection points: 2
#     Edge 52, Type (0, 0), BuildingBlock: XIVTED_clean_linker_0, # of connection points: 2
#     Edge 53, Type (0, 0), BuildingBlock: XIVTED_clean_linker_0, # of connection points: 2
# Relax obj value: 0.132
# Max RMSD: 0.153
# Mean RMSD: 0.148
data_MOF--net-une--node1-QUQFOY_clean_sbu_1--edge1-XIVTED_clean_linker_0
_symmetry_space_group_name_H-M    P1
_symmetry_Int_Tables_number       1
_symmetry_cell_setting            triclinic
loop_
_symmetry_equiv_pos_as_xyz
'x, y, z'
_cell_length_a     40.646901
_cell_length_b     40.555009
_cell_length_c     60.526892
_cell_angle_alpha  90.011924
_cell_angle_beta   90.041083
_cell_angle_gamma 119.86923
loop_
_atom_site_label
_atom_site_type_symbol
_atom_site_fract_x
_atom_site_fract_y
_atom_site_fract_z
_atom_type_partial_charge
O0 O 0.3322 0.08085 0.0388 0.0
Cd1 Cd 0.31302 0.04227 0.06428 0.0
Cd2 Cd 0.33994 0.006 0.03149 0.0
O3 O 0.34256 0.04933 0.01241 0.0
O4 O 0.29565 0.06773 0.08578 0.0
O5 O 0.34269 0.05698 0.09295 0.0
C6 C 0.32184 0.07109 0.09908 0.0
C7 C 0.38634 0.98987 0.02313 0.0
C8 C 0.34075 0.07809 0.01897 0.0
C9 C 0.26018 0.96111 0.04959 0.0
O10 O 0.28767 0.96151 0.03943 0.0
O11 O 0.26403 0.99058 0.05936 0.0
O12 O 0.35812 0.98122 0.01016 0.0
O13 O 0.38822 0.00758 0.04123 0.0
O14 O 0.90266 0.22761 0.02877 0.0
Cd15 Cd 0.9262 0.25404 0.05826 0.0
Cd16 Cd 0.94156 0.31995 0.02917 0.0
O17 O 0.90241 0.27483 0.01059 0.0
O18 O 0.90713 0.2113 0.07987 0.0
O19 O 0.89332 0.25745 0.08205 0.0
C20 C 0.88943 0.226 0.08977 0.0
C21 C 0.94948 0.37871 0.01731 0.0
C22 C 0.89344 0.24013 0.01203 0.0
C23 C 0.00622 0.30793 0.04795 0.0
O24 O -0.00671 0.32409 0.03551 0.0
O25 O 0.98418 0.28014 0.06011 0.0
O26 O 0.95948 0.35904 0.0054 0.0
O27 O 0.93417 0.36489 0.03621 0.0
O28 O 0.75394 0.65894 0.04563 0.0
Cd29 Cd 0.74758 0.68275 0.07417 0.0
Cd30 Cd 0.67644 0.66088 0.05272 0.0
O31 O 0.70956 0.66241 0.0265 0.0
O32 O 0.79581 0.69801 0.09034 0.0
O33 O 0.73968 0.65569 0.10338 0.0
C34 C 0.77608 0.67472 0.10578 0.0
C35 C 0.61265 0.61578 0.04698 0.0
C36 C 0.73778 0.65717 0.02737 0.0
C37 C 0.71996 0.73905 0.07034 0.0
O38 O 0.68708 0.71115 0.06674 0.0
O39 O 0.7484 0.73408 0.07154 0.0
O40 O 0.62904 0.6473 0.03628 0.0
O41 O 0.6322 0.61012 0.06177 0.0
O42 O 0.71552 0.92165 0.96093 0.0
Cd43 Cd 0.70384 0.93731 0.93101 0.0
Cd44 Cd 0.65632 0.95592 0.95936 0.0
O45 O 0.67474 0.92949 0.98119 0.0
O46 O 0.72182 0.9138 0.90869 0.0
O47 O 0.66158 0.89818 0.91228 0.0
C48 C 0.68699 0.89301 0.90258 0.0
C49 C 0.60173 0.95588 0.97215 0.0
C50 C 0.69966 0.91949 0.97936 0.0
C51 C 0.72306 0.0182 0.93272 0.0
O52 O 0.69536 0.00746 0.94597 0.0
O53 O 0.73121 -0.00555 0.92435 0.0
O54 O 0.63407 0.97523 0.98164 0.0
O55 O 0.59991 0.93609 0.95503 0.0
O56 O 0.03854 0.78226 0.94853 0.0
Cd57 Cd 0.01162 0.75472 0.91992 0.0
Cd58 Cd 0.0011 0.68711 0.9466 0.0
O59 O 0.03848 0.73361 0.96508 0.0
O60 O 0.03017 0.79411 0.89633 0.0
O61 O 0.04205 0.74638 0.89681 0.0
C62 C 0.04653 0.77705 0.88749 0.0
C63 C -0.00298 0.63048 0.95951 0.0
C64 C 0.04837 0.76866 0.96446 0.0
C65 C 0.93287 0.69452 0.92889 0.0
O66 O 0.94778 0.67787 0.93911 0.0
O67 O 0.95337 0.7264 0.91959 0.0
O68 O 0.98494 0.64901 0.97085 0.0
O69 O 0.0123 0.64431 0.9406 0.0
O70 O 0.22556 0.30487 0.9631 0.0
Cd71 Cd 0.26019 0.30542 0.93815 0.0
Cd72 Cd 0.31608 0.34836 0.97562 0.0
O73 O 0.2656 0.33536 0.99039 0.0
O74 O 0.22387 0.28289 0.91312 0.0
O75 O 0.27053 0.34259 0.91342 0.0
C76 C 0.24092 0.31574 0.90375 0.0
C77 C 0.36848 0.4018 0.99063 0.0
C78 C 0.23219 0.31804 0.98264 0.0
C79 C 0.31394 0.27906 0.95302 0.0
O80 O 0.32759 0.30646 0.96668 0.0
O81 O 0.2865 0.27308 0.9404 0.0
O82 O 0.35102 0.37022 1.00122 0.0
O83 O 0.35605 0.40337 0.97124 0.0
O84 O 0.02989 0.44404 0.37658 0.0
Cd85 Cd 0.00554 0.39849 0.39822 0.0
Cd86 Cd 0.04801 0.3774 0.36389 0.0
O87 O 0.06228 0.43022 0.35247 0.0
O88 O 0.97698 0.4154 0.41761 0.0
O89 O 0.02273 0.40643 0.43026 0.0
C90 C -0.00234 0.41645 0.43395 0.0
C91 C 0.09011 0.35557 0.35512 0.0
C92 C 0.05118 0.45239 0.35969 0.0
C93 C 0.96212 0.32795 0.37027 0.0
O94 O -0.00745 0.33681 0.35995 0.0
O95 O 0.96165 0.34712 0.38675 0.0
O96 O 0.07027 0.36034 0.34029 0.0
O97 O 0.08679 0.36394 0.37526 0.0
O98 O 0.55442 0.56529 0.36999 0.0
Cd99 Cd 0.58842 0.58148 0.39757 0.0
Cd100 Cd 0.62791 0.65162 0.36934 0.0
O101 O 0.58967 0.6126 0.34722 0.0
O102 O 0.5612 0.53595 0.4169 0.0
O103 O 0.56988 0.5924 0.42613 0.0
C104 C 0.55611 0.55688 0.43089 0.0
C105 C 0.64685 0.7148 0.36031 0.0
C106 C 0.56086 0.58031 0.35093 0.0
C107 C 0.67209 0.61636 0.38888 0.0
O108 O 0.67165 0.64485 0.38057 0.0
O109 O 0.64168 0.58707 0.39496 0.0
O110 O 0.65678 0.69473 0.34868 0.0
O111 O 0.62577 0.69901 0.37737 0.0
O112 O 0.43335 0.98516 0.38385 0.0
Cd113 Cd 0.42126 0.0082 0.41072 0.0
Cd114 Cd 0.34944 0.98012 0.38322 0.0
O115 O 0.38567 0.97447 0.3617 0.0
O116 O 0.46729 0.02497 0.4295 0.0
O117 O 0.40996 0.98174 0.44035 0.0
C118 C 0.44589 0.00144 0.4444 0.0
C119 C 0.28539 0.94121 0.37364 0.0
C120 C 0.41696 0.97552 0.36518 0.0
C121 C 0.39204 0.06164 0.39995 0.0
O122 O 0.36167 0.03339 0.3929 0.0
O123 O 0.42004 0.05811 0.40604 0.0
O124 O 0.30814 0.96984 0.36183 0.0
O125 O 0.29885 0.93432 0.39125 0.0
O126 O 0.39979 0.25855 0.2908 0.0
Cd127 Cd 0.39144 0.27979 0.26181 0.0
Cd128 Cd 0.33436 0.2858 0.29007 0.0
O129 O 0.35133 0.25506 0.30935 0.0
O130 O 0.41095 0.26064 0.23777 0.0
O131 O 0.35045 0.24442 0.24107 0.0
C132 C 0.37648 0.24108 0.23073 0.0
C133 C 0.27946 0.28431 0.3037 0.0
C134 C 0.37906 0.24901 0.30794 0.0
C135 C 0.40291 0.35681 0.26883 0.0
O136 O 0.37308 0.34026 0.28053 0.0
O137 O 0.41598 0.33791 0.25923 0.0
O138 O 0.31087 0.30001 0.31439 0.0
O139 O 0.27849 0.2683 0.28511 0.0
O140 O 0.73071 0.11188 0.28047 0.0
Cd141 Cd 0.69904 0.074 0.25608 0.0
Cd142 Cd 0.70135 0.0217 0.29108 0.0
O143 O 0.7378 0.07438 0.3042 0.0
O144 O 0.70705 0.1075 0.23019 0.0
O145 O 0.72748 0.06616 0.2313 0.0
C146 C 0.72566 0.09313 0.22099 0.0
C147 C 0.70667 0.97112 0.30583 0.0
C148 C 0.74471 0.10721 0.29816 0.0
C149 C 0.62553 0.01414 0.27435 0.0
O150 O 0.64526 0.00511 0.2865 0.0
O151 O 0.64116 0.0411 0.26047 0.0
O152 O 0.69498 0.98975 0.31742 0.0
O153 O 0.7171 0.98215 0.28577 0.0
O154 O 0.89198 0.62377 0.29925 0.0
Cd155 Cd 0.92703 0.63379 0.27255 0.0
Cd156 Cd 0.9807 0.69491 0.30321 0.0
O157 O 0.92879 0.67642 0.31787 0.0
O158 O 0.89197 0.60778 0.2474 0.0
O159 O 0.92993 0.67019 0.24912 0.0
C160 C 0.90364 0.64092 0.23886 0.0
C161 C 0.02931 0.75163 0.31847 0.0
C162 C 0.89729 0.64597 0.31535 0.0
C163 C -0.0063 0.62919 0.28736 0.0
O164 O 0.00109 0.65809 0.29902 0.0
O165 O 0.96542 0.61485 0.27435 0.0
O166 O 0.01176 0.72086 0.32971 0.0
O167 O 0.01841 0.75105 0.29839 0.0
O168 O 0.59092 0.69116 0.72756 0.0
Cd169 Cd 0.60358 0.66305 0.75122 0.0
Cd170 Cd 0.64188 0.65437 0.71279 0.0
O171 O 0.62597 0.69133 0.69968 0.0
O172 O 0.58591 0.67692 0.77848 0.0
O173 O 0.64609 0.69476 0.7724 0.0
C174 C 0.62081 0.69614 0.78467 0.0
C175 C 0.69691 0.65845 0.69797 0.0
C176 C 0.6036 0.70124 0.7081 0.0
C177 C 0.57652 0.5844 0.73532 0.0
O178 O 0.60066 0.59945 0.71988 0.0
O179 O 0.57368 0.60469 0.75035 0.0
O180 O 0.66601 0.64512 0.68675 0.0
O181 O 0.69701 0.67042 0.71775 0.0
O182 O 0.23731 0.88094 0.70027 0.0
Cd183 Cd 0.25772 0.91842 0.72638 0.0
Cd184 Cd 0.26119 0.97019 0.69107 0.0
O185 O 0.23143 0.9181 0.6758 0.0
O186 O 0.24387 0.88505 0.75287 0.0
O187 O 0.2205 0.92304 0.7462 0.0
C188 C 0.22142 0.89747 0.75852 0.0
C189 C 0.25284 0.01833 0.67533 0.0
C190 C 0.22672 0.88586 0.68141 0.0
C191 C 0.33373 0.9827 0.71494 0.0
O192 O 0.31682 0.99061 0.7 0.0
O193 O 0.31522 0.95523 0.72815 0.0
O194 O 0.27001 0.00357 0.66506 0.0
O195 O 0.23915 0.00502 0.69462 0.0
O196 O 0.1001 0.38343 0.72146 0.0
Cd197 Cd 0.07546 0.37692 0.75193 0.0
Cd198 Cd 0.00895 0.31591 0.72879 0.0
O199 O 0.05292 0.33143 0.70688 0.0
O200 O 0.1173 0.39849 0.77398 0.0
O201 O 0.0739 0.33731 0.77233 0.0
C202 C 0.1043 0.36433 0.78133 0.0
C203 C 0.95595 0.25875 0.71719 0.0
C204 C 0.0861 0.35996 0.70559 0.0
C205 C 0.00815 0.3863 0.74852 0.0
O206 O -0.00684 0.35489 0.73814 0.0
O207 O 0.04156 0.40067 0.75623 0.0
O208 O 0.96876 0.28968 0.70616 0.0
O209 O 0.97307 0.25978 0.73534 0.0
O210 O 0.96261 0.53072 0.63826 0.0
Cd211 Cd 0.986 0.56394 0.61067 0.0
Cd212 Cd 0.95497 0.60695 0.63418 0.0
O213 O 0.95664 0.57256 0.65875 0.0
O214 O 0.00656 0.53555 0.59413 0.0
O215 O 0.96232 0.54616 0.58049 0.0
C216 C 0.98422 0.53182 0.57806 0.0
C217 C 0.90854 0.62379 0.64119 0.0
C218 C 0.95623 0.54123 0.65676 0.0
C219 C 0.03458 0.64859 0.61689 0.0
O220 O 0.00476 0.64973 0.62159 0.0
O221 O 0.03369 0.61704 0.61447 0.0
O222 O 0.93934 0.63755 0.65249 0.0
O223 O 0.90413 0.60075 0.62528 0.0
O224 O 0.38624 0.42619 0.62714 0.0
Cd225 Cd 0.35909 0.41308 0.59722 0.0
Cd226 Cd 0.32277 0.33597 0.61808 0.0
O227 O 0.36518 0.36825 0.64048 0.0
O228 O 0.38873 0.45975 0.57913 0.0
O229 O 0.38236 0.40398 0.57022 0.0
C230 C 0.39633 0.43967 0.56581 0.0
C231 C 0.29998 0.27067 0.62335 0.0
C232 C 0.38596 0.40405 0.64205 0.0
C233 C 0.27647 0.37522 0.6054 0.0
O234 O 0.2793 0.34762 0.61318 0.0
O235 O 0.30514 0.40449 0.59769 0.0
O236 O 0.29382 0.29074 0.63732 0.0
O237 O 0.31914 0.28751 0.60587 0.0
O238 O 0.56205 0.00304 0.64436 0.0
Cd239 Cd 0.58315 0.97903 0.62234 0.0
Cd240 Cd 0.63916 0.00909 0.66107 0.0
O241 O 0.60186 0.02474 0.67265 0.0
O242 O 0.53981 0.95648 0.60109 0.0
O243 O 0.59691 0.00177 0.59155 0.0
C244 C 0.56187 0.97947 0.58624 0.0
C245 C 0.70292 0.04977 0.66957 0.0
C246 C 0.57196 0.01953 0.66303 0.0
C247 C 0.60132 0.92564 0.64801 0.0
O248 O 0.62143 0.95245 0.66127 0.0
O249 O 0.58593 0.93093 0.63111 0.0
O250 O 0.679 0.02855 0.68434 0.0
O251 O 0.69064 0.04791 0.64966 0.0
H252 H 0.38712 0.94959 0.98718 0.0
H253 H 0.59758 0.99015 0.00987 0.0
H254 H 0.4531 0.00935 0.04456 0.0
H255 H 0.53017 0.92493 0.95416 0.0
H256 H 0.5439 -0.00486 0.02344 0.0
H257 H 0.43788 0.93791 0.97558 0.0
C258 C 0.41223 0.96012 0.99742 0.0
C259 C 0.41598 0.9807 0.01683 0.0
C260 C 0.54069 0.97958 0.0083 0.0
C261 C 0.4743 0.96749 0.00355 0.0
C262 C 0.57139 0.97674 1.00049 0.0
C263 C 0.56842 0.95725 0.98076 0.0
C264 C 0.50668 0.96298 0.99627 0.0
C265 C 0.53371 0.94029 0.96942 0.0
C266 C 0.4412 0.95339 0.99077 0.0
C267 C 0.44905 -0.00654 0.02946 0.0
N268 N 0.5042 0.94374 0.97728 0.0
N269 N 0.47704 0.98683 0.02253 0.0
H270 H 0.93325 0.4292 0.03813 0.0
H271 H 0.01584 0.58131 0.93939 0.0
H272 H 0.98142 0.41327 0.97829 0.0
H273 H 0.96685 0.59685 0.99901 0.0
H274 H 0.0047 0.52007 0.9537 0.0
H275 H 0.94609 0.49128 0.0243 0.0
C276 C 0.94644 0.43872 0.0221 0.0
C277 C 0.95621 0.41601 0.00935 0.0
C278 C -0.00352 0.53697 0.96366 0.0
C279 C 0.97111 0.48691 0.99344 0.0
C280 C 0.00291 0.57193 0.9555 0.0
C281 C -0.00779 0.59417 0.96799 0.0
C282 C 0.97922 0.52421 0.98443 0.0
C283 C 0.97551 0.58061 0.98877 0.0
C284 C 0.95383 0.47415 0.01421 0.0
C285 C 0.97335 0.42979 0.98869 0.0
N286 N 0.96947 0.54654 0.9963 0.0
N287 N 0.98023 0.46428 0.9814 0.0
H288 H 0.40281 0.40409 0.02976 0.0
H289 H 0.5667 0.62024 0.01573 0.0
H290 H 0.41068 0.47407 0.97401 0.0
H291 H 0.56994 0.54424 0.06452 0.0
H292 H 0.50511 0.5695 0.00327 0.0
H293 H 0.45972 0.45748 0.04539 0.0
C294 C 0.41642 0.43076 0.02083 0.0
C295 C 0.40209 0.43459 1.00046 0.0
C296 C 0.51916 0.56396 0.01678 0.0
C297 C 0.46729 0.49586 0.01835 0.0
C298 C 0.5543 0.59295 0.02399 0.0
C299 C 0.57364 0.58636 0.04111 0.0
C300 C 0.50311 0.52807 0.02679 0.0
C301 C 0.55609 0.5505 0.05121 0.0
C302 C 0.44895 0.46122 0.02978 0.0
C303 C 0.42087 0.46984 0.98969 0.0
N304 N 0.52186 0.52259 0.04381 0.0
N305 N 0.45259 0.49913 0.99875 0.0
H306 H 0.14145 0.34807 0.38113 0.0
H307 H 0.2142 0.26954 0.28187 0.0
H308 H 0.09609 0.32887 0.31488 0.0
H309 H 0.27102 0.30615 0.34484 0.0
H310 H 0.16483 0.28239 0.29538 0.0
H311 H 0.18405 0.32478 0.36962 0.0
C312 C 0.14037 0.33885 0.36421 0.0
C313 C 0.11544 0.34072 0.34891 0.0
C314 C 0.18797 0.2873 0.30628 0.0
C315 C 0.1638 0.31389 0.33566 0.0
C316 C 0.21601 0.27977 0.29861 0.0
C317 C 0.24689 0.28712 0.31218 0.0
C318 C 0.19085 0.30208 0.32768 0.0
C319 C 0.24788 0.30044 0.33373 0.0
C320 C 0.16464 0.32555 0.35764 0.0
C321 C 0.11508 0.32824 0.32721 0.0
N322 N 0.22042 0.30769 0.34076 0.0
N323 N 0.13895 0.31547 0.32122 0.0
H324 H 0.6343 0.76711 0.38191 0.0
H325 H 0.72427 0.92144 0.28529 0.0
H326 H 0.6876 0.75263 0.3239 0.0
H327 H 0.68422 0.94154 0.3471 0.0
H328 H 0.71337 0.86038 0.29969 0.0
H329 H 0.65385 0.83194 0.36986 0.0
C330 C 0.65018 0.77759 0.36669 0.0
C331 C 0.65914 0.75439 0.35384 0.0
C332 C 0.7073 0.87835 0.31016 0.0
C333 C 0.68156 0.82837 0.33993 0.0
C334 C 0.71363 0.91324 0.30196 0.0
C335 C 0.7049 0.93648 0.31494 0.0
C336 C 0.69191 0.86659 0.33142 0.0
C337 C 0.69115 0.92443 0.33644 0.0
C338 C 0.66143 0.81461 0.35983 0.0
C339 C 0.67993 0.76947 0.3343 0.0
N340 N 0.68477 0.89021 0.34392 0.0
N341 N 0.69023 0.80539 0.32789 0.0
H342 H 0.05312 0.76148 0.36121 0.0
H343 H 0.25181 0.9473 0.33601 0.0
H344 H 0.08233 0.81689 0.2976 0.0
H345 H 0.22816 0.88005 0.3953 0.0
H346 H 0.18679 0.90554 0.32366 0.0
H347 H 0.11343 0.81098 0.37591 0.0
C348 C 0.07205 0.78437 0.35037 0.0
C349 C 0.06287 0.78484 0.32805 0.0
C350 C 0.19575 0.90002 0.33942 0.0
C351 C 0.13227 0.84149 0.3448 0.0
C352 C 0.23288 0.92384 0.34651 0.0
C353 C 0.24553 0.91696 0.36668 0.0
C354 C 0.17096 0.86912 0.3526 0.0
C355 C 0.21969 0.88625 0.3796 0.0
C356 C 0.10657 0.81256 0.35879 0.0
C357 C 0.08835 0.81537 0.31487 0.0
N358 N 0.18364 0.86337 0.37229 0.0
N359 N 0.12214 0.84234 0.3234 0.0
H360 H 0.83923 0.59935 0.6215 0.0
H361 H 0.7675 0.68576 0.71643 0.0
H362 H 0.91011 0.66888 0.67504 0.0
H363 H 0.70217 0.63029 0.65802 0.0
H364 H 0.82071 0.681 0.70113 0.0
H365 H 0.78899 0.61151 0.6341 0.0
C366 C 0.84433 0.61739 0.63578 0.0
C367 C 0.87881 0.63294 0.6473 0.0
C368 C 0.7948 0.67011 0.6916 0.0
C369 C 0.8215 0.64674 0.6619 0.0
C370 C 0.76444 0.67281 0.70035 0.0
C371 C 0.73032 0.65825 0.68855 0.0
C372 C 0.79087 0.65247 0.67099 0.0
C373 C 0.72793 0.64181 0.66774 0.0
C374 C 0.81567 0.62432 0.64298 0.0
C375 C 0.88391 0.65615 0.66569 0.0
N376 N 0.75767 0.63913 0.65971 0.0
N377 N 0.8555 0.66211 0.67251 0.0
H378 H 0.31366 0.22063 0.59989 0.0
H379 H 0.22437 0.06086 0.69372 0.0
H380 H 0.25604 0.22868 0.65778 0.0
H381 H 0.27907 0.05085 0.63502 0.0
H382 H 0.22988 0.11953 0.67889 0.0
H383 H 0.29572 0.1555 0.61053 0.0
C384 C 0.29695 0.20859 0.6147 0.0
C385 C 0.2867 0.23023 0.62808 0.0
C386 C 0.24035 0.10428 0.66916 0.0
C387 C 0.26622 0.15599 0.64042 0.0
C388 C 0.23712 0.07075 0.67761 0.0
C389 C 0.25162 0.05116 0.6657 0.0
C390 C 0.25835 0.11836 0.6487 0.0
C391 C 0.26779 0.06522 0.64487 0.0
C392 C 0.28674 0.17145 0.62079 0.0
C393 C 0.26493 0.21318 0.64706 0.0
N394 N 0.27104 0.09812 0.63714 0.0
N395 N 0.25569 0.17724 0.65275 0.0
H396 H 0.73727 0.05562 0.70932 0.0
H397 H 0.92526 0.24615 0.6761 0.0
H398 H 0.75928 0.10421 0.64385 0.0
H399 H 0.90974 0.19262 0.73982 0.0
H400 H 0.86639 0.19187 0.66344 0.0
H401 H 0.80169 0.10277 0.72019 0.0
C402 C 0.75574 0.07607 0.69717 0.0
C403 C 0.74276 0.07624 0.67568 0.0
C404 C 0.87589 0.19172 0.68014 0.0
C405 C 0.81652 0.13037 0.68809 0.0
C406 C 0.90952 0.22279 0.68742 0.0
C407 C 0.92219 0.22405 0.70914 0.0
C408 C 0.85439 0.16172 0.69473 0.0
C409 C 0.90088 0.19281 0.72297 0.0
C410 C 0.79256 0.10294 0.7034 0.0
C411 C 0.76802 0.10318 0.66061 0.0
N412 N 0.86771 0.16302 0.7156 0.0
N413 N 0.8036 0.12938 0.66717 0.0
H414 H 0.38252 0.09598 0.12737 0.0
H415 H 0.30845 0.2008 0.20904 0.0
H416 H 0.27679 0.09518 0.11833 0.0
H417 H 0.42329 0.22114 0.20938 0.0
H418 H 0.29389 0.15674 0.1781 0.0
H419 H 0.39522 0.13603 0.16018 0.0
C420 C 0.36182 0.1039 0.1324 0.0
C421 C 0.32864 0.09235 0.12004 0.0
C422 C 0.32228 0.17087 0.18495 0.0
C423 C 0.34301 0.13823 0.15745 0.0
C424 C 0.33061 0.19604 0.2026 0.0
C425 C 0.36719 0.21484 0.21175 0.0
C426 C 0.35064 0.16419 0.17648 0.0
C427 C 0.39475 0.20746 0.20277 0.0
C428 C 0.36917 0.12692 0.15105 0.0
C429 C 0.30285 0.10358 0.12729 0.0
N430 N 0.3859 0.18269 0.18568 0.0
N431 N 0.31061 0.12591 0.14547 0.0
H432 H 0.84416 0.24631 0.11291 0.0
H433 H 0.77012 0.07183 0.19775 0.0
H434 H 0.87803 0.161 0.1102 0.0
H435 H 0.7297 0.15213 0.19701 0.0
H436 H 0.80926 0.10352 0.16537 0.0
H437 H 0.80221 0.21228 0.14389 0.0
C438 C 0.84287 0.22051 0.11886 0.0
C439 C 0.86471 0.20655 0.10896 0.0
C440 C 0.79164 0.11406 0.17222 0.0
C441 C 0.81662 0.16732 0.14436 0.0
C442 C 0.76918 0.09587 0.19067 0.0
C443 C 0.74662 0.10936 0.20015 0.0
C444 C 0.7917 0.14607 0.16325 0.0
C445 C 0.74665 0.14073 0.19029 0.0
C446 C 0.81881 0.201 0.1365 0.0
C447 C 0.86176 0.17287 0.11733 0.0
N448 N 0.76897 0.15812 0.17249 0.0
N449 N 0.83823 0.15446 0.13453 0.0
H450 H 0.83925 0.58687 0.21845 0.0
H451 H 0.8494 0.7204 0.1189 0.0
H452 H 0.92699 0.7045 0.21315 0.0
H453 H 0.74624 0.6186 0.13728 0.0
H454 H 0.88116 0.71208 0.15092 0.0
H455 H 0.80799 0.59491 0.18606 0.0
C456 C 0.85211 0.61435 0.21038 0.0
C457 C 0.88582 0.6451 0.21853 0.0
C458 C 0.85156 0.69163 0.14798 0.0
C459 C 0.85009 0.65441 0.18145 0.0
C460 C 0.8334 0.69627 0.12968 0.0
C461 C 0.79507 0.67014 0.12543 0.0
C462 C 0.83144 0.66034 0.162 0.0
C463 C 0.77577 0.63948 0.13999 0.0
C464 C 0.8341 0.61894 0.19198 0.0
C465 C 0.90104 0.68006 0.20746 0.0
N466 N 0.79423 0.6353 0.15758 0.0
N467 N 0.88311 0.68374 0.18944 0.0
H468 H 0.61598 0.84092 0.88771 0.0
H469 H 0.6921 0.74571 0.80049 0.0
H470 H 0.73457 0.87712 0.87878 0.0
H471 H 0.57342 0.70535 0.81272 0.0
H472 H 0.7084 0.79291 0.82985 0.0
H473 H 0.59989 0.79069 0.86039 0.0
C474 C 0.63864 0.8384 0.87995 0.0
C475 C 0.67667 0.86332 0.88551 0.0
C476 C 0.67879 0.77351 0.82621 0.0
C477 C 0.65848 0.80574 0.85431 0.0
C478 C 0.66948 0.74644 0.80952 0.0
C479 C 0.63136 0.72161 0.80408 0.0
C480 C 0.64976 0.77586 0.83747 0.0
C481 C 0.60322 0.72397 0.81629 0.0
C482 C 0.62944 0.80962 0.86442 0.0
C483 C 0.70485 0.85859 0.87498 0.0
N484 N 0.61298 0.75075 0.83228 0.0
N485 N 0.6952 0.83043 0.85989 0.0
H486 H 0.09096 0.75275 0.86717 0.0
H487 H 0.17137 0.91761 0.77572 0.0
H488 H 0.05822 0.8388 0.86315 0.0
H489 H 0.21391 0.84009 0.78545 0.0
H490 H 0.12794 0.88783 0.80681 0.0
H491 H 0.13383 0.78249 0.83592 0.0
C492 C 0.09261 0.77775 0.85964 0.0
C493 C 0.07099 0.79331 0.86781 0.0
C494 C 0.14688 0.87743 0.80217 0.0
C495 C 0.12014 0.82764 0.83209 0.0
C496 C 0.17172 0.89447 0.78444 0.0
C497 C 0.19634 0.88136 0.77797 0.0
C498 C 0.14651 0.84691 0.81341 0.0
C499 C 0.19549 0.8512 0.78986 0.0
C500 C 0.11721 0.79483 0.84185 0.0
C501 C 0.07439 0.82585 0.85742 0.0
N502 N 0.17093 0.83495 0.80693 0.0
N503 N 0.0985 0.84192 0.84013 0.0
H504 H 0.26445 0.38341 0.88214 0.0
H505 H 0.08596 0.29559 0.79988 0.0
H506 H 0.17981 0.2643 0.87978 0.0
H507 H 0.16939 0.41506 0.80275 0.0
H508 H 0.12141 0.28326 0.8282 0.0
H509 H 0.2322 0.39516 0.85155 0.0
C510 C 0.23937 0.35967 0.87503 0.0
C511 C 0.22474 0.32285 0.88361 0.0
C512 C 0.13197 0.31218 0.82263 0.0
C513 C 0.18743 0.33613 0.84879 0.0
C514 C 0.11166 0.31925 0.80651 0.0
C515 C 0.12463 0.35643 0.79898 0.0
C516 C 0.16554 0.3425 0.83131 0.0
C517 C 0.15823 0.38595 0.8081 0.0
C518 C 0.22085 0.36641 0.85764 0.0
C519 C 0.19206 0.29319 0.87377 0.0
N520 N 0.17749 0.37836 0.82378 0.0
N521 N 0.17442 0.3005 0.857 0.0
H522 H 0.94683 0.43866 0.44579 0.0
H523 H 0.02831 0.50028 0.56845 0.0
H524 H 0.03864 0.42583 0.47197 0.0
H525 H 0.94099 0.51881 0.54069 0.0
H526 H 0.0301 0.46976 0.53407 0.0
H527 H 0.94185 0.46454 0.48117 0.0
C528 C 0.96587 0.4411 0.45903 0.0
C529 C -0.00668 0.43013 0.45586 0.0
C530 C 0.01048 0.4804 0.53549 0.0
C531 C 0.98778 0.46001 0.49653 0.0
C532 C 0.0094 0.49784 0.55514 0.0
C533 C 0.98451 0.51226 0.55745 0.0
C534 C 0.98648 0.47726 0.51795 0.0
C535 C 0.96067 0.50819 0.53964 0.0
C536 C 0.96302 0.45597 0.47924 0.0
C537 C 0.01711 0.43395 0.47365 0.0
N538 N 0.96231 0.49115 0.52063 0.0
N539 N 0.01388 0.44869 0.49321 0.0
H540 H 0.52551 0.48354 0.44508 0.0
H541 H 0.42972 0.51397 0.55283 0.0
H542 H 0.53679 0.59161 0.46333 0.0
H543 H 0.41839 0.406 0.53425 0.0
H544 H 0.46987 0.54315 0.52058 0.0
H545 H 0.48754 0.45515 0.47812 0.0
C546 C 0.5201 0.50138 0.45608 0.0
C547 C 0.53431 0.54005 0.45139 0.0
C548 C 0.45864 0.51308 0.52354 0.0
C549 C 0.4906 0.50754 0.48931 0.0
C550 C 0.43566 0.49635 0.54196 0.0
C551 C 0.42058 0.45741 0.54623 0.0
C552 C 0.46668 0.49078 0.50923 0.0
C553 C 0.42934 0.43609 0.53158 0.0
C554 C 0.49836 0.48509 0.47496 0.0
C555 C 0.52639 0.5617 0.46628 0.0
N556 N 0.45178 0.45304 0.51373 0.0
N557 N 0.50498 0.54512 0.48455 0.0
H558 H 0.59903 0.02727 0.55143 0.0
H559 H 0.40972 0.95244 0.47881 0.0
H560 H 0.48928 0.93585 0.57134 0.0
H561 H 0.52013 0.04057 0.45737 0.0
H562 H 0.43853 0.9457 0.51279 0.0
H563 H 0.57103 0.03197 0.51653 0.0
C564 C 0.56915 0.00802 0.54841 0.0
C565 C 0.54648 0.9812 0.56436 0.0
C566 C 0.45647 0.9665 0.50063 0.0
C567 C 0.51417 0.98657 0.52458 0.0
C568 C 0.43998 0.9704 0.48125 0.0
C569 C 0.4625 -0.00287 0.46523 0.0
C570 C 0.49575 0.98956 0.50405 0.0
C571 C 0.50163 0.01959 0.46927 0.0
C572 C 0.55313 0.01077 0.52851 0.0
C573 C 0.50787 0.95703 0.55956 0.0
N574 N 0.51697 0.01533 0.48826 0.0
N575 N 0.49295 0.9604 0.54018 0.0
H576 H 0.24193 0.88711 0.0453 0.0
H577 H 0.06474 0.84149 0.9737 0.0
H578 H 0.19278 0.95997 0.04552 0.0
H579 H 0.08722 0.75344 0.99595 0.0
H580 H 0.10933 0.88442 1.0014 0.0
H581 H 0.18306 0.83594 0.0298 0.0
C582 C 0.21829 0.89193 0.04263 0.0
C583 C 0.22222 0.92781 0.04646 0.0
C584 C 0.10402 0.85551 1.00044 0.0
C585 C 0.1554 0.86999 0.02808 0.0
C586 C 0.07882 0.8311 0.98451 0.0
C587 C 0.07271 0.79402 0.98227 0.0
C588 C 0.12371 0.84295 0.01393 0.0
C589 C 0.09134 0.78191 0.99693 0.0
C590 C 0.18474 0.86279 0.03374 0.0
C591 C 0.19082 0.93267 0.04277 0.0
N592 N 0.11648 0.80651 0.0119 0.0
N593 N 0.15896 0.90433 0.03323 0.0
H594 H 0.05995 0.36478 0.02267 0.0
H595 H 0.2229 0.31363 0.02772 0.0
H596 H 0.04344 0.27295 0.06591 0.0
H597 H 0.1714 0.32093 0.96689 0.0
H598 H 0.17176 0.31594 0.04849 0.0
H599 H 0.11894 0.36968 0.00976 0.0
C600 C 0.0691 0.34622 0.02989 0.0
C601 C 0.04616 0.3177 0.045 0.0
C602 C 0.17194 0.31696 0.03061 0.0
C603 C 0.11378 0.32364 0.03034 0.0
C604 C 0.20083 0.31561 0.0188 0.0
C605 C 0.20103 0.31682 0.99561 0.0
C606 C 0.14428 0.32097 0.01903 0.0
C607 C 0.17202 0.3195 0.98474 0.0
C608 C 0.10269 0.34904 0.02242 0.0
C609 C 0.05998 0.29496 0.05399 0.0
N610 N 0.14505 0.32196 0.99657 0.0
N611 N 0.09285 0.29802 0.04627 0.0
H612 H 0.78437 0.80337 0.05743 0.0
H613 H 0.6617 0.8963 0.0187 0.0
H614 H 0.66796 0.7622 0.07634 0.0
H615 H 0.75995 0.9077 0.98437 0.0
H616 H 0.67423 0.86396 0.04888 0.0
H617 H 0.78619 0.85923 0.04088 0.0
C618 C 0.75963 0.80673 0.05884 0.0
C619 C 0.72561 0.77768 0.06774 0.0
C620 C 0.69335 0.87414 0.03489 0.0
C621 C 0.72745 0.84106 0.04867 0.0
C622 C 0.6862 0.89249 0.01763 0.0
C623 C 0.70932 0.9039 0.99876 0.0
C624 C 0.72396 0.86743 0.03331 0.0
C625 C 0.74091 0.89862 0.9984 0.0
C626 C 0.76061 0.83845 0.0492 0.0
C627 C 0.69449 0.7836 0.06918 0.0
N628 N 0.74708 0.88039 0.01532 0.0
N629 N 0.6959 0.81432 0.05932 0.0
H630 H 0.71008 0.0774 0.93947 0.0
H631 H 0.9004 0.18023 0.99837 0.0
H632 H 0.79899 0.05223 0.92433 0.0
H633 H 0.84156 0.24154 0.98369 0.0
H634 H 0.86454 0.13485 0.96922 0.0
H635 H 0.75804 0.14078 0.95176 0.0
C636 C 0.73978 0.08572 0.93797 0.0
C637 C 0.75058 0.05922 0.93149 0.0
C638 C 0.85988 0.15858 0.97208 0.0
C639 C 0.80521 0.13096 0.94606 0.0
C640 C 0.87996 0.18415 0.9889 0.0
C641 C 0.87332 0.21414 0.99363 0.0
C642 C 0.83218 0.16238 0.96033 0.0
C643 C 0.84712 0.21846 0.98063 0.0
C644 C 0.76713 0.12187 0.94503 0.0
C645 C 0.78939 0.07156 0.92958 0.0
N646 N 0.82675 0.19225 0.96484 0.0
N647 N 0.81534 0.10619 0.93757 0.0
H648 H 0.7707 0.61371 0.02156 0.0
H649 H 0.89283 0.73237 0.92485 0.0
H650 H 0.74165 0.68856 0.98684 0.0
H651 H 0.8795 0.62253 0.94049 0.0
H652 H 0.83212 0.71333 0.94288 0.0
H653 H 0.80581 0.61247 0.98921 0.0
C654 C 0.77133 0.62944 0.00695 0.0
C655 C 0.75384 0.65167 0.00687 0.0
C656 C 0.8419 0.69296 0.94171 0.0
C657 C 0.79448 0.65108 0.96998 0.0
C658 C 0.87652 0.70377 0.93133 0.0
C659 C 0.8918 0.67946 0.93188 0.0
C660 C 0.82305 0.65793 0.95283 0.0
C661 C 0.86928 0.64262 0.94033 0.0
C662 C 0.79111 0.62855 0.98842 0.0
C663 C 0.75504 0.67124 0.9875 0.0
N664 N 0.83654 0.63334 0.95104 0.0
N665 N 0.77596 0.67133 0.96995 0.0
H666 H 0.38079 0.29115 0.97033 0.0
H667 H 0.31626 0.07081 0.97619 0.0
H668 H 0.27908 0.20489 0.93841 0.0
H669 H 0.37868 0.15386 0.02668 0.0
H670 H 0.31814 0.1217 0.95302 0.0
H671 H 0.39668 0.24267 0.98057 0.0
C672 C 0.36215 0.26209 0.96508 0.0
C673 C 0.32798 0.25181 0.95405 0.0
C674 C 0.33208 0.12871 0.96898 0.0
C675 C 0.34602 0.1963 0.96585 0.0
C676 C 0.33115 0.09988 0.98211 0.0
C677 C 0.347 0.10837 0.00338 0.0
C678 C 0.34976 0.16609 0.97711 0.0
C679 C 0.36577 0.14624 0.01045 0.0
C680 C 0.37127 0.23449 0.97094 0.0
C681 C 0.3054 0.2139 0.94722 0.0
N682 N 0.36651 0.17371 0.99738 0.0
N683 N 0.31442 0.18721 0.95365 0.0
H684 H 0.94477 0.31244 0.32723 0.0
H685 H 0.76922 0.1096 0.34075 0.0
H686 H 0.89905 0.27369 0.39246 0.0
H687 H 0.78106 0.18137 0.28511 0.0
H688 H 0.81854 0.16554 0.36031 0.0
H689 H 0.88738 0.26037 0.31126 0.0
C690 C 0.92252 0.29284 0.33819 0.0
C691 C 0.92657 0.29705 0.36117 0.0
C692 C 0.80978 0.16892 0.34395 0.0
C693 C 0.86104 0.23728 0.34299 0.0
C694 C 0.7819 0.13711 0.33274 0.0
C695 C 0.77135 0.14081 0.31117 0.0
C696 C 0.82762 0.20427 0.33328 0.0
C697 C 0.78842 0.17713 0.30165 0.0
C698 C 0.88971 0.26336 0.32906 0.0
C699 C 0.8968 0.27121 0.37465 0.0
N700 N 0.81615 0.20735 0.31263 0.0
N701 N 0.86528 0.24183 0.36533 0.0
H702 H 0.82781 0.58092 0.31791 0.0
H703 H 0.74329 0.67576 0.39489 0.0
H704 H 0.89656 0.68991 0.34938 0.0
H705 H 0.68202 0.55621 0.3791 0.0
H706 H 0.80178 0.67896 0.38233 0.0
H707 H 0.77573 0.56874 0.34289 0.0
C708 C 0.83206 0.60217 0.33015 0.0
C709 C 0.86638 0.63678 0.33128 0.0
C710 C 0.77578 0.65177 0.38207 0.0
C711 C 0.80699 0.62297 0.35992 0.0
C712 C 0.74244 0.64994 0.38934 0.0
C713 C 0.7079 0.61578 0.38777 0.0
C714 C 0.77429 0.61942 0.37262 0.0
C715 C 0.70818 0.5831 0.38052 0.0
C716 C 0.80241 0.59507 0.34452 0.0
C717 C 0.87045 0.66304 0.34768 0.0
N718 N 0.7408 0.5859 0.37266 0.0
N719 N 0.84094 0.6558 0.36114 0.0
H720 H 0.44029 0.23867 0.31371 0.0
H721 H 0.33784 0.08192 0.40378 0.0
H722 H 0.33554 0.21666 0.34464 0.0
H723 H 0.45563 0.12654 0.38711 0.0
H724 H 0.33975 0.13709 0.38641 0.0
H725 H 0.44963 0.203 0.3432 0.0
C726 C 0.41938 0.22657 0.32677 0.0
C727 C 0.38672 0.23004 0.32647 0.0
C728 C 0.36552 0.13544 0.38703 0.0
C729 C 0.3973 0.1893 0.36028 0.0
C730 C 0.36445 0.10403 0.39706 0.0
C731 C 0.39648 0.09955 0.39658 0.0
C732 C 0.39857 0.16195 0.37595 0.0
C733 C 0.43029 0.12895 0.38774 0.0
C734 C 0.4249 0.20647 0.3437 0.0
C735 C 0.3609 0.21428 0.34401 0.0
N736 N 0.4302 0.1585 0.3772 0.0
N737 N 0.36646 0.19412 0.36001 0.0
H738 H 0.48424 0.53643 0.35168 0.0
H739 H 0.47885 0.40375 0.26026 0.0
H740 H 0.58116 0.57312 0.309 0.0
H741 H 0.37786 0.40531 0.28057 0.0
H742 H 0.51724 0.46886 0.27408 0.0
H743 H 0.44428 0.49102 0.3235 0.0
C744 C 0.49688 0.5353 0.33615 0.0
C745 C 0.53589 0.55814 0.33262 0.0
C746 C 0.48661 0.45532 0.27486 0.0
C747 C 0.49078 0.50573 0.30056 0.0
C748 C 0.46468 0.41819 0.26691 0.0
C749 C 0.42521 0.39873 0.26992 0.0
C750 C 0.46878 0.47254 0.28604 0.0
C751 C 0.40832 0.4189 0.27852 0.0
C752 C 0.47412 0.50957 0.32001 0.0
C753 C 0.55106 0.55584 0.31224 0.0
N754 N 0.43024 0.45434 0.28682 0.0
N755 N 0.5286 0.52926 0.29712 0.0
H756 H 0.5817 0.94665 0.29508 0.0
H757 H 0.41719 0.99308 0.32158 0.0
H758 H 0.57619 0.04026 0.26495 0.0
H759 H 0.46185 0.9435 0.36725 0.0
H760 H 0.45927 0.99202 0.29275 0.0
H761 H 0.52037 0.92601 0.31237 0.0
C762 C 0.56715 0.96236 0.29165 0.0
C763 C 0.58453 -0.00412 0.27907 0.0
C764 C 0.4591 0.98062 0.30896 0.0
C765 C 0.51451 0.9724 0.29891 0.0
C766 C 0.43513 0.98108 0.32534 0.0
C767 C 0.43656 0.96878 0.34682 0.0
C768 C 0.48385 0.96699 0.31409 0.0
C769 C 0.46032 0.95368 0.35095 0.0
C770 C 0.53219 0.95055 0.30156 0.0
C771 C 0.564 0.01459 0.2748 0.0
N772 N 0.4832 0.95339 0.33475 0.0
N773 N 0.53027 0.00304 0.28513 0.0
H774 H 0.98255 0.56138 0.27021 0.0
H775 H 0.06238 0.52053 0.37469 0.0
H776 H 0.05466 0.65241 0.31468 0.0
H777 H 0.05449 0.45913 0.31488 0.0
H778 H 0.06104 0.57024 0.35251 0.0
H779 H 0.00988 0.52379 0.28467 0.0
C780 C 0.00468 0.57382 0.2826 0.0
C781 C 0.01558 0.60968 0.29165 0.0
C782 C 0.06053 0.54633 0.3442 0.0
C783 C 0.04633 0.56681 0.30837 0.0
C784 C 0.06121 0.51801 0.35685 0.0
C785 C 0.05839 0.4858 0.34655 0.0
C786 C 0.05568 0.54167 0.32121 0.0
C787 C 0.05683 0.4837 0.32339 0.0
C788 C 0.02029 0.55239 0.29081 0.0
C789 C 0.04468 0.62452 0.30756 0.0
N790 N 0.05448 0.51084 0.31145 0.0
N791 N 0.05836 0.60265 0.3158 0.0
H792 H 0.38894 0.46112 0.66643 0.0
H793 H 0.58189 0.52735 0.71473 0.0
H794 H 0.43316 0.38422 0.66318 0.0
H795 H 0.50286 0.5512 0.74881 0.0
H796 H 0.5285 0.47083 0.69845 0.0
H797 H 0.4299 0.4926 0.69815 0.0
C798 C 0.40719 0.45077 0.67259 0.0
C799 C 0.40834 0.4206 0.66215 0.0
C800 C 0.52285 0.48764 0.71014 0.0
C801 C 0.4554 0.45652 0.69812 0.0
C802 C 0.55329 0.51988 0.71943 0.0
C803 C 0.54668 0.54441 0.73267 0.0
C804 C 0.48588 0.48078 0.71368 0.0
C805 C 0.50917 0.53331 0.73843 0.0
C806 C 0.43016 0.46836 0.69082 0.0
C807 C 0.43191 0.40771 0.67082 0.0
N808 N 0.48005 0.50294 0.72826 0.0
N809 N 0.45543 0.42646 0.68804 0.0
H810 H 0.52767 0.04473 0.6445 0.0
H811 H 0.38158 0.96636 0.73874 0.0
H812 H 0.55717 0.01594 0.70721 0.0
H813 H 0.38151 0.04415 0.69002 0.0
H814 H 0.44837 0.9891 0.73034 0.0
H815 H 0.47666 0.04974 0.6625 0.0
C816 C 0.52374 0.04015 0.66216 0.0
C817 C 0.54619 0.02951 0.67439 0.0
C818 C 0.43394 0.00186 0.72193 0.0
C819 C 0.48748 0.03423 0.69502 0.0
C820 C 0.3958 0.98887 0.7267 0.0
C821 C 0.37562 0.00252 0.71457 0.0
C822 C 0.45158 0.02818 0.70475 0.0
C823 C 0.39564 0.03202 0.69936 0.0
C824 C 0.49478 0.04316 0.67248 0.0
C825 C 0.54025 0.0241 0.69725 0.0
N826 N 0.43226 0.0432 0.6945 0.0
N827 N 0.51074 0.02556 0.70679 0.0
H828 H 0.03875 0.46301 0.75572 0.0
H829 H 0.9197 0.46417 0.65931 0.0
H830 H 0.93456 0.36219 0.73732 0.0
H831 H 0.98193 0.56554 0.69863 0.0
H832 H 0.9204 0.42619 0.69038 0.0
H833 H 0.01446 0.50193 0.73957 0.0
C834 C 0.01023 0.44904 0.74904 0.0
C835 C 0.98922 0.40929 0.74709 0.0
C836 C 0.93317 0.45666 0.69246 0.0
C837 C 0.96177 0.45351 0.72825 0.0
C838 C 0.93299 0.47829 0.67467 0.0
C839 C 0.9512 0.51792 0.67642 0.0
C840 C 0.95288 0.47494 0.71185 0.0
C841 C 0.96774 0.53496 0.69668 0.0
C842 C -0.00358 0.47131 0.73974 0.0
C843 C 0.95226 0.39278 0.7385 0.0
N844 N 0.96911 0.51343 0.7135 0.0
N845 N 0.94015 0.41494 0.72877 0.0
H846 H 0.18911 0.88243 0.64321 0.0
H847 H 0.10371 0.65878 0.62934 0.0
H848 H 0.21933 0.81505 0.68482 0.0
H849 H 0.04797 0.71979 0.60731 0.0
H850 H 0.15921 0.71941 0.63986 0.0
H851 H 0.15026 0.82616 0.6207 0.0
C852 C 0.188 0.85595 0.64747 0.0
C853 C 0.20688 0.85324 0.66621 0.0
C854 C 0.13512 0.71948 0.63225 0.0
C855 C 0.16274 0.78897 0.6404 0.0
C856 C 0.10363 0.685 0.62608 0.0
C857 C 0.0711 0.68439 0.61779 0.0
C858 C 0.13403 0.75335 0.6298 0.0
C859 C 0.07234 0.71909 0.61398 0.0
C860 C 0.16584 0.8239 0.63459 0.0
C861 C 0.20469 0.81826 0.67076 0.0
N862 N 0.10314 0.75219 0.62025 0.0
N863 N 0.18266 0.78735 0.65805 0.0
H864 H 0.0693 0.30993 0.67147 0.0
H865 H 0.26864 0.43739 0.6126 0.0
H866 H 0.15358 0.4221 0.69342 0.0
H867 H 0.20484 0.31484 0.6095 0.0
H868 H 0.21562 0.43688 0.63204 0.0
H869 H 0.10893 0.31684 0.63957 0.0
C870 C 0.09597 0.33618 0.6695 0.0
C871 C 0.10855 0.3652 0.6854 0.0
C872 C 0.2129 0.41021 0.62654 0.0
C873 C 0.15362 0.37333 0.64877 0.0
C874 C 0.24294 0.41046 0.61525 0.0
C875 C 0.24129 0.37602 0.60986 0.0
C876 C 0.18108 0.37532 0.63216 0.0
C877 C 0.2074 0.34197 0.61373 0.0
C878 C 0.11845 0.34009 0.65124 0.0
C879 C 0.14313 0.39873 0.6818 0.0
N880 N 0.17878 0.34242 0.62499 0.0
N881 N 0.16466 0.40176 0.66393 0.0
H882 H 0.55807 0.72882 0.72185 0.0
H883 H 0.60068 0.8709 0.62078 0.0
H884 H 0.6273 0.73249 0.66671 0.0
H885 H 0.58487 0.89382 0.68835 0.0
H886 H 0.59377 0.80947 0.63272 0.0
H887 H 0.54953 0.77798 0.70428 0.0
C888 C 0.57117 0.73961 0.70592 0.0
C889 C 0.59415 0.72707 0.69597 0.0
C890 C 0.59141 0.82792 0.64477 0.0
C891 C 0.58429 0.78337 0.67578 0.0
C892 C 0.5952 0.86268 0.638 0.0
C893 C 0.59372 0.88732 0.65372 0.0
C894 C 0.5851 0.81777 0.6672 0.0
C895 C 0.58666 0.87571 0.67582 0.0
C896 C 0.56625 0.7677 0.69592 0.0
C897 C 0.60984 0.74178 0.67512 0.0
N898 N 0.58258 0.84178 0.6819 0.0
N899 N 0.60497 0.76958 0.66578 0.0
loop_
_geom_bond_atom_site_label_1
_geom_bond_atom_site_label_2
_geom_bond_distance
_geom_bond_site_symmetry_2
_ccdc_geom_bond_type
O0 Cd1 2.223 . S
O0 C8 1.315 . S
Cd1 O0 2.223 . S
Cd1 O4 2.297 . S
Cd1 O5 2.439 . S
Cd1 O11 2.240 . S
Cd2 O3 2.240 . S
Cd2 O10 2.223 . S
Cd2 O12 2.297 . S
Cd2 O13 2.439 . S
O3 Cd2 2.240 . S
O3 C8 1.279 . S
O4 Cd1 2.297 . S
O4 C6 1.247 . S
O5 Cd1 2.439 . S
O5 C6 1.208 . S
C6 O4 1.247 . S
C6 O5 1.208 . S
C7 O12 1.247 . S
C7 O13 1.208 . S
C8 O0 1.315 . S
C8 O3 1.279 . S
C9 O10 1.315 . S
C9 O11 1.279 . S
O10 Cd2 2.223 . S
O10 C9 1.315 . S
O11 Cd1 2.240 . S
O11 C9 1.279 . S
O12 Cd2 2.297 . S
O12 C7 1.247 . S
O13 Cd2 2.439 . S
O13 C7 1.208 . S
O14 Cd15 2.223 . S
O14 C22 1.315 . S
Cd15 O14 2.223 . S
Cd15 O18 2.297 . S
Cd15 O19 2.439 . S
Cd15 O25 2.240 . S
Cd16 O17 2.240 . S
Cd16 O24 2.223 . S
Cd16 O26 2.297 . S
Cd16 O27 2.439 . S
O17 Cd16 2.240 . S
O17 C22 1.279 . S
O18 Cd15 2.297 . S
O18 C20 1.247 . S
O19 Cd15 2.439 . S
O19 C20 1.208 . S
C20 O18 1.247 . S
C20 O19 1.208 . S
C21 O26 1.247 . S
C21 O27 1.208 . S
C22 O14 1.315 . S
C22 O17 1.279 . S
C23 O24 1.315 . S
C23 O25 1.279 . S
O24 Cd16 2.223 . S
O24 C23 1.315 . S
O25 Cd15 2.240 . S
O25 C23 1.279 . S
O26 Cd16 2.297 . S
O26 C21 1.247 . S
O27 Cd16 2.439 . S
O27 C21 1.208 . S
O28 Cd29 2.223 . S
O28 C36 1.315 . S
Cd29 O28 2.223 . S
Cd29 O32 2.297 . S
Cd29 O33 2.439 . S
Cd29 O39 2.240 . S
Cd30 O31 2.240 . S
Cd30 O38 2.223 . S
Cd30 O40 2.297 . S
Cd30 O41 2.439 . S
O31 Cd30 2.240 . S
O31 C36 1.279 . S
O32 Cd29 2.297 . S
O32 C34 1.247 . S
O33 Cd29 2.439 . S
O33 C34 1.208 . S
C34 O32 1.247 . S
C34 O33 1.208 . S
C35 O40 1.247 . S
C35 O41 1.208 . S
C36 O28 1.315 . S
C36 O31 1.279 . S
C37 O38 1.315 . S
C37 O39 1.279 . S
O38 Cd30 2.223 . S
O38 C37 1.315 . S
O39 Cd29 2.240 . S
O39 C37 1.279 . S
O40 Cd30 2.297 . S
O40 C35 1.247 . S
O41 Cd30 2.439 . S
O41 C35 1.208 . S
O42 Cd43 2.223 . S
O42 C50 1.315 . S
Cd43 O42 2.223 . S
Cd43 O46 2.297 . S
Cd43 O47 2.439 . S
Cd43 O53 2.240 . S
Cd44 O45 2.240 . S
Cd44 O52 2.223 . S
Cd44 O54 2.297 . S
Cd44 O55 2.439 . S
O45 Cd44 2.240 . S
O45 C50 1.279 . S
O46 Cd43 2.297 . S
O46 C48 1.247 . S
O47 Cd43 2.439 . S
O47 C48 1.208 . S
C48 O46 1.247 . S
C48 O47 1.208 . S
C49 O54 1.247 . S
C49 O55 1.208 . S
C50 O42 1.315 . S
C50 O45 1.279 . S
C51 O52 1.315 . S
C51 O53 1.279 . S
O52 Cd44 2.223 . S
O52 C51 1.315 . S
O53 Cd43 2.240 . S
O53 C51 1.279 . S
O54 Cd44 2.297 . S
O54 C49 1.247 . S
O55 Cd44 2.439 . S
O55 C49 1.208 . S
O56 Cd57 2.223 . S
O56 C64 1.315 . S
Cd57 O56 2.223 . S
Cd57 O60 2.297 . S
Cd57 O61 2.439 . S
Cd57 O67 2.240 . S
Cd58 O59 2.240 . S
Cd58 O66 2.223 . S
Cd58 O68 2.297 . S
Cd58 O69 2.439 . S
O59 Cd58 2.240 . S
O59 C64 1.279 . S
O60 Cd57 2.297 . S
O60 C62 1.247 . S
O61 Cd57 2.439 . S
O61 C62 1.208 . S
C62 O60 1.247 . S
C62 O61 1.208 . S
C63 O68 1.247 . S
C63 O69 1.208 . S
C64 O56 1.315 . S
C64 O59 1.279 . S
C65 O66 1.315 . S
C65 O67 1.279 . S
O66 Cd58 2.223 . S
O66 C65 1.315 . S
O67 Cd57 2.240 . S
O67 C65 1.279 . S
O68 Cd58 2.297 . S
O68 C63 1.247 . S
O69 Cd58 2.439 . S
O69 C63 1.208 . S
O70 Cd71 2.223 . S
O70 C78 1.315 . S
Cd71 O70 2.223 . S
Cd71 O74 2.297 . S
Cd71 O75 2.439 . S
Cd71 O81 2.240 . S
Cd72 O73 2.240 . S
Cd72 O80 2.223 . S
Cd72 O82 2.297 . S
Cd72 O83 2.439 . S
O73 Cd72 2.240 . S
O73 C78 1.279 . S
O74 Cd71 2.297 . S
O74 C76 1.247 . S
O75 Cd71 2.439 . S
O75 C76 1.208 . S
C76 O74 1.247 . S
C76 O75 1.208 . S
C77 O82 1.247 . S
C77 O83 1.208 . S
C78 O70 1.315 . S
C78 O73 1.279 . S
C79 O80 1.315 . S
C79 O81 1.279 . S
O80 Cd72 2.223 . S
O80 C79 1.315 . S
O81 Cd71 2.240 . S
O81 C79 1.279 . S
O82 Cd72 2.297 . S
O82 C77 1.247 . S
O83 Cd72 2.439 . S
O83 C77 1.208 . S
O84 Cd85 2.223 . S
O84 C92 1.315 . S
Cd85 O84 2.223 . S
Cd85 O88 2.297 . S
Cd85 O89 2.439 1_655 S
Cd85 O95 2.240 . S
Cd86 O87 2.240 . S
Cd86 O94 2.223 1_455 S
Cd86 O96 2.297 . S
Cd86 O97 2.439 . S
O87 Cd86 2.240 . S
O87 C92 1.279 1_455 S
O88 Cd85 2.297 . S
O88 C90 1.247 1_655 S
O89 Cd85 2.439 1_455 S
O89 C90 1.208 . S
C90 O88 1.247 1_455 S
C90 O89 1.208 . S
C91 O96 1.247 . S
C91 O97 1.208 . S
C92 O84 1.315 . S
C92 O87 1.279 1_655 S
C93 O94 1.315 . S
C93 O95 1.279 . S
O94 Cd86 2.223 1_655 S
O94 C93 1.315 . S
O95 Cd85 2.240 . S
O95 C93 1.279 . S
O96 Cd86 2.297 . S
O96 C91 1.247 . S
O97 Cd86 2.439 . S
O97 C91 1.208 . S
O98 Cd99 2.223 . S
O98 C106 1.315 . S
Cd99 O98 2.223 . S
Cd99 O102 2.297 . S
Cd99 O103 2.439 . S
Cd99 O109 2.240 . S
Cd100 O101 2.240 . S
Cd100 O108 2.223 . S
Cd100 O110 2.297 . S
Cd100 O111 2.439 . S
O101 Cd100 2.240 . S
O101 C106 1.279 . S
O102 Cd99 2.297 . S
O102 C104 1.247 . S
O103 Cd99 2.439 . S
O103 C104 1.208 . S
C104 O102 1.247 . S
C104 O103 1.208 . S
C105 O110 1.247 . S
C105 O111 1.208 . S
C106 O98 1.315 . S
C106 O101 1.279 . S
C107 O108 1.315 . S
C107 O109 1.279 . S
O108 Cd100 2.223 . S
O108 C107 1.315 . S
O109 Cd99 2.240 . S
O109 C107 1.279 . S
O110 Cd100 2.297 . S
O110 C105 1.247 . S
O111 Cd100 2.439 . S
O111 C105 1.208 . S
O112 Cd113 2.223 . S
O112 C120 1.315 . S
Cd113 O112 2.223 . S
Cd113 O116 2.297 . S
Cd113 O117 2.439 1_545 S
Cd113 O123 2.240 . S
Cd114 O115 2.240 . S
Cd114 O122 2.223 1_565 S
Cd114 O124 2.297 . S
Cd114 O125 2.439 . S
O115 Cd114 2.240 . S
O115 C120 1.279 1_565 S
O116 Cd113 2.297 . S
O116 C118 1.247 1_545 S
O117 Cd113 2.439 1_565 S
O117 C118 1.208 . S
C118 O116 1.247 1_565 S
C118 O117 1.208 . S
C119 O124 1.247 . S
C119 O125 1.208 . S
C120 O112 1.315 . S
C120 O115 1.279 1_545 S
C121 O122 1.315 . S
C121 O123 1.279 . S
O122 Cd114 2.223 1_545 S
O122 C121 1.315 . S
O123 Cd113 2.240 . S
O123 C121 1.279 . S
O124 Cd114 2.297 . S
O124 C119 1.247 . S
O125 Cd114 2.439 . S
O125 C119 1.208 . S
O126 Cd127 2.223 . S
O126 C134 1.315 . S
Cd127 O126 2.223 . S
Cd127 O130 2.297 . S
Cd127 O131 2.439 . S
Cd127 O137 2.240 . S
Cd128 O129 2.240 . S
Cd128 O136 2.223 . S
Cd128 O138 2.297 . S
Cd128 O139 2.439 . S
O129 Cd128 2.240 . S
O129 C134 1.279 . S
O130 Cd127 2.297 . S
O130 C132 1.247 . S
O131 Cd127 2.439 . S
O131 C132 1.208 . S
C132 O130 1.247 . S
C132 O131 1.208 . S
C133 O138 1.247 . S
C133 O139 1.208 . S
C134 O126 1.315 . S
C134 O129 1.279 . S
C135 O136 1.315 . S
C135 O137 1.279 . S
O136 Cd128 2.223 . S
O136 C135 1.315 . S
O137 Cd127 2.240 . S
O137 C135 1.279 . S
O138 Cd128 2.297 . S
O138 C133 1.247 . S
O139 Cd128 2.439 . S
O139 C133 1.208 . S
O140 Cd141 2.223 . S
O140 C148 1.315 . S
Cd141 O140 2.223 . S
Cd141 O144 2.297 . S
Cd141 O145 2.439 . S
Cd141 O151 2.240 . S
Cd142 O143 2.240 . S
Cd142 O150 2.223 . S
Cd142 O152 2.297 1_545 S
Cd142 O153 2.439 1_545 S
O143 Cd142 2.240 . S
O143 C148 1.279 . S
O144 Cd141 2.297 . S
O144 C146 1.247 . S
O145 Cd141 2.439 . S
O145 C146 1.208 . S
C146 O144 1.247 . S
C146 O145 1.208 . S
C147 O152 1.247 . S
C147 O153 1.208 . S
C148 O140 1.315 . S
C148 O143 1.279 . S
C149 O150 1.315 . S
C149 O151 1.279 . S
O150 Cd142 2.223 . S
O150 C149 1.315 . S
O151 Cd141 2.240 . S
O151 C149 1.279 . S
O152 Cd142 2.297 1_565 S
O152 C147 1.247 . S
O153 Cd142 2.439 1_565 S
O153 C147 1.208 . S
O154 Cd155 2.223 . S
O154 C162 1.315 . S
Cd155 O154 2.223 . S
Cd155 O158 2.297 . S
Cd155 O159 2.439 . S
Cd155 O165 2.240 . S
Cd156 O157 2.240 . S
Cd156 O164 2.223 . S
Cd156 O166 2.297 1_655 S
Cd156 O167 2.439 1_655 S
O157 Cd156 2.240 . S
O157 C162 1.279 . S
O158 Cd155 2.297 . S
O158 C160 1.247 . S
O159 Cd155 2.439 . S
O159 C160 1.208 . S
C160 O158 1.247 . S
C160 O159 1.208 . S
C161 O166 1.247 . S
C161 O167 1.208 . S
C162 O154 1.315 . S
C162 O157 1.279 . S
C163 O164 1.315 . S
C163 O165 1.279 . S
O164 Cd156 2.223 . S
O164 C163 1.315 . S
O165 Cd155 2.240 . S
O165 C163 1.279 . S
O166 Cd156 2.297 1_455 S
O166 C161 1.247 . S
O167 Cd156 2.439 1_455 S
O167 C161 1.208 . S
O168 Cd169 2.223 . S
O168 C176 1.315 . S
Cd169 O168 2.223 . S
Cd169 O172 2.297 . S
Cd169 O173 2.439 . S
Cd169 O179 2.240 . S
Cd170 O171 2.240 . S
Cd170 O178 2.223 . S
Cd170 O180 2.297 . S
Cd170 O181 2.439 . S
O171 Cd170 2.240 . S
O171 C176 1.279 . S
O172 Cd169 2.297 . S
O172 C174 1.247 . S
O173 Cd169 2.439 . S
O173 C174 1.208 . S
C174 O172 1.247 . S
C174 O173 1.208 . S
C175 O180 1.247 . S
C175 O181 1.208 . S
C176 O168 1.315 . S
C176 O171 1.279 . S
C177 O178 1.315 . S
C177 O179 1.279 . S
O178 Cd170 2.223 . S
O178 C177 1.315 . S
O179 Cd169 2.240 . S
O179 C177 1.279 . S
O180 Cd170 2.297 . S
O180 C175 1.247 . S
O181 Cd170 2.439 . S
O181 C175 1.208 . S
O182 Cd183 2.223 . S
O182 C190 1.315 . S
Cd183 O182 2.223 . S
Cd183 O186 2.297 . S
Cd183 O187 2.439 . S
Cd183 O193 2.240 . S
Cd184 O185 2.240 . S
Cd184 O192 2.223 . S
Cd184 O194 2.297 1_565 S
Cd184 O195 2.439 1_565 S
O185 Cd184 2.240 . S
O185 C190 1.279 . S
O186 Cd183 2.297 . S
O186 C188 1.247 . S
O187 Cd183 2.439 . S
O187 C188 1.208 . S
C188 O186 1.247 . S
C188 O187 1.208 . S
C189 O194 1.247 . S
C189 O195 1.208 . S
C190 O182 1.315 . S
C190 O185 1.279 . S
C191 O192 1.315 . S
C191 O193 1.279 . S
O192 Cd184 2.223 . S
O192 C191 1.315 . S
O193 Cd183 2.240 . S
O193 C191 1.279 . S
O194 Cd184 2.297 1_545 S
O194 C189 1.247 . S
O195 Cd184 2.439 1_545 S
O195 C189 1.208 . S
O196 Cd197 2.223 . S
O196 C204 1.315 . S
Cd197 O196 2.223 . S
Cd197 O200 2.297 . S
Cd197 O201 2.439 . S
Cd197 O207 2.240 . S
Cd198 O199 2.240 . S
Cd198 O206 2.223 . S
Cd198 O208 2.297 1_455 S
Cd198 O209 2.439 1_455 S
O199 Cd198 2.240 . S
O199 C204 1.279 . S
O200 Cd197 2.297 . S
O200 C202 1.247 . S
O201 Cd197 2.439 . S
O201 C202 1.208 . S
C202 O200 1.247 . S
C202 O201 1.208 . S
C203 O208 1.247 . S
C203 O209 1.208 . S
C204 O196 1.315 . S
C204 O199 1.279 . S
C205 O206 1.315 . S
C205 O207 1.279 . S
O206 Cd198 2.223 . S
O206 C205 1.315 . S
O207 Cd197 2.240 . S
O207 C205 1.279 . S
O208 Cd198 2.297 1_655 S
O208 C203 1.247 . S
O209 Cd198 2.439 1_655 S
O209 C203 1.208 . S
O210 Cd211 2.223 . S
O210 C218 1.315 . S
Cd211 O210 2.223 . S
Cd211 O214 2.297 . S
Cd211 O215 2.439 1_455 S
Cd211 O221 2.240 . S
Cd212 O213 2.240 . S
Cd212 O220 2.223 1_655 S
Cd212 O222 2.297 . S
Cd212 O223 2.439 . S
O213 Cd212 2.240 . S
O213 C218 1.279 1_655 S
O214 Cd211 2.297 . S
O214 C216 1.247 1_455 S
O215 Cd211 2.439 1_655 S
O215 C216 1.208 . S
C216 O214 1.247 1_655 S
C216 O215 1.208 . S
C217 O222 1.247 . S
C217 O223 1.208 . S
C218 O210 1.315 . S
C218 O213 1.279 1_455 S
C219 O220 1.315 . S
C219 O221 1.279 . S
O220 Cd212 2.223 1_455 S
O220 C219 1.315 . S
O221 Cd211 2.240 . S
O221 C219 1.279 . S
O222 Cd212 2.297 . S
O222 C217 1.247 . S
O223 Cd212 2.439 . S
O223 C217 1.208 . S
O224 Cd225 2.223 . S
O224 C232 1.315 . S
Cd225 O224 2.223 . S
Cd225 O228 2.297 . S
Cd225 O229 2.439 . S
Cd225 O235 2.240 . S
Cd226 O227 2.240 . S
Cd226 O234 2.223 . S
Cd226 O236 2.297 . S
Cd226 O237 2.439 . S
O227 Cd226 2.240 . S
O227 C232 1.279 . S
O228 Cd225 2.297 . S
O228 C230 1.247 . S
O229 Cd225 2.439 . S
O229 C230 1.208 . S
C230 O228 1.247 . S
C230 O229 1.208 . S
C231 O236 1.247 . S
C231 O237 1.208 . S
C232 O224 1.315 . S
C232 O227 1.279 . S
C233 O234 1.315 . S
C233 O235 1.279 . S
O234 Cd226 2.223 . S
O234 C233 1.315 . S
O235 Cd225 2.240 . S
O235 C233 1.279 . S
O236 Cd226 2.297 . S
O236 C231 1.247 . S
O237 Cd226 2.439 . S
O237 C231 1.208 . S
O238 Cd239 2.223 . S
O238 C246 1.315 . S
Cd239 O238 2.223 . S
Cd239 O242 2.297 . S
Cd239 O243 2.439 1_565 S
Cd239 O249 2.240 . S
Cd240 O241 2.240 . S
Cd240 O248 2.223 1_545 S
Cd240 O250 2.297 . S
Cd240 O251 2.439 . S
O241 Cd240 2.240 . S
O241 C246 1.279 1_545 S
O242 Cd239 2.297 . S
O242 C244 1.247 1_565 S
O243 Cd239 2.439 1_545 S
O243 C244 1.208 . S
C244 O242 1.247 1_545 S
C244 O243 1.208 . S
C245 O250 1.247 . S
C245 O251 1.208 . S
C246 O238 1.315 . S
C246 O241 1.279 1_565 S
C247 O248 1.315 . S
C247 O249 1.279 . S
O248 Cd240 2.223 1_565 S
O248 C247 1.315 . S
O249 Cd239 2.240 . S
O249 C247 1.279 . S
O250 Cd240 2.297 . S
O250 C245 1.247 . S
O251 Cd240 2.439 . S
O251 C245 1.208 . S
H252 C258 0.930 . S
H253 C262 0.930 . S
H254 C267 0.929 . S
H255 C265 0.929 . S
H256 C260 0.929 1_554 S
H257 C266 0.929 1_556 S
C258 H252 0.930 . S
C258 C259 1.367 . S
C258 C266 1.378 . S
C259 C258 1.367 . S
C259 C267 1.433 1_545 S
C260 H256 0.929 1_556 S
C260 C262 1.378 . S
C260 C264 1.350 . S
C261 C264 1.463 1_544 S
C261 C266 1.350 . S
C261 N269 1.427 1_545 S
C262 H253 0.930 . S
C262 C260 1.378 . S
C262 C263 1.367 . S
C263 C262 1.367 . S
C263 C265 1.433 1_565 S
C264 C260 1.350 . S
C264 C261 1.463 1_566 S
C264 N268 1.427 1_565 S
C265 H255 0.929 . S
C265 C263 1.433 1_545 S
C265 N268 1.384 . S
C266 H257 0.929 1_554 S
C266 C258 1.378 . S
C266 C261 1.350 . S
C267 H254 0.929 . S
C267 C259 1.433 1_565 S
C267 N269 1.384 . S
N268 C264 1.427 1_545 S
N268 C265 1.384 . S
N269 C261 1.427 1_565 S
N269 C267 1.384 . S
H270 C276 0.930 . S
H271 C280 0.930 . S
H272 C285 0.929 . S
H273 C283 0.929 . S
H274 C278 0.929 . S
H275 C284 0.929 . S
C276 H270 0.930 . S
C276 C277 1.367 1_455 S
C276 C284 1.378 . S
C277 C276 1.367 1_655 S
C277 C285 1.433 . S
C278 H274 0.929 . S
C278 C280 1.378 . S
C278 C282 1.350 1_655 S
C279 C282 1.463 1_654 S
C279 C284 1.350 1_655 S
C279 N287 1.427 1_554 S
C280 H271 0.930 . S
C280 C278 1.378 . S
C280 C281 1.367 1_655 S
C281 C280 1.367 1_455 S
C281 C283 1.433 . S
C282 C278 1.350 1_455 S
C282 C279 1.463 1_456 S
C282 N286 1.427 1_556 S
C283 H273 0.929 . S
C283 C281 1.433 . S
C283 N286 1.384 1_556 S
C284 H275 0.929 . S
C284 C276 1.378 . S
C284 C279 1.350 1_455 S
C285 H272 0.929 . S
C285 C277 1.433 . S
C285 N287 1.384 1_554 S
N286 C282 1.427 1_554 S
N286 C283 1.384 1_554 S
N287 C279 1.427 1_556 S
N287 C285 1.384 1_556 S
H288 C294 0.930 . S
H289 C298 0.930 . S
H290 C303 0.929 . S
H291 C301 0.929 . S
H292 C296 0.929 . S
H293 C302 0.929 . S
C294 H288 0.930 . S
C294 C295 1.367 . S
C294 C302 1.378 . S
C295 C294 1.367 . S
C295 C303 1.433 . S
C296 H292 0.929 . S
C296 C298 1.378 . S
C296 C300 1.350 . S
C297 C300 1.463 1_556 S
C297 C302 1.350 . S
C297 N305 1.427 . S
C298 H289 0.930 . S
C298 C296 1.378 . S
C298 C299 1.367 . S
C299 C298 1.367 . S
C299 C301 1.433 . S
C300 C296 1.350 . S
C300 C297 1.463 1_554 S
C300 N304 1.427 . S
C301 H291 0.929 . S
C301 C299 1.433 . S
C301 N304 1.384 . S
C302 H293 0.929 . S
C302 C294 1.378 . S
C302 C297 1.350 . S
C303 H290 0.929 . S
C303 C295 1.433 . S
C303 N305 1.384 . S
N304 C300 1.427 . S
N304 C301 1.384 . S
N305 C297 1.427 . S
N305 C303 1.384 . S
H306 C312 0.930 . S
H307 C316 0.930 . S
H308 C321 0.929 . S
H309 C319 0.929 . S
H310 C314 0.929 . S
H311 C320 0.929 . S
C312 H306 0.930 . S
C312 C313 1.367 . S
C312 C320 1.378 . S
C313 C312 1.367 . S
C313 C321 1.433 . S
C314 H310 0.929 . S
C314 C316 1.378 . S
C314 C318 1.350 . S
C315 C318 1.463 . S
C315 C320 1.350 . S
C315 N323 1.427 . S
C316 H307 0.930 . S
C316 C314 1.378 . S
C316 C317 1.367 . S
C317 C316 1.367 . S
C317 C319 1.433 . S
C318 C314 1.350 . S
C318 C315 1.463 . S
C318 N322 1.427 . S
C319 H309 0.929 . S
C319 C317 1.433 . S
C319 N322 1.384 . S
C320 H311 0.929 . S
C320 C312 1.378 . S
C320 C315 1.350 . S
C321 H308 0.929 . S
C321 C313 1.433 . S
C321 N323 1.384 . S
N322 C318 1.427 . S
N322 C319 1.384 . S
N323 C315 1.427 . S
N323 C321 1.384 . S
H324 C330 0.930 . S
H325 C334 0.930 . S
H326 C339 0.929 . S
H327 C337 0.929 . S
H328 C332 0.929 . S
H329 C338 0.929 . S
C330 H324 0.930 . S
C330 C331 1.367 . S
C330 C338 1.378 . S
C331 C330 1.367 . S
C331 C339 1.433 . S
C332 H328 0.929 . S
C332 C334 1.378 . S
C332 C336 1.350 . S
C333 C336 1.463 . S
C333 C338 1.350 . S
C333 N341 1.427 . S
C334 H325 0.930 . S
C334 C332 1.378 . S
C334 C335 1.367 . S
C335 C334 1.367 . S
C335 C337 1.433 . S
C336 C332 1.350 . S
C336 C333 1.463 . S
C336 N340 1.427 . S
C337 H327 0.929 . S
C337 C335 1.433 . S
C337 N340 1.384 . S
C338 H329 0.929 . S
C338 C330 1.378 . S
C338 C333 1.350 . S
C339 H326 0.929 . S
C339 C331 1.433 . S
C339 N341 1.384 . S
N340 C336 1.427 . S
N340 C337 1.384 . S
N341 C333 1.427 . S
N341 C339 1.384 . S
H342 C348 0.930 . S
H343 C352 0.930 . S
H344 C357 0.929 . S
H345 C355 0.929 . S
H346 C350 0.929 . S
H347 C356 0.929 . S
C348 H342 0.930 . S
C348 C349 1.367 . S
C348 C356 1.378 . S
C349 C348 1.367 . S
C349 C357 1.433 . S
C350 H346 0.929 . S
C350 C352 1.378 . S
C350 C354 1.350 . S
C351 C354 1.463 . S
C351 C356 1.350 . S
C351 N359 1.427 . S
C352 H343 0.930 . S
C352 C350 1.378 . S
C352 C353 1.367 . S
C353 C352 1.367 . S
C353 C355 1.433 . S
C354 C350 1.350 . S
C354 C351 1.463 . S
C354 N358 1.427 . S
C355 H345 0.929 . S
C355 C353 1.433 . S
C355 N358 1.384 . S
C356 H347 0.929 . S
C356 C348 1.378 . S
C356 C351 1.350 . S
C357 H344 0.929 . S
C357 C349 1.433 . S
C357 N359 1.384 . S
N358 C354 1.427 . S
N358 C355 1.384 . S
N359 C351 1.427 . S
N359 C357 1.384 . S
H360 C366 0.930 . S
H361 C370 0.930 . S
H362 C375 0.929 . S
H363 C373 0.929 . S
H364 C368 0.929 . S
H365 C374 0.929 . S
C366 H360 0.930 . S
C366 C367 1.367 . S
C366 C374 1.378 . S
C367 C366 1.367 . S
C367 C375 1.433 . S
C368 H364 0.929 . S
C368 C370 1.378 . S
C368 C372 1.350 . S
C369 C372 1.463 . S
C369 C374 1.350 . S
C369 N377 1.427 . S
C370 H361 0.930 . S
C370 C368 1.378 . S
C370 C371 1.367 . S
C371 C370 1.367 . S
C371 C373 1.433 . S
C372 C368 1.350 . S
C372 C369 1.463 . S
C372 N376 1.427 . S
C373 H363 0.929 . S
C373 C371 1.433 . S
C373 N376 1.384 . S
C374 H365 0.929 . S
C374 C366 1.378 . S
C374 C369 1.350 . S
C375 H362 0.929 . S
C375 C367 1.433 . S
C375 N377 1.384 . S
N376 C372 1.427 . S
N376 C373 1.384 . S
N377 C369 1.427 . S
N377 C375 1.384 . S
H378 C384 0.930 . S
H379 C388 0.930 . S
H380 C393 0.929 . S
H381 C391 0.929 . S
H382 C386 0.929 . S
H383 C392 0.929 . S
C384 H378 0.930 . S
C384 C385 1.367 . S
C384 C392 1.378 . S
C385 C384 1.367 . S
C385 C393 1.433 . S
C386 H382 0.929 . S
C386 C388 1.378 . S
C386 C390 1.350 . S
C387 C390 1.463 . S
C387 C392 1.350 . S
C387 N395 1.427 . S
C388 H379 0.930 . S
C388 C386 1.378 . S
C388 C389 1.367 . S
C389 C388 1.367 . S
C389 C391 1.433 . S
C390 C386 1.350 . S
C390 C387 1.463 . S
C390 N394 1.427 . S
C391 H381 0.929 . S
C391 C389 1.433 . S
C391 N394 1.384 . S
C392 H383 0.929 . S
C392 C384 1.378 . S
C392 C387 1.350 . S
C393 H380 0.929 . S
C393 C385 1.433 . S
C393 N395 1.384 . S
N394 C390 1.427 . S
N394 C391 1.384 . S
N395 C387 1.427 . S
N395 C393 1.384 . S
H396 C402 0.930 . S
H397 C406 0.930 . S
H398 C411 0.929 . S
H399 C409 0.929 . S
H400 C404 0.929 . S
H401 C410 0.929 . S
C402 H396 0.930 . S
C402 C403 1.367 . S
C402 C410 1.378 . S
C403 C402 1.367 . S
C403 C411 1.433 . S
C404 H400 0.929 . S
C404 C406 1.378 . S
C404 C408 1.350 . S
C405 C408 1.463 . S
C405 C410 1.350 . S
C405 N413 1.427 . S
C406 H397 0.930 . S
C406 C404 1.378 . S
C406 C407 1.367 . S
C407 C406 1.367 . S
C407 C409 1.433 . S
C408 C404 1.350 . S
C408 C405 1.463 . S
C408 N412 1.427 . S
C409 H399 0.929 . S
C409 C407 1.433 . S
C409 N412 1.384 . S
C410 H401 0.929 . S
C410 C402 1.378 . S
C410 C405 1.350 . S
C411 H398 0.929 . S
C411 C403 1.433 . S
C411 N413 1.384 . S
N412 C408 1.427 . S
N412 C409 1.384 . S
N413 C405 1.427 . S
N413 C411 1.384 . S
H414 C420 0.930 . S
H415 C424 0.930 . S
H416 C429 0.929 . S
H417 C427 0.929 . S
H418 C422 0.929 . S
H419 C428 0.929 . S
C420 H414 0.930 . S
C420 C421 1.367 . S
C420 C428 1.378 . S
C421 C420 1.367 . S
C421 C429 1.433 . S
C422 H418 0.929 . S
C422 C424 1.378 . S
C422 C426 1.350 . S
C423 C426 1.463 . S
C423 C428 1.350 . S
C423 N431 1.427 . S
C424 H415 0.930 . S
C424 C422 1.378 . S
C424 C425 1.367 . S
C425 C424 1.367 . S
C425 C427 1.433 . S
C426 C422 1.350 . S
C426 C423 1.463 . S
C426 N430 1.427 . S
C427 H417 0.929 . S
C427 C425 1.433 . S
C427 N430 1.384 . S
C428 H419 0.929 . S
C428 C420 1.378 . S
C428 C423 1.350 . S
C429 H416 0.929 . S
C429 C421 1.433 . S
C429 N431 1.384 . S
N430 C426 1.427 . S
N430 C427 1.384 . S
N431 C423 1.427 . S
N431 C429 1.384 . S
H432 C438 0.930 . S
H433 C442 0.930 . S
H434 C447 0.929 . S
H435 C445 0.929 . S
H436 C440 0.929 . S
H437 C446 0.929 . S
C438 H432 0.930 . S
C438 C439 1.367 . S
C438 C446 1.378 . S
C439 C438 1.367 . S
C439 C447 1.433 . S
C440 H436 0.929 . S
C440 C442 1.378 . S
C440 C444 1.350 . S
C441 C444 1.463 . S
C441 C446 1.350 . S
C441 N449 1.427 . S
C442 H433 0.930 . S
C442 C440 1.378 . S
C442 C443 1.367 . S
C443 C442 1.367 . S
C443 C445 1.433 . S
C444 C440 1.350 . S
C444 C441 1.463 . S
C444 N448 1.427 . S
C445 H435 0.929 . S
C445 C443 1.433 . S
C445 N448 1.384 . S
C446 H437 0.929 . S
C446 C438 1.378 . S
C446 C441 1.350 . S
C447 H434 0.929 . S
C447 C439 1.433 . S
C447 N449 1.384 . S
N448 C444 1.427 . S
N448 C445 1.384 . S
N449 C441 1.427 . S
N449 C447 1.384 . S
H450 C456 0.930 . S
H451 C460 0.930 . S
H452 C465 0.929 . S
H453 C463 0.929 . S
H454 C458 0.929 . S
H455 C464 0.929 . S
C456 H450 0.930 . S
C456 C457 1.367 . S
C456 C464 1.378 . S
C457 C456 1.367 . S
C457 C465 1.433 . S
C458 H454 0.929 . S
C458 C460 1.378 . S
C458 C462 1.350 . S
C459 C462 1.463 . S
C459 C464 1.350 . S
C459 N467 1.427 . S
C460 H451 0.930 . S
C460 C458 1.378 . S
C460 C461 1.367 . S
C461 C460 1.367 . S
C461 C463 1.433 . S
C462 C458 1.350 . S
C462 C459 1.463 . S
C462 N466 1.427 . S
C463 H453 0.929 . S
C463 C461 1.433 . S
C463 N466 1.384 . S
C464 H455 0.929 . S
C464 C456 1.378 . S
C464 C459 1.350 . S
C465 H452 0.929 . S
C465 C457 1.433 . S
C465 N467 1.384 . S
N466 C462 1.427 . S
N466 C463 1.384 . S
N467 C459 1.427 . S
N467 C465 1.384 . S
H468 C474 0.930 . S
H469 C478 0.930 . S
H470 C483 0.929 . S
H471 C481 0.929 . S
H472 C476 0.929 . S
H473 C482 0.929 . S
C474 H468 0.930 . S
C474 C475 1.367 . S
C474 C482 1.378 . S
C475 C474 1.367 . S
C475 C483 1.433 . S
C476 H472 0.929 . S
C476 C478 1.378 . S
C476 C480 1.350 . S
C477 C480 1.463 . S
C477 C482 1.350 . S
C477 N485 1.427 . S
C478 H469 0.930 . S
C478 C476 1.378 . S
C478 C479 1.367 . S
C479 C478 1.367 . S
C479 C481 1.433 . S
C480 C476 1.350 . S
C480 C477 1.463 . S
C480 N484 1.427 . S
C481 H471 0.929 . S
C481 C479 1.433 . S
C481 N484 1.384 . S
C482 H473 0.929 . S
C482 C474 1.378 . S
C482 C477 1.350 . S
C483 H470 0.929 . S
C483 C475 1.433 . S
C483 N485 1.384 . S
N484 C480 1.427 . S
N484 C481 1.384 . S
N485 C477 1.427 . S
N485 C483 1.384 . S
H486 C492 0.930 . S
H487 C496 0.930 . S
H488 C501 0.929 . S
H489 C499 0.929 . S
H490 C494 0.929 . S
H491 C500 0.929 . S
C492 H486 0.930 . S
C492 C493 1.367 . S
C492 C500 1.378 . S
C493 C492 1.367 . S
C493 C501 1.433 . S
C494 H490 0.929 . S
C494 C496 1.378 . S
C494 C498 1.350 . S
C495 C498 1.463 . S
C495 C500 1.350 . S
C495 N503 1.427 . S
C496 H487 0.930 . S
C496 C494 1.378 . S
C496 C497 1.367 . S
C497 C496 1.367 . S
C497 C499 1.433 . S
C498 C494 1.350 . S
C498 C495 1.463 . S
C498 N502 1.427 . S
C499 H489 0.929 . S
C499 C497 1.433 . S
C499 N502 1.384 . S
C500 H491 0.929 . S
C500 C492 1.378 . S
C500 C495 1.350 . S
C501 H488 0.929 . S
C501 C493 1.433 . S
C501 N503 1.384 . S
N502 C498 1.427 . S
N502 C499 1.384 . S
N503 C495 1.427 . S
N503 C501 1.384 . S
H504 C510 0.930 . S
H505 C514 0.930 . S
H506 C519 0.929 . S
H507 C517 0.929 . S
H508 C512 0.929 . S
H509 C518 0.929 . S
C510 H504 0.930 . S
C510 C511 1.367 . S
C510 C518 1.378 . S
C511 C510 1.367 . S
C511 C519 1.433 . S
C512 H508 0.929 . S
C512 C514 1.378 . S
C512 C516 1.350 . S
C513 C516 1.463 . S
C513 C518 1.350 . S
C513 N521 1.427 . S
C514 H505 0.930 . S
C514 C512 1.378 . S
C514 C515 1.367 . S
C515 C514 1.367 . S
C515 C517 1.433 . S
C516 C512 1.350 . S
C516 C513 1.463 . S
C516 N520 1.427 . S
C517 H507 0.929 . S
C517 C515 1.433 . S
C517 N520 1.384 . S
C518 H509 0.929 . S
C518 C510 1.378 . S
C518 C513 1.350 . S
C519 H506 0.929 . S
C519 C511 1.433 . S
C519 N521 1.384 . S
N520 C516 1.427 . S
N520 C517 1.384 . S
N521 C513 1.427 . S
N521 C519 1.384 . S
H522 C528 0.930 . S
H523 C532 0.930 . S
H524 C537 0.929 . S
H525 C535 0.929 . S
H526 C530 0.929 . S
H527 C536 0.929 . S
C528 H522 0.930 . S
C528 C529 1.367 1_655 S
C528 C536 1.378 . S
C529 C528 1.367 1_455 S
C529 C537 1.433 . S
C530 H526 0.929 . S
C530 C532 1.378 . S
C530 C534 1.350 1_455 S
C531 C534 1.463 1_455 S
C531 C536 1.350 1_455 S
C531 N539 1.427 . S
C532 H523 0.930 . S
C532 C530 1.378 . S
C532 C533 1.367 1_455 S
C533 C532 1.367 1_655 S
C533 C535 1.433 . S
C534 C530 1.350 1_655 S
C534 C531 1.463 1_655 S
C534 N538 1.427 . S
C535 H525 0.929 . S
C535 C533 1.433 . S
C535 N538 1.384 . S
C536 H527 0.929 . S
C536 C528 1.378 . S
C536 C531 1.350 1_655 S
C537 H524 0.929 . S
C537 C529 1.433 . S
C537 N539 1.384 . S
N538 C534 1.427 . S
N538 C535 1.384 . S
N539 C531 1.427 . S
N539 C537 1.384 . S
H540 C546 0.930 . S
H541 C550 0.930 . S
H542 C555 0.929 . S
H543 C553 0.929 . S
H544 C548 0.929 . S
H545 C554 0.929 . S
C546 H540 0.930 . S
C546 C547 1.367 . S
C546 C554 1.378 . S
C547 C546 1.367 . S
C547 C555 1.433 . S
C548 H544 0.929 . S
C548 C550 1.378 . S
C548 C552 1.350 . S
C549 C552 1.463 . S
C549 C554 1.350 . S
C549 N557 1.427 . S
C550 H541 0.930 . S
C550 C548 1.378 . S
C550 C551 1.367 . S
C551 C550 1.367 . S
C551 C553 1.433 . S
C552 C548 1.350 . S
C552 C549 1.463 . S
C552 N556 1.427 . S
C553 H543 0.929 . S
C553 C551 1.433 . S
C553 N556 1.384 . S
C554 H545 0.929 . S
C554 C546 1.378 . S
C554 C549 1.350 . S
C555 H542 0.929 . S
C555 C547 1.433 . S
C555 N557 1.384 . S
N556 C552 1.427 . S
N556 C553 1.384 . S
N557 C549 1.427 . S
N557 C555 1.384 . S
H558 C564 0.930 . S
H559 C568 0.930 . S
H560 C573 0.929 . S
H561 C571 0.929 . S
H562 C566 0.929 . S
H563 C572 0.929 . S
C564 H558 0.930 . S
C564 C565 1.367 . S
C564 C572 1.378 . S
C565 C564 1.367 . S
C565 C573 1.433 1_545 S
C566 H562 0.929 . S
C566 C568 1.378 . S
C566 C570 1.350 . S
C567 C570 1.463 1_545 S
C567 C572 1.350 . S
C567 N575 1.427 1_545 S
C568 H559 0.930 . S
C568 C566 1.378 . S
C568 C569 1.367 . S
C569 C568 1.367 . S
C569 C571 1.433 1_565 S
C570 C566 1.350 . S
C570 C567 1.463 1_565 S
C570 N574 1.427 1_565 S
C571 H561 0.929 . S
C571 C569 1.433 1_545 S
C571 N574 1.384 . S
C572 H563 0.929 . S
C572 C564 1.378 . S
C572 C567 1.350 . S
C573 H560 0.929 . S
C573 C565 1.433 1_565 S
C573 N575 1.384 . S
N574 C570 1.427 1_545 S
N574 C571 1.384 . S
N575 C567 1.427 1_565 S
N575 C573 1.384 . S
H576 C582 0.936 . S
H577 C586 0.930 . S
H578 C591 0.929 . S
H579 C589 0.929 . S
H580 C584 0.929 . S
H581 C590 0.929 . S
C582 H576 0.936 . S
C582 C583 1.367 . S
C582 C590 1.378 1_554 S
C583 C582 1.367 . S
C583 C591 1.433 . S
C584 H580 0.929 . S
C584 C586 1.378 1_554 S
C584 C588 1.350 1_554 S
C585 C588 1.463 1_554 S
C585 C590 1.350 1_554 S
C585 N593 1.427 . S
C586 H577 0.930 . S
C586 C584 1.378 1_556 S
C586 C587 1.367 . S
C587 C586 1.367 . S
C587 C589 1.433 . S
C588 C584 1.350 1_556 S
C588 C585 1.463 1_556 S
C588 N592 1.427 . S
C589 H579 0.929 . S
C589 C587 1.433 . S
C589 N592 1.384 . S
C590 H581 0.929 . S
C590 C582 1.378 1_556 S
C590 C585 1.350 1_556 S
C591 H578 0.929 . S
C591 C583 1.433 . S
C591 N593 1.384 . S
N592 C588 1.427 . S
N592 C589 1.384 . S
N593 C585 1.427 . S
N593 C591 1.384 . S
H594 C600 0.930 1_655 S
H595 C604 0.930 . S
H596 C609 0.929 . S
H597 C607 0.929 . S
H598 C602 0.909 1_554 S
H599 C608 0.929 . S
C600 H594 0.930 1_455 S
C600 C601 1.367 . S
C600 C608 1.378 1_554 S
C601 C600 1.367 . S
C601 C609 1.433 . S
C602 H598 0.909 1_556 S
C602 C604 1.391 . S
C602 C606 1.358 . S
C603 C606 1.463 1_554 S
C603 C608 1.350 1_554 S
C603 N611 1.427 . S
C604 H595 0.930 . S
C604 C602 1.391 . S
C604 C605 1.367 . S
C605 C604 1.367 . S
C605 C607 1.433 . S
C606 C602 1.358 . S
C606 C603 1.463 1_556 S
C606 N610 1.427 . S
C607 H597 0.929 . S
C607 C605 1.433 . S
C607 N610 1.384 . S
C608 H599 0.929 . S
C608 C600 1.378 1_556 S
C608 C603 1.350 1_556 S
C609 H596 0.929 . S
C609 C601 1.433 . S
C609 N611 1.384 . S
N610 C606 1.427 . S
N610 C607 1.384 . S
N611 C603 1.427 . S
N611 C609 1.384 . S
H612 C618 0.930 . S
H613 C622 0.930 . S
H614 C627 0.929 . S
H615 C625 0.929 . S
H616 C620 0.929 1_554 S
H617 C626 0.929 1_556 S
C618 H612 0.930 . S
C618 C619 1.367 . S
C618 C626 1.378 . S
C619 C618 1.367 . S
C619 C627 1.433 . S
C620 H616 0.929 1_556 S
C620 C622 1.378 . S
C620 C624 1.350 . S
C621 C624 1.463 1_554 S
C621 C626 1.350 . S
C621 N629 1.427 . S
C622 H613 0.930 . S
C622 C620 1.378 . S
C622 C623 1.367 . S
C623 C622 1.367 . S
C623 C625 1.433 . S
C624 C620 1.350 . S
C624 C621 1.463 1_556 S
C624 N628 1.427 . S
C625 H615 0.929 . S
C625 C623 1.433 . S
C625 N628 1.384 . S
C626 H617 0.929 1_554 S
C626 C618 1.378 . S
C626 C621 1.350 . S
C627 H614 0.929 . S
C627 C619 1.433 . S
C627 N629 1.384 . S
N628 C624 1.427 . S
N628 C625 1.384 . S
N629 C621 1.427 . S
N629 C627 1.384 . S
H630 C636 0.930 . S
H631 C640 0.930 . S
H632 C645 0.929 . S
H633 C643 0.929 . S
H634 C638 0.929 . S
H635 C644 0.919 1_554 S
C636 H630 0.930 . S
C636 C637 1.367 . S
C636 C644 1.378 . S
C637 C636 1.367 . S
C637 C645 1.433 . S
C638 H634 0.929 . S
C638 C640 1.378 . S
C638 C642 1.350 . S
C639 C642 1.463 1_556 S
C639 C644 1.350 . S
C639 N647 1.427 . S
C640 H631 0.930 . S
C640 C638 1.378 . S
C640 C641 1.367 . S
C641 C640 1.367 . S
C641 C643 1.433 . S
C642 C638 1.350 . S
C642 C639 1.463 1_554 S
C642 N646 1.427 . S
C643 H633 0.929 . S
C643 C641 1.433 . S
C643 N646 1.384 . S
C644 H635 0.919 1_556 S
C644 C636 1.378 . S
C644 C639 1.350 . S
C645 H632 0.929 . S
C645 C637 1.433 . S
C645 N647 1.384 . S
N646 C642 1.427 . S
N646 C643 1.384 . S
N647 C639 1.427 . S
N647 C645 1.384 . S
H648 C654 0.930 . S
H649 C658 0.930 . S
H650 C663 0.929 . S
H651 C661 0.929 1_455 S
H652 C656 0.929 . S
H653 C662 0.929 . S
C654 H648 0.930 . S
C654 C655 1.367 . S
C654 C662 1.378 . S
C655 C654 1.367 . S
C655 C663 1.433 . S
C656 H652 0.929 . S
C656 C658 1.378 . S
C656 C660 1.350 . S
C657 C660 1.463 1_554 S
C657 C662 1.350 . S
C657 N665 1.433 . S
C658 H649 0.930 . S
C658 C656 1.378 . S
C658 C659 1.367 . S
C659 C658 1.367 . S
C659 C661 1.433 . S
C660 C656 1.350 . S
C660 C657 1.463 1_556 S
C660 N664 1.427 1_556 S
C661 H651 0.929 1_655 S
C661 C659 1.433 . S
C661 N664 1.384 1_556 S
C662 H653 0.929 . S
C662 C654 1.378 . S
C662 C657 1.350 . S
C663 H650 0.929 . S
C663 C655 1.433 . S
C663 N665 1.392 . S
N664 C660 1.427 1_554 S
N664 C661 1.384 1_554 S
N665 C657 1.433 . S
N665 C663 1.392 . S
H666 C672 0.938 . S
H667 C676 0.930 1_556 S
H668 C681 0.929 . S
H669 C679 0.929 . S
H670 C674 0.929 . S
H671 C680 0.929 . S
C672 H666 0.938 . S
C672 C673 1.354 1_554 S
C672 C680 1.383 . S
C673 C672 1.354 1_556 S
C673 C681 1.433 . S
C674 H670 0.929 . S
C674 C676 1.378 1_556 S
C674 C678 1.350 1_556 S
C675 C678 1.463 1_556 S
C675 C680 1.350 1_556 S
C675 N683 1.427 . S
C676 H667 0.930 1_554 S
C676 C674 1.378 1_554 S
C676 C677 1.367 . S
C677 C676 1.367 . S
C677 C679 1.433 . S
C678 C674 1.350 1_554 S
C678 C675 1.463 1_554 S
C678 N682 1.427 . S
C679 H669 0.929 . S
C679 C677 1.433 . S
C679 N682 1.384 . S
C680 H671 0.929 . S
C680 C672 1.383 . S
C680 C675 1.350 1_554 S
C681 H668 0.929 . S
C681 C673 1.433 . S
C681 N683 1.384 . S
N682 C678 1.427 . S
N682 C679 1.384 . S
N683 C675 1.427 . S
N683 C681 1.384 . S
H684 C690 0.930 . S
H685 C694 0.930 . S
H686 C699 0.929 . S
H687 C697 0.929 . S
H688 C692 0.929 . S
H689 C698 0.929 . S
C690 H684 0.930 . S
C690 C691 1.367 . S
C690 C698 1.378 . S
C691 C690 1.367 . S
C691 C699 1.433 . S
C692 H688 0.929 . S
C692 C694 1.378 . S
C692 C696 1.350 . S
C693 C696 1.463 . S
C693 C698 1.350 . S
C693 N701 1.427 . S
C694 H685 0.930 . S
C694 C692 1.378 . S
C694 C695 1.367 . S
C695 C694 1.367 . S
C695 C697 1.433 . S
C696 C692 1.350 . S
C696 C693 1.463 . S
C696 N700 1.427 . S
C697 H687 0.929 . S
C697 C695 1.433 . S
C697 N700 1.384 . S
C698 H689 0.929 . S
C698 C690 1.378 . S
C698 C693 1.350 . S
C699 H686 0.929 . S
C699 C691 1.433 . S
C699 N701 1.384 . S
N700 C696 1.427 . S
N700 C697 1.384 . S
N701 C693 1.427 . S
N701 C699 1.384 . S
H702 C708 0.930 . S
H703 C712 0.930 . S
H704 C717 0.929 . S
H705 C715 0.929 . S
H706 C710 0.929 . S
H707 C716 0.929 . S
C708 H702 0.930 . S
C708 C709 1.367 . S
C708 C716 1.378 . S
C709 C708 1.367 . S
C709 C717 1.433 . S
C710 H706 0.929 . S
C710 C712 1.378 . S
C710 C714 1.350 . S
C711 C714 1.463 . S
C711 C716 1.350 . S
C711 N719 1.427 . S
C712 H703 0.930 . S
C712 C710 1.378 . S
C712 C713 1.367 . S
C713 C712 1.367 . S
C713 C715 1.433 . S
C714 C710 1.350 . S
C714 C711 1.463 . S
C714 N718 1.427 . S
C715 H705 0.929 . S
C715 C713 1.433 . S
C715 N718 1.384 . S
C716 H707 0.929 . S
C716 C708 1.378 . S
C716 C711 1.350 . S
C717 H704 0.929 . S
C717 C709 1.433 . S
C717 N719 1.384 . S
N718 C714 1.427 . S
N718 C715 1.384 . S
N719 C711 1.427 . S
N719 C717 1.384 . S
H720 C726 0.930 . S
H721 C730 0.930 . S
H722 C735 0.929 . S
H723 C733 0.929 . S
H724 C728 0.929 . S
H725 C734 0.929 . S
C726 H720 0.930 . S
C726 C727 1.367 . S
C726 C734 1.378 . S
C727 C726 1.367 . S
C727 C735 1.433 . S
C728 H724 0.929 . S
C728 C730 1.378 . S
C728 C732 1.350 . S
C729 C732 1.463 . S
C729 C734 1.350 . S
C729 N737 1.427 . S
C730 H721 0.930 . S
C730 C728 1.378 . S
C730 C731 1.367 . S
C731 C730 1.367 . S
C731 C733 1.433 . S
C732 C728 1.350 . S
C732 C729 1.463 . S
C732 N736 1.427 . S
C733 H723 0.929 . S
C733 C731 1.433 . S
C733 N736 1.384 . S
C734 H725 0.929 . S
C734 C726 1.378 . S
C734 C729 1.350 . S
C735 H722 0.929 . S
C735 C727 1.433 . S
C735 N737 1.384 . S
N736 C732 1.427 . S
N736 C733 1.384 . S
N737 C729 1.427 . S
N737 C735 1.384 . S
H738 C744 0.930 . S
H739 C748 0.930 . S
H740 C753 0.929 . S
H741 C751 0.929 . S
H742 C746 0.929 . S
H743 C752 0.929 . S
C744 H738 0.930 . S
C744 C745 1.367 . S
C744 C752 1.378 . S
C745 C744 1.367 . S
C745 C753 1.433 . S
C746 H742 0.929 . S
C746 C748 1.378 . S
C746 C750 1.350 . S
C747 C750 1.463 . S
C747 C752 1.350 . S
C747 N755 1.427 . S
C748 H739 0.930 . S
C748 C746 1.378 . S
C748 C749 1.367 . S
C749 C748 1.367 . S
C749 C751 1.433 . S
C750 C746 1.350 . S
C750 C747 1.463 . S
C750 N754 1.427 . S
C751 H741 0.929 . S
C751 C749 1.433 . S
C751 N754 1.384 . S
C752 H743 0.929 . S
C752 C744 1.378 . S
C752 C747 1.350 . S
C753 H740 0.929 . S
C753 C745 1.433 . S
C753 N755 1.384 . S
N754 C750 1.427 . S
N754 C751 1.384 . S
N755 C747 1.427 . S
N755 C753 1.384 . S
H756 C762 0.930 . S
H757 C766 0.930 . S
H758 C771 0.929 . S
H759 C769 0.929 . S
H760 C764 0.929 . S
H761 C770 0.929 . S
C762 H756 0.930 . S
C762 C763 1.367 . S
C762 C770 1.378 . S
C763 C762 1.367 . S
C763 C771 1.433 . S
C764 H760 0.929 . S
C764 C766 1.378 . S
C764 C768 1.350 . S
C765 C768 1.463 . S
C765 C770 1.350 . S
C765 N773 1.427 . S
C766 H757 0.930 . S
C766 C764 1.378 . S
C766 C767 1.367 . S
C767 C766 1.367 . S
C767 C769 1.433 . S
C768 C764 1.350 . S
C768 C765 1.463 . S
C768 N772 1.427 . S
C769 H759 0.929 . S
C769 C767 1.433 . S
C769 N772 1.384 . S
C770 H761 0.929 . S
C770 C762 1.378 . S
C770 C765 1.350 . S
C771 H758 0.929 . S
C771 C763 1.433 . S
C771 N773 1.384 . S
N772 C768 1.427 . S
N772 C769 1.384 . S
N773 C765 1.427 . S
N773 C771 1.384 . S
H774 C780 0.930 . S
H775 C784 0.930 . S
H776 C789 0.929 . S
H777 C787 0.929 . S
H778 C782 0.929 . S
H779 C788 0.929 . S
C780 H774 0.930 . S
C780 C781 1.367 . S
C780 C788 1.378 . S
C781 C780 1.367 . S
C781 C789 1.433 . S
C782 H778 0.929 . S
C782 C784 1.378 . S
C782 C786 1.350 . S
C783 C786 1.463 . S
C783 C788 1.350 . S
C783 N791 1.427 . S
C784 H775 0.930 . S
C784 C782 1.378 . S
C784 C785 1.367 . S
C785 C784 1.367 . S
C785 C787 1.433 . S
C786 C782 1.350 . S
C786 C783 1.463 . S
C786 N790 1.427 . S
C787 H777 0.929 . S
C787 C785 1.433 . S
C787 N790 1.384 . S
C788 H779 0.929 . S
C788 C780 1.378 . S
C788 C783 1.350 . S
C789 H776 0.929 . S
C789 C781 1.433 . S
C789 N791 1.384 . S
N790 C786 1.427 . S
N790 C787 1.384 . S
N791 C783 1.427 . S
N791 C789 1.384 . S
H792 C798 0.930 . S
H793 C802 0.930 . S
H794 C807 0.929 . S
H795 C805 0.929 . S
H796 C800 0.929 . S
H797 C806 0.929 . S
C798 H792 0.930 . S
C798 C799 1.367 . S
C798 C806 1.378 . S
C799 C798 1.367 . S
C799 C807 1.433 . S
C800 H796 0.929 . S
C800 C802 1.378 . S
C800 C804 1.350 . S
C801 C804 1.463 . S
C801 C806 1.350 . S
C801 N809 1.427 . S
C802 H793 0.930 . S
C802 C800 1.378 . S
C802 C803 1.367 . S
C803 C802 1.367 . S
C803 C805 1.433 . S
C804 C800 1.350 . S
C804 C801 1.463 . S
C804 N808 1.427 . S
C805 H795 0.929 . S
C805 C803 1.433 . S
C805 N808 1.384 . S
C806 H797 0.929 . S
C806 C798 1.378 . S
C806 C801 1.350 . S
C807 H794 0.929 . S
C807 C799 1.433 . S
C807 N809 1.384 . S
N808 C804 1.427 . S
N808 C805 1.384 . S
N809 C801 1.427 . S
N809 C807 1.384 . S
H810 C816 0.930 . S
H811 C820 0.930 . S
H812 C825 0.929 . S
H813 C823 0.929 . S
H814 C818 0.929 . S
H815 C824 0.929 . S
C816 H810 0.930 . S
C816 C817 1.367 . S
C816 C824 1.378 . S
C817 C816 1.367 . S
C817 C825 1.433 . S
C818 H814 0.929 . S
C818 C820 1.378 . S
C818 C822 1.350 . S
C819 C822 1.463 . S
C819 C824 1.350 . S
C819 N827 1.427 . S
C820 H811 0.930 . S
C820 C818 1.378 . S
C820 C821 1.367 . S
C821 C820 1.367 . S
C821 C823 1.433 . S
C822 C818 1.350 . S
C822 C819 1.463 . S
C822 N826 1.427 . S
C823 H813 0.929 . S
C823 C821 1.433 . S
C823 N826 1.384 . S
C824 H815 0.929 . S
C824 C816 1.378 . S
C824 C819 1.350 . S
C825 H812 0.929 . S
C825 C817 1.433 . S
C825 N827 1.384 . S
N826 C822 1.427 . S
N826 C823 1.384 . S
N827 C819 1.427 . S
N827 C825 1.384 . S
H828 C834 0.930 . S
H829 C838 0.930 . S
H830 C843 0.929 . S
H831 C841 0.929 . S
H832 C836 0.929 . S
H833 C842 0.929 . S
C834 H828 0.930 . S
C834 C835 1.367 . S
C834 C842 1.378 . S
C835 C834 1.367 . S
C835 C843 1.433 . S
C836 H832 0.929 . S
C836 C838 1.378 . S
C836 C840 1.350 . S
C837 C840 1.463 . S
C837 C842 1.350 . S
C837 N845 1.427 . S
C838 H829 0.930 . S
C838 C836 1.378 . S
C838 C839 1.367 . S
C839 C838 1.367 . S
C839 C841 1.433 . S
C840 C836 1.350 . S
C840 C837 1.463 . S
C840 N844 1.427 . S
C841 H831 0.929 . S
C841 C839 1.433 . S
C841 N844 1.384 . S
C842 H833 0.929 . S
C842 C834 1.378 . S
C842 C837 1.350 . S
C843 H830 0.929 . S
C843 C835 1.433 . S
C843 N845 1.384 . S
N844 C840 1.427 . S
N844 C841 1.384 . S
N845 C837 1.427 . S
N845 C843 1.384 . S
H846 C852 0.930 . S
H847 C856 0.930 . S
H848 C861 0.929 . S
H849 C859 0.929 . S
H850 C854 0.929 . S
H851 C860 0.929 . S
C852 H846 0.930 . S
C852 C853 1.367 . S
C852 C860 1.378 . S
C853 C852 1.367 . S
C853 C861 1.433 . S
C854 H850 0.929 . S
C854 C856 1.378 . S
C854 C858 1.350 . S
C855 C858 1.463 . S
C855 C860 1.350 . S
C855 N863 1.427 . S
C856 H847 0.930 . S
C856 C854 1.378 . S
C856 C857 1.367 . S
C857 C856 1.367 . S
C857 C859 1.433 . S
C858 C854 1.350 . S
C858 C855 1.463 . S
C858 N862 1.427 . S
C859 H849 0.929 . S
C859 C857 1.433 . S
C859 N862 1.384 . S
C860 H851 0.929 . S
C860 C852 1.378 . S
C860 C855 1.350 . S
C861 H848 0.929 . S
C861 C853 1.433 . S
C861 N863 1.384 . S
N862 C858 1.427 . S
N862 C859 1.384 . S
N863 C855 1.427 . S
N863 C861 1.384 . S
H864 C870 0.930 . S
H865 C874 0.930 . S
H866 C879 0.929 . S
H867 C877 0.929 . S
H868 C872 0.929 . S
H869 C878 0.929 . S
C870 H864 0.930 . S
C870 C871 1.367 . S
C870 C878 1.378 . S
C871 C870 1.367 . S
C871 C879 1.433 . S
C872 H868 0.929 . S
C872 C874 1.378 . S
C872 C876 1.350 . S
C873 C876 1.463 . S
C873 C878 1.350 . S
C873 N881 1.427 . S
C874 H865 0.930 . S
C874 C872 1.378 . S
C874 C875 1.367 . S
C875 C874 1.367 . S
C875 C877 1.433 . S
C876 C872 1.350 . S
C876 C873 1.463 . S
C876 N880 1.427 . S
C877 H867 0.929 . S
C877 C875 1.433 . S
C877 N880 1.384 . S
C878 H869 0.929 . S
C878 C870 1.378 . S
C878 C873 1.350 . S
C879 H866 0.929 . S
C879 C871 1.433 . S
C879 N881 1.384 . S
N880 C876 1.427 . S
N880 C877 1.384 . S
N881 C873 1.427 . S
N881 C879 1.384 . S
H882 C888 0.930 . S
H883 C892 0.930 . S
H884 C897 0.929 . S
H885 C895 0.929 . S
H886 C890 0.929 . S
H887 C896 0.929 . S
C888 H882 0.930 . S
C888 C889 1.367 . S
C888 C896 1.378 . S
C889 C888 1.367 . S
C889 C897 1.433 . S
C890 H886 0.929 . S
C890 C892 1.378 . S
C890 C894 1.350 . S
C891 C894 1.463 . S
C891 C896 1.350 . S
C891 N899 1.427 . S
C892 H883 0.930 . S
C892 C890 1.378 . S
C892 C893 1.367 . S
C893 C892 1.367 . S
C893 C895 1.433 . S
C894 C890 1.350 . S
C894 C891 1.463 . S
C894 N898 1.427 . S
C895 H885 0.929 . S
C895 C893 1.433 . S
C895 N898 1.384 . S
C896 H887 0.929 . S
C896 C888 1.378 . S
C896 C891 1.350 . S
C897 H884 0.929 . S
C897 C889 1.433 . S
C897 N899 1.384 . S
N898 C894 1.427 . S
N898 C895 1.384 . S
N899 C891 1.427 . S
N899 C897 1.384 . S
C259 C7 1.911 . S
C263 C49 1.911 . S
C277 C21 1.931 . S
C281 C63 1.931 . S
C295 C77 1.917 . S
C299 C35 1.917 . S
C313 C91 1.901 . S
C317 C133 1.900 . S
C331 C105 1.923 . S
C335 C147 1.923 . S
C349 C161 1.883 . S
C353 C119 1.884 . S
C367 C217 1.902 . S
C371 C175 1.901 . S
C385 C231 1.926 . S
C389 C189 1.925 . S
C403 C245 1.880 . S
C407 C203 1.878 . S
C421 C6 1.480 . S
C425 C132 1.479 . S
C439 C20 1.484 . S
C443 C146 1.484 . S
C457 C160 1.476 . S
C461 C34 1.475 . S
C475 C48 1.476 . S
C479 C174 1.476 . S
C493 C62 1.480 . S
C497 C188 1.480 . S
C511 C76 1.487 . S
C515 C202 1.488 . S
C529 C90 1.490 . S
C533 C216 1.491 . S
C547 C104 1.474 . S
C551 C230 1.474 . S
C565 C244 1.480 . S
C569 C118 1.477 . S
C583 C9 0.892 1_565 S
C587 C64 0.904 . S
C601 C23 0.895 1_455 S
C605 C78 0.897 . S
C619 C37 0.903 . S
C623 C50 0.901 . S
C637 C51 0.893 1_545 S
C641 C22 0.900 . S
C655 C36 0.888 . S
C659 C65 0.892 1_655 S
C673 C79 0.895 . S
C677 C8 0.907 . S
C691 C93 0.951 . S
C695 C148 0.957 . S
C709 C162 0.897 . S
C713 C107 0.885 . S
C727 C134 0.947 . S
C731 C121 0.942 . S
C745 C106 0.892 . S
C749 C135 0.902 . S
C763 C149 0.903 . S
C767 C120 0.912 . S
C781 C163 0.874 . S
C785 C92 0.863 . S
C799 C232 0.906 . S
C803 C177 0.892 . S
C817 C246 0.897 . S
C821 C191 0.906 . S
C835 C205 0.877 . S
C839 C218 0.864 . S
C853 C190 0.942 . S
C857 C219 0.961 . S
C871 C204 0.889 . S
C875 C233 0.900 . S
C889 C176 0.935 . S
C893 C247 0.951 . S
