# Generated by pormake.
# Topology uoj, (4)-cn, num edge types: 1
# Building blocks:
#     Node 0, Type 0, BuildingBlock: ICAMEG_clean_sbu_1, # of connection points: 4
#     Node 1, Type 0, BuildingBlock: ICAMEG_clean_sbu_1, # of connection points: 4
#     Node 2, Type 0, BuildingBlock: ICAMEG_clean_sbu_1, # of connection points: 4
#     Node 3, Type 0, BuildingBlock: ICAMEG_clean_sbu_1, # of connection points: 4
#     Node 4, Type 0, BuildingBlock: ICAMEG_clean_sbu_1, # of connection points: 4
#     Node 5, Type 0, BuildingBlock: ICAMEG_clean_sbu_1, # of connection points: 4
#     Node 6, Type 0, BuildingBlock: ICAMEG_clean_sbu_1, # of connection points: 4
#     Node 7, Type 0, BuildingBlock: ICAMEG_clean_sbu_1, # of connection points: 4
#     Edge 8, Type (0, 0), BuildingBlock: TEMPAE_clean_linker_10, # of connection points: 2
#     Edge 9, Type (0, 0), BuildingBlock: TEMPAE_clean_linker_10, # of connection points: 2
#     Edge 10, Type (0, 0), BuildingBlock: TEMPAE_clean_linker_10, # of connection points: 2
#     Edge 11, Type (0, 0), BuildingBlock: TEMPAE_clean_linker_10, # of connection points: 2
#     Edge 12, Type (0, 0), BuildingBlock: TEMPAE_clean_linker_10, # of connection points: 2
#     Edge 13, Type (0, 0), BuildingBlock: TEMPAE_clean_linker_10, # of connection points: 2
#     Edge 14, Type (0, 0), BuildingBlock: TEMPAE_clean_linker_10, # of connection points: 2
#     Edge 15, Type (0, 0), BuildingBlock: TEMPAE_clean_linker_10, # of connection points: 2
#     Edge 16, Type (0, 0), BuildingBlock: TEMPAE_clean_linker_10, # of connection points: 2
#     Edge 17, Type (0, 0), BuildingBlock: TEMPAE_clean_linker_10, # of connection points: 2
#     Edge 18, Type (0, 0), BuildingBlock: TEMPAE_clean_linker_10, # of connection points: 2
#     Edge 19, Type (0, 0), BuildingBlock: TEMPAE_clean_linker_10, # of connection points: 2
#     Edge 20, Type (0, 0), BuildingBlock: TEMPAE_clean_linker_10, # of connection points: 2
#     Edge 21, Type (0, 0), BuildingBlock: TEMPAE_clean_linker_10, # of connection points: 2
#     Edge 22, Type (0, 0), BuildingBlock: TEMPAE_clean_linker_10, # of connection points: 2
#     Edge 23, Type (0, 0), BuildingBlock: TEMPAE_clean_linker_10, # of connection points: 2
# Relax obj value: 0.081
# Max RMSD: 0.092
# Mean RMSD: 0.091
data_MOF--net-uoj--node1-ICAMEG_clean_sbu_1--edge1-TEMPAE_clean_linker_10
_symmetry_space_group_name_H-M    P1
_symmetry_Int_Tables_number       1
_symmetry_cell_setting            triclinic
loop_
_symmetry_equiv_pos_as_xyz
'x, y, z'
_cell_length_a     37.038298
_cell_length_b     37.031409
_cell_length_c     33.861497
_cell_angle_alpha  90.03305
_cell_angle_beta   89.99208
_cell_angle_gamma 89.957045
loop_
_atom_site_label
_atom_site_type_symbol
_atom_site_fract_x
_atom_site_fract_y
_atom_site_fract_z
_atom_type_partial_charge
Co0 Co 0.0132 0.30092 0.41223 0.0
Co1 Co 0.08785 0.31785 0.47028 0.0
O2 O 0.04894 0.28674 0.45154 0.0
C3 C 0.96818 0.27577 0.47942 0.0
O4 O 0.98587 0.29781 0.50283 0.0
C5 C 0.1252 0.25341 0.4398 0.0
O6 O 0.10492 0.2564 0.4082 0.0
O7 O 0.10178 0.33109 0.41535 0.0
O8 O 0.05034 0.32676 0.38069 0.0
H9 H 0.16127 0.43175 0.47626 0.0
H10 H 0.02081 0.22386 0.4348 0.0
O11 O 0.97529 0.27465 0.44268 0.0
H12 H 0.04532 0.22786 0.29173 0.0
H13 H 0.90497 0.28015 0.32516 0.0
H14 H 0.99749 0.36781 0.36717 0.0
H15 H 0.02943 0.28339 0.32801 0.0
H16 H 0.95122 0.26309 0.37413 0.0
O17 O 0.12196 0.27592 0.46806 0.0
H18 H 0.11187 0.39253 0.45289 0.0
H19 H 0.14786 0.30798 0.52793 0.0
H20 H 0.95191 0.38593 0.31795 0.0
H21 H 0.03633 0.16765 0.3996 0.0
H22 H 0.90521 0.34193 0.29661 0.0
H23 H 0.04886 0.16945 0.32757 0.0
O24 O 0.00252 0.34662 0.44128 0.0
H25 H 0.05351 0.23194 0.57872 0.0
H26 H 0.0747 0.35953 0.54431 0.0
H27 H 0.05601 0.34379 0.61206 0.0
H28 H 0.04533 0.27956 0.62964 0.0
H29 H 0.07194 0.24896 0.51124 0.0
H30 H 0.19788 0.34615 0.55183 0.0
H31 H 0.20471 0.40857 0.52607 0.0
O32 O 0.05449 0.3602 0.47244 0.0
C33 C 0.08351 0.33533 0.38378 0.0
C34 C 0.15851 0.40464 0.4878 0.0
C35 C 0.17908 0.35658 0.53017 0.0
N36 N 0.12683 0.34814 0.48927 0.0
C37 C 0.13053 0.38235 0.47477 0.0
C38 C 0.15077 0.33507 0.51646 0.0
C39 C 0.18289 0.39161 0.51572 0.0
C40 C 0.0258 0.22481 0.40337 0.0
N41 N 0.024 0.25686 0.38347 0.0
C42 C 0.03474 0.19291 0.38363 0.0
C43 C 0.04183 0.19395 0.34323 0.0
C44 C 0.03987 0.22672 0.32311 0.0
C45 C 0.03091 0.25809 0.34383 0.0
C46 C 0.92519 0.29956 0.3342 0.0
C47 C 0.97733 0.34848 0.35796 0.0
C48 C 0.95138 0.29009 0.36201 0.0
N49 N 0.9771 0.31441 0.37342 0.0
C50 C 0.95155 0.35891 0.33011 0.0
C51 C 0.92535 0.33422 0.31818 0.0
C52 C 0.02238 0.36791 0.46156 0.0
C53 C 0.05814 0.26001 0.57144 0.0
C54 C 0.06994 0.33157 0.55169 0.0
C55 C 0.05947 0.3228 0.59013 0.0
C56 C 0.05351 0.28675 0.59998 0.0
N57 N 0.07445 0.3052 0.52388 0.0
C58 C 0.06868 0.2698 0.53332 0.0
Co59 Co 0.29236 0.99697 0.58846 0.0
Co60 Co 0.30651 0.91738 0.53933 0.0
O61 O 0.27795 0.96028 0.55056 0.0
C62 C 0.27634 0.04133 0.51725 0.0
O63 O 0.30068 0.02323 0.49714 0.0
C64 C 0.23623 0.88491 0.56061 0.0
O65 O 0.23929 0.90023 0.5954 0.0
O66 O 0.30942 0.9053 0.59642 0.0
O67 O 0.31318 0.95998 0.6247 0.0
H68 H 0.40827 0.82938 0.55898 0.0
H69 H 0.21662 0.99247 0.56046 0.0
O70 O 0.27081 0.03459 0.55358 0.0
H71 H 0.20984 0.97962 0.7052 0.0
H72 H 0.27505 0.11154 0.6664 0.0
H73 H 0.35773 0.01065 0.63673 0.0
H74 H 0.26849 0.98863 0.67224 0.0
H75 H 0.25729 0.06378 0.61945 0.0
O76 O 0.2605 0.8891 0.5343 0.0
H77 H 0.37295 0.88448 0.57256 0.0
H78 H 0.29842 0.85668 0.48226 0.0
H79 H 0.37644 0.05764 0.68414 0.0
H80 H 0.15736 0.98384 0.59225 0.0
H81 H 0.33495 0.10854 0.69924 0.0
H82 H 0.15371 0.97725 0.66514 0.0
O83 O 0.34024 0.00224 0.56203 0.0
H84 H 0.24427 0.95616 0.4145 0.0
H85 H 0.36079 0.92235 0.47454 0.0
H86 H 0.3586 0.93939 0.40416 0.0
H87 H 0.30001 0.95638 0.37369 0.0
H88 H 0.24774 0.93922 0.48484 0.0
H89 H 0.33277 0.80107 0.46788 0.0
H90 H 0.38821 0.78722 0.50628 0.0
O91 O 0.3528 0.94497 0.54443 0.0
C92 C 0.31506 0.92563 0.62619 0.0
C93 C 0.38426 0.8352 0.54191 0.0
C94 C 0.34185 0.81929 0.49082 0.0
N95 N 0.33394 0.874 0.52789 0.0
C96 C 0.36424 0.86644 0.54936 0.0
C97 C 0.32249 0.85078 0.49912 0.0
C98 C 0.37296 0.81153 0.51238 0.0
C99 C 0.21524 0.98993 0.59222 0.0
N100 N 0.246 0.99126 0.61446 0.0
C101 C 0.18161 0.98493 0.61004 0.0
C102 C 0.17959 0.98119 0.65093 0.0
C103 C 0.21107 0.98249 0.67342 0.0
C104 C 0.24423 0.98752 0.65458 0.0
C105 C 0.29335 0.08947 0.6601 0.0
C106 C 0.33945 0.03262 0.64331 0.0
C107 C 0.28348 0.0624 0.63347 0.0
N108 N 0.30636 0.03433 0.62558 0.0
C109 C 0.35023 0.05919 0.6701 0.0
C110 C 0.32695 0.08776 0.67854 0.0
C111 C 0.36209 0.97773 0.55041 0.0
C112 C 0.26994 0.9487 0.42741 0.0
C113 C 0.3352 0.92978 0.4615 0.0
C114 C 0.33412 0.93934 0.42162 0.0
C115 C 0.30123 0.94886 0.40454 0.0
N116 N 0.30438 0.92957 0.48369 0.0
C117 C 0.27205 0.93895 0.46718 0.0
Co118 Co 0.99035 0.69831 0.41281 0.0
Co119 Co 0.91186 0.6917 0.4673 0.0
O120 O 0.95489 0.71768 0.44989 0.0
C121 C 0.0327 0.72153 0.48232 0.0
O122 O 0.00709 0.70848 0.5049 0.0
C123 C 0.87929 0.75886 0.43515 0.0
O124 O 0.8937 0.75109 0.40077 0.0
O125 O 0.89823 0.68007 0.41178 0.0
O126 O 0.95133 0.67704 0.3799 0.0
H127 H 0.82371 0.58864 0.46982 0.0
H128 H 0.99168 0.776 0.43402 0.0
O129 O 0.03053 0.71933 0.44491 0.0
H130 H 0.9738 0.77274 0.28975 0.0
H131 H 0.10383 0.70278 0.33101 0.0
H132 H 0.99888 0.62902 0.36981 0.0
H133 H 0.98026 0.71626 0.32764 0.0
H134 H 0.05826 0.72688 0.3772 0.0
O135 O 0.88387 0.73806 0.46472 0.0
H136 H 0.87849 0.62096 0.44836 0.0
H137 H 0.85218 0.70924 0.5232 0.0
H138 H 0.04364 0.60398 0.32336 0.0
H139 H 0.98561 0.83315 0.39723 0.0
H140 H 0.09659 0.64095 0.30365 0.0
H141 H 0.97653 0.83174 0.32456 0.0
O142 O 0.99396 0.65243 0.443 0.0
H143 H 0.95174 0.77257 0.57827 0.0
H144 H 0.91846 0.6482 0.54107 0.0
H145 H 0.93641 0.66133 0.60972 0.0
H146 H 0.95313 0.72392 0.62872 0.0
H147 H 0.93406 0.75816 0.50986 0.0
H148 H 0.79693 0.67799 0.54522 0.0
H149 H 0.78249 0.61718 0.51859 0.0
O150 O 0.9391 0.64505 0.47022 0.0
C151 C 0.91721 0.67283 0.38132 0.0
C152 C 0.82977 0.61507 0.48173 0.0
C153 C 0.81472 0.66525 0.52401 0.0
N154 N 0.86867 0.66681 0.48476 0.0
C155 C 0.86081 0.63347 0.46978 0.0
C156 C 0.846 0.68284 0.51137 0.0
C157 C 0.80664 0.63112 0.50907 0.0
C158 C 0.98805 0.77518 0.40236 0.0
N159 N 0.9866 0.74285 0.38297 0.0
C160 C 0.9845 0.80762 0.38171 0.0
C161 C 0.97935 0.8068 0.34094 0.0
C162 C 0.97781 0.77371 0.32139 0.0
C163 C 0.98143 0.74182 0.34301 0.0
C164 C 0.08085 0.68643 0.33934 0.0
C165 C 0.02175 0.64535 0.36124 0.0
C166 C 0.05501 0.69989 0.36556 0.0
N167 N 0.02585 0.67944 0.37605 0.0
C168 C 0.04705 0.63099 0.33499 0.0
C169 C 0.07677 0.65174 0.32398 0.0
C170 C 0.97055 0.63349 0.46131 0.0
C171 C 0.94439 0.74522 0.57039 0.0
C172 C 0.92589 0.67546 0.54905 0.0
C173 C 0.9359 0.68276 0.58801 0.0
C174 C 0.94524 0.71789 0.59866 0.0
N175 N 0.92512 0.7024 0.52149 0.0
C176 C 0.93417 0.73693 0.53174 0.0
Co177 Co 0.69824 0.00575 0.57627 0.0
Co178 Co 0.68594 0.09128 0.53901 0.0
O179 O 0.71311 0.04585 0.54207 0.0
C180 C 0.72336 0.97169 0.50011 0.0
O181 O 0.72042 0.00253 0.48145 0.0
C182 C 0.76044 0.11525 0.55535 0.0
O183 O 0.76154 0.09064 0.58321 0.0
O184 O 0.68841 0.09701 0.59698 0.0
O185 O 0.68127 0.04017 0.61808 0.0
H186 H 0.59019 0.17981 0.58023 0.0
H187 H 0.77325 0.00861 0.54514 0.0
O188 O 0.71502 0.96907 0.53648 0.0
H189 H 0.78588 0.00639 0.69002 0.0
H190 H 0.71083 0.88368 0.64053 0.0
H191 H 0.63376 0.99147 0.62566 0.0
H192 H 0.72565 0.00448 0.65918 0.0
H193 H 0.73017 0.93442 0.59841 0.0
O194 O 0.73227 0.11877 0.53409 0.0
H195 H 0.62363 0.12223 0.58247 0.0
H196 H 0.69247 0.15787 0.49006 0.0
H197 H 0.61357 0.94149 0.66837 0.0
H198 H 0.83396 0.01009 0.57473 0.0
H199 H 0.65223 0.8871 0.67602 0.0
H200 H 0.8406 0.00911 0.64771 0.0
O201 O 0.6495 0.0057 0.55159 0.0
H202 H 0.73783 0.07122 0.40359 0.0
H203 H 0.62648 0.09373 0.47956 0.0
H204 H 0.62299 0.08665 0.40729 0.0
H205 H 0.67897 0.07545 0.36876 0.0
H206 H 0.74001 0.07774 0.47603 0.0
H207 H 0.6599 0.21593 0.48697 0.0
H208 H 0.60828 0.22714 0.5322 0.0
O209 O 0.63873 0.06515 0.54458 0.0
C210 C 0.68245 0.07414 0.6242 0.0
C211 C 0.61254 0.17519 0.56025 0.0
C212 C 0.6517 0.19548 0.50795 0.0
N213 N 0.65975 0.13657 0.53617 0.0
C214 C 0.63151 0.14259 0.5613 0.0
C215 C 0.67006 0.16257 0.50986 0.0
C216 C 0.62273 0.20175 0.53333 0.0
C217 C 0.77584 0.00761 0.57686 0.0
N218 N 0.74586 0.00604 0.60031 0.0
C219 C 0.81034 0.0087 0.59348 0.0
C220 C 0.81404 0.00823 0.63442 0.0
C221 C 0.78335 0.00673 0.65818 0.0
C222 C 0.74929 0.00572 0.64052 0.0
C223 C 0.69378 0.90726 0.63749 0.0
C224 C 0.65083 0.96798 0.629 0.0
C225 C 0.70454 0.93604 0.61359 0.0
N226 N 0.68322 0.966 0.60978 0.0
C227 C 0.63921 0.93972 0.65315 0.0
C228 C 0.6609 0.9092 0.6574 0.0
C229 C 0.62839 0.03231 0.54542 0.0
C230 C 0.71326 0.07611 0.42005 0.0
C231 C 0.65091 0.08839 0.46312 0.0
C232 C 0.64879 0.08464 0.42214 0.0
C233 C 0.68021 0.07842 0.40053 0.0
N234 N 0.68341 0.08592 0.48207 0.0
C235 C 0.71434 0.08 0.46106 0.0
Co236 Co 0.49144 0.80011 0.90706 0.0
Co237 Co 0.41552 0.81022 0.96448 0.0
O238 O 0.45709 0.78279 0.94612 0.0
C239 C 0.53745 0.77865 0.97454 0.0
O240 O 0.51786 0.79954 0.99745 0.0
C241 C 0.38204 0.74275 0.93559 0.0
O242 O 0.39668 0.74935 0.90105 0.0
O243 O 0.40003 0.82056 0.9092 0.0
O244 O 0.45228 0.82275 0.87562 0.0
H245 H 0.32993 0.91552 0.96792 0.0
H246 H 0.48988 0.72258 0.92919 0.0
O247 O 0.53118 0.77701 0.93765 0.0
H248 H 0.46685 0.72533 0.78579 0.0
H249 H 0.60142 0.78916 0.82045 0.0
H250 H 0.50148 0.86836 0.86256 0.0
H251 H 0.4774 0.78179 0.82264 0.0
H252 H 0.55661 0.76792 0.86907 0.0
O253 O 0.38661 0.76444 0.96441 0.0
H254 H 0.38313 0.8813 0.94501 0.0
H255 H 0.35754 0.79547 0.02328 0.0
H256 H 0.54553 0.89059 0.8137 0.0
H257 H 0.47976 0.66546 0.89341 0.0
H258 H 0.59596 0.85086 0.79232 0.0
H259 H 0.46805 0.66661 0.8212 0.0
O260 O 0.49802 0.84634 0.93635 0.0
H261 H 0.46019 0.73185 0.07532 0.0
H262 H 0.42479 0.85529 0.0368 0.0
H263 H 0.44579 0.84373 0.10474 0.0
H264 H 0.46363 0.78161 0.12439 0.0
H265 H 0.43934 0.74469 0.0076 0.0
H266 H 0.30385 0.82862 0.0468 0.0
H267 H 0.28986 0.88916 0.01918 0.0
O268 O 0.44399 0.85617 0.9648 0.0
C269 C 0.41823 0.8271 0.878 0.0
C270 C 0.3358 0.88921 0.98027 0.0
C271 C 0.32114 0.84041 0.02451 0.0
N272 N 0.37357 0.83658 0.98304 0.0
C273 C 0.36595 0.86976 0.9675 0.0
C274 C 0.35152 0.82174 0.01102 0.0
C275 C 0.31331 0.87439 0.00901 0.0
C276 C 0.48514 0.72329 0.8977 0.0
N277 N 0.4845 0.75548 0.878 0.0
C278 C 0.47929 0.69086 0.87763 0.0
C279 C 0.47268 0.69153 0.83712 0.0
C280 C 0.47198 0.72447 0.81724 0.0
C281 C 0.47793 0.75636 0.83828 0.0
C282 C 0.57956 0.80671 0.8295 0.0
C283 C 0.52326 0.85085 0.85329 0.0
C284 C 0.55416 0.79487 0.8571 0.0
N285 N 0.52637 0.81683 0.8685 0.0
C286 C 0.54816 0.86362 0.82567 0.0
C287 C 0.57646 0.84133 0.81371 0.0
C288 C 0.47563 0.86644 0.95488 0.0
C289 C 0.45241 0.75901 0.06714 0.0
C290 C 0.43262 0.82823 0.04509 0.0
C291 C 0.4444 0.82182 0.08363 0.0
C292 C 0.45438 0.78695 0.09465 0.0
N293 N 0.43073 0.80068 0.01829 0.0
C294 C 0.44045 0.76642 0.02888 0.0
Co295 Co 0.8153 0.59098 0.03998 0.0
Co296 Co 0.79935 0.50711 0.08043 0.0
O297 O 0.78621 0.54694 0.04504 0.0
C298 C 0.74244 0.61838 0.05765 0.0
O299 O 0.74093 0.59424 0.08598 0.0
C300 C 0.7719 0.47217 0.00559 0.0
O301 O 0.77257 0.50303 0.98673 0.0
O302 O 0.84807 0.50436 0.05598 0.0
O303 O 0.86125 0.56282 0.0451 0.0
H304 H 0.88108 0.44183 0.17491 0.0
H305 H 0.75919 0.57861 0.97888 0.0
O306 O 0.77021 0.62043 0.03559 0.0
H307 H 0.87486 0.58015 0.90679 0.0
H308 H 0.8457 0.71291 0.98337 0.0
H309 H 0.88 0.62 0.0807 0.0
H310 H 0.87339 0.58907 0.9789 0.0
H311 H 0.81056 0.6566 0.98924 0.0
O312 O 0.78167 0.47005 0.04158 0.0
H313 H 0.86303 0.49149 0.13058 0.0
H314 H 0.76459 0.43772 0.10449 0.0
H315 H 0.91602 0.67579 0.07564 0.0
H316 H 0.75938 0.57026 0.90663 0.0
H317 H 0.89892 0.72272 0.02668 0.0
H318 H 0.81754 0.57079 0.87012 0.0
O319 O 0.81453 0.59834 0.09775 0.0
H320 H 0.66388 0.51742 0.0783 0.0
H321 H 0.7717 0.50891 0.16319 0.0
H322 H 0.71156 0.51421 0.19379 0.0
H323 H 0.65708 0.51841 0.15126 0.0
H324 H 0.72449 0.51255 0.04895 0.0
H325 H 0.78175 0.38732 0.14822 0.0
H326 H 0.84029 0.38926 0.18395 0.0
O327 O 0.81748 0.54189 0.12126 0.0
C328 C 0.87016 0.52964 0.04781 0.0
C329 C 0.85545 0.44072 0.1596 0.0
C330 C 0.79972 0.41011 0.14458 0.0
N331 N 0.81268 0.46766 0.11521 0.0
C332 C 0.84504 0.46881 0.13454 0.0
C333 C 0.7902 0.43869 0.11978 0.0
C334 C 0.83256 0.41122 0.16463 0.0
C335 C 0.78459 0.57922 0.96317 0.0
N336 N 0.81624 0.58411 0.98316 0.0
C337 C 0.78453 0.57431 0.92227 0.0
C338 C 0.81718 0.57456 0.90181 0.0
C339 C 0.84935 0.57974 0.92238 0.0
C340 C 0.84836 0.58454 0.96328 0.0
C341 C 0.85348 0.69261 0.00473 0.0
C342 C 0.87254 0.64018 0.05912 0.0
C343 C 0.83367 0.6607 0.00822 0.0
N344 N 0.84343 0.63489 0.03502 0.0
C345 C 0.89297 0.67177 0.05648 0.0
C346 C 0.88334 0.6981 0.02904 0.0
C347 C 0.81891 0.57605 0.12589 0.0
C348 C 0.68739 0.51536 0.09715 0.0
C349 C 0.74816 0.51072 0.14443 0.0
C350 C 0.71415 0.51367 0.16195 0.0
C351 C 0.6836 0.516 0.13808 0.0
N352 N 0.75168 0.50993 0.10424 0.0
C353 C 0.72183 0.51232 0.08067 0.0
Co354 Co 0.51513 0.1996 0.91048 0.0
Co355 Co 0.59058 0.18621 0.96785 0.0
O356 O 0.55021 0.21536 0.94951 0.0
C357 C 0.47 0.22281 0.97811 0.0
O358 O 0.48887 0.20122 0.00092 0.0
C359 C 0.62677 0.2522 0.93875 0.0
O360 O 0.61218 0.24586 0.90411 0.0
O361 O 0.60553 0.17478 0.91259 0.0
O362 O 0.55328 0.17528 0.87897 0.0
H363 H 0.67145 0.07727 0.97168 0.0
H364 H 0.52001 0.27694 0.93293 0.0
O365 O 0.47636 0.22433 0.94122 0.0
H366 H 0.54293 0.27357 0.78952 0.0
H367 H 0.40561 0.21549 0.82413 0.0
H368 H 0.50229 0.13206 0.86544 0.0
H369 H 0.52989 0.21753 0.82612 0.0
H370 H 0.4513 0.23462 0.87282 0.0
O371 O 0.62138 0.23076 0.9676 0.0
H372 H 0.61975 0.11365 0.94872 0.0
H373 H 0.64925 0.19872 0.02644 0.0
H374 H 0.45732 0.1119 0.8165 0.0
H375 H 0.53267 0.33364 0.89742 0.0
H376 H 0.40853 0.15377 0.79552 0.0
H377 H 0.54433 0.33218 0.8252 0.0
O378 O 0.50662 0.15359 0.93959 0.0
H379 H 0.54951 0.26695 0.07847 0.0
H380 H 0.57944 0.14193 0.04036 0.0
H381 H 0.55912 0.15468 0.10832 0.0
H382 H 0.54405 0.2176 0.12777 0.0
H383 H 0.56961 0.25292 0.01075 0.0
H384 H 0.70148 0.16338 0.05001 0.0
H385 H 0.71274 0.10213 0.02269 0.0
O386 O 0.5601 0.14161 0.96834 0.0
C387 C 0.58701 0.16895 0.88143 0.0
C388 C 0.66676 0.10388 0.9839 0.0
C389 C 0.68365 0.15223 0.02783 0.0
N390 N 0.63135 0.15814 0.98647 0.0
C391 C 0.63747 0.12456 0.9711 0.0
C392 C 0.65409 0.17215 0.01431 0.0
C393 C 0.68994 0.11786 0.0125 0.0
C394 C 0.52473 0.2761 0.90145 0.0
N395 N 0.52396 0.24397 0.88159 0.0
C396 C 0.53202 0.30829 0.88152 0.0
C397 C 0.53861 0.30744 0.84101 0.0
C398 C 0.53784 0.27456 0.82098 0.0
C399 C 0.53049 0.24291 0.84187 0.0
C400 C 0.42674 0.19701 0.83302 0.0
C401 C 0.48122 0.15048 0.85637 0.0
C402 C 0.45263 0.20765 0.86067 0.0
N403 N 0.4795 0.1845 0.87188 0.0
C404 C 0.45579 0.13889 0.82869 0.0
C405 C 0.42841 0.16238 0.81696 0.0
C406 C 0.52811 0.13263 0.95823 0.0
C407 C 0.55609 0.23944 0.07039 0.0
C408 C 0.57282 0.16934 0.04856 0.0
C409 C 0.56141 0.17642 0.08711 0.0
C410 C 0.55298 0.21173 0.09801 0.0
N411 N 0.57586 0.19666 0.02165 0.0
C412 C 0.56763 0.23135 0.03212 0.0
Co413 Co 0.19074 0.40854 0.04308 0.0
Co414 Co 0.20446 0.49409 0.07951 0.0
O415 O 0.21909 0.4532 0.04629 0.0
C416 C 0.26432 0.38275 0.06099 0.0
O417 O 0.26577 0.40758 0.08862 0.0
C418 C 0.23247 0.52664 0.00384 0.0
O419 O 0.23082 0.4954 0.98577 0.0
O420 O 0.15649 0.4952 0.05329 0.0
O421 O 0.14422 0.43602 0.04733 0.0
H422 H 0.11911 0.56179 0.16805 0.0
H423 H 0.2463 0.41992 0.98116 0.0
O424 O 0.23632 0.37973 0.03942 0.0
H425 H 0.13037 0.41349 0.90993 0.0
H426 H 0.16212 0.28426 0.99152 0.0
H427 H 0.12693 0.37972 0.08558 0.0
H428 H 0.13234 0.40711 0.98235 0.0
H429 H 0.19629 0.34134 0.99487 0.0
O430 O 0.22292 0.52985 0.03979 0.0
H431 H 0.13909 0.51075 0.12665 0.0
H432 H 0.23767 0.56475 0.1018 0.0
H433 H 0.09187 0.32319 0.08303 0.0
H434 H 0.24562 0.42573 0.90863 0.0
H435 H 0.10941 0.27497 0.03573 0.0
H436 H 0.18732 0.42274 0.87254 0.0
O437 O 0.19196 0.40336 0.10116 0.0
H438 H 0.34001 0.48614 0.08223 0.0
H439 H 0.22974 0.4955 0.16321 0.0
H440 H 0.28909 0.49232 0.19593 0.0
H441 H 0.34479 0.48771 0.15537 0.0
H442 H 0.28014 0.48892 0.05075 0.0
H443 H 0.21859 0.61652 0.14264 0.0
H444 H 0.15899 0.61517 0.17626 0.0
O445 O 0.1855 0.46063 0.12117 0.0
C446 C 0.13471 0.46915 0.04731 0.0
C447 C 0.14519 0.56265 0.15365 0.0
C448 C 0.201 0.59339 0.13935 0.0
N449 N 0.18962 0.53462 0.11207 0.0
C450 C 0.15669 0.53379 0.13025 0.0
C451 C 0.21162 0.56402 0.11618 0.0
C452 C 0.16756 0.59261 0.15822 0.0
C453 C 0.22085 0.41823 0.96565 0.0
N454 N 0.1894 0.41339 0.98604 0.0
C455 C 0.22062 0.42171 0.92458 0.0
C456 C 0.1879 0.42008 0.90436 0.0
C457 C 0.15593 0.41497 0.92533 0.0
C458 C 0.15721 0.41161 0.96639 0.0
C459 C 0.15414 0.30512 0.01217 0.0
C460 C 0.13457 0.35899 0.06471 0.0
C461 C 0.17341 0.33747 0.01423 0.0
N462 N 0.16338 0.36398 0.04012 0.0
C463 C 0.11468 0.32698 0.0635 0.0
C464 C 0.12457 0.29992 0.03698 0.0
C465 C 0.18562 0.42673 0.1278 0.0
C466 C 0.31595 0.48836 0.10022 0.0
C467 C 0.25382 0.49345 0.14531 0.0
C468 C 0.28737 0.49172 0.16403 0.0
C469 C 0.31861 0.48916 0.14126 0.0
N470 N 0.25142 0.4928 0.10502 0.0
C471 C 0.28194 0.49019 0.08252 0.0
C472 C 0.17508 0.37692 0.17642 0.0
C473 C 0.17608 0.41399 0.16792 0.0
C474 C 0.16334 0.36442 0.21332 0.0
C475 C 0.15225 0.38959 0.24236 0.0
C476 C 0.15452 0.42704 0.23459 0.0
C477 C 0.16646 0.43881 0.19748 0.0
C478 C 0.16135 0.32424 0.22061 0.0
C479 C 0.1428 0.45468 0.26481 0.0
C480 C 0.08101 0.35755 0.31426 0.0
C481 C 0.10145 0.35026 0.34826 0.0
C482 C 0.09725 0.37068 0.27986 0.0
C483 C 0.13495 0.37665 0.27926 0.0
C484 C 0.15581 0.3698 0.31348 0.0
C485 C 0.13879 0.35672 0.34768 0.0
C486 C 0.07403 0.37785 0.244 0.0
C487 C 0.19611 0.37585 0.31376 0.0
H488 H 0.18265 0.35749 0.15392 0.0
H489 H 0.16728 0.46752 0.19136 0.0
H490 H 0.17486 0.31728 0.24883 0.0
H491 H 0.13268 0.31589 0.22323 0.0
H492 H 0.17405 0.30839 0.19644 0.0
H493 H 0.14935 0.4827 0.25554 0.0
H494 H 0.11321 0.45273 0.26942 0.0
H495 H 0.15594 0.4493 0.29365 0.0
H496 H 0.05213 0.35286 0.3143 0.0
H497 H 0.15481 0.3512 0.37377 0.0
H498 H 0.08301 0.36061 0.21905 0.0
H499 H 0.077 0.40637 0.23454 0.0
H500 H 0.04498 0.37245 0.24964 0.0
H501 H 0.20914 0.35827 0.29137 0.0
H502 H 0.20832 0.37008 0.34305 0.0
H503 H 0.20226 0.4042 0.30562 0.0
C504 C 0.33026 0.93101 0.69779 0.0
C505 C 0.32483 0.90903 0.66449 0.0
C506 C 0.34151 0.91633 0.7338 0.0
C507 C 0.34763 0.87875 0.73667 0.0
C508 C 0.34087 0.85614 0.70376 0.0
C509 C 0.32955 0.87157 0.66798 0.0
C510 C 0.34854 0.94136 0.76821 0.0
C511 C 0.34713 0.8159 0.70583 0.0
C512 C 0.41985 0.85122 0.80936 0.0
C513 C 0.39946 0.83986 0.84203 0.0
C514 C 0.4032 0.8633 0.77479 0.0
C515 C 0.3651 0.86396 0.77259 0.0
C516 C 0.34418 0.85221 0.80514 0.0
C517 C 0.36164 0.84039 0.83965 0.0
C518 C 0.42649 0.87594 0.74083 0.0
C519 C 0.30346 0.85245 0.80359 0.0
H520 H 0.32654 0.95996 0.69562 0.0
H521 H 0.32524 0.85433 0.64253 0.0
H522 H 0.33481 0.93132 0.79515 0.0
H523 H 0.37792 0.9421 0.77457 0.0
H524 H 0.33922 0.96937 0.76228 0.0
H525 H 0.33684 0.80168 0.67922 0.0
H526 H 0.37648 0.81042 0.70854 0.0
H527 H 0.33384 0.80442 0.73236 0.0
H528 H 0.44908 0.85101 0.81075 0.0
H529 H 0.34568 0.83148 0.86464 0.0
H530 H 0.42096 0.90483 0.73458 0.0
H531 H 0.41988 0.8605 0.7137 0.0
H532 H 0.45578 0.87281 0.74701 0.0
H533 H 0.29357 0.88052 0.79982 0.0
H534 H 0.29116 0.84096 0.83073 0.0
H535 H 0.29394 0.83672 0.77771 0.0
C536 C 0.86158 0.65514 0.34339 0.0
C537 C 0.89925 0.65875 0.34537 0.0
C538 C 0.84482 0.64174 0.30915 0.0
C539 C 0.86629 0.63165 0.27634 0.0
C540 C 0.90426 0.63508 0.27825 0.0
C541 C 0.92023 0.64861 0.31262 0.0
C542 C 0.80421 0.63849 0.30798 0.0
C543 C 0.92814 0.62449 0.24393 0.0
C544 C 0.83427 0.56686 0.19722 0.0
C545 C 0.82752 0.59043 0.16562 0.0
C546 C 0.84521 0.58004 0.23415 0.0
C547 C 0.84947 0.61769 0.23961 0.0
C548 C 0.84122 0.64172 0.20842 0.0
C549 C 0.83037 0.62782 0.17179 0.0
C550 C 0.85384 0.55358 0.26673 0.0
C551 C 0.84544 0.68205 0.21316 0.0
H552 H 0.84514 0.66286 0.36851 0.0
H553 H 0.94936 0.65111 0.31371 0.0
H554 H 0.79325 0.6552 0.28358 0.0
H555 H 0.79639 0.61011 0.30193 0.0
H556 H 0.79141 0.64719 0.33609 0.0
H557 H 0.95727 0.6285 0.25039 0.0
H558 H 0.92376 0.59568 0.2363 0.0
H559 H 0.92102 0.64069 0.2175 0.0
H560 H 0.83198 0.53795 0.19291 0.0
H561 H 0.82501 0.64633 0.1477 0.0
H562 H 0.84004 0.56155 0.29448 0.0
H563 H 0.8833 0.55382 0.27264 0.0
H564 H 0.84572 0.52556 0.25906 0.0
H565 H 0.8315 0.69144 0.24028 0.0
H566 H 0.83454 0.69719 0.18747 0.0
H567 H 0.87448 0.6888 0.21642 0.0
C568 C 0.58429 0.14676 0.81196 0.0
C569 C 0.605 0.15442 0.84569 0.0
C570 C 0.60021 0.13334 0.77753 0.0
C571 C 0.6379 0.12738 0.77656 0.0
C572 C 0.65911 0.13479 0.8104 0.0
C573 C 0.64238 0.14823 0.84468 0.0
C574 C 0.57658 0.12567 0.74208 0.0
C575 C 0.6994 0.12871 0.81026 0.0
C576 C 0.66627 0.06345 0.69504 0.0
C577 C 0.67491 0.08764 0.66456 0.0
C578 C 0.65614 0.076 0.73251 0.0
C579 C 0.65464 0.11361 0.73968 0.0
C580 C 0.665 0.13812 0.70971 0.0
C581 C 0.67498 0.12485 0.67249 0.0
C582 C 0.64519 0.04903 0.76372 0.0
C583 C 0.66374 0.17844 0.71627 0.0
H584 H 0.55538 0.15125 0.81225 0.0
H585 H 0.6586 0.15401 0.87056 0.0
H586 H 0.58547 0.14228 0.71662 0.0
H587 H 0.57922 0.09692 0.73329 0.0
H588 H 0.54763 0.13147 0.74789 0.0
H589 H 0.71197 0.13531 0.83916 0.0
H590 H 0.70544 0.10013 0.80298 0.0
H591 H 0.71215 0.1456 0.78709 0.0
H592 H 0.66634 0.03464 0.68939 0.0
H593 H 0.68188 0.14379 0.64929 0.0
H594 H 0.61566 0.05089 0.76884 0.0
H595 H 0.65875 0.05516 0.79215 0.0
H596 H 0.6518 0.02085 0.75506 0.0
H597 H 0.63522 0.18731 0.71899 0.0
H598 H 0.67646 0.19363 0.69165 0.0
H599 H 0.6776 0.18567 0.74421 0.0
C600 C 0.22079 0.07876 0.51462 0.0
C601 C 0.25453 0.06996 0.49847 0.0
C602 C 0.20053 0.10768 0.49997 0.0
C603 C 0.21458 0.12881 0.46876 0.0
C604 C 0.24809 0.11937 0.45135 0.0
C605 C 0.26761 0.08973 0.46623 0.0
C606 C 0.16463 0.11639 0.51896 0.0
C607 C 0.26404 0.14152 0.41829 0.0
C608 C 0.14616 0.19147 0.42107 0.0
C609 C 0.15057 0.22282 0.44381 0.0
C610 C 0.16802 0.16101 0.42746 0.0
C611 C 0.19516 0.16224 0.45688 0.0
C612 C 0.20096 0.19453 0.47837 0.0
C613 C 0.1784 0.22432 0.4718 0.0
C614 C 0.16072 0.12695 0.40431 0.0
C615 C 0.2299 0.1971 0.50966 0.0
H616 H 0.21033 0.06323 0.53923 0.0
H617 H 0.29371 0.08299 0.45375 0.0
H618 H 0.16639 0.14272 0.5345 0.0
H619 H 0.14331 0.1189 0.49611 0.0
H620 H 0.15621 0.0955 0.54062 0.0
H621 H 0.2885 0.1287 0.40546 0.0
H622 H 0.24388 0.14559 0.39448 0.0
H623 H 0.2715 0.16862 0.42964 0.0
H624 H 0.12465 0.19018 0.3994 0.0
H625 H 0.18221 0.24867 0.48912 0.0
H626 H 0.14907 0.10622 0.42423 0.0
H627 H 0.18621 0.11576 0.3922 0.0
H628 H 0.14156 0.13159 0.37958 0.0
H629 H 0.2226 0.17971 0.53511 0.0
H630 H 0.23355 0.22518 0.52054 0.0
H631 H 0.25608 0.1872 0.49794 0.0
C632 C 0.19528 0.8346 0.57939 0.0
C633 C 0.20522 0.86136 0.55233 0.0
C634 C 0.16719 0.8104 0.57075 0.0
C635 C 0.14774 0.81421 0.53498 0.0
C636 C 0.15699 0.84216 0.50824 0.0
C637 C 0.18622 0.86491 0.51686 0.0
C638 C 0.15915 0.78008 0.59921 0.0
C639 C 0.13611 0.84795 0.47046 0.0
C640 C 0.09789 0.73625 0.48702 0.0
C641 C 0.06244 0.74247 0.49955 0.0
C642 C 0.12624 0.75832 0.50007 0.0
C643 C 0.11854 0.7883 0.52469 0.0
C644 C 0.08267 0.79444 0.53769 0.0
C645 C 0.05508 0.77093 0.52552 0.0
C646 C 0.16427 0.75002 0.48677 0.0
C647 C 0.07315 0.82684 0.56269 0.0
H648 H 0.21039 0.83177 0.60664 0.0
H649 H 0.19395 0.88584 0.49613 0.0
H650 H 0.13058 0.78134 0.6089 0.0
H651 H 0.16303 0.75372 0.58417 0.0
H652 H 0.17676 0.78093 0.62575 0.0
H653 H 0.14472 0.87278 0.45466 0.0
H654 H 0.13996 0.82453 0.45047 0.0
H655 H 0.10679 0.84996 0.47692 0.0
H656 H 0.10337 0.71416 0.46683 0.0
H657 H 0.02743 0.77593 0.53459 0.0
H658 H 0.18286 0.74986 0.51248 0.0
H659 H 0.17376 0.77131 0.46623 0.0
H660 H 0.16618 0.72353 0.47149 0.0
H661 H 0.08993 0.82745 0.58979 0.0
H662 H 0.04423 0.82704 0.57142 0.0
H663 H 0.079 0.85193 0.54596 0.0
C664 C 0.77412 0.9473 0.45982 0.0
C665 C 0.74263 0.94118 0.48172 0.0
C666 C 0.79645 0.9184 0.44845 0.0
C667 C 0.78633 0.8826 0.4582 0.0
C668 C 0.75326 0.87628 0.47805 0.0
C669 C 0.73216 0.90572 0.49027 0.0
C670 C 0.83198 0.92639 0.42845 0.0
C671 C 0.74091 0.8385 0.48793 0.0
C672 C 0.8346 0.80354 0.4092 0.0
C673 C 0.85701 0.79163 0.43988 0.0
C674 C 0.8114 0.83322 0.41458 0.0
C675 C 0.81167 0.85204 0.45102 0.0
C676 C 0.83534 0.84083 0.48152 0.0
C677 C 0.85724 0.81035 0.47581 0.0
C678 C 0.78577 0.84364 0.38187 0.0
C679 C 0.83728 0.86077 0.52039 0.0
H680 H 0.78249 0.97481 0.4538 0.0
H681 H 0.70779 0.90106 0.50727 0.0
H682 H 0.85448 0.91949 0.44875 0.0
H683 H 0.83524 0.90954 0.40161 0.0
H684 H 0.8345 0.95527 0.42002 0.0
H685 H 0.71256 0.83796 0.49865 0.0
H686 H 0.74315 0.82074 0.46163 0.0
H687 H 0.7585 0.82698 0.51126 0.0
H688 H 0.83422 0.78883 0.38151 0.0
H689 H 0.8748 0.80129 0.49944 0.0
H690 H 0.78948 0.87243 0.37386 0.0
H691 H 0.75751 0.84052 0.39222 0.0
H692 H 0.78957 0.82687 0.35497 0.0
H693 H 0.84185 0.88999 0.51515 0.0
H694 H 0.85919 0.85039 0.53971 0.0
H695 H 0.81127 0.85809 0.53636 0.0
C696 C 0.78753 0.17085 0.52612 0.0
C697 C 0.79172 0.1393 0.54857 0.0
C698 C 0.81692 0.19364 0.51848 0.0
C699 C 0.8515 0.18444 0.53317 0.0
C700 C 0.85583 0.15296 0.55644 0.0
C701 C 0.8258 0.13085 0.56409 0.0
C702 C 0.81108 0.22714 0.49386 0.0
C703 C 0.89237 0.14202 0.57216 0.0
C704 C 0.9291 0.22142 0.47266 0.0
C705 C 0.93993 0.25142 0.49506 0.0
C706 C 0.90128 0.19872 0.48554 0.0
C707 C 0.8834 0.2064 0.5215 0.0
C708 C 0.8947 0.23614 0.54477 0.0
C709 C 0.9231 0.25819 0.5314 0.0
C710 C 0.89044 0.16699 0.4601 0.0
C711 C 0.87601 0.24534 0.58309 0.0
H712 H 0.7612 0.17777 0.51437 0.0
H713 H 0.82922 0.10648 0.58142 0.0
H714 H 0.82189 0.25119 0.50944 0.0
H715 H 0.82596 0.22462 0.46556 0.0
H716 H 0.78209 0.23186 0.48717 0.0
H717 H 0.89082 0.11803 0.59178 0.0
H718 H 0.91068 0.13565 0.54716 0.0
H719 H 0.90471 0.16465 0.58883 0.0
H720 H 0.94231 0.21571 0.44477 0.0
H721 H 0.93139 0.28132 0.54882 0.0
H722 H 0.86256 0.17102 0.44894 0.0
H723 H 0.89048 0.14179 0.47781 0.0
H724 H 0.90872 0.16329 0.43439 0.0
H725 H 0.84758 0.25304 0.57707 0.0
H726 H 0.8894 0.26797 0.59888 0.0
H727 H 0.87541 0.22143 0.60279 0.0
C728 C 0.23879 0.59256 0.99232 0.0
C729 C 0.25103 0.55737 0.98524 0.0
C730 C 0.25889 0.62252 0.97981 0.0
C731 C 0.2927 0.61705 0.96118 0.0
C732 C 0.30465 0.58148 0.95292 0.0
C733 C 0.28331 0.55198 0.96453 0.0
C734 C 0.24465 0.65999 0.98806 0.0
C735 C 0.34099 0.57449 0.93422 0.0
C736 C 0.33883 0.69632 0.91064 0.0
C737 C 0.36018 0.70994 0.94138 0.0
C738 C 0.3166 0.66607 0.91656 0.0
C739 C 0.31679 0.64843 0.95366 0.0
C740 C 0.33926 0.6615 0.98436 0.0
C741 C 0.3602 0.69249 0.97805 0.0
C742 C 0.29216 0.65364 0.88358 0.0
C743 C 0.34106 0.64287 0.02399 0.0
H744 H 0.21377 0.59663 0.00837 0.0
H745 H 0.29299 0.5247 0.95964 0.0
H746 H 0.26114 0.67292 0.01145 0.0
H747 H 0.24674 0.67707 0.96124 0.0
H748 H 0.21605 0.6596 0.99797 0.0
H749 H 0.34507 0.54551 0.927 0.0
H750 H 0.3441 0.59058 0.90682 0.0
H751 H 0.36264 0.5831 0.95483 0.0
H752 H 0.33866 0.71002 0.88235 0.0
H753 H 0.37699 0.70286 0.00171 0.0
H754 H 0.26357 0.65555 0.89321 0.0
H755 H 0.29753 0.62491 0.87643 0.0
H756 H 0.29562 0.66997 0.85632 0.0
H757 H 0.31452 0.64478 0.03902 0.0
H758 H 0.3619 0.65485 0.04361 0.0
H759 H 0.34717 0.61375 0.01995 0.0
C760 C 0.71731 0.67523 0.02949 0.0
C761 C 0.71193 0.64331 0.05093 0.0
C762 C 0.6885 0.69854 0.02118 0.0
C763 C 0.65332 0.68938 0.03404 0.0
C764 C 0.64783 0.65766 0.0566 0.0
C765 C 0.67732 0.63509 0.06506 0.0
C766 C 0.69554 0.73235 0.99748 0.0
C767 C 0.61062 0.64675 0.0703 0.0
C768 C 0.58104 0.76231 0.0284 0.0
C769 C 0.56604 0.75534 0.99118 0.0
C770 C 0.6092 0.74071 0.04323 0.0
C771 C 0.62203 0.71123 0.0205 0.0
C772 C 0.60612 0.70348 0.98349 0.0
C773 C 0.57856 0.72576 0.96917 0.0
C774 C 0.62587 0.74999 0.08261 0.0
C775 C 0.61865 0.67199 0.95858 0.0
H776 H 0.74412 0.68194 0.01893 0.0
H777 H 0.67306 0.6104 0.08162 0.0
H778 H 0.68247 0.73 0.96811 0.0
H779 H 0.68358 0.75617 0.01248 0.0
H780 H 0.72483 0.7373 0.99299 0.0
H781 H 0.61132 0.62292 0.09019 0.0
H782 H 0.59735 0.66946 0.086 0.0
H783 H 0.59362 0.64011 0.04431 0.0
H784 H 0.5714 0.78511 0.04551 0.0
H785 H 0.56676 0.7199 0.94058 0.0
H786 H 0.65456 0.75767 0.07835 0.0
H787 H 0.62547 0.72611 0.10236 0.0
H788 H 0.61164 0.77264 0.0975 0.0
H789 H 0.64708 0.67623 0.94937 0.0
H790 H 0.60191 0.66834 0.93165 0.0
H791 H 0.61776 0.64668 0.97607 0.0
C792 C 0.76736 0.40583 0.99552 0.0
C793 C 0.75413 0.44054 0.98781 0.0
C794 C 0.74819 0.3751 0.9834 0.0
C795 C 0.71431 0.37929 0.96457 0.0
C796 C 0.70131 0.41438 0.95579 0.0
C797 C 0.72173 0.44466 0.96698 0.0
C798 C 0.76356 0.33819 0.99216 0.0
C799 C 0.66482 0.42002 0.9369 0.0
C800 C 0.67015 0.29871 0.91422 0.0
C801 C 0.64877 0.28491 0.94482 0.0
C802 C 0.69194 0.32928 0.92021 0.0
C803 C 0.69122 0.3471 0.95723 0.0
C804 C 0.66887 0.33372 0.98786 0.0
C805 C 0.64842 0.30241 0.9815 0.0
C806 C 0.71629 0.34203 0.88731 0.0
C807 C 0.66649 0.35252 0.02739 0.0
H808 H 0.79247 0.40274 0.01166 0.0
H809 H 0.71128 0.47157 0.96158 0.0
H810 H 0.74737 0.32499 0.01562 0.0
H811 H 0.76214 0.32077 0.96553 0.0
H812 H 0.79208 0.33958 0.00222 0.0
H813 H 0.65973 0.44883 0.92961 0.0
H814 H 0.66244 0.40379 0.90951 0.0
H815 H 0.64338 0.41067 0.95739 0.0
H816 H 0.67057 0.285 0.88592 0.0
H817 H 0.63159 0.29193 0.00506 0.0
H818 H 0.74481 0.34145 0.89734 0.0
H819 H 0.70986 0.37039 0.87949 0.0
H820 H 0.71378 0.3251 0.86035 0.0
H821 H 0.69308 0.3516 0.0424 0.0
H822 H 0.64606 0.33999 0.04711 0.0
H823 H 0.65942 0.38139 0.02316 0.0
C824 C 0.42951 0.27627 0.9728 0.0
C825 C 0.44178 0.24661 0.99481 0.0
C826 C 0.40204 0.29874 0.98705 0.0
C827 C 0.38598 0.29114 0.02402 0.0
C828 C 0.39867 0.26167 0.04683 0.0
C829 C 0.4267 0.23986 0.03205 0.0
C830 C 0.38964 0.33018 0.96204 0.0
C831 C 0.3819 0.25256 0.0862 0.0
C832 C 0.32973 0.36688 0.06836 0.0
C833 C 0.29521 0.35821 0.05428 0.0
C834 C 0.35952 0.34466 0.05988 0.0
C835 C 0.35445 0.31286 0.03729 0.0
C836 C 0.31939 0.30331 0.02438 0.0
C837 C 0.29027 0.32622 0.03277 0.0
C838 C 0.39657 0.35594 0.07371 0.0
C839 C 0.31277 0.26943 0.00058 0.0
H840 H 0.44138 0.28197 0.9442 0.0
H841 H 0.43614 0.21701 0.04919 0.0
H842 H 0.36131 0.32584 0.95255 0.0
H843 H 0.39029 0.35551 0.97953 0.0
H844 H 0.40661 0.33385 0.93528 0.0
H845 H 0.39627 0.23016 0.10136 0.0
H846 H 0.38196 0.27659 0.10576 0.0
H847 H 0.35331 0.24456 0.08183 0.0
H848 H 0.33369 0.39161 0.08497 0.0
H849 H 0.26356 0.31914 0.02219 0.0
H850 H 0.41362 0.36265 0.04779 0.0
H851 H 0.40997 0.3334 0.08953 0.0
H852 H 0.39558 0.37984 0.09354 0.0
H853 H 0.32612 0.27182 0.97137 0.0
H854 H 0.28356 0.2643 0.99574 0.0
H855 H 0.32471 0.2457 0.01573 0.0
C856 C 0.95623 0.57399 0.49325 0.0
C857 C 0.97891 0.59492 0.46914 0.0
C858 C 0.96138 0.53654 0.49699 0.0
C859 C 0.9894 0.5195 0.4755 0.0
C860 C 0.01296 0.54058 0.452 0.0
C861 C 0.00769 0.57802 0.44949 0.0
C862 C 0.93626 0.51511 0.52309 0.0
C863 C 0.04295 0.52342 0.42824 0.0
C864 C 0.02608 0.42623 0.49877 0.0
C865 C 0.00929 0.40505 0.46969 0.0
C866 C 0.01821 0.46315 0.50263 0.0
C867 C 0.99355 0.47949 0.47619 0.0
C868 C 0.9752 0.45794 0.44803 0.0
C869 C 0.98297 0.42088 0.44546 0.0
C870 C 0.03765 0.48496 0.53371 0.0
C871 C 0.94905 0.4744 0.41894 0.0
H872 H 0.93398 0.58674 0.5087 0.0
H873 H 0.02537 0.5938 0.43075 0.0
H874 H 0.91962 0.49673 0.50472 0.0
H875 H 0.95201 0.49804 0.54379 0.0
H876 H 0.9179 0.53275 0.54046 0.0
H877 H 0.0591 0.54365 0.41168 0.0
H878 H 0.06133 0.50814 0.44798 0.0
H879 H 0.0314 0.50388 0.40684 0.0
H880 H 0.04624 0.41423 0.51787 0.0
H881 H 0.96985 0.4048 0.42292 0.0
H882 H 0.01833 0.50235 0.55005 0.0
H883 H 0.05762 0.50299 0.51934 0.0
H884 H 0.05214 0.46752 0.5552 0.0
H885 H 0.92827 0.49049 0.43466 0.0
H886 H 0.9353 0.45366 0.40062 0.0
H887 H 0.96376 0.49309 0.39901 0.0
C888 C 0.56736 0.03736 0.57461 0.0
C889 C 0.58938 0.02538 0.54369 0.0
C890 C 0.53011 0.03046 0.57448 0.0
C891 C 0.51445 0.01213 0.54199 0.0
C892 C 0.53663 0.00087 0.51011 0.0
C893 C 0.57407 0.00715 0.51166 0.0
C894 C 0.50773 0.04193 0.60961 0.0
C895 C 0.52085 0.98211 0.47452 0.0
C896 C 0.42674 0.96141 0.55902 0.0
C897 C 0.40084 0.98663 0.5467 0.0
C898 C 0.46371 0.96943 0.5577 0.0
C899 C 0.47522 0.00311 0.54247 0.0
C900 C 0.44919 0.02839 0.52904 0.0
C901 C 0.4122 0.0201 0.532 0.0
C902 C 0.49039 0.94219 0.57359 0.0
C903 C 0.46043 0.06414 0.51158 0.0
H904 H 0.57952 0.05141 0.59938 0.0
H905 H 0.59131 0.99823 0.48767 0.0
H906 H 0.48571 0.06024 0.60004 0.0
H907 H 0.49489 0.0179 0.62324 0.0
H908 H 0.52408 0.05595 0.63245 0.0
H909 H 0.54127 0.97756 0.45099 0.0
H910 H 0.50948 0.95561 0.48333 0.0
H911 H 0.49836 0.99838 0.46215 0.0
H912 H 0.418 0.9357 0.57094 0.0
H913 H 0.39217 0.03954 0.52231 0.0
H914 H 0.50626 0.95443 0.59796 0.0
H915 H 0.50976 0.93428 0.55015 0.0
H916 H 0.47697 0.91744 0.58486 0.0
H917 H 0.47441 0.08062 0.53426 0.0
H918 H 0.43705 0.07978 0.50016 0.0
H919 H 0.47984 0.05968 0.48709 0.0
C920 C 0.48937 0.07908 0.94248 0.0
C921 C 0.51696 0.09466 0.9652 0.0
C922 C 0.48244 0.04184 0.94412 0.0
C923 C 0.50295 0.01972 0.96985 0.0
C924 C 0.52934 0.0356 0.99458 0.0
C925 C 0.53631 0.07277 0.99164 0.0
C926 C 0.45439 0.02591 0.91684 0.0
C927 C 0.55113 0.01313 0.02315 0.0
C928 C 0.46512 0.92585 0.98865 0.0
C929 C 0.48547 0.9047 0.96233 0.0
C930 C 0.47145 0.96307 0.9926 0.0
C931 C 0.49821 0.97977 0.96904 0.0
C932 C 0.51949 0.95845 0.94322 0.0
C933 C 0.51318 0.92115 0.94055 0.0
C934 C 0.4488 0.98469 0.0212 0.0
C935 C 0.54797 0.97528 0.91714 0.0
H936 H 0.47426 0.09566 0.92195 0.0
H937 H 0.55754 0.08452 0.00951 0.0
H938 H 0.46754 0.00694 0.8959 0.0
H939 H 0.43429 0.01022 0.93398 0.0
H940 H 0.43993 0.04692 0.89956 0.0
H941 H 0.56777 0.03005 0.04321 0.0
H942 H 0.53302 0.99593 0.04124 0.0
H943 H 0.56936 0.99485 0.00652 0.0
H944 H 0.44375 0.91344 0.00575 0.0
H945 H 0.52903 0.90517 0.92009 0.0
H946 H 0.43114 0.00356 0.00465 0.0
H947 H 0.46638 0.00123 0.04061 0.0
H948 H 0.43151 0.9672 0.03997 0.0
H949 H 0.5352 0.99506 0.89687 0.0
H950 H 0.56264 0.95488 0.89918 0.0
H951 H 0.56785 0.99024 0.93536 0.0
C952 C 0.07101 0.45657 0.0652 0.0
C953 C 0.09592 0.47724 0.04386 0.0
C954 C 0.03408 0.46488 0.06449 0.0
C955 C 0.02169 0.49375 0.04066 0.0
C956 C 0.0467 0.51396 0.01797 0.0
C957 C 0.08372 0.50592 0.0205 0.0
C958 C 0.00855 0.44355 0.09027 0.0
C959 C 0.03436 0.54415 0.99123 0.0
C960 C 0.9209 0.49401 0.01888 0.0
C961 C 0.90873 0.52079 0.04482 0.0
C962 C 0.95788 0.4858 0.0161 0.0
C963 C 0.98278 0.50379 0.04109 0.0
C964 C 0.97031 0.53058 0.06767 0.0
C965 C 0.93348 0.53924 0.06863 0.0
C966 C 0.97031 0.45798 0.98647 0.0
C967 C 0.9957 0.54943 0.09585 0.0
H968 H 0.08061 0.43464 0.08365 0.0
H969 H 0.10309 0.52172 0.00386 0.0
H970 H 0.99489 0.46194 0.11143 0.0
H971 H 0.98724 0.43083 0.07198 0.0
H972 H 0.02262 0.42206 0.10723 0.0
H973 H 0.05677 0.55511 0.97303 0.0
H974 H 0.01269 0.53439 0.97127 0.0
H975 H 0.02286 0.56645 0.00912 0.0
H976 H 0.90158 0.48001 0.00033 0.0
H977 H 0.92378 0.55976 0.08891 0.0
H978 H 0.98202 0.43438 0.00202 0.0
H979 H 0.99186 0.46949 0.9675 0.0
H980 H 0.94792 0.44842 0.96731 0.0
H981 H 0.0095 0.5292 0.11474 0.0
H982 H 0.98149 0.56906 0.11522 0.0
H983 H 0.01691 0.564 0.07914 0.0
loop_
_geom_bond_atom_site_label_1
_geom_bond_atom_site_label_2
_geom_bond_distance
_geom_bond_site_symmetry_2
_ccdc_geom_bond_type
Co0 O2 2.143 . S
Co0 O8 2.074 . S
Co0 O11 2.093 1_455 S
Co0 O24 2.097 . S
Co0 N41 2.151 . S
Co0 N49 2.214 1_455 S
Co1 O2 2.160 . S
Co1 O7 2.058 . S
Co1 O17 2.057 . S
Co1 O32 2.037 . S
Co1 N36 2.145 . S
Co1 N57 2.257 . S
O2 Co0 2.143 . S
O2 Co1 2.160 . S
C3 O4 1.278 1_655 S
C3 O11 1.224 . S
O4 C3 1.278 1_455 S
C5 O6 1.245 . S
C5 O17 1.232 . S
O6 C5 1.245 . S
O7 Co1 2.058 . S
O7 C33 1.269 . S
O8 Co0 2.074 . S
O8 C33 1.257 . S
H9 C34 0.930 . S
H10 C40 0.930 . S
O11 Co0 2.093 1_655 S
O11 C3 1.224 . S
H12 C44 0.929 . S
H13 C46 0.930 . S
H14 C47 0.930 1_455 S
H15 C45 0.929 . S
H16 C48 0.928 . S
O17 Co1 2.057 . S
O17 C5 1.232 . S
H18 C37 0.929 . S
H19 C38 0.929 . S
H20 C50 0.931 . S
H21 C42 0.929 . S
H22 C51 0.930 . S
H23 C43 0.931 . S
O24 Co0 2.097 . S
O24 C52 1.214 . S
H25 C53 0.929 . S
H26 C54 0.929 . S
H27 C55 0.930 . S
H28 C56 0.929 . S
H29 C58 0.930 . S
H30 C35 0.930 . S
H31 C39 0.930 . S
O32 Co1 2.037 . S
O32 C52 1.234 . S
C33 O7 1.269 . S
C33 O8 1.257 . S
C34 H9 0.930 . S
C34 C37 1.388 . S
C34 C39 1.418 . S
C35 H30 0.930 . S
C35 C38 1.404 . S
C35 C39 1.353 . S
N36 Co1 2.145 . S
N36 C37 1.397 . S
N36 C38 1.334 . S
C37 H18 0.929 . S
C37 C34 1.388 . S
C37 N36 1.397 . S
C38 H19 0.929 . S
C38 C35 1.404 . S
C38 N36 1.334 . S
C39 H31 0.930 . S
C39 C34 1.418 . S
C39 C35 1.353 . S
C40 H10 0.930 . S
C40 N41 1.330 . S
C40 C42 1.446 . S
N41 Co0 2.151 . S
N41 C40 1.330 . S
N41 C45 1.418 . S
C42 H21 0.929 . S
C42 C40 1.446 . S
C42 C43 1.332 . S
C43 H23 0.931 . S
C43 C42 1.332 . S
C43 C44 1.267 . S
C44 H12 0.929 . S
C44 C43 1.267 . S
C44 C45 1.251 . S
C45 H15 0.929 . S
C45 N41 1.418 . S
C45 C44 1.251 . S
C46 H13 0.930 . S
C46 C48 1.406 . S
C46 C51 1.261 . S
C47 H14 0.930 1_655 S
C47 N49 1.325 . S
C47 C50 1.357 . S
C48 H16 0.928 . S
C48 C46 1.406 . S
C48 N49 1.261 . S
N49 Co0 2.214 1_655 S
N49 C47 1.325 . S
N49 C48 1.261 . S
C50 H20 0.931 . S
C50 C47 1.357 . S
C50 C51 1.312 . S
C51 H22 0.930 . S
C51 C46 1.261 . S
C51 C50 1.312 . S
C52 O24 1.214 . S
C52 O32 1.234 . S
C53 H25 0.929 . S
C53 C56 1.391 . S
C53 C58 1.391 . S
C54 H26 0.929 . S
C54 C55 1.390 . S
C54 N57 1.391 . S
C55 H27 0.930 . S
C55 C54 1.390 . S
C55 C56 1.392 . S
C56 H28 0.929 . S
C56 C53 1.391 . S
C56 C55 1.392 . S
N57 Co1 2.257 . S
N57 C54 1.391 . S
N57 C58 1.388 . S
C58 H29 0.930 . S
C58 C53 1.391 . S
C58 N57 1.388 . S
Co59 O61 2.143 . S
Co59 O67 2.074 . S
Co59 O70 2.093 1_565 S
Co59 O83 2.097 . S
Co59 N100 2.151 . S
Co59 N108 2.214 1_565 S
Co60 O61 2.160 . S
Co60 O66 2.058 . S
Co60 O76 2.057 . S
Co60 O91 2.037 . S
Co60 N95 2.145 . S
Co60 N116 2.257 . S
O61 Co59 2.143 . S
O61 Co60 2.160 . S
C62 O63 1.278 1_545 S
C62 O70 1.224 . S
O63 C62 1.278 1_565 S
C64 O65 1.245 . S
C64 O76 1.232 . S
O65 C64 1.245 . S
O66 Co60 2.058 . S
O66 C92 1.269 . S
O67 Co59 2.074 . S
O67 C92 1.257 . S
H68 C93 0.930 . S
H69 C99 0.930 . S
O70 Co59 2.093 1_545 S
O70 C62 1.224 . S
H71 C103 0.929 . S
H72 C105 0.930 . S
H73 C106 0.930 1_565 S
H74 C104 0.929 . S
H75 C107 0.928 . S
O76 Co60 2.057 . S
O76 C64 1.232 . S
H77 C96 0.929 . S
H78 C97 0.929 . S
H79 C109 0.931 . S
H80 C101 0.929 . S
H81 C110 0.930 . S
H82 C102 0.931 . S
O83 Co59 2.097 . S
O83 C111 1.214 . S
H84 C112 0.929 . S
H85 C113 0.929 . S
H86 C114 0.930 . S
H87 C115 0.929 . S
H88 C117 0.930 . S
H89 C94 0.930 . S
H90 C98 0.930 . S
O91 Co60 2.037 . S
O91 C111 1.234 . S
C92 O66 1.269 . S
C92 O67 1.257 . S
C93 H68 0.930 . S
C93 C96 1.388 . S
C93 C98 1.418 . S
C94 H89 0.930 . S
C94 C97 1.404 . S
C94 C98 1.353 . S
N95 Co60 2.145 . S
N95 C96 1.397 . S
N95 C97 1.334 . S
C96 H77 0.929 . S
C96 C93 1.388 . S
C96 N95 1.397 . S
C97 H78 0.929 . S
C97 C94 1.404 . S
C97 N95 1.334 . S
C98 H90 0.930 . S
C98 C93 1.418 . S
C98 C94 1.353 . S
C99 H69 0.930 . S
C99 N100 1.330 . S
C99 C101 1.446 . S
N100 Co59 2.151 . S
N100 C99 1.330 . S
N100 C104 1.418 . S
C101 H80 0.929 . S
C101 C99 1.446 . S
C101 C102 1.332 . S
C102 H82 0.931 . S
C102 C101 1.332 . S
C102 C103 1.267 . S
C103 H71 0.929 . S
C103 C102 1.267 . S
C103 C104 1.251 . S
C104 H74 0.929 . S
C104 N100 1.418 . S
C104 C103 1.251 . S
C105 H72 0.930 . S
C105 C107 1.406 . S
C105 C110 1.261 . S
C106 H73 0.930 1_545 S
C106 N108 1.325 . S
C106 C109 1.357 . S
C107 H75 0.928 . S
C107 C105 1.406 . S
C107 N108 1.261 . S
N108 Co59 2.214 1_545 S
N108 C106 1.325 . S
N108 C107 1.261 . S
C109 H79 0.931 . S
C109 C106 1.357 . S
C109 C110 1.312 . S
C110 H81 0.930 . S
C110 C105 1.261 . S
C110 C109 1.312 . S
C111 O83 1.214 . S
C111 O91 1.234 . S
C112 H84 0.929 . S
C112 C115 1.391 . S
C112 C117 1.391 . S
C113 H85 0.929 . S
C113 C114 1.390 . S
C113 N116 1.391 . S
C114 H86 0.930 . S
C114 C113 1.390 . S
C114 C115 1.392 . S
C115 H87 0.929 . S
C115 C112 1.391 . S
C115 C114 1.392 . S
N116 Co60 2.257 . S
N116 C113 1.391 . S
N116 C117 1.388 . S
C117 H88 0.930 . S
C117 C112 1.391 . S
C117 N116 1.388 . S
Co118 O120 2.143 . S
Co118 O126 2.074 . S
Co118 O129 2.093 1_655 S
Co118 O142 2.097 . S
Co118 N159 2.151 . S
Co118 N167 2.214 1_655 S
Co119 O120 2.160 . S
Co119 O125 2.058 . S
Co119 O135 2.057 . S
Co119 O150 2.037 . S
Co119 N154 2.145 . S
Co119 N175 2.257 . S
O120 Co118 2.143 . S
O120 Co119 2.160 . S
C121 O122 1.278 1_455 S
C121 O129 1.224 . S
O122 C121 1.278 1_655 S
C123 O124 1.245 . S
C123 O135 1.232 . S
O124 C123 1.245 . S
O125 Co119 2.058 . S
O125 C151 1.269 . S
O126 Co118 2.074 . S
O126 C151 1.257 . S
H127 C152 0.930 . S
H128 C158 0.930 . S
O129 Co118 2.093 1_455 S
O129 C121 1.224 . S
H130 C162 0.929 . S
H131 C164 0.930 . S
H132 C165 0.930 1_655 S
H133 C163 0.929 . S
H134 C166 0.928 . S
O135 Co119 2.057 . S
O135 C123 1.232 . S
H136 C155 0.929 . S
H137 C156 0.929 . S
H138 C168 0.931 . S
H139 C160 0.929 . S
H140 C169 0.930 . S
H141 C161 0.931 . S
O142 Co118 2.097 . S
O142 C170 1.214 . S
H143 C171 0.929 . S
H144 C172 0.929 . S
H145 C173 0.930 . S
H146 C174 0.929 . S
H147 C176 0.930 . S
H148 C153 0.930 . S
H149 C157 0.930 . S
O150 Co119 2.037 . S
O150 C170 1.234 . S
C151 O125 1.269 . S
C151 O126 1.257 . S
C152 H127 0.930 . S
C152 C155 1.388 . S
C152 C157 1.418 . S
C153 H148 0.930 . S
C153 C156 1.404 . S
C153 C157 1.353 . S
N154 Co119 2.145 . S
N154 C155 1.397 . S
N154 C156 1.334 . S
C155 H136 0.929 . S
C155 C152 1.388 . S
C155 N154 1.397 . S
C156 H137 0.929 . S
C156 C153 1.404 . S
C156 N154 1.334 . S
C157 H149 0.930 . S
C157 C152 1.418 . S
C157 C153 1.353 . S
C158 H128 0.930 . S
C158 N159 1.330 . S
C158 C160 1.446 . S
N159 Co118 2.151 . S
N159 C158 1.330 . S
N159 C163 1.418 . S
C160 H139 0.929 . S
C160 C158 1.446 . S
C160 C161 1.332 . S
C161 H141 0.931 . S
C161 C160 1.332 . S
C161 C162 1.267 . S
C162 H130 0.929 . S
C162 C161 1.267 . S
C162 C163 1.251 . S
C163 H133 0.929 . S
C163 N159 1.418 . S
C163 C162 1.251 . S
C164 H131 0.930 . S
C164 C166 1.406 . S
C164 C169 1.261 . S
C165 H132 0.930 1_455 S
C165 N167 1.325 . S
C165 C168 1.357 . S
C166 H134 0.928 . S
C166 C164 1.406 . S
C166 N167 1.261 . S
N167 Co118 2.214 1_455 S
N167 C165 1.325 . S
N167 C166 1.261 . S
C168 H138 0.931 . S
C168 C165 1.357 . S
C168 C169 1.312 . S
C169 H140 0.930 . S
C169 C164 1.261 . S
C169 C168 1.312 . S
C170 O142 1.214 . S
C170 O150 1.234 . S
C171 H143 0.929 . S
C171 C174 1.391 . S
C171 C176 1.391 . S
C172 H144 0.929 . S
C172 C173 1.390 . S
C172 N175 1.391 . S
C173 H145 0.930 . S
C173 C172 1.390 . S
C173 C174 1.392 . S
C174 H146 0.929 . S
C174 C171 1.391 . S
C174 C173 1.392 . S
N175 Co119 2.257 . S
N175 C172 1.391 . S
N175 C176 1.388 . S
C176 H147 0.930 . S
C176 C171 1.391 . S
C176 N175 1.388 . S
Co177 O179 2.143 . S
Co177 O185 2.074 . S
Co177 O188 2.093 1_545 S
Co177 O201 2.097 . S
Co177 N218 2.151 . S
Co177 N226 2.214 1_545 S
Co178 O179 2.160 . S
Co178 O184 2.058 . S
Co178 O194 2.057 . S
Co178 O209 2.037 . S
Co178 N213 2.145 . S
Co178 N234 2.257 . S
O179 Co177 2.143 . S
O179 Co178 2.160 . S
C180 O181 1.278 1_565 S
C180 O188 1.224 . S
O181 C180 1.278 1_545 S
C182 O183 1.245 . S
C182 O194 1.232 . S
O183 C182 1.245 . S
O184 Co178 2.058 . S
O184 C210 1.269 . S
O185 Co177 2.074 . S
O185 C210 1.257 . S
H186 C211 0.930 . S
H187 C217 0.930 . S
O188 Co177 2.093 1_565 S
O188 C180 1.224 . S
H189 C221 0.929 . S
H190 C223 0.930 . S
H191 C224 0.930 1_545 S
H192 C222 0.929 . S
H193 C225 0.928 . S
O194 Co178 2.057 . S
O194 C182 1.232 . S
H195 C214 0.929 . S
H196 C215 0.929 . S
H197 C227 0.931 . S
H198 C219 0.929 . S
H199 C228 0.930 . S
H200 C220 0.931 . S
O201 Co177 2.097 . S
O201 C229 1.214 . S
H202 C230 0.929 . S
H203 C231 0.929 . S
H204 C232 0.930 . S
H205 C233 0.929 . S
H206 C235 0.930 . S
H207 C212 0.930 . S
H208 C216 0.930 . S
O209 Co178 2.037 . S
O209 C229 1.234 . S
C210 O184 1.269 . S
C210 O185 1.257 . S
C211 H186 0.930 . S
C211 C214 1.388 . S
C211 C216 1.418 . S
C212 H207 0.930 . S
C212 C215 1.404 . S
C212 C216 1.353 . S
N213 Co178 2.145 . S
N213 C214 1.397 . S
N213 C215 1.334 . S
C214 H195 0.929 . S
C214 C211 1.388 . S
C214 N213 1.397 . S
C215 H196 0.929 . S
C215 C212 1.404 . S
C215 N213 1.334 . S
C216 H208 0.930 . S
C216 C211 1.418 . S
C216 C212 1.353 . S
C217 H187 0.930 . S
C217 N218 1.330 . S
C217 C219 1.446 . S
N218 Co177 2.151 . S
N218 C217 1.330 . S
N218 C222 1.418 . S
C219 H198 0.929 . S
C219 C217 1.446 . S
C219 C220 1.332 . S
C220 H200 0.931 . S
C220 C219 1.332 . S
C220 C221 1.267 . S
C221 H189 0.929 . S
C221 C220 1.267 . S
C221 C222 1.251 . S
C222 H192 0.929 . S
C222 N218 1.418 . S
C222 C221 1.251 . S
C223 H190 0.930 . S
C223 C225 1.406 . S
C223 C228 1.261 . S
C224 H191 0.930 1_565 S
C224 N226 1.325 . S
C224 C227 1.357 . S
C225 H193 0.928 . S
C225 C223 1.406 . S
C225 N226 1.261 . S
N226 Co177 2.214 1_565 S
N226 C224 1.325 . S
N226 C225 1.261 . S
C227 H197 0.931 . S
C227 C224 1.357 . S
C227 C228 1.312 . S
C228 H199 0.930 . S
C228 C223 1.261 . S
C228 C227 1.312 . S
C229 O201 1.214 . S
C229 O209 1.234 . S
C230 H202 0.929 . S
C230 C233 1.391 . S
C230 C235 1.391 . S
C231 H203 0.929 . S
C231 C232 1.390 . S
C231 N234 1.391 . S
C232 H204 0.930 . S
C232 C231 1.390 . S
C232 C233 1.392 . S
C233 H205 0.929 . S
C233 C230 1.391 . S
C233 C232 1.392 . S
N234 Co178 2.257 . S
N234 C231 1.391 . S
N234 C235 1.388 . S
C235 H206 0.930 . S
C235 C230 1.391 . S
C235 N234 1.388 . S
Co236 O238 2.143 . S
Co236 O244 2.074 . S
Co236 O247 2.093 . S
Co236 O260 2.097 . S
Co236 N277 2.151 . S
Co236 N285 2.214 . S
Co237 O238 2.160 . S
Co237 O243 2.058 . S
Co237 O253 2.057 . S
Co237 O268 2.037 . S
Co237 N272 2.145 . S
Co237 N293 2.257 1_556 S
O238 Co236 2.143 . S
O238 Co237 2.160 . S
C239 O240 1.278 1_556 S
C239 O247 1.224 . S
O240 C239 1.278 1_554 S
C241 O242 1.245 . S
C241 O253 1.232 . S
O242 C241 1.245 . S
O243 Co237 2.058 . S
O243 C269 1.269 . S
O244 Co236 2.074 . S
O244 C269 1.257 . S
H245 C270 0.930 . S
H246 C276 0.930 . S
O247 Co236 2.093 . S
O247 C239 1.224 . S
H248 C280 0.929 . S
H249 C282 0.930 . S
H250 C283 0.930 . S
H251 C281 0.929 . S
H252 C284 0.928 . S
O253 Co237 2.057 . S
O253 C241 1.232 . S
H254 C273 0.929 . S
H255 C274 0.929 . S
H256 C286 0.931 . S
H257 C278 0.929 . S
H258 C287 0.930 . S
H259 C279 0.931 . S
O260 Co236 2.097 . S
O260 C288 1.214 . S
H261 C289 0.929 . S
H262 C290 0.929 . S
H263 C291 0.930 . S
H264 C292 0.929 . S
H265 C294 0.930 . S
H266 C271 0.930 . S
H267 C275 0.930 . S
O268 Co237 2.037 . S
O268 C288 1.234 . S
C269 O243 1.269 . S
C269 O244 1.257 . S
C270 H245 0.930 . S
C270 C273 1.388 . S
C270 C275 1.418 1_556 S
C271 H266 0.930 . S
C271 C274 1.404 . S
C271 C275 1.353 . S
N272 Co237 2.145 . S
N272 C273 1.397 . S
N272 C274 1.334 1_556 S
C273 H254 0.929 . S
C273 C270 1.388 . S
C273 N272 1.397 . S
C274 H255 0.929 . S
C274 C271 1.404 . S
C274 N272 1.334 1_554 S
C275 H267 0.930 . S
C275 C270 1.418 1_554 S
C275 C271 1.353 . S
C276 H246 0.930 . S
C276 N277 1.330 . S
C276 C278 1.446 . S
N277 Co236 2.151 . S
N277 C276 1.330 . S
N277 C281 1.418 . S
C278 H257 0.929 . S
C278 C276 1.446 . S
C278 C279 1.332 . S
C279 H259 0.931 . S
C279 C278 1.332 . S
C279 C280 1.267 . S
C280 H248 0.929 . S
C280 C279 1.267 . S
C280 C281 1.251 . S
C281 H251 0.929 . S
C281 N277 1.418 . S
C281 C280 1.251 . S
C282 H249 0.930 . S
C282 C284 1.406 . S
C282 C287 1.261 . S
C283 H250 0.930 . S
C283 N285 1.325 . S
C283 C286 1.357 . S
C284 H252 0.928 . S
C284 C282 1.406 . S
C284 N285 1.261 . S
N285 Co236 2.214 . S
N285 C283 1.325 . S
N285 C284 1.261 . S
C286 H256 0.931 . S
C286 C283 1.357 . S
C286 C287 1.312 . S
C287 H258 0.930 . S
C287 C282 1.261 . S
C287 C286 1.312 . S
C288 O260 1.214 . S
C288 O268 1.234 . S
C289 H261 0.929 . S
C289 C292 1.391 . S
C289 C294 1.391 . S
C290 H262 0.929 . S
C290 C291 1.390 . S
C290 N293 1.391 . S
C291 H263 0.930 . S
C291 C290 1.390 . S
C291 C292 1.392 . S
C292 H264 0.929 . S
C292 C289 1.391 . S
C292 C291 1.392 . S
N293 Co237 2.257 1_554 S
N293 C290 1.391 . S
N293 C294 1.388 . S
C294 H265 0.930 . S
C294 C289 1.391 . S
C294 N293 1.388 . S
Co295 O297 2.143 . S
Co295 O303 2.074 . S
Co295 O306 2.093 . S
Co295 O319 2.097 . S
Co295 N336 2.151 1_554 S
Co295 N344 2.214 . S
Co296 O297 2.160 . S
Co296 O302 2.058 . S
Co296 O312 2.057 . S
Co296 O327 2.037 . S
Co296 N331 2.145 . S
Co296 N352 2.257 . S
O297 Co295 2.143 . S
O297 Co296 2.160 . S
C298 O299 1.278 . S
C298 O306 1.224 . S
O299 C298 1.278 . S
C300 O301 1.245 1_554 S
C300 O312 1.232 . S
O301 C300 1.245 1_556 S
O302 Co296 2.058 . S
O302 C328 1.269 . S
O303 Co295 2.074 . S
O303 C328 1.257 . S
H304 C329 0.930 . S
H305 C335 0.930 . S
O306 Co295 2.093 . S
O306 C298 1.224 . S
H307 C339 0.929 . S
H308 C341 0.930 . S
H309 C342 0.930 . S
H310 C340 0.929 . S
H311 C343 0.928 . S
O312 Co296 2.057 . S
O312 C300 1.232 . S
H313 C332 0.929 . S
H314 C333 0.929 . S
H315 C345 0.931 . S
H316 C337 0.929 . S
H317 C346 0.930 . S
H318 C338 0.931 . S
O319 Co295 2.097 . S
O319 C347 1.214 . S
H320 C348 0.929 . S
H321 C349 0.929 . S
H322 C350 0.930 . S
H323 C351 0.929 . S
H324 C353 0.930 . S
H325 C330 0.930 . S
H326 C334 0.930 . S
O327 Co296 2.037 . S
O327 C347 1.234 . S
C328 O302 1.269 . S
C328 O303 1.257 . S
C329 H304 0.930 . S
C329 C332 1.388 . S
C329 C334 1.418 . S
C330 H325 0.930 . S
C330 C333 1.404 . S
C330 C334 1.353 . S
N331 Co296 2.145 . S
N331 C332 1.397 . S
N331 C333 1.334 . S
C332 H313 0.929 . S
C332 C329 1.388 . S
C332 N331 1.397 . S
C333 H314 0.929 . S
C333 C330 1.404 . S
C333 N331 1.334 . S
C334 H326 0.930 . S
C334 C329 1.418 . S
C334 C330 1.353 . S
C335 H305 0.930 . S
C335 N336 1.330 . S
C335 C337 1.446 . S
N336 Co295 2.151 1_556 S
N336 C335 1.330 . S
N336 C340 1.418 . S
C337 H316 0.929 . S
C337 C335 1.446 . S
C337 C338 1.332 . S
C338 H318 0.931 . S
C338 C337 1.332 . S
C338 C339 1.267 . S
C339 H307 0.929 . S
C339 C338 1.267 . S
C339 C340 1.251 . S
C340 H310 0.929 . S
C340 N336 1.418 . S
C340 C339 1.251 . S
C341 H308 0.930 . S
C341 C343 1.406 . S
C341 C346 1.261 1_556 S
C342 H309 0.930 . S
C342 N344 1.325 . S
C342 C345 1.357 . S
C343 H311 0.928 . S
C343 C341 1.406 . S
C343 N344 1.261 1_556 S
N344 Co295 2.214 . S
N344 C342 1.325 . S
N344 C343 1.261 1_554 S
C345 H315 0.931 . S
C345 C342 1.357 . S
C345 C346 1.312 . S
C346 H317 0.930 . S
C346 C341 1.261 1_554 S
C346 C345 1.312 . S
C347 O319 1.214 . S
C347 O327 1.234 . S
C348 H320 0.929 . S
C348 C351 1.391 . S
C348 C353 1.391 . S
C349 H321 0.929 . S
C349 C350 1.390 . S
C349 N352 1.391 . S
C350 H322 0.930 . S
C350 C349 1.390 . S
C350 C351 1.392 . S
C351 H323 0.929 . S
C351 C348 1.391 . S
C351 C350 1.392 . S
N352 Co296 2.257 . S
N352 C349 1.391 . S
N352 C353 1.388 . S
C353 H324 0.930 . S
C353 C348 1.391 . S
C353 N352 1.388 . S
Co354 O356 2.143 . S
Co354 O362 2.074 . S
Co354 O365 2.093 . S
Co354 O378 2.097 . S
Co354 N395 2.151 . S
Co354 N403 2.214 . S
Co355 O356 2.160 . S
Co355 O361 2.058 . S
Co355 O371 2.057 . S
Co355 O386 2.037 . S
Co355 N390 2.145 . S
Co355 N411 2.257 1_556 S
O356 Co354 2.143 . S
O356 Co355 2.160 . S
C357 O358 1.278 1_556 S
C357 O365 1.224 . S
O358 C357 1.278 1_554 S
C359 O360 1.245 . S
C359 O371 1.232 . S
O360 C359 1.245 . S
O361 Co355 2.058 . S
O361 C387 1.269 . S
O362 Co354 2.074 . S
O362 C387 1.257 . S
H363 C388 0.930 . S
H364 C394 0.930 . S
O365 Co354 2.093 . S
O365 C357 1.224 . S
H366 C398 0.929 . S
H367 C400 0.930 . S
H368 C401 0.930 . S
H369 C399 0.929 . S
H370 C402 0.928 . S
O371 Co355 2.057 . S
O371 C359 1.232 . S
H372 C391 0.929 . S
H373 C392 0.929 . S
H374 C404 0.931 . S
H375 C396 0.929 . S
H376 C405 0.930 . S
H377 C397 0.931 . S
O378 Co354 2.097 . S
O378 C406 1.214 . S
H379 C407 0.929 . S
H380 C408 0.929 . S
H381 C409 0.930 . S
H382 C410 0.929 . S
H383 C412 0.930 . S
H384 C389 0.930 . S
H385 C393 0.930 . S
O386 Co355 2.037 . S
O386 C406 1.234 . S
C387 O361 1.269 . S
C387 O362 1.257 . S
C388 H363 0.930 . S
C388 C391 1.388 . S
C388 C393 1.418 1_556 S
C389 H384 0.930 . S
C389 C392 1.404 . S
C389 C393 1.353 . S
N390 Co355 2.145 . S
N390 C391 1.397 . S
N390 C392 1.334 1_556 S
C391 H372 0.929 . S
C391 C388 1.388 . S
C391 N390 1.397 . S
C392 H373 0.929 . S
C392 C389 1.404 . S
C392 N390 1.334 1_554 S
C393 H385 0.930 . S
C393 C388 1.418 1_554 S
C393 C389 1.353 . S
C394 H364 0.930 . S
C394 N395 1.330 . S
C394 C396 1.446 . S
N395 Co354 2.151 . S
N395 C394 1.330 . S
N395 C399 1.418 . S
C396 H375 0.929 . S
C396 C394 1.446 . S
C396 C397 1.332 . S
C397 H377 0.931 . S
C397 C396 1.332 . S
C397 C398 1.267 . S
C398 H366 0.929 . S
C398 C397 1.267 . S
C398 C399 1.251 . S
C399 H369 0.929 . S
C399 N395 1.418 . S
C399 C398 1.251 . S
C400 H367 0.930 . S
C400 C402 1.406 . S
C400 C405 1.261 . S
C401 H368 0.930 . S
C401 N403 1.325 . S
C401 C404 1.357 . S
C402 H370 0.928 . S
C402 C400 1.406 . S
C402 N403 1.261 . S
N403 Co354 2.214 . S
N403 C401 1.325 . S
N403 C402 1.261 . S
C404 H374 0.931 . S
C404 C401 1.357 . S
C404 C405 1.312 . S
C405 H376 0.930 . S
C405 C400 1.261 . S
C405 C404 1.312 . S
C406 O378 1.214 . S
C406 O386 1.234 . S
C407 H379 0.929 . S
C407 C410 1.391 . S
C407 C412 1.391 . S
C408 H380 0.929 . S
C408 C409 1.390 . S
C408 N411 1.391 . S
C409 H381 0.930 . S
C409 C408 1.390 . S
C409 C410 1.392 . S
C410 H382 0.929 . S
C410 C407 1.391 . S
C410 C409 1.392 . S
N411 Co355 2.257 1_554 S
N411 C408 1.391 . S
N411 C412 1.388 . S
C412 H383 0.930 . S
C412 C407 1.391 . S
C412 N411 1.388 . S
Co413 O415 2.143 . S
Co413 O421 2.074 . S
Co413 O424 2.093 . S
Co413 O437 2.097 . S
Co413 N454 2.151 1_554 S
Co413 N462 2.214 . S
Co414 O415 2.160 . S
Co414 O420 2.058 . S
Co414 O430 2.057 . S
Co414 O445 2.037 . S
Co414 N449 2.145 . S
Co414 N470 2.257 . S
O415 Co413 2.143 . S
O415 Co414 2.160 . S
C416 O417 1.278 . S
C416 O424 1.224 . S
O417 C416 1.278 . S
C418 O419 1.245 1_554 S
C418 O430 1.232 . S
O419 C418 1.245 1_556 S
O420 Co414 2.058 . S
O420 C446 1.269 . S
O421 Co413 2.074 . S
O421 C446 1.257 . S
H422 C447 0.930 . S
H423 C453 0.930 . S
O424 Co413 2.093 . S
O424 C416 1.224 . S
H425 C457 0.929 . S
H426 C459 0.930 . S
H427 C460 0.930 . S
H428 C458 0.929 . S
H429 C461 0.928 . S
O430 Co414 2.057 . S
O430 C418 1.232 . S
H431 C450 0.929 . S
H432 C451 0.929 . S
H433 C463 0.931 . S
H434 C455 0.929 . S
H435 C464 0.930 . S
H436 C456 0.931 . S
O437 Co413 2.097 . S
O437 C465 1.214 . S
H438 C466 0.929 . S
H439 C467 0.929 . S
H440 C468 0.930 . S
H441 C469 0.929 . S
H442 C471 0.930 . S
H443 C448 0.930 . S
H444 C452 0.930 . S
O445 Co414 2.037 . S
O445 C465 1.234 . S
C446 O420 1.269 . S
C446 O421 1.257 . S
C447 H422 0.930 . S
C447 C450 1.388 . S
C447 C452 1.418 . S
C448 H443 0.930 . S
C448 C451 1.404 . S
C448 C452 1.353 . S
N449 Co414 2.145 . S
N449 C450 1.397 . S
N449 C451 1.334 . S
C450 H431 0.929 . S
C450 C447 1.388 . S
C450 N449 1.397 . S
C451 H432 0.929 . S
C451 C448 1.404 . S
C451 N449 1.334 . S
C452 H444 0.930 . S
C452 C447 1.418 . S
C452 C448 1.353 . S
C453 H423 0.930 . S
C453 N454 1.330 . S
C453 C455 1.446 . S
N454 Co413 2.151 1_556 S
N454 C453 1.330 . S
N454 C458 1.418 . S
C455 H434 0.929 . S
C455 C453 1.446 . S
C455 C456 1.332 . S
C456 H436 0.931 . S
C456 C455 1.332 . S
C456 C457 1.267 . S
C457 H425 0.929 . S
C457 C456 1.267 . S
C457 C458 1.251 . S
C458 H428 0.929 . S
C458 N454 1.418 . S
C458 C457 1.251 . S
C459 H426 0.930 . S
C459 C461 1.406 . S
C459 C464 1.261 1_556 S
C460 H427 0.930 . S
C460 N462 1.325 . S
C460 C463 1.357 . S
C461 H429 0.928 . S
C461 C459 1.406 . S
C461 N462 1.261 1_556 S
N462 Co413 2.214 . S
N462 C460 1.325 . S
N462 C461 1.261 1_554 S
C463 H433 0.931 . S
C463 C460 1.357 . S
C463 C464 1.312 . S
C464 H435 0.930 . S
C464 C459 1.261 1_554 S
C464 C463 1.312 . S
C465 O437 1.214 . S
C465 O445 1.234 . S
C466 H438 0.929 . S
C466 C469 1.391 . S
C466 C471 1.391 . S
C467 H439 0.929 . S
C467 C468 1.390 . S
C467 N470 1.391 . S
C468 H440 0.930 . S
C468 C467 1.390 . S
C468 C469 1.392 . S
C469 H441 0.929 . S
C469 C466 1.391 . S
C469 C468 1.392 . S
N470 Co414 2.257 . S
N470 C467 1.391 . S
N470 C471 1.388 . S
C471 H442 0.930 . S
C471 C466 1.391 . S
C471 N470 1.388 . S
C472 C473 1.391 . S
C472 C474 1.394 . S
C472 H488 0.931 . S
C473 C472 1.391 . S
C473 C477 1.376 . S
C474 C472 1.394 . S
C474 C475 1.369 . S
C474 C478 1.531 . S
C475 C474 1.369 . S
C475 C476 1.410 . S
C475 C483 1.503 . S
C476 C475 1.410 . S
C476 C477 1.392 . S
C476 C479 1.511 . S
C477 C473 1.376 . S
C477 C476 1.392 . S
C477 H489 0.929 . S
C478 C474 1.531 . S
C478 H490 0.960 . S
C478 H491 0.962 . S
C478 H492 0.960 . S
C479 C476 1.511 . S
C479 H493 0.961 . S
C479 H494 0.961 . S
C479 H495 0.961 . S
C480 C481 1.370 . S
C480 C482 1.363 . S
C480 H496 0.931 . S
C481 C480 1.370 . S
C481 C485 1.408 . S
C482 C480 1.363 . S
C482 C483 1.370 . S
C482 C486 1.524 . S
C483 C475 1.503 . S
C483 C482 1.370 . S
C483 C484 1.403 . S
C484 C483 1.403 . S
C484 C485 1.404 . S
C484 C487 1.539 . S
C485 C481 1.408 . S
C485 C484 1.404 . S
C485 H497 0.930 . S
C486 C482 1.524 . S
C486 H498 0.956 . S
C486 H499 0.961 . S
C486 H500 0.961 . S
C487 C484 1.539 . S
C487 H501 0.958 . S
C487 H502 0.961 . S
C487 H503 0.960 . S
H488 C472 0.931 . S
H489 C477 0.929 . S
H490 C478 0.960 . S
H491 C478 0.962 . S
H492 C478 0.960 . S
H493 C479 0.961 . S
H494 C479 0.961 . S
H495 C479 0.961 . S
H496 C480 0.931 . S
H497 C485 0.930 . S
H498 C486 0.956 . S
H499 C486 0.961 . S
H500 C486 0.961 . S
H501 C487 0.958 . S
H502 C487 0.961 . S
H503 C487 0.960 . S
C504 C505 1.391 . S
C504 C506 1.394 . S
C504 H520 0.931 . S
C505 C504 1.391 . S
C505 C509 1.376 . S
C506 C504 1.394 . S
C506 C507 1.369 . S
C506 C510 1.531 . S
C507 C506 1.369 . S
C507 C508 1.410 . S
C507 C515 1.503 . S
C508 C507 1.410 . S
C508 C509 1.392 . S
C508 C511 1.511 . S
C509 C505 1.376 . S
C509 C508 1.392 . S
C509 H521 0.929 . S
C510 C506 1.531 . S
C510 H522 0.960 . S
C510 H523 0.962 . S
C510 H524 0.960 . S
C511 C508 1.511 . S
C511 H525 0.961 . S
C511 H526 0.961 . S
C511 H527 0.961 . S
C512 C513 1.370 . S
C512 C514 1.363 . S
C512 H528 0.931 . S
C513 C512 1.370 . S
C513 C517 1.408 . S
C514 C512 1.363 . S
C514 C515 1.370 . S
C514 C518 1.524 . S
C515 C507 1.503 . S
C515 C514 1.370 . S
C515 C516 1.403 . S
C516 C515 1.403 . S
C516 C517 1.404 . S
C516 C519 1.539 . S
C517 C513 1.408 . S
C517 C516 1.404 . S
C517 H529 0.930 . S
C518 C514 1.524 . S
C518 H530 0.956 . S
C518 H531 0.961 . S
C518 H532 0.961 . S
C519 C516 1.539 . S
C519 H533 0.958 . S
C519 H534 0.961 . S
C519 H535 0.960 . S
H520 C504 0.931 . S
H521 C509 0.929 . S
H522 C510 0.960 . S
H523 C510 0.962 . S
H524 C510 0.960 . S
H525 C511 0.961 . S
H526 C511 0.961 . S
H527 C511 0.961 . S
H528 C512 0.931 . S
H529 C517 0.930 . S
H530 C518 0.956 . S
H531 C518 0.961 . S
H532 C518 0.961 . S
H533 C519 0.958 . S
H534 C519 0.961 . S
H535 C519 0.960 . S
C536 C537 1.391 . S
C536 C538 1.394 . S
C536 H552 0.931 . S
C537 C536 1.391 . S
C537 C541 1.376 . S
C538 C536 1.394 . S
C538 C539 1.369 . S
C538 C542 1.531 . S
C539 C538 1.369 . S
C539 C540 1.410 . S
C539 C547 1.503 . S
C540 C539 1.410 . S
C540 C541 1.392 . S
C540 C543 1.511 . S
C541 C537 1.376 . S
C541 C540 1.392 . S
C541 H553 0.929 . S
C542 C538 1.531 . S
C542 H554 0.960 . S
C542 H555 0.962 . S
C542 H556 0.960 . S
C543 C540 1.511 . S
C543 H557 0.961 . S
C543 H558 0.961 . S
C543 H559 0.961 . S
C544 C545 1.370 . S
C544 C546 1.363 . S
C544 H560 0.931 . S
C545 C544 1.370 . S
C545 C549 1.408 . S
C546 C544 1.363 . S
C546 C547 1.370 . S
C546 C550 1.524 . S
C547 C539 1.503 . S
C547 C546 1.370 . S
C547 C548 1.403 . S
C548 C547 1.403 . S
C548 C549 1.404 . S
C548 C551 1.539 . S
C549 C545 1.408 . S
C549 C548 1.404 . S
C549 H561 0.930 . S
C550 C546 1.524 . S
C550 H562 0.956 . S
C550 H563 0.961 . S
C550 H564 0.961 . S
C551 C548 1.539 . S
C551 H565 0.958 . S
C551 H566 0.961 . S
C551 H567 0.960 . S
H552 C536 0.931 . S
H553 C541 0.929 . S
H554 C542 0.960 . S
H555 C542 0.962 . S
H556 C542 0.960 . S
H557 C543 0.961 . S
H558 C543 0.961 . S
H559 C543 0.961 . S
H560 C544 0.931 . S
H561 C549 0.930 . S
H562 C550 0.956 . S
H563 C550 0.961 . S
H564 C550 0.961 . S
H565 C551 0.958 . S
H566 C551 0.961 . S
H567 C551 0.960 . S
C568 C569 1.391 . S
C568 C570 1.394 . S
C568 H584 0.931 . S
C569 C568 1.391 . S
C569 C573 1.376 . S
C570 C568 1.394 . S
C570 C571 1.369 . S
C570 C574 1.531 . S
C571 C570 1.369 . S
C571 C572 1.410 . S
C571 C579 1.503 . S
C572 C571 1.410 . S
C572 C573 1.392 . S
C572 C575 1.511 . S
C573 C569 1.376 . S
C573 C572 1.392 . S
C573 H585 0.929 . S
C574 C570 1.531 . S
C574 H586 0.960 . S
C574 H587 0.962 . S
C574 H588 0.960 . S
C575 C572 1.511 . S
C575 H589 0.961 . S
C575 H590 0.961 . S
C575 H591 0.961 . S
C576 C577 1.370 . S
C576 C578 1.363 . S
C576 H592 0.931 . S
C577 C576 1.370 . S
C577 C581 1.408 . S
C578 C576 1.363 . S
C578 C579 1.370 . S
C578 C582 1.524 . S
C579 C571 1.503 . S
C579 C578 1.370 . S
C579 C580 1.403 . S
C580 C579 1.403 . S
C580 C581 1.404 . S
C580 C583 1.539 . S
C581 C577 1.408 . S
C581 C580 1.404 . S
C581 H593 0.930 . S
C582 C578 1.524 . S
C582 H594 0.956 . S
C582 H595 0.961 . S
C582 H596 0.961 . S
C583 C580 1.539 . S
C583 H597 0.958 . S
C583 H598 0.961 . S
C583 H599 0.960 . S
H584 C568 0.931 . S
H585 C573 0.929 . S
H586 C574 0.960 . S
H587 C574 0.962 . S
H588 C574 0.960 . S
H589 C575 0.961 . S
H590 C575 0.961 . S
H591 C575 0.961 . S
H592 C576 0.931 . S
H593 C581 0.930 . S
H594 C582 0.956 . S
H595 C582 0.961 . S
H596 C582 0.961 . S
H597 C583 0.958 . S
H598 C583 0.961 . S
H599 C583 0.960 . S
C600 C601 1.391 . S
C600 C602 1.394 . S
C600 H616 0.931 . S
C601 C600 1.391 . S
C601 C605 1.376 . S
C602 C600 1.394 . S
C602 C603 1.369 . S
C602 C606 1.531 . S
C603 C602 1.369 . S
C603 C604 1.410 . S
C603 C611 1.503 . S
C604 C603 1.410 . S
C604 C605 1.392 . S
C604 C607 1.511 . S
C605 C601 1.376 . S
C605 C604 1.392 . S
C605 H617 0.929 . S
C606 C602 1.531 . S
C606 H618 0.960 . S
C606 H619 0.962 . S
C606 H620 0.960 . S
C607 C604 1.511 . S
C607 H621 0.961 . S
C607 H622 0.961 . S
C607 H623 0.961 . S
C608 C609 1.370 . S
C608 C610 1.363 . S
C608 H624 0.931 . S
C609 C608 1.370 . S
C609 C613 1.408 . S
C610 C608 1.363 . S
C610 C611 1.370 . S
C610 C614 1.524 . S
C611 C603 1.503 . S
C611 C610 1.370 . S
C611 C612 1.403 . S
C612 C611 1.403 . S
C612 C613 1.404 . S
C612 C615 1.539 . S
C613 C609 1.408 . S
C613 C612 1.404 . S
C613 H625 0.930 . S
C614 C610 1.524 . S
C614 H626 0.956 . S
C614 H627 0.961 . S
C614 H628 0.961 . S
C615 C612 1.539 . S
C615 H629 0.958 . S
C615 H630 0.961 . S
C615 H631 0.960 . S
H616 C600 0.931 . S
H617 C605 0.929 . S
H618 C606 0.960 . S
H619 C606 0.962 . S
H620 C606 0.960 . S
H621 C607 0.961 . S
H622 C607 0.961 . S
H623 C607 0.961 . S
H624 C608 0.931 . S
H625 C613 0.930 . S
H626 C614 0.956 . S
H627 C614 0.961 . S
H628 C614 0.961 . S
H629 C615 0.958 . S
H630 C615 0.961 . S
H631 C615 0.960 . S
C632 C633 1.391 . S
C632 C634 1.394 . S
C632 H648 0.931 . S
C633 C632 1.391 . S
C633 C637 1.376 . S
C634 C632 1.394 . S
C634 C635 1.369 . S
C634 C638 1.531 . S
C635 C634 1.369 . S
C635 C636 1.410 . S
C635 C643 1.503 . S
C636 C635 1.410 . S
C636 C637 1.392 . S
C636 C639 1.511 . S
C637 C633 1.376 . S
C637 C636 1.392 . S
C637 H649 0.929 . S
C638 C634 1.531 . S
C638 H650 0.960 . S
C638 H651 0.962 . S
C638 H652 0.960 . S
C639 C636 1.511 . S
C639 H653 0.961 . S
C639 H654 0.961 . S
C639 H655 0.961 . S
C640 C641 1.370 . S
C640 C642 1.363 . S
C640 H656 0.931 . S
C641 C640 1.370 . S
C641 C645 1.408 . S
C642 C640 1.363 . S
C642 C643 1.370 . S
C642 C646 1.524 . S
C643 C635 1.503 . S
C643 C642 1.370 . S
C643 C644 1.403 . S
C644 C643 1.403 . S
C644 C645 1.404 . S
C644 C647 1.539 . S
C645 C641 1.408 . S
C645 C644 1.404 . S
C645 H657 0.930 . S
C646 C642 1.524 . S
C646 H658 0.956 . S
C646 H659 0.961 . S
C646 H660 0.961 . S
C647 C644 1.539 . S
C647 H661 0.958 . S
C647 H662 0.961 . S
C647 H663 0.960 . S
H648 C632 0.931 . S
H649 C637 0.929 . S
H650 C638 0.960 . S
H651 C638 0.962 . S
H652 C638 0.960 . S
H653 C639 0.961 . S
H654 C639 0.961 . S
H655 C639 0.961 . S
H656 C640 0.931 . S
H657 C645 0.930 . S
H658 C646 0.956 . S
H659 C646 0.961 . S
H660 C646 0.961 . S
H661 C647 0.958 . S
H662 C647 0.961 . S
H663 C647 0.960 . S
C664 C665 1.391 . S
C664 C666 1.394 . S
C664 H680 0.931 . S
C665 C664 1.391 . S
C665 C669 1.376 . S
C666 C664 1.394 . S
C666 C667 1.369 . S
C666 C670 1.531 . S
C667 C666 1.369 . S
C667 C668 1.410 . S
C667 C675 1.503 . S
C668 C667 1.410 . S
C668 C669 1.392 . S
C668 C671 1.511 . S
C669 C665 1.376 . S
C669 C668 1.392 . S
C669 H681 0.929 . S
C670 C666 1.531 . S
C670 H682 0.960 . S
C670 H683 0.962 . S
C670 H684 0.960 . S
C671 C668 1.511 . S
C671 H685 0.961 . S
C671 H686 0.961 . S
C671 H687 0.961 . S
C672 C673 1.370 . S
C672 C674 1.363 . S
C672 H688 0.931 . S
C673 C672 1.370 . S
C673 C677 1.408 . S
C674 C672 1.363 . S
C674 C675 1.370 . S
C674 C678 1.524 . S
C675 C667 1.503 . S
C675 C674 1.370 . S
C675 C676 1.403 . S
C676 C675 1.403 . S
C676 C677 1.404 . S
C676 C679 1.539 . S
C677 C673 1.408 . S
C677 C676 1.404 . S
C677 H689 0.930 . S
C678 C674 1.524 . S
C678 H690 0.956 . S
C678 H691 0.961 . S
C678 H692 0.961 . S
C679 C676 1.539 . S
C679 H693 0.958 . S
C679 H694 0.961 . S
C679 H695 0.960 . S
H680 C664 0.931 . S
H681 C669 0.929 . S
H682 C670 0.960 . S
H683 C670 0.962 . S
H684 C670 0.960 . S
H685 C671 0.961 . S
H686 C671 0.961 . S
H687 C671 0.961 . S
H688 C672 0.931 . S
H689 C677 0.930 . S
H690 C678 0.956 . S
H691 C678 0.961 . S
H692 C678 0.961 . S
H693 C679 0.958 . S
H694 C679 0.961 . S
H695 C679 0.960 . S
C696 C697 1.391 . S
C696 C698 1.394 . S
C696 H712 0.931 . S
C697 C696 1.391 . S
C697 C701 1.376 . S
C698 C696 1.394 . S
C698 C699 1.369 . S
C698 C702 1.531 . S
C699 C698 1.369 . S
C699 C700 1.410 . S
C699 C707 1.503 . S
C700 C699 1.410 . S
C700 C701 1.392 . S
C700 C703 1.511 . S
C701 C697 1.376 . S
C701 C700 1.392 . S
C701 H713 0.929 . S
C702 C698 1.531 . S
C702 H714 0.960 . S
C702 H715 0.962 . S
C702 H716 0.960 . S
C703 C700 1.511 . S
C703 H717 0.961 . S
C703 H718 0.961 . S
C703 H719 0.961 . S
C704 C705 1.370 . S
C704 C706 1.363 . S
C704 H720 0.931 . S
C705 C704 1.370 . S
C705 C709 1.408 . S
C706 C704 1.363 . S
C706 C707 1.370 . S
C706 C710 1.524 . S
C707 C699 1.503 . S
C707 C706 1.370 . S
C707 C708 1.403 . S
C708 C707 1.403 . S
C708 C709 1.404 . S
C708 C711 1.539 . S
C709 C705 1.408 . S
C709 C708 1.404 . S
C709 H721 0.930 . S
C710 C706 1.524 . S
C710 H722 0.956 . S
C710 H723 0.961 . S
C710 H724 0.961 . S
C711 C708 1.539 . S
C711 H725 0.958 . S
C711 H726 0.961 . S
C711 H727 0.960 . S
H712 C696 0.931 . S
H713 C701 0.929 . S
H714 C702 0.960 . S
H715 C702 0.962 . S
H716 C702 0.960 . S
H717 C703 0.961 . S
H718 C703 0.961 . S
H719 C703 0.961 . S
H720 C704 0.931 . S
H721 C709 0.930 . S
H722 C710 0.956 . S
H723 C710 0.961 . S
H724 C710 0.961 . S
H725 C711 0.958 . S
H726 C711 0.961 . S
H727 C711 0.960 . S
C728 C729 1.391 . S
C728 C730 1.394 . S
C728 H744 0.931 . S
C729 C728 1.391 . S
C729 C733 1.376 . S
C730 C728 1.394 . S
C730 C731 1.369 . S
C730 C734 1.531 . S
C731 C730 1.369 . S
C731 C732 1.410 . S
C731 C739 1.503 . S
C732 C731 1.410 . S
C732 C733 1.392 . S
C732 C735 1.511 . S
C733 C729 1.376 . S
C733 C732 1.392 . S
C733 H745 0.929 . S
C734 C730 1.531 . S
C734 H746 0.960 . S
C734 H747 0.962 1_554 S
C734 H748 0.960 . S
C735 C732 1.511 . S
C735 H749 0.961 . S
C735 H750 0.962 1_554 S
C735 H751 0.961 . S
C736 C737 1.370 . S
C736 C738 1.363 . S
C736 H752 0.931 . S
C737 C736 1.370 . S
C737 C741 1.408 1_556 S
C738 C736 1.363 . S
C738 C739 1.370 1_556 S
C738 C742 1.524 . S
C739 C731 1.503 . S
C739 C738 1.370 1_554 S
C739 C740 1.403 . S
C740 C739 1.403 . S
C740 C741 1.404 . S
C740 C743 1.539 . S
C741 C737 1.408 1_554 S
C741 C740 1.404 . S
C741 H753 0.930 . S
C742 C738 1.524 . S
C742 H754 0.956 . S
C742 H755 0.961 . S
C742 H756 0.961 . S
C743 C740 1.539 . S
C743 H757 0.958 . S
C743 H758 0.961 . S
C743 H759 0.960 . S
H744 C728 0.931 . S
H745 C733 0.929 . S
H746 C734 0.960 . S
H747 C734 0.962 1_556 S
H748 C734 0.960 . S
H749 C735 0.961 . S
H750 C735 0.962 1_556 S
H751 C735 0.961 . S
H752 C736 0.931 . S
H753 C741 0.930 . S
H754 C742 0.956 . S
H755 C742 0.961 . S
H756 C742 0.961 . S
H757 C743 0.958 . S
H758 C743 0.961 . S
H759 C743 0.960 . S
C760 C761 1.391 1_556 S
C760 C762 1.394 . S
C760 H776 0.931 . S
C761 C760 1.391 1_554 S
C761 C765 1.376 . S
C762 C760 1.394 . S
C762 C763 1.369 . S
C762 C766 1.531 . S
C763 C762 1.369 . S
C763 C764 1.410 1_556 S
C763 C771 1.503 . S
C764 C763 1.410 1_554 S
C764 C765 1.392 . S
C764 C767 1.511 . S
C765 C761 1.376 . S
C765 C764 1.392 . S
C765 H777 0.929 . S
C766 C762 1.531 . S
C766 H778 0.960 . S
C766 H779 0.962 . S
C766 H780 0.960 . S
C767 C764 1.511 . S
C767 H781 0.961 . S
C767 H782 0.961 . S
C767 H783 0.961 1_554 S
C768 C769 1.370 1_554 S
C768 C770 1.363 . S
C768 H784 0.931 . S
C769 C768 1.370 1_556 S
C769 C773 1.408 . S
C770 C768 1.363 . S
C770 C771 1.370 1_554 S
C770 C774 1.524 . S
C771 C763 1.503 . S
C771 C770 1.370 1_556 S
C771 C772 1.403 . S
C772 C771 1.403 . S
C772 C773 1.404 . S
C772 C775 1.539 . S
C773 C769 1.408 . S
C773 C772 1.404 . S
C773 H785 0.930 . S
C774 C770 1.524 . S
C774 H786 0.956 . S
C774 H787 0.961 . S
C774 H788 0.961 . S
C775 C772 1.539 . S
C775 H789 0.958 . S
C775 H790 0.961 . S
C775 H791 0.960 . S
H776 C760 0.931 . S
H777 C765 0.929 . S
H778 C766 0.960 . S
H779 C766 0.962 . S
H780 C766 0.960 . S
H781 C767 0.961 . S
H782 C767 0.961 . S
H783 C767 0.961 1_556 S
H784 C768 0.931 . S
H785 C773 0.930 . S
H786 C774 0.956 . S
H787 C774 0.961 . S
H788 C774 0.961 . S
H789 C775 0.958 . S
H790 C775 0.961 . S
H791 C775 0.960 . S
C792 C793 1.391 . S
C792 C794 1.394 . S
C792 H808 0.931 . S
C793 C792 1.391 . S
C793 C797 1.376 1_554 S
C794 C792 1.394 . S
C794 C795 1.369 . S
C794 C798 1.531 . S
C795 C794 1.369 . S
C795 C796 1.410 1_554 S
C795 C803 1.503 . S
C796 C795 1.410 1_556 S
C796 C797 1.392 . S
C796 C799 1.511 . S
C797 C793 1.376 1_556 S
C797 C796 1.392 . S
C797 H809 0.929 . S
C798 C794 1.531 . S
C798 H810 0.960 . S
C798 H811 0.962 . S
C798 H812 0.960 . S
C799 C796 1.511 . S
C799 H813 0.961 . S
C799 H814 0.961 . S
C799 H815 0.961 . S
C800 C801 1.370 . S
C800 C802 1.363 . S
C800 H816 0.931 . S
C801 C800 1.370 . S
C801 C805 1.408 1_556 S
C802 C800 1.363 . S
C802 C803 1.370 1_556 S
C802 C806 1.524 . S
C803 C795 1.503 . S
C803 C802 1.370 1_554 S
C803 C804 1.403 . S
C804 C803 1.403 . S
C804 C805 1.404 . S
C804 C807 1.539 . S
C805 C801 1.408 1_554 S
C805 C804 1.404 . S
C805 H817 0.930 . S
C806 C802 1.524 . S
C806 H818 0.956 . S
C806 H819 0.961 . S
C806 H820 0.961 . S
C807 C804 1.539 . S
C807 H821 0.958 . S
C807 H822 0.961 . S
C807 H823 0.960 . S
H808 C792 0.931 . S
H809 C797 0.929 . S
H810 C798 0.960 . S
H811 C798 0.962 . S
H812 C798 0.960 . S
H813 C799 0.961 . S
H814 C799 0.961 . S
H815 C799 0.961 . S
H816 C800 0.931 . S
H817 C805 0.930 . S
H818 C806 0.956 . S
H819 C806 0.961 . S
H820 C806 0.961 . S
H821 C807 0.958 . S
H822 C807 0.961 . S
H823 C807 0.960 . S
C824 C825 1.391 . S
C824 C826 1.394 . S
C824 H840 0.931 . S
C825 C824 1.391 . S
C825 C829 1.376 1_556 S
C826 C824 1.394 . S
C826 C827 1.369 . S
C826 C830 1.531 . S
C827 C826 1.369 . S
C827 C828 1.410 1_556 S
C827 C835 1.503 . S
C828 C827 1.410 1_554 S
C828 C829 1.392 . S
C828 C831 1.511 . S
C829 C825 1.376 1_554 S
C829 C828 1.392 . S
C829 H841 0.929 . S
C830 C826 1.531 . S
C830 H842 0.960 . S
C830 H843 0.962 . S
C830 H844 0.960 . S
C831 C828 1.511 . S
C831 H845 0.961 . S
C831 H846 0.961 . S
C831 H847 0.961 . S
C832 C833 1.370 . S
C832 C834 1.363 . S
C832 H848 0.931 . S
C833 C832 1.370 . S
C833 C837 1.408 1_554 S
C834 C832 1.363 . S
C834 C835 1.370 1_554 S
C834 C838 1.524 . S
C835 C827 1.503 . S
C835 C834 1.370 1_556 S
C835 C836 1.403 . S
C836 C835 1.403 . S
C836 C837 1.404 . S
C836 C839 1.539 . S
C837 C833 1.408 1_556 S
C837 C836 1.404 . S
C837 H849 0.930 . S
C838 C834 1.524 . S
C838 H850 0.956 . S
C838 H851 0.961 . S
C838 H852 0.961 . S
C839 C836 1.539 . S
C839 H853 0.958 . S
C839 H854 0.961 . S
C839 H855 0.960 . S
H840 C824 0.931 . S
H841 C829 0.929 . S
H842 C830 0.960 . S
H843 C830 0.962 . S
H844 C830 0.960 . S
H845 C831 0.961 . S
H846 C831 0.961 . S
H847 C831 0.961 . S
H848 C832 0.931 . S
H849 C837 0.930 . S
H850 C838 0.956 . S
H851 C838 0.961 . S
H852 C838 0.961 . S
H853 C839 0.958 . S
H854 C839 0.961 . S
H855 C839 0.960 . S
C856 C857 1.391 . S
C856 C858 1.394 . S
C856 H872 0.931 . S
C857 C856 1.391 . S
C857 C861 1.349 1_655 S
C858 C856 1.394 . S
C858 C859 1.369 . S
C858 C862 1.531 . S
C859 C858 1.369 . S
C859 C860 1.410 1_655 S
C859 C867 1.503 1_655 S
C860 C859 1.410 1_455 S
C860 C861 1.405 . S
C860 C863 1.511 . S
C861 C857 1.349 1_455 S
C861 C860 1.405 . S
C861 H873 0.944 . S
C862 C858 1.531 . S
C862 H874 0.960 . S
C862 H875 0.962 . S
C862 H876 0.960 . S
C863 C860 1.511 . S
C863 H877 0.961 . S
C863 H878 0.961 . S
C863 H879 0.961 . S
C864 C865 1.370 . S
C864 C866 1.369 . S
C864 H880 0.931 . S
C865 C864 1.370 . S
C865 C869 1.408 . S
C866 C864 1.369 . S
C866 C867 1.375 . S
C866 C870 1.514 1_455 S
C867 C859 1.503 1_455 S
C867 C866 1.375 . S
C867 C868 1.403 . S
C868 C867 1.403 . S
C868 C869 1.404 . S
C868 C871 1.539 . S
C869 C865 1.408 . S
C869 C868 1.404 . S
C869 H881 0.930 . S
C870 C866 1.514 1_655 S
C870 H882 0.956 . S
C870 H883 0.961 . S
C870 H884 0.961 . S
C871 C868 1.539 . S
C871 H885 0.958 . S
C871 H886 0.961 . S
C871 H887 0.960 . S
H872 C856 0.931 . S
H873 C861 0.944 . S
H874 C862 0.960 . S
H875 C862 0.962 . S
H876 C862 0.960 . S
H877 C863 0.961 . S
H878 C863 0.961 . S
H879 C863 0.961 . S
H880 C864 0.931 . S
H881 C869 0.930 . S
H882 C870 0.956 . S
H883 C870 0.961 . S
H884 C870 0.961 . S
H885 C871 0.958 . S
H886 C871 0.961 . S
H887 C871 0.960 . S
C888 C889 1.391 . S
C888 C890 1.394 . S
C888 H904 0.931 . S
C889 C888 1.391 . S
C889 C893 1.376 . S
C890 C888 1.394 . S
C890 C891 1.369 . S
C890 C894 1.531 . S
C891 C890 1.369 . S
C891 C892 1.410 . S
C891 C899 1.503 1_545 S
C892 C891 1.410 . S
C892 C893 1.392 . S
C892 C895 1.511 1_545 S
C893 C889 1.376 . S
C893 C892 1.392 . S
C893 H905 0.929 . S
C894 C890 1.531 . S
C894 H906 0.960 . S
C894 H907 0.962 . S
C894 H908 0.960 . S
C895 C892 1.511 1_565 S
C895 H909 0.961 . S
C895 H910 0.961 . S
C895 H911 0.961 . S
C896 C897 1.370 . S
C896 C898 1.363 . S
C896 H912 0.931 . S
C897 C896 1.370 . S
C897 C901 1.407 . S
C898 C896 1.363 . S
C898 C899 1.370 . S
C898 C902 1.524 . S
C899 C891 1.503 1_565 S
C899 C898 1.370 . S
C899 C900 1.403 1_565 S
C900 C899 1.403 1_545 S
C900 C901 1.404 1_545 S
C900 C903 1.539 . S
C901 C897 1.407 . S
C901 C900 1.404 1_565 S
C901 H913 0.930 1_565 S
C902 C898 1.524 . S
C902 H914 0.956 . S
C902 H915 0.961 . S
C902 H916 0.961 . S
C903 C900 1.539 . S
C903 H917 0.958 . S
C903 H918 0.961 . S
C903 H919 0.960 . S
H904 C888 0.931 . S
H905 C893 0.929 . S
H906 C894 0.960 . S
H907 C894 0.962 . S
H908 C894 0.960 . S
H909 C895 0.961 . S
H910 C895 0.961 . S
H911 C895 0.961 . S
H912 C896 0.931 . S
H913 C901 0.930 1_545 S
H914 C902 0.956 . S
H915 C902 0.961 . S
H916 C902 0.961 . S
H917 C903 0.958 . S
H918 C903 0.961 . S
H919 C903 0.960 . S
C920 C921 1.391 . S
C920 C922 1.394 . S
C920 H936 0.931 . S
C921 C920 1.391 . S
C921 C925 1.376 . S
C922 C920 1.394 . S
C922 C923 1.369 . S
C922 C926 1.531 . S
C923 C922 1.369 . S
C923 C924 1.410 . S
C923 C931 1.503 1_545 S
C924 C923 1.410 . S
C924 C925 1.392 . S
C924 C927 1.511 1_545 S
C925 C921 1.376 . S
C925 C924 1.392 . S
C925 H937 0.929 . S
C926 C922 1.531 . S
C926 H938 0.960 . S
C926 H939 0.962 . S
C926 H940 0.960 . S
C927 C924 1.511 1_565 S
C927 H941 0.961 1_566 S
C927 H942 0.961 1_556 S
C927 H943 0.961 . S
C928 C929 1.370 1_554 S
C928 C930 1.363 . S
C928 H944 0.931 . S
C929 C928 1.370 1_556 S
C929 C933 1.408 . S
C930 C928 1.363 . S
C930 C931 1.370 1_554 S
C930 C934 1.524 . S
C931 C923 1.503 1_565 S
C931 C930 1.370 1_556 S
C931 C932 1.403 . S
C932 C931 1.403 . S
C932 C933 1.404 . S
C932 C935 1.539 . S
C933 C929 1.408 . S
C933 C932 1.404 . S
C933 H945 0.930 . S
C934 C930 1.524 . S
C934 H946 0.956 1_565 S
C934 H947 0.961 1_565 S
C934 H948 0.961 . S
C935 C932 1.539 . S
C935 H949 0.958 . S
C935 H950 0.961 . S
C935 H951 0.960 . S
H936 C920 0.931 . S
H937 C925 0.929 . S
H938 C926 0.960 . S
H939 C926 0.962 . S
H940 C926 0.960 . S
H941 C927 0.961 1_544 S
H942 C927 0.961 1_554 S
H943 C927 0.961 . S
H944 C928 0.931 . S
H945 C933 0.930 . S
H946 C934 0.956 1_545 S
H947 C934 0.961 1_545 S
H948 C934 0.961 . S
H949 C935 0.958 . S
H950 C935 0.961 . S
H951 C935 0.960 . S
C952 C953 1.391 . S
C952 C954 1.394 . S
C952 H968 0.931 . S
C953 C952 1.391 . S
C953 C957 1.376 . S
C954 C952 1.394 . S
C954 C955 1.369 . S
C954 C958 1.531 . S
C955 C954 1.369 . S
C955 C956 1.410 . S
C955 C963 1.503 1_455 S
C956 C955 1.410 . S
C956 C957 1.392 . S
C956 C959 1.511 1_554 S
C957 C953 1.376 . S
C957 C956 1.392 . S
C957 H969 0.929 1_554 S
C958 C954 1.531 . S
C958 H970 0.960 1_455 S
C958 H971 0.962 1_455 S
C958 H972 0.960 . S
C959 C956 1.511 1_556 S
C959 H973 0.961 . S
C959 H974 0.961 . S
C959 H975 0.961 . S
C960 C961 1.370 . S
C960 C962 1.363 . S
C960 H976 0.931 1_554 S
C961 C960 1.370 . S
C961 C965 1.408 . S
C962 C960 1.363 . S
C962 C963 1.370 . S
C962 C966 1.524 1_554 S
C963 C955 1.503 1_655 S
C963 C962 1.370 . S
C963 C964 1.403 . S
C964 C963 1.403 . S
C964 C965 1.404 . S
C964 C967 1.539 . S
C965 C961 1.408 . S
C965 C964 1.404 . S
C965 H977 0.930 . S
C966 C962 1.524 1_556 S
C966 H978 0.956 . S
C966 H979 0.961 . S
C966 H980 0.961 . S
C967 C964 1.539 . S
C967 H981 0.958 . S
C967 H982 0.961 . S
C967 H983 0.960 1_655 S
H968 C952 0.931 . S
H969 C957 0.929 1_556 S
H970 C958 0.960 1_655 S
H971 C958 0.962 1_655 S
H972 C958 0.960 . S
H973 C959 0.961 . S
H974 C959 0.961 . S
H975 C959 0.961 . S
H976 C960 0.931 1_556 S
H977 C965 0.930 . S
H978 C966 0.956 . S
H979 C966 0.961 . S
H980 C966 0.961 . S
H981 C967 0.958 . S
H982 C967 0.961 . S
H983 C967 0.960 1_455 S
C473 C465 1.586 . S
C481 C33 1.612 . S
C505 C92 1.613 . S
C513 C269 1.605 . S
C537 C151 1.591 . S
C545 C347 1.606 . S
C569 C387 1.601 . S
C577 C210 1.610 . S
C601 C62 1.502 . S
C609 C5 1.518 . S
C633 C64 1.491 . S
C641 C121 1.530 . S
C665 C180 1.508 . S
C673 C123 1.516 . S
C697 C182 1.495 . S
C705 C3 1.529 . S
C729 C418 1.510 . S
C737 C241 1.517 . S
C761 C298 1.524 . S
C769 C239 1.520 . S
C793 C300 1.512 . S
C801 C359 1.513 . S
C825 C357 1.504 . S
C833 C416 1.517 . S
C857 C170 1.259 . S
C865 C52 1.276 . S
C889 C229 1.287 . S
C897 C111 1.274 . S
C921 C406 1.266 . S
C929 C288 1.268 . S
C953 C446 1.248 . S
C961 C328 1.268 . S
