# Generated by pormake.
# Topology crs-a, (5)-cn, num edge types: 1
# Building blocks:
#     Node 0, Type 0, BuildingBlock: XOMCOT_clean_sbu_1, # of connection points: 5
#     Node 1, Type 0, BuildingBlock: XOMCOT_clean_sbu_1, # of connection points: 5
#     Node 2, Type 0, BuildingBlock: XOMCOT_clean_sbu_1, # of connection points: 5
#     Node 3, Type 0, BuildingBlock: XOMCOT_clean_sbu_1, # of connection points: 5
#     Node 4, Type 0, BuildingBlock: XOMCOT_clean_sbu_1, # of connection points: 5
#     Node 5, Type 0, BuildingBlock: XOMCOT_clean_sbu_1, # of connection points: 5
#     Node 6, Type 0, BuildingBlock: XOMCOT_clean_sbu_1, # of connection points: 5
#     Node 7, Type 0, BuildingBlock: XOMCOT_clean_sbu_1, # of connection points: 5
#     Node 8, Type 0, BuildingBlock: XOMCOT_clean_sbu_1, # of connection points: 5
#     Node 9, Type 0, BuildingBlock: XOMCOT_clean_sbu_1, # of connection points: 5
#     Node 10, Type 0, BuildingBlock: XOMCOT_clean_sbu_1, # of connection points: 5
#     Node 11, Type 0, BuildingBlock: XOMCOT_clean_sbu_1, # of connection points: 5
#     Node 12, Type 0, BuildingBlock: XOMCOT_clean_sbu_1, # of connection points: 5
#     Node 13, Type 0, BuildingBlock: XOMCOT_clean_sbu_1, # of connection points: 5
#     Node 14, Type 0, BuildingBlock: XOMCOT_clean_sbu_1, # of connection points: 5
#     Node 15, Type 0, BuildingBlock: XOMCOT_clean_sbu_1, # of connection points: 5
#     Node 16, Type 0, BuildingBlock: XOMCOT_clean_sbu_1, # of connection points: 5
#     Node 17, Type 0, BuildingBlock: XOMCOT_clean_sbu_1, # of connection points: 5
#     Node 18, Type 0, BuildingBlock: XOMCOT_clean_sbu_1, # of connection points: 5
#     Node 19, Type 0, BuildingBlock: XOMCOT_clean_sbu_1, # of connection points: 5
#     Node 20, Type 0, BuildingBlock: XOMCOT_clean_sbu_1, # of connection points: 5
#     Node 21, Type 0, BuildingBlock: XOMCOT_clean_sbu_1, # of connection points: 5
#     Node 22, Type 0, BuildingBlock: XOMCOT_clean_sbu_1, # of connection points: 5
#     Node 23, Type 0, BuildingBlock: XOMCOT_clean_sbu_1, # of connection points: 5
#     Node 24, Type 0, BuildingBlock: XOMCOT_clean_sbu_1, # of connection points: 5
#     Node 25, Type 0, BuildingBlock: XOMCOT_clean_sbu_1, # of connection points: 5
#     Node 26, Type 0, BuildingBlock: XOMCOT_clean_sbu_1, # of connection points: 5
#     Node 27, Type 0, BuildingBlock: XOMCOT_clean_sbu_1, # of connection points: 5
#     Node 28, Type 0, BuildingBlock: XOMCOT_clean_sbu_1, # of connection points: 5
#     Node 29, Type 0, BuildingBlock: XOMCOT_clean_sbu_1, # of connection points: 5
#     Node 30, Type 0, BuildingBlock: XOMCOT_clean_sbu_1, # of connection points: 5
#     Node 31, Type 0, BuildingBlock: XOMCOT_clean_sbu_1, # of connection points: 5
#     Node 32, Type 0, BuildingBlock: XOMCOT_clean_sbu_1, # of connection points: 5
#     Node 33, Type 0, BuildingBlock: XOMCOT_clean_sbu_1, # of connection points: 5
#     Node 34, Type 0, BuildingBlock: XOMCOT_clean_sbu_1, # of connection points: 5
#     Node 35, Type 0, BuildingBlock: XOMCOT_clean_sbu_1, # of connection points: 5
#     Node 36, Type 0, BuildingBlock: XOMCOT_clean_sbu_1, # of connection points: 5
#     Node 37, Type 0, BuildingBlock: XOMCOT_clean_sbu_1, # of connection points: 5
#     Node 38, Type 0, BuildingBlock: XOMCOT_clean_sbu_1, # of connection points: 5
#     Node 39, Type 0, BuildingBlock: XOMCOT_clean_sbu_1, # of connection points: 5
#     Node 40, Type 0, BuildingBlock: XOMCOT_clean_sbu_1, # of connection points: 5
#     Node 41, Type 0, BuildingBlock: XOMCOT_clean_sbu_1, # of connection points: 5
#     Node 42, Type 0, BuildingBlock: XOMCOT_clean_sbu_1, # of connection points: 5
#     Node 43, Type 0, BuildingBlock: XOMCOT_clean_sbu_1, # of connection points: 5
#     Node 44, Type 0, BuildingBlock: XOMCOT_clean_sbu_1, # of connection points: 5
#     Node 45, Type 0, BuildingBlock: XOMCOT_clean_sbu_1, # of connection points: 5
#     Node 46, Type 0, BuildingBlock: XOMCOT_clean_sbu_1, # of connection points: 5
#     Node 47, Type 0, BuildingBlock: XOMCOT_clean_sbu_1, # of connection points: 5
#     Node 48, Type 0, BuildingBlock: XOMCOT_clean_sbu_1, # of connection points: 5
#     Node 49, Type 0, BuildingBlock: XOMCOT_clean_sbu_1, # of connection points: 5
#     Node 50, Type 0, BuildingBlock: XOMCOT_clean_sbu_1, # of connection points: 5
#     Node 51, Type 0, BuildingBlock: XOMCOT_clean_sbu_1, # of connection points: 5
#     Node 52, Type 0, BuildingBlock: XOMCOT_clean_sbu_1, # of connection points: 5
#     Node 53, Type 0, BuildingBlock: XOMCOT_clean_sbu_1, # of connection points: 5
#     Node 54, Type 0, BuildingBlock: XOMCOT_clean_sbu_1, # of connection points: 5
#     Node 55, Type 0, BuildingBlock: XOMCOT_clean_sbu_1, # of connection points: 5
#     Node 56, Type 0, BuildingBlock: XOMCOT_clean_sbu_1, # of connection points: 5
#     Node 57, Type 0, BuildingBlock: XOMCOT_clean_sbu_1, # of connection points: 5
#     Node 58, Type 0, BuildingBlock: XOMCOT_clean_sbu_1, # of connection points: 5
#     Node 59, Type 0, BuildingBlock: XOMCOT_clean_sbu_1, # of connection points: 5
#     Node 60, Type 0, BuildingBlock: XOMCOT_clean_sbu_1, # of connection points: 5
#     Node 61, Type 0, BuildingBlock: XOMCOT_clean_sbu_1, # of connection points: 5
#     Node 62, Type 0, BuildingBlock: XOMCOT_clean_sbu_1, # of connection points: 5
#     Node 63, Type 0, BuildingBlock: XOMCOT_clean_sbu_1, # of connection points: 5
#     Node 64, Type 0, BuildingBlock: XOMCOT_clean_sbu_1, # of connection points: 5
#     Node 65, Type 0, BuildingBlock: XOMCOT_clean_sbu_1, # of connection points: 5
#     Node 66, Type 0, BuildingBlock: XOMCOT_clean_sbu_1, # of connection points: 5
#     Node 67, Type 0, BuildingBlock: XOMCOT_clean_sbu_1, # of connection points: 5
#     Node 68, Type 0, BuildingBlock: XOMCOT_clean_sbu_1, # of connection points: 5
#     Node 69, Type 0, BuildingBlock: XOMCOT_clean_sbu_1, # of connection points: 5
#     Node 70, Type 0, BuildingBlock: XOMCOT_clean_sbu_1, # of connection points: 5
#     Node 71, Type 0, BuildingBlock: XOMCOT_clean_sbu_1, # of connection points: 5
#     Node 72, Type 0, BuildingBlock: XOMCOT_clean_sbu_1, # of connection points: 5
#     Node 73, Type 0, BuildingBlock: XOMCOT_clean_sbu_1, # of connection points: 5
#     Node 74, Type 0, BuildingBlock: XOMCOT_clean_sbu_1, # of connection points: 5
#     Node 75, Type 0, BuildingBlock: XOMCOT_clean_sbu_1, # of connection points: 5
#     Node 76, Type 0, BuildingBlock: XOMCOT_clean_sbu_1, # of connection points: 5
#     Node 77, Type 0, BuildingBlock: XOMCOT_clean_sbu_1, # of connection points: 5
#     Node 78, Type 0, BuildingBlock: XOMCOT_clean_sbu_1, # of connection points: 5
#     Node 79, Type 0, BuildingBlock: XOMCOT_clean_sbu_1, # of connection points: 5
#     Node 80, Type 0, BuildingBlock: XOMCOT_clean_sbu_1, # of connection points: 5
#     Node 81, Type 0, BuildingBlock: XOMCOT_clean_sbu_1, # of connection points: 5
#     Node 82, Type 0, BuildingBlock: XOMCOT_clean_sbu_1, # of connection points: 5
#     Node 83, Type 0, BuildingBlock: XOMCOT_clean_sbu_1, # of connection points: 5
#     Node 84, Type 0, BuildingBlock: XOMCOT_clean_sbu_1, # of connection points: 5
#     Node 85, Type 0, BuildingBlock: XOMCOT_clean_sbu_1, # of connection points: 5
#     Node 86, Type 0, BuildingBlock: XOMCOT_clean_sbu_1, # of connection points: 5
#     Node 87, Type 0, BuildingBlock: XOMCOT_clean_sbu_1, # of connection points: 5
#     Node 88, Type 0, BuildingBlock: XOMCOT_clean_sbu_1, # of connection points: 5
#     Node 89, Type 0, BuildingBlock: XOMCOT_clean_sbu_1, # of connection points: 5
#     Node 90, Type 0, BuildingBlock: XOMCOT_clean_sbu_1, # of connection points: 5
#     Node 91, Type 0, BuildingBlock: XOMCOT_clean_sbu_1, # of connection points: 5
#     Node 92, Type 0, BuildingBlock: XOMCOT_clean_sbu_1, # of connection points: 5
#     Node 93, Type 0, BuildingBlock: XOMCOT_clean_sbu_1, # of connection points: 5
#     Node 94, Type 0, BuildingBlock: XOMCOT_clean_sbu_1, # of connection points: 5
#     Node 95, Type 0, BuildingBlock: XOMCOT_clean_sbu_1, # of connection points: 5
#     Edge 96, Type (0, 0), BuildingBlock: AJUNOK_clean_linker_0, # of connection points: 2
#     Edge 97, Type (0, 0), BuildingBlock: AJUNOK_clean_linker_0, # of connection points: 2
#     Edge 98, Type (0, 0), BuildingBlock: AJUNOK_clean_linker_0, # of connection points: 2
#     Edge 99, Type (0, 0), BuildingBlock: AJUNOK_clean_linker_0, # of connection points: 2
#     Edge 100, Type (0, 0), BuildingBlock: AJUNOK_clean_linker_0, # of connection points: 2
#     Edge 101, Type (0, 0), BuildingBlock: AJUNOK_clean_linker_0, # of connection points: 2
#     Edge 102, Type (0, 0), BuildingBlock: AJUNOK_clean_linker_0, # of connection points: 2
#     Edge 103, Type (0, 0), BuildingBlock: AJUNOK_clean_linker_0, # of connection points: 2
#     Edge 104, Type (0, 0), BuildingBlock: AJUNOK_clean_linker_0, # of connection points: 2
#     Edge 105, Type (0, 0), BuildingBlock: AJUNOK_clean_linker_0, # of connection points: 2
#     Edge 106, Type (0, 0), BuildingBlock: AJUNOK_clean_linker_0, # of connection points: 2
#     Edge 107, Type (0, 0), BuildingBlock: AJUNOK_clean_linker_0, # of connection points: 2
#     Edge 108, Type (0, 0), BuildingBlock: AJUNOK_clean_linker_0, # of connection points: 2
#     Edge 109, Type (0, 0), BuildingBlock: AJUNOK_clean_linker_0, # of connection points: 2
#     Edge 110, Type (0, 0), BuildingBlock: AJUNOK_clean_linker_0, # of connection points: 2
#     Edge 111, Type (0, 0), BuildingBlock: AJUNOK_clean_linker_0, # of connection points: 2
#     Edge 112, Type (0, 0), BuildingBlock: AJUNOK_clean_linker_0, # of connection points: 2
#     Edge 113, Type (0, 0), BuildingBlock: AJUNOK_clean_linker_0, # of connection points: 2
#     Edge 114, Type (0, 0), BuildingBlock: AJUNOK_clean_linker_0, # of connection points: 2
#     Edge 115, Type (0, 0), BuildingBlock: AJUNOK_clean_linker_0, # of connection points: 2
#     Edge 116, Type (0, 0), BuildingBlock: AJUNOK_clean_linker_0, # of connection points: 2
#     Edge 117, Type (0, 0), BuildingBlock: AJUNOK_clean_linker_0, # of connection points: 2
#     Edge 118, Type (0, 0), BuildingBlock: AJUNOK_clean_linker_0, # of connection points: 2
#     Edge 119, Type (0, 0), BuildingBlock: AJUNOK_clean_linker_0, # of connection points: 2
#     Edge 120, Type (0, 0), BuildingBlock: AJUNOK_clean_linker_0, # of connection points: 2
#     Edge 121, Type (0, 0), BuildingBlock: AJUNOK_clean_linker_0, # of connection points: 2
#     Edge 122, Type (0, 0), BuildingBlock: AJUNOK_clean_linker_0, # of connection points: 2
#     Edge 123, Type (0, 0), BuildingBlock: AJUNOK_clean_linker_0, # of connection points: 2
#     Edge 124, Type (0, 0), BuildingBlock: AJUNOK_clean_linker_0, # of connection points: 2
#     Edge 125, Type (0, 0), BuildingBlock: AJUNOK_clean_linker_0, # of connection points: 2
#     Edge 126, Type (0, 0), BuildingBlock: AJUNOK_clean_linker_0, # of connection points: 2
#     Edge 127, Type (0, 0), BuildingBlock: AJUNOK_clean_linker_0, # of connection points: 2
#     Edge 128, Type (0, 0), BuildingBlock: AJUNOK_clean_linker_0, # of connection points: 2
#     Edge 129, Type (0, 0), BuildingBlock: AJUNOK_clean_linker_0, # of connection points: 2
#     Edge 130, Type (0, 0), BuildingBlock: AJUNOK_clean_linker_0, # of connection points: 2
#     Edge 131, Type (0, 0), BuildingBlock: AJUNOK_clean_linker_0, # of connection points: 2
#     Edge 132, Type (0, 0), BuildingBlock: AJUNOK_clean_linker_0, # of connection points: 2
#     Edge 133, Type (0, 0), BuildingBlock: AJUNOK_clean_linker_0, # of connection points: 2
#     Edge 134, Type (0, 0), BuildingBlock: AJUNOK_clean_linker_0, # of connection points: 2
#     Edge 135, Type (0, 0), BuildingBlock: AJUNOK_clean_linker_0, # of connection points: 2
#     Edge 136, Type (0, 0), BuildingBlock: AJUNOK_clean_linker_0, # of connection points: 2
#     Edge 137, Type (0, 0), BuildingBlock: AJUNOK_clean_linker_0, # of connection points: 2
#     Edge 138, Type (0, 0), BuildingBlock: AJUNOK_clean_linker_0, # of connection points: 2
#     Edge 139, Type (0, 0), BuildingBlock: AJUNOK_clean_linker_0, # of connection points: 2
#     Edge 140, Type (0, 0), BuildingBlock: AJUNOK_clean_linker_0, # of connection points: 2
#     Edge 141, Type (0, 0), BuildingBlock: AJUNOK_clean_linker_0, # of connection points: 2
#     Edge 142, Type (0, 0), BuildingBlock: AJUNOK_clean_linker_0, # of connection points: 2
#     Edge 143, Type (0, 0), BuildingBlock: AJUNOK_clean_linker_0, # of connection points: 2
#     Edge 144, Type (0, 0), BuildingBlock: AJUNOK_clean_linker_0, # of connection points: 2
#     Edge 145, Type (0, 0), BuildingBlock: AJUNOK_clean_linker_0, # of connection points: 2
#     Edge 146, Type (0, 0), BuildingBlock: AJUNOK_clean_linker_0, # of connection points: 2
#     Edge 147, Type (0, 0), BuildingBlock: AJUNOK_clean_linker_0, # of connection points: 2
#     Edge 148, Type (0, 0), BuildingBlock: AJUNOK_clean_linker_0, # of connection points: 2
#     Edge 149, Type (0, 0), BuildingBlock: AJUNOK_clean_linker_0, # of connection points: 2
#     Edge 150, Type (0, 0), BuildingBlock: AJUNOK_clean_linker_0, # of connection points: 2
#     Edge 151, Type (0, 0), BuildingBlock: AJUNOK_clean_linker_0, # of connection points: 2
#     Edge 152, Type (0, 0), BuildingBlock: AJUNOK_clean_linker_0, # of connection points: 2
#     Edge 153, Type (0, 0), BuildingBlock: AJUNOK_clean_linker_0, # of connection points: 2
#     Edge 154, Type (0, 0), BuildingBlock: AJUNOK_clean_linker_0, # of connection points: 2
#     Edge 155, Type (0, 0), BuildingBlock: AJUNOK_clean_linker_0, # of connection points: 2
#     Edge 156, Type (0, 0), BuildingBlock: AJUNOK_clean_linker_0, # of connection points: 2
#     Edge 157, Type (0, 0), BuildingBlock: AJUNOK_clean_linker_0, # of connection points: 2
#     Edge 158, Type (0, 0), BuildingBlock: AJUNOK_clean_linker_0, # of connection points: 2
#     Edge 159, Type (0, 0), BuildingBlock: AJUNOK_clean_linker_0, # of connection points: 2
#     Edge 160, Type (0, 0), BuildingBlock: AJUNOK_clean_linker_0, # of connection points: 2
#     Edge 161, Type (0, 0), BuildingBlock: AJUNOK_clean_linker_0, # of connection points: 2
#     Edge 162, Type (0, 0), BuildingBlock: AJUNOK_clean_linker_0, # of connection points: 2
#     Edge 163, Type (0, 0), BuildingBlock: AJUNOK_clean_linker_0, # of connection points: 2
#     Edge 164, Type (0, 0), BuildingBlock: AJUNOK_clean_linker_0, # of connection points: 2
#     Edge 165, Type (0, 0), BuildingBlock: AJUNOK_clean_linker_0, # of connection points: 2
#     Edge 166, Type (0, 0), BuildingBlock: AJUNOK_clean_linker_0, # of connection points: 2
#     Edge 167, Type (0, 0), BuildingBlock: AJUNOK_clean_linker_0, # of connection points: 2
#     Edge 168, Type (0, 0), BuildingBlock: AJUNOK_clean_linker_0, # of connection points: 2
#     Edge 169, Type (0, 0), BuildingBlock: AJUNOK_clean_linker_0, # of connection points: 2
#     Edge 170, Type (0, 0), BuildingBlock: AJUNOK_clean_linker_0, # of connection points: 2
#     Edge 171, Type (0, 0), BuildingBlock: AJUNOK_clean_linker_0, # of connection points: 2
#     Edge 172, Type (0, 0), BuildingBlock: AJUNOK_clean_linker_0, # of connection points: 2
#     Edge 173, Type (0, 0), BuildingBlock: AJUNOK_clean_linker_0, # of connection points: 2
#     Edge 174, Type (0, 0), BuildingBlock: AJUNOK_clean_linker_0, # of connection points: 2
#     Edge 175, Type (0, 0), BuildingBlock: AJUNOK_clean_linker_0, # of connection points: 2
#     Edge 176, Type (0, 0), BuildingBlock: AJUNOK_clean_linker_0, # of connection points: 2
#     Edge 177, Type (0, 0), BuildingBlock: AJUNOK_clean_linker_0, # of connection points: 2
#     Edge 178, Type (0, 0), BuildingBlock: AJUNOK_clean_linker_0, # of connection points: 2
#     Edge 179, Type (0, 0), BuildingBlock: AJUNOK_clean_linker_0, # of connection points: 2
#     Edge 180, Type (0, 0), BuildingBlock: AJUNOK_clean_linker_0, # of connection points: 2
#     Edge 181, Type (0, 0), BuildingBlock: AJUNOK_clean_linker_0, # of connection points: 2
#     Edge 182, Type (0, 0), BuildingBlock: AJUNOK_clean_linker_0, # of connection points: 2
#     Edge 183, Type (0, 0), BuildingBlock: AJUNOK_clean_linker_0, # of connection points: 2
#     Edge 184, Type (0, 0), BuildingBlock: AJUNOK_clean_linker_0, # of connection points: 2
#     Edge 185, Type (0, 0), BuildingBlock: AJUNOK_clean_linker_0, # of connection points: 2
#     Edge 186, Type (0, 0), BuildingBlock: AJUNOK_clean_linker_0, # of connection points: 2
#     Edge 187, Type (0, 0), BuildingBlock: AJUNOK_clean_linker_0, # of connection points: 2
#     Edge 188, Type (0, 0), BuildingBlock: AJUNOK_clean_linker_0, # of connection points: 2
#     Edge 189, Type (0, 0), BuildingBlock: AJUNOK_clean_linker_0, # of connection points: 2
#     Edge 190, Type (0, 0), BuildingBlock: AJUNOK_clean_linker_0, # of connection points: 2
#     Edge 191, Type (0, 0), BuildingBlock: AJUNOK_clean_linker_0, # of connection points: 2
#     Edge 192, Type (0, 0), BuildingBlock: AJUNOK_clean_linker_0, # of connection points: 2
#     Edge 193, Type (0, 0), BuildingBlock: AJUNOK_clean_linker_0, # of connection points: 2
#     Edge 194, Type (0, 0), BuildingBlock: AJUNOK_clean_linker_0, # of connection points: 2
#     Edge 195, Type (0, 0), BuildingBlock: AJUNOK_clean_linker_0, # of connection points: 2
#     Edge 196, Type (0, 0), BuildingBlock: AJUNOK_clean_linker_0, # of connection points: 2
#     Edge 197, Type (0, 0), BuildingBlock: AJUNOK_clean_linker_0, # of connection points: 2
#     Edge 198, Type (0, 0), BuildingBlock: AJUNOK_clean_linker_0, # of connection points: 2
#     Edge 199, Type (0, 0), BuildingBlock: AJUNOK_clean_linker_0, # of connection points: 2
#     Edge 200, Type (0, 0), BuildingBlock: AJUNOK_clean_linker_0, # of connection points: 2
#     Edge 201, Type (0, 0), BuildingBlock: AJUNOK_clean_linker_0, # of connection points: 2
#     Edge 202, Type (0, 0), BuildingBlock: AJUNOK_clean_linker_0, # of connection points: 2
#     Edge 203, Type (0, 0), BuildingBlock: AJUNOK_clean_linker_0, # of connection points: 2
#     Edge 204, Type (0, 0), BuildingBlock: AJUNOK_clean_linker_0, # of connection points: 2
#     Edge 205, Type (0, 0), BuildingBlock: AJUNOK_clean_linker_0, # of connection points: 2
#     Edge 206, Type (0, 0), BuildingBlock: AJUNOK_clean_linker_0, # of connection points: 2
#     Edge 207, Type (0, 0), BuildingBlock: AJUNOK_clean_linker_0, # of connection points: 2
#     Edge 208, Type (0, 0), BuildingBlock: AJUNOK_clean_linker_0, # of connection points: 2
#     Edge 209, Type (0, 0), BuildingBlock: AJUNOK_clean_linker_0, # of connection points: 2
#     Edge 210, Type (0, 0), BuildingBlock: AJUNOK_clean_linker_0, # of connection points: 2
#     Edge 211, Type (0, 0), BuildingBlock: AJUNOK_clean_linker_0, # of connection points: 2
#     Edge 212, Type (0, 0), BuildingBlock: AJUNOK_clean_linker_0, # of connection points: 2
#     Edge 213, Type (0, 0), BuildingBlock: AJUNOK_clean_linker_0, # of connection points: 2
#     Edge 214, Type (0, 0), BuildingBlock: AJUNOK_clean_linker_0, # of connection points: 2
#     Edge 215, Type (0, 0), BuildingBlock: AJUNOK_clean_linker_0, # of connection points: 2
#     Edge 216, Type (0, 0), BuildingBlock: AJUNOK_clean_linker_0, # of connection points: 2
#     Edge 217, Type (0, 0), BuildingBlock: AJUNOK_clean_linker_0, # of connection points: 2
#     Edge 218, Type (0, 0), BuildingBlock: AJUNOK_clean_linker_0, # of connection points: 2
#     Edge 219, Type (0, 0), BuildingBlock: AJUNOK_clean_linker_0, # of connection points: 2
#     Edge 220, Type (0, 0), BuildingBlock: AJUNOK_clean_linker_0, # of connection points: 2
#     Edge 221, Type (0, 0), BuildingBlock: AJUNOK_clean_linker_0, # of connection points: 2
#     Edge 222, Type (0, 0), BuildingBlock: AJUNOK_clean_linker_0, # of connection points: 2
#     Edge 223, Type (0, 0), BuildingBlock: AJUNOK_clean_linker_0, # of connection points: 2
#     Edge 224, Type (0, 0), BuildingBlock: AJUNOK_clean_linker_0, # of connection points: 2
#     Edge 225, Type (0, 0), BuildingBlock: AJUNOK_clean_linker_0, # of connection points: 2
#     Edge 226, Type (0, 0), BuildingBlock: AJUNOK_clean_linker_0, # of connection points: 2
#     Edge 227, Type (0, 0), BuildingBlock: AJUNOK_clean_linker_0, # of connection points: 2
#     Edge 228, Type (0, 0), BuildingBlock: AJUNOK_clean_linker_0, # of connection points: 2
#     Edge 229, Type (0, 0), BuildingBlock: AJUNOK_clean_linker_0, # of connection points: 2
#     Edge 230, Type (0, 0), BuildingBlock: AJUNOK_clean_linker_0, # of connection points: 2
#     Edge 231, Type (0, 0), BuildingBlock: AJUNOK_clean_linker_0, # of connection points: 2
#     Edge 232, Type (0, 0), BuildingBlock: AJUNOK_clean_linker_0, # of connection points: 2
#     Edge 233, Type (0, 0), BuildingBlock: AJUNOK_clean_linker_0, # of connection points: 2
#     Edge 234, Type (0, 0), BuildingBlock: AJUNOK_clean_linker_0, # of connection points: 2
#     Edge 235, Type (0, 0), BuildingBlock: AJUNOK_clean_linker_0, # of connection points: 2
#     Edge 236, Type (0, 0), BuildingBlock: AJUNOK_clean_linker_0, # of connection points: 2
#     Edge 237, Type (0, 0), BuildingBlock: AJUNOK_clean_linker_0, # of connection points: 2
#     Edge 238, Type (0, 0), BuildingBlock: AJUNOK_clean_linker_0, # of connection points: 2
#     Edge 239, Type (0, 0), BuildingBlock: AJUNOK_clean_linker_0, # of connection points: 2
#     Edge 240, Type (0, 0), BuildingBlock: AJUNOK_clean_linker_0, # of connection points: 2
#     Edge 241, Type (0, 0), BuildingBlock: AJUNOK_clean_linker_0, # of connection points: 2
#     Edge 242, Type (0, 0), BuildingBlock: AJUNOK_clean_linker_0, # of connection points: 2
#     Edge 243, Type (0, 0), BuildingBlock: AJUNOK_clean_linker_0, # of connection points: 2
#     Edge 244, Type (0, 0), BuildingBlock: AJUNOK_clean_linker_0, # of connection points: 2
#     Edge 245, Type (0, 0), BuildingBlock: AJUNOK_clean_linker_0, # of connection points: 2
#     Edge 246, Type (0, 0), BuildingBlock: AJUNOK_clean_linker_0, # of connection points: 2
#     Edge 247, Type (0, 0), BuildingBlock: AJUNOK_clean_linker_0, # of connection points: 2
#     Edge 248, Type (0, 0), BuildingBlock: AJUNOK_clean_linker_0, # of connection points: 2
#     Edge 249, Type (0, 0), BuildingBlock: AJUNOK_clean_linker_0, # of connection points: 2
#     Edge 250, Type (0, 0), BuildingBlock: AJUNOK_clean_linker_0, # of connection points: 2
#     Edge 251, Type (0, 0), BuildingBlock: AJUNOK_clean_linker_0, # of connection points: 2
#     Edge 252, Type (0, 0), BuildingBlock: AJUNOK_clean_linker_0, # of connection points: 2
#     Edge 253, Type (0, 0), BuildingBlock: AJUNOK_clean_linker_0, # of connection points: 2
#     Edge 254, Type (0, 0), BuildingBlock: AJUNOK_clean_linker_0, # of connection points: 2
#     Edge 255, Type (0, 0), BuildingBlock: AJUNOK_clean_linker_0, # of connection points: 2
#     Edge 256, Type (0, 0), BuildingBlock: AJUNOK_clean_linker_0, # of connection points: 2
#     Edge 257, Type (0, 0), BuildingBlock: AJUNOK_clean_linker_0, # of connection points: 2
#     Edge 258, Type (0, 0), BuildingBlock: AJUNOK_clean_linker_0, # of connection points: 2
#     Edge 259, Type (0, 0), BuildingBlock: AJUNOK_clean_linker_0, # of connection points: 2
#     Edge 260, Type (0, 0), BuildingBlock: AJUNOK_clean_linker_0, # of connection points: 2
#     Edge 261, Type (0, 0), BuildingBlock: AJUNOK_clean_linker_0, # of connection points: 2
#     Edge 262, Type (0, 0), BuildingBlock: AJUNOK_clean_linker_0, # of connection points: 2
#     Edge 263, Type (0, 0), BuildingBlock: AJUNOK_clean_linker_0, # of connection points: 2
#     Edge 264, Type (0, 0), BuildingBlock: AJUNOK_clean_linker_0, # of connection points: 2
#     Edge 265, Type (0, 0), BuildingBlock: AJUNOK_clean_linker_0, # of connection points: 2
#     Edge 266, Type (0, 0), BuildingBlock: AJUNOK_clean_linker_0, # of connection points: 2
#     Edge 267, Type (0, 0), BuildingBlock: AJUNOK_clean_linker_0, # of connection points: 2
#     Edge 268, Type (0, 0), BuildingBlock: AJUNOK_clean_linker_0, # of connection points: 2
#     Edge 269, Type (0, 0), BuildingBlock: AJUNOK_clean_linker_0, # of connection points: 2
#     Edge 270, Type (0, 0), BuildingBlock: AJUNOK_clean_linker_0, # of connection points: 2
#     Edge 271, Type (0, 0), BuildingBlock: AJUNOK_clean_linker_0, # of connection points: 2
#     Edge 272, Type (0, 0), BuildingBlock: AJUNOK_clean_linker_0, # of connection points: 2
#     Edge 273, Type (0, 0), BuildingBlock: AJUNOK_clean_linker_0, # of connection points: 2
#     Edge 274, Type (0, 0), BuildingBlock: AJUNOK_clean_linker_0, # of connection points: 2
#     Edge 275, Type (0, 0), BuildingBlock: AJUNOK_clean_linker_0, # of connection points: 2
#     Edge 276, Type (0, 0), BuildingBlock: AJUNOK_clean_linker_0, # of connection points: 2
#     Edge 277, Type (0, 0), BuildingBlock: AJUNOK_clean_linker_0, # of connection points: 2
#     Edge 278, Type (0, 0), BuildingBlock: AJUNOK_clean_linker_0, # of connection points: 2
#     Edge 279, Type (0, 0), BuildingBlock: AJUNOK_clean_linker_0, # of connection points: 2
#     Edge 280, Type (0, 0), BuildingBlock: AJUNOK_clean_linker_0, # of connection points: 2
#     Edge 281, Type (0, 0), BuildingBlock: AJUNOK_clean_linker_0, # of connection points: 2
#     Edge 282, Type (0, 0), BuildingBlock: AJUNOK_clean_linker_0, # of connection points: 2
#     Edge 283, Type (0, 0), BuildingBlock: AJUNOK_clean_linker_0, # of connection points: 2
#     Edge 284, Type (0, 0), BuildingBlock: AJUNOK_clean_linker_0, # of connection points: 2
#     Edge 285, Type (0, 0), BuildingBlock: AJUNOK_clean_linker_0, # of connection points: 2
#     Edge 286, Type (0, 0), BuildingBlock: AJUNOK_clean_linker_0, # of connection points: 2
#     Edge 287, Type (0, 0), BuildingBlock: AJUNOK_clean_linker_0, # of connection points: 2
#     Edge 288, Type (0, 0), BuildingBlock: AJUNOK_clean_linker_0, # of connection points: 2
#     Edge 289, Type (0, 0), BuildingBlock: AJUNOK_clean_linker_0, # of connection points: 2
#     Edge 290, Type (0, 0), BuildingBlock: AJUNOK_clean_linker_0, # of connection points: 2
#     Edge 291, Type (0, 0), BuildingBlock: AJUNOK_clean_linker_0, # of connection points: 2
#     Edge 292, Type (0, 0), BuildingBlock: AJUNOK_clean_linker_0, # of connection points: 2
#     Edge 293, Type (0, 0), BuildingBlock: AJUNOK_clean_linker_0, # of connection points: 2
#     Edge 294, Type (0, 0), BuildingBlock: AJUNOK_clean_linker_0, # of connection points: 2
#     Edge 295, Type (0, 0), BuildingBlock: AJUNOK_clean_linker_0, # of connection points: 2
#     Edge 296, Type (0, 0), BuildingBlock: AJUNOK_clean_linker_0, # of connection points: 2
#     Edge 297, Type (0, 0), BuildingBlock: AJUNOK_clean_linker_0, # of connection points: 2
#     Edge 298, Type (0, 0), BuildingBlock: AJUNOK_clean_linker_0, # of connection points: 2
#     Edge 299, Type (0, 0), BuildingBlock: AJUNOK_clean_linker_0, # of connection points: 2
#     Edge 300, Type (0, 0), BuildingBlock: AJUNOK_clean_linker_0, # of connection points: 2
#     Edge 301, Type (0, 0), BuildingBlock: AJUNOK_clean_linker_0, # of connection points: 2
#     Edge 302, Type (0, 0), BuildingBlock: AJUNOK_clean_linker_0, # of connection points: 2
#     Edge 303, Type (0, 0), BuildingBlock: AJUNOK_clean_linker_0, # of connection points: 2
#     Edge 304, Type (0, 0), BuildingBlock: AJUNOK_clean_linker_0, # of connection points: 2
#     Edge 305, Type (0, 0), BuildingBlock: AJUNOK_clean_linker_0, # of connection points: 2
#     Edge 306, Type (0, 0), BuildingBlock: AJUNOK_clean_linker_0, # of connection points: 2
#     Edge 307, Type (0, 0), BuildingBlock: AJUNOK_clean_linker_0, # of connection points: 2
#     Edge 308, Type (0, 0), BuildingBlock: AJUNOK_clean_linker_0, # of connection points: 2
#     Edge 309, Type (0, 0), BuildingBlock: AJUNOK_clean_linker_0, # of connection points: 2
#     Edge 310, Type (0, 0), BuildingBlock: AJUNOK_clean_linker_0, # of connection points: 2
#     Edge 311, Type (0, 0), BuildingBlock: AJUNOK_clean_linker_0, # of connection points: 2
#     Edge 312, Type (0, 0), BuildingBlock: AJUNOK_clean_linker_0, # of connection points: 2
#     Edge 313, Type (0, 0), BuildingBlock: AJUNOK_clean_linker_0, # of connection points: 2
#     Edge 314, Type (0, 0), BuildingBlock: AJUNOK_clean_linker_0, # of connection points: 2
#     Edge 315, Type (0, 0), BuildingBlock: AJUNOK_clean_linker_0, # of connection points: 2
#     Edge 316, Type (0, 0), BuildingBlock: AJUNOK_clean_linker_0, # of connection points: 2
#     Edge 317, Type (0, 0), BuildingBlock: AJUNOK_clean_linker_0, # of connection points: 2
#     Edge 318, Type (0, 0), BuildingBlock: AJUNOK_clean_linker_0, # of connection points: 2
#     Edge 319, Type (0, 0), BuildingBlock: AJUNOK_clean_linker_0, # of connection points: 2
#     Edge 320, Type (0, 0), BuildingBlock: AJUNOK_clean_linker_0, # of connection points: 2
#     Edge 321, Type (0, 0), BuildingBlock: AJUNOK_clean_linker_0, # of connection points: 2
#     Edge 322, Type (0, 0), BuildingBlock: AJUNOK_clean_linker_0, # of connection points: 2
#     Edge 323, Type (0, 0), BuildingBlock: AJUNOK_clean_linker_0, # of connection points: 2
#     Edge 324, Type (0, 0), BuildingBlock: AJUNOK_clean_linker_0, # of connection points: 2
#     Edge 325, Type (0, 0), BuildingBlock: AJUNOK_clean_linker_0, # of connection points: 2
#     Edge 326, Type (0, 0), BuildingBlock: AJUNOK_clean_linker_0, # of connection points: 2
#     Edge 327, Type (0, 0), BuildingBlock: AJUNOK_clean_linker_0, # of connection points: 2
#     Edge 328, Type (0, 0), BuildingBlock: AJUNOK_clean_linker_0, # of connection points: 2
#     Edge 329, Type (0, 0), BuildingBlock: AJUNOK_clean_linker_0, # of connection points: 2
#     Edge 330, Type (0, 0), BuildingBlock: AJUNOK_clean_linker_0, # of connection points: 2
#     Edge 331, Type (0, 0), BuildingBlock: AJUNOK_clean_linker_0, # of connection points: 2
#     Edge 332, Type (0, 0), BuildingBlock: AJUNOK_clean_linker_0, # of connection points: 2
#     Edge 333, Type (0, 0), BuildingBlock: AJUNOK_clean_linker_0, # of connection points: 2
#     Edge 334, Type (0, 0), BuildingBlock: AJUNOK_clean_linker_0, # of connection points: 2
#     Edge 335, Type (0, 0), BuildingBlock: AJUNOK_clean_linker_0, # of connection points: 2
# Relax obj value: 0.888
# Max RMSD: 0.215
# Mean RMSD: 0.215
data_MOF--net-crs-a--node1-XOMCOT_clean_sbu_1--edge1-AJUNOK_clean_linker_0
_symmetry_space_group_name_H-M    P1
_symmetry_Int_Tables_number       1
_symmetry_cell_setting            triclinic
loop_
_symmetry_equiv_pos_as_xyz
'x, y, z'
_cell_length_a     78.979943
_cell_length_b     78.966427
_cell_length_c     78.95742
_cell_angle_alpha  90.055937
_cell_angle_beta   89.988052
_cell_angle_gamma 89.967919
loop_
_atom_site_label
_atom_site_type_symbol
_atom_site_fract_x
_atom_site_fract_y
_atom_site_fract_z
_atom_type_partial_charge
C0 C 0.03678 0.09114 0.46734 0.0
C1 C 0.02775 0.09717 0.48108 0.0
N2 N 0.02962 0.08608 0.49389 0.0
N3 N 0.04426 0.0764 0.47163 0.0
C4 C 0.03986 0.07383 0.48788 0.0
H5 H 0.03722 0.09669 0.45483 0.0
Co6 Co 0.05599 0.06118 0.45805 0.0
C7 C 0.082 0.05212 0.48656 0.0
O8 O 0.09572 0.06052 0.48243 0.0
N9 N 0.0683 0.04587 0.44459 0.0
C10 C 0.09004 0.03361 0.4315 0.0
C11 C 0.08537 0.04457 0.4441 0.0
C12 C 0.06292 0.03546 0.43219 0.0
N13 N 0.07589 0.02794 0.42392 0.0
O14 O 0.03914 0.04449 0.46254 0.0
H15 H 0.09402 0.05162 0.45197 0.0
H16 H 0.04973 0.03305 0.42959 0.0
O17 O 0.06869 0.05307 0.47744 0.0
C18 C 0.02786 0.04746 0.45145 0.0
O19 O 0.03049 0.05987 0.44067 0.0
N20 N 0.07085 0.07776 0.45214 0.0
C21 C 0.09582 0.09694 0.4379 0.0
C22 C 0.09395 0.09651 0.45557 0.0
C23 C 0.08094 0.08698 0.46254 0.0
C24 C 0.07101 0.08015 0.43501 0.0
C25 C 0.08379 0.08946 0.42748 0.0
H26 H 0.0793 0.08647 0.47611 0.0
H27 H 0.06192 0.07363 0.4271 0.0
H28 H 0.0434 0.06272 0.49497 0.0
H29 H 0.01957 0.10817 0.48128 0.0
H30 H 0.10286 0.02993 0.42832 0.0
H31 H 0.10273 0.10309 0.4638 0.0
H32 H 0.08467 0.09022 0.41381 0.0
C33 C 0.90192 0.28654 0.71709 0.0
C34 C 0.89412 0.27737 0.72973 0.0
N35 N 0.90222 0.28063 0.74437 0.0
N36 N 0.91503 0.29519 0.7238 0.0
C37 C 0.91487 0.2913 0.7404 0.0
H38 H 0.89878 0.28629 0.70376 0.0
Co39 Co 0.93099 0.30786 0.71226 0.0
C40 C 0.93876 0.33396 0.73996 0.0
O41 O 0.93402 0.34749 0.73152 0.0
N42 N 0.94729 0.32083 0.70038 0.0
C43 C 0.96943 0.33671 0.6934 0.0
C44 C 0.95992 0.33061 0.70649 0.0
C45 C 0.94985 0.32095 0.68345 0.0
N46 N 0.96325 0.33048 0.67879 0.0
O47 O 0.94754 0.29096 0.71702 0.0
H48 H 0.96343 0.33191 0.71958 0.0
H49 H 0.94309 0.31288 0.67474 0.0
O50 O 0.93713 0.31935 0.73317 0.0
C51 C 0.94622 0.28107 0.70438 0.0
O52 O 0.9356 0.28536 0.69232 0.0
N53 N 0.91436 0.32268 0.70614 0.0
C54 C 0.88947 0.34204 0.69162 0.0
C55 C 0.89198 0.34255 0.7092 0.0
C56 C 0.90443 0.33236 0.71636 0.0
C57 C 0.91052 0.32067 0.68942 0.0
C58 C 0.89846 0.33071 0.68168 0.0
H59 H 0.90593 0.33209 0.72995 0.0
H60 H 0.91668 0.311 0.68205 0.0
H61 H 0.92462 0.2951 0.74923 0.0
H62 H 0.88395 0.26833 0.72817 0.0
H63 H 0.98141 0.34322 0.69485 0.0
H64 H 0.8846 0.35093 0.7172 0.0
H65 H 0.89619 0.32966 0.66818 0.0
C66 C 0.70341 0.14689 0.96634 0.0
C67 C 0.71353 0.14113 0.97934 0.0
N68 N 0.71366 0.15309 0.99143 0.0
N69 N 0.6973 0.16235 0.97038 0.0
C70 C 0.70411 0.16591 0.98561 0.0
H71 H 0.70088 0.14032 0.95459 0.0
Co72 Co 0.684 0.17605 0.95671 0.0
C73 C 0.66814 0.18576 0.99147 0.0
O74 O 0.67019 0.17152 -0.00017 0.0
N75 N 0.67021 0.18945 0.94282 0.0
C76 C 0.64818 0.20491 0.9347 0.0
C77 C 0.65343 0.19204 0.94501 0.0
C78 C 0.67447 0.20003 0.93022 0.0
N79 N 0.66166 0.21053 0.92602 0.0
O80 O 0.70105 0.19289 0.95784 0.0
H81 H 0.64585 0.1865 0.95494 0.0
H82 H 0.68741 0.20227 0.92637 0.0
O83 O 0.67306 0.18691 0.97612 0.0
C84 C 0.71132 0.18919 0.94603 0.0
O85 O 0.70709 0.177 0.93551 0.0
N86 N 0.66878 0.15923 0.95409 0.0
C87 C 0.64244 0.14372 0.93795 0.0
C88 C 0.64128 0.14755 0.95532 0.0
C89 C 0.65477 0.15546 0.96328 0.0
C90 C 0.67093 0.15347 0.93797 0.0
C91 C 0.65766 0.146 0.9294 0.0
H92 H 0.65322 0.15988 0.97606 0.0
H93 H 0.68232 0.15658 0.93107 0.0
H94 H 0.70251 0.17784 0.99218 0.0
H95 H 0.72024 0.12919 0.9799 0.0
H96 H 0.63625 0.2116 0.93588 0.0
H97 H 0.6298 0.14513 0.96243 0.0
H98 H 0.65901 0.14284 0.91612 0.0
C99 C 0.8372 0.95652 0.21685 0.0
C100 C 0.8429 0.96579 0.23034 0.0
N101 N 0.83044 0.96667 0.24197 0.0
N102 N 0.82129 0.95114 0.21998 0.0
C103 C 0.81746 0.95771 0.23528 0.0
H104 H 0.84458 0.95347 0.20575 0.0
Co105 Co 0.80883 0.93543 0.20755 0.0
C106 C 0.79713 0.90961 0.23258 0.0
O107 O 0.80048 0.897 0.22225 0.0
N108 N 0.79644 0.91881 0.195 0.0
C109 C 0.78916 0.89596 0.1798 0.0
C110 C 0.80234 0.90529 0.18601 0.0
C111 C 0.77947 0.91694 0.19422 0.0
N112 N 0.77486 0.90316 0.18523 0.0
O113 O 0.78968 0.95026 0.20905 0.0
H114 H 0.81536 0.90178 0.1841 0.0
H115 H 0.77053 0.92578 0.1997 0.0
O116 O 0.80132 0.92471 0.22859 0.0
C117 C 0.78727 0.95946 0.19606 0.0
O118 O 0.79319 0.95396 0.1815 0.0
N119 N 0.82801 0.92299 0.20504 0.0
C120 C 0.85595 0.90548 0.19439 0.0
C121 C 0.85025 0.90379 0.21114 0.0
C122 C 0.8361 0.91289 0.21636 0.0
C123 C 0.83471 0.92629 0.18944 0.0
C124 C 0.84857 0.91727 0.18363 0.0
H125 H 0.83147 0.91152 0.22914 0.0
H126 H 0.82836 0.93511 0.1811 0.0
H127 H 0.80547 0.95555 0.24154 0.0
H128 H 0.85563 0.97061 0.23167 0.0
H129 H 0.78995 0.88507 0.17148 0.0
H130 H 0.85601 0.89473 0.21969 0.0
H131 H 0.8528 0.91873 0.17066 0.0
C132 C 0.03614 0.15456 0.77439 0.0
C133 C 0.02779 0.1473 0.76095 0.0
N134 N 0.03013 0.15716 0.74721 0.0
N135 N 0.04371 0.16889 0.76909 0.0
C136 C 0.0397 0.17022 0.75259 0.0
H137 H 0.03685 0.14962 0.78714 0.0
Co138 Co 0.05794 0.18296 0.78114 0.0
C139 C 0.08046 0.18864 0.74789 0.0
O140 O 0.08754 0.17547 0.74058 0.0
N141 N 0.07294 0.19662 0.79311 0.0
C142 C 0.097 0.20616 0.8043 0.0
C143 C 0.09004 0.19567 0.7923 0.0
C144 C 0.06984 0.20743 0.80588 0.0
N145 N 0.08422 0.21328 0.81298 0.0
O146 O 0.04366 0.20166 0.77521 0.0
H147 H 0.09702 0.18779 0.78352 0.0
H148 H 0.05729 0.21137 0.80967 0.0
O149 O 0.0715 0.1864 0.76111 0.0
C150 C 0.03198 0.20145 0.78635 0.0
O151 O 0.03389 0.19139 0.79947 0.0
N152 N 0.06988 0.16457 0.78814 0.0
C153 C 0.08221 0.13548 0.8027 0.0
C154 C 0.0839 0.13814 0.78519 0.0
C155 C 0.07754 0.1529 0.77806 0.0
C156 C 0.06783 0.16197 0.80508 0.0
C157 C 0.07421 0.14755 0.81275 0.0
H158 H 0.07826 0.15473 0.76454 0.0
H159 H 0.06104 0.17116 0.81264 0.0
H160 H 0.04325 0.18095 0.74487 0.0
H161 H 0.02045 0.13574 0.76129 0.0
H162 H 0.11033 0.20871 0.80625 0.0
H163 H 0.09043 0.12908 0.7772 0.0
H164 H 0.07306 0.1459 0.82632 0.0
C165 C 0.83768 0.28829 0.0225 0.0
C166 C 0.84363 0.27835 0.00943 0.0
N167 N 0.83255 0.27935 -0.00349 0.0
N168 N 0.823 0.29558 0.01773 0.0
C169 C 0.82029 0.29002 0.00182 0.0
H170 H 0.84332 0.2896 0.03492 0.0
Co171 Co 0.80855 0.30871 0.03089 0.0
C172 C 0.80167 0.33563 0.00359 0.0
O173 O 0.81063 0.34815 0.00982 0.0
N174 N 0.79396 0.32237 0.04413 0.0
C175 C 0.78294 0.34458 0.05775 0.0
C176 C 0.79433 0.33946 0.04567 0.0
C177 C 0.78228 0.31747 0.05554 0.0
N178 N 0.77545 0.33068 0.06397 0.0
O179 O 0.79107 0.29271 0.02685 0.0
H180 H 0.80299 0.34777 0.03922 0.0
H181 H 0.77865 0.30447 0.05766 0.0
O182 O 0.80117 0.32125 0.01095 0.0
C183 C 0.79336 0.28138 0.03806 0.0
O184 O 0.80502 0.28382 0.04968 0.0
N185 N 0.82619 0.32249 0.03638 0.0
C186 C 0.8521 0.3411 0.04996 0.0
C187 C 0.85046 0.3397 0.03231 0.0
C188 C 0.83739 0.32998 0.02568 0.0
C189 C 0.82883 0.32234 0.05346 0.0
C190 C 0.8415 0.33204 0.06063 0.0
H191 H 0.83617 0.32848 0.01213 0.0
H192 H 0.82065 0.31499 0.06162 0.0
H193 H 0.80911 0.29315 0.99455 0.0
H194 H 0.85461 0.27014 0.00982 0.0
H195 H 0.78059 0.35746 0.06182 0.0
H196 H 0.85884 0.34648 0.02384 0.0
H197 H 0.84279 0.33274 0.07428 0.0
C198 C 0.70099 0.08628 0.27569 0.0
C199 C 0.70956 0.09388 0.26257 0.0
N200 N 0.70868 0.08367 0.24888 0.0
N201 N 0.69461 0.07141 0.27027 0.0
C202 C 0.69967 0.07008 0.25402 0.0
H203 H 0.69936 0.09133 0.28833 0.0
Co204 Co 0.68117 0.05646 0.28244 0.0
C205 C 0.65577 0.05135 0.25244 0.0
O206 O 0.6429 0.0612 0.25624 0.0
N207 N 0.66719 0.04166 0.29454 0.0
C208 C 0.64402 0.03037 0.30603 0.0
C209 C 0.65009 0.04085 0.29359 0.0
C210 C 0.67116 0.03173 0.3078 0.0
N211 N 0.6573 0.02491 0.31511 0.0
O212 O 0.69686 0.03883 0.27702 0.0
H213 H 0.64234 0.04793 0.2849 0.0
H214 H 0.68397 0.02932 0.31192 0.0
O215 O 0.66863 0.05053 0.26219 0.0
C216 C 0.70915 0.03891 0.28743 0.0
O217 O 0.70786 0.04848 0.30099 0.0
N218 N 0.66745 0.07406 0.2888 0.0
C219 C 0.65205 0.10221 0.30248 0.0
C220 C 0.65285 0.10007 0.28484 0.0
C221 C 0.66083 0.08588 0.27819 0.0
C222 C 0.66736 0.07636 0.30594 0.0
C223 C 0.65934 0.09023 0.31312 0.0
H224 H 0.66238 0.08474 0.26465 0.0
H225 H 0.67381 0.06746 0.3141 0.0
H226 H 0.69735 0.05896 0.2464 0.0
H227 H 0.716 0.10595 0.26313 0.0
H228 H 0.63093 0.02692 0.30819 0.0
H229 H 0.64717 0.10919 0.2763 0.0
H230 H 0.65885 0.09161 0.32677 0.0
C231 C 0.89536 0.95347 0.52707 0.0
C232 C 0.88755 0.96125 0.51342 0.0
N233 N 0.8985 0.96124 0.50031 0.0
N234 N 0.91115 0.94884 0.52248 0.0
C235 C 0.91266 0.95403 0.50637 0.0
H236 H 0.88972 0.95086 0.53928 0.0
Co237 Co 0.92756 0.93554 0.53277 0.0
C238 C 0.93304 0.91583 0.49767 0.0
O239 O 0.92067 0.90596 0.49257 0.0
N240 N 0.94392 0.92122 0.54232 0.0
C241 C 0.95641 0.89687 0.54923 0.0
C242 C 0.94457 0.90437 0.53908 0.0
C243 C 0.95562 0.92362 0.55448 0.0
N244 N 0.9634 0.909 0.55885 0.0
O245 O 0.94413 0.9521 0.52691 0.0
H246 H 0.93651 0.89775 0.53022 0.0
H247 H 0.95865 0.93583 0.55988 0.0
O248 O 0.93161 0.92395 0.51155 0.0
C249 C 0.94605 0.96307 0.53852 0.0
O250 O 0.93851 0.96055 0.55314 0.0
N251 N 0.91134 0.9205 0.53966 0.0
C252 C 0.89737 0.89126 0.55168 0.0
C253 C 0.89497 0.89592 0.5347 0.0
C254 C 0.90201 0.91089 0.5289 0.0
C255 C 0.91119 0.91767 0.55671 0.0
C256 C 0.90446 0.90271 0.56307 0.0
H257 H 0.90094 0.91422 0.51572 0.0
H258 H 0.91809 0.92605 0.56508 0.0
H259 H 0.92418 0.9527 0.49925 0.0
H260 H 0.87477 0.96619 0.5131 0.0
H261 H 0.95964 0.88355 0.54946 0.0
H262 H 0.88854 0.88761 0.52587 0.0
H263 H 0.90581 0.89964 0.57637 0.0
C264 C 0.46276 0.03998 0.0879 0.0
C265 C 0.47529 0.03052 0.09551 0.0
N266 N 0.48864 0.02962 0.08486 0.0
N267 N 0.46831 0.04534 0.07269 0.0
C268 C 0.48399 0.03874 0.07117 0.0
H269 H 0.45053 0.04304 0.09326 0.0
Co270 Co 0.45732 0.05904 0.05694 0.0
C271 C 0.48802 0.08342 0.05344 0.0
O272 O 0.48364 0.09652 0.06271 0.0
N273 N 0.44655 0.07321 0.04117 0.0
C274 C 0.43599 0.09639 0.02895 0.0
C275 C 0.4476 0.09031 0.04038 0.0
C276 C 0.43419 0.06925 0.03015 0.0
N277 N 0.4275 0.08307 0.02265 0.0
O278 O 0.46285 0.04294 0.03986 0.0
H279 H 0.45559 0.09806 0.04826 0.0
H280 H 0.43007 0.05645 0.02762 0.0
O281 O 0.47822 0.07067 0.05205 0.0
C282 C 0.45129 0.03182 0.04088 0.0
O283 O 0.43831 0.03491 0.05086 0.0
N284 N 0.45043 0.07328 0.0739 0.0
C285 C 0.4354 0.09209 0.09904 0.0
C286 C 0.45303 0.08993 0.09882 0.0
C287 C 0.46037 0.08022 0.08612 0.0
C288 C 0.43318 0.07429 0.07476 0.0
C289 C 0.42535 0.08407 0.08704 0.0
H290 H 0.47384 0.07788 0.08629 0.0
H291 H 0.42545 0.06754 0.0657 0.0
H292 H 0.49172 0.04036 0.06001 0.0
H293 H 0.47462 0.02511 0.10806 0.0
H294 H 0.43375 0.10953 0.02581 0.0
H295 H 0.46103 0.09593 0.10823 0.0
H296 H 0.41169 0.08541 0.08714 0.0
C297 C 0.94774 0.71818 0.34083 0.0
C298 C 0.95558 0.73213 0.34771 0.0
N299 N 0.95723 0.74394 0.3355 0.0
N300 N 0.94439 0.72125 0.32436 0.0
C301 C 0.95047 0.7369 0.32147 0.0
H302 H 0.94447 0.70668 0.34749 0.0
Co303 Co 0.93202 0.70836 0.30917 0.0
C304 C 0.91329 0.74287 0.30218 0.0
O305 O 0.91309 0.75123 0.31657 0.0
N306 N 0.91846 0.69605 0.29437 0.0
C307 C 0.89449 0.6864 0.28313 0.0
C308 C 0.90152 0.69848 0.29334 0.0
C309 C 0.9214 0.6823 0.28477 0.0
N310 N 0.90699 0.67617 0.27784 0.0
O311 O 0.94904 0.71254 0.29228 0.0
H312 H 0.89459 0.7084 0.29978 0.0
H313 H 0.93391 0.67724 0.28238 0.0
O314 O 0.92022 0.72833 0.30142 0.0
C315 C 0.96102 0.70182 0.29369 0.0
O316 O 0.95851 0.68858 0.30343 0.0
N317 N 0.91736 0.70272 0.32602 0.0
C318 C 0.90127 0.68867 0.35344 0.0
C319 C 0.899 0.70589 0.34957 0.0
C320 C 0.90724 0.71276 0.33564 0.0
C321 C 0.91977 0.68602 0.32976 0.0
C322 C 0.91161 0.67861 0.34337 0.0
H323 H 0.90593 0.72603 0.33295 0.0
H324 H 0.92837 0.67851 0.32219 0.0
H325 H 0.9504 0.74271 0.30909 0.0
H326 H 0.95982 0.73341 0.36068 0.0
H327 H 0.88135 0.68561 0.27927 0.0
H328 H 0.89082 0.71386 0.35719 0.0
H329 H 0.91345 0.66528 0.34608 0.0
C330 C 0.27836 0.21272 0.58085 0.0
C331 C 0.26535 0.22203 0.58784 0.0
N332 N 0.25061 0.21466 0.58345 0.0
N333 N 0.27177 0.19972 0.57195 0.0
C334 C 0.25489 0.20113 0.57401 0.0
H335 H 0.29171 0.21566 0.58156 0.0
Co336 Co 0.28372 0.18447 0.55867 0.0
C337 C 0.25339 0.16079 0.54975 0.0
O338 O 0.25709 0.14684 0.55798 0.0
N339 N 0.29573 0.16838 0.54548 0.0
C340 C 0.30533 0.14344 0.53599 0.0
C341 C 0.29492 0.1513 0.54743 0.0
C342 C 0.30703 0.17047 0.53289 0.0
N343 N 0.3131 0.15557 0.52714 0.0
O344 O 0.28186 0.19996 0.54019 0.0
H345 H 0.28751 0.14476 0.5568 0.0
H346 H 0.31034 0.18258 0.52745 0.0
O347 O 0.26302 0.17376 0.55068 0.0
C348 C 0.29463 0.20965 0.54157 0.0
O349 O 0.30667 0.20488 0.55202 0.0
N350 N 0.28686 0.17123 0.57707 0.0
C351 C 0.29826 0.14616 0.59773 0.0
C352 C 0.28078 0.14915 0.5963 0.0
C353 C 0.27524 0.16224 0.58596 0.0
C354 C 0.30369 0.17045 0.58086 0.0
C355 C 0.30981 0.15761 0.59105 0.0
H356 H 0.26186 0.16436 0.58412 0.0
H357 H 0.31252 0.17864 0.57434 0.0
H358 H 0.24574 0.19273 0.56833 0.0
H359 H 0.26658 0.23391 0.59458 0.0
H360 H 0.30681 0.12995 0.53404 0.0
H361 H 0.27164 0.14079 0.60218 0.0
H362 H 0.32334 0.15582 0.5925 0.0
C363 C 0.79451 0.52271 0.84024 0.0
C364 C 0.78499 0.50965 0.84691 0.0
N365 N 0.78245 0.49824 0.83454 0.0
N366 N 0.7979 0.51934 0.82378 0.0
C367 C 0.79032 0.50435 0.82075 0.0
H368 H 0.79843 0.53404 0.84687 0.0
Co369 Co 0.81036 0.53153 0.80783 0.0
C370 C 0.8345 0.50114 0.80151 0.0
O371 O 0.84749 0.50485 0.81118 0.0
N372 N 0.82365 0.54312 0.79181 0.0
C373 C 0.8468 0.55375 0.77961 0.0
C374 C 0.84071 0.54175 0.79053 0.0
C375 C 0.81972 0.55609 0.78149 0.0
N376 N 0.83359 0.56294 0.77422 0.0
O377 O 0.79288 0.52721 0.79168 0.0
H378 H 0.84848 0.53323 0.79778 0.0
H379 H 0.80695 0.56041 0.77917 0.0
O380 O 0.82167 0.51091 0.80075 0.0
C381 C 0.782 0.53893 0.7939 0.0
O382 O 0.78682 0.55247 0.8023 0.0
N383 N 0.82555 0.53773 0.82419 0.0
C384 C 0.84374 0.55324 0.84945 0.0
C385 C 0.84288 0.5355 0.84867 0.0
C386 C 0.83343 0.52789 0.83591 0.0
C387 C 0.82556 0.55499 0.82556 0.0
C388 C 0.83503 0.56308 0.83785 0.0
H389 H 0.83168 0.51433 0.83595 0.0
H390 H 0.81799 0.56258 0.81706 0.0
H391 H 0.79034 0.49809 0.80855 0.0
H392 H 0.77984 0.50888 0.8596 0.0
H393 H 0.85988 0.55566 0.77596 0.0
H394 H 0.84937 0.5277 0.8579 0.0
H395 H 0.83535 0.57679 0.83844 0.0
C396 C 0.46751 0.20042 0.14911 0.0
C397 C 0.48041 0.21002 0.14212 0.0
N398 N 0.49382 0.20915 0.15258 0.0
N399 N 0.47287 0.1939 0.16398 0.0
C400 C 0.48892 0.19946 0.16566 0.0
H401 H 0.45483 0.19901 0.14414 0.0
Co402 Co 0.46111 0.18215 0.1807 0.0
C403 C 0.48925 0.15554 0.18655 0.0
O404 O 0.4812 0.14201 0.18115 0.0
N405 N 0.44947 0.17016 0.19792 0.0
C406 C 0.44279 0.15332 0.21946 0.0
C407 C 0.45534 0.1582 0.20865 0.0
C408 C 0.43322 0.17242 0.20284 0.0
N409 N 0.42875 0.16227 0.21588 0.0
O410 O 0.46709 0.19946 0.19642 0.0
H411 H 0.46819 0.15405 0.20995 0.0
H412 H 0.42506 0.18205 0.19758 0.0
O413 O 0.48186 0.16996 0.18626 0.0
C414 C 0.45561 0.21064 0.19486 0.0
O415 O 0.44243 0.20708 0.18536 0.0
N416 N 0.45371 0.16681 0.16489 0.0
C417 C 0.43785 0.14442 0.14354 0.0
C418 C 0.45558 0.14536 0.14384 0.0
C419 C 0.46335 0.15714 0.15438 0.0
C420 C 0.43655 0.16745 0.16297 0.0
C421 C 0.42822 0.15601 0.1526 0.0
H422 H 0.47697 0.1584 0.15424 0.0
H423 H 0.42924 0.17687 0.16961 0.0
H424 H 0.49657 0.19739 0.17681 0.0
H425 H 0.47977 0.21757 0.13071 0.0
H426 H 0.44463 0.14529 0.2304 0.0
H427 H 0.46325 0.13697 0.13614 0.0
H428 H 0.41452 0.15603 0.15186 0.0
C429 C 0.78486 0.71286 0.40109 0.0
C430 C 0.7757 0.72577 0.39358 0.0
N431 N 0.77944 0.7403 0.4017 0.0
N432 N 0.79395 0.71934 0.41402 0.0
C433 C 0.79025 0.73597 0.41408 0.0
H434 H 0.78437 0.69955 0.39784 0.0
Co435 Co 0.80714 0.70862 0.43021 0.0
C436 C 0.83095 0.74007 0.43405 0.0
O437 O 0.84393 0.73631 0.42438 0.0
N438 N 0.82111 0.69837 0.44655 0.0
C439 C 0.8447 0.68933 0.45918 0.0
C440 C 0.83815 0.70022 0.44739 0.0
C441 C 0.81765 0.68626 0.45801 0.0
N442 N 0.83177 0.68053 0.46575 0.0
O443 O 0.79005 0.71366 0.44662 0.0
H444 H 0.84558 0.70831 0.43931 0.0
H445 H 0.80504 0.68172 0.46076 0.0
O446 O 0.81852 0.72983 0.43557 0.0
C447 C 0.78008 0.70109 0.445 0.0
O448 O 0.78529 0.68832 0.43564 0.0
N449 N 0.82201 0.70184 0.41388 0.0
C450 C 0.84809 0.68768 0.39613 0.0
C451 C 0.84405 0.70485 0.39382 0.0
C452 C 0.83043 0.71168 0.40262 0.0
C453 C 0.82396 0.68465 0.41387 0.0
C454 C 0.83737 0.67724 0.40535 0.0
H455 H 0.82714 0.72487 0.40107 0.0
H456 H 0.81595 0.67684 0.42176 0.0
H457 H 0.79434 0.74467 0.42381 0.0
H458 H 0.76652 0.72449 0.38348 0.0
H459 H 0.85792 0.68785 0.46246 0.0
H460 H 0.85171 0.71293 0.3858 0.0
H461 H 0.83984 0.66381 0.40666 0.0
C462 C 0.27058 0.03895 0.65001 0.0
C463 C 0.25665 0.03102 0.64325 0.0
N464 N 0.24394 0.0319 0.65463 0.0
N465 N 0.26661 0.04489 0.66552 0.0
C466 C 0.2504 0.04027 0.66806 0.0
H467 H 0.28287 0.04021 0.64409 0.0
Co468 Co 0.28076 0.05641 0.68025 0.0
C469 C 0.25291 0.08291 0.68946 0.0
O470 O 0.25602 0.09569 0.6793 0.0
N471 N 0.29481 0.06843 0.6949 0.0
C472 C 0.30911 0.08976 0.70643 0.0
C473 C 0.29586 0.08548 0.69607 0.0
C474 C 0.30744 0.06265 0.70473 0.0
N475 N 0.31647 0.07536 0.71177 0.0
O476 O 0.27615 0.03974 0.69702 0.0
H477 H 0.28785 0.09431 0.68938 0.0
H478 H 0.30963 0.04935 0.70705 0.0
O479 O 0.26205 0.06959 0.68892 0.0
C480 C 0.28568 0.02741 0.69301 0.0
O481 O 0.29733 0.02992 0.68138 0.0
N482 N 0.28645 0.07096 0.66321 0.0
C483 C 0.29916 0.0886 0.63609 0.0
C484 C 0.28163 0.08805 0.63897 0.0
C485 C 0.27545 0.07891 0.65262 0.0
C486 C 0.3034 0.07046 0.6598 0.0
C487 C 0.31014 0.07965 0.64651 0.0
H488 H 0.26195 0.07768 0.65437 0.0
H489 H 0.31176 0.06288 0.66755 0.0
H490 H 0.24379 0.0423 0.67989 0.0
H491 H 0.25604 0.02475 0.63107 0.0
H492 H 0.31285 0.10246 0.70998 0.0
H493 H 0.27287 0.09491 0.63093 0.0
H494 H 0.3237 0.07986 0.64444 0.0
C495 C 0.9514 0.52063 0.90188 0.0
C496 C 0.9596 0.507 0.8947 0.0
N497 N 0.95606 0.49307 0.90396 0.0
N498 N 0.94288 0.51532 0.91564 0.0
C499 C 0.94588 0.49857 0.91653 0.0
H500 H 0.9523 0.5337 0.89789 0.0
Co501 Co 0.93161 0.52846 0.93131 0.0
C502 C 0.90493 0.50032 0.93974 0.0
O503 O 0.89107 0.50527 0.93203 0.0
N504 N 0.91959 0.54166 0.94699 0.0
C505 C 0.89787 0.55588 0.95804 0.0
C506 C 0.9025 0.54268 0.94781 0.0
C507 C 0.92503 0.55431 0.95702 0.0
N508 N 0.91207 0.5632 0.96385 0.0
O509 O 0.94847 0.52269 0.94764 0.0
H510 H 0.89381 0.53519 0.94044 0.0
H511 H 0.93824 0.55707 0.95921 0.0
O512 O 0.91845 0.50913 0.93896 0.0
C513 C 0.96042 0.5333 0.94573 0.0
O514 O 0.95821 0.54591 0.93511 0.0
N515 N 0.91698 0.53549 0.91495 0.0
C516 C 0.89384 0.55208 0.89524 0.0
C517 C 0.89395 0.5343 0.8958 0.0
C518 C 0.90605 0.52611 0.90559 0.0
C519 C 0.91833 0.55259 0.91275 0.0
C520 C 0.90658 0.56129 0.90309 0.0
H521 H 0.9065 0.51245 0.90595 0.0
H522 H 0.928 0.55959 0.91945 0.0
H523 H 0.94143 0.49074 0.92679 0.0
H524 H 0.96851 0.50765 0.88432 0.0
H525 H 0.88505 0.56002 0.96051 0.0
H526 H 0.88464 0.52694 0.88892 0.0
H527 H 0.9071 0.57497 0.90221 0.0
C528 C 0.08721 0.46663 0.03921 0.0
C529 C 0.09356 0.47981 0.02968 0.0
N530 N 0.0812 0.49141 0.02788 0.0
N531 N 0.07099 0.47005 0.04342 0.0
C532 C 0.06767 0.48507 0.03609 0.0
H533 H 0.09407 0.45538 0.04296 0.0
Co534 Co 0.0563 0.45809 0.05737 0.0
C535 C 0.05141 0.49358 0.07388 0.0
O536 O 0.06582 0.50147 0.0713 0.0
N537 N 0.042 0.4465 0.07218 0.0
C538 C 0.03102 0.43788 0.09668 0.0
C539 C 0.04072 0.44996 0.08894 0.0
C540 C 0.03306 0.43216 0.07013 0.0
N541 N 0.02631 0.42661 0.08485 0.0
O542 O 0.03849 0.46143 0.0411 0.0
H543 H 0.04655 0.4606 0.09527 0.0
H544 H 0.03098 0.4262 0.05798 0.0
O545 O 0.04936 0.47853 0.0685 0.0
C546 C 0.03931 0.44909 0.03077 0.0
O547 O 0.05017 0.43692 0.03411 0.0
N548 N 0.07358 0.4532 0.07181 0.0
C549 C 0.0951 0.43772 0.09423 0.0
C550 C 0.09131 0.45499 0.09597 0.0
C551 C 0.08042 0.46262 0.08448 0.0
C552 C 0.07791 0.43664 0.06946 0.0
C553 C 0.08872 0.42853 0.08064 0.0
H554 H 0.07703 0.47567 0.08626 0.0
H555 H 0.07225 0.42952 0.05923 0.0
H556 H 0.05557 0.49145 0.03705 0.0
H557 H 0.10612 0.48064 0.02424 0.0
H558 H 0.02716 0.43774 0.10984 0.0
H559 H 0.09652 0.46238 0.1063 0.0
H560 H 0.0917 0.41524 0.07897 0.0
C561 C 0.58884 0.27624 0.20281 0.0
C562 C 0.59595 0.26364 0.2126 0.0
N563 N 0.58481 0.25074 0.2137 0.0
N564 N 0.57339 0.27117 0.19764 0.0
C565 C 0.57131 0.25568 0.20449 0.0
H566 H 0.59466 0.28816 0.19943 0.0
Co567 Co 0.55803 0.28194 0.18351 0.0
C568 C 0.55468 0.24601 0.16619 0.0
O569 O 0.56934 0.23829 0.1677 0.0
N570 N 0.54276 0.29206 0.1684 0.0
C571 C 0.53058 0.29783 0.14359 0.0
C572 C 0.54277 0.28851 0.15159 0.0
C573 C 0.53054 0.30381 0.17021 0.0
N574 N 0.52307 0.30757 0.15528 0.0
O575 O 0.54068 0.27708 0.19965 0.0
H576 H 0.55092 0.27934 0.1455 0.0
H577 H 0.52643 0.30876 0.18231 0.0
O578 O 0.55272 0.26081 0.17232 0.0
C579 C 0.53953 0.28832 0.21114 0.0
O580 O 0.54716 0.30287 0.20861 0.0
N581 N 0.57514 0.28785 0.16901 0.0
C582 C 0.59266 0.29976 0.14168 0.0
C583 C 0.59383 0.28264 0.14616 0.0
C584 C 0.58494 0.27688 0.16012 0.0
C585 C 0.57627 0.30492 0.16653 0.0
C586 C 0.5848 0.31125 0.15252 0.0
H587 H 0.58526 0.26367 0.16325 0.0
H588 H 0.56903 0.31347 0.17444 0.0
H589 H 0.55986 0.24831 0.20305 0.0
H590 H 0.60848 0.26391 0.21812 0.0
H591 H 0.52671 0.29673 0.13048 0.0
H592 H 0.60074 0.27369 0.13836 0.0
H593 H 0.58429 0.32464 0.14958 0.0
C594 C 0.71719 0.83865 0.45065 0.0
C595 C 0.72954 0.84602 0.4605 0.0
N596 N 0.74188 0.83453 0.46306 0.0
N597 N 0.72174 0.82259 0.44698 0.0
C598 C 0.73667 0.82036 0.45501 0.0
H599 H 0.70563 0.84464 0.44642 0.0
Co600 Co 0.70966 0.80714 0.43384 0.0
C601 C 0.74511 0.80145 0.41792 0.0
O602 O 0.75299 0.8157 0.42131 0.0
N603 N 0.69769 0.792 0.42005 0.0
C604 C 0.68796 0.78055 0.3962 0.0
C605 C 0.70048 0.79023 0.40323 0.0
C606 C 0.68338 0.78319 0.42291 0.0
N607 N 0.67714 0.77616 0.40858 0.0
O608 O 0.71306 0.79036 0.45084 0.0
H609 H 0.71083 0.79593 0.39632 0.0
H610 H 0.67788 0.78156 0.43532 0.0
O611 O 0.72987 0.7993 0.4227 0.0
C612 C 0.7008 0.79142 0.46118 0.0
O613 O 0.68871 0.80244 0.45809 0.0
N614 N 0.70485 0.82359 0.41827 0.0
C615 C 0.6904 0.84117 0.39198 0.0
C616 C 0.708 0.83877 0.39257 0.0
C617 C 0.71506 0.82991 0.40597 0.0
C618 C 0.68796 0.8272 0.41869 0.0
C619 C 0.68034 0.83585 0.40545 0.0
H620 H 0.72843 0.82756 0.40593 0.0
H621 H 0.6802 0.82217 0.42879 0.0
H622 H 0.74342 0.80843 0.45516 0.0
H623 H 0.72948 0.85885 0.46533 0.0
H624 H 0.68713 0.77665 0.38308 0.0
H625 H 0.71616 0.84346 0.38259 0.0
H626 H 0.66677 0.83788 0.40547 0.0
C627 C 0.15331 0.96504 0.70695 0.0
C628 C 0.14676 0.97769 0.7171 0.0
N629 N 0.15542 0.99202 0.71389 0.0
N630 N 0.16608 0.97149 0.69764 0.0
C631 C 0.16703 0.98791 0.70215 0.0
H632 H 0.14955 0.95187 0.70688 0.0
Co633 Co 0.18105 0.9601 0.68371 0.0
C634 C 0.18466 0.99097 0.65931 0.0
O635 O 0.17427 0.9872 0.64692 0.0
N636 N 0.19622 0.9489 0.66915 0.0
C637 C 0.20838 0.93938 0.64548 0.0
C638 C 0.19712 0.95082 0.65212 0.0
C639 C 0.20691 0.93605 0.67248 0.0
N640 N 0.21428 0.92995 0.65831 0.0
O641 O 0.19851 0.9648 0.69959 0.0
H642 H 0.18965 0.95954 0.64478 0.0
H643 H 0.20957 0.9314 0.68506 0.0
O644 O 0.18673 0.98098 0.67185 0.0
C645 C 0.1978 0.95279 0.71028 0.0
O646 O 0.1873 0.9402 0.70739 0.0
N647 N 0.16369 0.954 0.66971 0.0
C648 C 0.14426 0.94175 0.64396 0.0
C649 C 0.14263 0.95872 0.64895 0.0
C650 C 0.15231 0.96458 0.6624 0.0
C651 C 0.1629 0.93692 0.6671 0.0
C652 C 0.15352 0.93046 0.65377 0.0
H653 H 0.15153 0.9777 0.66621 0.0
H654 H 0.17086 0.92848 0.67438 0.0
H655 H 0.17682 -0.00353 0.69785 0.0
H656 H 0.13694 0.97633 0.72657 0.0
H657 H 0.2121 0.93817 0.63234 0.0
H658 H 0.13469 0.96746 0.64197 0.0
H659 H 0.15434 0.91714 0.65053 0.0
C660 C 0.52631 0.4022 0.45163 0.0
C661 C 0.51337 0.39489 0.4607 0.0
N662 N 0.50076 0.40636 0.46258 0.0
N663 N 0.52179 0.41807 0.44739 0.0
C664 C 0.50648 0.42034 0.45453 0.0
H665 H 0.53785 0.39603 0.44759 0.0
Co666 Co 0.53235 0.43303 0.43264 0.0
C667 C 0.49952 0.43842 0.41138 0.0
O668 O 0.50153 0.42847 0.3982 0.0
N669 N 0.54247 0.44794 0.41709 0.0
C670 C 0.55066 0.459 0.3924 0.0
C671 C 0.53986 0.44781 0.40012 0.0
C672 C 0.55499 0.45925 0.41931 0.0
N673 N 0.56023 0.46603 0.40454 0.0
O674 O 0.52945 0.45046 0.44904 0.0
H675 H 0.53111 0.43962 0.39358 0.0
H676 H 0.56008 0.46274 0.43153 0.0
O677 O 0.51083 0.43918 0.42287 0.0
C678 C 0.54246 0.44833 0.45829 0.0
O679 O 0.55445 0.43842 0.45234 0.0
N680 N 0.53707 0.41561 0.41829 0.0
C681 C 0.55055 0.39149 0.39738 0.0
C682 C 0.53303 0.39188 0.4003 0.0
C683 C 0.52645 0.40409 0.41119 0.0
C684 C 0.55423 0.41398 0.417 0.0
C685 C 0.5613 0.40219 0.40621 0.0
H686 H 0.51307 0.40429 0.41397 0.0
H687 H 0.56248 0.42247 0.42387 0.0
H688 H 0.49966 0.43213 0.45354 0.0
H689 H 0.51328 0.38185 0.46472 0.0
H690 H 0.55144 0.46175 0.37899 0.0
H691 H 0.52456 0.38334 0.3937 0.0
H692 H 0.57488 0.40191 0.40423 0.0
C693 C 0.14685 0.76984 0.03932 0.0
C694 C 0.14002 0.7565 0.03032 0.0
N695 N 0.15201 0.74448 0.02866 0.0
N696 N 0.16308 0.76618 0.04324 0.0
C697 C 0.16586 0.75083 0.03632 0.0
H698 H 0.14045 0.78147 0.04271 0.0
Co699 Co 0.17889 0.77899 0.0553 0.0
C700 C 0.18617 0.74962 0.0807 0.0
O701 O 0.17767 0.7547 0.09407 0.0
N702 N 0.19489 0.79172 0.06774 0.0
C703 C 0.21225 0.80121 0.08774 0.0
C704 C 0.20169 0.78835 0.08305 0.0
C705 C 0.20125 0.80706 0.0637 0.0
N706 N 0.21195 0.81319 0.07561 0.0
O707 O 0.19526 0.77476 0.03824 0.0
H708 H 0.19955 0.77726 0.09055 0.0
H709 H 0.19808 0.81357 0.05213 0.0
O710 O 0.18635 0.75856 0.06719 0.0
C711 C 0.19234 0.78663 0.02779 0.0
O712 O 0.1797 0.79704 0.03086 0.0
N713 N 0.16272 0.78509 0.07058 0.0
C714 C 0.14322 0.79967 0.09513 0.0
C715 C 0.14297 0.78204 0.09289 0.0
C716 C 0.15261 0.77493 0.08002 0.0
C717 C 0.16084 0.80228 0.07093 0.0
C718 C 0.1514 0.80997 0.08351 0.0
H719 H 0.15233 0.76142 0.07788 0.0
H720 H 0.16738 0.8101 0.06184 0.0
H721 H 0.1781 0.74483 0.03611 0.0
H722 H 0.12731 0.75579 0.02524 0.0
H723 H 0.2204 0.80094 0.09872 0.0
H724 H 0.13572 0.77392 0.10125 0.0
H725 H 0.15098 0.82366 0.08451 0.0
C726 C 0.71443 0.90402 0.28841 0.0
C727 C 0.72699 0.89758 0.27816 0.0
N728 N 0.74007 0.90858 0.278 0.0
N729 N 0.7196 0.91894 0.29485 0.0
C730 C 0.73508 0.92152 0.28809 0.0
H731 H 0.70236 0.89814 0.29113 0.0
Co732 Co 0.70799 0.93304 0.30988 0.0
C733 C 0.74035 0.93811 0.33164 0.0
O734 O 0.74015 0.92524 0.34211 0.0
N735 N 0.697 0.94727 0.32567 0.0
C736 C 0.68899 0.95831 0.35048 0.0
C737 C 0.69952 0.94688 0.34266 0.0
C738 C 0.68479 0.95896 0.32356 0.0
N739 N 0.67964 0.96568 0.33839 0.0
O740 O 0.71002 0.9509 0.29354 0.0
H741 H 0.70844 0.93868 0.34904 0.0
H742 H 0.68003 0.96296 0.31137 0.0
O743 O 0.72878 0.94008 0.32057 0.0
C744 C 0.69663 0.94775 0.28507 0.0
O745 O 0.68542 0.93761 0.29205 0.0
N746 N 0.70367 0.9149 0.32376 0.0
C747 C 0.69049 0.88706 0.34012 0.0
C748 C 0.70802 0.88837 0.33737 0.0
C749 C 0.7144 0.90239 0.32877 0.0
C750 C 0.68654 0.913 0.3253 0.0
C751 C 0.67967 0.89931 0.33369 0.0
H752 H 0.72765 0.90283 0.32549 0.0
H753 H 0.67801 0.9222 0.31986 0.0
H754 H 0.74224 0.933 0.29016 0.0
H755 H 0.72648 0.88568 0.27137 0.0
H756 H 0.68842 0.96119 0.36388 0.0
H757 H 0.71666 0.87875 0.34196 0.0
H758 H 0.66607 0.89839 0.33528 0.0
C759 C 0.02826 0.33218 0.78009 0.0
C760 C 0.01467 0.33915 0.77165 0.0
N761 N 0.00038 0.33182 0.77746 0.0
N762 N 0.02256 0.32043 0.79104 0.0
C763 C 0.00558 0.32044 0.78907 0.0
H764 H 0.04148 0.33522 0.77819 0.0
Co765 Co 0.0355 0.30718 0.80555 0.0
C766 C 0.00502 0.29932 0.82943 0.0
O767 O 0.00635 0.3103 0.84185 0.0
N768 N 0.048 0.29384 0.82096 0.0
C769 C 0.05736 0.28359 0.84561 0.0
C770 C 0.04672 0.29505 0.83805 0.0
C771 C 0.05961 0.2816 0.8185 0.0
N772 N 0.06551 0.27529 0.83324 0.0
O773 O 0.03333 0.28899 0.78969 0.0
H774 H 0.03848 0.3037 0.84471 0.0
H775 H 0.06315 0.27671 0.80621 0.0
O776 O 0.01568 0.29934 0.8173 0.0
C777 C 0.04585 0.29171 0.77986 0.0
O778 O 0.0579 0.3016 0.78567 0.0
N779 N 0.03924 0.32563 0.81882 0.0
C780 C 0.05077 0.35372 0.83572 0.0
C781 C 0.03329 0.35094 0.83397 0.0
C782 C 0.02771 0.33673 0.82515 0.0
C783 C 0.05617 0.32906 0.81922 0.0
C784 C 0.06228 0.34288 0.82801 0.0
H785 H 0.01432 0.33474 0.82323 0.0
H786 H 0.06504 0.32074 0.81293 0.0
H787 H -0.00289 0.31214 0.79588 0.0
H788 H 0.01538 0.34833 0.76151 0.0
H789 H 0.05863 0.28117 0.85904 0.0
H790 H 0.02415 0.35934 0.83982 0.0
H791 H 0.07581 0.34488 0.82911 0.0
C792 C 0.03531 0.65296 0.27685 0.0
C793 C 0.02591 0.64597 0.264 0.0
N794 N 0.02641 0.65641 0.2504 0.0
N795 N 0.04211 0.66756 0.2714 0.0
C796 C 0.03634 0.66946 0.25548 0.0
H797 H 0.03758 0.64743 0.28918 0.0
Co798 Co 0.05745 0.68133 0.28258 0.0
C799 C 0.07958 0.68485 0.24952 0.0
O800 O 0.08947 0.67156 0.24814 0.0
N801 N 0.07359 0.69501 0.29325 0.0
C802 C 0.0987 0.70624 0.29976 0.0
C803 C 0.09054 0.69381 0.29075 0.0
C804 C 0.07181 0.70799 0.30409 0.0
N805 N 0.08683 0.71494 0.30823 0.0
O806 O 0.04271 0.70003 0.27842 0.0
H807 H 0.09661 0.68473 0.28247 0.0
H808 H 0.05973 0.71299 0.30817 0.0
O809 O 0.06941 0.68635 0.26194 0.0
C810 C 0.03225 0.70003 0.29069 0.0
O811 O 0.03552 0.69021 0.30373 0.0
N812 N 0.07005 0.66275 0.28809 0.0
C813 C 0.08514 0.63433 0.30144 0.0
C814 C 0.08331 0.63608 0.28383 0.0
C815 C 0.07542 0.6504 0.27736 0.0
C816 C 0.07076 0.66069 0.30522 0.0
C817 C 0.07853 0.64664 0.31222 0.0
H818 H 0.07299 0.65126 0.26396 0.0
H819 H 0.06525 0.67012 0.31351 0.0
H820 H 0.03949 0.68038 0.2479 0.0
H821 H 0.01971 0.63387 0.26489 0.0
H822 H 0.11209 0.70914 0.29959 0.0
H823 H 0.08835 0.62671 0.27515 0.0
H824 H 0.07973 0.64556 0.32585 0.0
C825 C 0.3363 0.78603 0.02685 0.0
C826 C 0.34244 0.7771 0.01317 0.0
N827 N 0.33214 0.77993 -0.00014 0.0
N828 N 0.32212 0.79431 0.02221 0.0
C829 C 0.31986 0.79027 0.00575 0.0
H830 H 0.34171 0.78635 0.03942 0.0
Co831 Co 0.30922 0.80872 0.03556 0.0
C832 C 0.29813 0.83414 0.00826 0.0
O833 O 0.30493 0.84808 0.01424 0.0
N834 N 0.29621 0.82407 0.04879 0.0
C835 C 0.28622 0.84814 0.0601 0.0
C836 C 0.29965 0.84066 0.05194 0.0
C837 C 0.28058 0.82191 0.05523 0.0
N838 N 0.2744 0.83622 0.06217 0.0
O839 O 0.2911 0.79298 0.03375 0.0
H840 H 0.31081 0.84737 0.04776 0.0
H841 H 0.27324 0.81044 0.05391 0.0
O842 O 0.30053 0.82004 0.01573 0.0
C843 C 0.2927 0.78262 0.04595 0.0
O844 O 0.30171 0.78748 0.05908 0.0
N845 N 0.32772 0.82183 0.03856 0.0
C846 C 0.35689 0.83718 0.04942 0.0
C847 C 0.3522 0.83803 0.03226 0.0
C848 C 0.33743 0.83 0.02696 0.0
C849 C 0.33285 0.81988 0.05493 0.0
C850 C 0.3473 0.82778 0.06076 0.0
H851 H 0.33383 0.83021 0.01376 0.0
H852 H 0.32533 0.81241 0.06359 0.0
H853 H 0.30939 0.79482 -0.00181 0.0
H854 H 0.35328 0.76873 0.01325 0.0
H855 H 0.28477 0.86142 0.0632 0.0
H856 H 0.35954 0.84534 0.02327 0.0
H857 H 0.35069 0.82698 0.07404 0.0
C858 C 0.19423 0.09787 0.76965 0.0
C859 C 0.20424 0.10328 0.75638 0.0
N860 N 0.20906 0.08954 0.7475 0.0
N861 N 0.1927 0.08086 0.76889 0.0
C862 C 0.20207 0.07621 0.75541 0.0
H863 H 0.18862 0.1058 0.77932 0.0
Co864 Co 0.18135 0.06611 0.78325 0.0
C865 C 0.16691 0.05468 0.7489 0.0
O866 O 0.1689 0.0686 0.74 0.0
N867 N 0.16947 0.05152 0.79729 0.0
C868 C 0.14901 0.0349 0.80691 0.0
C869 C 0.15311 0.04696 0.79523 0.0
C870 C 0.17477 0.04266 0.81074 0.0
N871 N 0.16282 0.03175 0.81634 0.0
O872 O 0.20009 0.05074 0.78169 0.0
H873 H 0.14504 0.051 0.78495 0.0
H874 H 0.18781 0.0425 0.81492 0.0
O875 O 0.17125 0.05434 0.76441 0.0
C876 C 0.212 0.05572 0.79127 0.0
O877 O 0.20881 0.06808 0.80196 0.0
N878 N 0.16414 0.08124 0.7861 0.0
C879 C 0.13519 0.09359 0.801 0.0
C880 C 0.13558 0.09016 0.7835 0.0
C881 C 0.15029 0.08381 0.77623 0.0
C882 C 0.16468 0.08671 0.80245 0.0
C883 C 0.15015 0.09253 0.81035 0.0
H884 H 0.15006 0.07992 0.76319 0.0
H885 H 0.17598 0.0846 0.80991 0.0
H886 H 0.20367 0.0632 0.75136 0.0
H887 H 0.20804 0.11618 0.75374 0.0
H888 H 0.13766 0.0272 0.80667 0.0
H889 H 0.12453 0.09198 0.77559 0.0
H890 H 0.15047 0.09556 0.82373 0.0
C891 C 0.90555 0.78056 0.20983 0.0
C892 C 0.8993 0.77048 0.22267 0.0
N893 N 0.907 0.77503 0.2372 0.0
N894 N 0.91725 0.79119 0.21629 0.0
C895 C 0.9179 0.78742 0.23294 0.0
H896 H 0.90207 0.77998 0.19659 0.0
Co897 Co 0.93046 0.80678 0.20463 0.0
C898 C 0.93796 0.83124 0.23394 0.0
O899 O 0.9303 0.84485 0.22827 0.0
N900 N 0.94398 0.82324 0.19318 0.0
C901 C 0.95408 0.84823 0.18416 0.0
C902 C 0.94083 0.84014 0.19196 0.0
C903 C 0.95936 0.82152 0.18597 0.0
N904 N 0.96556 0.83641 0.18037 0.0
O905 O 0.949 0.79151 0.20684 0.0
H906 H 0.92978 0.84653 0.1968 0.0
H907 H 0.96637 0.80978 0.18542 0.0
O908 O 0.93742 0.81742 0.22556 0.0
C909 C 0.94788 0.78196 0.19393 0.0
O910 O 0.93813 0.78715 0.18148 0.0
N911 N 0.91177 0.8198 0.2012 0.0
C912 C 0.89017 0.84469 0.19113 0.0
C913 C 0.89134 0.8405 0.20836 0.0
C914 C 0.9022 0.82755 0.2132 0.0
C915 C 0.90817 0.82146 0.18438 0.0
C916 C 0.89756 0.83433 0.17894 0.0
H917 H 0.90399 0.82474 0.22647 0.0
H918 H 0.91519 0.81416 0.17515 0.0
H919 H 0.9267 0.7931 0.24175 0.0
H920 H 0.89002 0.76047 0.22144 0.0
H921 H 0.95551 0.8617 0.1821 0.0
H922 H 0.88508 0.84808 0.21795 0.0
H923 H 0.89645 0.83713 0.16555 0.0
C924 C 0.20375 0.64649 0.96936 0.0
C925 C 0.21398 0.64105 0.98231 0.0
N926 N 0.21572 0.65378 0.9936 0.0
N927 N 0.19862 0.66242 0.97263 0.0
C928 C 0.20619 0.66657 0.98737 0.0
H929 H 0.20009 0.63915 0.95839 0.0
Co930 Co 0.18432 0.67559 0.95948 0.0
C931 C 0.15779 0.68863 0.98288 0.0
O932 O 0.14576 0.68467 0.97213 0.0
N933 N 0.16936 0.68923 0.94593 0.0
C934 C 0.14741 0.69978 0.93118 0.0
C935 C 0.15477 0.68539 0.93752 0.0
C936 C 0.17023 0.70623 0.94455 0.0
N937 N 0.15711 0.71279 0.93588 0.0
O938 O 0.20057 0.69331 0.96072 0.0
H939 H 0.14867 0.67327 0.937 0.0
H940 H 0.18012 0.71389 0.95012 0.0
O941 O 0.17321 0.68462 0.97981 0.0
C942 C 0.20965 0.69216 0.94751 0.0
O943 O 0.20508 0.68122 0.93581 0.0
N944 N 0.17021 0.6575 0.95718 0.0
C945 C 0.1442 0.63787 0.94632 0.0
C946 C 0.14609 0.6411 0.96371 0.0
C947 C 0.15959 0.65098 0.96902 0.0
C948 C 0.17099 0.65079 0.94128 0.0
C949 C 0.15767 0.64101 0.93532 0.0
H950 H 0.1606 0.65462 0.98217 0.0
H951 H 0.18055 0.65519 0.93251 0.0
H952 H 0.20487 0.67887 0.99328 0.0
H953 H 0.21925 0.62847 0.98338 0.0
H954 H 0.13556 0.70072 0.92436 0.0
H955 H 0.13644 0.63745 0.97275 0.0
H956 H 0.15692 0.63794 0.92197 0.0
C957 C 0.33385 0.95709 0.71444 0.0
C958 C 0.33993 0.96703 0.72748 0.0
N959 N 0.33297 0.96159 0.74209 0.0
N960 N 0.32314 0.94548 0.72086 0.0
C961 C 0.32319 0.9483 0.73769 0.0
H962 H 0.33624 0.95887 0.70108 0.0
Co963 Co 0.30855 0.93134 0.70899 0.0
C964 C 0.30344 0.9066 0.73931 0.0
O965 O 0.3129 0.89363 0.73505 0.0
N966 N 0.29383 0.91661 0.69727 0.0
C967 C 0.282 0.89302 0.68709 0.0
C968 C 0.29382 0.89946 0.69809 0.0
C969 C 0.28208 0.9202 0.68548 0.0
N970 N 0.27479 0.90615 0.67911 0.0
O971 O 0.29079 0.9472 0.71306 0.0
H972 H 0.30219 0.89197 0.70581 0.0
H973 H 0.27848 0.93288 0.68181 0.0
O974 O 0.30216 0.9195 0.72968 0.0
C975 C 0.29174 0.95754 0.70074 0.0
O976 O 0.30243 0.95413 0.68843 0.0
N977 N 0.32622 0.91762 0.70335 0.0
C978 C 0.34813 0.89473 0.68942 0.0
C979 C 0.34821 0.89753 0.70697 0.0
C980 C 0.33725 0.90954 0.71376 0.0
C981 C 0.32788 0.91675 0.68616 0.0
C982 C 0.33857 0.90496 0.67882 0.0
H983 H 0.33713 0.91191 0.72723 0.0
H984 H 0.31989 0.92443 0.67811 0.0
H985 H 0.31563 0.94119 0.74653 0.0
H986 H 0.34783 0.97815 0.72615 0.0
H987 H 0.27888 0.87981 0.68518 0.0
H988 H 0.35612 0.89003 0.71529 0.0
H989 H 0.33871 0.90326 0.6652 0.0
C990 C 0.52101 0.89753 0.95507 0.0
C991 C 0.50602 0.89297 0.9628 0.0
N992 N 0.49411 0.90445 0.95856 0.0
N993 N 0.5184 0.91174 0.94601 0.0
C994 C 0.5019 0.91543 0.94812 0.0
H995 H 0.53316 0.89139 0.95655 0.0
Co996 Co 0.53401 0.92467 0.93451 0.0
C997 C 0.50684 0.93861 0.90837 0.0
O998 O 0.50837 0.92999 0.89421 0.0
N999 N 0.54939 0.93779 0.92184 0.0
C1000 C 0.56099 0.9494 0.89885 0.0
C1001 C 0.55099 0.93665 0.90476 0.0
C1002 C 0.55851 0.9516 0.92589 0.0
N1003 N 0.56558 0.95888 0.91212 0.0
O1004 O 0.53067 0.94224 0.95086 0.0
H1005 H 0.54405 0.9281 0.89669 0.0
H1006 H 0.55828 0.9575 0.93826 0.0
O1007 O 0.51646 0.93525 0.9209 0.0
C1008 C 0.54042 0.94145 0.96363 0.0
O1009 O 0.55298 0.93055 0.96341 0.0
N1010 N 0.53809 0.90694 0.92031 0.0
C1011 C 0.55184 0.88957 0.8938 0.0
C1012 C 0.5342 0.89182 0.89476 0.0
C1013 C 0.52742 0.90045 0.90853 0.0
C1014 C 0.5546 0.90195 0.92123 0.0
C1015 C 0.56196 0.89347 0.90772 0.0
H1016 H 0.51401 0.90302 0.90913 0.0
H1017 H 0.56253 0.90657 0.93141 0.0
H1018 H 0.49585 0.92644 0.94273 0.0
H1019 H 0.50433 0.8828 0.97183 0.0
H1020 H 0.56272 0.95284 0.88569 0.0
H1021 H 0.52595 0.88775 0.88458 0.0
H1022 H 0.57548 0.89115 0.90761 0.0
C1023 C 0.08352 0.27883 0.70433 0.0
C1024 C 0.08993 0.26629 0.71461 0.0
N1025 N 0.07936 0.25299 0.71377 0.0
N1026 N 0.06886 0.27345 0.69736 0.0
C1027 C 0.06674 0.2576 0.70332 0.0
H1028 H 0.08928 0.29101 0.70192 0.0
Co1029 Co 0.05532 0.28468 0.68179 0.0
C1030 C 0.0477 0.25638 0.65721 0.0
O1031 O 0.05436 0.26381 0.64393 0.0
N1032 N 0.04166 0.29585 0.66516 0.0
C1033 C 0.03261 0.30724 0.64069 0.0
C1034 C 0.04576 0.29922 0.64873 0.0
C1035 C 0.02572 0.30181 0.66653 0.0
N1036 N 0.02015 0.3088 0.65201 0.0
O1037 O 0.03691 0.2825 0.69735 0.0
H1038 H 0.05758 0.29602 0.64264 0.0
H1039 H 0.01812 0.30106 0.6779 0.0
O1040 O 0.04867 0.26325 0.67179 0.0
C1041 C 0.0363 0.29526 0.7072 0.0
O1042 O 0.04118 0.30993 0.70104 0.0
N1043 N 0.07396 0.28816 0.66884 0.0
C1044 C 0.1031 0.29937 0.65361 0.0
C1045 C 0.09954 0.28195 0.65433 0.0
C1046 C 0.0848 0.27651 0.66229 0.0
C1047 C 0.07794 0.30496 0.66934 0.0
C1048 C 0.09233 0.31095 0.66139 0.0
H1049 H 0.08218 0.26312 0.66339 0.0
H1050 H 0.06958 0.31376 0.6757 0.0
H1051 H 0.0561 0.24956 0.70016 0.0
H1052 H 0.10153 0.26678 0.7219 0.0
H1053 H 0.03212 0.31144 0.62765 0.0
H1054 H 0.10777 0.27275 0.64833 0.0
H1055 H 0.09484 0.32443 0.661 0.0
C1056 C 0.14919 0.46847 0.19802 0.0
C1057 C 0.14326 0.48242 0.20677 0.0
N1058 N 0.15575 0.49403 0.20738 0.0
N1059 N 0.16531 0.4714 0.19321 0.0
C1060 C 0.16886 0.48704 0.19899 0.0
H1061 H 0.14244 0.45675 0.19586 0.0
Co1062 Co 0.18069 0.45745 0.18219 0.0
C1063 C 0.19045 0.48659 0.15699 0.0
O1064 O 0.18117 0.48433 0.14338 0.0
N1065 N 0.19623 0.44399 0.17042 0.0
C1066 C 0.20847 0.43101 0.14865 0.0
C1067 C 0.19773 0.44375 0.15338 0.0
C1068 C 0.20642 0.43145 0.17577 0.0
N1069 N 0.21411 0.42326 0.16276 0.0
O1070 O 0.19674 0.46221 0.19972 0.0
H1071 H 0.19082 0.45184 0.14479 0.0
H1072 H 0.20832 0.42857 0.18901 0.0
O1073 O 0.18914 0.47652 0.16952 0.0
C1074 C 0.19315 0.45247 0.21203 0.0
O1075 O 0.18226 0.44018 0.20933 0.0
N1076 N 0.16446 0.4514 0.16683 0.0
C1077 C 0.14179 0.43711 0.14478 0.0
C1078 C 0.14346 0.45477 0.14561 0.0
C1079 C 0.15481 0.46178 0.15709 0.0
C1080 C 0.16178 0.43432 0.16714 0.0
C1081 C 0.1507 0.42679 0.15585 0.0
H1082 H 0.15566 0.47535 0.15841 0.0
H1083 H 0.16872 0.42646 0.17594 0.0
H1084 H 0.18112 0.49299 0.19759 0.0
H1085 H 0.13114 0.48345 0.21309 0.0
H1086 H 0.21149 0.42774 0.13573 0.0
H1087 H 0.13601 0.46297 0.13752 0.0
H1088 H 0.14914 0.41315 0.15572 0.0
C1089 C 0.52294 0.83937 0.79126 0.0
C1090 C 0.50957 0.847 0.78314 0.0
N1091 N 0.49705 0.8355 0.7814 0.0
N1092 N 0.51872 0.82326 0.79509 0.0
C1093 C 0.50292 0.82131 0.78893 0.0
H1094 H 0.53492 0.84525 0.79433 0.0
Co1095 Co 0.53125 0.80723 0.807 0.0
C1096 C 0.49915 0.80224 0.83043 0.0
O1097 O 0.49657 0.8167 0.83819 0.0
N1098 N 0.54328 0.7913 0.81981 0.0
C1099 C 0.55422 0.77967 0.84305 0.0
C1100 C 0.54196 0.79024 0.83687 0.0
C1101 C 0.55639 0.78111 0.81591 0.0
N1102 N 0.56331 0.77393 0.82985 0.0
O1103 O 0.52564 0.79087 0.78978 0.0
H1104 H 0.53315 0.79742 0.84451 0.0
H1105 H 0.56086 0.77905 0.80313 0.0
O1106 O 0.51136 0.80043 0.81998 0.0
C1107 C 0.53644 0.79242 0.77785 0.0
O1108 O 0.5501 0.8014 0.78095 0.0
N1109 N 0.53844 0.82384 0.82182 0.0
C1110 C 0.55389 0.85064 0.83806 0.0
C1111 C 0.53618 0.84944 0.83756 0.0
C1112 C 0.52867 0.83598 0.82914 0.0
C1113 C 0.55569 0.82529 0.82164 0.0
C1114 C 0.56374 0.83841 0.83009 0.0
H1115 H 0.51523 0.83625 0.82718 0.0
H1116 H 0.5633 0.81638 0.81456 0.0
H1117 H 0.49607 0.80946 0.78954 0.0
H1118 H 0.50922 0.86001 0.77893 0.0
H1119 H 0.55645 0.77677 0.85625 0.0
H1120 H 0.52821 0.85884 0.84362 0.0
H1121 H 0.57745 0.83908 0.83031 0.0
C1122 C 0.15279 0.27576 0.53906 0.0
C1123 C 0.14662 0.26275 0.52917 0.0
N1124 N 0.15833 0.25032 0.52872 0.0
N1125 N 0.16839 0.27159 0.5446 0.0
C1126 C 0.17137 0.2561 0.5381 0.0
H1127 H 0.14646 0.28759 0.54181 0.0
Co1128 Co 0.18301 0.28349 0.55865 0.0
C1129 C 0.18922 0.25267 0.58249 0.0
O1130 O 0.1794 0.25603 0.59547 0.0
N1131 N 0.19775 0.2949 0.57376 0.0
C1132 C 0.20827 0.30432 0.59835 0.0
C1133 C 0.19726 0.29321 0.59087 0.0
C1134 C 0.20923 0.30724 0.57125 0.0
N1135 N 0.21559 0.31322 0.58595 0.0
O1136 O 0.20049 0.28026 0.54207 0.0
H1137 H 0.18881 0.28505 0.59774 0.0
H1138 H 0.21322 0.31166 0.55894 0.0
O1139 O 0.18993 0.26256 0.5697 0.0
C1140 C 0.19971 0.29255 0.53165 0.0
O1141 O 0.19202 0.30642 0.53671 0.0
N1142 N 0.16552 0.28827 0.57292 0.0
C1143 C 0.14517 0.30002 0.59818 0.0
C1144 C 0.14488 0.28278 0.5939 0.0
C1145 C 0.15503 0.27713 0.58071 0.0
C1146 C 0.16353 0.30532 0.57494 0.0
C1147 C 0.1536 0.31158 0.58796 0.0
H1148 H 0.15519 0.26387 0.57733 0.0
H1149 H 0.17096 0.31401 0.56739 0.0
H1150 H 0.18297 0.24915 0.54025 0.0
H1151 H 0.13471 0.26277 0.52241 0.0
H1152 H 0.21068 0.3058 0.61177 0.0
H1153 H 0.13756 0.27377 0.6012 0.0
H1154 H 0.1534 0.32503 0.59067 0.0
C1155 C 0.44999 0.71683 0.8421 0.0
C1156 C 0.4598 0.72917 0.84969 0.0
N1157 N 0.45766 0.74368 0.84101 0.0
N1158 N 0.44205 0.72364 0.82861 0.0
C1159 C 0.44695 0.73995 0.82835 0.0
H1160 H 0.4499 0.7035 0.84521 0.0
Co1161 Co 0.43218 0.71245 0.81065 0.0
C1162 C 0.4047 0.73588 0.7996 0.0
O1163 O 0.39355 0.72353 0.80018 0.0
N1164 N 0.42248 0.70117 0.79191 0.0
C1165 C 0.41322 0.6963 0.76579 0.0
C1166 C 0.41847 0.70843 0.77695 0.0
C1167 C 0.42043 0.6844 0.78903 0.0
N1168 N 0.41461 0.68112 0.77335 0.0
O1169 O 0.45085 0.71884 0.79701 0.0
H1170 H 0.42059 0.72155 0.77374 0.0
H1171 H 0.42484 0.67456 0.7974 0.0
O1172 O 0.42001 0.7331 0.80414 0.0
C1173 C 0.46067 0.70614 0.79802 0.0
O1174 O 0.45511 0.6926 0.80596 0.0
N1175 N 0.41516 0.70499 0.82463 0.0
C1176 C 0.38702 0.68995 0.83812 0.0
C1177 C 0.38889 0.70764 0.83883 0.0
C1178 C 0.40347 0.71496 0.83239 0.0
C1179 C 0.41517 0.68795 0.82728 0.0
C1180 C 0.4008 0.67996 0.83342 0.0
H1181 H 0.40487 0.72857 0.83263 0.0
H1182 H 0.42614 0.68052 0.82396 0.0
H1183 H 0.44445 0.74843 0.8179 0.0
H1184 H 0.46876 0.72733 0.8599 0.0
H1185 H 0.41077 0.69827 0.75244 0.0
H1186 H 0.37914 0.7157 0.84415 0.0
H1187 H 0.40038 0.66628 0.83432 0.0
C1188 C 0.78302 0.02717 0.3384 0.0
C1189 C 0.77408 0.01423 0.34599 0.0
N1190 N 0.77736 -0.0002 0.33747 0.0
N1191 N 0.79164 0.02084 0.3251 0.0
C1192 C 0.78786 0.00422 0.32481 0.0
H1193 H 0.78307 0.04035 0.34215 0.0
Co1194 Co 0.80566 0.03202 0.31019 0.0
C1195 C 0.82906 -0.00037 0.30665 0.0
O1196 O 0.8411 9e-05 0.31808 0.0
N1197 N 0.82074 0.04277 0.29533 0.0
C1198 C 0.84552 0.05072 0.28423 0.0
C1199 C 0.83777 0.04058 0.29595 0.0
C1200 C 0.81851 0.05466 0.28335 0.0
N1201 N 0.83336 0.05972 0.27661 0.0
O1202 O 0.79044 0.02614 0.29229 0.0
H1203 H 0.84429 0.03226 0.30462 0.0
H1204 H 0.80628 0.05925 0.27924 0.0
O1205 O 0.81827 0.01158 0.3056 0.0
C1206 C 0.77927 0.03763 0.29064 0.0
O1207 O 0.78132 0.05186 0.29904 0.0
N1208 N 0.81903 0.03887 0.32775 0.0
C1209 C 0.84527 0.05187 0.346 0.0
C1210 C 0.84105 0.03469 0.34757 0.0
C1211 C 0.82745 0.02841 0.33844 0.0
C1212 C 0.82107 0.05602 0.3285 0.0
C1213 C 0.83457 0.06289 0.33738 0.0
H1214 H 0.82423 0.01515 0.33917 0.0
H1215 H 0.81331 0.06417 0.32069 0.0
H1216 H 0.792 -0.00435 0.31494 0.0
H1217 H 0.76555 0.01539 0.35666 0.0
H1218 H 0.85889 0.05126 0.28128 0.0
H1219 H 0.84872 0.02614 0.35507 0.0
H1220 H 0.83726 0.07632 0.33661 0.0
C1221 C 0.46773 0.53907 0.59091 0.0
C1222 C 0.48052 0.5288 0.59704 0.0
N1223 N 0.49209 0.52679 0.58467 0.0
N1224 N 0.47132 0.54339 0.57476 0.0
C1225 C 0.48624 0.53578 0.57143 0.0
H1226 H 0.45642 0.54285 0.59766 0.0
Co1227 Co 0.45972 0.55688 0.55929 0.0
C1228 C 0.49405 0.57712 0.55293 0.0
O1229 O 0.50248 0.58218 0.56635 0.0
N1230 N 0.44873 0.57121 0.54388 0.0
C1231 C 0.43927 0.59531 0.53268 0.0
C1232 C 0.45103 0.58819 0.54327 0.0
C1233 C 0.43559 0.56836 0.5334 0.0
N1234 N 0.42956 0.5828 0.52646 0.0
O1235 O 0.46478 0.54069 0.542 0.0
H1236 H 0.46028 0.59511 0.55062 0.0
H1237 H 0.43054 0.55594 0.5307 0.0
O1238 O 0.48028 0.56898 0.5548 0.0
C1239 C 0.45257 0.53021 0.54268 0.0
O1240 O 0.43928 0.53439 0.5518 0.0
N1241 N 0.45312 0.57119 0.57621 0.0
C1242 C 0.43807 0.59656 0.59446 0.0
C1243 C 0.45576 0.59511 0.59411 0.0
C1244 C 0.46314 0.58209 0.58493 0.0
C1245 C 0.43594 0.57122 0.57813 0.0
C1246 C 0.42801 0.58409 0.58713 0.0
H1247 H 0.47671 0.5812 0.58425 0.0
H1248 H 0.42834 0.56199 0.57145 0.0
H1249 H 0.49265 0.53664 0.55934 0.0
H1250 H 0.48091 0.52274 0.60932 0.0
H1251 H 0.4379 0.60867 0.52999 0.0
H1252 H 0.46375 0.60436 0.60037 0.0
H1253 H 0.41432 0.58476 0.58765 0.0
C1254 C 0.78653 0.21599 0.89959 0.0
C1255 C 0.77612 0.22938 0.8955 0.0
N1256 N 0.77524 0.23979 0.90898 0.0
N1257 N 0.79229 0.21801 0.91556 0.0
C1258 C 0.78514 0.23263 0.92088 0.0
H1259 H 0.78964 0.20551 0.89135 0.0
Co1260 Co 0.80742 0.2048 0.92818 0.0
C1261 C 0.83203 0.22998 0.94265 0.0
O1262 O 0.84558 0.22048 0.94096 0.0
N1263 N 0.82312 0.19188 0.94109 0.0
C1264 C 0.84515 0.17667 0.95052 0.0
C1265 C 0.83654 0.18214 0.93639 0.0
C1266 C 0.82414 0.19222 0.95811 0.0
N1267 N 0.83739 0.18331 0.96406 0.0
O1268 O 0.79208 0.20608 0.94655 0.0
H1269 H 0.8404 0.1794 0.92359 0.0
H1270 H 0.81535 0.19898 0.96617 0.0
O1271 O 0.81791 0.22524 0.93641 0.0
C1272 C 0.78313 0.19285 0.94801 0.0
O1273 O 0.78914 0.17864 0.94175 0.0
N1274 N 0.82064 0.20229 0.90968 0.0
C1275 C 0.84035 0.18914 0.88442 0.0
C1276 C 0.84357 0.20551 0.89062 0.0
C1277 C 0.83331 0.21204 0.90339 0.0
C1278 C 0.81636 0.18716 0.90251 0.0
C1279 C 0.82623 0.18019 0.88982 0.0
H1280 H 0.83594 0.22439 0.9086 0.0
H1281 H 0.80591 0.17996 0.90767 0.0
H1282 H 0.78757 0.23823 0.93309 0.0
H1283 H 0.7697 0.23131 0.88355 0.0
H1284 H 0.85625 0.16862 0.95085 0.0
H1285 H 0.85434 0.21274 0.88617 0.0
H1286 H 0.8235 0.1676 0.88506 0.0
C1287 C 0.96523 0.69997 0.15162 0.0
C1288 C 0.97863 0.70825 0.14422 0.0
N1289 N 0.99122 0.70951 0.15569 0.0
N1290 N 0.96931 0.69597 0.16772 0.0
C1291 C 0.98505 0.7022 0.1699 0.0
H1292 H 0.95344 0.69667 0.14549 0.0
Co1293 Co 0.95739 0.68219 0.18278 0.0
C1294 C 0.98721 0.65784 0.18916 0.0
O1295 O 0.98261 0.64496 0.17973 0.0
N1296 N 0.94592 0.66738 0.19783 0.0
C1297 C 0.93592 0.64316 0.20865 0.0
C1298 C 0.94643 0.65021 0.19682 0.0
C1299 C 0.93486 0.67037 0.21046 0.0
N1300 N 0.92855 0.65591 0.21702 0.0
O1301 O 0.96065 0.69906 0.19988 0.0
H1302 H 0.95334 0.64303 0.18752 0.0
H1303 H 0.93159 0.68283 0.21509 0.0
O1304 O 0.9783 0.67131 0.18986 0.0
C1305 C 0.94832 0.70943 0.1989 0.0
O1306 O 0.93432 0.70404 0.19168 0.0
N1307 N 0.95249 0.66779 0.16543 0.0
C1308 C 0.93932 0.65057 0.13828 0.0
C1309 C 0.95693 0.65222 0.1401 0.0
C1310 C 0.96333 0.66116 0.15381 0.0
C1311 C 0.93537 0.66729 0.16307 0.0
C1312 C 0.92844 0.6583 0.14975 0.0
H1313 H 0.97681 0.66329 0.15482 0.0
H1314 H 0.92704 0.67387 0.17173 0.0
H1315 H 0.99173 0.70139 0.18181 0.0
H1316 H 0.97912 0.7127 0.13128 0.0
H1317 H 0.9337 0.62981 0.21083 0.0
H1318 H 0.96559 0.64632 0.13124 0.0
H1319 H 0.91482 0.65723 0.14851 0.0
C1320 C 0.03403 0.58583 0.96382 0.0
C1321 C 0.02498 0.59248 0.97706 0.0
N1322 N 0.02551 0.5815 0.99018 0.0
N1323 N 0.04081 0.57096 0.96862 0.0
C1324 C 0.03533 0.56857 0.98462 0.0
H1325 H 0.03617 0.59183 0.9517 0.0
Co1326 Co 0.05608 0.55819 0.95619 0.0
C1327 C 0.08011 0.55225 0.98747 0.0
O1328 O 0.09284 0.56289 0.98644 0.0
N1329 N 0.07213 0.54565 0.94405 0.0
C1330 C 0.09715 0.53578 0.9353 0.0
C1331 C 0.08915 0.54745 0.94542 0.0
C1332 C 0.07013 0.53308 0.93277 0.0
N1333 N 0.08509 0.52694 0.92729 0.0
O1334 O 0.04218 0.53884 0.95998 0.0
H1335 H 0.09543 0.55647 0.95357 0.0
H1336 H 0.05801 0.52775 0.92931 0.0
O1337 O 0.06862 0.55228 0.97615 0.0
C1338 C 0.03052 0.53783 0.94894 0.0
O1339 O 0.03191 0.54721 0.93527 0.0
N1340 N 0.068 0.57731 0.95159 0.0
C1341 C 0.08296 0.60666 0.94045 0.0
C1342 C 0.08191 0.60318 0.95787 0.0
C1343 C 0.07418 0.58836 0.96324 0.0
C1344 C 0.06764 0.58118 0.93477 0.0
C1345 C 0.07528 0.5958 0.92884 0.0
H1346 H 0.0729 0.58586 0.97661 0.0
H1347 H 0.06163 0.57263 0.92592 0.0
H1348 H 0.0385 0.55745 0.99195 0.0
H1349 H 0.01917 0.60484 0.97695 0.0
H1350 H 0.11063 0.53345 0.93443 0.0
H1351 H 0.08787 0.6113 0.96719 0.0
H1352 H 0.07596 0.59817 0.91534 0.0
C1353 C 0.70405 0.65589 0.46234 0.0
C1354 C 0.71346 0.64935 0.47541 0.0
N1355 N 0.71387 0.66078 0.48815 0.0
N1356 N 0.69807 0.67121 0.46686 0.0
C1357 C 0.7045 0.67395 0.48245 0.0
H1358 H 0.70105 0.64949 0.4506 0.0
Co1359 Co 0.68228 0.68424 0.45505 0.0
C1360 C 0.65797 0.69153 0.48468 0.0
O1361 O 0.64455 0.68311 0.47968 0.0
N1362 N 0.6658 0.6971 0.44331 0.0
C1363 C 0.64107 0.70597 0.43254 0.0
C1364 C 0.64885 0.69413 0.44264 0.0
C1365 C 0.66791 0.71073 0.43334 0.0
N1366 N 0.65322 0.71613 0.4266 0.0
O1367 O 0.69717 0.70309 0.45722 0.0
H1368 H 0.64242 0.68373 0.44871 0.0
H1369 H 0.67989 0.71696 0.43121 0.0
O1370 O 0.67155 0.69121 0.47592 0.0
C1371 C 0.70764 0.70234 0.44502 0.0
O1372 O 0.70298 0.69388 0.43144 0.0
N1373 N 0.66963 0.66539 0.45179 0.0
C1374 C 0.65411 0.63607 0.44148 0.0
C1375 C 0.65516 0.64004 0.4588 0.0
C1376 C 0.66332 0.65479 0.46377 0.0
C1377 C 0.66988 0.66102 0.43509 0.0
C1378 C 0.66206 0.64636 0.42958 0.0
H1379 H 0.66479 0.65762 0.47708 0.0
H1380 H 0.67611 0.66916 0.42601 0.0
H1381 H 0.70215 0.68536 0.48953 0.0
H1382 H 0.71873 0.63674 0.47558 0.0
H1383 H 0.6277 0.70702 0.42972 0.0
H1384 H 0.64923 0.63215 0.46832 0.0
H1385 H 0.66174 0.64339 0.41619 0.0
C1386 C 0.83887 0.45533 0.7125 0.0
C1387 C 0.84586 0.46405 0.72582 0.0
N1388 N 0.83434 0.46503 0.73844 0.0
N1389 N 0.82314 0.45035 0.71676 0.0
C1390 C 0.82062 0.45669 0.73242 0.0
H1391 H 0.84524 0.45199 0.70085 0.0
Co1392 Co 0.80946 0.43519 0.70508 0.0
C1393 C 0.79999 0.4102 0.73267 0.0
O1394 O 0.80586 0.39669 0.725 0.0
N1395 N 0.79576 0.419 0.69341 0.0
C1396 C 0.78635 0.39455 0.6823 0.0
C1397 C 0.79968 0.40252 0.68997 0.0
C1398 C 0.77979 0.42054 0.68761 0.0
N1399 N 0.77403 0.40598 0.68086 0.0
O1400 O 0.7912 0.45081 0.70739 0.0
H1401 H 0.81133 0.39617 0.6932 0.0
H1402 H 0.77224 0.43193 0.68863 0.0
O1403 O 0.80228 0.42486 0.72623 0.0
C1404 C 0.79201 0.4603 0.69443 0.0
O1405 O 0.80149 0.45509 0.68178 0.0
N1406 N 0.82782 0.42188 0.7015 0.0
C1407 C 0.85058 0.39893 0.68944 0.0
C1408 C 0.84827 0.40074 0.70699 0.0
C1409 C 0.83681 0.41269 0.71289 0.0
C1410 C 0.83208 0.42219 0.68475 0.0
C1411 C 0.84333 0.41041 0.67827 0.0
H1412 H 0.83441 0.41388 0.72631 0.0
H1413 H 0.82536 0.43049 0.67618 0.0
H1414 H 0.80896 0.45486 0.73932 0.0
H1415 H 0.85881 0.46837 0.72622 0.0
H1416 H 0.78557 0.38141 0.67847 0.0
H1417 H 0.8544 0.39226 0.71586 0.0
H1418 H 0.84526 0.40942 0.66472 0.0
C1419 C 0.83906 0.78611 0.5195 0.0
C1420 C 0.84481 0.77851 0.50489 0.0
N1421 N 0.83401 0.78239 0.49225 0.0
N1422 N 0.82471 0.79467 0.51602 0.0
C1423 C 0.82191 0.79201 0.49942 0.0
H1424 H 0.84478 0.78519 0.5319 0.0
Co1425 Co 0.81166 0.80758 0.53047 0.0
C1426 C 0.79825 0.83587 0.50877 0.0
O1427 O 0.80028 0.84754 0.52044 0.0
N1428 N 0.79838 0.82133 0.54522 0.0
C1429 C 0.78943 0.84148 0.56312 0.0
C1430 C 0.80318 0.83479 0.55488 0.0
C1431 C 0.7815 0.82048 0.54765 0.0
N1432 N 0.77589 0.83256 0.5583 0.0
O1433 O 0.79361 0.79203 0.52685 0.0
H1434 H 0.81578 0.83997 0.55583 0.0
H1435 H 0.77336 0.81102 0.54203 0.0
O1436 O 0.80342 0.82079 0.51137 0.0
C1437 C 0.79367 0.78091 0.53848 0.0
O1438 O 0.80311 0.78352 0.55193 0.0
N1439 N 0.83012 0.82044 0.53479 0.0
C1440 C 0.85952 0.83474 0.54652 0.0
C1441 C 0.85332 0.83898 0.53037 0.0
C1442 C 0.83843 0.83151 0.5246 0.0
C1443 C 0.83669 0.81535 0.54993 0.0
C1444 C 0.85125 0.82271 0.5563 0.0
H1445 H 0.83366 0.8345 0.51213 0.0
H1446 H 0.83011 0.8059 0.55734 0.0
H1447 H 0.81079 0.79643 0.49285 0.0
H1448 H 0.85555 0.77006 0.5039 0.0
H1449 H 0.78935 0.85186 0.57209 0.0
H1450 H 0.85963 0.84837 0.52262 0.0
H1451 H 0.85577 0.81935 0.56881 0.0
C1452 C 0.71163 0.58068 0.7837 0.0
C1453 C 0.72253 0.58706 0.7716 0.0
N1454 N 0.71877 0.57959 0.75675 0.0
N1455 N 0.70128 0.56923 0.77636 0.0
C1456 C 0.70607 0.5688 0.75998 0.0
H1457 H 0.71142 0.58392 0.79701 0.0
Co1458 Co 0.68494 0.55567 0.78651 0.0
C1459 C 0.66297 0.55354 0.75451 0.0
O1460 O 0.65159 0.56498 0.75845 0.0
N1461 N 0.6683 0.54158 0.79647 0.0
C1462 C 0.64356 0.52999 0.80384 0.0
C1463 C 0.65145 0.5412 0.79317 0.0
C1464 C 0.67019 0.53065 0.8094 0.0
N1465 N 0.65538 0.52365 0.81422 0.0
O1466 O 0.70016 0.53719 0.78417 0.0
H1467 H 0.64504 0.54904 0.78408 0.0
H1468 H 0.68226 0.52735 0.81491 0.0
O1469 O 0.67514 0.55001 0.76456 0.0
C1470 C 0.70983 0.53863 0.79696 0.0
O1471 O 0.70508 0.54912 0.80901 0.0
N1472 N 0.6713 0.5744 0.79006 0.0
C1473 C 0.64429 0.59559 0.79367 0.0
C1474 C 0.65593 0.59835 0.78051 0.0
C1475 C 0.66925 0.5871 0.7786 0.0
C1476 C 0.66342 0.57534 0.80541 0.0
C1477 C 0.64901 0.58519 0.80718 0.0
H1478 H 0.67668 0.58757 0.76713 0.0
H1479 H 0.66689 0.56683 0.81556 0.0
H1480 H 0.70078 0.56035 0.75058 0.0
H1481 H 0.73247 0.5963 0.77354 0.0
H1482 H 0.63029 0.52656 0.80383 0.0
H1483 H 0.6537 0.60773 0.77076 0.0
H1484 H 0.64108 0.58347 0.81822 0.0
C1485 C 0.90532 0.4536 0.02768 0.0
C1486 C 0.89798 0.46235 0.01452 0.0
N1487 N 0.90854 0.46183 0.00109 0.0
N1488 N 0.92038 0.44748 0.02253 0.0
C1489 C 0.92216 0.45296 0.00646 0.0
H1490 H 0.89984 0.45142 0.04004 0.0
Co1491 Co 0.93477 0.43315 0.03437 0.0
C1492 C 0.94045 0.41091 0.00204 0.0
O1493 O 0.92771 0.40028 0.00198 0.0
N1494 N 0.94914 0.4178 0.04569 0.0
C1495 C 0.95931 0.39292 0.05454 0.0
C1496 C 0.94842 0.40076 0.04353 0.0
C1497 C 0.96053 0.41994 0.05816 0.0
N1498 N 0.96676 0.40504 0.06379 0.0
O1499 O 0.95233 0.44961 0.03174 0.0
H1500 H 0.94027 0.39434 0.03461 0.0
H1501 H 0.96457 0.43216 0.06284 0.0
O1502 O 0.94208 0.42205 0.01364 0.0
C1503 C 0.94953 0.45891 0.04465 0.0
O1504 O 0.93996 0.45245 0.05662 0.0
N1505 N 0.91698 0.41909 0.03895 0.0
C1506 C 0.89355 0.39693 0.05139 0.0
C1507 C 0.89377 0.40073 0.03405 0.0
C1508 C 0.9055 0.41238 0.02806 0.0
C1509 C 0.91506 0.41737 0.05607 0.0
C1510 C 0.90363 0.40589 0.06263 0.0
H1511 H 0.90544 0.41597 0.01488 0.0
H1512 H 0.92323 0.42421 0.06466 0.0
H1513 H 0.93341 0.45066 -0.00097 0.0
H1514 H 0.88568 0.46839 0.01479 0.0
H1515 H 0.96171 0.37946 0.05554 0.0
H1516 H 0.88541 0.3943 0.02527 0.0
H1517 H 0.90327 0.40343 0.07612 0.0
C1518 C 0.95136 0.21521 0.83849 0.0
C1519 C 0.96116 0.22818 0.84497 0.0
N1520 N 0.96281 0.23999 0.83282 0.0
N1521 N 0.94695 0.21904 0.82241 0.0
C1522 C 0.95423 0.23413 0.81937 0.0
H1523 H 0.94777 0.20373 0.84503 0.0
Co1524 Co 0.93342 0.20755 0.80712 0.0
C1525 C 0.91636 0.24311 0.80419 0.0
O1526 O 0.91957 0.25056 0.81872 0.0
N1527 N 0.91897 0.19648 0.79212 0.0
C1528 C 0.89464 0.18788 0.78073 0.0
C1529 C 0.90224 0.19999 0.79053 0.0
C1530 C 0.92112 0.18205 0.78337 0.0
N1531 N 0.90651 0.1765 0.77638 0.0
O1532 O 0.94956 0.21266 0.78962 0.0
H1533 H 0.89579 0.21052 0.79645 0.0
H1534 H 0.93324 0.17591 0.78176 0.0
O1535 O 0.92174 0.22816 0.80139 0.0
C1536 C 0.96138 0.20182 0.78797 0.0
O1537 O 0.95982 0.1873 0.79589 0.0
N1538 N 0.919 0.20134 0.82405 0.0
C1539 C 0.89478 0.18555 0.84323 0.0
C1540 C 0.89471 0.20321 0.84156 0.0
C1541 C 0.90706 0.21097 0.83184 0.0
C1542 C 0.92015 0.18433 0.82689 0.0
C1543 C 0.90792 0.17602 0.8364 0.0
H1544 H 0.90651 0.22442 0.83007 0.0
H1545 H 0.93001 0.17707 0.82072 0.0
H1546 H 0.95344 0.2407 0.80736 0.0
H1547 H 0.96703 0.22866 0.85735 0.0
H1548 H 0.88155 0.18769 0.77667 0.0
H1549 H 0.88483 0.21085 0.8473 0.0
H1550 H 0.90837 0.16239 0.83787 0.0
C1551 C 0.27507 0.71018 0.08829 0.0
C1552 C 0.26094 0.71882 0.09386 0.0
N1553 N 0.24715 0.71118 0.08735 0.0
N1554 N 0.27008 0.69728 0.0783 0.0
C1555 C 0.25305 0.69798 0.07836 0.0
H1556 H 0.28812 0.71375 0.0904 0.0
Co1557 Co 0.28356 0.68389 0.06469 0.0
C1558 C 0.2567 0.65762 0.05388 0.0
O1559 O 0.26277 0.64415 0.06145 0.0
N1560 N 0.29703 0.66946 0.05081 0.0
C1561 C 0.3077 0.64579 0.03933 0.0
C1562 C 0.29895 0.65244 0.05269 0.0
C1563 C 0.30496 0.67271 0.03608 0.0
N1564 N 0.31149 0.6586 0.029 0.0
O1565 O 0.28089 0.70026 0.04712 0.0
H1566 H 0.29363 0.64489 0.06268 0.0
H1567 H 0.3047 0.68483 0.02974 0.0
O1568 O 0.2639 0.67201 0.05546 0.0
C1569 C 0.29318 0.71052 0.04881 0.0
O1570 O 0.30563 0.70608 0.05893 0.0
N1571 N 0.2875 0.67 0.0825 0.0
C1572 C 0.30107 0.6426 0.09812 0.0
C1573 C 0.28338 0.64493 0.09812 0.0
C1574 C 0.27671 0.6592 0.09032 0.0
C1575 C 0.30437 0.67003 0.08615 0.0
C1576 C 0.31165 0.65595 0.0936 0.0
H1577 H 0.26317 0.66063 0.08893 0.0
H1578 H 0.31248 0.67966 0.08077 0.0
H1579 H 0.24501 0.6896 0.07115 0.0
H1580 H 0.26087 0.73059 0.1009 0.0
H1581 H 0.30972 0.6325 0.03662 0.0
H1582 H 0.27491 0.63527 0.10293 0.0
H1583 H 0.32531 0.65486 0.09433 0.0
C1584 C 0.46498 0.70504 0.65294 0.0
C1585 C 0.47791 0.71549 0.64759 0.0
N1586 N 0.49068 0.71405 0.65873 0.0
N1587 N 0.46972 0.69721 0.6674 0.0
C1588 C 0.48547 0.70301 0.67056 0.0
H1589 H 0.45283 0.70349 0.64683 0.0
Co1590 Co 0.45751 0.68207 0.68062 0.0
C1591 C 0.4826 0.65586 0.69131 0.0
O1592 O 0.47231 0.64309 0.68865 0.0
N1593 N 0.44516 0.66612 0.69406 0.0
C1594 C 0.43024 0.64363 0.703 0.0
C1595 C 0.43705 0.65167 0.68919 0.0
C1596 C 0.44327 0.66617 0.71104 0.0
N1597 N 0.43444 0.65269 0.71666 0.0
O1598 O 0.46103 0.69687 0.69941 0.0
H1599 H 0.43632 0.6467 0.67649 0.0
H1600 H 0.44791 0.67609 0.71927 0.0
O1601 O 0.47839 0.67075 0.68673 0.0
C1602 C 0.44931 0.70778 0.70107 0.0
O1603 O 0.43493 0.70494 0.69322 0.0
N1604 N 0.45317 0.6696 0.66178 0.0
C1605 C 0.43971 0.65179 0.63521 0.0
C1606 C 0.45682 0.64969 0.63956 0.0
C1607 C 0.46347 0.65893 0.65303 0.0
C1608 C 0.43704 0.67293 0.65659 0.0
C1609 C 0.42983 0.6638 0.64346 0.0
H1610 H 0.47655 0.65727 0.65664 0.0
H1611 H 0.42943 0.68198 0.66353 0.0
H1612 H 0.49289 0.69951 0.68154 0.0
H1613 H 0.47793 0.72356 0.63652 0.0
H1614 H 0.4227 0.63219 0.70303 0.0
H1615 H 0.46469 0.6405 0.63306 0.0
H1616 H 0.41662 0.66561 0.64022 0.0
C1617 C 0.2719 0.5427 0.14977 0.0
C1618 C 0.25853 0.5335 0.14335 0.0
N1619 N 0.24596 0.53384 0.15485 0.0
N1620 N 0.26758 0.54877 0.16516 0.0
C1621 C 0.25169 0.54331 0.16779 0.0
H1622 H 0.2843 0.54401 0.14409 0.0
Co1623 Co 0.28115 0.55926 0.18111 0.0
C1624 C 0.25099 0.58397 0.1906 0.0
O1625 O 0.25056 0.59628 0.17945 0.0
N1626 N 0.29451 0.57015 0.19707 0.0
C1627 C 0.306 0.58931 0.21394 0.0
C1628 C 0.29304 0.58611 0.20289 0.0
C1629 C 0.30862 0.56411 0.20436 0.0
N1630 N 0.31597 0.57542 0.21496 0.0
O1631 O 0.27578 0.54148 0.19668 0.0
H1632 H 0.28322 0.59495 0.19938 0.0
H1633 H 0.31318 0.55163 0.2016 0.0
O1634 O 0.26218 0.57237 0.18945 0.0
C1635 C 0.28552 0.52954 0.19187 0.0
O1636 O 0.29748 0.53317 0.18086 0.0
N1637 N 0.2879 0.57455 0.16524 0.0
C1638 C 0.30188 0.58776 0.13617 0.0
C1639 C 0.28449 0.58968 0.13948 0.0
C1640 C 0.27764 0.58272 0.1541 0.0
C1641 C 0.30479 0.57259 0.16208 0.0
C1642 C 0.31213 0.57935 0.14771 0.0
H1643 H 0.2641 0.58257 0.15567 0.0
H1644 H 0.3125 0.5648 0.17024 0.0
H1645 H 0.24494 0.54507 0.1796 0.0
H1646 H 0.25858 0.52597 0.13188 0.0
H1647 H 0.30733 0.60086 0.22116 0.0
H1648 H 0.27627 0.5964 0.13078 0.0
H1649 H 0.32558 0.57781 0.14549 0.0
C1650 C 0.94643 0.01856 0.40028 0.0
C1651 C 0.95654 0.00645 0.39291 0.0
N1652 N 0.95834 0.99352 0.40388 0.0
N1653 N 0.94171 0.01327 0.41582 0.0
C1654 C 0.94918 -0.00202 0.41767 0.0
H1655 H 0.94341 0.03081 0.39498 0.0
Co1656 Co 0.93017 0.02631 0.43203 0.0
C1657 C 0.903 -0.00058 0.43943 0.0
O1658 O 0.89051 0.00672 0.43125 0.0
N1659 N 0.91864 0.03964 0.44832 0.0
C1660 C 0.89972 0.05072 0.46601 0.0
C1661 C 0.90329 0.03746 0.45549 0.0
C1662 C 0.92387 0.0547 0.4545 0.0
N1663 N 0.91262 0.06182 0.4653 0.0
O1664 O 0.94789 0.02156 0.44779 0.0
H1665 H 0.89492 0.02704 0.45359 0.0
H1666 H 0.93577 0.06038 0.45105 0.0
O1667 O 0.91773 0.00618 0.43977 0.0
C1668 C 0.95891 0.03251 0.44348 0.0
O1669 O 0.95448 0.04413 0.43241 0.0
N1670 N 0.91471 0.03272 0.41586 0.0
C1671 C 0.89909 0.04705 0.38812 0.0
C1672 C 0.89905 0.0294 0.39029 0.0
C1673 C 0.90727 0.02241 0.40421 0.0
C1674 C 0.91537 0.04982 0.41339 0.0
C1675 C 0.9073 0.05732 0.39979 0.0
H1676 H 0.90845 0.0088 0.40516 0.0
H1677 H 0.92297 0.05775 0.42148 0.0
H1678 H 0.94897 0.99089 0.42939 0.0
H1679 H 0.96281 0.00748 0.38076 0.0
H1680 H 0.88884 0.05132 0.47426 0.0
H1681 H 0.89274 0.02114 0.38133 0.0
H1682 H 0.9077 0.07095 0.39824 0.0
C1683 C 0.08463 0.96574 0.53409 0.0
C1684 C 0.09118 0.97922 0.52521 0.0
N1685 N 0.08159 0.99295 0.52853 0.0
N1686 N 0.07097 0.97101 0.54287 0.0
C1687 C 0.06938 0.98757 0.53916 0.0
H1688 H 0.08929 0.95286 0.53396 0.0
Co1689 Co 0.05748 0.95792 0.55676 0.0
C1690 C 0.04847 0.98652 0.5818 0.0
O1691 O 0.05776 0.98187 0.59475 0.0
N1692 N 0.04398 0.94476 0.57141 0.0
C1693 C 0.03337 0.93288 0.5948 0.0
C1694 C 0.04482 0.94435 0.58857 0.0
C1695 C 0.03215 0.93314 0.56758 0.0
N1696 N 0.0257 0.92568 0.5815 0.0
O1697 O 0.0399 0.95963 0.54024 0.0
H1698 H 0.05345 0.95162 0.59622 0.0
H1699 H 0.02775 0.93055 0.55488 0.0
O1700 O 0.0485 0.97803 0.56804 0.0
C1701 C 0.04355 0.94758 0.53012 0.0
O1702 O 0.05481 0.93644 0.53525 0.0
N1703 N 0.07551 0.95459 0.57063 0.0
C1704 C 0.10401 0.94339 0.5871 0.0
C1705 C 0.10043 0.96082 0.58623 0.0
C1706 C 0.08612 0.96625 0.57751 0.0
C1707 C 0.0797 0.93783 0.57015 0.0
C1708 C 0.09385 0.93189 0.57848 0.0
H1709 H 0.08367 0.97964 0.57607 0.0
H1710 H 0.07184 0.92896 0.5633 0.0
H1711 H 0.05927 -0.00448 0.54388 0.0
H1712 H 0.10164 0.97874 0.51636 0.0
H1713 H 0.03062 0.93026 0.60797 0.0
H1714 H 0.10833 0.97004 0.59261 0.0
H1715 H 0.09658 0.91844 0.57857 0.0
C1716 C 0.58761 0.77907 0.70193 0.0
C1717 C 0.59428 0.76589 0.71123 0.0
N1718 N 0.58245 0.75359 0.71243 0.0
N1719 N 0.57178 0.77493 0.69706 0.0
C1720 C 0.56895 0.75962 0.70393 0.0
H1721 H 0.59426 0.79039 0.69807 0.0
Co1722 Co 0.55726 0.78451 0.68127 0.0
C1723 C 0.55486 0.74853 0.66275 0.0
O1724 O 0.56891 0.74157 0.6572 0.0
N1725 N 0.54301 0.79344 0.66476 0.0
C1726 C 0.53105 0.79895 0.63981 0.0
C1727 C 0.54261 0.789 0.6482 0.0
C1728 C 0.53203 0.80636 0.66601 0.0
N1729 N 0.52468 0.81001 0.65105 0.0
O1730 O 0.53861 0.77913 0.69592 0.0
H1731 H 0.55016 0.77908 0.64253 0.0
H1732 H 0.52883 0.81253 0.67782 0.0
O1733 O 0.55566 0.76285 0.67014 0.0
C1734 C 0.53845 0.79159 0.7062 0.0
O1735 O 0.54824 0.80459 0.70267 0.0
N1736 N 0.5753 0.79154 0.66867 0.0
C1737 C 0.60233 0.80726 0.6533 0.0
C1738 C 0.60112 0.7895 0.65336 0.0
C1739 C 0.58738 0.7818 0.66122 0.0
C1740 C 0.5766 0.80876 0.66913 0.0
C1741 C 0.58998 0.81696 0.66128 0.0
H1742 H 0.58667 0.76818 0.6617 0.0
H1743 H 0.5671 0.81615 0.67566 0.0
H1744 H 0.55722 0.75281 0.7022 0.0
H1745 H 0.60714 0.7652 0.71582 0.0
H1746 H 0.52711 0.79773 0.62674 0.0
H1747 H 0.61052 0.78172 0.64707 0.0
H1748 H 0.5906 0.83067 0.66129 0.0
C1749 C 0.72019 0.34845 0.94685 0.0
C1750 C 0.73382 0.35486 0.95566 0.0
N1751 N 0.74463 0.34203 0.95896 0.0
N1752 N 0.72254 0.33174 0.94438 0.0
C1753 C 0.73748 0.32824 0.95184 0.0
H1754 H 0.70928 0.35552 0.94255 0.0
Co1755 Co 0.70857 0.31614 0.93378 0.0
C1756 C 0.73951 0.30382 0.91094 0.0
O1757 O 0.74099 0.31403 0.89792 0.0
N1758 N 0.69504 0.30064 0.92257 0.0
C1759 C 0.68545 0.28347 0.90252 0.0
C1760 C 0.69651 0.29631 0.90607 0.0
C1761 C 0.6824 0.29102 0.92848 0.0
N1762 N 0.67692 0.27982 0.91679 0.0
O1763 O 0.71275 0.30063 0.95171 0.0
H1764 H 0.70569 0.30154 0.89736 0.0
H1765 H 0.67838 0.29106 0.94158 0.0
O1766 O 0.72782 0.30629 0.92184 0.0
C1767 C 0.70307 0.30414 0.96405 0.0
O1768 O 0.69128 0.31568 0.96185 0.0
N1769 N 0.70291 0.33156 0.91756 0.0
C1770 C 0.68778 0.34687 0.89044 0.0
C1771 C 0.70553 0.3462 0.89155 0.0
C1772 C 0.71295 0.3387 0.90562 0.0
C1773 C 0.68588 0.33451 0.91787 0.0
C1774 C 0.67791 0.34196 0.90415 0.0
H1775 H 0.72651 0.33842 0.9069 0.0
H1776 H 0.67831 0.32966 0.9282 0.0
H1777 H 0.7427 0.3156 0.95254 0.0
H1778 H 0.73555 0.36797 0.95919 0.0
H1779 H 0.68519 0.27605 0.89098 0.0
H1780 H 0.71347 0.35119 0.88153 0.0
H1781 H 0.66424 0.34317 0.90393 0.0
C1782 C 0.71708 0.40192 0.78791 0.0
C1783 C 0.72998 0.39595 0.77777 0.0
N1784 N 0.74294 0.40711 0.77831 0.0
N1785 N 0.72172 0.41694 0.79451 0.0
C1786 C 0.7375 0.41963 0.78864 0.0
H1787 H 0.70482 0.39609 0.78971 0.0
Co1788 Co 0.70966 0.43185 0.80819 0.0
C1789 C 0.74309 0.43701 0.83043 0.0
O1790 O 0.7486 0.42324 0.83795 0.0
N1791 N 0.69816 0.44669 0.82281 0.0
C1792 C 0.68821 0.45733 0.84703 0.0
C1793 C 0.69989 0.44661 0.83988 0.0
C1794 C 0.68538 0.45759 0.81994 0.0
N1795 N 0.67903 0.4641 0.83443 0.0
O1796 O 0.71489 0.44948 0.79246 0.0
H1797 H 0.70876 0.4388 0.84678 0.0
H1798 H 0.68085 0.46097 0.80749 0.0
O1799 O 0.72984 0.43628 0.82125 0.0
C1800 C 0.70281 0.44843 0.7818 0.0
O1801 O 0.68933 0.43975 0.78624 0.0
N1802 N 0.70265 0.41429 0.82127 0.0
C1803 C 0.68694 0.38706 0.83611 0.0
C1804 C 0.70466 0.38861 0.83669 0.0
C1805 C 0.71237 0.40243 0.82903 0.0
C1806 C 0.6855 0.41253 0.82004 0.0
C1807 C 0.67728 0.39912 0.82773 0.0
H1808 H 0.72598 0.40334 0.8288 0.0
H1809 H 0.67814 0.42166 0.813 0.0
H1810 H 0.74474 0.43083 0.79173 0.0
H1811 H 0.72927 0.38477 0.7699 0.0
H1812 H 0.68655 0.45985 0.86041 0.0
H1813 H 0.71239 0.37941 0.84333 0.0
H1814 H 0.6636 0.39824 0.82728 0.0
C1815 C 0.01966 0.84068 0.28974 0.0
C1816 C 0.00616 0.84673 0.28042 0.0
N1817 N 0.99387 0.83488 0.28053 0.0
N1818 N 0.0158 0.82512 0.29557 0.0
C1819 C 9e-05 0.82201 0.28981 0.0
H1820 H 0.03176 0.84685 0.29148 0.0
Co1821 Co 0.02907 0.80963 0.30715 0.0
C1822 C 0.00102 0.80143 0.33348 0.0
O1823 O 0.00681 0.80928 0.34692 0.0
N1824 N 0.04223 0.79394 0.31927 0.0
C1825 C 0.05588 0.78188 0.34077 0.0
C1826 C 0.043 0.79256 0.33633 0.0
C1827 C 0.05474 0.78379 0.31365 0.0
N1828 N 0.06337 0.77647 0.32649 0.0
O1829 O 0.02447 0.79343 0.28984 0.0
H1830 H 0.03551 0.79968 0.34519 0.0
H1831 H 0.0573 0.7816 0.30039 0.0
O1832 O 0.00912 0.80162 0.31947 0.0
C1833 C 0.03495 0.7971 0.27819 0.0
O1834 O 0.04702 0.80803 0.28165 0.0
N1835 N 0.03501 0.82598 0.32242 0.0
C1836 C 0.04829 0.84438 0.34849 0.0
C1837 C 0.03081 0.84477 0.3454 0.0
C1838 C 0.02436 0.83567 0.33182 0.0
C1839 C 0.05215 0.828 0.32348 0.0
C1840 C 0.05919 0.83685 0.33688 0.0
H1841 H 0.01088 0.83555 0.32943 0.0
H1842 H 0.06038 0.82138 0.31474 0.0
H1843 H 0.99365 0.8101 0.29173 0.0
H1844 H 0.00594 0.85838 0.27322 0.0
H1845 H 0.05947 0.77838 0.35352 0.0
H1846 H 0.02225 0.85144 0.35382 0.0
H1847 H 0.07279 0.83702 0.33866 0.0
C1848 C 0.33684 0.29213 0.52448 0.0
C1849 C 0.34384 0.28185 0.51227 0.0
N1850 N 0.33247 0.28008 0.49971 0.0
N1851 N 0.32107 0.29668 0.51967 0.0
C1852 C 0.31886 0.28924 0.50442 0.0
H1853 H 0.34268 0.29564 0.53637 0.0
Co1854 Co 0.30556 0.30988 0.53167 0.0
C1855 C 0.29948 0.32926 0.49714 0.0
O1856 O 0.31418 0.33223 0.48997 0.0
N1857 N 0.2903 0.32397 0.54316 0.0
C1858 C 0.27906 0.34813 0.55255 0.0
C1859 C 0.2892 0.34087 0.54045 0.0
C1860 C 0.28075 0.32131 0.55701 0.0
N1861 N 0.27403 0.33582 0.5631 0.0
O1862 O 0.28888 0.29269 0.52771 0.0
H1863 H 0.29576 0.34765 0.53053 0.0
H1864 H 0.2784 0.30898 0.56241 0.0
O1865 O 0.29877 0.32145 0.51123 0.0
C1866 C 0.29092 0.28206 0.5397 0.0
O1867 O 0.29885 0.28732 0.55335 0.0
N1868 N 0.32247 0.3246 0.53744 0.0
C1869 C 0.35131 0.33827 0.55138 0.0
C1870 C 0.34867 0.33888 0.5338 0.0
C1871 C 0.33406 0.33184 0.52701 0.0
C1872 C 0.32489 0.32407 0.55456 0.0
C1873 C 0.33913 0.33118 0.56188 0.0
H1874 H 0.33279 0.33101 0.51351 0.0
H1875 H 0.31606 0.31736 0.56256 0.0
H1876 H 0.30725 0.29004 0.49717 0.0
H1877 H 0.35616 0.27585 0.51272 0.0
H1878 H 0.27541 0.36132 0.55337 0.0
H1879 H 0.35794 0.34454 0.52542 0.0
H1880 H 0.34084 0.33073 0.57549 0.0
C1881 C 0.20096 0.58886 0.27745 0.0
C1882 C 0.21063 0.59597 0.26474 0.0
N1883 N 0.21131 0.58484 0.25186 0.0
N1884 N 0.19563 0.57341 0.27241 0.0
C1885 C 0.20233 0.57128 0.25686 0.0
H1886 H 0.1981 0.59449 0.28962 0.0
Co1887 Co 0.18216 0.55788 0.28379 0.0
C1888 C 0.15896 0.55152 0.25231 0.0
O1889 O 0.14576 0.56116 0.2553 0.0
N1890 N 0.16794 0.54224 0.29479 0.0
C1891 C 0.14417 0.53009 0.30404 0.0
C1892 C 0.15088 0.54163 0.29298 0.0
C1893 C 0.17124 0.53092 0.30709 0.0
N1894 N 0.15702 0.52343 0.31291 0.0
O1895 O 0.19917 0.54112 0.27997 0.0
H1896 H 0.14356 0.54961 0.28469 0.0
H1897 H 0.18383 0.52798 0.31158 0.0
O1898 O 0.17135 0.55112 0.26272 0.0
C1899 C 0.2094 0.54286 0.29228 0.0
O1900 O 0.20474 0.55278 0.30485 0.0
N1901 N 0.16714 0.57464 0.28922 0.0
C1902 C 0.14117 0.59359 0.30195 0.0
C1903 C 0.14514 0.59448 0.28465 0.0
C1904 C 0.15869 0.58508 0.27851 0.0
C1905 C 0.16518 0.57596 0.30635 0.0
C1906 C 0.15185 0.58516 0.31308 0.0
H1907 H 0.16196 0.58557 0.26524 0.0
H1908 H 0.17314 0.56861 0.31473 0.0
H1909 H 0.2009 0.55986 0.24939 0.0
H1910 H 0.21709 0.60805 0.26511 0.0
H1911 H 0.13092 0.52692 0.30549 0.0
H1912 H 0.13744 0.60181 0.27598 0.0
H1913 H 0.14937 0.5849 0.32657 0.0
C1914 C 0.20725 0.15771 0.46237 0.0
C1915 C 0.21701 0.15181 0.47562 0.0
N1916 N 0.21217 0.15996 0.48982 0.0
N1917 N 0.19637 0.16945 0.46832 0.0
C1918 C 0.1995 0.1703 0.48505 0.0
H1919 H 0.20849 0.15424 0.44918 0.0
Co1920 Co 0.1819 0.18323 0.45601 0.0
C1921 C 0.15834 0.19009 0.48726 0.0
O1922 O 0.14555 0.17957 0.48581 0.0
N1923 N 0.16665 0.19694 0.44399 0.0
C1924 C 0.14241 0.20769 0.43422 0.0
C1925 C 0.1496 0.19704 0.44593 0.0
C1926 C 0.16943 0.20734 0.43084 0.0
N1927 N 0.15495 0.21385 0.42458 0.0
O1928 O 0.19762 0.2015 0.45915 0.0
H1929 H 0.1427 0.18966 0.4551 0.0
H1930 H 0.18187 0.21069 0.42623 0.0
O1931 O 0.17014 0.19018 0.47625 0.0
C1932 C 0.20772 0.19923 0.44677 0.0
O1933 O 0.2031 0.18831 0.43506 0.0
N1934 N 0.16866 0.16506 0.45126 0.0
C1935 C 0.15101 0.13832 0.43788 0.0
C1936 C 0.15228 0.14025 0.45553 0.0
C1937 C 0.1615 0.15378 0.46207 0.0
C1938 C 0.16874 0.16235 0.43418 0.0
C1939 C 0.15963 0.14921 0.42714 0.0
H1940 H 0.16301 0.15515 0.47559 0.0
H1941 H 0.17563 0.17079 0.42591 0.0
H1942 H 0.19298 0.17875 0.49359 0.0
H1943 H 0.22751 0.14304 0.4747 0.0
H1944 H 0.12915 0.21101 0.43313 0.0
H1945 H 0.14578 0.13171 0.46407 0.0
H1946 H 0.15894 0.14782 0.4135 0.0
C1947 C 0.33554 0.45832 0.21421 0.0
C1948 C 0.34096 0.46841 0.22743 0.0
N1949 N 0.32891 0.46821 0.23946 0.0
N1950 N 0.3203 0.45162 0.21816 0.0
C1951 C 0.31653 0.45812 0.23353 0.0
H1952 H 0.34252 0.45555 0.20275 0.0
Co1953 Co 0.30767 0.43518 0.20678 0.0
C1954 C 0.30357 0.41547 0.24164 0.0
O1955 O 0.31797 0.40984 0.24772 0.0
N1956 N 0.29506 0.41789 0.19622 0.0
C1957 C 0.28523 0.39192 0.1909 0.0
C1958 C 0.29691 0.4012 0.19981 0.0
C1959 C 0.28242 0.41833 0.18479 0.0
N1960 N 0.27636 0.40274 0.18132 0.0
O1961 O 0.28806 0.44904 0.2098 0.0
H1962 H 0.30581 0.39612 0.20888 0.0
H1963 H 0.27685 0.42986 0.17994 0.0
O1964 O 0.30333 0.42361 0.22773 0.0
C1965 C 0.2884 0.45827 0.19657 0.0
O1966 O 0.29892 0.4539 0.18441 0.0
N1967 N 0.32699 0.42335 0.20197 0.0
C1968 C 0.35383 0.40509 0.1895 0.0
C1969 C 0.35239 0.40802 0.20697 0.0
C1970 C 0.33876 0.4174 0.21302 0.0
C1971 C 0.32926 0.42203 0.18489 0.0
C1972 C 0.34246 0.41254 0.17832 0.0
H1973 H 0.33764 0.41991 0.22637 0.0
H1974 H 0.32023 0.42773 0.17632 0.0
H1975 H 0.30515 0.45506 0.24054 0.0
H1976 H 0.35282 0.47523 0.22825 0.0
H1977 H 0.28275 0.37849 0.19208 0.0
H1978 H 0.36118 0.40236 0.21585 0.0
H1979 H 0.34336 0.41042 0.16479 0.0
C1980 C 0.08771 0.77133 0.201 0.0
C1981 C 0.09487 0.75847 0.21037 0.0
N1982 N 0.08492 0.74472 0.20891 0.0
N1983 N 0.07321 0.76568 0.19394 0.0
C1984 C 0.07184 0.74946 0.19908 0.0
H1985 H 0.09239 0.78415 0.19991 0.0
Co1986 Co 0.05753 0.7781 0.18157 0.0
C1987 C 0.04993 0.75143 0.15459 0.0
O1988 O 0.05476 0.7607 0.14165 0.0
N1989 N 0.04145 0.79087 0.16903 0.0
C1990 C 0.02 0.79898 0.1527 0.0
C1991 C 0.0296 0.78558 0.15791 0.0
C1992 C 0.03822 0.80762 0.17071 0.0
N1993 N 0.02527 0.81295 0.16089 0.0
O1994 O 0.041 0.77386 0.19854 0.0
H1995 H 0.02645 0.77271 0.15509 0.0
H1996 H 0.04421 0.81556 0.18011 0.0
O1997 O 0.05088 0.7574 0.16962 0.0
C1998 C 0.04348 0.78627 0.20853 0.0
O1999 O 0.0555 0.79714 0.20477 0.0
N2000 N 0.07422 0.78403 0.16665 0.0
C2001 C 0.10019 0.79814 0.14834 0.0
C2002 C 0.09759 0.78056 0.14797 0.0
C2003 C 0.08459 0.77362 0.15761 0.0
C2004 C 0.07776 0.80087 0.16819 0.0
C2005 C 0.0904 0.80835 0.15872 0.0
H2006 H 0.08307 0.76004 0.15811 0.0
H2007 H 0.07111 0.80853 0.17727 0.0
H2008 H 0.06089 0.7416 0.19666 0.0
H2009 H 0.10611 0.7593 0.21818 0.0
H2010 H 0.00847 0.79792 0.14537 0.0
H2011 H 0.10548 0.77238 0.14026 0.0
H2012 H 0.09264 0.82186 0.15963 0.0
C2013 C 0.52567 0.33083 0.27999 0.0
C2014 C 0.51187 0.33695 0.27124 0.0
N2015 N 0.49769 0.33151 0.27905 0.0
N2016 N 0.52015 0.3216 0.29321 0.0
C2017 C 0.50312 0.32247 0.29243 0.0
H2018 H 0.53883 0.33236 0.27656 0.0
Co2019 Co 0.5331 0.30865 0.30777 0.0
C2020 C 0.50211 0.30218 0.33247 0.0
O2021 O 0.50214 0.31343 0.34473 0.0
N2022 N 0.54569 0.29575 0.32319 0.0
C2023 C 0.55447 0.28516 0.34788 0.0
C2024 C 0.54427 0.29697 0.34027 0.0
C2025 C 0.55716 0.28341 0.3208 0.0
N2026 N 0.56269 0.27687 0.33556 0.0
O2027 O 0.5289 0.28967 0.29346 0.0
H2028 H 0.5359 0.30559 0.34684 0.0
H2029 H 0.56058 0.27836 0.30853 0.0
O2030 O 0.51361 0.30256 0.32114 0.0
C2031 C 0.54044 0.28951 0.28221 0.0
O2032 O 0.55372 0.29927 0.2845 0.0
N2033 N 0.53841 0.32747 0.31983 0.0
C2034 C 0.55157 0.3526 0.33964 0.0
C2035 C 0.53397 0.35091 0.33804 0.0
C2036 C 0.52753 0.33816 0.32777 0.0
C2037 C 0.55543 0.33038 0.31964 0.0
C2038 C 0.56242 0.34274 0.32992 0.0
H2039 H 0.51402 0.33656 0.32653 0.0
H2040 H 0.56368 0.32224 0.31232 0.0
H2041 H 0.49478 0.31631 0.30128 0.0
H2042 H 0.51224 0.34401 0.2595 0.0
H2043 H 0.5551 0.28222 0.36126 0.0
H2044 H 0.5254 0.3587 0.34541 0.0
H2045 H 0.57605 0.34398 0.33094 0.0
C2046 C 0.45331 0.21503 0.34051 0.0
C2047 C 0.46291 0.22847 0.34632 0.0
N2048 N 0.463 0.24049 0.33423 0.0
N2049 N 0.44737 0.21876 0.32493 0.0
C2050 C 0.45363 0.23426 0.32146 0.0
H2051 H 0.45063 0.20344 0.34729 0.0
Co2052 Co 0.43257 0.20729 0.31067 0.0
C2053 C 0.41119 0.24145 0.30707 0.0
O2054 O 0.40474 0.24741 0.3212 0.0
N2055 N 0.41682 0.19662 0.29631 0.0
C2056 C 0.39191 0.19039 0.2845 0.0
C2057 C 0.39989 0.19942 0.29701 0.0
C2058 C 0.41871 0.18554 0.28348 0.0
N2059 N 0.40377 0.18152 0.27621 0.0
O2060 O 0.44722 0.21256 0.29213 0.0
H2061 H 0.39371 0.20798 0.30574 0.0
H2062 H 0.43083 0.18134 0.27869 0.0
O2063 O 0.41991 0.22788 0.30731 0.0
C2064 C 0.45764 0.20027 0.29129 0.0
O2065 O 0.4549 0.187 0.30096 0.0
N2066 N 0.41976 0.20055 0.32874 0.0
C2067 C 0.39432 0.18703 0.34787 0.0
C2068 C 0.39793 0.20438 0.34892 0.0
C2069 C 0.41102 0.21096 0.33926 0.0
C2070 C 0.41819 0.18337 0.32974 0.0
C2071 C 0.40514 0.17622 0.33909 0.0
H2072 H 0.41359 0.22433 0.33955 0.0
H2073 H 0.42596 0.17533 0.3218 0.0
H2074 H 0.45115 0.24103 0.3098 0.0
H2075 H 0.46952 0.22923 0.3583 0.0
H2076 H 0.37867 0.19111 0.28103 0.0
H2077 H 0.39006 0.21285 0.35634 0.0
H2078 H 0.40281 0.16272 0.33851 0.0
C2079 C 0.96474 0.20041 0.65294 0.0
C2080 C 0.97725 0.21007 0.6456 0.0
N2081 N 0.98963 0.21256 0.65712 0.0
N2082 N 0.9693 0.19657 0.66895 0.0
C2083 C 0.9845 0.20411 0.67107 0.0
H2084 H 0.95315 0.19632 0.6469 0.0
Co2085 Co 0.95847 0.1827 0.68473 0.0
C2086 C 0.99141 0.16045 0.68644 0.0
O2087 O 0.9911 0.14982 0.67368 0.0
N2088 N 0.94846 0.16779 0.70041 0.0
C2089 C 0.94034 0.14301 0.71138 0.0
C2090 C 0.95117 0.15082 0.7003 0.0
C2091 C 0.93584 0.16991 0.71166 0.0
N2092 N 0.93061 0.15506 0.71832 0.0
O2093 O 0.96401 0.19885 0.70197 0.0
H2094 H 0.95996 0.14434 0.69205 0.0
H2095 H 0.93044 0.18204 0.71497 0.0
O2096 O 0.9794 0.17091 0.68896 0.0
C2097 C 0.9519 0.2095 0.70257 0.0
O2098 O 0.93758 0.20529 0.69521 0.0
N2099 N 0.95117 0.1687 0.66775 0.0
C2100 C 0.9353 0.14743 0.64544 0.0
C2101 C 0.95275 0.15031 0.64404 0.0
C2102 C 0.96052 0.16131 0.65534 0.0
C2103 C 0.93391 0.16757 0.66779 0.0
C2104 C 0.92566 0.1565 0.657 0.0
H2105 H 0.97376 0.16421 0.65392 0.0
H2106 H 0.92656 0.17478 0.67683 0.0
H2107 H 0.99159 0.20353 0.68278 0.0
H2108 H 0.97725 0.21458 0.63268 0.0
H2109 H 0.9395 0.12957 0.71393 0.0
H2110 H 0.96031 0.14371 0.63467 0.0
H2111 H 0.9121 0.15466 0.658 0.0
C2112 C 0.53812 0.08916 0.96938 0.0
C2113 C 0.52976 0.09551 0.98327 0.0
N2114 N 0.53271 0.08514 -0.00348 0.0
N2115 N 0.54617 0.0748 0.97383 0.0
C2116 C 0.54267 0.07267 0.99038 0.0
H2117 H 0.53776 0.09423 0.95666 0.0
Co2118 Co 0.55771 0.06034 0.95948 0.0
C2119 C 0.58297 0.05108 0.98908 0.0
O2120 O 0.59405 0.06332 0.99085 0.0
N2121 N 0.56982 0.04596 0.94531 0.0
C2122 C 0.59037 0.03137 0.93315 0.0
C2123 C 0.5866 0.04305 0.94542 0.0
C2124 C 0.56385 0.03662 0.93247 0.0
N2125 N 0.57593 0.02702 0.92502 0.0
O2126 O 0.54126 0.04322 0.96386 0.0
H2127 H 0.59548 0.04864 0.95422 0.0
H2128 H 0.55075 0.03684 0.92911 0.0
O2129 O 0.57138 0.05188 0.9779 0.0
C2130 C 0.52999 0.04725 0.95305 0.0
O2131 O 0.53292 0.06024 0.94307 0.0
N2132 N 0.57167 0.07748 0.95341 0.0
C2133 C 0.58813 0.1039 0.9382 0.0
C2134 C 0.58938 0.10161 0.9558 0.0
C2135 C 0.58069 0.08827 0.96332 0.0
C2136 C 0.5694 0.08052 0.93654 0.0
C2137 C 0.57786 0.0935 0.92854 0.0
H2138 H 0.58068 0.08695 0.9769 0.0
H2139 H 0.56099 0.07266 0.92916 0.0
H2140 H 0.54678 0.06179 -0.00239 0.0
H2141 H 0.52124 0.10624 0.98326 0.0
H2142 H 0.60271 0.02573 0.93138 0.0
H2143 H 0.59722 0.10983 0.9635 0.0
H2144 H 0.57666 0.0952 0.91498 0.0
C2145 C 0.39707 0.29142 0.22119 0.0
C2146 C 0.39096 0.28121 0.23402 0.0
N2147 N 0.40397 0.27758 0.24438 0.0
N2148 N 0.41372 0.29433 0.22381 0.0
C2149 C 0.41751 0.28555 0.23791 0.0
H2150 H 0.3898 0.29645 0.21073 0.0
Co2151 Co 0.42931 0.30733 0.21185 0.0
C2152 C 0.43626 0.33207 0.24155 0.0
O2153 O 0.42973 0.34596 0.23514 0.0
N2154 N 0.44522 0.32049 0.19985 0.0
C2155 C 0.46512 0.33864 0.19189 0.0
C2156 C 0.45466 0.33385 0.20477 0.0
C2157 C 0.45017 0.31763 0.18375 0.0
N2158 N 0.46242 0.32839 0.17852 0.0
O2159 O 0.4461 0.29044 0.21558 0.0
H2160 H 0.4552 0.3393 0.21718 0.0
H2161 H 0.44542 0.30722 0.17627 0.0
O2162 O 0.43605 0.31827 0.23305 0.0
C2163 C 0.44399 0.2799 0.20362 0.0
O2164 O 0.43186 0.28276 0.19259 0.0
N2165 N 0.41276 0.32265 0.20643 0.0
C2166 C 0.39237 0.34706 0.19268 0.0
C2167 C 0.39287 0.34486 0.21029 0.0
C2168 C 0.40293 0.33205 0.21699 0.0
C2169 C 0.41027 0.32307 0.18933 0.0
C2170 C 0.40036 0.33555 0.18206 0.0
H2171 H 0.40322 0.32998 0.23051 0.0
H2172 H 0.41657 0.31404 0.18124 0.0
H2173 H 0.43002 0.28504 0.24344 0.0
H2174 H 0.37812 0.27667 0.23551 0.0
H2175 H 0.47526 0.34774 0.1932 0.0
H2176 H 0.38599 0.35326 0.21869 0.0
H2177 H 0.39949 0.33661 0.1684 0.0
C2178 C 0.53896 0.14953 0.27103 0.0
C2179 C 0.53117 0.14265 0.25701 0.0
N2180 N 0.53364 0.15313 0.24372 0.0
N2181 N 0.54616 0.16432 0.26663 0.0
C2182 C 0.54289 0.16608 0.25 0.0
H2183 H 0.53878 0.14447 0.28376 0.0
Co2184 Co 0.5574 0.17944 0.28048 0.0
C2185 C 0.58418 0.18976 0.25335 0.0
O2186 O 0.59777 0.1818 0.25861 0.0
N2187 N 0.56968 0.19464 0.29426 0.0
C2188 C 0.59204 0.20582 0.30741 0.0
C2189 C 0.58681 0.19445 0.29555 0.0
C2190 C 0.56485 0.20658 0.30547 0.0
N2191 N 0.57825 0.21357 0.31356 0.0
O2192 O 0.54012 0.19593 0.27582 0.0
H2193 H 0.59518 0.186 0.28889 0.0
H2194 H 0.55183 0.21034 0.30747 0.0
O2195 O 0.57015 0.18848 0.26128 0.0
C2196 C 0.52772 0.19399 0.28593 0.0
O2197 O 0.52956 0.18346 0.29866 0.0
N2198 N 0.57241 0.16276 0.2862 0.0
C2199 C 0.59835 0.14478 0.30035 0.0
C2200 C 0.59652 0.14532 0.28266 0.0
C2201 C 0.583 0.15418 0.27573 0.0
C2202 C 0.57232 0.15979 0.30323 0.0
C2203 C 0.58556 0.15105 0.31073 0.0
H2204 H 0.58156 0.15502 0.26215 0.0
H2205 H 0.56284 0.16574 0.31115 0.0
H2206 H 0.54677 0.17702 0.24277 0.0
H2207 H 0.52323 0.13151 0.25709 0.0
H2208 H 0.60498 0.20814 0.31124 0.0
H2209 H 0.60577 0.13947 0.27437 0.0
H2210 H 0.5863 0.15005 0.3244 0.0
C2211 C 0.40261 0.95632 0.02951 0.0
C2212 C 0.39501 0.96644 0.01737 0.0
N2213 N 0.40341 0.96413 0.00273 0.0
N2214 N 0.41588 0.94816 0.02244 0.0
C2215 C 0.4159 0.95315 0.00617 0.0
H2216 H 0.3991 0.95544 0.04273 0.0
Co2217 Co 0.43177 0.93388 0.03222 0.0
C2218 C 0.43397 0.9118 -0.00126 0.0
O2219 O 0.42269 0.89964 -0.00015 0.0
N2220 N 0.44749 0.91878 0.04165 0.0
C2221 C 0.45936 0.89417 0.04891 0.0
C2222 C 0.44842 0.90202 0.03796 0.0
C2223 C 0.45779 0.92067 0.05508 0.0
N2224 N 0.46494 0.9059 0.05984 0.0
O2225 O 0.44903 0.94968 0.02617 0.0
H2226 H 0.44107 0.89562 0.02839 0.0
H2227 H 0.46019 0.93262 0.06128 0.0
O2228 O 0.43568 0.92245 0.01079 0.0
C2229 C 0.45149 0.9608 0.03756 0.0
O2230 O 0.4447 0.9582 0.05252 0.0
N2231 N 0.41492 0.91985 0.03926 0.0
C2232 C 0.39661 0.89371 0.0523 0.0
C2233 C 0.39429 0.89852 0.03537 0.0
C2234 C 0.4035 0.91206 0.02908 0.0
C2235 C 0.41497 0.91723 0.05635 0.0
C2236 C 0.4061 0.90374 0.06321 0.0
H2237 H 0.40208 0.91585 0.01603 0.0
H2238 H 0.42316 0.92468 0.06441 0.0
H2239 H 0.42534 0.9495 -0.00294 0.0
H2240 H 0.38459 0.97515 0.01924 0.0
H2241 H 0.46303 0.88095 0.04884 0.0
H2242 H 0.38621 0.89129 0.02695 0.0
H2243 H 0.4075 0.90056 0.07648 0.0
C2244 C 0.96364 0.03941 0.59025 0.0
C2245 C 0.97626 0.02936 0.59686 0.0
N2246 N 0.98927 0.02898 0.58578 0.0
N2247 N 0.96873 0.04561 0.5752 0.0
C2248 C 0.98438 0.03913 0.57291 0.0
H2249 H 0.95155 0.04211 0.5961 0.0
Co2250 Co 0.95675 0.05998 0.56082 0.0
C2251 C 0.98833 0.08366 0.55431 0.0
O2252 O 0.98698 0.09701 0.56416 0.0
N2253 N 0.9452 0.07522 0.5466 0.0
C2254 C 0.9375 0.0999 0.53511 0.0
C2255 C 0.94631 0.09231 0.54799 0.0
C2256 C 0.93542 0.0728 0.53288 0.0
N2257 N 0.93053 0.08756 0.52581 0.0
O2258 O 0.96131 0.04471 0.54267 0.0
H2259 H 0.95369 0.09895 0.55741 0.0
H2260 H 0.93292 0.06055 0.52729 0.0
O2261 O 0.97697 0.07221 0.55473 0.0
C2262 C 0.94994 0.03344 0.54106 0.0
O2263 O 0.93567 0.03541 0.54938 0.0
N2264 N 0.95104 0.0732 0.57879 0.0
C2265 C 0.93672 0.09249 0.60382 0.0
C2266 C 0.9544 0.09155 0.60235 0.0
C2267 C 0.96144 0.08154 0.58967 0.0
C2268 C 0.93394 0.07283 0.58112 0.0
C2269 C 0.92639 0.08275 0.59344 0.0
H2270 H 0.97501 0.08047 0.58851 0.0
H2271 H 0.92609 0.06526 0.57282 0.0
H2272 H 0.99179 0.04126 0.56169 0.0
H2273 H 0.97581 0.02305 0.60899 0.0
H2274 H 0.93722 0.11326 0.53208 0.0
H2275 H 0.96258 0.09894 0.61053 0.0
H2276 H 0.91272 0.08324 0.5945 0.0
C2277 C 0.7714 0.19748 0.09461 0.0
C2278 C 0.75786 0.20721 0.10008 0.0
N2279 N 0.7456 0.20645 0.08822 0.0
N2280 N 0.76752 0.1906 0.07946 0.0
C2281 C 0.75176 0.19611 0.07614 0.0
H2282 H 0.78375 0.19681 0.10047 0.0
Co2283 Co 0.78182 0.18168 0.06295 0.0
C2284 C 0.74883 0.16202 0.05409 0.0
O2285 O 0.74115 0.16185 0.06887 0.0
N2286 N 0.79594 0.17271 0.04648 0.0
C2287 C 0.80808 0.15454 0.029 0.0
C2288 C 0.79519 0.15684 0.0403 0.0
C2289 C 0.80961 0.17968 0.03909 0.0
N2290 N 0.81727 0.16895 0.02805 0.0
O2291 O 0.77646 0.20035 0.0487 0.0
H2292 H 0.78582 0.14748 0.04376 0.0
H2293 H 0.81366 0.19235 0.04203 0.0
O2294 O 0.76329 0.16908 0.05247 0.0
C2295 C 0.78503 0.21328 0.05292 0.0
O2296 O 0.79608 0.21201 0.06527 0.0
N2297 N 0.78848 0.16447 0.07697 0.0
C2298 C 0.80545 0.13705 0.0903 0.0
C2299 C 0.78783 0.13656 0.08801 0.0
C2300 C 0.77955 0.15044 0.08127 0.0
C2301 C 0.80531 0.1658 0.08066 0.0
C2302 C 0.81419 0.15205 0.08711 0.0
H2303 H 0.76623 0.14959 0.07925 0.0
H2304 H 0.81207 0.17726 0.07742 0.0
H2305 H 0.74546 0.19364 0.06432 0.0
H2306 H 0.7577 0.2154 0.11108 0.0
H2307 H 0.80984 0.14325 0.02144 0.0
H2308 H 0.78042 0.12556 0.09153 0.0
H2309 H 0.82767 0.15307 0.08947 0.0
C2310 C 0.28452 0.53015 0.33979 0.0
C2311 C 0.27372 0.51775 0.34583 0.0
N2312 N 0.27432 0.50464 0.33496 0.0
N2313 N 0.29158 0.5247 0.32518 0.0
C2314 C 0.28508 0.50915 0.32264 0.0
H2315 H 0.28701 0.54231 0.34558 0.0
Co2316 Co 0.3072 0.53483 0.31101 0.0
C2317 C 0.32585 0.49912 0.30559 0.0
O2318 O 0.33267 0.49161 0.31876 0.0
N2319 N 0.3238 0.54433 0.29695 0.0
C2320 C 0.34946 0.54965 0.28642 0.0
C2321 C 0.34055 0.54078 0.29833 0.0
C2322 C 0.32296 0.55555 0.28419 0.0
N2323 N 0.33835 0.55895 0.2776 0.0
O2324 O 0.29231 0.53035 0.29243 0.0
H2325 H 0.34598 0.5318 0.30711 0.0
H2326 H 0.31124 0.56011 0.27878 0.0
O2327 O 0.31843 0.51331 0.30764 0.0
C2328 C 0.28162 0.54231 0.2908 0.0
O2329 O 0.28548 0.55701 0.29759 0.0
N2330 N 0.32036 0.54041 0.32919 0.0
C2331 C 0.34883 0.55116 0.34542 0.0
C2332 C 0.34374 0.5342 0.34681 0.0
C2333 C 0.32912 0.52903 0.33863 0.0
C2334 C 0.32332 0.55737 0.33048 0.0
C2335 C 0.33791 0.56312 0.3384 0.0
H2336 H 0.32566 0.51583 0.33866 0.0
H2337 H 0.31559 0.56618 0.32338 0.0
H2338 H 0.28806 0.50125 0.31182 0.0
H2339 H 0.2661 0.51828 0.35721 0.0
H2340 H 0.36276 0.54821 0.28343 0.0
H2341 H 0.35157 0.52491 0.3532 0.0
H2342 H 0.34128 0.5764 0.33784 0.0
C2343 C 0.29149 0.7173 0.89887 0.0
C2344 C 0.28209 0.73034 0.89206 0.0
N2345 N 0.28264 0.74358 0.90288 0.0
N2346 N 0.29774 0.72231 0.91393 0.0
C2347 C 0.29229 0.7383 0.91591 0.0
H2348 H 0.29296 0.70473 0.89362 0.0
Co2349 Co 0.30956 0.70994 0.92993 0.0
C2350 C 0.33308 0.74025 0.93878 0.0
O2351 O 0.34691 0.73626 0.93044 0.0
N2352 N 0.32172 0.69767 0.94609 0.0
C2353 C 0.33937 0.68912 0.96617 0.0
C2354 C 0.33589 0.70168 0.95478 0.0
C2355 C 0.31742 0.68227 0.9519 0.0
N2356 N 0.32753 0.67696 0.96455 0.0
O2357 O 0.29124 0.71343 0.94543 0.0
H2358 H 0.34302 0.71321 0.9537 0.0
H2359 H 0.30676 0.67522 0.94715 0.0
O2360 O 0.32021 0.7305 0.93819 0.0
C2361 C 0.28046 0.70219 0.94122 0.0
O2362 O 0.28523 0.69043 0.93044 0.0
N2363 N 0.32545 0.70476 0.91406 0.0
C2364 C 0.33854 0.69151 0.88458 0.0
C2365 C 0.33944 0.70901 0.88771 0.0
C2366 C 0.3325 0.7155 0.90258 0.0
C2367 C 0.3245 0.68778 0.91095 0.0
C2368 C 0.33127 0.68082 0.89644 0.0
H2369 H 0.33143 0.72905 0.90412 0.0
H2370 H 0.31718 0.67963 0.91903 0.0
H2371 H 0.29487 0.74576 0.92708 0.0
H2372 H 0.27453 0.72959 0.88067 0.0
H2373 H 0.34889 0.68976 0.97602 0.0
H2374 H 0.34511 0.71755 0.8786 0.0
H2375 H 0.33029 0.66731 0.8942 0.0
C2376 C 0.77179 0.04256 0.151 0.0
C2377 C 0.75875 0.03306 0.1443 0.0
N2378 N 0.74636 0.03233 0.15596 0.0
N2379 N 0.7674 0.04774 0.1667 0.0
C2380 C 0.75193 0.04118 0.16937 0.0
H2381 H 0.78383 0.04517 0.14501 0.0
Co2382 Co 0.77952 0.06022 0.18241 0.0
C2383 C 0.74979 0.08466 0.18922 0.0
O2384 O 0.7545 0.09786 0.18031 0.0
N2385 N 0.79133 0.0734 0.19827 0.0
C2386 C 0.80344 0.09587 0.2103 0.0
C2387 C 0.79127 0.09052 0.19915 0.0
C2388 C 0.80357 0.06867 0.2091 0.0
N2389 N 0.81119 0.08207 0.2165 0.0
O2390 O 0.77574 0.04251 0.1986 0.0
H2391 H 0.78364 0.09876 0.19142 0.0
H2392 H 0.80691 0.05562 0.21155 0.0
O2393 O 0.75892 0.07137 0.18981 0.0
C2394 C 0.78763 0.03226 0.19477 0.0
O2395 O 0.79895 0.03738 0.18369 0.0
N2396 N 0.78536 0.07538 0.16586 0.0
C2397 C 0.80085 0.09027 0.13845 0.0
C2398 C 0.7831 0.0903 0.13979 0.0
C2399 C 0.77547 0.08253 0.15369 0.0
C2400 C 0.80258 0.07494 0.16427 0.0
C2401 C 0.81063 0.08273 0.15089 0.0
H2402 H 0.76186 0.08129 0.15415 0.0
H2403 H 0.81021 0.06794 0.17319 0.0
H2404 H 0.74511 0.04227 0.18122 0.0
H2405 H 0.75876 0.02642 0.1323 0.0
H2406 H 0.80652 0.10887 0.21331 0.0
H2407 H 0.77529 0.09606 0.13008 0.0
H2408 H 0.82432 0.08245 0.15001 0.0
C2409 C 0.45205 0.52548 0.40633 0.0
C2410 C 0.46104 0.51173 0.40056 0.0
N2411 N 0.45968 0.49923 0.41209 0.0
N2412 N 0.44534 0.52182 0.42159 0.0
C2413 C 0.45025 0.50578 0.42478 0.0
H2414 H 0.45042 0.53738 0.39975 0.0
Co2415 Co 0.43082 0.53527 0.43441 0.0
C2416 C 0.40564 0.50676 0.44296 0.0
O2417 O 0.39264 0.51114 0.43357 0.0
N2418 N 0.41531 0.54841 0.44727 0.0
C2419 C 0.3911 0.55996 0.45665 0.0
C2420 C 0.39832 0.54949 0.44472 0.0
C2421 C 0.41798 0.55836 0.46086 0.0
N2422 N 0.40365 0.56569 0.46646 0.0
O2423 O 0.44653 0.53362 0.4527 0.0
H2424 H 0.39144 0.54308 0.43479 0.0
H2425 H 0.43002 0.55984 0.46716 0.0
O2426 O 0.41928 0.51541 0.44276 0.0
C2427 C 0.45677 0.54602 0.45136 0.0
O2428 O 0.45124 0.55979 0.44382 0.0
N2429 N 0.41786 0.53836 0.41572 0.0
C2430 C 0.4054 0.54879 0.38492 0.0
C2431 C 0.40473 0.53158 0.38952 0.0
C2432 C 0.41142 0.52652 0.405 0.0
C2433 C 0.41945 0.55487 0.41098 0.0
C2434 C 0.41318 0.56042 0.39564 0.0
H2435 H 0.41199 0.51321 0.40812 0.0
H2436 H 0.42588 0.56375 0.41919 0.0
H2437 H 0.44672 0.4989 0.43608 0.0
H2438 H 0.4683 0.51121 0.38896 0.0
H2439 H 0.37781 0.56295 0.45815 0.0
H2440 H 0.39869 0.52226 0.38147 0.0
H2441 H 0.41397 0.57372 0.39237 0.0
C2442 C 0.58639 0.46372 0.53467 0.0
C2443 C 0.59144 0.47785 0.52587 0.0
N2444 N 0.57911 0.48958 0.5271 0.0
N2445 N 0.57081 0.46642 0.54113 0.0
C2446 C 0.5667 0.48224 0.53624 0.0
H2447 H 0.59366 0.45223 0.53635 0.0
Co2448 Co 0.55883 0.45264 0.55583 0.0
C2449 C 0.54832 0.48003 0.5817 0.0
O2450 O 0.55558 0.47431 0.59551 0.0
N2451 N 0.54684 0.43912 0.5718 0.0
C2452 C 0.5383 0.42861 0.59677 0.0
C2453 C 0.55099 0.43693 0.5884 0.0
C2454 C 0.53147 0.43189 0.5706 0.0
N2455 N 0.52619 0.42538 0.58546 0.0
O2456 O 0.53979 0.45437 0.54107 0.0
H2457 H 0.56201 0.44206 0.5946 0.0
H2458 H 0.52344 0.43271 0.55954 0.0
O2459 O 0.55024 0.47227 0.56765 0.0
C2460 C 0.53911 0.44228 0.53046 0.0
O2461 O 0.54584 0.42772 0.53489 0.0
N2462 N 0.57784 0.44998 0.56821 0.0
C2463 C 0.60137 0.43901 0.59071 0.0
C2464 C 0.59816 0.45642 0.58914 0.0
C2465 C 0.58623 0.46179 0.57744 0.0
C2466 C 0.5832 0.43358 0.56738 0.0
C2467 C 0.59489 0.42761 0.57897 0.0
H2468 H 0.58288 0.47503 0.5766 0.0
H2469 H 0.57691 0.42478 0.55896 0.0
H2470 H 0.55498 0.48845 0.53968 0.0
H2471 H 0.60315 0.47921 0.5189 0.0
H2472 H 0.53738 0.42646 0.61028 0.0
H2473 H 0.6037 0.46549 0.59783 0.0
H2474 H 0.59756 0.41417 0.57977 0.0
C2475 C 0.2212 0.84431 0.94526 0.0
C2476 C 0.23405 0.85033 0.95553 0.0
N2477 N 0.24597 0.83819 0.95681 0.0
N2478 N 0.22513 0.8285 0.9401 0.0
C2479 C 0.24037 0.8253 0.94711 0.0
H2480 H 0.20917 0.85044 0.94294 0.0
Co2481 Co 0.21115 0.81189 0.9306 0.0
C2482 C 0.23831 0.80141 0.90388 0.0
O2483 O 0.23266 0.80861 0.89001 0.0
N2484 N 0.19747 0.79505 0.92109 0.0
C2485 C 0.18574 0.77605 0.90413 0.0
C2486 C 0.19861 0.78748 0.90582 0.0
C2487 C 0.18343 0.78845 0.92811 0.0
N2488 N 0.17613 0.7765 0.91825 0.0
O2489 O 0.21672 0.7972 0.94875 0.0
H2490 H 0.20811 0.78987 0.89638 0.0
H2491 H 0.17866 0.79269 0.94014 0.0
O2492 O 0.23027 0.80299 0.91786 0.0
C2493 C 0.2069 0.80213 0.96049 0.0
O2494 O 0.19584 0.81413 0.95716 0.0
N2495 N 0.204 0.82648 0.91421 0.0
C2496 C 0.18863 0.83905 0.88592 0.0
C2497 C 0.20621 0.84095 0.88813 0.0
C2498 C 0.2137 0.83484 0.90281 0.0
C2499 C 0.18676 0.82771 0.91377 0.0
C2500 C 0.17869 0.83352 0.89935 0.0
H2501 H 0.22724 0.83578 0.90455 0.0
H2502 H 0.17924 0.82272 0.92405 0.0
H2503 H 0.24656 0.81308 0.94639 0.0
H2504 H 0.23388 0.86199 0.96274 0.0
H2505 H 0.18431 0.76734 0.89364 0.0
H2506 H 0.21405 0.84669 0.87845 0.0
H2507 H 0.165 0.83311 0.89845 0.0
C2508 C 0.64866 0.96692 0.20091 0.0
C2509 C 0.64221 0.98055 0.20974 0.0
N2510 N 0.65285 0.99377 0.20777 0.0
N2511 N 0.6633 0.97155 0.19351 0.0
C2512 C 0.66546 0.98791 0.19783 0.0
H2513 H 0.6436 0.95419 0.20076 0.0
Co2514 Co 0.67907 0.95774 0.18292 0.0
C2515 C 0.69065 0.98578 0.15779 0.0
O2516 O 0.68276 0.98165 0.14376 0.0
N2517 N 0.69504 0.94406 0.17178 0.0
C2518 C 0.70775 0.92993 0.15099 0.0
C2519 C 0.6973 0.9432 0.15482 0.0
C2520 C 0.70463 0.93141 0.17796 0.0
N2521 N 0.71234 0.92244 0.16557 0.0
O2522 O 0.6941 0.96158 0.20161 0.0
H2523 H 0.69105 0.95111 0.14563 0.0
H2524 H 0.70632 0.92917 0.19132 0.0
O2525 O 0.68887 0.977 0.17126 0.0
C2526 C 0.68895 0.95044 0.21204 0.0
O2527 O 0.67836 0.93891 0.20632 0.0
N2528 N 0.66368 0.95255 0.16641 0.0
C2529 C 0.64825 0.94033 0.13794 0.0
C2530 C 0.64791 0.95777 0.1415 0.0
C2531 C 0.65545 0.96366 0.15624 0.0
C2532 C 0.66126 0.93551 0.16475 0.0
C2533 C 0.65397 0.92901 0.15019 0.0
H2534 H 0.6556 0.97706 0.15901 0.0
H2535 H 0.66658 0.92689 0.17397 0.0
H2536 H 0.67662 -0.00487 0.19454 0.0
H2537 H 0.6313 0.98028 0.21802 0.0
H2538 H 0.7118 0.92625 0.13842 0.0
H2539 H 0.64218 0.96671 0.13281 0.0
H2540 H 0.65341 0.91544 0.14822 0.0
C2541 C 0.02458 0.40049 0.94993 0.0
C2542 C 0.01199 0.39325 0.95959 0.0
N2543 N -0.00162 0.40352 0.95909 0.0
N2544 N 0.01882 0.41523 0.94352 0.0
C2545 C 0.00285 0.41668 0.94928 0.0
H2546 H 0.0373 0.3957 0.94822 0.0
Co2547 Co 0.03058 0.43127 0.93123 0.0
C2548 C 0.00118 0.43659 0.90532 0.0
O2549 O 0.00636 0.428 0.89205 0.0
N2550 N 0.04231 0.44735 0.91836 0.0
C2551 C 0.05446 0.45929 0.89589 0.0
C2552 C 0.04215 0.44835 0.90124 0.0
C2553 C 0.05483 0.45791 0.92309 0.0
N2554 N 0.06254 0.46516 0.90964 0.0
O2555 O 0.02458 0.44771 0.94804 0.0
H2556 H 0.03439 0.44082 0.89296 0.0
H2557 H 0.05814 0.46036 0.93614 0.0
O2558 O 0.0101 0.43724 0.91882 0.0
C2559 C 0.03498 0.44579 0.96016 0.0
O2560 O 0.04851 0.4365 0.95734 0.0
N2561 N 0.03756 0.41485 0.91645 0.0
C2562 C 0.05127 0.39508 0.89159 0.0
C2563 C 0.0339 0.39412 0.89507 0.0
C2564 C 0.02726 0.40399 0.90799 0.0
C2565 C 0.05476 0.41379 0.91497 0.0
C2566 C 0.06198 0.40419 0.90217 0.0
H2567 H 0.01386 0.40351 0.91074 0.0
H2568 H 0.06281 0.42144 0.92299 0.0
H2569 H -0.00495 0.42776 0.94738 0.0
H2570 H 0.01299 0.38177 0.96701 0.0
H2571 H 0.05728 0.46265 0.88291 0.0
H2572 H 0.02554 0.38641 0.88739 0.0
H2573 H 0.07552 0.40456 0.90002 0.0
C2574 C 0.64518 0.77147 0.54181 0.0
C2575 C 0.63943 0.75802 0.53216 0.0
N2576 N 0.6504 0.74506 0.534 0.0
N2577 N 0.65959 0.76681 0.54967 0.0
C2578 C 0.66209 0.7506 0.54506 0.0
H2579 H 0.64011 0.78419 0.54183 0.0
Co2580 Co 0.676 0.77986 0.56014 0.0
C2581 C 0.68447 0.74725 0.58234 0.0
O2582 O 0.6707 0.73935 0.58731 0.0
N2583 N 0.69242 0.79259 0.57123 0.0
C2584 C 0.70687 0.80457 0.59218 0.0
C2585 C 0.69484 0.79276 0.58818 0.0
C2586 C 0.7032 0.8043 0.5652 0.0
N2587 N 0.71211 0.81186 0.57771 0.0
O2588 O 0.69162 0.77352 0.54263 0.0
H2589 H 0.68827 0.78476 0.59712 0.0
H2590 H 0.70496 0.8067 0.55185 0.0
O2591 O 0.68323 0.76052 0.57325 0.0
C2592 C 0.68933 0.78342 0.53013 0.0
O2593 O 0.67867 0.79607 0.5319 0.0
N2594 N 0.66063 0.78744 0.57568 0.0
C2595 C 0.64581 0.80534 0.60159 0.0
C2596 C 0.64652 0.78757 0.60217 0.0
C2597 C 0.65394 0.77876 0.58889 0.0
C2598 C 0.65833 0.80449 0.57404 0.0
C2599 C 0.65114 0.81384 0.58709 0.0
H2600 H 0.65485 0.76523 0.58954 0.0
H2601 H 0.66344 0.81099 0.56312 0.0
H2602 H 0.6733 0.74349 0.5484 0.0
H2603 H 0.62917 0.7584 0.52307 0.0
H2604 H 0.71173 0.80721 0.60472 0.0
H2605 H 0.64159 0.78062 0.61291 0.0
H2606 H 0.65025 0.82749 0.5861 0.0
C2607 C 0.21947 0.89851 0.79129 0.0
C2608 C 0.23327 0.89192 0.78303 0.0
N2609 N 0.24566 0.90365 0.78305 0.0
N2610 N 0.22316 0.91429 0.79668 0.0
C2611 C 0.23917 0.91711 0.79143 0.0
H2612 H 0.20741 0.89228 0.79304 0.0
Co2613 Co 0.20864 0.92863 0.80842 0.0
C2614 C 0.23991 0.93877 0.83201 0.0
O2615 O 0.24715 0.92533 0.83859 0.0
N2616 N 0.1943 0.94247 0.82077 0.0
C2617 C 0.18257 0.95626 0.84227 0.0
C2618 C 0.19392 0.94387 0.83782 0.0
C2619 C 0.18248 0.95328 0.81526 0.0
N2620 N 0.1757 0.96246 0.82798 0.0
O2621 O 0.21337 0.94605 0.79233 0.0
H2622 H 0.20229 0.93721 0.84637 0.0
H2623 H 0.18043 0.95609 0.80201 0.0
O2624 O 0.22725 0.93706 0.82213 0.0
C2625 C 0.20377 0.94338 0.77967 0.0
O2626 O 0.19202 0.93167 0.78101 0.0
N2627 N 0.20264 0.91121 0.8222 0.0
C2628 C 0.18892 0.88197 0.83503 0.0
C2629 C 0.20599 0.88597 0.83813 0.0
C2630 C 0.21272 0.9008 0.83145 0.0
C2631 C 0.18609 0.90733 0.81905 0.0
C2632 C 0.17883 0.89287 0.82566 0.0
H2633 H 0.22602 0.90341 0.83283 0.0
H2634 H 0.17859 0.91534 0.81087 0.0
H2635 H 0.24554 0.92914 0.79293 0.0
H2636 H 0.23394 0.87962 0.77702 0.0
H2637 H 0.18132 0.96189 0.85472 0.0
H2638 H 0.21397 0.87769 0.84562 0.0
H2639 H 0.1656 0.89009 0.82329 0.0
C2640 C 0.53284 0.65982 0.77735 0.0
C2641 C 0.52275 0.65268 0.76512 0.0
N2642 N 0.52311 0.66262 0.75122 0.0
N2643 N 0.5397 0.67418 0.77123 0.0
C2644 C 0.53319 0.67582 0.7555 0.0
H2645 H 0.53579 0.65442 0.78959 0.0
Co2646 Co 0.55724 0.68626 0.78153 0.0
C2647 C 0.57783 0.6918 0.74954 0.0
O2648 O 0.58928 0.68006 0.75218 0.0
N2649 N 0.57511 0.69846 0.79192 0.0
C2650 C 0.60061 0.70824 0.79953 0.0
C2651 C 0.59201 0.69742 0.78893 0.0
C2652 C 0.57394 0.70967 0.8047 0.0
N2653 N 0.58915 0.71559 0.80964 0.0
O2654 O 0.54257 0.70542 0.78238 0.0
H2655 H 0.59793 0.68913 0.77988 0.0
H2656 H 0.56214 0.71417 0.80993 0.0
O2657 O 0.5656 0.6941 0.75985 0.0
C2658 C 0.53302 0.7042 0.79528 0.0
O2659 O 0.53791 0.69401 0.8075 0.0
N2660 N 0.57021 0.66679 0.78171 0.0
C2661 C 0.58485 0.63511 0.78663 0.0
C2662 C 0.57626 0.63898 0.77151 0.0
C2663 C 0.56997 0.65518 0.76894 0.0
C2664 C 0.57633 0.66254 0.79722 0.0
C2665 C 0.58453 0.6473 0.79967 0.0
H2666 H 0.56394 0.65804 0.757 0.0
H2667 H 0.57501 0.6711 0.80783 0.0
H2668 H 0.53613 0.6864 0.74738 0.0
H2669 H 0.51625 0.64068 0.76623 0.0
H2670 H 0.61407 0.71082 0.79956 0.0
H2671 H 0.57403 0.62988 0.76162 0.0
H2672 H 0.59073 0.64557 0.81173 0.0
C2673 C 0.40167 0.78931 0.71726 0.0
C2674 C 0.39372 0.78153 0.73061 0.0
N2675 N 0.40441 0.78132 0.74395 0.0
N2676 N 0.41721 0.79425 0.7222 0.0
C2677 C 0.41865 0.78898 0.73835 0.0
H2678 H 0.39632 0.79157 0.70485 0.0
Co2679 Co 0.43265 0.80695 0.70994 0.0
C2680 C 0.43852 0.83286 0.73874 0.0
O2681 O 0.42937 0.84563 0.73334 0.0
N2682 N 0.44811 0.82037 0.6977 0.0
C2683 C 0.45888 0.84314 0.68494 0.0
C2684 C 0.44821 0.83752 0.69739 0.0
C2685 C 0.45893 0.81591 0.6853 0.0
N2686 N 0.46556 0.82951 0.67731 0.0
O2687 O 0.44948 0.79027 0.71473 0.0
H2688 H 0.44009 0.8456 0.70476 0.0
H2689 H 0.46183 0.80295 0.68199 0.0
O2690 O 0.43944 0.81908 0.73032 0.0
C2691 C 0.44766 0.77906 0.70329 0.0
O2692 O 0.43725 0.78231 0.6907 0.0
N2693 N 0.41563 0.82142 0.70374 0.0
C2694 C 0.38968 0.83953 0.68937 0.0
C2695 C 0.39086 0.83817 0.70704 0.0
C2696 C 0.40395 0.82877 0.71406 0.0
C2697 C 0.41371 0.82154 0.68655 0.0
C2698 C 0.40105 0.831 0.67901 0.0
H2699 H 0.40452 0.82701 0.72762 0.0
H2700 H 0.42224 0.81434 0.67861 0.0
H2701 H 0.43019 0.79035 0.74554 0.0
H2702 H 0.38102 0.77641 0.73041 0.0
H2703 H 0.46106 0.8562 0.68144 0.0
H2704 H 0.38195 0.84461 0.71527 0.0
H2705 H 0.40022 0.83177 0.66534 0.0
C2706 C 0.02274 0.90412 0.45553 0.0
C2707 C 0.00892 0.90008 0.4653 0.0
N2708 N -0.0021 0.91303 0.46446 0.0
N2709 N 0.02038 0.91954 0.44852 0.0
C2710 C 0.0051 0.9246 0.4542 0.0
H2711 H 0.03378 0.89623 0.45372 0.0
Co2712 Co 0.03407 0.93129 0.43342 0.0
C2713 C 0.01072 0.94319 0.40601 0.0
O2714 O 0.02208 0.94117 0.39404 0.0
N2715 N 0.04787 0.94315 0.41753 0.0
C2716 C 0.06535 0.95029 0.39637 0.0
C2717 C 0.05823 0.93712 0.40514 0.0
C2718 C 0.04868 0.9601 0.41553 0.0
N2719 N 0.05908 0.96465 0.4028 0.0
O2720 O 0.0321 0.95069 0.44778 0.0
H2721 H 0.06069 0.92403 0.40224 0.0
H2722 H 0.04226 0.96909 0.42365 0.0
O2723 O 0.01395 0.93876 0.42121 0.0
C2724 C 0.04472 0.95272 0.45755 0.0
O2725 O 0.05959 0.94758 0.45211 0.0
N2726 N 0.03694 0.91188 0.42152 0.0
C2727 C 0.04798 0.88328 0.40537 0.0
C2728 C 0.03172 0.88965 0.40206 0.0
C2729 C 0.02629 0.90412 0.41047 0.0
C2730 C 0.05197 0.90473 0.42618 0.0
C2731 C 0.058 0.8905 0.41789 0.0
H2732 H 0.01386 0.90918 0.4079 0.0
H2733 H 0.05976 0.91092 0.43561 0.0
H2734 H -0.00083 0.93638 0.45049 0.0
H2735 H 0.00715 0.88859 0.47255 0.0
H2736 H 0.07482 0.94946 0.38649 0.0
H2737 H 0.02372 0.88398 0.39244 0.0
H2738 H 0.07057 0.88572 0.4206 0.0
C2739 C 0.64843 0.47289 0.69795 0.0
C2740 C 0.64228 0.48668 0.70658 0.0
N2741 N 0.65516 0.49758 0.70923 0.0
N2742 N 0.66502 0.47529 0.69472 0.0
C2743 C 0.66875 0.49035 0.70176 0.0
H2744 H 0.64123 0.46186 0.69422 0.0
Co2745 Co 0.67979 0.46093 0.6834 0.0
C2746 C 0.69018 0.49118 0.65903 0.0
O2747 O 0.67818 0.49435 0.64797 0.0
N2748 N 0.69443 0.44681 0.67148 0.0
C2749 C 0.70578 0.43263 0.65003 0.0
C2750 C 0.69593 0.44621 0.65446 0.0
C2751 C 0.70363 0.43366 0.6771 0.0
N2752 N 0.71065 0.42466 0.66432 0.0
O2753 O 0.69663 0.4652 0.7002 0.0
H2754 H 0.68984 0.45486 0.64576 0.0
H2755 H 0.70558 0.43117 0.69037 0.0
O2756 O 0.68825 0.47941 0.66989 0.0
C2757 C 0.6924 0.45456 0.71151 0.0
O2758 O 0.67925 0.44478 0.70856 0.0
N2759 N 0.66299 0.455 0.66874 0.0
C2760 C 0.63857 0.44067 0.64876 0.0
C2761 C 0.641 0.45826 0.64857 0.0
C2762 C 0.65336 0.46529 0.6589 0.0
C2763 C 0.65966 0.43808 0.67004 0.0
C2764 C 0.64773 0.43049 0.65974 0.0
H2765 H 0.65483 0.47882 0.65945 0.0
H2766 H 0.66673 0.43034 0.67885 0.0
H2767 H 0.68139 0.49562 0.70185 0.0
H2768 H 0.62926 0.48843 0.71041 0.0
H2769 H 0.70938 0.4292 0.63727 0.0
H2770 H 0.63366 0.46635 0.64027 0.0
H2771 H 0.64586 0.4169 0.66015 0.0
C2772 C 0.65554 0.27626 0.03332 0.0
C2773 C 0.64955 0.26326 0.0233 0.0
N2774 N 0.65914 0.24941 0.02618 0.0
N2775 N 0.66874 0.2706 0.04253 0.0
C2776 C 0.67054 0.25425 0.03791 0.0
H2777 H 0.65057 0.28901 0.03392 0.0
Co2778 Co 0.68141 0.28291 0.05816 0.0
C2779 C 0.69005 0.25401 0.08288 0.0
O2780 O 0.68232 0.25929 0.09663 0.0
N2781 N 0.69414 0.29516 0.07448 0.0
C2782 C 0.70343 0.30604 0.09902 0.0
C2783 C 0.69103 0.29649 0.09137 0.0
C2784 C 0.70842 0.30419 0.07228 0.0
N2785 N 0.71409 0.31097 0.08683 0.0
O2786 O 0.70021 0.28117 0.0433 0.0
H2787 H 0.68037 0.29094 0.09787 0.0
H2788 H 0.71502 0.30557 0.06039 0.0
O2789 O 0.68892 0.26245 0.06917 0.0
C2790 C 0.69942 0.29414 0.03381 0.0
O2791 O 0.68858 0.30616 0.03772 0.0
N2792 N 0.66247 0.286 0.07065 0.0
C2793 C 0.63286 0.29695 0.08525 0.0
C2794 C 0.637 0.27961 0.08524 0.0
C2795 C 0.65195 0.27429 0.07755 0.0
C2796 C 0.65804 0.30265 0.06961 0.0
C2797 C 0.64334 0.30848 0.07704 0.0
H2798 H 0.65504 0.26097 0.07701 0.0
H2799 H 0.66622 0.31149 0.0631 0.0
H2800 H 0.68021 0.24603 0.0428 0.0
H2801 H 0.6389 0.26399 0.01473 0.0
H2802 H 0.7046 0.30906 0.11235 0.0
H2803 H 0.62907 0.27042 0.09163 0.0
H2804 H 0.64042 0.32189 0.07685 0.0
C2805 C 0.28302 0.02965 0.83668 0.0
C2806 C 0.27236 0.01732 0.84304 0.0
N2807 N 0.27348 0.00368 0.83286 0.0
N2808 N 0.29072 0.02369 0.82261 0.0
C2809 C 0.28441 0.00799 0.82058 0.0
H2810 H 0.28519 0.04205 0.84209 0.0
Co2811 Co 0.30707 0.03408 0.80914 0.0
C2812 C 0.33092 0.00526 0.80037 0.0
O2813 O 0.34465 0.01295 0.80569 0.0
N2814 N 0.32424 0.04447 0.79558 0.0
C2815 C 0.34879 0.0556 0.78651 0.0
C2816 C 0.34046 0.04842 0.79997 0.0
C2817 C 0.32329 0.04925 0.77922 0.0
N2818 N 0.33789 0.05596 0.7736 0.0
O2819 O 0.29167 0.03257 0.79063 0.0
H2820 H 0.34622 0.04618 0.81216 0.0
H2821 H 0.3121 0.04807 0.77143 0.0
O2822 O 0.31641 0.01211 0.80261 0.0
C2823 C 0.28352 0.04647 0.79045 0.0
O2824 O 0.28984 0.05928 0.79901 0.0
N2825 N 0.31995 0.03723 0.82782 0.0
C2826 C 0.33711 0.0493 0.85547 0.0
C2827 C 0.33681 0.03182 0.85207 0.0
C2828 C 0.32786 0.0259 0.83805 0.0
C2829 C 0.319 0.05399 0.83187 0.0
C2830 C 0.32782 0.06042 0.84553 0.0
H2831 H 0.32739 0.0125 0.83533 0.0
H2832 H 0.31186 0.06252 0.82391 0.0
H2833 H 0.28732 -1e-05 0.81004 0.0
H2834 H 0.26465 0.01818 0.85434 0.0
H2835 H 0.36165 0.06033 0.78624 0.0
H2836 H 0.34391 0.02298 0.8598 0.0
H2837 H 0.32781 0.07392 0.84801 0.0
C2838 C 0.96186 0.53461 0.08618 0.0
C2839 C 0.9746 0.52507 0.09343 0.0
N2840 N 0.98872 0.5274 0.0842 0.0
N2841 N 0.96798 0.54239 0.07224 0.0
C2842 C 0.98432 0.53765 0.07137 0.0
H2843 H 0.94905 0.53592 0.09082 0.0
Co2844 Co 0.95739 0.55756 0.05792 0.0
C2845 C 0.98849 0.58075 0.05279 0.0
O2846 O 0.98411 0.59396 0.06187 0.0
N2847 N 0.94729 0.57401 0.04351 0.0
C2848 C 0.93922 0.59938 0.03351 0.0
C2849 C 0.94765 0.59105 0.0462 0.0
C2850 C 0.93863 0.57246 0.02892 0.0
N2851 N 0.93348 0.58755 0.02291 0.0
O2852 O 0.96053 0.5417 0.03988 0.0
H2853 H 0.95344 0.59727 0.05688 0.0
H2854 H 0.93634 0.56063 0.02243 0.0
O2855 O 0.97891 0.5678 0.0519 0.0
C2856 C 0.9476 0.53211 0.039 0.0
O2857 O 0.93306 0.53836 0.0442 0.0
N2858 N 0.9527 0.57095 0.07597 0.0
C2859 C 0.93982 0.59423 0.09791 0.0
C2860 C 0.95725 0.59077 0.09796 0.0
C2861 C 0.96351 0.57853 0.08698 0.0
C2862 C 0.93558 0.57217 0.07791 0.0
C2863 C 0.92875 0.58417 0.08868 0.0
H2864 H 0.97691 0.57578 0.08661 0.0
H2865 H 0.92728 0.56484 0.06984 0.0
H2866 H 0.99287 0.54135 0.06133 0.0
H2867 H 0.97363 0.51715 0.10456 0.0
H2868 H 0.93747 0.61291 0.03214 0.0
H2869 H 0.96592 0.59812 0.10566 0.0
H2870 H 0.91521 0.58638 0.08886 0.0
C2871 C 0.28385 0.21676 0.40692 0.0
C2872 C 0.2754 0.23087 0.40115 0.0
N2873 N 0.28061 0.24444 0.41017 0.0
N2874 N 0.29419 0.22139 0.41963 0.0
C2875 C 0.2922 0.23826 0.42109 0.0
H2876 H 0.28221 0.20389 0.40253 0.0
Co2877 Co 0.30724 0.20738 0.4331 0.0
C2878 C 0.33293 0.23603 0.44189 0.0
O2879 O 0.34589 0.23323 0.43187 0.0
N2880 N 0.32122 0.19358 0.44659 0.0
C2881 C 0.34461 0.181 0.45624 0.0
C2882 C 0.33833 0.19301 0.44541 0.0
C2883 C 0.31746 0.18185 0.45834 0.0
N2884 N 0.33142 0.17399 0.4643 0.0
O2885 O 0.29111 0.21072 0.45086 0.0
H2886 H 0.34587 0.2007 0.437 0.0
H2887 H 0.30482 0.17946 0.463 0.0
O2888 O 0.31999 0.22642 0.44166 0.0
C2889 C 0.28 0.19942 0.4479 0.0
O2890 O 0.28464 0.18633 0.4387 0.0
N2891 N 0.32068 0.20274 0.41494 0.0
C2892 C 0.33761 0.1898 0.38742 0.0
C2893 C 0.33759 0.20735 0.3905 0.0
C2894 C 0.32869 0.21368 0.40436 0.0
C2895 C 0.31935 0.18594 0.41112 0.0
C2896 C 0.32803 0.17909 0.39755 0.0
H2897 H 0.32805 0.22717 0.4065 0.0
H2898 H 0.31175 0.17771 0.41898 0.0
H2899 H 0.29917 0.2458 0.43005 0.0
H2900 H 0.26561 0.23093 0.39156 0.0
H2901 H 0.35781 0.17789 0.45823 0.0
H2902 H 0.34476 0.21594 0.38258 0.0
H2903 H 0.3276 0.16557 0.39523 0.0
C2904 C 0.53729 0.58922 0.46342 0.0
C2905 C 0.52679 0.59552 0.47592 0.0
N2906 N 0.52451 0.58319 0.48743 0.0
N2907 N 0.54175 0.5732 0.46742 0.0
C2908 C 0.5336 0.56989 0.48201 0.0
H2909 H 0.54161 0.59595 0.4523 0.0
Co2910 Co 0.55597 0.55812 0.45635 0.0
C2911 C 0.57732 0.55123 0.48886 0.0
O2912 O 0.59051 0.56114 0.48691 0.0
N2913 N 0.57076 0.54292 0.44559 0.0
C2914 C 0.59471 0.53082 0.43684 0.0
C2915 C 0.5876 0.54154 0.4485 0.0
C2916 C 0.568 0.53299 0.43204 0.0
N2917 N 0.58237 0.52565 0.42636 0.0
O2918 O 0.539 0.54117 0.45876 0.0
H2919 H 0.59452 0.54837 0.45808 0.0
H2920 H 0.55563 0.53078 0.42664 0.0
O2921 O 0.56559 0.55086 0.47774 0.0
C2922 C 0.52927 0.5441 0.44629 0.0
O2923 O 0.53472 0.55476 0.43473 0.0
N2924 N 0.57117 0.57503 0.45233 0.0
C2925 C 0.59777 0.5944 0.4418 0.0
C2926 C 0.59268 0.59486 0.45882 0.0
C2927 C 0.57882 0.58528 0.46381 0.0
C2928 C 0.57421 0.57676 0.43541 0.0
C2929 C 0.58788 0.58613 0.42981 0.0
H2930 H 0.57463 0.58551 0.47684 0.0
H2931 H 0.56681 0.56966 0.42633 0.0
H2932 H 0.53453 0.55798 0.48873 0.0
H2933 H 0.52128 0.60806 0.47654 0.0
H2934 H 0.60783 0.52687 0.43626 0.0
H2935 H 0.59967 0.60211 0.46815 0.0
H2936 H 0.5912 0.58618 0.41649 0.0
C2937 C 0.39604 0.44453 0.52012 0.0
C2938 C 0.38911 0.45417 0.50728 0.0
N2939 N 0.40104 0.45628 0.49529 0.0
N2940 N 0.41221 0.44073 0.51611 0.0
C2941 C 0.41483 0.44805 0.50095 0.0
H2942 H 0.39004 0.44139 0.53204 0.0
Co2943 Co 0.42893 0.43074 0.52926 0.0
C2944 C 0.4387 0.4053 0.50064 0.0
O2945 O 0.43049 0.39163 0.50528 0.0
N2946 N 0.44585 0.42042 0.54226 0.0
C2947 C 0.46208 0.4007 0.55377 0.0
C2948 C 0.45134 0.40433 0.54078 0.0
C2949 C 0.45326 0.42619 0.55652 0.0
N2950 N 0.46336 0.41442 0.5639 0.0
O2951 O 0.44365 0.44926 0.52445 0.0
H2952 H 0.44738 0.39538 0.53134 0.0
H2953 H 0.45071 0.43861 0.56145 0.0
O2954 O 0.43783 0.41894 0.50935 0.0
C2955 C 0.43977 0.46043 0.53537 0.0
O2956 O 0.42745 0.45709 0.54606 0.0
N2957 N 0.41427 0.41394 0.53581 0.0
C2958 C 0.39867 0.38668 0.55051 0.0
C2959 C 0.3975 0.38923 0.53294 0.0
C2960 C 0.40508 0.40343 0.52581 0.0
C2961 C 0.41306 0.41305 0.55305 0.0
C2962 C 0.40564 0.39917 0.56075 0.0
H2963 H 0.40408 0.40572 0.51236 0.0
H2964 H 0.41878 0.42271 0.56087 0.0
H2965 H 0.42704 0.44843 0.49473 0.0
H2966 H 0.37684 0.46029 0.50738 0.0
H2967 H 0.46874 0.38883 0.55519 0.0
H2968 H 0.39084 0.38034 0.52488 0.0
H2969 H 0.40566 0.39805 0.57443 0.0
C2970 C 0.77519 0.70501 0.58731 0.0
C2971 C 0.76271 0.71494 0.59446 0.0
N2972 N 0.74848 0.71278 0.58536 0.0
N2973 N 0.76876 0.69689 0.57371 0.0
C2974 C 0.75247 0.70192 0.57284 0.0
H2975 H 0.78823 0.70415 0.5914 0.0
Co2976 Co 0.78036 0.68316 0.55867 0.0
C2977 C 0.74861 0.65983 0.55228 0.0
O2978 O 0.75049 0.6466 0.56214 0.0
N2979 N 0.79174 0.66863 0.5437 0.0
C2980 C 0.80104 0.64461 0.53204 0.0
C2981 C 0.78973 0.65159 0.5432 0.0
C2982 C 0.80459 0.67162 0.53296 0.0
N2983 N 0.81053 0.65724 0.52588 0.0
O2984 O 0.776 0.69923 0.54138 0.0
H2985 H 0.78088 0.64451 0.55082 0.0
H2986 H 0.80928 0.68412 0.52994 0.0
O2987 O 0.7597 0.67156 0.55206 0.0
C2988 C 0.78775 0.71023 0.54134 0.0
O2989 O 0.80114 0.70751 0.5508 0.0
N2990 N 0.78616 0.66899 0.57583 0.0
C2991 C 0.80076 0.64409 0.5948 0.0
C2992 C 0.78312 0.64638 0.59521 0.0
C2993 C 0.77598 0.6594 0.58577 0.0
C2994 C 0.80335 0.66855 0.57748 0.0
C2995 C 0.81105 0.65585 0.58676 0.0
H2996 H 0.76249 0.66147 0.58597 0.0
H2997 H 0.81112 0.67726 0.57031 0.0
H2998 H 0.74389 0.69838 0.56275 0.0
H2999 H 0.76407 0.72347 0.60511 0.0
H3000 H 0.80201 0.63141 0.52844 0.0
H3001 H 0.77502 0.63787 0.6023 0.0
H3002 H 0.82472 0.65469 0.58689 0.0
C3003 C 0.77537 0.54335 0.65036 0.0
C3004 C 0.76254 0.53331 0.64409 0.0
N3005 N 0.75215 0.52953 0.65701 0.0
N3006 N 0.77284 0.54596 0.66713 0.0
C3007 C 0.75855 0.53734 0.67071 0.0
H3008 H 0.78574 0.54854 0.64309 0.0
Co3009 Co 0.78415 0.56007 0.68233 0.0
C3010 C 0.74884 0.57809 0.69035 0.0
O3011 O 0.73984 0.58324 0.67734 0.0
N3012 N 0.79474 0.57518 0.69711 0.0
C3013 C 0.80212 0.59979 0.70887 0.0
C3014 C 0.79146 0.59202 0.69757 0.0
C3015 C 0.80759 0.57309 0.70804 0.0
N3016 N 0.81231 0.58782 0.71531 0.0
O3017 O 0.78044 0.54351 0.69969 0.0
H3018 H 0.78182 0.59832 0.69015 0.0
H3019 H 0.81301 0.56095 0.71126 0.0
O3020 O 0.76298 0.57084 0.68764 0.0
C3021 C 0.79246 0.53276 0.69882 0.0
O3022 O 0.80653 0.53756 0.69136 0.0
N3023 N 0.78945 0.57433 0.6652 0.0
C3024 C 0.80296 0.59133 0.63818 0.0
C3025 C 0.7855 0.59218 0.64144 0.0
C3026 C 0.77889 0.58348 0.6552 0.0
C3027 C 0.80639 0.57327 0.66204 0.0
C3028 C 0.81354 0.58196 0.64863 0.0
H3029 H 0.76544 0.58362 0.65749 0.0
H3030 H 0.81434 0.56547 0.67001 0.0
H3031 H 0.75267 0.53711 0.6831 0.0
H3032 H 0.76102 0.52899 0.63116 0.0
H3033 H 0.8021 0.61304 0.71241 0.0
H3034 H 0.77715 0.59963 0.6335 0.0
H3035 H 0.82706 0.58133 0.64639 0.0
C3036 C 0.45183 0.02263 0.90119 0.0
C3037 C 0.46289 0.01025 0.89564 0.0
N3038 N 0.46567 -0.00056 0.90853 0.0
N3039 N 0.44763 0.01948 0.91747 0.0
C3040 C 0.45615 0.00523 0.92146 0.0
H3041 H 0.4472 0.03323 0.89387 0.0
Co3042 Co 0.43298 0.03082 0.93209 0.0
C3043 C 0.41611 -0.00498 0.93877 0.0
O3044 O 0.41571 0.98539 0.92519 0.0
N3045 N 0.41745 0.04155 0.94655 0.0
C3046 C 0.39273 0.04839 0.9584 0.0
C3047 C 0.40084 0.03737 0.9477 0.0
C3048 C 0.41897 0.05536 0.95641 0.0
N3049 N 0.40414 0.05982 0.96365 0.0
O3050 O 0.44898 0.02763 0.94985 0.0
H3051 H 0.39495 0.02681 0.94128 0.0
H3052 H 0.43083 0.06166 0.95897 0.0
O3053 O 0.42258 0.00972 0.93789 0.0
C3054 C 0.45928 0.03996 0.94919 0.0
O3055 O 0.45464 0.05345 0.94064 0.0
N3056 N 0.41869 0.0355 0.91474 0.0
C3057 C 0.39254 0.0493 0.89674 0.0
C3058 C 0.39416 0.03164 0.89802 0.0
C3059 C 0.40752 0.02489 0.90715 0.0
C3060 C 0.41852 0.05251 0.91177 0.0
C3061 C 0.40526 0.05983 0.9029 0.0
H3062 H 0.40829 0.01142 0.9089 0.0
H3063 H 0.42788 0.06054 0.91773 0.0
H3064 H 0.45509 -0.00101 0.93361 0.0
H3065 H 0.4686 0.00939 0.88321 0.0
H3066 H 0.37969 0.04767 0.96258 0.0
H3067 H 0.38474 0.02323 0.89265 0.0
H3068 H 0.40446 0.07347 0.90171 0.0
C3069 C 0.58377 0.96451 0.0385 0.0
C3070 C 0.59123 0.9765 0.02834 0.0
N3071 N 0.58233 0.99096 0.02986 0.0
N3072 N 0.57029 0.97146 0.04636 0.0
C3073 C 0.56975 0.98762 0.04089 0.0
H3074 H 0.58766 0.95145 0.03982 0.0
Co3075 Co 0.55559 0.95984 0.06039 0.0
C3076 C 0.5492 0.98945 0.08513 0.0
O3077 O 0.55829 0.98466 0.09817 0.0
N3078 N 0.54098 0.94797 0.07493 0.0
C3079 C 0.53016 0.93593 0.09812 0.0
C3080 C 0.54122 0.94791 0.0921 0.0
C3081 C 0.52987 0.93573 0.07088 0.0
N3082 N 0.52325 0.92819 0.08469 0.0
O3083 O 0.53814 0.96366 0.04425 0.0
H3084 H 0.54954 0.95538 0.09988 0.0
H3085 H 0.52656 0.93233 0.05804 0.0
O3086 O 0.5487 0.98056 0.07165 0.0
C3087 C 0.53969 0.95221 0.03303 0.0
O3088 O 0.5502 0.93963 0.0359 0.0
N3089 N 0.57325 0.95477 0.07427 0.0
C3090 C 0.60312 0.94183 0.08671 0.0
C3091 C 0.60018 0.9594 0.08682 0.0
C3092 C 0.58514 0.9657 0.0802 0.0
C3093 C 0.5761 0.93773 0.07384 0.0
C3094 C 0.5909 0.93093 0.08024 0.0
H3095 H 0.58344 0.97921 0.07896 0.0
H3096 H 0.56705 0.92939 0.06784 0.0
H3097 H 0.55982 -0.0035 0.04418 0.0
H3098 H 0.60201 0.97461 0.02008 0.0
H3099 H 0.5276 0.93297 0.11126 0.0
H3100 H 0.6094 0.96814 0.092 0.0
H3101 H 0.59284 0.91735 0.08002 0.0
C3102 C 0.21005 0.33825 0.45301 0.0
C3103 C 0.22197 0.34585 0.46341 0.0
N3104 N 0.23599 0.33619 0.46308 0.0
N3105 N 0.21673 0.32393 0.44643 0.0
C3106 C 0.23236 0.32298 0.45305 0.0
H3107 H 0.19736 0.34276 0.45051 0.0
Co3108 Co 0.20754 0.30765 0.43216 0.0
C3109 C 0.24053 0.30442 0.41037 0.0
O3110 O 0.23677 0.31348 0.39696 0.0
N3111 N 0.19859 0.29129 0.4173 0.0
C3112 C 0.19067 0.2791 0.39305 0.0
C3113 C 0.20148 0.2905 0.40039 0.0
C3114 C 0.18594 0.28017 0.41987 0.0
N3115 N 0.18085 0.27271 0.40534 0.0
O3116 O 0.2115 0.29111 0.44944 0.0
H3117 H 0.21001 0.29856 0.39349 0.0
H3118 H 0.18039 0.27765 0.43212 0.0
O3119 O 0.22992 0.3027 0.42251 0.0
C3120 C 0.19849 0.29289 0.4588 0.0
O3121 O 0.18621 0.30249 0.45295 0.0
N3122 N 0.20176 0.32405 0.41689 0.0
C3123 C 0.18916 0.34302 0.39084 0.0
C3124 C 0.20606 0.34506 0.39594 0.0
C3125 C 0.21207 0.33564 0.40952 0.0
C3126 C 0.18474 0.32402 0.41377 0.0
C3127 C 0.17814 0.33319 0.40038 0.0
H3128 H 0.22503 0.33706 0.41367 0.0
H3129 H 0.17646 0.31584 0.42096 0.0
H3130 H 0.24072 0.31243 0.45115 0.0
H3131 H 0.22049 0.35745 0.47057 0.0
H3132 H 0.1898 0.27611 0.3797 0.0
H3133 H 0.21456 0.35339 0.38912 0.0
H3134 H 0.16489 0.332 0.39703 0.0
C3135 C 0.21304 0.4064 0.283 0.0
C3136 C 0.22561 0.4001 0.27261 0.0
N3137 N 0.23993 0.40866 0.276 0.0
N3138 N 0.21951 0.41899 0.29258 0.0
C3139 C 0.23588 0.4201 0.28795 0.0
H3140 H 0.19995 0.40238 0.28329 0.0
Co3141 Co 0.20812 0.43269 0.30781 0.0
C3142 C 0.2428 0.4395 0.32761 0.0
O3143 O 0.25119 0.42595 0.33237 0.0
N3144 N 0.19691 0.4462 0.32364 0.0
C3145 C 0.18853 0.45754 0.34809 0.0
C3146 C 0.19997 0.44681 0.34049 0.0
C3147 C 0.18341 0.45628 0.32139 0.0
N3148 N 0.17799 0.46323 0.33602 0.0
O3149 O 0.21162 0.45127 0.29283 0.0
H3150 H 0.20999 0.44 0.34687 0.0
H3151 H 0.17805 0.45919 0.30914 0.0
O3152 O 0.22889 0.43771 0.31964 0.0
C3153 C 0.19916 0.45007 0.28267 0.0
O3154 O 0.18735 0.43883 0.28606 0.0
N3155 N 0.20313 0.41428 0.32062 0.0
C3156 C 0.19067 0.3859 0.33641 0.0
C3157 C 0.2082 0.38884 0.33579 0.0
C3158 C 0.21425 0.4032 0.32763 0.0
C3159 C 0.18614 0.41122 0.32056 0.0
C3160 C 0.17956 0.39717 0.32869 0.0
H3161 H 0.2277 0.40524 0.32663 0.0
H3162 H 0.17765 0.41985 0.31417 0.0
H3163 H 0.24455 0.42963 0.29261 0.0
H3164 H 0.22431 0.39027 0.26314 0.0
H3165 H 0.18835 0.46137 0.36125 0.0
H3166 H 0.21706 0.38033 0.3419 0.0
H3167 H 0.16598 0.39521 0.3291 0.0
C3168 C 0.08209 0.98417 0.4083 0.0
C3169 C 0.06619 0.98109 0.40111 0.0
C3170 C 0.08629 0.00034 0.41401 0.0
C3171 C 0.07464 0.01378 0.41256 0.0
H3172 H 0.09034 0.97367 0.41145 0.0
H3173 H 0.09779 0.00174 0.42132 0.0
S3174 S 0.03459 0.01293 0.38816 0.0
N3175 N 0.04097 0.99302 0.38851 0.0
N3176 N 0.04914 0.02389 0.39848 0.0
C3177 C 0.06015 0.01132 0.40253 0.0
C3178 C 0.05581 0.99478 0.39699 0.0
C3179 C 0.97458 0.31147 0.65704 0.0
C3180 C 0.97344 0.32792 0.6639 0.0
C3181 C 0.9898 0.30569 0.65022 0.0
C3182 C 0.00395 0.31629 0.64973 0.0
H3183 H 0.96482 0.30216 0.65933 0.0
H3184 H 0.99123 0.2923 0.64763 0.0
S3185 S 0.00507 0.36215 0.65889 0.0
N3186 N 0.98575 0.35616 0.66428 0.0
N3187 N 0.01462 0.34499 0.65161 0.0
C3188 C 0.00185 0.33357 0.65298 0.0
C3189 C 0.98635 0.33952 0.65992 0.0
C3190 C 0.65678 0.2374 0.91098 0.0
C3191 C 0.6645 0.22823 0.92405 0.0
C3192 C 0.6601 0.25475 0.90914 0.0
C3193 C 0.67093 0.26319 0.92052 0.0
H3194 H 0.64858 0.23105 0.90201 0.0
H3195 H 0.65465 0.26152 0.89853 0.0
S3196 S 0.69348 0.24438 0.95728 0.0
N3197 N 0.68245 0.22875 0.94905 0.0
N3198 N 0.68922 0.2609 0.94528 0.0
C3199 C 0.67817 0.25408 0.93396 0.0
C3200 C 0.67479 0.23668 0.93581 0.0
C3201 C 0.73965 0.91091 0.15629 0.0
C3202 C 0.72603 0.91067 0.1678 0.0
C3203 C 0.75577 0.90594 0.16143 0.0
C3204 C 0.75854 0.90069 0.17812 0.0
H3205 H 0.7385 0.91693 0.14405 0.0
H3206 H 0.76641 0.9083 0.15311 0.0
S3207 S 0.72613 0.89073 0.21027 0.0
N3208 N 0.71541 0.89902 0.19433 0.0
N3209 N 0.74619 0.89072 0.20432 0.0
C3210 C 0.74469 0.89741 0.18857 0.0
C3211 C 0.7282 0.90207 0.18324 0.0
C3212 C 0.08927 0.25798 0.82403 0.0
C3213 C 0.07517 0.26008 0.83464 0.0
C3214 C 0.09426 0.24184 0.81883 0.0
C3215 C 0.08508 0.22756 0.82405 0.0
H3216 H 0.09503 0.26892 0.8181 0.0
H3217 H 0.10368 0.24077 0.80892 0.0
S3218 S 0.05091 0.22617 0.85601 0.0
N3219 N 0.05489 0.24654 0.85342 0.0
N3220 N 0.06443 0.21606 0.84365 0.0
C3221 C 0.07308 0.22936 0.837 0.0
C3222 C 0.06802 0.24577 0.84233 0.0
C3223 C 0.74421 0.31065 0.09253 0.0
C3224 C 0.72965 0.31987 0.08838 0.0
C3225 C 0.75996 0.31553 0.08613 0.0
C3226 C 0.76141 0.32968 0.07542 0.0
H3227 H 0.74308 0.29852 0.09883 0.0
H3228 H 0.77071 0.30724 0.08807 0.0
S3229 S 0.72726 0.36004 0.06467 0.0
N3230 N 0.71786 0.34529 0.0761 0.0
N3231 N 0.74745 0.35463 0.06387 0.0
C3232 C 0.74731 0.34035 0.07345 0.0
C3233 C 0.73134 0.33536 0.08003 0.0
C3234 C 0.65446 0.98095 0.32956 0.0
C3235 C 0.669 0.98023 0.33975 0.0
C3236 C 0.64869 -0.00358 0.3233 0.0
C3237 C 0.65745 0.01141 0.32714 0.0
H3238 H 0.64904 0.96938 0.32457 0.0
H3239 H 0.63899 -0.00368 0.31362 0.0
S3240 S 0.69186 0.01662 0.35843 0.0
N3241 N 0.68886 -0.00406 0.35724 0.0
N3242 N 0.67774 0.02521 0.34561 0.0
C3243 C 0.6697 0.01109 0.33997 0.0
C3244 C 0.67558 -0.00465 0.34633 0.0
C3245 C 0.98009 0.91839 0.5832 0.0
C3246 C 0.97828 0.90765 0.56911 0.0
C3247 C -0.00385 0.92238 0.58942 0.0
C3248 C 0.01064 0.91577 0.58156 0.0
H3249 H 0.96922 0.9251 0.5882 0.0
H3250 H -0.0027 0.93235 0.59878 0.0
S3251 S 0.01247 0.88328 0.54797 0.0
N3252 N 0.99211 0.88751 0.5502 0.0
N3253 N 0.02228 0.89508 0.56216 0.0
C3254 C 0.00883 0.90285 0.56959 0.0
C3255 C 0.99255 0.89877 0.56321 0.0
C3256 C 0.40332 0.06977 0.00874 0.0
C3257 C 0.41551 0.08273 0.00904 0.0
C3258 C 0.397 0.06375 0.99337 0.0
C3259 C 0.40275 0.07068 0.97806 0.0
H3260 H 0.40034 0.06286 0.0202 0.0
H3261 H 0.38964 0.05219 0.99342 0.0
S3262 S 0.42874 0.10915 0.9726 0.0
N3263 N 0.4289 0.10555 0.99321 0.0
N3264 N 0.41665 0.09426 0.96426 0.0
C3265 C 0.41195 0.08581 0.97849 0.0
C3266 C 0.41849 0.0919 0.9941 0.0
C3267 C 0.90426 0.66622 0.2328 0.0
C3268 C 0.91784 0.65486 0.23149 0.0
C3269 C 0.89843 0.67132 0.24864 0.0
C3270 C 0.90632 0.6653 0.26341 0.0
H3271 H 0.89964 0.67271 0.22164 0.0
H3272 H 0.88956 0.68176 0.24921 0.0
S3273 S 0.93766 0.6307 0.26638 0.0
N3274 N 0.93551 0.63415 0.24585 0.0
N3275 N 0.92446 0.64389 0.27586 0.0
C3276 C 0.91744 0.65155 0.26216 0.0
C3277 C 0.92331 0.64627 0.24602 0.0
C3278 C 0.3184 0.15182 0.48134 0.0
C3279 C 0.33175 0.16332 0.47891 0.0
C3280 C 0.31366 0.14695 0.49764 0.0
C3281 C 0.3222 0.15354 0.51173 0.0
H3282 H 0.31037 0.14828 0.4708 0.0
H3283 H 0.302 0.13993 0.49932 0.0
S3284 S 0.36118 0.17926 0.51181 0.0
N3285 N 0.35598 0.17756 0.49161 0.0
N3286 N 0.34682 0.16833 0.52235 0.0
C3287 C 0.33723 0.1625 0.50931 0.0
C3288 C 0.34215 0.16741 0.49275 0.0
C3289 C 0.83729 0.57864 0.73067 0.0
C3290 C 0.82279 0.5889 0.72999 0.0
C3291 C 0.84263 0.57177 0.74603 0.0
C3292 C 0.83357 0.5752 0.76094 0.0
H3293 H 0.84293 0.57399 0.71906 0.0
H3294 H 0.85228 0.56203 0.74581 0.0
S3295 S 0.79943 0.60673 0.76657 0.0
N3296 N 0.80281 0.60614 0.74593 0.0
N3297 N 0.81325 0.59349 0.77499 0.0
C3298 C 0.82147 0.58816 0.76083 0.0
C3299 C 0.81597 0.59508 0.7452 0.0
C3300 C 0.40289 0.18665 0.24602 0.0
C3301 C 0.40233 0.17511 0.25945 0.0
C3302 C 0.40921 0.18172 0.23028 0.0
C3303 C 0.41516 0.16509 0.22771 0.0
H3304 H 0.40057 0.19997 0.24836 0.0
H3305 H 0.41151 0.19156 0.22105 0.0
S3306 S 0.40958 0.12898 0.25717 0.0
N3307 N 0.4036 0.14577 0.26818 0.0
N3308 N 0.41458 0.13605 0.23811 0.0
C3309 C 0.41129 0.15282 0.24006 0.0
C3310 C 0.40522 0.15798 0.2562 0.0
C3311 C 0.81469 0.64988 0.49629 0.0
C3312 C 0.8212 0.65667 0.51135 0.0
C3313 C 0.82007 0.65617 0.48069 0.0
C3314 C 0.83205 0.66929 0.47994 0.0
H3315 H 0.80383 0.64151 0.49658 0.0
H3316 H 0.81342 0.65224 0.46935 0.0
S3317 S 0.85699 0.68639 0.51584 0.0
N3318 N 0.84329 0.67326 0.52462 0.0
N3319 N 0.85345 0.68539 0.49525 0.0
C3320 C 0.84086 0.6737 0.49475 0.0
C3321 C 0.83538 0.66724 0.51058 0.0
C3322 C 0.33306 0.07991 0.7552 0.0
C3323 C 0.34 0.06378 0.75757 0.0
C3324 C 0.32732 0.08486 0.73925 0.0
C3325 C 0.32833 0.07365 0.72542 0.0
H3326 H 0.33013 0.08777 0.76606 0.0
H3327 H 0.32018 0.09652 0.73835 0.0
S3328 S 0.35082 0.03248 0.72455 0.0
N3329 N 0.3513 0.03839 0.74462 0.0
N3330 N 0.34117 0.04793 0.71424 0.0
C3331 C 0.33802 0.05883 0.72719 0.0
C3332 C 0.34368 0.05377 0.74347 0.0
C3333 C 0.93419 0.59236 0.99273 0.0
C3334 C 0.92467 0.58987 0.00745 0.0
C3335 C 0.92863 0.58565 0.97736 0.0
C3336 C 0.91363 0.57607 0.97659 0.0
H3337 H 0.94692 0.59736 0.99357 0.0
H3338 H 0.93708 0.58617 0.96657 0.0
S3339 S 0.88182 0.57174 0.01095 0.0
N3340 N 0.89786 0.58185 0.01975 0.0
N3341 N 0.88724 0.56877 0.99097 0.0
C3342 C 0.90261 0.57645 0.99062 0.0
C3343 C 0.90826 0.58351 0.00614 0.0
C3344 C -0.00229 0.4201 0.09443 0.0
C3345 C 0.01257 0.4149 0.08612 0.0
C3346 C 0.98199 0.41439 0.0888 0.0
C3347 C 0.98092 0.40339 0.07489 0.0
H3348 H -0.00205 0.43046 0.1034 0.0
H3349 H 0.97067 0.42044 0.09365 0.0
S3350 S 0.01648 0.38061 0.05449 0.0
N3351 N 0.02559 0.39398 0.06775 0.0
N3352 N -0.00413 0.38333 0.05689 0.0
C3353 C -0.0043 0.3953 0.06924 0.0
C3354 C 0.0117 0.4011 0.075 0.0
C3355 C 0.4928 0.3031 0.15398 0.0
C3356 C 0.50647 0.31434 0.15385 0.0
C3357 C 0.47694 0.30849 0.15949 0.0
C3358 C 0.47453 0.32523 0.16523 0.0
H3359 H 0.49489 0.28971 0.15183 0.0
H3360 H 0.46741 0.29887 0.16128 0.0
S3361 S 0.50476 0.36071 0.15941 0.0
N3362 N 0.51572 0.34355 0.15452 0.0
N3363 N 0.48542 0.35412 0.16397 0.0
C3364 C 0.48723 0.3372 0.16147 0.0
C3365 C 0.5035 0.33159 0.15621 0.0
C3366 C 0.66186 0.73268 0.40241 0.0
C3367 C 0.65153 0.7311 0.41674 0.0
C3368 C 0.66845 0.7484 0.39791 0.0
C3369 C 0.66486 0.76281 0.40778 0.0
H3370 H 0.66681 0.72144 0.39629 0.0
H3371 H 0.6782 0.74869 0.38829 0.0
S3372 S 0.63293 0.76588 0.44195 0.0
N3373 N 0.63398 0.74546 0.43745 0.0
N3374 N 0.64608 0.77536 0.42873 0.0
C3375 C 0.65179 0.76181 0.41978 0.0
C3376 C 0.64511 0.74576 0.42435 0.0
C3377 C 0.24345 0.92416 0.65001 0.0
C3378 C 0.2285 0.91879 0.65796 0.0
C3379 C 0.25909 0.91791 0.65536 0.0
C3380 C 0.26004 0.90616 0.66867 0.0
H3381 H 0.24326 0.93473 0.6413 0.0
H3382 H 0.27052 0.92377 0.65058 0.0
S3383 S 0.22406 0.88422 0.68917 0.0
N3384 N 0.21517 0.89807 0.67627 0.0
N3385 N 0.2447 0.88636 0.68655 0.0
C3386 C 0.24507 0.89856 0.67444 0.0
C3387 C 0.22917 0.90494 0.66901 0.0
C3388 C 0.58529 0.4811 0.41418 0.0
C3389 C 0.57135 0.48023 0.40318 0.0
C3390 C 0.5911 0.49673 0.41998 0.0
C3391 C 0.58304 0.51171 0.41482 0.0
H3392 H 0.59007 0.46969 0.42009 0.0
H3393 H 0.60012 0.49687 0.4303 0.0
S3394 S 0.55112 0.51618 0.38091 0.0
N3395 N 0.5533 0.49553 0.38346 0.0
N3396 N 0.56463 0.52505 0.39418 0.0
C3397 C 0.57177 0.51103 0.40115 0.0
C3398 C 0.56577 0.49514 0.3953 0.0
C3399 C 0.22893 0.83123 0.05679 0.0
C3400 C 0.22435 0.82642 0.07334 0.0
C3401 C 0.24515 0.83716 0.05332 0.0
C3402 C 0.25707 0.83868 0.06632 0.0
H3403 H 0.22096 0.82841 0.04611 0.0
H3404 H 0.24909 0.83844 0.04024 0.0
S3405 S 0.24899 0.83583 0.11227 0.0
N3406 N 0.231 0.82994 0.10335 0.0
N3407 N 0.26204 0.84028 0.09652 0.0
C3408 C 0.25169 0.83737 0.0831 0.0
C3409 C 0.23505 0.83152 0.08671 0.0
C3410 C 0.96284 0.00606 0.54841 0.0
C3411 C 0.9546 0.01609 0.53624 0.0
C3412 C 0.96182 0.98839 0.54787 0.0
C3413 C 0.95274 0.98014 0.53499 0.0
H3414 H 0.9685 0.01183 0.55944 0.0
H3415 H 0.96684 0.98121 0.55844 0.0
S3416 S 0.9316 0.00069 0.49842 0.0
N3417 N 0.93885 0.01663 0.50989 0.0
N3418 N 0.93763 0.98328 0.50834 0.0
C3419 C 0.94622 0.98997 0.52163 0.0
C3420 C 0.9469 0.00803 0.52244 0.0
C3421 C 0.98717 0.70299 0.27559 0.0
C3422 C 0.97879 0.70691 0.29082 0.0
C3423 C 0.00502 0.70298 0.27472 0.0
C3424 C 0.01488 0.70676 0.28913 0.0
H3425 H 0.97998 0.69859 0.26476 0.0
H3426 H 0.01105 0.69835 0.26329 0.0
S3427 S -0.00102 0.71943 0.33137 0.0
N3428 N 0.9818 0.71571 0.32011 0.0
N3429 N 0.01499 0.71631 0.31831 0.0
C3430 C 0.00657 0.71218 0.30384 0.0
C3431 C 0.9886 0.712 0.30477 0.0
C3432 C 0.30756 0.73768 0.04368 0.0
C3433 C 0.29246 0.72832 0.04301 0.0
C3434 C 0.30737 0.75529 0.04369 0.0
C3435 C 0.29214 0.76434 0.04251 0.0
H3436 H 0.31963 0.73139 0.04549 0.0
H3437 H 0.31924 0.76186 0.04559 0.0
S3438 S 0.24937 0.7462 0.0371 0.0
N3439 N 0.26188 0.72949 0.03891 0.0
N3440 N 0.26178 0.763 0.03827 0.0
C3441 C 0.27707 0.75534 0.04003 0.0
C3442 C 0.27717 0.73719 0.04034 0.0
C3443 C 0.25823 0.06368 0.78419 0.0
C3444 C 0.26551 0.04748 0.78536 0.0
C3445 C 0.24076 0.06594 0.78517 0.0
C3446 C 0.2298 0.0521 0.78706 0.0
H3447 H 0.26615 0.07488 0.78379 0.0
H3448 H 0.23583 0.07876 0.78524 0.0
S3449 S 0.24202 0.0068 0.78721 0.0
N3450 N 0.26021 0.01708 0.78598 0.0
N3451 N 0.22705 0.02146 0.78747 0.0
C3452 C 0.23663 0.03569 0.78635 0.0
C3453 C 0.25461 0.03334 0.78552 0.0
C3454 C 0.95579 0.73784 0.21161 0.0
C3455 C 0.95176 0.72774 0.1975 0.0
C3456 C 0.95603 0.75567 0.21024 0.0
C3457 C 0.95256 0.76377 0.19467 0.0
H3458 H 0.95771 0.73203 0.22388 0.0
H3459 H 0.95787 0.76311 0.22163 0.0
S3460 S 0.94367 0.74255 0.15365 0.0
N3461 N 0.94531 0.72702 0.16747 0.0
N3462 N 0.94733 0.75998 0.16452 0.0
C3463 C 0.95013 0.75357 0.18027 0.0
C3464 C 0.94925 0.73569 0.18181 0.0
C3465 C 0.23676 0.70211 0.96089 0.0
C3466 C 0.22657 0.69997 0.94635 0.0
C3467 C 0.2544 0.70447 0.95941 0.0
C3468 C 0.26213 0.70475 0.94338 0.0
H3469 H 0.23135 0.70051 0.97339 0.0
H3470 H 0.2621 0.7047 0.97076 0.0
S3471 S 0.24063 0.70273 0.90166 0.0
N3472 N 0.22522 0.70083 0.91563 0.0
N3473 N 0.25808 0.70486 0.9129 0.0
C3474 C 0.2518 0.70424 0.92891 0.0
C3475 C 0.23406 0.70199 0.93039 0.0
C3476 C 0.2799 0.98144 0.68484 0.0
C3477 C 0.28349 0.97426 0.7007 0.0
C3478 C 0.27873 -0.00106 0.68288 0.0
C3479 C 0.28099 0.00984 0.69674 0.0
H3480 H 0.27963 0.9736 0.67356 0.0
H3481 H 0.2775 0.00401 0.67019 0.0
S3482 S 0.28653 -0.00266 0.7415 0.0
N3483 N 0.28624 0.97919 0.73101 0.0
N3484 N 0.28389 0.01239 0.72721 0.0
C3485 C 0.28233 0.00286 0.71299 0.0
C3486 C 0.28357 0.9849 0.71502 0.0
C3487 C 0.98435 0.0312 0.46252 0.0
C3488 C 0.97713 0.0301 0.44628 0.0
C3489 C 0.00172 0.03491 0.46442 0.0
C3490 C 0.01198 0.03783 0.45013 0.0
H3491 H 0.97635 0.03073 0.47366 0.0
H3492 H 0.00671 0.03707 0.47699 0.0
S3493 S -0.00062 0.03358 0.40515 0.0
N3494 N 0.98197 0.02966 0.41595 0.0
N3495 N 0.01419 0.03702 0.41947 0.0
C3496 C 0.00517 0.03495 0.434 0.0
C3497 C 0.98779 0.03098 0.4321 0.0
C3498 C 0.5439 0.96493 0.00485 0.0
C3499 C 0.53402 0.95466 0.01554 0.0
C3500 C 0.54464 0.96181 0.98733 0.0
C3501 C 0.53526 0.94856 0.98007 0.0
H3502 H 0.55255 0.97412 0.01023 0.0
H3503 H 0.55363 0.96882 0.97971 0.0
S3504 S 0.50613 0.91945 0.00253 0.0
N3505 N 0.51362 0.93191 0.01755 0.0
N3506 N 0.51478 0.92617 0.98472 0.0
C3507 C 0.52413 0.93937 0.99045 0.0
C3508 C 0.52352 0.94244 0.00822 0.0
C3509 C 0.02976 0.28291 0.75351 0.0
C3510 C 0.0446 0.28928 0.76119 0.0
C3511 C 0.02722 0.2842 0.73585 0.0
C3512 C 0.03913 0.29248 0.72551 0.0
H3513 H 0.01979 0.27751 0.76122 0.0
H3514 H 0.01557 0.27945 0.73039 0.0
S3515 S 0.08075 0.3097 0.73894 0.0
N3516 N 0.07232 0.30203 0.7564 0.0
N3517 N 0.06658 0.30622 0.72402 0.0
C3518 C 0.05419 0.29829 0.73296 0.0
C3519 C 0.05719 0.29618 0.75058 0.0
C3520 C 0.71372 0.78571 0.48937 0.0
C3521 C 0.70066 0.7827 0.47761 0.0
C3522 C 0.71075 0.78393 0.50688 0.0
C3523 C 0.69472 0.77901 0.51287 0.0
H3524 H 0.72557 0.79122 0.48521 0.0
H3525 H 0.72042 0.78799 0.51572 0.0
S3526 S 0.65758 0.76689 0.4869 0.0
N3527 N 0.67223 0.77215 0.47295 0.0
N3528 N 0.66651 0.76932 0.50565 0.0
C3529 C 0.6823 0.77432 0.50108 0.0
C3530 C 0.68535 0.77596 0.48343 0.0
C3531 C 0.21359 0.45612 0.25515 0.0
C3532 C 0.19916 0.4575 0.26557 0.0
C3533 C 0.21203 0.45624 0.23735 0.0
C3534 C 0.19602 0.45771 0.2297 0.0
H3535 H 0.2258 0.45315 0.26067 0.0
H3536 H 0.22309 0.45365 0.22966 0.0
S3537 S 0.15498 0.4645 0.25151 0.0
N3538 N 0.16894 0.46289 0.26697 0.0
N3539 N 0.16596 0.46265 0.23383 0.0
C3540 C 0.1819 0.46082 0.24005 0.0
C3541 C 0.1835 0.46091 0.25795 0.0
C3542 C 0.53287 0.77529 0.73307 0.0
C3543 C 0.53169 0.79045 0.72368 0.0
C3544 C 0.53269 0.77554 0.75098 0.0
C3545 C 0.53132 0.79093 0.75988 0.0
H3546 H 0.53554 0.76345 0.72667 0.0
H3547 H 0.53501 0.76388 0.75782 0.0
S3548 S 0.52617 0.83367 0.74109 0.0
N3549 N 0.52703 0.82081 0.72466 0.0
N3550 N 0.52776 0.82135 0.75786 0.0
C3551 C 0.52883 0.80584 0.75053 0.0
C3552 C 0.52864 0.80556 0.73253 0.0
C3553 C 0.21344 0.28466 0.48598 0.0
C3554 C 0.19839 0.28845 0.47708 0.0
C3555 C 0.21385 0.28482 0.50388 0.0
C3556 C 0.19931 0.28912 0.51325 0.0
H3557 H 0.22514 0.28256 0.47913 0.0
H3558 H 0.22575 0.28263 0.51034 0.0
S3559 S 0.15644 0.29799 0.49618 0.0
N3560 N 0.16817 0.29422 0.47933 0.0
N3561 N 0.16939 0.29601 0.5124 0.0
C3562 C 0.18411 0.29191 0.50448 0.0
C3563 C 0.18352 0.29114 0.48654 0.0
C3564 C 0.6818 0.94235 0.25824 0.0
C3565 C 0.69493 0.95096 0.26664 0.0
C3566 C 0.68035 0.94248 0.24079 0.0
C3567 C 0.6917 0.95151 0.23056 0.0
H3568 H 0.67261 0.93482 0.26509 0.0
H3569 H 0.67003 0.93526 0.23536 0.0
S3570 S 0.72729 0.97805 0.24601 0.0
N3571 N 0.71904 0.9699 0.26345 0.0
N3572 N 0.71587 0.97066 0.23007 0.0
C3573 C 0.7045 0.96102 0.23861 0.0
C3574 C 0.70622 0.96061 0.25675 0.0
C3575 C 0.02935 0.43275 0.98776 0.0
C3576 C 0.0295 0.44751 0.9779 0.0
C3577 C 0.03009 0.43356 0.00537 0.0
C3578 C 0.0313 0.4492 0.0138 0.0
H3579 H 0.03017 0.42042 0.98178 0.0
H3580 H 0.03142 0.42179 0.0123 0.0
S3581 S 0.02603 0.49142 0.99383 0.0
N3582 N 0.02648 0.47809 0.97769 0.0
N3583 N 0.02809 0.4798 0.01115 0.0
C3584 C 0.02882 0.46407 0.00424 0.0
C3585 C 0.02794 0.46318 0.98612 0.0
C3586 C 0.98534 0.54533 0.95977 0.0
C3587 C 0.97739 0.53097 0.953 0.0
C3588 C 0.00296 0.5465 0.96037 0.0
C3589 C 0.01326 0.53337 0.95419 0.0
H3590 H 0.97793 0.55643 0.96303 0.0
H3591 H 0.00844 0.55849 0.964 0.0
S3592 S -0.00127 0.492 0.9378 0.0
N3593 N 0.98104 0.50238 0.94211 0.0
N3594 N 0.01443 0.50477 0.94308 0.0
C3595 C 0.00555 0.51827 0.94899 0.0
C3596 C 0.98749 0.51698 0.94851 0.0
C3597 C 0.5051 0.69104 0.79319 0.0
C3598 C 0.51467 0.70596 0.79294 0.0
C3599 C 0.48755 0.69143 0.79305 0.0
C3600 C 0.47872 0.70684 0.7934 0.0
H3601 H 0.51117 0.67884 0.79432 0.0
H3602 H 0.4809 0.67945 0.79379 0.0
S3603 S 0.4979 0.74973 0.79157 0.0
N3604 N 0.5143 0.73669 0.79153 0.0
N3605 N 0.48082 0.73763 0.79221 0.0
C3606 C 0.48806 0.72202 0.79224 0.0
C3607 C 0.50619 0.72154 0.79191 0.0
C3608 C 0.27778 0.2538 0.53219 0.0
C3609 C 0.29205 0.2637 0.53607 0.0
C3610 C 0.2788 0.23592 0.53234 0.0
C3611 C 0.29421 0.2276 0.53603 0.0
H3612 H 0.2656 0.2598 0.53024 0.0
H3613 H 0.26727 0.22867 0.53075 0.0
S3614 S 0.3356 0.24807 0.5446 0.0
N3615 N 0.3221 0.26384 0.5426 0.0
N3616 N 0.3244 0.23082 0.54109 0.0
C3617 C 0.3088 0.23753 0.53811 0.0
C3618 C 0.30761 0.25545 0.53868 0.0
C3619 C 0.75376 0.04777 0.27573 0.0
C3620 C 0.76238 0.03422 0.28338 0.0
C3621 C 0.73607 0.04802 0.27487 0.0
C3622 C 0.72639 0.03478 0.28174 0.0
H3623 H 0.76063 0.05902 0.27192 0.0
H3624 H 0.72997 0.05949 0.27052 0.0
S3625 S 0.74282 0.99484 0.29984 0.0
N3626 N 0.75999 0.00588 0.29522 0.0
N3627 N 0.72656 0.00667 0.29404 0.0
C3628 C 0.73482 0.02032 0.28764 0.0
C3629 C 0.75292 0.01992 0.28827 0.0
C3630 C 0.45113 0.48707 0.52222 0.0
C3631 C 0.44838 0.47691 0.53662 0.0
C3632 C 0.45442 0.50455 0.52396 0.0
C3633 C 0.45536 0.51199 0.54013 0.0
H3634 H 0.44922 0.48186 0.50967 0.0
H3635 H 0.45481 0.51242 0.51274 0.0
S3636 S 0.45128 0.49034 0.5815 0.0
N3637 N 0.4485 0.47524 0.56732 0.0
N3638 N 0.4551 0.50763 0.57051 0.0
C3639 C 0.45435 0.50153 0.55442 0.0
C3640 C 0.45075 0.48405 0.55269 0.0
C3641 C 0.73743 0.19864 0.96126 0.0
C3642 C 0.72894 0.19512 0.94595 0.0
C3643 C 0.75523 0.19876 0.96193 0.0
C3644 C 0.76476 0.1951 0.94738 0.0
H3645 H 0.73037 0.20002 0.97295 0.0
H3646 H 0.76149 0.20071 0.97398 0.0
S3647 S 0.74856 0.18818 0.90387 0.0
N3648 N 0.73145 0.19085 0.91556 0.0
N3649 N 0.76465 0.18983 0.91708 0.0
C3650 C 0.7564 0.19294 0.93187 0.0
C3651 C 0.7385 0.19335 0.93108 0.0
C3652 C 0.0777 0.50889 0.90366 0.0
C3653 C 0.08683 0.5112 0.91868 0.0
C3654 C 0.07148 0.49295 0.89935 0.0
C3655 C 0.07418 0.47904 0.91012 0.0
H3656 H 0.0735 0.5198 0.89649 0.0
H3657 H 0.06276 0.49206 0.88882 0.0
S3658 S 0.10236 0.47775 0.94754 0.0
N3659 N 0.10202 0.49787 0.94184 0.0
N3660 N 0.09049 0.46762 0.93359 0.0
C3661 C 0.08585 0.48069 0.92341 0.0
C3662 C 0.09223 0.49693 0.92773 0.0
C3663 C -0.00442 0.83745 0.18643 0.0
C3664 C 0.98243 0.83901 0.17467 0.0
C3665 C 0.01148 0.83176 0.18129 0.0
C3666 C 0.01434 0.82711 0.1643 0.0
H3667 H 0.9929 0.83847 0.19985 0.0
H3668 H 0.0205 0.82857 0.19105 0.0
S3669 S 0.98572 0.83557 0.12816 0.0
N3670 N 0.97441 0.84042 0.1451 0.0
N3671 N 0.0046 0.82991 0.13522 0.0
C3672 C 0.00235 0.83213 0.15213 0.0
C3673 C 0.98614 0.83787 0.15741 0.0
C3674 C 0.73724 0.4126 0.65361 0.0
C3675 C 0.7243 0.4127 0.66593 0.0
C3676 C 0.75373 0.4081 0.65801 0.0
C3677 C 0.75746 0.40328 0.6746 0.0
H3678 H 0.73533 0.41811 0.64124 0.0
H3679 H 0.76388 0.41026 0.64905 0.0
S3680 S 0.72726 0.39431 0.70905 0.0
N3681 N 0.71546 0.4018 0.69348 0.0
N3682 N 0.7469 0.39423 0.70186 0.0
C3683 C 0.7443 0.40017 0.68593 0.0
C3684 C 0.72747 0.40453 0.68147 0.0
C3685 C 0.07422 0.74917 0.33639 0.0
C3686 C 0.07536 0.76291 0.32512 0.0
C3687 C 0.08068 0.73337 0.3319 0.0
C3688 C 0.0885 0.73102 0.31617 0.0
H3689 H 0.06651 0.74997 0.34769 0.0
H3690 H 0.07764 0.72251 0.3397 0.0
S3691 S 0.09991 0.76419 0.28518 0.0
N3692 N 0.08905 0.77426 0.29997 0.0
N3693 N 0.10085 0.74422 0.29133 0.0
C3694 C 0.0924 0.74521 0.30629 0.0
C3695 C 0.08583 0.76132 0.31083 0.0
C3696 C 0.75719 0.82459 0.58129 0.0
C3697 C 0.75956 0.83283 0.5658 0.0
C3698 C 0.74109 0.81922 0.58616 0.0
C3699 C 0.727 0.82202 0.57559 0.0
H3700 H 0.76805 0.82079 0.58877 0.0
H3701 H 0.74007 0.81139 0.59734 0.0
S3702 S 0.72651 0.84757 0.53623 0.0
N3703 N 0.7467 0.84653 0.54162 0.0
N3704 N 0.71605 0.83718 0.55108 0.0
C3705 C 0.72904 0.83242 0.56129 0.0
C3706 C 0.74549 0.83762 0.55626 0.0
C3707 C 0.65416 0.47844 0.82298 0.0
C3708 C 0.667 0.47765 0.83529 0.0
C3709 C 0.64773 0.49405 0.81774 0.0
C3710 C 0.65403 0.50907 0.8248 0.0
H3711 H 0.65079 0.46722 0.81584 0.0
H3712 H 0.63983 0.49444 0.80653 0.0
S3713 S 0.6821 0.51319 0.86197 0.0
N3714 N 0.68177 0.49269 0.85781 0.0
N3715 N 0.66929 0.52205 0.84801 0.0
C3716 C 0.66392 0.50811 0.83947 0.0
C3717 C 0.67058 0.49228 0.84475 0.0
C3718 C 0.40468 0.5711 0.51204 0.0
C3719 C 0.41727 0.58368 0.51308 0.0
C3720 C 0.39744 0.56685 0.49646 0.0
C3721 C 0.40256 0.57523 0.48171 0.0
H3722 H 0.40192 0.5632 0.5229 0.0
H3723 H 0.38977 0.55553 0.49558 0.0
S3724 S 0.43014 0.61277 0.47852 0.0
N3725 N 0.43095 0.60732 0.49869 0.0
N3726 N 0.41699 0.59926 0.4695 0.0
C3727 C 0.41242 0.58983 0.48314 0.0
C3728 C 0.41995 0.59412 0.4989 0.0
C3729 C 0.90466 0.16424 0.73214 0.0
C3730 C 0.91872 0.15337 0.73184 0.0
C3731 C 0.89803 0.16978 0.74754 0.0
C3732 C 0.90549 0.16456 0.76281 0.0
H3733 H 0.90045 0.17032 0.72059 0.0
H3734 H 0.88905 0.18014 0.74733 0.0
S3735 S 0.93682 0.13029 0.76841 0.0
N3736 N 0.93579 0.13321 0.74772 0.0
N3737 N 0.92292 0.14351 0.77678 0.0
C3738 C 0.91657 0.15071 0.76252 0.0
C3739 C 0.92341 0.14512 0.74686 0.0
C3740 C 0.33564 0.65979 0.98905 0.0
C3741 C 0.32293 0.66552 0.97789 0.0
C3742 C 0.33172 0.65575 0.00583 0.0
C3743 C 0.315 0.65692 0.01149 0.0
H3744 H 0.34884 0.66038 0.98537 0.0
H3745 H 0.34186 0.65331 0.01474 0.0
S3746 S 0.2766 0.66629 0.98661 0.0
N3747 N 0.29242 0.66838 0.97315 0.0
N3748 N 0.28544 0.66049 0.0046 0.0
C3749 C 0.302 0.65982 -6e-05 0.0
C3750 C 0.30586 0.66407 0.983 0.0
C3751 C 0.83976 0.06109 0.24661 0.0
C3752 C 0.83497 0.0694 0.26154 0.0
C3753 C 0.83394 0.06694 0.23101 0.0
C3754 C 0.82309 0.08106 0.23015 0.0
H3755 H 0.84604 0.04891 0.24719 0.0
H3756 H 0.83618 0.05924 0.21987 0.0
S3757 S 0.8127 0.11027 0.26548 0.0
N3758 N 0.82331 0.09462 0.2744 0.0
N3759 N 0.81208 0.10581 0.24504 0.0
C3760 C 0.82109 0.09115 0.2447 0.0
C3761 C 0.82708 0.08517 0.26052 0.0
C3762 C 0.40526 0.66191 0.75119 0.0
C3763 C 0.41709 0.66588 0.76388 0.0
C3764 C 0.41058 0.65452 0.736 0.0
C3765 C 0.4278 0.65106 0.73335 0.0
H3766 H 0.3925 0.66688 0.75199 0.0
H3767 H 0.40178 0.65395 0.72549 0.0
S3768 S 0.46234 0.65362 0.76468 0.0
N3769 N 0.44566 0.66149 0.77452 0.0
N3770 N 0.45556 0.64775 0.74579 0.0
C3771 C 0.43891 0.65183 0.74707 0.0
C3772 C 0.43352 0.65919 0.76255 0.0
C3773 C 0.8401 0.16321 0.98737 0.0
C3774 C 0.84039 0.17993 0.98156 0.0
C3775 C 0.83503 0.15968 0.00397 0.0
C3776 C 0.82949 0.17278 0.0149 0.0
H3777 H 0.84183 0.15281 0.97859 0.0
H3778 H 0.83377 0.14653 0.00751 0.0
S3779 S 0.83575 0.21887 0.00702 0.0
N3780 N 0.84074 0.2096 0.98898 0.0
N3781 N 0.83081 0.20334 0.02011 0.0
C3782 C 0.83322 0.1896 0.01006 0.0
C3783 C 0.83872 0.19307 0.99328 0.0
C3784 C 0.33786 0.58095 0.25607 0.0
C3785 C 0.34054 0.56406 0.26051 0.0
C3786 C 0.33247 0.58506 0.23974 0.0
C3787 C 0.32865 0.57222 0.22783 0.0
H3788 H 0.33833 0.59074 0.26567 0.0
H3789 H 0.32958 0.59819 0.23724 0.0
S3790 S 0.33985 0.52658 0.23257 0.0
N3791 N 0.34377 0.5351 0.25122 0.0
N3792 N 0.33361 0.54242 0.22049 0.0
C3793 C 0.33447 0.55565 0.23144 0.0
C3794 C 0.3403 0.55165 0.24795 0.0
C3795 C 0.93286 0.08012 0.48038 0.0
C3796 C 0.91595 0.0754 0.4771 0.0
C3797 C 0.93743 0.08677 0.49605 0.0
C3798 C 0.92526 0.089 0.5087 0.0
H3799 H 0.94303 0.07684 0.47186 0.0
H3800 H 0.95075 0.08808 0.49908 0.0
S3801 S 0.87887 0.08683 0.50375 0.0
N3802 N 0.88648 0.07997 0.48549 0.0
N3803 N 0.89551 0.09139 0.51558 0.0
C3804 C 0.90816 0.08767 0.50454 0.0
C3805 C 0.90338 0.08123 0.48842 0.0
C3806 C 0.47915 0.81527 0.65336 0.0
C3807 C 0.4785 0.82907 0.66459 0.0
C3808 C 0.49444 0.8105 0.64588 0.0
C3809 C 0.50933 0.8194 0.64963 0.0
H3810 H 0.46829 0.80703 0.65191 0.0
H3811 H 0.49506 0.79845 0.63934 0.0
S3812 S 0.51299 0.85985 0.67281 0.0
N3813 N 0.49298 0.85424 0.6751 0.0
N3814 N 0.52172 0.8451 0.6608 0.0
C3815 C 0.50809 0.83503 0.65789 0.0
C3816 C 0.49258 0.83991 0.66557 0.0
C3817 C 0.24633 0.39751 0.18481 0.0
C3818 C 0.26017 0.39981 0.17399 0.0
C3819 C 0.23023 0.40294 0.17994 0.0
C3820 C 0.22775 0.41119 0.16432 0.0
H3821 H 0.24834 0.39356 0.19779 0.0
H3822 H 0.22017 0.40238 0.18923 0.0
S3823 S 0.25915 0.41287 0.12917 0.0
N3824 N 0.2698 0.40537 0.14551 0.0
N3825 N 0.23958 0.41572 0.136 0.0
C3826 C 0.24093 0.41025 0.15223 0.0
C3827 C 0.25726 0.40459 0.15726 0.0
C3828 C 0.58713 0.00059 0.91251 0.0
C3829 C 0.57328 0.01161 0.91543 0.0
C3830 C 0.58466 0.98319 0.91051 0.0
C3831 C 0.56831 0.97656 0.91078 0.0
H3832 H 0.60004 0.00505 0.91321 0.0
H3833 H 0.59549 0.9748 0.9098 0.0
S3834 S 0.5278 -0.00012 0.91012 0.0
N3835 N 0.54248 0.01458 0.91223 0.0
N3836 N 0.53821 0.98181 0.90928 0.0
C3837 C 0.55443 0.98745 0.9106 0.0
C3838 C 0.55683 0.00511 0.91249 0.0
C3839 C 0.24544 0.3447 0.57041 0.0
C3840 C 0.26059 0.3367 0.57517 0.0
C3841 C 0.23 0.33862 0.57639 0.0
C3842 C 0.22953 0.32459 0.58727 0.0
H3843 H 0.24529 0.35377 0.56014 0.0
H3844 H 0.21842 0.34323 0.57067 0.0
S3845 S 0.26604 0.30455 0.60871 0.0
N3846 N 0.27453 0.31827 0.59541 0.0
N3847 N 0.24533 0.30656 0.60658 0.0
C3848 C 0.24461 0.31916 0.5949 0.0
C3849 C 0.26031 0.32537 0.58882 0.0
C3850 C 0.95852 0.50376 0.02871 0.0
C3851 C 0.94992 0.51362 0.04082 0.0
C3852 C 0.95925 0.48595 0.03028 0.0
C3853 C 0.95189 0.47762 0.04428 0.0
H3854 H 0.96404 0.50974 0.01768 0.0
H3855 H 0.96511 0.47866 0.02023 0.0
S3856 S 0.92989 0.49838 0.08052 0.0
N3857 N 0.93482 0.51397 0.06761 0.0
N3858 N 0.9374 0.4812 0.07138 0.0
C3859 C 0.94441 0.48769 0.05703 0.0
C3860 C 0.94309 0.5055 0.05507 0.0
C3861 C 0.00595 0.214 0.79781 0.0
C3862 C 0.01485 0.20838 0.78346 0.0
C3863 C 0.98828 0.21345 0.7984 0.0
C3864 C 0.97877 0.20762 0.78456 0.0
H3865 H 0.01273 0.21707 0.80935 0.0
H3866 H 0.98219 0.21596 0.8104 0.0
S3867 S -0.00426 0.19418 0.74295 0.0
N3868 N 0.01274 0.19893 0.7542 0.0
N3869 N 0.97931 0.19794 0.75539 0.0
C3870 C 0.98734 0.20359 0.76952 0.0
C3871 C 0.00547 0.20414 0.76889 0.0
C3872 C 0.23699 0.53913 0.30631 0.0
C3873 C 0.2274 0.53767 0.29141 0.0
C3874 C 0.25459 0.53958 0.30583 0.0
C3875 C 0.26347 0.53807 0.29052 0.0
H3876 H 0.23088 0.54119 0.31843 0.0
H3877 H 0.26124 0.54223 0.31748 0.0
S3878 S 0.24463 0.53062 0.24824 0.0
N3879 N 0.22813 0.53241 0.26101 0.0
N3880 N 0.26163 0.53287 0.26027 0.0
C3881 C 0.25424 0.53496 0.27565 0.0
C3882 C 0.23608 0.53472 0.27608 0.0
C3883 C 0.95673 0.23656 0.7188 0.0
C3884 C 0.95555 0.22778 0.70335 0.0
C3885 C 0.95552 0.2544 0.71922 0.0
C3886 C 0.95323 0.26374 0.70416 0.0
H3887 H 0.95726 0.22961 0.73062 0.0
H3888 H 0.95495 0.26072 0.73139 0.0
S3889 S 0.95151 0.2466 0.66049 0.0
N3890 N 0.95296 0.22984 0.67281 0.0
N3891 N 0.9523 0.26298 0.67341 0.0
C3892 C 0.95385 0.25508 0.68866 0.0
C3893 C 0.95449 0.23716 0.6883 0.0
C3894 C 0.23523 0.20069 0.43235 0.0
C3895 C 0.22571 0.20462 0.44686 0.0
C3896 C 0.25277 0.19987 0.43288 0.0
C3897 C 0.26179 0.20368 0.44771 0.0
H3898 H 0.2291 0.19684 0.42069 0.0
H3899 H 0.25924 0.19537 0.42166 0.0
S3900 S 0.24342 0.22011 0.48757 0.0
N3901 N 0.22674 0.21578 0.47565 0.0
N3902 N 0.26029 0.21518 0.47619 0.0
C3903 C 0.25273 0.20993 0.46168 0.0
C3904 C 0.23453 0.21026 0.46135 0.0
C3905 C 0.28156 0.50147 0.17914 0.0
C3906 C 0.28094 0.51158 0.19376 0.0
C3907 C 0.28155 0.48388 0.1802 0.0
C3908 C 0.28135 0.47564 0.19597 0.0
H3909 H 0.28307 0.5072 0.16676 0.0
H3910 H 0.28326 0.47675 0.16859 0.0
S3911 S 0.27459 0.49635 0.23758 0.0
N3912 N 0.2763 0.5123 0.22413 0.0
N3913 N 0.27664 0.47884 0.22628 0.0
C3914 C 0.27848 0.48552 0.21055 0.0
C3915 C 0.27828 0.50364 0.20942 0.0
C3916 C 0.52681 0.45433 0.48547 0.0
C3917 C 0.54217 0.45158 0.47675 0.0
C3918 C 0.52581 0.45215 0.50317 0.0
C3919 C 0.54002 0.44665 0.51238 0.0
H3920 H 0.51531 0.45712 0.47853 0.0
H3921 H 0.51374 0.45379 0.50948 0.0
S3922 S 0.58346 0.43987 0.4959 0.0
N3923 N 0.57236 0.44586 0.47928 0.0
N3924 N 0.56991 0.43963 0.51178 0.0
C3925 C 0.55551 0.44481 0.50391 0.0
C3926 C 0.55675 0.44792 0.48629 0.0
C3927 C 0.03198 0.77699 0.25377 0.0
C3928 C 0.03137 0.79355 0.26031 0.0
C3929 C 0.03384 0.77428 0.23622 0.0
C3930 C 0.0351 0.78809 0.22503 0.0
H3931 H 0.03258 0.76626 0.26228 0.0
H3932 H 0.03597 0.76151 0.23165 0.0
S3933 S 0.03091 0.83358 0.23586 0.0
N3934 N 0.02964 0.82362 0.25417 0.0
N3935 N 0.03299 0.81857 0.22146 0.0
C3936 C 0.03254 0.80449 0.23137 0.0
C3937 C 0.03075 0.80722 0.24901 0.0
C3938 C 0.7043 0.28099 0.00566 0.0
C3939 C 0.70708 0.29457 0.0169 0.0
C3940 C 0.70463 0.28362 0.98805 0.0
C3941 C 0.70784 0.29979 0.98143 0.0
H3942 H 0.70004 0.26885 0.01043 0.0
H3943 H 0.70087 0.27342 0.97973 0.0
S3944 S 0.7191 0.33842 0.00553 0.0
N3945 N 0.71568 0.32389 0.02017 0.0
N3946 N 0.7162 0.32879 0.9872 0.0
C3947 C 0.71246 0.31286 0.99252 0.0
C3948 C 0.71218 0.31022 0.01029 0.0
C3949 C 0.20131 0.96668 0.73833 0.0
C3950 C 0.20585 0.95366 0.72699 0.0
C3951 C 0.20253 0.96421 0.75596 0.0
C3952 C 0.20848 0.94877 0.76251 0.0
H3953 H 0.19504 0.97797 0.73368 0.0
H3954 H 0.19731 0.9737 0.76439 0.0
S3955 S 0.22382 0.91183 0.73792 0.0
N3956 N 0.21815 0.92577 0.72344 0.0
N3957 N 0.22041 0.92113 0.75634 0.0
C3958 C 0.21457 0.93647 0.75121 0.0
C3959 C 0.21331 0.93895 0.73345 0.0
C3960 C 0.55167 0.27801 0.23794 0.0
C3961 C 0.53723 0.28307 0.22887 0.0
C3962 C 0.55179 0.27783 0.25562 0.0
C3963 C 0.53753 0.28294 0.26494 0.0
H3964 H 0.56349 0.27575 0.23145 0.0
H3965 H 0.56366 0.27528 0.26202 0.0
S3966 S 0.49582 0.29512 0.2471 0.0
N3967 N 0.50778 0.29155 0.2303 0.0
N3968 N 0.50786 0.29122 0.26378 0.0
C3969 C 0.52247 0.28646 0.25605 0.0
C3970 C 0.5224 0.28667 0.23792 0.0
C3971 C 0.20361 0.77618 0.0002 0.0
C3972 C 0.20215 0.78919 0.01229 0.0
C3973 C 0.20706 0.78009 0.98316 0.0
C3974 C 0.20911 0.79703 0.97811 0.0
H3975 H 0.20039 0.76327 0.00354 0.0
H3976 H 0.20651 0.7701 0.97375 0.0
S3977 S 0.2099 0.83497 0.00563 0.0
N3978 N 0.20558 0.81911 0.0185 0.0
N3979 N 0.21215 0.82637 0.98673 0.0
C3980 C 0.20956 0.80975 0.99045 0.0
C3981 C 0.20609 0.80583 0.00756 0.0
C3982 C 0.70758 0.46577 0.75545 0.0
C3983 C 0.70586 0.44996 0.76347 0.0
C3984 C 0.70514 0.46726 0.73779 0.0
C3985 C 0.70099 0.45295 0.72795 0.0
H3986 H 0.70932 0.47712 0.76296 0.0
H3987 H 0.70492 0.47976 0.73215 0.0
S3988 S 0.69753 0.40859 0.74272 0.0
N3989 N 0.70142 0.41975 0.75992 0.0
N3990 N 0.69772 0.42241 0.72709 0.0
C3991 C 0.70114 0.43699 0.73565 0.0
C3992 C 0.7033 0.43553 0.75338 0.0
C3993 C 0.03531 0.96344 0.50365 0.0
C3994 C 0.03946 0.94809 0.51181 0.0
C3995 C 0.0362 0.96488 0.48585 0.0
C3996 C 0.04165 0.95115 0.4759 0.0
H3997 H 0.0324 0.97462 0.51104 0.0
H3998 H 0.03353 0.97698 0.47998 0.0
S3999 S 0.05184 0.90783 0.49085 0.0
N4000 N 0.04677 0.91835 0.50817 0.0
N4001 N 0.05004 0.9216 0.47526 0.0
C4002 C 0.04489 0.93561 0.48385 0.0
C4003 C 0.04331 0.93393 0.50168 0.0
C4004 C 0.48512 0.21536 0.28755 0.0
C4005 C 0.47443 0.20174 0.28328 0.0
C4006 C 0.50287 0.21369 0.28658 0.0
C4007 C 0.51028 0.19848 0.28097 0.0
H4008 H 0.47986 0.22657 0.29342 0.0
H4009 H 0.51076 0.22369 0.29166 0.0
S4010 S 0.48763 0.16037 0.26557 0.0
N4011 N 0.47242 0.17358 0.27117 0.0
N4012 N 0.50553 0.17057 0.26908 0.0
C4013 C 0.49961 0.18563 0.27489 0.0
C4014 C 0.48171 0.18725 0.27604 0.0
C4015 C 0.73635 0.53147 0.78072 0.0
C4016 C 0.72784 0.53362 0.79631 0.0
C4017 C 0.75419 0.53194 0.77987 0.0
C4018 C 0.76383 0.53483 0.79455 0.0
H4019 H 0.72924 0.53067 0.76902 0.0
H4020 H 0.76035 0.53124 0.76763 0.0
S4021 S 0.74773 0.53864 0.83855 0.0
N4022 N 0.73062 0.53609 0.82687 0.0
N4023 N 0.76368 0.53835 0.8251 0.0
C4024 C 0.75545 0.53586 0.8102 0.0
C4025 C 0.73756 0.53483 0.81113 0.0
C4026 C 0.43827 0.0054 0.03116 0.0
C4027 C 0.45318 0.01453 0.03412 0.0
C4028 C 0.43838 0.9878 0.03029 0.0
C4029 C 0.45336 0.97857 0.03252 0.0
H4030 H 0.42613 0.01181 0.03095 0.0
H4031 H 0.42636 0.98138 0.02953 0.0
S4032 S 0.4963 -0.00361 0.03845 0.0
N4033 N 0.48382 0.01317 0.03728 0.0
N4034 N 0.48386 0.9797 0.03619 0.0
C4035 C 0.46866 0.98746 0.0341 0.0
C4036 C 0.46861 0.00559 0.0347 0.0
C4037 C 0.7348 0.68736 0.44606 0.0
C4038 C 0.72588 0.70247 0.44877 0.0
C4039 C 0.75237 0.6869 0.44672 0.0
C4040 C 0.7619 0.70165 0.44964 0.0
H4041 H 0.72816 0.67584 0.44267 0.0
H4042 H 0.75849 0.67497 0.44377 0.0
S4043 S 0.74433 0.74382 0.46089 0.0
N4044 N 0.72743 0.73198 0.4573 0.0
N4045 N 0.76094 0.7314 0.4579 0.0
C4046 C 0.75312 0.71662 0.45393 0.0
C4047 C 0.73495 0.71697 0.45359 0.0
C4048 C 0.14786 0.2434 0.4201 0.0
C4049 C 0.15433 0.22817 0.41363 0.0
C4050 C 0.15513 0.25879 0.41539 0.0
C4051 C 0.16889 0.25916 0.4041 0.0
H4052 H 0.13911 0.24326 0.43066 0.0
H4053 H 0.15144 0.27015 0.42214 0.0
S4054 S 0.18536 0.223 0.37905 0.0
N4055 N 0.17115 0.21461 0.39187 0.0
N4056 N 0.18518 0.24354 0.38303 0.0
C4057 C 0.17289 0.24436 0.39504 0.0
C4058 C 0.16538 0.22876 0.39979 0.0
C4059 C 0.56058 0.24685 0.34153 0.0
C4060 C 0.57057 0.26075 0.33682 0.0
C4061 C 0.56418 0.23075 0.3352 0.0
C4062 C 0.57793 0.22823 0.32422 0.0
H4063 H 0.54878 0.24883 0.34824 0.0
H4064 H 0.55534 0.22055 0.33761 0.0
S4065 S 0.61027 0.26016 0.31221 0.0
N4066 N 0.5964 0.27069 0.3238 0.0
N4067 N 0.60349 0.24039 0.31181 0.0
C4068 C 0.58944 0.24161 0.32167 0.0
C4069 C 0.58567 0.25795 0.32809 0.0
C4070 C 0.18062 0.00687 0.81432 0.0
C4071 C 0.16676 0.01503 0.82186 0.0
C4072 C 0.18301 0.98972 0.81618 0.0
C4073 C 0.17192 0.97995 0.82596 0.0
H4074 H 0.18925 0.01357 0.80606 0.0
H4075 H 0.19379 0.98401 0.8099 0.0
S4076 S 0.13388 -0.00492 0.84872 0.0
N4077 N 0.14164 0.01221 0.83949 0.0
N4078 N 0.14682 0.97936 0.84372 0.0
C4079 C 0.15825 0.98782 0.83408 0.0
C4080 C 0.15551 0.00551 0.83184 0.0
C4081 C 0.50952 0.90394 0.07155 0.0
C4082 C 0.50965 0.91629 0.08437 0.0
C4083 C 0.49422 0.89801 0.06503 0.0
C4084 C 0.47886 0.90441 0.07124 0.0
H4085 H 0.52115 0.90067 0.06506 0.0
H4086 H 0.49448 0.89046 0.05358 0.0
S4087 S 0.47271 0.93148 0.10893 0.0
N4088 N 0.49345 0.93075 0.10623 0.0
N4089 N 0.46456 0.91934 0.09395 0.0
C4090 C 0.47894 0.91389 0.08623 0.0
C4091 C 0.49449 0.91995 0.09287 0.0
C4092 C 0.50295 0.40542 0.58693 0.0
C4093 C 0.50896 0.42187 0.58908 0.0
C4094 C 0.48631 0.40276 0.5816 0.0
C4095 C 0.47582 0.41661 0.57718 0.0
H4096 H 0.51162 0.3948 0.58745 0.0
H4097 H 0.48257 0.38987 0.57899 0.0
S4098 S 0.48454 0.46157 0.58835 0.0
N4099 N 0.5023 0.45146 0.59252 0.0
N4100 N 0.47112 0.44694 0.58179 0.0
C4101 C 0.48082 0.43281 0.58289 0.0
C4102 C 0.49755 0.43532 0.58892 0.0
C4103 C 0.15365 0.73557 0.91524 0.0
C4104 C 0.15474 0.73026 0.93211 0.0
C4105 C 0.15812 0.75213 0.91088 0.0
C4106 C 0.16428 0.7635 0.92325 0.0
H4107 H 0.15119 0.72646 0.90527 0.0
H4108 H 0.15853 0.75536 0.89757 0.0
S4109 S 0.1623 0.75674 0.96989 0.0
N4110 N 0.15688 0.7384 0.96151 0.0
N4111 N 0.16556 0.76947 0.95367 0.0
C4112 C 0.16209 0.75906 0.94043 0.0
C4113 C 0.15736 0.7423 0.94476 0.0
C4114 C 0.77708 0.73811 0.54972 0.0
C4115 C 0.78404 0.72786 0.537 0.0
C4116 C 0.77868 0.75574 0.54916 0.0
C4117 C 0.78703 0.76371 0.53569 0.0
H4118 H 0.77196 0.73236 0.56103 0.0
H4119 H 0.77468 0.76308 0.56005 0.0
S4120 S 0.80687 0.74231 0.49886 0.0
N4121 N 0.79913 0.72667 0.51036 0.0
N4122 N 0.80163 0.75998 0.50882 0.0
C4123 C 0.79294 0.75363 0.52221 0.0
C4124 C 0.79161 0.7356 0.523 0.0
C4125 C 0.45792 0.75293 0.6899 0.0
C4126 C 0.45405 0.76161 0.70493 0.0
C4127 C 0.45781 0.73528 0.68929 0.0
C4128 C 0.45402 0.7256 0.7037 0.0
H4129 H 0.45954 0.75983 0.67815 0.0
H4130 H 0.45927 0.72928 0.6771 0.0
S4131 S 0.44561 0.74205 0.74679 0.0
N4132 N 0.44835 0.75922 0.73513 0.0
N4133 N 0.44819 0.72575 0.73387 0.0
C4134 C 0.45168 0.73398 0.71918 0.0
C4135 C 0.45182 0.75211 0.71985 0.0
C4136 C 0.77224 0.98718 0.20177 0.0
C4137 C 0.78717 0.97798 0.19855 0.0
C4138 C 0.77245 0.00507 0.20209 0.0
C4139 C 0.78764 0.01409 0.19945 0.0
H4140 H 0.7603 0.98059 0.20319 0.0
H4141 H 0.76058 0.01183 0.20338 0.0
S4142 S 0.8303 -0.00447 0.19276 0.0
N4143 N 0.81746 0.9791 0.19369 0.0
N4144 N 0.81816 0.01226 0.19573 0.0
C4145 C 0.80274 0.00483 0.19767 0.0
C4146 C 0.80241 0.98688 0.19678 0.0
C4147 C 0.50374 0.03571 0.96657 0.0
C4148 C 0.5133 0.03914 0.95191 0.0
C4149 C 0.48596 0.03441 0.96568 0.0
C4150 C 0.47755 0.03667 0.95015 0.0
H4151 H 0.5098 0.03566 0.97888 0.0
H4152 H 0.47875 0.03306 0.97727 0.0
S4153 S 0.49726 0.04289 0.90797 0.0
N4154 N 0.51333 0.04191 0.92127 0.0
N4155 N 0.48021 0.04044 0.91975 0.0
C4156 C 0.48721 0.03842 0.93534 0.0
C4157 C 0.50507 0.03932 0.93618 0.0
C4158 C 0.48492 0.5371 0.46361 0.0
C4159 C 0.47506 0.54259 0.44985 0.0
C4160 C 0.50271 0.53616 0.46221 0.0
C4161 C 0.51094 0.54022 0.44686 0.0
H4162 H 0.47899 0.53452 0.47571 0.0
H4163 H 0.51004 0.53325 0.47343 0.0
S4164 S 0.49032 0.55276 0.40655 0.0
N4165 N 0.47472 0.55116 0.42031 0.0
N4166 N 0.5075 0.54744 0.41711 0.0
C4167 C 0.50092 0.54407 0.43269 0.0
C4168 C 0.48314 0.54584 0.43434 0.0
C4169 C 0.79331 0.25217 0.02739 0.0
C4170 C 0.7854 0.26471 0.03726 0.0
C4171 C 0.79145 0.23496 0.03131 0.0
C4172 C 0.78197 0.22994 0.04546 0.0
H4173 H 0.80252 0.25572 0.01792 0.0
H4174 H 0.79883 0.22572 0.02432 0.0
S4175 S 0.75823 0.25787 0.07477 0.0
N4176 N 0.76674 0.27092 0.06083 0.0
N4177 N 0.76417 0.23866 0.06894 0.0
C4178 C 0.77323 0.24228 0.05478 0.0
C4179 C 0.77472 0.2597 0.05048 0.0
C4180 C 0.59567 0.74545 0.81185 0.0
C4181 C 0.59116 0.7303 0.8199 0.0
C4182 C 0.58816 0.76069 0.8168 0.0
C4183 C 0.57609 0.76099 0.8299 0.0
H4184 H 0.60278 0.74512 0.80012 0.0
H4185 H 0.59022 0.77181 0.80907 0.0
S4186 S 0.56584 0.72545 0.85887 0.0
N4187 N 0.57856 0.71715 0.84449 0.0
N4188 N 0.56411 0.74569 0.85392 0.0
C4189 C 0.57443 0.74654 0.84019 0.0
C4190 C 0.58222 0.73113 0.83517 0.0
C4191 C 0.16826 0.50834 0.33743 0.0
C4192 C 0.15655 0.50917 0.32406 0.0
C4193 C 0.17346 0.49271 0.34382 0.0
C4194 C 0.16709 0.47765 0.33686 0.0
H4195 H 0.17485 0.51966 0.3415 0.0
H4196 H 0.18417 0.49241 0.35237 0.0
S4197 S 0.13204 0.47337 0.30616 0.0
N4198 N 0.1356 0.49395 0.30732 0.0
N4199 N 0.14528 0.46454 0.31971 0.0
C4200 C 0.15307 0.47852 0.32603 0.0
C4201 C 0.14782 0.49439 0.31942 0.0
C4202 C 0.45421 0.25294 0.2167 0.0
C4203 C 0.45316 0.26376 0.20257 0.0
C4204 C 0.45703 0.23545 0.21451 0.0
C4205 C 0.459 0.2286 0.19819 0.0
H4206 H 0.45115 0.25766 0.22922 0.0
H4207 H 0.4561 0.22714 0.22538 0.0
S4208 S 0.45981 0.25217 0.15763 0.0
N4209 N 0.45649 0.26679 0.17219 0.0
N4210 N 0.46161 0.23418 0.16809 0.0
C4211 C 0.45971 0.23964 0.1843 0.0
C4212 C 0.45688 0.25722 0.1865 0.0
C4213 C 0.78506 0.50461 0.71206 0.0
C4214 C 0.78847 0.51452 0.69769 0.0
C4215 C 0.78462 0.48676 0.71088 0.0
C4216 C 0.78727 0.47847 0.69523 0.0
H4217 H 0.78387 0.51056 0.72437 0.0
H4218 H 0.78336 0.47947 0.72242 0.0
S4219 S 0.79396 0.49913 0.65359 0.0
N4220 N 0.79334 0.51483 0.66734 0.0
N4221 N 0.79073 0.48185 0.66482 0.0
C4222 C 0.78895 0.48848 0.68063 0.0
C4223 C 0.79009 0.50637 0.68195 0.0
C4224 C 0.12654 0.09863 0.43456 0.0
C4225 C 0.11051 0.10528 0.43074 0.0
C4226 C 0.14065 0.10917 0.43474 0.0
C4227 C 0.13885 0.12639 0.43096 0.0
H4228 H 0.1278 0.08581 0.43927 0.0
H4229 H 0.15254 0.10431 0.43955 0.0
S4230 S 0.10022 0.14855 0.41636 0.0
N4231 N 0.09403 0.12893 0.42015 0.0
N4232 N 0.12076 0.14894 0.42031 0.0
C4233 C 0.1234 0.13249 0.42468 0.0
C4234 C 0.10905 0.12178 0.42459 0.0
C4235 C 0.8512 0.3681 0.68722 0.0
C4236 C 0.85867 0.38369 0.68312 0.0
C4237 C 0.86097 0.35348 0.68769 0.0
C4238 C 0.87823 0.35429 0.68385 0.0
H4239 H 0.8383 0.36759 0.6919 0.0
H4240 H 0.85552 0.342 0.69287 0.0
S4241 S 0.9022 0.39117 0.66781 0.0
N4242 N 0.88303 0.39858 0.67177 0.0
N4243 N 0.90156 0.37076 0.67238 0.0
C4244 C 0.88509 0.3692 0.67711 0.0
C4245 C 0.87517 0.38413 0.67679 0.0
C4246 C 0.59768 0.13295 0.93323 0.0
C4247 C 0.59942 0.11565 0.92986 0.0
C4248 C 0.61185 0.14337 0.93268 0.0
C4249 C 0.62787 0.13635 0.92939 0.0
H4250 H 0.58593 0.13793 0.93829 0.0
H4251 H 0.6107 0.15625 0.93729 0.0
S4252 S 0.63741 0.09291 0.91467 0.0
N4253 N 0.61693 0.09287 0.91885 0.0
N4254 N 0.6439 0.11243 0.9184 0.0
C4255 C 0.62905 0.11988 0.92293 0.0
C4256 C 0.61458 0.10938 0.92318 0.0
C4257 C 0.8676 0.86282 0.17935 0.0
C4258 C 0.88372 0.86128 0.18649 0.0
C4259 C 0.85928 0.8784 0.17981 0.0
C4260 C 0.86697 0.89247 0.18754 0.0
H4261 H 0.86086 0.85173 0.1749 0.0
H4262 H 0.84615 0.87899 0.17583 0.0
S4263 S 0.91059 0.89543 0.20406 0.0
N4264 N 0.9084 0.87545 0.19824 0.0
N4265 N 0.89241 0.90476 0.19955 0.0
C4266 C 0.88383 0.89151 0.19269 0.0
C4267 C 0.89235 0.87578 0.19205 0.0
C4268 C 0.10649 0.1259 0.81908 0.0
C4269 C 0.09157 0.12163 0.81047 0.0
C4270 C 0.12051 0.11526 0.81817 0.0
C4271 C 0.11963 0.10012 0.80883 0.0
H4272 H 0.10821 0.13855 0.82416 0.0
H4273 H 0.13252 0.12007 0.82271 0.0
S4274 S 0.08105 0.08045 0.79091 0.0
N4275 N 0.07496 0.09949 0.79714 0.0
N4276 N 0.10123 0.07884 0.79619 0.0
C4277 C 0.1037 0.09417 0.80363 0.0
C4278 C 0.08955 0.10516 0.80428 0.0
C4279 C 0.88094 0.352 0.05326 0.0
C4280 C 0.86366 0.35358 0.05687 0.0
C4281 C 0.89127 0.36624 0.05346 0.0
C4282 C 0.88439 0.38218 0.05716 0.0
H4283 H 0.88605 0.34012 0.04865 0.0
H4284 H 0.90424 0.36507 0.04912 0.0
S4285 S 0.84079 0.39206 0.07083 0.0
N4286 N 0.84071 0.37148 0.067 0.0
N4287 N 0.86036 0.3985 0.06717 0.0
C4288 C 0.86772 0.38356 0.06284 0.0
C4289 C 0.85721 0.36905 0.06278 0.0
C4290 C 0.62636 0.11128 0.31734 0.0
C4291 C 0.6416 0.1158 0.30938 0.0
C4292 C 0.61236 0.12202 0.31642 0.0
C4293 C 0.61359 0.13737 0.30763 0.0
H4294 H 0.62455 0.09857 0.32218 0.0
H4295 H 0.60017 0.11741 0.32071 0.0
S4296 S 0.65231 0.15713 0.29026 0.0
N4297 N 0.65841 0.13817 0.29666 0.0
N4298 N 0.63199 0.15856 0.29504 0.0
C4299 C 0.62951 0.14324 0.30248 0.0
C4300 C 0.64368 0.13234 0.30339 0.0
C4301 C 0.8684 0.85755 0.56555 0.0
C4302 C 0.873 0.8449 0.5539 0.0
C4303 C 0.87812 0.87223 0.567 0.0
C4304 C 0.89254 0.87424 0.55689 0.0
H4305 H 0.85618 0.85712 0.5718 0.0
H4306 H 0.87316 0.88278 0.57425 0.0
S4307 S 0.91251 0.84228 0.52903 0.0
N4308 N 0.89467 0.8334 0.5354 0.0
N4309 N 0.91336 0.86091 0.53852 0.0
C4310 C 0.89881 0.86037 0.54771 0.0
C4311 C 0.88882 0.84561 0.54604 0.0
C4312 C 0.43141 0.11439 0.13971 0.0
C4313 C 0.42977 0.13105 0.13383 0.0
C4314 C 0.43054 0.10089 0.1284 0.0
C4315 C 0.42806 0.10394 0.1111 0.0
H4316 H 0.43527 0.11195 0.15265 0.0
H4317 H 0.43385 0.08833 0.13281 0.0
S4318 S 0.4189 0.145 0.09053 0.0
N4319 N 0.42233 0.14976 0.11062 0.0
N4320 N 0.42063 0.12419 0.08915 0.0
C4321 C 0.42381 0.12027 0.10561 0.0
C4322 C 0.42475 0.13401 0.11712 0.0
C4323 C 0.87896 0.68876 0.39413 0.0
C4324 C 0.86376 0.68114 0.38905 0.0
C4325 C 0.89283 0.68882 0.38327 0.0
C4326 C 0.89156 0.68129 0.36725 0.0
H4327 H 0.87944 0.69642 0.40552 0.0
H4328 H 0.90367 0.69661 0.38646 0.0
S4329 S 0.85625 0.65531 0.35078 0.0
N4330 N 0.84945 0.66251 0.36922 0.0
N4331 N 0.87573 0.6626 0.34858 0.0
C4332 C 0.87754 0.67109 0.36345 0.0
C4333 C 0.86342 0.67105 0.37451 0.0
C4334 C 0.31358 0.11521 0.62966 0.0
C4335 C 0.30571 0.10043 0.62364 0.0
C4336 C 0.31275 0.13011 0.62026 0.0
C4337 C 0.30415 0.13024 0.60476 0.0
H4338 H 0.31843 0.11579 0.64249 0.0
H4339 H 0.31722 0.14181 0.62586 0.0
S4340 S 0.28654 0.09357 0.58152 0.0
N4341 N 0.29281 0.08578 0.59989 0.0
N4342 N 0.29147 0.1139 0.58195 0.0
C4343 C 0.2988 0.11497 0.59749 0.0
C4344 C 0.29959 0.09989 0.60705 0.0
C4345 C 0.88396 0.56549 0.86913 0.0
C4346 C 0.88056 0.56061 0.88584 0.0
C4347 C 0.87092 0.56578 0.85725 0.0
C4348 C 0.85447 0.56116 0.86208 0.0
H4349 H 0.89691 0.56686 0.86479 0.0
H4350 H 0.87408 0.56738 0.84399 0.0
S4351 S 0.83875 0.55275 0.9053 0.0
N4352 N 0.85941 0.5552 0.90749 0.0
N4353 N 0.83474 0.55567 0.88497 0.0
C4354 C 0.85057 0.55918 0.87922 0.0
C4355 C 0.86378 0.55893 0.89127 0.0
C4356 C 0.11292 0.42965 0.1365 0.0
C4357 C 0.1302 0.4298 0.13256 0.0
C4358 C 0.10095 0.42963 0.12357 0.0
C4359 C 0.10618 0.42981 0.10659 0.0
H4360 H 0.10873 0.43147 0.14945 0.0
H4361 H 0.08774 0.4315 0.12679 0.0
S4362 S 0.14986 0.42613 0.09023 0.0
N4363 N 0.15198 0.42693 0.11104 0.0
N4364 N 0.12928 0.42682 0.08652 0.0
C4365 C 0.12328 0.42741 0.10263 0.0
C4366 C 0.13545 0.42749 0.11579 0.0
C4367 C 0.62394 0.31381 0.10987 0.0
C4368 C 0.61942 0.30318 0.09629 0.0
C4369 C 0.61381 0.31464 0.1243 0.0
C4370 C 0.599 0.30497 0.12519 0.0
H4371 H 0.63626 0.31985 0.11021 0.0
H4372 H 0.61851 0.32121 0.1354 0.0
S4373 S 0.5793 0.27971 0.091 0.0
N4374 N 0.59755 0.28612 0.08303 0.0
N4375 N 0.57821 0.28795 0.11021 0.0
C4376 C 0.59304 0.29666 0.11067 0.0
C4377 C 0.6034 0.29567 0.0961 0.0
C4378 C 0.68846 0.85694 0.3481 0.0
C4379 C 0.68385 0.87381 0.35113 0.0
C4380 C 0.68799 0.84519 0.36121 0.0
C4381 C 0.68318 0.85023 0.37758 0.0
H4382 H 0.69403 0.85329 0.3361 0.0
H4383 H 0.69334 0.83272 0.35906 0.0
S4384 S 0.6656 0.8917 0.3905 0.0
N4385 N 0.67079 0.89407 0.37038 0.0
N4386 N 0.6702 0.87186 0.39524 0.0
C4387 C 0.67597 0.86624 0.38001 0.0
C4388 C 0.67631 0.87818 0.36663 0.0
C4389 C 0.1329 0.94495 0.5987 0.0
C4390 C 0.1169 0.9373 0.59882 0.0
C4391 C 0.14296 0.94456 0.61314 0.0
C4392 C 0.13715 0.9365 0.62786 0.0
H4393 H 0.13685 0.95267 0.58807 0.0
H4394 H 0.1545 0.95198 0.61337 0.0
S4395 S 0.09828 0.91108 0.63302 0.0
N4396 N 0.09718 0.9187 0.61357 0.0
N4397 N 0.1164 0.91798 0.64084 0.0
C4398 C 0.12245 0.92673 0.62732 0.0
C4399 C 0.11217 0.92711 0.61263 0.0
C4400 C 0.55887 0.35461 0.36954 0.0
C4401 C 0.55813 0.36248 0.35362 0.0
C4402 C 0.55816 0.36429 0.38426 0.0
C4403 C 0.55705 0.38192 0.38315 0.0
H4404 H 0.55812 0.34094 0.37057 0.0
H4405 H 0.55698 0.35799 0.39639 0.0
S4406 S 0.55824 0.40833 0.34452 0.0
N4407 N 0.55871 0.3886 0.33751 0.0
N4408 N 0.55795 0.40703 0.3654 0.0
C4409 C 0.55852 0.38994 0.3674 0.0
C4410 C 0.55894 0.38009 0.35245 0.0
C4411 C 0.14081 0.80195 0.12582 0.0
C4412 C 0.1349 0.80688 0.10982 0.0
C4413 C 0.12972 0.80124 0.13946 0.0
C4414 C 0.11271 0.80566 0.13722 0.0
H4415 H 0.15339 0.79662 0.12724 0.0
H4416 H 0.13394 0.79545 0.15116 0.0
S4417 S 0.09271 0.8239 0.09902 0.0
N4418 N 0.11238 0.81966 0.09327 0.0
N4419 N 0.09133 0.81853 0.1192 0.0
C4420 C 0.10746 0.81326 0.12208 0.0
C4421 C 0.11874 0.81388 0.10817 0.0
C4422 C 0.06426 0.36063 0.86281 0.0
C4423 C 0.05681 0.36633 0.8477 0.0
C4424 C 0.06456 0.37105 0.87705 0.0
C4425 C 0.05758 0.38731 0.8762 0.0
H4426 H 0.06811 0.34752 0.86417 0.0
H4427 H 0.06853 0.36581 0.88909 0.0
S4428 S 0.04086 0.40932 0.83842 0.0
N4429 N 0.04542 0.39 0.83175 0.0
N4430 N 0.04627 0.40987 0.85863 0.0
C4431 C 0.05241 0.39391 0.86058 0.0
C4432 C 0.05192 0.38327 0.84618 0.0
C4433 C 0.1257 0.61653 0.31627 0.0
C4434 C 0.1254 0.6009 0.30793 0.0
C4435 C 0.11126 0.62668 0.31642 0.0
C4436 C 0.09646 0.62132 0.30808 0.0
H4437 H 0.13752 0.62167 0.32099 0.0
H4438 H 0.11237 0.63952 0.32115 0.0
S4439 S 0.08837 0.57923 0.28922 0.0
N4440 N 0.10852 0.57879 0.29482 0.0
N4441 N 0.08119 0.59801 0.29504 0.0
C4442 C 0.09537 0.60464 0.30218 0.0
C4443 C 0.11002 0.59434 0.30207 0.0
C4444 C 0.37473 0.8769 0.06654 0.0
C4445 C 0.39009 0.87745 0.05776 0.0
C4446 C 0.3647 0.86241 0.06567 0.0
C4447 C 0.3699 0.8485 0.05585 0.0
H4448 H 0.36964 0.88822 0.07241 0.0
H4449 H 0.35206 0.86287 0.07099 0.0
S4450 S 0.41118 0.84258 0.03465 0.0
N4451 N 0.4118 0.86204 0.04232 0.0
N4452 N 0.39262 0.83477 0.04032 0.0
C4453 C 0.38626 0.84812 0.04914 0.0
C4454 C 0.39653 0.86273 0.05023 0.0
C4455 C 0.10991 0.6121 0.92641 0.0
C4456 C 0.09564 0.61879 0.93473 0.0
C4457 C 0.12583 0.61922 0.92899 0.0
C4458 C 0.12757 0.63329 0.93965 0.0
H4459 H 0.10922 0.6 0.91995 0.0
H4460 H 0.13687 0.61271 0.9241 0.0
S4461 S 0.09312 0.65913 0.95837 0.0
N4462 N 0.08345 0.64267 0.94979 0.0
N4463 N 0.11344 0.65664 0.95411 0.0
C4464 C 0.11301 0.64191 0.94518 0.0
C4465 C 0.09688 0.63455 0.9427 0.0
C4466 C 0.38418 0.8674 0.67718 0.0
C4467 C 0.37783 0.85158 0.68217 0.0
C4468 C 0.37375 0.88164 0.67754 0.0
C4469 C 0.35686 0.88006 0.68265 0.0
H4470 H 0.39763 0.86913 0.67504 0.0
H4471 H 0.37928 0.89403 0.67556 0.0
S4472 S 0.33352 0.84068 0.6924 0.0
N4473 N 0.35324 0.83451 0.68905 0.0
N4474 N 0.33338 0.86139 0.68938 0.0
C4475 C 0.34986 0.86398 0.68515 0.0
C4476 C 0.36048 0.84957 0.68496 0.0
C4477 C 0.56927 0.85786 0.8639 0.0
C4478 C 0.56161 0.86346 0.84887 0.0
C4479 C 0.56809 0.86763 0.87858 0.0
C4480 C 0.55939 0.88309 0.87822 0.0
H4481 H 0.57386 0.84497 0.86498 0.0
H4482 H 0.57203 0.86212 0.89051 0.0
S4483 S 0.54349 0.90578 0.84045 0.0
N4484 N 0.54975 0.88714 0.83327 0.0
N4485 N 0.54776 0.90577 0.86094 0.0
C4486 C 0.55488 0.89018 0.86258 0.0
C4487 C 0.55604 0.88025 0.84773 0.0
C4488 C 0.11173 0.31438 0.62783 0.0
C4489 C 0.11647 0.30538 0.64243 0.0
C4490 C 0.12219 0.31436 0.61361 0.0
C4491 C 0.13749 0.30545 0.61397 0.0
H4492 H 0.09914 0.31972 0.6267 0.0
H4493 H 0.11753 0.31975 0.60188 0.0
S4494 S 0.15755 0.28455 0.65073 0.0
N4495 N 0.13881 0.29075 0.65768 0.0
N4496 N 0.1587 0.29091 0.63084 0.0
C4497 C 0.14345 0.29875 0.62925 0.0
C4498 C 0.13281 0.29867 0.64364 0.0
C4499 C 0.37302 0.6726 0.85959 0.0
C4500 C 0.37157 0.68239 0.84486 0.0
C4501 C 0.36053 0.67359 0.87199 0.0
C4502 C 0.34656 0.68431 0.86963 0.0
H4503 H 0.38486 0.66643 0.86277 0.0
H4504 H 0.363 0.66793 0.88424 0.0
S4505 S 0.33399 0.70617 0.83025 0.0
N4506 N 0.35287 0.69811 0.82614 0.0
N4507 N 0.32936 0.70032 0.8498 0.0
C4508 C 0.34336 0.69107 0.85359 0.0
C4509 C 0.35594 0.68984 0.84092 0.0
C4510 C 0.86115 0.06611 0.36854 0.0
C4511 C 0.86126 0.05767 0.35296 0.0
C4512 C 0.87501 0.06466 0.37937 0.0
C4513 C 0.88897 0.05465 0.37469 0.0
H4514 H 0.84963 0.07192 0.37323 0.0
H4515 H 0.87386 0.06952 0.39216 0.0
S4516 S 0.89703 0.03497 0.33297 0.0
N4517 N 0.8777 0.04284 0.33157 0.0
N4518 N 0.90387 0.03997 0.35211 0.0
C4519 C 0.89028 0.04872 0.35805 0.0
C4520 C 0.87627 0.0503 0.34703 0.0
C4521 C 0.43595 0.64152 0.60611 0.0
C4522 C 0.43203 0.64001 0.62332 0.0
C4523 C 0.43512 0.62736 0.5956 0.0
C4524 C 0.43065 0.61151 0.6023 0.0
H4525 H 0.44143 0.65311 0.60123 0.0
H4526 H 0.44005 0.62834 0.58283 0.0
S4527 S 0.41541 0.6023 0.64554 0.0
N4528 N 0.42035 0.62263 0.64585 0.0
N4529 N 0.41908 0.59576 0.62599 0.0
C4530 C 0.42428 0.61048 0.61877 0.0
C4531 C 0.42499 0.62492 0.62943 0.0
C4532 C 0.85055 0.18144 0.856 0.0
C4533 C 0.85277 0.18101 0.87357 0.0
C4534 C 0.86453 0.17966 0.84536 0.0
C4535 C 0.88081 0.17768 0.85224 0.0
H4536 H 0.83845 0.185 0.8506 0.0
H4537 H 0.86295 0.18216 0.83195 0.0
S4538 S 0.89197 0.17124 0.8972 0.0
N4539 N 0.87135 0.17482 0.89726 0.0
N4540 N 0.89783 0.17172 0.87711 0.0
C4541 C 0.88263 0.17453 0.86956 0.0
C4542 C 0.86845 0.17628 0.88036 0.0
C4543 C 0.92644 0.6089 0.12193 0.0
C4544 C 0.93373 0.60962 0.10581 0.0
C4545 C 0.92584 0.62344 0.13193 0.0
C4546 C 0.93273 0.63869 0.12589 0.0
H4547 H 0.92281 0.59686 0.1274 0.0
H4548 H 0.92194 0.62226 0.14503 0.0
S4549 S 0.94886 0.64751 0.08288 0.0
N4550 N 0.94452 0.62704 0.08288 0.0
N4551 N 0.94359 0.65451 0.10189 0.0
C4552 C 0.93769 0.63997 0.10896 0.0
C4553 C 0.93822 0.62526 0.0988 0.0
C4554 C 0.64296 0.6071 0.44437 0.0
C4555 C 0.64253 0.62276 0.43601 0.0
C4556 C 0.62858 0.59697 0.44486 0.0
C4557 C 0.61363 0.60226 0.43688 0.0
H4558 H 0.65383 0.60355 0.45194 0.0
H4559 H 0.62869 0.58567 0.45266 0.0
S4560 S 0.60742 0.64008 0.41008 0.0
N4561 N 0.62705 0.64162 0.41711 0.0
N4562 N 0.59997 0.62219 0.4179 0.0
C4563 C 0.61378 0.6166 0.42654 0.0
C4564 C 0.62837 0.62699 0.42608 0.0
C4565 C 0.6177 0.60725 0.80638 0.0
C4566 C 0.62683 0.60194 0.79212 0.0
C4567 C 0.60217 0.61539 0.80451 0.0
C4568 C 0.59606 0.61996 0.78831 0.0
H4569 H 0.62285 0.60593 0.81901 0.0
H4570 H 0.59574 0.61928 0.81596 0.0
S4571 S 0.6117 0.60153 0.74764 0.0
N4572 N 0.62535 0.59525 0.76207 0.0
N4573 N 0.59783 0.61313 0.75804 0.0
C4574 C 0.60375 0.61212 0.77415 0.0
C4575 C 0.61889 0.6027 0.77623 0.0
C4576 C 0.3201 0.61045 0.12598 0.0
C4577 C 0.30942 0.59681 0.12198 0.0
C4578 C 0.31936 0.62521 0.11639 0.0
C4579 C 0.30816 0.62619 0.10268 0.0
H4580 H 0.32676 0.61083 0.13797 0.0
H4581 H 0.32563 0.63646 0.12115 0.0
S4582 S 0.28436 0.59102 0.0829 0.0
N4583 N 0.29227 0.58297 0.10051 0.0
N4584 N 0.2913 0.61074 0.08201 0.0
C4585 C 0.3008 0.61131 0.09635 0.0
C4586 C 0.30142 0.5964 0.10618 0.0
C4587 C 0.64369 0.81036 0.63223 0.0
C4588 C 0.63816 0.8144 0.61582 0.0
C4589 C 0.63233 0.81067 0.64572 0.0
C4590 C 0.61541 0.81526 0.64297 0.0
H4591 H 0.65602 0.80463 0.63415 0.0
H4592 H 0.63615 0.80517 0.6577 0.0
S4593 S 0.59675 0.83249 0.60361 0.0
N4594 N 0.61635 0.82733 0.59843 0.0
N4595 N 0.5949 0.82813 0.62399 0.0
C4596 C 0.6108 0.82252 0.62744 0.0
C4597 C 0.62233 0.82209 0.61369 0.0
C4598 C 0.67139 0.3798 0.86177 0.0
C4599 C 0.67881 0.37428 0.84658 0.0
C4600 C 0.67202 0.36952 0.8761 0.0
C4601 C 0.67994 0.35366 0.87521 0.0
H4602 H 0.66746 0.39287 0.86327 0.0
H4603 H 0.66843 0.37487 0.88823 0.0
S4604 S 0.69518 0.33156 0.83683 0.0
N4605 N 0.68976 0.35067 0.83023 0.0
N4606 N 0.69077 0.3311 0.85729 0.0
C4607 C 0.68425 0.34689 0.85939 0.0
C4608 C 0.68366 0.35735 0.84488 0.0
C4609 C 0.04869 0.84463 0.3795 0.0
C4610 C 0.05472 0.85142 0.36422 0.0
C4611 C 0.04878 0.85438 0.39419 0.0
C4612 C 0.05505 0.87094 0.39375 0.0
H4613 H 0.04223 0.83252 0.37963 0.0
H4614 H 0.04223 0.84974 0.40531 0.0
S4615 S 0.07562 0.89274 0.35776 0.0
N4616 N 0.06973 0.87418 0.35008 0.0
N4617 N 0.07009 0.89262 0.37795 0.0
C4618 C 0.06335 0.87684 0.37921 0.0
C4619 C 0.06315 0.86696 0.36424 0.0
C4620 C 0.3637 0.36144 0.56785 0.0
C4621 C 0.36617 0.3465 0.55855 0.0
C4622 C 0.37599 0.37409 0.56756 0.0
C4623 C 0.39077 0.3718 0.55799 0.0
H4624 H 0.35142 0.36435 0.57325 0.0
H4625 H 0.37288 0.3864 0.57278 0.0
S4626 S 0.40541 0.33245 0.53725 0.0
N4627 N 0.38606 0.32813 0.54393 0.0
N4628 N 0.40934 0.35207 0.54339 0.0
C4629 C 0.39467 0.35572 0.55162 0.0
C4630 C 0.3822 0.34289 0.55191 0.0
C4631 C 0.35764 0.37592 0.1798 0.0
C4632 C 0.365 0.39166 0.18364 0.0
C4633 C 0.3672 0.36112 0.18094 0.0
C4634 C 0.38423 0.36198 0.18572 0.0
H4635 H 0.34411 0.37487 0.17781 0.0
H4636 H 0.36092 0.34899 0.1797 0.0
S4637 S 0.41005 0.40041 0.19264 0.0
N4638 N 0.39068 0.40756 0.18922 0.0
N4639 N 0.40889 0.37957 0.191 0.0
C4640 C 0.39219 0.37774 0.18725 0.0
C4641 C 0.38245 0.39275 0.18628 0.0
C4642 C 0.3634 0.18807 0.34834 0.0
C4643 C 0.37837 0.18098 0.35479 0.0
C4644 C 0.34898 0.18905 0.35841 0.0
C4645 C 0.34929 0.18275 0.37498 0.0
H4646 H 0.36347 0.19463 0.33628 0.0
H4647 H 0.33821 0.19628 0.35392 0.0
S4648 S 0.38401 0.1589 0.39561 0.0
N4649 N 0.39174 0.16453 0.377 0.0
N4650 N 0.36436 0.16609 0.39608 0.0
C4651 C 0.36329 0.17324 0.38046 0.0
C4652 C 0.37802 0.17239 0.37024 0.0
C4653 C 0.93057 0.10316 0.63238 0.0
C4654 C 0.92931 0.10521 0.61482 0.0
C4655 C 0.92974 0.11724 0.64297 0.0
C4656 C 0.92796 0.1335 0.63605 0.0
H4657 H 0.9339 0.09097 0.63773 0.0
H4658 H 0.93257 0.11566 0.65631 0.0
S4659 S 0.92076 0.14475 0.59126 0.0
N4660 N 0.92328 0.12398 0.5912 0.0
N4661 N 0.92219 0.15069 0.61128 0.0
C4662 C 0.92453 0.1354 0.61881 0.0
C4663 C 0.92513 0.12107 0.60806 0.0
C4664 C 0.81789 0.11402 0.12789 0.0
C4665 C 0.80915 0.09894 0.1245 0.0
C4666 C 0.82022 0.12589 0.11505 0.0
C4667 C 0.8136 0.12277 0.09884 0.0
H4668 H 0.82096 0.11756 0.14079 0.0
H4669 H 0.82461 0.13841 0.11854 0.0
S4670 S 0.79628 0.08238 0.08269 0.0
N4671 N 0.79858 0.07938 0.10327 0.0
N4672 N 0.80347 0.10165 0.07886 0.0
C4673 C 0.80847 0.10628 0.09467 0.0
C4674 C 0.80578 0.09436 0.10775 0.0
C4675 C 0.36747 0.567 0.36474 0.0
C4676 C 0.36574 0.5559 0.35103 0.0
C4677 C 0.3821 0.56655 0.37457 0.0
C4678 C 0.39506 0.55489 0.37084 0.0
H4679 H 0.35681 0.57449 0.36906 0.0
H4680 H 0.38221 0.57368 0.38629 0.0
S4681 S 0.39863 0.52797 0.33267 0.0
N4682 N 0.37963 0.53665 0.33138 0.0
N4683 N 0.40727 0.53566 0.35012 0.0
C4684 C 0.39464 0.54607 0.35547 0.0
C4685 C 0.37981 0.5466 0.34544 0.0
C4686 C 0.62578 0.42722 0.60611 0.0
C4687 C 0.60899 0.43286 0.60621 0.0
C4688 C 0.63507 0.42729 0.62112 0.0
C4689 C 0.62761 0.43312 0.63618 0.0
H4690 H 0.63218 0.42455 0.59427 0.0
H4691 H 0.64855 0.42478 0.62056 0.0
S4692 S 0.58289 0.44481 0.64325 0.0
N4693 N 0.58426 0.44075 0.62277 0.0
N4694 N 0.60201 0.44138 0.65103 0.0
C4695 C 0.61026 0.43638 0.63676 0.0
C4696 C 0.6008 0.43611 0.62162 0.0
C4697 C 0.17047 0.85893 0.8706 0.0
C4698 C 0.18091 0.84457 0.87012 0.0
C4699 C 0.17073 0.87032 0.85715 0.0
C4700 C 0.18142 0.86733 0.84328 0.0
H4701 H 0.16431 0.86271 0.88227 0.0
H4702 H 0.16469 0.88254 0.85881 0.0
S4703 S 0.20517 0.82821 0.83359 0.0
N4704 N 0.19742 0.82521 0.8528 0.0
N4705 N 0.19828 0.84701 0.82751 0.0
C4706 C 0.18885 0.8514 0.84123 0.0
C4707 C 0.18841 0.83975 0.85478 0.0
C4708 C 0.62665 0.92397 0.12272 0.0
C4709 C 0.64112 0.93419 0.12207 0.0
C4710 C 0.61506 0.92434 0.10944 0.0
C4711 C 0.61788 0.93497 0.09546 0.0
H4712 H 0.62313 0.91756 0.13433 0.0
H4713 H 0.60292 0.9182 0.11124 0.0
S4714 S 0.65707 0.95845 0.08534 0.0
N4715 N 0.66018 0.95087 0.1046 0.0
N4716 N 0.6382 0.95161 0.07945 0.0
C4717 C 0.63381 0.94242 0.09332 0.0
C4718 C 0.64559 0.94202 0.10679 0.0
C4719 C 0.3475 0.0502 0.88479 0.0
C4720 C 0.34883 0.0559 0.86807 0.0
C4721 C 0.36159 0.05054 0.89534 0.0
C4722 C 0.37725 0.05625 0.88916 0.0
H4723 H 0.3361 0.0439 0.8891 0.0
H4724 H 0.36076 0.04446 0.90761 0.0
S4725 S 0.38572 0.07659 0.84788 0.0
N4726 N 0.36565 0.07079 0.84699 0.0
N4727 N 0.39245 0.07105 0.8669 0.0
C4728 C 0.378 0.0644 0.87346 0.0
C4729 C 0.36359 0.06424 0.86277 0.0
C4730 C 0.81739 0.61715 0.62923 0.0
C4731 C 0.80994 0.60167 0.6247 0.0
C4732 C 0.81643 0.63093 0.61824 0.0
C4733 C 0.8081 0.6292 0.60268 0.0
H4734 H 0.82186 0.61923 0.64204 0.0
H4735 H 0.82033 0.6433 0.62273 0.0
S4736 S 0.79162 0.5899 0.5833 0.0
N4737 N 0.79781 0.58425 0.60247 0.0
N4738 N 0.79613 0.61026 0.58159 0.0
C4739 C 0.80331 0.61312 0.59697 0.0
C4740 C 0.80425 0.59918 0.60813 0.0
C4741 C 0.17485 0.36616 0.37576 0.0
C4742 C 0.18355 0.35074 0.37515 0.0
C4743 C 0.17509 0.37693 0.36178 0.0
C4744 C 0.18418 0.37239 0.34716 0.0
H4745 H 0.16947 0.37067 0.38757 0.0
H4746 H 0.16995 0.38959 0.36317 0.0
S4747 S 0.20463 0.33124 0.33814 0.0
N4748 N 0.19807 0.32975 0.35796 0.0
N4749 N 0.19863 0.35017 0.33153 0.0
C4750 C 0.19063 0.35595 0.34564 0.0
C4751 C 0.19032 0.34501 0.35979 0.0
C4752 C 0.06712 0.01715 0.51547 0.0
C4753 C 0.08225 0.00911 0.52021 0.0
C4754 C 0.06728 0.03166 0.50542 0.0
C4755 C 0.08258 0.03885 0.49979 0.0
H4756 H 0.055 0.01167 0.51874 0.0
H4757 H 0.05522 0.03677 0.50144 0.0
S4758 S 0.12578 0.02404 0.51103 0.0
N4759 N 0.11298 0.01035 0.5203 0.0
N4760 N 0.11339 0.03779 0.50131 0.0
C4761 C 0.09787 0.03164 0.50548 0.0
C4762 C 0.09768 0.0167 0.51566 0.0
C4763 C 0.95698 0.32051 0.76187 0.0
C4764 C 0.95176 0.33536 0.75349 0.0
C4765 C 0.97248 0.31971 0.77037 0.0
C4766 C 0.98338 0.33377 0.77103 0.0
H4767 H 0.94964 0.30898 0.76082 0.0
H4768 H 0.97638 0.30761 0.77549 0.0
S4769 S 0.97384 0.37686 0.75495 0.0
N4770 N 0.95745 0.36534 0.74897 0.0
N4771 N 0.98647 0.36386 0.76537 0.0
C4772 C 0.97753 0.34921 0.76434 0.0
C4773 C 0.96169 0.35003 0.75559 0.0
C4774 C 0.66581 0.20288 0.01813 0.0
C4775 C 0.66302 0.20145 0.00059 0.0
C4776 C 0.66375 0.21842 0.02654 0.0
C4777 C 0.65868 0.23313 0.0178 0.0
H4778 H 0.67041 0.19215 0.02532 0.0
H4779 H 0.6666 0.21903 0.03994 0.0
S4780 S 0.64734 0.23559 0.97228 0.0
N4781 N 0.65307 0.2157 0.97518 0.0
N4782 N 0.64944 0.24484 0.99089 0.0
C4783 C 0.65479 0.23162 0.0005 0.0
C4784 C 0.65693 0.21581 0.99192 0.0
C4785 C 0.75537 0.89804 0.25271 0.0
C4786 C 0.75537 0.90736 0.26794 0.0
C4787 C 0.76949 0.89788 0.24196 0.0
C4788 C 0.78407 0.90732 0.24579 0.0
H4789 H 0.74415 0.89132 0.24864 0.0
H4790 H 0.76864 0.89104 0.23011 0.0
S4791 S 0.79206 0.93105 0.28543 0.0
N4792 N 0.77251 0.92395 0.28752 0.0
N4793 N 0.79861 0.92449 0.26667 0.0
C4794 C 0.78469 0.91593 0.26132 0.0
C4795 C 0.77046 0.91575 0.27254 0.0
C4796 C 0.08086 0.20624 0.72165 0.0
C4797 C 0.08108 0.20537 0.73946 0.0
C4798 C 0.08048 0.22188 0.71326 0.0
C4799 C 0.08086 0.23713 0.72241 0.0
H4800 H 0.08045 0.19475 0.71413 0.0
H4801 H 0.07982 0.22212 0.69956 0.0
S4802 S 0.08247 0.24201 0.76895 0.0
N4803 N 0.0821 0.22133 0.76581 0.0
N4804 N 0.08205 0.25064 0.74991 0.0
C4805 C 0.08168 0.23651 0.74009 0.0
C4806 C 0.0816 0.22063 0.74866 0.0
C4807 C 0.78648 0.32815 0.977 0.0
C4808 C 0.78867 0.33919 0.99074 0.0
C4809 C 0.77253 0.32979 0.96616 0.0
C4810 C 0.75997 0.34219 0.96896 0.0
H4811 H 0.79543 0.31797 0.97484 0.0
H4812 H 0.77139 0.32094 0.95575 0.0
S4813 S 0.75987 0.37386 0.00382 0.0
N4814 N 0.77753 0.36304 0.00662 0.0
N4815 N 0.75083 0.36565 0.98685 0.0
C4816 C 0.76227 0.35354 0.98256 0.0
C4817 C 0.77673 0.35211 0.99333 0.0
C4818 C 0.66919 0.03067 0.23286 0.0
C4819 C 0.65434 0.03844 0.23888 0.0
C4820 C 0.66854 0.01652 0.22228 0.0
C4821 C 0.65301 0.00944 0.2172 0.0
H4822 H 0.6815 0.03512 0.23687 0.0
H4823 H 0.68041 0.01064 0.21876 0.0
S4824 S 0.61034 0.02595 0.22796 0.0
N4825 N 0.62351 0.03871 0.23802 0.0
N4826 N 0.62234 0.01214 0.21779 0.0
C4827 C 0.63801 0.01756 0.22239 0.0
C4828 C 0.63866 0.03208 0.23323 0.0
C4829 C 0.9553 0.90048 0.48136 0.0
C4830 C 0.9494 0.91563 0.48864 0.0
C4831 C 0.97121 0.89968 0.47355 0.0
C4832 C 0.98162 0.91408 0.4725 0.0
H4833 H 0.94774 0.88905 0.48203 0.0
H4834 H 0.97537 0.88776 0.46818 0.0
S4835 S 0.97176 0.95695 0.48894 0.0
N4836 N 0.95501 0.94545 0.49377 0.0
N4837 N 0.98491 0.94392 0.47923 0.0
C4838 C 0.97576 0.92935 0.47947 0.0
C4839 C 0.95965 0.93012 0.48753 0.0
C4840 C 0.50873 0.06953 0.03427 0.0
C4841 C 0.50229 0.08455 0.04137 0.0
C4842 C 0.51943 0.06986 0.0202 0.0
C4843 C 0.52412 0.08526 0.01261 0.0
H4844 H 0.5048 0.05731 0.03905 0.0
H4845 H 0.52314 0.05789 0.01466 0.0
S4846 S 0.51301 0.12828 0.02792 0.0
N4847 N 0.50293 0.11538 0.04091 0.0
N4848 N 0.5234 0.11598 0.01456 0.0
C4849 C 0.51889 0.10043 0.02036 0.0
C4850 C 0.50794 0.1001 0.03476 0.0
C4851 C 0.90811 0.74169 0.27089 0.0
C4852 C 0.90873 0.75132 0.28596 0.0
C4853 C 0.90655 0.74945 0.255 0.0
C4854 C 0.90572 0.76713 0.25355 0.0
H4855 H 0.90948 0.72805 0.27127 0.0
H4856 H 0.90693 0.74163 0.24373 0.0
S4857 S 0.90444 0.79808 0.28881 0.0
N4858 N 0.90653 0.77955 0.29826 0.0
N4859 N 0.90382 0.794 0.2683 0.0
C4860 C 0.9053 0.77686 0.26843 0.0
C4861 C 0.9067 0.76899 0.28466 0.0
C4862 C 0.23693 0.14508 0.52765 0.0
C4863 C 0.24057 0.16037 0.5361 0.0
C4864 C 0.22731 0.14494 0.51269 0.0
C4865 C 0.22075 0.16002 0.50589 0.0
H4866 H 0.24225 0.13324 0.5321 0.0
H4867 H 0.22522 0.13302 0.50623 0.0
S4868 S 0.22541 0.20315 0.52404 0.0
N4869 N 0.23596 0.19076 0.53709 0.0
N4870 N 0.21789 0.19051 0.50922 0.0
C4871 C 0.22363 0.17524 0.51469 0.0
C4872 C 0.23353 0.1754 0.52974 0.0
C4873 C 0.82478 0.47709 0.78373 0.0
C4874 C 0.83686 0.48961 0.78711 0.0
C4875 C 0.82463 0.46854 0.76817 0.0
C4876 C 0.83612 0.47269 0.75507 0.0
H4877 H 0.81506 0.47424 0.79299 0.0
H4878 H 0.81507 0.45892 0.76637 0.0
S4879 S 0.87042 0.50493 0.75823 0.0
N4880 N 0.86109 0.50537 0.77691 0.0
N4881 N 0.86023 0.4904 0.7472 0.0
C4882 C 0.84861 0.48501 0.75866 0.0
C4883 C 0.84908 0.49322 0.77477 0.0
C4884 C 0.52188 0.16803 0.2189 0.0
C4885 C 0.52528 0.15275 0.22743 0.0
C4886 C 0.51151 0.16848 0.20461 0.0
C4887 C 0.5038 0.15373 0.19829 0.0
H4888 H 0.52631 0.18002 0.22378 0.0
H4889 H 0.50866 0.18074 0.1992 0.0
S4890 S 0.5115 0.10994 0.21363 0.0
N4891 N 0.52255 0.12205 0.22661 0.0
N4892 N 0.5024 0.12297 0.20005 0.0
C4893 C 0.5083 0.13813 0.20567 0.0
C4894 C 0.51911 0.13764 0.22021 0.0
C4895 C 0.8179 0.77045 0.4684 0.0
C4896 C 0.83352 0.77506 0.47558 0.0
C4897 C 0.81719 0.76005 0.45412 0.0
C4898 C 0.83206 0.75424 0.44622 0.0
H4899 H 0.80611 0.77375 0.47455 0.0
H4900 H 0.80488 0.75578 0.44986 0.0
S4901 S 0.87595 0.76687 0.45734 0.0
N4902 N 0.86402 0.77598 0.4719 0.0
N4903 N 0.86279 0.75661 0.44473 0.0
C4904 C 0.8477 0.76051 0.45203 0.0
C4905 C 0.8484 0.77088 0.46682 0.0
C4906 C 0.24281 0.07418 0.71805 0.0
C4907 C 0.24109 0.08493 0.70391 0.0
C4908 C 0.2325 0.07602 0.7323 0.0
C4909 C 0.22004 0.08866 0.73304 0.0
H4910 H 0.25236 0.06434 0.71828 0.0
H4911 H 0.23434 0.06753 0.74291 0.0
S4912 S 0.20942 0.11938 0.69927 0.0
N4913 N 0.22536 0.10833 0.6914 0.0
N4914 N 0.2059 0.11165 0.71838 0.0
C4915 C 0.21801 0.09945 0.71908 0.0
C4916 C 0.22853 0.0976 0.70446 0.0
C4917 C 0.8948 0.49375 0.96856 0.0
C4918 C 0.90357 0.48854 0.95402 0.0
C4919 C 0.89608 0.48467 0.98372 0.0
C4920 C 0.90611 0.46994 0.98486 0.0
H4921 H 0.88765 0.50548 0.96848 0.0
H4922 H 0.88978 0.48971 0.99479 0.0
S4923 S 0.92934 0.44968 0.94921 0.0
N4924 N 0.92124 0.4671 0.94095 0.0
N4925 N 0.92312 0.44942 0.96918 0.0
C4926 C 0.91404 0.46401 0.96996 0.0
C4927 C 0.91291 0.47348 0.9546 0.0
C4928 C 0.00573 0.50158 0.08585 0.0
C4929 C 0.00481 0.51926 0.08593 0.0
C4930 C 0.02118 0.49338 0.08311 0.0
C4931 C 0.03628 0.50261 0.08043 0.0
H4932 H 0.99426 0.49411 0.08662 0.0
H4933 H 0.02103 0.47972 0.08211 0.0
S4934 S 0.04062 0.54934 0.08298 0.0
N4935 N 0.02018 0.54582 0.08561 0.0
N4936 N 0.04946 0.5305 0.08068 0.0
C4937 C 0.03567 0.52033 0.08216 0.0
C4938 C 0.01985 0.52864 0.08481 0.0
C4939 C 0.52367 0.24509 0.15941 0.0
C4940 C 0.53956 0.23687 0.15966 0.0
C4941 C 0.50875 0.23621 0.15574 0.0
C4942 C 0.50915 0.21883 0.15219 0.0
H4943 H 0.52257 0.25833 0.16284 0.0
H4944 H 0.49673 0.24272 0.1567 0.0
S4945 S 0.54716 0.19168 0.14896 0.0
N4946 N 0.55467 0.21051 0.15413 0.0
N4947 N 0.52641 0.19393 0.14768 0.0
C4948 C 0.52486 0.21066 0.15138 0.0
C4949 C 0.54012 0.21966 0.15494 0.0
C4950 C 0.74495 0.77193 0.40645 0.0
C4951 C 0.75406 0.7869 0.41004 0.0
C4952 C 0.75324 0.75692 0.40196 0.0
C4953 C 0.77093 0.75632 0.40095 0.0
H4954 H 0.73135 0.77143 0.40807 0.0
H4955 H 0.74589 0.74542 0.40065 0.0
S4956 S 0.80056 0.79232 0.40602 0.0
N4957 N 0.78171 0.80054 0.40989 0.0
N4958 N 0.79722 0.77217 0.40153 0.0
C4959 C 0.78009 0.77144 0.40296 0.0
C4960 C 0.77168 0.78678 0.40748 0.0
C4961 C 0.227 0.00733 0.64569 0.0
C4962 C 0.22799 0.02314 0.65387 0.0
C4963 C 0.21239 -0.00256 0.64675 0.0
C4964 C 0.1983 0.003 0.65602 0.0
H4965 H 0.23788 0.00214 0.63918 0.0
H4966 H 0.21241 0.985 0.64094 0.0
S4967 S 0.19335 0.04422 0.67773 0.0
N4968 N 0.21273 0.04471 0.66986 0.0
N4969 N 0.1854 0.02563 0.67229 0.0
C4970 C 0.19866 0.01905 0.66352 0.0
C4971 C 0.2135 0.02926 0.66232 0.0
C4972 C 0.47305 0.47516 0.42674 0.0
C4973 C 0.46754 0.48275 0.41162 0.0
C4974 C 0.48241 0.46013 0.42655 0.0
C4975 C 0.4866 0.45201 0.41124 0.0
H4976 H 0.47087 0.48129 0.43881 0.0
H4977 H 0.48702 0.45525 0.4385 0.0
S4978 S 0.47311 0.46539 0.36825 0.0
N4979 N 0.4652 0.47996 0.38101 0.0
N4980 N 0.48314 0.45184 0.38061 0.0
C4981 C 0.48021 0.45882 0.39607 0.0
C4982 C 0.47065 0.47419 0.39627 0.0
C4983 C 0.22288 0.72594 0.10029 0.0
C4984 C 0.23049 0.71836 0.08611 0.0
C4985 C 0.20764 0.73494 0.09874 0.0
C4986 C 0.19974 0.73692 0.08286 0.0
H4987 H 0.22906 0.72533 0.11252 0.0
H4988 H 0.20264 0.74124 0.10985 0.0
S4989 S 0.21398 0.71842 0.04208 0.0
N4990 N 0.22844 0.71249 0.05591 0.0
N4991 N 0.20006 0.72949 0.05304 0.0
C4992 C 0.20682 0.72864 0.06881 0.0
C4993 C 0.22215 0.71934 0.07041 0.0
C4994 C 0.74233 0.96825 0.33984 0.0
C4995 C 0.75061 0.95302 0.33574 0.0
C4996 C 0.75136 0.98334 0.34169 0.0
C4997 C 0.76893 0.98378 0.33907 0.0
H4998 H 0.72868 0.96861 0.34108 0.0
H4999 H 0.74441 0.99493 0.34403 0.0
S5000 S 0.79671 0.94693 0.3302 0.0
N5001 N 0.77742 0.93884 0.33084 0.0
N5002 N 0.79453 0.96742 0.33392 0.0
C5003 C 0.77748 0.96844 0.33593 0.0
C5004 C 0.76828 0.95298 0.33436 0.0
C5005 C 0.99472 0.27163 0.81854 0.0
C5006 C 0.99337 0.28465 0.83069 0.0
C5007 C 0.98487 0.25706 0.81957 0.0
C5008 C 0.97334 0.25474 0.83282 0.0
H5009 H 0.00357 0.27254 0.8081 0.0
H5010 H 0.98629 0.24748 0.80988 0.0
S5011 S 0.96368 0.2851 0.86721 0.0
N5012 N 0.9787 0.29449 0.85605 0.0
N5013 N 0.96022 0.26667 0.85789 0.0
C5014 C 0.97156 0.26754 0.845 0.0
C5015 C 0.98154 0.28261 0.84393 0.0
C5016 C 0.88678 0.98312 0.48124 0.0
C5017 C 0.89658 0.96846 0.48363 0.0
C5018 C 0.88776 0.99233 0.46609 0.0
C5019 C 0.8989 0.9874 0.45305 0.0
H5020 H 0.87914 0.98809 0.49148 0.0
H5021 H 0.88061 0.00398 0.4651 0.0
S5022 S 0.9238 0.94783 0.45127 0.0
N5023 N 0.91464 0.94742 0.47003 0.0
N5024 N 0.91774 0.96572 0.44231 0.0
C5025 C 0.90761 0.97209 0.45467 0.0
C5026 C 0.90611 0.96235 0.46978 0.0
C5027 C 0.02155 0.66649 0.22098 0.0
C5028 C 0.018 0.65478 0.23407 0.0
C5029 C 0.01211 0.66685 0.206 0.0
C5030 C -0.00075 0.65509 0.20305 0.0
H5031 H 0.03133 0.67594 0.22229 0.0
H5032 H 0.01456 0.67672 0.19685 0.0
S5033 S 0.98546 0.62061 0.23159 0.0
N5034 N 0.00074 0.63029 0.24202 0.0
N5035 N 0.98386 0.6307 0.21339 0.0
C5036 C -0.00379 0.64256 0.2152 0.0
C5037 C 0.00542 0.64242 0.23079 0.0
C5038 C 0.31783 0.76766 0.97499 0.0
C5039 C 0.33288 0.77214 0.98335 0.0
C5040 C 0.31813 0.75831 0.95994 0.0
C5041 C 0.33349 0.75309 0.95253 0.0
H5042 H 0.30566 0.77063 0.98055 0.0
H5043 H 0.30613 0.75453 0.95449 0.0
S5044 S 0.37655 0.76398 0.96802 0.0
N5045 N 0.36363 0.77255 0.98207 0.0
N5046 N 0.36427 0.75475 0.95382 0.0
C5047 C 0.3487 0.75853 0.96011 0.0
C5048 C 0.34837 0.76805 0.97553 0.0
C5049 C 0.23107 0.66583 0.03724 0.0
C5050 C 0.24524 0.65532 0.03939 0.0
C5051 C 0.22127 0.66495 0.02244 0.0
C5052 C 0.22558 0.65388 0.00905 0.0
H5053 H 0.22761 0.67482 0.04701 0.0
H5054 H 0.2103 0.6731 0.02149 0.0
S5055 S 0.26259 0.62469 0.00835 0.0
N5056 N 0.26341 0.6338 0.02714 0.0
N5057 N 0.24583 0.63284 -0.00109 0.0
C5058 C 0.23993 0.64343 0.01113 0.0
C5059 C 0.24955 0.64401 0.02639 0.0
C5060 C 0.34761 0.9791 0.76358 0.0
C5061 C 0.33309 0.97031 0.75817 0.0
C5062 C 0.34728 0.98937 0.77814 0.0
C5063 C 0.33237 0.99128 0.78778 0.0
H5064 H 0.35915 0.97845 0.7562 0.0
H5065 H 0.35852 -0.00342 0.78126 0.0
S5066 S 0.29131 0.96985 0.77987 0.0
N5067 N 0.30357 0.96369 0.76415 0.0
N5068 N 0.30338 0.982 0.79176 0.0
C5069 C 0.31819 0.98161 0.7831 0.0
C5070 C 0.31841 0.97139 0.76823 0.0
C5071 C 0.01772 0.09977 0.5195 0.0
C5072 C 0.01997 0.08532 0.50933 0.0
C5073 C 0.0081 0.09902 0.5345 0.0
C5074 C 0.00019 0.08385 0.53966 0.0
H5075 H 0.02344 0.11167 0.51581 0.0
H5076 H 0.00648 0.11053 0.54179 0.0
S5077 S 0.00185 0.04267 0.51679 0.0
N5078 N 0.01328 0.05564 0.50514 0.0
N5079 N -0.00463 0.05413 0.53299 0.0
C5080 C 0.00249 0.06937 0.52947 0.0
C5081 C 0.01231 0.07013 0.51439 0.0
C5082 C 0.45283 0.89456 0.97996 0.0
C5083 C 0.4478 0.91052 0.98617 0.0
C5084 C 0.46775 0.89269 0.97049 0.0
C5085 C 0.47791 0.90676 0.96656 0.0
H5086 H 0.44571 0.88329 0.98319 0.0
H5087 H 0.4716 0.88014 0.96652 0.0
S5088 S 0.46978 0.95144 0.97893 0.0
N5089 N 0.45389 0.94067 0.98712 0.0
N5090 N 0.48148 0.93729 0.96899 0.0
C5091 C 0.47254 0.92288 0.97195 0.0
C5092 C 0.4576 0.92472 0.98185 0.0
C5093 C 0.77054 0.84733 0.49889 0.0
C5094 C 0.78553 0.83839 0.49525 0.0
C5095 C 0.75652 0.84649 0.48801 0.0
C5096 C 0.75698 0.83669 0.47312 0.0
H5097 H 0.76922 0.85413 0.51073 0.0
H5098 H 0.74496 0.85285 0.49175 0.0
S5099 S 0.79439 0.81382 0.45619 0.0
N5100 N 0.80084 0.82157 0.47452 0.0
N5101 N 0.77451 0.81995 0.4541 0.0
C5102 C 0.77231 0.82876 0.46872 0.0
C5103 C 0.78659 0.82965 0.47977 0.0
C5104 C 0.17143 0.51347 0.22598 0.0
C5105 C 0.15642 0.50924 0.21741 0.0
C5106 C 0.1723 0.52764 0.23653 0.0
C5107 C 0.15815 0.5382 0.23906 0.0
H5108 H 0.18249 0.50542 0.22501 0.0
H5109 H 0.18408 0.52999 0.24315 0.0
S5110 S 0.11623 0.53348 0.21817 0.0
N5111 N 0.12745 0.51731 0.21106 0.0
N5112 N 0.12889 0.544 0.23108 0.0
C5113 C 0.1432 0.5345 0.23001 0.0
C5114 C 0.14235 0.51997 0.21923 0.0
C5115 C 0.4675 0.82662 0.77615 0.0
C5116 C 0.4814 0.83706 0.77205 0.0
C5117 C 0.45312 0.82592 0.76577 0.0
C5118 C 0.45192 0.83599 0.75122 0.0
H5119 H 0.46793 0.8185 0.78717 0.0
H5120 H 0.44308 0.81713 0.76887 0.0
S5121 S 0.48418 0.86576 0.73483 0.0
N5122 N 0.49265 0.85788 0.75223 0.0
N5123 N 0.4653 0.85696 0.73327 0.0
C5124 C 0.46521 0.84709 0.74737 0.0
C5125 C 0.48002 0.84759 0.75769 0.0
C5126 C 0.17301 0.21298 0.50319 0.0
C5127 C 0.15791 0.20423 0.49961 0.0
C5128 C 0.17301 0.22779 0.51287 0.0
C5129 C 0.1579 0.2346 0.51939 0.0
H5130 H 0.18498 0.20862 0.49808 0.0
H5131 H 0.18495 0.23425 0.51476 0.0
S5132 S 0.11497 0.21603 0.51473 0.0
N5133 N 0.12743 0.20306 0.50402 0.0
N5134 N 0.12748 0.23087 0.52251 0.0
C5135 C 0.14272 0.22572 0.51642 0.0
C5136 C 0.14273 0.21052 0.50654 0.0
C5137 C 0.06681 0.52636 -0.00054 0.0
C5138 C 0.0807 0.53753 -0.00085 0.0
C5139 C 0.06725 0.51144 0.00884 0.0
C5140 C 0.08151 0.50689 0.01832 0.0
H5141 H 0.05548 0.52896 0.99218 0.0
H5142 H 0.05641 0.50317 0.00849 0.0
S5143 S 0.12087 0.53197 0.02301 0.0
N5144 N 0.10905 0.54326 0.00995 0.0
N5145 N 0.10963 0.51498 0.02774 0.0
C5146 C 0.09543 0.51796 0.01853 0.0
C5147 C 0.09503 0.53335 0.00897 0.0
C5148 C 0.96781 0.46799 0.91837 0.0
C5149 C 0.96456 0.4769 0.90328 0.0
C5150 C 0.9788 0.45418 0.91864 0.0
C5151 C 0.98681 0.44848 0.90383 0.0
H5152 H 0.96286 0.47236 0.93036 0.0
H5153 H 0.9817 0.4485 0.93076 0.0
S5154 S 0.97948 0.46482 0.86037 0.0
N5155 N 0.96788 0.47717 0.87265 0.0
N5156 N 0.98871 0.45109 0.87315 0.0
C5157 C 0.98235 0.4561 0.88835 0.0
C5158 C 0.9712 0.47036 0.88809 0.0
C5159 C 0.49563 0.77108 0.83463 0.0
C5160 C 0.48854 0.78745 0.83471 0.0
C5161 C 0.48567 0.75678 0.83797 0.0
C5162 C 0.46826 0.75838 0.8412 0.0
H5163 H 0.50892 0.76928 0.83175 0.0
H5164 H 0.49138 0.74433 0.83714 0.0
S5165 S 0.44357 0.79815 0.84306 0.0
N5166 N 0.4631 0.80435 0.83885 0.0
N5167 N 0.44435 0.7773 0.84454 0.0
C5168 C 0.46109 0.7746 0.84164 0.0
C5169 C 0.47124 0.78919 0.83857 0.0
C5170 C 0.20838 0.23125 0.56996 0.0
C5171 C 0.20295 0.24023 0.58429 0.0
C5172 C 0.22358 0.22223 0.57014 0.0
C5173 C 0.23401 0.22201 0.58455 0.0
H5174 H 0.20121 0.23181 0.55828 0.0
H5175 H 0.22771 0.21625 0.55858 0.0
S5176 S 0.22487 0.24242 0.62579 0.0
N5177 N 0.20856 0.24751 0.61373 0.0
N5178 N 0.23734 0.23052 0.6139 0.0
C5179 C 0.22836 0.23025 0.59925 0.0
C5180 C 0.21272 0.23931 0.59917 0.0
C5181 C 0.52351 0.49489 0.56901 0.0
C5182 C 0.53484 0.49314 0.5827 0.0
C5183 C 0.50966 0.50585 0.56986 0.0
C5184 C 0.50649 0.51562 0.58437 0.0
H5185 H 0.52503 0.48743 0.5576 0.0
H5186 H 0.50113 0.50644 0.55914 0.0
S5187 S 0.53282 0.51703 0.62318 0.0
N5188 N 0.54234 0.50293 0.61098 0.0
N5189 N 0.51617 0.5237 0.61241 0.0
C5190 C 0.51779 0.51436 0.59805 0.0
C5191 C 0.53201 0.50313 0.59723 0.0
C5192 C 0.75786 0.28232 0.89651 0.0
C5193 C 0.74938 0.28776 0.91125 0.0
C5194 C 0.76619 0.26665 0.89588 0.0
C5195 C 0.76657 0.25584 0.91 0.0
H5196 H 0.75783 0.29004 0.88519 0.0
H5197 H 0.7725 0.26301 0.88426 0.0
S5198 S 0.74678 0.26409 0.95183 0.0
N5199 N 0.7423 0.28107 0.94051 0.0
N5200 N 0.75786 0.25161 0.93921 0.0
C5201 C 0.75843 0.26117 0.92492 0.0
C5202 C 0.74986 0.27711 0.92556 0.0
C5203 C 0.00911 0.73092 0.14146 0.0
C5204 C 0.00741 0.71776 0.15338 0.0
C5205 C 0.02391 0.74064 0.14056 0.0
C5206 C 0.03739 0.73786 0.15185 0.0
H5207 H -0.00139 0.73445 0.13341 0.0
H5208 H 0.02417 0.75131 0.13195 0.0
S5209 S 0.04123 0.70252 0.18233 0.0
N5210 N 0.02214 0.70029 0.1741 0.0
N5211 N 0.04944 0.71941 0.17317 0.0
C5212 C 0.03654 0.72388 0.16271 0.0
C5213 C 0.02165 0.71366 0.16334 0.0
C5214 C 0.95949 0.81787 0.25263 0.0
C5215 C 0.95042 0.83248 0.24794 0.0
C5216 C 0.97336 0.81878 0.2635 0.0
C5217 C 0.97874 0.83431 0.27036 0.0
H5218 H 0.95635 0.80561 0.24732 0.0
H5219 H 0.98034 0.80724 0.26594 0.0
S5220 S 0.95802 0.87599 0.26418 0.0
N5221 N 0.94688 0.86283 0.25234 0.0
N5222 N 0.97293 0.86439 0.27316 0.0
C5223 C 0.96928 0.84891 0.26661 0.0
C5224 C 0.95508 0.84802 0.25541 0.0
C5225 C 0.63876 0.72083 0.51793 0.0
C5226 C 0.65258 0.73096 0.52263 0.0
C5227 C 0.64072 0.70753 0.50623 0.0
C5228 C 0.65653 0.70415 0.4986 0.0
H5229 H 0.62637 0.72328 0.52329 0.0
H5230 H 0.62965 0.7002 0.50281 0.0
S5231 S 0.69657 0.72778 0.50621 0.0
N5232 N 0.68252 0.73695 0.5186 0.0
N5233 N 0.68617 0.71247 0.49659 0.0
C5234 C 0.67044 0.71426 0.50334 0.0
C5235 C 0.66848 0.72755 0.51534 0.0
C5236 C 0.78069 0.42319 0.75407 0.0
C5237 C 0.78729 0.40849 0.74646 0.0
C5238 C 0.76656 0.42253 0.76469 0.0
C5239 C 0.75841 0.4071 0.76844 0.0
H5240 H 0.78601 0.4355 0.75125 0.0
H5241 H 0.76163 0.43442 0.76936 0.0
S5242 S 0.77211 0.36454 0.75366 0.0
N5243 N 0.78548 0.37776 0.74456 0.0
N5244 N 0.7593 0.37645 0.76511 0.0
C5245 C 0.76553 0.39213 0.76178 0.0
C5246 C 0.77989 0.39283 0.75075 0.0
C5247 C 0.08506 0.73058 0.23653 0.0
C5248 C 0.08568 0.72955 0.21881 0.0
C5249 C 0.08333 0.71595 0.24638 0.0
C5250 C 0.08255 0.69981 0.23882 0.0
H5251 H 0.08518 0.74282 0.24272 0.0
H5252 H 0.08241 0.71731 0.26001 0.0
S5253 S 0.08532 0.6904 0.19296 0.0
N5254 N 0.0863 0.71129 0.19408 0.0
N5255 N 0.08371 0.68361 0.21269 0.0
C5256 C 0.08405 0.69858 0.22116 0.0
C5257 C 0.0854 0.71353 0.21111 0.0
C5258 C 0.66977 0.53906 0.72744 0.0
C5259 C 0.65898 0.54112 0.74136 0.0
C5260 C 0.66774 0.52533 0.71639 0.0
C5261 C 0.65525 0.51288 0.71925 0.0
H5262 H 0.68007 0.54787 0.72534 0.0
H5263 H 0.6764 0.5242 0.70582 0.0
S5264 S 0.62387 0.51298 0.7544 0.0
N5265 N 0.63498 0.53043 0.75721 0.0
N5266 N 0.63185 0.50392 0.73733 0.0
C5267 C 0.64409 0.51519 0.73301 0.0
C5268 C 0.64586 0.52948 0.74389 0.0
C5269 C 0.96756 0.40633 0.9628 0.0
C5270 C 0.98367 0.40308 0.96969 0.0
C5271 C 0.95335 0.40826 0.97331 0.0
C5272 C 0.95503 0.40757 0.99099 0.0
H5273 H 0.96608 0.40768 0.94923 0.0
H5274 H 0.94115 0.41096 0.96763 0.0
S5275 S 0.99442 0.39927 0.01516 0.0
N5276 N 0.00037 0.39884 -0.00488 0.0
N5277 N 0.97386 0.40304 0.01489 0.0
C5278 C 0.97101 0.40409 -0.00203 0.0
C5279 C 0.98532 0.40169 0.9873 0.0
C5280 C 0.50293 0.57135 0.5062 0.0
C5281 C 0.51519 0.58376 0.50295 0.0
C5282 C 0.49563 0.56978 0.52226 0.0
C5283 C 0.50073 0.58029 0.53574 0.0
H5284 H 0.49934 0.56252 0.49633 0.0
H5285 H 0.48649 0.55979 0.52426 0.0
S5286 S 0.53187 0.61541 0.53319 0.0
N5287 N 0.53155 0.60728 0.5139 0.0
N5288 N 0.51816 0.60425 0.54437 0.0
C5289 C 0.51262 0.59316 0.53243 0.0
C5290 C 0.51978 0.59492 0.51594 0.0
C5291 C 0.90382 0.25353 0.75917 0.0
C5292 C 0.90145 0.27108 0.75975 0.0
C5293 C 0.90757 0.24445 0.77387 0.0
C5294 C 0.90905 0.25261 0.78973 0.0
H5295 H 0.90403 0.24699 0.7471 0.0
H5296 H 0.9103 0.23108 0.77252 0.0
S5297 S 0.9006 0.29812 0.79802 0.0
N5298 N 0.89852 0.29608 0.7773 0.0
N5299 N 0.90524 0.27904 0.80525 0.0
C5300 C 0.90514 0.26999 0.79061 0.0
C5301 C 0.90147 0.27923 0.77552 0.0
C5302 C 0.8204 0.97618 0.28766 0.0
C5303 C 0.83149 0.98949 0.29133 0.0
C5304 C 0.82044 0.96855 0.27164 0.0
C5305 C 0.83119 0.97432 0.25858 0.0
H5306 H 0.81138 0.97192 0.29708 0.0
H5307 H 0.81178 0.95823 0.26943 0.0
S5308 S 0.862 0.00976 0.2621 0.0
N5309 N 0.85364 0.00813 0.28117 0.0
N5310 N 0.85276 -0.00506 0.25063 0.0
C5311 C 0.84235 0.98775 0.26228 0.0
C5312 C 0.8427 -0.00493 0.27877 0.0
C5313 C 0.49089 0.64632 0.72003 0.0
C5314 C 0.49525 0.65471 0.70499 0.0
C5315 C 0.50026 0.64871 0.73488 0.0
C5316 C 0.51458 0.65936 0.73528 0.0
H5317 H 0.47947 0.63876 0.72066 0.0
H5318 H 0.49571 0.64269 0.74629 0.0
S5319 S 0.5332 0.6813 0.69794 0.0
N5320 N 0.51579 0.67237 0.69059 0.0
N5321 N 0.53417 0.67608 0.71817 0.0
C5322 C 0.51989 0.66667 0.71982 0.0
C5323 C 0.51006 0.66451 0.70477 0.0
C5324 C 0.84688 0.26449 0.97292 0.0
C5325 C 0.83202 0.26837 0.98197 0.0
C5326 C 0.84678 0.25248 0.95975 0.0
C5327 C 0.83183 0.24384 0.95534 0.0
H5328 H 0.85868 0.27067 0.9762 0.0
H5329 H 0.85852 0.24972 0.95319 0.0
S5330 S 0.78994 0.24831 0.97648 0.0
N5331 N 0.80219 0.26226 0.98599 0.0
N5332 N 0.80209 0.23923 0.96214 0.0
C5333 C 0.81695 0.24758 0.96448 0.0
C5334 C 0.81701 0.25997 0.97755 0.0
C5335 C 0.24453 0.57421 0.21999 0.0
C5336 C 0.24051 0.58484 0.20621 0.0
C5337 C 0.23521 0.57474 0.23503 0.0
C5338 C 0.2215 0.58579 0.23691 0.0
H5339 H 0.25503 0.56541 0.21926 0.0
H5340 H 0.23867 0.56649 0.24537 0.0
S5341 S 0.20548 0.61628 0.20521 0.0
N5342 N 0.22169 0.60698 0.19574 0.0
N5343 N 0.20418 0.60768 0.22424 0.0
C5344 C 0.21735 0.59665 0.22353 0.0
C5345 C 0.22684 0.59621 0.20812 0.0
C5346 C 0.03363 0.0139 0.57633 0.0
C5347 C 0.03427 -0.00176 0.58465 0.0
C5348 C 0.01916 0.02419 0.57741 0.0
C5349 C 0.00464 0.01898 0.58646 0.0
H5350 H 0.04427 0.01809 0.56875 0.0
H5351 H 0.01928 0.0362 0.57081 0.0
S5352 S 0.00013 0.97833 0.6098 0.0
N5353 N 0.01959 0.97784 0.60219 0.0
N5354 N 0.99206 -0.00343 0.60357 0.0
C5355 C 0.00533 0.00328 0.59495 0.0
C5356 C 0.02022 0.99304 0.59414 0.0
C5357 C 0.50753 0.73951 0.66454 0.0
C5358 C 0.50651 0.72283 0.65857 0.0
C5359 C 0.5232 0.74781 0.66568 0.0
C5360 C 0.53836 0.73966 0.66083 0.0
H5361 H 0.49616 0.74601 0.66865 0.0
H5362 H 0.5234 0.76064 0.67051 0.0
S5363 S 0.54178 0.6959 0.6437 0.0
N5364 N 0.52136 0.69848 0.64742 0.0
N5365 N 0.55092 0.71388 0.64925 0.0
C5366 C 0.53728 0.72298 0.65448 0.0
C5367 C 0.52132 0.71459 0.65346 0.0
C5368 C 0.21994 0.52185 0.14251 0.0
C5369 C 0.23189 0.52245 0.15562 0.0
C5370 C 0.20627 0.51051 0.14321 0.0
C5371 C 0.20429 0.49929 0.15697 0.0
H5372 H 0.22119 0.53023 0.13173 0.0
H5373 H 0.19732 0.51043 0.13282 0.0
S5374 S 0.23319 0.4956 0.19403 0.0
N5375 N 0.24144 0.51078 0.18233 0.0
N5376 N 0.21603 0.48947 0.18383 0.0
C5377 C 0.21636 0.49987 0.17013 0.0
C5378 C 0.23012 0.51143 0.16939 0.0
C5379 C 0.48638 0.95879 0.89457 0.0
C5380 C 0.49594 0.95405 0.9089 0.0
C5381 C 0.47675 0.97376 0.8944 0.0
C5382 C 0.4762 0.98453 0.90857 0.0
H5383 H 0.48637 0.95094 0.88332 0.0
H5384 H 0.46945 0.9768 0.8832 0.0
S5385 S 0.49952 0.97876 0.94892 0.0
N5386 N 0.50439 0.96191 0.93755 0.0
N5387 N 0.48667 0.99005 0.93694 0.0
C5388 C 0.48578 0.98013 0.92288 0.0
C5389 C 0.49552 0.9649 0.92312 0.0
C5390 C 0.77683 0.46894 0.84355 0.0
C5391 C 0.77177 0.48362 0.83496 0.0
C5392 C 0.76731 0.45396 0.8423 0.0
C5393 C 0.75234 0.45329 0.83255 0.0
H5394 H 0.78849 0.46894 0.85076 0.0
H5395 H 0.77193 0.44278 0.84875 0.0
S5396 S 0.73314 0.48936 0.80919 0.0
N5397 N 0.75077 0.49711 0.81729 0.0
N5398 N 0.73236 0.46946 0.81547 0.0
C5399 C 0.74685 0.46831 0.82462 0.0
C5400 C 0.75672 0.48334 0.82568 0.0
C5401 C 0.99057 0.77551 0.34746 0.0
C5402 C 0.9879 0.78851 0.33566 0.0
C5403 C 0.98002 0.76131 0.34784 0.0
C5404 C 0.96632 0.75972 0.33655 0.0
H5405 H 0.00148 0.77585 0.35579 0.0
H5406 H 0.98321 0.75114 0.35644 0.0
S5407 S 0.95216 0.79218 0.30557 0.0
N5408 N 0.96964 0.80011 0.31387 0.0
N5409 N 0.94918 0.7738 0.31507 0.0
C5410 C 0.96276 0.77337 0.32561 0.0
C5411 C 0.97374 0.78768 0.32502 0.0
C5412 C 0.00546 0.14881 0.73021 0.0
C5413 C 0.02187 0.15565 0.73104 0.0
C5414 C -0.00397 0.14962 0.7153 0.0
C5415 C 0.00271 0.15715 0.70068 0.0
H5416 H -0.00055 0.14369 0.7414 0.0
H5417 H 0.98316 0.14491 0.71542 0.0
S5418 S 0.04567 0.17491 0.69532 0.0
N5419 N 0.04507 0.16853 0.71524 0.0
N5420 N 0.02693 0.17033 0.68724 0.0
C5421 C 0.01937 0.16312 0.7009 0.0
C5422 C 0.02907 0.1623 0.71611 0.0
C5423 C 0.33032 0.26484 0.45464 0.0
C5424 C 0.33466 0.24767 0.45629 0.0
C5425 C 0.32981 0.2755 0.4689 0.0
C5426 C 0.33381 0.2693 0.48511 0.0
H5427 H 0.32683 0.26991 0.44238 0.0
H5428 H 0.32616 0.28863 0.46733 0.0
S5429 S 0.34511 0.22509 0.49603 0.0
N5430 N 0.34243 0.22481 0.47528 0.0
N5431 N 0.34176 0.24487 0.50198 0.0
C5432 C 0.33831 0.25219 0.48681 0.0
C5433 C 0.33863 0.24135 0.47239 0.0
C5434 C 0.31686 0.48867 0.25949 0.0
C5435 C 0.32916 0.4765 0.25562 0.0
C5436 C 0.31605 0.49614 0.27557 0.0
C5437 C 0.32747 0.49153 0.28846 0.0
H5438 H 0.30786 0.4924 0.24992 0.0
H5439 H 0.30617 0.50529 0.27797 0.0
S5440 S 0.36258 0.46046 0.28424 0.0
N5441 N 0.35331 0.46038 0.26548 0.0
N5442 N 0.35197 0.47426 0.29587 0.0
C5443 C 0.34008 0.47948 0.28458 0.0
C5444 C 0.34092 0.47202 0.2681 0.0
C5445 C 0.02252 0.57261 0.02025 0.0
C5446 C 0.01727 0.58291 0.00656 0.0
C5447 C 0.01375 0.57254 0.03571 0.0
C5448 C -0.00013 0.58328 0.03832 0.0
H5449 H 0.03324 0.56419 0.01899 0.0
H5450 H 0.01758 0.56375 0.04553 0.0
S5451 S 0.98073 0.6128 0.00739 0.0
N5452 N -0.0034 0.60392 -0.00289 0.0
N5453 N 0.98129 0.60463 0.02658 0.0
C5454 C -0.0051 0.59417 0.02525 0.0
C5455 C 0.00334 0.59382 0.00929 0.0
C5456 C 0.47163 0.41684 0.46821 0.0
C5457 C 0.48438 0.40449 0.47077 0.0
C5458 C 0.45646 0.41659 0.47734 0.0
C5459 C 0.45303 0.40363 0.48889 0.0
H5460 H 0.47334 0.42712 0.45938 0.0
H5461 H 0.44749 0.42684 0.47561 0.0
S5462 S 0.48068 0.36725 0.4995 0.0
N5463 N 0.49164 0.37831 0.4856 0.0
N5464 N 0.46261 0.37746 0.50177 0.0
C5465 C 0.46489 0.39055 0.49083 0.0
C5466 C 0.48066 0.39104 0.48198 0.0
C5467 C 0.15501 0.02309 0.7146 0.0
C5468 C 0.15529 0.00757 0.72325 0.0
C5469 C 0.15794 0.03839 0.72314 0.0
C5470 C 0.16157 0.03865 0.7406 0.0
H5471 H 0.15306 0.02329 0.70102 0.0
H5472 H 0.158 0.05 0.71584 0.0
S5473 S 0.16379 0.00095 0.76885 0.0
N5474 N 0.15916 0.99314 0.75002 0.0
N5475 N 0.16491 0.02165 0.76624 0.0
C5476 C 0.16137 0.02308 0.74945 0.0
C5477 C 0.15818 0.0076 0.74073 0.0
C5478 C 0.46016 0.34765 0.25492 0.0
C5479 C 0.44932 0.33352 0.25483 0.0
C5480 C 0.47559 0.34723 0.26365 0.0
C5481 C 0.48061 0.33279 0.27276 0.0
H5482 H 0.45739 0.3586 0.24715 0.0
H5483 H 0.48402 0.358 0.26267 0.0
S5484 S 0.45519 0.29357 0.27865 0.0
N5485 N 0.44347 0.30566 0.26629 0.0
N5486 N 0.47243 0.30468 0.28265 0.0
C5487 C 0.46911 0.31918 0.274 0.0
C5488 C 0.45347 0.3196 0.26502 0.0
C5489 C 0.14357 0.71502 0.99237 0.0
C5490 C 0.15413 0.70119 -0.00383 0.0
C5491 C 0.14227 0.72884 0.00342 0.0
C5492 C 0.15122 0.72913 0.0188 0.0
H5493 H 0.13708 0.71566 0.9803 0.0
H5494 H 0.13495 0.73973 -0.00053 0.0
S5495 S 0.17651 0.69375 0.03663 0.0
N5496 N 0.17129 0.68722 0.01745 0.0
N5497 N 0.16806 0.71279 0.03876 0.0
C5498 C 0.16041 0.71457 0.02347 0.0
C5499 C 0.16206 0.70068 0.01202 0.0
C5500 C 0.98631 0.98271 0.39499 0.0
C5501 C 0.97043 0.97988 0.40261 0.0
C5502 C -0.00106 0.97025 0.39516 0.0
C5503 C -0.00377 0.95458 0.4031 0.0
H5504 H 0.98931 0.99492 0.38955 0.0
H5505 H 0.01122 0.97326 0.38985 0.0
S5506 S 0.95618 0.9397 0.42222 0.0
N5507 N 0.95204 0.95934 0.41627 0.0
N5508 N 0.97612 0.93611 0.41706 0.0
C5509 C 0.98022 0.95122 0.40997 0.0
C5510 C 0.96724 0.96382 0.40961 0.0
C5511 C 0.49056 0.27598 0.31915 0.0
C5512 C 0.49072 0.28723 0.33301 0.0
C5513 C 0.48137 0.26087 0.31966 0.0
C5514 C 0.47207 0.25627 0.33407 0.0
H5515 H 0.49778 0.2787 0.30781 0.0
H5516 H 0.48184 0.25254 0.3088 0.0
S5517 S 0.46649 0.28187 0.373 0.0
N5518 N 0.47945 0.29323 0.36114 0.0
N5519 N 0.46225 0.26459 0.36197 0.0
C5520 C 0.47155 0.26754 0.34781 0.0
C5521 C 0.4808 0.2831 0.34728 0.0
C5522 C 0.53397 0.01618 0.07827 0.0
C5523 C 0.53502 0.00123 0.08774 0.0
C5524 C 0.51904 0.02582 0.0781 0.0
C5525 C 0.50442 0.02054 0.08696 0.0
H5526 H 0.54459 0.0202 0.07058 0.0
H5527 H 0.51885 0.03726 0.07059 0.0
S5528 S 0.50086 0.98161 0.11317 0.0
N5529 N 0.52061 0.98152 0.10632 0.0
N5530 N 0.49223 -0.00104 0.10533 0.0
C5531 C 0.50553 0.00564 0.09672 0.0
C5532 C 0.52089 -0.00388 0.09722 0.0
C5533 C 0.0337 0.22915 0.66503 0.0
C5534 C 0.03427 0.24368 0.65481 0.0
C5535 C 0.01936 0.21864 0.66513 0.0
C5536 C 0.00488 0.22256 0.65541 0.0
H5537 H 0.04422 0.22614 0.67329 0.0
H5538 H 0.01949 0.20758 0.67321 0.0
S5539 S -3e-05 0.25996 0.62729 0.0
N5540 N 0.01938 0.2616 0.63482 0.0
N5541 N 0.99213 0.24249 0.63563 0.0
C5542 C 0.00548 0.23704 0.645 0.0
C5543 C 0.02024 0.24745 0.64459 0.0
C5544 C 0.58388 0.02201 0.02717 0.0
C5545 C 0.58396 0.00587 0.01965 0.0
C5546 C 0.58434 0.03672 0.01719 0.0
C5547 C 0.58435 0.03565 -0.00057 0.0
H5548 H 0.58335 0.0232 0.04083 0.0
H5549 H 0.58405 0.04898 0.02337 0.0
S5550 S 0.5848 -0.00369 0.97372 0.0
N5551 N 0.58454 0.98965 0.99354 0.0
N5552 N 0.58479 0.0172 0.97477 0.0
C5553 C 0.5846 0.01957 0.99181 0.0
C5554 C 0.58457 0.00467 0.00194 0.0
C5555 C 0.2615 0.89422 0.75785 0.0
C5556 C 0.26112 0.90302 0.77337 0.0
C5557 C 0.27569 0.89483 0.7473 0.0
C5558 C 0.29005 0.90417 0.75191 0.0
H5559 H 0.25049 0.88738 0.75343 0.0
H5560 H 0.27518 0.8885 0.73512 0.0
S5561 S 0.2968 0.92702 0.79229 0.0
N5562 N 0.27727 0.91964 0.79369 0.0
N5563 N 0.30395 0.92096 0.77357 0.0
C5564 C 0.2903 0.91232 0.76768 0.0
C5565 C 0.27583 0.91168 0.77851 0.0
C5566 C 0.57762 0.22046 0.21728 0.0
C5567 C 0.58631 0.23503 0.22294 0.0
C5568 C 0.5774 0.20552 0.22687 0.0
C5569 C 0.58626 0.20448 0.2422 0.0
H5570 H 0.57065 0.22068 0.20548 0.0
H5571 H 0.57006 0.19482 0.22241 0.0
S5572 S 0.61062 0.2387 0.26304 0.0
N5573 N 0.6036 0.24731 0.24534 0.0
N5574 N 0.60381 0.21895 0.26284 0.0
C5575 C 0.59538 0.21865 0.24782 0.0
C5576 C 0.59532 0.23398 0.23829 0.0
C5577 C 0.25245 0.33623 0.48942 0.0
C5578 C 0.25171 0.33835 0.47183 0.0
C5579 C 0.26806 0.33396 0.49762 0.0
C5580 C 0.28344 0.33389 0.48847 0.0
H5581 H 0.24086 0.33523 0.49667 0.0
H5582 H 0.26798 0.33163 0.51113 0.0
S5583 S 0.28788 0.34044 0.44212 0.0
N5584 N 0.26727 0.34127 0.44559 0.0
N5585 N 0.2967 0.3374 0.46084 0.0
C5586 C 0.28278 0.33705 0.47094 0.0
C5587 C 0.26688 0.33915 0.46265 0.0
C5588 C 0.39057 0.75884 0.76062 0.0
C5589 C 0.40199 0.7725 0.75979 0.0
C5590 C 0.39022 0.74803 0.77458 0.0
C5591 C 0.40149 0.75026 0.78816 0.0
H5592 H 0.3826 0.75564 0.74996 0.0
H5593 H 0.38206 0.73702 0.77396 0.0
S5594 S 0.43048 0.78656 0.79457 0.0
N5595 N 0.42209 0.78977 0.77569 0.0
N5596 N 0.42199 0.7688 0.80158 0.0
C5597 C 0.41166 0.7648 0.78841 0.0
C5598 C 0.41182 0.77606 0.77429 0.0
C5599 C 0.74858 0.15584 0.02307 0.0
C5600 C 0.73967 0.15691 0.03854 0.0
C5601 C 0.74004 0.1537 0.00768 0.0
C5602 C 0.72237 0.15269 0.00726 0.0
H5603 H 0.7622 0.15731 0.02272 0.0
H5604 H 0.74719 0.15364 -0.00402 0.0
S5605 S 0.69309 0.15294 0.0438 0.0
N5606 N 0.71206 0.15524 0.05231 0.0
N5607 N 0.6962 0.15154 0.02316 0.0
C5608 C 0.71333 0.15287 0.0225 0.0
C5609 C 0.72196 0.15484 0.03823 0.0
C5610 C 0.73273 0.09495 0.23238 0.0
C5611 C 0.7174 0.08585 0.23294 0.0
C5612 C 0.74256 0.0955 0.21763 0.0
C5613 C 0.73748 0.0869 0.20294 0.0
H5614 H 0.73768 0.10099 0.24364 0.0
H5615 H 0.75469 0.1019 0.21802 0.0
S5616 S 0.69747 0.06335 0.19669 0.0
N5617 N 0.69663 0.06991 0.21655 0.0
N5618 N 0.71571 0.07025 0.18913 0.0
C5619 C 0.72188 0.07848 0.20292 0.0
C5620 C 0.71167 0.07815 0.21785 0.0
C5621 C 0.41406 0.49439 0.47066 0.0
C5622 C 0.40382 0.4935 0.45608 0.0
C5623 C 0.41276 0.48235 0.48351 0.0
C5624 C 0.40121 0.46894 0.48233 0.0
H5625 H 0.42311 0.50457 0.47228 0.0
H5626 H 0.42085 0.48347 0.49452 0.0
S5627 S 0.37178 0.46037 0.44692 0.0
N5628 N 0.38178 0.47785 0.44122 0.0
N5629 N 0.37947 0.45511 0.46567 0.0
C5630 C 0.39077 0.46784 0.46803 0.0
C5631 C 0.39205 0.48016 0.45482 0.0
C5632 C 0.26802 0.7668 0.91776 0.0
C5633 C 0.27291 0.75903 0.90245 0.0
C5634 C 0.25769 0.7811 0.91794 0.0
C5635 C 0.25154 0.7882 0.90285 0.0
H5636 H 0.27157 0.76147 0.92985 0.0
H5637 H 0.254 0.7862 0.93013 0.0
S5638 S 0.26189 0.77381 0.85923 0.0
N5639 N 0.27206 0.76046 0.87169 0.0
N5640 N 0.25204 0.78714 0.872 0.0
C5641 C 0.25688 0.78108 0.88736 0.0
C5642 C 0.26761 0.7665 0.88718 0.0
C5643 C 0.71714 -0.00207 0.16956 0.0
C5644 C 0.70417 -0.00135 0.15734 0.0
C5645 C 0.73086 0.00899 0.16892 0.0
C5646 C 0.73216 0.02115 0.15608 0.0
H5647 H 0.71695 0.9885 0.17952 0.0
H5648 H 0.74072 0.0079 0.17838 0.0
S5649 S 0.70111 0.02956 0.12207 0.0
N5650 N 0.69304 0.01339 0.13262 0.0
N5651 N 0.71919 0.0342 0.13154 0.0
C5652 C 0.71927 0.02236 0.14399 0.0
C5653 C 0.70515 0.01111 0.14462 0.0
C5654 C 0.70257 0.72275 0.59149 0.0
C5655 C 0.70131 0.73926 0.58477 0.0
C5656 C 0.71819 0.71428 0.59219 0.0
C5657 C 0.73306 0.7222 0.58663 0.0
H5658 H 0.69136 0.71606 0.59568 0.0
H5659 H 0.71864 0.70137 0.59676 0.0
S5660 S 0.73712 0.76531 0.56885 0.0
N5661 N 0.71674 0.76315 0.5728 0.0
N5662 N 0.74595 0.74738 0.57497 0.0
C5663 C 0.73218 0.73881 0.58061 0.0
C5664 C 0.71633 0.74732 0.5795 0.0
C5665 C 0.26601 0.9567 0.83295 0.0
C5666 C 0.24823 0.95557 0.83365 0.0
C5667 C 0.27421 0.97247 0.83301 0.0
C5668 C 0.26498 0.98765 0.83432 0.0
H5669 H 0.27361 0.94534 0.83172 0.0
H5670 H 0.28788 0.97286 0.83189 0.0
S5671 S 0.21857 0.99178 0.83802 0.0
N5672 N 0.2218 0.97116 0.83641 0.0
N5673 N 0.23744 0.0007 0.83717 0.0
C5674 C 0.24736 0.98673 0.83571 0.0
C5675 C 0.23892 0.97072 0.83519 0.0
C5676 C 0.39915 0.96482 0.97209 0.0
C5677 C 0.40233 0.97349 0.98728 0.0
C5678 C 0.40286 0.97221 0.95638 0.0
C5679 C 0.41033 0.98837 0.95538 0.0
H5680 H 0.39459 0.9519 0.97247 0.0
H5681 H 0.40056 0.96486 0.94503 0.0
S5682 S 0.42063 0.01633 0.9919 0.0
N5683 N 0.41232 -0.00079 0.00054 0.0
N5684 N 0.42025 0.01293 0.9713 0.0
C5685 C 0.41296 -0.00262 0.9706 0.0
C5686 C 0.40872 0.98997 0.98649 0.0
C5687 C 0.71667 0.6699 0.51817 0.0
C5688 C 0.72181 0.65928 0.50467 0.0
C5689 C 0.7249 0.66959 0.53392 0.0
C5690 C 0.73812 0.65819 0.53701 0.0
H5691 H 0.70638 0.67879 0.51662 0.0
H5692 H 0.72108 0.6785 0.54365 0.0
S5693 S 0.75668 0.62755 0.50673 0.0
N5694 N 0.74163 0.63719 0.4959 0.0
N5695 N 0.75597 0.63585 0.52589 0.0
C5696 C 0.74301 0.64705 0.52408 0.0
C5697 C 0.73511 0.64772 0.50784 0.0
C5698 C 0.28389 0.84906 0.9838 0.0
C5699 C 0.28504 0.83497 0.99471 0.0
C5700 C 0.27107 0.85015 0.97142 0.0
C5701 C 0.25908 0.83713 0.96946 0.0
H5702 H 0.29293 0.85932 0.98482 0.0
H5703 H 0.27058 0.86112 0.96322 0.0
S5704 S 0.25511 0.7986 -0.00401 0.0
N5705 N 0.27193 0.80843 0.00349 0.0
N5706 N 0.24835 0.81045 0.98019 0.0
C5707 C 0.25989 0.8232 0.98046 0.0
C5708 C 0.27273 0.82212 0.99307 0.0
C5709 C 0.56292 0.52806 0.50459 0.0
C5710 C 0.5778 0.53731 0.50137 0.0
C5711 C 0.56338 0.51281 0.51355 0.0
C5712 C 0.57874 0.50618 0.51961 0.0
H5713 H 0.55088 0.53223 0.49953 0.0
H5714 H 0.55172 0.50576 0.515 0.0
S5715 S 0.62089 0.52676 0.517 0.0
N5716 N 0.60811 0.53964 0.50663 0.0
N5717 N 0.60886 0.51106 0.52374 0.0
C5718 C 0.59354 0.51586 0.51756 0.0
C5719 C 0.59309 0.53145 0.50843 0.0
C5720 C 0.7216 0.22219 0.101 0.0
C5721 C 0.73095 0.2173 0.08663 0.0
C5722 C 0.70783 0.23343 0.09965 0.0
C5723 C 0.70307 0.2404 0.0839 0.0
H5724 H 0.72505 0.21738 0.11336 0.0
H5725 H 0.70123 0.23706 0.11112 0.0
S5726 S 0.72391 0.23209 0.04242 0.0
N5727 N 0.73447 0.22052 0.05613 0.0
N5728 N 0.70917 0.24158 0.05369 0.0
C5729 C 0.71228 0.23541 0.06945 0.0
C5730 C 0.72606 0.22389 0.07078 0.0
C5731 C 0.26538 0.26697 0.3947 0.0
C5732 C 0.27358 0.26135 0.40952 0.0
C5733 C 0.25587 0.28195 0.39457 0.0
C5734 C 0.25431 0.29191 0.40923 0.0
H5735 H 0.26568 0.25938 0.38329 0.0
H5736 H 0.24874 0.28509 0.38327 0.0
S5737 S 0.27614 0.28527 0.45017 0.0
N5738 N 0.28119 0.26855 0.43868 0.0
N5739 N 0.26413 0.29703 0.43781 0.0
C5740 C 0.26383 0.28749 0.42351 0.0
C5741 C 0.2733 0.27213 0.42383 0.0
C5742 C 0.27196 0.41342 0.24156 0.0
C5743 C 0.28739 0.4119 0.25044 0.0
C5744 C 0.25639 0.41132 0.24981 0.0
C5745 C 0.25574 0.40787 0.2672 0.0
H5746 H 0.27186 0.41655 0.22821 0.0
H5747 H 0.24478 0.41319 0.24276 0.0
S5748 S 0.29209 0.40128 0.296 0.0
N5749 N 0.30083 0.40546 0.27746 0.0
N5750 N 0.27142 0.40199 0.29289 0.0
C5751 C 0.27092 0.4057 0.2761 0.0
C5752 C 0.2868 0.40756 0.26772 0.0
C5753 C 0.5712 0.70884 0.72412 0.0
C5754 C 0.58169 0.70576 0.73802 0.0
C5755 C 0.57237 0.72404 0.71515 0.0
C5756 C 0.58356 0.73707 0.72024 0.0
H5757 H 0.56169 0.69966 0.7205 0.0
H5758 H 0.56399 0.72569 0.70445 0.0
S5759 S 0.61442 0.73432 0.75567 0.0
N5760 N 0.60456 0.7159 0.75582 0.0
N5761 N 0.60601 0.74509 0.73986 0.0
C5762 C 0.59466 0.73369 0.73379 0.0
C5763 C 0.59383 0.71791 0.74252 0.0
C5764 C 0.41662 0.25502 0.26144 0.0
C5765 C 0.40406 0.26741 0.25939 0.0
C5766 C 0.41848 0.2464 0.27677 0.0
C5767 C 0.40806 0.25011 0.29075 0.0
H5768 H 0.42525 0.25223 0.25116 0.0
H5769 H 0.42853 0.23713 0.27778 0.0
S5770 S 0.37276 0.28124 0.29144 0.0
N5771 N 0.38063 0.28267 0.27211 0.0
N5772 N 0.38414 0.26664 0.3012 0.0
C5773 C 0.39512 0.26224 0.28869 0.0
C5774 C 0.3931 0.27084 0.27292 0.0
C5775 C 0.71747 0.58486 0.72619 0.0
C5776 C 0.72706 0.58138 0.74073 0.0
C5777 C 0.7248 0.58428 0.71005 0.0
C5778 C 0.74192 0.57975 0.70781 0.0
H5779 H 0.7041 0.5877 0.72736 0.0
H5780 H 0.71679 0.58689 0.69923 0.0
S5781 S 0.77228 0.56941 0.74236 0.0
N5782 N 0.75436 0.57366 0.75226 0.0
N5783 N 0.7682 0.57186 0.722 0.0
C5784 C 0.75166 0.57645 0.72245 0.0
C5785 C 0.74422 0.57746 0.73889 0.0
C5786 C 0.72342 0.52374 0.64649 0.0
C5787 C 0.73726 0.51925 0.65666 0.0
C5788 C 0.70823 0.51455 0.64727 0.0
C5789 C 0.7065 0.50048 0.65814 0.0
H5790 H 0.72422 0.5347 0.63829 0.0
H5791 H 0.69773 0.51867 0.63948 0.0
S5792 S 0.74021 0.48287 0.68593 0.0
N5793 N 0.74894 0.49963 0.67703 0.0
N5794 N 0.72079 0.48189 0.67827 0.0
C5795 C 0.72065 0.4956 0.66789 0.0
C5796 C 0.73593 0.50512 0.66721 0.0
C5797 C 0.26622 0.45821 0.33804 0.0
C5798 C 0.24989 0.45665 0.33096 0.0
C5799 C 0.27385 0.47409 0.34017 0.0
C5800 C 0.26531 0.48897 0.33563 0.0
H5801 H 0.27344 0.44706 0.34147 0.0
H5802 H 0.2867 0.47478 0.3449 0.0
S5803 S 0.22239 0.49243 0.31737 0.0
N5804 N 0.22535 0.47189 0.31997 0.0
N5805 N 0.23988 0.50159 0.32425 0.0
C5806 C 0.24891 0.4878 0.32914 0.0
C5807 C 0.24113 0.47167 0.32677 0.0
loop_
_geom_bond_atom_site_label_1
_geom_bond_atom_site_label_2
_geom_bond_distance
_geom_bond_site_symmetry_2
_ccdc_geom_bond_type
C0 C1 1.351 . S
C0 N3 1.368 . S
C0 H5 0.931 . S
C1 C0 1.351 . S
C1 N2 1.373 . S
C1 H29 0.930 . S
N2 C1 1.373 . S
N2 C4 1.340 . S
N3 C0 1.368 . S
N3 C4 1.321 . S
N3 Co6 2.135 . S
C4 N2 1.340 . S
C4 N3 1.321 . S
C4 H28 0.930 . S
H5 C0 0.931 . S
Co6 N3 2.135 . S
Co6 N9 2.121 . S
Co6 O14 2.055 . S
Co6 O17 2.039 . S
Co6 N20 2.140 . S
C7 O8 1.227 . S
C7 O17 1.265 . S
O8 C7 1.227 . S
N9 Co6 2.121 . S
N9 C11 1.375 . S
N9 C12 1.313 . S
C10 C11 1.338 . S
C10 N13 1.377 . S
C10 H30 0.930 . S
C11 N9 1.375 . S
C11 C10 1.338 . S
C11 H15 0.931 . S
C12 N9 1.313 . S
C12 N13 1.344 . S
C12 H16 0.930 . S
N13 C10 1.377 . S
N13 C12 1.344 . S
O14 Co6 2.055 . S
O14 C18 1.253 . S
H15 C11 0.931 . S
H16 C12 0.930 . S
O17 Co6 2.039 . S
O17 C7 1.265 . S
C18 O14 1.253 . S
C18 O19 1.227 . S
O19 C18 1.227 . S
N20 Co6 2.140 . S
N20 C23 1.346 . S
N20 C24 1.345 . S
C21 C22 1.387 . S
C21 C25 1.391 . S
C22 C21 1.387 . S
C22 C23 1.369 . S
C22 H31 0.929 . S
C23 N20 1.346 . S
C23 C22 1.369 . S
C23 H26 0.928 . S
C24 N20 1.345 . S
C24 C25 1.371 . S
C24 H27 0.931 . S
C25 C21 1.391 . S
C25 C24 1.371 . S
C25 H32 0.930 . S
H26 C23 0.928 . S
H27 C24 0.931 . S
H28 C4 0.930 . S
H29 C1 0.930 . S
H30 C10 0.930 . S
H31 C22 0.929 . S
H32 C25 0.930 . S
C33 C34 1.351 . S
C33 N36 1.368 . S
C33 H38 0.931 . S
C34 C33 1.351 . S
C34 N35 1.373 . S
C34 H62 0.930 . S
N35 C34 1.373 . S
N35 C37 1.340 . S
N36 C33 1.368 . S
N36 C37 1.321 . S
N36 Co39 2.135 . S
C37 N35 1.340 . S
C37 N36 1.321 . S
C37 H61 0.930 . S
H38 C33 0.931 . S
Co39 N36 2.135 . S
Co39 N42 2.121 . S
Co39 O47 2.055 . S
Co39 O50 2.039 . S
Co39 N53 2.140 . S
C40 O41 1.227 . S
C40 O50 1.265 . S
O41 C40 1.227 . S
N42 Co39 2.121 . S
N42 C44 1.375 . S
N42 C45 1.313 . S
C43 C44 1.338 . S
C43 N46 1.377 . S
C43 H63 0.930 . S
C44 N42 1.375 . S
C44 C43 1.338 . S
C44 H48 0.931 . S
C45 N42 1.313 . S
C45 N46 1.344 . S
C45 H49 0.930 . S
N46 C43 1.377 . S
N46 C45 1.344 . S
O47 Co39 2.055 . S
O47 C51 1.253 . S
H48 C44 0.931 . S
H49 C45 0.930 . S
O50 Co39 2.039 . S
O50 C40 1.265 . S
C51 O47 1.253 . S
C51 O52 1.227 . S
O52 C51 1.227 . S
N53 Co39 2.140 . S
N53 C56 1.346 . S
N53 C57 1.345 . S
C54 C55 1.387 . S
C54 C58 1.391 . S
C55 C54 1.387 . S
C55 C56 1.369 . S
C55 H64 0.929 . S
C56 N53 1.346 . S
C56 C55 1.369 . S
C56 H59 0.928 . S
C57 N53 1.345 . S
C57 C58 1.371 . S
C57 H60 0.931 . S
C58 C54 1.391 . S
C58 C57 1.371 . S
C58 H65 0.930 . S
H59 C56 0.928 . S
H60 C57 0.931 . S
H61 C37 0.930 . S
H62 C34 0.930 . S
H63 C43 0.930 . S
H64 C55 0.929 . S
H65 C58 0.930 . S
C66 C67 1.351 . S
C66 N69 1.368 . S
C66 H71 0.931 . S
C67 C66 1.351 . S
C67 N68 1.373 1_556 S
C67 H95 0.930 . S
N68 C67 1.373 1_554 S
N68 C70 1.359 . S
N69 C66 1.368 . S
N69 C70 1.264 1_556 S
N69 Co72 2.135 . S
C70 N68 1.359 . S
C70 N69 1.264 1_554 S
C70 H94 0.967 . S
H71 C66 0.931 . S
Co72 N69 2.135 . S
Co72 N75 2.121 . S
Co72 O80 2.055 . S
Co72 O83 2.039 . S
Co72 N86 2.140 . S
C73 O74 1.227 . S
C73 O83 1.265 . S
O74 C73 1.227 . S
N75 Co72 2.121 . S
N75 C77 1.375 . S
N75 C78 1.313 . S
C76 C77 1.338 . S
C76 N79 1.377 . S
C76 H96 0.930 . S
C77 N75 1.375 . S
C77 C76 1.338 . S
C77 H81 0.931 . S
C78 N75 1.313 . S
C78 N79 1.344 . S
C78 H82 0.930 . S
N79 C76 1.377 . S
N79 C78 1.344 . S
O80 Co72 2.055 . S
O80 C84 1.253 . S
H81 C77 0.931 . S
H82 C78 0.930 . S
O83 Co72 2.039 . S
O83 C73 1.265 . S
C84 O80 1.253 . S
C84 O85 1.227 . S
O85 C84 1.227 . S
N86 Co72 2.140 . S
N86 C89 1.346 . S
N86 C90 1.345 . S
C87 C88 1.387 . S
C87 C91 1.391 . S
C88 C87 1.387 . S
C88 C89 1.369 . S
C88 H97 0.929 . S
C89 N86 1.346 . S
C89 C88 1.369 . S
C89 H92 0.928 . S
C90 N86 1.345 . S
C90 C91 1.371 . S
C90 H93 0.931 . S
C91 C87 1.391 . S
C91 C90 1.371 . S
C91 H98 0.930 . S
H92 C89 0.928 . S
H93 C90 0.931 . S
H94 C70 0.967 . S
H95 C67 0.930 . S
H96 C76 0.930 . S
H97 C88 0.929 . S
H98 C91 0.930 . S
C99 C100 1.351 . S
C99 N102 1.368 . S
C99 H104 0.931 . S
C100 C99 1.351 . S
C100 N101 1.373 . S
C100 H128 0.930 . S
N101 C100 1.373 . S
N101 C103 1.340 . S
N102 C99 1.368 . S
N102 C103 1.321 . S
N102 Co105 2.135 . S
C103 N101 1.340 . S
C103 N102 1.321 . S
C103 H127 0.930 . S
H104 C99 0.931 . S
Co105 N102 2.135 . S
Co105 N108 2.121 . S
Co105 O113 2.055 . S
Co105 O116 2.039 . S
Co105 N119 2.140 . S
C106 O107 1.227 . S
C106 O116 1.265 . S
O107 C106 1.227 . S
N108 Co105 2.121 . S
N108 C110 1.375 . S
N108 C111 1.313 . S
C109 C110 1.338 . S
C109 N112 1.377 . S
C109 H129 0.930 . S
C110 N108 1.375 . S
C110 C109 1.338 . S
C110 H114 0.931 . S
C111 N108 1.313 . S
C111 N112 1.344 . S
C111 H115 0.930 . S
N112 C109 1.377 . S
N112 C111 1.344 . S
O113 Co105 2.055 . S
O113 C117 1.253 . S
H114 C110 0.931 . S
H115 C111 0.930 . S
O116 Co105 2.039 . S
O116 C106 1.265 . S
C117 O113 1.253 . S
C117 O118 1.227 . S
O118 C117 1.227 . S
N119 Co105 2.140 . S
N119 C122 1.346 . S
N119 C123 1.345 . S
C120 C121 1.387 . S
C120 C124 1.391 . S
C121 C120 1.387 . S
C121 C122 1.369 . S
C121 H130 0.929 . S
C122 N119 1.346 . S
C122 C121 1.369 . S
C122 H125 0.928 . S
C123 N119 1.345 . S
C123 C124 1.371 . S
C123 H126 0.931 . S
C124 C120 1.391 . S
C124 C123 1.371 . S
C124 H131 0.930 . S
H125 C122 0.928 . S
H126 C123 0.931 . S
H127 C103 0.930 . S
H128 C100 0.930 . S
H129 C109 0.930 . S
H130 C121 0.929 . S
H131 C124 0.930 . S
C132 C133 1.351 . S
C132 N135 1.368 . S
C132 H137 0.931 . S
C133 C132 1.351 . S
C133 N134 1.373 . S
C133 H161 0.930 . S
N134 C133 1.373 . S
N134 C136 1.340 . S
N135 C132 1.368 . S
N135 C136 1.321 . S
N135 Co138 2.135 . S
C136 N134 1.340 . S
C136 N135 1.321 . S
C136 H160 0.930 . S
H137 C132 0.931 . S
Co138 N135 2.135 . S
Co138 N141 2.121 . S
Co138 O146 2.055 . S
Co138 O149 2.039 . S
Co138 N152 2.140 . S
C139 O140 1.227 . S
C139 O149 1.265 . S
O140 C139 1.227 . S
N141 Co138 2.121 . S
N141 C143 1.375 . S
N141 C144 1.313 . S
C142 C143 1.338 . S
C142 N145 1.377 . S
C142 H162 0.930 . S
C143 N141 1.375 . S
C143 C142 1.338 . S
C143 H147 0.931 . S
C144 N141 1.313 . S
C144 N145 1.344 . S
C144 H148 0.930 . S
N145 C142 1.377 . S
N145 C144 1.344 . S
O146 Co138 2.055 . S
O146 C150 1.253 . S
H147 C143 0.931 . S
H148 C144 0.930 . S
O149 Co138 2.039 . S
O149 C139 1.265 . S
C150 O146 1.253 . S
C150 O151 1.227 . S
O151 C150 1.227 . S
N152 Co138 2.140 . S
N152 C155 1.346 . S
N152 C156 1.345 . S
C153 C154 1.387 . S
C153 C157 1.391 . S
C154 C153 1.387 . S
C154 C155 1.369 . S
C154 H163 0.929 . S
C155 N152 1.346 . S
C155 C154 1.369 . S
C155 H158 0.928 . S
C156 N152 1.345 . S
C156 C157 1.371 . S
C156 H159 0.931 . S
C157 C153 1.391 . S
C157 C156 1.371 . S
C157 H164 0.930 . S
H158 C155 0.928 . S
H159 C156 0.931 . S
H160 C136 0.930 . S
H161 C133 0.930 . S
H162 C142 0.930 . S
H163 C154 0.929 . S
H164 C157 0.930 . S
C165 C166 1.351 . S
C165 N168 1.368 . S
C165 H170 0.931 . S
C166 C165 1.351 . S
C166 N167 1.373 1_554 S
C166 H194 0.930 . S
N167 C166 1.373 1_556 S
N167 C169 1.359 . S
N168 C165 1.368 . S
N168 C169 1.264 1_554 S
N168 Co171 2.135 . S
C169 N167 1.359 . S
C169 N168 1.264 1_556 S
C169 H193 0.967 . S
H170 C165 0.931 . S
Co171 N168 2.135 . S
Co171 N174 2.121 . S
Co171 O179 2.055 . S
Co171 O182 2.039 . S
Co171 N185 2.140 . S
C172 O173 1.227 . S
C172 O182 1.265 . S
O173 C172 1.227 . S
N174 Co171 2.121 . S
N174 C176 1.375 . S
N174 C177 1.313 . S
C175 C176 1.338 . S
C175 N178 1.377 . S
C175 H195 0.930 . S
C176 N174 1.375 . S
C176 C175 1.338 . S
C176 H180 0.931 . S
C177 N174 1.313 . S
C177 N178 1.344 . S
C177 H181 0.930 . S
N178 C175 1.377 . S
N178 C177 1.344 . S
O179 Co171 2.055 . S
O179 C183 1.253 . S
H180 C176 0.931 . S
H181 C177 0.930 . S
O182 Co171 2.039 . S
O182 C172 1.265 . S
C183 O179 1.253 . S
C183 O184 1.227 . S
O184 C183 1.227 . S
N185 Co171 2.140 . S
N185 C188 1.346 . S
N185 C189 1.345 . S
C186 C187 1.387 . S
C186 C190 1.391 . S
C187 C186 1.387 . S
C187 C188 1.369 . S
C187 H196 0.929 . S
C188 N185 1.346 . S
C188 C187 1.369 . S
C188 H191 0.928 . S
C189 N185 1.345 . S
C189 C190 1.371 . S
C189 H192 0.931 . S
C190 C186 1.391 . S
C190 C189 1.371 . S
C190 H197 0.930 . S
H191 C188 0.928 . S
H192 C189 0.931 . S
H193 C169 0.967 . S
H194 C166 0.930 . S
H195 C175 0.930 . S
H196 C187 0.929 . S
H197 C190 0.930 . S
C198 C199 1.351 . S
C198 N201 1.368 . S
C198 H203 0.931 . S
C199 C198 1.351 . S
C199 N200 1.373 . S
C199 H227 0.930 . S
N200 C199 1.373 . S
N200 C202 1.340 . S
N201 C198 1.368 . S
N201 C202 1.321 . S
N201 Co204 2.135 . S
C202 N200 1.340 . S
C202 N201 1.321 . S
C202 H226 0.930 . S
H203 C198 0.931 . S
Co204 N201 2.135 . S
Co204 N207 2.121 . S
Co204 O212 2.055 . S
Co204 O215 2.039 . S
Co204 N218 2.140 . S
C205 O206 1.227 . S
C205 O215 1.265 . S
O206 C205 1.227 . S
N207 Co204 2.121 . S
N207 C209 1.375 . S
N207 C210 1.313 . S
C208 C209 1.338 . S
C208 N211 1.377 . S
C208 H228 0.930 . S
C209 N207 1.375 . S
C209 C208 1.338 . S
C209 H213 0.931 . S
C210 N207 1.313 . S
C210 N211 1.344 . S
C210 H214 0.930 . S
N211 C208 1.377 . S
N211 C210 1.344 . S
O212 Co204 2.055 . S
O212 C216 1.253 . S
H213 C209 0.931 . S
H214 C210 0.930 . S
O215 Co204 2.039 . S
O215 C205 1.265 . S
C216 O212 1.253 . S
C216 O217 1.227 . S
O217 C216 1.227 . S
N218 Co204 2.140 . S
N218 C221 1.346 . S
N218 C222 1.345 . S
C219 C220 1.387 . S
C219 C223 1.391 . S
C220 C219 1.387 . S
C220 C221 1.369 . S
C220 H229 0.929 . S
C221 N218 1.346 . S
C221 C220 1.369 . S
C221 H224 0.928 . S
C222 N218 1.345 . S
C222 C223 1.371 . S
C222 H225 0.931 . S
C223 C219 1.391 . S
C223 C222 1.371 . S
C223 H230 0.930 . S
H224 C221 0.928 . S
H225 C222 0.931 . S
H226 C202 0.930 . S
H227 C199 0.930 . S
H228 C208 0.930 . S
H229 C220 0.929 . S
H230 C223 0.930 . S
C231 C232 1.351 . S
C231 N234 1.368 . S
C231 H236 0.931 . S
C232 C231 1.351 . S
C232 N233 1.373 . S
C232 H260 0.930 . S
N233 C232 1.373 . S
N233 C235 1.340 . S
N234 C231 1.368 . S
N234 C235 1.321 . S
N234 Co237 2.135 . S
C235 N233 1.340 . S
C235 N234 1.321 . S
C235 H259 0.930 . S
H236 C231 0.931 . S
Co237 N234 2.135 . S
Co237 N240 2.121 . S
Co237 O245 2.055 . S
Co237 O248 2.039 . S
Co237 N251 2.140 . S
C238 O239 1.227 . S
C238 O248 1.265 . S
O239 C238 1.227 . S
N240 Co237 2.121 . S
N240 C242 1.375 . S
N240 C243 1.313 . S
C241 C242 1.338 . S
C241 N244 1.377 . S
C241 H261 0.930 . S
C242 N240 1.375 . S
C242 C241 1.338 . S
C242 H246 0.931 . S
C243 N240 1.313 . S
C243 N244 1.344 . S
C243 H247 0.930 . S
N244 C241 1.377 . S
N244 C243 1.344 . S
O245 Co237 2.055 . S
O245 C249 1.253 . S
H246 C242 0.931 . S
H247 C243 0.930 . S
O248 Co237 2.039 . S
O248 C238 1.265 . S
C249 O245 1.253 . S
C249 O250 1.227 . S
O250 C249 1.227 . S
N251 Co237 2.140 . S
N251 C254 1.346 . S
N251 C255 1.345 . S
C252 C253 1.387 . S
C252 C256 1.391 . S
C253 C252 1.387 . S
C253 C254 1.369 . S
C253 H262 0.929 . S
C254 N251 1.346 . S
C254 C253 1.369 . S
C254 H257 0.928 . S
C255 N251 1.345 . S
C255 C256 1.371 . S
C255 H258 0.931 . S
C256 C252 1.391 . S
C256 C255 1.371 . S
C256 H263 0.930 . S
H257 C254 0.928 . S
H258 C255 0.931 . S
H259 C235 0.930 . S
H260 C232 0.930 . S
H261 C241 0.930 . S
H262 C253 0.929 . S
H263 C256 0.930 . S
C264 C265 1.351 . S
C264 N267 1.368 . S
C264 H269 0.931 . S
C265 C264 1.351 . S
C265 N266 1.373 . S
C265 H293 0.930 . S
N266 C265 1.373 . S
N266 C268 1.340 . S
N267 C264 1.368 . S
N267 C268 1.321 . S
N267 Co270 2.135 . S
C268 N266 1.340 . S
C268 N267 1.321 . S
C268 H292 0.930 . S
H269 C264 0.931 . S
Co270 N267 2.135 . S
Co270 N273 2.121 . S
Co270 O278 2.055 . S
Co270 O281 2.039 . S
Co270 N284 2.140 . S
C271 O272 1.227 . S
C271 O281 1.265 . S
O272 C271 1.227 . S
N273 Co270 2.121 . S
N273 C275 1.375 . S
N273 C276 1.313 . S
C274 C275 1.338 . S
C274 N277 1.377 . S
C274 H294 0.930 . S
C275 N273 1.375 . S
C275 C274 1.338 . S
C275 H279 0.931 . S
C276 N273 1.313 . S
C276 N277 1.344 . S
C276 H280 0.930 . S
N277 C274 1.377 . S
N277 C276 1.344 . S
O278 Co270 2.055 . S
O278 C282 1.253 . S
H279 C275 0.931 . S
H280 C276 0.930 . S
O281 Co270 2.039 . S
O281 C271 1.265 . S
C282 O278 1.253 . S
C282 O283 1.227 . S
O283 C282 1.227 . S
N284 Co270 2.140 . S
N284 C287 1.346 . S
N284 C288 1.345 . S
C285 C286 1.387 . S
C285 C289 1.391 . S
C286 C285 1.387 . S
C286 C287 1.369 . S
C286 H295 0.929 . S
C287 N284 1.346 . S
C287 C286 1.369 . S
C287 H290 0.928 . S
C288 N284 1.345 . S
C288 C289 1.371 . S
C288 H291 0.931 . S
C289 C285 1.391 . S
C289 C288 1.371 . S
C289 H296 0.930 . S
H290 C287 0.928 . S
H291 C288 0.931 . S
H292 C268 0.930 . S
H293 C265 0.930 . S
H294 C274 0.930 . S
H295 C286 0.929 . S
H296 C289 0.930 . S
C297 C298 1.351 . S
C297 N300 1.368 . S
C297 H302 0.931 . S
C298 C297 1.351 . S
C298 N299 1.373 . S
C298 H326 0.930 . S
N299 C298 1.373 . S
N299 C301 1.340 . S
N300 C297 1.368 . S
N300 C301 1.321 . S
N300 Co303 2.135 . S
C301 N299 1.340 . S
C301 N300 1.321 . S
C301 H325 0.930 . S
H302 C297 0.931 . S
Co303 N300 2.135 . S
Co303 N306 2.121 . S
Co303 O311 2.055 . S
Co303 O314 2.039 . S
Co303 N317 2.140 . S
C304 O305 1.227 . S
C304 O314 1.265 . S
O305 C304 1.227 . S
N306 Co303 2.121 . S
N306 C308 1.375 . S
N306 C309 1.313 . S
C307 C308 1.338 . S
C307 N310 1.377 . S
C307 H327 0.930 . S
C308 N306 1.375 . S
C308 C307 1.338 . S
C308 H312 0.931 . S
C309 N306 1.313 . S
C309 N310 1.344 . S
C309 H313 0.930 . S
N310 C307 1.377 . S
N310 C309 1.344 . S
O311 Co303 2.055 . S
O311 C315 1.253 . S
H312 C308 0.931 . S
H313 C309 0.930 . S
O314 Co303 2.039 . S
O314 C304 1.265 . S
C315 O311 1.253 . S
C315 O316 1.227 . S
O316 C315 1.227 . S
N317 Co303 2.140 . S
N317 C320 1.346 . S
N317 C321 1.345 . S
C318 C319 1.387 . S
C318 C322 1.391 . S
C319 C318 1.387 . S
C319 C320 1.369 . S
C319 H328 0.929 . S
C320 N317 1.346 . S
C320 C319 1.369 . S
C320 H323 0.928 . S
C321 N317 1.345 . S
C321 C322 1.371 . S
C321 H324 0.931 . S
C322 C318 1.391 . S
C322 C321 1.371 . S
C322 H329 0.930 . S
H323 C320 0.928 . S
H324 C321 0.931 . S
H325 C301 0.930 . S
H326 C298 0.930 . S
H327 C307 0.930 . S
H328 C319 0.929 . S
H329 C322 0.930 . S
C330 C331 1.351 . S
C330 N333 1.368 . S
C330 H335 0.931 . S
C331 C330 1.351 . S
C331 N332 1.373 . S
C331 H359 0.930 . S
N332 C331 1.373 . S
N332 C334 1.340 . S
N333 C330 1.368 . S
N333 C334 1.321 . S
N333 Co336 2.135 . S
C334 N332 1.340 . S
C334 N333 1.321 . S
C334 H358 0.930 . S
H335 C330 0.931 . S
Co336 N333 2.135 . S
Co336 N339 2.121 . S
Co336 O344 2.055 . S
Co336 O347 2.039 . S
Co336 N350 2.140 . S
C337 O338 1.227 . S
C337 O347 1.265 . S
O338 C337 1.227 . S
N339 Co336 2.121 . S
N339 C341 1.375 . S
N339 C342 1.313 . S
C340 C341 1.338 . S
C340 N343 1.377 . S
C340 H360 0.930 . S
C341 N339 1.375 . S
C341 C340 1.338 . S
C341 H345 0.931 . S
C342 N339 1.313 . S
C342 N343 1.344 . S
C342 H346 0.930 . S
N343 C340 1.377 . S
N343 C342 1.344 . S
O344 Co336 2.055 . S
O344 C348 1.253 . S
H345 C341 0.931 . S
H346 C342 0.930 . S
O347 Co336 2.039 . S
O347 C337 1.265 . S
C348 O344 1.253 . S
C348 O349 1.227 . S
O349 C348 1.227 . S
N350 Co336 2.140 . S
N350 C353 1.346 . S
N350 C354 1.345 . S
C351 C352 1.387 . S
C351 C355 1.391 . S
C352 C351 1.387 . S
C352 C353 1.369 . S
C352 H361 0.929 . S
C353 N350 1.346 . S
C353 C352 1.369 . S
C353 H356 0.928 . S
C354 N350 1.345 . S
C354 C355 1.371 . S
C354 H357 0.931 . S
C355 C351 1.391 . S
C355 C354 1.371 . S
C355 H362 0.930 . S
H356 C353 0.928 . S
H357 C354 0.931 . S
H358 C334 0.930 . S
H359 C331 0.930 . S
H360 C340 0.930 . S
H361 C352 0.929 . S
H362 C355 0.930 . S
C363 C364 1.351 . S
C363 N366 1.368 . S
C363 H368 0.931 . S
C364 C363 1.351 . S
C364 N365 1.373 . S
C364 H392 0.930 . S
N365 C364 1.373 . S
N365 C367 1.340 . S
N366 C363 1.368 . S
N366 C367 1.321 . S
N366 Co369 2.135 . S
C367 N365 1.340 . S
C367 N366 1.321 . S
C367 H391 0.930 . S
H368 C363 0.931 . S
Co369 N366 2.135 . S
Co369 N372 2.121 . S
Co369 O377 2.055 . S
Co369 O380 2.039 . S
Co369 N383 2.140 . S
C370 O371 1.227 . S
C370 O380 1.265 . S
O371 C370 1.227 . S
N372 Co369 2.121 . S
N372 C374 1.375 . S
N372 C375 1.313 . S
C373 C374 1.338 . S
C373 N376 1.377 . S
C373 H393 0.930 . S
C374 N372 1.375 . S
C374 C373 1.338 . S
C374 H378 0.931 . S
C375 N372 1.313 . S
C375 N376 1.344 . S
C375 H379 0.930 . S
N376 C373 1.377 . S
N376 C375 1.344 . S
O377 Co369 2.055 . S
O377 C381 1.253 . S
H378 C374 0.931 . S
H379 C375 0.930 . S
O380 Co369 2.039 . S
O380 C370 1.265 . S
C381 O377 1.253 . S
C381 O382 1.227 . S
O382 C381 1.227 . S
N383 Co369 2.140 . S
N383 C386 1.346 . S
N383 C387 1.345 . S
C384 C385 1.387 . S
C384 C388 1.391 . S
C385 C384 1.387 . S
C385 C386 1.369 . S
C385 H394 0.929 . S
C386 N383 1.346 . S
C386 C385 1.369 . S
C386 H389 0.928 . S
C387 N383 1.345 . S
C387 C388 1.371 . S
C387 H390 0.931 . S
C388 C384 1.391 . S
C388 C387 1.371 . S
C388 H395 0.930 . S
H389 C386 0.928 . S
H390 C387 0.931 . S
H391 C367 0.930 . S
H392 C364 0.930 . S
H393 C373 0.930 . S
H394 C385 0.929 . S
H395 C388 0.930 . S
C396 C397 1.351 . S
C396 N399 1.368 . S
C396 H401 0.931 . S
C397 C396 1.351 . S
C397 N398 1.373 . S
C397 H425 0.930 . S
N398 C397 1.373 . S
N398 C400 1.340 . S
N399 C396 1.368 . S
N399 C400 1.321 . S
N399 Co402 2.135 . S
C400 N398 1.340 . S
C400 N399 1.321 . S
C400 H424 0.930 . S
H401 C396 0.931 . S
Co402 N399 2.135 . S
Co402 N405 2.121 . S
Co402 O410 2.055 . S
Co402 O413 2.039 . S
Co402 N416 2.140 . S
C403 O404 1.227 . S
C403 O413 1.265 . S
O404 C403 1.227 . S
N405 Co402 2.121 . S
N405 C407 1.375 . S
N405 C408 1.313 . S
C406 C407 1.338 . S
C406 N409 1.377 . S
C406 H426 0.930 . S
C407 N405 1.375 . S
C407 C406 1.338 . S
C407 H411 0.931 . S
C408 N405 1.313 . S
C408 N409 1.344 . S
C408 H412 0.930 . S
N409 C406 1.377 . S
N409 C408 1.344 . S
O410 Co402 2.055 . S
O410 C414 1.253 . S
H411 C407 0.931 . S
H412 C408 0.930 . S
O413 Co402 2.039 . S
O413 C403 1.265 . S
C414 O410 1.253 . S
C414 O415 1.227 . S
O415 C414 1.227 . S
N416 Co402 2.140 . S
N416 C419 1.346 . S
N416 C420 1.345 . S
C417 C418 1.387 . S
C417 C421 1.391 . S
C418 C417 1.387 . S
C418 C419 1.369 . S
C418 H427 0.929 . S
C419 N416 1.346 . S
C419 C418 1.369 . S
C419 H422 0.928 . S
C420 N416 1.345 . S
C420 C421 1.371 . S
C420 H423 0.931 . S
C421 C417 1.391 . S
C421 C420 1.371 . S
C421 H428 0.930 . S
H422 C419 0.928 . S
H423 C420 0.931 . S
H424 C400 0.930 . S
H425 C397 0.930 . S
H426 C406 0.930 . S
H427 C418 0.929 . S
H428 C421 0.930 . S
C429 C430 1.351 . S
C429 N432 1.368 . S
C429 H434 0.931 . S
C430 C429 1.351 . S
C430 N431 1.373 . S
C430 H458 0.930 . S
N431 C430 1.373 . S
N431 C433 1.340 . S
N432 C429 1.368 . S
N432 C433 1.321 . S
N432 Co435 2.135 . S
C433 N431 1.340 . S
C433 N432 1.321 . S
C433 H457 0.930 . S
H434 C429 0.931 . S
Co435 N432 2.135 . S
Co435 N438 2.121 . S
Co435 O443 2.055 . S
Co435 O446 2.039 . S
Co435 N449 2.140 . S
C436 O437 1.227 . S
C436 O446 1.265 . S
O437 C436 1.227 . S
N438 Co435 2.121 . S
N438 C440 1.375 . S
N438 C441 1.313 . S
C439 C440 1.338 . S
C439 N442 1.377 . S
C439 H459 0.930 . S
C440 N438 1.375 . S
C440 C439 1.338 . S
C440 H444 0.931 . S
C441 N438 1.313 . S
C441 N442 1.344 . S
C441 H445 0.930 . S
N442 C439 1.377 . S
N442 C441 1.344 . S
O443 Co435 2.055 . S
O443 C447 1.253 . S
H444 C440 0.931 . S
H445 C441 0.930 . S
O446 Co435 2.039 . S
O446 C436 1.265 . S
C447 O443 1.253 . S
C447 O448 1.227 . S
O448 C447 1.227 . S
N449 Co435 2.140 . S
N449 C452 1.346 . S
N449 C453 1.345 . S
C450 C451 1.387 . S
C450 C454 1.391 . S
C451 C450 1.387 . S
C451 C452 1.369 . S
C451 H460 0.929 . S
C452 N449 1.346 . S
C452 C451 1.369 . S
C452 H455 0.928 . S
C453 N449 1.345 . S
C453 C454 1.371 . S
C453 H456 0.931 . S
C454 C450 1.391 . S
C454 C453 1.371 . S
C454 H461 0.930 . S
H455 C452 0.928 . S
H456 C453 0.931 . S
H457 C433 0.930 . S
H458 C430 0.930 . S
H459 C439 0.930 . S
H460 C451 0.929 . S
H461 C454 0.930 . S
C462 C463 1.351 . S
C462 N465 1.368 . S
C462 H467 0.931 . S
C463 C462 1.351 . S
C463 N464 1.373 . S
C463 H491 0.930 . S
N464 C463 1.373 . S
N464 C466 1.340 . S
N465 C462 1.368 . S
N465 C466 1.321 . S
N465 Co468 2.135 . S
C466 N464 1.340 . S
C466 N465 1.321 . S
C466 H490 0.930 . S
H467 C462 0.931 . S
Co468 N465 2.135 . S
Co468 N471 2.121 . S
Co468 O476 2.055 . S
Co468 O479 2.039 . S
Co468 N482 2.140 . S
C469 O470 1.227 . S
C469 O479 1.265 . S
O470 C469 1.227 . S
N471 Co468 2.121 . S
N471 C473 1.375 . S
N471 C474 1.313 . S
C472 C473 1.338 . S
C472 N475 1.377 . S
C472 H492 0.930 . S
C473 N471 1.375 . S
C473 C472 1.338 . S
C473 H477 0.931 . S
C474 N471 1.313 . S
C474 N475 1.344 . S
C474 H478 0.930 . S
N475 C472 1.377 . S
N475 C474 1.344 . S
O476 Co468 2.055 . S
O476 C480 1.253 . S
H477 C473 0.931 . S
H478 C474 0.930 . S
O479 Co468 2.039 . S
O479 C469 1.265 . S
C480 O476 1.253 . S
C480 O481 1.227 . S
O481 C480 1.227 . S
N482 Co468 2.140 . S
N482 C485 1.346 . S
N482 C486 1.345 . S
C483 C484 1.387 . S
C483 C487 1.391 . S
C484 C483 1.387 . S
C484 C485 1.369 . S
C484 H493 0.929 . S
C485 N482 1.346 . S
C485 C484 1.369 . S
C485 H488 0.928 . S
C486 N482 1.345 . S
C486 C487 1.371 . S
C486 H489 0.931 . S
C487 C483 1.391 . S
C487 C486 1.371 . S
C487 H494 0.930 . S
H488 C485 0.928 . S
H489 C486 0.931 . S
H490 C466 0.930 . S
H491 C463 0.930 . S
H492 C472 0.930 . S
H493 C484 0.929 . S
H494 C487 0.930 . S
C495 C496 1.351 . S
C495 N498 1.368 . S
C495 H500 0.931 . S
C496 C495 1.351 . S
C496 N497 1.373 . S
C496 H524 0.930 . S
N497 C496 1.373 . S
N497 C499 1.340 . S
N498 C495 1.368 . S
N498 C499 1.321 . S
N498 Co501 2.135 . S
C499 N497 1.340 . S
C499 N498 1.321 . S
C499 H523 0.930 . S
H500 C495 0.931 . S
Co501 N498 2.135 . S
Co501 N504 2.121 . S
Co501 O509 2.055 . S
Co501 O512 2.039 . S
Co501 N515 2.140 . S
C502 O503 1.227 . S
C502 O512 1.265 . S
O503 C502 1.227 . S
N504 Co501 2.121 . S
N504 C506 1.375 . S
N504 C507 1.313 . S
C505 C506 1.338 . S
C505 N508 1.377 . S
C505 H525 0.930 . S
C506 N504 1.375 . S
C506 C505 1.338 . S
C506 H510 0.931 . S
C507 N504 1.313 . S
C507 N508 1.344 . S
C507 H511 0.930 . S
N508 C505 1.377 . S
N508 C507 1.344 . S
O509 Co501 2.055 . S
O509 C513 1.253 . S
H510 C506 0.931 . S
H511 C507 0.930 . S
O512 Co501 2.039 . S
O512 C502 1.265 . S
C513 O509 1.253 . S
C513 O514 1.227 . S
O514 C513 1.227 . S
N515 Co501 2.140 . S
N515 C518 1.346 . S
N515 C519 1.345 . S
C516 C517 1.387 . S
C516 C520 1.391 . S
C517 C516 1.387 . S
C517 C518 1.369 . S
C517 H526 0.929 . S
C518 N515 1.346 . S
C518 C517 1.369 . S
C518 H521 0.928 . S
C519 N515 1.345 . S
C519 C520 1.371 . S
C519 H522 0.931 . S
C520 C516 1.391 . S
C520 C519 1.371 . S
C520 H527 0.930 . S
H521 C518 0.928 . S
H522 C519 0.931 . S
H523 C499 0.930 . S
H524 C496 0.930 . S
H525 C505 0.930 . S
H526 C517 0.929 . S
H527 C520 0.930 . S
C528 C529 1.351 . S
C528 N531 1.368 . S
C528 H533 0.931 . S
C529 C528 1.351 . S
C529 N530 1.373 . S
C529 H557 0.930 . S
N530 C529 1.373 . S
N530 C532 1.340 . S
N531 C528 1.368 . S
N531 C532 1.321 . S
N531 Co534 2.135 . S
C532 N530 1.340 . S
C532 N531 1.321 . S
C532 H556 0.930 . S
H533 C528 0.931 . S
Co534 N531 2.135 . S
Co534 N537 2.121 . S
Co534 O542 2.055 . S
Co534 O545 2.039 . S
Co534 N548 2.140 . S
C535 O536 1.227 . S
C535 O545 1.265 . S
O536 C535 1.227 . S
N537 Co534 2.121 . S
N537 C539 1.375 . S
N537 C540 1.313 . S
C538 C539 1.338 . S
C538 N541 1.377 . S
C538 H558 0.930 . S
C539 N537 1.375 . S
C539 C538 1.338 . S
C539 H543 0.931 . S
C540 N537 1.313 . S
C540 N541 1.344 . S
C540 H544 0.930 . S
N541 C538 1.377 . S
N541 C540 1.344 . S
O542 Co534 2.055 . S
O542 C546 1.253 . S
H543 C539 0.931 . S
H544 C540 0.930 . S
O545 Co534 2.039 . S
O545 C535 1.265 . S
C546 O542 1.253 . S
C546 O547 1.227 . S
O547 C546 1.227 . S
N548 Co534 2.140 . S
N548 C551 1.346 . S
N548 C552 1.345 . S
C549 C550 1.387 . S
C549 C553 1.391 . S
C550 C549 1.387 . S
C550 C551 1.369 . S
C550 H559 0.929 . S
C551 N548 1.346 . S
C551 C550 1.369 . S
C551 H554 0.928 . S
C552 N548 1.345 . S
C552 C553 1.371 . S
C552 H555 0.931 . S
C553 C549 1.391 . S
C553 C552 1.371 . S
C553 H560 0.930 . S
H554 C551 0.928 . S
H555 C552 0.931 . S
H556 C532 0.930 . S
H557 C529 0.930 . S
H558 C538 0.930 . S
H559 C550 0.929 . S
H560 C553 0.930 . S
C561 C562 1.351 . S
C561 N564 1.368 . S
C561 H566 0.931 . S
C562 C561 1.351 . S
C562 N563 1.373 . S
C562 H590 0.930 . S
N563 C562 1.373 . S
N563 C565 1.340 . S
N564 C561 1.368 . S
N564 C565 1.321 . S
N564 Co567 2.135 . S
C565 N563 1.340 . S
C565 N564 1.321 . S
C565 H589 0.930 . S
H566 C561 0.931 . S
Co567 N564 2.135 . S
Co567 N570 2.121 . S
Co567 O575 2.055 . S
Co567 O578 2.039 . S
Co567 N581 2.140 . S
C568 O569 1.227 . S
C568 O578 1.265 . S
O569 C568 1.227 . S
N570 Co567 2.121 . S
N570 C572 1.375 . S
N570 C573 1.313 . S
C571 C572 1.338 . S
C571 N574 1.377 . S
C571 H591 0.930 . S
C572 N570 1.375 . S
C572 C571 1.338 . S
C572 H576 0.931 . S
C573 N570 1.313 . S
C573 N574 1.344 . S
C573 H577 0.930 . S
N574 C571 1.377 . S
N574 C573 1.344 . S
O575 Co567 2.055 . S
O575 C579 1.253 . S
H576 C572 0.931 . S
H577 C573 0.930 . S
O578 Co567 2.039 . S
O578 C568 1.265 . S
C579 O575 1.253 . S
C579 O580 1.227 . S
O580 C579 1.227 . S
N581 Co567 2.140 . S
N581 C584 1.346 . S
N581 C585 1.345 . S
C582 C583 1.387 . S
C582 C586 1.391 . S
C583 C582 1.387 . S
C583 C584 1.369 . S
C583 H592 0.929 . S
C584 N581 1.346 . S
C584 C583 1.369 . S
C584 H587 0.928 . S
C585 N581 1.345 . S
C585 C586 1.371 . S
C585 H588 0.931 . S
C586 C582 1.391 . S
C586 C585 1.371 . S
C586 H593 0.930 . S
H587 C584 0.928 . S
H588 C585 0.931 . S
H589 C565 0.930 . S
H590 C562 0.930 . S
H591 C571 0.930 . S
H592 C583 0.929 . S
H593 C586 0.930 . S
C594 C595 1.351 . S
C594 N597 1.368 . S
C594 H599 0.931 . S
C595 C594 1.351 . S
C595 N596 1.373 . S
C595 H623 0.930 . S
N596 C595 1.373 . S
N596 C598 1.340 . S
N597 C594 1.368 . S
N597 C598 1.321 . S
N597 Co600 2.135 . S
C598 N596 1.340 . S
C598 N597 1.321 . S
C598 H622 0.930 . S
H599 C594 0.931 . S
Co600 N597 2.135 . S
Co600 N603 2.121 . S
Co600 O608 2.055 . S
Co600 O611 2.039 . S
Co600 N614 2.140 . S
C601 O602 1.227 . S
C601 O611 1.265 . S
O602 C601 1.227 . S
N603 Co600 2.121 . S
N603 C605 1.375 . S
N603 C606 1.313 . S
C604 C605 1.338 . S
C604 N607 1.377 . S
C604 H624 0.930 . S
C605 N603 1.375 . S
C605 C604 1.338 . S
C605 H609 0.931 . S
C606 N603 1.313 . S
C606 N607 1.344 . S
C606 H610 0.930 . S
N607 C604 1.377 . S
N607 C606 1.344 . S
O608 Co600 2.055 . S
O608 C612 1.253 . S
H609 C605 0.931 . S
H610 C606 0.930 . S
O611 Co600 2.039 . S
O611 C601 1.265 . S
C612 O608 1.253 . S
C612 O613 1.227 . S
O613 C612 1.227 . S
N614 Co600 2.140 . S
N614 C617 1.346 . S
N614 C618 1.345 . S
C615 C616 1.387 . S
C615 C619 1.391 . S
C616 C615 1.387 . S
C616 C617 1.369 . S
C616 H625 0.929 . S
C617 N614 1.346 . S
C617 C616 1.369 . S
C617 H620 0.928 . S
C618 N614 1.345 . S
C618 C619 1.371 . S
C618 H621 0.931 . S
C619 C615 1.391 . S
C619 C618 1.371 . S
C619 H626 0.930 . S
H620 C617 0.928 . S
H621 C618 0.931 . S
H622 C598 0.930 . S
H623 C595 0.930 . S
H624 C604 0.930 . S
H625 C616 0.929 . S
H626 C619 0.930 . S
C627 C628 1.351 . S
C627 N630 1.368 . S
C627 H632 0.931 . S
C628 C627 1.351 . S
C628 N629 1.373 1_565 S
C628 H656 0.930 . S
N629 C628 1.373 1_545 S
N629 C631 1.359 . S
N630 C627 1.368 . S
N630 C631 1.264 1_565 S
N630 Co633 2.135 . S
C631 N629 1.359 . S
C631 N630 1.264 1_545 S
C631 H655 0.967 . S
H632 C627 0.931 . S
Co633 N630 2.135 . S
Co633 N636 2.121 . S
Co633 O641 2.055 . S
Co633 O644 2.039 . S
Co633 N647 2.140 . S
C634 O635 1.227 . S
C634 O644 1.265 . S
O635 C634 1.227 . S
N636 Co633 2.121 . S
N636 C638 1.375 . S
N636 C639 1.313 . S
C637 C638 1.338 . S
C637 N640 1.377 . S
C637 H657 0.930 . S
C638 N636 1.375 . S
C638 C637 1.338 . S
C638 H642 0.931 . S
C639 N636 1.313 . S
C639 N640 1.344 . S
C639 H643 0.930 . S
N640 C637 1.377 . S
N640 C639 1.344 . S
O641 Co633 2.055 . S
O641 C645 1.253 . S
H642 C638 0.931 . S
H643 C639 0.930 . S
O644 Co633 2.039 . S
O644 C634 1.265 . S
C645 O641 1.253 . S
C645 O646 1.227 . S
O646 C645 1.227 . S
N647 Co633 2.140 . S
N647 C650 1.346 . S
N647 C651 1.345 . S
C648 C649 1.387 . S
C648 C652 1.391 . S
C649 C648 1.387 . S
C649 C650 1.369 . S
C649 H658 0.929 . S
C650 N647 1.346 . S
C650 C649 1.369 . S
C650 H653 0.928 . S
C651 N647 1.345 . S
C651 C652 1.371 . S
C651 H654 0.931 . S
C652 C648 1.391 . S
C652 C651 1.371 . S
C652 H659 0.930 . S
H653 C650 0.928 . S
H654 C651 0.931 . S
H655 C631 0.967 . S
H656 C628 0.930 . S
H657 C637 0.930 . S
H658 C649 0.929 . S
H659 C652 0.930 . S
C660 C661 1.351 . S
C660 N663 1.368 . S
C660 H665 0.931 . S
C661 C660 1.351 . S
C661 N662 1.373 . S
C661 H689 0.930 . S
N662 C661 1.373 . S
N662 C664 1.340 . S
N663 C660 1.368 . S
N663 C664 1.321 . S
N663 Co666 2.135 . S
C664 N662 1.340 . S
C664 N663 1.321 . S
C664 H688 0.930 . S
H665 C660 0.931 . S
Co666 N663 2.135 . S
Co666 N669 2.121 . S
Co666 O674 2.055 . S
Co666 O677 2.039 . S
Co666 N680 2.140 . S
C667 O668 1.227 . S
C667 O677 1.265 . S
O668 C667 1.227 . S
N669 Co666 2.121 . S
N669 C671 1.375 . S
N669 C672 1.313 . S
C670 C671 1.338 . S
C670 N673 1.377 . S
C670 H690 0.930 . S
C671 N669 1.375 . S
C671 C670 1.338 . S
C671 H675 0.931 . S
C672 N669 1.313 . S
C672 N673 1.344 . S
C672 H676 0.930 . S
N673 C670 1.377 . S
N673 C672 1.344 . S
O674 Co666 2.055 . S
O674 C678 1.253 . S
H675 C671 0.931 . S
H676 C672 0.930 . S
O677 Co666 2.039 . S
O677 C667 1.265 . S
C678 O674 1.253 . S
C678 O679 1.227 . S
O679 C678 1.227 . S
N680 Co666 2.140 . S
N680 C683 1.346 . S
N680 C684 1.345 . S
C681 C682 1.387 . S
C681 C685 1.391 . S
C682 C681 1.387 . S
C682 C683 1.369 . S
C682 H691 0.929 . S
C683 N680 1.346 . S
C683 C682 1.369 . S
C683 H686 0.928 . S
C684 N680 1.345 . S
C684 C685 1.371 . S
C684 H687 0.931 . S
C685 C681 1.391 . S
C685 C684 1.371 . S
C685 H692 0.930 . S
H686 C683 0.928 . S
H687 C684 0.931 . S
H688 C664 0.930 . S
H689 C661 0.930 . S
H690 C670 0.930 . S
H691 C682 0.929 . S
H692 C685 0.930 . S
C693 C694 1.351 . S
C693 N696 1.368 . S
C693 H698 0.931 . S
C694 C693 1.351 . S
C694 N695 1.373 . S
C694 H722 0.930 . S
N695 C694 1.373 . S
N695 C697 1.340 . S
N696 C693 1.368 . S
N696 C697 1.321 . S
N696 Co699 2.135 . S
C697 N695 1.340 . S
C697 N696 1.321 . S
C697 H721 0.930 . S
H698 C693 0.931 . S
Co699 N696 2.135 . S
Co699 N702 2.121 . S
Co699 O707 2.055 . S
Co699 O710 2.039 . S
Co699 N713 2.140 . S
C700 O701 1.227 . S
C700 O710 1.265 . S
O701 C700 1.227 . S
N702 Co699 2.121 . S
N702 C704 1.375 . S
N702 C705 1.313 . S
C703 C704 1.338 . S
C703 N706 1.377 . S
C703 H723 0.930 . S
C704 N702 1.375 . S
C704 C703 1.338 . S
C704 H708 0.931 . S
C705 N702 1.313 . S
C705 N706 1.344 . S
C705 H709 0.930 . S
N706 C703 1.377 . S
N706 C705 1.344 . S
O707 Co699 2.055 . S
O707 C711 1.253 . S
H708 C704 0.931 . S
H709 C705 0.930 . S
O710 Co699 2.039 . S
O710 C700 1.265 . S
C711 O707 1.253 . S
C711 O712 1.227 . S
O712 C711 1.227 . S
N713 Co699 2.140 . S
N713 C716 1.346 . S
N713 C717 1.345 . S
C714 C715 1.387 . S
C714 C718 1.391 . S
C715 C714 1.387 . S
C715 C716 1.369 . S
C715 H724 0.929 . S
C716 N713 1.346 . S
C716 C715 1.369 . S
C716 H719 0.928 . S
C717 N713 1.345 . S
C717 C718 1.371 . S
C717 H720 0.931 . S
C718 C714 1.391 . S
C718 C717 1.371 . S
C718 H725 0.930 . S
H719 C716 0.928 . S
H720 C717 0.931 . S
H721 C697 0.930 . S
H722 C694 0.930 . S
H723 C703 0.930 . S
H724 C715 0.929 . S
H725 C718 0.930 . S
C726 C727 1.351 . S
C726 N729 1.368 . S
C726 H731 0.931 . S
C727 C726 1.351 . S
C727 N728 1.373 . S
C727 H755 0.930 . S
N728 C727 1.373 . S
N728 C730 1.340 . S
N729 C726 1.368 . S
N729 C730 1.321 . S
N729 Co732 2.135 . S
C730 N728 1.340 . S
C730 N729 1.321 . S
C730 H754 0.930 . S
H731 C726 0.931 . S
Co732 N729 2.135 . S
Co732 N735 2.121 . S
Co732 O740 2.055 . S
Co732 O743 2.039 . S
Co732 N746 2.140 . S
C733 O734 1.227 . S
C733 O743 1.265 . S
O734 C733 1.227 . S
N735 Co732 2.121 . S
N735 C737 1.375 . S
N735 C738 1.313 . S
C736 C737 1.338 . S
C736 N739 1.377 . S
C736 H756 0.930 . S
C737 N735 1.375 . S
C737 C736 1.338 . S
C737 H741 0.931 . S
C738 N735 1.313 . S
C738 N739 1.344 . S
C738 H742 0.930 . S
N739 C736 1.377 . S
N739 C738 1.344 . S
O740 Co732 2.055 . S
O740 C744 1.253 . S
H741 C737 0.931 . S
H742 C738 0.930 . S
O743 Co732 2.039 . S
O743 C733 1.265 . S
C744 O740 1.253 . S
C744 O745 1.227 . S
O745 C744 1.227 . S
N746 Co732 2.140 . S
N746 C749 1.346 . S
N746 C750 1.345 . S
C747 C748 1.387 . S
C747 C751 1.391 . S
C748 C747 1.387 . S
C748 C749 1.369 . S
C748 H757 0.929 . S
C749 N746 1.346 . S
C749 C748 1.369 . S
C749 H752 0.928 . S
C750 N746 1.345 . S
C750 C751 1.371 . S
C750 H753 0.931 . S
C751 C747 1.391 . S
C751 C750 1.371 . S
C751 H758 0.930 . S
H752 C749 0.928 . S
H753 C750 0.931 . S
H754 C730 0.930 . S
H755 C727 0.930 . S
H756 C736 0.930 . S
H757 C748 0.929 . S
H758 C751 0.930 . S
C759 C760 1.351 . S
C759 N762 1.368 . S
C759 H764 0.931 . S
C760 C759 1.351 . S
C760 N761 1.373 1_455 S
C760 H788 0.930 . S
N761 C760 1.373 1_655 S
N761 C763 1.359 . S
N762 C759 1.368 . S
N762 C763 1.264 1_455 S
N762 Co765 2.135 . S
C763 N761 1.359 . S
C763 N762 1.264 1_655 S
C763 H787 0.967 . S
H764 C759 0.931 . S
Co765 N762 2.135 . S
Co765 N768 2.121 . S
Co765 O773 2.055 . S
Co765 O776 2.039 . S
Co765 N779 2.140 . S
C766 O767 1.227 . S
C766 O776 1.265 . S
O767 C766 1.227 . S
N768 Co765 2.121 . S
N768 C770 1.375 . S
N768 C771 1.313 . S
C769 C770 1.338 . S
C769 N772 1.377 . S
C769 H789 0.930 . S
C770 N768 1.375 . S
C770 C769 1.338 . S
C770 H774 0.931 . S
C771 N768 1.313 . S
C771 N772 1.344 . S
C771 H775 0.930 . S
N772 C769 1.377 . S
N772 C771 1.344 . S
O773 Co765 2.055 . S
O773 C777 1.253 . S
H774 C770 0.931 . S
H775 C771 0.930 . S
O776 Co765 2.039 . S
O776 C766 1.265 . S
C777 O773 1.253 . S
C777 O778 1.227 . S
O778 C777 1.227 . S
N779 Co765 2.140 . S
N779 C782 1.346 . S
N779 C783 1.345 . S
C780 C781 1.387 . S
C780 C784 1.391 . S
C781 C780 1.387 . S
C781 C782 1.369 . S
C781 H790 0.929 . S
C782 N779 1.346 . S
C782 C781 1.369 . S
C782 H785 0.928 . S
C783 N779 1.345 . S
C783 C784 1.371 . S
C783 H786 0.931 . S
C784 C780 1.391 . S
C784 C783 1.371 . S
C784 H791 0.930 . S
H785 C782 0.928 . S
H786 C783 0.931 . S
H787 C763 0.967 . S
H788 C760 0.930 . S
H789 C769 0.930 . S
H790 C781 0.929 . S
H791 C784 0.930 . S
C792 C793 1.351 . S
C792 N795 1.368 . S
C792 H797 0.931 . S
C793 C792 1.351 . S
C793 N794 1.373 . S
C793 H821 0.930 . S
N794 C793 1.373 . S
N794 C796 1.340 . S
N795 C792 1.368 . S
N795 C796 1.321 . S
N795 Co798 2.135 . S
C796 N794 1.340 . S
C796 N795 1.321 . S
C796 H820 0.930 . S
H797 C792 0.931 . S
Co798 N795 2.135 . S
Co798 N801 2.121 . S
Co798 O806 2.055 . S
Co798 O809 2.039 . S
Co798 N812 2.140 . S
C799 O800 1.227 . S
C799 O809 1.265 . S
O800 C799 1.227 . S
N801 Co798 2.121 . S
N801 C803 1.375 . S
N801 C804 1.313 . S
C802 C803 1.338 . S
C802 N805 1.377 . S
C802 H822 0.930 . S
C803 N801 1.375 . S
C803 C802 1.338 . S
C803 H807 0.931 . S
C804 N801 1.313 . S
C804 N805 1.344 . S
C804 H808 0.930 . S
N805 C802 1.377 . S
N805 C804 1.344 . S
O806 Co798 2.055 . S
O806 C810 1.253 . S
H807 C803 0.931 . S
H808 C804 0.930 . S
O809 Co798 2.039 . S
O809 C799 1.265 . S
C810 O806 1.253 . S
C810 O811 1.227 . S
O811 C810 1.227 . S
N812 Co798 2.140 . S
N812 C815 1.346 . S
N812 C816 1.345 . S
C813 C814 1.387 . S
C813 C817 1.391 . S
C814 C813 1.387 . S
C814 C815 1.369 . S
C814 H823 0.929 . S
C815 N812 1.346 . S
C815 C814 1.369 . S
C815 H818 0.928 . S
C816 N812 1.345 . S
C816 C817 1.371 . S
C816 H819 0.931 . S
C817 C813 1.391 . S
C817 C816 1.371 . S
C817 H824 0.930 . S
H818 C815 0.928 . S
H819 C816 0.931 . S
H820 C796 0.930 . S
H821 C793 0.930 . S
H822 C802 0.930 . S
H823 C814 0.929 . S
H824 C817 0.930 . S
C825 C826 1.351 . S
C825 N828 1.368 . S
C825 H830 0.931 . S
C826 C825 1.351 . S
C826 N827 1.373 1_554 S
C826 H854 0.930 . S
N827 C826 1.373 1_556 S
N827 C829 1.359 . S
N828 C825 1.368 . S
N828 C829 1.264 1_554 S
N828 Co831 2.135 . S
C829 N827 1.359 . S
C829 N828 1.264 1_556 S
C829 H853 0.967 . S
H830 C825 0.931 . S
Co831 N828 2.135 . S
Co831 N834 2.121 . S
Co831 O839 2.055 . S
Co831 O842 2.039 . S
Co831 N845 2.140 . S
C832 O833 1.227 . S
C832 O842 1.265 . S
O833 C832 1.227 . S
N834 Co831 2.121 . S
N834 C836 1.375 . S
N834 C837 1.313 . S
C835 C836 1.338 . S
C835 N838 1.377 . S
C835 H855 0.930 . S
C836 N834 1.375 . S
C836 C835 1.338 . S
C836 H840 0.931 . S
C837 N834 1.313 . S
C837 N838 1.344 . S
C837 H841 0.930 . S
N838 C835 1.377 . S
N838 C837 1.344 . S
O839 Co831 2.055 . S
O839 C843 1.253 . S
H840 C836 0.931 . S
H841 C837 0.930 . S
O842 Co831 2.039 . S
O842 C832 1.265 . S
C843 O839 1.253 . S
C843 O844 1.227 . S
O844 C843 1.227 . S
N845 Co831 2.140 . S
N845 C848 1.346 . S
N845 C849 1.345 . S
C846 C847 1.387 . S
C846 C850 1.391 . S
C847 C846 1.387 . S
C847 C848 1.369 . S
C847 H856 0.929 . S
C848 N845 1.346 . S
C848 C847 1.369 . S
C848 H851 0.928 . S
C849 N845 1.345 . S
C849 C850 1.371 . S
C849 H852 0.931 . S
C850 C846 1.391 . S
C850 C849 1.371 . S
C850 H857 0.930 . S
H851 C848 0.928 . S
H852 C849 0.931 . S
H853 C829 0.967 . S
H854 C826 0.930 . S
H855 C835 0.930 . S
H856 C847 0.929 . S
H857 C850 0.930 . S
C858 C859 1.351 . S
C858 N861 1.368 . S
C858 H863 0.931 . S
C859 C858 1.351 . S
C859 N860 1.373 . S
C859 H887 0.930 . S
N860 C859 1.373 . S
N860 C862 1.340 . S
N861 C858 1.368 . S
N861 C862 1.321 . S
N861 Co864 2.135 . S
C862 N860 1.340 . S
C862 N861 1.321 . S
C862 H886 0.930 . S
H863 C858 0.931 . S
Co864 N861 2.135 . S
Co864 N867 2.121 . S
Co864 O872 2.055 . S
Co864 O875 2.039 . S
Co864 N878 2.140 . S
C865 O866 1.227 . S
C865 O875 1.265 . S
O866 C865 1.227 . S
N867 Co864 2.121 . S
N867 C869 1.375 . S
N867 C870 1.313 . S
C868 C869 1.338 . S
C868 N871 1.377 . S
C868 H888 0.930 . S
C869 N867 1.375 . S
C869 C868 1.338 . S
C869 H873 0.931 . S
C870 N867 1.313 . S
C870 N871 1.344 . S
C870 H874 0.930 . S
N871 C868 1.377 . S
N871 C870 1.344 . S
O872 Co864 2.055 . S
O872 C876 1.253 . S
H873 C869 0.931 . S
H874 C870 0.930 . S
O875 Co864 2.039 . S
O875 C865 1.265 . S
C876 O872 1.253 . S
C876 O877 1.227 . S
O877 C876 1.227 . S
N878 Co864 2.140 . S
N878 C881 1.346 . S
N878 C882 1.345 . S
C879 C880 1.387 . S
C879 C883 1.391 . S
C880 C879 1.387 . S
C880 C881 1.369 . S
C880 H889 0.929 . S
C881 N878 1.346 . S
C881 C880 1.369 . S
C881 H884 0.928 . S
C882 N878 1.345 . S
C882 C883 1.371 . S
C882 H885 0.931 . S
C883 C879 1.391 . S
C883 C882 1.371 . S
C883 H890 0.930 . S
H884 C881 0.928 . S
H885 C882 0.931 . S
H886 C862 0.930 . S
H887 C859 0.930 . S
H888 C868 0.930 . S
H889 C880 0.929 . S
H890 C883 0.930 . S
C891 C892 1.351 . S
C891 N894 1.368 . S
C891 H896 0.931 . S
C892 C891 1.351 . S
C892 N893 1.373 . S
C892 H920 0.930 . S
N893 C892 1.373 . S
N893 C895 1.340 . S
N894 C891 1.368 . S
N894 C895 1.321 . S
N894 Co897 2.135 . S
C895 N893 1.340 . S
C895 N894 1.321 . S
C895 H919 0.930 . S
H896 C891 0.931 . S
Co897 N894 2.135 . S
Co897 N900 2.121 . S
Co897 O905 2.055 . S
Co897 O908 2.039 . S
Co897 N911 2.140 . S
C898 O899 1.227 . S
C898 O908 1.265 . S
O899 C898 1.227 . S
N900 Co897 2.121 . S
N900 C902 1.375 . S
N900 C903 1.313 . S
C901 C902 1.338 . S
C901 N904 1.377 . S
C901 H921 0.930 . S
C902 N900 1.375 . S
C902 C901 1.338 . S
C902 H906 0.931 . S
C903 N900 1.313 . S
C903 N904 1.344 . S
C903 H907 0.930 . S
N904 C901 1.377 . S
N904 C903 1.344 . S
O905 Co897 2.055 . S
O905 C909 1.253 . S
H906 C902 0.931 . S
H907 C903 0.930 . S
O908 Co897 2.039 . S
O908 C898 1.265 . S
C909 O905 1.253 . S
C909 O910 1.227 . S
O910 C909 1.227 . S
N911 Co897 2.140 . S
N911 C914 1.346 . S
N911 C915 1.345 . S
C912 C913 1.387 . S
C912 C916 1.391 . S
C913 C912 1.387 . S
C913 C914 1.369 . S
C913 H922 0.929 . S
C914 N911 1.346 . S
C914 C913 1.369 . S
C914 H917 0.928 . S
C915 N911 1.345 . S
C915 C916 1.371 . S
C915 H918 0.931 . S
C916 C912 1.391 . S
C916 C915 1.371 . S
C916 H923 0.930 . S
H917 C914 0.928 . S
H918 C915 0.931 . S
H919 C895 0.930 . S
H920 C892 0.930 . S
H921 C901 0.930 . S
H922 C913 0.929 . S
H923 C916 0.930 . S
C924 C925 1.351 . S
C924 N927 1.368 . S
C924 H929 0.931 . S
C925 C924 1.351 . S
C925 N926 1.373 1_556 S
C925 H953 0.930 . S
N926 C925 1.373 1_554 S
N926 C928 1.359 . S
N927 C924 1.368 . S
N927 C928 1.264 1_556 S
N927 Co930 2.135 . S
C928 N926 1.359 . S
C928 N927 1.264 1_554 S
C928 H952 0.967 . S
H929 C924 0.931 . S
Co930 N927 2.135 . S
Co930 N933 2.121 . S
Co930 O938 2.055 . S
Co930 O941 2.039 . S
Co930 N944 2.140 . S
C931 O932 1.227 . S
C931 O941 1.265 . S
O932 C931 1.227 . S
N933 Co930 2.121 . S
N933 C935 1.375 . S
N933 C936 1.313 . S
C934 C935 1.338 . S
C934 N937 1.377 . S
C934 H954 0.930 . S
C935 N933 1.375 . S
C935 C934 1.338 . S
C935 H939 0.931 . S
C936 N933 1.313 . S
C936 N937 1.344 . S
C936 H940 0.930 . S
N937 C934 1.377 . S
N937 C936 1.344 . S
O938 Co930 2.055 . S
O938 C942 1.253 . S
H939 C935 0.931 . S
H940 C936 0.930 . S
O941 Co930 2.039 . S
O941 C931 1.265 . S
C942 O938 1.253 . S
C942 O943 1.227 . S
O943 C942 1.227 . S
N944 Co930 2.140 . S
N944 C947 1.346 . S
N944 C948 1.345 . S
C945 C946 1.387 . S
C945 C949 1.391 . S
C946 C945 1.387 . S
C946 C947 1.369 . S
C946 H955 0.929 . S
C947 N944 1.346 . S
C947 C946 1.369 . S
C947 H950 0.928 . S
C948 N944 1.345 . S
C948 C949 1.371 . S
C948 H951 0.931 . S
C949 C945 1.391 . S
C949 C948 1.371 . S
C949 H956 0.930 . S
H950 C947 0.928 . S
H951 C948 0.931 . S
H952 C928 0.967 . S
H953 C925 0.930 . S
H954 C934 0.930 . S
H955 C946 0.929 . S
H956 C949 0.930 . S
C957 C958 1.351 . S
C957 N960 1.368 . S
C957 H962 0.931 . S
C958 C957 1.351 . S
C958 N959 1.373 . S
C958 H986 0.930 . S
N959 C958 1.373 . S
N959 C961 1.340 . S
N960 C957 1.368 . S
N960 C961 1.321 . S
N960 Co963 2.135 . S
C961 N959 1.340 . S
C961 N960 1.321 . S
C961 H985 0.930 . S
H962 C957 0.931 . S
Co963 N960 2.135 . S
Co963 N966 2.121 . S
Co963 O971 2.055 . S
Co963 O974 2.039 . S
Co963 N977 2.140 . S
C964 O965 1.227 . S
C964 O974 1.265 . S
O965 C964 1.227 . S
N966 Co963 2.121 . S
N966 C968 1.375 . S
N966 C969 1.313 . S
C967 C968 1.338 . S
C967 N970 1.377 . S
C967 H987 0.930 . S
C968 N966 1.375 . S
C968 C967 1.338 . S
C968 H972 0.931 . S
C969 N966 1.313 . S
C969 N970 1.344 . S
C969 H973 0.930 . S
N970 C967 1.377 . S
N970 C969 1.344 . S
O971 Co963 2.055 . S
O971 C975 1.253 . S
H972 C968 0.931 . S
H973 C969 0.930 . S
O974 Co963 2.039 . S
O974 C964 1.265 . S
C975 O971 1.253 . S
C975 O976 1.227 . S
O976 C975 1.227 . S
N977 Co963 2.140 . S
N977 C980 1.346 . S
N977 C981 1.345 . S
C978 C979 1.387 . S
C978 C982 1.391 . S
C979 C978 1.387 . S
C979 C980 1.369 . S
C979 H988 0.929 . S
C980 N977 1.346 . S
C980 C979 1.369 . S
C980 H983 0.928 . S
C981 N977 1.345 . S
C981 C982 1.371 . S
C981 H984 0.931 . S
C982 C978 1.391 . S
C982 C981 1.371 . S
C982 H989 0.930 . S
H983 C980 0.928 . S
H984 C981 0.931 . S
H985 C961 0.930 . S
H986 C958 0.930 . S
H987 C967 0.930 . S
H988 C979 0.929 . S
H989 C982 0.930 . S
C990 C991 1.351 . S
C990 N993 1.368 . S
C990 H995 0.931 . S
C991 C990 1.351 . S
C991 N992 1.373 . S
C991 H1019 0.930 . S
N992 C991 1.373 . S
N992 C994 1.340 . S
N993 C990 1.368 . S
N993 C994 1.321 . S
N993 Co996 2.135 . S
C994 N992 1.340 . S
C994 N993 1.321 . S
C994 H1018 0.930 . S
H995 C990 0.931 . S
Co996 N993 2.135 . S
Co996 N999 2.121 . S
Co996 O1004 2.055 . S
Co996 O1007 2.039 . S
Co996 N1010 2.140 . S
C997 O998 1.227 . S
C997 O1007 1.265 . S
O998 C997 1.227 . S
N999 Co996 2.121 . S
N999 C1001 1.375 . S
N999 C1002 1.313 . S
C1000 C1001 1.338 . S
C1000 N1003 1.377 . S
C1000 H1020 0.930 . S
C1001 N999 1.375 . S
C1001 C1000 1.338 . S
C1001 H1005 0.931 . S
C1002 N999 1.313 . S
C1002 N1003 1.344 . S
C1002 H1006 0.930 . S
N1003 C1000 1.377 . S
N1003 C1002 1.344 . S
O1004 Co996 2.055 . S
O1004 C1008 1.253 . S
H1005 C1001 0.931 . S
H1006 C1002 0.930 . S
O1007 Co996 2.039 . S
O1007 C997 1.265 . S
C1008 O1004 1.253 . S
C1008 O1009 1.227 . S
O1009 C1008 1.227 . S
N1010 Co996 2.140 . S
N1010 C1013 1.346 . S
N1010 C1014 1.345 . S
C1011 C1012 1.387 . S
C1011 C1015 1.391 . S
C1012 C1011 1.387 . S
C1012 C1013 1.369 . S
C1012 H1021 0.929 . S
C1013 N1010 1.346 . S
C1013 C1012 1.369 . S
C1013 H1016 0.928 . S
C1014 N1010 1.345 . S
C1014 C1015 1.371 . S
C1014 H1017 0.931 . S
C1015 C1011 1.391 . S
C1015 C1014 1.371 . S
C1015 H1022 0.930 . S
H1016 C1013 0.928 . S
H1017 C1014 0.931 . S
H1018 C994 0.930 . S
H1019 C991 0.930 . S
H1020 C1000 0.930 . S
H1021 C1012 0.929 . S
H1022 C1015 0.930 . S
C1023 C1024 1.351 . S
C1023 N1026 1.368 . S
C1023 H1028 0.931 . S
C1024 C1023 1.351 . S
C1024 N1025 1.373 . S
C1024 H1052 0.930 . S
N1025 C1024 1.373 . S
N1025 C1027 1.340 . S
N1026 C1023 1.368 . S
N1026 C1027 1.321 . S
N1026 Co1029 2.135 . S
C1027 N1025 1.340 . S
C1027 N1026 1.321 . S
C1027 H1051 0.930 . S
H1028 C1023 0.931 . S
Co1029 N1026 2.135 . S
Co1029 N1032 2.121 . S
Co1029 O1037 2.055 . S
Co1029 O1040 2.039 . S
Co1029 N1043 2.140 . S
C1030 O1031 1.227 . S
C1030 O1040 1.265 . S
O1031 C1030 1.227 . S
N1032 Co1029 2.121 . S
N1032 C1034 1.375 . S
N1032 C1035 1.313 . S
C1033 C1034 1.338 . S
C1033 N1036 1.377 . S
C1033 H1053 0.930 . S
C1034 N1032 1.375 . S
C1034 C1033 1.338 . S
C1034 H1038 0.931 . S
C1035 N1032 1.313 . S
C1035 N1036 1.344 . S
C1035 H1039 0.930 . S
N1036 C1033 1.377 . S
N1036 C1035 1.344 . S
O1037 Co1029 2.055 . S
O1037 C1041 1.253 . S
H1038 C1034 0.931 . S
H1039 C1035 0.930 . S
O1040 Co1029 2.039 . S
O1040 C1030 1.265 . S
C1041 O1037 1.253 . S
C1041 O1042 1.227 . S
O1042 C1041 1.227 . S
N1043 Co1029 2.140 . S
N1043 C1046 1.346 . S
N1043 C1047 1.345 . S
C1044 C1045 1.387 . S
C1044 C1048 1.391 . S
C1045 C1044 1.387 . S
C1045 C1046 1.369 . S
C1045 H1054 0.929 . S
C1046 N1043 1.346 . S
C1046 C1045 1.369 . S
C1046 H1049 0.928 . S
C1047 N1043 1.345 . S
C1047 C1048 1.371 . S
C1047 H1050 0.931 . S
C1048 C1044 1.391 . S
C1048 C1047 1.371 . S
C1048 H1055 0.930 . S
H1049 C1046 0.928 . S
H1050 C1047 0.931 . S
H1051 C1027 0.930 . S
H1052 C1024 0.930 . S
H1053 C1033 0.930 . S
H1054 C1045 0.929 . S
H1055 C1048 0.930 . S
C1056 C1057 1.351 . S
C1056 N1059 1.368 . S
C1056 H1061 0.931 . S
C1057 C1056 1.351 . S
C1057 N1058 1.373 . S
C1057 H1085 0.930 . S
N1058 C1057 1.373 . S
N1058 C1060 1.340 . S
N1059 C1056 1.368 . S
N1059 C1060 1.321 . S
N1059 Co1062 2.135 . S
C1060 N1058 1.340 . S
C1060 N1059 1.321 . S
C1060 H1084 0.930 . S
H1061 C1056 0.931 . S
Co1062 N1059 2.135 . S
Co1062 N1065 2.121 . S
Co1062 O1070 2.055 . S
Co1062 O1073 2.039 . S
Co1062 N1076 2.140 . S
C1063 O1064 1.227 . S
C1063 O1073 1.265 . S
O1064 C1063 1.227 . S
N1065 Co1062 2.121 . S
N1065 C1067 1.375 . S
N1065 C1068 1.313 . S
C1066 C1067 1.338 . S
C1066 N1069 1.377 . S
C1066 H1086 0.930 . S
C1067 N1065 1.375 . S
C1067 C1066 1.338 . S
C1067 H1071 0.931 . S
C1068 N1065 1.313 . S
C1068 N1069 1.344 . S
C1068 H1072 0.930 . S
N1069 C1066 1.377 . S
N1069 C1068 1.344 . S
O1070 Co1062 2.055 . S
O1070 C1074 1.253 . S
H1071 C1067 0.931 . S
H1072 C1068 0.930 . S
O1073 Co1062 2.039 . S
O1073 C1063 1.265 . S
C1074 O1070 1.253 . S
C1074 O1075 1.227 . S
O1075 C1074 1.227 . S
N1076 Co1062 2.140 . S
N1076 C1079 1.346 . S
N1076 C1080 1.345 . S
C1077 C1078 1.387 . S
C1077 C1081 1.391 . S
C1078 C1077 1.387 . S
C1078 C1079 1.369 . S
C1078 H1087 0.929 . S
C1079 N1076 1.346 . S
C1079 C1078 1.369 . S
C1079 H1082 0.928 . S
C1080 N1076 1.345 . S
C1080 C1081 1.371 . S
C1080 H1083 0.931 . S
C1081 C1077 1.391 . S
C1081 C1080 1.371 . S
C1081 H1088 0.930 . S
H1082 C1079 0.928 . S
H1083 C1080 0.931 . S
H1084 C1060 0.930 . S
H1085 C1057 0.930 . S
H1086 C1066 0.930 . S
H1087 C1078 0.929 . S
H1088 C1081 0.930 . S
C1089 C1090 1.351 . S
C1089 N1092 1.368 . S
C1089 H1094 0.931 . S
C1090 C1089 1.351 . S
C1090 N1091 1.373 . S
C1090 H1118 0.930 . S
N1091 C1090 1.373 . S
N1091 C1093 1.340 . S
N1092 C1089 1.368 . S
N1092 C1093 1.321 . S
N1092 Co1095 2.135 . S
C1093 N1091 1.340 . S
C1093 N1092 1.321 . S
C1093 H1117 0.930 . S
H1094 C1089 0.931 . S
Co1095 N1092 2.135 . S
Co1095 N1098 2.121 . S
Co1095 O1103 2.055 . S
Co1095 O1106 2.039 . S
Co1095 N1109 2.140 . S
C1096 O1097 1.227 . S
C1096 O1106 1.265 . S
O1097 C1096 1.227 . S
N1098 Co1095 2.121 . S
N1098 C1100 1.375 . S
N1098 C1101 1.313 . S
C1099 C1100 1.338 . S
C1099 N1102 1.377 . S
C1099 H1119 0.930 . S
C1100 N1098 1.375 . S
C1100 C1099 1.338 . S
C1100 H1104 0.931 . S
C1101 N1098 1.313 . S
C1101 N1102 1.344 . S
C1101 H1105 0.930 . S
N1102 C1099 1.377 . S
N1102 C1101 1.344 . S
O1103 Co1095 2.055 . S
O1103 C1107 1.253 . S
H1104 C1100 0.931 . S
H1105 C1101 0.930 . S
O1106 Co1095 2.039 . S
O1106 C1096 1.265 . S
C1107 O1103 1.253 . S
C1107 O1108 1.227 . S
O1108 C1107 1.227 . S
N1109 Co1095 2.140 . S
N1109 C1112 1.346 . S
N1109 C1113 1.345 . S
C1110 C1111 1.387 . S
C1110 C1114 1.391 . S
C1111 C1110 1.387 . S
C1111 C1112 1.369 . S
C1111 H1120 0.929 . S
C1112 N1109 1.346 . S
C1112 C1111 1.369 . S
C1112 H1115 0.928 . S
C1113 N1109 1.345 . S
C1113 C1114 1.371 . S
C1113 H1116 0.931 . S
C1114 C1110 1.391 . S
C1114 C1113 1.371 . S
C1114 H1121 0.930 . S
H1115 C1112 0.928 . S
H1116 C1113 0.931 . S
H1117 C1093 0.930 . S
H1118 C1090 0.930 . S
H1119 C1099 0.930 . S
H1120 C1111 0.929 . S
H1121 C1114 0.930 . S
C1122 C1123 1.351 . S
C1122 N1125 1.368 . S
C1122 H1127 0.931 . S
C1123 C1122 1.351 . S
C1123 N1124 1.373 . S
C1123 H1151 0.930 . S
N1124 C1123 1.373 . S
N1124 C1126 1.340 . S
N1125 C1122 1.368 . S
N1125 C1126 1.321 . S
N1125 Co1128 2.135 . S
C1126 N1124 1.340 . S
C1126 N1125 1.321 . S
C1126 H1150 0.930 . S
H1127 C1122 0.931 . S
Co1128 N1125 2.135 . S
Co1128 N1131 2.121 . S
Co1128 O1136 2.055 . S
Co1128 O1139 2.039 . S
Co1128 N1142 2.140 . S
C1129 O1130 1.227 . S
C1129 O1139 1.265 . S
O1130 C1129 1.227 . S
N1131 Co1128 2.121 . S
N1131 C1133 1.375 . S
N1131 C1134 1.313 . S
C1132 C1133 1.338 . S
C1132 N1135 1.377 . S
C1132 H1152 0.930 . S
C1133 N1131 1.375 . S
C1133 C1132 1.338 . S
C1133 H1137 0.931 . S
C1134 N1131 1.313 . S
C1134 N1135 1.344 . S
C1134 H1138 0.930 . S
N1135 C1132 1.377 . S
N1135 C1134 1.344 . S
O1136 Co1128 2.055 . S
O1136 C1140 1.253 . S
H1137 C1133 0.931 . S
H1138 C1134 0.930 . S
O1139 Co1128 2.039 . S
O1139 C1129 1.265 . S
C1140 O1136 1.253 . S
C1140 O1141 1.227 . S
O1141 C1140 1.227 . S
N1142 Co1128 2.140 . S
N1142 C1145 1.346 . S
N1142 C1146 1.345 . S
C1143 C1144 1.387 . S
C1143 C1147 1.391 . S
C1144 C1143 1.387 . S
C1144 C1145 1.369 . S
C1144 H1153 0.929 . S
C1145 N1142 1.346 . S
C1145 C1144 1.369 . S
C1145 H1148 0.928 . S
C1146 N1142 1.345 . S
C1146 C1147 1.371 . S
C1146 H1149 0.931 . S
C1147 C1143 1.391 . S
C1147 C1146 1.371 . S
C1147 H1154 0.930 . S
H1148 C1145 0.928 . S
H1149 C1146 0.931 . S
H1150 C1126 0.930 . S
H1151 C1123 0.930 . S
H1152 C1132 0.930 . S
H1153 C1144 0.929 . S
H1154 C1147 0.930 . S
C1155 C1156 1.351 . S
C1155 N1158 1.368 . S
C1155 H1160 0.931 . S
C1156 C1155 1.351 . S
C1156 N1157 1.373 . S
C1156 H1184 0.930 . S
N1157 C1156 1.373 . S
N1157 C1159 1.340 . S
N1158 C1155 1.368 . S
N1158 C1159 1.321 . S
N1158 Co1161 2.135 . S
C1159 N1157 1.340 . S
C1159 N1158 1.321 . S
C1159 H1183 0.930 . S
H1160 C1155 0.931 . S
Co1161 N1158 2.135 . S
Co1161 N1164 2.121 . S
Co1161 O1169 2.055 . S
Co1161 O1172 2.039 . S
Co1161 N1175 2.140 . S
C1162 O1163 1.227 . S
C1162 O1172 1.265 . S
O1163 C1162 1.227 . S
N1164 Co1161 2.121 . S
N1164 C1166 1.375 . S
N1164 C1167 1.313 . S
C1165 C1166 1.338 . S
C1165 N1168 1.377 . S
C1165 H1185 0.930 . S
C1166 N1164 1.375 . S
C1166 C1165 1.338 . S
C1166 H1170 0.931 . S
C1167 N1164 1.313 . S
C1167 N1168 1.344 . S
C1167 H1171 0.930 . S
N1168 C1165 1.377 . S
N1168 C1167 1.344 . S
O1169 Co1161 2.055 . S
O1169 C1173 1.253 . S
H1170 C1166 0.931 . S
H1171 C1167 0.930 . S
O1172 Co1161 2.039 . S
O1172 C1162 1.265 . S
C1173 O1169 1.253 . S
C1173 O1174 1.227 . S
O1174 C1173 1.227 . S
N1175 Co1161 2.140 . S
N1175 C1178 1.346 . S
N1175 C1179 1.345 . S
C1176 C1177 1.387 . S
C1176 C1180 1.391 . S
C1177 C1176 1.387 . S
C1177 C1178 1.369 . S
C1177 H1186 0.929 . S
C1178 N1175 1.346 . S
C1178 C1177 1.369 . S
C1178 H1181 0.928 . S
C1179 N1175 1.345 . S
C1179 C1180 1.371 . S
C1179 H1182 0.931 . S
C1180 C1176 1.391 . S
C1180 C1179 1.371 . S
C1180 H1187 0.930 . S
H1181 C1178 0.928 . S
H1182 C1179 0.931 . S
H1183 C1159 0.930 . S
H1184 C1156 0.930 . S
H1185 C1165 0.930 . S
H1186 C1177 0.929 . S
H1187 C1180 0.930 . S
C1188 C1189 1.351 . S
C1188 N1191 1.368 . S
C1188 H1193 0.931 . S
C1189 C1188 1.351 . S
C1189 N1190 1.373 1_545 S
C1189 H1217 0.930 . S
N1190 C1189 1.373 1_565 S
N1190 C1192 1.359 . S
N1191 C1188 1.368 . S
N1191 C1192 1.264 1_545 S
N1191 Co1194 2.135 . S
C1192 N1190 1.359 . S
C1192 N1191 1.264 1_565 S
C1192 H1216 0.967 . S
H1193 C1188 0.931 . S
Co1194 N1191 2.135 . S
Co1194 N1197 2.121 . S
Co1194 O1202 2.055 . S
Co1194 O1205 2.039 . S
Co1194 N1208 2.140 . S
C1195 O1196 1.227 . S
C1195 O1205 1.265 . S
O1196 C1195 1.227 . S
N1197 Co1194 2.121 . S
N1197 C1199 1.375 . S
N1197 C1200 1.313 . S
C1198 C1199 1.338 . S
C1198 N1201 1.377 . S
C1198 H1218 0.930 . S
C1199 N1197 1.375 . S
C1199 C1198 1.338 . S
C1199 H1203 0.931 . S
C1200 N1197 1.313 . S
C1200 N1201 1.344 . S
C1200 H1204 0.930 . S
N1201 C1198 1.377 . S
N1201 C1200 1.344 . S
O1202 Co1194 2.055 . S
O1202 C1206 1.253 . S
H1203 C1199 0.931 . S
H1204 C1200 0.930 . S
O1205 Co1194 2.039 . S
O1205 C1195 1.265 . S
C1206 O1202 1.253 . S
C1206 O1207 1.227 . S
O1207 C1206 1.227 . S
N1208 Co1194 2.140 . S
N1208 C1211 1.346 . S
N1208 C1212 1.345 . S
C1209 C1210 1.387 . S
C1209 C1213 1.391 . S
C1210 C1209 1.387 . S
C1210 C1211 1.369 . S
C1210 H1219 0.929 . S
C1211 N1208 1.346 . S
C1211 C1210 1.369 . S
C1211 H1214 0.928 . S
C1212 N1208 1.345 . S
C1212 C1213 1.371 . S
C1212 H1215 0.931 . S
C1213 C1209 1.391 . S
C1213 C1212 1.371 . S
C1213 H1220 0.930 . S
H1214 C1211 0.928 . S
H1215 C1212 0.931 . S
H1216 C1192 0.967 . S
H1217 C1189 0.930 . S
H1218 C1198 0.930 . S
H1219 C1210 0.929 . S
H1220 C1213 0.930 . S
C1221 C1222 1.351 . S
C1221 N1224 1.368 . S
C1221 H1226 0.931 . S
C1222 C1221 1.351 . S
C1222 N1223 1.373 . S
C1222 H1250 0.930 . S
N1223 C1222 1.373 . S
N1223 C1225 1.340 . S
N1224 C1221 1.368 . S
N1224 C1225 1.321 . S
N1224 Co1227 2.135 . S
C1225 N1223 1.340 . S
C1225 N1224 1.321 . S
C1225 H1249 0.930 . S
H1226 C1221 0.931 . S
Co1227 N1224 2.135 . S
Co1227 N1230 2.121 . S
Co1227 O1235 2.055 . S
Co1227 O1238 2.039 . S
Co1227 N1241 2.140 . S
C1228 O1229 1.227 . S
C1228 O1238 1.265 . S
O1229 C1228 1.227 . S
N1230 Co1227 2.121 . S
N1230 C1232 1.375 . S
N1230 C1233 1.313 . S
C1231 C1232 1.338 . S
C1231 N1234 1.377 . S
C1231 H1251 0.930 . S
C1232 N1230 1.375 . S
C1232 C1231 1.338 . S
C1232 H1236 0.931 . S
C1233 N1230 1.313 . S
C1233 N1234 1.344 . S
C1233 H1237 0.930 . S
N1234 C1231 1.377 . S
N1234 C1233 1.344 . S
O1235 Co1227 2.055 . S
O1235 C1239 1.253 . S
H1236 C1232 0.931 . S
H1237 C1233 0.930 . S
O1238 Co1227 2.039 . S
O1238 C1228 1.265 . S
C1239 O1235 1.253 . S
C1239 O1240 1.227 . S
O1240 C1239 1.227 . S
N1241 Co1227 2.140 . S
N1241 C1244 1.346 . S
N1241 C1245 1.345 . S
C1242 C1243 1.387 . S
C1242 C1246 1.391 . S
C1243 C1242 1.387 . S
C1243 C1244 1.369 . S
C1243 H1252 0.929 . S
C1244 N1241 1.346 . S
C1244 C1243 1.369 . S
C1244 H1247 0.928 . S
C1245 N1241 1.345 . S
C1245 C1246 1.371 . S
C1245 H1248 0.931 . S
C1246 C1242 1.391 . S
C1246 C1245 1.371 . S
C1246 H1253 0.930 . S
H1247 C1244 0.928 . S
H1248 C1245 0.931 . S
H1249 C1225 0.930 . S
H1250 C1222 0.930 . S
H1251 C1231 0.930 . S
H1252 C1243 0.929 . S
H1253 C1246 0.930 . S
C1254 C1255 1.351 . S
C1254 N1257 1.368 . S
C1254 H1259 0.931 . S
C1255 C1254 1.351 . S
C1255 N1256 1.373 . S
C1255 H1283 0.930 . S
N1256 C1255 1.373 . S
N1256 C1258 1.340 . S
N1257 C1254 1.368 . S
N1257 C1258 1.321 . S
N1257 Co1260 2.135 . S
C1258 N1256 1.340 . S
C1258 N1257 1.321 . S
C1258 H1282 0.930 . S
H1259 C1254 0.931 . S
Co1260 N1257 2.135 . S
Co1260 N1263 2.121 . S
Co1260 O1268 2.055 . S
Co1260 O1271 2.039 . S
Co1260 N1274 2.140 . S
C1261 O1262 1.227 . S
C1261 O1271 1.265 . S
O1262 C1261 1.227 . S
N1263 Co1260 2.121 . S
N1263 C1265 1.375 . S
N1263 C1266 1.313 . S
C1264 C1265 1.338 . S
C1264 N1267 1.377 . S
C1264 H1284 0.930 . S
C1265 N1263 1.375 . S
C1265 C1264 1.338 . S
C1265 H1269 0.931 . S
C1266 N1263 1.313 . S
C1266 N1267 1.344 . S
C1266 H1270 0.930 . S
N1267 C1264 1.377 . S
N1267 C1266 1.344 . S
O1268 Co1260 2.055 . S
O1268 C1272 1.253 . S
H1269 C1265 0.931 . S
H1270 C1266 0.930 . S
O1271 Co1260 2.039 . S
O1271 C1261 1.265 . S
C1272 O1268 1.253 . S
C1272 O1273 1.227 . S
O1273 C1272 1.227 . S
N1274 Co1260 2.140 . S
N1274 C1277 1.346 . S
N1274 C1278 1.345 . S
C1275 C1276 1.387 . S
C1275 C1279 1.391 . S
C1276 C1275 1.387 . S
C1276 C1277 1.369 . S
C1276 H1285 0.929 . S
C1277 N1274 1.346 . S
C1277 C1276 1.369 . S
C1277 H1280 0.928 . S
C1278 N1274 1.345 . S
C1278 C1279 1.371 . S
C1278 H1281 0.931 . S
C1279 C1275 1.391 . S
C1279 C1278 1.371 . S
C1279 H1286 0.930 . S
H1280 C1277 0.928 . S
H1281 C1278 0.931 . S
H1282 C1258 0.930 . S
H1283 C1255 0.930 . S
H1284 C1264 0.930 . S
H1285 C1276 0.929 . S
H1286 C1279 0.930 . S
C1287 C1288 1.351 . S
C1287 N1290 1.368 . S
C1287 H1292 0.931 . S
C1288 C1287 1.351 . S
C1288 N1289 1.373 1_655 S
C1288 H1316 0.930 . S
N1289 C1288 1.373 1_455 S
N1289 C1291 1.359 . S
N1290 C1287 1.368 . S
N1290 C1291 1.264 1_655 S
N1290 Co1293 2.135 . S
C1291 N1289 1.359 . S
C1291 N1290 1.264 1_455 S
C1291 H1315 0.967 . S
H1292 C1287 0.931 . S
Co1293 N1290 2.135 . S
Co1293 N1296 2.121 . S
Co1293 O1301 2.055 . S
Co1293 O1304 2.039 . S
Co1293 N1307 2.140 . S
C1294 O1295 1.227 . S
C1294 O1304 1.265 . S
O1295 C1294 1.227 . S
N1296 Co1293 2.121 . S
N1296 C1298 1.375 . S
N1296 C1299 1.313 . S
C1297 C1298 1.338 . S
C1297 N1300 1.377 . S
C1297 H1317 0.930 . S
C1298 N1296 1.375 . S
C1298 C1297 1.338 . S
C1298 H1302 0.931 . S
C1299 N1296 1.313 . S
C1299 N1300 1.344 . S
C1299 H1303 0.930 . S
N1300 C1297 1.377 . S
N1300 C1299 1.344 . S
O1301 Co1293 2.055 . S
O1301 C1305 1.253 . S
H1302 C1298 0.931 . S
H1303 C1299 0.930 . S
O1304 Co1293 2.039 . S
O1304 C1294 1.265 . S
C1305 O1301 1.253 . S
C1305 O1306 1.227 . S
O1306 C1305 1.227 . S
N1307 Co1293 2.140 . S
N1307 C1310 1.346 . S
N1307 C1311 1.345 . S
C1308 C1309 1.387 . S
C1308 C1312 1.391 . S
C1309 C1308 1.387 . S
C1309 C1310 1.369 . S
C1309 H1318 0.929 . S
C1310 N1307 1.346 . S
C1310 C1309 1.369 . S
C1310 H1313 0.928 . S
C1311 N1307 1.345 . S
C1311 C1312 1.371 . S
C1311 H1314 0.931 . S
C1312 C1308 1.391 . S
C1312 C1311 1.371 . S
C1312 H1319 0.930 . S
H1313 C1310 0.928 . S
H1314 C1311 0.931 . S
H1315 C1291 0.967 . S
H1316 C1288 0.930 . S
H1317 C1297 0.930 . S
H1318 C1309 0.929 . S
H1319 C1312 0.930 . S
C1320 C1321 1.351 . S
C1320 N1323 1.368 . S
C1320 H1325 0.931 . S
C1321 C1320 1.351 . S
C1321 N1322 1.373 1_556 S
C1321 H1349 0.930 . S
N1322 C1321 1.373 1_554 S
N1322 C1324 1.359 . S
N1323 C1320 1.368 . S
N1323 C1324 1.264 1_556 S
N1323 Co1326 2.135 . S
C1324 N1322 1.359 . S
C1324 N1323 1.264 1_554 S
C1324 H1348 0.967 . S
H1325 C1320 0.931 . S
Co1326 N1323 2.135 . S
Co1326 N1329 2.121 . S
Co1326 O1334 2.055 . S
Co1326 O1337 2.039 . S
Co1326 N1340 2.140 . S
C1327 O1328 1.227 . S
C1327 O1337 1.265 . S
O1328 C1327 1.227 . S
N1329 Co1326 2.121 . S
N1329 C1331 1.375 . S
N1329 C1332 1.313 . S
C1330 C1331 1.338 . S
C1330 N1333 1.377 . S
C1330 H1350 0.930 . S
C1331 N1329 1.375 . S
C1331 C1330 1.338 . S
C1331 H1335 0.931 . S
C1332 N1329 1.313 . S
C1332 N1333 1.344 . S
C1332 H1336 0.930 . S
N1333 C1330 1.377 . S
N1333 C1332 1.344 . S
O1334 Co1326 2.055 . S
O1334 C1338 1.253 . S
H1335 C1331 0.931 . S
H1336 C1332 0.930 . S
O1337 Co1326 2.039 . S
O1337 C1327 1.265 . S
C1338 O1334 1.253 . S
C1338 O1339 1.227 . S
O1339 C1338 1.227 . S
N1340 Co1326 2.140 . S
N1340 C1343 1.346 . S
N1340 C1344 1.345 . S
C1341 C1342 1.387 . S
C1341 C1345 1.391 . S
C1342 C1341 1.387 . S
C1342 C1343 1.369 . S
C1342 H1351 0.929 . S
C1343 N1340 1.346 . S
C1343 C1342 1.369 . S
C1343 H1346 0.928 . S
C1344 N1340 1.345 . S
C1344 C1345 1.371 . S
C1344 H1347 0.931 . S
C1345 C1341 1.391 . S
C1345 C1344 1.371 . S
C1345 H1352 0.930 . S
H1346 C1343 0.928 . S
H1347 C1344 0.931 . S
H1348 C1324 0.967 . S
H1349 C1321 0.930 . S
H1350 C1330 0.930 . S
H1351 C1342 0.929 . S
H1352 C1345 0.930 . S
C1353 C1354 1.351 . S
C1353 N1356 1.368 . S
C1353 H1358 0.931 . S
C1354 C1353 1.351 . S
C1354 N1355 1.373 . S
C1354 H1382 0.930 . S
N1355 C1354 1.373 . S
N1355 C1357 1.340 . S
N1356 C1353 1.368 . S
N1356 C1357 1.321 . S
N1356 Co1359 2.135 . S
C1357 N1355 1.340 . S
C1357 N1356 1.321 . S
C1357 H1381 0.930 . S
H1358 C1353 0.931 . S
Co1359 N1356 2.135 . S
Co1359 N1362 2.121 . S
Co1359 O1367 2.055 . S
Co1359 O1370 2.039 . S
Co1359 N1373 2.140 . S
C1360 O1361 1.227 . S
C1360 O1370 1.265 . S
O1361 C1360 1.227 . S
N1362 Co1359 2.121 . S
N1362 C1364 1.375 . S
N1362 C1365 1.313 . S
C1363 C1364 1.338 . S
C1363 N1366 1.377 . S
C1363 H1383 0.930 . S
C1364 N1362 1.375 . S
C1364 C1363 1.338 . S
C1364 H1368 0.931 . S
C1365 N1362 1.313 . S
C1365 N1366 1.344 . S
C1365 H1369 0.930 . S
N1366 C1363 1.377 . S
N1366 C1365 1.344 . S
O1367 Co1359 2.055 . S
O1367 C1371 1.253 . S
H1368 C1364 0.931 . S
H1369 C1365 0.930 . S
O1370 Co1359 2.039 . S
O1370 C1360 1.265 . S
C1371 O1367 1.253 . S
C1371 O1372 1.227 . S
O1372 C1371 1.227 . S
N1373 Co1359 2.140 . S
N1373 C1376 1.346 . S
N1373 C1377 1.345 . S
C1374 C1375 1.387 . S
C1374 C1378 1.391 . S
C1375 C1374 1.387 . S
C1375 C1376 1.369 . S
C1375 H1384 0.929 . S
C1376 N1373 1.346 . S
C1376 C1375 1.369 . S
C1376 H1379 0.928 . S
C1377 N1373 1.345 . S
C1377 C1378 1.371 . S
C1377 H1380 0.931 . S
C1378 C1374 1.391 . S
C1378 C1377 1.371 . S
C1378 H1385 0.930 . S
H1379 C1376 0.928 . S
H1380 C1377 0.931 . S
H1381 C1357 0.930 . S
H1382 C1354 0.930 . S
H1383 C1363 0.930 . S
H1384 C1375 0.929 . S
H1385 C1378 0.930 . S
C1386 C1387 1.351 . S
C1386 N1389 1.368 . S
C1386 H1391 0.931 . S
C1387 C1386 1.351 . S
C1387 N1388 1.373 . S
C1387 H1415 0.930 . S
N1388 C1387 1.373 . S
N1388 C1390 1.340 . S
N1389 C1386 1.368 . S
N1389 C1390 1.321 . S
N1389 Co1392 2.135 . S
C1390 N1388 1.340 . S
C1390 N1389 1.321 . S
C1390 H1414 0.930 . S
H1391 C1386 0.931 . S
Co1392 N1389 2.135 . S
Co1392 N1395 2.121 . S
Co1392 O1400 2.055 . S
Co1392 O1403 2.039 . S
Co1392 N1406 2.140 . S
C1393 O1394 1.227 . S
C1393 O1403 1.265 . S
O1394 C1393 1.227 . S
N1395 Co1392 2.121 . S
N1395 C1397 1.375 . S
N1395 C1398 1.313 . S
C1396 C1397 1.338 . S
C1396 N1399 1.377 . S
C1396 H1416 0.930 . S
C1397 N1395 1.375 . S
C1397 C1396 1.338 . S
C1397 H1401 0.931 . S
C1398 N1395 1.313 . S
C1398 N1399 1.344 . S
C1398 H1402 0.930 . S
N1399 C1396 1.377 . S
N1399 C1398 1.344 . S
O1400 Co1392 2.055 . S
O1400 C1404 1.253 . S
H1401 C1397 0.931 . S
H1402 C1398 0.930 . S
O1403 Co1392 2.039 . S
O1403 C1393 1.265 . S
C1404 O1400 1.253 . S
C1404 O1405 1.227 . S
O1405 C1404 1.227 . S
N1406 Co1392 2.140 . S
N1406 C1409 1.346 . S
N1406 C1410 1.345 . S
C1407 C1408 1.387 . S
C1407 C1411 1.391 . S
C1408 C1407 1.387 . S
C1408 C1409 1.369 . S
C1408 H1417 0.929 . S
C1409 N1406 1.346 . S
C1409 C1408 1.369 . S
C1409 H1412 0.928 . S
C1410 N1406 1.345 . S
C1410 C1411 1.371 . S
C1410 H1413 0.931 . S
C1411 C1407 1.391 . S
C1411 C1410 1.371 . S
C1411 H1418 0.930 . S
H1412 C1409 0.928 . S
H1413 C1410 0.931 . S
H1414 C1390 0.930 . S
H1415 C1387 0.930 . S
H1416 C1396 0.930 . S
H1417 C1408 0.929 . S
H1418 C1411 0.930 . S
C1419 C1420 1.351 . S
C1419 N1422 1.368 . S
C1419 H1424 0.931 . S
C1420 C1419 1.351 . S
C1420 N1421 1.373 . S
C1420 H1448 0.930 . S
N1421 C1420 1.373 . S
N1421 C1423 1.340 . S
N1422 C1419 1.368 . S
N1422 C1423 1.321 . S
N1422 Co1425 2.135 . S
C1423 N1421 1.340 . S
C1423 N1422 1.321 . S
C1423 H1447 0.930 . S
H1424 C1419 0.931 . S
Co1425 N1422 2.135 . S
Co1425 N1428 2.121 . S
Co1425 O1433 2.055 . S
Co1425 O1436 2.039 . S
Co1425 N1439 2.140 . S
C1426 O1427 1.227 . S
C1426 O1436 1.265 . S
O1427 C1426 1.227 . S
N1428 Co1425 2.121 . S
N1428 C1430 1.375 . S
N1428 C1431 1.313 . S
C1429 C1430 1.338 . S
C1429 N1432 1.377 . S
C1429 H1449 0.930 . S
C1430 N1428 1.375 . S
C1430 C1429 1.338 . S
C1430 H1434 0.931 . S
C1431 N1428 1.313 . S
C1431 N1432 1.344 . S
C1431 H1435 0.930 . S
N1432 C1429 1.377 . S
N1432 C1431 1.344 . S
O1433 Co1425 2.055 . S
O1433 C1437 1.253 . S
H1434 C1430 0.931 . S
H1435 C1431 0.930 . S
O1436 Co1425 2.039 . S
O1436 C1426 1.265 . S
C1437 O1433 1.253 . S
C1437 O1438 1.227 . S
O1438 C1437 1.227 . S
N1439 Co1425 2.140 . S
N1439 C1442 1.346 . S
N1439 C1443 1.345 . S
C1440 C1441 1.387 . S
C1440 C1444 1.391 . S
C1441 C1440 1.387 . S
C1441 C1442 1.369 . S
C1441 H1450 0.929 . S
C1442 N1439 1.346 . S
C1442 C1441 1.369 . S
C1442 H1445 0.928 . S
C1443 N1439 1.345 . S
C1443 C1444 1.371 . S
C1443 H1446 0.931 . S
C1444 C1440 1.391 . S
C1444 C1443 1.371 . S
C1444 H1451 0.930 . S
H1445 C1442 0.928 . S
H1446 C1443 0.931 . S
H1447 C1423 0.930 . S
H1448 C1420 0.930 . S
H1449 C1429 0.930 . S
H1450 C1441 0.929 . S
H1451 C1444 0.930 . S
C1452 C1453 1.351 . S
C1452 N1455 1.368 . S
C1452 H1457 0.931 . S
C1453 C1452 1.351 . S
C1453 N1454 1.373 . S
C1453 H1481 0.930 . S
N1454 C1453 1.373 . S
N1454 C1456 1.340 . S
N1455 C1452 1.368 . S
N1455 C1456 1.321 . S
N1455 Co1458 2.135 . S
C1456 N1454 1.340 . S
C1456 N1455 1.321 . S
C1456 H1480 0.930 . S
H1457 C1452 0.931 . S
Co1458 N1455 2.135 . S
Co1458 N1461 2.121 . S
Co1458 O1466 2.055 . S
Co1458 O1469 2.039 . S
Co1458 N1472 2.140 . S
C1459 O1460 1.227 . S
C1459 O1469 1.265 . S
O1460 C1459 1.227 . S
N1461 Co1458 2.121 . S
N1461 C1463 1.375 . S
N1461 C1464 1.313 . S
C1462 C1463 1.338 . S
C1462 N1465 1.377 . S
C1462 H1482 0.930 . S
C1463 N1461 1.375 . S
C1463 C1462 1.338 . S
C1463 H1467 0.931 . S
C1464 N1461 1.313 . S
C1464 N1465 1.344 . S
C1464 H1468 0.930 . S
N1465 C1462 1.377 . S
N1465 C1464 1.344 . S
O1466 Co1458 2.055 . S
O1466 C1470 1.253 . S
H1467 C1463 0.931 . S
H1468 C1464 0.930 . S
O1469 Co1458 2.039 . S
O1469 C1459 1.265 . S
C1470 O1466 1.253 . S
C1470 O1471 1.227 . S
O1471 C1470 1.227 . S
N1472 Co1458 2.140 . S
N1472 C1475 1.346 . S
N1472 C1476 1.345 . S
C1473 C1474 1.387 . S
C1473 C1477 1.391 . S
C1474 C1473 1.387 . S
C1474 C1475 1.369 . S
C1474 H1483 0.929 . S
C1475 N1472 1.346 . S
C1475 C1474 1.369 . S
C1475 H1478 0.928 . S
C1476 N1472 1.345 . S
C1476 C1477 1.371 . S
C1476 H1479 0.931 . S
C1477 C1473 1.391 . S
C1477 C1476 1.371 . S
C1477 H1484 0.930 . S
H1478 C1475 0.928 . S
H1479 C1476 0.931 . S
H1480 C1456 0.930 . S
H1481 C1453 0.930 . S
H1482 C1462 0.930 . S
H1483 C1474 0.929 . S
H1484 C1477 0.930 . S
C1485 C1486 1.351 . S
C1485 N1488 1.368 . S
C1485 H1490 0.931 . S
C1486 C1485 1.351 . S
C1486 N1487 1.373 1_554 S
C1486 H1514 0.930 . S
N1487 C1486 1.373 1_556 S
N1487 C1489 1.359 . S
N1488 C1485 1.368 . S
N1488 C1489 1.264 1_554 S
N1488 Co1491 2.135 . S
C1489 N1487 1.359 . S
C1489 N1488 1.264 1_556 S
C1489 H1513 0.967 . S
H1490 C1485 0.931 . S
Co1491 N1488 2.135 . S
Co1491 N1494 2.121 . S
Co1491 O1499 2.055 . S
Co1491 O1502 2.039 . S
Co1491 N1505 2.140 . S
C1492 O1493 1.227 . S
C1492 O1502 1.265 . S
O1493 C1492 1.227 . S
N1494 Co1491 2.121 . S
N1494 C1496 1.375 . S
N1494 C1497 1.313 . S
C1495 C1496 1.338 . S
C1495 N1498 1.377 . S
C1495 H1515 0.930 . S
C1496 N1494 1.375 . S
C1496 C1495 1.338 . S
C1496 H1500 0.931 . S
C1497 N1494 1.313 . S
C1497 N1498 1.344 . S
C1497 H1501 0.930 . S
N1498 C1495 1.377 . S
N1498 C1497 1.344 . S
O1499 Co1491 2.055 . S
O1499 C1503 1.253 . S
H1500 C1496 0.931 . S
H1501 C1497 0.930 . S
O1502 Co1491 2.039 . S
O1502 C1492 1.265 . S
C1503 O1499 1.253 . S
C1503 O1504 1.227 . S
O1504 C1503 1.227 . S
N1505 Co1491 2.140 . S
N1505 C1508 1.346 . S
N1505 C1509 1.345 . S
C1506 C1507 1.387 . S
C1506 C1510 1.391 . S
C1507 C1506 1.387 . S
C1507 C1508 1.369 . S
C1507 H1516 0.929 . S
C1508 N1505 1.346 . S
C1508 C1507 1.369 . S
C1508 H1511 0.928 . S
C1509 N1505 1.345 . S
C1509 C1510 1.371 . S
C1509 H1512 0.931 . S
C1510 C1506 1.391 . S
C1510 C1509 1.371 . S
C1510 H1517 0.930 . S
H1511 C1508 0.928 . S
H1512 C1509 0.931 . S
H1513 C1489 0.967 . S
H1514 C1486 0.930 . S
H1515 C1495 0.930 . S
H1516 C1507 0.929 . S
H1517 C1510 0.930 . S
C1518 C1519 1.351 . S
C1518 N1521 1.368 . S
C1518 H1523 0.931 . S
C1519 C1518 1.351 . S
C1519 N1520 1.373 . S
C1519 H1547 0.930 . S
N1520 C1519 1.373 . S
N1520 C1522 1.340 . S
N1521 C1518 1.368 . S
N1521 C1522 1.321 . S
N1521 Co1524 2.135 . S
C1522 N1520 1.340 . S
C1522 N1521 1.321 . S
C1522 H1546 0.930 . S
H1523 C1518 0.931 . S
Co1524 N1521 2.135 . S
Co1524 N1527 2.121 . S
Co1524 O1532 2.055 . S
Co1524 O1535 2.039 . S
Co1524 N1538 2.140 . S
C1525 O1526 1.227 . S
C1525 O1535 1.265 . S
O1526 C1525 1.227 . S
N1527 Co1524 2.121 . S
N1527 C1529 1.375 . S
N1527 C1530 1.313 . S
C1528 C1529 1.338 . S
C1528 N1531 1.377 . S
C1528 H1548 0.930 . S
C1529 N1527 1.375 . S
C1529 C1528 1.338 . S
C1529 H1533 0.931 . S
C1530 N1527 1.313 . S
C1530 N1531 1.344 . S
C1530 H1534 0.930 . S
N1531 C1528 1.377 . S
N1531 C1530 1.344 . S
O1532 Co1524 2.055 . S
O1532 C1536 1.253 . S
H1533 C1529 0.931 . S
H1534 C1530 0.930 . S
O1535 Co1524 2.039 . S
O1535 C1525 1.265 . S
C1536 O1532 1.253 . S
C1536 O1537 1.227 . S
O1537 C1536 1.227 . S
N1538 Co1524 2.140 . S
N1538 C1541 1.346 . S
N1538 C1542 1.345 . S
C1539 C1540 1.387 . S
C1539 C1543 1.391 . S
C1540 C1539 1.387 . S
C1540 C1541 1.369 . S
C1540 H1549 0.929 . S
C1541 N1538 1.346 . S
C1541 C1540 1.369 . S
C1541 H1544 0.928 . S
C1542 N1538 1.345 . S
C1542 C1543 1.371 . S
C1542 H1545 0.931 . S
C1543 C1539 1.391 . S
C1543 C1542 1.371 . S
C1543 H1550 0.930 . S
H1544 C1541 0.928 . S
H1545 C1542 0.931 . S
H1546 C1522 0.930 . S
H1547 C1519 0.930 . S
H1548 C1528 0.930 . S
H1549 C1540 0.929 . S
H1550 C1543 0.930 . S
C1551 C1552 1.351 . S
C1551 N1554 1.368 . S
C1551 H1556 0.931 . S
C1552 C1551 1.351 . S
C1552 N1553 1.373 . S
C1552 H1580 0.930 . S
N1553 C1552 1.373 . S
N1553 C1555 1.340 . S
N1554 C1551 1.368 . S
N1554 C1555 1.321 . S
N1554 Co1557 2.135 . S
C1555 N1553 1.340 . S
C1555 N1554 1.321 . S
C1555 H1579 0.930 . S
H1556 C1551 0.931 . S
Co1557 N1554 2.135 . S
Co1557 N1560 2.121 . S
Co1557 O1565 2.055 . S
Co1557 O1568 2.039 . S
Co1557 N1571 2.140 . S
C1558 O1559 1.227 . S
C1558 O1568 1.265 . S
O1559 C1558 1.227 . S
N1560 Co1557 2.121 . S
N1560 C1562 1.375 . S
N1560 C1563 1.313 . S
C1561 C1562 1.338 . S
C1561 N1564 1.377 . S
C1561 H1581 0.930 . S
C1562 N1560 1.375 . S
C1562 C1561 1.338 . S
C1562 H1566 0.931 . S
C1563 N1560 1.313 . S
C1563 N1564 1.344 . S
C1563 H1567 0.930 . S
N1564 C1561 1.377 . S
N1564 C1563 1.344 . S
O1565 Co1557 2.055 . S
O1565 C1569 1.253 . S
H1566 C1562 0.931 . S
H1567 C1563 0.930 . S
O1568 Co1557 2.039 . S
O1568 C1558 1.265 . S
C1569 O1565 1.253 . S
C1569 O1570 1.227 . S
O1570 C1569 1.227 . S
N1571 Co1557 2.140 . S
N1571 C1574 1.346 . S
N1571 C1575 1.345 . S
C1572 C1573 1.387 . S
C1572 C1576 1.391 . S
C1573 C1572 1.387 . S
C1573 C1574 1.369 . S
C1573 H1582 0.929 . S
C1574 N1571 1.346 . S
C1574 C1573 1.369 . S
C1574 H1577 0.928 . S
C1575 N1571 1.345 . S
C1575 C1576 1.371 . S
C1575 H1578 0.931 . S
C1576 C1572 1.391 . S
C1576 C1575 1.371 . S
C1576 H1583 0.930 . S
H1577 C1574 0.928 . S
H1578 C1575 0.931 . S
H1579 C1555 0.930 . S
H1580 C1552 0.930 . S
H1581 C1561 0.930 . S
H1582 C1573 0.929 . S
H1583 C1576 0.930 . S
C1584 C1585 1.351 . S
C1584 N1587 1.368 . S
C1584 H1589 0.931 . S
C1585 C1584 1.351 . S
C1585 N1586 1.373 . S
C1585 H1613 0.930 . S
N1586 C1585 1.373 . S
N1586 C1588 1.340 . S
N1587 C1584 1.368 . S
N1587 C1588 1.321 . S
N1587 Co1590 2.135 . S
C1588 N1586 1.340 . S
C1588 N1587 1.321 . S
C1588 H1612 0.930 . S
H1589 C1584 0.931 . S
Co1590 N1587 2.135 . S
Co1590 N1593 2.121 . S
Co1590 O1598 2.055 . S
Co1590 O1601 2.039 . S
Co1590 N1604 2.140 . S
C1591 O1592 1.227 . S
C1591 O1601 1.265 . S
O1592 C1591 1.227 . S
N1593 Co1590 2.121 . S
N1593 C1595 1.375 . S
N1593 C1596 1.313 . S
C1594 C1595 1.338 . S
C1594 N1597 1.377 . S
C1594 H1614 0.930 . S
C1595 N1593 1.375 . S
C1595 C1594 1.338 . S
C1595 H1599 0.931 . S
C1596 N1593 1.313 . S
C1596 N1597 1.344 . S
C1596 H1600 0.930 . S
N1597 C1594 1.377 . S
N1597 C1596 1.344 . S
O1598 Co1590 2.055 . S
O1598 C1602 1.253 . S
H1599 C1595 0.931 . S
H1600 C1596 0.930 . S
O1601 Co1590 2.039 . S
O1601 C1591 1.265 . S
C1602 O1598 1.253 . S
C1602 O1603 1.227 . S
O1603 C1602 1.227 . S
N1604 Co1590 2.140 . S
N1604 C1607 1.346 . S
N1604 C1608 1.345 . S
C1605 C1606 1.387 . S
C1605 C1609 1.391 . S
C1606 C1605 1.387 . S
C1606 C1607 1.369 . S
C1606 H1615 0.929 . S
C1607 N1604 1.346 . S
C1607 C1606 1.369 . S
C1607 H1610 0.928 . S
C1608 N1604 1.345 . S
C1608 C1609 1.371 . S
C1608 H1611 0.931 . S
C1609 C1605 1.391 . S
C1609 C1608 1.371 . S
C1609 H1616 0.930 . S
H1610 C1607 0.928 . S
H1611 C1608 0.931 . S
H1612 C1588 0.930 . S
H1613 C1585 0.930 . S
H1614 C1594 0.930 . S
H1615 C1606 0.929 . S
H1616 C1609 0.930 . S
C1617 C1618 1.351 . S
C1617 N1620 1.368 . S
C1617 H1622 0.931 . S
C1618 C1617 1.351 . S
C1618 N1619 1.373 . S
C1618 H1646 0.930 . S
N1619 C1618 1.373 . S
N1619 C1621 1.340 . S
N1620 C1617 1.368 . S
N1620 C1621 1.321 . S
N1620 Co1623 2.135 . S
C1621 N1619 1.340 . S
C1621 N1620 1.321 . S
C1621 H1645 0.930 . S
H1622 C1617 0.931 . S
Co1623 N1620 2.135 . S
Co1623 N1626 2.121 . S
Co1623 O1631 2.055 . S
Co1623 O1634 2.039 . S
Co1623 N1637 2.140 . S
C1624 O1625 1.227 . S
C1624 O1634 1.265 . S
O1625 C1624 1.227 . S
N1626 Co1623 2.121 . S
N1626 C1628 1.375 . S
N1626 C1629 1.313 . S
C1627 C1628 1.338 . S
C1627 N1630 1.377 . S
C1627 H1647 0.930 . S
C1628 N1626 1.375 . S
C1628 C1627 1.338 . S
C1628 H1632 0.931 . S
C1629 N1626 1.313 . S
C1629 N1630 1.344 . S
C1629 H1633 0.930 . S
N1630 C1627 1.377 . S
N1630 C1629 1.344 . S
O1631 Co1623 2.055 . S
O1631 C1635 1.253 . S
H1632 C1628 0.931 . S
H1633 C1629 0.930 . S
O1634 Co1623 2.039 . S
O1634 C1624 1.265 . S
C1635 O1631 1.253 . S
C1635 O1636 1.227 . S
O1636 C1635 1.227 . S
N1637 Co1623 2.140 . S
N1637 C1640 1.346 . S
N1637 C1641 1.345 . S
C1638 C1639 1.387 . S
C1638 C1642 1.391 . S
C1639 C1638 1.387 . S
C1639 C1640 1.369 . S
C1639 H1648 0.929 . S
C1640 N1637 1.346 . S
C1640 C1639 1.369 . S
C1640 H1643 0.928 . S
C1641 N1637 1.345 . S
C1641 C1642 1.371 . S
C1641 H1644 0.931 . S
C1642 C1638 1.391 . S
C1642 C1641 1.371 . S
C1642 H1649 0.930 . S
H1643 C1640 0.928 . S
H1644 C1641 0.931 . S
H1645 C1621 0.930 . S
H1646 C1618 0.930 . S
H1647 C1627 0.930 . S
H1648 C1639 0.929 . S
H1649 C1642 0.930 . S
C1650 C1651 1.351 . S
C1650 N1653 1.368 . S
C1650 H1655 0.931 . S
C1651 C1650 1.351 . S
C1651 N1652 1.373 1_545 S
C1651 H1679 0.930 . S
N1652 C1651 1.373 1_565 S
N1652 C1654 1.359 . S
N1653 C1650 1.368 . S
N1653 C1654 1.264 1_545 S
N1653 Co1656 2.135 . S
C1654 N1652 1.359 . S
C1654 N1653 1.264 1_565 S
C1654 H1678 0.967 . S
H1655 C1650 0.931 . S
Co1656 N1653 2.135 . S
Co1656 N1659 2.121 . S
Co1656 O1664 2.055 . S
Co1656 O1667 2.039 . S
Co1656 N1670 2.140 . S
C1657 O1658 1.227 . S
C1657 O1667 1.265 . S
O1658 C1657 1.227 . S
N1659 Co1656 2.121 . S
N1659 C1661 1.375 . S
N1659 C1662 1.313 . S
C1660 C1661 1.338 . S
C1660 N1663 1.377 . S
C1660 H1680 0.930 . S
C1661 N1659 1.375 . S
C1661 C1660 1.338 . S
C1661 H1665 0.931 . S
C1662 N1659 1.313 . S
C1662 N1663 1.344 . S
C1662 H1666 0.930 . S
N1663 C1660 1.377 . S
N1663 C1662 1.344 . S
O1664 Co1656 2.055 . S
O1664 C1668 1.253 . S
H1665 C1661 0.931 . S
H1666 C1662 0.930 . S
O1667 Co1656 2.039 . S
O1667 C1657 1.265 . S
C1668 O1664 1.253 . S
C1668 O1669 1.227 . S
O1669 C1668 1.227 . S
N1670 Co1656 2.140 . S
N1670 C1673 1.346 . S
N1670 C1674 1.345 . S
C1671 C1672 1.387 . S
C1671 C1675 1.391 . S
C1672 C1671 1.387 . S
C1672 C1673 1.369 . S
C1672 H1681 0.929 . S
C1673 N1670 1.346 . S
C1673 C1672 1.369 . S
C1673 H1676 0.928 . S
C1674 N1670 1.345 . S
C1674 C1675 1.371 . S
C1674 H1677 0.931 . S
C1675 C1671 1.391 . S
C1675 C1674 1.371 . S
C1675 H1682 0.930 . S
H1676 C1673 0.928 . S
H1677 C1674 0.931 . S
H1678 C1654 0.967 . S
H1679 C1651 0.930 . S
H1680 C1660 0.930 . S
H1681 C1672 0.929 . S
H1682 C1675 0.930 . S
C1683 C1684 1.351 . S
C1683 N1686 1.368 . S
C1683 H1688 0.931 . S
C1684 C1683 1.351 . S
C1684 N1685 1.373 1_565 S
C1684 H1712 0.930 . S
N1685 C1684 1.373 1_545 S
N1685 C1687 1.359 . S
N1686 C1683 1.368 . S
N1686 C1687 1.264 1_565 S
N1686 Co1689 2.135 . S
C1687 N1685 1.359 . S
C1687 N1686 1.264 1_545 S
C1687 H1711 0.967 . S
H1688 C1683 0.931 . S
Co1689 N1686 2.135 . S
Co1689 N1692 2.121 . S
Co1689 O1697 2.055 . S
Co1689 O1700 2.039 . S
Co1689 N1703 2.140 . S
C1690 O1691 1.227 . S
C1690 O1700 1.265 . S
O1691 C1690 1.227 . S
N1692 Co1689 2.121 . S
N1692 C1694 1.375 . S
N1692 C1695 1.313 . S
C1693 C1694 1.338 . S
C1693 N1696 1.377 . S
C1693 H1713 0.930 . S
C1694 N1692 1.375 . S
C1694 C1693 1.338 . S
C1694 H1698 0.931 . S
C1695 N1692 1.313 . S
C1695 N1696 1.344 . S
C1695 H1699 0.930 . S
N1696 C1693 1.377 . S
N1696 C1695 1.344 . S
O1697 Co1689 2.055 . S
O1697 C1701 1.253 . S
H1698 C1694 0.931 . S
H1699 C1695 0.930 . S
O1700 Co1689 2.039 . S
O1700 C1690 1.265 . S
C1701 O1697 1.253 . S
C1701 O1702 1.227 . S
O1702 C1701 1.227 . S
N1703 Co1689 2.140 . S
N1703 C1706 1.346 . S
N1703 C1707 1.345 . S
C1704 C1705 1.387 . S
C1704 C1708 1.391 . S
C1705 C1704 1.387 . S
C1705 C1706 1.369 . S
C1705 H1714 0.929 . S
C1706 N1703 1.346 . S
C1706 C1705 1.369 . S
C1706 H1709 0.928 . S
C1707 N1703 1.345 . S
C1707 C1708 1.371 . S
C1707 H1710 0.931 . S
C1708 C1704 1.391 . S
C1708 C1707 1.371 . S
C1708 H1715 0.930 . S
H1709 C1706 0.928 . S
H1710 C1707 0.931 . S
H1711 C1687 0.967 . S
H1712 C1684 0.930 . S
H1713 C1693 0.930 . S
H1714 C1705 0.929 . S
H1715 C1708 0.930 . S
C1716 C1717 1.351 . S
C1716 N1719 1.368 . S
C1716 H1721 0.931 . S
C1717 C1716 1.351 . S
C1717 N1718 1.373 . S
C1717 H1745 0.930 . S
N1718 C1717 1.373 . S
N1718 C1720 1.340 . S
N1719 C1716 1.368 . S
N1719 C1720 1.321 . S
N1719 Co1722 2.135 . S
C1720 N1718 1.340 . S
C1720 N1719 1.321 . S
C1720 H1744 0.930 . S
H1721 C1716 0.931 . S
Co1722 N1719 2.135 . S
Co1722 N1725 2.121 . S
Co1722 O1730 2.055 . S
Co1722 O1733 2.039 . S
Co1722 N1736 2.140 . S
C1723 O1724 1.227 . S
C1723 O1733 1.265 . S
O1724 C1723 1.227 . S
N1725 Co1722 2.121 . S
N1725 C1727 1.375 . S
N1725 C1728 1.313 . S
C1726 C1727 1.338 . S
C1726 N1729 1.377 . S
C1726 H1746 0.930 . S
C1727 N1725 1.375 . S
C1727 C1726 1.338 . S
C1727 H1731 0.931 . S
C1728 N1725 1.313 . S
C1728 N1729 1.344 . S
C1728 H1732 0.930 . S
N1729 C1726 1.377 . S
N1729 C1728 1.344 . S
O1730 Co1722 2.055 . S
O1730 C1734 1.253 . S
H1731 C1727 0.931 . S
H1732 C1728 0.930 . S
O1733 Co1722 2.039 . S
O1733 C1723 1.265 . S
C1734 O1730 1.253 . S
C1734 O1735 1.227 . S
O1735 C1734 1.227 . S
N1736 Co1722 2.140 . S
N1736 C1739 1.346 . S
N1736 C1740 1.345 . S
C1737 C1738 1.387 . S
C1737 C1741 1.391 . S
C1738 C1737 1.387 . S
C1738 C1739 1.369 . S
C1738 H1747 0.929 . S
C1739 N1736 1.346 . S
C1739 C1738 1.369 . S
C1739 H1742 0.928 . S
C1740 N1736 1.345 . S
C1740 C1741 1.371 . S
C1740 H1743 0.931 . S
C1741 C1737 1.391 . S
C1741 C1740 1.371 . S
C1741 H1748 0.930 . S
H1742 C1739 0.928 . S
H1743 C1740 0.931 . S
H1744 C1720 0.930 . S
H1745 C1717 0.930 . S
H1746 C1726 0.930 . S
H1747 C1738 0.929 . S
H1748 C1741 0.930 . S
C1749 C1750 1.351 . S
C1749 N1752 1.368 . S
C1749 H1754 0.931 . S
C1750 C1749 1.351 . S
C1750 N1751 1.373 . S
C1750 H1778 0.930 . S
N1751 C1750 1.373 . S
N1751 C1753 1.340 . S
N1752 C1749 1.368 . S
N1752 C1753 1.321 . S
N1752 Co1755 2.135 . S
C1753 N1751 1.340 . S
C1753 N1752 1.321 . S
C1753 H1777 0.930 . S
H1754 C1749 0.931 . S
Co1755 N1752 2.135 . S
Co1755 N1758 2.121 . S
Co1755 O1763 2.055 . S
Co1755 O1766 2.039 . S
Co1755 N1769 2.140 . S
C1756 O1757 1.227 . S
C1756 O1766 1.265 . S
O1757 C1756 1.227 . S
N1758 Co1755 2.121 . S
N1758 C1760 1.375 . S
N1758 C1761 1.313 . S
C1759 C1760 1.338 . S
C1759 N1762 1.377 . S
C1759 H1779 0.930 . S
C1760 N1758 1.375 . S
C1760 C1759 1.338 . S
C1760 H1764 0.931 . S
C1761 N1758 1.313 . S
C1761 N1762 1.344 . S
C1761 H1765 0.930 . S
N1762 C1759 1.377 . S
N1762 C1761 1.344 . S
O1763 Co1755 2.055 . S
O1763 C1767 1.253 . S
H1764 C1760 0.931 . S
H1765 C1761 0.930 . S
O1766 Co1755 2.039 . S
O1766 C1756 1.265 . S
C1767 O1763 1.253 . S
C1767 O1768 1.227 . S
O1768 C1767 1.227 . S
N1769 Co1755 2.140 . S
N1769 C1772 1.346 . S
N1769 C1773 1.345 . S
C1770 C1771 1.387 . S
C1770 C1774 1.391 . S
C1771 C1770 1.387 . S
C1771 C1772 1.369 . S
C1771 H1780 0.929 . S
C1772 N1769 1.346 . S
C1772 C1771 1.369 . S
C1772 H1775 0.928 . S
C1773 N1769 1.345 . S
C1773 C1774 1.371 . S
C1773 H1776 0.931 . S
C1774 C1770 1.391 . S
C1774 C1773 1.371 . S
C1774 H1781 0.930 . S
H1775 C1772 0.928 . S
H1776 C1773 0.931 . S
H1777 C1753 0.930 . S
H1778 C1750 0.930 . S
H1779 C1759 0.930 . S
H1780 C1771 0.929 . S
H1781 C1774 0.930 . S
C1782 C1783 1.351 . S
C1782 N1785 1.368 . S
C1782 H1787 0.931 . S
C1783 C1782 1.351 . S
C1783 N1784 1.373 . S
C1783 H1811 0.930 . S
N1784 C1783 1.373 . S
N1784 C1786 1.340 . S
N1785 C1782 1.368 . S
N1785 C1786 1.321 . S
N1785 Co1788 2.135 . S
C1786 N1784 1.340 . S
C1786 N1785 1.321 . S
C1786 H1810 0.930 . S
H1787 C1782 0.931 . S
Co1788 N1785 2.135 . S
Co1788 N1791 2.121 . S
Co1788 O1796 2.055 . S
Co1788 O1799 2.039 . S
Co1788 N1802 2.140 . S
C1789 O1790 1.227 . S
C1789 O1799 1.265 . S
O1790 C1789 1.227 . S
N1791 Co1788 2.121 . S
N1791 C1793 1.375 . S
N1791 C1794 1.313 . S
C1792 C1793 1.338 . S
C1792 N1795 1.377 . S
C1792 H1812 0.930 . S
C1793 N1791 1.375 . S
C1793 C1792 1.338 . S
C1793 H1797 0.931 . S
C1794 N1791 1.313 . S
C1794 N1795 1.344 . S
C1794 H1798 0.930 . S
N1795 C1792 1.377 . S
N1795 C1794 1.344 . S
O1796 Co1788 2.055 . S
O1796 C1800 1.253 . S
H1797 C1793 0.931 . S
H1798 C1794 0.930 . S
O1799 Co1788 2.039 . S
O1799 C1789 1.265 . S
C1800 O1796 1.253 . S
C1800 O1801 1.227 . S
O1801 C1800 1.227 . S
N1802 Co1788 2.140 . S
N1802 C1805 1.346 . S
N1802 C1806 1.345 . S
C1803 C1804 1.387 . S
C1803 C1807 1.391 . S
C1804 C1803 1.387 . S
C1804 C1805 1.369 . S
C1804 H1813 0.929 . S
C1805 N1802 1.346 . S
C1805 C1804 1.369 . S
C1805 H1808 0.928 . S
C1806 N1802 1.345 . S
C1806 C1807 1.371 . S
C1806 H1809 0.931 . S
C1807 C1803 1.391 . S
C1807 C1806 1.371 . S
C1807 H1814 0.930 . S
H1808 C1805 0.928 . S
H1809 C1806 0.931 . S
H1810 C1786 0.930 . S
H1811 C1783 0.930 . S
H1812 C1792 0.930 . S
H1813 C1804 0.929 . S
H1814 C1807 0.930 . S
C1815 C1816 1.351 . S
C1815 N1818 1.368 . S
C1815 H1820 0.931 . S
C1816 C1815 1.351 . S
C1816 N1817 1.373 1_455 S
C1816 H1844 0.930 . S
N1817 C1816 1.373 1_655 S
N1817 C1819 1.359 . S
N1818 C1815 1.368 . S
N1818 C1819 1.264 1_455 S
N1818 Co1821 2.135 . S
C1819 N1817 1.359 . S
C1819 N1818 1.264 1_655 S
C1819 H1843 0.967 . S
H1820 C1815 0.931 . S
Co1821 N1818 2.135 . S
Co1821 N1824 2.121 . S
Co1821 O1829 2.055 . S
Co1821 O1832 2.039 . S
Co1821 N1835 2.140 . S
C1822 O1823 1.227 . S
C1822 O1832 1.265 . S
O1823 C1822 1.227 . S
N1824 Co1821 2.121 . S
N1824 C1826 1.375 . S
N1824 C1827 1.313 . S
C1825 C1826 1.338 . S
C1825 N1828 1.377 . S
C1825 H1845 0.930 . S
C1826 N1824 1.375 . S
C1826 C1825 1.338 . S
C1826 H1830 0.931 . S
C1827 N1824 1.313 . S
C1827 N1828 1.344 . S
C1827 H1831 0.930 . S
N1828 C1825 1.377 . S
N1828 C1827 1.344 . S
O1829 Co1821 2.055 . S
O1829 C1833 1.253 . S
H1830 C1826 0.931 . S
H1831 C1827 0.930 . S
O1832 Co1821 2.039 . S
O1832 C1822 1.265 . S
C1833 O1829 1.253 . S
C1833 O1834 1.227 . S
O1834 C1833 1.227 . S
N1835 Co1821 2.140 . S
N1835 C1838 1.346 . S
N1835 C1839 1.345 . S
C1836 C1837 1.387 . S
C1836 C1840 1.391 . S
C1837 C1836 1.387 . S
C1837 C1838 1.369 . S
C1837 H1846 0.929 . S
C1838 N1835 1.346 . S
C1838 C1837 1.369 . S
C1838 H1841 0.928 . S
C1839 N1835 1.345 . S
C1839 C1840 1.371 . S
C1839 H1842 0.931 . S
C1840 C1836 1.391 . S
C1840 C1839 1.371 . S
C1840 H1847 0.930 . S
H1841 C1838 0.928 . S
H1842 C1839 0.931 . S
H1843 C1819 0.967 . S
H1844 C1816 0.930 . S
H1845 C1825 0.930 . S
H1846 C1837 0.929 . S
H1847 C1840 0.930 . S
C1848 C1849 1.351 . S
C1848 N1851 1.368 . S
C1848 H1853 0.931 . S
C1849 C1848 1.351 . S
C1849 N1850 1.373 . S
C1849 H1877 0.930 . S
N1850 C1849 1.373 . S
N1850 C1852 1.340 . S
N1851 C1848 1.368 . S
N1851 C1852 1.321 . S
N1851 Co1854 2.135 . S
C1852 N1850 1.340 . S
C1852 N1851 1.321 . S
C1852 H1876 0.930 . S
H1853 C1848 0.931 . S
Co1854 N1851 2.135 . S
Co1854 N1857 2.121 . S
Co1854 O1862 2.055 . S
Co1854 O1865 2.039 . S
Co1854 N1868 2.140 . S
C1855 O1856 1.227 . S
C1855 O1865 1.265 . S
O1856 C1855 1.227 . S
N1857 Co1854 2.121 . S
N1857 C1859 1.375 . S
N1857 C1860 1.313 . S
C1858 C1859 1.338 . S
C1858 N1861 1.377 . S
C1858 H1878 0.930 . S
C1859 N1857 1.375 . S
C1859 C1858 1.338 . S
C1859 H1863 0.931 . S
C1860 N1857 1.313 . S
C1860 N1861 1.344 . S
C1860 H1864 0.930 . S
N1861 C1858 1.377 . S
N1861 C1860 1.344 . S
O1862 Co1854 2.055 . S
O1862 C1866 1.253 . S
H1863 C1859 0.931 . S
H1864 C1860 0.930 . S
O1865 Co1854 2.039 . S
O1865 C1855 1.265 . S
C1866 O1862 1.253 . S
C1866 O1867 1.227 . S
O1867 C1866 1.227 . S
N1868 Co1854 2.140 . S
N1868 C1871 1.346 . S
N1868 C1872 1.345 . S
C1869 C1870 1.387 . S
C1869 C1873 1.391 . S
C1870 C1869 1.387 . S
C1870 C1871 1.369 . S
C1870 H1879 0.929 . S
C1871 N1868 1.346 . S
C1871 C1870 1.369 . S
C1871 H1874 0.928 . S
C1872 N1868 1.345 . S
C1872 C1873 1.371 . S
C1872 H1875 0.931 . S
C1873 C1869 1.391 . S
C1873 C1872 1.371 . S
C1873 H1880 0.930 . S
H1874 C1871 0.928 . S
H1875 C1872 0.931 . S
H1876 C1852 0.930 . S
H1877 C1849 0.930 . S
H1878 C1858 0.930 . S
H1879 C1870 0.929 . S
H1880 C1873 0.930 . S
C1881 C1882 1.351 . S
C1881 N1884 1.368 . S
C1881 H1886 0.931 . S
C1882 C1881 1.351 . S
C1882 N1883 1.373 . S
C1882 H1910 0.930 . S
N1883 C1882 1.373 . S
N1883 C1885 1.340 . S
N1884 C1881 1.368 . S
N1884 C1885 1.321 . S
N1884 Co1887 2.135 . S
C1885 N1883 1.340 . S
C1885 N1884 1.321 . S
C1885 H1909 0.930 . S
H1886 C1881 0.931 . S
Co1887 N1884 2.135 . S
Co1887 N1890 2.121 . S
Co1887 O1895 2.055 . S
Co1887 O1898 2.039 . S
Co1887 N1901 2.140 . S
C1888 O1889 1.227 . S
C1888 O1898 1.265 . S
O1889 C1888 1.227 . S
N1890 Co1887 2.121 . S
N1890 C1892 1.375 . S
N1890 C1893 1.313 . S
C1891 C1892 1.338 . S
C1891 N1894 1.377 . S
C1891 H1911 0.930 . S
C1892 N1890 1.375 . S
C1892 C1891 1.338 . S
C1892 H1896 0.931 . S
C1893 N1890 1.313 . S
C1893 N1894 1.344 . S
C1893 H1897 0.930 . S
N1894 C1891 1.377 . S
N1894 C1893 1.344 . S
O1895 Co1887 2.055 . S
O1895 C1899 1.253 . S
H1896 C1892 0.931 . S
H1897 C1893 0.930 . S
O1898 Co1887 2.039 . S
O1898 C1888 1.265 . S
C1899 O1895 1.253 . S
C1899 O1900 1.227 . S
O1900 C1899 1.227 . S
N1901 Co1887 2.140 . S
N1901 C1904 1.346 . S
N1901 C1905 1.345 . S
C1902 C1903 1.387 . S
C1902 C1906 1.391 . S
C1903 C1902 1.387 . S
C1903 C1904 1.369 . S
C1903 H1912 0.929 . S
C1904 N1901 1.346 . S
C1904 C1903 1.369 . S
C1904 H1907 0.928 . S
C1905 N1901 1.345 . S
C1905 C1906 1.371 . S
C1905 H1908 0.931 . S
C1906 C1902 1.391 . S
C1906 C1905 1.371 . S
C1906 H1913 0.930 . S
H1907 C1904 0.928 . S
H1908 C1905 0.931 . S
H1909 C1885 0.930 . S
H1910 C1882 0.930 . S
H1911 C1891 0.930 . S
H1912 C1903 0.929 . S
H1913 C1906 0.930 . S
C1914 C1915 1.351 . S
C1914 N1917 1.368 . S
C1914 H1919 0.931 . S
C1915 C1914 1.351 . S
C1915 N1916 1.373 . S
C1915 H1943 0.930 . S
N1916 C1915 1.373 . S
N1916 C1918 1.340 . S
N1917 C1914 1.368 . S
N1917 C1918 1.321 . S
N1917 Co1920 2.135 . S
C1918 N1916 1.340 . S
C1918 N1917 1.321 . S
C1918 H1942 0.930 . S
H1919 C1914 0.931 . S
Co1920 N1917 2.135 . S
Co1920 N1923 2.121 . S
Co1920 O1928 2.055 . S
Co1920 O1931 2.039 . S
Co1920 N1934 2.140 . S
C1921 O1922 1.227 . S
C1921 O1931 1.265 . S
O1922 C1921 1.227 . S
N1923 Co1920 2.121 . S
N1923 C1925 1.375 . S
N1923 C1926 1.313 . S
C1924 C1925 1.338 . S
C1924 N1927 1.377 . S
C1924 H1944 0.930 . S
C1925 N1923 1.375 . S
C1925 C1924 1.338 . S
C1925 H1929 0.931 . S
C1926 N1923 1.313 . S
C1926 N1927 1.344 . S
C1926 H1930 0.930 . S
N1927 C1924 1.377 . S
N1927 C1926 1.344 . S
O1928 Co1920 2.055 . S
O1928 C1932 1.253 . S
H1929 C1925 0.931 . S
H1930 C1926 0.930 . S
O1931 Co1920 2.039 . S
O1931 C1921 1.265 . S
C1932 O1928 1.253 . S
C1932 O1933 1.227 . S
O1933 C1932 1.227 . S
N1934 Co1920 2.140 . S
N1934 C1937 1.346 . S
N1934 C1938 1.345 . S
C1935 C1936 1.387 . S
C1935 C1939 1.391 . S
C1936 C1935 1.387 . S
C1936 C1937 1.369 . S
C1936 H1945 0.929 . S
C1937 N1934 1.346 . S
C1937 C1936 1.369 . S
C1937 H1940 0.928 . S
C1938 N1934 1.345 . S
C1938 C1939 1.371 . S
C1938 H1941 0.931 . S
C1939 C1935 1.391 . S
C1939 C1938 1.371 . S
C1939 H1946 0.930 . S
H1940 C1937 0.928 . S
H1941 C1938 0.931 . S
H1942 C1918 0.930 . S
H1943 C1915 0.930 . S
H1944 C1924 0.930 . S
H1945 C1936 0.929 . S
H1946 C1939 0.930 . S
C1947 C1948 1.351 . S
C1947 N1950 1.368 . S
C1947 H1952 0.931 . S
C1948 C1947 1.351 . S
C1948 N1949 1.373 . S
C1948 H1976 0.930 . S
N1949 C1948 1.373 . S
N1949 C1951 1.340 . S
N1950 C1947 1.368 . S
N1950 C1951 1.321 . S
N1950 Co1953 2.135 . S
C1951 N1949 1.340 . S
C1951 N1950 1.321 . S
C1951 H1975 0.930 . S
H1952 C1947 0.931 . S
Co1953 N1950 2.135 . S
Co1953 N1956 2.121 . S
Co1953 O1961 2.055 . S
Co1953 O1964 2.039 . S
Co1953 N1967 2.140 . S
C1954 O1955 1.227 . S
C1954 O1964 1.265 . S
O1955 C1954 1.227 . S
N1956 Co1953 2.121 . S
N1956 C1958 1.375 . S
N1956 C1959 1.313 . S
C1957 C1958 1.338 . S
C1957 N1960 1.377 . S
C1957 H1977 0.930 . S
C1958 N1956 1.375 . S
C1958 C1957 1.338 . S
C1958 H1962 0.931 . S
C1959 N1956 1.313 . S
C1959 N1960 1.344 . S
C1959 H1963 0.930 . S
N1960 C1957 1.377 . S
N1960 C1959 1.344 . S
O1961 Co1953 2.055 . S
O1961 C1965 1.253 . S
H1962 C1958 0.931 . S
H1963 C1959 0.930 . S
O1964 Co1953 2.039 . S
O1964 C1954 1.265 . S
C1965 O1961 1.253 . S
C1965 O1966 1.227 . S
O1966 C1965 1.227 . S
N1967 Co1953 2.140 . S
N1967 C1970 1.346 . S
N1967 C1971 1.345 . S
C1968 C1969 1.387 . S
C1968 C1972 1.391 . S
C1969 C1968 1.387 . S
C1969 C1970 1.369 . S
C1969 H1978 0.929 . S
C1970 N1967 1.346 . S
C1970 C1969 1.369 . S
C1970 H1973 0.928 . S
C1971 N1967 1.345 . S
C1971 C1972 1.371 . S
C1971 H1974 0.931 . S
C1972 C1968 1.391 . S
C1972 C1971 1.371 . S
C1972 H1979 0.930 . S
H1973 C1970 0.928 . S
H1974 C1971 0.931 . S
H1975 C1951 0.930 . S
H1976 C1948 0.930 . S
H1977 C1957 0.930 . S
H1978 C1969 0.929 . S
H1979 C1972 0.930 . S
C1980 C1981 1.351 . S
C1980 N1983 1.368 . S
C1980 H1985 0.931 . S
C1981 C1980 1.351 . S
C1981 N1982 1.373 . S
C1981 H2009 0.930 . S
N1982 C1981 1.373 . S
N1982 C1984 1.340 . S
N1983 C1980 1.368 . S
N1983 C1984 1.321 . S
N1983 Co1986 2.135 . S
C1984 N1982 1.340 . S
C1984 N1983 1.321 . S
C1984 H2008 0.930 . S
H1985 C1980 0.931 . S
Co1986 N1983 2.135 . S
Co1986 N1989 2.121 . S
Co1986 O1994 2.055 . S
Co1986 O1997 2.039 . S
Co1986 N2000 2.140 . S
C1987 O1988 1.227 . S
C1987 O1997 1.265 . S
O1988 C1987 1.227 . S
N1989 Co1986 2.121 . S
N1989 C1991 1.375 . S
N1989 C1992 1.313 . S
C1990 C1991 1.338 . S
C1990 N1993 1.377 . S
C1990 H2010 0.930 . S
C1991 N1989 1.375 . S
C1991 C1990 1.338 . S
C1991 H1995 0.931 . S
C1992 N1989 1.313 . S
C1992 N1993 1.344 . S
C1992 H1996 0.930 . S
N1993 C1990 1.377 . S
N1993 C1992 1.344 . S
O1994 Co1986 2.055 . S
O1994 C1998 1.253 . S
H1995 C1991 0.931 . S
H1996 C1992 0.930 . S
O1997 Co1986 2.039 . S
O1997 C1987 1.265 . S
C1998 O1994 1.253 . S
C1998 O1999 1.227 . S
O1999 C1998 1.227 . S
N2000 Co1986 2.140 . S
N2000 C2003 1.346 . S
N2000 C2004 1.345 . S
C2001 C2002 1.387 . S
C2001 C2005 1.391 . S
C2002 C2001 1.387 . S
C2002 C2003 1.369 . S
C2002 H2011 0.929 . S
C2003 N2000 1.346 . S
C2003 C2002 1.369 . S
C2003 H2006 0.928 . S
C2004 N2000 1.345 . S
C2004 C2005 1.371 . S
C2004 H2007 0.931 . S
C2005 C2001 1.391 . S
C2005 C2004 1.371 . S
C2005 H2012 0.930 . S
H2006 C2003 0.928 . S
H2007 C2004 0.931 . S
H2008 C1984 0.930 . S
H2009 C1981 0.930 . S
H2010 C1990 0.930 . S
H2011 C2002 0.929 . S
H2012 C2005 0.930 . S
C2013 C2014 1.351 . S
C2013 N2016 1.368 . S
C2013 H2018 0.931 . S
C2014 C2013 1.351 . S
C2014 N2015 1.373 . S
C2014 H2042 0.930 . S
N2015 C2014 1.373 . S
N2015 C2017 1.340 . S
N2016 C2013 1.368 . S
N2016 C2017 1.321 . S
N2016 Co2019 2.135 . S
C2017 N2015 1.340 . S
C2017 N2016 1.321 . S
C2017 H2041 0.930 . S
H2018 C2013 0.931 . S
Co2019 N2016 2.135 . S
Co2019 N2022 2.121 . S
Co2019 O2027 2.055 . S
Co2019 O2030 2.039 . S
Co2019 N2033 2.140 . S
C2020 O2021 1.227 . S
C2020 O2030 1.265 . S
O2021 C2020 1.227 . S
N2022 Co2019 2.121 . S
N2022 C2024 1.375 . S
N2022 C2025 1.313 . S
C2023 C2024 1.338 . S
C2023 N2026 1.377 . S
C2023 H2043 0.930 . S
C2024 N2022 1.375 . S
C2024 C2023 1.338 . S
C2024 H2028 0.931 . S
C2025 N2022 1.313 . S
C2025 N2026 1.344 . S
C2025 H2029 0.930 . S
N2026 C2023 1.377 . S
N2026 C2025 1.344 . S
O2027 Co2019 2.055 . S
O2027 C2031 1.253 . S
H2028 C2024 0.931 . S
H2029 C2025 0.930 . S
O2030 Co2019 2.039 . S
O2030 C2020 1.265 . S
C2031 O2027 1.253 . S
C2031 O2032 1.227 . S
O2032 C2031 1.227 . S
N2033 Co2019 2.140 . S
N2033 C2036 1.346 . S
N2033 C2037 1.345 . S
C2034 C2035 1.387 . S
C2034 C2038 1.391 . S
C2035 C2034 1.387 . S
C2035 C2036 1.369 . S
C2035 H2044 0.929 . S
C2036 N2033 1.346 . S
C2036 C2035 1.369 . S
C2036 H2039 0.928 . S
C2037 N2033 1.345 . S
C2037 C2038 1.371 . S
C2037 H2040 0.931 . S
C2038 C2034 1.391 . S
C2038 C2037 1.371 . S
C2038 H2045 0.930 . S
H2039 C2036 0.928 . S
H2040 C2037 0.931 . S
H2041 C2017 0.930 . S
H2042 C2014 0.930 . S
H2043 C2023 0.930 . S
H2044 C2035 0.929 . S
H2045 C2038 0.930 . S
C2046 C2047 1.351 . S
C2046 N2049 1.368 . S
C2046 H2051 0.931 . S
C2047 C2046 1.351 . S
C2047 N2048 1.373 . S
C2047 H2075 0.930 . S
N2048 C2047 1.373 . S
N2048 C2050 1.340 . S
N2049 C2046 1.368 . S
N2049 C2050 1.321 . S
N2049 Co2052 2.135 . S
C2050 N2048 1.340 . S
C2050 N2049 1.321 . S
C2050 H2074 0.930 . S
H2051 C2046 0.931 . S
Co2052 N2049 2.135 . S
Co2052 N2055 2.121 . S
Co2052 O2060 2.055 . S
Co2052 O2063 2.039 . S
Co2052 N2066 2.140 . S
C2053 O2054 1.227 . S
C2053 O2063 1.265 . S
O2054 C2053 1.227 . S
N2055 Co2052 2.121 . S
N2055 C2057 1.375 . S
N2055 C2058 1.313 . S
C2056 C2057 1.338 . S
C2056 N2059 1.377 . S
C2056 H2076 0.930 . S
C2057 N2055 1.375 . S
C2057 C2056 1.338 . S
C2057 H2061 0.931 . S
C2058 N2055 1.313 . S
C2058 N2059 1.344 . S
C2058 H2062 0.930 . S
N2059 C2056 1.377 . S
N2059 C2058 1.344 . S
O2060 Co2052 2.055 . S
O2060 C2064 1.253 . S
H2061 C2057 0.931 . S
H2062 C2058 0.930 . S
O2063 Co2052 2.039 . S
O2063 C2053 1.265 . S
C2064 O2060 1.253 . S
C2064 O2065 1.227 . S
O2065 C2064 1.227 . S
N2066 Co2052 2.140 . S
N2066 C2069 1.346 . S
N2066 C2070 1.345 . S
C2067 C2068 1.387 . S
C2067 C2071 1.391 . S
C2068 C2067 1.387 . S
C2068 C2069 1.369 . S
C2068 H2077 0.929 . S
C2069 N2066 1.346 . S
C2069 C2068 1.369 . S
C2069 H2072 0.928 . S
C2070 N2066 1.345 . S
C2070 C2071 1.371 . S
C2070 H2073 0.931 . S
C2071 C2067 1.391 . S
C2071 C2070 1.371 . S
C2071 H2078 0.930 . S
H2072 C2069 0.928 . S
H2073 C2070 0.931 . S
H2074 C2050 0.930 . S
H2075 C2047 0.930 . S
H2076 C2056 0.930 . S
H2077 C2068 0.929 . S
H2078 C2071 0.930 . S
C2079 C2080 1.351 . S
C2079 N2082 1.368 . S
C2079 H2084 0.931 . S
C2080 C2079 1.351 . S
C2080 N2081 1.373 1_655 S
C2080 H2108 0.930 . S
N2081 C2080 1.373 1_455 S
N2081 C2083 1.359 . S
N2082 C2079 1.368 . S
N2082 C2083 1.264 1_655 S
N2082 Co2085 2.135 . S
C2083 N2081 1.359 . S
C2083 N2082 1.264 1_455 S
C2083 H2107 0.967 . S
H2084 C2079 0.931 . S
Co2085 N2082 2.135 . S
Co2085 N2088 2.121 . S
Co2085 O2093 2.055 . S
Co2085 O2096 2.039 . S
Co2085 N2099 2.140 . S
C2086 O2087 1.227 . S
C2086 O2096 1.265 . S
O2087 C2086 1.227 . S
N2088 Co2085 2.121 . S
N2088 C2090 1.375 . S
N2088 C2091 1.313 . S
C2089 C2090 1.338 . S
C2089 N2092 1.377 . S
C2089 H2109 0.930 . S
C2090 N2088 1.375 . S
C2090 C2089 1.338 . S
C2090 H2094 0.931 . S
C2091 N2088 1.313 . S
C2091 N2092 1.344 . S
C2091 H2095 0.930 . S
N2092 C2089 1.377 . S
N2092 C2091 1.344 . S
O2093 Co2085 2.055 . S
O2093 C2097 1.253 . S
H2094 C2090 0.931 . S
H2095 C2091 0.930 . S
O2096 Co2085 2.039 . S
O2096 C2086 1.265 . S
C2097 O2093 1.253 . S
C2097 O2098 1.227 . S
O2098 C2097 1.227 . S
N2099 Co2085 2.140 . S
N2099 C2102 1.346 . S
N2099 C2103 1.345 . S
C2100 C2101 1.387 . S
C2100 C2104 1.391 . S
C2101 C2100 1.387 . S
C2101 C2102 1.369 . S
C2101 H2110 0.929 . S
C2102 N2099 1.346 . S
C2102 C2101 1.369 . S
C2102 H2105 0.928 . S
C2103 N2099 1.345 . S
C2103 C2104 1.371 . S
C2103 H2106 0.931 . S
C2104 C2100 1.391 . S
C2104 C2103 1.371 . S
C2104 H2111 0.930 . S
H2105 C2102 0.928 . S
H2106 C2103 0.931 . S
H2107 C2083 0.967 . S
H2108 C2080 0.930 . S
H2109 C2089 0.930 . S
H2110 C2101 0.929 . S
H2111 C2104 0.930 . S
C2112 C2113 1.351 . S
C2112 N2115 1.368 . S
C2112 H2117 0.931 . S
C2113 C2112 1.351 . S
C2113 N2114 1.373 1_556 S
C2113 H2141 0.930 . S
N2114 C2113 1.373 1_554 S
N2114 C2116 1.359 . S
N2115 C2112 1.368 . S
N2115 C2116 1.264 1_556 S
N2115 Co2118 2.135 . S
C2116 N2114 1.359 . S
C2116 N2115 1.264 1_554 S
C2116 H2140 0.967 . S
H2117 C2112 0.931 . S
Co2118 N2115 2.135 . S
Co2118 N2121 2.121 . S
Co2118 O2126 2.055 . S
Co2118 O2129 2.039 . S
Co2118 N2132 2.140 . S
C2119 O2120 1.227 . S
C2119 O2129 1.265 . S
O2120 C2119 1.227 . S
N2121 Co2118 2.121 . S
N2121 C2123 1.375 . S
N2121 C2124 1.313 . S
C2122 C2123 1.338 . S
C2122 N2125 1.377 . S
C2122 H2142 0.930 . S
C2123 N2121 1.375 . S
C2123 C2122 1.338 . S
C2123 H2127 0.931 . S
C2124 N2121 1.313 . S
C2124 N2125 1.344 . S
C2124 H2128 0.930 . S
N2125 C2122 1.377 . S
N2125 C2124 1.344 . S
O2126 Co2118 2.055 . S
O2126 C2130 1.253 . S
H2127 C2123 0.931 . S
H2128 C2124 0.930 . S
O2129 Co2118 2.039 . S
O2129 C2119 1.265 . S
C2130 O2126 1.253 . S
C2130 O2131 1.227 . S
O2131 C2130 1.227 . S
N2132 Co2118 2.140 . S
N2132 C2135 1.346 . S
N2132 C2136 1.345 . S
C2133 C2134 1.387 . S
C2133 C2137 1.391 . S
C2134 C2133 1.387 . S
C2134 C2135 1.369 . S
C2134 H2143 0.929 . S
C2135 N2132 1.346 . S
C2135 C2134 1.369 . S
C2135 H2138 0.928 . S
C2136 N2132 1.345 . S
C2136 C2137 1.371 . S
C2136 H2139 0.931 . S
C2137 C2133 1.391 . S
C2137 C2136 1.371 . S
C2137 H2144 0.930 . S
H2138 C2135 0.928 . S
H2139 C2136 0.931 . S
H2140 C2116 0.967 . S
H2141 C2113 0.930 . S
H2142 C2122 0.930 . S
H2143 C2134 0.929 . S
H2144 C2137 0.930 . S
C2145 C2146 1.351 . S
C2145 N2148 1.368 . S
C2145 H2150 0.931 . S
C2146 C2145 1.351 . S
C2146 N2147 1.373 . S
C2146 H2174 0.930 . S
N2147 C2146 1.373 . S
N2147 C2149 1.340 . S
N2148 C2145 1.368 . S
N2148 C2149 1.321 . S
N2148 Co2151 2.135 . S
C2149 N2147 1.340 . S
C2149 N2148 1.321 . S
C2149 H2173 0.930 . S
H2150 C2145 0.931 . S
Co2151 N2148 2.135 . S
Co2151 N2154 2.121 . S
Co2151 O2159 2.055 . S
Co2151 O2162 2.039 . S
Co2151 N2165 2.140 . S
C2152 O2153 1.227 . S
C2152 O2162 1.265 . S
O2153 C2152 1.227 . S
N2154 Co2151 2.121 . S
N2154 C2156 1.375 . S
N2154 C2157 1.313 . S
C2155 C2156 1.338 . S
C2155 N2158 1.377 . S
C2155 H2175 0.930 . S
C2156 N2154 1.375 . S
C2156 C2155 1.338 . S
C2156 H2160 0.931 . S
C2157 N2154 1.313 . S
C2157 N2158 1.344 . S
C2157 H2161 0.930 . S
N2158 C2155 1.377 . S
N2158 C2157 1.344 . S
O2159 Co2151 2.055 . S
O2159 C2163 1.253 . S
H2160 C2156 0.931 . S
H2161 C2157 0.930 . S
O2162 Co2151 2.039 . S
O2162 C2152 1.265 . S
C2163 O2159 1.253 . S
C2163 O2164 1.227 . S
O2164 C2163 1.227 . S
N2165 Co2151 2.140 . S
N2165 C2168 1.346 . S
N2165 C2169 1.345 . S
C2166 C2167 1.387 . S
C2166 C2170 1.391 . S
C2167 C2166 1.387 . S
C2167 C2168 1.369 . S
C2167 H2176 0.929 . S
C2168 N2165 1.346 . S
C2168 C2167 1.369 . S
C2168 H2171 0.928 . S
C2169 N2165 1.345 . S
C2169 C2170 1.371 . S
C2169 H2172 0.931 . S
C2170 C2166 1.391 . S
C2170 C2169 1.371 . S
C2170 H2177 0.930 . S
H2171 C2168 0.928 . S
H2172 C2169 0.931 . S
H2173 C2149 0.930 . S
H2174 C2146 0.930 . S
H2175 C2155 0.930 . S
H2176 C2167 0.929 . S
H2177 C2170 0.930 . S
C2178 C2179 1.351 . S
C2178 N2181 1.368 . S
C2178 H2183 0.931 . S
C2179 C2178 1.351 . S
C2179 N2180 1.373 . S
C2179 H2207 0.930 . S
N2180 C2179 1.373 . S
N2180 C2182 1.340 . S
N2181 C2178 1.368 . S
N2181 C2182 1.321 . S
N2181 Co2184 2.135 . S
C2182 N2180 1.340 . S
C2182 N2181 1.321 . S
C2182 H2206 0.930 . S
H2183 C2178 0.931 . S
Co2184 N2181 2.135 . S
Co2184 N2187 2.121 . S
Co2184 O2192 2.055 . S
Co2184 O2195 2.039 . S
Co2184 N2198 2.140 . S
C2185 O2186 1.227 . S
C2185 O2195 1.265 . S
O2186 C2185 1.227 . S
N2187 Co2184 2.121 . S
N2187 C2189 1.375 . S
N2187 C2190 1.313 . S
C2188 C2189 1.338 . S
C2188 N2191 1.377 . S
C2188 H2208 0.930 . S
C2189 N2187 1.375 . S
C2189 C2188 1.338 . S
C2189 H2193 0.931 . S
C2190 N2187 1.313 . S
C2190 N2191 1.344 . S
C2190 H2194 0.930 . S
N2191 C2188 1.377 . S
N2191 C2190 1.344 . S
O2192 Co2184 2.055 . S
O2192 C2196 1.253 . S
H2193 C2189 0.931 . S
H2194 C2190 0.930 . S
O2195 Co2184 2.039 . S
O2195 C2185 1.265 . S
C2196 O2192 1.253 . S
C2196 O2197 1.227 . S
O2197 C2196 1.227 . S
N2198 Co2184 2.140 . S
N2198 C2201 1.346 . S
N2198 C2202 1.345 . S
C2199 C2200 1.387 . S
C2199 C2203 1.391 . S
C2200 C2199 1.387 . S
C2200 C2201 1.369 . S
C2200 H2209 0.929 . S
C2201 N2198 1.346 . S
C2201 C2200 1.369 . S
C2201 H2204 0.928 . S
C2202 N2198 1.345 . S
C2202 C2203 1.371 . S
C2202 H2205 0.931 . S
C2203 C2199 1.391 . S
C2203 C2202 1.371 . S
C2203 H2210 0.930 . S
H2204 C2201 0.928 . S
H2205 C2202 0.931 . S
H2206 C2182 0.930 . S
H2207 C2179 0.930 . S
H2208 C2188 0.930 . S
H2209 C2200 0.929 . S
H2210 C2203 0.930 . S
C2211 C2212 1.351 . S
C2211 N2214 1.368 . S
C2211 H2216 0.931 . S
C2212 C2211 1.351 . S
C2212 N2213 1.373 1_554 S
C2212 H2240 0.930 . S
N2213 C2212 1.373 1_556 S
N2213 C2215 1.359 . S
N2214 C2211 1.368 . S
N2214 C2215 1.264 1_554 S
N2214 Co2217 2.135 . S
C2215 N2213 1.359 . S
C2215 N2214 1.264 1_556 S
C2215 H2239 0.967 . S
H2216 C2211 0.931 . S
Co2217 N2214 2.135 . S
Co2217 N2220 2.121 . S
Co2217 O2225 2.055 . S
Co2217 O2228 2.039 . S
Co2217 N2231 2.140 . S
C2218 O2219 1.227 . S
C2218 O2228 1.265 . S
O2219 C2218 1.227 . S
N2220 Co2217 2.121 . S
N2220 C2222 1.375 . S
N2220 C2223 1.313 . S
C2221 C2222 1.338 . S
C2221 N2224 1.377 . S
C2221 H2241 0.930 . S
C2222 N2220 1.375 . S
C2222 C2221 1.338 . S
C2222 H2226 0.931 . S
C2223 N2220 1.313 . S
C2223 N2224 1.344 . S
C2223 H2227 0.930 . S
N2224 C2221 1.377 . S
N2224 C2223 1.344 . S
O2225 Co2217 2.055 . S
O2225 C2229 1.253 . S
H2226 C2222 0.931 . S
H2227 C2223 0.930 . S
O2228 Co2217 2.039 . S
O2228 C2218 1.265 . S
C2229 O2225 1.253 . S
C2229 O2230 1.227 . S
O2230 C2229 1.227 . S
N2231 Co2217 2.140 . S
N2231 C2234 1.346 . S
N2231 C2235 1.345 . S
C2232 C2233 1.387 . S
C2232 C2236 1.391 . S
C2233 C2232 1.387 . S
C2233 C2234 1.369 . S
C2233 H2242 0.929 . S
C2234 N2231 1.346 . S
C2234 C2233 1.369 . S
C2234 H2237 0.928 . S
C2235 N2231 1.345 . S
C2235 C2236 1.371 . S
C2235 H2238 0.931 . S
C2236 C2232 1.391 . S
C2236 C2235 1.371 . S
C2236 H2243 0.930 . S
H2237 C2234 0.928 . S
H2238 C2235 0.931 . S
H2239 C2215 0.967 . S
H2240 C2212 0.930 . S
H2241 C2221 0.930 . S
H2242 C2233 0.929 . S
H2243 C2236 0.930 . S
C2244 C2245 1.351 . S
C2244 N2247 1.368 . S
C2244 H2249 0.931 . S
C2245 C2244 1.351 . S
C2245 N2246 1.373 1_655 S
C2245 H2273 0.930 . S
N2246 C2245 1.373 1_455 S
N2246 C2248 1.359 . S
N2247 C2244 1.368 . S
N2247 C2248 1.264 1_655 S
N2247 Co2250 2.135 . S
C2248 N2246 1.359 . S
C2248 N2247 1.264 1_455 S
C2248 H2272 0.967 . S
H2249 C2244 0.931 . S
Co2250 N2247 2.135 . S
Co2250 N2253 2.121 . S
Co2250 O2258 2.055 . S
Co2250 O2261 2.039 . S
Co2250 N2264 2.140 . S
C2251 O2252 1.227 . S
C2251 O2261 1.265 . S
O2252 C2251 1.227 . S
N2253 Co2250 2.121 . S
N2253 C2255 1.375 . S
N2253 C2256 1.313 . S
C2254 C2255 1.338 . S
C2254 N2257 1.377 . S
C2254 H2274 0.930 . S
C2255 N2253 1.375 . S
C2255 C2254 1.338 . S
C2255 H2259 0.931 . S
C2256 N2253 1.313 . S
C2256 N2257 1.344 . S
C2256 H2260 0.930 . S
N2257 C2254 1.377 . S
N2257 C2256 1.344 . S
O2258 Co2250 2.055 . S
O2258 C2262 1.253 . S
H2259 C2255 0.931 . S
H2260 C2256 0.930 . S
O2261 Co2250 2.039 . S
O2261 C2251 1.265 . S
C2262 O2258 1.253 . S
C2262 O2263 1.227 . S
O2263 C2262 1.227 . S
N2264 Co2250 2.140 . S
N2264 C2267 1.346 . S
N2264 C2268 1.345 . S
C2265 C2266 1.387 . S
C2265 C2269 1.391 . S
C2266 C2265 1.387 . S
C2266 C2267 1.369 . S
C2266 H2275 0.929 . S
C2267 N2264 1.346 . S
C2267 C2266 1.369 . S
C2267 H2270 0.928 . S
C2268 N2264 1.345 . S
C2268 C2269 1.371 . S
C2268 H2271 0.931 . S
C2269 C2265 1.391 . S
C2269 C2268 1.371 . S
C2269 H2276 0.930 . S
H2270 C2267 0.928 . S
H2271 C2268 0.931 . S
H2272 C2248 0.967 . S
H2273 C2245 0.930 . S
H2274 C2254 0.930 . S
H2275 C2266 0.929 . S
H2276 C2269 0.930 . S
C2277 C2278 1.351 . S
C2277 N2280 1.368 . S
C2277 H2282 0.931 . S
C2278 C2277 1.351 . S
C2278 N2279 1.373 . S
C2278 H2306 0.930 . S
N2279 C2278 1.373 . S
N2279 C2281 1.340 . S
N2280 C2277 1.368 . S
N2280 C2281 1.321 . S
N2280 Co2283 2.135 . S
C2281 N2279 1.340 . S
C2281 N2280 1.321 . S
C2281 H2305 0.930 . S
H2282 C2277 0.931 . S
Co2283 N2280 2.135 . S
Co2283 N2286 2.121 . S
Co2283 O2291 2.055 . S
Co2283 O2294 2.039 . S
Co2283 N2297 2.140 . S
C2284 O2285 1.227 . S
C2284 O2294 1.265 . S
O2285 C2284 1.227 . S
N2286 Co2283 2.121 . S
N2286 C2288 1.375 . S
N2286 C2289 1.313 . S
C2287 C2288 1.338 . S
C2287 N2290 1.377 . S
C2287 H2307 0.930 . S
C2288 N2286 1.375 . S
C2288 C2287 1.338 . S
C2288 H2292 0.931 . S
C2289 N2286 1.313 . S
C2289 N2290 1.344 . S
C2289 H2293 0.930 . S
N2290 C2287 1.377 . S
N2290 C2289 1.344 . S
O2291 Co2283 2.055 . S
O2291 C2295 1.253 . S
H2292 C2288 0.931 . S
H2293 C2289 0.930 . S
O2294 Co2283 2.039 . S
O2294 C2284 1.265 . S
C2295 O2291 1.253 . S
C2295 O2296 1.227 . S
O2296 C2295 1.227 . S
N2297 Co2283 2.140 . S
N2297 C2300 1.346 . S
N2297 C2301 1.345 . S
C2298 C2299 1.387 . S
C2298 C2302 1.391 . S
C2299 C2298 1.387 . S
C2299 C2300 1.369 . S
C2299 H2308 0.929 . S
C2300 N2297 1.346 . S
C2300 C2299 1.369 . S
C2300 H2303 0.928 . S
C2301 N2297 1.345 . S
C2301 C2302 1.371 . S
C2301 H2304 0.931 . S
C2302 C2298 1.391 . S
C2302 C2301 1.371 . S
C2302 H2309 0.930 . S
H2303 C2300 0.928 . S
H2304 C2301 0.931 . S
H2305 C2281 0.930 . S
H2306 C2278 0.930 . S
H2307 C2287 0.930 . S
H2308 C2299 0.929 . S
H2309 C2302 0.930 . S
C2310 C2311 1.351 . S
C2310 N2313 1.368 . S
C2310 H2315 0.931 . S
C2311 C2310 1.351 . S
C2311 N2312 1.373 . S
C2311 H2339 0.930 . S
N2312 C2311 1.373 . S
N2312 C2314 1.340 . S
N2313 C2310 1.368 . S
N2313 C2314 1.321 . S
N2313 Co2316 2.135 . S
C2314 N2312 1.340 . S
C2314 N2313 1.321 . S
C2314 H2338 0.930 . S
H2315 C2310 0.931 . S
Co2316 N2313 2.135 . S
Co2316 N2319 2.121 . S
Co2316 O2324 2.055 . S
Co2316 O2327 2.039 . S
Co2316 N2330 2.140 . S
C2317 O2318 1.227 . S
C2317 O2327 1.265 . S
O2318 C2317 1.227 . S
N2319 Co2316 2.121 . S
N2319 C2321 1.375 . S
N2319 C2322 1.313 . S
C2320 C2321 1.338 . S
C2320 N2323 1.377 . S
C2320 H2340 0.930 . S
C2321 N2319 1.375 . S
C2321 C2320 1.338 . S
C2321 H2325 0.931 . S
C2322 N2319 1.313 . S
C2322 N2323 1.344 . S
C2322 H2326 0.930 . S
N2323 C2320 1.377 . S
N2323 C2322 1.344 . S
O2324 Co2316 2.055 . S
O2324 C2328 1.253 . S
H2325 C2321 0.931 . S
H2326 C2322 0.930 . S
O2327 Co2316 2.039 . S
O2327 C2317 1.265 . S
C2328 O2324 1.253 . S
C2328 O2329 1.227 . S
O2329 C2328 1.227 . S
N2330 Co2316 2.140 . S
N2330 C2333 1.346 . S
N2330 C2334 1.345 . S
C2331 C2332 1.387 . S
C2331 C2335 1.391 . S
C2332 C2331 1.387 . S
C2332 C2333 1.369 . S
C2332 H2341 0.929 . S
C2333 N2330 1.346 . S
C2333 C2332 1.369 . S
C2333 H2336 0.928 . S
C2334 N2330 1.345 . S
C2334 C2335 1.371 . S
C2334 H2337 0.931 . S
C2335 C2331 1.391 . S
C2335 C2334 1.371 . S
C2335 H2342 0.930 . S
H2336 C2333 0.928 . S
H2337 C2334 0.931 . S
H2338 C2314 0.930 . S
H2339 C2311 0.930 . S
H2340 C2320 0.930 . S
H2341 C2332 0.929 . S
H2342 C2335 0.930 . S
C2343 C2344 1.351 . S
C2343 N2346 1.368 . S
C2343 H2348 0.931 . S
C2344 C2343 1.351 . S
C2344 N2345 1.373 . S
C2344 H2372 0.930 . S
N2345 C2344 1.373 . S
N2345 C2347 1.340 . S
N2346 C2343 1.368 . S
N2346 C2347 1.321 . S
N2346 Co2349 2.135 . S
C2347 N2345 1.340 . S
C2347 N2346 1.321 . S
C2347 H2371 0.930 . S
H2348 C2343 0.931 . S
Co2349 N2346 2.135 . S
Co2349 N2352 2.121 . S
Co2349 O2357 2.055 . S
Co2349 O2360 2.039 . S
Co2349 N2363 2.140 . S
C2350 O2351 1.227 . S
C2350 O2360 1.265 . S
O2351 C2350 1.227 . S
N2352 Co2349 2.121 . S
N2352 C2354 1.375 . S
N2352 C2355 1.313 . S
C2353 C2354 1.338 . S
C2353 N2356 1.377 . S
C2353 H2373 0.930 . S
C2354 N2352 1.375 . S
C2354 C2353 1.338 . S
C2354 H2358 0.931 . S
C2355 N2352 1.313 . S
C2355 N2356 1.344 . S
C2355 H2359 0.930 . S
N2356 C2353 1.377 . S
N2356 C2355 1.344 . S
O2357 Co2349 2.055 . S
O2357 C2361 1.253 . S
H2358 C2354 0.931 . S
H2359 C2355 0.930 . S
O2360 Co2349 2.039 . S
O2360 C2350 1.265 . S
C2361 O2357 1.253 . S
C2361 O2362 1.227 . S
O2362 C2361 1.227 . S
N2363 Co2349 2.140 . S
N2363 C2366 1.346 . S
N2363 C2367 1.345 . S
C2364 C2365 1.387 . S
C2364 C2368 1.391 . S
C2365 C2364 1.387 . S
C2365 C2366 1.369 . S
C2365 H2374 0.929 . S
C2366 N2363 1.346 . S
C2366 C2365 1.369 . S
C2366 H2369 0.928 . S
C2367 N2363 1.345 . S
C2367 C2368 1.371 . S
C2367 H2370 0.931 . S
C2368 C2364 1.391 . S
C2368 C2367 1.371 . S
C2368 H2375 0.930 . S
H2369 C2366 0.928 . S
H2370 C2367 0.931 . S
H2371 C2347 0.930 . S
H2372 C2344 0.930 . S
H2373 C2353 0.930 . S
H2374 C2365 0.929 . S
H2375 C2368 0.930 . S
C2376 C2377 1.351 . S
C2376 N2379 1.368 . S
C2376 H2381 0.931 . S
C2377 C2376 1.351 . S
C2377 N2378 1.373 . S
C2377 H2405 0.930 . S
N2378 C2377 1.373 . S
N2378 C2380 1.340 . S
N2379 C2376 1.368 . S
N2379 C2380 1.321 . S
N2379 Co2382 2.135 . S
C2380 N2378 1.340 . S
C2380 N2379 1.321 . S
C2380 H2404 0.930 . S
H2381 C2376 0.931 . S
Co2382 N2379 2.135 . S
Co2382 N2385 2.121 . S
Co2382 O2390 2.055 . S
Co2382 O2393 2.039 . S
Co2382 N2396 2.140 . S
C2383 O2384 1.227 . S
C2383 O2393 1.265 . S
O2384 C2383 1.227 . S
N2385 Co2382 2.121 . S
N2385 C2387 1.375 . S
N2385 C2388 1.313 . S
C2386 C2387 1.338 . S
C2386 N2389 1.377 . S
C2386 H2406 0.930 . S
C2387 N2385 1.375 . S
C2387 C2386 1.338 . S
C2387 H2391 0.931 . S
C2388 N2385 1.313 . S
C2388 N2389 1.344 . S
C2388 H2392 0.930 . S
N2389 C2386 1.377 . S
N2389 C2388 1.344 . S
O2390 Co2382 2.055 . S
O2390 C2394 1.253 . S
H2391 C2387 0.931 . S
H2392 C2388 0.930 . S
O2393 Co2382 2.039 . S
O2393 C2383 1.265 . S
C2394 O2390 1.253 . S
C2394 O2395 1.227 . S
O2395 C2394 1.227 . S
N2396 Co2382 2.140 . S
N2396 C2399 1.346 . S
N2396 C2400 1.345 . S
C2397 C2398 1.387 . S
C2397 C2401 1.391 . S
C2398 C2397 1.387 . S
C2398 C2399 1.369 . S
C2398 H2407 0.929 . S
C2399 N2396 1.346 . S
C2399 C2398 1.369 . S
C2399 H2402 0.928 . S
C2400 N2396 1.345 . S
C2400 C2401 1.371 . S
C2400 H2403 0.931 . S
C2401 C2397 1.391 . S
C2401 C2400 1.371 . S
C2401 H2408 0.930 . S
H2402 C2399 0.928 . S
H2403 C2400 0.931 . S
H2404 C2380 0.930 . S
H2405 C2377 0.930 . S
H2406 C2386 0.930 . S
H2407 C2398 0.929 . S
H2408 C2401 0.930 . S
C2409 C2410 1.351 . S
C2409 N2412 1.368 . S
C2409 H2414 0.931 . S
C2410 C2409 1.351 . S
C2410 N2411 1.373 . S
C2410 H2438 0.930 . S
N2411 C2410 1.373 . S
N2411 C2413 1.340 . S
N2412 C2409 1.368 . S
N2412 C2413 1.321 . S
N2412 Co2415 2.135 . S
C2413 N2411 1.340 . S
C2413 N2412 1.321 . S
C2413 H2437 0.930 . S
H2414 C2409 0.931 . S
Co2415 N2412 2.135 . S
Co2415 N2418 2.121 . S
Co2415 O2423 2.055 . S
Co2415 O2426 2.039 . S
Co2415 N2429 2.140 . S
C2416 O2417 1.227 . S
C2416 O2426 1.265 . S
O2417 C2416 1.227 . S
N2418 Co2415 2.121 . S
N2418 C2420 1.375 . S
N2418 C2421 1.313 . S
C2419 C2420 1.338 . S
C2419 N2422 1.377 . S
C2419 H2439 0.930 . S
C2420 N2418 1.375 . S
C2420 C2419 1.338 . S
C2420 H2424 0.931 . S
C2421 N2418 1.313 . S
C2421 N2422 1.344 . S
C2421 H2425 0.930 . S
N2422 C2419 1.377 . S
N2422 C2421 1.344 . S
O2423 Co2415 2.055 . S
O2423 C2427 1.253 . S
H2424 C2420 0.931 . S
H2425 C2421 0.930 . S
O2426 Co2415 2.039 . S
O2426 C2416 1.265 . S
C2427 O2423 1.253 . S
C2427 O2428 1.227 . S
O2428 C2427 1.227 . S
N2429 Co2415 2.140 . S
N2429 C2432 1.346 . S
N2429 C2433 1.345 . S
C2430 C2431 1.387 . S
C2430 C2434 1.391 . S
C2431 C2430 1.387 . S
C2431 C2432 1.369 . S
C2431 H2440 0.929 . S
C2432 N2429 1.346 . S
C2432 C2431 1.369 . S
C2432 H2435 0.928 . S
C2433 N2429 1.345 . S
C2433 C2434 1.371 . S
C2433 H2436 0.931 . S
C2434 C2430 1.391 . S
C2434 C2433 1.371 . S
C2434 H2441 0.930 . S
H2435 C2432 0.928 . S
H2436 C2433 0.931 . S
H2437 C2413 0.930 . S
H2438 C2410 0.930 . S
H2439 C2419 0.930 . S
H2440 C2431 0.929 . S
H2441 C2434 0.930 . S
C2442 C2443 1.351 . S
C2442 N2445 1.368 . S
C2442 H2447 0.931 . S
C2443 C2442 1.351 . S
C2443 N2444 1.373 . S
C2443 H2471 0.930 . S
N2444 C2443 1.373 . S
N2444 C2446 1.340 . S
N2445 C2442 1.368 . S
N2445 C2446 1.321 . S
N2445 Co2448 2.135 . S
C2446 N2444 1.340 . S
C2446 N2445 1.321 . S
C2446 H2470 0.930 . S
H2447 C2442 0.931 . S
Co2448 N2445 2.135 . S
Co2448 N2451 2.121 . S
Co2448 O2456 2.055 . S
Co2448 O2459 2.039 . S
Co2448 N2462 2.140 . S
C2449 O2450 1.227 . S
C2449 O2459 1.265 . S
O2450 C2449 1.227 . S
N2451 Co2448 2.121 . S
N2451 C2453 1.375 . S
N2451 C2454 1.313 . S
C2452 C2453 1.338 . S
C2452 N2455 1.377 . S
C2452 H2472 0.930 . S
C2453 N2451 1.375 . S
C2453 C2452 1.338 . S
C2453 H2457 0.931 . S
C2454 N2451 1.313 . S
C2454 N2455 1.344 . S
C2454 H2458 0.930 . S
N2455 C2452 1.377 . S
N2455 C2454 1.344 . S
O2456 Co2448 2.055 . S
O2456 C2460 1.253 . S
H2457 C2453 0.931 . S
H2458 C2454 0.930 . S
O2459 Co2448 2.039 . S
O2459 C2449 1.265 . S
C2460 O2456 1.253 . S
C2460 O2461 1.227 . S
O2461 C2460 1.227 . S
N2462 Co2448 2.140 . S
N2462 C2465 1.346 . S
N2462 C2466 1.345 . S
C2463 C2464 1.387 . S
C2463 C2467 1.391 . S
C2464 C2463 1.387 . S
C2464 C2465 1.369 . S
C2464 H2473 0.929 . S
C2465 N2462 1.346 . S
C2465 C2464 1.369 . S
C2465 H2468 0.928 . S
C2466 N2462 1.345 . S
C2466 C2467 1.371 . S
C2466 H2469 0.931 . S
C2467 C2463 1.391 . S
C2467 C2466 1.371 . S
C2467 H2474 0.930 . S
H2468 C2465 0.928 . S
H2469 C2466 0.931 . S
H2470 C2446 0.930 . S
H2471 C2443 0.930 . S
H2472 C2452 0.930 . S
H2473 C2464 0.929 . S
H2474 C2467 0.930 . S
C2475 C2476 1.351 . S
C2475 N2478 1.368 . S
C2475 H2480 0.931 . S
C2476 C2475 1.351 . S
C2476 N2477 1.373 . S
C2476 H2504 0.930 . S
N2477 C2476 1.373 . S
N2477 C2479 1.340 . S
N2478 C2475 1.368 . S
N2478 C2479 1.321 . S
N2478 Co2481 2.135 . S
C2479 N2477 1.340 . S
C2479 N2478 1.321 . S
C2479 H2503 0.930 . S
H2480 C2475 0.931 . S
Co2481 N2478 2.135 . S
Co2481 N2484 2.121 . S
Co2481 O2489 2.055 . S
Co2481 O2492 2.039 . S
Co2481 N2495 2.140 . S
C2482 O2483 1.227 . S
C2482 O2492 1.265 . S
O2483 C2482 1.227 . S
N2484 Co2481 2.121 . S
N2484 C2486 1.375 . S
N2484 C2487 1.313 . S
C2485 C2486 1.338 . S
C2485 N2488 1.377 . S
C2485 H2505 0.930 . S
C2486 N2484 1.375 . S
C2486 C2485 1.338 . S
C2486 H2490 0.931 . S
C2487 N2484 1.313 . S
C2487 N2488 1.344 . S
C2487 H2491 0.930 . S
N2488 C2485 1.377 . S
N2488 C2487 1.344 . S
O2489 Co2481 2.055 . S
O2489 C2493 1.253 . S
H2490 C2486 0.931 . S
H2491 C2487 0.930 . S
O2492 Co2481 2.039 . S
O2492 C2482 1.265 . S
C2493 O2489 1.253 . S
C2493 O2494 1.227 . S
O2494 C2493 1.227 . S
N2495 Co2481 2.140 . S
N2495 C2498 1.346 . S
N2495 C2499 1.345 . S
C2496 C2497 1.387 . S
C2496 C2500 1.391 . S
C2497 C2496 1.387 . S
C2497 C2498 1.369 . S
C2497 H2506 0.929 . S
C2498 N2495 1.346 . S
C2498 C2497 1.369 . S
C2498 H2501 0.928 . S
C2499 N2495 1.345 . S
C2499 C2500 1.371 . S
C2499 H2502 0.931 . S
C2500 C2496 1.391 . S
C2500 C2499 1.371 . S
C2500 H2507 0.930 . S
H2501 C2498 0.928 . S
H2502 C2499 0.931 . S
H2503 C2479 0.930 . S
H2504 C2476 0.930 . S
H2505 C2485 0.930 . S
H2506 C2497 0.929 . S
H2507 C2500 0.930 . S
C2508 C2509 1.351 . S
C2508 N2511 1.368 . S
C2508 H2513 0.931 . S
C2509 C2508 1.351 . S
C2509 N2510 1.373 1_565 S
C2509 H2537 0.930 . S
N2510 C2509 1.373 1_545 S
N2510 C2512 1.359 . S
N2511 C2508 1.368 . S
N2511 C2512 1.264 1_565 S
N2511 Co2514 2.135 . S
C2512 N2510 1.359 . S
C2512 N2511 1.264 1_545 S
C2512 H2536 0.967 . S
H2513 C2508 0.931 . S
Co2514 N2511 2.135 . S
Co2514 N2517 2.121 . S
Co2514 O2522 2.055 . S
Co2514 O2525 2.039 . S
Co2514 N2528 2.140 . S
C2515 O2516 1.227 . S
C2515 O2525 1.265 . S
O2516 C2515 1.227 . S
N2517 Co2514 2.121 . S
N2517 C2519 1.375 . S
N2517 C2520 1.313 . S
C2518 C2519 1.338 . S
C2518 N2521 1.377 . S
C2518 H2538 0.930 . S
C2519 N2517 1.375 . S
C2519 C2518 1.338 . S
C2519 H2523 0.931 . S
C2520 N2517 1.313 . S
C2520 N2521 1.344 . S
C2520 H2524 0.930 . S
N2521 C2518 1.377 . S
N2521 C2520 1.344 . S
O2522 Co2514 2.055 . S
O2522 C2526 1.253 . S
H2523 C2519 0.931 . S
H2524 C2520 0.930 . S
O2525 Co2514 2.039 . S
O2525 C2515 1.265 . S
C2526 O2522 1.253 . S
C2526 O2527 1.227 . S
O2527 C2526 1.227 . S
N2528 Co2514 2.140 . S
N2528 C2531 1.346 . S
N2528 C2532 1.345 . S
C2529 C2530 1.387 . S
C2529 C2533 1.391 . S
C2530 C2529 1.387 . S
C2530 C2531 1.369 . S
C2530 H2539 0.929 . S
C2531 N2528 1.346 . S
C2531 C2530 1.369 . S
C2531 H2534 0.928 . S
C2532 N2528 1.345 . S
C2532 C2533 1.371 . S
C2532 H2535 0.931 . S
C2533 C2529 1.391 . S
C2533 C2532 1.371 . S
C2533 H2540 0.930 . S
H2534 C2531 0.928 . S
H2535 C2532 0.931 . S
H2536 C2512 0.967 . S
H2537 C2509 0.930 . S
H2538 C2518 0.930 . S
H2539 C2530 0.929 . S
H2540 C2533 0.930 . S
C2541 C2542 1.351 . S
C2541 N2544 1.368 . S
C2541 H2546 0.931 . S
C2542 C2541 1.351 . S
C2542 N2543 1.373 1_455 S
C2542 H2570 0.930 . S
N2543 C2542 1.373 1_655 S
N2543 C2545 1.359 . S
N2544 C2541 1.368 . S
N2544 C2545 1.264 1_455 S
N2544 Co2547 2.135 . S
C2545 N2543 1.359 . S
C2545 N2544 1.264 1_655 S
C2545 H2569 0.967 . S
H2546 C2541 0.931 . S
Co2547 N2544 2.135 . S
Co2547 N2550 2.121 . S
Co2547 O2555 2.055 . S
Co2547 O2558 2.039 . S
Co2547 N2561 2.140 . S
C2548 O2549 1.227 . S
C2548 O2558 1.265 . S
O2549 C2548 1.227 . S
N2550 Co2547 2.121 . S
N2550 C2552 1.375 . S
N2550 C2553 1.313 . S
C2551 C2552 1.338 . S
C2551 N2554 1.377 . S
C2551 H2571 0.930 . S
C2552 N2550 1.375 . S
C2552 C2551 1.338 . S
C2552 H2556 0.931 . S
C2553 N2550 1.313 . S
C2553 N2554 1.344 . S
C2553 H2557 0.930 . S
N2554 C2551 1.377 . S
N2554 C2553 1.344 . S
O2555 Co2547 2.055 . S
O2555 C2559 1.253 . S
H2556 C2552 0.931 . S
H2557 C2553 0.930 . S
O2558 Co2547 2.039 . S
O2558 C2548 1.265 . S
C2559 O2555 1.253 . S
C2559 O2560 1.227 . S
O2560 C2559 1.227 . S
N2561 Co2547 2.140 . S
N2561 C2564 1.346 . S
N2561 C2565 1.345 . S
C2562 C2563 1.387 . S
C2562 C2566 1.391 . S
C2563 C2562 1.387 . S
C2563 C2564 1.369 . S
C2563 H2572 0.929 . S
C2564 N2561 1.346 . S
C2564 C2563 1.369 . S
C2564 H2567 0.928 . S
C2565 N2561 1.345 . S
C2565 C2566 1.371 . S
C2565 H2568 0.931 . S
C2566 C2562 1.391 . S
C2566 C2565 1.371 . S
C2566 H2573 0.930 . S
H2567 C2564 0.928 . S
H2568 C2565 0.931 . S
H2569 C2545 0.967 . S
H2570 C2542 0.930 . S
H2571 C2551 0.930 . S
H2572 C2563 0.929 . S
H2573 C2566 0.930 . S
C2574 C2575 1.351 . S
C2574 N2577 1.368 . S
C2574 H2579 0.931 . S
C2575 C2574 1.351 . S
C2575 N2576 1.373 . S
C2575 H2603 0.930 . S
N2576 C2575 1.373 . S
N2576 C2578 1.340 . S
N2577 C2574 1.368 . S
N2577 C2578 1.321 . S
N2577 Co2580 2.135 . S
C2578 N2576 1.340 . S
C2578 N2577 1.321 . S
C2578 H2602 0.930 . S
H2579 C2574 0.931 . S
Co2580 N2577 2.135 . S
Co2580 N2583 2.121 . S
Co2580 O2588 2.055 . S
Co2580 O2591 2.039 . S
Co2580 N2594 2.140 . S
C2581 O2582 1.227 . S
C2581 O2591 1.265 . S
O2582 C2581 1.227 . S
N2583 Co2580 2.121 . S
N2583 C2585 1.375 . S
N2583 C2586 1.313 . S
C2584 C2585 1.338 . S
C2584 N2587 1.377 . S
C2584 H2604 0.930 . S
C2585 N2583 1.375 . S
C2585 C2584 1.338 . S
C2585 H2589 0.931 . S
C2586 N2583 1.313 . S
C2586 N2587 1.344 . S
C2586 H2590 0.930 . S
N2587 C2584 1.377 . S
N2587 C2586 1.344 . S
O2588 Co2580 2.055 . S
O2588 C2592 1.253 . S
H2589 C2585 0.931 . S
H2590 C2586 0.930 . S
O2591 Co2580 2.039 . S
O2591 C2581 1.265 . S
C2592 O2588 1.253 . S
C2592 O2593 1.227 . S
O2593 C2592 1.227 . S
N2594 Co2580 2.140 . S
N2594 C2597 1.346 . S
N2594 C2598 1.345 . S
C2595 C2596 1.387 . S
C2595 C2599 1.391 . S
C2596 C2595 1.387 . S
C2596 C2597 1.369 . S
C2596 H2605 0.929 . S
C2597 N2594 1.346 . S
C2597 C2596 1.369 . S
C2597 H2600 0.928 . S
C2598 N2594 1.345 . S
C2598 C2599 1.371 . S
C2598 H2601 0.931 . S
C2599 C2595 1.391 . S
C2599 C2598 1.371 . S
C2599 H2606 0.930 . S
H2600 C2597 0.928 . S
H2601 C2598 0.931 . S
H2602 C2578 0.930 . S
H2603 C2575 0.930 . S
H2604 C2584 0.930 . S
H2605 C2596 0.929 . S
H2606 C2599 0.930 . S
C2607 C2608 1.351 . S
C2607 N2610 1.368 . S
C2607 H2612 0.931 . S
C2608 C2607 1.351 . S
C2608 N2609 1.373 . S
C2608 H2636 0.930 . S
N2609 C2608 1.373 . S
N2609 C2611 1.340 . S
N2610 C2607 1.368 . S
N2610 C2611 1.321 . S
N2610 Co2613 2.135 . S
C2611 N2609 1.340 . S
C2611 N2610 1.321 . S
C2611 H2635 0.930 . S
H2612 C2607 0.931 . S
Co2613 N2610 2.135 . S
Co2613 N2616 2.121 . S
Co2613 O2621 2.055 . S
Co2613 O2624 2.039 . S
Co2613 N2627 2.140 . S
C2614 O2615 1.227 . S
C2614 O2624 1.265 . S
O2615 C2614 1.227 . S
N2616 Co2613 2.121 . S
N2616 C2618 1.375 . S
N2616 C2619 1.313 . S
C2617 C2618 1.338 . S
C2617 N2620 1.377 . S
C2617 H2637 0.930 . S
C2618 N2616 1.375 . S
C2618 C2617 1.338 . S
C2618 H2622 0.931 . S
C2619 N2616 1.313 . S
C2619 N2620 1.344 . S
C2619 H2623 0.930 . S
N2620 C2617 1.377 . S
N2620 C2619 1.344 . S
O2621 Co2613 2.055 . S
O2621 C2625 1.253 . S
H2622 C2618 0.931 . S
H2623 C2619 0.930 . S
O2624 Co2613 2.039 . S
O2624 C2614 1.265 . S
C2625 O2621 1.253 . S
C2625 O2626 1.227 . S
O2626 C2625 1.227 . S
N2627 Co2613 2.140 . S
N2627 C2630 1.346 . S
N2627 C2631 1.345 . S
C2628 C2629 1.387 . S
C2628 C2632 1.391 . S
C2629 C2628 1.387 . S
C2629 C2630 1.369 . S
C2629 H2638 0.929 . S
C2630 N2627 1.346 . S
C2630 C2629 1.369 . S
C2630 H2633 0.928 . S
C2631 N2627 1.345 . S
C2631 C2632 1.371 . S
C2631 H2634 0.931 . S
C2632 C2628 1.391 . S
C2632 C2631 1.371 . S
C2632 H2639 0.930 . S
H2633 C2630 0.928 . S
H2634 C2631 0.931 . S
H2635 C2611 0.930 . S
H2636 C2608 0.930 . S
H2637 C2617 0.930 . S
H2638 C2629 0.929 . S
H2639 C2632 0.930 . S
C2640 C2641 1.351 . S
C2640 N2643 1.368 . S
C2640 H2645 0.931 . S
C2641 C2640 1.351 . S
C2641 N2642 1.373 . S
C2641 H2669 0.930 . S
N2642 C2641 1.373 . S
N2642 C2644 1.340 . S
N2643 C2640 1.368 . S
N2643 C2644 1.321 . S
N2643 Co2646 2.135 . S
C2644 N2642 1.340 . S
C2644 N2643 1.321 . S
C2644 H2668 0.930 . S
H2645 C2640 0.931 . S
Co2646 N2643 2.135 . S
Co2646 N2649 2.121 . S
Co2646 O2654 2.055 . S
Co2646 O2657 2.039 . S
Co2646 N2660 2.140 . S
C2647 O2648 1.227 . S
C2647 O2657 1.265 . S
O2648 C2647 1.227 . S
N2649 Co2646 2.121 . S
N2649 C2651 1.375 . S
N2649 C2652 1.313 . S
C2650 C2651 1.338 . S
C2650 N2653 1.377 . S
C2650 H2670 0.930 . S
C2651 N2649 1.375 . S
C2651 C2650 1.338 . S
C2651 H2655 0.931 . S
C2652 N2649 1.313 . S
C2652 N2653 1.344 . S
C2652 H2656 0.930 . S
N2653 C2650 1.377 . S
N2653 C2652 1.344 . S
O2654 Co2646 2.055 . S
O2654 C2658 1.253 . S
H2655 C2651 0.931 . S
H2656 C2652 0.930 . S
O2657 Co2646 2.039 . S
O2657 C2647 1.265 . S
C2658 O2654 1.253 . S
C2658 O2659 1.227 . S
O2659 C2658 1.227 . S
N2660 Co2646 2.140 . S
N2660 C2663 1.346 . S
N2660 C2664 1.345 . S
C2661 C2662 1.387 . S
C2661 C2665 1.391 . S
C2662 C2661 1.387 . S
C2662 C2663 1.369 . S
C2662 H2671 0.929 . S
C2663 N2660 1.346 . S
C2663 C2662 1.369 . S
C2663 H2666 0.928 . S
C2664 N2660 1.345 . S
C2664 C2665 1.371 . S
C2664 H2667 0.931 . S
C2665 C2661 1.391 . S
C2665 C2664 1.371 . S
C2665 H2672 0.930 . S
H2666 C2663 0.928 . S
H2667 C2664 0.931 . S
H2668 C2644 0.930 . S
H2669 C2641 0.930 . S
H2670 C2650 0.930 . S
H2671 C2662 0.929 . S
H2672 C2665 0.930 . S
C2673 C2674 1.351 . S
C2673 N2676 1.368 . S
C2673 H2678 0.931 . S
C2674 C2673 1.351 . S
C2674 N2675 1.373 . S
C2674 H2702 0.930 . S
N2675 C2674 1.373 . S
N2675 C2677 1.340 . S
N2676 C2673 1.368 . S
N2676 C2677 1.321 . S
N2676 Co2679 2.135 . S
C2677 N2675 1.340 . S
C2677 N2676 1.321 . S
C2677 H2701 0.930 . S
H2678 C2673 0.931 . S
Co2679 N2676 2.135 . S
Co2679 N2682 2.121 . S
Co2679 O2687 2.055 . S
Co2679 O2690 2.039 . S
Co2679 N2693 2.140 . S
C2680 O2681 1.227 . S
C2680 O2690 1.265 . S
O2681 C2680 1.227 . S
N2682 Co2679 2.121 . S
N2682 C2684 1.375 . S
N2682 C2685 1.313 . S
C2683 C2684 1.338 . S
C2683 N2686 1.377 . S
C2683 H2703 0.930 . S
C2684 N2682 1.375 . S
C2684 C2683 1.338 . S
C2684 H2688 0.931 . S
C2685 N2682 1.313 . S
C2685 N2686 1.344 . S
C2685 H2689 0.930 . S
N2686 C2683 1.377 . S
N2686 C2685 1.344 . S
O2687 Co2679 2.055 . S
O2687 C2691 1.253 . S
H2688 C2684 0.931 . S
H2689 C2685 0.930 . S
O2690 Co2679 2.039 . S
O2690 C2680 1.265 . S
C2691 O2687 1.253 . S
C2691 O2692 1.227 . S
O2692 C2691 1.227 . S
N2693 Co2679 2.140 . S
N2693 C2696 1.346 . S
N2693 C2697 1.345 . S
C2694 C2695 1.387 . S
C2694 C2698 1.391 . S
C2695 C2694 1.387 . S
C2695 C2696 1.369 . S
C2695 H2704 0.929 . S
C2696 N2693 1.346 . S
C2696 C2695 1.369 . S
C2696 H2699 0.928 . S
C2697 N2693 1.345 . S
C2697 C2698 1.371 . S
C2697 H2700 0.931 . S
C2698 C2694 1.391 . S
C2698 C2697 1.371 . S
C2698 H2705 0.930 . S
H2699 C2696 0.928 . S
H2700 C2697 0.931 . S
H2701 C2677 0.930 . S
H2702 C2674 0.930 . S
H2703 C2683 0.930 . S
H2704 C2695 0.929 . S
H2705 C2698 0.930 . S
C2706 C2707 1.351 . S
C2706 N2709 1.368 . S
C2706 H2711 0.931 . S
C2707 C2706 1.351 . S
C2707 N2708 1.373 1_455 S
C2707 H2735 0.930 . S
N2708 C2707 1.373 1_655 S
N2708 C2710 1.359 . S
N2709 C2706 1.368 . S
N2709 C2710 1.264 1_455 S
N2709 Co2712 2.135 . S
C2710 N2708 1.359 . S
C2710 N2709 1.264 1_655 S
C2710 H2734 0.967 . S
H2711 C2706 0.931 . S
Co2712 N2709 2.135 . S
Co2712 N2715 2.121 . S
Co2712 O2720 2.055 . S
Co2712 O2723 2.039 . S
Co2712 N2726 2.140 . S
C2713 O2714 1.227 . S
C2713 O2723 1.265 . S
O2714 C2713 1.227 . S
N2715 Co2712 2.121 . S
N2715 C2717 1.375 . S
N2715 C2718 1.313 . S
C2716 C2717 1.338 . S
C2716 N2719 1.377 . S
C2716 H2736 0.930 . S
C2717 N2715 1.375 . S
C2717 C2716 1.338 . S
C2717 H2721 0.931 . S
C2718 N2715 1.313 . S
C2718 N2719 1.344 . S
C2718 H2722 0.930 . S
N2719 C2716 1.377 . S
N2719 C2718 1.344 . S
O2720 Co2712 2.055 . S
O2720 C2724 1.253 . S
H2721 C2717 0.931 . S
H2722 C2718 0.930 . S
O2723 Co2712 2.039 . S
O2723 C2713 1.265 . S
C2724 O2720 1.253 . S
C2724 O2725 1.227 . S
O2725 C2724 1.227 . S
N2726 Co2712 2.140 . S
N2726 C2729 1.346 . S
N2726 C2730 1.345 . S
C2727 C2728 1.387 . S
C2727 C2731 1.391 . S
C2728 C2727 1.387 . S
C2728 C2729 1.369 . S
C2728 H2737 0.929 . S
C2729 N2726 1.346 . S
C2729 C2728 1.369 . S
C2729 H2732 0.928 . S
C2730 N2726 1.345 . S
C2730 C2731 1.371 . S
C2730 H2733 0.931 . S
C2731 C2727 1.391 . S
C2731 C2730 1.371 . S
C2731 H2738 0.930 . S
H2732 C2729 0.928 . S
H2733 C2730 0.931 . S
H2734 C2710 0.967 . S
H2735 C2707 0.930 . S
H2736 C2716 0.930 . S
H2737 C2728 0.929 . S
H2738 C2731 0.930 . S
C2739 C2740 1.351 . S
C2739 N2742 1.368 . S
C2739 H2744 0.931 . S
C2740 C2739 1.351 . S
C2740 N2741 1.373 . S
C2740 H2768 0.930 . S
N2741 C2740 1.373 . S
N2741 C2743 1.340 . S
N2742 C2739 1.368 . S
N2742 C2743 1.321 . S
N2742 Co2745 2.135 . S
C2743 N2741 1.340 . S
C2743 N2742 1.321 . S
C2743 H2767 0.930 . S
H2744 C2739 0.931 . S
Co2745 N2742 2.135 . S
Co2745 N2748 2.121 . S
Co2745 O2753 2.055 . S
Co2745 O2756 2.039 . S
Co2745 N2759 2.140 . S
C2746 O2747 1.227 . S
C2746 O2756 1.265 . S
O2747 C2746 1.227 . S
N2748 Co2745 2.121 . S
N2748 C2750 1.375 . S
N2748 C2751 1.313 . S
C2749 C2750 1.338 . S
C2749 N2752 1.377 . S
C2749 H2769 0.930 . S
C2750 N2748 1.375 . S
C2750 C2749 1.338 . S
C2750 H2754 0.931 . S
C2751 N2748 1.313 . S
C2751 N2752 1.344 . S
C2751 H2755 0.930 . S
N2752 C2749 1.377 . S
N2752 C2751 1.344 . S
O2753 Co2745 2.055 . S
O2753 C2757 1.253 . S
H2754 C2750 0.931 . S
H2755 C2751 0.930 . S
O2756 Co2745 2.039 . S
O2756 C2746 1.265 . S
C2757 O2753 1.253 . S
C2757 O2758 1.227 . S
O2758 C2757 1.227 . S
N2759 Co2745 2.140 . S
N2759 C2762 1.346 . S
N2759 C2763 1.345 . S
C2760 C2761 1.387 . S
C2760 C2764 1.391 . S
C2761 C2760 1.387 . S
C2761 C2762 1.369 . S
C2761 H2770 0.929 . S
C2762 N2759 1.346 . S
C2762 C2761 1.369 . S
C2762 H2765 0.928 . S
C2763 N2759 1.345 . S
C2763 C2764 1.371 . S
C2763 H2766 0.931 . S
C2764 C2760 1.391 . S
C2764 C2763 1.371 . S
C2764 H2771 0.930 . S
H2765 C2762 0.928 . S
H2766 C2763 0.931 . S
H2767 C2743 0.930 . S
H2768 C2740 0.930 . S
H2769 C2749 0.930 . S
H2770 C2761 0.929 . S
H2771 C2764 0.930 . S
C2772 C2773 1.351 . S
C2772 N2775 1.368 . S
C2772 H2777 0.931 . S
C2773 C2772 1.351 . S
C2773 N2774 1.373 . S
C2773 H2801 0.930 . S
N2774 C2773 1.373 . S
N2774 C2776 1.340 . S
N2775 C2772 1.368 . S
N2775 C2776 1.321 . S
N2775 Co2778 2.135 . S
C2776 N2774 1.340 . S
C2776 N2775 1.321 . S
C2776 H2800 0.930 . S
H2777 C2772 0.931 . S
Co2778 N2775 2.135 . S
Co2778 N2781 2.121 . S
Co2778 O2786 2.055 . S
Co2778 O2789 2.039 . S
Co2778 N2792 2.140 . S
C2779 O2780 1.227 . S
C2779 O2789 1.265 . S
O2780 C2779 1.227 . S
N2781 Co2778 2.121 . S
N2781 C2783 1.375 . S
N2781 C2784 1.313 . S
C2782 C2783 1.338 . S
C2782 N2785 1.377 . S
C2782 H2802 0.930 . S
C2783 N2781 1.375 . S
C2783 C2782 1.338 . S
C2783 H2787 0.931 . S
C2784 N2781 1.313 . S
C2784 N2785 1.344 . S
C2784 H2788 0.930 . S
N2785 C2782 1.377 . S
N2785 C2784 1.344 . S
O2786 Co2778 2.055 . S
O2786 C2790 1.253 . S
H2787 C2783 0.931 . S
H2788 C2784 0.930 . S
O2789 Co2778 2.039 . S
O2789 C2779 1.265 . S
C2790 O2786 1.253 . S
C2790 O2791 1.227 . S
O2791 C2790 1.227 . S
N2792 Co2778 2.140 . S
N2792 C2795 1.346 . S
N2792 C2796 1.345 . S
C2793 C2794 1.387 . S
C2793 C2797 1.391 . S
C2794 C2793 1.387 . S
C2794 C2795 1.369 . S
C2794 H2803 0.929 . S
C2795 N2792 1.346 . S
C2795 C2794 1.369 . S
C2795 H2798 0.928 . S
C2796 N2792 1.345 . S
C2796 C2797 1.371 . S
C2796 H2799 0.931 . S
C2797 C2793 1.391 . S
C2797 C2796 1.371 . S
C2797 H2804 0.930 . S
H2798 C2795 0.928 . S
H2799 C2796 0.931 . S
H2800 C2776 0.930 . S
H2801 C2773 0.930 . S
H2802 C2782 0.930 . S
H2803 C2794 0.929 . S
H2804 C2797 0.930 . S
C2805 C2806 1.351 . S
C2805 N2808 1.368 . S
C2805 H2810 0.931 . S
C2806 C2805 1.351 . S
C2806 N2807 1.373 1_545 S
C2806 H2834 0.930 . S
N2807 C2806 1.373 1_565 S
N2807 C2809 1.359 . S
N2808 C2805 1.368 . S
N2808 C2809 1.264 1_545 S
N2808 Co2811 2.135 . S
C2809 N2807 1.359 . S
C2809 N2808 1.264 1_565 S
C2809 H2833 0.967 . S
H2810 C2805 0.931 . S
Co2811 N2808 2.135 . S
Co2811 N2814 2.121 . S
Co2811 O2819 2.055 . S
Co2811 O2822 2.039 . S
Co2811 N2825 2.140 . S
C2812 O2813 1.227 . S
C2812 O2822 1.265 . S
O2813 C2812 1.227 . S
N2814 Co2811 2.121 . S
N2814 C2816 1.375 . S
N2814 C2817 1.313 . S
C2815 C2816 1.338 . S
C2815 N2818 1.377 . S
C2815 H2835 0.930 . S
C2816 N2814 1.375 . S
C2816 C2815 1.338 . S
C2816 H2820 0.931 . S
C2817 N2814 1.313 . S
C2817 N2818 1.344 . S
C2817 H2821 0.930 . S
N2818 C2815 1.377 . S
N2818 C2817 1.344 . S
O2819 Co2811 2.055 . S
O2819 C2823 1.253 . S
H2820 C2816 0.931 . S
H2821 C2817 0.930 . S
O2822 Co2811 2.039 . S
O2822 C2812 1.265 . S
C2823 O2819 1.253 . S
C2823 O2824 1.227 . S
O2824 C2823 1.227 . S
N2825 Co2811 2.140 . S
N2825 C2828 1.346 . S
N2825 C2829 1.345 . S
C2826 C2827 1.387 . S
C2826 C2830 1.391 . S
C2827 C2826 1.387 . S
C2827 C2828 1.369 . S
C2827 H2836 0.929 . S
C2828 N2825 1.346 . S
C2828 C2827 1.369 . S
C2828 H2831 0.928 . S
C2829 N2825 1.345 . S
C2829 C2830 1.371 . S
C2829 H2832 0.931 . S
C2830 C2826 1.391 . S
C2830 C2829 1.371 . S
C2830 H2837 0.930 . S
H2831 C2828 0.928 . S
H2832 C2829 0.931 . S
H2833 C2809 0.967 . S
H2834 C2806 0.930 . S
H2835 C2815 0.930 . S
H2836 C2827 0.929 . S
H2837 C2830 0.930 . S
C2838 C2839 1.351 . S
C2838 N2841 1.368 . S
C2838 H2843 0.931 . S
C2839 C2838 1.351 . S
C2839 N2840 1.373 1_655 S
C2839 H2867 0.930 . S
N2840 C2839 1.373 1_455 S
N2840 C2842 1.359 . S
N2841 C2838 1.368 . S
N2841 C2842 1.264 1_655 S
N2841 Co2844 2.135 . S
C2842 N2840 1.359 . S
C2842 N2841 1.264 1_455 S
C2842 H2866 0.967 . S
H2843 C2838 0.931 . S
Co2844 N2841 2.135 . S
Co2844 N2847 2.121 . S
Co2844 O2852 2.055 . S
Co2844 O2855 2.039 . S
Co2844 N2858 2.140 . S
C2845 O2846 1.227 . S
C2845 O2855 1.265 . S
O2846 C2845 1.227 . S
N2847 Co2844 2.121 . S
N2847 C2849 1.375 . S
N2847 C2850 1.313 . S
C2848 C2849 1.338 . S
C2848 N2851 1.377 . S
C2848 H2868 0.930 . S
C2849 N2847 1.375 . S
C2849 C2848 1.338 . S
C2849 H2853 0.931 . S
C2850 N2847 1.313 . S
C2850 N2851 1.344 . S
C2850 H2854 0.930 . S
N2851 C2848 1.377 . S
N2851 C2850 1.344 . S
O2852 Co2844 2.055 . S
O2852 C2856 1.253 . S
H2853 C2849 0.931 . S
H2854 C2850 0.930 . S
O2855 Co2844 2.039 . S
O2855 C2845 1.265 . S
C2856 O2852 1.253 . S
C2856 O2857 1.227 . S
O2857 C2856 1.227 . S
N2858 Co2844 2.140 . S
N2858 C2861 1.346 . S
N2858 C2862 1.345 . S
C2859 C2860 1.387 . S
C2859 C2863 1.391 . S
C2860 C2859 1.387 . S
C2860 C2861 1.369 . S
C2860 H2869 0.929 . S
C2861 N2858 1.346 . S
C2861 C2860 1.369 . S
C2861 H2864 0.928 . S
C2862 N2858 1.345 . S
C2862 C2863 1.371 . S
C2862 H2865 0.931 . S
C2863 C2859 1.391 . S
C2863 C2862 1.371 . S
C2863 H2870 0.930 . S
H2864 C2861 0.928 . S
H2865 C2862 0.931 . S
H2866 C2842 0.967 . S
H2867 C2839 0.930 . S
H2868 C2848 0.930 . S
H2869 C2860 0.929 . S
H2870 C2863 0.930 . S
C2871 C2872 1.351 . S
C2871 N2874 1.368 . S
C2871 H2876 0.931 . S
C2872 C2871 1.351 . S
C2872 N2873 1.373 . S
C2872 H2900 0.930 . S
N2873 C2872 1.373 . S
N2873 C2875 1.340 . S
N2874 C2871 1.368 . S
N2874 C2875 1.321 . S
N2874 Co2877 2.135 . S
C2875 N2873 1.340 . S
C2875 N2874 1.321 . S
C2875 H2899 0.930 . S
H2876 C2871 0.931 . S
Co2877 N2874 2.135 . S
Co2877 N2880 2.121 . S
Co2877 O2885 2.055 . S
Co2877 O2888 2.039 . S
Co2877 N2891 2.140 . S
C2878 O2879 1.227 . S
C2878 O2888 1.265 . S
O2879 C2878 1.227 . S
N2880 Co2877 2.121 . S
N2880 C2882 1.375 . S
N2880 C2883 1.313 . S
C2881 C2882 1.338 . S
C2881 N2884 1.377 . S
C2881 H2901 0.930 . S
C2882 N2880 1.375 . S
C2882 C2881 1.338 . S
C2882 H2886 0.931 . S
C2883 N2880 1.313 . S
C2883 N2884 1.344 . S
C2883 H2887 0.930 . S
N2884 C2881 1.377 . S
N2884 C2883 1.344 . S
O2885 Co2877 2.055 . S
O2885 C2889 1.253 . S
H2886 C2882 0.931 . S
H2887 C2883 0.930 . S
O2888 Co2877 2.039 . S
O2888 C2878 1.265 . S
C2889 O2885 1.253 . S
C2889 O2890 1.227 . S
O2890 C2889 1.227 . S
N2891 Co2877 2.140 . S
N2891 C2894 1.346 . S
N2891 C2895 1.345 . S
C2892 C2893 1.387 . S
C2892 C2896 1.391 . S
C2893 C2892 1.387 . S
C2893 C2894 1.369 . S
C2893 H2902 0.929 . S
C2894 N2891 1.346 . S
C2894 C2893 1.369 . S
C2894 H2897 0.928 . S
C2895 N2891 1.345 . S
C2895 C2896 1.371 . S
C2895 H2898 0.931 . S
C2896 C2892 1.391 . S
C2896 C2895 1.371 . S
C2896 H2903 0.930 . S
H2897 C2894 0.928 . S
H2898 C2895 0.931 . S
H2899 C2875 0.930 . S
H2900 C2872 0.930 . S
H2901 C2881 0.930 . S
H2902 C2893 0.929 . S
H2903 C2896 0.930 . S
C2904 C2905 1.351 . S
C2904 N2907 1.368 . S
C2904 H2909 0.931 . S
C2905 C2904 1.351 . S
C2905 N2906 1.373 . S
C2905 H2933 0.930 . S
N2906 C2905 1.373 . S
N2906 C2908 1.340 . S
N2907 C2904 1.368 . S
N2907 C2908 1.321 . S
N2907 Co2910 2.135 . S
C2908 N2906 1.340 . S
C2908 N2907 1.321 . S
C2908 H2932 0.930 . S
H2909 C2904 0.931 . S
Co2910 N2907 2.135 . S
Co2910 N2913 2.121 . S
Co2910 O2918 2.055 . S
Co2910 O2921 2.039 . S
Co2910 N2924 2.140 . S
C2911 O2912 1.227 . S
C2911 O2921 1.265 . S
O2912 C2911 1.227 . S
N2913 Co2910 2.121 . S
N2913 C2915 1.375 . S
N2913 C2916 1.313 . S
C2914 C2915 1.338 . S
C2914 N2917 1.377 . S
C2914 H2934 0.930 . S
C2915 N2913 1.375 . S
C2915 C2914 1.338 . S
C2915 H2919 0.931 . S
C2916 N2913 1.313 . S
C2916 N2917 1.344 . S
C2916 H2920 0.930 . S
N2917 C2914 1.377 . S
N2917 C2916 1.344 . S
O2918 Co2910 2.055 . S
O2918 C2922 1.253 . S
H2919 C2915 0.931 . S
H2920 C2916 0.930 . S
O2921 Co2910 2.039 . S
O2921 C2911 1.265 . S
C2922 O2918 1.253 . S
C2922 O2923 1.227 . S
O2923 C2922 1.227 . S
N2924 Co2910 2.140 . S
N2924 C2927 1.346 . S
N2924 C2928 1.345 . S
C2925 C2926 1.387 . S
C2925 C2929 1.391 . S
C2926 C2925 1.387 . S
C2926 C2927 1.369 . S
C2926 H2935 0.929 . S
C2927 N2924 1.346 . S
C2927 C2926 1.369 . S
C2927 H2930 0.928 . S
C2928 N2924 1.345 . S
C2928 C2929 1.371 . S
C2928 H2931 0.931 . S
C2929 C2925 1.391 . S
C2929 C2928 1.371 . S
C2929 H2936 0.930 . S
H2930 C2927 0.928 . S
H2931 C2928 0.931 . S
H2932 C2908 0.930 . S
H2933 C2905 0.930 . S
H2934 C2914 0.930 . S
H2935 C2926 0.929 . S
H2936 C2929 0.930 . S
C2937 C2938 1.351 . S
C2937 N2940 1.368 . S
C2937 H2942 0.931 . S
C2938 C2937 1.351 . S
C2938 N2939 1.373 . S
C2938 H2966 0.930 . S
N2939 C2938 1.373 . S
N2939 C2941 1.340 . S
N2940 C2937 1.368 . S
N2940 C2941 1.321 . S
N2940 Co2943 2.135 . S
C2941 N2939 1.340 . S
C2941 N2940 1.321 . S
C2941 H2965 0.930 . S
H2942 C2937 0.931 . S
Co2943 N2940 2.135 . S
Co2943 N2946 2.121 . S
Co2943 O2951 2.055 . S
Co2943 O2954 2.039 . S
Co2943 N2957 2.140 . S
C2944 O2945 1.227 . S
C2944 O2954 1.265 . S
O2945 C2944 1.227 . S
N2946 Co2943 2.121 . S
N2946 C2948 1.375 . S
N2946 C2949 1.313 . S
C2947 C2948 1.338 . S
C2947 N2950 1.377 . S
C2947 H2967 0.930 . S
C2948 N2946 1.375 . S
C2948 C2947 1.338 . S
C2948 H2952 0.931 . S
C2949 N2946 1.313 . S
C2949 N2950 1.344 . S
C2949 H2953 0.930 . S
N2950 C2947 1.377 . S
N2950 C2949 1.344 . S
O2951 Co2943 2.055 . S
O2951 C2955 1.253 . S
H2952 C2948 0.931 . S
H2953 C2949 0.930 . S
O2954 Co2943 2.039 . S
O2954 C2944 1.265 . S
C2955 O2951 1.253 . S
C2955 O2956 1.227 . S
O2956 C2955 1.227 . S
N2957 Co2943 2.140 . S
N2957 C2960 1.346 . S
N2957 C2961 1.345 . S
C2958 C2959 1.387 . S
C2958 C2962 1.391 . S
C2959 C2958 1.387 . S
C2959 C2960 1.369 . S
C2959 H2968 0.929 . S
C2960 N2957 1.346 . S
C2960 C2959 1.369 . S
C2960 H2963 0.928 . S
C2961 N2957 1.345 . S
C2961 C2962 1.371 . S
C2961 H2964 0.931 . S
C2962 C2958 1.391 . S
C2962 C2961 1.371 . S
C2962 H2969 0.930 . S
H2963 C2960 0.928 . S
H2964 C2961 0.931 . S
H2965 C2941 0.930 . S
H2966 C2938 0.930 . S
H2967 C2947 0.930 . S
H2968 C2959 0.929 . S
H2969 C2962 0.930 . S
C2970 C2971 1.351 . S
C2970 N2973 1.368 . S
C2970 H2975 0.931 . S
C2971 C2970 1.351 . S
C2971 N2972 1.373 . S
C2971 H2999 0.930 . S
N2972 C2971 1.373 . S
N2972 C2974 1.340 . S
N2973 C2970 1.368 . S
N2973 C2974 1.321 . S
N2973 Co2976 2.135 . S
C2974 N2972 1.340 . S
C2974 N2973 1.321 . S
C2974 H2998 0.930 . S
H2975 C2970 0.931 . S
Co2976 N2973 2.135 . S
Co2976 N2979 2.121 . S
Co2976 O2984 2.055 . S
Co2976 O2987 2.039 . S
Co2976 N2990 2.140 . S
C2977 O2978 1.227 . S
C2977 O2987 1.265 . S
O2978 C2977 1.227 . S
N2979 Co2976 2.121 . S
N2979 C2981 1.375 . S
N2979 C2982 1.313 . S
C2980 C2981 1.338 . S
C2980 N2983 1.377 . S
C2980 H3000 0.930 . S
C2981 N2979 1.375 . S
C2981 C2980 1.338 . S
C2981 H2985 0.931 . S
C2982 N2979 1.313 . S
C2982 N2983 1.344 . S
C2982 H2986 0.930 . S
N2983 C2980 1.377 . S
N2983 C2982 1.344 . S
O2984 Co2976 2.055 . S
O2984 C2988 1.253 . S
H2985 C2981 0.931 . S
H2986 C2982 0.930 . S
O2987 Co2976 2.039 . S
O2987 C2977 1.265 . S
C2988 O2984 1.253 . S
C2988 O2989 1.227 . S
O2989 C2988 1.227 . S
N2990 Co2976 2.140 . S
N2990 C2993 1.346 . S
N2990 C2994 1.345 . S
C2991 C2992 1.387 . S
C2991 C2995 1.391 . S
C2992 C2991 1.387 . S
C2992 C2993 1.369 . S
C2992 H3001 0.929 . S
C2993 N2990 1.346 . S
C2993 C2992 1.369 . S
C2993 H2996 0.928 . S
C2994 N2990 1.345 . S
C2994 C2995 1.371 . S
C2994 H2997 0.931 . S
C2995 C2991 1.391 . S
C2995 C2994 1.371 . S
C2995 H3002 0.930 . S
H2996 C2993 0.928 . S
H2997 C2994 0.931 . S
H2998 C2974 0.930 . S
H2999 C2971 0.930 . S
H3000 C2980 0.930 . S
H3001 C2992 0.929 . S
H3002 C2995 0.930 . S
C3003 C3004 1.351 . S
C3003 N3006 1.368 . S
C3003 H3008 0.931 . S
C3004 C3003 1.351 . S
C3004 N3005 1.373 . S
C3004 H3032 0.930 . S
N3005 C3004 1.373 . S
N3005 C3007 1.340 . S
N3006 C3003 1.368 . S
N3006 C3007 1.321 . S
N3006 Co3009 2.135 . S
C3007 N3005 1.340 . S
C3007 N3006 1.321 . S
C3007 H3031 0.930 . S
H3008 C3003 0.931 . S
Co3009 N3006 2.135 . S
Co3009 N3012 2.121 . S
Co3009 O3017 2.055 . S
Co3009 O3020 2.039 . S
Co3009 N3023 2.140 . S
C3010 O3011 1.227 . S
C3010 O3020 1.265 . S
O3011 C3010 1.227 . S
N3012 Co3009 2.121 . S
N3012 C3014 1.375 . S
N3012 C3015 1.313 . S
C3013 C3014 1.338 . S
C3013 N3016 1.377 . S
C3013 H3033 0.930 . S
C3014 N3012 1.375 . S
C3014 C3013 1.338 . S
C3014 H3018 0.931 . S
C3015 N3012 1.313 . S
C3015 N3016 1.344 . S
C3015 H3019 0.930 . S
N3016 C3013 1.377 . S
N3016 C3015 1.344 . S
O3017 Co3009 2.055 . S
O3017 C3021 1.253 . S
H3018 C3014 0.931 . S
H3019 C3015 0.930 . S
O3020 Co3009 2.039 . S
O3020 C3010 1.265 . S
C3021 O3017 1.253 . S
C3021 O3022 1.227 . S
O3022 C3021 1.227 . S
N3023 Co3009 2.140 . S
N3023 C3026 1.346 . S
N3023 C3027 1.345 . S
C3024 C3025 1.387 . S
C3024 C3028 1.391 . S
C3025 C3024 1.387 . S
C3025 C3026 1.369 . S
C3025 H3034 0.929 . S
C3026 N3023 1.346 . S
C3026 C3025 1.369 . S
C3026 H3029 0.928 . S
C3027 N3023 1.345 . S
C3027 C3028 1.371 . S
C3027 H3030 0.931 . S
C3028 C3024 1.391 . S
C3028 C3027 1.371 . S
C3028 H3035 0.930 . S
H3029 C3026 0.928 . S
H3030 C3027 0.931 . S
H3031 C3007 0.930 . S
H3032 C3004 0.930 . S
H3033 C3013 0.930 . S
H3034 C3025 0.929 . S
H3035 C3028 0.930 . S
C3036 C3037 1.351 . S
C3036 N3039 1.368 . S
C3036 H3041 0.931 . S
C3037 C3036 1.351 . S
C3037 N3038 1.373 1_545 S
C3037 H3065 0.930 . S
N3038 C3037 1.373 1_565 S
N3038 C3040 1.359 . S
N3039 C3036 1.368 . S
N3039 C3040 1.264 1_545 S
N3039 Co3042 2.135 . S
C3040 N3038 1.359 . S
C3040 N3039 1.264 1_565 S
C3040 H3064 0.967 . S
H3041 C3036 0.931 . S
Co3042 N3039 2.135 . S
Co3042 N3045 2.121 . S
Co3042 O3050 2.055 . S
Co3042 O3053 2.039 . S
Co3042 N3056 2.140 . S
C3043 O3044 1.227 . S
C3043 O3053 1.265 . S
O3044 C3043 1.227 . S
N3045 Co3042 2.121 . S
N3045 C3047 1.375 . S
N3045 C3048 1.313 . S
C3046 C3047 1.338 . S
C3046 N3049 1.377 . S
C3046 H3066 0.930 . S
C3047 N3045 1.375 . S
C3047 C3046 1.338 . S
C3047 H3051 0.931 . S
C3048 N3045 1.313 . S
C3048 N3049 1.344 . S
C3048 H3052 0.930 . S
N3049 C3046 1.377 . S
N3049 C3048 1.344 . S
O3050 Co3042 2.055 . S
O3050 C3054 1.253 . S
H3051 C3047 0.931 . S
H3052 C3048 0.930 . S
O3053 Co3042 2.039 . S
O3053 C3043 1.265 . S
C3054 O3050 1.253 . S
C3054 O3055 1.227 . S
O3055 C3054 1.227 . S
N3056 Co3042 2.140 . S
N3056 C3059 1.346 . S
N3056 C3060 1.345 . S
C3057 C3058 1.387 . S
C3057 C3061 1.391 . S
C3058 C3057 1.387 . S
C3058 C3059 1.369 . S
C3058 H3067 0.929 . S
C3059 N3056 1.346 . S
C3059 C3058 1.369 . S
C3059 H3062 0.928 . S
C3060 N3056 1.345 . S
C3060 C3061 1.371 . S
C3060 H3063 0.931 . S
C3061 C3057 1.391 . S
C3061 C3060 1.371 . S
C3061 H3068 0.930 . S
H3062 C3059 0.928 . S
H3063 C3060 0.931 . S
H3064 C3040 0.967 . S
H3065 C3037 0.930 . S
H3066 C3046 0.930 . S
H3067 C3058 0.929 . S
H3068 C3061 0.930 . S
C3069 C3070 1.351 . S
C3069 N3072 1.368 . S
C3069 H3074 0.931 . S
C3070 C3069 1.351 . S
C3070 N3071 1.373 1_565 S
C3070 H3098 0.930 . S
N3071 C3070 1.373 1_545 S
N3071 C3073 1.359 . S
N3072 C3069 1.368 . S
N3072 C3073 1.264 1_565 S
N3072 Co3075 2.135 . S
C3073 N3071 1.359 . S
C3073 N3072 1.264 1_545 S
C3073 H3097 0.967 . S
H3074 C3069 0.931 . S
Co3075 N3072 2.135 . S
Co3075 N3078 2.121 . S
Co3075 O3083 2.055 . S
Co3075 O3086 2.039 . S
Co3075 N3089 2.140 . S
C3076 O3077 1.227 . S
C3076 O3086 1.265 . S
O3077 C3076 1.227 . S
N3078 Co3075 2.121 . S
N3078 C3080 1.375 . S
N3078 C3081 1.313 . S
C3079 C3080 1.338 . S
C3079 N3082 1.377 . S
C3079 H3099 0.930 . S
C3080 N3078 1.375 . S
C3080 C3079 1.338 . S
C3080 H3084 0.931 . S
C3081 N3078 1.313 . S
C3081 N3082 1.344 . S
C3081 H3085 0.930 . S
N3082 C3079 1.377 . S
N3082 C3081 1.344 . S
O3083 Co3075 2.055 . S
O3083 C3087 1.253 . S
H3084 C3080 0.931 . S
H3085 C3081 0.930 . S
O3086 Co3075 2.039 . S
O3086 C3076 1.265 . S
C3087 O3083 1.253 . S
C3087 O3088 1.227 . S
O3088 C3087 1.227 . S
N3089 Co3075 2.140 . S
N3089 C3092 1.346 . S
N3089 C3093 1.345 . S
C3090 C3091 1.387 . S
C3090 C3094 1.391 . S
C3091 C3090 1.387 . S
C3091 C3092 1.369 . S
C3091 H3100 0.929 . S
C3092 N3089 1.346 . S
C3092 C3091 1.369 . S
C3092 H3095 0.928 . S
C3093 N3089 1.345 . S
C3093 C3094 1.371 . S
C3093 H3096 0.931 . S
C3094 C3090 1.391 . S
C3094 C3093 1.371 . S
C3094 H3101 0.930 . S
H3095 C3092 0.928 . S
H3096 C3093 0.931 . S
H3097 C3073 0.967 . S
H3098 C3070 0.930 . S
H3099 C3079 0.930 . S
H3100 C3091 0.929 . S
H3101 C3094 0.930 . S
C3102 C3103 1.351 . S
C3102 N3105 1.368 . S
C3102 H3107 0.931 . S
C3103 C3102 1.351 . S
C3103 N3104 1.373 . S
C3103 H3131 0.930 . S
N3104 C3103 1.373 . S
N3104 C3106 1.340 . S
N3105 C3102 1.368 . S
N3105 C3106 1.321 . S
N3105 Co3108 2.135 . S
C3106 N3104 1.340 . S
C3106 N3105 1.321 . S
C3106 H3130 0.930 . S
H3107 C3102 0.931 . S
Co3108 N3105 2.135 . S
Co3108 N3111 2.121 . S
Co3108 O3116 2.055 . S
Co3108 O3119 2.039 . S
Co3108 N3122 2.140 . S
C3109 O3110 1.227 . S
C3109 O3119 1.265 . S
O3110 C3109 1.227 . S
N3111 Co3108 2.121 . S
N3111 C3113 1.375 . S
N3111 C3114 1.313 . S
C3112 C3113 1.338 . S
C3112 N3115 1.377 . S
C3112 H3132 0.930 . S
C3113 N3111 1.375 . S
C3113 C3112 1.338 . S
C3113 H3117 0.931 . S
C3114 N3111 1.313 . S
C3114 N3115 1.344 . S
C3114 H3118 0.930 . S
N3115 C3112 1.377 . S
N3115 C3114 1.344 . S
O3116 Co3108 2.055 . S
O3116 C3120 1.253 . S
H3117 C3113 0.931 . S
H3118 C3114 0.930 . S
O3119 Co3108 2.039 . S
O3119 C3109 1.265 . S
C3120 O3116 1.253 . S
C3120 O3121 1.227 . S
O3121 C3120 1.227 . S
N3122 Co3108 2.140 . S
N3122 C3125 1.346 . S
N3122 C3126 1.345 . S
C3123 C3124 1.387 . S
C3123 C3127 1.391 . S
C3124 C3123 1.387 . S
C3124 C3125 1.369 . S
C3124 H3133 0.929 . S
C3125 N3122 1.346 . S
C3125 C3124 1.369 . S
C3125 H3128 0.928 . S
C3126 N3122 1.345 . S
C3126 C3127 1.371 . S
C3126 H3129 0.931 . S
C3127 C3123 1.391 . S
C3127 C3126 1.371 . S
C3127 H3134 0.930 . S
H3128 C3125 0.928 . S
H3129 C3126 0.931 . S
H3130 C3106 0.930 . S
H3131 C3103 0.930 . S
H3132 C3112 0.930 . S
H3133 C3124 0.929 . S
H3134 C3127 0.930 . S
C3135 C3136 1.351 . S
C3135 N3138 1.368 . S
C3135 H3140 0.931 . S
C3136 C3135 1.351 . S
C3136 N3137 1.373 . S
C3136 H3164 0.930 . S
N3137 C3136 1.373 . S
N3137 C3139 1.340 . S
N3138 C3135 1.368 . S
N3138 C3139 1.321 . S
N3138 Co3141 2.135 . S
C3139 N3137 1.340 . S
C3139 N3138 1.321 . S
C3139 H3163 0.930 . S
H3140 C3135 0.931 . S
Co3141 N3138 2.135 . S
Co3141 N3144 2.121 . S
Co3141 O3149 2.055 . S
Co3141 O3152 2.039 . S
Co3141 N3155 2.140 . S
C3142 O3143 1.227 . S
C3142 O3152 1.265 . S
O3143 C3142 1.227 . S
N3144 Co3141 2.121 . S
N3144 C3146 1.375 . S
N3144 C3147 1.313 . S
C3145 C3146 1.338 . S
C3145 N3148 1.377 . S
C3145 H3165 0.930 . S
C3146 N3144 1.375 . S
C3146 C3145 1.338 . S
C3146 H3150 0.931 . S
C3147 N3144 1.313 . S
C3147 N3148 1.344 . S
C3147 H3151 0.930 . S
N3148 C3145 1.377 . S
N3148 C3147 1.344 . S
O3149 Co3141 2.055 . S
O3149 C3153 1.253 . S
H3150 C3146 0.931 . S
H3151 C3147 0.930 . S
O3152 Co3141 2.039 . S
O3152 C3142 1.265 . S
C3153 O3149 1.253 . S
C3153 O3154 1.227 . S
O3154 C3153 1.227 . S
N3155 Co3141 2.140 . S
N3155 C3158 1.346 . S
N3155 C3159 1.345 . S
C3156 C3157 1.387 . S
C3156 C3160 1.391 . S
C3157 C3156 1.387 . S
C3157 C3158 1.369 . S
C3157 H3166 0.929 . S
C3158 N3155 1.346 . S
C3158 C3157 1.369 . S
C3158 H3161 0.928 . S
C3159 N3155 1.345 . S
C3159 C3160 1.371 . S
C3159 H3162 0.931 . S
C3160 C3156 1.391 . S
C3160 C3159 1.371 . S
C3160 H3167 0.930 . S
H3161 C3158 0.928 . S
H3162 C3159 0.931 . S
H3163 C3139 0.930 . S
H3164 C3136 0.930 . S
H3165 C3145 0.930 . S
H3166 C3157 0.929 . S
H3167 C3160 0.930 . S
C3168 C3169 1.369 . S
C3168 C3170 1.419 1_565 S
C3168 H3172 0.930 . S
C3169 C3168 1.369 . S
C3169 C3178 1.429 . S
C3170 C3168 1.419 1_545 S
C3170 C3171 1.363 . S
C3170 H3173 0.929 . S
C3171 C3170 1.363 . S
C3171 C3177 1.428 . S
H3172 C3168 0.930 . S
H3173 C3170 0.929 . S
S3174 N3175 1.613 1_545 S
S3174 N3176 1.610 . S
N3175 S3174 1.613 1_565 S
N3175 C3178 1.350 . S
N3176 S3174 1.610 . S
N3176 C3177 1.351 . S
C3177 C3171 1.428 . S
C3177 N3176 1.351 . S
C3177 C3178 1.434 1_545 S
C3178 C3169 1.429 . S
C3178 N3175 1.350 . S
C3178 C3177 1.434 1_565 S
C3179 C3180 1.369 . S
C3179 C3181 1.419 1_655 S
C3179 H3183 0.930 . S
C3180 C3179 1.369 . S
C3180 C3189 1.429 . S
C3181 C3179 1.419 1_455 S
C3181 C3182 1.363 . S
C3181 H3184 0.929 . S
C3182 C3181 1.363 . S
C3182 C3188 1.428 . S
H3183 C3179 0.930 . S
H3184 C3181 0.929 . S
S3185 N3186 1.613 1_455 S
S3185 N3187 1.610 . S
N3186 S3185 1.613 1_655 S
N3186 C3189 1.350 . S
N3187 S3185 1.610 . S
N3187 C3188 1.351 . S
C3188 C3182 1.428 . S
C3188 N3187 1.351 . S
C3188 C3189 1.434 1_455 S
C3189 C3180 1.429 . S
C3189 N3186 1.350 . S
C3189 C3188 1.434 1_655 S
C3190 C3191 1.369 . S
C3190 C3192 1.419 . S
C3190 H3194 0.930 . S
C3191 C3190 1.369 . S
C3191 C3200 1.429 . S
C3192 C3190 1.419 . S
C3192 C3193 1.363 . S
C3192 H3195 0.929 . S
C3193 C3192 1.363 . S
C3193 C3199 1.428 . S
H3194 C3190 0.930 . S
H3195 C3192 0.929 . S
S3196 N3197 1.613 . S
S3196 N3198 1.610 . S
N3197 S3196 1.613 . S
N3197 C3200 1.350 . S
N3198 S3196 1.610 . S
N3198 C3199 1.351 . S
C3199 C3193 1.428 . S
C3199 N3198 1.351 . S
C3199 C3200 1.434 . S
C3200 C3191 1.429 . S
C3200 N3197 1.350 . S
C3200 C3199 1.434 . S
C3201 C3202 1.369 . S
C3201 C3203 1.419 . S
C3201 H3205 0.930 . S
C3202 C3201 1.369 . S
C3202 C3211 1.429 . S
C3203 C3201 1.419 . S
C3203 C3204 1.363 . S
C3203 H3206 0.929 . S
C3204 C3203 1.363 . S
C3204 C3210 1.428 . S
H3205 C3201 0.930 . S
H3206 C3203 0.929 . S
S3207 N3208 1.613 . S
S3207 N3209 1.610 . S
N3208 S3207 1.613 . S
N3208 C3211 1.350 . S
N3209 S3207 1.610 . S
N3209 C3210 1.351 . S
C3210 C3204 1.428 . S
C3210 N3209 1.351 . S
C3210 C3211 1.434 . S
C3211 C3202 1.429 . S
C3211 N3208 1.350 . S
C3211 C3210 1.434 . S
C3212 C3213 1.369 . S
C3212 C3214 1.419 . S
C3212 H3216 0.930 . S
C3213 C3212 1.369 . S
C3213 C3222 1.429 . S
C3214 C3212 1.419 . S
C3214 C3215 1.363 . S
C3214 H3217 0.929 . S
C3215 C3214 1.363 . S
C3215 C3221 1.428 . S
H3216 C3212 0.930 . S
H3217 C3214 0.929 . S
S3218 N3219 1.613 . S
S3218 N3220 1.610 . S
N3219 S3218 1.613 . S
N3219 C3222 1.350 . S
N3220 S3218 1.610 . S
N3220 C3221 1.351 . S
C3221 C3215 1.428 . S
C3221 N3220 1.351 . S
C3221 C3222 1.434 . S
C3222 C3213 1.429 . S
C3222 N3219 1.350 . S
C3222 C3221 1.434 . S
C3223 C3224 1.369 . S
C3223 C3225 1.419 . S
C3223 H3227 0.930 . S
C3224 C3223 1.369 . S
C3224 C3233 1.429 . S
C3225 C3223 1.419 . S
C3225 C3226 1.363 . S
C3225 H3228 0.929 . S
C3226 C3225 1.363 . S
C3226 C3232 1.428 . S
H3227 C3223 0.930 . S
H3228 C3225 0.929 . S
S3229 N3230 1.613 . S
S3229 N3231 1.610 . S
N3230 S3229 1.613 . S
N3230 C3233 1.350 . S
N3231 S3229 1.610 . S
N3231 C3232 1.351 . S
C3232 C3226 1.428 . S
C3232 N3231 1.351 . S
C3232 C3233 1.434 . S
C3233 C3224 1.429 . S
C3233 N3230 1.350 . S
C3233 C3232 1.434 . S
C3234 C3235 1.369 . S
C3234 C3236 1.419 1_565 S
C3234 H3238 0.930 . S
C3235 C3234 1.369 . S
C3235 C3244 1.429 . S
C3236 C3234 1.419 1_545 S
C3236 C3237 1.363 . S
C3236 H3239 0.929 . S
C3237 C3236 1.363 . S
C3237 C3243 1.428 . S
H3238 C3234 0.930 . S
H3239 C3236 0.929 . S
S3240 N3241 1.613 1_545 S
S3240 N3242 1.610 . S
N3241 S3240 1.613 1_565 S
N3241 C3244 1.350 . S
N3242 S3240 1.610 . S
N3242 C3243 1.351 . S
C3243 C3237 1.428 . S
C3243 N3242 1.351 . S
C3243 C3244 1.434 1_545 S
C3244 C3235 1.429 . S
C3244 N3241 1.350 . S
C3244 C3243 1.434 1_565 S
C3245 C3246 1.369 . S
C3245 C3247 1.419 1_655 S
C3245 H3249 0.930 . S
C3246 C3245 1.369 . S
C3246 C3255 1.429 . S
C3247 C3245 1.419 1_455 S
C3247 C3248 1.363 . S
C3247 H3250 0.929 . S
C3248 C3247 1.363 . S
C3248 C3254 1.428 . S
H3249 C3245 0.930 . S
H3250 C3247 0.929 . S
S3251 N3252 1.613 1_455 S
S3251 N3253 1.610 . S
N3252 S3251 1.613 1_655 S
N3252 C3255 1.350 . S
N3253 S3251 1.610 . S
N3253 C3254 1.351 . S
C3254 C3248 1.428 . S
C3254 N3253 1.351 . S
C3254 C3255 1.434 1_455 S
C3255 C3246 1.429 . S
C3255 N3252 1.350 . S
C3255 C3254 1.434 1_655 S
C3256 C3257 1.369 . S
C3256 C3258 1.419 1_554 S
C3256 H3260 0.930 . S
C3257 C3256 1.369 . S
C3257 C3266 1.429 . S
C3258 C3256 1.419 1_556 S
C3258 C3259 1.363 . S
C3258 H3261 0.929 . S
C3259 C3258 1.363 . S
C3259 C3265 1.428 . S
H3260 C3256 0.930 . S
H3261 C3258 0.929 . S
S3262 N3263 1.613 1_556 S
S3262 N3264 1.610 . S
N3263 S3262 1.613 1_554 S
N3263 C3266 1.350 . S
N3264 S3262 1.610 . S
N3264 C3265 1.351 . S
C3265 C3259 1.428 . S
C3265 N3264 1.351 . S
C3265 C3266 1.434 1_556 S
C3266 C3257 1.429 . S
C3266 N3263 1.350 . S
C3266 C3265 1.434 1_554 S
C3267 C3268 1.369 . S
C3267 C3269 1.419 . S
C3267 H3271 0.930 . S
C3268 C3267 1.369 . S
C3268 C3277 1.429 . S
C3269 C3267 1.419 . S
C3269 C3270 1.363 . S
C3269 H3272 0.929 . S
C3270 C3269 1.363 . S
C3270 C3276 1.428 . S
H3271 C3267 0.930 . S
H3272 C3269 0.929 . S
S3273 N3274 1.613 . S
S3273 N3275 1.610 . S
N3274 S3273 1.613 . S
N3274 C3277 1.350 . S
N3275 S3273 1.610 . S
N3275 C3276 1.351 . S
C3276 C3270 1.428 . S
C3276 N3275 1.351 . S
C3276 C3277 1.434 . S
C3277 C3268 1.429 . S
C3277 N3274 1.350 . S
C3277 C3276 1.434 . S
C3278 C3279 1.369 . S
C3278 C3280 1.419 . S
C3278 H3282 0.930 . S
C3279 C3278 1.369 . S
C3279 C3288 1.429 . S
C3280 C3278 1.419 . S
C3280 C3281 1.363 . S
C3280 H3283 0.929 . S
C3281 C3280 1.363 . S
C3281 C3287 1.428 . S
H3282 C3278 0.930 . S
H3283 C3280 0.929 . S
S3284 N3285 1.613 . S
S3284 N3286 1.610 . S
N3285 S3284 1.613 . S
N3285 C3288 1.350 . S
N3286 S3284 1.610 . S
N3286 C3287 1.351 . S
C3287 C3281 1.428 . S
C3287 N3286 1.351 . S
C3287 C3288 1.434 . S
C3288 C3279 1.429 . S
C3288 N3285 1.350 . S
C3288 C3287 1.434 . S
C3289 C3290 1.369 . S
C3289 C3291 1.419 . S
C3289 H3293 0.930 . S
C3290 C3289 1.369 . S
C3290 C3299 1.429 . S
C3291 C3289 1.419 . S
C3291 C3292 1.363 . S
C3291 H3294 0.929 . S
C3292 C3291 1.363 . S
C3292 C3298 1.428 . S
H3293 C3289 0.930 . S
H3294 C3291 0.929 . S
S3295 N3296 1.613 . S
S3295 N3297 1.610 . S
N3296 S3295 1.613 . S
N3296 C3299 1.350 . S
N3297 S3295 1.610 . S
N3297 C3298 1.351 . S
C3298 C3292 1.428 . S
C3298 N3297 1.351 . S
C3298 C3299 1.434 . S
C3299 C3290 1.429 . S
C3299 N3296 1.350 . S
C3299 C3298 1.434 . S
C3300 C3301 1.369 . S
C3300 C3302 1.419 . S
C3300 H3304 0.930 . S
C3301 C3300 1.369 . S
C3301 C3310 1.429 . S
C3302 C3300 1.419 . S
C3302 C3303 1.363 . S
C3302 H3305 0.929 . S
C3303 C3302 1.363 . S
C3303 C3309 1.428 . S
H3304 C3300 0.930 . S
H3305 C3302 0.929 . S
S3306 N3307 1.613 . S
S3306 N3308 1.610 . S
N3307 S3306 1.613 . S
N3307 C3310 1.350 . S
N3308 S3306 1.610 . S
N3308 C3309 1.351 . S
C3309 C3303 1.428 . S
C3309 N3308 1.351 . S
C3309 C3310 1.434 . S
C3310 C3301 1.429 . S
C3310 N3307 1.350 . S
C3310 C3309 1.434 . S
C3311 C3312 1.369 . S
C3311 C3313 1.419 . S
C3311 H3315 0.930 . S
C3312 C3311 1.369 . S
C3312 C3321 1.429 . S
C3313 C3311 1.419 . S
C3313 C3314 1.363 . S
C3313 H3316 0.929 . S
C3314 C3313 1.363 . S
C3314 C3320 1.428 . S
H3315 C3311 0.930 . S
H3316 C3313 0.929 . S
S3317 N3318 1.613 . S
S3317 N3319 1.610 . S
N3318 S3317 1.613 . S
N3318 C3321 1.350 . S
N3319 S3317 1.610 . S
N3319 C3320 1.351 . S
C3320 C3314 1.428 . S
C3320 N3319 1.351 . S
C3320 C3321 1.434 . S
C3321 C3312 1.429 . S
C3321 N3318 1.350 . S
C3321 C3320 1.434 . S
C3322 C3323 1.369 . S
C3322 C3324 1.419 . S
C3322 H3326 0.930 . S
C3323 C3322 1.369 . S
C3323 C3332 1.429 . S
C3324 C3322 1.419 . S
C3324 C3325 1.363 . S
C3324 H3327 0.929 . S
C3325 C3324 1.363 . S
C3325 C3331 1.428 . S
H3326 C3322 0.930 . S
H3327 C3324 0.929 . S
S3328 N3329 1.613 . S
S3328 N3330 1.610 . S
N3329 S3328 1.613 . S
N3329 C3332 1.350 . S
N3330 S3328 1.610 . S
N3330 C3331 1.351 . S
C3331 C3325 1.428 . S
C3331 N3330 1.351 . S
C3331 C3332 1.434 . S
C3332 C3323 1.429 . S
C3332 N3329 1.350 . S
C3332 C3331 1.434 . S
C3333 C3334 1.369 . S
C3333 C3335 1.419 1_554 S
C3333 H3337 0.930 . S
C3334 C3333 1.369 . S
C3334 C3343 1.429 . S
C3335 C3333 1.419 1_556 S
C3335 C3336 1.363 . S
C3335 H3338 0.929 . S
C3336 C3335 1.363 . S
C3336 C3342 1.428 . S
H3337 C3333 0.930 . S
H3338 C3335 0.929 . S
S3339 N3340 1.613 . S
S3339 N3341 1.610 1_554 S
N3340 S3339 1.613 . S
N3340 C3343 1.350 . S
N3341 S3339 1.610 1_556 S
N3341 C3342 1.351 . S
C3342 C3336 1.428 . S
C3342 N3341 1.351 . S
C3342 C3343 1.434 1_556 S
C3343 C3334 1.429 . S
C3343 N3340 1.350 . S
C3343 C3342 1.434 1_554 S
C3344 C3345 1.369 . S
C3344 C3346 1.419 1_455 S
C3344 H3348 0.930 . S
C3345 C3344 1.369 . S
C3345 C3354 1.429 . S
C3346 C3344 1.419 1_655 S
C3346 C3347 1.363 . S
C3346 H3349 0.929 . S
C3347 C3346 1.363 . S
C3347 C3353 1.428 . S
H3348 C3344 0.930 . S
H3349 C3346 0.929 . S
S3350 N3351 1.613 . S
S3350 N3352 1.610 1_455 S
N3351 S3350 1.613 . S
N3351 C3354 1.350 . S
N3352 S3350 1.610 1_655 S
N3352 C3353 1.351 . S
C3353 C3347 1.428 . S
C3353 N3352 1.351 . S
C3353 C3354 1.434 1_655 S
C3354 C3345 1.429 . S
C3354 N3351 1.350 . S
C3354 C3353 1.434 1_455 S
C3355 C3356 1.369 . S
C3355 C3357 1.419 . S
C3355 H3359 0.930 . S
C3356 C3355 1.369 . S
C3356 C3365 1.429 . S
C3357 C3355 1.419 . S
C3357 C3358 1.363 . S
C3357 H3360 0.929 . S
C3358 C3357 1.363 . S
C3358 C3364 1.428 . S
H3359 C3355 0.930 . S
H3360 C3357 0.929 . S
S3361 N3362 1.613 . S
S3361 N3363 1.610 . S
N3362 S3361 1.613 . S
N3362 C3365 1.350 . S
N3363 S3361 1.610 . S
N3363 C3364 1.351 . S
C3364 C3358 1.428 . S
C3364 N3363 1.351 . S
C3364 C3365 1.434 . S
C3365 C3356 1.429 . S
C3365 N3362 1.350 . S
C3365 C3364 1.434 . S
C3366 C3367 1.369 . S
C3366 C3368 1.419 . S
C3366 H3370 0.930 . S
C3367 C3366 1.369 . S
C3367 C3376 1.429 . S
C3368 C3366 1.419 . S
C3368 C3369 1.363 . S
C3368 H3371 0.929 . S
C3369 C3368 1.363 . S
C3369 C3375 1.428 . S
H3370 C3366 0.930 . S
H3371 C3368 0.929 . S
S3372 N3373 1.613 . S
S3372 N3374 1.610 . S
N3373 S3372 1.613 . S
N3373 C3376 1.350 . S
N3374 S3372 1.610 . S
N3374 C3375 1.351 . S
C3375 C3369 1.428 . S
C3375 N3374 1.351 . S
C3375 C3376 1.434 . S
C3376 C3367 1.429 . S
C3376 N3373 1.350 . S
C3376 C3375 1.434 . S
C3377 C3378 1.369 . S
C3377 C3379 1.419 . S
C3377 H3381 0.930 . S
C3378 C3377 1.369 . S
C3378 C3387 1.429 . S
C3379 C3377 1.419 . S
C3379 C3380 1.363 . S
C3379 H3382 0.929 . S
C3380 C3379 1.363 . S
C3380 C3386 1.428 . S
H3381 C3377 0.930 . S
H3382 C3379 0.929 . S
S3383 N3384 1.613 . S
S3383 N3385 1.610 . S
N3384 S3383 1.613 . S
N3384 C3387 1.350 . S
N3385 S3383 1.610 . S
N3385 C3386 1.351 . S
C3386 C3380 1.428 . S
C3386 N3385 1.351 . S
C3386 C3387 1.434 . S
C3387 C3378 1.429 . S
C3387 N3384 1.350 . S
C3387 C3386 1.434 . S
C3388 C3389 1.369 . S
C3388 C3390 1.419 . S
C3388 H3392 0.930 . S
C3389 C3388 1.369 . S
C3389 C3398 1.429 . S
C3390 C3388 1.419 . S
C3390 C3391 1.363 . S
C3390 H3393 0.929 . S
C3391 C3390 1.363 . S
C3391 C3397 1.428 . S
H3392 C3388 0.930 . S
H3393 C3390 0.929 . S
S3394 N3395 1.613 . S
S3394 N3396 1.610 . S
N3395 S3394 1.613 . S
N3395 C3398 1.350 . S
N3396 S3394 1.610 . S
N3396 C3397 1.351 . S
C3397 C3391 1.428 . S
C3397 N3396 1.351 . S
C3397 C3398 1.434 . S
C3398 C3389 1.429 . S
C3398 N3395 1.350 . S
C3398 C3397 1.434 . S
C3399 C3400 1.369 . S
C3399 C3401 1.419 . S
C3399 H3403 0.930 . S
C3400 C3399 1.369 . S
C3400 C3409 1.429 . S
C3401 C3399 1.419 . S
C3401 C3402 1.363 . S
C3401 H3404 0.929 . S
C3402 C3401 1.363 . S
C3402 C3408 1.428 . S
H3403 C3399 0.930 . S
H3404 C3401 0.929 . S
S3405 N3406 1.613 . S
S3405 N3407 1.610 . S
N3406 S3405 1.613 . S
N3406 C3409 1.350 . S
N3407 S3405 1.610 . S
N3407 C3408 1.351 . S
C3408 C3402 1.428 . S
C3408 N3407 1.351 . S
C3408 C3409 1.434 . S
C3409 C3400 1.429 . S
C3409 N3406 1.350 . S
C3409 C3408 1.434 . S
C3410 C3411 1.369 . S
C3410 C3412 1.419 1_545 S
C3410 H3414 0.930 . S
C3411 C3410 1.369 . S
C3411 C3420 1.429 . S
C3412 C3410 1.419 1_565 S
C3412 C3413 1.363 . S
C3412 H3415 0.929 . S
C3413 C3412 1.363 . S
C3413 C3419 1.428 . S
H3414 C3410 0.930 . S
H3415 C3412 0.929 . S
S3416 N3417 1.613 . S
S3416 N3418 1.610 1_545 S
N3417 S3416 1.613 . S
N3417 C3420 1.350 . S
N3418 S3416 1.610 1_565 S
N3418 C3419 1.351 . S
C3419 C3413 1.428 . S
C3419 N3418 1.351 . S
C3419 C3420 1.434 1_565 S
C3420 C3411 1.429 . S
C3420 N3417 1.350 . S
C3420 C3419 1.434 1_545 S
C3421 C3422 1.369 . S
C3421 C3423 1.419 1_655 S
C3421 H3425 0.930 . S
C3422 C3421 1.369 . S
C3422 C3431 1.429 . S
C3423 C3421 1.419 1_455 S
C3423 C3424 1.363 . S
C3423 H3426 0.929 . S
C3424 C3423 1.363 . S
C3424 C3430 1.428 . S
H3425 C3421 0.930 . S
H3426 C3423 0.929 . S
S3427 N3428 1.613 1_455 S
S3427 N3429 1.610 . S
N3428 S3427 1.613 1_655 S
N3428 C3431 1.350 . S
N3429 S3427 1.610 . S
N3429 C3430 1.351 . S
C3430 C3424 1.428 . S
C3430 N3429 1.351 . S
C3430 C3431 1.434 1_455 S
C3431 C3422 1.429 . S
C3431 N3428 1.350 . S
C3431 C3430 1.434 1_655 S
C3432 C3433 1.369 . S
C3432 C3434 1.419 . S
C3432 H3436 0.930 . S
C3433 C3432 1.369 . S
C3433 C3442 1.429 . S
C3434 C3432 1.419 . S
C3434 C3435 1.363 . S
C3434 H3437 0.929 . S
C3435 C3434 1.363 . S
C3435 C3441 1.428 . S
H3436 C3432 0.930 . S
H3437 C3434 0.929 . S
S3438 N3439 1.613 . S
S3438 N3440 1.610 . S
N3439 S3438 1.613 . S
N3439 C3442 1.350 . S
N3440 S3438 1.610 . S
N3440 C3441 1.351 . S
C3441 C3435 1.428 . S
C3441 N3440 1.351 . S
C3441 C3442 1.434 . S
C3442 C3433 1.429 . S
C3442 N3439 1.350 . S
C3442 C3441 1.434 . S
C3443 C3444 1.369 . S
C3443 C3445 1.419 . S
C3443 H3447 0.930 . S
C3444 C3443 1.369 . S
C3444 C3453 1.429 . S
C3445 C3443 1.419 . S
C3445 C3446 1.363 . S
C3445 H3448 0.929 . S
C3446 C3445 1.363 . S
C3446 C3452 1.428 . S
H3447 C3443 0.930 . S
H3448 C3445 0.929 . S
S3449 N3450 1.613 . S
S3449 N3451 1.610 . S
N3450 S3449 1.613 . S
N3450 C3453 1.350 . S
N3451 S3449 1.610 . S
N3451 C3452 1.351 . S
C3452 C3446 1.428 . S
C3452 N3451 1.351 . S
C3452 C3453 1.434 . S
C3453 C3444 1.429 . S
C3453 N3450 1.350 . S
C3453 C3452 1.434 . S
C3454 C3455 1.369 . S
C3454 C3456 1.419 . S
C3454 H3458 0.930 . S
C3455 C3454 1.369 . S
C3455 C3464 1.429 . S
C3456 C3454 1.419 . S
C3456 C3457 1.363 . S
C3456 H3459 0.929 . S
C3457 C3456 1.363 . S
C3457 C3463 1.428 . S
H3458 C3454 0.930 . S
H3459 C3456 0.929 . S
S3460 N3461 1.613 . S
S3460 N3462 1.610 . S
N3461 S3460 1.613 . S
N3461 C3464 1.350 . S
N3462 S3460 1.610 . S
N3462 C3463 1.351 . S
C3463 C3457 1.428 . S
C3463 N3462 1.351 . S
C3463 C3464 1.434 . S
C3464 C3455 1.429 . S
C3464 N3461 1.350 . S
C3464 C3463 1.434 . S
C3465 C3466 1.369 . S
C3465 C3467 1.419 . S
C3465 H3469 0.930 . S
C3466 C3465 1.369 . S
C3466 C3475 1.429 . S
C3467 C3465 1.419 . S
C3467 C3468 1.363 . S
C3467 H3470 0.929 . S
C3468 C3467 1.363 . S
C3468 C3474 1.428 . S
H3469 C3465 0.930 . S
H3470 C3467 0.929 . S
S3471 N3472 1.613 . S
S3471 N3473 1.610 . S
N3472 S3471 1.613 . S
N3472 C3475 1.350 . S
N3473 S3471 1.610 . S
N3473 C3474 1.351 . S
C3474 C3468 1.428 . S
C3474 N3473 1.351 . S
C3474 C3475 1.434 . S
C3475 C3466 1.429 . S
C3475 N3472 1.350 . S
C3475 C3474 1.434 . S
C3476 C3477 1.369 . S
C3476 C3478 1.419 1_565 S
C3476 H3480 0.930 . S
C3477 C3476 1.369 . S
C3477 C3486 1.429 . S
C3478 C3476 1.419 1_545 S
C3478 C3479 1.363 . S
C3478 H3481 0.929 . S
C3479 C3478 1.363 . S
C3479 C3485 1.428 . S
H3480 C3476 0.930 . S
H3481 C3478 0.929 . S
S3482 N3483 1.613 1_545 S
S3482 N3484 1.610 . S
N3483 S3482 1.613 1_565 S
N3483 C3486 1.350 . S
N3484 S3482 1.610 . S
N3484 C3485 1.351 . S
C3485 C3479 1.428 . S
C3485 N3484 1.351 . S
C3485 C3486 1.434 1_545 S
C3486 C3477 1.429 . S
C3486 N3483 1.350 . S
C3486 C3485 1.434 1_565 S
C3487 C3488 1.369 . S
C3487 C3489 1.419 1_655 S
C3487 H3491 0.930 . S
C3488 C3487 1.369 . S
C3488 C3497 1.429 . S
C3489 C3487 1.419 1_455 S
C3489 C3490 1.363 . S
C3489 H3492 0.929 . S
C3490 C3489 1.363 . S
C3490 C3496 1.428 . S
H3491 C3487 0.930 . S
H3492 C3489 0.929 . S
S3493 N3494 1.613 1_455 S
S3493 N3495 1.610 . S
N3494 S3493 1.613 1_655 S
N3494 C3497 1.350 . S
N3495 S3493 1.610 . S
N3495 C3496 1.351 . S
C3496 C3490 1.428 . S
C3496 N3495 1.351 . S
C3496 C3497 1.434 1_455 S
C3497 C3488 1.429 . S
C3497 N3494 1.350 . S
C3497 C3496 1.434 1_655 S
C3498 C3499 1.369 . S
C3498 C3500 1.419 1_554 S
C3498 H3502 0.930 . S
C3499 C3498 1.369 . S
C3499 C3508 1.429 . S
C3500 C3498 1.419 1_556 S
C3500 C3501 1.363 . S
C3500 H3503 0.929 . S
C3501 C3500 1.363 . S
C3501 C3507 1.428 . S
H3502 C3498 0.930 . S
H3503 C3500 0.929 . S
S3504 N3505 1.613 . S
S3504 N3506 1.610 1_554 S
N3505 S3504 1.613 . S
N3505 C3508 1.350 . S
N3506 S3504 1.610 1_556 S
N3506 C3507 1.351 . S
C3507 C3501 1.428 . S
C3507 N3506 1.351 . S
C3507 C3508 1.434 1_556 S
C3508 C3499 1.429 . S
C3508 N3505 1.350 . S
C3508 C3507 1.434 1_554 S
C3509 C3510 1.369 . S
C3509 C3511 1.419 . S
C3509 H3513 0.930 . S
C3510 C3509 1.369 . S
C3510 C3519 1.429 . S
C3511 C3509 1.419 . S
C3511 C3512 1.363 . S
C3511 H3514 0.929 . S
C3512 C3511 1.363 . S
C3512 C3518 1.428 . S
H3513 C3509 0.930 . S
H3514 C3511 0.929 . S
S3515 N3516 1.613 . S
S3515 N3517 1.610 . S
N3516 S3515 1.613 . S
N3516 C3519 1.350 . S
N3517 S3515 1.610 . S
N3517 C3518 1.351 . S
C3518 C3512 1.428 . S
C3518 N3517 1.351 . S
C3518 C3519 1.434 . S
C3519 C3510 1.429 . S
C3519 N3516 1.350 . S
C3519 C3518 1.434 . S
C3520 C3521 1.369 . S
C3520 C3522 1.419 . S
C3520 H3524 0.930 . S
C3521 C3520 1.369 . S
C3521 C3530 1.429 . S
C3522 C3520 1.419 . S
C3522 C3523 1.363 . S
C3522 H3525 0.929 . S
C3523 C3522 1.363 . S
C3523 C3529 1.428 . S
H3524 C3520 0.930 . S
H3525 C3522 0.929 . S
S3526 N3527 1.613 . S
S3526 N3528 1.610 . S
N3527 S3526 1.613 . S
N3527 C3530 1.350 . S
N3528 S3526 1.610 . S
N3528 C3529 1.351 . S
C3529 C3523 1.428 . S
C3529 N3528 1.351 . S
C3529 C3530 1.434 . S
C3530 C3521 1.429 . S
C3530 N3527 1.350 . S
C3530 C3529 1.434 . S
C3531 C3532 1.369 . S
C3531 C3533 1.419 . S
C3531 H3535 0.930 . S
C3532 C3531 1.369 . S
C3532 C3541 1.429 . S
C3533 C3531 1.419 . S
C3533 C3534 1.363 . S
C3533 H3536 0.929 . S
C3534 C3533 1.363 . S
C3534 C3540 1.428 . S
H3535 C3531 0.930 . S
H3536 C3533 0.929 . S
S3537 N3538 1.613 . S
S3537 N3539 1.610 . S
N3538 S3537 1.613 . S
N3538 C3541 1.350 . S
N3539 S3537 1.610 . S
N3539 C3540 1.351 . S
C3540 C3534 1.428 . S
C3540 N3539 1.351 . S
C3540 C3541 1.434 . S
C3541 C3532 1.429 . S
C3541 N3538 1.350 . S
C3541 C3540 1.434 . S
C3542 C3543 1.369 . S
C3542 C3544 1.419 . S
C3542 H3546 0.930 . S
C3543 C3542 1.369 . S
C3543 C3552 1.429 . S
C3544 C3542 1.419 . S
C3544 C3545 1.363 . S
C3544 H3547 0.929 . S
C3545 C3544 1.363 . S
C3545 C3551 1.428 . S
H3546 C3542 0.930 . S
H3547 C3544 0.929 . S
S3548 N3549 1.613 . S
S3548 N3550 1.610 . S
N3549 S3548 1.613 . S
N3549 C3552 1.350 . S
N3550 S3548 1.610 . S
N3550 C3551 1.351 . S
C3551 C3545 1.428 . S
C3551 N3550 1.351 . S
C3551 C3552 1.434 . S
C3552 C3543 1.429 . S
C3552 N3549 1.350 . S
C3552 C3551 1.434 . S
C3553 C3554 1.369 . S
C3553 C3555 1.419 . S
C3553 H3557 0.930 . S
C3554 C3553 1.369 . S
C3554 C3563 1.429 . S
C3555 C3553 1.419 . S
C3555 C3556 1.363 . S
C3555 H3558 0.929 . S
C3556 C3555 1.363 . S
C3556 C3562 1.428 . S
H3557 C3553 0.930 . S
H3558 C3555 0.929 . S
S3559 N3560 1.613 . S
S3559 N3561 1.610 . S
N3560 S3559 1.613 . S
N3560 C3563 1.350 . S
N3561 S3559 1.610 . S
N3561 C3562 1.351 . S
C3562 C3556 1.428 . S
C3562 N3561 1.351 . S
C3562 C3563 1.434 . S
C3563 C3554 1.429 . S
C3563 N3560 1.350 . S
C3563 C3562 1.434 . S
C3564 C3565 1.369 . S
C3564 C3566 1.419 . S
C3564 H3568 0.930 . S
C3565 C3564 1.369 . S
C3565 C3574 1.429 . S
C3566 C3564 1.419 . S
C3566 C3567 1.363 . S
C3566 H3569 0.929 . S
C3567 C3566 1.363 . S
C3567 C3573 1.428 . S
H3568 C3564 0.930 . S
H3569 C3566 0.929 . S
S3570 N3571 1.613 . S
S3570 N3572 1.610 . S
N3571 S3570 1.613 . S
N3571 C3574 1.350 . S
N3572 S3570 1.610 . S
N3572 C3573 1.351 . S
C3573 C3567 1.428 . S
C3573 N3572 1.351 . S
C3573 C3574 1.434 . S
C3574 C3565 1.429 . S
C3574 N3571 1.350 . S
C3574 C3573 1.434 . S
C3575 C3576 1.369 . S
C3575 C3577 1.419 1_556 S
C3575 H3579 0.930 . S
C3576 C3575 1.369 . S
C3576 C3585 1.429 . S
C3577 C3575 1.419 1_554 S
C3577 C3578 1.363 . S
C3577 H3580 0.929 . S
C3578 C3577 1.363 . S
C3578 C3584 1.428 . S
H3579 C3575 0.930 . S
H3580 C3577 0.929 . S
S3581 N3582 1.613 . S
S3581 N3583 1.610 1_556 S
N3582 S3581 1.613 . S
N3582 C3585 1.350 . S
N3583 S3581 1.610 1_554 S
N3583 C3584 1.351 . S
C3584 C3578 1.428 . S
C3584 N3583 1.351 . S
C3584 C3585 1.434 1_554 S
C3585 C3576 1.429 . S
C3585 N3582 1.350 . S
C3585 C3584 1.434 1_556 S
C3586 C3587 1.369 . S
C3586 C3588 1.419 1_655 S
C3586 H3590 0.930 . S
C3587 C3586 1.369 . S
C3587 C3596 1.429 . S
C3588 C3586 1.419 1_455 S
C3588 C3589 1.363 . S
C3588 H3591 0.929 . S
C3589 C3588 1.363 . S
C3589 C3595 1.428 . S
H3590 C3586 0.930 . S
H3591 C3588 0.929 . S
S3592 N3593 1.613 1_455 S
S3592 N3594 1.610 . S
N3593 S3592 1.613 1_655 S
N3593 C3596 1.350 . S
N3594 S3592 1.610 . S
N3594 C3595 1.351 . S
C3595 C3589 1.428 . S
C3595 N3594 1.351 . S
C3595 C3596 1.434 1_455 S
C3596 C3587 1.429 . S
C3596 N3593 1.350 . S
C3596 C3595 1.434 1_655 S
C3597 C3598 1.369 . S
C3597 C3599 1.419 . S
C3597 H3601 0.930 . S
C3598 C3597 1.369 . S
C3598 C3607 1.429 . S
C3599 C3597 1.419 . S
C3599 C3600 1.363 . S
C3599 H3602 0.929 . S
C3600 C3599 1.363 . S
C3600 C3606 1.428 . S
H3601 C3597 0.930 . S
H3602 C3599 0.929 . S
S3603 N3604 1.613 . S
S3603 N3605 1.610 . S
N3604 S3603 1.613 . S
N3604 C3607 1.350 . S
N3605 S3603 1.610 . S
N3605 C3606 1.351 . S
C3606 C3600 1.428 . S
C3606 N3605 1.351 . S
C3606 C3607 1.434 . S
C3607 C3598 1.429 . S
C3607 N3604 1.350 . S
C3607 C3606 1.434 . S
C3608 C3609 1.369 . S
C3608 C3610 1.419 . S
C3608 H3612 0.930 . S
C3609 C3608 1.369 . S
C3609 C3618 1.429 . S
C3610 C3608 1.419 . S
C3610 C3611 1.363 . S
C3610 H3613 0.929 . S
C3611 C3610 1.363 . S
C3611 C3617 1.428 . S
H3612 C3608 0.930 . S
H3613 C3610 0.929 . S
S3614 N3615 1.613 . S
S3614 N3616 1.610 . S
N3615 S3614 1.613 . S
N3615 C3618 1.350 . S
N3616 S3614 1.610 . S
N3616 C3617 1.351 . S
C3617 C3611 1.428 . S
C3617 N3616 1.351 . S
C3617 C3618 1.434 . S
C3618 C3609 1.429 . S
C3618 N3615 1.350 . S
C3618 C3617 1.434 . S
C3619 C3620 1.369 . S
C3619 C3621 1.419 . S
C3619 H3623 0.930 . S
C3620 C3619 1.369 . S
C3620 C3629 1.429 . S
C3621 C3619 1.419 . S
C3621 C3622 1.363 . S
C3621 H3624 0.929 . S
C3622 C3621 1.363 . S
C3622 C3628 1.428 . S
H3623 C3619 0.930 . S
H3624 C3621 0.929 . S
S3625 N3626 1.613 . S
S3625 N3627 1.610 . S
N3626 S3625 1.613 . S
N3626 C3629 1.350 . S
N3627 S3625 1.610 . S
N3627 C3628 1.351 . S
C3628 C3622 1.428 . S
C3628 N3627 1.351 . S
C3628 C3629 1.434 . S
C3629 C3620 1.429 . S
C3629 N3626 1.350 . S
C3629 C3628 1.434 . S
C3630 C3631 1.369 . S
C3630 C3632 1.419 . S
C3630 H3634 0.930 . S
C3631 C3630 1.369 . S
C3631 C3640 1.429 . S
C3632 C3630 1.419 . S
C3632 C3633 1.363 . S
C3632 H3635 0.929 . S
C3633 C3632 1.363 . S
C3633 C3639 1.428 . S
H3634 C3630 0.930 . S
H3635 C3632 0.929 . S
S3636 N3637 1.613 . S
S3636 N3638 1.610 . S
N3637 S3636 1.613 . S
N3637 C3640 1.350 . S
N3638 S3636 1.610 . S
N3638 C3639 1.351 . S
C3639 C3633 1.428 . S
C3639 N3638 1.351 . S
C3639 C3640 1.434 . S
C3640 C3631 1.429 . S
C3640 N3637 1.350 . S
C3640 C3639 1.434 . S
C3641 C3642 1.369 . S
C3641 C3643 1.419 . S
C3641 H3645 0.930 . S
C3642 C3641 1.369 . S
C3642 C3651 1.429 . S
C3643 C3641 1.419 . S
C3643 C3644 1.363 . S
C3643 H3646 0.929 . S
C3644 C3643 1.363 . S
C3644 C3650 1.428 . S
H3645 C3641 0.930 . S
H3646 C3643 0.929 . S
S3647 N3648 1.613 . S
S3647 N3649 1.610 . S
N3648 S3647 1.613 . S
N3648 C3651 1.350 . S
N3649 S3647 1.610 . S
N3649 C3650 1.351 . S
C3650 C3644 1.428 . S
C3650 N3649 1.351 . S
C3650 C3651 1.434 . S
C3651 C3642 1.429 . S
C3651 N3648 1.350 . S
C3651 C3650 1.434 . S
C3652 C3653 1.369 . S
C3652 C3654 1.419 . S
C3652 H3656 0.930 . S
C3653 C3652 1.369 . S
C3653 C3662 1.429 . S
C3654 C3652 1.419 . S
C3654 C3655 1.363 . S
C3654 H3657 0.929 . S
C3655 C3654 1.363 . S
C3655 C3661 1.428 . S
H3656 C3652 0.930 . S
H3657 C3654 0.929 . S
S3658 N3659 1.613 . S
S3658 N3660 1.610 . S
N3659 S3658 1.613 . S
N3659 C3662 1.350 . S
N3660 S3658 1.610 . S
N3660 C3661 1.351 . S
C3661 C3655 1.428 . S
C3661 N3660 1.351 . S
C3661 C3662 1.434 . S
C3662 C3653 1.429 . S
C3662 N3659 1.350 . S
C3662 C3661 1.434 . S
C3663 C3664 1.369 . S
C3663 C3665 1.419 1_655 S
C3663 H3667 0.930 . S
C3664 C3663 1.369 . S
C3664 C3673 1.429 . S
C3665 C3663 1.419 1_455 S
C3665 C3666 1.363 . S
C3665 H3668 0.929 . S
C3666 C3665 1.363 . S
C3666 C3672 1.428 . S
H3667 C3663 0.930 . S
H3668 C3665 0.929 . S
S3669 N3670 1.613 . S
S3669 N3671 1.610 1_655 S
N3670 S3669 1.613 . S
N3670 C3673 1.350 . S
N3671 S3669 1.610 1_455 S
N3671 C3672 1.351 . S
C3672 C3666 1.428 . S
C3672 N3671 1.351 . S
C3672 C3673 1.434 1_455 S
C3673 C3664 1.429 . S
C3673 N3670 1.350 . S
C3673 C3672 1.434 1_655 S
C3674 C3675 1.369 . S
C3674 C3676 1.419 . S
C3674 H3678 0.930 . S
C3675 C3674 1.369 . S
C3675 C3684 1.429 . S
C3676 C3674 1.419 . S
C3676 C3677 1.363 . S
C3676 H3679 0.929 . S
C3677 C3676 1.363 . S
C3677 C3683 1.428 . S
H3678 C3674 0.930 . S
H3679 C3676 0.929 . S
S3680 N3681 1.613 . S
S3680 N3682 1.610 . S
N3681 S3680 1.613 . S
N3681 C3684 1.350 . S
N3682 S3680 1.610 . S
N3682 C3683 1.351 . S
C3683 C3677 1.428 . S
C3683 N3682 1.351 . S
C3683 C3684 1.434 . S
C3684 C3675 1.429 . S
C3684 N3681 1.350 . S
C3684 C3683 1.434 . S
C3685 C3686 1.369 . S
C3685 C3687 1.419 . S
C3685 H3689 0.930 . S
C3686 C3685 1.369 . S
C3686 C3695 1.429 . S
C3687 C3685 1.419 . S
C3687 C3688 1.363 . S
C3687 H3690 0.929 . S
C3688 C3687 1.363 . S
C3688 C3694 1.428 . S
H3689 C3685 0.930 . S
H3690 C3687 0.929 . S
S3691 N3692 1.613 . S
S3691 N3693 1.610 . S
N3692 S3691 1.613 . S
N3692 C3695 1.350 . S
N3693 S3691 1.610 . S
N3693 C3694 1.351 . S
C3694 C3688 1.428 . S
C3694 N3693 1.351 . S
C3694 C3695 1.434 . S
C3695 C3686 1.429 . S
C3695 N3692 1.350 . S
C3695 C3694 1.434 . S
C3696 C3697 1.369 . S
C3696 C3698 1.419 . S
C3696 H3700 0.930 . S
C3697 C3696 1.369 . S
C3697 C3706 1.429 . S
C3698 C3696 1.419 . S
C3698 C3699 1.363 . S
C3698 H3701 0.929 . S
C3699 C3698 1.363 . S
C3699 C3705 1.428 . S
H3700 C3696 0.930 . S
H3701 C3698 0.929 . S
S3702 N3703 1.613 . S
S3702 N3704 1.610 . S
N3703 S3702 1.613 . S
N3703 C3706 1.350 . S
N3704 S3702 1.610 . S
N3704 C3705 1.351 . S
C3705 C3699 1.428 . S
C3705 N3704 1.351 . S
C3705 C3706 1.434 . S
C3706 C3697 1.429 . S
C3706 N3703 1.350 . S
C3706 C3705 1.434 . S
C3707 C3708 1.369 . S
C3707 C3709 1.419 . S
C3707 H3711 0.930 . S
C3708 C3707 1.369 . S
C3708 C3717 1.429 . S
C3709 C3707 1.419 . S
C3709 C3710 1.363 . S
C3709 H3712 0.929 . S
C3710 C3709 1.363 . S
C3710 C3716 1.428 . S
H3711 C3707 0.930 . S
H3712 C3709 0.929 . S
S3713 N3714 1.613 . S
S3713 N3715 1.610 . S
N3714 S3713 1.613 . S
N3714 C3717 1.350 . S
N3715 S3713 1.610 . S
N3715 C3716 1.351 . S
C3716 C3710 1.428 . S
C3716 N3715 1.351 . S
C3716 C3717 1.434 . S
C3717 C3708 1.429 . S
C3717 N3714 1.350 . S
C3717 C3716 1.434 . S
C3718 C3719 1.369 . S
C3718 C3720 1.419 . S
C3718 H3722 0.930 . S
C3719 C3718 1.369 . S
C3719 C3728 1.429 . S
C3720 C3718 1.419 . S
C3720 C3721 1.363 . S
C3720 H3723 0.929 . S
C3721 C3720 1.363 . S
C3721 C3727 1.428 . S
H3722 C3718 0.930 . S
H3723 C3720 0.929 . S
S3724 N3725 1.613 . S
S3724 N3726 1.610 . S
N3725 S3724 1.613 . S
N3725 C3728 1.350 . S
N3726 S3724 1.610 . S
N3726 C3727 1.351 . S
C3727 C3721 1.428 . S
C3727 N3726 1.351 . S
C3727 C3728 1.434 . S
C3728 C3719 1.429 . S
C3728 N3725 1.350 . S
C3728 C3727 1.434 . S
C3729 C3730 1.369 . S
C3729 C3731 1.419 . S
C3729 H3733 0.930 . S
C3730 C3729 1.369 . S
C3730 C3739 1.429 . S
C3731 C3729 1.419 . S
C3731 C3732 1.363 . S
C3731 H3734 0.929 . S
C3732 C3731 1.363 . S
C3732 C3738 1.428 . S
H3733 C3729 0.930 . S
H3734 C3731 0.929 . S
S3735 N3736 1.613 . S
S3735 N3737 1.610 . S
N3736 S3735 1.613 . S
N3736 C3739 1.350 . S
N3737 S3735 1.610 . S
N3737 C3738 1.351 . S
C3738 C3732 1.428 . S
C3738 N3737 1.351 . S
C3738 C3739 1.434 . S
C3739 C3730 1.429 . S
C3739 N3736 1.350 . S
C3739 C3738 1.434 . S
C3740 C3741 1.369 . S
C3740 C3742 1.419 1_556 S
C3740 H3744 0.930 . S
C3741 C3740 1.369 . S
C3741 C3750 1.429 . S
C3742 C3740 1.419 1_554 S
C3742 C3743 1.363 . S
C3742 H3745 0.929 . S
C3743 C3742 1.363 . S
C3743 C3749 1.428 . S
H3744 C3740 0.930 . S
H3745 C3742 0.929 . S
S3746 N3747 1.613 . S
S3746 N3748 1.610 1_556 S
N3747 S3746 1.613 . S
N3747 C3750 1.350 . S
N3748 S3746 1.610 1_554 S
N3748 C3749 1.351 . S
C3749 C3743 1.428 . S
C3749 N3748 1.351 . S
C3749 C3750 1.434 1_554 S
C3750 C3741 1.429 . S
C3750 N3747 1.350 . S
C3750 C3749 1.434 1_556 S
C3751 C3752 1.369 . S
C3751 C3753 1.419 . S
C3751 H3755 0.930 . S
C3752 C3751 1.369 . S
C3752 C3761 1.429 . S
C3753 C3751 1.419 . S
C3753 C3754 1.363 . S
C3753 H3756 0.929 . S
C3754 C3753 1.363 . S
C3754 C3760 1.428 . S
H3755 C3751 0.930 . S
H3756 C3753 0.929 . S
S3757 N3758 1.613 . S
S3757 N3759 1.610 . S
N3758 S3757 1.613 . S
N3758 C3761 1.350 . S
N3759 S3757 1.610 . S
N3759 C3760 1.351 . S
C3760 C3754 1.428 . S
C3760 N3759 1.351 . S
C3760 C3761 1.434 . S
C3761 C3752 1.429 . S
C3761 N3758 1.350 . S
C3761 C3760 1.434 . S
C3762 C3763 1.369 . S
C3762 C3764 1.419 . S
C3762 H3766 0.930 . S
C3763 C3762 1.369 . S
C3763 C3772 1.429 . S
C3764 C3762 1.419 . S
C3764 C3765 1.363 . S
C3764 H3767 0.929 . S
C3765 C3764 1.363 . S
C3765 C3771 1.428 . S
H3766 C3762 0.930 . S
H3767 C3764 0.929 . S
S3768 N3769 1.613 . S
S3768 N3770 1.610 . S
N3769 S3768 1.613 . S
N3769 C3772 1.350 . S
N3770 S3768 1.610 . S
N3770 C3771 1.351 . S
C3771 C3765 1.428 . S
C3771 N3770 1.351 . S
C3771 C3772 1.434 . S
C3772 C3763 1.429 . S
C3772 N3769 1.350 . S
C3772 C3771 1.434 . S
C3773 C3774 1.369 . S
C3773 C3775 1.419 1_556 S
C3773 H3777 0.930 . S
C3774 C3773 1.369 . S
C3774 C3783 1.429 . S
C3775 C3773 1.419 1_554 S
C3775 C3776 1.363 . S
C3775 H3778 0.929 . S
C3776 C3775 1.363 . S
C3776 C3782 1.428 . S
H3777 C3773 0.930 . S
H3778 C3775 0.929 . S
S3779 N3780 1.613 1_554 S
S3779 N3781 1.610 . S
N3780 S3779 1.613 1_556 S
N3780 C3783 1.350 . S
N3781 S3779 1.610 . S
N3781 C3782 1.351 . S
C3782 C3776 1.428 . S
C3782 N3781 1.351 . S
C3782 C3783 1.434 1_554 S
C3783 C3774 1.429 . S
C3783 N3780 1.350 . S
C3783 C3782 1.434 1_556 S
C3784 C3785 1.369 . S
C3784 C3786 1.419 . S
C3784 H3788 0.930 . S
C3785 C3784 1.369 . S
C3785 C3794 1.429 . S
C3786 C3784 1.419 . S
C3786 C3787 1.363 . S
C3786 H3789 0.929 . S
C3787 C3786 1.363 . S
C3787 C3793 1.428 . S
H3788 C3784 0.930 . S
H3789 C3786 0.929 . S
S3790 N3791 1.613 . S
S3790 N3792 1.610 . S
N3791 S3790 1.613 . S
N3791 C3794 1.350 . S
N3792 S3790 1.610 . S
N3792 C3793 1.351 . S
C3793 C3787 1.428 . S
C3793 N3792 1.351 . S
C3793 C3794 1.434 . S
C3794 C3785 1.429 . S
C3794 N3791 1.350 . S
C3794 C3793 1.434 . S
C3795 C3796 1.369 . S
C3795 C3797 1.419 . S
C3795 H3799 0.930 . S
C3796 C3795 1.369 . S
C3796 C3805 1.429 . S
C3797 C3795 1.419 . S
C3797 C3798 1.363 . S
C3797 H3800 0.929 . S
C3798 C3797 1.363 . S
C3798 C3804 1.428 . S
H3799 C3795 0.930 . S
H3800 C3797 0.929 . S
S3801 N3802 1.613 . S
S3801 N3803 1.610 . S
N3802 S3801 1.613 . S
N3802 C3805 1.350 . S
N3803 S3801 1.610 . S
N3803 C3804 1.351 . S
C3804 C3798 1.428 . S
C3804 N3803 1.351 . S
C3804 C3805 1.434 . S
C3805 C3796 1.429 . S
C3805 N3802 1.350 . S
C3805 C3804 1.434 . S
C3806 C3807 1.369 . S
C3806 C3808 1.419 . S
C3806 H3810 0.930 . S
C3807 C3806 1.369 . S
C3807 C3816 1.429 . S
C3808 C3806 1.419 . S
C3808 C3809 1.363 . S
C3808 H3811 0.929 . S
C3809 C3808 1.363 . S
C3809 C3815 1.428 . S
H3810 C3806 0.930 . S
H3811 C3808 0.929 . S
S3812 N3813 1.613 . S
S3812 N3814 1.610 . S
N3813 S3812 1.613 . S
N3813 C3816 1.350 . S
N3814 S3812 1.610 . S
N3814 C3815 1.351 . S
C3815 C3809 1.428 . S
C3815 N3814 1.351 . S
C3815 C3816 1.434 . S
C3816 C3807 1.429 . S
C3816 N3813 1.350 . S
C3816 C3815 1.434 . S
C3817 C3818 1.369 . S
C3817 C3819 1.419 . S
C3817 H3821 0.930 . S
C3818 C3817 1.369 . S
C3818 C3827 1.429 . S
C3819 C3817 1.419 . S
C3819 C3820 1.363 . S
C3819 H3822 0.929 . S
C3820 C3819 1.363 . S
C3820 C3826 1.428 . S
H3821 C3817 0.930 . S
H3822 C3819 0.929 . S
S3823 N3824 1.613 . S
S3823 N3825 1.610 . S
N3824 S3823 1.613 . S
N3824 C3827 1.350 . S
N3825 S3823 1.610 . S
N3825 C3826 1.351 . S
C3826 C3820 1.428 . S
C3826 N3825 1.351 . S
C3826 C3827 1.434 . S
C3827 C3818 1.429 . S
C3827 N3824 1.350 . S
C3827 C3826 1.434 . S
C3828 C3829 1.369 . S
C3828 C3830 1.419 1_545 S
C3828 H3832 0.930 . S
C3829 C3828 1.369 . S
C3829 C3838 1.429 . S
C3830 C3828 1.419 1_565 S
C3830 C3831 1.363 . S
C3830 H3833 0.929 . S
C3831 C3830 1.363 . S
C3831 C3837 1.428 . S
H3832 C3828 0.930 . S
H3833 C3830 0.929 . S
S3834 N3835 1.613 . S
S3834 N3836 1.610 1_545 S
N3835 S3834 1.613 . S
N3835 C3838 1.350 . S
N3836 S3834 1.610 1_565 S
N3836 C3837 1.351 . S
C3837 C3831 1.428 . S
C3837 N3836 1.351 . S
C3837 C3838 1.434 1_565 S
C3838 C3829 1.429 . S
C3838 N3835 1.350 . S
C3838 C3837 1.434 1_545 S
C3839 C3840 1.369 . S
C3839 C3841 1.419 . S
C3839 H3843 0.930 . S
C3840 C3839 1.369 . S
C3840 C3849 1.429 . S
C3841 C3839 1.419 . S
C3841 C3842 1.363 . S
C3841 H3844 0.929 . S
C3842 C3841 1.363 . S
C3842 C3848 1.428 . S
H3843 C3839 0.930 . S
H3844 C3841 0.929 . S
S3845 N3846 1.613 . S
S3845 N3847 1.610 . S
N3846 S3845 1.613 . S
N3846 C3849 1.350 . S
N3847 S3845 1.610 . S
N3847 C3848 1.351 . S
C3848 C3842 1.428 . S
C3848 N3847 1.351 . S
C3848 C3849 1.434 . S
C3849 C3840 1.429 . S
C3849 N3846 1.350 . S
C3849 C3848 1.434 . S
C3850 C3851 1.369 . S
C3850 C3852 1.419 . S
C3850 H3854 0.930 . S
C3851 C3850 1.369 . S
C3851 C3860 1.429 . S
C3852 C3850 1.419 . S
C3852 C3853 1.363 . S
C3852 H3855 0.929 . S
C3853 C3852 1.363 . S
C3853 C3859 1.428 . S
H3854 C3850 0.930 . S
H3855 C3852 0.929 . S
S3856 N3857 1.613 . S
S3856 N3858 1.610 . S
N3857 S3856 1.613 . S
N3857 C3860 1.350 . S
N3858 S3856 1.610 . S
N3858 C3859 1.351 . S
C3859 C3853 1.428 . S
C3859 N3858 1.351 . S
C3859 C3860 1.434 . S
C3860 C3851 1.429 . S
C3860 N3857 1.350 . S
C3860 C3859 1.434 . S
C3861 C3862 1.369 . S
C3861 C3863 1.419 1_455 S
C3861 H3865 0.930 . S
C3862 C3861 1.369 . S
C3862 C3871 1.429 . S
C3863 C3861 1.419 1_655 S
C3863 C3864 1.363 . S
C3863 H3866 0.929 . S
C3864 C3863 1.363 . S
C3864 C3870 1.428 . S
H3865 C3861 0.930 . S
H3866 C3863 0.929 . S
S3867 N3868 1.613 1_655 S
S3867 N3869 1.610 . S
N3868 S3867 1.613 1_455 S
N3868 C3871 1.350 . S
N3869 S3867 1.610 . S
N3869 C3870 1.351 . S
C3870 C3864 1.428 . S
C3870 N3869 1.351 . S
C3870 C3871 1.434 1_655 S
C3871 C3862 1.429 . S
C3871 N3868 1.350 . S
C3871 C3870 1.434 1_455 S
C3872 C3873 1.369 . S
C3872 C3874 1.419 . S
C3872 H3876 0.930 . S
C3873 C3872 1.369 . S
C3873 C3882 1.429 . S
C3874 C3872 1.419 . S
C3874 C3875 1.363 . S
C3874 H3877 0.929 . S
C3875 C3874 1.363 . S
C3875 C3881 1.428 . S
H3876 C3872 0.930 . S
H3877 C3874 0.929 . S
S3878 N3879 1.613 . S
S3878 N3880 1.610 . S
N3879 S3878 1.613 . S
N3879 C3882 1.350 . S
N3880 S3878 1.610 . S
N3880 C3881 1.351 . S
C3881 C3875 1.428 . S
C3881 N3880 1.351 . S
C3881 C3882 1.434 . S
C3882 C3873 1.429 . S
C3882 N3879 1.350 . S
C3882 C3881 1.434 . S
C3883 C3884 1.369 . S
C3883 C3885 1.419 . S
C3883 H3887 0.930 . S
C3884 C3883 1.369 . S
C3884 C3893 1.429 . S
C3885 C3883 1.419 . S
C3885 C3886 1.363 . S
C3885 H3888 0.929 . S
C3886 C3885 1.363 . S
C3886 C3892 1.428 . S
H3887 C3883 0.930 . S
H3888 C3885 0.929 . S
S3889 N3890 1.613 . S
S3889 N3891 1.610 . S
N3890 S3889 1.613 . S
N3890 C3893 1.350 . S
N3891 S3889 1.610 . S
N3891 C3892 1.351 . S
C3892 C3886 1.428 . S
C3892 N3891 1.351 . S
C3892 C3893 1.434 . S
C3893 C3884 1.429 . S
C3893 N3890 1.350 . S
C3893 C3892 1.434 . S
C3894 C3895 1.369 . S
C3894 C3896 1.419 . S
C3894 H3898 0.930 . S
C3895 C3894 1.369 . S
C3895 C3904 1.429 . S
C3896 C3894 1.419 . S
C3896 C3897 1.363 . S
C3896 H3899 0.929 . S
C3897 C3896 1.363 . S
C3897 C3903 1.428 . S
H3898 C3894 0.930 . S
H3899 C3896 0.929 . S
S3900 N3901 1.613 . S
S3900 N3902 1.610 . S
N3901 S3900 1.613 . S
N3901 C3904 1.350 . S
N3902 S3900 1.610 . S
N3902 C3903 1.351 . S
C3903 C3897 1.428 . S
C3903 N3902 1.351 . S
C3903 C3904 1.434 . S
C3904 C3895 1.429 . S
C3904 N3901 1.350 . S
C3904 C3903 1.434 . S
C3905 C3906 1.369 . S
C3905 C3907 1.419 . S
C3905 H3909 0.930 . S
C3906 C3905 1.369 . S
C3906 C3915 1.429 . S
C3907 C3905 1.419 . S
C3907 C3908 1.363 . S
C3907 H3910 0.929 . S
C3908 C3907 1.363 . S
C3908 C3914 1.428 . S
H3909 C3905 0.930 . S
H3910 C3907 0.929 . S
S3911 N3912 1.613 . S
S3911 N3913 1.610 . S
N3912 S3911 1.613 . S
N3912 C3915 1.350 . S
N3913 S3911 1.610 . S
N3913 C3914 1.351 . S
C3914 C3908 1.428 . S
C3914 N3913 1.351 . S
C3914 C3915 1.434 . S
C3915 C3906 1.429 . S
C3915 N3912 1.350 . S
C3915 C3914 1.434 . S
C3916 C3917 1.369 . S
C3916 C3918 1.419 . S
C3916 H3920 0.930 . S
C3917 C3916 1.369 . S
C3917 C3926 1.429 . S
C3918 C3916 1.419 . S
C3918 C3919 1.363 . S
C3918 H3921 0.929 . S
C3919 C3918 1.363 . S
C3919 C3925 1.428 . S
H3920 C3916 0.930 . S
H3921 C3918 0.929 . S
S3922 N3923 1.613 . S
S3922 N3924 1.610 . S
N3923 S3922 1.613 . S
N3923 C3926 1.350 . S
N3924 S3922 1.610 . S
N3924 C3925 1.351 . S
C3925 C3919 1.428 . S
C3925 N3924 1.351 . S
C3925 C3926 1.434 . S
C3926 C3917 1.429 . S
C3926 N3923 1.350 . S
C3926 C3925 1.434 . S
C3927 C3928 1.369 . S
C3927 C3929 1.419 . S
C3927 H3931 0.930 . S
C3928 C3927 1.369 . S
C3928 C3937 1.429 . S
C3929 C3927 1.419 . S
C3929 C3930 1.363 . S
C3929 H3932 0.929 . S
C3930 C3929 1.363 . S
C3930 C3936 1.428 . S
H3931 C3927 0.930 . S
H3932 C3929 0.929 . S
S3933 N3934 1.613 . S
S3933 N3935 1.610 . S
N3934 S3933 1.613 . S
N3934 C3937 1.350 . S
N3935 S3933 1.610 . S
N3935 C3936 1.351 . S
C3936 C3930 1.428 . S
C3936 N3935 1.351 . S
C3936 C3937 1.434 . S
C3937 C3928 1.429 . S
C3937 N3934 1.350 . S
C3937 C3936 1.434 . S
C3938 C3939 1.369 . S
C3938 C3940 1.419 1_554 S
C3938 H3942 0.930 . S
C3939 C3938 1.369 . S
C3939 C3948 1.429 . S
C3940 C3938 1.419 1_556 S
C3940 C3941 1.363 . S
C3940 H3943 0.929 . S
C3941 C3940 1.363 . S
C3941 C3947 1.428 . S
H3942 C3938 0.930 . S
H3943 C3940 0.929 . S
S3944 N3945 1.613 . S
S3944 N3946 1.610 1_554 S
N3945 S3944 1.613 . S
N3945 C3948 1.350 . S
N3946 S3944 1.610 1_556 S
N3946 C3947 1.351 . S
C3947 C3941 1.428 . S
C3947 N3946 1.351 . S
C3947 C3948 1.434 1_556 S
C3948 C3939 1.429 . S
C3948 N3945 1.350 . S
C3948 C3947 1.434 1_554 S
C3949 C3950 1.369 . S
C3949 C3951 1.419 . S
C3949 H3953 0.930 . S
C3950 C3949 1.369 . S
C3950 C3959 1.429 . S
C3951 C3949 1.419 . S
C3951 C3952 1.363 . S
C3951 H3954 0.929 . S
C3952 C3951 1.363 . S
C3952 C3958 1.428 . S
H3953 C3949 0.930 . S
H3954 C3951 0.929 . S
S3955 N3956 1.613 . S
S3955 N3957 1.610 . S
N3956 S3955 1.613 . S
N3956 C3959 1.350 . S
N3957 S3955 1.610 . S
N3957 C3958 1.351 . S
C3958 C3952 1.428 . S
C3958 N3957 1.351 . S
C3958 C3959 1.434 . S
C3959 C3950 1.429 . S
C3959 N3956 1.350 . S
C3959 C3958 1.434 . S
C3960 C3961 1.369 . S
C3960 C3962 1.419 . S
C3960 H3964 0.930 . S
C3961 C3960 1.369 . S
C3961 C3970 1.429 . S
C3962 C3960 1.419 . S
C3962 C3963 1.363 . S
C3962 H3965 0.929 . S
C3963 C3962 1.363 . S
C3963 C3969 1.428 . S
H3964 C3960 0.930 . S
H3965 C3962 0.929 . S
S3966 N3967 1.613 . S
S3966 N3968 1.610 . S
N3967 S3966 1.613 . S
N3967 C3970 1.350 . S
N3968 S3966 1.610 . S
N3968 C3969 1.351 . S
C3969 C3963 1.428 . S
C3969 N3968 1.351 . S
C3969 C3970 1.434 . S
C3970 C3961 1.429 . S
C3970 N3967 1.350 . S
C3970 C3969 1.434 . S
C3971 C3972 1.369 . S
C3971 C3973 1.419 1_554 S
C3971 H3975 0.930 . S
C3972 C3971 1.369 . S
C3972 C3981 1.429 . S
C3973 C3971 1.419 1_556 S
C3973 C3974 1.363 . S
C3973 H3976 0.929 . S
C3974 C3973 1.363 . S
C3974 C3980 1.428 . S
H3975 C3971 0.930 . S
H3976 C3973 0.929 . S
S3977 N3978 1.613 . S
S3977 N3979 1.610 1_554 S
N3978 S3977 1.613 . S
N3978 C3981 1.350 . S
N3979 S3977 1.610 1_556 S
N3979 C3980 1.351 . S
C3980 C3974 1.428 . S
C3980 N3979 1.351 . S
C3980 C3981 1.434 1_556 S
C3981 C3972 1.429 . S
C3981 N3978 1.350 . S
C3981 C3980 1.434 1_554 S
C3982 C3983 1.369 . S
C3982 C3984 1.419 . S
C3982 H3986 0.930 . S
C3983 C3982 1.369 . S
C3983 C3992 1.429 . S
C3984 C3982 1.419 . S
C3984 C3985 1.363 . S
C3984 H3987 0.929 . S
C3985 C3984 1.363 . S
C3985 C3991 1.428 . S
H3986 C3982 0.930 . S
H3987 C3984 0.929 . S
S3988 N3989 1.613 . S
S3988 N3990 1.610 . S
N3989 S3988 1.613 . S
N3989 C3992 1.350 . S
N3990 S3988 1.610 . S
N3990 C3991 1.351 . S
C3991 C3985 1.428 . S
C3991 N3990 1.351 . S
C3991 C3992 1.434 . S
C3992 C3983 1.429 . S
C3992 N3989 1.350 . S
C3992 C3991 1.434 . S
C3993 C3994 1.369 . S
C3993 C3995 1.419 . S
C3993 H3997 0.930 . S
C3994 C3993 1.369 . S
C3994 C4003 1.429 . S
C3995 C3993 1.419 . S
C3995 C3996 1.363 . S
C3995 H3998 0.929 . S
C3996 C3995 1.363 . S
C3996 C4002 1.428 . S
H3997 C3993 0.930 . S
H3998 C3995 0.929 . S
S3999 N4000 1.613 . S
S3999 N4001 1.610 . S
N4000 S3999 1.613 . S
N4000 C4003 1.350 . S
N4001 S3999 1.610 . S
N4001 C4002 1.351 . S
C4002 C3996 1.428 . S
C4002 N4001 1.351 . S
C4002 C4003 1.434 . S
C4003 C3994 1.429 . S
C4003 N4000 1.350 . S
C4003 C4002 1.434 . S
C4004 C4005 1.369 . S
C4004 C4006 1.419 . S
C4004 H4008 0.930 . S
C4005 C4004 1.369 . S
C4005 C4014 1.429 . S
C4006 C4004 1.419 . S
C4006 C4007 1.363 . S
C4006 H4009 0.929 . S
C4007 C4006 1.363 . S
C4007 C4013 1.428 . S
H4008 C4004 0.930 . S
H4009 C4006 0.929 . S
S4010 N4011 1.613 . S
S4010 N4012 1.610 . S
N4011 S4010 1.613 . S
N4011 C4014 1.350 . S
N4012 S4010 1.610 . S
N4012 C4013 1.351 . S
C4013 C4007 1.428 . S
C4013 N4012 1.351 . S
C4013 C4014 1.434 . S
C4014 C4005 1.429 . S
C4014 N4011 1.350 . S
C4014 C4013 1.434 . S
C4015 C4016 1.369 . S
C4015 C4017 1.419 . S
C4015 H4019 0.930 . S
C4016 C4015 1.369 . S
C4016 C4025 1.429 . S
C4017 C4015 1.419 . S
C4017 C4018 1.363 . S
C4017 H4020 0.929 . S
C4018 C4017 1.363 . S
C4018 C4024 1.428 . S
H4019 C4015 0.930 . S
H4020 C4017 0.929 . S
S4021 N4022 1.613 . S
S4021 N4023 1.610 . S
N4022 S4021 1.613 . S
N4022 C4025 1.350 . S
N4023 S4021 1.610 . S
N4023 C4024 1.351 . S
C4024 C4018 1.428 . S
C4024 N4023 1.351 . S
C4024 C4025 1.434 . S
C4025 C4016 1.429 . S
C4025 N4022 1.350 . S
C4025 C4024 1.434 . S
C4026 C4027 1.369 . S
C4026 C4028 1.419 1_545 S
C4026 H4030 0.930 . S
C4027 C4026 1.369 . S
C4027 C4036 1.429 . S
C4028 C4026 1.419 1_565 S
C4028 C4029 1.363 . S
C4028 H4031 0.929 . S
C4029 C4028 1.363 . S
C4029 C4035 1.428 . S
H4030 C4026 0.930 . S
H4031 C4028 0.929 . S
S4032 N4033 1.613 1_565 S
S4032 N4034 1.610 . S
N4033 S4032 1.613 1_545 S
N4033 C4036 1.350 . S
N4034 S4032 1.610 . S
N4034 C4035 1.351 . S
C4035 C4029 1.428 . S
C4035 N4034 1.351 . S
C4035 C4036 1.434 1_565 S
C4036 C4027 1.429 . S
C4036 N4033 1.350 . S
C4036 C4035 1.434 1_545 S
C4037 C4038 1.369 . S
C4037 C4039 1.419 . S
C4037 H4041 0.930 . S
C4038 C4037 1.369 . S
C4038 C4047 1.429 . S
C4039 C4037 1.419 . S
C4039 C4040 1.363 . S
C4039 H4042 0.929 . S
C4040 C4039 1.363 . S
C4040 C4046 1.428 . S
H4041 C4037 0.930 . S
H4042 C4039 0.929 . S
S4043 N4044 1.613 . S
S4043 N4045 1.610 . S
N4044 S4043 1.613 . S
N4044 C4047 1.350 . S
N4045 S4043 1.610 . S
N4045 C4046 1.351 . S
C4046 C4040 1.428 . S
C4046 N4045 1.351 . S
C4046 C4047 1.434 . S
C4047 C4038 1.429 . S
C4047 N4044 1.350 . S
C4047 C4046 1.434 . S
C4048 C4049 1.369 . S
C4048 C4050 1.419 . S
C4048 H4052 0.930 . S
C4049 C4048 1.369 . S
C4049 C4058 1.429 . S
C4050 C4048 1.419 . S
C4050 C4051 1.363 . S
C4050 H4053 0.929 . S
C4051 C4050 1.363 . S
C4051 C4057 1.428 . S
H4052 C4048 0.930 . S
H4053 C4050 0.929 . S
S4054 N4055 1.613 . S
S4054 N4056 1.610 . S
N4055 S4054 1.613 . S
N4055 C4058 1.350 . S
N4056 S4054 1.610 . S
N4056 C4057 1.351 . S
C4057 C4051 1.428 . S
C4057 N4056 1.351 . S
C4057 C4058 1.434 . S
C4058 C4049 1.429 . S
C4058 N4055 1.350 . S
C4058 C4057 1.434 . S
C4059 C4060 1.369 . S
C4059 C4061 1.419 . S
C4059 H4063 0.930 . S
C4060 C4059 1.369 . S
C4060 C4069 1.429 . S
C4061 C4059 1.419 . S
C4061 C4062 1.363 . S
C4061 H4064 0.929 . S
C4062 C4061 1.363 . S
C4062 C4068 1.428 . S
H4063 C4059 0.930 . S
H4064 C4061 0.929 . S
S4065 N4066 1.613 . S
S4065 N4067 1.610 . S
N4066 S4065 1.613 . S
N4066 C4069 1.350 . S
N4067 S4065 1.610 . S
N4067 C4068 1.351 . S
C4068 C4062 1.428 . S
C4068 N4067 1.351 . S
C4068 C4069 1.434 . S
C4069 C4060 1.429 . S
C4069 N4066 1.350 . S
C4069 C4068 1.434 . S
C4070 C4071 1.369 . S
C4070 C4072 1.419 1_545 S
C4070 H4074 0.930 . S
C4071 C4070 1.369 . S
C4071 C4080 1.429 . S
C4072 C4070 1.419 1_565 S
C4072 C4073 1.363 . S
C4072 H4075 0.929 . S
C4073 C4072 1.363 . S
C4073 C4079 1.428 . S
H4074 C4070 0.930 . S
H4075 C4072 0.929 . S
S4076 N4077 1.581 1_565 S
S4076 N4078 1.643 . S
N4077 S4076 1.581 1_545 S
N4077 C4080 1.350 . S
N4078 S4076 1.643 . S
N4078 C4079 1.351 . S
C4079 C4073 1.428 . S
C4079 N4078 1.351 . S
C4079 C4080 1.434 1_565 S
C4080 C4071 1.429 . S
C4080 N4077 1.350 . S
C4080 C4079 1.434 1_545 S
C4081 C4082 1.369 . S
C4081 C4083 1.419 . S
C4081 H4085 0.930 . S
C4082 C4081 1.369 . S
C4082 C4091 1.429 . S
C4083 C4081 1.419 . S
C4083 C4084 1.363 . S
C4083 H4086 0.929 . S
C4084 C4083 1.363 . S
C4084 C4090 1.428 . S
H4085 C4081 0.930 . S
H4086 C4083 0.929 . S
S4087 N4088 1.613 . S
S4087 N4089 1.610 . S
N4088 S4087 1.613 . S
N4088 C4091 1.350 . S
N4089 S4087 1.610 . S
N4089 C4090 1.351 . S
C4090 C4084 1.428 . S
C4090 N4089 1.351 . S
C4090 C4091 1.434 . S
C4091 C4082 1.429 . S
C4091 N4088 1.350 . S
C4091 C4090 1.434 . S
C4092 C4093 1.369 . S
C4092 C4094 1.419 . S
C4092 H4096 0.930 . S
C4093 C4092 1.369 . S
C4093 C4102 1.429 . S
C4094 C4092 1.419 . S
C4094 C4095 1.363 . S
C4094 H4097 0.929 . S
C4095 C4094 1.363 . S
C4095 C4101 1.428 . S
H4096 C4092 0.930 . S
H4097 C4094 0.929 . S
S4098 N4099 1.613 . S
S4098 N4100 1.610 . S
N4099 S4098 1.613 . S
N4099 C4102 1.350 . S
N4100 S4098 1.610 . S
N4100 C4101 1.351 . S
C4101 C4095 1.428 . S
C4101 N4100 1.351 . S
C4101 C4102 1.434 . S
C4102 C4093 1.429 . S
C4102 N4099 1.350 . S
C4102 C4101 1.434 . S
C4103 C4104 1.369 . S
C4103 C4105 1.419 . S
C4103 H4107 0.930 . S
C4104 C4103 1.369 . S
C4104 C4113 1.429 . S
C4105 C4103 1.419 . S
C4105 C4106 1.363 . S
C4105 H4108 0.929 . S
C4106 C4105 1.363 . S
C4106 C4112 1.428 . S
H4107 C4103 0.930 . S
H4108 C4105 0.929 . S
S4109 N4110 1.613 . S
S4109 N4111 1.610 . S
N4110 S4109 1.613 . S
N4110 C4113 1.350 . S
N4111 S4109 1.610 . S
N4111 C4112 1.351 . S
C4112 C4106 1.428 . S
C4112 N4111 1.351 . S
C4112 C4113 1.434 . S
C4113 C4104 1.429 . S
C4113 N4110 1.350 . S
C4113 C4112 1.434 . S
C4114 C4115 1.369 . S
C4114 C4116 1.419 . S
C4114 H4118 0.930 . S
C4115 C4114 1.369 . S
C4115 C4124 1.429 . S
C4116 C4114 1.419 . S
C4116 C4117 1.363 . S
C4116 H4119 0.929 . S
C4117 C4116 1.363 . S
C4117 C4123 1.428 . S
H4118 C4114 0.930 . S
H4119 C4116 0.929 . S
S4120 N4121 1.613 . S
S4120 N4122 1.610 . S
N4121 S4120 1.613 . S
N4121 C4124 1.350 . S
N4122 S4120 1.610 . S
N4122 C4123 1.351 . S
C4123 C4117 1.428 . S
C4123 N4122 1.351 . S
C4123 C4124 1.434 . S
C4124 C4115 1.429 . S
C4124 N4121 1.350 . S
C4124 C4123 1.434 . S
C4125 C4126 1.369 . S
C4125 C4127 1.419 . S
C4125 H4129 0.930 . S
C4126 C4125 1.369 . S
C4126 C4135 1.429 . S
C4127 C4125 1.419 . S
C4127 C4128 1.363 . S
C4127 H4130 0.929 . S
C4128 C4127 1.363 . S
C4128 C4134 1.428 . S
H4129 C4125 0.930 . S
H4130 C4127 0.929 . S
S4131 N4132 1.613 . S
S4131 N4133 1.610 . S
N4132 S4131 1.613 . S
N4132 C4135 1.350 . S
N4133 S4131 1.610 . S
N4133 C4134 1.351 . S
C4134 C4128 1.428 . S
C4134 N4133 1.351 . S
C4134 C4135 1.434 . S
C4135 C4126 1.429 . S
C4135 N4132 1.350 . S
C4135 C4134 1.434 . S
C4136 C4137 1.369 . S
C4136 C4138 1.419 1_565 S
C4136 H4140 0.930 . S
C4137 C4136 1.369 . S
C4137 C4146 1.429 . S
C4138 C4136 1.419 1_545 S
C4138 C4139 1.363 . S
C4138 H4141 0.929 . S
C4139 C4138 1.363 . S
C4139 C4145 1.428 . S
H4140 C4136 0.930 . S
H4141 C4138 0.929 . S
S4142 N4143 1.613 1_545 S
S4142 N4144 1.610 . S
N4143 S4142 1.613 1_565 S
N4143 C4146 1.350 . S
N4144 S4142 1.610 . S
N4144 C4145 1.351 . S
C4145 C4139 1.428 . S
C4145 N4144 1.351 . S
C4145 C4146 1.434 1_545 S
C4146 C4137 1.429 . S
C4146 N4143 1.350 . S
C4146 C4145 1.434 1_565 S
C4147 C4148 1.369 . S
C4147 C4149 1.419 . S
C4147 H4151 0.930 . S
C4148 C4147 1.369 . S
C4148 C4157 1.429 . S
C4149 C4147 1.419 . S
C4149 C4150 1.363 . S
C4149 H4152 0.929 . S
C4150 C4149 1.363 . S
C4150 C4156 1.428 . S
H4151 C4147 0.930 . S
H4152 C4149 0.929 . S
S4153 N4154 1.613 . S
S4153 N4155 1.610 . S
N4154 S4153 1.613 . S
N4154 C4157 1.350 . S
N4155 S4153 1.610 . S
N4155 C4156 1.351 . S
C4156 C4150 1.428 . S
C4156 N4155 1.351 . S
C4156 C4157 1.434 . S
C4157 C4148 1.429 . S
C4157 N4154 1.350 . S
C4157 C4156 1.434 . S
C4158 C4159 1.369 . S
C4158 C4160 1.419 . S
C4158 H4162 0.930 . S
C4159 C4158 1.369 . S
C4159 C4168 1.429 . S
C4160 C4158 1.419 . S
C4160 C4161 1.363 . S
C4160 H4163 0.929 . S
C4161 C4160 1.363 . S
C4161 C4167 1.428 . S
H4162 C4158 0.930 . S
H4163 C4160 0.929 . S
S4164 N4165 1.613 . S
S4164 N4166 1.610 . S
N4165 S4164 1.613 . S
N4165 C4168 1.350 . S
N4166 S4164 1.610 . S
N4166 C4167 1.351 . S
C4167 C4161 1.428 . S
C4167 N4166 1.351 . S
C4167 C4168 1.434 . S
C4168 C4159 1.429 . S
C4168 N4165 1.350 . S
C4168 C4167 1.434 . S
C4169 C4170 1.369 . S
C4169 C4171 1.419 . S
C4169 H4173 0.930 . S
C4170 C4169 1.369 . S
C4170 C4179 1.429 . S
C4171 C4169 1.419 . S
C4171 C4172 1.363 . S
C4171 H4174 0.929 . S
C4172 C4171 1.363 . S
C4172 C4178 1.428 . S
H4173 C4169 0.930 . S
H4174 C4171 0.929 . S
S4175 N4176 1.613 . S
S4175 N4177 1.610 . S
N4176 S4175 1.613 . S
N4176 C4179 1.350 . S
N4177 S4175 1.610 . S
N4177 C4178 1.351 . S
C4178 C4172 1.428 . S
C4178 N4177 1.351 . S
C4178 C4179 1.434 . S
C4179 C4170 1.429 . S
C4179 N4176 1.350 . S
C4179 C4178 1.434 . S
C4180 C4181 1.369 . S
C4180 C4182 1.419 . S
C4180 H4184 0.930 . S
C4181 C4180 1.369 . S
C4181 C4190 1.429 . S
C4182 C4180 1.419 . S
C4182 C4183 1.363 . S
C4182 H4185 0.929 . S
C4183 C4182 1.363 . S
C4183 C4189 1.428 . S
H4184 C4180 0.930 . S
H4185 C4182 0.929 . S
S4186 N4187 1.613 . S
S4186 N4188 1.610 . S
N4187 S4186 1.613 . S
N4187 C4190 1.350 . S
N4188 S4186 1.610 . S
N4188 C4189 1.351 . S
C4189 C4183 1.428 . S
C4189 N4188 1.351 . S
C4189 C4190 1.434 . S
C4190 C4181 1.429 . S
C4190 N4187 1.350 . S
C4190 C4189 1.434 . S
C4191 C4192 1.369 . S
C4191 C4193 1.419 . S
C4191 H4195 0.930 . S
C4192 C4191 1.369 . S
C4192 C4201 1.429 . S
C4193 C4191 1.419 . S
C4193 C4194 1.363 . S
C4193 H4196 0.929 . S
C4194 C4193 1.363 . S
C4194 C4200 1.428 . S
H4195 C4191 0.930 . S
H4196 C4193 0.929 . S
S4197 N4198 1.613 . S
S4197 N4199 1.610 . S
N4198 S4197 1.613 . S
N4198 C4201 1.350 . S
N4199 S4197 1.610 . S
N4199 C4200 1.351 . S
C4200 C4194 1.428 . S
C4200 N4199 1.351 . S
C4200 C4201 1.434 . S
C4201 C4192 1.429 . S
C4201 N4198 1.350 . S
C4201 C4200 1.434 . S
C4202 C4203 1.369 . S
C4202 C4204 1.419 . S
C4202 H4206 0.930 . S
C4203 C4202 1.369 . S
C4203 C4212 1.429 . S
C4204 C4202 1.419 . S
C4204 C4205 1.363 . S
C4204 H4207 0.929 . S
C4205 C4204 1.363 . S
C4205 C4211 1.428 . S
H4206 C4202 0.930 . S
H4207 C4204 0.929 . S
S4208 N4209 1.613 . S
S4208 N4210 1.610 . S
N4209 S4208 1.613 . S
N4209 C4212 1.350 . S
N4210 S4208 1.610 . S
N4210 C4211 1.351 . S
C4211 C4205 1.428 . S
C4211 N4210 1.351 . S
C4211 C4212 1.434 . S
C4212 C4203 1.429 . S
C4212 N4209 1.350 . S
C4212 C4211 1.434 . S
C4213 C4214 1.369 . S
C4213 C4215 1.419 . S
C4213 H4217 0.930 . S
C4214 C4213 1.369 . S
C4214 C4223 1.429 . S
C4215 C4213 1.419 . S
C4215 C4216 1.363 . S
C4215 H4218 0.929 . S
C4216 C4215 1.363 . S
C4216 C4222 1.428 . S
H4217 C4213 0.930 . S
H4218 C4215 0.929 . S
S4219 N4220 1.613 . S
S4219 N4221 1.610 . S
N4220 S4219 1.613 . S
N4220 C4223 1.350 . S
N4221 S4219 1.610 . S
N4221 C4222 1.351 . S
C4222 C4216 1.428 . S
C4222 N4221 1.351 . S
C4222 C4223 1.434 . S
C4223 C4214 1.429 . S
C4223 N4220 1.350 . S
C4223 C4222 1.434 . S
C4224 C4225 1.369 . S
C4224 C4226 1.419 . S
C4224 H4228 0.930 . S
C4225 C4224 1.369 . S
C4225 C4234 1.429 . S
C4226 C4224 1.419 . S
C4226 C4227 1.363 . S
C4226 H4229 0.929 . S
C4227 C4226 1.363 . S
C4227 C4233 1.428 . S
H4228 C4224 0.930 . S
H4229 C4226 0.929 . S
S4230 N4231 1.613 . S
S4230 N4232 1.610 . S
N4231 S4230 1.613 . S
N4231 C4234 1.350 . S
N4232 S4230 1.610 . S
N4232 C4233 1.351 . S
C4233 C4227 1.428 . S
C4233 N4232 1.351 . S
C4233 C4234 1.434 . S
C4234 C4225 1.429 . S
C4234 N4231 1.350 . S
C4234 C4233 1.434 . S
C4235 C4236 1.369 . S
C4235 C4237 1.419 . S
C4235 H4239 0.930 . S
C4236 C4235 1.369 . S
C4236 C4245 1.429 . S
C4237 C4235 1.419 . S
C4237 C4238 1.363 . S
C4237 H4240 0.929 . S
C4238 C4237 1.363 . S
C4238 C4244 1.428 . S
H4239 C4235 0.930 . S
H4240 C4237 0.929 . S
S4241 N4242 1.613 . S
S4241 N4243 1.610 . S
N4242 S4241 1.613 . S
N4242 C4245 1.350 . S
N4243 S4241 1.610 . S
N4243 C4244 1.351 . S
C4244 C4238 1.428 . S
C4244 N4243 1.351 . S
C4244 C4245 1.434 . S
C4245 C4236 1.429 . S
C4245 N4242 1.350 . S
C4245 C4244 1.434 . S
C4246 C4247 1.369 . S
C4246 C4248 1.419 . S
C4246 H4250 0.930 . S
C4247 C4246 1.369 . S
C4247 C4256 1.429 . S
C4248 C4246 1.419 . S
C4248 C4249 1.363 . S
C4248 H4251 0.929 . S
C4249 C4248 1.363 . S
C4249 C4255 1.428 . S
H4250 C4246 0.930 . S
H4251 C4248 0.929 . S
S4252 N4253 1.613 . S
S4252 N4254 1.610 . S
N4253 S4252 1.613 . S
N4253 C4256 1.350 . S
N4254 S4252 1.610 . S
N4254 C4255 1.351 . S
C4255 C4249 1.428 . S
C4255 N4254 1.351 . S
C4255 C4256 1.434 . S
C4256 C4247 1.429 . S
C4256 N4253 1.350 . S
C4256 C4255 1.434 . S
C4257 C4258 1.369 . S
C4257 C4259 1.419 . S
C4257 H4261 0.930 . S
C4258 C4257 1.369 . S
C4258 C4267 1.429 . S
C4259 C4257 1.419 . S
C4259 C4260 1.363 . S
C4259 H4262 0.929 . S
C4260 C4259 1.363 . S
C4260 C4266 1.428 . S
H4261 C4257 0.930 . S
H4262 C4259 0.929 . S
S4263 N4264 1.613 . S
S4263 N4265 1.610 . S
N4264 S4263 1.613 . S
N4264 C4267 1.350 . S
N4265 S4263 1.610 . S
N4265 C4266 1.351 . S
C4266 C4260 1.428 . S
C4266 N4265 1.351 . S
C4266 C4267 1.434 . S
C4267 C4258 1.429 . S
C4267 N4264 1.350 . S
C4267 C4266 1.434 . S
C4268 C4269 1.369 . S
C4268 C4270 1.419 . S
C4268 H4272 0.930 . S
C4269 C4268 1.369 . S
C4269 C4278 1.429 . S
C4270 C4268 1.419 . S
C4270 C4271 1.363 . S
C4270 H4273 0.929 . S
C4271 C4270 1.363 . S
C4271 C4277 1.428 . S
H4272 C4268 0.930 . S
H4273 C4270 0.929 . S
S4274 N4275 1.613 . S
S4274 N4276 1.610 . S
N4275 S4274 1.613 . S
N4275 C4278 1.350 . S
N4276 S4274 1.610 . S
N4276 C4277 1.351 . S
C4277 C4271 1.428 . S
C4277 N4276 1.351 . S
C4277 C4278 1.434 . S
C4278 C4269 1.429 . S
C4278 N4275 1.350 . S
C4278 C4277 1.434 . S
C4279 C4280 1.369 . S
C4279 C4281 1.419 . S
C4279 H4283 0.930 . S
C4280 C4279 1.369 . S
C4280 C4289 1.429 . S
C4281 C4279 1.419 . S
C4281 C4282 1.363 . S
C4281 H4284 0.929 . S
C4282 C4281 1.363 . S
C4282 C4288 1.428 . S
H4283 C4279 0.930 . S
H4284 C4281 0.929 . S
S4285 N4286 1.613 . S
S4285 N4287 1.610 . S
N4286 S4285 1.613 . S
N4286 C4289 1.350 . S
N4287 S4285 1.610 . S
N4287 C4288 1.351 . S
C4288 C4282 1.428 . S
C4288 N4287 1.351 . S
C4288 C4289 1.434 . S
C4289 C4280 1.429 . S
C4289 N4286 1.350 . S
C4289 C4288 1.434 . S
C4290 C4291 1.369 . S
C4290 C4292 1.419 . S
C4290 H4294 0.930 . S
C4291 C4290 1.369 . S
C4291 C4300 1.429 . S
C4292 C4290 1.419 . S
C4292 C4293 1.363 . S
C4292 H4295 0.929 . S
C4293 C4292 1.363 . S
C4293 C4299 1.428 . S
H4294 C4290 0.930 . S
H4295 C4292 0.929 . S
S4296 N4297 1.613 . S
S4296 N4298 1.610 . S
N4297 S4296 1.613 . S
N4297 C4300 1.350 . S
N4298 S4296 1.610 . S
N4298 C4299 1.351 . S
C4299 C4293 1.428 . S
C4299 N4298 1.351 . S
C4299 C4300 1.434 . S
C4300 C4291 1.429 . S
C4300 N4297 1.350 . S
C4300 C4299 1.434 . S
C4301 C4302 1.369 . S
C4301 C4303 1.419 . S
C4301 H4305 0.930 . S
C4302 C4301 1.369 . S
C4302 C4311 1.429 . S
C4303 C4301 1.419 . S
C4303 C4304 1.363 . S
C4303 H4306 0.929 . S
C4304 C4303 1.363 . S
C4304 C4310 1.428 . S
H4305 C4301 0.930 . S
H4306 C4303 0.929 . S
S4307 N4308 1.613 . S
S4307 N4309 1.610 . S
N4308 S4307 1.613 . S
N4308 C4311 1.350 . S
N4309 S4307 1.610 . S
N4309 C4310 1.351 . S
C4310 C4304 1.428 . S
C4310 N4309 1.351 . S
C4310 C4311 1.434 . S
C4311 C4302 1.429 . S
C4311 N4308 1.350 . S
C4311 C4310 1.434 . S
C4312 C4313 1.369 . S
C4312 C4314 1.419 . S
C4312 H4316 0.930 . S
C4313 C4312 1.369 . S
C4313 C4322 1.429 . S
C4314 C4312 1.419 . S
C4314 C4315 1.363 . S
C4314 H4317 0.929 . S
C4315 C4314 1.363 . S
C4315 C4321 1.428 . S
H4316 C4312 0.930 . S
H4317 C4314 0.929 . S
S4318 N4319 1.613 . S
S4318 N4320 1.610 . S
N4319 S4318 1.613 . S
N4319 C4322 1.350 . S
N4320 S4318 1.610 . S
N4320 C4321 1.351 . S
C4321 C4315 1.428 . S
C4321 N4320 1.351 . S
C4321 C4322 1.434 . S
C4322 C4313 1.429 . S
C4322 N4319 1.350 . S
C4322 C4321 1.434 . S
C4323 C4324 1.369 . S
C4323 C4325 1.419 . S
C4323 H4327 0.930 . S
C4324 C4323 1.369 . S
C4324 C4333 1.429 . S
C4325 C4323 1.419 . S
C4325 C4326 1.363 . S
C4325 H4328 0.929 . S
C4326 C4325 1.363 . S
C4326 C4332 1.428 . S
H4327 C4323 0.930 . S
H4328 C4325 0.929 . S
S4329 N4330 1.613 . S
S4329 N4331 1.610 . S
N4330 S4329 1.613 . S
N4330 C4333 1.350 . S
N4331 S4329 1.610 . S
N4331 C4332 1.351 . S
C4332 C4326 1.428 . S
C4332 N4331 1.351 . S
C4332 C4333 1.434 . S
C4333 C4324 1.429 . S
C4333 N4330 1.350 . S
C4333 C4332 1.434 . S
C4334 C4335 1.369 . S
C4334 C4336 1.419 . S
C4334 H4338 0.930 . S
C4335 C4334 1.369 . S
C4335 C4344 1.429 . S
C4336 C4334 1.419 . S
C4336 C4337 1.363 . S
C4336 H4339 0.929 . S
C4337 C4336 1.363 . S
C4337 C4343 1.428 . S
H4338 C4334 0.930 . S
H4339 C4336 0.929 . S
S4340 N4341 1.613 . S
S4340 N4342 1.610 . S
N4341 S4340 1.613 . S
N4341 C4344 1.350 . S
N4342 S4340 1.610 . S
N4342 C4343 1.351 . S
C4343 C4337 1.428 . S
C4343 N4342 1.351 . S
C4343 C4344 1.434 . S
C4344 C4335 1.429 . S
C4344 N4341 1.350 . S
C4344 C4343 1.434 . S
C4345 C4346 1.369 . S
C4345 C4347 1.419 . S
C4345 H4349 0.930 . S
C4346 C4345 1.369 . S
C4346 C4355 1.429 . S
C4347 C4345 1.419 . S
C4347 C4348 1.363 . S
C4347 H4350 0.929 . S
C4348 C4347 1.363 . S
C4348 C4354 1.428 . S
H4349 C4345 0.930 . S
H4350 C4347 0.929 . S
S4351 N4352 1.613 . S
S4351 N4353 1.610 . S
N4352 S4351 1.613 . S
N4352 C4355 1.350 . S
N4353 S4351 1.610 . S
N4353 C4354 1.351 . S
C4354 C4348 1.428 . S
C4354 N4353 1.351 . S
C4354 C4355 1.434 . S
C4355 C4346 1.429 . S
C4355 N4352 1.350 . S
C4355 C4354 1.434 . S
C4356 C4357 1.369 . S
C4356 C4358 1.419 . S
C4356 H4360 0.930 . S
C4357 C4356 1.369 . S
C4357 C4366 1.429 . S
C4358 C4356 1.419 . S
C4358 C4359 1.363 . S
C4358 H4361 0.929 . S
C4359 C4358 1.363 . S
C4359 C4365 1.428 . S
H4360 C4356 0.930 . S
H4361 C4358 0.929 . S
S4362 N4363 1.613 . S
S4362 N4364 1.610 . S
N4363 S4362 1.613 . S
N4363 C4366 1.350 . S
N4364 S4362 1.610 . S
N4364 C4365 1.351 . S
C4365 C4359 1.428 . S
C4365 N4364 1.351 . S
C4365 C4366 1.434 . S
C4366 C4357 1.429 . S
C4366 N4363 1.350 . S
C4366 C4365 1.434 . S
C4367 C4368 1.369 . S
C4367 C4369 1.419 . S
C4367 H4371 0.930 . S
C4368 C4367 1.369 . S
C4368 C4377 1.429 . S
C4369 C4367 1.419 . S
C4369 C4370 1.363 . S
C4369 H4372 0.929 . S
C4370 C4369 1.363 . S
C4370 C4376 1.428 . S
H4371 C4367 0.930 . S
H4372 C4369 0.929 . S
S4373 N4374 1.613 . S
S4373 N4375 1.610 . S
N4374 S4373 1.613 . S
N4374 C4377 1.350 . S
N4375 S4373 1.610 . S
N4375 C4376 1.351 . S
C4376 C4370 1.428 . S
C4376 N4375 1.351 . S
C4376 C4377 1.434 . S
C4377 C4368 1.429 . S
C4377 N4374 1.350 . S
C4377 C4376 1.434 . S
C4378 C4379 1.369 . S
C4378 C4380 1.419 . S
C4378 H4382 0.930 . S
C4379 C4378 1.369 . S
C4379 C4388 1.429 . S
C4380 C4378 1.419 . S
C4380 C4381 1.363 . S
C4380 H4383 0.929 . S
C4381 C4380 1.363 . S
C4381 C4387 1.428 . S
H4382 C4378 0.930 . S
H4383 C4380 0.929 . S
S4384 N4385 1.613 . S
S4384 N4386 1.610 . S
N4385 S4384 1.613 . S
N4385 C4388 1.350 . S
N4386 S4384 1.610 . S
N4386 C4387 1.351 . S
C4387 C4381 1.428 . S
C4387 N4386 1.351 . S
C4387 C4388 1.434 . S
C4388 C4379 1.429 . S
C4388 N4385 1.350 . S
C4388 C4387 1.434 . S
C4389 C4390 1.369 . S
C4389 C4391 1.419 . S
C4389 H4393 0.930 . S
C4390 C4389 1.369 . S
C4390 C4399 1.429 . S
C4391 C4389 1.419 . S
C4391 C4392 1.363 . S
C4391 H4394 0.929 . S
C4392 C4391 1.363 . S
C4392 C4398 1.428 . S
H4393 C4389 0.930 . S
H4394 C4391 0.929 . S
S4395 N4396 1.613 . S
S4395 N4397 1.610 . S
N4396 S4395 1.613 . S
N4396 C4399 1.350 . S
N4397 S4395 1.610 . S
N4397 C4398 1.351 . S
C4398 C4392 1.428 . S
C4398 N4397 1.351 . S
C4398 C4399 1.434 . S
C4399 C4390 1.429 . S
C4399 N4396 1.350 . S
C4399 C4398 1.434 . S
C4400 C4401 1.369 . S
C4400 C4402 1.419 . S
C4400 H4404 0.930 . S
C4401 C4400 1.369 . S
C4401 C4410 1.429 . S
C4402 C4400 1.419 . S
C4402 C4403 1.363 . S
C4402 H4405 0.929 . S
C4403 C4402 1.363 . S
C4403 C4409 1.428 . S
H4404 C4400 0.930 . S
H4405 C4402 0.929 . S
S4406 N4407 1.613 . S
S4406 N4408 1.610 . S
N4407 S4406 1.613 . S
N4407 C4410 1.350 . S
N4408 S4406 1.610 . S
N4408 C4409 1.351 . S
C4409 C4403 1.428 . S
C4409 N4408 1.351 . S
C4409 C4410 1.434 . S
C4410 C4401 1.429 . S
C4410 N4407 1.350 . S
C4410 C4409 1.434 . S
C4411 C4412 1.369 . S
C4411 C4413 1.419 . S
C4411 H4415 0.930 . S
C4412 C4411 1.369 . S
C4412 C4421 1.429 . S
C4413 C4411 1.419 . S
C4413 C4414 1.363 . S
C4413 H4416 0.929 . S
C4414 C4413 1.363 . S
C4414 C4420 1.428 . S
H4415 C4411 0.930 . S
H4416 C4413 0.929 . S
S4417 N4418 1.613 . S
S4417 N4419 1.610 . S
N4418 S4417 1.613 . S
N4418 C4421 1.350 . S
N4419 S4417 1.610 . S
N4419 C4420 1.351 . S
C4420 C4414 1.428 . S
C4420 N4419 1.351 . S
C4420 C4421 1.434 . S
C4421 C4412 1.429 . S
C4421 N4418 1.350 . S
C4421 C4420 1.434 . S
C4422 C4423 1.369 . S
C4422 C4424 1.419 . S
C4422 H4426 0.930 . S
C4423 C4422 1.369 . S
C4423 C4432 1.429 . S
C4424 C4422 1.419 . S
C4424 C4425 1.363 . S
C4424 H4427 0.929 . S
C4425 C4424 1.363 . S
C4425 C4431 1.428 . S
H4426 C4422 0.930 . S
H4427 C4424 0.929 . S
S4428 N4429 1.613 . S
S4428 N4430 1.610 . S
N4429 S4428 1.613 . S
N4429 C4432 1.350 . S
N4430 S4428 1.610 . S
N4430 C4431 1.351 . S
C4431 C4425 1.428 . S
C4431 N4430 1.351 . S
C4431 C4432 1.434 . S
C4432 C4423 1.429 . S
C4432 N4429 1.350 . S
C4432 C4431 1.434 . S
C4433 C4434 1.369 . S
C4433 C4435 1.419 . S
C4433 H4437 0.930 . S
C4434 C4433 1.369 . S
C4434 C4443 1.429 . S
C4435 C4433 1.419 . S
C4435 C4436 1.363 . S
C4435 H4438 0.929 . S
C4436 C4435 1.363 . S
C4436 C4442 1.428 . S
H4437 C4433 0.930 . S
H4438 C4435 0.929 . S
S4439 N4440 1.613 . S
S4439 N4441 1.610 . S
N4440 S4439 1.613 . S
N4440 C4443 1.350 . S
N4441 S4439 1.610 . S
N4441 C4442 1.351 . S
C4442 C4436 1.428 . S
C4442 N4441 1.351 . S
C4442 C4443 1.434 . S
C4443 C4434 1.429 . S
C4443 N4440 1.350 . S
C4443 C4442 1.434 . S
C4444 C4445 1.369 . S
C4444 C4446 1.419 . S
C4444 H4448 0.930 . S
C4445 C4444 1.369 . S
C4445 C4454 1.429 . S
C4446 C4444 1.419 . S
C4446 C4447 1.363 . S
C4446 H4449 0.929 . S
C4447 C4446 1.363 . S
C4447 C4453 1.428 . S
H4448 C4444 0.930 . S
H4449 C4446 0.929 . S
S4450 N4451 1.613 . S
S4450 N4452 1.610 . S
N4451 S4450 1.613 . S
N4451 C4454 1.350 . S
N4452 S4450 1.610 . S
N4452 C4453 1.351 . S
C4453 C4447 1.428 . S
C4453 N4452 1.351 . S
C4453 C4454 1.434 . S
C4454 C4445 1.429 . S
C4454 N4451 1.350 . S
C4454 C4453 1.434 . S
C4455 C4456 1.369 . S
C4455 C4457 1.419 . S
C4455 H4459 0.930 . S
C4456 C4455 1.369 . S
C4456 C4465 1.429 . S
C4457 C4455 1.419 . S
C4457 C4458 1.363 . S
C4457 H4460 0.929 . S
C4458 C4457 1.363 . S
C4458 C4464 1.428 . S
H4459 C4455 0.930 . S
H4460 C4457 0.929 . S
S4461 N4462 1.613 . S
S4461 N4463 1.610 . S
N4462 S4461 1.613 . S
N4462 C4465 1.350 . S
N4463 S4461 1.610 . S
N4463 C4464 1.351 . S
C4464 C4458 1.428 . S
C4464 N4463 1.351 . S
C4464 C4465 1.434 . S
C4465 C4456 1.429 . S
C4465 N4462 1.350 . S
C4465 C4464 1.434 . S
C4466 C4467 1.369 . S
C4466 C4468 1.419 . S
C4466 H4470 0.930 . S
C4467 C4466 1.369 . S
C4467 C4476 1.429 . S
C4468 C4466 1.419 . S
C4468 C4469 1.363 . S
C4468 H4471 0.929 . S
C4469 C4468 1.363 . S
C4469 C4475 1.428 . S
H4470 C4466 0.930 . S
H4471 C4468 0.929 . S
S4472 N4473 1.613 . S
S4472 N4474 1.610 . S
N4473 S4472 1.613 . S
N4473 C4476 1.350 . S
N4474 S4472 1.610 . S
N4474 C4475 1.351 . S
C4475 C4469 1.428 . S
C4475 N4474 1.351 . S
C4475 C4476 1.434 . S
C4476 C4467 1.429 . S
C4476 N4473 1.350 . S
C4476 C4475 1.434 . S
C4477 C4478 1.369 . S
C4477 C4479 1.419 . S
C4477 H4481 0.930 . S
C4478 C4477 1.369 . S
C4478 C4487 1.429 . S
C4479 C4477 1.419 . S
C4479 C4480 1.363 . S
C4479 H4482 0.929 . S
C4480 C4479 1.363 . S
C4480 C4486 1.428 . S
H4481 C4477 0.930 . S
H4482 C4479 0.929 . S
S4483 N4484 1.613 . S
S4483 N4485 1.610 . S
N4484 S4483 1.613 . S
N4484 C4487 1.350 . S
N4485 S4483 1.610 . S
N4485 C4486 1.351 . S
C4486 C4480 1.428 . S
C4486 N4485 1.351 . S
C4486 C4487 1.434 . S
C4487 C4478 1.429 . S
C4487 N4484 1.350 . S
C4487 C4486 1.434 . S
C4488 C4489 1.369 . S
C4488 C4490 1.419 . S
C4488 H4492 0.930 . S
C4489 C4488 1.369 . S
C4489 C4498 1.429 . S
C4490 C4488 1.419 . S
C4490 C4491 1.363 . S
C4490 H4493 0.929 . S
C4491 C4490 1.363 . S
C4491 C4497 1.428 . S
H4492 C4488 0.930 . S
H4493 C4490 0.929 . S
S4494 N4495 1.613 . S
S4494 N4496 1.610 . S
N4495 S4494 1.613 . S
N4495 C4498 1.350 . S
N4496 S4494 1.610 . S
N4496 C4497 1.351 . S
C4497 C4491 1.428 . S
C4497 N4496 1.351 . S
C4497 C4498 1.434 . S
C4498 C4489 1.429 . S
C4498 N4495 1.350 . S
C4498 C4497 1.434 . S
C4499 C4500 1.369 . S
C4499 C4501 1.419 . S
C4499 H4503 0.930 . S
C4500 C4499 1.369 . S
C4500 C4509 1.429 . S
C4501 C4499 1.419 . S
C4501 C4502 1.363 . S
C4501 H4504 0.929 . S
C4502 C4501 1.363 . S
C4502 C4508 1.428 . S
H4503 C4499 0.930 . S
H4504 C4501 0.929 . S
S4505 N4506 1.613 . S
S4505 N4507 1.610 . S
N4506 S4505 1.613 . S
N4506 C4509 1.350 . S
N4507 S4505 1.610 . S
N4507 C4508 1.351 . S
C4508 C4502 1.428 . S
C4508 N4507 1.351 . S
C4508 C4509 1.434 . S
C4509 C4500 1.429 . S
C4509 N4506 1.350 . S
C4509 C4508 1.434 . S
C4510 C4511 1.369 . S
C4510 C4512 1.419 . S
C4510 H4514 0.930 . S
C4511 C4510 1.369 . S
C4511 C4520 1.429 . S
C4512 C4510 1.419 . S
C4512 C4513 1.363 . S
C4512 H4515 0.929 . S
C4513 C4512 1.363 . S
C4513 C4519 1.428 . S
H4514 C4510 0.930 . S
H4515 C4512 0.929 . S
S4516 N4517 1.613 . S
S4516 N4518 1.610 . S
N4517 S4516 1.613 . S
N4517 C4520 1.350 . S
N4518 S4516 1.610 . S
N4518 C4519 1.351 . S
C4519 C4513 1.428 . S
C4519 N4518 1.351 . S
C4519 C4520 1.434 . S
C4520 C4511 1.429 . S
C4520 N4517 1.350 . S
C4520 C4519 1.434 . S
C4521 C4522 1.369 . S
C4521 C4523 1.419 . S
C4521 H4525 0.930 . S
C4522 C4521 1.369 . S
C4522 C4531 1.429 . S
C4523 C4521 1.419 . S
C4523 C4524 1.363 . S
C4523 H4526 0.929 . S
C4524 C4523 1.363 . S
C4524 C4530 1.428 . S
H4525 C4521 0.930 . S
H4526 C4523 0.929 . S
S4527 N4528 1.613 . S
S4527 N4529 1.610 . S
N4528 S4527 1.613 . S
N4528 C4531 1.350 . S
N4529 S4527 1.610 . S
N4529 C4530 1.351 . S
C4530 C4524 1.428 . S
C4530 N4529 1.351 . S
C4530 C4531 1.434 . S
C4531 C4522 1.429 . S
C4531 N4528 1.350 . S
C4531 C4530 1.434 . S
C4532 C4533 1.369 . S
C4532 C4534 1.419 . S
C4532 H4536 0.930 . S
C4533 C4532 1.369 . S
C4533 C4542 1.429 . S
C4534 C4532 1.419 . S
C4534 C4535 1.363 . S
C4534 H4537 0.929 . S
C4535 C4534 1.363 . S
C4535 C4541 1.428 . S
H4536 C4532 0.930 . S
H4537 C4534 0.929 . S
S4538 N4539 1.613 . S
S4538 N4540 1.610 . S
N4539 S4538 1.613 . S
N4539 C4542 1.350 . S
N4540 S4538 1.610 . S
N4540 C4541 1.351 . S
C4541 C4535 1.428 . S
C4541 N4540 1.351 . S
C4541 C4542 1.434 . S
C4542 C4533 1.429 . S
C4542 N4539 1.350 . S
C4542 C4541 1.434 . S
C4543 C4544 1.369 . S
C4543 C4545 1.419 . S
C4543 H4547 0.930 . S
C4544 C4543 1.369 . S
C4544 C4553 1.429 . S
C4545 C4543 1.419 . S
C4545 C4546 1.363 . S
C4545 H4548 0.929 . S
C4546 C4545 1.363 . S
C4546 C4552 1.428 . S
H4547 C4543 0.930 . S
H4548 C4545 0.929 . S
S4549 N4550 1.613 . S
S4549 N4551 1.610 . S
N4550 S4549 1.613 . S
N4550 C4553 1.350 . S
N4551 S4549 1.610 . S
N4551 C4552 1.351 . S
C4552 C4546 1.428 . S
C4552 N4551 1.351 . S
C4552 C4553 1.434 . S
C4553 C4544 1.429 . S
C4553 N4550 1.350 . S
C4553 C4552 1.434 . S
C4554 C4555 1.369 . S
C4554 C4556 1.419 . S
C4554 H4558 0.930 . S
C4555 C4554 1.369 . S
C4555 C4564 1.429 . S
C4556 C4554 1.419 . S
C4556 C4557 1.363 . S
C4556 H4559 0.929 . S
C4557 C4556 1.363 . S
C4557 C4563 1.428 . S
H4558 C4554 0.930 . S
H4559 C4556 0.929 . S
S4560 N4561 1.613 . S
S4560 N4562 1.610 . S
N4561 S4560 1.613 . S
N4561 C4564 1.350 . S
N4562 S4560 1.610 . S
N4562 C4563 1.351 . S
C4563 C4557 1.428 . S
C4563 N4562 1.351 . S
C4563 C4564 1.434 . S
C4564 C4555 1.429 . S
C4564 N4561 1.350 . S
C4564 C4563 1.434 . S
C4565 C4566 1.369 . S
C4565 C4567 1.419 . S
C4565 H4569 0.930 . S
C4566 C4565 1.369 . S
C4566 C4575 1.429 . S
C4567 C4565 1.419 . S
C4567 C4568 1.363 . S
C4567 H4570 0.929 . S
C4568 C4567 1.363 . S
C4568 C4574 1.428 . S
H4569 C4565 0.930 . S
H4570 C4567 0.929 . S
S4571 N4572 1.613 . S
S4571 N4573 1.610 . S
N4572 S4571 1.613 . S
N4572 C4575 1.350 . S
N4573 S4571 1.610 . S
N4573 C4574 1.351 . S
C4574 C4568 1.428 . S
C4574 N4573 1.351 . S
C4574 C4575 1.434 . S
C4575 C4566 1.429 . S
C4575 N4572 1.350 . S
C4575 C4574 1.434 . S
C4576 C4577 1.369 . S
C4576 C4578 1.419 . S
C4576 H4580 0.930 . S
C4577 C4576 1.369 . S
C4577 C4586 1.429 . S
C4578 C4576 1.419 . S
C4578 C4579 1.363 . S
C4578 H4581 0.929 . S
C4579 C4578 1.363 . S
C4579 C4585 1.428 . S
H4580 C4576 0.930 . S
H4581 C4578 0.929 . S
S4582 N4583 1.613 . S
S4582 N4584 1.610 . S
N4583 S4582 1.613 . S
N4583 C4586 1.350 . S
N4584 S4582 1.610 . S
N4584 C4585 1.351 . S
C4585 C4579 1.428 . S
C4585 N4584 1.351 . S
C4585 C4586 1.434 . S
C4586 C4577 1.429 . S
C4586 N4583 1.350 . S
C4586 C4585 1.434 . S
C4587 C4588 1.369 . S
C4587 C4589 1.419 . S
C4587 H4591 0.930 . S
C4588 C4587 1.369 . S
C4588 C4597 1.429 . S
C4589 C4587 1.419 . S
C4589 C4590 1.363 . S
C4589 H4592 0.929 . S
C4590 C4589 1.363 . S
C4590 C4596 1.428 . S
H4591 C4587 0.930 . S
H4592 C4589 0.929 . S
S4593 N4594 1.613 . S
S4593 N4595 1.610 . S
N4594 S4593 1.613 . S
N4594 C4597 1.350 . S
N4595 S4593 1.610 . S
N4595 C4596 1.351 . S
C4596 C4590 1.428 . S
C4596 N4595 1.351 . S
C4596 C4597 1.434 . S
C4597 C4588 1.429 . S
C4597 N4594 1.350 . S
C4597 C4596 1.434 . S
C4598 C4599 1.369 . S
C4598 C4600 1.419 . S
C4598 H4602 0.930 . S
C4599 C4598 1.369 . S
C4599 C4608 1.429 . S
C4600 C4598 1.419 . S
C4600 C4601 1.363 . S
C4600 H4603 0.929 . S
C4601 C4600 1.363 . S
C4601 C4607 1.428 . S
H4602 C4598 0.930 . S
H4603 C4600 0.929 . S
S4604 N4605 1.613 . S
S4604 N4606 1.610 . S
N4605 S4604 1.613 . S
N4605 C4608 1.350 . S
N4606 S4604 1.610 . S
N4606 C4607 1.351 . S
C4607 C4601 1.428 . S
C4607 N4606 1.351 . S
C4607 C4608 1.434 . S
C4608 C4599 1.429 . S
C4608 N4605 1.350 . S
C4608 C4607 1.434 . S
C4609 C4610 1.369 . S
C4609 C4611 1.419 . S
C4609 H4613 0.930 . S
C4610 C4609 1.369 . S
C4610 C4619 1.429 . S
C4611 C4609 1.419 . S
C4611 C4612 1.363 . S
C4611 H4614 0.929 . S
C4612 C4611 1.363 . S
C4612 C4618 1.428 . S
H4613 C4609 0.930 . S
H4614 C4611 0.929 . S
S4615 N4616 1.613 . S
S4615 N4617 1.610 . S
N4616 S4615 1.613 . S
N4616 C4619 1.350 . S
N4617 S4615 1.610 . S
N4617 C4618 1.351 . S
C4618 C4612 1.428 . S
C4618 N4617 1.351 . S
C4618 C4619 1.434 . S
C4619 C4610 1.429 . S
C4619 N4616 1.350 . S
C4619 C4618 1.434 . S
C4620 C4621 1.369 . S
C4620 C4622 1.419 . S
C4620 H4624 0.930 . S
C4621 C4620 1.369 . S
C4621 C4630 1.429 . S
C4622 C4620 1.419 . S
C4622 C4623 1.363 . S
C4622 H4625 0.929 . S
C4623 C4622 1.363 . S
C4623 C4629 1.428 . S
H4624 C4620 0.930 . S
H4625 C4622 0.929 . S
S4626 N4627 1.613 . S
S4626 N4628 1.610 . S
N4627 S4626 1.613 . S
N4627 C4630 1.350 . S
N4628 S4626 1.610 . S
N4628 C4629 1.351 . S
C4629 C4623 1.428 . S
C4629 N4628 1.351 . S
C4629 C4630 1.434 . S
C4630 C4621 1.429 . S
C4630 N4627 1.350 . S
C4630 C4629 1.434 . S
C4631 C4632 1.369 . S
C4631 C4633 1.419 . S
C4631 H4635 0.930 . S
C4632 C4631 1.369 . S
C4632 C4641 1.429 . S
C4633 C4631 1.419 . S
C4633 C4634 1.363 . S
C4633 H4636 0.929 . S
C4634 C4633 1.363 . S
C4634 C4640 1.428 . S
H4635 C4631 0.930 . S
H4636 C4633 0.929 . S
S4637 N4638 1.613 . S
S4637 N4639 1.610 . S
N4638 S4637 1.613 . S
N4638 C4641 1.350 . S
N4639 S4637 1.610 . S
N4639 C4640 1.351 . S
C4640 C4634 1.428 . S
C4640 N4639 1.351 . S
C4640 C4641 1.434 . S
C4641 C4632 1.429 . S
C4641 N4638 1.350 . S
C4641 C4640 1.434 . S
C4642 C4643 1.369 . S
C4642 C4644 1.419 . S
C4642 H4646 0.930 . S
C4643 C4642 1.369 . S
C4643 C4652 1.429 . S
C4644 C4642 1.419 . S
C4644 C4645 1.363 . S
C4644 H4647 0.929 . S
C4645 C4644 1.363 . S
C4645 C4651 1.428 . S
H4646 C4642 0.930 . S
H4647 C4644 0.929 . S
S4648 N4649 1.613 . S
S4648 N4650 1.610 . S
N4649 S4648 1.613 . S
N4649 C4652 1.350 . S
N4650 S4648 1.610 . S
N4650 C4651 1.351 . S
C4651 C4645 1.428 . S
C4651 N4650 1.351 . S
C4651 C4652 1.434 . S
C4652 C4643 1.429 . S
C4652 N4649 1.350 . S
C4652 C4651 1.434 . S
C4653 C4654 1.369 . S
C4653 C4655 1.419 . S
C4653 H4657 0.930 . S
C4654 C4653 1.369 . S
C4654 C4663 1.429 . S
C4655 C4653 1.419 . S
C4655 C4656 1.363 . S
C4655 H4658 0.929 . S
C4656 C4655 1.363 . S
C4656 C4662 1.428 . S
H4657 C4653 0.930 . S
H4658 C4655 0.929 . S
S4659 N4660 1.613 . S
S4659 N4661 1.610 . S
N4660 S4659 1.613 . S
N4660 C4663 1.350 . S
N4661 S4659 1.610 . S
N4661 C4662 1.351 . S
C4662 C4656 1.428 . S
C4662 N4661 1.351 . S
C4662 C4663 1.434 . S
C4663 C4654 1.429 . S
C4663 N4660 1.350 . S
C4663 C4662 1.434 . S
C4664 C4665 1.369 . S
C4664 C4666 1.419 . S
C4664 H4668 0.930 . S
C4665 C4664 1.369 . S
C4665 C4674 1.429 . S
C4666 C4664 1.419 . S
C4666 C4667 1.363 . S
C4666 H4669 0.929 . S
C4667 C4666 1.363 . S
C4667 C4673 1.428 . S
H4668 C4664 0.930 . S
H4669 C4666 0.929 . S
S4670 N4671 1.613 . S
S4670 N4672 1.610 . S
N4671 S4670 1.613 . S
N4671 C4674 1.350 . S
N4672 S4670 1.610 . S
N4672 C4673 1.351 . S
C4673 C4667 1.428 . S
C4673 N4672 1.351 . S
C4673 C4674 1.434 . S
C4674 C4665 1.429 . S
C4674 N4671 1.350 . S
C4674 C4673 1.434 . S
C4675 C4676 1.369 . S
C4675 C4677 1.419 . S
C4675 H4679 0.930 . S
C4676 C4675 1.369 . S
C4676 C4685 1.429 . S
C4677 C4675 1.419 . S
C4677 C4678 1.363 . S
C4677 H4680 0.929 . S
C4678 C4677 1.363 . S
C4678 C4684 1.428 . S
H4679 C4675 0.930 . S
H4680 C4677 0.929 . S
S4681 N4682 1.613 . S
S4681 N4683 1.610 . S
N4682 S4681 1.613 . S
N4682 C4685 1.350 . S
N4683 S4681 1.610 . S
N4683 C4684 1.351 . S
C4684 C4678 1.428 . S
C4684 N4683 1.351 . S
C4684 C4685 1.434 . S
C4685 C4676 1.429 . S
C4685 N4682 1.350 . S
C4685 C4684 1.434 . S
C4686 C4687 1.369 . S
C4686 C4688 1.419 . S
C4686 H4690 0.930 . S
C4687 C4686 1.369 . S
C4687 C4696 1.429 . S
C4688 C4686 1.419 . S
C4688 C4689 1.363 . S
C4688 H4691 0.929 . S
C4689 C4688 1.363 . S
C4689 C4695 1.428 . S
H4690 C4686 0.930 . S
H4691 C4688 0.929 . S
S4692 N4693 1.613 . S
S4692 N4694 1.610 . S
N4693 S4692 1.613 . S
N4693 C4696 1.350 . S
N4694 S4692 1.610 . S
N4694 C4695 1.351 . S
C4695 C4689 1.428 . S
C4695 N4694 1.351 . S
C4695 C4696 1.434 . S
C4696 C4687 1.429 . S
C4696 N4693 1.350 . S
C4696 C4695 1.434 . S
C4697 C4698 1.369 . S
C4697 C4699 1.419 . S
C4697 H4701 0.930 . S
C4698 C4697 1.369 . S
C4698 C4707 1.429 . S
C4699 C4697 1.419 . S
C4699 C4700 1.363 . S
C4699 H4702 0.929 . S
C4700 C4699 1.363 . S
C4700 C4706 1.428 . S
H4701 C4697 0.930 . S
H4702 C4699 0.929 . S
S4703 N4704 1.613 . S
S4703 N4705 1.610 . S
N4704 S4703 1.613 . S
N4704 C4707 1.350 . S
N4705 S4703 1.610 . S
N4705 C4706 1.351 . S
C4706 C4700 1.428 . S
C4706 N4705 1.351 . S
C4706 C4707 1.434 . S
C4707 C4698 1.429 . S
C4707 N4704 1.350 . S
C4707 C4706 1.434 . S
C4708 C4709 1.369 . S
C4708 C4710 1.419 . S
C4708 H4712 0.930 . S
C4709 C4708 1.369 . S
C4709 C4718 1.429 . S
C4710 C4708 1.419 . S
C4710 C4711 1.363 . S
C4710 H4713 0.929 . S
C4711 C4710 1.363 . S
C4711 C4717 1.428 . S
H4712 C4708 0.930 . S
H4713 C4710 0.929 . S
S4714 N4715 1.613 . S
S4714 N4716 1.610 . S
N4715 S4714 1.613 . S
N4715 C4718 1.350 . S
N4716 S4714 1.610 . S
N4716 C4717 1.351 . S
C4717 C4711 1.428 . S
C4717 N4716 1.351 . S
C4717 C4718 1.434 . S
C4718 C4709 1.429 . S
C4718 N4715 1.350 . S
C4718 C4717 1.434 . S
C4719 C4720 1.369 . S
C4719 C4721 1.419 . S
C4719 H4723 0.930 . S
C4720 C4719 1.369 . S
C4720 C4729 1.429 . S
C4721 C4719 1.419 . S
C4721 C4722 1.363 . S
C4721 H4724 0.929 . S
C4722 C4721 1.363 . S
C4722 C4728 1.428 . S
H4723 C4719 0.930 . S
H4724 C4721 0.929 . S
S4725 N4726 1.613 . S
S4725 N4727 1.610 . S
N4726 S4725 1.613 . S
N4726 C4729 1.350 . S
N4727 S4725 1.610 . S
N4727 C4728 1.351 . S
C4728 C4722 1.428 . S
C4728 N4727 1.351 . S
C4728 C4729 1.434 . S
C4729 C4720 1.429 . S
C4729 N4726 1.350 . S
C4729 C4728 1.434 . S
C4730 C4731 1.369 . S
C4730 C4732 1.419 . S
C4730 H4734 0.930 . S
C4731 C4730 1.369 . S
C4731 C4740 1.429 . S
C4732 C4730 1.419 . S
C4732 C4733 1.363 . S
C4732 H4735 0.929 . S
C4733 C4732 1.363 . S
C4733 C4739 1.428 . S
H4734 C4730 0.930 . S
H4735 C4732 0.929 . S
S4736 N4737 1.613 . S
S4736 N4738 1.610 . S
N4737 S4736 1.613 . S
N4737 C4740 1.350 . S
N4738 S4736 1.610 . S
N4738 C4739 1.351 . S
C4739 C4733 1.428 . S
C4739 N4738 1.351 . S
C4739 C4740 1.434 . S
C4740 C4731 1.429 . S
C4740 N4737 1.350 . S
C4740 C4739 1.434 . S
C4741 C4742 1.369 . S
C4741 C4743 1.419 . S
C4741 H4745 0.930 . S
C4742 C4741 1.369 . S
C4742 C4751 1.429 . S
C4743 C4741 1.419 . S
C4743 C4744 1.363 . S
C4743 H4746 0.929 . S
C4744 C4743 1.363 . S
C4744 C4750 1.428 . S
H4745 C4741 0.930 . S
H4746 C4743 0.929 . S
S4747 N4748 1.613 . S
S4747 N4749 1.610 . S
N4748 S4747 1.613 . S
N4748 C4751 1.350 . S
N4749 S4747 1.610 . S
N4749 C4750 1.351 . S
C4750 C4744 1.428 . S
C4750 N4749 1.351 . S
C4750 C4751 1.434 . S
C4751 C4742 1.429 . S
C4751 N4748 1.350 . S
C4751 C4750 1.434 . S
C4752 C4753 1.369 . S
C4752 C4754 1.419 . S
C4752 H4756 0.930 . S
C4753 C4752 1.369 . S
C4753 C4762 1.429 . S
C4754 C4752 1.419 . S
C4754 C4755 1.363 . S
C4754 H4757 0.929 . S
C4755 C4754 1.363 . S
C4755 C4761 1.428 . S
H4756 C4752 0.930 . S
H4757 C4754 0.929 . S
S4758 N4759 1.613 . S
S4758 N4760 1.610 . S
N4759 S4758 1.613 . S
N4759 C4762 1.350 . S
N4760 S4758 1.610 . S
N4760 C4761 1.351 . S
C4761 C4755 1.428 . S
C4761 N4760 1.351 . S
C4761 C4762 1.434 . S
C4762 C4753 1.429 . S
C4762 N4759 1.350 . S
C4762 C4761 1.434 . S
C4763 C4764 1.369 . S
C4763 C4765 1.419 . S
C4763 H4767 0.930 . S
C4764 C4763 1.369 . S
C4764 C4773 1.429 . S
C4765 C4763 1.419 . S
C4765 C4766 1.363 . S
C4765 H4768 0.929 . S
C4766 C4765 1.363 . S
C4766 C4772 1.428 . S
H4767 C4763 0.930 . S
H4768 C4765 0.929 . S
S4769 N4770 1.613 . S
S4769 N4771 1.610 . S
N4770 S4769 1.613 . S
N4770 C4773 1.350 . S
N4771 S4769 1.610 . S
N4771 C4772 1.351 . S
C4772 C4766 1.428 . S
C4772 N4771 1.351 . S
C4772 C4773 1.434 . S
C4773 C4764 1.429 . S
C4773 N4770 1.350 . S
C4773 C4772 1.434 . S
C4774 C4775 1.369 . S
C4774 C4776 1.419 . S
C4774 H4778 0.930 . S
C4775 C4774 1.369 . S
C4775 C4784 1.429 . S
C4776 C4774 1.419 . S
C4776 C4777 1.363 . S
C4776 H4779 0.929 . S
C4777 C4776 1.363 . S
C4777 C4783 1.428 . S
H4778 C4774 0.930 . S
H4779 C4776 0.929 . S
S4780 N4781 1.613 1_554 S
S4780 N4782 1.610 . S
N4781 S4780 1.613 1_556 S
N4781 C4784 1.350 1_556 S
N4782 S4780 1.610 . S
N4782 C4783 1.351 . S
C4783 C4777 1.428 . S
C4783 N4782 1.351 . S
C4783 C4784 1.434 . S
C4784 C4775 1.429 . S
C4784 N4781 1.350 1_554 S
C4784 C4783 1.434 . S
C4785 C4786 1.369 . S
C4785 C4787 1.419 . S
C4785 H4789 0.930 . S
C4786 C4785 1.369 . S
C4786 C4795 1.429 . S
C4787 C4785 1.419 . S
C4787 C4788 1.363 . S
C4787 H4790 0.929 . S
C4788 C4787 1.363 . S
C4788 C4794 1.428 . S
H4789 C4785 0.930 . S
H4790 C4787 0.929 . S
S4791 N4792 1.613 . S
S4791 N4793 1.610 . S
N4792 S4791 1.613 . S
N4792 C4795 1.350 . S
N4793 S4791 1.610 . S
N4793 C4794 1.351 . S
C4794 C4788 1.428 . S
C4794 N4793 1.351 . S
C4794 C4795 1.434 . S
C4795 C4786 1.429 . S
C4795 N4792 1.350 . S
C4795 C4794 1.434 . S
C4796 C4797 1.369 . S
C4796 C4798 1.419 . S
C4796 H4800 0.930 . S
C4797 C4796 1.369 . S
C4797 C4806 1.429 . S
C4798 C4796 1.419 . S
C4798 C4799 1.363 . S
C4798 H4801 0.929 . S
C4799 C4798 1.363 . S
C4799 C4805 1.428 . S
H4800 C4796 0.930 . S
H4801 C4798 0.929 . S
S4802 N4803 1.613 . S
S4802 N4804 1.610 . S
N4803 S4802 1.613 . S
N4803 C4806 1.350 . S
N4804 S4802 1.610 . S
N4804 C4805 1.351 . S
C4805 C4799 1.428 . S
C4805 N4804 1.351 . S
C4805 C4806 1.434 . S
C4806 C4797 1.429 . S
C4806 N4803 1.350 . S
C4806 C4805 1.434 . S
C4807 C4808 1.369 . S
C4807 C4809 1.419 . S
C4807 H4811 0.930 . S
C4808 C4807 1.369 . S
C4808 C4817 1.429 . S
C4809 C4807 1.419 . S
C4809 C4810 1.363 . S
C4809 H4812 0.929 . S
C4810 C4809 1.363 . S
C4810 C4816 1.428 . S
H4811 C4807 0.930 . S
H4812 C4809 0.929 . S
S4813 N4814 1.615 1_556 S
S4813 N4815 1.605 . S
N4814 S4813 1.615 1_554 S
N4814 C4817 1.350 1_554 S
N4815 S4813 1.605 . S
N4815 C4816 1.351 . S
C4816 C4810 1.428 . S
C4816 N4815 1.351 . S
C4816 C4817 1.434 . S
C4817 C4808 1.429 . S
C4817 N4814 1.350 1_556 S
C4817 C4816 1.434 . S
C4818 C4819 1.369 . S
C4818 C4820 1.419 . S
C4818 H4822 0.930 . S
C4819 C4818 1.369 . S
C4819 C4828 1.429 . S
C4820 C4818 1.419 . S
C4820 C4821 1.363 . S
C4820 H4823 0.929 . S
C4821 C4820 1.363 . S
C4821 C4827 1.428 . S
H4822 C4818 0.930 . S
H4823 C4820 0.929 . S
S4824 N4825 1.613 . S
S4824 N4826 1.610 . S
N4825 S4824 1.613 . S
N4825 C4828 1.350 . S
N4826 S4824 1.610 . S
N4826 C4827 1.351 . S
C4827 C4821 1.428 . S
C4827 N4826 1.351 . S
C4827 C4828 1.434 . S
C4828 C4819 1.429 . S
C4828 N4825 1.350 . S
C4828 C4827 1.434 . S
C4829 C4830 1.369 . S
C4829 C4831 1.419 . S
C4829 H4833 0.930 . S
C4830 C4829 1.369 . S
C4830 C4839 1.429 . S
C4831 C4829 1.419 . S
C4831 C4832 1.363 . S
C4831 H4834 0.929 . S
C4832 C4831 1.363 . S
C4832 C4838 1.428 . S
H4833 C4829 0.930 . S
H4834 C4831 0.929 . S
S4835 N4836 1.613 . S
S4835 N4837 1.610 . S
N4836 S4835 1.613 . S
N4836 C4839 1.350 . S
N4837 S4835 1.610 . S
N4837 C4838 1.351 . S
C4838 C4832 1.428 . S
C4838 N4837 1.351 . S
C4838 C4839 1.434 . S
C4839 C4830 1.429 . S
C4839 N4836 1.350 . S
C4839 C4838 1.434 . S
C4840 C4841 1.369 . S
C4840 C4842 1.419 . S
C4840 H4844 0.930 . S
C4841 C4840 1.369 . S
C4841 C4850 1.429 . S
C4842 C4840 1.419 . S
C4842 C4843 1.363 . S
C4842 H4845 0.929 . S
C4843 C4842 1.363 . S
C4843 C4849 1.428 . S
H4844 C4840 0.930 . S
H4845 C4842 0.929 . S
S4846 N4847 1.613 . S
S4846 N4848 1.610 . S
N4847 S4846 1.613 . S
N4847 C4850 1.350 . S
N4848 S4846 1.610 . S
N4848 C4849 1.351 . S
C4849 C4843 1.428 . S
C4849 N4848 1.351 . S
C4849 C4850 1.434 . S
C4850 C4841 1.429 . S
C4850 N4847 1.350 . S
C4850 C4849 1.434 . S
C4851 C4852 1.369 . S
C4851 C4853 1.419 . S
C4851 H4855 0.930 . S
C4852 C4851 1.369 . S
C4852 C4861 1.429 . S
C4853 C4851 1.419 . S
C4853 C4854 1.363 . S
C4853 H4856 0.929 . S
C4854 C4853 1.363 . S
C4854 C4860 1.428 . S
H4855 C4851 0.930 . S
H4856 C4853 0.929 . S
S4857 N4858 1.613 . S
S4857 N4859 1.610 . S
N4858 S4857 1.613 . S
N4858 C4861 1.350 . S
N4859 S4857 1.610 . S
N4859 C4860 1.351 . S
C4860 C4854 1.428 . S
C4860 N4859 1.351 . S
C4860 C4861 1.434 . S
C4861 C4852 1.429 . S
C4861 N4858 1.350 . S
C4861 C4860 1.434 . S
C4862 C4863 1.369 . S
C4862 C4864 1.419 . S
C4862 H4866 0.930 . S
C4863 C4862 1.369 . S
C4863 C4872 1.429 . S
C4864 C4862 1.419 . S
C4864 C4865 1.363 . S
C4864 H4867 0.929 . S
C4865 C4864 1.363 . S
C4865 C4871 1.428 . S
H4866 C4862 0.930 . S
H4867 C4864 0.929 . S
S4868 N4869 1.613 . S
S4868 N4870 1.610 . S
N4869 S4868 1.613 . S
N4869 C4872 1.350 . S
N4870 S4868 1.610 . S
N4870 C4871 1.351 . S
C4871 C4865 1.428 . S
C4871 N4870 1.351 . S
C4871 C4872 1.434 . S
C4872 C4863 1.429 . S
C4872 N4869 1.350 . S
C4872 C4871 1.434 . S
C4873 C4874 1.369 . S
C4873 C4875 1.419 . S
C4873 H4877 0.930 . S
C4874 C4873 1.369 . S
C4874 C4883 1.429 . S
C4875 C4873 1.419 . S
C4875 C4876 1.363 . S
C4875 H4878 0.929 . S
C4876 C4875 1.363 . S
C4876 C4882 1.428 . S
H4877 C4873 0.930 . S
H4878 C4875 0.929 . S
S4879 N4880 1.613 . S
S4879 N4881 1.610 . S
N4880 S4879 1.613 . S
N4880 C4883 1.350 . S
N4881 S4879 1.610 . S
N4881 C4882 1.351 . S
C4882 C4876 1.428 . S
C4882 N4881 1.351 . S
C4882 C4883 1.434 . S
C4883 C4874 1.429 . S
C4883 N4880 1.350 . S
C4883 C4882 1.434 . S
C4884 C4885 1.369 . S
C4884 C4886 1.419 . S
C4884 H4888 0.930 . S
C4885 C4884 1.369 . S
C4885 C4894 1.429 . S
C4886 C4884 1.419 . S
C4886 C4887 1.363 . S
C4886 H4889 0.929 . S
C4887 C4886 1.363 . S
C4887 C4893 1.428 . S
H4888 C4884 0.930 . S
H4889 C4886 0.929 . S
S4890 N4891 1.613 . S
S4890 N4892 1.610 . S
N4891 S4890 1.613 . S
N4891 C4894 1.350 . S
N4892 S4890 1.610 . S
N4892 C4893 1.351 . S
C4893 C4887 1.428 . S
C4893 N4892 1.351 . S
C4893 C4894 1.434 . S
C4894 C4885 1.429 . S
C4894 N4891 1.350 . S
C4894 C4893 1.434 . S
C4895 C4896 1.369 . S
C4895 C4897 1.419 . S
C4895 H4899 0.930 . S
C4896 C4895 1.369 . S
C4896 C4905 1.429 . S
C4897 C4895 1.419 . S
C4897 C4898 1.363 . S
C4897 H4900 0.929 . S
C4898 C4897 1.363 . S
C4898 C4904 1.428 . S
H4899 C4895 0.930 . S
H4900 C4897 0.929 . S
S4901 N4902 1.613 . S
S4901 N4903 1.610 . S
N4902 S4901 1.613 . S
N4902 C4905 1.350 . S
N4903 S4901 1.610 . S
N4903 C4904 1.351 . S
C4904 C4898 1.428 . S
C4904 N4903 1.351 . S
C4904 C4905 1.434 . S
C4905 C4896 1.429 . S
C4905 N4902 1.350 . S
C4905 C4904 1.434 . S
C4906 C4907 1.369 . S
C4906 C4908 1.419 . S
C4906 H4910 0.930 . S
C4907 C4906 1.369 . S
C4907 C4916 1.429 . S
C4908 C4906 1.419 . S
C4908 C4909 1.363 . S
C4908 H4911 0.929 . S
C4909 C4908 1.363 . S
C4909 C4915 1.428 . S
H4910 C4906 0.930 . S
H4911 C4908 0.929 . S
S4912 N4913 1.613 . S
S4912 N4914 1.610 . S
N4913 S4912 1.613 . S
N4913 C4916 1.350 . S
N4914 S4912 1.610 . S
N4914 C4915 1.351 . S
C4915 C4909 1.428 . S
C4915 N4914 1.351 . S
C4915 C4916 1.434 . S
C4916 C4907 1.429 . S
C4916 N4913 1.350 . S
C4916 C4915 1.434 . S
C4917 C4918 1.369 . S
C4917 C4919 1.419 . S
C4917 H4921 0.930 . S
C4918 C4917 1.369 . S
C4918 C4927 1.429 . S
C4919 C4917 1.419 . S
C4919 C4920 1.363 . S
C4919 H4922 0.929 . S
C4920 C4919 1.363 . S
C4920 C4926 1.428 . S
H4921 C4917 0.930 . S
H4922 C4919 0.929 . S
S4923 N4924 1.613 . S
S4923 N4925 1.610 . S
N4924 S4923 1.613 . S
N4924 C4927 1.350 . S
N4925 S4923 1.610 . S
N4925 C4926 1.351 . S
C4926 C4920 1.428 . S
C4926 N4925 1.351 . S
C4926 C4927 1.434 . S
C4927 C4918 1.429 . S
C4927 N4924 1.350 . S
C4927 C4926 1.434 . S
C4928 C4929 1.369 . S
C4928 C4930 1.419 . S
C4928 H4932 0.930 1_455 S
C4929 C4928 1.369 . S
C4929 C4938 1.429 . S
C4930 C4928 1.419 . S
C4930 C4931 1.363 . S
C4930 H4933 0.929 . S
C4931 C4930 1.363 . S
C4931 C4937 1.428 . S
H4932 C4928 0.930 1_655 S
H4933 C4930 0.929 . S
S4934 N4935 1.613 . S
S4934 N4936 1.610 . S
N4935 S4934 1.613 . S
N4935 C4938 1.350 . S
N4936 S4934 1.610 . S
N4936 C4937 1.351 . S
C4937 C4931 1.428 . S
C4937 N4936 1.351 . S
C4937 C4938 1.434 . S
C4938 C4929 1.429 . S
C4938 N4935 1.350 . S
C4938 C4937 1.434 . S
C4939 C4940 1.369 . S
C4939 C4941 1.419 . S
C4939 H4943 0.930 . S
C4940 C4939 1.369 . S
C4940 C4949 1.429 . S
C4941 C4939 1.419 . S
C4941 C4942 1.363 . S
C4941 H4944 0.929 . S
C4942 C4941 1.363 . S
C4942 C4948 1.428 . S
H4943 C4939 0.930 . S
H4944 C4941 0.929 . S
S4945 N4946 1.613 . S
S4945 N4947 1.610 . S
N4946 S4945 1.613 . S
N4946 C4949 1.350 . S
N4947 S4945 1.610 . S
N4947 C4948 1.351 . S
C4948 C4942 1.428 . S
C4948 N4947 1.351 . S
C4948 C4949 1.434 . S
C4949 C4940 1.429 . S
C4949 N4946 1.350 . S
C4949 C4948 1.434 . S
C4950 C4951 1.369 . S
C4950 C4952 1.419 . S
C4950 H4954 0.930 . S
C4951 C4950 1.369 . S
C4951 C4960 1.429 . S
C4952 C4950 1.419 . S
C4952 C4953 1.363 . S
C4952 H4955 0.929 . S
C4953 C4952 1.363 . S
C4953 C4959 1.428 . S
H4954 C4950 0.930 . S
H4955 C4952 0.929 . S
S4956 N4957 1.613 . S
S4956 N4958 1.610 . S
N4957 S4956 1.613 . S
N4957 C4960 1.350 . S
N4958 S4956 1.610 . S
N4958 C4959 1.351 . S
C4959 C4953 1.428 . S
C4959 N4958 1.351 . S
C4959 C4960 1.434 . S
C4960 C4951 1.429 . S
C4960 N4957 1.350 . S
C4960 C4959 1.434 . S
C4961 C4962 1.369 . S
C4961 C4963 1.419 . S
C4961 H4965 0.930 . S
C4962 C4961 1.369 . S
C4962 C4971 1.429 . S
C4963 C4961 1.419 . S
C4963 C4964 1.363 . S
C4963 H4966 0.929 1_545 S
C4964 C4963 1.363 . S
C4964 C4970 1.428 . S
H4965 C4961 0.930 . S
H4966 C4963 0.929 1_565 S
S4967 N4968 1.613 . S
S4967 N4969 1.610 . S
N4968 S4967 1.613 . S
N4968 C4971 1.350 . S
N4969 S4967 1.610 . S
N4969 C4970 1.351 . S
C4970 C4964 1.428 . S
C4970 N4969 1.351 . S
C4970 C4971 1.434 . S
C4971 C4962 1.429 . S
C4971 N4968 1.350 . S
C4971 C4970 1.434 . S
C4972 C4973 1.369 . S
C4972 C4974 1.419 . S
C4972 H4976 0.930 . S
C4973 C4972 1.369 . S
C4973 C4982 1.429 . S
C4974 C4972 1.419 . S
C4974 C4975 1.363 . S
C4974 H4977 0.929 . S
C4975 C4974 1.363 . S
C4975 C4981 1.428 . S
H4976 C4972 0.930 . S
H4977 C4974 0.929 . S
S4978 N4979 1.613 . S
S4978 N4980 1.610 . S
N4979 S4978 1.613 . S
N4979 C4982 1.350 . S
N4980 S4978 1.610 . S
N4980 C4981 1.351 . S
C4981 C4975 1.428 . S
C4981 N4980 1.351 . S
C4981 C4982 1.434 . S
C4982 C4973 1.429 . S
C4982 N4979 1.350 . S
C4982 C4981 1.434 . S
C4983 C4984 1.369 . S
C4983 C4985 1.419 . S
C4983 H4987 0.930 . S
C4984 C4983 1.369 . S
C4984 C4993 1.429 . S
C4985 C4983 1.419 . S
C4985 C4986 1.363 . S
C4985 H4988 0.929 . S
C4986 C4985 1.363 . S
C4986 C4992 1.428 . S
H4987 C4983 0.930 . S
H4988 C4985 0.929 . S
S4989 N4990 1.613 . S
S4989 N4991 1.610 . S
N4990 S4989 1.613 . S
N4990 C4993 1.350 . S
N4991 S4989 1.610 . S
N4991 C4992 1.351 . S
C4992 C4986 1.428 . S
C4992 N4991 1.351 . S
C4992 C4993 1.434 . S
C4993 C4984 1.429 . S
C4993 N4990 1.350 . S
C4993 C4992 1.434 . S
C4994 C4995 1.369 . S
C4994 C4996 1.419 . S
C4994 H4998 0.930 . S
C4995 C4994 1.369 . S
C4995 C5004 1.429 . S
C4996 C4994 1.419 . S
C4996 C4997 1.363 . S
C4996 H4999 0.929 1_565 S
C4997 C4996 1.363 . S
C4997 C5003 1.428 . S
H4998 C4994 0.930 . S
H4999 C4996 0.929 1_545 S
S5000 N5001 1.613 . S
S5000 N5002 1.610 . S
N5001 S5000 1.613 . S
N5001 C5004 1.350 . S
N5002 S5000 1.610 . S
N5002 C5003 1.351 . S
C5003 C4997 1.428 . S
C5003 N5002 1.351 . S
C5003 C5004 1.434 . S
C5004 C4995 1.429 . S
C5004 N5001 1.350 . S
C5004 C5003 1.434 . S
C5005 C5006 1.369 . S
C5005 C5007 1.419 . S
C5005 H5009 0.930 . S
C5006 C5005 1.369 . S
C5006 C5015 1.429 . S
C5007 C5005 1.419 . S
C5007 C5008 1.363 . S
C5007 H5010 0.929 . S
C5008 C5007 1.363 . S
C5008 C5014 1.428 . S
H5009 C5005 0.930 . S
H5010 C5007 0.929 . S
S5011 N5012 1.613 . S
S5011 N5013 1.610 . S
N5012 S5011 1.613 . S
N5012 C5015 1.350 . S
N5013 S5011 1.610 . S
N5013 C5014 1.351 . S
C5014 C5008 1.428 . S
C5014 N5013 1.351 . S
C5014 C5015 1.434 . S
C5015 C5006 1.429 . S
C5015 N5012 1.350 . S
C5015 C5014 1.434 . S
C5016 C5017 1.369 . S
C5016 C5018 1.419 . S
C5016 H5020 0.930 . S
C5017 C5016 1.369 . S
C5017 C5026 1.429 . S
C5018 C5016 1.419 . S
C5018 C5019 1.363 . S
C5018 H5021 0.929 1_565 S
C5019 C5018 1.363 . S
C5019 C5025 1.428 . S
H5020 C5016 0.930 . S
H5021 C5018 0.929 1_545 S
S5022 N5023 1.613 . S
S5022 N5024 1.610 . S
N5023 S5022 1.613 . S
N5023 C5026 1.350 . S
N5024 S5022 1.610 . S
N5024 C5025 1.351 . S
C5025 C5019 1.428 . S
C5025 N5024 1.351 . S
C5025 C5026 1.434 . S
C5026 C5017 1.429 . S
C5026 N5023 1.350 . S
C5026 C5025 1.434 . S
C5027 C5028 1.369 . S
C5027 C5029 1.419 . S
C5027 H5031 0.930 . S
C5028 C5027 1.369 . S
C5028 C5037 1.429 . S
C5029 C5027 1.419 . S
C5029 C5030 1.363 . S
C5029 H5032 0.929 . S
C5030 C5029 1.363 . S
C5030 C5036 1.428 . S
H5031 C5027 0.930 . S
H5032 C5029 0.929 . S
S5033 N5034 1.613 . S
S5033 N5035 1.610 1_455 S
N5034 S5033 1.613 . S
N5034 C5037 1.350 . S
N5035 S5033 1.610 1_655 S
N5035 C5036 1.351 1_655 S
C5036 C5030 1.428 . S
C5036 N5035 1.351 1_455 S
C5036 C5037 1.434 . S
C5037 C5028 1.429 . S
C5037 N5034 1.350 . S
C5037 C5036 1.434 . S
C5038 C5039 1.369 . S
C5038 C5040 1.419 . S
C5038 H5042 0.930 . S
C5039 C5038 1.369 . S
C5039 C5048 1.429 . S
C5040 C5038 1.419 . S
C5040 C5041 1.363 . S
C5040 H5043 0.929 . S
C5041 C5040 1.363 . S
C5041 C5047 1.428 . S
H5042 C5038 0.930 . S
H5043 C5040 0.929 . S
S5044 N5045 1.613 . S
S5044 N5046 1.610 . S
N5045 S5044 1.613 . S
N5045 C5048 1.350 . S
N5046 S5044 1.610 . S
N5046 C5047 1.351 . S
C5047 C5041 1.428 . S
C5047 N5046 1.351 . S
C5047 C5048 1.434 . S
C5048 C5039 1.429 . S
C5048 N5045 1.350 . S
C5048 C5047 1.434 . S
C5049 C5050 1.369 . S
C5049 C5051 1.419 . S
C5049 H5053 0.930 . S
C5050 C5049 1.369 . S
C5050 C5059 1.429 . S
C5051 C5049 1.419 . S
C5051 C5052 1.363 . S
C5051 H5054 0.929 . S
C5052 C5051 1.363 . S
C5052 C5058 1.428 . S
H5053 C5049 0.930 . S
H5054 C5051 0.929 . S
S5055 N5056 1.613 1_556 S
S5055 N5057 1.610 . S
N5056 S5055 1.613 1_554 S
N5056 C5059 1.350 . S
N5057 S5055 1.610 . S
N5057 C5058 1.351 1_556 S
C5058 C5052 1.428 . S
C5058 N5057 1.351 1_554 S
C5058 C5059 1.434 . S
C5059 C5050 1.429 . S
C5059 N5056 1.350 . S
C5059 C5058 1.434 . S
C5060 C5061 1.369 . S
C5060 C5062 1.419 . S
C5060 H5064 0.930 . S
C5061 C5060 1.369 . S
C5061 C5070 1.429 . S
C5062 C5060 1.419 . S
C5062 C5063 1.363 . S
C5062 H5065 0.929 . S
C5063 C5062 1.363 . S
C5063 C5069 1.428 . S
H5064 C5060 0.930 . S
H5065 C5062 0.929 . S
S5066 N5067 1.613 . S
S5066 N5068 1.610 . S
N5067 S5066 1.613 . S
N5067 C5070 1.350 . S
N5068 S5066 1.610 . S
N5068 C5069 1.351 . S
C5069 C5063 1.428 . S
C5069 N5068 1.351 . S
C5069 C5070 1.434 . S
C5070 C5061 1.429 . S
C5070 N5067 1.350 . S
C5070 C5069 1.434 . S
C5071 C5072 1.369 . S
C5071 C5073 1.419 . S
C5071 H5075 0.930 . S
C5072 C5071 1.369 . S
C5072 C5081 1.429 . S
C5073 C5071 1.419 . S
C5073 C5074 1.363 . S
C5073 H5076 0.929 . S
C5074 C5073 1.363 . S
C5074 C5080 1.428 . S
H5075 C5071 0.930 . S
H5076 C5073 0.929 . S
S5077 N5078 1.613 . S
S5077 N5079 1.610 . S
N5078 S5077 1.613 . S
N5078 C5081 1.350 . S
N5079 S5077 1.610 . S
N5079 C5080 1.351 . S
C5080 C5074 1.428 . S
C5080 N5079 1.351 . S
C5080 C5081 1.434 . S
C5081 C5072 1.429 . S
C5081 N5078 1.350 . S
C5081 C5080 1.434 . S
C5082 C5083 1.369 . S
C5082 C5084 1.419 . S
C5082 H5086 0.930 . S
C5083 C5082 1.369 . S
C5083 C5092 1.429 . S
C5084 C5082 1.419 . S
C5084 C5085 1.363 . S
C5084 H5087 0.929 . S
C5085 C5084 1.363 . S
C5085 C5091 1.428 . S
H5086 C5082 0.930 . S
H5087 C5084 0.929 . S
S5088 N5089 1.613 . S
S5088 N5090 1.610 . S
N5089 S5088 1.613 . S
N5089 C5092 1.350 . S
N5090 S5088 1.610 . S
N5090 C5091 1.351 . S
C5091 C5085 1.428 . S
C5091 N5090 1.351 . S
C5091 C5092 1.434 . S
C5092 C5083 1.429 . S
C5092 N5089 1.350 . S
C5092 C5091 1.434 . S
C5093 C5094 1.369 . S
C5093 C5095 1.419 . S
C5093 H5097 0.930 . S
C5094 C5093 1.369 . S
C5094 C5103 1.429 . S
C5095 C5093 1.419 . S
C5095 C5096 1.363 . S
C5095 H5098 0.929 . S
C5096 C5095 1.363 . S
C5096 C5102 1.428 . S
H5097 C5093 0.930 . S
H5098 C5095 0.929 . S
S5099 N5100 1.613 . S
S5099 N5101 1.610 . S
N5100 S5099 1.613 . S
N5100 C5103 1.350 . S
N5101 S5099 1.610 . S
N5101 C5102 1.351 . S
C5102 C5096 1.428 . S
C5102 N5101 1.351 . S
C5102 C5103 1.434 . S
C5103 C5094 1.429 . S
C5103 N5100 1.350 . S
C5103 C5102 1.434 . S
C5104 C5105 1.369 . S
C5104 C5106 1.419 . S
C5104 H5108 0.930 . S
C5105 C5104 1.369 . S
C5105 C5114 1.429 . S
C5106 C5104 1.419 . S
C5106 C5107 1.363 . S
C5106 H5109 0.929 . S
C5107 C5106 1.363 . S
C5107 C5113 1.428 . S
H5108 C5104 0.930 . S
H5109 C5106 0.929 . S
S5110 N5111 1.613 . S
S5110 N5112 1.610 . S
N5111 S5110 1.613 . S
N5111 C5114 1.350 . S
N5112 S5110 1.610 . S
N5112 C5113 1.351 . S
C5113 C5107 1.428 . S
C5113 N5112 1.351 . S
C5113 C5114 1.434 . S
C5114 C5105 1.429 . S
C5114 N5111 1.350 . S
C5114 C5113 1.434 . S
C5115 C5116 1.369 . S
C5115 C5117 1.419 . S
C5115 H5119 0.930 . S
C5116 C5115 1.369 . S
C5116 C5125 1.429 . S
C5117 C5115 1.419 . S
C5117 C5118 1.363 . S
C5117 H5120 0.929 . S
C5118 C5117 1.363 . S
C5118 C5124 1.428 . S
H5119 C5115 0.930 . S
H5120 C5117 0.929 . S
S5121 N5122 1.613 . S
S5121 N5123 1.610 . S
N5122 S5121 1.613 . S
N5122 C5125 1.350 . S
N5123 S5121 1.610 . S
N5123 C5124 1.351 . S
C5124 C5118 1.428 . S
C5124 N5123 1.351 . S
C5124 C5125 1.434 . S
C5125 C5116 1.429 . S
C5125 N5122 1.350 . S
C5125 C5124 1.434 . S
C5126 C5127 1.369 . S
C5126 C5128 1.419 . S
C5126 H5130 0.930 . S
C5127 C5126 1.369 . S
C5127 C5136 1.429 . S
C5128 C5126 1.419 . S
C5128 C5129 1.363 . S
C5128 H5131 0.929 . S
C5129 C5128 1.363 . S
C5129 C5135 1.428 . S
H5130 C5126 0.930 . S
H5131 C5128 0.929 . S
S5132 N5133 1.613 . S
S5132 N5134 1.610 . S
N5133 S5132 1.613 . S
N5133 C5136 1.350 . S
N5134 S5132 1.610 . S
N5134 C5135 1.351 . S
C5135 C5129 1.428 . S
C5135 N5134 1.351 . S
C5135 C5136 1.434 . S
C5136 C5127 1.429 . S
C5136 N5133 1.350 . S
C5136 C5135 1.434 . S
C5137 C5138 1.369 . S
C5137 C5139 1.419 . S
C5137 H5141 0.930 . S
C5138 C5137 1.369 . S
C5138 C5147 1.429 . S
C5139 C5137 1.419 . S
C5139 C5140 1.363 . S
C5139 H5142 0.929 . S
C5140 C5139 1.363 . S
C5140 C5146 1.428 . S
H5141 C5137 0.930 . S
H5142 C5139 0.929 . S
S5143 N5144 1.613 . S
S5143 N5145 1.610 . S
N5144 S5143 1.613 . S
N5144 C5147 1.350 . S
N5145 S5143 1.610 . S
N5145 C5146 1.351 . S
C5146 C5140 1.428 . S
C5146 N5145 1.351 . S
C5146 C5147 1.434 . S
C5147 C5138 1.429 . S
C5147 N5144 1.350 . S
C5147 C5146 1.434 . S
C5148 C5149 1.369 . S
C5148 C5150 1.419 . S
C5148 H5152 0.930 . S
C5149 C5148 1.369 . S
C5149 C5158 1.429 . S
C5150 C5148 1.419 . S
C5150 C5151 1.363 . S
C5150 H5153 0.929 . S
C5151 C5150 1.363 . S
C5151 C5157 1.428 . S
H5152 C5148 0.930 . S
H5153 C5150 0.929 . S
S5154 N5155 1.613 . S
S5154 N5156 1.610 . S
N5155 S5154 1.613 . S
N5155 C5158 1.350 . S
N5156 S5154 1.610 . S
N5156 C5157 1.351 . S
C5157 C5151 1.428 . S
C5157 N5156 1.351 . S
C5157 C5158 1.434 . S
C5158 C5149 1.429 . S
C5158 N5155 1.350 . S
C5158 C5157 1.434 . S
C5159 C5160 1.369 . S
C5159 C5161 1.419 . S
C5159 H5163 0.930 . S
C5160 C5159 1.369 . S
C5160 C5169 1.429 . S
C5161 C5159 1.419 . S
C5161 C5162 1.363 . S
C5161 H5164 0.929 . S
C5162 C5161 1.363 . S
C5162 C5168 1.428 . S
H5163 C5159 0.930 . S
H5164 C5161 0.929 . S
S5165 N5166 1.613 . S
S5165 N5167 1.610 . S
N5166 S5165 1.613 . S
N5166 C5169 1.350 . S
N5167 S5165 1.610 . S
N5167 C5168 1.351 . S
C5168 C5162 1.428 . S
C5168 N5167 1.351 . S
C5168 C5169 1.434 . S
C5169 C5160 1.429 . S
C5169 N5166 1.350 . S
C5169 C5168 1.434 . S
C5170 C5171 1.369 . S
C5170 C5172 1.419 . S
C5170 H5174 0.930 . S
C5171 C5170 1.369 . S
C5171 C5180 1.429 . S
C5172 C5170 1.419 . S
C5172 C5173 1.363 . S
C5172 H5175 0.929 . S
C5173 C5172 1.363 . S
C5173 C5179 1.428 . S
H5174 C5170 0.930 . S
H5175 C5172 0.929 . S
S5176 N5177 1.613 . S
S5176 N5178 1.610 . S
N5177 S5176 1.613 . S
N5177 C5180 1.350 . S
N5178 S5176 1.610 . S
N5178 C5179 1.351 . S
C5179 C5173 1.428 . S
C5179 N5178 1.351 . S
C5179 C5180 1.434 . S
C5180 C5171 1.429 . S
C5180 N5177 1.350 . S
C5180 C5179 1.434 . S
C5181 C5182 1.369 . S
C5181 C5183 1.419 . S
C5181 H5185 0.930 . S
C5182 C5181 1.369 . S
C5182 C5191 1.429 . S
C5183 C5181 1.419 . S
C5183 C5184 1.363 . S
C5183 H5186 0.929 . S
C5184 C5183 1.363 . S
C5184 C5190 1.428 . S
H5185 C5181 0.930 . S
H5186 C5183 0.929 . S
S5187 N5188 1.613 . S
S5187 N5189 1.610 . S
N5188 S5187 1.613 . S
N5188 C5191 1.350 . S
N5189 S5187 1.610 . S
N5189 C5190 1.351 . S
C5190 C5184 1.428 . S
C5190 N5189 1.351 . S
C5190 C5191 1.434 . S
C5191 C5182 1.429 . S
C5191 N5188 1.350 . S
C5191 C5190 1.434 . S
C5192 C5193 1.369 . S
C5192 C5194 1.419 . S
C5192 H5196 0.930 . S
C5193 C5192 1.369 . S
C5193 C5202 1.429 . S
C5194 C5192 1.419 . S
C5194 C5195 1.363 . S
C5194 H5197 0.929 . S
C5195 C5194 1.363 . S
C5195 C5201 1.428 . S
H5196 C5192 0.930 . S
H5197 C5194 0.929 . S
S5198 N5199 1.613 . S
S5198 N5200 1.610 . S
N5199 S5198 1.613 . S
N5199 C5202 1.350 . S
N5200 S5198 1.610 . S
N5200 C5201 1.351 . S
C5201 C5195 1.428 . S
C5201 N5200 1.351 . S
C5201 C5202 1.434 . S
C5202 C5193 1.429 . S
C5202 N5199 1.350 . S
C5202 C5201 1.434 . S
C5203 C5204 1.369 . S
C5203 C5205 1.419 . S
C5203 H5207 0.930 . S
C5204 C5203 1.369 . S
C5204 C5213 1.429 . S
C5205 C5203 1.419 . S
C5205 C5206 1.363 . S
C5205 H5208 0.929 . S
C5206 C5205 1.363 . S
C5206 C5212 1.428 . S
H5207 C5203 0.930 . S
H5208 C5205 0.929 . S
S5209 N5210 1.613 . S
S5209 N5211 1.610 . S
N5210 S5209 1.613 . S
N5210 C5213 1.350 . S
N5211 S5209 1.610 . S
N5211 C5212 1.351 . S
C5212 C5206 1.428 . S
C5212 N5211 1.351 . S
C5212 C5213 1.434 . S
C5213 C5204 1.429 . S
C5213 N5210 1.350 . S
C5213 C5212 1.434 . S
C5214 C5215 1.369 . S
C5214 C5216 1.419 . S
C5214 H5218 0.930 . S
C5215 C5214 1.369 . S
C5215 C5224 1.429 . S
C5216 C5214 1.419 . S
C5216 C5217 1.363 . S
C5216 H5219 0.929 . S
C5217 C5216 1.363 . S
C5217 C5223 1.428 . S
H5218 C5214 0.930 . S
H5219 C5216 0.929 . S
S5220 N5221 1.613 . S
S5220 N5222 1.610 . S
N5221 S5220 1.613 . S
N5221 C5224 1.350 . S
N5222 S5220 1.610 . S
N5222 C5223 1.351 . S
C5223 C5217 1.428 . S
C5223 N5222 1.351 . S
C5223 C5224 1.434 . S
C5224 C5215 1.429 . S
C5224 N5221 1.350 . S
C5224 C5223 1.434 . S
C5225 C5226 1.369 . S
C5225 C5227 1.419 . S
C5225 H5229 0.930 . S
C5226 C5225 1.369 . S
C5226 C5235 1.429 . S
C5227 C5225 1.419 . S
C5227 C5228 1.363 . S
C5227 H5230 0.929 . S
C5228 C5227 1.363 . S
C5228 C5234 1.428 . S
H5229 C5225 0.930 . S
H5230 C5227 0.929 . S
S5231 N5232 1.613 . S
S5231 N5233 1.610 . S
N5232 S5231 1.613 . S
N5232 C5235 1.350 . S
N5233 S5231 1.610 . S
N5233 C5234 1.351 . S
C5234 C5228 1.428 . S
C5234 N5233 1.351 . S
C5234 C5235 1.434 . S
C5235 C5226 1.429 . S
C5235 N5232 1.350 . S
C5235 C5234 1.434 . S
C5236 C5237 1.369 . S
C5236 C5238 1.419 . S
C5236 H5240 0.930 . S
C5237 C5236 1.369 . S
C5237 C5246 1.429 . S
C5238 C5236 1.419 . S
C5238 C5239 1.363 . S
C5238 H5241 0.929 . S
C5239 C5238 1.363 . S
C5239 C5245 1.428 . S
H5240 C5236 0.930 . S
H5241 C5238 0.929 . S
S5242 N5243 1.613 . S
S5242 N5244 1.610 . S
N5243 S5242 1.613 . S
N5243 C5246 1.350 . S
N5244 S5242 1.610 . S
N5244 C5245 1.351 . S
C5245 C5239 1.428 . S
C5245 N5244 1.351 . S
C5245 C5246 1.434 . S
C5246 C5237 1.429 . S
C5246 N5243 1.350 . S
C5246 C5245 1.434 . S
C5247 C5248 1.369 . S
C5247 C5249 1.419 . S
C5247 H5251 0.930 . S
C5248 C5247 1.369 . S
C5248 C5257 1.429 . S
C5249 C5247 1.419 . S
C5249 C5250 1.363 . S
C5249 H5252 0.929 . S
C5250 C5249 1.363 . S
C5250 C5256 1.428 . S
H5251 C5247 0.930 . S
H5252 C5249 0.929 . S
S5253 N5254 1.613 . S
S5253 N5255 1.610 . S
N5254 S5253 1.613 . S
N5254 C5257 1.350 . S
N5255 S5253 1.610 . S
N5255 C5256 1.351 . S
C5256 C5250 1.428 . S
C5256 N5255 1.351 . S
C5256 C5257 1.434 . S
C5257 C5248 1.429 . S
C5257 N5254 1.350 . S
C5257 C5256 1.434 . S
C5258 C5259 1.369 . S
C5258 C5260 1.419 . S
C5258 H5262 0.930 . S
C5259 C5258 1.369 . S
C5259 C5268 1.429 . S
C5260 C5258 1.419 . S
C5260 C5261 1.363 . S
C5260 H5263 0.929 . S
C5261 C5260 1.363 . S
C5261 C5267 1.428 . S
H5262 C5258 0.930 . S
H5263 C5260 0.929 . S
S5264 N5265 1.613 . S
S5264 N5266 1.610 . S
N5265 S5264 1.613 . S
N5265 C5268 1.350 . S
N5266 S5264 1.610 . S
N5266 C5267 1.351 . S
C5267 C5261 1.428 . S
C5267 N5266 1.351 . S
C5267 C5268 1.434 . S
C5268 C5259 1.429 . S
C5268 N5265 1.350 . S
C5268 C5267 1.434 . S
C5269 C5270 1.369 . S
C5269 C5271 1.419 . S
C5269 H5273 0.930 . S
C5270 C5269 1.369 . S
C5270 C5279 1.429 . S
C5271 C5269 1.419 . S
C5271 C5272 1.363 . S
C5271 H5274 0.929 . S
C5272 C5271 1.363 . S
C5272 C5278 1.428 . S
H5273 C5269 0.930 . S
H5274 C5271 0.929 . S
S5275 N5276 1.613 1_554 S
S5275 N5277 1.610 1_455 S
N5276 S5275 1.613 1_556 S
N5276 C5279 1.350 1_455 S
N5277 S5275 1.610 1_655 S
N5277 C5278 1.351 1_554 S
C5278 C5272 1.428 . S
C5278 N5277 1.351 1_556 S
C5278 C5279 1.434 . S
C5279 C5270 1.429 . S
C5279 N5276 1.350 1_655 S
C5279 C5278 1.434 . S
C5280 C5281 1.369 . S
C5280 C5282 1.419 . S
C5280 H5284 0.930 . S
C5281 C5280 1.369 . S
C5281 C5290 1.429 . S
C5282 C5280 1.419 . S
C5282 C5283 1.363 . S
C5282 H5285 0.929 . S
C5283 C5282 1.363 . S
C5283 C5289 1.428 . S
H5284 C5280 0.930 . S
H5285 C5282 0.929 . S
S5286 N5287 1.613 . S
S5286 N5288 1.610 . S
N5287 S5286 1.613 . S
N5287 C5290 1.350 . S
N5288 S5286 1.610 . S
N5288 C5289 1.351 . S
C5289 C5283 1.428 . S
C5289 N5288 1.351 . S
C5289 C5290 1.434 . S
C5290 C5281 1.429 . S
C5290 N5287 1.350 . S
C5290 C5289 1.434 . S
C5291 C5292 1.369 . S
C5291 C5293 1.419 . S
C5291 H5295 0.930 . S
C5292 C5291 1.369 . S
C5292 C5301 1.429 . S
C5293 C5291 1.419 . S
C5293 C5294 1.363 . S
C5293 H5296 0.929 . S
C5294 C5293 1.363 . S
C5294 C5300 1.428 . S
H5295 C5291 0.930 . S
H5296 C5293 0.929 . S
S5297 N5298 1.613 . S
S5297 N5299 1.610 . S
N5298 S5297 1.613 . S
N5298 C5301 1.350 . S
N5299 S5297 1.610 . S
N5299 C5300 1.351 . S
C5300 C5294 1.428 . S
C5300 N5299 1.351 . S
C5300 C5301 1.434 . S
C5301 C5292 1.429 . S
C5301 N5298 1.350 . S
C5301 C5300 1.434 . S
C5302 C5303 1.369 . S
C5302 C5304 1.419 . S
C5302 H5306 0.930 . S
C5303 C5302 1.369 . S
C5303 C5312 1.429 . S
C5304 C5302 1.419 . S
C5304 C5305 1.363 . S
C5304 H5307 0.929 . S
C5305 C5304 1.363 . S
C5305 C5311 1.428 . S
H5306 C5302 0.930 . S
H5307 C5304 0.929 . S
S5308 N5309 1.613 . S
S5308 N5310 1.610 1_545 S
N5309 S5308 1.613 . S
N5309 C5312 1.350 1_545 S
N5310 S5308 1.610 1_565 S
N5310 C5311 1.351 . S
C5311 C5305 1.428 . S
C5311 N5310 1.351 . S
C5311 C5312 1.434 . S
C5312 C5303 1.429 . S
C5312 N5309 1.350 1_565 S
C5312 C5311 1.434 . S
C5313 C5314 1.369 . S
C5313 C5315 1.419 . S
C5313 H5317 0.930 . S
C5314 C5313 1.369 . S
C5314 C5323 1.429 . S
C5315 C5313 1.419 . S
C5315 C5316 1.363 . S
C5315 H5318 0.929 . S
C5316 C5315 1.363 . S
C5316 C5322 1.428 . S
H5317 C5313 0.930 . S
H5318 C5315 0.929 . S
S5319 N5320 1.613 . S
S5319 N5321 1.610 . S
N5320 S5319 1.613 . S
N5320 C5323 1.350 . S
N5321 S5319 1.610 . S
N5321 C5322 1.351 . S
C5322 C5316 1.428 . S
C5322 N5321 1.351 . S
C5322 C5323 1.434 . S
C5323 C5314 1.429 . S
C5323 N5320 1.350 . S
C5323 C5322 1.434 . S
C5324 C5325 1.369 . S
C5324 C5326 1.419 . S
C5324 H5328 0.930 . S
C5325 C5324 1.369 . S
C5325 C5334 1.429 . S
C5326 C5324 1.419 . S
C5326 C5327 1.363 . S
C5326 H5329 0.929 . S
C5327 C5326 1.363 . S
C5327 C5333 1.428 . S
H5328 C5324 0.930 . S
H5329 C5326 0.929 . S
S5330 N5331 1.613 . S
S5330 N5332 1.610 1_554 S
N5331 S5330 1.613 . S
N5331 C5334 1.350 1_554 S
N5332 S5330 1.610 1_556 S
N5332 C5333 1.351 . S
C5333 C5327 1.428 . S
C5333 N5332 1.351 . S
C5333 C5334 1.434 . S
C5334 C5325 1.429 . S
C5334 N5331 1.350 1_556 S
C5334 C5333 1.434 . S
C5335 C5336 1.369 . S
C5335 C5337 1.419 . S
C5335 H5339 0.930 . S
C5336 C5335 1.369 . S
C5336 C5345 1.429 . S
C5337 C5335 1.419 . S
C5337 C5338 1.363 . S
C5337 H5340 0.929 . S
C5338 C5337 1.363 . S
C5338 C5344 1.428 . S
H5339 C5335 0.930 . S
H5340 C5337 0.929 . S
S5341 N5342 1.613 . S
S5341 N5343 1.610 . S
N5342 S5341 1.613 . S
N5342 C5345 1.350 . S
N5343 S5341 1.610 . S
N5343 C5344 1.351 . S
C5344 C5338 1.428 . S
C5344 N5343 1.351 . S
C5344 C5345 1.434 . S
C5345 C5336 1.429 . S
C5345 N5342 1.350 . S
C5345 C5344 1.434 . S
C5346 C5347 1.369 . S
C5346 C5348 1.419 . S
C5346 H5350 0.930 . S
C5347 C5346 1.369 . S
C5347 C5356 1.429 . S
C5348 C5346 1.419 . S
C5348 C5349 1.363 . S
C5348 H5351 0.929 . S
C5349 C5348 1.363 . S
C5349 C5355 1.428 . S
H5350 C5346 0.930 . S
H5351 C5348 0.929 . S
S5352 N5353 1.613 . S
S5352 N5354 1.610 1_565 S
N5353 S5352 1.613 . S
N5353 C5356 1.350 1_565 S
N5354 S5352 1.610 1_545 S
N5354 C5355 1.351 . S
C5355 C5349 1.428 . S
C5355 N5354 1.351 . S
C5355 C5356 1.434 . S
C5356 C5347 1.429 . S
C5356 N5353 1.350 1_545 S
C5356 C5355 1.434 . S
C5357 C5358 1.369 . S
C5357 C5359 1.419 . S
C5357 H5361 0.930 . S
C5358 C5357 1.369 . S
C5358 C5367 1.429 . S
C5359 C5357 1.419 . S
C5359 C5360 1.363 . S
C5359 H5362 0.929 . S
C5360 C5359 1.363 . S
C5360 C5366 1.428 . S
H5361 C5357 0.930 . S
H5362 C5359 0.929 . S
S5363 N5364 1.613 . S
S5363 N5365 1.610 . S
N5364 S5363 1.613 . S
N5364 C5367 1.350 . S
N5365 S5363 1.610 . S
N5365 C5366 1.351 . S
C5366 C5360 1.428 . S
C5366 N5365 1.351 . S
C5366 C5367 1.434 . S
C5367 C5358 1.429 . S
C5367 N5364 1.350 . S
C5367 C5366 1.434 . S
C5368 C5369 1.369 . S
C5368 C5370 1.419 . S
C5368 H5372 0.930 . S
C5369 C5368 1.369 . S
C5369 C5378 1.429 . S
C5370 C5368 1.419 . S
C5370 C5371 1.363 . S
C5370 H5373 0.929 . S
C5371 C5370 1.363 . S
C5371 C5377 1.428 . S
H5372 C5368 0.930 . S
H5373 C5370 0.929 . S
S5374 N5375 1.613 . S
S5374 N5376 1.610 . S
N5375 S5374 1.613 . S
N5375 C5378 1.350 . S
N5376 S5374 1.610 . S
N5376 C5377 1.351 . S
C5377 C5371 1.428 . S
C5377 N5376 1.351 . S
C5377 C5378 1.434 . S
C5378 C5369 1.429 . S
C5378 N5375 1.350 . S
C5378 C5377 1.434 . S
C5379 C5380 1.369 . S
C5379 C5381 1.419 . S
C5379 H5383 0.930 . S
C5380 C5379 1.369 . S
C5380 C5389 1.429 . S
C5381 C5379 1.419 . S
C5381 C5382 1.363 . S
C5381 H5384 0.929 . S
C5382 C5381 1.363 . S
C5382 C5388 1.428 . S
H5383 C5379 0.930 . S
H5384 C5381 0.929 . S
S5385 N5386 1.613 1_545 S
S5385 N5387 1.610 . S
N5386 S5385 1.613 1_565 S
N5386 C5389 1.350 . S
N5387 S5385 1.610 . S
N5387 C5388 1.351 1_545 S
C5388 C5382 1.428 . S
C5388 N5387 1.351 1_565 S
C5388 C5389 1.434 . S
C5389 C5380 1.429 . S
C5389 N5386 1.350 . S
C5389 C5388 1.434 . S
C5390 C5391 1.369 . S
C5390 C5392 1.419 . S
C5390 H5394 0.930 . S
C5391 C5390 1.369 . S
C5391 C5400 1.429 . S
C5392 C5390 1.419 . S
C5392 C5393 1.363 . S
C5392 H5395 0.929 . S
C5393 C5392 1.363 . S
C5393 C5399 1.428 . S
H5394 C5390 0.930 . S
H5395 C5392 0.929 . S
S5396 N5397 1.613 . S
S5396 N5398 1.610 . S
N5397 S5396 1.613 . S
N5397 C5400 1.350 . S
N5398 S5396 1.610 . S
N5398 C5399 1.351 . S
C5399 C5393 1.428 . S
C5399 N5398 1.351 . S
C5399 C5400 1.434 . S
C5400 C5391 1.429 . S
C5400 N5397 1.350 . S
C5400 C5399 1.434 . S
C5401 C5402 1.369 . S
C5401 C5403 1.419 . S
C5401 H5405 0.930 1_655 S
C5402 C5401 1.369 . S
C5402 C5411 1.429 . S
C5403 C5401 1.419 . S
C5403 C5404 1.363 . S
C5403 H5406 0.929 . S
C5404 C5403 1.363 . S
C5404 C5410 1.428 . S
H5405 C5401 0.930 1_455 S
H5406 C5403 0.929 . S
S5407 N5408 1.613 . S
S5407 N5409 1.610 . S
N5408 S5407 1.613 . S
N5408 C5411 1.350 . S
N5409 S5407 1.610 . S
N5409 C5410 1.351 . S
C5410 C5404 1.428 . S
C5410 N5409 1.351 . S
C5410 C5411 1.434 . S
C5411 C5402 1.429 . S
C5411 N5408 1.350 . S
C5411 C5410 1.434 . S
C5412 C5413 1.369 . S
C5412 C5414 1.419 . S
C5412 H5416 0.930 . S
C5413 C5412 1.369 . S
C5413 C5422 1.429 . S
C5414 C5412 1.419 . S
C5414 C5415 1.363 . S
C5414 H5417 0.929 1_455 S
C5415 C5414 1.363 . S
C5415 C5421 1.428 . S
H5416 C5412 0.930 . S
H5417 C5414 0.929 1_655 S
S5418 N5419 1.613 . S
S5418 N5420 1.610 . S
N5419 S5418 1.613 . S
N5419 C5422 1.350 . S
N5420 S5418 1.610 . S
N5420 C5421 1.351 . S
C5421 C5415 1.428 . S
C5421 N5420 1.351 . S
C5421 C5422 1.434 . S
C5422 C5413 1.429 . S
C5422 N5419 1.350 . S
C5422 C5421 1.434 . S
C5423 C5424 1.369 . S
C5423 C5425 1.419 . S
C5423 H5427 0.930 . S
C5424 C5423 1.369 . S
C5424 C5433 1.429 . S
C5425 C5423 1.419 . S
C5425 C5426 1.363 . S
C5425 H5428 0.929 . S
C5426 C5425 1.363 . S
C5426 C5432 1.428 . S
H5427 C5423 0.930 . S
H5428 C5425 0.929 . S
S5429 N5430 1.613 . S
S5429 N5431 1.610 . S
N5430 S5429 1.613 . S
N5430 C5433 1.350 . S
N5431 S5429 1.610 . S
N5431 C5432 1.351 . S
C5432 C5426 1.428 . S
C5432 N5431 1.351 . S
C5432 C5433 1.434 . S
C5433 C5424 1.429 . S
C5433 N5430 1.350 . S
C5433 C5432 1.434 . S
C5434 C5435 1.369 . S
C5434 C5436 1.419 . S
C5434 H5438 0.930 . S
C5435 C5434 1.369 . S
C5435 C5444 1.429 . S
C5436 C5434 1.419 . S
C5436 C5437 1.363 . S
C5436 H5439 0.929 . S
C5437 C5436 1.363 . S
C5437 C5443 1.428 . S
H5438 C5434 0.930 . S
H5439 C5436 0.929 . S
S5440 N5441 1.613 . S
S5440 N5442 1.610 . S
N5441 S5440 1.613 . S
N5441 C5444 1.350 . S
N5442 S5440 1.610 . S
N5442 C5443 1.351 . S
C5443 C5437 1.428 . S
C5443 N5442 1.351 . S
C5443 C5444 1.434 . S
C5444 C5435 1.429 . S
C5444 N5441 1.350 . S
C5444 C5443 1.434 . S
C5445 C5446 1.369 . S
C5445 C5447 1.419 . S
C5445 H5449 0.930 . S
C5446 C5445 1.369 . S
C5446 C5455 1.429 . S
C5447 C5445 1.419 . S
C5447 C5448 1.363 . S
C5447 H5450 0.929 . S
C5448 C5447 1.363 . S
C5448 C5454 1.428 . S
H5449 C5445 0.930 . S
H5450 C5447 0.929 . S
S5451 N5452 1.613 1_655 S
S5451 N5453 1.610 . S
N5452 S5451 1.613 1_455 S
N5452 C5455 1.350 . S
N5453 S5451 1.610 . S
N5453 C5454 1.351 1_655 S
C5454 C5448 1.428 . S
C5454 N5453 1.351 1_455 S
C5454 C5455 1.434 . S
C5455 C5446 1.429 . S
C5455 N5452 1.350 . S
C5455 C5454 1.434 . S
C5456 C5457 1.369 . S
C5456 C5458 1.419 . S
C5456 H5460 0.930 . S
C5457 C5456 1.369 . S
C5457 C5466 1.429 . S
C5458 C5456 1.419 . S
C5458 C5459 1.363 . S
C5458 H5461 0.929 . S
C5459 C5458 1.363 . S
C5459 C5465 1.428 . S
H5460 C5456 0.930 . S
H5461 C5458 0.929 . S
S5462 N5463 1.613 . S
S5462 N5464 1.610 . S
N5463 S5462 1.613 . S
N5463 C5466 1.350 . S
N5464 S5462 1.610 . S
N5464 C5465 1.351 . S
C5465 C5459 1.428 . S
C5465 N5464 1.351 . S
C5465 C5466 1.434 . S
C5466 C5457 1.429 . S
C5466 N5463 1.350 . S
C5466 C5465 1.434 . S
C5467 C5468 1.369 . S
C5467 C5469 1.419 . S
C5467 H5471 0.930 . S
C5468 C5467 1.369 . S
C5468 C5477 1.429 . S
C5469 C5467 1.419 . S
C5469 C5470 1.363 . S
C5469 H5472 0.929 . S
C5470 C5469 1.363 . S
C5470 C5476 1.428 . S
H5471 C5467 0.930 . S
H5472 C5469 0.929 . S
S5473 N5474 1.613 . S
S5473 N5475 1.610 1_565 S
N5474 S5473 1.613 . S
N5474 C5477 1.350 1_565 S
N5475 S5473 1.610 1_545 S
N5475 C5476 1.351 . S
C5476 C5470 1.428 . S
C5476 N5475 1.351 . S
C5476 C5477 1.434 . S
C5477 C5468 1.429 . S
C5477 N5474 1.350 1_545 S
C5477 C5476 1.434 . S
C5478 C5479 1.369 . S
C5478 C5480 1.419 . S
C5478 H5482 0.930 . S
C5479 C5478 1.369 . S
C5479 C5488 1.429 . S
C5480 C5478 1.419 . S
C5480 C5481 1.363 . S
C5480 H5483 0.929 . S
C5481 C5480 1.363 . S
C5481 C5487 1.428 . S
H5482 C5478 0.930 . S
H5483 C5480 0.929 . S
S5484 N5485 1.613 . S
S5484 N5486 1.610 . S
N5485 S5484 1.613 . S
N5485 C5488 1.350 . S
N5486 S5484 1.610 . S
N5486 C5487 1.351 . S
C5487 C5481 1.428 . S
C5487 N5486 1.351 . S
C5487 C5488 1.434 . S
C5488 C5479 1.429 . S
C5488 N5485 1.350 . S
C5488 C5487 1.434 . S
C5489 C5490 1.369 . S
C5489 C5491 1.419 . S
C5489 H5493 0.930 1_554 S
C5490 C5489 1.369 . S
C5490 C5499 1.429 . S
C5491 C5489 1.419 . S
C5491 C5492 1.363 . S
C5491 H5494 0.929 . S
C5492 C5491 1.363 . S
C5492 C5498 1.428 . S
H5493 C5489 0.930 1_556 S
H5494 C5491 0.929 . S
S5495 N5496 1.613 . S
S5495 N5497 1.610 . S
N5496 S5495 1.613 . S
N5496 C5499 1.350 . S
N5497 S5495 1.610 . S
N5497 C5498 1.351 . S
C5498 C5492 1.428 . S
C5498 N5497 1.351 . S
C5498 C5499 1.434 . S
C5499 C5490 1.429 . S
C5499 N5496 1.350 . S
C5499 C5498 1.434 . S
C5500 C5501 1.369 . S
C5500 C5502 1.419 . S
C5500 H5504 0.930 . S
C5501 C5500 1.369 . S
C5501 C5510 1.429 . S
C5502 C5500 1.419 . S
C5502 C5503 1.363 . S
C5502 H5505 0.929 1_655 S
C5503 C5502 1.363 . S
C5503 C5509 1.428 . S
H5504 C5500 0.930 . S
H5505 C5502 0.929 1_455 S
S5506 N5507 1.613 . S
S5506 N5508 1.610 . S
N5507 S5506 1.613 . S
N5507 C5510 1.350 . S
N5508 S5506 1.610 . S
N5508 C5509 1.351 . S
C5509 C5503 1.428 . S
C5509 N5508 1.351 . S
C5509 C5510 1.434 . S
C5510 C5501 1.429 . S
C5510 N5507 1.350 . S
C5510 C5509 1.434 . S
C5511 C5512 1.369 . S
C5511 C5513 1.419 . S
C5511 H5515 0.930 . S
C5512 C5511 1.369 . S
C5512 C5521 1.429 . S
C5513 C5511 1.419 . S
C5513 C5514 1.363 . S
C5513 H5516 0.929 . S
C5514 C5513 1.363 . S
C5514 C5520 1.428 . S
H5515 C5511 0.930 . S
H5516 C5513 0.929 . S
S5517 N5518 1.613 . S
S5517 N5519 1.610 . S
N5518 S5517 1.613 . S
N5518 C5521 1.350 . S
N5519 S5517 1.610 . S
N5519 C5520 1.351 . S
C5520 C5514 1.428 . S
C5520 N5519 1.351 . S
C5520 C5521 1.434 . S
C5521 C5512 1.429 . S
C5521 N5518 1.350 . S
C5521 C5520 1.434 . S
C5522 C5523 1.369 . S
C5522 C5524 1.419 . S
C5522 H5526 0.930 . S
C5523 C5522 1.369 . S
C5523 C5532 1.429 . S
C5524 C5522 1.419 . S
C5524 C5525 1.363 . S
C5524 H5527 0.929 . S
C5525 C5524 1.363 . S
C5525 C5531 1.428 . S
H5526 C5522 0.930 . S
H5527 C5524 0.929 . S
S5528 N5529 1.613 . S
S5528 N5530 1.610 1_565 S
N5529 S5528 1.613 . S
N5529 C5532 1.350 1_565 S
N5530 S5528 1.610 1_545 S
N5530 C5531 1.351 . S
C5531 C5525 1.428 . S
C5531 N5530 1.351 . S
C5531 C5532 1.434 . S
C5532 C5523 1.429 . S
C5532 N5529 1.350 1_545 S
C5532 C5531 1.434 . S
C5533 C5534 1.369 . S
C5533 C5535 1.419 . S
C5533 H5537 0.930 . S
C5534 C5533 1.369 . S
C5534 C5543 1.429 . S
C5535 C5533 1.419 . S
C5535 C5536 1.363 . S
C5535 H5538 0.929 . S
C5536 C5535 1.363 . S
C5536 C5542 1.428 . S
H5537 C5533 0.930 . S
H5538 C5535 0.929 . S
S5539 N5540 1.613 . S
S5539 N5541 1.610 . S
N5540 S5539 1.613 . S
N5540 C5543 1.350 . S
N5541 S5539 1.610 . S
N5541 C5542 1.351 . S
C5542 C5536 1.428 . S
C5542 N5541 1.351 . S
C5542 C5543 1.434 . S
C5543 C5534 1.429 . S
C5543 N5540 1.350 . S
C5543 C5542 1.434 . S
C5544 C5545 1.369 . S
C5544 C5546 1.419 . S
C5544 H5548 0.930 . S
C5545 C5544 1.369 . S
C5545 C5554 1.429 . S
C5546 C5544 1.419 . S
C5546 C5547 1.363 . S
C5546 H5549 0.929 . S
C5547 C5546 1.363 . S
C5547 C5553 1.428 . S
H5548 C5544 0.930 . S
H5549 C5546 0.929 . S
S5550 N5551 1.613 1_556 S
S5550 N5552 1.610 1_565 S
N5551 S5550 1.613 1_554 S
N5551 C5554 1.350 1_565 S
N5552 S5550 1.610 1_545 S
N5552 C5553 1.351 1_556 S
C5553 C5547 1.428 . S
C5553 N5552 1.351 1_554 S
C5553 C5554 1.434 . S
C5554 C5545 1.429 . S
C5554 N5551 1.350 1_545 S
C5554 C5553 1.434 . S
C5555 C5556 1.369 . S
C5555 C5557 1.419 . S
C5555 H5559 0.930 . S
C5556 C5555 1.369 . S
C5556 C5565 1.429 . S
C5557 C5555 1.419 . S
C5557 C5558 1.363 . S
C5557 H5560 0.929 . S
C5558 C5557 1.363 . S
C5558 C5564 1.428 . S
H5559 C5555 0.930 . S
H5560 C5557 0.929 . S
S5561 N5562 1.613 . S
S5561 N5563 1.610 . S
N5562 S5561 1.613 . S
N5562 C5565 1.350 . S
N5563 S5561 1.610 . S
N5563 C5564 1.351 . S
C5564 C5558 1.428 . S
C5564 N5563 1.351 . S
C5564 C5565 1.434 . S
C5565 C5556 1.429 . S
C5565 N5562 1.350 . S
C5565 C5564 1.434 . S
C5566 C5567 1.369 . S
C5566 C5568 1.419 . S
C5566 H5570 0.930 . S
C5567 C5566 1.369 . S
C5567 C5576 1.429 . S
C5568 C5566 1.419 . S
C5568 C5569 1.363 . S
C5568 H5571 0.929 . S
C5569 C5568 1.363 . S
C5569 C5575 1.428 . S
H5570 C5566 0.930 . S
H5571 C5568 0.929 . S
S5572 N5573 1.613 . S
S5572 N5574 1.610 . S
N5573 S5572 1.613 . S
N5573 C5576 1.350 . S
N5574 S5572 1.610 . S
N5574 C5575 1.351 . S
C5575 C5569 1.428 . S
C5575 N5574 1.351 . S
C5575 C5576 1.434 . S
C5576 C5567 1.429 . S
C5576 N5573 1.350 . S
C5576 C5575 1.434 . S
C5577 C5578 1.369 . S
C5577 C5579 1.419 . S
C5577 H5581 0.930 . S
C5578 C5577 1.369 . S
C5578 C5587 1.429 . S
C5579 C5577 1.419 . S
C5579 C5580 1.363 . S
C5579 H5582 0.929 . S
C5580 C5579 1.363 . S
C5580 C5586 1.428 . S
H5581 C5577 0.930 . S
H5582 C5579 0.929 . S
S5583 N5584 1.613 . S
S5583 N5585 1.610 . S
N5584 S5583 1.613 . S
N5584 C5587 1.350 . S
N5585 S5583 1.610 . S
N5585 C5586 1.351 . S
C5586 C5580 1.428 . S
C5586 N5585 1.351 . S
C5586 C5587 1.434 . S
C5587 C5578 1.429 . S
C5587 N5584 1.350 . S
C5587 C5586 1.434 . S
C5588 C5589 1.369 . S
C5588 C5590 1.419 . S
C5588 H5592 0.930 . S
C5589 C5588 1.369 . S
C5589 C5598 1.429 . S
C5590 C5588 1.419 . S
C5590 C5591 1.363 . S
C5590 H5593 0.929 . S
C5591 C5590 1.363 . S
C5591 C5597 1.428 . S
H5592 C5588 0.930 . S
H5593 C5590 0.929 . S
S5594 N5595 1.613 . S
S5594 N5596 1.610 . S
N5595 S5594 1.613 . S
N5595 C5598 1.350 . S
N5596 S5594 1.610 . S
N5596 C5597 1.351 . S
C5597 C5591 1.428 . S
C5597 N5596 1.351 . S
C5597 C5598 1.434 . S
C5598 C5589 1.429 . S
C5598 N5595 1.350 . S
C5598 C5597 1.434 . S
C5599 C5600 1.369 . S
C5599 C5601 1.419 . S
C5599 H5603 0.930 . S
C5600 C5599 1.369 . S
C5600 C5609 1.429 . S
C5601 C5599 1.419 . S
C5601 C5602 1.363 . S
C5601 H5604 0.929 1_554 S
C5602 C5601 1.363 . S
C5602 C5608 1.428 . S
H5603 C5599 0.930 . S
H5604 C5601 0.929 1_556 S
S5605 N5606 1.613 . S
S5605 N5607 1.610 . S
N5606 S5605 1.613 . S
N5606 C5609 1.350 . S
N5607 S5605 1.610 . S
N5607 C5608 1.351 . S
C5608 C5602 1.428 . S
C5608 N5607 1.351 . S
C5608 C5609 1.434 . S
C5609 C5600 1.429 . S
C5609 N5606 1.350 . S
C5609 C5608 1.434 . S
C5610 C5611 1.369 . S
C5610 C5612 1.419 . S
C5610 H5614 0.930 . S
C5611 C5610 1.369 . S
C5611 C5620 1.429 . S
C5612 C5610 1.419 . S
C5612 C5613 1.363 . S
C5612 H5615 0.929 . S
C5613 C5612 1.363 . S
C5613 C5619 1.428 . S
H5614 C5610 0.930 . S
H5615 C5612 0.929 . S
S5616 N5617 1.613 . S
S5616 N5618 1.610 . S
N5617 S5616 1.613 . S
N5617 C5620 1.350 . S
N5618 S5616 1.610 . S
N5618 C5619 1.351 . S
C5619 C5613 1.428 . S
C5619 N5618 1.351 . S
C5619 C5620 1.434 . S
C5620 C5611 1.429 . S
C5620 N5617 1.350 . S
C5620 C5619 1.434 . S
C5621 C5622 1.369 . S
C5621 C5623 1.419 . S
C5621 H5625 0.930 . S
C5622 C5621 1.369 . S
C5622 C5631 1.429 . S
C5623 C5621 1.419 . S
C5623 C5624 1.363 . S
C5623 H5626 0.929 . S
C5624 C5623 1.363 . S
C5624 C5630 1.428 . S
H5625 C5621 0.930 . S
H5626 C5623 0.929 . S
S5627 N5628 1.613 . S
S5627 N5629 1.610 . S
N5628 S5627 1.613 . S
N5628 C5631 1.350 . S
N5629 S5627 1.610 . S
N5629 C5630 1.351 . S
C5630 C5624 1.428 . S
C5630 N5629 1.351 . S
C5630 C5631 1.434 . S
C5631 C5622 1.429 . S
C5631 N5628 1.350 . S
C5631 C5630 1.434 . S
C5632 C5633 1.369 . S
C5632 C5634 1.419 . S
C5632 H5636 0.930 . S
C5633 C5632 1.369 . S
C5633 C5642 1.429 . S
C5634 C5632 1.419 . S
C5634 C5635 1.363 . S
C5634 H5637 0.929 . S
C5635 C5634 1.363 . S
C5635 C5641 1.428 . S
H5636 C5632 0.930 . S
H5637 C5634 0.929 . S
S5638 N5639 1.613 . S
S5638 N5640 1.610 . S
N5639 S5638 1.613 . S
N5639 C5642 1.350 . S
N5640 S5638 1.610 . S
N5640 C5641 1.351 . S
C5641 C5635 1.428 . S
C5641 N5640 1.351 . S
C5641 C5642 1.434 . S
C5642 C5633 1.429 . S
C5642 N5639 1.350 . S
C5642 C5641 1.434 . S
C5643 C5644 1.369 . S
C5643 C5645 1.419 . S
C5643 H5647 0.930 . S
C5644 C5643 1.369 . S
C5644 C5653 1.429 . S
C5645 C5643 1.419 . S
C5645 C5646 1.363 . S
C5645 H5648 0.929 . S
C5646 C5645 1.363 . S
C5646 C5652 1.428 . S
H5647 C5643 0.930 . S
H5648 C5645 0.929 . S
S5649 N5650 1.613 . S
S5649 N5651 1.610 . S
N5650 S5649 1.613 . S
N5650 C5653 1.350 . S
N5651 S5649 1.610 . S
N5651 C5652 1.351 . S
C5652 C5646 1.428 . S
C5652 N5651 1.351 . S
C5652 C5653 1.434 . S
C5653 C5644 1.429 . S
C5653 N5650 1.350 . S
C5653 C5652 1.434 . S
C5654 C5655 1.369 . S
C5654 C5656 1.419 . S
C5654 H5658 0.930 . S
C5655 C5654 1.369 . S
C5655 C5664 1.429 . S
C5656 C5654 1.419 . S
C5656 C5657 1.363 . S
C5656 H5659 0.929 . S
C5657 C5656 1.363 . S
C5657 C5663 1.428 . S
H5658 C5654 0.930 . S
H5659 C5656 0.929 . S
S5660 N5661 1.613 . S
S5660 N5662 1.610 . S
N5661 S5660 1.613 . S
N5661 C5664 1.350 . S
N5662 S5660 1.610 . S
N5662 C5663 1.351 . S
C5663 C5657 1.428 . S
C5663 N5662 1.351 . S
C5663 C5664 1.434 . S
C5664 C5655 1.429 . S
C5664 N5661 1.350 . S
C5664 C5663 1.434 . S
C5665 C5666 1.369 . S
C5665 C5667 1.419 . S
C5665 H5669 0.930 . S
C5666 C5665 1.369 . S
C5666 C5675 1.429 . S
C5667 C5665 1.419 . S
C5667 C5668 1.363 . S
C5667 H5670 0.929 . S
C5668 C5667 1.363 . S
C5668 C5674 1.428 . S
H5669 C5665 0.930 . S
H5670 C5667 0.929 . S
S5671 N5672 1.613 1_545 S
S5671 N5673 1.610 . S
N5672 S5671 1.613 1_565 S
N5672 C5675 1.350 . S
N5673 S5671 1.610 . S
N5673 C5674 1.351 1_545 S
C5674 C5668 1.428 . S
C5674 N5673 1.351 1_565 S
C5674 C5675 1.434 . S
C5675 C5666 1.429 . S
C5675 N5672 1.350 . S
C5675 C5674 1.434 . S
C5676 C5677 1.369 . S
C5676 C5678 1.419 . S
C5676 H5680 0.930 . S
C5677 C5676 1.369 . S
C5677 C5686 1.429 . S
C5678 C5676 1.419 . S
C5678 C5679 1.363 . S
C5678 H5681 0.929 . S
C5679 C5678 1.363 . S
C5679 C5685 1.428 . S
H5680 C5676 0.930 . S
H5681 C5678 0.929 . S
S5682 N5683 1.613 . S
S5682 N5684 1.610 1_554 S
N5683 S5682 1.613 . S
N5683 C5686 1.350 1_554 S
N5684 S5682 1.610 1_556 S
N5684 C5685 1.351 . S
C5685 C5679 1.428 . S
C5685 N5684 1.351 . S
C5685 C5686 1.434 . S
C5686 C5677 1.429 . S
C5686 N5683 1.350 1_556 S
C5686 C5685 1.434 . S
C5687 C5688 1.369 . S
C5687 C5689 1.419 . S
C5687 H5691 0.930 . S
C5688 C5687 1.369 . S
C5688 C5697 1.429 . S
C5689 C5687 1.419 . S
C5689 C5690 1.363 . S
C5689 H5692 0.929 . S
C5690 C5689 1.363 . S
C5690 C5696 1.428 . S
H5691 C5687 0.930 . S
H5692 C5689 0.929 . S
S5693 N5694 1.613 . S
S5693 N5695 1.610 . S
N5694 S5693 1.613 . S
N5694 C5697 1.350 . S
N5695 S5693 1.610 . S
N5695 C5696 1.351 . S
C5696 C5690 1.428 . S
C5696 N5695 1.351 . S
C5696 C5697 1.434 . S
C5697 C5688 1.429 . S
C5697 N5694 1.350 . S
C5697 C5696 1.434 . S
C5698 C5699 1.369 . S
C5698 C5700 1.419 . S
C5698 H5702 0.930 . S
C5699 C5698 1.369 . S
C5699 C5708 1.429 . S
C5700 C5698 1.419 . S
C5700 C5701 1.363 . S
C5700 H5703 0.929 . S
C5701 C5700 1.363 . S
C5701 C5707 1.428 . S
H5702 C5698 0.930 . S
H5703 C5700 0.929 . S
S5704 N5705 1.613 . S
S5704 N5706 1.610 . S
N5705 S5704 1.613 . S
N5705 C5708 1.350 . S
N5706 S5704 1.610 . S
N5706 C5707 1.351 . S
C5707 C5701 1.428 . S
C5707 N5706 1.351 . S
C5707 C5708 1.434 . S
C5708 C5699 1.429 . S
C5708 N5705 1.350 . S
C5708 C5707 1.434 . S
C5709 C5710 1.369 . S
C5709 C5711 1.419 . S
C5709 H5713 0.930 . S
C5710 C5709 1.369 . S
C5710 C5719 1.429 . S
C5711 C5709 1.419 . S
C5711 C5712 1.363 . S
C5711 H5714 0.929 . S
C5712 C5711 1.363 . S
C5712 C5718 1.428 . S
H5713 C5709 0.930 . S
H5714 C5711 0.929 . S
S5715 N5716 1.613 . S
S5715 N5717 1.610 . S
N5716 S5715 1.613 . S
N5716 C5719 1.350 . S
N5717 S5715 1.610 . S
N5717 C5718 1.351 . S
C5718 C5712 1.428 . S
C5718 N5717 1.351 . S
C5718 C5719 1.434 . S
C5719 C5710 1.429 . S
C5719 N5716 1.350 . S
C5719 C5718 1.434 . S
C5720 C5721 1.369 . S
C5720 C5722 1.419 . S
C5720 H5724 0.930 . S
C5721 C5720 1.369 . S
C5721 C5730 1.429 . S
C5722 C5720 1.419 . S
C5722 C5723 1.363 . S
C5722 H5725 0.929 . S
C5723 C5722 1.363 . S
C5723 C5729 1.428 . S
H5724 C5720 0.930 . S
H5725 C5722 0.929 . S
S5726 N5727 1.613 . S
S5726 N5728 1.610 . S
N5727 S5726 1.613 . S
N5727 C5730 1.350 . S
N5728 S5726 1.610 . S
N5728 C5729 1.351 . S
C5729 C5723 1.428 . S
C5729 N5728 1.351 . S
C5729 C5730 1.434 . S
C5730 C5721 1.429 . S
C5730 N5727 1.350 . S
C5730 C5729 1.434 . S
C5731 C5732 1.369 . S
C5731 C5733 1.419 . S
C5731 H5735 0.930 . S
C5732 C5731 1.369 . S
C5732 C5741 1.429 . S
C5733 C5731 1.419 . S
C5733 C5734 1.363 . S
C5733 H5736 0.929 . S
C5734 C5733 1.363 . S
C5734 C5740 1.428 . S
H5735 C5731 0.930 . S
H5736 C5733 0.929 . S
S5737 N5738 1.613 . S
S5737 N5739 1.610 . S
N5738 S5737 1.613 . S
N5738 C5741 1.350 . S
N5739 S5737 1.610 . S
N5739 C5740 1.351 . S
C5740 C5734 1.428 . S
C5740 N5739 1.351 . S
C5740 C5741 1.434 . S
C5741 C5732 1.429 . S
C5741 N5738 1.350 . S
C5741 C5740 1.434 . S
C5742 C5743 1.369 . S
C5742 C5744 1.419 . S
C5742 H5746 0.930 . S
C5743 C5742 1.369 . S
C5743 C5752 1.429 . S
C5744 C5742 1.419 . S
C5744 C5745 1.363 . S
C5744 H5747 0.929 . S
C5745 C5744 1.363 . S
C5745 C5751 1.428 . S
H5746 C5742 0.930 . S
H5747 C5744 0.929 . S
S5748 N5749 1.613 . S
S5748 N5750 1.610 . S
N5749 S5748 1.613 . S
N5749 C5752 1.350 . S
N5750 S5748 1.610 . S
N5750 C5751 1.351 . S
C5751 C5745 1.428 . S
C5751 N5750 1.351 . S
C5751 C5752 1.434 . S
C5752 C5743 1.429 . S
C5752 N5749 1.350 . S
C5752 C5751 1.434 . S
C5753 C5754 1.369 . S
C5753 C5755 1.419 . S
C5753 H5757 0.930 . S
C5754 C5753 1.369 . S
C5754 C5763 1.429 . S
C5755 C5753 1.419 . S
C5755 C5756 1.363 . S
C5755 H5758 0.929 . S
C5756 C5755 1.363 . S
C5756 C5762 1.428 . S
H5757 C5753 0.930 . S
H5758 C5755 0.929 . S
S5759 N5760 1.613 . S
S5759 N5761 1.610 . S
N5760 S5759 1.613 . S
N5760 C5763 1.350 . S
N5761 S5759 1.610 . S
N5761 C5762 1.351 . S
C5762 C5756 1.428 . S
C5762 N5761 1.351 . S
C5762 C5763 1.434 . S
C5763 C5754 1.429 . S
C5763 N5760 1.350 . S
C5763 C5762 1.434 . S
C5764 C5765 1.369 . S
C5764 C5766 1.419 . S
C5764 H5768 0.930 . S
C5765 C5764 1.369 . S
C5765 C5774 1.429 . S
C5766 C5764 1.419 . S
C5766 C5767 1.363 . S
C5766 H5769 0.929 . S
C5767 C5766 1.363 . S
C5767 C5773 1.428 . S
H5768 C5764 0.930 . S
H5769 C5766 0.929 . S
S5770 N5771 1.613 . S
S5770 N5772 1.610 . S
N5771 S5770 1.613 . S
N5771 C5774 1.350 . S
N5772 S5770 1.610 . S
N5772 C5773 1.351 . S
C5773 C5767 1.428 . S
C5773 N5772 1.351 . S
C5773 C5774 1.434 . S
C5774 C5765 1.429 . S
C5774 N5771 1.350 . S
C5774 C5773 1.434 . S
C5775 C5776 1.369 . S
C5775 C5777 1.419 . S
C5775 H5779 0.930 . S
C5776 C5775 1.369 . S
C5776 C5785 1.429 . S
C5777 C5775 1.419 . S
C5777 C5778 1.363 . S
C5777 H5780 0.929 . S
C5778 C5777 1.363 . S
C5778 C5784 1.428 . S
H5779 C5775 0.930 . S
H5780 C5777 0.929 . S
S5781 N5782 1.613 . S
S5781 N5783 1.610 . S
N5782 S5781 1.613 . S
N5782 C5785 1.350 . S
N5783 S5781 1.610 . S
N5783 C5784 1.351 . S
C5784 C5778 1.428 . S
C5784 N5783 1.351 . S
C5784 C5785 1.434 . S
C5785 C5776 1.429 . S
C5785 N5782 1.350 . S
C5785 C5784 1.434 . S
C5786 C5787 1.369 . S
C5786 C5788 1.419 . S
C5786 H5790 0.930 . S
C5787 C5786 1.369 . S
C5787 C5796 1.429 . S
C5788 C5786 1.419 . S
C5788 C5789 1.363 . S
C5788 H5791 0.929 . S
C5789 C5788 1.363 . S
C5789 C5795 1.428 . S
H5790 C5786 0.930 . S
H5791 C5788 0.929 . S
S5792 N5793 1.613 . S
S5792 N5794 1.610 . S
N5793 S5792 1.613 . S
N5793 C5796 1.350 . S
N5794 S5792 1.610 . S
N5794 C5795 1.351 . S
C5795 C5789 1.428 . S
C5795 N5794 1.351 . S
C5795 C5796 1.434 . S
C5796 C5787 1.429 . S
C5796 N5793 1.350 . S
C5796 C5795 1.434 . S
C5797 C5798 1.369 . S
C5797 C5799 1.419 . S
C5797 H5801 0.930 . S
C5798 C5797 1.369 . S
C5798 C5807 1.429 . S
C5799 C5797 1.419 . S
C5799 C5800 1.363 . S
C5799 H5802 0.929 . S
C5800 C5799 1.363 . S
C5800 C5806 1.428 . S
H5801 C5797 0.930 . S
H5802 C5799 0.929 . S
S5803 N5804 1.613 . S
S5803 N5805 1.610 . S
N5804 S5803 1.613 . S
N5804 C5807 1.350 . S
N5805 S5803 1.610 . S
N5805 C5806 1.351 . S
C5806 C5800 1.428 . S
C5806 N5805 1.351 . S
C5806 C5807 1.434 . S
C5807 C5798 1.429 . S
C5807 N5804 1.350 . S
C5807 C5806 1.434 . S
C3169 N2719 1.097 . S
C3171 N13 1.108 . S
C3180 N46 1.112 . S
C3182 N1036 1.113 . S
C3191 N79 1.096 . S
C3193 N1762 1.106 . S
C3202 N2521 1.101 . S
C3204 N112 1.098 . S
C3213 N772 1.100 . S
C3215 N145 1.111 . S
C3224 N2785 1.114 . S
C3226 N178 1.103 . S
C3235 N739 1.102 . S
C3237 N211 1.112 . S
C3246 N244 1.100 . S
C3248 N1696 1.111 . S
C3257 N277 1.109 . S
C3259 N3049 1.113 . S
C3268 N1300 1.107 . S
C3270 N310 1.114 . S
C3279 N2884 1.111 . S
C3281 N343 1.113 . S
C3290 N3016 1.101 . S
C3292 N376 1.112 . S
C3301 N2059 1.116 . S
C3303 N409 1.106 . S
C3312 N2983 1.113 . S
C3314 N442 1.102 . S
C3323 N2818 1.097 . S
C3325 N475 1.108 . S
C3334 N2851 1.116 . S
C3336 N508 1.105 . S
C3345 N541 1.109 . S
C3347 N1498 1.099 . S
C3356 N574 1.116 . S
C3358 N2158 1.107 . S
C3367 N1366 1.101 . S
C3369 N607 1.112 . S
C3378 N640 1.110 . S
C3380 N970 1.100 . S
C3389 N673 1.103 . S
C3391 N2917 1.113 . S
C3400 N706 1.114 . S
C3402 N838 1.112 . S
C3411 C2262 1.623 . S
C3413 C249 1.619 . S
C3422 C315 1.617 . S
C3424 C810 1.621 . S
C3433 C1569 1.617 . S
C3435 C843 1.619 . S
C3444 C2823 1.618 . S
C3446 C876 1.618 . S
C3455 C1305 1.621 . S
C3457 C909 1.623 . S
C3466 C942 1.623 . S
C3468 C2361 1.622 . S
C3477 C975 1.617 . S
C3479 C480 1.619 . S
C3488 C1668 1.619 . S
C3490 C18 1.623 . S
C3499 C3087 1.623 . S
C3501 C1008 1.619 . S
C3510 C777 1.622 . S
C3512 C1041 1.622 . S
C3521 C612 1.623 . S
C3523 C2592 1.619 . S
C3532 C3153 1.623 . S
C3534 C1074 1.621 . S
C3543 C1734 1.624 . S
C3545 C1107 1.620 . S
C3554 C3120 1.622 . S
C3556 C1140 1.622 . S
C3565 C744 1.618 . S
C3567 C2526 1.618 . S
C3576 C2559 1.620 . S
C3578 C546 1.617 . S
C3587 C513 1.616 . S
C3589 C1338 1.620 . S
C3598 C2658 1.622 . S
C3600 C1173 1.618 . S
C3609 C1866 1.620 . S
C3611 C348 1.623 . S
C3620 C1206 1.617 . S
C3622 C216 1.620 . S
C3631 C2955 1.624 . S
C3633 C1239 1.620 . S
C3642 C84 1.622 . S
C3644 C1272 1.622 . S
C3653 N1333 1.098 . S
C3655 N2554 1.109 . S
C3664 N904 1.116 . S
C3666 N1993 1.107 . S
C3675 N2752 1.099 . S
C3677 N1399 1.099 . S
C3686 N1828 1.101 . S
C3688 N805 1.098 . S
C3697 N1432 1.098 . S
C3699 N2587 1.109 . S
C3708 N1795 1.107 . S
C3710 N1465 1.114 . S
C3719 N1234 1.107 . S
C3721 N2422 1.114 . S
C3730 N2092 1.104 . S
C3732 N1531 1.113 . S
C3741 N2356 1.097 . S
C3743 N1564 1.100 . S
C3752 N1201 1.115 . S
C3754 N2389 1.105 . S
C3763 N1168 1.099 . S
C3765 N1597 1.099 . S
C3774 N1267 1.096 . S
C3776 N2290 1.105 . S
C3785 N2323 1.096 . S
C3787 N1630 1.104 . S
C3796 N1663 1.114 . S
C3798 N2257 1.111 . S
C3807 N2686 1.111 . S
C3809 N1729 1.113 . S
C3818 N1960 1.116 . S
C3820 N1069 1.106 . S
C3829 N2125 1.097 . S
C3831 N1003 1.100 . S
C3840 N1861 1.108 . S
C3842 N1135 1.099 . S
C3851 C2856 1.621 . S
C3853 C1503 1.623 . S
C3862 C150 1.617 . S
C3864 C1536 1.620 . S
C3873 C1899 1.618 . S
C3875 C2328 1.618 . S
C3884 C2097 1.621 . S
C3886 C51 1.623 . S
C3895 C1932 1.618 . S
C3897 C2889 1.618 . S
C3906 C1635 1.621 . S
C3908 C1965 1.617 . S
C3917 C678 1.623 . S
C3919 C2460 1.622 . S
C3928 C1833 1.620 . S
C3930 C1998 1.623 . S
C3939 C2790 1.624 . S
C3941 C1767 1.620 . S
C3950 C645 1.623 . S
C3952 C2625 1.619 . S
C3961 C579 1.622 . S
C3963 C2031 1.618 . S
C3972 C711 1.623 . S
C3974 C2493 1.621 . S
C3983 C1800 1.620 . S
C3985 C2757 1.623 . S
C3994 C1701 1.623 . S
C3996 C2724 1.622 . S
C4005 C2064 1.624 . S
C4007 C2196 1.620 . S
C4016 C1470 1.623 . S
C4018 C381 1.619 . S
C4027 C282 1.617 . S
C4029 C2229 1.619 . S
C4038 C1371 1.619 . S
C4040 C447 1.617 . S
C4049 N1927 1.111 . S
C4051 N3115 1.100 . S
C4060 N2026 1.115 . S
C4062 N2191 1.104 . S
C4071 N871 1.115 . S
C4073 N2620 1.110 . S
C4082 N3082 1.107 . S
C4084 N2224 1.114 . S
C4093 N2455 1.096 . S
C4095 N2950 1.107 . S
C4104 N937 1.096 . S
C4106 N2488 1.104 . S
C4115 C2988 1.623 . S
C4117 C1437 1.619 . S
C4126 C2691 1.617 . S
C4128 C1602 1.619 . S
C4137 C117 1.619 . S
C4139 C2394 1.623 . S
C4148 C2130 1.623 . S
C4150 C3054 1.622 . S
C4159 C2427 1.619 . S
C4161 C2922 1.623 . S
C4170 C183 1.623 . S
C4172 C2295 1.618 . S
C4181 N2653 1.115 . S
C4183 N1102 1.103 . S
C4192 N1894 1.104 . S
C4194 N3148 1.113 . S
C4203 C2163 1.623 . S
C4205 C414 1.622 . S
C4214 C3021 1.619 . S
C4216 C1404 1.623 . S
C4225 C21 0.624 . S
C4227 C1935 0.626 . S
C4236 C1407 0.625 . S
C4238 C54 0.627 . S
C4247 C2133 0.626 . S
C4249 C87 0.621 . S
C4258 C912 0.622 . S
C4260 C120 0.619 . S
C4269 C153 0.619 . S
C4271 C879 0.624 . S
C4280 C186 0.626 . S
C4282 C1506 0.622 . S
C4291 C219 0.619 . S
C4293 C2199 0.624 . S
C4302 C1440 0.617 . S
C4304 C252 0.621 . S
C4313 C417 0.623 . S
C4315 C285 0.626 . S
C4324 C450 0.628 . S
C4326 C318 0.626 . S
C4335 C483 0.619 . S
C4337 C351 0.624 . S
C4346 C516 0.624 . S
C4348 C384 0.620 . S
C4357 C1077 0.625 . S
C4359 C549 0.620 . S
C4368 C2793 0.618 . S
C4370 C582 0.622 . S
C4379 C747 0.627 . S
C4381 C615 0.623 . S
C4390 C1704 0.628 . S
C4392 C648 0.625 . S
C4401 C2034 0.622 . S
C4403 C681 0.626 . S
C4412 C714 0.624 . S
C4414 C2001 0.627 . S
C4423 C780 0.620 . S
C4425 C2562 0.625 . S
C4434 C1902 0.621 . S
C4436 C813 0.619 . S
C4445 C2232 0.620 . S
C4447 C846 0.618 . S
C4456 C1341 0.619 . S
C4458 C945 0.623 . S
C4467 C2694 0.622 . S
C4469 C978 0.626 . S
C4478 C1110 0.620 . S
C4480 C1011 0.625 . S
C4489 C1044 0.619 . S
C4491 C1143 0.624 . S
C4500 C1176 0.619 . S
C4502 C2364 0.619 . S
C4511 C1209 0.620 . S
C4513 C1671 0.618 . S
C4522 C1605 0.627 . S
C4524 C1242 0.622 . S
C4533 C1275 0.626 . S
C4535 C1539 0.621 . S
C4544 C2859 0.622 . S
C4546 C1308 0.619 . S
C4555 C1374 0.628 . S
C4557 C2925 0.625 . S
C4566 C1473 0.617 . S
C4568 C2661 0.620 . S
C4577 C1638 0.618 . S
C4579 C1572 0.622 . S
C4588 C2595 0.626 . S
C4590 C1737 0.627 . S
C4599 C1803 0.621 . S
C4601 C1770 0.625 . S
C4610 C1836 0.626 . S
C4612 C2727 0.627 . S
C4621 C1869 0.619 . S
C4623 C2958 0.623 . S
C4632 C1968 0.622 . S
C4634 C2166 0.626 . S
C4643 C2067 0.627 . S
C4645 C2892 0.626 . S
C4654 C2265 0.626 . S
C4656 C2100 0.621 . S
C4665 C2397 0.621 . S
C4667 C2298 0.625 . S
C4676 C2331 0.618 . S
C4678 C2430 0.619 . S
C4687 C2463 0.623 . S
C4689 C2760 0.619 . S
C4698 C2496 0.619 . S
C4700 C2628 0.619 . S
C4709 C2529 0.618 . S
C4711 C3090 0.619 . S
C4720 C2826 0.627 . S
C4722 C3057 0.623 . S
C4731 C3024 0.620 . S
C4733 C2991 0.625 . S
C4742 C3123 0.620 . S
C4744 C3156 0.618 . S
C4753 N1685 1.053 . S
C4755 C7 1.285 . S
C4764 C40 1.287 . S
C4766 N761 1.043 . S
C4775 C73 1.290 1_554 S
C4777 N2774 1.033 . S
C4786 N728 1.038 . S
C4788 C106 1.287 . S
C4797 C139 1.290 . S
C4799 N1025 1.035 . S
C4808 C172 1.288 1_556 S
C4810 N1751 1.041 . S
C4819 C205 1.286 . S
C4821 N2510 1.046 . S
C4830 C238 1.285 . S
C4832 N2708 1.044 . S
C4841 C271 1.286 . S
C4843 N2114 1.045 . S
C4852 C304 1.283 . S
C4854 N893 1.052 . S
C4863 C337 1.286 . S
C4865 N1916 1.042 . S
C4874 C370 1.288 . S
C4876 N1388 1.040 . S
C4885 N2180 1.051 . S
C4887 C403 1.285 . S
C4896 N1421 1.054 . S
C4898 C436 1.284 . S
C4907 C469 1.284 . S
C4909 N860 1.051 . S
C4918 C502 1.284 . S
C4920 N1487 1.048 . S
C4929 N2840 1.050 . S
C4931 C535 1.284 . S
C4940 C568 1.283 . S
C4942 N398 1.052 . S
C4951 C601 1.283 . S
C4953 N431 1.052 . S
C4962 N464 1.044 . S
C4964 C634 1.286 1_545 S
C4973 N2411 1.053 . S
C4975 C667 1.285 . S
C4984 N1553 1.031 . S
C4986 C700 1.289 . S
C4995 C733 1.283 . S
C4997 N1190 1.052 . S
C5006 C766 1.284 1_655 S
C5008 N1520 1.051 . S
C5017 N233 1.038 . S
C5019 C1657 1.287 1_565 S
C5028 N794 1.048 . S
C5030 C1294 1.286 1_455 S
C5039 N827 1.053 . S
C5041 C2350 1.285 . S
C5050 C1558 1.290 . S
C5052 N926 1.036 . S
C5061 N959 1.031 . S
C5063 C2812 1.289 1_565 S
C5072 N2 1.031 . S
C5074 C2251 1.289 1_455 S
C5083 C2218 1.288 1_556 S
C5085 N992 1.038 . S
C5094 C1426 1.285 . S
C5096 N596 1.045 . S
C5105 N1058 1.055 . S
C5107 C1888 1.284 . S
C5116 N1091 1.046 . S
C5118 C2680 1.286 . S
C5127 C1921 1.286 . S
C5129 N1124 1.046 . S
C5138 C1327 1.284 1_554 S
C5140 N530 1.050 . S
C5149 N497 1.054 . S
C5151 C2548 1.284 1_655 S
C5160 C1096 1.283 . S
C5162 N1157 1.052 . S
C5171 C1129 1.287 . S
C5173 N332 1.042 . S
C5182 C2449 1.284 . S
C5184 N1223 1.050 . S
C5193 C1756 1.288 . S
C5195 N1256 1.036 . S
C5204 N1289 1.038 . S
C5206 C1987 1.287 . S
C5215 C898 1.285 . S
C5217 N1817 1.048 . S
C5226 N2576 1.031 . S
C5228 C1360 1.289 . S
C5237 C1393 1.288 . S
C5239 N1784 1.042 . S
C5248 N1982 1.043 . S
C5250 C799 1.286 . S
C5259 C1459 1.289 . S
C5261 N2741 1.039 . S
C5270 N2543 1.041 . S
C5272 C1492 1.288 1_556 S
C5281 N2906 1.055 . S
C5283 C1228 1.284 . S
C5292 N35 1.052 . S
C5294 C1525 1.284 . S
C5303 C1195 1.289 1_565 S
C5305 N101 1.039 . S
C5314 C1591 1.284 . S
C5316 N2642 1.049 . S
C5325 N167 1.031 . S
C5327 C1261 1.289 . S
C5336 C1624 1.284 . S
C5338 N1883 1.051 . S
C5347 C1690 1.289 1_545 S
C5349 N2246 1.038 . S
C5358 N1586 1.053 . S
C5360 C1723 1.284 . S
C5369 N1619 1.031 . S
C5371 C1063 1.289 . S
C5380 C997 1.289 . S
C5382 N3038 1.035 . S
C5391 N365 1.033 . S
C5393 C1789 1.289 . S
C5402 C1822 1.285 1_655 S
C5404 N299 1.045 . S
C5413 N134 1.046 . S
C5415 C2086 1.285 1_455 S
C5424 C2878 1.290 . S
C5426 N1850 1.036 . S
C5435 N1949 1.054 . S
C5437 C2317 1.284 . S
C5446 N1322 1.046 . S
C5448 C2845 1.286 1_455 S
C5457 N662 1.049 . S
C5459 C2944 1.286 . S
C5468 N629 1.034 . S
C5470 C865 1.289 . S
C5479 C2152 1.287 . S
C5481 N2015 1.039 . S
C5490 C931 1.284 1_554 S
C5492 N695 1.047 . S
C5501 N1652 1.039 . S
C5503 C2713 1.287 1_655 S
C5512 C2020 1.284 . S
C5514 N2048 1.051 . S
C5523 C3076 1.289 1_545 S
C5525 N266 1.039 . S
C5534 C1030 1.289 . S
C5536 N2081 1.038 . S
C5545 N3071 1.039 . S
C5547 C2119 1.288 1_554 S
C5556 N2609 1.042 . S
C5558 C964 1.286 . S
C5567 N563 1.043 . S
C5569 C2185 1.287 . S
C5578 N3104 1.051 . S
C5580 C1855 1.284 . S
C5589 N2675 1.037 . S
C5591 C1162 1.287 . S
C5600 C2284 1.283 . S
C5602 N68 1.052 . S
C5611 N200 1.044 . S
C5613 C2383 1.286 . S
C5622 C2416 1.283 . S
C5624 N2939 1.052 . S
C5633 N2345 1.049 . S
C5635 C2482 1.286 . S
C5644 C2515 1.284 1_545 S
C5646 N2378 1.051 . S
C5655 C2581 1.290 . S
C5657 N2972 1.033 . S
C5666 C2614 1.290 . S
C5668 N2807 1.034 . S
C5677 N2213 1.032 . S
C5679 C3043 1.289 1_565 S
C5688 N1355 1.047 . S
C5690 C2977 1.286 . S
C5699 C832 1.289 1_556 S
C5701 N2477 1.034 . S
C5710 C2911 1.286 . S
C5712 N2444 1.046 . S
C5721 N2279 1.031 . S
C5723 C2779 1.289 . S
C5732 N2873 1.035 . S
C5734 C3109 1.288 . S
C5743 C1954 1.283 . S
C5745 N3137 1.052 . S
C5754 C2647 1.288 . S
C5756 N1718 1.040 . S
C5765 N2147 1.055 . S
C5767 C2053 1.284 . S
C5776 N1454 1.035 . S
C5778 C3010 1.289 . S
C5787 N3005 1.032 . S
C5789 C2746 1.289 . S
C5798 C3142 1.290 . S
C5800 N2312 1.033 . S
