# Generated by pormake.
# Topology lcv-a, (4)-cn, num edge types: 1
# Building blocks:
#     Node 0, Type 0, BuildingBlock: KUFVIS_clean_sbu_0, # of connection points: 4
#     Node 1, Type 0, BuildingBlock: KUFVIS_clean_sbu_0, # of connection points: 4
#     Node 2, Type 0, BuildingBlock: KUFVIS_clean_sbu_0, # of connection points: 4
#     Node 3, Type 0, BuildingBlock: KUFVIS_clean_sbu_0, # of connection points: 4
#     Node 4, Type 0, BuildingBlock: KUFVIS_clean_sbu_0, # of connection points: 4
#     Node 5, Type 0, BuildingBlock: KUFVIS_clean_sbu_0, # of connection points: 4
#     Node 6, Type 0, BuildingBlock: KUFVIS_clean_sbu_0, # of connection points: 4
#     Node 7, Type 0, BuildingBlock: KUFVIS_clean_sbu_0, # of connection points: 4
#     Node 8, Type 0, BuildingBlock: KUFVIS_clean_sbu_0, # of connection points: 4
#     Node 9, Type 0, BuildingBlock: KUFVIS_clean_sbu_0, # of connection points: 4
#     Node 10, Type 0, BuildingBlock: KUFVIS_clean_sbu_0, # of connection points: 4
#     Node 11, Type 0, BuildingBlock: KUFVIS_clean_sbu_0, # of connection points: 4
#     Node 12, Type 0, BuildingBlock: KUFVIS_clean_sbu_0, # of connection points: 4
#     Node 13, Type 0, BuildingBlock: KUFVIS_clean_sbu_0, # of connection points: 4
#     Node 14, Type 0, BuildingBlock: KUFVIS_clean_sbu_0, # of connection points: 4
#     Node 15, Type 0, BuildingBlock: KUFVIS_clean_sbu_0, # of connection points: 4
#     Node 16, Type 0, BuildingBlock: KUFVIS_clean_sbu_0, # of connection points: 4
#     Node 17, Type 0, BuildingBlock: KUFVIS_clean_sbu_0, # of connection points: 4
#     Node 18, Type 0, BuildingBlock: KUFVIS_clean_sbu_0, # of connection points: 4
#     Node 19, Type 0, BuildingBlock: KUFVIS_clean_sbu_0, # of connection points: 4
#     Node 20, Type 0, BuildingBlock: KUFVIS_clean_sbu_0, # of connection points: 4
#     Node 21, Type 0, BuildingBlock: KUFVIS_clean_sbu_0, # of connection points: 4
#     Node 22, Type 0, BuildingBlock: KUFVIS_clean_sbu_0, # of connection points: 4
#     Node 23, Type 0, BuildingBlock: KUFVIS_clean_sbu_0, # of connection points: 4
#     Node 24, Type 0, BuildingBlock: KUFVIS_clean_sbu_0, # of connection points: 4
#     Node 25, Type 0, BuildingBlock: KUFVIS_clean_sbu_0, # of connection points: 4
#     Node 26, Type 0, BuildingBlock: KUFVIS_clean_sbu_0, # of connection points: 4
#     Node 27, Type 0, BuildingBlock: KUFVIS_clean_sbu_0, # of connection points: 4
#     Node 28, Type 0, BuildingBlock: KUFVIS_clean_sbu_0, # of connection points: 4
#     Node 29, Type 0, BuildingBlock: KUFVIS_clean_sbu_0, # of connection points: 4
#     Node 30, Type 0, BuildingBlock: KUFVIS_clean_sbu_0, # of connection points: 4
#     Node 31, Type 0, BuildingBlock: KUFVIS_clean_sbu_0, # of connection points: 4
#     Node 32, Type 0, BuildingBlock: KUFVIS_clean_sbu_0, # of connection points: 4
#     Node 33, Type 0, BuildingBlock: KUFVIS_clean_sbu_0, # of connection points: 4
#     Node 34, Type 0, BuildingBlock: KUFVIS_clean_sbu_0, # of connection points: 4
#     Node 35, Type 0, BuildingBlock: KUFVIS_clean_sbu_0, # of connection points: 4
#     Node 36, Type 0, BuildingBlock: KUFVIS_clean_sbu_0, # of connection points: 4
#     Node 37, Type 0, BuildingBlock: KUFVIS_clean_sbu_0, # of connection points: 4
#     Node 38, Type 0, BuildingBlock: KUFVIS_clean_sbu_0, # of connection points: 4
#     Node 39, Type 0, BuildingBlock: KUFVIS_clean_sbu_0, # of connection points: 4
#     Node 40, Type 0, BuildingBlock: KUFVIS_clean_sbu_0, # of connection points: 4
#     Node 41, Type 0, BuildingBlock: KUFVIS_clean_sbu_0, # of connection points: 4
#     Node 42, Type 0, BuildingBlock: KUFVIS_clean_sbu_0, # of connection points: 4
#     Node 43, Type 0, BuildingBlock: KUFVIS_clean_sbu_0, # of connection points: 4
#     Node 44, Type 0, BuildingBlock: KUFVIS_clean_sbu_0, # of connection points: 4
#     Node 45, Type 0, BuildingBlock: KUFVIS_clean_sbu_0, # of connection points: 4
#     Node 46, Type 0, BuildingBlock: KUFVIS_clean_sbu_0, # of connection points: 4
#     Node 47, Type 0, BuildingBlock: KUFVIS_clean_sbu_0, # of connection points: 4
#     Edge 48, Type (0, 0), BuildingBlock: MIFKUJ_clean_linker_0, # of connection points: 2
#     Edge 49, Type (0, 0), BuildingBlock: MIFKUJ_clean_linker_0, # of connection points: 2
#     Edge 50, Type (0, 0), BuildingBlock: MIFKUJ_clean_linker_0, # of connection points: 2
#     Edge 51, Type (0, 0), BuildingBlock: MIFKUJ_clean_linker_0, # of connection points: 2
#     Edge 52, Type (0, 0), BuildingBlock: MIFKUJ_clean_linker_0, # of connection points: 2
#     Edge 53, Type (0, 0), BuildingBlock: MIFKUJ_clean_linker_0, # of connection points: 2
#     Edge 54, Type (0, 0), BuildingBlock: MIFKUJ_clean_linker_0, # of connection points: 2
#     Edge 55, Type (0, 0), BuildingBlock: MIFKUJ_clean_linker_0, # of connection points: 2
#     Edge 56, Type (0, 0), BuildingBlock: MIFKUJ_clean_linker_0, # of connection points: 2
#     Edge 57, Type (0, 0), BuildingBlock: MIFKUJ_clean_linker_0, # of connection points: 2
#     Edge 58, Type (0, 0), BuildingBlock: MIFKUJ_clean_linker_0, # of connection points: 2
#     Edge 59, Type (0, 0), BuildingBlock: MIFKUJ_clean_linker_0, # of connection points: 2
#     Edge 60, Type (0, 0), BuildingBlock: MIFKUJ_clean_linker_0, # of connection points: 2
#     Edge 61, Type (0, 0), BuildingBlock: MIFKUJ_clean_linker_0, # of connection points: 2
#     Edge 62, Type (0, 0), BuildingBlock: MIFKUJ_clean_linker_0, # of connection points: 2
#     Edge 63, Type (0, 0), BuildingBlock: MIFKUJ_clean_linker_0, # of connection points: 2
#     Edge 64, Type (0, 0), BuildingBlock: MIFKUJ_clean_linker_0, # of connection points: 2
#     Edge 65, Type (0, 0), BuildingBlock: MIFKUJ_clean_linker_0, # of connection points: 2
#     Edge 66, Type (0, 0), BuildingBlock: MIFKUJ_clean_linker_0, # of connection points: 2
#     Edge 67, Type (0, 0), BuildingBlock: MIFKUJ_clean_linker_0, # of connection points: 2
#     Edge 68, Type (0, 0), BuildingBlock: MIFKUJ_clean_linker_0, # of connection points: 2
#     Edge 69, Type (0, 0), BuildingBlock: MIFKUJ_clean_linker_0, # of connection points: 2
#     Edge 70, Type (0, 0), BuildingBlock: MIFKUJ_clean_linker_0, # of connection points: 2
#     Edge 71, Type (0, 0), BuildingBlock: MIFKUJ_clean_linker_0, # of connection points: 2
#     Edge 72, Type (0, 0), BuildingBlock: MIFKUJ_clean_linker_0, # of connection points: 2
#     Edge 73, Type (0, 0), BuildingBlock: MIFKUJ_clean_linker_0, # of connection points: 2
#     Edge 74, Type (0, 0), BuildingBlock: MIFKUJ_clean_linker_0, # of connection points: 2
#     Edge 75, Type (0, 0), BuildingBlock: MIFKUJ_clean_linker_0, # of connection points: 2
#     Edge 76, Type (0, 0), BuildingBlock: MIFKUJ_clean_linker_0, # of connection points: 2
#     Edge 77, Type (0, 0), BuildingBlock: MIFKUJ_clean_linker_0, # of connection points: 2
#     Edge 78, Type (0, 0), BuildingBlock: MIFKUJ_clean_linker_0, # of connection points: 2
#     Edge 79, Type (0, 0), BuildingBlock: MIFKUJ_clean_linker_0, # of connection points: 2
#     Edge 80, Type (0, 0), BuildingBlock: MIFKUJ_clean_linker_0, # of connection points: 2
#     Edge 81, Type (0, 0), BuildingBlock: MIFKUJ_clean_linker_0, # of connection points: 2
#     Edge 82, Type (0, 0), BuildingBlock: MIFKUJ_clean_linker_0, # of connection points: 2
#     Edge 83, Type (0, 0), BuildingBlock: MIFKUJ_clean_linker_0, # of connection points: 2
#     Edge 84, Type (0, 0), BuildingBlock: MIFKUJ_clean_linker_0, # of connection points: 2
#     Edge 85, Type (0, 0), BuildingBlock: MIFKUJ_clean_linker_0, # of connection points: 2
#     Edge 86, Type (0, 0), BuildingBlock: MIFKUJ_clean_linker_0, # of connection points: 2
#     Edge 87, Type (0, 0), BuildingBlock: MIFKUJ_clean_linker_0, # of connection points: 2
#     Edge 88, Type (0, 0), BuildingBlock: MIFKUJ_clean_linker_0, # of connection points: 2
#     Edge 89, Type (0, 0), BuildingBlock: MIFKUJ_clean_linker_0, # of connection points: 2
#     Edge 90, Type (0, 0), BuildingBlock: MIFKUJ_clean_linker_0, # of connection points: 2
#     Edge 91, Type (0, 0), BuildingBlock: MIFKUJ_clean_linker_0, # of connection points: 2
#     Edge 92, Type (0, 0), BuildingBlock: MIFKUJ_clean_linker_0, # of connection points: 2
#     Edge 93, Type (0, 0), BuildingBlock: MIFKUJ_clean_linker_0, # of connection points: 2
#     Edge 94, Type (0, 0), BuildingBlock: MIFKUJ_clean_linker_0, # of connection points: 2
#     Edge 95, Type (0, 0), BuildingBlock: MIFKUJ_clean_linker_0, # of connection points: 2
#     Edge 96, Type (0, 0), BuildingBlock: MIFKUJ_clean_linker_0, # of connection points: 2
#     Edge 97, Type (0, 0), BuildingBlock: MIFKUJ_clean_linker_0, # of connection points: 2
#     Edge 98, Type (0, 0), BuildingBlock: MIFKUJ_clean_linker_0, # of connection points: 2
#     Edge 99, Type (0, 0), BuildingBlock: MIFKUJ_clean_linker_0, # of connection points: 2
#     Edge 100, Type (0, 0), BuildingBlock: MIFKUJ_clean_linker_0, # of connection points: 2
#     Edge 101, Type (0, 0), BuildingBlock: MIFKUJ_clean_linker_0, # of connection points: 2
#     Edge 102, Type (0, 0), BuildingBlock: MIFKUJ_clean_linker_0, # of connection points: 2
#     Edge 103, Type (0, 0), BuildingBlock: MIFKUJ_clean_linker_0, # of connection points: 2
#     Edge 104, Type (0, 0), BuildingBlock: MIFKUJ_clean_linker_0, # of connection points: 2
#     Edge 105, Type (0, 0), BuildingBlock: MIFKUJ_clean_linker_0, # of connection points: 2
#     Edge 106, Type (0, 0), BuildingBlock: MIFKUJ_clean_linker_0, # of connection points: 2
#     Edge 107, Type (0, 0), BuildingBlock: MIFKUJ_clean_linker_0, # of connection points: 2
#     Edge 108, Type (0, 0), BuildingBlock: MIFKUJ_clean_linker_0, # of connection points: 2
#     Edge 109, Type (0, 0), BuildingBlock: MIFKUJ_clean_linker_0, # of connection points: 2
#     Edge 110, Type (0, 0), BuildingBlock: MIFKUJ_clean_linker_0, # of connection points: 2
#     Edge 111, Type (0, 0), BuildingBlock: MIFKUJ_clean_linker_0, # of connection points: 2
#     Edge 112, Type (0, 0), BuildingBlock: MIFKUJ_clean_linker_0, # of connection points: 2
#     Edge 113, Type (0, 0), BuildingBlock: MIFKUJ_clean_linker_0, # of connection points: 2
#     Edge 114, Type (0, 0), BuildingBlock: MIFKUJ_clean_linker_0, # of connection points: 2
#     Edge 115, Type (0, 0), BuildingBlock: MIFKUJ_clean_linker_0, # of connection points: 2
#     Edge 116, Type (0, 0), BuildingBlock: MIFKUJ_clean_linker_0, # of connection points: 2
#     Edge 117, Type (0, 0), BuildingBlock: MIFKUJ_clean_linker_0, # of connection points: 2
#     Edge 118, Type (0, 0), BuildingBlock: MIFKUJ_clean_linker_0, # of connection points: 2
#     Edge 119, Type (0, 0), BuildingBlock: MIFKUJ_clean_linker_0, # of connection points: 2
#     Edge 120, Type (0, 0), BuildingBlock: MIFKUJ_clean_linker_0, # of connection points: 2
#     Edge 121, Type (0, 0), BuildingBlock: MIFKUJ_clean_linker_0, # of connection points: 2
#     Edge 122, Type (0, 0), BuildingBlock: MIFKUJ_clean_linker_0, # of connection points: 2
#     Edge 123, Type (0, 0), BuildingBlock: MIFKUJ_clean_linker_0, # of connection points: 2
#     Edge 124, Type (0, 0), BuildingBlock: MIFKUJ_clean_linker_0, # of connection points: 2
#     Edge 125, Type (0, 0), BuildingBlock: MIFKUJ_clean_linker_0, # of connection points: 2
#     Edge 126, Type (0, 0), BuildingBlock: MIFKUJ_clean_linker_0, # of connection points: 2
#     Edge 127, Type (0, 0), BuildingBlock: MIFKUJ_clean_linker_0, # of connection points: 2
#     Edge 128, Type (0, 0), BuildingBlock: MIFKUJ_clean_linker_0, # of connection points: 2
#     Edge 129, Type (0, 0), BuildingBlock: MIFKUJ_clean_linker_0, # of connection points: 2
#     Edge 130, Type (0, 0), BuildingBlock: MIFKUJ_clean_linker_0, # of connection points: 2
#     Edge 131, Type (0, 0), BuildingBlock: MIFKUJ_clean_linker_0, # of connection points: 2
#     Edge 132, Type (0, 0), BuildingBlock: MIFKUJ_clean_linker_0, # of connection points: 2
#     Edge 133, Type (0, 0), BuildingBlock: MIFKUJ_clean_linker_0, # of connection points: 2
#     Edge 134, Type (0, 0), BuildingBlock: MIFKUJ_clean_linker_0, # of connection points: 2
#     Edge 135, Type (0, 0), BuildingBlock: MIFKUJ_clean_linker_0, # of connection points: 2
#     Edge 136, Type (0, 0), BuildingBlock: MIFKUJ_clean_linker_0, # of connection points: 2
#     Edge 137, Type (0, 0), BuildingBlock: MIFKUJ_clean_linker_0, # of connection points: 2
#     Edge 138, Type (0, 0), BuildingBlock: MIFKUJ_clean_linker_0, # of connection points: 2
#     Edge 139, Type (0, 0), BuildingBlock: MIFKUJ_clean_linker_0, # of connection points: 2
#     Edge 140, Type (0, 0), BuildingBlock: MIFKUJ_clean_linker_0, # of connection points: 2
#     Edge 141, Type (0, 0), BuildingBlock: MIFKUJ_clean_linker_0, # of connection points: 2
#     Edge 142, Type (0, 0), BuildingBlock: MIFKUJ_clean_linker_0, # of connection points: 2
#     Edge 143, Type (0, 0), BuildingBlock: MIFKUJ_clean_linker_0, # of connection points: 2
# Relax obj value: 0.867
# Max RMSD: 0.356
# Mean RMSD: 0.303
data_MOF--net-lcv-a--node1-KUFVIS_clean_sbu_0--edge1-MIFKUJ_clean_linker_0
_symmetry_space_group_name_H-M    P1
_symmetry_Int_Tables_number       1
_symmetry_cell_setting            triclinic
loop_
_symmetry_equiv_pos_as_xyz
'x, y, z'
_cell_length_a     108.33985
_cell_length_b     108.32197
_cell_length_c     108.29833
_cell_angle_alpha  89.577246
_cell_angle_beta   89.589555
_cell_angle_gamma 89.608491
loop_
_atom_site_label
_atom_site_type_symbol
_atom_site_fract_x
_atom_site_fract_y
_atom_site_fract_z
_atom_type_partial_charge
Mn0 Mn 0.01927 0.2797 0.2541 0.0
Mn1 Mn 0.01265 0.25076 0.24525 0.0
C2 C 0.00045 0.27577 0.24474 0.0
C3 C 0.01799 0.29427 0.26994 0.0
C4 C 0.02957 0.26785 0.2307 0.0
O5 O 0.03195 0.26946 0.26365 0.0
O6 O 0.02554 0.25064 0.25799 0.0
C7 C 0.00214 0.24082 0.26856 0.0
N8 N 0.00108 0.24316 0.25625 0.0
C9 C 0.98323 0.23018 0.2549 0.0
C10 C 0.98412 0.22763 0.26758 0.0
C11 C 0.99354 0.2331 0.27447 0.0
C12 C 0.99177 0.23834 0.24964 0.0
H13 H 0.00962 0.24466 0.27378 0.0
C14 C 0.03244 0.25773 0.26422 0.0
O15 O 0.02603 0.29554 0.26104 0.0
O16 O 0.01126 0.2845 0.26977 0.0
N17 N 0.0002 0.2491 0.23298 0.0
C18 C 0.00068 0.2524 0.22083 0.0
C19 C 0.99176 0.24794 0.21269 0.0
C20 C 0.98302 0.23939 0.21695 0.0
C21 C 0.98277 0.23599 0.22946 0.0
C22 C 0.9914 0.24136 0.23728 0.0
H23 H 0.00785 0.25829 0.21738 0.0
O24 O 0.00509 0.28675 0.24488 0.0
O25 O 0.00706 0.26726 0.25014 0.0
O26 O 0.02864 0.27743 0.2375 0.0
O27 O 0.02437 0.2576 0.2332 0.0
C28 C 0.97445 0.22729 0.23444 0.0
C29 C 0.9745 0.22459 0.24719 0.0
H30 H 0.97769 0.22142 0.27209 0.0
H31 H 0.99433 0.23114 0.28424 0.0
H32 H 0.99204 0.25059 0.20304 0.0
H33 H 0.97664 0.23536 0.2105 0.0
H34 H 0.96784 0.22277 0.22856 0.0
H35 H 0.96791 0.21806 0.25094 0.0
Mn36 Mn 0.98143 0.77119 0.4043 0.0
Mn37 Mn 0.01038 0.76232 0.39894 0.0
C38 C 0.9859 0.75023 0.40252 0.0
C39 C 0.96872 0.77552 0.42143 0.0
C40 C 0.9949 0.77681 0.38075 0.0
O41 O 0.99223 0.78614 0.40813 0.0
O42 O 0.0096 0.77521 0.41168 0.0
C43 C 0.0354 0.7719 0.40332 0.0
N44 N 0.02765 0.76505 0.39629 0.0
C45 C 0.04485 0.75675 0.38479 0.0
C46 C 0.05286 0.76433 0.39138 0.0
C47 C 0.04811 0.77184 0.4008 0.0
C48 C 0.03221 0.75726 0.3877 0.0
H49 H 0.03199 0.77702 0.41112 0.0
C50 C 0.00325 0.78521 0.41214 0.0
O51 O 0.96605 0.78011 0.41062 0.0
O52 O 0.97848 0.76874 0.42203 0.0
N53 N 0.01198 0.75028 0.38588 0.0
C54 C 0.00308 0.74422 0.37949 0.0
C55 C 0.00641 0.73613 0.36996 0.0
C56 C 0.01886 0.73455 0.36674 0.0
C57 C 0.02783 0.74147 0.37276 0.0
C58 C 0.02394 0.74949 0.38215 0.0
H59 H 0.99343 0.74592 0.38113 0.0
O60 O 0.97442 0.75365 0.40199 0.0
O61 O 0.9935 0.75915 0.40226 0.0
O62 O 0.98419 0.77482 0.3857 0.0
O63 O 0.0053 0.77457 0.38612 0.0
C64 C 0.04046 0.74093 0.36957 0.0
C65 C 0.04897 0.74849 0.37565 0.0
H66 H 0.0627 0.7642 0.38953 0.0
H67 H 0.05426 0.77737 0.40628 0.0
H68 H 0.99934 0.73136 0.36491 0.0
H69 H 0.02138 0.72832 0.35934 0.0
H70 H 0.04371 0.73473 0.36242 0.0
H71 H 0.05868 0.74789 0.37322 0.0
Mn72 Mn 0.56127 0.74851 0.72266 0.0
Mn73 Mn 0.56923 0.77697 0.71293 0.0
C74 C 0.57857 0.75104 0.71016 0.0
C75 C 0.56394 0.73445 0.73896 0.0
C76 C 0.54776 0.76252 0.70228 0.0
O77 O 0.55111 0.75979 0.73388 0.0
O78 O 0.55887 0.77821 0.72806 0.0
C79 C 0.58582 0.78382 0.73422 0.0
N80 N 0.58383 0.78239 0.72146 0.0
C81 C 0.60442 0.78962 0.71595 0.0
C82 C 0.60659 0.79139 0.72853 0.0
C83 C 0.59751 0.78841 0.73741 0.0
C84 C 0.59298 0.7851 0.71253 0.0
H85 H 0.58016 0.78138 0.72694 0.0
C86 C 0.55199 0.77145 0.73489 0.0
O87 O 0.55467 0.7333 0.73146 0.0
O88 O 0.57136 0.74345 0.73691 0.0
N89 N 0.57924 0.77718 0.69823 0.0
C90 C 0.57593 0.7741 0.68654 0.0
C91 C 0.58429 0.77595 0.67675 0.0
C92 C 0.59597 0.78088 0.67906 0.0
C93 C 0.59917 0.78408 0.69112 0.0
C94 C 0.59038 0.78226 0.70047 0.0
H95 H 0.56693 0.77034 0.68467 0.0
O96 O 0.57351 0.74028 0.71124 0.0
O97 O 0.5733 0.75981 0.71639 0.0
O98 O 0.54924 0.75221 0.70809 0.0
O99 O 0.55456 0.77197 0.70385 0.0
C100 C 0.61077 0.78892 0.69428 0.0
C101 C 0.61337 0.79172 0.7067 0.0
H102 H 0.61541 0.79484 0.73157 0.0
H103 H 0.59954 0.7897 0.74707 0.0
H104 H 0.58174 0.77368 0.66741 0.0
H105 H 0.60236 0.78214 0.67147 0.0
H106 H 0.61775 0.79053 0.68727 0.0
H107 H 0.62231 0.7953 0.7091 0.0
Mn108 Mn 0.53699 0.30632 0.00777 0.0
Mn109 Mn 0.51649 0.31829 0.98801 0.0
C110 C 0.54373 0.31332 0.98872 0.0
C111 C 0.54996 0.31292 0.0237 0.0
C112 C 0.52018 0.29055 0.9924 0.0
O113 O 0.52188 0.30868 0.0187 0.0
O114 O 0.5103 0.31952 0.00526 0.0
C115 C 0.51631 0.34452 0.99555 0.0
N116 N 0.51767 0.33585 0.98662 0.0
C117 C 0.51654 0.35131 0.9706 0.0
C118 C 0.51479 0.36038 0.97963 0.0
C119 C 0.51492 0.35699 0.99218 0.0
C120 C 0.51821 0.33908 0.97456 0.0
H121 H 0.51618 0.34189 0.00514 0.0
C122 C 0.51258 0.31536 0.01611 0.0
O123 O 0.54749 0.30121 0.02266 0.0
O124 O 0.54474 0.32015 0.01593 0.0
N125 N 0.52129 0.31816 0.97094 0.0
C126 C 0.52362 0.30839 0.96343 0.0
C127 C 0.5247 0.3103 0.95062 0.0
C128 C 0.52286 0.32216 0.94562 0.0
C129 C 0.52043 0.33208 0.95353 0.0
C130 C 0.52013 0.32971 0.96625 0.0
H131 H 0.52455 0.29924 0.96719 0.0
O132 O 0.5505 0.306 0.99533 0.0
O133 O 0.53333 0.31667 0.99368 0.0
O134 O 0.52947 0.29077 -0.00028 0.0
O135 O 0.5146 0.30023 0.98845 0.0
C136 C 0.51807 0.3442 0.9493 0.0
C137 C 0.51634 0.35385 0.95783 0.0
H138 H 0.51343 0.36997 0.97705 0.0
H139 H 0.51371 0.36394 0.99922 0.0
H140 H 0.52658 0.30257 0.94459 0.0
H141 H 0.52334 0.32354 0.93571 0.0
H142 H 0.51774 0.34623 0.9395 0.0
H143 H 0.5148 0.36318 0.95446 0.0
Mn144 Mn 0.0888 0.65055 0.40029 0.0
Mn145 Mn 0.09556 0.68087 0.39766 0.0
C146 C 0.07482 0.66499 0.40733 0.0
C147 C 0.0808 0.63373 0.38944 0.0
C148 C 0.10567 0.66414 0.41798 0.0
O149 O 0.10335 0.65054 0.38859 0.0
O150 O 0.10603 0.67096 0.38627 0.0
C151 C 0.08805 0.68584 0.37182 0.0
N152 N 0.08708 0.68841 0.38409 0.0
C153 C 0.07463 0.70645 0.37989 0.0
C154 C 0.07555 0.704 0.36721 0.0
C155 C 0.08224 0.69362 0.36317 0.0
C156 C 0.08063 0.69837 0.38807 0.0
H157 H 0.09335 0.67799 0.36864 0.0
C158 C 0.10853 0.65974 0.38351 0.0
O159 O 0.08791 0.6319 0.39895 0.0
O160 O 0.07822 0.64505 0.38673 0.0
N161 N 0.08593 0.69175 0.40783 0.0
C162 C 0.08537 0.69246 0.42036 0.0
C163 C 0.07883 0.70219 0.42594 0.0
C164 C 0.0729 0.7111 0.41854 0.0
C165 C 0.07333 0.71003 0.40566 0.0
C166 C 0.08003 0.70014 0.40065 0.0
H167 H 0.08993 0.68569 0.426 0.0
O168 O 0.07414 0.65353 0.41081 0.0
O169 O 0.0834 0.66764 0.39926 0.0
O170 O 0.10016 0.65406 0.41527 0.0
O171 O 0.10458 0.67417 0.41182 0.0
C172 C 0.06737 0.71838 0.3976 0.0
C173 C 0.06802 0.71659 0.38472 0.0
H174 H 0.07114 0.71002 0.36051 0.0
H175 H 0.083 0.69168 0.35341 0.0
H176 H 0.07845 0.70289 0.4359 0.0
H177 H 0.068 0.7187 0.42281 0.0
H178 H 0.06218 0.72616 0.40121 0.0
H179 H 0.06335 0.72303 0.37862 0.0
Mn180 Mn 0.67089 0.84176 0.6621 0.0
Mn181 Mn 0.64075 0.84564 0.66862 0.0
C182 C 0.66129 0.82856 0.67625 0.0
C183 C 0.68479 0.83099 0.64913 0.0
C184 C 0.6608 0.86203 0.67899 0.0
O185 O 0.66517 0.85264 0.64784 0.0
O186 O 0.64499 0.85375 0.65274 0.0
C187 C 0.63075 0.83071 0.6483 0.0
N188 N 0.63145 0.8332 0.66058 0.0
C189 C 0.61476 0.81941 0.66527 0.0
C190 C 0.6135 0.81707 0.65263 0.0
C191 C 0.62172 0.82252 0.64413 0.0
C192 C 0.62412 0.82742 0.66889 0.0
H193 H 0.63675 0.83526 0.64172 0.0
C194 C 0.65419 0.85629 0.64577 0.0
O195 O 0.68837 0.84083 0.65491 0.0
O196 O 0.67345 0.82796 0.65061 0.0
N197 N 0.63483 0.83845 0.68371 0.0
C198 C 0.63649 0.84255 0.69545 0.0
C199 C 0.62913 0.83779 0.70509 0.0
C200 C 0.6199 0.82917 0.70252 0.0
C201 C 0.61805 0.82543 0.69033 0.0
C202 C 0.62585 0.83025 0.68114 0.0
H203 H 0.64325 0.84954 0.6974 0.0
O204 O 0.67313 0.83013 0.67627 0.0
O205 O 0.65543 0.83519 0.66812 0.0
O206 O 0.67033 0.85675 0.67414 0.0
O207 O 0.64973 0.8585 0.67728 0.0
C208 C 0.6084 0.81756 0.68687 0.0
C209 C 0.60683 0.81445 0.67436 0.0
H210 H 0.60627 0.81109 0.64936 0.0
H211 H 0.62088 0.82066 0.63437 0.0
H212 H 0.63028 0.841 0.71443 0.0
H213 H 0.61409 0.82572 0.70995 0.0
H214 H 0.60203 0.81398 0.69374 0.0
H215 H 0.59937 0.80839 0.67181 0.0
Mn216 Mn 0.54443 0.38814 0.87475 0.0
Mn217 Mn 0.5448 0.35762 0.89144 0.0
C218 C 0.55831 0.38193 0.89215 0.0
C219 C 0.55311 0.40391 0.86419 0.0
C220 C 0.52388 0.37743 0.89205 0.0
O221 O 0.54812 0.37027 0.87486 0.0
O222 O 0.54053 0.35289 0.87441 0.0
C223 C 0.56589 0.34458 0.87967 0.0
N224 N 0.56016 0.34856 0.89011 0.0
C225 C 0.56916 0.32925 0.90161 0.0
C226 C 0.5754 0.32659 0.89015 0.0
C227 C 0.57395 0.33435 0.8798 0.0
C228 C 0.56257 0.34338 0.90107 0.0
H229 H 0.56412 0.34912 0.87095 0.0
C230 C 0.54312 0.36218 0.86822 0.0
O231 O 0.54231 0.4052 0.8695 0.0
O232 O 0.55851 0.3931 0.86442 0.0
N233 N 0.54794 0.35927 0.90894 0.0
C234 C 0.54073 0.3656 0.91711 0.0
C235 C 0.53908 0.36158 0.92941 0.0
C236 C 0.54353 0.35015 0.93371 0.0
C237 C 0.55056 0.34255 0.92618 0.0
C238 C 0.55429 0.34913 0.91252 0.0
H239 H 0.53606 0.37393 0.91418 0.0
O240 O 0.5552 0.3929 0.88959 0.0
O241 O 0.55288 0.37389 0.88549 0.0
O242 O 0.52902 0.38606 0.88574 0.0
O243 O 0.52852 0.36653 0.89363 0.0
C244 C 0.55435 0.32814 0.93133 0.0
C245 C 0.56353 0.31844 0.92273 0.0
H246 H 0.58104 0.31847 0.88857 0.0
H247 H 0.57851 0.3318 0.87125 0.0
H248 H 0.53353 0.36718 0.93558 0.0
H249 H 0.54153 0.3472 0.94304 0.0
H250 H 0.55024 0.32488 0.93981 0.0
H251 H 0.56553 0.30927 0.92656 0.0
Mn252 Mn 0.87776 0.22663 0.21622 0.0
Mn253 Mn 0.90699 0.23455 0.21554 0.0
C254 C 0.88458 0.24281 0.22836 0.0
C255 C 0.85997 0.23059 0.20538 0.0
C256 C 0.89771 0.21011 0.22546 0.0
O257 O 0.88536 0.21861 0.2007 0.0
O258 O 0.9011 0.23187 0.19862 0.0
C259 C 0.92811 0.23375 0.19829 0.0
N260 N 0.92377 0.23405 0.21015 0.0
C261 C 0.94355 0.24044 0.21757 0.0
C262 C 0.94822 0.24012 0.20548 0.0
C263 C 0.94049 0.23662 0.19581 0.0
C264 C 0.93113 0.23752 0.21948 0.0
H265 H 0.92209 0.23181 0.19068 0.0
C266 C 0.89416 0.22343 0.19443 0.0
O267 O 0.86103 0.22042 0.21179 0.0
O268 O 0.86895 0.23833 0.20569 0.0
N269 N 0.91352 0.23653 0.23186 0.0
C270 C 0.90812 0.23424 0.24306 0.0
C271 C 0.915 0.23556 0.2539 0.0
C272 C 0.92753 0.23867 0.25312 0.0
C273 C 0.9331 0.24001 0.24148 0.0
C274 C 0.9258 0.23836 0.23103 0.0
H275 H 0.89869 0.23117 0.24376 0.0
O276 O 0.87371 0.23849 0.23092 0.0
O277 O 0.89056 0.23646 0.22056 0.0
O278 O 0.88623 0.21316 0.22648 0.0
O279 O 0.90592 0.21656 0.21957 0.0
C280 C 0.94569 0.24254 0.23979 0.0
C281 C 0.95069 0.24361 0.22781 0.0
H282 H 0.95768 0.24261 0.20348 0.0
H283 H 0.94399 0.23641 0.18644 0.0
H284 H 0.9107 0.23402 0.26283 0.0
H285 H 0.93284 0.23971 0.26148 0.0
H286 H 0.95165 0.2434 0.2476 0.0
H287 H 0.96012 0.24651 0.2266 0.0
Mn288 Mn 0.25248 0.0212 0.28021 0.0
Mn289 Mn 0.23908 0.01194 0.25384 0.0
C290 C 0.24271 0.00222 0.27922 0.0
C291 C 0.27034 0.02072 0.29252 0.0
C292 C 0.22751 0.03085 0.27111 0.0
O293 O 0.26001 0.03297 0.26726 0.0
O294 O 0.25159 0.02462 0.25025 0.0
C295 C 0.26046 0.99933 0.242 0.0
N296 N 0.24848 0.99932 0.24582 0.0
C297 C 0.24437 0.98073 0.23463 0.0
C298 C 0.25665 0.98049 0.23053 0.0
C299 C 0.26481 0.98966 0.23448 0.0
C300 C 0.2408 0.99007 0.24275 0.0
H301 H 0.26653 0.00672 0.24461 0.0
C302 C 0.25861 0.03238 0.25556 0.0
O303 O 0.26177 0.02901 0.29433 0.0
O304 O 0.26881 0.01349 0.28326 0.0
N305 N 0.22662 -0.00038 0.2557 0.0
C306 C 0.21555 0.00032 0.26163 0.0
C307 C 0.2064 0.99156 0.25921 0.0
C308 C 0.20869 0.98228 0.25049 0.0
C309 C 0.22028 0.9816 0.24466 0.0
C310 C 0.22914 0.99034 0.24783 0.0
H311 H 0.21381 0.00748 0.26815 0.0
O312 O 0.24459 0.0074 0.28978 0.0
O313 O 0.24666 0.00823 0.26964 0.0
O314 O 0.2356 0.03058 0.27971 0.0
O315 O 0.22843 0.02457 0.26123 0.0
C316 C 0.22334 0.97278 0.23564 0.0
C317 C 0.23545 0.97223 0.23077 0.0
H318 H 0.25994 0.9733 0.22441 0.0
H319 H 0.27432 0.98931 0.23145 0.0
H320 H 0.19754 0.99212 0.26386 0.0
H321 H 0.20154 0.97569 0.2484 0.0
H322 H 0.21651 0.96629 0.23256 0.0
H323 H 0.23782 0.96538 0.22394 0.0
Mn324 Mn 0.29912 0.01232 0.54547 0.0
Mn325 Mn 0.31943 0.99333 0.534 0.0
C326 C 0.30738 0.99743 0.55827 0.0
C327 C 0.30309 0.03164 0.55515 0.0
C328 C 0.29245 0.99377 0.52653 0.0
O329 O 0.30374 0.01904 0.52846 0.0
O330 O 0.32241 0.01115 0.53056 0.0
C331 C 0.34195 0.99665 0.51799 0.0
N332 N 0.33172 0.98978 0.52061 0.0
C333 C 0.34428 0.97145 0.50907 0.0
C334 C 0.35313 0.98017 0.50611 0.0
C335 C 0.35186 0.99239 0.51041 0.0
C336 C 0.3313 0.97839 0.51634 0.0
H337 H 0.34296 0.00554 0.52224 0.0
C338 C 0.3148 0.01797 0.52463 0.0
O339 O 0.29217 0.02926 0.55095 0.0
O340 O 0.31125 0.0234 0.55318 0.0
N341 N 0.31584 0.9754 0.53674 0.0
C342 C 0.31251 0.96716 0.54912 0.0
C343 C 0.31431 0.95039 0.55097 0.0
C344 C 0.31985 0.93978 0.53911 0.0
C345 C 0.32439 0.94574 0.52396 0.0
C346 C 0.32041 0.97046 0.52395 0.0
H347 H 0.30791 0.97175 0.55657 0.0
O348 O 0.29836 0.00394 0.56264 0.0
O349 O 0.30838 0.99781 0.54658 0.0
O350 O 0.28804 8e-05 0.53584 0.0
O351 O 0.30415 0.99353 0.52345 0.0
C352 C 0.33855 0.94256 0.51505 0.0
C353 C 0.34777 0.95491 0.50826 0.0
H354 H 0.36156 0.97736 0.50147 0.0
H355 H 0.35939 0.99868 0.50859 0.0
H356 H 0.31144 0.9464 0.5597 0.0
H357 H 0.32324 0.94099 0.52999 0.0
H358 H 0.34134 0.93317 0.51367 0.0
H359 H 0.35625 0.95223 0.50366 0.0
Mn360 Mn 0.29304 0.11894 0.76789 0.0
Mn361 Mn 0.32319 0.1184 0.75972 0.0
C362 C 0.30779 0.12631 0.78106 0.0
C363 C 0.2746 0.12959 0.76975 0.0
C364 C 0.30836 0.09553 0.7667 0.0
O365 O 0.29229 0.11669 0.74917 0.0
O366 O 0.31259 0.11941 0.74486 0.0
C367 C 0.32527 0.1432 0.74888 0.0
N368 N 0.33006 0.13424 0.75631 0.0
C369 C 0.35067 0.14191 0.75348 0.0
C370 C 0.34586 0.1515 0.74611 0.0
C371 C 0.33309 0.15229 0.744 0.0
C372 C 0.3422 0.13399 0.75926 0.0
H373 H 0.31562 0.14311 0.74642 0.0
C374 C 0.30132 0.11807 0.74162 0.0
O375 O 0.27489 0.1176 0.77031 0.0
O376 O 0.28472 0.13514 0.76667 0.0
N377 N 0.33501 0.11722 0.7731 0.0
C378 C 0.33623 0.10497 0.78086 0.0
C379 C 0.35906 0.09755 0.78109 0.0
C380 C 0.36777 0.10789 0.7729 0.0
C381 C 0.36116 0.12082 0.7666 0.0
C382 C 0.34589 0.12467 0.7671 0.0
H383 H 0.32773 0.10066 0.78421 0.0
O384 O 0.29723 0.12282 0.78548 0.0
O385 O 0.30952 0.12515 0.76933 0.0
O386 O 0.29843 0.10088 0.77016 0.0
O387 O 0.31769 0.10131 0.76246 0.0
C388 C 0.36858 0.12924 0.76022 0.0
C389 C 0.36352 0.13975 0.75437 0.0
H390 H 0.35193 0.15809 0.74164 0.0
H391 H 0.32941 0.15949 0.73808 0.0
H392 H 0.36357 0.08924 0.78474 0.0
H393 H 0.37697 0.10523 0.77051 0.0
H394 H 0.37846 0.12774 0.75982 0.0
H395 H 0.36983 0.14598 0.7497 0.0
Mn396 Mn 0.19162 0.10495 0.00222 0.0
Mn397 Mn 0.17823 0.12734 0.98485 0.0
C398 C 0.17605 0.11734 0.01062 0.0
C399 C 0.19418 0.08499 0.00946 0.0
C400 C 0.20271 0.13047 0.9977 0.0
O401 O 0.19723 0.10003 0.98483 0.0
O402 O 0.18759 0.11545 0.97485 0.0
C403 C 0.16051 0.11074 0.97257 0.0
N404 N 0.16288 0.12131 0.97882 0.0
C405 C 0.14192 0.12834 0.97647 0.0
C406 C 0.1393 0.11764 0.9698 0.0
C407 C 0.1486 0.10872 0.96797 0.0
C408 C 0.15384 0.12963 0.98116 0.0
H409 H 0.16766 0.10391 0.97112 0.0
C410 C 0.19423 0.10571 0.97496 0.0
O411 O 0.20313 0.09282 0.0092 0.0
O412 O 0.18353 0.08859 0.00523 0.0
N413 N 0.16863 0.13995 0.99252 0.0
C414 C 0.17286 0.15001 0.99856 0.0
C415 C 0.16485 0.1598 0.00114 0.0
C416 C 0.15278 0.15967 0.99659 0.0
C417 C 0.14864 0.14939 0.99004 0.0
C418 C 0.15697 0.13965 0.98817 0.0
H419 H 0.1823 0.15059 0.00139 0.0
O420 O 0.18373 0.11141 0.01767 0.0
O421 O 0.17728 0.11559 0.99881 0.0
O422 O 0.20335 0.11954 0.00194 0.0
O423 O 0.19378 0.13452 0.99114 0.0
C424 C 0.13669 0.14851 0.98506 0.0
C425 C 0.13325 0.13789 0.97848 0.0
H426 H 0.13019 0.11618 0.96604 0.0
H427 H 0.14664 0.10039 0.96292 0.0
H428 H 0.16807 0.16739 0.00659 0.0
H429 H 0.14686 0.16751 0.9982 0.0
H430 H 0.13006 0.15591 0.98622 0.0
H431 H 0.124 0.13727 0.97483 0.0
Mn432 Mn 0.24981 0.01395 0.12693 0.0
Mn433 Mn 0.24371 0.00861 0.15702 0.0
C434 C 0.23024 0.00865 0.13337 0.0
C435 C 0.2489 0.02748 0.11023 0.0
C436 C 0.25753 0.99048 0.14046 0.0
O437 O 0.26436 0.02232 0.13531 0.0
O438 O 0.25817 0.01966 0.15519 0.0
C439 C 0.23673 0.03334 0.16645 0.0
N440 N 0.23374 0.02139 0.16422 0.0
C441 C 0.21416 0.0239 0.17461 0.0
C442 C 0.21698 0.0363 0.1768 0.0
C443 C 0.22833 0.04103 0.1727 0.0
C444 C 0.22289 0.0167 0.16826 0.0
H445 H 0.24552 0.03691 0.16366 0.0
C446 C 0.26548 0.02412 0.1469 0.0
O447 O 0.25584 0.01764 0.10973 0.0
O448 O 0.24384 0.03002 0.12075 0.0
N449 N 0.2296 0.99824 0.15953 0.0
C450 C 0.22805 0.9862 0.15634 0.0
C451 C 0.21705 0.98015 0.15958 0.0
C452 C 0.20782 0.98648 0.16619 0.0
C453 C 0.2096 0.99886 0.16939 0.0
C454 C 0.22069 0.00445 0.16577 0.0
H455 H 0.23512 0.98123 0.15132 0.0
O456 O 0.23373 0.00665 0.1221 0.0
O457 O 0.23837 0.01337 0.1406 0.0
O458 O 0.25677 0.99645 0.13027 0.0
O459 O 0.25356 0.99472 0.15071 0.0
C460 C 0.20081 0.00587 0.176 0.0
C461 C 0.20306 0.01839 0.17856 0.0
H462 H 0.21055 0.04223 0.1817 0.0
H463 H 0.23067 0.05055 0.17448 0.0
H464 H 0.21573 0.97061 0.15704 0.0
H465 H 0.19937 0.98177 0.16873 0.0
H466 H 0.19226 0.00174 0.17914 0.0
H467 H 0.19618 0.0237 0.18357 0.0
Mn468 Mn 0.36659 0.97133 0.39694 0.0
Mn469 Mn 0.3541 0.96209 0.42382 0.0
C470 C 0.3588 0.95147 0.39898 0.0
C471 C 0.36162 0.98106 0.37814 0.0
C472 C 0.38175 0.96457 0.41951 0.0
O473 O 0.36413 0.98745 0.40629 0.0
O474 O 0.35296 0.98025 0.42243 0.0
C475 C 0.32802 0.96894 0.41941 0.0
N476 N 0.33668 0.96029 0.4224 0.0
C477 C 0.3211 0.94541 0.42761 0.0
C478 C 0.31198 0.95412 0.42448 0.0
C479 C 0.31546 0.9659 0.42026 0.0
C480 C 0.33345 0.94879 0.42601 0.0
H481 H 0.3307 0.97811 0.41649 0.0
C482 C 0.35763 0.98902 0.416 0.0
O483 O 0.37303 0.98064 0.38186 0.0
O484 O 0.35348 0.97613 0.38527 0.0
N485 N 0.35453 0.94459 0.42638 0.0
C486 C 0.36444 0.937 0.42818 0.0
C487 C 0.36256 0.92476 0.43211 0.0
C488 C 0.35054 0.92061 0.43461 0.0
C489 C 0.3405 0.92862 0.43273 0.0
C490 C 0.34291 0.94052 0.42827 0.0
H491 H 0.37371 0.94029 0.42678 0.0
O492 O 0.36639 0.95414 0.39007 0.0
O493 O 0.35612 0.96054 0.40621 0.0
O494 O 0.38177 0.96688 0.40784 0.0
O495 O 0.37195 0.96341 0.42602 0.0
C496 C 0.32821 0.92539 0.43539 0.0
C497 C 0.31847 0.93364 0.43255 0.0
H498 H 0.30229 0.95188 0.42529 0.0
H499 H 0.30848 0.97268 0.41788 0.0
H500 H 0.37035 0.91861 0.43345 0.0
H501 H 0.34914 0.91127 0.43795 0.0
H502 H 0.32617 0.91657 0.43966 0.0
H503 H 0.30903 0.9309 0.43433 0.0
Mn504 Mn 0.4021 0.08819 0.65168 0.0
Mn505 Mn 0.39895 0.09112 0.68255 0.0
C506 C 0.40942 0.07253 0.66467 0.0
C507 C 0.39288 0.08161 0.63333 0.0
C508 C 0.41765 0.10545 0.66731 0.0
O509 O 0.38889 0.10146 0.65337 0.0
O510 O 0.38626 0.10126 0.67404 0.0
C511 C 0.37428 0.08144 0.68853 0.0
N512 N 0.38678 0.08041 0.68952 0.0
C513 C 0.38481 0.06705 0.70728 0.0
C514 C 0.37193 0.06785 0.70633 0.0
C515 C 0.36665 0.07511 0.69694 0.0
C516 C 0.39197 0.07343 0.69854 0.0
H517 H 0.37014 0.08739 0.68166 0.0
C518 C 0.38335 0.10491 0.66316 0.0
O519 O 0.40145 0.08998 0.6331 0.0
O520 O 0.38989 0.07713 0.644 0.0
N521 N 0.41066 0.08166 0.69183 0.0
C522 C 0.42306 0.08343 0.69278 0.0
C523 C 0.42977 0.07698 0.70182 0.0
C524 C 0.42358 0.06917 0.71015 0.0
C525 C 0.41076 0.0678 0.70926 0.0
C526 C 0.40464 0.07397 0.69964 0.0
H527 H 0.42777 0.08974 0.68673 0.0
O528 O 0.41365 0.07384 0.65348 0.0
O529 O 0.40115 0.08064 0.66796 0.0
O530 O 0.41586 0.10053 0.65675 0.0
O531 O 0.41158 0.10262 0.67697 0.0
C532 C 0.40372 0.06134 0.71809 0.0
C533 C 0.39077 0.06088 0.71707 0.0
H534 H 0.36601 0.06316 0.71293 0.0
H535 H 0.35671 0.07597 0.6963 0.0
H536 H 0.43963 0.0783 0.70258 0.0
H537 H 0.42871 0.06455 0.71741 0.0
H538 H 0.40816 0.05712 0.726 0.0
H539 H 0.38544 0.05612 0.72412 0.0
Mn540 Mn 0.22641 0.21449 0.88565 0.0
Mn541 Mn 0.23097 0.21926 0.91611 0.0
C542 C 0.2402 0.22931 0.89181 0.0
C543 C 0.2316 0.20373 0.86795 0.0
C544 C 0.20866 0.22906 0.90206 0.0
O545 O 0.21935 0.19901 0.89329 0.0
O546 O 0.22322 0.20286 0.91323 0.0
C547 C 0.24939 0.19861 0.9208 0.0
N548 N 0.24599 0.21071 0.92178 0.0
C549 C 0.26082 0.21185 0.94194 0.0
C550 C 0.26369 0.19882 0.93905 0.0
C551 C 0.25828 0.19299 0.92875 0.0
C552 C 0.25128 0.21779 0.93017 0.0
H553 H 0.24498 0.19291 0.914 0.0
C554 C 0.21918 0.19593 0.90463 0.0
O555 O 0.22099 0.20932 0.86892 0.0
O556 O 0.23912 0.20442 0.87714 0.0
N557 N 0.23807 0.23512 0.92112 0.0
C558 C 0.23325 0.24678 0.92045 0.0
C559 C 0.23723 0.2565 0.92832 0.0
C560 C 0.24575 0.25498 0.93814 0.0
C561 C 0.25107 0.24349 0.94027 0.0
C562 C 0.24663 0.23271 0.92955 0.0
H563 H 0.22605 0.24876 0.91387 0.0
O564 O 0.23523 0.22982 0.88097 0.0
O565 O 0.23688 0.22013 0.89889 0.0
O566 O 0.21136 0.22446 0.89157 0.0
O567 O 0.21542 0.2278 0.91162 0.0
C568 C 0.26041 0.23878 0.95344 0.0
C569 C 0.26522 0.22242 0.95484 0.0
H570 H 0.26981 0.19361 0.94502 0.0
H571 H 0.26054 0.18337 0.92723 0.0
H572 H 0.23304 0.26552 0.92707 0.0
H573 H 0.24777 0.26261 0.94417 0.0
H574 H 0.26152 0.24512 0.96094 0.0
H575 H 0.26404 0.21558 0.94921 0.0
Mn576 Mn 0.2769 0.25415 0.01153 0.0
Mn577 Mn 0.25124 0.2391 0.00192 0.0
C578 C 0.2778 0.24345 0.99307 0.0
C579 C 0.28935 0.2717 0.01249 0.0
C580 C 0.26879 0.22884 0.02095 0.0
O581 O 0.26354 0.26207 0.02217 0.0
O582 O 0.24765 0.25073 0.01557 0.0
C583 C 0.23599 0.26025 0.99274 0.0
N584 N 0.24075 0.24874 0.99083 0.0
C585 C 0.22422 0.24678 0.973 0.0
C586 C 0.22038 0.2586 0.97611 0.0
C587 C 0.22618 0.26511 0.98561 0.0
C588 C 0.2361 0.24147 0.98202 0.0
H589 H 0.23959 0.26587 7e-05 0.0
C590 C 0.25227 0.25889 0.02262 0.0
O591 O 0.2902 0.26291 0.02065 0.0
O592 O 0.28105 0.2705 0.00403 0.0
N593 N 0.25295 0.22681 0.98916 0.0
C594 C 0.25987 0.2163 0.9894 0.0
C595 C 0.258 0.20662 0.98101 0.0
C596 C 0.24896 0.20684 0.97174 0.0
C597 C 0.24103 0.21742 0.96998 0.0
C598 C 0.24388 0.22824 0.98097 0.0
H599 H 0.26688 0.21508 0.99636 0.0
O600 O 0.2875 0.24575 0.99952 0.0
O601 O 0.26716 0.24765 0.99742 0.0
O602 O 0.27601 0.23802 0.02182 0.0
O603 O 0.25989 0.22837 0.01344 0.0
C604 C 0.22307 0.22519 0.95549 0.0
C605 C 0.21777 0.23955 0.96044 0.0
H606 H 0.21299 0.263 0.97099 0.0
H607 H 0.22279 0.27429 0.98761 0.0
H608 H 0.26378 0.19846 0.98184 0.0
H609 H 0.24867 0.19865 0.9661 0.0
H610 H 0.21853 0.22121 0.94745 0.0
H611 H 0.21042 0.24409 0.95541 0.0
Mn612 Mn 0.76032 0.29501 0.11947 0.0
Mn613 Mn 0.74589 0.32265 0.12004 0.0
C614 C 0.77144 0.31218 0.12539 0.0
C615 C 0.76572 0.27682 0.12905 0.0
C616 C 0.7554 0.31043 0.09653 0.0
O617 O 0.74224 0.29036 0.11783 0.0
O618 O 0.7339 0.3091 0.12123 0.0
C619 C 0.73609 0.32164 0.14565 0.0
N620 N 0.74256 0.32763 0.13663 0.0
C621 C 0.74509 0.34546 0.14947 0.0
C622 C 0.73842 0.33951 0.1589 0.0
C623 C 0.73397 0.32751 0.157 0.0
C624 C 0.74707 0.33906 0.13844 0.0
H625 H 0.73253 0.31248 0.14415 0.0
C626 C 0.73304 0.29748 0.11964 0.0
O627 O 0.76567 0.27771 0.11709 0.0
O628 O 0.76164 0.28615 0.13535 0.0
N629 N 0.75591 0.337 0.11891 0.0
C630 C 0.76163 0.34161 0.10866 0.0
C631 C 0.76577 0.35381 0.10862 0.0
C632 C 0.7644 0.36108 0.11925 0.0
C633 C 0.75843 0.35617 0.12968 0.0
C634 C 0.75394 0.34412 0.12895 0.0
H635 H 0.76258 0.33622 0.10038 0.0
O636 O 0.77691 0.30209 0.12202 0.0
O637 O 0.75939 0.31185 0.12581 0.0
O638 O 0.76055 0.30115 0.10169 0.0
O639 O 0.74914 0.31852 0.10248 0.0
C640 C 0.75641 0.36289 0.14061 0.0
C641 C 0.74986 0.35748 0.15056 0.0
H642 H 0.73668 0.34405 0.16762 0.0
H643 H 0.72882 0.32285 0.16424 0.0
H644 H 0.76972 0.35762 0.10025 0.0
H645 H 0.76768 0.37049 0.11923 0.0
H646 H 0.75984 0.37221 0.14146 0.0
H647 H 0.74843 0.3627 0.15895 0.0
Mn648 Mn 0.00892 0.53938 0.30639 0.0
Mn649 Mn 0.9902 0.52489 0.32585 0.0
C650 C 0.99264 0.55044 0.31495 0.0
C651 C 0.02803 0.54941 0.30788 0.0
C652 C 0.99022 0.52134 0.29774 0.0
O653 O 0.01706 0.52265 0.30952 0.0
O654 O 0.00717 0.51811 0.32721 0.0
C655 C 0.00135 0.5245 0.35286 0.0
N656 N 0.99192 0.5313 0.34289 0.0
C657 C 0.97071 0.53176 0.36927 0.0
C658 C 0.98344 0.52407 0.37734 0.0
C659 C 0.99808 0.52062 0.36914 0.0
C660 C 0.97847 0.53664 0.34553 0.0
H661 H 0.01003 0.52095 0.34941 0.0
C662 C 0.01575 0.51619 0.31928 0.0
O663 O 0.02423 0.54564 0.29716 0.0
O664 O 0.02095 0.54732 0.31714 0.0
N665 N 0.97253 0.53026 0.3244 0.0
C666 C 0.96475 0.52669 0.31526 0.0
C667 C 0.95204 0.52448 0.31708 0.0
C668 C 0.94597 0.52496 0.32856 0.0
C669 C 0.95238 0.52854 0.33889 0.0
C670 C 0.96743 0.53378 0.33503 0.0
H671 H 0.96821 0.52496 0.30624 0.0
O672 O 0.99894 0.55517 0.30592 0.0
O673 O 0.99647 0.5398 0.31871 0.0
O674 O 0.99678 0.53073 0.29449 0.0
O675 O 0.98903 0.5177 0.30904 0.0
C676 C 0.94634 0.52522 0.35429 0.0
C677 C 0.95455 0.52668 0.36873 0.0
H678 H 0.97458 0.52829 0.37483 0.0
H679 H 0.99099 0.52148 0.37589 0.0
H680 H 0.94708 0.52106 0.30929 0.0
H681 H 0.93655 0.5218 0.32943 0.0
H682 H 0.93716 0.52139 0.35484 0.0
H683 H 0.9503 0.52305 0.37705 0.0
Mn684 Mn 0.74985 0.72493 0.56239 0.0
Mn685 Mn 0.77803 0.71163 0.562 0.0
C686 C 0.7557 0.71138 0.57819 0.0
C687 C 0.73751 0.74162 0.56846 0.0
C688 C 0.75721 0.70388 0.54534 0.0
O689 O 0.75944 0.73587 0.55017 0.0
O690 O 0.77826 0.72711 0.55238 0.0
C691 C 0.79414 0.7294 0.57446 0.0
N692 N 0.78931 0.71787 0.57377 0.0
C693 C 0.80662 0.70907 0.58455 0.0
C694 C 0.81167 0.72089 0.58564 0.0
C695 C 0.80529 0.73113 0.58076 0.0
C696 C 0.79507 0.70805 0.57899 0.0
H697 H 0.78972 0.73709 0.56982 0.0
C698 C 0.77105 0.7354 0.54797 0.0
O699 O 0.73408 0.73443 0.55959 0.0
O700 O 0.74798 0.73921 0.57362 0.0
N701 N 0.77912 0.69648 0.57097 0.0
C702 C 0.77271 0.68584 0.56946 0.0
C703 C 0.77726 0.67481 0.57466 0.0
C704 C 0.78871 0.67478 0.58067 0.0
C705 C 0.79512 0.68589 0.58199 0.0
C706 C 0.78958 0.69671 0.57759 0.0
H707 H 0.76428 0.68581 0.56426 0.0
O708 O 0.74415 0.71356 0.57592 0.0
O709 O 0.76353 0.71725 0.57122 0.0
O710 O 0.74853 0.71076 0.54953 0.0
O711 O 0.76813 0.70406 0.5494 0.0
C712 C 0.80705 0.68663 0.58693 0.0
C713 C 0.81285 0.69819 0.58815 0.0
H714 H 0.82053 0.72217 0.59 0.0
H715 H 0.80927 0.74023 0.58136 0.0
H716 H 0.77224 0.66629 0.57354 0.0
H717 H 0.79252 0.66617 0.58415 0.0
H718 H 0.81188 0.67832 0.58965 0.0
H719 H 0.82206 0.69863 0.59188 0.0
Mn720 Mn 0.21156 0.87863 0.22065 0.0
Mn721 Mn 0.21794 0.90823 0.2266 0.0
C722 C 0.22576 0.8835 0.23586 0.0
C723 C 0.19903 0.862 0.22553 0.0
C724 C 0.22646 0.89522 0.20332 0.0
O725 O 0.19685 0.88788 0.21312 0.0
O726 O 0.20155 0.90715 0.21902 0.0
C727 C 0.1982 0.91162 0.2452 0.0
N728 N 0.21045 0.91233 0.24223 0.0
C729 C 0.21286 0.92528 0.26194 0.0
C730 C 0.2003 0.92411 0.26403 0.0
C731 C 0.1932 0.91716 0.25588 0.0
C732 C 0.21851 0.91775 0.2497 0.0
H733 H 0.19194 0.90685 0.23921 0.0
C734 C 0.19439 0.89939 0.21398 0.0
O735 O 0.20491 0.86244 0.21501 0.0
O736 O 0.20044 0.87115 0.23295 0.0
N737 N 0.23407 0.91098 0.2337 0.0
C738 C 0.24526 0.90967 0.22794 0.0
C739 C 0.2562 0.91474 0.23275 0.0
C740 C 0.25642 0.92208 0.24339 0.0
C741 C 0.24558 0.92425 0.24989 0.0
C742 C 0.23301 0.9172 0.24434 0.0
H743 H 0.24592 0.90474 0.21933 0.0
O744 O 0.22606 0.87261 0.23096 0.0
O745 O 0.2177 0.89098 0.2312 0.0
O746 O 0.22262 0.88436 0.20603 0.0
O747 O 0.22521 0.90456 0.21038 0.0
C748 C 0.24465 0.93354 0.26259 0.0
C749 C 0.22199 0.93415 0.27081 0.0
H750 H 0.19597 0.9286 0.27185 0.0
H751 H 0.1834 0.91633 0.25767 0.0
H752 H 0.26477 0.91323 0.22778 0.0
H753 H 0.26499 0.92608 0.24643 0.0
H754 H 0.25311 0.93794 0.26575 0.0
H755 H 0.21762 0.93894 0.27857 0.0
Mn756 Mn 0.28154 0.86058 0.45012 0.0
Mn757 Mn 0.30998 0.87289 0.4484 0.0
C758 C 0.28771 0.86973 0.43185 0.0
C759 C 0.2672 0.8451 0.44805 0.0
C760 C 0.28877 0.886 0.46082 0.0
O761 O 0.29002 0.85184 0.46438 0.0
O762 O 0.30765 0.86252 0.46329 0.0
C763 C 0.32297 0.84898 0.4445 0.0
N764 N 0.32097 0.86098 0.4412 0.0
C765 C 0.33725 0.86016 0.42598 0.0
C766 C 0.33956 0.84783 0.42928 0.0
C767 C 0.33231 0.84218 0.4385 0.0
C768 C 0.32771 0.8664 0.43216 0.0
H769 H 0.31752 0.84465 0.45167 0.0
C770 C 0.30051 0.85476 0.46857 0.0
O771 O 0.26543 0.85419 0.45558 0.0
O772 O 0.27759 0.84459 0.44204 0.0
N773 N 0.31447 0.88321 0.43476 0.0
C774 C 0.3106 0.89489 0.43217 0.0
C775 C 0.31656 0.90163 0.42277 0.0
C776 C 0.32682 0.89659 0.41663 0.0
C777 C 0.33084 0.88467 0.41964 0.0
C778 C 0.32441 0.87827 0.4289 0.0
H779 H 0.30306 0.89903 0.43728 0.0
O780 O 0.27616 0.86916 0.43497 0.0
O781 O 0.29569 0.86534 0.43983 0.0
O782 O 0.28134 0.87696 0.45982 0.0
O783 O 0.29956 0.88591 0.45598 0.0
C784 C 0.34084 0.87879 0.41366 0.0
C785 C 0.34396 0.86649 0.41673 0.0
H786 H 0.34679 0.84257 0.42472 0.0
H787 H 0.33398 0.83264 0.44105 0.0
H788 H 0.31339 0.91082 0.42039 0.0
H789 H 0.3315 0.90192 0.4096 0.0
H790 H 0.34606 0.88359 0.40657 0.0
H791 H 0.35149 0.86196 0.41188 0.0
Mn792 Mn 0.97049 0.39538 0.36494 0.0
Mn793 Mn 0.96235 0.42082 0.34914 0.0
C794 C 0.95153 0.39647 0.35536 0.0
C795 C 0.98047 0.37638 0.3626 0.0
C796 C 0.96302 0.41934 0.37732 0.0
O797 O 0.98676 0.40436 0.36257 0.0
O798 O 0.98063 0.41901 0.34893 0.0
C799 C 0.97058 0.41493 0.32369 0.0
N800 N 0.96138 0.41797 0.33176 0.0
C801 C 0.947 0.42096 0.31515 0.0
C802 C 0.95636 0.41795 0.30667 0.0
C803 C 0.96817 0.41482 0.31097 0.0
C804 C 0.94992 0.42076 0.32773 0.0
H805 H 0.97968 0.41268 0.32694 0.0
C806 C 0.98899 0.41278 0.35461 0.0
O807 O 0.97918 0.38111 0.37357 0.0
O808 O 0.97618 0.38262 0.35345 0.0
N809 N 0.94477 0.42293 0.34847 0.0
C810 C 0.93645 0.42425 0.35786 0.0
C811 C 0.92393 0.42621 0.35517 0.0
C812 C 0.92013 0.42723 0.34283 0.0
C813 C 0.92886 0.42585 0.33331 0.0
C814 C 0.94109 0.42327 0.33658 0.0
H815 H 0.93935 0.42374 0.36729 0.0
O816 O 0.95336 0.38843 0.36409 0.0
O817 O 0.96076 0.4035 0.3528 0.0
O818 O 0.96504 0.4077 0.37859 0.0
O819 O 0.96272 0.42488 0.36686 0.0
C820 C 0.92595 0.42694 0.3207 0.0
C821 C 0.93495 0.4243 0.31163 0.0
H822 H 0.95456 0.418 0.29684 0.0
H823 H 0.97545 0.41246 0.30449 0.0
H824 H 0.91727 0.42724 0.3626 0.0
H825 H 0.91053 0.42908 0.34078 0.0
H826 H 0.91685 0.42988 0.31784 0.0
H827 H 0.93248 0.42482 0.30198 0.0
Mn828 Mn 0.66055 0.67639 0.84161 0.0
Mn829 Mn 0.67173 0.64535 0.8435 0.0
C830 C 0.67663 0.66945 0.82856 0.0
C831 C 0.64482 0.68583 0.82978 0.0
C832 C 0.67553 0.66889 0.859 0.0
O833 O 0.64778 0.66592 0.85148 0.0
O834 O 0.65358 0.64634 0.84592 0.0
C835 C 0.6614 0.62066 0.83903 0.0
N836 N 0.67142 0.62804 0.8404 0.0
C837 C 0.68528 0.61134 0.83543 0.0
C838 C 0.67512 0.60352 0.83412 0.0
C839 C 0.66312 0.60821 0.83588 0.0
C840 C 0.68299 0.62369 0.83853 0.0
H841 H 0.65215 0.62429 0.84018 0.0
C842 C 0.64581 0.65421 0.85044 0.0
O843 O 0.64885 0.69101 0.83977 0.0
O844 O 0.64955 0.67523 0.82711 0.0
N845 N 0.68936 0.64394 0.84174 0.0
C846 C 0.69821 0.65277 0.84269 0.0
C847 C 0.7107 0.6495 0.84135 0.0
C848 C 0.71401 0.63722 0.83884 0.0
C849 C 0.70479 0.6283 0.8377 0.0
C850 C 0.69249 0.63205 0.8394 0.0
H851 H 0.69577 0.66227 0.84437 0.0
O852 O 0.674 0.68117 0.82912 0.0
O853 O 0.67162 0.66283 0.83729 0.0
O854 O 0.67144 0.67977 0.85754 0.0
O855 O 0.67216 0.66198 0.8502 0.0
C856 C 0.70732 0.61587 0.83485 0.0
C857 C 0.69757 0.60742 0.8336 0.0
H858 H 0.67641 0.59392 0.83164 0.0
H859 H 0.65522 0.60228 0.83474 0.0
H860 H 0.71777 0.65645 0.84216 0.0
H861 H 0.72366 0.63475 0.83771 0.0
H862 H 0.71674 0.61271 0.83348 0.0
H863 H 0.69963 0.59793 0.83122 0.0
Mn864 Mn 0.5525 0.90886 0.7617 0.0
Mn865 Mn 0.56066 0.88629 0.74196 0.0
C866 C 0.55406 0.91305 0.7409 0.0
C867 C 0.53537 0.91828 0.77091 0.0
C868 C 0.5792 0.90092 0.75712 0.0
O869 O 0.55078 0.89345 0.77244 0.0
O870 O 0.5548 0.87927 0.75786 0.0
C871 C 0.53402 0.87027 0.73995 0.0
N872 N 0.54518 0.87946 0.73466 0.0
C873 C 0.54137 0.86319 0.7062 0.0
C874 C 0.52962 0.85446 0.71452 0.0
C875 C 0.52607 0.85803 0.73088 0.0
C876 C 0.5504 0.87986 0.72131 0.0
H877 H 0.53184 0.87059 0.74967 0.0
C878 C 0.55156 0.88234 0.76878 0.0
O879 O 0.54631 0.91994 0.77552 0.0
O880 O 0.53461 0.91081 0.76179 0.0
N881 N 0.56791 0.89214 0.72541 0.0
C882 C 0.57961 0.89617 0.72287 0.0
C883 C 0.58469 0.89674 0.71064 0.0
C884 C 0.57899 0.89197 0.69993 0.0
C885 C 0.56752 0.88639 0.7008 0.0
C886 C 0.56157 0.88803 0.71589 0.0
H887 H 0.58547 0.89884 0.7303 0.0
O888 O 0.55377 0.92202 0.7487 0.0
O889 O 0.5528 0.90202 0.74545 0.0
O890 O 0.57161 0.90825 0.76263 0.0
O891 O 0.57591 0.89225 0.74987 0.0
C892 C 0.56219 0.87532 0.68918 0.0
C893 C 0.54959 0.86402 0.6916 0.0
H894 H 0.52486 0.84704 0.70998 0.0
H895 H 0.5192 0.85249 0.73558 0.0
H896 H 0.59391 0.90038 0.7096 0.0
H897 H 0.58404 0.89176 0.69128 0.0
H898 H 0.56804 0.87439 0.68116 0.0
H899 H 0.54754 0.85734 0.68455 0.0
Mn900 Mn 0.39438 0.36323 0.96573 0.0
Mn901 Mn 0.41596 0.34652 0.95179 0.0
C902 C 0.38982 0.35439 0.94689 0.0
C903 C 0.37882 0.3595 0.98048 0.0
C904 C 0.41832 0.37391 0.95724 0.0
O905 O 0.40735 0.35919 0.97861 0.0
O906 O 0.41473 0.34205 0.96955 0.0
C907 C 0.43792 0.33199 0.95906 0.0
N908 N 0.4321 0.33937 0.95064 0.0
C909 C 0.44892 0.3371 0.93623 0.0
C910 C 0.45522 0.32979 0.94489 0.0
C911 C 0.44966 0.32714 0.95632 0.0
C912 C 0.43711 0.34145 0.93938 0.0
H913 H 0.43357 0.32962 0.96774 0.0
C914 C 0.41375 0.34929 0.97881 0.0
O915 O 0.38313 0.37061 0.97897 0.0
O916 O 0.38331 0.35108 0.97347 0.0
N917 N 0.41847 0.35126 0.93466 0.0
C918 C 0.41137 0.35844 0.92704 0.0
C919 C 0.41529 0.36093 0.91491 0.0
C920 C 0.42707 0.35721 0.91101 0.0
C921 C 0.43469 0.35074 0.9192 0.0
C922 C 0.42997 0.3478 0.93097 0.0
H923 H 0.40292 0.36263 0.93011 0.0
O924 O 0.38251 0.36301 0.95092 0.0
O925 O 0.39984 0.35329 0.95289 0.0
O926 O 0.40671 0.37646 0.95895 0.0
O927 O 0.42262 0.36283 0.95627 0.0
C928 C 0.44682 0.34712 0.91613 0.0
C929 C 0.45387 0.34012 0.92456 0.0
H930 H 0.46419 0.32594 0.94275 0.0
H931 H 0.45436 0.32131 0.96295 0.0
H932 H 0.40939 0.36611 0.9087 0.0
H933 H 0.43022 0.35949 0.90175 0.0
H934 H 0.45076 0.34958 0.90725 0.0
H935 H 0.46308 0.33709 0.92196 0.0
Mn936 Mn 0.01447 0.1231 0.25065 0.0
Mn937 Mn 0.00988 0.15127 0.23864 0.0
C938 C 0.01406 0.12592 0.22941 0.0
C939 C 0.02787 0.10751 0.25668 0.0
C940 C 0.98995 0.13642 0.25154 0.0
O941 O 0.01837 0.13463 0.2651 0.0
O942 O 0.01816 0.15288 0.25468 0.0
C943 C 0.03543 0.15975 0.23395 0.0
N944 N 0.02393 0.15716 0.22973 0.0
C945 C 0.02877 0.16542 0.20964 0.0
C946 C 0.0406 0.16842 0.2138 0.0
C947 C 0.04401 0.16537 0.22595 0.0
C948 C 0.02072 0.1596 0.21793 0.0
H949 H 0.03792 0.15776 0.24339 0.0
C950 C 0.02027 0.14628 0.26431 0.0
O951 O 0.01651 0.10772 0.26063 0.0
O952 O 0.03164 0.11699 0.25038 0.0
N953 N 0.002 0.15045 0.22295 0.0
C954 C 0.99089 0.1455 0.21999 0.0
C955 C 0.98682 0.1461 0.20773 0.0
C956 C 0.99393 0.1523 0.19877 0.0
C957 C 0.00531 0.15734 0.20207 0.0
C958 C 0.00915 0.15594 0.2143 0.0
H959 H 0.98528 0.14092 0.22686 0.0
O960 O 0.01188 0.11512 0.23413 0.0
O961 O 0.01617 0.13457 0.23725 0.0
O962 O 0.99587 0.12628 0.25249 0.0
O963 O 0.99468 0.14633 0.24732 0.0
C964 C 0.0131 0.16355 0.1937 0.0
C965 C 0.02464 0.16794 0.1976 0.0
H966 H 0.04717 0.17292 0.2077 0.0
H967 H 0.05315 0.16758 0.22921 0.0
H968 H 0.97816 0.14191 0.20522 0.0
H969 H 0.99063 0.15299 0.18937 0.0
H970 H 0.01038 0.16496 0.18424 0.0
H971 H 0.03023 0.17326 0.19128 0.0
Mn972 Mn 0.13009 0.80531 0.44911 0.0
Mn973 Mn 0.10478 0.80112 0.43203 0.0
C974 C 0.13235 0.80375 0.42782 0.0
C975 C 0.14386 0.81848 0.45845 0.0
C976 C 0.11708 0.78083 0.44731 0.0
O977 O 0.11592 0.80884 0.46118 0.0
O978 O 0.10065 0.80999 0.44726 0.0
C979 C 0.09866 0.82709 0.42563 0.0
N980 N 0.10073 0.8152 0.42214 0.0
C981 C 0.09333 0.81937 0.40166 0.0
C982 C 0.09126 0.83172 0.40494 0.0
C983 C 0.09404 0.83562 0.41695 0.0
C984 C 0.09852 0.81147 0.41051 0.0
H985 H 0.1004 0.82997 0.43499 0.0
C986 C 0.10484 0.8113 0.45814 0.0
O987 O 0.14256 0.80716 0.46226 0.0
O988 O 0.13628 0.82243 0.45007 0.0
N989 N 0.10682 0.79258 0.4168 0.0
C990 C 0.10926 0.78033 0.4152 0.0
C991 C 0.10563 0.77455 0.40428 0.0
C992 C 0.09939 0.78138 0.39518 0.0
C993 C 0.0976 0.79413 0.39669 0.0
C994 C 0.10131 0.79935 0.40783 0.0
H995 H 0.1134 0.77484 0.42244 0.0
O996 O 0.14165 0.80221 0.43513 0.0
O997 O 0.12193 0.80663 0.43315 0.0
O998 O 0.12662 0.78688 0.45032 0.0
O999 O 0.10796 0.78572 0.44161 0.0
C1000 C 0.092 0.80179 0.38773 0.0
C1001 C 0.09015 0.81447 0.39009 0.0
H1002 H 0.08737 0.83824 0.39838 0.0
H1003 H 0.09236 0.84511 0.41959 0.0
H1004 H 0.10726 0.76476 0.40305 0.0
H1005 H 0.0962 0.77678 0.38696 0.0
H1006 H 0.08915 0.79803 0.37896 0.0
H1007 H 0.08596 0.8203 0.38309 0.0
Mn1008 Mn 0.44937 0.28002 0.86156 0.0
Mn1009 Mn 0.43576 0.30531 0.87449 0.0
C1010 C 0.4313 0.27794 0.87237 0.0
C1011 C 0.45218 0.26672 0.84521 0.0
C1012 C 0.45778 0.29161 0.88587 0.0
O1013 O 0.4578 0.29375 0.85228 0.0
O1014 O 0.4481 0.30961 0.86142 0.0
C1015 C 0.42318 0.31232 0.85114 0.0
N1016 N 0.42277 0.31126 0.86366 0.0
C1017 C 0.40699 0.32709 0.86513 0.0
C1018 C 0.40706 0.32808 0.85219 0.0
C1019 C 0.41498 0.32048 0.84515 0.0
C1020 C 0.4142 0.31751 0.87021 0.0
H1021 H 0.43003 0.30731 0.84584 0.0
C1022 C 0.45564 0.3052 0.85342 0.0
O1023 O 0.4605 0.26787 0.85371 0.0
O1024 O 0.44242 0.27367 0.84599 0.0
N1025 N 0.42335 0.3047 0.8879 0.0
C1026 C 0.42751 0.3031 0.90237 0.0
C1027 C 0.42391 0.31544 0.91325 0.0
C1028 C 0.41505 0.32858 0.90753 0.0
C1029 C 0.41005 0.32832 0.89182 0.0
C1030 C 0.41489 0.31591 0.88245 0.0
H1031 H 0.43304 0.29528 0.90516 0.0
O1032 O 0.43854 0.26848 0.87094 0.0
O1033 O 0.43474 0.28844 0.86769 0.0
O1034 O 0.45929 0.28393 0.87711 0.0
O1035 O 0.44908 0.2997 0.88605 0.0
C1036 C 0.40268 0.33699 0.88576 0.0
C1037 C 0.40087 0.33602 0.87278 0.0
H1038 H 0.40149 0.33502 0.84756 0.0
H1039 H 0.41528 0.32145 0.8352 0.0
H1040 H 0.42692 0.31495 0.92276 0.0
H1041 H 0.41212 0.33582 0.91367 0.0
H1042 H 0.39871 0.34464 0.89083 0.0
H1043 H 0.39534 0.34314 0.8684 0.0
Mn1044 Mn 0.00242 0.1905 0.1039 0.0
Mn1045 Mn 0.98326 0.17759 0.12458 0.0
C1046 C 0.0094 0.17323 0.11453 0.0
C1047 C 0.00825 0.19447 0.08374 0.0
C1048 C 0.99783 0.20103 0.129 0.0
O1049 O 0.98582 0.19947 0.102 0.0
O1050 O 0.9739 0.18513 0.11081 0.0
C1051 C 0.97246 0.1579 0.10925 0.0
N1052 N 0.97862 0.16137 0.11958 0.0
C1053 C 0.97884 0.14052 0.12737 0.0
C1054 C 0.9725 0.13672 0.11683 0.0
C1055 C 0.96936 0.14544 0.1077 0.0
C1056 C 0.98201 0.153 0.12824 0.0
H1057 H 0.96987 0.16459 0.10228 0.0
C1058 C 0.97526 0.1953 0.10503 0.0
O1059 O 0.01003 0.20229 0.09249 0.0
O1060 O 0.00267 0.18419 0.08652 0.0
N1061 N 0.99065 0.16961 0.13852 0.0
C1062 C 0.99469 0.17507 0.14904 0.0
C1063 C 0.99748 0.1678 0.1594 0.0
C1064 C 0.99572 0.155 0.15908 0.0
C1065 C 0.99074 0.14966 0.14848 0.0
C1066 C 0.98819 0.15739 0.13837 0.0
H1067 H 0.99571 0.18492 0.14962 0.0
O1068 O 0.01697 0.17981 0.10792 0.0
O1069 O 0.99779 0.17624 0.11366 0.0
O1070 O 0.00485 0.19978 0.11966 0.0
O1071 O 0.98822 0.19433 0.13082 0.0
C1072 C 0.98753 0.13712 0.14785 0.0
C1073 C 0.98177 0.13249 0.13723 0.0
H1074 H 0.96987 0.12716 0.11572 0.0
H1075 H 0.96443 0.14259 0.09955 0.0
H1076 H 0.00077 0.1722 0.16764 0.0
H1077 H 0.99782 0.14942 0.16715 0.0
H1078 H 0.98905 0.13108 0.15568 0.0
H1079 H 0.97927 0.12284 0.13692 0.0
Mn1080 Mn 0.1188 0.76387 0.29591 0.0
Mn1081 Mn 0.11851 0.75777 0.32672 0.0
C1082 C 0.12583 0.77824 0.30943 0.0
C1083 C 0.12992 0.76439 0.27761 0.0
C1084 C 0.09567 0.76501 0.31187 0.0
O1085 O 0.11655 0.74533 0.29608 0.0
O1086 O 0.1186 0.74254 0.3166 0.0
C1087 C 0.14503 0.74662 0.32855 0.0
N1088 N 0.13475 0.75221 0.33325 0.0
C1089 C 0.14518 0.74904 0.35583 0.0
C1090 C 0.15507 0.74367 0.3495 0.0
C1091 C 0.15486 0.74244 0.33637 0.0
C1092 C 0.13342 0.7528 0.34531 0.0
H1093 H 0.14578 0.74528 0.31868 0.0
C1094 C 0.11753 0.73846 0.3056 0.0
O1095 O 0.11791 0.76502 0.27751 0.0
O1096 O 0.13509 0.76203 0.28809 0.0
N1097 N 0.11724 0.77161 0.33905 0.0
C1098 C 0.11258 0.78579 0.34187 0.0
C1099 C 0.11137 0.79311 0.35711 0.0
C1100 C 0.11509 0.78552 0.37186 0.0
C1101 C 0.12084 0.76971 0.37215 0.0
C1102 C 0.12123 0.76164 0.34865 0.0
H1103 H 0.1092 0.79118 0.33417 0.0
O1104 O 0.12226 0.78156 0.29854 0.0
O1105 O 0.12522 0.76664 0.31236 0.0
O1106 O 0.10071 0.76649 0.30127 0.0
O1107 O 0.10161 0.76187 0.32154 0.0
C1108 C 0.13437 0.76355 0.3801 0.0
C1109 C 0.14583 0.7538 0.37212 0.0
H1110 H 0.16319 0.74082 0.35456 0.0
H1111 H 0.16281 0.7382 0.33198 0.0
H1112 H 0.10838 0.80265 0.3574 0.0
H1113 H 0.11589 0.7912 0.37995 0.0
H1114 H 0.13643 0.76681 0.38928 0.0
H1115 H 0.15397 0.75118 0.37725 0.0
Mn1116 Mn 0.53797 0.86651 0.60002 0.0
Mn1117 Mn 0.56343 0.86359 0.61721 0.0
C1118 C 0.53726 0.87256 0.62052 0.0
C1119 C 0.52574 0.87781 0.58677 0.0
C1120 C 0.54669 0.84211 0.6115 0.0
O1121 O 0.55148 0.86432 0.58694 0.0
O1122 O 0.56786 0.8637 0.59958 0.0
C1123 C 0.57497 0.88763 0.61106 0.0
N1124 N 0.57061 0.87946 0.61963 0.0
C1125 C 0.57478 0.8935 0.63615 0.0
C1126 C 0.57942 0.90203 0.62753 0.0
C1127 C 0.57953 0.89907 0.61492 0.0
C1128 C 0.57061 0.88214 0.63178 0.0
H1129 H 0.57488 0.88548 0.60136 0.0
C1130 C 0.56304 0.86371 0.58886 0.0
O1131 O 0.52521 0.86583 0.58723 0.0
O1132 O 0.53392 0.88319 0.5935 0.0
N1133 N 0.56037 0.86347 0.63442 0.0
C1134 C 0.55411 0.85489 0.64119 0.0
C1135 C 0.55216 0.85688 0.65373 0.0
C1136 C 0.55674 0.8676 0.65906 0.0
C1137 C 0.56366 0.87607 0.65213 0.0
C1138 C 0.56527 0.8736 0.63962 0.0
H1139 H 0.55019 0.84684 0.637 0.0
O1140 O 0.5272 0.86994 0.61473 0.0
O1141 O 0.54745 0.87165 0.61407 0.0
O1142 O 0.5388 0.84822 0.6052 0.0
O1143 O 0.55656 0.84687 0.61563 0.0
C1144 C 0.56808 0.88732 0.65684 0.0
C1145 C 0.5737 0.89599 0.64886 0.0
H1146 H 0.58275 0.91094 0.63046 0.0
H1147 H 0.583 0.90563 0.60819 0.0
H1148 H 0.54671 0.85046 0.65916 0.0
H1149 H 0.55406 0.86954 0.66824 0.0
H1150 H 0.56671 0.8897 0.66643 0.0
H1151 H 0.57674 0.90473 0.65252 0.0
Mn1152 Mn 0.76111 0.55146 0.90673 0.0
Mn1153 Mn 0.74053 0.55906 0.88526 0.0
C1154 C 0.7409 0.54511 0.90946 0.0
C1155 C 0.77448 0.53673 0.91518 0.0
C1156 C 0.7536 0.57776 0.90096 0.0
O1157 O 0.77154 0.55455 0.89108 0.0
O1158 O 0.75622 0.55466 0.87677 0.0
C1159 C 0.7358 0.53827 0.86859 0.0
N1160 N 0.73129 0.54704 0.87637 0.0
C1161 C 0.71101 0.54599 0.86724 0.0
C1162 C 0.71548 0.5367 0.85936 0.0
C1163 C 0.72785 0.53277 0.8601 0.0
C1164 C 0.71933 0.5509 0.87564 0.0
H1165 H 0.74546 0.53572 0.86872 0.0
C1166 C 0.76767 0.55405 0.87991 0.0
O1167 O 0.77557 0.54833 0.91792 0.0
O1168 O 0.76649 0.53399 0.90689 0.0
N1169 N 0.72542 0.56321 0.89361 0.0
C1170 C 0.7249 0.57059 0.90616 0.0
C1171 C 0.71261 0.57799 0.91266 0.0
C1172 C 0.69785 0.57757 0.90515 0.0
C1173 C 0.70067 0.5644 0.88472 0.0
C1174 C 0.71567 0.55963 0.88387 0.0
H1175 H 0.73318 0.57083 0.91152 0.0
O1176 O 0.74791 0.54682 0.91894 0.0
O1177 O 0.74561 0.54809 0.89878 0.0
O1178 O 0.75775 0.57042 0.90926 0.0
O1179 O 0.74837 0.57381 0.89145 0.0
C1180 C 0.69355 0.55927 0.87484 0.0
C1181 C 0.69866 0.55038 0.86669 0.0
H1182 H 0.70948 0.53253 0.85262 0.0
H1183 H 0.73133 0.52574 0.8539 0.0
H1184 H 0.70421 0.57885 0.91013 0.0
H1185 H 0.68828 0.58239 0.90875 0.0
H1186 H 0.6839 0.56142 0.87338 0.0
H1187 H 0.6926 0.54659 0.85978 0.0
Mn1188 Mn 0.80782 0.45353 0.12776 0.0
Mn1189 Mn 0.80153 0.43491 0.10389 0.0
C1190 C 0.80387 0.43277 0.13107 0.0
C1191 C 0.8205 0.46197 0.14213 0.0
C1192 C 0.78286 0.45242 0.11531 0.0
O1193 O 0.81388 0.46392 0.11318 0.0
O1194 O 0.80982 0.45011 0.09829 0.0
C1195 C 0.82755 0.42941 0.09689 0.0
N1196 N 0.81614 0.42511 0.09995 0.0
C1197 C 0.824 0.40342 0.09245 0.0
C1198 C 0.83515 0.40909 0.0897 0.0
C1199 C 0.8369 0.42167 0.09209 0.0
C1200 C 0.81351 0.41306 0.09913 0.0
H1201 H 0.82963 0.43905 0.09802 0.0
C1202 C 0.81398 0.46045 0.10197 0.0
O1203 O 0.81006 0.46716 0.13929 0.0
O1204 O 0.82441 0.45299 0.13521 0.0
N1205 N 0.79286 0.41981 0.10784 0.0
C1206 C 0.7809 0.41857 0.11153 0.0
C1207 C 0.77483 0.40713 0.11145 0.0
C1208 C 0.78002 0.39628 0.10657 0.0
C1209 C 0.79243 0.39611 0.10185 0.0
C1210 C 0.7992 0.41011 0.10363 0.0
H1211 H 0.77575 0.42646 0.11479 0.0
O1212 O 0.80245 0.44059 0.13995 0.0
O1213 O 0.80772 0.4372 0.1206 0.0
O1214 O 0.78992 0.45675 0.12346 0.0
O1215 O 0.78629 0.44453 0.10727 0.0
C1216 C 0.80845 0.3808 0.09128 0.0
C1217 C 0.82211 0.38831 0.08857 0.0
H1218 H 0.84259 0.40379 0.08557 0.0
H1219 H 0.84576 0.4257 0.08982 0.0
H1220 H 0.76547 0.40677 0.11501 0.0
H1221 H 0.774 0.38837 0.10663 0.0
H1222 H 0.80791 0.37112 0.08851 0.0
H1223 H 0.82964 0.38333 0.08422 0.0
Mn1224 Mn 0.87953 0.54788 0.39068 0.0
Mn1225 Mn 0.88813 0.54218 0.36144 0.0
C1226 C 0.89774 0.55586 0.38348 0.0
C1227 C 0.8711 0.55961 0.40608 0.0
C1228 C 0.89228 0.52403 0.38224 0.0
O1229 O 0.86332 0.54281 0.38349 0.0
O1230 O 0.87052 0.53767 0.36467 0.0
C1231 C 0.87186 0.56035 0.34876 0.0
N1232 N 0.88332 0.55558 0.35083 0.0
C1233 C 0.89224 0.56885 0.33527 0.0
C1234 C 0.88049 0.57378 0.33287 0.0
C1235 C 0.87027 0.56953 0.33967 0.0
C1236 C 0.89321 0.55956 0.34428 0.0
H1237 H 0.86402 0.55714 0.35396 0.0
C1238 C 0.86186 0.5386 0.37273 0.0
O1239 O 0.87256 0.54777 0.40741 0.0
O1240 O 0.873 0.56435 0.39521 0.0
N1241 N 0.90457 0.54628 0.35678 0.0
C1242 C 0.91531 0.54216 0.36179 0.0
C1243 C 0.92646 0.54693 0.3574 0.0
C1244 C 0.92663 0.55502 0.34718 0.0
C1245 C 0.91543 0.55908 0.34213 0.0
C1246 C 0.9045 0.55461 0.34743 0.0
H1247 H 0.91529 0.53594 0.36962 0.0
O1248 O 0.89597 0.55354 0.39507 0.0
O1249 O 0.88871 0.55317 0.37595 0.0
O1250 O 0.88615 0.53004 0.3903 0.0
O1251 O 0.89398 0.52786 0.37122 0.0
C1252 C 0.91468 0.56818 0.33279 0.0
C1253 C 0.90307 0.573 0.3293 0.0
H1254 H 0.87925 0.58095 0.32595 0.0
H1255 H 0.86117 0.57333 0.33793 0.0
H1256 H 0.93475 0.54479 0.36238 0.0
H1257 H 0.93531 0.55871 0.34385 0.0
H1258 H 0.92298 0.57182 0.32853 0.0
H1259 H 0.90261 0.58016 0.32229 0.0
Mn1260 Mn 0.83641 0.66236 0.68162 0.0
Mn1261 Mn 0.83268 0.67121 0.6522 0.0
C1262 C 0.81971 0.67498 0.67654 0.0
C1263 C 0.83102 0.64563 0.69433 0.0
C1264 C 0.85318 0.6806 0.66902 0.0
O1265 O 0.8477 0.65091 0.67201 0.0
O1266 O 0.83961 0.65422 0.65322 0.0
C1267 C 0.81236 0.6527 0.64435 0.0
N1268 N 0.81789 0.66396 0.64403 0.0
C1269 C 0.80212 0.66974 0.62545 0.0
C1270 C 0.79719 0.65802 0.62732 0.0
C1271 C 0.80238 0.64976 0.63627 0.0
C1272 C 0.81487 0.67161 0.63503 0.0
H1273 H 0.81551 0.64583 0.65093 0.0
C1274 C 0.84609 0.6479 0.66084 0.0
O1275 O 0.84013 0.65275 0.69741 0.0
O1276 O 0.82517 0.64849 0.68446 0.0
N1277 N 0.82661 0.68848 0.64965 0.0
C1278 C 0.82591 0.70245 0.65571 0.0
C1279 C 0.81992 0.71659 0.64792 0.0
C1280 C 0.81384 0.7172 0.63208 0.0
C1281 C 0.81328 0.7033 0.62273 0.0
C1282 C 0.82255 0.68455 0.63643 0.0
H1283 H 0.8292 0.70351 0.66503 0.0
O1284 O 0.82305 0.67393 0.68796 0.0
O1285 O 0.82662 0.66922 0.6688 0.0
O1286 O 0.84946 0.67626 0.67951 0.0
O1287 O 0.84795 0.6783 0.65876 0.0
C1288 C 0.80051 0.69758 0.61379 0.0
C1289 C 0.79533 0.68151 0.61525 0.0
H1290 H 0.78928 0.65521 0.62202 0.0
H1291 H 0.79829 0.64071 0.63721 0.0
H1292 H 0.81975 0.72504 0.65317 0.0
H1293 H 0.80934 0.72554 0.62884 0.0
H1294 H 0.79508 0.704 0.60835 0.0
H1295 H 0.7873 0.67891 0.61001 0.0
Mn1296 Mn 0.72088 0.56166 0.75259 0.0
Mn1297 Mn 0.70808 0.56422 0.78091 0.0
C1298 C 0.7065 0.5772 0.75604 0.0
C1299 C 0.73792 0.56857 0.74078 0.0
C1300 C 0.70025 0.54504 0.76213 0.0
O1301 O 0.73224 0.55117 0.76313 0.0
O1302 O 0.72373 0.55459 0.78178 0.0
C1303 C 0.72694 0.579 0.79363 0.0
N1304 N 0.71516 0.57779 0.78949 0.0
C1305 C 0.70878 0.59642 0.79978 0.0
C1306 C 0.72085 0.59788 0.80412 0.0
C1307 C 0.72995 0.5891 0.80107 0.0
C1308 C 0.70631 0.58614 0.79246 0.0
H1309 H 0.73396 0.57223 0.79144 0.0
C1310 C 0.73207 0.5499 0.7748 0.0
O1311 O 0.73188 0.5588 0.73741 0.0
O1312 O 0.73407 0.57382 0.75067 0.0
N1313 N 0.69292 0.57341 0.78178 0.0
C1314 C 0.6814 0.56978 0.77846 0.0
C1315 C 0.67113 0.57721 0.78138 0.0
C1316 C 0.67278 0.58827 0.78783 0.0
C1317 C 0.68465 0.59163 0.79155 0.0
C1318 C 0.69454 0.5838 0.78841 0.0
H1319 H 0.68006 0.56126 0.77368 0.0
O1320 O 0.70905 0.57345 0.74498 0.0
O1321 O 0.71247 0.57154 0.76486 0.0
O1322 O 0.70732 0.54808 0.75302 0.0
O1323 O 0.70023 0.55037 0.77261 0.0
C1324 C 0.68704 0.60233 0.79842 0.0
C1325 C 0.69911 0.60476 0.80248 0.0
H1326 H 0.72321 0.60567 0.80983 0.0
H1327 H 0.73926 0.59011 0.80444 0.0
H1328 H 0.66197 0.57441 0.77868 0.0
H1329 H 0.66485 0.594 0.79006 0.0
H1330 H 0.67963 0.60867 0.8008 0.0
H1331 H 0.70083 0.61301 0.80777 0.0
Mn1332 Mn 0.77213 0.40251 0.98446 0.0
Mn1333 Mn 0.76515 0.39666 0.01447 0.0
C1334 C 0.75136 0.39973 0.99104 0.0
C1335 C 0.77439 0.41838 0.96988 0.0
C1336 C 0.77972 0.38047 0.99673 0.0
O1337 O 0.78689 0.40893 0.99422 0.0
O1338 O 0.7788 0.40878 0.01376 0.0
C1339 C 0.75876 0.4169 0.03147 0.0
N1340 N 0.75552 0.40632 0.02565 0.0
C1341 C 0.73717 0.40437 0.0382 0.0
C1342 C 0.74009 0.4155 0.04399 0.0
C1343 C 0.75101 0.42169 0.04075 0.0
C1344 C 0.74538 0.39991 0.02922 0.0
H1345 H 0.76727 0.42154 0.02916 0.0
C1346 C 0.78693 0.41204 0.00564 0.0
O1347 O 0.77966 0.40772 0.96816 0.0
O1348 O 0.76789 0.41969 0.97979 0.0
N1349 N 0.75185 0.38508 0.01514 0.0
C1350 C 0.75027 0.37454 0.00852 0.0
C1351 C 0.73965 0.36741 0.01042 0.0
C1352 C 0.73079 0.37112 0.01918 0.0
C1353 C 0.73259 0.382 0.02587 0.0
C1354 C 0.7433 0.38881 0.02345 0.0
H1355 H 0.75695 0.37164 0.00169 0.0
O1356 O 0.75469 0.39759 0.97967 0.0
O1357 O 0.76009 0.4029 0.99837 0.0
O1358 O 0.77915 0.38386 0.98559 0.0
O1359 O 0.77385 0.387 0.00385 0.0
C1360 C 0.72409 0.38644 0.0347 0.0
C1361 C 0.72642 0.39757 0.04092 0.0
H1362 H 0.73405 0.41935 0.05097 0.0
H1363 H 0.75345 0.43012 0.0454 0.0
H1364 H 0.73829 0.35909 0.00514 0.0
H1365 H 0.7226 0.3656 0.02063 0.0
H1366 H 0.71571 0.3814 0.03675 0.0
H1367 H 0.71979 0.40089 0.04767 0.0
Mn1368 Mn 0.85793 0.44537 0.28471 0.0
Mn1369 Mn 0.86523 0.44078 0.31438 0.0
C1370 C 0.8682 0.42768 0.28975 0.0
C1371 C 0.84695 0.44427 0.26689 0.0
C1372 C 0.8803 0.45687 0.29742 0.0
O1373 O 0.84569 0.45648 0.2929 0.0
O1374 O 0.85342 0.455 0.31202 0.0
C1375 C 0.84006 0.43338 0.3225 0.0
N1376 N 0.85248 0.4313 0.32223 0.0
C1377 C 0.85044 0.41405 0.33623 0.0
C1378 C 0.83769 0.41625 0.33691 0.0
C1379 C 0.83247 0.42589 0.32992 0.0
C1380 C 0.85756 0.42188 0.32872 0.0
H1381 H 0.83593 0.44066 0.31708 0.0
C1382 C 0.84584 0.45957 0.30413 0.0
O1383 O 0.85467 0.45309 0.26886 0.0
O1384 O 0.84464 0.4365 0.27582 0.0
N1385 N 0.87599 0.42742 0.31903 0.0
C1386 C 0.88821 0.42574 0.31649 0.0
C1387 C 0.89454 0.41571 0.32194 0.0
C1388 C 0.88845 0.4079 0.33031 0.0
C1389 C 0.87597 0.40993 0.33297 0.0
C1390 C 0.87004 0.4199 0.32713 0.0
H1391 H 0.89301 0.43196 0.31031 0.0
O1392 O 0.86957 0.43297 0.27907 0.0
O1393 O 0.86123 0.43337 0.29798 0.0
O1394 O 0.87212 0.45668 0.28913 0.0
O1395 O 0.8793 0.45053 0.30737 0.0
C1396 C 0.86908 0.40217 0.34087 0.0
C1397 C 0.85632 0.40424 0.34251 0.0
H1398 H 0.8318 0.41046 0.3426 0.0
H1399 H 0.82261 0.42754 0.33025 0.0
H1400 H 0.90407 0.41381 0.31972 0.0
H1401 H 0.89336 0.40019 0.3344 0.0
H1402 H 0.87346 0.39444 0.34553 0.0
H1403 H 0.85107 0.39809 0.34844 0.0
Mn1404 Mn 0.86922 0.60758 0.53361 0.0
Mn1405 Mn 0.88066 0.6327 0.54823 0.0
C1406 C 0.88128 0.62108 0.52292 0.0
C1407 C 0.87062 0.58765 0.52664 0.0
C1408 C 0.85445 0.63144 0.53866 0.0
O1409 O 0.86728 0.60225 0.55116 0.0
O1410 O 0.87411 0.6197 0.55962 0.0
C1411 C 0.90103 0.61739 0.5584 0.0
N1412 N 0.89704 0.62843 0.5538 0.0
C1413 C 0.91249 0.63946 0.56507 0.0
C1414 C 0.91693 0.62815 0.56975 0.0
C1415 C 0.91139 0.61704 0.56613 0.0
C1416 C 0.90334 0.6388 0.55597 0.0
H1417 H 0.89599 0.60903 0.55657 0.0
C1418 C 0.86993 0.6087 0.56042 0.0
O1419 O 0.85996 0.59305 0.52808 0.0
O1420 O 0.88029 0.59348 0.53041 0.0
N1421 N 0.88784 0.64773 0.54048 0.0
C1422 C 0.87951 0.65924 0.53488 0.0
C1423 C 0.88152 0.67474 0.54127 0.0
C1424 C 0.89236 0.67647 0.55368 0.0
C1425 C 0.90123 0.66308 0.55833 0.0
C1426 C 0.89849 0.64902 0.55083 0.0
H1427 H 0.87207 0.65748 0.52853 0.0
O1428 O 0.87347 0.61427 0.51715 0.0
O1429 O 0.88178 0.62025 0.5349 0.0
O1430 O 0.8551 0.6201 0.53555 0.0
O1431 O 0.86365 0.63747 0.54285 0.0
C1432 C 0.91038 0.66249 0.56734 0.0
C1433 C 0.91621 0.65101 0.57012 0.0
H1434 H 0.92424 0.62789 0.57652 0.0
H1435 H 0.91458 0.60833 0.56993 0.0
H1436 H 0.8761 0.6825 0.53797 0.0
H1437 H 0.89391 0.68534 0.55787 0.0
H1438 H 0.91304 0.67078 0.57214 0.0
H1439 H 0.92326 0.65101 0.57716 0.0
Mn1440 Mn 0.90577 0.75162 0.55677 0.0
Mn1441 Mn 0.88195 0.73551 0.56856 0.0
C1442 C 0.90695 0.73016 0.55744 0.0
C1443 C 0.91432 0.76127 0.53942 0.0
C1444 C 0.90012 0.74994 0.58409 0.0
O1445 O 0.89145 0.7641 0.55668 0.0
O1446 O 0.87586 0.75102 0.56088 0.0
C1447 C 0.86664 0.72947 0.54686 0.0
N1448 N 0.87337 0.72571 0.55679 0.0
C1449 C 0.86543 0.70509 0.55525 0.0
C1450 C 0.85864 0.70871 0.54485 0.0
C1451 C 0.85934 0.72094 0.54057 0.0
C1452 C 0.87296 0.71388 0.56081 0.0
H1453 H 0.86663 0.73894 0.54392 0.0
C1454 C 0.87999 0.76144 0.5571 0.0
O1455 O 0.91765 0.76438 0.55047 0.0
O1456 O 0.9062 0.75264 0.53849 0.0
N1457 N 0.88678 0.72003 0.57586 0.0
C1458 C 0.89435 0.71777 0.58562 0.0
C1459 C 0.89504 0.70583 0.59073 0.0
C1460 C 0.88765 0.69641 0.58601 0.0
C1461 C 0.87992 0.69894 0.57597 0.0
C1462 C 0.88004 0.71087 0.57092 0.0
H1463 H 0.89971 0.72501 0.58957 0.0
O1464 O 0.91685 0.73678 0.55644 0.0
O1465 O 0.89666 0.73635 0.558 0.0
O1466 O 0.90794 0.75257 0.57562 0.0
O1467 O 0.88976 0.74488 0.58193 0.0
C1468 C 0.87195 0.69013 0.57091 0.0
C1469 C 0.86473 0.69321 0.56053 0.0
H1470 H 0.85275 0.70221 0.54018 0.0
H1471 H 0.85402 0.72387 0.53264 0.0
H1472 H 0.90103 0.70397 0.59849 0.0
H1473 H 0.88796 0.68729 0.59017 0.0
H1474 H 0.87142 0.68094 0.57486 0.0
H1475 H 0.85861 0.68641 0.55669 0.0
Mn1476 Mn 0.39444 0.87947 0.54444 0.0
Mn1477 Mn 0.36522 0.87935 0.53426 0.0
C1478 C 0.38157 0.89547 0.55028 0.0
C1479 C 0.40912 0.87167 0.55749 0.0
C1480 C 0.38699 0.88806 0.51872 0.0
O1481 O 0.39259 0.86224 0.53734 0.0
O1482 O 0.37226 0.86262 0.53374 0.0
C1483 C 0.35359 0.86412 0.55403 0.0
N1484 N 0.35403 0.87475 0.54724 0.0
C1485 C 0.33532 0.88232 0.55671 0.0
C1486 C 0.33463 0.87145 0.56379 0.0
C1487 C 0.34383 0.86233 0.56247 0.0
C1488 C 0.34526 0.88357 0.54849 0.0
H1489 H 0.36057 0.85704 0.55295 0.0
C1490 C 0.38259 0.85702 0.53453 0.0
O1491 O 0.41195 0.87594 0.54662 0.0
O1492 O 0.39766 0.87222 0.56107 0.0
N1493 N 0.35691 0.89472 0.53426 0.0
C1494 C 0.35962 0.90497 0.52753 0.0
C1495 C 0.35184 0.91519 0.52832 0.0
C1496 C 0.34084 0.91443 0.53521 0.0
C1497 C 0.33826 0.90381 0.54215 0.0
C1498 C 0.3467 0.89407 0.54144 0.0
H1499 H 0.36791 0.90554 0.52203 0.0
O1500 O 0.39343 0.89624 0.55157 0.0
O1501 O 0.3774 0.88482 0.54653 0.0
O1502 O 0.39505 0.88719 0.52718 0.0
O1503 O 0.37582 0.88452 0.52006 0.0
C1504 C 0.32798 0.9027 0.55012 0.0
C1505 C 0.32653 0.89196 0.55744 0.0
H1506 H 0.3271 0.87002 0.57026 0.0
H1507 H 0.34337 0.85391 0.56789 0.0
H1508 H 0.35472 0.92364 0.52393 0.0
H1509 H 0.33464 0.92213 0.53543 0.0
H1510 H 0.32129 0.91014 0.55088 0.0
H1511 H 0.31868 0.89124 0.56365 0.0
Mn1512 Mn 0.45296 0.13013 0.80639 0.0
Mn1513 Mn 0.43939 0.10507 0.79483 0.0
C1514 C 0.43228 0.13111 0.8009 0.0
C1515 C 0.45795 0.14282 0.82256 0.0
C1516 C 0.45612 0.12163 0.77971 0.0
O1517 O 0.46489 0.11623 0.81162 0.0
O1518 O 0.45416 0.10025 0.80413 0.0
C1519 C 0.43152 0.09316 0.81829 0.0
N1520 N 0.42874 0.09776 0.80691 0.0
C1521 C 0.40742 0.09234 0.80943 0.0
C1522 C 0.41008 0.08729 0.82108 0.0
C1523 C 0.4222 0.08776 0.82556 0.0
C1524 C 0.41712 0.09746 0.80256 0.0
H1525 H 0.44075 0.09364 0.8218 0.0
C1526 C 0.46329 0.1047 0.80994 0.0
O1527 O 0.46424 0.14301 0.81231 0.0
O1528 O 0.44961 0.13437 0.82385 0.0
N1529 N 0.42488 0.10853 0.78575 0.0
C1530 C 0.42374 0.11513 0.77507 0.0
C1531 C 0.41203 0.11709 0.77014 0.0
C1532 C 0.40174 0.11198 0.77608 0.0
C1533 C 0.40319 0.10448 0.78664 0.0
C1534 C 0.41507 0.10323 0.79135 0.0
H1535 H 0.43162 0.11931 0.77062 0.0
O1536 O 0.43881 0.14106 0.80153 0.0
O1537 O 0.43806 0.12084 0.80352 0.0
O1538 O 0.45831 0.12941 0.78817 0.0
O1539 O 0.4498 0.11191 0.78151 0.0
C1540 C 0.3934 0.0987 0.79305 0.0
C1541 C 0.39547 0.09272 0.80446 0.0
H1542 H 0.40288 0.08321 0.82673 0.0
H1543 H 0.42434 0.08402 0.83459 0.0
H1544 H 0.41088 0.12286 0.76202 0.0
H1545 H 0.39289 0.11469 0.77272 0.0
H1546 H 0.3842 0.09874 0.78944 0.0
H1547 H 0.38778 0.08863 0.80941 0.0
Mn1548 Mn 0.12268 0.25063 0.01531 0.0
Mn1549 Mn 0.15096 0.24061 0.0071 0.0
C1550 C 0.12603 0.2297 0.01276 0.0
C1551 C 0.10763 0.25363 0.03037 0.0
C1552 C 0.13372 0.25447 0.98982 0.0
O1553 O 0.13368 0.26495 0.02046 0.0
O1554 O 0.15236 0.25603 0.01684 0.0
C1555 C 0.16498 0.23498 0.02989 0.0
N1556 N 0.1597 0.23112 0.01924 0.0
C1557 C 0.16895 0.21095 0.02153 0.0
C1558 C 0.17405 0.2146 0.03277 0.0
C1559 C 0.17212 0.22671 0.03693 0.0
C1560 C 0.16201 0.21966 0.01487 0.0
H1561 H 0.16402 0.24437 0.03283 0.0
C1562 C 0.14546 0.26469 0.02123 0.0
O1563 O 0.10688 0.2592 0.01971 0.0
O1564 O 0.1178 0.24778 0.03267 0.0
N1565 N 0.14988 0.22551 0.99817 0.0
C1566 C 0.14282 0.22291 0.98818 0.0
C1567 C 0.14283 0.21091 0.98343 0.0
C1568 C 0.15038 0.2018 0.98879 0.0
C1569 C 0.15732 0.20462 0.99925 0.0
C1570 C 0.15659 0.21663 0.00383 0.0
H1571 H 0.13701 0.22986 0.98403 0.0
O1572 O 0.11519 0.23453 0.01114 0.0
O1573 O 0.13488 0.23745 0.01502 0.0
O1574 O 0.1242 0.25491 0.99676 0.0
O1575 O 0.14396 0.24997 0.99328 0.0
C1576 C 0.16456 0.19586 0.00556 0.0
C1577 C 0.17039 0.19898 0.0167 0.0
H1578 H 0.17953 0.20822 0.03823 0.0
H1579 H 0.17626 0.22971 0.04545 0.0
H1580 H 0.1372 0.20875 0.97553 0.0
H1581 H 0.15059 0.19259 0.98494 0.0
H1582 H 0.16557 0.18671 0.00189 0.0
H1583 H 0.17579 0.19206 0.02156 0.0
Mn1584 Mn 0.59782 0.5356 0.87102 0.0
Mn1585 Mn 0.61324 0.56196 0.87215 0.0
C1586 C 0.61669 0.53553 0.88146 0.0
C1587 C 0.58264 0.52304 0.87897 0.0
C1588 C 0.61321 0.54542 0.84959 0.0
O1589 O 0.58536 0.54856 0.8646 0.0
O1590 O 0.59576 0.56558 0.8695 0.0
C1591 C 0.60188 0.57008 0.89558 0.0
N1592 N 0.61216 0.56808 0.88853 0.0
C1593 C 0.62538 0.57243 0.90553 0.0
C1594 C 0.61501 0.57499 0.91289 0.0
C1595 C 0.60319 0.57358 0.90795 0.0
C1596 C 0.62355 0.5689 0.89329 0.0
H1597 H 0.59276 0.56878 0.89186 0.0
C1598 C 0.58615 0.56023 0.86565 0.0
O1599 O 0.58604 0.52242 0.86747 0.0
O1600 O 0.5875 0.53153 0.88572 0.0
N1601 N 0.63029 0.56021 0.87481 0.0
C1602 C 0.63892 0.55548 0.86696 0.0
C1603 C 0.65101 0.55426 0.87094 0.0
C1604 C 0.65402 0.55807 0.88282 0.0
C1605 C 0.6452 0.56405 0.89048 0.0
C1606 C 0.63322 0.56481 0.88595 0.0
H1607 H 0.63655 0.55214 0.85795 0.0
O1608 O 0.61157 0.52532 0.87819 0.0
O1609 O 0.61019 0.54548 0.879 0.0
O1610 O 0.60724 0.5366 0.85465 0.0
O1611 O 0.61496 0.55581 0.85487 0.0
C1612 C 0.64725 0.56842 0.90264 0.0
C1613 C 0.63741 0.57254 0.91008 0.0
H1614 H 0.616 0.57759 0.92247 0.0
H1615 H 0.59511 0.57506 0.91371 0.0
H1616 H 0.65785 0.54977 0.86515 0.0
H1617 H 0.66287 0.55507 0.88579 0.0
H1618 H 0.65607 0.5686 0.90696 0.0
H1619 H 0.63918 0.57536 0.91948 0.0
Mn1620 Mn 0.64698 0.40644 0.08832 0.0
Mn1621 Mn 0.67895 0.40202 0.08289 0.0
C1622 C 0.65662 0.41777 0.07202 0.0
C1623 C 0.63025 0.39478 0.08235 0.0
C1624 C 0.66322 0.4158 0.10205 0.0
O1625 O 0.65345 0.39093 0.09771 0.0
O1626 O 0.66938 0.38659 0.08472 0.0
C1627 C 0.69575 0.38077 0.07911 0.0
N1628 N 0.6939 0.39321 0.07957 0.0
C1629 C 0.71534 0.39703 0.07531 0.0
C1630 C 0.71747 0.38427 0.07469 0.0
C1631 C 0.70762 0.3761 0.07663 0.0
C1632 C 0.70328 0.40116 0.07776 0.0
H1633 H 0.68824 0.37444 0.08064 0.0
C1634 C 0.66125 0.38337 0.09281 0.0
O1635 O 0.62955 0.40175 0.09204 0.0
O1636 O 0.64034 0.39501 0.07592 0.0
N1637 N 0.68875 0.4167 0.08161 0.0
C1638 C 0.68565 0.42865 0.08412 0.0
C1639 C 0.69459 0.43792 0.08298 0.0
C1640 C 0.70671 0.43483 0.07949 0.0
C1641 C 0.70985 0.42243 0.07751 0.0
C1642 C 0.70057 0.41357 0.07881 0.0
H1643 H 0.67632 0.43118 0.08661 0.0
O1644 O 0.64518 0.41995 0.07511 0.0
O1645 O 0.66264 0.41089 0.07999 0.0
O1646 O 0.6518 0.41793 0.10318 0.0
O1647 O 0.66576 0.41051 0.0918 0.0
C1648 C 0.72193 0.4185 0.07463 0.0
C1649 C 0.72472 0.40582 0.07366 0.0
H1650 H 0.72663 0.38064 0.07281 0.0
H1651 H 0.70919 0.36623 0.07624 0.0
H1652 H 0.69213 0.44744 0.08478 0.0
H1653 H 0.7136 0.44199 0.07868 0.0
H1654 H 0.72915 0.42517 0.07316 0.0
H1655 H 0.73411 0.40293 0.07162 0.0
Mn1656 Mn 0.40078 0.98651 0.77507 0.0
Mn1657 Mn 0.3924 0.01535 0.76651 0.0
C1658 C 0.39586 0.99068 0.75465 0.0
C1659 C 0.41679 0.97265 0.77834 0.0
C1660 C 0.37563 0.99772 0.78078 0.0
O1661 O 0.40684 0.99711 0.78925 0.0
O1662 O 0.4023 0.01609 0.78183 0.0
C1663 C 0.41713 0.02523 0.76029 0.0
N1664 N 0.40534 0.02269 0.7569 0.0
C1665 C 0.4091 0.03032 0.7363 0.0
C1666 C 0.42126 0.03306 0.73958 0.0
C1667 C 0.42529 0.03051 0.75164 0.0
C1668 C 0.40136 0.02515 0.74533 0.0
H1669 H 0.42032 0.02317 0.76951 0.0
C1670 C 0.40714 0.00887 0.78988 0.0
O1671 O 0.40625 0.97119 0.78396 0.0
O1672 O 0.41797 0.98201 0.77097 0.0
N1673 N 0.38295 0.01605 0.75161 0.0
C1674 C 0.37095 0.01289 0.74983 0.0
C1675 C 0.36547 0.01493 0.73829 0.0
C1676 C 0.37231 0.02045 0.72871 0.0
C1677 C 0.38453 0.02396 0.73084 0.0
C1678 C 0.38948 0.02173 0.74256 0.0
H1679 H 0.36555 0.0091 0.75723 0.0
O1680 O 0.39541 0.97943 0.75886 0.0
O1681 O 0.39895 0.99898 0.7626 0.0
O1682 O 0.38274 0.98828 0.78085 0.0
O1683 O 0.37854 0.00817 0.77602 0.0
C1684 C 0.39203 0.0295 0.72176 0.0
C1685 C 0.40443 0.03227 0.72433 0.0
H1686 H 0.4276 0.03704 0.7329 0.0
H1687 H 0.43468 0.03255 0.75424 0.0
H1688 H 0.35595 0.01238 0.73682 0.0
H1689 H 0.36808 0.022 0.71979 0.0
H1690 H 0.38838 0.0316 0.71273 0.0
H1691 H 0.41026 0.03599 0.71706 0.0
Mn1692 Mn 0.11009 0.01134 0.18638 0.0
Mn1693 Mn 0.12514 0.9905 0.16941 0.0
C1694 C 0.11222 0.01506 0.1656 0.0
C1695 C 0.09114 0.01726 0.19434 0.0
C1696 C 0.13609 0.0047 0.19102 0.0
O1697 O 0.11068 0.99541 0.19662 0.0
O1698 O 0.11218 0.98294 0.18028 0.0
C1699 C 0.12852 0.96382 0.17161 0.0
N1700 N 0.13199 0.97454 0.16596 0.0
C1701 C 0.14033 0.96309 0.1487 0.0
C1702 C 0.13609 0.95216 0.15415 0.0
C1703 C 0.13016 0.95253 0.16559 0.0
C1704 C 0.13749 0.97436 0.15467 0.0
H1705 H 0.12411 0.9639 0.18049 0.0
C1706 C 0.11029 0.98469 0.19185 0.0
O1707 O 0.10135 0.02022 0.19969 0.0
O1708 O 0.09181 0.01034 0.18465 0.0
N1709 N 0.13858 0.99697 0.15856 0.0
C1710 C 0.14496 0.01005 0.15954 0.0
C1711 C 0.1574 0.01374 0.14999 0.0
C1712 C 0.16234 0.99578 0.13614 0.0
C1713 C 0.15253 0.98429 0.13914 0.0
C1714 C 0.14167 0.98552 0.15018 0.0
H1715 H 0.14163 0.01668 0.16621 0.0
O1716 O 0.10926 0.02434 0.17256 0.0
O1717 O 0.11604 0.00551 0.1714 0.0
O1718 O 0.12812 0.01349 0.1903 0.0
O1719 O 0.13547 0.99455 0.18463 0.0
C1720 C 0.15402 0.97295 0.13345 0.0
C1721 C 0.14772 0.96264 0.13794 0.0
H1722 H 0.1377 0.94331 0.14979 0.0
H1723 H 0.12677 0.94407 0.16964 0.0
H1724 H 0.1614 0.0229 0.15116 0.0
H1725 H 0.16243 0.00171 0.13916 0.0
H1726 H 0.16063 0.97192 0.12598 0.0
H1727 H 0.14951 0.95385 0.13353 0.0
H1728 H 0.0259 0.25342 0.2878 0.0
H1729 H 0.02904 0.23289 0.29649 0.0
H1730 H 0.0586 0.22647 0.27036 0.0
H1731 H 0.05471 0.24666 0.26105 0.0
H1732 H 0.03801 0.21412 0.26513 0.0
H1733 H 0.06071 0.22136 0.30353 0.0
H1734 H 0.0628 0.23204 0.32344 0.0
H1735 H 0.0276 0.21815 0.33529 0.0
H1736 H 0.02523 0.20751 0.31542 0.0
H1737 H 0.04411 0.15226 0.26615 0.0
H1738 H 0.05061 0.17208 0.2743 0.0
H1739 H 0.01541 0.17635 0.29261 0.0
H1740 H 0.00869 0.15664 0.28401 0.0
H1741 H 0.03816 0.18957 0.30395 0.0
H1742 H 0.01226 0.18622 0.26955 0.0
H1743 H 0.00303 0.18036 0.24977 0.0
H1744 H 0.03594 0.19151 0.23057 0.0
H1745 H 0.04568 0.19674 0.25033 0.0
C1746 C 0.03364 0.24796 0.28448 0.0
C1747 C 0.03988 0.25144 0.2736 0.0
C1748 C 0.03542 0.23614 0.28946 0.0
C1749 C 0.04387 0.22799 0.2839 0.0
C1750 C 0.05192 0.23256 0.27472 0.0
C1751 C 0.04983 0.2442 0.26948 0.0
C1752 C 0.04172 0.21447 0.28464 0.0
C1753 C 0.03852 0.20869 0.27358 0.0
C1754 C 0.04106 0.20767 0.29584 0.0
C1755 C 0.0428 0.21364 0.30797 0.0
C1756 C 0.05341 0.2206 0.31038 0.0
C1757 C 0.05464 0.22665 0.32166 0.0
C1758 C 0.04534 0.22578 0.33062 0.0
C1759 C 0.03481 0.2188 0.32835 0.0
C1760 C 0.03354 0.21273 0.3171 0.0
C1761 C 0.03806 0.15702 0.27259 0.0
C1762 C 0.02592 0.15298 0.27448 0.0
C1763 C 0.04174 0.16841 0.27715 0.0
C1764 C 0.03339 0.17575 0.28384 0.0
C1765 C 0.02197 0.17079 0.28746 0.0
C1766 C 0.01818 0.15947 0.28266 0.0
C1767 C 0.03543 0.18921 0.28428 0.0
C1768 C 0.03821 0.19498 0.29548 0.0
C1769 C 0.03499 0.19632 0.27328 0.0
C1770 C 0.02986 0.19155 0.26154 0.0
C1771 C 0.01774 0.18695 0.2612 0.0
C1772 C 0.01236 0.18384 0.24995 0.0
C1773 C 0.01889 0.18556 0.23892 0.0
C1774 C 0.03092 0.19011 0.23913 0.0
C1775 C 0.03642 0.19304 0.25037 0.0
H1776 H 0.01462 0.18341 0.2302 0.0
H1777 H 0.04629 0.23051 0.33933 0.0
H1778 H 0.0935 0.83262 0.46564 0.0
H1779 H 0.07109 0.83268 0.46385 0.0
H1780 H 0.07162 0.79282 0.46627 0.0
H1781 H 0.09338 0.79316 0.47014 0.0
H1782 H 0.06467 0.82513 0.44361 0.0
H1783 H 0.04607 0.77925 0.46062 0.0
H1784 H 0.04782 0.76522 0.47855 0.0
H1785 H 0.05244 0.79624 0.5025 0.0
H1786 H 0.05067 0.8105 0.48468 0.0
H1787 H 0.02345 0.79625 0.40344 0.0
H1788 H 0.03908 0.80484 0.41649 0.0
H1789 H 0.01246 0.80788 0.4463 0.0
H1790 H 0.99737 0.79703 0.43362 0.0
H1791 H 0.03048 0.79698 0.45466 0.0
H1792 H 0.03036 0.8347 0.42867 0.0
H1793 H 0.03082 0.84446 0.40799 0.0
H1794 H 0.06522 0.82629 0.39988 0.0
H1795 H 0.06511 0.81658 0.42055 0.0
C1796 C 0.08861 0.82404 0.46709 0.0
C1797 C 0.09514 0.81282 0.46745 0.0
C1798 C 0.07578 0.824 0.46566 0.0
C1799 C 0.0695 0.81274 0.4644 0.0
C1800 C 0.07587 0.80174 0.46732 0.0
C1801 C 0.08852 0.80194 0.46966 0.0
C1802 C 0.05767 0.81238 0.45739 0.0
C1803 C 0.05702 0.81926 0.44631 0.0
C1804 C 0.04786 0.80428 0.4604 0.0
C1805 C 0.0482 0.79595 0.47133 0.0
C1806 C 0.04729 0.7831 0.46974 0.0
C1807 C 0.04837 0.7751 0.47986 0.0
C1808 C 0.05024 0.77984 0.49166 0.0
C1809 C 0.05099 0.79259 0.49335 0.0
C1810 C 0.04997 0.80064 0.48324 0.0
C1811 C 0.02086 0.79911 0.41268 0.0
C1812 C 0.00941 0.79576 0.41767 0.0
C1813 C 0.0298 0.80427 0.42015 0.0
C1814 C 0.02708 0.80726 0.43249 0.0
C1815 C 0.0149 0.80557 0.43687 0.0
C1816 C 0.00617 0.79962 0.42957 0.0
C1817 C 0.03723 0.81017 0.44124 0.0
C1818 C 0.03775 0.80346 0.45241 0.0
C1819 C 0.04709 0.81819 0.43816 0.0
C1820 C 0.04772 0.82495 0.42619 0.0
C1821 C 0.03809 0.83291 0.42253 0.0
C1822 C 0.03831 0.83842 0.4108 0.0
C1823 C 0.04808 0.83603 0.40265 0.0
C1824 C 0.05774 0.82823 0.40625 0.0
C1825 C 0.05765 0.8228 0.418 0.0
H1826 H 0.04815 0.84019 0.39354 0.0
H1827 H 0.0511 0.77363 0.49948 0.0
H1828 H 0.53061 0.78448 0.73372 0.0
H1829 H 0.52536 0.80175 0.74736 0.0
H1830 H 0.55516 0.79119 0.7715 0.0
H1831 H 0.56015 0.77375 0.75809 0.0
H1832 H 0.52329 0.80809 0.7759 0.0
H1833 H 0.5749 0.81697 0.76432 0.0
H1834 H 0.59008 0.81427 0.74742 0.0
H1835 H 0.56067 0.81124 0.72129 0.0
H1836 H 0.54536 0.81436 0.73794 0.0
H1837 H 0.56563 0.86731 0.78309 0.0
H1838 H 0.56078 0.84559 0.78664 0.0
H1839 H 0.52373 0.85217 0.7736 0.0
H1840 H 0.5283 0.87405 0.7713 0.0
H1841 H 0.55779 0.83613 0.76517 0.0
H1842 H 0.50665 0.82597 0.77343 0.0
H1843 H 0.48928 0.83273 0.78662 0.0
H1844 H 0.51456 0.84207 0.81539 0.0
H1845 H 0.5321 0.83527 0.8024 0.0
C1846 C 0.53548 0.7854 0.74237 0.0
C1847 C 0.54567 0.7778 0.74501 0.0
C1848 C 0.5325 0.79527 0.75013 0.0
C1849 C 0.53995 0.79776 0.76034 0.0
C1850 C 0.54927 0.78934 0.76369 0.0
C1851 C 0.55209 0.77937 0.75607 0.0
C1852 C 0.54015 0.81031 0.76552 0.0
C1853 C 0.53082 0.81428 0.77366 0.0
C1854 C 0.54985 0.81839 0.76234 0.0
C1855 C 0.55898 0.81556 0.75245 0.0
C1856 C 0.57168 0.81561 0.75498 0.0
C1857 C 0.58031 0.81413 0.74543 0.0
C1858 C 0.57634 0.81258 0.73329 0.0
C1859 C 0.56373 0.81241 0.7307 0.0
C1860 C 0.55508 0.814 0.7402 0.0
C1861 C 0.5562 0.86427 0.78194 0.0
C1862 C 0.54737 0.87221 0.77678 0.0
C1863 C 0.55343 0.85182 0.78385 0.0
C1864 C 0.54198 0.84712 0.78008 0.0
C1865 C 0.53261 0.85546 0.77667 0.0
C1866 C 0.53525 0.86801 0.77526 0.0
C1867 C 0.54126 0.83399 0.77622 0.0
C1868 C 0.55044 0.82992 0.76794 0.0
C1869 C 0.53113 0.82616 0.77891 0.0
C1870 C 0.5207 0.83015 0.78692 0.0
C1871 C 0.50851 0.8294 0.7826 0.0
C1872 C 0.49863 0.83327 0.79003 0.0
C1873 C 0.50082 0.83785 0.80183 0.0
C1874 C 0.51289 0.83855 0.80623 0.0
C1875 C 0.52281 0.83472 0.79882 0.0
H1876 H 0.49316 0.84083 0.80757 0.0
H1877 H 0.58303 0.8115 0.7259 0.0
H1878 H 0.4384 0.3498 0.97834 0.0
H1879 H 0.45247 0.34423 0.99504 0.0
H1880 H 0.42147 0.33897 0.01971 0.0
H1881 H 0.40723 0.34446 0.00277 0.0
H1882 H 0.44645 0.35238 0.02852 0.0
H1883 H 0.42945 0.31488 0.00975 0.0
H1884 H 0.42408 0.30279 0.99136 0.0
H1885 H 0.46178 0.30392 0.97894 0.0
H1886 H 0.4673 0.31633 0.99703 0.0
H1887 H 0.49839 0.3005 0.03094 0.0
H1888 H 0.47823 0.30693 0.03906 0.0
H1889 H 0.48686 0.34475 0.02951 0.0
H1890 H 0.5072 0.33851 0.02332 0.0
H1891 H 0.4667 0.31206 0.02052 0.0
H1892 H 0.46593 0.3646 0.02902 0.0
H1893 H 0.47567 0.37968 0.04268 0.0
H1894 H 0.47915 0.352 0.07104 0.0
H1895 H 0.46934 0.3367 0.05755 0.0
C1896 C 0.43462 0.34741 0.98732 0.0
C1897 C 0.42185 0.34706 0.98929 0.0
C1898 C 0.44262 0.34442 0.99686 0.0
C1899 C 0.43793 0.3411 0.0085 0.0
C1900 C 0.42517 0.34152 0.01074 0.0
C1901 C 0.41711 0.34454 0.00112 0.0
C1902 C 0.4465 0.33588 0.01765 0.0
C1903 C 0.45081 0.34346 0.02709 0.0
C1904 C 0.45211 0.3243 0.01554 0.0
C1905 C 0.44878 0.31655 0.00479 0.0
C1906 C 0.43657 0.31262 0.00306 0.0
C1907 C 0.4335 0.30572 0.99267 0.0
C1908 C 0.44258 0.30259 0.98399 0.0
C1909 C 0.45475 0.30634 0.98568 0.0
C1910 C 0.45785 0.31331 0.99599 0.0
C1911 C 0.49623 0.31026 0.03151 0.0
C1912 C 0.50394 0.31901 0.02591 0.0
C1913 C 0.48469 0.31398 0.03612 0.0
C1914 C 0.48063 0.32628 0.03439 0.0
C1915 C 0.48941 0.3352 0.03101 0.0
C1916 C 0.50108 0.33156 0.02704 0.0
C1917 C 0.46744 0.32878 0.03134 0.0
C1918 C 0.46214 0.32071 0.02275 0.0
C1919 C 0.46146 0.34024 0.03379 0.0
C1920 C 0.46677 0.34949 0.04229 0.0
C1921 C 0.46858 0.36175 0.03824 0.0
C1922 C 0.4742 0.37033 0.04592 0.0
C1923 C 0.47801 0.36681 0.05773 0.0
C1924 C 0.47619 0.35471 0.06188 0.0
C1925 C 0.47061 0.34606 0.05421 0.0
H1926 H 0.48238 0.37346 0.06366 0.0
H1927 H 0.44018 0.29726 0.97595 0.0
H1928 H 0.10159 0.64445 0.36527 0.0
H1929 H 0.10423 0.64975 0.34348 0.0
H1930 H 0.13208 0.67616 0.35304 0.0
H1931 H 0.12904 0.67138 0.37487 0.0
H1932 H 0.10551 0.68407 0.34749 0.0
H1933 H 0.14024 0.65801 0.33303 0.0
H1934 H 0.14901 0.63752 0.32818 0.0
H1935 H 0.11966 0.63114 0.30261 0.0
H1936 H 0.11065 0.65155 0.30741 0.0
H1937 H 0.13584 0.72311 0.31231 0.0
H1938 H 0.13378 0.70113 0.31676 0.0
H1939 H 0.09722 0.70164 0.3013 0.0
H1940 H 0.09937 0.72378 0.29661 0.0
H1941 H 0.12169 0.67586 0.30537 0.0
H1942 H 0.08532 0.70148 0.32242 0.0
H1943 H 0.07709 0.7219 0.32855 0.0
H1944 H 0.10953 0.72825 0.35009 0.0
H1945 H 0.11789 0.70794 0.34409 0.0
C1946 C 0.10886 0.6508 0.36267 0.0
C1947 C 0.11492 0.65777 0.3717 0.0
C1948 C 0.11035 0.6538 0.35018 0.0
C1949 C 0.11817 0.66348 0.34674 0.0
C1950 C 0.12598 0.66867 0.35559 0.0
C1951 C 0.12425 0.66594 0.36806 0.0
C1952 C 0.11515 0.6711 0.33586 0.0
C1953 C 0.10876 0.68212 0.3382 0.0
C1954 C 0.11907 0.66834 0.32374 0.0
C1955 C 0.12472 0.65626 0.32065 0.0
C1956 C 0.13562 0.65221 0.32643 0.0
C1957 C 0.14064 0.64062 0.32368 0.0
C1958 C 0.13488 0.63302 0.31511 0.0
C1959 C 0.12411 0.63703 0.30924 0.0
C1960 C 0.11906 0.64861 0.31196 0.0
C1961 C 0.12763 0.71837 0.30927 0.0
C1962 C 0.11772 0.72502 0.30423 0.0
C1963 C 0.12651 0.7058 0.31169 0.0
C1964 C 0.11534 0.69981 0.30939 0.0
C1965 C 0.10594 0.70611 0.30301 0.0
C1966 C 0.10715 0.71873 0.3004 0.0
C1967 C 0.11249 0.68901 0.31722 0.0
C1968 C 0.11777 0.67745 0.31447 0.0
C1969 C 0.10738 0.69111 0.32906 0.0
C1970 C 0.10226 0.70328 0.33272 0.0
C1971 C 0.09068 0.70727 0.32844 0.0
C1972 C 0.08599 0.71882 0.33192 0.0
C1973 C 0.09277 0.72638 0.33973 0.0
C1974 C 0.10425 0.7224 0.34409 0.0
C1975 C 0.10896 0.71088 0.34066 0.0
H1976 H 0.08914 0.73531 0.34242 0.0
H1977 H 0.13877 0.62404 0.31301 0.0
H1978 H 0.64332 0.87867 0.64311 0.0
H1979 H 0.63175 0.88554 0.62497 0.0
H1980 H 0.64559 0.85418 0.60466 0.0
H1981 H 0.6577 0.84771 0.62261 0.0
H1982 H 0.63897 0.8741 0.5889 0.0
H1983 H 0.61901 0.85007 0.62446 0.0
H1984 H 0.61305 0.84846 0.64654 0.0
H1985 H 0.59794 0.88503 0.64537 0.0
H1986 H 0.60318 0.88672 0.62318 0.0
H1987 H 0.57651 0.84503 0.57908 0.0
H1988 H 0.59866 0.84827 0.57976 0.0
H1989 H 0.59273 0.88758 0.57788 0.0
H1990 H 0.57057 0.88429 0.57689 0.0
H1991 H 0.59598 0.86758 0.60353 0.0
H1992 H 0.62786 0.8935 0.57286 0.0
H1993 H 0.63129 0.89765 0.55066 0.0
H1994 H 0.62123 0.86038 0.54223 0.0
H1995 H 0.61777 0.85603 0.5644 0.0
C1996 C 0.6444 0.87366 0.63454 0.0
C1997 C 0.65131 0.86268 0.63417 0.0
C1998 C 0.63775 0.87753 0.62421 0.0
C1999 C 0.63753 0.87016 0.61361 0.0
C2000 C 0.6456 0.85999 0.61277 0.0
C2001 C 0.65253 0.85629 0.62301 0.0
C2002 C 0.62717 0.87126 0.60481 0.0
C2003 C 0.62957 0.87273 0.59209 0.0
C2004 C 0.61484 0.86972 0.60895 0.0
C2005 C 0.61149 0.86853 0.6222 0.0
C2006 C 0.61433 0.85773 0.6289 0.0
C2007 C 0.61105 0.85678 0.6414 0.0
C2008 C 0.60512 0.8666 0.64731 0.0
C2009 C 0.60236 0.87738 0.64072 0.0
C2010 C 0.60538 0.87831 0.62818 0.0
C2011 C 0.57996 0.8543 0.5776 0.0
C2012 C 0.57192 0.86445 0.57865 0.0
C2013 C 0.59268 0.85616 0.57814 0.0
C2014 C 0.59727 0.86818 0.57932 0.0
C2015 C 0.58936 0.87823 0.57707 0.0
C2016 C 0.57663 0.87631 0.57638 0.0
C2017 C 0.60783 0.86992 0.58763 0.0
C2018 C 0.60538 0.86906 0.60033 0.0
C2019 C 0.61994 0.87222 0.58345 0.0
C2020 C 0.62257 0.87446 0.57023 0.0
C2021 C 0.62649 0.88617 0.56626 0.0
C2022 C 0.62839 0.88857 0.55369 0.0
C2023 C 0.62648 0.87928 0.54504 0.0
C2024 C 0.62269 0.86757 0.54894 0.0
C2025 C 0.62073 0.86514 0.5615 0.0
H2026 H 0.62793 0.88117 0.53531 0.0
H2027 H 0.60268 0.86587 0.65699 0.0
H2028 H 0.52769 0.38142 0.86217 0.0
H2029 H 0.51062 0.3793 0.84773 0.0
H2030 H 0.52698 0.34559 0.83399 0.0
H2031 H 0.54389 0.34771 0.84838 0.0
H2032 H 0.51079 0.35271 0.81816 0.0
H2033 H 0.51252 0.34383 0.8601 0.0
H2034 H 0.51382 0.34404 0.88278 0.0
H2035 H 0.48447 0.37081 0.88442 0.0
H2036 H 0.48314 0.37093 0.86164 0.0
H2037 H 0.47803 0.30224 0.842 0.0
H2038 H 0.49006 0.3183 0.83168 0.0
H2039 H 0.45928 0.34357 0.83492 0.0
H2040 H 0.44736 0.32769 0.84564 0.0
H2041 H 0.47823 0.34797 0.85014 0.0
H2042 H 0.47464 0.34042 0.80654 0.0
H2043 H 0.47494 0.32753 0.78785 0.0
H2044 H 0.51267 0.31743 0.79472 0.0
H2045 H 0.51257 0.33009 0.81351 0.0
C2046 C 0.52799 0.37398 0.85557 0.0
C2047 C 0.53679 0.3645 0.85656 0.0
C2048 C 0.51824 0.37278 0.84729 0.0
C2049 C 0.5173 0.36204 0.84014 0.0
C2050 C 0.52739 0.35387 0.83952 0.0
C2051 C 0.53705 0.35504 0.8478 0.0
C2052 C 0.50505 0.35729 0.83665 0.0
C2053 C 0.50354 0.35177 0.82505 0.0
C2054 C 0.49573 0.35581 0.84577 0.0
C2055 C 0.49795 0.35764 0.85914 0.0
C2056 C 0.50663 0.35008 0.86525 0.0
C2057 C 0.50727 0.35003 0.87813 0.0
C2058 C 0.49916 0.35735 0.88501 0.0
C2059 C 0.49071 0.36511 0.87904 0.0
C2060 C 0.49006 0.36524 0.86614 0.0
C2061 C 0.47371 0.31111 0.84018 0.0
C2062 C 0.46197 0.31391 0.84504 0.0
C2063 C 0.4805 0.32022 0.83403 0.0
C2064 C 0.47557 0.33216 0.83252 0.0
C2065 C 0.46323 0.33441 0.83593 0.0
C2066 C 0.45654 0.32541 0.84229 0.0
C2067 C 0.4842 0.34267 0.83194 0.0
C2068 C 0.48502 0.34946 0.84286 0.0
C2069 C 0.49353 0.34389 0.8228 0.0
C2070 C 0.49359 0.33628 0.81144 0.0
C2071 C 0.48298 0.33541 0.8041 0.0
C2072 C 0.48313 0.32815 0.79347 0.0
C2073 C 0.49382 0.32168 0.79009 0.0
C2074 C 0.5044 0.32247 0.79732 0.0
C2075 C 0.50431 0.32972 0.80794 0.0
H2076 H 0.49391 0.31606 0.78187 0.0
H2077 H 0.49935 0.3569 0.89498 0.0
H2078 H 0.9134 0.20869 0.18931 0.0
H2079 H 0.92335 0.20623 0.16911 0.0
H2080 H 0.89311 0.22573 0.1519 0.0
H2081 H 0.88333 0.22864 0.17232 0.0
H2082 H 0.91219 0.19667 0.14461 0.0
H2083 H 0.90582 0.24389 0.14807 0.0
H2084 H 0.90813 0.26233 0.1611 0.0
H2085 H 0.94585 0.25239 0.16823 0.0
H2086 H 0.94361 0.23366 0.15566 0.0
H2087 H 0.95221 0.19249 0.09534 0.0
H2088 H 0.93346 0.20065 0.10518 0.0
H2089 H 0.95604 0.22313 0.12876 0.0
H2090 H 0.97435 0.21623 0.11785 0.0
H2091 H 0.93655 0.23266 0.13023 0.0
H2092 H 0.94746 0.18985 0.13398 0.0
H2093 H 0.95149 0.16844 0.12736 0.0
H2094 H 0.9143 0.16572 0.11423 0.0
H2095 H 0.91011 0.18719 0.12063 0.0
C2096 C 0.90869 0.21207 0.18114 0.0
C2097 C 0.89757 0.21869 0.18224 0.0
C2098 C 0.91443 0.21079 0.16966 0.0
C2099 C 0.90908 0.21605 0.1591 0.0
C2100 C 0.89747 0.22183 0.16002 0.0
C2101 C 0.89179 0.22328 0.17159 0.0
C2102 C 0.91608 0.21586 0.14734 0.0
C2103 C 0.91728 0.20459 0.14118 0.0
C2104 C 0.92332 0.226 0.14348 0.0
C2105 C 0.92446 0.23726 0.1511 0.0
C2106 C 0.91452 0.24551 0.15262 0.0
C2107 C 0.91583 0.25603 0.1599 0.0
C2108 C 0.9271 0.25849 0.16556 0.0
C2109 C 0.9371 0.25045 0.16392 0.0
C2110 C 0.93579 0.23986 0.15676 0.0
C2111 C 0.953 0.19984 0.10202 0.0
C2112 C 0.96467 0.20376 0.10587 0.0
C2113 C 0.94232 0.20427 0.10789 0.0
C2114 C 0.94328 0.21198 0.11825 0.0
C2115 C 0.95487 0.21708 0.12094 0.0
C2116 C 0.96543 0.21319 0.11461 0.0
C2117 C 0.93293 0.21332 0.12736 0.0
C2118 C 0.93114 0.22477 0.13318 0.0
C2119 C 0.92598 0.20301 0.13164 0.0
C2120 C 0.92853 0.19019 0.12758 0.0
C2121 C 0.94018 0.18472 0.12958 0.0
C2122 C 0.94249 0.17258 0.12588 0.0
C2123 C 0.93318 0.16575 0.12032 0.0
C2124 C 0.92152 0.17104 0.11848 0.0
C2125 C 0.91918 0.1832 0.12213 0.0
H2126 H 0.93498 0.15634 0.11748 0.0
H2127 H 0.9281 0.26666 0.17115 0.0
H2128 H 0.25854 0.04731 0.15072 0.0
H2129 H 0.2637 0.05668 0.16966 0.0
H2130 H 0.298 0.03577 0.17033 0.0
H2131 H 0.29006 0.02322 0.15356 0.0
H2132 H 0.29209 0.03233 0.18938 0.0
H2133 H 0.28813 0.07523 0.17419 0.0
H2134 H 0.2779 0.09197 0.16238 0.0
H2135 H 0.24413 0.08571 0.18238 0.0
H2136 H 0.25411 0.06901 0.19428 0.0
H2137 H 0.28352 0.037 0.25308 0.0
H2138 H 0.29333 0.04514 0.23414 0.0
H2139 H 0.25727 0.05379 0.21951 0.0
H2140 H 0.24776 0.04659 0.2385 0.0
H2141 H 0.27235 0.06832 0.20936 0.0
H2142 H 0.27553 0.02359 0.22113 0.0
H2143 H 0.28542 0.0066 0.23279 0.0
H2144 H 0.32059 0.01578 0.21713 0.0
H2145 H 0.31124 0.03358 0.20629 0.0
C2146 C 0.26728 0.04482 0.15491 0.0
C2147 C 0.27343 0.03407 0.15125 0.0
C2148 C 0.27056 0.05058 0.16584 0.0
C2149 C 0.2813 0.04699 0.17228 0.0
C2150 C 0.28919 0.03831 0.16638 0.0
C2151 C 0.28495 0.03136 0.15641 0.0
C2152 C 0.28285 0.04985 0.18587 0.0
C2153 C 0.28813 0.04057 0.19344 0.0
C2154 C 0.27762 0.06036 0.19189 0.0
C2155 C 0.27193 0.07093 0.18518 0.0
C2156 C 0.27857 0.0775 0.17612 0.0
C2157 C 0.27279 0.08696 0.1694 0.0
C2158 C 0.26039 0.08991 0.17164 0.0
C2159 C 0.25375 0.08347 0.18068 0.0
C2160 C 0.25948 0.07407 0.18748 0.0
C2161 C 0.27782 0.0413 0.24606 0.0
C2162 C 0.2649 0.04106 0.24712 0.0
C2163 C 0.2834 0.04577 0.23515 0.0
C2164 C 0.27604 0.04961 0.22512 0.0
C2165 C 0.26324 0.05076 0.22695 0.0
C2166 C 0.25775 0.0466 0.23784 0.0
C2167 C 0.28089 0.0506 0.2122 0.0
C2168 C 0.27686 0.06056 0.20488 0.0
C2169 C 0.28726 0.04076 0.20636 0.0
C2170 C 0.29273 0.03014 0.21316 0.0
C2171 C 0.28541 0.02213 0.22033 0.0
C2172 C 0.2909 0.01233 0.22677 0.0
C2173 C 0.30354 0.01 0.22559 0.0
C2174 C 0.3108 0.01761 0.2181 0.0
C2175 C 0.30545 0.02768 0.21196 0.0
H2176 H 0.3077 0.00231 0.2305 0.0
H2177 H 0.25592 0.09717 0.16636 0.0
H2178 H 0.29952 0.01997 0.50483 0.0
H2179 H 0.30561 0.02236 0.48318 0.0
H2180 H 0.34357 0.02663 0.49413 0.0
H2181 H 0.33734 0.0251 0.51581 0.0
H2182 H 0.34058 0.03971 0.47499 0.0
H2183 H 0.33079 0.99853 0.48572 0.0
H2184 H 0.32054 0.9791 0.49133 0.0
H2185 H 0.29454 0.98437 0.46204 0.0
H2186 H 0.3044 0.00411 0.45642 0.0
H2187 H 0.3717 0.00157 0.43188 0.0
H2188 H 0.36318 0.01578 0.44713 0.0
H2189 H 0.3291 0.01768 0.4268 0.0
H2190 H 0.33762 0.00326 0.41166 0.0
H2191 H 0.32744 0.00523 0.44843 0.0
H2192 H 0.34364 0.0445 0.43574 0.0
H2193 H 0.36037 0.05821 0.42861 0.0
H2194 H 0.38033 0.05101 0.46204 0.0
H2195 H 0.36381 0.03715 0.46931 0.0
C2196 C 0.3091 0.02181 0.50263 0.0
C2197 C 0.31804 0.02202 0.51197 0.0
C2198 C 0.3126 0.02302 0.49023 0.0
C2199 C 0.3251 0.02432 0.48696 0.0
C2200 C 0.33388 0.02551 0.49637 0.0
C2201 C 0.33035 0.02447 0.50876 0.0
C2202 C 0.3292 0.02349 0.47385 0.0
C2203 C 0.33766 0.03218 0.46917 0.0
C2204 C 0.32539 0.01371 0.46617 0.0
C2205 C 0.31824 0.00293 0.47076 0.0
C2206 C 0.32267 0.99576 0.48069 0.0
C2207 C 0.31699 0.98462 0.48381 0.0
C2208 C 0.30698 0.98045 0.47698 0.0
C2209 C 0.30232 0.98762 0.4673 0.0
C2210 C 0.3079 0.99882 0.46419 0.0
C2211 C 0.36271 0.00571 0.43025 0.0
C2212 C 0.35529 0.00144 0.42065 0.0
C2213 C 0.35782 0.01383 0.43898 0.0
C2214 C 0.34545 0.01773 0.43816 0.0
C2215 C 0.33867 0.01482 0.42757 0.0
C2216 C 0.34355 0.00665 0.41888 0.0
C2217 C 0.33883 0.02134 0.44961 0.0
C2218 C 0.32992 0.01308 0.45406 0.0
C2219 C 0.34273 0.03108 0.45722 0.0
C2220 C 0.35246 0.03978 0.45307 0.0
C2221 C 0.3516 0.04583 0.44157 0.0
C2222 C 0.36106 0.05362 0.4375 0.0
C2223 C 0.3714 0.05548 0.44487 0.0
C2224 C 0.3723 0.04959 0.45635 0.0
C2225 C 0.36287 0.04179 0.46047 0.0
H2226 H 0.37873 0.06148 0.44168 0.0
H2227 H 0.30297 0.97157 0.47907 0.0
H2228 H 0.36338 0.09756 0.6505 0.0
H2229 H 0.34215 0.10232 0.65676 0.0
H2230 H 0.35542 0.1314 0.68008 0.0
H2231 H 0.37664 0.12623 0.67432 0.0
H2232 H 0.34741 0.10963 0.69202 0.0
H2233 H 0.33295 0.13706 0.6583 0.0
H2234 H 0.32896 0.1405 0.63612 0.0
H2235 H 0.30495 0.10913 0.63577 0.0
H2236 H 0.30886 0.10546 0.6579 0.0
H2237 H 0.30307 0.13732 0.72591 0.0
H2238 H 0.30961 0.13553 0.70441 0.0
H2239 H 0.30292 0.09638 0.70583 0.0
H2240 H 0.29641 0.09816 0.72747 0.0
H2241 H 0.30484 0.12014 0.67875 0.0
H2242 H 0.32627 0.08723 0.70548 0.0
H2243 H 0.33168 0.07895 0.72606 0.0
H2244 H 0.34273 0.11515 0.73743 0.0
H2245 H 0.33729 0.12358 0.71695 0.0
C2246 C 0.36168 0.10545 0.65638 0.0
C2247 C 0.37155 0.11148 0.66207 0.0
C2248 C 0.34953 0.10817 0.65993 0.0
C2249 C 0.34724 0.1171 0.66899 0.0
C2250 C 0.35702 0.12446 0.67308 0.0
C2251 C 0.36914 0.12153 0.6698 0.0
C2252 C 0.33614 0.11613 0.67694 0.0
C2253 C 0.33814 0.11203 0.68905 0.0
C2254 C 0.32394 0.11835 0.67288 0.0
C2255 C 0.32121 0.12098 0.65974 0.0
C2256 C 0.32683 0.13089 0.65348 0.0
C2257 C 0.32458 0.13288 0.64092 0.0
C2258 C 0.31672 0.12503 0.63454 0.0
C2259 C 0.31103 0.11522 0.64072 0.0
C2260 C 0.31322 0.11321 0.65328 0.0
C2261 C 0.3022 0.12848 0.72138 0.0
C2262 C 0.29923 0.11788 0.72826 0.0
C2263 C 0.3059 0.12747 0.70906 0.0
C2264 C 0.30684 0.11582 0.70356 0.0
C2265 C 0.30216 0.10547 0.70989 0.0
C2266 C 0.29842 0.10648 0.72225 0.0
C2267 C 0.31636 0.11419 0.69385 0.0
C2268 C 0.31414 0.11771 0.68154 0.0
C2269 C 0.32842 0.11081 0.6974 0.0
C2270 C 0.33125 0.10601 0.70984 0.0
C2271 C 0.32977 0.0934 0.71244 0.0
C2272 C 0.33286 0.08868 0.72405 0.0
C2273 C 0.33752 0.0965 0.73304 0.0
C2274 C 0.3391 0.10908 0.73048 0.0
C2275 C 0.33598 0.11384 0.71888 0.0
H2276 H 0.33992 0.09274 0.74195 0.0
H2277 H 0.31503 0.12656 0.6248 0.0
H2278 H 0.21832 0.10043 0.96811 0.0
H2279 H 0.2264 0.10695 0.94798 0.0
H2280 H 0.1889 0.11244 0.93543 0.0
H2281 H 0.18137 0.10342 0.95401 0.0
H2282 H 0.198 0.11787 0.91835 0.0
H2283 H 0.21656 0.13983 0.95775 0.0
H2284 H 0.23133 0.14139 0.97486 0.0
H2285 H 0.25903 0.12293 0.95312 0.0
H2286 H 0.24458 0.12194 0.93559 0.0
H2287 H 0.21183 0.18726 0.92724 0.0
H2288 H 0.20896 0.16572 0.93339 0.0
H2289 H 0.2159 0.15423 0.89592 0.0
H2290 H 0.21838 0.17577 0.88959 0.0
H2291 H 0.2283 0.14925 0.93087 0.0
H2292 H 0.20176 0.13701 0.89072 0.0
H2293 H 0.18317 0.14313 0.87898 0.0
H2294 H 0.16333 0.14916 0.91291 0.0
H2295 H 0.18185 0.14326 0.92478 0.0
C2296 C 0.21195 0.10223 0.96064 0.0
C2297 C 0.19918 0.10213 0.9628 0.0
C2298 C 0.21654 0.10663 0.94928 0.0
C2299 C 0.20841 0.11191 0.94052 0.0
C2300 C 0.19575 0.10916 0.94189 0.0
C2301 C 0.19128 0.1039 0.95275 0.0
C2302 C 0.2122 0.12211 0.93171 0.0
C2303 C 0.20462 0.12463 0.92137 0.0
C2304 C 0.2212 0.13114 0.93477 0.0
C2305 C 0.22939 0.1304 0.94558 0.0
C2306 C 0.22573 0.1359 0.95673 0.0
C2307 C 0.23406 0.13677 0.96646 0.0
C2308 C 0.24602 0.13198 0.96522 0.0
C2309 C 0.24972 0.1265 0.95414 0.0
C2310 C 0.24151 0.12588 0.94426 0.0
C2311 C 0.21242 0.18018 0.92024 0.0
C2312 C 0.21538 0.18323 0.90795 0.0
C2313 C 0.21077 0.16788 0.92376 0.0
C2314 C 0.21215 0.15837 0.91509 0.0
C2315 C 0.21451 0.16141 0.9027 0.0
C2316 C 0.216 0.17375 0.89912 0.0
C2317 C 0.21274 0.14539 0.91943 0.0
C2318 C 0.22161 0.14233 0.92825 0.0
C2319 C 0.20417 0.13641 0.91588 0.0
C2320 C 0.19317 0.13983 0.90859 0.0
C2321 C 0.19345 0.13971 0.89564 0.0
C2322 C 0.18293 0.14314 0.88897 0.0
C2323 C 0.17209 0.14656 0.89519 0.0
C2324 C 0.17173 0.14655 0.90809 0.0
C2325 C 0.18223 0.1432 0.91478 0.0
H2326 H 0.16396 0.1492 0.89002 0.0
H2327 H 0.25245 0.13267 0.97278 0.0
H2328 H 0.15249 0.25782 0.0436 0.0
H2329 H 0.17117 0.26455 0.05248 0.0
H2330 H 0.16873 0.2986 0.03121 0.0
H2331 H 0.15212 0.28935 0.01929 0.0
H2332 H 0.18843 0.29518 0.02857 0.0
H2333 H 0.17352 0.29057 0.07014 0.0
H2334 H 0.16209 0.28114 0.08759 0.0
H2335 H 0.18353 0.24787 0.08399 0.0
H2336 H 0.19501 0.257 0.06656 0.0
H2337 H 0.25196 0.28304 0.03055 0.0
H2338 H 0.23448 0.29347 0.04089 0.0
H2339 H 0.21585 0.25849 0.04436 0.0
H2340 H 0.23313 0.2482 0.03442 0.0
H2341 H 0.20945 0.27396 0.06317 0.0
H2342 H 0.21831 0.27856 0.01729 0.0
H2343 H 0.23036 0.28893 0.00082 0.0
H2344 H 0.21898 0.32431 0.01445 0.0
H2345 H 0.20761 0.31423 0.03153 0.0
C2346 C 0.15607 0.26674 0.0408 0.0
C2347 C 0.15149 0.27264 0.03027 0.0
C2348 C 0.16671 0.271 0.04637 0.0
C2349 C 0.17209 0.28228 0.04271 0.0
C2350 C 0.16555 0.28952 0.0339 0.0
C2351 C 0.15573 0.28446 0.02726 0.0
C2352 C 0.18544 0.28498 0.0457 0.0
C2353 C 0.19269 0.29082 0.0365 0.0
C2354 C 0.19173 0.27981 0.05611 0.0
C2355 C 0.18523 0.27458 0.06709 0.0
C2356 C 0.17585 0.28129 0.07313 0.0
C2357 C 0.16934 0.27596 0.083 0.0
C2358 C 0.1721 0.26394 0.08691 0.0
C2359 C 0.18144 0.25722 0.08102 0.0
C2360 C 0.18802 0.26249 0.0712 0.0
C2361 C 0.2443 0.27758 0.03396 0.0
C2362 C 0.24369 0.26489 0.0314 0.0
C2363 C 0.23434 0.28353 0.03986 0.0
C2364 C 0.22372 0.27681 0.04313 0.0
C2365 C 0.22386 0.26392 0.04185 0.0
C2366 C 0.23371 0.25804 0.03602 0.0
C2367 C 0.21158 0.2828 0.04554 0.0
C2368 C 0.20469 0.27878 0.05578 0.0
C2369 C 0.20559 0.2898 0.03628 0.0
C2370 C 0.21234 0.29566 0.02584 0.0
C2371 C 0.21849 0.28855 0.01686 0.0
C2372 C 0.2252 0.29437 0.00742 0.0
C2373 C 0.22536 0.30724 0.00654 0.0
C2374 C 0.2189 0.31434 0.01517 0.0
C2375 C 0.21244 0.30859 0.02481 0.0
H2376 H 0.2305 0.3117 0.99917 0.0
H2377 H 0.16699 0.25982 0.09449 0.0
H2378 H 0.65622 0.3729 0.11544 0.0
H2379 H 0.66122 0.35157 0.12161 0.0
H2380 H 0.67151 0.34336 0.08392 0.0
H2381 H 0.66605 0.36423 0.07775 0.0
H2382 H 0.66445 0.32372 0.09297 0.0
H2383 H 0.69188 0.35471 0.10507 0.0
H2384 H 0.69983 0.37343 0.11496 0.0
H2385 H 0.69219 0.35782 0.15075 0.0
H2386 H 0.68388 0.3391 0.14104 0.0
H2387 H 0.72303 0.29472 0.09748 0.0
H2388 H 0.70283 0.30343 0.09371 0.0
H2389 H 0.69402 0.30028 0.13256 0.0
H2390 H 0.71492 0.29271 0.13642 0.0
H2391 H 0.69607 0.32324 0.12577 0.0
H2392 H 0.6754 0.288 0.10536 0.0
H2393 H 0.67629 0.27185 0.08939 0.0
H2394 H 0.68174 0.2995 0.06131 0.0
H2395 H 0.68099 0.31577 0.07705 0.0
C2396 C 0.6591 0.36636 0.10845 0.0
C2397 C 0.66106 0.37021 0.0962 0.0
C2398 C 0.66204 0.35422 0.11198 0.0
C2399 C 0.66706 0.34594 0.10329 0.0
C2400 C 0.66773 0.34953 0.09083 0.0
C2401 C 0.66471 0.36152 0.08733 0.0
C2402 C 0.67325 0.33428 0.10717 0.0
C2403 C 0.67125 0.32354 0.10028 0.0
C2404 C 0.68245 0.33414 0.1164 0.0
C2405 C 0.68696 0.3456 0.12232 0.0
C2406 C 0.69168 0.35535 0.11504 0.0
C2407 C 0.6963 0.36595 0.12062 0.0
C2408 C 0.69645 0.36684 0.13348 0.0
C2409 C 0.69199 0.35714 0.14078 0.0
C2410 C 0.68728 0.34655 0.13525 0.0
C2411 C 0.71647 0.29502 0.10509 0.0
C2412 C 0.72053 0.29327 0.11724 0.0
C2413 C 0.70481 0.30008 0.10293 0.0
C2414 C 0.69683 0.30269 0.11288 0.0
C2415 C 0.70004 0.29846 0.12475 0.0
C2416 C 0.71193 0.29391 0.12695 0.0
C2417 C 0.68734 0.31259 0.11156 0.0
C2418 C 0.68881 0.32313 0.11891 0.0
C2419 C 0.67861 0.31293 0.10188 0.0
C2420 C 0.67804 0.30311 0.09241 0.0
C2421 C 0.6767 0.29064 0.09578 0.0
C2422 C 0.67722 0.28146 0.08675 0.0
C2423 C 0.67905 0.28465 0.07435 0.0
C2424 C 0.68027 0.29703 0.07091 0.0
C2425 C 0.67973 0.30623 0.07987 0.0
H2426 H 0.67954 0.27753 0.0674 0.0
H2427 H 0.70008 0.37503 0.13778 0.0
H2428 H -0.00029 0.41165 0.33206 0.0
H2429 H 0.01624 0.42507 0.3253 0.0
H2430 H 0.02448 0.43324 0.3633 0.0
H2431 H 0.00718 0.42037 0.37002 0.0
H2432 H 0.01063 0.45051 0.35148 0.0
H2433 H 0.04791 0.42701 0.33951 0.0
H2434 H 0.05731 0.40966 0.32807 0.0
H2435 H 0.04253 0.42398 0.29415 0.0
H2436 H 0.03299 0.44135 0.30536 0.0
H2437 H 0.0271 0.50852 0.34015 0.0
H2438 H 0.03227 0.48712 0.34516 0.0
H2439 H 0.02516 0.4767 0.30752 0.0
H2440 H 0.02022 0.49826 0.30241 0.0
H2441 H 0.04133 0.46005 0.3187 0.0
H2442 H 0.00223 0.47525 0.32365 0.0
H2443 H 0.98319 0.48679 0.32855 0.0
H2444 H 0.99079 0.48341 0.36727 0.0
H2445 H 0.01007 0.47203 0.3626 0.0
C2446 C 0.00531 0.416 0.33897 0.0
C2447 C 0.00182 0.41565 0.35146 0.0
C2448 C 0.01504 0.42343 0.33511 0.0
C2449 C 0.02138 0.43048 0.34378 0.0
C2450 C 0.01957 0.42797 0.35645 0.0
C2451 C 0.00963 0.42071 0.36031 0.0
C2452 C 0.02517 0.44306 0.34001 0.0
C2453 C 0.01782 0.45264 0.34478 0.0
C2454 C 0.03338 0.4456 0.33008 0.0
C2455 C 0.03979 0.43553 0.32329 0.0
C2456 C 0.0467 0.42648 0.32961 0.0
C2457 C 0.05204 0.41663 0.32316 0.0
C2458 C 0.05053 0.41573 0.31039 0.0
C2459 C 0.04374 0.42471 0.30403 0.0
C2460 C 0.03842 0.4346 0.31042 0.0
C2461 C 0.02722 0.50177 0.33283 0.0
C2462 C 0.02315 0.50493 0.32097 0.0
C2463 C 0.03017 0.48956 0.33568 0.0
C2464 C 0.02883 0.48033 0.32676 0.0
C2465 C 0.02627 0.4837 0.31451 0.0
C2466 C 0.02346 0.49601 0.3116 0.0
C2467 C 0.02738 0.46741 0.33094 0.0
C2468 C 0.03475 0.45791 0.32598 0.0
C2469 C 0.01826 0.46453 0.33986 0.0
C2470 C 0.00775 0.47297 0.34276 0.0
C2471 C 6e-05 0.47727 0.3332 0.0
C2472 C 0.98915 0.48368 0.33594 0.0
C2473 C 0.98575 0.48574 0.34821 0.0
C2474 C 0.99343 0.48175 0.35777 0.0
C2475 C 0.00438 0.47537 0.35508 0.0
H2476 H 0.97711 0.49038 0.35031 0.0
H2477 H 0.05461 0.40806 0.30543 0.0
H2478 H 0.87308 0.75626 0.53429 0.0
H2479 H 0.85249 0.75923 0.52719 0.0
H2480 H 0.84731 0.78867 0.55367 0.0
H2481 H 0.86688 0.7826 0.56321 0.0
H2482 H 0.82973 0.7783 0.55642 0.0
H2483 H 0.84424 0.78667 0.5134 0.0
H2484 H 0.85661 0.78199 0.49471 0.0
H2485 H 0.84179 0.74534 0.49399 0.0
H2486 H 0.82937 0.74978 0.51258 0.0
H2487 H 0.76867 0.76053 0.55054 0.0
H2488 H 0.78501 0.7753 0.54519 0.0
H2489 H 0.80459 0.74643 0.52568 0.0
H2490 H 0.78803 0.73226 0.53015 0.0
H2491 H 0.81188 0.76573 0.5166 0.0
H2492 H 0.80414 0.75436 0.56133 0.0
H2493 H 0.79257 0.75644 0.58106 0.0
H2494 H 0.79584 0.79581 0.57892 0.0
H2495 H 0.80716 0.79402 0.55915 0.0
C2496 C 0.86748 0.76339 0.53857 0.0
C2497 C 0.87125 0.76872 0.54963 0.0
C2498 C 0.85562 0.7655 0.53413 0.0
C2499 C 0.84775 0.77429 0.53969 0.0
C2500 C 0.85272 0.78142 0.54938 0.0
C2501 C 0.86411 0.77825 0.5547 0.0
C2502 C 0.83401 0.77432 0.53726 0.0
C2503 C 0.82602 0.77594 0.54749 0.0
C2504 C 0.82859 0.77098 0.52579 0.0
C2505 C 0.83583 0.76861 0.51435 0.0
C2506 C 0.84359 0.77765 0.50921 0.0
C2507 C 0.85062 0.77502 0.49864 0.0
C2508 C 0.84997 0.76339 0.49316 0.0
C2509 C 0.84225 0.75437 0.49819 0.0
C2510 C 0.83517 0.75696 0.50869 0.0
C2511 C 0.77614 0.75764 0.54449 0.0
C2512 C 0.77724 0.74524 0.5409 0.0
C2513 C 0.78563 0.766 0.54165 0.0
C2514 C 0.79642 0.76188 0.53555 0.0
C2515 C 0.79655 0.74994 0.53055 0.0
C2516 C 0.78702 0.74176 0.53311 0.0
C2517 C 0.80832 0.76877 0.53587 0.0
C2518 C 0.81585 0.76865 0.52527 0.0
C2519 C 0.81342 0.77311 0.54702 0.0
C2520 C 0.80627 0.77406 0.55868 0.0
C2521 C 0.80227 0.76344 0.56504 0.0
C2522 C 0.79578 0.76457 0.57621 0.0
C2523 C 0.79346 0.77622 0.58119 0.0
C2524 C 0.79759 0.78679 0.57502 0.0
C2525 C 0.80399 0.78574 0.56382 0.0
H2526 H 0.78849 0.77705 0.58985 0.0
H2527 H 0.85547 0.76137 0.48503 0.0
H2528 H 0.09845 0.96287 0.18834 0.0
H2529 H 0.10599 0.94293 0.19598 0.0
H2530 H 0.13076 0.96162 0.2205 0.0
H2531 H 0.12306 0.9815 0.21307 0.0
H2532 H 0.12967 0.94054 0.18936 0.0
H2533 H 0.14342 0.94257 0.24039 0.0
H2534 H 0.13417 0.94866 0.26034 0.0
H2535 H 0.09814 0.93965 0.24697 0.0
H2536 H 0.10717 0.93352 0.22694 0.0
H2537 H 0.18954 0.9219 0.20425 0.0
H2538 H 0.16944 0.93201 0.20265 0.0
H2539 H 0.15159 0.89846 0.21459 0.0
H2540 H 0.17188 0.88818 0.21622 0.0
H2541 H 0.14478 0.92161 0.22813 0.0
H2542 H 0.14756 0.90581 0.18601 0.0
H2543 H 0.1587 0.90253 0.16633 0.0
H2544 H 0.16299 0.94169 0.16181 0.0
H2545 H 0.15196 0.94515 0.18151 0.0
C2546 C 0.10495 0.96269 0.1959 0.0
C2547 C 0.11038 0.97367 0.19994 0.0
C2548 C 0.10928 0.95129 0.20025 0.0
C2549 C 0.11909 0.95075 0.20867 0.0
C2550 C 0.12314 0.96175 0.21407 0.0
C2551 C 0.11874 0.97316 0.20979 0.0
C2552 C 0.12726 0.93968 0.20899 0.0
C2553 C 0.13269 0.93614 0.19776 0.0
C2554 C 0.13143 0.93415 0.22007 0.0
C2555 C 0.12597 0.93757 0.23217 0.0
C2556 C 0.13353 0.9418 0.24174 0.0
C2557 C 0.12833 0.94531 0.25304 0.0
C2558 C 0.11558 0.94453 0.25492 0.0
C2559 C 0.10801 0.94027 0.24549 0.0
C2560 C 0.11316 0.93682 0.23415 0.0
C2561 C 0.18132 0.91657 0.20624 0.0
C2562 C 0.18223 0.90424 0.21027 0.0
C2563 C 0.16986 0.92237 0.2054 0.0
C2564 C 0.15907 0.91599 0.20858 0.0
C2565 C 0.15985 0.90352 0.21215 0.0
C2566 C 0.17139 0.89763 0.21289 0.0
C2567 C 0.14713 0.92267 0.20837 0.0
C2568 C 0.14125 0.92556 0.21961 0.0
C2569 C 0.14266 0.92789 0.19728 0.0
C2570 C 0.14895 0.92574 0.18523 0.0
C2571 C 0.1509 0.91371 0.18083 0.0
C2572 C 0.15719 0.91182 0.16967 0.0
C2573 C 0.16156 0.92189 0.16283 0.0
C2574 C 0.15962 0.93389 0.16711 0.0
C2575 C 0.15333 0.93582 0.17825 0.0
H2576 H 0.16644 0.92041 0.1542 0.0
H2577 H 0.11157 0.94724 0.26368 0.0
H2578 H 0.37662 0.83731 0.54885 0.0
H2579 H 0.36135 0.82317 0.54072 0.0
H2580 H 0.37096 0.83505 0.50374 0.0
H2581 H 0.38668 0.8482 0.51186 0.0
H2582 H 0.34432 0.83694 0.53269 0.0
H2583 H 0.3561 0.82484 0.48197 0.0
H2584 H 0.37312 0.81468 0.4707 0.0
H2585 H 0.381 0.79211 0.50246 0.0
H2586 H 0.36393 0.80205 0.51393 0.0
H2587 H 0.31391 0.86563 0.48606 0.0
H2588 H 0.32643 0.85555 0.5016 0.0
H2589 H 0.31089 0.8203 0.49208 0.0
H2590 H 0.2985 0.83051 0.47591 0.0
H2591 H 0.33567 0.81986 0.49136 0.0
H2592 H 0.30629 0.83271 0.52242 0.0
H2593 H 0.29177 0.84793 0.53132 0.0
H2594 H 0.32143 0.87341 0.53629 0.0
H2595 H 0.33618 0.85833 0.52764 0.0
C2596 C 0.37625 0.83595 0.53895 0.0
C2597 C 0.38243 0.84408 0.53092 0.0
C2598 C 0.36735 0.82799 0.53429 0.0
C2599 C 0.3646 0.82831 0.52162 0.0
C2600 C 0.37278 0.83444 0.51353 0.0
C2601 C 0.38192 0.84205 0.5182 0.0
C2602 C 0.3517 0.82626 0.51751 0.0
C2603 C 0.34235 0.83279 0.52385 0.0
C2604 C 0.34901 0.82092 0.50595 0.0
C2605 C 0.35862 0.81413 0.49879 0.0
C2606 C 0.36128 0.81754 0.48649 0.0
C2607 C 0.37102 0.81188 0.48009 0.0
C2608 C 0.37813 0.80274 0.48585 0.0
C2609 C 0.37548 0.79919 0.49801 0.0
C2610 C 0.36577 0.80483 0.50447 0.0
C2611 C 0.31288 0.85577 0.4875 0.0
C2612 C 0.30531 0.84882 0.4798 0.0
C2613 C 0.31996 0.85001 0.4965 0.0
C2614 C 0.31945 0.83717 0.49821 0.0
C2615 C 0.3113 0.83024 0.49101 0.0
C2616 C 0.30418 0.83606 0.48187 0.0
C2617 C 0.32882 0.83118 0.5062 0.0
C2618 C 0.33745 0.82324 0.50057 0.0
C2619 C 0.33105 0.83557 0.51825 0.0
C2620 C 0.32237 0.84429 0.52446 0.0
C2621 C 0.30975 0.8415 0.52555 0.0
C2622 C 0.30148 0.85011 0.53056 0.0
C2623 C 0.3057 0.86159 0.53447 0.0
C2624 C 0.31822 0.86445 0.53345 0.0
C2625 C 0.32655 0.85583 0.52858 0.0
H2626 H 0.29927 0.8683 0.53822 0.0
H2627 H 0.3857 0.79842 0.4809 0.0
H2628 H 0.64167 0.63285 0.86257 0.0
H2629 H 0.62236 0.62143 0.86356 0.0
H2630 H 0.60327 0.6521 0.84651 0.0
H2631 H 0.62278 0.66366 0.8454 0.0
H2632 H 0.59569 0.62953 0.87271 0.0
H2633 H 0.6005 0.64053 0.82626 0.0
H2634 H 0.61596 0.64292 0.80952 0.0
H2635 H 0.63144 0.6074 0.8185 0.0
H2636 H 0.61616 0.60489 0.83534 0.0
H2637 H 0.56654 0.57429 0.87449 0.0
H2638 H 0.56561 0.59602 0.86838 0.0
H2639 H 0.59014 0.58768 0.83775 0.0
H2640 H 0.58797 0.56625 0.84196 0.0
H2641 H 0.58845 0.60707 0.83384 0.0
H2642 H 0.59409 0.59561 0.87981 0.0
H2643 H 0.58642 0.59116 0.90095 0.0
H2644 H 0.56064 0.62118 0.89833 0.0
H2645 H 0.56797 0.62578 0.87716 0.0
C2646 C 0.63329 0.63731 0.85935 0.0
C2647 C 0.63369 0.6491 0.85389 0.0
C2648 C 0.62228 0.63078 0.85991 0.0
C2649 C 0.61147 0.63587 0.85495 0.0
C2650 C 0.61158 0.64801 0.85031 0.0
C2651 C 0.62267 0.65464 0.84979 0.0
C2652 C 0.60061 0.62778 0.85364 0.0
C2653 C 0.59393 0.62458 0.86423 0.0
C2654 C 0.59863 0.62122 0.84266 0.0
C2655 C 0.60719 0.62253 0.832 0.0
C2656 C 0.60718 0.63324 0.82462 0.0
C2657 C 0.61593 0.63462 0.81514 0.0
C2658 C 0.62467 0.62532 0.81295 0.0
C2659 C 0.62465 0.61459 0.82018 0.0
C2660 C 0.61594 0.61317 0.82967 0.0
C2661 C 0.57081 0.57713 0.86586 0.0
C2662 C 0.57784 0.56866 0.85897 0.0
C2663 C 0.57095 0.58975 0.86274 0.0
C2664 C 0.57918 0.59414 0.85355 0.0
C2665 C 0.58403 0.58524 0.84528 0.0
C2666 C 0.58268 0.57263 0.84762 0.0
C2667 C 0.58444 0.60711 0.85355 0.0
C2668 C 0.58997 0.61165 0.84254 0.0
C2669 C 0.58624 0.61418 0.86451 0.0
C2670 C 0.58134 0.61082 0.87683 0.0
C2671 C 0.58668 0.60115 0.88371 0.0
C2672 C 0.58243 0.59862 0.89567 0.0
C2673 C 0.57304 0.60579 0.90093 0.0
C2674 C 0.56784 0.61555 0.89422 0.0
C2675 C 0.57199 0.6181 0.88222 0.0
H2676 H 0.56984 0.60382 0.91022 0.0
H2677 H 0.63145 0.62643 0.80565 0.0
H2678 H 0.78392 0.56914 0.86767 0.0
H2679 H 0.79023 0.56593 0.84611 0.0
H2680 H 0.77562 0.52897 0.84782 0.0
H2681 H 0.77006 0.53196 0.86935 0.0
H2682 H 0.79004 0.53032 0.8285 0.0
H2683 H 0.75705 0.55534 0.84652 0.0
H2684 H 0.75032 0.57261 0.85964 0.0
H2685 H 0.76797 0.59834 0.83496 0.0
H2686 H 0.77553 0.58107 0.82213 0.0
H2687 H 0.73268 0.53393 0.79424 0.0
H2688 H 0.75005 0.53114 0.80834 0.0
H2689 H 0.77314 0.55274 0.78399 0.0
H2690 H 0.75597 0.55501 0.76954 0.0
H2691 H 0.76152 0.56159 0.81064 0.0
H2692 H 0.78872 0.53413 0.78924 0.0
H2693 H 0.79422 0.51534 0.77767 0.0
H2694 H 0.78318 0.49285 0.80858 0.0
H2695 H 0.77749 0.51151 0.8203 0.0
C2696 C 0.78287 0.56008 0.86364 0.0
C2697 C 0.77634 0.55085 0.86997 0.0
C2698 C 0.78641 0.55825 0.8513 0.0
C2699 C 0.78285 0.54741 0.84517 0.0
C2700 C 0.77829 0.53749 0.85221 0.0
C2701 C 0.77504 0.53922 0.86455 0.0
C2702 C 0.78035 0.54748 0.83168 0.0
C2703 C 0.78398 0.53726 0.82452 0.0
C2704 C 0.77238 0.55652 0.82639 0.0
C2705 C 0.76714 0.56692 0.83358 0.0
C2706 C 0.75956 0.56468 0.84394 0.0
C2707 C 0.75568 0.57446 0.85137 0.0
C2708 C 0.7588 0.58658 0.84819 0.0
C2709 C 0.76569 0.58894 0.83749 0.0
C2710 C 0.7699 0.57915 0.83021 0.0
C2711 C 0.74166 0.53747 0.79159 0.0
C2712 C 0.74303 0.5447 0.78089 0.0
C2713 C 0.75158 0.53583 0.79959 0.0
C2714 C 0.76286 0.5417 0.79715 0.0
C2715 C 0.76458 0.54796 0.7859 0.0
C2716 C 0.75475 0.54927 0.77768 0.0
C2717 C 0.77094 0.54432 0.80769 0.0
C2718 C 0.76813 0.55499 0.81437 0.0
C2719 C 0.77923 0.5355 0.81259 0.0
C2720 C 0.78261 0.52423 0.80562 0.0
C2721 C 0.78736 0.52518 0.79353 0.0
C2722 C 0.79055 0.51455 0.78696 0.0
C2723 C 0.78903 0.50291 0.79238 0.0
C2724 C 0.78435 0.50187 0.80439 0.0
C2725 C 0.78117 0.51248 0.81102 0.0
H2726 H 0.7915 0.49469 0.78727 0.0
H2727 H 0.75583 0.59416 0.85398 0.0
H2728 H 0.81127 0.40901 0.01128 0.0
H2729 H 0.82339 0.42338 0.02373 0.0
H2730 H 0.79358 0.45 0.02201 0.0
H2731 H 0.78171 0.43582 0.00944 0.0
H2732 H 0.81463 0.46181 0.02466 0.0
H2733 H 0.79307 0.42867 0.04381 0.0
H2734 H 0.78708 0.40692 0.04669 0.0
H2735 H 0.82418 0.39754 0.05702 0.0
H2736 H 0.83046 0.41926 0.054 0.0
H2737 H 0.80195 0.47662 0.08727 0.0
H2738 H 0.80496 0.47419 0.06516 0.0
H2739 H 0.84052 0.45736 0.0717 0.0
H2740 H 0.83758 0.46011 0.09385 0.0
H2741 H 0.82109 0.44101 0.0651 0.0
H2742 H 0.8388 0.47932 0.04966 0.0
H2743 H 0.83932 0.50206 0.04843 0.0
H2744 H 0.80251 0.50268 0.03401 0.0
H2745 H 0.80174 0.47995 0.03521 0.0
C2746 C 0.80763 0.41816 0.01313 0.0
C2747 C 0.79564 0.42141 0.00957 0.0
C2748 C 0.81449 0.42633 0.02025 0.0
C2749 C 0.80926 0.43764 0.024 0.0
C2750 C 0.7978 0.44134 0.01925 0.0
C2751 C 0.791 0.43323 0.01212 0.0
C2752 C 0.8144 0.44446 0.03455 0.0
C2753 C 0.81624 0.45725 0.03347 0.0
C2754 C 0.81609 0.43856 0.04614 0.0
C2755 C 0.81231 0.42555 0.04842 0.0
C2756 C 0.79998 0.42196 0.04661 0.0
C2757 C 0.79653 0.40964 0.04825 0.0
C2758 C 0.80529 0.40083 0.05188 0.0
C2759 C 0.81746 0.40436 0.05406 0.0
C2760 C 0.82097 0.41668 0.0524 0.0
C2761 C 0.81087 0.47343 0.08395 0.0
C2762 C 0.81934 0.46812 0.09219 0.0
C2763 C 0.81253 0.47186 0.07125 0.0
C2764 C 0.82281 0.46524 0.06683 0.0
C2765 C 0.83246 0.46237 0.07495 0.0
C2766 C 0.83084 0.46411 0.08763 0.0
C2767 C 0.82167 0.45835 0.05516 0.0
C2768 C 0.82018 0.44549 0.05614 0.0
C2769 C 0.8196 0.46432 0.04372 0.0
C2770 C 0.82023 0.47794 0.0425 0.0
C2771 C 0.83083 0.48431 0.04622 0.0
C2772 C 0.83116 0.4972 0.04553 0.0
C2773 C 0.82096 0.50381 0.04115 0.0
C2774 C 0.81042 0.49755 0.03737 0.0
C2775 C 0.81005 0.48466 0.03801 0.0
H2776 H 0.82122 0.51379 0.04067 0.0
H2777 H 0.80262 0.39128 0.0531 0.0
H2778 H 0.85191 0.51637 0.37782 0.0
H2779 H 0.83606 0.50658 0.36536 0.0
H2780 H 0.82926 0.54113 0.34653 0.0
H2781 H 0.84465 0.55108 0.3594 0.0
H2782 H 0.80893 0.51615 0.34731 0.0
H2783 H 0.852 0.53307 0.33085 0.0
H2784 H 0.87418 0.53587 0.3352 0.0
H2785 H 0.87593 0.49964 0.3515 0.0
H2786 H 0.85386 0.49656 0.34696 0.0
H2787 H 0.83672 0.47903 0.29088 0.0
H2788 H 0.82546 0.49681 0.29918 0.0
H2789 H 0.82241 0.47833 0.33444 0.0
H2790 H 0.83431 0.46095 0.3265 0.0
H2791 H 0.84312 0.50155 0.32025 0.0
H2792 H 0.79703 0.49528 0.34786 0.0
H2793 H 0.77545 0.48954 0.34374 0.0
H2794 H 0.77979 0.50054 0.30579 0.0
H2795 H 0.80139 0.50628 0.30967 0.0
C2796 C 0.84645 0.52202 0.37158 0.0
C2797 C 0.84965 0.53431 0.36921 0.0
C2798 C 0.83732 0.51647 0.36456 0.0
C2799 C 0.83167 0.52313 0.35495 0.0
C2800 C 0.83351 0.53588 0.35395 0.0
C2801 C 0.8425 0.54148 0.36111 0.0
C2802 C 0.82852 0.51637 0.34373 0.0
C2803 C 0.81631 0.51297 0.34129 0.0
C2804 C 0.83817 0.51258 0.33576 0.0
C2805 C 0.85133 0.51464 0.33865 0.0
C2806 C 0.85714 0.52573 0.33536 0.0
C2807 C 0.86969 0.52734 0.33781 0.0
C2808 C 0.87645 0.51796 0.34365 0.0
C2809 C 0.8707 0.50691 0.34698 0.0
C2810 C 0.8582 0.5052 0.34441 0.0
C2811 C 0.83331 0.47862 0.3003 0.0
C2812 C 0.83681 0.4689 0.30823 0.0
C2813 C 0.82659 0.48865 0.30491 0.0
C2814 C 0.82314 0.48888 0.31742 0.0
C2815 C 0.8249 0.47827 0.32473 0.0
C2816 C 0.83199 0.46848 0.32028 0.0
C2817 C 0.82358 0.50067 0.324 0.0
C2818 C 0.83551 0.50514 0.32578 0.0
C2819 C 0.81373 0.50498 0.33145 0.0
C2820 C 0.80085 0.50117 0.32906 0.0
C2821 C 0.79338 0.49648 0.33865 0.0
C2822 C 0.78115 0.4932 0.33634 0.0
C2823 C 0.77625 0.49467 0.32451 0.0
C2824 C 0.7836 0.49936 0.31494 0.0
C2825 C 0.79586 0.50256 0.31717 0.0
H2826 H 0.76676 0.49219 0.32277 0.0
H2827 H 0.88614 0.51926 0.34561 0.0
H2828 H 0.85316 0.59164 0.56834 0.0
H2829 H 0.84939 0.58531 0.58981 0.0
H2830 H 0.8812 0.60594 0.60123 0.0
H2831 H 0.88479 0.61254 0.58 0.0
H2832 H 0.87396 0.58576 0.61821 0.0
H2833 H 0.85886 0.62309 0.59617 0.0
H2834 H 0.84911 0.63154 0.57738 0.0
H2835 H 0.8167 0.61009 0.58465 0.0
H2836 H 0.82656 0.60091 0.60311 0.0
H2837 H 0.86842 0.64024 0.65205 0.0
H2838 H 0.87217 0.62112 0.64056 0.0
H2839 H 0.83522 0.60903 0.64919 0.0
H2840 H 0.83152 0.62807 0.66072 0.0
H2841 H 0.83997 0.61606 0.62452 0.0
H2842 H 0.85561 0.58884 0.6544 0.0
H2843 H 0.86805 0.58127 0.67186 0.0
H2844 H 0.9012 0.58599 0.65045 0.0
H2845 H 0.88902 0.59384 0.63292 0.0
C2846 C 0.85953 0.59451 0.57541 0.0
C2847 C 0.86891 0.603 0.5727 0.0
C2848 C 0.85752 0.59068 0.5876 0.0
C2849 C 0.86494 0.59529 0.59706 0.0
C2850 C 0.87538 0.60228 0.59404 0.0
C2851 C 0.87724 0.6063 0.58195 0.0
C2852 C 0.85981 0.59677 0.60957 0.0
C2853 C 0.86639 0.59218 0.61975 0.0
C2854 C 0.84984 0.60506 0.61141 0.0
C2855 C 0.84349 0.61121 0.60091 0.0
C2856 C 0.84966 0.62016 0.59374 0.0
C2857 C 0.84414 0.62505 0.58314 0.0
C2858 C 0.83228 0.62141 0.57986 0.0
C2859 C 0.8259 0.61287 0.58719 0.0
C2860 C 0.83149 0.60775 0.59768 0.0
C2861 C 0.86136 0.6332 0.65196 0.0
C2862 C 0.84969 0.63549 0.65709 0.0
C2863 C 0.86352 0.62225 0.64552 0.0
C2864 C 0.85397 0.61367 0.6441 0.0
C2865 C 0.84273 0.61546 0.65034 0.0
C2866 C 0.8406 0.62635 0.6568 0.0
C2867 C 0.85442 0.60544 0.63333 0.0
C2868 C 0.84703 0.60899 0.62331 0.0
C2869 C 0.86385 0.59651 0.63172 0.0
C2870 C 0.87135 0.59199 0.64231 0.0
C2871 C 0.86556 0.5884 0.65343 0.0
C2872 C 0.87257 0.58402 0.66335 0.0
C2873 C 0.8854 0.58315 0.66227 0.0
C2874 C 0.89125 0.58666 0.65127 0.0
C2875 C 0.88429 0.59106 0.64132 0.0
H2876 H 0.89081 0.57974 0.66995 0.0
H2877 H 0.82806 0.62519 0.57161 0.0
H2878 H 0.482 0.09006 0.801 0.0
H2879 H 0.47895 0.06793 0.80392 0.0
H2880 H 0.45541 0.07548 0.83533 0.0
H2881 H 0.46027 0.09721 0.83357 0.0
H2882 H 0.45733 0.05372 0.83622 0.0
H2883 H 0.44112 0.0755 0.79981 0.0
H2884 H 0.44167 0.08836 0.78089 0.0
H2885 H 0.47133 0.06619 0.76646 0.0
H2886 H 0.47056 0.05288 0.7851 0.0
H2887 H 0.40287 0.03015 0.80245 0.0
H2888 H 0.41847 0.04267 0.81269 0.0
H2889 H 0.44547 0.01379 0.80721 0.0
H2890 H 0.4298 0.00103 0.79734 0.0
H2891 H 0.44429 0.04255 0.79398 0.0
H2892 H 0.44727 0.01701 0.83192 0.0
H2893 H 0.43655 0.00708 0.84952 0.0
H2894 H 0.42194 0.04224 0.86073 0.0
H2895 H 0.43249 0.05234 0.84314 0.0
C2896 C 0.47707 0.08688 0.80916 0.0
C2897 C 0.47061 0.09535 0.81657 0.0
C2898 C 0.47487 0.07422 0.81053 0.0
C2899 C 0.46585 0.07009 0.819 0.0
C2900 C 0.46198 0.07831 0.82829 0.0
C2901 C 0.46493 0.09085 0.82738 0.0
C2902 C 0.45886 0.05842 0.81682 0.0
C2903 C 0.45465 0.05127 0.82694 0.0
C2904 C 0.45486 0.05517 0.80479 0.0
C2905 C 0.45606 0.06349 0.79397 0.0
C2906 C 0.44789 0.07353 0.79267 0.0
C2907 C 0.44817 0.08082 0.78198 0.0
C2908 C 0.4567 0.07826 0.7726 0.0
C2909 C 0.46482 0.06824 0.7738 0.0
C2910 C 0.4644 0.06076 0.78437 0.0
C2911 C 0.41199 0.02626 0.80395 0.0
C2912 C 0.41514 0.01464 0.79914 0.0
C2913 C 0.42087 0.03339 0.80981 0.0
C2914 C 0.43307 0.0291 0.81076 0.0
C2915 C 0.43604 0.01715 0.80675 0.0
C2916 C 0.42708 0.00988 0.80114 0.0
C2917 C 0.44297 0.03805 0.81327 0.0
C2918 C 0.44751 0.04475 0.80317 0.0
C2919 C 0.44642 0.04139 0.82531 0.0
C2920 C 0.44067 0.03541 0.83624 0.0
C2921 C 0.44177 0.02261 0.83815 0.0
C2922 C 0.43572 0.01695 0.84812 0.0
C2923 C 0.42857 0.02402 0.85624 0.0
C2924 C 0.42751 0.03678 0.85445 0.0
C2925 C 0.43356 0.04248 0.84451 0.0
H2926 H 0.42385 0.01962 0.86392 0.0
H2927 H 0.45691 0.08394 0.76433 0.0
H2928 H 0.98603 0.2825 0.26362 0.0
H2929 H 0.96355 0.28494 0.26384 0.0
H2930 H 0.96219 0.27067 0.22674 0.0
H2931 H 0.98471 0.27004 0.22598 0.0
H2932 H 0.94716 0.28933 0.22947 0.0
H2933 H 0.9614 0.25687 0.25823 0.0
H2934 H 0.96862 0.24769 0.27749 0.0
H2935 H 0.93832 0.26418 0.29716 0.0
H2936 H 0.9308 0.27371 0.27795 0.0
H2937 H 0.8962 0.25779 0.21322 0.0
H2938 H 0.91388 0.26882 0.21883 0.0
H2939 H 0.9017 0.26889 0.25702 0.0
H2940 H 0.88537 0.2543 0.25146 0.0
H2941 H 0.92224 0.26455 0.25883 0.0
H2942 H 0.90852 0.29791 0.2324 0.0
H2943 H 0.89931 0.30686 0.21353 0.0
H2944 H 0.92814 0.2906 0.1915 0.0
H2945 H 0.93749 0.28154 0.21015 0.0
C2946 C 0.98085 0.27975 0.25558 0.0
C2947 C 0.98697 0.27523 0.24505 0.0
C2948 C 0.96806 0.28122 0.2557 0.0
C2949 C 0.96114 0.27753 0.24551 0.0
C2950 C 0.96732 0.27327 0.23486 0.0
C2951 C 0.98017 0.27247 0.23452 0.0
C2952 C 0.94749 0.27787 0.24573 0.0
C2953 C 0.94163 0.28395 0.2359 0.0
C2954 C 0.94024 0.2716 0.25473 0.0
C2955 C 0.94535 0.26604 0.26637 0.0
C2956 C 0.95609 0.25859 0.26651 0.0
C2957 C 0.96033 0.25331 0.27751 0.0
C2958 C 0.95391 0.25528 0.28854 0.0
C2959 C 0.94328 0.26262 0.28859 0.0
C2960 C 0.93903 0.26798 0.27762 0.0
C2961 C 0.89703 0.2604 0.22283 0.0
C2962 C 0.88972 0.25478 0.23195 0.0
C2963 C 0.90718 0.26725 0.22606 0.0
C2964 C 0.90937 0.27033 0.23842 0.0
C2965 C 0.90054 0.26656 0.2474 0.0
C2966 C 0.89093 0.25851 0.24424 0.0
C2967 C 0.92179 0.27523 0.24192 0.0
C2968 C 0.92751 0.27032 0.25255 0.0
C2969 C 0.92894 0.28286 0.23387 0.0
C2970 C 0.92377 0.28915 0.22275 0.0
C2971 C 0.91295 0.29635 0.22356 0.0
C2972 C 0.90769 0.3014 0.21287 0.0
C2973 C 0.91315 0.29932 0.20133 0.0
C2974 C 0.92396 0.29227 0.20044 0.0
C2975 C 0.92929 0.28726 0.21108 0.0
H2976 H 0.909 0.30315 0.19308 0.0
H2977 H 0.9572 0.25116 0.29704 0.0
H2978 H 0.06309 0.68071 0.39172 0.0
H2979 H 0.04347 0.69121 0.39533 0.0
H2980 H 0.04168 0.6751 0.43192 0.0
H2981 H 0.06214 0.66605 0.42882 0.0
H2982 H 0.02269 0.68162 0.39761 0.0
H2983 H 0.02471 0.6868 0.44913 0.0
H2984 H 0.03865 0.69285 0.46599 0.0
H2985 H 0.05668 0.71867 0.44178 0.0
H2986 H 0.04311 0.71245 0.42464 0.0
H2987 H 0.97362 0.72782 0.40057 0.0
H2988 H 0.98221 0.70725 0.40609 0.0
H2989 H 0.01653 0.72457 0.41607 0.0
H2990 H 0.00808 0.74441 0.41133 0.0
H2991 H 0.01069 0.70809 0.43284 0.0
H2992 H 0.0123 0.70979 0.38487 0.0
H2993 H 0.00134 0.70893 0.36493 0.0
H2994 H 0.98006 0.67822 0.37817 0.0
H2995 H 0.99104 0.67878 0.39809 0.0
C2996 C 0.05891 0.68017 0.40081 0.0
C2997 C 0.06437 0.67314 0.4102 0.0
C2998 C 0.04749 0.68582 0.40276 0.0
C2999 C 0.04102 0.68395 0.41392 0.0
C3000 C 0.04656 0.67699 0.42337 0.0
C3001 C 0.05823 0.67177 0.42157 0.0
C3002 C 0.02828 0.68884 0.41525 0.0
C3003 C 0.02007 0.68738 0.40537 0.0
C3004 C 0.02449 0.69583 0.42559 0.0
C3005 C 0.03306 0.69903 0.43563 0.0
C3006 C 0.03175 0.69366 0.44739 0.0
C3007 C 0.03961 0.69708 0.45695 0.0
C3008 C 0.04863 0.70605 0.45489 0.0
C3009 C 0.04982 0.71159 0.44326 0.0
C3010 C 0.04213 0.70805 0.43361 0.0
C3011 C 0.98294 0.72707 0.40404 0.0
C3012 C 0.99026 0.73765 0.40531 0.0
C3013 C 0.98781 0.7154 0.4072 0.0
C3014 C -5e-05 0.71439 0.41169 0.0
C3015 C 0.00705 0.72505 0.41292 0.0
C3016 C 0.00225 0.73647 0.40995 0.0
C3017 C 0.00622 0.70253 0.41435 0.0
C3018 C 0.01308 0.70192 0.42532 0.0
C3019 C 0.00924 0.69443 0.40464 0.0
C3020 C 0.00234 0.69441 0.39294 0.0
C3021 C 0.00522 0.70291 0.38352 0.0
C3022 C 0.99903 0.70248 0.37224 0.0
C3023 C 0.98994 0.69362 0.37034 0.0
C3024 C 0.98706 0.68512 0.37968 0.0
C3025 C 0.99326 0.68548 0.39095 0.0
H3026 H 0.98517 0.69329 0.3616 0.0
H3027 H 0.05463 0.70876 0.46233 0.0
H3028 H 0.58886 0.74289 0.68838 0.0
H3029 H 0.61018 0.74614 0.68131 0.0
H3030 H 0.61751 0.76538 0.71538 0.0
H3031 H 0.59729 0.76039 0.72283 0.0
H3032 H 0.62051 0.76294 0.67384 0.0
H3033 H 0.64187 0.77524 0.72227 0.0
H3034 H 0.64479 0.76526 0.74255 0.0
H3035 H 0.64111 0.72958 0.72604 0.0
H3036 H 0.638 0.73935 0.70563 0.0
H3037 H 0.6476 0.81994 0.69595 0.0
H3038 H 0.64069 0.79873 0.6992 0.0
H3039 H 0.66142 0.78719 0.66712 0.0
H3040 H 0.66717 0.80853 0.66317 0.0
H3041 H 0.65308 0.77642 0.70253 0.0
H3042 H 0.65269 0.76692 0.65825 0.0
H3043 H 0.65278 0.77314 0.63627 0.0
H3044 H 0.62013 0.79491 0.64214 0.0
H3045 H 0.62055 0.78982 0.66444 0.0
C3046 C 0.5953 0.7475 0.69438 0.0
C3047 C 0.59139 0.75205 0.70584 0.0
C3048 C 0.60749 0.74941 0.69036 0.0
C3049 C 0.61583 0.75607 0.69769 0.0
C3050 C 0.61187 0.75977 0.70952 0.0
C3051 C 0.59998 0.75738 0.71368 0.0
C3052 C 0.62764 0.76109 0.69247 0.0
C3053 C 0.62778 0.76542 0.68015 0.0
C3054 C 0.63782 0.76399 0.70013 0.0
C3055 C 0.63979 0.75803 0.71237 0.0
C3056 C 0.64181 0.76525 0.72292 0.0
C3057 C 0.64339 0.75964 0.73447 0.0
C3058 C 0.64312 0.74679 0.73558 0.0
C3059 C 0.64127 0.73954 0.72515 0.0
C3060 C 0.6395 0.74511 0.7136 0.0
C3061 C 0.65016 0.81298 0.68932 0.0
C3062 C 0.65717 0.81596 0.67887 0.0
C3063 C 0.64645 0.8008 0.69129 0.0
C3064 C 0.65005 0.79141 0.68306 0.0
C3065 C 0.6579 0.79429 0.67318 0.0
C3066 C 0.66127 0.8065 0.671 0.0
C3067 C 0.64486 0.77892 0.68473 0.0
C3068 C 0.64605 0.7732 0.69628 0.0
C3069 C 0.63658 0.774 0.6761 0.0
C3070 C 0.63661 0.77794 0.66298 0.0
C3071 C 0.64563 0.7732 0.65488 0.0
C3072 C 0.6457 0.77667 0.64242 0.0
C3073 C 0.63652 0.78455 0.63787 0.0
C3074 C 0.62736 0.78906 0.6458 0.0
C3075 C 0.62749 0.78596 0.65837 0.0
H3076 H 0.63646 0.7871 0.62819 0.0
H3077 H 0.64435 0.74246 0.74453 0.0
H3078 H 0.55404 0.33513 0.99299 0.0
H3079 H 0.56904 0.34559 0.9801 0.0
H3080 H 0.56441 0.3175 0.95241 0.0
H3081 H 0.55061 0.30673 0.96586 0.0
H3082 H 0.5774 0.32736 0.94211 0.0
H3083 H 0.54812 0.35687 0.96088 0.0
H3084 H 0.53821 0.37041 0.97626 0.0
H3085 H 0.57359 0.38438 0.9866 0.0
H3086 H 0.58375 0.37098 0.97114 0.0
H3087 H 0.57831 0.36666 0.89148 0.0
H3088 H 0.5863 0.35554 0.90964 0.0
H3089 H 0.56373 0.37915 0.93292 0.0
H3090 H 0.55694 0.39057 0.91514 0.0
H3091 H 0.57796 0.37202 0.94596 0.0
H3092 H 0.59221 0.3281 0.92191 0.0
H3093 H 0.58942 0.30674 0.91015 0.0
H3094 H 0.5467 0.30841 0.89945 0.0
H3095 H 0.54139 0.33038 0.9102 0.0
C3096 C 0.55576 0.33174 0.98374 0.0
C3097 C 0.55015 0.32091 0.9797 0.0
C3098 C 0.56427 0.33785 0.9762 0.0
C3099 C 0.56651 0.33391 0.96401 0.0
C3100 C 0.56197 0.32211 0.96084 0.0
C3101 C 0.55384 0.31577 0.96854 0.0
C3102 C 0.57231 0.34225 0.95432 0.0
C3103 C 0.57585 0.33716 0.94286 0.0
C3104 C 0.57258 0.35536 0.95512 0.0
C3105 C 0.56671 0.36273 0.96505 0.0
C3106 C 0.5538 0.36274 0.96649 0.0
C3107 C 0.54814 0.3704 0.97521 0.0
C3108 C 0.55527 0.37815 0.98248 0.0
C3109 C 0.56809 0.37829 0.98102 0.0
C3110 C 0.57381 0.37067 0.97229 0.0
C3111 C 0.5756 0.36966 0.90064 0.0
C3112 C 0.5665 0.37878 0.90219 0.0
C3113 C 0.58006 0.36329 0.91093 0.0
C3114 C 0.57506 0.36593 0.92259 0.0
C3115 C 0.5677 0.37664 0.92408 0.0
C3116 C 0.56369 0.38324 0.91388 0.0
C3117 C 0.57605 0.35711 0.93296 0.0
C3118 C 0.57658 0.36217 0.94487 0.0
C3119 C 0.5746 0.34411 0.93182 0.0
C3120 C 0.5714 0.33657 0.92008 0.0
C3121 C 0.58332 0.32627 0.91784 0.0
C3122 C 0.58134 0.31264 0.91071 0.0
C3123 C 0.56826 0.30691 0.90438 0.0
C3124 C 0.55412 0.31343 0.9037 0.0
C3125 C 0.55106 0.32739 0.91001 0.0
H3126 H 0.56914 0.29788 0.90026 0.0
H3127 H 0.55084 0.3841 0.9892 0.0
H3128 H 0.21116 0.88475 0.25601 0.0
H3129 H 0.21449 0.90074 0.27124 0.0
H3130 H 0.25278 0.90237 0.26068 0.0
H3131 H 0.24934 0.8868 0.2448 0.0
H3132 H 0.24038 0.91637 0.28776 0.0
H3133 H 0.24289 0.94084 0.23133 0.0
H3134 H 0.23644 0.94258 0.20969 0.0
H3135 H 0.19842 0.94295 0.22109 0.0
H3136 H 0.20466 0.94091 0.24284 0.0
H3137 H 0.259 0.9858 0.27046 0.0
H3138 H 0.25691 0.96335 0.26976 0.0
H3139 H 0.22053 0.96635 0.28592 0.0
H3140 H 0.22297 0.98888 0.28743 0.0
H3141 H 0.22998 0.95933 0.255 0.0
H3142 H 0.22555 0.9504 0.3009 0.0
H3143 H 0.23118 0.9551 0.32237 0.0
H3144 H 0.26608 0.93673 0.31724 0.0
H3145 H 0.26068 0.93213 0.29562 0.0
C3146 C 0.22047 0.88806 0.25736 0.0
C3147 C 0.22977 0.8855 0.2486 0.0
C3148 C 0.22236 0.89724 0.2661 0.0
C3149 C 0.23337 0.90392 0.26551 0.0
C3150 C 0.24376 0.89819 0.26006 0.0
C3151 C 0.24187 0.88917 0.25106 0.0
C3152 C 0.23297 0.91792 0.26671 0.0
C3153 C 0.23804 0.92307 0.28067 0.0
C3154 C 0.22819 0.93746 0.25203 0.0
C3155 C 0.22425 0.93981 0.23874 0.0
C3156 C 0.23314 0.94093 0.22926 0.0
C3157 C 0.22953 0.94205 0.21694 0.0
C3158 C 0.21702 0.94262 0.21398 0.0
C3159 C 0.20811 0.94229 0.22337 0.0
C3160 C 0.2117 0.94107 0.23571 0.0
C3161 C 0.25067 0.98159 0.2741 0.0
C3162 C 0.24102 0.9889 0.27878 0.0
C3163 C 0.24961 0.96881 0.27396 0.0
C3164 C 0.23882 0.9632 0.27832 0.0
C3165 C 0.22919 0.9705 0.28314 0.0
C3166 C 0.23044 0.98332 0.2837 0.0
C3167 C 0.23635 0.95066 0.27428 0.0
C3168 C 0.23119 0.95062 0.25968 0.0
C3169 C 0.23942 0.93835 0.28382 0.0
C3170 C 0.24285 0.94121 0.2966 0.0
C3171 C 0.23453 0.9476 0.30428 0.0
C3172 C 0.23764 0.95017 0.31649 0.0
C3173 C 0.24903 0.94629 0.32115 0.0
C3174 C 0.25729 0.93978 0.3136 0.0
C3175 C 0.25421 0.93719 0.30137 0.0
H3176 H 0.25142 0.94826 0.33061 0.0
H3177 H 0.21423 0.94351 0.20444 0.0
H3178 H 0.38606 0.91803 0.5408 0.0
H3179 H 0.37413 0.93711 0.54381 0.0
H3180 H 0.3489 0.91758 0.56778 0.0
H3181 H 0.36095 0.89842 0.56487 0.0
H3182 H 0.34525 0.93961 0.53985 0.0
H3183 H 0.35491 0.92981 0.58693 0.0
H3184 H 0.3713 0.92598 0.60229 0.0
H3185 H 0.39324 0.95468 0.58584 0.0
H3186 H 0.37704 0.95854 0.57033 0.0
H3187 H 0.30815 0.98332 0.57961 0.0
H3188 H 0.32269 0.96583 0.57924 0.0
H3189 H 0.34445 0.9844 0.55133 0.0
H3190 H 0.33108 0.00244 0.55309 0.0
H3191 H 0.34946 0.96314 0.57839 0.0
H3192 H 0.34784 0.9618 0.52877 0.0
H3193 H 0.32956 0.9596 0.49837 0.0
H3194 H 0.29475 0.95346 0.51563 0.0
H3195 H 0.29953 0.95438 0.53659 0.0
C3196 C 0.37791 0.91781 0.54665 0.0
C3197 C 0.37405 0.90669 0.55218 0.0
C3198 C 0.37112 0.92868 0.54832 0.0
C3199 C 0.36054 0.92866 0.5558 0.0
C3200 C 0.35698 0.9177 0.56183 0.0
C3201 C 0.36376 0.90677 0.56011 0.0
C3202 C 0.35347 0.94022 0.55767 0.0
C3203 C 0.3455 0.94464 0.54839 0.0
C3204 C 0.35503 0.94712 0.56842 0.0
C3205 C 0.36489 0.94431 0.5774 0.0
C3206 C 0.36331 0.93516 0.58651 0.0
C3207 C 0.37254 0.93303 0.59526 0.0
C3208 C 0.38332 0.94005 0.59501 0.0
C3209 C 0.38492 0.94921 0.586 0.0
C3210 C 0.37574 0.95135 0.57722 0.0
C3211 C 0.3166 0.98407 0.57425 0.0
C3212 C 0.31803 0.99344 0.56543 0.0
C3213 C 0.32464 0.97395 0.57368 0.0
C3214 C 0.33363 0.97354 0.5642 0.0
C3215 C 0.33687 0.98431 0.55791 0.0
C3216 C 0.3294 0.99464 0.55919 0.0
C3217 C 0.3397 0.96197 0.56113 0.0
C3218 C 0.34807 0.95778 0.57008 0.0
C3219 C 0.33807 0.95543 0.54976 0.0
C3220 C 0.32967 0.95916 0.53831 0.0
C3221 C 0.33797 0.96052 0.52683 0.0
C3222 C 0.32648 0.95895 0.50806 0.0
C3223 C 0.31268 0.95676 0.50706 0.0
C3224 C 0.30416 0.95543 0.5178 0.0
C3225 C 0.30806 0.95612 0.53132 0.0
H3226 H 0.30874 0.95605 0.49793 0.0
H3227 H 0.39043 0.93842 0.60182 0.0
H3228 H 0.31825 0.14786 0.77508 0.0
H3229 H 0.33927 0.15294 0.781 0.0
H3230 H 0.33747 0.12588 0.81033 0.0
H3231 H 0.31683 0.11982 0.80356 0.0
H3232 H 0.35557 0.15655 0.80175 0.0
H3233 H 0.3506 0.10905 0.80782 0.0
H3234 H 0.3426 0.08602 0.80502 0.0
H3235 H 0.34242 0.08193 0.76118 0.0
H3236 H 0.35025 0.10525 0.75551 0.0
H3237 H 0.41453 0.12068 0.81553 0.0
H3238 H 0.392 0.12293 0.81365 0.0
H3239 H 0.39709 0.14705 0.78221 0.0
H3240 H 0.41958 0.14485 0.78412 0.0
H3241 H 0.37705 0.11778 0.79126 0.0
H3242 H 0.38333 0.16622 0.78597 0.0
H3243 H 0.39456 0.18429 0.79383 0.0
H3244 H 0.38911 0.17141 0.83106 0.0
H3245 H 0.37795 0.15322 0.82336 0.0
C3246 C 0.32229 0.14322 0.783 0.0
C3247 C 0.31661 0.1329 0.78837 0.0
C3248 C 0.33418 0.14621 0.78642 0.0
C3249 C 0.34005 0.13897 0.79535 0.0
C3250 C 0.3332 0.13079 0.80274 0.0
C3251 C 0.32141 0.12751 0.79907 0.0
C3252 C 0.35344 0.13801 0.79497 0.0
C3253 C 0.36031 0.14818 0.79888 0.0
C3254 C 0.35935 0.12711 0.79065 0.0
C3255 C 0.35211 0.11554 0.78631 0.0
C3256 C 0.34888 0.10593 0.79854 0.0
C3257 C 0.34419 0.09124 0.79661 0.0
C3258 C 0.34193 0.08344 0.78329 0.0
C3259 C 0.34375 0.08838 0.76859 0.0
C3260 C 0.3484 0.10293 0.76516 0.0
C3261 C 0.41079 0.1263 0.80812 0.0
C3262 C 0.41873 0.13216 0.79963 0.0
C3263 C 0.39796 0.12766 0.80711 0.0
C3264 C 0.39287 0.13511 0.79776 0.0
C3265 C 0.40081 0.1413 0.78953 0.0
C3266 C 0.41363 0.13997 0.79057 0.0
C3267 C 0.37925 0.13644 0.79656 0.0
C3268 C 0.37225 0.12632 0.79261 0.0
C3269 C 0.37318 0.14757 0.79948 0.0
C3270 C 0.37995 0.15837 0.8041 0.0
C3271 C 0.3846 0.16724 0.79582 0.0
C3272 C 0.39095 0.17749 0.80024 0.0
C3273 C 0.3926 0.17897 0.81293 0.0
C3274 C 0.38788 0.17022 0.82123 0.0
C3275 C 0.38157 0.15994 0.81685 0.0
H3276 H 0.39752 0.18691 0.81633 0.0
H3277 H 0.33903 0.07395 0.78437 0.0
H3278 H 0.1803 0.13705 0.02496 0.0
H3279 H 0.16564 0.1528 0.03121 0.0
H3280 H 0.13581 0.13106 0.01655 0.0
H3281 H 0.15101 0.11623 0.00861 0.0
H3282 H 0.1305 0.15057 0.01015 0.0
H3283 H 0.14135 0.14104 0.05103 0.0
H3284 H 0.15496 0.13562 0.06843 0.0
H3285 H 0.17313 0.17058 0.0649 0.0
H3286 H 0.15978 0.17616 0.0474 0.0
H3287 H 0.10945 0.2116 0.00782 0.0
H3288 H 0.10956 0.19038 0.01543 0.0
H3289 H 0.14468 0.19686 0.03288 0.0
H3290 H 0.14211 0.21869 0.0287 0.0
H3291 H 0.13741 0.18016 0.04383 0.0
H3292 H 0.13378 0.18503 0.99812 0.0
H3293 H 0.12255 0.18967 0.97886 0.0
H3294 H 0.09423 0.16412 0.98956 0.0
H3295 H 0.1054 0.15931 0.00883 0.0
C3296 C 0.17058 0.13561 0.02324 0.0
C3297 C 0.16677 0.1257 0.01604 0.0
C3298 C 0.16204 0.14451 0.02712 0.0
C3299 C 0.14932 0.14322 0.02473 0.0
C3300 C 0.14548 0.13255 0.01846 0.0
C3301 C 0.15414 0.12401 0.01394 0.0
C3302 C 0.14057 0.15384 0.02691 0.0
C3303 C 0.13212 0.15697 0.01757 0.0
C3304 C 0.14186 0.16211 0.03692 0.0
C3305 C 0.14947 0.15904 0.04791 0.0
C3306 C 0.14821 0.14759 0.05399 0.0
C3307 C 0.15592 0.14448 0.06385 0.0
C3308 C 0.16489 0.15275 0.06778 0.0
C3309 C 0.16614 0.16419 0.06189 0.0
C3310 C 0.15847 0.16736 0.05202 0.0
C3311 C 0.11715 0.20843 0.01333 0.0
C3312 C 0.12672 0.21652 0.01639 0.0
C3313 C 0.11732 0.19619 0.01756 0.0
C3314 C 0.1277 0.19143 0.02379 0.0
C3315 C 0.13672 0.19985 0.02764 0.0
C3316 C 0.13577 0.21233 0.02458 0.0
C3317 C 0.12986 0.17783 0.02563 0.0
C3318 C 0.13623 0.17383 0.03624 0.0
C3319 C 0.12716 0.16893 0.01647 0.0
C3320 C 0.1204 0.1719 0.00493 0.0
C3321 C 0.1252 0.18038 0.99629 0.0
C3322 C 0.11884 0.18306 0.98541 0.0
C3323 C 0.10766 0.17722 0.983 0.0
C3324 C 0.10287 0.16866 0.99146 0.0
C3325 C 0.10922 0.16596 0.00236 0.0
H3326 H 0.10273 0.17931 0.97458 0.0
H3327 H 0.17088 0.15029 0.07538 0.0
H3328 H 0.10484 0.99629 0.15042 0.0
H3329 H 0.12198 0.98994 0.13715 0.0
H3330 H 0.13466 0.02776 0.13705 0.0
H3331 H 0.11752 0.03375 0.14956 0.0
H3332 H 0.14775 0.01959 0.12143 0.0
H3333 H 0.16279 0.0043 0.17913 0.0
H3334 H 0.17115 0.99335 0.19719 0.0
H3335 H 0.16899 0.95904 0.17815 0.0
H3336 H 0.16233 0.96998 0.15948 0.0
H3337 H 0.21774 0.02795 0.14338 0.0
H3338 H 0.19524 0.02962 0.14662 0.0
H3339 H 0.19095 0.99309 0.13169 0.0
H3340 H 0.21328 0.99135 0.1286 0.0
H3341 H 0.1825 0.99796 0.15956 0.0
H3342 H 0.18597 0.01295 0.11308 0.0
H3343 H 0.19516 0.0278 0.09834 0.0
H3344 H 0.17177 0.05659 0.11262 0.0
H3345 H 0.16258 0.0419 0.12756 0.0
C3346 C 0.11091 0.00333 0.14671 0.0
C3347 C 0.11134 0.01507 0.1522 0.0
C3348 C 0.12093 -0.00041 0.13948 0.0
C3349 C 0.13061 0.00796 0.13791 0.0
C3350 C 0.1279 0.02071 0.1391 0.0
C3351 C 0.11788 0.02434 0.14622 0.0
C3352 C 0.14405 0.00449 0.13863 0.0
C3353 C 0.15258 0.01469 0.1287 0.0
C3354 C 0.16026 0.99501 0.15642 0.0
C3355 C 0.16024 0.98782 0.16828 0.0
C3356 C 0.16326 0.99431 0.17903 0.0
C3357 C 0.16814 0.98815 0.1893 0.0
C3358 C 0.16966 0.97537 0.18919 0.0
C3359 C 0.167 0.96882 0.17852 0.0
C3360 C 0.16275 0.97504 0.16801 0.0
C3361 C 0.21192 0.02024 0.14099 0.0
C3362 C 0.21709 0.00933 0.13616 0.0
C3363 C 0.19916 0.02132 0.14262 0.0
C3364 C 0.1916 0.01155 0.13921 0.0
C3365 C 0.19676 0.00076 0.13423 0.0
C3366 C 0.20944 -0.0003 0.13258 0.0
C3367 C 0.17844 0.0115 0.14186 0.0
C3368 C 0.17503 0.00121 0.15383 0.0
C3369 C 0.16837 0.01775 0.1306 0.0
C3370 C 0.17374 0.0264 0.12154 0.0
C3371 C 0.1829 0.02247 0.11317 0.0
C3372 C 0.18808 0.03085 0.10475 0.0
C3373 C 0.18409 0.04315 0.10457 0.0
C3374 C 0.17487 0.04707 0.11278 0.0
C3375 C 0.16967 0.03872 0.12121 0.0
H3376 H 0.18811 0.04962 0.09806 0.0
H3377 H 0.17343 0.97063 0.19717 0.0
H3378 H 0.36181 0.92641 0.40112 0.0
H3379 H 0.34641 0.91075 0.39624 0.0
H3380 H 0.32083 0.93966 0.3854 0.0
H3381 H 0.33582 0.95508 0.39131 0.0
H3382 H 0.30891 0.9263 0.39751 0.0
H3383 H 0.33547 0.91709 0.36481 0.0
H3384 H 0.35504 0.91286 0.35386 0.0
H3385 H 0.35912 0.87874 0.37386 0.0
H3386 H 0.33965 0.88278 0.38502 0.0
H3387 H 0.27298 0.8815 0.41496 0.0
H3388 H 0.27962 0.89087 0.39546 0.0
H3389 H 0.3157 0.87455 0.40019 0.0
H3390 H 0.30799 0.86306 0.41806 0.0
H3391 H 0.3175 0.88466 0.38088 0.0
H3392 H 0.29256 0.90331 0.41824 0.0
H3393 H 0.27371 0.91155 0.42773 0.0
H3394 H 0.26536 0.93113 0.39418 0.0
H3395 H 0.28437 0.92288 0.3845 0.0
C3396 C 0.3528 0.92928 0.39788 0.0
C3397 C 0.34975 0.94182 0.39691 0.0
C3398 C 0.34405 0.92038 0.39485 0.0
C3399 C 0.33235 0.92394 0.39034 0.0
C3400 C 0.32964 0.93657 0.38899 0.0
C3401 C 0.33817 0.9454 0.39243 0.0
C3402 C 0.32243 0.91472 0.38844 0.0
C3403 C 0.31078 0.91729 0.39357 0.0
C3404 C 0.32454 0.90309 0.38291 0.0
C3405 C 0.33609 0.90032 0.37588 0.0
C3406 C 0.34055 0.9087 0.36693 0.0
C3407 C 0.35164 0.90633 0.36067 0.0
C3408 C 0.35834 0.89556 0.36319 0.0
C3409 C 0.35393 0.88709 0.37192 0.0
C3410 C 0.34284 0.88941 0.37821 0.0
C3411 C 0.28229 0.87974 0.41168 0.0
C3412 C 0.29085 0.87322 0.41901 0.0
C3413 C 0.28609 0.88514 0.40053 0.0
C3414 C 0.29867 0.88499 0.39738 0.0
C3415 C 0.3062 0.87592 0.40301 0.0
C3416 C 0.30207 0.86977 0.41361 0.0
C3417 C 0.30472 0.89586 0.39136 0.0
C3418 C 0.31562 0.89381 0.38445 0.0
C3419 C 0.3018 0.9082 0.39492 0.0
C3420 C 0.28991 0.91229 0.40059 0.0
C3421 C 0.28686 0.90943 0.41291 0.0
C3422 C 0.27605 0.91404 0.41831 0.0
C3423 C 0.2683 0.92187 0.41156 0.0
C3424 C 0.27133 0.92499 0.39938 0.0
C3425 C 0.28209 0.92026 0.39392 0.0
H3426 H 0.25997 0.92551 0.41578 0.0
H3427 H 0.36694 0.89376 0.35836 0.0
H3428 H 0.39428 0.05451 0.65743 0.0
H3429 H 0.39304 0.03332 0.66525 0.0
H3430 H 0.42193 0.04117 0.6913 0.0
H3431 H 0.42456 0.06152 0.68183 0.0
H3432 H 0.42411 0.01893 0.68534 0.0
H3433 H 0.38544 0.04398 0.69294 0.0
H3434 H 0.36598 0.05336 0.68548 0.0
H3435 H 0.35435 0.01845 0.67164 0.0
H3436 H 0.37394 0.00891 0.67837 0.0
H3437 H 0.41563 0.00112 0.74425 0.0
H3438 H 0.41854 0.00731 0.72306 0.0
H3439 H 0.38438 0.98944 0.71332 0.0
H3440 H 0.38095 0.98432 0.73525 0.0
H3441 H 0.38314 0.00833 0.70279 0.0
H3442 H 0.41668 0.98193 0.7002 0.0
H3443 H 0.4352 0.97009 0.70628 0.0
H3444 H 0.45576 0.00367 0.70909 0.0
H3445 H 0.43736 0.01575 0.7032 0.0
C3446 C 0.4004 0.05161 0.6648 0.0
C3447 C 0.40896 0.0599 0.66971 0.0
C3448 C 0.39963 0.03952 0.66932 0.0
C3449 C 0.40689 0.03574 0.67937 0.0
C3450 C 0.41596 0.04386 0.68374 0.0
C3451 C 0.41724 0.05568 0.67865 0.0
C3452 C 0.40481 0.02375 0.68591 0.0
C3453 C 0.41517 0.01664 0.68927 0.0
C3454 C 0.39297 0.01984 0.69 0.0
C3455 C 0.38125 0.02577 0.686 0.0
C3456 C 0.37877 0.03832 0.68824 0.0
C3457 C 0.36774 0.04367 0.68415 0.0
C3458 C 0.35893 0.03652 0.67822 0.0
C3459 C 0.36119 0.02399 0.67623 0.0
C3460 C 0.37229 0.01863 0.68008 0.0
C3461 C 0.40873 0.99854 0.73757 0.0
C3462 C 0.39779 0.99284 0.74138 0.0
C3463 C 0.41058 0.00173 0.72525 0.0
C3464 C 0.4018 0.99878 0.71626 0.0
C3465 C 0.39129 0.99202 0.71998 0.0
C3466 C 0.3893 0.98908 0.73249 0.0
C3467 C 0.40273 0.00464 0.70373 0.0
C3468 C 0.39212 0.0103 0.6988 0.0
C3469 C 0.41429 0.00699 0.69796 0.0
C3470 C 0.42559 -0.00024 0.70117 0.0
C3471 C 0.42514 0.98681 0.70211 0.0
C3472 C 0.43563 0.98005 0.70554 0.0
C3473 C 0.44665 0.98612 0.70805 0.0
C3474 C 0.44723 0.99897 0.70709 0.0
C3475 C 0.43678 0.00578 0.70364 0.0
H3476 H 0.45474 0.98088 0.71076 0.0
H3477 H 0.35037 0.0407 0.67518 0.0
H3478 H 0.24769 0.25269 0.89748 0.0
H3479 H 0.26815 0.25741 0.90552 0.0
H3480 H 0.28113 0.22129 0.89517 0.0
H3481 H 0.26081 0.2165 0.88715 0.0
H3482 H 0.26726 0.23048 0.92996 0.0
H3483 H 0.303 0.23469 0.90086 0.0
H3484 H 0.31725 0.24749 0.88842 0.0
H3485 H 0.30914 0.27876 0.91131 0.0
H3486 H 0.29482 0.26615 0.92385 0.0
H3487 H 0.28628 0.22251 0.98176 0.0
H3488 H 0.2904 0.21974 0.95951 0.0
H3489 H 0.28257 0.2583 0.95322 0.0
H3490 H 0.2788 0.26106 0.97541 0.0
H3491 H 0.29879 0.24466 0.93706 0.0
H3492 H 0.24145 0.24506 0.96088 0.0
H3493 H 0.21784 0.22817 0.98344 0.0
H3494 H 0.22451 0.19439 0.95705 0.0
H3495 H 0.23984 0.20308 0.94282 0.0
C3496 C 0.25509 0.24598 0.89652 0.0
C3497 C 0.25268 0.23393 0.89278 0.0
C3498 C 0.26691 0.2488 0.90066 0.0
C3499 C 0.27559 0.23915 0.90203 0.0
C3500 C 0.27421 0.22855 0.89486 0.0
C3501 C 0.26248 0.22565 0.89072 0.0
C3502 C 0.27882 0.23667 0.9149 0.0
C3503 C 0.26938 0.23076 0.92138 0.0
C3504 C 0.28887 0.24207 0.92056 0.0
C3505 C 0.29786 0.24947 0.91329 0.0
C3506 C 0.30427 0.24429 0.90324 0.0
C3507 C 0.31235 0.25151 0.89617 0.0
C3508 C 0.31409 0.26393 0.89907 0.0
C3509 C 0.3078 0.26914 0.90909 0.0
C3510 C 0.29974 0.26194 0.9162 0.0
C3511 C 0.28519 0.23029 0.97552 0.0
C3512 C 0.28034 0.24157 0.97983 0.0
C3513 C 0.28797 0.22883 0.9629 0.0
C3514 C 0.28506 0.23845 0.95456 0.0
C3515 C 0.28368 0.25044 0.95937 0.0
C3516 C 0.28104 0.25194 0.97197 0.0
C3517 C 0.28127 0.23612 0.94122 0.0
C3518 C 0.29039 0.24088 0.93321 0.0
C3519 C 0.26783 0.23102 0.93543 0.0
C3520 C 0.24507 0.22497 0.94942 0.0
C3521 C 0.23908 0.23524 0.96098 0.0
C3522 C 0.22313 0.22473 0.97551 0.0
C3523 C 0.22031 0.21013 0.97135 0.0
C3524 C 0.22718 0.20376 0.95908 0.0
C3525 C 0.23777 0.21016 0.94935 0.0
H3526 H 0.21372 0.20476 0.97664 0.0
H3527 H 0.32032 0.26952 0.89356 0.0
H3528 H 0.79329 0.31861 0.11538 0.0
H3529 H 0.80669 0.33549 0.12114 0.0
H3530 H 0.78026 0.34642 0.1492 0.0
H3531 H 0.76819 0.32799 0.14485 0.0
H3532 H 0.80292 0.35608 0.11667 0.0
H3533 H 0.7881 0.36821 0.16752 0.0
H3534 H 0.786 0.35747 0.18756 0.0
H3535 H 0.81101 0.32913 0.17528 0.0
H3536 H 0.81336 0.33975 0.15519 0.0
H3537 H 0.78477 0.41789 0.13773 0.0
H3538 H 0.78542 0.39519 0.13925 0.0
H3539 H 0.82498 0.39582 0.13465 0.0
H3540 H 0.82412 0.4183 0.1315 0.0
H3541 H 0.80533 0.37893 0.1559 0.0
H3542 H 0.81901 0.39548 0.11266 0.0
H3543 H 0.80634 0.40652 0.07895 0.0
H3544 H 0.77907 0.3731 0.08575 0.0
H3545 H 0.78692 0.36601 0.10762 0.0
C3546 C 0.79046 0.32454 0.12291 0.0
C3547 C 0.77915 0.32269 0.12902 0.0
C3548 C 0.79816 0.3342 0.12624 0.0
C3549 C 0.79451 0.34258 0.13545 0.0
C3550 C 0.78355 0.34018 0.14213 0.0
C3551 C 0.77624 0.33 0.13925 0.0
C3552 C 0.80081 0.35478 0.13639 0.0
C3553 C 0.80344 0.36104 0.12528 0.0
C3554 C 0.80213 0.36116 0.14766 0.0
C3555 C 0.80091 0.3548 0.15981 0.0
C3556 C 0.79325 0.35975 0.16911 0.0
C3557 C 0.79197 0.35366 0.18047 0.0
C3558 C 0.79837 0.34262 0.18269 0.0
C3559 C 0.80605 0.33766 0.17354 0.0
C3560 C 0.80733 0.3437 0.16215 0.0
C3561 C 0.79353 0.41309 0.13685 0.0
C3562 C 0.80429 0.41955 0.13377 0.0
C3563 C 0.79392 0.40023 0.13781 0.0
C3564 C 0.8052 0.39392 0.13645 0.0
C3565 C 0.81616 0.40058 0.13519 0.0
C3566 C 0.81567 0.41333 0.13338 0.0
C3567 C 0.8054 0.38037 0.13607 0.0
C3568 C 0.80462 0.37388 0.14732 0.0
C3569 C 0.8049 0.37389 0.12479 0.0
C3570 C 0.80292 0.37994 0.11249 0.0
C3571 C 0.8113 0.39229 0.10718 0.0
C3572 C 0.8034 0.39921 0.08532 0.0
C3573 C 0.79165 0.39016 0.08075 0.0
C3574 C 0.78653 0.3784 0.08957 0.0
C3575 C 0.79158 0.37383 0.10373 0.0
H3576 H 0.78738 0.39191 0.07191 0.0
H3577 H 0.79737 0.33792 0.19149 0.0
H3578 H 0.00096 0.56295 0.33422 0.0
H3579 H 0.98863 0.57444 0.34939 0.0
H3580 H 0.95573 0.56692 0.32858 0.0
H3581 H 0.96821 0.55596 0.31303 0.0
H3582 H 0.9581 0.59187 0.34398 0.0
H3583 H 0.95172 0.54577 0.35143 0.0
H3584 H 0.96335 0.51224 0.34922 0.0
H3585 H 0.99813 0.54178 0.36587 0.0
H3586 H 0.98587 0.55953 0.36639 0.0
H3587 H 0.90068 0.57303 0.36489 0.0
H3588 H 0.92017 0.58149 0.35767 0.0
H3589 H 0.93821 0.56653 0.39007 0.0
H3590 H 0.91922 0.55624 0.39587 0.0
H3591 H 0.94976 0.55821 0.374 0.0
H3592 H 0.93793 0.60072 0.37764 0.0
H3593 H 0.92426 0.61896 0.37595 0.0
H3594 H 0.92285 0.61461 0.33661 0.0
H3595 H 0.93635 0.59629 0.33806 0.0
C3596 C 0.99113 0.56409 0.33278 0.0
C3597 C 0.98531 0.55838 0.32285 0.0
C3598 C 0.98417 0.57071 0.34132 0.0
C3599 C 0.97135 0.57135 0.34009 0.0
C3600 C 0.96568 0.56656 0.32955 0.0
C3601 C 0.9727 0.56017 0.32083 0.0
C3602 C 0.96364 0.57407 0.35088 0.0
C3603 C 0.95631 0.58476 0.35085 0.0
C3604 C 0.96172 0.56479 0.35984 0.0
C3605 C 0.96806 0.55252 0.35906 0.0
C3606 C 0.96049 0.54162 0.35424 0.0
C3607 C 0.96753 0.52084 0.35246 0.0
C3608 C 0.98071 0.51952 0.35636 0.0
C3609 C 0.98885 0.53927 0.36272 0.0
C3610 C 0.98133 0.55135 0.36304 0.0
C3611 C 0.90895 0.57129 0.37018 0.0
C3612 C 0.90879 0.56299 0.38013 0.0
C3613 C 0.92007 0.57664 0.36642 0.0
C3614 C 0.93102 0.57442 0.3731 0.0
C3615 C 0.93015 0.56796 0.38436 0.0
C3616 C 0.91926 0.56203 0.38766 0.0
C3617 C 0.9434 0.57604 0.36716 0.0
C3618 C 0.95175 0.56599 0.36797 0.0
C3619 C 0.94614 0.58591 0.3589 0.0
C3620 C 0.93825 0.59715 0.35798 0.0
C3621 C 0.93471 0.60366 0.36863 0.0
C3622 C 0.92697 0.61401 0.36771 0.0
C3623 C 0.92271 0.61796 0.35618 0.0
C3624 C 0.9262 0.61158 0.34553 0.0
C3625 C 0.93394 0.60124 0.3464 0.0
H3626 H 0.91669 0.62595 0.35549 0.0
H3627 H 0.98462 0.5102 0.35566 0.0
H3628 H 0.80472 0.65669 0.67005 0.0
H3629 H 0.78795 0.65962 0.65525 0.0
H3630 H 0.78771 0.69854 0.66286 0.0
H3631 H 0.80548 0.69592 0.67663 0.0
H3632 H 0.76493 0.67368 0.65035 0.0
H3633 H 0.80404 0.70262 0.64992 0.0
H3634 H 0.83738 0.7094 0.63808 0.0
H3635 H 0.83477 0.68526 0.60683 0.0
H3636 H 0.81529 0.67714 0.60949 0.0
H3637 H 0.76582 0.72467 0.59623 0.0
H3638 H 0.76967 0.71838 0.61751 0.0
H3639 H 0.75759 0.68145 0.60894 0.0
H3640 H 0.7523 0.68836 0.58806 0.0
H3641 H 0.78454 0.70663 0.62662 0.0
H3642 H 0.75227 0.66275 0.63258 0.0
H3643 H 0.73011 0.65807 0.63069 0.0
H3644 H 0.72141 0.69679 0.6312 0.0
H3645 H 0.74348 0.70171 0.63315 0.0
C3646 C 0.80089 0.66586 0.66869 0.0
C3647 C 0.80678 0.67627 0.67353 0.0
C3648 C 0.79142 0.66747 0.66025 0.0
C3649 C 0.78787 0.67943 0.6571 0.0
C3650 C 0.79137 0.68935 0.66456 0.0
C3651 C 0.80129 0.68788 0.67253 0.0
C3652 C 0.78226 0.68203 0.64518 0.0
C3653 C 0.76961 0.67968 0.64378 0.0
C3654 C 0.78843 0.68989 0.63672 0.0
C3655 C 0.80278 0.6898 0.63395 0.0
C3656 C 0.80946 0.69883 0.64229 0.0
C3657 C 0.83018 0.70331 0.63445 0.0
C3658 C 0.83588 0.6978 0.6228 0.0
C3659 C 0.82964 0.68864 0.61474 0.0
C3660 C 0.81657 0.68377 0.61695 0.0
C3661 C 0.76395 0.71523 0.59898 0.0
C3662 C 0.75914 0.70686 0.59051 0.0
C3663 C 0.76606 0.71162 0.61119 0.0
C3664 C 0.76388 0.6994 0.61509 0.0
C3665 C 0.75898 0.69105 0.60649 0.0
C3666 C 0.7563 0.69486 0.59442 0.0
C3667 C 0.76868 0.69485 0.62721 0.0
C3668 C 0.78069 0.69829 0.63045 0.0
C3669 C 0.76287 0.68545 0.63427 0.0
C3670 C 0.74957 0.68259 0.63292 0.0
C3671 C 0.74563 0.67026 0.63231 0.0
C3672 C 0.73308 0.66757 0.63121 0.0
C3673 C 0.72436 0.67713 0.6308 0.0
C3674 C 0.72817 0.6894 0.63147 0.0
C3675 C 0.74071 0.69214 0.63252 0.0
H3676 H 0.71465 0.67503 0.62999 0.0
H3677 H 0.84502 0.70077 0.62021 0.0
H3678 H 0.92647 0.39547 0.3578 0.0
H3679 H 0.91179 0.39062 0.34144 0.0
H3680 H 0.94206 0.38553 0.31575 0.0
H3681 H 0.95658 0.39093 0.33192 0.0
H3682 H 0.92683 0.39877 0.30555 0.0
H3683 H 0.92307 0.36072 0.32624 0.0
H3684 H 0.92086 0.34667 0.34411 0.0
H3685 H 0.88476 0.36153 0.35163 0.0
H3686 H 0.88682 0.37581 0.33393 0.0
H3687 H 0.8811 0.41445 0.27257 0.0
H3688 H 0.89164 0.39487 0.2758 0.0
H3689 H 0.87555 0.39219 0.31215 0.0
H3690 H 0.86214 0.40984 0.30717 0.0
H3691 H 0.88867 0.37423 0.31083 0.0
H3692 H 0.9065 0.41948 0.29883 0.0
H3693 H 0.90891 0.43441 0.28176 0.0
H3694 H 0.91981 0.40501 0.25755 0.0
H3695 H 0.91735 0.38992 0.27462 0.0
C3696 C 0.92987 0.39334 0.34862 0.0
C3697 C 0.94248 0.39386 0.34589 0.0
C3698 C 0.92155 0.3904 0.33933 0.0
C3699 C 0.92585 0.38753 0.32738 0.0
C3700 C 0.93855 0.38769 0.32487 0.0
C3701 C 0.94679 0.39088 0.33405 0.0
C3702 C 0.91709 0.38578 0.31715 0.0
C3703 C 0.91863 0.39314 0.30659 0.0
C3704 C 0.90658 0.37818 0.31827 0.0
C3705 C 0.90511 0.36934 0.32872 0.0
C3706 C 0.91467 0.36101 0.33171 0.0
C3707 C 0.91345 0.35301 0.34182 0.0
C3708 C 0.90268 0.3532 0.349 0.0
C3709 C 0.89309 0.36137 0.34605 0.0
C3710 C 0.89426 0.3694 0.33595 0.0
C3711 C 0.87959 0.40958 0.28121 0.0
C3712 C 0.87245 0.41476 0.29082 0.0
C3713 C 0.88574 0.39841 0.28305 0.0
C3714 C 0.88607 0.39334 0.29496 0.0
C3715 C 0.87655 0.3967 0.30325 0.0
C3716 C 0.86938 0.40719 0.30084 0.0
C3717 C 0.89781 0.38829 0.30004 0.0
C3718 C 0.89709 0.37946 0.3096 0.0
C3719 C 0.90923 0.39449 0.29799 0.0
C3720 C 0.91134 0.40357 0.2879 0.0
C3721 C 0.9093 0.41621 0.28988 0.0
C3722 C 0.91069 0.4247 0.28021 0.0
C3723 C 0.91432 0.42063 0.26851 0.0
C3724 C 0.91687 0.40812 0.26658 0.0
C3725 C 0.91551 0.39961 0.27627 0.0
H3726 H 0.91522 0.42717 0.26097 0.0
H3727 H 0.90176 0.34702 0.35684 0.0
H3728 H 0.7208 0.59637 0.74958 0.0
H3729 H 0.71629 0.61836 0.75207 0.0
H3730 H 0.68073 0.60895 0.76784 0.0
H3731 H 0.68425 0.58756 0.76219 0.0
H3732 H 0.67806 0.62922 0.76158 0.0
H3733 H 0.71579 0.61141 0.78112 0.0
H3734 H 0.73757 0.60446 0.7816 0.0
H3735 H 0.74906 0.6396 0.76729 0.0
H3736 H 0.72734 0.64656 0.76635 0.0
H3737 H 0.67401 0.64586 0.82168 0.0
H3738 H 0.68028 0.63648 0.80243 0.0
H3739 H 0.69678 0.67074 0.79051 0.0
H3740 H 0.69074 0.68027 0.81031 0.0
H3741 H 0.71107 0.64746 0.78696 0.0
H3742 H 0.67109 0.66488 0.77762 0.0
H3743 H 0.64923 0.66932 0.78252 0.0
H3744 H 0.64166 0.63049 0.78425 0.0
H3745 H 0.66347 0.6258 0.77964 0.0
C3746 C 0.71195 0.59915 0.75342 0.0
C3747 C 0.70326 0.59027 0.7571 0.0
C3748 C 0.70942 0.6117 0.75493 0.0
C3749 C 0.69864 0.61542 0.76118 0.0
C3750 C 0.68942 0.60652 0.76347 0.0
C3751 C 0.69156 0.59412 0.76086 0.0
C3752 C 0.69728 0.62796 0.76663 0.0
C3753 C 0.68534 0.63312 0.76714 0.0
C3754 C 0.70691 0.6338 0.7733 0.0
C3755 C 0.71992 0.62939 0.7735 0.0
C3756 C 0.72298 0.61761 0.77809 0.0
C3757 C 0.73529 0.61367 0.7784 0.0
C3758 C 0.74468 0.62159 0.77453 0.0
C3759 C 0.74177 0.63345 0.77024 0.0
C3760 C 0.72945 0.63735 0.76972 0.0
C3761 C 0.67936 0.65133 0.81522 0.0
C3762 C 0.68219 0.6637 0.81763 0.0
C3763 C 0.68268 0.64603 0.80409 0.0
C3764 C 0.68868 0.65304 0.795 0.0
C3765 C 0.69197 0.66529 0.79743 0.0
C3766 C 0.68862 0.67066 0.80871 0.0
C3767 C 0.69166 0.64709 0.7832 0.0
C3768 C 0.70394 0.64361 0.78116 0.0
C3769 C 0.68223 0.64213 0.77583 0.0
C3770 C 0.66896 0.645 0.77817 0.0
C3771 C 0.66477 0.65729 0.77904 0.0
C3772 C 0.65238 0.65985 0.7818 0.0
C3773 C 0.64406 0.6502 0.78368 0.0
C3774 C 0.64811 0.63797 0.78277 0.0
C3775 C 0.66048 0.63535 0.78005 0.0
H3776 H 0.63449 0.6522 0.78585 0.0
H3777 H 0.75421 0.61854 0.77484 0.0
H3778 H 0.52417 0.86572 0.64119 0.0
H3779 H 0.52385 0.87596 0.66135 0.0
H3780 H 0.54795 0.90415 0.64648 0.0
H3781 H 0.54744 0.8944 0.62646 0.0
H3782 H 0.53772 0.87841 0.67761 0.0
H3783 H 0.55174 0.92882 0.66149 0.0
H3784 H 0.54458 0.94457 0.64658 0.0
H3785 H 0.50983 0.92605 0.64357 0.0
H3786 H 0.51673 0.91024 0.65856 0.0
H3787 H 0.56991 0.92055 0.72259 0.0
H3788 H 0.56631 0.91621 0.70053 0.0
H3789 H 0.52798 0.90948 0.70866 0.0
H3790 H 0.53187 0.91196 0.73068 0.0
H3791 H 0.54337 0.92313 0.68327 0.0
H3792 H 0.52557 0.88962 0.70459 0.0
H3793 H 0.5216 0.87742 0.7229 0.0
H3794 H 0.56591 0.8523 0.72281 0.0
H3795 H 0.57066 0.86516 0.70582 0.0
C3796 C 0.52925 0.87421 0.64232 0.0
C3797 C 0.53646 0.87892 0.63254 0.0
C3798 C 0.5291 0.88008 0.65386 0.0
C3799 C 0.53604 0.89086 0.65578 0.0
C3800 C 0.54231 0.89603 0.64553 0.0
C3801 C 0.54235 0.89025 0.63405 0.0
C3802 C 0.5379 0.89607 0.66849 0.0
C3803 C 0.53991 0.88801 0.67869 0.0
C3804 C 0.53896 0.90894 0.67034 0.0
C3805 C 0.53481 0.91827 0.66108 0.0
C3806 C 0.54256 0.92811 0.65766 0.0
C3807 C 0.53855 0.93705 0.64919 0.0
C3808 C 0.52677 0.93629 0.64411 0.0
C3809 C 0.51898 0.92659 0.64748 0.0
C3810 C 0.52295 0.91761 0.65594 0.0
C3811 C 0.56075 0.91811 0.71953 0.0
C3812 C 0.55137 0.91548 0.72809 0.0
C3813 C 0.55873 0.9156 0.70708 0.0
C3814 C 0.54727 0.91093 0.70353 0.0
C3815 C 0.53724 0.91147 0.71169 0.0
C3816 C 0.53937 0.91325 0.72412 0.0
C3817 C 0.54562 0.90519 0.69151 0.0
C3818 C 0.54299 0.91325 0.68173 0.0
C3819 C 0.54458 0.89214 0.6902 0.0
C3820 C 0.54585 0.88284 0.70146 0.0
C3821 C 0.53301 0.88381 0.70796 0.0
C3822 C 0.53083 0.87533 0.71913 0.0
C3823 C 0.54676 0.86023 0.72583 0.0
C3824 C 0.55905 0.85893 0.7197 0.0
C3825 C 0.56125 0.86746 0.70904 0.0
H3826 H 0.54676 0.85348 0.7335 0.0
H3827 H 0.52367 0.94324 0.63757 0.0
H3828 H 0.38089 0.3559 0.92314 0.0
H3829 H 0.38011 0.33856 0.90866 0.0
H3830 H 0.38905 0.3132 0.93826 0.0
H3831 H 0.3903 0.33045 0.95249 0.0
H3832 H 0.40474 0.31156 0.92205 0.0
H3833 H 0.36524 0.30672 0.92279 0.0
H3834 H 0.34269 0.30922 0.92391 0.0
H3835 H 0.34236 0.3235 0.88682 0.0
H3836 H 0.36503 0.32125 0.88552 0.0
H3837 H 0.42425 0.27037 0.89514 0.0
H3838 H 0.40862 0.28297 0.90545 0.0
H3839 H 0.39551 0.29588 0.87006 0.0
H3840 H 0.41065 0.28283 0.85982 0.0
H3841 H 0.37968 0.30076 0.88742 0.0
H3842 H 0.42582 0.33648 0.87905 0.0
H3843 H 0.4444 0.34362 0.87297 0.0
H3844 H 0.46305 0.32341 0.9007 0.0
H3845 H 0.44524 0.31532 0.90827 0.0
C3846 C 0.38227 0.34657 0.92655 0.0
C3847 C 0.38596 0.34443 0.93874 0.0
C3848 C 0.38174 0.33666 0.91835 0.0
C3849 C 0.38467 0.3246 0.92239 0.0
C3850 C 0.3869 0.32242 0.93493 0.0
C3851 C 0.38765 0.33228 0.94301 0.0
C3852 C 0.38814 0.3151 0.91321 0.0
C3853 C 0.40039 0.31064 0.91315 0.0
C3854 C 0.38051 0.31226 0.90334 0.0
C3855 C 0.36691 0.31402 0.90411 0.0
C3856 C 0.36042 0.31059 0.91492 0.0
C3857 C 0.34759 0.3119 0.91557 0.0
C3858 C 0.3411 0.31657 0.90546 0.0
C3859 C 0.34742 0.31992 0.89466 0.0
C3860 C 0.36027 0.31862 0.89395 0.0
C3861 C 0.41732 0.27505 0.88962 0.0
C3862 C 0.4189 0.27651 0.87691 0.0
C3863 C 0.40856 0.28239 0.89547 0.0
C3864 C 0.4019 0.291 0.88836 0.0
C3865 C 0.40109 0.28963 0.87558 0.0
C3866 C 0.40966 0.28211 0.86977 0.0
C3867 C 0.39853 0.30278 0.89381 0.0
C3868 C 0.38572 0.30532 0.89388 0.0
C3869 C 0.40753 0.30965 0.9014 0.0
C3870 C 0.43075 0.32269 0.89452 0.0
C3871 C 0.43286 0.33223 0.88461 0.0
C3872 C 0.44414 0.33705 0.88056 0.0
C3873 C 0.455 0.33363 0.88604 0.0
C3874 C 0.45454 0.32582 0.89602 0.0
C3875 C 0.44331 0.32108 0.90028 0.0
H3876 H 0.46371 0.33734 0.88282 0.0
H3877 H 0.33116 0.31754 0.90597 0.0
H3878 H 0.0183 0.18092 0.136 0.0
H3879 H 0.02555 0.16851 0.15313 0.0
H3880 H 0.02184 0.13558 0.13102 0.0
H3881 H 0.01255 0.14816 0.1146 0.0
H3882 H 0.01749 0.12756 0.14972 0.0
H3883 H 0.0508 0.15094 0.14251 0.0
H3884 H 0.06462 0.16814 0.13716 0.0
H3885 H 0.05763 0.18462 0.17244 0.0
H3886 H 0.04383 0.16767 0.17795 0.0
H3887 H 0.03651 0.13232 0.22074 0.0
H3888 H 0.04314 0.13444 0.19926 0.0
H3889 H 0.00614 0.1255 0.18759 0.0
H3890 H 0.0002 0.12176 0.20903 0.0
H3891 H 0.04108 0.14758 0.18292 0.0
H3892 H 0.00218 0.11562 0.1599 0.0
H3893 H 0.99512 0.09435 0.16318 0.0
H3894 H 0.02775 0.08612 0.184 0.0
H3895 H 0.03506 0.10738 0.1808 0.0
C3896 C 0.01894 0.17099 0.13492 0.0
C3897 C 0.01441 0.16537 0.12434 0.0
C3898 C 0.02347 0.16384 0.14462 0.0
C3899 C 0.02466 0.15093 0.14354 0.0
C3900 C 0.02089 0.14542 0.13241 0.0
C3901 C 0.01562 0.15258 0.12296 0.0
C3902 C 0.02857 0.14335 0.1545 0.0
C3903 C 0.02282 0.13193 0.15685 0.0
C3904 C 0.03673 0.14806 0.16355 0.0
C3905 C 0.04584 0.15804 0.1606 0.0
C3906 C 0.0521 0.15825 0.14914 0.0
C3907 C 0.05999 0.16799 0.14605 0.0
C3908 C 0.06191 0.17753 0.1544 0.0
C3909 C 0.05607 0.17728 0.16591 0.0
C3910 C 0.04818 0.16757 0.16902 0.0
C3911 C 0.02992 0.13062 0.21348 0.0
C3912 C 0.01779 0.12715 0.21641 0.0
C3913 C 0.03367 0.1319 0.20118 0.0
C3914 C 0.02524 0.13008 0.19155 0.0
C3915 C 0.01308 0.12651 0.19463 0.0
C3916 C 0.00954 0.12462 0.20693 0.0
C3917 C 0.02863 0.13288 0.17841 0.0
C3918 C 0.03605 0.14317 0.17561 0.0
C3919 C 0.02347 0.12623 0.16853 0.0
C3920 C 0.0191 0.11329 0.17022 0.0
C3921 C 0.00788 0.10935 0.16516 0.0
C3922 C 0.00382 0.09725 0.16703 0.0
C3923 C 0.01095 0.08889 0.17384 0.0
C3924 C 0.02219 0.09262 0.17877 0.0
C3925 C 0.02627 0.10472 0.17697 0.0
H3926 H 0.0078 0.07953 0.17527 0.0
H3927 H 0.06798 0.18508 0.15198 0.0
H3928 H 0.14878 0.79002 0.41516 0.0
H3929 H 0.15442 0.79169 0.39337 0.0
H3930 H 0.12751 0.82088 0.38862 0.0
H3931 H 0.12262 0.81987 0.41077 0.0
H3932 H 0.13847 0.78611 0.37767 0.0
H3933 H 0.1333 0.83762 0.36573 0.0
H3934 H 0.14169 0.85754 0.37268 0.0
H3935 H 0.17444 0.83912 0.38557 0.0
H3936 H 0.16615 0.81911 0.37886 0.0
H3937 H 0.12031 0.80232 0.31327 0.0
H3938 H 0.12633 0.8132 0.33206 0.0
H3939 H 0.15297 0.78442 0.33997 0.0
H3940 H 0.14661 0.77336 0.32169 0.0
H3941 H 0.14511 0.82023 0.34835 0.0
H3942 H 0.1467 0.77094 0.3589 0.0
H3943 H 0.12889 0.74155 0.36857 0.0
H3944 H 0.09283 0.75749 0.36293 0.0
H3945 H 0.09764 0.77732 0.35654 0.0
C3946 C 0.1441 0.79683 0.40946 0.0
C3947 C 0.1347 0.8043 0.41443 0.0
C3948 C 0.1475 0.79794 0.39708 0.0
C3949 C 0.14147 0.80647 0.38935 0.0
C3950 C 0.13244 0.81435 0.39442 0.0
C3951 C 0.12922 0.8134 0.40694 0.0
C3952 C 0.14244 0.80504 0.37578 0.0
C3953 C 0.13941 0.79348 0.3711 0.0
C3954 C 0.14427 0.81496 0.36756 0.0
C3955 C 0.14909 0.82691 0.37186 0.0
C3956 C 0.14228 0.83785 0.37007 0.0
C3957 C 0.147 0.84914 0.374 0.0
C3958 C 0.15859 0.8496 0.37957 0.0
C3959 C 0.16545 0.83876 0.3813 0.0
C3960 C 0.16071 0.82744 0.37751 0.0
C3961 C 0.12779 0.79867 0.31883 0.0
C3962 C 0.13238 0.78672 0.31699 0.0
C3963 C 0.13127 0.8049 0.3294 0.0
C3964 C 0.1394 0.79901 0.33754 0.0
C3965 C 0.14617 0.78861 0.33392 0.0
C3966 C 0.14248 0.78227 0.32365 0.0
C3967 C 0.13862 0.80149 0.35056 0.0
C3968 C 0.14273 0.81297 0.35489 0.0
C3969 C 0.13554 0.79177 0.35882 0.0
C3970 C 0.12819 0.77943 0.3557 0.0
C3971 C 0.13678 0.7688 0.35934 0.0
C3972 C 0.12554 0.75069 0.36555 0.0
C3973 C 0.11146 0.7495 0.36592 0.0
C3974 C 0.10259 0.75948 0.36222 0.0
C3975 C 0.10645 0.77232 0.35774 0.0
H3976 H 0.10758 0.74083 0.36905 0.0
H3977 H 0.16225 0.85835 0.38254 0.0
H3978 H 0.73019 0.53038 0.89232 0.0
H3979 H 0.708 0.5263 0.89134 0.0
H3980 H 0.70429 0.53634 0.92968 0.0
H3981 H 0.72631 0.54181 0.93013 0.0
H3982 H 0.68974 0.51304 0.90982 0.0
H3983 H 0.7119 0.55346 0.9082 0.0
H3984 H 0.72225 0.58378 0.8893 0.0
H3985 H 0.67662 0.58487 0.88382 0.0
H3986 H 0.67179 0.56647 0.89691 0.0
H3987 H 0.62324 0.54405 0.90454 0.0
H3988 H 0.64359 0.54226 0.9146 0.0
H3989 H 0.65763 0.52249 0.88303 0.0
H3990 H 0.6375 0.52438 0.87306 0.0
H3991 H 0.66579 0.55141 0.90684 0.0
H3992 H 0.67743 0.50175 0.89104 0.0
H3993 H 0.66741 0.48134 0.89073 0.0
H3994 H 0.64304 0.49248 0.92011 0.0
H3995 H 0.65286 0.51296 0.92052 0.0
C3996 C 0.72451 0.53211 0.90034 0.0
C3997 C 0.72937 0.53804 0.91067 0.0
C3998 C 0.71197 0.5294 0.89992 0.0
C3999 C 0.70446 0.53201 0.91016 0.0
C4000 C 0.70994 0.53492 0.92151 0.0
C4001 C 0.7225 0.53801 0.92177 0.0
C4002 C 0.69103 0.53288 0.90857 0.0
C4003 C 0.68465 0.5216 0.90845 0.0
C4004 C 0.68455 0.54433 0.90675 0.0
C4005 C 0.69054 0.55676 0.90289 0.0
C4006 C 0.70606 0.55946 0.90326 0.0
C4007 C 0.71175 0.57984 0.89075 0.0
C4008 C 0.69804 0.58648 0.88483 0.0
C4009 C 0.6845 0.57993 0.8875 0.0
C4010 C 0.68122 0.56705 0.8956 0.0
C4011 C 0.63076 0.5395 0.89971 0.0
C4012 C 0.62897 0.535 0.88769 0.0
C4013 C 0.64235 0.53831 0.90554 0.0
C4014 C 0.65231 0.5323 0.8996 0.0
C4015 C 0.65021 0.52715 0.88791 0.0
C4016 C 0.6387 0.52838 0.88211 0.0
C4017 C 0.66519 0.53216 0.90482 0.0
C4018 C 0.67144 0.54339 0.90646 0.0
C4019 C 0.67194 0.52109 0.90617 0.0
C4020 C 0.66584 0.50889 0.90576 0.0
C4021 C 0.66993 0.49983 0.89742 0.0
C4022 C 0.66427 0.48827 0.89721 0.0
C4023 C 0.65458 0.48562 0.90539 0.0
C4024 C 0.6505 0.49455 0.91375 0.0
C4025 C 0.65607 0.50616 0.91393 0.0
H4026 H 0.65025 0.47665 0.90525 0.0
H4027 H 0.7061 0.58414 0.88728 0.0
H4028 H 0.64881 0.40682 0.05122 0.0
H4029 H 0.65986 0.40595 0.03142 0.0
H4030 H 0.68697 0.4312 0.04561 0.0
H4031 H 0.67462 0.43368 0.0642 0.0
H4032 H 0.68722 0.43479 0.02405 0.0
H4033 H 0.68856 0.39551 0.04642 0.0
H4034 H 0.67986 0.37665 0.05592 0.0
H4035 H 0.66346 0.36698 0.02135 0.0
H4036 H 0.672 0.38583 0.01168 0.0
H4037 H 0.74464 0.41623 0.00784 0.0
H4038 H 0.72504 0.41872 0.01766 0.0
H4039 H 0.70822 0.39637 0.98962 0.0
H4040 H 0.7291 0.39087 0.98177 0.0
H4041 H 0.69808 0.39218 0.01127 0.0
H4042 H 0.70819 0.43232 0.99103 0.0
H4043 H 0.72436 0.448 0.98765 0.0
H4044 H 0.72649 0.45393 0.02673 0.0
H4045 H 0.71037 0.43839 0.03034 0.0
C4046 C 0.65689 0.41252 0.04983 0.0
C4047 C 0.66135 0.41981 0.05945 0.0
C4048 C 0.66336 0.41182 0.03863 0.0
C4049 C 0.67467 0.41796 0.03715 0.0
C4050 C 0.67844 0.4261 0.04646 0.0
C4051 C 0.67163 0.42724 0.05734 0.0
C4052 C 0.68308 0.41547 0.02649 0.0
C4053 C 0.6895 0.42545 0.02124 0.0
C4054 C 0.68605 0.40332 0.02254 0.0
C4055 C 0.68071 0.39216 0.0284 0.0
C4056 C 0.683 0.3894 0.04089 0.0
C4057 C 0.67813 0.37871 0.04629 0.0
C4058 C 0.67107 0.37066 0.03925 0.0
C4059 C 0.6689 0.37325 0.02679 0.0
C4060 C 0.67374 0.38393 0.02135 0.0
C4061 C 0.73694 0.41119 0.00415 0.0
C4062 C 0.73856 0.40257 0.99472 0.0
C4063 C 0.72551 0.41324 0.00937 0.0
C4064 C 0.71493 0.40841 0.004 0.0
C4065 C 0.71627 0.40037 0.99386 0.0
C4066 C 0.72811 0.39731 0.98932 0.0
C4067 C 0.70278 0.41139 0.00969 0.0
C4068 C 0.69546 0.40153 0.01377 0.0
C4069 C 0.69967 0.4236 0.0134 0.0
C4070 C 0.70791 0.43429 0.01091 0.0
C4071 C 0.71192 0.43716 0.99886 0.0
C4072 C 0.72115 0.44597 0.99693 0.0
C4073 C 0.72642 0.45198 0.00696 0.0
C4074 C 0.72234 0.44935 0.01895 0.0
C4075 C 0.71307 0.44064 0.02094 0.0
H4076 H 0.73368 0.45864 0.00545 0.0
H4077 H 0.66732 0.36239 0.04345 0.0
H4078 H 0.92429 0.71226 0.56198 0.0
H4079 H 0.92714 0.69293 0.55039 0.0
H4080 H 0.894 0.70119 0.52988 0.0
H4081 H 0.89149 0.72031 0.54099 0.0
H4082 H 0.91637 0.67325 0.54697 0.0
H4083 H 0.89645 0.69434 0.50032 0.0
H4084 H 0.90377 0.71045 0.48587 0.0
H4085 H 0.93831 0.71201 0.50495 0.0
H4086 H 0.93126 0.69592 0.51948 0.0
H4087 H 0.87487 0.63707 0.50497 0.0
H4088 H 0.88345 0.65775 0.50577 0.0
H4089 H 0.91429 0.64379 0.52684 0.0
H4090 H 0.90572 0.62312 0.52603 0.0
H4091 H 0.9032 0.67204 0.50519 0.0
H4092 H 0.89032 0.65012 0.57247 0.0
H4093 H 0.87502 0.64752 0.58642 0.0
H4094 H 0.8481 0.66173 0.56208 0.0
H4095 H 0.86221 0.66575 0.54715 0.0
C4096 C 0.91754 0.70972 0.55514 0.0
C4097 C 0.90739 0.7175 0.5527 0.0
C4098 C 0.91928 0.69883 0.54841 0.0
C4099 C 0.91102 0.69579 0.53898 0.0
C4100 C 0.90075 0.70347 0.53682 0.0
C4101 C 0.89902 0.71422 0.54353 0.0
C4102 C 0.91196 0.68402 0.53209 0.0
C4103 C 0.91088 0.67292 0.53872 0.0
C4104 C 0.90918 0.68389 0.51958 0.0
C4105 C 0.91326 0.69392 0.51106 0.0
C4106 C 0.90561 0.6981 0.50145 0.0
C4107 C 0.90971 0.70725 0.49324 0.0
C4108 C 0.92149 0.71226 0.4945 0.0
C4109 C 0.92917 0.70817 0.50401 0.0
C4110 C 0.92509 0.69907 0.51228 0.0
C4111 C 0.88394 0.63831 0.50893 0.0
C4112 C 0.88936 0.62912 0.51623 0.0
C4113 C 0.88876 0.65008 0.50948 0.0
C4114 C 0.89875 0.65207 0.51735 0.0
C4115 C 0.90611 0.64223 0.52139 0.0
C4116 C 0.9013 0.63049 0.52082 0.0
C4117 C 0.89992 0.66388 0.52336 0.0
C4118 C 0.90378 0.6733 0.51511 0.0
C4119 C 0.89973 0.66504 0.53715 0.0
C4120 C 0.8804 0.65923 0.556 0.0
C4121 C 0.88183 0.65353 0.56862 0.0
C4122 C 0.87266 0.65159 0.57756 0.0
C4123 C 0.86061 0.6547 0.57535 0.0
C4124 C 0.85763 0.65947 0.56403 0.0
C4125 C 0.86671 0.66164 0.55507 0.0
H4126 H 0.85357 0.65327 0.58234 0.0
H4127 H 0.92467 0.71929 0.4881 0.0
H4128 H 0.01845 0.28011 0.21213 0.0
H4129 H 0.01593 0.26998 0.19229 0.0
H4130 H 0.04822 0.24774 0.19933 0.0
H4131 H 0.04959 0.25651 0.22007 0.0
H4132 H 0.02797 0.26324 0.17104 0.0
H4133 H 0.04386 0.22766 0.19981 0.0
H4134 H 0.04418 0.21856 0.22075 0.0
H4135 H 0.00463 0.22014 0.22232 0.0
H4136 H 0.00423 0.22963 0.20151 0.0
H4137 H 0.01842 0.2153 0.12815 0.0
H4138 H 0.02628 0.22892 0.14378 0.0
H4139 H 0.99439 0.22169 0.1667 0.0
H4140 H 0.98641 0.20758 0.151 0.0
H4141 H 0.01537 0.22006 0.17971 0.0
H4142 H 0.99796 0.24971 0.15148 0.0
H4143 H 0.99469 0.25867 0.13074 0.0
H4144 H 0.03344 0.2662 0.12743 0.0
H4145 H 0.03695 0.25717 0.14811 0.0
C4146 C 0.02537 0.27343 0.20926 0.0
C4147 C 0.03393 0.26879 0.21783 0.0
C4148 C 0.02375 0.26744 0.19796 0.0
C4149 C 0.0312 0.25724 0.19484 0.0
C4150 C 0.04158 0.25466 0.20213 0.0
C4151 C 0.04274 0.26013 0.21374 0.0
C4152 C 0.02727 0.24878 0.18479 0.0
C4153 C 0.02544 0.25373 0.1729 0.0
C4154 C 0.0236 0.23639 0.18722 0.0
C4155 C 0.02407 0.23058 0.19967 0.0
C4156 C 0.03529 0.22669 0.20489 0.0
C4157 C 0.03548 0.22128 0.21666 0.0
C4158 C 0.02444 0.21921 0.22307 0.0
C4159 C 0.01319 0.22217 0.21755 0.0
C4160 C 0.013 0.2277 0.20585 0.0
C4161 C 0.0129 0.21662 0.13643 0.0
C4162 C 0.00171 0.21026 0.13828 0.0
C4163 C 0.01746 0.22451 0.14537 0.0
C4164 C 0.0109 0.22646 0.15637 0.0
C4165 C -0.00039 0.22033 0.15825 0.0
C4166 C 0.99502 0.21232 0.14926 0.0
C4167 C 0.01617 0.23452 0.16604 0.0
C4168 C 0.01814 0.2295 0.17781 0.0
C4169 C 0.01989 0.2468 0.16353 0.0
C4170 C 0.01773 0.25271 0.15132 0.0
C4171 C 0.00578 0.25327 0.14632 0.0
C4172 C 0.00389 0.25835 0.13458 0.0
C4173 C 0.01385 0.26298 0.12776 0.0
C4174 C 0.02573 0.26261 0.13272 0.0
C4175 C 0.02767 0.25754 0.14446 0.0
H4176 H 0.01238 0.26687 0.11865 0.0
H4177 H 0.02458 0.21509 0.23219 0.0
H4178 H 0.08033 0.75176 0.32649 0.0
H4179 H 0.05895 0.75651 0.33198 0.0
H4180 H 0.05935 0.78774 0.30706 0.0
H4181 H 0.08091 0.78287 0.30133 0.0
H4182 H 0.05273 0.79087 0.33505 0.0
H4183 H 0.04221 0.76565 0.29855 0.0
H4184 H 0.04504 0.746 0.28743 0.0
H4185 H 0.03245 0.72587 0.31936 0.0
H4186 H 0.02966 0.74535 0.33069 0.0
H4187 H -0.00044 0.7989 0.36909 0.0
H4188 H 0.01166 0.80037 0.34996 0.0
H4189 H 0.00835 0.76083 0.3456 0.0
H4190 H 0.994 0.76022 0.36263 0.0
H4191 H 0.01565 0.76579 0.32689 0.0
H4192 H 0.03377 0.78058 0.36485 0.0
H4193 H 0.03654 0.7941 0.38286 0.0
H4194 H 0.04045 0.82552 0.35876 0.0
H4195 H 0.03766 0.81217 0.34061 0.0
C4196 C 0.0758 0.75951 0.32199 0.0
C4197 C 0.08226 0.76698 0.3135 0.0
C4198 C 0.06358 0.76218 0.32511 0.0
C4199 C 0.05759 0.77244 0.3199 0.0
C4200 C 0.06384 0.77973 0.31111 0.0
C4201 C 0.07609 0.77692 0.30781 0.0
C4202 C 0.0452 0.77599 0.32459 0.0
C4203 C 0.04447 0.7856 0.33314 0.0
C4204 C 0.03476 0.76856 0.32264 0.0
C4205 C 0.03566 0.75698 0.31543 0.0
C4206 C 0.04 0.75704 0.30317 0.0
C4207 C 0.04162 0.74592 0.29684 0.0
C4208 C 0.03891 0.7347 0.30268 0.0
C4209 C 0.0345 0.73456 0.31483 0.0
C4210 C 0.03285 0.74564 0.32119 0.0
C4211 C 0.00072 0.79077 0.36342 0.0
C4212 C 0.99611 0.77935 0.36746 0.0
C4213 C 0.00809 0.79146 0.35273 0.0
C4214 C 0.01198 0.78057 0.34672 0.0
C4215 C 0.00596 0.76949 0.34995 0.0
C4216 C 0.99772 0.76906 0.35988 0.0
C4217 C 0.02313 0.78022 0.33833 0.0
C4218 C 0.02368 0.77131 0.3289 0.0
C4219 C 0.03391 0.78735 0.34053 0.0
C4220 C 0.03529 0.79544 0.35141 0.0
C4221 C 0.03513 0.79039 0.36341 0.0
C4222 C 0.03672 0.79801 0.37364 0.0
C4223 C 0.0386 0.81067 0.37196 0.0
C4224 C 0.03894 0.81573 0.36005 0.0
C4225 C 0.03736 0.80814 0.34979 0.0
H4226 H 0.03985 0.81656 0.37989 0.0
H4227 H 0.04023 0.72611 0.29779 0.0
H4228 H 0.54115 0.7475 0.68266 0.0
H4229 H 0.53213 0.75546 0.66339 0.0
H4230 H 0.52639 0.79083 0.68096 0.0
H4231 H 0.53303 0.78223 0.70019 0.0
H4232 H 0.51445 0.79344 0.66434 0.0
H4233 H 0.55685 0.77378 0.66291 0.0
H4234 H 0.5709 0.75568 0.66192 0.0
H4235 H 0.55139 0.74211 0.63053 0.0
H4236 H 0.53693 0.75978 0.63166 0.0
H4237 H 0.56112 0.82636 0.62506 0.0
H4238 H 0.55449 0.80843 0.63689 0.0
H4239 H 0.5183 0.81116 0.62078 0.0
H4240 H 0.52471 0.82959 0.60917 0.0
H4241 H 0.5449 0.78568 0.63094 0.0
H4242 H 0.50238 0.81084 0.63751 0.0
H4243 H 0.49379 0.83171 0.64122 0.0
H4244 H 0.5226 0.83882 0.66722 0.0
H4245 H 0.53143 0.8181 0.66347 0.0
C4246 C 0.53717 0.7567 0.68249 0.0
C4247 C 0.53811 0.76439 0.69283 0.0
C4248 C 0.5324 0.76146 0.67132 0.0
C4249 C 0.52943 0.77416 0.67016 0.0
C4250 C 0.52875 0.78111 0.68109 0.0
C4251 C 0.53267 0.77616 0.69228 0.0
C4252 C 0.52876 0.78092 0.65792 0.0
C4253 C 0.52115 0.79155 0.65711 0.0
C4254 C 0.53712 0.77863 0.64795 0.0
C4255 C 0.54568 0.76793 0.64753 0.0
C4256 C 0.55552 0.76687 0.65587 0.0
C4257 C 0.56354 0.7567 0.6553 0.0
C4258 C 0.56205 0.74779 0.64617 0.0
C4259 C 0.5525 0.74898 0.63764 0.0
C4260 C 0.54433 0.759 0.6383 0.0
C4261 C 0.55178 0.8231 0.62382 0.0
C4262 C 0.54343 0.82958 0.61621 0.0
C4263 C 0.548 0.81281 0.63065 0.0
C4264 C 0.53581 0.80861 0.62997 0.0
C4265 C 0.52766 0.81445 0.62172 0.0
C4266 C 0.53141 0.82488 0.61494 0.0
C4267 C 0.53173 0.79853 0.63845 0.0
C4268 C 0.53816 0.78727 0.63824 0.0
C4269 C 0.52303 0.80064 0.64798 0.0
C4270 C 0.51763 0.81304 0.65009 0.0
C4271 C 0.50691 0.81691 0.64394 0.0
C4272 C 0.502 0.8287 0.64605 0.0
C4273 C 0.50766 0.8366 0.65442 0.0
C4274 C 0.51824 0.83272 0.6607 0.0
C4275 C 0.52322 0.82099 0.65855 0.0
H4276 H 0.50384 0.84571 0.65606 0.0
H4277 H 0.56832 0.73998 0.6457 0.0
H4278 H 0.49783 0.27943 0.99148 0.0
H4279 H 0.48952 0.27404 0.97139 0.0
H4280 H 0.52636 0.27291 0.95624 0.0
H4281 H 0.53471 0.27778 0.97647 0.0
H4282 H 0.50314 0.29562 0.95332 0.0
H4283 H 0.52054 0.25522 0.94296 0.0
H4284 H 0.52423 0.23303 0.94682 0.0
H4285 H 0.48514 0.22689 0.94875 0.0
H4286 H 0.48125 0.2491 0.94499 0.0
H4287 H 0.48269 0.28722 0.88539 0.0
H4288 H 0.49645 0.28356 0.90305 0.0
H4289 H 0.46601 0.2898 0.92808 0.0
H4290 H 0.45235 0.29343 0.91061 0.0
H4291 H 0.48897 0.26368 0.92426 0.0
H4292 H 0.48529 0.31084 0.95027 0.0
H4293 H 0.48598 0.33324 0.94615 0.0
H4294 H 0.50314 0.32666 0.91096 0.0
H4295 H 0.50304 0.30425 0.91507 0.0
C4296 C 0.50424 0.27695 0.98416 0.0
C4297 C 0.51691 0.27933 0.9855 0.0
C4298 C 0.49944 0.27405 0.97257 0.0
C4299 C 0.50728 0.27327 0.96223 0.0
C4300 C 0.52011 0.27334 0.96408 0.0
C4301 C 0.52491 0.27598 0.97577 0.0
C4302 C 0.50214 0.27618 0.94983 0.0
C4303 C 0.50021 0.28867 0.94685 0.0
C4304 C 0.49838 0.26708 0.94142 0.0
C4305 C 0.50062 0.25382 0.94388 0.0
C4306 C 0.51275 0.24916 0.94437 0.0
C4307 C 0.51487 0.23658 0.94648 0.0
C4308 C 0.50492 0.22856 0.94808 0.0
C4309 C 0.49283 0.23312 0.94753 0.0
C4310 C 0.49067 0.24569 0.9454 0.0
C4311 C 0.47896 0.28791 0.89467 0.0
C4312 C 0.46636 0.29066 0.89655 0.0
C4313 C 0.48683 0.28582 0.90474 0.0
C4314 C 0.48226 0.28645 0.91689 0.0
C4315 C 0.46978 0.28943 0.91879 0.0
C4316 C 0.46194 0.29156 0.90875 0.0
C4317 C 0.49018 0.28324 0.92764 0.0
C4318 C 0.49227 0.2707 0.93051 0.0
C4319 C 0.49457 0.29236 0.93576 0.0
C4320 C 0.49383 0.30578 0.93284 0.0
C4321 C 0.48913 0.31414 0.9416 0.0
C4322 C 0.48949 0.32686 0.93931 0.0
C4323 C 0.49443 0.33136 0.92822 0.0
C4324 C 0.49914 0.32315 0.91947 0.0
C4325 C 0.49892 0.31042 0.92177 0.0
H4326 H 0.49471 0.34121 0.92648 0.0
H4327 H 0.50658 0.21882 0.9497 0.0
H4328 H 0.0975 0.76501 0.44577 0.0
H4329 H 0.09816 0.74242 0.44595 0.0
H4330 H 0.13731 0.74318 0.45264 0.0
H4331 H 0.13678 0.76576 0.45257 0.0
H4332 H 0.12849 0.72854 0.4313 0.0
H4333 H 0.11943 0.73452 0.47572 0.0
H4334 H 0.10601 0.74431 0.4914 0.0
H4335 H 0.07441 0.72627 0.47626 0.0
H4336 H 0.08762 0.71648 0.46043 0.0
H4337 H 0.13029 0.66696 0.42282 0.0
H4338 H 0.13578 0.6852 0.43459 0.0
H4339 H 0.09904 0.68592 0.45032 0.0
H4340 H 0.09447 0.66675 0.44013 0.0
H4341 H 0.10829 0.70083 0.46186 0.0
H4342 H 0.10958 0.6999 0.41785 0.0
H4343 H 0.11581 0.69401 0.39672 0.0
H4344 H 0.15294 0.70534 0.40404 0.0
H4345 H 0.14686 0.71122 0.42523 0.0
C4346 C 0.10623 0.76039 0.44751 0.0
C4347 C 0.11708 0.76723 0.4492 0.0
C4348 C 0.10658 0.74747 0.4476 0.0
C4349 C 0.11778 0.74114 0.44934 0.0
C4350 C 0.12857 0.7479 0.45132 0.0
C4351 C 0.12822 0.76082 0.45136 0.0
C4352 C 0.11838 0.72748 0.44837 0.0
C4353 C 0.12434 0.72239 0.43809 0.0
C4354 C 0.11223 0.71961 0.4568 0.0
C4355 C 0.10453 0.72472 0.46694 0.0
C4356 C 0.10963 0.73259 0.47579 0.0
C4357 C 0.10205 0.73817 0.48468 0.0
C4358 C 0.08937 0.7359 0.48484 0.0
C4359 C 0.08424 0.72799 0.47616 0.0
C4360 C 0.09178 0.72238 0.46726 0.0
C4361 C 0.12378 0.67044 0.42961 0.0
C4362 C 0.11166 0.66589 0.42999 0.0
C4363 C 0.12672 0.68126 0.43596 0.0
C4364 C 0.11743 0.68783 0.44235 0.0
C4365 C 0.10637 0.68154 0.44507 0.0
C4366 C 0.10377 0.6703 0.43933 0.0
C4367 C 0.11843 0.70151 0.44456 0.0
C4368 C 0.11272 0.70675 0.45507 0.0
C4369 C 0.12392 0.70967 0.43572 0.0
C4370 C 0.12781 0.7057 0.42319 0.0
C4371 C 0.11908 0.70095 0.41498 0.0
C4372 C 0.12258 0.69767 0.40299 0.0
C4373 C 0.13479 0.69919 0.39907 0.0
C4374 C 0.1435 0.70408 0.40712 0.0
C4375 C 0.14003 0.70739 0.41912 0.0
H4376 H 0.13749 0.69666 0.38978 0.0
H4377 H 0.08351 0.74029 0.49168 0.0
H4378 H 0.67454 0.8646 0.70032 0.0
H4379 H 0.66839 0.87807 0.71752 0.0
H4380 H 0.64097 0.89521 0.69404 0.0
H4381 H 0.64827 0.88321 0.67687 0.0
H4382 H 0.64377 0.90985 0.70934 0.0
H4383 H 0.64081 0.86361 0.71582 0.0
H4384 H 0.65119 0.84365 0.72045 0.0
H4385 H 0.66735 0.85918 0.7528 0.0
H4386 H 0.65757 0.8793 0.7481 0.0
H4387 H 0.58836 0.91961 0.74385 0.0
H4388 H 0.60722 0.91905 0.73324 0.0
H4389 H 0.61998 0.88988 0.75794 0.0
H4390 H 0.59958 0.88916 0.76678 0.0
H4391 H 0.63099 0.88301 0.74398 0.0
H4392 H 0.63343 0.93215 0.73173 0.0
H4393 H 0.62261 0.95025 0.72269 0.0
H4394 H 0.60398 0.92665 0.69726 0.0
H4395 H 0.61479 0.90852 0.70604 0.0
C4396 C 0.66777 0.87183 0.69873 0.0
C4397 C 0.66176 0.87276 0.6873 0.0
C4398 C 0.66394 0.8793 0.70868 0.0
C4399 C 0.65358 0.88723 0.70749 0.0
C4400 C 0.64881 0.88916 0.69557 0.0
C4401 C 0.65303 0.88223 0.68561 0.0
C4402 C 0.64644 0.89236 0.71834 0.0
C4403 C 0.64099 0.90407 0.71709 0.0
C4404 C 0.64296 0.88515 0.72873 0.0
C4405 C 0.64862 0.87296 0.73151 0.0
C4406 C 0.64662 0.86274 0.72389 0.0
C4407 C 0.6524 0.85143 0.7265 0.0
C4408 C 0.65985 0.85015 0.73692 0.0
C4409 C 0.6616 0.86019 0.74472 0.0
C4410 C 0.65602 0.87156 0.74204 0.0
C4411 C 0.59539 0.91321 0.74711 0.0
C4412 C 0.59235 0.90427 0.75595 0.0
C4413 C 0.60664 0.91263 0.74069 0.0
C4414 C 0.61575 0.90351 0.74338 0.0
C4415 C 0.61327 0.89617 0.75409 0.0
C4416 C 0.60159 0.8961 0.75982 0.0
C4417 C 0.62702 0.90069 0.73496 0.0
C4418 C 0.63358 0.88939 0.73676 0.0
C4419 C 0.63113 0.90807 0.72465 0.0
C4420 C 0.62462 0.91901 0.71974 0.0
C4421 C 0.62698 0.93087 0.72426 0.0
C4422 C 0.62088 0.94112 0.71916 0.0
C4423 C 0.61255 0.93959 0.70948 0.0
C4424 C 0.61036 0.92783 0.7048 0.0
C4425 C 0.61645 0.91758 0.70983 0.0
H4426 H 0.60784 0.94753 0.70556 0.0
H4427 H 0.66427 0.84138 0.73894 0.0
H4428 H 0.41729 0.3968 0.9452 0.0
H4429 H 0.43551 0.40711 0.93619 0.0
H4430 H 0.45919 0.38157 0.95578 0.0
H4431 H 0.44146 0.3727 0.96592 0.0
H4432 H 0.47227 0.39971 0.95026 0.0
H4433 H 0.43759 0.38008 0.92499 0.0
H4434 H 0.41694 0.38497 0.91654 0.0
H4435 H 0.43197 0.41495 0.8955 0.0
H4436 H 0.45223 0.41158 0.90522 0.0
H4437 H 0.51452 0.367 0.91338 0.0
H4438 H 0.49681 0.37396 0.92563 0.0
H4439 H 0.48903 0.40224 0.89851 0.0
H4440 H 0.50701 0.39557 0.88636 0.0
H4441 H 0.46809 0.39074 0.90567 0.0
H4442 H 0.49959 0.41182 0.92402 0.0
H4443 H 0.5196 0.41691 0.93327 0.0
H4444 H 0.51189 0.39267 0.96387 0.0
H4445 H 0.49187 0.38727 0.95471 0.0
C4446 C 0.42642 0.39394 0.94812 0.0
C4447 C 0.42793 0.38358 0.95588 0.0
C4448 C 0.43687 0.39964 0.94275 0.0
C4449 C 0.44876 0.39446 0.94445 0.0
C4450 C 0.45021 0.38554 0.95381 0.0
C4451 C 0.43995 0.38038 0.95962 0.0
C4452 C 0.45938 0.39636 0.93561 0.0
C4453 C 0.47131 0.39769 0.94052 0.0
C4454 C 0.4583 0.39469 0.92262 0.0
C4455 C 0.44637 0.39573 0.91604 0.0
C4456 C 0.43649 0.38773 0.91858 0.0
C4457 C 0.42484 0.39027 0.91363 0.0
C4458 C 0.42323 0.39998 0.90525 0.0
C4459 C 0.43321 0.40741 0.902 0.0
C4460 C 0.44471 0.40539 0.90745 0.0
C4461 C 0.50912 0.37474 0.91001 0.0
C4462 C 0.51233 0.38078 0.8989 0.0
C4463 C 0.49897 0.37874 0.91707 0.0
C4464 C 0.49165 0.38875 0.9131 0.0
C4465 C 0.49457 0.39456 0.90182 0.0
C4466 C 0.50487 0.39071 0.89488 0.0
C4467 C 0.48081 0.39287 0.92065 0.0
C4468 C 0.469 0.39273 0.91542 0.0
C4469 C 0.482 0.39629 0.93317 0.0
C4470 C 0.49425 0.39903 0.93858 0.0
C4471 C 0.50222 0.40743 0.93263 0.0
C4472 C 0.51355 0.41042 0.93789 0.0
C4473 C 0.51702 0.40511 0.94914 0.0
C4474 C 0.50918 0.39677 0.95515 0.0
C4475 C 0.49783 0.39375 0.94992 0.0
H4476 H 0.52578 0.40746 0.95322 0.0
H4477 H 0.41421 0.40182 0.90138 0.0
H4478 H 0.88649 0.18746 0.22655 0.0
H4479 H 0.8958 0.16805 0.23429 0.0
H4480 H 0.92769 0.18822 0.24622 0.0
H4481 H 0.91874 0.20734 0.23824 0.0
H4482 H 0.92759 0.168 0.22458 0.0
H4483 H 0.91876 0.17963 0.26837 0.0
H4484 H 0.90386 0.18342 0.28529 0.0
H4485 H 0.88783 0.14778 0.27954 0.0
H4486 H 0.90261 0.14386 0.2625 0.0
H4487 H 0.97733 0.1516 0.26681 0.0
H4488 H 0.95561 0.15747 0.26465 0.0
H4489 H 0.95101 0.12925 0.23721 0.0
H4490 H 0.97269 0.123 0.23978 0.0
H4491 H 0.93153 0.14666 0.26502 0.0
H4492 H 0.93926 0.14823 0.21155 0.0
H4493 H 0.95386 0.15528 0.19542 0.0
H4494 H 0.975 0.17417 0.22273 0.0
H4495 H 0.96047 0.16736 0.23896 0.0
C4496 C 0.89535 0.18771 0.2311 0.0
C4497 C 0.90204 0.19878 0.23164 0.0
C4498 C 0.90058 0.17669 0.2356 0.0
C4499 C 0.91232 0.17679 0.24096 0.0
C4500 C 0.91853 0.18802 0.24228 0.0
C4501 C 0.91349 0.19889 0.23758 0.0
C4502 C 0.91963 0.16539 0.24257 0.0
C4503 C 0.92819 0.16286 0.23321 0.0
C4504 C 0.92052 0.15915 0.25399 0.0
C4505 C 0.91165 0.16153 0.26411 0.0
C4506 C 0.91198 0.17267 0.27065 0.0
C4507 C 0.90359 0.17482 0.28028 0.0
C4508 C 0.89487 0.16586 0.28346 0.0
C4509 C 0.89456 0.15472 0.27704 0.0
C4510 C 0.90294 0.15253 0.26741 0.0
C4511 C 0.97149 0.14622 0.26084 0.0
C4512 C 0.97656 0.13677 0.25357 0.0
C4513 C 0.95912 0.14961 0.25956 0.0
C4514 C 0.95176 0.14385 0.25071 0.0
C4515 C 0.95655 0.13376 0.24411 0.0
C4516 C 0.96887 0.13013 0.24567 0.0
C4517 C 0.93995 0.14973 0.24714 0.0
C4518 C 0.93054 0.1511 0.25607 0.0
C4519 C 0.93867 0.15564 0.23551 0.0
C4520 C 0.94894 0.15699 0.22652 0.0
C4521 C 0.94723 0.15358 0.21415 0.0
C4522 C 0.95537 0.15771 0.20497 0.0
C4523 C 0.96523 0.16532 0.20804 0.0
C4524 C 0.96729 0.16836 0.22036 0.0
C4525 C 0.95917 0.16425 0.22958 0.0
H4526 H 0.97136 0.16874 0.20088 0.0
H4527 H 0.88839 0.16754 0.29092 0.0
H4528 H 0.14574 0.98813 0.20813 0.0
H4529 H 0.16012 0.9928 0.22493 0.0
H4530 H 0.16083 0.03094 0.213 0.0
H4531 H 0.14758 0.02603 0.19583 0.0
H4532 H 0.18243 0.02491 0.2179 0.0
H4533 H 0.14291 0.01473 0.24413 0.0
H4534 H 0.12841 0.99832 0.25063 0.0
H4535 H 0.1589 0.97386 0.25798 0.0
H4536 H 0.17351 0.99015 0.25166 0.0
H4537 H 0.21742 0.05189 0.26066 0.0
H4538 H 0.19774 0.04925 0.25024 0.0
H4539 H 0.19077 0.01699 0.27282 0.0
H4540 H 0.20875 0.0216 0.28492 0.0
H4541 H 0.17332 0.01685 0.26207 0.0
H4542 H 0.21203 0.02059 0.2404 0.0
H4543 H 0.23102 0.03048 0.23254 0.0
H4544 H 0.2093 0.05827 0.21414 0.0
H4545 H 0.1902 0.04857 0.22195 0.0
C4546 C 0.14922 0.99743 0.20902 0.0
C4547 C 0.14577 0.00664 0.20046 0.0
C4548 C 0.15723 0.0002 0.21883 0.0
C4549 C 0.16152 0.01236 0.22054 0.0
C4550 C 0.15786 0.02147 0.21199 0.0
C4551 C 0.15024 0.01865 0.20211 0.0
C4552 C 0.1701 0.01599 0.23074 0.0
C4553 C 0.18033 0.02328 0.22759 0.0
C4554 C 0.16816 0.01311 0.24338 0.0
C4555 C 0.15925 0.00361 0.24742 0.0
C4556 C 0.14648 0.00586 0.24718 0.0
C4557 C 0.13826 0.99659 0.25083 0.0
C4558 C 0.14273 0.98506 0.2547 0.0
C4559 C 0.15544 0.98279 0.25501 0.0
C4560 C 0.16368 0.99205 0.25145 0.0
C4561 C 0.21114 0.04486 0.26404 0.0
C4562 C 0.2151 0.03627 0.27297 0.0
C4563 C 0.20014 0.04289 0.25759 0.0
C4564 C 0.19352 0.03183 0.2594 0.0
C4565 C 0.19589 0.02521 0.27041 0.0
C4566 C 0.20626 0.02798 0.27758 0.0
C4567 C 0.18551 0.02647 0.24935 0.0
C4568 C 0.1755 0.01871 0.25247 0.0
C4569 C 0.18826 0.02809 0.23654 0.0
C4570 C 0.19972 0.03397 0.2319 0.0
C4571 C 0.21133 0.02885 0.23473 0.0
C4572 C 0.22211 0.03442 0.23028 0.0
C4573 C 0.22138 0.04504 0.2229 0.0
C4574 C 0.20986 0.05007 0.21989 0.0
C4575 C 0.19906 0.04454 0.22432 0.0
H4576 H 0.22973 0.04933 0.21947 0.0
H4577 H 0.13635 0.97788 0.25746 0.0
H4578 H 0.27022 0.98227 0.5331 0.0
H4579 H 0.26057 0.96492 0.52221 0.0
H4580 H 0.28806 0.96843 0.4934 0.0
H4581 H 0.29651 0.98609 0.50324 0.0
H4582 H 0.27164 0.96061 0.48286 0.0
H4583 H 0.28075 0.94939 0.52869 0.0
H4584 H 0.27519 0.94525 0.55018 0.0
H4585 H 0.24373 0.9247 0.53842 0.0
H4586 H 0.24912 0.92892 0.51668 0.0
H4587 H 0.30223 0.90666 0.46604 0.0
H4588 H 0.29593 0.92465 0.478 0.0
H4589 H 0.26017 0.90859 0.48446 0.0
H4590 H 0.26643 0.89036 0.47254 0.0
H4591 H 0.27037 0.92104 0.50593 0.0
H4592 H 0.26052 0.92978 0.46333 0.0
H4593 H 0.26586 0.92941 0.44115 0.0
H4594 H 0.29723 0.95241 0.44783 0.0
H4595 H 0.29205 0.95289 0.47001 0.0
C4596 C 0.27385 0.97955 0.52418 0.0
C4597 C 0.28435 0.98548 0.51918 0.0
C4598 C 0.2685 0.96938 0.51807 0.0
C4599 C 0.27385 0.96468 0.50711 0.0
C4600 C 0.28356 0.97152 0.50175 0.0
C4601 C 0.28859 0.98171 0.50754 0.0
C4602 C 0.27059 0.95249 0.50117 0.0
C4603 C 0.27148 0.95206 0.48814 0.0
C4604 C 0.26908 0.94097 0.5076 0.0
C4605 C 0.26536 0.9397 0.52085 0.0
C4606 C 0.27266 0.9441 0.53053 0.0
C4607 C 0.26949 0.94173 0.54285 0.0
C4608 C 0.25908 0.93473 0.5457 0.0
C4609 C 0.25176 0.93019 0.53622 0.0
C4610 C 0.25485 0.93266 0.52389 0.0
C4611 C 0.29302 0.90686 0.47 0.0
C4612 C 0.28483 0.89701 0.46817 0.0
C4613 C 0.28944 0.91718 0.47691 0.0
C4614 C 0.27755 0.91803 0.48213 0.0
C4615 C 0.26941 0.90814 0.48059 0.0
C4616 C 0.27299 0.89775 0.47367 0.0
C4617 C 0.27353 0.92971 0.48832 0.0
C4618 C 0.27073 0.92979 0.501 0.0
C4619 C 0.2733 0.94097 0.48176 0.0
C4620 C 0.27587 0.94142 0.4683 0.0
C4621 C 0.26851 0.93481 0.46003 0.0
C4622 C 0.27153 0.93455 0.44746 0.0
C4623 C 0.2819 0.94085 0.44306 0.0
C4624 C 0.28919 0.94754 0.45121 0.0
C4625 C 0.28618 0.94788 0.46377 0.0
H4626 H 0.28426 0.94053 0.43334 0.0
H4627 H 0.2567 0.93281 0.55524 0.0
H4628 H 0.32152 0.08027 0.75184 0.0
H4629 H 0.3274 0.05891 0.75598 0.0
H4630 H 0.30373 0.05855 0.7882 0.0
H4631 H 0.29837 0.08033 0.78445 0.0
H4632 H 0.32826 0.0516 0.79246 0.0
H4633 H 0.29781 0.04205 0.75841 0.0
H4634 H 0.29285 0.04591 0.73646 0.0
H4635 H 0.32926 0.03405 0.72578 0.0
H4636 H 0.33443 0.03016 0.74757 0.0
H4637 H 0.3638 0.0017 0.80314 0.0
H4638 H 0.34336 0.01143 0.80376 0.0
H4639 H 0.33969 0.004 0.76472 0.0
H4640 H 0.35752 0.99103 0.7656 0.0
H4641 H 0.32368 0.01517 0.76573 0.0
H4642 H 0.35912 0.03301 0.78623 0.0
H4643 H 0.37498 0.03577 0.80223 0.0
H4644 H 0.34664 0.03932 0.82995 0.0
H4645 H 0.33063 0.03648 0.81411 0.0
C4646 C 0.31745 0.07559 0.75974 0.0
C4647 C 0.30966 0.082 0.76795 0.0
C4648 C 0.32069 0.06331 0.762 0.0
C4649 C 0.31585 0.05703 0.7723 0.0
C4650 C 0.30749 0.0632 0.78013 0.0
C4651 C 0.30437 0.0756 0.77796 0.0
C4652 C 0.32065 0.0446 0.77571 0.0
C4653 C 0.32727 0.0435 0.78671 0.0
C4654 C 0.32019 0.03438 0.76773 0.0
C4655 C 0.31645 0.03573 0.75463 0.0
C4656 C 0.30469 0.04016 0.75136 0.0
C4657 C 0.30187 0.04239 0.73894 0.0
C4658 C 0.31072 0.04021 0.72974 0.0
C4659 C 0.32239 0.03569 0.7329 0.0
C4660 C 0.32524 0.03341 0.74527 0.0
C4661 C 0.35801 0.00141 0.79503 0.0
C4662 C 0.36253 0.99639 0.784 0.0
C4663 C 0.34661 0.00763 0.79513 0.0
C4664 C 0.34071 0.01046 0.78385 0.0
C4665 C 0.34405 0.00308 0.77361 0.0
C4666 C 0.35449 0.99551 0.77403 0.0
C4667 C 0.33286 0.02201 0.78211 0.0
C4668 C 0.3252 0.02301 0.77161 0.0
C4669 C 0.33415 0.03282 0.78949 0.0
C4670 C 0.34372 0.03429 0.79906 0.0
C4671 C 0.3563 0.03432 0.79576 0.0
C4672 C 0.3653 0.03589 0.80479 0.0
C4673 C 0.36182 0.03765 0.81711 0.0
C4674 C 0.34933 0.03789 0.82041 0.0
C4675 C 0.34028 0.03628 0.81143 0.0
H4676 H 0.3688 0.03888 0.82408 0.0
H4677 H 0.30855 0.04204 0.72015 0.0
H4678 H 0.25429 0.22167 0.03975 0.0
H4679 H 0.24706 0.20061 0.04046 0.0
H4680 H 0.27879 0.18902 0.01904 0.0
H4681 H 0.28554 0.21045 0.01766 0.0
H4682 H 0.25918 0.18608 0.00638 0.0
H4683 H 0.26854 0.17519 0.04887 0.0
H4684 H 0.26881 0.17884 0.07133 0.0
H4685 H 0.22926 0.1816 0.0719 0.0
H4686 H 0.22874 0.17812 0.04945 0.0
H4687 H 0.22756 0.12955 0.99375 0.0
H4688 H 0.24313 0.14387 0.00171 0.0
H4689 H 0.21444 0.16414 0.02075 0.0
H4690 H 0.19906 0.15001 0.01276 0.0
H4691 H 0.23494 0.15998 0.03532 0.0
H4692 H 0.22445 0.17595 0.99573 0.0
H4693 H 0.22113 0.17561 0.97325 0.0
H4694 H 0.25946 0.1671 0.96731 0.0
H4695 H 0.26297 0.16716 0.98982 0.0
C4696 C 0.26022 0.2145 0.03599 0.0
C4697 C 0.27034 0.21768 0.02849 0.0
C4698 C 0.25601 0.20235 0.03631 0.0
C4699 C 0.26223 0.19314 0.02959 0.0
C4700 C 0.27372 0.19598 0.02416 0.0
C4701 C 0.27775 0.20822 0.02359 0.0
C4702 C 0.25539 0.18198 0.0256 0.0
C4703 C 0.25429 0.18009 0.01279 0.0
C4704 C 0.2483 0.17463 0.03385 0.0
C4705 C 0.24862 0.1764 0.04744 0.0
C4706 C 0.2599 0.1766 0.05377 0.0
C4707 C 0.26009 0.17864 0.06651 0.0
C4708 C 0.24906 0.18045 0.07303 0.0
C4709 C 0.2378 0.18018 0.06684 0.0
C4710 C 0.23755 0.17813 0.05412 0.0
C4711 C 0.22463 0.13725 0.99941 0.0
C4712 C 0.21207 0.1392 0.002 0.0
C4713 C 0.23349 0.14532 0.00405 0.0
C4714 C 0.22989 0.15514 0.01171 0.0
C4715 C 0.21739 0.15671 0.01475 0.0
C4716 C 0.20856 0.14881 0.00992 0.0
C4717 C 0.23904 0.1641 0.01626 0.0
C4718 C 0.24035 0.16567 0.02904 0.0
C4719 C 0.246 0.1715 0.00803 0.0
C4720 C 0.24393 0.17132 0.99448 0.0
C4721 C 0.23215 0.17383 0.98965 0.0
C4722 C 0.23023 0.17372 0.9769 0.0
C4723 C 0.24007 0.17126 0.96886 0.0
C4724 C 0.25184 0.16894 0.97356 0.0
C4725 C 0.2538 0.169 0.98631 0.0
H4726 H 0.23858 0.17121 0.95898 0.0
H4727 H 0.24924 0.18206 0.08288 0.0
H4728 H 0.25649 0.97306 0.12182 0.0
H4729 H 0.25657 0.95056 0.12495 0.0
H4730 H 0.26525 0.95602 0.16344 0.0
H4731 H 0.26654 0.97785 0.15998 0.0
H4732 H 0.2732 0.93649 0.15983 0.0
H4733 H 0.23309 0.95384 0.14752 0.0
H4734 H 0.21751 0.96287 0.13352 0.0
H4735 H 0.2231 0.93296 0.10822 0.0
H4736 H 0.23884 0.92386 0.12201 0.0
H4737 H 0.21642 0.91181 0.18811 0.0
H4738 H 0.22584 0.92129 0.17005 0.0
H4739 H 0.25599 0.89509 0.17193 0.0
H4740 H 0.2466 0.88574 0.19058 0.0
H4741 H 0.23359 0.91762 0.14788 0.0
H4742 H 0.27876 0.90683 0.17032 0.0
H4743 H 0.28738 0.90346 0.19119 0.0
H4744 H 0.26197 0.93019 0.20608 0.0
H4745 H 0.25318 0.93359 0.18535 0.0
C4746 C 0.25902 0.96933 0.13077 0.0
C4747 C 0.26131 0.97727 0.14072 0.0
C4748 C 0.2588 0.95645 0.13264 0.0
C4749 C 0.26045 0.95138 0.14457 0.0
C4750 C 0.26391 0.95938 0.1541 0.0
C4751 C 0.26457 0.97204 0.15214 0.0
C4752 C 0.25739 0.93825 0.14787 0.0
C4753 C 0.26459 0.93235 0.15699 0.0
C4754 C 0.24623 0.93251 0.14425 0.0
C4755 C 0.23734 0.93834 0.13564 0.0
C4756 C 0.23111 0.9493 0.13888 0.0
C4757 C 0.22223 0.9544 0.13101 0.0
C4758 C 0.21937 0.94852 0.11996 0.0
C4759 C 0.22539 0.93754 0.11675 0.0
C4760 C 0.23432 0.93243 0.12456 0.0
C4761 C 0.2249 0.90784 0.18447 0.0
C4762 C 0.23087 0.89815 0.19076 0.0
C4763 C 0.23026 0.91323 0.17407 0.0
C4764 C 0.24176 0.90908 0.16969 0.0
C4765 C 0.24722 0.8986 0.17528 0.0
C4766 C 0.24182 0.89318 0.18583 0.0
C4767 C 0.24859 0.9171 0.16076 0.0
C4768 C 0.24238 0.92164 0.15031 0.0
C4769 C 0.25991 0.92253 0.16405 0.0
C4770 C 0.26533 0.92041 0.17637 0.0
C4771 C 0.27506 0.91198 0.17807 0.0
C4772 C 0.27994 0.91004 0.18986 0.0
C4773 C 0.27524 0.91661 0.19994 0.0
C4774 C 0.26561 0.9251 0.19828 0.0
C4775 C 0.26067 0.92701 0.18654 0.0
H4776 H 0.27907 0.91513 0.20904 0.0
H4777 H 0.21244 0.95245 0.1139 0.0
H4778 H 0.39034 0.97432 0.44055 0.0
H4779 H 0.39692 0.96091 0.45723 0.0
H4780 H 0.40455 0.93191 0.4311 0.0
H4781 H 0.39713 0.94527 0.4144 0.0
H4782 H 0.38748 0.92495 0.44631 0.0
H4783 H 0.42709 0.94524 0.45393 0.0
H4784 H 0.43965 0.96379 0.45757 0.0
H4785 H 0.41731 0.97273 0.48921 0.0
H4786 H 0.4046 0.95431 0.48573 0.0
H4787 H 0.39015 0.88058 0.49474 0.0
H4788 H 0.39474 0.89373 0.47673 0.0
H4789 H 0.39388 0.92587 0.50017 0.0
H4790 H 0.39047 0.91258 0.51813 0.0
H4791 H 0.41 0.93023 0.48549 0.0
H4792 H 0.36912 0.91615 0.47872 0.0
H4793 H 0.35178 0.90183 0.47588 0.0
H4794 H 0.37016 0.88595 0.44448 0.0
H4795 H 0.38768 0.90009 0.44722 0.0
C4796 C 0.39424 0.96539 0.43823 0.0
C4797 C 0.393 0.96079 0.42619 0.0
C4798 C 0.39795 0.9576 0.44788 0.0
C4799 C 0.40111 0.94522 0.44557 0.0
C4800 C 0.40203 0.94136 0.43319 0.0
C4801 C 0.39806 0.94913 0.42354 0.0
C4802 C 0.40082 0.9359 0.45586 0.0
C4803 C 0.39267 0.92592 0.45475 0.0
C4804 C 0.40692 0.93758 0.46726 0.0
C4805 C 0.4149 0.94838 0.46956 0.0
C4806 C 0.42487 0.95116 0.46166 0.0
C4807 C 0.43201 0.96166 0.4637 0.0
C4808 C 0.42927 0.96943 0.47361 0.0
C4809 C 0.41944 0.9667 0.48155 0.0
C4810 C 0.4123 0.9562 0.47958 0.0
C4811 C 0.39111 0.89044 0.49596 0.0
C4812 C 0.39003 0.89561 0.50775 0.0
C4813 C 0.39358 0.89801 0.48566 0.0
C4814 C 0.39447 0.91094 0.48691 0.0
C4815 C 0.39337 0.91599 0.49881 0.0
C4816 C 0.39136 0.9084 0.5091 0.0
C4817 C 0.39656 0.91926 0.47596 0.0
C4818 C 0.40497 0.92907 0.47696 0.0
C4819 C 0.39012 0.9179 0.4647 0.0
C4820 C 0.3798 0.90906 0.46329 0.0
C4821 C 0.36953 0.90951 0.4713 0.0
C4822 C 0.35965 0.90145 0.46969 0.0
C4823 C 0.35989 0.89295 0.46004 0.0
C4824 C 0.37001 0.8925 0.45198 0.0
C4825 C 0.37992 0.90053 0.45356 0.0
H4826 H 0.35222 0.88675 0.45878 0.0
H4827 H 0.43478 0.97758 0.47513 0.0
H4828 H 0.46431 0.10671 0.76124 0.0
H4829 H 0.4614 0.11033 0.73911 0.0
H4830 H 0.44836 0.14722 0.74659 0.0
H4831 H 0.45174 0.14381 0.76869 0.0
H4832 H 0.43424 0.1191 0.73329 0.0
H4833 H 0.45569 0.15885 0.72844 0.0
H4834 H 0.47339 0.17211 0.73343 0.0
H4835 H 0.49839 0.14454 0.71944 0.0
H4836 H 0.48078 0.13106 0.71454 0.0
H4837 H 0.41648 0.13038 0.66995 0.0
H4838 H 0.42692 0.13982 0.68747 0.0
H4839 H 0.45096 0.10812 0.69018 0.0
H4840 H 0.44148 0.09937 0.67182 0.0
H4841 H 0.45773 0.13851 0.69887 0.0
H4842 H 0.42884 0.09934 0.7225 0.0
H4843 H 0.40832 0.08977 0.72256 0.0
H4844 H 0.39393 0.11986 0.701 0.0
H4845 H 0.41385 0.13046 0.70233 0.0
C4846 C 0.46145 0.1158 0.7581 0.0
C4847 C 0.45846 0.12503 0.76666 0.0
C4848 C 0.45973 0.11785 0.74546 0.0
C4849 C 0.45482 0.12911 0.74115 0.0
C4850 C 0.45252 0.13861 0.74962 0.0
C4851 C 0.45449 0.13665 0.76227 0.0
C4852 C 0.45007 0.12984 0.72833 0.0
C4853 C 0.43931 0.12333 0.7257 0.0
C4854 C 0.45639 0.13591 0.71864 0.0
C4855 C 0.46699 0.14395 0.72124 0.0
C4856 C 0.46498 0.15561 0.72651 0.0
C4857 C 0.47498 0.16316 0.72931 0.0
C4858 C 0.48701 0.15915 0.72678 0.0
C4859 C 0.48906 0.14761 0.72141 0.0
C4860 C 0.47908 0.14001 0.71861 0.0
C4861 C 0.42466 0.1259 0.67362 0.0
C4862 C 0.42793 0.11394 0.66973 0.0
C4863 C 0.43039 0.13114 0.6839 0.0
C4864 C 0.43916 0.12429 0.69058 0.0
C4865 C 0.44393 0.11341 0.68538 0.0
C4866 C 0.43863 0.10851 0.67472 0.0
C4867 C 0.44199 0.12729 0.70366 0.0
C4868 C 0.4525 0.13433 0.70636 0.0
C4869 C 0.435 0.12213 0.71357 0.0
C4870 C 0.42318 0.11543 0.71185 0.0
C4871 C 0.42135 0.10391 0.71766 0.0
C4872 C 0.40973 0.09839 0.71767 0.0
C4873 C 0.39992 0.104 0.71145 0.0
C4874 C 0.40162 0.11538 0.70558 0.0
C4875 C 0.41308 0.12121 0.70603 0.0
H4876 H 0.39097 0.09962 0.71135 0.0
H4877 H 0.49475 0.165 0.72896 0.0
H4878 H 0.12049 0.24212 0.97276 0.0
H4879 H 0.12717 0.23954 0.95123 0.0
H4880 H 0.15299 0.26933 0.9554 0.0
H4881 H 0.14666 0.27155 0.97696 0.0
H4882 H 0.14466 0.2691 0.93218 0.0
H4883 H 0.16418 0.24176 0.95982 0.0
H4884 H 0.17202 0.22495 0.97313 0.0
H4885 H 0.15279 0.19836 0.95141 0.0
H4886 H 0.14479 0.21504 0.93798 0.0
H4887 H 0.20403 0.24983 0.91528 0.0
H4888 H 0.18393 0.25755 0.92202 0.0
H4889 H 0.16601 0.2299 0.90016 0.0
H4890 H 0.18625 0.22238 0.89299 0.0
H4891 H 0.16393 0.22792 0.92636 0.0
H4892 H 0.15594 0.25783 0.89537 0.0
H4893 H 0.16145 0.2748 0.88112 0.0
H4894 H 0.16915 0.29822 0.9119 0.0
H4895 H 0.16383 0.28136 0.92635 0.0
C4896 C 0.12711 0.24854 0.96887 0.0
C4897 C 0.13299 0.25711 0.97648 0.0
C4898 C 0.13108 0.24692 0.95662 0.0
C4899 C 0.14074 0.2541 0.95175 0.0
C4900 C 0.14553 0.26367 0.95893 0.0
C4901 C 0.1418 0.26506 0.97122 0.0
C4902 C 0.14692 0.25082 0.93989 0.0
C4903 C 0.14878 0.26005 0.93085 0.0
C4904 C 0.15228 0.23899 0.93805 0.0
C4905 C 0.15368 0.22968 0.94803 0.0
C4906 C 0.16122 0.23239 0.95816 0.0
C4907 C 0.16592 0.22286 0.96557 0.0
C4908 C 0.16313 0.21059 0.96293 0.0
C4909 C 0.15508 0.20786 0.95332 0.0
C4910 C 0.15038 0.21735 0.94587 0.0
C4911 C 0.19581 0.24572 0.9115 0.0
C4912 C 0.19669 0.23546 0.90369 0.0
C4913 C 0.1843 0.25022 0.91526 0.0
C4914 C 0.17345 0.24438 0.91151 0.0
C4915 C 0.17426 0.23468 0.90299 0.0
C4916 C 0.18582 0.23036 0.89895 0.0
C4917 C 0.16212 0.24625 0.91904 0.0
C4918 C 0.15919 0.23674 0.92731 0.0
C4919 C 0.15659 0.25799 0.92058 0.0
C4920 C 0.15945 0.26831 0.91196 0.0
C4921 C 0.15883 0.26659 0.89911 0.0
C4922 C 0.16192 0.27619 0.89099 0.0
C4923 C 0.16564 0.28758 0.8956 0.0
C4924 C 0.16623 0.2894 0.90834 0.0
C4925 C 0.16314 0.27983 0.9165 0.0
H4926 H 0.16806 0.29499 0.8893 0.0
H4927 H 0.16708 0.2032 0.96842 0.0
H4928 H 0.78824 0.37988 0.01929 0.0
H4929 H 0.78526 0.36331 0.03321 0.0
H4930 H 0.78231 0.33793 0.0028 0.0
H4931 H 0.78151 0.35583 0.98842 0.0
H4932 H 0.76682 0.33158 0.01819 0.0
H4933 H 0.80943 0.34149 0.02661 0.0
H4934 H 0.82644 0.35599 0.03039 0.0
H4935 H 0.80838 0.36848 0.06347 0.0
H4936 H 0.7912 0.35426 0.05982 0.0
H4937 H 0.77092 0.29741 0.0812 0.0
H4938 H 0.77823 0.30368 0.06069 0.0
H4939 H 0.75367 0.33512 0.06145 0.0
H4940 H 0.7462 0.32896 0.08186 0.0
H4941 H 0.78757 0.33168 0.05889 0.0
H4942 H 0.7429 0.3311 0.04134 0.0
H4943 H 0.72435 0.31832 0.03854 0.0
H4944 H 0.74693 0.28868 0.0247 0.0
H4945 H 0.76562 0.30126 0.02762 0.0
C4946 C 0.78725 0.37076 0.01533 0.0
C4947 C 0.78495 0.36928 0.00262 0.0
C4948 C 0.78583 0.36109 0.0235 0.0
C4949 C 0.78433 0.34904 0.01928 0.0
C4950 C 0.78363 0.34713 0.00637 0.0
C4951 C 0.78355 0.35728 0.99807 0.0
C4952 C 0.78196 0.3391 0.02862 0.0
C4953 C 0.77168 0.33141 0.02691 0.0
C4954 C 0.78814 0.33878 0.04023 0.0
C4955 C 0.79904 0.34664 0.04297 0.0
C4956 C 0.80913 0.34724 0.03474 0.0
C4957 C 0.81877 0.35548 0.03684 0.0
C4958 C 0.8185 0.36312 0.04718 0.0
C4959 C 0.80862 0.3625 0.0555 0.0
C4960 C 0.79894 0.35431 0.05345 0.0
C4961 C 0.7668 0.30547 0.07688 0.0
C4962 C 0.75803 0.31274 0.08326 0.0
C4963 C 0.771 0.30901 0.06515 0.0
C4964 C 0.76638 0.31976 0.05956 0.0
C4965 C 0.75716 0.32665 0.06556 0.0
C4966 C 0.75295 0.32315 0.07726 0.0
C4967 C 0.77236 0.32491 0.04839 0.0
C4968 C 0.78323 0.33159 0.04989 0.0
C4969 C 0.76677 0.32445 0.03673 0.0
C4970 C 0.75559 0.31705 0.03474 0.0
C4971 C 0.74388 0.32184 0.03774 0.0
C4972 C 0.73336 0.31464 0.03615 0.0
C4973 C 0.73446 0.30269 0.03146 0.0
C4974 C 0.74609 0.29792 0.02835 0.0
C4975 C 0.75664 0.30508 0.02999 0.0
H4976 H 0.72631 0.29712 0.03022 0.0
H4977 H 0.82594 0.36954 0.04874 0.0
H4978 H 0.88518 0.47047 0.27662 0.0
H4979 H 0.9036 0.48216 0.27134 0.0
H4980 H 0.91969 0.47227 0.30631 0.0
H4981 H 0.90119 0.46022 0.31174 0.0
H4982 H 0.91534 0.50224 0.2913 0.0
H4983 H 0.93615 0.45961 0.29285 0.0
H4984 H 0.93794 0.43821 0.28526 0.0
H4985 H 0.93547 0.45127 0.24784 0.0
H4986 H 0.93373 0.47274 0.25521 0.0
H4987 H 0.98407 0.49728 0.29773 0.0
H4988 H 0.96414 0.48934 0.2922 0.0
H4989 H 0.9561 0.52315 0.2724 0.0
H4990 H 0.9757 0.53168 0.27928 0.0
H4991 H 0.95293 0.48382 0.2726 0.0
H4992 H 0.93571 0.52397 0.26743 0.0
H4993 H 0.93105 0.54614 0.26974 0.0
H4994 H 0.92044 0.54 0.30753 0.0
H4995 H 0.92533 0.51787 0.30548 0.0
C4996 C 0.89258 0.47071 0.28328 0.0
C4997 C 0.89157 0.46437 0.2947 0.0
C4998 C 0.90316 0.4774 0.28017 0.0
C4999 C 0.91305 0.47801 0.28835 0.0
C5000 C 0.91216 0.47182 0.2998 0.0
C5001 C 0.90155 0.465 0.30293 0.0
C5002 C 0.92404 0.48558 0.28509 0.0
C5003 C 0.92376 0.49826 0.28752 0.0
C5004 C 0.93437 0.48062 0.27887 0.0
C5005 C 0.93467 0.46771 0.27457 0.0
C5006 C 0.93582 0.45788 0.28302 0.0
C5007 C 0.9369 0.44576 0.27876 0.0
C5008 C 0.93682 0.44339 0.2661 0.0
C5009 C 0.93554 0.45312 0.25765 0.0
C5010 C 0.93453 0.46526 0.26186 0.0
C5011 C 0.97819 0.50298 0.29194 0.0
C5012 C 0.98151 0.51521 0.28913 0.0
C5013 C 0.96658 0.49847 0.28888 0.0
C5014 C 0.95793 0.50578 0.28242 0.0
C5015 C 0.96189 0.51748 0.27816 0.0
C5016 C 0.9735 0.5222 0.28159 0.0
C5017 C 0.94521 0.50046 0.28046 0.0
C5018 C 0.94476 0.48804 0.27666 0.0
C5019 C 0.93401 0.50591 0.285 0.0
C5020 C 0.93204 0.5194 0.2866 0.0
C5021 C 0.93299 0.52745 0.2764 0.0
C5022 C 0.9301 0.53999 0.2776 0.0
C5023 C 0.92576 0.54455 0.28887 0.0
C5024 C 0.92407 0.53653 0.29888 0.0
C5025 C 0.92695 0.52399 0.29768 0.0
H5026 H 0.92348 0.55425 0.28978 0.0
H5027 H 0.9378 0.43402 0.26282 0.0
H5028 H 0.84973 0.65581 0.53297 0.0
H5029 H 0.82952 0.66585 0.53026 0.0
H5030 H 0.81148 0.63126 0.53778 0.0
H5031 H 0.83159 0.62121 0.54067 0.0
H5032 H 0.80471 0.6517 0.5134 0.0
H5033 H 0.79927 0.64333 0.56155 0.0
H5034 H 0.81178 0.64183 0.58051 0.0
H5035 H 0.83048 0.67531 0.5705 0.0
H5036 H 0.81799 0.67702 0.55157 0.0
H5037 H 0.74747 0.68114 0.54955 0.0
H5038 H 0.76187 0.66439 0.54479 0.0
H5039 H 0.77848 0.68689 0.51628 0.0
H5040 H 0.76422 0.70359 0.52124 0.0
H5041 H 0.78553 0.67053 0.55053 0.0
H5042 H 0.79722 0.67062 0.49855 0.0
H5043 H 0.78655 0.67054 0.47849 0.0
H5044 H 0.75553 0.65229 0.49522 0.0
H5045 H 0.76602 0.65227 0.51537 0.0
C5046 C 0.84147 0.65039 0.53421 0.0
C5047 C 0.8423 0.63775 0.53719 0.0
C5048 C 0.82994 0.65608 0.53244 0.0
C5049 C 0.81902 0.64924 0.53362 0.0
C5050 C 0.8198 0.63665 0.53661 0.0
C5051 C 0.8313 0.63095 0.53833 0.0
C5052 C 0.80676 0.65541 0.53277 0.0
C5053 C 0.80048 0.65586 0.52148 0.0
C5054 C 0.80117 0.66059 0.54333 0.0
C5055 C 0.80765 0.66035 0.55528 0.0
C5056 C 0.80594 0.65044 0.56352 0.0
C5057 C 0.81308 0.64951 0.57419 0.0
C5058 C 0.82201 0.6584 0.57664 0.0
C5059 C 0.82364 0.66837 0.56854 0.0
C5060 C 0.81647 0.66938 0.55789 0.0
C5061 C 0.75357 0.6822 0.54165 0.0
C5062 C 0.75529 0.69395 0.53634 0.0
C5063 C 0.76204 0.67267 0.53912 0.0
C5064 C 0.77166 0.67452 0.53053 0.0
C5065 C 0.77131 0.68521 0.5231 0.0
C5066 C 0.76289 0.69474 0.52577 0.0
C5067 C 0.78318 0.66687 0.53112 0.0
C5068 C 0.78951 0.66622 0.54243 0.0
C5069 C 0.78874 0.66152 0.52053 0.0
C5070 C 0.78238 0.6615 0.50847 0.0
C5071 C 0.78814 0.66656 0.49793 0.0
C5072 C 0.78211 0.66656 0.48656 0.0
C5073 C 0.77036 0.66143 0.48559 0.0
C5074 C 0.76461 0.6563 0.496 0.0
C5075 C 0.77057 0.65634 0.5074 0.0
H5076 H 0.76572 0.66141 0.47677 0.0
H5077 H 0.82759 0.65762 0.58486 0.0
H5078 H 0.94086 0.41781 0.3889 0.0
H5079 H 0.92918 0.43649 0.39416 0.0
H5080 H 0.96289 0.45732 0.39451 0.0
H5081 H 0.97439 0.43895 0.38784 0.0
H5082 H 0.93996 0.46402 0.41295 0.0
H5083 H 0.95601 0.46177 0.37304 0.0
H5084 H 0.96218 0.45599 0.35203 0.0
H5085 H 0.92413 0.45324 0.34181 0.0
H5086 H 0.91772 0.45741 0.36324 0.0
H5087 H 0.91587 0.52339 0.38999 0.0
H5088 H 0.92853 0.50513 0.39493 0.0
H5089 H 0.89729 0.48173 0.38815 0.0
H5090 H 0.88459 0.50006 0.38324 0.0
H5091 H 0.92026 0.47751 0.37387 0.0
H5092 H 0.90715 0.48472 0.41688 0.0
H5093 H 0.90596 0.49845 0.43494 0.0
H5094 H 0.94546 0.50142 0.43505 0.0
H5095 H 0.94688 0.48785 0.4169 0.0
C5096 C 0.94588 0.42623 0.39068 0.0
C5097 C 0.9585 0.42697 0.38768 0.0
C5098 C 0.93915 0.43695 0.39352 0.0
C5099 C 0.94512 0.44839 0.39424 0.0
C5100 C 0.95806 0.44864 0.39371 0.0
C5101 C 0.96469 0.43806 0.39014 0.0
C5102 C 0.93777 0.46005 0.39363 0.0
C5103 C 0.93564 0.46694 0.4044 0.0
C5104 C 0.93254 0.46423 0.38234 0.0
C5105 C 0.93638 0.45936 0.37006 0.0
C5106 C 0.94894 0.4591 0.36663 0.0
C5107 C 0.95249 0.45619 0.35455 0.0
C5108 C 0.94356 0.45406 0.34562 0.0
C5109 C 0.93106 0.45464 0.3488 0.0
C5110 C 0.92747 0.45701 0.36099 0.0
C5111 C 0.91168 0.51434 0.38979 0.0
C5112 C 0.8993 0.51305 0.38628 0.0
C5113 C 0.91888 0.50395 0.39268 0.0
C5114 C 0.91381 0.49208 0.39207 0.0
C5115 C 0.90133 0.49082 0.38881 0.0
C5116 C 0.8941 0.50124 0.38599 0.0
C5117 C 0.92188 0.48097 0.39322 0.0
C5118 C 0.92429 0.47429 0.38246 0.0
C5119 C 0.92804 0.47759 0.40425 0.0
C5120 C 0.92712 0.48529 0.4155 0.0
C5121 C 0.91558 0.48833 0.42073 0.0
C5122 C 0.91487 0.49608 0.43099 0.0
C5123 C 0.92563 0.50081 0.43613 0.0
C5124 C 0.93713 0.49774 0.43107 0.0
C5125 C 0.9379 0.49 0.42082 0.0
H5126 H 0.92505 0.50685 0.44404 0.0
H5127 H 0.9463 0.45207 0.33621 0.0
H5128 H 0.738 0.59037 0.91678 0.0
H5129 H 0.72608 0.60822 0.90937 0.0
H5130 H 0.75346 0.61488 0.8812 0.0
H5131 H 0.76443 0.59597 0.88741 0.0
H5132 H 0.73742 0.6353 0.90265 0.0
H5133 H 0.73904 0.60499 0.86834 0.0
H5134 H 0.73436 0.58692 0.85575 0.0
H5135 H 0.69583 0.59487 0.85818 0.0
H5136 H 0.69986 0.61205 0.87204 0.0
H5137 H 0.69809 0.67856 0.86497 0.0
H5138 H 0.71511 0.66689 0.87471 0.0
H5139 H 0.68989 0.6374 0.88343 0.0
H5140 H 0.67325 0.64868 0.87326 0.0
H5141 H 0.70858 0.63096 0.86782 0.0
H5142 H 0.70496 0.65565 0.90584 0.0
H5143 H 0.70677 0.67547 0.91675 0.0
H5144 H 0.74456 0.67845 0.90493 0.0
H5145 H 0.74293 0.65872 0.89384 0.0
C5146 C 0.74156 0.59562 0.90903 0.0
C5147 C 0.75197 0.59134 0.90243 0.0
C5148 C 0.73462 0.60578 0.9047 0.0
C5149 C 0.73833 0.61234 0.89406 0.0
C5150 C 0.74992 0.60949 0.88889 0.0
C5151 C 0.75649 0.59893 0.89279 0.0
C5152 C 0.73052 0.62269 0.88903 0.0
C5153 C 0.73097 0.63416 0.89512 0.0
C5154 C 0.72213 0.62141 0.87897 0.0
C5155 C 0.71989 0.60979 0.8719 0.0
C5156 C 0.72954 0.60256 0.86699 0.0
C5157 C 0.72698 0.59244 0.85947 0.0
C5158 C 0.71489 0.58965 0.85631 0.0
C5159 C 0.70524 0.59698 0.86065 0.0
C5160 C 0.70766 0.6068 0.86854 0.0
C5161 C 0.69612 0.66984 0.86951 0.0
C5162 C 0.68435 0.66452 0.86846 0.0
C5163 C 0.70587 0.66315 0.87501 0.0
C5164 C 0.70384 0.6512 0.87976 0.0
C5165 C 0.69174 0.64656 0.87981 0.0
C5166 C 0.68218 0.65305 0.87408 0.0
C5167 C 0.71419 0.64244 0.88259 0.0
C5168 C 0.71465 0.63159 0.87571 0.0
C5169 C 0.72286 0.64401 0.89211 0.0
C5170 C 0.72379 0.65576 0.89893 0.0
C5171 C 0.71363 0.66057 0.9055 0.0
C5172 C 0.71463 0.67178 0.91173 0.0
C5173 C 0.72576 0.67823 0.91151 0.0
C5174 C 0.73594 0.67345 0.90509 0.0
C5175 C 0.73498 0.66225 0.89885 0.0
H5176 H 0.72651 0.6869 0.91633 0.0
H5177 H 0.71301 0.5819 0.85037 0.0
H5178 H 0.77052 0.44249 0.13421 0.0
H5179 H 0.74823 0.43953 0.13579 0.0
H5180 H 0.743 0.4628 0.10375 0.0
H5181 H 0.76555 0.46472 0.10138 0.0
H5182 H 0.72539 0.45559 0.13522 0.0
H5183 H 0.73761 0.44831 0.08932 0.0
H5184 H 0.75356 0.44021 0.07512 0.0
H5185 H 0.75375 0.40573 0.09488 0.0
H5186 H 0.73875 0.41412 0.10997 0.0
H5187 H 0.66586 0.43841 0.11247 0.0
H5188 H 0.6855 0.44686 0.11949 0.0
H5189 H 0.70214 0.4106 0.11711 0.0
H5190 H 0.68275 0.40238 0.10948 0.0
H5191 H 0.71429 0.4248 0.10361 0.0
H5192 H 0.70025 0.42701 0.14454 0.0
H5193 H 0.68676 0.43157 0.16236 0.0
H5194 H 0.69027 0.47043 0.15522 0.0
H5195 H 0.70362 0.46611 0.1372 0.0
C5196 C 0.76457 0.44716 0.12764 0.0
C5197 C 0.7696 0.45366 0.11757 0.0
C5198 C 0.75187 0.44551 0.12859 0.0
C5199 C 0.74406 0.45061 0.11964 0.0
C5200 C 0.74898 0.4584 0.11044 0.0
C5201 C 0.76178 0.4596 0.10915 0.0
C5202 C 0.73131 0.44602 0.11884 0.0
C5203 C 0.72273 0.44915 0.1281 0.0
C5204 C 0.72827 0.43696 0.11006 0.0
C5205 C 0.73744 0.43205 0.10107 0.0
C5206 C 0.74146 0.43921 0.09097 0.0
C5207 C 0.75038 0.43458 0.08279 0.0
C5208 C 0.75487 0.42255 0.08426 0.0
C5209 C 0.75049 0.41515 0.09394 0.0
C5210 C 0.74192 0.41991 0.10241 0.0
C5211 C 0.67358 0.43219 0.11402 0.0
C5212 C 0.67291 0.4198 0.11045 0.0
C5213 C 0.68482 0.43702 0.11799 0.0
C5214 C 0.69536 0.4294 0.11869 0.0
C5215 C 0.69419 0.4167 0.1165 0.0
C5216 C 0.6831 0.41197 0.11226 0.0
C5217 C 0.70785 0.43486 0.11957 0.0
C5218 C 0.71658 0.43162 0.11048 0.0
C5219 C 0.71105 0.44355 0.1287 0.0
C5220 C 0.70282 0.44623 0.13939 0.0
C5221 C 0.69802 0.43653 0.14666 0.0
C5222 C 0.69043 0.43907 0.15683 0.0
C5223 C 0.68762 0.45128 0.1599 0.0
C5224 C 0.69242 0.46097 0.15281 0.0
C5225 C 0.70002 0.45849 0.14262 0.0
H5226 H 0.68176 0.45323 0.16779 0.0
H5227 H 0.7616 0.41888 0.0778 0.0
H5228 H 0.85152 0.70487 0.6642 0.0
H5229 H 0.86674 0.71672 0.65251 0.0
H5230 H 0.89364 0.68778 0.65805 0.0
H5231 H 0.87801 0.67545 0.6692 0.0
H5232 H 0.90029 0.71821 0.65913 0.0
H5233 H 0.88915 0.684 0.63602 0.0
H5234 H 0.87847 0.66746 0.62508 0.0
H5235 H 0.8596 0.69433 0.60274 0.0
H5236 H 0.86923 0.71111 0.61434 0.0
H5237 H 0.92091 0.73984 0.59401 0.0
H5238 H 0.9205 0.72876 0.61381 0.0
H5239 H 0.8866 0.74739 0.62351 0.0
H5240 H 0.88678 0.75816 0.60368 0.0
H5241 H 0.89008 0.71798 0.61461 0.0
H5242 H 0.90359 0.75187 0.64305 0.0
H5243 H 0.92083 0.76504 0.64962 0.0
H5244 H 0.94322 0.73283 0.65623 0.0
H5245 H 0.92614 0.7195 0.64963 0.0
C5246 C 0.86081 0.70123 0.66341 0.0
C5247 C 0.86359 0.6893 0.66783 0.0
C5248 C 0.86948 0.70795 0.65655 0.0
C5249 C 0.88123 0.70302 0.65413 0.0
C5250 C 0.88455 0.69169 0.65966 0.0
C5251 C 0.87571 0.68477 0.66627 0.0
C5252 C 0.88939 0.70951 0.64507 0.0
C5253 C 0.89814 0.718 0.64937 0.0
C5254 C 0.88703 0.70896 0.63219 0.0
C5255 C 0.8797 0.69893 0.62644 0.0
C5256 C 0.88226 0.68647 0.62925 0.0
C5257 C 0.87642 0.67701 0.62284 0.0
C5258 C 0.86824 0.67984 0.61331 0.0
C5259 C 0.86582 0.69214 0.61023 0.0
C5260 C 0.87134 0.70164 0.61686 0.0
C5261 C 0.91386 0.74226 0.60073 0.0
C5262 C 0.90377 0.74973 0.59723 0.0
C5263 C 0.91358 0.7358 0.61203 0.0
C5264 C 0.90345 0.73717 0.62009 0.0
C5265 C 0.89452 0.74624 0.61746 0.0
C5266 C 0.89468 0.75249 0.60613 0.0
C5267 C 0.90005 0.7271 0.62882 0.0
C5268 C 0.8922 0.71798 0.62437 0.0
C5269 C 0.9037 0.72665 0.64128 0.0
C5270 C 0.91361 0.73472 0.64584 0.0
C5271 C 0.9122 0.74762 0.6459 0.0
C5272 C 0.92194 0.7551 0.64963 0.0
C5273 C 0.93312 0.74978 0.65333 0.0
C5274 C 0.93455 0.73695 0.65339 0.0
C5275 C 0.92484 0.72943 0.64969 0.0
H5276 H 0.94066 0.75559 0.65616 0.0
H5277 H 0.86389 0.67251 0.60822 0.0
H5278 H 0.62122 0.56214 0.8321 0.0
H5279 H 0.63392 0.5579 0.81368 0.0
H5280 H 0.63335 0.51902 0.82228 0.0
H5281 H 0.62043 0.52308 0.84044 0.0
H5282 H 0.65859 0.53311 0.81792 0.0
H5283 H 0.61787 0.52417 0.80035 0.0
H5284 H 0.5964 0.53065 0.79626 0.0
H5285 H 0.60944 0.56244 0.7763 0.0
H5286 H 0.63099 0.55622 0.78042 0.0
H5287 H 0.69843 0.5214 0.77082 0.0
H5288 H 0.68002 0.51625 0.78284 0.0
H5289 H 0.66029 0.54593 0.76473 0.0
H5290 H 0.67817 0.54992 0.75179 0.0
H5291 H 0.64419 0.53478 0.77455 0.0
H5292 H 0.68131 0.54938 0.79357 0.0
H5293 H 0.7033 0.54932 0.79943 0.0
H5294 H 0.69848 0.51454 0.81806 0.0
H5295 H 0.67647 0.51445 0.8122 0.0
C5296 C 0.62363 0.55267 0.82995 0.0
C5297 C 0.61971 0.54295 0.8377 0.0
C5298 C 0.6309 0.55027 0.81945 0.0
C5299 C 0.63457 0.53814 0.81664 0.0
C5300 C 0.63058 0.52843 0.82427 0.0
C5301 C 0.62312 0.53078 0.8346 0.0
C5302 C 0.64298 0.53562 0.80604 0.0
C5303 C 0.65545 0.53322 0.80842 0.0
C5304 C 0.63895 0.53637 0.79368 0.0
C5305 C 0.62602 0.53975 0.79072 0.0
C5306 C 0.61615 0.53256 0.79512 0.0
C5307 C 0.60397 0.53619 0.79279 0.0
C5308 C 0.60156 0.54696 0.78603 0.0
C5309 C 0.61132 0.5541 0.78152 0.0
C5310 C 0.62352 0.55051 0.78382 0.0
C5311 C 0.68985 0.52613 0.7687 0.0
C5312 C 0.68989 0.53644 0.76075 0.0
C5313 C 0.67941 0.52352 0.77596 0.0
C5314 C 0.66904 0.53143 0.77559 0.0
C5315 C 0.66823 0.53989 0.76568 0.0
C5316 C 0.6785 0.54205 0.75802 0.0
C5317 C 0.6601 0.53221 0.78627 0.0
C5318 C 0.64746 0.5344 0.78398 0.0
C5319 C 0.66411 0.53196 0.79878 0.0
C5320 C 0.67735 0.53182 0.80221 0.0
C5321 C 0.68501 0.54169 0.79877 0.0
C5322 C 0.69745 0.54169 0.80212 0.0
C5323 C 0.70231 0.53187 0.80902 0.0
C5324 C 0.69471 0.5221 0.81265 0.0
C5325 C 0.68225 0.52208 0.80933 0.0
H5326 H 0.71195 0.53188 0.81161 0.0
H5327 H 0.59212 0.54978 0.78428 0.0
H5328 H 0.03441 0.31055 0.28036 0.0
H5329 H 0.0302 0.32449 0.29787 0.0
H5330 H 0.99223 0.31278 0.29857 0.0
H5331 H 0.99639 0.29882 0.2815 0.0
H5332 H 0.99537 0.33877 0.30027 0.0
H5333 H 0.00966 0.30048 0.31852 0.0
H5334 H 0.02446 0.2834 0.32178 0.0
H5335 H 0.05177 0.30915 0.33378 0.0
H5336 H 0.03715 0.32642 0.33041 0.0
H5337 H 0.96905 0.3557 0.35583 0.0
H5338 H 0.97778 0.34108 0.34104 0.0
H5339 H 0.01385 0.35667 0.34633 0.0
H5340 H 0.00503 0.37145 0.36111 0.0
H5341 H 0.01386 0.33028 0.3413 0.0
H5342 H 0.99827 0.36852 0.32499 0.0
H5343 H 0.98341 0.38541 0.32104 0.0
H5344 H 0.95831 0.35976 0.30486 0.0
H5345 H 0.97291 0.34266 0.30895 0.0
C5346 C 0.02517 0.31107 0.28422 0.0
C5347 C 0.01576 0.30356 0.27965 0.0
C5348 C 0.02279 0.31897 0.29422 0.0
C5349 C 0.01091 0.3196 0.29954 0.0
C5350 C 0.00145 0.31244 0.29463 0.0
C5351 C 0.00387 0.30443 0.28489 0.0
C5352 C 0.00817 0.32742 0.31044 0.0
C5353 C 0.99937 0.3369 0.30925 0.0
C5354 C 0.01356 0.32509 0.3221 0.0
C5355 C 0.02238 0.31475 0.32405 0.0
C5356 C 0.01886 0.30252 0.32172 0.0
C5357 C 0.02721 0.2928 0.32362 0.0
C5358 C 0.03907 0.2952 0.32794 0.0
C5359 C 0.04259 0.30732 0.3304 0.0
C5360 C 0.03428 0.31707 0.3285 0.0
C5361 C 0.97896 0.35549 0.35443 0.0
C5362 C 0.98641 0.36452 0.3598 0.0
C5363 C 0.98391 0.34729 0.3458 0.0
C5364 C 0.99641 0.34799 0.3424 0.0
C5365 C 0.00417 0.35601 0.34881 0.0
C5366 C 0.99917 0.36431 0.35742 0.0
C5367 C 0.00089 0.34151 0.33117 0.0
C5368 C 0.00997 0.33227 0.3323 0.0
C5369 C 0.99571 0.34405 0.31942 0.0
C5370 C 0.98666 0.35426 0.3174 0.0
C5371 C 0.98951 0.36643 0.32076 0.0
C5372 C 0.98115 0.37606 0.31846 0.0
C5373 C 0.96995 0.37366 0.31268 0.0
C5374 C 0.96701 0.36161 0.30932 0.0
C5375 C 0.97532 0.35194 0.31164 0.0
H5376 H 0.96359 0.38115 0.31074 0.0
H5377 H 0.04551 0.28766 0.32943 0.0
H5378 H 0.97602 0.77011 0.44452 0.0
H5379 H 0.96399 0.77016 0.4634 0.0
H5380 H 0.93264 0.78493 0.4438 0.0
H5381 H 0.94478 0.7847 0.42434 0.0
H5382 H 0.9403 0.79605 0.46941 0.0
H5383 H 0.92897 0.75815 0.44972 0.0
H5384 H 0.93267 0.73872 0.43853 0.0
H5385 H 0.95542 0.72537 0.46812 0.0
H5386 H 0.95204 0.7448 0.4794 0.0
H5387 H 0.90191 0.77355 0.52154 0.0
H5388 H 0.90976 0.77948 0.501 0.0
H5389 H 0.94599 0.76628 0.51102 0.0
H5390 H 0.93826 0.76084 0.53177 0.0
H5391 H 0.93252 0.75515 0.4888 0.0
H5392 H 0.94732 0.79238 0.50672 0.0
H5393 H 0.94641 0.8119 0.51824 0.0
H5394 H 0.91973 0.82636 0.49272 0.0
H5395 H 0.92035 0.80682 0.48113 0.0
C5396 C 0.96658 0.77344 0.44409 0.0
C5397 C 0.96132 0.77728 0.43284 0.0
C5398 C 0.95972 0.77345 0.45496 0.0
C5399 C 0.94742 0.77736 0.45496 0.0
C5400 C 0.94215 0.78179 0.44392 0.0
C5401 C 0.94908 0.7817 0.43286 0.0
C5402 C 0.94035 0.77639 0.46667 0.0
C5403 C 0.9382 0.78714 0.47353 0.0
C5404 C 0.93817 0.7647 0.47219 0.0
C5405 C 0.9403 0.753 0.46537 0.0
C5406 C 0.93486 0.75113 0.45379 0.0
C5407 C 0.93688 0.74009 0.44744 0.0
C5408 C 0.94429 0.73082 0.4526 0.0
C5409 C 0.94968 0.73256 0.46413 0.0
C5410 C 0.94771 0.74358 0.47051 0.0
C5411 C 0.91164 0.77233 0.51945 0.0
C5412 C 0.91956 0.76692 0.52819 0.0
C5413 C 0.91609 0.77569 0.50776 0.0
C5414 C 0.92844 0.77335 0.50454 0.0
C5415 C 0.93645 0.76826 0.5134 0.0
C5416 C 0.93207 0.76522 0.52523 0.0
C5417 C 0.93257 0.7748 0.49156 0.0
C5418 C 0.93424 0.76409 0.48455 0.0
C5419 C 0.93449 0.78648 0.486 0.0
C5420 C 0.9337 0.79804 0.4932 0.0
C5421 C 0.94109 0.79963 0.50369 0.0
C5422 C 0.94068 0.81072 0.51019 0.0
C5423 C 0.93297 0.82034 0.50626 0.0
C5424 C 0.92566 0.81888 0.49579 0.0
C5425 C 0.92604 0.8078 0.48925 0.0
H5426 H 0.93269 0.82894 0.51128 0.0
H5427 H 0.94584 0.72228 0.44767 0.0
H5428 H 0.62941 0.70601 0.83359 0.0
H5429 H 0.61414 0.71462 0.81905 0.0
H5430 H 0.62484 0.68736 0.79211 0.0
H5431 H 0.63986 0.67879 0.80641 0.0
H5432 H 0.62189 0.71023 0.78147 0.0
H5433 H 0.59962 0.68325 0.80964 0.0
H5434 H 0.59268 0.67638 0.8303 0.0
H5435 H 0.57508 0.71151 0.83621 0.0
H5436 H 0.5821 0.71866 0.81565 0.0
H5437 H 0.57457 0.7117 0.73847 0.0
H5438 H 0.58674 0.70276 0.75538 0.0
H5439 H 0.57298 0.73099 0.77986 0.0
H5440 H 0.56079 0.73982 0.76299 0.0
H5441 H 0.57734 0.70916 0.79242 0.0
H5442 H 0.59853 0.73608 0.76429 0.0
H5443 H 0.60458 0.74307 0.7434 0.0
H5444 H 0.6243 0.70907 0.73758 0.0
H5445 H 0.61814 0.70175 0.75836 0.0
C5446 C 0.6285 0.70191 0.82455 0.0
C5447 C 0.63576 0.69163 0.82124 0.0
C5448 C 0.61978 0.70682 0.81625 0.0
C5449 C 0.61828 0.70158 0.80448 0.0
C5450 C 0.6258 0.69158 0.8011 0.0
C5451 C 0.63435 0.68662 0.80937 0.0
C5452 C 0.6086 0.70603 0.79576 0.0
C5453 C 0.61216 0.70992 0.78386 0.0
C5454 C 0.59588 0.70589 0.79891 0.0
C5455 C 0.5915 0.70153 0.81117 0.0
C5456 C 0.59434 0.68954 0.81538 0.0
C5457 C 0.59039 0.68559 0.82707 0.0
C5458 C 0.58347 0.69352 0.83457 0.0
C5459 C 0.58046 0.70539 0.83039 0.0
C5460 C 0.58442 0.70939 0.81873 0.0
C5461 C 0.57361 0.71553 0.74764 0.0
C5462 C 0.56654 0.72626 0.74952 0.0
C5463 C 0.58072 0.71056 0.75726 0.0
C5464 C 0.58097 0.71636 0.76885 0.0
C5465 C 0.57296 0.72635 0.77103 0.0
C5466 C 0.56589 0.73132 0.76142 0.0
C5467 C 0.59063 0.71308 0.77807 0.0
C5468 C 0.58708 0.7095 0.79007 0.0
C5469 C 0.60338 0.71363 0.77505 0.0
C5470 C 0.60773 0.71829 0.76283 0.0
C5471 C 0.60413 0.73007 0.75855 0.0
C5472 C 0.60756 0.73408 0.74672 0.0
C5473 C 0.61472 0.72647 0.73914 0.0
C5474 C 0.61867 0.71492 0.74345 0.0
C5475 C 0.61522 0.71083 0.75525 0.0
H5476 H 0.61719 0.72952 0.72992 0.0
H5477 H 0.58042 0.69045 0.84362 0.0
H5478 H 0.63232 0.37069 0.0876 0.0
H5479 H 0.61854 0.35411 0.08125 0.0
H5480 H 0.59445 0.38109 0.06413 0.0
H5481 H 0.60811 0.39771 0.07094 0.0
H5482 H 0.58118 0.36434 0.07467 0.0
H5483 H 0.61578 0.36415 0.0475 0.0
H5484 H 0.6377 0.36347 0.04123 0.0
H5485 H 0.64143 0.32728 0.05725 0.0
H5486 H 0.61956 0.32782 0.0638 0.0
H5487 H 0.55563 0.33694 0.02471 0.0
H5488 H 0.5692 0.34739 0.03844 0.0
H5489 H 0.57762 0.31304 0.05703 0.0
H5490 H 0.56373 0.30202 0.04275 0.0
H5491 H 0.59872 0.33011 0.04972 0.0
H5492 H 0.55945 0.33182 0.07201 0.0
H5493 H 0.53692 0.33522 0.07276 0.0
H5494 H 0.54168 0.37231 0.05941 0.0
H5495 H 0.5642 0.3691 0.05843 0.0
C5496 C 0.62393 0.37302 0.0827 0.0
C5497 C 0.62108 0.38535 0.07983 0.0
C5498 C 0.61614 0.36358 0.07898 0.0
C5499 C 0.60556 0.36633 0.07206 0.0
C5500 C 0.60256 0.37875 0.0695 0.0
C5501 C 0.61029 0.38823 0.07337 0.0
C5502 C 0.59781 0.35627 0.06718 0.0
C5503 C 0.58504 0.35682 0.06928 0.0
C5504 C 0.60286 0.34643 0.06015 0.0
C5505 C 0.61606 0.3461 0.05632 0.0
C5506 C 0.6213 0.3561 0.04981 0.0
C5507 C 0.63371 0.35573 0.04618 0.0
C5508 C 0.64096 0.34536 0.04888 0.0
C5509 C 0.63581 0.33532 0.0552 0.0
C5510 C 0.6234 0.33565 0.05888 0.0
C5511 C 0.56023 0.33141 0.03169 0.0
C5512 C 0.55843 0.31856 0.03268 0.0
C5513 C 0.56802 0.33751 0.03958 0.0
C5514 C 0.57419 0.33106 0.04889 0.0
C5515 C 0.57276 0.31817 0.04993 0.0
C5516 C 0.56484 0.31191 0.04184 0.0
C5517 C 0.58214 0.33826 0.05717 0.0
C5518 C 0.59497 0.33731 0.05559 0.0
C5519 C 0.5771 0.34814 0.06413 0.0
C5520 C 0.56355 0.35021 0.0652 0.0
C5521 C 0.5557 0.3407 0.06924 0.0
C5522 C 0.54292 0.34259 0.06969 0.0
C5523 C 0.53787 0.35398 0.06615 0.0
C5524 C 0.54559 0.36351 0.06219 0.0
C5525 C 0.55837 0.36166 0.06172 0.0
H5526 H 0.52798 0.35541 0.06647 0.0
H5527 H 0.65056 0.34507 0.04604 0.0
H5528 H 0.03307 0.57322 0.3016 0.0
H5529 H 0.04486 0.58689 0.31504 0.0
H5530 H 0.05858 0.55525 0.33515 0.0
H5531 H 0.04707 0.54163 0.32159 0.0
H5532 H 0.04436 0.57315 0.34966 0.0
H5533 H 0.07889 0.57127 0.32094 0.0
H5534 H 0.08849 0.57318 0.3003 0.0
H5535 H 0.07731 0.61125 0.29831 0.0
H5536 H 0.06751 0.60952 0.31889 0.0
H5537 H 0.08134 0.60827 0.39284 0.0
H5538 H 0.07427 0.59257 0.3781 0.0
H5539 H 0.06341 0.62144 0.35271 0.0
H5540 H 0.07019 0.63691 0.36715 0.0
H5541 H 0.07716 0.60386 0.34128 0.0
H5542 H 0.04211 0.60715 0.36753 0.0
H5543 H 0.03026 0.60705 0.38703 0.0
H5544 H 0.03936 0.5688 0.39269 0.0
H5545 H 0.05147 0.56872 0.37329 0.0
C5546 C 0.03928 0.56916 0.30832 0.0
C5547 C 0.03936 0.55634 0.31036 0.0
C5548 C 0.0458 0.57699 0.3162 0.0
C5549 C 0.05242 0.57208 0.32625 0.0
C5550 C 0.05347 0.55924 0.32753 0.0
C5551 C 0.04711 0.55145 0.31958 0.0
C5552 C 0.05718 0.58027 0.33609 0.0
C5553 C 0.05172 0.5797 0.34793 0.0
C5554 C 0.06639 0.58914 0.33369 0.0
C5555 C 0.07239 0.59023 0.3214 0.0
C5556 C 0.07841 0.58002 0.31606 0.0
C5557 C 0.0839 0.58108 0.30439 0.0
C5558 C 0.08349 0.59232 0.29799 0.0
C5559 C 0.07762 0.60255 0.30327 0.0
C5560 C 0.07211 0.60154 0.31495 0.0
C5561 C 0.07739 0.61121 0.38414 0.0
C5562 C 0.07635 0.62383 0.3812 0.0
C5563 C 0.07334 0.60226 0.37574 0.0
C5564 C 0.06836 0.60585 0.36426 0.0
C5565 C 0.06728 0.61843 0.36144 0.0
C5566 C 0.07113 0.62729 0.3698 0.0
C5567 C 0.06447 0.59668 0.35492 0.0
C5568 C 0.06998 0.59715 0.34313 0.0
C5569 C 0.05505 0.58798 0.35729 0.0
C5570 C 0.04789 0.58798 0.36904 0.0
C5571 C 0.04174 0.59875 0.37301 0.0
C5572 C 0.03494 0.59872 0.38403 0.0
C5573 C 0.03411 0.58794 0.39113 0.0
C5574 C 0.04005 0.57716 0.3872 0.0
C5575 C 0.04689 0.57715 0.37619 0.0
H5576 H 0.02882 0.58793 0.39965 0.0
H5577 H 0.08774 0.59312 0.28895 0.0
H5578 H 0.71668 0.74025 0.58244 0.0
H5579 H 0.70736 0.757 0.59447 0.0
H5580 H 0.73234 0.78293 0.57723 0.0
H5581 H 0.74204 0.766 0.56573 0.0
H5582 H 0.73337 0.78559 0.60057 0.0
H5583 H 0.69896 0.78254 0.57263 0.0
H5584 H 0.68232 0.77203 0.56147 0.0
H5585 H 0.66596 0.76069 0.59591 0.0
H5586 H 0.68256 0.771 0.60728 0.0
H5587 H 0.70365 0.83716 0.63272 0.0
H5588 H 0.71309 0.82322 0.61728 0.0
H5589 H 0.69273 0.79268 0.63283 0.0
H5590 H 0.68346 0.80635 0.64799 0.0
H5591 H 0.68908 0.79425 0.60853 0.0
H5592 H 0.72334 0.79421 0.6363 0.0
H5593 H 0.74017 0.80285 0.6487 0.0
H5594 H 0.75673 0.81818 0.61593 0.0
H5595 H 0.7399 0.80975 0.60334 0.0
C5596 C 0.71986 0.74961 0.58094 0.0
C5597 C 0.72991 0.75193 0.57305 0.0
C5598 C 0.71454 0.75921 0.58782 0.0
C5599 C 0.71904 0.77134 0.58673 0.0
C5600 C 0.72867 0.7737 0.57827 0.0
C5601 C 0.73414 0.76406 0.57161 0.0
C5602 C 0.71474 0.78123 0.59532 0.0
C5603 C 0.72367 0.78768 0.60206 0.0
C5604 C 0.70208 0.7837 0.59768 0.0
C5605 C 0.69207 0.77749 0.59081 0.0
C5606 C 0.69186 0.77774 0.57783 0.0
C5607 C 0.68242 0.77182 0.57146 0.0
C5608 C 0.6731 0.76568 0.57798 0.0
C5609 C 0.67318 0.76545 0.59087 0.0
C5610 C 0.6826 0.77135 0.59728 0.0
C5611 C 0.7015 0.82742 0.633 0.0
C5612 C 0.69276 0.82286 0.6415 0.0
C5613 C 0.70681 0.81947 0.62414 0.0
C5614 C 0.70345 0.80691 0.62377 0.0
C5615 C 0.69532 0.80233 0.63277 0.0
C5616 C 0.69007 0.81018 0.64149 0.0
C5617 C 0.70772 0.79851 0.61374 0.0
C5618 C 0.69878 0.79232 0.6068 0.0
C5619 C 0.72035 0.79612 0.61133 0.0
C5620 C 0.73025 0.80153 0.61891 0.0
C5621 C 0.73048 0.79957 0.63176 0.0
C5622 C 0.74004 0.80439 0.63882 0.0
C5623 C 0.74949 0.8111 0.63311 0.0
C5624 C 0.74939 0.81301 0.62034 0.0
C5625 C 0.73984 0.80822 0.61324 0.0
H5626 H 0.7569 0.8148 0.63859 0.0
H5627 H 0.66581 0.7611 0.57303 0.0
H5628 H 0.57782 0.40755 0.86621 0.0
H5629 H 0.58736 0.42782 0.86879 0.0
H5630 H 0.55311 0.44539 0.85814 0.0
H5631 H 0.54369 0.42532 0.85546 0.0
H5632 H 0.57269 0.45864 0.85091 0.0
H5633 H 0.56011 0.43481 0.88915 0.0
H5634 H 0.56353 0.4176 0.90384 0.0
H5635 H 0.60108 0.42894 0.90865 0.0
H5636 H 0.5979 0.44613 0.89388 0.0
H5637 H 0.56001 0.51343 0.87446 0.0
H5638 H 0.55665 0.49115 0.87429 0.0
H5639 H 0.59093 0.4855 0.89367 0.0
H5640 H 0.59352 0.50775 0.89503 0.0
H5641 H 0.57825 0.46559 0.8958 0.0
H5642 H 0.59071 0.49084 0.86108 0.0
H5643 H 0.58891 0.50795 0.84599 0.0
H5644 H 0.55415 0.49384 0.83381 0.0
H5645 H 0.55576 0.47664 0.84878 0.0
C5646 C 0.57257 0.41576 0.86381 0.0
C5647 C 0.55999 0.41499 0.8608 0.0
C5648 C 0.57797 0.4273 0.86546 0.0
C5649 C 0.5708 0.43803 0.86401 0.0
C5650 C 0.55876 0.43719 0.85942 0.0
C5651 C 0.55338 0.42573 0.85784 0.0
C5652 C 0.5748 0.45005 0.86874 0.0
C5653 C 0.57401 0.46018 0.86071 0.0
C5654 C 0.57701 0.45198 0.88146 0.0
C5655 C 0.57881 0.44165 0.89033 0.0
C5656 C 0.5691 0.43359 0.8933 0.0
C5657 C 0.571 0.42384 0.90164 0.0
C5658 C 0.58252 0.42216 0.90715 0.0
C5659 C 0.59217 0.43023 0.90436 0.0
C5660 C 0.59033 0.43997 0.896 0.0
C5661 C 0.56628 0.50744 0.8795 0.0
C5662 C 0.57709 0.51214 0.88457 0.0
C5663 C 0.56452 0.49472 0.8792 0.0
C5664 C 0.57398 0.48673 0.88324 0.0
C5665 C 0.58367 0.49149 0.89022 0.0
C5666 C 0.58509 0.50423 0.89107 0.0
C5667 C 0.57506 0.47418 0.87806 0.0
C5668 C 0.57713 0.46408 0.88598 0.0
C5669 C 0.57423 0.47222 0.86516 0.0
C5670 C 0.57334 0.4825 0.85607 0.0
C5671 C 0.58268 0.49141 0.85518 0.0
C5672 C 0.58169 0.50111 0.84666 0.0
C5673 C 0.5714 0.50201 0.83899 0.0
C5674 C 0.56211 0.49315 0.83976 0.0
C5675 C 0.56308 0.48339 0.84823 0.0
H5676 H 0.57064 0.50956 0.83243 0.0
H5677 H 0.58397 0.41462 0.91361 0.0
H5678 H 0.86035 0.2453 0.18536 0.0
H5679 H 0.84311 0.2515 0.1725 0.0
H5680 H 0.81867 0.22871 0.19439 0.0
H5681 H 0.83618 0.22219 0.20735 0.0
H5682 H 0.81574 0.22642 0.1689 0.0
H5683 H 0.81937 0.25987 0.19855 0.0
H5684 H 0.83098 0.27588 0.20952 0.0
H5685 H 0.83974 0.29363 0.17502 0.0
H5686 H 0.82832 0.27764 0.16382 0.0
H5687 H 0.76155 0.26625 0.1515 0.0
H5688 H 0.77727 0.25597 0.16424 0.0
H5689 H 0.80315 0.25791 0.13387 0.0
H5690 H 0.78736 0.26753 0.12093 0.0
H5691 H 0.80469 0.27075 0.16407 0.0
H5692 H 0.80903 0.23611 0.13499 0.0
H5693 H 0.79973 0.2206 0.1214 0.0
H5694 H 0.77884 0.20615 0.15205 0.0
H5695 H 0.78789 0.22178 0.16576 0.0
C5696 C 0.8513 0.2416 0.18748 0.0
C5697 C 0.84948 0.23338 0.19741 0.0
C5698 C 0.84148 0.2452 0.18015 0.0
C5699 C 0.82964 0.2408 0.18274 0.0
C5700 C 0.8278 0.23228 0.19241 0.0
C5701 C 0.83773 0.22854 0.19973 0.0
C5702 C 0.8193 0.24496 0.17503 0.0
C5703 C 0.81317 0.23609 0.16804 0.0
C5704 C 0.81641 0.25766 0.17353 0.0
C5705 C 0.82301 0.26749 0.18033 0.0
C5706 C 0.8238 0.26715 0.19329 0.0
C5707 C 0.83036 0.27624 0.19956 0.0
C5708 C 0.83611 0.28576 0.19297 0.0
C5709 C 0.83528 0.28625 0.18011 0.0
C5710 C 0.82874 0.27719 0.17381 0.0
C5711 C 0.77041 0.26392 0.14741 0.0
C5712 C 0.77324 0.26745 0.13524 0.0
C5713 C 0.77937 0.2582 0.15469 0.0
C5714 C 0.79126 0.25622 0.1499 0.0
C5715 C 0.79392 0.25918 0.13758 0.0
C5716 C 0.78487 0.26457 0.1302 0.0
C5717 C 0.80116 0.25218 0.15815 0.0
C5718 C 0.80719 0.26109 0.16516 0.0
C5719 C 0.80433 0.23963 0.15938 0.0
C5720 C 0.79895 0.23019 0.15131 0.0
C5721 C 0.80234 0.22971 0.13878 0.0
C5722 C 0.79714 0.22089 0.13107 0.0
C5723 C 0.78865 0.21243 0.13584 0.0
C5724 C 0.78538 0.21275 0.14835 0.0
C5725 C 0.79053 0.22159 0.15609 0.0
H5726 H 0.78464 0.2056 0.12987 0.0
H5727 H 0.84119 0.29276 0.19783 0.0
H5728 H 0.35098 0.96886 0.35965 0.0
H5729 H 0.33758 0.97768 0.34382 0.0
H5730 H 0.34775 0.01433 0.35508 0.0
H5731 H 0.36121 0.00537 0.37111 0.0
H5732 H 0.32241 0.01081 0.35477 0.0
H5733 H 0.35651 0.00259 0.32623 0.0
H5734 H 0.3723 0.98905 0.31677 0.0
H5735 H 0.34408 0.96415 0.30511 0.0
H5736 H 0.32814 0.97747 0.31459 0.0
H5737 H 0.28133 0.03662 0.30912 0.0
H5738 H 0.29894 0.03195 0.32269 0.0
H5739 H 0.29965 0.99448 0.30936 0.0
H5740 H 0.28278 0.99927 0.29553 0.0
H5741 H 0.32135 0.00077 0.31023 0.0
H5742 H 0.28828 0.00381 0.3392 0.0
H5743 H 0.27064 0.01298 0.35045 0.0
H5744 H 0.29379 0.04217 0.36326 0.0
H5745 H 0.31155 0.03326 0.35194 0.0
C5746 C 0.35081 0.97879 0.35835 0.0
C5747 C 0.35741 0.98643 0.36634 0.0
C5748 C 0.34305 0.98385 0.34935 0.0
C5749 C 0.34167 0.9967 0.34815 0.0
C5750 C 0.34872 0.00439 0.35576 0.0
C5751 C 0.35657 0.99929 0.36477 0.0
C5752 C 0.33203 0.00193 0.33977 0.0
C5753 C 0.3223 0.00889 0.34495 0.0
C5754 C 0.33153 0.99886 0.32711 0.0
C5755 C 0.34113 0.99103 0.32115 0.0
C5756 C 0.35368 0.99422 0.32167 0.0
C5757 C 0.36265 0.98658 0.31631 0.0
C5758 C 0.3592 0.97574 0.31035 0.0
C5759 C 0.34675 0.97255 0.30971 0.0
C5760 C 0.33774 0.98016 0.31505 0.0
C5761 C 0.28532 0.02743 0.3091 0.0
C5762 C 0.28076 0.01838 0.30112 0.0
C5763 C 0.29534 0.02471 0.31692 0.0
C5764 C 0.30073 0.0128 0.31714 0.0
C5765 C 0.29591 0.00378 0.30933 0.0
C5766 C 0.28618 0.00655 0.30139 0.0
C5767 C 0.31152 0.00958 0.3252 0.0
C5768 C 0.32147 0.00295 0.31998 0.0
C5769 C 0.31191 0.01242 0.33796 0.0
C5770 C 0.3012 0.01798 0.34455 0.0
C5771 C 0.28958 0.01227 0.34429 0.0
C5772 C 0.27957 0.0174 0.35071 0.0
C5773 C 0.28108 0.02818 0.35752 0.0
C5774 C 0.29262 0.03384 0.35794 0.0
C5775 C 0.30266 0.02876 0.35152 0.0
H5776 H 0.27333 0.03212 0.3625 0.0
H5777 H 0.36616 0.96983 0.30622 0.0
H5778 H 0.30789 0.05653 0.55185 0.0
H5779 H 0.3221 0.06807 0.56498 0.0
H5780 H 0.32265 0.03736 0.59072 0.0
H5781 H 0.30723 0.02709 0.57876 0.0
H5782 H 0.32819 0.05293 0.60332 0.0
H5783 H 0.34548 0.04507 0.56301 0.0
H5784 H 0.34776 0.04625 0.54034 0.0
H5785 H 0.35059 0.08571 0.5422 0.0
H5786 H 0.34822 0.08477 0.56487 0.0
H5787 H 0.38772 0.05823 0.62672 0.0
H5788 H 0.37224 0.05161 0.61188 0.0
H5789 H 0.36584 0.08956 0.60125 0.0
H5790 H 0.38188 0.09614 0.61573 0.0
H5791 H 0.36325 0.07271 0.58141 0.0
H5792 H 0.34858 0.0752 0.62527 0.0
H5793 H 0.35124 0.06848 0.64694 0.0
H5794 H 0.3486 0.03056 0.63604 0.0
H5795 H 0.346 0.03705 0.61432 0.0
C5796 C 0.31043 0.05274 0.56077 0.0
C5797 C 0.30623 0.04102 0.5644 0.0
C5798 C 0.31898 0.05911 0.56809 0.0
C5799 C 0.32414 0.05347 0.57871 0.0
C5800 C 0.31906 0.04219 0.58272 0.0
C5801 C 0.31004 0.03627 0.57586 0.0
C5802 C 0.33513 0.05867 0.5854 0.0
C5803 C 0.33583 0.05706 0.59831 0.0
C5804 C 0.34538 0.06424 0.57924 0.0
C5805 C 0.34648 0.06486 0.5656 0.0
C5806 C 0.34648 0.054 0.55856 0.0
C5807 C 0.34781 0.05462 0.54572 0.0
C5808 C 0.34927 0.06605 0.53983 0.0
C5809 C 0.34942 0.07687 0.54677 0.0
C5810 C 0.34808 0.0763 0.55961 0.0
C5811 C 0.38331 0.06511 0.6209 0.0
C5812 C 0.38598 0.07768 0.62233 0.0
C5813 C 0.37438 0.06134 0.6125 0.0
C5814 C 0.36757 0.07011 0.60571 0.0
C5815 C 0.37089 0.08262 0.60645 0.0
C5816 C 0.38009 0.08638 0.61467 0.0
C5817 C 0.35625 0.06637 0.59892 0.0
C5818 C 0.35549 0.06846 0.58615 0.0
C5819 C 0.34636 0.06034 0.605 0.0
C5820 C 0.34706 0.05662 0.61819 0.0
C5821 C 0.34849 0.06544 0.62752 0.0
C5822 C 0.35002 0.06167 0.6398 0.0
C5823 C 0.35008 0.04911 0.64286 0.0
C5824 C 0.34852 0.04029 0.63366 0.0
C5825 C 0.34697 0.04401 0.62138 0.0
H5826 H 0.35135 0.0462 0.65234 0.0
H5827 H 0.35031 0.06652 0.52989 0.0
H5828 H 0.23221 0.21177 0.84418 0.0
H5829 H 0.23927 0.20016 0.82608 0.0
H5830 H 0.24537 0.16803 0.84919 0.0
H5831 H 0.23927 0.18 0.86736 0.0
H5832 H 0.26295 0.16926 0.83343 0.0
H5833 H 0.21815 0.17287 0.82951 0.0
H5834 H 0.19877 0.18495 0.82848 0.0
H5835 H 0.21263 0.20489 0.79695 0.0
H5836 H 0.23211 0.19298 0.79785 0.0
H5837 H 0.26129 0.12203 0.7896 0.0
H5838 H 0.25294 0.13576 0.80543 0.0
H5839 H 0.25889 0.16711 0.78142 0.0
H5840 H 0.26764 0.15344 0.76564 0.0
H5841 H 0.23614 0.16741 0.79652 0.0
H5842 H 0.28001 0.16286 0.79919 0.0
H5843 H 0.30013 0.15223 0.8006 0.0
H5844 H 0.28881 0.13485 0.83455 0.0
H5845 H 0.26851 0.14525 0.83325 0.0
C5846 C 0.23501 0.20221 0.8453 0.0
C5847 C 0.23506 0.19664 0.857 0.0
C5848 C 0.23901 0.19556 0.83499 0.0
C5849 C 0.24255 0.18309 0.83619 0.0
C5850 C 0.24265 0.1776 0.84799 0.0
C5851 C 0.23909 0.18439 0.85834 0.0
C5852 C 0.24597 0.17564 0.82521 0.0
C5853 C 0.25698 0.16872 0.82545 0.0
C5854 C 0.23843 0.17526 0.81457 0.0
C5855 C 0.22657 0.18209 0.81378 0.0
C5856 C 0.21704 0.17983 0.82236 0.0
C5857 C 0.20606 0.18665 0.82181 0.0
C5858 C 0.20448 0.19569 0.81267 0.0
C5859 C 0.21386 0.19789 0.80402 0.0
C5860 C 0.22486 0.19108 0.80453 0.0
C5861 C 0.2603 0.13177 0.78745 0.0
C5862 C 0.26511 0.1367 0.7764 0.0
C5863 C 0.25572 0.13961 0.79659 0.0
C5864 C 0.25561 0.15242 0.79464 0.0
C5865 C 0.25904 0.15724 0.78308 0.0
C5866 C 0.26389 0.14942 0.77404 0.0
C5867 C 0.25283 0.16078 0.80499 0.0
C5868 C 0.24203 0.16792 0.80456 0.0
C5869 C 0.26058 0.16135 0.81544 0.0
C5870 C 0.27263 0.1547 0.81601 0.0
C5871 C 0.28171 0.15661 0.80685 0.0
C5872 C 0.29318 0.15066 0.80766 0.0
C5873 C 0.29573 0.14282 0.81763 0.0
C5874 C 0.28681 0.1409 0.82681 0.0
C5875 C 0.27531 0.14682 0.82604 0.0
H5876 H 0.30464 0.13829 0.81829 0.0
H5877 H 0.19598 0.20099 0.81228 0.0
H5878 H 0.22642 0.03783 0.10775 0.0
H5879 H 0.21657 0.04511 0.08895 0.0
H5880 H 0.25021 0.03844 0.06849 0.0
H5881 H 0.2601 0.03038 0.0874 0.0
H5882 H 0.22841 0.06522 0.07005 0.0
H5883 H 0.24081 0.02289 0.05566 0.0
H5884 H 0.24273 0.0005 0.05955 0.0
H5885 H 0.20425 0.99885 0.06918 0.0
H5886 H 0.20222 0.02133 0.06566 0.0
H5887 H 0.214 0.07008 0.00758 0.0
H5888 H 0.22159 0.05684 0.02422 0.0
H5889 H 0.18687 0.06093 0.0435 0.0
H5890 H 0.17924 0.07439 0.02682 0.0
H5891 H 0.20858 0.03477 0.04256 0.0
H5892 H 0.19592 0.07653 0.05819 0.0
H5893 H 0.19332 0.09897 0.05486 0.0
H5894 H 0.23128 0.10171 0.04352 0.0
H5895 H 0.23399 0.07922 0.04656 0.0
C5896 C 0.23185 0.03805 0.09932 0.0
C5897 C 0.24409 0.03359 0.09904 0.0
C5898 C 0.22615 0.04214 0.08857 0.0
C5899 C 0.2326 0.04208 0.07736 0.0
C5900 C 0.24503 0.03826 0.07707 0.0
C5901 C 0.25069 0.03379 0.08784 0.0
C5902 C 0.22605 0.04592 0.06608 0.0
C5903 C 0.22419 0.05857 0.06397 0.0
C5904 C 0.2202 0.03723 0.05844 0.0
C5905 C 0.22143 0.02379 0.06065 0.0
C5906 C 0.23282 0.01778 0.05882 0.0
C5907 C 0.23392 0.00508 0.06092 0.0
C5908 C 0.22363 0.99826 0.06467 0.0
C5909 C 0.21222 0.00415 0.06632 0.0
C5910 C 0.2111 0.01687 0.06431 0.0
C5911 C 0.20776 0.06763 0.01506 0.0
C5912 C 0.19611 0.07328 0.01603 0.0
C5913 C 0.21212 0.06012 0.02457 0.0
C5914 C 0.20486 0.05817 0.03513 0.0
C5915 C 0.19259 0.06243 0.03539 0.0
C5916 C 0.1882 0.06999 0.02582 0.0
C5917 C 0.21105 0.05404 0.0465 0.0
C5918 C 0.21281 0.04139 0.04865 0.0
C5919 C 0.21671 0.06273 0.05429 0.0
C5920 C 0.21509 0.0762 0.0524 0.0
C5921 C 0.20366 0.08191 0.05484 0.0
C5922 C 0.20217 0.09463 0.05303 0.0
C5923 C 0.21211 0.10175 0.04893 0.0
C5924 C 0.22357 0.09617 0.04665 0.0
C5925 C 0.22508 0.08344 0.04839 0.0
H5926 H 0.21096 0.1116 0.04756 0.0
H5927 H 0.22448 0.98842 0.06625 0.0
H5928 H 0.31395 0.27129 0.01738 0.0
H5929 H 0.32866 0.28814 0.01474 0.0
H5930 H 0.29877 0.31281 0.00486 0.0
H5931 H 0.28425 0.29564 0.00652 0.0
H5932 H 0.31651 0.31633 0.98985 0.0
H5933 H 0.31642 0.31166 0.03538 0.0
H5934 H 0.31951 0.29912 0.05426 0.0
H5935 H 0.35662 0.29068 0.04278 0.0
H5936 H 0.35372 0.30308 0.02382 0.0
H5937 H 0.3549 0.36768 0.98349 0.0
H5938 H 0.33832 0.35523 0.99283 0.0
H5939 H 0.3655 0.32899 0.00595 0.0
H5940 H 0.38184 0.3417 0.99734 0.0
H5941 H 0.34816 0.32742 0.02059 0.0
H5942 H 0.35036 0.32719 0.97656 0.0
H5943 H 0.35003 0.33549 0.9553 0.0
H5944 H 0.31282 0.34835 0.96079 0.0
H5945 H 0.31299 0.34025 0.98215 0.0
C5946 C 0.31053 0.28036 0.01481 0.0
C5947 C 0.29797 0.28222 0.01226 0.0
C5948 C 0.31894 0.29005 0.01338 0.0
C5949 C 0.31487 0.30194 0.00991 0.0
C5950 C 0.30221 0.30379 0.0076 0.0
C5951 C 0.29389 0.294 0.0086 0.0
C5952 C 0.32376 0.3123 0.00792 0.0
C5953 C 0.32323 0.31893 0.99672 0.0
C5954 C 0.33305 0.31533 0.01653 0.0
C5955 C 0.33483 0.30828 0.02818 0.0
C5956 C 0.32523 0.30714 0.0369 0.0
C5957 C 0.32695 0.30004 0.04761 0.0
C5958 C 0.33824 0.2941 0.04971 0.0
C5959 C 0.34788 0.29529 0.04115 0.0
C5960 C 0.34621 0.30238 0.03045 0.0
C5961 C 0.35729 0.35964 0.98899 0.0
C5962 C 0.36962 0.35568 0.98979 0.0
C5963 C 0.34782 0.35235 0.99409 0.0
C5964 C 0.35057 0.34088 -0.00025 0.0
C5965 C 0.36301 0.3377 0.00161 0.0
C5966 C 0.3724 0.34503 0.99674 0.0
C5967 C 0.3408 0.33155 0.00257 0.0
C5968 C 0.34122 0.32505 0.01385 0.0
C5969 C 0.33181 0.32819 0.99377 0.0
C5970 C 0.33176 0.33329 0.98102 0.0
C5971 C 0.34215 0.3319 0.97327 0.0
C5972 C 0.34198 0.33654 0.9612 0.0
C5973 C 0.33142 0.34249 0.95671 0.0
C5974 C 0.321 0.34378 0.96429 0.0
C5975 C 0.32114 0.33917 0.97639 0.0
H5976 H 0.3313 0.34605 0.94735 0.0
H5977 H 0.33953 0.28858 0.05798 0.0
H5978 H 0.1549 0.76584 0.27686 0.0
H5979 H 0.16645 0.78192 0.26634 0.0
H5980 H 0.13417 0.79183 0.24528 0.0
H5981 H 0.12218 0.77626 0.25653 0.0
H5982 H 0.17366 0.78901 0.24538 0.0
H5983 H 0.12838 0.81446 0.24579 0.0
H5984 H 0.11072 0.81891 0.25969 0.0
H5985 H 0.13505 0.81924 0.29082 0.0
H5986 H 0.15276 0.81448 0.27712 0.0
H5987 H 0.19392 0.84099 0.21258 0.0
H5988 H 0.18169 0.82335 0.2198 0.0
H5989 H 0.17465 0.84183 0.25434 0.0
H5990 H 0.18653 0.85946 0.24716 0.0
H5991 H 0.15499 0.83085 0.24854 0.0
H5992 H 0.19551 0.81997 0.25359 0.0
H5993 H 0.21776 0.81703 0.24974 0.0
H5994 H 0.20993 0.78994 0.22219 0.0
H5995 H 0.18756 0.79288 0.22572 0.0
C5996 C 0.15028 0.77121 0.26977 0.0
C5997 C 0.13752 0.77001 0.26776 0.0
C5998 C 0.15692 0.78047 0.26379 0.0
C5999 C 0.15102 0.78844 0.25543 0.0
C6000 C 0.13873 0.78615 0.25215 0.0
C6001 C 0.13196 0.77704 0.25836 0.0
C6002 C 0.15755 0.79951 0.25078 0.0
C6003 C 0.16948 0.79813 0.24582 0.0
C6004 C 0.15257 0.81151 0.25235 0.0
C6005 C 0.1418 0.8139 0.26049 0.0
C6006 C 0.12991 0.81535 0.25561 0.0
C6007 C 0.1199 0.81792 0.26346 0.0
C6008 C 0.12175 0.81931 0.27614 0.0
C6009 C 0.13361 0.81808 0.28101 0.0
C6010 C 0.1436 0.81536 0.27323 0.0
C6011 C 0.18967 0.8413 0.22166 0.0
C6012 C 0.19124 0.85154 0.22932 0.0
C6013 C 0.18272 0.83124 0.22578 0.0
C6014 C 0.17735 0.83126 0.23764 0.0
C6015 C 0.17865 0.84164 0.24515 0.0
C6016 C 0.18552 0.85168 0.24103 0.0
C6017 C 0.17081 0.82026 0.24242 0.0
C6018 C 0.15901 0.82169 0.24766 0.0
C6019 C 0.17642 0.80844 0.24224 0.0
C6020 C 0.18983 0.8068 0.23976 0.0
C6021 C 0.19851 0.81351 0.24657 0.0
C6022 C 0.21115 0.81182 0.24448 0.0
C6023 C 0.21525 0.80334 0.23568 0.0
C6024 C 0.20672 0.79653 0.22897 0.0
C6025 C 0.19406 0.79821 0.231 0.0
H6026 H 0.22505 0.80201 0.2341 0.0
H6027 H 0.11402 0.82138 0.28217 0.0
H6028 H 0.16184 0.81255 0.47504 0.0
H6029 H 0.18351 0.81818 0.47288 0.0
H6030 H 0.17409 0.84444 0.44428 0.0
H6031 H 0.15237 0.83898 0.44646 0.0
H6032 H 0.18993 0.82611 0.4362 0.0
H6033 H 0.1879 0.85503 0.46871 0.0
H6034 H 0.18317 0.86354 0.48927 0.0
H6035 H 0.20602 0.83574 0.5062 0.0
H6036 H 0.21078 0.82696 0.48574 0.0
H6037 H 0.25183 0.84829 0.42904 0.0
H6038 H 0.23022 0.84211 0.42927 0.0
H6039 H 0.23721 0.8186 0.46087 0.0
H6040 H 0.25872 0.82539 0.46099 0.0
H6041 H 0.22215 0.83648 0.46656 0.0
H6042 H 0.22452 0.80812 0.43234 0.0
H6043 H 0.22927 0.80132 0.41114 0.0
H6044 H 0.20587 0.82995 0.39651 0.0
H6045 H 0.20111 0.83704 0.4176 0.0
C6046 C 0.1643 0.81991 0.46868 0.0
C6047 C 0.15545 0.82512 0.46073 0.0
C6048 C 0.1767 0.8231 0.46742 0.0
C6049 C 0.18039 0.83153 0.45824 0.0
C6050 C 0.17141 0.8378 0.45131 0.0
C6051 C 0.15898 0.83472 0.45266 0.0
C6052 C 0.19355 0.8323 0.45469 0.0
C6053 C 0.19702 0.82856 0.44275 0.0
C6054 C 0.20271 0.83524 0.46333 0.0
C6055 C 0.19959 0.84025 0.47569 0.0
C6056 C 0.1918 0.85063 0.47683 0.0
C6057 C 0.18914 0.85553 0.48846 0.0
C6058 C 0.19426 0.85016 0.49904 0.0
C6059 C 0.20205 0.83988 0.498 0.0
C6060 C 0.20473 0.83494 0.48639 0.0
C6061 C 0.24886 0.84129 0.4356 0.0
C6062 C 0.25679 0.83726 0.44501 0.0
C6063 C 0.2365 0.83774 0.43573 0.0
C6064 C 0.23205 0.82999 0.44518 0.0
C6065 C 0.24045 0.82466 0.45355 0.0
C6066 C 0.25274 0.82844 0.45358 0.0
C6067 C 0.21869 0.82988 0.44815 0.0
C6068 C 0.21513 0.83389 0.45998 0.0
C6069 C 0.2095 0.82735 0.43931 0.0
C6070 C 0.21255 0.82319 0.42659 0.0
C6071 C 0.22049 0.81306 0.42461 0.0
C6072 C 0.22316 0.80913 0.4126 0.0
C6073 C 0.2179 0.81522 0.40249 0.0
C6074 C 0.20995 0.82525 0.40435 0.0
C6075 C 0.20726 0.82922 0.41634 0.0
H6076 H 0.21997 0.81215 0.39321 0.0
H6077 H 0.19221 0.85398 0.50803 0.0
H6078 H 0.52926 0.92998 0.79303 0.0
H6079 H 0.50942 0.94053 0.79772 0.0
H6080 H 0.49677 0.9326 0.76093 0.0
H6081 H 0.51604 0.92246 0.75627 0.0
H6082 H 0.49171 0.9557 0.76665 0.0
H6083 H 0.48788 0.915 0.78453 0.0
H6084 H 0.49329 0.89777 0.79852 0.0
H6085 H 0.48673 0.92098 0.8299 0.0
H6086 H 0.48143 0.93841 0.81606 0.0
H6087 H 0.4281 0.95821 0.76154 0.0
H6088 H 0.44871 0.949 0.76329 0.0
H6089 H 0.45069 0.96115 0.8011 0.0
H6090 H 0.42972 0.96979 0.7995 0.0
H6091 H 0.46246 0.93918 0.798 0.0
H6092 H 0.4621 0.97902 0.77616 0.0
H6093 H 0.45513 0.99309 0.75954 0.0
H6094 H 0.46837 0.9676 0.73224 0.0
H6095 H 0.47529 0.95333 0.74867 0.0
C6096 C 0.52223 0.93064 0.786 0.0
C6097 C 0.52416 0.9253 0.77435 0.0
C6098 C 0.51093 0.93659 0.78867 0.0
C6099 C 0.50164 0.93734 0.77964 0.0
C6100 C 0.50379 0.93222 0.76801 0.0
C6101 C 0.51485 0.92631 0.76541 0.0
C6102 C 0.4894 0.94307 0.78194 0.0
C6103 C 0.48534 0.95217 0.77358 0.0
C6104 C 0.4811 0.93843 0.79094 0.0
C6105 C 0.48447 0.92806 0.79927 0.0
C6106 C 0.48774 0.91647 0.79441 0.0
C6107 C 0.49075 0.90666 0.80231 0.0
C6108 C 0.49041 0.90829 0.8151 0.0
C6109 C 0.48703 0.91974 0.82 0.0
C6110 C 0.48403 0.92959 0.81213 0.0
C6111 C 0.43279 0.95848 0.77034 0.0
C6112 C 0.42741 0.96454 0.78043 0.0
C6113 C 0.4446 0.95338 0.7713 0.0
C6114 C 0.45138 0.95476 0.7822 0.0
C6115 C 0.44565 0.96008 0.79257 0.0
C6116 C 0.43368 0.96493 0.7917 0.0
C6117 C 0.46469 0.9515 0.78244 0.0
C6118 C 0.46892 0.94297 0.79131 0.0
C6119 C 0.47306 0.95628 0.77353 0.0
C6120 C 0.46919 0.96509 0.76367 0.0
C6121 C 0.46351 0.97642 0.76662 0.0
C6122 C 0.45956 0.98442 0.75722 0.0
C6123 C 0.4613 0.98124 0.74484 0.0
C6124 C 0.46704 0.97007 0.74183 0.0
C6125 C 0.471 0.96203 0.75118 0.0
H6126 H 0.45821 0.98743 0.73759 0.0
H6127 H 0.49272 0.90068 0.8212 0.0
H6128 H 0.07361 0.00949 0.21067 0.0
H6129 H 0.05852 0.02304 0.221 0.0
H6130 H 0.06921 0.0531 0.19698 0.0
H6131 H 0.08389 0.03952 0.18645 0.0
H6132 H 0.07388 0.04612 0.22967 0.0
H6133 H 0.05011 0.06407 0.1943 0.0
H6134 H 0.03723 0.06193 0.17575 0.0
H6135 H 0.01201 0.03896 0.19611 0.0
H6136 H 0.02491 0.04083 0.21474 0.0
H6137 H 0.05212 0.10474 0.25073 0.0
H6138 H 0.06104 0.08655 0.24096 0.0
H6139 H 0.02835 0.06579 0.25011 0.0
H6140 H 0.01924 0.08407 0.25975 0.0
H6141 H 0.03324 0.06687 0.22492 0.0
H6142 H 0.05711 0.05798 0.26247 0.0
H6143 H 0.07161 0.06361 0.27894 0.0
H6144 H 0.09902 0.07309 0.25172 0.0
H6145 H 0.08467 0.06761 0.2351 0.0
C6146 C 0.07217 0.0188 0.2072 0.0
C6147 C 0.07973 0.02356 0.19782 0.0
C6148 C 0.06357 0.0265 0.21304 0.0
C6149 C 0.06262 0.03899 0.20959 0.0
C6150 C 0.06947 0.04341 0.19949 0.0
C6151 C 0.07794 0.03569 0.19358 0.0
C6152 C 0.05758 0.04789 0.21852 0.0
C6153 C 0.06495 0.05062 0.22871 0.0
C6154 C 0.04613 0.05391 0.217 0.0
C6155 C 0.03862 0.05232 0.20578 0.0
C6156 C 0.04195 0.05836 0.19474 0.0
C6157 C 0.03462 0.05725 0.18423 0.0
C6158 C 0.02386 0.05024 0.18472 0.0
C6159 C 0.0204 0.04432 0.19572 0.0
C6160 C 0.02773 0.04538 0.20625 0.0
C6161 C 0.04704 0.09616 0.25115 0.0
C6162 C 0.03492 0.09587 0.25584 0.0
C6163 C 0.05214 0.08577 0.24551 0.0
C6164 C 0.04528 0.07488 0.24469 0.0
C6165 C 0.03373 0.07416 0.25059 0.0
C6166 C 0.02861 0.08458 0.25624 0.0
C6167 C 0.04944 0.06493 0.23633 0.0
C6168 C 0.04201 0.06212 0.22612 0.0
C6169 C 0.06116 0.05926 0.23751 0.0
C6170 C 0.06979 0.06242 0.24755 0.0
C6171 C 0.06621 0.06131 0.26001 0.0
C6172 C 0.07441 0.06447 0.26937 0.0
C6173 C 0.08622 0.06872 0.26638 0.0
C6174 C 0.08988 0.06979 0.25403 0.0
C6175 C 0.08173 0.06663 0.24464 0.0
H6176 H 0.09254 0.07117 0.27364 0.0
H6177 H 0.01816 0.04943 0.1766 0.0
H6178 H 0.43773 0.1525 0.83367 0.0
H6179 H 0.43474 0.17447 0.83772 0.0
H6180 H 0.47367 0.18057 0.83213 0.0
H6181 H 0.47665 0.15866 0.82744 0.0
H6182 H 0.45696 0.19548 0.8528 0.0
H6183 H 0.46223 0.18265 0.80854 0.0
H6184 H 0.45568 0.16991 0.79101 0.0
H6185 H 0.41865 0.1838 0.79479 0.0
H6186 H 0.42492 0.19638 0.81257 0.0
H6187 H 0.47229 0.25296 0.83901 0.0
H6188 H 0.47145 0.23138 0.83296 0.0
H6189 H 0.43228 0.23481 0.82687 0.0
H6190 H 0.43307 0.25653 0.83273 0.0
H6191 H 0.44468 0.21497 0.81297 0.0
H6192 H 0.43732 0.22918 0.8535 0.0
H6193 H 0.44064 0.2421 0.87179 0.0
H6194 H 0.47646 0.2257 0.8768 0.0
H6195 H 0.47345 0.21284 0.85835 0.0
C6196 C 0.44576 0.1584 0.83389 0.0
C6197 C 0.45742 0.15397 0.83013 0.0
C6198 C 0.444 0.17095 0.8361 0.0
C6199 C 0.45396 0.17903 0.83497 0.0
C6200 C 0.4659 0.17436 0.83295 0.0
C6201 C 0.46761 0.16188 0.83037 0.0
C6202 C 0.45178 0.19237 0.83395 0.0
C6203 C 0.45432 0.19976 0.84412 0.0
C6204 C 0.44771 0.19781 0.82275 0.0
C6205 C 0.444 0.19028 0.81203 0.0
C6206 C 0.45265 0.18284 0.80576 0.0
C6207 C 0.449 0.17568 0.79576 0.0
C6208 C 0.43674 0.176 0.79183 0.0
C6209 C 0.42812 0.18352 0.79788 0.0
C6210 C 0.43172 0.19065 0.80793 0.0
C6211 C 0.46362 0.2493 0.83579 0.0
C6212 C 0.45267 0.25621 0.83676 0.0
C6213 C 0.46315 0.23698 0.83232 0.0
C6214 C 0.45173 0.23151 0.82992 0.0
C6215 C 0.44114 0.23891 0.82884 0.0
C6216 C 0.44162 0.25131 0.83222 0.0
C6217 C 0.45055 0.21809 0.83164 0.0
C6218 C 0.44723 0.2107 0.82169 0.0
C6219 C 0.45339 0.21261 0.8432 0.0
C6220 C 0.45522 0.22015 0.85445 0.0
C6221 C 0.44596 0.22842 0.85842 0.0
C6222 C 0.44778 0.23573 0.86883 0.0
C6223 C 0.45878 0.23476 0.87543 0.0
C6224 C 0.46796 0.22645 0.87166 0.0
C6225 C 0.4662 0.21915 0.86122 0.0
H6226 H 0.46017 0.24043 0.88348 0.0
H6227 H 0.43393 0.17045 0.78408 0.0
H6228 H 0.10634 0.23882 0.05072 0.0
H6229 H 0.08808 0.22783 0.05792 0.0
H6230 H 0.0653 0.25002 0.0339 0.0
H6231 H 0.08366 0.26079 0.02613 0.0
H6232 H 0.06204 0.23853 0.06668 0.0
H6233 H 0.06301 0.23277 0.01943 0.0
H6234 H 0.07506 0.22695 0.00092 0.0
H6235 H 0.08719 0.19371 0.0191 0.0
H6236 H 0.07558 0.19959 0.03787 0.0
H6237 H 0.00499 0.21451 0.0694 0.0
H6238 H 0.02176 0.2238 0.05753 0.0
H6239 H 0.04275 0.18996 0.0605 0.0
H6240 H 0.02586 0.1806 0.07243 0.0
H6241 H 0.04838 0.20536 0.03851 0.0
H6242 H 0.04751 0.2059 0.08186 0.0
H6243 H 0.03892 0.20792 0.10288 0.0
H6244 H 0.03121 0.24629 0.09611 0.0
H6245 H 0.03946 0.24442 0.07489 0.0
C6246 C 0.09743 0.24163 0.04716 0.0
C6247 C 0.09648 0.25055 0.03766 0.0
C6248 C 0.08702 0.23524 0.05123 0.0
C6249 C 0.07549 0.23783 0.04607 0.0
C6250 C 0.07425 0.24768 0.03767 0.0
C6251 C 0.08471 0.25395 0.0334 0.0
C6252 C 0.0649 0.22985 0.04908 0.0
C6253 C 0.05887 0.23147 0.06043 0.0
C6254 C 0.06144 0.22003 0.04131 0.0
C6255 C 0.06864 0.21675 0.03012 0.0
C6256 C 0.06846 0.22437 0.01957 0.0
C6257 C 0.07519 0.22103 0.00902 0.0
C6258 C 0.08195 0.21 0.00886 0.0
C6259 C 0.08204 0.2023 0.01926 0.0
C6260 C 0.07543 0.20565 0.02987 0.0
C6261 C 0.01283 0.20879 0.06681 0.0
C6262 C 0.01421 0.1969 0.07182 0.0
C6263 C 0.02247 0.21415 0.06015 0.0
C6264 C 0.03357 0.20765 0.05846 0.0
C6265 C 0.03424 0.19511 0.06178 0.0
C6266 C 0.02453 0.18972 0.06847 0.0
C6267 C 0.04491 0.21467 0.0557 0.0
C6268 C 0.05132 0.21265 0.04462 0.0
C6269 C 0.04911 0.22377 0.064 0.0
C6270 C 0.0439 0.22496 0.07668 0.0
C6271 C 0.04379 0.21472 0.08477 0.0
C6272 C 0.03903 0.21585 0.09674 0.0
C6273 C 0.03448 0.22722 0.10081 0.0
C6274 C 0.03469 0.23748 0.09292 0.0
C6275 C 0.0394 0.23638 0.0809 0.0
H6276 H 0.03082 0.22809 0.1101 0.0
H6277 H 0.08707 0.20738 0.00065 0.0
H6278 H 0.42939 0.85977 0.54984 0.0
H6279 H 0.44869 0.85894 0.5606 0.0
H6280 H 0.43063 0.87173 0.59392 0.0
H6281 H 0.41106 0.87321 0.58265 0.0
H6282 H 0.44685 0.88733 0.58719 0.0
H6283 H 0.4503 0.84394 0.59306 0.0
H6284 H 0.44797 0.82202 0.5876 0.0
H6285 H 0.47269 0.82683 0.55682 0.0
H6286 H 0.4751 0.84876 0.56198 0.0
H6287 H 0.51212 0.89405 0.59959 0.0
H6288 H 0.48977 0.89383 0.5983 0.0
H6289 H 0.49243 0.87662 0.56253 0.0
H6290 H 0.51484 0.87581 0.5644 0.0
H6291 H 0.48364 0.86123 0.57896 0.0
H6292 H 0.47528 0.90484 0.56944 0.0
H6293 H 0.47662 0.92721 0.57331 0.0
H6294 H 0.4608 0.92198 0.60942 0.0
H6295 H 0.45945 0.89957 0.6058 0.0
C6296 C 0.42943 0.86194 0.55959 0.0
C6297 C 0.41895 0.86689 0.56537 0.0
C6298 C 0.44048 0.86125 0.56587 0.0
C6299 C 0.44119 0.86528 0.57813 0.0
C6300 C 0.43028 0.86861 0.58444 0.0
C6301 C 0.41913 0.86942 0.57805 0.0
C6302 C 0.4534 0.86898 0.58275 0.0
C6303 C 0.45491 0.8815 0.58575 0.0
C6304 C 0.46393 0.86144 0.58081 0.0
C6305 C 0.46293 0.84804 0.57799 0.0
C6306 C 0.45527 0.84033 0.58515 0.0
C6307 C 0.45392 0.82789 0.58208 0.0
C6308 C 0.46019 0.82303 0.57188 0.0
C6309 C 0.46788 0.83058 0.56475 0.0
C6310 C 0.46929 0.84301 0.56779 0.0
C6311 C 0.50796 0.89093 0.5911 0.0
C6312 C 0.51503 0.8846 0.58224 0.0
C6313 C 0.49512 0.89077 0.5904 0.0
C6314 C 0.48945 0.88481 0.58051 0.0
C6315 C 0.49669 0.88097 0.57039 0.0
C6316 C 0.50948 0.88066 0.57135 0.0
C6317 C 0.4769 0.87977 0.58199 0.0
C6318 C 0.47554 0.86696 0.58058 0.0
C6319 C 0.46654 0.88705 0.58525 0.0
C6320 C 0.46739 0.90052 0.5874 0.0
C6321 C 0.47218 0.90845 0.57824 0.0
C6322 C 0.47291 0.92114 0.58038 0.0
C6323 C 0.46883 0.92601 0.59162 0.0
C6324 C 0.46397 0.9182 0.60073 0.0
C6325 C 0.4632 0.90551 0.59863 0.0
H6326 H 0.46942 0.93583 0.59326 0.0
H6327 H 0.45908 0.81342 0.56949 0.0
H6328 H 0.79591 0.42794 0.96083 0.0
H6329 H 0.79842 0.44857 0.95146 0.0
H6330 H 0.75887 0.45355 0.95159 0.0
H6331 H 0.7564 0.43321 0.96118 0.0
H6332 H 0.76935 0.46247 0.93045 0.0
H6333 H 0.7731 0.46524 0.97331 0.0
H6334 H 0.78045 0.46073 0.99435 0.0
H6335 H 0.81654 0.47372 0.9844 0.0
H6336 H 0.80949 0.478 0.96316 0.0
H6337 H 0.76109 0.52718 0.93351 0.0
H6338 H 0.76385 0.50685 0.94307 0.0
H6339 H 0.79906 0.50292 0.9247 0.0
H6340 H 0.79609 0.52326 0.91469 0.0
H6341 H 0.7921 0.49356 0.9547 0.0
H6342 H 0.78305 0.4912 0.90944 0.0
H6343 H 0.77035 0.49744 0.89161 0.0
H6344 H 0.73766 0.48534 0.91066 0.0
H6345 H 0.75014 0.47936 0.92874 0.0
C6346 C 0.78778 0.43332 0.95847 0.0
C6347 C 0.77596 0.42902 0.96156 0.0
C6348 C 0.78922 0.44512 0.95328 0.0
C6349 C 0.77882 0.45261 0.95095 0.0
C6350 C 0.767 0.44793 0.9533 0.0
C6351 C 0.76559 0.43631 0.95872 0.0
C6352 C 0.78018 0.46559 0.94672 0.0
C6353 C 0.77446 0.46921 0.93569 0.0
C6354 C 0.78642 0.4745 0.95383 0.0
C6355 C 0.79083 0.4717 0.96653 0.0
C6356 C 0.78267 0.46693 0.97552 0.0
C6357 C 0.78676 0.46445 0.98751 0.0
C6358 C 0.79897 0.46688 0.99069 0.0
C6359 C 0.8071 0.47179 0.9819 0.0
C6360 C 0.80307 0.47422 0.96987 0.0
C6361 C 0.76966 0.5222 0.93192 0.0
C6362 C 0.77849 0.52681 0.92357 0.0
C6363 C 0.77118 0.51058 0.93733 0.0
C6364 C 0.78162 0.50341 0.93454 0.0
C6365 C 0.79097 0.50839 0.92698 0.0
C6366 C 0.78933 0.52 0.92135 0.0
C6367 C 0.78179 0.49022 0.93817 0.0
C6368 C 0.78748 0.48665 0.94925 0.0
C6369 C 0.77495 0.48146 0.93147 0.0
C6370 C 0.76752 0.48501 0.92052 0.0
C6371 C 0.77314 0.49004 0.9099 0.0
C6372 C 0.76598 0.49351 0.89974 0.0
C6373 C 0.7532 0.49183 0.90002 0.0
C6374 C 0.74756 0.48667 0.91046 0.0
C6375 C 0.75467 0.48326 0.92067 0.0
H6376 H 0.74768 0.4945 0.89213 0.0
H6377 H 0.80212 0.46499 -1e-05 0.0
H6378 H 0.86079 0.44803 0.2469 0.0
H6379 H 0.85436 0.44783 0.22555 0.0
H6380 H 0.81812 0.43552 0.23669 0.0
H6381 H 0.82466 0.43558 0.25854 0.0
H6382 H 0.8328 0.42596 0.21122 0.0
H6383 H 0.81486 0.46048 0.2332 0.0
H6384 H 0.81481 0.47732 0.2484 0.0
H6385 H 0.84547 0.49421 0.22965 0.0
H6386 H 0.8459 0.4773 0.21452 0.0
H6387 H 0.80629 0.46747 0.1618 0.0
H6388 H 0.81016 0.46112 0.1829 0.0
H6389 H 0.84754 0.45111 0.17314 0.0
H6390 H 0.84337 0.45641 0.15144 0.0
H6391 H 0.82943 0.46994 0.19831 0.0
H6392 H 0.84971 0.43101 0.18022 0.0
H6393 H 0.84937 0.41352 0.16578 0.0
H6394 H 0.81266 0.40451 0.17784 0.0
H6395 H 0.81264 0.4223 0.192 0.0
C6396 C 0.85148 0.44511 0.24484 0.0
C6397 C 0.84303 0.4422 0.25426 0.0
C6398 C 0.8479 0.44486 0.23265 0.0
C6399 C 0.83579 0.44182 0.22971 0.0
C6400 C 0.82753 0.43788 0.23896 0.0
C6401 C 0.8312 0.43801 0.25133 0.0
C6402 C 0.83171 0.44484 0.21723 0.0
C6403 C 0.83177 0.43553 0.20835 0.0
C6404 C 0.83067 0.45736 0.21365 0.0
C6405 C 0.83049 0.46753 0.2228 0.0
C6406 C 0.8217 0.46769 0.23242 0.0
C6407 C 0.82159 0.47727 0.241 0.0
C6408 C 0.83015 0.48681 0.24001 0.0
C6409 C 0.83885 0.4868 0.23042 0.0
C6410 C 0.83904 0.47722 0.22184 0.0
C6411 C 0.81545 0.46415 0.1641 0.0
C6412 C 0.82456 0.46239 0.15497 0.0
C6413 C 0.81754 0.4603 0.17614 0.0
C6414 C 0.82889 0.45504 0.17934 0.0
C6415 C 0.83848 0.45444 0.17059 0.0
C6416 C 0.83623 0.45786 0.15834 0.0
C6417 C 0.83067 0.4511 0.19217 0.0
C6418 C 0.83024 0.46033 0.20113 0.0
C6419 C 0.83121 0.43852 0.19577 0.0
C6420 C 0.83099 0.42829 0.18677 0.0
C6421 C 0.84142 0.42557 0.17948 0.0
C6422 C 0.84133 0.41553 0.17142 0.0
C6423 C 0.83094 0.40799 0.17079 0.0
C6424 C 0.82064 0.41045 0.17823 0.0
C6425 C 0.82065 0.42055 0.18621 0.0
H6426 H 0.83091 0.40018 0.1646 0.0
H6427 H 0.83003 0.49424 0.24665 0.0
H6428 H 0.85467 0.57313 0.41998 0.0
H6429 H 0.85874 0.58016 0.44116 0.0
H6430 H 0.89677 0.56867 0.43742 0.0
H6431 H 0.89292 0.56219 0.41647 0.0
H6432 H 0.87303 0.55533 0.45392 0.0
H6433 H 0.90337 0.58795 0.44623 0.0
H6434 H 0.90942 0.60734 0.43584 0.0
H6435 H 0.87899 0.62624 0.45313 0.0
H6436 H 0.87261 0.60685 0.46341 0.0
H6437 H 0.89199 0.57614 0.51966 0.0
H6438 H 0.89603 0.57055 0.49818 0.0
H6439 H 0.85703 0.57249 0.4907 0.0
H6440 H 0.85287 0.57799 0.51203 0.0
H6441 H 0.88569 0.5906 0.47982 0.0
H6442 H 0.85246 0.55377 0.47612 0.0
H6443 H 0.84595 0.53454 0.48664 0.0
H6444 H 0.88391 0.5241 0.49171 0.0
H6445 H 0.89059 0.54341 0.48143 0.0
C6446 C 0.86398 0.57276 0.42354 0.0
C6447 C 0.87348 0.56711 0.41682 0.0
C6448 C 0.86633 0.57681 0.43551 0.0
C6449 C 0.87809 0.57503 0.44065 0.0
C6450 C 0.88778 0.57045 0.43345 0.0
C6451 C 0.8855 0.56662 0.42153 0.0
C6452 C 0.87929 0.57422 0.45402 0.0
C6453 C 0.87592 0.563 0.45958 0.0
C6454 C 0.88337 0.58414 0.46121 0.0
C6455 C 0.88741 0.59591 0.45544 0.0
C6456 C 0.89788 0.5962 0.4477 0.0
C6457 C 0.90139 0.6072 0.44185 0.0
C6458 C 0.89456 0.618 0.44378 0.0
C6459 C 0.88426 0.61785 0.45162 0.0
C6460 C 0.88069 0.60686 0.45746 0.0
C6461 C 0.88422 0.57474 0.5136 0.0
C6462 C 0.87217 0.578 0.51733 0.0
C6463 C 0.88658 0.57173 0.50132 0.0
C6464 C 0.87684 0.57153 0.49295 0.0
C6465 C 0.86464 0.57273 0.49713 0.0
C6466 C 0.86228 0.57575 0.50937 0.0
C6467 C 0.87926 0.57175 0.47965 0.0
C6468 C 0.88318 0.58285 0.4741 0.0
C6469 C 0.87592 0.56168 0.47235 0.0
C6470 C 0.87198 0.54991 0.478 0.0
C6471 C 0.85938 0.54731 0.47943 0.0
C6472 C 0.85567 0.53646 0.48541 0.0
C6473 C 0.86451 0.5281 0.48982 0.0
C6474 C 0.87708 0.53059 0.48829 0.0
C6475 C 0.88083 0.5415 0.48244 0.0
H6476 H 0.86163 0.51969 0.49444 0.0
H6477 H 0.89728 0.62651 0.43923 0.0
H6478 H 0.82911 0.6232 0.68446 0.0
H6479 H 0.81517 0.60698 0.69155 0.0
H6480 H 0.80901 0.62666 0.72552 0.0
H6481 H 0.82289 0.64315 0.71827 0.0
H6482 H 0.80969 0.59999 0.72801 0.0
H6483 H 0.79045 0.63201 0.70409 0.0
H6484 H 0.78747 0.64579 0.68614 0.0
H6485 H 0.78123 0.61446 0.66302 0.0
H6486 H 0.78447 0.60044 0.68079 0.0
H6487 H 0.75068 0.58843 0.74805 0.0
H6488 H 0.76847 0.59793 0.73864 0.0
H6489 H 0.768 0.57131 0.70927 0.0
H6490 H 0.74967 0.56141 0.71884 0.0
H6491 H 0.77185 0.5985 0.70245 0.0
H6492 H 0.78913 0.56664 0.72826 0.0
H6493 H 0.79042 0.55428 0.74743 0.0
H6494 H 0.79874 0.5869 0.76796 0.0
H6495 H 0.79732 0.59949 0.74895 0.0
C6496 C 0.82521 0.6238 0.69368 0.0
C6497 C 0.82716 0.63435 0.70089 0.0
C6498 C 0.81714 0.6146 0.69764 0.0
C6499 C 0.81088 0.61574 0.70894 0.0
C6500 C 0.81374 0.62564 0.71674 0.0
C6501 C 0.8218 0.63497 0.7127 0.0
C6502 C 0.80053 0.60729 0.71197 0.0
C6503 C 0.80144 0.59965 0.72241 0.0
C6504 C 0.78982 0.60672 0.70451 0.0
C6505 C 0.78795 0.61514 0.69375 0.0
C6506 C 0.78864 0.62803 0.69515 0.0
C6507 C 0.78686 0.6359 0.685 0.0
C6508 C 0.78423 0.631 0.67343 0.0
C6509 C 0.78333 0.61823 0.67198 0.0
C6510 C 0.78515 0.61032 0.68209 0.0
C6511 C 0.75423 0.58445 0.73958 0.0
C6512 C 0.74874 0.57401 0.73427 0.0
C6513 C 0.76448 0.58998 0.73421 0.0
C6514 C 0.76967 0.58527 0.72336 0.0
C6515 C 0.76413 0.57503 0.71771 0.0
C6516 C 0.75373 0.56937 0.72319 0.0
C6517 C 0.78105 0.59119 0.71848 0.0
C6518 C 0.78029 0.59852 0.70778 0.0
C6519 C 0.79185 0.59161 0.72576 0.0
C6520 C 0.79309 0.58401 0.73717 0.0
C6521 C 0.79119 0.57118 0.73687 0.0
C6522 C 0.79194 0.56414 0.74771 0.0
C6523 C 0.79465 0.5698 0.75891 0.0
C6524 C 0.79666 0.58252 0.75928 0.0
C6525 C 0.79591 0.58961 0.74847 0.0
H6526 H 0.79519 0.56433 0.76729 0.0
H6527 H 0.78285 0.63711 0.66559 0.0
loop_
_geom_bond_atom_site_label_1
_geom_bond_atom_site_label_2
_geom_bond_distance
_geom_bond_site_symmetry_2
_ccdc_geom_bond_type
Mn0 O5 2.095 . S
Mn0 O15 2.162 . S
Mn0 O16 2.297 . S
Mn0 O24 2.385 1_455 S
Mn0 O25 2.209 1_455 S
Mn0 O26 2.094 . S
Mn1 O6 2.121 . S
Mn1 N8 2.257 1_455 S
Mn1 N17 2.282 1_455 S
Mn1 O25 2.215 1_455 S
Mn1 O27 2.117 . S
C2 O24 1.234 . S
C2 O25 1.283 . S
C3 O15 1.281 . S
C3 O16 1.236 . S
C4 O26 1.240 . S
C4 O27 1.264 . S
O5 Mn0 2.095 . S
O5 C14 1.250 . S
O6 Mn1 2.121 . S
O6 C14 1.258 . S
C7 N8 1.326 . S
C7 C11 1.460 . S
C7 H13 0.929 . S
N8 Mn1 2.257 1_655 S
N8 C7 1.326 . S
N8 C12 1.362 . S
C9 C10 1.258 . S
C9 C12 1.431 . S
C9 C29 1.449 . S
C10 C9 1.258 . S
C10 C11 1.477 . S
C10 H30 0.931 . S
C11 C7 1.460 . S
C11 C10 1.477 . S
C11 H31 0.930 . S
C12 N8 1.362 . S
C12 C9 1.431 . S
C12 C22 1.476 . S
H13 C7 0.929 . S
C14 O5 1.250 . S
C14 O6 1.258 . S
O15 Mn0 2.162 . S
O15 C3 1.281 . S
O16 Mn0 2.297 . S
O16 C3 1.236 . S
N17 Mn1 2.282 1_655 S
N17 C18 1.328 . S
N17 C22 1.318 . S
C18 N17 1.328 . S
C18 C19 1.457 . S
C18 H23 0.929 . S
C19 C18 1.457 . S
C19 C20 1.291 . S
C19 H32 0.931 . S
C20 C19 1.291 . S
C20 C21 1.373 . S
C20 H33 0.929 . S
C21 C20 1.373 . S
C21 C22 1.396 . S
C21 C28 1.403 . S
C22 C12 1.476 . S
C22 N17 1.318 . S
C22 C21 1.396 . S
H23 C18 0.929 . S
O24 Mn0 2.385 1_655 S
O24 C2 1.234 . S
O25 Mn0 2.209 1_655 S
O25 Mn1 2.215 1_655 S
O25 C2 1.283 . S
O26 Mn0 2.094 . S
O26 C4 1.240 . S
O27 Mn1 2.117 . S
O27 C4 1.264 . S
C28 C21 1.403 . S
C28 C29 1.399 . S
C28 H34 0.929 . S
C29 C9 1.449 . S
C29 C28 1.399 . S
C29 H35 0.930 . S
H30 C10 0.931 . S
H31 C11 0.930 . S
H32 C19 0.931 . S
H33 C20 0.929 . S
H34 C28 0.929 . S
H35 C29 0.930 . S
Mn36 O41 2.095 1_655 S
Mn36 O51 2.162 . S
Mn36 O52 2.297 . S
Mn36 O60 2.385 . S
Mn36 O61 2.209 1_655 S
Mn36 O62 2.094 . S
Mn37 O42 2.121 . S
Mn37 N44 2.257 . S
Mn37 N53 2.282 . S
Mn37 O61 2.215 . S
Mn37 O63 2.117 . S
C38 O60 1.228 . S
C38 O61 1.287 1_655 S
C39 O51 1.281 . S
C39 O52 1.236 . S
C40 O62 1.240 1_455 S
C40 O63 1.264 . S
O41 Mn36 2.095 1_455 S
O41 C50 1.250 . S
O42 Mn37 2.121 . S
O42 C50 1.258 . S
C43 N44 1.326 . S
C43 C47 1.460 . S
C43 H49 0.929 . S
N44 Mn37 2.257 . S
N44 C43 1.326 . S
N44 C48 1.362 . S
C45 C46 1.258 . S
C45 C48 1.431 . S
C45 C65 1.449 . S
C46 C45 1.258 . S
C46 C47 1.477 . S
C46 H66 0.931 . S
C47 C43 1.460 . S
C47 C46 1.477 . S
C47 H67 0.930 . S
C48 N44 1.362 . S
C48 C45 1.431 . S
C48 C58 1.476 . S
H49 C43 0.929 . S
C50 O41 1.250 . S
C50 O42 1.258 . S
O51 Mn36 2.162 . S
O51 C39 1.281 . S
O52 Mn36 2.297 . S
O52 C39 1.236 . S
N53 Mn37 2.282 . S
N53 C54 1.328 . S
N53 C58 1.318 . S
C54 N53 1.328 . S
C54 C55 1.457 . S
C54 H59 0.929 . S
C55 C54 1.457 . S
C55 C56 1.291 . S
C55 H68 0.931 . S
C56 C55 1.291 . S
C56 C57 1.373 . S
C56 H69 0.929 . S
C57 C56 1.373 . S
C57 C58 1.396 . S
C57 C64 1.403 . S
C58 C48 1.476 . S
C58 N53 1.318 . S
C58 C57 1.396 . S
H59 C54 0.929 . S
O60 Mn36 2.385 . S
O60 C38 1.228 . S
O61 Mn36 2.209 1_455 S
O61 Mn37 2.215 . S
O61 C38 1.287 1_455 S
O62 Mn36 2.094 . S
O62 C40 1.240 1_655 S
O63 Mn37 2.117 . S
O63 C40 1.264 . S
C64 C57 1.403 . S
C64 C65 1.399 . S
C64 H70 0.929 . S
C65 C45 1.449 . S
C65 C64 1.399 . S
C65 H71 0.930 . S
H66 C46 0.931 . S
H67 C47 0.930 . S
H68 C55 0.931 . S
H69 C56 0.929 . S
H70 C64 0.929 . S
H71 C65 0.930 . S
Mn72 O77 2.095 . S
Mn72 O87 2.162 . S
Mn72 O88 2.297 . S
Mn72 O96 2.385 . S
Mn72 O97 2.209 . S
Mn72 O98 2.094 . S
Mn73 O78 2.121 . S
Mn73 N80 2.257 . S
Mn73 N89 2.282 . S
Mn73 O97 2.215 . S
Mn73 O99 2.117 . S
C74 O96 1.234 . S
C74 O97 1.283 . S
C75 O87 1.281 . S
C75 O88 1.236 . S
C76 O98 1.240 . S
C76 O99 1.264 . S
O77 Mn72 2.095 . S
O77 C86 1.250 . S
O78 Mn73 2.121 . S
O78 C86 1.258 . S
C79 N80 1.326 . S
C79 C83 1.460 . S
C79 H85 0.929 . S
N80 Mn73 2.257 . S
N80 C79 1.326 . S
N80 C84 1.362 . S
C81 C82 1.258 . S
C81 C84 1.431 . S
C81 C101 1.449 . S
C82 C81 1.258 . S
C82 C83 1.477 . S
C82 H102 0.931 . S
C83 C79 1.460 . S
C83 C82 1.477 . S
C83 H103 0.930 . S
C84 N80 1.362 . S
C84 C81 1.431 . S
C84 C94 1.476 . S
H85 C79 0.929 . S
C86 O77 1.250 . S
C86 O78 1.258 . S
O87 Mn72 2.162 . S
O87 C75 1.281 . S
O88 Mn72 2.297 . S
O88 C75 1.236 . S
N89 Mn73 2.282 . S
N89 C90 1.328 . S
N89 C94 1.318 . S
C90 N89 1.328 . S
C90 C91 1.457 . S
C90 H95 0.929 . S
C91 C90 1.457 . S
C91 C92 1.291 . S
C91 H104 0.931 . S
C92 C91 1.291 . S
C92 C93 1.373 . S
C92 H105 0.929 . S
C93 C92 1.373 . S
C93 C94 1.396 . S
C93 C100 1.403 . S
C94 C84 1.476 . S
C94 N89 1.318 . S
C94 C93 1.396 . S
H95 C90 0.929 . S
O96 Mn72 2.385 . S
O96 C74 1.234 . S
O97 Mn72 2.209 . S
O97 Mn73 2.215 . S
O97 C74 1.283 . S
O98 Mn72 2.094 . S
O98 C76 1.240 . S
O99 Mn73 2.117 . S
O99 C76 1.264 . S
C100 C93 1.403 . S
C100 C101 1.399 . S
C100 H106 0.929 . S
C101 C81 1.449 . S
C101 C100 1.399 . S
C101 H107 0.930 . S
H102 C82 0.931 . S
H103 C83 0.930 . S
H104 C91 0.931 . S
H105 C92 0.929 . S
H106 C100 0.929 . S
H107 C101 0.930 . S
Mn108 O113 2.095 . S
Mn108 O123 2.162 . S
Mn108 O124 2.297 . S
Mn108 O132 2.385 1_554 S
Mn108 O133 2.209 1_554 S
Mn108 O134 2.094 1_554 S
Mn109 O114 2.121 . S
Mn109 N116 2.257 . S
Mn109 N125 2.282 . S
Mn109 O133 2.215 . S
Mn109 O135 2.117 . S
C110 O132 1.234 . S
C110 O133 1.283 . S
C111 O123 1.281 . S
C111 O124 1.236 . S
C112 O134 1.240 . S
C112 O135 1.264 . S
O113 Mn108 2.095 . S
O113 C122 1.250 . S
O114 Mn109 2.121 . S
O114 C122 1.258 1_556 S
C115 N116 1.326 . S
C115 C119 1.460 . S
C115 H121 0.929 . S
N116 Mn109 2.257 . S
N116 C115 1.326 . S
N116 C120 1.362 . S
C117 C118 1.258 . S
C117 C120 1.431 . S
C117 C137 1.449 . S
C118 C117 1.258 . S
C118 C119 1.477 . S
C118 H138 0.931 . S
C119 C115 1.460 . S
C119 C118 1.477 . S
C119 H139 0.930 . S
C120 N116 1.362 . S
C120 C117 1.431 . S
C120 C130 1.476 . S
H121 C115 0.929 . S
C122 O113 1.250 . S
C122 O114 1.258 1_554 S
O123 Mn108 2.162 . S
O123 C111 1.281 . S
O124 Mn108 2.297 . S
O124 C111 1.236 . S
N125 Mn109 2.282 . S
N125 C126 1.328 . S
N125 C130 1.318 . S
C126 N125 1.328 . S
C126 C127 1.457 . S
C126 H131 0.929 . S
C127 C126 1.457 . S
C127 C128 1.291 . S
C127 H140 0.931 . S
C128 C127 1.291 . S
C128 C129 1.373 . S
C128 H141 0.929 . S
C129 C128 1.373 . S
C129 C130 1.396 . S
C129 C136 1.403 . S
C130 C120 1.476 . S
C130 N125 1.318 . S
C130 C129 1.396 . S
H131 C126 0.929 . S
O132 Mn108 2.385 1_556 S
O132 C110 1.234 . S
O133 Mn108 2.209 1_556 S
O133 Mn109 2.215 . S
O133 C110 1.283 . S
O134 Mn108 2.094 1_556 S
O134 C112 1.240 . S
O135 Mn109 2.117 . S
O135 C112 1.264 . S
C136 C129 1.403 . S
C136 C137 1.399 . S
C136 H142 0.929 . S
C137 C117 1.449 . S
C137 C136 1.399 . S
C137 H143 0.930 . S
H138 C118 0.931 . S
H139 C119 0.930 . S
H140 C127 0.931 . S
H141 C128 0.929 . S
H142 C136 0.929 . S
H143 C137 0.930 . S
Mn144 O149 2.095 . S
Mn144 O159 2.162 . S
Mn144 O160 2.297 . S
Mn144 O168 2.385 . S
Mn144 O169 2.209 . S
Mn144 O170 2.094 . S
Mn145 O150 2.121 . S
Mn145 N152 2.257 . S
Mn145 N161 2.282 . S
Mn145 O169 2.215 . S
Mn145 O171 2.117 . S
C146 O168 1.234 . S
C146 O169 1.283 . S
C147 O159 1.281 . S
C147 O160 1.236 . S
C148 O170 1.240 . S
C148 O171 1.264 . S
O149 Mn144 2.095 . S
O149 C158 1.250 . S
O150 Mn145 2.121 . S
O150 C158 1.258 . S
C151 N152 1.326 . S
C151 C155 1.460 . S
C151 H157 0.929 . S
N152 Mn145 2.257 . S
N152 C151 1.326 . S
N152 C156 1.362 . S
C153 C154 1.258 . S
C153 C156 1.431 . S
C153 C173 1.449 . S
C154 C153 1.258 . S
C154 C155 1.477 . S
C154 H174 0.931 . S
C155 C151 1.460 . S
C155 C154 1.477 . S
C155 H175 0.930 . S
C156 N152 1.362 . S
C156 C153 1.431 . S
C156 C166 1.476 . S
H157 C151 0.929 . S
C158 O149 1.250 . S
C158 O150 1.258 . S
O159 Mn144 2.162 . S
O159 C147 1.281 . S
O160 Mn144 2.297 . S
O160 C147 1.236 . S
N161 Mn145 2.282 . S
N161 C162 1.328 . S
N161 C166 1.318 . S
C162 N161 1.328 . S
C162 C163 1.457 . S
C162 H167 0.929 . S
C163 C162 1.457 . S
C163 C164 1.291 . S
C163 H176 0.931 . S
C164 C163 1.291 . S
C164 C165 1.373 . S
C164 H177 0.929 . S
C165 C164 1.373 . S
C165 C166 1.396 . S
C165 C172 1.403 . S
C166 C156 1.476 . S
C166 N161 1.318 . S
C166 C165 1.396 . S
H167 C162 0.929 . S
O168 Mn144 2.385 . S
O168 C146 1.234 . S
O169 Mn144 2.209 . S
O169 Mn145 2.215 . S
O169 C146 1.283 . S
O170 Mn144 2.094 . S
O170 C148 1.240 . S
O171 Mn145 2.117 . S
O171 C148 1.264 . S
C172 C165 1.403 . S
C172 C173 1.399 . S
C172 H178 0.929 . S
C173 C153 1.449 . S
C173 C172 1.399 . S
C173 H179 0.930 . S
H174 C154 0.931 . S
H175 C155 0.930 . S
H176 C163 0.931 . S
H177 C164 0.929 . S
H178 C172 0.929 . S
H179 C173 0.930 . S
Mn180 O185 2.095 . S
Mn180 O195 2.162 . S
Mn180 O196 2.297 . S
Mn180 O204 2.385 . S
Mn180 O205 2.209 . S
Mn180 O206 2.094 . S
Mn181 O186 2.121 . S
Mn181 N188 2.257 . S
Mn181 N197 2.282 . S
Mn181 O205 2.215 . S
Mn181 O207 2.117 . S
C182 O204 1.234 . S
C182 O205 1.283 . S
C183 O195 1.281 . S
C183 O196 1.236 . S
C184 O206 1.240 . S
C184 O207 1.264 . S
O185 Mn180 2.095 . S
O185 C194 1.250 . S
O186 Mn181 2.121 . S
O186 C194 1.258 . S
C187 N188 1.326 . S
C187 C191 1.460 . S
C187 H193 0.929 . S
N188 Mn181 2.257 . S
N188 C187 1.326 . S
N188 C192 1.362 . S
C189 C190 1.258 . S
C189 C192 1.431 . S
C189 C209 1.449 . S
C190 C189 1.258 . S
C190 C191 1.477 . S
C190 H210 0.931 . S
C191 C187 1.460 . S
C191 C190 1.477 . S
C191 H211 0.930 . S
C192 N188 1.362 . S
C192 C189 1.431 . S
C192 C202 1.476 . S
H193 C187 0.929 . S
C194 O185 1.250 . S
C194 O186 1.258 . S
O195 Mn180 2.162 . S
O195 C183 1.281 . S
O196 Mn180 2.297 . S
O196 C183 1.236 . S
N197 Mn181 2.282 . S
N197 C198 1.328 . S
N197 C202 1.318 . S
C198 N197 1.328 . S
C198 C199 1.457 . S
C198 H203 0.929 . S
C199 C198 1.457 . S
C199 C200 1.291 . S
C199 H212 0.931 . S
C200 C199 1.291 . S
C200 C201 1.373 . S
C200 H213 0.929 . S
C201 C200 1.373 . S
C201 C202 1.396 . S
C201 C208 1.403 . S
C202 C192 1.476 . S
C202 N197 1.318 . S
C202 C201 1.396 . S
H203 C198 0.929 . S
O204 Mn180 2.385 . S
O204 C182 1.234 . S
O205 Mn180 2.209 . S
O205 Mn181 2.215 . S
O205 C182 1.283 . S
O206 Mn180 2.094 . S
O206 C184 1.240 . S
O207 Mn181 2.117 . S
O207 C184 1.264 . S
C208 C201 1.403 . S
C208 C209 1.399 . S
C208 H214 0.929 . S
C209 C189 1.449 . S
C209 C208 1.399 . S
C209 H215 0.930 . S
H210 C190 0.931 . S
H211 C191 0.930 . S
H212 C199 0.931 . S
H213 C200 0.929 . S
H214 C208 0.929 . S
H215 C209 0.930 . S
Mn216 O221 2.095 . S
Mn216 O231 2.162 . S
Mn216 O232 2.297 . S
Mn216 O240 2.385 . S
Mn216 O241 2.209 . S
Mn216 O242 2.094 . S
Mn217 O222 2.121 . S
Mn217 N224 2.257 . S
Mn217 N233 2.282 . S
Mn217 O241 2.215 . S
Mn217 O243 2.117 . S
C218 O240 1.234 . S
C218 O241 1.283 . S
C219 O231 1.281 . S
C219 O232 1.236 . S
C220 O242 1.240 . S
C220 O243 1.264 . S
O221 Mn216 2.095 . S
O221 C230 1.250 . S
O222 Mn217 2.121 . S
O222 C230 1.258 . S
C223 N224 1.326 . S
C223 C227 1.460 . S
C223 H229 0.929 . S
N224 Mn217 2.257 . S
N224 C223 1.326 . S
N224 C228 1.362 . S
C225 C226 1.258 . S
C225 C228 1.431 . S
C225 C245 1.449 . S
C226 C225 1.258 . S
C226 C227 1.477 . S
C226 H246 0.931 . S
C227 C223 1.460 . S
C227 C226 1.477 . S
C227 H247 0.930 . S
C228 N224 1.362 . S
C228 C225 1.431 . S
C228 C238 1.476 . S
H229 C223 0.929 . S
C230 O221 1.250 . S
C230 O222 1.258 . S
O231 Mn216 2.162 . S
O231 C219 1.281 . S
O232 Mn216 2.297 . S
O232 C219 1.236 . S
N233 Mn217 2.282 . S
N233 C234 1.328 . S
N233 C238 1.318 . S
C234 N233 1.328 . S
C234 C235 1.457 . S
C234 H239 0.929 . S
C235 C234 1.457 . S
C235 C236 1.291 . S
C235 H248 0.931 . S
C236 C235 1.291 . S
C236 C237 1.373 . S
C236 H249 0.929 . S
C237 C236 1.373 . S
C237 C238 1.396 . S
C237 C244 1.403 . S
C238 C228 1.476 . S
C238 N233 1.318 . S
C238 C237 1.396 . S
H239 C234 0.929 . S
O240 Mn216 2.385 . S
O240 C218 1.234 . S
O241 Mn216 2.209 . S
O241 Mn217 2.215 . S
O241 C218 1.283 . S
O242 Mn216 2.094 . S
O242 C220 1.240 . S
O243 Mn217 2.117 . S
O243 C220 1.264 . S
C244 C237 1.403 . S
C244 C245 1.399 . S
C244 H250 0.929 . S
C245 C225 1.449 . S
C245 C244 1.399 . S
C245 H251 0.930 . S
H246 C226 0.931 . S
H247 C227 0.930 . S
H248 C235 0.931 . S
H249 C236 0.929 . S
H250 C244 0.929 . S
H251 C245 0.930 . S
Mn252 O257 2.095 . S
Mn252 O267 2.162 . S
Mn252 O268 2.297 . S
Mn252 O276 2.385 . S
Mn252 O277 2.209 . S
Mn252 O278 2.094 . S
Mn253 O258 2.121 . S
Mn253 N260 2.257 . S
Mn253 N269 2.282 . S
Mn253 O277 2.215 . S
Mn253 O279 2.117 . S
C254 O276 1.234 . S
C254 O277 1.283 . S
C255 O267 1.281 . S
C255 O268 1.236 . S
C256 O278 1.240 . S
C256 O279 1.264 . S
O257 Mn252 2.095 . S
O257 C266 1.250 . S
O258 Mn253 2.121 . S
O258 C266 1.258 . S
C259 N260 1.326 . S
C259 C263 1.460 . S
C259 H265 0.929 . S
N260 Mn253 2.257 . S
N260 C259 1.326 . S
N260 C264 1.362 . S
C261 C262 1.258 . S
C261 C264 1.431 . S
C261 C281 1.449 . S
C262 C261 1.258 . S
C262 C263 1.477 . S
C262 H282 0.931 . S
C263 C259 1.460 . S
C263 C262 1.477 . S
C263 H283 0.930 . S
C264 N260 1.362 . S
C264 C261 1.431 . S
C264 C274 1.476 . S
H265 C259 0.929 . S
C266 O257 1.250 . S
C266 O258 1.258 . S
O267 Mn252 2.162 . S
O267 C255 1.281 . S
O268 Mn252 2.297 . S
O268 C255 1.236 . S
N269 Mn253 2.282 . S
N269 C270 1.328 . S
N269 C274 1.318 . S
C270 N269 1.328 . S
C270 C271 1.457 . S
C270 H275 0.929 . S
C271 C270 1.457 . S
C271 C272 1.291 . S
C271 H284 0.931 . S
C272 C271 1.291 . S
C272 C273 1.373 . S
C272 H285 0.929 . S
C273 C272 1.373 . S
C273 C274 1.396 . S
C273 C280 1.403 . S
C274 C264 1.476 . S
C274 N269 1.318 . S
C274 C273 1.396 . S
H275 C270 0.929 . S
O276 Mn252 2.385 . S
O276 C254 1.234 . S
O277 Mn252 2.209 . S
O277 Mn253 2.215 . S
O277 C254 1.283 . S
O278 Mn252 2.094 . S
O278 C256 1.240 . S
O279 Mn253 2.117 . S
O279 C256 1.264 . S
C280 C273 1.403 . S
C280 C281 1.399 . S
C280 H286 0.929 . S
C281 C261 1.449 . S
C281 C280 1.399 . S
C281 H287 0.930 . S
H282 C262 0.931 . S
H283 C263 0.930 . S
H284 C271 0.931 . S
H285 C272 0.929 . S
H286 C280 0.929 . S
H287 C281 0.930 . S
Mn288 O293 2.095 . S
Mn288 O303 2.162 . S
Mn288 O304 2.297 . S
Mn288 O312 2.385 1_545 S
Mn288 O313 2.209 1_545 S
Mn288 O314 2.094 . S
Mn289 O294 2.121 . S
Mn289 N296 2.257 1_545 S
Mn289 N305 2.282 1_545 S
Mn289 O313 2.215 1_545 S
Mn289 O315 2.117 . S
C290 O312 1.234 . S
C290 O313 1.283 . S
C291 O303 1.281 . S
C291 O304 1.236 . S
C292 O314 1.240 . S
C292 O315 1.264 . S
O293 Mn288 2.095 . S
O293 C302 1.250 . S
O294 Mn289 2.121 . S
O294 C302 1.258 . S
C295 N296 1.326 . S
C295 C299 1.460 . S
C295 H301 0.929 . S
N296 Mn289 2.257 1_565 S
N296 C295 1.326 . S
N296 C300 1.362 . S
C297 C298 1.258 . S
C297 C300 1.431 . S
C297 C317 1.449 . S
C298 C297 1.258 . S
C298 C299 1.477 . S
C298 H318 0.931 . S
C299 C295 1.460 . S
C299 C298 1.477 . S
C299 H319 0.930 . S
C300 N296 1.362 . S
C300 C297 1.431 . S
C300 C310 1.476 . S
H301 C295 0.929 . S
C302 O293 1.250 . S
C302 O294 1.258 . S
O303 Mn288 2.162 . S
O303 C291 1.281 . S
O304 Mn288 2.297 . S
O304 C291 1.236 . S
N305 Mn289 2.282 1_565 S
N305 C306 1.328 . S
N305 C310 1.318 . S
C306 N305 1.328 . S
C306 C307 1.457 . S
C306 H311 0.929 . S
C307 C306 1.457 . S
C307 C308 1.291 . S
C307 H320 0.931 . S
C308 C307 1.291 . S
C308 C309 1.373 . S
C308 H321 0.929 . S
C309 C308 1.373 . S
C309 C310 1.396 . S
C309 C316 1.403 . S
C310 C300 1.476 . S
C310 N305 1.318 . S
C310 C309 1.396 . S
H311 C306 0.929 . S
O312 Mn288 2.385 1_565 S
O312 C290 1.234 . S
O313 Mn288 2.209 1_565 S
O313 Mn289 2.215 1_565 S
O313 C290 1.283 . S
O314 Mn288 2.094 . S
O314 C292 1.240 . S
O315 Mn289 2.117 . S
O315 C292 1.264 . S
C316 C309 1.403 . S
C316 C317 1.399 . S
C316 H322 0.929 . S
C317 C297 1.449 . S
C317 C316 1.399 . S
C317 H323 0.930 . S
H318 C298 0.931 . S
H319 C299 0.930 . S
H320 C307 0.931 . S
H321 C308 0.929 . S
H322 C316 0.929 . S
H323 C317 0.930 . S
Mn324 O329 2.095 . S
Mn324 O339 2.162 . S
Mn324 O340 2.297 . S
Mn324 O348 2.385 1_545 S
Mn324 O349 2.209 1_545 S
Mn324 O350 2.094 1_545 S
Mn325 O330 2.121 . S
Mn325 N332 2.257 . S
Mn325 N341 2.282 . S
Mn325 O349 2.215 . S
Mn325 O351 2.117 . S
C326 O348 1.234 . S
C326 O349 1.283 . S
C327 O339 1.281 . S
C327 O340 1.236 . S
C328 O350 1.240 . S
C328 O351 1.264 . S
O329 Mn324 2.095 . S
O329 C338 1.250 . S
O330 Mn325 2.121 . S
O330 C338 1.258 1_565 S
C331 N332 1.326 . S
C331 C335 1.460 . S
C331 H337 0.929 . S
N332 Mn325 2.257 . S
N332 C331 1.326 . S
N332 C336 1.362 . S
C333 C334 1.258 . S
C333 C336 1.431 . S
C333 C353 1.449 . S
C334 C333 1.258 . S
C334 C335 1.477 . S
C334 H354 0.931 . S
C335 C331 1.460 . S
C335 C334 1.477 . S
C335 H355 0.930 . S
C336 N332 1.362 . S
C336 C333 1.431 . S
C336 C346 1.476 . S
H337 C331 0.929 . S
C338 O329 1.250 . S
C338 O330 1.258 1_545 S
O339 Mn324 2.162 . S
O339 C327 1.281 . S
O340 Mn324 2.297 . S
O340 C327 1.236 . S
N341 Mn325 2.282 . S
N341 C342 1.328 . S
N341 C346 1.318 . S
C342 N341 1.328 . S
C342 C343 1.457 . S
C342 H347 0.929 . S
C343 C342 1.457 . S
C343 C344 1.291 . S
C343 H356 0.931 . S
C344 C343 1.291 . S
C344 C345 1.373 . S
C344 H357 0.929 . S
C345 C344 1.373 . S
C345 C346 1.396 . S
C345 C352 1.403 . S
C346 C336 1.476 . S
C346 N341 1.318 . S
C346 C345 1.396 . S
H347 C342 0.929 . S
O348 Mn324 2.385 1_565 S
O348 C326 1.234 . S
O349 Mn324 2.209 1_565 S
O349 Mn325 2.215 . S
O349 C326 1.283 . S
O350 Mn324 2.094 1_565 S
O350 C328 1.240 . S
O351 Mn325 2.117 . S
O351 C328 1.264 . S
C352 C345 1.403 . S
C352 C353 1.399 . S
C352 H358 0.929 . S
C353 C333 1.449 . S
C353 C352 1.399 . S
C353 H359 0.930 . S
H354 C334 0.931 . S
H355 C335 0.930 . S
H356 C343 0.931 . S
H357 C344 0.929 . S
H358 C352 0.929 . S
H359 C353 0.930 . S
Mn360 O365 2.095 . S
Mn360 O375 2.162 . S
Mn360 O376 2.297 . S
Mn360 O384 2.385 . S
Mn360 O385 2.209 . S
Mn360 O386 2.094 . S
Mn361 O366 2.121 . S
Mn361 N368 2.257 . S
Mn361 N377 2.282 . S
Mn361 O385 2.215 . S
Mn361 O387 2.117 . S
C362 O384 1.234 . S
C362 O385 1.283 . S
C363 O375 1.281 . S
C363 O376 1.236 . S
C364 O386 1.240 . S
C364 O387 1.264 . S
O365 Mn360 2.095 . S
O365 C374 1.250 . S
O366 Mn361 2.121 . S
O366 C374 1.258 . S
C367 N368 1.326 . S
C367 C371 1.460 . S
C367 H373 0.929 . S
N368 Mn361 2.257 . S
N368 C367 1.326 . S
N368 C372 1.362 . S
C369 C370 1.258 . S
C369 C372 1.431 . S
C369 C389 1.449 . S
C370 C369 1.258 . S
C370 C371 1.477 . S
C370 H390 0.931 . S
C371 C367 1.460 . S
C371 C370 1.477 . S
C371 H391 0.930 . S
C372 N368 1.362 . S
C372 C369 1.431 . S
C372 C382 1.476 . S
H373 C367 0.929 . S
C374 O365 1.250 . S
C374 O366 1.258 . S
O375 Mn360 2.162 . S
O375 C363 1.281 . S
O376 Mn360 2.297 . S
O376 C363 1.236 . S
N377 Mn361 2.282 . S
N377 C378 1.328 . S
N377 C382 1.318 . S
C378 N377 1.328 . S
C378 C379 1.457 . S
C378 H383 0.929 . S
C379 C378 1.457 . S
C379 C380 1.291 . S
C379 H392 0.931 . S
C380 C379 1.291 . S
C380 C381 1.373 . S
C380 H393 0.929 . S
C381 C380 1.373 . S
C381 C382 1.396 . S
C381 C388 1.403 . S
C382 C372 1.476 . S
C382 N377 1.318 . S
C382 C381 1.396 . S
H383 C378 0.929 . S
O384 Mn360 2.385 . S
O384 C362 1.234 . S
O385 Mn360 2.209 . S
O385 Mn361 2.215 . S
O385 C362 1.283 . S
O386 Mn360 2.094 . S
O386 C364 1.240 . S
O387 Mn361 2.117 . S
O387 C364 1.264 . S
C388 C381 1.403 . S
C388 C389 1.399 . S
C388 H394 0.929 . S
C389 C369 1.449 . S
C389 C388 1.399 . S
C389 H395 0.930 . S
H390 C370 0.931 . S
H391 C371 0.930 . S
H392 C379 0.931 . S
H393 C380 0.929 . S
H394 C388 0.929 . S
H395 C389 0.930 . S
Mn396 O401 2.095 1_554 S
Mn396 O411 2.162 . S
Mn396 O412 2.297 . S
Mn396 O420 2.385 . S
Mn396 O421 2.209 1_554 S
Mn396 O422 2.094 . S
Mn397 O402 2.121 . S
Mn397 N404 2.257 . S
Mn397 N413 2.282 . S
Mn397 O421 2.215 . S
Mn397 O423 2.117 . S
C398 O420 1.234 . S
C398 O421 1.283 1_554 S
C399 O411 1.281 . S
C399 O412 1.236 . S
C400 O422 1.240 . S
C400 O423 1.264 1_554 S
O401 Mn396 2.095 1_556 S
O401 C410 1.250 . S
O402 Mn397 2.121 . S
O402 C410 1.258 . S
C403 N404 1.326 . S
C403 C407 1.460 . S
C403 H409 0.929 . S
N404 Mn397 2.257 . S
N404 C403 1.326 . S
N404 C408 1.362 . S
C405 C406 1.258 . S
C405 C408 1.431 . S
C405 C425 1.449 . S
C406 C405 1.258 . S
C406 C407 1.477 . S
C406 H426 0.931 . S
C407 C403 1.460 . S
C407 C406 1.477 . S
C407 H427 0.930 . S
C408 N404 1.362 . S
C408 C405 1.431 . S
C408 C418 1.476 . S
H409 C403 0.929 . S
C410 O401 1.250 . S
C410 O402 1.258 . S
O411 Mn396 2.162 . S
O411 C399 1.281 . S
O412 Mn396 2.297 . S
O412 C399 1.236 . S
N413 Mn397 2.282 . S
N413 C414 1.328 1_556 S
N413 C418 1.318 . S
C414 N413 1.328 1_554 S
C414 C415 1.457 . S
C414 H419 0.929 . S
C415 C414 1.457 . S
C415 C416 1.291 . S
C415 H428 0.931 . S
C416 C415 1.291 . S
C416 C417 1.373 1_554 S
C416 H429 0.929 . S
C417 C416 1.373 1_556 S
C417 C418 1.396 . S
C417 C424 1.403 . S
C418 C408 1.476 . S
C418 N413 1.318 . S
C418 C417 1.396 . S
H419 C414 0.929 . S
O420 Mn396 2.385 . S
O420 C398 1.234 . S
O421 Mn396 2.209 1_556 S
O421 Mn397 2.215 . S
O421 C398 1.283 1_556 S
O422 Mn396 2.094 . S
O422 C400 1.240 . S
O423 Mn397 2.117 . S
O423 C400 1.264 1_556 S
C424 C417 1.403 . S
C424 C425 1.399 . S
C424 H430 0.929 . S
C425 C405 1.449 . S
C425 C424 1.399 . S
C425 H431 0.930 . S
H426 C406 0.931 . S
H427 C407 0.930 . S
H428 C415 0.931 . S
H429 C416 0.929 . S
H430 C424 0.929 . S
H431 C425 0.930 . S
Mn432 O437 2.095 . S
Mn432 O447 2.162 . S
Mn432 O448 2.297 . S
Mn432 O456 2.385 . S
Mn432 O457 2.209 . S
Mn432 O458 2.094 1_545 S
Mn433 O438 2.121 . S
Mn433 N440 2.257 . S
Mn433 N449 2.282 1_545 S
Mn433 O457 2.215 . S
Mn433 O459 2.117 1_545 S
C434 O456 1.234 . S
C434 O457 1.283 . S
C435 O447 1.281 . S
C435 O448 1.236 . S
C436 O458 1.240 . S
C436 O459 1.264 . S
O437 Mn432 2.095 . S
O437 C446 1.250 . S
O438 Mn433 2.121 . S
O438 C446 1.258 . S
C439 N440 1.326 . S
C439 C443 1.460 . S
C439 H445 0.929 . S
N440 Mn433 2.257 . S
N440 C439 1.326 . S
N440 C444 1.362 . S
C441 C442 1.258 . S
C441 C444 1.431 . S
C441 C461 1.449 . S
C442 C441 1.258 . S
C442 C443 1.477 . S
C442 H462 0.931 . S
C443 C439 1.460 . S
C443 C442 1.477 . S
C443 H463 0.930 . S
C444 N440 1.362 . S
C444 C441 1.431 . S
C444 C454 1.476 . S
H445 C439 0.929 . S
C446 O437 1.250 . S
C446 O438 1.258 . S
O447 Mn432 2.162 . S
O447 C435 1.281 . S
O448 Mn432 2.297 . S
O448 C435 1.236 . S
N449 Mn433 2.282 1_565 S
N449 C450 1.328 . S
N449 C454 1.318 1_565 S
C450 N449 1.328 . S
C450 C451 1.457 . S
C450 H455 0.929 . S
C451 C450 1.457 . S
C451 C452 1.291 . S
C451 H464 0.931 . S
C452 C451 1.291 . S
C452 C453 1.373 . S
C452 H465 0.929 . S
C453 C452 1.373 . S
C453 C454 1.396 1_565 S
C453 C460 1.403 1_565 S
C454 C444 1.476 . S
C454 N449 1.318 1_545 S
C454 C453 1.396 1_545 S
H455 C450 0.929 . S
O456 Mn432 2.385 . S
O456 C434 1.234 . S
O457 Mn432 2.209 . S
O457 Mn433 2.215 . S
O457 C434 1.283 . S
O458 Mn432 2.094 1_565 S
O458 C436 1.240 . S
O459 Mn433 2.117 1_565 S
O459 C436 1.264 . S
C460 C453 1.403 1_545 S
C460 C461 1.399 . S
C460 H466 0.929 1_545 S
C461 C441 1.449 . S
C461 C460 1.399 . S
C461 H467 0.930 . S
H462 C442 0.931 . S
H463 C443 0.930 . S
H464 C451 0.931 . S
H465 C452 0.929 . S
H466 C460 0.929 1_565 S
H467 C461 0.930 . S
Mn468 O473 2.095 . S
Mn468 O483 2.162 . S
Mn468 O484 2.297 . S
Mn468 O492 2.385 . S
Mn468 O493 2.209 . S
Mn468 O494 2.094 . S
Mn469 O474 2.121 . S
Mn469 N476 2.257 . S
Mn469 N485 2.282 . S
Mn469 O493 2.215 . S
Mn469 O495 2.117 . S
C470 O492 1.234 . S
C470 O493 1.283 . S
C471 O483 1.281 . S
C471 O484 1.236 . S
C472 O494 1.240 . S
C472 O495 1.264 . S
O473 Mn468 2.095 . S
O473 C482 1.250 . S
O474 Mn469 2.121 . S
O474 C482 1.258 . S
C475 N476 1.326 . S
C475 C479 1.460 . S
C475 H481 0.929 . S
N476 Mn469 2.257 . S
N476 C475 1.326 . S
N476 C480 1.362 . S
C477 C478 1.258 . S
C477 C480 1.431 . S
C477 C497 1.449 . S
C478 C477 1.258 . S
C478 C479 1.477 . S
C478 H498 0.931 . S
C479 C475 1.460 . S
C479 C478 1.477 . S
C479 H499 0.930 . S
C480 N476 1.362 . S
C480 C477 1.431 . S
C480 C490 1.476 . S
H481 C475 0.929 . S
C482 O473 1.250 . S
C482 O474 1.258 . S
O483 Mn468 2.162 . S
O483 C471 1.281 . S
O484 Mn468 2.297 . S
O484 C471 1.236 . S
N485 Mn469 2.282 . S
N485 C486 1.328 . S
N485 C490 1.318 . S
C486 N485 1.328 . S
C486 C487 1.457 . S
C486 H491 0.929 . S
C487 C486 1.457 . S
C487 C488 1.291 . S
C487 H500 0.931 . S
C488 C487 1.291 . S
C488 C489 1.373 . S
C488 H501 0.929 . S
C489 C488 1.373 . S
C489 C490 1.396 . S
C489 C496 1.403 . S
C490 C480 1.476 . S
C490 N485 1.318 . S
C490 C489 1.396 . S
H491 C486 0.929 . S
O492 Mn468 2.385 . S
O492 C470 1.234 . S
O493 Mn468 2.209 . S
O493 Mn469 2.215 . S
O493 C470 1.283 . S
O494 Mn468 2.094 . S
O494 C472 1.240 . S
O495 Mn469 2.117 . S
O495 C472 1.264 . S
C496 C489 1.403 . S
C496 C497 1.399 . S
C496 H502 0.929 . S
C497 C477 1.449 . S
C497 C496 1.399 . S
C497 H503 0.930 . S
H498 C478 0.931 . S
H499 C479 0.930 . S
H500 C487 0.931 . S
H501 C488 0.929 . S
H502 C496 0.929 . S
H503 C497 0.930 . S
Mn504 O509 2.095 . S
Mn504 O519 2.162 . S
Mn504 O520 2.297 . S
Mn504 O528 2.385 . S
Mn504 O529 2.209 . S
Mn504 O530 2.094 . S
Mn505 O510 2.121 . S
Mn505 N512 2.257 . S
Mn505 N521 2.282 . S
Mn505 O529 2.215 . S
Mn505 O531 2.117 . S
C506 O528 1.234 . S
C506 O529 1.283 . S
C507 O519 1.281 . S
C507 O520 1.236 . S
C508 O530 1.240 . S
C508 O531 1.264 . S
O509 Mn504 2.095 . S
O509 C518 1.250 . S
O510 Mn505 2.121 . S
O510 C518 1.258 . S
C511 N512 1.326 . S
C511 C515 1.460 . S
C511 H517 0.929 . S
N512 Mn505 2.257 . S
N512 C511 1.326 . S
N512 C516 1.362 . S
C513 C514 1.258 . S
C513 C516 1.431 . S
C513 C533 1.449 . S
C514 C513 1.258 . S
C514 C515 1.477 . S
C514 H534 0.931 . S
C515 C511 1.460 . S
C515 C514 1.477 . S
C515 H535 0.930 . S
C516 N512 1.362 . S
C516 C513 1.431 . S
C516 C526 1.476 . S
H517 C511 0.929 . S
C518 O509 1.250 . S
C518 O510 1.258 . S
O519 Mn504 2.162 . S
O519 C507 1.281 . S
O520 Mn504 2.297 . S
O520 C507 1.236 . S
N521 Mn505 2.282 . S
N521 C522 1.328 . S
N521 C526 1.318 . S
C522 N521 1.328 . S
C522 C523 1.457 . S
C522 H527 0.929 . S
C523 C522 1.457 . S
C523 C524 1.291 . S
C523 H536 0.931 . S
C524 C523 1.291 . S
C524 C525 1.373 . S
C524 H537 0.929 . S
C525 C524 1.373 . S
C525 C526 1.396 . S
C525 C532 1.403 . S
C526 C516 1.476 . S
C526 N521 1.318 . S
C526 C525 1.396 . S
H527 C522 0.929 . S
O528 Mn504 2.385 . S
O528 C506 1.234 . S
O529 Mn504 2.209 . S
O529 Mn505 2.215 . S
O529 C506 1.283 . S
O530 Mn504 2.094 . S
O530 C508 1.240 . S
O531 Mn505 2.117 . S
O531 C508 1.264 . S
C532 C525 1.403 . S
C532 C533 1.399 . S
C532 H538 0.929 . S
C533 C513 1.449 . S
C533 C532 1.399 . S
C533 H539 0.930 . S
H534 C514 0.931 . S
H535 C515 0.930 . S
H536 C523 0.931 . S
H537 C524 0.929 . S
H538 C532 0.929 . S
H539 C533 0.930 . S
Mn540 O545 2.095 . S
Mn540 O555 2.162 . S
Mn540 O556 2.297 . S
Mn540 O564 2.385 . S
Mn540 O565 2.209 . S
Mn540 O566 2.094 . S
Mn541 O546 2.121 . S
Mn541 N548 2.257 . S
Mn541 N557 2.282 . S
Mn541 O565 2.215 . S
Mn541 O567 2.117 . S
C542 O564 1.234 . S
C542 O565 1.283 . S
C543 O555 1.281 . S
C543 O556 1.236 . S
C544 O566 1.240 . S
C544 O567 1.264 . S
O545 Mn540 2.095 . S
O545 C554 1.250 . S
O546 Mn541 2.121 . S
O546 C554 1.258 . S
C547 N548 1.326 . S
C547 C551 1.460 . S
C547 H553 0.929 . S
N548 Mn541 2.257 . S
N548 C547 1.326 . S
N548 C552 1.362 . S
C549 C550 1.258 . S
C549 C552 1.431 . S
C549 C569 1.449 . S
C550 C549 1.258 . S
C550 C551 1.477 . S
C550 H570 0.931 . S
C551 C547 1.460 . S
C551 C550 1.477 . S
C551 H571 0.930 . S
C552 N548 1.362 . S
C552 C549 1.431 . S
C552 C562 1.476 . S
H553 C547 0.929 . S
C554 O545 1.250 . S
C554 O546 1.258 . S
O555 Mn540 2.162 . S
O555 C543 1.281 . S
O556 Mn540 2.297 . S
O556 C543 1.236 . S
N557 Mn541 2.282 . S
N557 C558 1.328 . S
N557 C562 1.318 . S
C558 N557 1.328 . S
C558 C559 1.457 . S
C558 H563 0.929 . S
C559 C558 1.457 . S
C559 C560 1.291 . S
C559 H572 0.931 . S
C560 C559 1.291 . S
C560 C561 1.373 . S
C560 H573 0.929 . S
C561 C560 1.373 . S
C561 C562 1.396 . S
C561 C568 1.403 . S
C562 C552 1.476 . S
C562 N557 1.318 . S
C562 C561 1.396 . S
H563 C558 0.929 . S
O564 Mn540 2.385 . S
O564 C542 1.234 . S
O565 Mn540 2.209 . S
O565 Mn541 2.215 . S
O565 C542 1.283 . S
O566 Mn540 2.094 . S
O566 C544 1.240 . S
O567 Mn541 2.117 . S
O567 C544 1.264 . S
C568 C561 1.403 . S
C568 C569 1.399 . S
C568 H574 0.929 . S
C569 C549 1.449 . S
C569 C568 1.399 . S
C569 H575 0.930 . S
H570 C550 0.931 . S
H571 C551 0.930 . S
H572 C559 0.931 . S
H573 C560 0.929 . S
H574 C568 0.929 . S
H575 C569 0.930 . S
Mn576 O581 2.095 . S
Mn576 O591 2.162 . S
Mn576 O592 2.297 . S
Mn576 O600 2.385 1_554 S
Mn576 O601 2.209 1_554 S
Mn576 O602 2.094 . S
Mn577 O582 2.121 . S
Mn577 N584 2.257 1_554 S
Mn577 N593 2.282 1_554 S
Mn577 O601 2.215 1_554 S
Mn577 O603 2.117 . S
C578 O600 1.234 . S
C578 O601 1.283 . S
C579 O591 1.281 . S
C579 O592 1.236 . S
C580 O602 1.240 . S
C580 O603 1.264 . S
O581 Mn576 2.095 . S
O581 C590 1.250 . S
O582 Mn577 2.121 . S
O582 C590 1.258 . S
C583 N584 1.326 . S
C583 C587 1.460 . S
C583 H589 0.929 . S
N584 Mn577 2.257 1_556 S
N584 C583 1.326 . S
N584 C588 1.362 . S
C585 C586 1.258 . S
C585 C588 1.431 . S
C585 C605 1.449 . S
C586 C585 1.258 . S
C586 C587 1.477 . S
C586 H606 0.931 . S
C587 C583 1.460 . S
C587 C586 1.477 . S
C587 H607 0.930 . S
C588 N584 1.362 . S
C588 C585 1.431 . S
C588 C598 1.476 . S
H589 C583 0.929 . S
C590 O581 1.250 . S
C590 O582 1.258 . S
O591 Mn576 2.162 . S
O591 C579 1.281 . S
O592 Mn576 2.297 . S
O592 C579 1.236 . S
N593 Mn577 2.282 1_556 S
N593 C594 1.328 . S
N593 C598 1.318 . S
C594 N593 1.328 . S
C594 C595 1.457 . S
C594 H599 0.929 . S
C595 C594 1.457 . S
C595 C596 1.291 . S
C595 H608 0.931 . S
C596 C595 1.291 . S
C596 C597 1.373 . S
C596 H609 0.929 . S
C597 C596 1.373 . S
C597 C598 1.396 . S
C597 C604 1.403 . S
C598 C588 1.476 . S
C598 N593 1.318 . S
C598 C597 1.396 . S
H599 C594 0.929 . S
O600 Mn576 2.385 1_556 S
O600 C578 1.234 . S
O601 Mn576 2.209 1_556 S
O601 Mn577 2.215 1_556 S
O601 C578 1.283 . S
O602 Mn576 2.094 . S
O602 C580 1.240 . S
O603 Mn577 2.117 . S
O603 C580 1.264 . S
C604 C597 1.403 . S
C604 C605 1.399 . S
C604 H610 0.929 . S
C605 C585 1.449 . S
C605 C604 1.399 . S
C605 H611 0.930 . S
H606 C586 0.931 . S
H607 C587 0.930 . S
H608 C595 0.931 . S
H609 C596 0.929 . S
H610 C604 0.929 . S
H611 C605 0.930 . S
Mn612 O617 2.095 . S
Mn612 O627 2.162 . S
Mn612 O628 2.297 . S
Mn612 O636 2.385 . S
Mn612 O637 2.209 . S
Mn612 O638 2.094 . S
Mn613 O618 2.121 . S
Mn613 N620 2.257 . S
Mn613 N629 2.282 . S
Mn613 O637 2.215 . S
Mn613 O639 2.117 . S
C614 O636 1.234 . S
C614 O637 1.283 . S
C615 O627 1.281 . S
C615 O628 1.236 . S
C616 O638 1.240 . S
C616 O639 1.264 . S
O617 Mn612 2.095 . S
O617 C626 1.250 . S
O618 Mn613 2.121 . S
O618 C626 1.258 . S
C619 N620 1.326 . S
C619 C623 1.460 . S
C619 H625 0.929 . S
N620 Mn613 2.257 . S
N620 C619 1.326 . S
N620 C624 1.362 . S
C621 C622 1.258 . S
C621 C624 1.431 . S
C621 C641 1.449 . S
C622 C621 1.258 . S
C622 C623 1.477 . S
C622 H642 0.931 . S
C623 C619 1.460 . S
C623 C622 1.477 . S
C623 H643 0.930 . S
C624 N620 1.362 . S
C624 C621 1.431 . S
C624 C634 1.476 . S
H625 C619 0.929 . S
C626 O617 1.250 . S
C626 O618 1.258 . S
O627 Mn612 2.162 . S
O627 C615 1.281 . S
O628 Mn612 2.297 . S
O628 C615 1.236 . S
N629 Mn613 2.282 . S
N629 C630 1.328 . S
N629 C634 1.318 . S
C630 N629 1.328 . S
C630 C631 1.457 . S
C630 H635 0.929 . S
C631 C630 1.457 . S
C631 C632 1.291 . S
C631 H644 0.931 . S
C632 C631 1.291 . S
C632 C633 1.373 . S
C632 H645 0.929 . S
C633 C632 1.373 . S
C633 C634 1.396 . S
C633 C640 1.403 . S
C634 C624 1.476 . S
C634 N629 1.318 . S
C634 C633 1.396 . S
H635 C630 0.929 . S
O636 Mn612 2.385 . S
O636 C614 1.234 . S
O637 Mn612 2.209 . S
O637 Mn613 2.215 . S
O637 C614 1.283 . S
O638 Mn612 2.094 . S
O638 C616 1.240 . S
O639 Mn613 2.117 . S
O639 C616 1.264 . S
C640 C633 1.403 . S
C640 C641 1.399 . S
C640 H646 0.929 . S
C641 C621 1.449 . S
C641 C640 1.399 . S
C641 H647 0.930 . S
H642 C622 0.931 . S
H643 C623 0.930 . S
H644 C631 0.931 . S
H645 C632 0.929 . S
H646 C640 0.929 . S
H647 C641 0.930 . S
Mn648 O653 2.095 . S
Mn648 O663 2.162 . S
Mn648 O664 2.297 . S
Mn648 O672 2.385 1_455 S
Mn648 O673 2.209 1_455 S
Mn648 O674 2.094 1_455 S
Mn649 O654 2.121 . S
Mn649 N656 2.257 . S
Mn649 N665 2.282 . S
Mn649 O673 2.215 . S
Mn649 O675 2.117 . S
C650 O672 1.234 . S
C650 O673 1.283 . S
C651 O663 1.281 . S
C651 O664 1.236 . S
C652 O674 1.240 . S
C652 O675 1.264 . S
O653 Mn648 2.095 . S
O653 C662 1.250 . S
O654 Mn649 2.121 . S
O654 C662 1.258 1_655 S
C655 N656 1.326 . S
C655 C659 1.460 . S
C655 H661 0.929 . S
N656 Mn649 2.257 . S
N656 C655 1.326 . S
N656 C660 1.362 . S
C657 C658 1.258 . S
C657 C660 1.431 . S
C657 C677 1.449 . S
C658 C657 1.258 . S
C658 C659 1.477 . S
C658 H678 0.931 . S
C659 C655 1.460 . S
C659 C658 1.477 . S
C659 H679 0.930 . S
C660 N656 1.362 . S
C660 C657 1.431 . S
C660 C670 1.476 . S
H661 C655 0.929 . S
C662 O653 1.250 . S
C662 O654 1.258 1_455 S
O663 Mn648 2.162 . S
O663 C651 1.281 . S
O664 Mn648 2.297 . S
O664 C651 1.236 . S
N665 Mn649 2.282 . S
N665 C666 1.328 . S
N665 C670 1.318 . S
C666 N665 1.328 . S
C666 C667 1.457 . S
C666 H671 0.929 . S
C667 C666 1.457 . S
C667 C668 1.291 . S
C667 H680 0.931 . S
C668 C667 1.291 . S
C668 C669 1.373 . S
C668 H681 0.929 . S
C669 C668 1.373 . S
C669 C670 1.396 . S
C669 C676 1.403 . S
C670 C660 1.476 . S
C670 N665 1.318 . S
C670 C669 1.396 . S
H671 C666 0.929 . S
O672 Mn648 2.385 1_655 S
O672 C650 1.234 . S
O673 Mn648 2.209 1_655 S
O673 Mn649 2.215 . S
O673 C650 1.283 . S
O674 Mn648 2.094 1_655 S
O674 C652 1.240 . S
O675 Mn649 2.117 . S
O675 C652 1.264 . S
C676 C669 1.403 . S
C676 C677 1.399 . S
C676 H682 0.929 . S
C677 C657 1.449 . S
C677 C676 1.399 . S
C677 H683 0.930 . S
H678 C658 0.931 . S
H679 C659 0.930 . S
H680 C667 0.931 . S
H681 C668 0.929 . S
H682 C676 0.929 . S
H683 C677 0.930 . S
Mn684 O689 2.095 . S
Mn684 O699 2.162 . S
Mn684 O700 2.297 . S
Mn684 O708 2.385 . S
Mn684 O709 2.209 . S
Mn684 O710 2.094 . S
Mn685 O690 2.121 . S
Mn685 N692 2.257 . S
Mn685 N701 2.282 . S
Mn685 O709 2.215 . S
Mn685 O711 2.117 . S
C686 O708 1.234 . S
C686 O709 1.283 . S
C687 O699 1.281 . S
C687 O700 1.236 . S
C688 O710 1.240 . S
C688 O711 1.264 . S
O689 Mn684 2.095 . S
O689 C698 1.250 . S
O690 Mn685 2.121 . S
O690 C698 1.258 . S
C691 N692 1.326 . S
C691 C695 1.460 . S
C691 H697 0.929 . S
N692 Mn685 2.257 . S
N692 C691 1.326 . S
N692 C696 1.362 . S
C693 C694 1.258 . S
C693 C696 1.431 . S
C693 C713 1.449 . S
C694 C693 1.258 . S
C694 C695 1.477 . S
C694 H714 0.931 . S
C695 C691 1.460 . S
C695 C694 1.477 . S
C695 H715 0.930 . S
C696 N692 1.362 . S
C696 C693 1.431 . S
C696 C706 1.476 . S
H697 C691 0.929 . S
C698 O689 1.250 . S
C698 O690 1.258 . S
O699 Mn684 2.162 . S
O699 C687 1.281 . S
O700 Mn684 2.297 . S
O700 C687 1.236 . S
N701 Mn685 2.282 . S
N701 C702 1.328 . S
N701 C706 1.318 . S
C702 N701 1.328 . S
C702 C703 1.457 . S
C702 H707 0.929 . S
C703 C702 1.457 . S
C703 C704 1.291 . S
C703 H716 0.931 . S
C704 C703 1.291 . S
C704 C705 1.373 . S
C704 H717 0.929 . S
C705 C704 1.373 . S
C705 C706 1.396 . S
C705 C712 1.403 . S
C706 C696 1.476 . S
C706 N701 1.318 . S
C706 C705 1.396 . S
H707 C702 0.929 . S
O708 Mn684 2.385 . S
O708 C686 1.234 . S
O709 Mn684 2.209 . S
O709 Mn685 2.215 . S
O709 C686 1.283 . S
O710 Mn684 2.094 . S
O710 C688 1.240 . S
O711 Mn685 2.117 . S
O711 C688 1.264 . S
C712 C705 1.403 . S
C712 C713 1.399 . S
C712 H718 0.929 . S
C713 C693 1.449 . S
C713 C712 1.399 . S
C713 H719 0.930 . S
H714 C694 0.931 . S
H715 C695 0.930 . S
H716 C703 0.931 . S
H717 C704 0.929 . S
H718 C712 0.929 . S
H719 C713 0.930 . S
Mn720 O725 2.095 . S
Mn720 O735 2.162 . S
Mn720 O736 2.297 . S
Mn720 O744 2.385 . S
Mn720 O745 2.209 . S
Mn720 O746 2.094 . S
Mn721 O726 2.121 . S
Mn721 N728 2.257 . S
Mn721 N737 2.282 . S
Mn721 O745 2.215 . S
Mn721 O747 2.117 . S
C722 O744 1.234 . S
C722 O745 1.283 . S
C723 O735 1.281 . S
C723 O736 1.236 . S
C724 O746 1.240 . S
C724 O747 1.264 . S
O725 Mn720 2.095 . S
O725 C734 1.250 . S
O726 Mn721 2.121 . S
O726 C734 1.258 . S
C727 N728 1.326 . S
C727 C731 1.460 . S
C727 H733 0.929 . S
N728 Mn721 2.257 . S
N728 C727 1.326 . S
N728 C732 1.362 . S
C729 C730 1.258 . S
C729 C732 1.431 . S
C729 C749 1.449 . S
C730 C729 1.258 . S
C730 C731 1.477 . S
C730 H750 0.931 . S
C731 C727 1.460 . S
C731 C730 1.477 . S
C731 H751 0.930 . S
C732 N728 1.362 . S
C732 C729 1.431 . S
C732 C742 1.476 . S
H733 C727 0.929 . S
C734 O725 1.250 . S
C734 O726 1.258 . S
O735 Mn720 2.162 . S
O735 C723 1.281 . S
O736 Mn720 2.297 . S
O736 C723 1.236 . S
N737 Mn721 2.282 . S
N737 C738 1.328 . S
N737 C742 1.318 . S
C738 N737 1.328 . S
C738 C739 1.457 . S
C738 H743 0.929 . S
C739 C738 1.457 . S
C739 C740 1.291 . S
C739 H752 0.931 . S
C740 C739 1.291 . S
C740 C741 1.373 . S
C740 H753 0.929 . S
C741 C740 1.373 . S
C741 C742 1.396 . S
C741 C748 1.403 . S
C742 C732 1.476 . S
C742 N737 1.318 . S
C742 C741 1.396 . S
H743 C738 0.929 . S
O744 Mn720 2.385 . S
O744 C722 1.234 . S
O745 Mn720 2.209 . S
O745 Mn721 2.215 . S
O745 C722 1.283 . S
O746 Mn720 2.094 . S
O746 C724 1.240 . S
O747 Mn721 2.117 . S
O747 C724 1.264 . S
C748 C741 1.403 . S
C748 C749 1.399 . S
C748 H754 0.929 . S
C749 C729 1.449 . S
C749 C748 1.399 . S
C749 H755 0.930 . S
H750 C730 0.931 . S
H751 C731 0.930 . S
H752 C739 0.931 . S
H753 C740 0.929 . S
H754 C748 0.929 . S
H755 C749 0.930 . S
Mn756 O761 2.095 . S
Mn756 O771 2.162 . S
Mn756 O772 2.297 . S
Mn756 O780 2.385 . S
Mn756 O781 2.209 . S
Mn756 O782 2.094 . S
Mn757 O762 2.121 . S
Mn757 N764 2.257 . S
Mn757 N773 2.282 . S
Mn757 O781 2.215 . S
Mn757 O783 2.117 . S
C758 O780 1.234 . S
C758 O781 1.283 . S
C759 O771 1.281 . S
C759 O772 1.236 . S
C760 O782 1.240 . S
C760 O783 1.264 . S
O761 Mn756 2.095 . S
O761 C770 1.250 . S
O762 Mn757 2.121 . S
O762 C770 1.258 . S
C763 N764 1.326 . S
C763 C767 1.460 . S
C763 H769 0.929 . S
N764 Mn757 2.257 . S
N764 C763 1.326 . S
N764 C768 1.362 . S
C765 C766 1.258 . S
C765 C768 1.431 . S
C765 C785 1.449 . S
C766 C765 1.258 . S
C766 C767 1.477 . S
C766 H786 0.931 . S
C767 C763 1.460 . S
C767 C766 1.477 . S
C767 H787 0.930 . S
C768 N764 1.362 . S
C768 C765 1.431 . S
C768 C778 1.476 . S
H769 C763 0.929 . S
C770 O761 1.250 . S
C770 O762 1.258 . S
O771 Mn756 2.162 . S
O771 C759 1.281 . S
O772 Mn756 2.297 . S
O772 C759 1.236 . S
N773 Mn757 2.282 . S
N773 C774 1.328 . S
N773 C778 1.318 . S
C774 N773 1.328 . S
C774 C775 1.457 . S
C774 H779 0.929 . S
C775 C774 1.457 . S
C775 C776 1.291 . S
C775 H788 0.931 . S
C776 C775 1.291 . S
C776 C777 1.373 . S
C776 H789 0.929 . S
C777 C776 1.373 . S
C777 C778 1.396 . S
C777 C784 1.403 . S
C778 C768 1.476 . S
C778 N773 1.318 . S
C778 C777 1.396 . S
H779 C774 0.929 . S
O780 Mn756 2.385 . S
O780 C758 1.234 . S
O781 Mn756 2.209 . S
O781 Mn757 2.215 . S
O781 C758 1.283 . S
O782 Mn756 2.094 . S
O782 C760 1.240 . S
O783 Mn757 2.117 . S
O783 C760 1.264 . S
C784 C777 1.403 . S
C784 C785 1.399 . S
C784 H790 0.929 . S
C785 C765 1.449 . S
C785 C784 1.399 . S
C785 H791 0.930 . S
H786 C766 0.931 . S
H787 C767 0.930 . S
H788 C775 0.931 . S
H789 C776 0.929 . S
H790 C784 0.929 . S
H791 C785 0.930 . S
Mn792 O797 2.095 . S
Mn792 O807 2.162 . S
Mn792 O808 2.297 . S
Mn792 O816 2.385 . S
Mn792 O817 2.209 . S
Mn792 O818 2.094 . S
Mn793 O798 2.121 . S
Mn793 N800 2.257 . S
Mn793 N809 2.282 . S
Mn793 O817 2.215 . S
Mn793 O819 2.117 . S
C794 O816 1.234 . S
C794 O817 1.283 . S
C795 O807 1.281 . S
C795 O808 1.236 . S
C796 O818 1.240 . S
C796 O819 1.264 . S
O797 Mn792 2.095 . S
O797 C806 1.250 . S
O798 Mn793 2.121 . S
O798 C806 1.258 . S
C799 N800 1.326 . S
C799 C803 1.460 . S
C799 H805 0.929 . S
N800 Mn793 2.257 . S
N800 C799 1.326 . S
N800 C804 1.362 . S
C801 C802 1.258 . S
C801 C804 1.431 . S
C801 C821 1.449 . S
C802 C801 1.258 . S
C802 C803 1.477 . S
C802 H822 0.931 . S
C803 C799 1.460 . S
C803 C802 1.477 . S
C803 H823 0.930 . S
C804 N800 1.362 . S
C804 C801 1.431 . S
C804 C814 1.476 . S
H805 C799 0.929 . S
C806 O797 1.250 . S
C806 O798 1.258 . S
O807 Mn792 2.162 . S
O807 C795 1.281 . S
O808 Mn792 2.297 . S
O808 C795 1.236 . S
N809 Mn793 2.282 . S
N809 C810 1.328 . S
N809 C814 1.318 . S
C810 N809 1.328 . S
C810 C811 1.457 . S
C810 H815 0.929 . S
C811 C810 1.457 . S
C811 C812 1.291 . S
C811 H824 0.931 . S
C812 C811 1.291 . S
C812 C813 1.373 . S
C812 H825 0.929 . S
C813 C812 1.373 . S
C813 C814 1.396 . S
C813 C820 1.403 . S
C814 C804 1.476 . S
C814 N809 1.318 . S
C814 C813 1.396 . S
H815 C810 0.929 . S
O816 Mn792 2.385 . S
O816 C794 1.234 . S
O817 Mn792 2.209 . S
O817 Mn793 2.215 . S
O817 C794 1.283 . S
O818 Mn792 2.094 . S
O818 C796 1.240 . S
O819 Mn793 2.117 . S
O819 C796 1.264 . S
C820 C813 1.403 . S
C820 C821 1.399 . S
C820 H826 0.929 . S
C821 C801 1.449 . S
C821 C820 1.399 . S
C821 H827 0.930 . S
H822 C802 0.931 . S
H823 C803 0.930 . S
H824 C811 0.931 . S
H825 C812 0.929 . S
H826 C820 0.929 . S
H827 C821 0.930 . S
Mn828 O833 2.095 . S
Mn828 O843 2.162 . S
Mn828 O844 2.297 . S
Mn828 O852 2.385 . S
Mn828 O853 2.209 . S
Mn828 O854 2.094 . S
Mn829 O834 2.121 . S
Mn829 N836 2.257 . S
Mn829 N845 2.282 . S
Mn829 O853 2.215 . S
Mn829 O855 2.117 . S
C830 O852 1.234 . S
C830 O853 1.283 . S
C831 O843 1.281 . S
C831 O844 1.236 . S
C832 O854 1.240 . S
C832 O855 1.264 . S
O833 Mn828 2.095 . S
O833 C842 1.250 . S
O834 Mn829 2.121 . S
O834 C842 1.258 . S
C835 N836 1.326 . S
C835 C839 1.460 . S
C835 H841 0.929 . S
N836 Mn829 2.257 . S
N836 C835 1.326 . S
N836 C840 1.362 . S
C837 C838 1.258 . S
C837 C840 1.431 . S
C837 C857 1.449 . S
C838 C837 1.258 . S
C838 C839 1.477 . S
C838 H858 0.931 . S
C839 C835 1.460 . S
C839 C838 1.477 . S
C839 H859 0.930 . S
C840 N836 1.362 . S
C840 C837 1.431 . S
C840 C850 1.476 . S
H841 C835 0.929 . S
C842 O833 1.250 . S
C842 O834 1.258 . S
O843 Mn828 2.162 . S
O843 C831 1.281 . S
O844 Mn828 2.297 . S
O844 C831 1.236 . S
N845 Mn829 2.282 . S
N845 C846 1.328 . S
N845 C850 1.318 . S
C846 N845 1.328 . S
C846 C847 1.457 . S
C846 H851 0.929 . S
C847 C846 1.457 . S
C847 C848 1.291 . S
C847 H860 0.931 . S
C848 C847 1.291 . S
C848 C849 1.373 . S
C848 H861 0.929 . S
C849 C848 1.373 . S
C849 C850 1.396 . S
C849 C856 1.403 . S
C850 C840 1.476 . S
C850 N845 1.318 . S
C850 C849 1.396 . S
H851 C846 0.929 . S
O852 Mn828 2.385 . S
O852 C830 1.234 . S
O853 Mn828 2.209 . S
O853 Mn829 2.215 . S
O853 C830 1.283 . S
O854 Mn828 2.094 . S
O854 C832 1.240 . S
O855 Mn829 2.117 . S
O855 C832 1.264 . S
C856 C849 1.403 . S
C856 C857 1.399 . S
C856 H862 0.929 . S
C857 C837 1.449 . S
C857 C856 1.399 . S
C857 H863 0.930 . S
H858 C838 0.931 . S
H859 C839 0.930 . S
H860 C847 0.931 . S
H861 C848 0.929 . S
H862 C856 0.929 . S
H863 C857 0.930 . S
Mn864 O869 2.095 . S
Mn864 O879 2.162 . S
Mn864 O880 2.297 . S
Mn864 O888 2.385 . S
Mn864 O889 2.209 . S
Mn864 O890 2.094 . S
Mn865 O870 2.121 . S
Mn865 N872 2.257 . S
Mn865 N881 2.282 . S
Mn865 O889 2.215 . S
Mn865 O891 2.117 . S
C866 O888 1.234 . S
C866 O889 1.283 . S
C867 O879 1.281 . S
C867 O880 1.236 . S
C868 O890 1.240 . S
C868 O891 1.264 . S
O869 Mn864 2.095 . S
O869 C878 1.250 . S
O870 Mn865 2.121 . S
O870 C878 1.258 . S
C871 N872 1.326 . S
C871 C875 1.460 . S
C871 H877 0.929 . S
N872 Mn865 2.257 . S
N872 C871 1.326 . S
N872 C876 1.362 . S
C873 C874 1.258 . S
C873 C876 1.431 . S
C873 C893 1.449 . S
C874 C873 1.258 . S
C874 C875 1.477 . S
C874 H894 0.931 . S
C875 C871 1.460 . S
C875 C874 1.477 . S
C875 H895 0.930 . S
C876 N872 1.362 . S
C876 C873 1.431 . S
C876 C886 1.476 . S
H877 C871 0.929 . S
C878 O869 1.250 . S
C878 O870 1.258 . S
O879 Mn864 2.162 . S
O879 C867 1.281 . S
O880 Mn864 2.297 . S
O880 C867 1.236 . S
N881 Mn865 2.282 . S
N881 C882 1.328 . S
N881 C886 1.318 . S
C882 N881 1.328 . S
C882 C883 1.457 . S
C882 H887 0.929 . S
C883 C882 1.457 . S
C883 C884 1.291 . S
C883 H896 0.931 . S
C884 C883 1.291 . S
C884 C885 1.373 . S
C884 H897 0.929 . S
C885 C884 1.373 . S
C885 C886 1.396 . S
C885 C892 1.403 . S
C886 C876 1.476 . S
C886 N881 1.318 . S
C886 C885 1.396 . S
H887 C882 0.929 . S
O888 Mn864 2.385 . S
O888 C866 1.234 . S
O889 Mn864 2.209 . S
O889 Mn865 2.215 . S
O889 C866 1.283 . S
O890 Mn864 2.094 . S
O890 C868 1.240 . S
O891 Mn865 2.117 . S
O891 C868 1.264 . S
C892 C885 1.403 . S
C892 C893 1.399 . S
C892 H898 0.929 . S
C893 C873 1.449 . S
C893 C892 1.399 . S
C893 H899 0.930 . S
H894 C874 0.931 . S
H895 C875 0.930 . S
H896 C883 0.931 . S
H897 C884 0.929 . S
H898 C892 0.929 . S
H899 C893 0.930 . S
Mn900 O905 2.095 . S
Mn900 O915 2.162 . S
Mn900 O916 2.297 . S
Mn900 O924 2.385 . S
Mn900 O925 2.209 . S
Mn900 O926 2.094 . S
Mn901 O906 2.121 . S
Mn901 N908 2.257 . S
Mn901 N917 2.282 . S
Mn901 O925 2.215 . S
Mn901 O927 2.117 . S
C902 O924 1.234 . S
C902 O925 1.283 . S
C903 O915 1.281 . S
C903 O916 1.236 . S
C904 O926 1.240 . S
C904 O927 1.264 . S
O905 Mn900 2.095 . S
O905 C914 1.250 . S
O906 Mn901 2.121 . S
O906 C914 1.258 . S
C907 N908 1.326 . S
C907 C911 1.460 . S
C907 H913 0.929 . S
N908 Mn901 2.257 . S
N908 C907 1.326 . S
N908 C912 1.362 . S
C909 C910 1.258 . S
C909 C912 1.431 . S
C909 C929 1.449 . S
C910 C909 1.258 . S
C910 C911 1.477 . S
C910 H930 0.931 . S
C911 C907 1.460 . S
C911 C910 1.477 . S
C911 H931 0.930 . S
C912 N908 1.362 . S
C912 C909 1.431 . S
C912 C922 1.476 . S
H913 C907 0.929 . S
C914 O905 1.250 . S
C914 O906 1.258 . S
O915 Mn900 2.162 . S
O915 C903 1.281 . S
O916 Mn900 2.297 . S
O916 C903 1.236 . S
N917 Mn901 2.282 . S
N917 C918 1.328 . S
N917 C922 1.318 . S
C918 N917 1.328 . S
C918 C919 1.457 . S
C918 H923 0.929 . S
C919 C918 1.457 . S
C919 C920 1.291 . S
C919 H932 0.931 . S
C920 C919 1.291 . S
C920 C921 1.373 . S
C920 H933 0.929 . S
C921 C920 1.373 . S
C921 C922 1.396 . S
C921 C928 1.403 . S
C922 C912 1.476 . S
C922 N917 1.318 . S
C922 C921 1.396 . S
H923 C918 0.929 . S
O924 Mn900 2.385 . S
O924 C902 1.234 . S
O925 Mn900 2.209 . S
O925 Mn901 2.215 . S
O925 C902 1.283 . S
O926 Mn900 2.094 . S
O926 C904 1.240 . S
O927 Mn901 2.117 . S
O927 C904 1.264 . S
C928 C921 1.403 . S
C928 C929 1.399 . S
C928 H934 0.929 . S
C929 C909 1.449 . S
C929 C928 1.399 . S
C929 H935 0.930 . S
H930 C910 0.931 . S
H931 C911 0.930 . S
H932 C919 0.931 . S
H933 C920 0.929 . S
H934 C928 0.929 . S
H935 C929 0.930 . S
Mn936 O941 2.095 . S
Mn936 O951 2.162 . S
Mn936 O952 2.297 . S
Mn936 O960 2.385 . S
Mn936 O961 2.209 . S
Mn936 O962 2.094 1_455 S
Mn937 O942 2.121 . S
Mn937 N944 2.257 . S
Mn937 N953 2.282 1_455 S
Mn937 O961 2.215 . S
Mn937 O963 2.117 1_455 S
C938 O960 1.234 . S
C938 O961 1.283 . S
C939 O951 1.281 . S
C939 O952 1.236 . S
C940 O962 1.240 . S
C940 O963 1.264 . S
O941 Mn936 2.095 . S
O941 C950 1.250 . S
O942 Mn937 2.121 . S
O942 C950 1.258 . S
C943 N944 1.326 . S
C943 C947 1.460 . S
C943 H949 0.929 . S
N944 Mn937 2.257 . S
N944 C943 1.326 . S
N944 C948 1.362 . S
C945 C946 1.258 . S
C945 C948 1.431 . S
C945 C965 1.449 . S
C946 C945 1.258 . S
C946 C947 1.477 . S
C946 H966 0.931 . S
C947 C943 1.460 . S
C947 C946 1.477 . S
C947 H967 0.930 . S
C948 N944 1.362 . S
C948 C945 1.431 . S
C948 C958 1.476 . S
H949 C943 0.929 . S
C950 O941 1.250 . S
C950 O942 1.258 . S
O951 Mn936 2.162 . S
O951 C939 1.281 . S
O952 Mn936 2.297 . S
O952 C939 1.236 . S
N953 Mn937 2.282 1_655 S
N953 C954 1.328 . S
N953 C958 1.318 1_655 S
C954 N953 1.328 . S
C954 C955 1.457 . S
C954 H959 0.929 . S
C955 C954 1.457 . S
C955 C956 1.291 . S
C955 H968 0.931 . S
C956 C955 1.291 . S
C956 C957 1.373 . S
C956 H969 0.929 . S
C957 C956 1.373 . S
C957 C958 1.396 1_655 S
C957 C964 1.403 1_655 S
C958 C948 1.476 . S
C958 N953 1.318 1_455 S
C958 C957 1.396 1_455 S
H959 C954 0.929 . S
O960 Mn936 2.385 . S
O960 C938 1.234 . S
O961 Mn936 2.209 . S
O961 Mn937 2.215 . S
O961 C938 1.283 . S
O962 Mn936 2.094 1_655 S
O962 C940 1.240 . S
O963 Mn937 2.117 1_655 S
O963 C940 1.264 . S
C964 C957 1.403 1_455 S
C964 C965 1.399 . S
C964 H970 0.929 1_455 S
C965 C945 1.449 . S
C965 C964 1.399 . S
C965 H971 0.930 . S
H966 C946 0.931 . S
H967 C947 0.930 . S
H968 C955 0.931 . S
H969 C956 0.929 . S
H970 C964 0.929 1_655 S
H971 C965 0.930 . S
Mn972 O977 2.095 . S
Mn972 O987 2.162 . S
Mn972 O988 2.297 . S
Mn972 O996 2.385 . S
Mn972 O997 2.209 . S
Mn972 O998 2.094 . S
Mn973 O978 2.121 . S
Mn973 N980 2.257 . S
Mn973 N989 2.282 . S
Mn973 O997 2.215 . S
Mn973 O999 2.117 . S
C974 O996 1.234 . S
C974 O997 1.283 . S
C975 O987 1.281 . S
C975 O988 1.236 . S
C976 O998 1.240 . S
C976 O999 1.264 . S
O977 Mn972 2.095 . S
O977 C986 1.250 . S
O978 Mn973 2.121 . S
O978 C986 1.258 . S
C979 N980 1.326 . S
C979 C983 1.460 . S
C979 H985 0.929 . S
N980 Mn973 2.257 . S
N980 C979 1.326 . S
N980 C984 1.362 . S
C981 C982 1.258 . S
C981 C984 1.431 . S
C981 C1001 1.449 . S
C982 C981 1.258 . S
C982 C983 1.477 . S
C982 H1002 0.931 . S
C983 C979 1.460 . S
C983 C982 1.477 . S
C983 H1003 0.930 . S
C984 N980 1.362 . S
C984 C981 1.431 . S
C984 C994 1.476 . S
H985 C979 0.929 . S
C986 O977 1.250 . S
C986 O978 1.258 . S
O987 Mn972 2.162 . S
O987 C975 1.281 . S
O988 Mn972 2.297 . S
O988 C975 1.236 . S
N989 Mn973 2.282 . S
N989 C990 1.328 . S
N989 C994 1.318 . S
C990 N989 1.328 . S
C990 C991 1.457 . S
C990 H995 0.929 . S
C991 C990 1.457 . S
C991 C992 1.291 . S
C991 H1004 0.931 . S
C992 C991 1.291 . S
C992 C993 1.373 . S
C992 H1005 0.929 . S
C993 C992 1.373 . S
C993 C994 1.396 . S
C993 C1000 1.403 . S
C994 C984 1.476 . S
C994 N989 1.318 . S
C994 C993 1.396 . S
H995 C990 0.929 . S
O996 Mn972 2.385 . S
O996 C974 1.234 . S
O997 Mn972 2.209 . S
O997 Mn973 2.215 . S
O997 C974 1.283 . S
O998 Mn972 2.094 . S
O998 C976 1.240 . S
O999 Mn973 2.117 . S
O999 C976 1.264 . S
C1000 C993 1.403 . S
C1000 C1001 1.399 . S
C1000 H1006 0.929 . S
C1001 C981 1.449 . S
C1001 C1000 1.399 . S
C1001 H1007 0.930 . S
H1002 C982 0.931 . S
H1003 C983 0.930 . S
H1004 C991 0.931 . S
H1005 C992 0.929 . S
H1006 C1000 0.929 . S
H1007 C1001 0.930 . S
Mn1008 O1013 2.095 . S
Mn1008 O1023 2.162 . S
Mn1008 O1024 2.297 . S
Mn1008 O1032 2.385 . S
Mn1008 O1033 2.209 . S
Mn1008 O1034 2.094 . S
Mn1009 O1014 2.121 . S
Mn1009 N1016 2.257 . S
Mn1009 N1025 2.282 . S
Mn1009 O1033 2.215 . S
Mn1009 O1035 2.117 . S
C1010 O1032 1.234 . S
C1010 O1033 1.283 . S
C1011 O1023 1.281 . S
C1011 O1024 1.236 . S
C1012 O1034 1.240 . S
C1012 O1035 1.264 . S
O1013 Mn1008 2.095 . S
O1013 C1022 1.250 . S
O1014 Mn1009 2.121 . S
O1014 C1022 1.258 . S
C1015 N1016 1.326 . S
C1015 C1019 1.460 . S
C1015 H1021 0.929 . S
N1016 Mn1009 2.257 . S
N1016 C1015 1.326 . S
N1016 C1020 1.362 . S
C1017 C1018 1.258 . S
C1017 C1020 1.431 . S
C1017 C1037 1.449 . S
C1018 C1017 1.258 . S
C1018 C1019 1.477 . S
C1018 H1038 0.931 . S
C1019 C1015 1.460 . S
C1019 C1018 1.477 . S
C1019 H1039 0.930 . S
C1020 N1016 1.362 . S
C1020 C1017 1.431 . S
C1020 C1030 1.476 . S
H1021 C1015 0.929 . S
C1022 O1013 1.250 . S
C1022 O1014 1.258 . S
O1023 Mn1008 2.162 . S
O1023 C1011 1.281 . S
O1024 Mn1008 2.297 . S
O1024 C1011 1.236 . S
N1025 Mn1009 2.282 . S
N1025 C1026 1.328 . S
N1025 C1030 1.318 . S
C1026 N1025 1.328 . S
C1026 C1027 1.457 . S
C1026 H1031 0.929 . S
C1027 C1026 1.457 . S
C1027 C1028 1.291 . S
C1027 H1040 0.931 . S
C1028 C1027 1.291 . S
C1028 C1029 1.373 . S
C1028 H1041 0.929 . S
C1029 C1028 1.373 . S
C1029 C1030 1.396 . S
C1029 C1036 1.403 . S
C1030 C1020 1.476 . S
C1030 N1025 1.318 . S
C1030 C1029 1.396 . S
H1031 C1026 0.929 . S
O1032 Mn1008 2.385 . S
O1032 C1010 1.234 . S
O1033 Mn1008 2.209 . S
O1033 Mn1009 2.215 . S
O1033 C1010 1.283 . S
O1034 Mn1008 2.094 . S
O1034 C1012 1.240 . S
O1035 Mn1009 2.117 . S
O1035 C1012 1.264 . S
C1036 C1029 1.403 . S
C1036 C1037 1.399 . S
C1036 H1042 0.929 . S
C1037 C1017 1.449 . S
C1037 C1036 1.399 . S
C1037 H1043 0.930 . S
H1038 C1018 0.931 . S
H1039 C1019 0.930 . S
H1040 C1027 0.931 . S
H1041 C1028 0.929 . S
H1042 C1036 0.929 . S
H1043 C1037 0.930 . S
Mn1044 O1049 2.095 1_455 S
Mn1044 O1059 2.162 . S
Mn1044 O1060 2.297 . S
Mn1044 O1068 2.385 . S
Mn1044 O1069 2.209 1_455 S
Mn1044 O1070 2.094 . S
Mn1045 O1050 2.121 . S
Mn1045 N1052 2.257 . S
Mn1045 N1061 2.282 . S
Mn1045 O1069 2.215 . S
Mn1045 O1071 2.117 . S
C1046 O1068 1.234 . S
C1046 O1069 1.283 1_455 S
C1047 O1059 1.281 . S
C1047 O1060 1.236 . S
C1048 O1070 1.240 . S
C1048 O1071 1.264 1_455 S
O1049 Mn1044 2.095 1_655 S
O1049 C1058 1.250 . S
O1050 Mn1045 2.121 . S
O1050 C1058 1.258 . S
C1051 N1052 1.326 . S
C1051 C1055 1.460 . S
C1051 H1057 0.929 . S
N1052 Mn1045 2.257 . S
N1052 C1051 1.326 . S
N1052 C1056 1.362 . S
C1053 C1054 1.258 . S
C1053 C1056 1.431 . S
C1053 C1073 1.449 . S
C1054 C1053 1.258 . S
C1054 C1055 1.477 . S
C1054 H1074 0.931 . S
C1055 C1051 1.460 . S
C1055 C1054 1.477 . S
C1055 H1075 0.930 . S
C1056 N1052 1.362 . S
C1056 C1053 1.431 . S
C1056 C1066 1.476 . S
H1057 C1051 0.929 . S
C1058 O1049 1.250 . S
C1058 O1050 1.258 . S
O1059 Mn1044 2.162 . S
O1059 C1047 1.281 . S
O1060 Mn1044 2.297 . S
O1060 C1047 1.236 . S
N1061 Mn1045 2.282 . S
N1061 C1062 1.328 1_655 S
N1061 C1066 1.318 . S
C1062 N1061 1.328 1_455 S
C1062 C1063 1.457 . S
C1062 H1067 0.929 . S
C1063 C1062 1.457 . S
C1063 C1064 1.291 . S
C1063 H1076 0.931 . S
C1064 C1063 1.291 . S
C1064 C1065 1.373 1_455 S
C1064 H1077 0.929 . S
C1065 C1064 1.373 1_655 S
C1065 C1066 1.396 . S
C1065 C1072 1.403 . S
C1066 C1056 1.476 . S
C1066 N1061 1.318 . S
C1066 C1065 1.396 . S
H1067 C1062 0.929 . S
O1068 Mn1044 2.385 . S
O1068 C1046 1.234 . S
O1069 Mn1044 2.209 1_655 S
O1069 Mn1045 2.215 . S
O1069 C1046 1.283 1_655 S
O1070 Mn1044 2.094 . S
O1070 C1048 1.240 . S
O1071 Mn1045 2.117 . S
O1071 C1048 1.264 1_655 S
C1072 C1065 1.403 . S
C1072 C1073 1.399 . S
C1072 H1078 0.929 . S
C1073 C1053 1.449 . S
C1073 C1072 1.399 . S
C1073 H1079 0.930 . S
H1074 C1054 0.931 . S
H1075 C1055 0.930 . S
H1076 C1063 0.931 . S
H1077 C1064 0.929 . S
H1078 C1072 0.929 . S
H1079 C1073 0.930 . S
Mn1080 O1085 2.095 . S
Mn1080 O1095 2.162 . S
Mn1080 O1096 2.297 . S
Mn1080 O1104 2.385 . S
Mn1080 O1105 2.209 . S
Mn1080 O1106 2.094 . S
Mn1081 O1086 2.121 . S
Mn1081 N1088 2.257 . S
Mn1081 N1097 2.282 . S
Mn1081 O1105 2.215 . S
Mn1081 O1107 2.117 . S
C1082 O1104 1.234 . S
C1082 O1105 1.283 . S
C1083 O1095 1.281 . S
C1083 O1096 1.236 . S
C1084 O1106 1.240 . S
C1084 O1107 1.264 . S
O1085 Mn1080 2.095 . S
O1085 C1094 1.250 . S
O1086 Mn1081 2.121 . S
O1086 C1094 1.258 . S
C1087 N1088 1.326 . S
C1087 C1091 1.460 . S
C1087 H1093 0.929 . S
N1088 Mn1081 2.257 . S
N1088 C1087 1.326 . S
N1088 C1092 1.362 . S
C1089 C1090 1.258 . S
C1089 C1092 1.431 . S
C1089 C1109 1.449 . S
C1090 C1089 1.258 . S
C1090 C1091 1.477 . S
C1090 H1110 0.931 . S
C1091 C1087 1.460 . S
C1091 C1090 1.477 . S
C1091 H1111 0.930 . S
C1092 N1088 1.362 . S
C1092 C1089 1.431 . S
C1092 C1102 1.476 . S
H1093 C1087 0.929 . S
C1094 O1085 1.250 . S
C1094 O1086 1.258 . S
O1095 Mn1080 2.162 . S
O1095 C1083 1.281 . S
O1096 Mn1080 2.297 . S
O1096 C1083 1.236 . S
N1097 Mn1081 2.282 . S
N1097 C1098 1.328 . S
N1097 C1102 1.318 . S
C1098 N1097 1.328 . S
C1098 C1099 1.457 . S
C1098 H1103 0.929 . S
C1099 C1098 1.457 . S
C1099 C1100 1.291 . S
C1099 H1112 0.931 . S
C1100 C1099 1.291 . S
C1100 C1101 1.373 . S
C1100 H1113 0.929 . S
C1101 C1100 1.373 . S
C1101 C1102 1.396 . S
C1101 C1108 1.403 . S
C1102 C1092 1.476 . S
C1102 N1097 1.318 . S
C1102 C1101 1.396 . S
H1103 C1098 0.929 . S
O1104 Mn1080 2.385 . S
O1104 C1082 1.234 . S
O1105 Mn1080 2.209 . S
O1105 Mn1081 2.215 . S
O1105 C1082 1.283 . S
O1106 Mn1080 2.094 . S
O1106 C1084 1.240 . S
O1107 Mn1081 2.117 . S
O1107 C1084 1.264 . S
C1108 C1101 1.403 . S
C1108 C1109 1.399 . S
C1108 H1114 0.929 . S
C1109 C1089 1.449 . S
C1109 C1108 1.399 . S
C1109 H1115 0.930 . S
H1110 C1090 0.931 . S
H1111 C1091 0.930 . S
H1112 C1099 0.931 . S
H1113 C1100 0.929 . S
H1114 C1108 0.929 . S
H1115 C1109 0.930 . S
Mn1116 O1121 2.095 . S
Mn1116 O1131 2.162 . S
Mn1116 O1132 2.297 . S
Mn1116 O1140 2.385 . S
Mn1116 O1141 2.209 . S
Mn1116 O1142 2.094 . S
Mn1117 O1122 2.121 . S
Mn1117 N1124 2.257 . S
Mn1117 N1133 2.282 . S
Mn1117 O1141 2.215 . S
Mn1117 O1143 2.117 . S
C1118 O1140 1.234 . S
C1118 O1141 1.283 . S
C1119 O1131 1.281 . S
C1119 O1132 1.236 . S
C1120 O1142 1.240 . S
C1120 O1143 1.264 . S
O1121 Mn1116 2.095 . S
O1121 C1130 1.250 . S
O1122 Mn1117 2.121 . S
O1122 C1130 1.258 . S
C1123 N1124 1.326 . S
C1123 C1127 1.460 . S
C1123 H1129 0.929 . S
N1124 Mn1117 2.257 . S
N1124 C1123 1.326 . S
N1124 C1128 1.362 . S
C1125 C1126 1.258 . S
C1125 C1128 1.431 . S
C1125 C1145 1.449 . S
C1126 C1125 1.258 . S
C1126 C1127 1.477 . S
C1126 H1146 0.931 . S
C1127 C1123 1.460 . S
C1127 C1126 1.477 . S
C1127 H1147 0.930 . S
C1128 N1124 1.362 . S
C1128 C1125 1.431 . S
C1128 C1138 1.476 . S
H1129 C1123 0.929 . S
C1130 O1121 1.250 . S
C1130 O1122 1.258 . S
O1131 Mn1116 2.162 . S
O1131 C1119 1.281 . S
O1132 Mn1116 2.297 . S
O1132 C1119 1.236 . S
N1133 Mn1117 2.282 . S
N1133 C1134 1.328 . S
N1133 C1138 1.318 . S
C1134 N1133 1.328 . S
C1134 C1135 1.457 . S
C1134 H1139 0.929 . S
C1135 C1134 1.457 . S
C1135 C1136 1.291 . S
C1135 H1148 0.931 . S
C1136 C1135 1.291 . S
C1136 C1137 1.373 . S
C1136 H1149 0.929 . S
C1137 C1136 1.373 . S
C1137 C1138 1.396 . S
C1137 C1144 1.403 . S
C1138 C1128 1.476 . S
C1138 N1133 1.318 . S
C1138 C1137 1.396 . S
H1139 C1134 0.929 . S
O1140 Mn1116 2.385 . S
O1140 C1118 1.234 . S
O1141 Mn1116 2.209 . S
O1141 Mn1117 2.215 . S
O1141 C1118 1.283 . S
O1142 Mn1116 2.094 . S
O1142 C1120 1.240 . S
O1143 Mn1117 2.117 . S
O1143 C1120 1.264 . S
C1144 C1137 1.403 . S
C1144 C1145 1.399 . S
C1144 H1150 0.929 . S
C1145 C1125 1.449 . S
C1145 C1144 1.399 . S
C1145 H1151 0.930 . S
H1146 C1126 0.931 . S
H1147 C1127 0.930 . S
H1148 C1135 0.931 . S
H1149 C1136 0.929 . S
H1150 C1144 0.929 . S
H1151 C1145 0.930 . S
Mn1152 O1157 2.095 . S
Mn1152 O1167 2.162 . S
Mn1152 O1168 2.297 . S
Mn1152 O1176 2.385 . S
Mn1152 O1177 2.209 . S
Mn1152 O1178 2.094 . S
Mn1153 O1158 2.121 . S
Mn1153 N1160 2.257 . S
Mn1153 N1169 2.282 . S
Mn1153 O1177 2.215 . S
Mn1153 O1179 2.117 . S
C1154 O1176 1.234 . S
C1154 O1177 1.283 . S
C1155 O1167 1.281 . S
C1155 O1168 1.236 . S
C1156 O1178 1.240 . S
C1156 O1179 1.264 . S
O1157 Mn1152 2.095 . S
O1157 C1166 1.250 . S
O1158 Mn1153 2.121 . S
O1158 C1166 1.258 . S
C1159 N1160 1.326 . S
C1159 C1163 1.460 . S
C1159 H1165 0.929 . S
N1160 Mn1153 2.257 . S
N1160 C1159 1.326 . S
N1160 C1164 1.362 . S
C1161 C1162 1.258 . S
C1161 C1164 1.431 . S
C1161 C1181 1.449 . S
C1162 C1161 1.258 . S
C1162 C1163 1.477 . S
C1162 H1182 0.931 . S
C1163 C1159 1.460 . S
C1163 C1162 1.477 . S
C1163 H1183 0.930 . S
C1164 N1160 1.362 . S
C1164 C1161 1.431 . S
C1164 C1174 1.476 . S
H1165 C1159 0.929 . S
C1166 O1157 1.250 . S
C1166 O1158 1.258 . S
O1167 Mn1152 2.162 . S
O1167 C1155 1.281 . S
O1168 Mn1152 2.297 . S
O1168 C1155 1.236 . S
N1169 Mn1153 2.282 . S
N1169 C1170 1.328 . S
N1169 C1174 1.318 . S
C1170 N1169 1.328 . S
C1170 C1171 1.457 . S
C1170 H1175 0.929 . S
C1171 C1170 1.457 . S
C1171 C1172 1.291 . S
C1171 H1184 0.931 . S
C1172 C1171 1.291 . S
C1172 C1173 1.373 . S
C1172 H1185 0.929 . S
C1173 C1172 1.373 . S
C1173 C1174 1.396 . S
C1173 C1180 1.403 . S
C1174 C1164 1.476 . S
C1174 N1169 1.318 . S
C1174 C1173 1.396 . S
H1175 C1170 0.929 . S
O1176 Mn1152 2.385 . S
O1176 C1154 1.234 . S
O1177 Mn1152 2.209 . S
O1177 Mn1153 2.215 . S
O1177 C1154 1.283 . S
O1178 Mn1152 2.094 . S
O1178 C1156 1.240 . S
O1179 Mn1153 2.117 . S
O1179 C1156 1.264 . S
C1180 C1173 1.403 . S
C1180 C1181 1.399 . S
C1180 H1186 0.929 . S
C1181 C1161 1.449 . S
C1181 C1180 1.399 . S
C1181 H1187 0.930 . S
H1182 C1162 0.931 . S
H1183 C1163 0.930 . S
H1184 C1171 0.931 . S
H1185 C1172 0.929 . S
H1186 C1180 0.929 . S
H1187 C1181 0.930 . S
Mn1188 O1193 2.095 . S
Mn1188 O1203 2.162 . S
Mn1188 O1204 2.297 . S
Mn1188 O1212 2.385 . S
Mn1188 O1213 2.209 . S
Mn1188 O1214 2.094 . S
Mn1189 O1194 2.121 . S
Mn1189 N1196 2.257 . S
Mn1189 N1205 2.282 . S
Mn1189 O1213 2.215 . S
Mn1189 O1215 2.117 . S
C1190 O1212 1.234 . S
C1190 O1213 1.283 . S
C1191 O1203 1.281 . S
C1191 O1204 1.236 . S
C1192 O1214 1.240 . S
C1192 O1215 1.264 . S
O1193 Mn1188 2.095 . S
O1193 C1202 1.250 . S
O1194 Mn1189 2.121 . S
O1194 C1202 1.258 . S
C1195 N1196 1.326 . S
C1195 C1199 1.460 . S
C1195 H1201 0.929 . S
N1196 Mn1189 2.257 . S
N1196 C1195 1.326 . S
N1196 C1200 1.362 . S
C1197 C1198 1.258 . S
C1197 C1200 1.431 . S
C1197 C1217 1.449 . S
C1198 C1197 1.258 . S
C1198 C1199 1.477 . S
C1198 H1218 0.931 . S
C1199 C1195 1.460 . S
C1199 C1198 1.477 . S
C1199 H1219 0.930 . S
C1200 N1196 1.362 . S
C1200 C1197 1.431 . S
C1200 C1210 1.476 . S
H1201 C1195 0.929 . S
C1202 O1193 1.250 . S
C1202 O1194 1.258 . S
O1203 Mn1188 2.162 . S
O1203 C1191 1.281 . S
O1204 Mn1188 2.297 . S
O1204 C1191 1.236 . S
N1205 Mn1189 2.282 . S
N1205 C1206 1.328 . S
N1205 C1210 1.318 . S
C1206 N1205 1.328 . S
C1206 C1207 1.457 . S
C1206 H1211 0.929 . S
C1207 C1206 1.457 . S
C1207 C1208 1.291 . S
C1207 H1220 0.931 . S
C1208 C1207 1.291 . S
C1208 C1209 1.373 . S
C1208 H1221 0.929 . S
C1209 C1208 1.373 . S
C1209 C1210 1.396 . S
C1209 C1216 1.403 . S
C1210 C1200 1.476 . S
C1210 N1205 1.318 . S
C1210 C1209 1.396 . S
H1211 C1206 0.929 . S
O1212 Mn1188 2.385 . S
O1212 C1190 1.234 . S
O1213 Mn1188 2.209 . S
O1213 Mn1189 2.215 . S
O1213 C1190 1.283 . S
O1214 Mn1188 2.094 . S
O1214 C1192 1.240 . S
O1215 Mn1189 2.117 . S
O1215 C1192 1.264 . S
C1216 C1209 1.403 . S
C1216 C1217 1.399 . S
C1216 H1222 0.929 . S
C1217 C1197 1.449 . S
C1217 C1216 1.399 . S
C1217 H1223 0.930 . S
H1218 C1198 0.931 . S
H1219 C1199 0.930 . S
H1220 C1207 0.931 . S
H1221 C1208 0.929 . S
H1222 C1216 0.929 . S
H1223 C1217 0.930 . S
Mn1224 O1229 2.095 . S
Mn1224 O1239 2.162 . S
Mn1224 O1240 2.297 . S
Mn1224 O1248 2.385 . S
Mn1224 O1249 2.209 . S
Mn1224 O1250 2.094 . S
Mn1225 O1230 2.121 . S
Mn1225 N1232 2.257 . S
Mn1225 N1241 2.282 . S
Mn1225 O1249 2.215 . S
Mn1225 O1251 2.117 . S
C1226 O1248 1.234 . S
C1226 O1249 1.283 . S
C1227 O1239 1.281 . S
C1227 O1240 1.236 . S
C1228 O1250 1.240 . S
C1228 O1251 1.264 . S
O1229 Mn1224 2.095 . S
O1229 C1238 1.250 . S
O1230 Mn1225 2.121 . S
O1230 C1238 1.258 . S
C1231 N1232 1.326 . S
C1231 C1235 1.460 . S
C1231 H1237 0.929 . S
N1232 Mn1225 2.257 . S
N1232 C1231 1.326 . S
N1232 C1236 1.362 . S
C1233 C1234 1.258 . S
C1233 C1236 1.431 . S
C1233 C1253 1.449 . S
C1234 C1233 1.258 . S
C1234 C1235 1.477 . S
C1234 H1254 0.931 . S
C1235 C1231 1.460 . S
C1235 C1234 1.477 . S
C1235 H1255 0.930 . S
C1236 N1232 1.362 . S
C1236 C1233 1.431 . S
C1236 C1246 1.476 . S
H1237 C1231 0.929 . S
C1238 O1229 1.250 . S
C1238 O1230 1.258 . S
O1239 Mn1224 2.162 . S
O1239 C1227 1.281 . S
O1240 Mn1224 2.297 . S
O1240 C1227 1.236 . S
N1241 Mn1225 2.282 . S
N1241 C1242 1.328 . S
N1241 C1246 1.318 . S
C1242 N1241 1.328 . S
C1242 C1243 1.457 . S
C1242 H1247 0.929 . S
C1243 C1242 1.457 . S
C1243 C1244 1.291 . S
C1243 H1256 0.931 . S
C1244 C1243 1.291 . S
C1244 C1245 1.373 . S
C1244 H1257 0.929 . S
C1245 C1244 1.373 . S
C1245 C1246 1.396 . S
C1245 C1252 1.403 . S
C1246 C1236 1.476 . S
C1246 N1241 1.318 . S
C1246 C1245 1.396 . S
H1247 C1242 0.929 . S
O1248 Mn1224 2.385 . S
O1248 C1226 1.234 . S
O1249 Mn1224 2.209 . S
O1249 Mn1225 2.215 . S
O1249 C1226 1.283 . S
O1250 Mn1224 2.094 . S
O1250 C1228 1.240 . S
O1251 Mn1225 2.117 . S
O1251 C1228 1.264 . S
C1252 C1245 1.403 . S
C1252 C1253 1.399 . S
C1252 H1258 0.929 . S
C1253 C1233 1.449 . S
C1253 C1252 1.399 . S
C1253 H1259 0.930 . S
H1254 C1234 0.931 . S
H1255 C1235 0.930 . S
H1256 C1243 0.931 . S
H1257 C1244 0.929 . S
H1258 C1252 0.929 . S
H1259 C1253 0.930 . S
Mn1260 O1265 2.095 . S
Mn1260 O1275 2.162 . S
Mn1260 O1276 2.297 . S
Mn1260 O1284 2.385 . S
Mn1260 O1285 2.209 . S
Mn1260 O1286 2.094 . S
Mn1261 O1266 2.121 . S
Mn1261 N1268 2.257 . S
Mn1261 N1277 2.282 . S
Mn1261 O1285 2.215 . S
Mn1261 O1287 2.117 . S
C1262 O1284 1.234 . S
C1262 O1285 1.283 . S
C1263 O1275 1.281 . S
C1263 O1276 1.236 . S
C1264 O1286 1.240 . S
C1264 O1287 1.264 . S
O1265 Mn1260 2.095 . S
O1265 C1274 1.250 . S
O1266 Mn1261 2.121 . S
O1266 C1274 1.258 . S
C1267 N1268 1.326 . S
C1267 C1271 1.460 . S
C1267 H1273 0.929 . S
N1268 Mn1261 2.257 . S
N1268 C1267 1.326 . S
N1268 C1272 1.362 . S
C1269 C1270 1.258 . S
C1269 C1272 1.431 . S
C1269 C1289 1.449 . S
C1270 C1269 1.258 . S
C1270 C1271 1.477 . S
C1270 H1290 0.931 . S
C1271 C1267 1.460 . S
C1271 C1270 1.477 . S
C1271 H1291 0.930 . S
C1272 N1268 1.362 . S
C1272 C1269 1.431 . S
C1272 C1282 1.476 . S
H1273 C1267 0.929 . S
C1274 O1265 1.250 . S
C1274 O1266 1.258 . S
O1275 Mn1260 2.162 . S
O1275 C1263 1.281 . S
O1276 Mn1260 2.297 . S
O1276 C1263 1.236 . S
N1277 Mn1261 2.282 . S
N1277 C1278 1.328 . S
N1277 C1282 1.318 . S
C1278 N1277 1.328 . S
C1278 C1279 1.457 . S
C1278 H1283 0.929 . S
C1279 C1278 1.457 . S
C1279 C1280 1.291 . S
C1279 H1292 0.931 . S
C1280 C1279 1.291 . S
C1280 C1281 1.373 . S
C1280 H1293 0.929 . S
C1281 C1280 1.373 . S
C1281 C1282 1.396 . S
C1281 C1288 1.403 . S
C1282 C1272 1.476 . S
C1282 N1277 1.318 . S
C1282 C1281 1.396 . S
H1283 C1278 0.929 . S
O1284 Mn1260 2.385 . S
O1284 C1262 1.234 . S
O1285 Mn1260 2.209 . S
O1285 Mn1261 2.215 . S
O1285 C1262 1.283 . S
O1286 Mn1260 2.094 . S
O1286 C1264 1.240 . S
O1287 Mn1261 2.117 . S
O1287 C1264 1.264 . S
C1288 C1281 1.403 . S
C1288 C1289 1.399 . S
C1288 H1294 0.929 . S
C1289 C1269 1.449 . S
C1289 C1288 1.399 . S
C1289 H1295 0.930 . S
H1290 C1270 0.931 . S
H1291 C1271 0.930 . S
H1292 C1279 0.931 . S
H1293 C1280 0.929 . S
H1294 C1288 0.929 . S
H1295 C1289 0.930 . S
Mn1296 O1301 2.095 . S
Mn1296 O1311 2.162 . S
Mn1296 O1312 2.297 . S
Mn1296 O1320 2.385 . S
Mn1296 O1321 2.209 . S
Mn1296 O1322 2.094 . S
Mn1297 O1302 2.121 . S
Mn1297 N1304 2.257 . S
Mn1297 N1313 2.282 . S
Mn1297 O1321 2.215 . S
Mn1297 O1323 2.117 . S
C1298 O1320 1.234 . S
C1298 O1321 1.283 . S
C1299 O1311 1.281 . S
C1299 O1312 1.236 . S
C1300 O1322 1.240 . S
C1300 O1323 1.264 . S
O1301 Mn1296 2.095 . S
O1301 C1310 1.250 . S
O1302 Mn1297 2.121 . S
O1302 C1310 1.258 . S
C1303 N1304 1.326 . S
C1303 C1307 1.460 . S
C1303 H1309 0.929 . S
N1304 Mn1297 2.257 . S
N1304 C1303 1.326 . S
N1304 C1308 1.362 . S
C1305 C1306 1.258 . S
C1305 C1308 1.431 . S
C1305 C1325 1.449 . S
C1306 C1305 1.258 . S
C1306 C1307 1.477 . S
C1306 H1326 0.931 . S
C1307 C1303 1.460 . S
C1307 C1306 1.477 . S
C1307 H1327 0.930 . S
C1308 N1304 1.362 . S
C1308 C1305 1.431 . S
C1308 C1318 1.476 . S
H1309 C1303 0.929 . S
C1310 O1301 1.250 . S
C1310 O1302 1.258 . S
O1311 Mn1296 2.162 . S
O1311 C1299 1.281 . S
O1312 Mn1296 2.297 . S
O1312 C1299 1.236 . S
N1313 Mn1297 2.282 . S
N1313 C1314 1.328 . S
N1313 C1318 1.318 . S
C1314 N1313 1.328 . S
C1314 C1315 1.457 . S
C1314 H1319 0.929 . S
C1315 C1314 1.457 . S
C1315 C1316 1.291 . S
C1315 H1328 0.931 . S
C1316 C1315 1.291 . S
C1316 C1317 1.373 . S
C1316 H1329 0.929 . S
C1317 C1316 1.373 . S
C1317 C1318 1.396 . S
C1317 C1324 1.403 . S
C1318 C1308 1.476 . S
C1318 N1313 1.318 . S
C1318 C1317 1.396 . S
H1319 C1314 0.929 . S
O1320 Mn1296 2.385 . S
O1320 C1298 1.234 . S
O1321 Mn1296 2.209 . S
O1321 Mn1297 2.215 . S
O1321 C1298 1.283 . S
O1322 Mn1296 2.094 . S
O1322 C1300 1.240 . S
O1323 Mn1297 2.117 . S
O1323 C1300 1.264 . S
C1324 C1317 1.403 . S
C1324 C1325 1.399 . S
C1324 H1330 0.929 . S
C1325 C1305 1.449 . S
C1325 C1324 1.399 . S
C1325 H1331 0.930 . S
H1326 C1306 0.931 . S
H1327 C1307 0.930 . S
H1328 C1315 0.931 . S
H1329 C1316 0.929 . S
H1330 C1324 0.929 . S
H1331 C1325 0.930 . S
Mn1332 O1337 2.095 1_556 S
Mn1332 O1347 2.162 . S
Mn1332 O1348 2.297 . S
Mn1332 O1356 2.385 . S
Mn1332 O1357 2.209 1_556 S
Mn1332 O1358 2.094 . S
Mn1333 O1338 2.121 . S
Mn1333 N1340 2.257 . S
Mn1333 N1349 2.282 . S
Mn1333 O1357 2.215 . S
Mn1333 O1359 2.117 . S
C1334 O1356 1.228 . S
C1334 O1357 1.287 1_556 S
C1335 O1347 1.281 . S
C1335 O1348 1.236 . S
C1336 O1358 1.240 1_554 S
C1336 O1359 1.264 . S
O1337 Mn1332 2.095 1_554 S
O1337 C1346 1.250 . S
O1338 Mn1333 2.121 . S
O1338 C1346 1.258 . S
C1339 N1340 1.326 . S
C1339 C1343 1.460 . S
C1339 H1345 0.929 . S
N1340 Mn1333 2.257 . S
N1340 C1339 1.326 . S
N1340 C1344 1.362 . S
C1341 C1342 1.258 . S
C1341 C1344 1.431 . S
C1341 C1361 1.449 . S
C1342 C1341 1.258 . S
C1342 C1343 1.477 . S
C1342 H1362 0.931 . S
C1343 C1339 1.460 . S
C1343 C1342 1.477 . S
C1343 H1363 0.930 . S
C1344 N1340 1.362 . S
C1344 C1341 1.431 . S
C1344 C1354 1.476 . S
H1345 C1339 0.929 . S
C1346 O1337 1.250 . S
C1346 O1338 1.258 . S
O1347 Mn1332 2.162 . S
O1347 C1335 1.281 . S
O1348 Mn1332 2.297 . S
O1348 C1335 1.236 . S
N1349 Mn1333 2.282 . S
N1349 C1350 1.328 . S
N1349 C1354 1.318 . S
C1350 N1349 1.328 . S
C1350 C1351 1.457 . S
C1350 H1355 0.929 . S
C1351 C1350 1.457 . S
C1351 C1352 1.291 . S
C1351 H1364 0.931 . S
C1352 C1351 1.291 . S
C1352 C1353 1.373 . S
C1352 H1365 0.929 . S
C1353 C1352 1.373 . S
C1353 C1354 1.396 . S
C1353 C1360 1.403 . S
C1354 C1344 1.476 . S
C1354 N1349 1.318 . S
C1354 C1353 1.396 . S
H1355 C1350 0.929 . S
O1356 Mn1332 2.385 . S
O1356 C1334 1.228 . S
O1357 Mn1332 2.209 1_554 S
O1357 Mn1333 2.215 . S
O1357 C1334 1.287 1_554 S
O1358 Mn1332 2.094 . S
O1358 C1336 1.240 1_556 S
O1359 Mn1333 2.117 . S
O1359 C1336 1.264 . S
C1360 C1353 1.403 . S
C1360 C1361 1.399 . S
C1360 H1366 0.929 . S
C1361 C1341 1.449 . S
C1361 C1360 1.399 . S
C1361 H1367 0.930 . S
H1362 C1342 0.931 . S
H1363 C1343 0.930 . S
H1364 C1351 0.931 . S
H1365 C1352 0.929 . S
H1366 C1360 0.929 . S
H1367 C1361 0.930 . S
Mn1368 O1373 2.095 . S
Mn1368 O1383 2.162 . S
Mn1368 O1384 2.297 . S
Mn1368 O1392 2.385 . S
Mn1368 O1393 2.209 . S
Mn1368 O1394 2.094 . S
Mn1369 O1374 2.121 . S
Mn1369 N1376 2.257 . S
Mn1369 N1385 2.282 . S
Mn1369 O1393 2.215 . S
Mn1369 O1395 2.117 . S
C1370 O1392 1.234 . S
C1370 O1393 1.283 . S
C1371 O1383 1.281 . S
C1371 O1384 1.236 . S
C1372 O1394 1.240 . S
C1372 O1395 1.264 . S
O1373 Mn1368 2.095 . S
O1373 C1382 1.250 . S
O1374 Mn1369 2.121 . S
O1374 C1382 1.258 . S
C1375 N1376 1.326 . S
C1375 C1379 1.460 . S
C1375 H1381 0.929 . S
N1376 Mn1369 2.257 . S
N1376 C1375 1.326 . S
N1376 C1380 1.362 . S
C1377 C1378 1.258 . S
C1377 C1380 1.431 . S
C1377 C1397 1.449 . S
C1378 C1377 1.258 . S
C1378 C1379 1.477 . S
C1378 H1398 0.931 . S
C1379 C1375 1.460 . S
C1379 C1378 1.477 . S
C1379 H1399 0.930 . S
C1380 N1376 1.362 . S
C1380 C1377 1.431 . S
C1380 C1390 1.476 . S
H1381 C1375 0.929 . S
C1382 O1373 1.250 . S
C1382 O1374 1.258 . S
O1383 Mn1368 2.162 . S
O1383 C1371 1.281 . S
O1384 Mn1368 2.297 . S
O1384 C1371 1.236 . S
N1385 Mn1369 2.282 . S
N1385 C1386 1.328 . S
N1385 C1390 1.318 . S
C1386 N1385 1.328 . S
C1386 C1387 1.457 . S
C1386 H1391 0.929 . S
C1387 C1386 1.457 . S
C1387 C1388 1.291 . S
C1387 H1400 0.931 . S
C1388 C1387 1.291 . S
C1388 C1389 1.373 . S
C1388 H1401 0.929 . S
C1389 C1388 1.373 . S
C1389 C1390 1.396 . S
C1389 C1396 1.403 . S
C1390 C1380 1.476 . S
C1390 N1385 1.318 . S
C1390 C1389 1.396 . S
H1391 C1386 0.929 . S
O1392 Mn1368 2.385 . S
O1392 C1370 1.234 . S
O1393 Mn1368 2.209 . S
O1393 Mn1369 2.215 . S
O1393 C1370 1.283 . S
O1394 Mn1368 2.094 . S
O1394 C1372 1.240 . S
O1395 Mn1369 2.117 . S
O1395 C1372 1.264 . S
C1396 C1389 1.403 . S
C1396 C1397 1.399 . S
C1396 H1402 0.929 . S
C1397 C1377 1.449 . S
C1397 C1396 1.399 . S
C1397 H1403 0.930 . S
H1398 C1378 0.931 . S
H1399 C1379 0.930 . S
H1400 C1387 0.931 . S
H1401 C1388 0.929 . S
H1402 C1396 0.929 . S
H1403 C1397 0.930 . S
Mn1404 O1409 2.095 . S
Mn1404 O1419 2.162 . S
Mn1404 O1420 2.297 . S
Mn1404 O1428 2.385 . S
Mn1404 O1429 2.209 . S
Mn1404 O1430 2.094 . S
Mn1405 O1410 2.121 . S
Mn1405 N1412 2.257 . S
Mn1405 N1421 2.282 . S
Mn1405 O1429 2.215 . S
Mn1405 O1431 2.117 . S
C1406 O1428 1.234 . S
C1406 O1429 1.283 . S
C1407 O1419 1.281 . S
C1407 O1420 1.236 . S
C1408 O1430 1.240 . S
C1408 O1431 1.264 . S
O1409 Mn1404 2.095 . S
O1409 C1418 1.250 . S
O1410 Mn1405 2.121 . S
O1410 C1418 1.258 . S
C1411 N1412 1.326 . S
C1411 C1415 1.460 . S
C1411 H1417 0.929 . S
N1412 Mn1405 2.257 . S
N1412 C1411 1.326 . S
N1412 C1416 1.362 . S
C1413 C1414 1.258 . S
C1413 C1416 1.431 . S
C1413 C1433 1.449 . S
C1414 C1413 1.258 . S
C1414 C1415 1.477 . S
C1414 H1434 0.931 . S
C1415 C1411 1.460 . S
C1415 C1414 1.477 . S
C1415 H1435 0.930 . S
C1416 N1412 1.362 . S
C1416 C1413 1.431 . S
C1416 C1426 1.476 . S
H1417 C1411 0.929 . S
C1418 O1409 1.250 . S
C1418 O1410 1.258 . S
O1419 Mn1404 2.162 . S
O1419 C1407 1.281 . S
O1420 Mn1404 2.297 . S
O1420 C1407 1.236 . S
N1421 Mn1405 2.282 . S
N1421 C1422 1.328 . S
N1421 C1426 1.318 . S
C1422 N1421 1.328 . S
C1422 C1423 1.457 . S
C1422 H1427 0.929 . S
C1423 C1422 1.457 . S
C1423 C1424 1.291 . S
C1423 H1436 0.931 . S
C1424 C1423 1.291 . S
C1424 C1425 1.373 . S
C1424 H1437 0.929 . S
C1425 C1424 1.373 . S
C1425 C1426 1.396 . S
C1425 C1432 1.403 . S
C1426 C1416 1.476 . S
C1426 N1421 1.318 . S
C1426 C1425 1.396 . S
H1427 C1422 0.929 . S
O1428 Mn1404 2.385 . S
O1428 C1406 1.234 . S
O1429 Mn1404 2.209 . S
O1429 Mn1405 2.215 . S
O1429 C1406 1.283 . S
O1430 Mn1404 2.094 . S
O1430 C1408 1.240 . S
O1431 Mn1405 2.117 . S
O1431 C1408 1.264 . S
C1432 C1425 1.403 . S
C1432 C1433 1.399 . S
C1432 H1438 0.929 . S
C1433 C1413 1.449 . S
C1433 C1432 1.399 . S
C1433 H1439 0.930 . S
H1434 C1414 0.931 . S
H1435 C1415 0.930 . S
H1436 C1423 0.931 . S
H1437 C1424 0.929 . S
H1438 C1432 0.929 . S
H1439 C1433 0.930 . S
Mn1440 O1445 2.095 . S
Mn1440 O1455 2.162 . S
Mn1440 O1456 2.297 . S
Mn1440 O1464 2.385 . S
Mn1440 O1465 2.209 . S
Mn1440 O1466 2.094 . S
Mn1441 O1446 2.121 . S
Mn1441 N1448 2.257 . S
Mn1441 N1457 2.282 . S
Mn1441 O1465 2.215 . S
Mn1441 O1467 2.117 . S
C1442 O1464 1.234 . S
C1442 O1465 1.283 . S
C1443 O1455 1.281 . S
C1443 O1456 1.236 . S
C1444 O1466 1.240 . S
C1444 O1467 1.264 . S
O1445 Mn1440 2.095 . S
O1445 C1454 1.250 . S
O1446 Mn1441 2.121 . S
O1446 C1454 1.258 . S
C1447 N1448 1.326 . S
C1447 C1451 1.460 . S
C1447 H1453 0.929 . S
N1448 Mn1441 2.257 . S
N1448 C1447 1.326 . S
N1448 C1452 1.362 . S
C1449 C1450 1.258 . S
C1449 C1452 1.431 . S
C1449 C1469 1.449 . S
C1450 C1449 1.258 . S
C1450 C1451 1.477 . S
C1450 H1470 0.931 . S
C1451 C1447 1.460 . S
C1451 C1450 1.477 . S
C1451 H1471 0.930 . S
C1452 N1448 1.362 . S
C1452 C1449 1.431 . S
C1452 C1462 1.476 . S
H1453 C1447 0.929 . S
C1454 O1445 1.250 . S
C1454 O1446 1.258 . S
O1455 Mn1440 2.162 . S
O1455 C1443 1.281 . S
O1456 Mn1440 2.297 . S
O1456 C1443 1.236 . S
N1457 Mn1441 2.282 . S
N1457 C1458 1.328 . S
N1457 C1462 1.318 . S
C1458 N1457 1.328 . S
C1458 C1459 1.457 . S
C1458 H1463 0.929 . S
C1459 C1458 1.457 . S
C1459 C1460 1.291 . S
C1459 H1472 0.931 . S
C1460 C1459 1.291 . S
C1460 C1461 1.373 . S
C1460 H1473 0.929 . S
C1461 C1460 1.373 . S
C1461 C1462 1.396 . S
C1461 C1468 1.403 . S
C1462 C1452 1.476 . S
C1462 N1457 1.318 . S
C1462 C1461 1.396 . S
H1463 C1458 0.929 . S
O1464 Mn1440 2.385 . S
O1464 C1442 1.234 . S
O1465 Mn1440 2.209 . S
O1465 Mn1441 2.215 . S
O1465 C1442 1.283 . S
O1466 Mn1440 2.094 . S
O1466 C1444 1.240 . S
O1467 Mn1441 2.117 . S
O1467 C1444 1.264 . S
C1468 C1461 1.403 . S
C1468 C1469 1.399 . S
C1468 H1474 0.929 . S
C1469 C1449 1.449 . S
C1469 C1468 1.399 . S
C1469 H1475 0.930 . S
H1470 C1450 0.931 . S
H1471 C1451 0.930 . S
H1472 C1459 0.931 . S
H1473 C1460 0.929 . S
H1474 C1468 0.929 . S
H1475 C1469 0.930 . S
Mn1476 O1481 2.095 . S
Mn1476 O1491 2.162 . S
Mn1476 O1492 2.297 . S
Mn1476 O1500 2.385 . S
Mn1476 O1501 2.209 . S
Mn1476 O1502 2.094 . S
Mn1477 O1482 2.121 . S
Mn1477 N1484 2.257 . S
Mn1477 N1493 2.282 . S
Mn1477 O1501 2.215 . S
Mn1477 O1503 2.117 . S
C1478 O1500 1.234 . S
C1478 O1501 1.283 . S
C1479 O1491 1.281 . S
C1479 O1492 1.236 . S
C1480 O1502 1.240 . S
C1480 O1503 1.264 . S
O1481 Mn1476 2.095 . S
O1481 C1490 1.250 . S
O1482 Mn1477 2.121 . S
O1482 C1490 1.258 . S
C1483 N1484 1.326 . S
C1483 C1487 1.460 . S
C1483 H1489 0.929 . S
N1484 Mn1477 2.257 . S
N1484 C1483 1.326 . S
N1484 C1488 1.362 . S
C1485 C1486 1.258 . S
C1485 C1488 1.431 . S
C1485 C1505 1.449 . S
C1486 C1485 1.258 . S
C1486 C1487 1.477 . S
C1486 H1506 0.931 . S
C1487 C1483 1.460 . S
C1487 C1486 1.477 . S
C1487 H1507 0.930 . S
C1488 N1484 1.362 . S
C1488 C1485 1.431 . S
C1488 C1498 1.476 . S
H1489 C1483 0.929 . S
C1490 O1481 1.250 . S
C1490 O1482 1.258 . S
O1491 Mn1476 2.162 . S
O1491 C1479 1.281 . S
O1492 Mn1476 2.297 . S
O1492 C1479 1.236 . S
N1493 Mn1477 2.282 . S
N1493 C1494 1.328 . S
N1493 C1498 1.318 . S
C1494 N1493 1.328 . S
C1494 C1495 1.457 . S
C1494 H1499 0.929 . S
C1495 C1494 1.457 . S
C1495 C1496 1.291 . S
C1495 H1508 0.931 . S
C1496 C1495 1.291 . S
C1496 C1497 1.373 . S
C1496 H1509 0.929 . S
C1497 C1496 1.373 . S
C1497 C1498 1.396 . S
C1497 C1504 1.403 . S
C1498 C1488 1.476 . S
C1498 N1493 1.318 . S
C1498 C1497 1.396 . S
H1499 C1494 0.929 . S
O1500 Mn1476 2.385 . S
O1500 C1478 1.234 . S
O1501 Mn1476 2.209 . S
O1501 Mn1477 2.215 . S
O1501 C1478 1.283 . S
O1502 Mn1476 2.094 . S
O1502 C1480 1.240 . S
O1503 Mn1477 2.117 . S
O1503 C1480 1.264 . S
C1504 C1497 1.403 . S
C1504 C1505 1.399 . S
C1504 H1510 0.929 . S
C1505 C1485 1.449 . S
C1505 C1504 1.399 . S
C1505 H1511 0.930 . S
H1506 C1486 0.931 . S
H1507 C1487 0.930 . S
H1508 C1495 0.931 . S
H1509 C1496 0.929 . S
H1510 C1504 0.929 . S
H1511 C1505 0.930 . S
Mn1512 O1517 2.095 . S
Mn1512 O1527 2.162 . S
Mn1512 O1528 2.297 . S
Mn1512 O1536 2.385 . S
Mn1512 O1537 2.209 . S
Mn1512 O1538 2.094 . S
Mn1513 O1518 2.121 . S
Mn1513 N1520 2.257 . S
Mn1513 N1529 2.282 . S
Mn1513 O1537 2.215 . S
Mn1513 O1539 2.117 . S
C1514 O1536 1.234 . S
C1514 O1537 1.283 . S
C1515 O1527 1.281 . S
C1515 O1528 1.236 . S
C1516 O1538 1.240 . S
C1516 O1539 1.264 . S
O1517 Mn1512 2.095 . S
O1517 C1526 1.250 . S
O1518 Mn1513 2.121 . S
O1518 C1526 1.258 . S
C1519 N1520 1.326 . S
C1519 C1523 1.460 . S
C1519 H1525 0.929 . S
N1520 Mn1513 2.257 . S
N1520 C1519 1.326 . S
N1520 C1524 1.362 . S
C1521 C1522 1.258 . S
C1521 C1524 1.431 . S
C1521 C1541 1.449 . S
C1522 C1521 1.258 . S
C1522 C1523 1.477 . S
C1522 H1542 0.931 . S
C1523 C1519 1.460 . S
C1523 C1522 1.477 . S
C1523 H1543 0.930 . S
C1524 N1520 1.362 . S
C1524 C1521 1.431 . S
C1524 C1534 1.476 . S
H1525 C1519 0.929 . S
C1526 O1517 1.250 . S
C1526 O1518 1.258 . S
O1527 Mn1512 2.162 . S
O1527 C1515 1.281 . S
O1528 Mn1512 2.297 . S
O1528 C1515 1.236 . S
N1529 Mn1513 2.282 . S
N1529 C1530 1.328 . S
N1529 C1534 1.318 . S
C1530 N1529 1.328 . S
C1530 C1531 1.457 . S
C1530 H1535 0.929 . S
C1531 C1530 1.457 . S
C1531 C1532 1.291 . S
C1531 H1544 0.931 . S
C1532 C1531 1.291 . S
C1532 C1533 1.373 . S
C1532 H1545 0.929 . S
C1533 C1532 1.373 . S
C1533 C1534 1.396 . S
C1533 C1540 1.403 . S
C1534 C1524 1.476 . S
C1534 N1529 1.318 . S
C1534 C1533 1.396 . S
H1535 C1530 0.929 . S
O1536 Mn1512 2.385 . S
O1536 C1514 1.234 . S
O1537 Mn1512 2.209 . S
O1537 Mn1513 2.215 . S
O1537 C1514 1.283 . S
O1538 Mn1512 2.094 . S
O1538 C1516 1.240 . S
O1539 Mn1513 2.117 . S
O1539 C1516 1.264 . S
C1540 C1533 1.403 . S
C1540 C1541 1.399 . S
C1540 H1546 0.929 . S
C1541 C1521 1.449 . S
C1541 C1540 1.399 . S
C1541 H1547 0.930 . S
H1542 C1522 0.931 . S
H1543 C1523 0.930 . S
H1544 C1531 0.931 . S
H1545 C1532 0.929 . S
H1546 C1540 0.929 . S
H1547 C1541 0.930 . S
Mn1548 O1553 2.095 . S
Mn1548 O1563 2.162 . S
Mn1548 O1564 2.297 . S
Mn1548 O1572 2.385 . S
Mn1548 O1573 2.209 . S
Mn1548 O1574 2.094 1_554 S
Mn1549 O1554 2.121 . S
Mn1549 N1556 2.257 . S
Mn1549 N1565 2.282 1_554 S
Mn1549 O1573 2.215 . S
Mn1549 O1575 2.117 1_554 S
C1550 O1572 1.234 . S
C1550 O1573 1.283 . S
C1551 O1563 1.281 . S
C1551 O1564 1.236 . S
C1552 O1574 1.240 . S
C1552 O1575 1.264 . S
O1553 Mn1548 2.095 . S
O1553 C1562 1.250 . S
O1554 Mn1549 2.121 . S
O1554 C1562 1.258 . S
C1555 N1556 1.326 . S
C1555 C1559 1.460 . S
C1555 H1561 0.929 . S
N1556 Mn1549 2.257 . S
N1556 C1555 1.326 . S
N1556 C1560 1.362 . S
C1557 C1558 1.258 . S
C1557 C1560 1.431 . S
C1557 C1577 1.449 . S
C1558 C1557 1.258 . S
C1558 C1559 1.477 . S
C1558 H1578 0.931 . S
C1559 C1555 1.460 . S
C1559 C1558 1.477 . S
C1559 H1579 0.930 . S
C1560 N1556 1.362 . S
C1560 C1557 1.431 . S
C1560 C1570 1.476 . S
H1561 C1555 0.929 . S
C1562 O1553 1.250 . S
C1562 O1554 1.258 . S
O1563 Mn1548 2.162 . S
O1563 C1551 1.281 . S
O1564 Mn1548 2.297 . S
O1564 C1551 1.236 . S
N1565 Mn1549 2.282 1_556 S
N1565 C1566 1.328 . S
N1565 C1570 1.318 1_556 S
C1566 N1565 1.328 . S
C1566 C1567 1.457 . S
C1566 H1571 0.929 . S
C1567 C1566 1.457 . S
C1567 C1568 1.291 . S
C1567 H1580 0.931 . S
C1568 C1567 1.291 . S
C1568 C1569 1.373 . S
C1568 H1581 0.929 . S
C1569 C1568 1.373 . S
C1569 C1570 1.396 1_556 S
C1569 C1576 1.403 1_556 S
C1570 C1560 1.476 . S
C1570 N1565 1.318 1_554 S
C1570 C1569 1.396 1_554 S
H1571 C1566 0.929 . S
O1572 Mn1548 2.385 . S
O1572 C1550 1.234 . S
O1573 Mn1548 2.209 . S
O1573 Mn1549 2.215 . S
O1573 C1550 1.283 . S
O1574 Mn1548 2.094 1_556 S
O1574 C1552 1.240 . S
O1575 Mn1549 2.117 1_556 S
O1575 C1552 1.264 . S
C1576 C1569 1.403 1_554 S
C1576 C1577 1.399 . S
C1576 H1582 0.929 1_554 S
C1577 C1557 1.449 . S
C1577 C1576 1.399 . S
C1577 H1583 0.930 . S
H1578 C1558 0.931 . S
H1579 C1559 0.930 . S
H1580 C1567 0.931 . S
H1581 C1568 0.929 . S
H1582 C1576 0.929 1_556 S
H1583 C1577 0.930 . S
Mn1584 O1589 2.095 . S
Mn1584 O1599 2.162 . S
Mn1584 O1600 2.297 . S
Mn1584 O1608 2.385 . S
Mn1584 O1609 2.209 . S
Mn1584 O1610 2.094 . S
Mn1585 O1590 2.121 . S
Mn1585 N1592 2.257 . S
Mn1585 N1601 2.282 . S
Mn1585 O1609 2.215 . S
Mn1585 O1611 2.117 . S
C1586 O1608 1.234 . S
C1586 O1609 1.283 . S
C1587 O1599 1.281 . S
C1587 O1600 1.236 . S
C1588 O1610 1.240 . S
C1588 O1611 1.264 . S
O1589 Mn1584 2.095 . S
O1589 C1598 1.250 . S
O1590 Mn1585 2.121 . S
O1590 C1598 1.258 . S
C1591 N1592 1.326 . S
C1591 C1595 1.460 . S
C1591 H1597 0.929 . S
N1592 Mn1585 2.257 . S
N1592 C1591 1.326 . S
N1592 C1596 1.362 . S
C1593 C1594 1.258 . S
C1593 C1596 1.431 . S
C1593 C1613 1.449 . S
C1594 C1593 1.258 . S
C1594 C1595 1.477 . S
C1594 H1614 0.931 . S
C1595 C1591 1.460 . S
C1595 C1594 1.477 . S
C1595 H1615 0.930 . S
C1596 N1592 1.362 . S
C1596 C1593 1.431 . S
C1596 C1606 1.476 . S
H1597 C1591 0.929 . S
C1598 O1589 1.250 . S
C1598 O1590 1.258 . S
O1599 Mn1584 2.162 . S
O1599 C1587 1.281 . S
O1600 Mn1584 2.297 . S
O1600 C1587 1.236 . S
N1601 Mn1585 2.282 . S
N1601 C1602 1.328 . S
N1601 C1606 1.318 . S
C1602 N1601 1.328 . S
C1602 C1603 1.457 . S
C1602 H1607 0.929 . S
C1603 C1602 1.457 . S
C1603 C1604 1.291 . S
C1603 H1616 0.931 . S
C1604 C1603 1.291 . S
C1604 C1605 1.373 . S
C1604 H1617 0.929 . S
C1605 C1604 1.373 . S
C1605 C1606 1.396 . S
C1605 C1612 1.403 . S
C1606 C1596 1.476 . S
C1606 N1601 1.318 . S
C1606 C1605 1.396 . S
H1607 C1602 0.929 . S
O1608 Mn1584 2.385 . S
O1608 C1586 1.234 . S
O1609 Mn1584 2.209 . S
O1609 Mn1585 2.215 . S
O1609 C1586 1.283 . S
O1610 Mn1584 2.094 . S
O1610 C1588 1.240 . S
O1611 Mn1585 2.117 . S
O1611 C1588 1.264 . S
C1612 C1605 1.403 . S
C1612 C1613 1.399 . S
C1612 H1618 0.929 . S
C1613 C1593 1.449 . S
C1613 C1612 1.399 . S
C1613 H1619 0.930 . S
H1614 C1594 0.931 . S
H1615 C1595 0.930 . S
H1616 C1603 0.931 . S
H1617 C1604 0.929 . S
H1618 C1612 0.929 . S
H1619 C1613 0.930 . S
Mn1620 O1625 2.095 . S
Mn1620 O1635 2.162 . S
Mn1620 O1636 2.297 . S
Mn1620 O1644 2.385 . S
Mn1620 O1645 2.209 . S
Mn1620 O1646 2.094 . S
Mn1621 O1626 2.121 . S
Mn1621 N1628 2.257 . S
Mn1621 N1637 2.282 . S
Mn1621 O1645 2.215 . S
Mn1621 O1647 2.117 . S
C1622 O1644 1.234 . S
C1622 O1645 1.283 . S
C1623 O1635 1.281 . S
C1623 O1636 1.236 . S
C1624 O1646 1.240 . S
C1624 O1647 1.264 . S
O1625 Mn1620 2.095 . S
O1625 C1634 1.250 . S
O1626 Mn1621 2.121 . S
O1626 C1634 1.258 . S
C1627 N1628 1.326 . S
C1627 C1631 1.460 . S
C1627 H1633 0.929 . S
N1628 Mn1621 2.257 . S
N1628 C1627 1.326 . S
N1628 C1632 1.362 . S
C1629 C1630 1.258 . S
C1629 C1632 1.431 . S
C1629 C1649 1.449 . S
C1630 C1629 1.258 . S
C1630 C1631 1.477 . S
C1630 H1650 0.931 . S
C1631 C1627 1.460 . S
C1631 C1630 1.477 . S
C1631 H1651 0.930 . S
C1632 N1628 1.362 . S
C1632 C1629 1.431 . S
C1632 C1642 1.476 . S
H1633 C1627 0.929 . S
C1634 O1625 1.250 . S
C1634 O1626 1.258 . S
O1635 Mn1620 2.162 . S
O1635 C1623 1.281 . S
O1636 Mn1620 2.297 . S
O1636 C1623 1.236 . S
N1637 Mn1621 2.282 . S
N1637 C1638 1.328 . S
N1637 C1642 1.318 . S
C1638 N1637 1.328 . S
C1638 C1639 1.457 . S
C1638 H1643 0.929 . S
C1639 C1638 1.457 . S
C1639 C1640 1.291 . S
C1639 H1652 0.931 . S
C1640 C1639 1.291 . S
C1640 C1641 1.373 . S
C1640 H1653 0.929 . S
C1641 C1640 1.373 . S
C1641 C1642 1.396 . S
C1641 C1648 1.403 . S
C1642 C1632 1.476 . S
C1642 N1637 1.318 . S
C1642 C1641 1.396 . S
H1643 C1638 0.929 . S
O1644 Mn1620 2.385 . S
O1644 C1622 1.234 . S
O1645 Mn1620 2.209 . S
O1645 Mn1621 2.215 . S
O1645 C1622 1.283 . S
O1646 Mn1620 2.094 . S
O1646 C1624 1.240 . S
O1647 Mn1621 2.117 . S
O1647 C1624 1.264 . S
C1648 C1641 1.403 . S
C1648 C1649 1.399 . S
C1648 H1654 0.929 . S
C1649 C1629 1.449 . S
C1649 C1648 1.399 . S
C1649 H1655 0.930 . S
H1650 C1630 0.931 . S
H1651 C1631 0.930 . S
H1652 C1639 0.931 . S
H1653 C1640 0.929 . S
H1654 C1648 0.929 . S
H1655 C1649 0.930 . S
Mn1656 O1661 2.095 1_565 S
Mn1656 O1671 2.162 . S
Mn1656 O1672 2.297 . S
Mn1656 O1680 2.385 . S
Mn1656 O1681 2.209 1_565 S
Mn1656 O1682 2.094 . S
Mn1657 O1662 2.121 . S
Mn1657 N1664 2.257 . S
Mn1657 N1673 2.282 . S
Mn1657 O1681 2.215 . S
Mn1657 O1683 2.117 . S
C1658 O1680 1.229 . S
C1658 O1681 1.287 1_565 S
C1659 O1671 1.281 . S
C1659 O1672 1.236 . S
C1660 O1682 1.240 1_545 S
C1660 O1683 1.264 . S
O1661 Mn1656 2.095 1_545 S
O1661 C1670 1.250 . S
O1662 Mn1657 2.121 . S
O1662 C1670 1.258 . S
C1663 N1664 1.326 . S
C1663 C1667 1.460 . S
C1663 H1669 0.929 . S
N1664 Mn1657 2.257 . S
N1664 C1663 1.326 . S
N1664 C1668 1.362 . S
C1665 C1666 1.258 . S
C1665 C1668 1.431 . S
C1665 C1685 1.449 . S
C1666 C1665 1.258 . S
C1666 C1667 1.477 . S
C1666 H1686 0.931 . S
C1667 C1663 1.460 . S
C1667 C1666 1.477 . S
C1667 H1687 0.930 . S
C1668 N1664 1.362 . S
C1668 C1665 1.431 . S
C1668 C1678 1.476 . S
H1669 C1663 0.929 . S
C1670 O1661 1.250 . S
C1670 O1662 1.258 . S
O1671 Mn1656 2.162 . S
O1671 C1659 1.281 . S
O1672 Mn1656 2.297 . S
O1672 C1659 1.236 . S
N1673 Mn1657 2.282 . S
N1673 C1674 1.328 . S
N1673 C1678 1.318 . S
C1674 N1673 1.328 . S
C1674 C1675 1.457 . S
C1674 H1679 0.929 . S
C1675 C1674 1.457 . S
C1675 C1676 1.291 . S
C1675 H1688 0.931 . S
C1676 C1675 1.291 . S
C1676 C1677 1.373 . S
C1676 H1689 0.929 . S
C1677 C1676 1.373 . S
C1677 C1678 1.396 . S
C1677 C1684 1.403 . S
C1678 C1668 1.476 . S
C1678 N1673 1.318 . S
C1678 C1677 1.396 . S
H1679 C1674 0.929 . S
O1680 Mn1656 2.385 . S
O1680 C1658 1.229 . S
O1681 Mn1656 2.209 1_545 S
O1681 Mn1657 2.215 . S
O1681 C1658 1.287 1_545 S
O1682 Mn1656 2.094 . S
O1682 C1660 1.240 1_565 S
O1683 Mn1657 2.117 . S
O1683 C1660 1.264 . S
C1684 C1677 1.403 . S
C1684 C1685 1.399 . S
C1684 H1690 0.929 . S
C1685 C1665 1.449 . S
C1685 C1684 1.399 . S
C1685 H1691 0.930 . S
H1686 C1666 0.931 . S
H1687 C1667 0.930 . S
H1688 C1675 0.931 . S
H1689 C1676 0.929 . S
H1690 C1684 0.929 . S
H1691 C1685 0.930 . S
Mn1692 O1697 2.095 1_545 S
Mn1692 O1707 2.162 . S
Mn1692 O1708 2.297 . S
Mn1692 O1716 2.385 . S
Mn1692 O1717 2.209 1_545 S
Mn1692 O1718 2.094 . S
Mn1693 O1698 2.121 . S
Mn1693 N1700 2.257 . S
Mn1693 N1709 2.282 . S
Mn1693 O1717 2.215 . S
Mn1693 O1719 2.117 . S
C1694 O1716 1.234 . S
C1694 O1717 1.283 1_545 S
C1695 O1707 1.281 . S
C1695 O1708 1.236 . S
C1696 O1718 1.240 . S
C1696 O1719 1.264 1_545 S
O1697 Mn1692 2.095 1_565 S
O1697 C1706 1.250 . S
O1698 Mn1693 2.121 . S
O1698 C1706 1.258 . S
C1699 N1700 1.326 . S
C1699 C1703 1.460 . S
C1699 H1705 0.929 . S
N1700 Mn1693 2.257 . S
N1700 C1699 1.326 . S
N1700 C1704 1.362 . S
C1701 C1702 1.258 . S
C1701 C1704 1.431 . S
C1701 C1721 1.449 . S
C1702 C1701 1.258 . S
C1702 C1703 1.477 . S
C1702 H1722 0.931 . S
C1703 C1699 1.460 . S
C1703 C1702 1.477 . S
C1703 H1723 0.930 . S
C1704 N1700 1.362 . S
C1704 C1701 1.431 . S
C1704 C1714 1.476 . S
H1705 C1699 0.929 . S
C1706 O1697 1.250 . S
C1706 O1698 1.258 . S
O1707 Mn1692 2.162 . S
O1707 C1695 1.281 . S
O1708 Mn1692 2.297 . S
O1708 C1695 1.236 . S
N1709 Mn1693 2.282 . S
N1709 C1710 1.328 1_565 S
N1709 C1714 1.318 . S
C1710 N1709 1.328 1_545 S
C1710 C1711 1.457 . S
C1710 H1715 0.929 . S
C1711 C1710 1.457 . S
C1711 C1712 1.291 . S
C1711 H1724 0.931 . S
C1712 C1711 1.291 . S
C1712 C1713 1.373 1_545 S
C1712 H1725 0.929 . S
C1713 C1712 1.373 1_565 S
C1713 C1714 1.396 . S
C1713 C1720 1.403 . S
C1714 C1704 1.476 . S
C1714 N1709 1.318 . S
C1714 C1713 1.396 . S
H1715 C1710 0.929 . S
O1716 Mn1692 2.385 . S
O1716 C1694 1.234 . S
O1717 Mn1692 2.209 1_565 S
O1717 Mn1693 2.215 . S
O1717 C1694 1.283 1_565 S
O1718 Mn1692 2.094 . S
O1718 C1696 1.240 . S
O1719 Mn1693 2.117 . S
O1719 C1696 1.264 1_565 S
C1720 C1713 1.403 . S
C1720 C1721 1.399 . S
C1720 H1726 0.929 . S
C1721 C1701 1.449 . S
C1721 C1720 1.399 . S
C1721 H1727 0.930 . S
H1722 C1702 0.931 . S
H1723 C1703 0.930 . S
H1724 C1711 0.931 . S
H1725 C1712 0.929 . S
H1726 C1720 0.929 . S
H1727 C1721 0.930 . S
H1728 C1746 0.951 . S
H1729 C1748 0.951 . S
H1730 C1750 0.950 . S
H1731 C1751 0.950 . S
H1732 C1753 0.950 . S
H1733 C1756 0.950 . S
H1734 C1757 0.950 . S
H1735 C1759 0.950 . S
H1736 C1760 0.950 . S
H1737 C1761 0.951 . S
H1738 C1763 0.951 . S
H1739 C1765 0.950 . S
H1740 C1766 0.950 . S
H1741 C1768 0.950 . S
H1742 C1771 0.950 . S
H1743 C1772 0.950 . S
H1744 C1774 0.950 . S
H1745 C1775 0.950 . S
C1746 H1728 0.951 . S
C1746 C1747 1.366 . S
C1746 C1748 1.388 . S
C1747 C1746 1.366 . S
C1747 C1751 1.385 . S
C1748 H1729 0.951 . S
C1748 C1746 1.388 . S
C1748 C1749 1.366 . S
C1749 C1748 1.366 . S
C1749 C1750 1.414 . S
C1749 C1752 1.499 . S
C1750 H1730 0.950 . S
C1750 C1749 1.414 . S
C1750 C1751 1.374 . S
C1751 H1731 0.950 . S
C1751 C1747 1.385 . S
C1751 C1750 1.374 . S
C1752 C1749 1.499 . S
C1752 C1753 1.373 . S
C1752 C1754 1.389 . S
C1753 H1732 0.950 . S
C1753 C1752 1.373 . S
C1753 C1769 1.377 . S
C1754 C1752 1.389 . S
C1754 C1755 1.524 . S
C1754 C1768 1.377 . S
C1755 C1754 1.524 . S
C1755 C1756 1.397 . S
C1755 C1760 1.363 . S
C1756 H1733 0.950 . S
C1756 C1755 1.397 . S
C1756 C1757 1.334 . S
C1757 H1734 0.950 . S
C1757 C1756 1.334 . S
C1757 C1758 1.287 . S
C1758 C1757 1.287 . S
C1758 C1759 1.524 . S
C1758 H1777 0.913 . S
C1759 H1735 0.950 . S
C1759 C1758 1.524 . S
C1759 C1760 1.415 . S
C1760 H1736 0.950 . S
C1760 C1755 1.363 . S
C1760 C1759 1.415 . S
C1761 H1737 0.951 . S
C1761 C1762 1.366 . S
C1761 C1763 1.388 . S
C1762 C1761 1.366 . S
C1762 C1766 1.385 . S
C1763 H1738 0.951 . S
C1763 C1761 1.388 . S
C1763 C1764 1.366 . S
C1764 C1763 1.366 . S
C1764 C1765 1.414 . S
C1764 C1767 1.499 . S
C1765 H1739 0.950 . S
C1765 C1764 1.414 . S
C1765 C1766 1.374 . S
C1766 H1740 0.950 . S
C1766 C1762 1.385 . S
C1766 C1765 1.374 . S
C1767 C1764 1.499 . S
C1767 C1768 1.373 . S
C1767 C1769 1.389 . S
C1768 H1741 0.950 . S
C1768 C1754 1.377 . S
C1768 C1767 1.373 . S
C1769 C1753 1.377 . S
C1769 C1767 1.389 . S
C1769 C1770 1.524 . S
C1770 C1769 1.524 . S
C1770 C1771 1.397 . S
C1770 C1775 1.363 . S
C1771 H1742 0.950 . S
C1771 C1770 1.397 . S
C1771 C1772 1.334 . S
C1772 H1743 0.950 . S
C1772 C1771 1.334 . S
C1772 C1773 1.287 . S
C1773 C1772 1.287 . S
C1773 C1774 1.524 . S
C1773 H1776 0.999 . S
C1774 H1744 0.950 . S
C1774 C1773 1.524 . S
C1774 C1775 1.415 . S
C1775 H1745 0.950 . S
C1775 C1770 1.363 . S
C1775 C1774 1.415 . S
H1776 C1773 0.999 . S
H1777 C1758 0.913 . S
H1778 C1796 0.951 . S
H1779 C1798 0.951 . S
H1780 C1800 0.950 . S
H1781 C1801 0.950 . S
H1782 C1803 0.950 . S
H1783 C1806 0.950 . S
H1784 C1807 0.950 . S
H1785 C1809 0.950 . S
H1786 C1810 0.950 . S
H1787 C1811 0.951 . S
H1788 C1813 0.951 . S
H1789 C1815 0.950 . S
H1790 C1816 0.950 . S
H1791 C1818 0.950 . S
H1792 C1821 0.950 . S
H1793 C1822 0.950 . S
H1794 C1824 0.950 . S
H1795 C1825 0.950 . S
C1796 H1778 0.951 . S
C1796 C1797 1.366 . S
C1796 C1798 1.388 . S
C1797 C1796 1.366 . S
C1797 C1801 1.385 . S
C1798 H1779 0.951 . S
C1798 C1796 1.388 . S
C1798 C1799 1.366 . S
C1799 C1798 1.366 . S
C1799 C1800 1.414 . S
C1799 C1802 1.499 . S
C1800 H1780 0.950 . S
C1800 C1799 1.414 . S
C1800 C1801 1.374 . S
C1801 H1781 0.950 . S
C1801 C1797 1.385 . S
C1801 C1800 1.374 . S
C1802 C1799 1.499 . S
C1802 C1803 1.373 . S
C1802 C1804 1.389 . S
C1803 H1782 0.950 . S
C1803 C1802 1.373 . S
C1803 C1819 1.377 . S
C1804 C1802 1.389 . S
C1804 C1805 1.524 . S
C1804 C1818 1.377 . S
C1805 C1804 1.524 . S
C1805 C1806 1.397 . S
C1805 C1810 1.363 . S
C1806 H1783 0.950 . S
C1806 C1805 1.397 . S
C1806 C1807 1.334 . S
C1807 H1784 0.950 . S
C1807 C1806 1.334 . S
C1807 C1808 1.287 . S
C1808 C1807 1.287 . S
C1808 C1809 1.524 . S
C1808 H1827 0.913 . S
C1809 H1785 0.950 . S
C1809 C1808 1.524 . S
C1809 C1810 1.415 . S
C1810 H1786 0.950 . S
C1810 C1805 1.363 . S
C1810 C1809 1.415 . S
C1811 H1787 0.951 . S
C1811 C1812 1.366 . S
C1811 C1813 1.388 . S
C1812 C1811 1.366 . S
C1812 C1816 1.385 . S
C1813 H1788 0.951 . S
C1813 C1811 1.388 . S
C1813 C1814 1.366 . S
C1814 C1813 1.366 . S
C1814 C1815 1.414 . S
C1814 C1817 1.499 . S
C1815 H1789 0.950 . S
C1815 C1814 1.414 . S
C1815 C1816 1.374 . S
C1816 H1790 0.950 . S
C1816 C1812 1.385 . S
C1816 C1815 1.374 . S
C1817 C1814 1.499 . S
C1817 C1818 1.373 . S
C1817 C1819 1.389 . S
C1818 H1791 0.950 . S
C1818 C1804 1.377 . S
C1818 C1817 1.373 . S
C1819 C1803 1.377 . S
C1819 C1817 1.389 . S
C1819 C1820 1.524 . S
C1820 C1819 1.524 . S
C1820 C1821 1.397 . S
C1820 C1825 1.363 . S
C1821 H1792 0.950 . S
C1821 C1820 1.397 . S
C1821 C1822 1.334 . S
C1822 H1793 0.950 . S
C1822 C1821 1.334 . S
C1822 C1823 1.287 . S
C1823 C1822 1.287 . S
C1823 C1824 1.524 . S
C1823 H1826 0.999 . S
C1824 H1794 0.950 . S
C1824 C1823 1.524 . S
C1824 C1825 1.415 . S
C1825 H1795 0.950 . S
C1825 C1820 1.363 . S
C1825 C1824 1.415 . S
H1826 C1823 0.999 . S
H1827 C1808 0.913 . S
H1828 C1846 0.951 . S
H1829 C1848 0.951 . S
H1830 C1850 0.950 . S
H1831 C1851 0.950 . S
H1832 C1853 0.950 . S
H1833 C1856 0.950 . S
H1834 C1857 0.950 . S
H1835 C1859 0.950 . S
H1836 C1860 0.950 . S
H1837 C1861 0.951 . S
H1838 C1863 0.951 . S
H1839 C1865 0.950 . S
H1840 C1866 0.950 . S
H1841 C1868 0.950 . S
H1842 C1871 0.950 . S
H1843 C1872 0.950 . S
H1844 C1874 0.950 . S
H1845 C1875 0.950 . S
C1846 H1828 0.951 . S
C1846 C1847 1.366 . S
C1846 C1848 1.388 . S
C1847 C1846 1.366 . S
C1847 C1851 1.385 . S
C1848 H1829 0.951 . S
C1848 C1846 1.388 . S
C1848 C1849 1.366 . S
C1849 C1848 1.366 . S
C1849 C1850 1.414 . S
C1849 C1852 1.499 . S
C1850 H1830 0.950 . S
C1850 C1849 1.414 . S
C1850 C1851 1.374 . S
C1851 H1831 0.950 . S
C1851 C1847 1.385 . S
C1851 C1850 1.374 . S
C1852 C1849 1.499 . S
C1852 C1853 1.373 . S
C1852 C1854 1.389 . S
C1853 H1832 0.950 . S
C1853 C1852 1.373 . S
C1853 C1869 1.377 . S
C1854 C1852 1.389 . S
C1854 C1855 1.524 . S
C1854 C1868 1.377 . S
C1855 C1854 1.524 . S
C1855 C1856 1.397 . S
C1855 C1860 1.363 . S
C1856 H1833 0.950 . S
C1856 C1855 1.397 . S
C1856 C1857 1.334 . S
C1857 H1834 0.950 . S
C1857 C1856 1.334 . S
C1857 C1858 1.287 . S
C1858 C1857 1.287 . S
C1858 C1859 1.524 . S
C1858 H1877 0.913 . S
C1859 H1835 0.950 . S
C1859 C1858 1.524 . S
C1859 C1860 1.415 . S
C1860 H1836 0.950 . S
C1860 C1855 1.363 . S
C1860 C1859 1.415 . S
C1861 H1837 0.951 . S
C1861 C1862 1.366 . S
C1861 C1863 1.388 . S
C1862 C1861 1.366 . S
C1862 C1866 1.385 . S
C1863 H1838 0.951 . S
C1863 C1861 1.388 . S
C1863 C1864 1.366 . S
C1864 C1863 1.366 . S
C1864 C1865 1.414 . S
C1864 C1867 1.499 . S
C1865 H1839 0.950 . S
C1865 C1864 1.414 . S
C1865 C1866 1.374 . S
C1866 H1840 0.950 . S
C1866 C1862 1.385 . S
C1866 C1865 1.374 . S
C1867 C1864 1.499 . S
C1867 C1868 1.373 . S
C1867 C1869 1.389 . S
C1868 H1841 0.950 . S
C1868 C1854 1.377 . S
C1868 C1867 1.373 . S
C1869 C1853 1.377 . S
C1869 C1867 1.389 . S
C1869 C1870 1.524 . S
C1870 C1869 1.524 . S
C1870 C1871 1.397 . S
C1870 C1875 1.363 . S
C1871 H1842 0.950 . S
C1871 C1870 1.397 . S
C1871 C1872 1.334 . S
C1872 H1843 0.950 . S
C1872 C1871 1.334 . S
C1872 C1873 1.287 . S
C1873 C1872 1.287 . S
C1873 C1874 1.524 . S
C1873 H1876 0.999 . S
C1874 H1844 0.950 . S
C1874 C1873 1.524 . S
C1874 C1875 1.415 . S
C1875 H1845 0.950 . S
C1875 C1870 1.363 . S
C1875 C1874 1.415 . S
H1876 C1873 0.999 . S
H1877 C1858 0.913 . S
H1878 C1896 0.951 . S
H1879 C1898 0.951 . S
H1880 C1900 0.950 . S
H1881 C1901 0.950 . S
H1882 C1903 0.950 . S
H1883 C1906 0.950 . S
H1884 C1907 0.950 . S
H1885 C1909 0.950 . S
H1886 C1910 0.950 . S
H1887 C1911 0.951 . S
H1888 C1913 0.951 . S
H1889 C1915 0.971 . S
H1890 C1916 0.950 1_556 S
H1891 C1918 0.950 . S
H1892 C1921 0.950 . S
H1893 C1922 0.950 . S
H1894 C1924 0.950 . S
H1895 C1925 0.950 . S
C1896 H1878 0.951 . S
C1896 C1897 1.366 . S
C1896 C1898 1.388 . S
C1897 C1896 1.366 . S
C1897 C1901 1.385 1_556 S
C1898 H1879 0.951 . S
C1898 C1896 1.388 . S
C1898 C1899 1.366 . S
C1899 C1898 1.366 . S
C1899 C1900 1.414 1_556 S
C1899 C1902 1.512 . S
C1900 H1880 0.950 . S
C1900 C1899 1.414 1_554 S
C1900 C1901 1.374 . S
C1901 H1881 0.950 . S
C1901 C1897 1.385 1_554 S
C1901 C1900 1.374 . S
C1902 C1899 1.512 . S
C1902 C1903 1.338 1_556 S
C1902 C1904 1.414 . S
C1903 H1882 0.950 . S
C1903 C1902 1.338 1_554 S
C1903 C1919 1.377 . S
C1904 C1902 1.414 . S
C1904 C1905 1.524 . S
C1904 C1918 1.377 . S
C1905 C1904 1.524 . S
C1905 C1906 1.397 . S
C1905 C1910 1.363 . S
C1906 H1883 0.950 . S
C1906 C1905 1.397 . S
C1906 C1907 1.334 . S
C1907 H1884 0.950 . S
C1907 C1906 1.334 . S
C1907 C1908 1.287 . S
C1908 C1907 1.287 . S
C1908 C1909 1.524 . S
C1908 H1927 0.913 . S
C1909 H1885 0.950 . S
C1909 C1908 1.524 . S
C1909 C1910 1.415 . S
C1910 H1886 0.950 . S
C1910 C1905 1.363 . S
C1910 C1909 1.415 . S
C1911 H1887 0.951 . S
C1911 C1912 1.366 . S
C1911 C1913 1.388 . S
C1912 C1911 1.366 . S
C1912 C1916 1.385 . S
C1913 H1888 0.951 . S
C1913 C1911 1.388 . S
C1913 C1914 1.366 . S
C1914 C1913 1.366 . S
C1914 C1915 1.399 1_554 S
C1914 C1917 1.499 . S
C1915 H1889 0.971 . S
C1915 C1914 1.399 1_556 S
C1915 C1916 1.368 1_556 S
C1916 H1890 0.950 1_554 S
C1916 C1912 1.385 . S
C1916 C1915 1.368 1_554 S
C1917 C1914 1.499 . S
C1917 C1918 1.373 1_554 S
C1917 C1919 1.389 . S
C1918 H1891 0.950 . S
C1918 C1904 1.377 . S
C1918 C1917 1.373 1_556 S
C1919 C1903 1.377 . S
C1919 C1917 1.389 . S
C1919 C1920 1.524 . S
C1920 C1919 1.524 . S
C1920 C1921 1.397 . S
C1920 C1925 1.363 . S
C1921 H1892 0.950 . S
C1921 C1920 1.397 . S
C1921 C1922 1.334 . S
C1922 H1893 0.950 . S
C1922 C1921 1.334 . S
C1922 C1923 1.287 . S
C1923 C1922 1.287 . S
C1923 C1924 1.524 . S
C1923 H1926 0.999 . S
C1924 H1894 0.950 . S
C1924 C1923 1.524 . S
C1924 C1925 1.415 . S
C1925 H1895 0.950 . S
C1925 C1920 1.363 . S
C1925 C1924 1.415 . S
H1926 C1923 0.999 . S
H1927 C1908 0.913 . S
H1928 C1946 0.951 . S
H1929 C1948 0.951 . S
H1930 C1950 0.950 . S
H1931 C1951 0.950 . S
H1932 C1953 0.950 . S
H1933 C1956 0.950 . S
H1934 C1957 0.950 . S
H1935 C1959 0.950 . S
H1936 C1960 0.950 . S
H1937 C1961 0.951 . S
H1938 C1963 0.951 . S
H1939 C1965 0.950 . S
H1940 C1966 0.950 . S
H1941 C1968 0.950 . S
H1942 C1971 0.950 . S
H1943 C1972 0.950 . S
H1944 C1974 0.950 . S
H1945 C1975 0.950 . S
C1946 H1928 0.951 . S
C1946 C1947 1.366 . S
C1946 C1948 1.388 . S
C1947 C1946 1.366 . S
C1947 C1951 1.385 . S
C1948 H1929 0.951 . S
C1948 C1946 1.388 . S
C1948 C1949 1.366 . S
C1949 C1948 1.366 . S
C1949 C1950 1.414 . S
C1949 C1952 1.499 . S
C1950 H1930 0.950 . S
C1950 C1949 1.414 . S
C1950 C1951 1.374 . S
C1951 H1931 0.950 . S
C1951 C1947 1.385 . S
C1951 C1950 1.374 . S
C1952 C1949 1.499 . S
C1952 C1953 1.373 . S
C1952 C1954 1.389 . S
C1953 H1932 0.950 . S
C1953 C1952 1.373 . S
C1953 C1969 1.377 . S
C1954 C1952 1.389 . S
C1954 C1955 1.524 . S
C1954 C1968 1.377 . S
C1955 C1954 1.524 . S
C1955 C1956 1.397 . S
C1955 C1960 1.363 . S
C1956 H1933 0.950 . S
C1956 C1955 1.397 . S
C1956 C1957 1.334 . S
C1957 H1934 0.950 . S
C1957 C1956 1.334 . S
C1957 C1958 1.287 . S
C1958 C1957 1.287 . S
C1958 C1959 1.524 . S
C1958 H1977 0.913 . S
C1959 H1935 0.950 . S
C1959 C1958 1.524 . S
C1959 C1960 1.415 . S
C1960 H1936 0.950 . S
C1960 C1955 1.363 . S
C1960 C1959 1.415 . S
C1961 H1937 0.951 . S
C1961 C1962 1.366 . S
C1961 C1963 1.388 . S
C1962 C1961 1.366 . S
C1962 C1966 1.385 . S
C1963 H1938 0.951 . S
C1963 C1961 1.388 . S
C1963 C1964 1.366 . S
C1964 C1963 1.366 . S
C1964 C1965 1.414 . S
C1964 C1967 1.499 . S
C1965 H1939 0.950 . S
C1965 C1964 1.414 . S
C1965 C1966 1.374 . S
C1966 H1940 0.950 . S
C1966 C1962 1.385 . S
C1966 C1965 1.374 . S
C1967 C1964 1.499 . S
C1967 C1968 1.373 . S
C1967 C1969 1.389 . S
C1968 H1941 0.950 . S
C1968 C1954 1.377 . S
C1968 C1967 1.373 . S
C1969 C1953 1.377 . S
C1969 C1967 1.389 . S
C1969 C1970 1.524 . S
C1970 C1969 1.524 . S
C1970 C1971 1.397 . S
C1970 C1975 1.363 . S
C1971 H1942 0.950 . S
C1971 C1970 1.397 . S
C1971 C1972 1.334 . S
C1972 H1943 0.950 . S
C1972 C1971 1.334 . S
C1972 C1973 1.287 . S
C1973 C1972 1.287 . S
C1973 C1974 1.524 . S
C1973 H1976 0.999 . S
C1974 H1944 0.950 . S
C1974 C1973 1.524 . S
C1974 C1975 1.415 . S
C1975 H1945 0.950 . S
C1975 C1970 1.363 . S
C1975 C1974 1.415 . S
H1976 C1973 0.999 . S
H1977 C1958 0.913 . S
H1978 C1996 0.951 . S
H1979 C1998 0.951 . S
H1980 C2000 0.950 . S
H1981 C2001 0.950 . S
H1982 C2003 0.950 . S
H1983 C2006 0.950 . S
H1984 C2007 0.950 . S
H1985 C2009 0.950 . S
H1986 C2010 0.950 . S
H1987 C2011 0.951 . S
H1988 C2013 0.951 . S
H1989 C2015 0.950 . S
H1990 C2016 0.950 . S
H1991 C2018 0.950 . S
H1992 C2021 0.950 . S
H1993 C2022 0.950 . S
H1994 C2024 0.950 . S
H1995 C2025 0.950 . S
C1996 H1978 0.951 . S
C1996 C1997 1.366 . S
C1996 C1998 1.388 . S
C1997 C1996 1.366 . S
C1997 C2001 1.385 . S
C1998 H1979 0.951 . S
C1998 C1996 1.388 . S
C1998 C1999 1.366 . S
C1999 C1998 1.366 . S
C1999 C2000 1.414 . S
C1999 C2002 1.499 . S
C2000 H1980 0.950 . S
C2000 C1999 1.414 . S
C2000 C2001 1.374 . S
C2001 H1981 0.950 . S
C2001 C1997 1.385 . S
C2001 C2000 1.374 . S
C2002 C1999 1.499 . S
C2002 C2003 1.373 . S
C2002 C2004 1.389 . S
C2003 H1982 0.950 . S
C2003 C2002 1.373 . S
C2003 C2019 1.377 . S
C2004 C2002 1.389 . S
C2004 C2005 1.524 . S
C2004 C2018 1.377 . S
C2005 C2004 1.524 . S
C2005 C2006 1.397 . S
C2005 C2010 1.363 . S
C2006 H1983 0.950 . S
C2006 C2005 1.397 . S
C2006 C2007 1.334 . S
C2007 H1984 0.950 . S
C2007 C2006 1.334 . S
C2007 C2008 1.287 . S
C2008 C2007 1.287 . S
C2008 C2009 1.524 . S
C2008 H2027 0.913 . S
C2009 H1985 0.950 . S
C2009 C2008 1.524 . S
C2009 C2010 1.415 . S
C2010 H1986 0.950 . S
C2010 C2005 1.363 . S
C2010 C2009 1.415 . S
C2011 H1987 0.951 . S
C2011 C2012 1.366 . S
C2011 C2013 1.388 . S
C2012 C2011 1.366 . S
C2012 C2016 1.385 . S
C2013 H1988 0.951 . S
C2013 C2011 1.388 . S
C2013 C2014 1.366 . S
C2014 C2013 1.366 . S
C2014 C2015 1.414 . S
C2014 C2017 1.499 . S
C2015 H1989 0.950 . S
C2015 C2014 1.414 . S
C2015 C2016 1.374 . S
C2016 H1990 0.950 . S
C2016 C2012 1.385 . S
C2016 C2015 1.374 . S
C2017 C2014 1.499 . S
C2017 C2018 1.373 . S
C2017 C2019 1.389 . S
C2018 H1991 0.950 . S
C2018 C2004 1.377 . S
C2018 C2017 1.373 . S
C2019 C2003 1.377 . S
C2019 C2017 1.389 . S
C2019 C2020 1.524 . S
C2020 C2019 1.524 . S
C2020 C2021 1.397 . S
C2020 C2025 1.363 . S
C2021 H1992 0.950 . S
C2021 C2020 1.397 . S
C2021 C2022 1.334 . S
C2022 H1993 0.950 . S
C2022 C2021 1.334 . S
C2022 C2023 1.287 . S
C2023 C2022 1.287 . S
C2023 C2024 1.524 . S
C2023 H2026 0.999 . S
C2024 H1994 0.950 . S
C2024 C2023 1.524 . S
C2024 C2025 1.415 . S
C2025 H1995 0.950 . S
C2025 C2020 1.363 . S
C2025 C2024 1.415 . S
H2026 C2023 0.999 . S
H2027 C2008 0.913 . S
H2028 C2046 0.951 . S
H2029 C2048 0.951 . S
H2030 C2050 0.950 . S
H2031 C2051 0.950 . S
H2032 C2053 0.950 . S
H2033 C2056 0.950 . S
H2034 C2057 0.950 . S
H2035 C2059 0.950 . S
H2036 C2060 0.950 . S
H2037 C2061 0.951 . S
H2038 C2063 0.951 . S
H2039 C2065 0.950 . S
H2040 C2066 0.950 . S
H2041 C2068 0.950 . S
H2042 C2071 0.950 . S
H2043 C2072 0.950 . S
H2044 C2074 0.950 . S
H2045 C2075 0.950 . S
C2046 H2028 0.951 . S
C2046 C2047 1.366 . S
C2046 C2048 1.388 . S
C2047 C2046 1.366 . S
C2047 C2051 1.385 . S
C2048 H2029 0.951 . S
C2048 C2046 1.388 . S
C2048 C2049 1.366 . S
C2049 C2048 1.366 . S
C2049 C2050 1.414 . S
C2049 C2052 1.499 . S
C2050 H2030 0.950 . S
C2050 C2049 1.414 . S
C2050 C2051 1.374 . S
C2051 H2031 0.950 . S
C2051 C2047 1.385 . S
C2051 C2050 1.374 . S
C2052 C2049 1.499 . S
C2052 C2053 1.373 . S
C2052 C2054 1.389 . S
C2053 H2032 0.950 . S
C2053 C2052 1.373 . S
C2053 C2069 1.377 . S
C2054 C2052 1.389 . S
C2054 C2055 1.524 . S
C2054 C2068 1.377 . S
C2055 C2054 1.524 . S
C2055 C2056 1.397 . S
C2055 C2060 1.363 . S
C2056 H2033 0.950 . S
C2056 C2055 1.397 . S
C2056 C2057 1.334 . S
C2057 H2034 0.950 . S
C2057 C2056 1.334 . S
C2057 C2058 1.287 . S
C2058 C2057 1.287 . S
C2058 C2059 1.524 . S
C2058 H2077 0.913 . S
C2059 H2035 0.950 . S
C2059 C2058 1.524 . S
C2059 C2060 1.415 . S
C2060 H2036 0.950 . S
C2060 C2055 1.363 . S
C2060 C2059 1.415 . S
C2061 H2037 0.951 . S
C2061 C2062 1.366 . S
C2061 C2063 1.388 . S
C2062 C2061 1.366 . S
C2062 C2066 1.385 . S
C2063 H2038 0.951 . S
C2063 C2061 1.388 . S
C2063 C2064 1.366 . S
C2064 C2063 1.366 . S
C2064 C2065 1.414 . S
C2064 C2067 1.499 . S
C2065 H2039 0.950 . S
C2065 C2064 1.414 . S
C2065 C2066 1.374 . S
C2066 H2040 0.950 . S
C2066 C2062 1.385 . S
C2066 C2065 1.374 . S
C2067 C2064 1.499 . S
C2067 C2068 1.373 . S
C2067 C2069 1.389 . S
C2068 H2041 0.950 . S
C2068 C2054 1.377 . S
C2068 C2067 1.373 . S
C2069 C2053 1.377 . S
C2069 C2067 1.389 . S
C2069 C2070 1.524 . S
C2070 C2069 1.524 . S
C2070 C2071 1.397 . S
C2070 C2075 1.363 . S
C2071 H2042 0.950 . S
C2071 C2070 1.397 . S
C2071 C2072 1.334 . S
C2072 H2043 0.950 . S
C2072 C2071 1.334 . S
C2072 C2073 1.287 . S
C2073 C2072 1.287 . S
C2073 C2074 1.524 . S
C2073 H2076 0.999 . S
C2074 H2044 0.950 . S
C2074 C2073 1.524 . S
C2074 C2075 1.415 . S
C2075 H2045 0.950 . S
C2075 C2070 1.363 . S
C2075 C2074 1.415 . S
H2076 C2073 0.999 . S
H2077 C2058 0.913 . S
H2078 C2096 0.951 . S
H2079 C2098 0.951 . S
H2080 C2100 0.950 . S
H2081 C2101 0.950 . S
H2082 C2103 0.950 . S
H2083 C2106 0.950 . S
H2084 C2107 0.950 . S
H2085 C2109 0.950 . S
H2086 C2110 0.950 . S
H2087 C2111 0.951 . S
H2088 C2113 0.951 . S
H2089 C2115 0.950 . S
H2090 C2116 0.950 . S
H2091 C2118 0.950 . S
H2092 C2121 0.950 . S
H2093 C2122 0.950 . S
H2094 C2124 0.950 . S
H2095 C2125 0.950 . S
C2096 H2078 0.951 . S
C2096 C2097 1.366 . S
C2096 C2098 1.388 . S
C2097 C2096 1.366 . S
C2097 C2101 1.385 . S
C2098 H2079 0.951 . S
C2098 C2096 1.388 . S
C2098 C2099 1.366 . S
C2099 C2098 1.366 . S
C2099 C2100 1.414 . S
C2099 C2102 1.499 . S
C2100 H2080 0.950 . S
C2100 C2099 1.414 . S
C2100 C2101 1.374 . S
C2101 H2081 0.950 . S
C2101 C2097 1.385 . S
C2101 C2100 1.374 . S
C2102 C2099 1.499 . S
C2102 C2103 1.373 . S
C2102 C2104 1.389 . S
C2103 H2082 0.950 . S
C2103 C2102 1.373 . S
C2103 C2119 1.377 . S
C2104 C2102 1.389 . S
C2104 C2105 1.524 . S
C2104 C2118 1.377 . S
C2105 C2104 1.524 . S
C2105 C2106 1.397 . S
C2105 C2110 1.363 . S
C2106 H2083 0.950 . S
C2106 C2105 1.397 . S
C2106 C2107 1.334 . S
C2107 H2084 0.950 . S
C2107 C2106 1.334 . S
C2107 C2108 1.287 . S
C2108 C2107 1.287 . S
C2108 C2109 1.524 . S
C2108 H2127 0.913 . S
C2109 H2085 0.950 . S
C2109 C2108 1.524 . S
C2109 C2110 1.415 . S
C2110 H2086 0.950 . S
C2110 C2105 1.363 . S
C2110 C2109 1.415 . S
C2111 H2087 0.951 . S
C2111 C2112 1.366 . S
C2111 C2113 1.388 . S
C2112 C2111 1.366 . S
C2112 C2116 1.385 . S
C2113 H2088 0.951 . S
C2113 C2111 1.388 . S
C2113 C2114 1.366 . S
C2114 C2113 1.366 . S
C2114 C2115 1.414 . S
C2114 C2117 1.499 . S
C2115 H2089 0.950 . S
C2115 C2114 1.414 . S
C2115 C2116 1.374 . S
C2116 H2090 0.950 . S
C2116 C2112 1.385 . S
C2116 C2115 1.374 . S
C2117 C2114 1.499 . S
C2117 C2118 1.373 . S
C2117 C2119 1.389 . S
C2118 H2091 0.950 . S
C2118 C2104 1.377 . S
C2118 C2117 1.373 . S
C2119 C2103 1.377 . S
C2119 C2117 1.389 . S
C2119 C2120 1.524 . S
C2120 C2119 1.524 . S
C2120 C2121 1.397 . S
C2120 C2125 1.363 . S
C2121 H2092 0.950 . S
C2121 C2120 1.397 . S
C2121 C2122 1.334 . S
C2122 H2093 0.950 . S
C2122 C2121 1.334 . S
C2122 C2123 1.287 . S
C2123 C2122 1.287 . S
C2123 C2124 1.524 . S
C2123 H2126 0.999 . S
C2124 H2094 0.950 . S
C2124 C2123 1.524 . S
C2124 C2125 1.415 . S
C2125 H2095 0.950 . S
C2125 C2120 1.363 . S
C2125 C2124 1.415 . S
H2126 C2123 0.999 . S
H2127 C2108 0.913 . S
H2128 C2146 0.951 . S
H2129 C2148 0.951 . S
H2130 C2150 0.950 . S
H2131 C2151 0.950 . S
H2132 C2153 0.950 . S
H2133 C2156 0.950 . S
H2134 C2157 0.950 . S
H2135 C2159 0.950 . S
H2136 C2160 0.950 . S
H2137 C2161 0.951 . S
H2138 C2163 0.951 . S
H2139 C2165 0.950 . S
H2140 C2166 0.950 . S
H2141 C2168 0.950 . S
H2142 C2171 0.937 1_545 S
H2143 C2172 0.950 . S
H2144 C2174 0.950 . S
H2145 C2175 0.950 . S
C2146 H2128 0.951 . S
C2146 C2147 1.366 . S
C2146 C2148 1.388 . S
C2147 C2146 1.366 . S
C2147 C2151 1.385 . S
C2148 H2129 0.951 . S
C2148 C2146 1.388 . S
C2148 C2149 1.366 . S
C2149 C2148 1.366 . S
C2149 C2150 1.414 . S
C2149 C2152 1.499 . S
C2150 H2130 0.950 . S
C2150 C2149 1.414 . S
C2150 C2151 1.374 . S
C2151 H2131 0.950 . S
C2151 C2147 1.385 . S
C2151 C2150 1.374 . S
C2152 C2149 1.499 . S
C2152 C2153 1.373 . S
C2152 C2154 1.389 . S
C2153 H2132 0.950 . S
C2153 C2152 1.373 . S
C2153 C2169 1.377 . S
C2154 C2152 1.389 . S
C2154 C2155 1.524 . S
C2154 C2168 1.377 . S
C2155 C2154 1.524 . S
C2155 C2156 1.397 . S
C2155 C2160 1.363 . S
C2156 H2133 0.950 . S
C2156 C2155 1.397 . S
C2156 C2157 1.334 . S
C2157 H2134 0.950 . S
C2157 C2156 1.334 . S
C2157 C2158 1.287 . S
C2158 C2157 1.287 . S
C2158 C2159 1.524 . S
C2158 H2177 0.913 . S
C2159 H2135 0.950 . S
C2159 C2158 1.524 . S
C2159 C2160 1.415 . S
C2160 H2136 0.950 . S
C2160 C2155 1.363 . S
C2160 C2159 1.415 . S
C2161 H2137 0.951 . S
C2161 C2162 1.366 . S
C2161 C2163 1.388 . S
C2162 C2161 1.366 . S
C2162 C2166 1.385 . S
C2163 H2138 0.951 . S
C2163 C2161 1.388 . S
C2163 C2164 1.366 . S
C2164 C2163 1.366 . S
C2164 C2165 1.414 . S
C2164 C2167 1.499 . S
C2165 H2139 0.950 . S
C2165 C2164 1.414 . S
C2165 C2166 1.374 . S
C2166 H2140 0.950 . S
C2166 C2162 1.385 . S
C2166 C2165 1.374 . S
C2167 C2164 1.499 . S
C2167 C2168 1.373 . S
C2167 C2169 1.389 . S
C2168 H2141 0.950 . S
C2168 C2154 1.377 . S
C2168 C2167 1.373 . S
C2169 C2153 1.377 . S
C2169 C2167 1.389 . S
C2169 C2170 1.524 . S
C2170 C2169 1.524 . S
C2170 C2171 1.356 1_545 S
C2170 C2175 1.363 . S
C2171 H2142 0.937 1_565 S
C2171 C2170 1.356 1_565 S
C2171 C2172 1.390 . S
C2172 H2143 0.950 . S
C2172 C2171 1.390 . S
C2172 C2173 1.287 . S
C2173 C2172 1.287 . S
C2173 C2174 1.524 . S
C2173 H2176 0.999 . S
C2174 H2144 0.950 . S
C2174 C2173 1.524 . S
C2174 C2175 1.415 1_565 S
C2175 H2145 0.950 . S
C2175 C2170 1.363 . S
C2175 C2174 1.415 1_545 S
H2176 C2173 0.999 . S
H2177 C2158 0.913 . S
H2178 C2196 0.951 . S
H2179 C2198 0.951 . S
H2180 C2200 0.950 . S
H2181 C2201 0.950 . S
H2182 C2203 0.950 . S
H2183 C2206 0.950 . S
H2184 C2207 0.950 . S
H2185 C2209 0.950 . S
H2186 C2210 0.950 . S
H2187 C2211 0.951 . S
H2188 C2213 0.951 . S
H2189 C2215 0.950 . S
H2190 C2216 0.950 . S
H2191 C2218 0.950 . S
H2192 C2221 0.950 . S
H2193 C2222 0.950 . S
H2194 C2224 0.950 . S
H2195 C2225 0.950 . S
C2196 H2178 0.951 . S
C2196 C2197 1.366 . S
C2196 C2198 1.388 . S
C2197 C2196 1.366 . S
C2197 C2201 1.385 . S
C2198 H2179 0.951 . S
C2198 C2196 1.388 . S
C2198 C2199 1.366 . S
C2199 C2198 1.366 . S
C2199 C2200 1.414 . S
C2199 C2202 1.499 . S
C2200 H2180 0.950 . S
C2200 C2199 1.414 . S
C2200 C2201 1.374 . S
C2201 H2181 0.950 . S
C2201 C2197 1.385 . S
C2201 C2200 1.374 . S
C2202 C2199 1.499 . S
C2202 C2203 1.373 . S
C2202 C2204 1.389 1_545 S
C2203 H2182 0.950 . S
C2203 C2202 1.373 . S
C2203 C2219 1.377 . S
C2204 C2202 1.389 1_565 S
C2204 C2205 1.524 . S
C2204 C2218 1.377 . S
C2205 C2204 1.524 . S
C2205 C2206 1.397 . S
C2205 C2210 1.363 . S
C2206 H2183 0.950 . S
C2206 C2205 1.397 . S
C2206 C2207 1.334 . S
C2207 H2184 0.950 . S
C2207 C2206 1.334 . S
C2207 C2208 1.287 . S
C2208 C2207 1.287 . S
C2208 C2209 1.524 . S
C2208 H2227 0.913 . S
C2209 H2185 0.950 . S
C2209 C2208 1.524 . S
C2209 C2210 1.415 . S
C2210 H2186 0.950 . S
C2210 C2205 1.363 . S
C2210 C2209 1.415 . S
C2211 H2187 0.951 . S
C2211 C2212 1.366 . S
C2211 C2213 1.388 . S
C2212 C2211 1.366 . S
C2212 C2216 1.385 . S
C2213 H2188 0.951 . S
C2213 C2211 1.388 . S
C2213 C2214 1.366 . S
C2214 C2213 1.366 . S
C2214 C2215 1.414 . S
C2214 C2217 1.501 . S
C2215 H2189 0.950 . S
C2215 C2214 1.414 . S
C2215 C2216 1.374 . S
C2216 H2190 0.950 . S
C2216 C2212 1.385 . S
C2216 C2215 1.374 . S
C2217 C2214 1.501 . S
C2217 C2218 1.379 . S
C2217 C2219 1.382 1_565 S
C2218 H2191 0.950 . S
C2218 C2204 1.377 . S
C2218 C2217 1.379 . S
C2219 C2203 1.377 . S
C2219 C2217 1.382 1_545 S
C2219 C2220 1.524 . S
C2220 C2219 1.524 . S
C2220 C2221 1.397 . S
C2220 C2225 1.363 . S
C2221 H2192 0.950 . S
C2221 C2220 1.397 . S
C2221 C2222 1.334 . S
C2222 H2193 0.950 . S
C2222 C2221 1.334 . S
C2222 C2223 1.287 . S
C2223 C2222 1.287 . S
C2223 C2224 1.524 . S
C2223 H2226 0.999 . S
C2224 H2194 0.950 . S
C2224 C2223 1.524 . S
C2224 C2225 1.415 . S
C2225 H2195 0.950 . S
C2225 C2220 1.363 . S
C2225 C2224 1.415 . S
H2226 C2223 0.999 . S
H2227 C2208 0.913 . S
H2228 C2246 0.951 . S
H2229 C2248 0.951 . S
H2230 C2250 0.950 . S
H2231 C2251 0.950 . S
H2232 C2253 0.950 . S
H2233 C2256 0.950 . S
H2234 C2257 0.950 . S
H2235 C2259 0.950 . S
H2236 C2260 0.950 . S
H2237 C2261 0.951 . S
H2238 C2263 0.951 . S
H2239 C2265 0.950 . S
H2240 C2266 0.950 . S
H2241 C2268 0.950 . S
H2242 C2271 0.950 . S
H2243 C2272 0.950 . S
H2244 C2274 0.950 . S
H2245 C2275 0.950 . S
C2246 H2228 0.951 . S
C2246 C2247 1.366 . S
C2246 C2248 1.388 . S
C2247 C2246 1.366 . S
C2247 C2251 1.385 . S
C2248 H2229 0.951 . S
C2248 C2246 1.388 . S
C2248 C2249 1.366 . S
C2249 C2248 1.366 . S
C2249 C2250 1.414 . S
C2249 C2252 1.499 . S
C2250 H2230 0.950 . S
C2250 C2249 1.414 . S
C2250 C2251 1.374 . S
C2251 H2231 0.950 . S
C2251 C2247 1.385 . S
C2251 C2250 1.374 . S
C2252 C2249 1.499 . S
C2252 C2253 1.373 . S
C2252 C2254 1.389 . S
C2253 H2232 0.950 . S
C2253 C2252 1.373 . S
C2253 C2269 1.377 . S
C2254 C2252 1.389 . S
C2254 C2255 1.524 . S
C2254 C2268 1.377 . S
C2255 C2254 1.524 . S
C2255 C2256 1.397 . S
C2255 C2260 1.363 . S
C2256 H2233 0.950 . S
C2256 C2255 1.397 . S
C2256 C2257 1.334 . S
C2257 H2234 0.950 . S
C2257 C2256 1.334 . S
C2257 C2258 1.287 . S
C2258 C2257 1.287 . S
C2258 C2259 1.524 . S
C2258 H2277 0.913 . S
C2259 H2235 0.950 . S
C2259 C2258 1.524 . S
C2259 C2260 1.415 . S
C2260 H2236 0.950 . S
C2260 C2255 1.363 . S
C2260 C2259 1.415 . S
C2261 H2237 0.951 . S
C2261 C2262 1.366 . S
C2261 C2263 1.388 . S
C2262 C2261 1.366 . S
C2262 C2266 1.385 . S
C2263 H2238 0.951 . S
C2263 C2261 1.388 . S
C2263 C2264 1.366 . S
C2264 C2263 1.366 . S
C2264 C2265 1.414 . S
C2264 C2267 1.499 . S
C2265 H2239 0.950 . S
C2265 C2264 1.414 . S
C2265 C2266 1.374 . S
C2266 H2240 0.950 . S
C2266 C2262 1.385 . S
C2266 C2265 1.374 . S
C2267 C2264 1.499 . S
C2267 C2268 1.373 . S
C2267 C2269 1.389 . S
C2268 H2241 0.950 . S
C2268 C2254 1.377 . S
C2268 C2267 1.373 . S
C2269 C2253 1.377 . S
C2269 C2267 1.389 . S
C2269 C2270 1.524 . S
C2270 C2269 1.524 . S
C2270 C2271 1.397 . S
C2270 C2275 1.363 . S
C2271 H2242 0.950 . S
C2271 C2270 1.397 . S
C2271 C2272 1.334 . S
C2272 H2243 0.950 . S
C2272 C2271 1.334 . S
C2272 C2273 1.287 . S
C2273 C2272 1.287 . S
C2273 C2274 1.524 . S
C2273 H2276 0.999 . S
C2274 H2244 0.950 . S
C2274 C2273 1.524 . S
C2274 C2275 1.415 . S
C2275 H2245 0.950 . S
C2275 C2270 1.363 . S
C2275 C2274 1.415 . S
H2276 C2273 0.999 . S
H2277 C2258 0.913 . S
H2278 C2296 0.951 . S
H2279 C2298 0.951 . S
H2280 C2300 0.950 . S
H2281 C2301 0.950 . S
H2282 C2303 0.950 . S
H2283 C2306 0.950 . S
H2284 C2307 0.950 . S
H2285 C2309 0.950 . S
H2286 C2310 0.950 . S
H2287 C2311 0.951 . S
H2288 C2313 0.951 . S
H2289 C2315 0.950 . S
H2290 C2316 0.950 . S
H2291 C2318 0.950 . S
H2292 C2321 0.950 . S
H2293 C2322 0.950 . S
H2294 C2324 0.950 . S
H2295 C2325 0.950 . S
C2296 H2278 0.951 . S
C2296 C2297 1.366 . S
C2296 C2298 1.388 . S
C2297 C2296 1.366 . S
C2297 C2301 1.385 . S
C2298 H2279 0.951 . S
C2298 C2296 1.388 . S
C2298 C2299 1.366 . S
C2299 C2298 1.366 . S
C2299 C2300 1.414 . S
C2299 C2302 1.499 . S
C2300 H2280 0.950 . S
C2300 C2299 1.414 . S
C2300 C2301 1.374 . S
C2301 H2281 0.950 . S
C2301 C2297 1.385 . S
C2301 C2300 1.374 . S
C2302 C2299 1.499 . S
C2302 C2303 1.373 . S
C2302 C2304 1.389 . S
C2303 H2282 0.950 . S
C2303 C2302 1.373 . S
C2303 C2319 1.377 . S
C2304 C2302 1.389 . S
C2304 C2305 1.524 . S
C2304 C2318 1.377 . S
C2305 C2304 1.524 . S
C2305 C2306 1.397 . S
C2305 C2310 1.363 . S
C2306 H2283 0.950 . S
C2306 C2305 1.397 . S
C2306 C2307 1.334 . S
C2307 H2284 0.950 . S
C2307 C2306 1.334 . S
C2307 C2308 1.287 . S
C2308 C2307 1.287 . S
C2308 C2309 1.524 . S
C2308 H2327 0.913 . S
C2309 H2285 0.950 . S
C2309 C2308 1.524 . S
C2309 C2310 1.415 . S
C2310 H2286 0.950 . S
C2310 C2305 1.363 . S
C2310 C2309 1.415 . S
C2311 H2287 0.951 . S
C2311 C2312 1.366 . S
C2311 C2313 1.388 . S
C2312 C2311 1.366 . S
C2312 C2316 1.385 . S
C2313 H2288 0.951 . S
C2313 C2311 1.388 . S
C2313 C2314 1.366 . S
C2314 C2313 1.366 . S
C2314 C2315 1.414 . S
C2314 C2317 1.499 . S
C2315 H2289 0.950 . S
C2315 C2314 1.414 . S
C2315 C2316 1.374 . S
C2316 H2290 0.950 . S
C2316 C2312 1.385 . S
C2316 C2315 1.374 . S
C2317 C2314 1.499 . S
C2317 C2318 1.373 . S
C2317 C2319 1.389 . S
C2318 H2291 0.950 . S
C2318 C2304 1.377 . S
C2318 C2317 1.373 . S
C2319 C2303 1.377 . S
C2319 C2317 1.389 . S
C2319 C2320 1.524 . S
C2320 C2319 1.524 . S
C2320 C2321 1.397 . S
C2320 C2325 1.363 . S
C2321 H2292 0.950 . S
C2321 C2320 1.397 . S
C2321 C2322 1.334 . S
C2322 H2293 0.950 . S
C2322 C2321 1.334 . S
C2322 C2323 1.287 . S
C2323 C2322 1.287 . S
C2323 C2324 1.524 . S
C2323 H2326 0.999 . S
C2324 H2294 0.950 . S
C2324 C2323 1.524 . S
C2324 C2325 1.415 . S
C2325 H2295 0.950 . S
C2325 C2320 1.363 . S
C2325 C2324 1.415 . S
H2326 C2323 0.999 . S
H2327 C2308 0.913 . S
H2328 C2346 0.951 . S
H2329 C2348 0.951 . S
H2330 C2350 0.950 . S
H2331 C2351 0.950 . S
H2332 C2353 0.950 . S
H2333 C2356 0.950 . S
H2334 C2357 0.950 . S
H2335 C2359 0.950 . S
H2336 C2360 0.950 . S
H2337 C2361 0.951 . S
H2338 C2363 0.951 . S
H2339 C2365 0.950 . S
H2340 C2366 0.950 . S
H2341 C2368 0.950 . S
H2342 C2371 0.936 1_554 S
H2343 C2372 0.950 . S
H2344 C2374 0.950 . S
H2345 C2375 0.950 . S
C2346 H2328 0.951 . S
C2346 C2347 1.366 . S
C2346 C2348 1.388 . S
C2347 C2346 1.366 . S
C2347 C2351 1.385 . S
C2348 H2329 0.951 . S
C2348 C2346 1.388 . S
C2348 C2349 1.366 . S
C2349 C2348 1.366 . S
C2349 C2350 1.414 . S
C2349 C2352 1.499 . S
C2350 H2330 0.950 . S
C2350 C2349 1.414 . S
C2350 C2351 1.374 . S
C2351 H2331 0.950 . S
C2351 C2347 1.385 . S
C2351 C2350 1.374 . S
C2352 C2349 1.499 . S
C2352 C2353 1.373 . S
C2352 C2354 1.389 . S
C2353 H2332 0.950 . S
C2353 C2352 1.373 . S
C2353 C2369 1.377 . S
C2354 C2352 1.389 . S
C2354 C2355 1.524 . S
C2354 C2368 1.377 . S
C2355 C2354 1.524 . S
C2355 C2356 1.397 . S
C2355 C2360 1.363 . S
C2356 H2333 0.950 . S
C2356 C2355 1.397 . S
C2356 C2357 1.334 . S
C2357 H2334 0.950 . S
C2357 C2356 1.334 . S
C2357 C2358 1.287 . S
C2358 C2357 1.287 . S
C2358 C2359 1.524 . S
C2358 H2377 0.913 . S
C2359 H2335 0.950 . S
C2359 C2358 1.524 . S
C2359 C2360 1.415 . S
C2360 H2336 0.950 . S
C2360 C2355 1.363 . S
C2360 C2359 1.415 . S
C2361 H2337 0.951 . S
C2361 C2362 1.366 . S
C2361 C2363 1.388 . S
C2362 C2361 1.366 . S
C2362 C2366 1.385 . S
C2363 H2338 0.951 . S
C2363 C2361 1.388 . S
C2363 C2364 1.366 . S
C2364 C2363 1.366 . S
C2364 C2365 1.414 . S
C2364 C2367 1.499 . S
C2365 H2339 0.950 . S
C2365 C2364 1.414 . S
C2365 C2366 1.374 . S
C2366 H2340 0.950 . S
C2366 C2362 1.385 . S
C2366 C2365 1.374 . S
C2367 C2364 1.499 . S
C2367 C2368 1.373 . S
C2367 C2369 1.389 . S
C2368 H2341 0.950 . S
C2368 C2354 1.377 . S
C2368 C2367 1.373 . S
C2369 C2353 1.377 . S
C2369 C2367 1.389 . S
C2369 C2370 1.524 . S
C2370 C2369 1.524 . S
C2370 C2371 1.353 1_554 S
C2370 C2375 1.363 . S
C2371 H2342 0.936 1_556 S
C2371 C2370 1.353 1_556 S
C2371 C2372 1.397 . S
C2372 H2343 0.950 . S
C2372 C2371 1.397 . S
C2372 C2373 1.287 . S
C2373 C2372 1.287 . S
C2373 C2374 1.524 . S
C2373 H2376 0.999 . S
C2374 H2344 0.950 . S
C2374 C2373 1.524 . S
C2374 C2375 1.415 1_556 S
C2375 H2345 0.950 . S
C2375 C2370 1.363 . S
C2375 C2374 1.415 1_554 S
H2376 C2373 0.999 . S
H2377 C2358 0.913 . S
H2378 C2396 0.951 . S
H2379 C2398 0.951 . S
H2380 C2400 0.950 . S
H2381 C2401 0.950 . S
H2382 C2403 0.950 . S
H2383 C2406 0.950 . S
H2384 C2407 0.950 . S
H2385 C2409 0.950 . S
H2386 C2410 0.950 . S
H2387 C2411 0.951 . S
H2388 C2413 0.951 . S
H2389 C2415 0.950 . S
H2390 C2416 0.950 . S
H2391 C2418 0.950 . S
H2392 C2421 0.950 . S
H2393 C2422 0.950 . S
H2394 C2424 0.950 . S
H2395 C2425 0.950 . S
C2396 H2378 0.951 . S
C2396 C2397 1.366 . S
C2396 C2398 1.388 . S
C2397 C2396 1.366 . S
C2397 C2401 1.385 . S
C2398 H2379 0.951 . S
C2398 C2396 1.388 . S
C2398 C2399 1.366 . S
C2399 C2398 1.366 . S
C2399 C2400 1.414 . S
C2399 C2402 1.499 . S
C2400 H2380 0.950 . S
C2400 C2399 1.414 . S
C2400 C2401 1.374 . S
C2401 H2381 0.950 . S
C2401 C2397 1.385 . S
C2401 C2400 1.374 . S
C2402 C2399 1.499 . S
C2402 C2403 1.373 . S
C2402 C2404 1.389 . S
C2403 H2382 0.950 . S
C2403 C2402 1.373 . S
C2403 C2419 1.377 . S
C2404 C2402 1.389 . S
C2404 C2405 1.524 . S
C2404 C2418 1.377 . S
C2405 C2404 1.524 . S
C2405 C2406 1.397 . S
C2405 C2410 1.363 . S
C2406 H2383 0.950 . S
C2406 C2405 1.397 . S
C2406 C2407 1.334 . S
C2407 H2384 0.950 . S
C2407 C2406 1.334 . S
C2407 C2408 1.287 . S
C2408 C2407 1.287 . S
C2408 C2409 1.524 . S
C2408 H2427 0.913 . S
C2409 H2385 0.950 . S
C2409 C2408 1.524 . S
C2409 C2410 1.415 . S
C2410 H2386 0.950 . S
C2410 C2405 1.363 . S
C2410 C2409 1.415 . S
C2411 H2387 0.951 . S
C2411 C2412 1.366 . S
C2411 C2413 1.388 . S
C2412 C2411 1.366 . S
C2412 C2416 1.385 . S
C2413 H2388 0.951 . S
C2413 C2411 1.388 . S
C2413 C2414 1.366 . S
C2414 C2413 1.366 . S
C2414 C2415 1.414 . S
C2414 C2417 1.499 . S
C2415 H2389 0.950 . S
C2415 C2414 1.414 . S
C2415 C2416 1.374 . S
C2416 H2390 0.950 . S
C2416 C2412 1.385 . S
C2416 C2415 1.374 . S
C2417 C2414 1.499 . S
C2417 C2418 1.373 . S
C2417 C2419 1.389 . S
C2418 H2391 0.950 . S
C2418 C2404 1.377 . S
C2418 C2417 1.373 . S
C2419 C2403 1.377 . S
C2419 C2417 1.389 . S
C2419 C2420 1.524 . S
C2420 C2419 1.524 . S
C2420 C2421 1.397 . S
C2420 C2425 1.363 . S
C2421 H2392 0.950 . S
C2421 C2420 1.397 . S
C2421 C2422 1.334 . S
C2422 H2393 0.950 . S
C2422 C2421 1.334 . S
C2422 C2423 1.287 . S
C2423 C2422 1.287 . S
C2423 C2424 1.524 . S
C2423 H2426 0.999 . S
C2424 H2394 0.950 . S
C2424 C2423 1.524 . S
C2424 C2425 1.415 . S
C2425 H2395 0.950 . S
C2425 C2420 1.363 . S
C2425 C2424 1.415 . S
H2426 C2423 0.999 . S
H2427 C2408 0.913 . S
H2428 C2446 0.951 . S
H2429 C2448 0.951 . S
H2430 C2450 0.950 . S
H2431 C2451 0.950 . S
H2432 C2453 0.950 . S
H2433 C2456 0.950 . S
H2434 C2457 0.950 . S
H2435 C2459 0.950 . S
H2436 C2460 0.950 . S
H2437 C2461 0.951 . S
H2438 C2463 0.951 . S
H2439 C2465 0.950 . S
H2440 C2466 0.950 . S
H2441 C2468 0.950 . S
H2442 C2471 0.950 . S
H2443 C2472 0.950 . S
H2444 C2474 0.950 . S
H2445 C2475 0.950 . S
C2446 H2428 0.951 . S
C2446 C2447 1.366 . S
C2446 C2448 1.388 . S
C2447 C2446 1.366 . S
C2447 C2451 1.385 . S
C2448 H2429 0.951 . S
C2448 C2446 1.388 . S
C2448 C2449 1.366 . S
C2449 C2448 1.366 . S
C2449 C2450 1.414 . S
C2449 C2452 1.497 . S
C2450 H2430 0.950 . S
C2450 C2449 1.414 . S
C2450 C2451 1.374 . S
C2451 H2431 0.950 . S
C2451 C2447 1.385 . S
C2451 C2450 1.374 . S
C2452 C2449 1.497 . S
C2452 C2453 1.370 . S
C2452 C2454 1.394 1_655 S
C2453 H2432 0.950 . S
C2453 C2452 1.370 . S
C2453 C2469 1.377 . S
C2454 C2452 1.394 1_455 S
C2454 C2455 1.524 . S
C2454 C2468 1.377 . S
C2455 C2454 1.524 . S
C2455 C2456 1.397 . S
C2455 C2460 1.363 . S
C2456 H2433 0.950 . S
C2456 C2455 1.397 . S
C2456 C2457 1.334 . S
C2457 H2434 0.950 . S
C2457 C2456 1.334 . S
C2457 C2458 1.287 . S
C2458 C2457 1.287 . S
C2458 C2459 1.524 . S
C2458 H2477 0.913 . S
C2459 H2435 0.950 . S
C2459 C2458 1.524 . S
C2459 C2460 1.415 . S
C2460 H2436 0.950 . S
C2460 C2455 1.363 . S
C2460 C2459 1.415 . S
C2461 H2437 0.951 . S
C2461 C2462 1.366 . S
C2461 C2463 1.388 . S
C2462 C2461 1.366 . S
C2462 C2466 1.385 . S
C2463 H2438 0.951 . S
C2463 C2461 1.388 . S
C2463 C2464 1.366 . S
C2464 C2463 1.366 . S
C2464 C2465 1.414 . S
C2464 C2467 1.499 . S
C2465 H2439 0.950 . S
C2465 C2464 1.414 . S
C2465 C2466 1.374 . S
C2466 H2440 0.950 . S
C2466 C2462 1.385 . S
C2466 C2465 1.374 . S
C2467 C2464 1.499 . S
C2467 C2468 1.373 . S
C2467 C2469 1.389 1_455 S
C2468 H2441 0.950 . S
C2468 C2454 1.377 . S
C2468 C2467 1.373 . S
C2469 C2453 1.377 . S
C2469 C2467 1.389 1_655 S
C2469 C2470 1.524 . S
C2470 C2469 1.524 . S
C2470 C2471 1.397 . S
C2470 C2475 1.363 . S
C2471 H2442 0.950 . S
C2471 C2470 1.397 . S
C2471 C2472 1.334 . S
C2472 H2443 0.950 . S
C2472 C2471 1.334 . S
C2472 C2473 1.287 . S
C2473 C2472 1.287 . S
C2473 C2474 1.524 . S
C2473 H2476 0.999 . S
C2474 H2444 0.950 . S
C2474 C2473 1.524 . S
C2474 C2475 1.415 . S
C2475 H2445 0.950 . S
C2475 C2470 1.363 . S
C2475 C2474 1.415 . S
H2476 C2473 0.999 . S
H2477 C2458 0.913 . S
H2478 C2496 0.951 . S
H2479 C2498 0.951 . S
H2480 C2500 0.950 . S
H2481 C2501 0.950 . S
H2482 C2503 0.950 . S
H2483 C2506 0.950 . S
H2484 C2507 0.950 . S
H2485 C2509 0.950 . S
H2486 C2510 0.950 . S
H2487 C2511 0.951 . S
H2488 C2513 0.951 . S
H2489 C2515 0.950 . S
H2490 C2516 0.950 . S
H2491 C2518 0.950 . S
H2492 C2521 0.950 . S
H2493 C2522 0.950 . S
H2494 C2524 0.950 . S
H2495 C2525 0.950 . S
C2496 H2478 0.951 . S
C2496 C2497 1.366 . S
C2496 C2498 1.388 . S
C2497 C2496 1.366 . S
C2497 C2501 1.385 . S
C2498 H2479 0.951 . S
C2498 C2496 1.388 . S
C2498 C2499 1.366 . S
C2499 C2498 1.366 . S
C2499 C2500 1.414 . S
C2499 C2502 1.499 . S
C2500 H2480 0.950 . S
C2500 C2499 1.414 . S
C2500 C2501 1.374 . S
C2501 H2481 0.950 . S
C2501 C2497 1.385 . S
C2501 C2500 1.374 . S
C2502 C2499 1.499 . S
C2502 C2503 1.373 . S
C2502 C2504 1.389 . S
C2503 H2482 0.950 . S
C2503 C2502 1.373 . S
C2503 C2519 1.377 . S
C2504 C2502 1.389 . S
C2504 C2505 1.524 . S
C2504 C2518 1.377 . S
C2505 C2504 1.524 . S
C2505 C2506 1.397 . S
C2505 C2510 1.363 . S
C2506 H2483 0.950 . S
C2506 C2505 1.397 . S
C2506 C2507 1.334 . S
C2507 H2484 0.950 . S
C2507 C2506 1.334 . S
C2507 C2508 1.287 . S
C2508 C2507 1.287 . S
C2508 C2509 1.524 . S
C2508 H2527 0.913 . S
C2509 H2485 0.950 . S
C2509 C2508 1.524 . S
C2509 C2510 1.415 . S
C2510 H2486 0.950 . S
C2510 C2505 1.363 . S
C2510 C2509 1.415 . S
C2511 H2487 0.951 . S
C2511 C2512 1.366 . S
C2511 C2513 1.388 . S
C2512 C2511 1.366 . S
C2512 C2516 1.385 . S
C2513 H2488 0.951 . S
C2513 C2511 1.388 . S
C2513 C2514 1.366 . S
C2514 C2513 1.366 . S
C2514 C2515 1.414 . S
C2514 C2517 1.499 . S
C2515 H2489 0.950 . S
C2515 C2514 1.414 . S
C2515 C2516 1.374 . S
C2516 H2490 0.950 . S
C2516 C2512 1.385 . S
C2516 C2515 1.374 . S
C2517 C2514 1.499 . S
C2517 C2518 1.373 . S
C2517 C2519 1.389 . S
C2518 H2491 0.950 . S
C2518 C2504 1.377 . S
C2518 C2517 1.373 . S
C2519 C2503 1.377 . S
C2519 C2517 1.389 . S
C2519 C2520 1.524 . S
C2520 C2519 1.524 . S
C2520 C2521 1.397 . S
C2520 C2525 1.363 . S
C2521 H2492 0.950 . S
C2521 C2520 1.397 . S
C2521 C2522 1.334 . S
C2522 H2493 0.950 . S
C2522 C2521 1.334 . S
C2522 C2523 1.287 . S
C2523 C2522 1.287 . S
C2523 C2524 1.524 . S
C2523 H2526 0.999 . S
C2524 H2494 0.950 . S
C2524 C2523 1.524 . S
C2524 C2525 1.415 . S
C2525 H2495 0.950 . S
C2525 C2520 1.363 . S
C2525 C2524 1.415 . S
H2526 C2523 0.999 . S
H2527 C2508 0.913 . S
H2528 C2546 0.951 . S
H2529 C2548 0.951 . S
H2530 C2550 0.950 . S
H2531 C2551 0.950 . S
H2532 C2553 0.950 . S
H2533 C2556 0.950 . S
H2534 C2557 0.950 . S
H2535 C2559 0.950 . S
H2536 C2560 0.950 . S
H2537 C2561 0.951 . S
H2538 C2563 0.951 . S
H2539 C2565 0.950 . S
H2540 C2566 0.950 . S
H2541 C2568 0.950 . S
H2542 C2571 0.950 . S
H2543 C2572 0.950 . S
H2544 C2574 0.950 . S
H2545 C2575 0.950 . S
C2546 H2528 0.951 . S
C2546 C2547 1.366 . S
C2546 C2548 1.388 . S
C2547 C2546 1.366 . S
C2547 C2551 1.385 . S
C2548 H2529 0.951 . S
C2548 C2546 1.388 . S
C2548 C2549 1.366 . S
C2549 C2548 1.366 . S
C2549 C2550 1.414 . S
C2549 C2552 1.499 . S
C2550 H2530 0.950 . S
C2550 C2549 1.414 . S
C2550 C2551 1.374 . S
C2551 H2531 0.950 . S
C2551 C2547 1.385 . S
C2551 C2550 1.374 . S
C2552 C2549 1.499 . S
C2552 C2553 1.373 . S
C2552 C2554 1.389 . S
C2553 H2532 0.950 . S
C2553 C2552 1.373 . S
C2553 C2569 1.377 . S
C2554 C2552 1.389 . S
C2554 C2555 1.524 . S
C2554 C2568 1.377 . S
C2555 C2554 1.524 . S
C2555 C2556 1.397 . S
C2555 C2560 1.363 . S
C2556 H2533 0.950 . S
C2556 C2555 1.397 . S
C2556 C2557 1.334 . S
C2557 H2534 0.950 . S
C2557 C2556 1.334 . S
C2557 C2558 1.287 . S
C2558 C2557 1.287 . S
C2558 C2559 1.524 . S
C2558 H2577 0.913 . S
C2559 H2535 0.950 . S
C2559 C2558 1.524 . S
C2559 C2560 1.415 . S
C2560 H2536 0.950 . S
C2560 C2555 1.363 . S
C2560 C2559 1.415 . S
C2561 H2537 0.951 . S
C2561 C2562 1.366 . S
C2561 C2563 1.388 . S
C2562 C2561 1.366 . S
C2562 C2566 1.385 . S
C2563 H2538 0.951 . S
C2563 C2561 1.388 . S
C2563 C2564 1.366 . S
C2564 C2563 1.366 . S
C2564 C2565 1.414 . S
C2564 C2567 1.499 . S
C2565 H2539 0.950 . S
C2565 C2564 1.414 . S
C2565 C2566 1.374 . S
C2566 H2540 0.950 . S
C2566 C2562 1.385 . S
C2566 C2565 1.374 . S
C2567 C2564 1.499 . S
C2567 C2568 1.373 . S
C2567 C2569 1.389 . S
C2568 H2541 0.950 . S
C2568 C2554 1.377 . S
C2568 C2567 1.373 . S
C2569 C2553 1.377 . S
C2569 C2567 1.389 . S
C2569 C2570 1.524 . S
C2570 C2569 1.524 . S
C2570 C2571 1.397 . S
C2570 C2575 1.363 . S
C2571 H2542 0.950 . S
C2571 C2570 1.397 . S
C2571 C2572 1.334 . S
C2572 H2543 0.950 . S
C2572 C2571 1.334 . S
C2572 C2573 1.287 . S
C2573 C2572 1.287 . S
C2573 C2574 1.524 . S
C2573 H2576 0.999 . S
C2574 H2544 0.950 . S
C2574 C2573 1.524 . S
C2574 C2575 1.415 . S
C2575 H2545 0.950 . S
C2575 C2570 1.363 . S
C2575 C2574 1.415 . S
H2576 C2573 0.999 . S
H2577 C2558 0.913 . S
H2578 C2596 0.951 . S
H2579 C2598 0.951 . S
H2580 C2600 0.950 . S
H2581 C2601 0.950 . S
H2582 C2603 0.950 . S
H2583 C2606 0.950 . S
H2584 C2607 0.950 . S
H2585 C2609 0.950 . S
H2586 C2610 0.950 . S
H2587 C2611 0.951 . S
H2588 C2613 0.951 . S
H2589 C2615 0.950 . S
H2590 C2616 0.950 . S
H2591 C2618 0.950 . S
H2592 C2621 0.950 . S
H2593 C2622 0.950 . S
H2594 C2624 0.950 . S
H2595 C2625 0.950 . S
C2596 H2578 0.951 . S
C2596 C2597 1.366 . S
C2596 C2598 1.388 . S
C2597 C2596 1.366 . S
C2597 C2601 1.385 . S
C2598 H2579 0.951 . S
C2598 C2596 1.388 . S
C2598 C2599 1.366 . S
C2599 C2598 1.366 . S
C2599 C2600 1.414 . S
C2599 C2602 1.499 . S
C2600 H2580 0.950 . S
C2600 C2599 1.414 . S
C2600 C2601 1.374 . S
C2601 H2581 0.950 . S
C2601 C2597 1.385 . S
C2601 C2600 1.374 . S
C2602 C2599 1.499 . S
C2602 C2603 1.373 . S
C2602 C2604 1.389 . S
C2603 H2582 0.950 . S
C2603 C2602 1.373 . S
C2603 C2619 1.377 . S
C2604 C2602 1.389 . S
C2604 C2605 1.524 . S
C2604 C2618 1.377 . S
C2605 C2604 1.524 . S
C2605 C2606 1.397 . S
C2605 C2610 1.363 . S
C2606 H2583 0.950 . S
C2606 C2605 1.397 . S
C2606 C2607 1.334 . S
C2607 H2584 0.950 . S
C2607 C2606 1.334 . S
C2607 C2608 1.287 . S
C2608 C2607 1.287 . S
C2608 C2609 1.524 . S
C2608 H2627 0.913 . S
C2609 H2585 0.950 . S
C2609 C2608 1.524 . S
C2609 C2610 1.415 . S
C2610 H2586 0.950 . S
C2610 C2605 1.363 . S
C2610 C2609 1.415 . S
C2611 H2587 0.951 . S
C2611 C2612 1.366 . S
C2611 C2613 1.388 . S
C2612 C2611 1.366 . S
C2612 C2616 1.385 . S
C2613 H2588 0.951 . S
C2613 C2611 1.388 . S
C2613 C2614 1.366 . S
C2614 C2613 1.366 . S
C2614 C2615 1.414 . S
C2614 C2617 1.499 . S
C2615 H2589 0.950 . S
C2615 C2614 1.414 . S
C2615 C2616 1.374 . S
C2616 H2590 0.950 . S
C2616 C2612 1.385 . S
C2616 C2615 1.374 . S
C2617 C2614 1.499 . S
C2617 C2618 1.373 . S
C2617 C2619 1.389 . S
C2618 H2591 0.950 . S
C2618 C2604 1.377 . S
C2618 C2617 1.373 . S
C2619 C2603 1.377 . S
C2619 C2617 1.389 . S
C2619 C2620 1.524 . S
C2620 C2619 1.524 . S
C2620 C2621 1.397 . S
C2620 C2625 1.363 . S
C2621 H2592 0.950 . S
C2621 C2620 1.397 . S
C2621 C2622 1.334 . S
C2622 H2593 0.950 . S
C2622 C2621 1.334 . S
C2622 C2623 1.287 . S
C2623 C2622 1.287 . S
C2623 C2624 1.524 . S
C2623 H2626 0.999 . S
C2624 H2594 0.950 . S
C2624 C2623 1.524 . S
C2624 C2625 1.415 . S
C2625 H2595 0.950 . S
C2625 C2620 1.363 . S
C2625 C2624 1.415 . S
H2626 C2623 0.999 . S
H2627 C2608 0.913 . S
H2628 C2646 0.951 . S
H2629 C2648 0.951 . S
H2630 C2650 0.950 . S
H2631 C2651 0.950 . S
H2632 C2653 0.950 . S
H2633 C2656 0.950 . S
H2634 C2657 0.950 . S
H2635 C2659 0.950 . S
H2636 C2660 0.950 . S
H2637 C2661 0.951 . S
H2638 C2663 0.951 . S
H2639 C2665 0.950 . S
H2640 C2666 0.950 . S
H2641 C2668 0.950 . S
H2642 C2671 0.950 . S
H2643 C2672 0.950 . S
H2644 C2674 0.950 . S
H2645 C2675 0.950 . S
C2646 H2628 0.951 . S
C2646 C2647 1.366 . S
C2646 C2648 1.388 . S
C2647 C2646 1.366 . S
C2647 C2651 1.385 . S
C2648 H2629 0.951 . S
C2648 C2646 1.388 . S
C2648 C2649 1.366 . S
C2649 C2648 1.366 . S
C2649 C2650 1.414 . S
C2649 C2652 1.499 . S
C2650 H2630 0.950 . S
C2650 C2649 1.414 . S
C2650 C2651 1.374 . S
C2651 H2631 0.950 . S
C2651 C2647 1.385 . S
C2651 C2650 1.374 . S
C2652 C2649 1.499 . S
C2652 C2653 1.373 . S
C2652 C2654 1.389 . S
C2653 H2632 0.950 . S
C2653 C2652 1.373 . S
C2653 C2669 1.377 . S
C2654 C2652 1.389 . S
C2654 C2655 1.524 . S
C2654 C2668 1.377 . S
C2655 C2654 1.524 . S
C2655 C2656 1.397 . S
C2655 C2660 1.363 . S
C2656 H2633 0.950 . S
C2656 C2655 1.397 . S
C2656 C2657 1.334 . S
C2657 H2634 0.950 . S
C2657 C2656 1.334 . S
C2657 C2658 1.287 . S
C2658 C2657 1.287 . S
C2658 C2659 1.524 . S
C2658 H2677 0.913 . S
C2659 H2635 0.950 . S
C2659 C2658 1.524 . S
C2659 C2660 1.415 . S
C2660 H2636 0.950 . S
C2660 C2655 1.363 . S
C2660 C2659 1.415 . S
C2661 H2637 0.951 . S
C2661 C2662 1.366 . S
C2661 C2663 1.388 . S
C2662 C2661 1.366 . S
C2662 C2666 1.385 . S
C2663 H2638 0.951 . S
C2663 C2661 1.388 . S
C2663 C2664 1.366 . S
C2664 C2663 1.366 . S
C2664 C2665 1.414 . S
C2664 C2667 1.499 . S
C2665 H2639 0.950 . S
C2665 C2664 1.414 . S
C2665 C2666 1.374 . S
C2666 H2640 0.950 . S
C2666 C2662 1.385 . S
C2666 C2665 1.374 . S
C2667 C2664 1.499 . S
C2667 C2668 1.373 . S
C2667 C2669 1.389 . S
C2668 H2641 0.950 . S
C2668 C2654 1.377 . S
C2668 C2667 1.373 . S
C2669 C2653 1.377 . S
C2669 C2667 1.389 . S
C2669 C2670 1.524 . S
C2670 C2669 1.524 . S
C2670 C2671 1.397 . S
C2670 C2675 1.363 . S
C2671 H2642 0.950 . S
C2671 C2670 1.397 . S
C2671 C2672 1.334 . S
C2672 H2643 0.950 . S
C2672 C2671 1.334 . S
C2672 C2673 1.287 . S
C2673 C2672 1.287 . S
C2673 C2674 1.524 . S
C2673 H2676 0.999 . S
C2674 H2644 0.950 . S
C2674 C2673 1.524 . S
C2674 C2675 1.415 . S
C2675 H2645 0.950 . S
C2675 C2670 1.363 . S
C2675 C2674 1.415 . S
H2676 C2673 0.999 . S
H2677 C2658 0.913 . S
H2678 C2696 0.951 . S
H2679 C2698 0.951 . S
H2680 C2700 0.950 . S
H2681 C2701 0.950 . S
H2682 C2703 0.950 . S
H2683 C2706 0.950 . S
H2684 C2707 0.950 . S
H2685 C2709 0.950 . S
H2686 C2710 0.950 . S
H2687 C2711 0.951 . S
H2688 C2713 0.951 . S
H2689 C2715 0.950 . S
H2690 C2716 0.950 . S
H2691 C2718 0.950 . S
H2692 C2721 0.950 . S
H2693 C2722 0.950 . S
H2694 C2724 0.950 . S
H2695 C2725 0.950 . S
C2696 H2678 0.951 . S
C2696 C2697 1.366 . S
C2696 C2698 1.388 . S
C2697 C2696 1.366 . S
C2697 C2701 1.385 . S
C2698 H2679 0.951 . S
C2698 C2696 1.388 . S
C2698 C2699 1.366 . S
C2699 C2698 1.366 . S
C2699 C2700 1.414 . S
C2699 C2702 1.499 . S
C2700 H2680 0.950 . S
C2700 C2699 1.414 . S
C2700 C2701 1.374 . S
C2701 H2681 0.950 . S
C2701 C2697 1.385 . S
C2701 C2700 1.374 . S
C2702 C2699 1.499 . S
C2702 C2703 1.373 . S
C2702 C2704 1.389 . S
C2703 H2682 0.950 . S
C2703 C2702 1.373 . S
C2703 C2719 1.377 . S
C2704 C2702 1.389 . S
C2704 C2705 1.524 . S
C2704 C2718 1.377 . S
C2705 C2704 1.524 . S
C2705 C2706 1.397 . S
C2705 C2710 1.363 . S
C2706 H2683 0.950 . S
C2706 C2705 1.397 . S
C2706 C2707 1.334 . S
C2707 H2684 0.950 . S
C2707 C2706 1.334 . S
C2707 C2708 1.287 . S
C2708 C2707 1.287 . S
C2708 C2709 1.524 . S
C2708 H2727 0.913 . S
C2709 H2685 0.950 . S
C2709 C2708 1.524 . S
C2709 C2710 1.415 . S
C2710 H2686 0.950 . S
C2710 C2705 1.363 . S
C2710 C2709 1.415 . S
C2711 H2687 0.951 . S
C2711 C2712 1.366 . S
C2711 C2713 1.388 . S
C2712 C2711 1.366 . S
C2712 C2716 1.385 . S
C2713 H2688 0.951 . S
C2713 C2711 1.388 . S
C2713 C2714 1.366 . S
C2714 C2713 1.366 . S
C2714 C2715 1.414 . S
C2714 C2717 1.499 . S
C2715 H2689 0.950 . S
C2715 C2714 1.414 . S
C2715 C2716 1.374 . S
C2716 H2690 0.950 . S
C2716 C2712 1.385 . S
C2716 C2715 1.374 . S
C2717 C2714 1.499 . S
C2717 C2718 1.373 . S
C2717 C2719 1.389 . S
C2718 H2691 0.950 . S
C2718 C2704 1.377 . S
C2718 C2717 1.373 . S
C2719 C2703 1.377 . S
C2719 C2717 1.389 . S
C2719 C2720 1.524 . S
C2720 C2719 1.524 . S
C2720 C2721 1.397 . S
C2720 C2725 1.363 . S
C2721 H2692 0.950 . S
C2721 C2720 1.397 . S
C2721 C2722 1.334 . S
C2722 H2693 0.950 . S
C2722 C2721 1.334 . S
C2722 C2723 1.287 . S
C2723 C2722 1.287 . S
C2723 C2724 1.524 . S
C2723 H2726 0.999 . S
C2724 H2694 0.950 . S
C2724 C2723 1.524 . S
C2724 C2725 1.415 . S
C2725 H2695 0.950 . S
C2725 C2720 1.363 . S
C2725 C2724 1.415 . S
H2726 C2723 0.999 . S
H2727 C2708 0.913 . S
H2728 C2746 0.951 . S
H2729 C2748 0.951 . S
H2730 C2750 0.950 . S
H2731 C2751 0.950 . S
H2732 C2753 0.950 . S
H2733 C2756 0.950 . S
H2734 C2757 0.950 . S
H2735 C2759 0.950 . S
H2736 C2760 0.950 . S
H2737 C2761 0.951 . S
H2738 C2763 0.951 . S
H2739 C2765 0.950 . S
H2740 C2766 0.950 . S
H2741 C2768 0.950 . S
H2742 C2771 0.950 . S
H2743 C2772 0.950 . S
H2744 C2774 0.950 . S
H2745 C2775 0.950 . S
C2746 H2728 0.951 . S
C2746 C2747 1.366 . S
C2746 C2748 1.388 . S
C2747 C2746 1.366 . S
C2747 C2751 1.385 . S
C2748 H2729 0.951 . S
C2748 C2746 1.388 . S
C2748 C2749 1.366 . S
C2749 C2748 1.366 . S
C2749 C2750 1.414 . S
C2749 C2752 1.499 . S
C2750 H2730 0.950 . S
C2750 C2749 1.414 . S
C2750 C2751 1.374 . S
C2751 H2731 0.950 . S
C2751 C2747 1.385 . S
C2751 C2750 1.374 . S
C2752 C2749 1.499 . S
C2752 C2753 1.373 . S
C2752 C2754 1.389 . S
C2753 H2732 0.950 . S
C2753 C2752 1.373 . S
C2753 C2769 1.377 . S
C2754 C2752 1.389 . S
C2754 C2755 1.524 . S
C2754 C2768 1.377 . S
C2755 C2754 1.524 . S
C2755 C2756 1.397 . S
C2755 C2760 1.363 . S
C2756 H2733 0.950 . S
C2756 C2755 1.397 . S
C2756 C2757 1.334 . S
C2757 H2734 0.950 . S
C2757 C2756 1.334 . S
C2757 C2758 1.287 . S
C2758 C2757 1.287 . S
C2758 C2759 1.524 . S
C2758 H2777 0.913 . S
C2759 H2735 0.950 . S
C2759 C2758 1.524 . S
C2759 C2760 1.415 . S
C2760 H2736 0.950 . S
C2760 C2755 1.363 . S
C2760 C2759 1.415 . S
C2761 H2737 0.951 . S
C2761 C2762 1.366 . S
C2761 C2763 1.388 . S
C2762 C2761 1.366 . S
C2762 C2766 1.385 . S
C2763 H2738 0.951 . S
C2763 C2761 1.388 . S
C2763 C2764 1.366 . S
C2764 C2763 1.366 . S
C2764 C2765 1.414 . S
C2764 C2767 1.499 . S
C2765 H2739 0.950 . S
C2765 C2764 1.414 . S
C2765 C2766 1.374 . S
C2766 H2740 0.950 . S
C2766 C2762 1.385 . S
C2766 C2765 1.374 . S
C2767 C2764 1.499 . S
C2767 C2768 1.373 . S
C2767 C2769 1.389 . S
C2768 H2741 0.950 . S
C2768 C2754 1.377 . S
C2768 C2767 1.373 . S
C2769 C2753 1.377 . S
C2769 C2767 1.389 . S
C2769 C2770 1.524 . S
C2770 C2769 1.524 . S
C2770 C2771 1.397 . S
C2770 C2775 1.363 . S
C2771 H2742 0.950 . S
C2771 C2770 1.397 . S
C2771 C2772 1.334 . S
C2772 H2743 0.950 . S
C2772 C2771 1.334 . S
C2772 C2773 1.287 . S
C2773 C2772 1.287 . S
C2773 C2774 1.524 . S
C2773 H2776 0.999 . S
C2774 H2744 0.950 . S
C2774 C2773 1.524 . S
C2774 C2775 1.415 . S
C2775 H2745 0.950 . S
C2775 C2770 1.363 . S
C2775 C2774 1.415 . S
H2776 C2773 0.999 . S
H2777 C2758 0.913 . S
H2778 C2796 0.951 . S
H2779 C2798 0.951 . S
H2780 C2800 0.950 . S
H2781 C2801 0.950 . S
H2782 C2803 0.950 . S
H2783 C2806 0.950 . S
H2784 C2807 0.950 . S
H2785 C2809 0.950 . S
H2786 C2810 0.950 . S
H2787 C2811 0.951 . S
H2788 C2813 0.951 . S
H2789 C2815 0.950 . S
H2790 C2816 0.950 . S
H2791 C2818 0.950 . S
H2792 C2821 0.950 . S
H2793 C2822 0.950 . S
H2794 C2824 0.950 . S
H2795 C2825 0.950 . S
C2796 H2778 0.951 . S
C2796 C2797 1.366 . S
C2796 C2798 1.388 . S
C2797 C2796 1.366 . S
C2797 C2801 1.385 . S
C2798 H2779 0.951 . S
C2798 C2796 1.388 . S
C2798 C2799 1.366 . S
C2799 C2798 1.366 . S
C2799 C2800 1.414 . S
C2799 C2802 1.499 . S
C2800 H2780 0.950 . S
C2800 C2799 1.414 . S
C2800 C2801 1.374 . S
C2801 H2781 0.950 . S
C2801 C2797 1.385 . S
C2801 C2800 1.374 . S
C2802 C2799 1.499 . S
C2802 C2803 1.373 . S
C2802 C2804 1.389 . S
C2803 H2782 0.950 . S
C2803 C2802 1.373 . S
C2803 C2819 1.377 . S
C2804 C2802 1.389 . S
C2804 C2805 1.524 . S
C2804 C2818 1.377 . S
C2805 C2804 1.524 . S
C2805 C2806 1.397 . S
C2805 C2810 1.363 . S
C2806 H2783 0.950 . S
C2806 C2805 1.397 . S
C2806 C2807 1.334 . S
C2807 H2784 0.950 . S
C2807 C2806 1.334 . S
C2807 C2808 1.287 . S
C2808 C2807 1.287 . S
C2808 C2809 1.524 . S
C2808 H2827 0.913 . S
C2809 H2785 0.950 . S
C2809 C2808 1.524 . S
C2809 C2810 1.415 . S
C2810 H2786 0.950 . S
C2810 C2805 1.363 . S
C2810 C2809 1.415 . S
C2811 H2787 0.951 . S
C2811 C2812 1.366 . S
C2811 C2813 1.388 . S
C2812 C2811 1.366 . S
C2812 C2816 1.385 . S
C2813 H2788 0.951 . S
C2813 C2811 1.388 . S
C2813 C2814 1.366 . S
C2814 C2813 1.366 . S
C2814 C2815 1.414 . S
C2814 C2817 1.499 . S
C2815 H2789 0.950 . S
C2815 C2814 1.414 . S
C2815 C2816 1.374 . S
C2816 H2790 0.950 . S
C2816 C2812 1.385 . S
C2816 C2815 1.374 . S
C2817 C2814 1.499 . S
C2817 C2818 1.373 . S
C2817 C2819 1.389 . S
C2818 H2791 0.950 . S
C2818 C2804 1.377 . S
C2818 C2817 1.373 . S
C2819 C2803 1.377 . S
C2819 C2817 1.389 . S
C2819 C2820 1.524 . S
C2820 C2819 1.524 . S
C2820 C2821 1.397 . S
C2820 C2825 1.363 . S
C2821 H2792 0.950 . S
C2821 C2820 1.397 . S
C2821 C2822 1.334 . S
C2822 H2793 0.950 . S
C2822 C2821 1.334 . S
C2822 C2823 1.287 . S
C2823 C2822 1.287 . S
C2823 C2824 1.524 . S
C2823 H2826 0.999 . S
C2824 H2794 0.950 . S
C2824 C2823 1.524 . S
C2824 C2825 1.415 . S
C2825 H2795 0.950 . S
C2825 C2820 1.363 . S
C2825 C2824 1.415 . S
H2826 C2823 0.999 . S
H2827 C2808 0.913 . S
H2828 C2846 0.951 . S
H2829 C2848 0.951 . S
H2830 C2850 0.950 . S
H2831 C2851 0.950 . S
H2832 C2853 0.950 . S
H2833 C2856 0.950 . S
H2834 C2857 0.950 . S
H2835 C2859 0.950 . S
H2836 C2860 0.950 . S
H2837 C2861 0.951 . S
H2838 C2863 0.951 . S
H2839 C2865 0.950 . S
H2840 C2866 0.950 . S
H2841 C2868 0.950 . S
H2842 C2871 0.950 . S
H2843 C2872 0.950 . S
H2844 C2874 0.950 . S
H2845 C2875 0.950 . S
C2846 H2828 0.951 . S
C2846 C2847 1.366 . S
C2846 C2848 1.388 . S
C2847 C2846 1.366 . S
C2847 C2851 1.385 . S
C2848 H2829 0.951 . S
C2848 C2846 1.388 . S
C2848 C2849 1.366 . S
C2849 C2848 1.366 . S
C2849 C2850 1.414 . S
C2849 C2852 1.499 . S
C2850 H2830 0.950 . S
C2850 C2849 1.414 . S
C2850 C2851 1.374 . S
C2851 H2831 0.950 . S
C2851 C2847 1.385 . S
C2851 C2850 1.374 . S
C2852 C2849 1.499 . S
C2852 C2853 1.373 . S
C2852 C2854 1.389 . S
C2853 H2832 0.950 . S
C2853 C2852 1.373 . S
C2853 C2869 1.377 . S
C2854 C2852 1.389 . S
C2854 C2855 1.524 . S
C2854 C2868 1.377 . S
C2855 C2854 1.524 . S
C2855 C2856 1.397 . S
C2855 C2860 1.363 . S
C2856 H2833 0.950 . S
C2856 C2855 1.397 . S
C2856 C2857 1.334 . S
C2857 H2834 0.950 . S
C2857 C2856 1.334 . S
C2857 C2858 1.287 . S
C2858 C2857 1.287 . S
C2858 C2859 1.524 . S
C2858 H2877 0.913 . S
C2859 H2835 0.950 . S
C2859 C2858 1.524 . S
C2859 C2860 1.415 . S
C2860 H2836 0.950 . S
C2860 C2855 1.363 . S
C2860 C2859 1.415 . S
C2861 H2837 0.951 . S
C2861 C2862 1.366 . S
C2861 C2863 1.388 . S
C2862 C2861 1.366 . S
C2862 C2866 1.385 . S
C2863 H2838 0.951 . S
C2863 C2861 1.388 . S
C2863 C2864 1.366 . S
C2864 C2863 1.366 . S
C2864 C2865 1.414 . S
C2864 C2867 1.499 . S
C2865 H2839 0.950 . S
C2865 C2864 1.414 . S
C2865 C2866 1.374 . S
C2866 H2840 0.950 . S
C2866 C2862 1.385 . S
C2866 C2865 1.374 . S
C2867 C2864 1.499 . S
C2867 C2868 1.373 . S
C2867 C2869 1.389 . S
C2868 H2841 0.950 . S
C2868 C2854 1.377 . S
C2868 C2867 1.373 . S
C2869 C2853 1.377 . S
C2869 C2867 1.389 . S
C2869 C2870 1.524 . S
C2870 C2869 1.524 . S
C2870 C2871 1.397 . S
C2870 C2875 1.363 . S
C2871 H2842 0.950 . S
C2871 C2870 1.397 . S
C2871 C2872 1.334 . S
C2872 H2843 0.950 . S
C2872 C2871 1.334 . S
C2872 C2873 1.287 . S
C2873 C2872 1.287 . S
C2873 C2874 1.524 . S
C2873 H2876 0.999 . S
C2874 H2844 0.950 . S
C2874 C2873 1.524 . S
C2874 C2875 1.415 . S
C2875 H2845 0.950 . S
C2875 C2870 1.363 . S
C2875 C2874 1.415 . S
H2876 C2873 0.999 . S
H2877 C2858 0.913 . S
H2878 C2896 0.951 . S
H2879 C2898 0.951 . S
H2880 C2900 0.950 . S
H2881 C2901 0.950 . S
H2882 C2903 0.950 . S
H2883 C2906 0.950 . S
H2884 C2907 0.950 . S
H2885 C2909 0.950 . S
H2886 C2910 0.950 . S
H2887 C2911 0.951 . S
H2888 C2913 0.951 . S
H2889 C2915 0.950 . S
H2890 C2916 0.950 . S
H2891 C2918 0.950 . S
H2892 C2921 0.950 . S
H2893 C2922 0.950 . S
H2894 C2924 0.950 . S
H2895 C2925 0.950 . S
C2896 H2878 0.951 . S
C2896 C2897 1.366 . S
C2896 C2898 1.388 . S
C2897 C2896 1.366 . S
C2897 C2901 1.385 . S
C2898 H2879 0.951 . S
C2898 C2896 1.388 . S
C2898 C2899 1.366 . S
C2899 C2898 1.366 . S
C2899 C2900 1.414 . S
C2899 C2902 1.499 . S
C2900 H2880 0.950 . S
C2900 C2899 1.414 . S
C2900 C2901 1.374 . S
C2901 H2881 0.950 . S
C2901 C2897 1.385 . S
C2901 C2900 1.374 . S
C2902 C2899 1.499 . S
C2902 C2903 1.373 . S
C2902 C2904 1.389 . S
C2903 H2882 0.950 . S
C2903 C2902 1.373 . S
C2903 C2919 1.377 . S
C2904 C2902 1.389 . S
C2904 C2905 1.524 . S
C2904 C2918 1.377 . S
C2905 C2904 1.524 . S
C2905 C2906 1.397 . S
C2905 C2910 1.363 . S
C2906 H2883 0.950 . S
C2906 C2905 1.397 . S
C2906 C2907 1.334 . S
C2907 H2884 0.950 . S
C2907 C2906 1.334 . S
C2907 C2908 1.287 . S
C2908 C2907 1.287 . S
C2908 C2909 1.524 . S
C2908 H2927 0.913 . S
C2909 H2885 0.950 . S
C2909 C2908 1.524 . S
C2909 C2910 1.415 . S
C2910 H2886 0.950 . S
C2910 C2905 1.363 . S
C2910 C2909 1.415 . S
C2911 H2887 0.951 . S
C2911 C2912 1.366 . S
C2911 C2913 1.388 . S
C2912 C2911 1.366 . S
C2912 C2916 1.385 . S
C2913 H2888 0.951 . S
C2913 C2911 1.388 . S
C2913 C2914 1.366 . S
C2914 C2913 1.366 . S
C2914 C2915 1.414 . S
C2914 C2917 1.499 . S
C2915 H2889 0.950 . S
C2915 C2914 1.414 . S
C2915 C2916 1.374 . S
C2916 H2890 0.950 . S
C2916 C2912 1.385 . S
C2916 C2915 1.374 . S
C2917 C2914 1.499 . S
C2917 C2918 1.373 . S
C2917 C2919 1.389 . S
C2918 H2891 0.950 . S
C2918 C2904 1.377 . S
C2918 C2917 1.373 . S
C2919 C2903 1.377 . S
C2919 C2917 1.389 . S
C2919 C2920 1.524 . S
C2920 C2919 1.524 . S
C2920 C2921 1.397 . S
C2920 C2925 1.363 . S
C2921 H2892 0.950 . S
C2921 C2920 1.397 . S
C2921 C2922 1.334 . S
C2922 H2893 0.950 . S
C2922 C2921 1.334 . S
C2922 C2923 1.287 . S
C2923 C2922 1.287 . S
C2923 C2924 1.524 . S
C2923 H2926 0.999 . S
C2924 H2894 0.950 . S
C2924 C2923 1.524 . S
C2924 C2925 1.415 . S
C2925 H2895 0.950 . S
C2925 C2920 1.363 . S
C2925 C2924 1.415 . S
H2926 C2923 0.999 . S
H2927 C2908 0.913 . S
H2928 C2946 0.951 . S
H2929 C2948 0.951 . S
H2930 C2950 0.950 . S
H2931 C2951 0.950 . S
H2932 C2953 0.950 . S
H2933 C2956 0.950 . S
H2934 C2957 0.950 . S
H2935 C2959 0.950 . S
H2936 C2960 0.950 . S
H2937 C2961 0.951 . S
H2938 C2963 0.951 . S
H2939 C2965 0.950 . S
H2940 C2966 0.950 . S
H2941 C2968 0.950 . S
H2942 C2971 0.950 . S
H2943 C2972 0.950 . S
H2944 C2974 0.950 . S
H2945 C2975 0.950 . S
C2946 H2928 0.951 . S
C2946 C2947 1.366 . S
C2946 C2948 1.388 . S
C2947 C2946 1.366 . S
C2947 C2951 1.385 . S
C2948 H2929 0.951 . S
C2948 C2946 1.388 . S
C2948 C2949 1.366 . S
C2949 C2948 1.366 . S
C2949 C2950 1.414 . S
C2949 C2952 1.499 . S
C2950 H2930 0.950 . S
C2950 C2949 1.414 . S
C2950 C2951 1.374 . S
C2951 H2931 0.950 . S
C2951 C2947 1.385 . S
C2951 C2950 1.374 . S
C2952 C2949 1.499 . S
C2952 C2953 1.373 . S
C2952 C2954 1.389 . S
C2953 H2932 0.950 . S
C2953 C2952 1.373 . S
C2953 C2969 1.377 . S
C2954 C2952 1.389 . S
C2954 C2955 1.524 . S
C2954 C2968 1.377 . S
C2955 C2954 1.524 . S
C2955 C2956 1.397 . S
C2955 C2960 1.363 . S
C2956 H2933 0.950 . S
C2956 C2955 1.397 . S
C2956 C2957 1.334 . S
C2957 H2934 0.950 . S
C2957 C2956 1.334 . S
C2957 C2958 1.287 . S
C2958 C2957 1.287 . S
C2958 C2959 1.524 . S
C2958 H2977 0.913 . S
C2959 H2935 0.950 . S
C2959 C2958 1.524 . S
C2959 C2960 1.415 . S
C2960 H2936 0.950 . S
C2960 C2955 1.363 . S
C2960 C2959 1.415 . S
C2961 H2937 0.951 . S
C2961 C2962 1.366 . S
C2961 C2963 1.388 . S
C2962 C2961 1.366 . S
C2962 C2966 1.385 . S
C2963 H2938 0.951 . S
C2963 C2961 1.388 . S
C2963 C2964 1.366 . S
C2964 C2963 1.366 . S
C2964 C2965 1.414 . S
C2964 C2967 1.499 . S
C2965 H2939 0.950 . S
C2965 C2964 1.414 . S
C2965 C2966 1.374 . S
C2966 H2940 0.950 . S
C2966 C2962 1.385 . S
C2966 C2965 1.374 . S
C2967 C2964 1.499 . S
C2967 C2968 1.373 . S
C2967 C2969 1.389 . S
C2968 H2941 0.950 . S
C2968 C2954 1.377 . S
C2968 C2967 1.373 . S
C2969 C2953 1.377 . S
C2969 C2967 1.389 . S
C2969 C2970 1.524 . S
C2970 C2969 1.524 . S
C2970 C2971 1.397 . S
C2970 C2975 1.363 . S
C2971 H2942 0.950 . S
C2971 C2970 1.397 . S
C2971 C2972 1.334 . S
C2972 H2943 0.950 . S
C2972 C2971 1.334 . S
C2972 C2973 1.287 . S
C2973 C2972 1.287 . S
C2973 C2974 1.524 . S
C2973 H2976 0.999 . S
C2974 H2944 0.950 . S
C2974 C2973 1.524 . S
C2974 C2975 1.415 . S
C2975 H2945 0.950 . S
C2975 C2970 1.363 . S
C2975 C2974 1.415 . S
H2976 C2973 0.999 . S
H2977 C2958 0.913 . S
H2978 C2996 0.951 . S
H2979 C2998 0.951 . S
H2980 C3000 0.950 . S
H2981 C3001 0.950 . S
H2982 C3003 0.950 . S
H2983 C3006 0.950 . S
H2984 C3007 0.950 . S
H2985 C3009 0.950 . S
H2986 C3010 0.950 . S
H2987 C3011 0.951 . S
H2988 C3013 0.925 1_655 S
H2989 C3015 0.950 . S
H2990 C3016 0.950 . S
H2991 C3018 0.950 . S
H2992 C3021 0.950 . S
H2993 C3022 0.950 . S
H2994 C3024 0.950 . S
H2995 C3025 0.950 . S
C2996 H2978 0.951 . S
C2996 C2997 1.366 . S
C2996 C2998 1.388 . S
C2997 C2996 1.366 . S
C2997 C3001 1.385 . S
C2998 H2979 0.951 . S
C2998 C2996 1.388 . S
C2998 C2999 1.366 . S
C2999 C2998 1.366 . S
C2999 C3000 1.414 . S
C2999 C3002 1.499 . S
C3000 H2980 0.950 . S
C3000 C2999 1.414 . S
C3000 C3001 1.374 . S
C3001 H2981 0.950 . S
C3001 C2997 1.385 . S
C3001 C3000 1.374 . S
C3002 C2999 1.499 . S
C3002 C3003 1.373 . S
C3002 C3004 1.389 . S
C3003 H2982 0.950 . S
C3003 C3002 1.373 . S
C3003 C3019 1.377 . S
C3004 C3002 1.389 . S
C3004 C3005 1.524 . S
C3004 C3018 1.377 . S
C3005 C3004 1.524 . S
C3005 C3006 1.397 . S
C3005 C3010 1.363 . S
C3006 H2983 0.950 . S
C3006 C3005 1.397 . S
C3006 C3007 1.334 . S
C3007 H2984 0.950 . S
C3007 C3006 1.334 . S
C3007 C3008 1.287 . S
C3008 C3007 1.287 . S
C3008 C3009 1.524 . S
C3008 H3027 0.913 . S
C3009 H2985 0.950 . S
C3009 C3008 1.524 . S
C3009 C3010 1.415 . S
C3010 H2986 0.950 . S
C3010 C3005 1.363 . S
C3010 C3009 1.415 . S
C3011 H2987 0.951 . S
C3011 C3012 1.366 . S
C3011 C3013 1.388 1_655 S
C3012 C3011 1.366 . S
C3012 C3016 1.385 1_655 S
C3013 H2988 0.925 1_455 S
C3013 C3011 1.388 1_455 S
C3013 C3014 1.366 . S
C3014 C3013 1.366 . S
C3014 C3015 1.414 . S
C3014 C3017 1.499 . S
C3015 H2989 0.950 . S
C3015 C3014 1.414 . S
C3015 C3016 1.374 . S
C3016 H2990 0.950 . S
C3016 C3012 1.385 1_455 S
C3016 C3015 1.374 . S
C3017 C3014 1.499 . S
C3017 C3018 1.373 . S
C3017 C3019 1.389 . S
C3018 H2991 0.950 . S
C3018 C3004 1.377 . S
C3018 C3017 1.373 . S
C3019 C3003 1.377 . S
C3019 C3017 1.389 . S
C3019 C3020 1.524 . S
C3020 C3019 1.524 . S
C3020 C3021 1.397 . S
C3020 C3025 1.363 . S
C3021 H2992 0.950 . S
C3021 C3020 1.397 . S
C3021 C3022 1.334 . S
C3022 H2993 0.950 . S
C3022 C3021 1.334 . S
C3022 C3023 1.287 1_455 S
C3023 C3022 1.287 1_655 S
C3023 C3024 1.524 . S
C3023 H3026 0.999 . S
C3024 H2994 0.950 . S
C3024 C3023 1.524 . S
C3024 C3025 1.415 1_655 S
C3025 H2995 0.950 . S
C3025 C3020 1.363 . S
C3025 C3024 1.415 1_455 S
H3026 C3023 0.999 . S
H3027 C3008 0.913 . S
H3028 C3046 0.951 . S
H3029 C3048 0.951 . S
H3030 C3050 0.950 . S
H3031 C3051 0.950 . S
H3032 C3053 0.950 . S
H3033 C3056 0.950 . S
H3034 C3057 0.950 . S
H3035 C3059 0.950 . S
H3036 C3060 0.950 . S
H3037 C3061 0.951 . S
H3038 C3063 0.951 . S
H3039 C3065 0.950 . S
H3040 C3066 0.950 . S
H3041 C3068 0.950 . S
H3042 C3071 0.950 . S
H3043 C3072 0.950 . S
H3044 C3074 0.950 . S
H3045 C3075 0.950 . S
C3046 H3028 0.951 . S
C3046 C3047 1.366 . S
C3046 C3048 1.388 . S
C3047 C3046 1.366 . S
C3047 C3051 1.385 . S
C3048 H3029 0.951 . S
C3048 C3046 1.388 . S
C3048 C3049 1.366 . S
C3049 C3048 1.366 . S
C3049 C3050 1.414 . S
C3049 C3052 1.499 . S
C3050 H3030 0.950 . S
C3050 C3049 1.414 . S
C3050 C3051 1.374 . S
C3051 H3031 0.950 . S
C3051 C3047 1.385 . S
C3051 C3050 1.374 . S
C3052 C3049 1.499 . S
C3052 C3053 1.373 . S
C3052 C3054 1.389 . S
C3053 H3032 0.950 . S
C3053 C3052 1.373 . S
C3053 C3069 1.377 . S
C3054 C3052 1.389 . S
C3054 C3055 1.524 . S
C3054 C3068 1.377 . S
C3055 C3054 1.524 . S
C3055 C3056 1.397 . S
C3055 C3060 1.363 . S
C3056 H3033 0.950 . S
C3056 C3055 1.397 . S
C3056 C3057 1.334 . S
C3057 H3034 0.950 . S
C3057 C3056 1.334 . S
C3057 C3058 1.287 . S
C3058 C3057 1.287 . S
C3058 C3059 1.524 . S
C3058 H3077 0.913 . S
C3059 H3035 0.950 . S
C3059 C3058 1.524 . S
C3059 C3060 1.415 . S
C3060 H3036 0.950 . S
C3060 C3055 1.363 . S
C3060 C3059 1.415 . S
C3061 H3037 0.951 . S
C3061 C3062 1.366 . S
C3061 C3063 1.388 . S
C3062 C3061 1.366 . S
C3062 C3066 1.385 . S
C3063 H3038 0.951 . S
C3063 C3061 1.388 . S
C3063 C3064 1.366 . S
C3064 C3063 1.366 . S
C3064 C3065 1.414 . S
C3064 C3067 1.499 . S
C3065 H3039 0.950 . S
C3065 C3064 1.414 . S
C3065 C3066 1.374 . S
C3066 H3040 0.950 . S
C3066 C3062 1.385 . S
C3066 C3065 1.374 . S
C3067 C3064 1.499 . S
C3067 C3068 1.373 . S
C3067 C3069 1.389 . S
C3068 H3041 0.950 . S
C3068 C3054 1.377 . S
C3068 C3067 1.373 . S
C3069 C3053 1.377 . S
C3069 C3067 1.389 . S
C3069 C3070 1.524 . S
C3070 C3069 1.524 . S
C3070 C3071 1.397 . S
C3070 C3075 1.363 . S
C3071 H3042 0.950 . S
C3071 C3070 1.397 . S
C3071 C3072 1.334 . S
C3072 H3043 0.950 . S
C3072 C3071 1.334 . S
C3072 C3073 1.287 . S
C3073 C3072 1.287 . S
C3073 C3074 1.524 . S
C3073 H3076 0.999 . S
C3074 H3044 0.950 . S
C3074 C3073 1.524 . S
C3074 C3075 1.415 . S
C3075 H3045 0.950 . S
C3075 C3070 1.363 . S
C3075 C3074 1.415 . S
H3076 C3073 0.999 . S
H3077 C3058 0.913 . S
H3078 C3096 0.951 . S
H3079 C3098 0.951 . S
H3080 C3100 0.950 . S
H3081 C3101 0.950 . S
H3082 C3103 0.950 . S
H3083 C3106 0.950 . S
H3084 C3107 0.950 . S
H3085 C3109 0.950 . S
H3086 C3110 0.950 . S
H3087 C3111 0.951 . S
H3088 C3113 0.951 . S
H3089 C3115 0.950 . S
H3090 C3116 0.950 . S
H3091 C3118 0.950 . S
H3092 C3121 0.950 . S
H3093 C3122 0.950 . S
H3094 C3124 0.950 . S
H3095 C3125 0.950 . S
C3096 H3078 0.951 . S
C3096 C3097 1.366 . S
C3096 C3098 1.388 . S
C3097 C3096 1.366 . S
C3097 C3101 1.385 . S
C3098 H3079 0.951 . S
C3098 C3096 1.388 . S
C3098 C3099 1.366 . S
C3099 C3098 1.366 . S
C3099 C3100 1.414 . S
C3099 C3102 1.499 . S
C3100 H3080 0.950 . S
C3100 C3099 1.414 . S
C3100 C3101 1.374 . S
C3101 H3081 0.950 . S
C3101 C3097 1.385 . S
C3101 C3100 1.374 . S
C3102 C3099 1.499 . S
C3102 C3103 1.373 . S
C3102 C3104 1.389 . S
C3103 H3082 0.950 . S
C3103 C3102 1.373 . S
C3103 C3119 1.377 . S
C3104 C3102 1.389 . S
C3104 C3105 1.524 . S
C3104 C3118 1.377 . S
C3105 C3104 1.524 . S
C3105 C3106 1.397 . S
C3105 C3110 1.363 . S
C3106 H3083 0.950 . S
C3106 C3105 1.397 . S
C3106 C3107 1.334 . S
C3107 H3084 0.950 . S
C3107 C3106 1.334 . S
C3107 C3108 1.287 . S
C3108 C3107 1.287 . S
C3108 C3109 1.524 . S
C3108 H3127 0.913 . S
C3109 H3085 0.950 . S
C3109 C3108 1.524 . S
C3109 C3110 1.415 . S
C3110 H3086 0.950 . S
C3110 C3105 1.363 . S
C3110 C3109 1.415 . S
C3111 H3087 0.951 . S
C3111 C3112 1.366 . S
C3111 C3113 1.388 . S
C3112 C3111 1.366 . S
C3112 C3116 1.385 . S
C3113 H3088 0.951 . S
C3113 C3111 1.388 . S
C3113 C3114 1.366 . S
C3114 C3113 1.366 . S
C3114 C3115 1.414 . S
C3114 C3117 1.499 . S
C3115 H3089 0.950 . S
C3115 C3114 1.414 . S
C3115 C3116 1.374 . S
C3116 H3090 0.950 . S
C3116 C3112 1.385 . S
C3116 C3115 1.374 . S
C3117 C3114 1.499 . S
C3117 C3118 1.373 . S
C3117 C3119 1.389 . S
C3118 H3091 0.950 . S
C3118 C3104 1.377 . S
C3118 C3117 1.373 . S
C3119 C3103 1.377 . S
C3119 C3117 1.389 . S
C3119 C3120 1.524 . S
C3120 C3119 1.524 . S
C3120 C3121 1.397 . S
C3120 C3125 1.363 . S
C3121 H3092 0.950 . S
C3121 C3120 1.397 . S
C3121 C3122 1.334 . S
C3122 H3093 0.950 . S
C3122 C3121 1.334 . S
C3122 C3123 1.287 . S
C3123 C3122 1.287 . S
C3123 C3124 1.524 . S
C3123 H3126 0.999 . S
C3124 H3094 0.950 . S
C3124 C3123 1.524 . S
C3124 C3125 1.415 . S
C3125 H3095 0.950 . S
C3125 C3120 1.363 . S
C3125 C3124 1.415 . S
H3126 C3123 0.999 . S
H3127 C3108 0.913 . S
H3128 C3146 0.951 . S
H3129 C3148 0.951 . S
H3130 C3150 0.950 . S
H3131 C3151 0.950 . S
H3132 C3153 0.950 . S
H3133 C3156 0.950 . S
H3134 C3157 0.950 . S
H3135 C3159 0.950 . S
H3136 C3160 0.950 . S
H3137 C3161 0.951 . S
H3138 C3163 0.951 . S
H3139 C3165 0.950 . S
H3140 C3166 0.950 . S
H3141 C3168 0.950 . S
H3142 C3171 0.950 . S
H3143 C3172 0.950 . S
H3144 C3174 0.950 . S
H3145 C3175 0.950 . S
C3146 H3128 0.951 . S
C3146 C3147 1.366 . S
C3146 C3148 1.388 . S
C3147 C3146 1.366 . S
C3147 C3151 1.385 . S
C3148 H3129 0.951 . S
C3148 C3146 1.388 . S
C3148 C3149 1.366 . S
C3149 C3148 1.366 . S
C3149 C3150 1.414 . S
C3149 C3152 1.499 . S
C3150 H3130 0.950 . S
C3150 C3149 1.414 . S
C3150 C3151 1.374 . S
C3151 H3131 0.950 . S
C3151 C3147 1.385 . S
C3151 C3150 1.374 . S
C3152 C3149 1.499 . S
C3152 C3153 1.373 . S
C3152 C3154 1.389 . S
C3153 H3132 0.950 . S
C3153 C3152 1.373 . S
C3153 C3169 1.377 . S
C3154 C3152 1.389 . S
C3154 C3155 1.524 . S
C3154 C3168 1.377 . S
C3155 C3154 1.524 . S
C3155 C3156 1.397 . S
C3155 C3160 1.363 . S
C3156 H3133 0.950 . S
C3156 C3155 1.397 . S
C3156 C3157 1.334 . S
C3157 H3134 0.950 . S
C3157 C3156 1.334 . S
C3157 C3158 1.287 . S
C3158 C3157 1.287 . S
C3158 C3159 1.524 . S
C3158 H3177 0.913 . S
C3159 H3135 0.950 . S
C3159 C3158 1.524 . S
C3159 C3160 1.415 . S
C3160 H3136 0.950 . S
C3160 C3155 1.363 . S
C3160 C3159 1.415 . S
C3161 H3137 0.951 . S
C3161 C3162 1.366 . S
C3161 C3163 1.388 . S
C3162 C3161 1.366 . S
C3162 C3166 1.385 . S
C3163 H3138 0.951 . S
C3163 C3161 1.388 . S
C3163 C3164 1.366 . S
C3164 C3163 1.366 . S
C3164 C3165 1.414 . S
C3164 C3167 1.499 . S
C3165 H3139 0.950 . S
C3165 C3164 1.414 . S
C3165 C3166 1.374 . S
C3166 H3140 0.950 . S
C3166 C3162 1.385 . S
C3166 C3165 1.374 . S
C3167 C3164 1.499 . S
C3167 C3168 1.373 . S
C3167 C3169 1.389 . S
C3168 H3141 0.950 . S
C3168 C3154 1.377 . S
C3168 C3167 1.373 . S
C3169 C3153 1.377 . S
C3169 C3167 1.389 . S
C3169 C3170 1.524 . S
C3170 C3169 1.524 . S
C3170 C3171 1.397 . S
C3170 C3175 1.363 . S
C3171 H3142 0.950 . S
C3171 C3170 1.397 . S
C3171 C3172 1.334 . S
C3172 H3143 0.950 . S
C3172 C3171 1.334 . S
C3172 C3173 1.287 . S
C3173 C3172 1.287 . S
C3173 C3174 1.524 . S
C3173 H3176 0.999 . S
C3174 H3144 0.950 . S
C3174 C3173 1.524 . S
C3174 C3175 1.415 . S
C3175 H3145 0.950 . S
C3175 C3170 1.363 . S
C3175 C3174 1.415 . S
H3176 C3173 0.999 . S
H3177 C3158 0.913 . S
H3178 C3196 0.951 . S
H3179 C3198 0.951 . S
H3180 C3200 0.950 . S
H3181 C3201 0.950 . S
H3182 C3203 0.950 . S
H3183 C3206 0.950 . S
H3184 C3207 0.950 . S
H3185 C3209 0.950 . S
H3186 C3210 0.950 . S
H3187 C3211 0.951 . S
H3188 C3213 0.951 . S
H3189 C3215 0.950 . S
H3190 C3216 0.950 . S
H3191 C3218 0.950 . S
H3192 C3221 0.950 . S
H3193 C3222 0.950 . S
H3194 C3224 0.950 . S
H3195 C3225 0.950 . S
C3196 H3178 0.951 . S
C3196 C3197 1.366 . S
C3196 C3198 1.388 . S
C3197 C3196 1.366 . S
C3197 C3201 1.385 . S
C3198 H3179 0.951 . S
C3198 C3196 1.388 . S
C3198 C3199 1.366 . S
C3199 C3198 1.366 . S
C3199 C3200 1.414 . S
C3199 C3202 1.499 . S
C3200 H3180 0.950 . S
C3200 C3199 1.414 . S
C3200 C3201 1.374 . S
C3201 H3181 0.950 . S
C3201 C3197 1.385 . S
C3201 C3200 1.374 . S
C3202 C3199 1.499 . S
C3202 C3203 1.373 . S
C3202 C3204 1.389 . S
C3203 H3182 0.950 . S
C3203 C3202 1.373 . S
C3203 C3219 1.377 . S
C3204 C3202 1.389 . S
C3204 C3205 1.524 . S
C3204 C3218 1.377 . S
C3205 C3204 1.524 . S
C3205 C3206 1.397 . S
C3205 C3210 1.363 . S
C3206 H3183 0.950 . S
C3206 C3205 1.397 . S
C3206 C3207 1.334 . S
C3207 H3184 0.950 . S
C3207 C3206 1.334 . S
C3207 C3208 1.287 . S
C3208 C3207 1.287 . S
C3208 C3209 1.524 . S
C3208 H3227 0.913 . S
C3209 H3185 0.950 . S
C3209 C3208 1.524 . S
C3209 C3210 1.415 . S
C3210 H3186 0.950 . S
C3210 C3205 1.363 . S
C3210 C3209 1.415 . S
C3211 H3187 0.951 . S
C3211 C3212 1.366 . S
C3211 C3213 1.388 . S
C3212 C3211 1.366 . S
C3212 C3216 1.385 . S
C3213 H3188 0.951 . S
C3213 C3211 1.388 . S
C3213 C3214 1.366 . S
C3214 C3213 1.366 . S
C3214 C3215 1.414 . S
C3214 C3217 1.499 . S
C3215 H3189 0.950 . S
C3215 C3214 1.414 . S
C3215 C3216 1.374 . S
C3216 H3190 0.950 . S
C3216 C3212 1.385 . S
C3216 C3215 1.374 . S
C3217 C3214 1.499 . S
C3217 C3218 1.373 . S
C3217 C3219 1.389 . S
C3218 H3191 0.950 . S
C3218 C3204 1.377 . S
C3218 C3217 1.373 . S
C3219 C3203 1.377 . S
C3219 C3217 1.389 . S
C3219 C3220 1.524 . S
C3220 C3219 1.524 . S
C3220 C3221 1.397 . S
C3220 C3225 1.363 . S
C3221 H3192 0.950 . S
C3221 C3220 1.397 . S
C3221 C3222 1.334 . S
C3222 H3193 0.950 . S
C3222 C3221 1.334 . S
C3222 C3223 1.287 . S
C3223 C3222 1.287 . S
C3223 C3224 1.524 . S
C3223 H3226 0.999 . S
C3224 H3194 0.950 . S
C3224 C3223 1.524 . S
C3224 C3225 1.415 . S
C3225 H3195 0.950 . S
C3225 C3220 1.363 . S
C3225 C3224 1.415 . S
H3226 C3223 0.999 . S
H3227 C3208 0.913 . S
H3228 C3246 0.951 . S
H3229 C3248 0.951 . S
H3230 C3250 0.950 . S
H3231 C3251 0.950 . S
H3232 C3253 0.950 . S
H3233 C3256 0.950 . S
H3234 C3257 0.950 . S
H3235 C3259 0.950 . S
H3236 C3260 0.950 . S
H3237 C3261 0.951 . S
H3238 C3263 0.951 . S
H3239 C3265 0.950 . S
H3240 C3266 0.950 . S
H3241 C3268 0.950 . S
H3242 C3271 0.950 . S
H3243 C3272 0.950 . S
H3244 C3274 0.950 . S
H3245 C3275 0.950 . S
C3246 H3228 0.951 . S
C3246 C3247 1.366 . S
C3246 C3248 1.388 . S
C3247 C3246 1.366 . S
C3247 C3251 1.385 . S
C3248 H3229 0.951 . S
C3248 C3246 1.388 . S
C3248 C3249 1.366 . S
C3249 C3248 1.366 . S
C3249 C3250 1.414 . S
C3249 C3252 1.499 . S
C3250 H3230 0.950 . S
C3250 C3249 1.414 . S
C3250 C3251 1.374 . S
C3251 H3231 0.950 . S
C3251 C3247 1.385 . S
C3251 C3250 1.374 . S
C3252 C3249 1.499 . S
C3252 C3253 1.373 . S
C3252 C3254 1.389 . S
C3253 H3232 0.950 . S
C3253 C3252 1.373 . S
C3253 C3269 1.377 . S
C3254 C3252 1.389 . S
C3254 C3255 1.524 . S
C3254 C3268 1.377 . S
C3255 C3254 1.524 . S
C3255 C3256 1.397 . S
C3255 C3260 1.363 . S
C3256 H3233 0.950 . S
C3256 C3255 1.397 . S
C3256 C3257 1.334 . S
C3257 H3234 0.950 . S
C3257 C3256 1.334 . S
C3257 C3258 1.287 . S
C3258 C3257 1.287 . S
C3258 C3259 1.524 . S
C3258 H3277 0.913 . S
C3259 H3235 0.950 . S
C3259 C3258 1.524 . S
C3259 C3260 1.415 . S
C3260 H3236 0.950 . S
C3260 C3255 1.363 . S
C3260 C3259 1.415 . S
C3261 H3237 0.951 . S
C3261 C3262 1.366 . S
C3261 C3263 1.388 . S
C3262 C3261 1.366 . S
C3262 C3266 1.385 . S
C3263 H3238 0.951 . S
C3263 C3261 1.388 . S
C3263 C3264 1.366 . S
C3264 C3263 1.366 . S
C3264 C3265 1.414 . S
C3264 C3267 1.499 . S
C3265 H3239 0.950 . S
C3265 C3264 1.414 . S
C3265 C3266 1.374 . S
C3266 H3240 0.950 . S
C3266 C3262 1.385 . S
C3266 C3265 1.374 . S
C3267 C3264 1.499 . S
C3267 C3268 1.373 . S
C3267 C3269 1.389 . S
C3268 H3241 0.950 . S
C3268 C3254 1.377 . S
C3268 C3267 1.373 . S
C3269 C3253 1.377 . S
C3269 C3267 1.389 . S
C3269 C3270 1.524 . S
C3270 C3269 1.524 . S
C3270 C3271 1.397 . S
C3270 C3275 1.363 . S
C3271 H3242 0.950 . S
C3271 C3270 1.397 . S
C3271 C3272 1.334 . S
C3272 H3243 0.950 . S
C3272 C3271 1.334 . S
C3272 C3273 1.287 . S
C3273 C3272 1.287 . S
C3273 C3274 1.524 . S
C3273 H3276 0.999 . S
C3274 H3244 0.950 . S
C3274 C3273 1.524 . S
C3274 C3275 1.415 . S
C3275 H3245 0.950 . S
C3275 C3270 1.363 . S
C3275 C3274 1.415 . S
H3276 C3273 0.999 . S
H3277 C3258 0.913 . S
H3278 C3296 0.951 . S
H3279 C3298 0.951 . S
H3280 C3300 0.950 . S
H3281 C3301 0.950 . S
H3282 C3303 0.950 1_556 S
H3283 C3306 0.950 . S
H3284 C3307 0.950 . S
H3285 C3309 0.950 . S
H3286 C3310 0.950 . S
H3287 C3311 0.951 . S
H3288 C3313 0.951 . S
H3289 C3315 0.950 . S
H3290 C3316 0.950 . S
H3291 C3318 0.950 . S
H3292 C3321 0.950 . S
H3293 C3322 0.950 . S
H3294 C3324 0.950 . S
H3295 C3325 0.950 . S
C3296 H3278 0.951 . S
C3296 C3297 1.366 . S
C3296 C3298 1.388 . S
C3297 C3296 1.366 . S
C3297 C3301 1.385 . S
C3298 H3279 0.951 . S
C3298 C3296 1.388 . S
C3298 C3299 1.366 . S
C3299 C3298 1.366 . S
C3299 C3300 1.414 . S
C3299 C3302 1.499 . S
C3300 H3280 0.950 . S
C3300 C3299 1.414 . S
C3300 C3301 1.374 . S
C3301 H3281 0.950 . S
C3301 C3297 1.385 . S
C3301 C3300 1.374 . S
C3302 C3299 1.499 . S
C3302 C3303 1.373 . S
C3302 C3304 1.389 . S
C3303 H3282 0.950 1_554 S
C3303 C3302 1.373 . S
C3303 C3319 1.377 . S
C3304 C3302 1.389 . S
C3304 C3305 1.524 . S
C3304 C3318 1.377 . S
C3305 C3304 1.524 . S
C3305 C3306 1.397 . S
C3305 C3310 1.363 . S
C3306 H3283 0.950 . S
C3306 C3305 1.397 . S
C3306 C3307 1.334 . S
C3307 H3284 0.950 . S
C3307 C3306 1.334 . S
C3307 C3308 1.287 . S
C3308 C3307 1.287 . S
C3308 C3309 1.524 . S
C3308 H3327 0.913 . S
C3309 H3285 0.950 . S
C3309 C3308 1.524 . S
C3309 C3310 1.415 . S
C3310 H3286 0.950 . S
C3310 C3305 1.363 . S
C3310 C3309 1.415 . S
C3311 H3287 0.951 . S
C3311 C3312 1.366 . S
C3311 C3313 1.388 . S
C3312 C3311 1.366 . S
C3312 C3316 1.385 . S
C3313 H3288 0.951 . S
C3313 C3311 1.388 . S
C3313 C3314 1.366 . S
C3314 C3313 1.366 . S
C3314 C3315 1.414 . S
C3314 C3317 1.499 . S
C3315 H3289 0.950 . S
C3315 C3314 1.414 . S
C3315 C3316 1.374 . S
C3316 H3290 0.950 . S
C3316 C3312 1.385 . S
C3316 C3315 1.374 . S
C3317 C3314 1.499 . S
C3317 C3318 1.373 . S
C3317 C3319 1.389 . S
C3318 H3291 0.950 . S
C3318 C3304 1.377 . S
C3318 C3317 1.373 . S
C3319 C3303 1.377 . S
C3319 C3317 1.389 . S
C3319 C3320 1.524 1_554 S
C3320 C3319 1.524 1_556 S
C3320 C3321 1.397 . S
C3320 C3325 1.363 . S
C3321 H3292 0.950 . S
C3321 C3320 1.397 . S
C3321 C3322 1.334 . S
C3322 H3293 0.950 . S
C3322 C3321 1.334 . S
C3322 C3323 1.287 . S
C3323 C3322 1.287 . S
C3323 C3324 1.524 . S
C3323 H3326 0.999 . S
C3324 H3294 0.950 . S
C3324 C3323 1.524 . S
C3324 C3325 1.415 . S
C3325 H3295 0.950 . S
C3325 C3320 1.363 . S
C3325 C3324 1.415 . S
H3326 C3323 0.999 . S
H3327 C3308 0.913 . S
H3328 C3346 0.951 . S
H3329 C3348 0.960 . S
H3330 C3350 0.950 . S
H3331 C3351 0.950 . S
H3332 C3353 0.950 . S
H3333 C3356 0.950 . S
H3334 C3357 0.950 . S
H3335 C3359 0.950 . S
H3336 C3360 0.950 . S
H3337 C3361 0.951 . S
H3338 C3363 0.951 . S
H3339 C3365 0.950 1_565 S
H3340 C3366 0.950 1_565 S
H3341 C3368 0.950 . S
H3342 C3371 0.950 . S
H3343 C3372 0.950 . S
H3344 C3374 0.950 . S
H3345 C3375 0.950 . S
C3346 H3328 0.951 . S
C3346 C3347 1.366 1_565 S
C3346 C3348 1.389 . S
C3347 C3346 1.366 1_545 S
C3347 C3351 1.385 . S
C3348 H3329 0.960 . S
C3348 C3346 1.389 . S
C3348 C3349 1.356 1_565 S
C3349 C3348 1.356 1_545 S
C3349 C3350 1.414 . S
C3349 C3352 1.499 . S
C3350 H3330 0.950 . S
C3350 C3349 1.414 . S
C3350 C3351 1.374 . S
C3351 H3331 0.950 . S
C3351 C3347 1.385 . S
C3351 C3350 1.374 . S
C3352 C3349 1.499 . S
C3352 C3353 1.373 . S
C3352 C3354 1.389 . S
C3353 H3332 0.950 . S
C3353 C3352 1.373 . S
C3353 C3369 1.377 . S
C3354 C3352 1.389 . S
C3354 C3355 1.536 . S
C3354 C3368 1.377 . S
C3355 C3354 1.536 . S
C3355 C3356 1.411 . S
C3355 C3360 1.339 1_545 S
C3356 H3333 0.950 . S
C3356 C3355 1.411 . S
C3356 C3357 1.334 . S
C3357 H3334 0.950 . S
C3357 C3356 1.334 . S
C3357 C3358 1.287 1_545 S
C3358 C3357 1.287 1_565 S
C3358 C3359 1.524 . S
C3358 H3377 0.913 . S
C3359 H3335 0.950 . S
C3359 C3358 1.524 . S
C3359 C3360 1.415 . S
C3360 H3336 0.950 . S
C3360 C3355 1.339 1_565 S
C3360 C3359 1.415 . S
C3361 H3337 0.951 . S
C3361 C3362 1.366 . S
C3361 C3363 1.388 . S
C3362 C3361 1.366 . S
C3362 C3366 1.385 . S
C3363 H3338 0.951 . S
C3363 C3361 1.388 . S
C3363 C3364 1.366 . S
C3364 C3363 1.366 . S
C3364 C3365 1.414 . S
C3364 C3367 1.499 . S
C3365 H3339 0.950 1_545 S
C3365 C3364 1.414 . S
C3365 C3366 1.374 . S
C3366 H3340 0.950 1_545 S
C3366 C3362 1.385 . S
C3366 C3365 1.374 . S
C3367 C3364 1.499 . S
C3367 C3368 1.373 . S
C3367 C3369 1.389 . S
C3368 H3341 0.950 . S
C3368 C3354 1.377 . S
C3368 C3367 1.373 . S
C3369 C3353 1.377 . S
C3369 C3367 1.389 . S
C3369 C3370 1.524 . S
C3370 C3369 1.524 . S
C3370 C3371 1.397 . S
C3370 C3375 1.363 . S
C3371 H3342 0.950 . S
C3371 C3370 1.397 . S
C3371 C3372 1.334 . S
C3372 H3343 0.950 . S
C3372 C3371 1.334 . S
C3372 C3373 1.287 . S
C3373 C3372 1.287 . S
C3373 C3374 1.524 . S
C3373 H3376 0.999 . S
C3374 H3344 0.950 . S
C3374 C3373 1.524 . S
C3374 C3375 1.415 . S
C3375 H3345 0.950 . S
C3375 C3370 1.363 . S
C3375 C3374 1.415 . S
H3376 C3373 0.999 . S
H3377 C3358 0.913 . S
H3378 C3396 0.951 . S
H3379 C3398 0.951 . S
H3380 C3400 0.950 . S
H3381 C3401 0.950 . S
H3382 C3403 0.950 . S
H3383 C3406 0.950 . S
H3384 C3407 0.950 . S
H3385 C3409 0.950 . S
H3386 C3410 0.950 . S
H3387 C3411 0.951 . S
H3388 C3413 0.951 . S
H3389 C3415 0.950 . S
H3390 C3416 0.950 . S
H3391 C3418 0.950 . S
H3392 C3421 0.950 . S
H3393 C3422 0.950 . S
H3394 C3424 0.950 . S
H3395 C3425 0.950 . S
C3396 H3378 0.951 . S
C3396 C3397 1.366 . S
C3396 C3398 1.388 . S
C3397 C3396 1.366 . S
C3397 C3401 1.385 . S
C3398 H3379 0.951 . S
C3398 C3396 1.388 . S
C3398 C3399 1.366 . S
C3399 C3398 1.366 . S
C3399 C3400 1.414 . S
C3399 C3402 1.499 . S
C3400 H3380 0.950 . S
C3400 C3399 1.414 . S
C3400 C3401 1.374 . S
C3401 H3381 0.950 . S
C3401 C3397 1.385 . S
C3401 C3400 1.374 . S
C3402 C3399 1.499 . S
C3402 C3403 1.373 . S
C3402 C3404 1.389 . S
C3403 H3382 0.950 . S
C3403 C3402 1.373 . S
C3403 C3419 1.377 . S
C3404 C3402 1.389 . S
C3404 C3405 1.524 . S
C3404 C3418 1.377 . S
C3405 C3404 1.524 . S
C3405 C3406 1.397 . S
C3405 C3410 1.363 . S
C3406 H3383 0.950 . S
C3406 C3405 1.397 . S
C3406 C3407 1.334 . S
C3407 H3384 0.950 . S
C3407 C3406 1.334 . S
C3407 C3408 1.287 . S
C3408 C3407 1.287 . S
C3408 C3409 1.524 . S
C3408 H3427 0.913 . S
C3409 H3385 0.950 . S
C3409 C3408 1.524 . S
C3409 C3410 1.415 . S
C3410 H3386 0.950 . S
C3410 C3405 1.363 . S
C3410 C3409 1.415 . S
C3411 H3387 0.951 . S
C3411 C3412 1.366 . S
C3411 C3413 1.388 . S
C3412 C3411 1.366 . S
C3412 C3416 1.385 . S
C3413 H3388 0.951 . S
C3413 C3411 1.388 . S
C3413 C3414 1.366 . S
C3414 C3413 1.366 . S
C3414 C3415 1.414 . S
C3414 C3417 1.499 . S
C3415 H3389 0.950 . S
C3415 C3414 1.414 . S
C3415 C3416 1.374 . S
C3416 H3390 0.950 . S
C3416 C3412 1.385 . S
C3416 C3415 1.374 . S
C3417 C3414 1.499 . S
C3417 C3418 1.373 . S
C3417 C3419 1.389 . S
C3418 H3391 0.950 . S
C3418 C3404 1.377 . S
C3418 C3417 1.373 . S
C3419 C3403 1.377 . S
C3419 C3417 1.389 . S
C3419 C3420 1.524 . S
C3420 C3419 1.524 . S
C3420 C3421 1.397 . S
C3420 C3425 1.363 . S
C3421 H3392 0.950 . S
C3421 C3420 1.397 . S
C3421 C3422 1.334 . S
C3422 H3393 0.950 . S
C3422 C3421 1.334 . S
C3422 C3423 1.287 . S
C3423 C3422 1.287 . S
C3423 C3424 1.524 . S
C3423 H3426 0.999 . S
C3424 H3394 0.950 . S
C3424 C3423 1.524 . S
C3424 C3425 1.415 . S
C3425 H3395 0.950 . S
C3425 C3420 1.363 . S
C3425 C3424 1.415 . S
H3426 C3423 0.999 . S
H3427 C3408 0.913 . S
H3428 C3446 0.951 . S
H3429 C3448 0.951 . S
H3430 C3450 0.950 . S
H3431 C3451 0.950 . S
H3432 C3453 0.950 . S
H3433 C3456 0.950 . S
H3434 C3457 0.950 . S
H3435 C3459 0.950 . S
H3436 C3460 0.950 . S
H3437 C3461 0.951 . S
H3438 C3463 0.951 . S
H3439 C3465 0.950 . S
H3440 C3466 0.950 . S
H3441 C3468 0.950 . S
H3442 C3471 0.966 . S
H3443 C3472 0.950 . S
H3444 C3474 0.950 . S
H3445 C3475 0.950 . S
C3446 H3428 0.951 . S
C3446 C3447 1.366 . S
C3446 C3448 1.388 . S
C3447 C3446 1.366 . S
C3447 C3451 1.385 . S
C3448 H3429 0.951 . S
C3448 C3446 1.388 . S
C3448 C3449 1.366 . S
C3449 C3448 1.366 . S
C3449 C3450 1.414 . S
C3449 C3452 1.499 . S
C3450 H3430 0.950 . S
C3450 C3449 1.414 . S
C3450 C3451 1.374 . S
C3451 H3431 0.950 . S
C3451 C3447 1.385 . S
C3451 C3450 1.374 . S
C3452 C3449 1.499 . S
C3452 C3453 1.373 . S
C3452 C3454 1.389 . S
C3453 H3432 0.950 . S
C3453 C3452 1.373 . S
C3453 C3469 1.377 . S
C3454 C3452 1.389 . S
C3454 C3455 1.524 . S
C3454 C3468 1.377 . S
C3455 C3454 1.524 . S
C3455 C3456 1.397 . S
C3455 C3460 1.363 . S
C3456 H3433 0.950 . S
C3456 C3455 1.397 . S
C3456 C3457 1.334 . S
C3457 H3434 0.950 . S
C3457 C3456 1.334 . S
C3457 C3458 1.287 . S
C3458 C3457 1.287 . S
C3458 C3459 1.524 . S
C3458 H3477 0.913 . S
C3459 H3435 0.950 . S
C3459 C3458 1.524 . S
C3459 C3460 1.415 . S
C3460 H3436 0.950 . S
C3460 C3455 1.363 . S
C3460 C3459 1.415 . S
C3461 H3437 0.951 . S
C3461 C3462 1.366 1_545 S
C3461 C3463 1.388 . S
C3462 C3461 1.366 1_565 S
C3462 C3466 1.385 . S
C3463 H3438 0.951 . S
C3463 C3461 1.388 . S
C3463 C3464 1.366 . S
C3464 C3463 1.366 . S
C3464 C3465 1.414 . S
C3464 C3467 1.499 . S
C3465 H3439 0.950 . S
C3465 C3464 1.414 . S
C3465 C3466 1.374 1_545 S
C3466 H3440 0.950 . S
C3466 C3462 1.385 . S
C3466 C3465 1.374 1_565 S
C3467 C3464 1.499 . S
C3467 C3468 1.373 . S
C3467 C3469 1.389 . S
C3468 H3441 0.950 . S
C3468 C3454 1.377 . S
C3468 C3467 1.373 . S
C3469 C3453 1.377 . S
C3469 C3467 1.389 . S
C3469 C3470 1.524 . S
C3470 C3469 1.524 . S
C3470 C3471 1.397 . S
C3470 C3475 1.363 . S
C3471 H3442 0.966 . S
C3471 C3470 1.397 . S
C3471 C3472 1.334 1_545 S
C3472 H3443 0.950 . S
C3472 C3471 1.334 1_565 S
C3472 C3473 1.298 . S
C3473 C3472 1.298 . S
C3473 C3474 1.495 1_565 S
C3473 H3476 1.017 . S
C3474 H3444 0.950 . S
C3474 C3473 1.495 1_545 S
C3474 C3475 1.415 . S
C3475 H3445 0.950 . S
C3475 C3470 1.363 . S
C3475 C3474 1.415 . S
H3476 C3473 1.017 . S
H3477 C3458 0.913 . S
H3478 C3496 0.951 . S
H3479 C3498 0.951 . S
H3480 C3500 0.950 . S
H3481 C3501 0.950 . S
H3482 C3503 0.950 . S
H3483 C3506 0.950 . S
H3484 C3507 0.950 . S
H3485 C3509 0.950 . S
H3486 C3510 0.950 . S
H3487 C3511 0.951 . S
H3488 C3513 0.951 . S
H3489 C3515 0.950 . S
H3490 C3516 0.950 . S
H3491 C3518 0.950 . S
H3492 C3521 0.950 . S
H3493 C3522 0.950 . S
H3494 C3524 0.950 . S
H3495 C3525 0.950 . S
C3496 H3478 0.951 . S
C3496 C3497 1.366 . S
C3496 C3498 1.388 . S
C3497 C3496 1.366 . S
C3497 C3501 1.385 . S
C3498 H3479 0.951 . S
C3498 C3496 1.388 . S
C3498 C3499 1.366 . S
C3499 C3498 1.366 . S
C3499 C3500 1.414 . S
C3499 C3502 1.499 . S
C3500 H3480 0.950 . S
C3500 C3499 1.414 . S
C3500 C3501 1.374 . S
C3501 H3481 0.950 . S
C3501 C3497 1.385 . S
C3501 C3500 1.374 . S
C3502 C3499 1.499 . S
C3502 C3503 1.373 . S
C3502 C3504 1.389 . S
C3503 H3482 0.950 . S
C3503 C3502 1.373 . S
C3503 C3519 1.377 . S
C3504 C3502 1.389 . S
C3504 C3505 1.524 . S
C3504 C3518 1.377 . S
C3505 C3504 1.524 . S
C3505 C3506 1.397 . S
C3505 C3510 1.363 . S
C3506 H3483 0.950 . S
C3506 C3505 1.397 . S
C3506 C3507 1.334 . S
C3507 H3484 0.950 . S
C3507 C3506 1.334 . S
C3507 C3508 1.287 . S
C3508 C3507 1.287 . S
C3508 C3509 1.524 . S
C3508 H3527 0.913 . S
C3509 H3485 0.950 . S
C3509 C3508 1.524 . S
C3509 C3510 1.415 . S
C3510 H3486 0.950 . S
C3510 C3505 1.363 . S
C3510 C3509 1.415 . S
C3511 H3487 0.951 . S
C3511 C3512 1.366 . S
C3511 C3513 1.388 . S
C3512 C3511 1.366 . S
C3512 C3516 1.385 . S
C3513 H3488 0.951 . S
C3513 C3511 1.388 . S
C3513 C3514 1.366 . S
C3514 C3513 1.366 . S
C3514 C3515 1.414 . S
C3514 C3517 1.499 . S
C3515 H3489 0.950 . S
C3515 C3514 1.414 . S
C3515 C3516 1.374 . S
C3516 H3490 0.950 . S
C3516 C3512 1.385 . S
C3516 C3515 1.374 . S
C3517 C3514 1.499 . S
C3517 C3518 1.373 . S
C3517 C3519 1.389 . S
C3518 H3491 0.950 . S
C3518 C3504 1.377 . S
C3518 C3517 1.373 . S
C3519 C3503 1.377 . S
C3519 C3517 1.389 . S
C3519 C3520 1.524 . S
C3520 C3519 1.524 . S
C3520 C3521 1.397 . S
C3520 C3525 1.363 . S
C3521 H3492 0.950 . S
C3521 C3520 1.397 . S
C3521 C3522 1.334 . S
C3522 H3493 0.950 . S
C3522 C3521 1.334 . S
C3522 C3523 1.287 . S
C3523 C3522 1.287 . S
C3523 C3524 1.524 . S
C3523 H3526 0.999 . S
C3524 H3494 0.950 . S
C3524 C3523 1.524 . S
C3524 C3525 1.415 . S
C3525 H3495 0.950 . S
C3525 C3520 1.363 . S
C3525 C3524 1.415 . S
H3526 C3523 0.999 . S
H3527 C3508 0.913 . S
H3528 C3546 0.951 . S
H3529 C3548 0.951 . S
H3530 C3550 0.950 . S
H3531 C3551 0.950 . S
H3532 C3553 0.950 . S
H3533 C3556 0.950 . S
H3534 C3557 0.950 . S
H3535 C3559 0.950 . S
H3536 C3560 0.950 . S
H3537 C3561 0.951 . S
H3538 C3563 0.951 . S
H3539 C3565 0.950 . S
H3540 C3566 0.950 . S
H3541 C3568 0.950 . S
H3542 C3571 0.950 . S
H3543 C3572 0.950 . S
H3544 C3574 0.950 . S
H3545 C3575 0.950 . S
C3546 H3528 0.951 . S
C3546 C3547 1.366 . S
C3546 C3548 1.388 . S
C3547 C3546 1.366 . S
C3547 C3551 1.385 . S
C3548 H3529 0.951 . S
C3548 C3546 1.388 . S
C3548 C3549 1.366 . S
C3549 C3548 1.366 . S
C3549 C3550 1.414 . S
C3549 C3552 1.499 . S
C3550 H3530 0.950 . S
C3550 C3549 1.414 . S
C3550 C3551 1.374 . S
C3551 H3531 0.950 . S
C3551 C3547 1.385 . S
C3551 C3550 1.374 . S
C3552 C3549 1.499 . S
C3552 C3553 1.373 . S
C3552 C3554 1.389 . S
C3553 H3532 0.950 . S
C3553 C3552 1.373 . S
C3553 C3569 1.377 . S
C3554 C3552 1.389 . S
C3554 C3555 1.524 . S
C3554 C3568 1.377 . S
C3555 C3554 1.524 . S
C3555 C3556 1.397 . S
C3555 C3560 1.363 . S
C3556 H3533 0.950 . S
C3556 C3555 1.397 . S
C3556 C3557 1.334 . S
C3557 H3534 0.950 . S
C3557 C3556 1.334 . S
C3557 C3558 1.287 . S
C3558 C3557 1.287 . S
C3558 C3559 1.524 . S
C3558 H3577 0.913 . S
C3559 H3535 0.950 . S
C3559 C3558 1.524 . S
C3559 C3560 1.415 . S
C3560 H3536 0.950 . S
C3560 C3555 1.363 . S
C3560 C3559 1.415 . S
C3561 H3537 0.951 . S
C3561 C3562 1.366 . S
C3561 C3563 1.388 . S
C3562 C3561 1.366 . S
C3562 C3566 1.385 . S
C3563 H3538 0.951 . S
C3563 C3561 1.388 . S
C3563 C3564 1.366 . S
C3564 C3563 1.366 . S
C3564 C3565 1.414 . S
C3564 C3567 1.499 . S
C3565 H3539 0.950 . S
C3565 C3564 1.414 . S
C3565 C3566 1.374 . S
C3566 H3540 0.950 . S
C3566 C3562 1.385 . S
C3566 C3565 1.374 . S
C3567 C3564 1.499 . S
C3567 C3568 1.373 . S
C3567 C3569 1.389 . S
C3568 H3541 0.950 . S
C3568 C3554 1.377 . S
C3568 C3567 1.373 . S
C3569 C3553 1.377 . S
C3569 C3567 1.389 . S
C3569 C3570 1.524 . S
C3570 C3569 1.524 . S
C3570 C3571 1.397 . S
C3570 C3575 1.363 . S
C3571 H3542 0.950 . S
C3571 C3570 1.397 . S
C3571 C3572 1.334 . S
C3572 H3543 0.950 . S
C3572 C3571 1.334 . S
C3572 C3573 1.287 . S
C3573 C3572 1.287 . S
C3573 C3574 1.524 . S
C3573 H3576 0.999 . S
C3574 H3544 0.950 . S
C3574 C3573 1.524 . S
C3574 C3575 1.415 . S
C3575 H3545 0.950 . S
C3575 C3570 1.363 . S
C3575 C3574 1.415 . S
H3576 C3573 0.999 . S
H3577 C3558 0.913 . S
H3578 C3596 0.951 . S
H3579 C3598 0.951 . S
H3580 C3600 0.950 . S
H3581 C3601 0.950 . S
H3582 C3603 0.950 . S
H3583 C3606 0.950 . S
H3584 C3607 0.950 . S
H3585 C3609 0.950 . S
H3586 C3610 0.950 . S
H3587 C3611 0.951 . S
H3588 C3613 0.951 . S
H3589 C3615 0.950 . S
H3590 C3616 0.950 . S
H3591 C3618 0.950 . S
H3592 C3621 0.950 . S
H3593 C3622 0.950 . S
H3594 C3624 0.950 . S
H3595 C3625 0.950 . S
C3596 H3578 0.951 . S
C3596 C3597 1.366 . S
C3596 C3598 1.388 . S
C3597 C3596 1.366 . S
C3597 C3601 1.385 . S
C3598 H3579 0.951 . S
C3598 C3596 1.388 . S
C3598 C3599 1.366 . S
C3599 C3598 1.366 . S
C3599 C3600 1.414 . S
C3599 C3602 1.499 . S
C3600 H3580 0.950 . S
C3600 C3599 1.414 . S
C3600 C3601 1.374 . S
C3601 H3581 0.950 . S
C3601 C3597 1.385 . S
C3601 C3600 1.374 . S
C3602 C3599 1.499 . S
C3602 C3603 1.373 . S
C3602 C3604 1.389 . S
C3603 H3582 0.950 . S
C3603 C3602 1.373 . S
C3603 C3619 1.377 . S
C3604 C3602 1.389 . S
C3604 C3605 1.524 . S
C3604 C3618 1.377 . S
C3605 C3604 1.524 . S
C3605 C3606 1.397 . S
C3605 C3610 1.363 . S
C3606 H3583 0.950 . S
C3606 C3605 1.397 . S
C3606 C3607 1.334 . S
C3607 H3584 0.950 . S
C3607 C3606 1.334 . S
C3607 C3608 1.287 . S
C3608 C3607 1.287 . S
C3608 C3609 1.524 . S
C3608 H3627 0.913 . S
C3609 H3585 0.950 . S
C3609 C3608 1.524 . S
C3609 C3610 1.415 . S
C3610 H3586 0.950 . S
C3610 C3605 1.363 . S
C3610 C3609 1.415 . S
C3611 H3587 0.951 . S
C3611 C3612 1.366 . S
C3611 C3613 1.388 . S
C3612 C3611 1.366 . S
C3612 C3616 1.385 . S
C3613 H3588 0.951 . S
C3613 C3611 1.388 . S
C3613 C3614 1.366 . S
C3614 C3613 1.366 . S
C3614 C3615 1.414 . S
C3614 C3617 1.499 . S
C3615 H3589 0.950 . S
C3615 C3614 1.414 . S
C3615 C3616 1.374 . S
C3616 H3590 0.950 . S
C3616 C3612 1.385 . S
C3616 C3615 1.374 . S
C3617 C3614 1.499 . S
C3617 C3618 1.373 . S
C3617 C3619 1.389 . S
C3618 H3591 0.950 . S
C3618 C3604 1.377 . S
C3618 C3617 1.373 . S
C3619 C3603 1.377 . S
C3619 C3617 1.389 . S
C3619 C3620 1.524 . S
C3620 C3619 1.524 . S
C3620 C3621 1.397 . S
C3620 C3625 1.363 . S
C3621 H3592 0.950 . S
C3621 C3620 1.397 . S
C3621 C3622 1.334 . S
C3622 H3593 0.950 . S
C3622 C3621 1.334 . S
C3622 C3623 1.287 . S
C3623 C3622 1.287 . S
C3623 C3624 1.524 . S
C3623 H3626 0.999 . S
C3624 H3594 0.950 . S
C3624 C3623 1.524 . S
C3624 C3625 1.415 . S
C3625 H3595 0.950 . S
C3625 C3620 1.363 . S
C3625 C3624 1.415 . S
H3626 C3623 0.999 . S
H3627 C3608 0.913 . S
H3628 C3646 0.951 . S
H3629 C3648 0.951 . S
H3630 C3650 0.950 . S
H3631 C3651 0.950 . S
H3632 C3653 0.950 . S
H3633 C3656 0.950 . S
H3634 C3657 0.950 . S
H3635 C3659 0.950 . S
H3636 C3660 0.950 . S
H3637 C3661 0.951 . S
H3638 C3663 0.951 . S
H3639 C3665 0.950 . S
H3640 C3666 0.950 . S
H3641 C3668 0.950 . S
H3642 C3671 0.950 . S
H3643 C3672 0.950 . S
H3644 C3674 0.950 . S
H3645 C3675 0.950 . S
C3646 H3628 0.951 . S
C3646 C3647 1.366 . S
C3646 C3648 1.388 . S
C3647 C3646 1.366 . S
C3647 C3651 1.385 . S
C3648 H3629 0.951 . S
C3648 C3646 1.388 . S
C3648 C3649 1.366 . S
C3649 C3648 1.366 . S
C3649 C3650 1.414 . S
C3649 C3652 1.499 . S
C3650 H3630 0.950 . S
C3650 C3649 1.414 . S
C3650 C3651 1.374 . S
C3651 H3631 0.950 . S
C3651 C3647 1.385 . S
C3651 C3650 1.374 . S
C3652 C3649 1.499 . S
C3652 C3653 1.373 . S
C3652 C3654 1.389 . S
C3653 H3632 0.950 . S
C3653 C3652 1.373 . S
C3653 C3669 1.377 . S
C3654 C3652 1.389 . S
C3654 C3655 1.524 . S
C3654 C3668 1.377 . S
C3655 C3654 1.524 . S
C3655 C3656 1.397 . S
C3655 C3660 1.363 . S
C3656 H3633 0.950 . S
C3656 C3655 1.397 . S
C3656 C3657 1.334 . S
C3657 H3634 0.950 . S
C3657 C3656 1.334 . S
C3657 C3658 1.287 . S
C3658 C3657 1.287 . S
C3658 C3659 1.524 . S
C3658 H3677 0.913 . S
C3659 H3635 0.950 . S
C3659 C3658 1.524 . S
C3659 C3660 1.415 . S
C3660 H3636 0.950 . S
C3660 C3655 1.363 . S
C3660 C3659 1.415 . S
C3661 H3637 0.951 . S
C3661 C3662 1.366 . S
C3661 C3663 1.388 . S
C3662 C3661 1.366 . S
C3662 C3666 1.385 . S
C3663 H3638 0.951 . S
C3663 C3661 1.388 . S
C3663 C3664 1.366 . S
C3664 C3663 1.366 . S
C3664 C3665 1.414 . S
C3664 C3667 1.499 . S
C3665 H3639 0.950 . S
C3665 C3664 1.414 . S
C3665 C3666 1.374 . S
C3666 H3640 0.950 . S
C3666 C3662 1.385 . S
C3666 C3665 1.374 . S
C3667 C3664 1.499 . S
C3667 C3668 1.373 . S
C3667 C3669 1.389 . S
C3668 H3641 0.950 . S
C3668 C3654 1.377 . S
C3668 C3667 1.373 . S
C3669 C3653 1.377 . S
C3669 C3667 1.389 . S
C3669 C3670 1.524 . S
C3670 C3669 1.524 . S
C3670 C3671 1.397 . S
C3670 C3675 1.363 . S
C3671 H3642 0.950 . S
C3671 C3670 1.397 . S
C3671 C3672 1.334 . S
C3672 H3643 0.950 . S
C3672 C3671 1.334 . S
C3672 C3673 1.287 . S
C3673 C3672 1.287 . S
C3673 C3674 1.524 . S
C3673 H3676 0.999 . S
C3674 H3644 0.950 . S
C3674 C3673 1.524 . S
C3674 C3675 1.415 . S
C3675 H3645 0.950 . S
C3675 C3670 1.363 . S
C3675 C3674 1.415 . S
H3676 C3673 0.999 . S
H3677 C3658 0.913 . S
H3678 C3696 0.951 . S
H3679 C3698 0.951 . S
H3680 C3700 0.950 . S
H3681 C3701 0.950 . S
H3682 C3703 0.950 . S
H3683 C3706 0.950 . S
H3684 C3707 0.950 . S
H3685 C3709 0.950 . S
H3686 C3710 0.950 . S
H3687 C3711 0.951 . S
H3688 C3713 0.951 . S
H3689 C3715 0.950 . S
H3690 C3716 0.950 . S
H3691 C3718 0.950 . S
H3692 C3721 0.950 . S
H3693 C3722 0.950 . S
H3694 C3724 0.950 . S
H3695 C3725 0.950 . S
C3696 H3678 0.951 . S
C3696 C3697 1.366 . S
C3696 C3698 1.388 . S
C3697 C3696 1.366 . S
C3697 C3701 1.385 . S
C3698 H3679 0.951 . S
C3698 C3696 1.388 . S
C3698 C3699 1.366 . S
C3699 C3698 1.366 . S
C3699 C3700 1.414 . S
C3699 C3702 1.499 . S
C3700 H3680 0.950 . S
C3700 C3699 1.414 . S
C3700 C3701 1.374 . S
C3701 H3681 0.950 . S
C3701 C3697 1.385 . S
C3701 C3700 1.374 . S
C3702 C3699 1.499 . S
C3702 C3703 1.373 . S
C3702 C3704 1.389 . S
C3703 H3682 0.950 . S
C3703 C3702 1.373 . S
C3703 C3719 1.377 . S
C3704 C3702 1.389 . S
C3704 C3705 1.524 . S
C3704 C3718 1.377 . S
C3705 C3704 1.524 . S
C3705 C3706 1.397 . S
C3705 C3710 1.363 . S
C3706 H3683 0.950 . S
C3706 C3705 1.397 . S
C3706 C3707 1.334 . S
C3707 H3684 0.950 . S
C3707 C3706 1.334 . S
C3707 C3708 1.287 . S
C3708 C3707 1.287 . S
C3708 C3709 1.524 . S
C3708 H3727 0.913 . S
C3709 H3685 0.950 . S
C3709 C3708 1.524 . S
C3709 C3710 1.415 . S
C3710 H3686 0.950 . S
C3710 C3705 1.363 . S
C3710 C3709 1.415 . S
C3711 H3687 0.951 . S
C3711 C3712 1.366 . S
C3711 C3713 1.388 . S
C3712 C3711 1.366 . S
C3712 C3716 1.385 . S
C3713 H3688 0.951 . S
C3713 C3711 1.388 . S
C3713 C3714 1.366 . S
C3714 C3713 1.366 . S
C3714 C3715 1.414 . S
C3714 C3717 1.499 . S
C3715 H3689 0.950 . S
C3715 C3714 1.414 . S
C3715 C3716 1.374 . S
C3716 H3690 0.950 . S
C3716 C3712 1.385 . S
C3716 C3715 1.374 . S
C3717 C3714 1.499 . S
C3717 C3718 1.373 . S
C3717 C3719 1.389 . S
C3718 H3691 0.950 . S
C3718 C3704 1.377 . S
C3718 C3717 1.373 . S
C3719 C3703 1.377 . S
C3719 C3717 1.389 . S
C3719 C3720 1.524 . S
C3720 C3719 1.524 . S
C3720 C3721 1.397 . S
C3720 C3725 1.363 . S
C3721 H3692 0.950 . S
C3721 C3720 1.397 . S
C3721 C3722 1.334 . S
C3722 H3693 0.950 . S
C3722 C3721 1.334 . S
C3722 C3723 1.287 . S
C3723 C3722 1.287 . S
C3723 C3724 1.524 . S
C3723 H3726 0.999 . S
C3724 H3694 0.950 . S
C3724 C3723 1.524 . S
C3724 C3725 1.415 . S
C3725 H3695 0.950 . S
C3725 C3720 1.363 . S
C3725 C3724 1.415 . S
H3726 C3723 0.999 . S
H3727 C3708 0.913 . S
H3728 C3746 0.951 . S
H3729 C3748 0.951 . S
H3730 C3750 0.950 . S
H3731 C3751 0.950 . S
H3732 C3753 0.950 . S
H3733 C3756 0.950 . S
H3734 C3757 0.950 . S
H3735 C3759 0.950 . S
H3736 C3760 0.950 . S
H3737 C3761 0.951 . S
H3738 C3763 0.951 . S
H3739 C3765 0.950 . S
H3740 C3766 0.950 . S
H3741 C3768 0.950 . S
H3742 C3771 0.950 . S
H3743 C3772 0.950 . S
H3744 C3774 0.950 . S
H3745 C3775 0.950 . S
C3746 H3728 0.951 . S
C3746 C3747 1.366 . S
C3746 C3748 1.388 . S
C3747 C3746 1.366 . S
C3747 C3751 1.385 . S
C3748 H3729 0.951 . S
C3748 C3746 1.388 . S
C3748 C3749 1.366 . S
C3749 C3748 1.366 . S
C3749 C3750 1.414 . S
C3749 C3752 1.499 . S
C3750 H3730 0.950 . S
C3750 C3749 1.414 . S
C3750 C3751 1.374 . S
C3751 H3731 0.950 . S
C3751 C3747 1.385 . S
C3751 C3750 1.374 . S
C3752 C3749 1.499 . S
C3752 C3753 1.373 . S
C3752 C3754 1.389 . S
C3753 H3732 0.950 . S
C3753 C3752 1.373 . S
C3753 C3769 1.377 . S
C3754 C3752 1.389 . S
C3754 C3755 1.524 . S
C3754 C3768 1.377 . S
C3755 C3754 1.524 . S
C3755 C3756 1.397 . S
C3755 C3760 1.363 . S
C3756 H3733 0.950 . S
C3756 C3755 1.397 . S
C3756 C3757 1.334 . S
C3757 H3734 0.950 . S
C3757 C3756 1.334 . S
C3757 C3758 1.287 . S
C3758 C3757 1.287 . S
C3758 C3759 1.524 . S
C3758 H3777 0.913 . S
C3759 H3735 0.950 . S
C3759 C3758 1.524 . S
C3759 C3760 1.415 . S
C3760 H3736 0.950 . S
C3760 C3755 1.363 . S
C3760 C3759 1.415 . S
C3761 H3737 0.951 . S
C3761 C3762 1.366 . S
C3761 C3763 1.388 . S
C3762 C3761 1.366 . S
C3762 C3766 1.385 . S
C3763 H3738 0.951 . S
C3763 C3761 1.388 . S
C3763 C3764 1.366 . S
C3764 C3763 1.366 . S
C3764 C3765 1.414 . S
C3764 C3767 1.499 . S
C3765 H3739 0.950 . S
C3765 C3764 1.414 . S
C3765 C3766 1.374 . S
C3766 H3740 0.950 . S
C3766 C3762 1.385 . S
C3766 C3765 1.374 . S
C3767 C3764 1.499 . S
C3767 C3768 1.373 . S
C3767 C3769 1.389 . S
C3768 H3741 0.950 . S
C3768 C3754 1.377 . S
C3768 C3767 1.373 . S
C3769 C3753 1.377 . S
C3769 C3767 1.389 . S
C3769 C3770 1.524 . S
C3770 C3769 1.524 . S
C3770 C3771 1.397 . S
C3770 C3775 1.363 . S
C3771 H3742 0.950 . S
C3771 C3770 1.397 . S
C3771 C3772 1.334 . S
C3772 H3743 0.950 . S
C3772 C3771 1.334 . S
C3772 C3773 1.287 . S
C3773 C3772 1.287 . S
C3773 C3774 1.524 . S
C3773 H3776 0.999 . S
C3774 H3744 0.950 . S
C3774 C3773 1.524 . S
C3774 C3775 1.415 . S
C3775 H3745 0.950 . S
C3775 C3770 1.363 . S
C3775 C3774 1.415 . S
H3776 C3773 0.999 . S
H3777 C3758 0.913 . S
H3778 C3796 0.951 . S
H3779 C3798 0.951 . S
H3780 C3800 0.950 . S
H3781 C3801 0.950 . S
H3782 C3803 0.950 . S
H3783 C3806 0.950 . S
H3784 C3807 0.950 . S
H3785 C3809 0.950 . S
H3786 C3810 0.950 . S
H3787 C3811 0.951 . S
H3788 C3813 0.951 . S
H3789 C3815 0.950 . S
H3790 C3816 0.950 . S
H3791 C3818 0.950 . S
H3792 C3821 0.950 . S
H3793 C3822 0.950 . S
H3794 C3824 0.950 . S
H3795 C3825 0.950 . S
C3796 H3778 0.951 . S
C3796 C3797 1.366 . S
C3796 C3798 1.388 . S
C3797 C3796 1.366 . S
C3797 C3801 1.385 . S
C3798 H3779 0.951 . S
C3798 C3796 1.388 . S
C3798 C3799 1.366 . S
C3799 C3798 1.366 . S
C3799 C3800 1.414 . S
C3799 C3802 1.499 . S
C3800 H3780 0.950 . S
C3800 C3799 1.414 . S
C3800 C3801 1.374 . S
C3801 H3781 0.950 . S
C3801 C3797 1.385 . S
C3801 C3800 1.374 . S
C3802 C3799 1.499 . S
C3802 C3803 1.373 . S
C3802 C3804 1.389 . S
C3803 H3782 0.950 . S
C3803 C3802 1.373 . S
C3803 C3819 1.377 . S
C3804 C3802 1.389 . S
C3804 C3805 1.524 . S
C3804 C3818 1.377 . S
C3805 C3804 1.524 . S
C3805 C3806 1.397 . S
C3805 C3810 1.363 . S
C3806 H3783 0.950 . S
C3806 C3805 1.397 . S
C3806 C3807 1.334 . S
C3807 H3784 0.950 . S
C3807 C3806 1.334 . S
C3807 C3808 1.287 . S
C3808 C3807 1.287 . S
C3808 C3809 1.524 . S
C3808 H3827 0.913 . S
C3809 H3785 0.950 . S
C3809 C3808 1.524 . S
C3809 C3810 1.415 . S
C3810 H3786 0.950 . S
C3810 C3805 1.363 . S
C3810 C3809 1.415 . S
C3811 H3787 0.951 . S
C3811 C3812 1.366 . S
C3811 C3813 1.388 . S
C3812 C3811 1.366 . S
C3812 C3816 1.385 . S
C3813 H3788 0.951 . S
C3813 C3811 1.388 . S
C3813 C3814 1.366 . S
C3814 C3813 1.366 . S
C3814 C3815 1.414 . S
C3814 C3817 1.499 . S
C3815 H3789 0.950 . S
C3815 C3814 1.414 . S
C3815 C3816 1.374 . S
C3816 H3790 0.950 . S
C3816 C3812 1.385 . S
C3816 C3815 1.374 . S
C3817 C3814 1.499 . S
C3817 C3818 1.373 . S
C3817 C3819 1.389 . S
C3818 H3791 0.950 . S
C3818 C3804 1.377 . S
C3818 C3817 1.373 . S
C3819 C3803 1.377 . S
C3819 C3817 1.389 . S
C3819 C3820 1.524 . S
C3820 C3819 1.524 . S
C3820 C3821 1.397 . S
C3820 C3825 1.363 . S
C3821 H3792 0.950 . S
C3821 C3820 1.397 . S
C3821 C3822 1.334 . S
C3822 H3793 0.950 . S
C3822 C3821 1.334 . S
C3822 C3823 1.287 . S
C3823 C3822 1.287 . S
C3823 C3824 1.524 . S
C3823 H3826 0.999 . S
C3824 H3794 0.950 . S
C3824 C3823 1.524 . S
C3824 C3825 1.415 . S
C3825 H3795 0.950 . S
C3825 C3820 1.363 . S
C3825 C3824 1.415 . S
H3826 C3823 0.999 . S
H3827 C3808 0.913 . S
H3828 C3846 0.951 . S
H3829 C3848 0.951 . S
H3830 C3850 0.950 . S
H3831 C3851 0.950 . S
H3832 C3853 0.950 . S
H3833 C3856 0.950 . S
H3834 C3857 0.950 . S
H3835 C3859 0.950 . S
H3836 C3860 0.950 . S
H3837 C3861 0.951 . S
H3838 C3863 0.951 . S
H3839 C3865 0.950 . S
H3840 C3866 0.950 . S
H3841 C3868 0.950 . S
H3842 C3871 0.950 . S
H3843 C3872 0.950 . S
H3844 C3874 0.950 . S
H3845 C3875 0.950 . S
C3846 H3828 0.951 . S
C3846 C3847 1.366 . S
C3846 C3848 1.388 . S
C3847 C3846 1.366 . S
C3847 C3851 1.385 . S
C3848 H3829 0.951 . S
C3848 C3846 1.388 . S
C3848 C3849 1.366 . S
C3849 C3848 1.366 . S
C3849 C3850 1.414 . S
C3849 C3852 1.499 . S
C3850 H3830 0.950 . S
C3850 C3849 1.414 . S
C3850 C3851 1.374 . S
C3851 H3831 0.950 . S
C3851 C3847 1.385 . S
C3851 C3850 1.374 . S
C3852 C3849 1.499 . S
C3852 C3853 1.373 . S
C3852 C3854 1.389 . S
C3853 H3832 0.950 . S
C3853 C3852 1.373 . S
C3853 C3869 1.377 . S
C3854 C3852 1.389 . S
C3854 C3855 1.524 . S
C3854 C3868 1.377 . S
C3855 C3854 1.524 . S
C3855 C3856 1.397 . S
C3855 C3860 1.363 . S
C3856 H3833 0.950 . S
C3856 C3855 1.397 . S
C3856 C3857 1.334 . S
C3857 H3834 0.950 . S
C3857 C3856 1.334 . S
C3857 C3858 1.287 . S
C3858 C3857 1.287 . S
C3858 C3859 1.524 . S
C3858 H3877 0.913 . S
C3859 H3835 0.950 . S
C3859 C3858 1.524 . S
C3859 C3860 1.415 . S
C3860 H3836 0.950 . S
C3860 C3855 1.363 . S
C3860 C3859 1.415 . S
C3861 H3837 0.951 . S
C3861 C3862 1.366 . S
C3861 C3863 1.388 . S
C3862 C3861 1.366 . S
C3862 C3866 1.385 . S
C3863 H3838 0.951 . S
C3863 C3861 1.388 . S
C3863 C3864 1.366 . S
C3864 C3863 1.366 . S
C3864 C3865 1.414 . S
C3864 C3867 1.499 . S
C3865 H3839 0.950 . S
C3865 C3864 1.414 . S
C3865 C3866 1.374 . S
C3866 H3840 0.950 . S
C3866 C3862 1.385 . S
C3866 C3865 1.374 . S
C3867 C3864 1.499 . S
C3867 C3868 1.373 . S
C3867 C3869 1.389 . S
C3868 H3841 0.950 . S
C3868 C3854 1.377 . S
C3868 C3867 1.373 . S
C3869 C3853 1.377 . S
C3869 C3867 1.389 . S
C3869 C3870 1.524 . S
C3870 C3869 1.524 . S
C3870 C3871 1.397 . S
C3870 C3875 1.363 . S
C3871 H3842 0.950 . S
C3871 C3870 1.397 . S
C3871 C3872 1.334 . S
C3872 H3843 0.950 . S
C3872 C3871 1.334 . S
C3872 C3873 1.287 . S
C3873 C3872 1.287 . S
C3873 C3874 1.524 . S
C3873 H3876 0.999 . S
C3874 H3844 0.950 . S
C3874 C3873 1.524 . S
C3874 C3875 1.415 . S
C3875 H3845 0.950 . S
C3875 C3870 1.363 . S
C3875 C3874 1.415 . S
H3876 C3873 0.999 . S
H3877 C3858 0.913 . S
H3878 C3896 0.951 1_655 S
H3879 C3898 0.954 1_655 S
H3880 C3900 0.950 . S
H3881 C3901 0.950 . S
H3882 C3903 0.950 . S
H3883 C3906 0.950 . S
H3884 C3907 0.950 . S
H3885 C3909 0.950 . S
H3886 C3910 0.950 . S
H3887 C3911 0.951 . S
H3888 C3913 0.951 . S
H3889 C3915 0.950 . S
H3890 C3916 0.950 . S
H3891 C3918 0.950 . S
H3892 C3921 0.950 . S
H3893 C3922 0.950 . S
H3894 C3924 0.950 . S
H3895 C3925 0.950 . S
C3896 H3878 0.951 1_455 S
C3896 C3897 1.366 . S
C3896 C3898 1.388 . S
C3897 C3896 1.366 . S
C3897 C3901 1.385 . S
C3898 H3879 0.954 1_455 S
C3898 C3896 1.388 . S
C3898 C3899 1.366 . S
C3899 C3898 1.366 . S
C3899 C3900 1.414 . S
C3899 C3902 1.499 . S
C3900 H3880 0.950 . S
C3900 C3899 1.414 . S
C3900 C3901 1.374 . S
C3901 H3881 0.950 . S
C3901 C3897 1.385 . S
C3901 C3900 1.374 . S
C3902 C3899 1.499 . S
C3902 C3903 1.373 . S
C3902 C3904 1.389 . S
C3903 H3882 0.950 . S
C3903 C3902 1.373 . S
C3903 C3919 1.377 . S
C3904 C3902 1.389 . S
C3904 C3905 1.524 . S
C3904 C3918 1.377 . S
C3905 C3904 1.524 . S
C3905 C3906 1.397 . S
C3905 C3910 1.363 . S
C3906 H3883 0.950 . S
C3906 C3905 1.397 . S
C3906 C3907 1.334 . S
C3907 H3884 0.950 . S
C3907 C3906 1.334 . S
C3907 C3908 1.287 . S
C3908 C3907 1.287 . S
C3908 C3909 1.524 . S
C3908 H3927 0.913 . S
C3909 H3885 0.950 . S
C3909 C3908 1.524 . S
C3909 C3910 1.415 . S
C3910 H3886 0.950 . S
C3910 C3905 1.363 . S
C3910 C3909 1.415 . S
C3911 H3887 0.951 . S
C3911 C3912 1.366 . S
C3911 C3913 1.388 . S
C3912 C3911 1.366 . S
C3912 C3916 1.385 . S
C3913 H3888 0.951 . S
C3913 C3911 1.388 . S
C3913 C3914 1.366 . S
C3914 C3913 1.366 . S
C3914 C3915 1.414 . S
C3914 C3917 1.499 . S
C3915 H3889 0.950 . S
C3915 C3914 1.414 . S
C3915 C3916 1.374 . S
C3916 H3890 0.950 . S
C3916 C3912 1.385 . S
C3916 C3915 1.374 . S
C3917 C3914 1.499 . S
C3917 C3918 1.373 . S
C3917 C3919 1.389 . S
C3918 H3891 0.950 . S
C3918 C3904 1.377 . S
C3918 C3917 1.373 . S
C3919 C3903 1.377 . S
C3919 C3917 1.389 . S
C3919 C3920 1.524 . S
C3920 C3919 1.524 . S
C3920 C3921 1.397 1_455 S
C3920 C3925 1.363 . S
C3921 H3892 0.950 . S
C3921 C3920 1.397 1_655 S
C3921 C3922 1.334 . S
C3922 H3893 0.950 . S
C3922 C3921 1.334 . S
C3922 C3923 1.287 . S
C3923 C3922 1.287 . S
C3923 C3924 1.524 1_655 S
C3923 H3926 0.999 . S
C3924 H3894 0.950 . S
C3924 C3923 1.524 1_455 S
C3924 C3925 1.415 . S
C3925 H3895 0.950 . S
C3925 C3920 1.363 . S
C3925 C3924 1.415 . S
H3926 C3923 0.999 . S
H3927 C3908 0.913 . S
H3928 C3946 0.951 . S
H3929 C3948 0.951 . S
H3930 C3950 0.950 . S
H3931 C3951 0.950 . S
H3932 C3953 0.950 . S
H3933 C3956 0.950 . S
H3934 C3957 0.950 . S
H3935 C3959 0.950 . S
H3936 C3960 0.950 . S
H3937 C3961 0.951 . S
H3938 C3963 0.951 . S
H3939 C3965 0.950 . S
H3940 C3966 0.950 . S
H3941 C3968 0.950 . S
H3942 C3971 0.950 . S
H3943 C3972 0.950 . S
H3944 C3974 0.950 . S
H3945 C3975 0.950 . S
C3946 H3928 0.951 . S
C3946 C3947 1.366 . S
C3946 C3948 1.388 . S
C3947 C3946 1.366 . S
C3947 C3951 1.385 . S
C3948 H3929 0.951 . S
C3948 C3946 1.388 . S
C3948 C3949 1.366 . S
C3949 C3948 1.366 . S
C3949 C3950 1.414 . S
C3949 C3952 1.499 . S
C3950 H3930 0.950 . S
C3950 C3949 1.414 . S
C3950 C3951 1.374 . S
C3951 H3931 0.950 . S
C3951 C3947 1.385 . S
C3951 C3950 1.374 . S
C3952 C3949 1.499 . S
C3952 C3953 1.373 . S
C3952 C3954 1.389 . S
C3953 H3932 0.950 . S
C3953 C3952 1.373 . S
C3953 C3969 1.377 . S
C3954 C3952 1.389 . S
C3954 C3955 1.524 . S
C3954 C3968 1.377 . S
C3955 C3954 1.524 . S
C3955 C3956 1.397 . S
C3955 C3960 1.363 . S
C3956 H3933 0.950 . S
C3956 C3955 1.397 . S
C3956 C3957 1.334 . S
C3957 H3934 0.950 . S
C3957 C3956 1.334 . S
C3957 C3958 1.287 . S
C3958 C3957 1.287 . S
C3958 C3959 1.524 . S
C3958 H3977 0.913 . S
C3959 H3935 0.950 . S
C3959 C3958 1.524 . S
C3959 C3960 1.415 . S
C3960 H3936 0.950 . S
C3960 C3955 1.363 . S
C3960 C3959 1.415 . S
C3961 H3937 0.951 . S
C3961 C3962 1.366 . S
C3961 C3963 1.388 . S
C3962 C3961 1.366 . S
C3962 C3966 1.385 . S
C3963 H3938 0.951 . S
C3963 C3961 1.388 . S
C3963 C3964 1.366 . S
C3964 C3963 1.366 . S
C3964 C3965 1.414 . S
C3964 C3967 1.499 . S
C3965 H3939 0.950 . S
C3965 C3964 1.414 . S
C3965 C3966 1.374 . S
C3966 H3940 0.950 . S
C3966 C3962 1.385 . S
C3966 C3965 1.374 . S
C3967 C3964 1.499 . S
C3967 C3968 1.373 . S
C3967 C3969 1.389 . S
C3968 H3941 0.950 . S
C3968 C3954 1.377 . S
C3968 C3967 1.373 . S
C3969 C3953 1.377 . S
C3969 C3967 1.389 . S
C3969 C3970 1.524 . S
C3970 C3969 1.524 . S
C3970 C3971 1.397 . S
C3970 C3975 1.363 . S
C3971 H3942 0.950 . S
C3971 C3970 1.397 . S
C3971 C3972 1.334 . S
C3972 H3943 0.950 . S
C3972 C3971 1.334 . S
C3972 C3973 1.287 . S
C3973 C3972 1.287 . S
C3973 C3974 1.524 . S
C3973 H3976 0.999 . S
C3974 H3944 0.950 . S
C3974 C3973 1.524 . S
C3974 C3975 1.415 . S
C3975 H3945 0.950 . S
C3975 C3970 1.363 . S
C3975 C3974 1.415 . S
H3976 C3973 0.999 . S
H3977 C3958 0.913 . S
H3978 C3996 0.951 . S
H3979 C3998 0.951 . S
H3980 C4000 0.950 . S
H3981 C4001 0.950 . S
H3982 C4003 0.950 . S
H3983 C4006 0.950 . S
H3984 C4007 0.950 . S
H3985 C4009 0.950 . S
H3986 C4010 0.950 . S
H3987 C4011 0.951 . S
H3988 C4013 0.951 . S
H3989 C4015 0.950 . S
H3990 C4016 0.950 . S
H3991 C4018 0.950 . S
H3992 C4021 0.950 . S
H3993 C4022 0.950 . S
H3994 C4024 0.950 . S
H3995 C4025 0.950 . S
C3996 H3978 0.951 . S
C3996 C3997 1.366 . S
C3996 C3998 1.388 . S
C3997 C3996 1.366 . S
C3997 C4001 1.385 . S
C3998 H3979 0.951 . S
C3998 C3996 1.388 . S
C3998 C3999 1.366 . S
C3999 C3998 1.366 . S
C3999 C4000 1.414 . S
C3999 C4002 1.499 . S
C4000 H3980 0.950 . S
C4000 C3999 1.414 . S
C4000 C4001 1.374 . S
C4001 H3981 0.950 . S
C4001 C3997 1.385 . S
C4001 C4000 1.374 . S
C4002 C3999 1.499 . S
C4002 C4003 1.373 . S
C4002 C4004 1.389 . S
C4003 H3982 0.950 . S
C4003 C4002 1.373 . S
C4003 C4019 1.377 . S
C4004 C4002 1.389 . S
C4004 C4005 1.524 . S
C4004 C4018 1.377 . S
C4005 C4004 1.524 . S
C4005 C4006 1.397 . S
C4005 C4010 1.363 . S
C4006 H3983 0.950 . S
C4006 C4005 1.397 . S
C4006 C4007 1.334 . S
C4007 H3984 0.950 . S
C4007 C4006 1.334 . S
C4007 C4008 1.287 . S
C4008 C4007 1.287 . S
C4008 C4009 1.524 . S
C4008 H4027 0.913 . S
C4009 H3985 0.950 . S
C4009 C4008 1.524 . S
C4009 C4010 1.415 . S
C4010 H3986 0.950 . S
C4010 C4005 1.363 . S
C4010 C4009 1.415 . S
C4011 H3987 0.951 . S
C4011 C4012 1.366 . S
C4011 C4013 1.388 . S
C4012 C4011 1.366 . S
C4012 C4016 1.385 . S
C4013 H3988 0.951 . S
C4013 C4011 1.388 . S
C4013 C4014 1.366 . S
C4014 C4013 1.366 . S
C4014 C4015 1.414 . S
C4014 C4017 1.499 . S
C4015 H3989 0.950 . S
C4015 C4014 1.414 . S
C4015 C4016 1.374 . S
C4016 H3990 0.950 . S
C4016 C4012 1.385 . S
C4016 C4015 1.374 . S
C4017 C4014 1.499 . S
C4017 C4018 1.373 . S
C4017 C4019 1.389 . S
C4018 H3991 0.950 . S
C4018 C4004 1.377 . S
C4018 C4017 1.373 . S
C4019 C4003 1.377 . S
C4019 C4017 1.389 . S
C4019 C4020 1.524 . S
C4020 C4019 1.524 . S
C4020 C4021 1.397 . S
C4020 C4025 1.363 . S
C4021 H3992 0.950 . S
C4021 C4020 1.397 . S
C4021 C4022 1.334 . S
C4022 H3993 0.950 . S
C4022 C4021 1.334 . S
C4022 C4023 1.287 . S
C4023 C4022 1.287 . S
C4023 C4024 1.524 . S
C4023 H4026 0.999 . S
C4024 H3994 0.950 . S
C4024 C4023 1.524 . S
C4024 C4025 1.415 . S
C4025 H3995 0.950 . S
C4025 C4020 1.363 . S
C4025 C4024 1.415 . S
H4026 C4023 0.999 . S
H4027 C4008 0.913 . S
H4028 C4046 0.951 . S
H4029 C4048 0.951 . S
H4030 C4050 0.950 . S
H4031 C4051 0.950 . S
H4032 C4053 0.950 . S
H4033 C4056 0.950 . S
H4034 C4057 0.950 . S
H4035 C4059 0.950 . S
H4036 C4060 0.950 . S
H4037 C4061 0.951 . S
H4038 C4063 0.951 . S
H4039 C4065 0.950 1_556 S
H4040 C4066 0.950 . S
H4041 C4068 0.950 . S
H4042 C4071 0.950 . S
H4043 C4072 0.950 . S
H4044 C4074 0.950 . S
H4045 C4075 0.950 . S
C4046 H4028 0.951 . S
C4046 C4047 1.366 . S
C4046 C4048 1.388 . S
C4047 C4046 1.366 . S
C4047 C4051 1.385 . S
C4048 H4029 0.951 . S
C4048 C4046 1.388 . S
C4048 C4049 1.366 . S
C4049 C4048 1.366 . S
C4049 C4050 1.414 . S
C4049 C4052 1.499 . S
C4050 H4030 0.950 . S
C4050 C4049 1.414 . S
C4050 C4051 1.374 . S
C4051 H4031 0.950 . S
C4051 C4047 1.385 . S
C4051 C4050 1.374 . S
C4052 C4049 1.499 . S
C4052 C4053 1.373 . S
C4052 C4054 1.389 . S
C4053 H4032 0.950 . S
C4053 C4052 1.373 . S
C4053 C4069 1.377 . S
C4054 C4052 1.389 . S
C4054 C4055 1.524 . S
C4054 C4068 1.377 . S
C4055 C4054 1.524 . S
C4055 C4056 1.397 . S
C4055 C4060 1.363 . S
C4056 H4033 0.950 . S
C4056 C4055 1.397 . S
C4056 C4057 1.334 . S
C4057 H4034 0.950 . S
C4057 C4056 1.334 . S
C4057 C4058 1.287 . S
C4058 C4057 1.287 . S
C4058 C4059 1.524 . S
C4058 H4077 0.913 . S
C4059 H4035 0.950 . S
C4059 C4058 1.524 . S
C4059 C4060 1.415 . S
C4060 H4036 0.950 . S
C4060 C4055 1.363 . S
C4060 C4059 1.415 . S
C4061 H4037 0.951 . S
C4061 C4062 1.366 1_554 S
C4061 C4063 1.388 . S
C4062 C4061 1.366 1_556 S
C4062 C4066 1.385 . S
C4063 H4038 0.951 . S
C4063 C4061 1.388 . S
C4063 C4064 1.366 . S
C4064 C4063 1.366 . S
C4064 C4065 1.414 . S
C4064 C4067 1.499 . S
C4065 H4039 0.950 1_554 S
C4065 C4064 1.414 . S
C4065 C4066 1.374 1_554 S
C4066 H4040 0.950 . S
C4066 C4062 1.385 . S
C4066 C4065 1.374 1_556 S
C4067 C4064 1.499 . S
C4067 C4068 1.373 . S
C4067 C4069 1.389 . S
C4068 H4041 0.950 . S
C4068 C4054 1.377 . S
C4068 C4067 1.373 . S
C4069 C4053 1.377 . S
C4069 C4067 1.389 . S
C4069 C4070 1.524 . S
C4070 C4069 1.524 . S
C4070 C4071 1.397 . S
C4070 C4075 1.363 . S
C4071 H4042 0.950 . S
C4071 C4070 1.397 . S
C4071 C4072 1.334 . S
C4072 H4043 0.950 . S
C4072 C4071 1.334 . S
C4072 C4073 1.287 . S
C4073 C4072 1.287 . S
C4073 C4074 1.524 . S
C4073 H4076 0.999 . S
C4074 H4044 0.950 . S
C4074 C4073 1.524 . S
C4074 C4075 1.415 . S
C4075 H4045 0.950 . S
C4075 C4070 1.363 . S
C4075 C4074 1.415 . S
H4076 C4073 0.999 . S
H4077 C4058 0.913 . S
H4078 C4096 0.951 . S
H4079 C4098 0.951 . S
H4080 C4100 0.950 . S
H4081 C4101 0.950 . S
H4082 C4103 0.950 . S
H4083 C4106 0.950 . S
H4084 C4107 0.950 . S
H4085 C4109 0.950 . S
H4086 C4110 0.950 . S
H4087 C4111 0.951 . S
H4088 C4113 0.951 . S
H4089 C4115 0.950 . S
H4090 C4116 0.950 . S
H4091 C4118 0.950 . S
H4092 C4121 0.950 . S
H4093 C4122 0.950 . S
H4094 C4124 0.950 . S
H4095 C4125 0.950 . S
C4096 H4078 0.951 . S
C4096 C4097 1.366 . S
C4096 C4098 1.388 . S
C4097 C4096 1.366 . S
C4097 C4101 1.385 . S
C4098 H4079 0.951 . S
C4098 C4096 1.388 . S
C4098 C4099 1.366 . S
C4099 C4098 1.366 . S
C4099 C4100 1.414 . S
C4099 C4102 1.499 . S
C4100 H4080 0.950 . S
C4100 C4099 1.414 . S
C4100 C4101 1.374 . S
C4101 H4081 0.950 . S
C4101 C4097 1.385 . S
C4101 C4100 1.374 . S
C4102 C4099 1.499 . S
C4102 C4103 1.373 . S
C4102 C4104 1.389 . S
C4103 H4082 0.950 . S
C4103 C4102 1.373 . S
C4103 C4119 1.377 . S
C4104 C4102 1.389 . S
C4104 C4105 1.524 . S
C4104 C4118 1.377 . S
C4105 C4104 1.524 . S
C4105 C4106 1.397 . S
C4105 C4110 1.363 . S
C4106 H4083 0.950 . S
C4106 C4105 1.397 . S
C4106 C4107 1.334 . S
C4107 H4084 0.950 . S
C4107 C4106 1.334 . S
C4107 C4108 1.287 . S
C4108 C4107 1.287 . S
C4108 C4109 1.524 . S
C4108 H4127 0.913 . S
C4109 H4085 0.950 . S
C4109 C4108 1.524 . S
C4109 C4110 1.415 . S
C4110 H4086 0.950 . S
C4110 C4105 1.363 . S
C4110 C4109 1.415 . S
C4111 H4087 0.951 . S
C4111 C4112 1.366 . S
C4111 C4113 1.388 . S
C4112 C4111 1.366 . S
C4112 C4116 1.385 . S
C4113 H4088 0.951 . S
C4113 C4111 1.388 . S
C4113 C4114 1.366 . S
C4114 C4113 1.366 . S
C4114 C4115 1.414 . S
C4114 C4117 1.499 . S
C4115 H4089 0.950 . S
C4115 C4114 1.414 . S
C4115 C4116 1.374 . S
C4116 H4090 0.950 . S
C4116 C4112 1.385 . S
C4116 C4115 1.374 . S
C4117 C4114 1.499 . S
C4117 C4118 1.373 . S
C4117 C4119 1.389 . S
C4118 H4091 0.950 . S
C4118 C4104 1.377 . S
C4118 C4117 1.373 . S
C4119 C4103 1.377 . S
C4119 C4117 1.389 . S
C4119 C4120 1.524 . S
C4120 C4119 1.524 . S
C4120 C4121 1.397 . S
C4120 C4125 1.363 . S
C4121 H4092 0.950 . S
C4121 C4120 1.397 . S
C4121 C4122 1.334 . S
C4122 H4093 0.950 . S
C4122 C4121 1.334 . S
C4122 C4123 1.287 . S
C4123 C4122 1.287 . S
C4123 C4124 1.524 . S
C4123 H4126 0.999 . S
C4124 H4094 0.950 . S
C4124 C4123 1.524 . S
C4124 C4125 1.415 . S
C4125 H4095 0.950 . S
C4125 C4120 1.363 . S
C4125 C4124 1.415 . S
H4126 C4123 0.999 . S
H4127 C4108 0.913 . S
H4128 C4146 0.951 . S
H4129 C4148 0.951 . S
H4130 C4150 0.950 . S
H4131 C4151 0.950 . S
H4132 C4153 0.950 . S
H4133 C4156 0.950 . S
H4134 C4157 0.950 . S
H4135 C4159 0.950 1_655 S
H4136 C4160 0.950 1_655 S
H4137 C4161 0.951 . S
H4138 C4163 0.951 . S
H4139 C4165 0.950 . S
H4140 C4166 0.950 . S
H4141 C4168 0.950 . S
H4142 C4171 0.950 1_655 S
H4143 C4172 0.950 1_655 S
H4144 C4174 0.950 . S
H4145 C4175 0.950 . S
C4146 H4128 0.951 . S
C4146 C4147 1.366 . S
C4146 C4148 1.388 . S
C4147 C4146 1.366 . S
C4147 C4151 1.385 . S
C4148 H4129 0.951 . S
C4148 C4146 1.388 . S
C4148 C4149 1.366 . S
C4149 C4148 1.366 . S
C4149 C4150 1.414 . S
C4149 C4152 1.499 . S
C4150 H4130 0.950 . S
C4150 C4149 1.414 . S
C4150 C4151 1.374 . S
C4151 H4131 0.950 . S
C4151 C4147 1.385 . S
C4151 C4150 1.374 . S
C4152 C4149 1.499 . S
C4152 C4153 1.373 . S
C4152 C4154 1.389 . S
C4153 H4132 0.950 . S
C4153 C4152 1.373 . S
C4153 C4169 1.377 . S
C4154 C4152 1.389 . S
C4154 C4155 1.524 . S
C4154 C4168 1.377 . S
C4155 C4154 1.524 . S
C4155 C4156 1.397 . S
C4155 C4160 1.363 . S
C4156 H4133 0.950 . S
C4156 C4155 1.397 . S
C4156 C4157 1.334 . S
C4157 H4134 0.950 . S
C4157 C4156 1.334 . S
C4157 C4158 1.287 . S
C4158 C4157 1.287 . S
C4158 C4159 1.524 . S
C4158 H4177 0.913 . S
C4159 H4135 0.950 1_455 S
C4159 C4158 1.524 . S
C4159 C4160 1.415 . S
C4160 H4136 0.950 1_455 S
C4160 C4155 1.363 . S
C4160 C4159 1.415 . S
C4161 H4137 0.951 . S
C4161 C4162 1.366 . S
C4161 C4163 1.388 . S
C4162 C4161 1.366 . S
C4162 C4166 1.385 1_455 S
C4163 H4138 0.951 . S
C4163 C4161 1.388 . S
C4163 C4164 1.366 . S
C4164 C4163 1.366 . S
C4164 C4165 1.414 1_455 S
C4164 C4167 1.499 . S
C4165 H4139 0.950 . S
C4165 C4164 1.414 1_655 S
C4165 C4166 1.374 . S
C4166 H4140 0.950 . S
C4166 C4162 1.385 1_655 S
C4166 C4165 1.374 . S
C4167 C4164 1.499 . S
C4167 C4168 1.373 . S
C4167 C4169 1.389 . S
C4168 H4141 0.950 . S
C4168 C4154 1.377 . S
C4168 C4167 1.373 . S
C4169 C4153 1.377 . S
C4169 C4167 1.389 . S
C4169 C4170 1.524 . S
C4170 C4169 1.524 . S
C4170 C4171 1.397 . S
C4170 C4175 1.363 . S
C4171 H4142 0.950 1_455 S
C4171 C4170 1.397 . S
C4171 C4172 1.334 . S
C4172 H4143 0.950 1_455 S
C4172 C4171 1.334 . S
C4172 C4173 1.287 . S
C4173 C4172 1.287 . S
C4173 C4174 1.524 . S
C4173 H4176 0.999 . S
C4174 H4144 0.950 . S
C4174 C4173 1.524 . S
C4174 C4175 1.415 . S
C4175 H4145 0.950 . S
C4175 C4170 1.363 . S
C4175 C4174 1.415 . S
H4176 C4173 0.999 . S
H4177 C4158 0.913 . S
H4178 C4196 0.951 . S
H4179 C4198 0.951 . S
H4180 C4200 0.950 . S
H4181 C4201 0.950 . S
H4182 C4203 0.950 . S
H4183 C4206 0.950 . S
H4184 C4207 0.950 . S
H4185 C4209 0.950 . S
H4186 C4210 0.950 . S
H4187 C4211 0.951 1_655 S
H4188 C4213 0.951 . S
H4189 C4215 0.950 . S
H4190 C4216 0.950 . S
H4191 C4218 0.950 . S
H4192 C4221 0.950 . S
H4193 C4222 0.950 . S
H4194 C4224 0.950 . S
H4195 C4225 0.950 . S
C4196 H4178 0.951 . S
C4196 C4197 1.366 . S
C4196 C4198 1.388 . S
C4197 C4196 1.366 . S
C4197 C4201 1.385 . S
C4198 H4179 0.951 . S
C4198 C4196 1.388 . S
C4198 C4199 1.366 . S
C4199 C4198 1.366 . S
C4199 C4200 1.414 . S
C4199 C4202 1.499 . S
C4200 H4180 0.950 . S
C4200 C4199 1.414 . S
C4200 C4201 1.374 . S
C4201 H4181 0.950 . S
C4201 C4197 1.385 . S
C4201 C4200 1.374 . S
C4202 C4199 1.499 . S
C4202 C4203 1.373 . S
C4202 C4204 1.389 . S
C4203 H4182 0.950 . S
C4203 C4202 1.373 . S
C4203 C4219 1.377 . S
C4204 C4202 1.389 . S
C4204 C4205 1.524 . S
C4204 C4218 1.377 . S
C4205 C4204 1.524 . S
C4205 C4206 1.397 . S
C4205 C4210 1.363 . S
C4206 H4183 0.950 . S
C4206 C4205 1.397 . S
C4206 C4207 1.334 . S
C4207 H4184 0.950 . S
C4207 C4206 1.334 . S
C4207 C4208 1.287 . S
C4208 C4207 1.287 . S
C4208 C4209 1.524 . S
C4208 H4227 0.913 . S
C4209 H4185 0.950 . S
C4209 C4208 1.524 . S
C4209 C4210 1.415 . S
C4210 H4186 0.950 . S
C4210 C4205 1.363 . S
C4210 C4209 1.415 . S
C4211 H4187 0.951 1_455 S
C4211 C4212 1.388 . S
C4211 C4213 1.388 . S
C4212 C4211 1.388 . S
C4212 C4216 1.438 . S
C4213 H4188 0.951 . S
C4213 C4211 1.388 . S
C4213 C4214 1.366 . S
C4214 C4213 1.366 . S
C4214 C4215 1.414 . S
C4214 C4217 1.499 . S
C4215 H4189 0.950 . S
C4215 C4214 1.414 . S
C4215 C4216 1.374 . S
C4216 H4190 0.950 . S
C4216 C4212 1.438 . S
C4216 C4215 1.374 . S
C4217 C4214 1.499 . S
C4217 C4218 1.373 . S
C4217 C4219 1.389 . S
C4218 H4191 0.950 . S
C4218 C4204 1.377 . S
C4218 C4217 1.373 . S
C4219 C4203 1.377 . S
C4219 C4217 1.389 . S
C4219 C4220 1.524 . S
C4220 C4219 1.524 . S
C4220 C4221 1.397 . S
C4220 C4225 1.363 . S
C4221 H4192 0.950 . S
C4221 C4220 1.397 . S
C4221 C4222 1.334 . S
C4222 H4193 0.950 . S
C4222 C4221 1.334 . S
C4222 C4223 1.287 . S
C4223 C4222 1.287 . S
C4223 C4224 1.524 . S
C4223 H4226 0.999 . S
C4224 H4194 0.950 . S
C4224 C4223 1.524 . S
C4224 C4225 1.415 . S
C4225 H4195 0.950 . S
C4225 C4220 1.363 . S
C4225 C4224 1.415 . S
H4226 C4223 0.999 . S
H4227 C4208 0.913 . S
H4228 C4246 0.951 . S
H4229 C4248 0.951 . S
H4230 C4250 0.950 . S
H4231 C4251 0.950 . S
H4232 C4253 0.950 . S
H4233 C4256 0.950 . S
H4234 C4257 0.950 . S
H4235 C4259 0.950 . S
H4236 C4260 0.950 . S
H4237 C4261 0.951 . S
H4238 C4263 0.951 . S
H4239 C4265 0.950 . S
H4240 C4266 0.950 . S
H4241 C4268 0.950 . S
H4242 C4271 0.950 . S
H4243 C4272 0.950 . S
H4244 C4274 0.950 . S
H4245 C4275 0.950 . S
C4246 H4228 0.951 . S
C4246 C4247 1.366 . S
C4246 C4248 1.388 . S
C4247 C4246 1.366 . S
C4247 C4251 1.385 . S
C4248 H4229 0.951 . S
C4248 C4246 1.388 . S
C4248 C4249 1.366 . S
C4249 C4248 1.366 . S
C4249 C4250 1.414 . S
C4249 C4252 1.499 . S
C4250 H4230 0.950 . S
C4250 C4249 1.414 . S
C4250 C4251 1.374 . S
C4251 H4231 0.950 . S
C4251 C4247 1.385 . S
C4251 C4250 1.374 . S
C4252 C4249 1.499 . S
C4252 C4253 1.373 . S
C4252 C4254 1.389 . S
C4253 H4232 0.950 . S
C4253 C4252 1.373 . S
C4253 C4269 1.377 . S
C4254 C4252 1.389 . S
C4254 C4255 1.524 . S
C4254 C4268 1.377 . S
C4255 C4254 1.524 . S
C4255 C4256 1.397 . S
C4255 C4260 1.363 . S
C4256 H4233 0.950 . S
C4256 C4255 1.397 . S
C4256 C4257 1.334 . S
C4257 H4234 0.950 . S
C4257 C4256 1.334 . S
C4257 C4258 1.287 . S
C4258 C4257 1.287 . S
C4258 C4259 1.524 . S
C4258 H4277 0.913 . S
C4259 H4235 0.950 . S
C4259 C4258 1.524 . S
C4259 C4260 1.415 . S
C4260 H4236 0.950 . S
C4260 C4255 1.363 . S
C4260 C4259 1.415 . S
C4261 H4237 0.951 . S
C4261 C4262 1.366 . S
C4261 C4263 1.388 . S
C4262 C4261 1.366 . S
C4262 C4266 1.385 . S
C4263 H4238 0.951 . S
C4263 C4261 1.388 . S
C4263 C4264 1.366 . S
C4264 C4263 1.366 . S
C4264 C4265 1.414 . S
C4264 C4267 1.499 . S
C4265 H4239 0.950 . S
C4265 C4264 1.414 . S
C4265 C4266 1.374 . S
C4266 H4240 0.950 . S
C4266 C4262 1.385 . S
C4266 C4265 1.374 . S
C4267 C4264 1.499 . S
C4267 C4268 1.373 . S
C4267 C4269 1.389 . S
C4268 H4241 0.950 . S
C4268 C4254 1.377 . S
C4268 C4267 1.373 . S
C4269 C4253 1.377 . S
C4269 C4267 1.389 . S
C4269 C4270 1.524 . S
C4270 C4269 1.524 . S
C4270 C4271 1.397 . S
C4270 C4275 1.363 . S
C4271 H4242 0.950 . S
C4271 C4270 1.397 . S
C4271 C4272 1.334 . S
C4272 H4243 0.950 . S
C4272 C4271 1.334 . S
C4272 C4273 1.287 . S
C4273 C4272 1.287 . S
C4273 C4274 1.524 . S
C4273 H4276 0.999 . S
C4274 H4244 0.950 . S
C4274 C4273 1.524 . S
C4274 C4275 1.415 . S
C4275 H4245 0.950 . S
C4275 C4270 1.363 . S
C4275 C4274 1.415 . S
H4276 C4273 0.999 . S
H4277 C4258 0.913 . S
H4278 C4296 0.951 . S
H4279 C4298 0.951 . S
H4280 C4300 0.950 . S
H4281 C4301 0.950 . S
H4282 C4303 0.950 . S
H4283 C4306 0.950 . S
H4284 C4307 0.950 . S
H4285 C4309 0.950 . S
H4286 C4310 0.950 . S
H4287 C4311 0.951 . S
H4288 C4313 0.951 . S
H4289 C4315 0.950 . S
H4290 C4316 0.950 . S
H4291 C4318 0.950 . S
H4292 C4321 0.950 . S
H4293 C4322 0.950 . S
H4294 C4324 0.950 . S
H4295 C4325 0.950 . S
C4296 H4278 0.951 . S
C4296 C4297 1.366 . S
C4296 C4298 1.388 . S
C4297 C4296 1.366 . S
C4297 C4301 1.385 . S
C4298 H4279 0.951 . S
C4298 C4296 1.388 . S
C4298 C4299 1.366 . S
C4299 C4298 1.366 . S
C4299 C4300 1.414 . S
C4299 C4302 1.499 . S
C4300 H4280 0.950 . S
C4300 C4299 1.414 . S
C4300 C4301 1.374 . S
C4301 H4281 0.950 . S
C4301 C4297 1.385 . S
C4301 C4300 1.374 . S
C4302 C4299 1.499 . S
C4302 C4303 1.373 . S
C4302 C4304 1.389 . S
C4303 H4282 0.950 . S
C4303 C4302 1.373 . S
C4303 C4319 1.377 . S
C4304 C4302 1.389 . S
C4304 C4305 1.524 . S
C4304 C4318 1.377 . S
C4305 C4304 1.524 . S
C4305 C4306 1.397 . S
C4305 C4310 1.363 . S
C4306 H4283 0.950 . S
C4306 C4305 1.397 . S
C4306 C4307 1.334 . S
C4307 H4284 0.950 . S
C4307 C4306 1.334 . S
C4307 C4308 1.287 . S
C4308 C4307 1.287 . S
C4308 C4309 1.524 . S
C4308 H4327 0.913 . S
C4309 H4285 0.950 . S
C4309 C4308 1.524 . S
C4309 C4310 1.415 . S
C4310 H4286 0.950 . S
C4310 C4305 1.363 . S
C4310 C4309 1.415 . S
C4311 H4287 0.951 . S
C4311 C4312 1.366 . S
C4311 C4313 1.388 . S
C4312 C4311 1.366 . S
C4312 C4316 1.385 . S
C4313 H4288 0.951 . S
C4313 C4311 1.388 . S
C4313 C4314 1.366 . S
C4314 C4313 1.366 . S
C4314 C4315 1.414 . S
C4314 C4317 1.499 . S
C4315 H4289 0.950 . S
C4315 C4314 1.414 . S
C4315 C4316 1.374 . S
C4316 H4290 0.950 . S
C4316 C4312 1.385 . S
C4316 C4315 1.374 . S
C4317 C4314 1.499 . S
C4317 C4318 1.373 . S
C4317 C4319 1.389 . S
C4318 H4291 0.950 . S
C4318 C4304 1.377 . S
C4318 C4317 1.373 . S
C4319 C4303 1.377 . S
C4319 C4317 1.389 . S
C4319 C4320 1.524 . S
C4320 C4319 1.524 . S
C4320 C4321 1.397 . S
C4320 C4325 1.363 . S
C4321 H4292 0.950 . S
C4321 C4320 1.397 . S
C4321 C4322 1.334 . S
C4322 H4293 0.950 . S
C4322 C4321 1.334 . S
C4322 C4323 1.287 . S
C4323 C4322 1.287 . S
C4323 C4324 1.524 . S
C4323 H4326 0.999 . S
C4324 H4294 0.950 . S
C4324 C4323 1.524 . S
C4324 C4325 1.415 . S
C4325 H4295 0.950 . S
C4325 C4320 1.363 . S
C4325 C4324 1.415 . S
H4326 C4323 0.999 . S
H4327 C4308 0.913 . S
H4328 C4346 0.951 . S
H4329 C4348 0.951 . S
H4330 C4350 0.950 . S
H4331 C4351 0.950 . S
H4332 C4353 0.950 . S
H4333 C4356 0.950 . S
H4334 C4357 0.950 . S
H4335 C4359 0.950 . S
H4336 C4360 0.950 . S
H4337 C4361 0.951 . S
H4338 C4363 0.951 . S
H4339 C4365 0.950 . S
H4340 C4366 0.950 . S
H4341 C4368 0.950 . S
H4342 C4371 0.950 . S
H4343 C4372 0.950 . S
H4344 C4374 0.950 . S
H4345 C4375 0.950 . S
C4346 H4328 0.951 . S
C4346 C4347 1.366 . S
C4346 C4348 1.388 . S
C4347 C4346 1.366 . S
C4347 C4351 1.385 . S
C4348 H4329 0.951 . S
C4348 C4346 1.388 . S
C4348 C4349 1.366 . S
C4349 C4348 1.366 . S
C4349 C4350 1.414 . S
C4349 C4352 1.499 . S
C4350 H4330 0.950 . S
C4350 C4349 1.414 . S
C4350 C4351 1.374 . S
C4351 H4331 0.950 . S
C4351 C4347 1.385 . S
C4351 C4350 1.374 . S
C4352 C4349 1.499 . S
C4352 C4353 1.373 . S
C4352 C4354 1.389 . S
C4353 H4332 0.950 . S
C4353 C4352 1.373 . S
C4353 C4369 1.377 . S
C4354 C4352 1.389 . S
C4354 C4355 1.524 . S
C4354 C4368 1.377 . S
C4355 C4354 1.524 . S
C4355 C4356 1.397 . S
C4355 C4360 1.363 . S
C4356 H4333 0.950 . S
C4356 C4355 1.397 . S
C4356 C4357 1.334 . S
C4357 H4334 0.950 . S
C4357 C4356 1.334 . S
C4357 C4358 1.287 . S
C4358 C4357 1.287 . S
C4358 C4359 1.524 . S
C4358 H4377 0.913 . S
C4359 H4335 0.950 . S
C4359 C4358 1.524 . S
C4359 C4360 1.415 . S
C4360 H4336 0.950 . S
C4360 C4355 1.363 . S
C4360 C4359 1.415 . S
C4361 H4337 0.951 . S
C4361 C4362 1.366 . S
C4361 C4363 1.388 . S
C4362 C4361 1.366 . S
C4362 C4366 1.385 . S
C4363 H4338 0.951 . S
C4363 C4361 1.388 . S
C4363 C4364 1.366 . S
C4364 C4363 1.366 . S
C4364 C4365 1.414 . S
C4364 C4367 1.499 . S
C4365 H4339 0.950 . S
C4365 C4364 1.414 . S
C4365 C4366 1.374 . S
C4366 H4340 0.950 . S
C4366 C4362 1.385 . S
C4366 C4365 1.374 . S
C4367 C4364 1.499 . S
C4367 C4368 1.373 . S
C4367 C4369 1.389 . S
C4368 H4341 0.950 . S
C4368 C4354 1.377 . S
C4368 C4367 1.373 . S
C4369 C4353 1.377 . S
C4369 C4367 1.389 . S
C4369 C4370 1.524 . S
C4370 C4369 1.524 . S
C4370 C4371 1.397 . S
C4370 C4375 1.363 . S
C4371 H4342 0.950 . S
C4371 C4370 1.397 . S
C4371 C4372 1.334 . S
C4372 H4343 0.950 . S
C4372 C4371 1.334 . S
C4372 C4373 1.287 . S
C4373 C4372 1.287 . S
C4373 C4374 1.524 . S
C4373 H4376 0.999 . S
C4374 H4344 0.950 . S
C4374 C4373 1.524 . S
C4374 C4375 1.415 . S
C4375 H4345 0.950 . S
C4375 C4370 1.363 . S
C4375 C4374 1.415 . S
H4376 C4373 0.999 . S
H4377 C4358 0.913 . S
H4378 C4396 0.951 . S
H4379 C4398 0.951 . S
H4380 C4400 0.950 . S
H4381 C4401 0.950 . S
H4382 C4403 0.950 . S
H4383 C4406 0.950 . S
H4384 C4407 0.950 . S
H4385 C4409 0.950 . S
H4386 C4410 0.950 . S
H4387 C4411 0.951 . S
H4388 C4413 0.951 . S
H4389 C4415 0.950 . S
H4390 C4416 0.950 . S
H4391 C4418 0.950 . S
H4392 C4421 0.950 . S
H4393 C4422 0.950 . S
H4394 C4424 0.950 . S
H4395 C4425 0.950 . S
C4396 H4378 0.951 . S
C4396 C4397 1.366 . S
C4396 C4398 1.388 . S
C4397 C4396 1.366 . S
C4397 C4401 1.385 . S
C4398 H4379 0.951 . S
C4398 C4396 1.388 . S
C4398 C4399 1.366 . S
C4399 C4398 1.366 . S
C4399 C4400 1.414 . S
C4399 C4402 1.499 . S
C4400 H4380 0.950 . S
C4400 C4399 1.414 . S
C4400 C4401 1.374 . S
C4401 H4381 0.950 . S
C4401 C4397 1.385 . S
C4401 C4400 1.374 . S
C4402 C4399 1.499 . S
C4402 C4403 1.373 . S
C4402 C4404 1.389 . S
C4403 H4382 0.950 . S
C4403 C4402 1.373 . S
C4403 C4419 1.377 . S
C4404 C4402 1.389 . S
C4404 C4405 1.524 . S
C4404 C4418 1.377 . S
C4405 C4404 1.524 . S
C4405 C4406 1.397 . S
C4405 C4410 1.363 . S
C4406 H4383 0.950 . S
C4406 C4405 1.397 . S
C4406 C4407 1.334 . S
C4407 H4384 0.950 . S
C4407 C4406 1.334 . S
C4407 C4408 1.287 . S
C4408 C4407 1.287 . S
C4408 C4409 1.524 . S
C4408 H4427 0.913 . S
C4409 H4385 0.950 . S
C4409 C4408 1.524 . S
C4409 C4410 1.415 . S
C4410 H4386 0.950 . S
C4410 C4405 1.363 . S
C4410 C4409 1.415 . S
C4411 H4387 0.951 . S
C4411 C4412 1.366 . S
C4411 C4413 1.388 . S
C4412 C4411 1.366 . S
C4412 C4416 1.385 . S
C4413 H4388 0.951 . S
C4413 C4411 1.388 . S
C4413 C4414 1.366 . S
C4414 C4413 1.366 . S
C4414 C4415 1.414 . S
C4414 C4417 1.499 . S
C4415 H4389 0.950 . S
C4415 C4414 1.414 . S
C4415 C4416 1.374 . S
C4416 H4390 0.950 . S
C4416 C4412 1.385 . S
C4416 C4415 1.374 . S
C4417 C4414 1.499 . S
C4417 C4418 1.373 . S
C4417 C4419 1.389 . S
C4418 H4391 0.950 . S
C4418 C4404 1.377 . S
C4418 C4417 1.373 . S
C4419 C4403 1.377 . S
C4419 C4417 1.389 . S
C4419 C4420 1.524 . S
C4420 C4419 1.524 . S
C4420 C4421 1.397 . S
C4420 C4425 1.363 . S
C4421 H4392 0.950 . S
C4421 C4420 1.397 . S
C4421 C4422 1.334 . S
C4422 H4393 0.950 . S
C4422 C4421 1.334 . S
C4422 C4423 1.287 . S
C4423 C4422 1.287 . S
C4423 C4424 1.524 . S
C4423 H4426 0.999 . S
C4424 H4394 0.950 . S
C4424 C4423 1.524 . S
C4424 C4425 1.415 . S
C4425 H4395 0.950 . S
C4425 C4420 1.363 . S
C4425 C4424 1.415 . S
H4426 C4423 0.999 . S
H4427 C4408 0.913 . S
H4428 C4446 0.951 . S
H4429 C4448 0.951 . S
H4430 C4450 0.950 . S
H4431 C4451 0.950 . S
H4432 C4453 0.950 . S
H4433 C4456 0.950 . S
H4434 C4457 0.950 . S
H4435 C4459 0.950 . S
H4436 C4460 0.950 . S
H4437 C4461 0.951 . S
H4438 C4463 0.951 . S
H4439 C4465 0.950 . S
H4440 C4466 0.950 . S
H4441 C4468 0.950 . S
H4442 C4471 0.950 . S
H4443 C4472 0.950 . S
H4444 C4474 0.950 . S
H4445 C4475 0.950 . S
C4446 H4428 0.951 . S
C4446 C4447 1.366 . S
C4446 C4448 1.388 . S
C4447 C4446 1.366 . S
C4447 C4451 1.385 . S
C4448 H4429 0.951 . S
C4448 C4446 1.388 . S
C4448 C4449 1.366 . S
C4449 C4448 1.366 . S
C4449 C4450 1.414 . S
C4449 C4452 1.499 . S
C4450 H4430 0.950 . S
C4450 C4449 1.414 . S
C4450 C4451 1.374 . S
C4451 H4431 0.950 . S
C4451 C4447 1.385 . S
C4451 C4450 1.374 . S
C4452 C4449 1.499 . S
C4452 C4453 1.373 . S
C4452 C4454 1.389 . S
C4453 H4432 0.950 . S
C4453 C4452 1.373 . S
C4453 C4469 1.377 . S
C4454 C4452 1.389 . S
C4454 C4455 1.524 . S
C4454 C4468 1.377 . S
C4455 C4454 1.524 . S
C4455 C4456 1.397 . S
C4455 C4460 1.363 . S
C4456 H4433 0.950 . S
C4456 C4455 1.397 . S
C4456 C4457 1.334 . S
C4457 H4434 0.950 . S
C4457 C4456 1.334 . S
C4457 C4458 1.287 . S
C4458 C4457 1.287 . S
C4458 C4459 1.524 . S
C4458 H4477 0.913 . S
C4459 H4435 0.950 . S
C4459 C4458 1.524 . S
C4459 C4460 1.415 . S
C4460 H4436 0.950 . S
C4460 C4455 1.363 . S
C4460 C4459 1.415 . S
C4461 H4437 0.951 . S
C4461 C4462 1.366 . S
C4461 C4463 1.388 . S
C4462 C4461 1.366 . S
C4462 C4466 1.385 . S
C4463 H4438 0.951 . S
C4463 C4461 1.388 . S
C4463 C4464 1.366 . S
C4464 C4463 1.366 . S
C4464 C4465 1.414 . S
C4464 C4467 1.499 . S
C4465 H4439 0.950 . S
C4465 C4464 1.414 . S
C4465 C4466 1.374 . S
C4466 H4440 0.950 . S
C4466 C4462 1.385 . S
C4466 C4465 1.374 . S
C4467 C4464 1.499 . S
C4467 C4468 1.373 . S
C4467 C4469 1.389 . S
C4468 H4441 0.950 . S
C4468 C4454 1.377 . S
C4468 C4467 1.373 . S
C4469 C4453 1.377 . S
C4469 C4467 1.389 . S
C4469 C4470 1.524 . S
C4470 C4469 1.524 . S
C4470 C4471 1.397 . S
C4470 C4475 1.363 . S
C4471 H4442 0.950 . S
C4471 C4470 1.397 . S
C4471 C4472 1.334 . S
C4472 H4443 0.950 . S
C4472 C4471 1.334 . S
C4472 C4473 1.287 . S
C4473 C4472 1.287 . S
C4473 C4474 1.524 . S
C4473 H4476 0.999 . S
C4474 H4444 0.950 . S
C4474 C4473 1.524 . S
C4474 C4475 1.415 . S
C4475 H4445 0.950 . S
C4475 C4470 1.363 . S
C4475 C4474 1.415 . S
H4476 C4473 0.999 . S
H4477 C4458 0.913 . S
H4478 C4496 0.951 . S
H4479 C4498 0.951 . S
H4480 C4500 0.950 . S
H4481 C4501 0.950 . S
H4482 C4503 0.950 . S
H4483 C4506 0.950 . S
H4484 C4507 0.950 . S
H4485 C4509 0.950 . S
H4486 C4510 0.950 . S
H4487 C4511 0.951 . S
H4488 C4513 0.951 . S
H4489 C4515 0.950 . S
H4490 C4516 0.950 . S
H4491 C4518 0.950 . S
H4492 C4521 0.950 . S
H4493 C4522 0.950 . S
H4494 C4524 0.950 . S
H4495 C4525 0.950 . S
C4496 H4478 0.951 . S
C4496 C4497 1.366 . S
C4496 C4498 1.388 . S
C4497 C4496 1.366 . S
C4497 C4501 1.385 . S
C4498 H4479 0.951 . S
C4498 C4496 1.388 . S
C4498 C4499 1.366 . S
C4499 C4498 1.366 . S
C4499 C4500 1.414 . S
C4499 C4502 1.499 . S
C4500 H4480 0.950 . S
C4500 C4499 1.414 . S
C4500 C4501 1.374 . S
C4501 H4481 0.950 . S
C4501 C4497 1.385 . S
C4501 C4500 1.374 . S
C4502 C4499 1.499 . S
C4502 C4503 1.373 . S
C4502 C4504 1.389 . S
C4503 H4482 0.950 . S
C4503 C4502 1.373 . S
C4503 C4519 1.377 . S
C4504 C4502 1.389 . S
C4504 C4505 1.524 . S
C4504 C4518 1.377 . S
C4505 C4504 1.524 . S
C4505 C4506 1.397 . S
C4505 C4510 1.363 . S
C4506 H4483 0.950 . S
C4506 C4505 1.397 . S
C4506 C4507 1.334 . S
C4507 H4484 0.950 . S
C4507 C4506 1.334 . S
C4507 C4508 1.287 . S
C4508 C4507 1.287 . S
C4508 C4509 1.524 . S
C4508 H4527 0.913 . S
C4509 H4485 0.950 . S
C4509 C4508 1.524 . S
C4509 C4510 1.415 . S
C4510 H4486 0.950 . S
C4510 C4505 1.363 . S
C4510 C4509 1.415 . S
C4511 H4487 0.951 . S
C4511 C4512 1.366 . S
C4511 C4513 1.388 . S
C4512 C4511 1.366 . S
C4512 C4516 1.385 . S
C4513 H4488 0.951 . S
C4513 C4511 1.388 . S
C4513 C4514 1.366 . S
C4514 C4513 1.366 . S
C4514 C4515 1.414 . S
C4514 C4517 1.499 . S
C4515 H4489 0.950 . S
C4515 C4514 1.414 . S
C4515 C4516 1.374 . S
C4516 H4490 0.950 . S
C4516 C4512 1.385 . S
C4516 C4515 1.374 . S
C4517 C4514 1.499 . S
C4517 C4518 1.373 . S
C4517 C4519 1.389 . S
C4518 H4491 0.950 . S
C4518 C4504 1.377 . S
C4518 C4517 1.373 . S
C4519 C4503 1.377 . S
C4519 C4517 1.389 . S
C4519 C4520 1.524 . S
C4520 C4519 1.524 . S
C4520 C4521 1.397 . S
C4520 C4525 1.363 . S
C4521 H4492 0.950 . S
C4521 C4520 1.397 . S
C4521 C4522 1.334 . S
C4522 H4493 0.950 . S
C4522 C4521 1.334 . S
C4522 C4523 1.287 . S
C4523 C4522 1.287 . S
C4523 C4524 1.524 . S
C4523 H4526 0.999 . S
C4524 H4494 0.950 . S
C4524 C4523 1.524 . S
C4524 C4525 1.415 . S
C4525 H4495 0.950 . S
C4525 C4520 1.363 . S
C4525 C4524 1.415 . S
H4526 C4523 0.999 . S
H4527 C4508 0.913 . S
H4528 C4546 0.951 . S
H4529 C4548 0.951 . S
H4530 C4550 0.950 . S
H4531 C4551 0.950 . S
H4532 C4553 0.950 . S
H4533 C4556 0.950 1_545 S
H4534 C4557 0.950 . S
H4535 C4559 0.950 . S
H4536 C4560 0.950 . S
H4537 C4561 0.951 . S
H4538 C4563 0.951 . S
H4539 C4565 0.950 . S
H4540 C4566 0.950 . S
H4541 C4568 0.950 . S
H4542 C4571 0.950 . S
H4543 C4572 0.950 . S
H4544 C4574 0.950 . S
H4545 C4575 0.950 . S
C4546 H4528 0.951 . S
C4546 C4547 1.366 1_565 S
C4546 C4548 1.388 . S
C4547 C4546 1.366 1_545 S
C4547 C4551 1.385 . S
C4548 H4529 0.951 . S
C4548 C4546 1.388 . S
C4548 C4549 1.366 1_565 S
C4549 C4548 1.366 1_545 S
C4549 C4550 1.414 . S
C4549 C4552 1.499 . S
C4550 H4530 0.950 . S
C4550 C4549 1.414 . S
C4550 C4551 1.374 . S
C4551 H4531 0.950 . S
C4551 C4547 1.385 . S
C4551 C4550 1.374 . S
C4552 C4549 1.499 . S
C4552 C4553 1.373 . S
C4552 C4554 1.389 . S
C4553 H4532 0.950 . S
C4553 C4552 1.373 . S
C4553 C4569 1.377 . S
C4554 C4552 1.389 . S
C4554 C4555 1.524 1_545 S
C4554 C4568 1.377 . S
C4555 C4554 1.524 1_565 S
C4555 C4556 1.397 . S
C4555 C4560 1.363 . S
C4556 H4533 0.950 1_565 S
C4556 C4555 1.397 . S
C4556 C4557 1.334 . S
C4557 H4534 0.950 . S
C4557 C4556 1.334 . S
C4557 C4558 1.287 . S
C4558 C4557 1.287 . S
C4558 C4559 1.524 . S
C4558 H4577 0.913 . S
C4559 H4535 0.950 . S
C4559 C4558 1.524 . S
C4559 C4560 1.415 . S
C4560 H4536 0.950 . S
C4560 C4555 1.363 . S
C4560 C4559 1.415 . S
C4561 H4537 0.951 . S
C4561 C4562 1.366 . S
C4561 C4563 1.388 . S
C4562 C4561 1.366 . S
C4562 C4566 1.385 . S
C4563 H4538 0.951 . S
C4563 C4561 1.388 . S
C4563 C4564 1.366 . S
C4564 C4563 1.366 . S
C4564 C4565 1.414 . S
C4564 C4567 1.499 . S
C4565 H4539 0.950 . S
C4565 C4564 1.414 . S
C4565 C4566 1.374 . S
C4566 H4540 0.950 . S
C4566 C4562 1.385 . S
C4566 C4565 1.374 . S
C4567 C4564 1.499 . S
C4567 C4568 1.373 . S
C4567 C4569 1.389 . S
C4568 H4541 0.950 . S
C4568 C4554 1.377 . S
C4568 C4567 1.373 . S
C4569 C4553 1.377 . S
C4569 C4567 1.389 . S
C4569 C4570 1.524 . S
C4570 C4569 1.524 . S
C4570 C4571 1.397 . S
C4570 C4575 1.363 . S
C4571 H4542 0.950 . S
C4571 C4570 1.397 . S
C4571 C4572 1.334 . S
C4572 H4543 0.950 . S
C4572 C4571 1.334 . S
C4572 C4573 1.287 . S
C4573 C4572 1.287 . S
C4573 C4574 1.524 . S
C4573 H4576 0.999 . S
C4574 H4544 0.950 . S
C4574 C4573 1.524 . S
C4574 C4575 1.415 . S
C4575 H4545 0.950 . S
C4575 C4570 1.363 . S
C4575 C4574 1.415 . S
H4576 C4573 0.999 . S
H4577 C4558 0.913 . S
H4578 C4596 0.951 . S
H4579 C4598 0.951 . S
H4580 C4600 0.950 . S
H4581 C4601 0.950 . S
H4582 C4603 0.950 . S
H4583 C4606 0.950 . S
H4584 C4607 0.950 . S
H4585 C4609 0.950 . S
H4586 C4610 0.950 . S
H4587 C4611 0.951 . S
H4588 C4613 0.951 . S
H4589 C4615 0.950 . S
H4590 C4616 0.950 . S
H4591 C4618 0.950 . S
H4592 C4621 0.950 . S
H4593 C4622 0.950 . S
H4594 C4624 0.950 . S
H4595 C4625 0.950 . S
C4596 H4578 0.951 . S
C4596 C4597 1.366 . S
C4596 C4598 1.388 . S
C4597 C4596 1.366 . S
C4597 C4601 1.385 . S
C4598 H4579 0.951 . S
C4598 C4596 1.388 . S
C4598 C4599 1.366 . S
C4599 C4598 1.366 . S
C4599 C4600 1.414 . S
C4599 C4602 1.499 . S
C4600 H4580 0.950 . S
C4600 C4599 1.414 . S
C4600 C4601 1.374 . S
C4601 H4581 0.950 . S
C4601 C4597 1.385 . S
C4601 C4600 1.374 . S
C4602 C4599 1.499 . S
C4602 C4603 1.373 . S
C4602 C4604 1.389 . S
C4603 H4582 0.950 . S
C4603 C4602 1.373 . S
C4603 C4619 1.377 . S
C4604 C4602 1.389 . S
C4604 C4605 1.524 . S
C4604 C4618 1.377 . S
C4605 C4604 1.524 . S
C4605 C4606 1.397 . S
C4605 C4610 1.363 . S
C4606 H4583 0.950 . S
C4606 C4605 1.397 . S
C4606 C4607 1.334 . S
C4607 H4584 0.950 . S
C4607 C4606 1.334 . S
C4607 C4608 1.287 . S
C4608 C4607 1.287 . S
C4608 C4609 1.524 . S
C4608 H4627 0.913 . S
C4609 H4585 0.950 . S
C4609 C4608 1.524 . S
C4609 C4610 1.415 . S
C4610 H4586 0.950 . S
C4610 C4605 1.363 . S
C4610 C4609 1.415 . S
C4611 H4587 0.951 . S
C4611 C4612 1.366 . S
C4611 C4613 1.388 . S
C4612 C4611 1.366 . S
C4612 C4616 1.385 . S
C4613 H4588 0.951 . S
C4613 C4611 1.388 . S
C4613 C4614 1.366 . S
C4614 C4613 1.366 . S
C4614 C4615 1.414 . S
C4614 C4617 1.499 . S
C4615 H4589 0.950 . S
C4615 C4614 1.414 . S
C4615 C4616 1.374 . S
C4616 H4590 0.950 . S
C4616 C4612 1.385 . S
C4616 C4615 1.374 . S
C4617 C4614 1.499 . S
C4617 C4618 1.373 . S
C4617 C4619 1.389 . S
C4618 H4591 0.950 . S
C4618 C4604 1.377 . S
C4618 C4617 1.373 . S
C4619 C4603 1.377 . S
C4619 C4617 1.389 . S
C4619 C4620 1.524 . S
C4620 C4619 1.524 . S
C4620 C4621 1.397 . S
C4620 C4625 1.363 . S
C4621 H4592 0.950 . S
C4621 C4620 1.397 . S
C4621 C4622 1.334 . S
C4622 H4593 0.950 . S
C4622 C4621 1.334 . S
C4622 C4623 1.287 . S
C4623 C4622 1.287 . S
C4623 C4624 1.524 . S
C4623 H4626 0.999 . S
C4624 H4594 0.950 . S
C4624 C4623 1.524 . S
C4624 C4625 1.415 . S
C4625 H4595 0.950 . S
C4625 C4620 1.363 . S
C4625 C4624 1.415 . S
H4626 C4623 0.999 . S
H4627 C4608 0.913 . S
H4628 C4646 0.951 . S
H4629 C4648 0.951 . S
H4630 C4650 0.950 . S
H4631 C4651 0.950 . S
H4632 C4653 0.950 . S
H4633 C4656 0.950 . S
H4634 C4657 0.950 . S
H4635 C4659 0.950 . S
H4636 C4660 0.950 . S
H4637 C4661 0.951 1_565 S
H4638 C4663 0.951 . S
H4639 C4665 0.950 . S
H4640 C4666 0.950 . S
H4641 C4668 0.950 . S
H4642 C4671 0.950 . S
H4643 C4672 0.950 . S
H4644 C4674 0.950 . S
H4645 C4675 0.950 . S
C4646 H4628 0.951 . S
C4646 C4647 1.366 . S
C4646 C4648 1.388 . S
C4647 C4646 1.366 . S
C4647 C4651 1.385 . S
C4648 H4629 0.951 . S
C4648 C4646 1.388 . S
C4648 C4649 1.366 . S
C4649 C4648 1.366 . S
C4649 C4650 1.414 . S
C4649 C4652 1.499 . S
C4650 H4630 0.950 . S
C4650 C4649 1.414 . S
C4650 C4651 1.374 . S
C4651 H4631 0.950 . S
C4651 C4647 1.385 . S
C4651 C4650 1.374 . S
C4652 C4649 1.499 . S
C4652 C4653 1.373 . S
C4652 C4654 1.389 . S
C4653 H4632 0.950 . S
C4653 C4652 1.373 . S
C4653 C4669 1.377 . S
C4654 C4652 1.389 . S
C4654 C4655 1.524 . S
C4654 C4668 1.377 . S
C4655 C4654 1.524 . S
C4655 C4656 1.397 . S
C4655 C4660 1.363 . S
C4656 H4633 0.950 . S
C4656 C4655 1.397 . S
C4656 C4657 1.334 . S
C4657 H4634 0.950 . S
C4657 C4656 1.334 . S
C4657 C4658 1.287 . S
C4658 C4657 1.287 . S
C4658 C4659 1.524 . S
C4658 H4677 0.913 . S
C4659 H4635 0.950 . S
C4659 C4658 1.524 . S
C4659 C4660 1.415 . S
C4660 H4636 0.950 . S
C4660 C4655 1.363 . S
C4660 C4659 1.415 . S
C4661 H4637 0.951 1_545 S
C4661 C4662 1.381 . S
C4661 C4663 1.388 . S
C4662 C4661 1.381 . S
C4662 C4666 1.445 . S
C4663 H4638 0.951 . S
C4663 C4661 1.388 . S
C4663 C4664 1.366 . S
C4664 C4663 1.366 . S
C4664 C4665 1.414 . S
C4664 C4667 1.499 . S
C4665 H4639 0.950 . S
C4665 C4664 1.414 . S
C4665 C4666 1.374 . S
C4666 H4640 0.950 . S
C4666 C4662 1.445 . S
C4666 C4665 1.374 . S
C4667 C4664 1.499 . S
C4667 C4668 1.373 . S
C4667 C4669 1.389 . S
C4668 H4641 0.950 . S
C4668 C4654 1.377 . S
C4668 C4667 1.373 . S
C4669 C4653 1.377 . S
C4669 C4667 1.389 . S
C4669 C4670 1.524 . S
C4670 C4669 1.524 . S
C4670 C4671 1.397 . S
C4670 C4675 1.363 . S
C4671 H4642 0.950 . S
C4671 C4670 1.397 . S
C4671 C4672 1.334 . S
C4672 H4643 0.950 . S
C4672 C4671 1.334 . S
C4672 C4673 1.287 . S
C4673 C4672 1.287 . S
C4673 C4674 1.524 . S
C4673 H4676 0.999 . S
C4674 H4644 0.950 . S
C4674 C4673 1.524 . S
C4674 C4675 1.415 . S
C4675 H4645 0.950 . S
C4675 C4670 1.363 . S
C4675 C4674 1.415 . S
H4676 C4673 0.999 . S
H4677 C4658 0.913 . S
H4678 C4696 0.951 . S
H4679 C4698 0.951 . S
H4680 C4700 0.950 . S
H4681 C4701 0.950 . S
H4682 C4703 0.920 1_556 S
H4683 C4706 0.950 . S
H4684 C4707 0.950 . S
H4685 C4709 0.950 . S
H4686 C4710 0.950 . S
H4687 C4711 0.951 . S
H4688 C4713 0.951 1_556 S
H4689 C4715 0.950 . S
H4690 C4716 0.950 . S
H4691 C4718 0.950 . S
H4692 C4721 0.950 . S
H4693 C4722 0.950 . S
H4694 C4724 0.950 . S
H4695 C4725 0.950 . S
C4696 H4678 0.951 . S
C4696 C4697 1.366 . S
C4696 C4698 1.388 . S
C4697 C4696 1.366 . S
C4697 C4701 1.385 . S
C4698 H4679 0.951 . S
C4698 C4696 1.388 . S
C4698 C4699 1.366 . S
C4699 C4698 1.366 . S
C4699 C4700 1.414 . S
C4699 C4702 1.499 . S
C4700 H4680 0.950 . S
C4700 C4699 1.414 . S
C4700 C4701 1.374 . S
C4701 H4681 0.950 . S
C4701 C4697 1.385 . S
C4701 C4700 1.374 . S
C4702 C4699 1.499 . S
C4702 C4703 1.373 . S
C4702 C4704 1.389 . S
C4703 H4682 0.920 1_554 S
C4703 C4702 1.373 . S
C4703 C4719 1.377 . S
C4704 C4702 1.389 . S
C4704 C4705 1.524 . S
C4704 C4718 1.377 . S
C4705 C4704 1.524 . S
C4705 C4706 1.397 . S
C4705 C4710 1.363 . S
C4706 H4683 0.950 . S
C4706 C4705 1.397 . S
C4706 C4707 1.334 . S
C4707 H4684 0.950 . S
C4707 C4706 1.334 . S
C4707 C4708 1.287 . S
C4708 C4707 1.287 . S
C4708 C4709 1.524 . S
C4708 H4727 0.913 . S
C4709 H4685 0.950 . S
C4709 C4708 1.524 . S
C4709 C4710 1.415 . S
C4710 H4686 0.950 . S
C4710 C4705 1.363 . S
C4710 C4709 1.415 . S
C4711 H4687 0.951 . S
C4711 C4712 1.366 1_556 S
C4711 C4713 1.388 1_556 S
C4712 C4711 1.366 1_554 S
C4712 C4716 1.385 . S
C4713 H4688 0.951 1_554 S
C4713 C4711 1.388 1_554 S
C4713 C4714 1.366 . S
C4714 C4713 1.366 . S
C4714 C4715 1.414 . S
C4714 C4717 1.499 . S
C4715 H4689 0.950 . S
C4715 C4714 1.414 . S
C4715 C4716 1.374 . S
C4716 H4690 0.950 . S
C4716 C4712 1.385 . S
C4716 C4715 1.374 . S
C4717 C4714 1.499 . S
C4717 C4718 1.373 . S
C4717 C4719 1.389 . S
C4718 H4691 0.950 . S
C4718 C4704 1.377 . S
C4718 C4717 1.373 . S
C4719 C4703 1.377 . S
C4719 C4717 1.389 . S
C4719 C4720 1.524 1_554 S
C4720 C4719 1.524 1_556 S
C4720 C4721 1.397 . S
C4720 C4725 1.363 . S
C4721 H4692 0.950 . S
C4721 C4720 1.397 . S
C4721 C4722 1.334 . S
C4722 H4693 0.950 . S
C4722 C4721 1.334 . S
C4722 C4723 1.287 . S
C4723 C4722 1.287 . S
C4723 C4724 1.524 . S
C4723 H4726 0.999 . S
C4724 H4694 0.950 . S
C4724 C4723 1.524 . S
C4724 C4725 1.415 . S
C4725 H4695 0.950 . S
C4725 C4720 1.363 . S
C4725 C4724 1.415 . S
H4726 C4723 0.999 . S
H4727 C4708 0.913 . S
H4728 C4746 0.951 . S
H4729 C4748 0.951 . S
H4730 C4750 0.950 . S
H4731 C4751 0.950 . S
H4732 C4753 0.950 . S
H4733 C4756 0.950 . S
H4734 C4757 0.950 . S
H4735 C4759 0.950 . S
H4736 C4760 0.950 . S
H4737 C4761 0.951 . S
H4738 C4763 0.951 . S
H4739 C4765 0.950 . S
H4740 C4766 0.950 . S
H4741 C4768 0.950 . S
H4742 C4771 0.950 . S
H4743 C4772 0.950 . S
H4744 C4774 0.950 . S
H4745 C4775 0.950 . S
C4746 H4728 0.951 . S
C4746 C4747 1.366 . S
C4746 C4748 1.388 . S
C4747 C4746 1.366 . S
C4747 C4751 1.385 . S
C4748 H4729 0.951 . S
C4748 C4746 1.388 . S
C4748 C4749 1.366 . S
C4749 C4748 1.366 . S
C4749 C4750 1.414 . S
C4749 C4752 1.499 . S
C4750 H4730 0.950 . S
C4750 C4749 1.414 . S
C4750 C4751 1.374 . S
C4751 H4731 0.950 . S
C4751 C4747 1.385 . S
C4751 C4750 1.374 . S
C4752 C4749 1.499 . S
C4752 C4753 1.373 . S
C4752 C4754 1.389 . S
C4753 H4732 0.950 . S
C4753 C4752 1.373 . S
C4753 C4769 1.377 . S
C4754 C4752 1.389 . S
C4754 C4755 1.524 . S
C4754 C4768 1.377 . S
C4755 C4754 1.524 . S
C4755 C4756 1.397 . S
C4755 C4760 1.363 . S
C4756 H4733 0.950 . S
C4756 C4755 1.397 . S
C4756 C4757 1.334 . S
C4757 H4734 0.950 . S
C4757 C4756 1.334 . S
C4757 C4758 1.287 . S
C4758 C4757 1.287 . S
C4758 C4759 1.524 . S
C4758 H4777 0.913 . S
C4759 H4735 0.950 . S
C4759 C4758 1.524 . S
C4759 C4760 1.415 . S
C4760 H4736 0.950 . S
C4760 C4755 1.363 . S
C4760 C4759 1.415 . S
C4761 H4737 0.951 . S
C4761 C4762 1.366 . S
C4761 C4763 1.388 . S
C4762 C4761 1.366 . S
C4762 C4766 1.385 . S
C4763 H4738 0.951 . S
C4763 C4761 1.388 . S
C4763 C4764 1.366 . S
C4764 C4763 1.366 . S
C4764 C4765 1.414 . S
C4764 C4767 1.499 . S
C4765 H4739 0.950 . S
C4765 C4764 1.414 . S
C4765 C4766 1.374 . S
C4766 H4740 0.950 . S
C4766 C4762 1.385 . S
C4766 C4765 1.374 . S
C4767 C4764 1.499 . S
C4767 C4768 1.373 . S
C4767 C4769 1.389 . S
C4768 H4741 0.950 . S
C4768 C4754 1.377 . S
C4768 C4767 1.373 . S
C4769 C4753 1.377 . S
C4769 C4767 1.389 . S
C4769 C4770 1.524 . S
C4770 C4769 1.524 . S
C4770 C4771 1.397 . S
C4770 C4775 1.363 . S
C4771 H4742 0.950 . S
C4771 C4770 1.397 . S
C4771 C4772 1.334 . S
C4772 H4743 0.950 . S
C4772 C4771 1.334 . S
C4772 C4773 1.287 . S
C4773 C4772 1.287 . S
C4773 C4774 1.524 . S
C4773 H4776 0.999 . S
C4774 H4744 0.950 . S
C4774 C4773 1.524 . S
C4774 C4775 1.415 . S
C4775 H4745 0.950 . S
C4775 C4770 1.363 . S
C4775 C4774 1.415 . S
H4776 C4773 0.999 . S
H4777 C4758 0.913 . S
H4778 C4796 0.951 . S
H4779 C4798 0.951 . S
H4780 C4800 0.950 . S
H4781 C4801 0.950 . S
H4782 C4803 0.950 . S
H4783 C4806 0.950 . S
H4784 C4807 0.950 . S
H4785 C4809 0.950 . S
H4786 C4810 0.950 . S
H4787 C4811 0.951 . S
H4788 C4813 0.951 . S
H4789 C4815 0.950 . S
H4790 C4816 0.950 . S
H4791 C4818 0.950 . S
H4792 C4821 0.950 . S
H4793 C4822 0.950 . S
H4794 C4824 0.950 . S
H4795 C4825 0.950 . S
C4796 H4778 0.951 . S
C4796 C4797 1.366 . S
C4796 C4798 1.388 . S
C4797 C4796 1.366 . S
C4797 C4801 1.385 . S
C4798 H4779 0.951 . S
C4798 C4796 1.388 . S
C4798 C4799 1.366 . S
C4799 C4798 1.366 . S
C4799 C4800 1.414 . S
C4799 C4802 1.499 . S
C4800 H4780 0.950 . S
C4800 C4799 1.414 . S
C4800 C4801 1.374 . S
C4801 H4781 0.950 . S
C4801 C4797 1.385 . S
C4801 C4800 1.374 . S
C4802 C4799 1.499 . S
C4802 C4803 1.373 . S
C4802 C4804 1.389 . S
C4803 H4782 0.950 . S
C4803 C4802 1.373 . S
C4803 C4819 1.377 . S
C4804 C4802 1.389 . S
C4804 C4805 1.524 . S
C4804 C4818 1.377 . S
C4805 C4804 1.524 . S
C4805 C4806 1.397 . S
C4805 C4810 1.363 . S
C4806 H4783 0.950 . S
C4806 C4805 1.397 . S
C4806 C4807 1.334 . S
C4807 H4784 0.950 . S
C4807 C4806 1.334 . S
C4807 C4808 1.287 . S
C4808 C4807 1.287 . S
C4808 C4809 1.524 . S
C4808 H4827 0.913 . S
C4809 H4785 0.950 . S
C4809 C4808 1.524 . S
C4809 C4810 1.415 . S
C4810 H4786 0.950 . S
C4810 C4805 1.363 . S
C4810 C4809 1.415 . S
C4811 H4787 0.951 . S
C4811 C4812 1.366 . S
C4811 C4813 1.388 . S
C4812 C4811 1.366 . S
C4812 C4816 1.385 . S
C4813 H4788 0.951 . S
C4813 C4811 1.388 . S
C4813 C4814 1.366 . S
C4814 C4813 1.366 . S
C4814 C4815 1.414 . S
C4814 C4817 1.499 . S
C4815 H4789 0.950 . S
C4815 C4814 1.414 . S
C4815 C4816 1.374 . S
C4816 H4790 0.950 . S
C4816 C4812 1.385 . S
C4816 C4815 1.374 . S
C4817 C4814 1.499 . S
C4817 C4818 1.373 . S
C4817 C4819 1.389 . S
C4818 H4791 0.950 . S
C4818 C4804 1.377 . S
C4818 C4817 1.373 . S
C4819 C4803 1.377 . S
C4819 C4817 1.389 . S
C4819 C4820 1.524 . S
C4820 C4819 1.524 . S
C4820 C4821 1.397 . S
C4820 C4825 1.363 . S
C4821 H4792 0.950 . S
C4821 C4820 1.397 . S
C4821 C4822 1.334 . S
C4822 H4793 0.950 . S
C4822 C4821 1.334 . S
C4822 C4823 1.287 . S
C4823 C4822 1.287 . S
C4823 C4824 1.524 . S
C4823 H4826 0.999 . S
C4824 H4794 0.950 . S
C4824 C4823 1.524 . S
C4824 C4825 1.415 . S
C4825 H4795 0.950 . S
C4825 C4820 1.363 . S
C4825 C4824 1.415 . S
H4826 C4823 0.999 . S
H4827 C4808 0.913 . S
H4828 C4846 0.951 . S
H4829 C4848 0.951 . S
H4830 C4850 0.950 . S
H4831 C4851 0.950 . S
H4832 C4853 0.950 . S
H4833 C4856 0.950 . S
H4834 C4857 0.950 . S
H4835 C4859 0.950 . S
H4836 C4860 0.950 . S
H4837 C4861 0.951 . S
H4838 C4863 0.951 . S
H4839 C4865 0.950 . S
H4840 C4866 0.950 . S
H4841 C4868 0.950 . S
H4842 C4871 0.950 . S
H4843 C4872 0.950 . S
H4844 C4874 0.950 . S
H4845 C4875 0.950 . S
C4846 H4828 0.951 . S
C4846 C4847 1.366 . S
C4846 C4848 1.388 . S
C4847 C4846 1.366 . S
C4847 C4851 1.385 . S
C4848 H4829 0.951 . S
C4848 C4846 1.388 . S
C4848 C4849 1.366 . S
C4849 C4848 1.366 . S
C4849 C4850 1.414 . S
C4849 C4852 1.499 . S
C4850 H4830 0.950 . S
C4850 C4849 1.414 . S
C4850 C4851 1.374 . S
C4851 H4831 0.950 . S
C4851 C4847 1.385 . S
C4851 C4850 1.374 . S
C4852 C4849 1.499 . S
C4852 C4853 1.373 . S
C4852 C4854 1.389 . S
C4853 H4832 0.950 . S
C4853 C4852 1.373 . S
C4853 C4869 1.377 . S
C4854 C4852 1.389 . S
C4854 C4855 1.524 . S
C4854 C4868 1.377 . S
C4855 C4854 1.524 . S
C4855 C4856 1.397 . S
C4855 C4860 1.363 . S
C4856 H4833 0.950 . S
C4856 C4855 1.397 . S
C4856 C4857 1.334 . S
C4857 H4834 0.950 . S
C4857 C4856 1.334 . S
C4857 C4858 1.287 . S
C4858 C4857 1.287 . S
C4858 C4859 1.524 . S
C4858 H4877 0.913 . S
C4859 H4835 0.950 . S
C4859 C4858 1.524 . S
C4859 C4860 1.415 . S
C4860 H4836 0.950 . S
C4860 C4855 1.363 . S
C4860 C4859 1.415 . S
C4861 H4837 0.951 . S
C4861 C4862 1.366 . S
C4861 C4863 1.388 . S
C4862 C4861 1.366 . S
C4862 C4866 1.385 . S
C4863 H4838 0.951 . S
C4863 C4861 1.388 . S
C4863 C4864 1.366 . S
C4864 C4863 1.366 . S
C4864 C4865 1.414 . S
C4864 C4867 1.499 . S
C4865 H4839 0.950 . S
C4865 C4864 1.414 . S
C4865 C4866 1.374 . S
C4866 H4840 0.950 . S
C4866 C4862 1.385 . S
C4866 C4865 1.374 . S
C4867 C4864 1.499 . S
C4867 C4868 1.373 . S
C4867 C4869 1.389 . S
C4868 H4841 0.950 . S
C4868 C4854 1.377 . S
C4868 C4867 1.373 . S
C4869 C4853 1.377 . S
C4869 C4867 1.389 . S
C4869 C4870 1.524 . S
C4870 C4869 1.524 . S
C4870 C4871 1.397 . S
C4870 C4875 1.363 . S
C4871 H4842 0.950 . S
C4871 C4870 1.397 . S
C4871 C4872 1.334 . S
C4872 H4843 0.950 . S
C4872 C4871 1.334 . S
C4872 C4873 1.287 . S
C4873 C4872 1.287 . S
C4873 C4874 1.524 . S
C4873 H4876 0.999 . S
C4874 H4844 0.950 . S
C4874 C4873 1.524 . S
C4874 C4875 1.415 . S
C4875 H4845 0.950 . S
C4875 C4870 1.363 . S
C4875 C4874 1.415 . S
H4876 C4873 0.999 . S
H4877 C4858 0.913 . S
H4878 C4896 0.951 . S
H4879 C4898 0.951 . S
H4880 C4900 0.950 . S
H4881 C4901 0.950 . S
H4882 C4903 0.950 . S
H4883 C4906 0.950 . S
H4884 C4907 0.950 . S
H4885 C4909 0.950 . S
H4886 C4910 0.950 . S
H4887 C4911 0.951 . S
H4888 C4913 0.951 . S
H4889 C4915 0.950 . S
H4890 C4916 0.950 . S
H4891 C4918 0.950 . S
H4892 C4921 0.950 . S
H4893 C4922 0.950 . S
H4894 C4924 0.950 . S
H4895 C4925 0.950 . S
C4896 H4878 0.951 . S
C4896 C4897 1.366 . S
C4896 C4898 1.388 . S
C4897 C4896 1.366 . S
C4897 C4901 1.385 . S
C4898 H4879 0.951 . S
C4898 C4896 1.388 . S
C4898 C4899 1.366 . S
C4899 C4898 1.366 . S
C4899 C4900 1.414 . S
C4899 C4902 1.499 . S
C4900 H4880 0.950 . S
C4900 C4899 1.414 . S
C4900 C4901 1.374 . S
C4901 H4881 0.950 . S
C4901 C4897 1.385 . S
C4901 C4900 1.374 . S
C4902 C4899 1.499 . S
C4902 C4903 1.373 . S
C4902 C4904 1.389 . S
C4903 H4882 0.950 . S
C4903 C4902 1.373 . S
C4903 C4919 1.377 . S
C4904 C4902 1.389 . S
C4904 C4905 1.524 . S
C4904 C4918 1.377 . S
C4905 C4904 1.524 . S
C4905 C4906 1.397 . S
C4905 C4910 1.363 . S
C4906 H4883 0.950 . S
C4906 C4905 1.397 . S
C4906 C4907 1.334 . S
C4907 H4884 0.950 . S
C4907 C4906 1.334 . S
C4907 C4908 1.287 . S
C4908 C4907 1.287 . S
C4908 C4909 1.524 . S
C4908 H4927 0.913 . S
C4909 H4885 0.950 . S
C4909 C4908 1.524 . S
C4909 C4910 1.415 . S
C4910 H4886 0.950 . S
C4910 C4905 1.363 . S
C4910 C4909 1.415 . S
C4911 H4887 0.951 . S
C4911 C4912 1.366 . S
C4911 C4913 1.388 . S
C4912 C4911 1.366 . S
C4912 C4916 1.385 . S
C4913 H4888 0.951 . S
C4913 C4911 1.388 . S
C4913 C4914 1.366 . S
C4914 C4913 1.366 . S
C4914 C4915 1.414 . S
C4914 C4917 1.499 . S
C4915 H4889 0.950 . S
C4915 C4914 1.414 . S
C4915 C4916 1.374 . S
C4916 H4890 0.950 . S
C4916 C4912 1.385 . S
C4916 C4915 1.374 . S
C4917 C4914 1.499 . S
C4917 C4918 1.373 . S
C4917 C4919 1.389 . S
C4918 H4891 0.950 . S
C4918 C4904 1.377 . S
C4918 C4917 1.373 . S
C4919 C4903 1.377 . S
C4919 C4917 1.389 . S
C4919 C4920 1.524 . S
C4920 C4919 1.524 . S
C4920 C4921 1.397 . S
C4920 C4925 1.363 . S
C4921 H4892 0.950 . S
C4921 C4920 1.397 . S
C4921 C4922 1.334 . S
C4922 H4893 0.950 . S
C4922 C4921 1.334 . S
C4922 C4923 1.287 . S
C4923 C4922 1.287 . S
C4923 C4924 1.524 . S
C4923 H4926 0.999 . S
C4924 H4894 0.950 . S
C4924 C4923 1.524 . S
C4924 C4925 1.415 . S
C4925 H4895 0.950 . S
C4925 C4920 1.363 . S
C4925 C4924 1.415 . S
H4926 C4923 0.999 . S
H4927 C4908 0.913 . S
H4928 C4946 0.951 . S
H4929 C4948 0.951 . S
H4930 C4950 0.950 . S
H4931 C4951 0.917 1_556 S
H4932 C4953 0.950 . S
H4933 C4956 0.950 . S
H4934 C4957 0.950 . S
H4935 C4959 0.950 . S
H4936 C4960 0.950 . S
H4937 C4961 0.951 . S
H4938 C4963 0.951 . S
H4939 C4965 0.950 . S
H4940 C4966 0.950 . S
H4941 C4968 0.950 . S
H4942 C4971 0.950 . S
H4943 C4972 0.950 . S
H4944 C4974 0.950 . S
H4945 C4975 0.950 . S
C4946 H4928 0.951 . S
C4946 C4947 1.441 . S
C4946 C4948 1.388 . S
C4947 C4946 1.441 . S
C4947 C4951 1.383 . S
C4948 H4929 0.951 . S
C4948 C4946 1.388 . S
C4948 C4949 1.366 . S
C4949 C4948 1.366 . S
C4949 C4950 1.414 . S
C4949 C4952 1.499 . S
C4950 H4930 0.950 . S
C4950 C4949 1.414 . S
C4950 C4951 1.405 . S
C4951 H4931 0.917 1_554 S
C4951 C4947 1.383 . S
C4951 C4950 1.405 . S
C4952 C4949 1.499 . S
C4952 C4953 1.373 . S
C4952 C4954 1.389 . S
C4953 H4932 0.950 . S
C4953 C4952 1.373 . S
C4953 C4969 1.377 . S
C4954 C4952 1.389 . S
C4954 C4955 1.524 . S
C4954 C4968 1.377 . S
C4955 C4954 1.524 . S
C4955 C4956 1.397 . S
C4955 C4960 1.363 . S
C4956 H4933 0.950 . S
C4956 C4955 1.397 . S
C4956 C4957 1.334 . S
C4957 H4934 0.950 . S
C4957 C4956 1.334 . S
C4957 C4958 1.287 . S
C4958 C4957 1.287 . S
C4958 C4959 1.524 . S
C4958 H4977 0.913 . S
C4959 H4935 0.950 . S
C4959 C4958 1.524 . S
C4959 C4960 1.415 . S
C4960 H4936 0.950 . S
C4960 C4955 1.363 . S
C4960 C4959 1.415 . S
C4961 H4937 0.951 . S
C4961 C4962 1.366 . S
C4961 C4963 1.388 . S
C4962 C4961 1.366 . S
C4962 C4966 1.385 . S
C4963 H4938 0.951 . S
C4963 C4961 1.388 . S
C4963 C4964 1.366 . S
C4964 C4963 1.366 . S
C4964 C4965 1.414 . S
C4964 C4967 1.499 . S
C4965 H4939 0.950 . S
C4965 C4964 1.414 . S
C4965 C4966 1.374 . S
C4966 H4940 0.950 . S
C4966 C4962 1.385 . S
C4966 C4965 1.374 . S
C4967 C4964 1.499 . S
C4967 C4968 1.373 . S
C4967 C4969 1.389 . S
C4968 H4941 0.950 . S
C4968 C4954 1.377 . S
C4968 C4967 1.373 . S
C4969 C4953 1.377 . S
C4969 C4967 1.389 . S
C4969 C4970 1.524 . S
C4970 C4969 1.524 . S
C4970 C4971 1.397 . S
C4970 C4975 1.363 . S
C4971 H4942 0.950 . S
C4971 C4970 1.397 . S
C4971 C4972 1.334 . S
C4972 H4943 0.950 . S
C4972 C4971 1.334 . S
C4972 C4973 1.287 . S
C4973 C4972 1.287 . S
C4973 C4974 1.524 . S
C4973 H4976 0.999 . S
C4974 H4944 0.950 . S
C4974 C4973 1.524 . S
C4974 C4975 1.415 . S
C4975 H4945 0.950 . S
C4975 C4970 1.363 . S
C4975 C4974 1.415 . S
H4976 C4973 0.999 . S
H4977 C4958 0.913 . S
H4978 C4996 0.951 . S
H4979 C4998 0.951 . S
H4980 C5000 0.950 . S
H4981 C5001 0.950 . S
H4982 C5003 0.950 . S
H4983 C5006 0.950 . S
H4984 C5007 0.950 . S
H4985 C5009 0.950 . S
H4986 C5010 0.950 . S
H4987 C5011 0.951 . S
H4988 C5013 0.951 . S
H4989 C5015 0.950 . S
H4990 C5016 0.950 . S
H4991 C5018 0.950 . S
H4992 C5021 0.950 . S
H4993 C5022 0.950 . S
H4994 C5024 0.950 . S
H4995 C5025 0.950 . S
C4996 H4978 0.951 . S
C4996 C4997 1.366 . S
C4996 C4998 1.388 . S
C4997 C4996 1.366 . S
C4997 C5001 1.385 . S
C4998 H4979 0.951 . S
C4998 C4996 1.388 . S
C4998 C4999 1.366 . S
C4999 C4998 1.366 . S
C4999 C5000 1.414 . S
C4999 C5002 1.499 . S
C5000 H4980 0.950 . S
C5000 C4999 1.414 . S
C5000 C5001 1.374 . S
C5001 H4981 0.950 . S
C5001 C4997 1.385 . S
C5001 C5000 1.374 . S
C5002 C4999 1.499 . S
C5002 C5003 1.373 . S
C5002 C5004 1.389 . S
C5003 H4982 0.950 . S
C5003 C5002 1.373 . S
C5003 C5019 1.377 . S
C5004 C5002 1.389 . S
C5004 C5005 1.524 . S
C5004 C5018 1.377 . S
C5005 C5004 1.524 . S
C5005 C5006 1.397 . S
C5005 C5010 1.363 . S
C5006 H4983 0.950 . S
C5006 C5005 1.397 . S
C5006 C5007 1.334 . S
C5007 H4984 0.950 . S
C5007 C5006 1.334 . S
C5007 C5008 1.287 . S
C5008 C5007 1.287 . S
C5008 C5009 1.524 . S
C5008 H5027 0.913 . S
C5009 H4985 0.950 . S
C5009 C5008 1.524 . S
C5009 C5010 1.415 . S
C5010 H4986 0.950 . S
C5010 C5005 1.363 . S
C5010 C5009 1.415 . S
C5011 H4987 0.951 . S
C5011 C5012 1.366 . S
C5011 C5013 1.388 . S
C5012 C5011 1.366 . S
C5012 C5016 1.385 . S
C5013 H4988 0.951 . S
C5013 C5011 1.388 . S
C5013 C5014 1.366 . S
C5014 C5013 1.366 . S
C5014 C5015 1.414 . S
C5014 C5017 1.499 . S
C5015 H4989 0.950 . S
C5015 C5014 1.414 . S
C5015 C5016 1.374 . S
C5016 H4990 0.950 . S
C5016 C5012 1.385 . S
C5016 C5015 1.374 . S
C5017 C5014 1.499 . S
C5017 C5018 1.373 . S
C5017 C5019 1.389 . S
C5018 H4991 0.950 . S
C5018 C5004 1.377 . S
C5018 C5017 1.373 . S
C5019 C5003 1.377 . S
C5019 C5017 1.389 . S
C5019 C5020 1.524 . S
C5020 C5019 1.524 . S
C5020 C5021 1.397 . S
C5020 C5025 1.363 . S
C5021 H4992 0.950 . S
C5021 C5020 1.397 . S
C5021 C5022 1.334 . S
C5022 H4993 0.950 . S
C5022 C5021 1.334 . S
C5022 C5023 1.287 . S
C5023 C5022 1.287 . S
C5023 C5024 1.524 . S
C5023 H5026 0.999 . S
C5024 H4994 0.950 . S
C5024 C5023 1.524 . S
C5024 C5025 1.415 . S
C5025 H4995 0.950 . S
C5025 C5020 1.363 . S
C5025 C5024 1.415 . S
H5026 C5023 0.999 . S
H5027 C5008 0.913 . S
H5028 C5046 0.951 . S
H5029 C5048 0.951 . S
H5030 C5050 0.950 . S
H5031 C5051 0.950 . S
H5032 C5053 0.950 . S
H5033 C5056 0.950 . S
H5034 C5057 0.950 . S
H5035 C5059 0.950 . S
H5036 C5060 0.950 . S
H5037 C5061 0.951 . S
H5038 C5063 0.951 . S
H5039 C5065 0.950 . S
H5040 C5066 0.950 . S
H5041 C5068 0.950 . S
H5042 C5071 0.950 . S
H5043 C5072 0.950 . S
H5044 C5074 0.950 . S
H5045 C5075 0.950 . S
C5046 H5028 0.951 . S
C5046 C5047 1.366 . S
C5046 C5048 1.388 . S
C5047 C5046 1.366 . S
C5047 C5051 1.385 . S
C5048 H5029 0.951 . S
C5048 C5046 1.388 . S
C5048 C5049 1.366 . S
C5049 C5048 1.366 . S
C5049 C5050 1.414 . S
C5049 C5052 1.499 . S
C5050 H5030 0.950 . S
C5050 C5049 1.414 . S
C5050 C5051 1.374 . S
C5051 H5031 0.950 . S
C5051 C5047 1.385 . S
C5051 C5050 1.374 . S
C5052 C5049 1.499 . S
C5052 C5053 1.373 . S
C5052 C5054 1.389 . S
C5053 H5032 0.950 . S
C5053 C5052 1.373 . S
C5053 C5069 1.377 . S
C5054 C5052 1.389 . S
C5054 C5055 1.524 . S
C5054 C5068 1.377 . S
C5055 C5054 1.524 . S
C5055 C5056 1.397 . S
C5055 C5060 1.363 . S
C5056 H5033 0.950 . S
C5056 C5055 1.397 . S
C5056 C5057 1.334 . S
C5057 H5034 0.950 . S
C5057 C5056 1.334 . S
C5057 C5058 1.287 . S
C5058 C5057 1.287 . S
C5058 C5059 1.524 . S
C5058 H5077 0.913 . S
C5059 H5035 0.950 . S
C5059 C5058 1.524 . S
C5059 C5060 1.415 . S
C5060 H5036 0.950 . S
C5060 C5055 1.363 . S
C5060 C5059 1.415 . S
C5061 H5037 0.951 . S
C5061 C5062 1.366 . S
C5061 C5063 1.388 . S
C5062 C5061 1.366 . S
C5062 C5066 1.385 . S
C5063 H5038 0.951 . S
C5063 C5061 1.388 . S
C5063 C5064 1.366 . S
C5064 C5063 1.366 . S
C5064 C5065 1.414 . S
C5064 C5067 1.499 . S
C5065 H5039 0.950 . S
C5065 C5064 1.414 . S
C5065 C5066 1.374 . S
C5066 H5040 0.950 . S
C5066 C5062 1.385 . S
C5066 C5065 1.374 . S
C5067 C5064 1.499 . S
C5067 C5068 1.373 . S
C5067 C5069 1.389 . S
C5068 H5041 0.950 . S
C5068 C5054 1.377 . S
C5068 C5067 1.373 . S
C5069 C5053 1.377 . S
C5069 C5067 1.389 . S
C5069 C5070 1.524 . S
C5070 C5069 1.524 . S
C5070 C5071 1.397 . S
C5070 C5075 1.363 . S
C5071 H5042 0.950 . S
C5071 C5070 1.397 . S
C5071 C5072 1.334 . S
C5072 H5043 0.950 . S
C5072 C5071 1.334 . S
C5072 C5073 1.287 . S
C5073 C5072 1.287 . S
C5073 C5074 1.524 . S
C5073 H5076 0.999 . S
C5074 H5044 0.950 . S
C5074 C5073 1.524 . S
C5074 C5075 1.415 . S
C5075 H5045 0.950 . S
C5075 C5070 1.363 . S
C5075 C5074 1.415 . S
H5076 C5073 0.999 . S
H5077 C5058 0.913 . S
H5078 C5096 0.951 . S
H5079 C5098 0.951 . S
H5080 C5100 0.950 . S
H5081 C5101 0.950 . S
H5082 C5103 0.950 . S
H5083 C5106 0.950 . S
H5084 C5107 0.950 . S
H5085 C5109 0.950 . S
H5086 C5110 0.950 . S
H5087 C5111 0.951 . S
H5088 C5113 0.951 . S
H5089 C5115 0.950 . S
H5090 C5116 0.950 . S
H5091 C5118 0.950 . S
H5092 C5121 0.950 . S
H5093 C5122 0.950 . S
H5094 C5124 0.950 . S
H5095 C5125 0.950 . S
C5096 H5078 0.951 . S
C5096 C5097 1.366 . S
C5096 C5098 1.388 . S
C5097 C5096 1.366 . S
C5097 C5101 1.385 . S
C5098 H5079 0.951 . S
C5098 C5096 1.388 . S
C5098 C5099 1.366 . S
C5099 C5098 1.366 . S
C5099 C5100 1.414 . S
C5099 C5102 1.499 . S
C5100 H5080 0.950 . S
C5100 C5099 1.414 . S
C5100 C5101 1.374 . S
C5101 H5081 0.950 . S
C5101 C5097 1.385 . S
C5101 C5100 1.374 . S
C5102 C5099 1.499 . S
C5102 C5103 1.373 . S
C5102 C5104 1.389 . S
C5103 H5082 0.950 . S
C5103 C5102 1.373 . S
C5103 C5119 1.377 . S
C5104 C5102 1.389 . S
C5104 C5105 1.524 . S
C5104 C5118 1.377 . S
C5105 C5104 1.524 . S
C5105 C5106 1.397 . S
C5105 C5110 1.363 . S
C5106 H5083 0.950 . S
C5106 C5105 1.397 . S
C5106 C5107 1.334 . S
C5107 H5084 0.950 . S
C5107 C5106 1.334 . S
C5107 C5108 1.287 . S
C5108 C5107 1.287 . S
C5108 C5109 1.524 . S
C5108 H5127 0.913 . S
C5109 H5085 0.950 . S
C5109 C5108 1.524 . S
C5109 C5110 1.415 . S
C5110 H5086 0.950 . S
C5110 C5105 1.363 . S
C5110 C5109 1.415 . S
C5111 H5087 0.951 . S
C5111 C5112 1.366 . S
C5111 C5113 1.388 . S
C5112 C5111 1.366 . S
C5112 C5116 1.385 . S
C5113 H5088 0.951 . S
C5113 C5111 1.388 . S
C5113 C5114 1.366 . S
C5114 C5113 1.366 . S
C5114 C5115 1.414 . S
C5114 C5117 1.499 . S
C5115 H5089 0.950 . S
C5115 C5114 1.414 . S
C5115 C5116 1.374 . S
C5116 H5090 0.950 . S
C5116 C5112 1.385 . S
C5116 C5115 1.374 . S
C5117 C5114 1.499 . S
C5117 C5118 1.373 . S
C5117 C5119 1.389 . S
C5118 H5091 0.950 . S
C5118 C5104 1.377 . S
C5118 C5117 1.373 . S
C5119 C5103 1.377 . S
C5119 C5117 1.389 . S
C5119 C5120 1.524 . S
C5120 C5119 1.524 . S
C5120 C5121 1.397 . S
C5120 C5125 1.363 . S
C5121 H5092 0.950 . S
C5121 C5120 1.397 . S
C5121 C5122 1.334 . S
C5122 H5093 0.950 . S
C5122 C5121 1.334 . S
C5122 C5123 1.287 . S
C5123 C5122 1.287 . S
C5123 C5124 1.524 . S
C5123 H5126 0.999 . S
C5124 H5094 0.950 . S
C5124 C5123 1.524 . S
C5124 C5125 1.415 . S
C5125 H5095 0.950 . S
C5125 C5120 1.363 . S
C5125 C5124 1.415 . S
H5126 C5123 0.999 . S
H5127 C5108 0.913 . S
H5128 C5146 0.951 . S
H5129 C5148 0.951 . S
H5130 C5150 0.950 . S
H5131 C5151 0.950 . S
H5132 C5153 0.950 . S
H5133 C5156 0.950 . S
H5134 C5157 0.950 . S
H5135 C5159 0.950 . S
H5136 C5160 0.950 . S
H5137 C5161 0.951 . S
H5138 C5163 0.951 . S
H5139 C5165 0.950 . S
H5140 C5166 0.950 . S
H5141 C5168 0.950 . S
H5142 C5171 0.950 . S
H5143 C5172 0.950 . S
H5144 C5174 0.950 . S
H5145 C5175 0.950 . S
C5146 H5128 0.951 . S
C5146 C5147 1.366 . S
C5146 C5148 1.388 . S
C5147 C5146 1.366 . S
C5147 C5151 1.385 . S
C5148 H5129 0.951 . S
C5148 C5146 1.388 . S
C5148 C5149 1.366 . S
C5149 C5148 1.366 . S
C5149 C5150 1.414 . S
C5149 C5152 1.499 . S
C5150 H5130 0.950 . S
C5150 C5149 1.414 . S
C5150 C5151 1.374 . S
C5151 H5131 0.950 . S
C5151 C5147 1.385 . S
C5151 C5150 1.374 . S
C5152 C5149 1.499 . S
C5152 C5153 1.373 . S
C5152 C5154 1.389 . S
C5153 H5132 0.950 . S
C5153 C5152 1.373 . S
C5153 C5169 1.377 . S
C5154 C5152 1.389 . S
C5154 C5155 1.524 . S
C5154 C5168 1.377 . S
C5155 C5154 1.524 . S
C5155 C5156 1.397 . S
C5155 C5160 1.363 . S
C5156 H5133 0.950 . S
C5156 C5155 1.397 . S
C5156 C5157 1.334 . S
C5157 H5134 0.950 . S
C5157 C5156 1.334 . S
C5157 C5158 1.287 . S
C5158 C5157 1.287 . S
C5158 C5159 1.524 . S
C5158 H5177 0.913 . S
C5159 H5135 0.950 . S
C5159 C5158 1.524 . S
C5159 C5160 1.415 . S
C5160 H5136 0.950 . S
C5160 C5155 1.363 . S
C5160 C5159 1.415 . S
C5161 H5137 0.951 . S
C5161 C5162 1.366 . S
C5161 C5163 1.388 . S
C5162 C5161 1.366 . S
C5162 C5166 1.385 . S
C5163 H5138 0.951 . S
C5163 C5161 1.388 . S
C5163 C5164 1.366 . S
C5164 C5163 1.366 . S
C5164 C5165 1.414 . S
C5164 C5167 1.499 . S
C5165 H5139 0.950 . S
C5165 C5164 1.414 . S
C5165 C5166 1.374 . S
C5166 H5140 0.950 . S
C5166 C5162 1.385 . S
C5166 C5165 1.374 . S
C5167 C5164 1.499 . S
C5167 C5168 1.373 . S
C5167 C5169 1.389 . S
C5168 H5141 0.950 . S
C5168 C5154 1.377 . S
C5168 C5167 1.373 . S
C5169 C5153 1.377 . S
C5169 C5167 1.389 . S
C5169 C5170 1.524 . S
C5170 C5169 1.524 . S
C5170 C5171 1.397 . S
C5170 C5175 1.363 . S
C5171 H5142 0.950 . S
C5171 C5170 1.397 . S
C5171 C5172 1.334 . S
C5172 H5143 0.950 . S
C5172 C5171 1.334 . S
C5172 C5173 1.287 . S
C5173 C5172 1.287 . S
C5173 C5174 1.524 . S
C5173 H5176 0.999 . S
C5174 H5144 0.950 . S
C5174 C5173 1.524 . S
C5174 C5175 1.415 . S
C5175 H5145 0.950 . S
C5175 C5170 1.363 . S
C5175 C5174 1.415 . S
H5176 C5173 0.999 . S
H5177 C5158 0.913 . S
H5178 C5196 0.951 . S
H5179 C5198 0.951 . S
H5180 C5200 0.950 . S
H5181 C5201 0.950 . S
H5182 C5203 0.950 . S
H5183 C5206 0.950 . S
H5184 C5207 0.950 . S
H5185 C5209 0.950 . S
H5186 C5210 0.950 . S
H5187 C5211 0.951 . S
H5188 C5213 0.951 . S
H5189 C5215 0.950 . S
H5190 C5216 0.950 . S
H5191 C5218 0.950 . S
H5192 C5221 0.950 . S
H5193 C5222 0.950 . S
H5194 C5224 0.950 . S
H5195 C5225 0.950 . S
C5196 H5178 0.951 . S
C5196 C5197 1.366 . S
C5196 C5198 1.388 . S
C5197 C5196 1.366 . S
C5197 C5201 1.385 . S
C5198 H5179 0.951 . S
C5198 C5196 1.388 . S
C5198 C5199 1.366 . S
C5199 C5198 1.366 . S
C5199 C5200 1.414 . S
C5199 C5202 1.499 . S
C5200 H5180 0.950 . S
C5200 C5199 1.414 . S
C5200 C5201 1.374 . S
C5201 H5181 0.950 . S
C5201 C5197 1.385 . S
C5201 C5200 1.374 . S
C5202 C5199 1.499 . S
C5202 C5203 1.373 . S
C5202 C5204 1.389 . S
C5203 H5182 0.950 . S
C5203 C5202 1.373 . S
C5203 C5219 1.377 . S
C5204 C5202 1.389 . S
C5204 C5205 1.524 . S
C5204 C5218 1.377 . S
C5205 C5204 1.524 . S
C5205 C5206 1.397 . S
C5205 C5210 1.363 . S
C5206 H5183 0.950 . S
C5206 C5205 1.397 . S
C5206 C5207 1.334 . S
C5207 H5184 0.950 . S
C5207 C5206 1.334 . S
C5207 C5208 1.287 . S
C5208 C5207 1.287 . S
C5208 C5209 1.524 . S
C5208 H5227 0.913 . S
C5209 H5185 0.950 . S
C5209 C5208 1.524 . S
C5209 C5210 1.415 . S
C5210 H5186 0.950 . S
C5210 C5205 1.363 . S
C5210 C5209 1.415 . S
C5211 H5187 0.951 . S
C5211 C5212 1.366 . S
C5211 C5213 1.388 . S
C5212 C5211 1.366 . S
C5212 C5216 1.385 . S
C5213 H5188 0.951 . S
C5213 C5211 1.388 . S
C5213 C5214 1.366 . S
C5214 C5213 1.366 . S
C5214 C5215 1.414 . S
C5214 C5217 1.499 . S
C5215 H5189 0.950 . S
C5215 C5214 1.414 . S
C5215 C5216 1.374 . S
C5216 H5190 0.950 . S
C5216 C5212 1.385 . S
C5216 C5215 1.374 . S
C5217 C5214 1.499 . S
C5217 C5218 1.373 . S
C5217 C5219 1.389 . S
C5218 H5191 0.950 . S
C5218 C5204 1.377 . S
C5218 C5217 1.373 . S
C5219 C5203 1.377 . S
C5219 C5217 1.389 . S
C5219 C5220 1.524 . S
C5220 C5219 1.524 . S
C5220 C5221 1.397 . S
C5220 C5225 1.363 . S
C5221 H5192 0.950 . S
C5221 C5220 1.397 . S
C5221 C5222 1.334 . S
C5222 H5193 0.950 . S
C5222 C5221 1.334 . S
C5222 C5223 1.287 . S
C5223 C5222 1.287 . S
C5223 C5224 1.524 . S
C5223 H5226 0.999 . S
C5224 H5194 0.950 . S
C5224 C5223 1.524 . S
C5224 C5225 1.415 . S
C5225 H5195 0.950 . S
C5225 C5220 1.363 . S
C5225 C5224 1.415 . S
H5226 C5223 0.999 . S
H5227 C5208 0.913 . S
H5228 C5246 0.951 . S
H5229 C5248 0.951 . S
H5230 C5250 0.950 . S
H5231 C5251 0.950 . S
H5232 C5253 0.950 . S
H5233 C5256 0.950 . S
H5234 C5257 0.950 . S
H5235 C5259 0.950 . S
H5236 C5260 0.950 . S
H5237 C5261 0.951 . S
H5238 C5263 0.951 . S
H5239 C5265 0.950 . S
H5240 C5266 0.950 . S
H5241 C5268 0.950 . S
H5242 C5271 0.950 . S
H5243 C5272 0.950 . S
H5244 C5274 0.950 . S
H5245 C5275 0.950 . S
C5246 H5228 0.951 . S
C5246 C5247 1.366 . S
C5246 C5248 1.388 . S
C5247 C5246 1.366 . S
C5247 C5251 1.385 . S
C5248 H5229 0.951 . S
C5248 C5246 1.388 . S
C5248 C5249 1.366 . S
C5249 C5248 1.366 . S
C5249 C5250 1.414 . S
C5249 C5252 1.499 . S
C5250 H5230 0.950 . S
C5250 C5249 1.414 . S
C5250 C5251 1.374 . S
C5251 H5231 0.950 . S
C5251 C5247 1.385 . S
C5251 C5250 1.374 . S
C5252 C5249 1.499 . S
C5252 C5253 1.373 . S
C5252 C5254 1.389 . S
C5253 H5232 0.950 . S
C5253 C5252 1.373 . S
C5253 C5269 1.377 . S
C5254 C5252 1.389 . S
C5254 C5255 1.524 . S
C5254 C5268 1.377 . S
C5255 C5254 1.524 . S
C5255 C5256 1.397 . S
C5255 C5260 1.363 . S
C5256 H5233 0.950 . S
C5256 C5255 1.397 . S
C5256 C5257 1.334 . S
C5257 H5234 0.950 . S
C5257 C5256 1.334 . S
C5257 C5258 1.287 . S
C5258 C5257 1.287 . S
C5258 C5259 1.524 . S
C5258 H5277 0.913 . S
C5259 H5235 0.950 . S
C5259 C5258 1.524 . S
C5259 C5260 1.415 . S
C5260 H5236 0.950 . S
C5260 C5255 1.363 . S
C5260 C5259 1.415 . S
C5261 H5237 0.951 . S
C5261 C5262 1.366 . S
C5261 C5263 1.388 . S
C5262 C5261 1.366 . S
C5262 C5266 1.385 . S
C5263 H5238 0.951 . S
C5263 C5261 1.388 . S
C5263 C5264 1.366 . S
C5264 C5263 1.366 . S
C5264 C5265 1.414 . S
C5264 C5267 1.499 . S
C5265 H5239 0.950 . S
C5265 C5264 1.414 . S
C5265 C5266 1.374 . S
C5266 H5240 0.950 . S
C5266 C5262 1.385 . S
C5266 C5265 1.374 . S
C5267 C5264 1.499 . S
C5267 C5268 1.373 . S
C5267 C5269 1.389 . S
C5268 H5241 0.950 . S
C5268 C5254 1.377 . S
C5268 C5267 1.373 . S
C5269 C5253 1.377 . S
C5269 C5267 1.389 . S
C5269 C5270 1.524 . S
C5270 C5269 1.524 . S
C5270 C5271 1.397 . S
C5270 C5275 1.363 . S
C5271 H5242 0.950 . S
C5271 C5270 1.397 . S
C5271 C5272 1.334 . S
C5272 H5243 0.950 . S
C5272 C5271 1.334 . S
C5272 C5273 1.287 . S
C5273 C5272 1.287 . S
C5273 C5274 1.524 . S
C5273 H5276 0.999 . S
C5274 H5244 0.950 . S
C5274 C5273 1.524 . S
C5274 C5275 1.415 . S
C5275 H5245 0.950 . S
C5275 C5270 1.363 . S
C5275 C5274 1.415 . S
H5276 C5273 0.999 . S
H5277 C5258 0.913 . S
H5278 C5296 0.951 . S
H5279 C5298 0.951 . S
H5280 C5300 0.950 . S
H5281 C5301 0.950 . S
H5282 C5303 0.950 . S
H5283 C5306 0.950 . S
H5284 C5307 0.950 . S
H5285 C5309 0.950 . S
H5286 C5310 0.950 . S
H5287 C5311 0.951 . S
H5288 C5313 0.951 . S
H5289 C5315 0.950 . S
H5290 C5316 0.950 . S
H5291 C5318 0.950 . S
H5292 C5321 0.950 . S
H5293 C5322 0.950 . S
H5294 C5324 0.950 . S
H5295 C5325 0.950 . S
C5296 H5278 0.951 . S
C5296 C5297 1.366 . S
C5296 C5298 1.388 . S
C5297 C5296 1.366 . S
C5297 C5301 1.385 . S
C5298 H5279 0.951 . S
C5298 C5296 1.388 . S
C5298 C5299 1.366 . S
C5299 C5298 1.366 . S
C5299 C5300 1.414 . S
C5299 C5302 1.499 . S
C5300 H5280 0.950 . S
C5300 C5299 1.414 . S
C5300 C5301 1.374 . S
C5301 H5281 0.950 . S
C5301 C5297 1.385 . S
C5301 C5300 1.374 . S
C5302 C5299 1.499 . S
C5302 C5303 1.373 . S
C5302 C5304 1.389 . S
C5303 H5282 0.950 . S
C5303 C5302 1.373 . S
C5303 C5319 1.377 . S
C5304 C5302 1.389 . S
C5304 C5305 1.524 . S
C5304 C5318 1.377 . S
C5305 C5304 1.524 . S
C5305 C5306 1.397 . S
C5305 C5310 1.363 . S
C5306 H5283 0.950 . S
C5306 C5305 1.397 . S
C5306 C5307 1.334 . S
C5307 H5284 0.950 . S
C5307 C5306 1.334 . S
C5307 C5308 1.287 . S
C5308 C5307 1.287 . S
C5308 C5309 1.524 . S
C5308 H5327 0.913 . S
C5309 H5285 0.950 . S
C5309 C5308 1.524 . S
C5309 C5310 1.415 . S
C5310 H5286 0.950 . S
C5310 C5305 1.363 . S
C5310 C5309 1.415 . S
C5311 H5287 0.951 . S
C5311 C5312 1.366 . S
C5311 C5313 1.388 . S
C5312 C5311 1.366 . S
C5312 C5316 1.385 . S
C5313 H5288 0.951 . S
C5313 C5311 1.388 . S
C5313 C5314 1.366 . S
C5314 C5313 1.366 . S
C5314 C5315 1.414 . S
C5314 C5317 1.499 . S
C5315 H5289 0.950 . S
C5315 C5314 1.414 . S
C5315 C5316 1.374 . S
C5316 H5290 0.950 . S
C5316 C5312 1.385 . S
C5316 C5315 1.374 . S
C5317 C5314 1.499 . S
C5317 C5318 1.373 . S
C5317 C5319 1.389 . S
C5318 H5291 0.950 . S
C5318 C5304 1.377 . S
C5318 C5317 1.373 . S
C5319 C5303 1.377 . S
C5319 C5317 1.389 . S
C5319 C5320 1.524 . S
C5320 C5319 1.524 . S
C5320 C5321 1.397 . S
C5320 C5325 1.363 . S
C5321 H5292 0.950 . S
C5321 C5320 1.397 . S
C5321 C5322 1.334 . S
C5322 H5293 0.950 . S
C5322 C5321 1.334 . S
C5322 C5323 1.287 . S
C5323 C5322 1.287 . S
C5323 C5324 1.524 . S
C5323 H5326 0.999 . S
C5324 H5294 0.950 . S
C5324 C5323 1.524 . S
C5324 C5325 1.415 . S
C5325 H5295 0.950 . S
C5325 C5320 1.363 . S
C5325 C5324 1.415 . S
H5326 C5323 0.999 . S
H5327 C5308 0.913 . S
H5328 C5346 0.951 . S
H5329 C5348 0.951 . S
H5330 C5350 0.950 . S
H5331 C5351 0.950 1_655 S
H5332 C5353 0.950 . S
H5333 C5356 0.950 . S
H5334 C5357 0.950 . S
H5335 C5359 0.950 . S
H5336 C5360 0.950 . S
H5337 C5361 0.951 . S
H5338 C5363 0.951 . S
H5339 C5365 1.028 . S
H5340 C5366 0.950 1_455 S
H5341 C5368 0.950 . S
H5342 C5371 0.950 . S
H5343 C5372 0.950 . S
H5344 C5374 0.950 . S
H5345 C5375 0.950 . S
C5346 H5328 0.951 . S
C5346 C5347 1.366 . S
C5346 C5348 1.388 . S
C5347 C5346 1.366 . S
C5347 C5351 1.385 . S
C5348 H5329 0.951 . S
C5348 C5346 1.388 . S
C5348 C5349 1.366 . S
C5349 C5348 1.366 . S
C5349 C5350 1.414 1_455 S
C5349 C5352 1.499 . S
C5350 H5330 0.950 . S
C5350 C5349 1.414 1_655 S
C5350 C5351 1.374 1_655 S
C5351 H5331 0.950 1_455 S
C5351 C5347 1.385 . S
C5351 C5350 1.374 1_455 S
C5352 C5349 1.499 . S
C5352 C5353 1.373 1_455 S
C5352 C5354 1.389 . S
C5353 H5332 0.950 . S
C5353 C5352 1.373 1_655 S
C5353 C5369 1.377 . S
C5354 C5352 1.389 . S
C5354 C5355 1.524 . S
C5354 C5368 1.377 . S
C5355 C5354 1.524 . S
C5355 C5356 1.397 . S
C5355 C5360 1.363 . S
C5356 H5333 0.950 . S
C5356 C5355 1.397 . S
C5356 C5357 1.334 . S
C5357 H5334 0.950 . S
C5357 C5356 1.334 . S
C5357 C5358 1.287 . S
C5358 C5357 1.287 . S
C5358 C5359 1.524 . S
C5358 H5377 0.913 . S
C5359 H5335 0.950 . S
C5359 C5358 1.524 . S
C5359 C5360 1.415 . S
C5360 H5336 0.950 . S
C5360 C5355 1.363 . S
C5360 C5359 1.415 . S
C5361 H5337 0.951 . S
C5361 C5362 1.366 . S
C5361 C5363 1.388 . S
C5362 C5361 1.366 . S
C5362 C5366 1.385 . S
C5363 H5338 0.951 . S
C5363 C5361 1.388 . S
C5363 C5364 1.366 . S
C5364 C5363 1.366 . S
C5364 C5365 1.361 1_655 S
C5364 C5367 1.499 . S
C5365 H5339 1.028 . S
C5365 C5364 1.361 1_455 S
C5365 C5366 1.354 1_455 S
C5366 H5340 0.950 1_655 S
C5366 C5362 1.385 . S
C5366 C5365 1.354 1_655 S
C5367 C5364 1.499 . S
C5367 C5368 1.373 1_655 S
C5367 C5369 1.389 . S
C5368 H5341 0.950 . S
C5368 C5354 1.377 . S
C5368 C5367 1.373 1_455 S
C5369 C5353 1.377 . S
C5369 C5367 1.389 . S
C5369 C5370 1.524 . S
C5370 C5369 1.524 . S
C5370 C5371 1.397 . S
C5370 C5375 1.363 . S
C5371 H5342 0.950 . S
C5371 C5370 1.397 . S
C5371 C5372 1.334 . S
C5372 H5343 0.950 . S
C5372 C5371 1.334 . S
C5372 C5373 1.287 . S
C5373 C5372 1.287 . S
C5373 C5374 1.524 . S
C5373 H5376 0.999 . S
C5374 H5344 0.950 . S
C5374 C5373 1.524 . S
C5374 C5375 1.415 . S
C5375 H5345 0.950 . S
C5375 C5370 1.363 . S
C5375 C5374 1.415 . S
H5376 C5373 0.999 . S
H5377 C5358 0.913 . S
H5378 C5396 0.951 . S
H5379 C5398 0.951 . S
H5380 C5400 0.950 . S
H5381 C5401 0.950 . S
H5382 C5403 0.950 . S
H5383 C5406 0.950 . S
H5384 C5407 0.950 . S
H5385 C5409 0.950 . S
H5386 C5410 0.950 . S
H5387 C5411 0.951 . S
H5388 C5413 0.951 . S
H5389 C5415 0.950 . S
H5390 C5416 0.950 . S
H5391 C5418 0.950 . S
H5392 C5421 0.950 . S
H5393 C5422 0.950 . S
H5394 C5424 0.950 . S
H5395 C5425 0.950 . S
C5396 H5378 0.951 . S
C5396 C5397 1.366 . S
C5396 C5398 1.388 . S
C5397 C5396 1.366 . S
C5397 C5401 1.385 . S
C5398 H5379 0.951 . S
C5398 C5396 1.388 . S
C5398 C5399 1.366 . S
C5399 C5398 1.366 . S
C5399 C5400 1.414 . S
C5399 C5402 1.499 . S
C5400 H5380 0.950 . S
C5400 C5399 1.414 . S
C5400 C5401 1.374 . S
C5401 H5381 0.950 . S
C5401 C5397 1.385 . S
C5401 C5400 1.374 . S
C5402 C5399 1.499 . S
C5402 C5403 1.373 . S
C5402 C5404 1.389 . S
C5403 H5382 0.950 . S
C5403 C5402 1.373 . S
C5403 C5419 1.377 . S
C5404 C5402 1.389 . S
C5404 C5405 1.524 . S
C5404 C5418 1.377 . S
C5405 C5404 1.524 . S
C5405 C5406 1.397 . S
C5405 C5410 1.363 . S
C5406 H5383 0.950 . S
C5406 C5405 1.397 . S
C5406 C5407 1.334 . S
C5407 H5384 0.950 . S
C5407 C5406 1.334 . S
C5407 C5408 1.287 . S
C5408 C5407 1.287 . S
C5408 C5409 1.524 . S
C5408 H5427 0.913 . S
C5409 H5385 0.950 . S
C5409 C5408 1.524 . S
C5409 C5410 1.415 . S
C5410 H5386 0.950 . S
C5410 C5405 1.363 . S
C5410 C5409 1.415 . S
C5411 H5387 0.951 . S
C5411 C5412 1.366 . S
C5411 C5413 1.388 . S
C5412 C5411 1.366 . S
C5412 C5416 1.385 . S
C5413 H5388 0.951 . S
C5413 C5411 1.388 . S
C5413 C5414 1.366 . S
C5414 C5413 1.366 . S
C5414 C5415 1.414 . S
C5414 C5417 1.499 . S
C5415 H5389 0.950 . S
C5415 C5414 1.414 . S
C5415 C5416 1.374 . S
C5416 H5390 0.950 . S
C5416 C5412 1.385 . S
C5416 C5415 1.374 . S
C5417 C5414 1.499 . S
C5417 C5418 1.373 . S
C5417 C5419 1.389 . S
C5418 H5391 0.950 . S
C5418 C5404 1.377 . S
C5418 C5417 1.373 . S
C5419 C5403 1.377 . S
C5419 C5417 1.389 . S
C5419 C5420 1.524 . S
C5420 C5419 1.524 . S
C5420 C5421 1.397 . S
C5420 C5425 1.363 . S
C5421 H5392 0.950 . S
C5421 C5420 1.397 . S
C5421 C5422 1.334 . S
C5422 H5393 0.950 . S
C5422 C5421 1.334 . S
C5422 C5423 1.287 . S
C5423 C5422 1.287 . S
C5423 C5424 1.524 . S
C5423 H5426 0.999 . S
C5424 H5394 0.950 . S
C5424 C5423 1.524 . S
C5424 C5425 1.415 . S
C5425 H5395 0.950 . S
C5425 C5420 1.363 . S
C5425 C5424 1.415 . S
H5426 C5423 0.999 . S
H5427 C5408 0.913 . S
H5428 C5446 0.951 . S
H5429 C5448 0.951 . S
H5430 C5450 0.950 . S
H5431 C5451 0.950 . S
H5432 C5453 0.950 . S
H5433 C5456 0.950 . S
H5434 C5457 0.950 . S
H5435 C5459 0.950 . S
H5436 C5460 0.950 . S
H5437 C5461 0.951 . S
H5438 C5463 0.951 . S
H5439 C5465 0.950 . S
H5440 C5466 0.950 . S
H5441 C5468 0.950 . S
H5442 C5471 0.950 . S
H5443 C5472 0.950 . S
H5444 C5474 0.950 . S
H5445 C5475 0.950 . S
C5446 H5428 0.951 . S
C5446 C5447 1.366 . S
C5446 C5448 1.388 . S
C5447 C5446 1.366 . S
C5447 C5451 1.385 . S
C5448 H5429 0.951 . S
C5448 C5446 1.388 . S
C5448 C5449 1.366 . S
C5449 C5448 1.366 . S
C5449 C5450 1.414 . S
C5449 C5452 1.499 . S
C5450 H5430 0.950 . S
C5450 C5449 1.414 . S
C5450 C5451 1.374 . S
C5451 H5431 0.950 . S
C5451 C5447 1.385 . S
C5451 C5450 1.374 . S
C5452 C5449 1.499 . S
C5452 C5453 1.373 . S
C5452 C5454 1.389 . S
C5453 H5432 0.950 . S
C5453 C5452 1.373 . S
C5453 C5469 1.377 . S
C5454 C5452 1.389 . S
C5454 C5455 1.524 . S
C5454 C5468 1.377 . S
C5455 C5454 1.524 . S
C5455 C5456 1.397 . S
C5455 C5460 1.363 . S
C5456 H5433 0.950 . S
C5456 C5455 1.397 . S
C5456 C5457 1.334 . S
C5457 H5434 0.950 . S
C5457 C5456 1.334 . S
C5457 C5458 1.287 . S
C5458 C5457 1.287 . S
C5458 C5459 1.524 . S
C5458 H5477 0.913 . S
C5459 H5435 0.950 . S
C5459 C5458 1.524 . S
C5459 C5460 1.415 . S
C5460 H5436 0.950 . S
C5460 C5455 1.363 . S
C5460 C5459 1.415 . S
C5461 H5437 0.951 . S
C5461 C5462 1.366 . S
C5461 C5463 1.388 . S
C5462 C5461 1.366 . S
C5462 C5466 1.385 . S
C5463 H5438 0.951 . S
C5463 C5461 1.388 . S
C5463 C5464 1.366 . S
C5464 C5463 1.366 . S
C5464 C5465 1.414 . S
C5464 C5467 1.499 . S
C5465 H5439 0.950 . S
C5465 C5464 1.414 . S
C5465 C5466 1.374 . S
C5466 H5440 0.950 . S
C5466 C5462 1.385 . S
C5466 C5465 1.374 . S
C5467 C5464 1.499 . S
C5467 C5468 1.373 . S
C5467 C5469 1.389 . S
C5468 H5441 0.950 . S
C5468 C5454 1.377 . S
C5468 C5467 1.373 . S
C5469 C5453 1.377 . S
C5469 C5467 1.389 . S
C5469 C5470 1.524 . S
C5470 C5469 1.524 . S
C5470 C5471 1.397 . S
C5470 C5475 1.363 . S
C5471 H5442 0.950 . S
C5471 C5470 1.397 . S
C5471 C5472 1.334 . S
C5472 H5443 0.950 . S
C5472 C5471 1.334 . S
C5472 C5473 1.287 . S
C5473 C5472 1.287 . S
C5473 C5474 1.524 . S
C5473 H5476 0.999 . S
C5474 H5444 0.950 . S
C5474 C5473 1.524 . S
C5474 C5475 1.415 . S
C5475 H5445 0.950 . S
C5475 C5470 1.363 . S
C5475 C5474 1.415 . S
H5476 C5473 0.999 . S
H5477 C5458 0.913 . S
H5478 C5496 0.951 . S
H5479 C5498 0.951 . S
H5480 C5500 0.950 . S
H5481 C5501 0.950 . S
H5482 C5503 0.950 . S
H5483 C5506 0.950 . S
H5484 C5507 0.950 . S
H5485 C5509 0.950 . S
H5486 C5510 0.950 . S
H5487 C5511 0.951 . S
H5488 C5513 0.951 . S
H5489 C5515 0.950 . S
H5490 C5516 0.950 . S
H5491 C5518 0.950 . S
H5492 C5521 0.950 . S
H5493 C5522 0.950 . S
H5494 C5524 0.950 . S
H5495 C5525 0.950 . S
C5496 H5478 0.951 . S
C5496 C5497 1.366 . S
C5496 C5498 1.388 . S
C5497 C5496 1.366 . S
C5497 C5501 1.385 . S
C5498 H5479 0.951 . S
C5498 C5496 1.388 . S
C5498 C5499 1.366 . S
C5499 C5498 1.366 . S
C5499 C5500 1.414 . S
C5499 C5502 1.499 . S
C5500 H5480 0.950 . S
C5500 C5499 1.414 . S
C5500 C5501 1.374 . S
C5501 H5481 0.950 . S
C5501 C5497 1.385 . S
C5501 C5500 1.374 . S
C5502 C5499 1.499 . S
C5502 C5503 1.373 . S
C5502 C5504 1.389 . S
C5503 H5482 0.950 . S
C5503 C5502 1.373 . S
C5503 C5519 1.377 . S
C5504 C5502 1.389 . S
C5504 C5505 1.524 . S
C5504 C5518 1.377 . S
C5505 C5504 1.524 . S
C5505 C5506 1.397 . S
C5505 C5510 1.363 . S
C5506 H5483 0.950 . S
C5506 C5505 1.397 . S
C5506 C5507 1.334 . S
C5507 H5484 0.950 . S
C5507 C5506 1.334 . S
C5507 C5508 1.287 . S
C5508 C5507 1.287 . S
C5508 C5509 1.524 . S
C5508 H5527 0.913 . S
C5509 H5485 0.950 . S
C5509 C5508 1.524 . S
C5509 C5510 1.415 . S
C5510 H5486 0.950 . S
C5510 C5505 1.363 . S
C5510 C5509 1.415 . S
C5511 H5487 0.951 . S
C5511 C5512 1.366 . S
C5511 C5513 1.388 . S
C5512 C5511 1.366 . S
C5512 C5516 1.385 . S
C5513 H5488 0.951 . S
C5513 C5511 1.388 . S
C5513 C5514 1.366 . S
C5514 C5513 1.366 . S
C5514 C5515 1.414 . S
C5514 C5517 1.499 . S
C5515 H5489 0.950 . S
C5515 C5514 1.414 . S
C5515 C5516 1.374 . S
C5516 H5490 0.950 . S
C5516 C5512 1.385 . S
C5516 C5515 1.374 . S
C5517 C5514 1.499 . S
C5517 C5518 1.373 . S
C5517 C5519 1.389 . S
C5518 H5491 0.950 . S
C5518 C5504 1.377 . S
C5518 C5517 1.373 . S
C5519 C5503 1.377 . S
C5519 C5517 1.389 . S
C5519 C5520 1.524 . S
C5520 C5519 1.524 . S
C5520 C5521 1.397 . S
C5520 C5525 1.363 . S
C5521 H5492 0.950 . S
C5521 C5520 1.397 . S
C5521 C5522 1.334 . S
C5522 H5493 0.950 . S
C5522 C5521 1.334 . S
C5522 C5523 1.287 . S
C5523 C5522 1.287 . S
C5523 C5524 1.524 . S
C5523 H5526 0.999 . S
C5524 H5494 0.950 . S
C5524 C5523 1.524 . S
C5524 C5525 1.415 . S
C5525 H5495 0.950 . S
C5525 C5520 1.363 . S
C5525 C5524 1.415 . S
H5526 C5523 0.999 . S
H5527 C5508 0.913 . S
H5528 C5546 0.951 . S
H5529 C5548 0.951 . S
H5530 C5550 0.950 . S
H5531 C5551 0.950 . S
H5532 C5553 0.950 . S
H5533 C5556 0.950 . S
H5534 C5557 0.950 . S
H5535 C5559 0.950 . S
H5536 C5560 0.950 . S
H5537 C5561 0.951 . S
H5538 C5563 0.951 . S
H5539 C5565 0.950 . S
H5540 C5566 0.950 . S
H5541 C5568 0.950 . S
H5542 C5571 0.950 . S
H5543 C5572 0.950 . S
H5544 C5574 0.950 . S
H5545 C5575 0.950 . S
C5546 H5528 0.951 . S
C5546 C5547 1.366 . S
C5546 C5548 1.388 . S
C5547 C5546 1.366 . S
C5547 C5551 1.385 . S
C5548 H5529 0.951 . S
C5548 C5546 1.388 . S
C5548 C5549 1.366 . S
C5549 C5548 1.366 . S
C5549 C5550 1.414 . S
C5549 C5552 1.499 . S
C5550 H5530 0.950 . S
C5550 C5549 1.414 . S
C5550 C5551 1.374 . S
C5551 H5531 0.950 . S
C5551 C5547 1.385 . S
C5551 C5550 1.374 . S
C5552 C5549 1.499 . S
C5552 C5553 1.373 . S
C5552 C5554 1.389 . S
C5553 H5532 0.950 . S
C5553 C5552 1.373 . S
C5553 C5569 1.377 . S
C5554 C5552 1.389 . S
C5554 C5555 1.524 . S
C5554 C5568 1.377 . S
C5555 C5554 1.524 . S
C5555 C5556 1.397 . S
C5555 C5560 1.363 . S
C5556 H5533 0.950 . S
C5556 C5555 1.397 . S
C5556 C5557 1.334 . S
C5557 H5534 0.950 . S
C5557 C5556 1.334 . S
C5557 C5558 1.287 . S
C5558 C5557 1.287 . S
C5558 C5559 1.524 . S
C5558 H5577 0.913 . S
C5559 H5535 0.950 . S
C5559 C5558 1.524 . S
C5559 C5560 1.415 . S
C5560 H5536 0.950 . S
C5560 C5555 1.363 . S
C5560 C5559 1.415 . S
C5561 H5537 0.951 . S
C5561 C5562 1.366 . S
C5561 C5563 1.388 . S
C5562 C5561 1.366 . S
C5562 C5566 1.385 . S
C5563 H5538 0.951 . S
C5563 C5561 1.388 . S
C5563 C5564 1.366 . S
C5564 C5563 1.366 . S
C5564 C5565 1.414 . S
C5564 C5567 1.499 . S
C5565 H5539 0.950 . S
C5565 C5564 1.414 . S
C5565 C5566 1.374 . S
C5566 H5540 0.950 . S
C5566 C5562 1.385 . S
C5566 C5565 1.374 . S
C5567 C5564 1.499 . S
C5567 C5568 1.373 . S
C5567 C5569 1.389 . S
C5568 H5541 0.950 . S
C5568 C5554 1.377 . S
C5568 C5567 1.373 . S
C5569 C5553 1.377 . S
C5569 C5567 1.389 . S
C5569 C5570 1.524 . S
C5570 C5569 1.524 . S
C5570 C5571 1.397 . S
C5570 C5575 1.363 . S
C5571 H5542 0.950 . S
C5571 C5570 1.397 . S
C5571 C5572 1.334 . S
C5572 H5543 0.950 . S
C5572 C5571 1.334 . S
C5572 C5573 1.287 . S
C5573 C5572 1.287 . S
C5573 C5574 1.524 . S
C5573 H5576 0.999 . S
C5574 H5544 0.950 . S
C5574 C5573 1.524 . S
C5574 C5575 1.415 . S
C5575 H5545 0.950 . S
C5575 C5570 1.363 . S
C5575 C5574 1.415 . S
H5576 C5573 0.999 . S
H5577 C5558 0.913 . S
H5578 C5596 0.951 . S
H5579 C5598 0.951 . S
H5580 C5600 0.950 . S
H5581 C5601 0.950 . S
H5582 C5603 0.950 . S
H5583 C5606 0.950 . S
H5584 C5607 0.950 . S
H5585 C5609 0.950 . S
H5586 C5610 0.950 . S
H5587 C5611 0.951 . S
H5588 C5613 0.951 . S
H5589 C5615 0.950 . S
H5590 C5616 0.950 . S
H5591 C5618 0.950 . S
H5592 C5621 0.950 . S
H5593 C5622 0.950 . S
H5594 C5624 0.950 . S
H5595 C5625 0.950 . S
C5596 H5578 0.951 . S
C5596 C5597 1.366 . S
C5596 C5598 1.388 . S
C5597 C5596 1.366 . S
C5597 C5601 1.385 . S
C5598 H5579 0.951 . S
C5598 C5596 1.388 . S
C5598 C5599 1.366 . S
C5599 C5598 1.366 . S
C5599 C5600 1.414 . S
C5599 C5602 1.499 . S
C5600 H5580 0.950 . S
C5600 C5599 1.414 . S
C5600 C5601 1.374 . S
C5601 H5581 0.950 . S
C5601 C5597 1.385 . S
C5601 C5600 1.374 . S
C5602 C5599 1.499 . S
C5602 C5603 1.373 . S
C5602 C5604 1.389 . S
C5603 H5582 0.950 . S
C5603 C5602 1.373 . S
C5603 C5619 1.377 . S
C5604 C5602 1.389 . S
C5604 C5605 1.524 . S
C5604 C5618 1.377 . S
C5605 C5604 1.524 . S
C5605 C5606 1.397 . S
C5605 C5610 1.363 . S
C5606 H5583 0.950 . S
C5606 C5605 1.397 . S
C5606 C5607 1.334 . S
C5607 H5584 0.950 . S
C5607 C5606 1.334 . S
C5607 C5608 1.287 . S
C5608 C5607 1.287 . S
C5608 C5609 1.524 . S
C5608 H5627 0.913 . S
C5609 H5585 0.950 . S
C5609 C5608 1.524 . S
C5609 C5610 1.415 . S
C5610 H5586 0.950 . S
C5610 C5605 1.363 . S
C5610 C5609 1.415 . S
C5611 H5587 0.951 . S
C5611 C5612 1.366 . S
C5611 C5613 1.388 . S
C5612 C5611 1.366 . S
C5612 C5616 1.385 . S
C5613 H5588 0.951 . S
C5613 C5611 1.388 . S
C5613 C5614 1.366 . S
C5614 C5613 1.366 . S
C5614 C5615 1.414 . S
C5614 C5617 1.499 . S
C5615 H5589 0.950 . S
C5615 C5614 1.414 . S
C5615 C5616 1.374 . S
C5616 H5590 0.950 . S
C5616 C5612 1.385 . S
C5616 C5615 1.374 . S
C5617 C5614 1.499 . S
C5617 C5618 1.373 . S
C5617 C5619 1.389 . S
C5618 H5591 0.950 . S
C5618 C5604 1.377 . S
C5618 C5617 1.373 . S
C5619 C5603 1.377 . S
C5619 C5617 1.389 . S
C5619 C5620 1.524 . S
C5620 C5619 1.524 . S
C5620 C5621 1.397 . S
C5620 C5625 1.363 . S
C5621 H5592 0.950 . S
C5621 C5620 1.397 . S
C5621 C5622 1.334 . S
C5622 H5593 0.950 . S
C5622 C5621 1.334 . S
C5622 C5623 1.287 . S
C5623 C5622 1.287 . S
C5623 C5624 1.524 . S
C5623 H5626 0.999 . S
C5624 H5594 0.950 . S
C5624 C5623 1.524 . S
C5624 C5625 1.415 . S
C5625 H5595 0.950 . S
C5625 C5620 1.363 . S
C5625 C5624 1.415 . S
H5626 C5623 0.999 . S
H5627 C5608 0.913 . S
H5628 C5646 0.951 . S
H5629 C5648 0.951 . S
H5630 C5650 0.950 . S
H5631 C5651 0.950 . S
H5632 C5653 0.950 . S
H5633 C5656 0.950 . S
H5634 C5657 0.950 . S
H5635 C5659 0.950 . S
H5636 C5660 0.950 . S
H5637 C5661 0.951 . S
H5638 C5663 0.951 . S
H5639 C5665 0.950 . S
H5640 C5666 0.950 . S
H5641 C5668 0.950 . S
H5642 C5671 0.950 . S
H5643 C5672 0.950 . S
H5644 C5674 0.950 . S
H5645 C5675 0.950 . S
C5646 H5628 0.951 . S
C5646 C5647 1.366 . S
C5646 C5648 1.388 . S
C5647 C5646 1.366 . S
C5647 C5651 1.385 . S
C5648 H5629 0.951 . S
C5648 C5646 1.388 . S
C5648 C5649 1.366 . S
C5649 C5648 1.366 . S
C5649 C5650 1.414 . S
C5649 C5652 1.499 . S
C5650 H5630 0.950 . S
C5650 C5649 1.414 . S
C5650 C5651 1.374 . S
C5651 H5631 0.950 . S
C5651 C5647 1.385 . S
C5651 C5650 1.374 . S
C5652 C5649 1.499 . S
C5652 C5653 1.373 . S
C5652 C5654 1.389 . S
C5653 H5632 0.950 . S
C5653 C5652 1.373 . S
C5653 C5669 1.377 . S
C5654 C5652 1.389 . S
C5654 C5655 1.524 . S
C5654 C5668 1.377 . S
C5655 C5654 1.524 . S
C5655 C5656 1.397 . S
C5655 C5660 1.363 . S
C5656 H5633 0.950 . S
C5656 C5655 1.397 . S
C5656 C5657 1.334 . S
C5657 H5634 0.950 . S
C5657 C5656 1.334 . S
C5657 C5658 1.287 . S
C5658 C5657 1.287 . S
C5658 C5659 1.524 . S
C5658 H5677 0.913 . S
C5659 H5635 0.950 . S
C5659 C5658 1.524 . S
C5659 C5660 1.415 . S
C5660 H5636 0.950 . S
C5660 C5655 1.363 . S
C5660 C5659 1.415 . S
C5661 H5637 0.951 . S
C5661 C5662 1.366 . S
C5661 C5663 1.388 . S
C5662 C5661 1.366 . S
C5662 C5666 1.385 . S
C5663 H5638 0.951 . S
C5663 C5661 1.388 . S
C5663 C5664 1.366 . S
C5664 C5663 1.366 . S
C5664 C5665 1.414 . S
C5664 C5667 1.499 . S
C5665 H5639 0.950 . S
C5665 C5664 1.414 . S
C5665 C5666 1.374 . S
C5666 H5640 0.950 . S
C5666 C5662 1.385 . S
C5666 C5665 1.374 . S
C5667 C5664 1.499 . S
C5667 C5668 1.373 . S
C5667 C5669 1.389 . S
C5668 H5641 0.950 . S
C5668 C5654 1.377 . S
C5668 C5667 1.373 . S
C5669 C5653 1.377 . S
C5669 C5667 1.389 . S
C5669 C5670 1.524 . S
C5670 C5669 1.524 . S
C5670 C5671 1.397 . S
C5670 C5675 1.363 . S
C5671 H5642 0.950 . S
C5671 C5670 1.397 . S
C5671 C5672 1.334 . S
C5672 H5643 0.950 . S
C5672 C5671 1.334 . S
C5672 C5673 1.287 . S
C5673 C5672 1.287 . S
C5673 C5674 1.524 . S
C5673 H5676 0.999 . S
C5674 H5644 0.950 . S
C5674 C5673 1.524 . S
C5674 C5675 1.415 . S
C5675 H5645 0.950 . S
C5675 C5670 1.363 . S
C5675 C5674 1.415 . S
H5676 C5673 0.999 . S
H5677 C5658 0.913 . S
H5678 C5696 0.951 . S
H5679 C5698 0.951 . S
H5680 C5700 0.950 . S
H5681 C5701 0.950 . S
H5682 C5703 0.950 . S
H5683 C5706 0.950 . S
H5684 C5707 0.950 . S
H5685 C5709 0.950 . S
H5686 C5710 0.950 . S
H5687 C5711 0.951 . S
H5688 C5713 0.951 . S
H5689 C5715 0.950 . S
H5690 C5716 0.950 . S
H5691 C5718 0.950 . S
H5692 C5721 0.950 . S
H5693 C5722 0.950 . S
H5694 C5724 0.950 . S
H5695 C5725 0.950 . S
C5696 H5678 0.951 . S
C5696 C5697 1.366 . S
C5696 C5698 1.388 . S
C5697 C5696 1.366 . S
C5697 C5701 1.385 . S
C5698 H5679 0.951 . S
C5698 C5696 1.388 . S
C5698 C5699 1.366 . S
C5699 C5698 1.366 . S
C5699 C5700 1.414 . S
C5699 C5702 1.499 . S
C5700 H5680 0.950 . S
C5700 C5699 1.414 . S
C5700 C5701 1.374 . S
C5701 H5681 0.950 . S
C5701 C5697 1.385 . S
C5701 C5700 1.374 . S
C5702 C5699 1.499 . S
C5702 C5703 1.373 . S
C5702 C5704 1.389 . S
C5703 H5682 0.950 . S
C5703 C5702 1.373 . S
C5703 C5719 1.377 . S
C5704 C5702 1.389 . S
C5704 C5705 1.524 . S
C5704 C5718 1.377 . S
C5705 C5704 1.524 . S
C5705 C5706 1.397 . S
C5705 C5710 1.363 . S
C5706 H5683 0.950 . S
C5706 C5705 1.397 . S
C5706 C5707 1.334 . S
C5707 H5684 0.950 . S
C5707 C5706 1.334 . S
C5707 C5708 1.287 . S
C5708 C5707 1.287 . S
C5708 C5709 1.524 . S
C5708 H5727 0.913 . S
C5709 H5685 0.950 . S
C5709 C5708 1.524 . S
C5709 C5710 1.415 . S
C5710 H5686 0.950 . S
C5710 C5705 1.363 . S
C5710 C5709 1.415 . S
C5711 H5687 0.951 . S
C5711 C5712 1.366 . S
C5711 C5713 1.388 . S
C5712 C5711 1.366 . S
C5712 C5716 1.385 . S
C5713 H5688 0.951 . S
C5713 C5711 1.388 . S
C5713 C5714 1.366 . S
C5714 C5713 1.366 . S
C5714 C5715 1.414 . S
C5714 C5717 1.499 . S
C5715 H5689 0.950 . S
C5715 C5714 1.414 . S
C5715 C5716 1.374 . S
C5716 H5690 0.950 . S
C5716 C5712 1.385 . S
C5716 C5715 1.374 . S
C5717 C5714 1.499 . S
C5717 C5718 1.373 . S
C5717 C5719 1.389 . S
C5718 H5691 0.950 . S
C5718 C5704 1.377 . S
C5718 C5717 1.373 . S
C5719 C5703 1.377 . S
C5719 C5717 1.389 . S
C5719 C5720 1.524 . S
C5720 C5719 1.524 . S
C5720 C5721 1.397 . S
C5720 C5725 1.363 . S
C5721 H5692 0.950 . S
C5721 C5720 1.397 . S
C5721 C5722 1.334 . S
C5722 H5693 0.950 . S
C5722 C5721 1.334 . S
C5722 C5723 1.287 . S
C5723 C5722 1.287 . S
C5723 C5724 1.524 . S
C5723 H5726 0.999 . S
C5724 H5694 0.950 . S
C5724 C5723 1.524 . S
C5724 C5725 1.415 . S
C5725 H5695 0.950 . S
C5725 C5720 1.363 . S
C5725 C5724 1.415 . S
H5726 C5723 0.999 . S
H5727 C5708 0.913 . S
H5728 C5746 0.951 . S
H5729 C5748 0.951 . S
H5730 C5750 1.030 . S
H5731 C5751 0.950 1_545 S
H5732 C5753 0.950 . S
H5733 C5756 0.950 . S
H5734 C5757 0.950 . S
H5735 C5759 0.950 . S
H5736 C5760 0.950 . S
H5737 C5761 0.951 . S
H5738 C5763 0.951 . S
H5739 C5765 0.950 . S
H5740 C5766 0.950 1_565 S
H5741 C5768 0.950 . S
H5742 C5771 0.950 . S
H5743 C5772 0.950 . S
H5744 C5774 0.950 . S
H5745 C5775 0.950 . S
C5746 H5728 0.951 . S
C5746 C5747 1.366 . S
C5746 C5748 1.388 . S
C5747 C5746 1.366 . S
C5747 C5751 1.385 . S
C5748 H5729 0.951 . S
C5748 C5746 1.388 . S
C5748 C5749 1.366 . S
C5749 C5748 1.366 . S
C5749 C5750 1.359 1_565 S
C5749 C5752 1.499 . S
C5750 H5730 1.030 . S
C5750 C5749 1.359 1_545 S
C5750 C5751 1.353 1_545 S
C5751 H5731 0.950 1_565 S
C5751 C5747 1.385 . S
C5751 C5750 1.353 1_565 S
C5752 C5749 1.499 . S
C5752 C5753 1.373 1_565 S
C5752 C5754 1.389 . S
C5753 H5732 0.950 . S
C5753 C5752 1.373 1_545 S
C5753 C5769 1.377 . S
C5754 C5752 1.389 . S
C5754 C5755 1.524 . S
C5754 C5768 1.377 . S
C5755 C5754 1.524 . S
C5755 C5756 1.397 . S
C5755 C5760 1.363 . S
C5756 H5733 0.950 . S
C5756 C5755 1.397 . S
C5756 C5757 1.334 . S
C5757 H5734 0.950 . S
C5757 C5756 1.334 . S
C5757 C5758 1.287 . S
C5758 C5757 1.287 . S
C5758 C5759 1.524 . S
C5758 H5777 0.913 . S
C5759 H5735 0.950 . S
C5759 C5758 1.524 . S
C5759 C5760 1.415 . S
C5760 H5736 0.950 . S
C5760 C5755 1.363 . S
C5760 C5759 1.415 . S
C5761 H5737 0.951 . S
C5761 C5762 1.366 . S
C5761 C5763 1.388 . S
C5762 C5761 1.366 . S
C5762 C5766 1.385 . S
C5763 H5738 0.951 . S
C5763 C5761 1.388 . S
C5763 C5764 1.366 . S
C5764 C5763 1.366 . S
C5764 C5765 1.414 1_545 S
C5764 C5767 1.499 . S
C5765 H5739 0.950 . S
C5765 C5764 1.414 1_565 S
C5765 C5766 1.374 1_565 S
C5766 H5740 0.950 1_545 S
C5766 C5762 1.385 . S
C5766 C5765 1.374 1_545 S
C5767 C5764 1.499 . S
C5767 C5768 1.373 1_545 S
C5767 C5769 1.389 . S
C5768 H5741 0.950 . S
C5768 C5754 1.377 . S
C5768 C5767 1.373 1_565 S
C5769 C5753 1.377 . S
C5769 C5767 1.389 . S
C5769 C5770 1.524 . S
C5770 C5769 1.524 . S
C5770 C5771 1.397 . S
C5770 C5775 1.363 . S
C5771 H5742 0.950 . S
C5771 C5770 1.397 . S
C5771 C5772 1.334 . S
C5772 H5743 0.950 . S
C5772 C5771 1.334 . S
C5772 C5773 1.287 . S
C5773 C5772 1.287 . S
C5773 C5774 1.524 . S
C5773 H5776 0.999 . S
C5774 H5744 0.950 . S
C5774 C5773 1.524 . S
C5774 C5775 1.415 . S
C5775 H5745 0.950 . S
C5775 C5770 1.363 . S
C5775 C5774 1.415 . S
H5776 C5773 0.999 . S
H5777 C5758 0.913 . S
H5778 C5796 0.951 . S
H5779 C5798 0.951 . S
H5780 C5800 0.950 . S
H5781 C5801 0.950 . S
H5782 C5803 0.950 . S
H5783 C5806 0.950 . S
H5784 C5807 0.950 . S
H5785 C5809 0.950 . S
H5786 C5810 0.950 . S
H5787 C5811 0.951 . S
H5788 C5813 0.951 . S
H5789 C5815 0.950 . S
H5790 C5816 0.950 . S
H5791 C5818 0.950 . S
H5792 C5821 0.950 . S
H5793 C5822 0.950 . S
H5794 C5824 0.950 . S
H5795 C5825 0.950 . S
C5796 H5778 0.951 . S
C5796 C5797 1.366 . S
C5796 C5798 1.388 . S
C5797 C5796 1.366 . S
C5797 C5801 1.385 . S
C5798 H5779 0.951 . S
C5798 C5796 1.388 . S
C5798 C5799 1.366 . S
C5799 C5798 1.366 . S
C5799 C5800 1.414 . S
C5799 C5802 1.499 . S
C5800 H5780 0.950 . S
C5800 C5799 1.414 . S
C5800 C5801 1.374 . S
C5801 H5781 0.950 . S
C5801 C5797 1.385 . S
C5801 C5800 1.374 . S
C5802 C5799 1.499 . S
C5802 C5803 1.373 . S
C5802 C5804 1.389 . S
C5803 H5782 0.950 . S
C5803 C5802 1.373 . S
C5803 C5819 1.377 . S
C5804 C5802 1.389 . S
C5804 C5805 1.524 . S
C5804 C5818 1.377 . S
C5805 C5804 1.524 . S
C5805 C5806 1.397 . S
C5805 C5810 1.363 . S
C5806 H5783 0.950 . S
C5806 C5805 1.397 . S
C5806 C5807 1.334 . S
C5807 H5784 0.950 . S
C5807 C5806 1.334 . S
C5807 C5808 1.287 . S
C5808 C5807 1.287 . S
C5808 C5809 1.524 . S
C5808 H5827 0.913 . S
C5809 H5785 0.950 . S
C5809 C5808 1.524 . S
C5809 C5810 1.415 . S
C5810 H5786 0.950 . S
C5810 C5805 1.363 . S
C5810 C5809 1.415 . S
C5811 H5787 0.951 . S
C5811 C5812 1.366 . S
C5811 C5813 1.388 . S
C5812 C5811 1.366 . S
C5812 C5816 1.385 . S
C5813 H5788 0.951 . S
C5813 C5811 1.388 . S
C5813 C5814 1.366 . S
C5814 C5813 1.366 . S
C5814 C5815 1.414 . S
C5814 C5817 1.499 . S
C5815 H5789 0.950 . S
C5815 C5814 1.414 . S
C5815 C5816 1.374 . S
C5816 H5790 0.950 . S
C5816 C5812 1.385 . S
C5816 C5815 1.374 . S
C5817 C5814 1.499 . S
C5817 C5818 1.373 . S
C5817 C5819 1.389 . S
C5818 H5791 0.950 . S
C5818 C5804 1.377 . S
C5818 C5817 1.373 . S
C5819 C5803 1.377 . S
C5819 C5817 1.389 . S
C5819 C5820 1.524 . S
C5820 C5819 1.524 . S
C5820 C5821 1.397 . S
C5820 C5825 1.363 . S
C5821 H5792 0.950 . S
C5821 C5820 1.397 . S
C5821 C5822 1.334 . S
C5822 H5793 0.950 . S
C5822 C5821 1.334 . S
C5822 C5823 1.287 . S
C5823 C5822 1.287 . S
C5823 C5824 1.524 . S
C5823 H5826 0.999 . S
C5824 H5794 0.950 . S
C5824 C5823 1.524 . S
C5824 C5825 1.415 . S
C5825 H5795 0.950 . S
C5825 C5820 1.363 . S
C5825 C5824 1.415 . S
H5826 C5823 0.999 . S
H5827 C5808 0.913 . S
H5828 C5846 0.951 . S
H5829 C5848 0.951 . S
H5830 C5850 0.950 . S
H5831 C5851 0.950 . S
H5832 C5853 0.950 . S
H5833 C5856 0.950 . S
H5834 C5857 0.950 . S
H5835 C5859 0.950 . S
H5836 C5860 0.950 . S
H5837 C5861 0.951 . S
H5838 C5863 0.951 . S
H5839 C5865 0.950 . S
H5840 C5866 0.950 . S
H5841 C5868 0.950 . S
H5842 C5871 0.950 . S
H5843 C5872 0.950 . S
H5844 C5874 0.950 . S
H5845 C5875 0.950 . S
C5846 H5828 0.951 . S
C5846 C5847 1.366 . S
C5846 C5848 1.388 . S
C5847 C5846 1.366 . S
C5847 C5851 1.385 . S
C5848 H5829 0.951 . S
C5848 C5846 1.388 . S
C5848 C5849 1.366 . S
C5849 C5848 1.366 . S
C5849 C5850 1.414 . S
C5849 C5852 1.499 . S
C5850 H5830 0.950 . S
C5850 C5849 1.414 . S
C5850 C5851 1.374 . S
C5851 H5831 0.950 . S
C5851 C5847 1.385 . S
C5851 C5850 1.374 . S
C5852 C5849 1.499 . S
C5852 C5853 1.373 . S
C5852 C5854 1.389 . S
C5853 H5832 0.950 . S
C5853 C5852 1.373 . S
C5853 C5869 1.377 . S
C5854 C5852 1.389 . S
C5854 C5855 1.524 . S
C5854 C5868 1.377 . S
C5855 C5854 1.524 . S
C5855 C5856 1.397 . S
C5855 C5860 1.363 . S
C5856 H5833 0.950 . S
C5856 C5855 1.397 . S
C5856 C5857 1.334 . S
C5857 H5834 0.950 . S
C5857 C5856 1.334 . S
C5857 C5858 1.287 . S
C5858 C5857 1.287 . S
C5858 C5859 1.524 . S
C5858 H5877 0.913 . S
C5859 H5835 0.950 . S
C5859 C5858 1.524 . S
C5859 C5860 1.415 . S
C5860 H5836 0.950 . S
C5860 C5855 1.363 . S
C5860 C5859 1.415 . S
C5861 H5837 0.951 . S
C5861 C5862 1.366 . S
C5861 C5863 1.388 . S
C5862 C5861 1.366 . S
C5862 C5866 1.385 . S
C5863 H5838 0.951 . S
C5863 C5861 1.388 . S
C5863 C5864 1.366 . S
C5864 C5863 1.366 . S
C5864 C5865 1.414 . S
C5864 C5867 1.499 . S
C5865 H5839 0.950 . S
C5865 C5864 1.414 . S
C5865 C5866 1.374 . S
C5866 H5840 0.950 . S
C5866 C5862 1.385 . S
C5866 C5865 1.374 . S
C5867 C5864 1.499 . S
C5867 C5868 1.373 . S
C5867 C5869 1.389 . S
C5868 H5841 0.950 . S
C5868 C5854 1.377 . S
C5868 C5867 1.373 . S
C5869 C5853 1.377 . S
C5869 C5867 1.389 . S
C5869 C5870 1.524 . S
C5870 C5869 1.524 . S
C5870 C5871 1.397 . S
C5870 C5875 1.363 . S
C5871 H5842 0.950 . S
C5871 C5870 1.397 . S
C5871 C5872 1.334 . S
C5872 H5843 0.950 . S
C5872 C5871 1.334 . S
C5872 C5873 1.287 . S
C5873 C5872 1.287 . S
C5873 C5874 1.524 . S
C5873 H5876 0.999 . S
C5874 H5844 0.950 . S
C5874 C5873 1.524 . S
C5874 C5875 1.415 . S
C5875 H5845 0.950 . S
C5875 C5870 1.363 . S
C5875 C5874 1.415 . S
H5876 C5873 0.999 . S
H5877 C5858 0.913 . S
H5878 C5896 0.951 . S
H5879 C5898 0.951 . S
H5880 C5900 0.950 . S
H5881 C5901 0.950 . S
H5882 C5903 0.950 . S
H5883 C5906 0.950 . S
H5884 C5907 0.950 . S
H5885 C5909 0.950 . S
H5886 C5910 0.950 . S
H5887 C5911 0.951 . S
H5888 C5913 0.951 . S
H5889 C5915 0.950 . S
H5890 C5916 0.950 . S
H5891 C5918 0.950 . S
H5892 C5921 0.950 . S
H5893 C5922 0.950 . S
H5894 C5924 0.950 . S
H5895 C5925 0.950 . S
C5896 H5878 0.951 . S
C5896 C5897 1.366 . S
C5896 C5898 1.388 . S
C5897 C5896 1.366 . S
C5897 C5901 1.385 . S
C5898 H5879 0.951 . S
C5898 C5896 1.388 . S
C5898 C5899 1.366 . S
C5899 C5898 1.366 . S
C5899 C5900 1.414 . S
C5899 C5902 1.499 . S
C5900 H5880 0.950 . S
C5900 C5899 1.414 . S
C5900 C5901 1.374 . S
C5901 H5881 0.950 . S
C5901 C5897 1.385 . S
C5901 C5900 1.374 . S
C5902 C5899 1.499 . S
C5902 C5903 1.373 . S
C5902 C5904 1.389 . S
C5903 H5882 0.950 . S
C5903 C5902 1.373 . S
C5903 C5919 1.377 . S
C5904 C5902 1.389 . S
C5904 C5905 1.524 . S
C5904 C5918 1.377 . S
C5905 C5904 1.524 . S
C5905 C5906 1.397 . S
C5905 C5910 1.363 . S
C5906 H5883 0.950 . S
C5906 C5905 1.397 . S
C5906 C5907 1.334 . S
C5907 H5884 0.950 . S
C5907 C5906 1.334 . S
C5907 C5908 1.287 . S
C5908 C5907 1.287 . S
C5908 C5909 1.524 . S
C5908 H5927 0.913 . S
C5909 H5885 0.950 . S
C5909 C5908 1.524 . S
C5909 C5910 1.415 . S
C5910 H5886 0.950 . S
C5910 C5905 1.363 . S
C5910 C5909 1.415 . S
C5911 H5887 0.951 . S
C5911 C5912 1.366 . S
C5911 C5913 1.388 . S
C5912 C5911 1.366 . S
C5912 C5916 1.385 . S
C5913 H5888 0.951 . S
C5913 C5911 1.388 . S
C5913 C5914 1.366 . S
C5914 C5913 1.366 . S
C5914 C5915 1.414 . S
C5914 C5917 1.499 . S
C5915 H5889 0.950 . S
C5915 C5914 1.414 . S
C5915 C5916 1.374 . S
C5916 H5890 0.950 . S
C5916 C5912 1.385 . S
C5916 C5915 1.374 . S
C5917 C5914 1.499 . S
C5917 C5918 1.373 . S
C5917 C5919 1.389 . S
C5918 H5891 0.950 . S
C5918 C5904 1.377 . S
C5918 C5917 1.373 . S
C5919 C5903 1.377 . S
C5919 C5917 1.389 . S
C5919 C5920 1.524 . S
C5920 C5919 1.524 . S
C5920 C5921 1.397 . S
C5920 C5925 1.363 . S
C5921 H5892 0.950 . S
C5921 C5920 1.397 . S
C5921 C5922 1.334 . S
C5922 H5893 0.950 . S
C5922 C5921 1.334 . S
C5922 C5923 1.287 . S
C5923 C5922 1.287 . S
C5923 C5924 1.524 . S
C5923 H5926 0.999 . S
C5924 H5894 0.950 . S
C5924 C5923 1.524 . S
C5924 C5925 1.415 . S
C5925 H5895 0.950 . S
C5925 C5920 1.363 . S
C5925 C5924 1.415 . S
H5926 C5923 0.999 . S
H5927 C5908 0.913 . S
H5928 C5946 0.951 . S
H5929 C5948 0.951 . S
H5930 C5950 0.950 . S
H5931 C5951 0.950 . S
H5932 C5953 0.950 . S
H5933 C5956 0.950 . S
H5934 C5957 0.950 . S
H5935 C5959 0.950 . S
H5936 C5960 0.950 . S
H5937 C5961 0.951 . S
H5938 C5963 0.951 . S
H5939 C5965 0.950 . S
H5940 C5966 0.950 . S
H5941 C5968 0.950 . S
H5942 C5971 0.950 . S
H5943 C5972 0.950 . S
H5944 C5974 0.950 . S
H5945 C5975 0.950 . S
C5946 H5928 0.951 . S
C5946 C5947 1.366 . S
C5946 C5948 1.388 . S
C5947 C5946 1.366 . S
C5947 C5951 1.385 . S
C5948 H5929 0.951 . S
C5948 C5946 1.388 . S
C5948 C5949 1.366 . S
C5949 C5948 1.366 . S
C5949 C5950 1.414 . S
C5949 C5952 1.499 . S
C5950 H5930 0.950 . S
C5950 C5949 1.414 . S
C5950 C5951 1.374 . S
C5951 H5931 0.950 . S
C5951 C5947 1.385 . S
C5951 C5950 1.374 . S
C5952 C5949 1.499 . S
C5952 C5953 1.373 1_554 S
C5952 C5954 1.389 . S
C5953 H5932 0.950 . S
C5953 C5952 1.373 1_556 S
C5953 C5969 1.377 . S
C5954 C5952 1.389 . S
C5954 C5955 1.524 . S
C5954 C5968 1.377 . S
C5955 C5954 1.524 . S
C5955 C5956 1.397 . S
C5955 C5960 1.363 . S
C5956 H5933 0.950 . S
C5956 C5955 1.397 . S
C5956 C5957 1.334 . S
C5957 H5934 0.950 . S
C5957 C5956 1.334 . S
C5957 C5958 1.287 . S
C5958 C5957 1.287 . S
C5958 C5959 1.524 . S
C5958 H5977 0.913 . S
C5959 H5935 0.950 . S
C5959 C5958 1.524 . S
C5959 C5960 1.415 . S
C5960 H5936 0.950 . S
C5960 C5955 1.363 . S
C5960 C5959 1.415 . S
C5961 H5937 0.951 . S
C5961 C5962 1.366 . S
C5961 C5963 1.388 . S
C5962 C5961 1.366 . S
C5962 C5966 1.385 . S
C5963 H5938 0.951 . S
C5963 C5961 1.388 . S
C5963 C5964 1.366 . S
C5964 C5963 1.366 . S
C5964 C5965 1.414 . S
C5964 C5967 1.499 . S
C5965 H5939 0.950 . S
C5965 C5964 1.414 . S
C5965 C5966 1.374 . S
C5966 H5940 0.950 . S
C5966 C5962 1.385 . S
C5966 C5965 1.374 . S
C5967 C5964 1.499 . S
C5967 C5968 1.373 1_556 S
C5967 C5969 1.389 . S
C5968 H5941 0.950 . S
C5968 C5954 1.377 . S
C5968 C5967 1.373 1_554 S
C5969 C5953 1.377 . S
C5969 C5967 1.389 . S
C5969 C5970 1.524 . S
C5970 C5969 1.524 . S
C5970 C5971 1.397 . S
C5970 C5975 1.363 . S
C5971 H5942 0.950 . S
C5971 C5970 1.397 . S
C5971 C5972 1.334 . S
C5972 H5943 0.950 . S
C5972 C5971 1.334 . S
C5972 C5973 1.287 . S
C5973 C5972 1.287 . S
C5973 C5974 1.524 . S
C5973 H5976 0.999 . S
C5974 H5944 0.950 . S
C5974 C5973 1.524 . S
C5974 C5975 1.415 . S
C5975 H5945 0.950 . S
C5975 C5970 1.363 . S
C5975 C5974 1.415 . S
H5976 C5973 0.999 . S
H5977 C5958 0.913 . S
H5978 C5996 0.951 . S
H5979 C5998 0.951 . S
H5980 C6000 0.950 . S
H5981 C6001 0.950 . S
H5982 C6003 0.950 . S
H5983 C6006 0.950 . S
H5984 C6007 0.950 . S
H5985 C6009 0.950 . S
H5986 C6010 0.950 . S
H5987 C6011 0.951 . S
H5988 C6013 0.951 . S
H5989 C6015 0.950 . S
H5990 C6016 0.950 . S
H5991 C6018 0.950 . S
H5992 C6021 0.950 . S
H5993 C6022 0.950 . S
H5994 C6024 0.950 . S
H5995 C6025 0.950 . S
C5996 H5978 0.951 . S
C5996 C5997 1.366 . S
C5996 C5998 1.388 . S
C5997 C5996 1.366 . S
C5997 C6001 1.385 . S
C5998 H5979 0.951 . S
C5998 C5996 1.388 . S
C5998 C5999 1.366 . S
C5999 C5998 1.366 . S
C5999 C6000 1.414 . S
C5999 C6002 1.499 . S
C6000 H5980 0.950 . S
C6000 C5999 1.414 . S
C6000 C6001 1.374 . S
C6001 H5981 0.950 . S
C6001 C5997 1.385 . S
C6001 C6000 1.374 . S
C6002 C5999 1.499 . S
C6002 C6003 1.373 . S
C6002 C6004 1.389 . S
C6003 H5982 0.950 . S
C6003 C6002 1.373 . S
C6003 C6019 1.377 . S
C6004 C6002 1.389 . S
C6004 C6005 1.524 . S
C6004 C6018 1.377 . S
C6005 C6004 1.524 . S
C6005 C6006 1.397 . S
C6005 C6010 1.363 . S
C6006 H5983 0.950 . S
C6006 C6005 1.397 . S
C6006 C6007 1.334 . S
C6007 H5984 0.950 . S
C6007 C6006 1.334 . S
C6007 C6008 1.287 . S
C6008 C6007 1.287 . S
C6008 C6009 1.524 . S
C6008 H6027 0.913 . S
C6009 H5985 0.950 . S
C6009 C6008 1.524 . S
C6009 C6010 1.415 . S
C6010 H5986 0.950 . S
C6010 C6005 1.363 . S
C6010 C6009 1.415 . S
C6011 H5987 0.951 . S
C6011 C6012 1.366 . S
C6011 C6013 1.388 . S
C6012 C6011 1.366 . S
C6012 C6016 1.385 . S
C6013 H5988 0.951 . S
C6013 C6011 1.388 . S
C6013 C6014 1.366 . S
C6014 C6013 1.366 . S
C6014 C6015 1.414 . S
C6014 C6017 1.499 . S
C6015 H5989 0.950 . S
C6015 C6014 1.414 . S
C6015 C6016 1.374 . S
C6016 H5990 0.950 . S
C6016 C6012 1.385 . S
C6016 C6015 1.374 . S
C6017 C6014 1.499 . S
C6017 C6018 1.373 . S
C6017 C6019 1.389 . S
C6018 H5991 0.950 . S
C6018 C6004 1.377 . S
C6018 C6017 1.373 . S
C6019 C6003 1.377 . S
C6019 C6017 1.389 . S
C6019 C6020 1.524 . S
C6020 C6019 1.524 . S
C6020 C6021 1.397 . S
C6020 C6025 1.363 . S
C6021 H5992 0.950 . S
C6021 C6020 1.397 . S
C6021 C6022 1.334 . S
C6022 H5993 0.950 . S
C6022 C6021 1.334 . S
C6022 C6023 1.287 . S
C6023 C6022 1.287 . S
C6023 C6024 1.524 . S
C6023 H6026 0.999 . S
C6024 H5994 0.950 . S
C6024 C6023 1.524 . S
C6024 C6025 1.415 . S
C6025 H5995 0.950 . S
C6025 C6020 1.363 . S
C6025 C6024 1.415 . S
H6026 C6023 0.999 . S
H6027 C6008 0.913 . S
H6028 C6046 0.951 . S
H6029 C6048 0.951 . S
H6030 C6050 0.950 . S
H6031 C6051 0.950 . S
H6032 C6053 0.950 . S
H6033 C6056 0.950 . S
H6034 C6057 0.950 . S
H6035 C6059 0.950 . S
H6036 C6060 0.950 . S
H6037 C6061 0.951 . S
H6038 C6063 0.951 . S
H6039 C6065 0.950 . S
H6040 C6066 0.950 . S
H6041 C6068 0.950 . S
H6042 C6071 0.950 . S
H6043 C6072 0.950 . S
H6044 C6074 0.950 . S
H6045 C6075 0.950 . S
C6046 H6028 0.951 . S
C6046 C6047 1.366 . S
C6046 C6048 1.388 . S
C6047 C6046 1.366 . S
C6047 C6051 1.385 . S
C6048 H6029 0.951 . S
C6048 C6046 1.388 . S
C6048 C6049 1.366 . S
C6049 C6048 1.366 . S
C6049 C6050 1.414 . S
C6049 C6052 1.499 . S
C6050 H6030 0.950 . S
C6050 C6049 1.414 . S
C6050 C6051 1.374 . S
C6051 H6031 0.950 . S
C6051 C6047 1.385 . S
C6051 C6050 1.374 . S
C6052 C6049 1.499 . S
C6052 C6053 1.373 . S
C6052 C6054 1.389 . S
C6053 H6032 0.950 . S
C6053 C6052 1.373 . S
C6053 C6069 1.377 . S
C6054 C6052 1.389 . S
C6054 C6055 1.524 . S
C6054 C6068 1.377 . S
C6055 C6054 1.524 . S
C6055 C6056 1.397 . S
C6055 C6060 1.363 . S
C6056 H6033 0.950 . S
C6056 C6055 1.397 . S
C6056 C6057 1.334 . S
C6057 H6034 0.950 . S
C6057 C6056 1.334 . S
C6057 C6058 1.287 . S
C6058 C6057 1.287 . S
C6058 C6059 1.524 . S
C6058 H6077 0.913 . S
C6059 H6035 0.950 . S
C6059 C6058 1.524 . S
C6059 C6060 1.415 . S
C6060 H6036 0.950 . S
C6060 C6055 1.363 . S
C6060 C6059 1.415 . S
C6061 H6037 0.951 . S
C6061 C6062 1.366 . S
C6061 C6063 1.388 . S
C6062 C6061 1.366 . S
C6062 C6066 1.385 . S
C6063 H6038 0.951 . S
C6063 C6061 1.388 . S
C6063 C6064 1.366 . S
C6064 C6063 1.366 . S
C6064 C6065 1.414 . S
C6064 C6067 1.499 . S
C6065 H6039 0.950 . S
C6065 C6064 1.414 . S
C6065 C6066 1.374 . S
C6066 H6040 0.950 . S
C6066 C6062 1.385 . S
C6066 C6065 1.374 . S
C6067 C6064 1.499 . S
C6067 C6068 1.373 . S
C6067 C6069 1.389 . S
C6068 H6041 0.950 . S
C6068 C6054 1.377 . S
C6068 C6067 1.373 . S
C6069 C6053 1.377 . S
C6069 C6067 1.389 . S
C6069 C6070 1.524 . S
C6070 C6069 1.524 . S
C6070 C6071 1.397 . S
C6070 C6075 1.363 . S
C6071 H6042 0.950 . S
C6071 C6070 1.397 . S
C6071 C6072 1.334 . S
C6072 H6043 0.950 . S
C6072 C6071 1.334 . S
C6072 C6073 1.287 . S
C6073 C6072 1.287 . S
C6073 C6074 1.524 . S
C6073 H6076 0.999 . S
C6074 H6044 0.950 . S
C6074 C6073 1.524 . S
C6074 C6075 1.415 . S
C6075 H6045 0.950 . S
C6075 C6070 1.363 . S
C6075 C6074 1.415 . S
H6076 C6073 0.999 . S
H6077 C6058 0.913 . S
H6078 C6096 0.951 . S
H6079 C6098 0.951 . S
H6080 C6100 0.950 . S
H6081 C6101 0.950 . S
H6082 C6103 0.950 . S
H6083 C6106 0.950 . S
H6084 C6107 0.950 . S
H6085 C6109 0.950 . S
H6086 C6110 0.950 . S
H6087 C6111 0.951 . S
H6088 C6113 0.951 . S
H6089 C6115 0.950 . S
H6090 C6116 0.950 . S
H6091 C6118 0.950 . S
H6092 C6121 0.950 . S
H6093 C6122 0.950 . S
H6094 C6124 0.950 . S
H6095 C6125 0.950 . S
C6096 H6078 0.951 . S
C6096 C6097 1.366 . S
C6096 C6098 1.388 . S
C6097 C6096 1.366 . S
C6097 C6101 1.385 . S
C6098 H6079 0.951 . S
C6098 C6096 1.388 . S
C6098 C6099 1.366 . S
C6099 C6098 1.366 . S
C6099 C6100 1.414 . S
C6099 C6102 1.499 . S
C6100 H6080 0.950 . S
C6100 C6099 1.414 . S
C6100 C6101 1.374 . S
C6101 H6081 0.950 . S
C6101 C6097 1.385 . S
C6101 C6100 1.374 . S
C6102 C6099 1.499 . S
C6102 C6103 1.373 . S
C6102 C6104 1.389 . S
C6103 H6082 0.950 . S
C6103 C6102 1.373 . S
C6103 C6119 1.377 . S
C6104 C6102 1.389 . S
C6104 C6105 1.524 . S
C6104 C6118 1.377 . S
C6105 C6104 1.524 . S
C6105 C6106 1.397 . S
C6105 C6110 1.363 . S
C6106 H6083 0.950 . S
C6106 C6105 1.397 . S
C6106 C6107 1.334 . S
C6107 H6084 0.950 . S
C6107 C6106 1.334 . S
C6107 C6108 1.287 . S
C6108 C6107 1.287 . S
C6108 C6109 1.524 . S
C6108 H6127 0.913 . S
C6109 H6085 0.950 . S
C6109 C6108 1.524 . S
C6109 C6110 1.415 . S
C6110 H6086 0.950 . S
C6110 C6105 1.363 . S
C6110 C6109 1.415 . S
C6111 H6087 0.951 . S
C6111 C6112 1.366 . S
C6111 C6113 1.388 . S
C6112 C6111 1.366 . S
C6112 C6116 1.385 . S
C6113 H6088 0.951 . S
C6113 C6111 1.388 . S
C6113 C6114 1.366 . S
C6114 C6113 1.366 . S
C6114 C6115 1.414 . S
C6114 C6117 1.499 . S
C6115 H6089 0.950 . S
C6115 C6114 1.414 . S
C6115 C6116 1.374 . S
C6116 H6090 0.950 . S
C6116 C6112 1.385 . S
C6116 C6115 1.374 . S
C6117 C6114 1.499 . S
C6117 C6118 1.373 . S
C6117 C6119 1.389 . S
C6118 H6091 0.950 . S
C6118 C6104 1.377 . S
C6118 C6117 1.373 . S
C6119 C6103 1.377 . S
C6119 C6117 1.389 . S
C6119 C6120 1.524 . S
C6120 C6119 1.524 . S
C6120 C6121 1.397 . S
C6120 C6125 1.363 . S
C6121 H6092 0.950 . S
C6121 C6120 1.397 . S
C6121 C6122 1.334 . S
C6122 H6093 0.950 . S
C6122 C6121 1.334 . S
C6122 C6123 1.287 . S
C6123 C6122 1.287 . S
C6123 C6124 1.524 . S
C6123 H6126 0.999 . S
C6124 H6094 0.950 . S
C6124 C6123 1.524 . S
C6124 C6125 1.415 . S
C6125 H6095 0.950 . S
C6125 C6120 1.363 . S
C6125 C6124 1.415 . S
H6126 C6123 0.999 . S
H6127 C6108 0.913 . S
H6128 C6146 0.951 . S
H6129 C6148 0.951 . S
H6130 C6150 0.950 . S
H6131 C6151 0.950 . S
H6132 C6153 0.950 . S
H6133 C6156 0.950 . S
H6134 C6157 0.950 . S
H6135 C6159 0.950 . S
H6136 C6160 0.950 . S
H6137 C6161 0.951 . S
H6138 C6163 0.951 . S
H6139 C6165 0.950 . S
H6140 C6166 0.950 . S
H6141 C6168 0.950 . S
H6142 C6171 0.950 . S
H6143 C6172 0.950 . S
H6144 C6174 0.950 . S
H6145 C6175 0.950 . S
C6146 H6128 0.951 . S
C6146 C6147 1.366 . S
C6146 C6148 1.388 . S
C6147 C6146 1.366 . S
C6147 C6151 1.385 . S
C6148 H6129 0.951 . S
C6148 C6146 1.388 . S
C6148 C6149 1.366 . S
C6149 C6148 1.366 . S
C6149 C6150 1.414 . S
C6149 C6152 1.499 . S
C6150 H6130 0.950 . S
C6150 C6149 1.414 . S
C6150 C6151 1.374 . S
C6151 H6131 0.950 . S
C6151 C6147 1.385 . S
C6151 C6150 1.374 . S
C6152 C6149 1.499 . S
C6152 C6153 1.373 . S
C6152 C6154 1.389 . S
C6153 H6132 0.950 . S
C6153 C6152 1.373 . S
C6153 C6169 1.377 . S
C6154 C6152 1.389 . S
C6154 C6155 1.524 . S
C6154 C6168 1.377 . S
C6155 C6154 1.524 . S
C6155 C6156 1.397 . S
C6155 C6160 1.363 . S
C6156 H6133 0.950 . S
C6156 C6155 1.397 . S
C6156 C6157 1.334 . S
C6157 H6134 0.950 . S
C6157 C6156 1.334 . S
C6157 C6158 1.287 . S
C6158 C6157 1.287 . S
C6158 C6159 1.524 . S
C6158 H6177 0.913 . S
C6159 H6135 0.950 . S
C6159 C6158 1.524 . S
C6159 C6160 1.415 . S
C6160 H6136 0.950 . S
C6160 C6155 1.363 . S
C6160 C6159 1.415 . S
C6161 H6137 0.951 . S
C6161 C6162 1.366 . S
C6161 C6163 1.388 . S
C6162 C6161 1.366 . S
C6162 C6166 1.385 . S
C6163 H6138 0.951 . S
C6163 C6161 1.388 . S
C6163 C6164 1.366 . S
C6164 C6163 1.366 . S
C6164 C6165 1.414 . S
C6164 C6167 1.499 . S
C6165 H6139 0.950 . S
C6165 C6164 1.414 . S
C6165 C6166 1.374 . S
C6166 H6140 0.950 . S
C6166 C6162 1.385 . S
C6166 C6165 1.374 . S
C6167 C6164 1.499 . S
C6167 C6168 1.373 . S
C6167 C6169 1.389 . S
C6168 H6141 0.950 . S
C6168 C6154 1.377 . S
C6168 C6167 1.373 . S
C6169 C6153 1.377 . S
C6169 C6167 1.389 . S
C6169 C6170 1.524 . S
C6170 C6169 1.524 . S
C6170 C6171 1.397 . S
C6170 C6175 1.363 . S
C6171 H6142 0.950 . S
C6171 C6170 1.397 . S
C6171 C6172 1.334 . S
C6172 H6143 0.950 . S
C6172 C6171 1.334 . S
C6172 C6173 1.287 . S
C6173 C6172 1.287 . S
C6173 C6174 1.524 . S
C6173 H6176 0.999 . S
C6174 H6144 0.950 . S
C6174 C6173 1.524 . S
C6174 C6175 1.415 . S
C6175 H6145 0.950 . S
C6175 C6170 1.363 . S
C6175 C6174 1.415 . S
H6176 C6173 0.999 . S
H6177 C6158 0.913 . S
H6178 C6196 0.951 . S
H6179 C6198 0.951 . S
H6180 C6200 0.950 . S
H6181 C6201 0.950 . S
H6182 C6203 0.950 . S
H6183 C6206 0.950 . S
H6184 C6207 0.950 . S
H6185 C6209 0.950 . S
H6186 C6210 0.950 . S
H6187 C6211 0.951 . S
H6188 C6213 0.951 . S
H6189 C6215 0.950 . S
H6190 C6216 0.950 . S
H6191 C6218 0.950 . S
H6192 C6221 0.950 . S
H6193 C6222 0.950 . S
H6194 C6224 0.950 . S
H6195 C6225 0.950 . S
C6196 H6178 0.951 . S
C6196 C6197 1.366 . S
C6196 C6198 1.388 . S
C6197 C6196 1.366 . S
C6197 C6201 1.385 . S
C6198 H6179 0.951 . S
C6198 C6196 1.388 . S
C6198 C6199 1.366 . S
C6199 C6198 1.366 . S
C6199 C6200 1.414 . S
C6199 C6202 1.499 . S
C6200 H6180 0.950 . S
C6200 C6199 1.414 . S
C6200 C6201 1.374 . S
C6201 H6181 0.950 . S
C6201 C6197 1.385 . S
C6201 C6200 1.374 . S
C6202 C6199 1.499 . S
C6202 C6203 1.373 . S
C6202 C6204 1.389 . S
C6203 H6182 0.950 . S
C6203 C6202 1.373 . S
C6203 C6219 1.377 . S
C6204 C6202 1.389 . S
C6204 C6205 1.524 . S
C6204 C6218 1.377 . S
C6205 C6204 1.524 . S
C6205 C6206 1.397 . S
C6205 C6210 1.363 . S
C6206 H6183 0.950 . S
C6206 C6205 1.397 . S
C6206 C6207 1.334 . S
C6207 H6184 0.950 . S
C6207 C6206 1.334 . S
C6207 C6208 1.287 . S
C6208 C6207 1.287 . S
C6208 C6209 1.524 . S
C6208 H6227 0.913 . S
C6209 H6185 0.950 . S
C6209 C6208 1.524 . S
C6209 C6210 1.415 . S
C6210 H6186 0.950 . S
C6210 C6205 1.363 . S
C6210 C6209 1.415 . S
C6211 H6187 0.951 . S
C6211 C6212 1.366 . S
C6211 C6213 1.388 . S
C6212 C6211 1.366 . S
C6212 C6216 1.385 . S
C6213 H6188 0.951 . S
C6213 C6211 1.388 . S
C6213 C6214 1.366 . S
C6214 C6213 1.366 . S
C6214 C6215 1.414 . S
C6214 C6217 1.499 . S
C6215 H6189 0.950 . S
C6215 C6214 1.414 . S
C6215 C6216 1.374 . S
C6216 H6190 0.950 . S
C6216 C6212 1.385 . S
C6216 C6215 1.374 . S
C6217 C6214 1.499 . S
C6217 C6218 1.373 . S
C6217 C6219 1.389 . S
C6218 H6191 0.950 . S
C6218 C6204 1.377 . S
C6218 C6217 1.373 . S
C6219 C6203 1.377 . S
C6219 C6217 1.389 . S
C6219 C6220 1.524 . S
C6220 C6219 1.524 . S
C6220 C6221 1.397 . S
C6220 C6225 1.363 . S
C6221 H6192 0.950 . S
C6221 C6220 1.397 . S
C6221 C6222 1.334 . S
C6222 H6193 0.950 . S
C6222 C6221 1.334 . S
C6222 C6223 1.287 . S
C6223 C6222 1.287 . S
C6223 C6224 1.524 . S
C6223 H6226 0.999 . S
C6224 H6194 0.950 . S
C6224 C6223 1.524 . S
C6224 C6225 1.415 . S
C6225 H6195 0.950 . S
C6225 C6220 1.363 . S
C6225 C6224 1.415 . S
H6226 C6223 0.999 . S
H6227 C6208 0.913 . S
H6228 C6246 0.951 . S
H6229 C6248 0.951 . S
H6230 C6250 0.950 . S
H6231 C6251 0.950 . S
H6232 C6253 0.950 . S
H6233 C6256 0.950 . S
H6234 C6257 0.950 . S
H6235 C6259 0.950 . S
H6236 C6260 0.950 . S
H6237 C6261 0.951 . S
H6238 C6263 0.951 . S
H6239 C6265 0.950 . S
H6240 C6266 0.950 . S
H6241 C6268 0.950 . S
H6242 C6271 0.950 . S
H6243 C6272 0.950 . S
H6244 C6274 0.950 . S
H6245 C6275 0.950 . S
C6246 H6228 0.951 . S
C6246 C6247 1.366 . S
C6246 C6248 1.388 . S
C6247 C6246 1.366 . S
C6247 C6251 1.385 . S
C6248 H6229 0.951 . S
C6248 C6246 1.388 . S
C6248 C6249 1.366 . S
C6249 C6248 1.366 . S
C6249 C6250 1.414 . S
C6249 C6252 1.499 . S
C6250 H6230 0.950 . S
C6250 C6249 1.414 . S
C6250 C6251 1.374 . S
C6251 H6231 0.950 . S
C6251 C6247 1.385 . S
C6251 C6250 1.374 . S
C6252 C6249 1.499 . S
C6252 C6253 1.373 . S
C6252 C6254 1.389 . S
C6253 H6232 0.950 . S
C6253 C6252 1.373 . S
C6253 C6269 1.377 . S
C6254 C6252 1.389 . S
C6254 C6255 1.524 . S
C6254 C6268 1.377 . S
C6255 C6254 1.524 . S
C6255 C6256 1.397 . S
C6255 C6260 1.363 . S
C6256 H6233 0.950 . S
C6256 C6255 1.397 . S
C6256 C6257 1.334 . S
C6257 H6234 0.950 . S
C6257 C6256 1.334 . S
C6257 C6258 1.287 . S
C6258 C6257 1.287 . S
C6258 C6259 1.524 . S
C6258 H6277 0.913 . S
C6259 H6235 0.950 . S
C6259 C6258 1.524 . S
C6259 C6260 1.415 . S
C6260 H6236 0.950 . S
C6260 C6255 1.363 . S
C6260 C6259 1.415 . S
C6261 H6237 0.951 . S
C6261 C6262 1.366 . S
C6261 C6263 1.388 . S
C6262 C6261 1.366 . S
C6262 C6266 1.385 . S
C6263 H6238 0.951 . S
C6263 C6261 1.388 . S
C6263 C6264 1.366 . S
C6264 C6263 1.366 . S
C6264 C6265 1.414 . S
C6264 C6267 1.499 . S
C6265 H6239 0.950 . S
C6265 C6264 1.414 . S
C6265 C6266 1.374 . S
C6266 H6240 0.950 . S
C6266 C6262 1.385 . S
C6266 C6265 1.374 . S
C6267 C6264 1.499 . S
C6267 C6268 1.373 . S
C6267 C6269 1.389 . S
C6268 H6241 0.950 . S
C6268 C6254 1.377 . S
C6268 C6267 1.373 . S
C6269 C6253 1.377 . S
C6269 C6267 1.389 . S
C6269 C6270 1.524 . S
C6270 C6269 1.524 . S
C6270 C6271 1.397 . S
C6270 C6275 1.363 . S
C6271 H6242 0.950 . S
C6271 C6270 1.397 . S
C6271 C6272 1.334 . S
C6272 H6243 0.950 . S
C6272 C6271 1.334 . S
C6272 C6273 1.287 . S
C6273 C6272 1.287 . S
C6273 C6274 1.524 . S
C6273 H6276 0.999 . S
C6274 H6244 0.950 . S
C6274 C6273 1.524 . S
C6274 C6275 1.415 . S
C6275 H6245 0.950 . S
C6275 C6270 1.363 . S
C6275 C6274 1.415 . S
H6276 C6273 0.999 . S
H6277 C6258 0.913 . S
H6278 C6296 0.951 . S
H6279 C6298 0.951 . S
H6280 C6300 0.950 . S
H6281 C6301 0.950 . S
H6282 C6303 0.950 . S
H6283 C6306 0.950 . S
H6284 C6307 0.950 . S
H6285 C6309 0.950 . S
H6286 C6310 0.950 . S
H6287 C6311 0.951 . S
H6288 C6313 0.951 . S
H6289 C6315 0.950 . S
H6290 C6316 0.950 . S
H6291 C6318 0.950 . S
H6292 C6321 0.950 . S
H6293 C6322 0.950 . S
H6294 C6324 0.950 . S
H6295 C6325 0.950 . S
C6296 H6278 0.951 . S
C6296 C6297 1.366 . S
C6296 C6298 1.388 . S
C6297 C6296 1.366 . S
C6297 C6301 1.385 . S
C6298 H6279 0.951 . S
C6298 C6296 1.388 . S
C6298 C6299 1.366 . S
C6299 C6298 1.366 . S
C6299 C6300 1.414 . S
C6299 C6302 1.499 . S
C6300 H6280 0.950 . S
C6300 C6299 1.414 . S
C6300 C6301 1.374 . S
C6301 H6281 0.950 . S
C6301 C6297 1.385 . S
C6301 C6300 1.374 . S
C6302 C6299 1.499 . S
C6302 C6303 1.373 . S
C6302 C6304 1.389 . S
C6303 H6282 0.950 . S
C6303 C6302 1.373 . S
C6303 C6319 1.377 . S
C6304 C6302 1.389 . S
C6304 C6305 1.524 . S
C6304 C6318 1.377 . S
C6305 C6304 1.524 . S
C6305 C6306 1.397 . S
C6305 C6310 1.363 . S
C6306 H6283 0.950 . S
C6306 C6305 1.397 . S
C6306 C6307 1.334 . S
C6307 H6284 0.950 . S
C6307 C6306 1.334 . S
C6307 C6308 1.287 . S
C6308 C6307 1.287 . S
C6308 C6309 1.524 . S
C6308 H6327 0.913 . S
C6309 H6285 0.950 . S
C6309 C6308 1.524 . S
C6309 C6310 1.415 . S
C6310 H6286 0.950 . S
C6310 C6305 1.363 . S
C6310 C6309 1.415 . S
C6311 H6287 0.951 . S
C6311 C6312 1.366 . S
C6311 C6313 1.388 . S
C6312 C6311 1.366 . S
C6312 C6316 1.385 . S
C6313 H6288 0.951 . S
C6313 C6311 1.388 . S
C6313 C6314 1.366 . S
C6314 C6313 1.366 . S
C6314 C6315 1.414 . S
C6314 C6317 1.499 . S
C6315 H6289 0.950 . S
C6315 C6314 1.414 . S
C6315 C6316 1.374 . S
C6316 H6290 0.950 . S
C6316 C6312 1.385 . S
C6316 C6315 1.374 . S
C6317 C6314 1.499 . S
C6317 C6318 1.373 . S
C6317 C6319 1.389 . S
C6318 H6291 0.950 . S
C6318 C6304 1.377 . S
C6318 C6317 1.373 . S
C6319 C6303 1.377 . S
C6319 C6317 1.389 . S
C6319 C6320 1.524 . S
C6320 C6319 1.524 . S
C6320 C6321 1.397 . S
C6320 C6325 1.363 . S
C6321 H6292 0.950 . S
C6321 C6320 1.397 . S
C6321 C6322 1.334 . S
C6322 H6293 0.950 . S
C6322 C6321 1.334 . S
C6322 C6323 1.287 . S
C6323 C6322 1.287 . S
C6323 C6324 1.524 . S
C6323 H6326 0.999 . S
C6324 H6294 0.950 . S
C6324 C6323 1.524 . S
C6324 C6325 1.415 . S
C6325 H6295 0.950 . S
C6325 C6320 1.363 . S
C6325 C6324 1.415 . S
H6326 C6323 0.999 . S
H6327 C6308 0.913 . S
H6328 C6346 0.951 . S
H6329 C6348 0.951 . S
H6330 C6350 0.950 . S
H6331 C6351 0.950 . S
H6332 C6353 0.950 . S
H6333 C6356 0.950 . S
H6334 C6357 0.950 . S
H6335 C6359 0.950 . S
H6336 C6360 0.950 . S
H6337 C6361 0.951 . S
H6338 C6363 0.951 . S
H6339 C6365 0.950 . S
H6340 C6366 0.950 . S
H6341 C6368 0.950 . S
H6342 C6371 0.950 . S
H6343 C6372 0.950 . S
H6344 C6374 0.950 . S
H6345 C6375 0.950 . S
C6346 H6328 0.951 . S
C6346 C6347 1.366 . S
C6346 C6348 1.388 . S
C6347 C6346 1.366 . S
C6347 C6351 1.385 . S
C6348 H6329 0.951 . S
C6348 C6346 1.388 . S
C6348 C6349 1.366 . S
C6349 C6348 1.366 . S
C6349 C6350 1.414 . S
C6349 C6352 1.499 . S
C6350 H6330 0.950 . S
C6350 C6349 1.414 . S
C6350 C6351 1.374 . S
C6351 H6331 0.950 . S
C6351 C6347 1.385 . S
C6351 C6350 1.374 . S
C6352 C6349 1.499 . S
C6352 C6353 1.373 . S
C6352 C6354 1.389 . S
C6353 H6332 0.950 . S
C6353 C6352 1.373 . S
C6353 C6369 1.377 . S
C6354 C6352 1.389 . S
C6354 C6355 1.524 . S
C6354 C6368 1.377 . S
C6355 C6354 1.524 . S
C6355 C6356 1.397 . S
C6355 C6360 1.363 . S
C6356 H6333 0.950 . S
C6356 C6355 1.397 . S
C6356 C6357 1.334 . S
C6357 H6334 0.950 . S
C6357 C6356 1.334 . S
C6357 C6358 1.287 . S
C6358 C6357 1.287 . S
C6358 C6359 1.524 . S
C6358 H6377 0.913 . S
C6359 H6335 0.950 . S
C6359 C6358 1.524 . S
C6359 C6360 1.415 . S
C6360 H6336 0.950 . S
C6360 C6355 1.363 . S
C6360 C6359 1.415 . S
C6361 H6337 0.951 . S
C6361 C6362 1.366 . S
C6361 C6363 1.388 . S
C6362 C6361 1.366 . S
C6362 C6366 1.385 . S
C6363 H6338 0.951 . S
C6363 C6361 1.388 . S
C6363 C6364 1.366 . S
C6364 C6363 1.366 . S
C6364 C6365 1.414 . S
C6364 C6367 1.499 . S
C6365 H6339 0.950 . S
C6365 C6364 1.414 . S
C6365 C6366 1.374 . S
C6366 H6340 0.950 . S
C6366 C6362 1.385 . S
C6366 C6365 1.374 . S
C6367 C6364 1.499 . S
C6367 C6368 1.373 . S
C6367 C6369 1.389 . S
C6368 H6341 0.950 . S
C6368 C6354 1.377 . S
C6368 C6367 1.373 . S
C6369 C6353 1.377 . S
C6369 C6367 1.389 . S
C6369 C6370 1.524 . S
C6370 C6369 1.524 . S
C6370 C6371 1.397 . S
C6370 C6375 1.363 . S
C6371 H6342 0.950 . S
C6371 C6370 1.397 . S
C6371 C6372 1.334 . S
C6372 H6343 0.950 . S
C6372 C6371 1.334 . S
C6372 C6373 1.287 . S
C6373 C6372 1.287 . S
C6373 C6374 1.524 . S
C6373 H6376 0.999 . S
C6374 H6344 0.950 . S
C6374 C6373 1.524 . S
C6374 C6375 1.415 . S
C6375 H6345 0.950 . S
C6375 C6370 1.363 . S
C6375 C6374 1.415 . S
H6376 C6373 0.999 . S
H6377 C6358 0.913 . S
H6378 C6396 0.951 . S
H6379 C6398 0.951 . S
H6380 C6400 0.950 . S
H6381 C6401 0.950 . S
H6382 C6403 0.950 . S
H6383 C6406 0.950 . S
H6384 C6407 0.950 . S
H6385 C6409 0.950 . S
H6386 C6410 0.950 . S
H6387 C6411 0.951 . S
H6388 C6413 0.951 . S
H6389 C6415 0.950 . S
H6390 C6416 0.950 . S
H6391 C6418 0.950 . S
H6392 C6421 0.950 . S
H6393 C6422 0.950 . S
H6394 C6424 0.950 . S
H6395 C6425 0.950 . S
C6396 H6378 0.951 . S
C6396 C6397 1.366 . S
C6396 C6398 1.388 . S
C6397 C6396 1.366 . S
C6397 C6401 1.385 . S
C6398 H6379 0.951 . S
C6398 C6396 1.388 . S
C6398 C6399 1.366 . S
C6399 C6398 1.366 . S
C6399 C6400 1.414 . S
C6399 C6402 1.499 . S
C6400 H6380 0.950 . S
C6400 C6399 1.414 . S
C6400 C6401 1.374 . S
C6401 H6381 0.950 . S
C6401 C6397 1.385 . S
C6401 C6400 1.374 . S
C6402 C6399 1.499 . S
C6402 C6403 1.373 . S
C6402 C6404 1.389 . S
C6403 H6382 0.950 . S
C6403 C6402 1.373 . S
C6403 C6419 1.377 . S
C6404 C6402 1.389 . S
C6404 C6405 1.524 . S
C6404 C6418 1.377 . S
C6405 C6404 1.524 . S
C6405 C6406 1.397 . S
C6405 C6410 1.363 . S
C6406 H6383 0.950 . S
C6406 C6405 1.397 . S
C6406 C6407 1.334 . S
C6407 H6384 0.950 . S
C6407 C6406 1.334 . S
C6407 C6408 1.287 . S
C6408 C6407 1.287 . S
C6408 C6409 1.524 . S
C6408 H6427 0.913 . S
C6409 H6385 0.950 . S
C6409 C6408 1.524 . S
C6409 C6410 1.415 . S
C6410 H6386 0.950 . S
C6410 C6405 1.363 . S
C6410 C6409 1.415 . S
C6411 H6387 0.951 . S
C6411 C6412 1.366 . S
C6411 C6413 1.388 . S
C6412 C6411 1.366 . S
C6412 C6416 1.385 . S
C6413 H6388 0.951 . S
C6413 C6411 1.388 . S
C6413 C6414 1.366 . S
C6414 C6413 1.366 . S
C6414 C6415 1.414 . S
C6414 C6417 1.499 . S
C6415 H6389 0.950 . S
C6415 C6414 1.414 . S
C6415 C6416 1.374 . S
C6416 H6390 0.950 . S
C6416 C6412 1.385 . S
C6416 C6415 1.374 . S
C6417 C6414 1.499 . S
C6417 C6418 1.373 . S
C6417 C6419 1.389 . S
C6418 H6391 0.950 . S
C6418 C6404 1.377 . S
C6418 C6417 1.373 . S
C6419 C6403 1.377 . S
C6419 C6417 1.389 . S
C6419 C6420 1.524 . S
C6420 C6419 1.524 . S
C6420 C6421 1.397 . S
C6420 C6425 1.363 . S
C6421 H6392 0.950 . S
C6421 C6420 1.397 . S
C6421 C6422 1.334 . S
C6422 H6393 0.950 . S
C6422 C6421 1.334 . S
C6422 C6423 1.287 . S
C6423 C6422 1.287 . S
C6423 C6424 1.524 . S
C6423 H6426 0.999 . S
C6424 H6394 0.950 . S
C6424 C6423 1.524 . S
C6424 C6425 1.415 . S
C6425 H6395 0.950 . S
C6425 C6420 1.363 . S
C6425 C6424 1.415 . S
H6426 C6423 0.999 . S
H6427 C6408 0.913 . S
H6428 C6446 0.951 . S
H6429 C6448 0.951 . S
H6430 C6450 0.950 . S
H6431 C6451 0.950 . S
H6432 C6453 0.950 . S
H6433 C6456 0.950 . S
H6434 C6457 0.950 . S
H6435 C6459 0.950 . S
H6436 C6460 0.950 . S
H6437 C6461 0.951 . S
H6438 C6463 0.951 . S
H6439 C6465 0.950 . S
H6440 C6466 0.950 . S
H6441 C6468 0.950 . S
H6442 C6471 0.950 . S
H6443 C6472 0.950 . S
H6444 C6474 0.950 . S
H6445 C6475 0.950 . S
C6446 H6428 0.951 . S
C6446 C6447 1.366 . S
C6446 C6448 1.388 . S
C6447 C6446 1.366 . S
C6447 C6451 1.385 . S
C6448 H6429 0.951 . S
C6448 C6446 1.388 . S
C6448 C6449 1.366 . S
C6449 C6448 1.366 . S
C6449 C6450 1.414 . S
C6449 C6452 1.499 . S
C6450 H6430 0.950 . S
C6450 C6449 1.414 . S
C6450 C6451 1.374 . S
C6451 H6431 0.950 . S
C6451 C6447 1.385 . S
C6451 C6450 1.374 . S
C6452 C6449 1.499 . S
C6452 C6453 1.373 . S
C6452 C6454 1.389 . S
C6453 H6432 0.950 . S
C6453 C6452 1.373 . S
C6453 C6469 1.377 . S
C6454 C6452 1.389 . S
C6454 C6455 1.524 . S
C6454 C6468 1.377 . S
C6455 C6454 1.524 . S
C6455 C6456 1.397 . S
C6455 C6460 1.363 . S
C6456 H6433 0.950 . S
C6456 C6455 1.397 . S
C6456 C6457 1.334 . S
C6457 H6434 0.950 . S
C6457 C6456 1.334 . S
C6457 C6458 1.287 . S
C6458 C6457 1.287 . S
C6458 C6459 1.524 . S
C6458 H6477 0.913 . S
C6459 H6435 0.950 . S
C6459 C6458 1.524 . S
C6459 C6460 1.415 . S
C6460 H6436 0.950 . S
C6460 C6455 1.363 . S
C6460 C6459 1.415 . S
C6461 H6437 0.951 . S
C6461 C6462 1.366 . S
C6461 C6463 1.388 . S
C6462 C6461 1.366 . S
C6462 C6466 1.385 . S
C6463 H6438 0.951 . S
C6463 C6461 1.388 . S
C6463 C6464 1.366 . S
C6464 C6463 1.366 . S
C6464 C6465 1.414 . S
C6464 C6467 1.499 . S
C6465 H6439 0.950 . S
C6465 C6464 1.414 . S
C6465 C6466 1.374 . S
C6466 H6440 0.950 . S
C6466 C6462 1.385 . S
C6466 C6465 1.374 . S
C6467 C6464 1.499 . S
C6467 C6468 1.373 . S
C6467 C6469 1.389 . S
C6468 H6441 0.950 . S
C6468 C6454 1.377 . S
C6468 C6467 1.373 . S
C6469 C6453 1.377 . S
C6469 C6467 1.389 . S
C6469 C6470 1.524 . S
C6470 C6469 1.524 . S
C6470 C6471 1.397 . S
C6470 C6475 1.363 . S
C6471 H6442 0.950 . S
C6471 C6470 1.397 . S
C6471 C6472 1.334 . S
C6472 H6443 0.950 . S
C6472 C6471 1.334 . S
C6472 C6473 1.287 . S
C6473 C6472 1.287 . S
C6473 C6474 1.524 . S
C6473 H6476 0.999 . S
C6474 H6444 0.950 . S
C6474 C6473 1.524 . S
C6474 C6475 1.415 . S
C6475 H6445 0.950 . S
C6475 C6470 1.363 . S
C6475 C6474 1.415 . S
H6476 C6473 0.999 . S
H6477 C6458 0.913 . S
H6478 C6496 0.951 . S
H6479 C6498 0.951 . S
H6480 C6500 0.950 . S
H6481 C6501 0.950 . S
H6482 C6503 0.950 . S
H6483 C6506 0.950 . S
H6484 C6507 0.950 . S
H6485 C6509 0.950 . S
H6486 C6510 0.950 . S
H6487 C6511 0.951 . S
H6488 C6513 0.951 . S
H6489 C6515 0.950 . S
H6490 C6516 0.950 . S
H6491 C6518 0.950 . S
H6492 C6521 0.950 . S
H6493 C6522 0.950 . S
H6494 C6524 0.950 . S
H6495 C6525 0.950 . S
C6496 H6478 0.951 . S
C6496 C6497 1.366 . S
C6496 C6498 1.388 . S
C6497 C6496 1.366 . S
C6497 C6501 1.385 . S
C6498 H6479 0.951 . S
C6498 C6496 1.388 . S
C6498 C6499 1.366 . S
C6499 C6498 1.366 . S
C6499 C6500 1.414 . S
C6499 C6502 1.499 . S
C6500 H6480 0.950 . S
C6500 C6499 1.414 . S
C6500 C6501 1.374 . S
C6501 H6481 0.950 . S
C6501 C6497 1.385 . S
C6501 C6500 1.374 . S
C6502 C6499 1.499 . S
C6502 C6503 1.373 . S
C6502 C6504 1.389 . S
C6503 H6482 0.950 . S
C6503 C6502 1.373 . S
C6503 C6519 1.377 . S
C6504 C6502 1.389 . S
C6504 C6505 1.524 . S
C6504 C6518 1.377 . S
C6505 C6504 1.524 . S
C6505 C6506 1.397 . S
C6505 C6510 1.363 . S
C6506 H6483 0.950 . S
C6506 C6505 1.397 . S
C6506 C6507 1.334 . S
C6507 H6484 0.950 . S
C6507 C6506 1.334 . S
C6507 C6508 1.287 . S
C6508 C6507 1.287 . S
C6508 C6509 1.524 . S
C6508 H6527 0.913 . S
C6509 H6485 0.950 . S
C6509 C6508 1.524 . S
C6509 C6510 1.415 . S
C6510 H6486 0.950 . S
C6510 C6505 1.363 . S
C6510 C6509 1.415 . S
C6511 H6487 0.951 . S
C6511 C6512 1.366 . S
C6511 C6513 1.388 . S
C6512 C6511 1.366 . S
C6512 C6516 1.385 . S
C6513 H6488 0.951 . S
C6513 C6511 1.388 . S
C6513 C6514 1.366 . S
C6514 C6513 1.366 . S
C6514 C6515 1.414 . S
C6514 C6517 1.499 . S
C6515 H6489 0.950 . S
C6515 C6514 1.414 . S
C6515 C6516 1.374 . S
C6516 H6490 0.950 . S
C6516 C6512 1.385 . S
C6516 C6515 1.374 . S
C6517 C6514 1.499 . S
C6517 C6518 1.373 . S
C6517 C6519 1.389 . S
C6518 H6491 0.950 . S
C6518 C6504 1.377 . S
C6518 C6517 1.373 . S
C6519 C6503 1.377 . S
C6519 C6517 1.389 . S
C6519 C6520 1.524 . S
C6520 C6519 1.524 . S
C6520 C6521 1.397 . S
C6520 C6525 1.363 . S
C6521 H6492 0.950 . S
C6521 C6520 1.397 . S
C6521 C6522 1.334 . S
C6522 H6493 0.950 . S
C6522 C6521 1.334 . S
C6522 C6523 1.287 . S
C6523 C6522 1.287 . S
C6523 C6524 1.524 . S
C6523 H6526 0.999 . S
C6524 H6494 0.950 . S
C6524 C6523 1.524 . S
C6524 C6525 1.415 . S
C6525 H6495 0.950 . S
C6525 C6520 1.363 . S
C6525 C6524 1.415 . S
H6526 C6523 0.999 . S
H6527 C6508 0.913 . S
C1747 C14 0.807 . S
C1762 C950 0.851 . S
C1797 C986 0.894 . S
C1812 C50 0.589 . S
C1847 C86 0.696 . S
C1862 C878 0.778 . S
C1897 C914 0.795 . S
C1912 C122 0.888 . S
C1947 C158 0.602 . S
C1962 C1094 0.871 . S
C1997 C194 0.722 . S
C2012 C1130 1.039 . S
C2047 C230 1.104 . S
C2062 C1022 1.049 . S
C2097 C266 0.563 . S
C2112 C1058 0.900 . S
C2147 C446 0.848 . S
C2162 C302 0.809 . S
C2197 C338 0.881 . S
C2212 C482 0.786 . S
C2247 C518 0.602 . S
C2262 C374 0.872 . S
C2297 C410 0.898 . S
C2312 C554 0.554 . S
C2347 C1562 0.848 . S
C2362 C590 0.810 . S
C2397 C1634 0.606 . S
C2412 C626 0.869 . S
C2447 C806 0.793 . S
C2462 C662 0.890 . S
C2497 C1454 0.780 . S
C2512 C698 0.695 . S
C2547 C1706 0.897 . S
C2562 C734 0.555 . S
C2597 C1490 1.102 . S
C2612 C770 1.051 . S
C2647 C842 0.721 . S
C2662 C1598 1.040 . S
C2697 C1166 0.782 . S
C2712 C1310 0.692 . S
C2747 C1346 0.591 . S
C2762 C1202 0.892 . S
C2797 C1238 1.103 . S
C2812 C1382 1.049 . S
C2847 C1418 1.042 . S
C2862 C1274 0.718 . S
C2897 C1526 0.896 . S
C2912 C1670 0.587 . S
C2947 C2 0.351 . S
C2962 C254 0.605 . S
C2997 C146 0.276 . S
C3012 C38 0.279 . S
C3047 C74 0.273 . S
C3062 C182 0.241 . S
C3097 C110 0.556 . S
C3112 C218 0.909 . S
C3147 C722 0.607 . S
C3162 C290 0.351 . S
C3197 C1478 0.901 . S
C3212 C326 0.568 . S
C3247 C362 0.518 . S
C3262 C1514 0.563 . S
C3297 C398 0.677 . S
C3312 C1550 0.227 . S
C3347 C1694 0.679 . S
C3362 C434 0.224 . S
C3397 C470 0.368 . S
C3412 C758 0.800 . S
C3447 C506 0.278 . S
C3462 C1658 0.278 . S
C3497 C542 0.604 . S
C3512 C578 0.352 . S
C3547 C614 0.515 . S
C3562 C1190 0.563 . S
C3597 C650 0.557 . S
C3612 C1226 0.908 . S
C3647 C1262 0.242 . S
C3662 C686 0.273 . S
C3697 C794 0.368 . S
C3712 C1370 0.800 . S
C3747 C1298 0.275 . S
C3762 C830 0.239 . S
C3797 C1118 0.518 . S
C3812 C866 0.235 . S
C3847 C902 0.367 . S
C3862 C1010 0.799 . S
C3897 C1046 0.678 . S
C3912 C938 0.226 . S
C3947 C974 0.561 . S
C3962 C1082 0.517 . S
C3997 C1154 0.236 . S
C4012 C1586 0.520 . S
C4047 C1622 0.276 . S
C4062 C1334 0.280 . S
C4097 C1442 0.232 . S
C4112 C1406 0.521 . S
C4147 C4 0.631 . S
C4162 C1048 0.283 . S
C4197 C1084 0.648 . S
C4212 C40 0.725 . S
C4247 C76 0.728 . S
C4262 C1120 0.686 . S
C4297 C112 0.806 . S
C4312 C1012 0.876 . S
C4347 C976 0.689 . S
C4362 C148 0.725 . S
C4397 C184 0.798 . S
C4412 C868 0.799 . S
C4447 C904 0.904 . S
C4462 C220 1.072 . S
C4497 C256 0.699 . S
C4512 C940 0.700 . S
C4547 C1696 0.285 . S
C4562 C292 0.639 . S
C4597 C328 0.808 . S
C4612 C760 0.876 . S
C4647 C364 0.649 . S
C4662 C1660 0.725 . S
C4697 C580 0.628 . S
C4712 C400 0.285 . S
C4747 C436 0.699 . S
C4762 C724 0.701 . S
C4797 C472 0.901 . S
C4812 C1480 1.072 . S
C4847 C1516 0.690 . S
C4862 C508 0.727 . S
C4897 C1552 0.700 . S
C4912 C544 0.699 . S
C4947 C1336 0.725 . S
C4962 C616 0.649 . S
C4997 C1372 0.885 . S
C5012 C652 0.803 . S
C5047 C1408 0.686 . S
C5062 C688 0.725 . S
C5097 C796 0.904 . S
C5112 C1228 1.072 . S
C5147 C1156 0.801 . S
C5162 C832 0.796 . S
C5197 C1192 0.691 . S
C5212 C1624 0.723 . S
C5247 C1264 0.799 . S
C5262 C1444 0.798 . S
C5297 C1588 0.685 . S
C5312 C1300 0.729 . S
C5347 C3 1.352 . S
C5362 C795 1.319 . S
C5397 C39 1.384 . S
C5412 C1443 1.390 . S
C5447 C831 1.407 . S
C5462 C75 1.401 . S
C5497 C1623 1.501 . S
C5512 C111 1.501 . S
C5547 C651 1.493 . S
C5562 C147 1.505 . S
C5597 C687 1.400 . S
C5612 C183 1.406 . S
C5647 C219 1.349 . S
C5662 C1587 1.340 . S
C5697 C255 1.162 . S
C5712 C615 1.152 . S
C5747 C471 1.318 . S
C5762 C291 1.351 . S
C5797 C327 1.494 . S
C5812 C507 1.506 . S
C5847 C543 1.162 . S
C5862 C363 1.153 . S
C5897 C435 1.509 . S
C5912 C399 1.448 . S
C5947 C579 1.351 . S
C5962 C903 1.319 . S
C5997 C1083 1.152 . S
C6012 C723 1.162 . S
C6047 C975 1.463 . S
C6062 C759 1.458 . S
C6097 C867 1.391 . S
C6112 C1659 1.385 . S
C6147 C1695 1.454 . S
C6162 C939 1.499 . S
C6197 C1515 1.465 . S
C6212 C1011 1.459 . S
C6247 C1551 1.509 . S
C6262 C1047 1.448 . S
C6297 C1479 1.348 . S
C6312 C1119 1.339 . S
C6347 C1335 1.385 . S
C6362 C1155 1.391 . S
C6397 C1371 1.459 . S
C6412 C1191 1.464 . S
C6447 C1227 1.349 . S
C6462 C1407 1.340 . S
C6497 C1263 1.407 . S
C6512 C1299 1.401 . S
