# Generated by pormake.
# Topology zft, (5)-cn, num edge types: 1
# Building blocks:
#     Node 0, Type 0, BuildingBlock: BEQFEK_clean_sbu_0, # of connection points: 5
#     Node 1, Type 0, BuildingBlock: BEQFEK_clean_sbu_0, # of connection points: 5
#     Node 2, Type 0, BuildingBlock: BEQFEK_clean_sbu_0, # of connection points: 5
#     Node 3, Type 0, BuildingBlock: BEQFEK_clean_sbu_0, # of connection points: 5
#     Node 4, Type 0, BuildingBlock: BEQFEK_clean_sbu_0, # of connection points: 5
#     Node 5, Type 0, BuildingBlock: BEQFEK_clean_sbu_0, # of connection points: 5
#     Node 6, Type 0, BuildingBlock: BEQFEK_clean_sbu_0, # of connection points: 5
#     Node 7, Type 0, BuildingBlock: BEQFEK_clean_sbu_0, # of connection points: 5
#     Edge 8, Type (0, 0), BuildingBlock: TEMPAE_clean_linker_10, # of connection points: 2
#     Edge 9, Type (0, 0), BuildingBlock: TEMPAE_clean_linker_10, # of connection points: 2
#     Edge 10, Type (0, 0), BuildingBlock: TEMPAE_clean_linker_10, # of connection points: 2
#     Edge 11, Type (0, 0), BuildingBlock: TEMPAE_clean_linker_10, # of connection points: 2
#     Edge 12, Type (0, 0), BuildingBlock: TEMPAE_clean_linker_10, # of connection points: 2
#     Edge 13, Type (0, 0), BuildingBlock: TEMPAE_clean_linker_10, # of connection points: 2
#     Edge 14, Type (0, 0), BuildingBlock: TEMPAE_clean_linker_10, # of connection points: 2
#     Edge 15, Type (0, 0), BuildingBlock: TEMPAE_clean_linker_10, # of connection points: 2
#     Edge 16, Type (0, 0), BuildingBlock: TEMPAE_clean_linker_10, # of connection points: 2
#     Edge 17, Type (0, 0), BuildingBlock: TEMPAE_clean_linker_10, # of connection points: 2
#     Edge 18, Type (0, 0), BuildingBlock: TEMPAE_clean_linker_10, # of connection points: 2
#     Edge 19, Type (0, 0), BuildingBlock: TEMPAE_clean_linker_10, # of connection points: 2
#     Edge 20, Type (0, 0), BuildingBlock: TEMPAE_clean_linker_10, # of connection points: 2
#     Edge 21, Type (0, 0), BuildingBlock: TEMPAE_clean_linker_10, # of connection points: 2
#     Edge 22, Type (0, 0), BuildingBlock: TEMPAE_clean_linker_10, # of connection points: 2
#     Edge 23, Type (0, 0), BuildingBlock: TEMPAE_clean_linker_10, # of connection points: 2
#     Edge 24, Type (0, 0), BuildingBlock: TEMPAE_clean_linker_10, # of connection points: 2
#     Edge 25, Type (0, 0), BuildingBlock: TEMPAE_clean_linker_10, # of connection points: 2
#     Edge 26, Type (0, 0), BuildingBlock: TEMPAE_clean_linker_10, # of connection points: 2
#     Edge 27, Type (0, 0), BuildingBlock: TEMPAE_clean_linker_10, # of connection points: 2
# Relax obj value: 0.052
# Max RMSD: 0.118
# Mean RMSD: 0.118
data_MOF--net-zft--node1-BEQFEK_clean_sbu_0--edge1-TEMPAE_clean_linker_10
_symmetry_space_group_name_H-M    P1
_symmetry_Int_Tables_number       1
_symmetry_cell_setting            triclinic
loop_
_symmetry_equiv_pos_as_xyz
'x, y, z'
_cell_length_a     28.685333
_cell_length_b     28.678904
_cell_length_c     55.335465
_cell_angle_alpha  89.959126
_cell_angle_beta   89.995391
_cell_angle_gamma 90.083022
loop_
_atom_site_label
_atom_site_type_symbol
_atom_site_fract_x
_atom_site_fract_y
_atom_site_fract_z
_atom_type_partial_charge
Co0 Co 0.05237 0.27376 0.18701 0.0
Co1 Co 0.12978 0.33809 0.16473 0.0
C2 C 0.03648 0.33009 0.14175 0.0
O3 O 0.02288 0.30081 0.15761 0.0
O4 O 0.07699 0.34824 0.14248 0.0
C5 C 0.96273 0.25139 0.20797 0.0
O6 O 0.9486 0.29039 0.1979 0.0
C7 C 0.18061 0.41807 0.14383 0.0
C8 C 0.25269 0.40284 0.15553 0.0
C9 C 0.22606 0.43474 0.14279 0.0
N10 N 0.18057 0.37804 0.15651 0.0
N11 N 0.22378 0.36905 0.16332 0.0
C12 C 0.13737 0.44148 0.13482 0.0
H13 H 0.12872 0.42762 0.11664 0.0
H14 H 0.10772 0.4339 0.14708 0.0
H15 H 0.14232 0.47978 0.13348 0.0
C16 C 0.07304 0.33193 0.23004 0.0
N17 N 0.07962 0.32034 0.2067 0.0
N18 N 0.1108 0.34852 0.19715 0.0
C19 C 0.12398 0.37999 0.21389 0.0
C20 C 0.10074 0.37035 0.23539 0.0
C21 C 0.04336 0.30454 0.24722 0.0
H22 H 0.04671 0.26675 0.24339 0.0
H23 H 0.00635 0.31465 0.24473 0.0
H24 H 0.05349 0.31099 0.26627 0.0
O25 O 0.09949 0.22827 0.1769 0.0
O26 O 0.1533 0.27341 0.1601 0.0
H27 H 0.19236 0.40769 0.20837 0.0
H28 H 0.1526 0.44786 0.22278 0.0
C29 C 0.15581 0.42025 0.20885 0.0
H30 H 0.14732 0.43558 0.19102 0.0
H31 H 0.23344 0.34002 0.17354 0.0
O32 O 0.00484 0.23869 0.20537 0.0
C33 C 0.13808 0.23319 0.16589 0.0
Co34 Co 0.21195 0.5479 0.4352 0.0
Co35 Co 0.16379 0.63793 0.41514 0.0
C36 C 0.15595 0.54426 0.39035 0.0
O37 O 0.17959 0.52323 0.40647 0.0
O38 O 0.14818 0.5879 0.39163 0.0
C39 C 0.25075 0.45698 0.44439 0.0
O40 O 0.24198 0.44941 0.42142 0.0
C41 C 0.08396 0.69113 0.39828 0.0
C42 C 0.10882 0.76397 0.40021 0.0
C43 C 0.07073 0.73681 0.39389 0.0
N44 N 0.12788 0.6912 0.40663 0.0
N45 N 0.1427 0.73482 0.40768 0.0
C46 C 0.05471 0.6481 0.39606 0.0
H47 H 0.06598 0.62166 0.4095 0.0
H48 H 0.01725 0.65626 0.39874 0.0
H49 H 0.05935 0.63315 0.37773 0.0
C50 C 0.15561 0.57226 0.47804 0.0
N51 N 0.16983 0.58034 0.45524 0.0
N52 N 0.15096 0.61922 0.44737 0.0
C53 C 0.12513 0.63803 0.46521 0.0
C54 C 0.12703 0.60876 0.48528 0.0
C55 C 0.16739 0.52903 0.49194 0.0
H56 H 0.20327 0.53227 0.49925 0.0
H57 H 0.16637 0.49836 0.47976 0.0
H58 H 0.1427 0.52315 0.50707 0.0
O59 O 0.26423 0.58913 0.42484 0.0
O60 O 0.23017 0.65359 0.41142 0.0
H61 H 0.12599 0.7097 0.45435 0.0
H62 H 0.09373 0.69899 0.48168 0.0
C63 C 0.10234 0.68486 0.46358 0.0
H64 H 0.06993 0.68183 0.45275 0.0
H65 H 0.17583 0.74467 0.41358 0.0
O66 O 0.24034 0.49615 0.45361 0.0
C67 C 0.26673 0.62998 0.41583 0.0
Co68 Co 0.94685 0.72288 0.68751 0.0
Co69 Co 0.87053 0.65522 0.66719 0.0
C70 C 0.96144 0.66399 0.64274 0.0
O71 O 0.9745 0.69492 0.65782 0.0
O72 O 0.9219 0.64422 0.64447 0.0
C73 C 0.03514 0.74045 0.7101 0.0
O74 O 0.04093 0.69519 0.70802 0.0
C75 C 0.82231 0.57168 0.64896 0.0
C76 C 0.74938 0.58631 0.65933 0.0
C77 C 0.77742 0.55357 0.64805 0.0
N78 N 0.82071 0.61326 0.66017 0.0
N79 N 0.777 0.62186 0.66622 0.0
C80 C 0.86658 0.54843 0.64128 0.0
H81 H 0.87527 0.55957 0.62261 0.0
H82 H 0.89563 0.55894 0.65335 0.0
H83 H 0.86293 0.50991 0.64163 0.0
C84 C 0.92735 0.66821 0.73232 0.0
N85 N 0.92153 0.67712 0.70857 0.0
N86 N 0.89103 0.64744 0.69964 0.0
C87 C 0.87792 0.61753 0.71716 0.0
C88 C 0.90013 0.62993 0.73854 0.0
C89 C 0.95453 0.69858 0.74922 0.0
H90 H 0.95467 0.73513 0.7427 0.0
H91 H 0.99098 0.68588 0.75019 0.0
H92 H 0.93949 0.69743 0.7677 0.0
O93 O 0.89783 0.76706 0.67814 0.0
O94 O 0.84583 0.71936 0.66147 0.0
H95 H 0.80993 0.58862 0.71195 0.0
H96 H 0.84958 0.55051 0.72789 0.0
C97 C 0.84656 0.57649 0.71312 0.0
H98 H 0.85581 0.55922 0.6959 0.0
H99 H 0.76612 0.65185 0.67525 0.0
O100 O 0.99729 0.75894 0.70305 0.0
C101 C 0.85952 0.7602 0.66714 0.0
Co102 Co 0.77939 0.44951 0.93649 0.0
Co103 Co 0.82779 0.36075 0.91577 0.0
C104 C 0.83684 0.45677 0.89275 0.0
O105 O 0.813 0.4771 0.909 0.0
O106 O 0.8438 0.41291 0.89339 0.0
C107 C 0.75538 0.54235 0.95321 0.0
O108 O 0.78502 0.55746 0.93688 0.0
C109 C 0.91108 0.30878 0.90289 0.0
C110 C 0.88206 0.24237 0.88931 0.0
C111 C 0.92329 0.26676 0.89247 0.0
N112 N 0.86465 0.30929 0.9059 0.0
N113 N 0.84747 0.26935 0.89795 0.0
C114 C 0.94227 0.34962 0.90757 0.0
H115 H 0.92259 0.37864 0.91601 0.0
H116 H 0.97127 0.33908 0.91965 0.0
H117 H 0.95783 0.36158 0.89027 0.0
C118 C 0.83493 0.42269 0.97946 0.0
N119 N 0.82081 0.41561 0.95656 0.0
N120 N 0.83937 0.37682 0.9484 0.0
C121 C 0.8644 0.35682 0.9662 0.0
C122 C 0.86285 0.38544 0.98649 0.0
C123 C 0.82434 0.46599 0.99352 0.0
H124 H 0.82612 0.49674 0.98141 0.0
H125 H 0.84928 0.47112 0.0086 0.0
H126 H 0.78843 0.46359 0.00088 0.0
O127 O 0.72785 0.40924 0.92399 0.0
O128 O 0.76192 0.34397 0.9116 0.0
H129 H 0.86526 0.28692 0.95219 0.0
H130 H 0.88813 0.29261 0.98246 0.0
C131 C 0.88599 0.30943 0.96443 0.0
H132 H 0.92176 0.31276 0.95703 0.0
H133 H 0.81202 0.26117 0.89764 0.0
O134 O 0.74881 0.49879 0.95568 0.0
C135 C 0.72554 0.36826 0.91516 0.0
Co136 Co 0.54667 0.2203 0.56069 0.0
Co137 Co 0.62548 0.15598 0.58164 0.0
C138 C 0.53212 0.16279 0.60543 0.0
O139 O 0.5167 0.19058 0.58933 0.0
O140 O 0.57358 0.14708 0.60466 0.0
C141 C 0.45636 0.24352 0.54135 0.0
O142 O 0.44229 0.20563 0.55256 0.0
C143 C 0.67818 0.07947 0.60495 0.0
C144 C 0.74195 0.07847 0.58259 0.0
C145 C 0.71958 0.05514 0.60124 0.0
N146 N 0.67572 0.11419 0.58863 0.0
N147 N 0.71445 0.114 0.57572 0.0
C148 C 0.64359 0.07312 0.62495 0.0
H149 H 0.63179 0.10765 0.63146 0.0
H150 H 0.61286 0.05372 0.61805 0.0
H151 H 0.65899 0.05418 0.64049 0.0
C152 C 0.5672 0.1654 0.51664 0.0
N153 N 0.57388 0.1753 0.54019 0.0
N154 N 0.60432 0.14593 0.54935 0.0
C155 C 0.61622 0.11486 0.53214 0.0
C156 C 0.59383 0.12665 0.51072 0.0
C157 C 0.5385 0.19466 0.49989 0.0
H158 H 0.54261 0.23205 0.50451 0.0
H159 H 0.50122 0.18511 0.50199 0.0
H160 H 0.54887 0.18945 0.48077 0.0
O161 O 0.59408 0.26545 0.57158 0.0
O162 O 0.65044 0.22024 0.58583 0.0
H163 H 0.68214 0.0802 0.53345 0.0
H164 H 0.63468 0.04368 0.52396 0.0
C165 C 0.64483 0.07205 0.53655 0.0
H166 H 0.64008 0.05963 0.55535 0.0
H167 H 0.72151 0.13743 0.56175 0.0
O168 O 0.49888 0.25567 0.54277 0.0
C169 C 0.63402 0.26055 0.58127 0.0
Co170 Co 0.27223 0.05205 0.81266 0.0
Co171 Co 0.33236 0.13605 0.83121 0.0
C172 C 0.33652 0.0432 0.85524 0.0
O173 O 0.30695 0.02624 0.84051 0.0
O174 O 0.35018 0.08532 0.85366 0.0
C175 C 0.25777 0.963 0.7895 0.0
O176 O 0.3034 0.95925 0.79008 0.0
C177 C 0.41354 0.19089 0.84674 0.0
C178 C 0.38625 0.26284 0.84486 0.0
C179 C 0.42502 0.23693 0.85112 0.0
N180 N 0.36976 0.1894 0.83813 0.0
N181 N 0.35372 0.23256 0.83695 0.0
C182 C 0.44265 0.14885 0.85198 0.0
H183 H 0.43652 0.13783 0.87094 0.0
H184 H 0.43276 0.11965 0.83986 0.0
H185 H 0.48028 0.15695 0.84987 0.0
C186 C 0.31884 0.07867 0.76634 0.0
N187 N 0.31183 0.08349 0.79031 0.0
N188 N 0.33892 0.11705 0.79848 0.0
C189 C 0.36526 0.13347 0.78018 0.0
C190 C 0.35323 0.10992 0.7591 0.0
C191 C 0.29026 0.04784 0.7503 0.0
H192 H 0.25443 0.04426 0.75757 0.0
H193 H 0.30653 0.01283 0.74943 0.0
H194 H 0.28848 0.06218 0.73169 0.0
O195 O 0.22481 0.09464 0.82536 0.0
O196 O 0.26676 0.15506 0.83793 0.0
H197 H 0.38711 0.20391 0.78597 0.0
H198 H 0.42704 0.17017 0.76765 0.0
C199 C 0.40304 0.16905 0.78333 0.0
H200 H 0.42376 0.16056 0.7996 0.0
H201 H 0.32017 0.24126 0.83123 0.0
O202 O 0.2384 -0.00041 0.7976 0.0
C203 C 0.22764 0.13479 0.83496 0.0
Co204 Co 0.44991 0.78187 0.06061 0.0
Co205 Co 0.36237 0.83563 0.07934 0.0
C206 C 0.45402 0.83524 0.10629 0.0
O207 O 0.47452 0.81083 0.09032 0.0
O208 O 0.41124 0.84633 0.10422 0.0
C209 C 0.54292 0.7486 0.05003 0.0
O210 O 0.55462 0.76805 0.07064 0.0
C211 C 0.31452 0.91912 0.09529 0.0
C212 C 0.24025 0.89899 0.09333 0.0
C213 C 0.26978 0.93542 0.09948 0.0
N214 N 0.31158 0.87511 0.08723 0.0
N215 N 0.26714 0.86314 0.08611 0.0
C216 C 0.35944 0.94538 0.09744 0.0
H217 H 0.38534 0.93159 0.08437 0.0
H218 H 0.35399 0.98318 0.0942 0.0
H219 H 0.37362 0.9406 0.11593 0.0
C220 C 0.43437 0.84327 0.01836 0.0
N221 N 0.42284 0.82772 0.04053 0.0
N222 N 0.38464 0.84871 0.04777 0.0
C223 C 0.36948 0.8771 0.03003 0.0
C224 C 0.40074 0.87498 0.01078 0.0
C225 C 0.47827 0.82985 0.0055 0.0
H226 H 0.50743 0.82774 0.0186 0.0
H227 H 0.4875 0.85543 0.99123 0.0
H228 H 0.47361 0.79493 0.9972 0.0
O229 O 0.40379 0.73223 0.06931 0.0
O230 O 0.34123 0.77071 0.08183 0.0
H231 H 0.31123 0.91113 0.01241 0.0
H232 H 0.32817 0.93511 0.04131 0.0
C233 C 0.32389 0.90244 0.0308 0.0
H234 H 0.29727 0.88056 0.03987 0.0
H235 H 0.2552 0.83056 0.08042 0.0
O236 O 0.50087 0.75066 0.04288 0.0
C237 C 0.36217 0.73258 0.07743 0.0
Co238 Co 0.71478 0.9456 0.31205 0.0
Co239 Co 0.66102 0.85905 0.33271 0.0
C240 C 0.65601 0.95208 0.3568 0.0
O241 O 0.6816 0.97115 0.34075 0.0
O242 O 0.64588 0.9089 0.3559 0.0
C243 C 0.75982 0.03378 0.30458 0.0
O244 O 0.75723 0.03689 0.32823 0.0
C245 C 0.58542 0.80203 0.35275 0.0
C246 C 0.60549 0.73113 0.34112 0.0
C247 C 0.5717 0.75569 0.35365 0.0
N248 N 0.62569 0.80472 0.34043 0.0
N249 N 0.63766 0.7622 0.33365 0.0
C250 C 0.55868 0.84363 0.36136 0.0
H251 H 0.564 0.87337 0.34883 0.0
H252 H 0.52086 0.83587 0.36268 0.0
H253 H 0.57169 0.85388 0.37948 0.0
C254 C 0.66119 0.91997 0.26834 0.0
N255 N 0.67306 0.91328 0.29162 0.0
N256 N 0.64858 0.87848 0.30051 0.0
C257 C 0.61912 0.8628 0.28336 0.0
C258 C 0.62631 0.88836 0.26228 0.0
C259 C 0.6852 0.95402 0.25199 0.0
H260 H 0.7233 0.95318 0.25536 0.0
H261 H 0.67251 0.98971 0.25603 0.0
H262 H 0.67881 0.94601 0.23267 0.0
O263 O 0.76582 0.90405 0.32269 0.0
O264 O 0.72761 0.84258 0.337 0.0
H265 H 0.59915 0.79148 0.28781 0.0
H266 H 0.55499 0.82724 0.27368 0.0
C267 C 0.58258 0.82641 0.28771 0.0
H268 H 0.56607 0.83221 0.30554 0.0
H269 H 0.66746 0.75451 0.3236 0.0
O270 O 0.74337 0.99795 0.29412 0.0
C271 C 0.76564 0.86382 0.33245 0.0
C272 C 0.06576 0.4066 0.27229 0.0
C273 C 0.10539 0.39478 0.25883 0.0
C274 C 0.06987 0.42977 0.29452 0.0
C275 C 0.11464 0.4423 0.30312 0.0
C276 C 0.15475 0.43053 0.28952 0.0
C277 C 0.14963 0.40635 0.26769 0.0
C278 C 0.02641 0.44099 0.30875 0.0
C279 C 0.20307 0.44383 0.29792 0.0
C280 C 0.12924 0.54203 0.34741 0.0
C281 C 0.1402 0.51815 0.3688 0.0
C282 C 0.11954 0.51772 0.32601 0.0
C283 C 0.11988 0.46837 0.32615 0.0
C284 C 0.12846 0.44407 0.34797 0.0
C285 C 0.13901 0.46926 0.369 0.0
C286 C 0.11121 0.54488 0.30302 0.0
C287 C 0.12802 0.39145 0.34892 0.0
H288 H 0.03149 0.39804 0.26533 0.0
H289 H 0.18033 0.39648 0.2575 0.0
H290 H 0.02919 0.42648 0.32729 0.0
H291 H 0.02262 0.47932 0.31053 0.0
H292 H 0.99444 0.42683 0.30011 0.0
H293 H 0.23052 0.43294 0.28494 0.0
H294 H 0.20531 0.48216 0.30041 0.0
H295 H 0.21044 0.42748 0.31569 0.0
H296 H 0.13018 0.57982 0.3471 0.0
H297 H 0.147 0.45061 0.38553 0.0
H298 H 0.07826 0.5335 0.29434 0.0
H299 H 0.13984 0.53788 0.29004 0.0
H300 H 0.10942 0.58306 0.30625 0.0
H301 H 0.09556 0.3777 0.34065 0.0
H302 H 0.13068 0.37803 0.36771 0.0
H303 H 0.15771 0.37752 0.33832 0.0
C304 C 0.98814 0.60961 0.61044 0.0
C305 C 0.99108 0.65327 0.62169 0.0
C306 C 0.01283 0.60042 0.5891 0.0
C307 C 0.03998 0.63623 0.57845 0.0
C308 C 0.04383 0.68008 0.59003 0.0
C309 C 0.01979 0.68786 0.61173 0.0
C310 C 0.00898 0.5528 0.57764 0.0
C311 C 0.0716 0.71944 0.57895 0.0
C312 C 0.12997 0.60754 0.53044 0.0
C313 C 0.10472 0.61547 0.50915 0.0
C314 C 0.1091 0.61324 0.55317 0.0
C315 C 0.06235 0.62865 0.55458 0.0
C316 C 0.03687 0.63725 0.53312 0.0
C317 C 0.05819 0.62983 0.51065 0.0
C318 C 0.13702 0.60272 0.57565 0.0
C319 C 0.98719 0.65457 0.53387 0.0
H320 H 0.96623 0.5827 0.61825 0.0
H321 H 0.02177 0.72179 0.6203 0.0
H322 H 0.99047 0.55554 0.5601 0.0
H323 H 0.04422 0.53862 0.57387 0.0
H324 H 0.98983 0.52768 0.58929 0.0
H325 H 0.07237 0.75088 0.59066 0.0
H326 H 0.10795 0.70817 0.5755 0.0
H327 H 0.05617 0.72916 0.56126 0.0
H328 H 0.16619 0.59707 0.52933 0.0
H329 H 0.0384 0.63527 0.4942 0.0
H330 H 0.11828 0.57681 0.58697 0.0
H331 H 0.14106 0.6348 0.58664 0.0
H332 H 0.17224 0.58889 0.5714 0.0
H333 H 0.96465 0.62861 0.54308 0.0
H334 H 0.97287 0.66119 0.51554 0.0
H335 H 0.98531 0.68737 0.54447 0.0
C336 C 0.85471 0.53292 0.87259 0.0
C337 C 0.85396 0.48402 0.87182 0.0
C338 C 0.86654 0.55916 0.85206 0.0
C339 C 0.877 0.53591 0.83017 0.0
C340 C 0.87794 0.48658 0.82952 0.0
C341 C 0.86682 0.46123 0.85042 0.0
C342 C 0.86621 0.61172 0.85356 0.0
C343 C 0.88839 0.46051 0.80644 0.0
C344 C 0.84976 0.59699 0.77111 0.0
C345 C 0.89436 0.60839 0.76267 0.0
C346 C 0.84366 0.57382 0.79318 0.0
C347 C 0.88313 0.56289 0.80745 0.0
C348 C 0.92817 0.57609 0.7995 0.0
C349 C 0.93329 0.59837 0.77705 0.0
C350 C 0.79506 0.56 0.80091 0.0
C351 C 0.97095 0.56583 0.81446 0.0
H352 H 0.8453 0.55078 0.88914 0.0
H353 H 0.86631 0.42346 0.84967 0.0
H354 H 0.89882 0.62629 0.84582 0.0
H355 H 0.83679 0.62567 0.84276 0.0
H356 H 0.8625 0.62428 0.87245 0.0
H357 H 0.89042 0.42222 0.80931 0.0
H358 H 0.86069 0.46771 0.79294 0.0
H359 H 0.92184 0.47266 0.79859 0.0
H360 H 0.81955 0.60577 0.76026 0.0
H361 H 0.96784 0.60704 0.7705 0.0
H362 H 0.78687 0.57544 0.81878 0.0
H363 H 0.79291 0.52155 0.8029 0.0
H364 H 0.76809 0.57137 0.78777 0.0
H365 H 0.96621 0.57894 0.83316 0.0
H366 H 0.0029 0.58187 0.8067 0.0
H367 H 0.97624 0.5276 0.81566 0.0
C368 C 0.93211 0.36203 0.011 0.0
C369 C 0.88606 0.37808 0.01011 0.0
C370 C 0.95452 0.35448 0.03317 0.0
C371 C 0.93074 0.36466 0.05496 0.0
C372 C 0.88442 0.38151 0.05418 0.0
C373 C 0.86235 0.38725 0.03174 0.0
C374 C 0.00362 0.33551 0.03327 0.0
C375 C 0.85832 0.39372 0.077 0.0
C376 C 0.97547 0.30669 0.11206 0.0
C377 C 0.00599 0.34075 0.12101 0.0
C378 C 0.95016 0.31426 0.09073 0.0
C379 C 0.95452 0.35744 0.07851 0.0
C380 C 0.9836 0.39278 0.08814 0.0
C381 C 0.00958 0.38374 0.1091 0.0
C382 C 0.92044 0.27531 0.0807 0.0
C383 C 0.98809 0.43975 0.076 0.0
H384 H 0.95083 0.35564 0.99433 0.0
H385 H 0.82645 0.39888 0.03113 0.0
H386 H 0.02766 0.36124 0.04157 0.0
H387 H 0.00524 0.30331 0.04437 0.0
H388 H 0.01635 0.32735 0.01479 0.0
H389 H 0.82319 0.40825 0.0732 0.0
H390 H 0.85425 0.36227 0.08848 0.0
H391 H 0.87847 0.41965 0.08761 0.0
H392 H 0.97299 0.27325 0.12113 0.0
H393 H 0.03291 0.41024 0.11612 0.0
H394 H 0.93435 0.26429 0.06288 0.0
H395 H 0.88424 0.28755 0.07774 0.0
H396 H 0.9195 0.24445 0.09285 0.0
H397 H 0.00527 0.43567 0.05818 0.0
H398 H 0.00879 0.46476 0.08696 0.0
H399 H 0.95306 0.45485 0.07271 0.0
C400 C 0.64409 0.09183 0.47876 0.0
C401 C 0.5995 0.1042 0.48681 0.0
C402 C 0.65037 0.0686 0.45675 0.0
C403 C 0.61115 0.05855 0.44212 0.0
C404 C 0.56612 0.07234 0.44976 0.0
C405 C 0.56076 0.09456 0.47221 0.0
C406 C 0.69891 0.05393 0.44942 0.0
C407 C 0.52362 0.06297 0.43443 0.0
C408 C 0.64099 0.02864 0.37714 0.0
C409 C 0.64012 0.97976 0.37778 0.0
C410 C 0.62928 0.05494 0.39765 0.0
C411 C 0.61746 0.03172 0.41941 0.0
C412 C 0.61527 0.98243 0.41995 0.0
C413 C 0.62618 0.95708 0.39907 0.0
C414 C 0.63092 0.10749 0.39626 0.0
C415 C 0.6036 0.95635 0.4429 0.0
H416 H 0.67419 0.10019 0.48976 0.0
H417 H 0.5262 0.10373 0.4785 0.0
H418 H 0.70023 0.01549 0.44724 0.0
H419 H 0.70812 0.0696 0.43172 0.0
H420 H 0.72566 0.06442 0.46288 0.0
H421 H 0.49172 0.07929 0.44202 0.0
H422 H 0.52915 0.07641 0.41584 0.0
H423 H 0.51772 0.02484 0.43299 0.0
H424 H 0.6513 0.04637 0.36067 0.0
H425 H 0.62558 0.91931 0.39975 0.0
H426 H 0.66015 0.12074 0.40745 0.0
H427 H 0.5983 0.12262 0.40363 0.0
H428 H 0.63577 0.12015 0.37745 0.0
H429 H 0.63101 0.96296 0.45664 0.0
H430 H 0.60091 0.91812 0.43996 0.0
H431 H 0.57015 0.96898 0.4505 0.0
C432 C 0.3813 0.16091 0.7254 0.0
C433 C 0.37317 0.11611 0.73458 0.0
C434 C 0.40431 0.16735 0.70328 0.0
C435 C 0.41799 0.12793 0.68963 0.0
C436 C 0.40727 0.08259 0.69812 0.0
C437 C 0.38556 0.07721 0.72069 0.0
C438 C 0.41583 0.21626 0.69508 0.0
C439 C 0.42017 0.03974 0.68379 0.0
C440 C 0.45378 0.15104 0.62451 0.0
C441 C 0.50251 0.15107 0.62642 0.0
C442 C 0.42565 0.14196 0.64478 0.0
C443 C 0.44686 0.13417 0.66754 0.0
C444 C 0.49607 0.13395 0.66948 0.0
C445 C 0.52326 0.14181 0.64884 0.0
C446 C 0.37333 0.14107 0.6419 0.0
C447 C 0.52006 0.12686 0.69351 0.0
H448 H 0.37062 0.19104 0.73583 0.0
H449 H 0.37953 0.04248 0.72776 0.0
H450 H 0.45424 0.22072 0.69423 0.0
H451 H 0.40204 0.22246 0.67664 0.0
H452 H 0.40135 0.24318 0.7074 0.0
H453 H 0.40419 0.00759 0.69136 0.0
H454 H 0.40896 0.04359 0.6647 0.0
H455 H 0.45859 0.03541 0.68377 0.0
H456 H 0.43767 0.15794 0.60715 0.0
H457 H 0.56091 0.1424 0.65047 0.0
H458 H 0.35754 0.17004 0.65232 0.0
H459 H 0.35899 0.10805 0.6493 0.0
H460 H 0.36248 0.1444 0.62271 0.0
H461 H 0.50911 0.15447 0.70635 0.0
H462 H 0.55866 0.1277 0.6919 0.0
H463 H 0.50967 0.09289 0.70145 0.0
C464 C 0.40691 0.87583 0.96563 0.0
C465 C 0.39771 0.89956 0.98725 0.0
C466 C 0.40233 0.89824 0.94321 0.0
C467 C 0.38632 0.94486 0.94239 0.0
C468 C 0.3775 0.96915 0.96419 0.0
C469 C 0.38425 0.94645 0.98636 0.0
C470 C 0.41348 0.87164 0.92039 0.0
C471 C 0.35923 0.01852 0.9641 0.0
C472 C 0.39569 0.0209 0.88633 0.0
C473 C 0.35142 0.01492 0.87609 0.0
C474 C 0.40845 0.99662 0.90737 0.0
C475 C 0.37544 0.96722 0.91883 0.0
C476 C 0.33086 0.96076 0.90836 0.0
C477 C 0.31971 0.98408 0.88688 0.0
C478 C 0.45688 0.00297 0.91752 0.0
C479 C 0.29419 0.93082 0.92039 0.0
H480 H 0.41675 0.83938 0.96618 0.0
H481 H 0.37809 0.9652 0.00305 0.0
H482 H 0.38087 0.86425 0.91033 0.0
H483 H 0.43617 0.89284 0.90841 0.0
H484 H 0.43115 0.838 0.92424 0.0
H485 H 0.35446 0.03256 0.98264 0.0
H486 H 0.38347 0.04173 0.95413 0.0
H487 H 0.32519 0.01971 0.95458 0.0
H488 H 0.42029 0.04459 0.87789 0.0
H489 H 0.28525 0.97987 0.87912 0.0
H490 H 0.47319 0.9685 0.92091 0.0
H491 H 0.45501 0.0214 0.9351 0.0
H492 H 0.47973 0.02332 0.90519 0.0
H493 H 0.30728 0.89476 0.92277 0.0
H494 H 0.26126 0.92943 0.90985 0.0
H495 H 0.28636 0.94476 0.93865 0.0
C496 C 0.58651 0.92238 0.2261 0.0
C497 C 0.60221 0.88309 0.23876 0.0
C498 C 0.56362 0.91777 0.20382 0.0
C499 C 0.55495 0.8727 0.19442 0.0
C500 C 0.57048 0.83289 0.20723 0.0
C501 C 0.59463 0.83864 0.22906 0.0
C502 C 0.54857 0.96106 0.19039 0.0
C503 C 0.56109 0.78418 0.19805 0.0
C504 C 0.45555 0.85557 0.15009 0.0
C505 C 0.47967 0.84862 0.12836 0.0
C506 C 0.47962 0.86403 0.17171 0.0
C507 C 0.52889 0.86689 0.17142 0.0
C508 C 0.5533 0.86195 0.14933 0.0
C509 C 0.52841 0.85219 0.12809 0.0
C510 C 0.45243 0.86805 0.19499 0.0
C511 C 0.60573 0.86614 0.1482 0.0
H512 H 0.59182 0.95678 0.23372 0.0
H513 H 0.60747 0.80825 0.23861 0.0
H514 H 0.56262 0.96052 0.1717 0.0
H515 H 0.51002 0.96198 0.18897 0.0
H516 H 0.56052 0.99352 0.19944 0.0
H517 H 0.57435 0.75693 0.21056 0.0
H518 H 0.52304 0.77897 0.1956 0.0
H519 H 0.57774 0.77927 0.18015 0.0
H520 H 0.41787 0.85255 0.15039 0.0
H521 H 0.54711 0.84725 0.11126 0.0
H522 H 0.46069 0.90143 0.20415 0.0
H523 H 0.46268 0.8395 0.20745 0.0
H524 H 0.41417 0.86618 0.19202 0.0
H525 H 0.61722 0.89911 0.15685 0.0
H526 H 0.61901 0.86537 0.12935 0.0
H527 H 0.62196 0.83705 0.15838 0.0
C528 C 0.27945 0.00206 0.12818 0.0
C529 C 0.25516 0.98114 0.10906 0.0
C530 C 0.26433 0.04441 0.13813 0.0
C531 C 0.22395 0.06613 0.12872 0.0
C532 C 0.19964 0.04536 0.10921 0.0
C533 C 0.21536 0.00287 0.09975 0.0
C534 C 0.29077 0.0652 0.15912 0.0
C535 C 0.15658 0.06764 0.0986 0.0
C536 C 0.15121 0.14714 0.16734 0.0
C537 C 0.16384 0.19103 0.15822 0.0
C538 C 0.17182 0.10631 0.1585 0.0
C539 C 0.20561 0.10939 0.13994 0.0
C540 C 0.2198 0.15361 0.13125 0.0
C541 C 0.19888 0.19399 0.14058 0.0
C542 C 0.15623 0.05977 0.16845 0.0
C543 C 0.25567 0.15818 0.11141 0.0
H544 H 0.30941 0.98464 0.13591 0.0
H545 H 0.19654 0.98659 0.085 0.0
H546 H 0.30047 0.10186 0.15511 0.0
H547 H 0.26818 0.06565 0.1754 0.0
H548 H 0.32296 0.04535 0.16341 0.0
H549 H 0.14306 0.04817 0.08272 0.0
H550 H 0.12871 0.06926 0.11248 0.0
H551 H 0.16432 0.10398 0.09298 0.0
H552 H 0.12446 0.14456 0.18112 0.0
H553 H 0.20883 0.22776 0.13342 0.0
H554 H 0.18683 0.03898 0.17426 0.0
H555 H 0.13813 0.03967 0.15412 0.0
H556 H 0.13218 0.06356 0.18406 0.0
H557 H 0.28771 0.13865 0.11622 0.0
H558 H 0.2652 0.1951 0.10782 0.0
H559 H 0.24181 0.14271 0.0945 0.0
C560 C 0.51399 0.7501 0.38732 0.0
C561 C 0.52892 0.73595 0.36437 0.0
C562 C 0.47257 0.73257 0.3973 0.0
C563 C 0.44546 0.70044 0.38389 0.0
C564 C 0.46096 0.68537 0.36088 0.0
C565 C 0.50284 0.70302 0.35149 0.0
C566 C 0.45754 0.74882 0.42205 0.0
C567 C 0.43276 0.6515 0.34594 0.0
C568 C 0.35398 0.62525 0.41467 0.0
C569 C 0.31284 0.64948 0.40915 0.0
C570 C 0.39758 0.64199 0.40706 0.0
C571 C 0.40004 0.68375 0.39347 0.0
C572 C 0.35882 0.70888 0.38829 0.0
C573 C 0.31576 0.69156 0.39626 0.0
C574 C 0.4409 0.61453 0.41313 0.0
C575 C 0.36006 0.75348 0.37375 0.0
H576 H 0.53484 0.77476 0.3975 0.0
H577 H 0.51455 0.69205 0.33376 0.0
H578 H 0.4239 0.76767 0.42071 0.0
H579 H 0.45186 0.71838 0.43409 0.0
H580 H 0.48363 0.77231 0.43055 0.0
H581 H 0.45019 0.64256 0.32863 0.0
H582 H 0.42666 0.61889 0.35626 0.0
H583 H 0.39811 0.66674 0.34184 0.0
H584 H 0.35213 0.59282 0.42471 0.0
H585 H 0.28424 0.71058 0.3919 0.0
H586 H 0.46676 0.63729 0.42226 0.0
H587 H 0.45732 0.60159 0.39627 0.0
H588 H 0.43333 0.5842 0.42501 0.0
H589 H 0.38376 0.7791 0.3824 0.0
H590 H 0.32503 0.76956 0.37188 0.0
H591 H 0.374 0.74632 0.35542 0.0
C592 C 0.78487 0.00243 0.61299 0.0
C593 C 0.73689 0.01177 0.61285 0.0
C594 C 0.80232 0.96049 0.62234 0.0
C595 C 0.77113 0.92745 0.63236 0.0
C596 C 0.72272 0.93673 0.63254 0.0
C597 C 0.70609 0.97819 0.62218 0.0
C598 C 0.8541 0.95123 0.6211 0.0
C599 C 0.68844 0.90271 0.64347 0.0
C600 C 0.8132 0.80222 0.63602 0.0
C601 C 0.83228 0.80095 0.6593 0.0
C602 C 0.79248 0.84304 0.6271 0.0
C603 C 0.78938 0.88281 0.64218 0.0
C604 C 0.80633 0.88073 0.66619 0.0
C605 C 0.82848 0.84005 0.67431 0.0
C606 C 0.77621 0.84433 0.60115 0.0
C607 C 0.8021 0.92183 0.68308 0.0
H608 H 0.80892 0.0278 0.6055 0.0
H609 H 0.66886 0.98345 0.62091 0.0
H610 H 0.8684 0.94684 0.63958 0.0
H611 H 0.86067 0.91827 0.61117 0.0
H612 H 0.87344 0.97985 0.61199 0.0
H613 H 0.65249 0.91702 0.64411 0.0
H614 H 0.68788 0.87006 0.63275 0.0
H615 H 0.69932 0.89338 0.6621 0.0
H616 H 0.81668 0.77206 0.62436 0.0
H617 H 0.84306 0.83884 0.69238 0.0
H618 H 0.79713 0.87026 0.59091 0.0
H619 H 0.7393 0.85556 0.60017 0.0
H620 H 0.77953 0.80991 0.59212 0.0
H621 H 0.82452 0.9508 0.67661 0.0
H622 H 0.81258 0.91291 0.70185 0.0
H623 H 0.76566 0.93478 0.6833 0.0
C624 C 0.50899 0.25642 0.84732 0.0
C625 C 0.46852 0.25526 0.86137 0.0
C626 C 0.5505 0.27507 0.85664 0.0
C627 C 0.55147 0.29187 0.88072 0.0
C628 C 0.51061 0.28993 0.89506 0.0
C629 C 0.46932 0.27213 0.88505 0.0
C630 C 0.59307 0.2774 0.84063 0.0
C631 C 0.51059 0.30646 0.92096 0.0
C632 C 0.67128 0.30117 0.90944 0.0
C633 C 0.67995 0.34916 0.90782 0.0
C634 C 0.6289 0.28222 0.90142 0.0
C635 C 0.5952 0.31183 0.89077 0.0
C636 C 0.6038 0.36037 0.88914 0.0
C637 C 0.64584 0.37857 0.89806 0.0
C638 C 0.62038 0.23051 0.90413 0.0
C639 C 0.56925 0.39286 0.87731 0.0
H640 H 0.50787 0.24339 0.82894 0.0
H641 H 0.43772 0.27091 0.89579 0.0
H642 H 0.60529 0.31403 0.83913 0.0
H643 H 0.62187 0.25692 0.84873 0.0
H644 H 0.58616 0.2638 0.82218 0.0
H645 H 0.47635 0.30094 0.92991 0.0
H646 H 0.53777 0.2877 0.93139 0.0
H647 H 0.51925 0.34414 0.9217 0.0
H648 H 0.6976 0.27847 0.91713 0.0
H649 H 0.65278 0.41564 0.89657 0.0
H650 H 0.61744 0.2141 0.88605 0.0
H651 H 0.58693 0.22431 0.91369 0.0
H652 H 0.64877 0.21288 0.91427 0.0
H653 H 0.56357 0.38216 0.85827 0.0
H654 H 0.58121 0.42972 0.87753 0.0
H655 H 0.53509 0.3907 0.88663 0.0
C656 C 0.70071 0.2988 0.60291 0.0
C657 C 0.66045 0.30268 0.58863 0.0
C658 C 0.72342 0.33863 0.61184 0.0
C659 C 0.70556 0.38334 0.60626 0.0
C660 C 0.66609 0.38755 0.59108 0.0
C661 C 0.64399 0.3472 0.58249 0.0
C662 C 0.76549 0.33282 0.62796 0.0
C663 C 0.64619 0.43466 0.58459 0.0
C664 C 0.72579 0.48384 0.64951 0.0
C665 C 0.76118 0.50881 0.6378 0.0
C666 C 0.70824 0.44231 0.63972 0.0
C667 C 0.72616 0.42569 0.6175 0.0
C668 C 0.76213 0.45062 0.60563 0.0
C669 C 0.77915 0.49204 0.61591 0.0
C670 C 0.66996 0.41663 0.65296 0.0
C671 C 0.78179 0.4342 0.58181 0.0
H672 H 0.71378 0.26459 0.60773 0.0
H673 H 0.61313 0.35064 0.57133 0.0
H674 H 0.79492 0.35429 0.62118 0.0
H675 H 0.75712 0.34531 0.64643 0.0
H676 H 0.77702 0.29593 0.62915 0.0
H677 H 0.61735 0.43205 0.57126 0.0
H678 H 0.6327 0.45193 0.6011 0.0
H679 H 0.67382 0.45746 0.577 0.0
H680 H 0.71181 0.49682 0.66642 0.0
H681 H 0.80554 0.51197 0.60643 0.0
H682 H 0.68055 0.38001 0.65635 0.0
H683 H 0.63803 0.41564 0.64165 0.0
H684 H 0.66122 0.43319 0.67053 0.0
H685 H 0.79367 0.39752 0.58333 0.0
H686 H 0.81152 0.45603 0.57564 0.0
H687 H 0.75418 0.43515 0.56778 0.0
C688 C 0.18056 0.20585 0.84451 0.0
C689 C 0.18456 0.15719 0.8437 0.0
C690 C 0.1391 0.227 0.85239 0.0
C691 C 0.10152 0.19869 0.86024 0.0
C692 C 0.10593 0.14956 0.85998 0.0
C693 C 0.14716 0.12942 0.8514 0.0
C694 C 0.13515 0.27947 0.85187 0.0
C695 C 0.06709 0.1182 0.86876 0.0
C696 C 0.00669 0.24861 0.9004 0.0
C697 C 0.96962 0.25211 0.88409 0.0
C698 C 0.05034 0.23215 0.8928 0.0
C699 C 0.05698 0.22003 0.86822 0.0
C700 C 0.01987 0.22516 0.85156 0.0
C701 C 0.97631 0.24048 0.85981 0.0
C702 C 0.08869 0.22599 0.91121 0.0
C703 C 0.0259 0.21358 0.82513 0.0
H704 H 0.20943 0.22734 0.83847 0.0
H705 H 0.15041 0.09176 0.85107 0.0
H706 H 0.10592 0.28991 0.8399 0.0
H707 H 0.12713 0.29285 0.87021 0.0
H708 H 0.16761 0.29648 0.84533 0.0
H709 H 0.07708 0.08079 0.86856 0.0
H710 H 0.05701 0.12788 0.88745 0.0
H711 H 0.03584 0.12273 0.85719 0.0
H712 H 0.00103 0.25719 0.91925 0.0
H713 H 0.94743 0.24357 0.84726 0.0
H714 H 0.12067 0.24452 0.90529 0.0
H715 H 0.09758 0.18847 0.91279 0.0
H716 H 0.07856 0.23913 0.92934 0.0
H717 H 0.05701 0.23171 0.81775 0.0
H718 H 0.99498 0.22358 0.81421 0.0
H719 H 0.03175 0.17558 0.82298 0.0
C720 C 0.29644 0.68819 0.09633 0.0
C721 C 0.33873 0.68798 0.08354 0.0
C722 C 0.27607 0.64657 0.10446 0.0
C723 C 0.29824 0.6036 0.0995 0.0
C724 C 0.33977 0.6029 0.08568 0.0
C725 C 0.35966 0.64512 0.07795 0.0
C726 C 0.23188 0.64878 0.11926 0.0
C727 C 0.36409 0.55765 0.07978 0.0
C728 C 0.27786 0.5043 0.14355 0.0
C729 C 0.24382 0.478 0.13157 0.0
C730 C 0.29576 0.54528 0.13329 0.0
C731 C 0.27977 0.55984 0.11029 0.0
C732 C 0.24588 0.53299 0.09791 0.0
C733 C 0.22821 0.49234 0.10875 0.0
C734 C 0.33151 0.5732 0.14718 0.0
C735 C 0.22851 0.5471 0.07322 0.0
H736 H 0.27989 0.72106 0.10072 0.0
H737 H 0.39214 0.64454 0.06794 0.0
H738 H 0.20501 0.62528 0.11152 0.0
H739 H 0.23906 0.63658 0.13793 0.0
H740 H 0.21738 0.68463 0.1202 0.0
H741 H 0.39361 0.56271 0.06705 0.0
H742 H 0.37773 0.54172 0.09663 0.0
H743 H 0.33911 0.5325 0.07173 0.0
H744 H 0.29002 0.49313 0.16118 0.0
H745 H 0.20283 0.47132 0.09917 0.0
H746 H 0.31831 0.60902 0.15038 0.0
H747 H 0.36404 0.57639 0.13646 0.0
H748 H 0.34012 0.55714 0.1649 0.0
H749 H 0.21249 0.58224 0.07408 0.0
H750 H 0.20237 0.52219 0.06593 0.0
H751 H 0.25818 0.54927 0.0604 0.0
C752 C 0.85273 0.85948 0.33065 0.0
C753 C 0.8104 0.84241 0.33979 0.0
C754 C 0.89549 0.84121 0.33852 0.0
C755 C 0.89591 0.80558 0.35623 0.0
C756 C 0.85331 0.78775 0.36529 0.0
C757 C 0.81105 0.80612 0.35681 0.0
C758 C 0.94022 0.86052 0.32814 0.0
C759 C 0.85239 0.75013 0.38439 0.0
C760 C 0.0047 0.73201 0.36457 0.0
C761 C 0.02596 0.75407 0.38429 0.0
C762 C 0.96246 0.74857 0.35512 0.0
C763 C 0.94093 0.78785 0.36581 0.0
C764 C 0.96239 0.81028 0.38572 0.0
C765 C 0.00499 0.79339 0.39455 0.0
C766 C 0.94109 0.7243 0.33358 0.0
C767 C 0.94018 0.85189 0.39781 0.0
H768 H 0.8525 0.8873 0.31738 0.0
H769 H 0.77851 0.7929 0.36407 0.0
H770 H 0.96079 0.87763 0.34261 0.0
H771 H 0.96184 0.83182 0.32076 0.0
H772 H 0.93382 0.88637 0.31355 0.0
H773 H 0.81633 0.73938 0.38918 0.0
H774 H 0.87175 0.71901 0.37805 0.0
H775 H 0.87008 0.76279 0.40098 0.0
H776 H 0.02157 0.70233 0.35622 0.0
H777 H 0.02159 0.81046 0.40978 0.0
H778 H 0.93702 0.74937 0.31845 0.0
H779 H 0.90579 0.71128 0.33824 0.0
H780 H 0.9625 0.69444 0.32726 0.0
H781 H 0.9361 0.8807 0.38459 0.0
H782 H 0.96099 0.86483 0.41336 0.0
H783 H 0.90479 0.84254 0.40434 0.0
C784 C 0.80516 0.10828 0.30182 0.0
C785 C 0.78437 0.06997 0.29032 0.0
C786 C 0.83151 0.14086 0.28867 0.0
C787 C 0.83721 0.1349 0.26345 0.0
C788 C 0.81493 0.09725 0.25161 0.0
C789 C 0.78874 0.06527 0.26518 0.0
C790 C 0.85462 0.1807 0.3019 0.0
C791 C 0.82017 0.08973 0.22473 0.0
C792 C 0.88331 0.23461 0.22488 0.0
C793 C 0.93043 0.22242 0.2225 0.0
C794 C 0.8525 0.20674 0.23838 0.0
C795 C 0.86931 0.16583 0.24973 0.0
C796 C 0.91691 0.15365 0.24759 0.0
C797 C 0.94685 0.18206 0.23402 0.0
C798 C 0.80193 0.22077 0.24031 0.0
C799 C 0.93619 0.1103 0.25946 0.0
H800 H 0.80175 0.11232 0.32121 0.0
H801 H 0.77257 0.03594 0.2561 0.0
H802 H 0.89304 0.17645 0.30123 0.0
H803 H 0.84625 0.21433 0.293 0.0
H804 H 0.84371 0.1826 0.32114 0.0
H805 H 0.79793 0.06076 0.21802 0.0
H806 H 0.81099 0.12199 0.21475 0.0
H807 H 0.85706 0.08157 0.22045 0.0
H808 H 0.87036 0.26578 0.21607 0.0
H809 H 0.98324 0.17243 0.23239 0.0
H810 H 0.79185 0.22423 0.25958 0.0
H811 H 0.77949 0.19327 0.23232 0.0
H812 H 0.79464 0.25426 0.23095 0.0
H813 H 0.9297 0.1114 0.27921 0.0
H814 H 0.97424 0.10623 0.25639 0.0
H815 H 0.91813 0.07899 0.2523 0.0
C816 C 0.44018 0.30851 0.51256 0.0
C817 C 0.42345 0.27177 0.5269 0.0
C818 C 0.40969 0.33626 0.49901 0.0
C819 C 0.36121 0.32721 0.49987 0.0
C820 C 0.34405 0.28988 0.51408 0.0
C821 C 0.37543 0.26248 0.52741 0.0
C822 C 0.42936 0.37564 0.48397 0.0
C823 C 0.29254 0.27934 0.51545 0.0
C824 C 0.28517 0.43041 0.48352 0.0
C825 C 0.27535 0.42162 0.4591 0.0
C826 C 0.31164 0.39905 0.49726 0.0
C827 C 0.32868 0.35787 0.48633 0.0
C828 C 0.3174 0.34786 0.46198 0.0
C829 C 0.29084 0.37989 0.44863 0.0
C830 C 0.32284 0.41088 0.52322 0.0
C831 C 0.33484 0.30418 0.44975 0.0
H832 H 0.47726 0.31573 0.51192 0.0
H833 H 0.36226 0.23413 0.53844 0.0
H834 H 0.41869 0.3715 0.46482 0.0
H835 H 0.41516 0.40941 0.49037 0.0
H836 H 0.46803 0.37728 0.48478 0.0
H837 H 0.28495 0.24821 0.52675 0.0
H838 H 0.27376 0.30968 0.52316 0.0
H839 H 0.27836 0.27338 0.49706 0.0
H840 H 0.27304 0.4624 0.49183 0.0
H841 H 0.28319 0.3727 0.42982 0.0
H842 H 0.36086 0.41705 0.52513 0.0
H843 H 0.31363 0.38128 0.53523 0.0
H844 H 0.30407 0.44246 0.52953 0.0
H845 H 0.37338 0.30563 0.44819 0.0
H846 H 0.31988 0.29967 0.43138 0.0
H847 H 0.3261 0.27303 0.46076 0.0
C848 C 0.07574 0.8167 0.71428 0.0
C849 C 0.07163 0.76982 0.72107 0.0
C850 C 0.10919 0.84574 0.72497 0.0
C851 C 0.13832 0.82774 0.74339 0.0
C852 C 0.1346 0.78025 0.75019 0.0
C853 C 0.10162 0.75162 0.73868 0.0
C854 C 0.11278 0.89591 0.71683 0.0
C855 C 0.16426 0.76017 0.77017 0.0
C856 C 0.24593 0.89835 0.75988 0.0
C857 C 0.22876 0.926 0.77873 0.0
C858 C 0.21711 0.86551 0.74838 0.0
C859 C 0.17059 0.85955 0.75641 0.0
C860 C 0.15382 0.88613 0.77612 0.0
C861 C 0.18293 0.9195 0.78681 0.0
C862 C 0.23582 0.83856 0.72706 0.0
C863 C 0.10478 0.88006 0.78558 0.0
H864 H 0.05285 0.83067 0.70047 0.0
H865 H 0.09822 0.7154 0.74404 0.0
H866 H 0.10239 0.9194 0.73181 0.0
H867 H 0.14938 0.90448 0.71206 0.0
H868 H 0.09025 0.90336 0.70097 0.0
H869 H 0.15841 0.72216 0.77263 0.0
H870 H 0.20173 0.76619 0.76632 0.0
H871 H 0.15619 0.77813 0.78743 0.0
H872 H 0.2813 0.90362 0.75353 0.0
H873 H 0.16979 0.9406 0.80157 0.0
H874 H 0.21596 0.84803 0.71056 0.0
H875 H 0.23106 0.80058 0.72995 0.0
H876 H 0.27337 0.84565 0.72378 0.0
H877 H 0.07938 0.89143 0.77167 0.0
H878 H 0.09853 0.90053 0.8023 0.0
H879 H 0.09776 0.84274 0.78944 0.0
C880 C 0.73242 0.62369 0.96464 0.0
C881 C 0.72875 0.57544 0.96835 0.0
C882 C 0.7053 0.65501 0.97814 0.0
C883 C 0.67388 0.63755 0.99569 0.0
C884 C 0.67099 0.58899 -5e-05 0.0
C885 C 0.69847 0.55855 0.98625 0.0
C886 C 0.70936 0.70664 0.97319 0.0
C887 C 0.63794 0.56904 0.01855 0.0
C888 C 0.62274 0.71497 0.04454 0.0
C889 C 0.57779 0.72306 0.03549 0.0
C890 C 0.65505 0.68835 0.03143 0.0
C891 C 0.64205 0.66957 0.00876 0.0
C892 C 0.59727 0.6789 0.9992 0.0
C893 C 0.56569 0.70549 0.01269 0.0
C894 C 0.70254 0.6791 0.04217 0.0
C895 C 0.58218 0.65958 0.97504 0.0
H896 H 0.75587 0.63702 0.95091 0.0
H897 H 0.69564 0.52133 0.98937 0.0
H898 H 0.67591 0.71989 0.96585 0.0
H899 H 0.7163 0.72579 0.99023 0.0
H900 H 0.73754 0.71478 0.96008 0.0
H901 H 0.64153 0.53064 0.02045 0.0
H902 H 0.64425 0.58537 0.03642 0.0
H903 H 0.60145 0.577 0.01335 0.0
H904 H 0.6324 0.72856 0.06212 0.0
H905 H 0.53117 0.71194 0.00545 0.0
H906 H 0.73025 0.68838 0.02903 0.0
H907 H 0.70617 0.64137 0.04619 0.0
H908 H 0.70844 0.699 0.05911 0.0
H909 H 0.60774 0.66927 0.96084 0.0
H910 H 0.54722 0.67238 0.96953 0.0
H911 H 0.58109 0.62094 0.9759 0.0
loop_
_geom_bond_atom_site_label_1
_geom_bond_atom_site_label_2
_geom_bond_distance
_geom_bond_site_symmetry_2
_ccdc_geom_bond_type
Co0 O3 1.970 . S
Co0 N17 1.989 . S
Co0 O25 1.967 . S
Co0 O32 1.920 . S
Co1 O4 1.966 . S
Co1 N10 2.022 . S
Co1 N18 1.993 . S
Co1 O26 1.941 . S
C2 O3 1.258 . S
C2 O4 1.263 . S
O3 Co0 1.970 . S
O3 C2 1.258 . S
O4 Co1 1.966 . S
O4 C2 1.263 . S
C5 O6 1.235 . S
C5 O32 1.289 1_655 S
O6 C5 1.235 . S
C7 C9 1.400 . S
C7 N10 1.351 . S
C7 C12 1.501 . S
C8 C9 1.387 . S
C8 N11 1.341 . S
C9 C7 1.400 . S
C9 C8 1.387 . S
N10 Co1 2.022 . S
N10 C7 1.351 . S
N10 N11 1.365 . S
N11 C8 1.341 . S
N11 N10 1.365 . S
N11 H31 0.862 . S
C12 C7 1.501 . S
C12 H13 0.961 . S
C12 H14 0.961 . S
C12 H15 0.960 . S
H13 C12 0.961 . S
H14 C12 0.961 . S
H15 C12 0.960 . S
C16 N17 1.342 . S
C16 C20 1.401 . S
C16 C21 1.499 . S
N17 Co0 1.989 . S
N17 C16 1.342 . S
N17 N18 1.388 . S
N18 Co1 1.993 . S
N18 N17 1.388 . S
N18 C19 1.346 . S
C19 N18 1.346 . S
C19 C20 1.396 . S
C19 C29 1.510 . S
C20 C16 1.401 . S
C20 C19 1.396 . S
C21 C16 1.499 . S
C21 H22 0.959 . S
C21 H23 0.960 . S
C21 H24 0.961 . S
H22 C21 0.959 . S
H23 C21 0.960 . S
H24 C21 0.961 . S
O25 Co0 1.967 . S
O25 C33 1.258 . S
O26 Co1 1.941 . S
O26 C33 1.266 . S
H27 C29 0.959 . S
H28 C29 0.961 . S
C29 C19 1.510 . S
C29 H27 0.959 . S
C29 H28 0.961 . S
C29 H30 0.960 . S
H30 C29 0.960 . S
H31 N11 0.862 . S
O32 Co0 1.920 . S
O32 C5 1.289 1_455 S
C33 O25 1.258 . S
C33 O26 1.266 . S
Co34 O37 1.970 . S
Co34 N51 1.989 . S
Co34 O59 1.967 . S
Co34 O66 1.920 . S
Co35 O38 1.966 . S
Co35 N44 2.022 . S
Co35 N52 1.993 . S
Co35 O60 1.941 . S
C36 O37 1.258 . S
C36 O38 1.263 . S
O37 Co34 1.970 . S
O37 C36 1.258 . S
O38 Co35 1.966 . S
O38 C36 1.263 . S
C39 O40 1.235 . S
C39 O66 1.289 . S
O40 C39 1.235 . S
C41 C43 1.400 . S
C41 N44 1.351 . S
C41 C46 1.501 . S
C42 C43 1.387 . S
C42 N45 1.341 . S
C43 C41 1.400 . S
C43 C42 1.387 . S
N44 Co35 2.022 . S
N44 C41 1.351 . S
N44 N45 1.365 . S
N45 C42 1.341 . S
N45 N44 1.365 . S
N45 H65 0.862 . S
C46 C41 1.501 . S
C46 H47 0.961 . S
C46 H48 0.961 . S
C46 H49 0.960 . S
H47 C46 0.961 . S
H48 C46 0.961 . S
H49 C46 0.960 . S
C50 N51 1.342 . S
C50 C54 1.401 . S
C50 C55 1.499 . S
N51 Co34 1.989 . S
N51 C50 1.342 . S
N51 N52 1.388 . S
N52 Co35 1.993 . S
N52 N51 1.388 . S
N52 C53 1.346 . S
C53 N52 1.346 . S
C53 C54 1.396 . S
C53 C63 1.510 . S
C54 C50 1.401 . S
C54 C53 1.396 . S
C55 C50 1.499 . S
C55 H56 0.959 . S
C55 H57 0.960 . S
C55 H58 0.961 . S
H56 C55 0.959 . S
H57 C55 0.960 . S
H58 C55 0.961 . S
O59 Co34 1.967 . S
O59 C67 1.258 . S
O60 Co35 1.941 . S
O60 C67 1.266 . S
H61 C63 0.959 . S
H62 C63 0.961 . S
C63 C53 1.510 . S
C63 H61 0.959 . S
C63 H62 0.961 . S
C63 H64 0.960 . S
H64 C63 0.960 . S
H65 N45 0.862 . S
O66 Co34 1.920 . S
O66 C39 1.289 . S
C67 O59 1.258 . S
C67 O60 1.266 . S
Co68 O71 1.970 . S
Co68 N85 1.989 . S
Co68 O93 1.967 . S
Co68 O100 1.920 . S
Co69 O72 1.966 . S
Co69 N78 2.022 . S
Co69 N86 1.993 . S
Co69 O94 1.941 . S
C70 O71 1.258 . S
C70 O72 1.263 . S
O71 Co68 1.970 . S
O71 C70 1.258 . S
O72 Co69 1.966 . S
O72 C70 1.263 . S
C73 O74 1.235 . S
C73 O100 1.289 1_455 S
O74 C73 1.235 . S
C75 C77 1.400 . S
C75 N78 1.351 . S
C75 C80 1.501 . S
C76 C77 1.387 . S
C76 N79 1.341 . S
C77 C75 1.400 . S
C77 C76 1.387 . S
N78 Co69 2.022 . S
N78 C75 1.351 . S
N78 N79 1.365 . S
N79 C76 1.341 . S
N79 N78 1.365 . S
N79 H99 0.862 . S
C80 C75 1.501 . S
C80 H81 0.961 . S
C80 H82 0.961 . S
C80 H83 0.960 . S
H81 C80 0.961 . S
H82 C80 0.961 . S
H83 C80 0.960 . S
C84 N85 1.342 . S
C84 C88 1.401 . S
C84 C89 1.499 . S
N85 Co68 1.989 . S
N85 C84 1.342 . S
N85 N86 1.388 . S
N86 Co69 1.993 . S
N86 N85 1.388 . S
N86 C87 1.346 . S
C87 N86 1.346 . S
C87 C88 1.396 . S
C87 C97 1.510 . S
C88 C84 1.401 . S
C88 C87 1.396 . S
C89 C84 1.499 . S
C89 H90 0.959 . S
C89 H91 0.960 . S
C89 H92 0.961 . S
H90 C89 0.959 . S
H91 C89 0.960 . S
H92 C89 0.961 . S
O93 Co68 1.967 . S
O93 C101 1.258 . S
O94 Co69 1.941 . S
O94 C101 1.266 . S
H95 C97 0.959 . S
H96 C97 0.961 . S
C97 C87 1.510 . S
C97 H95 0.959 . S
C97 H96 0.961 . S
C97 H98 0.960 . S
H98 C97 0.960 . S
H99 N79 0.862 . S
O100 Co68 1.920 . S
O100 C73 1.289 1_655 S
C101 O93 1.258 . S
C101 O94 1.266 . S
Co102 O105 1.970 . S
Co102 N119 1.989 . S
Co102 O127 1.967 . S
Co102 O134 1.920 . S
Co103 O106 1.966 . S
Co103 N112 2.022 . S
Co103 N120 1.993 . S
Co103 O128 1.941 . S
C104 O105 1.258 . S
C104 O106 1.263 . S
O105 Co102 1.970 . S
O105 C104 1.258 . S
O106 Co103 1.966 . S
O106 C104 1.263 . S
C107 O108 1.235 . S
C107 O134 1.289 . S
O108 C107 1.235 . S
C109 C111 1.400 . S
C109 N112 1.351 . S
C109 C114 1.501 . S
C110 C111 1.387 . S
C110 N113 1.341 . S
C111 C109 1.400 . S
C111 C110 1.387 . S
N112 Co103 2.022 . S
N112 C109 1.351 . S
N112 N113 1.365 . S
N113 C110 1.341 . S
N113 N112 1.365 . S
N113 H133 0.862 . S
C114 C109 1.501 . S
C114 H115 0.961 . S
C114 H116 0.961 . S
C114 H117 0.960 . S
H115 C114 0.961 . S
H116 C114 0.961 . S
H117 C114 0.960 . S
C118 N119 1.342 . S
C118 C122 1.401 . S
C118 C123 1.471 1_556 S
N119 Co102 1.989 . S
N119 C118 1.342 . S
N119 N120 1.388 . S
N120 Co103 1.993 . S
N120 N119 1.388 . S
N120 C121 1.346 . S
C121 N120 1.346 . S
C121 C122 1.396 . S
C121 C131 1.510 . S
C122 C118 1.401 . S
C122 C121 1.396 . S
C123 C118 1.471 1_554 S
C123 H124 0.933 1_554 S
C123 H125 0.983 . S
C123 H126 0.994 . S
H124 C123 0.933 1_556 S
H125 C123 0.983 . S
H126 C123 0.994 . S
O127 Co102 1.967 . S
O127 C135 1.258 . S
O128 Co103 1.941 . S
O128 C135 1.266 . S
H129 C131 0.959 . S
H130 C131 0.961 . S
C131 C121 1.510 . S
C131 H129 0.959 . S
C131 H130 0.961 . S
C131 H132 0.960 . S
H132 C131 0.960 . S
H133 N113 0.862 . S
O134 Co102 1.920 . S
O134 C107 1.289 . S
C135 O127 1.258 . S
C135 O128 1.266 . S
Co136 O139 1.970 . S
Co136 N153 1.989 . S
Co136 O161 1.967 . S
Co136 O168 1.920 . S
Co137 O140 1.966 . S
Co137 N146 2.022 . S
Co137 N154 1.993 . S
Co137 O162 1.941 . S
C138 O139 1.258 . S
C138 O140 1.263 . S
O139 Co136 1.970 . S
O139 C138 1.258 . S
O140 Co137 1.966 . S
O140 C138 1.263 . S
C141 O142 1.235 . S
C141 O168 1.289 . S
O142 C141 1.235 . S
C143 C145 1.400 . S
C143 N146 1.351 . S
C143 C148 1.501 . S
C144 C145 1.387 . S
C144 N147 1.341 . S
C145 C143 1.400 . S
C145 C144 1.387 . S
N146 Co137 2.022 . S
N146 C143 1.351 . S
N146 N147 1.365 . S
N147 C144 1.341 . S
N147 N146 1.365 . S
N147 H167 0.862 . S
C148 C143 1.501 . S
C148 H149 0.961 . S
C148 H150 0.961 . S
C148 H151 0.960 . S
H149 C148 0.961 . S
H150 C148 0.961 . S
H151 C148 0.960 . S
C152 N153 1.342 . S
C152 C156 1.401 . S
C152 C157 1.499 . S
N153 Co136 1.989 . S
N153 C152 1.342 . S
N153 N154 1.388 . S
N154 Co137 1.993 . S
N154 N153 1.388 . S
N154 C155 1.346 . S
C155 N154 1.346 . S
C155 C156 1.396 . S
C155 C165 1.510 . S
C156 C152 1.401 . S
C156 C155 1.396 . S
C157 C152 1.499 . S
C157 H158 0.959 . S
C157 H159 0.960 . S
C157 H160 0.961 . S
H158 C157 0.959 . S
H159 C157 0.960 . S
H160 C157 0.961 . S
O161 Co136 1.967 . S
O161 C169 1.258 . S
O162 Co137 1.941 . S
O162 C169 1.266 . S
H163 C165 0.959 . S
H164 C165 0.961 . S
C165 C155 1.510 . S
C165 H163 0.959 . S
C165 H164 0.961 . S
C165 H166 0.960 . S
H166 C165 0.960 . S
H167 N147 0.862 . S
O168 Co136 1.920 . S
O168 C141 1.289 . S
C169 O161 1.258 . S
C169 O162 1.266 . S
Co170 O173 1.970 . S
Co170 N187 1.989 . S
Co170 O195 1.967 . S
Co170 O202 1.920 . S
Co171 O174 1.966 . S
Co171 N180 2.022 . S
Co171 N188 1.993 . S
Co171 O196 1.941 . S
C172 O173 1.258 . S
C172 O174 1.263 . S
O173 Co170 1.970 . S
O173 C172 1.258 . S
O174 Co171 1.966 . S
O174 C172 1.263 . S
C175 O176 1.235 . S
C175 O202 1.289 1_565 S
O176 C175 1.235 . S
C177 C179 1.400 . S
C177 N180 1.351 . S
C177 C182 1.501 . S
C178 C179 1.387 . S
C178 N181 1.341 . S
C179 C177 1.400 . S
C179 C178 1.387 . S
N180 Co171 2.022 . S
N180 C177 1.351 . S
N180 N181 1.365 . S
N181 C178 1.341 . S
N181 N180 1.365 . S
N181 H201 0.862 . S
C182 C177 1.501 . S
C182 H183 0.961 . S
C182 H184 0.961 . S
C182 H185 0.960 . S
H183 C182 0.961 . S
H184 C182 0.961 . S
H185 C182 0.960 . S
C186 N187 1.342 . S
C186 C190 1.401 . S
C186 C191 1.499 . S
N187 Co170 1.989 . S
N187 C186 1.342 . S
N187 N188 1.388 . S
N188 Co171 1.993 . S
N188 N187 1.388 . S
N188 C189 1.346 . S
C189 N188 1.346 . S
C189 C190 1.396 . S
C189 C199 1.510 . S
C190 C186 1.401 . S
C190 C189 1.396 . S
C191 C186 1.499 . S
C191 H192 0.959 . S
C191 H193 0.960 . S
C191 H194 0.961 . S
H192 C191 0.959 . S
H193 C191 0.960 . S
H194 C191 0.961 . S
O195 Co170 1.967 . S
O195 C203 1.258 . S
O196 Co171 1.941 . S
O196 C203 1.266 . S
H197 C199 0.959 . S
H198 C199 0.961 . S
C199 C189 1.510 . S
C199 H197 0.959 . S
C199 H198 0.961 . S
C199 H200 0.960 . S
H200 C199 0.960 . S
H201 N181 0.862 . S
O202 Co170 1.920 . S
O202 C175 1.289 1_545 S
C203 O195 1.258 . S
C203 O196 1.266 . S
Co204 O207 1.970 . S
Co204 N221 1.989 . S
Co204 O229 1.967 . S
Co204 O236 1.920 . S
Co205 O208 1.966 . S
Co205 N214 2.022 . S
Co205 N222 1.993 . S
Co205 O230 1.941 . S
C206 O207 1.258 . S
C206 O208 1.263 . S
O207 Co204 1.970 . S
O207 C206 1.258 . S
O208 Co205 1.966 . S
O208 C206 1.263 . S
C209 O210 1.235 . S
C209 O236 1.289 . S
O210 C209 1.235 . S
C211 C213 1.400 . S
C211 N214 1.351 . S
C211 C216 1.501 . S
C212 C213 1.387 . S
C212 N215 1.341 . S
C213 C211 1.400 . S
C213 C212 1.387 . S
N214 Co205 2.022 . S
N214 C211 1.351 . S
N214 N215 1.365 . S
N215 C212 1.341 . S
N215 N214 1.365 . S
N215 H235 0.862 . S
C216 C211 1.501 . S
C216 H217 0.961 . S
C216 H218 0.961 . S
C216 H219 0.960 . S
H217 C216 0.961 . S
H218 C216 0.961 . S
H219 C216 0.960 . S
C220 N221 1.342 . S
C220 C224 1.401 . S
C220 C225 1.471 1_554 S
N221 Co204 1.989 . S
N221 C220 1.342 . S
N221 N222 1.388 . S
N222 Co205 1.993 . S
N222 N221 1.388 . S
N222 C223 1.346 . S
C223 N222 1.346 . S
C223 C224 1.396 . S
C223 C233 1.510 . S
C224 C220 1.401 . S
C224 C223 1.396 . S
C225 C220 1.471 1_556 S
C225 H226 0.933 1_556 S
C225 H227 0.983 . S
C225 H228 0.994 . S
H226 C225 0.933 1_554 S
H227 C225 0.983 . S
H228 C225 0.994 . S
O229 Co204 1.967 . S
O229 C237 1.258 . S
O230 Co205 1.941 . S
O230 C237 1.266 . S
H231 C233 0.959 . S
H232 C233 0.961 . S
C233 C223 1.510 . S
C233 H231 0.959 . S
C233 H232 0.961 . S
C233 H234 0.960 . S
H234 C233 0.960 . S
H235 N215 0.862 . S
O236 Co204 1.920 . S
O236 C209 1.289 . S
C237 O229 1.258 . S
C237 O230 1.266 . S
Co238 O241 1.970 . S
Co238 N255 1.989 . S
Co238 O263 1.967 . S
Co238 O270 1.920 . S
Co239 O242 1.966 . S
Co239 N248 2.022 . S
Co239 N256 1.993 . S
Co239 O264 1.941 . S
C240 O241 1.258 . S
C240 O242 1.263 . S
O241 Co238 1.970 . S
O241 C240 1.258 . S
O242 Co239 1.966 . S
O242 C240 1.263 . S
C243 O244 1.235 . S
C243 O270 1.289 1_545 S
O244 C243 1.235 . S
C245 C247 1.400 . S
C245 N248 1.351 . S
C245 C250 1.501 . S
C246 C247 1.387 . S
C246 N249 1.341 . S
C247 C245 1.400 . S
C247 C246 1.387 . S
N248 Co239 2.022 . S
N248 C245 1.351 . S
N248 N249 1.365 . S
N249 C246 1.341 . S
N249 N248 1.365 . S
N249 H269 0.862 . S
C250 C245 1.501 . S
C250 H251 0.961 . S
C250 H252 0.961 . S
C250 H253 0.960 . S
H251 C250 0.961 . S
H252 C250 0.961 . S
H253 C250 0.960 . S
C254 N255 1.342 . S
C254 C258 1.401 . S
C254 C259 1.499 . S
N255 Co238 1.989 . S
N255 C254 1.342 . S
N255 N256 1.388 . S
N256 Co239 1.993 . S
N256 N255 1.388 . S
N256 C257 1.346 . S
C257 N256 1.346 . S
C257 C258 1.396 . S
C257 C267 1.510 . S
C258 C254 1.401 . S
C258 C257 1.396 . S
C259 C254 1.499 . S
C259 H260 0.959 . S
C259 H261 0.960 . S
C259 H262 0.961 . S
H260 C259 0.959 . S
H261 C259 0.960 . S
H262 C259 0.961 . S
O263 Co238 1.967 . S
O263 C271 1.258 . S
O264 Co239 1.941 . S
O264 C271 1.266 . S
H265 C267 0.959 . S
H266 C267 0.961 . S
C267 C257 1.510 . S
C267 H265 0.959 . S
C267 H266 0.961 . S
C267 H268 0.960 . S
H268 C267 0.960 . S
H269 N249 0.862 . S
O270 Co238 1.920 . S
O270 C243 1.289 1_565 S
C271 O263 1.258 . S
C271 O264 1.266 . S
C272 C273 1.391 . S
C272 C274 1.394 . S
C272 H288 0.931 . S
C273 C272 1.391 . S
C273 C277 1.376 . S
C274 C272 1.394 . S
C274 C275 1.369 . S
C274 C278 1.531 . S
C275 C274 1.369 . S
C275 C276 1.410 . S
C275 C283 1.503 . S
C276 C275 1.410 . S
C276 C277 1.392 . S
C276 C279 1.511 . S
C277 C273 1.376 . S
C277 C276 1.392 . S
C277 H289 0.929 . S
C278 C274 1.531 . S
C278 H290 0.960 . S
C278 H291 0.962 . S
C278 H292 0.960 . S
C279 C276 1.511 . S
C279 H293 0.961 . S
C279 H294 0.961 . S
C279 H295 0.961 . S
C280 C281 1.370 . S
C280 C282 1.363 . S
C280 H296 0.931 . S
C281 C280 1.370 . S
C281 C285 1.408 . S
C282 C280 1.363 . S
C282 C283 1.370 . S
C282 C286 1.524 . S
C283 C275 1.503 . S
C283 C282 1.370 . S
C283 C284 1.403 . S
C284 C283 1.403 . S
C284 C285 1.404 . S
C284 C287 1.539 . S
C285 C281 1.408 . S
C285 C284 1.404 . S
C285 H297 0.930 . S
C286 C282 1.524 . S
C286 H298 0.956 . S
C286 H299 0.961 . S
C286 H300 0.961 . S
C287 C284 1.539 . S
C287 H301 0.958 . S
C287 H302 0.961 . S
C287 H303 0.960 . S
H288 C272 0.931 . S
H289 C277 0.929 . S
H290 C278 0.960 . S
H291 C278 0.962 . S
H292 C278 0.960 . S
H293 C279 0.961 . S
H294 C279 0.961 . S
H295 C279 0.961 . S
H296 C280 0.931 . S
H297 C285 0.930 . S
H298 C286 0.956 . S
H299 C286 0.961 . S
H300 C286 0.961 . S
H301 C287 0.958 . S
H302 C287 0.961 . S
H303 C287 0.960 . S
C304 C305 1.391 1_455 S
C304 C306 1.394 . S
C304 H320 0.931 . S
C305 C304 1.391 1_655 S
C305 C309 1.376 . S
C306 C304 1.394 . S
C306 C307 1.369 . S
C306 C310 1.531 . S
C307 C306 1.369 . S
C307 C308 1.410 1_455 S
C307 C315 1.503 . S
C308 C307 1.410 1_655 S
C308 C309 1.392 . S
C308 C311 1.511 . S
C309 C305 1.376 . S
C309 C308 1.392 . S
C309 H321 0.929 . S
C310 C306 1.531 . S
C310 H322 0.960 . S
C310 H323 0.962 . S
C310 H324 0.960 . S
C311 C308 1.511 . S
C311 H325 0.961 . S
C311 H326 0.961 1_655 S
C311 H327 0.961 . S
C312 C313 1.370 . S
C312 C314 1.363 . S
C312 H328 0.931 . S
C313 C312 1.370 . S
C313 C317 1.408 . S
C314 C312 1.363 . S
C314 C315 1.370 . S
C314 C318 1.524 . S
C315 C307 1.503 . S
C315 C314 1.370 . S
C315 C316 1.403 . S
C316 C315 1.403 . S
C316 C317 1.404 . S
C316 C319 1.539 1_455 S
C317 C313 1.408 . S
C317 C316 1.404 . S
C317 H329 0.930 . S
C318 C314 1.524 . S
C318 H330 0.956 . S
C318 H331 0.961 . S
C318 H332 0.961 . S
C319 C316 1.539 1_655 S
C319 H333 0.958 . S
C319 H334 0.961 . S
C319 H335 0.960 . S
H320 C304 0.931 . S
H321 C309 0.929 . S
H322 C310 0.960 . S
H323 C310 0.962 . S
H324 C310 0.960 . S
H325 C311 0.961 . S
H326 C311 0.961 1_455 S
H327 C311 0.961 . S
H328 C312 0.931 . S
H329 C317 0.930 . S
H330 C318 0.956 . S
H331 C318 0.961 . S
H332 C318 0.961 . S
H333 C319 0.958 . S
H334 C319 0.961 . S
H335 C319 0.960 . S
C336 C337 1.391 . S
C336 C338 1.394 . S
C336 H352 0.931 . S
C337 C336 1.391 . S
C337 C341 1.376 . S
C338 C336 1.394 . S
C338 C339 1.369 . S
C338 C342 1.531 . S
C339 C338 1.369 . S
C339 C340 1.410 . S
C339 C347 1.503 . S
C340 C339 1.410 . S
C340 C341 1.392 . S
C340 C343 1.511 . S
C341 C337 1.376 . S
C341 C340 1.392 . S
C341 H353 0.929 . S
C342 C338 1.531 . S
C342 H354 0.960 . S
C342 H355 0.962 . S
C342 H356 0.960 . S
C343 C340 1.511 . S
C343 H357 0.961 . S
C343 H358 0.961 . S
C343 H359 0.961 . S
C344 C345 1.370 . S
C344 C346 1.363 . S
C344 H360 0.931 . S
C345 C344 1.370 . S
C345 C349 1.408 . S
C346 C344 1.363 . S
C346 C347 1.370 . S
C346 C350 1.524 . S
C347 C339 1.503 . S
C347 C346 1.370 . S
C347 C348 1.403 . S
C348 C347 1.403 . S
C348 C349 1.404 . S
C348 C351 1.539 . S
C349 C345 1.408 . S
C349 C348 1.404 . S
C349 H361 0.930 . S
C350 C346 1.524 . S
C350 H362 0.956 . S
C350 H363 0.961 . S
C350 H364 0.961 . S
C351 C348 1.539 . S
C351 H365 0.958 . S
C351 H366 0.961 . S
C351 H367 0.960 . S
H352 C336 0.931 . S
H353 C341 0.929 . S
H354 C342 0.960 . S
H355 C342 0.962 . S
H356 C342 0.960 . S
H357 C343 0.961 . S
H358 C343 0.961 . S
H359 C343 0.961 . S
H360 C344 0.931 . S
H361 C349 0.930 . S
H362 C350 0.956 . S
H363 C350 0.961 . S
H364 C350 0.961 . S
H365 C351 0.958 . S
H366 C351 0.961 . S
H367 C351 0.960 . S
C368 C369 1.391 . S
C368 C370 1.394 . S
C368 H384 0.900 1_554 S
C369 C368 1.391 . S
C369 C373 1.376 . S
C370 C368 1.394 . S
C370 C371 1.369 . S
C370 C374 1.531 1_655 S
C371 C370 1.369 . S
C371 C372 1.410 . S
C371 C379 1.503 . S
C372 C371 1.410 . S
C372 C373 1.392 . S
C372 C375 1.511 . S
C373 C369 1.376 . S
C373 C372 1.392 . S
C373 H385 0.929 . S
C374 C370 1.531 1_455 S
C374 H386 0.960 . S
C374 H387 0.962 . S
C374 H388 0.960 . S
C375 C372 1.511 . S
C375 H389 0.961 . S
C375 H390 0.961 . S
C375 H391 0.961 . S
C376 C377 1.370 . S
C376 C378 1.363 1_455 S
C376 H392 0.931 . S
C377 C376 1.370 . S
C377 C381 1.408 . S
C378 C376 1.363 1_655 S
C378 C379 1.370 . S
C378 C382 1.524 . S
C379 C371 1.503 . S
C379 C378 1.370 . S
C379 C380 1.403 . S
C380 C379 1.403 . S
C380 C381 1.404 1_655 S
C380 C383 1.539 . S
C381 C377 1.408 . S
C381 C380 1.404 1_455 S
C381 H393 0.930 . S
C382 C378 1.524 . S
C382 H394 0.956 . S
C382 H395 0.961 . S
C382 H396 0.961 . S
C383 C380 1.539 . S
C383 H397 0.959 1_655 S
C383 H398 0.961 . S
C383 H399 0.960 . S
H384 C368 0.900 1_556 S
H385 C373 0.929 . S
H386 C374 0.960 . S
H387 C374 0.962 . S
H388 C374 0.960 . S
H389 C375 0.961 . S
H390 C375 0.961 . S
H391 C375 0.961 . S
H392 C376 0.931 . S
H393 C381 0.930 . S
H394 C382 0.956 . S
H395 C382 0.961 . S
H396 C382 0.961 . S
H397 C383 0.959 1_455 S
H398 C383 0.961 . S
H399 C383 0.960 . S
C400 C401 1.391 . S
C400 C402 1.394 . S
C400 H416 0.931 . S
C401 C400 1.391 . S
C401 C405 1.376 . S
C402 C400 1.394 . S
C402 C403 1.369 . S
C402 C406 1.531 . S
C403 C402 1.369 . S
C403 C404 1.410 . S
C403 C411 1.503 . S
C404 C403 1.410 . S
C404 C405 1.392 . S
C404 C407 1.511 . S
C405 C401 1.376 . S
C405 C404 1.392 . S
C405 H417 0.929 . S
C406 C402 1.531 . S
C406 H418 0.960 1_545 S
C406 H419 0.962 . S
C406 H420 0.960 . S
C407 C404 1.511 . S
C407 H421 0.961 . S
C407 H422 0.961 . S
C407 H423 0.961 . S
C408 C409 1.370 1_545 S
C408 C410 1.363 . S
C408 H424 0.931 . S
C409 C408 1.370 1_565 S
C409 C413 1.408 . S
C410 C408 1.363 . S
C410 C411 1.370 . S
C410 C414 1.524 . S
C411 C403 1.503 . S
C411 C410 1.370 . S
C411 C412 1.403 1_545 S
C412 C411 1.403 1_565 S
C412 C413 1.404 . S
C412 C415 1.539 . S
C413 C409 1.408 . S
C413 C412 1.404 . S
C413 H425 0.930 . S
C414 C410 1.524 . S
C414 H426 0.956 . S
C414 H427 0.961 . S
C414 H428 0.961 . S
C415 C412 1.539 . S
C415 H429 0.958 . S
C415 H430 0.961 . S
C415 H431 0.960 . S
H416 C400 0.931 . S
H417 C405 0.929 . S
H418 C406 0.960 1_565 S
H419 C406 0.962 . S
H420 C406 0.960 . S
H421 C407 0.961 . S
H422 C407 0.961 . S
H423 C407 0.961 . S
H424 C408 0.931 . S
H425 C413 0.930 . S
H426 C414 0.956 . S
H427 C414 0.961 . S
H428 C414 0.961 . S
H429 C415 0.958 . S
H430 C415 0.961 . S
H431 C415 0.960 . S
C432 C433 1.391 . S
C432 C434 1.394 . S
C432 H448 0.931 . S
C433 C432 1.391 . S
C433 C437 1.376 . S
C434 C432 1.394 . S
C434 C435 1.369 . S
C434 C438 1.531 . S
C435 C434 1.369 . S
C435 C436 1.410 . S
C435 C443 1.503 . S
C436 C435 1.410 . S
C436 C437 1.392 . S
C436 C439 1.511 . S
C437 C433 1.376 . S
C437 C436 1.392 . S
C437 H449 0.929 . S
C438 C434 1.531 . S
C438 H450 0.960 . S
C438 H451 0.962 . S
C438 H452 0.960 . S
C439 C436 1.511 . S
C439 H453 0.961 . S
C439 H454 0.961 . S
C439 H455 0.961 . S
C440 C441 1.370 . S
C440 C442 1.363 . S
C440 H456 0.931 . S
C441 C440 1.370 . S
C441 C445 1.408 . S
C442 C440 1.363 . S
C442 C443 1.370 . S
C442 C446 1.524 . S
C443 C435 1.503 . S
C443 C442 1.370 . S
C443 C444 1.403 . S
C444 C443 1.403 . S
C444 C445 1.404 . S
C444 C447 1.539 . S
C445 C441 1.408 . S
C445 C444 1.404 . S
C445 H457 0.930 . S
C446 C442 1.524 . S
C446 H458 0.956 . S
C446 H459 0.961 . S
C446 H460 0.961 . S
C447 C444 1.539 . S
C447 H461 0.958 . S
C447 H462 0.961 . S
C447 H463 0.960 . S
H448 C432 0.931 . S
H449 C437 0.929 . S
H450 C438 0.960 . S
H451 C438 0.962 . S
H452 C438 0.960 . S
H453 C439 0.961 . S
H454 C439 0.961 . S
H455 C439 0.961 . S
H456 C440 0.931 . S
H457 C445 0.930 . S
H458 C446 0.956 . S
H459 C446 0.961 . S
H460 C446 0.961 . S
H461 C447 0.958 . S
H462 C447 0.961 . S
H463 C447 0.960 . S
C464 C465 1.391 . S
C464 C466 1.394 . S
C464 H480 0.931 . S
C465 C464 1.391 . S
C465 C469 1.376 . S
C466 C464 1.394 . S
C466 C467 1.369 . S
C466 C470 1.531 . S
C467 C466 1.369 . S
C467 C468 1.410 . S
C467 C475 1.503 . S
C468 C467 1.410 . S
C468 C469 1.392 . S
C468 C471 1.511 1_565 S
C469 C465 1.376 . S
C469 C468 1.392 . S
C469 H481 0.929 1_556 S
C470 C466 1.531 . S
C470 H482 0.960 . S
C470 H483 0.962 . S
C470 H484 0.960 . S
C471 C468 1.511 1_545 S
C471 H485 0.961 . S
C471 H486 0.961 . S
C471 H487 0.961 . S
C472 C473 1.370 . S
C472 C474 1.363 1_545 S
C472 H488 0.931 . S
C473 C472 1.370 . S
C473 C477 1.408 . S
C474 C472 1.363 1_565 S
C474 C475 1.370 . S
C474 C478 1.524 . S
C475 C467 1.503 . S
C475 C474 1.370 . S
C475 C476 1.403 . S
C476 C475 1.403 . S
C476 C477 1.404 1_565 S
C476 C479 1.539 . S
C477 C473 1.408 . S
C477 C476 1.404 1_545 S
C477 H489 0.930 . S
C478 C474 1.524 . S
C478 H490 0.956 . S
C478 H491 0.961 . S
C478 H492 0.961 1_565 S
C479 C476 1.539 . S
C479 H493 0.958 . S
C479 H494 0.961 . S
C479 H495 0.960 . S
H480 C464 0.931 . S
H481 C469 0.929 1_554 S
H482 C470 0.960 . S
H483 C470 0.962 . S
H484 C470 0.960 . S
H485 C471 0.961 . S
H486 C471 0.961 . S
H487 C471 0.961 . S
H488 C472 0.931 . S
H489 C477 0.930 . S
H490 C478 0.956 . S
H491 C478 0.961 . S
H492 C478 0.961 1_545 S
H493 C479 0.958 . S
H494 C479 0.961 . S
H495 C479 0.960 . S
C496 C497 1.391 . S
C496 C498 1.394 . S
C496 H512 0.931 . S
C497 C496 1.391 . S
C497 C501 1.376 . S
C498 C496 1.394 . S
C498 C499 1.369 . S
C498 C502 1.531 . S
C499 C498 1.369 . S
C499 C500 1.410 . S
C499 C507 1.503 . S
C500 C499 1.410 . S
C500 C501 1.392 . S
C500 C503 1.511 . S
C501 C497 1.376 . S
C501 C500 1.392 . S
C501 H513 0.929 . S
C502 C498 1.531 . S
C502 H514 0.960 . S
C502 H515 0.962 . S
C502 H516 0.960 . S
C503 C500 1.511 . S
C503 H517 0.961 . S
C503 H518 0.961 . S
C503 H519 0.961 . S
C504 C505 1.370 . S
C504 C506 1.363 . S
C504 H520 0.931 . S
C505 C504 1.370 . S
C505 C509 1.408 . S
C506 C504 1.363 . S
C506 C507 1.370 . S
C506 C510 1.524 . S
C507 C499 1.503 . S
C507 C506 1.370 . S
C507 C508 1.403 . S
C508 C507 1.403 . S
C508 C509 1.404 . S
C508 C511 1.539 . S
C509 C505 1.408 . S
C509 C508 1.404 . S
C509 H521 0.930 . S
C510 C506 1.524 . S
C510 H522 0.956 . S
C510 H523 0.961 . S
C510 H524 0.961 . S
C511 C508 1.539 . S
C511 H525 0.958 . S
C511 H526 0.961 . S
C511 H527 0.960 . S
H512 C496 0.931 . S
H513 C501 0.929 . S
H514 C502 0.960 . S
H515 C502 0.962 . S
H516 C502 0.960 . S
H517 C503 0.961 . S
H518 C503 0.961 . S
H519 C503 0.961 . S
H520 C504 0.931 . S
H521 C509 0.930 . S
H522 C510 0.956 . S
H523 C510 0.961 . S
H524 C510 0.961 . S
H525 C511 0.958 . S
H526 C511 0.961 . S
H527 C511 0.960 . S
C528 C529 1.391 . S
C528 C530 1.394 . S
C528 H544 0.931 . S
C529 C528 1.391 . S
C529 C533 1.376 . S
C530 C528 1.394 . S
C530 C531 1.369 . S
C530 C534 1.531 . S
C531 C530 1.369 . S
C531 C532 1.410 . S
C531 C539 1.503 . S
C532 C531 1.410 . S
C532 C533 1.392 . S
C532 C535 1.511 . S
C533 C529 1.376 . S
C533 C532 1.392 . S
C533 H545 0.929 . S
C534 C530 1.531 . S
C534 H546 0.960 . S
C534 H547 0.962 . S
C534 H548 0.960 . S
C535 C532 1.511 . S
C535 H549 0.961 . S
C535 H550 0.961 . S
C535 H551 0.961 . S
C536 C537 1.370 . S
C536 C538 1.363 . S
C536 H552 0.931 . S
C537 C536 1.370 . S
C537 C541 1.408 . S
C538 C536 1.363 . S
C538 C539 1.370 . S
C538 C542 1.524 . S
C539 C531 1.503 . S
C539 C538 1.370 . S
C539 C540 1.403 . S
C540 C539 1.403 . S
C540 C541 1.404 . S
C540 C543 1.539 . S
C541 C537 1.408 . S
C541 C540 1.404 . S
C541 H553 0.930 . S
C542 C538 1.524 . S
C542 H554 0.956 . S
C542 H555 0.961 . S
C542 H556 0.961 . S
C543 C540 1.539 . S
C543 H557 0.958 . S
C543 H558 0.961 . S
C543 H559 0.960 . S
H544 C528 0.931 . S
H545 C533 0.929 . S
H546 C534 0.960 . S
H547 C534 0.962 . S
H548 C534 0.960 . S
H549 C535 0.961 . S
H550 C535 0.961 . S
H551 C535 0.961 . S
H552 C536 0.931 . S
H553 C541 0.930 . S
H554 C542 0.956 . S
H555 C542 0.961 . S
H556 C542 0.961 . S
H557 C543 0.958 . S
H558 C543 0.961 . S
H559 C543 0.960 . S
C560 C561 1.391 . S
C560 C562 1.394 . S
C560 H576 0.931 . S
C561 C560 1.391 . S
C561 C565 1.376 . S
C562 C560 1.394 . S
C562 C563 1.369 . S
C562 C566 1.531 . S
C563 C562 1.369 . S
C563 C564 1.410 . S
C563 C571 1.503 . S
C564 C563 1.410 . S
C564 C565 1.392 . S
C564 C567 1.511 . S
C565 C561 1.376 . S
C565 C564 1.392 . S
C565 H577 0.929 . S
C566 C562 1.531 . S
C566 H578 0.960 . S
C566 H579 0.962 . S
C566 H580 0.960 . S
C567 C564 1.511 . S
C567 H581 0.961 . S
C567 H582 0.961 . S
C567 H583 0.961 . S
C568 C569 1.370 . S
C568 C570 1.363 . S
C568 H584 0.931 . S
C569 C568 1.370 . S
C569 C573 1.408 . S
C570 C568 1.363 . S
C570 C571 1.370 . S
C570 C574 1.524 . S
C571 C563 1.503 . S
C571 C570 1.370 . S
C571 C572 1.403 . S
C572 C571 1.403 . S
C572 C573 1.404 . S
C572 C575 1.539 . S
C573 C569 1.408 . S
C573 C572 1.404 . S
C573 H585 0.930 . S
C574 C570 1.524 . S
C574 H586 0.956 . S
C574 H587 0.961 . S
C574 H588 0.961 . S
C575 C572 1.539 . S
C575 H589 0.958 . S
C575 H590 0.961 . S
C575 H591 0.960 . S
H576 C560 0.931 . S
H577 C565 0.929 . S
H578 C566 0.960 . S
H579 C566 0.962 . S
H580 C566 0.960 . S
H581 C567 0.961 . S
H582 C567 0.961 . S
H583 C567 0.961 . S
H584 C568 0.931 . S
H585 C573 0.930 . S
H586 C574 0.956 . S
H587 C574 0.961 . S
H588 C574 0.961 . S
H589 C575 0.958 . S
H590 C575 0.961 . S
H591 C575 0.960 . S
C592 C593 1.391 . S
C592 C594 1.394 . S
C592 H608 0.931 1_565 S
C593 C592 1.391 . S
C593 C597 1.376 . S
C594 C592 1.394 . S
C594 C595 1.369 . S
C594 C598 1.531 . S
C595 C594 1.369 . S
C595 C596 1.410 . S
C595 C603 1.503 . S
C596 C595 1.410 . S
C596 C597 1.392 . S
C596 C599 1.511 . S
C597 C593 1.376 . S
C597 C596 1.392 . S
C597 H609 0.929 . S
C598 C594 1.531 . S
C598 H610 0.960 . S
C598 H611 0.962 . S
C598 H612 0.960 . S
C599 C596 1.511 . S
C599 H613 0.961 . S
C599 H614 0.961 . S
C599 H615 0.961 . S
C600 C601 1.370 . S
C600 C602 1.363 . S
C600 H616 0.931 . S
C601 C600 1.370 . S
C601 C605 1.408 . S
C602 C600 1.363 . S
C602 C603 1.370 . S
C602 C606 1.524 . S
C603 C595 1.503 . S
C603 C602 1.370 . S
C603 C604 1.403 . S
C604 C603 1.403 . S
C604 C605 1.404 . S
C604 C607 1.539 . S
C605 C601 1.408 . S
C605 C604 1.404 . S
C605 H617 0.930 . S
C606 C602 1.524 . S
C606 H618 0.956 . S
C606 H619 0.961 . S
C606 H620 0.961 . S
C607 C604 1.539 . S
C607 H621 0.958 . S
C607 H622 0.961 . S
C607 H623 0.960 . S
H608 C592 0.931 1_545 S
H609 C597 0.929 . S
H610 C598 0.960 . S
H611 C598 0.962 . S
H612 C598 0.960 . S
H613 C599 0.961 . S
H614 C599 0.961 . S
H615 C599 0.961 . S
H616 C600 0.931 . S
H617 C605 0.930 . S
H618 C606 0.956 . S
H619 C606 0.961 . S
H620 C606 0.961 . S
H621 C607 0.958 . S
H622 C607 0.961 . S
H623 C607 0.960 . S
C624 C625 1.391 . S
C624 C626 1.394 . S
C624 H640 0.931 . S
C625 C624 1.391 . S
C625 C629 1.376 . S
C626 C624 1.394 . S
C626 C627 1.369 . S
C626 C630 1.531 . S
C627 C626 1.369 . S
C627 C628 1.410 . S
C627 C635 1.503 . S
C628 C627 1.410 . S
C628 C629 1.392 . S
C628 C631 1.511 . S
C629 C625 1.376 . S
C629 C628 1.392 . S
C629 H641 0.929 . S
C630 C626 1.531 . S
C630 H642 0.960 . S
C630 H643 0.962 . S
C630 H644 0.960 . S
C631 C628 1.511 . S
C631 H645 0.961 . S
C631 H646 0.961 . S
C631 H647 0.961 . S
C632 C633 1.370 . S
C632 C634 1.363 . S
C632 H648 0.931 . S
C633 C632 1.370 . S
C633 C637 1.408 . S
C634 C632 1.363 . S
C634 C635 1.370 . S
C634 C638 1.524 . S
C635 C627 1.503 . S
C635 C634 1.370 . S
C635 C636 1.403 . S
C636 C635 1.403 . S
C636 C637 1.404 . S
C636 C639 1.539 . S
C637 C633 1.408 . S
C637 C636 1.404 . S
C637 H649 0.930 . S
C638 C634 1.524 . S
C638 H650 0.956 . S
C638 H651 0.961 . S
C638 H652 0.961 . S
C639 C636 1.539 . S
C639 H653 0.958 . S
C639 H654 0.961 . S
C639 H655 0.960 . S
H640 C624 0.931 . S
H641 C629 0.929 . S
H642 C630 0.960 . S
H643 C630 0.962 . S
H644 C630 0.960 . S
H645 C631 0.961 . S
H646 C631 0.961 . S
H647 C631 0.961 . S
H648 C632 0.931 . S
H649 C637 0.930 . S
H650 C638 0.956 . S
H651 C638 0.961 . S
H652 C638 0.961 . S
H653 C639 0.958 . S
H654 C639 0.961 . S
H655 C639 0.960 . S
C656 C657 1.391 . S
C656 C658 1.394 . S
C656 H672 0.931 . S
C657 C656 1.391 . S
C657 C661 1.376 . S
C658 C656 1.394 . S
C658 C659 1.369 . S
C658 C662 1.531 . S
C659 C658 1.369 . S
C659 C660 1.410 . S
C659 C667 1.503 . S
C660 C659 1.410 . S
C660 C661 1.392 . S
C660 C663 1.511 . S
C661 C657 1.376 . S
C661 C660 1.392 . S
C661 H673 0.929 . S
C662 C658 1.531 . S
C662 H674 0.960 . S
C662 H675 0.962 . S
C662 H676 0.960 . S
C663 C660 1.511 . S
C663 H677 0.961 . S
C663 H678 0.961 . S
C663 H679 0.961 . S
C664 C665 1.370 . S
C664 C666 1.363 . S
C664 H680 0.931 . S
C665 C664 1.370 . S
C665 C669 1.408 . S
C666 C664 1.363 . S
C666 C667 1.370 . S
C666 C670 1.524 . S
C667 C659 1.503 . S
C667 C666 1.370 . S
C667 C668 1.403 . S
C668 C667 1.403 . S
C668 C669 1.404 . S
C668 C671 1.539 . S
C669 C665 1.408 . S
C669 C668 1.404 . S
C669 H681 0.930 . S
C670 C666 1.524 . S
C670 H682 0.956 . S
C670 H683 0.961 . S
C670 H684 0.961 . S
C671 C668 1.539 . S
C671 H685 0.958 . S
C671 H686 0.961 . S
C671 H687 0.960 . S
H672 C656 0.931 . S
H673 C661 0.929 . S
H674 C662 0.960 . S
H675 C662 0.962 . S
H676 C662 0.960 . S
H677 C663 0.961 . S
H678 C663 0.961 . S
H679 C663 0.961 . S
H680 C664 0.931 . S
H681 C669 0.930 . S
H682 C670 0.956 . S
H683 C670 0.961 . S
H684 C670 0.961 . S
H685 C671 0.958 . S
H686 C671 0.961 . S
H687 C671 0.960 . S
C688 C689 1.391 . S
C688 C690 1.394 . S
C688 H704 0.931 . S
C689 C688 1.391 . S
C689 C693 1.376 . S
C690 C688 1.394 . S
C690 C691 1.369 . S
C690 C694 1.531 . S
C691 C690 1.369 . S
C691 C692 1.410 . S
C691 C699 1.503 . S
C692 C691 1.410 . S
C692 C693 1.392 . S
C692 C695 1.511 . S
C693 C689 1.376 . S
C693 C692 1.392 . S
C693 H705 0.929 . S
C694 C690 1.531 . S
C694 H706 0.960 . S
C694 H707 0.962 . S
C694 H708 0.960 . S
C695 C692 1.511 . S
C695 H709 0.961 . S
C695 H710 0.961 . S
C695 H711 0.961 . S
C696 C697 1.370 . S
C696 C698 1.363 . S
C696 H712 0.931 . S
C697 C696 1.370 . S
C697 C701 1.408 . S
C698 C696 1.363 . S
C698 C699 1.370 . S
C698 C702 1.524 . S
C699 C691 1.503 . S
C699 C698 1.370 . S
C699 C700 1.403 . S
C700 C699 1.403 . S
C700 C701 1.404 . S
C700 C703 1.539 . S
C701 C697 1.408 . S
C701 C700 1.404 . S
C701 H713 0.930 1_455 S
C702 C698 1.524 . S
C702 H714 0.956 . S
C702 H715 0.961 . S
C702 H716 0.961 . S
C703 C700 1.539 . S
C703 H717 0.958 . S
C703 H718 0.961 . S
C703 H719 0.960 . S
H704 C688 0.931 . S
H705 C693 0.929 . S
H706 C694 0.960 . S
H707 C694 0.962 . S
H708 C694 0.960 . S
H709 C695 0.961 . S
H710 C695 0.961 . S
H711 C695 0.961 . S
H712 C696 0.931 . S
H713 C701 0.930 1_655 S
H714 C702 0.956 . S
H715 C702 0.961 . S
H716 C702 0.961 . S
H717 C703 0.958 . S
H718 C703 0.961 . S
H719 C703 0.960 . S
C720 C721 1.391 . S
C720 C722 1.394 . S
C720 H736 0.931 . S
C721 C720 1.391 . S
C721 C725 1.376 . S
C722 C720 1.394 . S
C722 C723 1.369 . S
C722 C726 1.531 . S
C723 C722 1.369 . S
C723 C724 1.410 . S
C723 C731 1.503 . S
C724 C723 1.410 . S
C724 C725 1.392 . S
C724 C727 1.511 . S
C725 C721 1.376 . S
C725 C724 1.392 . S
C725 H737 0.929 . S
C726 C722 1.531 . S
C726 H738 0.960 . S
C726 H739 0.962 . S
C726 H740 0.960 . S
C727 C724 1.511 . S
C727 H741 0.961 . S
C727 H742 0.961 . S
C727 H743 0.961 . S
C728 C729 1.370 . S
C728 C730 1.363 . S
C728 H744 0.931 . S
C729 C728 1.370 . S
C729 C733 1.408 . S
C730 C728 1.363 . S
C730 C731 1.370 . S
C730 C734 1.524 . S
C731 C723 1.503 . S
C731 C730 1.370 . S
C731 C732 1.403 . S
C732 C731 1.403 . S
C732 C733 1.404 . S
C732 C735 1.539 . S
C733 C729 1.408 . S
C733 C732 1.404 . S
C733 H745 0.930 . S
C734 C730 1.524 . S
C734 H746 0.956 . S
C734 H747 0.961 . S
C734 H748 0.961 . S
C735 C732 1.539 . S
C735 H749 0.958 . S
C735 H750 0.961 . S
C735 H751 0.960 . S
H736 C720 0.931 . S
H737 C725 0.929 . S
H738 C726 0.960 . S
H739 C726 0.962 . S
H740 C726 0.960 . S
H741 C727 0.961 . S
H742 C727 0.961 . S
H743 C727 0.961 . S
H744 C728 0.931 . S
H745 C733 0.930 . S
H746 C734 0.956 . S
H747 C734 0.961 . S
H748 C734 0.961 . S
H749 C735 0.958 . S
H750 C735 0.961 . S
H751 C735 0.960 . S
C752 C753 1.391 . S
C752 C754 1.394 . S
C752 H768 0.931 . S
C753 C752 1.391 . S
C753 C757 1.376 . S
C754 C752 1.394 . S
C754 C755 1.369 . S
C754 C758 1.531 . S
C755 C754 1.369 . S
C755 C756 1.410 . S
C755 C763 1.503 . S
C756 C755 1.410 . S
C756 C757 1.392 . S
C756 C759 1.511 . S
C757 C753 1.376 . S
C757 C756 1.392 . S
C757 H769 0.929 . S
C758 C754 1.531 . S
C758 H770 0.960 . S
C758 H771 0.962 . S
C758 H772 0.960 . S
C759 C756 1.511 . S
C759 H773 0.961 . S
C759 H774 0.961 . S
C759 H775 0.961 . S
C760 C761 1.370 . S
C760 C762 1.363 . S
C760 H776 0.931 . S
C761 C760 1.370 . S
C761 C765 1.408 . S
C762 C760 1.363 . S
C762 C763 1.370 . S
C762 C766 1.524 . S
C763 C755 1.503 . S
C763 C762 1.370 . S
C763 C764 1.403 . S
C764 C763 1.403 . S
C764 C765 1.404 . S
C764 C767 1.539 . S
C765 C761 1.408 . S
C765 C764 1.404 . S
C765 H777 0.930 . S
C766 C762 1.524 . S
C766 H778 0.956 . S
C766 H779 0.961 . S
C766 H780 0.961 . S
C767 C764 1.539 . S
C767 H781 0.958 . S
C767 H782 0.961 . S
C767 H783 0.960 . S
H768 C752 0.931 . S
H769 C757 0.929 . S
H770 C758 0.960 . S
H771 C758 0.962 . S
H772 C758 0.960 . S
H773 C759 0.961 . S
H774 C759 0.961 . S
H775 C759 0.961 . S
H776 C760 0.931 . S
H777 C765 0.930 . S
H778 C766 0.956 . S
H779 C766 0.961 . S
H780 C766 0.961 . S
H781 C767 0.958 . S
H782 C767 0.961 . S
H783 C767 0.960 . S
C784 C785 1.391 . S
C784 C786 1.394 . S
C784 H800 0.931 . S
C785 C784 1.391 . S
C785 C789 1.376 . S
C786 C784 1.394 . S
C786 C787 1.369 . S
C786 C790 1.531 . S
C787 C786 1.369 . S
C787 C788 1.410 . S
C787 C795 1.503 . S
C788 C787 1.410 . S
C788 C789 1.392 . S
C788 C791 1.511 . S
C789 C785 1.376 . S
C789 C788 1.392 . S
C789 H801 0.929 . S
C790 C786 1.531 . S
C790 H802 0.960 . S
C790 H803 0.962 . S
C790 H804 0.960 . S
C791 C788 1.511 . S
C791 H805 0.961 . S
C791 H806 0.961 . S
C791 H807 0.961 . S
C792 C793 1.370 . S
C792 C794 1.363 . S
C792 H808 0.931 . S
C793 C792 1.370 . S
C793 C797 1.408 . S
C794 C792 1.363 . S
C794 C795 1.370 . S
C794 C798 1.524 . S
C795 C787 1.503 . S
C795 C794 1.370 . S
C795 C796 1.403 . S
C796 C795 1.403 . S
C796 C797 1.404 . S
C796 C799 1.539 . S
C797 C793 1.408 . S
C797 C796 1.404 . S
C797 H809 0.930 . S
C798 C794 1.524 . S
C798 H810 0.956 . S
C798 H811 0.961 . S
C798 H812 0.961 . S
C799 C796 1.539 . S
C799 H813 0.958 . S
C799 H814 0.961 . S
C799 H815 0.960 . S
H800 C784 0.931 . S
H801 C789 0.929 . S
H802 C790 0.960 . S
H803 C790 0.962 . S
H804 C790 0.960 . S
H805 C791 0.961 . S
H806 C791 0.961 . S
H807 C791 0.961 . S
H808 C792 0.931 . S
H809 C797 0.930 . S
H810 C798 0.956 . S
H811 C798 0.961 . S
H812 C798 0.961 . S
H813 C799 0.958 . S
H814 C799 0.961 . S
H815 C799 0.960 . S
C816 C817 1.391 . S
C816 C818 1.394 . S
C816 H832 0.931 . S
C817 C816 1.391 . S
C817 C821 1.376 . S
C818 C816 1.394 . S
C818 C819 1.369 . S
C818 C822 1.531 . S
C819 C818 1.369 . S
C819 C820 1.410 . S
C819 C827 1.503 . S
C820 C819 1.410 . S
C820 C821 1.392 . S
C820 C823 1.511 . S
C821 C817 1.376 . S
C821 C820 1.392 . S
C821 H833 0.929 . S
C822 C818 1.531 . S
C822 H834 0.960 . S
C822 H835 0.962 . S
C822 H836 0.960 . S
C823 C820 1.511 . S
C823 H837 0.961 . S
C823 H838 0.961 . S
C823 H839 0.961 . S
C824 C825 1.370 . S
C824 C826 1.363 . S
C824 H840 0.931 . S
C825 C824 1.370 . S
C825 C829 1.408 . S
C826 C824 1.363 . S
C826 C827 1.370 . S
C826 C830 1.524 . S
C827 C819 1.503 . S
C827 C826 1.370 . S
C827 C828 1.403 . S
C828 C827 1.403 . S
C828 C829 1.404 . S
C828 C831 1.539 . S
C829 C825 1.408 . S
C829 C828 1.404 . S
C829 H841 0.930 . S
C830 C826 1.524 . S
C830 H842 0.956 . S
C830 H843 0.961 . S
C830 H844 0.961 . S
C831 C828 1.539 . S
C831 H845 0.958 . S
C831 H846 0.961 . S
C831 H847 0.960 . S
H832 C816 0.931 . S
H833 C821 0.929 . S
H834 C822 0.960 . S
H835 C822 0.962 . S
H836 C822 0.960 . S
H837 C823 0.961 . S
H838 C823 0.961 . S
H839 C823 0.961 . S
H840 C824 0.931 . S
H841 C829 0.930 . S
H842 C830 0.956 . S
H843 C830 0.961 . S
H844 C830 0.961 . S
H845 C831 0.958 . S
H846 C831 0.961 . S
H847 C831 0.960 . S
C848 C849 1.391 . S
C848 C850 1.394 . S
C848 H864 0.931 . S
C849 C848 1.391 . S
C849 C853 1.376 . S
C850 C848 1.394 . S
C850 C851 1.369 . S
C850 C854 1.531 . S
C851 C850 1.369 . S
C851 C852 1.410 . S
C851 C859 1.503 . S
C852 C851 1.410 . S
C852 C853 1.392 . S
C852 C855 1.511 . S
C853 C849 1.376 . S
C853 C852 1.392 . S
C853 H865 0.929 . S
C854 C850 1.531 . S
C854 H866 0.960 . S
C854 H867 0.962 . S
C854 H868 0.960 . S
C855 C852 1.511 . S
C855 H869 0.961 . S
C855 H870 0.961 . S
C855 H871 0.961 . S
C856 C857 1.370 . S
C856 C858 1.363 . S
C856 H872 0.931 . S
C857 C856 1.370 . S
C857 C861 1.408 . S
C858 C856 1.363 . S
C858 C859 1.370 . S
C858 C862 1.524 . S
C859 C851 1.503 . S
C859 C858 1.370 . S
C859 C860 1.403 . S
C860 C859 1.403 . S
C860 C861 1.404 . S
C860 C863 1.539 . S
C861 C857 1.408 . S
C861 C860 1.404 . S
C861 H873 0.930 . S
C862 C858 1.524 . S
C862 H874 0.956 . S
C862 H875 0.961 . S
C862 H876 0.961 . S
C863 C860 1.539 . S
C863 H877 0.958 . S
C863 H878 0.961 . S
C863 H879 0.960 . S
H864 C848 0.931 . S
H865 C853 0.929 . S
H866 C854 0.960 . S
H867 C854 0.962 . S
H868 C854 0.960 . S
H869 C855 0.961 . S
H870 C855 0.961 . S
H871 C855 0.961 . S
H872 C856 0.931 . S
H873 C861 0.930 . S
H874 C862 0.956 . S
H875 C862 0.961 . S
H876 C862 0.961 . S
H877 C863 0.958 . S
H878 C863 0.961 . S
H879 C863 0.960 . S
C880 C881 1.391 . S
C880 C882 1.394 . S
C880 H896 0.931 . S
C881 C880 1.391 . S
C881 C885 1.376 . S
C882 C880 1.394 . S
C882 C883 1.369 . S
C882 C886 1.531 . S
C883 C882 1.369 . S
C883 C884 1.410 . S
C883 C891 1.503 1_556 S
C884 C883 1.410 . S
C884 C885 1.392 . S
C884 C887 1.511 1_556 S
C885 C881 1.376 . S
C885 C884 1.392 . S
C885 H897 0.929 . S
C886 C882 1.531 . S
C886 H898 0.960 . S
C886 H899 0.962 . S
C886 H900 0.960 . S
C887 C884 1.511 1_554 S
C887 H901 0.961 . S
C887 H902 0.961 . S
C887 H903 0.961 1_554 S
C888 C889 1.370 . S
C888 C890 1.363 . S
C888 H904 0.931 . S
C889 C888 1.370 . S
C889 C893 1.408 . S
C890 C888 1.363 . S
C890 C891 1.370 . S
C890 C894 1.524 . S
C891 C883 1.503 1_554 S
C891 C890 1.370 . S
C891 C892 1.403 1_554 S
C892 C891 1.403 1_556 S
C892 C893 1.404 1_556 S
C892 C895 1.539 . S
C893 C889 1.408 . S
C893 C892 1.404 1_554 S
C893 H905 0.930 1_554 S
C894 C890 1.524 . S
C894 H906 0.956 . S
C894 H907 0.961 . S
C894 H908 0.961 . S
C895 C892 1.539 . S
C895 H909 0.958 . S
C895 H910 0.961 . S
C895 H911 0.960 . S
H896 C880 0.931 . S
H897 C885 0.929 . S
H898 C886 0.960 . S
H899 C886 0.962 . S
H900 C886 0.960 . S
H901 C887 0.961 . S
H902 C887 0.961 . S
H903 C887 0.961 1_556 S
H904 C888 0.931 . S
H905 C893 0.930 1_556 S
H906 C894 0.956 . S
H907 C894 0.961 . S
H908 C894 0.961 . S
H909 C895 0.958 . S
H910 C895 0.961 . S
H911 C895 0.960 . S
C273 C20 1.306 . S
C281 C36 1.304 . S
C305 C70 1.295 . S
C313 C54 1.296 . S
C337 C104 1.300 . S
C345 C88 1.302 . S
C369 C122 1.294 1_554 S
C377 C2 1.302 . S
C401 C156 1.288 . S
C409 C240 1.301 . S
C433 C190 1.288 . S
C441 C138 1.301 . S
C465 C224 1.301 1_556 S
C473 C172 1.303 . S
C497 C258 1.305 . S
C505 C206 1.304 . S
C529 C213 1.379 1_545 S
C537 C33 1.390 . S
C561 C247 1.376 . S
C569 C67 1.396 . S
C593 C145 1.354 1_565 S
C601 C101 1.397 . S
C625 C179 1.339 . S
C633 C135 1.388 . S
C657 C169 1.398 . S
C665 C77 1.348 . S
C689 C203 1.394 . S
C697 C111 1.344 1_455 S
C721 C237 1.399 . S
C729 C9 1.350 . S
C753 C271 1.382 . S
C761 C43 1.344 1_655 S
C785 C243 1.686 . S
C793 C5 1.683 . S
C817 C141 1.665 . S
C825 C39 1.676 . S
C849 C73 1.684 . S
C857 C175 1.684 . S
C881 C107 1.683 . S
C889 C209 1.681 . S
