# Generated by pormake.
# Topology uop, (4)-cn, num edge types: 1
# Building blocks:
#     Node 0, Type 0, BuildingBlock: MUDLON_clean_sbu_0, # of connection points: 4
#     Node 1, Type 0, BuildingBlock: MUDLON_clean_sbu_0, # of connection points: 4
#     Node 2, Type 0, BuildingBlock: MUDLON_clean_sbu_0, # of connection points: 4
#     Node 3, Type 0, BuildingBlock: MUDLON_clean_sbu_0, # of connection points: 4
#     Node 4, Type 0, BuildingBlock: MUDLON_clean_sbu_0, # of connection points: 4
#     Node 5, Type 0, BuildingBlock: MUDLON_clean_sbu_0, # of connection points: 4
#     Node 6, Type 0, BuildingBlock: MUDLON_clean_sbu_0, # of connection points: 4
#     Node 7, Type 0, BuildingBlock: MUDLON_clean_sbu_0, # of connection points: 4
#     Node 8, Type 0, BuildingBlock: MUDLON_clean_sbu_0, # of connection points: 4
#     Node 9, Type 0, BuildingBlock: MUDLON_clean_sbu_0, # of connection points: 4
#     Node 10, Type 0, BuildingBlock: MUDLON_clean_sbu_0, # of connection points: 4
#     Node 11, Type 0, BuildingBlock: MUDLON_clean_sbu_0, # of connection points: 4
#     Edge 12, Type (0, 0), BuildingBlock: TEMPAE_clean_linker_10, # of connection points: 2
#     Edge 13, Type (0, 0), BuildingBlock: TEMPAE_clean_linker_10, # of connection points: 2
#     Edge 14, Type (0, 0), BuildingBlock: TEMPAE_clean_linker_10, # of connection points: 2
#     Edge 15, Type (0, 0), BuildingBlock: TEMPAE_clean_linker_10, # of connection points: 2
#     Edge 16, Type (0, 0), BuildingBlock: TEMPAE_clean_linker_10, # of connection points: 2
#     Edge 17, Type (0, 0), BuildingBlock: TEMPAE_clean_linker_10, # of connection points: 2
#     Edge 18, Type (0, 0), BuildingBlock: TEMPAE_clean_linker_10, # of connection points: 2
#     Edge 19, Type (0, 0), BuildingBlock: TEMPAE_clean_linker_10, # of connection points: 2
#     Edge 20, Type (0, 0), BuildingBlock: TEMPAE_clean_linker_10, # of connection points: 2
#     Edge 21, Type (0, 0), BuildingBlock: TEMPAE_clean_linker_10, # of connection points: 2
#     Edge 22, Type (0, 0), BuildingBlock: TEMPAE_clean_linker_10, # of connection points: 2
#     Edge 23, Type (0, 0), BuildingBlock: TEMPAE_clean_linker_10, # of connection points: 2
#     Edge 24, Type (0, 0), BuildingBlock: TEMPAE_clean_linker_10, # of connection points: 2
#     Edge 25, Type (0, 0), BuildingBlock: TEMPAE_clean_linker_10, # of connection points: 2
#     Edge 26, Type (0, 0), BuildingBlock: TEMPAE_clean_linker_10, # of connection points: 2
#     Edge 27, Type (0, 0), BuildingBlock: TEMPAE_clean_linker_10, # of connection points: 2
#     Edge 28, Type (0, 0), BuildingBlock: TEMPAE_clean_linker_10, # of connection points: 2
#     Edge 29, Type (0, 0), BuildingBlock: TEMPAE_clean_linker_10, # of connection points: 2
#     Edge 30, Type (0, 0), BuildingBlock: TEMPAE_clean_linker_10, # of connection points: 2
#     Edge 31, Type (0, 0), BuildingBlock: TEMPAE_clean_linker_10, # of connection points: 2
#     Edge 32, Type (0, 0), BuildingBlock: TEMPAE_clean_linker_10, # of connection points: 2
#     Edge 33, Type (0, 0), BuildingBlock: TEMPAE_clean_linker_10, # of connection points: 2
#     Edge 34, Type (0, 0), BuildingBlock: TEMPAE_clean_linker_10, # of connection points: 2
#     Edge 35, Type (0, 0), BuildingBlock: TEMPAE_clean_linker_10, # of connection points: 2
# Relax obj value: 0.173
# Max RMSD: 0.295
# Mean RMSD: 0.295
data_MOF--net-uop--node1-MUDLON_clean_sbu_0--edge1-TEMPAE_clean_linker_10
_symmetry_space_group_name_H-M    P1
_symmetry_Int_Tables_number       1
_symmetry_cell_setting            triclinic
loop_
_symmetry_equiv_pos_as_xyz
'x, y, z'
_cell_length_a     34.550618
_cell_length_b     34.770528
_cell_length_c     48.295624
_cell_angle_alpha  89.956741
_cell_angle_beta   89.974285
_cell_angle_gamma 119.87237
loop_
_atom_site_label
_atom_site_type_symbol
_atom_site_fract_x
_atom_site_fract_y
_atom_site_fract_z
_atom_type_partial_charge
Mg0 Mg 0.26836 0.40724 0.19592 0.0
C1 C 0.24274 0.47451 0.18071 0.0
O2 O 0.21913 0.44229 0.16322 0.0
C3 C 0.2974 0.36004 0.23397 0.0
O4 O 0.30569 0.34986 0.20931 0.0
C5 C 0.1751 0.32857 0.19719 0.0
O6 O 0.18839 0.32724 0.22247 0.0
O7 O 0.20295 0.35707 0.18029 0.0
O8 O 0.26692 0.4691 0.19841 0.0
O9 O 0.32757 0.42127 0.17194 0.0
C10 C 0.3513 0.45824 0.15973 0.0
O11 O 0.33551 0.48547 0.15703 0.0
O12 O 0.28018 0.38492 0.23564 0.0
Mg13 Mg 0.86305 0.25666 0.54063 0.0
C14 C 0.91306 0.35134 0.53449 0.0
O15 O 0.88746 0.34279 0.55641 0.0
C16 C 0.82123 0.17167 0.50819 0.0
O17 O 0.79398 0.18655 0.50214 0.0
C18 C 0.92442 0.2618 0.58498 0.0
O19 O 0.94135 0.25363 0.56288 0.0
O20 O 0.8885 0.26322 0.5825 0.0
O21 O 0.91088 0.3188 0.52111 0.0
O22 O 0.79875 0.25399 0.53907 0.0
C23 C 0.79215 0.27347 0.51882 0.0
O24 O 0.82407 0.29414 0.50049 0.0
O25 O 0.85553 0.19571 0.52282 0.0
Mg26 Mg 0.61945 0.85332 0.86853 0.0
C27 C 0.52161 0.77966 0.86968 0.0
O28 O 0.51563 0.81125 0.88006 0.0
C29 C 0.6673 0.91292 0.91481 0.0
O30 O 0.6958 0.92908 0.89415 0.0
C31 C 0.67917 0.82776 0.83597 0.0
O32 O 0.64708 0.8148 0.81756 0.0
O33 O 0.67728 0.84717 0.85779 0.0
O34 O 0.56097 0.78804 0.86394 0.0
O35 O 0.60918 0.90147 0.84575 0.0
C36 C 0.57806 0.89039 0.82811 0.0
O37 O 0.55588 0.84902 0.81966 0.0
O38 O 0.62993 0.878 0.91073 0.0
Mg39 Mg 0.75992 0.59426 0.20475 0.0
C40 C 0.75354 0.51593 0.17667 0.0
O41 O 0.75097 0.53927 0.15607 0.0
C42 C 0.76714 0.64703 0.25623 0.0
O43 O 0.7969 0.67887 0.24051 0.0
C44 C 0.84611 0.68153 0.18464 0.0
O45 O 0.82124 0.70015 0.18208 0.0
O46 O 0.82835 0.64129 0.19238 0.0
O47 O 0.7566 0.53041 0.20122 0.0
O48 O 0.70499 0.5888 0.17933 0.0
C49 C 0.67921 0.60136 0.18965 0.0
O50 O 0.69056 0.62315 0.21317 0.0
O51 O 0.74774 0.60742 0.24715 0.0
Mg52 Mg 0.16854 0.76566 0.53202 0.0
C53 C 0.13439 0.67326 0.51935 0.0
O54 O 0.16746 0.68463 0.53685 0.0
C55 C 0.18883 0.84609 0.49612 0.0
O56 O 0.20793 0.82958 0.48034 0.0
C57 C 0.09974 0.74003 0.57426 0.0
O58 O 0.07962 0.73765 0.5507 0.0
O59 O 0.14123 0.75267 0.57375 0.0
O60 O 0.12604 0.70314 0.51107 0.0
O61 O 0.23663 0.77759 0.52897 0.0
C62 C 0.24802 0.76988 0.50546 0.0
O63 O 0.21847 0.75489 0.48538 0.0
O64 O 0.16769 0.8247 0.51757 0.0
Mg65 Mg 0.42161 0.1472 0.8641 0.0
C66 C 0.49841 0.22307 0.83766 0.0
O67 O 0.47425 0.1993 0.81662 0.0
C68 C 0.36252 0.09386 0.91072 0.0
O69 O 0.33361 0.08463 0.8906 0.0
C70 C 0.3779 0.20046 0.85617 0.0
O71 O 0.41262 0.22534 0.87181 0.0
O72 O 0.37143 0.1626 0.84865 0.0
O73 O 0.48484 0.20898 0.86206 0.0
O74 O 0.43258 0.10013 0.84007 0.0
C75 C 0.42039 0.06182 0.84995 0.0
O76 O 0.39621 0.04941 0.87262 0.0
O77 O 0.40346 0.12152 0.90611 0.0
Mg78 Mg 0.61004 0.75725 0.46649 0.0
C79 C 0.55161 0.66666 0.48566 0.0
O80 O 0.52671 0.67536 0.46917 0.0
C81 C 0.69112 0.84782 0.46709 0.0
O82 O 0.69103 0.8364 0.44116 0.0
C83 C 0.65928 0.73039 0.42844 0.0
O84 O 0.67345 0.72664 0.453 0.0
O85 O 0.63133 0.74405 0.42694 0.0
O86 O 0.59123 0.69752 0.49065 0.0
O87 O 0.54987 0.76224 0.46355 0.0
C88 C 0.54851 0.79696 0.47009 0.0
O89 O 0.58573 0.83328 0.47643 0.0
O90 O 0.6622 0.81958 0.48361 0.0
Mg91 Mg 0.86636 0.59493 0.80008 0.0
C92 C 0.76869 0.52377 0.80264 0.0
O93 O 0.76386 0.55891 0.80345 0.0
C94 C 0.91615 0.65172 0.75007 0.0
O95 O 0.91624 0.68269 0.76562 0.0
C96 C 0.8663 0.68082 0.82074 0.0
O97 O 0.91006 0.70039 0.82154 0.0
O98 O 0.84364 0.64026 0.81374 0.0
O99 O 0.80768 0.52902 0.8001 0.0
O100 O 0.91345 0.58841 0.82691 0.0
C101 C 0.95349 0.60387 0.81874 0.0
O102 O 0.9668 0.62921 0.7966 0.0
O103 O 0.89603 0.61183 0.7587 0.0
Mg104 Mg 0.26558 0.8522 0.1321 0.0
C105 C 0.24812 0.76569 0.15504 0.0
O106 O 0.23196 0.78019 0.17445 0.0
C107 C 0.2666 0.90866 0.08535 0.0
O108 O 0.24324 0.91554 0.10417 0.0
C109 C 0.18173 0.83939 0.16533 0.0
O110 O 0.20752 0.85244 0.18732 0.0
O111 O 0.1981 0.83805 0.14202 0.0
O112 O 0.26475 0.78923 0.13343 0.0
O113 O 0.32067 0.89661 0.15912 0.0
C114 C 0.34604 0.93669 0.15175 0.0
O115 O 0.33427 0.95201 0.13045 0.0
O116 O 0.28026 0.88158 0.09081 0.0
Mg117 Mg 0.41755 0.25626 0.46238 0.0
C118 C 0.46381 0.34939 0.47301 0.0
O119 O 0.48326 0.34228 0.45179 0.0
C120 C 0.32435 0.17421 0.4746 0.0
O121 O 0.30793 0.19533 0.46071 0.0
C122 C 0.37496 0.24152 0.40361 0.0
O123 O 0.35269 0.19925 0.41016 0.0
O124 O 0.40341 0.26914 0.4205 0.0
O125 O 0.4311 0.31609 0.48449 0.0
O126 O 0.47923 0.25412 0.4648 0.0
C127 C 0.49955 0.26571 0.48789 0.0
O128 O 0.48229 0.27784 0.50798 0.0
O129 O 0.36615 0.19311 0.47898 0.0
Mg130 Mg 0.16807 0.41027 0.8051 0.0
C131 C 0.25586 0.47919 0.82706 0.0
O132 O 0.24373 0.44706 0.84525 0.0
C133 C 0.10458 0.35487 0.76175 0.0
O134 O 0.08962 0.32974 0.78394 0.0
C135 C 0.20056 0.34655 0.80182 0.0
O136 O 0.2075 0.36382 0.77685 0.0
O137 O 0.18174 0.35879 0.81965 0.0
O138 O 0.2306 0.47301 0.80639 0.0
O139 O 0.11872 0.41965 0.82757 0.0
C140 C 0.12972 0.45195 0.84411 0.0
O141 O 0.17165 0.47588 0.85165 0.0
O142 O 0.13994 0.39245 0.76374 0.0
Mg143 Mg 0.75457 0.14767 0.1382 0.0
C144 C 0.78191 0.24636 0.13449 0.0
O145 O 0.82038 0.25126 0.12631 0.0
C146 C 0.74421 0.08393 0.09459 0.0
O147 O 0.75191 0.06708 0.11688 0.0
C148 C 0.84307 0.19185 0.1695 0.0
O149 O 0.82458 0.21273 0.18137 0.0
O150 O 0.8204 0.16131 0.15212 0.0
O151 O 0.74979 0.20766 0.13963 0.0
O152 O 0.69672 0.09743 0.16061 0.0
C153 C 0.67484 0.10818 0.177 0.0
O154 O 0.69212 0.14994 0.18429 0.0
O155 O 0.74448 0.12053 0.09666 0.0
C156 C 0.27142 0.71067 0.14093 0.0
C157 C 0.24759 0.72309 0.15885 0.0
C158 C 0.27169 0.67074 0.14489 0.0
C159 C 0.24717 0.64236 0.16711 0.0
C160 C 0.22293 0.65466 0.18518 0.0
C161 C 0.2236 0.69492 0.18091 0.0
C162 C 0.29818 0.65888 0.12529 0.0
C163 C 0.19596 0.62511 0.20891 0.0
C164 C 0.21189 0.52029 0.16126 0.0
C165 C 0.24312 0.51721 0.17831 0.0
C166 C 0.21273 0.56073 0.15757 0.0
C167 C 0.24586 0.59923 0.17107 0.0
C168 C 0.27736 0.59636 0.18845 0.0
C169 C 0.27549 0.55532 0.19198 0.0
C170 C 0.17823 0.56226 0.13913 0.0
C171 C 0.31333 0.63676 0.20307 0.0
H172 H 0.29022 0.73235 0.12393 0.0
H173 H 0.20497 0.70415 0.19482 0.0
H174 H 0.32267 0.65351 0.13706 0.0
H175 H 0.27556 0.62737 0.1145 0.0
H176 H 0.31641 0.68504 0.10949 0.0
H177 H 0.1792 0.63963 0.2212 0.0
H178 H 0.17014 0.59239 0.20087 0.0
H179 H 0.21787 0.6191 0.2229 0.0
H180 H 0.18666 0.491 0.15069 0.0
H181 H 0.29989 0.55327 0.20505 0.0
H182 H 0.19492 0.58564 0.12173 0.0
H183 H 0.15919 0.57471 0.15096 0.0
H184 H 0.15432 0.52922 0.13043 0.0
H185 H 0.33413 0.66254 0.18765 0.0
H186 H 0.33537 0.62903 0.21579 0.0
H187 H 0.29799 0.65118 0.21671 0.0
C188 C 0.71032 0.23961 0.52851 0.0
C189 C 0.74891 0.27191 0.5151 0.0
C190 C 0.66889 0.23702 0.52406 0.0
C191 C 0.66627 0.26796 0.50618 0.0
C192 C 0.70526 0.30098 0.4929 0.0
C193 C 0.74601 0.30231 0.49734 0.0
C194 C 0.62788 0.201 0.53831 0.0
C195 C 0.70401 0.33507 0.47409 0.0
C196 C 0.55523 0.2427 0.4746 0.0
C197 C 0.54203 0.26595 0.49237 0.0
C198 C 0.59522 0.24234 0.47915 0.0
C199 C 0.62294 0.26645 0.50169 0.0
C200 C 0.60986 0.29017 0.51956 0.0
C201 C 0.56942 0.28934 0.51481 0.0
C202 C 0.60782 0.21618 0.45986 0.0
C203 C 0.63888 0.31693 0.54351 0.0
H204 H 0.71233 0.21583 0.54209 0.0
H205 H 0.77579 0.32752 0.48703 0.0
H206 H 0.61301 0.21599 0.55185 0.0
H207 H 0.60233 0.18055 0.52267 0.0
H208 H 0.63538 0.17893 0.55108 0.0
H209 H 0.73743 0.35889 0.4656 0.0
H210 H 0.68093 0.31835 0.45655 0.0
H211 H 0.69107 0.35394 0.48559 0.0
H212 H 0.53405 0.22434 0.45733 0.0
H213 H 0.55954 0.30758 0.52854 0.0
H214 H 0.61318 0.19201 0.47187 0.0
H215 H 0.63969 0.23879 0.44924 0.0
H216 H 0.58186 0.19792 0.44392 0.0
H217 H 0.64456 0.29517 0.55773 0.0
H218 H 0.62386 0.3335 0.55549 0.0
H219 H 0.67202 0.34265 0.53573 0.0
C220 C 0.43949 0.72509 0.87067 0.0
C221 C 0.48289 0.73546 0.86325 0.0
C222 C 0.40255 0.68358 0.86425 0.0
C223 C 0.40913 0.65176 0.84991 0.0
C224 C 0.45281 0.66209 0.84225 0.0
C225 C 0.48915 0.70372 0.84907 0.0
C226 C 0.35649 0.67366 0.87294 0.0
C227 C 0.46118 0.62913 0.82685 0.0
C228 C 0.32044 0.53037 0.85673 0.0
C229 C 0.29612 0.52292 0.83212 0.0
C230 C 0.35729 0.57206 0.86271 0.0
C231 C 0.37042 0.60722 0.84355 0.0
C232 C 0.34648 0.59983 0.81847 0.0
C233 C 0.30952 0.55779 0.81308 0.0
C234 C 0.38183 0.57862 0.88973 0.0
C235 C 0.35971 0.63645 0.79744 0.0
H236 H 0.43432 0.74938 0.88159 0.0
H237 H 0.52251 0.71146 0.84312 0.0
H238 H 0.3345 0.66509 0.85455 0.0
H239 H 0.34142 0.6445 0.88698 0.0
H240 H 0.35697 0.70211 0.88372 0.0
H241 H 0.49705 0.64265 0.82186 0.0
H242 H 0.44959 0.59865 0.83947 0.0
H243 H 0.44182 0.61924 0.80728 0.0
H244 H 0.31035 0.50371 0.87162 0.0
H245 H 0.29095 0.55234 0.79402 0.0
H246 H 0.38057 0.60488 0.90206 0.0
H247 H 0.41751 0.58988 0.88566 0.0
H248 H 0.36754 0.54781 0.90234 0.0
H249 H 0.35747 0.66438 0.80682 0.0
H250 H 0.33825 0.62509 0.7787 0.0
H251 H 0.39492 0.6495 0.79103 0.0
C252 C 0.74856 0.45804 0.14388 0.0
C253 C 0.75523 0.47489 0.17093 0.0
C254 C 0.75197 0.42043 0.13763 0.0
C255 C 0.76253 0.39919 0.15891 0.0
C256 C 0.76881 0.41568 0.18633 0.0
C257 C 0.76495 0.45327 0.19204 0.0
C258 C 0.74468 0.40368 0.10817 0.0
C259 C 0.78023 0.39397 0.20956 0.0
C260 C 0.73515 0.28004 0.14774 0.0
C261 C 0.77672 0.28558 0.13979 0.0
C262 C 0.73004 0.3167 0.15398 0.0
C263 C 0.76743 0.35998 0.15235 0.0
C264 C 0.80942 0.36585 0.14419 0.0
C265 C 0.81354 0.3286 0.13794 0.0
C266 C 0.68465 0.30909 0.1624 0.0
C267 C 0.85009 0.4115 0.14227 0.0
H268 H 0.74088 0.4744 0.12743 0.0
H269 H 0.77026 0.46612 0.21297 0.0
H270 H 0.77542 0.405 0.10017 0.0
H271 H 0.71768 0.3685 0.10746 0.0
H272 H 0.73567 0.42334 0.09415 0.0
H273 H 0.78347 0.41046 0.2298 0.0
H274 H 0.75408 0.35858 0.2114 0.0
H275 H 0.81213 0.39489 0.20491 0.0
H276 H 0.70648 0.24695 0.14923 0.0
H277 H 0.84581 0.33321 0.13193 0.0
H278 H 0.67385 0.3268 0.14799 0.0
H279 H 0.6864 0.32279 0.18339 0.0
H280 H 0.65889 0.27335 0.1625 0.0
H281 H 0.84403 0.43205 0.12723 0.0
H282 H 0.88036 0.41042 0.13573 0.0
H283 H 0.85671 0.42833 0.16265 0.0
C284 C 0.5026 0.83372 0.477 0.0
C285 C 0.5049 0.79483 0.4737 0.0
C286 C 0.46164 0.83185 0.48208 0.0
C287 C 0.42221 0.79009 0.48436 0.0
C288 C 0.42432 0.75074 0.48094 0.0
C289 C 0.46555 0.7536 0.47543 0.0
C290 C 0.46055 0.87452 0.4851 0.0
C291 C 0.38311 0.70556 0.4835 0.0
C292 C 0.32155 0.78107 0.52247 0.0
C293 C 0.29345 0.77713 0.50041 0.0
C294 C 0.36383 0.7858 0.51758 0.0
C295 C 0.37852 0.78732 0.48998 0.0
C296 C 0.35072 0.78454 0.46767 0.0
C297 C 0.30844 0.77914 0.47316 0.0
C298 C 0.39232 0.78808 0.5419 0.0
C299 C 0.36541 0.78668 0.43797 0.0
H300 H 0.53285 0.86569 0.47564 0.0
H301 H 0.46705 0.72336 0.47314 0.0
H302 H 0.43723 0.87557 0.46973 0.0
H303 H 0.44796 0.87614 0.50594 0.0
H304 H 0.49399 0.90428 0.48217 0.0
H305 H 0.39055 0.67818 0.4807 0.0
H306 H 0.36764 0.70203 0.50417 0.0
H307 H 0.35806 0.70189 0.46781 0.0
H308 H 0.31008 0.7794 0.54357 0.0
H309 H 0.28706 0.77652 0.45599 0.0
H310 H 0.42533 0.81878 0.54077 0.0
H311 H 0.39839 0.75962 0.54121 0.0
H312 H 0.37653 0.78748 0.56206 0.0
H313 H 0.39803 0.81717 0.43455 0.0
H314 H 0.34084 0.78643 0.42303 0.0
H315 H 0.37007 0.75797 0.43345 0.0
C316 C 0.56432 0.29333 0.85486 0.0
C317 C 0.53956 0.26613 0.8327 0.0
C318 C 0.60244 0.33485 0.85012 0.0
C319 C 0.61606 0.34947 0.8226 0.0
C320 C 0.59155 0.3219 0.80019 0.0
C321 C 0.55365 0.28062 0.80551 0.0
C322 C 0.62779 0.36334 0.87456 0.0
C323 C 0.60499 0.33628 0.77054 0.0
C324 C 0.68659 0.47331 0.80921 0.0
C325 C 0.72955 0.47887 0.80671 0.0
C326 C 0.64941 0.43139 0.81436 0.0
C327 C 0.65529 0.39409 0.81716 0.0
C328 C 0.69848 0.39936 0.81445 0.0
C329 C 0.73508 0.44167 0.80921 0.0
C330 C 0.60384 0.42707 0.81693 0.0
C331 C 0.70605 0.36036 0.8173 0.0
H332 H 0.55369 0.2824 0.87593 0.0
H333 H 0.53482 0.25984 0.78823 0.0
H334 H 0.66328 0.37191 0.87348 0.0
H335 H 0.62718 0.39493 0.87395 0.0
H336 H 0.61365 0.34665 0.89466 0.0
H337 H 0.58303 0.31047 0.75547 0.0
H338 H 0.6037 0.36699 0.76632 0.0
H339 H 0.63989 0.34408 0.76702 0.0
H340 H 0.68195 0.50181 0.80731 0.0
H341 H 0.76815 0.44564 0.80739 0.0
H342 H 0.58944 0.41354 0.8376 0.0
H343 H 0.58092 0.40338 0.80125 0.0
H344 H 0.6049 0.4593 0.81413 0.0
H345 H 0.69477 0.34491 0.83801 0.0
H346 H 0.7417 0.37001 0.81462 0.0
H347 H 0.68597 0.33471 0.80168 0.0
C348 C 0.60268 0.59138 0.19363 0.0
C349 C 0.63349 0.58463 0.17851 0.0
C350 C 0.55751 0.57045 0.18612 0.0
C351 C 0.54263 0.54255 0.16256 0.0
C352 C 0.57393 0.53759 0.14622 0.0
C353 C 0.61898 0.55842 0.15451 0.0
C354 C 0.52533 0.57654 0.20427 0.0
C355 C 0.55958 0.50897 0.12061 0.0
C356 C 0.42063 0.45405 0.16805 0.0
C357 C 0.3996 0.47491 0.15508 0.0
C358 C 0.46737 0.47452 0.16914 0.0
C359 C 0.49382 0.51651 0.15652 0.0
C360 C 0.47279 0.53585 0.14131 0.0
C361 C 0.42593 0.51502 0.14098 0.0
C362 C 0.4883 0.45279 0.18574 0.0
C363 C 0.49972 0.57998 0.12694 0.0
H364 H 0.61343 0.61161 0.21216 0.0
H365 H 0.64252 0.55313 0.1426 0.0
H366 H 0.50649 0.58846 0.19175 0.0
H367 H 0.50067 0.54421 0.21347 0.0
H368 H 0.54247 0.60051 0.22134 0.0
H369 H 0.58855 0.51326 0.1082 0.0
H370 H 0.53943 0.47359 0.12667 0.0
H371 H 0.53819 0.51687 0.10739 0.0
H372 H 0.40067 0.42305 0.17899 0.0
H373 H 0.41 0.53119 0.13067 0.0
H374 H 0.50356 0.4724 0.20479 0.0
H375 H 0.51532 0.45211 0.17373 0.0
H376 H 0.46355 0.41832 0.19191 0.0
H377 H 0.51368 0.60687 0.1426 0.0
H378 H 0.47911 0.58673 0.11221 0.0
H379 H 0.52821 0.58124 0.11554 0.0
C380 C 0.06392 0.61102 0.49903 0.0
C381 C 0.10448 0.62569 0.51298 0.0
C382 C 0.03253 0.56549 0.49716 0.0
C383 C 0.04189 0.5342 0.50978 0.0
C384 C 0.08406 0.54876 0.52212 0.0
C385 C 0.11487 0.59423 0.52341 0.0
C386 C 0.98826 0.55115 0.48334 0.0
C387 C 0.09541 0.51664 0.53597 0.0
C388 C 0.9487 0.4322 0.5441 0.0
C389 C 0.94413 0.39802 0.52659 0.0
C390 C 0.97927 0.47666 0.53824 0.0
C391 C 1.00582 0.48751 0.51405 0.0
C392 C 1.00028 0.4534 0.49566 0.0
C393 C 0.96964 0.4089 0.50225 0.0
C394 C 0.98433 0.51189 0.55859 0.0
C395 C 0.02754 0.46381 0.46947 0.0
H396 H 0.05579 0.63508 0.49069 0.0
H397 H 0.14638 0.60516 0.5339 0.0
H398 H 0.97835 0.5215 0.47022 0.0
H399 H 0.9621 0.54194 0.49938 0.0
H400 H 0.98918 0.57797 0.47034 0.0
H401 H 0.13117 0.53263 0.54192 0.0
H402 H 0.07485 0.50308 0.55495 0.0
H403 H 0.08759 0.48827 0.52212 0.0
H404 H 0.92906 0.42423 0.56292 0.0
H405 H 0.96601 0.38268 0.4885 0.0
H406 H 0.98005 0.53777 0.5479 0.0
H407 H 0.01843 0.52837 0.56755 0.0
H408 H 0.9598 0.49809 0.57582 0.0
H409 H 0.02655 0.49085 0.45784 0.0
H410 H 0.01552 0.4344 0.45577 0.0
H411 H 0.06293 0.47562 0.47478 0.0
C412 C 0.43083 0.99593 0.8533 0.0
C413 C 0.43965 0.03486 0.83933 0.0
C414 C 0.45392 0.9735 0.84674 0.0
C415 C 0.48632 0.98996 0.82537 0.0
C416 C 0.49338 0.02759 0.80995 0.0
C417 C 0.47014 0.04981 0.81723 0.0
C418 C 0.44534 0.93353 0.86378 0.0
C419 C 0.52693 0.0456 0.78666 0.0
C420 C 0.57681 0.96055 0.83739 0.0
C421 C 0.56032 0.92075 0.82254 0.0
C422 C 0.55453 0.98503 0.83705 0.0
C423 C 0.51513 0.96974 0.82115 0.0
C424 C 0.50054 0.93177 0.80423 0.0
C425 C 0.52315 0.90754 0.80524 0.0
C426 C 0.57127 0.0253 0.85545 0.0
C427 C 0.45932 0.91498 0.78648 0.0
H428 H 0.40718 0.98388 0.87029 0.0
H429 H 0.47704 0.07973 0.8062 0.0
H430 H 0.43735 0.90494 0.85009 0.0
H431 H 0.47588 0.941 0.87555 0.0
H432 H 0.41746 0.92361 0.8787 0.0
H433 H 0.52366 0.07062 0.7741 0.0
H434 H 0.56119 0.06149 0.79532 0.0
H435 H 0.523 0.01838 0.77286 0.0
H436 H 0.60565 0.9713 0.85068 0.0
H437 H 0.51038 0.8771 0.79346 0.0
H438 H 0.54743 0.01793 0.87277 0.0
H439 H 0.5733 0.0537 0.84375 0.0
H440 H 0.60465 0.03539 0.86432 0.0
H441 H 0.42921 0.89905 0.79985 0.0
H442 H 0.45694 0.89022 0.77105 0.0
H443 H 0.45899 0.94279 0.77542 0.0
C444 C 0.49371 0.58669 0.48491 0.0
C445 C 0.53592 0.62004 0.49374 0.0
C446 C 0.48109 0.54179 0.48704 0.0
C447 C 0.51106 0.52977 0.49881 0.0
C448 C 0.55188 0.56299 0.51027 0.0
C449 C 0.56408 0.60791 0.50738 0.0
C450 C 0.43742 0.50761 0.4743 0.0
C451 C 0.58411 0.55136 0.52375 0.0
C452 C 0.46346 0.40514 0.50616 0.0
C453 C 0.47832 0.39553 0.48147 0.0
C454 C 0.47592 0.44916 0.51307 0.0
C455 C 0.5029 0.48395 0.49453 0.0
C456 C 0.51891 0.47439 0.47 0.0
C457 C 0.50677 0.43047 0.46395 0.0
C458 C 0.45921 0.45827 0.53975 0.0
C459 C 0.54723 0.51029 0.4494 0.0
H460 H 0.47136 0.59563 0.47471 0.0
H461 H 0.59651 0.63343 0.5146 0.0
H462 H 0.44424 0.49424 0.45521 0.0
H463 H 0.41876 0.47939 0.48867 0.0
H464 H 0.41581 0.52173 0.46878 0.0
H465 H 0.60927 0.57911 0.53654 0.0
H466 H 0.56609 0.52145 0.53699 0.0
H467 H 0.602 0.54374 0.5075 0.0
H468 H 0.44184 0.37832 0.51993 0.0
H469 H 0.51852 0.42343 0.44484 0.0
H470 H 0.43297 0.46686 0.53516 0.0
H471 H 0.48664 0.48701 0.55065 0.0
H472 H 0.44487 0.42911 0.55384 0.0
H473 H 0.52803 0.5255 0.44105 0.0
H474 H 0.55813 0.49746 0.43176 0.0
H475 H 0.57734 0.53695 0.4597 0.0
C476 C 0.0214 0.59597 0.81678 0.0
C477 C 0.98142 0.58614 0.8301 0.0
C478 C 0.04446 0.57366 0.82377 0.0
C479 C 0.02758 0.5411 0.84493 0.0
C480 C 0.98896 0.53321 0.8598 0.0
C481 C 0.96613 0.55561 0.85209 0.0
C482 C 0.08549 0.58311 0.80731 0.0
C483 C 0.97051 0.49954 0.88292 0.0
C484 C 0.05893 0.45223 0.8337 0.0
C485 C 0.09844 0.46885 0.84914 0.0
C486 C 0.03394 0.47401 0.8335 0.0
C487 C 0.04837 0.51296 0.84947 0.0
C488 C 0.08597 0.52762 0.86697 0.0
C489 C 0.11076 0.50557 0.86646 0.0
C490 C 0.99408 0.45723 0.81449 0.0
C491 C 0.10179 0.56831 0.88484 0.0
H492 H 0.03368 0.61962 0.79986 0.0
H493 H 0.93542 0.54798 0.86264 0.0
H494 H 0.11385 0.59114 0.82141 0.0
H495 H 0.07884 0.55314 0.79541 0.0
H496 H 0.09567 0.61107 0.79256 0.0
H497 H 0.94476 0.50226 0.89517 0.0
H498 H 0.95513 0.46564 0.8741 0.0
H499 H 0.99763 0.5036 0.89703 0.0
H500 H 0.04893 0.42378 0.82034 0.0
H501 H 0.14098 0.51839 0.8787 0.0
H502 H 1.00181 0.4812 0.7973 0.0
H503 H 0.96486 0.45452 0.82577 0.0
H504 H 0.98473 0.42435 0.80546 0.0
H505 H 0.11798 0.59841 0.87164 0.0
H506 H 0.12628 0.5708 0.90065 0.0
H507 H 0.07322 0.56811 0.89548 0.0
C508 C 0.42246 1.00304 0.15037 0.0
C509 C 0.392 0.96283 0.16303 0.0
C510 C 0.46789 0.02493 0.15727 0.0
C511 C 0.48339 1.00669 0.17776 0.0
C512 C 0.45243 0.96767 0.19195 0.0
C513 C 0.4071 0.94596 0.18427 0.0
C514 C 0.49969 0.06636 0.14148 0.0
C515 C 0.46745 0.94779 0.21438 0.0
C516 C 0.60407 0.03812 0.16601 0.0
C517 C 0.6267 0.07679 0.182 0.0
C518 C 0.55725 0.01325 0.16581 0.0
C519 C 0.53239 0.02687 0.18238 0.0
C520 C 0.5551 0.06349 0.20043 0.0
C521 C 0.602 0.08827 0.19986 0.0
C522 C 0.53447 0.97456 0.14613 0.0
C523 C 0.52989 0.07838 0.21898 0.0
H524 H 0.41124 0.01654 0.13403 0.0
H525 H 0.38381 0.91504 0.19429 0.0
H526 H 0.51969 0.09385 0.15605 0.0
H527 H 0.52335 0.06015 0.12938 0.0
H528 H 0.48208 0.07728 0.127 0.0
H529 H 0.43883 0.9216 0.22619 0.0
H530 H 0.4862 0.93287 0.20496 0.0
H531 H 0.49031 0.97383 0.229 0.0
H532 H 0.62276 0.02881 0.1522 0.0
H533 H 0.61918 0.11781 0.21252 0.0
H534 H 0.51841 0.98319 0.12921 0.0
H535 H 0.50783 0.94509 0.15695 0.0
H536 H 0.55823 0.96551 0.13676 0.0
H537 H 0.51589 0.09521 0.20635 0.0
H538 H 0.55176 0.10188 0.23514 0.0
H539 H 0.50153 0.0495 0.22921 0.0
C540 C 0.33509 0.32287 0.25658 0.0
C541 C 0.30846 0.34274 0.25901 0.0
C542 C 0.34608 0.30603 0.27982 0.0
C543 C 0.32969 0.30864 0.30619 0.0
C544 C 0.30261 0.32847 0.30882 0.0
C545 C 0.29252 0.34554 0.28521 0.0
C546 C 0.37549 0.28566 0.27616 0.0
C547 C 0.28422 0.33154 0.33657 0.0
C548 C 0.32648 0.23002 0.36222 0.0
C549 C 0.36438 0.25792 0.37793 0.0
C550 C 0.31459 0.24615 0.33894 0.0
C551 C 0.34148 0.29113 0.33101 0.0
C552 C 0.38014 0.31926 0.34654 0.0
C553 C 0.39101 0.30238 0.36984 0.0
C554 C 0.273 0.21517 0.32297 0.0
C555 C 0.41 0.36726 0.33857 0.0
H556 H 0.34779 0.32076 0.23645 0.0
H557 H 0.27179 0.36067 0.28723 0.0
H558 H 0.40603 0.30376 0.28896 0.0
H559 H 0.35774 0.25074 0.28341 0.0
H560 H 0.38563 0.28631 0.25425 0.0
H561 H 0.26303 0.34719 0.33507 0.0
H562 H 0.26405 0.29792 0.34564 0.0
H563 H 0.31203 0.35119 0.35112 0.0
H564 H 0.30555 0.19572 0.3684 0.0
H565 H 0.4204 0.32421 0.38181 0.0
H566 H 0.2817 0.2129 0.30115 0.0
H567 H 0.24969 0.22843 0.32269 0.0
H568 H 0.25544 0.18125 0.33197 0.0
H569 H 0.42256 0.36946 0.31715 0.0
H570 H 0.43905 0.38466 0.35269 0.0
H571 H 0.39072 0.38495 0.33888 0.0
C572 C 0.93743 0.29157 0.63346 0.0
C573 C 0.94903 0.27273 0.61159 0.0
C574 C 0.96261 0.30482 0.65799 0.0
C575 C 1.0 0.2987 0.66081 0.0
C576 C 1.01131 0.27889 0.63903 0.0
C577 C 0.98582 0.26632 0.61466 0.0
C578 C 0.94962 0.326 0.68073 0.0
C579 C 0.05062 0.27133 0.64136 0.0
C580 C 0.09035 0.36937 0.71292 0.0
C581 C 0.07903 0.3403 0.73549 0.0
C582 C 0.06487 0.35631 0.68849 0.0
C583 C 0.02739 0.31306 0.68653 0.0
C584 C 0.01618 0.28341 0.70911 0.0
C585 C 0.04203 0.29741 0.73331 0.0
C586 C 0.07779 0.38892 0.66487 0.0
C587 C 0.97672 0.2369 0.70775 0.0
H588 H 0.90921 0.29685 0.63119 0.0
H589 H 0.99496 0.25166 0.59791 0.0
H590 H 0.94305 0.30673 0.70019 0.0
H591 H 0.97756 0.35995 0.68489 0.0
H592 H 0.91945 0.32811 0.67541 0.0
H593 H 0.05438 0.25461 0.6228 0.0
H594 H 0.08181 0.30351 0.64415 0.0
H595 H 0.04674 0.25074 0.65984 0.0
H596 H 0.11877 0.4026 0.71445 0.0
H597 H 0.03306 0.27466 0.75061 0.0
H598 H 0.04973 0.39471 0.65995 0.0
H599 H 0.08461 0.37507 0.64601 0.0
H600 H 0.1078 0.4213 0.66967 0.0
H601 H 0.94562 0.23813 0.70428 0.0
H602 H 0.9728 0.21773 0.72698 0.0
H603 H 0.98058 0.21885 0.69 0.0
C604 C 0.64552 0.92508 0.96224 0.0
C605 C 0.67819 0.9366 0.94169 0.0
C606 C 0.6554 0.9489 0.98722 0.0
C607 C 0.69907 0.98479 0.99181 0.0
C608 C 0.73226 0.99619 0.97128 0.0
C609 C 0.72139 0.97209 0.94647 0.0
C610 C 0.61907 0.9359 0.0086 0.0
C611 C 0.77932 0.03394 0.97549 0.0
C612 C 0.71802 0.07291 0.04524 0.0
C613 C 0.73341 0.05933 0.06804 0.0
C614 C 0.70626 0.0487 0.02038 0.0
C615 C 0.71033 0.01023 0.01821 0.0
C616 C 0.72611 0.99656 0.04109 0.0
C617 C 0.7373 0.02116 0.06572 0.0
C618 C 0.68938 0.06422 0.99645 0.0
C619 C 0.73133 0.95599 0.03952 0.0
H620 H 0.61202 0.89785 0.95866 0.0
H621 H 0.74691 0.98118 0.93075 0.0
H622 H 0.62911 0.92699 0.02832 0.0
H623 H 0.61403 0.96443 0.01296 0.0
H624 H 0.58679 0.90737 0.0018 0.0
H625 H 0.80133 0.03835 0.95757 0.0
H626 H 0.779 0.06535 0.9788 0.0
H627 H 0.79394 0.02789 0.9943 0.0
H628 H 0.7147 0.10222 0.04689 0.0
H629 H 0.74922 0.01042 0.0832 0.0
H630 H 0.65573 0.0375 0.99018 0.0
H631 H 0.71172 0.07169 0.9783 0.0
H632 H 0.6874 0.09432 0.00162 0.0
H633 H 0.6988 0.92635 0.03452 0.0
H634 H 0.74392 0.94971 0.05919 0.0
H635 H 0.75486 0.96002 0.02264 0.0
C636 C 0.70729 0.70458 0.40559 0.0
C637 C 0.67529 0.71808 0.40328 0.0
C638 C 0.72268 0.6923 0.38219 0.0
C639 C 0.70563 0.69339 0.35575 0.0
C640 C 0.67328 0.70691 0.35322 0.0
C641 C 0.65854 0.71917 0.37701 0.0
C642 C 0.75732 0.67828 0.38575 0.0
C643 C 0.65427 0.70844 0.32537 0.0
C644 C 0.77446 0.70202 0.2922 0.0
C645 C 0.75293 0.65808 0.28263 0.0
C646 C 0.75958 0.71387 0.31604 0.0
C647 C 0.72219 0.68103 0.3307 0.0
C648 C 0.70071 0.63648 0.32144 0.0
C649 C 0.71637 0.62551 0.29754 0.0
C650 C 0.78357 0.76169 0.32533 0.0
C651 C 0.66078 0.60051 0.33657 0.0
H652 H 0.72048 0.70363 0.42578 0.0
H653 H 0.63376 0.72945 0.37502 0.0
H654 H 0.74438 0.6442 0.37763 0.0
H655 H 0.78767 0.70053 0.37364 0.0
H656 H 0.767 0.67896 0.40776 0.0
H657 H 0.62898 0.71919 0.32694 0.0
H658 H 0.68146 0.73166 0.31143 0.0
H659 H 0.63853 0.67521 0.31555 0.0
H660 H 0.80276 0.72743 0.28086 0.0
H661 H 0.69941 0.59152 0.29027 0.0
H662 H 0.79557 0.76408 0.34691 0.0
H663 H 0.7602 0.77487 0.32519 0.0
H664 H 0.81256 0.78308 0.31189 0.0
H665 H 0.66958 0.5988 0.35845 0.0
H666 H 0.64823 0.56738 0.32694 0.0
H667 H 0.63338 0.60841 0.33675 0.0
C668 C 0.02839 0.71483 0.60003 0.0
C669 C 0.07376 0.72717 0.60043 0.0
C670 C 1.00267 0.70198 0.6243 0.0
C671 C 0.02268 0.70132 0.64971 0.0
C672 C 0.06843 0.71363 0.65033 0.0
C673 C 0.09348 0.72647 0.62567 0.0
C674 C 0.95405 0.68925 0.62275 0.0
C675 C 0.0909 0.71329 0.67706 0.0
C676 C 0.96624 0.70845 0.71551 0.0
C677 C 0.94244 0.66394 0.72401 0.0
C678 C 0.99283 0.72108 0.69157 0.0
C679 C 0.99571 0.68844 0.67564 0.0
C680 C 0.9717 0.64344 0.68402 0.0
C681 C 0.94536 0.63172 0.70811 0.0
C682 C 0.01779 0.7694 0.68329 0.0
C683 C 0.9738 0.60766 0.66751 0.0
H684 H 1.01277 0.71522 0.58065 0.0
H685 H 0.12845 0.73583 0.62616 0.0
H686 H 0.9328 0.65496 0.63058 0.0
H687 H 0.94781 0.71151 0.63614 0.0
H688 H 0.94344 0.69112 0.60131 0.0
H689 H 0.12656 0.72324 0.67401 0.0
H690 H 0.08888 0.73626 0.69215 0.0
H691 H 0.07336 0.67964 0.68637 0.0
H692 H 0.96434 0.73365 0.72767 0.0
H693 H 0.92724 0.59728 0.71455 0.0
H694 H 1.0067 0.77353 0.66249 0.0
H695 H 0.05406 0.78122 0.68188 0.0
H696 H 1.01263 0.79079 0.69817 0.0
H697 H 0.96133 0.60662 0.64621 0.0
H698 H 0.95375 0.57433 0.67704 0.0
H699 H 1.00892 0.61524 0.6657 0.0
C700 C 0.27241 0.97108 0.05654 0.0
C701 C 0.28009 0.93526 0.05949 0.0
C702 C 0.28627 0.99783 0.03275 0.0
C703 C 0.30793 0.98831 0.01118 0.0
C704 C 0.31549 0.952 0.01388 0.0
C705 C 0.3017 0.92604 0.03809 0.0
C706 C 0.2779 0.03645 0.03078 0.0
C707 C 0.33803 0.94051 0.99117 0.0
C708 C 0.30523 0.03137 0.93929 0.0
C709 C 0.34828 0.06828 0.93696 0.0
C710 C 0.29181 1.00497 0.96324 0.0
C711 C 0.32197 0.01598 0.9856 0.0
C712 C 0.36524 0.0536 0.9836 0.0
C713 C 0.37798 0.07917 0.95923 0.0
C714 C 0.24549 0.96498 0.96448 0.0
C715 C 0.39812 0.06673 0.00716 0.0
H716 H 0.25598 0.97867 0.07302 0.0
H717 H 0.30775 0.89843 0.0402 0.0
H718 H 0.30994 0.06774 0.02768 0.0
H719 H 0.25655 0.03224 0.01259 0.0
H720 H 0.26136 0.03988 0.04959 0.0
H721 H 0.34123 0.9111 0.99639 0.0
H722 H 0.31874 0.93368 0.97166 0.0
H723 H 0.37182 0.96904 0.98715 0.0
H724 H 0.28209 0.02251 0.92215 0.0
H725 H 0.41128 0.10764 0.95762 0.0
H726 H 0.22677 0.96808 0.98219 0.0
H727 H 0.24764 0.93455 0.96793 0.0
H728 H 0.22619 0.96073 0.94522 0.0
H729 H 0.38364 0.07235 0.0262 0.0
H730 H 0.4302 0.0973 0.00253 0.0
H731 H 0.40507 0.03947 0.01169 0.0
C732 C 0.91166 0.18578 0.16088 0.0
C733 C 0.89121 0.20721 0.17388 0.0
C734 C 0.95783 0.20204 0.16339 0.0
C735 C 0.98429 0.24079 0.17915 0.0
C736 C 0.96374 0.26219 0.19262 0.0
C737 C 0.91754 0.2451 0.1899 0.0
C738 C 0.9784 0.17807 0.14892 0.0
C739 C 0.99069 0.30363 0.2096 0.0
C740 C 0.09747 0.2684 0.20826 0.0
C741 C 0.12691 0.30196 0.19022 0.0
C742 C 0.05107 0.24684 0.20421 0.0
C743 C 0.03351 0.25931 0.18166 0.0
C744 C 0.0631 0.2918 0.16267 0.0
C745 C 0.10945 0.31261 0.16711 0.0
C746 C 0.02079 0.21206 0.22477 0.0
C747 C 0.04575 0.30612 0.13839 0.0
H748 H 0.89166 0.15651 0.14845 0.0
H749 H 0.90221 0.26203 0.19996 0.0
H750 H 1.00339 0.20041 0.13355 0.0
H751 H 0.99626 0.16858 0.16411 0.0
H752 H 0.95311 0.14771 0.13808 0.0
H753 H 0.96968 0.31621 0.21885 0.0
H754 H 1.0082 0.2969 0.22654 0.0
H755 H 0.0166 0.33011 0.19643 0.0
H756 H 0.11062 0.25973 0.22609 0.0
H757 H 0.13187 0.33857 0.15309 0.0
H758 H 0.99618 0.18154 0.21383 0.0
H759 H 1.00172 0.22449 0.2366 0.0
H760 H 0.03964 0.20326 0.23967 0.0
H761 H 0.02163 0.27682 0.12628 0.0
H762 H 0.07298 0.32923 0.12438 0.0
H763 H 0.02768 0.32292 0.14606 0.0
C764 C 0.76958 0.09892 0.48601 0.0
C765 C 0.80891 0.1255 0.50089 0.0
C766 C 0.75476 0.05395 0.4811 0.0
C767 C 0.77994 0.03494 0.4912 0.0
C768 C 0.82039 0.06181 0.50552 0.0
C769 C 0.83441 0.10681 0.51023 0.0
C770 C 0.71148 0.02651 0.46566 0.0
C771 C 0.84827 0.04278 0.51643 0.0
C772 C 0.71156 0.91007 0.50062 0.0
C773 C 0.71924 0.89488 0.47544 0.0
C774 C 0.73296 0.95561 0.50669 0.0
C775 C 0.76292 0.98665 0.48719 0.0
C776 C 0.77292 0.97133 0.46256 0.0
C777 C 0.75091 0.92565 0.45696 0.0
C778 C 0.72146 0.97059 0.53323 0.0
C779 C 0.80494 1.00328 0.44135 0.0
H780 H 0.74966 0.11299 0.47865 0.0
H781 H 0.86483 0.12706 0.52176 0.0
H782 H 0.71719 0.01079 0.44731 0.0
H783 H 0.68712 0.99945 0.4792 0.0
H784 H 0.6964 0.04655 0.45861 0.0
H785 H 0.88009 0.06857 0.52574 0.0
H786 H 0.82917 0.01729 0.53239 0.0
H787 H 0.85601 0.02609 0.49952 0.0
H788 H 0.68724 0.88658 0.51506 0.0
H789 H 0.75737 0.91423 0.43755 0.0
H790 H 0.70219 0.98746 0.52837 0.0
H791 H 0.75227 0.99489 0.54415 0.0
H792 H 0.70124 0.94243 0.54744 0.0
H793 H 0.78985 0.02145 0.43137 0.0
H794 H 0.8132 0.98609 0.42498 0.0
H795 H 0.83633 0.02827 0.45143 0.0
C796 C 0.86549 0.75259 0.82189 0.0
C797 C 0.84302 0.70639 0.82534 0.0
C798 C 0.84247 0.7764 0.82363 0.0
C799 C 0.79611 0.75353 0.82946 0.0
C800 C 0.77366 0.70709 0.83387 0.0
C801 C 0.79727 0.68408 0.8315 0.0
C802 C 0.86743 0.82577 0.81841 0.0
C803 C 0.72445 0.68152 0.84066 0.0
C804 C 0.73751 0.81382 0.85673 0.0
C805 C 0.71337 0.814 0.83339 0.0
C806 C 0.76569 0.79551 0.85556 0.0
C807 C 0.7705 0.77763 0.83032 0.0
C808 C 0.74805 0.77982 0.80635 0.0
C809 C 0.71946 0.79762 0.80822 0.0
C810 C 0.7885 0.79329 0.88168 0.0
C811 C 0.75294 0.76187 0.77891 0.0
H812 H 0.90077 0.76999 0.8169 0.0
H813 H 0.77974 0.64841 0.83434 0.0
H814 H 0.8535 0.83341 0.79988 0.0
H815 H 0.86311 0.84353 0.83616 0.0
H816 H 0.90368 0.83887 0.81505 0.0
H817 H 0.7125 0.64593 0.8449 0.0
H818 H 0.71737 0.69615 0.85904 0.0
H819 H 0.70494 0.68378 0.82313 0.0
H820 H 0.73292 0.82625 0.87631 0.0
H821 H 0.70117 0.79788 0.79006 0.0
H822 H 0.82474 0.80717 0.878 0.0
H823 H 0.77465 0.75813 0.88795 0.0
H824 H 0.78402 0.81156 0.89911 0.0
H825 H 0.78876 0.77548 0.77386 0.0
H826 H 0.73683 0.76997 0.76172 0.0
H827 H 0.7375 0.72529 0.78022 0.0
C828 C 0.91708 0.75363 0.17604 0.0
C829 C 0.89526 0.70763 0.18049 0.0
C830 C 0.96386 0.77856 0.17343 0.0
C831 C 0.98939 0.75697 0.17521 0.0
C832 C 0.96748 0.71052 0.17938 0.0
C833 C 0.92084 0.6865 0.18199 0.0
C834 C 0.98601 0.82803 0.16899 0.0
C835 C 0.99334 0.6861 0.18121 0.0
C836 C 0.10568 0.80732 0.14412 0.0
C837 C 0.13293 0.82235 0.16775 0.0
C838 C 0.05907 0.78748 0.14615 0.0
C839 C 0.039 0.78252 0.17244 0.0
C840 C 0.06636 0.79912 0.19627 0.0
C841 C 0.11298 0.81881 0.19365 0.0
C842 C 0.03119 0.77027 0.12022 0.0
C843 C 0.04627 0.79463 0.22467 0.0
H844 H 0.89769 0.7703 0.17493 0.0
H845 H 0.90442 0.65099 0.18536 0.0
H846 H 1.00978 0.84563 0.18608 0.0
H847 H 1.00556 0.83733 0.14947 0.0
H848 H 0.96149 0.83982 0.16797 0.0
H849 H 0.97129 0.64989 0.18443 0.0
H850 H 1.01283 0.69127 0.16194 0.0
H851 H 0.0175 0.69948 0.19858 0.0
H852 H 0.12066 0.81007 0.12396 0.0
H853 H 0.13366 0.83041 0.21201 0.0
H854 H 1.00773 0.78324 0.11863 0.0
H855 H 1.01083 0.73356 0.12119 0.0
H856 H 0.05196 0.7796 0.10117 0.0
H857 H 0.02294 0.80786 0.22461 0.0
H858 H 0.07209 0.81231 0.24078 0.0
H859 H 0.02668 0.75905 0.23042 0.0
C860 C 0.22496 0.91702 0.46921 0.0
C861 C 0.19817 0.89217 0.49154 0.0
C862 C 0.23985 0.96251 0.46679 0.0
C863 C 0.22759 0.98377 0.48716 0.0
C864 C 0.19841 0.9584 0.50885 0.0
C865 C 0.18405 0.91288 0.5108 0.0
C866 C 0.27075 0.98829 0.44323 0.0
C867 C 0.1843 0.97975 0.53085 0.0
C868 C 0.31367 0.10499 0.49732 0.0
C869 C 0.29621 0.12635 0.48118 0.0
C870 C 0.29061 0.05875 0.50045 0.0
C871 C 0.24898 0.03305 0.48709 0.0
C872 C 0.22997 0.05451 0.47201 0.0
C873 C 0.2538 0.10097 0.46926 0.0
C874 C 0.31193 0.03727 0.51693 0.0
C875 C 0.18556 0.02828 0.45761 0.0
H876 H 0.23584 0.90133 0.45411 0.0
H877 H 0.16317 0.89396 0.52807 0.0
H878 H 0.25852 0.00837 0.43246 0.0
H879 H 0.3044 0.0116 0.45154 0.0
H880 H 0.27401 0.96632 0.42786 0.0
H881 H 0.15723 0.95478 0.54421 0.0
H882 H 0.21334 1.00119 0.54414 0.0
H883 H 0.17271 1.00123 0.52126 0.0
H884 H 0.34623 0.12433 0.50682 0.0
H885 H 0.24001 0.11714 0.45675 0.0
H886 H 0.32064 0.01744 0.50291 0.0
H887 H 0.28815 0.01422 0.53257 0.0
H888 H 0.34275 0.06203 0.52772 0.0
H889 H 0.18906 0.00977 0.43999 0.0
H890 H 0.17293 0.04991 0.44954 0.0
H891 H 0.16035 1.0035 0.47193 0.0
C892 C 0.21594 0.30182 0.83657 0.0
C893 C 0.21866 0.31713 0.80935 0.0
C894 C 0.23731 0.27795 0.84423 0.0
C895 C 0.26219 0.26946 0.82425 0.0
C896 C 0.26328 0.28305 0.7965 0.0
C897 C 0.24142 0.30652 0.78939 0.0
C898 C 0.23495 0.2636 0.87397 0.0
C899 C 0.28959 0.27495 0.77457 0.0
C900 C 0.36288 0.26281 0.84913 0.0
C901 C 0.34776 0.2172 0.84762 0.0
C902 C 0.33529 0.28 0.84165 0.0
C903 C 0.29104 0.25086 0.83283 0.0
C904 C 0.27532 0.20467 0.83145 0.0
C905 C 0.30405 0.18838 0.83862 0.0
C906 C 0.35375 0.32955 0.84293 0.0
C907 C 0.22817 0.17253 0.8225 0.0
H908 H 0.19824 0.30961 0.8521 0.0
H909 H 0.2435 0.31787 0.76825 0.0
H910 H 0.22619 0.22829 0.87503 0.0
H911 H 0.26814 0.28351 0.88383 0.0
H912 H 0.21009 0.26792 0.88615 0.0
H913 H 0.28382 0.28401 0.75352 0.0
H914 H 0.32575 0.29489 0.77929 0.0
H915 H 0.28068 0.23959 0.77447 0.0
H916 H 0.39671 0.28535 0.85589 0.0
H917 H 0.29208 0.15308 0.83761 0.0
H918 H 0.33322 0.33721 0.85709 0.0
H919 H 0.35219 0.34228 0.82213 0.0
H920 H 0.38891 0.34767 0.85021 0.0
H921 H 0.20415 0.17602 0.83603 0.0
H922 H 0.22066 0.13754 0.82326 0.0
H923 H 0.22267 0.18024 0.80106 0.0
loop_
_geom_bond_atom_site_label_1
_geom_bond_atom_site_label_2
_geom_bond_distance
_geom_bond_site_symmetry_2
_ccdc_geom_bond_type
Mg0 O7 2.141 . S
Mg0 O8 2.048 . S
Mg0 O9 2.048 . S
Mg0 O12 2.141 . S
C1 O2 1.313 . S
C1 O8 1.195 . S
O2 C1 1.313 . S
C3 O4 1.245 . S
C3 O12 1.289 . S
O4 C3 1.245 . S
C5 O6 1.245 . S
C5 O7 1.289 . S
O6 C5 1.245 . S
O7 Mg0 2.141 . S
O7 C5 1.289 . S
O8 Mg0 2.048 . S
O8 C1 1.195 . S
O9 Mg0 2.048 . S
O9 C10 1.195 . S
C10 O9 1.195 . S
C10 O11 1.313 . S
O11 C10 1.313 . S
O12 Mg0 2.141 . S
O12 C3 1.289 . S
Mg13 O20 2.141 . S
Mg13 O21 2.048 . S
Mg13 O22 2.048 . S
Mg13 O25 2.141 . S
C14 O15 1.313 . S
C14 O21 1.195 . S
O15 C14 1.313 . S
C16 O17 1.245 . S
C16 O25 1.289 . S
O17 C16 1.245 . S
C18 O19 1.245 . S
C18 O20 1.289 . S
O19 C18 1.245 . S
O20 Mg13 2.141 . S
O20 C18 1.289 . S
O21 Mg13 2.048 . S
O21 C14 1.195 . S
O22 Mg13 2.048 . S
O22 C23 1.195 . S
C23 O22 1.195 . S
C23 O24 1.313 . S
O24 C23 1.313 . S
O25 Mg13 2.141 . S
O25 C16 1.289 . S
Mg26 O33 2.141 . S
Mg26 O34 2.048 . S
Mg26 O35 2.048 . S
Mg26 O38 2.141 . S
C27 O28 1.313 . S
C27 O34 1.195 . S
O28 C27 1.313 . S
C29 O30 1.245 . S
C29 O38 1.289 . S
O30 C29 1.245 . S
C31 O32 1.245 . S
C31 O33 1.289 . S
O32 C31 1.245 . S
O33 Mg26 2.141 . S
O33 C31 1.289 . S
O34 Mg26 2.048 . S
O34 C27 1.195 . S
O35 Mg26 2.048 . S
O35 C36 1.195 . S
C36 O35 1.195 . S
C36 O37 1.313 . S
O37 C36 1.313 . S
O38 Mg26 2.141 . S
O38 C29 1.289 . S
Mg39 O46 2.141 . S
Mg39 O47 2.048 . S
Mg39 O48 2.048 . S
Mg39 O51 2.141 . S
C40 O41 1.313 . S
C40 O47 1.195 . S
O41 C40 1.313 . S
C42 O43 1.245 . S
C42 O51 1.289 . S
O43 C42 1.245 . S
C44 O45 1.245 . S
C44 O46 1.289 . S
O45 C44 1.245 . S
O46 Mg39 2.141 . S
O46 C44 1.289 . S
O47 Mg39 2.048 . S
O47 C40 1.195 . S
O48 Mg39 2.048 . S
O48 C49 1.195 . S
C49 O48 1.195 . S
C49 O50 1.313 . S
O50 C49 1.313 . S
O51 Mg39 2.141 . S
O51 C42 1.289 . S
Mg52 O59 2.141 . S
Mg52 O60 2.048 . S
Mg52 O61 2.048 . S
Mg52 O64 2.141 . S
C53 O54 1.313 . S
C53 O60 1.195 . S
O54 C53 1.313 . S
C55 O56 1.245 . S
C55 O64 1.289 . S
O56 C55 1.245 . S
C57 O58 1.245 . S
C57 O59 1.289 . S
O58 C57 1.245 . S
O59 Mg52 2.141 . S
O59 C57 1.289 . S
O60 Mg52 2.048 . S
O60 C53 1.195 . S
O61 Mg52 2.048 . S
O61 C62 1.195 . S
C62 O61 1.195 . S
C62 O63 1.313 . S
O63 C62 1.313 . S
O64 Mg52 2.141 . S
O64 C55 1.289 . S
Mg65 O72 2.141 . S
Mg65 O73 2.048 . S
Mg65 O74 2.048 . S
Mg65 O77 2.141 . S
C66 O67 1.313 . S
C66 O73 1.195 . S
O67 C66 1.313 . S
C68 O69 1.245 . S
C68 O77 1.289 . S
O69 C68 1.245 . S
C70 O71 1.245 . S
C70 O72 1.289 . S
O71 C70 1.245 . S
O72 Mg65 2.141 . S
O72 C70 1.289 . S
O73 Mg65 2.048 . S
O73 C66 1.195 . S
O74 Mg65 2.048 . S
O74 C75 1.195 . S
C75 O74 1.195 . S
C75 O76 1.313 . S
O76 C75 1.313 . S
O77 Mg65 2.141 . S
O77 C68 1.289 . S
Mg78 O85 2.141 . S
Mg78 O86 2.048 . S
Mg78 O87 2.048 . S
Mg78 O90 2.141 . S
C79 O80 1.313 . S
C79 O86 1.195 . S
O80 C79 1.313 . S
C81 O82 1.245 . S
C81 O90 1.289 . S
O82 C81 1.245 . S
C83 O84 1.245 . S
C83 O85 1.289 . S
O84 C83 1.245 . S
O85 Mg78 2.141 . S
O85 C83 1.289 . S
O86 Mg78 2.048 . S
O86 C79 1.195 . S
O87 Mg78 2.048 . S
O87 C88 1.195 . S
C88 O87 1.195 . S
C88 O89 1.313 . S
O89 C88 1.313 . S
O90 Mg78 2.141 . S
O90 C81 1.289 . S
Mg91 O98 2.141 . S
Mg91 O99 2.048 . S
Mg91 O100 2.048 . S
Mg91 O103 2.141 . S
C92 O93 1.313 . S
C92 O99 1.195 . S
O93 C92 1.313 . S
C94 O95 1.245 . S
C94 O103 1.289 . S
O95 C94 1.245 . S
C96 O97 1.245 . S
C96 O98 1.289 . S
O97 C96 1.245 . S
O98 Mg91 2.141 . S
O98 C96 1.289 . S
O99 Mg91 2.048 . S
O99 C92 1.195 . S
O100 Mg91 2.048 . S
O100 C101 1.195 . S
C101 O100 1.195 . S
C101 O102 1.313 . S
O102 C101 1.313 . S
O103 Mg91 2.141 . S
O103 C94 1.289 . S
Mg104 O111 2.141 . S
Mg104 O112 2.048 . S
Mg104 O113 2.048 . S
Mg104 O116 2.141 . S
C105 O106 1.313 . S
C105 O112 1.195 . S
O106 C105 1.313 . S
C107 O108 1.245 . S
C107 O116 1.289 . S
O108 C107 1.245 . S
C109 O110 1.245 . S
C109 O111 1.289 . S
O110 C109 1.245 . S
O111 Mg104 2.141 . S
O111 C109 1.289 . S
O112 Mg104 2.048 . S
O112 C105 1.195 . S
O113 Mg104 2.048 . S
O113 C114 1.195 . S
C114 O113 1.195 . S
C114 O115 1.313 . S
O115 C114 1.313 . S
O116 Mg104 2.141 . S
O116 C107 1.289 . S
Mg117 O124 2.141 . S
Mg117 O125 2.048 . S
Mg117 O126 2.048 . S
Mg117 O129 2.141 . S
C118 O119 1.313 . S
C118 O125 1.195 . S
O119 C118 1.313 . S
C120 O121 1.245 . S
C120 O129 1.289 . S
O121 C120 1.245 . S
C122 O123 1.245 . S
C122 O124 1.289 . S
O123 C122 1.245 . S
O124 Mg117 2.141 . S
O124 C122 1.289 . S
O125 Mg117 2.048 . S
O125 C118 1.195 . S
O126 Mg117 2.048 . S
O126 C127 1.195 . S
C127 O126 1.195 . S
C127 O128 1.313 . S
O128 C127 1.313 . S
O129 Mg117 2.141 . S
O129 C120 1.289 . S
Mg130 O137 2.141 . S
Mg130 O138 2.048 . S
Mg130 O139 2.048 . S
Mg130 O142 2.141 . S
C131 O132 1.313 . S
C131 O138 1.195 . S
O132 C131 1.313 . S
C133 O134 1.245 . S
C133 O142 1.289 . S
O134 C133 1.245 . S
C135 O136 1.245 . S
C135 O137 1.289 . S
O136 C135 1.245 . S
O137 Mg130 2.141 . S
O137 C135 1.289 . S
O138 Mg130 2.048 . S
O138 C131 1.195 . S
O139 Mg130 2.048 . S
O139 C140 1.195 . S
C140 O139 1.195 . S
C140 O141 1.313 . S
O141 C140 1.313 . S
O142 Mg130 2.141 . S
O142 C133 1.289 . S
Mg143 O150 2.141 . S
Mg143 O151 2.048 . S
Mg143 O152 2.048 . S
Mg143 O155 2.141 . S
C144 O145 1.313 . S
C144 O151 1.195 . S
O145 C144 1.313 . S
C146 O147 1.245 . S
C146 O155 1.289 . S
O147 C146 1.245 . S
C148 O149 1.245 . S
C148 O150 1.289 . S
O149 C148 1.245 . S
O150 Mg143 2.141 . S
O150 C148 1.289 . S
O151 Mg143 2.048 . S
O151 C144 1.195 . S
O152 Mg143 2.048 . S
O152 C153 1.195 . S
C153 O152 1.195 . S
C153 O154 1.313 . S
O154 C153 1.313 . S
O155 Mg143 2.141 . S
O155 C146 1.289 . S
C156 C157 1.391 . S
C156 C158 1.394 . S
C156 H172 0.931 . S
C157 C156 1.391 . S
C157 C161 1.376 . S
C158 C156 1.394 . S
C158 C159 1.369 . S
C158 C162 1.531 . S
C159 C158 1.369 . S
C159 C160 1.410 . S
C159 C167 1.503 . S
C160 C159 1.410 . S
C160 C161 1.392 . S
C160 C163 1.511 . S
C161 C157 1.376 . S
C161 C160 1.392 . S
C161 H173 0.929 . S
C162 C158 1.531 . S
C162 H174 0.960 . S
C162 H175 0.962 . S
C162 H176 0.960 . S
C163 C160 1.511 . S
C163 H177 0.961 . S
C163 H178 0.961 . S
C163 H179 0.961 . S
C164 C165 1.370 . S
C164 C166 1.363 . S
C164 H180 0.931 . S
C165 C164 1.370 . S
C165 C169 1.408 . S
C166 C164 1.363 . S
C166 C167 1.370 . S
C166 C170 1.524 . S
C167 C159 1.503 . S
C167 C166 1.370 . S
C167 C168 1.403 . S
C168 C167 1.403 . S
C168 C169 1.404 . S
C168 C171 1.539 . S
C169 C165 1.408 . S
C169 C168 1.404 . S
C169 H181 0.930 . S
C170 C166 1.524 . S
C170 H182 0.956 . S
C170 H183 0.961 . S
C170 H184 0.961 . S
C171 C168 1.539 . S
C171 H185 0.958 . S
C171 H186 0.961 . S
C171 H187 0.960 . S
H172 C156 0.931 . S
H173 C161 0.929 . S
H174 C162 0.960 . S
H175 C162 0.962 . S
H176 C162 0.960 . S
H177 C163 0.961 . S
H178 C163 0.961 . S
H179 C163 0.961 . S
H180 C164 0.931 . S
H181 C169 0.930 . S
H182 C170 0.956 . S
H183 C170 0.961 . S
H184 C170 0.961 . S
H185 C171 0.958 . S
H186 C171 0.961 . S
H187 C171 0.960 . S
C188 C189 1.391 . S
C188 C190 1.394 . S
C188 H204 0.931 . S
C189 C188 1.391 . S
C189 C193 1.376 . S
C190 C188 1.394 . S
C190 C191 1.369 . S
C190 C194 1.531 . S
C191 C190 1.369 . S
C191 C192 1.410 . S
C191 C199 1.503 . S
C192 C191 1.410 . S
C192 C193 1.392 . S
C192 C195 1.511 . S
C193 C189 1.376 . S
C193 C192 1.392 . S
C193 H205 0.929 . S
C194 C190 1.531 . S
C194 H206 0.960 . S
C194 H207 0.962 . S
C194 H208 0.960 . S
C195 C192 1.511 . S
C195 H209 0.961 . S
C195 H210 0.961 . S
C195 H211 0.961 . S
C196 C197 1.370 . S
C196 C198 1.363 . S
C196 H212 0.931 . S
C197 C196 1.370 . S
C197 C201 1.408 . S
C198 C196 1.363 . S
C198 C199 1.370 . S
C198 C202 1.524 . S
C199 C191 1.503 . S
C199 C198 1.370 . S
C199 C200 1.403 . S
C200 C199 1.403 . S
C200 C201 1.404 . S
C200 C203 1.539 . S
C201 C197 1.408 . S
C201 C200 1.404 . S
C201 H213 0.930 . S
C202 C198 1.524 . S
C202 H214 0.956 . S
C202 H215 0.961 . S
C202 H216 0.961 . S
C203 C200 1.539 . S
C203 H217 0.958 . S
C203 H218 0.961 . S
C203 H219 0.960 . S
H204 C188 0.931 . S
H205 C193 0.929 . S
H206 C194 0.960 . S
H207 C194 0.962 . S
H208 C194 0.960 . S
H209 C195 0.961 . S
H210 C195 0.961 . S
H211 C195 0.961 . S
H212 C196 0.931 . S
H213 C201 0.930 . S
H214 C202 0.956 . S
H215 C202 0.961 . S
H216 C202 0.961 . S
H217 C203 0.958 . S
H218 C203 0.961 . S
H219 C203 0.960 . S
C220 C221 1.391 . S
C220 C222 1.394 . S
C220 H236 0.931 . S
C221 C220 1.391 . S
C221 C225 1.376 . S
C222 C220 1.394 . S
C222 C223 1.369 . S
C222 C226 1.531 . S
C223 C222 1.369 . S
C223 C224 1.410 . S
C223 C231 1.503 . S
C224 C223 1.410 . S
C224 C225 1.392 . S
C224 C227 1.511 . S
C225 C221 1.376 . S
C225 C224 1.392 . S
C225 H237 0.929 . S
C226 C222 1.531 . S
C226 H238 0.960 . S
C226 H239 0.962 . S
C226 H240 0.960 . S
C227 C224 1.511 . S
C227 H241 0.961 . S
C227 H242 0.961 . S
C227 H243 0.961 . S
C228 C229 1.370 . S
C228 C230 1.363 . S
C228 H244 0.931 . S
C229 C228 1.370 . S
C229 C233 1.408 . S
C230 C228 1.363 . S
C230 C231 1.370 . S
C230 C234 1.524 . S
C231 C223 1.503 . S
C231 C230 1.370 . S
C231 C232 1.403 . S
C232 C231 1.403 . S
C232 C233 1.404 . S
C232 C235 1.539 . S
C233 C229 1.408 . S
C233 C232 1.404 . S
C233 H245 0.930 . S
C234 C230 1.524 . S
C234 H246 0.956 . S
C234 H247 0.961 . S
C234 H248 0.961 . S
C235 C232 1.539 . S
C235 H249 0.958 . S
C235 H250 0.961 . S
C235 H251 0.960 . S
H236 C220 0.931 . S
H237 C225 0.929 . S
H238 C226 0.960 . S
H239 C226 0.962 . S
H240 C226 0.960 . S
H241 C227 0.961 . S
H242 C227 0.961 . S
H243 C227 0.961 . S
H244 C228 0.931 . S
H245 C233 0.930 . S
H246 C234 0.956 . S
H247 C234 0.961 . S
H248 C234 0.961 . S
H249 C235 0.958 . S
H250 C235 0.961 . S
H251 C235 0.960 . S
C252 C253 1.391 . S
C252 C254 1.394 . S
C252 H268 0.931 . S
C253 C252 1.391 . S
C253 C257 1.376 . S
C254 C252 1.394 . S
C254 C255 1.369 . S
C254 C258 1.531 . S
C255 C254 1.369 . S
C255 C256 1.410 . S
C255 C263 1.503 . S
C256 C255 1.410 . S
C256 C257 1.392 . S
C256 C259 1.511 . S
C257 C253 1.376 . S
C257 C256 1.392 . S
C257 H269 0.929 . S
C258 C254 1.531 . S
C258 H270 0.960 . S
C258 H271 0.962 . S
C258 H272 0.960 . S
C259 C256 1.511 . S
C259 H273 0.961 . S
C259 H274 0.961 . S
C259 H275 0.961 . S
C260 C261 1.370 . S
C260 C262 1.363 . S
C260 H276 0.931 . S
C261 C260 1.370 . S
C261 C265 1.408 . S
C262 C260 1.363 . S
C262 C263 1.370 . S
C262 C266 1.524 . S
C263 C255 1.503 . S
C263 C262 1.370 . S
C263 C264 1.403 . S
C264 C263 1.403 . S
C264 C265 1.404 . S
C264 C267 1.539 . S
C265 C261 1.408 . S
C265 C264 1.404 . S
C265 H277 0.930 . S
C266 C262 1.524 . S
C266 H278 0.956 . S
C266 H279 0.961 . S
C266 H280 0.961 . S
C267 C264 1.539 . S
C267 H281 0.958 . S
C267 H282 0.961 . S
C267 H283 0.960 . S
H268 C252 0.931 . S
H269 C257 0.929 . S
H270 C258 0.960 . S
H271 C258 0.962 . S
H272 C258 0.960 . S
H273 C259 0.961 . S
H274 C259 0.961 . S
H275 C259 0.961 . S
H276 C260 0.931 . S
H277 C265 0.930 . S
H278 C266 0.956 . S
H279 C266 0.961 . S
H280 C266 0.961 . S
H281 C267 0.958 . S
H282 C267 0.961 . S
H283 C267 0.960 . S
C284 C285 1.391 . S
C284 C286 1.394 . S
C284 H300 0.931 . S
C285 C284 1.391 . S
C285 C289 1.376 . S
C286 C284 1.394 . S
C286 C287 1.369 . S
C286 C290 1.531 . S
C287 C286 1.369 . S
C287 C288 1.410 . S
C287 C295 1.503 . S
C288 C287 1.410 . S
C288 C289 1.392 . S
C288 C291 1.511 . S
C289 C285 1.376 . S
C289 C288 1.392 . S
C289 H301 0.929 . S
C290 C286 1.531 . S
C290 H302 0.960 . S
C290 H303 0.962 . S
C290 H304 0.960 . S
C291 C288 1.511 . S
C291 H305 0.961 . S
C291 H306 0.961 . S
C291 H307 0.961 . S
C292 C293 1.370 . S
C292 C294 1.363 . S
C292 H308 0.931 . S
C293 C292 1.370 . S
C293 C297 1.408 . S
C294 C292 1.363 . S
C294 C295 1.370 . S
C294 C298 1.524 . S
C295 C287 1.503 . S
C295 C294 1.370 . S
C295 C296 1.403 . S
C296 C295 1.403 . S
C296 C297 1.404 . S
C296 C299 1.539 . S
C297 C293 1.408 . S
C297 C296 1.404 . S
C297 H309 0.930 . S
C298 C294 1.524 . S
C298 H310 0.956 . S
C298 H311 0.961 . S
C298 H312 0.961 . S
C299 C296 1.539 . S
C299 H313 0.958 . S
C299 H314 0.961 . S
C299 H315 0.960 . S
H300 C284 0.931 . S
H301 C289 0.929 . S
H302 C290 0.960 . S
H303 C290 0.962 . S
H304 C290 0.960 . S
H305 C291 0.961 . S
H306 C291 0.961 . S
H307 C291 0.961 . S
H308 C292 0.931 . S
H309 C297 0.930 . S
H310 C298 0.956 . S
H311 C298 0.961 . S
H312 C298 0.961 . S
H313 C299 0.958 . S
H314 C299 0.961 . S
H315 C299 0.960 . S
C316 C317 1.391 . S
C316 C318 1.394 . S
C316 H332 0.931 . S
C317 C316 1.391 . S
C317 C321 1.376 . S
C318 C316 1.394 . S
C318 C319 1.369 . S
C318 C322 1.531 . S
C319 C318 1.369 . S
C319 C320 1.410 . S
C319 C327 1.503 . S
C320 C319 1.410 . S
C320 C321 1.392 . S
C320 C323 1.511 . S
C321 C317 1.376 . S
C321 C320 1.392 . S
C321 H333 0.929 . S
C322 C318 1.531 . S
C322 H334 0.960 . S
C322 H335 0.962 . S
C322 H336 0.960 . S
C323 C320 1.511 . S
C323 H337 0.961 . S
C323 H338 0.961 . S
C323 H339 0.961 . S
C324 C325 1.370 . S
C324 C326 1.363 . S
C324 H340 0.931 . S
C325 C324 1.370 . S
C325 C329 1.408 . S
C326 C324 1.363 . S
C326 C327 1.370 . S
C326 C330 1.524 . S
C327 C319 1.503 . S
C327 C326 1.370 . S
C327 C328 1.403 . S
C328 C327 1.403 . S
C328 C329 1.404 . S
C328 C331 1.539 . S
C329 C325 1.408 . S
C329 C328 1.404 . S
C329 H341 0.930 . S
C330 C326 1.524 . S
C330 H342 0.956 . S
C330 H343 0.961 . S
C330 H344 0.961 . S
C331 C328 1.539 . S
C331 H345 0.958 . S
C331 H346 0.961 . S
C331 H347 0.960 . S
H332 C316 0.931 . S
H333 C321 0.929 . S
H334 C322 0.960 . S
H335 C322 0.962 . S
H336 C322 0.960 . S
H337 C323 0.961 . S
H338 C323 0.961 . S
H339 C323 0.961 . S
H340 C324 0.931 . S
H341 C329 0.930 . S
H342 C330 0.956 . S
H343 C330 0.961 . S
H344 C330 0.961 . S
H345 C331 0.958 . S
H346 C331 0.961 . S
H347 C331 0.960 . S
C348 C349 1.391 . S
C348 C350 1.394 . S
C348 H364 0.931 . S
C349 C348 1.391 . S
C349 C353 1.376 . S
C350 C348 1.394 . S
C350 C351 1.369 . S
C350 C354 1.531 . S
C351 C350 1.369 . S
C351 C352 1.410 . S
C351 C359 1.503 . S
C352 C351 1.410 . S
C352 C353 1.392 . S
C352 C355 1.511 . S
C353 C349 1.376 . S
C353 C352 1.392 . S
C353 H365 0.929 . S
C354 C350 1.531 . S
C354 H366 0.960 . S
C354 H367 0.962 . S
C354 H368 0.960 . S
C355 C352 1.511 . S
C355 H369 0.961 . S
C355 H370 0.961 . S
C355 H371 0.961 . S
C356 C357 1.370 . S
C356 C358 1.363 . S
C356 H372 0.931 . S
C357 C356 1.370 . S
C357 C361 1.408 . S
C358 C356 1.363 . S
C358 C359 1.370 . S
C358 C362 1.524 . S
C359 C351 1.503 . S
C359 C358 1.370 . S
C359 C360 1.403 . S
C360 C359 1.403 . S
C360 C361 1.404 . S
C360 C363 1.539 . S
C361 C357 1.408 . S
C361 C360 1.404 . S
C361 H373 0.930 . S
C362 C358 1.524 . S
C362 H374 0.956 . S
C362 H375 0.961 . S
C362 H376 0.961 . S
C363 C360 1.539 . S
C363 H377 0.958 . S
C363 H378 0.961 . S
C363 H379 0.960 . S
H364 C348 0.931 . S
H365 C353 0.929 . S
H366 C354 0.960 . S
H367 C354 0.962 . S
H368 C354 0.960 . S
H369 C355 0.961 . S
H370 C355 0.961 . S
H371 C355 0.961 . S
H372 C356 0.931 . S
H373 C361 0.930 . S
H374 C362 0.956 . S
H375 C362 0.961 . S
H376 C362 0.961 . S
H377 C363 0.958 . S
H378 C363 0.961 . S
H379 C363 0.960 . S
C380 C381 1.391 . S
C380 C382 1.394 . S
C380 H396 0.931 . S
C381 C380 1.391 . S
C381 C385 1.376 . S
C382 C380 1.394 . S
C382 C383 1.369 . S
C382 C386 1.531 1_455 S
C383 C382 1.369 . S
C383 C384 1.410 . S
C383 C391 1.503 1_455 S
C384 C383 1.410 . S
C384 C385 1.392 . S
C384 C387 1.511 . S
C385 C381 1.376 . S
C385 C384 1.392 . S
C385 H397 0.929 . S
C386 C382 1.531 1_655 S
C386 H398 0.960 . S
C386 H399 0.962 . S
C386 H400 0.960 . S
C387 C384 1.511 . S
C387 H401 0.961 . S
C387 H402 0.961 . S
C387 H403 0.961 . S
C388 C389 1.370 . S
C388 C390 1.363 . S
C388 H404 0.931 . S
C389 C388 1.370 . S
C389 C393 1.408 . S
C390 C388 1.363 . S
C390 C391 1.370 . S
C390 C394 1.524 . S
C391 C383 1.503 1_655 S
C391 C390 1.370 . S
C391 C392 1.403 . S
C392 C391 1.403 . S
C392 C393 1.404 . S
C392 C395 1.539 1_655 S
C393 C389 1.408 . S
C393 C392 1.404 . S
C393 H405 0.930 . S
C394 C390 1.524 . S
C394 H406 0.956 . S
C394 H407 0.961 . S
C394 H408 0.961 . S
C395 C392 1.539 1_455 S
C395 H409 0.958 . S
C395 H410 0.961 . S
C395 H411 0.960 . S
H396 C380 0.931 . S
H397 C385 0.929 . S
H398 C386 0.960 . S
H399 C386 0.962 . S
H400 C386 0.960 . S
H401 C387 0.961 . S
H402 C387 0.961 . S
H403 C387 0.961 . S
H404 C388 0.931 . S
H405 C393 0.930 . S
H406 C394 0.956 . S
H407 C394 0.961 . S
H408 C394 0.961 . S
H409 C395 0.958 . S
H410 C395 0.961 . S
H411 C395 0.960 . S
C412 C413 1.391 . S
C412 C414 1.367 1_545 S
C412 H428 0.931 . S
C413 C412 1.391 . S
C413 C417 1.376 . S
C414 C412 1.367 1_565 S
C414 C415 1.374 1_565 S
C414 C418 1.553 . S
C415 C414 1.374 1_545 S
C415 C416 1.410 . S
C415 C423 1.503 1_545 S
C416 C415 1.410 . S
C416 C417 1.392 . S
C416 C419 1.511 . S
C417 C413 1.376 . S
C417 C416 1.392 . S
C417 H429 0.929 . S
C418 C414 1.553 . S
C418 H430 0.960 . S
C418 H431 0.962 . S
C418 H432 0.960 . S
C419 C416 1.511 . S
C419 H433 0.961 . S
C419 H434 0.961 . S
C419 H435 0.961 . S
C420 C421 1.370 . S
C420 C422 1.363 . S
C420 H436 0.931 . S
C421 C420 1.370 . S
C421 C425 1.408 . S
C422 C420 1.363 . S
C422 C423 1.370 . S
C422 C426 1.524 . S
C423 C415 1.503 1_565 S
C423 C422 1.370 . S
C423 C424 1.403 . S
C424 C423 1.403 . S
C424 C425 1.404 . S
C424 C427 1.539 . S
C425 C421 1.408 . S
C425 C424 1.404 . S
C425 H437 0.930 . S
C426 C422 1.524 . S
C426 H438 0.956 . S
C426 H439 0.961 1_565 S
C426 H440 0.961 . S
C427 C424 1.539 . S
C427 H441 0.958 . S
C427 H442 0.961 . S
C427 H443 0.960 1_565 S
H428 C412 0.931 . S
H429 C417 0.929 . S
H430 C418 0.960 . S
H431 C418 0.962 . S
H432 C418 0.960 . S
H433 C419 0.961 . S
H434 C419 0.961 . S
H435 C419 0.961 . S
H436 C420 0.931 . S
H437 C425 0.930 . S
H438 C426 0.956 . S
H439 C426 0.961 1_545 S
H440 C426 0.961 . S
H441 C427 0.958 . S
H442 C427 0.961 . S
H443 C427 0.960 1_545 S
C444 C445 1.391 . S
C444 C446 1.394 . S
C444 H460 0.931 . S
C445 C444 1.391 . S
C445 C449 1.376 . S
C446 C444 1.394 . S
C446 C447 1.369 . S
C446 C450 1.531 . S
C447 C446 1.369 . S
C447 C448 1.410 . S
C447 C455 1.503 . S
C448 C447 1.410 . S
C448 C449 1.392 . S
C448 C451 1.511 . S
C449 C445 1.376 . S
C449 C448 1.392 . S
C449 H461 0.929 . S
C450 C446 1.531 . S
C450 H462 0.960 . S
C450 H463 0.962 . S
C450 H464 0.960 . S
C451 C448 1.511 . S
C451 H465 0.961 . S
C451 H466 0.961 . S
C451 H467 0.961 . S
C452 C453 1.370 . S
C452 C454 1.363 . S
C452 H468 0.931 . S
C453 C452 1.370 . S
C453 C457 1.408 . S
C454 C452 1.363 . S
C454 C455 1.370 . S
C454 C458 1.524 . S
C455 C447 1.503 . S
C455 C454 1.370 . S
C455 C456 1.403 . S
C456 C455 1.403 . S
C456 C457 1.404 . S
C456 C459 1.539 . S
C457 C453 1.408 . S
C457 C456 1.404 . S
C457 H469 0.930 . S
C458 C454 1.524 . S
C458 H470 0.956 . S
C458 H471 0.961 . S
C458 H472 0.961 . S
C459 C456 1.539 . S
C459 H473 0.958 . S
C459 H474 0.961 . S
C459 H475 0.960 . S
H460 C444 0.931 . S
H461 C449 0.929 . S
H462 C450 0.960 . S
H463 C450 0.962 . S
H464 C450 0.960 . S
H465 C451 0.961 . S
H466 C451 0.961 . S
H467 C451 0.961 . S
H468 C452 0.931 . S
H469 C457 0.930 . S
H470 C458 0.956 . S
H471 C458 0.961 . S
H472 C458 0.961 . S
H473 C459 0.958 . S
H474 C459 0.961 . S
H475 C459 0.960 . S
C476 C477 1.391 . S
C476 C478 1.382 1_655 S
C476 H492 0.931 . S
C477 C476 1.391 . S
C477 C481 1.376 . S
C478 C476 1.382 1_455 S
C478 C479 1.371 1_455 S
C478 C482 1.540 . S
C479 C478 1.371 1_655 S
C479 C480 1.410 . S
C479 C487 1.503 1_655 S
C480 C479 1.410 . S
C480 C481 1.392 . S
C480 C483 1.511 . S
C481 C477 1.376 . S
C481 C480 1.392 . S
C481 H493 0.929 . S
C482 C478 1.540 . S
C482 H494 0.960 . S
C482 H495 0.962 . S
C482 H496 0.960 . S
C483 C480 1.511 . S
C483 H497 0.961 . S
C483 H498 0.961 . S
C483 H499 0.961 . S
C484 C485 1.370 . S
C484 C486 1.363 . S
C484 H500 0.931 . S
C485 C484 1.370 . S
C485 C489 1.408 . S
C486 C484 1.363 . S
C486 C487 1.370 . S
C486 C490 1.524 . S
C487 C479 1.503 1_455 S
C487 C486 1.370 . S
C487 C488 1.403 . S
C488 C487 1.403 . S
C488 C489 1.404 . S
C488 C491 1.539 . S
C489 C485 1.408 . S
C489 C488 1.404 . S
C489 H501 0.930 . S
C490 C486 1.524 . S
C490 H502 0.956 . S
C490 H503 0.961 1_455 S
C490 H504 0.961 . S
C491 C488 1.539 . S
C491 H505 0.958 . S
C491 H506 0.961 . S
C491 H507 0.960 1_455 S
H492 C476 0.931 . S
H493 C481 0.929 . S
H494 C482 0.960 . S
H495 C482 0.962 . S
H496 C482 0.960 . S
H497 C483 0.961 . S
H498 C483 0.961 . S
H499 C483 0.961 . S
H500 C484 0.931 . S
H501 C489 0.930 . S
H502 C490 0.956 . S
H503 C490 0.961 1_655 S
H504 C490 0.961 . S
H505 C491 0.958 . S
H506 C491 0.961 . S
H507 C491 0.960 1_655 S
C508 C509 1.391 . S
C508 C510 1.389 1_565 S
C508 H524 0.931 . S
C509 C508 1.391 . S
C509 C513 1.376 . S
C510 C508 1.389 1_545 S
C510 C511 1.347 1_545 S
C510 C514 1.558 . S
C511 C510 1.347 1_565 S
C511 C512 1.410 . S
C511 C519 1.503 1_565 S
C512 C511 1.410 . S
C512 C513 1.392 . S
C512 C515 1.511 . S
C513 C509 1.376 . S
C513 C512 1.392 . S
C513 H525 0.929 . S
C514 C510 1.558 . S
C514 H526 0.960 . S
C514 H527 0.962 . S
C514 H528 0.960 . S
C515 C512 1.511 . S
C515 H529 0.961 . S
C515 H530 0.961 . S
C515 H531 0.961 . S
C516 C517 1.370 . S
C516 C518 1.363 . S
C516 H532 0.931 . S
C517 C516 1.370 . S
C517 C521 1.408 . S
C518 C516 1.363 . S
C518 C519 1.370 . S
C518 C522 1.524 . S
C519 C511 1.503 1_545 S
C519 C518 1.370 . S
C519 C520 1.403 . S
C520 C519 1.403 . S
C520 C521 1.404 . S
C520 C523 1.539 . S
C521 C517 1.408 . S
C521 C520 1.404 . S
C521 H533 0.930 . S
C522 C518 1.524 . S
C522 H534 0.956 . S
C522 H535 0.961 1_545 S
C522 H536 0.961 . S
C523 C520 1.539 . S
C523 H537 0.958 . S
C523 H538 0.961 . S
C523 H539 0.960 1_545 S
H524 C508 0.931 . S
H525 C513 0.929 . S
H526 C514 0.960 . S
H527 C514 0.962 . S
H528 C514 0.960 . S
H529 C515 0.961 . S
H530 C515 0.961 . S
H531 C515 0.961 . S
H532 C516 0.931 . S
H533 C521 0.930 . S
H534 C522 0.956 . S
H535 C522 0.961 1_565 S
H536 C522 0.961 . S
H537 C523 0.958 . S
H538 C523 0.961 . S
H539 C523 0.960 1_565 S
C540 C541 1.391 . S
C540 C542 1.394 . S
C540 H556 0.931 . S
C541 C540 1.391 . S
C541 C545 1.376 . S
C542 C540 1.394 . S
C542 C543 1.369 . S
C542 C546 1.531 . S
C543 C542 1.369 . S
C543 C544 1.410 . S
C543 C551 1.503 . S
C544 C543 1.410 . S
C544 C545 1.392 . S
C544 C547 1.511 . S
C545 C541 1.376 . S
C545 C544 1.392 . S
C545 H557 0.929 . S
C546 C542 1.531 . S
C546 H558 0.960 . S
C546 H559 0.962 . S
C546 H560 0.960 . S
C547 C544 1.511 . S
C547 H561 0.961 . S
C547 H562 0.961 . S
C547 H563 0.961 . S
C548 C549 1.370 . S
C548 C550 1.363 . S
C548 H564 0.931 . S
C549 C548 1.370 . S
C549 C553 1.408 . S
C550 C548 1.363 . S
C550 C551 1.370 . S
C550 C554 1.524 . S
C551 C543 1.503 . S
C551 C550 1.370 . S
C551 C552 1.403 . S
C552 C551 1.403 . S
C552 C553 1.404 . S
C552 C555 1.539 . S
C553 C549 1.408 . S
C553 C552 1.404 . S
C553 H565 0.930 . S
C554 C550 1.524 . S
C554 H566 0.956 . S
C554 H567 0.961 . S
C554 H568 0.961 . S
C555 C552 1.539 . S
C555 H569 0.958 . S
C555 H570 0.961 . S
C555 H571 0.960 . S
H556 C540 0.931 . S
H557 C545 0.929 . S
H558 C546 0.960 . S
H559 C546 0.962 . S
H560 C546 0.960 . S
H561 C547 0.961 . S
H562 C547 0.961 . S
H563 C547 0.961 . S
H564 C548 0.931 . S
H565 C553 0.930 . S
H566 C554 0.956 . S
H567 C554 0.961 . S
H568 C554 0.961 . S
H569 C555 0.958 . S
H570 C555 0.961 . S
H571 C555 0.960 . S
C572 C573 1.391 . S
C572 C574 1.394 . S
C572 H588 0.931 . S
C573 C572 1.391 . S
C573 C577 1.376 . S
C574 C572 1.394 . S
C574 C575 1.369 . S
C574 C578 1.531 1_655 S
C575 C574 1.369 . S
C575 C576 1.410 . S
C575 C583 1.501 1_655 S
C576 C575 1.410 . S
C576 C577 1.392 . S
C576 C579 1.511 . S
C577 C573 1.376 . S
C577 C576 1.392 . S
C577 H589 0.929 . S
C578 C574 1.531 1_455 S
C578 H590 0.960 1_455 S
C578 H591 0.962 . S
C578 H592 0.960 1_455 S
C579 C576 1.511 . S
C579 H593 0.961 . S
C579 H594 0.961 . S
C579 H595 0.961 . S
C580 C581 1.370 . S
C580 C582 1.363 . S
C580 H596 0.931 . S
C581 C580 1.370 . S
C581 C585 1.408 1_455 S
C582 C580 1.363 . S
C582 C583 1.378 . S
C582 C586 1.524 . S
C583 C575 1.501 1_455 S
C583 C582 1.378 . S
C583 C584 1.397 1_455 S
C584 C583 1.397 1_655 S
C584 C585 1.404 . S
C584 C587 1.539 . S
C585 C581 1.408 1_655 S
C585 C584 1.404 . S
C585 H597 0.930 . S
C586 C582 1.524 . S
C586 H598 0.956 . S
C586 H599 0.961 . S
C586 H600 0.961 . S
C587 C584 1.539 . S
C587 H601 0.958 . S
C587 H602 0.961 . S
C587 H603 0.960 . S
H588 C572 0.931 . S
H589 C577 0.929 . S
H590 C578 0.960 1_655 S
H591 C578 0.962 . S
H592 C578 0.960 1_655 S
H593 C579 0.961 . S
H594 C579 0.961 . S
H595 C579 0.961 . S
H596 C580 0.931 . S
H597 C585 0.930 . S
H598 C586 0.956 . S
H599 C586 0.961 . S
H600 C586 0.961 . S
H601 C587 0.958 . S
H602 C587 0.961 . S
H603 C587 0.960 . S
C604 C605 1.391 . S
C604 C606 1.394 . S
C604 H620 0.931 . S
C605 C604 1.391 . S
C605 C609 1.376 . S
C606 C604 1.394 . S
C606 C607 1.369 . S
C606 C610 1.531 . S
C607 C606 1.369 . S
C607 C608 1.410 . S
C607 C615 1.498 1_566 S
C608 C607 1.410 . S
C608 C609 1.392 . S
C608 C611 1.511 1_565 S
C609 C605 1.376 . S
C609 C608 1.392 . S
C609 H621 0.929 . S
C610 C606 1.531 . S
C610 H622 0.960 1_556 S
C610 H623 0.962 . S
C610 H624 0.960 . S
C611 C608 1.511 1_545 S
C611 H625 0.961 . S
C611 H626 0.961 . S
C611 H627 0.961 1_545 S
C612 C613 1.370 . S
C612 C614 1.363 . S
C612 H628 0.931 . S
C613 C612 1.370 . S
C613 C617 1.408 1_545 S
C614 C612 1.363 . S
C614 C615 1.389 . S
C614 C618 1.524 1_554 S
C615 C607 1.498 1_544 S
C615 C614 1.389 . S
C615 C616 1.390 1_545 S
C616 C615 1.390 1_565 S
C616 C617 1.404 . S
C616 C619 1.539 . S
C617 C613 1.408 1_565 S
C617 C616 1.404 . S
C617 H629 0.930 . S
C618 C614 1.524 1_556 S
C618 H630 0.956 . S
C618 H631 0.961 . S
C618 H632 0.961 1_556 S
C619 C616 1.539 . S
C619 H633 0.958 . S
C619 H634 0.961 . S
C619 H635 0.960 . S
H620 C604 0.931 . S
H621 C609 0.929 . S
H622 C610 0.960 1_554 S
H623 C610 0.962 . S
H624 C610 0.960 . S
H625 C611 0.961 . S
H626 C611 0.961 . S
H627 C611 0.961 1_565 S
H628 C612 0.931 . S
H629 C617 0.930 . S
H630 C618 0.956 . S
H631 C618 0.961 . S
H632 C618 0.961 1_554 S
H633 C619 0.958 . S
H634 C619 0.961 . S
H635 C619 0.960 . S
C636 C637 1.391 . S
C636 C638 1.394 . S
C636 H652 0.931 . S
C637 C636 1.391 . S
C637 C641 1.376 . S
C638 C636 1.394 . S
C638 C639 1.369 . S
C638 C642 1.531 . S
C639 C638 1.369 . S
C639 C640 1.410 . S
C639 C647 1.503 . S
C640 C639 1.410 . S
C640 C641 1.392 . S
C640 C643 1.511 . S
C641 C637 1.376 . S
C641 C640 1.392 . S
C641 H653 0.929 . S
C642 C638 1.531 . S
C642 H654 0.960 . S
C642 H655 0.962 . S
C642 H656 0.960 . S
C643 C640 1.511 . S
C643 H657 0.961 . S
C643 H658 0.961 . S
C643 H659 0.961 . S
C644 C645 1.370 . S
C644 C646 1.363 . S
C644 H660 0.931 . S
C645 C644 1.370 . S
C645 C649 1.408 . S
C646 C644 1.363 . S
C646 C647 1.370 . S
C646 C650 1.524 . S
C647 C639 1.503 . S
C647 C646 1.370 . S
C647 C648 1.403 . S
C648 C647 1.403 . S
C648 C649 1.404 . S
C648 C651 1.539 . S
C649 C645 1.408 . S
C649 C648 1.404 . S
C649 H661 0.930 . S
C650 C646 1.524 . S
C650 H662 0.956 . S
C650 H663 0.961 . S
C650 H664 0.961 . S
C651 C648 1.539 . S
C651 H665 0.958 . S
C651 H666 0.961 . S
C651 H667 0.960 . S
H652 C636 0.931 . S
H653 C641 0.929 . S
H654 C642 0.960 . S
H655 C642 0.962 . S
H656 C642 0.960 . S
H657 C643 0.961 . S
H658 C643 0.961 . S
H659 C643 0.961 . S
H660 C644 0.931 . S
H661 C649 0.930 . S
H662 C650 0.956 . S
H663 C650 0.961 . S
H664 C650 0.961 . S
H665 C651 0.958 . S
H666 C651 0.961 . S
H667 C651 0.960 . S
C668 C669 1.391 . S
C668 C670 1.394 . S
C668 H684 0.931 . S
C669 C668 1.391 . S
C669 C673 1.382 . S
C670 C668 1.394 . S
C670 C671 1.366 1_455 S
C670 C674 1.531 . S
C671 C670 1.366 1_655 S
C671 C672 1.408 . S
C671 C679 1.507 . S
C672 C671 1.408 . S
C672 C673 1.384 1_655 S
C672 C675 1.511 . S
C673 C669 1.382 . S
C673 C672 1.384 1_455 S
C673 H685 0.932 1_455 S
C674 C670 1.531 . S
C674 H686 0.960 . S
C674 H687 0.962 . S
C674 H688 0.960 . S
C675 C672 1.511 . S
C675 H689 0.961 . S
C675 H690 0.961 . S
C675 H691 0.961 . S
C676 C677 1.370 1_455 S
C676 C678 1.363 . S
C676 H692 0.931 . S
C677 C676 1.370 1_655 S
C677 C681 1.408 . S
C678 C676 1.363 . S
C678 C679 1.370 1_455 S
C678 C682 1.524 . S
C679 C671 1.507 . S
C679 C678 1.370 1_655 S
C679 C680 1.403 . S
C680 C679 1.403 . S
C680 C681 1.404 . S
C680 C683 1.539 . S
C681 C677 1.408 . S
C681 C680 1.404 . S
C681 H693 0.930 . S
C682 C678 1.524 . S
C682 H694 0.956 . S
C682 H695 0.961 . S
C682 H696 0.961 . S
C683 C680 1.539 . S
C683 H697 0.958 . S
C683 H698 0.961 . S
C683 H699 0.960 . S
H684 C668 0.931 . S
H685 C673 0.932 1_655 S
H686 C674 0.960 . S
H687 C674 0.962 . S
H688 C674 0.960 . S
H689 C675 0.961 . S
H690 C675 0.961 . S
H691 C675 0.961 . S
H692 C676 0.931 . S
H693 C681 0.930 . S
H694 C682 0.956 . S
H695 C682 0.961 . S
H696 C682 0.961 . S
H697 C683 0.958 . S
H698 C683 0.961 . S
H699 C683 0.960 . S
C700 C701 1.391 . S
C700 C702 1.394 1_565 S
C700 H716 0.939 . S
C701 C700 1.391 . S
C701 C705 1.376 . S
C702 C700 1.394 1_545 S
C702 C703 1.369 . S
C702 C706 1.531 . S
C703 C702 1.369 . S
C703 C704 1.410 1_545 S
C703 C711 1.503 1_554 S
C704 C703 1.410 1_565 S
C704 C705 1.392 . S
C704 C707 1.511 . S
C705 C701 1.376 . S
C705 C704 1.392 . S
C705 H717 0.929 . S
C706 C702 1.531 . S
C706 H718 0.960 . S
C706 H719 0.962 . S
C706 H720 0.960 . S
C707 C704 1.511 . S
C707 H721 0.961 . S
C707 H722 0.961 1_554 S
C707 H723 0.961 . S
C708 C709 1.370 1_565 S
C708 C710 1.363 . S
C708 H724 0.931 . S
C709 C708 1.370 1_545 S
C709 C713 1.408 . S
C710 C708 1.363 . S
C710 C711 1.370 1_565 S
C710 C714 1.524 . S
C711 C703 1.503 1_556 S
C711 C710 1.370 1_545 S
C711 C712 1.403 . S
C712 C711 1.403 . S
C712 C713 1.404 . S
C712 C715 1.539 . S
C713 C709 1.408 . S
C713 C712 1.404 . S
C713 H725 0.930 . S
C714 C710 1.524 . S
C714 H726 0.956 . S
C714 H727 0.961 . S
C714 H728 0.961 . S
C715 C712 1.539 . S
C715 H729 0.958 1_556 S
C715 H730 0.961 . S
C715 H731 0.960 1_556 S
H716 C700 0.939 . S
H717 C705 0.929 . S
H718 C706 0.960 . S
H719 C706 0.962 . S
H720 C706 0.960 . S
H721 C707 0.961 . S
H722 C707 0.961 1_556 S
H723 C707 0.961 . S
H724 C708 0.931 . S
H725 C713 0.930 . S
H726 C714 0.956 . S
H727 C714 0.961 . S
H728 C714 0.961 . S
H729 C715 0.958 1_554 S
H730 C715 0.961 . S
H731 C715 0.960 1_554 S
C732 C733 1.391 . S
C732 C734 1.394 . S
C732 H748 0.931 . S
C733 C732 1.391 . S
C733 C737 1.376 . S
C734 C732 1.394 . S
C734 C735 1.369 . S
C734 C738 1.531 1_655 S
C735 C734 1.369 . S
C735 C736 1.410 . S
C735 C743 1.503 1_655 S
C736 C735 1.410 . S
C736 C737 1.392 . S
C736 C739 1.511 . S
C737 C733 1.376 . S
C737 C736 1.392 . S
C737 H749 0.929 . S
C738 C734 1.531 1_455 S
C738 H750 0.960 . S
C738 H751 0.962 . S
C738 H752 0.960 1_455 S
C739 C736 1.511 . S
C739 H753 0.961 . S
C739 H754 0.961 . S
C739 H755 0.961 . S
C740 C741 1.370 . S
C740 C742 1.363 . S
C740 H756 0.931 . S
C741 C740 1.370 . S
C741 C745 1.408 . S
C742 C740 1.363 . S
C742 C743 1.370 . S
C742 C746 1.524 . S
C743 C735 1.503 1_455 S
C743 C742 1.370 . S
C743 C744 1.403 . S
C744 C743 1.403 . S
C744 C745 1.404 . S
C744 C747 1.539 . S
C745 C741 1.408 . S
C745 C744 1.404 . S
C745 H757 0.930 . S
C746 C742 1.524 . S
C746 H758 0.956 . S
C746 H759 0.961 1_455 S
C746 H760 0.961 . S
C747 C744 1.539 . S
C747 H761 0.958 . S
C747 H762 0.961 . S
C747 H763 0.960 . S
H748 C732 0.931 . S
H749 C737 0.929 . S
H750 C738 0.960 . S
H751 C738 0.962 . S
H752 C738 0.960 1_655 S
H753 C739 0.961 . S
H754 C739 0.961 . S
H755 C739 0.961 . S
H756 C740 0.931 . S
H757 C745 0.930 . S
H758 C746 0.956 . S
H759 C746 0.961 1_655 S
H760 C746 0.961 . S
H761 C747 0.958 . S
H762 C747 0.961 . S
H763 C747 0.960 . S
C764 C765 1.391 . S
C764 C766 1.394 . S
C764 H780 0.931 . S
C765 C764 1.391 . S
C765 C769 1.376 . S
C766 C764 1.394 . S
C766 C767 1.369 . S
C766 C770 1.531 . S
C767 C766 1.369 . S
C767 C768 1.410 . S
C767 C775 1.503 1_545 S
C768 C767 1.410 . S
C768 C769 1.392 . S
C768 C771 1.511 . S
C769 C765 1.376 . S
C769 C768 1.392 . S
C769 H781 0.929 . S
C770 C766 1.531 . S
C770 H782 0.960 . S
C770 H783 0.962 . S
C770 H784 0.960 . S
C771 C768 1.511 . S
C771 H785 0.961 . S
C771 H786 0.961 1_545 S
C771 H787 0.961 . S
C772 C773 1.370 . S
C772 C774 1.363 . S
C772 H788 0.931 . S
C773 C772 1.370 . S
C773 C777 1.408 . S
C774 C772 1.363 . S
C774 C775 1.370 . S
C774 C778 1.524 . S
C775 C767 1.503 1_565 S
C775 C774 1.370 . S
C775 C776 1.403 . S
C776 C775 1.403 . S
C776 C777 1.404 . S
C776 C779 1.539 . S
C777 C773 1.408 . S
C777 C776 1.404 . S
C777 H789 0.930 . S
C778 C774 1.524 . S
C778 H790 0.956 . S
C778 H791 0.961 . S
C778 H792 0.961 . S
C779 C776 1.539 . S
C779 H793 0.958 1_565 S
C779 H794 0.961 . S
C779 H795 0.960 1_565 S
H780 C764 0.931 . S
H781 C769 0.929 . S
H782 C770 0.960 . S
H783 C770 0.962 . S
H784 C770 0.960 . S
H785 C771 0.961 . S
H786 C771 0.961 1_565 S
H787 C771 0.961 . S
H788 C772 0.931 . S
H789 C777 0.930 . S
H790 C778 0.956 . S
H791 C778 0.961 . S
H792 C778 0.961 . S
H793 C779 0.958 1_545 S
H794 C779 0.961 . S
H795 C779 0.960 1_545 S
C796 C797 1.391 . S
C796 C798 1.394 . S
C796 H812 0.931 . S
C797 C796 1.391 . S
C797 C801 1.376 . S
C798 C796 1.394 . S
C798 C799 1.369 . S
C798 C802 1.531 . S
C799 C798 1.369 . S
C799 C800 1.410 . S
C799 C807 1.503 . S
C800 C799 1.410 . S
C800 C801 1.392 . S
C800 C803 1.511 . S
C801 C797 1.376 . S
C801 C800 1.392 . S
C801 H813 0.929 . S
C802 C798 1.531 . S
C802 H814 0.960 . S
C802 H815 0.962 . S
C802 H816 0.960 . S
C803 C800 1.511 . S
C803 H817 0.961 . S
C803 H818 0.961 . S
C803 H819 0.961 . S
C804 C805 1.370 . S
C804 C806 1.363 . S
C804 H820 0.931 . S
C805 C804 1.370 . S
C805 C809 1.408 . S
C806 C804 1.363 . S
C806 C807 1.370 . S
C806 C810 1.524 . S
C807 C799 1.503 . S
C807 C806 1.370 . S
C807 C808 1.403 . S
C808 C807 1.403 . S
C808 C809 1.404 . S
C808 C811 1.539 . S
C809 C805 1.408 . S
C809 C808 1.404 . S
C809 H821 0.930 . S
C810 C806 1.524 . S
C810 H822 0.956 . S
C810 H823 0.961 . S
C810 H824 0.961 . S
C811 C808 1.539 . S
C811 H825 0.958 . S
C811 H826 0.961 . S
C811 H827 0.960 . S
H812 C796 0.931 . S
H813 C801 0.929 . S
H814 C802 0.960 . S
H815 C802 0.962 . S
H816 C802 0.960 . S
H817 C803 0.961 . S
H818 C803 0.961 . S
H819 C803 0.961 . S
H820 C804 0.931 . S
H821 C809 0.930 . S
H822 C810 0.956 . S
H823 C810 0.961 . S
H824 C810 0.961 . S
H825 C811 0.958 . S
H826 C811 0.961 . S
H827 C811 0.960 . S
C828 C829 1.391 . S
C828 C830 1.394 . S
C828 H844 0.931 . S
C829 C828 1.391 . S
C829 C833 1.376 . S
C830 C828 1.394 . S
C830 C831 1.369 . S
C830 C834 1.531 . S
C831 C830 1.369 . S
C831 C832 1.410 . S
C831 C839 1.503 1_655 S
C832 C831 1.410 . S
C832 C833 1.392 . S
C832 C835 1.511 . S
C833 C829 1.376 . S
C833 C832 1.392 . S
C833 H845 0.929 . S
C834 C830 1.531 . S
C834 H846 0.960 . S
C834 H847 0.962 . S
C834 H848 0.960 . S
C835 C832 1.511 . S
C835 H849 0.961 . S
C835 H850 0.961 1_655 S
C835 H851 0.961 1_655 S
C836 C837 1.370 . S
C836 C838 1.363 . S
C836 H852 0.931 . S
C837 C836 1.370 . S
C837 C841 1.408 . S
C838 C836 1.363 . S
C838 C839 1.370 . S
C838 C842 1.518 1_455 S
C839 C831 1.503 1_455 S
C839 C838 1.370 . S
C839 C840 1.403 . S
C840 C839 1.403 . S
C840 C841 1.404 . S
C840 C843 1.539 . S
C841 C837 1.408 . S
C841 C840 1.404 . S
C841 H853 0.930 . S
C842 C838 1.518 1_655 S
C842 H854 0.970 . S
C842 H855 0.962 . S
C842 H856 0.951 1_655 S
C843 C840 1.539 . S
C843 H857 0.958 . S
C843 H858 0.961 . S
C843 H859 0.960 . S
H844 C828 0.931 . S
H845 C833 0.929 . S
H846 C834 0.960 . S
H847 C834 0.962 . S
H848 C834 0.960 . S
H849 C835 0.961 . S
H850 C835 0.961 1_455 S
H851 C835 0.961 1_455 S
H852 C836 0.931 . S
H853 C841 0.930 . S
H854 C842 0.970 . S
H855 C842 0.962 . S
H856 C842 0.951 1_455 S
H857 C843 0.958 . S
H858 C843 0.961 . S
H859 C843 0.960 . S
C860 C861 1.391 . S
C860 C862 1.394 . S
C860 H876 0.931 . S
C861 C860 1.391 . S
C861 C865 1.376 . S
C862 C860 1.394 . S
C862 C863 1.369 . S
C862 C866 1.531 . S
C863 C862 1.369 . S
C863 C864 1.410 . S
C863 C871 1.503 1_565 S
C864 C863 1.410 . S
C864 C865 1.392 . S
C864 C867 1.511 . S
C865 C861 1.376 . S
C865 C864 1.392 . S
C865 H877 0.929 . S
C866 C862 1.531 . S
C866 H878 0.960 . S
C866 H879 0.962 . S
C866 H880 0.960 . S
C867 C864 1.511 . S
C867 H881 0.961 . S
C867 H882 0.961 1_565 S
C867 H883 0.961 . S
C868 C869 1.370 . S
C868 C870 1.363 . S
C868 H884 0.931 . S
C869 C868 1.370 . S
C869 C873 1.408 . S
C870 C868 1.363 . S
C870 C871 1.370 . S
C870 C874 1.524 . S
C871 C863 1.503 1_545 S
C871 C870 1.370 . S
C871 C872 1.403 . S
C872 C871 1.403 . S
C872 C873 1.404 . S
C872 C875 1.539 . S
C873 C869 1.408 . S
C873 C872 1.404 . S
C873 H885 0.930 . S
C874 C870 1.524 . S
C874 H886 0.956 . S
C874 H887 0.961 . S
C874 H888 0.961 . S
C875 C872 1.539 . S
C875 H889 0.958 1_545 S
C875 H890 0.961 . S
C875 H891 0.960 1_545 S
H876 C860 0.931 . S
H877 C865 0.929 . S
H878 C866 0.960 . S
H879 C866 0.962 . S
H880 C866 0.960 . S
H881 C867 0.961 . S
H882 C867 0.961 1_545 S
H883 C867 0.961 . S
H884 C868 0.931 . S
H885 C873 0.930 . S
H886 C874 0.956 . S
H887 C874 0.961 . S
H888 C874 0.961 . S
H889 C875 0.958 1_565 S
H890 C875 0.961 . S
H891 C875 0.960 1_565 S
C892 C893 1.391 . S
C892 C894 1.394 . S
C892 H908 0.931 . S
C893 C892 1.391 . S
C893 C897 1.376 . S
C894 C892 1.394 . S
C894 C895 1.369 . S
C894 C898 1.531 . S
C895 C894 1.369 . S
C895 C896 1.410 . S
C895 C903 1.503 . S
C896 C895 1.410 . S
C896 C897 1.392 . S
C896 C899 1.511 . S
C897 C893 1.376 . S
C897 C896 1.392 . S
C897 H909 0.929 . S
C898 C894 1.531 . S
C898 H910 0.960 . S
C898 H911 0.962 . S
C898 H912 0.960 . S
C899 C896 1.511 . S
C899 H913 0.961 . S
C899 H914 0.961 . S
C899 H915 0.961 . S
C900 C901 1.370 . S
C900 C902 1.363 . S
C900 H916 0.931 . S
C901 C900 1.370 . S
C901 C905 1.408 . S
C902 C900 1.363 . S
C902 C903 1.370 . S
C902 C906 1.524 . S
C903 C895 1.503 . S
C903 C902 1.370 . S
C903 C904 1.403 . S
C904 C903 1.403 . S
C904 C905 1.404 . S
C904 C907 1.539 . S
C905 C901 1.408 . S
C905 C904 1.404 . S
C905 H917 0.930 . S
C906 C902 1.524 . S
C906 H918 0.956 . S
C906 H919 0.961 . S
C906 H920 0.961 . S
C907 C904 1.539 . S
C907 H921 0.958 . S
C907 H922 0.961 . S
C907 H923 0.960 . S
H908 C892 0.931 . S
H909 C897 0.929 . S
H910 C898 0.960 . S
H911 C898 0.962 . S
H912 C898 0.960 . S
H913 C899 0.961 . S
H914 C899 0.961 . S
H915 C899 0.961 . S
H916 C900 0.931 . S
H917 C905 0.930 . S
H918 C906 0.956 . S
H919 C906 0.961 . S
H920 C906 0.961 . S
H921 C907 0.958 . S
H922 C907 0.961 . S
H923 C907 0.960 . S
C157 C105 2.607 . S
C165 C1 2.587 . S
C189 C23 2.432 . S
C197 C127 2.465 . S
C221 C27 2.607 . S
C229 C131 2.589 . S
C253 C40 2.589 . S
C261 C144 2.599 . S
C285 C88 2.454 . S
C293 C62 2.455 . S
C317 C66 2.587 . S
C325 C92 2.591 . S
C349 C49 1.339 . S
C357 C10 1.343 . S
C381 C53 1.370 . S
C389 C14 1.367 . S
C413 C75 1.333 . S
C421 C36 1.345 . S
C445 C79 1.355 . S
C453 C118 1.364 . S
C477 C101 1.334 . S
C485 C140 1.344 . S
C509 C114 1.333 . S
C517 C153 1.345 . S
C541 C3 2.085 . S
C549 C122 1.960 . S
C573 C18 1.909 . S
C581 C133 2.116 . S
C605 C29 2.095 . S
C613 C146 2.117 . S
C637 C83 1.930 . S
C645 C42 2.106 . S
C669 C57 1.982 . S
C677 C94 2.105 . S
C701 C107 2.114 . S
C709 C68 2.101 . S
C733 C148 1.299 . S
C741 C5 1.285 . S
C765 C16 1.313 . S
C773 C81 1.318 . S
C797 C96 1.296 . S
C805 C31 1.271 . S
C829 C44 1.300 . S
C837 C109 1.270 . S
C861 C55 1.312 . S
C869 C120 1.318 . S
C893 C135 1.253 . S
C901 C70 1.296 . S
