# Generated by pormake.
# Topology sml, (6)-cn, num edge types: 1
# Building blocks:
#     Node 0, Type 0, BuildingBlock: CIFDUS_clean_sbu_1, # of connection points: 6
#     Node 1, Type 0, BuildingBlock: CIFDUS_clean_sbu_1, # of connection points: 6
#     Node 2, Type 0, BuildingBlock: CIFDUS_clean_sbu_1, # of connection points: 6
#     Node 3, Type 0, BuildingBlock: CIFDUS_clean_sbu_1, # of connection points: 6
#     Node 4, Type 0, BuildingBlock: CIFDUS_clean_sbu_1, # of connection points: 6
#     Node 5, Type 0, BuildingBlock: CIFDUS_clean_sbu_1, # of connection points: 6
#     Edge 6, Type (0, 0), BuildingBlock: CIFDUS_clean_linker_0, # of connection points: 2
#     Edge 7, Type (0, 0), BuildingBlock: CIFDUS_clean_linker_0, # of connection points: 2
#     Edge 8, Type (0, 0), BuildingBlock: CIFDUS_clean_linker_0, # of connection points: 2
#     Edge 9, Type (0, 0), BuildingBlock: CIFDUS_clean_linker_0, # of connection points: 2
#     Edge 10, Type (0, 0), BuildingBlock: CIFDUS_clean_linker_0, # of connection points: 2
#     Edge 11, Type (0, 0), BuildingBlock: CIFDUS_clean_linker_0, # of connection points: 2
#     Edge 12, Type (0, 0), BuildingBlock: CIFDUS_clean_linker_0, # of connection points: 2
#     Edge 13, Type (0, 0), BuildingBlock: CIFDUS_clean_linker_0, # of connection points: 2
#     Edge 14, Type (0, 0), BuildingBlock: CIFDUS_clean_linker_0, # of connection points: 2
#     Edge 15, Type (0, 0), BuildingBlock: CIFDUS_clean_linker_0, # of connection points: 2
#     Edge 16, Type (0, 0), BuildingBlock: CIFDUS_clean_linker_0, # of connection points: 2
#     Edge 17, Type (0, 0), BuildingBlock: CIFDUS_clean_linker_0, # of connection points: 2
#     Edge 18, Type (0, 0), BuildingBlock: CIFDUS_clean_linker_0, # of connection points: 2
#     Edge 19, Type (0, 0), BuildingBlock: CIFDUS_clean_linker_0, # of connection points: 2
#     Edge 20, Type (0, 0), BuildingBlock: CIFDUS_clean_linker_0, # of connection points: 2
#     Edge 21, Type (0, 0), BuildingBlock: CIFDUS_clean_linker_0, # of connection points: 2
#     Edge 22, Type (0, 0), BuildingBlock: CIFDUS_clean_linker_0, # of connection points: 2
#     Edge 23, Type (0, 0), BuildingBlock: CIFDUS_clean_linker_0, # of connection points: 2
# Relax obj value: 0.146
# Max RMSD: 0.167
# Mean RMSD: 0.167
data_MOF--net-sml--node1-CIFDUS_clean_sbu_1--edge1-CIFDUS_clean_linker_0
_symmetry_space_group_name_H-M    P1
_symmetry_Int_Tables_number       1
_symmetry_cell_setting            triclinic
loop_
_symmetry_equiv_pos_as_xyz
'x, y, z'
_cell_length_a     34.567055
_cell_length_b     34.557803
_cell_length_c     13.864402
_cell_angle_alpha  89.540251
_cell_angle_beta   90.33699
_cell_angle_gamma 119.68626
loop_
_atom_site_label
_atom_site_type_symbol
_atom_site_fract_x
_atom_site_fract_y
_atom_site_fract_z
_atom_type_partial_charge
O0 O 0.21457 0.47829 0.01507 0.0
Mn1 Mn 0.24466 0.43945 0.98054 0.0
O2 O 0.27015 0.54912 0.02347 0.0
Mn3 Mn 0.30765 0.52948 0.06728 0.0
O4 O 0.28091 0.40526 0.95015 0.0
O5 O 0.17799 0.3836 -0.00476 0.0
Mn6 Mn 0.19654 0.35759 0.90788 0.0
O7 O 0.23767 0.44862 0.83366 0.0
O8 O 0.23018 0.33526 0.95802 0.0
O9 O 0.25109 0.43083 0.12784 0.0
O10 O 0.28984 0.50006 0.18401 0.0
O11 O 0.14067 0.31827 0.91528 0.0
O12 O 0.20961 0.37953 0.78356 0.0
C13 C 0.34912 0.51666 0.97248 0.0
C14 C 0.22878 0.52056 0.02205 0.0
C15 C 0.27047 0.36424 0.958 0.0
C16 C 0.14059 0.34509 0.97982 0.0
C17 C 0.22564 0.42042 0.76519 0.0
C18 C 0.2667 0.45844 0.1978 0.0
O19 O 0.30569 0.49647 0.96811 0.0
O20 O 0.36532 0.54733 0.03761 0.0
O21 O 0.74855 0.20878 0.35951 0.0
Mn22 Mn 0.81775 0.23811 0.33387 0.0
O23 O 0.73519 0.26433 0.3901 0.0
Mn24 Mn 0.79363 0.30179 0.42172 0.0
O25 O 0.88728 0.26745 0.30339 0.0
O26 O 0.80705 0.1744 0.34315 0.0
Mn27 Mn 0.84123 0.17075 0.25374 0.0
O28 O 0.80591 0.23239 0.18385 0.0
O29 O 0.89955 0.21034 0.28452 0.0
O30 O 0.83012 0.2426 0.4842 0.0
O31 O 0.81107 0.29137 0.54075 0.0
O32 O 0.813 0.1156 0.31026 0.0
O33 O 0.82355 0.18111 0.13393 0.0
C34 C 0.83569 0.34319 0.31443 0.0
C35 C 0.72148 0.22366 0.37265 0.0
C36 C 0.91383 0.25201 0.28744 0.0
C37 C 0.79455 0.13279 0.36267 0.0
C38 C 0.81074 0.20934 0.11708 0.0
C39 C 0.82491 0.26392 0.55402 0.0
O40 O 0.82767 0.3021 0.32546 0.0
O41 O 0.81824 0.35779 0.37686 0.0
O42 O 0.55746 0.73891 0.68432 0.0
Mn43 Mn 0.59515 0.809 0.661 0.0
O44 O 0.48859 0.72322 0.72346 0.0
Mn45 Mn 0.50675 0.78166 0.75045 0.0
O46 O 0.63422 0.87943 0.63822 0.0
O47 O 0.64941 0.80136 0.66578 0.0
Mn48 Mn 0.68736 0.83555 0.57671 0.0
O49 O 0.59017 0.80011 0.51219 0.0
O50 O 0.70387 0.89342 0.60843 0.0
O51 O 0.60205 0.81875 0.81005 0.0
O52 O 0.53514 0.80183 0.8671 0.0
O53 O 0.7134 0.80624 0.63611 0.0
O54 O 0.65832 0.81739 0.45884 0.0
C55 C 0.50569 0.82321 0.6432 0.0
C56 C 0.51642 0.71076 0.70346 0.0
C57 C 0.67609 0.90677 0.62357 0.0
C58 C 0.67747 0.78802 0.68742 0.0
C59 C 0.61742 0.80533 0.44389 0.0
C60 C 0.57611 0.81465 0.87999 0.0
O61 O 0.53955 0.81636 0.65412 0.0
O62 O 0.47325 0.80395 0.70432 0.0
O63 O 0.81925 0.54254 0.00873 0.0
Mn64 Mn 0.79178 0.58505 -0.00181 0.0
O65 O 0.77072 0.48588 0.1015 0.0
Mn66 Mn 0.7264 0.50065 0.10468 0.0
O67 O 0.76235 0.62603 0.98375 0.0
O68 O 0.85614 0.63795 0.0013 0.0
Mn69 Mn 0.85547 0.67487 0.91266 0.0
O70 O 0.79206 0.58035 0.84844 0.0
O71 O 0.81715 0.69472 0.94875 0.0
O72 O 0.79209 0.59152 0.14906 0.0
O73 O 0.7288 0.53489 0.20658 0.0
O74 O 0.91208 0.70334 0.95661 0.0
O75 O 0.84373 0.64767 0.79415 0.0
C76 C 0.69348 0.49498 0.97174 0.0
C77 C 0.80661 0.5055 0.05369 0.0
C78 C 0.77669 0.66773 0.96846 0.0
C79 C 0.89805 0.6686 0.01203 0.0
C80 C 0.81421 0.60739 0.7796 0.0
C81 C 0.76414 0.57202 0.21804 0.0
O82 O 0.72806 0.53172 0.00139 0.0
O83 O 0.67751 0.46325 0.03542 0.0
O84 O 0.29115 0.81772 0.35157 0.0
Mn85 Mn 0.22233 0.7921 0.3334 0.0
O86 O 0.29373 0.76848 0.45443 0.0
Mn87 Mn 0.23318 0.72841 0.45383 0.0
O88 O 0.15345 0.76446 0.30843 0.0
O89 O 0.23254 0.85519 0.33041 0.0
Mn90 Mn 0.20346 0.86048 0.23148 0.0
O91 O 0.2291 0.7907 0.18405 0.0
O92 O 0.14337 0.8191 0.2462 0.0
O93 O 0.21508 0.79735 0.48199 0.0
O94 O 0.19969 0.73342 0.54869 0.0
O95 O 0.22981 0.91503 0.29049 0.0
O96 O 0.22828 0.85092 0.12351 0.0
C97 C 0.20543 0.68649 0.33807 0.0
C98 C 0.31284 0.80384 0.40346 0.0
C99 C 0.12837 0.77859 0.27167 0.0
C100 C 0.24462 0.89636 0.35009 0.0
C101 C 0.23184 0.81626 0.1133 0.0
C102 C 0.20265 0.77105 0.55465 0.0
O103 O 0.21198 0.72744 0.33619 0.0
O104 O 0.21587 0.67301 0.41647 0.0
O105 O 0.48638 0.28532 0.68109 0.0
Mn106 Mn 0.44572 0.21561 0.66462 0.0
O107 O 0.54905 0.29316 0.75082 0.0
Mn108 Mn 0.53052 0.23368 0.76784 0.0
O109 O 0.40861 0.14654 0.64332 0.0
O110 O 0.39082 0.22233 0.66728 0.0
Mn111 Mn 0.35162 0.18377 0.58489 0.0
O112 O 0.4495 0.22358 0.51485 0.0
O113 O 0.33712 0.12628 0.62105 0.0
O114 O 0.43779 0.20679 0.815 0.0
O115 O 0.49818 0.20832 0.87715 0.0
O116 O 0.32482 0.21318 0.63818 0.0
O117 O 0.37903 0.20066 0.46515 0.0
C118 C 0.53223 0.19837 0.647 0.0
C119 C 0.52637 0.30942 0.71366 0.0
C120 C 0.36787 0.11646 0.63031 0.0
C121 C 0.36197 0.235 0.68478 0.0
C122 C 0.42038 0.21578 0.44809 0.0
C123 C 0.45962 0.20343 0.88666 0.0
O124 O 0.50005 0.20694 0.66287 0.0
O125 O 0.56248 0.21095 0.71362 0.0
H126 H 0.33774 0.23211 0.87055 0.0
H127 H 0.39666 0.32073 0.62893 0.0
H128 H 0.38015 0.37512 0.70245 0.0
H129 H 0.33531 0.39006 0.82022 0.0
H130 H 0.27376 0.29893 0.05765 0.0
H131 H 0.30566 0.2538 0.00343 0.0
C132 C 0.349 0.26435 0.83668 0.0
C133 C 0.36928 0.27291 0.74556 0.0
C134 C 0.33812 0.29483 0.87831 0.0
C135 C 0.38218 0.31403 0.70043 0.0
C136 C 0.37205 0.34484 0.74186 0.0
C137 C 0.33073 0.36153 0.86242 0.0
C138 C 0.30248 0.34803 0.94342 0.0
C139 C 0.3482 0.33473 0.8288 0.0
C140 C 0.29572 0.31018 -0.00428 0.0
C141 C 0.3136 0.28406 0.96411 0.0
H142 H 0.11258 0.38284 0.13054 0.0
H143 H 0.06774 0.26606 0.94991 0.0
H144 H 0.99787 0.2306 0.02761 0.0
H145 H 0.94764 0.22847 0.14439 0.0
H146 H 0.98121 0.34026 0.32907 0.0
H147 H 0.05565 0.38124 0.25217 0.0
C148 C 0.08747 0.34977 0.10834 0.0
C149 C 0.09715 0.32782 0.03359 0.0
C150 C 0.04467 0.328 0.15421 0.0
C151 C 0.06318 0.28484 0.00646 0.0
C152 C 0.02225 0.26378 0.05115 0.0
C153 C 0.97119 0.26168 0.1696 0.0
C154 C 0.95909 0.28052 0.24462 0.0
C155 C 1.01274 0.2846 0.12503 0.0
C156 C 0.98975 0.32445 0.27241 0.0
C157 C 0.03239 0.34783 0.22826 0.0
H158 H 0.81061 0.105 0.53193 0.0
H159 H 0.70409 0.09104 0.34755 0.0
H160 H 0.65297 0.01971 0.42527 0.0
H161 H 0.64372 0.95418 0.52218 0.0
H162 H 0.75246 0.9697 0.70258 0.0
H163 H 0.79694 0.04709 0.65187 0.0
C164 C 0.77559 0.08749 0.51238 0.0
C165 C 0.76105 0.10381 0.43518 0.0
C166 C 0.74689 0.04583 0.55542 0.0
C167 C 0.71592 0.07988 0.40836 0.0
C168 C 0.68684 0.03856 0.45177 0.0
C169 C 0.67636 0.97512 0.5535 0.0
C170 C 0.69468 0.95594 0.6163 0.0
C171 C 0.70254 0.02004 0.52213 0.0
C172 C 0.73749 0.98348 0.65444 0.0
C173 C 0.76318 0.02781 0.62486 0.0
H174 H 0.71109 0.80041 0.86714 0.0
H175 H 0.63434 0.69895 0.65939 0.0
H176 H 0.65231 0.64698 0.74248 0.0
H177 H 0.70326 0.63673 0.85333 0.0
H178 H 0.78371 0.74095 0.05347 0.0
H179 H 0.7502 0.78485 -0.00279 0.0
C180 C 0.69638 0.76614 0.84337 0.0
C181 C 0.67074 0.7532 0.75844 0.0
C182 C 0.70836 0.73711 0.88963 0.0
C183 C 0.65315 0.70923 0.72612 0.0
C184 C 0.66412 0.67976 0.7728 0.0
C185 C 0.71182 0.66811 0.88753 0.0
C186 C 0.74565 0.68546 0.95817 0.0
C187 C 0.69356 0.69409 0.85181 0.0
C188 C 0.75748 0.72679 -0.00023 0.0
C189 C 0.73862 0.75211 0.96685 0.0
H190 H 0.04096 0.72906 0.33946 0.0
H191 H 0.12365 0.75796 0.08771 0.0
H192 H 0.05831 0.71714 -0.01346 0.0
H193 H 0.97843 0.68323 0.965 0.0
H194 H 0.89276 0.65534 0.20982 0.0
H195 H 0.95756 0.68357 0.31871 0.0
C196 C 0.04439 0.72517 0.26303 0.0
C197 C 0.08716 0.7462 0.22103 0.0
C198 C 1.006 0.70169 0.20403 0.0
C199 C 0.0912 0.74155 0.12164 0.0
C200 C 0.05379 0.71839 0.06356 0.0
C201 C 0.9737 0.68167 0.04259 0.0
C202 C 0.93084 0.66711 0.07934 0.0
C203 C 1.01111 0.69949 0.10338 0.0
C204 C 0.92527 0.66586 0.17981 0.0
C205 C 0.96255 0.68278 0.24184 0.0
H206 H 0.29556 0.03516 0.67131 0.0
H207 H 0.41759 0.09854 0.50825 0.0
H208 H 0.39346 0.0306 0.41564 0.0
H209 H 0.33172 0.95812 0.36178 0.0
H210 H 0.21021 0.8943 0.52527 0.0
H211 H 0.24063 0.9561 0.63955 0.0
C212 C 0.31747 0.03345 0.61795 0.0
C213 C 0.35824 0.07186 0.59679 0.0
C214 C 0.30346 0.99397 0.565 0.0
C215 C 0.38626 0.06932 0.52692 0.0
C216 C 0.3723 0.03052 0.47314 0.0
C217 C 0.31291 0.95675 0.42534 0.0
C218 C 0.26916 0.92122 0.43644 0.0
C219 C 0.33023 0.99319 0.48904 0.0
C220 C 0.24438 0.92071 0.51675 0.0
C221 C 0.26152 0.95647 0.58116 0.0
H222 H 0.20087 0.36764 0.60634 0.0
H223 H 0.26577 0.50563 0.6927 0.0
H224 H 0.28628 0.52884 0.52537 0.0
H225 H 0.28726 0.51011 0.35682 0.0
H226 H 0.21895 0.37249 0.26708 0.0
H227 H 0.19798 0.34892 0.43481 0.0
C228 C 0.2193 0.40287 0.58878 0.0
C229 C 0.23287 0.4349 0.66276 0.0
C230 C 0.23044 0.41596 0.49221 0.0
C231 C 0.25589 0.48028 0.63795 0.0
C232 C 0.26751 0.49357 0.54215 0.0
C233 C 0.26802 0.47482 0.37337 0.0
C234 C 0.25534 0.44303 0.29916 0.0
C235 C 0.25549 0.46167 0.46913 0.0
C236 C 0.22974 0.39762 0.32265 0.0
C237 C 0.21756 0.38418 0.41847 0.0
H238 H 0.87627 0.25571 -0.0108 0.0
H239 H 0.73355 0.17953 0.0151 0.0
H240 H 0.72566 0.18688 0.84064 0.0
H241 H 0.75969 0.21594 0.68088 0.0
H242 H 0.90236 0.29255 0.65483 0.0
H243 H 0.91034 0.28449 0.82903 0.0
C244 C 0.84348 0.24132 0.95641 0.0
C245 C 0.80542 0.21796 0.01462 0.0
C246 C 0.8394 0.24549 0.85617 0.0
C247 C 0.76313 0.19858 0.97179 0.0
C248 C 0.75872 0.20246 0.87209 0.0
C249 C 0.7925 0.23014 0.71348 0.0
C250 C 0.8305 0.25388 0.6553 0.0
C251 C 0.79662 0.22576 0.81358 0.0
C252 C 0.87282 0.27311 0.69801 0.0
C253 C 0.87728 0.26888 0.79761 0.0
H254 H 0.66804 0.82699 0.28119 0.0
H255 H 0.53298 0.77751 0.37858 0.0
H256 H 0.50958 0.7803 0.21372 0.0
H257 H 0.52714 0.79615 0.04315 0.0
H258 H 0.66144 0.84324 0.94324 0.0
H259 H 0.68563 0.84275 0.10912 0.0
C260 C 0.63334 0.81633 0.26651 0.0
C261 C 0.60228 0.80204 0.34261 0.0
C262 C 0.62013 0.81815 0.17149 0.0
C263 C 0.55759 0.7887 0.32177 0.0
C264 C 0.54421 0.79044 0.22749 0.0
C265 C 0.56187 0.80676 0.05727 0.0
C266 C 0.59244 0.81977 0.98056 0.0
C267 C 0.57525 0.80531 0.15206 0.0
C268 C 0.63722 0.8332 0.00079 0.0
C269 C 0.651 0.83263 0.09555 0.0
H270 H 0.85139 0.65644 0.6168 0.0
H271 H 0.75032 0.52704 0.71502 0.0
H272 H 0.72253 0.50648 0.55087 0.0
H273 H 0.72739 0.52542 0.38104 0.0
H274 H 0.82989 0.6539 0.27891 0.0
H275 H 0.85707 0.67508 0.44433 0.0
C276 C 0.82349 0.62358 0.60238 0.0
C277 C 0.80215 0.59324 0.67861 0.0
C278 C 0.80808 0.61217 0.50753 0.0
C279 C 0.7665 0.55087 0.65805 0.0
C280 C 0.75073 0.53927 0.56421 0.0
C281 C 0.75536 0.55835 0.39456 0.0
C282 C 0.7769 0.58799 0.31764 0.0
C283 C 0.77104 0.56985 0.48876 0.0
C284 C 0.81319 0.63034 0.33687 0.0
C285 C 0.82869 0.64239 0.43125 0.0
H286 H 0.16339 0.72372 0.71502 0.0
H287 H 0.25312 0.85679 0.61343 0.0
H288 H 0.2733 0.88247 0.77907 0.0
H289 H 0.26845 0.86568 0.95291 0.0
H290 H 0.1809 0.73162 0.05244 0.0
H291 H 0.15898 0.70693 0.88726 0.0
C292 C 0.1867 0.75853 0.7294 0.0
C293 C 0.20587 0.7886 0.65235 0.0
C294 C 0.20021 0.77228 0.82415 0.0
C295 C 0.23638 0.8335 0.67161 0.0
C296 C 0.2489 0.84788 0.76625 0.0
C297 C 0.24545 0.83088 0.93782 0.0
C298 C 0.22767 0.80012 0.01421 0.0
C299 C 0.2318 0.81728 0.84284 0.0
C300 C 0.19705 0.75533 -0.00549 0.0
C301 C 0.18344 0.74149 0.90026 0.0
H302 H 0.36718 0.18031 0.29041 0.0
H303 H 0.50435 0.26469 0.3748 0.0
H304 H 0.52812 0.26541 0.20927 0.0
H305 H 0.51022 0.24119 0.04255 0.0
H306 H 0.37325 0.16265 0.95217 0.0
H307 H 0.34875 0.161 0.11901 0.0
C308 C 0.40228 0.19927 0.2726 0.0
C309 C 0.43422 0.22116 0.34583 0.0
C310 C 0.41557 0.20045 0.17665 0.0
C311 C 0.47938 0.24597 0.32091 0.0
C312 C 0.49291 0.24677 0.22606 0.0
C313 C 0.47494 0.22328 0.05936 0.0
C314 C 0.44351 0.20111 0.98591 0.0
C315 C 0.46135 0.22356 0.15394 0.0
C316 C 0.39796 0.1794 0.00801 0.0
C317 C 0.38407 0.1786 0.10309 0.0
H318 H 0.22369 0.59401 0.97353 0.0
H319 H 0.1746 0.48433 0.17517 0.0
H320 H 0.15507 0.52551 0.28831 0.0
H321 H 0.16562 0.59731 0.34116 0.0
H322 H 0.22199 0.70987 0.14743 0.0
H323 H 0.22195 0.66235 0.01715 0.0
C324 C 0.20649 0.57836 0.04006 0.0
C325 C 0.20006 0.53604 0.06542 0.0
C326 C 0.19667 0.60293 0.1062 0.0
C327 C 0.17875 0.5163 0.15278 0.0
C328 C 0.16831 0.54022 0.21834 0.0
C329 C 0.17664 0.61118 0.26948 0.0
C330 C 0.19336 0.65706 0.25328 0.0
C331 C 0.1791 0.58425 0.19748 0.0
C332 C 0.20767 0.67456 0.16056 0.0
C333 C 0.20857 0.64748 0.08688 0.0
H334 H 0.65292 0.23388 0.31081 0.0
H335 H 0.68401 0.14756 0.47966 0.0
H336 H 0.61394 0.11945 0.56722 0.0
H337 H 0.55756 0.13711 0.62568 0.0
H338 H 0.53111 0.2288 0.46735 0.0
H339 H 0.58359 0.23542 0.34208 0.0
C340 C 0.64314 0.20722 0.36339 0.0
C341 C 0.67367 0.19318 0.38986 0.0
C342 C 0.60364 0.19261 0.41593 0.0
C343 C 0.66095 0.15871 0.45785 0.0
C344 C 0.62113 0.14313 0.50894 0.0
C345 C 0.56146 0.15648 0.56077 0.0
C346 C 0.5408 0.18276 0.55536 0.0
C347 C 0.59398 0.16225 0.49308 0.0
C348 C 0.54604 0.20784 0.47173 0.0
C349 C 0.57703 0.21245 0.40156 0.0
H350 H 0.43813 0.54939 0.97005 0.0
H351 H 0.32592 0.51151 0.78161 0.0
H352 H 0.37442 0.56567 0.66105 0.0
H353 H 0.44296 0.63817 0.63556 0.0
H354 H 0.55408 0.67855 0.82928 0.0
H355 H 0.51231 0.60946 0.92152 0.0
C356 C 0.42466 0.55138 0.90045 0.0
C357 C 0.37804 0.52735 0.88596 0.0
C358 C 0.45258 0.58444 0.83408 0.0
C359 C 0.36129 0.52992 0.79517 0.0
C360 C 0.38909 0.5616 0.72694 0.0
C361 C 0.45883 0.63061 0.69478 0.0
C362 C 0.5015 0.66345 0.72567 0.0
C363 C 0.43398 0.59131 0.74918 0.0
C364 C 0.5216 0.65363 0.80323 0.0
C365 C 0.49735 0.61434 0.85699 0.0
H366 H 0.8093 0.33562 0.1277 0.0
H367 H 0.91265 0.42061 0.32496 0.0
H368 H 0.92123 0.48646 0.24039 0.0
H369 H 0.88167 0.51741 0.14573 0.0
H370 H 0.77884 0.43241 0.94717 0.0
H371 H 0.78809 0.36942 -0.00527 0.0
C372 C 0.83587 0.36844 0.14781 0.0
C373 C 0.85981 0.37328 0.23347 0.0
C374 C 0.83947 0.4064 0.10043 0.0
C375 C 0.89382 0.41606 0.25916 0.0
C376 C 0.89803 0.45388 0.21201 0.0
C377 C 0.86349 0.48588 0.10839 0.0
C378 C 0.82959 0.47949 0.04321 0.0
C379 C 0.86853 0.44937 0.1375 0.0
C380 C 0.80548 0.43815 -0.00315 0.0
C381 C 0.81026 0.40185 0.02523 0.0
H382 H 0.37814 0.87503 0.49982 0.0
H383 H 0.35489 0.77333 0.29342 0.0
H384 H 0.42718 0.78041 0.33072 0.0
H385 H 0.48412 0.79921 0.45704 0.0
H386 H 0.50842 0.90171 0.66144 0.0
H387 H 0.45015 0.91233 0.58779 0.0
C388 C 0.39016 0.85642 0.45915 0.0
C389 C 0.3614 0.82363 0.39423 0.0
C390 C 0.43177 0.86032 0.48201 0.0
C391 C 0.37681 0.799 0.34321 0.0
C392 C 0.41796 0.80267 0.36538 0.0
C393 C 0.47908 0.82623 0.48056 0.0
C394 C 0.50005 0.84917 0.56547 0.0
C395 C 0.44428 0.83103 0.43943 0.0
C396 C 0.49268 0.88365 0.59603 0.0
C397 C 0.45847 0.88897 0.55531 0.0
H398 H 0.69664 0.47091 0.78844 0.0
H399 H 0.61831 0.49833 -0.01373 0.0
H400 H 0.55033 0.44234 0.90834 0.0
H401 H 0.51612 0.37206 0.81305 0.0
H402 H 0.59521 0.35536 0.59616 0.0
H403 H 0.66042 0.42445 0.6453 0.0
C404 C 0.66553 0.46919 0.80718 0.0
C405 C 0.66317 0.49005 0.89172 0.0
C406 C 0.62642 0.43806 0.75935 0.0
C407 C 0.62127 0.48349 0.92011 0.0
C408 C 0.58213 0.45063 0.87668 0.0
C409 C 0.54676 0.38519 0.77206 0.0
C410 C 0.55122 0.35824 0.70253 0.0
C411 C 0.5844 0.4256 0.80012 0.0
C412 C 0.59118 0.37554 0.65035 0.0
C413 C 0.62877 0.41472 0.67957 0.0
loop_
_geom_bond_atom_site_label_1
_geom_bond_atom_site_label_2
_geom_bond_distance
_geom_bond_site_symmetry_2
_ccdc_geom_bond_type
O0 Mn1 2.163 . S
O0 C14 1.244 . S
Mn1 O0 2.163 . S
Mn1 O4 2.160 1_554 S
Mn1 O5 2.221 . S
Mn1 O7 2.163 1_554 S
Mn1 O9 2.160 . S
Mn1 O19 2.221 . S
O2 Mn3 2.087 . S
O2 C14 1.256 . S
Mn3 O2 2.087 . S
Mn3 O10 2.089 . S
Mn3 O19 2.290 . S
Mn3 O20 2.251 1_554 S
O4 Mn1 2.160 1_556 S
O4 C15 1.239 . S
O5 Mn1 2.221 . S
O5 Mn6 2.290 1_554 S
O5 C16 1.278 . S
Mn6 O5 2.290 1_556 S
Mn6 O8 2.089 . S
Mn6 O11 2.251 . S
Mn6 O12 2.087 . S
O7 Mn1 2.163 1_556 S
O7 C17 1.244 . S
O8 Mn6 2.089 . S
O8 C15 1.256 . S
O9 Mn1 2.160 . S
O9 C18 1.239 . S
O10 Mn3 2.089 . S
O10 C18 1.256 . S
O11 Mn6 2.251 . S
O11 C16 1.241 1_556 S
O12 Mn6 2.087 . S
O12 C17 1.256 . S
C13 O19 1.278 1_556 S
C13 O20 1.241 . S
C14 O0 1.244 . S
C14 O2 1.256 . S
C15 O4 1.239 . S
C15 O8 1.256 . S
C16 O5 1.278 . S
C16 O11 1.241 1_554 S
C17 O7 1.244 . S
C17 O12 1.256 . S
C18 O9 1.239 . S
C18 O10 1.256 . S
O19 Mn1 2.221 . S
O19 Mn3 2.290 . S
O19 C13 1.278 1_554 S
O20 Mn3 2.251 1_556 S
O20 C13 1.241 . S
O21 Mn22 2.163 . S
O21 C35 1.244 . S
Mn22 O21 2.163 . S
Mn22 O25 2.160 . S
Mn22 O26 2.221 . S
Mn22 O28 2.163 . S
Mn22 O30 2.160 . S
Mn22 O40 2.221 . S
O23 Mn24 2.087 . S
O23 C35 1.256 . S
Mn24 O23 2.087 . S
Mn24 O31 2.089 . S
Mn24 O40 2.290 . S
Mn24 O41 2.251 . S
O25 Mn22 2.160 . S
O25 C36 1.239 . S
O26 Mn22 2.221 . S
O26 Mn27 2.290 . S
O26 C37 1.278 . S
Mn27 O26 2.290 . S
Mn27 O29 2.089 . S
Mn27 O32 2.251 . S
Mn27 O33 2.087 . S
O28 Mn22 2.163 . S
O28 C38 1.244 . S
O29 Mn27 2.089 . S
O29 C36 1.256 . S
O30 Mn22 2.160 . S
O30 C39 1.239 . S
O31 Mn24 2.089 . S
O31 C39 1.256 . S
O32 Mn27 2.251 . S
O32 C37 1.241 . S
O33 Mn27 2.087 . S
O33 C38 1.256 . S
C34 O40 1.278 . S
C34 O41 1.241 . S
C35 O21 1.244 . S
C35 O23 1.256 . S
C36 O25 1.239 . S
C36 O29 1.256 . S
C37 O26 1.278 . S
C37 O32 1.241 . S
C38 O28 1.244 . S
C38 O33 1.256 . S
C39 O30 1.239 . S
C39 O31 1.256 . S
O40 Mn22 2.221 . S
O40 Mn24 2.290 . S
O40 C34 1.278 . S
O41 Mn24 2.251 . S
O41 C34 1.241 . S
O42 Mn43 2.163 . S
O42 C56 1.244 . S
Mn43 O42 2.163 . S
Mn43 O46 2.160 . S
Mn43 O47 2.221 . S
Mn43 O49 2.163 . S
Mn43 O51 2.160 . S
Mn43 O61 2.221 . S
O44 Mn45 2.087 . S
O44 C56 1.256 . S
Mn45 O44 2.087 . S
Mn45 O52 2.089 . S
Mn45 O61 2.290 . S
Mn45 O62 2.251 . S
O46 Mn43 2.160 . S
O46 C57 1.239 . S
O47 Mn43 2.221 . S
O47 Mn48 2.290 . S
O47 C58 1.278 . S
Mn48 O47 2.290 . S
Mn48 O50 2.089 . S
Mn48 O53 2.251 . S
Mn48 O54 2.087 . S
O49 Mn43 2.163 . S
O49 C59 1.244 . S
O50 Mn48 2.089 . S
O50 C57 1.256 . S
O51 Mn43 2.160 . S
O51 C60 1.239 . S
O52 Mn45 2.089 . S
O52 C60 1.256 . S
O53 Mn48 2.251 . S
O53 C58 1.241 . S
O54 Mn48 2.087 . S
O54 C59 1.256 . S
C55 O61 1.278 . S
C55 O62 1.241 . S
C56 O42 1.244 . S
C56 O44 1.256 . S
C57 O46 1.239 . S
C57 O50 1.256 . S
C58 O47 1.278 . S
C58 O53 1.241 . S
C59 O49 1.244 . S
C59 O54 1.256 . S
C60 O51 1.239 . S
C60 O52 1.256 . S
O61 Mn43 2.221 . S
O61 Mn45 2.290 . S
O61 C55 1.278 . S
O62 Mn45 2.251 . S
O62 C55 1.241 . S
O63 Mn64 2.163 . S
O63 C77 1.244 . S
Mn64 O63 2.163 . S
Mn64 O67 2.160 1_554 S
Mn64 O68 2.221 . S
Mn64 O70 2.163 1_554 S
Mn64 O72 2.160 . S
Mn64 O82 2.221 . S
O65 Mn66 2.087 . S
O65 C77 1.256 . S
Mn66 O65 2.087 . S
Mn66 O73 2.089 . S
Mn66 O82 2.290 . S
Mn66 O83 2.251 1_554 S
O67 Mn64 2.160 1_556 S
O67 C78 1.239 . S
O68 Mn64 2.221 . S
O68 Mn69 2.290 1_554 S
O68 C79 1.278 . S
Mn69 O68 2.290 1_556 S
Mn69 O71 2.089 . S
Mn69 O74 2.251 . S
Mn69 O75 2.087 . S
O70 Mn64 2.163 1_556 S
O70 C80 1.244 . S
O71 Mn69 2.089 . S
O71 C78 1.256 . S
O72 Mn64 2.160 . S
O72 C81 1.239 . S
O73 Mn66 2.089 . S
O73 C81 1.256 . S
O74 Mn69 2.251 . S
O74 C79 1.241 1_556 S
O75 Mn69 2.087 . S
O75 C80 1.256 . S
C76 O82 1.278 1_556 S
C76 O83 1.241 . S
C77 O63 1.244 . S
C77 O65 1.256 . S
C78 O67 1.239 . S
C78 O71 1.256 . S
C79 O68 1.278 . S
C79 O74 1.241 1_554 S
C80 O70 1.244 . S
C80 O75 1.256 . S
C81 O72 1.239 . S
C81 O73 1.256 . S
O82 Mn64 2.221 . S
O82 Mn66 2.290 . S
O82 C76 1.278 1_554 S
O83 Mn66 2.251 1_556 S
O83 C76 1.241 . S
O84 Mn85 2.163 . S
O84 C98 1.244 . S
Mn85 O84 2.163 . S
Mn85 O88 2.160 . S
Mn85 O89 2.221 . S
Mn85 O91 2.163 . S
Mn85 O93 2.160 . S
Mn85 O103 2.221 . S
O86 Mn87 2.087 . S
O86 C98 1.256 . S
Mn87 O86 2.087 . S
Mn87 O94 2.089 . S
Mn87 O103 2.290 . S
Mn87 O104 2.251 . S
O88 Mn85 2.160 . S
O88 C99 1.239 . S
O89 Mn85 2.221 . S
O89 Mn90 2.290 . S
O89 C100 1.278 . S
Mn90 O89 2.290 . S
Mn90 O92 2.089 . S
Mn90 O95 2.251 . S
Mn90 O96 2.087 . S
O91 Mn85 2.163 . S
O91 C101 1.244 . S
O92 Mn90 2.089 . S
O92 C99 1.256 . S
O93 Mn85 2.160 . S
O93 C102 1.239 . S
O94 Mn87 2.089 . S
O94 C102 1.256 . S
O95 Mn90 2.251 . S
O95 C100 1.241 . S
O96 Mn90 2.087 . S
O96 C101 1.256 . S
C97 O103 1.278 . S
C97 O104 1.241 . S
C98 O84 1.244 . S
C98 O86 1.256 . S
C99 O88 1.239 . S
C99 O92 1.256 . S
C100 O89 1.278 . S
C100 O95 1.241 . S
C101 O91 1.244 . S
C101 O96 1.256 . S
C102 O93 1.239 . S
C102 O94 1.256 . S
O103 Mn85 2.221 . S
O103 Mn87 2.290 . S
O103 C97 1.278 . S
O104 Mn87 2.251 . S
O104 C97 1.241 . S
O105 Mn106 2.163 . S
O105 C119 1.244 . S
Mn106 O105 2.163 . S
Mn106 O109 2.160 . S
Mn106 O110 2.221 . S
Mn106 O112 2.163 . S
Mn106 O114 2.160 . S
Mn106 O124 2.221 . S
O107 Mn108 2.087 . S
O107 C119 1.256 . S
Mn108 O107 2.087 . S
Mn108 O115 2.089 . S
Mn108 O124 2.290 . S
Mn108 O125 2.251 . S
O109 Mn106 2.160 . S
O109 C120 1.239 . S
O110 Mn106 2.221 . S
O110 Mn111 2.290 . S
O110 C121 1.278 . S
Mn111 O110 2.290 . S
Mn111 O113 2.089 . S
Mn111 O116 2.251 . S
Mn111 O117 2.087 . S
O112 Mn106 2.163 . S
O112 C122 1.244 . S
O113 Mn111 2.089 . S
O113 C120 1.256 . S
O114 Mn106 2.160 . S
O114 C123 1.239 . S
O115 Mn108 2.089 . S
O115 C123 1.256 . S
O116 Mn111 2.251 . S
O116 C121 1.241 . S
O117 Mn111 2.087 . S
O117 C122 1.256 . S
C118 O124 1.278 . S
C118 O125 1.241 . S
C119 O105 1.244 . S
C119 O107 1.256 . S
C120 O109 1.239 . S
C120 O113 1.256 . S
C121 O110 1.278 . S
C121 O116 1.241 . S
C122 O112 1.244 . S
C122 O117 1.256 . S
C123 O114 1.239 . S
C123 O115 1.256 . S
O124 Mn106 2.221 . S
O124 Mn108 2.290 . S
O124 C118 1.278 . S
O125 Mn108 2.251 . S
O125 C118 1.241 . S
H126 C132 0.930 . S
H127 C135 0.930 . S
H128 C136 0.930 . S
H129 C137 0.930 . S
H130 C140 0.930 1_554 S
H131 C141 0.930 1_554 S
C132 H126 0.930 . S
C132 C133 1.355 . S
C132 C134 1.415 . S
C133 C132 1.355 . S
C133 C135 1.419 . S
C134 C132 1.415 . S
C134 C139 1.425 . S
C134 C141 1.409 . S
C135 H127 0.930 . S
C135 C133 1.419 . S
C135 C136 1.362 . S
C136 H128 0.930 . S
C136 C135 1.362 . S
C136 C139 1.409 . S
C137 H129 0.930 . S
C137 C138 1.355 . S
C137 C139 1.415 . S
C138 C137 1.355 . S
C138 C140 1.419 . S
C139 C134 1.425 . S
C139 C136 1.409 . S
C139 C137 1.415 . S
C140 H130 0.930 1_556 S
C140 C138 1.419 . S
C140 C141 1.362 . S
C141 H131 0.930 1_556 S
C141 C134 1.409 . S
C141 C140 1.362 . S
H142 C148 0.930 . S
H143 C151 0.930 1_556 S
H144 C152 0.930 1_655 S
H145 C153 0.930 . S
H146 C156 0.930 . S
H147 C157 0.930 . S
C148 H142 0.930 . S
C148 C149 1.355 . S
C148 C150 1.415 . S
C149 C148 1.355 . S
C149 C151 1.419 . S
C150 C148 1.415 . S
C150 C155 1.425 1_455 S
C150 C157 1.409 . S
C151 H143 0.930 1_554 S
C151 C149 1.419 . S
C151 C152 1.362 . S
C152 H144 0.930 1_455 S
C152 C151 1.362 . S
C152 C155 1.409 1_455 S
C153 H145 0.930 . S
C153 C154 1.355 . S
C153 C155 1.415 . S
C154 C153 1.355 . S
C154 C156 1.419 . S
C155 C150 1.425 1_655 S
C155 C152 1.409 1_655 S
C155 C153 1.415 . S
C156 H146 0.930 . S
C156 C154 1.419 . S
C156 C157 1.362 1_655 S
C157 H147 0.930 . S
C157 C150 1.409 . S
C157 C156 1.362 1_455 S
H158 C164 0.930 . S
H159 C167 0.930 . S
H160 C168 0.930 . S
H161 C169 0.930 . S
H162 C172 0.930 . S
H163 C173 0.930 1_545 S
C164 H158 0.930 . S
C164 C165 1.355 . S
C164 C166 1.415 . S
C165 C164 1.355 . S
C165 C167 1.419 . S
C166 C164 1.415 . S
C166 C171 1.425 . S
C166 C173 1.409 1_545 S
C167 H159 0.930 . S
C167 C165 1.419 . S
C167 C168 1.362 . S
C168 H160 0.930 . S
C168 C167 1.362 . S
C168 C171 1.409 . S
C169 H161 0.930 . S
C169 C170 1.355 . S
C169 C171 1.415 1_565 S
C170 C169 1.355 . S
C170 C172 1.419 . S
C171 C166 1.425 . S
C171 C168 1.409 . S
C171 C169 1.415 1_545 S
C172 H162 0.930 . S
C172 C170 1.419 . S
C172 C173 1.362 . S
C173 H163 0.930 1_565 S
C173 C166 1.409 1_565 S
C173 C172 1.362 . S
H174 C180 0.930 . S
H175 C183 0.930 . S
H176 C184 0.930 . S
H177 C185 0.930 . S
H178 C188 0.930 1_554 S
H179 C189 0.930 1_554 S
C180 H174 0.930 . S
C180 C181 1.355 . S
C180 C182 1.415 . S
C181 C180 1.355 . S
C181 C183 1.419 . S
C182 C180 1.415 . S
C182 C187 1.425 . S
C182 C189 1.409 . S
C183 H175 0.930 . S
C183 C181 1.419 . S
C183 C184 1.362 . S
C184 H176 0.930 . S
C184 C183 1.362 . S
C184 C187 1.409 . S
C185 H177 0.930 . S
C185 C186 1.355 . S
C185 C187 1.415 . S
C186 C185 1.355 . S
C186 C188 1.419 . S
C187 C182 1.425 . S
C187 C184 1.409 . S
C187 C185 1.415 . S
C188 H178 0.930 1_556 S
C188 C186 1.419 . S
C188 C189 1.362 . S
C189 H179 0.930 1_556 S
C189 C182 1.409 . S
C189 C188 1.362 . S
H190 C196 0.930 . S
H191 C199 0.930 . S
H192 C200 0.930 . S
H193 C201 0.930 1_556 S
H194 C204 0.930 . S
H195 C205 0.930 . S
C196 H190 0.930 . S
C196 C197 1.355 . S
C196 C198 1.415 1_455 S
C197 C196 1.355 . S
C197 C199 1.419 . S
C198 C196 1.415 1_655 S
C198 C203 1.425 . S
C198 C205 1.409 . S
C199 H191 0.930 . S
C199 C197 1.419 . S
C199 C200 1.362 . S
C200 H192 0.930 . S
C200 C199 1.362 . S
C200 C203 1.409 1_455 S
C201 H193 0.930 1_554 S
C201 C202 1.355 . S
C201 C203 1.415 . S
C202 C201 1.355 . S
C202 C204 1.419 . S
C203 C198 1.425 . S
C203 C200 1.409 1_655 S
C203 C201 1.415 . S
C204 H194 0.930 . S
C204 C202 1.419 . S
C204 C205 1.362 . S
C205 H195 0.930 . S
C205 C198 1.409 . S
C205 C204 1.362 . S
H206 C212 0.930 . S
H207 C215 0.930 . S
H208 C216 0.930 . S
H209 C217 0.930 . S
H210 C220 0.930 . S
H211 C221 0.930 . S
C212 H206 0.930 . S
C212 C213 1.355 . S
C212 C214 1.415 1_545 S
C213 C212 1.355 . S
C213 C215 1.419 . S
C214 C212 1.415 1_565 S
C214 C219 1.425 . S
C214 C221 1.409 . S
C215 H207 0.930 . S
C215 C213 1.419 . S
C215 C216 1.362 . S
C216 H208 0.930 . S
C216 C215 1.362 . S
C216 C219 1.409 1_545 S
C217 H209 0.930 . S
C217 C218 1.355 . S
C217 C219 1.415 . S
C218 C217 1.355 . S
C218 C220 1.419 . S
C219 C214 1.425 . S
C219 C216 1.409 1_565 S
C219 C217 1.415 . S
C220 H210 0.930 . S
C220 C218 1.419 . S
C220 C221 1.362 . S
C221 H211 0.930 . S
C221 C214 1.409 . S
C221 C220 1.362 . S
H222 C228 0.930 . S
H223 C231 0.930 . S
H224 C232 0.930 . S
H225 C233 0.930 . S
H226 C236 0.930 . S
H227 C237 0.930 . S
C228 H222 0.930 . S
C228 C229 1.355 . S
C228 C230 1.415 . S
C229 C228 1.355 . S
C229 C231 1.419 . S
C230 C228 1.415 . S
C230 C235 1.425 . S
C230 C237 1.409 . S
C231 H223 0.930 . S
C231 C229 1.419 . S
C231 C232 1.362 . S
C232 H224 0.930 . S
C232 C231 1.362 . S
C232 C235 1.409 . S
C233 H225 0.930 . S
C233 C234 1.355 . S
C233 C235 1.415 . S
C234 C233 1.355 . S
C234 C236 1.419 . S
C235 C230 1.425 . S
C235 C232 1.409 . S
C235 C233 1.415 . S
C236 H226 0.930 . S
C236 C234 1.419 . S
C236 C237 1.362 . S
C237 H227 0.930 . S
C237 C230 1.409 . S
C237 C236 1.362 . S
H238 C244 0.930 1_554 S
H239 C247 0.930 1_554 S
H240 C248 0.930 . S
H241 C249 0.930 . S
H242 C252 0.930 . S
H243 C253 0.930 . S
C244 H238 0.930 1_556 S
C244 C245 1.355 1_556 S
C244 C246 1.415 . S
C245 C244 1.355 1_554 S
C245 C247 1.419 1_554 S
C246 C244 1.415 . S
C246 C251 1.425 . S
C246 C253 1.409 . S
C247 H239 0.930 1_556 S
C247 C245 1.419 1_556 S
C247 C248 1.362 . S
C248 H240 0.930 . S
C248 C247 1.362 . S
C248 C251 1.409 . S
C249 H241 0.930 . S
C249 C250 1.355 . S
C249 C251 1.415 . S
C250 C249 1.355 . S
C250 C252 1.419 . S
C251 C246 1.425 . S
C251 C248 1.409 . S
C251 C249 1.415 . S
C252 H242 0.930 . S
C252 C250 1.419 . S
C252 C253 1.362 . S
C253 H243 0.930 . S
C253 C246 1.409 . S
C253 C252 1.362 . S
H254 C260 0.930 . S
H255 C263 0.930 . S
H256 C264 0.930 . S
H257 C265 0.930 . S
H258 C268 0.930 1_556 S
H259 C269 0.930 . S
C260 H254 0.930 . S
C260 C261 1.355 . S
C260 C262 1.415 . S
C261 C260 1.355 . S
C261 C263 1.419 . S
C262 C260 1.415 . S
C262 C267 1.425 . S
C262 C269 1.409 . S
C263 H255 0.930 . S
C263 C261 1.419 . S
C263 C264 1.362 . S
C264 H256 0.930 . S
C264 C263 1.362 . S
C264 C267 1.409 . S
C265 H257 0.930 . S
C265 C266 1.355 1_554 S
C265 C267 1.415 . S
C266 C265 1.355 1_556 S
C266 C268 1.419 1_556 S
C267 C262 1.425 . S
C267 C264 1.409 . S
C267 C265 1.415 . S
C268 H258 0.930 1_554 S
C268 C266 1.419 1_554 S
C268 C269 1.362 . S
C269 H259 0.930 . S
C269 C262 1.409 . S
C269 C268 1.362 . S
H270 C276 0.930 . S
H271 C279 0.930 . S
H272 C280 0.930 . S
H273 C281 0.930 . S
H274 C284 0.930 . S
H275 C285 0.930 . S
C276 H270 0.930 . S
C276 C277 1.355 . S
C276 C278 1.415 . S
C277 C276 1.355 . S
C277 C279 1.419 . S
C278 C276 1.415 . S
C278 C283 1.425 . S
C278 C285 1.409 . S
C279 H271 0.930 . S
C279 C277 1.419 . S
C279 C280 1.362 . S
C280 H272 0.930 . S
C280 C279 1.362 . S
C280 C283 1.409 . S
C281 H273 0.930 . S
C281 C282 1.355 . S
C281 C283 1.415 . S
C282 C281 1.355 . S
C282 C284 1.419 . S
C283 C278 1.425 . S
C283 C280 1.409 . S
C283 C281 1.415 . S
C284 H274 0.930 . S
C284 C282 1.419 . S
C284 C285 1.362 . S
C285 H275 0.930 . S
C285 C278 1.409 . S
C285 C284 1.362 . S
H286 C292 0.930 . S
H287 C295 0.930 . S
H288 C296 0.930 . S
H289 C297 0.930 . S
H290 C300 0.930 . S
H291 C301 0.930 . S
C292 H286 0.930 . S
C292 C293 1.355 . S
C292 C294 1.415 . S
C293 C292 1.355 . S
C293 C295 1.419 . S
C294 C292 1.415 . S
C294 C299 1.425 . S
C294 C301 1.409 . S
C295 H287 0.930 . S
C295 C293 1.419 . S
C295 C296 1.362 . S
C296 H288 0.930 . S
C296 C295 1.362 . S
C296 C299 1.409 . S
C297 H289 0.930 . S
C297 C298 1.355 1_556 S
C297 C299 1.415 . S
C298 C297 1.355 1_554 S
C298 C300 1.419 . S
C299 C294 1.425 . S
C299 C296 1.409 . S
C299 C297 1.415 . S
C300 H290 0.930 . S
C300 C298 1.419 . S
C300 C301 1.362 1_554 S
C301 H291 0.930 . S
C301 C294 1.409 . S
C301 C300 1.362 1_556 S
H302 C308 0.930 . S
H303 C311 0.930 . S
H304 C312 0.930 . S
H305 C313 0.930 . S
H306 C316 0.930 1_556 S
H307 C317 0.930 . S
C308 H302 0.930 . S
C308 C309 1.355 . S
C308 C310 1.415 . S
C309 C308 1.355 . S
C309 C311 1.419 . S
C310 C308 1.415 . S
C310 C315 1.425 . S
C310 C317 1.409 . S
C311 H303 0.930 . S
C311 C309 1.419 . S
C311 C312 1.362 . S
C312 H304 0.930 . S
C312 C311 1.362 . S
C312 C315 1.409 . S
C313 H305 0.930 . S
C313 C314 1.348 1_554 S
C313 C315 1.415 . S
C314 C313 1.348 1_556 S
C314 C316 1.416 1_556 S
C315 C310 1.425 . S
C315 C312 1.409 . S
C315 C313 1.415 . S
C316 H306 0.930 1_554 S
C316 C314 1.416 1_554 S
C316 C317 1.362 . S
C317 H307 0.930 . S
C317 C310 1.409 . S
C317 C316 1.362 . S
H318 C324 0.930 . S
H319 C327 0.930 . S
H320 C328 0.930 . S
H321 C329 0.930 . S
H322 C332 0.930 . S
H323 C333 0.930 . S
C324 H318 0.930 . S
C324 C325 1.355 . S
C324 C326 1.415 . S
C325 C324 1.355 . S
C325 C327 1.419 . S
C326 C324 1.415 . S
C326 C331 1.425 . S
C326 C333 1.409 . S
C327 H319 0.930 . S
C327 C325 1.419 . S
C327 C328 1.362 . S
C328 H320 0.930 . S
C328 C327 1.362 . S
C328 C331 1.409 . S
C329 H321 0.930 . S
C329 C330 1.355 . S
C329 C331 1.415 . S
C330 C329 1.355 . S
C330 C332 1.419 . S
C331 C326 1.425 . S
C331 C328 1.409 . S
C331 C329 1.415 . S
C332 H322 0.930 . S
C332 C330 1.419 . S
C332 C333 1.362 . S
C333 H323 0.930 . S
C333 C326 1.409 . S
C333 C332 1.362 . S
H334 C340 0.930 . S
H335 C343 0.930 . S
H336 C344 0.930 . S
H337 C345 0.930 . S
H338 C348 0.930 . S
H339 C349 0.930 . S
C340 H334 0.930 . S
C340 C341 1.355 . S
C340 C342 1.415 . S
C341 C340 1.355 . S
C341 C343 1.419 . S
C342 C340 1.415 . S
C342 C347 1.425 . S
C342 C349 1.409 . S
C343 H335 0.930 . S
C343 C341 1.419 . S
C343 C344 1.362 . S
C344 H336 0.930 . S
C344 C343 1.362 . S
C344 C347 1.409 . S
C345 H337 0.930 . S
C345 C346 1.355 . S
C345 C347 1.415 . S
C346 C345 1.355 . S
C346 C348 1.419 . S
C347 C342 1.425 . S
C347 C344 1.409 . S
C347 C345 1.415 . S
C348 H338 0.930 . S
C348 C346 1.419 . S
C348 C349 1.362 . S
C349 H339 0.930 . S
C349 C342 1.409 . S
C349 C348 1.362 . S
H350 C356 0.930 1_554 S
H351 C359 0.930 . S
H352 C360 0.930 . S
H353 C361 0.930 . S
H354 C364 0.930 . S
H355 C365 0.930 1_554 S
C356 H350 0.930 1_556 S
C356 C357 1.355 . S
C356 C358 1.415 . S
C357 C356 1.355 . S
C357 C359 1.419 . S
C358 C356 1.415 . S
C358 C363 1.425 . S
C358 C365 1.409 . S
C359 H351 0.930 . S
C359 C357 1.419 . S
C359 C360 1.362 . S
C360 H352 0.930 . S
C360 C359 1.362 . S
C360 C363 1.409 . S
C361 H353 0.930 . S
C361 C362 1.355 . S
C361 C363 1.415 . S
C362 C361 1.355 . S
C362 C364 1.419 . S
C363 C358 1.425 . S
C363 C360 1.409 . S
C363 C361 1.415 . S
C364 H354 0.930 . S
C364 C362 1.419 . S
C364 C365 1.362 . S
C365 H355 0.930 1_556 S
C365 C358 1.409 . S
C365 C364 1.362 . S
H366 C372 0.930 . S
H367 C375 0.930 . S
H368 C376 0.930 . S
H369 C377 0.930 . S
H370 C380 0.930 . S
H371 C381 0.930 . S
C372 H366 0.930 . S
C372 C373 1.355 . S
C372 C374 1.415 . S
C373 C372 1.355 . S
C373 C375 1.419 . S
C374 C372 1.415 . S
C374 C379 1.425 . S
C374 C381 1.409 . S
C375 H367 0.930 . S
C375 C373 1.419 . S
C375 C376 1.362 . S
C376 H368 0.930 . S
C376 C375 1.362 . S
C376 C379 1.409 . S
C377 H369 0.930 . S
C377 C378 1.355 . S
C377 C379 1.415 . S
C378 C377 1.355 . S
C378 C380 1.419 . S
C379 C374 1.425 . S
C379 C376 1.409 . S
C379 C377 1.415 . S
C380 H370 0.930 . S
C380 C378 1.419 . S
C380 C381 1.362 . S
C381 H371 0.930 . S
C381 C374 1.409 . S
C381 C380 1.362 . S
H382 C388 0.930 . S
H383 C391 0.930 . S
H384 C392 0.930 . S
H385 C393 0.930 . S
H386 C396 0.930 . S
H387 C397 0.930 . S
C388 H382 0.930 . S
C388 C389 1.355 . S
C388 C390 1.415 . S
C389 C388 1.355 . S
C389 C391 1.419 . S
C390 C388 1.415 . S
C390 C395 1.425 . S
C390 C397 1.409 . S
C391 H383 0.930 . S
C391 C389 1.419 . S
C391 C392 1.362 . S
C392 H384 0.930 . S
C392 C391 1.362 . S
C392 C395 1.409 . S
C393 H385 0.930 . S
C393 C394 1.355 . S
C393 C395 1.415 . S
C394 C393 1.355 . S
C394 C396 1.419 . S
C395 C390 1.425 . S
C395 C392 1.409 . S
C395 C393 1.415 . S
C396 H386 0.930 . S
C396 C394 1.419 . S
C396 C397 1.362 . S
C397 H387 0.930 . S
C397 C390 1.409 . S
C397 C396 1.362 . S
H398 C404 0.930 . S
H399 C407 0.930 1_554 S
H400 C408 0.930 1_554 S
H401 C409 0.930 . S
H402 C412 0.930 . S
H403 C413 0.930 . S
C404 H398 0.930 . S
C404 C405 1.355 . S
C404 C406 1.415 . S
C405 C404 1.355 . S
C405 C407 1.419 . S
C406 C404 1.415 . S
C406 C411 1.425 . S
C406 C413 1.409 . S
C407 H399 0.930 1_556 S
C407 C405 1.419 . S
C407 C408 1.362 . S
C408 H400 0.930 1_556 S
C408 C407 1.362 . S
C408 C411 1.409 . S
C409 H401 0.930 . S
C409 C410 1.355 . S
C409 C411 1.415 . S
C410 C409 1.355 . S
C410 C412 1.419 . S
C411 C406 1.425 . S
C411 C408 1.409 . S
C411 C409 1.415 . S
C412 H402 0.930 . S
C412 C410 1.419 . S
C412 C413 1.362 . S
C413 H403 0.930 . S
C413 C406 1.409 . S
C413 C412 1.362 . S
C133 C121 1.345 . S
C138 C15 1.487 . S
C149 C16 1.338 . S
C154 C36 1.489 . S
C165 C37 1.396 . S
C170 C57 1.459 . S
C181 C58 1.349 . S
C186 C78 1.485 . S
C197 C99 1.434 . S
C202 C79 1.431 . S
C213 C120 1.455 . S
C218 C100 1.394 . S
C229 C17 1.233 . S
C234 C18 1.210 . S
C245 C38 1.239 . S
C250 C39 1.238 . S
C261 C59 1.244 . S
C266 C60 1.228 . S
C277 C80 1.235 . S
C282 C81 1.214 . S
C293 C102 1.182 . S
C298 C101 1.210 . S
C309 C122 1.249 . S
C314 C123 1.246 . S
C325 C14 1.299 . S
C330 C97 1.292 . S
C341 C35 1.331 . S
C346 C118 1.300 . S
C357 C13 1.261 . S
C362 C56 1.374 . S
C373 C34 1.273 . S
C378 C77 1.298 . S
C389 C98 1.367 . S
C394 C55 1.161 . S
C405 C76 1.229 . S
C410 C119 1.313 . S
