# Generated by pormake.
# Topology uoa, (4)-cn, num edge types: 1
# Building blocks:
#     Node 0, Type 0, BuildingBlock: CEKHIL_clean_sbu_0, # of connection points: 4
#     Node 1, Type 0, BuildingBlock: CEKHIL_clean_sbu_0, # of connection points: 4
#     Node 2, Type 0, BuildingBlock: CEKHIL_clean_sbu_0, # of connection points: 4
#     Node 3, Type 0, BuildingBlock: CEKHIL_clean_sbu_0, # of connection points: 4
#     Node 4, Type 0, BuildingBlock: CEKHIL_clean_sbu_0, # of connection points: 4
#     Node 5, Type 0, BuildingBlock: CEKHIL_clean_sbu_0, # of connection points: 4
#     Node 6, Type 0, BuildingBlock: CEKHIL_clean_sbu_0, # of connection points: 4
#     Node 7, Type 0, BuildingBlock: CEKHIL_clean_sbu_0, # of connection points: 4
#     Node 8, Type 0, BuildingBlock: CEKHIL_clean_sbu_0, # of connection points: 4
#     Node 9, Type 0, BuildingBlock: CEKHIL_clean_sbu_0, # of connection points: 4
#     Node 10, Type 0, BuildingBlock: CEKHIL_clean_sbu_0, # of connection points: 4
#     Node 11, Type 0, BuildingBlock: CEKHIL_clean_sbu_0, # of connection points: 4
#     Node 12, Type 0, BuildingBlock: CEKHIL_clean_sbu_0, # of connection points: 4
#     Node 13, Type 0, BuildingBlock: CEKHIL_clean_sbu_0, # of connection points: 4
#     Node 14, Type 0, BuildingBlock: CEKHIL_clean_sbu_0, # of connection points: 4
#     Node 15, Type 0, BuildingBlock: CEKHIL_clean_sbu_0, # of connection points: 4
#     Node 16, Type 0, BuildingBlock: CEKHIL_clean_sbu_0, # of connection points: 4
#     Node 17, Type 0, BuildingBlock: CEKHIL_clean_sbu_0, # of connection points: 4
#     Node 18, Type 0, BuildingBlock: CEKHIL_clean_sbu_0, # of connection points: 4
#     Node 19, Type 0, BuildingBlock: CEKHIL_clean_sbu_0, # of connection points: 4
#     Node 20, Type 0, BuildingBlock: CEKHIL_clean_sbu_0, # of connection points: 4
#     Node 21, Type 0, BuildingBlock: CEKHIL_clean_sbu_0, # of connection points: 4
#     Node 22, Type 0, BuildingBlock: CEKHIL_clean_sbu_0, # of connection points: 4
#     Node 23, Type 0, BuildingBlock: CEKHIL_clean_sbu_0, # of connection points: 4
#     Node 24, Type 0, BuildingBlock: CEKHIL_clean_sbu_0, # of connection points: 4
#     Node 25, Type 0, BuildingBlock: CEKHIL_clean_sbu_0, # of connection points: 4
#     Node 26, Type 0, BuildingBlock: CEKHIL_clean_sbu_0, # of connection points: 4
#     Node 27, Type 0, BuildingBlock: CEKHIL_clean_sbu_0, # of connection points: 4
#     Node 28, Type 0, BuildingBlock: CEKHIL_clean_sbu_0, # of connection points: 4
#     Node 29, Type 0, BuildingBlock: CEKHIL_clean_sbu_0, # of connection points: 4
#     Node 30, Type 0, BuildingBlock: CEKHIL_clean_sbu_0, # of connection points: 4
#     Node 31, Type 0, BuildingBlock: CEKHIL_clean_sbu_0, # of connection points: 4
#     Edge 32, Type (0, 0), BuildingBlock: KIFKEQ_clean_linker_1, # of connection points: 2
#     Edge 33, Type (0, 0), BuildingBlock: KIFKEQ_clean_linker_1, # of connection points: 2
#     Edge 34, Type (0, 0), BuildingBlock: KIFKEQ_clean_linker_1, # of connection points: 2
#     Edge 35, Type (0, 0), BuildingBlock: KIFKEQ_clean_linker_1, # of connection points: 2
#     Edge 36, Type (0, 0), BuildingBlock: KIFKEQ_clean_linker_1, # of connection points: 2
#     Edge 37, Type (0, 0), BuildingBlock: KIFKEQ_clean_linker_1, # of connection points: 2
#     Edge 38, Type (0, 0), BuildingBlock: KIFKEQ_clean_linker_1, # of connection points: 2
#     Edge 39, Type (0, 0), BuildingBlock: KIFKEQ_clean_linker_1, # of connection points: 2
#     Edge 40, Type (0, 0), BuildingBlock: KIFKEQ_clean_linker_1, # of connection points: 2
#     Edge 41, Type (0, 0), BuildingBlock: KIFKEQ_clean_linker_1, # of connection points: 2
#     Edge 42, Type (0, 0), BuildingBlock: KIFKEQ_clean_linker_1, # of connection points: 2
#     Edge 43, Type (0, 0), BuildingBlock: KIFKEQ_clean_linker_1, # of connection points: 2
#     Edge 44, Type (0, 0), BuildingBlock: KIFKEQ_clean_linker_1, # of connection points: 2
#     Edge 45, Type (0, 0), BuildingBlock: KIFKEQ_clean_linker_1, # of connection points: 2
#     Edge 46, Type (0, 0), BuildingBlock: KIFKEQ_clean_linker_1, # of connection points: 2
#     Edge 47, Type (0, 0), BuildingBlock: KIFKEQ_clean_linker_1, # of connection points: 2
#     Edge 48, Type (0, 0), BuildingBlock: KIFKEQ_clean_linker_1, # of connection points: 2
#     Edge 49, Type (0, 0), BuildingBlock: KIFKEQ_clean_linker_1, # of connection points: 2
#     Edge 50, Type (0, 0), BuildingBlock: KIFKEQ_clean_linker_1, # of connection points: 2
#     Edge 51, Type (0, 0), BuildingBlock: KIFKEQ_clean_linker_1, # of connection points: 2
#     Edge 52, Type (0, 0), BuildingBlock: KIFKEQ_clean_linker_1, # of connection points: 2
#     Edge 53, Type (0, 0), BuildingBlock: KIFKEQ_clean_linker_1, # of connection points: 2
#     Edge 54, Type (0, 0), BuildingBlock: KIFKEQ_clean_linker_1, # of connection points: 2
#     Edge 55, Type (0, 0), BuildingBlock: KIFKEQ_clean_linker_1, # of connection points: 2
#     Edge 56, Type (0, 0), BuildingBlock: KIFKEQ_clean_linker_1, # of connection points: 2
#     Edge 57, Type (0, 0), BuildingBlock: KIFKEQ_clean_linker_1, # of connection points: 2
#     Edge 58, Type (0, 0), BuildingBlock: KIFKEQ_clean_linker_1, # of connection points: 2
#     Edge 59, Type (0, 0), BuildingBlock: KIFKEQ_clean_linker_1, # of connection points: 2
#     Edge 60, Type (0, 0), BuildingBlock: KIFKEQ_clean_linker_1, # of connection points: 2
#     Edge 61, Type (0, 0), BuildingBlock: KIFKEQ_clean_linker_1, # of connection points: 2
#     Edge 62, Type (0, 0), BuildingBlock: KIFKEQ_clean_linker_1, # of connection points: 2
#     Edge 63, Type (0, 0), BuildingBlock: KIFKEQ_clean_linker_1, # of connection points: 2
#     Edge 64, Type (0, 0), BuildingBlock: KIFKEQ_clean_linker_1, # of connection points: 2
#     Edge 65, Type (0, 0), BuildingBlock: KIFKEQ_clean_linker_1, # of connection points: 2
#     Edge 66, Type (0, 0), BuildingBlock: KIFKEQ_clean_linker_1, # of connection points: 2
#     Edge 67, Type (0, 0), BuildingBlock: KIFKEQ_clean_linker_1, # of connection points: 2
#     Edge 68, Type (0, 0), BuildingBlock: KIFKEQ_clean_linker_1, # of connection points: 2
#     Edge 69, Type (0, 0), BuildingBlock: KIFKEQ_clean_linker_1, # of connection points: 2
#     Edge 70, Type (0, 0), BuildingBlock: KIFKEQ_clean_linker_1, # of connection points: 2
#     Edge 71, Type (0, 0), BuildingBlock: KIFKEQ_clean_linker_1, # of connection points: 2
#     Edge 72, Type (0, 0), BuildingBlock: KIFKEQ_clean_linker_1, # of connection points: 2
#     Edge 73, Type (0, 0), BuildingBlock: KIFKEQ_clean_linker_1, # of connection points: 2
#     Edge 74, Type (0, 0), BuildingBlock: KIFKEQ_clean_linker_1, # of connection points: 2
#     Edge 75, Type (0, 0), BuildingBlock: KIFKEQ_clean_linker_1, # of connection points: 2
#     Edge 76, Type (0, 0), BuildingBlock: KIFKEQ_clean_linker_1, # of connection points: 2
#     Edge 77, Type (0, 0), BuildingBlock: KIFKEQ_clean_linker_1, # of connection points: 2
#     Edge 78, Type (0, 0), BuildingBlock: KIFKEQ_clean_linker_1, # of connection points: 2
#     Edge 79, Type (0, 0), BuildingBlock: KIFKEQ_clean_linker_1, # of connection points: 2
#     Edge 80, Type (0, 0), BuildingBlock: KIFKEQ_clean_linker_1, # of connection points: 2
#     Edge 81, Type (0, 0), BuildingBlock: KIFKEQ_clean_linker_1, # of connection points: 2
#     Edge 82, Type (0, 0), BuildingBlock: KIFKEQ_clean_linker_1, # of connection points: 2
#     Edge 83, Type (0, 0), BuildingBlock: KIFKEQ_clean_linker_1, # of connection points: 2
#     Edge 84, Type (0, 0), BuildingBlock: KIFKEQ_clean_linker_1, # of connection points: 2
#     Edge 85, Type (0, 0), BuildingBlock: KIFKEQ_clean_linker_1, # of connection points: 2
#     Edge 86, Type (0, 0), BuildingBlock: KIFKEQ_clean_linker_1, # of connection points: 2
#     Edge 87, Type (0, 0), BuildingBlock: KIFKEQ_clean_linker_1, # of connection points: 2
#     Edge 88, Type (0, 0), BuildingBlock: KIFKEQ_clean_linker_1, # of connection points: 2
#     Edge 89, Type (0, 0), BuildingBlock: KIFKEQ_clean_linker_1, # of connection points: 2
#     Edge 90, Type (0, 0), BuildingBlock: KIFKEQ_clean_linker_1, # of connection points: 2
#     Edge 91, Type (0, 0), BuildingBlock: KIFKEQ_clean_linker_1, # of connection points: 2
#     Edge 92, Type (0, 0), BuildingBlock: KIFKEQ_clean_linker_1, # of connection points: 2
#     Edge 93, Type (0, 0), BuildingBlock: KIFKEQ_clean_linker_1, # of connection points: 2
#     Edge 94, Type (0, 0), BuildingBlock: KIFKEQ_clean_linker_1, # of connection points: 2
#     Edge 95, Type (0, 0), BuildingBlock: KIFKEQ_clean_linker_1, # of connection points: 2
# Relax obj value: 0.140
# Max RMSD: 0.209
# Mean RMSD: 0.209
data_MOF--net-uoa--node1-CEKHIL_clean_sbu_0--edge1-KIFKEQ_clean_linker_1
_symmetry_space_group_name_H-M    P1
_symmetry_Int_Tables_number       1
_symmetry_cell_setting            triclinic
loop_
_symmetry_equiv_pos_as_xyz
'x, y, z'
_cell_length_a     76.88491
_cell_length_b     76.810063
_cell_length_c     27.687091
_cell_angle_alpha  89.971704
_cell_angle_beta   90.012352
_cell_angle_gamma 89.978238
loop_
_atom_site_label
_atom_site_type_symbol
_atom_site_fract_x
_atom_site_fract_y
_atom_site_fract_z
_atom_type_partial_charge
Co0 Co 0.03931 0.10335 0.00189 0.0
O1 O 0.0499 0.12562 0.01246 0.0
O2 O 0.06064 0.10076 0.03943 0.0
C3 C 0.03411 0.1075 0.9228 0.0
O4 O 0.0317 0.0778 -0.00337 0.0
Co5 Co 1.00051 0.10147 0.96865 0.0
O6 O 1.00647 0.07689 0.95519 0.0
C7 C 0.00888 0.10746 0.07148 0.0
C8 C 0.0621 0.11761 0.0359 0.0
C9 C 0.01938 0.06937 0.97515 0.0
O10 O 0.02524 0.10602 0.06262 0.0
O11 O 0.99707 0.10687 0.03888 0.0
O12 O 0.04937 0.1024 0.93717 0.0
O13 O 0.02317 0.11131 0.95647 0.0
Co14 Co 0.16023 0.79051 0.25015 0.0
O15 O 0.13857 0.80144 0.26601 0.0
O16 O 0.16439 0.81208 0.28543 0.0
C17 C 0.15335 0.78487 0.17271 0.0
O18 O 0.18536 0.78253 0.23853 0.0
Co19 Co 0.16054 0.75156 0.21913 0.0
O20 O 0.18462 0.75696 0.19881 0.0
C21 C 0.15794 0.76067 0.32255 0.0
C22 C 0.14751 0.81363 0.28667 0.0
C23 C 0.19292 0.76996 0.21569 0.0
O24 O 0.15935 0.77694 0.31228 0.0
O25 O 0.15738 0.74861 0.29067 0.0
O26 O 0.15927 0.80009 0.18495 0.0
O27 O 0.15044 0.77423 0.20787 0.0
Co28 Co 0.47321 0.91058 0.50902 0.0
O29 O 0.46129 0.88893 0.51712 0.0
O30 O 0.45172 0.91403 0.54573 0.0
C31 C 0.47866 0.90669 0.43006 0.0
O32 O 0.48247 0.93567 0.50498 0.0
Co33 Co 0.51245 0.90911 0.47821 0.0
O34 O 0.5092 0.93449 0.47133 0.0
C35 C 0.50274 0.90348 0.58006 0.0
C36 C 0.44927 0.89736 0.53994 0.0
C37 C 0.49634 0.94305 0.48817 0.0
O38 O 0.48666 0.90659 0.57047 0.0
O39 O 0.51474 0.90287 0.54808 0.0
O40 O 0.46364 0.91263 0.44382 0.0
O41 O 0.48903 0.90188 0.46406 0.0
Co42 Co 0.35156 0.22112 0.75766 0.0
O43 O 0.37227 0.20881 0.77519 0.0
O44 O 0.3456 0.19982 0.79238 0.0
C45 C 0.35939 0.22655 0.68071 0.0
O46 O 0.32722 0.23085 0.74406 0.0
Co47 Co 0.355 0.26021 0.72878 0.0
O48 O 0.33021 0.25748 0.71089 0.0
C49 C 0.35669 0.2502 0.83144 0.0
C50 C 0.36232 0.19727 0.79509 0.0
C51 C 0.3208 0.24469 0.72432 0.0
O52 O 0.35265 0.23446 0.82019 0.0
O53 O 0.35958 0.26208 0.79998 0.0
O54 O 0.35252 0.21166 0.69224 0.0
O55 O 0.36282 0.23676 0.71645 0.0
Co56 Co 0.04058 0.90903 0.46521 0.0
O57 O 0.05485 0.88869 0.46104 0.0
O58 O 0.06135 0.91389 0.42678 0.0
C59 C 0.03573 0.9069 0.54497 0.0
O60 O 0.02874 0.933 0.46494 0.0
Co61 Co 1.00191 0.90474 0.49723 0.0
O62 O 1.00346 0.93029 0.50549 0.0
C63 C 0.01188 0.89688 0.3968 0.0
C64 C 0.06568 0.89779 0.43572 0.0
C65 C 0.01508 0.9396 0.4852 0.0
O66 O 0.02754 0.90193 0.40531 0.0
O67 O 1.00002 0.89609 0.42917 0.0
O68 O 0.04996 0.91404 0.5292 0.0
O69 O 0.02593 0.89991 0.51252 0.0
Co70 Co 0.35467 0.78826 0.72459 0.0
O71 O 0.37663 0.79843 0.70809 0.0
O72 O 0.35117 0.81005 0.68963 0.0
C73 C 0.3616 0.78224 0.80173 0.0
O74 O 0.32936 0.78111 0.73715 0.0
Co75 Co 0.3536 0.74908 0.75445 0.0
O76 O 0.32953 0.75494 0.77411 0.0
C77 C 0.35673 0.75858 0.65154 0.0
C78 C 0.36808 0.81106 0.68811 0.0
C79 C 0.32155 0.76842 0.75885 0.0
O80 O 0.35465 0.77474 0.66235 0.0
O81 O 0.35799 0.74651 0.68329 0.0
O82 O 0.35641 0.79775 0.78977 0.0
O83 O 0.36396 0.77154 0.76642 0.0
Co84 Co 0.47217 0.10161 0.96506 0.0
O85 O 0.46081 0.12312 0.95029 0.0
O86 O 0.45083 0.09724 0.92869 0.0
C87 C 0.4774 0.1079 0.04307 0.0
O88 O 0.48087 0.07661 0.9755 0.0
Co89 Co 0.51107 0.1024 -0.00297 0.0
O90 O 0.50627 0.07802 0.01597 0.0
C91 C 0.50207 0.10608 0.8939 0.0
C92 C 0.44896 0.1141 0.92843 0.0
C93 C 0.4936 0.06937 -0.00147 0.0
O94 O 0.48591 0.10353 0.9035 0.0
O95 O 0.514 0.10691 0.9261 0.0
O96 O 0.46237 0.10172 0.0301 0.0
O97 O 0.488 0.11145 0.00833 0.0
Co98 Co 0.16037 0.22318 0.22271 0.0
O99 O 0.13845 0.21241 0.20982 0.0
O100 O 0.16368 0.2014 0.18706 0.0
C101 C 0.15454 0.2289 0.30069 0.0
O102 O 0.18563 0.23122 0.2325 0.0
Co103 Co 0.15984 0.26247 0.25196 0.0
O104 O 0.18436 0.2575 0.26867 0.0
C105 C 0.15602 0.25273 0.14963 0.0
C106 C 0.1468 0.19987 0.18909 0.0
C107 C 0.19295 0.24441 0.25333 0.0
O108 O 0.1589 0.23668 0.16045 0.0
O109 O 0.15455 0.26478 0.18132 0.0
O110 O 0.16008 0.2136 0.28805 0.0
O111 O 0.15118 0.23947 0.26571 0.0
Co112 Co 0.97384 0.90914 0.97087 0.0
O113 O 0.96209 0.88817 0.9527 0.0
O114 O 0.95236 0.91466 0.93647 0.0
C115 C 0.9794 0.90096 0.04722 0.0
O116 O 0.98303 0.93369 0.98511 0.0
Co117 Co 0.01306 0.90643 -0.00043 0.0
O118 O 0.00979 0.93113 0.01771 0.0
C119 C 1.00298 0.90528 0.89692 0.0
C120 C 0.95022 0.89787 0.93328 0.0
C121 C 0.99682 0.94034 0.00453 0.0
O122 O 0.98716 0.90875 0.90847 0.0
O123 O 0.01498 0.9025 0.92807 0.0
O124 O 0.96433 0.90745 0.03602 0.0
O125 O 0.9898 0.89812 0.01155 0.0
Co126 Co 0.85362 0.22392 0.72355 0.0
O127 O 0.8751 0.21187 0.71328 0.0
O128 O 0.84967 0.20269 0.68623 0.0
C129 C 0.85773 0.22908 0.80266 0.0
O130 O 0.82876 0.23351 0.7291 0.0
Co131 Co 0.85604 0.26307 0.75365 0.0
O132 O 0.83064 0.26026 0.76236 0.0
C133 C 0.86174 0.25329 0.65228 0.0
C134 C 0.86641 0.20025 0.68957 0.0
C135 C 0.82172 0.24751 0.74634 0.0
O136 O 0.85729 0.23754 0.66225 0.0
O137 O 0.86346 0.26513 0.68442 0.0
O138 O 0.8518 0.2141 0.78847 0.0
O139 O 0.86269 0.23947 0.76875 0.0
Co140 Co 0.54142 0.10385 0.46431 0.0
O141 O 0.55553 0.12416 0.45452 0.0
O142 O 0.56218 0.09786 0.42762 0.0
C143 C 0.53636 0.10851 0.54309 0.0
O144 O 0.53006 0.07979 0.47006 0.0
Co145 Co 0.50255 0.10829 0.49388 0.0
O146 O 0.50411 0.08296 0.50682 0.0
C147 C 0.51277 0.11334 0.39233 0.0
C148 C 0.56643 0.1142 0.43194 0.0
C149 C 0.51623 0.07342 0.4899 0.0
O150 O 0.52835 0.10848 0.40265 0.0
O151 O 0.50088 0.11536 0.42422 0.0
O152 O 0.55083 0.10133 0.52928 0.0
O153 O 0.52638 0.11417 0.509 0.0
Co154 Co 0.65979 0.78818 0.22416 0.0
O155 O 0.63844 0.79958 0.20788 0.0
O156 O 0.66448 0.8098 0.18922 0.0
C157 C 0.65266 0.78248 0.30128 0.0
O158 O 0.68463 0.77935 0.23661 0.0
Co159 Co 0.65768 0.74883 0.25288 0.0
O160 O 0.68254 0.75237 0.26839 0.0
C161 C 0.65531 0.75895 0.1505 0.0
C162 C 0.64763 0.81166 0.18762 0.0
C163 C 0.69152 0.76549 0.25512 0.0
O164 O 0.65892 0.77479 0.16175 0.0
O165 O 0.65281 0.74696 0.1819 0.0
O166 O 0.65871 0.79768 0.28952 0.0
O167 O 0.64952 0.77208 0.26581 0.0
Co168 Co 0.97049 0.10193 0.50211 0.0
O169 O 0.95822 0.12341 0.51011 0.0
O170 O 0.94937 0.09828 0.54023 0.0
C171 C 0.97532 0.10533 0.42263 0.0
O172 O 0.98019 0.077 0.49824 0.0
Co173 Co 0.00946 0.10403 0.46981 0.0
O174 O 1.00651 0.07862 0.46236 0.0
C175 C 1.00033 0.11 0.57173 0.0
C176 C 0.94657 0.11488 0.53412 0.0
C177 C 0.99396 0.06985 0.48008 0.0
O178 O 0.98429 0.10646 0.56276 0.0
O179 O 0.01215 0.11074 0.53925 0.0
O180 O 0.9605 0.0993 0.43764 0.0
O181 O 0.98581 0.11065 0.45582 0.0
Co182 Co 0.662 0.21831 0.2546 0.0
O183 O 0.64232 0.20308 0.25921 0.0
O184 O 0.66817 0.19741 0.29075 0.0
C185 C 0.6587 0.22426 0.17566 0.0
O186 O 0.68541 0.23111 0.25446 0.0
Co187 Co 0.65552 0.25723 0.22781 0.0
O188 O 0.68122 0.25779 0.22256 0.0
C189 C 0.64888 0.24527 0.32706 0.0
C190 C 0.65216 0.19251 0.28331 0.0
C191 C 0.69118 0.24593 0.23917 0.0
O192 O 0.65521 0.23025 0.31643 0.0
O193 O 0.64655 0.25733 0.2958 0.0
O194 O 0.66658 0.21008 0.18907 0.0
O195 O 0.65174 0.23326 0.20986 0.0
Co196 Co 0.54166 0.90871 0.01014 0.0
O197 O 0.55513 0.88792 0.0172 0.0
O198 O 0.56276 0.91344 0.04745 0.0
C199 C 0.5366 0.90515 0.93084 0.0
O200 O 0.53062 0.93307 0.00722 0.0
Co201 Co 0.5027 0.90473 0.97885 0.0
O202 O 0.50429 0.9303 0.97198 0.0
C203 C 0.51262 0.89904 0.08047 0.0
C204 C 0.56646 0.89706 0.04067 0.0
C205 C 0.51644 0.93962 -0.0103 0.0
O206 O 0.52843 0.90339 0.07116 0.0
O207 O 0.50077 0.89767 0.04821 0.0
O208 O 0.55115 0.91197 0.9453 0.0
O209 O 0.52657 0.89927 0.96436 0.0
Co210 Co 0.85205 0.79328 0.7595 0.0
O211 O 0.87297 0.80638 0.76827 0.0
O212 O 0.84704 0.81507 0.79324 0.0
C213 C 0.85732 0.78684 0.68164 0.0
O214 O 0.82754 0.78297 0.75385 0.0
Co215 Co 0.85488 0.75387 0.73337 0.0
O216 O 0.82994 0.75687 0.71728 0.0
C217 C 0.86009 0.76524 0.83419 0.0
C218 C 0.8636 0.81828 0.78868 0.0
C219 C 0.82079 0.76942 0.73348 0.0
O220 O 0.85576 0.7809 0.82279 0.0
O221 O 0.8618 0.75299 0.80318 0.0
O222 O 0.85039 0.8017 0.69311 0.0
O223 O 0.8621 0.77721 0.71739 0.0
Co224 Co 0.54171 0.60406 0.50373 0.0
O225 O 0.55565 0.62456 0.51255 0.0
O226 O 0.56278 0.59837 0.53941 0.0
C227 C 0.53595 0.60882 0.42513 0.0
O228 O 0.53069 0.57985 0.49913 0.0
Co229 Co 0.50266 0.60756 0.47514 0.0
O230 O 0.50482 0.58231 0.46155 0.0
C231 C 0.51329 0.61314 0.57646 0.0
C232 C 0.56677 0.61477 0.5349 0.0
C233 C 0.51708 0.57311 0.47915 0.0
O234 O 0.52898 0.60863 0.56601 0.0
O235 O 0.50127 0.61473 0.54474 0.0
O236 O 0.55053 0.6016 0.43792 0.0
O237 O 0.52624 0.61425 0.46 0.0
Co238 Co 0.65875 0.28864 0.75189 0.0
O239 O 0.63701 0.30028 0.76121 0.0
O240 O 0.6623 0.3107 0.78573 0.0
C241 C 0.65371 0.28196 0.67403 0.0
O242 O 0.68388 0.27989 0.74629 0.0
Co243 Co 0.65854 0.24917 0.72517 0.0
O244 O 0.68331 0.25366 0.70982 0.0
C245 C 0.65307 0.26002 0.82645 0.0
C246 C 0.64553 0.31276 0.78183 0.0
C247 C 0.69157 0.26673 0.72651 0.0
O248 O 0.65603 0.27599 0.81505 0.0
O249 O 0.65223 0.24769 0.79539 0.0
O250 O 0.65972 0.29722 0.68553 0.0
O251 O 0.6497 0.27199 0.70977 0.0
Co252 Co 0.97035 0.41155 0.00339 0.0
O253 O 0.95701 0.39087 0.01358 0.0
O254 O 0.94852 0.41716 0.03619 0.0
C255 C 0.97694 0.40531 0.92608 0.0
O256 O 0.98102 0.4359 -0.00395 0.0
Co257 Co 0.00976 0.40765 0.97856 0.0
O258 O 0.00776 0.43279 0.96382 0.0
C259 C 0.99801 0.40391 0.07953 0.0
C260 C 0.94516 0.40056 0.033 0.0
C261 C 0.99515 0.4423 0.97798 0.0
O262 O 0.98247 0.40839 0.06735 0.0
O263 O 0.01028 0.40155 0.04894 0.0
O264 O 0.96217 0.4126 0.93663 0.0
O265 O 0.98637 0.4008 0.96247 0.0
Co266 Co 0.85354 0.72186 0.26128 0.0
O267 O 0.87468 0.70884 0.26631 0.0
O268 O 0.84945 0.70007 0.29598 0.0
C269 C 0.85686 0.72841 0.18263 0.0
O270 O 0.82893 0.73216 0.26035 0.0
Co271 Co 0.8557 0.76132 0.23502 0.0
O272 O 0.83039 0.75841 0.22408 0.0
C273 C 0.86312 0.74984 0.33466 0.0
C274 C 0.86591 0.69695 0.28877 0.0
C275 C 0.82169 0.74581 0.24185 0.0
O276 O 0.85865 0.73419 0.32376 0.0
O277 O 0.86411 0.76216 0.30359 0.0
O278 O 0.85032 0.71349 0.19527 0.0
O279 O 0.86247 0.738 0.21749 0.0
Co280 Co 0.53964 0.41088 0.96812 0.0
O281 O 0.55001 0.38857 0.95677 0.0
O282 O 0.56091 0.41342 0.93027 0.0
C283 C 0.53458 0.40654 0.04716 0.0
O284 O 0.53226 0.43649 0.97454 0.0
Co285 Co 0.5009 0.41279 0.00148 0.0
O286 O 0.5072 0.43714 0.01678 0.0
C287 C 0.50909 0.40676 0.89874 0.0
C288 C 0.5622 0.39653 0.93326 0.0
C289 C 0.52011 0.44478 -0.00278 0.0
O290 O 0.52543 0.40845 0.90749 0.0
O291 O 0.49731 0.40722 0.93141 0.0
O292 O 0.54986 0.41154 0.03267 0.0
O293 O 0.52356 0.40288 0.01354 0.0
Co294 Co 0.85216 0.29364 0.22428 0.0
O295 O 0.87357 0.30528 0.20993 0.0
O296 O 0.84765 0.31478 0.18723 0.0
C297 C 0.85816 0.28868 0.3026 0.0
O298 O 0.82723 0.28475 0.23402 0.0
Co299 Co 0.85313 0.25482 0.25709 0.0
O300 O 0.82863 0.25944 0.27501 0.0
C301 C 0.8569 0.2635 0.15377 0.0
C302 C 0.86446 0.31693 0.18745 0.0
C303 C 0.81998 0.27202 0.25697 0.0
O304 O 0.8544 0.27971 0.16306 0.0
O305 O 0.85767 0.25165 0.18626 0.0
O306 O 0.8519 0.30363 0.28909 0.0
O307 O 0.86198 0.27801 0.26823 0.0
Co308 Co 0.97392 0.60216 0.474 0.0
O309 O 0.96368 0.624 0.45638 0.0
O310 O 0.95233 0.59833 0.4386 0.0
C311 C 0.97962 0.60939 0.55114 0.0
O312 O 0.98111 0.57693 0.48762 0.0
Co313 Co 0.01293 0.60133 0.50465 0.0
O314 O 0.00716 0.57729 0.52498 0.0
C315 C 1.00376 0.60433 0.40153 0.0
C316 C 0.95125 0.61524 0.43626 0.0
C317 C 0.99374 0.56922 0.50982 0.0
O318 O 0.98763 0.602 0.41207 0.0
O319 O 0.01571 0.60578 0.43353 0.0
O320 O 0.9642 0.60409 0.53888 0.0
O321 O 0.99042 0.61169 0.51603 0.0
Co322 Co 0.66105 0.71971 0.71997 0.0
O323 O 0.64097 0.70505 0.71372 0.0
O324 O 0.66666 0.69925 0.68139 0.0
C325 C 0.65807 0.7245 0.79964 0.0
O326 O 0.68486 0.73178 0.72147 0.0
Co327 Co 0.656 0.75836 0.75206 0.0
O328 O 0.68167 0.75792 0.75742 0.0
C329 C 0.64935 0.74848 0.65095 0.0
C330 C 0.65056 0.69462 0.68842 0.0
C331 C 0.69117 0.74606 0.73894 0.0
O332 O 0.65444 0.73283 0.65965 0.0
O333 O 0.64805 0.76026 0.68341 0.0
O334 O 0.6655 0.71032 0.78442 0.0
O335 O 0.65131 0.73423 0.76665 0.0
Co336 Co 0.47135 0.41161 0.46781 0.0
O337 O 0.45798 0.39077 0.45876 0.0
O338 O 0.4507 0.41657 0.42934 0.0
C339 C 0.47587 0.40765 0.54724 0.0
O340 O 0.48195 0.43611 0.47239 0.0
Co341 Co 0.51008 0.40841 0.50086 0.0
O342 O 0.50801 0.43388 0.50922 0.0
C343 C 0.50112 0.40319 0.39842 0.0
C344 C 0.44697 0.40014 0.4347 0.0
C345 C 0.49576 0.44297 0.49106 0.0
O346 O 0.48509 0.40679 0.4073 0.0
O347 O 0.51289 0.40226 0.43102 0.0
O348 O 0.46135 0.41438 0.53217 0.0
O349 O 0.48626 0.40208 0.51409 0.0
Co350 Co 0.35202 0.71956 0.22016 0.0
O351 O 0.37196 0.70461 0.21513 0.0
O352 O 0.34647 0.69917 0.18124 0.0
C353 C 0.35448 0.7243 0.30011 0.0
O354 O 0.32838 0.73199 0.21995 0.0
Co355 Co 0.35724 0.75811 0.2527 0.0
O356 O 0.33153 0.75805 0.25627 0.0
C357 C 0.36432 0.74826 0.1517 0.0
C358 C 0.36245 0.69431 0.1892 0.0
C359 C 0.32207 0.74635 0.23688 0.0
O360 O 0.35926 0.73259 0.16022 0.0
O361 O 0.3654 0.76005 0.18421 0.0
O362 O 0.34694 0.71026 0.28437 0.0
O363 O 0.3616 0.73395 0.26754 0.0
Co364 Co 0.04278 0.60329 0.96991 0.0
O365 O 0.05677 0.62388 0.96364 0.0
O366 O 0.06323 0.59845 0.93069 0.0
C367 C 0.03822 0.60585 0.04991 0.0
O368 O 0.03157 0.57905 0.97096 0.0
Co369 Co 1.00421 0.60633 0.00337 0.0
O370 O 0.00663 0.5809 0.01334 0.0
C371 C 0.01323 0.61344 0.90164 0.0
C372 C 0.06741 0.61467 0.9379 0.0
C373 C 0.01837 0.572 -0.00781 0.0
O374 O 0.02923 0.6096 0.9101 0.0
O375 O 1.00144 0.61372 0.93429 0.0
O376 O 0.05254 0.59895 0.03394 0.0
O377 O 0.02808 0.61236 0.01744 0.0
Co378 Co 0.16014 0.29223 0.71878 0.0
O379 O 0.13963 0.30632 0.71223 0.0
O380 O 0.16517 0.31272 0.67984 0.0
C381 C 0.15721 0.28757 0.79859 0.0
O382 O 0.1843 0.28094 0.72 0.0
Co383 Co 0.15711 0.2536 0.75248 0.0
O384 O 0.18255 0.25589 0.76206 0.0
C385 C 0.15014 0.26271 0.65061 0.0
C386 C 0.14895 0.31697 0.68677 0.0
C387 C 0.19138 0.26766 0.74084 0.0
O388 O 0.15396 0.27874 0.65892 0.0
O389 O 0.14982 0.25093 0.68334 0.0
O390 O 0.16428 0.30189 0.78306 0.0
O391 O 0.15089 0.27747 0.76581 0.0
Co392 Co 0.47083 0.60404 0.00328 0.0
O393 O 0.45638 0.62413 0.01278 0.0
O394 O 0.44989 0.5977 0.03895 0.0
C395 C 0.47636 0.60925 0.92477 0.0
O396 O 0.48263 0.58017 -0.00237 0.0
Co397 Co 0.50973 0.60934 0.97508 0.0
O398 O 0.50883 0.58394 0.96275 0.0
C399 C 0.49897 0.61362 0.0766 0.0
C400 C 0.44551 0.61403 0.03491 0.0
C401 C 0.49681 0.57412 0.97897 0.0
O402 O 0.48346 0.60864 0.06575 0.0
O403 O 0.51091 0.61597 0.04505 0.0
O404 O 0.462 0.60159 0.93746 0.0
O405 O 0.48588 0.61489 0.95975 0.0
Co406 Co 0.16154 0.72137 0.75402 0.0
O407 O 0.14116 0.70703 0.75871 0.0
O408 O 0.16651 0.70063 0.79213 0.0
C409 C 0.15934 0.72665 0.6744 0.0
O410 O 0.18551 0.73312 0.75446 0.0
Co411 Co 0.15688 0.76031 0.72474 0.0
O412 O 0.18262 0.75989 0.72199 0.0
C413 C 0.14918 0.74955 0.8243 0.0
C414 C 0.15037 0.69632 0.78425 0.0
C415 C 0.19197 0.74769 0.73943 0.0
O416 O 0.15485 0.73419 0.8146 0.0
O417 O 0.1476 0.76151 0.79239 0.0
O418 O 0.16622 0.71219 0.68954 0.0
O419 O 0.15245 0.73637 0.70726 0.0
Co420 Co 0.04068 0.4094 0.50765 0.0
O421 O 0.05556 0.38936 0.5113 0.0
O422 O 0.06175 0.41501 0.54342 0.0
C423 C 0.03434 0.40675 0.42871 0.0
O424 O 0.02846 0.4331 0.50881 0.0
Co425 Co 1.00155 0.40408 0.48174 0.0
O426 O 1.00145 0.42986 0.47842 0.0
C427 C 0.01367 0.39658 0.58037 0.0
C428 C 0.06635 0.39893 0.5355 0.0
C429 C 0.0137 0.43938 0.49479 0.0
O430 O 0.0288 0.40257 0.56958 0.0
O431 O 1.00147 0.39472 0.54934 0.0
O432 O 0.04877 0.41415 0.44208 0.0
O433 O 0.02533 0.39976 0.46284 0.0
Co434 Co 0.35348 0.29101 0.26167 0.0
O435 O 0.37385 0.30538 0.26602 0.0
O436 O 0.34841 0.31199 0.29859 0.0
C437 C 0.35598 0.28539 0.18225 0.0
O438 O 0.32951 0.27934 0.26216 0.0
Co439 Co 0.35731 0.25202 0.23287 0.0
O440 O 0.33184 0.25387 0.22231 0.0
C441 C 0.36495 0.26283 0.33291 0.0
C442 C 0.36455 0.3163 0.29054 0.0
C443 C 0.32274 0.26574 0.24221 0.0
O444 O 0.36001 0.27842 0.32283 0.0
O445 O 0.36595 0.2507 0.30129 0.0
O446 O 0.3489 0.29983 0.1968 0.0
O447 O 0.36272 0.27579 0.21566 0.0
H448 H 0.98121 0.12233 0.64756 0.0
H449 H 0.03155 0.10133 0.61046 0.0
H450 H 0.98978 0.12343 0.73227 0.0
H451 H 0.03974 0.10116 0.69493 0.0
H452 H 0.05572 0.11339 0.84692 0.0
H453 H 0.04783 0.11639 0.76215 0.0
H454 H 0.99404 0.10599 0.79853 0.0
H455 H 1.0019 0.10443 0.88334 0.0
C456 C 0.9941 0.11792 0.65766 0.0
C457 C 1.00574 0.11182 0.62254 0.0
C458 C 0.99899 0.11837 0.70626 0.0
C459 C 0.01545 0.11224 0.72092 0.0
C460 C 0.02711 0.10634 0.68534 0.0
C461 C 0.02239 0.10634 0.63674 0.0
C462 C 0.04223 0.1118 0.83653 0.0
C463 C 0.02942 0.10865 0.87145 0.0
C464 C 0.03767 0.11342 0.7879 0.0
C465 C 0.02025 0.1114 0.77303 0.0
C466 C 0.00751 0.10806 0.80836 0.0
C467 C 0.01202 0.10695 0.85706 0.0
H468 H 0.13779 0.78064 0.86133 0.0
H469 H 0.15366 0.72879 0.90368 0.0
H470 H 0.13656 0.78917 0.94595 0.0
H471 H 0.15287 0.73749 0.98792 0.0
H472 H 0.13906 0.75483 0.13881 0.0
H473 H 0.13498 0.74622 0.05483 0.0
H474 H 0.15791 0.79477 0.0081 0.0
H475 H 0.16151 0.80355 0.09207 0.0
C476 C 0.14085 0.771 0.88859 0.0
C477 C 0.14599 0.75407 0.87556 0.0
C478 C 0.14027 0.77594 0.93711 0.0
C479 C 0.14484 0.76408 0.97365 0.0
C480 C 0.14915 0.74692 0.96074 0.0
C481 C 0.14967 0.74196 0.91228 0.0
C482 C 0.14315 0.76368 0.11055 0.0
C483 C 0.15067 0.77983 0.12191 0.0
C484 C 0.14086 0.75873 0.06246 0.0
C485 C 0.14613 0.76979 0.02474 0.0
C486 C 0.15345 0.78605 0.03625 0.0
C487 C 0.15566 0.79103 0.08435 0.0
H488 H 0.5329 0.89038 0.15812 0.0
H489 H 0.48048 0.90451 0.11786 0.0
H490 H 0.52446 0.89052 0.24295 0.0
H491 H 0.47232 0.90595 0.20202 0.0
H492 H 0.45773 0.89688 0.35634 0.0
H493 H 0.46593 0.89218 0.27244 0.0
H494 H 0.51835 0.90914 0.30531 0.0
H495 H 0.51031 0.91224 0.3898 0.0
C496 C 0.51957 0.89348 0.16749 0.0
C497 C 0.50734 0.89737 0.13144 0.0
C498 C 0.51474 0.89378 0.21614 0.0
C499 C 0.4977 0.89843 0.22979 0.0
C500 C 0.48545 0.90196 0.19334 0.0
C501 C 0.49016 0.90122 0.14482 0.0
C502 C 0.47098 0.89957 0.34528 0.0
C503 C 0.4834 0.90496 0.37907 0.0
C504 C 0.47572 0.89697 0.29718 0.0
C505 C 0.49285 0.9003 0.2816 0.0
C506 C 0.50516 0.90598 0.31581 0.0
C507 C 0.50054 0.908 0.3642 0.0
H508 H 0.37617 0.2317 0.37005 0.0
H509 H 0.36025 0.2835 0.41243 0.0
H510 H 0.37709 0.22303 0.45459 0.0
H511 H 0.36077 0.27466 0.4967 0.0
H512 H 0.3741 0.25663 0.64802 0.0
H513 H 0.37844 0.26559 0.56434 0.0
H514 H 0.35532 0.2174 0.51569 0.0
H515 H 0.35139 0.2083 0.59928 0.0
C516 C 0.37303 0.2413 0.39732 0.0
C517 C 0.36796 0.25826 0.38427 0.0
C518 C 0.37344 0.23628 0.4458 0.0
C519 C 0.36877 0.24807 0.48235 0.0
C520 C 0.36456 0.26527 0.4695 0.0
C521 C 0.3642 0.27032 0.42104 0.0
C522 C 0.37003 0.24793 0.6194 0.0
C523 C 0.36235 0.2318 0.63013 0.0
C524 C 0.37247 0.25309 0.57148 0.0
C525 C 0.36724 0.24222 0.53331 0.0
C526 C 0.35976 0.22597 0.54419 0.0
C527 C 0.35737 0.22081 0.5921 0.0
H528 H 0.03503 0.89962 0.8567 0.0
H529 H 0.98154 0.91102 0.8196 0.0
H530 H 0.0428 0.90039 0.77151 0.0
H531 H 0.98946 0.91213 0.73462 0.0
H532 H 0.00676 0.89284 0.58559 0.0
H533 H 0.99883 0.89244 0.6707 0.0
H534 H 0.04538 0.9214 0.70525 0.0
H535 H 0.05351 0.9215 0.62 0.0
C536 C 0.02492 0.90228 0.83048 0.0
C537 C 0.00765 0.9052 0.84508 0.0
C538 C 0.02942 0.90287 0.78168 0.0
C539 C 0.01675 0.90637 0.74643 0.0
C540 C 0.99947 0.90921 0.76093 0.0
C541 C 0.99497 0.90863 0.8097 0.0
C542 C 0.01529 0.89915 0.61134 0.0
C543 C 0.03078 0.90715 0.59628 0.0
C544 C 0.01069 0.899 0.66005 0.0
C545 C 0.0215 0.90686 0.69464 0.0
C546 C 0.03692 0.91502 0.67946 0.0
C547 C 0.04152 0.91516 0.63069 0.0
H548 H 0.35832 0.74988 0.84075 0.0
H549 H 0.37092 0.80306 0.8764 0.0
H550 H 0.36092 0.74176 0.92528 0.0
H551 H 0.37504 0.79484 0.96046 0.0
H552 H 0.35894 0.78012 0.11246 0.0
H553 H 0.35971 0.78811 0.02805 0.0
H554 H 0.37785 0.73635 -0.00819 0.0
H555 H 0.37573 0.72806 0.07667 0.0
C556 C 0.36195 0.75976 0.86673 0.0
C557 C 0.3642 0.77712 0.85237 0.0
C558 C 0.36365 0.7551 0.91526 0.0
C559 C 0.36814 0.76762 0.95028 0.0
C560 C 0.37108 0.78489 0.93512 0.0
C561 C 0.36885 0.78962 0.88684 0.0
C562 C 0.36331 0.77051 0.08651 0.0
C563 C 0.36726 0.75346 0.10109 0.0
C564 C 0.36386 0.77512 0.03786 0.0
C565 C 0.36882 0.76292 0.00253 0.0
C566 C 0.37355 0.74603 0.01759 0.0
C567 C 0.37254 0.74128 0.06629 0.0
H568 H 0.50726 0.12209 0.07806 0.0
H569 H 0.45877 0.09875 0.12307 0.0
H570 H 0.51577 0.12557 0.16224 0.0
H571 H 0.46748 0.10182 0.20739 0.0
H572 H 0.48132 0.12321 0.35444 0.0
H573 H 0.47271 0.12339 0.2698 0.0
H574 H 0.52454 0.10738 0.22894 0.0
H575 H 0.53331 0.1076 0.31322 0.0
C576 C 0.49844 0.11766 0.10599 0.0
C577 C 0.48237 0.1101 0.09408 0.0
C578 C 0.50335 0.1196 0.1542 0.0
C579 C 0.49232 0.11396 0.19151 0.0
C580 C 0.47616 0.10653 0.17951 0.0
C581 C 0.47122 0.10465 0.13124 0.0
C582 C 0.49096 0.11994 0.32741 0.0
C583 C 0.508 0.1153 0.34077 0.0
C584 C 0.48597 0.11991 0.2789 0.0
C585 C 0.49789 0.11524 0.24269 0.0
C586 C 0.51508 0.1112 0.25589 0.0
C587 C 0.52008 0.11126 0.30434 0.0
H588 H 0.15796 0.23129 0.61184 0.0
H589 H 0.13744 0.28194 0.5753 0.0
H590 H 0.15792 0.2232 0.52741 0.0
H591 H 0.13613 0.27347 0.4905 0.0
H592 H 0.15648 0.26132 0.33977 0.0
H593 H 0.15373 0.26924 0.42444 0.0
H594 H 0.14287 0.2154 0.45988 0.0
H595 H 0.14708 0.20748 0.37566 0.0
C596 C 0.15295 0.24053 0.58572 0.0
C597 C 0.14772 0.25725 0.60006 0.0
C598 C 0.15283 0.23586 0.5371 0.0
C599 C 0.14706 0.24766 0.50163 0.0
C600 C 0.14108 0.26416 0.51644 0.0
C601 C 0.14164 0.26899 0.56509 0.0
C602 C 0.15356 0.25123 0.36586 0.0
C603 C 0.15219 0.2338 0.35152 0.0
C604 C 0.15178 0.25577 0.41443 0.0
C605 C 0.14809 0.24299 0.44948 0.0
C606 C 0.14616 0.22558 0.43443 0.0
C607 C 0.14846 0.22101 0.38609 0.0
H608 H 0.03239 0.88514 0.32289 0.0
H609 H 0.98007 0.90152 0.35668 0.0
H610 H 0.02447 0.88264 0.23788 0.0
H611 H 0.97244 0.90038 0.27211 0.0
H612 H 0.95834 0.8905 0.11999 0.0
H613 H 0.9662 0.88532 0.20388 0.0
H614 H 0.01942 0.89971 0.17153 0.0
H615 H 0.01164 0.90329 0.08702 0.0
C616 C 0.01918 0.88815 0.31205 0.0
C617 C 0.00684 0.89352 0.3463 0.0
C618 C 0.01466 0.88691 0.26326 0.0
C619 C 0.99782 0.89148 0.24756 0.0
C620 C 0.98541 0.89637 0.2824 0.0
C621 C 0.98981 0.89715 0.33116 0.0
C622 C 0.97173 0.89237 0.13103 0.0
C623 C 0.98437 0.89744 0.09745 0.0
C624 C 0.97627 0.88953 0.17918 0.0
C625 C 0.99344 0.89233 0.19515 0.0
C626 C 1.00613 0.8971 0.16088 0.0
C627 C 1.00167 0.89937 0.1124 0.0
H628 H 0.84535 0.23338 0.11387 0.0
H629 H 0.87105 0.28171 0.079 0.0
H630 H 0.84554 0.2252 0.02919 0.0
H631 H 0.87253 0.27308 -0.00553 0.0
H632 H 0.85655 0.26175 0.84045 0.0
H633 H 0.8565 0.26991 0.92522 0.0
H634 H 0.86157 0.21561 0.96497 0.0
H635 H 0.8602 0.20755 0.8801 0.0
C636 C 0.85137 0.24209 0.08802 0.0
C637 C 0.85817 0.25816 0.10283 0.0
C638 C 0.85161 0.23737 0.03938 0.0
C639 C 0.85908 0.24842 0.0045 0.0
C640 C 0.86628 0.26436 0.01982 0.0
C641 C 0.86561 0.26928 0.06835 0.0
C642 C 0.85759 0.2516 0.86745 0.0
C643 C 0.85828 0.23403 0.85392 0.0
C644 C 0.85774 0.25626 0.91617 0.0
C645 C 0.85907 0.24346 0.95244 0.0
C646 C 0.86011 0.22586 0.93844 0.0
C647 C 0.85947 0.2212 0.88975 0.0
H648 H 0.48421 0.12159 0.82067 0.0
H649 H 0.53146 0.09353 0.85257 0.0
H650 H 0.49278 0.12374 0.73616 0.0
H651 H 0.5395 0.09433 0.76783 0.0
H652 H 0.55782 0.10965 0.62066 0.0
H653 H 0.54975 0.11075 0.70549 0.0
H654 H 0.49535 0.10877 0.66512 0.0
H655 H 0.50361 0.10918 0.58044 0.0
C656 C 0.49637 0.11575 0.80931 0.0
C657 C 0.50724 0.1075 0.84293 0.0
C658 C 0.50125 0.11682 0.76081 0.0
C659 C 0.51688 0.10919 0.74468 0.0
C660 C 0.52762 0.10079 0.77869 0.0
C661 C 0.52297 0.10018 0.82734 0.0
C662 C 0.54415 0.10958 0.63018 0.0
C663 C 0.53134 0.10929 0.59422 0.0
C664 C 0.53948 0.11004 0.67884 0.0
C665 C 0.52184 0.10968 0.69266 0.0
C666 C 0.50904 0.10941 0.65625 0.0
C667 C 0.51375 0.10948 0.60756 0.0
H668 H 0.63837 0.72817 0.57569 0.0
H669 H 0.65456 0.78038 0.61185 0.0
H670 H 0.63635 0.73646 0.49084 0.0
H671 H 0.65392 0.78837 0.52746 0.0
H672 H 0.64309 0.80327 0.37566 0.0
H673 H 0.63878 0.79501 0.45963 0.0
H674 H 0.65326 0.74199 0.42461 0.0
H675 H 0.65597 0.75014 0.34014 0.0
C676 C 0.64147 0.74142 0.56538 0.0
C677 C 0.64655 0.75365 0.60027 0.0
C678 C 0.64051 0.74617 0.51669 0.0
C679 C 0.6451 0.7631 0.50174 0.0
C680 C 0.64987 0.77534 0.53716 0.0
C681 C 0.65036 0.77073 0.58581 0.0
C682 C 0.64519 0.78984 0.38615 0.0
C683 C 0.64995 0.77735 0.35178 0.0
C684 C 0.64286 0.78507 0.43435 0.0
C685 C 0.64585 0.76781 0.44953 0.0
C686 C 0.65048 0.75532 0.41458 0.0
C687 C 0.65224 0.76 0.3661 0.0
H688 H 0.95333 0.1075 0.34614 0.0
H689 H 0.00773 0.10459 0.38364 0.0
H690 H 0.96099 0.1097 0.26105 0.0
H691 H 0.0155 0.10544 0.29865 0.0
H692 H 0.02636 0.12231 0.14659 0.0
H693 H 0.01775 0.12287 0.23122 0.0
H694 H 0.97093 0.09434 0.19542 0.0
H695 H 0.97906 0.09494 0.11075 0.0
C696 C 0.96693 0.10708 0.33596 0.0
C697 C 0.97996 0.10592 0.37122 0.0
C698 C 0.97136 0.10823 0.28717 0.0
C699 C 0.98891 0.10777 0.27261 0.0
C700 C 1.00188 0.1063 0.30827 0.0
C701 C 0.99745 0.10563 0.35707 0.0
C702 C 0.01414 0.11636 0.15698 0.0
C703 C 1.00333 0.10867 0.12224 0.0
C704 C 0.00926 0.11651 0.20554 0.0
C705 C 0.99367 0.10853 0.22055 0.0
C706 C 0.98284 0.10093 0.18541 0.0
C707 C 0.98752 0.10119 0.13677 0.0
H708 H 0.67173 0.20757 0.09659 0.0
H709 H 0.64352 0.25362 0.14024 0.0
H710 H 0.66952 0.21667 0.01234 0.0
H711 H 0.64105 0.26255 0.05607 0.0
H712 H 0.65794 0.28131 0.9047 0.0
H713 H 0.65926 0.27283 -0.0106 0.0
H714 H 0.64698 0.2198 0.95032 0.0
H715 H 0.64595 0.22811 0.86563 0.0
C716 C 0.66505 0.21962 0.08815 0.0
C717 C 0.65777 0.22987 0.12487 0.0
C718 C 0.66368 0.22477 0.03994 0.0
C719 C 0.65501 0.24028 0.02761 0.0
C720 C 0.64792 0.25062 0.06449 0.0
C721 C 0.64927 0.24545 0.11265 0.0
C722 C 0.65534 0.26787 0.91414 0.0
C723 C 0.65194 0.25538 0.87824 0.0
C724 C 0.65608 0.26303 0.96272 0.0
C725 C 0.6534 0.24562 0.97641 0.0
C726 C 0.64944 0.23326 0.94074 0.0
C727 C 0.64871 0.23807 0.89221 0.0
H728 H 0.53279 0.91482 0.61974 0.0
H729 H 0.48435 0.88946 0.65499 0.0
H730 H 0.54082 0.91512 0.70428 0.0
H731 H 0.49289 0.88842 0.73979 0.0
H732 H 0.50405 0.90598 0.89279 0.0
H733 H 0.49597 0.90503 0.80801 0.0
H734 H 0.55031 0.89971 0.76935 0.0
H735 H 0.55826 0.90218 0.8541 0.0
C736 C 0.52405 0.9089 0.64567 0.0
C737 C 0.50799 0.90206 0.63098 0.0
C738 C 0.52869 0.90896 0.69428 0.0
C739 C 0.51758 0.90174 0.72933 0.0
C740 C 0.50165 0.89445 0.7142 0.0
C741 C 0.49679 0.89486 0.66557 0.0
C742 C 0.51421 0.90471 0.86598 0.0
C743 C 0.53176 0.9043 0.87967 0.0
C744 C 0.50961 0.90396 0.8173 0.0
C745 C 0.52245 0.90225 0.78136 0.0
C746 C 0.54003 0.90147 0.79559 0.0
C747 C 0.54464 0.90277 0.84419 0.0
H748 H 0.84813 0.80445 0.60005 0.0
H749 H 0.87127 0.75637 0.6496 0.0
H750 H 0.85163 0.79494 0.51661 0.0
H751 H 0.87508 0.74699 0.56613 0.0
H752 H 0.85725 0.72913 0.41356 0.0
H753 H 0.85705 0.73793 0.49797 0.0
H754 H 0.87444 0.78935 0.45719 0.0
H755 H 0.87434 0.78073 0.37267 0.0
C756 C 0.85403 0.79189 0.59307 0.0
C757 C 0.85939 0.78113 0.63122 0.0
C758 C 0.85617 0.7865 0.54532 0.0
C759 C 0.86372 0.77025 0.53483 0.0
C760 C 0.86909 0.75951 0.5731 0.0
C761 C 0.86695 0.76491 0.62085 0.0
C762 C 0.86129 0.74224 0.42255 0.0
C763 C 0.86561 0.75428 0.3862 0.0
C764 C 0.86121 0.74727 0.47101 0.0
C765 C 0.8655 0.76441 0.48411 0.0
C766 C 0.87071 0.77616 0.44805 0.0
C767 C 0.87076 0.77117 0.39963 0.0
H768 H 0.53039 0.62318 0.11476 0.0
H769 H 0.47842 0.60743 0.15571 0.0
H770 H 0.53912 0.62278 0.19917 0.0
H771 H 0.48733 0.60676 0.2401 0.0
H772 H 0.50582 0.62276 0.39081 0.0
H773 H 0.49661 0.6254 0.30691 0.0
H774 H 0.54416 0.60043 0.2608 0.0
H775 H 0.55352 0.59806 0.34481 0.0
C776 C 0.52077 0.61976 0.14169 0.0
C777 C 0.5037 0.61526 0.12828 0.0
C778 C 0.52584 0.61939 0.19008 0.0
C779 C 0.51398 0.61455 0.22621 0.0
C780 C 0.49675 0.61065 0.2131 0.0
C781 C 0.49166 0.61101 0.16466 0.0
C782 C 0.51432 0.61784 0.36275 0.0
C783 C 0.5304 0.61021 0.3743 0.0
C784 C 0.509 0.61929 0.31472 0.0
C785 C 0.51967 0.61317 0.27724 0.0
C786 C 0.53577 0.60551 0.28886 0.0
C787 C 0.54108 0.60404 0.33694 0.0
H788 H 0.63571 0.2754 0.36522 0.0
H789 H 0.65564 0.22477 0.40579 0.0
H790 H 0.63516 0.28392 0.44983 0.0
H791 H 0.65539 0.23349 0.49018 0.0
H792 H 0.6614 0.30021 0.59229 0.0
H793 H 0.65783 0.2907 0.50885 0.0
H794 H 0.63721 0.24154 0.55872 0.0
H795 H 0.64112 0.25092 0.64212 0.0
C796 C 0.63979 0.26601 0.39212 0.0
C797 C 0.64592 0.24946 0.37857 0.0
C798 C 0.63959 0.27096 0.44059 0.0
C799 C 0.64549 0.25948 0.47654 0.0
C800 C 0.6507 0.24261 0.46332 0.0
C801 C 0.65088 0.23763 0.41485 0.0
C802 C 0.65611 0.28738 0.58537 0.0
C803 C 0.6516 0.27628 0.6236 0.0
C804 C 0.65391 0.28199 0.53763 0.0
C805 C 0.64715 0.2654 0.52725 0.0
C806 C 0.64259 0.25433 0.56559 0.0
C807 C 0.64479 0.25972 0.61331 0.0
H808 H 0.03449 0.40253 0.65893 0.0
H809 H 0.98326 0.38425 0.61881 0.0
H810 H 0.02575 0.40286 0.74334 0.0
H811 H 0.9747 0.38431 0.70341 0.0
H812 H 0.95933 0.413 0.84333 0.0
H813 H 0.96883 0.40802 0.76047 0.0
H814 H 0.01672 0.38543 0.81307 0.0
H815 H 0.00734 0.39068 0.89596 0.0
C816 C 0.02149 0.39822 0.6681 0.0
C817 C 0.0095 0.39362 0.63192 0.0
C818 C 0.0165 0.39837 0.71658 0.0
C819 C 0.99945 0.39388 0.72986 0.0
C820 C 0.98782 0.3882 0.69408 0.0
C821 C 0.99278 0.38806 0.64562 0.0
C822 C 0.97187 0.40696 0.83716 0.0
C823 C 0.98262 0.4023 0.876 0.0
C824 C 0.97725 0.40396 0.78976 0.0
C825 C 0.99349 0.39624 0.7803 0.0
C826 C 1.0042 0.39151 0.81924 0.0
C827 C 0.99881 0.39449 0.86666 0.0
H828 H 0.86936 0.75922 0.1486 0.0
H829 H 0.84639 0.71065 0.10248 0.0
H830 H 0.87159 0.76857 0.06468 0.0
H831 H 0.84835 0.72014 0.01854 0.0
H832 H 0.87082 0.7343 0.87303 0.0
H833 H 0.87071 0.7258 0.95761 0.0
H834 H 0.85278 0.77714 -0.00267 0.0
H835 H 0.85316 0.78584 0.91271 0.0
C836 C 0.86471 0.75058 0.12052 0.0
C837 C 0.85772 0.73419 0.13199 0.0
C838 C 0.86593 0.75597 0.07251 0.0
C839 C 0.86022 0.74506 0.03504 0.0
C840 C 0.85312 0.72871 0.04662 0.0
C841 C 0.85188 0.72333 0.09465 0.0
C842 C 0.86701 0.74386 0.89974 0.0
C843 C 0.86188 0.76073 0.88595 0.0
C844 C 0.86683 0.73893 0.94821 0.0
C845 C 0.86152 0.75072 0.98401 0.0
C846 C 0.85702 0.76778 0.97054 0.0
C847 C 0.85722 0.77275 0.922 0.0
H848 H 0.5564 0.40124 0.12301 0.0
H849 H 0.50236 0.40904 0.08686 0.0
H850 H 0.54866 0.39822 0.20785 0.0
H851 H 0.49463 0.40744 0.17172 0.0
H852 H 0.48227 0.39057 0.32253 0.0
H853 H 0.49081 0.38983 0.23779 0.0
H854 H 0.54025 0.41318 0.27529 0.0
H855 H 0.53211 0.41264 0.35984 0.0
C856 C 0.54288 0.40256 0.13346 0.0
C857 C 0.52997 0.40537 0.09858 0.0
C858 C 0.53841 0.40093 0.18214 0.0
C859 C 0.52097 0.40259 0.1971 0.0
C860 C 0.50813 0.40563 0.16183 0.0
C861 C 0.51256 0.40676 0.11308 0.0
C862 C 0.49504 0.39528 0.31245 0.0
C863 C 0.50657 0.40156 0.34763 0.0
C864 C 0.49991 0.39506 0.26383 0.0
C865 C 0.51622 0.40159 0.24922 0.0
C866 C 0.52776 0.40769 0.28485 0.0
C867 C 0.52307 0.40747 0.33349 0.0
H868 H 0.84799 0.30722 0.38181 0.0
H869 H 0.87265 0.25911 0.3388 0.0
H870 H 0.85042 0.2986 0.46638 0.0
H871 H 0.87551 0.25069 0.42324 0.0
H872 H 0.8568 0.23273 0.57277 0.0
H873 H 0.85693 0.24157 0.48854 0.0
H874 H 0.87138 0.29378 0.53047 0.0
H875 H 0.87083 0.28509 0.61505 0.0
C876 C 0.85405 0.29488 0.39048 0.0
C877 C 0.86005 0.2838 0.35379 0.0
C878 C 0.85556 0.28998 0.43891 0.0
C879 C 0.86316 0.27395 0.45153 0.0
C880 C 0.86937 0.26301 0.41471 0.0
C881 C 0.8678 0.26787 0.36634 0.0
C882 C 0.86017 0.24607 0.56415 0.0
C883 C 0.86369 0.25822 0.60084 0.0
C884 C 0.86032 0.25111 0.51573 0.0
C885 C 0.86407 0.26841 0.50281 0.0
C886 C 0.86815 0.28043 0.53933 0.0
C887 C 0.86796 0.2754 0.58781 0.0
H888 H 0.98171 0.60626 0.86232 0.0
H889 H 0.03268 0.62597 0.82654 0.0
H890 H 0.97371 0.60665 0.7778 0.0
H891 H 0.02433 0.62763 0.7417 0.0
H892 H 0.01202 0.60746 0.59055 0.0
H893 H 0.0199 0.61029 0.67521 0.0
H894 H 0.96622 0.62183 0.71013 0.0
H895 H 0.95832 0.61759 0.62588 0.0
C896 C 0.99105 0.61116 0.83637 0.0
C897 C 0.00783 0.61605 0.85098 0.0
C898 C 0.98643 0.61148 0.78767 0.0
C899 C 0.99834 0.61713 0.75235 0.0
C900 C 0.01491 0.62278 0.76746 0.0
C901 C 0.01968 0.62202 0.81617 0.0
C902 C 1.00195 0.61059 0.61648 0.0
C903 C 0.98455 0.61211 0.60193 0.0
C904 C 1.00647 0.6124 0.66509 0.0
C905 C 0.99372 0.61625 0.70006 0.0
C906 C 0.97637 0.6184 0.68478 0.0
C907 C 0.97181 0.61609 0.63639 0.0
H908 H 0.64852 0.72695 0.11124 0.0
H909 H 0.66142 0.77997 0.0724 0.0
H910 H 0.6493 0.71873 0.02641 0.0
H911 H 0.66251 0.77159 0.9877 0.0
H912 H 0.64408 0.75385 0.83834 0.0
H913 H 0.64306 0.76223 0.92306 0.0
H914 H 0.67074 0.71524 0.96146 0.0
H915 H 0.67149 0.70669 0.8765 0.0
C916 C 0.6515 0.73687 0.0847 0.0
C917 C 0.6549 0.75413 0.09875 0.0
C918 C 0.65208 0.73211 0.0361 0.0
C919 C 0.65605 0.74449 0.00045 0.0
C920 C 0.65924 0.76179 0.01433 0.0
C921 C 0.65866 0.76656 0.06294 0.0
C922 C 0.64996 0.74531 0.86484 0.0
C923 C 0.65783 0.7296 0.8509 0.0
C924 C 0.64946 0.75016 0.91334 0.0
C925 C 0.6568 0.73939 0.9489 0.0
C926 C 0.66477 0.7237 0.9349 0.0
C927 C 0.66529 0.71885 0.88629 0.0
H928 H 0.4794 0.41925 0.85855 0.0
H929 H 0.52639 0.39101 0.8248 0.0
H930 H 0.47128 0.41915 0.77384 0.0
H931 H 0.51776 0.38968 0.74025 0.0
H932 H 0.50823 0.40721 0.58665 0.0
H933 H 0.51585 0.40637 0.6717 0.0
H934 H 0.46119 0.40374 0.70875 0.0
H935 H 0.45372 0.40598 0.6235 0.0
C936 C 0.4878 0.41267 0.83298 0.0
C937 C 0.50354 0.40519 0.84805 0.0
C938 C 0.4831 0.4125 0.78432 0.0
C939 C 0.49385 0.40444 0.74974 0.0
C940 C 0.50934 0.39641 0.7654 0.0
C941 C 0.51425 0.39701 0.81393 0.0
C942 C 0.49788 0.40652 0.6131 0.0
C943 C 0.48041 0.40677 0.59872 0.0
C944 C 0.50223 0.40584 0.66197 0.0
C945 C 0.48917 0.40491 0.69754 0.0
C946 C 0.47164 0.40484 0.68273 0.0
C947 C 0.46731 0.40601 0.63385 0.0
H948 H 0.33963 0.70704 0.37598 0.0
H949 H 0.36958 0.75284 0.34016 0.0
H950 H 0.34009 0.71543 0.4611 0.0
H951 H 0.37037 0.76102 0.425 0.0
H952 H 0.35236 0.77979 0.57294 0.0
H953 H 0.35128 0.7714 0.4883 0.0
H954 H 0.36062 0.71781 0.52802 0.0
H955 H 0.36132 0.72607 0.61286 0.0
C956 C 0.34633 0.71886 0.38632 0.0
C957 C 0.35456 0.72928 0.3515 0.0
C958 C 0.34669 0.72362 0.43504 0.0
C959 C 0.35529 0.73889 0.44978 0.0
C960 C 0.36344 0.74931 0.41477 0.0
C961 C 0.36307 0.74457 0.36618 0.0
C962 C 0.35425 0.76621 0.56374 0.0
C963 C 0.35694 0.75361 0.59984 0.0
C964 C 0.35368 0.76143 0.51514 0.0
C965 C 0.35584 0.74394 0.50146 0.0
C966 C 0.35866 0.73135 0.53746 0.0
C967 C 0.3592 0.73613 0.58609 0.0
H968 H 0.05609 0.59119 0.12498 0.0
H969 H 0.00919 0.61967 0.09095 0.0
H970 H 0.04769 0.59058 0.21004 0.0
H971 H 1.001 0.61943 0.17585 0.0
H972 H 0.98284 0.59968 0.32251 0.0
H973 H 0.99131 0.59953 0.23788 0.0
H974 H 0.04452 0.61012 0.27854 0.0
H975 H 0.03619 0.60987 0.36335 0.0
C976 C 0.04403 0.59737 0.13572 0.0
C977 C 0.0333 0.60548 0.10139 0.0
C978 C 0.03926 0.59711 0.18444 0.0
C979 C 0.02367 0.60497 0.19973 0.0
C980 C 0.01296 0.61305 0.16521 0.0
C981 C 0.01771 0.61328 0.11659 0.0
C982 C 0.99636 0.60202 0.31352 0.0
C983 C 0.00882 0.60481 0.34988 0.0
C984 C 1.00119 0.602 0.26491 0.0
C985 C 0.01859 0.60483 0.25146 0.0
C986 C 0.03105 0.60767 0.28774 0.0
C987 C 0.02623 0.60765 0.33639 0.0
H988 H 0.14267 0.25866 0.83817 0.0
H989 H 0.17137 0.30517 0.87491 0.0
H990 H 0.14195 0.25031 0.92288 0.0
H991 H 0.17098 0.29659 0.95993 0.0
H992 H 0.15015 0.28508 0.1113 0.0
H993 H 0.15047 0.2935 0.02659 0.0
H994 H 0.16126 0.24027 0.98616 0.0
H995 H 0.16058 0.2317 0.07075 0.0
C996 C 0.14891 0.26706 0.86437 0.0
C997 C 0.15706 0.28259 0.84999 0.0
C998 C 0.14858 0.26222 0.91289 0.0
C999 C 0.15642 0.27277 0.94811 0.0
C1000 C 0.16463 0.2883 0.93369 0.0
C1001 C 0.16494 0.29316 0.88504 0.0
C1002 C 0.15248 0.27513 0.08441 0.0
C1003 C 0.1553 0.25769 0.09796 0.0
C1004 C 0.15281 0.28 0.03584 0.0
C1005 C 0.15596 0.26757 -0.0003 0.0
C1006 C 0.1586 0.25012 0.01313 0.0
C1007 C 0.15825 0.24523 0.06169 0.0
H1008 H 0.48167 0.62246 0.61379 0.0
H1009 H 0.53395 0.60819 0.65604 0.0
H1010 H 0.47291 0.62266 0.69818 0.0
H1011 H 0.52501 0.60811 0.7404 0.0
H1012 H 0.50604 0.62411 0.89038 0.0
H1013 H 0.51519 0.62685 0.80641 0.0
H1014 H 0.46834 0.60054 0.76057 0.0
H1015 H 0.45905 0.59807 0.84456 0.0
C1016 C 0.49134 0.61949 0.641 0.0
C1017 C 0.5085 0.6152 0.62797 0.0
C1018 C 0.48626 0.61948 0.68938 0.0
C1019 C 0.49821 0.6152 0.72587 0.0
C1020 C 0.51553 0.61157 0.71311 0.0
C1021 C 0.52063 0.61157 0.66468 0.0
C1022 C 0.49769 0.61894 0.86235 0.0
C1023 C 0.48183 0.61086 0.87395 0.0
C1024 C 0.50296 0.62045 0.8143 0.0
C1025 C 0.49248 0.61395 0.77688 0.0
C1026 C 0.47659 0.60592 0.78856 0.0
C1027 C 0.47132 0.60439 0.83664 0.0
H1028 H 0.14374 0.77843 0.39809 0.0
H1029 H 0.17187 0.73154 0.36245 0.0
H1030 H 0.14356 0.77 0.48288 0.0
H1031 H 0.17298 0.72365 0.44731 0.0
H1032 H 0.1592 0.70511 0.59681 0.0
H1033 H 0.15794 0.71316 0.51193 0.0
H1034 H 0.15966 0.76763 0.55201 0.0
H1035 H 0.15947 0.75937 0.6368 0.0
C1036 C 0.15002 0.76638 0.40863 0.0
C1037 C 0.15769 0.75556 0.37384 0.0
C1038 C 0.1501 0.76159 0.45733 0.0
C1039 C 0.1583 0.7461 0.47248 0.0
C1040 C 0.16614 0.73543 0.43732 0.0
C1041 C 0.16562 0.73999 0.38855 0.0
C1042 C 0.15928 0.71879 0.58722 0.0
C1043 C 0.15937 0.73163 0.62313 0.0
C1044 C 0.15869 0.72346 0.5385 0.0
C1045 C 0.15872 0.74111 0.52457 0.0
C1046 C 0.15917 0.75392 0.56095 0.0
C1047 C 0.15924 0.74922 0.60968 0.0
H1048 H 0.02909 0.39443 0.11962 0.0
H1049 H 0.97702 0.41093 0.15736 0.0
H1050 H 0.0373 0.39516 0.20429 0.0
H1051 H 0.98543 0.41183 0.24232 0.0
H1052 H 1.00381 0.39392 0.39369 0.0
H1053 H 0.99441 0.39256 0.30962 0.0
H1054 H 0.04197 0.41795 0.26556 0.0
H1055 H 0.05147 0.41913 0.34961 0.0
C1056 C 0.01934 0.39813 0.14591 0.0
C1057 C 1.00239 0.4027 0.13152 0.0
C1058 C 0.02411 0.39867 0.19446 0.0
C1059 C 0.01207 0.40376 0.22982 0.0
C1060 C 0.99497 0.4078 0.21581 0.0
C1061 C 0.99017 0.40729 0.16712 0.0
C1062 C 0.01224 0.39925 0.36605 0.0
C1063 C 0.02842 0.40655 0.3781 0.0
C1064 C 0.00681 0.39854 0.31797 0.0
C1065 C 0.0175 0.40504 0.28104 0.0
C1066 C 0.03358 0.41259 0.29323 0.0
C1067 C 0.03897 0.41336 0.34133 0.0
H1068 H 0.36925 0.25554 0.14391 0.0
H1069 H 0.34241 0.30299 0.10538 0.0
H1070 H 0.36971 0.24685 0.05925 0.0
H1071 H 0.34259 0.29415 0.02073 0.0
H1072 H 0.36381 0.28215 0.87055 0.0
H1073 H 0.36356 0.29036 0.95536 0.0
H1074 H 0.35015 0.23762 -0.00533 0.0
H1075 H 0.35072 0.22923 0.90986 0.0
C1076 C 0.36337 0.26407 0.11736 0.0
C1077 C 0.35585 0.27997 0.13117 0.0
C1078 C 0.36355 0.25905 0.06891 0.0
C1079 C 0.35623 0.26983 0.03329 0.0
C1080 C 0.34856 0.28568 0.04725 0.0
C1081 C 0.34837 0.29069 0.09573 0.0
C1082 C 0.36089 0.27225 0.89719 0.0
C1083 C 0.35728 0.25501 0.88324 0.0
C1084 C 0.36062 0.27701 0.94583 0.0
C1085 C 0.35673 0.26467 0.98169 0.0
C1086 C 0.35334 0.24739 0.9679 0.0
C1087 C 0.35361 0.24261 0.91923 0.0
H1088 H 1.00489 0.04708 0.9104 0.0
H1089 H 0.03111 0.04841 0.04819 0.0
H1090 H 0.99894 0.01622 0.92104 0.0
H1091 H 0.02452 0.01761 0.06011 0.0
H1092 H 0.02404 0.95836 0.0434 0.0
H1093 H 0.0304 0.98906 0.03597 0.0
H1094 H 0.98092 0.99715 0.96525 0.0
H1095 H 0.97487 0.96601 0.97062 0.0
C1096 C 0.00951 0.0407 0.94286 0.0
C1097 C 0.01855 0.05015 0.97836 0.0
C1098 C 1.00586 0.02304 0.94935 0.0
C1099 C 0.01092 0.01438 -0.00813 0.0
C1100 C 0.02051 0.02374 0.0267 0.0
C1101 C 0.02438 0.0414 0.01984 0.0
C1102 C 0.01437 0.96664 0.02656 0.0
C1103 C 0.99898 0.95957 0.00708 0.0
C1104 C 0.01803 0.98438 0.02255 0.0
C1105 C 1.00633 0.99567 -0.0006 0.0
C1106 C 0.99048 0.98879 0.9822 0.0
C1107 C 0.98688 0.97094 0.98584 0.0
H1108 H 0.2166 0.78582 0.27521 0.0
H1109 H 0.21279 0.75164 0.15189 0.0
H1110 H 0.24777 0.78018 0.27963 0.0
H1111 H 0.24398 0.74643 0.15518 0.0
H1112 H 0.29553 0.72418 0.21027 0.0
H1113 H 0.26462 0.73106 0.2029 0.0
H1114 H 0.27518 0.78436 0.24324 0.0
H1115 H 0.30573 0.77741 0.25222 0.0
C1116 C 0.22248 0.77746 0.2483 0.0
C1117 C 0.21218 0.76913 0.21337 0.0
C1118 C 0.24039 0.77417 0.25081 0.0
C1119 C 0.24844 0.76263 0.21812 0.0
C1120 C 0.23821 0.75501 0.18175 0.0
C1121 C 0.22033 0.75816 0.17954 0.0
C1122 C 0.29123 0.73734 0.21767 0.0
C1123 C 0.30317 0.75016 0.23214 0.0
C1124 C 0.2735 0.74135 0.21311 0.0
C1125 C 0.26732 0.75831 0.22248 0.0
C1126 C 0.27933 0.77111 0.23656 0.0
C1127 C 0.29695 0.76709 0.24151 0.0
H1128 H 0.53382 0.04819 0.43957 0.0
H1129 H 0.49237 0.05528 0.5431 0.0
H1130 H 0.52807 0.01701 0.43869 0.0
H1131 H 0.487 0.02408 0.54341 0.0
H1132 H 0.47114 0.96865 0.49647 0.0
H1133 H 0.47573 1.00027 0.49673 0.0
H1134 H 0.53124 0.99206 0.48743 0.0
H1135 H 0.52668 0.96099 0.48555 0.0
C1136 C 0.52363 0.04309 0.46261 0.0
C1137 C 0.5136 0.05428 0.49141 0.0
C1138 C 0.52033 0.02517 0.46221 0.0
C1139 C 0.50704 0.01795 0.49104 0.0
C1140 C 0.49712 0.02916 0.52014 0.0
C1141 C 0.50033 0.04707 0.52024 0.0
C1142 C 0.48428 0.97367 0.49443 0.0
C1143 C 0.49848 0.96226 0.49029 0.0
C1144 C 0.48695 0.99177 0.49477 0.0
C1145 C 0.50388 0.99878 0.49146 0.0
C1146 C 0.51801 0.98726 0.48861 0.0
C1147 C 0.51535 0.96933 0.48779 0.0
H1148 H 0.29493 0.2214 0.74863 0.0
H1149 H 0.30308 0.27326 0.69227 0.0
H1150 H 0.26361 0.22666 0.74956 0.0
H1151 H 0.27217 0.27875 0.69531 0.0
H1152 H 0.21386 0.28013 0.67222 0.0
H1153 H 0.24466 0.27326 0.66314 0.0
H1154 H 0.24277 0.24248 0.79387 0.0
H1155 H 0.21191 0.24874 0.80151 0.0
C1156 C 0.29008 0.23387 0.73624 0.0
C1157 C 0.30162 0.24689 0.72063 0.0
C1158 C 0.27211 0.23698 0.73721 0.0
C1159 C 0.26526 0.25324 0.723 0.0
C1160 C 0.27681 0.266 0.70598 0.0
C1161 C 0.29468 0.26285 0.70456 0.0
C1162 C 0.22009 0.27201 0.69917 0.0
C1163 C 0.21044 0.26501 0.73759 0.0
C1164 C 0.23777 0.26804 0.69401 0.0
C1165 C 0.2463 0.25718 0.72761 0.0
C1166 C 0.23665 0.25051 0.76657 0.0
C1167 C 0.21895 0.25427 0.7713 0.0
H1168 H 0.03184 0.96441 0.43063 0.0
H1169 H 0.99127 0.95812 0.53726 0.0
H1170 H 0.02575 0.99558 0.42751 0.0
H1171 H 0.9856 0.98918 0.53531 0.0
H1172 H 0.96906 0.04409 0.48972 0.0
H1173 H 0.97382 0.01252 0.48883 0.0
H1174 H 0.02914 0.021 0.47425 0.0
H1175 H 0.02438 0.05208 0.47347 0.0
C1176 C 0.02175 0.96967 0.45372 0.0
C1177 C 0.0121 0.95871 0.48419 0.0
C1178 C 0.01826 0.98757 0.45206 0.0
C1179 C 1.00515 0.99498 0.4812 0.0
C1180 C 0.99556 0.98398 0.51171 0.0
C1181 C 0.99895 0.96612 0.5131 0.0
C1182 C 0.98219 0.03914 0.48627 0.0
C1183 C 0.99627 0.05064 0.48121 0.0
C1184 C 0.98497 0.02106 0.4859 0.0
C1185 C 1.00189 0.01414 0.48099 0.0
C1186 C 0.0159 0.02574 0.47677 0.0
C1187 C 0.01314 0.04366 0.47666 0.0
H1188 H 0.20876 0.77866 0.72689 0.0
H1189 H 0.21822 0.72471 0.76286 0.0
H1190 H 0.23946 0.78496 0.73563 0.0
H1191 H 0.24927 0.73095 0.77004 0.0
H1192 H 0.30155 0.74993 0.82188 0.0
H1193 H 0.27025 0.74543 0.81907 0.0
H1194 H 0.26669 0.78069 0.69775 0.0
H1195 H 0.29801 0.78559 0.70164 0.0
C1196 C 0.21741 0.76804 0.73624 0.0
C1197 C 0.21094 0.75111 0.744 0.0
C1198 C 0.23511 0.77169 0.74105 0.0
C1199 C 0.24695 0.7585 0.75343 0.0
C1200 C 0.24052 0.74153 0.76118 0.0
C1201 C 0.22272 0.73789 0.75672 0.0
C1202 C 0.29404 0.75694 0.79504 0.0
C1203 C 0.30229 0.7681 0.76187 0.0
C1204 C 0.27609 0.75419 0.7931 0.0
C1205 C 0.2659 0.76243 0.75768 0.0
C1206 C 0.27406 0.77419 0.72579 0.0
C1207 C 0.29204 0.77706 0.72803 0.0
H1208 H 0.48587 0.95643 0.97219 0.0
H1209 H 0.53931 0.96614 0.01268 0.0
H1210 H 0.47958 0.98717 0.97712 0.0
H1211 H 0.53305 0.99737 0.01596 0.0
H1212 H 0.47829 0.04508 0.93967 0.0
H1213 H 0.48419 0.01389 0.93729 0.0
H1214 H 0.5179 0.01897 0.06146 0.0
H1215 H 0.51242 0.05015 0.06276 0.0
C1216 C 0.49641 0.96514 0.98165 0.0
C1217 C 0.51319 0.95871 -0.00817 0.0
C1218 C 0.49275 0.98289 0.98422 0.0
C1219 C 0.50578 0.99487 -0.00334 0.0
C1220 C 0.52261 0.98851 0.00685 0.0
C1221 C 0.52626 0.97061 0.00465 0.0
C1222 C 0.48674 0.03948 0.96687 0.0
C1223 C 0.4949 0.05013 0.00127 0.0
C1224 C 0.49017 0.02158 0.96553 0.0
C1225 C 0.5017 0.01386 -0.00109 0.0
C1226 C 0.50931 0.02446 0.03444 0.0
C1227 C 0.506 0.04234 0.0355 0.0
H1228 H 0.21175 0.27008 0.2966 0.0
H1229 H 0.21803 0.22191 0.2178 0.0
H1230 H 0.24264 0.27487 0.2943 0.0
H1231 H 0.24955 0.22626 0.21791 0.0
H1232 H 0.30223 0.24948 0.17605 0.0
H1233 H 0.27128 0.2431 0.18167 0.0
H1234 H 0.2698 0.26769 0.32219 0.0
H1235 H 0.30053 0.27495 0.31478 0.0
C1236 C 0.21975 0.26027 0.27939 0.0
C1237 C 0.21224 0.24564 0.25689 0.0
C1238 C 0.23766 0.26299 0.2785 0.0
C1239 C 0.2488 0.25104 0.25578 0.0
C1240 C 0.2414 0.23598 0.23493 0.0
C1241 C 0.22332 0.23335 0.23531 0.0
C1242 C 0.2952 0.25365 0.2079 0.0
C1243 C 0.30373 0.26288 0.24475 0.0
C1244 C 0.27746 0.24979 0.21147 0.0
C1245 C 0.26787 0.25476 0.2525 0.0
C1246 C 0.27655 0.26392 0.28953 0.0
C1247 C 0.29421 0.26812 0.28541 0.0
H1248 H 0.80355 0.27704 0.76718 0.0
H1249 H 0.79624 0.22366 0.72208 0.0
H1250 H 0.7727 0.28222 0.7606 0.0
H1251 H 0.76487 0.22872 0.71747 0.0
H1252 H 0.71214 0.24794 0.66564 0.0
H1253 H 0.74335 0.2431 0.67109 0.0
H1254 H 0.74561 0.27696 0.79566 0.0
H1255 H 0.71445 0.28233 0.78877 0.0
C1256 C 0.79534 0.26625 0.75649 0.0
C1257 C 0.80251 0.24986 0.74515 0.0
C1258 C 0.7775 0.26926 0.75299 0.0
C1259 C 0.76615 0.25593 0.73857 0.0
C1260 C 0.77322 0.23941 0.72795 0.0
C1261 C 0.79121 0.23643 0.73098 0.0
C1262 C 0.71936 0.25452 0.69386 0.0
C1263 C 0.71082 0.26558 0.7267 0.0
C1264 C 0.73725 0.25157 0.69735 0.0
C1265 C 0.74709 0.25943 0.73416 0.0
C1266 C 0.73857 0.27081 0.76642 0.0
C1267 C 0.72067 0.27394 0.7625 0.0
H1268 H 0.71701 0.78991 0.23555 0.0
H1269 H 0.7098 0.73643 0.28 0.0
H1270 H 0.74849 0.78531 0.23471 0.0
H1271 H 0.74075 0.73167 0.27689 0.0
H1272 H 0.79867 0.73078 0.30496 0.0
H1273 H 0.76763 0.73674 0.31254 0.0
H1274 H 0.77037 0.77135 0.18952 0.0
H1275 H 0.80144 0.76596 0.18353 0.0
C1276 C 0.72208 0.77723 0.24525 0.0
C1277 C 0.71077 0.7636 0.25783 0.0
C1278 C 0.74014 0.77451 0.24435 0.0
C1279 C 0.74728 0.75805 0.2555 0.0
C1280 C 0.73591 0.7446 0.26889 0.0
C1281 C 0.718 0.74735 0.27036 0.0
C1282 C 0.79258 0.73953 0.27933 0.0
C1283 C 0.80252 0.74787 0.24366 0.0
C1284 C 0.77476 0.74299 0.28361 0.0
C1285 C 0.76638 0.75464 0.25179 0.0
C1286 C 0.77634 0.76265 0.21546 0.0
C1287 C 0.79417 0.75939 0.21166 0.0
H1288 H 0.70692 0.27727 0.22303 0.0
H1289 H 0.71829 0.22407 0.26318 0.0
H1290 H 0.73743 0.28465 0.2303 0.0
H1291 H 0.74913 0.2314 0.26894 0.0
H1292 H 0.80053 0.25306 0.32028 0.0
H1293 H 0.76949 0.24716 0.31699 0.0
H1294 H 0.76487 0.28089 0.19264 0.0
H1295 H 0.79594 0.2872 0.19692 0.0
C1296 C 0.71594 0.26705 0.23299 0.0
C1297 C 0.71006 0.25001 0.24244 0.0
C1298 C 0.73354 0.27131 0.23693 0.0
C1299 C 0.74584 0.25867 0.25015 0.0
C1300 C 0.74001 0.24158 0.2594 0.0
C1301 C 0.72232 0.23731 0.25576 0.0
C1302 C 0.79286 0.25941 0.29256 0.0
C1303 C 0.80074 0.27058 0.25875 0.0
C1304 C 0.77506 0.25586 0.29038 0.0
C1305 C 0.76464 0.2633 0.2541 0.0
C1306 C 0.77242 0.275 0.22134 0.0
C1307 C 0.79025 0.27867 0.22379 0.0
H1308 H 0.70757 0.77725 0.74978 0.0
H1309 H 0.71784 0.72285 0.72216 0.0
H1310 H 0.73842 0.78349 0.74606 0.0
H1311 H 0.74901 0.72902 0.72018 0.0
H1312 H 0.80229 0.74803 0.67408 0.0
H1313 H 0.77117 0.74259 0.67404 0.0
H1314 H 0.76469 0.78011 0.78897 0.0
H1315 H 0.79587 0.78598 0.78776 0.0
C1316 C 0.71643 0.76654 0.74336 0.0
C1317 C 0.71017 0.74949 0.73646 0.0
C1318 C 0.73421 0.77014 0.74149 0.0
C1319 C 0.74632 0.75679 0.73313 0.0
C1320 C 0.74008 0.73971 0.72606 0.0
C1321 C 0.7222 0.73612 0.72744 0.0
C1322 C 0.79422 0.75523 0.69915 0.0
C1323 C 0.8016 0.76744 0.73103 0.0
C1324 C 0.77634 0.75198 0.69941 0.0
C1325 C 0.76534 0.76073 0.73184 0.0
C1326 C 0.77269 0.77323 0.76306 0.0
C1327 C 0.7906 0.77662 0.76247 0.0
H1328 H 0.49599 0.55384 0.42057 0.0
H1329 H 0.5326 0.54903 0.53813 0.0
H1330 H 0.49061 0.52264 0.42334 0.0
H1331 H 0.52671 0.5179 0.5424 0.0
H1332 H 0.52595 0.46056 0.50695 0.0
H1333 H 0.53125 0.49151 0.50255 0.0
H1334 H 0.47707 0.50027 0.46858 0.0
H1335 H 0.47187 0.46885 0.47106 0.0
C1336 C 0.50288 0.5461 0.44713 0.0
C1337 C 0.51478 0.55393 0.47904 0.0
C1338 C 0.49966 0.5282 0.44904 0.0
C1339 C 0.50811 0.51765 0.48328 0.0
C1340 C 0.52013 0.5255 0.51498 0.0
C1341 C 0.52352 0.54339 0.51264 0.0
C1342 C 0.51507 0.46901 0.49871 0.0
C1343 C 0.49842 0.46213 0.48953 0.0
C1344 C 0.51813 0.48688 0.49647 0.0
C1345 C 0.50461 0.49853 0.48553 0.0
C1346 C 0.48789 0.4917 0.4765 0.0
C1347 C 0.48484 0.47369 0.47822 0.0
H1348 H 0.97197 0.46845 0.0012 0.0
H1349 H 0.02449 0.45976 0.95093 0.0
H1350 H 0.97746 0.49977 0.00225 0.0
H1351 H 0.03014 0.49067 0.9539 0.0
H1352 H 0.03151 0.5489 0.92595 0.0
H1353 H 0.02487 0.51794 0.91872 0.0
H1354 H 0.99292 0.52094 0.04696 0.0
H1355 H 0.99901 0.5519 0.05288 0.0
C1356 C 0.98465 0.47317 -0.00967 0.0
C1357 C 0.99775 0.46149 0.97611 0.0
C1358 C 0.98788 0.49114 -0.0087 0.0
C1359 C 1.00432 0.49785 0.97844 0.0
C1360 C 0.01725 0.48614 0.96337 0.0
C1361 C 0.014 0.46827 0.962 0.0
C1362 C 0.02318 0.54289 0.95275 0.0
C1363 C 0.0158 0.55287 -0.01006 0.0
C1364 C 0.01935 0.52511 0.94867 0.0
C1365 C 0.00823 0.51685 0.98209 0.0
C1366 C 1.00118 0.52685 0.01984 0.0
C1367 C 1.00483 0.54461 0.02354 0.0
H1368 H 0.53226 0.46702 0.92747 0.0
H1369 H 0.50612 0.46597 0.06538 0.0
H1370 H 0.5263 0.49819 0.92073 0.0
H1371 H 0.5007 0.4971 0.0597 0.0
H1372 H 0.47579 0.54773 0.01269 0.0
H1373 H 0.48251 0.51671 0.01668 0.0
H1374 H 0.5325 0.52641 0.95067 0.0
H1375 H 0.52559 0.55712 0.9451 0.0
C1376 C 0.52567 0.47355 0.95692 0.0
C1377 C 0.51964 0.46405 -0.00312 0.0
C1378 C 0.52217 0.49142 0.95304 0.0
C1379 C 0.51273 0.50018 -0.01067 0.0
C1380 C 0.50753 0.49076 0.03038 0.0
C1381 C 0.51085 0.47293 0.03396 0.0
C1382 C 0.48814 0.54322 -0.00137 0.0
C1383 C 0.50013 0.55502 0.97878 0.0
C1384 C 0.49209 0.52543 0.00132 0.0
C1385 C 0.50817 0.51901 0.98447 0.0
C1386 C 0.51995 0.53078 0.96362 0.0
C1387 C 0.51598 0.54849 0.9607 0.0
H1388 H 0.98257 0.45612 0.48439 0.0
H1389 H 0.03682 0.4657 0.51556 0.0
H1390 H 0.9764 0.48694 0.49243 0.0
H1391 H 0.0307 0.4968 0.52207 0.0
H1392 H 0.01257 0.54944 0.57274 0.0
H1393 H 0.01674 0.51806 0.57146 0.0
H1394 H 0.98051 0.51399 0.4526 0.0
H1395 H 0.97597 0.54542 0.45492 0.0
C1396 C 0.99326 0.46481 0.49257 0.0
C1397 C 0.01026 0.45836 0.49914 0.0
C1398 C 0.98969 0.48257 0.49699 0.0
C1399 C 1.00301 0.49444 0.5078 0.0
C1400 C 0.02003 0.48802 0.51445 0.0
C1401 C 0.02359 0.47018 0.51037 0.0
C1402 C 1.00529 0.54182 0.54675 0.0
C1403 C 0.99398 0.54996 0.51375 0.0
C1404 C 0.00783 0.52382 0.54571 0.0
C1405 C 0.99922 0.51346 0.5114 0.0
C1406 C 0.9873 0.52151 0.47977 0.0
C1407 C 0.98465 0.53955 0.48109 0.0
H1408 H 0.09245 0.10555 0.07836 0.0
H1409 H 0.06449 0.15265 0.04257 0.0
H1410 H 0.11553 0.12327 0.11618 0.0
H1411 H 0.08714 0.16994 0.08013 0.0
H1412 H 0.11397 0.19094 0.21228 0.0
H1413 H 0.09565 0.16892 0.17574 0.0
H1414 H 0.13833 0.1522 0.08598 0.0
H1415 H 0.15711 0.17465 0.12305 0.0
C1416 C 0.09126 0.11959 0.07835 0.0
C1417 C 0.07657 0.12767 0.05778 0.0
C1418 C 0.10449 0.12969 0.0996 0.0
C1419 C 0.10304 0.14793 0.10101 0.0
C1420 C 0.08854 0.1559 0.07961 0.0
C1421 C 0.07555 0.14594 0.05815 0.0
C1422 C 0.11963 0.18254 0.18508 0.0
C1423 C 0.13694 0.18478 0.1699 0.0
C1424 C 0.1091 0.16986 0.16436 0.0
C1425 C 0.11553 0.15901 0.12784 0.0
C1426 C 0.13312 0.16042 0.11429 0.0
C1427 C 0.1438 0.17326 0.13528 0.0
H1428 H 0.15844 0.84751 0.30168 0.0
H1429 H 0.1158 0.81211 0.3273 0.0
H1430 H 0.14154 0.87119 0.33989 0.0
H1431 H 0.09938 0.83531 0.36564 0.0
H1432 H 0.08319 0.87191 0.47955 0.0
H1433 H 0.10617 0.85384 0.44599 0.0
H1434 H 0.10789 0.88635 0.319 0.0
H1435 H 0.08465 0.90479 0.35309 0.0
C1436 C 0.14559 0.84478 0.31582 0.0
C1437 C 0.13841 0.828 0.31161 0.0
C1438 C 0.13593 0.8583 0.33725 0.0
C1439 C 0.11921 0.855 0.35573 0.0
C1440 C 0.11227 0.83817 0.35192 0.0
C1441 C 0.12167 0.8249 0.32987 0.0
C1442 C 0.08869 0.87548 0.4449 0.0
C1443 C 0.08193 0.88957 0.41851 0.0
C1444 C 0.10189 0.86516 0.42584 0.0
C1445 C 0.10864 0.86861 0.37979 0.0
C1446 C 0.10294 0.88351 0.35476 0.0
C1447 C 0.08964 0.894 0.37414 0.0
H1448 H 0.35629 0.84396 0.66318 0.0
H1449 H 0.40169 0.81081 0.6603 0.0
H1450 H 0.37343 0.86755 0.62554 0.0
H1451 H 0.41839 0.83395 0.62292 0.0
H1452 H 0.4365 0.86757 0.50325 0.0
H1453 H 0.41429 0.84872 0.53703 0.0
H1454 H 0.40444 0.88616 0.64984 0.0
H1455 H 0.42697 0.90544 0.61541 0.0
C1456 C 0.36983 0.84169 0.6544 0.0
C1457 C 0.37763 0.82551 0.66452 0.0
C1458 C 0.37962 0.8552 0.63328 0.0
C1459 C 0.39719 0.8525 0.62124 0.0
C1460 C 0.40485 0.83634 0.63153 0.0
C1461 C 0.39525 0.82309 0.65304 0.0
C1462 C 0.42948 0.87199 0.53488 0.0
C1463 C 0.43372 0.88784 0.55726 0.0
C1464 C 0.4167 0.86119 0.55406 0.0
C1465 C 0.40782 0.86589 0.59631 0.0
C1466 C 0.41109 0.8823 0.61708 0.0
C1467 C 0.42399 0.89326 0.59755 0.0
H1468 H 0.45087 0.14513 0.88447 0.0
H1469 H 0.41461 0.10393 0.91745 0.0
H1470 H 0.42729 0.1631 0.85468 0.0
H1471 H 0.39048 0.12239 0.88815 0.0
H1472 H 0.35845 0.162 0.78096 0.0
H1473 H 0.37803 0.13921 0.81259 0.0
H1474 H 0.40387 0.17779 0.90046 0.0
H1475 H 0.3849 0.20027 0.86797 0.0
C1476 C 0.43779 0.13989 0.88509 0.0
C1477 C 0.43453 0.12326 0.90395 0.0
C1478 C 0.42424 0.15023 0.86827 0.0
C1479 C 0.40695 0.14439 0.87045 0.0
C1480 C 0.40368 0.12728 0.88645 0.0
C1481 C 0.41744 0.11674 0.90307 0.0
C1482 C 0.36802 0.16537 0.80812 0.0
C1483 C 0.37032 0.18281 0.82203 0.0
C1484 C 0.37923 0.15239 0.82607 0.0
C1485 C 0.39276 0.15681 0.85807 0.0
C1486 C 0.39388 0.17404 0.8749 0.0
C1487 C 0.38293 0.1869 0.85668 0.0
H1488 H 0.88915 0.83511 0.74207 0.0
H1489 H 0.85733 0.83809 0.87018 0.0
H1490 H 0.90783 0.85806 0.77316 0.0
H1491 H 0.87647 0.86117 0.90209 0.0
H1492 H 0.91635 0.90952 0.92267 0.0
H1493 H 0.89205 0.89353 0.88443 0.0
H1494 H 0.92727 0.85174 0.84837 0.0
H1495 H 0.95104 0.86727 0.88655 0.0
C1496 C 0.88594 0.84097 0.77654 0.0
C1497 C 0.87198 0.83466 0.80411 0.0
C1498 C 0.89662 0.85413 0.79425 0.0
C1499 C 0.89374 0.86119 0.84028 0.0
C1500 C 0.87891 0.85597 0.86637 0.0
C1501 C 0.86801 0.84277 0.84824 0.0
C1502 C 0.9188 0.89699 0.90606 0.0
C1503 C 0.93555 0.88961 0.90748 0.0
C1504 C 0.90494 0.88784 0.88461 0.0
C1505 C 0.90784 0.87146 0.86329 0.0
C1506 C 0.92467 0.8644 0.86409 0.0
C1507 C 0.93829 0.87328 0.88612 0.0
H1508 H 0.9339 0.14545 0.50167 0.0
H1509 H 0.92441 0.10571 0.60893 0.0
H1510 H 0.91178 0.16378 0.53825 0.0
H1511 H 0.90194 0.12443 0.64591 0.0
H1512 H 0.85319 0.16938 0.65261 0.0
H1513 H 0.8699 0.14574 0.6136 0.0
H1514 H 0.91723 0.17479 0.63537 0.0
H1515 H 0.90099 0.19794 0.67425 0.0
C1516 C 0.92689 0.14049 0.53269 0.0
C1517 C 0.93113 0.12425 0.55294 0.0
C1518 C 0.91413 0.15097 0.55337 0.0
C1519 C 0.90524 0.14552 0.59484 0.0
C1520 C 0.90856 0.12882 0.6136 0.0
C1521 C 0.92143 0.11818 0.59263 0.0
C1522 C 0.86717 0.1706 0.64918 0.0
C1523 C 0.87575 0.18555 0.66642 0.0
C1524 C 0.87669 0.15706 0.62726 0.0
C1525 C 0.89481 0.15851 0.62173 0.0
C1526 C 0.90328 0.17336 0.63933 0.0
C1527 C 0.89392 0.18663 0.66157 0.0
H1528 H 0.65893 0.17671 0.37015 0.0
H1529 H 0.62807 0.17209 0.24064 0.0
H1530 H 0.64148 0.15365 0.40817 0.0
H1531 H 0.61096 0.14899 0.27792 0.0
H1532 H 0.5855 0.10335 0.35348 0.0
H1533 H 0.61049 0.11842 0.31699 0.0
H1534 H 0.60916 0.15649 0.43159 0.0
H1535 H 0.58421 0.14177 0.46714 0.0
C1536 C 0.64883 0.17035 0.34932 0.0
C1537 C 0.64473 0.17622 0.30268 0.0
C1538 C 0.63881 0.15725 0.37107 0.0
C1539 C 0.62481 0.14958 0.34604 0.0
C1540 C 0.62172 0.15452 0.29798 0.0
C1541 C 0.63146 0.16782 0.27675 0.0
C1542 C 0.59079 0.11475 0.37118 0.0
C1543 C 0.58283 0.12152 0.41278 0.0
C1544 C 0.60506 0.12336 0.35037 0.0
C1545 C 0.61181 0.1386 0.37157 0.0
C1546 C 0.60442 0.14468 0.41474 0.0
C1547 C 0.59001 0.13634 0.43482 0.0
H1548 H 0.58631 0.90421 0.12175 0.0
H1549 H 0.58304 0.87055 -0.00274 0.0
H1550 H 0.60951 0.88551 0.15523 0.0
H1551 H 0.60599 0.85227 0.0301 0.0
H1552 H 0.61544 0.81104 0.14982 0.0
H1553 H 0.5993 0.83453 0.11217 0.0
H1554 H 0.64282 0.86921 0.13243 0.0
H1555 H 0.65945 0.8452 0.17021 0.0
C1556 C 0.5909 0.89319 0.10096 0.0
C1557 C 0.58268 0.88861 0.0574 0.0
C1558 C 0.60418 0.88256 0.11997 0.0
C1559 C 0.60937 0.86739 0.09533 0.0
C1560 C 0.60213 0.8638 0.04995 0.0
C1561 C 0.58893 0.87424 0.03132 0.0
C1562 C 0.62169 0.82362 0.14625 0.0
C1563 C 0.63874 0.82625 0.16288 0.0
C1564 C 0.61242 0.83707 0.12459 0.0
C1565 C 0.61982 0.85365 0.11939 0.0
C1566 C 0.63685 0.85651 0.1362 0.0
C1567 C 0.64636 0.8428 0.15736 0.0
H1568 H 0.5854 0.60469 0.61484 0.0
H1569 H 0.58448 0.64233 0.49908 0.0
H1570 H 0.60967 0.62052 0.65252 0.0
H1571 H 0.60877 0.65781 0.53585 0.0
H1572 H 0.65803 0.67878 0.60202 0.0
H1573 H 0.64106 0.65563 0.56281 0.0
H1574 H 0.6087 0.65156 0.68969 0.0
H1575 H 0.6253 0.67477 0.7281 0.0
C1576 C 0.59066 0.61606 0.5969 0.0
C1577 C 0.58298 0.6224 0.55436 0.0
C1578 C 0.6045 0.62512 0.61842 0.0
C1579 C 0.61112 0.64038 0.59703 0.0
C1580 C 0.6041 0.646 0.5529 0.0
C1581 C 0.59008 0.63722 0.53208 0.0
C1582 C 0.64757 0.6726 0.62181 0.0
C1583 C 0.64286 0.67863 0.66785 0.0
C1584 C 0.63784 0.65942 0.5994 0.0
C1585 C 0.62354 0.65181 0.62322 0.0
C1586 C 0.61972 0.65703 0.67061 0.0
C1587 C 0.62915 0.67041 0.69246 0.0
H1588 H 0.59266 0.40835 0.89087 0.0
H1589 H 0.56398 0.36153 0.92481 0.0
H1590 H 0.61545 0.39043 0.85232 0.0
H1591 H 0.58633 0.34407 0.8865 0.0
H1592 H 0.6133 0.32281 0.75532 0.0
H1593 H 0.59528 0.34543 0.79048 0.0
H1594 H 0.63755 0.36079 0.88356 0.0
H1595 H 0.65598 0.33778 0.84795 0.0
C1596 C 0.59124 0.39433 0.89026 0.0
C1597 C 0.57645 0.38638 0.91064 0.0
C1598 C 0.6043 0.38412 0.86857 0.0
C1599 C 0.60256 0.36591 0.86648 0.0
C1600 C 0.58794 0.35808 0.88751 0.0
C1601 C 0.57513 0.36814 0.90944 0.0
C1602 C 0.61894 0.33108 0.78287 0.0
C1603 C 0.63599 0.32828 0.79952 0.0
C1604 C 0.6086 0.34411 0.80278 0.0
C1605 C 0.61499 0.35472 0.83989 0.0
C1606 C 0.63239 0.35278 0.85474 0.0
C1607 C 0.64287 0.33961 0.83458 0.0
H1608 H 0.85204 0.34972 0.16392 0.0
H1609 H 0.89722 0.31649 0.15342 0.0
H1610 H 0.86839 0.3733 0.12339 0.0
H1611 H 0.91309 0.33956 0.11291 0.0
H1612 H 0.92916 0.37319 -0.00773 0.0
H1613 H 0.90626 0.35523 0.02669 0.0
H1614 H 0.90135 0.39088 0.14622 0.0
H1615 H 0.92449 0.40923 0.11115 0.0
C1616 C 0.86535 0.34743 0.15275 0.0
C1617 C 0.87338 0.33129 0.16181 0.0
C1618 C 0.87468 0.36091 0.12997 0.0
C1619 C 0.89195 0.35816 0.11505 0.0
C1620 C 0.89978 0.34198 0.12387 0.0
C1621 C 0.89068 0.32878 0.14719 0.0
C1622 C 0.92294 0.37748 0.02531 0.0
C1623 C 0.92879 0.39243 0.04952 0.0
C1624 C 0.90978 0.36722 0.04484 0.0
C1625 C 0.9022 0.3716 0.08924 0.0
C1626 C 0.90695 0.38733 0.11172 0.0
C1627 C 0.92019 0.39777 0.0918 0.0
H1628 H 0.9178 0.60394 0.4168 0.0
H1629 H 0.95247 0.64776 0.40001 0.0
H1630 H 0.89428 0.62092 0.37821 0.0
H1631 H 0.92943 0.6643 0.36152 0.0
H1632 H 0.89402 0.68235 0.24742 0.0
H1633 H 0.91265 0.65963 0.27994 0.0
H1634 H 0.87735 0.65252 0.39943 0.0
H1635 H 0.85832 0.67548 0.36626 0.0
C1636 C 0.92042 0.61708 0.40458 0.0
C1637 C 0.93696 0.62453 0.41132 0.0
C1638 C 0.90698 0.62679 0.38289 0.0
C1639 C 0.9101 0.64387 0.36674 0.0
C1640 C 0.92669 0.65112 0.37324 0.0
C1641 C 0.93988 0.64164 0.39545 0.0
C1642 C 0.89 0.67576 0.28018 0.0
C1643 C 0.87489 0.68091 0.30483 0.0
C1644 C 0.90066 0.66271 0.29867 0.0
C1645 C 0.89656 0.65451 0.34248 0.0
C1646 C 0.88075 0.65863 0.36546 0.0
C1647 C 0.86992 0.67177 0.34662 0.0
H1648 H 0.39103 0.33431 0.25 0.0
H1649 H 0.35628 0.33473 0.3724 0.0
H1650 H 0.40738 0.35845 0.28464 0.0
H1651 H 0.37298 0.35885 0.40782 0.0
H1652 H 0.42853 0.374 0.47494 0.0
H1653 H 0.40478 0.3574 0.43918 0.0
H1654 H 0.40606 0.39068 0.31353 0.0
H1655 H 0.42975 0.40768 0.35022 0.0
C1656 C 0.38672 0.33979 0.284 0.0
C1657 C 0.37249 0.33256 0.30875 0.0
C1658 C 0.396 0.35372 0.30362 0.0
C1659 C 0.39148 0.36052 0.34894 0.0
C1660 C 0.37674 0.35383 0.37279 0.0
C1661 C 0.36718 0.34008 0.35255 0.0
C1662 C 0.42349 0.37801 0.44011 0.0
C1663 C 0.43103 0.39203 0.41514 0.0
C1664 C 0.4098 0.36859 0.41982 0.0
C1665 C 0.40356 0.37273 0.37359 0.0
C1666 C 0.41062 0.38722 0.34929 0.0
C1667 C 0.42412 0.39695 0.37023 0.0
H1668 H 0.38821 0.67482 0.22812 0.0
H1669 H 0.35434 0.67783 0.1041 0.0
H1670 H 0.40451 0.65134 0.18997 0.0
H1671 H 0.37097 0.65436 0.0652 0.0
H1672 H 0.4267 0.64054 -0.00226 0.0
H1673 H 0.40259 0.65607 0.03519 0.0
H1674 H 0.40369 0.6202 0.15524 0.0
H1675 H 0.42781 0.60432 0.11687 0.0
C1676 C 0.38405 0.6702 0.193 0.0
C1677 C 0.37011 0.67823 0.16887 0.0
C1678 C 0.39331 0.65665 0.17132 0.0
C1679 C 0.38906 0.65103 0.12455 0.0
C1680 C 0.37454 0.65846 0.10129 0.0
C1681 C 0.365 0.67183 0.12353 0.0
C1682 C 0.42154 0.63572 0.03161 0.0
C1683 C 0.42919 0.62131 0.05462 0.0
C1684 C 0.40763 0.64454 0.05288 0.0
C1685 C 0.40126 0.63939 0.09818 0.0
C1686 C 0.40837 0.62446 0.12027 0.0
C1687 C 0.4221 0.61535 0.09834 0.0
H1688 H 0.08566 0.64162 0.97528 0.0
H1689 H 0.08461 0.6063 0.85413 0.0
H1690 H 0.10931 0.65786 0.93772 0.0
H1691 H 0.10821 0.6229 0.81575 0.0
H1692 H 0.15822 0.67924 0.86864 0.0
H1693 H 0.14115 0.65596 0.90697 0.0
H1694 H 0.1071 0.65457 0.78307 0.0
H1695 H 0.12382 0.67789 0.7455 0.0
C1696 C 0.09069 0.63718 0.94087 0.0
C1697 C 0.08324 0.62278 0.91744 0.0
C1698 C 0.10433 0.64641 0.91955 0.0
C1699 C 0.11061 0.64166 0.87381 0.0
C1700 C 0.10361 0.62683 0.85107 0.0
C1701 C 0.09016 0.61733 0.87301 0.0
C1702 C 0.14732 0.67366 0.84928 0.0
C1703 C 0.14224 0.68043 0.80432 0.0
C1704 C 0.13753 0.66041 0.87121 0.0
C1705 C 0.12279 0.65346 0.84797 0.0
C1706 C 0.11847 0.65951 0.80165 0.0
C1707 C 0.12798 0.67296 0.78031 0.0
H1708 H 0.08419 0.40759 0.61792 0.0
H1709 H 0.08488 0.37254 0.49615 0.0
H1710 H 0.108 0.39099 0.65529 0.0
H1711 H 0.10872 0.35627 0.53277 0.0
H1712 H 0.15712 0.33387 0.60236 0.0
H1713 H 0.14053 0.3575 0.56396 0.0
H1714 H 0.10628 0.35934 0.68737 0.0
H1715 H 0.12251 0.33567 0.72494 0.0
C1716 C 0.08975 0.39666 0.5986 0.0
C1717 C 0.08262 0.39124 0.55441 0.0
C1718 C 0.10331 0.38715 0.61997 0.0
C1719 C 0.11019 0.37232 0.59693 0.0
C1720 C 0.10382 0.36771 0.55118 0.0
C1721 C 0.09008 0.37696 0.53039 0.0
C1722 C 0.14627 0.33961 0.62155 0.0
C1723 C 0.14099 0.33287 0.66637 0.0
C1724 C 0.13677 0.35307 0.59961 0.0
C1725 C 0.12212 0.36027 0.62274 0.0
C1726 C 0.11759 0.35421 0.6689 0.0
C1727 C 0.12681 0.34056 0.69022 0.0
loop_
_geom_bond_atom_site_label_1
_geom_bond_atom_site_label_2
_geom_bond_distance
_geom_bond_site_symmetry_2
_ccdc_geom_bond_type
Co0 O1 2.216 . S
Co0 O2 2.091 . S
Co0 O4 2.004 . S
Co0 O10 2.021 . S
Co0 O12 2.137 1_554 S
Co0 O13 2.244 . S
O1 Co0 2.216 . S
O1 C8 1.247 . S
O2 Co0 2.091 . S
O2 C8 1.261 . S
C3 O12 1.247 . S
C3 O13 1.272 1_556 S
O4 Co0 2.004 . S
O4 C9 1.259 . S
Co5 O6 2.045 1_655 S
Co5 O11 2.052 . S
Co5 O13 2.135 1_655 S
O6 Co5 2.045 1_455 S
O6 C9 1.259 . S
C7 O10 1.238 . S
C7 O11 1.241 1_455 S
C8 O1 1.247 . S
C8 O2 1.261 . S
C9 O4 1.259 . S
C9 O6 1.259 . S
O10 Co0 2.021 . S
O10 C7 1.238 . S
O11 Co5 2.052 . S
O11 C7 1.241 1_655 S
O12 Co0 2.137 1_556 S
O12 C3 1.247 . S
O13 Co0 2.244 . S
O13 C3 1.272 1_554 S
O13 Co5 2.135 1_455 S
Co14 O15 2.216 . S
Co14 O16 2.091 . S
Co14 O18 2.004 . S
Co14 O24 2.021 . S
Co14 O26 2.137 . S
Co14 O27 2.244 . S
O15 Co14 2.216 . S
O15 C22 1.247 . S
O16 Co14 2.091 . S
O16 C22 1.261 . S
C17 O26 1.247 . S
C17 O27 1.272 . S
O18 Co14 2.004 . S
O18 C23 1.259 . S
Co19 O20 2.061 . S
Co19 O25 2.052 . S
Co19 O27 2.135 . S
O20 Co19 2.061 . S
O20 C23 1.235 . S
C21 O24 1.238 . S
C21 O25 1.241 . S
C22 O15 1.247 . S
C22 O16 1.261 . S
C23 O18 1.259 . S
C23 O20 1.235 . S
O24 Co14 2.021 . S
O24 C21 1.238 . S
O25 Co19 2.052 . S
O25 C21 1.241 . S
O26 Co14 2.137 . S
O26 C17 1.247 . S
O27 Co14 2.244 . S
O27 C17 1.272 . S
O27 Co19 2.135 . S
Co28 O29 2.216 . S
Co28 O30 2.091 . S
Co28 O32 2.004 . S
Co28 O38 2.021 . S
Co28 O40 2.137 . S
Co28 O41 2.244 . S
O29 Co28 2.216 . S
O29 C36 1.247 . S
O30 Co28 2.091 . S
O30 C36 1.261 . S
C31 O40 1.247 . S
C31 O41 1.272 . S
O32 Co28 2.004 . S
O32 C37 1.259 . S
Co33 O34 2.061 . S
Co33 O39 2.052 . S
Co33 O41 2.135 . S
O34 Co33 2.061 . S
O34 C37 1.235 . S
C35 O38 1.238 . S
C35 O39 1.241 . S
C36 O29 1.247 . S
C36 O30 1.261 . S
C37 O32 1.259 . S
C37 O34 1.235 . S
O38 Co28 2.021 . S
O38 C35 1.238 . S
O39 Co33 2.052 . S
O39 C35 1.241 . S
O40 Co28 2.137 . S
O40 C31 1.247 . S
O41 Co28 2.244 . S
O41 C31 1.272 . S
O41 Co33 2.135 . S
Co42 O43 2.216 . S
Co42 O44 2.091 . S
Co42 O46 2.004 . S
Co42 O52 2.021 . S
Co42 O54 2.137 . S
Co42 O55 2.244 . S
O43 Co42 2.216 . S
O43 C50 1.247 . S
O44 Co42 2.091 . S
O44 C50 1.261 . S
C45 O54 1.247 . S
C45 O55 1.272 . S
O46 Co42 2.004 . S
O46 C51 1.259 . S
Co47 O48 2.061 . S
Co47 O53 2.052 . S
Co47 O55 2.135 . S
O48 Co47 2.061 . S
O48 C51 1.235 . S
C49 O52 1.238 . S
C49 O53 1.241 . S
C50 O43 1.247 . S
C50 O44 1.261 . S
C51 O46 1.259 . S
C51 O48 1.235 . S
O52 Co42 2.021 . S
O52 C49 1.238 . S
O53 Co47 2.052 . S
O53 C49 1.241 . S
O54 Co42 2.137 . S
O54 C45 1.247 . S
O55 Co42 2.244 . S
O55 C45 1.272 . S
O55 Co47 2.135 . S
Co56 O57 2.216 . S
Co56 O58 2.091 . S
Co56 O60 2.004 . S
Co56 O66 2.021 . S
Co56 O68 2.137 . S
Co56 O69 2.244 . S
O57 Co56 2.216 . S
O57 C64 1.247 . S
O58 Co56 2.091 . S
O58 C64 1.261 . S
C59 O68 1.247 . S
C59 O69 1.272 . S
O60 Co56 2.004 . S
O60 C65 1.259 . S
Co61 O62 2.046 1_655 S
Co61 O67 2.052 . S
Co61 O69 2.135 1_655 S
O62 Co61 2.046 1_455 S
O62 C65 1.258 . S
C63 O66 1.238 . S
C63 O67 1.241 1_455 S
C64 O57 1.247 . S
C64 O58 1.261 . S
C65 O60 1.259 . S
C65 O62 1.258 . S
O66 Co56 2.021 . S
O66 C63 1.238 . S
O67 Co61 2.052 . S
O67 C63 1.241 1_655 S
O68 Co56 2.137 . S
O68 C59 1.247 . S
O69 Co56 2.244 . S
O69 C59 1.272 . S
O69 Co61 2.135 1_455 S
Co70 O71 2.216 . S
Co70 O72 2.091 . S
Co70 O74 2.004 . S
Co70 O80 2.021 . S
Co70 O82 2.137 . S
Co70 O83 2.244 . S
O71 Co70 2.216 . S
O71 C78 1.247 . S
O72 Co70 2.091 . S
O72 C78 1.261 . S
C73 O82 1.247 . S
C73 O83 1.272 . S
O74 Co70 2.004 . S
O74 C79 1.259 . S
Co75 O76 2.061 . S
Co75 O81 2.052 . S
Co75 O83 2.135 . S
O76 Co75 2.061 . S
O76 C79 1.235 . S
C77 O80 1.238 . S
C77 O81 1.241 . S
C78 O71 1.247 . S
C78 O72 1.261 . S
C79 O74 1.259 . S
C79 O76 1.235 . S
O80 Co70 2.021 . S
O80 C77 1.238 . S
O81 Co75 2.052 . S
O81 C77 1.241 . S
O82 Co70 2.137 . S
O82 C73 1.247 . S
O83 Co70 2.244 . S
O83 C73 1.272 . S
O83 Co75 2.135 . S
Co84 O85 2.216 . S
Co84 O86 2.091 . S
Co84 O88 2.004 . S
Co84 O94 2.021 . S
Co84 O96 2.137 1_556 S
Co84 O97 2.244 . S
O85 Co84 2.216 . S
O85 C92 1.247 . S
O86 Co84 2.091 . S
O86 C92 1.261 . S
C87 O96 1.247 . S
C87 O97 1.272 1_554 S
O88 Co84 2.004 . S
O88 C93 1.259 . S
Co89 O90 2.061 . S
Co89 O95 2.052 . S
Co89 O97 2.135 . S
O90 Co89 2.061 . S
O90 C93 1.235 . S
C91 O94 1.238 . S
C91 O95 1.241 . S
C92 O85 1.247 . S
C92 O86 1.261 . S
C93 O88 1.259 . S
C93 O90 1.235 . S
O94 Co84 2.021 . S
O94 C91 1.238 . S
O95 Co89 2.052 . S
O95 C91 1.241 . S
O96 Co84 2.137 1_554 S
O96 C87 1.247 . S
O97 Co84 2.244 . S
O97 C87 1.272 1_556 S
O97 Co89 2.135 . S
Co98 O99 2.216 . S
Co98 O100 2.091 . S
Co98 O102 2.004 . S
Co98 O108 2.021 . S
Co98 O110 2.137 . S
Co98 O111 2.244 . S
O99 Co98 2.216 . S
O99 C106 1.247 . S
O100 Co98 2.091 . S
O100 C106 1.261 . S
C101 O110 1.247 . S
C101 O111 1.272 . S
O102 Co98 2.004 . S
O102 C107 1.259 . S
Co103 O104 2.061 . S
Co103 O109 2.052 . S
Co103 O111 2.135 . S
O104 Co103 2.061 . S
O104 C107 1.235 . S
C105 O108 1.238 . S
C105 O109 1.241 . S
C106 O99 1.247 . S
C106 O100 1.261 . S
C107 O102 1.259 . S
C107 O104 1.235 . S
O108 Co98 2.021 . S
O108 C105 1.238 . S
O109 Co103 2.052 . S
O109 C105 1.241 . S
O110 Co98 2.137 . S
O110 C101 1.247 . S
O111 Co98 2.244 . S
O111 C101 1.272 . S
O111 Co103 2.135 . S
Co112 O113 2.216 . S
Co112 O114 2.091 . S
Co112 O116 2.004 . S
Co112 O122 2.021 . S
Co112 O124 2.137 1_556 S
Co112 O125 2.244 . S
O113 Co112 2.216 . S
O113 C120 1.247 . S
O114 Co112 2.091 . S
O114 C120 1.261 . S
C115 O124 1.247 . S
C115 O125 1.272 1_554 S
O116 Co112 2.004 . S
O116 C121 1.259 . S
Co117 O118 2.045 1_455 S
Co117 O123 2.052 . S
Co117 O125 2.135 1_455 S
O118 Co117 2.045 1_655 S
O118 C121 1.259 . S
C119 O122 1.238 . S
C119 O123 1.241 1_655 S
C120 O113 1.247 . S
C120 O114 1.261 . S
C121 O116 1.259 . S
C121 O118 1.259 . S
O122 Co112 2.021 . S
O122 C119 1.238 . S
O123 Co117 2.052 . S
O123 C119 1.241 1_455 S
O124 Co112 2.137 1_554 S
O124 C115 1.247 . S
O125 Co112 2.244 . S
O125 C115 1.272 1_556 S
O125 Co117 2.135 1_655 S
Co126 O127 2.216 . S
Co126 O128 2.091 . S
Co126 O130 2.004 . S
Co126 O136 2.021 . S
Co126 O138 2.137 . S
Co126 O139 2.244 . S
O127 Co126 2.216 . S
O127 C134 1.247 . S
O128 Co126 2.091 . S
O128 C134 1.261 . S
C129 O138 1.247 . S
C129 O139 1.272 . S
O130 Co126 2.004 . S
O130 C135 1.259 . S
Co131 O132 2.061 . S
Co131 O137 2.052 . S
Co131 O139 2.135 . S
O132 Co131 2.061 . S
O132 C135 1.235 . S
C133 O136 1.238 . S
C133 O137 1.241 . S
C134 O127 1.247 . S
C134 O128 1.261 . S
C135 O130 1.259 . S
C135 O132 1.235 . S
O136 Co126 2.021 . S
O136 C133 1.238 . S
O137 Co131 2.052 . S
O137 C133 1.241 . S
O138 Co126 2.137 . S
O138 C129 1.247 . S
O139 Co126 2.244 . S
O139 C129 1.272 . S
O139 Co131 2.135 . S
Co140 O141 2.216 . S
Co140 O142 2.091 . S
Co140 O144 2.004 . S
Co140 O150 2.021 . S
Co140 O152 2.137 . S
Co140 O153 2.244 . S
O141 Co140 2.216 . S
O141 C148 1.247 . S
O142 Co140 2.091 . S
O142 C148 1.261 . S
C143 O152 1.247 . S
C143 O153 1.272 . S
O144 Co140 2.004 . S
O144 C149 1.259 . S
Co145 O146 2.061 . S
Co145 O151 2.052 . S
Co145 O153 2.135 . S
O146 Co145 2.061 . S
O146 C149 1.235 . S
C147 O150 1.238 . S
C147 O151 1.241 . S
C148 O141 1.247 . S
C148 O142 1.261 . S
C149 O144 1.259 . S
C149 O146 1.235 . S
O150 Co140 2.021 . S
O150 C147 1.238 . S
O151 Co145 2.052 . S
O151 C147 1.241 . S
O152 Co140 2.137 . S
O152 C143 1.247 . S
O153 Co140 2.244 . S
O153 C143 1.272 . S
O153 Co145 2.135 . S
Co154 O155 2.216 . S
Co154 O156 2.091 . S
Co154 O158 2.004 . S
Co154 O164 2.021 . S
Co154 O166 2.137 . S
Co154 O167 2.244 . S
O155 Co154 2.216 . S
O155 C162 1.247 . S
O156 Co154 2.091 . S
O156 C162 1.261 . S
C157 O166 1.247 . S
C157 O167 1.272 . S
O158 Co154 2.004 . S
O158 C163 1.259 . S
Co159 O160 2.061 . S
Co159 O165 2.052 . S
Co159 O167 2.135 . S
O160 Co159 2.061 . S
O160 C163 1.235 . S
C161 O164 1.238 . S
C161 O165 1.241 . S
C162 O155 1.247 . S
C162 O156 1.261 . S
C163 O158 1.259 . S
C163 O160 1.235 . S
O164 Co154 2.021 . S
O164 C161 1.238 . S
O165 Co159 2.052 . S
O165 C161 1.241 . S
O166 Co154 2.137 . S
O166 C157 1.247 . S
O167 Co154 2.244 . S
O167 C157 1.272 . S
O167 Co159 2.135 . S
Co168 O169 2.216 . S
Co168 O170 2.091 . S
Co168 O172 2.004 . S
Co168 O178 2.021 . S
Co168 O180 2.137 . S
Co168 O181 2.244 . S
O169 Co168 2.216 . S
O169 C176 1.247 . S
O170 Co168 2.091 . S
O170 C176 1.261 . S
C171 O180 1.247 . S
C171 O181 1.272 . S
O172 Co168 2.004 . S
O172 C177 1.259 . S
Co173 O174 2.046 1_455 S
Co173 O179 2.052 . S
Co173 O181 2.135 1_455 S
O174 Co173 2.046 1_655 S
O174 C177 1.258 . S
C175 O178 1.238 . S
C175 O179 1.241 1_655 S
C176 O169 1.247 . S
C176 O170 1.261 . S
C177 O172 1.259 . S
C177 O174 1.258 . S
O178 Co168 2.021 . S
O178 C175 1.238 . S
O179 Co173 2.052 . S
O179 C175 1.241 1_455 S
O180 Co168 2.137 . S
O180 C171 1.247 . S
O181 Co168 2.244 . S
O181 C171 1.272 . S
O181 Co173 2.135 1_655 S
Co182 O183 2.216 . S
Co182 O184 2.091 . S
Co182 O186 2.004 . S
Co182 O192 2.021 . S
Co182 O194 2.137 . S
Co182 O195 2.244 . S
O183 Co182 2.216 . S
O183 C190 1.247 . S
O184 Co182 2.091 . S
O184 C190 1.261 . S
C185 O194 1.247 . S
C185 O195 1.272 . S
O186 Co182 2.004 . S
O186 C191 1.259 . S
Co187 O188 2.061 . S
Co187 O193 2.052 . S
Co187 O195 2.135 . S
O188 Co187 2.061 . S
O188 C191 1.235 . S
C189 O192 1.238 . S
C189 O193 1.241 . S
C190 O183 1.247 . S
C190 O184 1.261 . S
C191 O186 1.259 . S
C191 O188 1.235 . S
O192 Co182 2.021 . S
O192 C189 1.238 . S
O193 Co187 2.052 . S
O193 C189 1.241 . S
O194 Co182 2.137 . S
O194 C185 1.247 . S
O195 Co182 2.244 . S
O195 C185 1.272 . S
O195 Co187 2.135 . S
Co196 O197 2.216 . S
Co196 O198 2.091 . S
Co196 O200 2.004 . S
Co196 O206 2.021 . S
Co196 O208 2.137 1_554 S
Co196 O209 2.244 . S
O197 Co196 2.216 . S
O197 C204 1.247 . S
O198 Co196 2.091 . S
O198 C204 1.261 . S
C199 O208 1.247 . S
C199 O209 1.272 1_556 S
O200 Co196 2.004 . S
O200 C205 1.259 . S
Co201 O202 2.061 . S
Co201 O207 2.052 . S
Co201 O209 2.135 . S
O202 Co201 2.061 . S
O202 C205 1.235 . S
C203 O206 1.238 . S
C203 O207 1.241 . S
C204 O197 1.247 . S
C204 O198 1.261 . S
C205 O200 1.259 . S
C205 O202 1.235 . S
O206 Co196 2.021 . S
O206 C203 1.238 . S
O207 Co201 2.052 . S
O207 C203 1.241 . S
O208 Co196 2.137 1_556 S
O208 C199 1.247 . S
O209 Co196 2.244 . S
O209 C199 1.272 1_554 S
O209 Co201 2.135 . S
Co210 O211 2.216 . S
Co210 O212 2.091 . S
Co210 O214 2.004 . S
Co210 O220 2.021 . S
Co210 O222 2.137 . S
Co210 O223 2.244 . S
O211 Co210 2.216 . S
O211 C218 1.247 . S
O212 Co210 2.091 . S
O212 C218 1.261 . S
C213 O222 1.247 . S
C213 O223 1.272 . S
O214 Co210 2.004 . S
O214 C219 1.259 . S
Co215 O216 2.061 . S
Co215 O221 2.052 . S
Co215 O223 2.135 . S
O216 Co215 2.061 . S
O216 C219 1.235 . S
C217 O220 1.238 . S
C217 O221 1.241 . S
C218 O211 1.247 . S
C218 O212 1.261 . S
C219 O214 1.259 . S
C219 O216 1.235 . S
O220 Co210 2.021 . S
O220 C217 1.238 . S
O221 Co215 2.052 . S
O221 C217 1.241 . S
O222 Co210 2.137 . S
O222 C213 1.247 . S
O223 Co210 2.244 . S
O223 C213 1.272 . S
O223 Co215 2.135 . S
Co224 O225 2.216 . S
Co224 O226 2.091 . S
Co224 O228 2.004 . S
Co224 O234 2.021 . S
Co224 O236 2.137 . S
Co224 O237 2.244 . S
O225 Co224 2.216 . S
O225 C232 1.247 . S
O226 Co224 2.091 . S
O226 C232 1.261 . S
C227 O236 1.247 . S
C227 O237 1.272 . S
O228 Co224 2.004 . S
O228 C233 1.259 . S
Co229 O230 2.061 . S
Co229 O235 2.052 . S
Co229 O237 2.135 . S
O230 Co229 2.061 . S
O230 C233 1.235 . S
C231 O234 1.238 . S
C231 O235 1.241 . S
C232 O225 1.247 . S
C232 O226 1.261 . S
C233 O228 1.259 . S
C233 O230 1.235 . S
O234 Co224 2.021 . S
O234 C231 1.238 . S
O235 Co229 2.052 . S
O235 C231 1.241 . S
O236 Co224 2.137 . S
O236 C227 1.247 . S
O237 Co224 2.244 . S
O237 C227 1.272 . S
O237 Co229 2.135 . S
Co238 O239 2.216 . S
Co238 O240 2.091 . S
Co238 O242 2.004 . S
Co238 O248 2.021 . S
Co238 O250 2.137 . S
Co238 O251 2.244 . S
O239 Co238 2.216 . S
O239 C246 1.247 . S
O240 Co238 2.091 . S
O240 C246 1.261 . S
C241 O250 1.247 . S
C241 O251 1.272 . S
O242 Co238 2.004 . S
O242 C247 1.259 . S
Co243 O244 2.061 . S
Co243 O249 2.052 . S
Co243 O251 2.135 . S
O244 Co243 2.061 . S
O244 C247 1.235 . S
C245 O248 1.238 . S
C245 O249 1.241 . S
C246 O239 1.247 . S
C246 O240 1.261 . S
C247 O242 1.259 . S
C247 O244 1.235 . S
O248 Co238 2.021 . S
O248 C245 1.238 . S
O249 Co243 2.052 . S
O249 C245 1.241 . S
O250 Co238 2.137 . S
O250 C241 1.247 . S
O251 Co238 2.244 . S
O251 C241 1.272 . S
O251 Co243 2.135 . S
Co252 O253 2.216 . S
Co252 O254 2.091 . S
Co252 O256 2.004 . S
Co252 O262 2.021 . S
Co252 O264 2.137 1_554 S
Co252 O265 2.244 . S
O253 Co252 2.216 . S
O253 C260 1.247 . S
O254 Co252 2.091 . S
O254 C260 1.261 . S
C255 O264 1.247 . S
C255 O265 1.272 1_556 S
O256 Co252 2.004 . S
O256 C261 1.259 . S
Co257 O258 2.045 1_455 S
Co257 O263 2.052 . S
Co257 O265 2.135 1_455 S
O258 Co257 2.045 1_655 S
O258 C261 1.259 . S
C259 O262 1.238 . S
C259 O263 1.241 1_655 S
C260 O253 1.247 . S
C260 O254 1.261 . S
C261 O256 1.259 . S
C261 O258 1.259 . S
O262 Co252 2.021 . S
O262 C259 1.238 . S
O263 Co257 2.052 . S
O263 C259 1.241 1_455 S
O264 Co252 2.137 1_556 S
O264 C255 1.247 . S
O265 Co252 2.244 . S
O265 C255 1.272 1_554 S
O265 Co257 2.135 1_655 S
Co266 O267 2.216 . S
Co266 O268 2.091 . S
Co266 O270 2.004 . S
Co266 O276 2.021 . S
Co266 O278 2.137 . S
Co266 O279 2.244 . S
O267 Co266 2.216 . S
O267 C274 1.247 . S
O268 Co266 2.091 . S
O268 C274 1.261 . S
C269 O278 1.247 . S
C269 O279 1.272 . S
O270 Co266 2.004 . S
O270 C275 1.259 . S
Co271 O272 2.061 . S
Co271 O277 2.052 . S
Co271 O279 2.135 . S
O272 Co271 2.061 . S
O272 C275 1.235 . S
C273 O276 1.238 . S
C273 O277 1.241 . S
C274 O267 1.247 . S
C274 O268 1.261 . S
C275 O270 1.259 . S
C275 O272 1.235 . S
O276 Co266 2.021 . S
O276 C273 1.238 . S
O277 Co271 2.052 . S
O277 C273 1.241 . S
O278 Co266 2.137 . S
O278 C269 1.247 . S
O279 Co266 2.244 . S
O279 C269 1.272 . S
O279 Co271 2.135 . S
Co280 O281 2.216 . S
Co280 O282 2.091 . S
Co280 O284 2.004 . S
Co280 O290 2.021 . S
Co280 O292 2.137 1_556 S
Co280 O293 2.244 . S
O281 Co280 2.216 . S
O281 C288 1.247 . S
O282 Co280 2.091 . S
O282 C288 1.261 . S
C283 O292 1.247 . S
C283 O293 1.272 1_554 S
O284 Co280 2.004 . S
O284 C289 1.259 . S
Co285 O286 2.061 . S
Co285 O291 2.052 . S
Co285 O293 2.135 . S
O286 Co285 2.061 . S
O286 C289 1.235 . S
C287 O290 1.238 . S
C287 O291 1.241 . S
C288 O281 1.247 . S
C288 O282 1.261 . S
C289 O284 1.259 . S
C289 O286 1.235 . S
O290 Co280 2.021 . S
O290 C287 1.238 . S
O291 Co285 2.052 . S
O291 C287 1.241 . S
O292 Co280 2.137 1_554 S
O292 C283 1.247 . S
O293 Co280 2.244 . S
O293 C283 1.272 1_556 S
O293 Co285 2.135 . S
Co294 O295 2.216 . S
Co294 O296 2.091 . S
Co294 O298 2.004 . S
Co294 O304 2.021 . S
Co294 O306 2.137 . S
Co294 O307 2.244 . S
O295 Co294 2.216 . S
O295 C302 1.247 . S
O296 Co294 2.091 . S
O296 C302 1.261 . S
C297 O306 1.247 . S
C297 O307 1.272 . S
O298 Co294 2.004 . S
O298 C303 1.259 . S
Co299 O300 2.061 . S
Co299 O305 2.052 . S
Co299 O307 2.135 . S
O300 Co299 2.061 . S
O300 C303 1.235 . S
C301 O304 1.238 . S
C301 O305 1.241 . S
C302 O295 1.247 . S
C302 O296 1.261 . S
C303 O298 1.259 . S
C303 O300 1.235 . S
O304 Co294 2.021 . S
O304 C301 1.238 . S
O305 Co299 2.052 . S
O305 C301 1.241 . S
O306 Co294 2.137 . S
O306 C297 1.247 . S
O307 Co294 2.244 . S
O307 C297 1.272 . S
O307 Co299 2.135 . S
Co308 O309 2.216 . S
Co308 O310 2.091 . S
Co308 O312 2.004 . S
Co308 O318 2.021 . S
Co308 O320 2.137 . S
Co308 O321 2.244 . S
O309 Co308 2.216 . S
O309 C316 1.247 . S
O310 Co308 2.091 . S
O310 C316 1.261 . S
C311 O320 1.247 . S
C311 O321 1.272 . S
O312 Co308 2.004 . S
O312 C317 1.259 . S
Co313 O314 2.046 1_455 S
Co313 O319 2.052 . S
Co313 O321 2.135 1_455 S
O314 Co313 2.046 1_655 S
O314 C317 1.258 . S
C315 O318 1.238 . S
C315 O319 1.241 1_655 S
C316 O309 1.247 . S
C316 O310 1.261 . S
C317 O312 1.259 . S
C317 O314 1.258 . S
O318 Co308 2.021 . S
O318 C315 1.238 . S
O319 Co313 2.052 . S
O319 C315 1.241 1_455 S
O320 Co308 2.137 . S
O320 C311 1.247 . S
O321 Co308 2.244 . S
O321 C311 1.272 . S
O321 Co313 2.135 1_655 S
Co322 O323 2.216 . S
Co322 O324 2.091 . S
Co322 O326 2.004 . S
Co322 O332 2.021 . S
Co322 O334 2.137 . S
Co322 O335 2.244 . S
O323 Co322 2.216 . S
O323 C330 1.247 . S
O324 Co322 2.091 . S
O324 C330 1.261 . S
C325 O334 1.247 . S
C325 O335 1.272 . S
O326 Co322 2.004 . S
O326 C331 1.259 . S
Co327 O328 2.061 . S
Co327 O333 2.052 . S
Co327 O335 2.135 . S
O328 Co327 2.061 . S
O328 C331 1.235 . S
C329 O332 1.238 . S
C329 O333 1.241 . S
C330 O323 1.247 . S
C330 O324 1.261 . S
C331 O326 1.259 . S
C331 O328 1.235 . S
O332 Co322 2.021 . S
O332 C329 1.238 . S
O333 Co327 2.052 . S
O333 C329 1.241 . S
O334 Co322 2.137 . S
O334 C325 1.247 . S
O335 Co322 2.244 . S
O335 C325 1.272 . S
O335 Co327 2.135 . S
Co336 O337 2.216 . S
Co336 O338 2.091 . S
Co336 O340 2.004 . S
Co336 O346 2.021 . S
Co336 O348 2.137 . S
Co336 O349 2.244 . S
O337 Co336 2.216 . S
O337 C344 1.247 . S
O338 Co336 2.091 . S
O338 C344 1.261 . S
C339 O348 1.247 . S
C339 O349 1.272 . S
O340 Co336 2.004 . S
O340 C345 1.259 . S
Co341 O342 2.061 . S
Co341 O347 2.052 . S
Co341 O349 2.135 . S
O342 Co341 2.061 . S
O342 C345 1.235 . S
C343 O346 1.238 . S
C343 O347 1.241 . S
C344 O337 1.247 . S
C344 O338 1.261 . S
C345 O340 1.259 . S
C345 O342 1.235 . S
O346 Co336 2.021 . S
O346 C343 1.238 . S
O347 Co341 2.052 . S
O347 C343 1.241 . S
O348 Co336 2.137 . S
O348 C339 1.247 . S
O349 Co336 2.244 . S
O349 C339 1.272 . S
O349 Co341 2.135 . S
Co350 O351 2.216 . S
Co350 O352 2.091 . S
Co350 O354 2.004 . S
Co350 O360 2.021 . S
Co350 O362 2.137 . S
Co350 O363 2.244 . S
O351 Co350 2.216 . S
O351 C358 1.247 . S
O352 Co350 2.091 . S
O352 C358 1.261 . S
C353 O362 1.247 . S
C353 O363 1.272 . S
O354 Co350 2.004 . S
O354 C359 1.259 . S
Co355 O356 2.061 . S
Co355 O361 2.052 . S
Co355 O363 2.135 . S
O356 Co355 2.061 . S
O356 C359 1.235 . S
C357 O360 1.238 . S
C357 O361 1.241 . S
C358 O351 1.247 . S
C358 O352 1.261 . S
C359 O354 1.259 . S
C359 O356 1.235 . S
O360 Co350 2.021 . S
O360 C357 1.238 . S
O361 Co355 2.052 . S
O361 C357 1.241 . S
O362 Co350 2.137 . S
O362 C353 1.247 . S
O363 Co350 2.244 . S
O363 C353 1.272 . S
O363 Co355 2.135 . S
Co364 O365 2.216 . S
Co364 O366 2.091 . S
Co364 O368 2.004 . S
Co364 O374 2.021 . S
Co364 O376 2.137 1_556 S
Co364 O377 2.244 . S
O365 Co364 2.216 . S
O365 C372 1.247 . S
O366 Co364 2.091 . S
O366 C372 1.261 . S
C367 O376 1.247 . S
C367 O377 1.272 1_554 S
O368 Co364 2.004 . S
O368 C373 1.259 . S
Co369 O370 2.045 1_655 S
Co369 O375 2.052 . S
Co369 O377 2.135 1_655 S
O370 Co369 2.045 1_455 S
O370 C373 1.259 . S
C371 O374 1.238 . S
C371 O375 1.241 1_455 S
C372 O365 1.247 . S
C372 O366 1.261 . S
C373 O368 1.259 . S
C373 O370 1.259 . S
O374 Co364 2.021 . S
O374 C371 1.238 . S
O375 Co369 2.052 . S
O375 C371 1.241 1_655 S
O376 Co364 2.137 1_554 S
O376 C367 1.247 . S
O377 Co364 2.244 . S
O377 C367 1.272 1_556 S
O377 Co369 2.135 1_455 S
Co378 O379 2.216 . S
Co378 O380 2.091 . S
Co378 O382 2.004 . S
Co378 O388 2.021 . S
Co378 O390 2.137 . S
Co378 O391 2.244 . S
O379 Co378 2.216 . S
O379 C386 1.247 . S
O380 Co378 2.091 . S
O380 C386 1.261 . S
C381 O390 1.247 . S
C381 O391 1.272 . S
O382 Co378 2.004 . S
O382 C387 1.259 . S
Co383 O384 2.061 . S
Co383 O389 2.052 . S
Co383 O391 2.135 . S
O384 Co383 2.061 . S
O384 C387 1.235 . S
C385 O388 1.238 . S
C385 O389 1.241 . S
C386 O379 1.247 . S
C386 O380 1.261 . S
C387 O382 1.259 . S
C387 O384 1.235 . S
O388 Co378 2.021 . S
O388 C385 1.238 . S
O389 Co383 2.052 . S
O389 C385 1.241 . S
O390 Co378 2.137 . S
O390 C381 1.247 . S
O391 Co378 2.244 . S
O391 C381 1.272 . S
O391 Co383 2.135 . S
Co392 O393 2.216 . S
Co392 O394 2.091 . S
Co392 O396 2.004 . S
Co392 O402 2.021 . S
Co392 O404 2.137 1_554 S
Co392 O405 2.244 . S
O393 Co392 2.216 . S
O393 C400 1.247 . S
O394 Co392 2.091 . S
O394 C400 1.261 . S
C395 O404 1.247 . S
C395 O405 1.272 1_556 S
O396 Co392 2.004 . S
O396 C401 1.259 . S
Co397 O398 2.061 . S
Co397 O403 2.052 . S
Co397 O405 2.135 . S
O398 Co397 2.061 . S
O398 C401 1.235 . S
C399 O402 1.238 . S
C399 O403 1.241 . S
C400 O393 1.247 . S
C400 O394 1.261 . S
C401 O396 1.259 . S
C401 O398 1.235 . S
O402 Co392 2.021 . S
O402 C399 1.238 . S
O403 Co397 2.052 . S
O403 C399 1.241 . S
O404 Co392 2.137 1_556 S
O404 C395 1.247 . S
O405 Co392 2.244 . S
O405 C395 1.272 1_554 S
O405 Co397 2.135 . S
Co406 O407 2.216 . S
Co406 O408 2.091 . S
Co406 O410 2.004 . S
Co406 O416 2.021 . S
Co406 O418 2.137 . S
Co406 O419 2.244 . S
O407 Co406 2.216 . S
O407 C414 1.247 . S
O408 Co406 2.091 . S
O408 C414 1.261 . S
C409 O418 1.247 . S
C409 O419 1.272 . S
O410 Co406 2.004 . S
O410 C415 1.259 . S
Co411 O412 2.061 . S
Co411 O417 2.052 . S
Co411 O419 2.135 . S
O412 Co411 2.061 . S
O412 C415 1.235 . S
C413 O416 1.238 . S
C413 O417 1.241 . S
C414 O407 1.247 . S
C414 O408 1.261 . S
C415 O410 1.259 . S
C415 O412 1.235 . S
O416 Co406 2.021 . S
O416 C413 1.238 . S
O417 Co411 2.052 . S
O417 C413 1.241 . S
O418 Co406 2.137 . S
O418 C409 1.247 . S
O419 Co406 2.244 . S
O419 C409 1.272 . S
O419 Co411 2.135 . S
Co420 O421 2.216 . S
Co420 O422 2.091 . S
Co420 O424 2.004 . S
Co420 O430 2.021 . S
Co420 O432 2.137 . S
Co420 O433 2.244 . S
O421 Co420 2.216 . S
O421 C428 1.247 . S
O422 Co420 2.091 . S
O422 C428 1.261 . S
C423 O432 1.247 . S
C423 O433 1.272 . S
O424 Co420 2.004 . S
O424 C429 1.259 . S
Co425 O426 2.046 1_655 S
Co425 O431 2.052 . S
Co425 O433 2.135 1_655 S
O426 Co425 2.046 1_455 S
O426 C429 1.258 . S
C427 O430 1.238 . S
C427 O431 1.241 1_455 S
C428 O421 1.247 . S
C428 O422 1.261 . S
C429 O424 1.259 . S
C429 O426 1.258 . S
O430 Co420 2.021 . S
O430 C427 1.238 . S
O431 Co425 2.052 . S
O431 C427 1.241 1_655 S
O432 Co420 2.137 . S
O432 C423 1.247 . S
O433 Co420 2.244 . S
O433 C423 1.272 . S
O433 Co425 2.135 1_455 S
Co434 O435 2.216 . S
Co434 O436 2.091 . S
Co434 O438 2.004 . S
Co434 O444 2.021 . S
Co434 O446 2.137 . S
Co434 O447 2.244 . S
O435 Co434 2.216 . S
O435 C442 1.247 . S
O436 Co434 2.091 . S
O436 C442 1.261 . S
C437 O446 1.247 . S
C437 O447 1.272 . S
O438 Co434 2.004 . S
O438 C443 1.259 . S
Co439 O440 2.061 . S
Co439 O445 2.052 . S
Co439 O447 2.135 . S
O440 Co439 2.061 . S
O440 C443 1.235 . S
C441 O444 1.238 . S
C441 O445 1.241 . S
C442 O435 1.247 . S
C442 O436 1.261 . S
C443 O438 1.259 . S
C443 O440 1.235 . S
O444 Co434 2.021 . S
O444 C441 1.238 . S
O445 Co439 2.052 . S
O445 C441 1.241 . S
O446 Co434 2.137 . S
O446 C437 1.247 . S
O447 Co434 2.244 . S
O447 C437 1.272 . S
O447 Co439 2.135 . S
H448 C456 0.950 . S
H449 C461 0.950 . S
H450 C458 0.950 . S
H451 C460 0.950 . S
H452 C462 0.950 . S
H453 C464 0.950 . S
H454 C466 0.950 . S
H455 C467 0.950 . S
C456 H448 0.950 . S
C456 C457 1.386 . S
C456 C458 1.391 . S
C457 C456 1.386 . S
C457 C461 1.393 1_655 S
C458 H450 0.950 . S
C458 C456 1.391 . S
C458 C459 1.355 1_655 S
C459 C458 1.355 1_455 S
C459 C460 1.440 . S
C459 C465 1.495 . S
C460 H451 0.950 . S
C460 C459 1.440 . S
C460 C461 1.391 . S
C461 H449 0.950 . S
C461 C457 1.393 1_455 S
C461 C460 1.391 . S
C462 H452 0.950 . S
C462 C463 1.386 . S
C462 C464 1.391 . S
C463 C462 1.386 . S
C463 C467 1.393 1_455 S
C464 H453 0.950 . S
C464 C462 1.391 . S
C464 C465 1.400 . S
C465 C459 1.495 . S
C465 C464 1.400 . S
C465 C466 1.398 1_455 S
C466 H454 0.950 . S
C466 C465 1.398 1_655 S
C466 C467 1.391 . S
C467 H455 0.950 . S
C467 C463 1.393 1_655 S
C467 C466 1.391 . S
H468 C476 0.950 . S
H469 C481 0.950 . S
H470 C478 0.950 . S
H471 C480 0.950 . S
H472 C482 0.950 . S
H473 C484 0.950 . S
H474 C486 0.950 . S
H475 C487 0.950 . S
C476 H468 0.950 . S
C476 C477 1.386 . S
C476 C478 1.391 1_556 S
C477 C476 1.386 . S
C477 C481 1.393 . S
C478 H470 0.950 . S
C478 C476 1.391 1_554 S
C478 C479 1.400 . S
C479 C478 1.400 . S
C479 C480 1.398 . S
C479 C485 1.491 . S
C480 H471 0.950 . S
C480 C479 1.398 . S
C480 C481 1.391 1_554 S
C481 H469 0.950 . S
C481 C477 1.393 . S
C481 C480 1.391 1_556 S
C482 H472 0.950 . S
C482 C483 1.386 . S
C482 C484 1.391 . S
C483 C482 1.386 . S
C483 C487 1.393 . S
C484 H473 0.950 . S
C484 C482 1.391 . S
C484 C485 1.400 . S
C485 C479 1.491 . S
C485 C484 1.400 . S
C485 C486 1.398 . S
C486 H474 0.950 . S
C486 C485 1.398 . S
C486 C487 1.391 . S
C487 H475 0.950 . S
C487 C483 1.393 . S
C487 C486 1.391 . S
H488 C496 0.950 . S
H489 C501 0.950 . S
H490 C498 0.950 . S
H491 C500 0.950 . S
H492 C502 0.950 . S
H493 C504 0.950 . S
H494 C506 0.950 . S
H495 C507 0.950 . S
C496 H488 0.950 . S
C496 C497 1.386 . S
C496 C498 1.391 . S
C497 C496 1.386 . S
C497 C501 1.393 . S
C498 H490 0.950 . S
C498 C496 1.391 . S
C498 C499 1.400 . S
C499 C498 1.400 . S
C499 C500 1.398 . S
C499 C505 1.491 . S
C500 H491 0.950 . S
C500 C499 1.398 . S
C500 C501 1.391 . S
C501 H489 0.950 . S
C501 C497 1.393 . S
C501 C500 1.391 . S
C502 H492 0.950 . S
C502 C503 1.386 . S
C502 C504 1.391 . S
C503 C502 1.386 . S
C503 C507 1.393 . S
C504 H493 0.950 . S
C504 C502 1.391 . S
C504 C505 1.400 . S
C505 C499 1.491 . S
C505 C504 1.400 . S
C505 C506 1.398 . S
C506 H494 0.950 . S
C506 C505 1.398 . S
C506 C507 1.391 . S
C507 H495 0.950 . S
C507 C503 1.393 . S
C507 C506 1.391 . S
H508 C516 0.950 . S
H509 C521 0.950 . S
H510 C518 0.950 . S
H511 C520 0.950 . S
H512 C522 0.950 . S
H513 C524 0.950 . S
H514 C526 0.950 . S
H515 C527 0.950 . S
C516 H508 0.950 . S
C516 C517 1.386 . S
C516 C518 1.391 . S
C517 C516 1.386 . S
C517 C521 1.393 . S
C518 H510 0.950 . S
C518 C516 1.391 . S
C518 C519 1.400 . S
C519 C518 1.400 . S
C519 C520 1.398 . S
C519 C525 1.491 . S
C520 H511 0.950 . S
C520 C519 1.398 . S
C520 C521 1.391 . S
C521 H509 0.950 . S
C521 C517 1.393 . S
C521 C520 1.391 . S
C522 H512 0.950 . S
C522 C523 1.386 . S
C522 C524 1.391 . S
C523 C522 1.386 . S
C523 C527 1.393 . S
C524 H513 0.950 . S
C524 C522 1.391 . S
C524 C525 1.400 . S
C525 C519 1.491 . S
C525 C524 1.400 . S
C525 C526 1.398 . S
C526 H514 0.950 . S
C526 C525 1.398 . S
C526 C527 1.391 . S
C527 H515 0.950 . S
C527 C523 1.393 . S
C527 C526 1.391 . S
H528 C536 0.950 . S
H529 C541 0.950 . S
H530 C538 0.950 . S
H531 C540 0.950 . S
H532 C542 0.950 . S
H533 C544 0.950 . S
H534 C546 0.950 . S
H535 C547 0.950 . S
C536 H528 0.950 . S
C536 C537 1.386 1_455 S
C536 C538 1.391 . S
C537 C536 1.386 1_655 S
C537 C541 1.393 . S
C538 H530 0.950 . S
C538 C536 1.391 . S
C538 C539 1.420 . S
C539 C538 1.420 . S
C539 C540 1.378 1_455 S
C539 C545 1.496 . S
C540 H531 0.950 . S
C540 C539 1.378 1_655 S
C540 C541 1.391 . S
C541 H529 0.950 . S
C541 C537 1.393 . S
C541 C540 1.391 . S
C542 H532 0.950 . S
C542 C543 1.386 1_655 S
C542 C544 1.391 . S
C543 C542 1.386 1_455 S
C543 C547 1.393 . S
C544 H533 0.950 . S
C544 C542 1.391 . S
C544 C545 1.400 1_655 S
C545 C539 1.496 . S
C545 C544 1.400 1_455 S
C545 C546 1.398 . S
C546 H534 0.950 . S
C546 C545 1.398 . S
C546 C547 1.391 . S
C547 H535 0.950 . S
C547 C543 1.393 . S
C547 C546 1.391 . S
H548 C556 0.950 . S
H549 C561 0.950 . S
H550 C558 0.950 . S
H551 C560 0.950 . S
H552 C562 0.950 . S
H553 C564 0.950 . S
H554 C566 0.950 . S
H555 C567 0.950 . S
C556 H548 0.950 . S
C556 C557 1.386 . S
C556 C558 1.391 . S
C557 C556 1.386 . S
C557 C561 1.393 . S
C558 H550 0.950 . S
C558 C556 1.391 . S
C558 C559 1.400 . S
C559 C558 1.400 . S
C559 C560 1.398 . S
C559 C565 1.491 . S
C560 H551 0.950 . S
C560 C559 1.398 . S
C560 C561 1.391 . S
C561 H549 0.950 . S
C561 C557 1.393 . S
C561 C560 1.391 . S
C562 H552 0.950 . S
C562 C563 1.386 . S
C562 C564 1.391 1_554 S
C563 C562 1.386 . S
C563 C567 1.393 . S
C564 H553 0.950 . S
C564 C562 1.391 1_556 S
C564 C565 1.400 . S
C565 C559 1.491 . S
C565 C564 1.400 . S
C565 C566 1.398 . S
C566 H554 0.950 . S
C566 C565 1.398 . S
C566 C567 1.391 1_556 S
C567 H555 0.950 . S
C567 C563 1.393 . S
C567 C566 1.391 1_554 S
H568 C576 0.950 . S
H569 C581 0.950 . S
H570 C578 0.950 . S
H571 C580 0.950 . S
H572 C582 0.950 . S
H573 C584 0.950 . S
H574 C586 0.950 . S
H575 C587 0.950 . S
C576 H568 0.950 . S
C576 C577 1.386 . S
C576 C578 1.391 . S
C577 C576 1.386 . S
C577 C581 1.393 . S
C578 H570 0.950 . S
C578 C576 1.391 . S
C578 C579 1.400 . S
C579 C578 1.400 . S
C579 C580 1.398 . S
C579 C585 1.491 . S
C580 H571 0.950 . S
C580 C579 1.398 . S
C580 C581 1.391 . S
C581 H569 0.950 . S
C581 C577 1.393 . S
C581 C580 1.391 . S
C582 H572 0.950 . S
C582 C583 1.386 . S
C582 C584 1.391 . S
C583 C582 1.386 . S
C583 C587 1.393 . S
C584 H573 0.950 . S
C584 C582 1.391 . S
C584 C585 1.400 . S
C585 C579 1.491 . S
C585 C584 1.400 . S
C585 C586 1.398 . S
C586 H574 0.950 . S
C586 C585 1.398 . S
C586 C587 1.391 . S
C587 H575 0.950 . S
C587 C583 1.393 . S
C587 C586 1.391 . S
H588 C596 0.950 . S
H589 C601 0.950 . S
H590 C598 0.950 . S
H591 C600 0.950 . S
H592 C602 0.950 . S
H593 C604 0.950 . S
H594 C606 0.950 . S
H595 C607 0.950 . S
C596 H588 0.950 . S
C596 C597 1.386 . S
C596 C598 1.391 . S
C597 C596 1.386 . S
C597 C601 1.393 . S
C598 H590 0.950 . S
C598 C596 1.391 . S
C598 C599 1.400 . S
C599 C598 1.400 . S
C599 C600 1.398 . S
C599 C605 1.491 . S
C600 H591 0.950 . S
C600 C599 1.398 . S
C600 C601 1.391 . S
C601 H589 0.950 . S
C601 C597 1.393 . S
C601 C600 1.391 . S
C602 H592 0.950 . S
C602 C603 1.386 . S
C602 C604 1.391 . S
C603 C602 1.386 . S
C603 C607 1.393 . S
C604 H593 0.950 . S
C604 C602 1.391 . S
C604 C605 1.400 . S
C605 C599 1.491 . S
C605 C604 1.400 . S
C605 C606 1.398 . S
C606 H594 0.950 . S
C606 C605 1.398 . S
C606 C607 1.391 . S
C607 H595 0.950 . S
C607 C603 1.393 . S
C607 C606 1.391 . S
H608 C616 0.950 . S
H609 C621 0.950 . S
H610 C618 0.950 . S
H611 C620 0.950 . S
H612 C622 0.950 . S
H613 C624 0.950 . S
H614 C626 0.950 . S
H615 C627 0.950 . S
C616 H608 0.950 . S
C616 C617 1.386 . S
C616 C618 1.391 . S
C617 C616 1.386 . S
C617 C621 1.393 1_455 S
C618 H610 0.950 . S
C618 C616 1.391 . S
C618 C619 1.368 1_455 S
C619 C618 1.368 1_655 S
C619 C620 1.427 . S
C619 C625 1.495 . S
C620 H611 0.950 . S
C620 C619 1.427 . S
C620 C621 1.391 . S
C621 H609 0.950 . S
C621 C617 1.393 1_655 S
C621 C620 1.391 . S
C622 H612 0.950 . S
C622 C623 1.386 . S
C622 C624 1.391 . S
C623 C622 1.386 . S
C623 C627 1.393 1_655 S
C624 H613 0.950 . S
C624 C622 1.391 . S
C624 C625 1.400 . S
C625 C619 1.495 . S
C625 C624 1.400 . S
C625 C626 1.398 1_655 S
C626 H614 0.950 . S
C626 C625 1.398 1_455 S
C626 C627 1.391 . S
C627 H615 0.950 . S
C627 C623 1.393 1_455 S
C627 C626 1.391 . S
H628 C636 0.950 . S
H629 C641 0.950 . S
H630 C638 0.950 . S
H631 C640 0.950 . S
H632 C642 0.950 . S
H633 C644 0.950 . S
H634 C646 0.950 . S
H635 C647 0.950 . S
C636 H628 0.950 . S
C636 C637 1.386 . S
C636 C638 1.391 1_554 S
C637 C636 1.386 . S
C637 C641 1.393 . S
C638 H630 0.950 . S
C638 C636 1.391 1_556 S
C638 C639 1.400 . S
C639 C638 1.400 . S
C639 C640 1.398 . S
C639 C645 1.491 . S
C640 H631 0.950 . S
C640 C639 1.398 . S
C640 C641 1.391 1_556 S
C641 H629 0.950 . S
C641 C637 1.393 . S
C641 C640 1.391 1_554 S
C642 H632 0.950 . S
C642 C643 1.386 . S
C642 C644 1.391 . S
C643 C642 1.386 . S
C643 C647 1.393 . S
C644 H633 0.950 . S
C644 C642 1.391 . S
C644 C645 1.400 . S
C645 C639 1.491 . S
C645 C644 1.400 . S
C645 C646 1.398 . S
C646 H634 0.950 . S
C646 C645 1.398 . S
C646 C647 1.391 . S
C647 H635 0.950 . S
C647 C643 1.393 . S
C647 C646 1.391 . S
H648 C656 0.950 . S
H649 C661 0.950 . S
H650 C658 0.950 . S
H651 C660 0.950 . S
H652 C662 0.950 . S
H653 C664 0.950 . S
H654 C666 0.950 . S
H655 C667 0.950 . S
C656 H648 0.950 . S
C656 C657 1.386 . S
C656 C658 1.391 . S
C657 C656 1.386 . S
C657 C661 1.393 . S
C658 H650 0.950 . S
C658 C656 1.391 . S
C658 C659 1.400 . S
C659 C658 1.400 . S
C659 C660 1.398 . S
C659 C665 1.491 . S
C660 H651 0.950 . S
C660 C659 1.398 . S
C660 C661 1.391 . S
C661 H649 0.950 . S
C661 C657 1.393 . S
C661 C660 1.391 . S
C662 H652 0.950 . S
C662 C663 1.386 . S
C662 C664 1.391 . S
C663 C662 1.386 . S
C663 C667 1.393 . S
C664 H653 0.950 . S
C664 C662 1.391 . S
C664 C665 1.400 . S
C665 C659 1.491 . S
C665 C664 1.400 . S
C665 C666 1.398 . S
C666 H654 0.950 . S
C666 C665 1.398 . S
C666 C667 1.391 . S
C667 H655 0.950 . S
C667 C663 1.393 . S
C667 C666 1.391 . S
H668 C676 0.950 . S
H669 C681 0.950 . S
H670 C678 0.950 . S
H671 C680 0.950 . S
H672 C682 0.950 . S
H673 C684 0.950 . S
H674 C686 0.950 . S
H675 C687 0.950 . S
C676 H668 0.950 . S
C676 C677 1.386 . S
C676 C678 1.391 . S
C677 C676 1.386 . S
C677 C681 1.393 . S
C678 H670 0.950 . S
C678 C676 1.391 . S
C678 C679 1.400 . S
C679 C678 1.400 . S
C679 C680 1.398 . S
C679 C685 1.491 . S
C680 H671 0.950 . S
C680 C679 1.398 . S
C680 C681 1.391 . S
C681 H669 0.950 . S
C681 C677 1.393 . S
C681 C680 1.391 . S
C682 H672 0.950 . S
C682 C683 1.386 . S
C682 C684 1.391 . S
C683 C682 1.386 . S
C683 C687 1.393 . S
C684 H673 0.950 . S
C684 C682 1.391 . S
C684 C685 1.400 . S
C685 C679 1.491 . S
C685 C684 1.400 . S
C685 C686 1.398 . S
C686 H674 0.950 . S
C686 C685 1.398 . S
C686 C687 1.391 . S
C687 H675 0.950 . S
C687 C683 1.393 . S
C687 C686 1.391 . S
H688 C696 0.950 . S
H689 C701 0.950 . S
H690 C698 0.950 . S
H691 C700 0.950 . S
H692 C702 0.950 . S
H693 C704 0.950 . S
H694 C706 0.950 . S
H695 C707 0.950 . S
C696 H688 0.950 . S
C696 C697 1.386 . S
C696 C698 1.391 . S
C697 C696 1.386 . S
C697 C701 1.393 1_655 S
C698 H690 0.950 . S
C698 C696 1.391 . S
C698 C699 1.400 . S
C699 C698 1.400 . S
C699 C700 1.398 1_655 S
C699 C705 1.496 . S
C700 H691 0.950 . S
C700 C699 1.398 1_455 S
C700 C701 1.391 . S
C701 H689 0.950 . S
C701 C697 1.393 1_455 S
C701 C700 1.391 . S
C702 H692 0.950 . S
C702 C703 1.386 . S
C702 C704 1.391 . S
C703 C702 1.386 . S
C703 C707 1.393 1_455 S
C704 H693 0.950 . S
C704 C702 1.391 . S
C704 C705 1.367 1_455 S
C705 C699 1.496 . S
C705 C704 1.367 1_655 S
C705 C706 1.430 . S
C706 H694 0.950 . S
C706 C705 1.430 . S
C706 C707 1.391 . S
C707 H695 0.950 . S
C707 C703 1.393 1_655 S
C707 C706 1.391 . S
H708 C716 0.950 . S
H709 C721 0.950 . S
H710 C718 0.950 . S
H711 C720 0.950 . S
H712 C722 0.950 . S
H713 C724 0.950 . S
H714 C726 0.950 . S
H715 C727 0.950 . S
C716 H708 0.950 . S
C716 C717 1.386 . S
C716 C718 1.391 . S
C717 C716 1.386 . S
C717 C721 1.393 . S
C718 H710 0.950 . S
C718 C716 1.391 . S
C718 C719 1.400 . S
C719 C718 1.400 . S
C719 C720 1.398 . S
C719 C725 1.491 . S
C720 H711 0.950 . S
C720 C719 1.398 . S
C720 C721 1.391 . S
C721 H709 0.950 . S
C721 C717 1.393 . S
C721 C720 1.391 . S
C722 H712 0.950 . S
C722 C723 1.386 . S
C722 C724 1.391 1_556 S
C723 C722 1.386 . S
C723 C727 1.393 . S
C724 H713 0.950 . S
C724 C722 1.391 1_554 S
C724 C725 1.400 . S
C725 C719 1.491 . S
C725 C724 1.400 . S
C725 C726 1.398 . S
C726 H714 0.950 . S
C726 C725 1.398 . S
C726 C727 1.391 1_554 S
C727 H715 0.950 . S
C727 C723 1.393 . S
C727 C726 1.391 1_556 S
H728 C736 0.950 . S
H729 C741 0.950 . S
H730 C738 0.950 . S
H731 C740 0.950 . S
H732 C742 0.950 . S
H733 C744 0.950 . S
H734 C746 0.950 . S
H735 C747 0.950 . S
C736 H728 0.950 . S
C736 C737 1.386 . S
C736 C738 1.391 . S
C737 C736 1.386 . S
C737 C741 1.393 . S
C738 H730 0.950 . S
C738 C736 1.391 . S
C738 C739 1.400 . S
C739 C738 1.400 . S
C739 C740 1.398 . S
C739 C745 1.491 . S
C740 H731 0.950 . S
C740 C739 1.398 . S
C740 C741 1.391 . S
C741 H729 0.950 . S
C741 C737 1.393 . S
C741 C740 1.391 . S
C742 H732 0.950 . S
C742 C743 1.386 . S
C742 C744 1.391 . S
C743 C742 1.386 . S
C743 C747 1.393 . S
C744 H733 0.950 . S
C744 C742 1.391 . S
C744 C745 1.400 . S
C745 C739 1.491 . S
C745 C744 1.400 . S
C745 C746 1.398 . S
C746 H734 0.950 . S
C746 C745 1.398 . S
C746 C747 1.391 . S
C747 H735 0.950 . S
C747 C743 1.393 . S
C747 C746 1.391 . S
H748 C756 0.950 . S
H749 C761 0.950 . S
H750 C758 0.950 . S
H751 C760 0.950 . S
H752 C762 0.950 . S
H753 C764 0.950 . S
H754 C766 0.950 . S
H755 C767 0.950 . S
C756 H748 0.950 . S
C756 C757 1.386 . S
C756 C758 1.391 . S
C757 C756 1.386 . S
C757 C761 1.393 . S
C758 H750 0.950 . S
C758 C756 1.391 . S
C758 C759 1.400 . S
C759 C758 1.400 . S
C759 C760 1.398 . S
C759 C765 1.491 . S
C760 H751 0.950 . S
C760 C759 1.398 . S
C760 C761 1.391 . S
C761 H749 0.950 . S
C761 C757 1.393 . S
C761 C760 1.391 . S
C762 H752 0.950 . S
C762 C763 1.386 . S
C762 C764 1.391 . S
C763 C762 1.386 . S
C763 C767 1.393 . S
C764 H753 0.950 . S
C764 C762 1.391 . S
C764 C765 1.400 . S
C765 C759 1.491 . S
C765 C764 1.400 . S
C765 C766 1.398 . S
C766 H754 0.950 . S
C766 C765 1.398 . S
C766 C767 1.391 . S
C767 H755 0.950 . S
C767 C763 1.393 . S
C767 C766 1.391 . S
H768 C776 0.950 . S
H769 C781 0.950 . S
H770 C778 0.950 . S
H771 C780 0.950 . S
H772 C782 0.950 . S
H773 C784 0.950 . S
H774 C786 0.950 . S
H775 C787 0.950 . S
C776 H768 0.950 . S
C776 C777 1.386 . S
C776 C778 1.391 . S
C777 C776 1.386 . S
C777 C781 1.393 . S
C778 H770 0.950 . S
C778 C776 1.391 . S
C778 C779 1.400 . S
C779 C778 1.400 . S
C779 C780 1.398 . S
C779 C785 1.491 . S
C780 H771 0.950 . S
C780 C779 1.398 . S
C780 C781 1.391 . S
C781 H769 0.950 . S
C781 C777 1.393 . S
C781 C780 1.391 . S
C782 H772 0.950 . S
C782 C783 1.386 . S
C782 C784 1.391 . S
C783 C782 1.386 . S
C783 C787 1.393 . S
C784 H773 0.950 . S
C784 C782 1.391 . S
C784 C785 1.400 . S
C785 C779 1.491 . S
C785 C784 1.400 . S
C785 C786 1.398 . S
C786 H774 0.950 . S
C786 C785 1.398 . S
C786 C787 1.391 . S
C787 H775 0.950 . S
C787 C783 1.393 . S
C787 C786 1.391 . S
H788 C796 0.950 . S
H789 C801 0.950 . S
H790 C798 0.950 . S
H791 C800 0.950 . S
H792 C802 0.950 . S
H793 C804 0.950 . S
H794 C806 0.950 . S
H795 C807 0.950 . S
C796 H788 0.950 . S
C796 C797 1.386 . S
C796 C798 1.391 . S
C797 C796 1.386 . S
C797 C801 1.393 . S
C798 H790 0.950 . S
C798 C796 1.391 . S
C798 C799 1.400 . S
C799 C798 1.400 . S
C799 C800 1.398 . S
C799 C805 1.491 . S
C800 H791 0.950 . S
C800 C799 1.398 . S
C800 C801 1.391 . S
C801 H789 0.950 . S
C801 C797 1.393 . S
C801 C800 1.391 . S
C802 H792 0.950 . S
C802 C803 1.386 . S
C802 C804 1.391 . S
C803 C802 1.386 . S
C803 C807 1.393 . S
C804 H793 0.950 . S
C804 C802 1.391 . S
C804 C805 1.400 . S
C805 C799 1.491 . S
C805 C804 1.400 . S
C805 C806 1.398 . S
C806 H794 0.950 . S
C806 C805 1.398 . S
C806 C807 1.391 . S
C807 H795 0.950 . S
C807 C803 1.393 . S
C807 C806 1.391 . S
H808 C816 0.950 . S
H809 C821 0.949 . S
H810 C818 0.950 . S
H811 C820 0.953 . S
H812 C822 0.950 . S
H813 C824 0.950 . S
H814 C826 0.950 . S
H815 C827 0.950 . S
C816 H808 0.950 . S
C816 C817 1.386 . S
C816 C818 1.391 . S
C817 C816 1.386 . S
C817 C821 1.401 . S
C818 H810 0.950 . S
C818 C816 1.391 . S
C818 C819 1.397 1_455 S
C819 C818 1.397 1_655 S
C819 C820 1.398 . S
C819 C825 1.493 . S
C820 H811 0.953 . S
C820 C819 1.398 . S
C820 C821 1.387 1_655 S
C821 H809 0.949 . S
C821 C817 1.401 . S
C821 C820 1.387 1_455 S
C822 H812 0.950 . S
C822 C823 1.386 . S
C822 C824 1.391 . S
C823 C822 1.386 . S
C823 C827 1.393 . S
C824 H813 0.950 . S
C824 C822 1.391 . S
C824 C825 1.400 . S
C825 C819 1.493 . S
C825 C824 1.400 . S
C825 C826 1.398 . S
C826 H814 0.950 . S
C826 C825 1.398 . S
C826 C827 1.391 . S
C827 H815 0.950 . S
C827 C823 1.393 . S
C827 C826 1.391 . S
H828 C836 0.950 . S
H829 C841 0.950 . S
H830 C838 0.950 . S
H831 C840 0.950 . S
H832 C842 0.950 . S
H833 C844 0.950 . S
H834 C846 0.950 . S
H835 C847 0.950 . S
C836 H828 0.950 . S
C836 C837 1.386 . S
C836 C838 1.391 . S
C837 C836 1.386 . S
C837 C841 1.393 . S
C838 H830 0.950 . S
C838 C836 1.391 . S
C838 C839 1.400 . S
C839 C838 1.400 . S
C839 C840 1.398 . S
C839 C845 1.491 . S
C840 H831 0.950 . S
C840 C839 1.398 . S
C840 C841 1.391 . S
C841 H829 0.950 . S
C841 C837 1.393 . S
C841 C840 1.391 . S
C842 H832 0.950 . S
C842 C843 1.386 . S
C842 C844 1.391 1_556 S
C843 C842 1.386 . S
C843 C847 1.393 . S
C844 H833 0.950 . S
C844 C842 1.391 1_554 S
C844 C845 1.400 . S
C845 C839 1.491 . S
C845 C844 1.400 . S
C845 C846 1.398 . S
C846 H834 0.950 . S
C846 C845 1.398 . S
C846 C847 1.391 1_554 S
C847 H835 0.950 . S
C847 C843 1.393 . S
C847 C846 1.391 1_556 S
H848 C856 0.950 . S
H849 C861 0.950 . S
H850 C858 0.950 . S
H851 C860 0.950 . S
H852 C862 0.950 . S
H853 C864 0.950 . S
H854 C866 0.950 . S
H855 C867 0.950 . S
C856 H848 0.950 . S
C856 C857 1.386 . S
C856 C858 1.391 . S
C857 C856 1.386 . S
C857 C861 1.393 . S
C858 H850 0.950 . S
C858 C856 1.391 . S
C858 C859 1.400 . S
C859 C858 1.400 . S
C859 C860 1.398 . S
C859 C865 1.491 . S
C860 H851 0.950 . S
C860 C859 1.398 . S
C860 C861 1.391 . S
C861 H849 0.950 . S
C861 C857 1.393 . S
C861 C860 1.391 . S
C862 H852 0.950 . S
C862 C863 1.386 . S
C862 C864 1.391 . S
C863 C862 1.386 . S
C863 C867 1.393 . S
C864 H853 0.950 . S
C864 C862 1.391 . S
C864 C865 1.400 . S
C865 C859 1.491 . S
C865 C864 1.400 . S
C865 C866 1.398 . S
C866 H854 0.950 . S
C866 C865 1.398 . S
C866 C867 1.391 . S
C867 H855 0.950 . S
C867 C863 1.393 . S
C867 C866 1.391 . S
H868 C876 0.950 . S
H869 C881 0.950 . S
H870 C878 0.950 . S
H871 C880 0.950 . S
H872 C882 0.950 . S
H873 C884 0.950 . S
H874 C886 0.950 . S
H875 C887 0.950 . S
C876 H868 0.950 . S
C876 C877 1.386 . S
C876 C878 1.391 . S
C877 C876 1.386 . S
C877 C881 1.393 . S
C878 H870 0.950 . S
C878 C876 1.391 . S
C878 C879 1.400 . S
C879 C878 1.400 . S
C879 C880 1.398 . S
C879 C885 1.491 . S
C880 H871 0.950 . S
C880 C879 1.398 . S
C880 C881 1.391 . S
C881 H869 0.950 . S
C881 C877 1.393 . S
C881 C880 1.391 . S
C882 H872 0.950 . S
C882 C883 1.386 . S
C882 C884 1.391 . S
C883 C882 1.386 . S
C883 C887 1.393 . S
C884 H873 0.950 . S
C884 C882 1.391 . S
C884 C885 1.400 . S
C885 C879 1.491 . S
C885 C884 1.400 . S
C885 C886 1.398 . S
C886 H874 0.950 . S
C886 C885 1.398 . S
C886 C887 1.391 . S
C887 H875 0.950 . S
C887 C883 1.393 . S
C887 C886 1.391 . S
H888 C896 0.950 . S
H889 C901 0.950 . S
H890 C898 0.950 . S
H891 C900 0.950 . S
H892 C902 0.950 . S
H893 C904 0.950 . S
H894 C906 0.950 . S
H895 C907 0.950 . S
C896 H888 0.950 . S
C896 C897 1.386 1_655 S
C896 C898 1.391 . S
C897 C896 1.386 1_455 S
C897 C901 1.393 . S
C898 H890 0.950 . S
C898 C896 1.391 . S
C898 C899 1.427 . S
C899 C898 1.427 . S
C899 C900 1.368 1_655 S
C899 C905 1.494 . S
C900 H891 0.950 . S
C900 C899 1.368 1_455 S
C900 C901 1.391 . S
C901 H889 0.950 . S
C901 C897 1.393 . S
C901 C900 1.391 . S
C902 H892 0.950 . S
C902 C903 1.386 1_455 S
C902 C904 1.391 . S
C903 C902 1.386 1_655 S
C903 C907 1.393 . S
C904 H893 0.950 . S
C904 C902 1.391 . S
C904 C905 1.400 1_455 S
C905 C899 1.494 . S
C905 C904 1.400 1_655 S
C905 C906 1.398 . S
C906 H894 0.950 . S
C906 C905 1.398 . S
C906 C907 1.391 . S
C907 H895 0.950 . S
C907 C903 1.393 . S
C907 C906 1.391 . S
H908 C916 0.950 . S
H909 C921 0.950 . S
H910 C918 0.950 . S
H911 C920 0.950 . S
H912 C922 0.950 . S
H913 C924 0.950 . S
H914 C926 0.950 . S
H915 C927 0.950 . S
C916 H908 0.950 . S
C916 C917 1.386 . S
C916 C918 1.391 1_554 S
C917 C916 1.386 . S
C917 C921 1.393 . S
C918 H910 0.950 . S
C918 C916 1.391 1_556 S
C918 C919 1.400 . S
C919 C918 1.400 . S
C919 C920 1.398 . S
C919 C925 1.491 . S
C920 H911 0.950 . S
C920 C919 1.398 . S
C920 C921 1.391 1_556 S
C921 H909 0.950 . S
C921 C917 1.393 . S
C921 C920 1.391 1_554 S
C922 H912 0.950 . S
C922 C923 1.386 . S
C922 C924 1.391 . S
C923 C922 1.386 . S
C923 C927 1.393 . S
C924 H913 0.950 . S
C924 C922 1.391 . S
C924 C925 1.400 . S
C925 C919 1.491 . S
C925 C924 1.400 . S
C925 C926 1.398 . S
C926 H914 0.950 . S
C926 C925 1.398 . S
C926 C927 1.391 . S
C927 H915 0.950 . S
C927 C923 1.393 . S
C927 C926 1.391 . S
H928 C936 0.950 . S
H929 C941 0.950 . S
H930 C938 0.950 . S
H931 C940 0.950 . S
H932 C942 0.950 . S
H933 C944 0.950 . S
H934 C946 0.950 . S
H935 C947 0.950 . S
C936 H928 0.950 . S
C936 C937 1.386 . S
C936 C938 1.391 . S
C937 C936 1.386 . S
C937 C941 1.393 . S
C938 H930 0.950 . S
C938 C936 1.391 . S
C938 C939 1.400 . S
C939 C938 1.400 . S
C939 C940 1.398 . S
C939 C945 1.491 . S
C940 H931 0.950 . S
C940 C939 1.398 . S
C940 C941 1.391 . S
C941 H929 0.950 . S
C941 C937 1.393 . S
C941 C940 1.391 . S
C942 H932 0.950 . S
C942 C943 1.386 . S
C942 C944 1.391 . S
C943 C942 1.386 . S
C943 C947 1.393 . S
C944 H933 0.950 . S
C944 C942 1.391 . S
C944 C945 1.400 . S
C945 C939 1.491 . S
C945 C944 1.400 . S
C945 C946 1.398 . S
C946 H934 0.950 . S
C946 C945 1.398 . S
C946 C947 1.391 . S
C947 H935 0.950 . S
C947 C943 1.393 . S
C947 C946 1.391 . S
H948 C956 0.950 . S
H949 C961 0.950 . S
H950 C958 0.950 . S
H951 C960 0.950 . S
H952 C962 0.950 . S
H953 C964 0.950 . S
H954 C966 0.950 . S
H955 C967 0.950 . S
C956 H948 0.950 . S
C956 C957 1.386 . S
C956 C958 1.391 . S
C957 C956 1.386 . S
C957 C961 1.393 . S
C958 H950 0.950 . S
C958 C956 1.391 . S
C958 C959 1.400 . S
C959 C958 1.400 . S
C959 C960 1.398 . S
C959 C965 1.491 . S
C960 H951 0.950 . S
C960 C959 1.398 . S
C960 C961 1.391 . S
C961 H949 0.950 . S
C961 C957 1.393 . S
C961 C960 1.391 . S
C962 H952 0.950 . S
C962 C963 1.386 . S
C962 C964 1.391 . S
C963 C962 1.386 . S
C963 C967 1.393 . S
C964 H953 0.950 . S
C964 C962 1.391 . S
C964 C965 1.400 . S
C965 C959 1.491 . S
C965 C964 1.400 . S
C965 C966 1.398 . S
C966 H954 0.950 . S
C966 C965 1.398 . S
C966 C967 1.391 . S
C967 H955 0.950 . S
C967 C963 1.393 . S
C967 C966 1.391 . S
H968 C976 0.950 . S
H969 C981 0.950 . S
H970 C978 0.950 . S
H971 C980 0.950 . S
H972 C982 0.950 . S
H973 C984 0.950 . S
H974 C986 0.950 . S
H975 C987 0.950 . S
C976 H968 0.950 . S
C976 C977 1.386 . S
C976 C978 1.391 . S
C977 C976 1.386 . S
C977 C981 1.393 1_455 S
C978 H970 0.950 . S
C978 C976 1.391 . S
C978 C979 1.400 . S
C979 C978 1.400 . S
C979 C980 1.398 1_455 S
C979 C985 1.495 . S
C980 H971 0.950 . S
C980 C979 1.398 1_655 S
C980 C981 1.391 . S
C981 H969 0.950 . S
C981 C977 1.393 1_655 S
C981 C980 1.391 . S
C982 H972 0.950 . S
C982 C983 1.386 . S
C982 C984 1.391 . S
C983 C982 1.386 . S
C983 C987 1.393 1_655 S
C984 H973 0.950 . S
C984 C982 1.391 . S
C984 C985 1.372 1_655 S
C985 C979 1.495 . S
C985 C984 1.372 1_455 S
C985 C986 1.423 . S
C986 H974 0.950 . S
C986 C985 1.423 . S
C986 C987 1.391 . S
C987 H975 0.950 . S
C987 C983 1.393 1_455 S
C987 C986 1.391 . S
H988 C996 0.950 . S
H989 C1001 0.950 . S
H990 C998 0.950 . S
H991 C1000 0.950 . S
H992 C1002 0.950 . S
H993 C1004 0.950 . S
H994 C1006 0.950 . S
H995 C1007 0.950 . S
C996 H988 0.950 . S
C996 C997 1.386 . S
C996 C998 1.391 . S
C997 C996 1.386 . S
C997 C1001 1.393 . S
C998 H990 0.950 . S
C998 C996 1.391 . S
C998 C999 1.400 . S
C999 C998 1.400 . S
C999 C1000 1.398 . S
C999 C1005 1.491 . S
C1000 H991 0.950 . S
C1000 C999 1.398 . S
C1000 C1001 1.391 . S
C1001 H989 0.950 . S
C1001 C997 1.393 . S
C1001 C1000 1.391 . S
C1002 H992 0.950 . S
C1002 C1003 1.386 . S
C1002 C1004 1.391 1_554 S
C1003 C1002 1.386 . S
C1003 C1007 1.393 . S
C1004 H993 0.950 . S
C1004 C1002 1.391 1_556 S
C1004 C1005 1.400 . S
C1005 C999 1.491 . S
C1005 C1004 1.400 . S
C1005 C1006 1.398 . S
C1006 H994 0.950 . S
C1006 C1005 1.398 . S
C1006 C1007 1.391 1_556 S
C1007 H995 0.950 . S
C1007 C1003 1.393 . S
C1007 C1006 1.391 1_554 S
H1008 C1016 0.950 . S
H1009 C1021 0.950 . S
H1010 C1018 0.950 . S
H1011 C1020 0.950 . S
H1012 C1022 0.950 . S
H1013 C1024 0.950 . S
H1014 C1026 0.950 . S
H1015 C1027 0.950 . S
C1016 H1008 0.950 . S
C1016 C1017 1.386 . S
C1016 C1018 1.391 . S
C1017 C1016 1.386 . S
C1017 C1021 1.393 . S
C1018 H1010 0.950 . S
C1018 C1016 1.391 . S
C1018 C1019 1.400 . S
C1019 C1018 1.400 . S
C1019 C1020 1.398 . S
C1019 C1025 1.491 . S
C1020 H1011 0.950 . S
C1020 C1019 1.398 . S
C1020 C1021 1.391 . S
C1021 H1009 0.950 . S
C1021 C1017 1.393 . S
C1021 C1020 1.391 . S
C1022 H1012 0.950 . S
C1022 C1023 1.386 . S
C1022 C1024 1.391 . S
C1023 C1022 1.386 . S
C1023 C1027 1.393 . S
C1024 H1013 0.950 . S
C1024 C1022 1.391 . S
C1024 C1025 1.400 . S
C1025 C1019 1.491 . S
C1025 C1024 1.400 . S
C1025 C1026 1.398 . S
C1026 H1014 0.950 . S
C1026 C1025 1.398 . S
C1026 C1027 1.391 . S
C1027 H1015 0.950 . S
C1027 C1023 1.393 . S
C1027 C1026 1.391 . S
H1028 C1036 0.950 . S
H1029 C1041 0.950 . S
H1030 C1038 0.950 . S
H1031 C1040 0.950 . S
H1032 C1042 0.950 . S
H1033 C1044 0.950 . S
H1034 C1046 0.950 . S
H1035 C1047 0.950 . S
C1036 H1028 0.950 . S
C1036 C1037 1.386 . S
C1036 C1038 1.391 . S
C1037 C1036 1.386 . S
C1037 C1041 1.393 . S
C1038 H1030 0.950 . S
C1038 C1036 1.391 . S
C1038 C1039 1.400 . S
C1039 C1038 1.400 . S
C1039 C1040 1.398 . S
C1039 C1045 1.491 . S
C1040 H1031 0.950 . S
C1040 C1039 1.398 . S
C1040 C1041 1.391 . S
C1041 H1029 0.950 . S
C1041 C1037 1.393 . S
C1041 C1040 1.391 . S
C1042 H1032 0.950 . S
C1042 C1043 1.386 . S
C1042 C1044 1.391 . S
C1043 C1042 1.386 . S
C1043 C1047 1.393 . S
C1044 H1033 0.950 . S
C1044 C1042 1.391 . S
C1044 C1045 1.400 . S
C1045 C1039 1.491 . S
C1045 C1044 1.400 . S
C1045 C1046 1.398 . S
C1046 H1034 0.950 . S
C1046 C1045 1.398 . S
C1046 C1047 1.391 . S
C1047 H1035 0.950 . S
C1047 C1043 1.393 . S
C1047 C1046 1.391 . S
H1048 C1056 0.950 . S
H1049 C1061 0.950 . S
H1050 C1058 0.950 . S
H1051 C1060 0.950 . S
H1052 C1062 0.950 . S
H1053 C1064 0.950 . S
H1054 C1066 0.950 . S
H1055 C1067 0.950 . S
C1056 H1048 0.950 . S
C1056 C1057 1.386 1_455 S
C1056 C1058 1.391 . S
C1057 C1056 1.386 1_655 S
C1057 C1061 1.393 . S
C1058 H1050 0.950 . S
C1058 C1056 1.391 . S
C1058 C1059 1.409 . S
C1059 C1058 1.409 . S
C1059 C1060 1.388 1_455 S
C1059 C1065 1.493 . S
C1060 H1051 0.950 . S
C1060 C1059 1.388 1_655 S
C1060 C1061 1.391 . S
C1061 H1049 0.950 . S
C1061 C1057 1.393 . S
C1061 C1060 1.391 . S
C1062 H1052 0.950 . S
C1062 C1063 1.386 1_655 S
C1062 C1064 1.391 . S
C1063 C1062 1.386 1_455 S
C1063 C1067 1.393 . S
C1064 H1053 0.950 . S
C1064 C1062 1.391 . S
C1064 C1065 1.400 1_655 S
C1065 C1059 1.493 . S
C1065 C1064 1.400 1_455 S
C1065 C1066 1.398 . S
C1066 H1054 0.950 . S
C1066 C1065 1.398 . S
C1066 C1067 1.391 . S
C1067 H1055 0.950 . S
C1067 C1063 1.393 . S
C1067 C1066 1.391 . S
H1068 C1076 0.950 . S
H1069 C1081 0.950 . S
H1070 C1078 0.950 . S
H1071 C1080 0.950 . S
H1072 C1082 0.950 . S
H1073 C1084 0.950 . S
H1074 C1086 0.950 . S
H1075 C1087 0.950 . S
C1076 H1068 0.950 . S
C1076 C1077 1.386 . S
C1076 C1078 1.391 . S
C1077 C1076 1.386 . S
C1077 C1081 1.393 . S
C1078 H1070 0.950 . S
C1078 C1076 1.391 . S
C1078 C1079 1.400 . S
C1079 C1078 1.400 . S
C1079 C1080 1.398 . S
C1079 C1085 1.491 . S
C1080 H1071 0.950 . S
C1080 C1079 1.398 . S
C1080 C1081 1.391 . S
C1081 H1069 0.950 . S
C1081 C1077 1.393 . S
C1081 C1080 1.391 . S
C1082 H1072 0.950 . S
C1082 C1083 1.386 . S
C1082 C1084 1.391 1_556 S
C1083 C1082 1.386 . S
C1083 C1087 1.393 . S
C1084 H1073 0.950 . S
C1084 C1082 1.391 1_554 S
C1084 C1085 1.400 . S
C1085 C1079 1.491 . S
C1085 C1084 1.400 . S
C1085 C1086 1.398 . S
C1086 H1074 0.950 . S
C1086 C1085 1.398 . S
C1086 C1087 1.391 1_554 S
C1087 H1075 0.950 . S
C1087 C1083 1.393 . S
C1087 C1086 1.391 1_556 S
H1088 C1096 0.950 1_656 S
H1089 C1101 0.950 . S
H1090 C1098 0.950 . S
H1091 C1100 0.947 . S
H1092 C1102 0.950 1_454 S
H1093 C1104 0.950 . S
H1094 C1106 0.947 . S
H1095 C1107 0.950 . S
C1096 H1088 0.950 1_454 S
C1096 C1097 1.386 . S
C1096 C1098 1.391 1_454 S
C1097 C1096 1.386 . S
C1097 C1101 1.393 . S
C1098 H1090 0.950 . S
C1098 C1096 1.391 1_656 S
C1098 C1099 1.400 1_656 S
C1099 C1098 1.400 1_454 S
C1099 C1100 1.398 . S
C1099 C1105 1.491 1_444 S
C1100 H1091 0.947 . S
C1100 C1099 1.398 . S
C1100 C1101 1.391 . S
C1101 H1089 0.950 . S
C1101 C1097 1.393 . S
C1101 C1100 1.391 . S
C1102 H1092 0.950 1_656 S
C1102 C1103 1.386 . S
C1102 C1104 1.391 1_656 S
C1103 C1102 1.386 . S
C1103 C1107 1.393 . S
C1104 H1093 0.950 . S
C1104 C1102 1.391 1_454 S
C1104 C1105 1.400 1_454 S
C1105 C1099 1.491 1_666 S
C1105 C1104 1.400 1_656 S
C1105 C1106 1.398 . S
C1106 H1094 0.947 . S
C1106 C1105 1.398 . S
C1106 C1107 1.391 . S
C1107 H1095 0.950 . S
C1107 C1103 1.393 . S
C1107 C1106 1.391 . S
H1108 C1116 0.950 . S
H1109 C1121 0.950 . S
H1110 C1118 0.950 . S
H1111 C1120 0.950 . S
H1112 C1122 0.950 . S
H1113 C1124 0.950 . S
H1114 C1126 0.950 . S
H1115 C1127 0.950 . S
C1116 H1108 0.950 . S
C1116 C1117 1.386 . S
C1116 C1118 1.391 . S
C1117 C1116 1.386 . S
C1117 C1121 1.393 . S
C1118 H1110 0.950 . S
C1118 C1116 1.391 . S
C1118 C1119 1.400 . S
C1119 C1118 1.400 . S
C1119 C1120 1.398 . S
C1119 C1125 1.491 . S
C1120 H1111 0.950 . S
C1120 C1119 1.398 . S
C1120 C1121 1.391 . S
C1121 H1109 0.950 . S
C1121 C1117 1.393 . S
C1121 C1120 1.391 . S
C1122 H1112 0.950 . S
C1122 C1123 1.386 . S
C1122 C1124 1.391 . S
C1123 C1122 1.386 . S
C1123 C1127 1.393 . S
C1124 H1113 0.950 . S
C1124 C1122 1.391 . S
C1124 C1125 1.400 . S
C1125 C1119 1.491 . S
C1125 C1124 1.400 . S
C1125 C1126 1.398 . S
C1126 H1114 0.950 . S
C1126 C1125 1.398 . S
C1126 C1127 1.391 . S
C1127 H1115 0.950 . S
C1127 C1123 1.393 . S
C1127 C1126 1.391 . S
H1128 C1136 0.950 . S
H1129 C1141 0.950 . S
H1130 C1138 0.950 . S
H1131 C1140 0.950 . S
H1132 C1142 0.950 . S
H1133 C1144 0.950 . S
H1134 C1146 0.950 . S
H1135 C1147 0.950 . S
C1136 H1128 0.950 . S
C1136 C1137 1.386 . S
C1136 C1138 1.391 . S
C1137 C1136 1.386 . S
C1137 C1141 1.393 . S
C1138 H1130 0.950 . S
C1138 C1136 1.391 . S
C1138 C1139 1.400 . S
C1139 C1138 1.400 . S
C1139 C1140 1.398 . S
C1139 C1145 1.491 1_545 S
C1140 H1131 0.950 . S
C1140 C1139 1.398 . S
C1140 C1141 1.391 . S
C1141 H1129 0.950 . S
C1141 C1137 1.393 . S
C1141 C1140 1.391 . S
C1142 H1132 0.950 . S
C1142 C1143 1.386 . S
C1142 C1144 1.391 . S
C1143 C1142 1.386 . S
C1143 C1147 1.393 . S
C1144 H1133 0.950 . S
C1144 C1142 1.391 . S
C1144 C1145 1.400 . S
C1145 C1139 1.491 1_565 S
C1145 C1144 1.400 . S
C1145 C1146 1.398 . S
C1146 H1134 0.950 . S
C1146 C1145 1.398 . S
C1146 C1147 1.391 . S
C1147 H1135 0.950 . S
C1147 C1143 1.393 . S
C1147 C1146 1.391 . S
H1148 C1156 0.950 . S
H1149 C1161 0.950 . S
H1150 C1158 0.950 . S
H1151 C1160 0.950 . S
H1152 C1162 0.950 . S
H1153 C1164 0.950 . S
H1154 C1166 0.950 . S
H1155 C1167 0.950 . S
C1156 H1148 0.950 . S
C1156 C1157 1.386 . S
C1156 C1158 1.391 . S
C1157 C1156 1.386 . S
C1157 C1161 1.393 . S
C1158 H1150 0.950 . S
C1158 C1156 1.391 . S
C1158 C1159 1.400 . S
C1159 C1158 1.400 . S
C1159 C1160 1.398 . S
C1159 C1165 1.491 . S
C1160 H1151 0.950 . S
C1160 C1159 1.398 . S
C1160 C1161 1.391 . S
C1161 H1149 0.950 . S
C1161 C1157 1.393 . S
C1161 C1160 1.391 . S
C1162 H1152 0.950 . S
C1162 C1163 1.386 . S
C1162 C1164 1.391 . S
C1163 C1162 1.386 . S
C1163 C1167 1.393 . S
C1164 H1153 0.950 . S
C1164 C1162 1.391 . S
C1164 C1165 1.400 . S
C1165 C1159 1.491 . S
C1165 C1164 1.400 . S
C1165 C1166 1.398 . S
C1166 H1154 0.950 . S
C1166 C1165 1.398 . S
C1166 C1167 1.391 . S
C1167 H1155 0.950 . S
C1167 C1163 1.393 . S
C1167 C1166 1.391 . S
H1168 C1176 0.950 . S
H1169 C1181 0.950 . S
H1170 C1178 0.950 . S
H1171 C1180 0.950 . S
H1172 C1182 0.950 . S
H1173 C1184 0.950 . S
H1174 C1186 0.950 . S
H1175 C1187 0.950 . S
C1176 H1168 0.950 . S
C1176 C1177 1.386 . S
C1176 C1178 1.391 . S
C1177 C1176 1.386 . S
C1177 C1181 1.393 1_455 S
C1178 H1170 0.950 . S
C1178 C1176 1.391 . S
C1178 C1179 1.400 . S
C1179 C1178 1.400 . S
C1179 C1180 1.398 1_455 S
C1179 C1185 1.491 1_465 S
C1180 H1171 0.950 . S
C1180 C1179 1.398 1_655 S
C1180 C1181 1.391 . S
C1181 H1169 0.950 . S
C1181 C1177 1.393 1_655 S
C1181 C1180 1.391 . S
C1182 H1172 0.950 . S
C1182 C1183 1.386 . S
C1182 C1184 1.391 . S
C1183 C1182 1.386 . S
C1183 C1187 1.393 1_655 S
C1184 H1173 0.950 . S
C1184 C1182 1.391 . S
C1184 C1185 1.400 . S
C1185 C1179 1.491 1_645 S
C1185 C1184 1.400 . S
C1185 C1186 1.398 1_655 S
C1186 H1174 0.950 . S
C1186 C1185 1.398 1_455 S
C1186 C1187 1.391 . S
C1187 H1175 0.950 . S
C1187 C1183 1.393 1_455 S
C1187 C1186 1.391 . S
H1188 C1196 0.950 . S
H1189 C1201 0.950 . S
H1190 C1198 0.950 . S
H1191 C1200 0.950 . S
H1192 C1202 0.950 . S
H1193 C1204 0.950 . S
H1194 C1206 0.950 . S
H1195 C1207 0.950 . S
C1196 H1188 0.950 . S
C1196 C1197 1.386 . S
C1196 C1198 1.391 . S
C1197 C1196 1.386 . S
C1197 C1201 1.393 . S
C1198 H1190 0.950 . S
C1198 C1196 1.391 . S
C1198 C1199 1.400 . S
C1199 C1198 1.400 . S
C1199 C1200 1.398 . S
C1199 C1205 1.491 . S
C1200 H1191 0.950 . S
C1200 C1199 1.398 . S
C1200 C1201 1.391 . S
C1201 H1189 0.950 . S
C1201 C1197 1.393 . S
C1201 C1200 1.391 . S
C1202 H1192 0.950 . S
C1202 C1203 1.386 . S
C1202 C1204 1.391 . S
C1203 C1202 1.386 . S
C1203 C1207 1.393 . S
C1204 H1193 0.950 . S
C1204 C1202 1.391 . S
C1204 C1205 1.400 . S
C1205 C1199 1.491 . S
C1205 C1204 1.400 . S
C1205 C1206 1.398 . S
C1206 H1194 0.950 . S
C1206 C1205 1.398 . S
C1206 C1207 1.391 . S
C1207 H1195 0.950 . S
C1207 C1203 1.393 . S
C1207 C1206 1.391 . S
H1208 C1216 0.950 . S
H1209 C1221 0.950 . S
H1210 C1218 0.950 . S
H1211 C1220 0.950 . S
H1212 C1222 0.950 . S
H1213 C1224 0.950 . S
H1214 C1226 0.950 . S
H1215 C1227 0.950 . S
C1216 H1208 0.950 . S
C1216 C1217 1.386 . S
C1216 C1218 1.391 . S
C1217 C1216 1.386 . S
C1217 C1221 1.393 1_554 S
C1218 H1210 0.950 . S
C1218 C1216 1.391 . S
C1218 C1219 1.400 . S
C1219 C1218 1.400 . S
C1219 C1220 1.398 1_554 S
C1219 C1225 1.491 1_564 S
C1220 H1211 0.950 . S
C1220 C1219 1.398 1_556 S
C1220 C1221 1.391 . S
C1221 H1209 0.950 . S
C1221 C1217 1.393 1_556 S
C1221 C1220 1.391 . S
C1222 H1212 0.950 . S
C1222 C1223 1.386 . S
C1222 C1224 1.391 . S
C1223 C1222 1.386 . S
C1223 C1227 1.393 1_556 S
C1224 H1213 0.950 . S
C1224 C1222 1.391 . S
C1224 C1225 1.400 . S
C1225 C1219 1.491 1_546 S
C1225 C1224 1.400 . S
C1225 C1226 1.398 1_556 S
C1226 H1214 0.950 . S
C1226 C1225 1.398 1_554 S
C1226 C1227 1.391 . S
C1227 H1215 0.950 . S
C1227 C1223 1.393 1_554 S
C1227 C1226 1.391 . S
H1228 C1236 0.950 . S
H1229 C1241 0.950 . S
H1230 C1238 0.950 . S
H1231 C1240 0.950 . S
H1232 C1242 0.950 . S
H1233 C1244 0.950 . S
H1234 C1246 0.950 . S
H1235 C1247 0.950 . S
C1236 H1228 0.950 . S
C1236 C1237 1.386 . S
C1236 C1238 1.391 . S
C1237 C1236 1.386 . S
C1237 C1241 1.393 . S
C1238 H1230 0.950 . S
C1238 C1236 1.391 . S
C1238 C1239 1.400 . S
C1239 C1238 1.400 . S
C1239 C1240 1.398 . S
C1239 C1245 1.491 . S
C1240 H1231 0.950 . S
C1240 C1239 1.398 . S
C1240 C1241 1.391 . S
C1241 H1229 0.950 . S
C1241 C1237 1.393 . S
C1241 C1240 1.391 . S
C1242 H1232 0.950 . S
C1242 C1243 1.386 . S
C1242 C1244 1.391 . S
C1243 C1242 1.386 . S
C1243 C1247 1.393 . S
C1244 H1233 0.950 . S
C1244 C1242 1.391 . S
C1244 C1245 1.400 . S
C1245 C1239 1.491 . S
C1245 C1244 1.400 . S
C1245 C1246 1.398 . S
C1246 H1234 0.950 . S
C1246 C1245 1.398 . S
C1246 C1247 1.391 . S
C1247 H1235 0.950 . S
C1247 C1243 1.393 . S
C1247 C1246 1.391 . S
H1248 C1256 0.950 . S
H1249 C1261 0.950 . S
H1250 C1258 0.950 . S
H1251 C1260 0.950 . S
H1252 C1262 0.950 . S
H1253 C1264 0.950 . S
H1254 C1266 0.950 . S
H1255 C1267 0.950 . S
C1256 H1248 0.950 . S
C1256 C1257 1.386 . S
C1256 C1258 1.391 . S
C1257 C1256 1.386 . S
C1257 C1261 1.393 . S
C1258 H1250 0.950 . S
C1258 C1256 1.391 . S
C1258 C1259 1.400 . S
C1259 C1258 1.400 . S
C1259 C1260 1.398 . S
C1259 C1265 1.491 . S
C1260 H1251 0.950 . S
C1260 C1259 1.398 . S
C1260 C1261 1.391 . S
C1261 H1249 0.950 . S
C1261 C1257 1.393 . S
C1261 C1260 1.391 . S
C1262 H1252 0.950 . S
C1262 C1263 1.386 . S
C1262 C1264 1.391 . S
C1263 C1262 1.386 . S
C1263 C1267 1.393 . S
C1264 H1253 0.950 . S
C1264 C1262 1.391 . S
C1264 C1265 1.400 . S
C1265 C1259 1.491 . S
C1265 C1264 1.400 . S
C1265 C1266 1.398 . S
C1266 H1254 0.950 . S
C1266 C1265 1.398 . S
C1266 C1267 1.391 . S
C1267 H1255 0.950 . S
C1267 C1263 1.393 . S
C1267 C1266 1.391 . S
H1268 C1276 0.950 . S
H1269 C1281 0.950 . S
H1270 C1278 0.950 . S
H1271 C1280 0.950 . S
H1272 C1282 0.950 . S
H1273 C1284 0.950 . S
H1274 C1286 0.950 . S
H1275 C1287 0.950 . S
C1276 H1268 0.950 . S
C1276 C1277 1.386 . S
C1276 C1278 1.391 . S
C1277 C1276 1.386 . S
C1277 C1281 1.393 . S
C1278 H1270 0.950 . S
C1278 C1276 1.391 . S
C1278 C1279 1.400 . S
C1279 C1278 1.400 . S
C1279 C1280 1.398 . S
C1279 C1285 1.491 . S
C1280 H1271 0.950 . S
C1280 C1279 1.398 . S
C1280 C1281 1.391 . S
C1281 H1269 0.950 . S
C1281 C1277 1.393 . S
C1281 C1280 1.391 . S
C1282 H1272 0.950 . S
C1282 C1283 1.386 . S
C1282 C1284 1.391 . S
C1283 C1282 1.386 . S
C1283 C1287 1.393 . S
C1284 H1273 0.950 . S
C1284 C1282 1.391 . S
C1284 C1285 1.400 . S
C1285 C1279 1.491 . S
C1285 C1284 1.400 . S
C1285 C1286 1.398 . S
C1286 H1274 0.950 . S
C1286 C1285 1.398 . S
C1286 C1287 1.391 . S
C1287 H1275 0.950 . S
C1287 C1283 1.393 . S
C1287 C1286 1.391 . S
H1288 C1296 0.950 . S
H1289 C1301 0.950 . S
H1290 C1298 0.950 . S
H1291 C1300 0.950 . S
H1292 C1302 0.950 . S
H1293 C1304 0.950 . S
H1294 C1306 0.950 . S
H1295 C1307 0.950 . S
C1296 H1288 0.950 . S
C1296 C1297 1.386 . S
C1296 C1298 1.391 . S
C1297 C1296 1.386 . S
C1297 C1301 1.393 . S
C1298 H1290 0.950 . S
C1298 C1296 1.391 . S
C1298 C1299 1.400 . S
C1299 C1298 1.400 . S
C1299 C1300 1.398 . S
C1299 C1305 1.491 . S
C1300 H1291 0.950 . S
C1300 C1299 1.398 . S
C1300 C1301 1.391 . S
C1301 H1289 0.950 . S
C1301 C1297 1.393 . S
C1301 C1300 1.391 . S
C1302 H1292 0.950 . S
C1302 C1303 1.386 . S
C1302 C1304 1.391 . S
C1303 C1302 1.386 . S
C1303 C1307 1.393 . S
C1304 H1293 0.950 . S
C1304 C1302 1.391 . S
C1304 C1305 1.400 . S
C1305 C1299 1.491 . S
C1305 C1304 1.400 . S
C1305 C1306 1.398 . S
C1306 H1294 0.950 . S
C1306 C1305 1.398 . S
C1306 C1307 1.391 . S
C1307 H1295 0.950 . S
C1307 C1303 1.393 . S
C1307 C1306 1.391 . S
H1308 C1316 0.950 . S
H1309 C1321 0.950 . S
H1310 C1318 0.950 . S
H1311 C1320 0.950 . S
H1312 C1322 0.950 . S
H1313 C1324 0.950 . S
H1314 C1326 0.950 . S
H1315 C1327 0.950 . S
C1316 H1308 0.950 . S
C1316 C1317 1.386 . S
C1316 C1318 1.391 . S
C1317 C1316 1.386 . S
C1317 C1321 1.393 . S
C1318 H1310 0.950 . S
C1318 C1316 1.391 . S
C1318 C1319 1.400 . S
C1319 C1318 1.400 . S
C1319 C1320 1.398 . S
C1319 C1325 1.491 . S
C1320 H1311 0.950 . S
C1320 C1319 1.398 . S
C1320 C1321 1.391 . S
C1321 H1309 0.950 . S
C1321 C1317 1.393 . S
C1321 C1320 1.391 . S
C1322 H1312 0.950 . S
C1322 C1323 1.386 . S
C1322 C1324 1.391 . S
C1323 C1322 1.386 . S
C1323 C1327 1.393 . S
C1324 H1313 0.950 . S
C1324 C1322 1.391 . S
C1324 C1325 1.400 . S
C1325 C1319 1.491 . S
C1325 C1324 1.400 . S
C1325 C1326 1.398 . S
C1326 H1314 0.950 . S
C1326 C1325 1.398 . S
C1326 C1327 1.391 . S
C1327 H1315 0.950 . S
C1327 C1323 1.393 . S
C1327 C1326 1.391 . S
H1328 C1336 0.950 . S
H1329 C1341 0.950 . S
H1330 C1338 0.950 . S
H1331 C1340 0.950 . S
H1332 C1342 0.950 . S
H1333 C1344 0.950 . S
H1334 C1346 0.950 . S
H1335 C1347 0.950 . S
C1336 H1328 0.950 . S
C1336 C1337 1.386 . S
C1336 C1338 1.391 . S
C1337 C1336 1.386 . S
C1337 C1341 1.393 . S
C1338 H1330 0.950 . S
C1338 C1336 1.391 . S
C1338 C1339 1.400 . S
C1339 C1338 1.400 . S
C1339 C1340 1.398 . S
C1339 C1345 1.491 . S
C1340 H1331 0.950 . S
C1340 C1339 1.398 . S
C1340 C1341 1.391 . S
C1341 H1329 0.950 . S
C1341 C1337 1.393 . S
C1341 C1340 1.391 . S
C1342 H1332 0.950 . S
C1342 C1343 1.386 . S
C1342 C1344 1.391 . S
C1343 C1342 1.386 . S
C1343 C1347 1.393 . S
C1344 H1333 0.950 . S
C1344 C1342 1.391 . S
C1344 C1345 1.400 . S
C1345 C1339 1.491 . S
C1345 C1344 1.400 . S
C1345 C1346 1.398 . S
C1346 H1334 0.950 . S
C1346 C1345 1.398 . S
C1346 C1347 1.391 . S
C1347 H1335 0.950 . S
C1347 C1343 1.393 . S
C1347 C1346 1.391 . S
H1348 C1356 0.950 . S
H1349 C1361 0.990 . S
H1350 C1358 0.950 . S
H1351 C1360 0.940 1_556 S
H1352 C1362 0.950 . S
H1353 C1364 0.950 . S
H1354 C1366 0.940 1_554 S
H1355 C1367 0.990 . S
C1356 H1348 0.950 . S
C1356 C1357 1.386 . S
C1356 C1358 1.391 . S
C1357 C1356 1.386 . S
C1357 C1361 1.332 1_655 S
C1358 H1350 0.950 . S
C1358 C1356 1.391 . S
C1358 C1359 1.400 . S
C1359 C1358 1.400 . S
C1359 C1360 1.402 1_655 S
C1359 C1365 1.491 1_654 S
C1360 H1351 0.940 1_554 S
C1360 C1359 1.402 1_455 S
C1360 C1361 1.422 . S
C1361 H1349 0.990 . S
C1361 C1357 1.332 1_455 S
C1361 C1360 1.422 . S
C1362 H1352 0.950 . S
C1362 C1363 1.386 . S
C1362 C1364 1.391 . S
C1363 C1362 1.386 . S
C1363 C1367 1.332 1_455 S
C1364 H1353 0.950 . S
C1364 C1362 1.391 . S
C1364 C1365 1.400 . S
C1365 C1359 1.491 1_456 S
C1365 C1364 1.400 . S
C1365 C1366 1.402 1_455 S
C1366 H1354 0.940 1_556 S
C1366 C1365 1.402 1_655 S
C1366 C1367 1.422 . S
C1367 H1355 0.990 . S
C1367 C1363 1.332 1_655 S
C1367 C1366 1.422 . S
H1368 C1376 0.950 . S
H1369 C1381 0.950 . S
H1370 C1378 0.950 . S
H1371 C1380 0.950 . S
H1372 C1382 0.950 . S
H1373 C1384 0.950 . S
H1374 C1386 0.950 . S
H1375 C1387 0.950 . S
C1376 H1368 0.950 . S
C1376 C1377 1.386 . S
C1376 C1378 1.391 . S
C1377 C1376 1.386 . S
C1377 C1381 1.393 1_556 S
C1378 H1370 0.950 . S
C1378 C1376 1.391 . S
C1378 C1379 1.400 . S
C1379 C1378 1.400 . S
C1379 C1380 1.398 1_556 S
C1379 C1385 1.491 1_556 S
C1380 H1371 0.950 . S
C1380 C1379 1.398 1_554 S
C1380 C1381 1.391 . S
C1381 H1369 0.950 . S
C1381 C1377 1.393 1_554 S
C1381 C1380 1.391 . S
C1382 H1372 0.950 . S
C1382 C1383 1.386 . S
C1382 C1384 1.391 . S
C1383 C1382 1.386 . S
C1383 C1387 1.393 1_554 S
C1384 H1373 0.950 . S
C1384 C1382 1.391 . S
C1384 C1385 1.400 . S
C1385 C1379 1.491 1_554 S
C1385 C1384 1.400 . S
C1385 C1386 1.398 1_554 S
C1386 H1374 0.950 . S
C1386 C1385 1.398 1_556 S
C1386 C1387 1.391 . S
C1387 H1375 0.950 . S
C1387 C1383 1.393 1_556 S
C1387 C1386 1.391 . S
H1388 C1396 0.941 1_655 S
H1389 C1401 0.950 . S
H1390 C1398 0.950 . S
H1391 C1400 0.950 . S
H1392 C1402 0.941 1_455 S
H1393 C1404 0.950 . S
H1394 C1406 0.950 . S
H1395 C1407 0.950 . S
C1396 H1388 0.941 1_455 S
C1396 C1397 1.400 . S
C1396 C1398 1.386 1_455 S
C1397 C1396 1.400 . S
C1397 C1401 1.393 . S
C1398 H1390 0.950 . S
C1398 C1396 1.386 1_655 S
C1398 C1399 1.400 1_655 S
C1399 C1398 1.400 1_455 S
C1399 C1400 1.398 . S
C1399 C1405 1.491 1_455 S
C1400 H1391 0.950 . S
C1400 C1399 1.398 . S
C1400 C1401 1.391 . S
C1401 H1389 0.950 . S
C1401 C1397 1.393 . S
C1401 C1400 1.391 . S
C1402 H1392 0.941 1_655 S
C1402 C1403 1.400 . S
C1402 C1404 1.386 1_655 S
C1403 C1402 1.400 . S
C1403 C1407 1.393 . S
C1404 H1393 0.950 . S
C1404 C1402 1.386 1_455 S
C1404 C1405 1.400 1_455 S
C1405 C1399 1.491 1_655 S
C1405 C1404 1.400 1_655 S
C1405 C1406 1.398 . S
C1406 H1394 0.950 . S
C1406 C1405 1.398 . S
C1406 C1407 1.391 . S
C1407 H1395 0.950 . S
C1407 C1403 1.393 . S
C1407 C1406 1.391 . S
H1408 C1416 0.950 . S
H1409 C1421 0.950 . S
H1410 C1418 0.950 . S
H1411 C1420 0.950 . S
H1412 C1422 0.950 . S
H1413 C1424 0.950 . S
H1414 C1426 0.950 . S
H1415 C1427 0.950 . S
C1416 H1408 0.950 . S
C1416 C1417 1.386 . S
C1416 C1418 1.391 . S
C1417 C1416 1.386 . S
C1417 C1421 1.393 . S
C1418 H1410 0.950 . S
C1418 C1416 1.391 . S
C1418 C1419 1.400 . S
C1419 C1418 1.400 . S
C1419 C1420 1.398 . S
C1419 C1425 1.491 . S
C1420 H1411 0.950 . S
C1420 C1419 1.398 . S
C1420 C1421 1.391 . S
C1421 H1409 0.950 . S
C1421 C1417 1.393 . S
C1421 C1420 1.391 . S
C1422 H1412 0.950 . S
C1422 C1423 1.386 . S
C1422 C1424 1.391 . S
C1423 C1422 1.386 . S
C1423 C1427 1.393 . S
C1424 H1413 0.950 . S
C1424 C1422 1.391 . S
C1424 C1425 1.400 . S
C1425 C1419 1.491 . S
C1425 C1424 1.400 . S
C1425 C1426 1.398 . S
C1426 H1414 0.950 . S
C1426 C1425 1.398 . S
C1426 C1427 1.391 . S
C1427 H1415 0.950 . S
C1427 C1423 1.393 . S
C1427 C1426 1.391 . S
H1428 C1436 0.950 . S
H1429 C1441 0.950 . S
H1430 C1438 0.950 . S
H1431 C1440 0.950 . S
H1432 C1442 0.950 . S
H1433 C1444 0.950 . S
H1434 C1446 0.950 . S
H1435 C1447 0.950 . S
C1436 H1428 0.950 . S
C1436 C1437 1.386 . S
C1436 C1438 1.391 . S
C1437 C1436 1.386 . S
C1437 C1441 1.393 . S
C1438 H1430 0.950 . S
C1438 C1436 1.391 . S
C1438 C1439 1.400 . S
C1439 C1438 1.400 . S
C1439 C1440 1.398 . S
C1439 C1445 1.491 . S
C1440 H1431 0.950 . S
C1440 C1439 1.398 . S
C1440 C1441 1.391 . S
C1441 H1429 0.950 . S
C1441 C1437 1.393 . S
C1441 C1440 1.391 . S
C1442 H1432 0.950 . S
C1442 C1443 1.386 . S
C1442 C1444 1.391 . S
C1443 C1442 1.386 . S
C1443 C1447 1.393 . S
C1444 H1433 0.950 . S
C1444 C1442 1.391 . S
C1444 C1445 1.400 . S
C1445 C1439 1.491 . S
C1445 C1444 1.400 . S
C1445 C1446 1.398 . S
C1446 H1434 0.950 . S
C1446 C1445 1.398 . S
C1446 C1447 1.391 . S
C1447 H1435 0.950 . S
C1447 C1443 1.393 . S
C1447 C1446 1.391 . S
H1448 C1456 0.950 . S
H1449 C1461 0.950 . S
H1450 C1458 0.950 . S
H1451 C1460 0.950 . S
H1452 C1462 0.950 . S
H1453 C1464 0.950 . S
H1454 C1466 0.950 . S
H1455 C1467 0.950 . S
C1456 H1448 0.950 . S
C1456 C1457 1.386 . S
C1456 C1458 1.391 . S
C1457 C1456 1.386 . S
C1457 C1461 1.393 . S
C1458 H1450 0.950 . S
C1458 C1456 1.391 . S
C1458 C1459 1.400 . S
C1459 C1458 1.400 . S
C1459 C1460 1.398 . S
C1459 C1465 1.491 . S
C1460 H1451 0.950 . S
C1460 C1459 1.398 . S
C1460 C1461 1.391 . S
C1461 H1449 0.950 . S
C1461 C1457 1.393 . S
C1461 C1460 1.391 . S
C1462 H1452 0.950 . S
C1462 C1463 1.386 . S
C1462 C1464 1.391 . S
C1463 C1462 1.386 . S
C1463 C1467 1.393 . S
C1464 H1453 0.950 . S
C1464 C1462 1.391 . S
C1464 C1465 1.400 . S
C1465 C1459 1.491 . S
C1465 C1464 1.400 . S
C1465 C1466 1.398 . S
C1466 H1454 0.950 . S
C1466 C1465 1.398 . S
C1466 C1467 1.391 . S
C1467 H1455 0.950 . S
C1467 C1463 1.393 . S
C1467 C1466 1.391 . S
H1468 C1476 0.950 . S
H1469 C1481 0.950 . S
H1470 C1478 0.950 . S
H1471 C1480 0.950 . S
H1472 C1482 0.950 . S
H1473 C1484 0.950 . S
H1474 C1486 0.950 . S
H1475 C1487 0.950 . S
C1476 H1468 0.950 . S
C1476 C1477 1.386 . S
C1476 C1478 1.391 . S
C1477 C1476 1.386 . S
C1477 C1481 1.393 . S
C1478 H1470 0.950 . S
C1478 C1476 1.391 . S
C1478 C1479 1.400 . S
C1479 C1478 1.400 . S
C1479 C1480 1.398 . S
C1479 C1485 1.491 . S
C1480 H1471 0.950 . S
C1480 C1479 1.398 . S
C1480 C1481 1.391 . S
C1481 H1469 0.950 . S
C1481 C1477 1.393 . S
C1481 C1480 1.391 . S
C1482 H1472 0.950 . S
C1482 C1483 1.386 . S
C1482 C1484 1.391 . S
C1483 C1482 1.386 . S
C1483 C1487 1.393 . S
C1484 H1473 0.950 . S
C1484 C1482 1.391 . S
C1484 C1485 1.400 . S
C1485 C1479 1.491 . S
C1485 C1484 1.400 . S
C1485 C1486 1.398 . S
C1486 H1474 0.950 . S
C1486 C1485 1.398 . S
C1486 C1487 1.391 . S
C1487 H1475 0.950 . S
C1487 C1483 1.393 . S
C1487 C1486 1.391 . S
H1488 C1496 0.950 . S
H1489 C1501 0.950 . S
H1490 C1498 0.950 . S
H1491 C1500 0.950 . S
H1492 C1502 0.950 . S
H1493 C1504 0.950 . S
H1494 C1506 0.950 . S
H1495 C1507 0.950 . S
C1496 H1488 0.950 . S
C1496 C1497 1.386 . S
C1496 C1498 1.391 . S
C1497 C1496 1.386 . S
C1497 C1501 1.393 . S
C1498 H1490 0.950 . S
C1498 C1496 1.391 . S
C1498 C1499 1.400 . S
C1499 C1498 1.400 . S
C1499 C1500 1.398 . S
C1499 C1505 1.491 . S
C1500 H1491 0.950 . S
C1500 C1499 1.398 . S
C1500 C1501 1.391 . S
C1501 H1489 0.950 . S
C1501 C1497 1.393 . S
C1501 C1500 1.391 . S
C1502 H1492 0.950 . S
C1502 C1503 1.386 . S
C1502 C1504 1.391 . S
C1503 C1502 1.386 . S
C1503 C1507 1.393 . S
C1504 H1493 0.950 . S
C1504 C1502 1.391 . S
C1504 C1505 1.400 . S
C1505 C1499 1.491 . S
C1505 C1504 1.400 . S
C1505 C1506 1.398 . S
C1506 H1494 0.950 . S
C1506 C1505 1.398 . S
C1506 C1507 1.391 . S
C1507 H1495 0.950 . S
C1507 C1503 1.393 . S
C1507 C1506 1.391 . S
H1508 C1516 0.950 . S
H1509 C1521 0.950 . S
H1510 C1518 0.950 . S
H1511 C1520 0.950 . S
H1512 C1522 0.950 . S
H1513 C1524 0.950 . S
H1514 C1526 0.950 . S
H1515 C1527 0.950 . S
C1516 H1508 0.950 . S
C1516 C1517 1.386 . S
C1516 C1518 1.391 . S
C1517 C1516 1.386 . S
C1517 C1521 1.393 . S
C1518 H1510 0.950 . S
C1518 C1516 1.391 . S
C1518 C1519 1.400 . S
C1519 C1518 1.400 . S
C1519 C1520 1.398 . S
C1519 C1525 1.491 . S
C1520 H1511 0.950 . S
C1520 C1519 1.398 . S
C1520 C1521 1.391 . S
C1521 H1509 0.950 . S
C1521 C1517 1.393 . S
C1521 C1520 1.391 . S
C1522 H1512 0.950 . S
C1522 C1523 1.386 . S
C1522 C1524 1.391 . S
C1523 C1522 1.386 . S
C1523 C1527 1.393 . S
C1524 H1513 0.950 . S
C1524 C1522 1.391 . S
C1524 C1525 1.400 . S
C1525 C1519 1.491 . S
C1525 C1524 1.400 . S
C1525 C1526 1.398 . S
C1526 H1514 0.950 . S
C1526 C1525 1.398 . S
C1526 C1527 1.391 . S
C1527 H1515 0.950 . S
C1527 C1523 1.393 . S
C1527 C1526 1.391 . S
H1528 C1536 0.950 . S
H1529 C1541 0.950 . S
H1530 C1538 0.950 . S
H1531 C1540 0.950 . S
H1532 C1542 0.950 . S
H1533 C1544 0.950 . S
H1534 C1546 0.950 . S
H1535 C1547 0.950 . S
C1536 H1528 0.950 . S
C1536 C1537 1.386 . S
C1536 C1538 1.391 . S
C1537 C1536 1.386 . S
C1537 C1541 1.393 . S
C1538 H1530 0.950 . S
C1538 C1536 1.391 . S
C1538 C1539 1.400 . S
C1539 C1538 1.400 . S
C1539 C1540 1.398 . S
C1539 C1545 1.491 . S
C1540 H1531 0.950 . S
C1540 C1539 1.398 . S
C1540 C1541 1.391 . S
C1541 H1529 0.950 . S
C1541 C1537 1.393 . S
C1541 C1540 1.391 . S
C1542 H1532 0.950 . S
C1542 C1543 1.386 . S
C1542 C1544 1.391 . S
C1543 C1542 1.386 . S
C1543 C1547 1.393 . S
C1544 H1533 0.950 . S
C1544 C1542 1.391 . S
C1544 C1545 1.400 . S
C1545 C1539 1.491 . S
C1545 C1544 1.400 . S
C1545 C1546 1.398 . S
C1546 H1534 0.950 . S
C1546 C1545 1.398 . S
C1546 C1547 1.391 . S
C1547 H1535 0.950 . S
C1547 C1543 1.393 . S
C1547 C1546 1.391 . S
H1548 C1556 0.950 . S
H1549 C1561 0.950 . S
H1550 C1558 0.950 . S
H1551 C1560 0.950 . S
H1552 C1562 0.950 . S
H1553 C1564 0.950 . S
H1554 C1566 0.950 . S
H1555 C1567 0.950 . S
C1556 H1548 0.950 . S
C1556 C1557 1.386 . S
C1556 C1558 1.391 . S
C1557 C1556 1.386 . S
C1557 C1561 1.393 . S
C1558 H1550 0.950 . S
C1558 C1556 1.391 . S
C1558 C1559 1.400 . S
C1559 C1558 1.400 . S
C1559 C1560 1.398 . S
C1559 C1565 1.491 . S
C1560 H1551 0.950 . S
C1560 C1559 1.398 . S
C1560 C1561 1.391 . S
C1561 H1549 0.950 . S
C1561 C1557 1.393 . S
C1561 C1560 1.391 . S
C1562 H1552 0.950 . S
C1562 C1563 1.386 . S
C1562 C1564 1.391 . S
C1563 C1562 1.386 . S
C1563 C1567 1.393 . S
C1564 H1553 0.950 . S
C1564 C1562 1.391 . S
C1564 C1565 1.400 . S
C1565 C1559 1.491 . S
C1565 C1564 1.400 . S
C1565 C1566 1.398 . S
C1566 H1554 0.950 . S
C1566 C1565 1.398 . S
C1566 C1567 1.391 . S
C1567 H1555 0.950 . S
C1567 C1563 1.393 . S
C1567 C1566 1.391 . S
H1568 C1576 0.950 . S
H1569 C1581 0.950 . S
H1570 C1578 0.950 . S
H1571 C1580 0.950 . S
H1572 C1582 0.950 . S
H1573 C1584 0.950 . S
H1574 C1586 0.950 . S
H1575 C1587 0.950 . S
C1576 H1568 0.950 . S
C1576 C1577 1.386 . S
C1576 C1578 1.391 . S
C1577 C1576 1.386 . S
C1577 C1581 1.393 . S
C1578 H1570 0.950 . S
C1578 C1576 1.391 . S
C1578 C1579 1.400 . S
C1579 C1578 1.400 . S
C1579 C1580 1.398 . S
C1579 C1585 1.491 . S
C1580 H1571 0.950 . S
C1580 C1579 1.398 . S
C1580 C1581 1.391 . S
C1581 H1569 0.950 . S
C1581 C1577 1.393 . S
C1581 C1580 1.391 . S
C1582 H1572 0.950 . S
C1582 C1583 1.386 . S
C1582 C1584 1.391 . S
C1583 C1582 1.386 . S
C1583 C1587 1.393 . S
C1584 H1573 0.950 . S
C1584 C1582 1.391 . S
C1584 C1585 1.400 . S
C1585 C1579 1.491 . S
C1585 C1584 1.400 . S
C1585 C1586 1.398 . S
C1586 H1574 0.950 . S
C1586 C1585 1.398 . S
C1586 C1587 1.391 . S
C1587 H1575 0.950 . S
C1587 C1583 1.393 . S
C1587 C1586 1.391 . S
H1588 C1596 0.950 . S
H1589 C1601 0.950 . S
H1590 C1598 0.950 . S
H1591 C1600 0.950 . S
H1592 C1602 0.950 . S
H1593 C1604 0.950 . S
H1594 C1606 0.950 . S
H1595 C1607 0.950 . S
C1596 H1588 0.950 . S
C1596 C1597 1.386 . S
C1596 C1598 1.391 . S
C1597 C1596 1.386 . S
C1597 C1601 1.393 . S
C1598 H1590 0.950 . S
C1598 C1596 1.391 . S
C1598 C1599 1.400 . S
C1599 C1598 1.400 . S
C1599 C1600 1.398 . S
C1599 C1605 1.491 . S
C1600 H1591 0.950 . S
C1600 C1599 1.398 . S
C1600 C1601 1.391 . S
C1601 H1589 0.950 . S
C1601 C1597 1.393 . S
C1601 C1600 1.391 . S
C1602 H1592 0.950 . S
C1602 C1603 1.386 . S
C1602 C1604 1.391 . S
C1603 C1602 1.386 . S
C1603 C1607 1.393 . S
C1604 H1593 0.950 . S
C1604 C1602 1.391 . S
C1604 C1605 1.400 . S
C1605 C1599 1.491 . S
C1605 C1604 1.400 . S
C1605 C1606 1.398 . S
C1606 H1594 0.950 . S
C1606 C1605 1.398 . S
C1606 C1607 1.391 . S
C1607 H1595 0.950 . S
C1607 C1603 1.393 . S
C1607 C1606 1.391 . S
H1608 C1616 0.950 . S
H1609 C1621 0.950 . S
H1610 C1618 0.950 . S
H1611 C1620 0.950 . S
H1612 C1622 0.950 . S
H1613 C1624 0.950 . S
H1614 C1626 0.950 . S
H1615 C1627 0.950 . S
C1616 H1608 0.950 . S
C1616 C1617 1.386 . S
C1616 C1618 1.391 . S
C1617 C1616 1.386 . S
C1617 C1621 1.393 . S
C1618 H1610 0.950 . S
C1618 C1616 1.391 . S
C1618 C1619 1.400 . S
C1619 C1618 1.400 . S
C1619 C1620 1.398 . S
C1619 C1625 1.491 . S
C1620 H1611 0.950 . S
C1620 C1619 1.398 . S
C1620 C1621 1.391 . S
C1621 H1609 0.950 . S
C1621 C1617 1.393 . S
C1621 C1620 1.391 . S
C1622 H1612 0.950 . S
C1622 C1623 1.386 . S
C1622 C1624 1.391 . S
C1623 C1622 1.386 . S
C1623 C1627 1.393 . S
C1624 H1613 0.950 . S
C1624 C1622 1.391 . S
C1624 C1625 1.400 . S
C1625 C1619 1.491 . S
C1625 C1624 1.400 . S
C1625 C1626 1.398 . S
C1626 H1614 0.950 . S
C1626 C1625 1.398 . S
C1626 C1627 1.391 . S
C1627 H1615 0.950 . S
C1627 C1623 1.393 . S
C1627 C1626 1.391 . S
H1628 C1636 0.950 . S
H1629 C1641 0.950 . S
H1630 C1638 0.950 . S
H1631 C1640 0.950 . S
H1632 C1642 0.950 . S
H1633 C1644 0.950 . S
H1634 C1646 0.950 . S
H1635 C1647 0.950 . S
C1636 H1628 0.950 . S
C1636 C1637 1.386 . S
C1636 C1638 1.391 . S
C1637 C1636 1.386 . S
C1637 C1641 1.393 . S
C1638 H1630 0.950 . S
C1638 C1636 1.391 . S
C1638 C1639 1.400 . S
C1639 C1638 1.400 . S
C1639 C1640 1.398 . S
C1639 C1645 1.491 . S
C1640 H1631 0.950 . S
C1640 C1639 1.398 . S
C1640 C1641 1.391 . S
C1641 H1629 0.950 . S
C1641 C1637 1.393 . S
C1641 C1640 1.391 . S
C1642 H1632 0.950 . S
C1642 C1643 1.386 . S
C1642 C1644 1.391 . S
C1643 C1642 1.386 . S
C1643 C1647 1.393 . S
C1644 H1633 0.950 . S
C1644 C1642 1.391 . S
C1644 C1645 1.400 . S
C1645 C1639 1.491 . S
C1645 C1644 1.400 . S
C1645 C1646 1.398 . S
C1646 H1634 0.950 . S
C1646 C1645 1.398 . S
C1646 C1647 1.391 . S
C1647 H1635 0.950 . S
C1647 C1643 1.393 . S
C1647 C1646 1.391 . S
H1648 C1656 0.950 . S
H1649 C1661 0.950 . S
H1650 C1658 0.950 . S
H1651 C1660 0.950 . S
H1652 C1662 0.950 . S
H1653 C1664 0.950 . S
H1654 C1666 0.950 . S
H1655 C1667 0.950 . S
C1656 H1648 0.950 . S
C1656 C1657 1.386 . S
C1656 C1658 1.391 . S
C1657 C1656 1.386 . S
C1657 C1661 1.393 . S
C1658 H1650 0.950 . S
C1658 C1656 1.391 . S
C1658 C1659 1.400 . S
C1659 C1658 1.400 . S
C1659 C1660 1.398 . S
C1659 C1665 1.491 . S
C1660 H1651 0.950 . S
C1660 C1659 1.398 . S
C1660 C1661 1.391 . S
C1661 H1649 0.950 . S
C1661 C1657 1.393 . S
C1661 C1660 1.391 . S
C1662 H1652 0.950 . S
C1662 C1663 1.386 . S
C1662 C1664 1.391 . S
C1663 C1662 1.386 . S
C1663 C1667 1.393 . S
C1664 H1653 0.950 . S
C1664 C1662 1.391 . S
C1664 C1665 1.400 . S
C1665 C1659 1.491 . S
C1665 C1664 1.400 . S
C1665 C1666 1.398 . S
C1666 H1654 0.950 . S
C1666 C1665 1.398 . S
C1666 C1667 1.391 . S
C1667 H1655 0.950 . S
C1667 C1663 1.393 . S
C1667 C1666 1.391 . S
H1668 C1676 0.950 . S
H1669 C1681 0.950 . S
H1670 C1678 0.950 . S
H1671 C1680 0.950 . S
H1672 C1682 0.950 . S
H1673 C1684 0.950 . S
H1674 C1686 0.950 . S
H1675 C1687 0.950 . S
C1676 H1668 0.950 . S
C1676 C1677 1.386 . S
C1676 C1678 1.391 . S
C1677 C1676 1.386 . S
C1677 C1681 1.393 . S
C1678 H1670 0.950 . S
C1678 C1676 1.391 . S
C1678 C1679 1.400 . S
C1679 C1678 1.400 . S
C1679 C1680 1.398 . S
C1679 C1685 1.491 . S
C1680 H1671 0.950 . S
C1680 C1679 1.398 . S
C1680 C1681 1.391 . S
C1681 H1669 0.950 . S
C1681 C1677 1.393 . S
C1681 C1680 1.391 . S
C1682 H1672 0.950 . S
C1682 C1683 1.386 . S
C1682 C1684 1.391 . S
C1683 C1682 1.386 . S
C1683 C1687 1.393 . S
C1684 H1673 0.950 . S
C1684 C1682 1.391 . S
C1684 C1685 1.400 . S
C1685 C1679 1.491 . S
C1685 C1684 1.400 . S
C1685 C1686 1.398 . S
C1686 H1674 0.950 . S
C1686 C1685 1.398 . S
C1686 C1687 1.391 . S
C1687 H1675 0.950 . S
C1687 C1683 1.393 . S
C1687 C1686 1.391 . S
H1688 C1696 0.950 . S
H1689 C1701 0.950 . S
H1690 C1698 0.950 . S
H1691 C1700 0.950 . S
H1692 C1702 0.950 . S
H1693 C1704 0.950 . S
H1694 C1706 0.950 . S
H1695 C1707 0.950 . S
C1696 H1688 0.950 . S
C1696 C1697 1.386 . S
C1696 C1698 1.391 . S
C1697 C1696 1.386 . S
C1697 C1701 1.393 . S
C1698 H1690 0.950 . S
C1698 C1696 1.391 . S
C1698 C1699 1.400 . S
C1699 C1698 1.400 . S
C1699 C1700 1.398 . S
C1699 C1705 1.491 . S
C1700 H1691 0.950 . S
C1700 C1699 1.398 . S
C1700 C1701 1.391 . S
C1701 H1689 0.950 . S
C1701 C1697 1.393 . S
C1701 C1700 1.391 . S
C1702 H1692 0.950 . S
C1702 C1703 1.386 . S
C1702 C1704 1.391 . S
C1703 C1702 1.386 . S
C1703 C1707 1.393 . S
C1704 H1693 0.950 . S
C1704 C1702 1.391 . S
C1704 C1705 1.400 . S
C1705 C1699 1.491 . S
C1705 C1704 1.400 . S
C1705 C1706 1.398 . S
C1706 H1694 0.950 . S
C1706 C1705 1.398 . S
C1706 C1707 1.391 . S
C1707 H1695 0.950 . S
C1707 C1703 1.393 . S
C1707 C1706 1.391 . S
H1708 C1716 0.950 . S
H1709 C1721 0.950 . S
H1710 C1718 0.950 . S
H1711 C1720 0.950 . S
H1712 C1722 0.950 . S
H1713 C1724 0.950 . S
H1714 C1726 0.950 . S
H1715 C1727 0.950 . S
C1716 H1708 0.950 . S
C1716 C1717 1.386 . S
C1716 C1718 1.391 . S
C1717 C1716 1.386 . S
C1717 C1721 1.393 . S
C1718 H1710 0.950 . S
C1718 C1716 1.391 . S
C1718 C1719 1.400 . S
C1719 C1718 1.400 . S
C1719 C1720 1.398 . S
C1719 C1725 1.491 . S
C1720 H1711 0.950 . S
C1720 C1719 1.398 . S
C1720 C1721 1.391 . S
C1721 H1709 0.950 . S
C1721 C1717 1.393 . S
C1721 C1720 1.391 . S
C1722 H1712 0.950 . S
C1722 C1723 1.386 . S
C1722 C1724 1.391 . S
C1723 C1722 1.386 . S
C1723 C1727 1.393 . S
C1724 H1713 0.950 . S
C1724 C1722 1.391 . S
C1724 C1725 1.400 . S
C1725 C1719 1.491 . S
C1725 C1724 1.400 . S
C1725 C1726 1.398 . S
C1726 H1714 0.950 . S
C1726 C1725 1.398 . S
C1726 C1727 1.391 . S
C1727 H1715 0.950 . S
C1727 C1723 1.393 . S
C1727 C1726 1.391 . S
C457 C175 1.055 . S
C463 C3 1.048 . S
C477 C413 1.067 . S
C483 C17 1.027 . S
C497 C203 1.058 . S
C503 C31 1.051 . S
C517 C441 1.061 . S
C523 C45 1.019 . S
C537 C119 1.064 . S
C543 C59 1.040 . S
C557 C73 1.046 . S
C563 C357 1.055 . S
C577 C87 1.021 . S
C583 C147 1.060 . S
C597 C385 1.067 . S
C603 C101 1.019 . S
C617 C63 1.067 . S
C623 C115 1.018 . S
C637 C301 1.055 . S
C643 C129 1.040 . S
C657 C91 1.067 . S
C663 C143 1.017 . S
C677 C329 1.066 . S
C683 C157 1.015 . S
C697 C171 1.051 . S
C703 C7 1.059 . S
C717 C185 1.021 . S
C723 C245 1.060 . S
C737 C35 1.055 . S
C743 C199 1.042 . S
C757 C213 1.029 . S
C763 C273 1.057 . S
C777 C399 1.067 . S
C783 C227 1.023 . S
C797 C189 1.063 . S
C803 C241 1.016 . S
C817 C427 1.060 . S
C823 C255 1.022 . S
C837 C269 1.026 . S
C843 C217 1.058 . S
C857 C283 1.019 . S
C863 C343 1.067 . S
C877 C297 1.029 . S
C883 C133 1.067 . S
C897 C371 1.067 . S
C903 C311 1.016 . S
C917 C161 1.060 . S
C923 C325 1.020 . S
C937 C287 1.057 . S
C943 C339 1.051 . S
C957 C353 1.040 . S
C963 C77 1.055 . S
C977 C367 1.039 . S
C983 C315 1.055 . S
C997 C381 1.036 . S
C1003 C105 1.065 . S
C1017 C231 1.062 . S
C1023 C395 1.017 . S
C1037 C21 1.067 . S
C1043 C409 1.020 . S
C1057 C259 1.059 . S
C1063 C423 1.025 . S
C1077 C437 1.030 . S
C1083 C49 1.066 . S
C1097 C9 1.365 . S
C1103 C121 1.365 . S
C1117 C23 1.358 . S
C1123 C359 1.358 . S
C1137 C149 1.348 . S
C1143 C37 1.348 . S
C1157 C51 1.357 . S
C1163 C387 1.357 . S
C1177 C65 1.363 . S
C1183 C177 1.363 . S
C1197 C415 1.371 . S
C1203 C79 1.371 . S
C1217 C205 1.372 . S
C1223 C93 1.372 . S
C1237 C107 1.372 . S
C1243 C443 1.372 . S
C1257 C135 1.348 . S
C1263 C247 1.348 . S
C1277 C163 1.350 . S
C1283 C275 1.350 . S
C1297 C191 1.365 . S
C1303 C303 1.365 . S
C1317 C331 1.341 . S
C1323 C219 1.341 . S
C1337 C233 1.360 . S
C1343 C345 1.360 . S
C1357 C261 1.354 . S
C1363 C373 1.354 . S
C1377 C289 1.342 . S
C1383 C401 1.342 . S
C1397 C429 1.371 . S
C1403 C317 1.371 . S
C1417 C8 1.369 . S
C1423 C106 1.370 . S
C1437 C22 1.368 . S
C1443 C64 1.370 . S
C1457 C78 1.369 . S
C1463 C36 1.370 . S
C1477 C92 1.364 . S
C1483 C50 1.363 . S
C1497 C218 1.369 . S
C1503 C120 1.367 . S
C1517 C176 1.370 . S
C1523 C134 1.370 . S
C1537 C190 1.367 . S
C1543 C148 1.369 . S
C1557 C204 1.363 . S
C1563 C162 1.365 . S
C1577 C232 1.368 . S
C1583 C330 1.365 . S
C1597 C288 1.368 . S
C1603 C246 1.370 . S
C1617 C302 1.367 . S
C1623 C260 1.369 . S
C1637 C316 1.368 . S
C1643 C274 1.370 . S
C1657 C442 1.369 . S
C1663 C344 1.367 . S
C1677 C358 1.368 . S
C1683 C400 1.366 . S
C1697 C372 1.370 . S
C1703 C414 1.370 . S
C1717 C428 1.363 . S
C1723 C386 1.365 . S
