# Generated by pormake.
# Topology dei, (4)-cn, num edge types: 1
# Building blocks:
#     Node 0, Type 0, BuildingBlock: NAHDIM_clean_sbu_0, # of connection points: 4
#     Node 1, Type 0, BuildingBlock: NAHDIM_clean_sbu_0, # of connection points: 4
#     Node 2, Type 0, BuildingBlock: NAHDIM_clean_sbu_0, # of connection points: 4
#     Node 3, Type 0, BuildingBlock: NAHDIM_clean_sbu_0, # of connection points: 4
#     Node 4, Type 0, BuildingBlock: NAHDIM_clean_sbu_0, # of connection points: 4
#     Node 5, Type 0, BuildingBlock: NAHDIM_clean_sbu_0, # of connection points: 4
#     Node 6, Type 0, BuildingBlock: NAHDIM_clean_sbu_0, # of connection points: 4
#     Node 7, Type 0, BuildingBlock: NAHDIM_clean_sbu_0, # of connection points: 4
#     Node 8, Type 0, BuildingBlock: NAHDIM_clean_sbu_0, # of connection points: 4
#     Node 9, Type 0, BuildingBlock: NAHDIM_clean_sbu_0, # of connection points: 4
#     Node 10, Type 0, BuildingBlock: NAHDIM_clean_sbu_0, # of connection points: 4
#     Node 11, Type 0, BuildingBlock: NAHDIM_clean_sbu_0, # of connection points: 4
#     Node 12, Type 0, BuildingBlock: NAHDIM_clean_sbu_0, # of connection points: 4
#     Node 13, Type 0, BuildingBlock: NAHDIM_clean_sbu_0, # of connection points: 4
#     Node 14, Type 0, BuildingBlock: NAHDIM_clean_sbu_0, # of connection points: 4
#     Node 15, Type 0, BuildingBlock: NAHDIM_clean_sbu_0, # of connection points: 4
#     Node 16, Type 0, BuildingBlock: NAHDIM_clean_sbu_0, # of connection points: 4
#     Node 17, Type 0, BuildingBlock: NAHDIM_clean_sbu_0, # of connection points: 4
#     Node 18, Type 0, BuildingBlock: NAHDIM_clean_sbu_0, # of connection points: 4
#     Node 19, Type 0, BuildingBlock: NAHDIM_clean_sbu_0, # of connection points: 4
#     Node 20, Type 0, BuildingBlock: NAHDIM_clean_sbu_0, # of connection points: 4
#     Node 21, Type 0, BuildingBlock: NAHDIM_clean_sbu_0, # of connection points: 4
#     Node 22, Type 0, BuildingBlock: NAHDIM_clean_sbu_0, # of connection points: 4
#     Node 23, Type 0, BuildingBlock: NAHDIM_clean_sbu_0, # of connection points: 4
#     Node 24, Type 0, BuildingBlock: NAHDIM_clean_sbu_0, # of connection points: 4
#     Node 25, Type 0, BuildingBlock: NAHDIM_clean_sbu_0, # of connection points: 4
#     Node 26, Type 0, BuildingBlock: NAHDIM_clean_sbu_0, # of connection points: 4
#     Node 27, Type 0, BuildingBlock: NAHDIM_clean_sbu_0, # of connection points: 4
#     Node 28, Type 0, BuildingBlock: NAHDIM_clean_sbu_0, # of connection points: 4
#     Node 29, Type 0, BuildingBlock: NAHDIM_clean_sbu_0, # of connection points: 4
#     Node 30, Type 0, BuildingBlock: NAHDIM_clean_sbu_0, # of connection points: 4
#     Node 31, Type 0, BuildingBlock: NAHDIM_clean_sbu_0, # of connection points: 4
#     Edge 32, Type (0, 0), BuildingBlock: KIFKEQ_clean_linker_1, # of connection points: 2
#     Edge 33, Type (0, 0), BuildingBlock: KIFKEQ_clean_linker_1, # of connection points: 2
#     Edge 34, Type (0, 0), BuildingBlock: KIFKEQ_clean_linker_1, # of connection points: 2
#     Edge 35, Type (0, 0), BuildingBlock: KIFKEQ_clean_linker_1, # of connection points: 2
#     Edge 36, Type (0, 0), BuildingBlock: KIFKEQ_clean_linker_1, # of connection points: 2
#     Edge 37, Type (0, 0), BuildingBlock: KIFKEQ_clean_linker_1, # of connection points: 2
#     Edge 38, Type (0, 0), BuildingBlock: KIFKEQ_clean_linker_1, # of connection points: 2
#     Edge 39, Type (0, 0), BuildingBlock: KIFKEQ_clean_linker_1, # of connection points: 2
#     Edge 40, Type (0, 0), BuildingBlock: KIFKEQ_clean_linker_1, # of connection points: 2
#     Edge 41, Type (0, 0), BuildingBlock: KIFKEQ_clean_linker_1, # of connection points: 2
#     Edge 42, Type (0, 0), BuildingBlock: KIFKEQ_clean_linker_1, # of connection points: 2
#     Edge 43, Type (0, 0), BuildingBlock: KIFKEQ_clean_linker_1, # of connection points: 2
#     Edge 44, Type (0, 0), BuildingBlock: KIFKEQ_clean_linker_1, # of connection points: 2
#     Edge 45, Type (0, 0), BuildingBlock: KIFKEQ_clean_linker_1, # of connection points: 2
#     Edge 46, Type (0, 0), BuildingBlock: KIFKEQ_clean_linker_1, # of connection points: 2
#     Edge 47, Type (0, 0), BuildingBlock: KIFKEQ_clean_linker_1, # of connection points: 2
#     Edge 48, Type (0, 0), BuildingBlock: KIFKEQ_clean_linker_1, # of connection points: 2
#     Edge 49, Type (0, 0), BuildingBlock: KIFKEQ_clean_linker_1, # of connection points: 2
#     Edge 50, Type (0, 0), BuildingBlock: KIFKEQ_clean_linker_1, # of connection points: 2
#     Edge 51, Type (0, 0), BuildingBlock: KIFKEQ_clean_linker_1, # of connection points: 2
#     Edge 52, Type (0, 0), BuildingBlock: KIFKEQ_clean_linker_1, # of connection points: 2
#     Edge 53, Type (0, 0), BuildingBlock: KIFKEQ_clean_linker_1, # of connection points: 2
#     Edge 54, Type (0, 0), BuildingBlock: KIFKEQ_clean_linker_1, # of connection points: 2
#     Edge 55, Type (0, 0), BuildingBlock: KIFKEQ_clean_linker_1, # of connection points: 2
#     Edge 56, Type (0, 0), BuildingBlock: KIFKEQ_clean_linker_1, # of connection points: 2
#     Edge 57, Type (0, 0), BuildingBlock: KIFKEQ_clean_linker_1, # of connection points: 2
#     Edge 58, Type (0, 0), BuildingBlock: KIFKEQ_clean_linker_1, # of connection points: 2
#     Edge 59, Type (0, 0), BuildingBlock: KIFKEQ_clean_linker_1, # of connection points: 2
#     Edge 60, Type (0, 0), BuildingBlock: KIFKEQ_clean_linker_1, # of connection points: 2
#     Edge 61, Type (0, 0), BuildingBlock: KIFKEQ_clean_linker_1, # of connection points: 2
#     Edge 62, Type (0, 0), BuildingBlock: KIFKEQ_clean_linker_1, # of connection points: 2
#     Edge 63, Type (0, 0), BuildingBlock: KIFKEQ_clean_linker_1, # of connection points: 2
#     Edge 64, Type (0, 0), BuildingBlock: KIFKEQ_clean_linker_1, # of connection points: 2
#     Edge 65, Type (0, 0), BuildingBlock: KIFKEQ_clean_linker_1, # of connection points: 2
#     Edge 66, Type (0, 0), BuildingBlock: KIFKEQ_clean_linker_1, # of connection points: 2
#     Edge 67, Type (0, 0), BuildingBlock: KIFKEQ_clean_linker_1, # of connection points: 2
#     Edge 68, Type (0, 0), BuildingBlock: KIFKEQ_clean_linker_1, # of connection points: 2
#     Edge 69, Type (0, 0), BuildingBlock: KIFKEQ_clean_linker_1, # of connection points: 2
#     Edge 70, Type (0, 0), BuildingBlock: KIFKEQ_clean_linker_1, # of connection points: 2
#     Edge 71, Type (0, 0), BuildingBlock: KIFKEQ_clean_linker_1, # of connection points: 2
#     Edge 72, Type (0, 0), BuildingBlock: KIFKEQ_clean_linker_1, # of connection points: 2
#     Edge 73, Type (0, 0), BuildingBlock: KIFKEQ_clean_linker_1, # of connection points: 2
#     Edge 74, Type (0, 0), BuildingBlock: KIFKEQ_clean_linker_1, # of connection points: 2
#     Edge 75, Type (0, 0), BuildingBlock: KIFKEQ_clean_linker_1, # of connection points: 2
#     Edge 76, Type (0, 0), BuildingBlock: KIFKEQ_clean_linker_1, # of connection points: 2
#     Edge 77, Type (0, 0), BuildingBlock: KIFKEQ_clean_linker_1, # of connection points: 2
#     Edge 78, Type (0, 0), BuildingBlock: KIFKEQ_clean_linker_1, # of connection points: 2
#     Edge 79, Type (0, 0), BuildingBlock: KIFKEQ_clean_linker_1, # of connection points: 2
#     Edge 80, Type (0, 0), BuildingBlock: KIFKEQ_clean_linker_1, # of connection points: 2
#     Edge 81, Type (0, 0), BuildingBlock: KIFKEQ_clean_linker_1, # of connection points: 2
#     Edge 82, Type (0, 0), BuildingBlock: KIFKEQ_clean_linker_1, # of connection points: 2
#     Edge 83, Type (0, 0), BuildingBlock: KIFKEQ_clean_linker_1, # of connection points: 2
#     Edge 84, Type (0, 0), BuildingBlock: KIFKEQ_clean_linker_1, # of connection points: 2
#     Edge 85, Type (0, 0), BuildingBlock: KIFKEQ_clean_linker_1, # of connection points: 2
#     Edge 86, Type (0, 0), BuildingBlock: KIFKEQ_clean_linker_1, # of connection points: 2
#     Edge 87, Type (0, 0), BuildingBlock: KIFKEQ_clean_linker_1, # of connection points: 2
#     Edge 88, Type (0, 0), BuildingBlock: KIFKEQ_clean_linker_1, # of connection points: 2
#     Edge 89, Type (0, 0), BuildingBlock: KIFKEQ_clean_linker_1, # of connection points: 2
#     Edge 90, Type (0, 0), BuildingBlock: KIFKEQ_clean_linker_1, # of connection points: 2
#     Edge 91, Type (0, 0), BuildingBlock: KIFKEQ_clean_linker_1, # of connection points: 2
#     Edge 92, Type (0, 0), BuildingBlock: KIFKEQ_clean_linker_1, # of connection points: 2
#     Edge 93, Type (0, 0), BuildingBlock: KIFKEQ_clean_linker_1, # of connection points: 2
#     Edge 94, Type (0, 0), BuildingBlock: KIFKEQ_clean_linker_1, # of connection points: 2
#     Edge 95, Type (0, 0), BuildingBlock: KIFKEQ_clean_linker_1, # of connection points: 2
# Relax obj value: 0.225
# Max RMSD: 0.090
# Mean RMSD: 0.090
data_MOF--net-dei--node1-NAHDIM_clean_sbu_0--edge1-KIFKEQ_clean_linker_1
_symmetry_space_group_name_H-M    P1
_symmetry_Int_Tables_number       1
_symmetry_cell_setting            triclinic
loop_
_symmetry_equiv_pos_as_xyz
'x, y, z'
_cell_length_a     54.050669
_cell_length_b     54.046797
_cell_length_c     95.451211
_cell_angle_alpha  89.988474
_cell_angle_beta   89.945765
_cell_angle_gamma 89.989337
loop_
_atom_site_label
_atom_site_type_symbol
_atom_site_fract_x
_atom_site_fract_y
_atom_site_fract_z
_atom_type_partial_charge
C0 C 0.14107 0.57187 0.03351 0.0
O1 O 0.12633 0.56782 0.04421 0.0
O2 O 0.14033 0.6163 0.06234 0.0
Zn3 Zn 0.13128 0.62084 0.04198 0.0
O4 O 0.09414 0.61915 0.04006 0.0
C5 C 0.16472 0.66209 0.03663 0.0
O6 O 0.18186 0.6474 0.04174 0.0
O7 O 0.14661 0.59402 0.03036 0.0
C8 C 0.08169 0.63338 0.03214 0.0
O9 O 0.09331 0.64974 0.02437 0.0
C10 C 0.12477 0.60726 0.07092 0.0
O11 O 0.1029 0.60045 0.06634 0.0
O12 O 0.14263 0.6543 0.03564 0.0
C13 C 0.67753 0.91955 0.27824 0.0
O14 O 0.68277 0.92429 0.2914 0.0
O15 O 0.63865 0.90723 0.30888 0.0
Zn16 Zn 0.63318 0.89498 0.28922 0.0
O17 O 0.63583 0.85785 0.28919 0.0
C18 C 0.58902 0.92456 0.28483 0.0
O19 O 0.60255 0.94277 0.28976 0.0
O20 O 0.65754 0.9084 0.27524 0.0
C21 C 0.62469 0.84537 0.29855 0.0
O22 O 0.61196 0.85709 0.30823 0.0
C23 C 0.65597 0.89874 0.31648 0.0
O24 O 0.67169 0.88284 0.31107 0.0
O25 O 0.59858 0.90323 0.28348 0.0
C26 C 0.34835 0.43173 0.53131 0.0
O27 O 0.36326 0.43618 0.54187 0.0
O28 O 0.34792 0.38939 0.56112 0.0
Zn29 Zn 0.3562 0.38275 0.54087 0.0
O30 O 0.39324 0.38143 0.53845 0.0
C31 C 0.32473 0.33962 0.54206 0.0
O32 O 0.31445 0.3516 0.55252 0.0
O33 O 0.34218 0.40953 0.52871 0.0
C34 C 0.4055 0.36552 0.54537 0.0
O35 O 0.39362 0.35044 0.55383 0.0
C36 C 0.36274 0.40011 0.56948 0.0
O37 O 0.38429 0.40779 0.56481 0.0
O38 O 0.34235 0.3497 0.53533 0.0
C39 C 0.81797 0.08322 0.78512 0.0
O40 O 0.81196 0.08384 0.79844 0.0
O41 O 0.85856 0.09505 0.81458 0.0
Zn42 Zn 0.86452 0.10487 0.7945 0.0
O43 O 0.86368 0.14209 0.79315 0.0
C44 C 0.90917 0.07558 0.79491 0.0
O45 O 0.89725 0.06323 0.80467 0.0
O46 O 0.83925 0.09062 0.78132 0.0
C47 C 0.87734 0.15469 0.80129 0.0
O48 O 0.89148 0.14304 0.81034 0.0
C49 C 0.84334 0.10637 0.82245 0.0
O50 O 0.82994 0.12442 0.81722 0.0
O51 O 0.89854 0.09365 0.78889 0.0
C52 C 0.15766 0.43442 0.96496 0.0
O53 O 0.15857 0.43912 0.95148 0.0
O54 O 0.14517 0.39176 0.93639 0.0
Zn55 Zn 0.13505 0.38765 0.95651 0.0
O56 O 0.09784 0.3891 0.95765 0.0
C57 C 0.16789 0.34625 0.96092 0.0
O58 O 0.18443 0.36109 0.95533 0.0
O59 O 0.14921 0.41378 0.96917 0.0
C60 C 0.08513 0.3699 0.95494 0.0
O61 O 0.09659 0.3494 0.95138 0.0
C62 C 0.13453 0.40715 0.92833 0.0
O63 O 0.11725 0.42171 0.93342 0.0
O64 O 0.14598 0.35407 0.96282 0.0
C65 C 0.812 0.89708 0.20793 0.0
O66 O 0.80902 0.87874 0.19907 0.0
O67 O 0.85525 0.8994 0.17712 0.0
Zn68 Zn 0.86088 0.89252 0.19766 0.0
O69 O 0.86256 0.85565 0.20081 0.0
C70 C 0.90461 0.92336 0.1964 0.0
O71 O 0.89386 0.93234 0.18515 0.0
O72 O 0.83328 0.90676 0.20919 0.0
C73 C 0.87904 0.84313 0.19447 0.0
O74 O 0.89454 0.85463 0.18608 0.0
C75 C 0.84506 0.88379 0.16901 0.0
O76 O 0.83712 0.8627 0.17416 0.0
O77 O 0.89355 0.90689 0.20355 0.0
C78 C 0.33483 0.56506 0.46025 0.0
O79 O 0.33667 0.55902 0.44696 0.0
O80 O 0.34621 0.60561 0.43084 0.0
Zn81 Zn 0.35702 0.61071 0.45084 0.0
O82 O 0.39406 0.60736 0.45183 0.0
C83 C 0.33175 0.65843 0.45237 0.0
O84 O 0.31475 0.64809 0.44448 0.0
O85 O 0.34154 0.5865 0.46415 0.0
C86 C 0.40676 0.62161 0.44404 0.0
O87 O 0.3952 0.63709 0.43569 0.0
C88 C 0.35849 0.59136 0.42284 0.0
O89 O 0.37723 0.57887 0.42802 0.0
O90 O 0.34998 0.6456 0.45655 0.0
C91 C 0.68505 0.08915 0.71327 0.0
O92 O 0.68892 0.10453 0.70283 0.0
O93 O 0.64128 0.09202 0.68409 0.0
Zn94 Zn 0.63613 0.09853 0.70472 0.0
O95 O 0.63761 0.1353 0.70821 0.0
C96 C 0.58974 0.07176 0.70316 0.0
O97 O 0.59927 0.0631 0.69148 0.0
O98 O 0.66301 0.08268 0.71607 0.0
C99 C 0.61832 0.14874 0.70784 0.0
O100 O 0.59681 0.13841 0.70527 0.0
C101 C 0.65018 0.10838 0.67594 0.0
O102 O 0.65687 0.12987 0.68112 0.0
O103 O 0.60255 0.08626 0.71071 0.0
C104 C 0.8244 0.42778 0.9648 0.0
O105 O 0.81811 0.4324 0.95178 0.0
O106 O 0.83696 0.38916 0.93413 0.0
Zn107 Zn 0.84869 0.38309 0.95382 0.0
O108 O 0.88597 0.3845 0.95363 0.0
C109 C 0.82172 0.33655 0.95378 0.0
O110 O 0.80958 0.34651 0.94328 0.0
O111 O 0.83641 0.40821 0.96766 0.0
C112 C 0.8988 0.37097 0.96174 0.0
O113 O 0.88748 0.35605 0.97052 0.0
C114 C 0.84577 0.40651 0.92665 0.0
O115 O 0.86174 0.42197 0.93222 0.0
O116 O 0.83845 0.34901 0.95991 0.0
C117 C 0.31569 0.10564 0.71592 0.0
O118 O 0.31156 0.12242 0.70623 0.0
O119 O 0.35901 0.10732 0.68632 0.0
Zn120 Zn 0.36398 0.11547 0.70672 0.0
O121 O 0.36114 0.15239 0.70961 0.0
C122 C 0.40619 0.08295 0.7093 0.0
O123 O 0.3916 0.06711 0.70292 0.0
O124 O 0.33778 0.09875 0.71819 0.0
C125 C 0.37999 0.16644 0.70992 0.0
O126 O 0.40212 0.15673 0.70848 0.0
C127 C 0.3496 0.12273 0.67779 0.0
O128 O 0.34258 0.14453 0.68238 0.0
O129 O 0.39794 0.10428 0.71237 0.0
C130 C 0.65525 0.56091 0.46005 0.0
O131 O 0.6442 0.55527 0.44823 0.0
O132 O 0.65348 0.60371 0.43044 0.0
Zn133 Zn 0.6432 0.60917 0.45055 0.0
O134 O 0.60601 0.60733 0.45178 0.0
C135 C 0.67336 0.65359 0.45298 0.0
O136 O 0.68998 0.64071 0.44606 0.0
O137 O 0.65782 0.58354 0.46332 0.0
C138 C 0.59338 0.6258 0.44769 0.0
O139 O 0.60496 0.64552 0.44302 0.0
C140 C 0.63893 0.59297 0.42193 0.0
O141 O 0.61764 0.58451 0.42653 0.0
O142 O 0.65303 0.64342 0.45636 0.0
C143 C 0.17898 0.90512 0.20803 0.0
O144 O 0.18495 0.8964 0.19564 0.0
O145 O 0.13769 0.90018 0.17864 0.0
Zn146 Zn 0.13121 0.89057 0.19874 0.0
O147 O 0.13291 0.85343 0.2005 0.0
C148 C 0.08803 0.92249 0.20115 0.0
O149 O 0.10208 0.9391 0.195 0.0
O150 O 0.15637 0.90537 0.21166 0.0
C151 C 0.11902 0.84142 0.20882 0.0
O152 O 0.10326 0.8535 0.21676 0.0
C153 C 0.14829 0.88514 0.17034 0.0
O154 O 0.15581 0.86363 0.17514 0.0
O155 O 0.09694 0.90131 0.20393 0.0
C156 C 0.84491 0.56477 0.03364 0.0
O157 O 0.86578 0.56413 0.04068 0.0
O158 O 0.84013 0.6123 0.06472 0.0
Zn159 Zn 0.84639 0.61381 0.0439 0.0
O160 O 0.8833 0.61418 0.0408 0.0
C161 C 0.81571 0.65756 0.0427 0.0
O162 O 0.80611 0.64825 0.0542 0.0
O163 O 0.83221 0.58455 0.03369 0.0
C164 C 0.89573 0.63413 0.04118 0.0
O165 O 0.88426 0.6551 0.04368 0.0
C166 C 0.83462 0.59306 0.07171 0.0
O167 O 0.83219 0.57176 0.06524 0.0
O168 O 0.83241 0.64553 0.03626 0.0
C169 C 0.18185 0.08026 0.78595 0.0
O170 O 0.18706 0.07529 0.79908 0.0
O171 O 0.14518 0.09301 0.81685 0.0
Zn172 Zn 0.13813 0.10498 0.79732 0.0
O173 O 0.14054 0.14221 0.79731 0.0
C174 C 0.09365 0.07487 0.79353 0.0
O175 O 0.10727 0.05639 0.79805 0.0
O176 O 0.16197 0.09167 0.783 0.0
C177 C 0.12794 0.15485 0.78864 0.0
O178 O 0.11388 0.14329 0.77953 0.0
C179 C 0.16274 0.10249 0.82387 0.0
O180 O 0.17701 0.11915 0.81792 0.0
O181 O 0.10325 0.0962 0.7923 0.0
C182 C 0.6563 0.42855 0.53248 0.0
O183 O 0.64775 0.43431 0.54494 0.0
O184 O 0.65008 0.38517 0.56129 0.0
Zn185 Zn 0.64188 0.37954 0.54094 0.0
O186 O 0.60473 0.37967 0.53886 0.0
C187 C 0.67181 0.33524 0.54178 0.0
O188 O 0.68225 0.34656 0.55242 0.0
O189 O 0.65624 0.40604 0.52864 0.0
C190 C 0.59227 0.3605 0.54198 0.0
O191 O 0.60399 0.34054 0.54619 0.0
C192 C 0.63505 0.39602 0.5695 0.0
O193 O 0.61424 0.40485 0.56445 0.0
O194 O 0.6547 0.34614 0.53505 0.0
C195 C 0.31236 0.90144 0.27969 0.0
O196 O 0.30736 0.89007 0.29152 0.0
O197 O 0.35622 0.90105 0.30853 0.0
Zn198 Zn 0.36182 0.89134 0.28839 0.0
O199 O 0.36239 0.85407 0.287 0.0
C200 C 0.40524 0.92253 0.28802 0.0
O201 O 0.3938 0.93387 0.29833 0.0
O202 O 0.3348 0.9046 0.27616 0.0
C203 C 0.38208 0.84223 0.28984 0.0
O204 O 0.40203 0.85461 0.29339 0.0
C205 C 0.34634 0.88624 0.31723 0.0
O206 O 0.33896 0.86438 0.31291 0.0
O207 O 0.39473 0.90442 0.28198 0.0
C208 C 0.6445 0.05997 0.53201 0.0
O209 O 0.62707 0.05634 0.54138 0.0
O210 O 0.6494 0.10377 0.56315 0.0
Zn211 Zn 0.63973 0.10839 0.5429 0.0
O212 O 0.60251 0.10781 0.54161 0.0
C213 C 0.67173 0.15138 0.53934 0.0
O214 O 0.68805 0.13828 0.54634 0.0
O215 O 0.65374 0.08147 0.53074 0.0
C216 C 0.5904 0.12698 0.54514 0.0
O217 O 0.60251 0.14676 0.54925 0.0
C218 C 0.63492 0.09252 0.57151 0.0
O219 O 0.61423 0.08314 0.56666 0.0
O220 O 0.65089 0.14187 0.53641 0.0
C221 C 0.18068 0.41293 0.78671 0.0
O222 O 0.18768 0.40772 0.79954 0.0
O223 O 0.13773 0.40163 0.81584 0.0
Zn224 Zn 0.13404 0.39153 0.79568 0.0
O225 O 0.13824 0.35454 0.79419 0.0
C226 C 0.08982 0.42096 0.79134 0.0
O227 O 0.10317 0.43892 0.79671 0.0
O228 O 0.1586 0.40829 0.783 0.0
C229 C 0.11991 0.34067 0.79702 0.0
O230 O 0.09894 0.35084 0.80094 0.0
C231 C 0.15251 0.3905 0.82404 0.0
O232 O 0.16654 0.37264 0.81912 0.0
O233 O 0.09955 0.39979 0.78961 0.0
C234 C 0.83071 0.92621 0.02833 0.0
O235 O 0.82547 0.92781 0.04174 0.0
O236 O 0.84705 0.88669 0.05668 0.0
Zn237 Zn 0.8566 0.8813 0.03651 0.0
O238 O 0.89377 0.88113 0.03512 0.0
C239 C 0.82319 0.83982 0.03343 0.0
O240 O 0.80725 0.85459 0.03961 0.0
O241 O 0.84308 0.90782 0.02388 0.0
C242 C 0.90603 0.86674 0.04303 0.0
O243 O 0.89407 0.85245 0.05188 0.0
C244 C 0.85972 0.90077 0.06455 0.0
O245 O 0.87858 0.91288 0.05921 0.0
O246 O 0.84478 0.84775 0.0307 0.0
C247 C 0.31752 0.59298 0.2815 0.0
O248 O 0.31202 0.60402 0.29335 0.0
O249 O 0.3594 0.59783 0.31061 0.0
Zn250 Zn 0.36624 0.60568 0.29029 0.0
O251 O 0.3667 0.64268 0.28762 0.0
C252 C 0.41122 0.57672 0.2922 0.0
O253 O 0.40042 0.56738 0.30335 0.0
O254 O 0.34007 0.59097 0.27794 0.0
C255 C 0.38261 0.65545 0.29423 0.0
O256 O 0.39832 0.64409 0.30254 0.0
C257 C 0.34866 0.61308 0.31874 0.0
O258 O 0.34102 0.63439 0.31373 0.0
O259 O 0.39978 0.59271 0.2849 0.0
C260 C 0.66087 0.92906 0.45882 0.0
O261 O 0.66324 0.93526 0.44559 0.0
O262 O 0.65036 0.88999 0.42833 0.0
Zn263 Zn 0.63976 0.88275 0.44814 0.0
O264 O 0.60251 0.88297 0.44873 0.0
C265 C 0.66863 0.83768 0.44709 0.0
O266 O 0.67966 0.84893 0.43661 0.0
O267 O 0.65225 0.9079 0.46197 0.0
C268 C 0.59094 0.88359 0.46033 0.0
O269 O 0.60361 0.88397 0.47207 0.0
C270 C 0.63969 0.90634 0.42092 0.0
O271 O 0.62204 0.91983 0.42652 0.0
O272 O 0.65145 0.84878 0.45368 0.0
C273 C 0.30763 0.41269 0.71174 0.0
O274 O 0.30173 0.39991 0.70052 0.0
O275 O 0.34835 0.40811 0.68143 0.0
Zn276 Zn 0.35504 0.40015 0.7017 0.0
O277 O 0.35311 0.36313 0.70438 0.0
C278 C 0.40603 0.39818 0.69933 0.0
O279 O 0.39861 0.38073 0.69072 0.0
O280 O 0.33034 0.41631 0.71445 0.0
C281 C 0.36439 0.35216 0.71427 0.0
O282 O 0.37696 0.36533 0.72339 0.0
C283 C 0.3381 0.39242 0.6734 0.0
O284 O 0.33038 0.37132 0.67864 0.0
O285 O 0.38988 0.41075 0.70589 0.0
C286 C 0.83557 0.07099 0.96389 0.0
O287 O 0.82453 0.07273 0.95168 0.0
O288 O 0.8547 0.10788 0.93417 0.0
Zn289 Zn 0.86676 0.11166 0.95394 0.0
O290 O 0.90393 0.1097 0.95373 0.0
C291 C 0.83502 0.15335 0.95922 0.0
O292 O 0.81797 0.1385 0.95417 0.0
O293 O 0.85323 0.0856 0.96684 0.0
C294 C 0.91596 0.12681 0.94764 0.0
O295 O 0.90372 0.14505 0.94175 0.0
C296 C 0.85984 0.08921 0.92663 0.0
O297 O 0.87255 0.07086 0.93208 0.0
O298 O 0.85702 0.14544 0.96053 0.0
C299 C 0.18325 0.58733 0.2109 0.0
O300 O 0.1886 0.5951 0.19822 0.0
O301 O 0.1389 0.59784 0.18305 0.0
Zn302 Zn 0.13489 0.6052 0.2036 0.0
O303 O 0.1366 0.64212 0.20642 0.0
C304 C 0.09157 0.57366 0.20615 0.0
O305 O 0.10473 0.55776 0.19887 0.0
O306 O 0.16112 0.58902 0.21529 0.0
C307 C 0.1176 0.65515 0.20375 0.0
O308 O 0.09738 0.64415 0.19934 0.0
C309 C 0.15033 0.61281 0.17506 0.0
O310 O 0.16068 0.63259 0.1805 0.0
O311 O 0.10116 0.59418 0.20965 0.0
C312 C 0.34085 0.93972 0.4597 0.0
O313 O 0.35145 0.9469 0.448 0.0
O314 O 0.34574 0.90003 0.42904 0.0
Zn315 Zn 0.35518 0.89283 0.44902 0.0
O316 O 0.39231 0.89513 0.45094 0.0
C317 C 0.35703 0.84136 0.44691 0.0
O318 O 0.37498 0.84804 0.43842 0.0
O319 O 0.33947 0.91674 0.46237 0.0
C320 C 0.40398 0.88464 0.46086 0.0
O321 O 0.39152 0.87233 0.47041 0.0
C322 C 0.36049 0.9111 0.42077 0.0
O323 O 0.3817 0.91932 0.42561 0.0
O324 O 0.34473 0.85799 0.45322 0.0
C325 C 0.82113 0.57942 0.21302 0.0
O326 O 0.8202 0.57081 0.20016 0.0
O327 O 0.85594 0.5982 0.18315 0.0
Zn328 Zn 0.8639 0.60725 0.20309 0.0
O329 O 0.86459 0.6445 0.20427 0.0
C330 C 0.90809 0.57712 0.20135 0.0
O331 O 0.89688 0.56764 0.19039 0.0
O332 O 0.83809 0.59457 0.21638 0.0
C333 C 0.88406 0.65666 0.20135 0.0
O334 O 0.90427 0.64461 0.19787 0.0
C335 C 0.83952 0.61022 0.1765 0.0
O336 O 0.82731 0.62785 0.18299 0.0
O337 O 0.89727 0.59382 0.20846 0.0
C338 C 0.18264 0.07631 0.96551 0.0
O339 O 0.19478 0.07784 0.95361 0.0
O340 O 0.16366 0.11153 0.93513 0.0
Zn341 Zn 0.15254 0.11741 0.95493 0.0
O342 O 0.11527 0.11656 0.95529 0.0
C343 C 0.18015 0.16329 0.95513 0.0
O344 O 0.19174 0.15328 0.94444 0.0
O345 O 0.16504 0.09127 0.96799 0.0
C346 C 0.10289 0.12626 0.94539 0.0
O347 O 0.11474 0.13686 0.93497 0.0
C348 C 0.15759 0.09217 0.92841 0.0
O349 O 0.14475 0.07488 0.93481 0.0
O350 O 0.16334 0.15106 0.96136 0.0
C351 C 0.6837 0.39407 0.7121 0.0
O352 O 0.6886 0.37864 0.70183 0.0
O353 O 0.64032 0.392 0.68221 0.0
Zn354 Zn 0.63573 0.38325 0.7026 0.0
O355 O 0.63871 0.34627 0.7049 0.0
C356 C 0.58992 0.41188 0.70468 0.0
O357 O 0.60146 0.42851 0.69705 0.0
O358 O 0.66132 0.39982 0.71453 0.0
C359 C 0.62659 0.33462 0.71421 0.0
O360 O 0.61244 0.34706 0.72292 0.0
C361 C 0.64999 0.3766 0.67375 0.0
O362 O 0.65781 0.3552 0.67853 0.0
O363 O 0.60136 0.39247 0.70843 0.0
C364 C 0.33881 0.06419 0.53605 0.0
O365 O 0.34864 0.05747 0.54803 0.0
O366 O 0.34474 0.10773 0.56568 0.0
Zn367 Zn 0.35389 0.11237 0.54536 0.0
O368 O 0.39091 0.11062 0.54334 0.0
C369 C 0.32289 0.15595 0.5417 0.0
O370 O 0.30569 0.14265 0.54786 0.0
O371 O 0.33826 0.087 0.53286 0.0
C372 C 0.40383 0.12595 0.55029 0.0
O373 O 0.39254 0.14189 0.55849 0.0
C374 C 0.35861 0.09548 0.5739 0.0
O375 O 0.37835 0.08447 0.56883 0.0
O376 O 0.344 0.14644 0.53942 0.0
C377 C 0.68119 0.58097 0.28073 0.0
O378 O 0.68295 0.57427 0.29392 0.0
O379 O 0.64462 0.59811 0.31015 0.0
Zn380 Zn 0.63863 0.60919 0.29032 0.0
O381 O 0.64032 0.64639 0.28984 0.0
C382 C 0.59513 0.57828 0.28761 0.0
O383 O 0.60893 0.56162 0.29388 0.0
O384 O 0.66369 0.5952 0.27698 0.0
C385 C 0.62302 0.65857 0.29566 0.0
O386 O 0.60468 0.64649 0.30158 0.0
C387 C 0.65895 0.61037 0.31809 0.0
O388 O 0.67072 0.62965 0.31299 0.0
O389 O 0.60433 0.5993 0.28473 0.0
C390 C 0.17409 0.92215 0.02314 0.0
O391 O 0.19248 0.90734 0.02639 0.0
O392 O 0.15129 0.89218 0.05842 0.0
Zn393 Zn 0.14171 0.88754 0.03829 0.0
O394 O 0.10457 0.88572 0.03741 0.0
C395 C 0.17369 0.84484 0.03699 0.0
O396 O 0.18453 0.85572 0.04765 0.0
O397 O 0.15226 0.91678 0.02702 0.0
C398 C 0.09291 0.86638 0.04112 0.0
O399 O 0.10544 0.84695 0.04536 0.0
C400 C 0.1385 0.90631 0.06622 0.0
O401 O 0.11973 0.91839 0.06078 0.0
O402 O 0.15575 0.85564 0.03093 0.0
C403 C 0.81445 0.41279 0.7846 0.0
O404 O 0.80858 0.41494 0.79789 0.0
O405 O 0.85433 0.40187 0.81466 0.0
Zn406 Zn 0.8608 0.39117 0.79479 0.0
O407 O 0.86026 0.35385 0.7943 0.0
C408 C 0.90566 0.42038 0.795 0.0
O409 O 0.89433 0.4323 0.80514 0.0
O410 O 0.83541 0.40397 0.78121 0.0
C411 C 0.87923 0.34164 0.79806 0.0
O412 O 0.89908 0.35368 0.80212 0.0
C413 C 0.83805 0.39127 0.82217 0.0
O414 O 0.82432 0.37376 0.81663 0.0
O415 O 0.89462 0.40266 0.78888 0.0
H416 H 0.12957 0.5747 0.16034 0.0
H417 H 0.17029 0.6429 0.15504 0.0
H418 H 0.12582 0.57087 0.13499 0.0
H419 H 0.16601 0.63936 0.12974 0.0
H420 H 0.16873 0.61759 0.08393 0.0
H421 H 0.17756 0.6162 0.109 0.0
H422 H 0.10265 0.59207 0.11702 0.0
H423 H 0.09404 0.59284 0.09205 0.0
C424 C 0.13786 0.58879 0.15377 0.0
C425 C 0.15006 0.60921 0.15971 0.0
C426 C 0.13559 0.58667 0.13925 0.0
C427 C 0.14541 0.60493 0.13034 0.0
C428 C 0.15843 0.62485 0.13628 0.0
C429 C 0.16075 0.62695 0.1508 0.0
C430 C 0.15423 0.61181 0.09105 0.0
C431 C 0.13066 0.6054 0.08601 0.0
C432 C 0.15926 0.61112 0.10541 0.0
C433 C 0.14081 0.60405 0.11502 0.0
C434 C 0.11741 0.59722 0.10991 0.0
C435 C 0.11241 0.59784 0.09558 0.0
H436 H 0.66685 0.87463 0.40485 0.0
H437 H 0.62602 0.94328 0.40295 0.0
H438 H 0.67309 0.87604 0.37968 0.0
H439 H 0.6332 0.94533 0.37775 0.0
H440 H 0.61994 0.92069 0.33218 0.0
H441 H 0.61867 0.92524 0.35747 0.0
H442 H 0.69256 0.89496 0.36037 0.0
H443 H 0.69331 0.88939 0.33503 0.0
C444 C 0.65961 0.8903 0.39908 0.0
C445 C 0.64572 0.90872 0.40587 0.0
C446 C 0.66335 0.89122 0.38462 0.0
C447 C 0.65356 0.91076 0.3766 0.0
C448 C 0.64058 0.92975 0.38353 0.0
C449 C 0.63658 0.92866 0.39798 0.0
C450 C 0.63604 0.91527 0.33819 0.0
C451 C 0.65663 0.90444 0.33162 0.0
C452 C 0.63539 0.91803 0.35273 0.0
C453 C 0.65545 0.91031 0.36104 0.0
C454 C 0.67656 0.90061 0.35435 0.0
C455 C 0.67707 0.89756 0.33981 0.0
H456 H 0.32097 0.36106 0.65322 0.0
H457 H 0.3541 0.43314 0.65894 0.0
H458 H 0.32459 0.36565 0.62797 0.0
H459 H 0.35718 0.43797 0.63359 0.0
H460 H 0.39154 0.41881 0.59044 0.0
H461 H 0.38255 0.4195 0.61542 0.0
H462 H 0.31048 0.3879 0.60747 0.0
H463 H 0.31969 0.38665 0.58248 0.0
C464 C 0.32864 0.37808 0.64909 0.0
C465 C 0.33747 0.39663 0.6581 0.0
C466 C 0.33058 0.38077 0.63459 0.0
C467 C 0.34133 0.40211 0.62877 0.0
C468 C 0.34918 0.42113 0.63777 0.0
C469 C 0.34727 0.41842 0.65228 0.0
C470 C 0.37369 0.4122 0.594 0.0
C471 C 0.35642 0.40247 0.58449 0.0
C472 C 0.36846 0.41276 0.60832 0.0
C473 C 0.34582 0.40368 0.61344 0.0
C474 C 0.32822 0.39471 0.60387 0.0
C475 C 0.33348 0.39409 0.58955 0.0
H476 H 0.86443 0.05127 0.90781 0.0
H477 H 0.84078 0.12739 0.9114 0.0
H478 H 0.85683 0.05267 0.88263 0.0
H479 H 0.8341 0.12911 0.88628 0.0
H480 H 0.80968 0.12281 0.84171 0.0
H481 H 0.81001 0.11589 0.86695 0.0
H482 H 0.87565 0.0708 0.86261 0.0
H483 H 0.87472 0.07694 0.8374 0.0
C484 C 0.85753 0.06826 0.90323 0.0
C485 C 0.85337 0.08925 0.91158 0.0
C486 C 0.8533 0.06912 0.88879 0.0
C487 C 0.84501 0.09106 0.88237 0.0
C488 C 0.84013 0.11178 0.89084 0.0
C489 C 0.84414 0.11085 0.90527 0.0
C490 C 0.82399 0.11119 0.84615 0.0
C491 C 0.84226 0.10057 0.83757 0.0
C492 C 0.82428 0.10732 0.86062 0.0
C493 C 0.84298 0.09295 0.86686 0.0
C494 C 0.86076 0.08169 0.85819 0.0
C495 C 0.86033 0.08536 0.84371 0.0
H496 H 0.12302 0.44281 0.90912 0.0
H497 H 0.15893 0.37181 0.91338 0.0
H498 H 0.13031 0.44177 0.88392 0.0
H499 H 0.16513 0.37009 0.88821 0.0
H500 H 0.18759 0.37836 0.84341 0.0
H501 H 0.18616 0.3854 0.86861 0.0
H502 H 0.11517 0.42145 0.86402 0.0
H503 H 0.1173 0.4155 0.83882 0.0
C504 C 0.13247 0.42698 0.90466 0.0
C505 C 0.14031 0.40736 0.91321 0.0
C506 C 0.13652 0.42629 0.8902 0.0
C507 C 0.14817 0.40576 0.88395 0.0
C508 C 0.15649 0.38641 0.89261 0.0
C509 C 0.15278 0.38729 0.90707 0.0
C510 C 0.17183 0.38803 0.8478 0.0
C511 C 0.15251 0.39627 0.83916 0.0
C512 C 0.17091 0.39193 0.86226 0.0
C513 C 0.15043 0.4038 0.86843 0.0
C514 C 0.13142 0.41259 0.85968 0.0
C515 C 0.13255 0.40903 0.84521 0.0
H516 H 0.82021 0.88124 0.07861 0.0
H517 H 0.88799 0.92212 0.08493 0.0
H518 H 0.81381 0.87962 0.10387 0.0
H519 H 0.88203 0.91983 0.11016 0.0
H520 H 0.8572 0.92632 0.15505 0.0
H521 H 0.85784 0.93306 0.1298 0.0
H522 H 0.83186 0.85831 0.12328 0.0
H523 H 0.83048 0.85187 0.14847 0.0
C524 C 0.83369 0.88997 0.08539 0.0
C525 C 0.85469 0.90167 0.07977 0.0
C526 C 0.8301 0.88892 0.09988 0.0
C527 C 0.8475 0.8994 0.10907 0.0
C528 C 0.86808 0.91181 0.1034 0.0
C529 C 0.87159 0.91301 0.08892 0.0
C530 C 0.85139 0.91142 0.14822 0.0
C531 C 0.84389 0.88852 0.15376 0.0
C532 C 0.85188 0.91524 0.13374 0.0
C533 C 0.84502 0.8962 0.12448 0.0
C534 C 0.83693 0.87352 0.13008 0.0
C535 C 0.83629 0.86975 0.14455 0.0
H536 H 0.31977 0.61257 0.40883 0.0
H537 H 0.38606 0.56929 0.40243 0.0
H538 H 0.31394 0.61517 0.38354 0.0
H539 H 0.38074 0.57259 0.37724 0.0
H540 H 0.35824 0.56937 0.33211 0.0
H541 H 0.35697 0.56125 0.35722 0.0
H542 H 0.33331 0.63655 0.36459 0.0
H543 H 0.33375 0.64436 0.33952 0.0
C544 C 0.33301 0.60349 0.40203 0.0
C545 C 0.35347 0.59088 0.40763 0.0
C546 C 0.32976 0.6051 0.38753 0.0
C547 C 0.34698 0.59428 0.37833 0.0
C548 C 0.36693 0.58089 0.38398 0.0
C549 C 0.37008 0.57912 0.39846 0.0
C550 C 0.35251 0.5841 0.3391 0.0
C551 C 0.34624 0.60756 0.33384 0.0
C552 C 0.3519 0.57948 0.3535 0.0
C553 C 0.34519 0.59828 0.36296 0.0
C554 C 0.33823 0.62152 0.35762 0.0
C555 C 0.33865 0.62607 0.34323 0.0
H556 H 0.66485 0.14064 0.65555 0.0
H557 H 0.63836 0.06598 0.66178 0.0
H558 H 0.66367 0.13455 0.63031 0.0
H559 H 0.63779 0.05969 0.63649 0.0
H560 H 0.60642 0.07219 0.59208 0.0
H561 H 0.6128 0.07421 0.61724 0.0
H562 H 0.68183 0.11285 0.61064 0.0
H563 H 0.67512 0.11137 0.58536 0.0
C564 C 0.6591 0.12281 0.65155 0.0
C565 C 0.65149 0.10388 0.66068 0.0
C566 C 0.65859 0.11925 0.63706 0.0
C567 C 0.65053 0.09666 0.63137 0.0
C568 C 0.64372 0.07744 0.64053 0.0
C569 C 0.64417 0.08102 0.65502 0.0
C570 C 0.62307 0.08093 0.59596 0.0
C571 C 0.64016 0.09178 0.58671 0.0
C572 C 0.62683 0.08194 0.61041 0.0
C573 C 0.6478 0.09376 0.61597 0.0
C574 C 0.66531 0.10392 0.6067 0.0
C575 C 0.66152 0.10295 0.59222 0.0
H576 H 0.87056 0.4174 0.83823 0.0
H577 H 0.80077 0.3786 0.84014 0.0
H578 H 0.86933 0.42356 0.86343 0.0
H579 H 0.7989 0.38572 0.86533 0.0
H580 H 0.82289 0.37133 0.91082 0.0
H581 H 0.81849 0.37043 0.88553 0.0
H582 H 0.85106 0.44336 0.88283 0.0
H583 H 0.85646 0.44372 0.90819 0.0
C584 C 0.85469 0.4106 0.84401 0.0
C585 C 0.83588 0.39728 0.83722 0.0
C586 C 0.85388 0.41429 0.85848 0.0
C587 C 0.83407 0.40503 0.86649 0.0
C588 C 0.8147 0.39267 0.85956 0.0
C589 C 0.81569 0.38869 0.8451 0.0
C590 C 0.82886 0.38731 0.90485 0.0
C591 C 0.84026 0.4075 0.9115 0.0
C592 C 0.82618 0.38687 0.89031 0.0
C593 C 0.83456 0.40676 0.88206 0.0
C594 C 0.84487 0.42749 0.88881 0.0
C595 C 0.84783 0.42778 0.90336 0.0
H596 H 0.36028 0.07869 0.66501 0.0
H597 H 0.33476 0.15297 0.65648 0.0
H598 H 0.35935 0.06944 0.64002 0.0
H599 H 0.33449 0.14395 0.63152 0.0
H600 H 0.31966 0.11635 0.58793 0.0
H601 H 0.31463 0.12057 0.61321 0.0
H602 H 0.38302 0.08072 0.61964 0.0
H603 H 0.38769 0.07591 0.59446 0.0
C604 C 0.35442 0.09303 0.65781 0.0
C605 C 0.34774 0.11662 0.66272 0.0
C606 C 0.35399 0.08776 0.64348 0.0
C607 C 0.34695 0.10598 0.63375 0.0
C608 C 0.33968 0.12937 0.63872 0.0
C609 C 0.34001 0.13461 0.65305 0.0
C610 C 0.33345 0.10822 0.59475 0.0
C611 C 0.35416 0.09594 0.58918 0.0
C612 C 0.33064 0.11077 0.60924 0.0
C613 C 0.34852 0.10117 0.61845 0.0
C614 C 0.36875 0.08811 0.61287 0.0
C615 C 0.3715 0.08547 0.5984 0.0
H616 H 0.68199 0.60658 0.40886 0.0
H617 H 0.60917 0.57682 0.40081 0.0
H618 H 0.69027 0.60745 0.38372 0.0
H619 H 0.61707 0.57846 0.3758 0.0
H620 H 0.6413 0.56933 0.3315 0.0
H621 H 0.6398 0.56179 0.35666 0.0
H622 H 0.6772 0.63129 0.36398 0.0
H623 H 0.67948 0.63835 0.33884 0.0
C624 C 0.6678 0.60012 0.40173 0.0
C625 C 0.64487 0.59176 0.40682 0.0
C626 C 0.67249 0.60074 0.38733 0.0
C627 C 0.65431 0.59314 0.37771 0.0
C628 C 0.63167 0.5841 0.38287 0.0
C629 C 0.62705 0.58333 0.39725 0.0
C630 C 0.64949 0.58283 0.33849 0.0
C631 C 0.66031 0.60454 0.3332 0.0
C632 C 0.64851 0.57858 0.35291 0.0
C633 C 0.65812 0.59606 0.36237 0.0
C634 C 0.66985 0.61728 0.35702 0.0
C635 C 0.67103 0.62142 0.34259 0.0
H636 H 0.16467 0.85476 0.14952 0.0
H637 H 0.13689 0.92857 0.15704 0.0
H638 H 0.16486 0.8627 0.12449 0.0
H639 H 0.13784 0.93684 0.13191 0.0
H640 H 0.10954 0.9272 0.08645 0.0
H641 H 0.11474 0.92441 0.11171 0.0
H642 H 0.18361 0.88509 0.10575 0.0
H643 H 0.17794 0.88715 0.08045 0.0
C644 C 0.15897 0.87284 0.14584 0.0
C645 C 0.15056 0.89095 0.15526 0.0
C646 C 0.15925 0.87747 0.13146 0.0
C647 C 0.1513 0.90041 0.12616 0.0
C648 C 0.14372 0.91885 0.13563 0.0
C649 C 0.14329 0.91415 0.15003 0.0
C650 C 0.12593 0.9182 0.09052 0.0
C651 C 0.14318 0.90715 0.08146 0.0
C652 C 0.12901 0.91673 0.10503 0.0
C653 C 0.14951 0.90435 0.11078 0.0
C654 C 0.16736 0.89433 0.10167 0.0
C655 C 0.16417 0.89562 0.08717 0.0
H656 H 0.82948 0.55499 0.09044 0.0
H657 H 0.83437 0.6347 0.08786 0.0
H658 H 0.82779 0.55774 0.11598 0.0
H659 H 0.83294 0.63736 0.1133 0.0
H660 H 0.80917 0.63557 0.15868 0.0
H661 H 0.80514 0.63018 0.13342 0.0
H662 H 0.85708 0.5695 0.13485 0.0
H663 H 0.86096 0.57465 0.16013 0.0
C664 C 0.83004 0.57308 0.0953 0.0
C665 C 0.83217 0.59462 0.08713 0.0
C666 C 0.82919 0.57464 0.10992 0.0
C667 C 0.83025 0.59776 0.11664 0.0
C668 C 0.83178 0.61929 0.10843 0.0
C669 C 0.83278 0.61774 0.09385 0.0
C670 C 0.81955 0.62091 0.15364 0.0
C671 C 0.83552 0.60565 0.1614 0.0
C672 C 0.81732 0.61792 0.13916 0.0
C673 C 0.83091 0.59952 0.13214 0.0
C674 C 0.84621 0.5837 0.13997 0.0
C675 C 0.84853 0.58676 0.15445 0.0
H676 H 0.20058 0.11587 0.84124 0.0
H677 H 0.13136 0.0759 0.84051 0.0
H678 H 0.20315 0.10986 0.8665 0.0
H679 H 0.13346 0.07065 0.86578 0.0
H680 H 0.14857 0.05314 0.91086 0.0
H681 H 0.15352 0.05204 0.88546 0.0
H682 H 0.18223 0.12668 0.88628 0.0
H683 H 0.17808 0.12745 0.91159 0.0
C684 C 0.18598 0.10568 0.84646 0.0
C685 C 0.16564 0.09659 0.8389 0.0
C686 C 0.18739 0.10234 0.86095 0.0
C687 C 0.16838 0.09001 0.86822 0.0
C688 C 0.14858 0.07999 0.86054 0.0
C689 C 0.14728 0.08315 0.84603 0.0
C690 C 0.15625 0.06917 0.90562 0.0
C691 C 0.16276 0.09044 0.91323 0.0
C692 C 0.15897 0.0686 0.89105 0.0
C693 C 0.16812 0.08933 0.88379 0.0
C694 C 0.17545 0.11023 0.89151 0.0
C695 C 0.17289 0.11074 0.90605 0.0
H696 H 0.60556 0.41532 0.59002 0.0
H697 H 0.67547 0.37822 0.58346 0.0
H698 H 0.61152 0.41272 0.61525 0.0
H699 H 0.68171 0.37616 0.60872 0.0
H700 H 0.66511 0.34573 0.65284 0.0
H701 H 0.66358 0.35297 0.62773 0.0
H702 H 0.63571 0.42681 0.63505 0.0
H703 H 0.63665 0.41931 0.66027 0.0
C704 C 0.62238 0.40694 0.59396 0.0
C705 C 0.63993 0.39677 0.58474 0.0
C706 C 0.62588 0.40559 0.60843 0.0
C707 C 0.64702 0.39409 0.61401 0.0
C708 C 0.66502 0.38477 0.60476 0.0
C709 C 0.66151 0.38608 0.59028 0.0
C710 C 0.65885 0.3636 0.64912 0.0
C711 C 0.65087 0.38189 0.65856 0.0
C712 C 0.65812 0.36781 0.63471 0.0
C713 C 0.6495 0.39047 0.62937 0.0
C714 C 0.64214 0.40903 0.63882 0.0
C715 C 0.64279 0.40478 0.65327 0.0
H716 H 0.32889 0.85777 0.33868 0.0
H717 H 0.36022 0.92965 0.32972 0.0
H718 H 0.32961 0.86709 0.36359 0.0
H719 H 0.36038 0.93921 0.35469 0.0
H720 H 0.39026 0.92883 0.39995 0.0
H721 H 0.38393 0.92545 0.37481 0.0
H722 H 0.31221 0.89246 0.38202 0.0
H723 H 0.31881 0.89528 0.40723 0.0
C724 C 0.3356 0.87571 0.34201 0.0
C725 C 0.3447 0.89287 0.33222 0.0
C726 C 0.33584 0.88114 0.3563 0.0
C727 C 0.34512 0.90388 0.36114 0.0
C728 C 0.35343 0.92139 0.35131 0.0
C729 C 0.35323 0.91594 0.337 0.0
C730 C 0.373 0.92114 0.39619 0.0
C731 C 0.35517 0.91206 0.40559 0.0
C732 C 0.3693 0.91934 0.38175 0.0
C733 C 0.34764 0.90849 0.3764 0.0
C734 C 0.32928 0.90051 0.38582 0.0
C735 C 0.33301 0.90226 0.40026 0.0
H736 H 0.04924 0.66355 0.01828 0.0
H737 H 0.05218 0.60115 0.04657 0.0
H738 H 0.00415 0.6632 0.01961 0.0
H739 H 0.00719 0.60106 0.04802 0.0
H740 H 0.92535 0.59371 0.0371 0.0
H741 H 0.97011 0.59293 0.0339 0.0
H742 H 0.97227 0.6726 0.03727 0.0
H743 H 0.92749 0.67346 0.04029 0.0
C744 C 0.04029 0.6497 0.02473 0.0
C745 C 0.05432 0.63242 0.03235 0.0
C746 C 0.01446 0.64961 0.02556 0.0
C747 C 0.00211 0.63217 0.03396 0.0
C748 C 0.01613 0.61457 0.04134 0.0
C749 C 0.04194 0.61472 0.04056 0.0
C750 C 0.93535 0.61108 0.03711 0.0
C751 C 0.92284 0.63365 0.03899 0.0
C752 C 0.96102 0.6106 0.03534 0.0
C753 C 0.97474 0.63269 0.03535 0.0
C754 C 0.96219 0.65528 0.03705 0.0
C755 C 0.93654 0.65576 0.03887 0.0
H756 H 0.66062 0.68914 0.28732 0.0
H757 H 0.58687 0.68989 0.30483 0.0
H758 H 0.66182 0.7342 0.28835 0.0
H759 H 0.58776 0.73489 0.30548 0.0
H760 H 0.60657 0.81349 0.31824 0.0
H761 H 0.60695 0.76846 0.31769 0.0
H762 H 0.64416 0.77028 0.27761 0.0
H763 H 0.64443 0.81534 0.27836 0.0
C764 C 0.6446 0.69893 0.2913 0.0
C765 C 0.62366 0.68593 0.29601 0.0
C766 C 0.64523 0.72477 0.29183 0.0
C767 C 0.6249 0.7382 0.29702 0.0
C768 C 0.60392 0.72515 0.30165 0.0
C769 C 0.60334 0.69933 0.30119 0.0
C770 C 0.61491 0.80429 0.30933 0.0
C771 C 0.62543 0.81801 0.29834 0.0
C772 C 0.61499 0.77845 0.30897 0.0
C773 C 0.62546 0.76571 0.29757 0.0
C774 C 0.6362 0.77947 0.28663 0.0
C775 C 0.63624 0.80532 0.28703 0.0
H776 H 0.43555 0.39105 0.52734 0.0
H777 H 0.43726 0.33763 0.56101 0.0
H778 H 0.48054 0.38932 0.52572 0.0
H779 H 0.48219 0.33647 0.5597 0.0
H780 H 0.56054 0.32162 0.54528 0.0
H781 H 0.51551 0.32248 0.54532 0.0
H782 H 0.517 0.40146 0.53822 0.0
H783 H 0.56207 0.40044 0.53774 0.0
C784 C 0.44553 0.37901 0.53443 0.0
C785 C 0.43281 0.36445 0.54429 0.0
C786 C 0.47135 0.37812 0.53356 0.0
C787 C 0.48505 0.36275 0.54257 0.0
C788 C 0.47226 0.3482 0.55242 0.0
C789 C 0.44646 0.34898 0.55324 0.0
C790 C 0.55127 0.33916 0.54366 0.0
C791 C 0.5649 0.36097 0.54153 0.0
C792 C 0.52542 0.33968 0.54377 0.0
C793 C 0.51257 0.36206 0.54186 0.0
C794 C 0.52624 0.38384 0.53955 0.0
C795 C 0.55211 0.38328 0.53935 0.0
H796 H 0.83982 0.31097 0.79326 0.0
H797 H 0.91789 0.3103 0.80296 0.0
H798 H 0.83918 0.26587 0.794 0.0
H799 H 0.91741 0.26527 0.80331 0.0
H800 H 0.90214 0.1868 0.81832 0.0
H801 H 0.90225 0.23179 0.81737 0.0
H802 H 0.85327 0.22965 0.78163 0.0
H803 H 0.85263 0.18457 0.78282 0.0
C804 C 0.85689 0.3012 0.79545 0.0
C805 C 0.87889 0.31424 0.7981 0.0
C806 C 0.85655 0.27533 0.7958 0.0
C807 C 0.87823 0.2619 0.79875 0.0
C808 C 0.90028 0.275 0.80124 0.0
C809 C 0.90059 0.30085 0.80096 0.0
C810 C 0.89137 0.1959 0.81025 0.0
C811 C 0.87738 0.18207 0.80064 0.0
C812 C 0.89156 0.22173 0.80966 0.0
C813 C 0.87785 0.23438 0.79939 0.0
C814 C 0.86381 0.22053 0.78979 0.0
C815 C 0.86355 0.19467 0.79041 0.0
H816 H 0.92814 0.40273 0.94679 0.0
H817 H 0.93135 0.34037 0.9751 0.0
H818 H 0.97325 0.40281 0.94525 0.0
H819 H 0.97639 0.34058 0.97357 0.0
H820 H 0.05325 0.33084 0.9535 0.0
H821 H 0.00826 0.33162 0.9553 0.0
H822 H 0.01014 0.41095 0.96053 0.0
H823 H 0.05523 0.41026 0.95867 0.0
C824 C 0.93846 0.3891 0.95272 0.0
C825 C 0.92616 0.3715 0.96105 0.0
C826 C 0.96428 0.38924 0.95188 0.0
C827 C 0.97833 0.37167 0.95926 0.0
C828 C 0.96604 0.35418 0.96765 0.0
C829 C 0.94024 0.35416 0.96858 0.0
C830 C 0.0441 0.34847 0.95502 0.0
C831 C 0.05782 0.37049 0.95595 0.0
C832 C 0.01833 0.34888 0.95613 0.0
C833 C 0.0057 0.37133 0.95809 0.0
C834 C 0.01938 0.3934 0.95892 0.0
C835 C 0.04519 0.39297 0.95792 0.0
H836 H 0.85261 0.81404 0.21257 0.0
H837 H 0.90822 0.81064 0.18008 0.0
H838 H 0.85445 0.76919 0.21508 0.0
H839 H 0.90952 0.76581 0.18226 0.0
H840 H 0.92325 0.68814 0.19827 0.0
H841 H 0.9225 0.73317 0.19743 0.0
H842 H 0.84312 0.73216 0.20294 0.0
H843 H 0.84399 0.68717 0.20421 0.0
C844 C 0.86517 0.80372 0.20593 0.0
C845 C 0.88028 0.81592 0.19613 0.0
C846 C 0.86613 0.77797 0.20731 0.0
C847 C 0.88212 0.76382 0.19887 0.0
C848 C 0.89728 0.77611 0.1891 0.0
C849 C 0.89642 0.80184 0.18778 0.0
C850 C 0.90565 0.69753 0.19937 0.0
C851 C 0.88368 0.68405 0.20129 0.0
C852 C 0.90519 0.72337 0.1988 0.0
C853 C 0.88273 0.73635 0.20005 0.0
C854 C 0.8608 0.72283 0.20213 0.0
C855 C 0.86128 0.697 0.20279 0.0
H856 H 0.43657 0.59661 0.46242 0.0
H857 H 0.4388 0.64576 0.42673 0.0
H858 H 0.48164 0.59752 0.46368 0.0
H859 H 0.48375 0.64608 0.42771 0.0
H860 H 0.56133 0.66365 0.4425 0.0
H861 H 0.51637 0.66214 0.4419 0.0
H862 H 0.51853 0.58411 0.45176 0.0
H863 H 0.56359 0.58582 0.45277 0.0
C864 C 0.44668 0.60744 0.45477 0.0
C865 C 0.43411 0.62122 0.44452 0.0
C866 C 0.47253 0.60786 0.45545 0.0
C867 C 0.48634 0.62198 0.44584 0.0
C868 C 0.4737 0.6354 0.43545 0.0
C869 C 0.44791 0.6351 0.43483 0.0
C870 C 0.55223 0.64618 0.44458 0.0
C871 C 0.56603 0.62485 0.44766 0.0
C872 C 0.52643 0.64527 0.44414 0.0
C873 C 0.5138 0.62296 0.44668 0.0
C874 C 0.52763 0.60166 0.44991 0.0
C875 C 0.55347 0.60261 0.45042 0.0
H876 H 0.66035 0.17661 0.71029 0.0
H877 H 0.58057 0.18215 0.70992 0.0
H878 H 0.66336 0.22143 0.71293 0.0
H879 H 0.58365 0.22693 0.71246 0.0
H880 H 0.59812 0.30384 0.73025 0.0
H881 H 0.59693 0.25872 0.72968 0.0
H882 H 0.65449 0.25838 0.69827 0.0
H883 H 0.65586 0.30347 0.69888 0.0
C884 C 0.64345 0.18737 0.71082 0.0
C885 C 0.6202 0.17582 0.70986 0.0
C886 C 0.64521 0.21304 0.71227 0.0
C887 C 0.62375 0.22769 0.71289 0.0
C888 C 0.60051 0.2161 0.71216 0.0
C889 C 0.59875 0.19046 0.71062 0.0
C890 C 0.61067 0.29415 0.7233 0.0
C891 C 0.62701 0.30725 0.71456 0.0
C892 C 0.60988 0.26831 0.72292 0.0
C893 C 0.62553 0.25503 0.71388 0.0
C894 C 0.64234 0.2681 0.70543 0.0
C895 C 0.64303 0.29394 0.70573 0.0
H896 H 0.39206 0.32276 0.73153 0.0
H897 H 0.33833 0.31964 0.69807 0.0
H898 H 0.39501 0.2777 0.73133 0.0
H899 H 0.34147 0.27464 0.69782 0.0
H900 H 0.33688 0.193 0.71031 0.0
H901 H 0.33207 0.23776 0.71235 0.0
H902 H 0.41141 0.2459 0.71504 0.0
H903 H 0.41627 0.20117 0.71313 0.0
C904 C 0.38076 0.31248 0.7242 0.0
C905 C 0.36501 0.3248 0.71479 0.0
C906 C 0.38258 0.28668 0.72403 0.0
C907 C 0.36855 0.27264 0.71453 0.0
C908 C 0.35235 0.28493 0.70536 0.0
C909 C 0.35065 0.31073 0.70546 0.0
C910 C 0.3533 0.20432 0.7114 0.0
C911 C 0.37697 0.19352 0.71153 0.0
C912 C 0.35054 0.22996 0.7125 0.0
C913 C 0.37136 0.24534 0.71385 0.0
C914 C 0.395 0.23451 0.71418 0.0
C915 C 0.39778 0.20889 0.71299 0.0
H916 H 0.15789 0.6845 0.2088 0.0
H917 H 0.07884 0.68735 0.2022 0.0
H918 H 0.15889 0.72956 0.21087 0.0
H919 H 0.07992 0.7323 0.20419 0.0
H920 H 0.08788 0.8099 0.22264 0.0
H921 H 0.08815 0.76476 0.22219 0.0
H922 H 0.15208 0.76589 0.19503 0.0
H923 H 0.15195 0.81103 0.1955 0.0
C924 C 0.14073 0.69472 0.20784 0.0
C925 C 0.11828 0.68236 0.20532 0.0
C926 C 0.14134 0.72051 0.20895 0.0
C927 C 0.11948 0.73442 0.20771 0.0
C928 C 0.09702 0.72204 0.20536 0.0
C929 C 0.09643 0.6963 0.20412 0.0
C930 C 0.10209 0.80054 0.21663 0.0
C931 C 0.11984 0.81406 0.20907 0.0
C932 C 0.10215 0.77469 0.21633 0.0
C933 C 0.12009 0.76182 0.20854 0.0
C934 C 0.13816 0.77531 0.20122 0.0
C935 C 0.13799 0.80116 0.20143 0.0
H936 H 0.15839 0.18475 0.80408 0.0
H937 H 0.09771 0.18683 0.77464 0.0
H938 H 0.15718 0.22986 0.80582 0.0
H939 H 0.09658 0.23182 0.7764 0.0
H940 H 0.08243 0.30696 0.79776 0.0
H941 H 0.08533 0.26217 0.79533 0.0
H942 H 0.1646 0.26789 0.79077 0.0
H943 H 0.16177 0.31287 0.79319 0.0
C944 C 0.14489 0.19482 0.79793 0.0
C945 C 0.12808 0.1822 0.78926 0.0
C946 C 0.14429 0.22064 0.79888 0.0
C947 C 0.12671 0.23431 0.7913 0.0
C948 C 0.11014 0.22172 0.78249 0.0
C949 C 0.11089 0.19596 0.78143 0.0
C950 C 0.1005 0.29871 0.79625 0.0
C951 C 0.12187 0.31347 0.79565 0.0
C952 C 0.10212 0.27306 0.79477 0.0
C953 C 0.12518 0.26157 0.79281 0.0
C954 C 0.14661 0.27627 0.79235 0.0
C955 C 0.14496 0.302 0.79367 0.0
H956 H 0.35526 0.68453 0.27658 0.0
H957 H 0.41052 0.68817 0.3092 0.0
H958 H 0.35558 0.72954 0.27481 0.0
H959 H 0.4103 0.73311 0.30774 0.0
H960 H 0.42201 0.81167 0.29262 0.0
H961 H 0.42245 0.76663 0.29295 0.0
H962 H 0.34308 0.76575 0.2875 0.0
H963 H 0.34276 0.81082 0.28674 0.0
C964 C 0.36742 0.69494 0.28341 0.0
C965 C 0.38289 0.68276 0.29302 0.0
C966 C 0.36749 0.72076 0.28245 0.0
C967 C 0.38296 0.735 0.29113 0.0
C968 C 0.39845 0.72275 0.30072 0.0
C969 C 0.39847 0.69695 0.30163 0.0
C970 C 0.40466 0.80187 0.29144 0.0
C971 C 0.38235 0.81484 0.28967 0.0
C972 C 0.40489 0.77603 0.29171 0.0
C973 C 0.38279 0.76251 0.29032 0.0
C974 C 0.36049 0.77552 0.28841 0.0
C975 C 0.36029 0.80139 0.28805 0.0
H976 H 0.43658 0.15234 0.56603 0.0
H977 H 0.43283 0.09925 0.53226 0.0
H978 H 0.48149 0.15224 0.56449 0.0
H979 H 0.47783 0.09972 0.53041 0.0
H980 H 0.5596 0.08736 0.54141 0.0
H981 H 0.51454 0.0869 0.54254 0.0
H982 H 0.51435 0.16589 0.54966 0.0
H983 H 0.55935 0.16619 0.54897 0.0
C984 C 0.44534 0.14076 0.55821 0.0
C985 C 0.43113 0.12582 0.54926 0.0
C986 C 0.47112 0.14082 0.55726 0.0
C987 C 0.48332 0.12607 0.54727 0.0
C988 C 0.46907 0.11108 0.53833 0.0
C989 C 0.44326 0.1109 0.53934 0.0
C990 C 0.54991 0.10463 0.54317 0.0
C991 C 0.56304 0.12679 0.54516 0.0
C992 C 0.52407 0.10439 0.54375 0.0
C993 C 0.51078 0.12634 0.54625 0.0
C994 C 0.52397 0.14856 0.54799 0.0
C995 C 0.54979 0.14877 0.5475 0.0
H996 H 0.93628 0.89071 0.02448 0.0
H997 H 0.93768 0.84183 0.0603 0.0
H998 H 0.98133 0.88996 0.02358 0.0
H999 H 0.98272 0.84165 0.05966 0.0
H1000 H 0.06225 0.82712 0.04616 0.0
H1001 H 0.01715 0.82678 0.04616 0.0
H1002 H 0.0166 0.90481 0.03624 0.0
H1003 H 0.06162 0.90497 0.03584 0.0
C1004 C 0.94621 0.87989 0.0322 0.0
C1005 C 0.93339 0.86632 0.04246 0.0
C1006 C 0.97205 0.87957 0.03174 0.0
C1007 C 0.98569 0.86577 0.04156 0.0
C1008 C 0.97282 0.85218 0.0518 0.0
C1009 C 0.94698 0.8524 0.05222 0.0
C1010 C 0.05249 0.84418 0.04394 0.0
C1011 C 0.06553 0.86606 0.04098 0.0
C1012 C 0.02663 0.84403 0.04402 0.0
C1013 C 0.01321 0.86578 0.04122 0.0
C1014 C 0.0263 0.88764 0.03823 0.0
C1015 C 0.05215 0.88776 0.03808 0.0
H1016 H 0.4349 0.86094 0.47915 0.0
H1017 H 0.43505 0.90979 0.4433 0.0
H1018 H 0.48 0.86074 0.47909 0.0
H1019 H 0.48011 0.91004 0.44345 0.0
H1020 H 0.5593 0.88214 0.438 0.0
H1021 H 0.51426 0.88259 0.43841 0.0
H1022 H 0.51545 0.88697 0.4836 0.0
H1023 H 0.56054 0.88595 0.48322 0.0
C1024 C 0.44454 0.8718 0.47133 0.0
C1025 C 0.43136 0.88533 0.46121 0.0
C1026 C 0.47041 0.87178 0.47133 0.0
C1027 C 0.4837 0.88532 0.46124 0.0
C1028 C 0.47048 0.89909 0.45123 0.0
C1029 C 0.44463 0.89907 0.45121 0.0
C1030 C 0.54998 0.88318 0.44803 0.0
C1031 C 0.56354 0.88399 0.46058 0.0
C1032 C 0.52413 0.8836 0.44826 0.0
C1033 C 0.51121 0.88489 0.46103 0.0
C1034 C 0.5248 0.88568 0.47359 0.0
C1035 C 0.55066 0.88523 0.47336 0.0
H1036 H 0.07118 0.14208 0.925 0.0
H1037 H 0.07262 0.10934 0.9663 0.0
H1038 H 0.02614 0.1415 0.92537 0.0
H1039 H 0.02753 0.10936 0.96682 0.0
H1040 H 0.94691 0.09042 0.95719 0.0
H1041 H 0.992 0.08972 0.95639 0.0
H1042 H 0.992 0.16176 0.93673 0.0
H1043 H 0.94698 0.16216 0.93719 0.0
C1044 C 0.06189 0.13486 0.93419 0.0
C1045 C 0.07551 0.12579 0.94563 0.0
C1046 C 0.03604 0.13465 0.93443 0.0
C1047 C 0.02318 0.12546 0.94615 0.0
C1048 C 0.03682 0.11628 0.95756 0.0
C1049 C 0.06269 0.1164 0.95729 0.0
C1050 C 0.95654 0.10609 0.95268 0.0
C1051 C 0.94334 0.12633 0.94724 0.0
C1052 C 0.9824 0.10575 0.95229 0.0
C1053 C 0.99566 0.12568 0.9465 0.0
C1054 C 0.9824 0.14592 0.94107 0.0
C1055 C 0.95656 0.14622 0.94142 0.0
H1056 H 0.16487 0.42939 0.9931 0.0
H1057 H 0.16169 0.48403 0.96011 0.0
H1058 H 0.16682 0.46227 0.01052 0.0
H1059 H 0.16263 0.51689 0.9775 0.0
H1060 H 0.17327 0.57318 0.01133 0.0
H1061 H 0.18363 0.53938 0.99541 0.0
H1062 H 0.13681 0.49019 0.01939 0.0
H1063 H 0.12723 0.52357 0.03546 0.0
C1064 C 0.16483 0.44844 0.98957 0.0
C1065 C 0.16277 0.45415 0.97526 0.0
C1066 C 0.16581 0.46729 -0.00045 0.0
C1067 C 0.16443 0.49224 0.99544 0.0
C1068 C 0.16392 0.49791 0.98106 0.0
C1069 C 0.16325 0.47905 0.97107 0.0
C1070 C 0.16548 0.55504 0.01328 0.0
C1071 C 0.14925 0.55109 0.02458 0.0
C1072 C 0.17133 0.5357 0.00413 0.0
C1073 C 0.16097 0.51207 0.00605 0.0
C1074 C 0.14548 0.508 0.01768 0.0
C1075 C 0.13978 0.52724 0.02686 0.0
H1076 H 0.81141 0.93484 0.2271 0.0
H1077 H 0.76573 0.87729 0.20926 0.0
H1078 H 0.77791 0.94588 0.24311 0.0
H1079 H 0.73272 0.88777 0.22543 0.0
H1080 H 0.67063 0.91824 0.24996 0.0
H1081 H 0.70239 0.91782 0.23185 0.0
H1082 H 0.75867 0.92796 0.26348 0.0
H1083 H 0.72681 0.92922 0.28152 0.0
C1084 C 0.79419 0.92464 0.22654 0.0
C1085 C 0.79127 0.90509 0.21697 0.0
C1086 C 0.77504 0.9309 0.23575 0.0
C1087 C 0.75263 0.9177 0.23558 0.0
C1088 C 0.74954 0.89863 0.22571 0.0
C1089 C 0.7686 0.89246 0.2165 0.0
C1090 C 0.68975 0.92083 0.25301 0.0
C1091 C 0.69627 0.92341 0.26718 0.0
C1092 C 0.70797 0.92045 0.24264 0.0
C1093 C 0.73311 0.92239 0.24623 0.0
C1094 C 0.73948 0.92656 0.26032 0.0
C1095 C 0.72121 0.92718 0.27069 0.0
H1096 H 0.31645 0.4294 0.50908 0.0
H1097 H 0.3626 0.48001 0.53242 0.0
H1098 H 0.30657 0.46235 0.49251 0.0
H1099 H 0.35339 0.51256 0.51572 0.0
H1100 H 0.32593 0.57188 0.48816 0.0
H1101 H 0.32314 0.54006 0.50617 0.0
H1102 H 0.32883 0.48347 0.47433 0.0
H1103 H 0.33076 0.51521 0.45633 0.0
C1104 C 0.32435 0.44758 0.51072 0.0
C1105 C 0.3405 0.45205 0.52197 0.0
C1106 C 0.31875 0.46642 0.50121 0.0
C1107 C 0.32927 0.49006 0.50274 0.0
C1108 C 0.34464 0.49471 0.51432 0.0
C1109 C 0.35012 0.47594 0.52385 0.0
C1110 C 0.3261 0.55263 0.48499 0.0
C1111 C 0.32896 0.54604 0.47085 0.0
C1112 C 0.32463 0.5344 0.49532 0.0
C1113 C 0.3262 0.50922 0.49172 0.0
C1114 C 0.32739 0.50266 0.47748 0.0
C1115 C 0.32865 0.52089 0.46714 0.0
H1116 H 0.76808 0.07849 0.78875 0.0
H1117 H 0.82546 0.07415 0.7573 0.0
H1118 H 0.73675 0.07474 0.77061 0.0
H1119 H 0.79412 0.06947 0.73916 0.0
H1120 H 0.73303 0.10429 0.71171 0.0
H1121 H 0.76564 0.09744 0.72869 0.0
H1122 H 0.71677 0.05064 0.75287 0.0
H1123 H 0.6837 0.05821 0.73601 0.0
C1124 C 0.77402 0.07615 0.77799 0.0
C1125 C 0.79922 0.07702 0.77443 0.0
C1126 C 0.75604 0.07383 0.76758 0.0
C1127 C 0.76289 0.07209 0.75339 0.0
C1128 C 0.78819 0.07133 0.74995 0.0
C1129 C 0.80615 0.0739 0.76035 0.0
C1130 C 0.72928 0.09227 0.72054 0.0
C1131 C 0.70568 0.08205 0.7226 0.0
C1132 C 0.7481 0.08816 0.73025 0.0
C1133 C 0.74382 0.07358 0.74222 0.0
C1134 C 0.72055 0.0623 0.7439 0.0
C1135 C 0.70165 0.06653 0.7342 0.0
H1136 H 0.86822 0.52031 0.03147 0.0
H1137 H 0.80468 0.56078 0.01629 0.0
H1138 H 0.85844 0.48641 0.01577 0.0
H1139 H 0.79452 0.52639 0.0007 0.0
H1140 H 0.81138 0.47638 0.96159 0.0
H1141 H 0.81223 0.50859 0.97946 0.0
H1142 H 0.82947 0.4537 0.0109 0.0
H1143 H 0.8293 0.42165 0.993 0.0
C1144 C 0.85193 0.52183 0.02492 0.0
C1145 C 0.83735 0.54332 0.02505 0.0
C1146 C 0.84619 0.50227 0.01599 0.0
C1147 C 0.82567 0.50367 0.00698 0.0
C1148 C 0.81059 0.52486 0.00741 0.0
C1149 C 0.81635 0.54449 0.01638 0.0
C1150 C 0.81492 0.47114 0.97236 0.0
C1151 C 0.82069 0.44656 0.97585 0.0
C1152 C 0.8153 0.48959 0.98262 0.0
C1153 C 0.82129 0.48375 0.99657 0.0
C1154 C 0.82535 0.45888 0.00019 0.0
C1155 C 0.82515 0.4405 0.98994 0.0
H1156 H 0.2313 0.072 0.78928 0.0
H1157 H 0.17475 0.08017 0.75767 0.0
H1158 H 0.26305 0.07351 0.77123 0.0
H1159 H 0.20643 0.08058 0.73951 0.0
H1160 H 0.26818 0.12227 0.71629 0.0
H1161 H 0.23539 0.11072 0.73233 0.0
H1162 H 0.28346 0.05636 0.75141 0.0
H1163 H 0.31676 0.06871 0.73559 0.0
C1164 C 0.22562 0.07343 0.77843 0.0
C1165 C 0.20058 0.07639 0.7749 0.0
C1166 C 0.24384 0.07417 0.76805 0.0
C1167 C 0.23735 0.07758 0.75391 0.0
C1168 C 0.21213 0.07861 0.75032 0.0
C1169 C 0.19395 0.07821 0.76072 0.0
C1170 C 0.27172 0.10767 0.7238 0.0
C1171 C 0.29515 0.09659 0.72476 0.0
C1172 C 0.2528 0.10086 0.73295 0.0
C1173 C 0.25673 0.08259 0.74321 0.0
C1174 C 0.2799 0.07076 0.74378 0.0
C1175 C 0.29895 0.07775 0.73468 0.0
H1176 H 0.65185 0.4785 0.5359 0.0
H1177 H 0.67573 0.42306 0.50619 0.0
H1178 H 0.65699 0.51037 0.51816 0.0
H1179 H 0.68157 0.4551 0.48853 0.0
H1180 H 0.64753 0.51132 0.45732 0.0
H1181 H 0.65323 0.47953 0.47499 0.0
H1182 H 0.68419 0.53384 0.50321 0.0
H1183 H 0.6778 0.56593 0.48559 0.0
C1184 C 0.65869 0.47317 0.52567 0.0
C1185 C 0.663 0.4482 0.52239 0.0
C1186 C 0.66181 0.4915 0.51551 0.0
C1187 C 0.66945 0.48526 0.50187 0.0
C1188 C 0.6752 0.46045 0.49886 0.0
C1189 C 0.67195 0.44211 0.509 0.0
C1190 C 0.65585 0.51647 0.46722 0.0
C1191 C 0.66191 0.54121 0.47012 0.0
C1192 C 0.65932 0.49817 0.47734 0.0
C1193 C 0.66904 0.50415 0.49057 0.0
C1194 C 0.67628 0.5287 0.4932 0.0
C1195 C 0.67273 0.54706 0.48308 0.0
H1196 H 0.22892 0.90187 0.20442 0.0
H1197 H 0.1732 0.92234 0.2348 0.0
H1198 H 0.26076 0.90617 0.22218 0.0
H1199 H 0.20527 0.92731 0.25254 0.0
H1200 H 0.26305 0.89193 0.28257 0.0
H1201 H 0.23069 0.8983 0.26528 0.0
H1202 H 0.28355 0.93314 0.23759 0.0
H1203 H 0.31615 0.92613 0.25477 0.0
C1204 C 0.22351 0.90778 0.21482 0.0
C1205 C 0.1985 0.91141 0.21825 0.0
C1206 C 0.24182 0.91043 0.225 0.0
C1207 C 0.23553 0.91689 0.23882 0.0
C1208 C 0.21065 0.9219 0.24205 0.0
C1209 C 0.1923 0.91917 0.23186 0.0
C1210 C 0.26773 0.90123 0.27288 0.0
C1211 C 0.29223 0.90821 0.26996 0.0
C1212 C 0.24912 0.90507 0.26299 0.0
C1213 C 0.25457 0.91608 0.25 0.0
C1214 C 0.27884 0.92423 0.2474 0.0
C1215 C 0.29749 0.92029 0.25727 0.0
H1216 H 0.67941 0.06105 0.51115 0.0
H1217 H 0.62564 0.01331 0.53099 0.0
H1218 H 0.68861 0.02855 0.49414 0.0
H1219 H 0.63426 0.9813 0.51386 0.0
H1220 H 0.66777 0.9789 0.4559 0.0
H1221 H 0.66793 0.0099 0.47441 0.0
H1222 H 0.66388 0.95195 0.50554 0.0
H1223 H 0.66289 0.92101 0.48702 0.0
C1224 C 0.66967 0.04359 0.51193 0.0
C1225 C 0.65168 0.03981 0.52236 0.0
C1226 C 0.67486 0.02502 0.50215 0.0
C1227 C 0.66214 0.00234 0.5026 0.0
C1228 C 0.64471 0.99837 0.51331 0.0
C1229 C 0.6396 0.01684 0.52309 0.0
C1230 C 0.6673 0.97276 0.4667 0.0
C1231 C 0.66494 0.94754 0.46999 0.0
C1232 C 0.66752 0.99054 0.47733 0.0
C1233 C 0.66559 0.98343 0.49147 0.0
C1234 C 0.66483 0.95809 0.49475 0.0
C1235 C 0.66439 0.94034 0.48414 0.0
H1236 H 0.17197 0.42973 0.76017 0.0
H1237 H 0.23096 0.41347 0.78928 0.0
H1238 H 0.20232 0.43654 0.74167 0.0
H1239 H 0.2612 0.41936 0.77072 0.0
H1240 H 0.31321 0.43857 0.73622 0.0
H1241 H 0.28199 0.44554 0.75429 0.0
H1242 H 0.22748 0.40896 0.72845 0.0
H1243 H 0.2583 0.40278 0.71032 0.0
C1244 C 0.19143 0.42786 0.76265 0.0
C1245 C 0.19906 0.42071 0.77613 0.0
C1246 C 0.20882 0.43164 0.75204 0.0
C1247 C 0.23418 0.42812 0.75464 0.0
C1248 C 0.24186 0.42246 0.76835 0.0
C1249 C 0.22448 0.41891 0.77899 0.0
C1250 C 0.29444 0.43242 0.73432 0.0
C1251 C 0.28829 0.41986 0.72191 0.0
C1252 C 0.27658 0.43631 0.7447 0.0
C1253 C 0.25226 0.42762 0.7429 0.0
C1254 C 0.2459 0.4162 0.73016 0.0
C1255 C 0.26368 0.41245 0.71978 0.0
H1256 H 0.81354 0.97223 0.03521 0.0
H1257 H 0.83506 0.92715 -0.00017 0.0
H1258 H 0.80939 0.00797 0.01974 0.0
H1259 H 0.83098 0.96289 0.98444 0.0
H1260 H 0.80815 0.02942 0.95869 0.0
H1261 H 0.80146 0.99431 0.97443 0.0
H1262 H 0.8419 0.03221 0.00699 0.0
H1263 H 0.84856 0.06718 0.99137 0.0
C1264 C 0.817 0.96983 0.02412 0.0
C1265 C 0.82493 0.94693 0.01877 0.0
C1266 C 0.8147 0.99032 0.01528 0.0
C1267 C 0.82002 0.98823 0.00092 0.0
C1268 C 0.82657 0.96501 0.99545 0.0
C1269 C 0.82908 0.94458 0.00429 0.0
C1270 C 0.81528 0.03038 0.96928 0.0
C1271 C 0.82907 0.05095 0.97376 0.0
C1272 C 0.81152 0.01027 0.97825 0.0
C1273 C 0.82121 0.01052 0.99191 0.0
C1274 C 0.83399 0.03158 0.99658 0.0
C1275 C 0.83797 0.05153 0.98758 0.0
H1276 H 0.32218 0.56873 0.25645 0.0
H1277 H 0.26791 0.60017 0.28457 0.0
H1278 H 0.28968 0.56045 0.23935 0.0
H1279 H 0.23571 0.59264 0.2674 0.0
H1280 H 0.17858 0.56857 0.23738 0.0
H1281 H 0.21122 0.56335 0.25472 0.0
H1282 H 0.26553 0.58607 0.22404 0.0
H1283 H 0.23308 0.5905 0.20663 0.0
C1284 C 0.3033 0.57368 0.25903 0.0
C1285 C 0.29765 0.58537 0.27179 0.0
C1286 C 0.2847 0.56902 0.24922 0.0
C1287 C 0.26012 0.57605 0.25195 0.0
C1288 C 0.25437 0.58666 0.265 0.0
C1289 C 0.2729 0.59119 0.27482 0.0
C1290 C 0.19755 0.572 0.23427 0.0
C1291 C 0.20321 0.58033 0.2207 0.0
C1292 C 0.21624 0.56912 0.24423 0.0
C1293 C 0.24094 0.57467 0.24084 0.0
C1294 C 0.24675 0.58144 0.227 0.0
C1295 C 0.22809 0.58415 0.21702 0.0
H1296 H 0.34483 0.01415 0.53776 0.0
H1297 H 0.31701 0.0717 0.51055 0.0
H1298 H 0.33949 0.98402 0.51912 0.0
H1299 H 0.31099 0.04134 0.49198 0.0
H1300 H 0.34597 0.98985 0.45836 0.0
H1301 H 0.33955 0.01956 0.4771 0.0
H1302 H 0.31223 0.96117 0.50392 0.0
H1303 H 0.31931 0.93121 0.48523 0.0
C1304 C 0.33705 0.02028 0.5279 0.0
C1305 C 0.33173 0.04538 0.52556 0.0
C1306 C 0.33382 0.00295 0.51722 0.0
C1307 C 0.32506 0.01032 0.50399 0.0
C1308 C 0.31823 0.03516 0.50196 0.0
C1309 C 0.32158 0.05253 0.51263 0.0
C1310 C 0.33826 0.98337 0.46818 0.0
C1311 C 0.33349 0.95812 0.47037 0.0
C1312 C 0.33439 0.00046 0.47891 0.0
C1313 C 0.32554 0.99272 0.49206 0.0
C1314 C 0.31945 0.96766 0.49399 0.0
C1315 C 0.32341 0.95052 0.48325 0.0
H1316 H 0.68082 0.58791 0.25242 0.0
H1317 H 0.72585 0.55914 0.2861 0.0
H1318 H 0.715 0.58199 0.23614 0.0
H1319 H 0.76005 0.55307 0.26971 0.0
H1320 H 0.82083 0.58907 0.24104 0.0
H1321 H 0.78663 0.58383 0.25735 0.0
H1322 H 0.74257 0.5511 0.22449 0.0
H1323 H 0.77686 0.55648 0.20805 0.0
C1324 C 0.69789 0.57995 0.25631 0.0
C1325 C 0.70074 0.57428 0.27059 0.0
C1326 C 0.7174 0.57638 0.24695 0.0
C1327 C 0.74022 0.5672 0.25168 0.0
C1328 C 0.74272 0.56041 0.26582 0.0
C1329 C 0.72311 0.56381 0.27518 0.0
C1330 C 0.80398 0.58046 0.23732 0.0
C1331 C 0.80144 0.57345 0.22321 0.0
C1332 C 0.78445 0.57726 0.2467 0.0
C1333 C 0.76191 0.56714 0.24218 0.0
C1334 C 0.75969 0.55915 0.22822 0.0
C1335 C 0.77934 0.56216 0.21884 0.0
H1336 H 0.21758 0.93939 0.01173 0.0
H1337 H 0.14009 0.95734 0.01669 0.0
H1338 H 0.22375 0.97813 -0.00121 0.0
H1339 H 0.14622 0.99541 0.0038 0.0
H1340 H 0.16573 0.07179 0.99221 0.0
H1341 H 0.16725 0.0353 0.00708 0.0
H1342 H 0.21047 0.99707 0.97575 0.0
H1343 H 0.20935 0.03393 0.96087 0.0
C1344 C 0.20192 0.95155 0.01009 0.0
C1345 C 0.17836 0.94531 0.01527 0.0
C1346 C 0.20545 0.97365 0.00266 0.0
C1347 C 0.18553 0.9899 0.00044 0.0
C1348 C 0.16205 0.98354 0.0056 0.0
C1349 C 0.15851 0.96156 0.01291 0.0
C1350 C 0.17588 0.05576 0.98856 0.0
C1351 C 0.18706 0.05557 0.97527 0.0
C1352 C 0.17669 0.03483 0.99706 0.0
C1353 C 0.18856 0.0132 0.99245 0.0
C1354 C 0.2012 0.01351 0.97957 0.0
C1355 C 0.20048 0.03457 0.97105 0.0
H1356 H 0.82224 0.41832 0.75654 0.0
H1357 H 0.76444 0.41714 0.78783 0.0
H1358 H 0.79114 0.41969 0.73811 0.0
H1359 H 0.73333 0.41747 0.76943 0.0
H1360 H 0.68055 0.42723 0.73375 0.0
H1361 H 0.71284 0.43789 0.75057 0.0
H1362 H 0.76383 0.38972 0.72876 0.0
H1363 H 0.73201 0.37986 0.71178 0.0
C1364 C 0.80287 0.41857 0.75948 0.0
C1365 C 0.79576 0.41729 0.77362 0.0
C1366 C 0.78504 0.41921 0.74892 0.0
C1367 C 0.75971 0.41825 0.75226 0.0
C1368 C 0.75264 0.41844 0.76645 0.0
C1369 C 0.7705 0.41811 0.77702 0.0
C1370 C 0.69878 0.41922 0.73246 0.0
C1371 C 0.70367 0.40253 0.72151 0.0
C1372 C 0.71725 0.42523 0.74213 0.0
C1373 C 0.74092 0.41456 0.74109 0.0
C1374 C 0.74597 0.39862 0.7298 0.0
C1375 C 0.72762 0.39277 0.7201 0.0
H1376 H 0.15781 0.81806 0.01446 0.0
H1377 H 0.20153 0.81233 0.0522 0.0
H1378 H 0.16035 0.77339 0.01135 0.0
H1379 H 0.20334 0.76766 0.04938 0.0
H1380 H 0.20873 0.6868 0.03977 0.0
H1381 H 0.21605 0.73112 0.03683 0.0
H1382 H 0.14015 0.74071 0.02366 0.0
H1383 H 0.1331 0.6967 0.0262 0.0
C1384 C 0.16825 0.80731 0.02199 0.0
C1385 C 0.17911 0.81867 0.0337 0.0
C1386 C 0.16961 0.78169 0.02025 0.0
C1387 C 0.18163 0.76687 0.03026 0.0
C1388 C 0.19404 0.77847 0.04141 0.0
C1389 C 0.19288 0.80413 0.04308 0.0
C1390 C 0.19377 0.69836 0.03602 0.0
C1391 C 0.17027 0.68827 0.03337 0.0
C1392 C 0.19793 0.72376 0.0344 0.0
C1393 C 0.17868 0.73953 0.03007 0.0
C1394 C 0.15554 0.72915 0.02681 0.0
C1395 C 0.15141 0.70385 0.0284 0.0
H1396 H 0.55618 0.88997 0.27566 0.0
H1397 H 0.56122 0.9666 0.28831 0.0
H1398 H 0.5116 0.89357 0.27417 0.0
H1399 H 0.51629 0.97043 0.28642 0.0
H1400 H 0.43695 0.95167 0.30298 0.0
H1401 H 0.48144 0.95558 0.29976 0.0
H1402 H 0.47697 0.91099 0.26225 0.0
H1403 H 0.43257 0.90638 0.26576 0.0
C1404 C 0.5478 0.90776 0.27788 0.0
C1405 C 0.56225 0.92793 0.28226 0.0
C1406 C 0.52217 0.90989 0.27691 0.0
C1407 C 0.5103 0.93229 0.28021 0.0
C1408 C 0.52484 0.95282 0.28398 0.0
C1409 C 0.55058 0.95066 0.285 0.0
C1410 C 0.4454 0.94304 0.29392 0.0
C1411 C 0.43133 0.92836 0.28476 0.0
C1412 C 0.47092 0.94541 0.29201 0.0
C1413 C 0.48285 0.93331 0.28085 0.0
C1414 C 0.46844 0.92008 0.27114 0.0
C1415 C 0.44298 0.91753 0.27312 0.0
H1416 H 0.28127 0.18372 0.54664 0.0
H1417 H 0.35574 0.18842 0.53031 0.0
H1418 H 0.27687 0.22851 0.54416 0.0
H1419 H 0.35166 0.23287 0.52825 0.0
H1420 H 0.33776 0.31146 0.51949 0.0
H1421 H 0.33263 0.26695 0.51675 0.0
H1422 H 0.29325 0.264 0.55616 0.0
H1423 H 0.29759 0.30859 0.55861 0.0
C1424 C 0.29659 0.19425 0.5424 0.0
C1425 C 0.31893 0.18254 0.5388 0.0
C1426 C 0.29412 0.21992 0.54104 0.0
C1427 C 0.31394 0.23434 0.53607 0.0
C1428 C 0.33585 0.22239 0.53191 0.0
C1429 C 0.33828 0.19683 0.53322 0.0
C1430 C 0.32762 0.30135 0.52744 0.0
C1431 C 0.3184 0.31346 0.53937 0.0
C1432 C 0.32477 0.27582 0.5259 0.0
C1433 C 0.3129 0.26181 0.53635 0.0
C1434 C 0.30233 0.2742 0.54785 0.0
C1435 C 0.30496 0.29978 0.54931 0.0
H1436 H 0.94059 0.04651 0.81014 0.0
H1437 H 0.93758 0.09346 0.77353 0.0
H1438 H 0.9853 0.04331 0.80764 0.0
H1439 H 0.9822 0.08957 0.77073 0.0
H1440 H 0.06084 0.10997 0.78498 0.0
H1441 H 0.01628 0.10652 0.78331 0.0
H1442 H 0.02075 0.02915 0.79454 0.0
H1443 H 0.06567 0.03283 0.79663 0.0
C1444 C 0.9494 0.0557 0.80137 0.0
C1445 C 0.93561 0.07056 0.79216 0.0
C1446 C 0.97505 0.05374 0.79988 0.0
C1447 C 0.9874 0.06644 0.78908 0.0
C1448 C 0.97334 0.08 0.77935 0.0
C1449 C 0.94775 0.08214 0.78092 0.0
C1450 C 0.05242 0.09212 0.78697 0.0
C1451 C 0.06682 0.07173 0.79107 0.0
C1452 C 0.0268 0.09008 0.78588 0.0
C1453 C 0.01487 0.06755 0.7888 0.0
C1454 C 0.02934 0.04686 0.79239 0.0
C1455 C 0.05508 0.04892 0.79352 0.0
H1456 H 0.2056 0.19801 0.94012 0.0
H1457 H 0.16347 0.18806 0.9782 0.0
H1458 H 0.20625 0.24247 0.94407 0.0
H1459 H 0.16484 0.23249 0.98242 0.0
H1460 H 0.13676 0.31054 0.97069 0.0
H1461 H 0.14398 0.26632 0.97155 0.0
H1462 H 0.21931 0.27759 0.9577 0.0
H1463 H 0.21181 0.3221 0.95644 0.0
C1464 C 0.19699 0.20525 0.94951 0.0
C1465 C 0.18412 0.18958 0.95872 0.0
C1466 C 0.19749 0.23077 0.95183 0.0
C1467 C 0.18531 0.2411 0.96347 0.0
C1468 C 0.17393 0.22518 0.97318 0.0
C1469 C 0.17323 0.19971 0.9708 0.0
C1470 C 0.15499 0.30369 0.96801 0.0
C1471 C 0.17362 0.31984 0.96333 0.0
C1472 C 0.15921 0.27827 0.96861 0.0
C1473 C 0.18222 0.26835 0.96463 0.0
C1474 C 0.20127 0.28462 0.96063 0.0
C1475 C 0.19701 0.31012 0.95999 0.0
H1476 H 0.93742 0.94853 0.17992 0.0
H1477 H 0.93072 0.912 0.22002 0.0
H1478 H 0.98182 0.95241 0.1834 0.0
H1479 H 0.97506 0.91665 0.22373 0.0
H1480 H 0.05423 0.89113 0.21267 0.0
H1481 H 0.00973 0.89606 0.21358 0.0
H1482 H 0.01654 0.9694 0.19592 0.0
H1483 H 0.06138 0.96413 0.19461 0.0
C1484 C 0.94533 0.94187 0.18964 0.0
C1485 C 0.93063 0.92956 0.19959 0.0
C1486 C 0.97082 0.94424 0.19168 0.0
C1487 C 0.98209 0.93453 0.20377 0.0
C1488 C 0.96705 0.92382 0.21416 0.0
C1489 C 0.94162 0.92126 0.21206 0.0
C1490 C 0.04634 0.90846 0.20913 0.0
C1491 C 0.06135 0.92712 0.2034 0.0
C1492 C 0.02075 0.91139 0.20978 0.0
C1493 C 0.00949 0.93311 0.20478 0.0
C1494 C 0.0246 0.9523 0.19967 0.0
C1495 C 0.0503 0.94933 0.19899 0.0
H1496 H 0.29726 0.69271 0.44405 0.0
H1497 H 0.36748 0.68554 0.46536 0.0
H1498 H 0.30175 0.73782 0.4444 0.0
H1499 H 0.37186 0.73032 0.46557 0.0
H1500 H 0.38678 0.80247 0.4406 0.0
H1501 H 0.37839 0.75863 0.44401 0.0
H1502 H 0.30687 0.77621 0.46154 0.0
H1503 H 0.31536 0.82047 0.45827 0.0
C1504 C 0.31339 0.70072 0.44902 0.0
C1505 C 0.33216 0.68553 0.4545 0.0
C1506 C 0.3159 0.72649 0.44925 0.0
C1507 C 0.3373 0.7374 0.45485 0.0
C1508 C 0.35534 0.72229 0.46103 0.0
C1509 C 0.35275 0.69665 0.46093 0.0
C1510 C 0.36928 0.79706 0.44521 0.0
C1511 C 0.35173 0.81488 0.44918 0.0
C1512 C 0.36456 0.77198 0.44724 0.0
C1513 C 0.34206 0.76414 0.45311 0.0
C1514 C 0.32435 0.78187 0.45699 0.0
C1515 C 0.32925 0.8071 0.45517 0.0
H1516 H 0.44168 0.11317 0.72022 0.0
H1517 H 0.43086 0.04015 0.70281 0.0
H1518 H 0.48603 0.1063 0.72069 0.0
H1519 H 0.47543 0.03298 0.70365 0.0
H1520 H 0.55496 0.04896 0.68691 0.0
H1521 H 0.51045 0.04816 0.69062 0.0
H1522 H 0.52009 0.08415 0.73068 0.0
H1523 H 0.56461 0.08564 0.72676 0.0
C1524 C 0.44873 0.09543 0.71674 0.0
C1525 C 0.43274 0.07731 0.71133 0.0
C1526 C 0.47421 0.09141 0.71711 0.0
C1527 C 0.48435 0.06911 0.71214 0.0
C1528 C 0.46825 0.0505 0.70736 0.0
C1529 C 0.4427 0.05457 0.70695 0.0
C1530 C 0.54764 0.05636 0.69661 0.0
C1531 C 0.5633 0.06769 0.70644 0.0
C1532 C 0.52208 0.05576 0.69879 0.0
C1533 C 0.51164 0.06634 0.71089 0.0
C1534 C 0.52748 0.07628 0.72111 0.0
C1535 C 0.55302 0.07702 0.7189 0.0
H1536 H 0.79563 0.30171 0.93923 0.0
H1537 H 0.8404 0.31163 0.97629 0.0
H1538 H 0.79561 0.25719 0.94306 0.0
H1539 H 0.83972 0.26716 0.98039 0.0
H1540 H 0.86699 0.18911 0.96799 0.0
H1541 H 0.85988 0.23337 0.96891 0.0
H1542 H 0.78352 0.22207 0.95711 0.0
H1543 H 0.79086 0.17754 0.9558 0.0
C1544 C 0.80499 0.29445 0.94837 0.0
C1545 C 0.81835 0.31014 0.95732 0.0
C1546 C 0.80486 0.2689 0.95063 0.0
C1547 C 0.81792 0.25856 0.96195 0.0
C1548 C 0.82991 0.27448 0.9714 0.0
C1549 C 0.83021 0.29998 0.96909 0.0
C1550 C 0.84858 0.19597 0.96577 0.0
C1551 C 0.82957 0.17981 0.96167 0.0
C1552 C 0.84443 0.22141 0.96641 0.0
C1553 C 0.82114 0.23132 0.96302 0.0
C1554 C 0.80177 0.21505 0.95958 0.0
C1555 C 0.80595 0.18953 0.95891 0.0
H1556 H 0.65463 0.81105 0.47009 0.0
H1557 H 0.69518 0.80511 0.43121 0.0
H1558 H 0.65996 0.76683 0.47405 0.0
H1559 H 0.69966 0.7608 0.43485 0.0
H1560 H 0.7139 0.68212 0.44685 0.0
H1561 H 0.71685 0.72718 0.44776 0.0
H1562 H 0.64235 0.73081 0.46417 0.0
H1563 H 0.63979 0.68608 0.46373 0.0
C1564 C 0.6648 0.80031 0.46243 0.0
C1565 C 0.67423 0.81151 0.45026 0.0
C1566 C 0.66776 0.77494 0.46466 0.0
C1567 C 0.67996 0.76014 0.45469 0.0
C1568 C 0.6904 0.77161 0.44284 0.0
C1569 C 0.68768 0.79703 0.44069 0.0
C1570 C 0.69834 0.69257 0.45087 0.0
C1571 C 0.67655 0.68052 0.4551 0.0
C1572 C 0.69997 0.7184 0.45131 0.0
C1573 C 0.67977 0.73269 0.45593 0.0
C1574 C 0.65842 0.72048 0.46074 0.0
C1575 C 0.65687 0.69474 0.46039 0.0
H1576 H 0.79046 0.69248 0.05764 0.0
H1577 H 0.82877 0.68098 0.01843 0.0
H1578 H 0.78809 0.73656 0.05277 0.0
H1579 H 0.8256 0.72503 0.01329 0.0
H1580 H 0.85345 0.80419 0.02271 0.0
H1581 H 0.84676 0.75989 0.02263 0.0
H1582 H 0.77308 0.77072 0.03918 0.0
H1583 H 0.78013 0.81535 0.03969 0.0
C1584 C 0.7978 0.69927 0.0478 0.0
C1585 C 0.81019 0.68332 0.03854 0.0
C1586 C 0.7963 0.72458 0.04496 0.0
C1587 C 0.80697 0.73443 0.03272 0.0
C1588 C 0.8177 0.71814 0.02297 0.0
C1589 C 0.81941 0.69287 0.02588 0.0
C1590 C 0.83566 0.79722 0.02615 0.0
C1591 C 0.81744 0.8133 0.03139 0.0
C1592 C 0.83173 0.77173 0.02599 0.0
C1593 C 0.8094 0.76166 0.03097 0.0
C1594 C 0.79063 0.77785 0.03548 0.0
C1595 C 0.79462 0.80343 0.0357 0.0
H1596 H 0.65809 0.30803 0.51895 0.0
H1597 H 0.69815 0.30306 0.558 0.0
H1598 H 0.66265 0.26356 0.51564 0.0
H1599 H 0.70185 0.25855 0.555 0.0
H1600 H 0.63948 0.18428 0.52777 0.0
H1601 H 0.64373 0.22879 0.52625 0.0
H1602 H 0.71801 0.22359 0.54277 0.0
H1603 H 0.71337 0.17878 0.54475 0.0
C1604 C 0.66806 0.29747 0.52677 0.0
C1605 C 0.67748 0.309 0.53882 0.0
C1606 C 0.67056 0.27195 0.52491 0.0
C1607 C 0.68229 0.25736 0.53516 0.0
C1608 C 0.69292 0.26917 0.54682 0.0
C1609 C 0.69065 0.29472 0.5486 0.0
C1610 C 0.65688 0.19252 0.5309 0.0
C1611 C 0.67598 0.17798 0.53655 0.0
C1612 C 0.65941 0.21814 0.52992 0.0
C1613 C 0.68119 0.22988 0.53445 0.0
C1614 C 0.70083 0.21519 0.5394 0.0
C1615 C 0.69823 0.18949 0.54047 0.0
H1616 H 0.93792 0.44886 0.80997 0.0
H1617 H 0.93291 0.4031 0.77297 0.0
H1618 H 0.98246 0.4521 0.80674 0.0
H1619 H 0.97737 0.40705 0.76944 0.0
H1620 H 0.0569 0.3863 0.78232 0.0
H1621 H 0.01226 0.38983 0.78111 0.0
H1622 H 0.01709 0.46672 0.79328 0.0
H1623 H 0.06203 0.46294 0.79492 0.0
C1624 C 0.94626 0.43995 0.80097 0.0
C1625 C 0.93196 0.42541 0.79185 0.0
C1626 C 0.97181 0.44194 0.79905 0.0
C1627 C 0.98357 0.4296 0.78791 0.0
C1628 C 0.96898 0.41634 0.7783 0.0
C1629 C 0.94348 0.41417 0.78029 0.0
C1630 C 0.04853 0.40408 0.78458 0.0
C1631 C 0.06302 0.42428 0.78887 0.0
C1632 C 0.02286 0.40616 0.78377 0.0
C1633 C 0.01102 0.42855 0.78714 0.0
C1634 C 0.0256 0.44911 0.79081 0.0
C1635 C 0.05136 0.44699 0.79168 0.0
H1636 H 0.43771 0.58926 0.26888 0.0
H1637 H 0.44418 0.55198 0.30876 0.0
H1638 H 0.48216 0.58521 0.26533 0.0
H1639 H 0.4887 0.54866 0.30544 0.0
H1640 H 0.56824 0.53673 0.29395 0.0
H1641 H 0.52337 0.53178 0.29275 0.0
H1642 H 0.51686 0.60555 0.27565 0.0
H1643 H 0.56144 0.61019 0.27646 0.0
C1644 C 0.44859 0.57999 0.27683 0.0
C1645 C 0.43749 0.57124 0.28919 0.0
C1646 C 0.47409 0.57777 0.27483 0.0
C1647 C 0.48907 0.56694 0.28519 0.0
C1648 C 0.47773 0.55692 0.29718 0.0
C1649 C 0.45219 0.55897 0.29914 0.0
C1650 C 0.55722 0.55171 0.28972 0.0
C1651 C 0.56839 0.57393 0.28541 0.0
C1652 C 0.53151 0.54892 0.28911 0.0
C1653 C 0.51648 0.56831 0.28419 0.0
C1654 C 0.52783 0.59008 0.27931 0.0
C1655 C 0.55345 0.59283 0.27989 0.0
H1656 H 0.44325 0.3664 0.69318 0.0
H1657 H 0.42905 0.43874 0.71074 0.0
H1658 H 0.4874 0.37225 0.69677 0.0
H1659 H 0.47372 0.44469 0.71417 0.0
H1660 H 0.55802 0.44863 0.69638 0.0
H1661 H 0.51272 0.44727 0.69694 0.0
H1662 H 0.51562 0.37723 0.71858 0.0
H1663 H 0.5606 0.37849 0.71816 0.0
C1664 C 0.44956 0.38358 0.6978 0.0
C1665 C 0.43271 0.40212 0.70168 0.0
C1666 C 0.47483 0.38684 0.69994 0.0
C1667 C 0.48386 0.40883 0.70583 0.0
C1668 C 0.46712 0.42756 0.70962 0.0
C1669 C 0.44166 0.42412 0.70769 0.0
C1670 C 0.54899 0.4332 0.70151 0.0
C1671 C 0.56291 0.41348 0.70702 0.0
C1672 C 0.5231 0.43249 0.70186 0.0
C1673 C 0.51082 0.41198 0.70763 0.0
C1674 C 0.52472 0.39308 0.71391 0.0
C1675 C 0.55048 0.39387 0.71368 0.0
H1676 H 0.94055 0.55201 0.18466 0.0
H1677 H 0.93445 0.5879 0.22496 0.0
H1678 H 0.98483 0.54708 0.18817 0.0
H1679 H 0.97863 0.58209 0.22875 0.0
H1680 H 0.05875 0.60517 0.21844 0.0
H1681 H 0.01415 0.60151 0.21926 0.0
H1682 H 0.01889 0.52893 0.2004 0.0
H1683 H 0.06384 0.53301 0.19913 0.0
C1684 C 0.94858 0.55833 0.19442 0.0
C1685 C 0.93409 0.57071 0.20443 0.0
C1686 C 0.97399 0.55534 0.19649 0.0
C1687 C 0.9854 0.56446 0.20868 0.0
C1688 C 0.97055 0.57536 0.2191 0.0
C1689 C 0.9452 0.57859 0.21696 0.0
C1690 C 0.05038 0.58824 0.21464 0.0
C1691 C 0.06485 0.56951 0.20855 0.0
C1692 C 0.02471 0.58605 0.21521 0.0
C1693 C 0.01283 0.56497 0.20982 0.0
C1694 C 0.02741 0.5456 0.20443 0.0
C1695 C 0.05318 0.54787 0.20378 0.0
loop_
_geom_bond_atom_site_label_1
_geom_bond_atom_site_label_2
_geom_bond_distance
_geom_bond_site_symmetry_2
_ccdc_geom_bond_type
C0 O1 1.160 . S
C0 O7 1.185 . S
O1 C0 1.160 . S
O2 Zn3 1.899 . S
O2 C10 1.284 . S
Zn3 O2 1.899 . S
Zn3 O4 2.032 . S
Zn3 O7 2.086 . S
Zn3 O12 1.977 . S
O4 Zn3 2.032 . S
O4 C8 1.278 . S
C5 O6 1.203 . S
C5 O12 1.267 . S
O6 C5 1.203 . S
O7 C0 1.185 . S
O7 Zn3 2.086 . S
C8 O4 1.278 . S
C8 O9 1.211 . S
O9 C8 1.211 . S
C10 O2 1.284 . S
C10 O11 1.273 . S
O11 C10 1.273 . S
O12 Zn3 1.977 . S
O12 C5 1.267 . S
C13 O14 1.160 . S
C13 O20 1.185 . S
O14 C13 1.160 . S
O15 Zn16 1.899 . S
O15 C23 1.284 . S
Zn16 O15 1.899 . S
Zn16 O17 2.032 . S
Zn16 O20 2.086 . S
Zn16 O25 1.977 . S
O17 Zn16 2.032 . S
O17 C21 1.278 . S
C18 O19 1.203 . S
C18 O25 1.267 . S
O19 C18 1.203 . S
O20 C13 1.185 . S
O20 Zn16 2.086 . S
C21 O17 1.278 . S
C21 O22 1.211 . S
O22 C21 1.211 . S
C23 O15 1.284 . S
C23 O24 1.273 . S
O24 C23 1.273 . S
O25 Zn16 1.977 . S
O25 C18 1.267 . S
C26 O27 1.160 . S
C26 O33 1.185 . S
O27 C26 1.160 . S
O28 Zn29 1.899 . S
O28 C36 1.284 . S
Zn29 O28 1.899 . S
Zn29 O30 2.032 . S
Zn29 O33 2.086 . S
Zn29 O38 1.977 . S
O30 Zn29 2.032 . S
O30 C34 1.278 . S
C31 O32 1.203 . S
C31 O38 1.267 . S
O32 C31 1.203 . S
O33 C26 1.185 . S
O33 Zn29 2.086 . S
C34 O30 1.278 . S
C34 O35 1.211 . S
O35 C34 1.211 . S
C36 O28 1.284 . S
C36 O37 1.273 . S
O37 C36 1.273 . S
O38 Zn29 1.977 . S
O38 C31 1.267 . S
C39 O40 1.160 . S
C39 O46 1.185 . S
O40 C39 1.160 . S
O41 Zn42 1.899 . S
O41 C49 1.284 . S
Zn42 O41 1.899 . S
Zn42 O43 2.032 . S
Zn42 O46 2.086 . S
Zn42 O51 1.977 . S
O43 Zn42 2.032 . S
O43 C47 1.278 . S
C44 O45 1.203 . S
C44 O51 1.267 . S
O45 C44 1.203 . S
O46 C39 1.185 . S
O46 Zn42 2.086 . S
C47 O43 1.278 . S
C47 O48 1.211 . S
O48 C47 1.211 . S
C49 O41 1.284 . S
C49 O50 1.273 . S
O50 C49 1.273 . S
O51 Zn42 1.977 . S
O51 C44 1.267 . S
C52 O53 1.160 . S
C52 O59 1.185 . S
O53 C52 1.160 . S
O54 Zn55 1.899 . S
O54 C62 1.284 . S
Zn55 O54 1.899 . S
Zn55 O56 2.032 . S
Zn55 O59 2.086 . S
Zn55 O64 1.977 . S
O56 Zn55 2.032 . S
O56 C60 1.278 . S
C57 O58 1.203 . S
C57 O64 1.267 . S
O58 C57 1.203 . S
O59 C52 1.185 . S
O59 Zn55 2.086 . S
C60 O56 1.278 . S
C60 O61 1.211 . S
O61 C60 1.211 . S
C62 O54 1.284 . S
C62 O63 1.273 . S
O63 C62 1.273 . S
O64 Zn55 1.977 . S
O64 C57 1.267 . S
C65 O66 1.160 . S
C65 O72 1.185 . S
O66 C65 1.160 . S
O67 Zn68 1.899 . S
O67 C75 1.284 . S
Zn68 O67 1.899 . S
Zn68 O69 2.032 . S
Zn68 O72 2.086 . S
Zn68 O77 1.977 . S
O69 Zn68 2.032 . S
O69 C73 1.278 . S
C70 O71 1.203 . S
C70 O77 1.267 . S
O71 C70 1.203 . S
O72 C65 1.185 . S
O72 Zn68 2.086 . S
C73 O69 1.278 . S
C73 O74 1.211 . S
O74 C73 1.211 . S
C75 O67 1.284 . S
C75 O76 1.273 . S
O76 C75 1.273 . S
O77 Zn68 1.977 . S
O77 C70 1.267 . S
C78 O79 1.160 . S
C78 O85 1.185 . S
O79 C78 1.160 . S
O80 Zn81 1.899 . S
O80 C88 1.284 . S
Zn81 O80 1.899 . S
Zn81 O82 2.032 . S
Zn81 O85 2.086 . S
Zn81 O90 1.977 . S
O82 Zn81 2.032 . S
O82 C86 1.278 . S
C83 O84 1.203 . S
C83 O90 1.267 . S
O84 C83 1.203 . S
O85 C78 1.185 . S
O85 Zn81 2.086 . S
C86 O82 1.278 . S
C86 O87 1.211 . S
O87 C86 1.211 . S
C88 O80 1.284 . S
C88 O89 1.273 . S
O89 C88 1.273 . S
O90 Zn81 1.977 . S
O90 C83 1.267 . S
C91 O92 1.160 . S
C91 O98 1.185 . S
O92 C91 1.160 . S
O93 Zn94 1.899 . S
O93 C101 1.284 . S
Zn94 O93 1.899 . S
Zn94 O95 2.032 . S
Zn94 O98 2.086 . S
Zn94 O103 1.977 . S
O95 Zn94 2.032 . S
O95 C99 1.278 . S
C96 O97 1.203 . S
C96 O103 1.267 . S
O97 C96 1.203 . S
O98 C91 1.185 . S
O98 Zn94 2.086 . S
C99 O95 1.278 . S
C99 O100 1.211 . S
O100 C99 1.211 . S
C101 O93 1.284 . S
C101 O102 1.273 . S
O102 C101 1.273 . S
O103 Zn94 1.977 . S
O103 C96 1.267 . S
C104 O105 1.160 . S
C104 O111 1.185 . S
O105 C104 1.160 . S
O106 Zn107 1.899 . S
O106 C114 1.284 . S
Zn107 O106 1.899 . S
Zn107 O108 2.032 . S
Zn107 O111 2.086 . S
Zn107 O116 1.977 . S
O108 Zn107 2.032 . S
O108 C112 1.278 . S
C109 O110 1.203 . S
C109 O116 1.267 . S
O110 C109 1.203 . S
O111 C104 1.185 . S
O111 Zn107 2.086 . S
C112 O108 1.278 . S
C112 O113 1.211 . S
O113 C112 1.211 . S
C114 O106 1.284 . S
C114 O115 1.273 . S
O115 C114 1.273 . S
O116 Zn107 1.977 . S
O116 C109 1.267 . S
C117 O118 1.160 . S
C117 O124 1.185 . S
O118 C117 1.160 . S
O119 Zn120 1.899 . S
O119 C127 1.284 . S
Zn120 O119 1.899 . S
Zn120 O121 2.032 . S
Zn120 O124 2.086 . S
Zn120 O129 1.977 . S
O121 Zn120 2.032 . S
O121 C125 1.278 . S
C122 O123 1.203 . S
C122 O129 1.267 . S
O123 C122 1.203 . S
O124 C117 1.185 . S
O124 Zn120 2.086 . S
C125 O121 1.278 . S
C125 O126 1.211 . S
O126 C125 1.211 . S
C127 O119 1.284 . S
C127 O128 1.273 . S
O128 C127 1.273 . S
O129 Zn120 1.977 . S
O129 C122 1.267 . S
C130 O131 1.160 . S
C130 O137 1.185 . S
O131 C130 1.160 . S
O132 Zn133 1.899 . S
O132 C140 1.284 . S
Zn133 O132 1.899 . S
Zn133 O134 2.032 . S
Zn133 O137 2.086 . S
Zn133 O142 1.977 . S
O134 Zn133 2.032 . S
O134 C138 1.278 . S
C135 O136 1.203 . S
C135 O142 1.267 . S
O136 C135 1.203 . S
O137 C130 1.185 . S
O137 Zn133 2.086 . S
C138 O134 1.278 . S
C138 O139 1.211 . S
O139 C138 1.211 . S
C140 O132 1.284 . S
C140 O141 1.273 . S
O141 C140 1.273 . S
O142 Zn133 1.977 . S
O142 C135 1.267 . S
C143 O144 1.160 . S
C143 O150 1.185 . S
O144 C143 1.160 . S
O145 Zn146 1.899 . S
O145 C153 1.284 . S
Zn146 O145 1.899 . S
Zn146 O147 2.032 . S
Zn146 O150 2.086 . S
Zn146 O155 1.977 . S
O147 Zn146 2.032 . S
O147 C151 1.278 . S
C148 O149 1.203 . S
C148 O155 1.267 . S
O149 C148 1.203 . S
O150 C143 1.185 . S
O150 Zn146 2.086 . S
C151 O147 1.278 . S
C151 O152 1.211 . S
O152 C151 1.211 . S
C153 O145 1.284 . S
C153 O154 1.273 . S
O154 C153 1.273 . S
O155 Zn146 1.977 . S
O155 C148 1.267 . S
C156 O157 1.160 . S
C156 O163 1.185 . S
O157 C156 1.160 . S
O158 Zn159 1.899 . S
O158 C166 1.284 . S
Zn159 O158 1.899 . S
Zn159 O160 2.032 . S
Zn159 O163 2.086 . S
Zn159 O168 1.977 . S
O160 Zn159 2.032 . S
O160 C164 1.278 . S
C161 O162 1.203 . S
C161 O168 1.267 . S
O162 C161 1.203 . S
O163 C156 1.185 . S
O163 Zn159 2.086 . S
C164 O160 1.278 . S
C164 O165 1.211 . S
O165 C164 1.211 . S
C166 O158 1.284 . S
C166 O167 1.273 . S
O167 C166 1.273 . S
O168 Zn159 1.977 . S
O168 C161 1.267 . S
C169 O170 1.160 . S
C169 O176 1.185 . S
O170 C169 1.160 . S
O171 Zn172 1.899 . S
O171 C179 1.284 . S
Zn172 O171 1.899 . S
Zn172 O173 2.032 . S
Zn172 O176 2.086 . S
Zn172 O181 1.977 . S
O173 Zn172 2.032 . S
O173 C177 1.278 . S
C174 O175 1.203 . S
C174 O181 1.267 . S
O175 C174 1.203 . S
O176 C169 1.185 . S
O176 Zn172 2.086 . S
C177 O173 1.278 . S
C177 O178 1.211 . S
O178 C177 1.211 . S
C179 O171 1.284 . S
C179 O180 1.273 . S
O180 C179 1.273 . S
O181 Zn172 1.977 . S
O181 C174 1.267 . S
C182 O183 1.160 . S
C182 O189 1.185 . S
O183 C182 1.160 . S
O184 Zn185 1.899 . S
O184 C192 1.284 . S
Zn185 O184 1.899 . S
Zn185 O186 2.032 . S
Zn185 O189 2.086 . S
Zn185 O194 1.977 . S
O186 Zn185 2.032 . S
O186 C190 1.278 . S
C187 O188 1.203 . S
C187 O194 1.267 . S
O188 C187 1.203 . S
O189 C182 1.185 . S
O189 Zn185 2.086 . S
C190 O186 1.278 . S
C190 O191 1.211 . S
O191 C190 1.211 . S
C192 O184 1.284 . S
C192 O193 1.273 . S
O193 C192 1.273 . S
O194 Zn185 1.977 . S
O194 C187 1.267 . S
C195 O196 1.160 . S
C195 O202 1.185 . S
O196 C195 1.160 . S
O197 Zn198 1.899 . S
O197 C205 1.284 . S
Zn198 O197 1.899 . S
Zn198 O199 2.032 . S
Zn198 O202 2.086 . S
Zn198 O207 1.977 . S
O199 Zn198 2.032 . S
O199 C203 1.278 . S
C200 O201 1.203 . S
C200 O207 1.267 . S
O201 C200 1.203 . S
O202 C195 1.185 . S
O202 Zn198 2.086 . S
C203 O199 1.278 . S
C203 O204 1.211 . S
O204 C203 1.211 . S
C205 O197 1.284 . S
C205 O206 1.273 . S
O206 C205 1.273 . S
O207 Zn198 1.977 . S
O207 C200 1.267 . S
C208 O209 1.160 . S
C208 O215 1.185 . S
O209 C208 1.160 . S
O210 Zn211 1.899 . S
O210 C218 1.284 . S
Zn211 O210 1.899 . S
Zn211 O212 2.032 . S
Zn211 O215 2.086 . S
Zn211 O220 1.977 . S
O212 Zn211 2.032 . S
O212 C216 1.278 . S
C213 O214 1.203 . S
C213 O220 1.267 . S
O214 C213 1.203 . S
O215 C208 1.185 . S
O215 Zn211 2.086 . S
C216 O212 1.278 . S
C216 O217 1.211 . S
O217 C216 1.211 . S
C218 O210 1.284 . S
C218 O219 1.273 . S
O219 C218 1.273 . S
O220 Zn211 1.977 . S
O220 C213 1.267 . S
C221 O222 1.160 . S
C221 O228 1.185 . S
O222 C221 1.160 . S
O223 Zn224 1.899 . S
O223 C231 1.284 . S
Zn224 O223 1.899 . S
Zn224 O225 2.032 . S
Zn224 O228 2.086 . S
Zn224 O233 1.977 . S
O225 Zn224 2.032 . S
O225 C229 1.278 . S
C226 O227 1.203 . S
C226 O233 1.267 . S
O227 C226 1.203 . S
O228 C221 1.185 . S
O228 Zn224 2.086 . S
C229 O225 1.278 . S
C229 O230 1.211 . S
O230 C229 1.211 . S
C231 O223 1.284 . S
C231 O232 1.273 . S
O232 C231 1.273 . S
O233 Zn224 1.977 . S
O233 C226 1.267 . S
C234 O235 1.160 . S
C234 O241 1.185 . S
O235 C234 1.160 . S
O236 Zn237 1.899 . S
O236 C244 1.284 . S
Zn237 O236 1.899 . S
Zn237 O238 2.032 . S
Zn237 O241 2.086 . S
Zn237 O246 1.977 . S
O238 Zn237 2.032 . S
O238 C242 1.278 . S
C239 O240 1.203 . S
C239 O246 1.267 . S
O240 C239 1.203 . S
O241 C234 1.185 . S
O241 Zn237 2.086 . S
C242 O238 1.278 . S
C242 O243 1.211 . S
O243 C242 1.211 . S
C244 O236 1.284 . S
C244 O245 1.273 . S
O245 C244 1.273 . S
O246 Zn237 1.977 . S
O246 C239 1.267 . S
C247 O248 1.160 . S
C247 O254 1.185 . S
O248 C247 1.160 . S
O249 Zn250 1.899 . S
O249 C257 1.284 . S
Zn250 O249 1.899 . S
Zn250 O251 2.032 . S
Zn250 O254 2.086 . S
Zn250 O259 1.977 . S
O251 Zn250 2.032 . S
O251 C255 1.278 . S
C252 O253 1.203 . S
C252 O259 1.267 . S
O253 C252 1.203 . S
O254 C247 1.185 . S
O254 Zn250 2.086 . S
C255 O251 1.278 . S
C255 O256 1.211 . S
O256 C255 1.211 . S
C257 O249 1.284 . S
C257 O258 1.273 . S
O258 C257 1.273 . S
O259 Zn250 1.977 . S
O259 C252 1.267 . S
C260 O261 1.160 . S
C260 O267 1.185 . S
O261 C260 1.160 . S
O262 Zn263 1.899 . S
O262 C270 1.284 . S
Zn263 O262 1.899 . S
Zn263 O264 2.032 . S
Zn263 O267 2.086 . S
Zn263 O272 1.977 . S
O264 Zn263 2.032 . S
O264 C268 1.278 . S
C265 O266 1.203 . S
C265 O272 1.267 . S
O266 C265 1.203 . S
O267 C260 1.185 . S
O267 Zn263 2.086 . S
C268 O264 1.278 . S
C268 O269 1.211 . S
O269 C268 1.211 . S
C270 O262 1.284 . S
C270 O271 1.273 . S
O271 C270 1.273 . S
O272 Zn263 1.977 . S
O272 C265 1.267 . S
C273 O274 1.160 . S
C273 O280 1.185 . S
O274 C273 1.160 . S
O275 Zn276 1.899 . S
O275 C283 1.284 . S
Zn276 O275 1.899 . S
Zn276 O277 2.032 . S
Zn276 O280 2.086 . S
Zn276 O285 1.977 . S
O277 Zn276 2.032 . S
O277 C281 1.278 . S
C278 O279 1.203 . S
C278 O285 1.267 . S
O279 C278 1.203 . S
O280 C273 1.185 . S
O280 Zn276 2.086 . S
C281 O277 1.278 . S
C281 O282 1.211 . S
O282 C281 1.211 . S
C283 O275 1.284 . S
C283 O284 1.273 . S
O284 C283 1.273 . S
O285 Zn276 1.977 . S
O285 C278 1.267 . S
C286 O287 1.160 . S
C286 O293 1.185 . S
O287 C286 1.160 . S
O288 Zn289 1.899 . S
O288 C296 1.284 . S
Zn289 O288 1.899 . S
Zn289 O290 2.032 . S
Zn289 O293 2.086 . S
Zn289 O298 1.977 . S
O290 Zn289 2.032 . S
O290 C294 1.278 . S
C291 O292 1.203 . S
C291 O298 1.267 . S
O292 C291 1.203 . S
O293 C286 1.185 . S
O293 Zn289 2.086 . S
C294 O290 1.278 . S
C294 O295 1.211 . S
O295 C294 1.211 . S
C296 O288 1.284 . S
C296 O297 1.273 . S
O297 C296 1.273 . S
O298 Zn289 1.977 . S
O298 C291 1.267 . S
C299 O300 1.160 . S
C299 O306 1.185 . S
O300 C299 1.160 . S
O301 Zn302 1.899 . S
O301 C309 1.284 . S
Zn302 O301 1.899 . S
Zn302 O303 2.032 . S
Zn302 O306 2.086 . S
Zn302 O311 1.977 . S
O303 Zn302 2.032 . S
O303 C307 1.278 . S
C304 O305 1.203 . S
C304 O311 1.267 . S
O305 C304 1.203 . S
O306 C299 1.185 . S
O306 Zn302 2.086 . S
C307 O303 1.278 . S
C307 O308 1.211 . S
O308 C307 1.211 . S
C309 O301 1.284 . S
C309 O310 1.273 . S
O310 C309 1.273 . S
O311 Zn302 1.977 . S
O311 C304 1.267 . S
C312 O313 1.160 . S
C312 O319 1.185 . S
O313 C312 1.160 . S
O314 Zn315 1.899 . S
O314 C322 1.284 . S
Zn315 O314 1.899 . S
Zn315 O316 2.032 . S
Zn315 O319 2.086 . S
Zn315 O324 1.977 . S
O316 Zn315 2.032 . S
O316 C320 1.278 . S
C317 O318 1.203 . S
C317 O324 1.267 . S
O318 C317 1.203 . S
O319 C312 1.185 . S
O319 Zn315 2.086 . S
C320 O316 1.278 . S
C320 O321 1.211 . S
O321 C320 1.211 . S
C322 O314 1.284 . S
C322 O323 1.273 . S
O323 C322 1.273 . S
O324 Zn315 1.977 . S
O324 C317 1.267 . S
C325 O326 1.160 . S
C325 O332 1.185 . S
O326 C325 1.160 . S
O327 Zn328 1.899 . S
O327 C335 1.284 . S
Zn328 O327 1.899 . S
Zn328 O329 2.032 . S
Zn328 O332 2.086 . S
Zn328 O337 1.977 . S
O329 Zn328 2.032 . S
O329 C333 1.278 . S
C330 O331 1.203 . S
C330 O337 1.267 . S
O331 C330 1.203 . S
O332 C325 1.185 . S
O332 Zn328 2.086 . S
C333 O329 1.278 . S
C333 O334 1.211 . S
O334 C333 1.211 . S
C335 O327 1.284 . S
C335 O336 1.273 . S
O336 C335 1.273 . S
O337 Zn328 1.977 . S
O337 C330 1.267 . S
C338 O339 1.160 . S
C338 O345 1.185 . S
O339 C338 1.160 . S
O340 Zn341 1.899 . S
O340 C348 1.284 . S
Zn341 O340 1.899 . S
Zn341 O342 2.032 . S
Zn341 O345 2.086 . S
Zn341 O350 1.977 . S
O342 Zn341 2.032 . S
O342 C346 1.278 . S
C343 O344 1.203 . S
C343 O350 1.267 . S
O344 C343 1.203 . S
O345 C338 1.185 . S
O345 Zn341 2.086 . S
C346 O342 1.278 . S
C346 O347 1.211 . S
O347 C346 1.211 . S
C348 O340 1.284 . S
C348 O349 1.273 . S
O349 C348 1.273 . S
O350 Zn341 1.977 . S
O350 C343 1.267 . S
C351 O352 1.160 . S
C351 O358 1.185 . S
O352 C351 1.160 . S
O353 Zn354 1.899 . S
O353 C361 1.284 . S
Zn354 O353 1.899 . S
Zn354 O355 2.032 . S
Zn354 O358 2.086 . S
Zn354 O363 1.977 . S
O355 Zn354 2.032 . S
O355 C359 1.278 . S
C356 O357 1.203 . S
C356 O363 1.267 . S
O357 C356 1.203 . S
O358 C351 1.185 . S
O358 Zn354 2.086 . S
C359 O355 1.278 . S
C359 O360 1.211 . S
O360 C359 1.211 . S
C361 O353 1.284 . S
C361 O362 1.273 . S
O362 C361 1.273 . S
O363 Zn354 1.977 . S
O363 C356 1.267 . S
C364 O365 1.160 . S
C364 O371 1.185 . S
O365 C364 1.160 . S
O366 Zn367 1.899 . S
O366 C374 1.284 . S
Zn367 O366 1.899 . S
Zn367 O368 2.032 . S
Zn367 O371 2.086 . S
Zn367 O376 1.977 . S
O368 Zn367 2.032 . S
O368 C372 1.278 . S
C369 O370 1.203 . S
C369 O376 1.267 . S
O370 C369 1.203 . S
O371 C364 1.185 . S
O371 Zn367 2.086 . S
C372 O368 1.278 . S
C372 O373 1.211 . S
O373 C372 1.211 . S
C374 O366 1.284 . S
C374 O375 1.273 . S
O375 C374 1.273 . S
O376 Zn367 1.977 . S
O376 C369 1.267 . S
C377 O378 1.160 . S
C377 O384 1.185 . S
O378 C377 1.160 . S
O379 Zn380 1.899 . S
O379 C387 1.284 . S
Zn380 O379 1.899 . S
Zn380 O381 2.032 . S
Zn380 O384 2.086 . S
Zn380 O389 1.977 . S
O381 Zn380 2.032 . S
O381 C385 1.278 . S
C382 O383 1.203 . S
C382 O389 1.267 . S
O383 C382 1.203 . S
O384 C377 1.185 . S
O384 Zn380 2.086 . S
C385 O381 1.278 . S
C385 O386 1.211 . S
O386 C385 1.211 . S
C387 O379 1.284 . S
C387 O388 1.273 . S
O388 C387 1.273 . S
O389 Zn380 1.977 . S
O389 C382 1.267 . S
C390 O391 1.160 . S
C390 O397 1.185 . S
O391 C390 1.160 . S
O392 Zn393 1.899 . S
O392 C400 1.284 . S
Zn393 O392 1.899 . S
Zn393 O394 2.032 . S
Zn393 O397 2.086 . S
Zn393 O402 1.977 . S
O394 Zn393 2.032 . S
O394 C398 1.278 . S
C395 O396 1.203 . S
C395 O402 1.267 . S
O396 C395 1.203 . S
O397 C390 1.185 . S
O397 Zn393 2.086 . S
C398 O394 1.278 . S
C398 O399 1.211 . S
O399 C398 1.211 . S
C400 O392 1.284 . S
C400 O401 1.273 . S
O401 C400 1.273 . S
O402 Zn393 1.977 . S
O402 C395 1.267 . S
C403 O404 1.160 . S
C403 O410 1.185 . S
O404 C403 1.160 . S
O405 Zn406 1.899 . S
O405 C413 1.284 . S
Zn406 O405 1.899 . S
Zn406 O407 2.032 . S
Zn406 O410 2.086 . S
Zn406 O415 1.977 . S
O407 Zn406 2.032 . S
O407 C411 1.278 . S
C408 O409 1.203 . S
C408 O415 1.267 . S
O409 C408 1.203 . S
O410 C403 1.185 . S
O410 Zn406 2.086 . S
C411 O407 1.278 . S
C411 O412 1.211 . S
O412 C411 1.211 . S
C413 O405 1.284 . S
C413 O414 1.273 . S
O414 C413 1.273 . S
O415 Zn406 1.977 . S
O415 C408 1.267 . S
H416 C424 0.950 . S
H417 C429 0.950 . S
H418 C426 0.950 . S
H419 C428 0.950 . S
H420 C430 0.950 . S
H421 C432 0.950 . S
H422 C434 0.950 . S
H423 C435 0.950 . S
C424 H416 0.950 . S
C424 C425 1.386 . S
C424 C426 1.391 . S
C425 C424 1.386 . S
C425 C429 1.393 . S
C426 H418 0.950 . S
C426 C424 1.391 . S
C426 C427 1.400 . S
C427 C426 1.400 . S
C427 C428 1.398 . S
C427 C433 1.491 . S
C428 H419 0.950 . S
C428 C427 1.398 . S
C428 C429 1.391 . S
C429 H417 0.950 . S
C429 C425 1.393 . S
C429 C428 1.391 . S
C430 H420 0.950 . S
C430 C431 1.386 . S
C430 C432 1.391 . S
C431 C430 1.386 . S
C431 C435 1.393 . S
C432 H421 0.950 . S
C432 C430 1.391 . S
C432 C433 1.400 . S
C433 C427 1.491 . S
C433 C432 1.400 . S
C433 C434 1.398 . S
C434 H422 0.950 . S
C434 C433 1.398 . S
C434 C435 1.391 . S
C435 H423 0.950 . S
C435 C431 1.393 . S
C435 C434 1.391 . S
H436 C444 0.950 . S
H437 C449 0.950 . S
H438 C446 0.950 . S
H439 C448 0.950 . S
H440 C450 0.950 . S
H441 C452 0.950 . S
H442 C454 0.950 . S
H443 C455 0.950 . S
C444 H436 0.950 . S
C444 C445 1.386 . S
C444 C446 1.391 . S
C445 C444 1.386 . S
C445 C449 1.393 . S
C446 H438 0.950 . S
C446 C444 1.391 . S
C446 C447 1.400 . S
C447 C446 1.400 . S
C447 C448 1.398 . S
C447 C453 1.491 . S
C448 H439 0.950 . S
C448 C447 1.398 . S
C448 C449 1.391 . S
C449 H437 0.950 . S
C449 C445 1.393 . S
C449 C448 1.391 . S
C450 H440 0.950 . S
C450 C451 1.386 . S
C450 C452 1.391 . S
C451 C450 1.386 . S
C451 C455 1.393 . S
C452 H441 0.950 . S
C452 C450 1.391 . S
C452 C453 1.400 . S
C453 C447 1.491 . S
C453 C452 1.400 . S
C453 C454 1.398 . S
C454 H442 0.950 . S
C454 C453 1.398 . S
C454 C455 1.391 . S
C455 H443 0.950 . S
C455 C451 1.393 . S
C455 C454 1.391 . S
H456 C464 0.950 . S
H457 C469 0.950 . S
H458 C466 0.950 . S
H459 C468 0.950 . S
H460 C470 0.950 . S
H461 C472 0.950 . S
H462 C474 0.950 . S
H463 C475 0.950 . S
C464 H456 0.950 . S
C464 C465 1.386 . S
C464 C466 1.391 . S
C465 C464 1.386 . S
C465 C469 1.393 . S
C466 H458 0.950 . S
C466 C464 1.391 . S
C466 C467 1.400 . S
C467 C466 1.400 . S
C467 C468 1.398 . S
C467 C473 1.491 . S
C468 H459 0.950 . S
C468 C467 1.398 . S
C468 C469 1.391 . S
C469 H457 0.950 . S
C469 C465 1.393 . S
C469 C468 1.391 . S
C470 H460 0.950 . S
C470 C471 1.386 . S
C470 C472 1.391 . S
C471 C470 1.386 . S
C471 C475 1.393 . S
C472 H461 0.950 . S
C472 C470 1.391 . S
C472 C473 1.400 . S
C473 C467 1.491 . S
C473 C472 1.400 . S
C473 C474 1.398 . S
C474 H462 0.950 . S
C474 C473 1.398 . S
C474 C475 1.391 . S
C475 H463 0.950 . S
C475 C471 1.393 . S
C475 C474 1.391 . S
H476 C484 0.950 . S
H477 C489 0.950 . S
H478 C486 0.950 . S
H479 C488 0.950 . S
H480 C490 0.950 . S
H481 C492 0.950 . S
H482 C494 0.950 . S
H483 C495 0.950 . S
C484 H476 0.950 . S
C484 C485 1.386 . S
C484 C486 1.391 . S
C485 C484 1.386 . S
C485 C489 1.393 . S
C486 H478 0.950 . S
C486 C484 1.391 . S
C486 C487 1.400 . S
C487 C486 1.400 . S
C487 C488 1.398 . S
C487 C493 1.491 . S
C488 H479 0.950 . S
C488 C487 1.398 . S
C488 C489 1.391 . S
C489 H477 0.950 . S
C489 C485 1.393 . S
C489 C488 1.391 . S
C490 H480 0.950 . S
C490 C491 1.386 . S
C490 C492 1.391 . S
C491 C490 1.386 . S
C491 C495 1.393 . S
C492 H481 0.950 . S
C492 C490 1.391 . S
C492 C493 1.400 . S
C493 C487 1.491 . S
C493 C492 1.400 . S
C493 C494 1.398 . S
C494 H482 0.950 . S
C494 C493 1.398 . S
C494 C495 1.391 . S
C495 H483 0.950 . S
C495 C491 1.393 . S
C495 C494 1.391 . S
H496 C504 0.950 . S
H497 C509 0.950 . S
H498 C506 0.950 . S
H499 C508 0.950 . S
H500 C510 0.950 . S
H501 C512 0.950 . S
H502 C514 0.950 . S
H503 C515 0.950 . S
C504 H496 0.950 . S
C504 C505 1.386 . S
C504 C506 1.391 . S
C505 C504 1.386 . S
C505 C509 1.393 . S
C506 H498 0.950 . S
C506 C504 1.391 . S
C506 C507 1.400 . S
C507 C506 1.400 . S
C507 C508 1.398 . S
C507 C513 1.491 . S
C508 H499 0.950 . S
C508 C507 1.398 . S
C508 C509 1.391 . S
C509 H497 0.950 . S
C509 C505 1.393 . S
C509 C508 1.391 . S
C510 H500 0.950 . S
C510 C511 1.386 . S
C510 C512 1.391 . S
C511 C510 1.386 . S
C511 C515 1.393 . S
C512 H501 0.950 . S
C512 C510 1.391 . S
C512 C513 1.400 . S
C513 C507 1.491 . S
C513 C512 1.400 . S
C513 C514 1.398 . S
C514 H502 0.950 . S
C514 C513 1.398 . S
C514 C515 1.391 . S
C515 H503 0.950 . S
C515 C511 1.393 . S
C515 C514 1.391 . S
H516 C524 0.950 . S
H517 C529 0.950 . S
H518 C526 0.950 . S
H519 C528 0.950 . S
H520 C530 0.950 . S
H521 C532 0.950 . S
H522 C534 0.950 . S
H523 C535 0.950 . S
C524 H516 0.950 . S
C524 C525 1.386 . S
C524 C526 1.391 . S
C525 C524 1.386 . S
C525 C529 1.393 . S
C526 H518 0.950 . S
C526 C524 1.391 . S
C526 C527 1.400 . S
C527 C526 1.400 . S
C527 C528 1.398 . S
C527 C533 1.491 . S
C528 H519 0.950 . S
C528 C527 1.398 . S
C528 C529 1.391 . S
C529 H517 0.950 . S
C529 C525 1.393 . S
C529 C528 1.391 . S
C530 H520 0.950 . S
C530 C531 1.386 . S
C530 C532 1.391 . S
C531 C530 1.386 . S
C531 C535 1.393 . S
C532 H521 0.950 . S
C532 C530 1.391 . S
C532 C533 1.400 . S
C533 C527 1.491 . S
C533 C532 1.400 . S
C533 C534 1.398 . S
C534 H522 0.950 . S
C534 C533 1.398 . S
C534 C535 1.391 . S
C535 H523 0.950 . S
C535 C531 1.393 . S
C535 C534 1.391 . S
H536 C544 0.950 . S
H537 C549 0.950 . S
H538 C546 0.950 . S
H539 C548 0.950 . S
H540 C550 0.950 . S
H541 C552 0.950 . S
H542 C554 0.950 . S
H543 C555 0.950 . S
C544 H536 0.950 . S
C544 C545 1.386 . S
C544 C546 1.391 . S
C545 C544 1.386 . S
C545 C549 1.393 . S
C546 H538 0.950 . S
C546 C544 1.391 . S
C546 C547 1.400 . S
C547 C546 1.400 . S
C547 C548 1.398 . S
C547 C553 1.491 . S
C548 H539 0.950 . S
C548 C547 1.398 . S
C548 C549 1.391 . S
C549 H537 0.950 . S
C549 C545 1.393 . S
C549 C548 1.391 . S
C550 H540 0.950 . S
C550 C551 1.386 . S
C550 C552 1.391 . S
C551 C550 1.386 . S
C551 C555 1.393 . S
C552 H541 0.950 . S
C552 C550 1.391 . S
C552 C553 1.400 . S
C553 C547 1.491 . S
C553 C552 1.400 . S
C553 C554 1.398 . S
C554 H542 0.950 . S
C554 C553 1.398 . S
C554 C555 1.391 . S
C555 H543 0.950 . S
C555 C551 1.393 . S
C555 C554 1.391 . S
H556 C564 0.950 . S
H557 C569 0.950 . S
H558 C566 0.950 . S
H559 C568 0.950 . S
H560 C570 0.950 . S
H561 C572 0.950 . S
H562 C574 0.950 . S
H563 C575 0.950 . S
C564 H556 0.950 . S
C564 C565 1.386 . S
C564 C566 1.391 . S
C565 C564 1.386 . S
C565 C569 1.393 . S
C566 H558 0.950 . S
C566 C564 1.391 . S
C566 C567 1.400 . S
C567 C566 1.400 . S
C567 C568 1.398 . S
C567 C573 1.491 . S
C568 H559 0.950 . S
C568 C567 1.398 . S
C568 C569 1.391 . S
C569 H557 0.950 . S
C569 C565 1.393 . S
C569 C568 1.391 . S
C570 H560 0.950 . S
C570 C571 1.386 . S
C570 C572 1.391 . S
C571 C570 1.386 . S
C571 C575 1.393 . S
C572 H561 0.950 . S
C572 C570 1.391 . S
C572 C573 1.400 . S
C573 C567 1.491 . S
C573 C572 1.400 . S
C573 C574 1.398 . S
C574 H562 0.950 . S
C574 C573 1.398 . S
C574 C575 1.391 . S
C575 H563 0.950 . S
C575 C571 1.393 . S
C575 C574 1.391 . S
H576 C584 0.950 . S
H577 C589 0.950 . S
H578 C586 0.950 . S
H579 C588 0.950 . S
H580 C590 0.950 . S
H581 C592 0.950 . S
H582 C594 0.950 . S
H583 C595 0.950 . S
C584 H576 0.950 . S
C584 C585 1.386 . S
C584 C586 1.391 . S
C585 C584 1.386 . S
C585 C589 1.393 . S
C586 H578 0.950 . S
C586 C584 1.391 . S
C586 C587 1.400 . S
C587 C586 1.400 . S
C587 C588 1.398 . S
C587 C593 1.491 . S
C588 H579 0.950 . S
C588 C587 1.398 . S
C588 C589 1.391 . S
C589 H577 0.950 . S
C589 C585 1.393 . S
C589 C588 1.391 . S
C590 H580 0.950 . S
C590 C591 1.386 . S
C590 C592 1.391 . S
C591 C590 1.386 . S
C591 C595 1.393 . S
C592 H581 0.950 . S
C592 C590 1.391 . S
C592 C593 1.400 . S
C593 C587 1.491 . S
C593 C592 1.400 . S
C593 C594 1.398 . S
C594 H582 0.950 . S
C594 C593 1.398 . S
C594 C595 1.391 . S
C595 H583 0.950 . S
C595 C591 1.393 . S
C595 C594 1.391 . S
H596 C604 0.950 . S
H597 C609 0.950 . S
H598 C606 0.950 . S
H599 C608 0.950 . S
H600 C610 0.950 . S
H601 C612 0.950 . S
H602 C614 0.950 . S
H603 C615 0.950 . S
C604 H596 0.950 . S
C604 C605 1.386 . S
C604 C606 1.391 . S
C605 C604 1.386 . S
C605 C609 1.393 . S
C606 H598 0.950 . S
C606 C604 1.391 . S
C606 C607 1.400 . S
C607 C606 1.400 . S
C607 C608 1.398 . S
C607 C613 1.491 . S
C608 H599 0.950 . S
C608 C607 1.398 . S
C608 C609 1.391 . S
C609 H597 0.950 . S
C609 C605 1.393 . S
C609 C608 1.391 . S
C610 H600 0.950 . S
C610 C611 1.386 . S
C610 C612 1.391 . S
C611 C610 1.386 . S
C611 C615 1.393 . S
C612 H601 0.950 . S
C612 C610 1.391 . S
C612 C613 1.400 . S
C613 C607 1.491 . S
C613 C612 1.400 . S
C613 C614 1.398 . S
C614 H602 0.950 . S
C614 C613 1.398 . S
C614 C615 1.391 . S
C615 H603 0.950 . S
C615 C611 1.393 . S
C615 C614 1.391 . S
H616 C624 0.950 . S
H617 C629 0.950 . S
H618 C626 0.950 . S
H619 C628 0.950 . S
H620 C630 0.950 . S
H621 C632 0.950 . S
H622 C634 0.950 . S
H623 C635 0.950 . S
C624 H616 0.950 . S
C624 C625 1.386 . S
C624 C626 1.391 . S
C625 C624 1.386 . S
C625 C629 1.393 . S
C626 H618 0.950 . S
C626 C624 1.391 . S
C626 C627 1.400 . S
C627 C626 1.400 . S
C627 C628 1.398 . S
C627 C633 1.491 . S
C628 H619 0.950 . S
C628 C627 1.398 . S
C628 C629 1.391 . S
C629 H617 0.950 . S
C629 C625 1.393 . S
C629 C628 1.391 . S
C630 H620 0.950 . S
C630 C631 1.386 . S
C630 C632 1.391 . S
C631 C630 1.386 . S
C631 C635 1.393 . S
C632 H621 0.950 . S
C632 C630 1.391 . S
C632 C633 1.400 . S
C633 C627 1.491 . S
C633 C632 1.400 . S
C633 C634 1.398 . S
C634 H622 0.950 . S
C634 C633 1.398 . S
C634 C635 1.391 . S
C635 H623 0.950 . S
C635 C631 1.393 . S
C635 C634 1.391 . S
H636 C644 0.950 . S
H637 C649 0.950 . S
H638 C646 0.950 . S
H639 C648 0.950 . S
H640 C650 0.950 . S
H641 C652 0.950 . S
H642 C654 0.950 . S
H643 C655 0.950 . S
C644 H636 0.950 . S
C644 C645 1.386 . S
C644 C646 1.391 . S
C645 C644 1.386 . S
C645 C649 1.393 . S
C646 H638 0.950 . S
C646 C644 1.391 . S
C646 C647 1.400 . S
C647 C646 1.400 . S
C647 C648 1.398 . S
C647 C653 1.491 . S
C648 H639 0.950 . S
C648 C647 1.398 . S
C648 C649 1.391 . S
C649 H637 0.950 . S
C649 C645 1.393 . S
C649 C648 1.391 . S
C650 H640 0.950 . S
C650 C651 1.386 . S
C650 C652 1.391 . S
C651 C650 1.386 . S
C651 C655 1.393 . S
C652 H641 0.950 . S
C652 C650 1.391 . S
C652 C653 1.400 . S
C653 C647 1.491 . S
C653 C652 1.400 . S
C653 C654 1.398 . S
C654 H642 0.950 . S
C654 C653 1.398 . S
C654 C655 1.391 . S
C655 H643 0.950 . S
C655 C651 1.393 . S
C655 C654 1.391 . S
H656 C664 0.950 . S
H657 C669 0.950 . S
H658 C666 0.950 . S
H659 C668 0.950 . S
H660 C670 0.950 . S
H661 C672 0.950 . S
H662 C674 0.950 . S
H663 C675 0.950 . S
C664 H656 0.950 . S
C664 C665 1.386 . S
C664 C666 1.391 . S
C665 C664 1.386 . S
C665 C669 1.393 . S
C666 H658 0.950 . S
C666 C664 1.391 . S
C666 C667 1.400 . S
C667 C666 1.400 . S
C667 C668 1.398 . S
C667 C673 1.491 . S
C668 H659 0.950 . S
C668 C667 1.398 . S
C668 C669 1.391 . S
C669 H657 0.950 . S
C669 C665 1.393 . S
C669 C668 1.391 . S
C670 H660 0.950 . S
C670 C671 1.386 . S
C670 C672 1.391 . S
C671 C670 1.386 . S
C671 C675 1.393 . S
C672 H661 0.950 . S
C672 C670 1.391 . S
C672 C673 1.400 . S
C673 C667 1.491 . S
C673 C672 1.400 . S
C673 C674 1.398 . S
C674 H662 0.950 . S
C674 C673 1.398 . S
C674 C675 1.391 . S
C675 H663 0.950 . S
C675 C671 1.393 . S
C675 C674 1.391 . S
H676 C684 0.950 . S
H677 C689 0.950 . S
H678 C686 0.950 . S
H679 C688 0.950 . S
H680 C690 0.950 . S
H681 C692 0.950 . S
H682 C694 0.950 . S
H683 C695 0.950 . S
C684 H676 0.950 . S
C684 C685 1.386 . S
C684 C686 1.391 . S
C685 C684 1.386 . S
C685 C689 1.393 . S
C686 H678 0.950 . S
C686 C684 1.391 . S
C686 C687 1.400 . S
C687 C686 1.400 . S
C687 C688 1.398 . S
C687 C693 1.491 . S
C688 H679 0.950 . S
C688 C687 1.398 . S
C688 C689 1.391 . S
C689 H677 0.950 . S
C689 C685 1.393 . S
C689 C688 1.391 . S
C690 H680 0.950 . S
C690 C691 1.386 . S
C690 C692 1.391 . S
C691 C690 1.386 . S
C691 C695 1.393 . S
C692 H681 0.950 . S
C692 C690 1.391 . S
C692 C693 1.400 . S
C693 C687 1.491 . S
C693 C692 1.400 . S
C693 C694 1.398 . S
C694 H682 0.950 . S
C694 C693 1.398 . S
C694 C695 1.391 . S
C695 H683 0.950 . S
C695 C691 1.393 . S
C695 C694 1.391 . S
H696 C704 0.950 . S
H697 C709 0.950 . S
H698 C706 0.950 . S
H699 C708 0.950 . S
H700 C710 0.950 . S
H701 C712 0.950 . S
H702 C714 0.950 . S
H703 C715 0.950 . S
C704 H696 0.950 . S
C704 C705 1.386 . S
C704 C706 1.391 . S
C705 C704 1.386 . S
C705 C709 1.393 . S
C706 H698 0.950 . S
C706 C704 1.391 . S
C706 C707 1.400 . S
C707 C706 1.400 . S
C707 C708 1.398 . S
C707 C713 1.491 . S
C708 H699 0.950 . S
C708 C707 1.398 . S
C708 C709 1.391 . S
C709 H697 0.950 . S
C709 C705 1.393 . S
C709 C708 1.391 . S
C710 H700 0.950 . S
C710 C711 1.386 . S
C710 C712 1.391 . S
C711 C710 1.386 . S
C711 C715 1.393 . S
C712 H701 0.950 . S
C712 C710 1.391 . S
C712 C713 1.400 . S
C713 C707 1.491 . S
C713 C712 1.400 . S
C713 C714 1.398 . S
C714 H702 0.950 . S
C714 C713 1.398 . S
C714 C715 1.391 . S
C715 H703 0.950 . S
C715 C711 1.393 . S
C715 C714 1.391 . S
H716 C724 0.950 . S
H717 C729 0.950 . S
H718 C726 0.950 . S
H719 C728 0.950 . S
H720 C730 0.950 . S
H721 C732 0.950 . S
H722 C734 0.950 . S
H723 C735 0.950 . S
C724 H716 0.950 . S
C724 C725 1.386 . S
C724 C726 1.391 . S
C725 C724 1.386 . S
C725 C729 1.393 . S
C726 H718 0.950 . S
C726 C724 1.391 . S
C726 C727 1.400 . S
C727 C726 1.400 . S
C727 C728 1.398 . S
C727 C733 1.491 . S
C728 H719 0.950 . S
C728 C727 1.398 . S
C728 C729 1.391 . S
C729 H717 0.950 . S
C729 C725 1.393 . S
C729 C728 1.391 . S
C730 H720 0.950 . S
C730 C731 1.386 . S
C730 C732 1.391 . S
C731 C730 1.386 . S
C731 C735 1.393 . S
C732 H721 0.950 . S
C732 C730 1.391 . S
C732 C733 1.400 . S
C733 C727 1.491 . S
C733 C732 1.400 . S
C733 C734 1.398 . S
C734 H722 0.950 . S
C734 C733 1.398 . S
C734 C735 1.391 . S
C735 H723 0.950 . S
C735 C731 1.393 . S
C735 C734 1.391 . S
H736 C744 0.950 . S
H737 C749 0.950 . S
H738 C746 0.950 . S
H739 C748 0.950 . S
H740 C750 0.950 . S
H741 C752 0.950 . S
H742 C754 0.950 . S
H743 C755 0.950 . S
C744 H736 0.950 . S
C744 C745 1.386 . S
C744 C746 1.391 . S
C745 C744 1.386 . S
C745 C749 1.393 . S
C746 H738 0.950 . S
C746 C744 1.391 . S
C746 C747 1.400 . S
C747 C746 1.400 . S
C747 C748 1.398 . S
C747 C753 1.491 1_455 S
C748 H739 0.950 . S
C748 C747 1.398 . S
C748 C749 1.391 . S
C749 H737 0.950 . S
C749 C745 1.393 . S
C749 C748 1.391 . S
C750 H740 0.950 . S
C750 C751 1.386 . S
C750 C752 1.391 . S
C751 C750 1.386 . S
C751 C755 1.393 . S
C752 H741 0.950 . S
C752 C750 1.391 . S
C752 C753 1.400 . S
C753 C747 1.491 1_655 S
C753 C752 1.400 . S
C753 C754 1.398 . S
C754 H742 0.950 . S
C754 C753 1.398 . S
C754 C755 1.391 . S
C755 H743 0.950 . S
C755 C751 1.393 . S
C755 C754 1.391 . S
H756 C764 0.950 . S
H757 C769 0.950 . S
H758 C766 0.950 . S
H759 C768 0.950 . S
H760 C770 0.950 . S
H761 C772 0.950 . S
H762 C774 0.950 . S
H763 C775 0.950 . S
C764 H756 0.950 . S
C764 C765 1.386 . S
C764 C766 1.391 . S
C765 C764 1.386 . S
C765 C769 1.393 . S
C766 H758 0.950 . S
C766 C764 1.391 . S
C766 C767 1.400 . S
C767 C766 1.400 . S
C767 C768 1.398 . S
C767 C773 1.491 . S
C768 H759 0.950 . S
C768 C767 1.398 . S
C768 C769 1.391 . S
C769 H757 0.950 . S
C769 C765 1.393 . S
C769 C768 1.391 . S
C770 H760 0.950 . S
C770 C771 1.386 . S
C770 C772 1.391 . S
C771 C770 1.386 . S
C771 C775 1.393 . S
C772 H761 0.950 . S
C772 C770 1.391 . S
C772 C773 1.400 . S
C773 C767 1.491 . S
C773 C772 1.400 . S
C773 C774 1.398 . S
C774 H762 0.950 . S
C774 C773 1.398 . S
C774 C775 1.391 . S
C775 H763 0.950 . S
C775 C771 1.393 . S
C775 C774 1.391 . S
H776 C784 0.950 . S
H777 C789 0.950 . S
H778 C786 0.950 . S
H779 C788 0.950 . S
H780 C790 0.950 . S
H781 C792 0.950 . S
H782 C794 0.950 . S
H783 C795 0.950 . S
C784 H776 0.950 . S
C784 C785 1.386 . S
C784 C786 1.391 . S
C785 C784 1.386 . S
C785 C789 1.393 . S
C786 H778 0.950 . S
C786 C784 1.391 . S
C786 C787 1.400 . S
C787 C786 1.400 . S
C787 C788 1.398 . S
C787 C793 1.491 . S
C788 H779 0.950 . S
C788 C787 1.398 . S
C788 C789 1.391 . S
C789 H777 0.950 . S
C789 C785 1.393 . S
C789 C788 1.391 . S
C790 H780 0.950 . S
C790 C791 1.386 . S
C790 C792 1.391 . S
C791 C790 1.386 . S
C791 C795 1.393 . S
C792 H781 0.950 . S
C792 C790 1.391 . S
C792 C793 1.400 . S
C793 C787 1.491 . S
C793 C792 1.400 . S
C793 C794 1.398 . S
C794 H782 0.950 . S
C794 C793 1.398 . S
C794 C795 1.391 . S
C795 H783 0.950 . S
C795 C791 1.393 . S
C795 C794 1.391 . S
H796 C804 0.950 . S
H797 C809 0.950 . S
H798 C806 0.950 . S
H799 C808 0.950 . S
H800 C810 0.950 . S
H801 C812 0.950 . S
H802 C814 0.950 . S
H803 C815 0.950 . S
C804 H796 0.950 . S
C804 C805 1.386 . S
C804 C806 1.391 . S
C805 C804 1.386 . S
C805 C809 1.393 . S
C806 H798 0.950 . S
C806 C804 1.391 . S
C806 C807 1.400 . S
C807 C806 1.400 . S
C807 C808 1.398 . S
C807 C813 1.491 . S
C808 H799 0.950 . S
C808 C807 1.398 . S
C808 C809 1.391 . S
C809 H797 0.950 . S
C809 C805 1.393 . S
C809 C808 1.391 . S
C810 H800 0.950 . S
C810 C811 1.386 . S
C810 C812 1.391 . S
C811 C810 1.386 . S
C811 C815 1.393 . S
C812 H801 0.950 . S
C812 C810 1.391 . S
C812 C813 1.400 . S
C813 C807 1.491 . S
C813 C812 1.400 . S
C813 C814 1.398 . S
C814 H802 0.950 . S
C814 C813 1.398 . S
C814 C815 1.391 . S
C815 H803 0.950 . S
C815 C811 1.393 . S
C815 C814 1.391 . S
H816 C824 0.950 . S
H817 C829 0.950 . S
H818 C826 0.950 . S
H819 C828 0.950 . S
H820 C830 0.950 . S
H821 C832 0.950 . S
H822 C834 0.950 . S
H823 C835 0.950 . S
C824 H816 0.950 . S
C824 C825 1.386 . S
C824 C826 1.391 . S
C825 C824 1.386 . S
C825 C829 1.393 . S
C826 H818 0.950 . S
C826 C824 1.391 . S
C826 C827 1.400 . S
C827 C826 1.400 . S
C827 C828 1.398 . S
C827 C833 1.491 1_655 S
C828 H819 0.950 . S
C828 C827 1.398 . S
C828 C829 1.391 . S
C829 H817 0.950 . S
C829 C825 1.393 . S
C829 C828 1.391 . S
C830 H820 0.950 . S
C830 C831 1.386 . S
C830 C832 1.391 . S
C831 C830 1.386 . S
C831 C835 1.393 . S
C832 H821 0.950 . S
C832 C830 1.391 . S
C832 C833 1.400 . S
C833 C827 1.491 1_455 S
C833 C832 1.400 . S
C833 C834 1.398 . S
C834 H822 0.950 . S
C834 C833 1.398 . S
C834 C835 1.391 . S
C835 H823 0.950 . S
C835 C831 1.393 . S
C835 C834 1.391 . S
H836 C844 0.950 . S
H837 C849 0.950 . S
H838 C846 0.950 . S
H839 C848 0.950 . S
H840 C850 0.950 . S
H841 C852 0.950 . S
H842 C854 0.950 . S
H843 C855 0.950 . S
C844 H836 0.950 . S
C844 C845 1.386 . S
C844 C846 1.391 . S
C845 C844 1.386 . S
C845 C849 1.393 . S
C846 H838 0.950 . S
C846 C844 1.391 . S
C846 C847 1.400 . S
C847 C846 1.400 . S
C847 C848 1.398 . S
C847 C853 1.491 . S
C848 H839 0.950 . S
C848 C847 1.398 . S
C848 C849 1.391 . S
C849 H837 0.950 . S
C849 C845 1.393 . S
C849 C848 1.391 . S
C850 H840 0.950 . S
C850 C851 1.386 . S
C850 C852 1.391 . S
C851 C850 1.386 . S
C851 C855 1.393 . S
C852 H841 0.950 . S
C852 C850 1.391 . S
C852 C853 1.400 . S
C853 C847 1.491 . S
C853 C852 1.400 . S
C853 C854 1.398 . S
C854 H842 0.950 . S
C854 C853 1.398 . S
C854 C855 1.391 . S
C855 H843 0.950 . S
C855 C851 1.393 . S
C855 C854 1.391 . S
H856 C864 0.950 . S
H857 C869 0.950 . S
H858 C866 0.950 . S
H859 C868 0.950 . S
H860 C870 0.950 . S
H861 C872 0.950 . S
H862 C874 0.950 . S
H863 C875 0.950 . S
C864 H856 0.950 . S
C864 C865 1.386 . S
C864 C866 1.391 . S
C865 C864 1.386 . S
C865 C869 1.393 . S
C866 H858 0.950 . S
C866 C864 1.391 . S
C866 C867 1.400 . S
C867 C866 1.400 . S
C867 C868 1.398 . S
C867 C873 1.491 . S
C868 H859 0.950 . S
C868 C867 1.398 . S
C868 C869 1.391 . S
C869 H857 0.950 . S
C869 C865 1.393 . S
C869 C868 1.391 . S
C870 H860 0.950 . S
C870 C871 1.386 . S
C870 C872 1.391 . S
C871 C870 1.386 . S
C871 C875 1.393 . S
C872 H861 0.950 . S
C872 C870 1.391 . S
C872 C873 1.400 . S
C873 C867 1.491 . S
C873 C872 1.400 . S
C873 C874 1.398 . S
C874 H862 0.950 . S
C874 C873 1.398 . S
C874 C875 1.391 . S
C875 H863 0.950 . S
C875 C871 1.393 . S
C875 C874 1.391 . S
H876 C884 0.950 . S
H877 C889 0.950 . S
H878 C886 0.950 . S
H879 C888 0.950 . S
H880 C890 0.950 . S
H881 C892 0.950 . S
H882 C894 0.950 . S
H883 C895 0.950 . S
C884 H876 0.950 . S
C884 C885 1.386 . S
C884 C886 1.391 . S
C885 C884 1.386 . S
C885 C889 1.393 . S
C886 H878 0.950 . S
C886 C884 1.391 . S
C886 C887 1.400 . S
C887 C886 1.400 . S
C887 C888 1.398 . S
C887 C893 1.491 . S
C888 H879 0.950 . S
C888 C887 1.398 . S
C888 C889 1.391 . S
C889 H877 0.950 . S
C889 C885 1.393 . S
C889 C888 1.391 . S
C890 H880 0.950 . S
C890 C891 1.386 . S
C890 C892 1.391 . S
C891 C890 1.386 . S
C891 C895 1.393 . S
C892 H881 0.950 . S
C892 C890 1.391 . S
C892 C893 1.400 . S
C893 C887 1.491 . S
C893 C892 1.400 . S
C893 C894 1.398 . S
C894 H882 0.950 . S
C894 C893 1.398 . S
C894 C895 1.391 . S
C895 H883 0.950 . S
C895 C891 1.393 . S
C895 C894 1.391 . S
H896 C904 0.950 . S
H897 C909 0.950 . S
H898 C906 0.950 . S
H899 C908 0.950 . S
H900 C910 0.950 . S
H901 C912 0.950 . S
H902 C914 0.950 . S
H903 C915 0.950 . S
C904 H896 0.950 . S
C904 C905 1.386 . S
C904 C906 1.391 . S
C905 C904 1.386 . S
C905 C909 1.393 . S
C906 H898 0.950 . S
C906 C904 1.391 . S
C906 C907 1.400 . S
C907 C906 1.400 . S
C907 C908 1.398 . S
C907 C913 1.491 . S
C908 H899 0.950 . S
C908 C907 1.398 . S
C908 C909 1.391 . S
C909 H897 0.950 . S
C909 C905 1.393 . S
C909 C908 1.391 . S
C910 H900 0.950 . S
C910 C911 1.386 . S
C910 C912 1.391 . S
C911 C910 1.386 . S
C911 C915 1.393 . S
C912 H901 0.950 . S
C912 C910 1.391 . S
C912 C913 1.400 . S
C913 C907 1.491 . S
C913 C912 1.400 . S
C913 C914 1.398 . S
C914 H902 0.950 . S
C914 C913 1.398 . S
C914 C915 1.391 . S
C915 H903 0.950 . S
C915 C911 1.393 . S
C915 C914 1.391 . S
H916 C924 0.950 . S
H917 C929 0.950 . S
H918 C926 0.950 . S
H919 C928 0.950 . S
H920 C930 0.950 . S
H921 C932 0.950 . S
H922 C934 0.950 . S
H923 C935 0.950 . S
C924 H916 0.950 . S
C924 C925 1.386 . S
C924 C926 1.391 . S
C925 C924 1.386 . S
C925 C929 1.393 . S
C926 H918 0.950 . S
C926 C924 1.391 . S
C926 C927 1.400 . S
C927 C926 1.400 . S
C927 C928 1.398 . S
C927 C933 1.491 . S
C928 H919 0.950 . S
C928 C927 1.398 . S
C928 C929 1.391 . S
C929 H917 0.950 . S
C929 C925 1.393 . S
C929 C928 1.391 . S
C930 H920 0.950 . S
C930 C931 1.386 . S
C930 C932 1.391 . S
C931 C930 1.386 . S
C931 C935 1.393 . S
C932 H921 0.950 . S
C932 C930 1.391 . S
C932 C933 1.400 . S
C933 C927 1.491 . S
C933 C932 1.400 . S
C933 C934 1.398 . S
C934 H922 0.950 . S
C934 C933 1.398 . S
C934 C935 1.391 . S
C935 H923 0.950 . S
C935 C931 1.393 . S
C935 C934 1.391 . S
H936 C944 0.950 . S
H937 C949 0.950 . S
H938 C946 0.950 . S
H939 C948 0.950 . S
H940 C950 0.950 . S
H941 C952 0.950 . S
H942 C954 0.950 . S
H943 C955 0.950 . S
C944 H936 0.950 . S
C944 C945 1.386 . S
C944 C946 1.391 . S
C945 C944 1.386 . S
C945 C949 1.393 . S
C946 H938 0.950 . S
C946 C944 1.391 . S
C946 C947 1.400 . S
C947 C946 1.400 . S
C947 C948 1.398 . S
C947 C953 1.491 . S
C948 H939 0.950 . S
C948 C947 1.398 . S
C948 C949 1.391 . S
C949 H937 0.950 . S
C949 C945 1.393 . S
C949 C948 1.391 . S
C950 H940 0.950 . S
C950 C951 1.386 . S
C950 C952 1.391 . S
C951 C950 1.386 . S
C951 C955 1.393 . S
C952 H941 0.950 . S
C952 C950 1.391 . S
C952 C953 1.400 . S
C953 C947 1.491 . S
C953 C952 1.400 . S
C953 C954 1.398 . S
C954 H942 0.950 . S
C954 C953 1.398 . S
C954 C955 1.391 . S
C955 H943 0.950 . S
C955 C951 1.393 . S
C955 C954 1.391 . S
H956 C964 0.950 . S
H957 C969 0.950 . S
H958 C966 0.950 . S
H959 C968 0.950 . S
H960 C970 0.950 . S
H961 C972 0.950 . S
H962 C974 0.950 . S
H963 C975 0.950 . S
C964 H956 0.950 . S
C964 C965 1.386 . S
C964 C966 1.391 . S
C965 C964 1.386 . S
C965 C969 1.393 . S
C966 H958 0.950 . S
C966 C964 1.391 . S
C966 C967 1.400 . S
C967 C966 1.400 . S
C967 C968 1.398 . S
C967 C973 1.491 . S
C968 H959 0.950 . S
C968 C967 1.398 . S
C968 C969 1.391 . S
C969 H957 0.950 . S
C969 C965 1.393 . S
C969 C968 1.391 . S
C970 H960 0.950 . S
C970 C971 1.386 . S
C970 C972 1.391 . S
C971 C970 1.386 . S
C971 C975 1.393 . S
C972 H961 0.950 . S
C972 C970 1.391 . S
C972 C973 1.400 . S
C973 C967 1.491 . S
C973 C972 1.400 . S
C973 C974 1.398 . S
C974 H962 0.950 . S
C974 C973 1.398 . S
C974 C975 1.391 . S
C975 H963 0.950 . S
C975 C971 1.393 . S
C975 C974 1.391 . S
H976 C984 0.950 . S
H977 C989 0.950 . S
H978 C986 0.950 . S
H979 C988 0.950 . S
H980 C990 0.950 . S
H981 C992 0.950 . S
H982 C994 0.950 . S
H983 C995 0.950 . S
C984 H976 0.950 . S
C984 C985 1.386 . S
C984 C986 1.391 . S
C985 C984 1.386 . S
C985 C989 1.393 . S
C986 H978 0.950 . S
C986 C984 1.391 . S
C986 C987 1.400 . S
C987 C986 1.400 . S
C987 C988 1.398 . S
C987 C993 1.491 . S
C988 H979 0.950 . S
C988 C987 1.398 . S
C988 C989 1.391 . S
C989 H977 0.950 . S
C989 C985 1.393 . S
C989 C988 1.391 . S
C990 H980 0.950 . S
C990 C991 1.386 . S
C990 C992 1.391 . S
C991 C990 1.386 . S
C991 C995 1.393 . S
C992 H981 0.950 . S
C992 C990 1.391 . S
C992 C993 1.400 . S
C993 C987 1.491 . S
C993 C992 1.400 . S
C993 C994 1.398 . S
C994 H982 0.950 . S
C994 C993 1.398 . S
C994 C995 1.391 . S
C995 H983 0.950 . S
C995 C991 1.393 . S
C995 C994 1.391 . S
H996 C1004 0.950 . S
H997 C1009 0.950 . S
H998 C1006 0.950 . S
H999 C1008 0.950 . S
H1000 C1010 0.950 . S
H1001 C1012 0.950 . S
H1002 C1014 0.950 . S
H1003 C1015 0.950 . S
C1004 H996 0.950 . S
C1004 C1005 1.386 . S
C1004 C1006 1.391 . S
C1005 C1004 1.386 . S
C1005 C1009 1.393 . S
C1006 H998 0.950 . S
C1006 C1004 1.391 . S
C1006 C1007 1.400 . S
C1007 C1006 1.400 . S
C1007 C1008 1.398 . S
C1007 C1013 1.491 1_655 S
C1008 H999 0.950 . S
C1008 C1007 1.398 . S
C1008 C1009 1.391 . S
C1009 H997 0.950 . S
C1009 C1005 1.393 . S
C1009 C1008 1.391 . S
C1010 H1000 0.950 . S
C1010 C1011 1.386 . S
C1010 C1012 1.391 . S
C1011 C1010 1.386 . S
C1011 C1015 1.393 . S
C1012 H1001 0.950 . S
C1012 C1010 1.391 . S
C1012 C1013 1.400 . S
C1013 C1007 1.491 1_455 S
C1013 C1012 1.400 . S
C1013 C1014 1.398 . S
C1014 H1002 0.950 . S
C1014 C1013 1.398 . S
C1014 C1015 1.391 . S
C1015 H1003 0.950 . S
C1015 C1011 1.393 . S
C1015 C1014 1.391 . S
H1016 C1024 0.950 . S
H1017 C1029 0.950 . S
H1018 C1026 0.950 . S
H1019 C1028 0.950 . S
H1020 C1030 0.950 . S
H1021 C1032 0.950 . S
H1022 C1034 0.950 . S
H1023 C1035 0.950 . S
C1024 H1016 0.950 . S
C1024 C1025 1.386 . S
C1024 C1026 1.391 . S
C1025 C1024 1.386 . S
C1025 C1029 1.393 . S
C1026 H1018 0.950 . S
C1026 C1024 1.391 . S
C1026 C1027 1.400 . S
C1027 C1026 1.400 . S
C1027 C1028 1.398 . S
C1027 C1033 1.491 . S
C1028 H1019 0.950 . S
C1028 C1027 1.398 . S
C1028 C1029 1.391 . S
C1029 H1017 0.950 . S
C1029 C1025 1.393 . S
C1029 C1028 1.391 . S
C1030 H1020 0.950 . S
C1030 C1031 1.386 . S
C1030 C1032 1.391 . S
C1031 C1030 1.386 . S
C1031 C1035 1.393 . S
C1032 H1021 0.950 . S
C1032 C1030 1.391 . S
C1032 C1033 1.400 . S
C1033 C1027 1.491 . S
C1033 C1032 1.400 . S
C1033 C1034 1.398 . S
C1034 H1022 0.950 . S
C1034 C1033 1.398 . S
C1034 C1035 1.391 . S
C1035 H1023 0.950 . S
C1035 C1031 1.393 . S
C1035 C1034 1.391 . S
H1036 C1044 0.950 . S
H1037 C1049 0.950 . S
H1038 C1046 0.950 . S
H1039 C1048 0.950 . S
H1040 C1050 0.950 . S
H1041 C1052 0.950 . S
H1042 C1054 0.950 . S
H1043 C1055 0.950 . S
C1044 H1036 0.950 . S
C1044 C1045 1.386 . S
C1044 C1046 1.391 . S
C1045 C1044 1.386 . S
C1045 C1049 1.393 . S
C1046 H1038 0.950 . S
C1046 C1044 1.391 . S
C1046 C1047 1.400 . S
C1047 C1046 1.400 . S
C1047 C1048 1.398 . S
C1047 C1053 1.491 1_455 S
C1048 H1039 0.950 . S
C1048 C1047 1.398 . S
C1048 C1049 1.391 . S
C1049 H1037 0.950 . S
C1049 C1045 1.393 . S
C1049 C1048 1.391 . S
C1050 H1040 0.950 . S
C1050 C1051 1.386 . S
C1050 C1052 1.391 . S
C1051 C1050 1.386 . S
C1051 C1055 1.393 . S
C1052 H1041 0.950 . S
C1052 C1050 1.391 . S
C1052 C1053 1.400 . S
C1053 C1047 1.491 1_655 S
C1053 C1052 1.400 . S
C1053 C1054 1.398 . S
C1054 H1042 0.950 . S
C1054 C1053 1.398 . S
C1054 C1055 1.391 . S
C1055 H1043 0.950 . S
C1055 C1051 1.393 . S
C1055 C1054 1.391 . S
H1056 C1064 0.950 . S
H1057 C1069 0.950 . S
H1058 C1066 0.904 1_554 S
H1059 C1068 0.950 . S
H1060 C1070 0.950 . S
H1061 C1072 0.905 1_556 S
H1062 C1074 0.950 . S
H1063 C1075 0.950 . S
C1064 H1056 0.950 . S
C1064 C1065 1.386 . S
C1064 C1066 1.423 . S
C1065 C1064 1.386 . S
C1065 C1069 1.393 . S
C1066 H1058 0.904 1_556 S
C1066 C1064 1.423 . S
C1066 C1067 1.415 . S
C1067 C1066 1.415 . S
C1067 C1068 1.398 . S
C1067 C1073 1.491 1_556 S
C1068 H1059 0.950 . S
C1068 C1067 1.398 . S
C1068 C1069 1.391 . S
C1069 H1057 0.950 . S
C1069 C1065 1.393 . S
C1069 C1068 1.391 . S
C1070 H1060 0.950 . S
C1070 C1071 1.386 . S
C1070 C1072 1.422 . S
C1071 C1070 1.386 . S
C1071 C1075 1.393 . S
C1072 H1061 0.905 1_554 S
C1072 C1070 1.422 . S
C1072 C1073 1.415 . S
C1073 C1067 1.491 1_554 S
C1073 C1072 1.415 . S
C1073 C1074 1.398 . S
C1074 H1062 0.950 . S
C1074 C1073 1.398 . S
C1074 C1075 1.391 . S
C1075 H1063 0.950 . S
C1075 C1071 1.393 . S
C1075 C1074 1.391 . S
H1076 C1084 0.950 . S
H1077 C1089 0.950 . S
H1078 C1086 0.950 . S
H1079 C1088 0.950 . S
H1080 C1090 0.950 . S
H1081 C1092 0.950 . S
H1082 C1094 0.950 . S
H1083 C1095 0.950 . S
C1084 H1076 0.950 . S
C1084 C1085 1.386 . S
C1084 C1086 1.391 . S
C1085 C1084 1.386 . S
C1085 C1089 1.393 . S
C1086 H1078 0.950 . S
C1086 C1084 1.391 . S
C1086 C1087 1.400 . S
C1087 C1086 1.400 . S
C1087 C1088 1.398 . S
C1087 C1093 1.491 . S
C1088 H1079 0.950 . S
C1088 C1087 1.398 . S
C1088 C1089 1.391 . S
C1089 H1077 0.950 . S
C1089 C1085 1.393 . S
C1089 C1088 1.391 . S
C1090 H1080 0.950 . S
C1090 C1091 1.386 . S
C1090 C1092 1.391 . S
C1091 C1090 1.386 . S
C1091 C1095 1.393 . S
C1092 H1081 0.950 . S
C1092 C1090 1.391 . S
C1092 C1093 1.400 . S
C1093 C1087 1.491 . S
C1093 C1092 1.400 . S
C1093 C1094 1.398 . S
C1094 H1082 0.950 . S
C1094 C1093 1.398 . S
C1094 C1095 1.391 . S
C1095 H1083 0.950 . S
C1095 C1091 1.393 . S
C1095 C1094 1.391 . S
H1096 C1104 0.950 . S
H1097 C1109 0.950 . S
H1098 C1106 0.950 . S
H1099 C1108 0.950 . S
H1100 C1110 0.950 . S
H1101 C1112 0.950 . S
H1102 C1114 0.950 . S
H1103 C1115 0.950 . S
C1104 H1096 0.950 . S
C1104 C1105 1.386 . S
C1104 C1106 1.391 . S
C1105 C1104 1.386 . S
C1105 C1109 1.393 . S
C1106 H1098 0.950 . S
C1106 C1104 1.391 . S
C1106 C1107 1.400 . S
C1107 C1106 1.400 . S
C1107 C1108 1.398 . S
C1107 C1113 1.491 . S
C1108 H1099 0.950 . S
C1108 C1107 1.398 . S
C1108 C1109 1.391 . S
C1109 H1097 0.950 . S
C1109 C1105 1.393 . S
C1109 C1108 1.391 . S
C1110 H1100 0.950 . S
C1110 C1111 1.386 . S
C1110 C1112 1.391 . S
C1111 C1110 1.386 . S
C1111 C1115 1.393 . S
C1112 H1101 0.950 . S
C1112 C1110 1.391 . S
C1112 C1113 1.400 . S
C1113 C1107 1.491 . S
C1113 C1112 1.400 . S
C1113 C1114 1.398 . S
C1114 H1102 0.950 . S
C1114 C1113 1.398 . S
C1114 C1115 1.391 . S
C1115 H1103 0.950 . S
C1115 C1111 1.393 . S
C1115 C1114 1.391 . S
H1116 C1124 0.950 . S
H1117 C1129 0.950 . S
H1118 C1126 0.950 . S
H1119 C1128 0.950 . S
H1120 C1130 0.950 . S
H1121 C1132 0.950 . S
H1122 C1134 0.950 . S
H1123 C1135 0.950 . S
C1124 H1116 0.950 . S
C1124 C1125 1.386 . S
C1124 C1126 1.391 . S
C1125 C1124 1.386 . S
C1125 C1129 1.393 . S
C1126 H1118 0.950 . S
C1126 C1124 1.391 . S
C1126 C1127 1.400 . S
C1127 C1126 1.400 . S
C1127 C1128 1.398 . S
C1127 C1133 1.491 . S
C1128 H1119 0.950 . S
C1128 C1127 1.398 . S
C1128 C1129 1.391 . S
C1129 H1117 0.950 . S
C1129 C1125 1.393 . S
C1129 C1128 1.391 . S
C1130 H1120 0.950 . S
C1130 C1131 1.386 . S
C1130 C1132 1.391 . S
C1131 C1130 1.386 . S
C1131 C1135 1.393 . S
C1132 H1121 0.950 . S
C1132 C1130 1.391 . S
C1132 C1133 1.400 . S
C1133 C1127 1.491 . S
C1133 C1132 1.400 . S
C1133 C1134 1.398 . S
C1134 H1122 0.950 . S
C1134 C1133 1.398 . S
C1134 C1135 1.391 . S
C1135 H1123 0.950 . S
C1135 C1131 1.393 . S
C1135 C1134 1.391 . S
H1136 C1144 0.950 . S
H1137 C1149 0.950 . S
H1138 C1146 0.950 . S
H1139 C1148 0.950 . S
H1140 C1150 0.950 . S
H1141 C1152 0.950 . S
H1142 C1154 0.950 . S
H1143 C1155 0.950 . S
C1144 H1136 0.950 . S
C1144 C1145 1.386 . S
C1144 C1146 1.391 . S
C1145 C1144 1.386 . S
C1145 C1149 1.393 . S
C1146 H1138 0.950 . S
C1146 C1144 1.391 . S
C1146 C1147 1.400 . S
C1147 C1146 1.400 . S
C1147 C1148 1.398 . S
C1147 C1153 1.491 1_554 S
C1148 H1139 0.950 . S
C1148 C1147 1.398 . S
C1148 C1149 1.391 . S
C1149 H1137 0.950 . S
C1149 C1145 1.393 . S
C1149 C1148 1.391 . S
C1150 H1140 0.950 . S
C1150 C1151 1.386 . S
C1150 C1152 1.391 . S
C1151 C1150 1.386 . S
C1151 C1155 1.393 . S
C1152 H1141 0.950 . S
C1152 C1150 1.391 . S
C1152 C1153 1.400 . S
C1153 C1147 1.491 1_556 S
C1153 C1152 1.400 . S
C1153 C1154 1.398 . S
C1154 H1142 0.950 . S
C1154 C1153 1.398 . S
C1154 C1155 1.391 . S
C1155 H1143 0.950 . S
C1155 C1151 1.393 . S
C1155 C1154 1.391 . S
H1156 C1164 0.950 . S
H1157 C1169 0.950 . S
H1158 C1166 0.950 . S
H1159 C1168 0.950 . S
H1160 C1170 0.950 . S
H1161 C1172 0.950 . S
H1162 C1174 0.950 . S
H1163 C1175 0.950 . S
C1164 H1156 0.950 . S
C1164 C1165 1.386 . S
C1164 C1166 1.391 . S
C1165 C1164 1.386 . S
C1165 C1169 1.393 . S
C1166 H1158 0.950 . S
C1166 C1164 1.391 . S
C1166 C1167 1.400 . S
C1167 C1166 1.400 . S
C1167 C1168 1.398 . S
C1167 C1173 1.491 . S
C1168 H1159 0.950 . S
C1168 C1167 1.398 . S
C1168 C1169 1.391 . S
C1169 H1157 0.950 . S
C1169 C1165 1.393 . S
C1169 C1168 1.391 . S
C1170 H1160 0.950 . S
C1170 C1171 1.386 . S
C1170 C1172 1.391 . S
C1171 C1170 1.386 . S
C1171 C1175 1.393 . S
C1172 H1161 0.950 . S
C1172 C1170 1.391 . S
C1172 C1173 1.400 . S
C1173 C1167 1.491 . S
C1173 C1172 1.400 . S
C1173 C1174 1.398 . S
C1174 H1162 0.950 . S
C1174 C1173 1.398 . S
C1174 C1175 1.391 . S
C1175 H1163 0.950 . S
C1175 C1171 1.393 . S
C1175 C1174 1.391 . S
H1176 C1184 0.950 . S
H1177 C1189 0.950 . S
H1178 C1186 0.950 . S
H1179 C1188 0.950 . S
H1180 C1190 0.950 . S
H1181 C1192 0.950 . S
H1182 C1194 0.950 . S
H1183 C1195 0.950 . S
C1184 H1176 0.950 . S
C1184 C1185 1.386 . S
C1184 C1186 1.391 . S
C1185 C1184 1.386 . S
C1185 C1189 1.393 . S
C1186 H1178 0.950 . S
C1186 C1184 1.391 . S
C1186 C1187 1.400 . S
C1187 C1186 1.400 . S
C1187 C1188 1.398 . S
C1187 C1193 1.491 . S
C1188 H1179 0.950 . S
C1188 C1187 1.398 . S
C1188 C1189 1.391 . S
C1189 H1177 0.950 . S
C1189 C1185 1.393 . S
C1189 C1188 1.391 . S
C1190 H1180 0.950 . S
C1190 C1191 1.386 . S
C1190 C1192 1.391 . S
C1191 C1190 1.386 . S
C1191 C1195 1.393 . S
C1192 H1181 0.950 . S
C1192 C1190 1.391 . S
C1192 C1193 1.400 . S
C1193 C1187 1.491 . S
C1193 C1192 1.400 . S
C1193 C1194 1.398 . S
C1194 H1182 0.950 . S
C1194 C1193 1.398 . S
C1194 C1195 1.391 . S
C1195 H1183 0.950 . S
C1195 C1191 1.393 . S
C1195 C1194 1.391 . S
H1196 C1204 0.950 . S
H1197 C1209 0.950 . S
H1198 C1206 0.950 . S
H1199 C1208 0.950 . S
H1200 C1210 0.950 . S
H1201 C1212 0.950 . S
H1202 C1214 0.950 . S
H1203 C1215 0.950 . S
C1204 H1196 0.950 . S
C1204 C1205 1.386 . S
C1204 C1206 1.391 . S
C1205 C1204 1.386 . S
C1205 C1209 1.393 . S
C1206 H1198 0.950 . S
C1206 C1204 1.391 . S
C1206 C1207 1.400 . S
C1207 C1206 1.400 . S
C1207 C1208 1.398 . S
C1207 C1213 1.491 . S
C1208 H1199 0.950 . S
C1208 C1207 1.398 . S
C1208 C1209 1.391 . S
C1209 H1197 0.950 . S
C1209 C1205 1.393 . S
C1209 C1208 1.391 . S
C1210 H1200 0.950 . S
C1210 C1211 1.386 . S
C1210 C1212 1.391 . S
C1211 C1210 1.386 . S
C1211 C1215 1.393 . S
C1212 H1201 0.950 . S
C1212 C1210 1.391 . S
C1212 C1213 1.400 . S
C1213 C1207 1.491 . S
C1213 C1212 1.400 . S
C1213 C1214 1.398 . S
C1214 H1202 0.950 . S
C1214 C1213 1.398 . S
C1214 C1215 1.391 . S
C1215 H1203 0.950 . S
C1215 C1211 1.393 . S
C1215 C1214 1.391 . S
H1216 C1224 0.950 . S
H1217 C1229 0.950 . S
H1218 C1226 0.950 . S
H1219 C1228 0.950 . S
H1220 C1230 0.950 . S
H1221 C1232 0.950 . S
H1222 C1234 0.950 . S
H1223 C1235 0.950 . S
C1224 H1216 0.950 . S
C1224 C1225 1.386 . S
C1224 C1226 1.391 . S
C1225 C1224 1.386 . S
C1225 C1229 1.393 . S
C1226 H1218 0.950 . S
C1226 C1224 1.391 . S
C1226 C1227 1.400 . S
C1227 C1226 1.400 . S
C1227 C1228 1.398 . S
C1227 C1233 1.491 1_545 S
C1228 H1219 0.950 . S
C1228 C1227 1.398 . S
C1228 C1229 1.391 . S
C1229 H1217 0.950 . S
C1229 C1225 1.393 . S
C1229 C1228 1.391 . S
C1230 H1220 0.950 . S
C1230 C1231 1.386 . S
C1230 C1232 1.391 . S
C1231 C1230 1.386 . S
C1231 C1235 1.393 . S
C1232 H1221 0.950 . S
C1232 C1230 1.391 . S
C1232 C1233 1.400 . S
C1233 C1227 1.491 1_565 S
C1233 C1232 1.400 . S
C1233 C1234 1.398 . S
C1234 H1222 0.950 . S
C1234 C1233 1.398 . S
C1234 C1235 1.391 . S
C1235 H1223 0.950 . S
C1235 C1231 1.393 . S
C1235 C1234 1.391 . S
H1236 C1244 0.950 . S
H1237 C1249 0.950 . S
H1238 C1246 0.950 . S
H1239 C1248 0.950 . S
H1240 C1250 0.950 . S
H1241 C1252 0.950 . S
H1242 C1254 0.950 . S
H1243 C1255 0.950 . S
C1244 H1236 0.950 . S
C1244 C1245 1.386 . S
C1244 C1246 1.391 . S
C1245 C1244 1.386 . S
C1245 C1249 1.393 . S
C1246 H1238 0.950 . S
C1246 C1244 1.391 . S
C1246 C1247 1.400 . S
C1247 C1246 1.400 . S
C1247 C1248 1.398 . S
C1247 C1253 1.491 . S
C1248 H1239 0.950 . S
C1248 C1247 1.398 . S
C1248 C1249 1.391 . S
C1249 H1237 0.950 . S
C1249 C1245 1.393 . S
C1249 C1248 1.391 . S
C1250 H1240 0.950 . S
C1250 C1251 1.386 . S
C1250 C1252 1.391 . S
C1251 C1250 1.386 . S
C1251 C1255 1.393 . S
C1252 H1241 0.950 . S
C1252 C1250 1.391 . S
C1252 C1253 1.400 . S
C1253 C1247 1.491 . S
C1253 C1252 1.400 . S
C1253 C1254 1.398 . S
C1254 H1242 0.950 . S
C1254 C1253 1.398 . S
C1254 C1255 1.391 . S
C1255 H1243 0.950 . S
C1255 C1251 1.393 . S
C1255 C1254 1.391 . S
H1256 C1264 0.950 . S
H1257 C1269 0.950 . S
H1258 C1266 0.950 1_545 S
H1259 C1268 0.950 . S
H1260 C1270 0.950 . S
H1261 C1272 0.950 1_565 S
H1262 C1274 0.950 . S
H1263 C1275 0.950 . S
C1264 H1256 0.950 . S
C1264 C1265 1.386 . S
C1264 C1266 1.391 . S
C1265 C1264 1.386 . S
C1265 C1269 1.393 . S
C1266 H1258 0.950 1_565 S
C1266 C1264 1.391 . S
C1266 C1267 1.400 . S
C1267 C1266 1.400 . S
C1267 C1268 1.398 1_554 S
C1267 C1273 1.491 1_564 S
C1268 H1259 0.950 . S
C1268 C1267 1.398 1_556 S
C1268 C1269 1.391 1_556 S
C1269 H1257 0.950 . S
C1269 C1265 1.393 . S
C1269 C1268 1.391 1_554 S
C1270 H1260 0.950 . S
C1270 C1271 1.386 . S
C1270 C1272 1.391 . S
C1271 C1270 1.386 . S
C1271 C1275 1.393 . S
C1272 H1261 0.950 1_545 S
C1272 C1270 1.391 . S
C1272 C1273 1.400 . S
C1273 C1267 1.491 1_546 S
C1273 C1272 1.400 . S
C1273 C1274 1.398 1_556 S
C1274 H1262 0.950 . S
C1274 C1273 1.398 1_554 S
C1274 C1275 1.391 1_554 S
C1275 H1263 0.950 . S
C1275 C1271 1.393 . S
C1275 C1274 1.391 1_556 S
H1276 C1284 0.950 . S
H1277 C1289 0.950 . S
H1278 C1286 0.950 . S
H1279 C1288 0.950 . S
H1280 C1290 0.950 . S
H1281 C1292 0.950 . S
H1282 C1294 0.950 . S
H1283 C1295 0.950 . S
C1284 H1276 0.950 . S
C1284 C1285 1.386 . S
C1284 C1286 1.391 . S
C1285 C1284 1.386 . S
C1285 C1289 1.393 . S
C1286 H1278 0.950 . S
C1286 C1284 1.391 . S
C1286 C1287 1.400 . S
C1287 C1286 1.400 . S
C1287 C1288 1.398 . S
C1287 C1293 1.491 . S
C1288 H1279 0.950 . S
C1288 C1287 1.398 . S
C1288 C1289 1.391 . S
C1289 H1277 0.950 . S
C1289 C1285 1.393 . S
C1289 C1288 1.391 . S
C1290 H1280 0.950 . S
C1290 C1291 1.386 . S
C1290 C1292 1.391 . S
C1291 C1290 1.386 . S
C1291 C1295 1.393 . S
C1292 H1281 0.950 . S
C1292 C1290 1.391 . S
C1292 C1293 1.400 . S
C1293 C1287 1.491 . S
C1293 C1292 1.400 . S
C1293 C1294 1.398 . S
C1294 H1282 0.950 . S
C1294 C1293 1.398 . S
C1294 C1295 1.391 . S
C1295 H1283 0.950 . S
C1295 C1291 1.393 . S
C1295 C1294 1.391 . S
H1296 C1304 0.950 . S
H1297 C1309 0.950 . S
H1298 C1306 0.950 . S
H1299 C1308 0.950 . S
H1300 C1310 0.950 . S
H1301 C1312 0.950 . S
H1302 C1314 0.950 . S
H1303 C1315 0.950 . S
C1304 H1296 0.950 . S
C1304 C1305 1.386 . S
C1304 C1306 1.391 . S
C1305 C1304 1.386 . S
C1305 C1309 1.393 . S
C1306 H1298 0.950 . S
C1306 C1304 1.391 . S
C1306 C1307 1.400 . S
C1307 C1306 1.400 . S
C1307 C1308 1.398 . S
C1307 C1313 1.491 1_545 S
C1308 H1299 0.950 . S
C1308 C1307 1.398 . S
C1308 C1309 1.391 . S
C1309 H1297 0.950 . S
C1309 C1305 1.393 . S
C1309 C1308 1.391 . S
C1310 H1300 0.950 . S
C1310 C1311 1.386 . S
C1310 C1312 1.391 . S
C1311 C1310 1.386 . S
C1311 C1315 1.393 . S
C1312 H1301 0.950 . S
C1312 C1310 1.391 . S
C1312 C1313 1.400 . S
C1313 C1307 1.491 1_565 S
C1313 C1312 1.400 . S
C1313 C1314 1.398 . S
C1314 H1302 0.950 . S
C1314 C1313 1.398 . S
C1314 C1315 1.391 . S
C1315 H1303 0.950 . S
C1315 C1311 1.393 . S
C1315 C1314 1.391 . S
H1316 C1324 0.950 . S
H1317 C1329 0.950 . S
H1318 C1326 0.950 . S
H1319 C1328 0.950 . S
H1320 C1330 0.950 . S
H1321 C1332 0.950 . S
H1322 C1334 0.950 . S
H1323 C1335 0.950 . S
C1324 H1316 0.950 . S
C1324 C1325 1.386 . S
C1324 C1326 1.391 . S
C1325 C1324 1.386 . S
C1325 C1329 1.393 . S
C1326 H1318 0.950 . S
C1326 C1324 1.391 . S
C1326 C1327 1.400 . S
C1327 C1326 1.400 . S
C1327 C1328 1.398 . S
C1327 C1333 1.491 . S
C1328 H1319 0.950 . S
C1328 C1327 1.398 . S
C1328 C1329 1.391 . S
C1329 H1317 0.950 . S
C1329 C1325 1.393 . S
C1329 C1328 1.391 . S
C1330 H1320 0.950 . S
C1330 C1331 1.386 . S
C1330 C1332 1.391 . S
C1331 C1330 1.386 . S
C1331 C1335 1.393 . S
C1332 H1321 0.950 . S
C1332 C1330 1.391 . S
C1332 C1333 1.400 . S
C1333 C1327 1.491 . S
C1333 C1332 1.400 . S
C1333 C1334 1.398 . S
C1334 H1322 0.950 . S
C1334 C1333 1.398 . S
C1334 C1335 1.391 . S
C1335 H1323 0.950 . S
C1335 C1331 1.393 . S
C1335 C1334 1.391 . S
H1336 C1344 0.950 . S
H1337 C1349 0.950 . S
H1338 C1346 0.950 . S
H1339 C1348 0.950 . S
H1340 C1350 0.950 . S
H1341 C1352 0.950 . S
H1342 C1354 0.950 . S
H1343 C1355 0.950 . S
C1344 H1336 0.950 . S
C1344 C1345 1.386 . S
C1344 C1346 1.391 . S
C1345 C1344 1.386 . S
C1345 C1349 1.393 . S
C1346 H1338 0.950 . S
C1346 C1344 1.391 . S
C1346 C1347 1.400 . S
C1347 C1346 1.400 . S
C1347 C1348 1.398 . S
C1347 C1353 1.491 1_564 S
C1348 H1339 0.950 . S
C1348 C1347 1.398 . S
C1348 C1349 1.391 . S
C1349 H1337 0.950 . S
C1349 C1345 1.393 . S
C1349 C1348 1.391 . S
C1350 H1340 0.950 . S
C1350 C1351 1.386 . S
C1350 C1352 1.391 . S
C1351 C1350 1.386 . S
C1351 C1355 1.393 . S
C1352 H1341 0.950 . S
C1352 C1350 1.391 . S
C1352 C1353 1.400 . S
C1353 C1347 1.491 1_546 S
C1353 C1352 1.400 . S
C1353 C1354 1.398 . S
C1354 H1342 0.950 . S
C1354 C1353 1.398 . S
C1354 C1355 1.391 . S
C1355 H1343 0.950 . S
C1355 C1351 1.393 . S
C1355 C1354 1.391 . S
H1356 C1364 0.950 . S
H1357 C1369 0.950 . S
H1358 C1366 0.950 . S
H1359 C1368 0.950 . S
H1360 C1370 0.950 . S
H1361 C1372 0.950 . S
H1362 C1374 0.950 . S
H1363 C1375 0.950 . S
C1364 H1356 0.950 . S
C1364 C1365 1.386 . S
C1364 C1366 1.391 . S
C1365 C1364 1.386 . S
C1365 C1369 1.393 . S
C1366 H1358 0.950 . S
C1366 C1364 1.391 . S
C1366 C1367 1.400 . S
C1367 C1366 1.400 . S
C1367 C1368 1.398 . S
C1367 C1373 1.491 . S
C1368 H1359 0.950 . S
C1368 C1367 1.398 . S
C1368 C1369 1.391 . S
C1369 H1357 0.950 . S
C1369 C1365 1.393 . S
C1369 C1368 1.391 . S
C1370 H1360 0.950 . S
C1370 C1371 1.386 . S
C1370 C1372 1.391 . S
C1371 C1370 1.386 . S
C1371 C1375 1.393 . S
C1372 H1361 0.950 . S
C1372 C1370 1.391 . S
C1372 C1373 1.400 . S
C1373 C1367 1.491 . S
C1373 C1372 1.400 . S
C1373 C1374 1.398 . S
C1374 H1362 0.950 . S
C1374 C1373 1.398 . S
C1374 C1375 1.391 . S
C1375 H1363 0.950 . S
C1375 C1371 1.393 . S
C1375 C1374 1.391 . S
H1376 C1384 0.950 . S
H1377 C1389 0.950 . S
H1378 C1386 0.950 . S
H1379 C1388 0.950 . S
H1380 C1390 0.950 . S
H1381 C1392 0.950 . S
H1382 C1394 0.950 . S
H1383 C1395 0.950 . S
C1384 H1376 0.950 . S
C1384 C1385 1.386 . S
C1384 C1386 1.391 . S
C1385 C1384 1.386 . S
C1385 C1389 1.393 . S
C1386 H1378 0.950 . S
C1386 C1384 1.391 . S
C1386 C1387 1.400 . S
C1387 C1386 1.400 . S
C1387 C1388 1.398 . S
C1387 C1393 1.491 . S
C1388 H1379 0.950 . S
C1388 C1387 1.398 . S
C1388 C1389 1.391 . S
C1389 H1377 0.950 . S
C1389 C1385 1.393 . S
C1389 C1388 1.391 . S
C1390 H1380 0.950 . S
C1390 C1391 1.386 . S
C1390 C1392 1.391 . S
C1391 C1390 1.386 . S
C1391 C1395 1.393 . S
C1392 H1381 0.950 . S
C1392 C1390 1.391 . S
C1392 C1393 1.400 . S
C1393 C1387 1.491 . S
C1393 C1392 1.400 . S
C1393 C1394 1.398 . S
C1394 H1382 0.950 . S
C1394 C1393 1.398 . S
C1394 C1395 1.391 . S
C1395 H1383 0.950 . S
C1395 C1391 1.393 . S
C1395 C1394 1.391 . S
H1396 C1404 0.950 . S
H1397 C1409 0.950 . S
H1398 C1406 0.950 . S
H1399 C1408 0.950 . S
H1400 C1410 0.950 . S
H1401 C1412 0.950 . S
H1402 C1414 0.950 . S
H1403 C1415 0.950 . S
C1404 H1396 0.950 . S
C1404 C1405 1.386 . S
C1404 C1406 1.391 . S
C1405 C1404 1.386 . S
C1405 C1409 1.393 . S
C1406 H1398 0.950 . S
C1406 C1404 1.391 . S
C1406 C1407 1.400 . S
C1407 C1406 1.400 . S
C1407 C1408 1.398 . S
C1407 C1413 1.491 . S
C1408 H1399 0.950 . S
C1408 C1407 1.398 . S
C1408 C1409 1.391 . S
C1409 H1397 0.950 . S
C1409 C1405 1.393 . S
C1409 C1408 1.391 . S
C1410 H1400 0.950 . S
C1410 C1411 1.386 . S
C1410 C1412 1.391 . S
C1411 C1410 1.386 . S
C1411 C1415 1.393 . S
C1412 H1401 0.950 . S
C1412 C1410 1.391 . S
C1412 C1413 1.400 . S
C1413 C1407 1.491 . S
C1413 C1412 1.400 . S
C1413 C1414 1.398 . S
C1414 H1402 0.950 . S
C1414 C1413 1.398 . S
C1414 C1415 1.391 . S
C1415 H1403 0.950 . S
C1415 C1411 1.393 . S
C1415 C1414 1.391 . S
H1416 C1424 0.950 . S
H1417 C1429 0.950 . S
H1418 C1426 0.950 . S
H1419 C1428 0.950 . S
H1420 C1430 0.950 . S
H1421 C1432 0.950 . S
H1422 C1434 0.950 . S
H1423 C1435 0.950 . S
C1424 H1416 0.950 . S
C1424 C1425 1.386 . S
C1424 C1426 1.391 . S
C1425 C1424 1.386 . S
C1425 C1429 1.393 . S
C1426 H1418 0.950 . S
C1426 C1424 1.391 . S
C1426 C1427 1.400 . S
C1427 C1426 1.400 . S
C1427 C1428 1.398 . S
C1427 C1433 1.491 . S
C1428 H1419 0.950 . S
C1428 C1427 1.398 . S
C1428 C1429 1.391 . S
C1429 H1417 0.950 . S
C1429 C1425 1.393 . S
C1429 C1428 1.391 . S
C1430 H1420 0.950 . S
C1430 C1431 1.386 . S
C1430 C1432 1.391 . S
C1431 C1430 1.386 . S
C1431 C1435 1.393 . S
C1432 H1421 0.950 . S
C1432 C1430 1.391 . S
C1432 C1433 1.400 . S
C1433 C1427 1.491 . S
C1433 C1432 1.400 . S
C1433 C1434 1.398 . S
C1434 H1422 0.950 . S
C1434 C1433 1.398 . S
C1434 C1435 1.391 . S
C1435 H1423 0.950 . S
C1435 C1431 1.393 . S
C1435 C1434 1.391 . S
H1436 C1444 0.950 . S
H1437 C1449 0.950 . S
H1438 C1446 0.950 . S
H1439 C1448 0.950 . S
H1440 C1450 0.950 . S
H1441 C1452 0.950 . S
H1442 C1454 0.950 . S
H1443 C1455 0.950 . S
C1444 H1436 0.950 . S
C1444 C1445 1.386 . S
C1444 C1446 1.391 . S
C1445 C1444 1.386 . S
C1445 C1449 1.393 . S
C1446 H1438 0.950 . S
C1446 C1444 1.391 . S
C1446 C1447 1.400 . S
C1447 C1446 1.400 . S
C1447 C1448 1.398 . S
C1447 C1453 1.491 1_655 S
C1448 H1439 0.950 . S
C1448 C1447 1.398 . S
C1448 C1449 1.391 . S
C1449 H1437 0.950 . S
C1449 C1445 1.393 . S
C1449 C1448 1.391 . S
C1450 H1440 0.950 . S
C1450 C1451 1.386 . S
C1450 C1452 1.391 . S
C1451 C1450 1.386 . S
C1451 C1455 1.393 . S
C1452 H1441 0.950 . S
C1452 C1450 1.391 . S
C1452 C1453 1.400 . S
C1453 C1447 1.491 1_455 S
C1453 C1452 1.400 . S
C1453 C1454 1.398 . S
C1454 H1442 0.950 . S
C1454 C1453 1.398 . S
C1454 C1455 1.391 . S
C1455 H1443 0.950 . S
C1455 C1451 1.393 . S
C1455 C1454 1.391 . S
H1456 C1464 0.950 . S
H1457 C1469 0.950 . S
H1458 C1466 0.950 . S
H1459 C1468 0.950 . S
H1460 C1470 0.950 . S
H1461 C1472 0.950 . S
H1462 C1474 0.950 . S
H1463 C1475 0.950 . S
C1464 H1456 0.950 . S
C1464 C1465 1.386 . S
C1464 C1466 1.391 . S
C1465 C1464 1.386 . S
C1465 C1469 1.393 . S
C1466 H1458 0.950 . S
C1466 C1464 1.391 . S
C1466 C1467 1.400 . S
C1467 C1466 1.400 . S
C1467 C1468 1.398 . S
C1467 C1473 1.491 . S
C1468 H1459 0.950 . S
C1468 C1467 1.398 . S
C1468 C1469 1.391 . S
C1469 H1457 0.950 . S
C1469 C1465 1.393 . S
C1469 C1468 1.391 . S
C1470 H1460 0.950 . S
C1470 C1471 1.386 . S
C1470 C1472 1.391 . S
C1471 C1470 1.386 . S
C1471 C1475 1.393 . S
C1472 H1461 0.950 . S
C1472 C1470 1.391 . S
C1472 C1473 1.400 . S
C1473 C1467 1.491 . S
C1473 C1472 1.400 . S
C1473 C1474 1.398 . S
C1474 H1462 0.950 . S
C1474 C1473 1.398 . S
C1474 C1475 1.391 . S
C1475 H1463 0.950 . S
C1475 C1471 1.393 . S
C1475 C1474 1.391 . S
H1476 C1484 0.950 . S
H1477 C1489 0.950 . S
H1478 C1486 0.950 . S
H1479 C1488 0.950 . S
H1480 C1490 0.950 . S
H1481 C1492 0.950 . S
H1482 C1494 0.950 . S
H1483 C1495 0.950 . S
C1484 H1476 0.950 . S
C1484 C1485 1.386 . S
C1484 C1486 1.391 . S
C1485 C1484 1.386 . S
C1485 C1489 1.393 . S
C1486 H1478 0.950 . S
C1486 C1484 1.391 . S
C1486 C1487 1.400 . S
C1487 C1486 1.400 . S
C1487 C1488 1.398 . S
C1487 C1493 1.491 1_655 S
C1488 H1479 0.950 . S
C1488 C1487 1.398 . S
C1488 C1489 1.391 . S
C1489 H1477 0.950 . S
C1489 C1485 1.393 . S
C1489 C1488 1.391 . S
C1490 H1480 0.950 . S
C1490 C1491 1.386 . S
C1490 C1492 1.391 . S
C1491 C1490 1.386 . S
C1491 C1495 1.393 . S
C1492 H1481 0.950 . S
C1492 C1490 1.391 . S
C1492 C1493 1.400 . S
C1493 C1487 1.491 1_455 S
C1493 C1492 1.400 . S
C1493 C1494 1.398 . S
C1494 H1482 0.950 . S
C1494 C1493 1.398 . S
C1494 C1495 1.391 . S
C1495 H1483 0.950 . S
C1495 C1491 1.393 . S
C1495 C1494 1.391 . S
H1496 C1504 0.950 . S
H1497 C1509 0.950 . S
H1498 C1506 0.950 . S
H1499 C1508 0.950 . S
H1500 C1510 0.950 . S
H1501 C1512 0.950 . S
H1502 C1514 0.950 . S
H1503 C1515 0.950 . S
C1504 H1496 0.950 . S
C1504 C1505 1.386 . S
C1504 C1506 1.391 . S
C1505 C1504 1.386 . S
C1505 C1509 1.393 . S
C1506 H1498 0.950 . S
C1506 C1504 1.391 . S
C1506 C1507 1.400 . S
C1507 C1506 1.400 . S
C1507 C1508 1.398 . S
C1507 C1513 1.491 . S
C1508 H1499 0.950 . S
C1508 C1507 1.398 . S
C1508 C1509 1.391 . S
C1509 H1497 0.950 . S
C1509 C1505 1.393 . S
C1509 C1508 1.391 . S
C1510 H1500 0.950 . S
C1510 C1511 1.386 . S
C1510 C1512 1.391 . S
C1511 C1510 1.386 . S
C1511 C1515 1.393 . S
C1512 H1501 0.950 . S
C1512 C1510 1.391 . S
C1512 C1513 1.400 . S
C1513 C1507 1.491 . S
C1513 C1512 1.400 . S
C1513 C1514 1.398 . S
C1514 H1502 0.950 . S
C1514 C1513 1.398 . S
C1514 C1515 1.391 . S
C1515 H1503 0.950 . S
C1515 C1511 1.393 . S
C1515 C1514 1.391 . S
H1516 C1524 0.950 . S
H1517 C1529 0.950 . S
H1518 C1526 0.950 . S
H1519 C1528 0.950 . S
H1520 C1530 0.950 . S
H1521 C1532 0.950 . S
H1522 C1534 0.950 . S
H1523 C1535 0.950 . S
C1524 H1516 0.950 . S
C1524 C1525 1.386 . S
C1524 C1526 1.391 . S
C1525 C1524 1.386 . S
C1525 C1529 1.393 . S
C1526 H1518 0.950 . S
C1526 C1524 1.391 . S
C1526 C1527 1.400 . S
C1527 C1526 1.400 . S
C1527 C1528 1.398 . S
C1527 C1533 1.491 . S
C1528 H1519 0.950 . S
C1528 C1527 1.398 . S
C1528 C1529 1.391 . S
C1529 H1517 0.950 . S
C1529 C1525 1.393 . S
C1529 C1528 1.391 . S
C1530 H1520 0.950 . S
C1530 C1531 1.386 . S
C1530 C1532 1.391 . S
C1531 C1530 1.386 . S
C1531 C1535 1.393 . S
C1532 H1521 0.950 . S
C1532 C1530 1.391 . S
C1532 C1533 1.400 . S
C1533 C1527 1.491 . S
C1533 C1532 1.400 . S
C1533 C1534 1.398 . S
C1534 H1522 0.950 . S
C1534 C1533 1.398 . S
C1534 C1535 1.391 . S
C1535 H1523 0.950 . S
C1535 C1531 1.393 . S
C1535 C1534 1.391 . S
H1536 C1544 0.950 . S
H1537 C1549 0.950 . S
H1538 C1546 0.950 . S
H1539 C1548 0.950 . S
H1540 C1550 0.950 . S
H1541 C1552 0.950 . S
H1542 C1554 0.950 . S
H1543 C1555 0.950 . S
C1544 H1536 0.950 . S
C1544 C1545 1.386 . S
C1544 C1546 1.391 . S
C1545 C1544 1.386 . S
C1545 C1549 1.393 . S
C1546 H1538 0.950 . S
C1546 C1544 1.391 . S
C1546 C1547 1.400 . S
C1547 C1546 1.400 . S
C1547 C1548 1.398 . S
C1547 C1553 1.491 . S
C1548 H1539 0.950 . S
C1548 C1547 1.398 . S
C1548 C1549 1.391 . S
C1549 H1537 0.950 . S
C1549 C1545 1.393 . S
C1549 C1548 1.391 . S
C1550 H1540 0.950 . S
C1550 C1551 1.386 . S
C1550 C1552 1.391 . S
C1551 C1550 1.386 . S
C1551 C1555 1.393 . S
C1552 H1541 0.950 . S
C1552 C1550 1.391 . S
C1552 C1553 1.400 . S
C1553 C1547 1.491 . S
C1553 C1552 1.400 . S
C1553 C1554 1.398 . S
C1554 H1542 0.950 . S
C1554 C1553 1.398 . S
C1554 C1555 1.391 . S
C1555 H1543 0.950 . S
C1555 C1551 1.393 . S
C1555 C1554 1.391 . S
H1556 C1564 0.950 . S
H1557 C1569 0.950 . S
H1558 C1566 0.950 . S
H1559 C1568 0.950 . S
H1560 C1570 0.950 . S
H1561 C1572 0.950 . S
H1562 C1574 0.950 . S
H1563 C1575 0.950 . S
C1564 H1556 0.950 . S
C1564 C1565 1.386 . S
C1564 C1566 1.391 . S
C1565 C1564 1.386 . S
C1565 C1569 1.393 . S
C1566 H1558 0.950 . S
C1566 C1564 1.391 . S
C1566 C1567 1.400 . S
C1567 C1566 1.400 . S
C1567 C1568 1.398 . S
C1567 C1573 1.491 . S
C1568 H1559 0.950 . S
C1568 C1567 1.398 . S
C1568 C1569 1.391 . S
C1569 H1557 0.950 . S
C1569 C1565 1.393 . S
C1569 C1568 1.391 . S
C1570 H1560 0.950 . S
C1570 C1571 1.386 . S
C1570 C1572 1.391 . S
C1571 C1570 1.386 . S
C1571 C1575 1.393 . S
C1572 H1561 0.950 . S
C1572 C1570 1.391 . S
C1572 C1573 1.400 . S
C1573 C1567 1.491 . S
C1573 C1572 1.400 . S
C1573 C1574 1.398 . S
C1574 H1562 0.950 . S
C1574 C1573 1.398 . S
C1574 C1575 1.391 . S
C1575 H1563 0.950 . S
C1575 C1571 1.393 . S
C1575 C1574 1.391 . S
H1576 C1584 0.950 . S
H1577 C1589 0.950 . S
H1578 C1586 0.950 . S
H1579 C1588 0.950 . S
H1580 C1590 0.950 . S
H1581 C1592 0.950 . S
H1582 C1594 0.950 . S
H1583 C1595 0.950 . S
C1584 H1576 0.950 . S
C1584 C1585 1.386 . S
C1584 C1586 1.391 . S
C1585 C1584 1.386 . S
C1585 C1589 1.393 . S
C1586 H1578 0.950 . S
C1586 C1584 1.391 . S
C1586 C1587 1.400 . S
C1587 C1586 1.400 . S
C1587 C1588 1.398 . S
C1587 C1593 1.491 . S
C1588 H1579 0.950 . S
C1588 C1587 1.398 . S
C1588 C1589 1.391 . S
C1589 H1577 0.950 . S
C1589 C1585 1.393 . S
C1589 C1588 1.391 . S
C1590 H1580 0.950 . S
C1590 C1591 1.386 . S
C1590 C1592 1.391 . S
C1591 C1590 1.386 . S
C1591 C1595 1.393 . S
C1592 H1581 0.950 . S
C1592 C1590 1.391 . S
C1592 C1593 1.400 . S
C1593 C1587 1.491 . S
C1593 C1592 1.400 . S
C1593 C1594 1.398 . S
C1594 H1582 0.950 . S
C1594 C1593 1.398 . S
C1594 C1595 1.391 . S
C1595 H1583 0.950 . S
C1595 C1591 1.393 . S
C1595 C1594 1.391 . S
H1596 C1604 0.950 . S
H1597 C1609 0.950 . S
H1598 C1606 0.950 . S
H1599 C1608 0.950 . S
H1600 C1610 0.950 . S
H1601 C1612 0.950 . S
H1602 C1614 0.950 . S
H1603 C1615 0.950 . S
C1604 H1596 0.950 . S
C1604 C1605 1.386 . S
C1604 C1606 1.391 . S
C1605 C1604 1.386 . S
C1605 C1609 1.393 . S
C1606 H1598 0.950 . S
C1606 C1604 1.391 . S
C1606 C1607 1.400 . S
C1607 C1606 1.400 . S
C1607 C1608 1.398 . S
C1607 C1613 1.491 . S
C1608 H1599 0.950 . S
C1608 C1607 1.398 . S
C1608 C1609 1.391 . S
C1609 H1597 0.950 . S
C1609 C1605 1.393 . S
C1609 C1608 1.391 . S
C1610 H1600 0.950 . S
C1610 C1611 1.386 . S
C1610 C1612 1.391 . S
C1611 C1610 1.386 . S
C1611 C1615 1.393 . S
C1612 H1601 0.950 . S
C1612 C1610 1.391 . S
C1612 C1613 1.400 . S
C1613 C1607 1.491 . S
C1613 C1612 1.400 . S
C1613 C1614 1.398 . S
C1614 H1602 0.950 . S
C1614 C1613 1.398 . S
C1614 C1615 1.391 . S
C1615 H1603 0.950 . S
C1615 C1611 1.393 . S
C1615 C1614 1.391 . S
H1616 C1624 0.950 . S
H1617 C1629 0.950 . S
H1618 C1626 0.950 . S
H1619 C1628 0.950 . S
H1620 C1630 0.950 . S
H1621 C1632 0.950 . S
H1622 C1634 0.950 . S
H1623 C1635 0.950 . S
C1624 H1616 0.950 . S
C1624 C1625 1.386 . S
C1624 C1626 1.391 . S
C1625 C1624 1.386 . S
C1625 C1629 1.393 . S
C1626 H1618 0.950 . S
C1626 C1624 1.391 . S
C1626 C1627 1.400 . S
C1627 C1626 1.400 . S
C1627 C1628 1.398 . S
C1627 C1633 1.491 1_655 S
C1628 H1619 0.950 . S
C1628 C1627 1.398 . S
C1628 C1629 1.391 . S
C1629 H1617 0.950 . S
C1629 C1625 1.393 . S
C1629 C1628 1.391 . S
C1630 H1620 0.950 . S
C1630 C1631 1.386 . S
C1630 C1632 1.391 . S
C1631 C1630 1.386 . S
C1631 C1635 1.393 . S
C1632 H1621 0.950 . S
C1632 C1630 1.391 . S
C1632 C1633 1.400 . S
C1633 C1627 1.491 1_455 S
C1633 C1632 1.400 . S
C1633 C1634 1.398 . S
C1634 H1622 0.950 . S
C1634 C1633 1.398 . S
C1634 C1635 1.391 . S
C1635 H1623 0.950 . S
C1635 C1631 1.393 . S
C1635 C1634 1.391 . S
H1636 C1644 0.950 . S
H1637 C1649 0.950 . S
H1638 C1646 0.950 . S
H1639 C1648 0.950 . S
H1640 C1650 0.950 . S
H1641 C1652 0.950 . S
H1642 C1654 0.950 . S
H1643 C1655 0.950 . S
C1644 H1636 0.950 . S
C1644 C1645 1.386 . S
C1644 C1646 1.391 . S
C1645 C1644 1.386 . S
C1645 C1649 1.393 . S
C1646 H1638 0.950 . S
C1646 C1644 1.391 . S
C1646 C1647 1.400 . S
C1647 C1646 1.400 . S
C1647 C1648 1.398 . S
C1647 C1653 1.491 . S
C1648 H1639 0.950 . S
C1648 C1647 1.398 . S
C1648 C1649 1.391 . S
C1649 H1637 0.950 . S
C1649 C1645 1.393 . S
C1649 C1648 1.391 . S
C1650 H1640 0.950 . S
C1650 C1651 1.386 . S
C1650 C1652 1.391 . S
C1651 C1650 1.386 . S
C1651 C1655 1.393 . S
C1652 H1641 0.950 . S
C1652 C1650 1.391 . S
C1652 C1653 1.400 . S
C1653 C1647 1.491 . S
C1653 C1652 1.400 . S
C1653 C1654 1.398 . S
C1654 H1642 0.950 . S
C1654 C1653 1.398 . S
C1654 C1655 1.391 . S
C1655 H1643 0.950 . S
C1655 C1651 1.393 . S
C1655 C1654 1.391 . S
H1656 C1664 0.950 . S
H1657 C1669 0.950 . S
H1658 C1666 0.950 . S
H1659 C1668 0.950 . S
H1660 C1670 0.950 . S
H1661 C1672 0.950 . S
H1662 C1674 0.950 . S
H1663 C1675 0.950 . S
C1664 H1656 0.950 . S
C1664 C1665 1.386 . S
C1664 C1666 1.391 . S
C1665 C1664 1.386 . S
C1665 C1669 1.393 . S
C1666 H1658 0.950 . S
C1666 C1664 1.391 . S
C1666 C1667 1.400 . S
C1667 C1666 1.400 . S
C1667 C1668 1.398 . S
C1667 C1673 1.491 . S
C1668 H1659 0.950 . S
C1668 C1667 1.398 . S
C1668 C1669 1.391 . S
C1669 H1657 0.950 . S
C1669 C1665 1.393 . S
C1669 C1668 1.391 . S
C1670 H1660 0.950 . S
C1670 C1671 1.386 . S
C1670 C1672 1.391 . S
C1671 C1670 1.386 . S
C1671 C1675 1.393 . S
C1672 H1661 0.950 . S
C1672 C1670 1.391 . S
C1672 C1673 1.400 . S
C1673 C1667 1.491 . S
C1673 C1672 1.400 . S
C1673 C1674 1.398 . S
C1674 H1662 0.950 . S
C1674 C1673 1.398 . S
C1674 C1675 1.391 . S
C1675 H1663 0.950 . S
C1675 C1671 1.393 . S
C1675 C1674 1.391 . S
H1676 C1684 0.950 . S
H1677 C1689 0.950 . S
H1678 C1686 0.950 . S
H1679 C1688 0.950 . S
H1680 C1690 0.950 . S
H1681 C1692 0.950 . S
H1682 C1694 0.950 . S
H1683 C1695 0.950 . S
C1684 H1676 0.950 . S
C1684 C1685 1.386 . S
C1684 C1686 1.391 . S
C1685 C1684 1.386 . S
C1685 C1689 1.393 . S
C1686 H1678 0.950 . S
C1686 C1684 1.391 . S
C1686 C1687 1.400 . S
C1687 C1686 1.400 . S
C1687 C1688 1.398 . S
C1687 C1693 1.491 1_655 S
C1688 H1679 0.950 . S
C1688 C1687 1.398 . S
C1688 C1689 1.391 . S
C1689 H1677 0.950 . S
C1689 C1685 1.393 . S
C1689 C1688 1.391 . S
C1690 H1680 0.950 . S
C1690 C1691 1.386 . S
C1690 C1692 1.391 . S
C1691 C1690 1.386 . S
C1691 C1695 1.393 . S
C1692 H1681 0.950 . S
C1692 C1690 1.391 . S
C1692 C1693 1.400 . S
C1693 C1687 1.491 1_455 S
C1693 C1692 1.400 . S
C1693 C1694 1.398 . S
C1694 H1682 0.950 . S
C1694 C1693 1.398 . S
C1694 C1695 1.391 . S
C1695 H1683 0.950 . S
C1695 C1691 1.393 . S
C1695 C1694 1.391 . S
C425 C309 1.392 . S
C431 C10 1.394 . S
C445 C270 1.392 . S
C451 C23 1.416 . S
C465 C283 1.416 . S
C471 C36 1.392 . S
C485 C296 1.408 . S
C491 C49 1.387 . S
C505 C62 1.404 . S
C511 C231 1.387 . S
C525 C244 1.399 . S
C531 C75 1.417 . S
C545 C88 1.390 . S
C551 C257 1.397 . S
C565 C101 1.401 . S
C571 C218 1.388 . S
C585 C413 1.407 . S
C591 C114 1.387 . S
C605 C127 1.417 . S
C611 C374 1.394 . S
C625 C140 1.417 . S
C631 C387 1.400 . S
C645 C153 1.397 . S
C651 C400 1.417 . S
C665 C166 1.387 . S
C671 C335 1.407 . S
C685 C179 1.389 . S
C691 C348 1.413 . S
C705 C192 1.388 . S
C711 C361 1.401 . S
C725 C205 1.388 . S
C731 C322 1.402 . S
C745 C8 1.492 . S
C751 C164 1.478 . S
C765 C385 1.476 . S
C771 C21 1.494 . S
C785 C34 1.493 . S
C791 C190 1.477 . S
C805 C411 1.485 . S
C811 C47 1.485 . S
C825 C112 1.492 . S
C831 C60 1.478 . S
C845 C73 1.490 . S
C851 C333 1.480 . S
C865 C86 1.481 . S
C871 C138 1.489 . S
C885 C99 1.483 . S
C891 C359 1.487 . S
C905 C281 1.494 . S
C911 C125 1.476 . S
C925 C307 1.481 . S
C931 C151 1.489 . S
C945 C177 1.489 . S
C951 C229 1.481 . S
C965 C255 1.482 . S
C971 C203 1.488 . S
C985 C372 1.489 . S
C991 C216 1.481 . S
C1005 C242 1.492 . S
C1011 C398 1.478 . S
C1025 C320 1.480 . S
C1031 C268 1.490 . S
C1045 C346 1.494 . S
C1051 C294 1.476 . S
C1065 C52 1.122 . S
C1071 C0 1.115 . S
C1085 C65 1.122 . S
C1091 C13 1.115 . S
C1105 C26 1.116 . S
C1111 C78 1.113 . S
C1125 C39 1.132 . S
C1131 C91 1.139 . S
C1145 C156 1.117 . S
C1151 C104 1.113 . S
C1165 C169 1.141 . S
C1171 C117 1.139 . S
C1185 C182 1.139 . S
C1191 C130 1.132 . S
C1205 C143 1.139 . S
C1211 C195 1.132 . S
C1225 C208 1.113 . S
C1231 C260 1.115 . S
C1245 C221 1.124 . S
C1251 C273 1.116 . S
C1265 C234 1.124 . S
C1271 C286 1.133 . S
C1285 C247 1.134 . S
C1291 C299 1.125 . S
C1305 C364 1.119 . S
C1311 C312 1.114 . S
C1325 C377 1.119 . S
C1331 C325 1.128 . S
C1345 C390 1.139 . S
C1351 C338 1.141 . S
C1365 C403 1.114 . S
C1371 C351 1.118 . S
C1385 C395 1.279 . S
C1391 C5 1.245 . S
C1405 C18 1.250 . S
C1411 C200 1.274 . S
C1425 C369 1.244 . S
C1431 C31 1.279 . S
C1445 C44 1.278 . S
C1451 C174 1.246 . S
C1465 C343 1.244 . S
C1471 C57 1.279 . S
C1485 C70 1.270 . S
C1491 C148 1.254 . S
C1505 C83 1.264 . S
C1511 C317 1.260 . S
C1525 C122 1.277 . S
C1531 C96 1.246 . S
C1545 C109 1.244 . S
C1551 C291 1.279 . S
C1565 C265 1.246 . S
C1571 C135 1.277 . S
C1585 C161 1.253 . S
C1591 C239 1.271 . S
C1605 C187 1.255 . S
C1611 C213 1.268 . S
C1625 C408 1.247 . S
C1631 C226 1.276 . S
C1645 C252 1.245 . S
C1651 C382 1.279 . S
C1665 C278 1.260 . S
C1671 C356 1.264 . S
C1685 C330 1.257 . S
C1691 C304 1.267 . S
