# Generated by pormake.
# Topology xfb, (7)-cn, num edge types: 1
# Building blocks:
#     Node 0, Type 0, BuildingBlock: HICVOG_clean_sbu_0, # of connection points: 7
#     Node 1, Type 0, BuildingBlock: HICVOG_clean_sbu_0, # of connection points: 7
#     Node 2, Type 0, BuildingBlock: HICVOG_clean_sbu_0, # of connection points: 7
#     Node 3, Type 0, BuildingBlock: HICVOG_clean_sbu_0, # of connection points: 7
#     Node 4, Type 0, BuildingBlock: HICVOG_clean_sbu_0, # of connection points: 7
#     Node 5, Type 0, BuildingBlock: HICVOG_clean_sbu_0, # of connection points: 7
#     Node 6, Type 0, BuildingBlock: HICVOG_clean_sbu_0, # of connection points: 7
#     Node 7, Type 0, BuildingBlock: HICVOG_clean_sbu_0, # of connection points: 7
#     Node 8, Type 0, BuildingBlock: HICVOG_clean_sbu_0, # of connection points: 7
#     Node 9, Type 0, BuildingBlock: HICVOG_clean_sbu_0, # of connection points: 7
#     Node 10, Type 0, BuildingBlock: HICVOG_clean_sbu_0, # of connection points: 7
#     Node 11, Type 0, BuildingBlock: HICVOG_clean_sbu_0, # of connection points: 7
#     Node 12, Type 0, BuildingBlock: HICVOG_clean_sbu_0, # of connection points: 7
#     Node 13, Type 0, BuildingBlock: HICVOG_clean_sbu_0, # of connection points: 7
#     Node 14, Type 0, BuildingBlock: HICVOG_clean_sbu_0, # of connection points: 7
#     Node 15, Type 0, BuildingBlock: HICVOG_clean_sbu_0, # of connection points: 7
#     Edge 16, Type (0, 0), BuildingBlock: CIFDUS_clean_linker_0, # of connection points: 2
#     Edge 17, Type (0, 0), BuildingBlock: CIFDUS_clean_linker_0, # of connection points: 2
#     Edge 18, Type (0, 0), BuildingBlock: CIFDUS_clean_linker_0, # of connection points: 2
#     Edge 19, Type (0, 0), BuildingBlock: CIFDUS_clean_linker_0, # of connection points: 2
#     Edge 20, Type (0, 0), BuildingBlock: CIFDUS_clean_linker_0, # of connection points: 2
#     Edge 21, Type (0, 0), BuildingBlock: CIFDUS_clean_linker_0, # of connection points: 2
#     Edge 22, Type (0, 0), BuildingBlock: CIFDUS_clean_linker_0, # of connection points: 2
#     Edge 23, Type (0, 0), BuildingBlock: CIFDUS_clean_linker_0, # of connection points: 2
#     Edge 24, Type (0, 0), BuildingBlock: CIFDUS_clean_linker_0, # of connection points: 2
#     Edge 25, Type (0, 0), BuildingBlock: CIFDUS_clean_linker_0, # of connection points: 2
#     Edge 26, Type (0, 0), BuildingBlock: CIFDUS_clean_linker_0, # of connection points: 2
#     Edge 27, Type (0, 0), BuildingBlock: CIFDUS_clean_linker_0, # of connection points: 2
#     Edge 28, Type (0, 0), BuildingBlock: CIFDUS_clean_linker_0, # of connection points: 2
#     Edge 29, Type (0, 0), BuildingBlock: CIFDUS_clean_linker_0, # of connection points: 2
#     Edge 30, Type (0, 0), BuildingBlock: CIFDUS_clean_linker_0, # of connection points: 2
#     Edge 31, Type (0, 0), BuildingBlock: CIFDUS_clean_linker_0, # of connection points: 2
#     Edge 32, Type (0, 0), BuildingBlock: CIFDUS_clean_linker_0, # of connection points: 2
#     Edge 33, Type (0, 0), BuildingBlock: CIFDUS_clean_linker_0, # of connection points: 2
#     Edge 34, Type (0, 0), BuildingBlock: CIFDUS_clean_linker_0, # of connection points: 2
#     Edge 35, Type (0, 0), BuildingBlock: CIFDUS_clean_linker_0, # of connection points: 2
#     Edge 36, Type (0, 0), BuildingBlock: CIFDUS_clean_linker_0, # of connection points: 2
#     Edge 37, Type (0, 0), BuildingBlock: CIFDUS_clean_linker_0, # of connection points: 2
#     Edge 38, Type (0, 0), BuildingBlock: CIFDUS_clean_linker_0, # of connection points: 2
#     Edge 39, Type (0, 0), BuildingBlock: CIFDUS_clean_linker_0, # of connection points: 2
#     Edge 40, Type (0, 0), BuildingBlock: CIFDUS_clean_linker_0, # of connection points: 2
#     Edge 41, Type (0, 0), BuildingBlock: CIFDUS_clean_linker_0, # of connection points: 2
#     Edge 42, Type (0, 0), BuildingBlock: CIFDUS_clean_linker_0, # of connection points: 2
#     Edge 43, Type (0, 0), BuildingBlock: CIFDUS_clean_linker_0, # of connection points: 2
#     Edge 44, Type (0, 0), BuildingBlock: CIFDUS_clean_linker_0, # of connection points: 2
#     Edge 45, Type (0, 0), BuildingBlock: CIFDUS_clean_linker_0, # of connection points: 2
#     Edge 46, Type (0, 0), BuildingBlock: CIFDUS_clean_linker_0, # of connection points: 2
#     Edge 47, Type (0, 0), BuildingBlock: CIFDUS_clean_linker_0, # of connection points: 2
#     Edge 48, Type (0, 0), BuildingBlock: CIFDUS_clean_linker_0, # of connection points: 2
#     Edge 49, Type (0, 0), BuildingBlock: CIFDUS_clean_linker_0, # of connection points: 2
#     Edge 50, Type (0, 0), BuildingBlock: CIFDUS_clean_linker_0, # of connection points: 2
#     Edge 51, Type (0, 0), BuildingBlock: CIFDUS_clean_linker_0, # of connection points: 2
#     Edge 52, Type (0, 0), BuildingBlock: CIFDUS_clean_linker_0, # of connection points: 2
#     Edge 53, Type (0, 0), BuildingBlock: CIFDUS_clean_linker_0, # of connection points: 2
#     Edge 54, Type (0, 0), BuildingBlock: CIFDUS_clean_linker_0, # of connection points: 2
#     Edge 55, Type (0, 0), BuildingBlock: CIFDUS_clean_linker_0, # of connection points: 2
#     Edge 56, Type (0, 0), BuildingBlock: CIFDUS_clean_linker_0, # of connection points: 2
#     Edge 57, Type (0, 0), BuildingBlock: CIFDUS_clean_linker_0, # of connection points: 2
#     Edge 58, Type (0, 0), BuildingBlock: CIFDUS_clean_linker_0, # of connection points: 2
#     Edge 59, Type (0, 0), BuildingBlock: CIFDUS_clean_linker_0, # of connection points: 2
#     Edge 60, Type (0, 0), BuildingBlock: CIFDUS_clean_linker_0, # of connection points: 2
#     Edge 61, Type (0, 0), BuildingBlock: CIFDUS_clean_linker_0, # of connection points: 2
#     Edge 62, Type (0, 0), BuildingBlock: CIFDUS_clean_linker_0, # of connection points: 2
#     Edge 63, Type (0, 0), BuildingBlock: CIFDUS_clean_linker_0, # of connection points: 2
#     Edge 64, Type (0, 0), BuildingBlock: CIFDUS_clean_linker_0, # of connection points: 2
#     Edge 65, Type (0, 0), BuildingBlock: CIFDUS_clean_linker_0, # of connection points: 2
#     Edge 66, Type (0, 0), BuildingBlock: CIFDUS_clean_linker_0, # of connection points: 2
#     Edge 67, Type (0, 0), BuildingBlock: CIFDUS_clean_linker_0, # of connection points: 2
#     Edge 68, Type (0, 0), BuildingBlock: CIFDUS_clean_linker_0, # of connection points: 2
#     Edge 69, Type (0, 0), BuildingBlock: CIFDUS_clean_linker_0, # of connection points: 2
#     Edge 70, Type (0, 0), BuildingBlock: CIFDUS_clean_linker_0, # of connection points: 2
#     Edge 71, Type (0, 0), BuildingBlock: CIFDUS_clean_linker_0, # of connection points: 2
# Relax obj value: 0.143
# Max RMSD: 0.213
# Mean RMSD: 0.213
data_MOF--net-xfb--node1-HICVOG_clean_sbu_0--edge1-CIFDUS_clean_linker_0
_symmetry_space_group_name_H-M    P1
_symmetry_Int_Tables_number       1
_symmetry_cell_setting            triclinic
loop_
_symmetry_equiv_pos_as_xyz
'x, y, z'
_cell_length_a     52.046559
_cell_length_b     52.263056
_cell_length_c     18.392717
_cell_angle_alpha  89.956195
_cell_angle_beta   90.051433
_cell_angle_gamma 90.133037
loop_
_atom_site_label
_atom_site_type_symbol
_atom_site_fract_x
_atom_site_fract_y
_atom_site_fract_z
_atom_type_partial_charge
Zn0 Zn 0.14932 0.18182 0.11529 0.0
C1 C 0.19159 0.2195 0.25857 0.0
N2 N 0.17296 0.23721 0.25281 0.0
C3 C 0.15463 0.22498 0.21487 0.0
N4 N 0.16185 0.2011 0.19688 0.0
N5 N 0.18459 0.19722 0.22689 0.0
C6 C 0.2408 0.14042 0.31588 0.0
O7 O 0.22413 0.1219 0.32699 0.0
O8 O 0.11085 0.18523 0.10636 0.0
Zn9 Zn 0.19494 0.16378 0.26296 0.0
N10 N 0.16754 0.19361 0.02873 0.0
C11 C 0.20274 0.21701 0.9792 0.0
C12 C 0.18844 0.20891 0.03878 0.0
C13 C 0.16045 0.18595 0.96081 0.0
N14 N 0.19574 0.20936 0.91164 0.0
C15 C 0.17495 0.19403 0.9001 0.0
O16 O 0.18703 0.13353 0.19751 0.0
C17 C 0.17019 0.12751 0.15024 0.0
O18 O 0.15534 0.14407 0.12221 0.0
H19 H 0.19413 0.21478 0.09264 0.0
H20 H 0.14416 0.17324 0.95481 0.0
C21 C 0.18158 0.16468 0.41691 0.0
C22 C 0.16525 0.15949 0.47654 0.0
C23 C 0.13496 0.1409 0.39519 0.0
C24 C 0.15119 0.14595 0.33696 0.0
N25 N 0.17418 0.15758 0.34877 0.0
N26 N 0.14234 0.14772 0.46315 0.0
H27 H 0.1997 0.17453 0.42355 0.0
C28 C 0.09746 0.18047 0.16268 0.0
O29 O 0.10933 0.17641 0.22469 0.0
O30 O 0.2328 0.1615 0.2896 0.0
H31 H 0.14542 0.14077 0.28251 0.0
H32 H 0.21938 0.22917 0.98655 0.0
H33 H 0.11658 0.13166 0.38655 0.0
Zn34 Zn 0.57992 0.39148 0.39565 0.0
C35 C 0.54427 0.43732 0.53329 0.0
N36 N 0.52792 0.41756 0.54165 0.0
C37 C 0.54001 0.39821 0.50823 0.0
N38 N 0.56246 0.40585 0.47895 0.0
N39 N 0.56592 0.42997 0.49837 0.0
C40 C 0.61215 0.4911 0.51126 0.0
O41 O 0.61417 0.48212 0.44481 0.0
O42 O 0.57656 0.35304 0.3919 0.0
Zn43 Zn 0.59959 0.43856 0.53783 0.0
N44 N 0.56546 0.40691 0.30771 0.0
C45 C 0.53446 0.43447 0.25394 0.0
C46 C 0.54496 0.42279 0.31502 0.0
C47 C 0.57613 0.40253 0.24118 0.0
N48 N 0.54491 0.42995 0.18771 0.0
C49 C 0.56554 0.41429 0.1786 0.0
O50 O 0.6294 0.42861 0.47282 0.0
C51 C 0.6351 0.41265 0.42311 0.0
O52 O 0.61824 0.3981 0.39458 0.0
H53 H 0.53673 0.42638 0.36787 0.0
H54 H 0.59286 0.39039 0.23815 0.0
C55 C 0.5967 0.42542 0.69333 0.0
C56 C 0.59988 0.40838 0.75267 0.0
C57 C 0.61733 0.37759 0.67123 0.0
C58 C 0.61402 0.39438 0.61342 0.0
N59 N 0.60382 0.41789 0.62523 0.0
N60 N 0.6102 0.38494 0.73886 0.0
H61 H 0.58888 0.44437 0.70028 0.0
C62 C 0.58283 0.33956 0.44672 0.0
O63 O 0.58821 0.35115 0.50822 0.0
O64 O 0.60473 0.4762 0.56188 0.0
H65 H 0.61945 0.38866 0.55917 0.0
H66 H 0.51811 0.44708 0.25904 0.0
H67 H 0.6254 0.35879 0.66247 0.0
Zn68 Zn 0.36347 0.82559 0.59472 0.0
C69 C 0.32721 0.79075 0.759 0.0
N70 N 0.3463 0.77367 0.75124 0.0
C71 C 0.36237 0.78524 0.70477 0.0
N72 N 0.35342 0.80814 0.68334 0.0
N73 N 0.33202 0.81234 0.72037 0.0
C74 C 0.27713 0.87207 0.80085 0.0
O75 O 0.29357 0.89068 0.81323 0.0
O76 O 0.40181 0.82141 0.57873 0.0
Zn77 Zn 0.32383 0.84639 0.75838 0.0
N78 N 0.34244 0.81277 0.5131 0.0
C79 C 0.30617 0.78747 0.47981 0.0
C80 C 0.32238 0.79753 0.53264 0.0
C81 C 0.34669 0.81866 0.44155 0.0
N82 N 0.31042 0.79315 0.409 0.0
C83 C 0.33013 0.80854 0.38735 0.0
O84 O 0.33529 0.87649 0.69392 0.0
C85 C 0.34909 0.88124 0.63816 0.0
O86 O 0.35945 0.86343 0.60162 0.0
H87 H 0.31895 0.79302 0.58903 0.0
H88 H 0.36285 0.8307 0.42736 0.0
C89 C 0.33717 0.84698 0.9177 0.0
C90 C 0.35481 0.85254 0.97429 0.0
C91 C 0.38577 0.86488 0.8861 0.0
C92 C 0.36842 0.85945 0.83076 0.0
N93 N 0.34441 0.85094 0.847 0.0
N94 N 0.37855 0.86145 0.95612 0.0
H95 H 0.31798 0.84019 0.92968 0.0
C96 C 0.41611 0.82572 0.63367 0.0
O97 O 0.40519 0.82991 0.69689 0.0
O98 O 0.28558 0.8507 0.77791 0.0
H99 H 0.37402 0.86222 0.77477 0.0
H100 H 0.29027 0.77521 0.49492 0.0
H101 H 0.40484 0.87186 0.87356 0.0
Zn102 Zn 0.91267 0.57348 0.03098 0.0
C103 C 0.97337 0.6108 0.96351 0.0
N104 N 0.98618 0.59337 1.00285 0.0
C105 C 0.96857 0.57487 0.0137 0.0
N106 N 0.94562 0.58133 0.98421 0.0
N107 N 0.94913 0.60325 0.9494 0.0
C108 C 0.93088 0.66664 0.9046 0.0
O109 O 0.9299 0.65607 0.96932 0.0
O110 O 0.90801 0.53616 0.06281 0.0
Zn111 Zn 0.92919 0.61377 0.86537 0.0
N112 N 0.90953 0.59715 0.11304 0.0
C113 C 0.8982 0.64007 0.1415 0.0
C114 C 0.90105 0.62049 0.09124 0.0
C115 C 0.91538 0.59255 0.1844 0.0
N116 N 0.904 0.63564 0.21213 0.0
C117 C 0.91253 0.61249 0.23604 0.0
O118 O 0.89121 0.60804 0.87776 0.0
C119 C 0.8749 0.59545 0.91493 0.0
O120 O 0.88155 0.58155 0.96859 0.0
H121 H 0.8967 0.62393 0.03468 0.0
H122 H 0.92259 0.57395 0.20001 0.0
C123 C 0.93245 0.59731 0.71124 0.0
C124 C 0.93943 0.57974 0.6562 0.0
C125 C 0.96183 0.55508 0.74404 0.0
C126 C 0.95474 0.57223 0.79806 0.0
N127 N 0.94013 0.593 0.78135 0.0
N128 N 0.95391 0.55911 0.67487 0.0
H129 H 0.92044 0.61364 0.69903 0.0
C130 C 0.90015 0.52032 0.01497 0.0
O131 O 0.89714 0.52817 0.94764 0.0
O132 O 0.93262 0.65215 0.8491 0.0
H133 H 0.96074 0.56869 0.85316 0.0
H134 H 0.89154 0.65874 0.12452 0.0
H135 H 0.97333 0.53848 0.75711 0.0
Zn136 Zn 0.82209 0.85151 0.75749 0.0
C137 C 0.85756 0.78874 0.78639 0.0
N138 N 0.83808 0.77914 0.74739 0.0
C139 C 0.81933 0.79655 0.75584 0.0
N140 N 0.82756 0.81677 0.79565 0.0
N141 N 0.85099 0.81099 0.81847 0.0
C142 C 0.91772 0.82603 0.84594 0.0
O143 O 0.90554 0.82953 0.78417 0.0
O144 O 0.78479 0.85868 0.72776 0.0
Zn145 Zn 0.86618 0.82676 0.90311 0.0
N146 N 0.8437 0.85425 0.67147 0.0
C147 C 0.88485 0.86547 0.62536 0.0
C148 C 0.86774 0.86352 0.68308 0.0
C149 C 0.83595 0.84678 0.60382 0.0
N150 N 0.87727 0.85798 0.55812 0.0
C151 C 0.85328 0.84857 0.54467 0.0
O152 O 0.86053 0.86481 0.90818 0.0
C153 C 0.84883 0.88354 0.87911 0.0
O154 O 0.83397 0.88063 0.82452 0.0
H155 H 0.87363 0.8692 0.73707 0.0
H156 H 0.81657 0.83976 0.59703 0.0
C157 C 0.85618 0.82249 0.05716 0.0
C158 C 0.84463 0.8121 0.12029 0.0
C159 C 0.82308 0.7816 0.04578 0.0
C160 C 0.83452 0.79198 0.98405 0.0
N161 N 0.85102 0.81204 0.9908 0.0
N162 N 0.82838 0.79183 0.1119 0.0
H163 H 0.8687 0.83896 0.05959 0.0
C164 C 0.76808 0.86581 0.77405 0.0
O165 O 0.77462 0.8674 0.84291 0.0
O166 O 0.90467 0.82259 0.9036 0.0
H167 H 0.83026 0.78408 0.93111 0.0
H168 H 0.90408 0.87277 0.63389 0.0
H169 H 0.81 0.76557 0.04123 0.0
Zn170 Zn 0.41035 0.57133 0.53068 0.0
C171 C 0.4746 0.60387 0.56961 0.0
N172 N 0.48417 0.58531 0.52746 0.0
C173 C 0.46561 0.5673 0.52869 0.0
N174 N 0.44511 0.57521 0.56801 0.0
N175 N 0.45145 0.59756 0.59638 0.0
C176 C 0.44029 0.66365 0.64116 0.0
O177 O 0.43394 0.65406 0.5776 0.0
O178 O 0.4017 0.53483 0.50395 0.0
Zn179 Zn 0.43565 0.61124 0.68208 0.0
N180 N 0.40859 0.59267 0.44454 0.0
C181 C 0.39812 0.63341 0.39553 0.0
C182 C 0.39999 0.61692 0.45461 0.0
C183 C 0.41575 0.58422 0.37753 0.0
N184 N 0.40489 0.62497 0.32857 0.0
C185 C 0.41366 0.60076 0.31699 0.0
O186 O 0.39728 0.6102 0.68025 0.0
C187 C 0.37828 0.59972 0.64865 0.0
O188 O 0.38139 0.5843 0.59576 0.0
H189 H 0.39468 0.62341 0.5083 0.0
H190 H 0.42315 0.56501 0.3725 0.0
C191 C 0.44058 0.59951 0.83419 0.0
C192 C 0.44814 0.58478 0.89474 0.0
C193 C 0.46822 0.55525 0.81492 0.0
C194 C 0.46075 0.56993 0.75536 0.0
N195 N 0.44705 0.59173 0.76603 0.0
N196 N 0.46172 0.56293 0.88289 0.0
H197 H 0.4292 0.61666 0.84054 0.0
C198 C 0.38167 0.53095 0.46573 0.0
O199 O 0.36816 0.55069 0.44358 0.0
O200 O 0.44389 0.64849 0.69424 0.0
H201 H 0.46575 0.56387 0.70109 0.0
H202 H 0.39131 0.65279 0.4027 0.0
H203 H 0.47905 0.53782 0.80723 0.0
Zn204 Zn 0.68833 0.16242 0.21437 0.0
C205 C 0.65338 0.22374 0.2801 0.0
N206 N 0.67166 0.23601 0.24212 0.0
C207 C 0.6897 0.21789 0.2325 0.0
N208 N 0.68207 0.19528 0.26132 0.0
N209 N 0.65999 0.19942 0.29489 0.0
C210 C 0.59615 0.18114 0.34259 0.0
O211 O 0.60625 0.17919 0.27746 0.0
O212 O 0.72514 0.15701 0.18056 0.0
Zn213 Zn 0.64929 0.18058 0.38101 0.0
N214 N 0.66445 0.15934 0.13224 0.0
C215 C 0.62218 0.14595 0.10021 0.0
C216 C 0.64091 0.15061 0.15249 0.0
C217 C 0.66996 0.16393 0.06067 0.0
N218 N 0.62772 0.14999 0.02915 0.0
C219 C 0.65106 0.15889 1.00713 0.0
O220 O 0.65494 0.14238 0.37265 0.0
C221 C 0.66686 0.12582 0.33479 0.0
O222 O 0.67999 0.13206 0.27906 0.0
H223 H 0.63689 0.14689 0.20913 0.0
H224 H 0.68895 0.17054 0.0456 0.0
C225 C 0.66333 0.18879 0.53627 0.0
C226 C 0.67952 0.19858 0.59188 0.0
C227 C 0.70663 0.21654 0.50115 0.0
C228 C 0.69083 0.20676 0.44703 0.0
N229 N 0.66937 0.19324 0.46489 0.0
N230 N 0.70064 0.21224 0.57168 0.0
H231 H 0.64613 0.17807 0.54916 0.0
C232 C 0.72938 0.13707 0.14262 0.0
O233 O 0.70988 0.12237 0.12455 0.0
O234 O 0.61105 0.18418 0.39686 0.0
H235 H 0.69578 0.21006 0.391 0.0
H236 H 0.60343 0.13889 0.11587 0.0
H237 H 0.72365 0.22741 0.48726 0.0
Zn238 Zn 0.08075 0.40093 0.16964 0.0
C239 C 0.04622 0.44431 0.02389 0.0
N240 N 0.02885 0.42519 0.0214 0.0
C241 C 0.0403 0.40642 0.05904 0.0
N242 N 0.06333 0.41376 0.08486 0.0
N243 N 0.06771 0.43706 0.05975 0.0
C244 C 0.12812 0.4842 0.95144 0.0
O245 O 0.14259 0.46452 0.93441 0.0
O246 O 0.07378 0.36367 0.18641 0.0
Zn247 Zn 0.10136 0.4435 0.01888 0.0
N248 N 0.06861 0.42 0.25357 0.0
C249 C 0.04514 0.45496 0.30283 0.0
C250 C 0.05332 0.44076 0.24321 0.0
C251 C 0.07581 0.41269 0.32166 0.0
N252 N 0.0524 0.44777 0.37065 0.0
C253 C 0.06745 0.42689 0.3823 0.0
O254 O 0.13124 0.43311 0.08308 0.0
C255 C 0.13673 0.41748 0.13394 0.0
O256 O 0.11948 0.40434 0.16591 0.0
H257 H 0.04755 0.44641 0.18922 0.0
H258 H 0.08827 0.3963 0.32795 0.0
C259 C 0.09719 0.42962 0.86633 0.0
C260 C 0.09992 0.41281 0.80668 0.0
C261 C 0.1148 0.3806 0.88795 0.0
C262 C 0.11236 0.39739 0.94612 0.0
N263 N 0.10379 0.42155 0.93424 0.0
N264 N 0.10866 0.38869 0.82008 0.0
H265 H 0.08977 0.44877 0.86 0.0
C266 C 0.07726 0.34691 0.13744 0.0
O267 O 0.08298 0.35444 0.07121 0.0
O268 O 0.10779 0.48034 0.98843 0.0
H269 H 0.11721 0.39123 1.00053 0.0
H270 H 0.03309 0.4716 0.2953 0.0
H271 H 0.1216 0.36129 0.89653 0.0
Zn272 Zn 0.65099 0.68316 0.59208 0.0
C273 C 0.68832 0.71858 0.74943 0.0
N274 N 0.66949 0.73608 0.74363 0.0
C275 C 0.65216 0.72427 0.70118 0.0
N276 N 0.66014 0.70101 0.68025 0.0
N277 N 0.682 0.69673 0.71439 0.0
C278 C 0.73149 0.63878 0.82051 0.0
O279 O 0.7147 0.62052 0.83338 0.0
O280 O 0.61394 0.68894 0.56754 0.0
Zn281 Zn 0.68686 0.66407 0.76231 0.0
N282 N 0.67333 0.69442 0.51229 0.0
C283 C 0.71166 0.71611 0.47706 0.0
C284 C 0.69415 0.70884 0.53041 0.0
C285 C 0.6691 0.68734 0.44176 0.0
N286 N 0.70768 0.7088 0.40724 0.0
C287 C 0.68683 0.69468 0.38736 0.0
O288 O 0.67641 0.63327 0.70078 0.0
C289 C 0.66364 0.62771 0.64366 0.0
O290 O 0.65402 0.64495 0.60301 0.0
H291 H 0.69739 0.71449 0.58602 0.0
H292 H 0.65256 0.67563 0.42869 0.0
C293 C 0.6692 0.66909 0.91631 0.0
C294 C 0.64959 0.66742 0.96966 0.0
C295 C 0.62031 0.65382 0.8779 0.0
C296 C 0.63958 0.6555 0.82604 0.0
N297 N 0.66359 0.66304 0.84569 0.0
N298 N 0.62575 0.65978 0.94786 0.0
H299 H 0.68838 0.67545 0.92997 0.0
C300 C 0.59781 0.68518 0.61827 0.0
O301 O 0.60642 0.6808 0.68425 0.0
O302 O 0.72379 0.65964 0.79251 0.0
H303 H 0.63545 0.65085 0.77003 0.0
H304 H 0.72839 0.7274 0.49109 0.0
H305 H 0.60112 0.64787 0.86276 0.0
Zn306 Zn 0.07763 0.89519 0.85943 0.0
C307 C 0.04159 0.9417 0.99349 0.0
N308 N 0.02422 0.92265 0.99839 0.0
C309 C 0.03611 0.90298 0.96594 0.0
N310 N 0.05942 0.90975 0.94064 0.0
N311 N 0.06347 0.9336 0.9613 0.0
C312 C 0.12223 0.98622 0.05291 0.0
O313 O 0.14047 0.96924 0.06298 0.0
O314 O 0.07357 0.85698 0.85866 0.0
Zn315 Zn 0.0969 0.94159 1.00158 0.0
N316 N 0.06388 0.9106 0.77045 0.0
C317 C 0.03395 0.93922 0.71622 0.0
C318 C 0.04407 0.92734 0.77744 0.0
C319 C 0.07433 0.90561 0.70396 0.0
N320 N 0.04417 0.93412 0.65012 0.0
C321 C 0.06418 0.91766 0.64125 0.0
O322 O 0.12707 0.93248 0.93702 0.0
C323 C 0.13299 0.91599 0.88892 0.0
O324 O 0.11621 0.90121 0.86086 0.0
H325 H 0.03602 0.93149 0.83013 0.0
H326 H 0.09056 0.89281 0.70104 0.0
C327 C 0.09432 0.92793 0.15605 0.0
C328 C 0.09738 0.91076 0.21507 0.0
C329 C 0.11393 0.87976 0.1328 0.0
C330 C 0.11074 0.89669 0.07527 0.0
N331 N 0.10099 0.92035 0.0877 0.0
N332 N 0.10719 0.88714 0.20074 0.0
H333 H 0.08697 0.94705 0.16336 0.0
C334 C 0.07655 0.84448 0.91743 0.0
O335 O 0.07911 0.8571 0.97871 0.0
O336 O 0.10064 0.97881 0.02818 0.0
H337 H 0.1159 0.89098 0.02079 0.0
H338 H 0.01812 0.95247 0.72112 0.0
H339 H 0.12161 0.86082 0.12358 0.0
Zn340 Zn 0.87116 0.32727 0.12007 0.0
C341 C 0.82322 0.29201 0.25215 0.0
N342 N 0.84219 0.27473 0.25934 0.0
C343 C 0.8624 0.28632 0.2282 0.0
N344 N 0.85602 0.30948 0.20153 0.0
N345 N 0.83189 0.31373 0.2203 0.0
C346 C 0.77807 0.37188 0.3125 0.0
O347 O 0.7945 0.3906 0.32372 0.0
O348 O 0.90983 0.32408 0.12011 0.0
Zn349 Zn 0.82406 0.34714 0.26154 0.0
N350 N 0.85597 0.31331 0.03097 0.0
C351 C 0.82828 0.28248 0.9765 0.0
C352 C 0.84002 0.29279 0.03773 0.0
C353 C 0.8603 0.32424 0.96472 0.0
N354 N 0.83275 0.29318 0.91061 0.0
C355 C 0.84842 0.31387 0.90199 0.0
O356 O 0.83463 0.37765 0.19907 0.0
C357 C 0.85113 0.38286 0.14999 0.0
O358 O 0.86491 0.36551 0.12114 0.0
H359 H 0.83639 0.28434 0.09026 0.0
H360 H 0.87245 0.34099 0.96199 0.0
C361 C 0.83725 0.3442 0.41701 0.0
C362 C 0.85453 0.34704 0.47604 0.0
C363 C 0.88613 0.36272 0.39368 0.0
C364 C 0.8691 0.35975 0.33615 0.0
N365 N 0.84508 0.35055 0.34856 0.0
N366 N 0.8785 0.3563 0.46169 0.0
H367 H 0.81786 0.33731 0.42455 0.0
C368 C 0.92236 0.32739 0.17883 0.0
O369 O 0.90965 0.32944 0.24016 0.0
O370 O 0.78632 0.3508 0.28714 0.0
H371 H 0.87501 0.36468 0.28164 0.0
H372 H 0.81565 0.2661 0.98123 0.0
H373 H 0.90534 0.36997 0.38443 0.0
Zn374 Zn 0.41819 0.06815 0.53497 0.0
C375 C 0.4795 0.1064 0.49658 0.0
N376 N 0.49069 0.08827 0.53723 0.0
C377 C 0.47347 0.06903 0.5363 0.0
N378 N 0.45231 0.07556 0.49794 0.0
N379 N 0.45666 0.09854 0.47036 0.0
C380 C 0.44215 0.16401 0.41492 0.0
O381 O 0.43654 0.15599 0.48077 0.0
O382 O 0.41154 0.03094 0.55993 0.0
Zn383 Zn 0.43905 0.11059 0.38471 0.0
N384 N 0.41458 0.08883 0.62157 0.0
C385 C 0.40179 0.12893 0.67052 0.0
C386 C 0.40489 0.11269 0.61133 0.0
C387 C 0.42182 0.08063 0.68884 0.0
N388 N 0.40881 0.12078 0.73764 0.0
C389 C 0.41892 0.0971 0.749 0.0
O390 O 0.4003 0.10812 0.38895 0.0
C391 C 0.38305 0.09491 0.42051 0.0
O392 O 0.38857 0.079 0.47056 0.0
H393 H 0.39967 0.11907 0.55742 0.0
H394 H 0.42945 0.06152 0.69506 0.0
C395 C 0.44119 0.09636 0.23468 0.0
C396 C 0.44832 0.08126 0.17437 0.0
C397 C 0.47405 0.05575 0.25303 0.0
C398 C 0.46665 0.07058 0.3122 0.0
N399 N 0.45034 0.09053 0.30198 0.0
N400 N 0.46472 0.06137 0.18599 0.0
H401 H 0.42872 0.11273 0.22922 0.0
C402 C 0.4128 0.01361 0.51164 0.0
O403 O 0.42098 0.01969 0.44629 0.0
O404 O 0.44611 0.14757 0.36542 0.0
H405 H 0.47387 0.06616 0.36576 0.0
H406 H 0.39398 0.14792 0.66322 0.0
H407 H 0.48703 0.03982 0.26029 0.0
Zn408 Zn 0.32377 0.34811 0.3024 0.0
C409 C 0.36088 0.28489 0.34713 0.0
N410 N 0.34245 0.2739 0.30676 0.0
C411 C 0.32441 0.29228 0.30263 0.0
N412 N 0.33193 0.31382 0.33749 0.0
N413 N 0.35433 0.30865 0.36794 0.0
C414 C 0.41924 0.32441 0.39896 0.0
O415 O 0.40688 0.32791 0.33745 0.0
O416 O 0.28606 0.35224 0.27638 0.0
Zn417 Zn 0.36786 0.32629 0.45088 0.0
N418 N 0.34459 0.35312 0.21604 0.0
C419 C 0.38428 0.36822 0.16848 0.0
C420 C 0.36797 0.36406 0.2271 0.0
C421 C 0.33688 0.34582 0.14833 0.0
N422 N 0.3766 0.3612 0.10095 0.0
C423 C 0.35331 0.35008 0.0883 0.0
O424 O 0.36312 0.36403 0.44715 0.0
C425 C 0.35024 0.38204 0.41874 0.0
O426 O 0.33391 0.37787 0.36842 0.0
H427 H 0.37398 0.36938 0.28126 0.0
H428 H 0.31845 0.33651 0.14237 0.0
C429 C 0.3569 0.3219 0.60504 0.0
C430 C 0.34239 0.31397 0.66584 0.0
C431 C 0.31423 0.29137 0.58689 0.0
C432 C 0.32855 0.29933 0.52716 0.0
N433 N 0.34965 0.31435 0.53717 0.0
N434 N 0.32139 0.29891 0.65445 0.0
H435 H 0.37332 0.33445 0.61089 0.0
C436 C 0.27853 0.37289 0.24658 0.0
O437 O 0.29559 0.3907 0.23163 0.0
O438 O 0.40629 0.32148 0.4571 0.0
H439 H 0.32275 0.29362 0.47321 0.0
H440 H 0.40295 0.37691 0.1765 0.0
H441 H 0.29742 0.27943 0.57963 0.0
Zn442 Zn 0.91239 0.07922 0.96989 0.0
C443 C 0.9757 0.11087 0.02292 0.0
N444 N 0.9859 0.09232 0.98188 0.0
C445 C 0.96733 0.07434 0.98067 0.0
N446 N 0.94615 0.08236 0.01665 0.0
N447 N 0.95216 0.10452 0.04716 0.0
C448 C 0.93951 0.16995 0.09488 0.0
O449 O 0.93668 0.16012 0.02968 0.0
O450 O 0.9045 0.04317 0.93225 0.0
Zn451 Zn 0.93556 0.11696 0.13463 0.0
N452 N 0.91193 0.10343 0.88794 0.0
C453 C 0.90353 0.14691 0.85823 0.0
C454 C 0.90483 0.12729 0.90896 0.0
C455 C 0.91789 0.09835 0.81682 0.0
N456 N 0.90937 0.14198 0.78792 0.0
C457 C 0.91657 0.11833 0.76448 0.0
O458 O 0.89718 0.11383 0.12765 0.0
C459 C 0.87864 0.10407 0.09189 0.0
O460 O 0.88246 0.09043 0.03531 0.0
H461 H 0.90025 0.13105 0.96519 0.0
H462 H 0.92386 0.07926 0.80199 0.0
C463 C 0.93909 0.1011 0.28913 0.0
C464 C 0.94684 0.08427 0.34541 0.0
C465 C 0.9709 0.06045 0.25924 0.0
C466 C 0.9631 0.07691 0.20407 0.0
N467 N 0.94723 0.09684 0.21936 0.0
N468 N 0.96252 0.06439 0.32805 0.0
H469 H 0.92618 0.11683 0.30017 0.0
C470 C 0.89364 0.02652 0.97261 0.0
O471 O 0.88889 0.03228 0.0408 0.0
O472 O 0.94169 0.15487 0.14892 0.0
H473 H 0.96949 0.07354 0.14914 0.0
H474 H 0.89795 0.16598 0.87455 0.0
H475 H 0.98338 0.04446 0.24737 0.0
Zn476 Zn 0.18927 0.66397 0.76549 0.0
C477 C 0.15485 0.7269 0.79786 0.0
N478 N 0.17366 0.73689 0.75696 0.0
C479 C 0.19221 0.71904 0.76085 0.0
N480 N 0.18468 0.69875 0.80154 0.0
N481 N 0.16171 0.70447 0.82749 0.0
C482 C 0.09396 0.69044 0.87699 0.0
O483 O 0.10272 0.6824 0.81406 0.0
O484 O 0.22627 0.65517 0.74107 0.0
Zn485 Zn 0.14762 0.6894 0.9142 0.0
N486 N 0.16829 0.66157 0.67807 0.0
C487 C 0.12777 0.64978 0.6287 0.0
C488 C 0.14419 0.65218 0.68788 0.0
C489 C 0.17662 0.66905 0.61103 0.0
N490 N 0.13607 0.65692 0.56187 0.0
C491 C 0.16008 0.66655 0.55028 0.0
O492 O 0.14957 0.65125 0.91518 0.0
C493 C 0.16044 0.63235 0.88477 0.0
O494 O 0.17596 0.63541 0.83184 0.0
H495 H 0.13775 0.64667 0.7415 0.0
H496 H 0.1957 0.67697 0.60622 0.0
C497 C 0.15942 0.69414 0.06633 0.0
C498 C 0.17336 0.70281 0.12739 0.0
C499 C 0.2004 0.72683 0.04862 0.0
C500 C 0.18644 0.7183 0.98865 0.0
N501 N 0.16629 0.70208 0.99852 0.0
N502 N 0.19361 0.71889 0.11623 0.0
H503 H 0.14359 0.68084 0.07199 0.0
C504 C 0.22979 0.63507 0.70324 0.0
O505 O 0.20966 0.62184 0.68185 0.0
O506 O 0.10995 0.69667 0.9262 0.0
H507 H 0.19175 0.7245 0.93466 0.0
H508 H 0.10852 0.64231 0.63571 0.0
H509 H 0.21655 0.73966 0.04154 0.0
Zn510 Zn 0.57664 0.89072 0.62643 0.0
C511 C 0.5451 0.93668 0.4791 0.0
N512 N 0.52756 0.91793 0.47214 0.0
C513 C 0.53761 0.89867 0.51096 0.0
N514 N 0.56002 0.90553 0.54239 0.0
N515 N 0.5654 0.92889 0.51919 0.0
C516 C 0.62483 0.98255 0.43468 0.0
O517 O 0.64226 0.9659 0.41422 0.0
O518 O 0.57269 0.85256 0.62371 0.0
Zn519 Zn 0.59993 0.93652 0.48495 0.0
N520 N 0.56185 0.90544 0.71483 0.0
C521 C 0.53068 0.93251 0.76951 0.0
C522 C 0.54118 0.92111 0.70805 0.0
C523 C 0.57284 0.90115 0.78109 0.0
N524 N 0.54144 0.92807 0.8355 0.0
C525 C 0.56235 0.91271 0.84403 0.0
O526 O 0.62909 0.92532 0.55192 0.0
C527 C 0.63321 0.90956 0.60355 0.0
O528 O 0.6151 0.89642 0.63138 0.0
H529 H 0.53287 0.92477 0.65523 0.0
H530 H 0.5898 0.88932 0.78355 0.0
C531 C 0.59676 0.92429 0.32835 0.0
C532 C 0.60042 0.90773 0.26816 0.0
C533 C 0.62002 0.8775 0.34759 0.0
C534 C 0.61621 0.89376 0.4062 0.0
N535 N 0.60474 0.91679 0.39585 0.0
N536 N 0.61206 0.88481 0.28063 0.0
H537 H 0.58785 0.94281 0.32254 0.0
C538 C 0.57801 0.84105 0.56469 0.0
O539 O 0.58298 0.85471 0.5064 0.0
O540 O 0.60454 0.97445 0.46574 0.0
H541 H 0.62218 0.88794 0.45995 0.0
H542 H 0.51415 0.94492 0.76485 0.0
H543 H 0.62909 0.85908 0.35521 0.0
H544 H 0.20823 0.18852 0.78823 0.0
H545 H 0.12753 0.1827 0.84057 0.0
H546 H 0.11793 0.1716 0.71469 0.0
H547 H 0.13218 0.16452 0.5896 0.0
H548 H 0.2131 0.16952 0.53789 0.0
H549 H 0.22259 0.1806 0.66334 0.0
C550 C 0.1885 0.18483 0.77224 0.0
C551 C 0.16871 0.18623 0.82436 0.0
C552 C 0.18305 0.17865 0.69956 0.0
C553 C 0.14329 0.18126 0.80245 0.0
C554 C 0.13772 0.17514 0.73012 0.0
C555 C 0.15197 0.16795 0.60539 0.0
C556 C 0.17173 0.16654 0.55304 0.0
C557 C 0.15745 0.17387 0.67823 0.0
C558 C 0.19722 0.17109 0.57546 0.0
C559 C 0.20278 0.17719 0.64781 0.0
H560 H 0.61329 0.38246 0.87511 0.0
H561 H 0.56871 0.4478 0.80514 0.0
H562 H 0.55588 0.45561 0.92997 0.0
H563 H 0.55583 0.44325 0.05854 0.0
H564 H 0.598 0.37607 0.12645 0.0
H565 H 0.61307 0.36999 1.00302 0.0
C566 C 0.60076 0.3985 0.88653 0.0
C567 C 0.59234 0.41453 0.82936 0.0
C568 C 0.59289 0.40266 0.95863 0.0
C569 C 0.57613 0.43521 0.84671 0.0
C570 C 0.56851 0.43965 0.91862 0.0
C571 C 0.56834 0.42721 0.04686 0.0
C572 C 0.57583 0.41043 0.10333 0.0
C573 C 0.5766 0.42337 0.97488 0.0
C574 C 0.59214 0.38984 0.08589 0.0
C575 C 0.60068 0.38613 0.01458 0.0
H576 H 0.35152 0.85059 0.31791 0.0
H577 H 0.31455 0.77801 0.27608 0.0
H578 H 0.31654 0.78589 0.14584 0.0
H579 H 0.32985 0.81278 0.04208 0.0
H580 H 0.36805 0.88457 0.0837 0.0
H581 H 0.3644 0.87762 0.21453 0.0
C582 C 0.34422 0.83629 0.28056 0.0
C583 C 0.33312 0.81359 0.30766 0.0
C584 C 0.34538 0.8409 0.20495 0.0
C585 C 0.32321 0.7957 0.25747 0.0
C586 C 0.3243 0.80017 0.18257 0.0
C587 C 0.3369 0.8271 0.07983 0.0
C588 C 0.34899 0.84927 0.05298 0.0
C589 C 0.33531 0.8227 0.15548 0.0
C590 C 0.35858 0.86735 0.10286 0.0
C591 C 0.35661 0.86335 0.17782 0.0
H592 H 0.93754 0.62312 0.57238 0.0
H593 H 0.92441 0.54168 0.56561 0.0
H594 H 0.91537 0.54401 0.43551 0.0
H595 H 0.91181 0.56905 0.32259 0.0
H596 H 0.92653 0.6504 0.32906 0.0
H597 H 0.93416 0.64813 0.45927 0.0
C598 C 0.93228 0.60599 0.54262 0.0
C599 C 0.93142 0.58232 0.57892 0.0
C600 C 0.92763 0.60734 0.46715 0.0
C601 C 0.92516 0.56018 0.53904 0.0
C602 C 0.92006 0.56146 0.46449 0.0
C603 C 0.91706 0.58624 0.35199 0.0
C604 C 0.91869 0.60982 0.3151 0.0
C605 C 0.92152 0.58489 0.42761 0.0
C606 C 0.92498 0.63192 0.35543 0.0
C607 C 0.92938 0.63071 0.43028 0.0
H608 H 0.81605 0.80336 0.24193 0.0
H609 H 0.88428 0.84352 0.17019 0.0
H610 H 0.89139 0.859 0.29275 0.0
H611 H 0.87937 0.86036 0.42103 0.0
H612 H 0.81291 0.81784 0.49492 0.0
H613 H 0.80426 0.80437 0.37099 0.0
C614 C 0.83254 0.81551 0.25262 0.0
C615 C 0.84927 0.82237 0.19527 0.0
C616 C 0.83696 0.82404 0.32413 0.0
C617 C 0.87049 0.83819 0.21143 0.0
C618 C 0.8748 0.84696 0.28225 0.0
C619 C 0.86291 0.84814 0.41062 0.0
C620 C 0.84678 0.84055 0.46856 0.0
C621 C 0.85825 0.83991 0.33904 0.0
C622 C 0.82556 0.82469 0.45261 0.0
C623 C 0.82065 0.81669 0.38125 0.0
H624 H 0.43945 0.55297 1.00864 0.0
H625 H 0.44271 0.63313 0.95215 0.0
H626 H 0.43266 0.64463 0.0773 0.0
H627 H 0.4234 0.63212 0.2026 0.0
H628 H 0.4188 0.55183 0.25861 0.0
H629 H 0.42953 0.54043 0.13437 0.0
C630 C 0.43799 0.57298 0.02367 0.0
C631 C 0.44154 0.59209 0.97054 0.0
C632 C 0.43226 0.57951 0.09597 0.0
C633 C 0.43951 0.61793 0.99113 0.0
C634 C 0.43398 0.62456 0.06302 0.0
C635 C 0.42467 0.61206 0.18807 0.0
C636 C 0.42063 0.59302 0.24134 0.0
C637 C 0.43031 0.60551 0.11583 0.0
C638 C 0.42242 0.56715 0.22043 0.0
C639 C 0.42832 0.5605 0.14871 0.0
H640 H 0.67761 0.1971 0.9369 0.0
H641 H 0.63354 0.12847 0.89836 0.0
H642 H 0.63743 0.13461 0.76725 0.0
H643 H 0.65337 0.15946 0.66269 0.0
H644 H 0.69617 0.22902 0.70198 0.0
H645 H 0.69276 0.22241 0.83238 0.0
C646 C 0.66918 0.18331 0.89982 0.0
C647 C 0.65554 0.16221 0.92767 0.0
C648 C 0.67104 0.18721 0.82406 0.0
C649 C 0.6442 0.14488 0.87854 0.0
C650 C 0.64636 0.14839 0.80338 0.0
C651 C 0.6616 0.17344 0.69946 0.0
C652 C 0.67494 0.19479 0.67153 0.0
C653 C 0.65958 0.1696 0.7753 0.0
C654 C 0.68587 0.2123 0.72114 0.0
C655 C 0.68397 0.20857 0.79617 0.0
H656 H 0.07465 0.45915 0.49576 0.0
H657 H 0.07543 0.37892 0.43998 0.0
H658 H 0.08539 0.36796 0.56578 0.0
H659 H 0.09296 0.38096 0.69164 0.0
H660 H 0.0936 0.46146 0.74659 0.0
H661 H 0.08344 0.47223 0.6216 0.0
C662 C 0.07701 0.43924 0.51107 0.0
C663 C 0.07453 0.41995 0.45808 0.0
C664 C 0.08267 0.43303 0.58368 0.0
C665 C 0.07776 0.39426 0.47896 0.0
C666 C 0.08323 0.38794 0.55119 0.0
C667 C 0.09096 0.40094 0.67676 0.0
C668 C 0.09364 0.42018 0.7301 0.0
C669 C 0.08565 0.40717 0.604 0.0
C670 C 0.091 0.44593 0.70854 0.0
C671 C 0.08542 0.45224 0.63633 0.0
H672 H 0.69447 0.66797 0.05211 0.0
H673 H 0.61262 0.68084 0.06648 0.0
H674 H 0.6164 0.68877 0.19596 0.0
H675 H 0.64267 0.69262 0.30633 0.0
H676 H 0.7246 0.6817 0.29245 0.0
H677 H 0.72097 0.6727 0.16247 0.0
C678 C 0.67747 0.67287 0.08296 0.0
C679 C 0.65329 0.6738 0.04836 0.0
C680 C 0.6797 0.67764 0.15832 0.0
C681 C 0.63154 0.67976 0.09082 0.0
C682 C 0.63361 0.68435 0.16534 0.0
C683 C 0.65967 0.6879 0.27511 0.0
C684 C 0.68382 0.68754 0.30945 0.0
C685 C 0.65754 0.68324 0.19988 0.0
C686 C 0.70574 0.68205 0.2675 0.0
C687 C 0.7037 0.67693 0.19302 0.0
H688 H 0.05548 0.94698 0.52165 0.0
H689 H 0.09521 0.87827 0.58893 0.0
H690 H 0.10978 0.87165 0.4651 0.0
H691 H 0.11012 0.88415 0.33704 0.0
H692 H 0.06776 0.95118 0.26853 0.0
H693 H 0.05563 0.95936 0.39349 0.0
C694 C 0.06734 0.93048 0.50978 0.0
C695 C 0.07428 0.9134 0.56604 0.0
C696 C 0.07527 0.92635 0.43774 0.0
C697 C 0.08979 0.89223 0.5484 0.0
C698 C 0.09803 0.88822 0.47691 0.0
C699 C 0.09823 0.90064 0.34882 0.0
C700 C 0.09024 0.91702 0.29195 0.0
C701 C 0.09072 0.90504 0.42111 0.0
C702 C 0.07485 0.93827 0.30976 0.0
C703 C 0.06762 0.94294 0.38178 0.0
H704 H 0.81891 0.30464 0.78275 0.0
H705 H 0.88682 0.34634 0.8498 0.0
H706 H 0.89294 0.36125 0.72606 0.0
H707 H 0.88047 0.36108 0.59798 0.0
H708 H 0.81444 0.31679 0.52928 0.0
H709 H 0.80635 0.30458 0.65453 0.0
C710 C 0.83511 0.31702 0.77083 0.0
C711 C 0.85215 0.32437 0.82698 0.0
C712 C 0.83897 0.32514 0.6988 0.0
C713 C 0.87291 0.34056 0.80934 0.0
C714 C 0.87663 0.349 0.7379 0.0
C715 C 0.86422 0.34876 0.60984 0.0
C716 C 0.84809 0.34019 0.55295 0.0
C717 C 0.85994 0.3412 0.68215 0.0
C718 C 0.82709 0.3243 0.57072 0.0
C719 C 0.82252 0.31703 0.64282 0.0
H720 H 0.39729 0.11293 0.87462 0.0
H721 H 0.45845 0.06542 0.79235 0.0
H722 H 0.47238 0.05628 0.91643 0.0
H723 H 0.46828 0.06316 0.04779 0.0
H724 H 0.40606 0.10983 0.12924 0.0
H725 H 0.39204 0.11824 1.00601 0.0
C726 C 0.41364 0.10051 0.88373 0.0
C727 C 0.42664 0.08979 0.824 0.0
C728 C 0.42168 0.09546 0.95517 0.0
C729 C 0.44771 0.07359 0.83699 0.0
C730 C 0.45587 0.06854 0.90808 0.0
C731 C 0.45158 0.07514 0.03905 0.0
C732 C 0.43885 0.08628 0.09892 0.0
C733 C 0.44312 0.07956 0.96755 0.0
C734 C 0.41707 0.10157 0.08543 0.0
C735 C 0.40872 0.10622 0.01445 0.0
H736 H 0.38607 0.34384 0.97501 0.0
H737 H 0.30516 0.34052 0.02785 0.0
H738 H 0.29529 0.32898 0.90297 0.0
H739 H 0.30933 0.32026 0.77807 0.0
H740 H 0.39003 0.32453 0.72475 0.0
H741 H 0.40001 0.33592 0.85015 0.0
C742 C 0.3662 0.34068 0.95963 0.0
C743 C 0.34655 0.34272 0.01216 0.0
C744 C 0.36051 0.3345 0.88709 0.0
C745 C 0.32095 0.3385 0.99019 0.0
C746 C 0.31518 0.33212 0.91814 0.0
C747 C 0.32914 0.32366 0.79377 0.0
C748 C 0.34882 0.32176 0.74147 0.0
C749 C 0.3348 0.33006 0.86621 0.0
C750 C 0.37436 0.32636 0.763 0.0
C751 C 0.38013 0.33266 0.83506 0.0
H752 H 0.94209 0.12799 0.42733 0.0
H753 H 0.93379 0.04601 0.43819 0.0
H754 H 0.92392 0.04862 0.56777 0.0
H755 H 0.91827 0.07412 0.67929 0.0
H756 H 0.9287 0.15613 0.66851 0.0
H757 H 0.93687 0.15341 0.53902 0.0
C758 C 0.93772 0.11076 0.4578 0.0
C759 C 0.93844 0.08687 0.42262 0.0
C760 C 0.93262 0.1123 0.53312 0.0
C761 C 0.93332 0.06468 0.46368 0.0
C762 C 0.92772 0.06613 0.53803 0.0
C763 C 0.92264 0.09142 0.64928 0.0
C764 C 0.92286 0.11529 0.68517 0.0
C765 C 0.92758 0.08983 0.57375 0.0
C766 C 0.92817 0.13739 0.64347 0.0
C767 C 0.93291 0.13594 0.5688 0.0
H768 H 0.20586 0.69793 0.24233 0.0
H769 H 0.12577 0.69088 0.18377 0.0
H770 H 0.11521 0.67922 0.30842 0.0
H771 H 0.12832 0.67174 0.43391 0.0
H772 H 0.20864 0.67778 0.49278 0.0
H773 H 0.21913 0.68962 0.36873 0.0
C774 C 0.18607 0.69384 0.25676 0.0
C775 C 0.16675 0.695 0.20303 0.0
C776 C 0.18004 0.68723 0.32897 0.0
C777 C 0.14122 0.68958 0.22301 0.0
C778 C 0.13509 0.68314 0.29469 0.0
C779 C 0.14822 0.67555 0.42023 0.0
C780 C 0.16743 0.67407 0.47439 0.0
C781 C 0.15433 0.68194 0.34808 0.0
C782 C 0.19307 0.67917 0.45413 0.0
C783 C 0.19924 0.68579 0.38242 0.0
H784 H 0.61332 0.88219 0.1448 0.0
H785 H 0.56777 0.94643 0.21754 0.0
H786 H 0.55352 0.95378 0.09354 0.0
H787 H 0.55262 0.94133 0.96485 0.0
H788 H 0.59606 0.87528 0.8948 0.0
H789 H 0.61227 0.86966 0.01723 0.0
C790 C 0.60027 0.8979 0.13425 0.0
C791 C 0.59197 0.91371 0.19197 0.0
C792 C 0.59162 0.9018 0.06269 0.0
C793 C 0.57507 0.93397 0.17557 0.0
C794 C 0.56665 0.93815 0.10413 0.0
C795 C 0.56565 0.92564 0.97586 0.0
C796 C 0.57316 0.90906 0.91896 0.0
C797 C 0.57464 0.92206 0.04738 0.0
C798 C 0.59013 0.88891 0.93559 0.0
C799 C 0.59935 0.88545 1.00637 0.0
H800 H 0.20852 0.26052 0.33409 0.0
H801 H 0.2345 0.19867 0.19772 0.0
H802 H 0.27737 0.21751 0.19306 0.0
H803 H 0.30705 0.25233 0.22401 0.0
H804 H 0.28146 0.31382 0.36224 0.0
H805 H 0.23833 0.29544 0.36521 0.0
C806 C 0.22373 0.25092 0.30455 0.0
C807 C 0.21854 0.2277 0.26859 0.0
C808 C 0.24802 0.26251 0.29929 0.0
C809 C 0.23825 0.21582 0.229 0.0
C810 C 0.26262 0.22697 0.22465 0.0
C811 C 0.29188 0.26199 0.25361 0.0
C812 C 0.29729 0.28492 0.29076 0.0
C813 C 0.26758 0.2505 0.25863 0.0
C814 C 0.27759 0.2969 0.33016 0.0
C815 C 0.25307 0.28597 0.33357 0.0
H816 H 0.50684 0.54872 0.45713 0.0
H817 H 0.44289 0.52506 0.59067 0.0
H818 H 0.46285 0.48323 0.60837 0.0
H819 H 0.5001 0.45472 0.59402 0.0
H820 H 0.56357 0.47837 0.45911 0.0
H821 H 0.54306 0.51962 0.43832 0.0
C822 C 0.49698 0.53425 0.48903 0.0
C823 C 0.47329 0.54007 0.52219 0.0
C824 C 0.50915 0.51074 0.50189 0.0
C825 C 0.46084 0.52105 0.56329 0.0
C826 C 0.47254 0.49728 0.57475 0.0
C827 C 0.50965 0.46903 0.56088 0.0
C828 C 0.53396 0.46376 0.53052 0.0
C829 C 0.49704 0.49224 0.54613 0.0
C830 C 0.54565 0.48234 0.48633 0.0
C831 C 0.53354 0.5057 0.47279 0.0
H832 H 0.21314 0.75842 0.83276 0.0
H833 H 0.23107 0.69953 0.67703 0.0
H834 H 0.27474 0.71683 0.66447 0.0
H835 H 0.30674 0.74981 0.69385 0.0
H836 H 0.28925 0.8087 0.84999 0.0
H837 H 0.24578 0.79087 0.8649 0.0
C838 C 0.22674 0.74931 0.79639 0.0
C839 C 0.21919 0.72752 0.7564 0.0
C840 C 0.25146 0.7597 0.78869 0.0
C841 C 0.23674 0.71587 0.70944 0.0
C842 C 0.26152 0.72598 0.70174 0.0
C843 C 0.29345 0.75867 0.7316 0.0
C844 C 0.30092 0.78079 0.77017 0.0
C845 C 0.26894 0.748 0.74059 0.0
C846 C 0.2836 0.79216 0.81843 0.0
C847 C 0.25895 0.78174 0.82748 0.0
H848 H 1.00251 0.46132 0.96133 0.0
H849 H 0.06891 0.48732 0.08128 0.0
H850 H 0.04919 0.5294 0.09604 0.0
H851 H 0.01226 0.55829 0.07864 0.0
H852 H 0.94687 0.53222 0.95535 0.0
H853 H 0.96606 0.49002 0.94321 0.0
C854 C 0.01288 0.47627 0.98992 0.0
C855 C 0.03736 0.4712 0.01923 0.0
C856 C 1.00098 0.49999 1.00091 0.0
C857 C 0.05039 0.49082 0.05642 0.0
C858 C 0.03886 0.51475 0.06623 0.0
C859 C 1.00196 0.54315 0.05063 0.0
C860 C 0.97746 0.54809 0.02099 0.0
C861 C 0.01395 0.51937 0.03991 0.0
C862 C 0.96479 0.52851 0.98288 0.0
C863 C 0.97622 0.5046 0.97381 0.0
H864 H 0.80122 0.75398 0.69038 0.0
H865 H 0.77742 0.81718 0.82458 0.0
H866 H 0.73499 0.7977 0.83911 0.0
H867 H 0.70532 0.76155 0.81722 0.0
H868 H 0.73144 0.69659 0.69283 0.0
H869 H 0.77313 0.71692 0.67626 0.0
C870 C 0.78669 0.76373 0.72218 0.0
C871 C 0.79225 0.78764 0.75401 0.0
C872 C 0.7632 0.7514 0.73512 0.0
C873 C 0.77327 0.7996 0.79613 0.0
C874 C 0.74925 0.78802 0.80625 0.0
C875 C 0.72034 0.75161 0.78783 0.0
C876 C 0.71523 0.72744 0.75689 0.0
C877 C 0.74417 0.76371 0.77694 0.0
C878 C 0.73488 0.71489 0.71866 0.0
C879 C 0.75861 0.72676 0.70778 0.0
H880 H 0.70847 0.26228 0.17718 0.0
H881 H 0.73204 0.19224 0.28207 0.0
H882 H 0.77472 0.21013 0.30265 0.0
H883 H 0.80431 0.24658 0.29892 0.0
H884 H 0.78175 0.31613 0.18973 0.0
H885 H 0.73911 0.29813 0.16736 0.0
C886 C 0.72312 0.25071 0.20313 0.0
C887 C 0.71705 0.22575 0.22702 0.0
C888 C 0.74739 0.26149 0.21729 0.0
C889 C 0.73625 0.21115 0.26113 0.0
C890 C 0.76054 0.22162 0.27445 0.0
C891 C 0.79002 0.258 0.27087 0.0
C892 C 0.7961 0.28311 0.24829 0.0
C893 C 0.76608 0.24698 0.25447 0.0
C894 C 0.77738 0.29728 0.21075 0.0
C895 C 0.75315 0.28673 0.19634 0.0
H896 H 0.01048 0.05514 0.91953 0.0
H897 H 0.94285 0.03272 0.03936 0.0
H898 H 0.96095 0.99023 0.05864 0.0
H899 H 0.99715 0.96042 0.04829 0.0
H900 H 0.065 0.983 0.9294 0.0
H901 H 0.04642 0.02515 0.90769 0.0
C902 C 0.99946 0.04082 0.94876 0.0
C903 C 0.97504 0.04706 0.97672 0.0
C904 C 0.01059 0.01688 0.96296 0.0
C905 C 0.96121 0.02829 0.01504 0.0
C906 C 0.97187 1.00414 0.02764 0.0
C907 C 0.00807 0.97466 0.01844 0.0
C908 C 0.03278 0.96867 0.99215 0.0
C909 C 0.99678 0.99847 1.00335 0.0
C910 C 0.04642 0.98729 0.95268 0.0
C911 C 0.03553 0.01124 0.93877 0.0
H912 H 0.51133 0.05181 0.45209 0.0
H913 H 0.45834 0.02787 0.6189 0.0
H914 H 0.4766 0.98452 0.61562 0.0
H915 H 0.50798 0.95403 0.56569 0.0
H916 H 0.56047 0.97793 0.39761 0.0
H917 H 0.54259 0.02139 0.40212 0.0
C918 C 0.50383 0.03705 0.48784 0.0
C919 C 0.48342 0.04272 0.53537 0.0
C920 C 0.51461 0.01256 0.48596 0.0
C921 C 0.47373 0.02366 0.58124 0.0
C922 C 0.48432 0.99905 0.57965 0.0
C923 C 0.51554 0.96886 0.53031 0.0
C924 C 0.53579 0.96318 0.48224 0.0
C925 C 0.50479 0.99338 0.53236 0.0
C926 C 0.54538 0.98222 0.43616 0.0
C927 C 0.53495 0.00687 0.43829 0.0
H928 H 0.16517 0.00749 0.11199 0.0
H929 H 0.0907 0.02678 0.02424 0.0
H930 H 0.09961 0.07217 0.04333 0.0
H931 H 0.12829 0.10629 0.0857 0.0
H932 H 0.20222 0.08708 0.17718 0.0
H933 H 0.19381 0.0417 0.15514 0.0
C934 C 0.15086 0.0216 0.09705 0.0
C935 C 0.1273 0.0137 0.06668 0.0
C936 C 0.15607 0.04769 0.1084 0.0
C937 C 0.10897 0.03228 0.04787 0.0
C938 C 0.11408 0.05827 0.05856 0.0
C939 C 0.14273 0.09224 0.10019 0.0
C940 C 0.16596 0.10015 0.13258 0.0
C941 C 0.13757 0.06618 0.08866 0.0
C942 C 0.18422 0.08157 0.15197 0.0
C943 C 0.1794 0.0556 0.13955 0.0
H944 H 0.65732 0.37214 0.35408 0.0
H945 H 0.67466 0.44604 0.44702 0.0
H946 H 0.72019 0.43997 0.42053 0.0
H947 H 0.75525 0.41337 0.37379 0.0
H948 H 0.7383 0.33891 0.28413 0.0
H949 H 0.69253 0.34549 0.30687 0.0
C950 C 0.67101 0.38704 0.3679 0.0
C951 C 0.66249 0.40958 0.40229 0.0
C952 C 0.6973 0.38325 0.35365 0.0
C953 C 0.68062 0.42851 0.42059 0.0
C954 C 0.7067 0.42504 0.40555 0.0
C955 C 0.74158 0.39856 0.35912 0.0
C956 C 0.75029 0.37567 0.32728 0.0
C957 C 0.71528 0.40241 0.37267 0.0
C958 C 0.73221 0.35669 0.30885 0.0
C959 C 0.70599 0.36047 0.3217 0.0
H960 H 0.37868 0.89777 0.52553 0.0
H961 H 0.33688 0.92522 0.71249 0.0
H962 H 0.35354 0.96839 0.69128 0.0
H963 H 0.3811 0.99814 0.62159 0.0
H964 H 0.42245 0.97024 0.43454 0.0
H965 H 0.40514 0.92737 0.45476 0.0
C966 C 0.37295 0.91318 0.56147 0.0
C967 C 0.35646 0.9081 0.62061 0.0
C968 C 0.38284 0.93786 0.54954 0.0
C969 C 0.34938 0.92847 0.66633 0.0
C970 C 0.35907 0.95317 0.65454 0.0
C971 C 0.38645 0.98263 0.58554 0.0
C972 C 0.40318 0.98739 0.52679 0.0
C973 C 0.37608 0.95802 0.59685 0.0
C974 C 0.40964 0.96714 0.48011 0.0
C975 C 0.39969 0.94261 0.49154 0.0
H976 H 0.75389 0.59813 0.88802 0.0
H977 H 0.77156 0.6698 0.78208 0.0
H978 H 0.81738 0.66204 0.79883 0.0
H979 H 0.85247 0.63506 0.8437 0.0
H980 H 0.83501 0.56418 0.95386 0.0
H981 H 0.78909 0.5714 0.93471 0.0
C982 C 0.76775 0.61208 0.86867 0.0
C983 C 0.75924 0.63449 0.83372 0.0
C984 C 0.79413 0.60756 0.87879 0.0
C985 C 0.77751 0.65241 0.80931 0.0
C986 C 0.80376 0.64795 0.81862 0.0
C987 C 0.83865 0.62103 0.86289 0.0
C988 C 0.84719 0.59899 0.89962 0.0
C989 C 0.81229 0.62556 0.85305 0.0
C990 C 0.82896 0.58127 0.92526 0.0
C991 C 0.8027 0.58541 0.91446 0.0
H992 H 0.88044 0.98381 0.04866 0.0
H993 H 0.88836 0.01248 0.82981 0.0
H994 H 0.87311 0.97153 0.78153 0.0
H995 H 0.858 0.92707 0.80153 0.0
H996 H 0.85342 0.89777 0.02027 0.0
H997 H 0.86646 0.93943 0.06854 0.0
C998 C 0.87882 0.98114 0.99036 0.0
C999 C 0.88547 1.00128 0.94301 0.0
C1000 C 0.87038 0.95741 0.96296 0.0
C1001 C 0.88347 0.99732 0.86758 0.0
C1002 C 0.87462 0.97392 0.8399 0.0
C1003 C 0.85949 0.93001 0.85976 0.0
C1004 C 0.85435 0.90953 0.90741 0.0
C1005 C 0.86797 0.95381 0.88705 0.0
C1006 C 0.85705 0.91333 0.98264 0.0
C1007 C 0.86462 0.9371 1.01021 0.0
H1008 H 0.2755 0.65045 0.76193 0.0
H1009 H 0.24286 0.59909 0.60295 0.0
H1010 H 0.28557 0.58304 0.57342 0.0
H1011 H 0.33234 0.58364 0.59198 0.0
H1012 H 0.36485 0.63433 0.75322 0.0
H1013 H 0.3222 0.65024 0.78275 0.0
C1014 C 0.27775 0.6358 0.7207 0.0
C1015 C 0.25598 0.62606 0.68469 0.0
C1016 C 0.3024 0.62634 0.70457 0.0
C1017 C 0.25925 0.60693 0.6317 0.0
C1018 C 0.2837 0.5977 0.61474 0.0
C1019 C 0.33012 0.59802 0.63399 0.0
C1020 C 0.35193 0.60768 0.67016 0.0
C1021 C 0.30543 0.6072 0.65092 0.0
C1022 C 0.34853 0.6264 0.72439 0.0
C1023 C 0.32408 0.63565 0.74127 0.0
H1024 H 0.66463 0.00535 0.36368 0.0
H1025 H 0.59473 0.0224 0.47999 0.0
H1026 H 0.60232 0.06818 0.46288 0.0
H1027 H 0.6285 0.10342 0.41337 0.0
H1028 H 0.69744 0.0861 0.29289 0.0
H1029 H 0.69061 0.04043 0.3138 0.0
C1030 C 0.65104 0.01904 0.38542 0.0
C1031 C 0.62917 0.01037 0.42325 0.0
C1032 C 0.65542 0.04535 0.37496 0.0
C1033 C 0.61173 0.02847 0.45067 0.0
C1034 C 0.61608 0.05469 0.44103 0.0
C1035 C 0.6422 0.08968 0.39236 0.0
C1036 C 0.66357 0.09824 0.35202 0.0
C1037 C 0.63787 0.06336 0.40328 0.0
C1038 C 0.68087 0.08009 0.32422 0.0
C1039 C 0.67695 0.05395 0.33602 0.0
H1040 H 0.15766 0.3774 0.20864 0.0
H1041 H 0.17772 0.44793 0.09999 0.0
H1042 H 0.2231 0.44029 0.12514 0.0
H1043 H 0.2572 0.41347 0.17643 0.0
H1044 H 0.23756 0.3423 0.28208 0.0
H1045 H 0.192 0.35027 0.25922 0.0
C1046 C 0.17193 0.39123 0.19099 0.0
C1047 C 0.16418 0.41331 0.15281 0.0
C1048 C 0.19812 0.38652 0.20463 0.0
C1049 C 0.18305 0.4308 0.12953 0.0
C1050 C 0.20905 0.42643 0.1438 0.0
C1051 C 0.24299 0.39966 0.19453 0.0
C1052 C 0.25087 0.37733 0.2311 0.0
C1053 C 0.21682 0.40431 0.18096 0.0
C1054 C 0.23211 0.35964 0.25378 0.0
C1055 C 0.20601 0.36421 0.24087 0.0
H1056 H 0.63332 0.51029 0.6353 0.0
H1057 H 0.60842 0.53175 0.42012 0.0
H1058 H 0.62283 0.57568 0.44106 0.0
H1059 H 0.64261 0.60795 0.52011 0.0
H1060 H 0.66948 0.58627 0.73355 0.0
H1061 H 0.65467 0.54247 0.71318 0.0
C1062 C 0.63088 0.52468 0.59336 0.0
C1063 C 0.61962 0.51789 0.52651 0.0
C1064 C 0.63988 0.54978 0.60505 0.0
C1065 C 0.61699 0.53656 0.47206 0.0
C1066 C 0.62528 0.56166 0.48394 0.0
C1067 C 0.64541 0.59364 0.5621 0.0
C1068 C 0.65717 0.60052 0.6283 0.0
C1069 C 0.63688 0.56846 0.55005 0.0
C1070 C 0.66068 0.58159 0.68185 0.0
C1071 C 0.65203 0.55652 0.67048 0.0
H1072 H 0.15574 0.87399 0.82858 0.0
H1073 H 0.17248 0.94963 0.91036 0.0
H1074 H 0.21826 0.94273 0.88979 0.0
H1075 H 0.25371 0.91495 0.85187 0.0
H1076 H 0.23745 0.83871 0.77404 0.0
H1077 H 0.19143 0.84609 0.79022 0.0
C1078 C 0.16937 0.88909 0.8411 0.0
C1079 C 0.16057 0.91238 0.8706 0.0
C1080 C 0.19582 0.88481 0.8305 0.0
C1081 C 0.17862 0.93155 0.88751 0.0
C1082 C 0.20486 0.9276 0.87593 0.0
C1083 C 0.24014 0.89991 0.83833 0.0
C1084 C 0.24913 0.87631 0.81165 0.0
C1085 C 0.2137 0.90423 0.84811 0.0
C1086 C 0.23116 0.85707 0.79466 0.0
C1087 C 0.20479 0.86129 0.80378 0.0
H1088 H 0.87387 0.50206 0.13224 0.0
H1089 H 0.9125 0.47836 0.93655 0.0
H1090 H 0.90043 0.43382 0.95983 0.0
H1091 H 0.87842 0.40163 0.03492 0.0
H1092 H 0.83724 0.42554 0.2267 0.0
H1093 H 0.85028 0.46983 0.20522 0.0
C1094 C 0.87983 0.48704 0.09532 0.0
C1095 C 0.89432 0.49335 0.03329 0.0
C1096 C 0.872 0.46154 0.10772 0.0
C1097 C 0.90146 0.47387 0.98485 0.0
C1098 C 0.89448 0.44844 0.998 0.0
C1099 C 0.87213 0.41653 0.07182 0.0
C1100 C 0.85681 0.41012 0.13234 0.0
C1101 C 0.87958 0.44205 0.05895 0.0
C1102 C 0.84882 0.42982 0.17932 0.0
C1103 C 0.85645 0.45519 0.16741 0.0
H1104 H 0.2626 0.0989 0.37957 0.0
H1105 H 0.28143 0.17226 0.28553 0.0
H1106 H 0.32714 0.16424 0.30671 0.0
H1107 H 0.36182 0.13632 0.35243 0.0
H1108 H 0.34235 0.06358 0.44949 0.0
H1109 H 0.2969 0.07139 0.42604 0.0
C1110 C 0.27666 0.11319 0.36367 0.0
C1111 C 0.26852 0.13614 0.33085 0.0
C1112 C 0.30287 0.10849 0.3762 0.0
C1113 C 0.28709 0.15444 0.31098 0.0
C1114 C 0.31327 0.14983 0.32289 0.0
C1115 C 0.34766 0.12207 0.36788 0.0
C1116 C 0.35558 0.0993 0.40236 0.0
C1117 C 0.3214 0.12688 0.3553 0.0
C1118 C 0.33687 0.08124 0.42289 0.0
C1119 C 0.31083 0.08571 0.40958 0.0
H1120 H 0.33287 0.42671 0.35846 0.0
H1121 H 0.3826 0.39737 0.5271 0.0
H1122 H 0.39708 0.44053 0.55511 0.0
H1123 H 0.3968 0.48659 0.52992 0.0
H1124 H 0.34654 0.51637 0.36362 0.0
H1125 H 0.33132 0.47317 0.33647 0.0
C1126 C 0.34664 0.42976 0.4019 0.0
C1127 C 0.3566 0.40869 0.44033 0.0
C1128 C 0.35506 0.45475 0.41781 0.0
C1129 C 0.37456 0.41312 0.49633 0.0
C1130 C 0.38298 0.43784 0.51238 0.0
C1131 C 0.38256 0.48362 0.4876 0.0
C1132 C 0.37293 0.50466 0.44865 0.0
C1133 C 0.37361 0.45877 0.47293 0.0
C1134 C 0.3543 0.5005 0.39447 0.0
C1135 C 0.34554 0.47579 0.37893 0.0
H1136 H 0.77443 0.15157 0.20661 0.0
H1137 H 0.74362 0.10445 0.0348 0.0
H1138 H 0.78673 0.0894 1.00507 0.0
H1139 H 0.83333 0.08948 0.02785 0.0
H1140 H 0.86386 0.13556 0.20278 0.0
H1141 H 0.82089 0.15075 0.2315 0.0
C1142 C 0.7772 0.13816 0.16234 0.0
C1143 C 0.75584 0.12928 0.12275 0.0
C1144 C 0.80204 0.12912 0.14643 0.0
C1145 C 0.75972 0.11162 0.06616 0.0
C1146 C 0.78439 0.10294 0.04917 0.0
C1147 C 0.8306 0.10268 0.07263 0.0
C1148 C 0.85198 0.11127 0.11286 0.0
C1149 C 0.8057 0.11145 0.08915 0.0
C1150 C 0.8479 0.12846 0.17071 0.0
C1151 C 0.82327 0.13732 0.18714 0.0
H1152 H 0.17708 0.58652 0.83045 0.0
H1153 H 0.12612 0.61906 0.99075 0.0
H1154 H 0.11093 0.5765 0.02346 0.0
H1155 H 0.11161 0.52982 1.00626 0.0
H1156 H 0.16331 0.49719 0.84841 0.0
H1157 H 0.17841 0.53983 0.81502 0.0
C1158 C 0.1628 0.58433 0.87292 0.0
C1159 C 0.15286 0.60611 0.90792 0.0
C1160 C 0.15404 0.55969 0.89171 0.0
C1161 C 0.13426 0.60275 0.96276 0.0
C1162 C 0.12542 0.57836 0.98148 0.0
C1163 C 0.12609 0.53207 0.96431 0.0
C1164 C 0.13625 0.51033 0.92983 0.0
C1165 C 0.13504 0.55668 0.94606 0.0
C1166 C 0.15517 0.51358 0.87601 0.0
C1167 C 0.16387 0.53798 0.85685 0.0
H1168 H 0.64947 0.88707 0.72953 0.0
H1169 H 0.67757 0.92008 0.52961 0.0
H1170 H 0.72149 0.90841 0.56265 0.0
H1171 H 0.75214 0.88816 0.64779 0.0
H1172 H 0.72428 0.85774 0.85094 0.0
H1173 H 0.68022 0.86876 0.81701 0.0
C1174 C 0.66521 0.89185 0.69332 0.0
C1175 C 0.66011 0.90444 0.62709 0.0
C1176 C 0.69053 0.88531 0.71301 0.0
C1177 C 0.68085 0.91059 0.58116 0.0
C1178 C 0.70601 0.90376 0.59979 0.0
C1179 C 0.73636 0.88385 0.68432 0.0
C1180 C 0.74143 0.87198 0.75154 0.0
C1181 C 0.7111 0.89095 0.66534 0.0
C1182 C 0.72088 0.86688 0.79893 0.0
C1183 C 0.69567 0.87319 0.77957 0.0
H1184 H 0.11994 0.25063 0.29252 0.0
H1185 H 0.14085 0.23193 0.07274 0.0
H1186 H 0.11361 0.2662 0.02665 0.0
H1187 H 0.0916 0.30689 0.05168 0.0
H1188 H 0.07201 0.3263 0.27298 0.0
H1189 H 0.0903 0.28615 0.3155 0.0
C1190 C 0.1177 0.25353 0.23441 0.0
C1191 C 0.13235 0.2389 0.18596 0.0
C1192 C 0.10257 0.27376 0.20875 0.0
C1193 C 0.12956 0.24274 0.11093 0.0
C1194 C 0.11418 0.2626 0.08467 0.0
C1195 C 0.0907 0.30204 0.10896 0.0
C1196 C 0.08124 0.31996 0.15928 0.0
C1197 C 0.10175 0.27909 0.13341 0.0
C1198 C 0.07971 0.31312 0.23316 0.0
C1199 C 0.09025 0.29017 0.25768 0.0
H1200 H 0.52562 0.37824 0.37816 0.0
H1201 H 0.52262 0.36548 0.60914 0.0
H1202 H 0.48653 0.33604 0.59363 0.0
H1203 H 0.45023 0.32248 0.51807 0.0
H1204 H 0.45116 0.33821 0.28768 0.0
H1205 H 0.49367 0.35754 0.29877 0.0
C1206 C 0.51774 0.36816 0.42447 0.0
C1207 C 0.52658 0.37396 0.4946 0.0
C1208 C 0.49611 0.35232 0.41537 0.0
C1209 C 0.51608 0.36108 0.55459 0.0
C1210 C 0.49526 0.34451 0.54581 0.0
C1211 C 0.45999 0.32954 0.46996 0.0
C1212 C 0.4472 0.32959 0.40263 0.0
C1213 C 0.48414 0.3413 0.477 0.0
C1214 C 0.46034 0.33837 0.34056 0.0
C1215 C 0.48467 0.34952 0.34681 0.0
H1216 H 0.42197 0.69986 0.54833 0.0
H1217 H 0.45049 0.68943 0.76689 0.0
H1218 H 0.43292 0.73079 0.80199 0.0
H1219 H 0.40129 0.76442 0.77765 0.0
H1220 H 0.37047 0.77347 0.56207 0.0
H1221 H 0.39744 0.73856 0.51804 0.0
C1222 C 0.42499 0.70694 0.60309 0.0
C1223 C 0.43677 0.69123 0.65555 0.0
C1224 C 0.41413 0.73041 0.62355 0.0
C1225 C 0.44096 0.7009 0.72588 0.0
C1226 C 0.43084 0.72452 0.74612 0.0
C1227 C 0.4013 0.7593 0.72046 0.0
C1228 C 0.38403 0.77131 0.67299 0.0
C1229 C 0.41613 0.73865 0.69655 0.0
C1230 C 0.38386 0.76464 0.59921 0.0
C1231 C 0.39907 0.74445 0.57435 0.0
H1232 H 0.05573 0.67088 0.79186 0.0
H1233 H 0.07103 0.69944 1.00793 0.0
H1234 H 0.03087 0.68094 0.05113 0.0
H1235 H 0.99664 0.64914 0.03316 0.0
H1236 H 0.982 0.6193 0.81916 0.0
H1237 H 0.01621 0.64611 0.76904 0.0
C1238 C 0.04996 0.67366 0.84794 0.0
C1239 C 0.06677 0.68586 0.89703 0.0
C1240 C 0.02702 0.66249 0.87294 0.0
C1241 C 0.05874 0.6897 0.96921 0.0
C1242 C 0.03578 0.67903 0.99414 0.0
C1243 C 1.00037 0.64934 0.97511 0.0
C1244 C 0.98693 0.63241 0.92971 0.0
C1245 C 0.02053 0.66425 0.94739 0.0
C1246 C 0.99189 0.63245 0.85481 0.0
C1247 C 0.0117 0.64757 0.8264 0.0
H1248 H 0.92912 0.69476 0.77963 0.0
H1249 H 0.91867 0.70065 0.01176 0.0
H1250 H 0.8995 0.74285 0.99707 0.0
H1251 H 0.87856 0.77424 0.91645 0.0
H1252 H 0.88712 0.76705 0.68464 0.0
H1253 H 0.91481 0.72987 0.70095 0.0
C1254 C 0.92318 0.7055 0.82715 0.0
C1255 C 0.9248 0.69423 0.89642 0.0
C1256 C 0.91172 0.72965 0.81832 0.0
C1257 C 0.91734 0.70863 0.95753 0.0
C1258 C 0.90628 0.73282 0.94926 0.0
C1259 C 0.88725 0.76511 0.86988 0.0
C1260 C 0.88074 0.77325 0.79952 0.0
C1261 C 0.90233 0.74303 0.87966 0.0
C1262 C 0.89197 0.76108 0.73939 0.0
C1263 C 0.90757 0.73965 0.74864 0.0
H1264 H 0.49929 0.63704 0.48395 0.0
H1265 H 0.48705 0.61713 0.70838 0.0
H1266 H 0.52181 0.64579 0.74539 0.0
H1267 H 0.56034 0.6699 0.71111 0.0
H1268 H 0.57454 0.68722 0.48505 0.0
H1269 H 0.53404 0.66683 0.45141 0.0
C1270 C 0.50385 0.63967 0.54107 0.0
C1271 C 0.49064 0.62535 0.59362 0.0
C1272 C 0.5244 0.65546 0.56136 0.0
C1273 C 0.49668 0.62842 0.66736 0.0
C1274 C 0.51674 0.64459 0.68832 0.0
C1275 C 0.55431 0.66978 0.65464 0.0
C1276 C 0.57074 0.67944 0.60046 0.0
C1277 C 0.53144 0.65729 0.63544 0.0
C1278 C 0.56244 0.67952 0.52771 0.0
C1279 C 0.53934 0.66775 0.50835 0.0
H1280 H 0.57427 0.30984 0.32786 0.0
H1281 H 0.60812 0.3083 0.5421 0.0
H1282 H 0.62952 0.26804 0.51365 0.0
H1283 H 0.64529 0.23829 0.41964 0.0
H1284 H 0.61333 0.24156 0.20397 0.0
H1285 H 0.58418 0.27572 0.24125 0.0
C1286 C 0.58583 0.3004 0.36896 0.0
C1287 C 0.59008 0.31241 0.4363 0.0
C1288 C 0.5986 0.27757 0.35165 0.0
C1289 C 0.60477 0.29968 0.48939 0.0
C1290 C 0.61715 0.27668 0.47307 0.0
C1291 C 0.63116 0.24578 0.38199 0.0
C1292 C 0.63116 0.23746 0.30951 0.0
C1293 C 0.61518 0.26611 0.40322 0.0
C1294 C 0.61334 0.24766 0.26027 0.0
C1295 C 0.59688 0.26733 0.2814 0.0
H1296 H 0.0235 0.39144 0.19186 0.0
H1297 H 0.02453 0.37037 0.96567 0.0
H1298 H 0.99013 0.33931 0.98614 0.0
H1299 H 0.95449 0.32493 0.06267 0.0
H1300 H 0.95166 0.34779 0.28794 0.0
H1301 H 0.99225 0.37073 0.2743 0.0
C1302 C 0.01684 0.37922 0.14804 0.0
C1303 C 0.02644 0.38288 0.07757 0.0
C1304 C 0.99637 0.36209 0.1598 0.0
C1305 C 0.01741 0.36754 0.02045 0.0
C1306 C 0.99762 0.34999 0.03203 0.0
C1307 C 0.96305 0.33441 0.10925 0.0
C1308 C 0.94972 0.33518 0.17561 0.0
C1309 C 0.98607 0.34811 0.10062 0.0
C1310 C 0.96132 0.34716 0.23583 0.0
C1311 C 0.98451 0.36043 0.22805 0.0
H1312 H 0.56935 0.80729 0.6739 0.0
H1313 H 0.60284 0.81344 0.46001 0.0
H1314 H 0.62532 0.77302 0.47803 0.0
H1315 H 0.64284 0.74156 0.5652 0.0
H1316 H 0.6116 0.73776 0.78158 0.0
H1317 H 0.58056 0.77118 0.75192 0.0
C1318 C 0.58104 0.79946 0.6305 0.0
C1319 C 0.58505 0.8137 0.56675 0.0
C1320 C 0.59456 0.77667 0.64211 0.0
C1321 C 0.59976 0.80305 0.51026 0.0
C1322 C 0.61278 0.77999 0.52063 0.0
C1323 C 0.62849 0.74745 0.6045 0.0
C1324 C 0.62923 0.73749 0.6752 0.0
C1325 C 0.61145 0.76742 0.58788 0.0
C1326 C 0.61106 0.74532 0.7267 0.0
C1327 C 0.5935 0.76451 0.70993 0.0
H1328 H 0.02233 0.88369 0.83433 0.0
H1329 H 0.01749 0.87014 0.06472 0.0
H1330 H 0.98248 0.83965 0.04564 0.0
H1331 H 0.94774 0.8247 0.96679 0.0
H1332 H 0.95002 0.84155 0.7371 0.0
H1333 H 0.99167 0.86245 0.75198 0.0
C1334 C 0.01424 0.87333 0.8798 0.0
C1335 C 0.0223 0.87906 0.95072 0.0
C1336 C 0.99323 0.85684 0.86858 0.0
C1337 C 0.01151 0.8658 1.00961 0.0
C1338 C 0.99136 0.84859 0.99875 0.0
C1339 C 0.95761 0.83238 0.91963 0.0
C1340 C 0.94544 0.83218 0.85136 0.0
C1341 C 0.98112 0.84514 0.92895 0.0
C1342 C 0.95874 0.84181 0.7906 0.0
C1343 C 0.98255 0.85388 0.79906 0.0
H1344 H 0.88546 0.27615 0.09819 0.0
H1345 H 0.8915 0.26316 0.32866 0.0
H1346 H 0.92116 0.22781 0.30773 0.0
H1347 H 0.93746 0.19541 0.22378 0.0
H1348 H 0.92847 0.20627 0.99251 0.0
H1349 H 0.9083 0.2477 0.01353 0.0
C1350 C 0.89399 0.26618 0.14366 0.0
C1351 C 0.88628 0.27209 0.21475 0.0
C1352 C 0.91008 0.24507 0.13092 0.0
C1353 C 0.8973 0.25888 0.27342 0.0
C1354 C 0.91405 0.23853 0.26144 0.0
C1355 C 0.93169 0.2071 0.17785 0.0
C1356 C 0.93388 0.19742 0.10683 0.0
C1357 C 0.91938 0.23056 0.19034 0.0
C1358 C 0.92665 0.21303 0.04792 0.0
C1359 C 0.915 0.23674 0.05985 0.0
H1360 H 0.56856 0.18418 0.46785 0.0
H1361 H 0.56268 0.16107 0.24322 0.0
H1362 H 0.52215 0.13934 0.26859 0.0
H1363 H 0.49309 0.12002 0.35946 0.0
H1364 H 0.50007 0.14192 0.58422 0.0
H1365 H 0.53509 0.17125 0.55404 0.0
C1366 C 0.55812 0.1749 0.42409 0.0
C1367 C 0.56897 0.17375 0.35424 0.0
C1368 C 0.53503 0.16202 0.43927 0.0
C1369 C 0.55497 0.16201 0.29783 0.0
C1370 C 0.53179 0.14943 0.31229 0.0
C1371 C 0.50158 0.13208 0.40101 0.0
C1372 C 0.49401 0.12913 0.47371 0.0
C1373 C 0.52226 0.14832 0.38347 0.0
C1374 C 0.50556 0.1442 0.52775 0.0
C1375 C 0.52571 0.16077 0.51062 0.0
H1376 H 0.42712 0.20303 0.50281 0.0
H1377 H 0.44555 0.18528 0.2796 0.0
H1378 H 0.4253 0.22485 0.2397 0.0
H1379 H 0.3948 0.2594 0.26611 0.0
H1380 H 0.37504 0.27616 0.48803 0.0
H1381 H 0.4036 0.24247 0.53082 0.0
C1382 C 0.42733 0.20813 0.44564 0.0
C1383 C 0.43709 0.19084 0.3941 0.0
C1384 C 0.4151 0.23064 0.42277 0.0
C1385 C 0.43768 0.19799 0.32036 0.0
C1386 C 0.426 0.22058 0.29736 0.0
C1387 C 0.39745 0.25612 0.32391 0.0
C1388 C 0.38289 0.27012 0.37402 0.0
C1389 C 0.41344 0.23627 0.34771 0.0
C1390 C 0.38625 0.26583 0.44864 0.0
C1391 C 0.40243 0.24635 0.47302 0.0
H1392 H 0.992 0.12302 0.15895 0.0
H1393 H 0.99532 0.14673 0.93497 0.0
H1394 H 0.03166 0.17486 0.96172 0.0
H1395 H 0.06721 0.18585 0.04308 0.0
H1396 H 0.06568 0.16009 0.26602 0.0
H1397 H 0.02385 0.14011 0.2461 0.0
C1398 C 1.0001 0.13516 0.11697 0.0
C1399 C 0.99112 0.13304 0.04531 0.0
C1400 C 0.02169 0.15049 0.13228 0.0
C1401 C 1.00198 0.14833 0.99064 0.0
C1402 C 0.02287 0.1642 1.00579 0.0
C1403 C 0.05748 0.17637 0.08778 0.0
C1404 C 0.06986 0.17395 0.15534 0.0
C1405 C 0.03369 0.16439 0.07554 0.0
C1406 C 0.05677 0.16195 0.21304 0.0
C1407 C 0.03285 0.1504 0.20168 0.0
H1408 H 0.07395 0.81307 0.8004 0.0
H1409 H 0.09549 0.81456 0.02704 0.0
H1410 H 0.11822 0.77409 0.01285 0.0
H1411 H 0.13938 0.74359 0.93006 0.0
H1412 H 0.12002 0.74413 0.70245 0.0
H1413 H 0.08886 0.77828 0.72279 0.0
C1414 C 0.08308 0.80424 0.84714 0.0
C1415 C 0.08365 0.81715 0.91406 0.0
C1416 C 0.0968 0.78143 0.83809 0.0
C1417 C 0.0951 0.80521 0.9745 0.0
C1418 C 0.10826 0.78212 0.96639 0.0
C1419 C 0.12756 0.75057 0.88578 0.0
C1420 C 0.1317 0.74151 0.81507 0.0
C1421 C 0.11036 0.7708 0.89758 0.0
C1422 C 0.11686 0.75093 0.75738 0.0
C1423 C 0.09921 0.7705 0.76892 0.0
H1424 H 0.44389 0.82646 0.50805 0.0
H1425 H 0.45088 0.8375 0.73975 0.0
H1426 H 0.49335 0.85641 0.72336 0.0
H1427 H 0.52433 0.8773 0.64137 0.0
H1428 H 0.5156 0.86891 0.40992 0.0
H1429 H 0.47867 0.84076 0.42788 0.0
C1430 C 0.45494 0.83241 0.55513 0.0
C1431 C 0.4439 0.83116 0.62474 0.0
C1432 C 0.47914 0.84388 0.54525 0.0
C1433 C 0.45869 0.83866 0.68526 0.0
C1434 C 0.48302 0.84954 0.67602 0.0
C1435 C 0.5149 0.86861 0.5952 0.0
C1436 C 0.52247 0.8753 0.52453 0.0
C1437 C 0.49289 0.85339 0.60599 0.0
C1438 C 0.51002 0.86395 0.46492 0.0
C1439 C 0.48874 0.84808 0.47513 0.0
loop_
_geom_bond_atom_site_label_1
_geom_bond_atom_site_label_2
_geom_bond_distance
_geom_bond_site_symmetry_2
_ccdc_geom_bond_type
Zn0 N4 2.020 . S
Zn0 O8 2.019 . S
Zn0 N10 2.119 . S
Zn0 O18 1.975 . S
C1 N2 1.334 . S
C1 N5 1.336 . S
N2 C1 1.334 . S
N2 C3 1.334 . S
C3 N2 1.334 . S
C3 N4 1.336 . S
N4 Zn0 2.020 . S
N4 C3 1.336 . S
N4 N5 1.354 . S
N5 C1 1.336 . S
N5 N4 1.354 . S
N5 Zn9 2.020 . S
C6 O7 1.244 . S
C6 O30 1.257 . S
O7 C6 1.244 . S
O8 Zn0 2.019 . S
O8 C28 1.257 . S
Zn9 N5 2.020 . S
Zn9 O16 1.975 . S
Zn9 N25 2.119 . S
Zn9 O30 2.019 . S
N10 Zn0 2.119 . S
N10 C12 1.334 . S
N10 C13 1.328 . S
C11 C12 1.391 . S
C11 N14 1.329 1_554 S
C11 H32 0.930 . S
C12 N10 1.334 . S
C12 C11 1.391 . S
C12 H19 0.930 . S
C13 N10 1.328 . S
C13 C15 1.392 1_554 S
C13 H20 0.930 . S
N14 C11 1.329 1_556 S
N14 C15 1.331 . S
C15 C13 1.392 1_556 S
C15 N14 1.331 . S
O16 Zn9 1.975 . S
O16 C17 1.252 . S
C17 O16 1.252 . S
C17 O18 1.252 . S
O18 Zn0 1.975 . S
O18 C17 1.252 . S
H19 C12 0.930 . S
H20 C13 0.930 . S
C21 C22 1.392 . S
C21 N25 1.328 . S
C21 H27 0.930 . S
C22 C21 1.392 . S
C22 N26 1.331 . S
C23 C24 1.391 . S
C23 N26 1.329 . S
C23 H33 0.930 . S
C24 C23 1.391 . S
C24 N25 1.334 . S
C24 H31 0.930 . S
N25 Zn9 2.119 . S
N25 C21 1.328 . S
N25 C24 1.334 . S
N26 C22 1.331 . S
N26 C23 1.329 . S
H27 C21 0.930 . S
C28 O8 1.257 . S
C28 O29 1.244 . S
O29 C28 1.244 . S
O30 C6 1.257 . S
O30 Zn9 2.019 . S
H31 C24 0.930 . S
H32 C11 0.930 . S
H33 C23 0.930 . S
Zn34 N38 2.020 . S
Zn34 O42 2.019 . S
Zn34 N44 2.119 . S
Zn34 O52 1.975 . S
C35 N36 1.334 . S
C35 N39 1.336 . S
N36 C35 1.334 . S
N36 C37 1.334 . S
C37 N36 1.334 . S
C37 N38 1.336 . S
N38 Zn34 2.020 . S
N38 C37 1.336 . S
N38 N39 1.354 . S
N39 C35 1.336 . S
N39 N38 1.354 . S
N39 Zn43 2.020 . S
C40 O41 1.244 . S
C40 O64 1.257 . S
O41 C40 1.244 . S
O42 Zn34 2.019 . S
O42 C62 1.257 . S
Zn43 N39 2.020 . S
Zn43 O50 1.975 . S
Zn43 N59 2.119 . S
Zn43 O64 2.019 . S
N44 Zn34 2.119 . S
N44 C46 1.334 . S
N44 C47 1.328 . S
C45 C46 1.391 . S
C45 N48 1.329 . S
C45 H66 0.930 . S
C46 N44 1.334 . S
C46 C45 1.391 . S
C46 H53 0.930 . S
C47 N44 1.328 . S
C47 C49 1.392 . S
C47 H54 0.930 . S
N48 C45 1.329 . S
N48 C49 1.331 . S
C49 C47 1.392 . S
C49 N48 1.331 . S
O50 Zn43 1.975 . S
O50 C51 1.252 . S
C51 O50 1.252 . S
C51 O52 1.252 . S
O52 Zn34 1.975 . S
O52 C51 1.252 . S
H53 C46 0.930 . S
H54 C47 0.930 . S
C55 C56 1.392 . S
C55 N59 1.328 . S
C55 H61 0.930 . S
C56 C55 1.392 . S
C56 N60 1.331 . S
C57 C58 1.391 . S
C57 N60 1.329 . S
C57 H67 0.930 . S
C58 C57 1.391 . S
C58 N59 1.334 . S
C58 H65 0.930 . S
N59 Zn43 2.119 . S
N59 C55 1.328 . S
N59 C58 1.334 . S
N60 C56 1.331 . S
N60 C57 1.329 . S
H61 C55 0.930 . S
C62 O42 1.257 . S
C62 O63 1.244 . S
O63 C62 1.244 . S
O64 C40 1.257 . S
O64 Zn43 2.019 . S
H65 C58 0.930 . S
H66 C45 0.930 . S
H67 C57 0.930 . S
Zn68 N72 2.020 . S
Zn68 O76 2.019 . S
Zn68 N78 2.119 . S
Zn68 O86 1.975 . S
C69 N70 1.334 . S
C69 N73 1.336 . S
N70 C69 1.334 . S
N70 C71 1.334 . S
C71 N70 1.334 . S
C71 N72 1.336 . S
N72 Zn68 2.020 . S
N72 C71 1.336 . S
N72 N73 1.354 . S
N73 C69 1.336 . S
N73 N72 1.354 . S
N73 Zn77 2.020 . S
C74 O75 1.244 . S
C74 O98 1.257 . S
O75 C74 1.244 . S
O76 Zn68 2.019 . S
O76 C96 1.257 . S
Zn77 N73 2.020 . S
Zn77 O84 1.975 . S
Zn77 N93 2.119 . S
Zn77 O98 2.019 . S
N78 Zn68 2.119 . S
N78 C80 1.334 . S
N78 C81 1.328 . S
C79 C80 1.391 . S
C79 N82 1.329 . S
C79 H100 0.930 . S
C80 N78 1.334 . S
C80 C79 1.391 . S
C80 H87 0.930 . S
C81 N78 1.328 . S
C81 C83 1.392 . S
C81 H88 0.930 . S
N82 C79 1.329 . S
N82 C83 1.331 . S
C83 C81 1.392 . S
C83 N82 1.331 . S
O84 Zn77 1.975 . S
O84 C85 1.252 . S
C85 O84 1.252 . S
C85 O86 1.252 . S
O86 Zn68 1.975 . S
O86 C85 1.252 . S
H87 C80 0.930 . S
H88 C81 0.930 . S
C89 C90 1.392 1_556 S
C89 N93 1.328 . S
C89 H95 0.930 . S
C90 C89 1.392 1_554 S
C90 N94 1.331 . S
C91 C92 1.391 . S
C91 N94 1.329 1_556 S
C91 H101 0.930 . S
C92 C91 1.391 . S
C92 N93 1.334 . S
C92 H99 0.930 . S
N93 Zn77 2.119 . S
N93 C89 1.328 . S
N93 C92 1.334 . S
N94 C90 1.331 . S
N94 C91 1.329 1_554 S
H95 C89 0.930 . S
C96 O76 1.257 . S
C96 O97 1.244 . S
O97 C96 1.244 . S
O98 C74 1.257 . S
O98 Zn77 2.019 . S
H99 C92 0.930 . S
H100 C79 0.930 . S
H101 C91 0.930 . S
Zn102 N106 2.020 . S
Zn102 O110 2.019 . S
Zn102 N112 2.119 . S
Zn102 O120 1.975 . S
C103 N104 1.334 . S
C103 N107 1.336 . S
N104 C103 1.334 . S
N104 C105 1.334 1_556 S
C105 N104 1.334 1_554 S
C105 N106 1.336 . S
N106 Zn102 2.020 . S
N106 C105 1.336 . S
N106 N107 1.354 1_554 S
N107 C103 1.336 . S
N107 N106 1.354 1_556 S
N107 Zn111 2.020 . S
C108 O109 1.244 . S
C108 O132 1.257 . S
O109 C108 1.244 . S
O110 Zn102 2.019 . S
O110 C130 1.257 . S
Zn111 N107 2.020 . S
Zn111 O118 1.975 . S
Zn111 N127 2.119 . S
Zn111 O132 2.019 . S
N112 Zn102 2.119 . S
N112 C114 1.334 . S
N112 C115 1.328 . S
C113 C114 1.391 . S
C113 N116 1.329 . S
C113 H134 0.930 . S
C114 N112 1.334 . S
C114 C113 1.391 . S
C114 H121 0.930 . S
C115 N112 1.328 . S
C115 C117 1.392 . S
C115 H122 0.930 . S
N116 C113 1.329 . S
N116 C117 1.331 . S
C117 C115 1.392 . S
C117 N116 1.331 . S
O118 Zn111 1.975 . S
O118 C119 1.252 . S
C119 O118 1.252 . S
C119 O120 1.252 1_556 S
O120 Zn102 1.975 . S
O120 C119 1.252 1_554 S
H121 C114 0.930 . S
H122 C115 0.930 . S
C123 C124 1.392 . S
C123 N127 1.328 . S
C123 H129 0.930 . S
C124 C123 1.392 . S
C124 N128 1.331 . S
C125 C126 1.391 . S
C125 N128 1.329 . S
C125 H135 0.930 . S
C126 C125 1.391 . S
C126 N127 1.334 . S
C126 H133 0.930 . S
N127 Zn111 2.119 . S
N127 C123 1.328 . S
N127 C126 1.334 . S
N128 C124 1.331 . S
N128 C125 1.329 . S
H129 C123 0.930 . S
C130 O110 1.257 . S
C130 O131 1.244 . S
O131 C130 1.244 . S
O132 C108 1.257 . S
O132 Zn111 2.019 . S
H133 C126 0.930 . S
H134 C113 0.930 . S
H135 C125 0.930 . S
Zn136 N140 2.020 . S
Zn136 O144 2.019 . S
Zn136 N146 2.119 . S
Zn136 O154 1.975 . S
C137 N138 1.334 . S
C137 N141 1.336 . S
N138 C137 1.334 . S
N138 C139 1.334 . S
C139 N138 1.334 . S
C139 N140 1.336 . S
N140 Zn136 2.020 . S
N140 C139 1.336 . S
N140 N141 1.354 . S
N141 C137 1.336 . S
N141 N140 1.354 . S
N141 Zn145 2.020 . S
C142 O143 1.244 . S
C142 O166 1.257 . S
O143 C142 1.244 . S
O144 Zn136 2.019 . S
O144 C164 1.257 . S
Zn145 N141 2.020 . S
Zn145 O152 1.975 . S
Zn145 N161 2.119 . S
Zn145 O166 2.019 . S
N146 Zn136 2.119 . S
N146 C148 1.334 . S
N146 C149 1.328 . S
C147 C148 1.391 . S
C147 N150 1.329 . S
C147 H168 0.930 . S
C148 N146 1.334 . S
C148 C147 1.391 . S
C148 H155 0.930 . S
C149 N146 1.328 . S
C149 C151 1.392 . S
C149 H156 0.930 . S
N150 C147 1.329 . S
N150 C151 1.331 . S
C151 C149 1.392 . S
C151 N150 1.331 . S
O152 Zn145 1.975 . S
O152 C153 1.252 . S
C153 O152 1.252 . S
C153 O154 1.252 . S
O154 Zn136 1.975 . S
O154 C153 1.252 . S
H155 C148 0.930 . S
H156 C149 0.930 . S
C157 C158 1.392 1_556 S
C157 N161 1.328 . S
C157 H163 0.930 . S
C158 C157 1.392 1_554 S
C158 N162 1.331 . S
C159 C160 1.391 . S
C159 N162 1.329 1_556 S
C159 H169 0.930 . S
C160 C159 1.391 . S
C160 N161 1.334 . S
C160 H167 0.930 . S
N161 Zn145 2.119 . S
N161 C157 1.328 . S
N161 C160 1.334 . S
N162 C158 1.331 . S
N162 C159 1.329 1_554 S
H163 C157 0.930 . S
C164 O144 1.257 . S
C164 O165 1.244 . S
O165 C164 1.244 . S
O166 C142 1.257 . S
O166 Zn145 2.019 . S
H167 C160 0.930 . S
H168 C147 0.930 . S
H169 C159 0.930 . S
Zn170 N174 2.020 . S
Zn170 O178 2.019 . S
Zn170 N180 2.119 . S
Zn170 O188 1.975 . S
C171 N172 1.334 . S
C171 N175 1.336 . S
N172 C171 1.334 . S
N172 C173 1.334 . S
C173 N172 1.334 . S
C173 N174 1.336 . S
N174 Zn170 2.020 . S
N174 C173 1.336 . S
N174 N175 1.354 . S
N175 C171 1.336 . S
N175 N174 1.354 . S
N175 Zn179 2.020 . S
C176 O177 1.244 . S
C176 O200 1.257 . S
O177 C176 1.244 . S
O178 Zn170 2.019 . S
O178 C198 1.257 . S
Zn179 N175 2.020 . S
Zn179 O186 1.975 . S
Zn179 N195 2.119 . S
Zn179 O200 2.019 . S
N180 Zn170 2.119 . S
N180 C182 1.334 . S
N180 C183 1.328 . S
C181 C182 1.391 . S
C181 N184 1.329 . S
C181 H202 0.930 . S
C182 N180 1.334 . S
C182 C181 1.391 . S
C182 H189 0.930 . S
C183 N180 1.328 . S
C183 C185 1.392 . S
C183 H190 0.930 . S
N184 C181 1.329 . S
N184 C185 1.331 . S
C185 C183 1.392 . S
C185 N184 1.331 . S
O186 Zn179 1.975 . S
O186 C187 1.252 . S
C187 O186 1.252 . S
C187 O188 1.252 . S
O188 Zn170 1.975 . S
O188 C187 1.252 . S
H189 C182 0.930 . S
H190 C183 0.930 . S
C191 C192 1.392 . S
C191 N195 1.328 . S
C191 H197 0.930 . S
C192 C191 1.392 . S
C192 N196 1.331 . S
C193 C194 1.391 . S
C193 N196 1.329 . S
C193 H203 0.930 . S
C194 C193 1.391 . S
C194 N195 1.334 . S
C194 H201 0.930 . S
N195 Zn179 2.119 . S
N195 C191 1.328 . S
N195 C194 1.334 . S
N196 C192 1.331 . S
N196 C193 1.329 . S
H197 C191 0.930 . S
C198 O178 1.257 . S
C198 O199 1.244 . S
O199 C198 1.244 . S
O200 C176 1.257 . S
O200 Zn179 2.019 . S
H201 C194 0.930 . S
H202 C181 0.930 . S
H203 C193 0.930 . S
Zn204 N208 2.020 . S
Zn204 O212 2.019 . S
Zn204 N214 2.119 . S
Zn204 O222 1.975 . S
C205 N206 1.334 . S
C205 N209 1.336 . S
N206 C205 1.334 . S
N206 C207 1.334 . S
C207 N206 1.334 . S
C207 N208 1.336 . S
N208 Zn204 2.020 . S
N208 C207 1.336 . S
N208 N209 1.354 . S
N209 C205 1.336 . S
N209 N208 1.354 . S
N209 Zn213 2.020 . S
C210 O211 1.244 . S
C210 O234 1.257 . S
O211 C210 1.244 . S
O212 Zn204 2.019 . S
O212 C232 1.257 . S
Zn213 N209 2.020 . S
Zn213 O220 1.975 . S
Zn213 N229 2.119 . S
Zn213 O234 2.019 . S
N214 Zn204 2.119 . S
N214 C216 1.334 . S
N214 C217 1.328 . S
C215 C216 1.391 . S
C215 N218 1.329 1_554 S
C215 H236 0.930 . S
C216 N214 1.334 . S
C216 C215 1.391 . S
C216 H223 0.930 . S
C217 N214 1.328 . S
C217 C219 1.392 1_554 S
C217 H224 0.930 . S
N218 C215 1.329 1_556 S
N218 C219 1.331 . S
C219 C217 1.392 1_556 S
C219 N218 1.331 . S
O220 Zn213 1.975 . S
O220 C221 1.252 . S
C221 O220 1.252 . S
C221 O222 1.252 . S
O222 Zn204 1.975 . S
O222 C221 1.252 . S
H223 C216 0.930 . S
H224 C217 0.930 . S
C225 C226 1.392 . S
C225 N229 1.328 . S
C225 H231 0.930 . S
C226 C225 1.392 . S
C226 N230 1.331 . S
C227 C228 1.391 . S
C227 N230 1.329 . S
C227 H237 0.930 . S
C228 C227 1.391 . S
C228 N229 1.334 . S
C228 H235 0.930 . S
N229 Zn213 2.119 . S
N229 C225 1.328 . S
N229 C228 1.334 . S
N230 C226 1.331 . S
N230 C227 1.329 . S
H231 C225 0.930 . S
C232 O212 1.257 . S
C232 O233 1.244 . S
O233 C232 1.244 . S
O234 C210 1.257 . S
O234 Zn213 2.019 . S
H235 C228 0.930 . S
H236 C215 0.930 . S
H237 C227 0.930 . S
Zn238 N242 2.020 . S
Zn238 O246 2.019 . S
Zn238 N248 2.119 . S
Zn238 O256 1.975 . S
C239 N240 1.334 1_556 S
C239 N243 1.336 . S
N240 C239 1.334 1_554 S
N240 C241 1.334 . S
C241 N240 1.334 . S
C241 N242 1.336 . S
N242 Zn238 2.020 . S
N242 C241 1.336 . S
N242 N243 1.354 1_554 S
N243 C239 1.336 . S
N243 N242 1.354 1_556 S
N243 Zn247 2.020 . S
C244 O245 1.244 . S
C244 O268 1.257 . S
O245 C244 1.244 . S
O246 Zn238 2.019 . S
O246 C266 1.257 . S
Zn247 N243 2.020 . S
Zn247 O254 1.975 . S
Zn247 N263 2.119 . S
Zn247 O268 2.019 . S
N248 Zn238 2.119 . S
N248 C250 1.334 . S
N248 C251 1.328 . S
C249 C250 1.391 . S
C249 N252 1.329 . S
C249 H270 0.930 . S
C250 N248 1.334 . S
C250 C249 1.391 . S
C250 H257 0.930 . S
C251 N248 1.328 . S
C251 C253 1.392 . S
C251 H258 0.930 . S
N252 C249 1.329 . S
N252 C253 1.331 . S
C253 C251 1.392 . S
C253 N252 1.331 . S
O254 Zn247 1.975 . S
O254 C255 1.252 1_556 S
C255 O254 1.252 1_554 S
C255 O256 1.252 . S
O256 Zn238 1.975 . S
O256 C255 1.252 . S
H257 C250 0.930 . S
H258 C251 0.930 . S
C259 C260 1.392 . S
C259 N263 1.328 . S
C259 H265 0.930 . S
C260 C259 1.392 . S
C260 N264 1.331 . S
C261 C262 1.391 . S
C261 N264 1.329 . S
C261 H271 0.930 . S
C262 C261 1.391 . S
C262 N263 1.334 . S
C262 H269 0.930 . S
N263 Zn247 2.119 . S
N263 C259 1.328 . S
N263 C262 1.334 . S
N264 C260 1.331 . S
N264 C261 1.329 . S
H265 C259 0.930 . S
C266 O246 1.257 . S
C266 O267 1.244 . S
O267 C266 1.244 . S
O268 C244 1.257 . S
O268 Zn247 2.019 . S
H269 C262 0.930 . S
H270 C249 0.930 . S
H271 C261 0.930 . S
Zn272 N276 2.020 . S
Zn272 O280 2.019 . S
Zn272 N282 2.119 . S
Zn272 O290 1.975 . S
C273 N274 1.334 . S
C273 N277 1.336 . S
N274 C273 1.334 . S
N274 C275 1.334 . S
C275 N274 1.334 . S
C275 N276 1.336 . S
N276 Zn272 2.020 . S
N276 C275 1.336 . S
N276 N277 1.354 . S
N277 C273 1.336 . S
N277 N276 1.354 . S
N277 Zn281 2.020 . S
C278 O279 1.244 . S
C278 O302 1.257 . S
O279 C278 1.244 . S
O280 Zn272 2.019 . S
O280 C300 1.257 . S
Zn281 N277 2.020 . S
Zn281 O288 1.975 . S
Zn281 N297 2.119 . S
Zn281 O302 2.019 . S
N282 Zn272 2.119 . S
N282 C284 1.334 . S
N282 C285 1.328 . S
C283 C284 1.391 . S
C283 N286 1.329 . S
C283 H304 0.930 . S
C284 N282 1.334 . S
C284 C283 1.391 . S
C284 H291 0.930 . S
C285 N282 1.328 . S
C285 C287 1.392 . S
C285 H292 0.930 . S
N286 C283 1.329 . S
N286 C287 1.331 . S
C287 C285 1.392 . S
C287 N286 1.331 . S
O288 Zn281 1.975 . S
O288 C289 1.252 . S
C289 O288 1.252 . S
C289 O290 1.252 . S
O290 Zn272 1.975 . S
O290 C289 1.252 . S
H291 C284 0.930 . S
H292 C285 0.930 . S
C293 C294 1.392 1_556 S
C293 N297 1.328 . S
C293 H299 0.930 . S
C294 C293 1.392 1_554 S
C294 N298 1.331 . S
C295 C296 1.391 . S
C295 N298 1.329 1_556 S
C295 H305 0.930 . S
C296 C295 1.391 . S
C296 N297 1.334 . S
C296 H303 0.930 . S
N297 Zn281 2.119 . S
N297 C293 1.328 . S
N297 C296 1.334 . S
N298 C294 1.331 . S
N298 C295 1.329 1_554 S
H299 C293 0.930 . S
C300 O280 1.257 . S
C300 O301 1.244 . S
O301 C300 1.244 . S
O302 C278 1.257 . S
O302 Zn281 2.019 . S
H303 C296 0.930 . S
H304 C283 0.930 . S
H305 C295 0.930 . S
Zn306 N310 2.020 . S
Zn306 O314 2.019 . S
Zn306 N316 2.119 . S
Zn306 O324 1.975 . S
C307 N308 1.334 1_554 S
C307 N311 1.336 . S
N308 C307 1.334 1_556 S
N308 C309 1.334 . S
C309 N308 1.334 . S
C309 N310 1.336 . S
N310 Zn306 2.020 . S
N310 C309 1.336 . S
N310 N311 1.354 1_556 S
N311 C307 1.336 . S
N311 N310 1.354 1_554 S
N311 Zn315 2.020 . S
C312 O313 1.244 . S
C312 O336 1.257 . S
O313 C312 1.244 . S
O314 Zn306 2.019 . S
O314 C334 1.257 . S
Zn315 N311 2.020 . S
Zn315 O322 1.975 . S
Zn315 N331 2.119 . S
Zn315 O336 2.019 . S
N316 Zn306 2.119 . S
N316 C318 1.334 . S
N316 C319 1.328 . S
C317 C318 1.391 . S
C317 N320 1.329 . S
C317 H338 0.930 . S
C318 N316 1.334 . S
C318 C317 1.391 . S
C318 H325 0.930 . S
C319 N316 1.328 . S
C319 C321 1.392 . S
C319 H326 0.930 . S
N320 C317 1.329 . S
N320 C321 1.331 . S
C321 C319 1.392 . S
C321 N320 1.331 . S
O322 Zn315 1.975 . S
O322 C323 1.252 1_554 S
C323 O322 1.252 1_556 S
C323 O324 1.252 . S
O324 Zn306 1.975 . S
O324 C323 1.252 . S
H325 C318 0.930 . S
H326 C319 0.930 . S
C327 C328 1.392 . S
C327 N331 1.328 . S
C327 H333 0.930 . S
C328 C327 1.392 . S
C328 N332 1.331 . S
C329 C330 1.391 . S
C329 N332 1.329 . S
C329 H339 0.930 . S
C330 C329 1.391 . S
C330 N331 1.334 . S
C330 H337 0.930 . S
N331 Zn315 2.119 . S
N331 C327 1.328 . S
N331 C330 1.334 . S
N332 C328 1.331 . S
N332 C329 1.329 . S
H333 C327 0.930 . S
C334 O314 1.257 . S
C334 O335 1.244 . S
O335 C334 1.244 . S
O336 C312 1.257 . S
O336 Zn315 2.019 . S
H337 C330 0.930 . S
H338 C317 0.930 . S
H339 C329 0.930 . S
Zn340 N344 2.020 . S
Zn340 O348 2.019 . S
Zn340 N350 2.119 . S
Zn340 O358 1.975 . S
C341 N342 1.334 . S
C341 N345 1.336 . S
N342 C341 1.334 . S
N342 C343 1.334 . S
C343 N342 1.334 . S
C343 N344 1.336 . S
N344 Zn340 2.020 . S
N344 C343 1.336 . S
N344 N345 1.354 . S
N345 C341 1.336 . S
N345 N344 1.354 . S
N345 Zn349 2.020 . S
C346 O347 1.244 . S
C346 O370 1.257 . S
O347 C346 1.244 . S
O348 Zn340 2.019 . S
O348 C368 1.257 . S
Zn349 N345 2.020 . S
Zn349 O356 1.975 . S
Zn349 N365 2.119 . S
Zn349 O370 2.019 . S
N350 Zn340 2.119 . S
N350 C352 1.334 . S
N350 C353 1.328 . S
C351 C352 1.391 . S
C351 N354 1.329 1_554 S
C351 H372 0.930 . S
C352 N350 1.334 . S
C352 C351 1.391 . S
C352 H359 0.930 . S
C353 N350 1.328 . S
C353 C355 1.392 1_554 S
C353 H360 0.930 . S
N354 C351 1.329 1_556 S
N354 C355 1.331 . S
C355 C353 1.392 1_556 S
C355 N354 1.331 . S
O356 Zn349 1.975 . S
O356 C357 1.252 . S
C357 O356 1.252 . S
C357 O358 1.252 . S
O358 Zn340 1.975 . S
O358 C357 1.252 . S
H359 C352 0.930 . S
H360 C353 0.930 . S
C361 C362 1.392 . S
C361 N365 1.328 . S
C361 H367 0.930 . S
C362 C361 1.392 . S
C362 N366 1.331 . S
C363 C364 1.391 . S
C363 N366 1.329 . S
C363 H373 0.930 . S
C364 C363 1.391 . S
C364 N365 1.334 . S
C364 H371 0.930 . S
N365 Zn349 2.119 . S
N365 C361 1.328 . S
N365 C364 1.334 . S
N366 C362 1.331 . S
N366 C363 1.329 . S
H367 C361 0.930 . S
C368 O348 1.257 . S
C368 O369 1.244 . S
O369 C368 1.244 . S
O370 C346 1.257 . S
O370 Zn349 2.019 . S
H371 C364 0.930 . S
H372 C351 0.930 . S
H373 C363 0.930 . S
Zn374 N378 2.020 . S
Zn374 O382 2.019 . S
Zn374 N384 2.119 . S
Zn374 O392 1.975 . S
C375 N376 1.334 . S
C375 N379 1.336 . S
N376 C375 1.334 . S
N376 C377 1.334 . S
C377 N376 1.334 . S
C377 N378 1.336 . S
N378 Zn374 2.020 . S
N378 C377 1.336 . S
N378 N379 1.354 . S
N379 C375 1.336 . S
N379 N378 1.354 . S
N379 Zn383 2.020 . S
C380 O381 1.244 . S
C380 O404 1.257 . S
O381 C380 1.244 . S
O382 Zn374 2.019 . S
O382 C402 1.257 . S
Zn383 N379 2.020 . S
Zn383 O390 1.975 . S
Zn383 N399 2.119 . S
Zn383 O404 2.019 . S
N384 Zn374 2.119 . S
N384 C386 1.334 . S
N384 C387 1.328 . S
C385 C386 1.391 . S
C385 N388 1.329 . S
C385 H406 0.930 . S
C386 N384 1.334 . S
C386 C385 1.391 . S
C386 H393 0.930 . S
C387 N384 1.328 . S
C387 C389 1.392 . S
C387 H394 0.930 . S
N388 C385 1.329 . S
N388 C389 1.331 . S
C389 C387 1.392 . S
C389 N388 1.331 . S
O390 Zn383 1.975 . S
O390 C391 1.252 . S
C391 O390 1.252 . S
C391 O392 1.252 . S
O392 Zn374 1.975 . S
O392 C391 1.252 . S
H393 C386 0.930 . S
H394 C387 0.930 . S
C395 C396 1.392 . S
C395 N399 1.328 . S
C395 H401 0.930 . S
C396 C395 1.392 . S
C396 N400 1.331 . S
C397 C398 1.391 . S
C397 N400 1.329 . S
C397 H407 0.930 . S
C398 C397 1.391 . S
C398 N399 1.334 . S
C398 H405 0.930 . S
N399 Zn383 2.119 . S
N399 C395 1.328 . S
N399 C398 1.334 . S
N400 C396 1.331 . S
N400 C397 1.329 . S
H401 C395 0.930 . S
C402 O382 1.257 . S
C402 O403 1.244 . S
O403 C402 1.244 . S
O404 C380 1.257 . S
O404 Zn383 2.019 . S
H405 C398 0.930 . S
H406 C385 0.930 . S
H407 C397 0.930 . S
Zn408 N412 2.020 . S
Zn408 O416 2.019 . S
Zn408 N418 2.119 . S
Zn408 O426 1.975 . S
C409 N410 1.334 . S
C409 N413 1.336 . S
N410 C409 1.334 . S
N410 C411 1.334 . S
C411 N410 1.334 . S
C411 N412 1.336 . S
N412 Zn408 2.020 . S
N412 C411 1.336 . S
N412 N413 1.354 . S
N413 C409 1.336 . S
N413 N412 1.354 . S
N413 Zn417 2.020 . S
C414 O415 1.244 . S
C414 O438 1.257 . S
O415 C414 1.244 . S
O416 Zn408 2.019 . S
O416 C436 1.257 . S
Zn417 N413 2.020 . S
Zn417 O424 1.975 . S
Zn417 N433 2.119 . S
Zn417 O438 2.019 . S
N418 Zn408 2.119 . S
N418 C420 1.334 . S
N418 C421 1.328 . S
C419 C420 1.391 . S
C419 N422 1.329 1_554 S
C419 H440 0.930 . S
C420 N418 1.334 . S
C420 C419 1.391 . S
C420 H427 0.930 . S
C421 N418 1.328 . S
C421 C423 1.392 1_554 S
C421 H428 0.930 . S
N422 C419 1.329 1_556 S
N422 C423 1.331 . S
C423 C421 1.392 1_556 S
C423 N422 1.331 . S
O424 Zn417 1.975 . S
O424 C425 1.252 . S
C425 O424 1.252 . S
C425 O426 1.252 . S
O426 Zn408 1.975 . S
O426 C425 1.252 . S
H427 C420 0.930 . S
H428 C421 0.930 . S
C429 C430 1.392 . S
C429 N433 1.328 . S
C429 H435 0.930 . S
C430 C429 1.392 . S
C430 N434 1.331 . S
C431 C432 1.391 . S
C431 N434 1.329 . S
C431 H441 0.930 . S
C432 C431 1.391 . S
C432 N433 1.334 . S
C432 H439 0.930 . S
N433 Zn417 2.119 . S
N433 C429 1.328 . S
N433 C432 1.334 . S
N434 C430 1.331 . S
N434 C431 1.329 . S
H435 C429 0.930 . S
C436 O416 1.257 . S
C436 O437 1.244 . S
O437 C436 1.244 . S
O438 C414 1.257 . S
O438 Zn417 2.019 . S
H439 C432 0.930 . S
H440 C419 0.930 . S
H441 C431 0.930 . S
Zn442 N446 2.020 . S
Zn442 O450 2.019 . S
Zn442 N452 2.119 . S
Zn442 O460 1.975 . S
C443 N444 1.334 . S
C443 N447 1.336 . S
N444 C443 1.334 . S
N444 C445 1.334 1_554 S
C445 N444 1.334 1_556 S
C445 N446 1.336 . S
N446 Zn442 2.020 . S
N446 C445 1.336 . S
N446 N447 1.354 1_556 S
N447 C443 1.336 . S
N447 N446 1.354 1_554 S
N447 Zn451 2.020 . S
C448 O449 1.244 . S
C448 O472 1.257 . S
O449 C448 1.244 . S
O450 Zn442 2.019 . S
O450 C470 1.257 . S
Zn451 N447 2.020 . S
Zn451 O458 1.975 . S
Zn451 N467 2.119 . S
Zn451 O472 2.019 . S
N452 Zn442 2.119 . S
N452 C454 1.334 . S
N452 C455 1.328 . S
C453 C454 1.391 . S
C453 N456 1.329 . S
C453 H474 0.930 . S
C454 N452 1.334 . S
C454 C453 1.391 . S
C454 H461 0.930 . S
C455 N452 1.328 . S
C455 C457 1.392 . S
C455 H462 0.930 . S
N456 C453 1.329 . S
N456 C457 1.331 . S
C457 C455 1.392 . S
C457 N456 1.331 . S
O458 Zn451 1.975 . S
O458 C459 1.252 . S
C459 O458 1.252 . S
C459 O460 1.252 1_554 S
O460 Zn442 1.975 . S
O460 C459 1.252 1_556 S
H461 C454 0.930 . S
H462 C455 0.930 . S
C463 C464 1.392 . S
C463 N467 1.328 . S
C463 H469 0.930 . S
C464 C463 1.392 . S
C464 N468 1.331 . S
C465 C466 1.391 . S
C465 N468 1.329 . S
C465 H475 0.930 . S
C466 C465 1.391 . S
C466 N467 1.334 . S
C466 H473 0.930 . S
N467 Zn451 2.119 . S
N467 C463 1.328 . S
N467 C466 1.334 . S
N468 C464 1.331 . S
N468 C465 1.329 . S
H469 C463 0.930 . S
C470 O450 1.257 . S
C470 O471 1.244 . S
O471 C470 1.244 . S
O472 C448 1.257 . S
O472 Zn451 2.019 . S
H473 C466 0.930 . S
H474 C453 0.930 . S
H475 C465 0.930 . S
Zn476 N480 2.020 . S
Zn476 O484 2.019 . S
Zn476 N486 2.119 . S
Zn476 O494 1.975 . S
C477 N478 1.334 . S
C477 N481 1.336 . S
N478 C477 1.334 . S
N478 C479 1.334 . S
C479 N478 1.334 . S
C479 N480 1.336 . S
N480 Zn476 2.020 . S
N480 C479 1.336 . S
N480 N481 1.354 . S
N481 C477 1.336 . S
N481 N480 1.354 . S
N481 Zn485 2.020 . S
C482 O483 1.244 . S
C482 O506 1.257 . S
O483 C482 1.244 . S
O484 Zn476 2.019 . S
O484 C504 1.257 . S
Zn485 N481 2.020 . S
Zn485 O492 1.975 . S
Zn485 N501 2.119 . S
Zn485 O506 2.019 . S
N486 Zn476 2.119 . S
N486 C488 1.334 . S
N486 C489 1.328 . S
C487 C488 1.391 . S
C487 N490 1.329 . S
C487 H508 0.930 . S
C488 N486 1.334 . S
C488 C487 1.391 . S
C488 H495 0.930 . S
C489 N486 1.328 . S
C489 C491 1.392 . S
C489 H496 0.930 . S
N490 C487 1.329 . S
N490 C491 1.331 . S
C491 C489 1.392 . S
C491 N490 1.331 . S
O492 Zn485 1.975 . S
O492 C493 1.252 . S
C493 O492 1.252 . S
C493 O494 1.252 . S
O494 Zn476 1.975 . S
O494 C493 1.252 . S
H495 C488 0.930 . S
H496 C489 0.930 . S
C497 C498 1.392 1_556 S
C497 N501 1.328 . S
C497 H503 0.930 . S
C498 C497 1.392 1_554 S
C498 N502 1.331 . S
C499 C500 1.391 . S
C499 N502 1.329 1_556 S
C499 H509 0.930 . S
C500 C499 1.391 . S
C500 N501 1.334 . S
C500 H507 0.930 . S
N501 Zn485 2.119 . S
N501 C497 1.328 . S
N501 C500 1.334 . S
N502 C498 1.331 . S
N502 C499 1.329 1_554 S
H503 C497 0.930 . S
C504 O484 1.257 . S
C504 O505 1.244 . S
O505 C504 1.244 . S
O506 C482 1.257 . S
O506 Zn485 2.019 . S
H507 C500 0.930 . S
H508 C487 0.930 . S
H509 C499 0.930 . S
Zn510 N514 2.020 . S
Zn510 O518 2.019 . S
Zn510 N520 2.119 . S
Zn510 O528 1.975 . S
C511 N512 1.334 . S
C511 N515 1.336 . S
N512 C511 1.334 . S
N512 C513 1.334 . S
C513 N512 1.334 . S
C513 N514 1.336 . S
N514 Zn510 2.020 . S
N514 C513 1.336 . S
N514 N515 1.354 . S
N515 C511 1.336 . S
N515 N514 1.354 . S
N515 Zn519 2.020 . S
C516 O517 1.244 . S
C516 O540 1.257 . S
O517 C516 1.244 . S
O518 Zn510 2.019 . S
O518 C538 1.257 . S
Zn519 N515 2.020 . S
Zn519 O526 1.975 . S
Zn519 N535 2.119 . S
Zn519 O540 2.019 . S
N520 Zn510 2.119 . S
N520 C522 1.334 . S
N520 C523 1.328 . S
C521 C522 1.391 . S
C521 N524 1.329 . S
C521 H542 0.930 . S
C522 N520 1.334 . S
C522 C521 1.391 . S
C522 H529 0.930 . S
C523 N520 1.328 . S
C523 C525 1.392 . S
C523 H530 0.930 . S
N524 C521 1.329 . S
N524 C525 1.331 . S
C525 C523 1.392 . S
C525 N524 1.331 . S
O526 Zn519 1.975 . S
O526 C527 1.252 . S
C527 O526 1.252 . S
C527 O528 1.252 . S
O528 Zn510 1.975 . S
O528 C527 1.252 . S
H529 C522 0.930 . S
H530 C523 0.930 . S
C531 C532 1.392 . S
C531 N535 1.328 . S
C531 H537 0.930 . S
C532 C531 1.392 . S
C532 N536 1.331 . S
C533 C534 1.391 . S
C533 N536 1.329 . S
C533 H543 0.930 . S
C534 C533 1.391 . S
C534 N535 1.334 . S
C534 H541 0.930 . S
N535 Zn519 2.119 . S
N535 C531 1.328 . S
N535 C534 1.334 . S
N536 C532 1.331 . S
N536 C533 1.329 . S
H537 C531 0.930 . S
C538 O518 1.257 . S
C538 O539 1.244 . S
O539 C538 1.244 . S
O540 C516 1.257 . S
O540 Zn519 2.019 . S
H541 C534 0.930 . S
H542 C521 0.930 . S
H543 C533 0.930 . S
H544 C550 0.930 . S
H545 C553 0.930 . S
H546 C554 0.930 . S
H547 C555 0.930 . S
H548 C558 0.930 . S
H549 C559 0.930 . S
C550 H544 0.930 . S
C550 C551 1.355 . S
C550 C552 1.415 . S
C551 C550 1.355 . S
C551 C553 1.419 . S
C552 C550 1.415 . S
C552 C557 1.425 . S
C552 C559 1.409 . S
C553 H545 0.930 . S
C553 C551 1.419 . S
C553 C554 1.362 . S
C554 H546 0.930 . S
C554 C553 1.362 . S
C554 C557 1.409 . S
C555 H547 0.930 . S
C555 C556 1.355 . S
C555 C557 1.415 . S
C556 C555 1.355 . S
C556 C558 1.419 . S
C557 C552 1.425 . S
C557 C554 1.409 . S
C557 C555 1.415 . S
C558 H548 0.930 . S
C558 C556 1.419 . S
C558 C559 1.362 . S
C559 H549 0.930 . S
C559 C552 1.409 . S
C559 C558 1.362 . S
H560 C566 0.930 . S
H561 C569 0.930 . S
H562 C570 0.930 . S
H563 C571 0.930 . S
H564 C574 0.930 . S
H565 C575 0.930 1_556 S
C566 H560 0.930 . S
C566 C567 1.355 . S
C566 C568 1.415 . S
C567 C566 1.355 . S
C567 C569 1.419 . S
C568 C566 1.415 . S
C568 C573 1.426 . S
C568 C575 1.409 1_556 S
C569 H561 0.930 . S
C569 C567 1.419 . S
C569 C570 1.362 . S
C570 H562 0.930 . S
C570 C569 1.362 . S
C570 C573 1.410 . S
C571 H563 0.930 . S
C571 C572 1.355 . S
C571 C573 1.413 1_554 S
C572 C571 1.355 . S
C572 C574 1.419 . S
C573 C568 1.426 . S
C573 C570 1.410 . S
C573 C571 1.413 1_556 S
C574 H564 0.930 . S
C574 C572 1.419 . S
C574 C575 1.362 . S
C575 H565 0.930 1_554 S
C575 C568 1.409 1_554 S
C575 C574 1.362 . S
H576 C582 0.930 . S
H577 C585 0.930 . S
H578 C586 0.930 . S
H579 C587 0.930 . S
H580 C590 0.930 . S
H581 C591 0.930 . S
C582 H576 0.930 . S
C582 C583 1.355 . S
C582 C584 1.415 . S
C583 C582 1.355 . S
C583 C585 1.419 . S
C584 C582 1.415 . S
C584 C589 1.425 . S
C584 C591 1.409 . S
C585 H577 0.930 . S
C585 C583 1.419 . S
C585 C586 1.362 . S
C586 H578 0.930 . S
C586 C585 1.362 . S
C586 C589 1.409 . S
C587 H579 0.930 . S
C587 C588 1.355 . S
C587 C589 1.415 . S
C588 C587 1.355 . S
C588 C590 1.419 . S
C589 C584 1.425 . S
C589 C586 1.409 . S
C589 C587 1.415 . S
C590 H580 0.930 . S
C590 C588 1.419 . S
C590 C591 1.362 . S
C591 H581 0.930 . S
C591 C584 1.409 . S
C591 C590 1.362 . S
H592 C598 0.930 . S
H593 C601 0.930 . S
H594 C602 0.930 . S
H595 C603 0.930 . S
H596 C606 0.930 . S
H597 C607 0.930 . S
C598 H592 0.930 . S
C598 C599 1.355 . S
C598 C600 1.415 . S
C599 C598 1.355 . S
C599 C601 1.419 . S
C600 C598 1.415 . S
C600 C605 1.425 . S
C600 C607 1.409 . S
C601 H593 0.930 . S
C601 C599 1.419 . S
C601 C602 1.362 . S
C602 H594 0.930 . S
C602 C601 1.362 . S
C602 C605 1.409 . S
C603 H595 0.930 . S
C603 C604 1.355 . S
C603 C605 1.415 . S
C604 C603 1.355 . S
C604 C606 1.419 . S
C605 C600 1.425 . S
C605 C602 1.409 . S
C605 C603 1.415 . S
C606 H596 0.930 . S
C606 C604 1.419 . S
C606 C607 1.362 . S
C607 H597 0.930 . S
C607 C600 1.409 . S
C607 C606 1.362 . S
H608 C614 0.930 . S
H609 C617 0.930 . S
H610 C618 0.930 . S
H611 C619 0.930 . S
H612 C622 0.930 . S
H613 C623 0.930 . S
C614 H608 0.930 . S
C614 C615 1.355 . S
C614 C616 1.415 . S
C615 C614 1.355 . S
C615 C617 1.419 . S
C616 C614 1.415 . S
C616 C621 1.425 . S
C616 C623 1.409 . S
C617 H609 0.930 . S
C617 C615 1.419 . S
C617 C618 1.362 . S
C618 H610 0.930 . S
C618 C617 1.362 . S
C618 C621 1.409 . S
C619 H611 0.930 . S
C619 C620 1.355 . S
C619 C621 1.415 . S
C620 C619 1.355 . S
C620 C622 1.419 . S
C621 C616 1.425 . S
C621 C618 1.409 . S
C621 C619 1.415 . S
C622 H612 0.930 . S
C622 C620 1.419 . S
C622 C623 1.362 . S
C623 H613 0.930 . S
C623 C616 1.409 . S
C623 C622 1.362 . S
H624 C630 0.930 . S
H625 C633 0.930 . S
H626 C634 0.930 1_554 S
H627 C635 0.930 . S
H628 C638 0.930 . S
H629 C639 0.930 . S
C630 H624 0.930 . S
C630 C631 1.355 . S
C630 C632 1.415 . S
C631 C630 1.355 . S
C631 C633 1.419 . S
C632 C630 1.415 . S
C632 C637 1.425 1_556 S
C632 C639 1.409 1_556 S
C633 H625 0.930 . S
C633 C631 1.419 . S
C633 C634 1.362 . S
C634 H626 0.930 1_556 S
C634 C633 1.362 . S
C634 C637 1.409 1_556 S
C635 H627 0.930 . S
C635 C636 1.355 . S
C635 C637 1.415 . S
C636 C635 1.355 . S
C636 C638 1.419 . S
C637 C632 1.425 1_554 S
C637 C634 1.409 1_554 S
C637 C635 1.415 . S
C638 H628 0.930 . S
C638 C636 1.419 . S
C638 C639 1.362 . S
C639 H629 0.930 . S
C639 C632 1.409 1_554 S
C639 C638 1.362 . S
H640 C646 0.930 . S
H641 C649 0.930 . S
H642 C650 0.930 . S
H643 C651 0.930 . S
H644 C654 0.930 . S
H645 C655 0.930 . S
C646 H640 0.930 . S
C646 C647 1.355 . S
C646 C648 1.415 . S
C647 C646 1.355 . S
C647 C649 1.419 . S
C648 C646 1.415 . S
C648 C653 1.425 . S
C648 C655 1.409 . S
C649 H641 0.930 . S
C649 C647 1.419 . S
C649 C650 1.362 . S
C650 H642 0.930 . S
C650 C649 1.362 . S
C650 C653 1.409 . S
C651 H643 0.930 . S
C651 C652 1.355 . S
C651 C653 1.415 . S
C652 C651 1.355 . S
C652 C654 1.419 . S
C653 C648 1.425 . S
C653 C650 1.409 . S
C653 C651 1.415 . S
C654 H644 0.930 . S
C654 C652 1.419 . S
C654 C655 1.362 . S
C655 H645 0.930 . S
C655 C648 1.409 . S
C655 C654 1.362 . S
H656 C662 0.930 . S
H657 C665 0.930 . S
H658 C666 0.930 . S
H659 C667 0.930 . S
H660 C670 0.930 . S
H661 C671 0.930 . S
C662 H656 0.930 . S
C662 C663 1.355 . S
C662 C664 1.415 . S
C663 C662 1.355 . S
C663 C665 1.419 . S
C664 C662 1.415 . S
C664 C669 1.425 . S
C664 C671 1.409 . S
C665 H657 0.930 . S
C665 C663 1.419 . S
C665 C666 1.362 . S
C666 H658 0.930 . S
C666 C665 1.362 . S
C666 C669 1.409 . S
C667 H659 0.930 . S
C667 C668 1.355 . S
C667 C669 1.415 . S
C668 C667 1.355 . S
C668 C670 1.419 . S
C669 C664 1.425 . S
C669 C666 1.409 . S
C669 C667 1.415 . S
C670 H660 0.930 . S
C670 C668 1.419 . S
C670 C671 1.362 . S
C671 H661 0.930 . S
C671 C664 1.409 . S
C671 C670 1.362 . S
H672 C678 0.930 . S
H673 C681 0.930 . S
H674 C682 0.930 . S
H675 C683 0.930 . S
H676 C686 0.930 . S
H677 C687 0.930 . S
C678 H672 0.930 . S
C678 C679 1.355 . S
C678 C680 1.415 . S
C679 C678 1.355 . S
C679 C681 1.419 . S
C680 C678 1.415 . S
C680 C685 1.425 . S
C680 C687 1.409 . S
C681 H673 0.930 . S
C681 C679 1.419 . S
C681 C682 1.362 . S
C682 H674 0.930 . S
C682 C681 1.362 . S
C682 C685 1.409 . S
C683 H675 0.930 . S
C683 C684 1.355 . S
C683 C685 1.415 . S
C684 C683 1.355 . S
C684 C686 1.419 . S
C685 C680 1.425 . S
C685 C682 1.409 . S
C685 C683 1.415 . S
C686 H676 0.930 . S
C686 C684 1.419 . S
C686 C687 1.362 . S
C687 H677 0.930 . S
C687 C680 1.409 . S
C687 C686 1.362 . S
H688 C694 0.930 . S
H689 C697 0.930 . S
H690 C698 0.930 . S
H691 C699 0.930 . S
H692 C702 0.930 . S
H693 C703 0.930 . S
C694 H688 0.930 . S
C694 C695 1.355 . S
C694 C696 1.415 . S
C695 C694 1.355 . S
C695 C697 1.419 . S
C696 C694 1.415 . S
C696 C701 1.425 . S
C696 C703 1.409 . S
C697 H689 0.930 . S
C697 C695 1.419 . S
C697 C698 1.362 . S
C698 H690 0.930 . S
C698 C697 1.362 . S
C698 C701 1.409 . S
C699 H691 0.930 . S
C699 C700 1.355 . S
C699 C701 1.415 . S
C700 C699 1.355 . S
C700 C702 1.419 . S
C701 C696 1.425 . S
C701 C698 1.409 . S
C701 C699 1.415 . S
C702 H692 0.930 . S
C702 C700 1.419 . S
C702 C703 1.362 . S
C703 H693 0.930 . S
C703 C696 1.409 . S
C703 C702 1.362 . S
H704 C710 0.930 . S
H705 C713 0.930 . S
H706 C714 0.930 . S
H707 C715 0.930 . S
H708 C718 0.930 . S
H709 C719 0.930 . S
C710 H704 0.930 . S
C710 C711 1.355 . S
C710 C712 1.415 . S
C711 C710 1.355 . S
C711 C713 1.419 . S
C712 C710 1.415 . S
C712 C717 1.425 . S
C712 C719 1.409 . S
C713 H705 0.930 . S
C713 C711 1.419 . S
C713 C714 1.362 . S
C714 H706 0.930 . S
C714 C713 1.362 . S
C714 C717 1.409 . S
C715 H707 0.930 . S
C715 C716 1.355 . S
C715 C717 1.415 . S
C716 C715 1.355 . S
C716 C718 1.419 . S
C717 C712 1.425 . S
C717 C714 1.409 . S
C717 C715 1.415 . S
C718 H708 0.930 . S
C718 C716 1.419 . S
C718 C719 1.362 . S
C719 H709 0.930 . S
C719 C712 1.409 . S
C719 C718 1.362 . S
H720 C726 0.930 . S
H721 C729 0.930 . S
H722 C730 0.930 . S
H723 C731 0.930 . S
H724 C734 0.930 . S
H725 C735 0.927 1_556 S
C726 H720 0.930 . S
C726 C727 1.355 . S
C726 C728 1.415 . S
C727 C726 1.355 . S
C727 C729 1.419 . S
C728 C726 1.415 . S
C728 C733 1.425 . S
C728 C735 1.409 1_556 S
C729 H721 0.930 . S
C729 C727 1.419 . S
C729 C730 1.362 . S
C730 H722 0.930 . S
C730 C729 1.362 . S
C730 C733 1.409 . S
C731 H723 0.930 . S
C731 C732 1.355 . S
C731 C733 1.415 1_554 S
C732 C731 1.355 . S
C732 C734 1.419 . S
C733 C728 1.425 . S
C733 C730 1.409 . S
C733 C731 1.415 1_556 S
C734 H724 0.930 . S
C734 C732 1.419 . S
C734 C735 1.362 . S
C735 H725 0.927 1_554 S
C735 C728 1.409 1_554 S
C735 C734 1.362 . S
H736 C742 0.930 . S
H737 C745 0.930 . S
H738 C746 0.930 . S
H739 C747 0.930 . S
H740 C750 0.930 . S
H741 C751 0.930 . S
C742 H736 0.930 . S
C742 C743 1.355 . S
C742 C744 1.415 . S
C743 C742 1.355 . S
C743 C745 1.419 . S
C744 C742 1.415 . S
C744 C749 1.425 . S
C744 C751 1.409 . S
C745 H737 0.930 . S
C745 C743 1.419 . S
C745 C746 1.362 . S
C746 H738 0.930 . S
C746 C745 1.362 . S
C746 C749 1.409 . S
C747 H739 0.930 . S
C747 C748 1.355 . S
C747 C749 1.415 . S
C748 C747 1.355 . S
C748 C750 1.419 . S
C749 C744 1.425 . S
C749 C746 1.409 . S
C749 C747 1.415 . S
C750 H740 0.930 . S
C750 C748 1.419 . S
C750 C751 1.362 . S
C751 H741 0.930 . S
C751 C744 1.409 . S
C751 C750 1.362 . S
H752 C758 0.930 . S
H753 C761 0.930 . S
H754 C762 0.930 . S
H755 C763 0.930 . S
H756 C766 0.930 . S
H757 C767 0.930 . S
C758 H752 0.930 . S
C758 C759 1.355 . S
C758 C760 1.415 . S
C759 C758 1.355 . S
C759 C761 1.419 . S
C760 C758 1.415 . S
C760 C765 1.425 . S
C760 C767 1.409 . S
C761 H753 0.930 . S
C761 C759 1.419 . S
C761 C762 1.362 . S
C762 H754 0.930 . S
C762 C761 1.362 . S
C762 C765 1.409 . S
C763 H755 0.930 . S
C763 C764 1.355 . S
C763 C765 1.415 . S
C764 C763 1.355 . S
C764 C766 1.419 . S
C765 C760 1.425 . S
C765 C762 1.409 . S
C765 C763 1.415 . S
C766 H756 0.930 . S
C766 C764 1.419 . S
C766 C767 1.362 . S
C767 H757 0.930 . S
C767 C760 1.409 . S
C767 C766 1.362 . S
H768 C774 0.930 . S
H769 C777 0.930 . S
H770 C778 0.930 . S
H771 C779 0.930 . S
H772 C782 0.930 . S
H773 C783 0.930 . S
C774 H768 0.930 . S
C774 C775 1.355 . S
C774 C776 1.415 . S
C775 C774 1.355 . S
C775 C777 1.419 . S
C776 C774 1.415 . S
C776 C781 1.425 . S
C776 C783 1.409 . S
C777 H769 0.930 . S
C777 C775 1.419 . S
C777 C778 1.362 . S
C778 H770 0.930 . S
C778 C777 1.362 . S
C778 C781 1.409 . S
C779 H771 0.930 . S
C779 C780 1.355 . S
C779 C781 1.415 . S
C780 C779 1.355 . S
C780 C782 1.419 . S
C781 C776 1.425 . S
C781 C778 1.409 . S
C781 C779 1.415 . S
C782 H772 0.930 . S
C782 C780 1.419 . S
C782 C783 1.362 . S
C783 H773 0.930 . S
C783 C776 1.409 . S
C783 C782 1.362 . S
H784 C790 0.930 . S
H785 C793 0.930 . S
H786 C794 0.930 . S
H787 C795 0.930 . S
H788 C798 0.930 . S
H789 C799 0.930 . S
C790 H784 0.930 . S
C790 C791 1.355 . S
C790 C792 1.415 . S
C791 C790 1.355 . S
C791 C793 1.419 . S
C792 C790 1.415 . S
C792 C797 1.425 . S
C792 C799 1.409 1_554 S
C793 H785 0.930 . S
C793 C791 1.419 . S
C793 C794 1.362 . S
C794 H786 0.930 . S
C794 C793 1.362 . S
C794 C797 1.409 . S
C795 H787 0.930 . S
C795 C796 1.355 . S
C795 C797 1.415 1_556 S
C796 C795 1.355 . S
C796 C798 1.419 . S
C797 C792 1.425 . S
C797 C794 1.409 . S
C797 C795 1.415 1_554 S
C798 H788 0.930 . S
C798 C796 1.419 . S
C798 C799 1.362 . S
C799 H789 0.930 . S
C799 C792 1.409 1_556 S
C799 C798 1.362 . S
H800 C806 0.930 . S
H801 C809 0.930 . S
H802 C810 0.930 . S
H803 C811 0.930 . S
H804 C814 0.930 . S
H805 C815 0.930 . S
C806 H800 0.930 . S
C806 C807 1.355 . S
C806 C808 1.415 . S
C807 C806 1.355 . S
C807 C809 1.419 . S
C808 C806 1.415 . S
C808 C813 1.425 . S
C808 C815 1.409 . S
C809 H801 0.930 . S
C809 C807 1.419 . S
C809 C810 1.362 . S
C810 H802 0.930 . S
C810 C809 1.362 . S
C810 C813 1.409 . S
C811 H803 0.930 . S
C811 C812 1.355 . S
C811 C813 1.415 . S
C812 C811 1.355 . S
C812 C814 1.419 . S
C813 C808 1.425 . S
C813 C810 1.409 . S
C813 C811 1.415 . S
C814 H804 0.930 . S
C814 C812 1.419 . S
C814 C815 1.362 . S
C815 H805 0.930 . S
C815 C808 1.409 . S
C815 C814 1.362 . S
H816 C822 0.930 . S
H817 C825 0.930 . S
H818 C826 0.930 . S
H819 C827 0.930 . S
H820 C830 0.930 . S
H821 C831 0.930 . S
C822 H816 0.930 . S
C822 C823 1.355 . S
C822 C824 1.415 . S
C823 C822 1.355 . S
C823 C825 1.419 . S
C824 C822 1.415 . S
C824 C829 1.425 . S
C824 C831 1.409 . S
C825 H817 0.930 . S
C825 C823 1.419 . S
C825 C826 1.362 . S
C826 H818 0.930 . S
C826 C825 1.362 . S
C826 C829 1.409 . S
C827 H819 0.930 . S
C827 C828 1.355 . S
C827 C829 1.415 . S
C828 C827 1.355 . S
C828 C830 1.419 . S
C829 C824 1.425 . S
C829 C826 1.409 . S
C829 C827 1.415 . S
C830 H820 0.930 . S
C830 C828 1.419 . S
C830 C831 1.362 . S
C831 H821 0.930 . S
C831 C824 1.409 . S
C831 C830 1.362 . S
H832 C838 0.930 . S
H833 C841 0.930 . S
H834 C842 0.930 . S
H835 C843 0.930 . S
H836 C846 0.930 . S
H837 C847 0.930 . S
C838 H832 0.930 . S
C838 C839 1.355 . S
C838 C840 1.415 . S
C839 C838 1.355 . S
C839 C841 1.419 . S
C840 C838 1.415 . S
C840 C845 1.425 . S
C840 C847 1.409 . S
C841 H833 0.930 . S
C841 C839 1.419 . S
C841 C842 1.362 . S
C842 H834 0.930 . S
C842 C841 1.362 . S
C842 C845 1.409 . S
C843 H835 0.930 . S
C843 C844 1.355 . S
C843 C845 1.415 . S
C844 C843 1.355 . S
C844 C846 1.419 . S
C845 C840 1.425 . S
C845 C842 1.409 . S
C845 C843 1.415 . S
C846 H836 0.930 . S
C846 C844 1.419 . S
C846 C847 1.362 . S
C847 H837 0.930 . S
C847 C840 1.409 . S
C847 C846 1.362 . S
H848 C854 0.930 1_655 S
H849 C857 0.930 1_554 S
H850 C858 0.930 . S
H851 C859 0.930 1_455 S
H852 C862 0.930 1_556 S
H853 C863 0.930 . S
C854 H848 0.930 1_455 S
C854 C855 1.355 . S
C854 C856 1.415 1_455 S
C855 C854 1.355 . S
C855 C857 1.419 . S
C856 C854 1.415 1_655 S
C856 C861 1.425 1_656 S
C856 C863 1.409 . S
C857 H849 0.930 1_556 S
C857 C855 1.419 . S
C857 C858 1.362 1_556 S
C858 H850 0.930 . S
C858 C857 1.362 1_554 S
C858 C861 1.409 . S
C859 H851 0.930 1_655 S
C859 C860 1.355 . S
C859 C861 1.415 1_655 S
C860 C859 1.355 . S
C860 C862 1.419 . S
C861 C856 1.425 1_454 S
C861 C858 1.409 . S
C861 C859 1.415 1_455 S
C862 H852 0.930 1_554 S
C862 C860 1.419 . S
C862 C863 1.362 1_554 S
C863 H853 0.930 . S
C863 C856 1.409 . S
C863 C862 1.362 1_556 S
H864 C870 0.930 . S
H865 C873 0.930 . S
H866 C874 0.930 . S
H867 C875 0.930 . S
H868 C878 0.930 . S
H869 C879 0.930 . S
C870 H864 0.930 . S
C870 C871 1.355 . S
C870 C872 1.415 . S
C871 C870 1.355 . S
C871 C873 1.419 . S
C872 C870 1.415 . S
C872 C877 1.425 . S
C872 C879 1.409 . S
C873 H865 0.930 . S
C873 C871 1.419 . S
C873 C874 1.362 . S
C874 H866 0.930 . S
C874 C873 1.362 . S
C874 C877 1.409 . S
C875 H867 0.930 . S
C875 C876 1.355 . S
C875 C877 1.415 . S
C876 C875 1.355 . S
C876 C878 1.419 . S
C877 C872 1.425 . S
C877 C874 1.409 . S
C877 C875 1.415 . S
C878 H868 0.930 . S
C878 C876 1.419 . S
C878 C879 1.362 . S
C879 H869 0.930 . S
C879 C872 1.409 . S
C879 C878 1.362 . S
H880 C886 0.930 . S
H881 C889 0.930 . S
H882 C890 0.930 . S
H883 C891 0.930 . S
H884 C894 0.930 . S
H885 C895 0.930 . S
C886 H880 0.930 . S
C886 C887 1.355 . S
C886 C888 1.415 . S
C887 C886 1.355 . S
C887 C889 1.419 . S
C888 C886 1.415 . S
C888 C893 1.425 . S
C888 C895 1.409 . S
C889 H881 0.930 . S
C889 C887 1.419 . S
C889 C890 1.362 . S
C890 H882 0.930 . S
C890 C889 1.362 . S
C890 C893 1.409 . S
C891 H883 0.930 . S
C891 C892 1.355 . S
C891 C893 1.415 . S
C892 C891 1.355 . S
C892 C894 1.419 . S
C893 C888 1.425 . S
C893 C890 1.409 . S
C893 C891 1.415 . S
C894 H884 0.930 . S
C894 C892 1.419 . S
C894 C895 1.362 . S
C895 H885 0.930 . S
C895 C888 1.409 . S
C895 C894 1.362 . S
H896 C902 0.930 . S
H897 C905 0.930 . S
H898 C906 0.930 . S
H899 C907 0.930 . S
H900 C910 0.930 . S
H901 C911 0.930 . S
C902 H896 0.930 . S
C902 C903 1.355 . S
C902 C904 1.416 1_545 S
C903 C902 1.355 . S
C903 C905 1.419 1_556 S
C904 C902 1.416 1_565 S
C904 C909 1.425 1_666 S
C904 C911 1.408 1_655 S
C905 H897 0.930 . S
C905 C903 1.419 1_554 S
C905 C906 1.362 . S
C906 H898 0.930 . S
C906 C905 1.362 . S
C906 C909 1.408 1_655 S
C907 H899 0.930 . S
C907 C908 1.355 . S
C907 C909 1.416 1_565 S
C908 C907 1.355 . S
C908 C910 1.419 1_554 S
C909 C904 1.425 1_444 S
C909 C906 1.408 1_455 S
C909 C907 1.416 1_545 S
C910 H900 0.930 . S
C910 C908 1.419 1_556 S
C910 C911 1.362 . S
C911 H901 0.930 . S
C911 C904 1.408 1_455 S
C911 C910 1.362 . S
H912 C918 0.930 . S
H913 C921 0.930 . S
H914 C922 0.930 . S
H915 C923 0.930 . S
H916 C926 0.930 . S
H917 C927 0.930 . S
C918 H912 0.930 . S
C918 C919 1.355 . S
C918 C920 1.415 1_545 S
C919 C918 1.355 . S
C919 C921 1.419 . S
C920 C918 1.415 1_565 S
C920 C925 1.425 1_565 S
C920 C927 1.409 . S
C921 H913 0.930 . S
C921 C919 1.419 . S
C921 C922 1.362 . S
C922 H914 0.930 . S
C922 C921 1.362 . S
C922 C925 1.409 . S
C923 H915 0.930 . S
C923 C924 1.355 . S
C923 C925 1.415 1_565 S
C924 C923 1.355 . S
C924 C926 1.419 . S
C925 C920 1.425 1_545 S
C925 C922 1.409 . S
C925 C923 1.415 1_545 S
C926 H916 0.930 . S
C926 C924 1.419 . S
C926 C927 1.362 . S
C927 H917 0.930 . S
C927 C920 1.409 . S
C927 C926 1.362 . S
H928 C934 0.930 . S
H929 C937 0.930 1_565 S
H930 C938 0.930 . S
H931 C939 0.930 . S
H932 C942 0.930 . S
H933 C943 0.930 . S
C934 H928 0.930 . S
C934 C935 1.355 . S
C934 C936 1.415 . S
C935 C934 1.355 . S
C935 C937 1.419 . S
C936 C934 1.415 . S
C936 C941 1.425 . S
C936 C943 1.409 . S
C937 H929 0.930 1_545 S
C937 C935 1.419 . S
C937 C938 1.362 . S
C938 H930 0.930 . S
C938 C937 1.362 . S
C938 C941 1.409 . S
C939 H931 0.930 . S
C939 C940 1.355 . S
C939 C941 1.415 . S
C940 C939 1.355 . S
C940 C942 1.419 . S
C941 C936 1.425 . S
C941 C938 1.409 . S
C941 C939 1.415 . S
C942 H932 0.930 . S
C942 C940 1.419 . S
C942 C943 1.362 . S
C943 H933 0.930 . S
C943 C936 1.409 . S
C943 C942 1.362 . S
H944 C950 0.930 . S
H945 C953 0.930 . S
H946 C954 0.930 . S
H947 C955 0.930 . S
H948 C958 0.930 . S
H949 C959 0.930 . S
C950 H944 0.930 . S
C950 C951 1.355 . S
C950 C952 1.415 . S
C951 C950 1.355 . S
C951 C953 1.419 . S
C952 C950 1.415 . S
C952 C957 1.425 . S
C952 C959 1.409 . S
C953 H945 0.930 . S
C953 C951 1.419 . S
C953 C954 1.362 . S
C954 H946 0.930 . S
C954 C953 1.362 . S
C954 C957 1.409 . S
C955 H947 0.930 . S
C955 C956 1.355 . S
C955 C957 1.415 . S
C956 C955 1.355 . S
C956 C958 1.419 . S
C957 C952 1.425 . S
C957 C954 1.409 . S
C957 C955 1.415 . S
C958 H948 0.930 . S
C958 C956 1.419 . S
C958 C959 1.362 . S
C959 H949 0.930 . S
C959 C952 1.409 . S
C959 C958 1.362 . S
H960 C966 0.930 . S
H961 C969 0.930 . S
H962 C970 0.930 . S
H963 C971 0.930 . S
H964 C974 0.930 . S
H965 C975 0.930 . S
C966 H960 0.930 . S
C966 C967 1.355 . S
C966 C968 1.415 . S
C967 C966 1.355 . S
C967 C969 1.419 . S
C968 C966 1.415 . S
C968 C973 1.425 . S
C968 C975 1.409 . S
C969 H961 0.930 . S
C969 C967 1.419 . S
C969 C970 1.362 . S
C970 H962 0.930 . S
C970 C969 1.362 . S
C970 C973 1.409 . S
C971 H963 0.930 . S
C971 C972 1.355 . S
C971 C973 1.415 . S
C972 C971 1.355 . S
C972 C974 1.419 . S
C973 C968 1.425 . S
C973 C970 1.409 . S
C973 C971 1.415 . S
C974 H964 0.930 . S
C974 C972 1.419 . S
C974 C975 1.362 . S
C975 H965 0.930 . S
C975 C968 1.409 . S
C975 C974 1.362 . S
H976 C982 0.930 . S
H977 C985 0.930 . S
H978 C986 0.930 . S
H979 C987 0.930 . S
H980 C990 0.930 . S
H981 C991 0.930 . S
C982 H976 0.930 . S
C982 C983 1.355 . S
C982 C984 1.415 . S
C983 C982 1.355 . S
C983 C985 1.419 . S
C984 C982 1.415 . S
C984 C989 1.425 . S
C984 C991 1.409 . S
C985 H977 0.930 . S
C985 C983 1.419 . S
C985 C986 1.362 . S
C986 H978 0.930 . S
C986 C985 1.362 . S
C986 C989 1.409 . S
C987 H979 0.930 . S
C987 C988 1.355 . S
C987 C989 1.415 . S
C988 C987 1.355 . S
C988 C990 1.419 . S
C989 C984 1.425 . S
C989 C986 1.409 . S
C989 C987 1.415 . S
C990 H980 0.930 . S
C990 C988 1.419 . S
C990 C991 1.362 . S
C991 H981 0.930 . S
C991 C984 1.409 . S
C991 C990 1.362 . S
H992 C998 0.930 . S
H993 C1001 0.930 . S
H994 C1002 0.930 . S
H995 C1003 0.930 . S
H996 C1006 0.930 . S
H997 C1007 0.930 . S
C998 H992 0.930 . S
C998 C999 1.355 . S
C998 C1000 1.415 . S
C999 C998 1.355 . S
C999 C1001 1.419 1_565 S
C1000 C998 1.415 . S
C1000 C1005 1.425 . S
C1000 C1007 1.409 . S
C1001 H993 0.930 . S
C1001 C999 1.419 1_545 S
C1001 C1002 1.362 1_545 S
C1002 H994 0.930 . S
C1002 C1001 1.362 1_565 S
C1002 C1005 1.409 . S
C1003 H995 0.930 . S
C1003 C1004 1.355 . S
C1003 C1005 1.415 . S
C1004 C1003 1.355 . S
C1004 C1006 1.419 . S
C1005 C1000 1.425 . S
C1005 C1002 1.409 . S
C1005 C1003 1.415 . S
C1006 H996 0.930 . S
C1006 C1004 1.419 . S
C1006 C1007 1.362 . S
C1007 H997 0.930 . S
C1007 C1000 1.409 . S
C1007 C1006 1.362 . S
H1008 C1014 0.930 . S
H1009 C1017 0.930 . S
H1010 C1018 0.930 . S
H1011 C1019 0.930 . S
H1012 C1022 0.930 . S
H1013 C1023 0.930 . S
C1014 H1008 0.930 . S
C1014 C1015 1.355 . S
C1014 C1016 1.415 . S
C1015 C1014 1.355 . S
C1015 C1017 1.419 . S
C1016 C1014 1.415 . S
C1016 C1021 1.425 . S
C1016 C1023 1.409 . S
C1017 H1009 0.930 . S
C1017 C1015 1.419 . S
C1017 C1018 1.362 . S
C1018 H1010 0.930 . S
C1018 C1017 1.362 . S
C1018 C1021 1.409 . S
C1019 H1011 0.930 . S
C1019 C1020 1.355 . S
C1019 C1021 1.415 . S
C1020 C1019 1.355 . S
C1020 C1022 1.419 . S
C1021 C1016 1.425 . S
C1021 C1018 1.409 . S
C1021 C1019 1.415 . S
C1022 H1012 0.930 . S
C1022 C1020 1.419 . S
C1022 C1023 1.362 . S
C1023 H1013 0.930 . S
C1023 C1016 1.409 . S
C1023 C1022 1.362 . S
H1024 C1030 0.930 . S
H1025 C1033 0.930 . S
H1026 C1034 0.930 . S
H1027 C1035 0.930 . S
H1028 C1038 0.930 . S
H1029 C1039 0.930 . S
C1030 H1024 0.930 . S
C1030 C1031 1.355 . S
C1030 C1032 1.415 . S
C1031 C1030 1.355 . S
C1031 C1033 1.419 . S
C1032 C1030 1.415 . S
C1032 C1037 1.425 . S
C1032 C1039 1.409 . S
C1033 H1025 0.930 . S
C1033 C1031 1.419 . S
C1033 C1034 1.362 . S
C1034 H1026 0.930 . S
C1034 C1033 1.362 . S
C1034 C1037 1.409 . S
C1035 H1027 0.930 . S
C1035 C1036 1.355 . S
C1035 C1037 1.415 . S
C1036 C1035 1.355 . S
C1036 C1038 1.419 . S
C1037 C1032 1.425 . S
C1037 C1034 1.409 . S
C1037 C1035 1.415 . S
C1038 H1028 0.930 . S
C1038 C1036 1.419 . S
C1038 C1039 1.362 . S
C1039 H1029 0.930 . S
C1039 C1032 1.409 . S
C1039 C1038 1.362 . S
H1040 C1046 0.930 1_556 S
H1041 C1049 0.930 . S
H1042 C1050 0.930 . S
H1043 C1051 0.930 . S
H1044 C1054 0.930 . S
H1045 C1055 0.930 1_556 S
C1046 H1040 0.930 1_554 S
C1046 C1047 1.355 . S
C1046 C1048 1.415 . S
C1047 C1046 1.355 . S
C1047 C1049 1.419 . S
C1048 C1046 1.415 . S
C1048 C1053 1.425 . S
C1048 C1055 1.409 . S
C1049 H1041 0.930 . S
C1049 C1047 1.419 . S
C1049 C1050 1.362 . S
C1050 H1042 0.930 . S
C1050 C1049 1.362 . S
C1050 C1053 1.409 . S
C1051 H1043 0.930 . S
C1051 C1052 1.355 . S
C1051 C1053 1.415 . S
C1052 C1051 1.355 . S
C1052 C1054 1.419 . S
C1053 C1048 1.425 . S
C1053 C1050 1.409 . S
C1053 C1051 1.415 . S
C1054 H1044 0.930 . S
C1054 C1052 1.419 . S
C1054 C1055 1.362 . S
C1055 H1045 0.930 1_554 S
C1055 C1048 1.409 . S
C1055 C1054 1.362 . S
H1056 C1062 0.930 . S
H1057 C1065 0.930 . S
H1058 C1066 0.930 . S
H1059 C1067 0.930 . S
H1060 C1070 0.930 . S
H1061 C1071 0.930 . S
C1062 H1056 0.930 . S
C1062 C1063 1.355 . S
C1062 C1064 1.415 . S
C1063 C1062 1.355 . S
C1063 C1065 1.419 . S
C1064 C1062 1.415 . S
C1064 C1069 1.425 . S
C1064 C1071 1.409 . S
C1065 H1057 0.930 . S
C1065 C1063 1.419 . S
C1065 C1066 1.362 . S
C1066 H1058 0.930 . S
C1066 C1065 1.362 . S
C1066 C1069 1.409 . S
C1067 H1059 0.930 . S
C1067 C1068 1.355 . S
C1067 C1069 1.415 . S
C1068 C1067 1.355 . S
C1068 C1070 1.419 . S
C1069 C1064 1.425 . S
C1069 C1066 1.409 . S
C1069 C1067 1.415 . S
C1070 H1060 0.930 . S
C1070 C1068 1.419 . S
C1070 C1071 1.362 . S
C1071 H1061 0.930 . S
C1071 C1064 1.409 . S
C1071 C1070 1.362 . S
H1072 C1078 0.930 1_554 S
H1073 C1081 0.930 . S
H1074 C1082 0.930 . S
H1075 C1083 0.930 . S
H1076 C1086 0.930 . S
H1077 C1087 0.930 1_554 S
C1078 H1072 0.930 1_556 S
C1078 C1079 1.355 . S
C1078 C1080 1.415 . S
C1079 C1078 1.355 . S
C1079 C1081 1.419 . S
C1080 C1078 1.415 . S
C1080 C1085 1.425 . S
C1080 C1087 1.409 . S
C1081 H1073 0.930 . S
C1081 C1079 1.419 . S
C1081 C1082 1.362 . S
C1082 H1074 0.930 . S
C1082 C1081 1.362 . S
C1082 C1085 1.409 . S
C1083 H1075 0.930 . S
C1083 C1084 1.355 . S
C1083 C1085 1.415 . S
C1084 C1083 1.355 . S
C1084 C1086 1.419 . S
C1085 C1080 1.425 . S
C1085 C1082 1.409 . S
C1085 C1083 1.415 . S
C1086 H1076 0.930 . S
C1086 C1084 1.419 . S
C1086 C1087 1.362 . S
C1087 H1077 0.930 1_556 S
C1087 C1080 1.409 . S
C1087 C1086 1.362 . S
H1088 C1094 0.930 . S
H1089 C1097 0.930 . S
H1090 C1098 0.930 . S
H1091 C1099 0.930 . S
H1092 C1102 0.930 . S
H1093 C1103 0.930 . S
C1094 H1088 0.930 . S
C1094 C1095 1.355 . S
C1094 C1096 1.415 . S
C1095 C1094 1.355 . S
C1095 C1097 1.419 . S
C1096 C1094 1.415 . S
C1096 C1101 1.425 . S
C1096 C1103 1.409 . S
C1097 H1089 0.930 . S
C1097 C1095 1.419 . S
C1097 C1098 1.362 . S
C1098 H1090 0.930 . S
C1098 C1097 1.362 . S
C1098 C1101 1.409 . S
C1099 H1091 0.930 . S
C1099 C1100 1.355 . S
C1099 C1101 1.415 . S
C1100 C1099 1.355 . S
C1100 C1102 1.419 . S
C1101 C1096 1.425 . S
C1101 C1098 1.409 . S
C1101 C1099 1.415 . S
C1102 H1092 0.930 . S
C1102 C1100 1.419 . S
C1102 C1103 1.362 . S
C1103 H1093 0.930 . S
C1103 C1096 1.409 . S
C1103 C1102 1.362 . S
H1104 C1110 0.930 . S
H1105 C1113 0.930 . S
H1106 C1114 0.930 . S
H1107 C1115 0.930 . S
H1108 C1118 0.930 . S
H1109 C1119 0.930 . S
C1110 H1104 0.930 . S
C1110 C1111 1.355 . S
C1110 C1112 1.415 . S
C1111 C1110 1.355 . S
C1111 C1113 1.419 . S
C1112 C1110 1.415 . S
C1112 C1117 1.425 . S
C1112 C1119 1.409 . S
C1113 H1105 0.930 . S
C1113 C1111 1.419 . S
C1113 C1114 1.362 . S
C1114 H1106 0.930 . S
C1114 C1113 1.362 . S
C1114 C1117 1.409 . S
C1115 H1107 0.930 . S
C1115 C1116 1.355 . S
C1115 C1117 1.415 . S
C1116 C1115 1.355 . S
C1116 C1118 1.419 . S
C1117 C1112 1.425 . S
C1117 C1114 1.409 . S
C1117 C1115 1.415 . S
C1118 H1108 0.930 . S
C1118 C1116 1.419 . S
C1118 C1119 1.362 . S
C1119 H1109 0.930 . S
C1119 C1112 1.409 . S
C1119 C1118 1.362 . S
H1120 C1126 0.930 . S
H1121 C1129 0.930 . S
H1122 C1130 0.930 . S
H1123 C1131 0.930 . S
H1124 C1134 0.930 . S
H1125 C1135 0.930 . S
C1126 H1120 0.930 . S
C1126 C1127 1.355 . S
C1126 C1128 1.415 . S
C1127 C1126 1.355 . S
C1127 C1129 1.419 . S
C1128 C1126 1.415 . S
C1128 C1133 1.425 . S
C1128 C1135 1.409 . S
C1129 H1121 0.930 . S
C1129 C1127 1.419 . S
C1129 C1130 1.362 . S
C1130 H1122 0.930 . S
C1130 C1129 1.362 . S
C1130 C1133 1.409 . S
C1131 H1123 0.930 . S
C1131 C1132 1.355 . S
C1131 C1133 1.415 . S
C1132 C1131 1.355 . S
C1132 C1134 1.419 . S
C1133 C1128 1.425 . S
C1133 C1130 1.409 . S
C1133 C1131 1.415 . S
C1134 H1124 0.930 . S
C1134 C1132 1.419 . S
C1134 C1135 1.362 . S
C1135 H1125 0.930 . S
C1135 C1128 1.409 . S
C1135 C1134 1.362 . S
H1136 C1142 0.930 . S
H1137 C1145 0.930 . S
H1138 C1146 0.930 . S
H1139 C1147 0.930 . S
H1140 C1150 0.930 . S
H1141 C1151 0.930 . S
C1142 H1136 0.930 . S
C1142 C1143 1.355 . S
C1142 C1144 1.415 . S
C1143 C1142 1.355 . S
C1143 C1145 1.419 . S
C1144 C1142 1.415 . S
C1144 C1149 1.425 . S
C1144 C1151 1.409 . S
C1145 H1137 0.930 . S
C1145 C1143 1.419 . S
C1145 C1146 1.362 . S
C1146 H1138 0.930 . S
C1146 C1145 1.362 . S
C1146 C1149 1.409 . S
C1147 H1139 0.930 . S
C1147 C1148 1.355 . S
C1147 C1149 1.415 . S
C1148 C1147 1.355 . S
C1148 C1150 1.419 . S
C1149 C1144 1.425 . S
C1149 C1146 1.409 . S
C1149 C1147 1.415 . S
C1150 H1140 0.930 . S
C1150 C1148 1.419 . S
C1150 C1151 1.362 . S
C1151 H1141 0.930 . S
C1151 C1144 1.409 . S
C1151 C1150 1.362 . S
H1152 C1158 0.930 . S
H1153 C1161 0.930 . S
H1154 C1162 0.930 . S
H1155 C1163 0.930 . S
H1156 C1166 0.930 . S
H1157 C1167 0.930 . S
C1158 H1152 0.930 . S
C1158 C1159 1.355 . S
C1158 C1160 1.415 . S
C1159 C1158 1.355 . S
C1159 C1161 1.419 . S
C1160 C1158 1.415 . S
C1160 C1165 1.425 . S
C1160 C1167 1.409 . S
C1161 H1153 0.930 . S
C1161 C1159 1.419 . S
C1161 C1162 1.362 . S
C1162 H1154 0.930 . S
C1162 C1161 1.362 . S
C1162 C1165 1.409 . S
C1163 H1155 0.930 . S
C1163 C1164 1.355 . S
C1163 C1165 1.415 . S
C1164 C1163 1.355 . S
C1164 C1166 1.419 . S
C1165 C1160 1.425 . S
C1165 C1162 1.409 . S
C1165 C1163 1.415 . S
C1166 H1156 0.930 . S
C1166 C1164 1.419 . S
C1166 C1167 1.362 . S
C1167 H1157 0.930 . S
C1167 C1160 1.409 . S
C1167 C1166 1.362 . S
H1168 C1174 0.930 . S
H1169 C1177 0.930 . S
H1170 C1178 0.930 . S
H1171 C1179 0.930 . S
H1172 C1182 0.930 . S
H1173 C1183 0.930 . S
C1174 H1168 0.930 . S
C1174 C1175 1.355 . S
C1174 C1176 1.415 . S
C1175 C1174 1.355 . S
C1175 C1177 1.419 . S
C1176 C1174 1.415 . S
C1176 C1181 1.425 . S
C1176 C1183 1.409 . S
C1177 H1169 0.930 . S
C1177 C1175 1.419 . S
C1177 C1178 1.362 . S
C1178 H1170 0.930 . S
C1178 C1177 1.362 . S
C1178 C1181 1.409 . S
C1179 H1171 0.930 . S
C1179 C1180 1.355 . S
C1179 C1181 1.415 . S
C1180 C1179 1.355 . S
C1180 C1182 1.419 . S
C1181 C1176 1.425 . S
C1181 C1178 1.409 . S
C1181 C1179 1.415 . S
C1182 H1172 0.930 . S
C1182 C1180 1.419 . S
C1182 C1183 1.362 . S
C1183 H1173 0.930 . S
C1183 C1176 1.409 . S
C1183 C1182 1.362 . S
H1184 C1190 0.930 . S
H1185 C1193 0.930 . S
H1186 C1194 0.930 . S
H1187 C1195 0.930 . S
H1188 C1198 0.930 . S
H1189 C1199 0.930 . S
C1190 H1184 0.930 . S
C1190 C1191 1.355 . S
C1190 C1192 1.415 . S
C1191 C1190 1.355 . S
C1191 C1193 1.419 . S
C1192 C1190 1.415 . S
C1192 C1197 1.425 . S
C1192 C1199 1.409 . S
C1193 H1185 0.930 . S
C1193 C1191 1.419 . S
C1193 C1194 1.362 . S
C1194 H1186 0.930 . S
C1194 C1193 1.362 . S
C1194 C1197 1.409 . S
C1195 H1187 0.930 . S
C1195 C1196 1.355 . S
C1195 C1197 1.415 . S
C1196 C1195 1.355 . S
C1196 C1198 1.419 . S
C1197 C1192 1.425 . S
C1197 C1194 1.409 . S
C1197 C1195 1.415 . S
C1198 H1188 0.930 . S
C1198 C1196 1.419 . S
C1198 C1199 1.362 . S
C1199 H1189 0.930 . S
C1199 C1192 1.409 . S
C1199 C1198 1.362 . S
H1200 C1206 0.930 . S
H1201 C1209 0.930 . S
H1202 C1210 0.930 . S
H1203 C1211 0.930 . S
H1204 C1214 0.930 . S
H1205 C1215 0.930 . S
C1206 H1200 0.930 . S
C1206 C1207 1.355 . S
C1206 C1208 1.415 . S
C1207 C1206 1.355 . S
C1207 C1209 1.419 . S
C1208 C1206 1.415 . S
C1208 C1213 1.425 . S
C1208 C1215 1.409 . S
C1209 H1201 0.930 . S
C1209 C1207 1.419 . S
C1209 C1210 1.362 . S
C1210 H1202 0.930 . S
C1210 C1209 1.362 . S
C1210 C1213 1.409 . S
C1211 H1203 0.930 . S
C1211 C1212 1.355 . S
C1211 C1213 1.415 . S
C1212 C1211 1.355 . S
C1212 C1214 1.419 . S
C1213 C1208 1.425 . S
C1213 C1210 1.409 . S
C1213 C1211 1.415 . S
C1214 H1204 0.930 . S
C1214 C1212 1.419 . S
C1214 C1215 1.362 . S
C1215 H1205 0.930 . S
C1215 C1208 1.409 . S
C1215 C1214 1.362 . S
H1216 C1222 0.930 . S
H1217 C1225 0.930 . S
H1218 C1226 0.930 . S
H1219 C1227 0.930 . S
H1220 C1230 0.930 . S
H1221 C1231 0.930 . S
C1222 H1216 0.930 . S
C1222 C1223 1.355 . S
C1222 C1224 1.415 . S
C1223 C1222 1.355 . S
C1223 C1225 1.419 . S
C1224 C1222 1.415 . S
C1224 C1229 1.425 . S
C1224 C1231 1.409 . S
C1225 H1217 0.930 . S
C1225 C1223 1.419 . S
C1225 C1226 1.362 . S
C1226 H1218 0.930 . S
C1226 C1225 1.362 . S
C1226 C1229 1.409 . S
C1227 H1219 0.930 . S
C1227 C1228 1.355 . S
C1227 C1229 1.415 . S
C1228 C1227 1.355 . S
C1228 C1230 1.419 . S
C1229 C1224 1.425 . S
C1229 C1226 1.409 . S
C1229 C1227 1.415 . S
C1230 H1220 0.930 . S
C1230 C1228 1.419 . S
C1230 C1231 1.362 . S
C1231 H1221 0.930 . S
C1231 C1224 1.409 . S
C1231 C1230 1.362 . S
H1232 C1238 0.930 . S
H1233 C1241 0.930 . S
H1234 C1242 0.930 . S
H1235 C1243 0.930 . S
H1236 C1246 0.930 . S
H1237 C1247 0.930 . S
C1238 H1232 0.930 . S
C1238 C1239 1.355 . S
C1238 C1240 1.415 . S
C1239 C1238 1.355 . S
C1239 C1241 1.419 . S
C1240 C1238 1.415 . S
C1240 C1245 1.425 . S
C1240 C1247 1.409 1_455 S
C1241 H1233 0.930 . S
C1241 C1239 1.419 . S
C1241 C1242 1.362 . S
C1242 H1234 0.930 . S
C1242 C1241 1.362 . S
C1242 C1245 1.409 . S
C1243 H1235 0.930 . S
C1243 C1244 1.355 . S
C1243 C1245 1.415 1_655 S
C1244 C1243 1.355 . S
C1244 C1246 1.419 . S
C1245 C1240 1.425 . S
C1245 C1242 1.409 . S
C1245 C1243 1.415 1_455 S
C1246 H1236 0.930 . S
C1246 C1244 1.419 . S
C1246 C1247 1.362 . S
C1247 H1237 0.930 . S
C1247 C1240 1.409 1_655 S
C1247 C1246 1.362 . S
H1248 C1254 0.930 . S
H1249 C1257 0.930 . S
H1250 C1258 0.930 . S
H1251 C1259 0.930 . S
H1252 C1262 0.930 . S
H1253 C1263 0.930 . S
C1254 H1248 0.930 . S
C1254 C1255 1.355 . S
C1254 C1256 1.415 . S
C1255 C1254 1.355 . S
C1255 C1257 1.419 . S
C1256 C1254 1.415 . S
C1256 C1261 1.425 . S
C1256 C1263 1.409 . S
C1257 H1249 0.930 . S
C1257 C1255 1.419 . S
C1257 C1258 1.362 . S
C1258 H1250 0.930 . S
C1258 C1257 1.362 . S
C1258 C1261 1.409 . S
C1259 H1251 0.930 . S
C1259 C1260 1.355 . S
C1259 C1261 1.415 . S
C1260 C1259 1.355 . S
C1260 C1262 1.419 . S
C1261 C1256 1.425 . S
C1261 C1258 1.409 . S
C1261 C1259 1.415 . S
C1262 H1252 0.930 . S
C1262 C1260 1.419 . S
C1262 C1263 1.362 . S
C1263 H1253 0.930 . S
C1263 C1256 1.409 . S
C1263 C1262 1.362 . S
H1264 C1270 0.930 . S
H1265 C1273 0.930 . S
H1266 C1274 0.930 . S
H1267 C1275 0.930 . S
H1268 C1278 0.930 . S
H1269 C1279 0.930 . S
C1270 H1264 0.930 . S
C1270 C1271 1.355 . S
C1270 C1272 1.415 . S
C1271 C1270 1.355 . S
C1271 C1273 1.419 . S
C1272 C1270 1.415 . S
C1272 C1277 1.425 . S
C1272 C1279 1.409 . S
C1273 H1265 0.930 . S
C1273 C1271 1.419 . S
C1273 C1274 1.362 . S
C1274 H1266 0.930 . S
C1274 C1273 1.362 . S
C1274 C1277 1.409 . S
C1275 H1267 0.930 . S
C1275 C1276 1.355 . S
C1275 C1277 1.415 . S
C1276 C1275 1.355 . S
C1276 C1278 1.419 . S
C1277 C1272 1.425 . S
C1277 C1274 1.409 . S
C1277 C1275 1.415 . S
C1278 H1268 0.930 . S
C1278 C1276 1.419 . S
C1278 C1279 1.362 . S
C1279 H1269 0.930 . S
C1279 C1272 1.409 . S
C1279 C1278 1.362 . S
H1280 C1286 0.930 . S
H1281 C1289 0.930 . S
H1282 C1290 0.930 . S
H1283 C1291 0.930 . S
H1284 C1294 0.930 . S
H1285 C1295 0.930 . S
C1286 H1280 0.930 . S
C1286 C1287 1.355 . S
C1286 C1288 1.415 . S
C1287 C1286 1.355 . S
C1287 C1289 1.419 . S
C1288 C1286 1.415 . S
C1288 C1293 1.425 . S
C1288 C1295 1.409 . S
C1289 H1281 0.930 . S
C1289 C1287 1.419 . S
C1289 C1290 1.362 . S
C1290 H1282 0.930 . S
C1290 C1289 1.362 . S
C1290 C1293 1.409 . S
C1291 H1283 0.930 . S
C1291 C1292 1.355 . S
C1291 C1293 1.415 . S
C1292 C1291 1.355 . S
C1292 C1294 1.419 . S
C1293 C1288 1.425 . S
C1293 C1290 1.409 . S
C1293 C1291 1.415 . S
C1294 H1284 0.930 . S
C1294 C1292 1.419 . S
C1294 C1295 1.362 . S
C1295 H1285 0.930 . S
C1295 C1288 1.409 . S
C1295 C1294 1.362 . S
H1296 C1302 0.930 . S
H1297 C1305 0.930 1_556 S
H1298 C1306 0.930 1_655 S
H1299 C1307 0.930 . S
H1300 C1310 0.930 . S
H1301 C1311 0.930 . S
C1302 H1296 0.930 . S
C1302 C1303 1.355 . S
C1302 C1304 1.415 1_455 S
C1303 C1302 1.355 . S
C1303 C1305 1.419 . S
C1304 C1302 1.415 1_655 S
C1304 C1309 1.425 . S
C1304 C1311 1.409 . S
C1305 H1297 0.930 1_554 S
C1305 C1303 1.419 . S
C1305 C1306 1.362 . S
C1306 H1298 0.930 1_455 S
C1306 C1305 1.362 . S
C1306 C1309 1.409 1_455 S
C1307 H1299 0.930 . S
C1307 C1308 1.355 . S
C1307 C1309 1.415 . S
C1308 C1307 1.355 . S
C1308 C1310 1.419 . S
C1309 C1304 1.425 . S
C1309 C1306 1.409 1_655 S
C1309 C1307 1.415 . S
C1310 H1300 0.930 . S
C1310 C1308 1.419 . S
C1310 C1311 1.362 . S
C1311 H1301 0.930 . S
C1311 C1304 1.409 . S
C1311 C1310 1.362 . S
H1312 C1318 0.930 . S
H1313 C1321 0.930 . S
H1314 C1322 0.930 . S
H1315 C1323 0.930 . S
H1316 C1326 0.930 . S
H1317 C1327 0.930 . S
C1318 H1312 0.930 . S
C1318 C1319 1.355 . S
C1318 C1320 1.415 . S
C1319 C1318 1.355 . S
C1319 C1321 1.419 . S
C1320 C1318 1.415 . S
C1320 C1325 1.425 . S
C1320 C1327 1.409 . S
C1321 H1313 0.930 . S
C1321 C1319 1.419 . S
C1321 C1322 1.362 . S
C1322 H1314 0.930 . S
C1322 C1321 1.362 . S
C1322 C1325 1.409 . S
C1323 H1315 0.930 . S
C1323 C1324 1.355 . S
C1323 C1325 1.415 . S
C1324 C1323 1.355 . S
C1324 C1326 1.419 . S
C1325 C1320 1.425 . S
C1325 C1322 1.409 . S
C1325 C1323 1.415 . S
C1326 H1316 0.930 . S
C1326 C1324 1.419 . S
C1326 C1327 1.362 . S
C1327 H1317 0.930 . S
C1327 C1320 1.409 . S
C1327 C1326 1.362 . S
H1328 C1334 0.930 . S
H1329 C1337 0.930 . S
H1330 C1338 0.930 . S
H1331 C1339 0.930 . S
H1332 C1342 0.930 . S
H1333 C1343 0.930 . S
C1334 H1328 0.930 . S
C1334 C1335 1.355 . S
C1334 C1336 1.415 1_455 S
C1335 C1334 1.355 . S
C1335 C1337 1.419 . S
C1336 C1334 1.415 1_655 S
C1336 C1341 1.425 . S
C1336 C1343 1.409 . S
C1337 H1329 0.930 . S
C1337 C1335 1.419 . S
C1337 C1338 1.362 . S
C1338 H1330 0.930 . S
C1338 C1337 1.362 . S
C1338 C1341 1.409 1_455 S
C1339 H1331 0.930 . S
C1339 C1340 1.355 . S
C1339 C1341 1.415 . S
C1340 C1339 1.355 . S
C1340 C1342 1.419 . S
C1341 C1336 1.425 . S
C1341 C1338 1.409 1_655 S
C1341 C1339 1.415 . S
C1342 H1332 0.930 . S
C1342 C1340 1.419 . S
C1342 C1343 1.362 . S
C1343 H1333 0.930 . S
C1343 C1336 1.409 . S
C1343 C1342 1.362 . S
H1344 C1350 0.930 . S
H1345 C1353 0.930 . S
H1346 C1354 0.930 . S
H1347 C1355 0.930 . S
H1348 C1358 0.930 . S
H1349 C1359 0.930 . S
C1350 H1344 0.930 . S
C1350 C1351 1.355 . S
C1350 C1352 1.415 . S
C1351 C1350 1.355 . S
C1351 C1353 1.419 . S
C1352 C1350 1.415 . S
C1352 C1357 1.425 . S
C1352 C1359 1.409 . S
C1353 H1345 0.930 . S
C1353 C1351 1.419 . S
C1353 C1354 1.362 . S
C1354 H1346 0.930 . S
C1354 C1353 1.362 . S
C1354 C1357 1.409 . S
C1355 H1347 0.930 . S
C1355 C1356 1.355 . S
C1355 C1357 1.415 . S
C1356 C1355 1.355 . S
C1356 C1358 1.419 . S
C1357 C1352 1.425 . S
C1357 C1354 1.409 . S
C1357 C1355 1.415 . S
C1358 H1348 0.930 . S
C1358 C1356 1.419 . S
C1358 C1359 1.362 . S
C1359 H1349 0.930 . S
C1359 C1352 1.409 . S
C1359 C1358 1.362 . S
H1360 C1366 0.930 . S
H1361 C1369 0.930 . S
H1362 C1370 0.930 . S
H1363 C1371 0.930 . S
H1364 C1374 0.930 . S
H1365 C1375 0.930 . S
C1366 H1360 0.930 . S
C1366 C1367 1.355 . S
C1366 C1368 1.415 . S
C1367 C1366 1.355 . S
C1367 C1369 1.419 . S
C1368 C1366 1.415 . S
C1368 C1373 1.425 . S
C1368 C1375 1.409 . S
C1369 H1361 0.930 . S
C1369 C1367 1.419 . S
C1369 C1370 1.362 . S
C1370 H1362 0.930 . S
C1370 C1369 1.362 . S
C1370 C1373 1.409 . S
C1371 H1363 0.930 . S
C1371 C1372 1.355 . S
C1371 C1373 1.415 . S
C1372 C1371 1.355 . S
C1372 C1374 1.419 . S
C1373 C1368 1.425 . S
C1373 C1370 1.409 . S
C1373 C1371 1.415 . S
C1374 H1364 0.930 . S
C1374 C1372 1.419 . S
C1374 C1375 1.362 . S
C1375 H1365 0.930 . S
C1375 C1368 1.409 . S
C1375 C1374 1.362 . S
H1376 C1382 0.930 . S
H1377 C1385 0.930 . S
H1378 C1386 0.930 . S
H1379 C1387 0.930 . S
H1380 C1390 0.930 . S
H1381 C1391 0.930 . S
C1382 H1376 0.930 . S
C1382 C1383 1.355 . S
C1382 C1384 1.415 . S
C1383 C1382 1.355 . S
C1383 C1385 1.419 . S
C1384 C1382 1.415 . S
C1384 C1389 1.425 . S
C1384 C1391 1.409 . S
C1385 H1377 0.930 . S
C1385 C1383 1.419 . S
C1385 C1386 1.362 . S
C1386 H1378 0.930 . S
C1386 C1385 1.362 . S
C1386 C1389 1.409 . S
C1387 H1379 0.930 . S
C1387 C1388 1.355 . S
C1387 C1389 1.415 . S
C1388 C1387 1.355 . S
C1388 C1390 1.419 . S
C1389 C1384 1.425 . S
C1389 C1386 1.409 . S
C1389 C1387 1.415 . S
C1390 H1380 0.930 . S
C1390 C1388 1.419 . S
C1390 C1391 1.362 . S
C1391 H1381 0.930 . S
C1391 C1384 1.409 . S
C1391 C1390 1.362 . S
H1392 C1398 0.930 . S
H1393 C1401 0.930 . S
H1394 C1402 0.930 . S
H1395 C1403 0.930 . S
H1396 C1406 0.930 . S
H1397 C1407 0.932 1_655 S
C1398 H1392 0.930 . S
C1398 C1399 1.355 . S
C1398 C1400 1.415 1_655 S
C1399 C1398 1.355 . S
C1399 C1401 1.419 . S
C1400 C1398 1.415 1_455 S
C1400 C1405 1.425 . S
C1400 C1407 1.409 . S
C1401 H1393 0.930 . S
C1401 C1399 1.419 . S
C1401 C1402 1.362 1_655 S
C1402 H1394 0.930 . S
C1402 C1401 1.362 1_455 S
C1402 C1405 1.409 . S
C1403 H1395 0.930 . S
C1403 C1404 1.355 . S
C1403 C1405 1.415 . S
C1404 C1403 1.355 . S
C1404 C1406 1.419 . S
C1405 C1400 1.425 . S
C1405 C1402 1.409 . S
C1405 C1403 1.415 . S
C1406 H1396 0.930 . S
C1406 C1404 1.419 . S
C1406 C1407 1.362 . S
C1407 H1397 0.932 1_455 S
C1407 C1400 1.409 . S
C1407 C1406 1.362 . S
H1408 C1414 0.930 . S
H1409 C1417 0.930 . S
H1410 C1418 0.930 . S
H1411 C1419 0.930 . S
H1412 C1422 0.930 . S
H1413 C1423 0.930 . S
C1414 H1408 0.930 . S
C1414 C1415 1.355 . S
C1414 C1416 1.415 . S
C1415 C1414 1.355 . S
C1415 C1417 1.419 . S
C1416 C1414 1.415 . S
C1416 C1421 1.425 . S
C1416 C1423 1.409 . S
C1417 H1409 0.930 . S
C1417 C1415 1.419 . S
C1417 C1418 1.362 . S
C1418 H1410 0.930 . S
C1418 C1417 1.362 . S
C1418 C1421 1.409 . S
C1419 H1411 0.930 . S
C1419 C1420 1.355 . S
C1419 C1421 1.415 . S
C1420 C1419 1.355 . S
C1420 C1422 1.419 . S
C1421 C1416 1.425 . S
C1421 C1418 1.409 . S
C1421 C1419 1.415 . S
C1422 H1412 0.930 . S
C1422 C1420 1.419 . S
C1422 C1423 1.362 . S
C1423 H1413 0.930 . S
C1423 C1416 1.409 . S
C1423 C1422 1.362 . S
H1424 C1430 0.930 . S
H1425 C1433 0.930 . S
H1426 C1434 0.930 . S
H1427 C1435 0.930 . S
H1428 C1438 0.930 . S
H1429 C1439 0.930 . S
C1430 H1424 0.930 . S
C1430 C1431 1.355 . S
C1430 C1432 1.415 . S
C1431 C1430 1.355 . S
C1431 C1433 1.419 . S
C1432 C1430 1.415 . S
C1432 C1437 1.425 . S
C1432 C1439 1.409 . S
C1433 H1425 0.930 . S
C1433 C1431 1.419 . S
C1433 C1434 1.362 . S
C1434 H1426 0.930 . S
C1434 C1433 1.362 . S
C1434 C1437 1.409 . S
C1435 H1427 0.930 . S
C1435 C1436 1.355 . S
C1435 C1437 1.415 . S
C1436 C1435 1.355 . S
C1436 C1438 1.419 . S
C1437 C1432 1.425 . S
C1437 C1434 1.409 . S
C1437 C1435 1.415 . S
C1438 H1428 0.930 . S
C1438 C1436 1.419 . S
C1438 C1439 1.362 . S
C1439 H1429 0.930 . S
C1439 C1432 1.409 . S
C1439 C1438 1.362 . S
C551 C15 1.502 . S
C556 C22 1.505 . S
C567 C56 1.503 . S
C572 C49 1.508 . S
C583 C83 1.450 . S
C588 C90 1.450 . S
C599 C124 1.458 . S
C604 C117 1.454 . S
C615 C158 1.469 . S
C620 C151 1.464 . S
C631 C192 1.534 . S
C636 C185 1.533 . S
C647 C219 1.445 . S
C652 C226 1.446 . S
C663 C253 1.533 . S
C668 C260 1.531 . S
C679 C294 1.445 . S
C684 C287 1.446 . S
C695 C321 1.477 . S
C700 C328 1.471 . S
C711 C355 1.531 . S
C716 C362 1.528 . S
C727 C389 1.488 . S
C732 C396 1.493 . S
C743 C423 1.451 . S
C748 C430 1.451 . S
C759 C464 1.446 . S
C764 C457 1.445 . S
C775 C498 1.481 . S
C780 C491 1.484 . S
C791 C532 1.507 . S
C796 C525 1.512 . S
C807 C1 1.983 . S
C812 C411 1.983 . S
C823 C173 2.002 . S
C828 C35 2.002 . S
C839 C479 2.007 . S
C844 C69 2.007 . S
C855 C239 2.043 . S
C860 C105 2.043 . S
C871 C139 2.035 . S
C876 C273 2.035 . S
C887 C207 2.027 . S
C892 C341 2.027 . S
C903 C445 1.990 . S
C908 C307 1.990 . S
C919 C377 2.001 . S
C924 C511 2.001 . S
C935 C312 1.344 1_545 S
C940 C17 1.302 . S
C951 C51 1.360 . S
C956 C346 1.375 . S
C967 C85 1.336 . S
C972 C402 1.369 1_565 S
C983 C278 1.356 . S
C988 C119 1.328 . S
C999 C470 1.343 1_565 S
C1004 C153 1.299 . S
C1015 C504 1.365 . S
C1020 C187 1.328 . S
C1031 C516 1.373 1_545 S
C1036 C221 1.357 . S
C1047 C255 1.300 . S
C1052 C436 1.347 . S
C1063 C40 1.380 . S
C1068 C289 1.366 . S
C1079 C323 1.298 . S
C1084 C74 1.343 . S
C1095 C130 1.378 . S
C1100 C357 1.353 . S
C1111 C6 1.344 . S
C1116 C391 1.297 . S
C1127 C425 1.342 . S
C1132 C198 1.373 . S
C1143 C232 1.349 . S
C1148 C459 1.303 . S
C1159 C493 1.324 . S
C1164 C244 1.363 . S
C1175 C527 1.368 . S
C1180 C164 1.385 . S
C1191 C3 1.405 . S
C1196 C266 1.379 . S
C1207 C37 1.324 . S
C1212 C414 1.417 . S
C1223 C176 1.396 . S
C1228 C71 1.412 . S
C1239 C482 1.397 . S
C1244 C103 1.412 . S
C1255 C108 1.380 . S
C1260 C137 1.380 . S
C1271 C171 1.330 . S
C1276 C300 1.443 . S
C1287 C62 1.377 . S
C1292 C205 1.398 . S
C1303 C241 1.377 . S
C1308 C368 1.381 . S
C1319 C538 1.402 . S
C1324 C275 1.339 . S
C1335 C309 1.371 . S
C1340 C142 1.383 . S
C1351 C343 1.320 . S
C1356 C448 1.437 . S
C1367 C210 1.423 . S
C1372 C375 1.321 . S
C1383 C380 1.382 . S
C1388 C409 1.410 . S
C1399 C443 1.319 . S
C1404 C28 1.426 . S
C1415 C334 1.379 . S
C1420 C477 1.382 . S
C1431 C96 1.388 . S
C1436 C513 1.360 . S
